# Generated by pormake.
# Topology nia, (6,6)-cn, num edge types: 1
# Building blocks:
#     Node 0, Type 0, BuildingBlock: FUNLAD_clean_sbu_0, # of connection points: 6
#     Node 1, Type 0, BuildingBlock: FUNLAD_clean_sbu_0, # of connection points: 6
#     Node 2, Type 1, BuildingBlock: MIDCAF_clean_sbu_0, # of connection points: 6
#     Node 3, Type 1, BuildingBlock: MIDCAF_clean_sbu_0, # of connection points: 6
#     Edge 4, Type (0, 1), BuildingBlock: UKIBUN_clean_linker_0, # of connection points: 2
#     Edge 5, Type (0, 1), BuildingBlock: UKIBUN_clean_linker_0, # of connection points: 2
#     Edge 6, Type (0, 1), BuildingBlock: UKIBUN_clean_linker_0, # of connection points: 2
#     Edge 7, Type (0, 1), BuildingBlock: UKIBUN_clean_linker_0, # of connection points: 2
#     Edge 8, Type (0, 1), BuildingBlock: UKIBUN_clean_linker_0, # of connection points: 2
#     Edge 9, Type (0, 1), BuildingBlock: UKIBUN_clean_linker_0, # of connection points: 2
#     Edge 10, Type (0, 1), BuildingBlock: UKIBUN_clean_linker_0, # of connection points: 2
#     Edge 11, Type (0, 1), BuildingBlock: UKIBUN_clean_linker_0, # of connection points: 2
#     Edge 12, Type (0, 1), BuildingBlock: UKIBUN_clean_linker_0, # of connection points: 2
#     Edge 13, Type (0, 1), BuildingBlock: UKIBUN_clean_linker_0, # of connection points: 2
#     Edge 14, Type (0, 1), BuildingBlock: UKIBUN_clean_linker_0, # of connection points: 2
#     Edge 15, Type (0, 1), BuildingBlock: UKIBUN_clean_linker_0, # of connection points: 2
# Relax obj value: 0.128
# Max RMSD: 0.239
# Mean RMSD: 0.134
data_MOF--net-nia--node1-FUNLAD_clean_sbu_0--node2-MIDCAF_clean_sbu_0--edge1-UKIBUN_clean_linker_0
_symmetry_space_group_name_H-M    P1
_symmetry_Int_Tables_number       1
_symmetry_cell_setting            triclinic
loop_
_symmetry_equiv_pos_as_xyz
'x, y, z'
_cell_length_a     37.856705
_cell_length_b     37.712624
_cell_length_c     56.78184
_cell_angle_alpha  94.256113
_cell_angle_beta   94.291579
_cell_angle_gamma 118.99976
loop_
_atom_site_label
_atom_site_type_symbol
_atom_site_fract_x
_atom_site_fract_y
_atom_site_fract_z
_atom_type_partial_charge
C0 C 0.0343 0.9844 0.04874 0.0
N1 N 0.07675 0.05217 0.99058 0.0
C2 C 0.11387 0.06226 1.00246 0.0
C3 C 0.14916 0.07822 0.99098 0.0
C4 C 0.1466 0.08404 0.96693 0.0
C5 C 0.10825 0.07345 0.95506 0.0
C6 C 0.07374 0.05765 0.96719 0.0
Zn7 Zn 0.02423 0.02863 0.00916 0.0
C8 C 0.96098 0.94351 0.99119 0.0
N9 N 0.91796 0.9815 0.0508 0.0
C10 C 0.91958 0.9756 0.07424 0.0
C11 C 0.88151 0.97219 0.03837 0.0
C12 C 0.84577 0.95732 0.04929 0.0
C13 C 0.84676 0.951 0.07323 0.0
C14 C 0.8842 0.96015 0.08578 0.0
Zn15 Zn 0.97087 0.00499 0.03224 0.0
O16 O 0.05033 0.00271 0.03126 0.0
C17 C 0.03411 0.09043 0.04928 0.0
O18 O 0.001 0.98164 0.05415 0.0
H19 H 0.87966 0.97596 0.01974 0.0
H20 H 0.11652 0.05844 0.02106 0.0
H21 H 0.94831 0.98285 0.08409 0.0
O22 O 0.05099 0.08366 0.03228 0.0
O23 O 0.00031 0.0623 0.05433 0.0
H24 H 0.04453 0.04994 0.95783 0.0
O25 O 0.9446 0.02984 0.01002 0.0
O26 O -0.00534 0.05304 0.98769 0.0
O27 O 0.94416 0.94913 0.00868 0.0
O28 O -0.00528 0.97251 0.98671 0.0
C29 C 0.96096 0.04921 0.99301 0.0
H30 H 0.17815 0.08593 1.0008 0.0
H31 H 0.10507 0.07808 0.93659 0.0
H32 H 0.81744 0.95058 0.03902 0.0
H33 H 0.88612 0.95558 0.10434 0.0
C34 C 0.02625 0.97603 0.49177 0.0
N35 N 0.95814 0.93363 0.5494 0.0
C36 C 0.94928 0.89656 0.53805 0.0
C37 C 0.93429 0.86171 0.54991 0.0
C38 C 0.9263 0.86379 0.5737 0.0
C39 C 0.93584 0.90271 0.5849 0.0
C40 C 0.95216 0.93707 0.57261 0.0
Zn41 Zn 0.98138 0.98542 0.53066 0.0
C42 C 0.06716 0.0481 0.54985 0.0
N43 N 0.03028 0.09288 0.49073 0.0
C44 C 0.03529 0.09063 0.46719 0.0
C45 C 0.03964 0.12954 0.50301 0.0
C46 C 0.05415 0.16509 0.49188 0.0
C47 C 0.05955 0.16355 0.46777 0.0
C48 C 0.04995 0.12569 0.45535 0.0
Zn49 Zn 0.00721 0.04049 0.50928 0.0
O50 O 0.00593 0.95855 0.50826 0.0
C51 C 0.92105 0.97802 0.49098 0.0
O52 O 0.03117 0.01074 0.48744 0.0
H53 H 0.03609 0.13167 0.52166 0.0
H54 H 0.95361 0.89355 0.51958 0.0
H55 H 0.02776 0.0616 0.45747 0.0
O56 O 0.92591 0.95919 0.50752 0.0
O57 O 0.95046 0.01189 0.48695 0.0
H58 H 0.95943 0.96646 0.58167 0.0
O59 O 0.9825 0.06693 0.53147 0.0
O60 O 0.95821 0.01507 0.55236 0.0
O61 O 0.06295 0.06703 0.53311 0.0
O62 O 0.03768 0.0138 0.55319 0.0
C63 C 0.96275 0.04965 0.54817 0.0
H64 H 0.92901 0.83359 0.5401 0.0
H65 H 0.93001 0.90726 0.60287 0.0
H66 H 0.06057 0.19352 0.50201 0.0
H67 H 0.05379 0.12325 0.43669 0.0
Zn68 Zn 0.30376 0.69152 0.20449 0.0
Zn69 Zn 0.31637 0.6968 0.33917 0.0
Zn70 Zn 0.30928 0.69431 0.26982 0.0
C71 C 0.38799 0.71663 0.30903 0.0
C72 C 0.26509 0.6345 0.2975 0.0
O73 O 0.2647 0.71023 0.25476 0.0
O74 O 0.28866 0.72785 0.22074 0.0
C75 C 0.37753 0.74649 0.2364 0.0
O76 O 0.37159 0.71631 0.28809 0.0
O77 O 0.36885 0.70891 0.32722 0.0
O78 O 0.2888 0.66874 0.30882 0.0
O79 O 0.26679 0.63234 0.27525 0.0
O80 O 0.3569 0.73508 0.21593 0.0
O81 O 0.36402 0.73053 0.25523 0.0
O82 O 0.29164 0.6307 0.25686 0.0
O83 O 0.29621 0.64658 0.22067 0.0
C84 C 0.29227 0.62143 0.23479 0.0
O85 O 0.29355 0.73642 0.28913 0.0
O86 O 0.30366 0.73907 0.32918 0.0
C87 C 0.26018 0.71767 0.23337 0.0
C88 C 0.29595 0.75227 0.31056 0.0
Zn89 Zn 0.68776 0.33568 0.83882 0.0
Zn90 Zn 0.67473 0.32499 0.70935 0.0
Zn91 Zn 0.68097 0.32797 0.76971 0.0
C92 C 0.69392 0.39201 0.74061 0.0
C93 C 0.6 0.27646 0.72951 0.0
O94 O 0.6966 0.28154 0.78107 0.0
O95 O 0.69375 0.30221 0.8166 0.0
C96 C 0.73522 0.40745 0.80942 0.0
O97 O 0.68276 0.38274 0.76085 0.0
O98 O 0.71119 0.375 0.73069 0.0
O99 O 0.61676 0.29239 0.71175 0.0
O100 O 0.61934 0.28682 0.75074 0.0
O101 O 0.72231 0.38581 0.82606 0.0
O102 O 0.72146 0.39239 0.78738 0.0
O103 O 0.63435 0.32997 0.78635 0.0
O104 O 0.6321 0.31056 0.82309 0.0
C105 C 0.61659 0.31729 0.8046 0.0
O106 O 0.7246 0.31701 0.75407 0.0
O107 O 0.70159 0.29387 0.71533 0.0
C108 C 0.69896 0.27825 0.80318 0.0
C109 C 0.7272 0.30274 0.73351 0.0
C110 C 0.06657 0.94047 0.0511 0.0
C111 C 0.0548 0.96667 0.06261 0.0
C112 C 0.08734 0.92472 0.06429 0.0
C113 C 0.16743 0.86179 0.11778 0.0
C114 C 0.22728 0.76036 0.23612 0.0
C115 C 0.22953 0.72788 0.22418 0.0
C116 C 0.21816 0.78566 0.22303 0.0
C117 C 0.18163 0.8817 0.16733 0.0
H118 H 0.05948 0.932 0.03198 0.0
H119 H 0.09587 0.90425 0.05518 0.0
H120 H 0.1615 0.85339 0.09865 0.0
H121 H 0.23695 0.7689 0.25507 0.0
H122 H 0.2185 0.81196 0.23234 0.0
H123 H 0.18631 0.88915 0.18651 0.0
C124 C 0.06424 0.97711 0.08735 0.0
C125 C 0.08569 0.962 0.10045 0.0
C126 C 0.16615 0.90109 0.15315 0.0
C127 C 0.21753 0.71792 0.19936 0.0
C128 C 0.21037 0.74412 0.18629 0.0
C129 C 0.18294 0.84237 0.13198 0.0
C130 C 0.09737 0.93579 0.08899 0.0
C131 C 0.11961 0.92031 0.10256 0.0
C132 C 0.13821 0.90753 0.11407 0.0
C133 C 0.15823 0.89066 0.12836 0.0
H134 H 0.05587 -0.00228 0.09643 0.0
H135 H 0.09328 0.97093 0.11952 0.0
H136 H 0.15922 0.92332 0.1616 0.0
H137 H 0.21945 0.69311 0.18968 0.0
H138 H 0.2054 0.73822 0.16701 0.0
H139 H 0.18865 0.81918 0.12362 0.0
C140 C 0.21158 0.77864 0.19802 0.0
C141 C 0.20555 0.80625 0.1842 0.0
C142 C 0.20029 0.82827 0.17172 0.0
C143 C 0.18939 0.85177 0.15685 0.0
C144 C 0.11773 0.09127 0.58513 0.0
C145 C 0.10695 0.06389 0.56432 0.0
C146 C 0.15352 0.10241 0.60025 0.0
C147 C 0.29309 0.14558 0.66035 0.0
C148 C 0.54366 0.21421 0.70582 0.0
C149 C 0.55648 0.24665 0.72428 0.0
C150 C 0.50342 0.19373 0.69471 0.0
C151 C 0.34736 0.11918 0.64761 0.0
H152 H 0.09795 0.10311 0.58998 0.0
H153 H 0.16097 0.12299 0.61648 0.0
H154 H 0.2726 0.15646 0.66532 0.0
H155 H 0.56539 0.20642 0.69905 0.0
H156 H 0.49448 0.1698 0.68001 0.0
H157 H 0.36826 0.10903 0.64234 0.0
C158 C 0.13289 0.04863 0.55849 0.0
C159 C 0.16872 0.0599 0.57353 0.0
C160 C 0.30925 0.10345 0.63397 0.0
C161 C 0.52822 0.25732 0.73188 0.0
C162 C 0.48796 0.23678 0.7208 0.0
C163 C 0.33119 0.16132 0.67397 0.0
C164 C 0.1789 0.08632 0.5947 0.0
C165 C 0.21494 0.09636 0.61083 0.0
C166 C 0.24504 0.10481 0.62435 0.0
C167 C 0.28229 0.11728 0.63996 0.0
H168 H 0.12497 0.02729 0.54256 0.0
H169 H 0.18803 0.04735 0.56887 0.0
H170 H 0.30138 0.08146 0.61836 0.0
H171 H 0.53802 0.28356 0.7451 0.0
H172 H 0.46692 0.24649 0.7264 0.0
H173 H 0.33947 0.18406 0.68925 0.0
C174 C 0.47547 0.20524 0.702 0.0
C175 C 0.43419 0.18509 0.69003 0.0
C176 C 0.39969 0.16816 0.67998 0.0
C177 C 0.35887 0.14889 0.66736 0.0
C178 C 0.08174 0.13961 0.08323 0.0
C179 C 0.05439 0.13121 0.06286 0.0
C180 C 0.10531 0.17961 0.09459 0.0
C181 C 0.19766 0.33357 0.14067 0.0
C182 C 0.25012 0.56933 0.20149 0.0
C183 C 0.27549 0.57953 0.22322 0.0
C184 C 0.23851 0.53352 0.18694 0.0
C185 C 0.18727 0.39789 0.12661 0.0
H186 H 0.08564 0.1154 0.08992 0.0
H187 H 0.12677 0.18569 0.11014 0.0
H188 H 0.20139 0.30873 0.1465 0.0
H189 H 0.24009 0.58987 0.19523 0.0
H190 H 0.22001 0.52722 0.17 0.0
H191 H 0.18251 0.42241 0.12126 0.0
C192 C 0.0504 0.16309 0.05402 0.0
C193 C 0.07387 0.20313 0.06548 0.0
C194 C 0.16749 0.35983 0.11257 0.0
C195 C 0.28744 0.55194 0.23077 0.0
C196 C 0.27486 0.5151 0.21614 0.0
C197 C 0.21742 0.37156 0.15467 0.0
C198 C 0.10173 0.21151 0.08563 0.0
C199 C 0.1269 0.25278 0.09706 0.0
C200 C 0.14827 0.2871 0.1069 0.0
C201 C 0.17206 0.32739 0.11982 0.0
H202 H 0.02985 0.15715 0.03803 0.0
H203 H 0.0708 0.22755 0.0584 0.0
H204 H 0.14771 0.35539 0.0965 0.0
H205 H 0.30737 0.55937 0.24724 0.0
H206 H 0.28432 0.49382 0.22176 0.0
H207 H 0.23611 0.37562 0.17116 0.0
C208 C 0.25116 0.50652 0.19401 0.0
C209 C 0.23934 0.47021 0.17819 0.0
C210 C 0.22806 0.4406 0.16387 0.0
C211 C 0.21168 0.4035 0.1479 0.0
C212 C 0.92666 0.05277 0.58248 0.0
C213 C 0.94698 0.07075 0.56328 0.0
C214 C 0.91529 0.07436 0.59826 0.0
C215 C 0.87317 0.15867 0.66109 0.0
C216 C 0.78559 0.31685 0.71295 0.0
C217 C 0.76016 0.29538 0.7296 0.0
C218 C 0.80666 0.3007 0.70138 0.0
C219 C 0.8835 0.23517 0.65273 0.0
H220 H 0.9205 0.02246 0.5857 0.0
H221 H 0.90053 0.06042 0.61333 0.0
H222 H 0.86848 0.12877 0.66422 0.0
H223 H 0.78672 0.34443 0.70768 0.0
H224 H 0.82505 0.31663 0.68789 0.0
H225 H 0.88715 0.26454 0.64919 0.0
C226 C 0.95388 0.10995 0.5594 0.0
C227 C 0.94245 0.13149 0.57523 0.0
C228 C 0.89987 0.21648 0.63849 0.0
C229 C 0.75709 0.25881 0.73539 0.0
C230 C 0.77818 0.24263 0.7238 0.0
C231 C 0.8568 0.17733 0.67531 0.0
C232 C 0.9239 0.11399 0.59491 0.0
C233 C 0.91433 0.137 0.6119 0.0
C234 C 0.90635 0.15638 0.62612 0.0
C235 C 0.89399 0.17785 0.64239 0.0
H236 H 0.969 0.12442 0.54455 0.0
H237 H 0.9488 0.16202 0.57238 0.0
H238 H 0.91594 0.23154 0.62404 0.0
H239 H 0.736 0.2413 0.74741 0.0
H240 H 0.77448 0.21343 0.7277 0.0
H241 H 0.83971 0.16172 0.68931 0.0
C242 C 0.80258 0.26336 0.70664 0.0
C243 C 0.82344 0.2463 0.69434 0.0
C244 C 0.84115 0.23236 0.68386 0.0
C245 C 0.86128 0.21518 0.67081 0.0
C246 C 0.79679 0.9622 0.09493 0.0
C247 C 0.80871 0.93514 0.08474 0.0
C248 C 0.7595 0.94728 0.10417 0.0
C249 C 0.61539 0.89013 0.14235 0.0
C250 C 0.43308 0.74159 0.22429 0.0
C251 C 0.42024 0.76726 0.23504 0.0
C252 C 0.45964 0.75533 0.20739 0.0
C253 C 0.56678 0.80611 0.14383 0.0
H254 H 0.81612 -0.00511 0.09545 0.0
H255 H 0.75084 0.96868 0.11184 0.0
H256 H 0.63433 0.92274 0.14224 0.0
H257 H 0.41747 0.70915 0.22596 0.0
H258 H 0.46603 0.73399 0.19731 0.0
H259 H 0.5486 0.77361 0.14477 0.0
C260 C 0.78261 0.89283 0.08402 0.0
C261 C 0.74529 0.87791 0.09326 0.0
C262 C 0.60073 0.82042 0.13151 0.0
C263 C 0.4389 0.80863 0.23178 0.0
C264 C 0.46755 0.82309 0.21583 0.0
C265 C 0.58144 0.87581 0.15465 0.0
C266 C 0.73349 0.90509 0.10324 0.0
C267 C 0.69489 0.88985 0.11255 0.0
C268 C 0.66272 0.87743 0.12037 0.0
C269 C 0.62551 0.86251 0.13104 0.0
H270 H 0.79086 0.87135 0.076 0.0
H271 H 0.72553 0.8452 0.09242 0.0
H272 H 0.60828 0.79876 0.12295 0.0
H273 H 0.42825 0.82837 0.23947 0.0
H274 H 0.481 0.85472 0.21259 0.0
H275 H 0.57463 0.89746 0.164 0.0
C276 C 0.47638 0.79586 0.20293 0.0
C277 C 0.50347 0.80948 0.18547 0.0
C278 C 0.52615 0.81996 0.17067 0.0
C279 C 0.5575 0.83389 0.15561 0.0
C280 C 0.90535 0.82907 0.61111 0.0
C281 C 0.90626 0.82589 0.58619 0.0
C282 C 0.8823 0.7947 0.62229 0.0
C283 C 0.79313 0.66597 0.66825 0.0
C284 C 0.69136 0.42374 0.70516 0.0
C285 C 0.69582 0.42687 0.73016 0.0
C286 C 0.70535 0.45858 0.69385 0.0
C287 C 0.75751 0.58598 0.64515 0.0
H288 H 0.92197 0.85799 0.62234 0.0
H289 H 0.88106 0.79845 0.64127 0.0
H290 H 0.80747 0.69682 0.67742 0.0
H291 H 0.67938 0.3944 0.69436 0.0
H292 H 0.70325 0.4557 0.67458 0.0
H293 H 0.74433 0.55512 0.63615 0.0
C294 C 0.88566 0.78603 0.57338 0.0
C295 C 0.86347 0.75157 0.58479 0.0
C296 C 0.77453 0.61896 0.63205 0.0
C297 C 0.71199 0.4651 0.74377 0.0
C298 C 0.7255 0.50018 0.73232 0.0
C299 C 0.7761 0.63303 0.68134 0.0
C300 C 0.86078 0.75606 0.6091 0.0
C301 C 0.83572 0.72124 0.6206 0.0
C302 C 0.81504 0.69278 0.63079 0.0
C303 C 0.79309 0.65898 0.64368 0.0
H304 H 0.88496 0.78083 0.55437 0.0
H305 H 0.84744 0.72155 0.57446 0.0
H306 H 0.77441 0.61328 0.61304 0.0
H307 H 0.71664 0.46804 0.76303 0.0
H308 H 0.73905 0.52988 0.74286 0.0
H309 H 0.77736 0.63871 0.70046 0.0
C310 C 0.72246 0.49678 0.70738 0.0
C311 C 0.73564 0.53203 0.69528 0.0
C312 C 0.7459 0.55995 0.68373 0.0
C313 C 0.75913 0.59315 0.66987 0.0
C314 C 0.08632 0.96749 0.48612 0.0
C315 C 0.04573 0.9566 0.47878 0.0
C316 C 0.10421 0.9471 0.47477 0.0
C317 C 0.17691 0.8709 0.42821 0.0
C318 C 0.2394 0.76563 0.30983 0.0
C319 C 0.28122 0.78087 0.31561 0.0
C320 C 0.21794 0.77547 0.3256 0.0
C321 C 0.13355 0.81336 0.38813 0.0
H322 H 0.10399 0.99139 0.50078 0.0
H323 H 0.13556 0.95586 0.48067 0.0
H324 H 0.19422 0.89362 0.44346 0.0
H325 H 0.2225 0.74183 0.295 0.0
H326 H 0.18512 0.76103 0.32182 0.0
H327 H 0.11662 0.79168 0.3724 0.0
C328 C 0.02306 0.92484 0.46022 0.0
C329 C 0.04102 0.90462 0.44876 0.0
C330 C 0.11386 0.82889 0.402 0.0
C331 C 0.30235 0.81098 0.33539 0.0
C332 C 0.28084 0.8202 0.35136 0.0
C333 C 0.19658 0.85533 0.41435 0.0
C334 C 0.08165 0.91556 0.45603 0.0
C335 C 0.10032 0.89469 0.44427 0.0
C336 C 0.11624 0.87746 0.43457 0.0
C337 C 0.13562 0.85833 0.42183 0.0
H338 H -0.00853 0.91564 0.45468 0.0
H339 H 0.02311 0.88032 0.43433 0.0
H340 H 0.08197 0.81885 0.39683 0.0
H341 H 0.33467 0.82268 0.34033 0.0
H342 H 0.29711 0.84042 0.36769 0.0
H343 H 0.2288 0.86633 0.41905 0.0
C344 C 0.23838 0.80144 0.34685 0.0
C345 C 0.21577 0.80908 0.36387 0.0
C346 C 0.19674 0.81543 0.3781 0.0
C347 C 0.17517 0.82711 0.39402 0.0
C348 C 0.1835 0.08343 0.932 0.0
C349 C 0.18343 0.10246 0.95426 0.0
C350 C 0.21516 0.10341 0.91828 0.0
C351 C 0.33575 0.1828 0.86314 0.0
C352 C 0.57396 0.33493 0.82579 0.0
C353 C 0.57689 0.3119 0.80629 0.0
C354 C 0.53873 0.31909 0.83664 0.0
C355 C 0.4035 0.25841 0.88116 0.0
H356 H 0.15843 0.0535 0.92493 0.0
H357 H 0.21404 0.08857 0.90093 0.0
H358 H 0.30996 0.15322 0.85619 0.0
H359 H 0.60048 0.36299 0.83419 0.0
H360 H 0.53772 0.33596 0.85264 0.0
H361 H 0.42983 0.28745 0.88839 0.0
C362 C 0.21697 0.14102 0.9631 0.0
C363 C 0.24846 0.16115 0.94925 0.0
C364 C 0.36994 0.24129 0.89376 0.0
C365 C 0.54349 0.27439 0.79651 0.0
C366 C 0.50766 0.25905 0.80697 0.0
C367 C 0.36929 0.19989 0.85056 0.0
C368 C 0.24715 0.14278 0.92659 0.0
C369 C 0.27812 0.16459 0.91172 0.0
C370 C 0.30405 0.18289 0.89932 0.0
C371 C 0.33634 0.20302 0.88502 0.0
H372 H 0.21783 0.15643 0.98018 0.0
H373 H 0.27326 0.19148 0.95596 0.0
H374 H 0.37077 0.25726 0.91065 0.0
H375 H 0.5464 0.2553 0.78243 0.0
H376 H 0.48225 0.22935 0.79984 0.0
H377 H 0.369 0.18342 0.834 0.0
C378 C 0.50562 0.28113 0.82728 0.0
C379 C 0.46936 0.2653 0.83841 0.0
C380 C 0.43924 0.25267 0.8481 0.0
C381 C 0.40348 0.23724 0.85983 0.0
C382 C 0.05074 0.2007 0.43486 0.0
C383 C 0.07351 0.20103 0.45569 0.0
C384 C 0.06187 0.23664 0.42452 0.0
C385 C 0.10503 0.37442 0.38237 0.0
C386 C 0.26517 0.59673 0.33126 0.0
C387 C 0.24565 0.59805 0.30961 0.0
C388 C 0.24577 0.56394 0.34408 0.0
C389 C 0.17737 0.44668 0.39949 0.0
H390 H 0.02364 0.17286 0.42696 0.0
H391 H 0.04349 0.23587 0.4087 0.0
H392 H 0.07739 0.34638 0.37536 0.0
H393 H 0.29526 0.62129 0.33843 0.0
H394 H 0.26093 0.56378 0.361 0.0
H395 H 0.2058 0.47428 0.40599 0.0
C396 C 0.10819 0.238 0.4657 0.0
C397 C 0.11955 0.27384 0.45518 0.0
C398 C 0.16377 0.41326 0.41236 0.0
C399 C 0.2073 0.56511 0.30027 0.0
C400 C 0.18769 0.53226 0.31327 0.0
C401 C 0.11859 0.40778 0.36954 0.0
C402 C 0.09613 0.27331 0.43474 0.0
C403 C 0.10717 0.3103 0.42427 0.0
C404 C 0.11615 0.34109 0.41536 0.0
C405 C 0.12793 0.37685 0.40359 0.0
H406 H 0.12639 0.23918 0.4817 0.0
H407 H 0.1463 0.30199 0.46316 0.0
H408 H 0.18177 0.4154 0.42872 0.0
H409 H 0.192 0.56551 0.28346 0.0
H410 H 0.15756 0.50745 0.30632 0.0
H411 H 0.10136 0.40516 0.35274 0.0
C412 C 0.20664 0.53234 0.33545 0.0
C413 C 0.18613 0.50076 0.3499 0.0
C414 C 0.17115 0.47554 0.36311 0.0
C415 C 0.15503 0.44361 0.37788 0.0
C416 C 0.9126 0.04192 0.95888 0.0
C417 C 0.93944 0.06567 0.97923 0.0
C418 C 0.88827 0.05512 0.94704 0.0
C419 C 0.79615 0.10756 0.89897 0.0
C420 C 0.74395 0.27726 0.83618 0.0
C421 C 0.71803 0.25712 0.81469 0.0
C422 C 0.75616 0.25647 0.85087 0.0
C423 C 0.80499 0.1846 0.91265 0.0
H424 H 0.90988 0.01279 0.95249 0.0
H425 H 0.86745 0.03629 0.93139 0.0
H426 H 0.79305 0.078 0.8933 0.0
H427 H 0.75339 0.3089 0.84222 0.0
H428 H 0.77459 0.27219 0.8678 0.0
H429 H 0.80915 0.21477 0.91784 0.0
C430 C 0.94161 0.10261 0.98787 0.0
C431 C 0.91744 0.11595 0.97593 0.0
C432 C 0.82465 0.16931 0.9271 0.0
C433 C 0.70715 0.21651 0.80721 0.0
C434 C 0.72022 0.19572 0.82192 0.0
C435 C 0.77654 0.12281 0.88457 0.0
C436 C 0.89055 0.09209 0.95557 0.0
C437 C 0.86534 0.10557 0.94348 0.0
C438 C 0.84426 0.11694 0.93339 0.0
C439 C 0.82079 0.13103 0.92004 0.0
H440 H 0.96151 0.12075 1.00396 0.0
H441 H 0.91935 0.14455 0.98271 0.0
H442 H 0.84373 0.18778 0.94334 0.0
H443 H 0.68715 0.20048 0.79081 0.0
H444 H 0.71103 0.16401 0.81643 0.0
H445 H 0.75861 0.10494 0.86792 0.0
C446 C 0.74358 0.21547 0.84406 0.0
C447 C 0.7547 0.19422 0.86023 0.0
C448 C 0.7654 0.17882 0.87484 0.0
C449 C 0.78148 0.16155 0.89118 0.0
C450 C 0.85304 0.97274 0.48194 0.0
C451 C 0.88144 0.96057 0.47634 0.0
C452 C 0.81656 0.95816 0.46684 0.0
C453 C 0.67427 0.90018 0.40518 0.0
C454 C 0.45999 0.72854 0.3085 0.0
C455 C 0.43216 0.74041 0.31579 0.0
C456 C 0.50082 0.75041 0.31913 0.0
C457 C 0.65902 0.84246 0.36623 0.0
H458 H 0.85938 -0.00605 0.49771 0.0
H459 H 0.79511 0.96818 0.47114 0.0
H460 H 0.67969 0.92205 0.42042 0.0
H461 H 0.45019 0.70229 0.29527 0.0
H462 H 0.52246 0.74151 0.31355 0.0
H463 H 0.65324 0.81974 0.3514 0.0
C464 C 0.87256 0.93291 0.456 0.0
C465 C 0.83623 0.9185 0.44088 0.0
C466 C 0.69687 0.86196 0.38027 0.0
C467 C 0.44547 0.77364 0.33361 0.0
C468 C 0.48534 0.79451 0.34438 0.0
C469 C 0.63631 0.88062 0.39111 0.0
C470 C 0.8084 0.93153 0.44606 0.0
C471 C 0.77192 0.91808 0.42984 0.0
C472 C 0.74153 0.90651 0.41606 0.0
C473 C 0.70431 0.89021 0.40008 0.0
H474 H 0.89416 0.92321 0.45156 0.0
H475 H 0.8302 0.89772 0.42496 0.0
H476 H 0.71984 0.85402 0.3761 0.0
H477 H 0.42437 0.78293 0.33975 0.0
H478 H 0.4943 0.81953 0.35838 0.0
H479 H 0.61288 0.88763 0.39564 0.0
C480 C 0.51326 0.7833 0.33718 0.0
C481 C 0.55455 0.80644 0.34848 0.0
C482 C 0.58832 0.8275 0.35892 0.0
C483 C 0.6284 0.85106 0.37191 0.0
C484 C 0.90839 0.86902 0.98316 0.0
C485 C 0.94156 0.90333 0.9762 0.0
C486 C 0.88925 0.83153 0.96849 0.0
C487 C 0.81303 0.68511 0.90857 0.0
C488 C 0.7849 0.48389 0.80867 0.0
C489 C 0.75365 0.45153 0.81822 0.0
C490 C 0.7998 0.52451 0.81926 0.0
C491 C 0.84625 0.68002 0.86688 0.0
H492 H 0.897 0.87116 0.99985 0.0
H493 H 0.86345 0.8056 0.97403 0.0
H494 H 0.80036 0.68671 0.92485 0.0
H495 H 0.79762 0.47798 0.79339 0.0
H496 H 0.82349 0.54955 0.81177 0.0
H497 H 0.85976 0.67835 0.85096 0.0
C498 C 0.956 0.89892 0.95466 0.0
C499 C 0.93667 0.8615 0.93997 0.0
C500 C 0.86127 0.71774 0.88078 0.0
C501 C 0.73875 0.46073 0.83857 0.0
C502 C 0.7536 0.50031 0.84896 0.0
C503 C 0.79799 0.64725 0.89463 0.0
C504 C 0.90286 0.82787 0.94665 0.0
C505 C 0.8817 0.78994 0.9309 0.0
C506 C 0.86423 0.75835 0.91757 0.0
C507 C 0.84537 0.7203 0.90194 0.0
H508 H 0.98174 0.92458 0.9489 0.0
H509 H 0.94779 0.85902 0.92322 0.0
H510 H 0.88618 0.74464 0.8754 0.0
H511 H 0.7145 0.43708 0.8466 0.0
H512 H 0.74082 0.50569 0.8644 0.0
H513 H 0.77389 0.62008 0.90034 0.0
C514 C 0.78362 0.53251 0.83929 0.0
C515 C 0.7961 0.57323 0.85016 0.0
C516 C 0.80376 0.60552 0.86086 0.0
C517 C 0.81528 0.64455 0.87399 0.0
loop_
_geom_bond_atom_site_label_1
_geom_bond_atom_site_label_2
_geom_bond_distance
_geom_bond_site_symmetry_2
_ccdc_geom_bond_type
C0 O16 1.251 1_565 S
C0 O18 1.254 . S
N1 C2 1.333 . S
N1 C6 1.307 . S
N1 Zn7 2.020 1_556 S
C2 N1 1.333 . S
C2 C3 1.379 . S
C2 H20 0.952 1_556 S
C3 C2 1.379 . S
C3 C4 1.390 . S
C3 H30 0.949 . S
C4 C3 1.390 . S
C4 C5 1.357 . S
C5 C4 1.357 . S
C5 C6 1.370 . S
C5 H31 0.950 . S
C6 N1 1.307 . S
C6 C5 1.370 . S
C6 H24 0.948 . S
Zn7 N1 2.020 1_554 S
Zn7 O16 2.039 . S
Zn7 O22 2.034 . S
Zn7 O26 2.025 1_554 S
Zn7 O28 2.024 1_544 S
C8 O27 1.246 1_556 S
C8 O28 1.249 1_655 S
N9 C10 1.307 . S
N9 C11 1.333 . S
N9 Zn15 2.020 1_565 S
C10 N9 1.307 . S
C10 C14 1.370 . S
C10 H21 0.948 . S
C11 N9 1.333 . S
C11 C12 1.379 . S
C11 H19 0.952 . S
C12 C11 1.379 . S
C12 C13 1.390 . S
C12 H32 0.949 . S
C13 C12 1.390 . S
C13 C14 1.357 . S
C14 C10 1.370 . S
C14 C13 1.357 . S
C14 H33 0.950 . S
Zn15 N9 2.020 1_545 S
Zn15 O18 2.025 1_645 S
Zn15 O23 2.024 1_655 S
Zn15 O25 2.039 . S
Zn15 O27 2.034 1_545 S
O16 C0 1.251 1_545 S
O16 Zn7 2.039 . S
C17 O22 1.246 . S
C17 O23 1.249 . S
O18 C0 1.254 . S
O18 Zn15 2.025 1_465 S
H19 C11 0.952 . S
H20 C2 0.952 1_554 S
H21 C10 0.948 . S
O22 Zn7 2.034 . S
O22 C17 1.246 . S
O23 Zn15 2.024 1_455 S
O23 C17 1.249 . S
H24 C6 0.948 . S
O25 Zn15 2.039 . S
O25 C29 1.251 1_554 S
O26 Zn7 2.025 1_556 S
O26 C29 1.254 1_455 S
O27 C8 1.246 1_554 S
O27 Zn15 2.034 1_565 S
O28 Zn7 2.024 1_566 S
O28 C8 1.249 1_455 S
C29 O25 1.251 1_556 S
C29 O26 1.254 1_655 S
H30 C3 0.949 . S
H31 C5 0.950 . S
H32 C12 0.949 . S
H33 C14 0.950 . S
C34 O50 1.251 . S
C34 O52 1.254 1_565 S
N35 C36 1.333 . S
N35 C40 1.307 . S
N35 Zn41 2.020 . S
C36 N35 1.333 . S
C36 C37 1.379 . S
C36 H54 0.952 . S
C37 C36 1.379 . S
C37 C38 1.390 . S
C37 H64 0.949 . S
C38 C37 1.390 . S
C38 C39 1.357 . S
C39 C38 1.357 . S
C39 C40 1.370 . S
C39 H65 0.950 . S
C40 N35 1.307 . S
C40 C39 1.370 . S
C40 H58 0.948 . S
Zn41 N35 2.020 . S
Zn41 O50 2.039 1_655 S
Zn41 O56 2.034 . S
Zn41 O60 2.025 1_565 S
Zn41 O62 2.024 1_665 S
C42 O61 1.246 . S
C42 O62 1.249 . S
N43 C44 1.307 . S
N43 C45 1.333 . S
N43 Zn49 2.020 . S
C44 N43 1.307 . S
C44 C48 1.370 . S
C44 H55 0.948 . S
C45 N43 1.333 . S
C45 C46 1.379 . S
C45 H53 0.952 . S
C46 C45 1.379 . S
C46 C47 1.390 . S
C46 H66 0.949 . S
C47 C46 1.390 . S
C47 C48 1.357 . S
C48 C44 1.370 . S
C48 C47 1.357 . S
C48 H67 0.950 . S
Zn49 N43 2.020 . S
Zn49 O52 2.025 . S
Zn49 O57 2.024 1_455 S
Zn49 O59 2.039 1_455 S
Zn49 O61 2.034 . S
O50 C34 1.251 . S
O50 Zn41 2.039 1_455 S
C51 O56 1.246 . S
C51 O57 1.249 1_565 S
O52 C34 1.254 1_545 S
O52 Zn49 2.025 . S
H53 C45 0.952 . S
H54 C36 0.952 . S
H55 C44 0.948 . S
O56 Zn41 2.034 . S
O56 C51 1.246 . S
O57 Zn49 2.024 1_655 S
O57 C51 1.249 1_545 S
H58 C40 0.948 . S
O59 Zn49 2.039 1_655 S
O59 C63 1.251 . S
O60 Zn41 2.025 1_545 S
O60 C63 1.254 . S
O61 C42 1.246 . S
O61 Zn49 2.034 . S
O62 Zn41 2.024 1_445 S
O62 C42 1.249 . S
C63 O59 1.251 . S
C63 O60 1.254 . S
H64 C37 0.949 . S
H65 C39 0.950 . S
H66 C46 0.949 . S
H67 C48 0.950 . S
Zn68 O74 1.920 . S
Zn68 O80 1.898 . S
Zn68 O83 1.905 . S
Zn69 O77 1.905 . S
Zn69 O78 1.898 . S
Zn69 O86 1.920 . S
Zn70 O73 2.080 . S
Zn70 O76 2.114 . S
Zn70 O79 2.120 . S
Zn70 O81 2.120 . S
Zn70 O82 2.114 . S
Zn70 O85 2.080 . S
C71 O76 1.166 . S
C71 O77 1.182 . S
C72 O78 1.167 . S
C72 O79 1.299 . S
O73 Zn70 2.080 . S
O73 C87 1.305 . S
O74 Zn68 1.920 . S
O74 C87 1.234 . S
C75 O80 1.167 . S
C75 O81 1.299 . S
O76 Zn70 2.114 . S
O76 C71 1.166 . S
O77 Zn69 1.905 . S
O77 C71 1.182 . S
O78 Zn69 1.898 . S
O78 C72 1.167 . S
O79 Zn70 2.120 . S
O79 C72 1.299 . S
O80 Zn68 1.898 . S
O80 C75 1.167 . S
O81 Zn70 2.120 . S
O81 C75 1.299 . S
O82 Zn70 2.114 . S
O82 C84 1.166 . S
O83 Zn68 1.905 . S
O83 C84 1.182 . S
C84 O82 1.166 . S
C84 O83 1.182 . S
O85 Zn70 2.080 . S
O85 C88 1.305 . S
O86 Zn69 1.920 . S
O86 C88 1.234 . S
C87 O73 1.305 . S
C87 O74 1.234 . S
C88 O85 1.305 . S
C88 O86 1.234 . S
Zn89 O95 1.920 . S
Zn89 O101 1.898 . S
Zn89 O104 1.905 . S
Zn90 O98 1.905 . S
Zn90 O99 1.898 . S
Zn90 O107 1.920 . S
Zn91 O94 2.080 . S
Zn91 O97 2.114 . S
Zn91 O100 2.120 . S
Zn91 O102 2.120 . S
Zn91 O103 2.114 . S
Zn91 O106 2.080 . S
C92 O97 1.166 . S
C92 O98 1.182 . S
C93 O99 1.167 . S
C93 O100 1.299 . S
O94 Zn91 2.080 . S
O94 C108 1.305 . S
O95 Zn89 1.920 . S
O95 C108 1.234 . S
C96 O101 1.167 . S
C96 O102 1.299 . S
O97 Zn91 2.114 . S
O97 C92 1.166 . S
O98 Zn90 1.905 . S
O98 C92 1.182 . S
O99 Zn90 1.898 . S
O99 C93 1.167 . S
O100 Zn91 2.120 . S
O100 C93 1.299 . S
O101 Zn89 1.898 . S
O101 C96 1.167 . S
O102 Zn91 2.120 . S
O102 C96 1.299 . S
O103 Zn91 2.114 . S
O103 C105 1.166 . S
O104 Zn89 1.905 . S
O104 C105 1.182 . S
C105 O103 1.166 . S
C105 O104 1.182 . S
O106 Zn91 2.080 . S
O106 C109 1.305 . S
O107 Zn90 1.920 . S
O107 C109 1.234 . S
C108 O94 1.305 . S
C108 O95 1.234 . S
C109 O106 1.305 . S
C109 O107 1.234 . S
C110 C111 1.420 . S
C110 C112 1.385 . S
C110 H118 0.928 . S
C111 C110 1.420 . S
C111 C124 1.420 . S
C112 C110 1.385 . S
C112 H119 0.929 . S
C112 C130 1.407 . S
C113 H120 0.928 . S
C113 C129 1.374 . S
C113 C133 1.388 . S
C114 C115 1.420 . S
C114 C116 1.385 . S
C114 H121 0.928 . S
C115 C114 1.420 . S
C115 C127 1.420 . S
C116 C114 1.385 . S
C116 H122 0.929 . S
C116 C140 1.407 . S
C117 H123 0.928 . S
C117 C126 1.374 . S
C117 C143 1.388 . S
H118 C110 0.928 . S
H119 C112 0.929 . S
H120 C113 0.928 . S
H121 C114 0.928 . S
H122 C116 0.929 . S
H123 C117 0.928 . S
C124 C111 1.420 . S
C124 C125 1.385 . S
C124 H134 0.928 1_565 S
C125 C124 1.385 . S
C125 C130 1.407 . S
C125 H135 0.929 . S
C126 C117 1.374 . S
C126 C133 1.388 . S
C126 H136 0.928 . S
C127 C115 1.420 . S
C127 C128 1.385 . S
C127 H137 0.928 . S
C128 C127 1.385 . S
C128 H138 0.929 . S
C128 C140 1.407 . S
C129 C113 1.374 . S
C129 H139 0.928 . S
C129 C143 1.388 . S
C130 C112 1.407 . S
C130 C125 1.407 . S
C130 C131 1.428 . S
C131 C130 1.428 . S
C131 C132 1.230 . S
C132 C131 1.230 . S
C132 C133 1.405 . S
C133 C113 1.388 . S
C133 C126 1.388 . S
C133 C132 1.405 . S
H134 C124 0.928 1_545 S
H135 C125 0.929 . S
H136 C126 0.928 . S
H137 C127 0.928 . S
H138 C128 0.929 . S
H139 C129 0.928 . S
C140 C116 1.407 . S
C140 C128 1.407 . S
C140 C141 1.428 . S
C141 C140 1.428 . S
C141 C142 1.230 . S
C142 C141 1.230 . S
C142 C143 1.405 . S
C143 C117 1.388 . S
C143 C129 1.388 . S
C143 C142 1.405 . S
C144 C145 1.420 . S
C144 C146 1.385 . S
C144 H152 0.928 . S
C145 C144 1.420 . S
C145 C158 1.420 . S
C146 C144 1.385 . S
C146 H153 0.929 . S
C146 C164 1.407 . S
C147 H154 0.928 . S
C147 C163 1.374 . S
C147 C167 1.388 . S
C148 C149 1.420 . S
C148 C150 1.385 . S
C148 H155 0.928 . S
C149 C148 1.420 . S
C149 C161 1.420 . S
C150 C148 1.385 . S
C150 H156 0.929 . S
C150 C174 1.407 . S
C151 H157 0.928 . S
C151 C160 1.374 . S
C151 C177 1.388 . S
H152 C144 0.928 . S
H153 C146 0.929 . S
H154 C147 0.928 . S
H155 C148 0.928 . S
H156 C150 0.929 . S
H157 C151 0.928 . S
C158 C145 1.420 . S
C158 C159 1.385 . S
C158 H168 0.928 . S
C159 C158 1.385 . S
C159 C164 1.407 . S
C159 H169 0.929 . S
C160 C151 1.374 . S
C160 C167 1.388 . S
C160 H170 0.928 . S
C161 C149 1.420 . S
C161 C162 1.385 . S
C161 H171 0.928 . S
C162 C161 1.385 . S
C162 H172 0.929 . S
C162 C174 1.407 . S
C163 C147 1.374 . S
C163 H173 0.928 . S
C163 C177 1.388 . S
C164 C146 1.407 . S
C164 C159 1.407 . S
C164 C165 1.428 . S
C165 C164 1.428 . S
C165 C166 1.230 . S
C166 C165 1.230 . S
C166 C167 1.405 . S
C167 C147 1.388 . S
C167 C160 1.388 . S
C167 C166 1.405 . S
H168 C158 0.928 . S
H169 C159 0.929 . S
H170 C160 0.928 . S
H171 C161 0.928 . S
H172 C162 0.929 . S
H173 C163 0.928 . S
C174 C150 1.407 . S
C174 C162 1.407 . S
C174 C175 1.428 . S
C175 C174 1.428 . S
C175 C176 1.230 . S
C176 C175 1.230 . S
C176 C177 1.405 . S
C177 C151 1.388 . S
C177 C163 1.388 . S
C177 C176 1.405 . S
C178 C179 1.420 . S
C178 C180 1.385 . S
C178 H186 0.928 . S
C179 C178 1.420 . S
C179 C192 1.420 . S
C180 C178 1.385 . S
C180 H187 0.929 . S
C180 C198 1.407 . S
C181 H188 0.928 . S
C181 C197 1.374 . S
C181 C201 1.388 . S
C182 C183 1.420 . S
C182 C184 1.385 . S
C182 H189 0.928 . S
C183 C182 1.420 . S
C183 C195 1.420 . S
C184 C182 1.385 . S
C184 H190 0.929 . S
C184 C208 1.407 . S
C185 H191 0.928 . S
C185 C194 1.374 . S
C185 C211 1.388 . S
H186 C178 0.928 . S
H187 C180 0.929 . S
H188 C181 0.928 . S
H189 C182 0.928 . S
H190 C184 0.929 . S
H191 C185 0.928 . S
C192 C179 1.420 . S
C192 C193 1.385 . S
C192 H202 0.928 . S
C193 C192 1.385 . S
C193 C198 1.407 . S
C193 H203 0.929 . S
C194 C185 1.374 . S
C194 C201 1.388 . S
C194 H204 0.928 . S
C195 C183 1.420 . S
C195 C196 1.385 . S
C195 H205 0.928 . S
C196 C195 1.385 . S
C196 H206 0.929 . S
C196 C208 1.407 . S
C197 C181 1.374 . S
C197 H207 0.928 . S
C197 C211 1.388 . S
C198 C180 1.407 . S
C198 C193 1.407 . S
C198 C199 1.428 . S
C199 C198 1.428 . S
C199 C200 1.230 . S
C200 C199 1.230 . S
C200 C201 1.405 . S
C201 C181 1.388 . S
C201 C194 1.388 . S
C201 C200 1.405 . S
H202 C192 0.928 . S
H203 C193 0.929 . S
H204 C194 0.928 . S
H205 C195 0.928 . S
H206 C196 0.929 . S
H207 C197 0.928 . S
C208 C184 1.407 . S
C208 C196 1.407 . S
C208 C209 1.428 . S
C209 C208 1.428 . S
C209 C210 1.230 . S
C210 C209 1.230 . S
C210 C211 1.405 . S
C211 C185 1.388 . S
C211 C197 1.388 . S
C211 C210 1.405 . S
C212 C213 1.420 . S
C212 C214 1.385 . S
C212 H220 0.928 . S
C213 C212 1.420 . S
C213 C226 1.420 . S
C214 C212 1.385 . S
C214 H221 0.929 . S
C214 C232 1.407 . S
C215 H222 0.928 . S
C215 C231 1.374 . S
C215 C235 1.388 . S
C216 C217 1.420 . S
C216 C218 1.385 . S
C216 H223 0.928 . S
C217 C216 1.420 . S
C217 C229 1.420 . S
C218 C216 1.385 . S
C218 H224 0.929 . S
C218 C242 1.407 . S
C219 H225 0.928 . S
C219 C228 1.374 . S
C219 C245 1.388 . S
H220 C212 0.928 . S
H221 C214 0.929 . S
H222 C215 0.928 . S
H223 C216 0.928 . S
H224 C218 0.929 . S
H225 C219 0.928 . S
C226 C213 1.420 . S
C226 C227 1.385 . S
C226 H236 0.928 . S
C227 C226 1.385 . S
C227 C232 1.407 . S
C227 H237 0.929 . S
C228 C219 1.374 . S
C228 C235 1.388 . S
C228 H238 0.928 . S
C229 C217 1.420 . S
C229 C230 1.385 . S
C229 H239 0.928 . S
C230 C229 1.385 . S
C230 H240 0.929 . S
C230 C242 1.407 . S
C231 C215 1.374 . S
C231 H241 0.928 . S
C231 C245 1.388 . S
C232 C214 1.407 . S
C232 C227 1.407 . S
C232 C233 1.428 . S
C233 C232 1.428 . S
C233 C234 1.230 . S
C234 C233 1.230 . S
C234 C235 1.405 . S
C235 C215 1.388 . S
C235 C228 1.388 . S
C235 C234 1.405 . S
H236 C226 0.928 . S
H237 C227 0.929 . S
H238 C228 0.928 . S
H239 C229 0.928 . S
H240 C230 0.929 . S
H241 C231 0.928 . S
C242 C218 1.407 . S
C242 C230 1.407 . S
C242 C243 1.428 . S
C243 C242 1.428 . S
C243 C244 1.230 . S
C244 C243 1.230 . S
C244 C245 1.405 . S
C245 C219 1.388 . S
C245 C231 1.388 . S
C245 C244 1.405 . S
C246 C247 1.420 . S
C246 C248 1.385 . S
C246 H254 0.913 1_565 S
C247 C246 1.420 . S
C247 C260 1.420 . S
C248 C246 1.385 . S
C248 H255 0.929 . S
C248 C266 1.407 . S
C249 H256 0.928 . S
C249 C265 1.374 . S
C249 C269 1.388 . S
C250 C251 1.420 . S
C250 C252 1.385 . S
C250 H257 0.928 . S
C251 C250 1.420 . S
C251 C263 1.420 . S
C252 C250 1.385 . S
C252 H258 0.929 . S
C252 C276 1.407 . S
C253 H259 0.928 . S
C253 C262 1.374 . S
C253 C279 1.388 . S
H254 C246 0.913 1_545 S
H255 C248 0.929 . S
H256 C249 0.928 . S
H257 C250 0.928 . S
H258 C252 0.929 . S
H259 C253 0.928 . S
C260 C247 1.420 . S
C260 C261 1.385 . S
C260 H270 0.928 . S
C261 C260 1.385 . S
C261 C266 1.407 . S
C261 H271 0.929 . S
C262 C253 1.374 . S
C262 C269 1.388 . S
C262 H272 0.928 . S
C263 C251 1.420 . S
C263 C264 1.385 . S
C263 H273 0.928 . S
C264 C263 1.385 . S
C264 H274 0.929 . S
C264 C276 1.407 . S
C265 C249 1.374 . S
C265 H275 0.928 . S
C265 C279 1.388 . S
C266 C248 1.407 . S
C266 C261 1.407 . S
C266 C267 1.428 . S
C267 C266 1.428 . S
C267 C268 1.230 . S
C268 C267 1.230 . S
C268 C269 1.405 . S
C269 C249 1.388 . S
C269 C262 1.388 . S
C269 C268 1.405 . S
H270 C260 0.928 . S
H271 C261 0.929 . S
H272 C262 0.928 . S
H273 C263 0.928 . S
H274 C264 0.929 . S
H275 C265 0.928 . S
C276 C252 1.407 . S
C276 C264 1.407 . S
C276 C277 1.428 . S
C277 C276 1.428 . S
C277 C278 1.230 . S
C278 C277 1.230 . S
C278 C279 1.405 . S
C279 C253 1.388 . S
C279 C265 1.388 . S
C279 C278 1.405 . S
C280 C281 1.420 . S
C280 C282 1.385 . S
C280 H288 0.928 . S
C281 C280 1.420 . S
C281 C294 1.420 . S
C282 C280 1.385 . S
C282 H289 0.929 . S
C282 C300 1.407 . S
C283 H290 0.928 . S
C283 C299 1.374 . S
C283 C303 1.388 . S
C284 C285 1.420 . S
C284 C286 1.385 . S
C284 H291 0.928 . S
C285 C284 1.420 . S
C285 C297 1.420 . S
C286 C284 1.385 . S
C286 H292 0.929 . S
C286 C310 1.407 . S
C287 H293 0.928 . S
C287 C296 1.374 . S
C287 C313 1.388 . S
H288 C280 0.928 . S
H289 C282 0.929 . S
H290 C283 0.928 . S
H291 C284 0.928 . S
H292 C286 0.929 . S
H293 C287 0.928 . S
C294 C281 1.420 . S
C294 C295 1.385 . S
C294 H304 0.928 . S
C295 C294 1.385 . S
C295 C300 1.407 . S
C295 H305 0.929 . S
C296 C287 1.374 . S
C296 C303 1.388 . S
C296 H306 0.928 . S
C297 C285 1.420 . S
C297 C298 1.385 . S
C297 H307 0.928 . S
C298 C297 1.385 . S
C298 H308 0.929 . S
C298 C310 1.407 . S
C299 C283 1.374 . S
C299 H309 0.928 . S
C299 C313 1.388 . S
C300 C282 1.407 . S
C300 C295 1.407 . S
C300 C301 1.428 . S
C301 C300 1.428 . S
C301 C302 1.230 . S
C302 C301 1.230 . S
C302 C303 1.405 . S
C303 C283 1.388 . S
C303 C296 1.388 . S
C303 C302 1.405 . S
H304 C294 0.928 . S
H305 C295 0.929 . S
H306 C296 0.928 . S
H307 C297 0.928 . S
H308 C298 0.929 . S
H309 C299 0.928 . S
C310 C286 1.407 . S
C310 C298 1.407 . S
C310 C311 1.428 . S
C311 C310 1.428 . S
C311 C312 1.230 . S
C312 C311 1.230 . S
C312 C313 1.405 . S
C313 C287 1.388 . S
C313 C299 1.388 . S
C313 C312 1.405 . S
C314 C315 1.420 . S
C314 C316 1.385 . S
C314 H322 0.928 . S
C315 C314 1.420 . S
C315 C328 1.420 . S
C316 C314 1.385 . S
C316 H323 0.929 . S
C316 C334 1.407 . S
C317 H324 0.928 . S
C317 C333 1.374 . S
C317 C337 1.388 . S
C318 C319 1.420 . S
C318 C320 1.385 . S
C318 H325 0.928 . S
C319 C318 1.420 . S
C319 C331 1.420 . S
C320 C318 1.385 . S
C320 H326 0.929 . S
C320 C344 1.407 . S
C321 H327 0.928 . S
C321 C330 1.374 . S
C321 C347 1.388 . S
H322 C314 0.928 . S
H323 C316 0.929 . S
H324 C317 0.928 . S
H325 C318 0.928 . S
H326 C320 0.929 . S
H327 C321 0.928 . S
C328 C315 1.420 . S
C328 C329 1.385 . S
C328 H338 0.928 . S
C329 C328 1.385 . S
C329 C334 1.407 . S
C329 H339 0.929 . S
C330 C321 1.374 . S
C330 C337 1.388 . S
C330 H340 0.928 . S
C331 C319 1.420 . S
C331 C332 1.385 . S
C331 H341 0.928 . S
C332 C331 1.385 . S
C332 H342 0.929 . S
C332 C344 1.407 . S
C333 C317 1.374 . S
C333 H343 0.928 . S
C333 C347 1.388 . S
C334 C316 1.407 . S
C334 C329 1.407 . S
C334 C335 1.428 . S
C335 C334 1.428 . S
C335 C336 1.230 . S
C336 C335 1.230 . S
C336 C337 1.405 . S
C337 C317 1.388 . S
C337 C330 1.388 . S
C337 C336 1.405 . S
H338 C328 0.928 . S
H339 C329 0.929 . S
H340 C330 0.928 . S
H341 C331 0.928 . S
H342 C332 0.929 . S
H343 C333 0.928 . S
C344 C320 1.407 . S
C344 C332 1.407 . S
C344 C345 1.428 . S
C345 C344 1.428 . S
C345 C346 1.230 . S
C346 C345 1.230 . S
C346 C347 1.405 . S
C347 C321 1.388 . S
C347 C333 1.388 . S
C347 C346 1.405 . S
C348 C349 1.420 . S
C348 C350 1.385 . S
C348 H356 0.928 . S
C349 C348 1.420 . S
C349 C362 1.420 . S
C350 C348 1.385 . S
C350 H357 0.929 . S
C350 C368 1.407 . S
C351 H358 0.928 . S
C351 C367 1.374 . S
C351 C371 1.388 . S
C352 C353 1.420 . S
C352 C354 1.385 . S
C352 H359 0.928 . S
C353 C352 1.420 . S
C353 C365 1.420 . S
C354 C352 1.385 . S
C354 H360 0.929 . S
C354 C378 1.407 . S
C355 H361 0.928 . S
C355 C364 1.374 . S
C355 C381 1.388 . S
H356 C348 0.928 . S
H357 C350 0.929 . S
H358 C351 0.928 . S
H359 C352 0.928 . S
H360 C354 0.929 . S
H361 C355 0.928 . S
C362 C349 1.420 . S
C362 C363 1.385 . S
C362 H372 0.928 . S
C363 C362 1.385 . S
C363 C368 1.407 . S
C363 H373 0.929 . S
C364 C355 1.374 . S
C364 C371 1.388 . S
C364 H374 0.928 . S
C365 C353 1.420 . S
C365 C366 1.385 . S
C365 H375 0.928 . S
C366 C365 1.385 . S
C366 H376 0.929 . S
C366 C378 1.407 . S
C367 C351 1.374 . S
C367 H377 0.928 . S
C367 C381 1.388 . S
C368 C350 1.407 . S
C368 C363 1.407 . S
C368 C369 1.428 . S
C369 C368 1.428 . S
C369 C370 1.230 . S
C370 C369 1.230 . S
C370 C371 1.405 . S
C371 C351 1.388 . S
C371 C364 1.388 . S
C371 C370 1.405 . S
H372 C362 0.928 . S
H373 C363 0.929 . S
H374 C364 0.928 . S
H375 C365 0.928 . S
H376 C366 0.929 . S
H377 C367 0.928 . S
C378 C354 1.407 . S
C378 C366 1.407 . S
C378 C379 1.428 . S
C379 C378 1.428 . S
C379 C380 1.230 . S
C380 C379 1.230 . S
C380 C381 1.405 . S
C381 C355 1.388 . S
C381 C367 1.388 . S
C381 C380 1.405 . S
C382 C383 1.420 . S
C382 C384 1.385 . S
C382 H390 0.928 . S
C383 C382 1.420 . S
C383 C396 1.420 . S
C384 C382 1.385 . S
C384 H391 0.929 . S
C384 C402 1.407 . S
C385 H392 0.928 . S
C385 C401 1.374 . S
C385 C405 1.388 . S
C386 C387 1.420 . S
C386 C388 1.385 . S
C386 H393 0.928 . S
C387 C386 1.420 . S
C387 C399 1.420 . S
C388 C386 1.385 . S
C388 H394 0.929 . S
C388 C412 1.407 . S
C389 H395 0.928 . S
C389 C398 1.374 . S
C389 C415 1.388 . S
H390 C382 0.928 . S
H391 C384 0.929 . S
H392 C385 0.928 . S
H393 C386 0.928 . S
H394 C388 0.929 . S
H395 C389 0.928 . S
C396 C383 1.420 . S
C396 C397 1.385 . S
C396 H406 0.928 . S
C397 C396 1.385 . S
C397 C402 1.407 . S
C397 H407 0.929 . S
C398 C389 1.374 . S
C398 C405 1.388 . S
C398 H408 0.928 . S
C399 C387 1.420 . S
C399 C400 1.385 . S
C399 H409 0.928 . S
C400 C399 1.385 . S
C400 H410 0.929 . S
C400 C412 1.407 . S
C401 C385 1.374 . S
C401 H411 0.928 . S
C401 C415 1.388 . S
C402 C384 1.407 . S
C402 C397 1.407 . S
C402 C403 1.428 . S
C403 C402 1.428 . S
C403 C404 1.230 . S
C404 C403 1.230 . S
C404 C405 1.405 . S
C405 C385 1.388 . S
C405 C398 1.388 . S
C405 C404 1.405 . S
H406 C396 0.928 . S
H407 C397 0.929 . S
H408 C398 0.928 . S
H409 C399 0.928 . S
H410 C400 0.929 . S
H411 C401 0.928 . S
C412 C388 1.407 . S
C412 C400 1.407 . S
C412 C413 1.428 . S
C413 C412 1.428 . S
C413 C414 1.230 . S
C414 C413 1.230 . S
C414 C415 1.405 . S
C415 C389 1.388 . S
C415 C401 1.388 . S
C415 C414 1.405 . S
C416 C417 1.420 . S
C416 C418 1.385 . S
C416 H424 0.928 . S
C417 C416 1.420 . S
C417 C430 1.420 . S
C418 C416 1.385 . S
C418 H425 0.929 . S
C418 C436 1.407 . S
C419 H426 0.928 . S
C419 C435 1.374 . S
C419 C439 1.388 . S
C420 C421 1.420 . S
C420 C422 1.385 . S
C420 H427 0.928 . S
C421 C420 1.420 . S
C421 C433 1.420 . S
C422 C420 1.385 . S
C422 H428 0.929 . S
C422 C446 1.407 . S
C423 H429 0.928 . S
C423 C432 1.374 . S
C423 C449 1.388 . S
H424 C416 0.928 . S
H425 C418 0.929 . S
H426 C419 0.928 . S
H427 C420 0.928 . S
H428 C422 0.929 . S
H429 C423 0.928 . S
C430 C417 1.420 . S
C430 C431 1.385 . S
C430 H440 0.928 . S
C431 C430 1.385 . S
C431 C436 1.407 . S
C431 H441 0.929 . S
C432 C423 1.374 . S
C432 C439 1.388 . S
C432 H442 0.928 . S
C433 C421 1.420 . S
C433 C434 1.385 . S
C433 H443 0.928 . S
C434 C433 1.385 . S
C434 H444 0.929 . S
C434 C446 1.407 . S
C435 C419 1.374 . S
C435 H445 0.928 . S
C435 C449 1.388 . S
C436 C418 1.407 . S
C436 C431 1.407 . S
C436 C437 1.428 . S
C437 C436 1.428 . S
C437 C438 1.230 . S
C438 C437 1.230 . S
C438 C439 1.405 . S
C439 C419 1.388 . S
C439 C432 1.388 . S
C439 C438 1.405 . S
H440 C430 0.928 . S
H441 C431 0.929 . S
H442 C432 0.928 . S
H443 C433 0.928 . S
H444 C434 0.929 . S
H445 C435 0.928 . S
C446 C422 1.407 . S
C446 C434 1.407 . S
C446 C447 1.428 . S
C447 C446 1.428 . S
C447 C448 1.230 . S
C448 C447 1.230 . S
C448 C449 1.405 . S
C449 C423 1.388 . S
C449 C435 1.388 . S
C449 C448 1.405 . S
C450 C451 1.420 . S
C450 C452 1.385 . S
C450 H458 0.931 . S
C451 C450 1.420 . S
C451 C464 1.420 . S
C452 C450 1.385 . S
C452 H459 0.929 . S
C452 C470 1.407 . S
C453 H460 0.928 . S
C453 C469 1.374 . S
C453 C473 1.388 . S
C454 C455 1.420 . S
C454 C456 1.385 . S
C454 H461 0.928 . S
C455 C454 1.420 . S
C455 C467 1.420 . S
C456 C454 1.385 . S
C456 H462 0.929 . S
C456 C480 1.407 . S
C457 H463 0.928 . S
C457 C466 1.374 . S
C457 C483 1.388 . S
H458 C450 0.931 . S
H459 C452 0.929 . S
H460 C453 0.928 . S
H461 C454 0.928 . S
H462 C456 0.929 . S
H463 C457 0.928 . S
C464 C451 1.420 . S
C464 C465 1.385 . S
C464 H474 0.928 . S
C465 C464 1.385 . S
C465 C470 1.407 . S
C465 H475 0.929 . S
C466 C457 1.374 . S
C466 C473 1.388 . S
C466 H476 0.928 . S
C467 C455 1.420 . S
C467 C468 1.385 . S
C467 H477 0.928 . S
C468 C467 1.385 . S
C468 H478 0.929 . S
C468 C480 1.407 . S
C469 C453 1.374 . S
C469 H479 0.928 . S
C469 C483 1.388 . S
C470 C452 1.407 . S
C470 C465 1.407 . S
C470 C471 1.428 . S
C471 C470 1.428 . S
C471 C472 1.230 . S
C472 C471 1.230 . S
C472 C473 1.405 . S
C473 C453 1.388 . S
C473 C466 1.388 . S
C473 C472 1.405 . S
H474 C464 0.928 . S
H475 C465 0.929 . S
H476 C466 0.928 . S
H477 C467 0.928 . S
H478 C468 0.929 . S
H479 C469 0.928 . S
C480 C456 1.407 . S
C480 C468 1.407 . S
C480 C481 1.428 . S
C481 C480 1.428 . S
C481 C482 1.230 . S
C482 C481 1.230 . S
C482 C483 1.405 . S
C483 C457 1.388 . S
C483 C469 1.388 . S
C483 C482 1.405 . S
C484 C485 1.420 . S
C484 C486 1.385 . S
C484 H492 0.928 . S
C485 C484 1.420 . S
C485 C498 1.420 . S
C486 C484 1.385 . S
C486 H493 0.929 . S
C486 C504 1.407 . S
C487 H494 0.928 . S
C487 C503 1.374 . S
C487 C507 1.388 . S
C488 C489 1.420 . S
C488 C490 1.385 . S
C488 H495 0.928 . S
C489 C488 1.420 . S
C489 C501 1.420 . S
C490 C488 1.385 . S
C490 H496 0.929 . S
C490 C514 1.407 . S
C491 H497 0.928 . S
C491 C500 1.374 . S
C491 C517 1.388 . S
H492 C484 0.928 . S
H493 C486 0.929 . S
H494 C487 0.928 . S
H495 C488 0.928 . S
H496 C490 0.929 . S
H497 C491 0.928 . S
C498 C485 1.420 . S
C498 C499 1.385 . S
C498 H508 0.928 . S
C499 C498 1.385 . S
C499 C504 1.407 . S
C499 H509 0.929 . S
C500 C491 1.374 . S
C500 C507 1.388 . S
C500 H510 0.928 . S
C501 C489 1.420 . S
C501 C502 1.385 . S
C501 H511 0.928 . S
C502 C501 1.385 . S
C502 H512 0.929 . S
C502 C514 1.407 . S
C503 C487 1.374 . S
C503 H513 0.928 . S
C503 C517 1.388 . S
C504 C486 1.407 . S
C504 C499 1.407 . S
C504 C505 1.428 . S
C505 C504 1.428 . S
C505 C506 1.230 . S
C506 C505 1.230 . S
C506 C507 1.405 . S
C507 C487 1.388 . S
C507 C500 1.388 . S
C507 C506 1.405 . S
H508 C498 0.928 . S
H509 C499 0.929 . S
H510 C500 0.928 . S
H511 C501 0.928 . S
H512 C502 0.929 . S
H513 C503 0.928 . S
C514 C490 1.407 . S
C514 C502 1.407 . S
C514 C515 1.428 . S
C515 C514 1.428 . S
C515 C516 1.230 . S
C516 C515 1.230 . S
C516 C517 1.405 . S
C517 C491 1.388 . S
C517 C503 1.388 . S
C517 C516 1.405 . S
C111 C0 1.589 . S
C115 C87 1.406 . S
C145 C42 1.696 . S
C149 C93 1.562 . S
C179 C17 1.598 . S
C183 C84 1.466 . S
C213 C63 1.460 . S
C217 C109 1.335 . S
C247 C13 1.176 . S
C251 C75 1.042 . S
C285 C92 1.103 . S
C281 C38 1.193 . S
C315 C34 1.589 . S
C319 C88 1.398 . S
C353 C105 1.119 . S
C349 C4 1.192 . S
C387 C72 1.057 . S
C383 C47 1.176 . S
C421 C108 1.306 . S
C417 C29 1.462 . S
C455 C71 1.483 . S
C451 C51 1.597 . S
C489 C96 1.548 . S
C485 C8 1.697 . S
