# Generated by pormake.
# Topology ctn, (3,4)-cn, num edge types: 1
# Building blocks:
#     Node 0, Type 0, BuildingBlock: OLANEW_clean_sbu_2, # of connection points: 3
#     Node 1, Type 0, BuildingBlock: OLANEW_clean_sbu_2, # of connection points: 3
#     Node 2, Type 0, BuildingBlock: OLANEW_clean_sbu_2, # of connection points: 3
#     Node 3, Type 0, BuildingBlock: OLANEW_clean_sbu_2, # of connection points: 3
#     Node 4, Type 0, BuildingBlock: OLANEW_clean_sbu_2, # of connection points: 3
#     Node 5, Type 0, BuildingBlock: OLANEW_clean_sbu_2, # of connection points: 3
#     Node 6, Type 0, BuildingBlock: OLANEW_clean_sbu_2, # of connection points: 3
#     Node 7, Type 0, BuildingBlock: OLANEW_clean_sbu_2, # of connection points: 3
#     Node 8, Type 0, BuildingBlock: OLANEW_clean_sbu_2, # of connection points: 3
#     Node 9, Type 0, BuildingBlock: OLANEW_clean_sbu_2, # of connection points: 3
#     Node 10, Type 0, BuildingBlock: OLANEW_clean_sbu_2, # of connection points: 3
#     Node 11, Type 0, BuildingBlock: OLANEW_clean_sbu_2, # of connection points: 3
#     Node 12, Type 0, BuildingBlock: OLANEW_clean_sbu_2, # of connection points: 3
#     Node 13, Type 0, BuildingBlock: OLANEW_clean_sbu_2, # of connection points: 3
#     Node 14, Type 0, BuildingBlock: OLANEW_clean_sbu_2, # of connection points: 3
#     Node 15, Type 0, BuildingBlock: OLANEW_clean_sbu_2, # of connection points: 3
#     Node 16, Type 1, BuildingBlock: NAHDIM_clean_sbu_0, # of connection points: 4
#     Node 17, Type 1, BuildingBlock: NAHDIM_clean_sbu_0, # of connection points: 4
#     Node 18, Type 1, BuildingBlock: NAHDIM_clean_sbu_0, # of connection points: 4
#     Node 19, Type 1, BuildingBlock: NAHDIM_clean_sbu_0, # of connection points: 4
#     Node 20, Type 1, BuildingBlock: NAHDIM_clean_sbu_0, # of connection points: 4
#     Node 21, Type 1, BuildingBlock: NAHDIM_clean_sbu_0, # of connection points: 4
#     Node 22, Type 1, BuildingBlock: NAHDIM_clean_sbu_0, # of connection points: 4
#     Node 23, Type 1, BuildingBlock: NAHDIM_clean_sbu_0, # of connection points: 4
#     Node 24, Type 1, BuildingBlock: NAHDIM_clean_sbu_0, # of connection points: 4
#     Node 25, Type 1, BuildingBlock: NAHDIM_clean_sbu_0, # of connection points: 4
#     Node 26, Type 1, BuildingBlock: NAHDIM_clean_sbu_0, # of connection points: 4
#     Node 27, Type 1, BuildingBlock: NAHDIM_clean_sbu_0, # of connection points: 4
#     Edge 28, Type (0, 1), BuildingBlock: KIFKEQ_clean_linker_1, # of connection points: 2
#     Edge 29, Type (0, 1), BuildingBlock: KIFKEQ_clean_linker_1, # of connection points: 2
#     Edge 30, Type (0, 1), BuildingBlock: KIFKEQ_clean_linker_1, # of connection points: 2
#     Edge 31, Type (0, 1), BuildingBlock: KIFKEQ_clean_linker_1, # of connection points: 2
#     Edge 32, Type (0, 1), BuildingBlock: KIFKEQ_clean_linker_1, # of connection points: 2
#     Edge 33, Type (0, 1), BuildingBlock: KIFKEQ_clean_linker_1, # of connection points: 2
#     Edge 34, Type (0, 1), BuildingBlock: KIFKEQ_clean_linker_1, # of connection points: 2
#     Edge 35, Type (0, 1), BuildingBlock: KIFKEQ_clean_linker_1, # of connection points: 2
#     Edge 36, Type (0, 1), BuildingBlock: KIFKEQ_clean_linker_1, # of connection points: 2
#     Edge 37, Type (0, 1), BuildingBlock: KIFKEQ_clean_linker_1, # of connection points: 2
#     Edge 38, Type (0, 1), BuildingBlock: KIFKEQ_clean_linker_1, # of connection points: 2
#     Edge 39, Type (0, 1), BuildingBlock: KIFKEQ_clean_linker_1, # of connection points: 2
#     Edge 40, Type (0, 1), BuildingBlock: KIFKEQ_clean_linker_1, # of connection points: 2
#     Edge 41, Type (0, 1), BuildingBlock: KIFKEQ_clean_linker_1, # of connection points: 2
#     Edge 42, Type (0, 1), BuildingBlock: KIFKEQ_clean_linker_1, # of connection points: 2
#     Edge 43, Type (0, 1), BuildingBlock: KIFKEQ_clean_linker_1, # of connection points: 2
#     Edge 44, Type (0, 1), BuildingBlock: KIFKEQ_clean_linker_1, # of connection points: 2
#     Edge 45, Type (0, 1), BuildingBlock: KIFKEQ_clean_linker_1, # of connection points: 2
#     Edge 46, Type (0, 1), BuildingBlock: KIFKEQ_clean_linker_1, # of connection points: 2
#     Edge 47, Type (0, 1), BuildingBlock: KIFKEQ_clean_linker_1, # of connection points: 2
#     Edge 48, Type (0, 1), BuildingBlock: KIFKEQ_clean_linker_1, # of connection points: 2
#     Edge 49, Type (0, 1), BuildingBlock: KIFKEQ_clean_linker_1, # of connection points: 2
#     Edge 50, Type (0, 1), BuildingBlock: KIFKEQ_clean_linker_1, # of connection points: 2
#     Edge 51, Type (0, 1), BuildingBlock: KIFKEQ_clean_linker_1, # of connection points: 2
#     Edge 52, Type (0, 1), BuildingBlock: KIFKEQ_clean_linker_1, # of connection points: 2
#     Edge 53, Type (0, 1), BuildingBlock: KIFKEQ_clean_linker_1, # of connection points: 2
#     Edge 54, Type (0, 1), BuildingBlock: KIFKEQ_clean_linker_1, # of connection points: 2
#     Edge 55, Type (0, 1), BuildingBlock: KIFKEQ_clean_linker_1, # of connection points: 2
#     Edge 56, Type (0, 1), BuildingBlock: KIFKEQ_clean_linker_1, # of connection points: 2
#     Edge 57, Type (0, 1), BuildingBlock: KIFKEQ_clean_linker_1, # of connection points: 2
#     Edge 58, Type (0, 1), BuildingBlock: KIFKEQ_clean_linker_1, # of connection points: 2
#     Edge 59, Type (0, 1), BuildingBlock: KIFKEQ_clean_linker_1, # of connection points: 2
#     Edge 60, Type (0, 1), BuildingBlock: KIFKEQ_clean_linker_1, # of connection points: 2
#     Edge 61, Type (0, 1), BuildingBlock: KIFKEQ_clean_linker_1, # of connection points: 2
#     Edge 62, Type (0, 1), BuildingBlock: KIFKEQ_clean_linker_1, # of connection points: 2
#     Edge 63, Type (0, 1), BuildingBlock: KIFKEQ_clean_linker_1, # of connection points: 2
#     Edge 64, Type (0, 1), BuildingBlock: KIFKEQ_clean_linker_1, # of connection points: 2
#     Edge 65, Type (0, 1), BuildingBlock: KIFKEQ_clean_linker_1, # of connection points: 2
#     Edge 66, Type (0, 1), BuildingBlock: KIFKEQ_clean_linker_1, # of connection points: 2
#     Edge 67, Type (0, 1), BuildingBlock: KIFKEQ_clean_linker_1, # of connection points: 2
#     Edge 68, Type (0, 1), BuildingBlock: KIFKEQ_clean_linker_1, # of connection points: 2
#     Edge 69, Type (0, 1), BuildingBlock: KIFKEQ_clean_linker_1, # of connection points: 2
#     Edge 70, Type (0, 1), BuildingBlock: KIFKEQ_clean_linker_1, # of connection points: 2
#     Edge 71, Type (0, 1), BuildingBlock: KIFKEQ_clean_linker_1, # of connection points: 2
#     Edge 72, Type (0, 1), BuildingBlock: KIFKEQ_clean_linker_1, # of connection points: 2
#     Edge 73, Type (0, 1), BuildingBlock: KIFKEQ_clean_linker_1, # of connection points: 2
#     Edge 74, Type (0, 1), BuildingBlock: KIFKEQ_clean_linker_1, # of connection points: 2
#     Edge 75, Type (0, 1), BuildingBlock: KIFKEQ_clean_linker_1, # of connection points: 2
# Relax obj value: 0.050
# Max RMSD: 0.166
# Mean RMSD: 0.095
data_MOF--net-ctn--node1-OLANEW_clean_sbu_2--node2-NAHDIM_clean_sbu_0--edge1-KIFKEQ_clean_linker_1
_symmetry_space_group_name_H-M    P1
_symmetry_Int_Tables_number       1
_symmetry_cell_setting            triclinic
loop_
_symmetry_equiv_pos_as_xyz
'x, y, z'
_cell_length_a     58.762887
_cell_length_b     60.520747
_cell_length_c     56.774744
_cell_angle_alpha  92.434244
_cell_angle_beta   94.334548
_cell_angle_gamma 97.754224
loop_
_atom_site_label
_atom_site_type_symbol
_atom_site_fract_x
_atom_site_fract_y
_atom_site_fract_z
_atom_type_partial_charge
O0 O 0.0402 0.06514 0.99936 0.0
Cd1 Cd 0.03713 0.03279 0.02418 0.0
O2 O 0.06354 0.087 0.02529 0.0
Cd3 Cd 0.0583 0.06355 0.05308 0.0
O4 O 0.04066 0.05197 0.08364 0.0
C5 C 0.03392 0.06723 0.09636 0.0
O6 O 0.03869 0.08807 0.09066 0.0
C7 C 0.05261 0.08379 0.00497 0.0
C8 C 0.07392 0.00798 0.02256 0.0
O9 O 0.05633 0.00395 0.00745 0.0
O10 O 0.07423 0.0239 0.03826 0.0
O11 O 0.31395 0.74113 0.26465 0.0
Cd12 Cd 0.27373 0.73905 0.24889 0.0
O13 O 0.31966 0.71031 0.2454 0.0
Cd14 Cd 0.28321 0.70083 0.23422 0.0
O15 O 0.25082 0.67919 0.23718 0.0
C16 C 0.24624 0.67431 0.25802 0.0
O17 O 0.26038 0.68336 0.27593 0.0
C18 C 0.32739 0.72731 0.25901 0.0
C19 C 0.26931 0.76529 0.20991 0.0
O20 O 0.26896 0.77355 0.23103 0.0
O21 O 0.27172 0.74461 0.20724 0.0
O22 O 0.95938 0.4688 0.10453 0.0
Cd23 Cd 0.93757 0.46167 0.06598 0.0
O24 O 0.98124 0.4425 0.09903 0.0
Cd25 Cd 0.9671 0.43044 0.06344 0.0
O26 O 0.96826 0.40875 0.03192 0.0
C27 C 0.98807 0.40802 0.02458 0.0
O28 O 0.00587 0.42091 0.0355 0.0
C29 C 0.97544 0.45811 0.11199 0.0
C30 C 0.90918 0.49453 0.05791 0.0
O31 O 0.90233 0.47708 0.06886 0.0
O32 O 0.92942 0.49639 0.05059 0.0
O33 O 0.75108 0.85425 0.21129 0.0
Cd34 Cd 0.72016 0.82253 0.20907 0.0
O35 O 0.77098 0.84269 0.2416 0.0
Cd36 Cd 0.74429 0.81474 0.24575 0.0
O37 O 0.71257 0.79754 0.25782 0.0
C38 C 0.69637 0.80925 0.25997 0.0
O39 O 0.69952 0.83016 0.25416 0.0
C40 C 0.76872 0.85697 0.2261 0.0
C41 C 0.72631 0.78819 0.17678 0.0
O42 O 0.71665 0.80492 0.17018 0.0
O43 O 0.73328 0.78776 0.19868 0.0
O44 O 0.10866 0.94891 0.52289 0.0
Cd45 Cd 0.08663 0.9123 0.51179 0.0
O46 O 0.08223 0.96276 0.50131 0.0
Cd47 Cd 0.06384 0.98749 0.48402 0.0
O48 O 0.04079 0.0023 0.45933 0.0
C49 C 0.041 0.9966 0.43756 0.0
O50 O 0.05542 0.98302 0.43132 0.0
C51 C 0.10122 0.96579 0.51412 0.0
C52 C 0.06862 0.88955 0.54934 0.0
O53 O 0.08906 0.88795 0.54364 0.0
O54 O 0.05681 0.90228 0.53751 0.0
O55 O 0.28464 0.765 0.85183 0.0
Cd56 Cd 0.2868 0.74414 0.8144 0.0
O57 O 0.2482 0.76413 0.84041 0.0
Cd58 Cd 0.21325 0.77292 0.83946 0.0
O59 O 0.17757 0.77624 0.82826 0.0
C60 C 0.16822 0.76365 0.81071 0.0
O61 O 0.18029 0.74955 0.80086 0.0
C62 C 0.26511 0.77062 0.85555 0.0
C63 C 0.30632 0.70475 0.81742 0.0
O64 O 0.31887 0.7236 0.81589 0.0
O65 O 0.28454 0.70461 0.81815 0.0
O66 O 0.96624 0.56378 0.4691 0.0
Cd67 Cd 0.9414 0.57393 0.49933 0.0
O68 O 0.99276 0.55277 0.49358 0.0
Cd69 Cd 0.97645 0.56399 0.52439 0.0
O70 O 0.96718 0.58423 0.55403 0.0
C71 C 0.96538 0.60456 0.55061 0.0
O72 O 0.96838 0.61199 0.52949 0.0
C73 C 0.98494 0.55554 0.47257 0.0
C74 C 0.90839 0.53801 0.50733 0.0
O75 O 0.90558 0.55032 0.48982 0.0
O76 O 0.92677 0.54273 0.52126 0.0
O77 O 0.76852 0.78185 0.87445 0.0
Cd78 Cd 0.77062 0.8136 0.84908 0.0
O79 O 0.73735 0.76401 0.85463 0.0
Cd80 Cd 0.7309 0.79342 0.83552 0.0
O81 O 0.71634 0.82376 0.8269 0.0
C82 C 0.72076 0.84076 0.84128 0.0
O83 O 0.7347 0.83983 0.86032 0.0
C84 C 0.75363 0.7645 0.87082 0.0
C85 C 0.80378 0.80991 0.81698 0.0
O86 O 0.80905 0.82047 0.83712 0.0
O87 O 0.78272 0.80137 0.81187 0.0
O88 O 0.26262 0.26758 0.35923 0.0
Cd89 Cd 0.26389 0.29825 0.33247 0.0
O90 O 0.22488 0.26214 0.35957 0.0
Cd91 Cd 0.22022 0.2914 0.33948 0.0
O92 O 0.20969 0.32298 0.32867 0.0
C93 C 0.215 0.34013 0.34273 0.0
O94 O 0.22733 0.33838 0.36268 0.0
C95 C 0.24445 0.25661 0.36593 0.0
C96 C 0.30236 0.29803 0.30656 0.0
O97 O 0.30365 0.3091 0.32649 0.0
O98 O 0.28272 0.28745 0.29862 0.0
O99 O 0.46035 0.97095 0.59948 0.0
Cd100 Cd 0.43879 0.96374 0.56082 0.0
O101 O 0.4939 0.96737 0.58606 0.0
Cd102 Cd 0.48026 0.95454 0.55057 0.0
O103 O 0.48069 0.93078 0.52059 0.0
C104 C 0.49743 0.91947 0.52183 0.0
O105 O 0.51262 0.92313 0.54027 0.0
C106 C 0.48208 0.97186 0.60304 0.0
C107 C 0.40978 0.99617 0.55339 0.0
O108 O 0.4032 0.9784 0.56395 0.0
O109 O 0.43003 0.9985 0.54606 0.0
O110 O 0.2525 0.34844 0.72812 0.0
Cd111 Cd 0.22372 0.31504 0.72698 0.0
O112 O 0.27236 0.33864 0.75946 0.0
Cd113 Cd 0.24635 0.31037 0.76467 0.0
O114 O 0.21411 0.29281 0.77522 0.0
C115 C 0.19726 0.30395 0.77543 0.0
O116 O 0.20018 0.32464 0.76887 0.0
C117 C 0.26986 0.35222 0.74326 0.0
C118 C 0.22941 0.28339 0.69152 0.0
O119 O 0.21589 0.29805 0.68784 0.0
O120 O 0.24035 0.28376 0.71198 0.0
O121 O 0.81158 0.24601 0.75503 0.0
Cd122 Cd 0.77102 0.24062 0.73978 0.0
O123 O 0.81744 0.21235 0.74305 0.0
Cd124 Cd 0.78117 0.20084 0.73257 0.0
O125 O 0.74918 0.17851 0.73527 0.0
C126 C 0.74434 0.17364 0.75604 0.0
O127 O 0.75801 0.18305 0.77413 0.0
C128 C 0.82512 0.23148 0.75277 0.0
C129 C 0.76414 0.26466 0.69955 0.0
O130 O 0.76343 0.27358 0.72032 0.0
O131 O 0.76802 0.24434 0.69781 0.0
O132 O 0.53641 0.56577 0.4897 0.0
Cd133 Cd 0.53309 0.5313 0.51112 0.0
O134 O 0.54091 0.58698 0.52261 0.0
Cd135 Cd 0.53678 0.55987 0.54673 0.0
O136 O 0.52322 0.54647 0.57873 0.0
C137 C 0.52206 0.56104 0.59523 0.0
O138 O 0.52975 0.58202 0.59203 0.0
C139 C 0.53947 0.58508 0.50014 0.0
C140 C 0.57083 0.50788 0.50942 0.0
O141 O 0.55412 0.50464 0.49323 0.0
O142 O 0.56987 0.52245 0.52624 0.0
O143 O 0.62153 0.43453 0.00456 0.0
Cd144 Cd 0.59951 0.39755 0.99545 0.0
O145 O 0.5905 0.44955 0.99495 0.0
Cd146 Cd 0.57118 0.47654 0.98482 0.0
O147 O 0.54781 0.49456 0.96387 0.0
C148 C 0.55361 0.50085 0.94384 0.0
O149 O 0.57382 0.4973 0.93724 0.0
C150 C 0.61184 0.45187 0.00174 0.0
C151 C 0.5729 0.38177 0.03141 0.0
O152 O 0.59402 0.37862 0.0311 0.0
O153 O 0.56441 0.39271 0.01484 0.0
O154 O 0.7791 0.27208 0.33007 0.0
Cd155 Cd 0.77976 0.25072 0.2926 0.0
O156 O 0.74311 0.25716 0.33049 0.0
Cd157 Cd 0.70787 0.2556 0.3407 0.0
O158 O 0.67099 0.2553 0.33222 0.0
C159 C 0.6654 0.27027 0.31874 0.0
O160 O 0.68174 0.28522 0.31219 0.0
C161 C 0.76018 0.2707 0.33971 0.0
C162 C 0.79959 0.21144 0.29447 0.0
O163 O 0.77808 0.21133 0.29698 0.0
O164 O 0.81182 0.23023 0.29179 0.0
O165 O 0.47624 0.06091 0.97456 0.0
Cd166 Cd 0.45515 0.07231 0.00756 0.0
O167 O 0.50274 0.04756 0.99707 0.0
Cd168 Cd 0.49015 0.0611 0.0291 0.0
O169 O 0.4848 0.08703 0.05527 0.0
C170 C 0.48863 0.10692 0.04872 0.0
O171 O 0.49483 0.11013 0.02723 0.0
C172 C 0.49403 0.05103 0.97658 0.0
C173 C 0.41952 0.03908 0.01647 0.0
O174 O 0.41615 0.05418 0.00194 0.0
O175 O 0.43976 0.03974 0.02687 0.0
C176 C 0.20673 0.91801 0.02028 0.0
O177 O 0.21786 0.91697 0.00114 0.0
O178 O 0.24239 0.87394 0.00995 0.0
Zn179 Zn 0.24317 0.89466 0.03909 0.0
O180 O 0.27027 0.91917 0.03957 0.0
C181 C 0.25619 0.8595 0.06784 0.0
O182 O 0.26492 0.85356 0.04829 0.0
O183 O 0.21412 0.9092 0.03878 0.0
C184 C 0.29099 0.91522 0.03967 0.0
O185 O 0.29518 0.89445 0.03995 0.0
C186 C 0.25216 0.87999 0.99158 0.0
O187 O 0.2624 0.90061 0.991 0.0
O188 O 0.24597 0.87674 0.06826 0.0
C189 C 0.14297 0.48028 0.31639 0.0
O190 O 0.15463 0.50026 0.32119 0.0
O191 O 0.08668 0.51008 0.33158 0.0
Zn192 Zn 0.10494 0.50494 0.30361 0.0
O193 O 0.12768 0.53241 0.29942 0.0
C194 C 0.06221 0.49514 0.27216 0.0
O195 O 0.05145 0.49641 0.29153 0.0
O196 O 0.1218 0.47846 0.30897 0.0
C197 C 0.12325 0.54664 0.28448 0.0
O198 O 0.10336 0.54355 0.27175 0.0
C199 C 0.07739 0.52773 0.33403 0.0
O200 O 0.07973 0.54272 0.31799 0.0
O201 O 0.08411 0.49803 0.27357 0.0
C202 C 0.79797 0.60469 0.02555 0.0
O203 O 0.78937 0.60552 0.00361 0.0
O204 O 0.76282 0.64452 0.00432 0.0
Zn205 Zn 0.75963 0.62749 0.03415 0.0
O206 O 0.73411 0.60128 0.02996 0.0
C207 C 0.74129 0.66376 0.05685 0.0
O208 O 0.73058 0.66399 0.03572 0.0
O209 O 0.78861 0.61397 0.04208 0.0
C210 C 0.71245 0.60109 0.03006 0.0
O211 O 0.70401 0.61996 0.03287 0.0
C212 C 0.74679 0.64381 0.98784 0.0
O213 O 0.7273 0.63072 0.98941 0.0
O214 O 0.75461 0.64917 0.06076 0.0
C215 C 0.86739 0.06902 0.2667 0.0
O216 O 0.85568 0.05282 0.25283 0.0
O217 O 0.92728 0.03735 0.29299 0.0
Zn218 Zn 0.90386 0.04086 0.26633 0.0
O219 O 0.88145 0.01236 0.26141 0.0
C220 C 0.93576 0.03374 0.23237 0.0
O221 O 0.93903 0.01735 0.24615 0.0
O222 O 0.88792 0.06734 0.27442 0.0
C223 C 0.87392 0.00405 0.24089 0.0
O224 O 0.88026 0.01467 0.22225 0.0
C225 C 0.92174 0.0335 0.31377 0.0
O226 O 0.89996 0.03193 0.31815 0.0
O227 O 0.92095 0.04636 0.23728 0.0
C228 C 0.29847 0.10741 0.52705 0.0
O229 O 0.28988 0.10937 0.50532 0.0
O230 O 0.26272 0.14771 0.5079 0.0
Zn231 Zn 0.26082 0.13078 0.53783 0.0
O232 O 0.2341 0.10597 0.53503 0.0
C233 C 0.24892 0.1703 0.56094 0.0
O234 O 0.24269 0.17429 0.53899 0.0
O235 O 0.28937 0.11609 0.54416 0.0
C236 C 0.21291 0.10818 0.53175 0.0
O237 O 0.20699 0.12821 0.5295 0.0
C238 C 0.25137 0.14146 0.48825 0.0
O239 O 0.238 0.12214 0.48623 0.0
O240 O 0.25724 0.15237 0.56509 0.0
C241 C 0.3749 0.56184 0.79576 0.0
O242 O 0.36658 0.54316 0.80491 0.0
O243 O 0.43173 0.53151 0.80304 0.0
Zn244 Zn 0.4077 0.53505 0.77671 0.0
O245 O 0.38467 0.50698 0.77286 0.0
C246 C 0.43673 0.52592 0.73976 0.0
O247 O 0.43931 0.5083 0.75192 0.0
O248 O 0.39206 0.56204 0.78338 0.0
C249 C 0.3753 0.49916 0.75277 0.0
O250 O 0.38021 0.50997 0.73381 0.0
C251 C 0.43337 0.54133 0.82347 0.0
O252 O 0.41857 0.55491 0.8285 0.0
O253 O 0.4238 0.53959 0.74692 0.0
C254 C 0.70313 0.41718 0.50788 0.0
O255 O 0.71564 0.41737 0.48966 0.0
O256 O 0.736 0.37085 0.49604 0.0
Zn257 Zn 0.73676 0.39043 0.5262 0.0
O258 O 0.76505 0.41385 0.52934 0.0
C259 C 0.7482 0.35435 0.55445 0.0
O260 O 0.75844 0.34925 0.53558 0.0
O261 O 0.70864 0.40636 0.52567 0.0
C262 C 0.78517 0.40928 0.5264 0.0
O263 O 0.78809 0.3885 0.52145 0.0
C264 C 0.74713 0.37715 0.47858 0.0
O265 O 0.75875 0.39732 0.47939 0.0
O266 O 0.7375 0.37128 0.5545 0.0
C267 C 0.63203 0.97181 0.82429 0.0
O268 O 0.62801 0.98344 0.84323 0.0
O269 O 0.58691 0.00582 0.8281 0.0
Zn270 Zn 0.60513 0.002 0.79971 0.0
O271 O 0.62702 0.03016 0.79565 0.0
C272 C 0.56436 0.00093 0.76628 0.0
O273 O 0.55668 0.01319 0.78276 0.0
O274 O 0.62391 0.97675 0.80411 0.0
C275 C 0.62256 0.04438 0.7807 0.0
O276 O 0.60289 0.041 0.7676 0.0
C277 C 0.58123 0.02471 0.83396 0.0
O278 O 0.58727 0.04184 0.82124 0.0
O279 O 0.58393 0.99439 0.76998 0.0
C280 C 0.03162 0.22082 0.91568 0.0
O281 O 0.03875 0.24057 0.92617 0.0
O282 O 0.98689 0.2413 0.85623 0.0
Zn283 Zn 0.01493 0.24766 0.87936 0.0
O284 O 0.0093 0.27143 0.90352 0.0
C285 C 0.05134 0.24533 0.8485 0.0
O286 O 0.04178 0.22439 0.84533 0.0
O287 O 0.02065 0.21958 0.89539 0.0
C288 C 0.0171 0.29187 0.90165 0.0
O289 O 0.02937 0.29753 0.8839 0.0
C290 C 0.9814 0.25649 0.84299 0.0
O291 O 0.99461 0.27589 0.84424 0.0
O292 O 0.04268 0.25845 0.86223 0.0
C293 C 0.51758 0.72313 0.41245 0.0
O294 O 0.50408 0.73654 0.42109 0.0
O295 O 0.49411 0.7537 0.35694 0.0
Zn296 Zn 0.52316 0.75717 0.37874 0.0
O297 O 0.52084 0.78114 0.4038 0.0
C298 C 0.5568 0.75383 0.34493 0.0
O299 O 0.54563 0.73352 0.34111 0.0
O300 O 0.52758 0.72836 0.394 0.0
C301 C 0.51415 0.79935 0.39773 0.0
O302 O 0.5093 0.80218 0.37518 0.0
C303 C 0.48307 0.73506 0.34896 0.0
O304 O 0.4908 0.71651 0.35486 0.0
O305 O 0.55024 0.76693 0.36031 0.0
C306 C 0.99801 0.78575 0.66662 0.0
O307 O 0.00555 0.76637 0.66851 0.0
O308 O 0.94611 0.77428 0.71989 0.0
Zn309 Zn 0.9714 0.76596 0.70072 0.0
O310 O 0.96076 0.73792 0.68004 0.0
C311 C 0.01154 0.77859 0.73274 0.0
O312 O 0.00586 0.79856 0.72945 0.0
O313 O 0.98209 0.79023 0.67926 0.0
C314 C 0.96826 0.71955 0.68389 0.0
O315 O 0.98225 0.71826 0.70279 0.0
C316 C 0.92732 0.77938 0.71052 0.0
O317 O 0.92411 0.77935 0.68737 0.0
O318 O 0.99887 0.76166 0.72259 0.0
C319 C 0.48005 0.29894 0.14958 0.0
O320 O 0.46289 0.28361 0.14157 0.0
O321 O 0.44879 0.27886 0.20616 0.0
Zn322 Zn 0.47847 0.27397 0.19214 0.0
O323 O 0.47483 0.24477 0.17274 0.0
C324 C 0.51136 0.25727 0.22584 0.0
O325 O 0.50087 0.23749 0.21796 0.0
O326 O 0.48849 0.29858 0.17081 0.0
C327 C 0.49168 0.24136 0.16094 0.0
O328 O 0.51008 0.25649 0.16251 0.0
C329 C 0.4463 0.27547 0.22783 0.0
O330 O 0.4631 0.26849 0.2408 0.0
O331 O 0.50441 0.27466 0.21771 0.0
H332 H 0.29832 0.80141 0.87823 0.0
H333 H 0.22696 0.77337 0.88008 0.0
H334 H 0.29466 0.82742 0.91125 0.0
H335 H 0.22301 0.79998 0.91257 0.0
H336 H 0.23315 0.83595 0.98699 0.0
H337 H 0.23602 0.80893 0.95453 0.0
H338 H 0.27559 0.86036 0.91823 0.0
H339 H 0.27303 0.88725 0.95071 0.0
C340 C 0.28181 0.80086 0.88564 0.0
C341 C 0.26277 0.78569 0.87618 0.0
C342 C 0.27966 0.81589 0.90442 0.0
C343 C 0.25846 0.81599 0.91432 0.0
C344 C 0.23956 0.80037 0.9053 0.0
C345 C 0.24172 0.78536 0.88642 0.0
C346 C 0.24239 0.84151 0.97204 0.0
C347 C 0.25292 0.86375 0.97148 0.0
C348 C 0.24395 0.82604 0.9534 0.0
C349 C 0.25614 0.83247 0.93386 0.0
C350 C 0.26639 0.85478 0.9332 0.0
C351 C 0.26478 0.87024 0.95177 0.0
H352 H 0.9735 0.56032 0.42568 0.0
H353 H 0.02576 0.53825 0.47332 0.0
H354 H 0.99551 0.55278 0.39231 0.0
H355 H 0.04795 0.53103 0.43987 0.0
H356 H 0.06986 0.50059 0.37086 0.0
H357 H 0.04702 0.50629 0.40421 0.0
H358 H 0.03151 0.56855 0.37681 0.0
H359 H 0.05401 0.56274 0.34335 0.0
C360 C 0.98966 0.55382 0.42906 0.0
C361 C 0.99789 0.54996 0.45222 0.0
C362 C 0.00235 0.54963 0.40992 0.0
C363 C 0.02355 0.54144 0.41345 0.0
C364 C 0.03158 0.53716 0.43654 0.0
C365 C 0.0189 0.5414 0.45572 0.0
C366 C 0.06157 0.51549 0.37195 0.0
C367 C 0.06374 0.5312 0.35442 0.0
C368 C 0.04857 0.5188 0.39112 0.0
C369 C 0.0374 0.53784 0.39313 0.0
C370 C 0.03962 0.55354 0.37561 0.0
C371 C 0.05265 0.55027 0.35649 0.0
H372 H 0.72955 0.72251 0.8637 0.0
H373 H 0.7799 0.7631 0.91241 0.0
H374 H 0.7296 0.69162 0.88983 0.0
H375 H 0.77928 0.73261 0.93899 0.0
H376 H 0.78594 0.66927 0.97594 0.0
H377 H 0.78921 0.69669 0.94571 0.0
H378 H 0.71598 0.68145 0.92642 0.0
H379 H 0.71296 0.65349 0.9559 0.0
C380 C 0.74063 0.72484 0.88 0.0
C381 C 0.75464 0.7453 0.88602 0.0
C382 C 0.74056 0.70716 0.89507 0.0
C383 C 0.75431 0.7096 0.91666 0.0
C384 C 0.76871 0.72994 0.92239 0.0
C385 C 0.76896 0.74753 0.90719 0.0
C386 C 0.7706 0.67163 0.96505 0.0
C387 C 0.74918 0.65926 0.96838 0.0
C388 C 0.77243 0.68747 0.94782 0.0
C389 C 0.75284 0.69147 0.93367 0.0
C390 C 0.73153 0.67865 0.93668 0.0
C391 C 0.72975 0.66266 0.95372 0.0
H392 H 0.00734 0.02285 0.4446 0.0
H393 H 0.03706 0.98689 0.38996 0.0
H394 H 0.979 0.0335 0.41505 0.0
H395 H 0.00856 0.99717 0.36061 0.0
H396 H 0.96812 0.03622 0.31036 0.0
H397 H 0.99751 0.02925 0.34063 0.0
H398 H 0.94533 0.01565 0.38976 0.0
H399 H 0.9159 0.02306 0.35958 0.0
C400 C 0.00788 0.01727 0.4263 0.0
C401 C 0.02444 0.004 0.41964 0.0
C402 C 0.99155 0.02326 0.4094 0.0
C403 C 0.99151 0.01616 0.38549 0.0
C404 C 0.0083 0.00317 0.37883 0.0
C405 C 0.02458 0.99717 0.39569 0.0
C406 C 0.9629 0.03186 0.32765 0.0
C407 C 0.93964 0.03009 0.33252 0.0
C408 C 0.97974 0.02776 0.34497 0.0
C409 C 0.97374 0.02177 0.36756 0.0
C410 C 0.95055 0.02045 0.3726 0.0
C411 C 0.93366 0.02456 0.35526 0.0
H412 H 0.26088 0.25393 0.6916 0.0
H413 H 0.20429 0.27463 0.64892 0.0
H414 H 0.26591 0.22662 0.66027 0.0
H415 H 0.20873 0.24684 0.61798 0.0
H416 H 0.23808 0.21244 0.55712 0.0
H417 H 0.23383 0.23952 0.58875 0.0
H418 H 0.24887 0.19203 0.64051 0.0
H419 H 0.25393 0.16514 0.60872 0.0
C420 C 0.24941 0.25254 0.67559 0.0
C421 C 0.23226 0.26652 0.6727 0.0
C422 C 0.25219 0.23677 0.65768 0.0
C423 C 0.23776 0.23451 0.63652 0.0
C424 C 0.22045 0.24837 0.63382 0.0
C425 C 0.2178 0.26424 0.65163 0.0
C426 C 0.2405 0.20775 0.57524 0.0
C427 C 0.24632 0.18661 0.58039 0.0
C428 C 0.23791 0.22326 0.59342 0.0
C429 C 0.24086 0.21797 0.61724 0.0
C430 C 0.24675 0.1968 0.62239 0.0
C431 C 0.24953 0.18133 0.60417 0.0
H432 H 0.50201 0.51971 0.60677 0.0
H433 H 0.51674 0.58867 0.63296 0.0
H434 H 0.4814 0.51056 0.64168 0.0
H435 H 0.49654 0.57946 0.66784 0.0
H436 H 0.43557 0.56106 0.71131 0.0
H437 H 0.45665 0.56867 0.67661 0.0
H438 H 0.48739 0.50825 0.68502 0.0
H439 H 0.46597 0.5004 0.71965 0.0
C440 C 0.50103 0.53286 0.62005 0.0
C441 C 0.5109 0.55495 0.61701 0.0
C442 C 0.48931 0.5276 0.64008 0.0
C443 C 0.48717 0.54433 0.65741 0.0
C444 C 0.49751 0.56628 0.6546 0.0
C445 C 0.50923 0.57152 0.63465 0.0
C446 C 0.44677 0.54935 0.70577 0.0
C447 C 0.44915 0.53016 0.71832 0.0
C448 C 0.45897 0.55379 0.68595 0.0
C449 C 0.47383 0.53915 0.67817 0.0
C450 C 0.47595 0.51977 0.69048 0.0
C451 C 0.46376 0.51534 0.71038 0.0
H452 H 0.7608 0.24941 0.65323 0.0
H453 H 0.75993 0.30901 0.69764 0.0
H454 H 0.75575 0.27064 0.61816 0.0
H455 H 0.7556 0.33041 0.66258 0.0
H456 H 0.7263 0.35803 0.59508 0.0
H457 H 0.72906 0.33593 0.62985 0.0
H458 H 0.77668 0.29852 0.59654 0.0
H459 H 0.77338 0.32013 0.56158 0.0
C460 C 0.75962 0.26707 0.65551 0.0
C461 C 0.7608 0.27752 0.67824 0.0
C462 C 0.75686 0.27929 0.63539 0.0
C463 C 0.75535 0.30228 0.63749 0.0
C464 C 0.75637 0.31268 0.66026 0.0
C465 C 0.75901 0.30043 0.68039 0.0
C466 C 0.7373 0.34504 0.59516 0.0
C467 C 0.7496 0.34084 0.57554 0.0
C468 C 0.73899 0.33245 0.61516 0.0
C469 C 0.75312 0.31543 0.61605 0.0
C470 C 0.76535 0.31123 0.59636 0.0
C471 C 0.76357 0.32374 0.57633 0.0
H472 H 0.5283 0.97914 0.61584 0.0
H473 H 0.46206 0.97675 0.64467 0.0
H474 H 0.54745 0.98638 0.65542 0.0
H475 H 0.48127 0.98339 0.68444 0.0
H476 H 0.52537 0.01745 0.74985 0.0
H477 H 0.50522 0.0112 0.71047 0.0
H478 H 0.55328 0.96691 0.69078 0.0
H479 H 0.57376 0.97363 0.72982 0.0
C480 C 0.51781 0.98012 0.63063 0.0
C481 C 0.49364 0.97729 0.62708 0.0
C482 C 0.5288 0.98412 0.65337 0.0
C483 C 0.5159 0.98525 0.67316 0.0
C484 C 0.49173 0.98281 0.66958 0.0
C485 C 0.48072 0.97892 0.64678 0.0
C486 C 0.53157 0.00631 0.73713 0.0
C487 C 0.55124 0.99613 0.74293 0.0
C488 C 0.51996 0.00266 0.71458 0.0
C489 C 0.52773 0.98869 0.69739 0.0
C490 C 0.54711 0.97814 0.70342 0.0
C491 C 0.55876 0.98187 0.72588 0.0
H492 H 0.8469 0.2696 0.77689 0.0
H493 H 0.85829 0.2039 0.75165 0.0
H494 H 0.88565 0.27575 0.79678 0.0
H495 H 0.89712 0.21024 0.77121 0.0
H496 H 0.95037 0.2184 0.83611 0.0
H497 H 0.91368 0.21302 0.81217 0.0
H498 H 0.92677 0.28077 0.79034 0.0
H499 H 0.96337 0.2863 0.8146 0.0
C500 C 0.85776 0.25659 0.7753 0.0
C501 C 0.84941 0.23619 0.76282 0.0
C502 C 0.88002 0.26016 0.78662 0.0
C503 C 0.8944 0.24342 0.78571 0.0
C504 C 0.88632 0.22333 0.77256 0.0
C505 C 0.8641 0.21976 0.76123 0.0
C506 C 0.94551 0.23212 0.8261 0.0
C507 C 0.95976 0.2528 0.82735 0.0
C508 C 0.92453 0.22899 0.81225 0.0
C509 C 0.9173 0.24648 0.79935 0.0
C510 C 0.93174 0.26705 0.80028 0.0
C511 C 0.95276 0.27017 0.81409 0.0
H512 H 0.53152 0.89321 0.51975 0.0
H513 H 0.46865 0.90658 0.48188 0.0
H514 H 0.53546 0.86449 0.48963 0.0
H515 H 0.47239 0.87744 0.45188 0.0
H516 H 0.50063 0.8402 0.39056 0.0
H517 H 0.49652 0.86937 0.42027 0.0
H518 H 0.51718 0.82747 0.4755 0.0
H519 H 0.52172 0.79847 0.4458 0.0
C520 C 0.51848 0.88999 0.50503 0.0
C521 C 0.49975 0.90219 0.50324 0.0
C522 C 0.52068 0.8734 0.48782 0.0
C523 C 0.50419 0.86859 0.4684 0.0
C524 C 0.48552 0.88089 0.4665 0.0
C525 C 0.48331 0.89751 0.48375 0.0
C526 C 0.50432 0.83721 0.40904 0.0
C527 C 0.51157 0.81703 0.4158 0.0
C528 C 0.50181 0.85388 0.42608 0.0
C529 C 0.50653 0.85076 0.45026 0.0
C530 C 0.51371 0.83053 0.457 0.0
C531 C 0.51621 0.81386 0.43997 0.0
H532 H 0.18619 0.26278 0.79312 0.0
H533 H 0.15826 0.32355 0.77757 0.0
H534 H 0.15044 0.24824 0.80983 0.0
H535 H 0.12248 0.30885 0.79382 0.0
H536 H 0.07508 0.28749 0.85151 0.0
H537 H 0.10982 0.30089 0.83272 0.0
H538 H 0.10943 0.23527 0.79948 0.0
H539 H 0.07481 0.22169 0.81867 0.0
C540 C 0.17236 0.27295 0.79305 0.0
C541 C 0.17514 0.29439 0.78417 0.0
C542 C 0.15183 0.26456 0.80252 0.0
C543 C 0.13368 0.27745 0.8033 0.0
C544 C 0.13628 0.29866 0.79387 0.0
C545 C 0.15677 0.30703 0.78442 0.0
C546 C 0.08235 0.2759 0.84016 0.0
C547 C 0.07217 0.25351 0.8366 0.0
C548 C 0.1022 0.28363 0.82927 0.0
C549 C 0.11235 0.26916 0.81454 0.0
C550 C 0.10215 0.24677 0.81091 0.0
C551 C 0.08225 0.23903 0.82181 0.0
H552 H 0.53336 0.58781 0.45194 0.0
H553 H 0.54534 0.62845 0.51733 0.0
H554 H 0.52902 0.62117 0.43013 0.0
H555 H 0.54127 0.66161 0.49555 0.0
H556 H 0.50163 0.70921 0.454 0.0
H557 H 0.50872 0.67592 0.47438 0.0
H558 H 0.54992 0.65729 0.41887 0.0
H559 H 0.54263 0.6906 0.39823 0.0
C560 C 0.53538 0.60385 0.46163 0.0
C561 C 0.5395 0.6054 0.48642 0.0
C562 C 0.53295 0.62297 0.44912 0.0
C563 C 0.53451 0.64398 0.46116 0.0
C564 C 0.53952 0.6456 0.48581 0.0
C565 C 0.54201 0.62658 0.49828 0.0
C566 C 0.51218 0.69803 0.44608 0.0
C567 C 0.5216 0.7026 0.4245 0.0
C568 C 0.51638 0.67902 0.45786 0.0
C569 C 0.53004 0.66406 0.44833 0.0
C570 C 0.53923 0.66844 0.42659 0.0
C571 C 0.53513 0.68757 0.41483 0.0
H572 H 0.79829 0.78727 0.77373 0.0
H573 H 0.84968 0.82606 0.82288 0.0
H574 H 0.82811 0.78082 0.74761 0.0
H575 H 0.87939 0.81998 0.79655 0.0
H576 H 0.92871 0.78078 0.75877 0.0
H577 H 0.89876 0.78916 0.78371 0.0
H578 H 0.85502 0.79941 0.72161 0.0
H579 H 0.8849 0.79059 0.69653 0.0
C580 C 0.81591 0.7946 0.77886 0.0
C581 C 0.82163 0.80709 0.80045 0.0
C582 C 0.83299 0.791 0.76382 0.0
C583 C 0.85616 0.7998 0.77004 0.0
C584 C 0.86177 0.81267 0.79141 0.0
C585 C 0.84471 0.81627 0.80644 0.0
C586 C 0.91274 0.78486 0.75039 0.0
C587 C 0.9092 0.78498 0.72563 0.0
C588 C 0.8956 0.78982 0.76472 0.0
C589 C 0.8745 0.79502 0.75467 0.0
C590 C 0.87099 0.79524 0.7299 0.0
C591 C 0.88816 0.79029 0.71554 0.0
H592 H 0.02436 0.88552 0.56223 0.0
H593 H 0.09035 0.86361 0.5794 0.0
H594 H 0.00732 0.86131 0.59139 0.0
H595 H 0.07349 0.83991 0.60895 0.0
H596 H 0.03025 0.77959 0.6359 0.0
H597 H 0.04728 0.80581 0.60883 0.0
H598 H 0.00645 0.85509 0.63335 0.0
H599 H 0.98888 0.8285 0.6602 0.0
C600 C 0.0353 0.87576 0.57244 0.0
C601 C 0.05867 0.87634 0.56836 0.0
C602 C 0.02555 0.86196 0.58924 0.0
C603 C 0.03899 0.84852 0.60237 0.0
C604 C 0.06254 0.8497 0.59881 0.0
C605 C 0.07225 0.8634 0.58196 0.0
C606 C 0.02487 0.79601 0.63558 0.0
C607 C 0.0082 0.80195 0.65023 0.0
C608 C 0.03479 0.81113 0.62015 0.0
C609 C 0.02838 0.83263 0.61903 0.0
C610 C 0.01163 0.83859 0.63364 0.0
C611 C 0.00163 0.82339 0.64908 0.0
H612 H 0.14426 0.7399 0.7727 0.0
H613 H 0.13832 0.79087 0.82668 0.0
H614 H 0.10572 0.7432 0.75564 0.0
H615 H 0.09944 0.79384 0.80983 0.0
H616 H 0.0438 0.81146 0.75427 0.0
H617 H 0.08092 0.80734 0.77451 0.0
H618 H 0.06548 0.73565 0.76319 0.0
H619 H 0.02856 0.73979 0.74248 0.0
C620 C 0.13466 0.75169 0.78106 0.0
C621 C 0.14441 0.76517 0.80102 0.0
C622 C 0.11247 0.75347 0.77136 0.0
C623 C 0.09947 0.76875 0.78139 0.0
C624 C 0.10911 0.78207 0.80152 0.0
C625 C 0.13134 0.7803 0.81124 0.0
C626 C 0.04824 0.79481 0.75624 0.0
C627 C 0.03327 0.77597 0.74663 0.0
C628 C 0.06948 0.79244 0.76797 0.0
C629 C 0.07623 0.77117 0.77037 0.0
C630 C 0.06097 0.75229 0.76131 0.0
C631 C 0.03974 0.75466 0.74956 0.0
H632 H 0.96318 0.64924 0.5493 0.0
H633 H 0.95957 0.59513 0.59676 0.0
H634 H 0.96067 0.6755 0.58227 0.0
H635 H 0.95648 0.62144 0.62978 0.0
H636 H 0.98556 0.67984 0.68418 0.0
H637 H 0.98169 0.65099 0.65239 0.0
H638 H 0.93621 0.68762 0.611 0.0
H639 H 0.94054 0.7168 0.64259 0.0
C640 C 0.96153 0.64288 0.56673 0.0
C641 C 0.96176 0.6201 0.57041 0.0
C642 C 0.95992 0.65795 0.58565 0.0
C643 C 0.95842 0.65061 0.60872 0.0
C644 C 0.95793 0.6277 0.61229 0.0
C645 C 0.95958 0.6126 0.59334 0.0
C646 C 0.97451 0.68163 0.66842 0.0
C647 C 0.96355 0.70075 0.66584 0.0
C648 C 0.97218 0.665 0.65022 0.0
C649 C 0.95878 0.66705 0.62904 0.0
C650 C 0.94699 0.6857 0.62691 0.0
C651 C 0.94937 0.70237 0.64508 0.0
H652 H 0.7676 0.89226 0.19763 0.0
H653 H 0.80804 0.86835 0.2555 0.0
H654 H 0.79336 0.92753 0.20074 0.0
H655 H 0.83406 0.90345 0.25824 0.0
H656 H 0.85731 0.978 0.27567 0.0
H657 H 0.83282 0.94202 0.27099 0.0
H658 H 0.83222 0.9446 0.19501 0.0
H659 H 0.85635 0.98084 0.19967 0.0
C660 C 0.78216 0.89439 0.21081 0.0
C661 C 0.78567 0.8775 0.2264 0.0
C662 C 0.79699 0.91461 0.21253 0.0
C663 C 0.81568 0.91839 0.22986 0.0
C664 C 0.81958 0.90123 0.24497 0.0
C665 C 0.80475 0.88103 0.24327 0.0
C666 C 0.85194 0.97092 0.25796 0.0
C667 C 0.85878 0.98232 0.23804 0.0
C668 C 0.83803 0.9502 0.25527 0.0
C669 C 0.83065 0.94036 0.23262 0.0
C670 C 0.83742 0.9518 0.2127 0.0
C671 C 0.85133 0.97255 0.21539 0.0
H672 H 0.84429 0.20628 0.28838 0.0
H673 H 0.77789 0.16888 0.29781 0.0
H674 H 0.86036 0.17151 0.28321 0.0
H675 H 0.7941 0.13406 0.29308 0.0
H676 H 0.82443 0.07858 0.25243 0.0
H677 H 0.80814 0.1127 0.26115 0.0
H678 H 0.87056 0.13941 0.30384 0.0
H679 H 0.88703 0.10549 0.29478 0.0
C680 C 0.83318 0.19065 0.28964 0.0
C681 C 0.80978 0.19036 0.2934 0.0
C682 C 0.84243 0.1707 0.28679 0.0
C683 C 0.82849 0.14999 0.28763 0.0
C684 C 0.80522 0.14972 0.29199 0.0
C685 C 0.79597 0.16969 0.29486 0.0
C686 C 0.83466 0.09169 0.26375 0.0
C687 C 0.85708 0.08934 0.2728 0.0
C688 C 0.82525 0.1112 0.26888 0.0
C689 C 0.83806 0.12881 0.28317 0.0
C690 C 0.86035 0.1263 0.29252 0.0
C691 C 0.86975 0.10679 0.28741 0.0
H692 H 0.42122 0.00491 0.04633 0.0
H693 H 0.37512 0.03301 0.99668 0.0
H694 H 0.39021 0.97545 0.05331 0.0
H695 H 0.34428 0.00333 0.0033 0.0
H696 H 0.28811 0.95986 0.03766 0.0
H697 H 0.31917 0.99006 0.03329 0.0
H698 H 0.36782 0.94255 0.03279 0.0
H699 H 0.33686 0.9124 0.03764 0.0
C700 C 0.40449 0.00479 0.03688 0.0
C701 C 0.40065 0.02132 0.02094 0.0
C702 C 0.38674 0.98783 0.04079 0.0
C703 C 0.36475 0.98701 0.02886 0.0
C704 C 0.36091 0.00363 0.01303 0.0
C705 C 0.37865 0.02058 0.00912 0.0
C706 C 0.30545 0.95586 0.03676 0.0
C707 C 0.30999 0.93369 0.03796 0.0
C708 C 0.32324 0.97316 0.0341 0.0
C709 C 0.34598 0.96872 0.03258 0.0
C710 C 0.35056 0.94659 0.03416 0.0
C711 C 0.33277 0.92928 0.03682 0.0
H712 H 0.18743 0.34888 0.30415 0.0
H713 H 0.22233 0.37933 0.36966 0.0
H714 H 0.17105 0.38314 0.29684 0.0
H715 H 0.20561 0.41339 0.36255 0.0
H716 H 0.18785 0.47807 0.3318 0.0
H717 H 0.20643 0.44469 0.33684 0.0
H718 H 0.14227 0.40338 0.31329 0.0
H719 H 0.1238 0.43668 0.30784 0.0
C720 C 0.19167 0.36289 0.31695 0.0
C721 C 0.20612 0.36133 0.33753 0.0
C722 C 0.18216 0.38248 0.31284 0.0
C723 C 0.18691 0.40096 0.32918 0.0
C724 C 0.20178 0.39955 0.34949 0.0
C725 C 0.21127 0.37996 0.35362 0.0
C726 C 0.17771 0.46187 0.32765 0.0
C727 C 0.15433 0.46006 0.31945 0.0
C728 C 0.18835 0.44273 0.33064 0.0
C729 C 0.17584 0.42136 0.32545 0.0
C730 C 0.15249 0.41958 0.31713 0.0
C731 C 0.14185 0.43869 0.31417 0.0
H732 H 0.13145 0.98046 0.55189 0.0
H733 H 0.10335 0.00108 0.48517 0.0
H734 H 0.1571 0.01583 0.55743 0.0
H735 H 0.12867 0.03658 0.49091 0.0
H736 H 0.1665 0.10549 0.51943 0.0
H737 H 0.13775 0.072 0.51652 0.0
H738 H 0.19084 0.03225 0.53756 0.0
H739 H 0.2194 0.06548 0.54062 0.0
C740 C 0.13049 0.99268 0.53857 0.0
C741 C 0.11503 0.98812 0.51831 0.0
C742 C 0.14523 0.01289 0.54171 0.0
C743 C 0.1449 0.02898 0.5246 0.0
C744 C 0.12904 0.02467 0.5046 0.0
C745 C 0.11434 0.00438 0.50142 0.0
C746 C 0.17199 0.0896 0.52352 0.0
C747 C 0.19524 0.08816 0.53024 0.0
C748 C 0.15555 0.07044 0.52176 0.0
C749 C 0.16202 0.04953 0.52692 0.0
C750 C 0.18524 0.04817 0.53381 0.0
C751 C 0.20165 0.06722 0.53539 0.0
H752 H 0.7144 0.1488 0.72257 0.0
H753 H 0.73021 0.15919 0.79815 0.0
H754 H 0.68426 0.1183 0.72899 0.0
H755 H 0.69983 0.12901 0.80454 0.0
H756 H 0.66497 0.0563 0.80454 0.0
H757 H 0.69328 0.08849 0.79869 0.0
H758 H 0.64664 0.10997 0.74458 0.0
H759 H 0.61846 0.07755 0.7501 0.0
C760 C 0.71128 0.14475 0.74055 0.0
C761 C 0.72481 0.15635 0.75984 0.0
C762 C 0.69393 0.12733 0.74424 0.0
C763 C 0.68974 0.12113 0.76728 0.0
C764 C 0.70288 0.13312 0.78656 0.0
C765 C 0.7202 0.15053 0.78288 0.0
C766 C 0.66071 0.06791 0.79144 0.0
C767 C 0.63948 0.06431 0.77774 0.0
C768 C 0.67689 0.08645 0.78819 0.0
C769 C 0.67221 0.10181 0.77117 0.0
C770 C 0.65088 0.09831 0.75763 0.0
C771 C 0.63469 0.07978 0.7609 0.0
H772 H 0.36856 0.99854 0.57188 0.0
H773 H 0.41646 0.03308 0.52717 0.0
H774 H 0.34324 0.02697 0.56613 0.0
H775 H 0.39107 0.06158 0.5215 0.0
H776 H 0.32396 0.08953 0.49474 0.0
H777 H 0.35194 0.06368 0.50163 0.0
H778 H 0.34271 0.06749 0.57636 0.0
H779 H 0.31464 0.0933 0.56952 0.0
C780 C 0.37371 0.01221 0.56085 0.0
C781 C 0.3945 0.01351 0.54993 0.0
C782 C 0.35927 0.02859 0.55771 0.0
C783 C 0.3652 0.04654 0.54342 0.0
C784 C 0.38598 0.04785 0.53248 0.0
C785 C 0.40054 0.03157 0.5358 0.0
C786 C 0.32805 0.08503 0.51268 0.0
C787 C 0.31698 0.09339 0.53156 0.0
C788 C 0.34416 0.07029 0.51662 0.0
C789 C 0.34941 0.06346 0.53951 0.0
C790 C 0.33879 0.07226 0.55848 0.0
C791 C 0.32283 0.08715 0.55457 0.0
H792 H 0.60657 0.50791 0.54323 0.0
H793 H 0.57931 0.4782 0.47458 0.0
H794 H 0.63834 0.48578 0.54276 0.0
H795 H 0.61099 0.45597 0.47423 0.0
H796 H 0.68501 0.43929 0.47156 0.0
H797 H 0.65321 0.46131 0.47189 0.0
H798 H 0.6446 0.44614 0.54459 0.0
H799 H 0.67657 0.42423 0.54438 0.0
C800 C 0.60736 0.49668 0.52803 0.0
C801 C 0.59041 0.49483 0.50893 0.0
C802 C 0.62548 0.4839 0.52784 0.0
C803 C 0.62715 0.46909 0.50848 0.0
C804 C 0.6103 0.46738 0.4893 0.0
C805 C 0.5921 0.48005 0.48955 0.0
C806 C 0.67633 0.4406 0.48761 0.0
C807 C 0.68336 0.43 0.50795 0.0
C808 C 0.65802 0.45314 0.48775 0.0
C809 C 0.64641 0.4555 0.50827 0.0
C810 C 0.65338 0.44485 0.52859 0.0
C811 C 0.6716 0.43217 0.52841 0.0
H812 H 0.73631 0.2616 0.37843 0.0
H813 H 0.77853 0.3142 0.3466 0.0
H814 H 0.73311 0.2869 0.41226 0.0
H815 H 0.77415 0.34003 0.37932 0.0
H816 H 0.78237 0.3766 0.45047 0.0
H817 H 0.78559 0.35037 0.41779 0.0
H818 H 0.71726 0.31678 0.42712 0.0
H819 H 0.71499 0.34224 0.46108 0.0
C820 C 0.7446 0.27872 0.37857 0.0
C821 C 0.7577 0.28598 0.36001 0.0
C822 C 0.74268 0.29333 0.39789 0.0
C823 C 0.7534 0.31568 0.39879 0.0
C824 C 0.76614 0.32289 0.3798 0.0
C825 C 0.76854 0.30813 0.36086 0.0
C826 C 0.76804 0.3636 0.44548 0.0
C827 C 0.74841 0.36148 0.45823 0.0
C828 C 0.76978 0.34858 0.42656 0.0
C829 C 0.75161 0.33139 0.41943 0.0
C830 C 0.73182 0.32945 0.4322 0.0
C831 C 0.73038 0.34417 0.45157 0.0
H832 H 0.4823 0.05954 0.93066 0.0
H833 H 0.53135 0.02857 0.97414 0.0
H834 H 0.50249 0.05185 0.89593 0.0
H835 H 0.55164 0.02107 0.93933 0.0
H836 H 0.56952 0.99411 0.86676 0.0
H837 H 0.54724 0.99885 0.90085 0.0
H838 H 0.5403 0.06613 0.88195 0.0
H839 H 0.56233 0.0614 0.84789 0.0
C840 C 0.49729 0.05096 0.93281 0.0
C841 C 0.50527 0.04478 0.95523 0.0
C842 C 0.50894 0.04668 0.91291 0.0
C843 C 0.52875 0.03601 0.91493 0.0
C844 C 0.53633 0.02918 0.93719 0.0
C845 C 0.52475 0.03358 0.95715 0.0
C846 C 0.56318 0.00989 0.86986 0.0
C847 C 0.56769 0.02738 0.8546 0.0
C848 C 0.55052 0.01263 0.88944 0.0
C849 C 0.54195 0.03283 0.89403 0.0
C850 C 0.54639 0.05025 0.8787 0.0
C851 C 0.55916 0.04759 0.85926 0.0
H852 H 0.2092 0.22847 0.382 0.0
H853 H 0.28353 0.24253 0.38583 0.0
H854 H 0.21197 0.19931 0.40997 0.0
H855 H 0.28623 0.21317 0.41362 0.0
H856 H 0.27853 0.18156 0.48609 0.0
H857 H 0.27748 0.20794 0.45494 0.0
H858 H 0.22458 0.16226 0.41444 0.0
H859 H 0.22541 0.13588 0.44576 0.0
C860 C 0.22613 0.22522 0.38863 0.0
C861 C 0.24614 0.23794 0.38176 0.0
C862 C 0.22771 0.2084 0.40455 0.0
C863 C 0.24932 0.20397 0.41405 0.0
C864 C 0.26933 0.21637 0.40681 0.0
C865 C 0.26777 0.23312 0.3908 0.0
C866 C 0.26679 0.17703 0.47047 0.0
C867 C 0.25198 0.15664 0.46847 0.0
C868 C 0.2663 0.19211 0.45255 0.0
C869 C 0.2509 0.18721 0.43225 0.0
C870 C 0.23644 0.16661 0.42999 0.0
C871 C 0.23702 0.15145 0.44788 0.0
H872 H 0.56016 0.51436 0.89928 0.0
H873 H 0.50944 0.50776 0.95076 0.0
H874 H 0.53185 0.52619 0.87064 0.0
H875 H 0.48101 0.51923 0.92193 0.0
H876 H 0.44084 0.55793 0.86946 0.0
H877 H 0.47084 0.55059 0.89911 0.0
H878 H 0.49706 0.50785 0.84779 0.0
H879 H 0.46742 0.51541 0.81814 0.0
C880 C 0.54302 0.51556 0.90455 0.0
C881 C 0.53702 0.50996 0.92725 0.0
C882 C 0.52676 0.52221 0.88808 0.0
C883 C 0.50413 0.52344 0.89393 0.0
C884 C 0.49835 0.51862 0.91692 0.0
C885 C 0.51462 0.51194 0.93341 0.0
C886 C 0.45307 0.54704 0.86449 0.0
C887 C 0.45171 0.53724 0.84144 0.0
C888 C 0.47019 0.54277 0.88151 0.0
C889 C 0.48636 0.52868 0.87579 0.0
C890 C 0.48509 0.51905 0.85268 0.0
C891 C 0.46797 0.52326 0.83571 0.0
H892 H 0.71974 0.78742 0.12865 0.0
H893 H 0.73892 0.74733 0.18612 0.0
H894 H 0.72362 0.75713 0.10035 0.0
H895 H 0.74195 0.7166 0.15784 0.0
H896 H 0.76751 0.6744 0.0988 0.0
H897 H 0.76435 0.70441 0.12793 0.0
H898 H 0.70525 0.72146 0.08612 0.0
H899 H 0.70901 0.69211 0.05667 0.0
C900 C 0.72465 0.77207 0.13525 0.0
C901 C 0.729 0.76978 0.15963 0.0
C902 C 0.72672 0.75459 0.11902 0.0
C903 C 0.73294 0.73427 0.12675 0.0
C904 C 0.73741 0.73206 0.15118 0.0
C905 C 0.73556 0.74965 0.16742 0.0
C906 C 0.7538 0.68453 0.09591 0.0
C907 C 0.7386 0.68097 0.07536 0.0
C908 C 0.75191 0.70169 0.11267 0.0
C909 C 0.73463 0.71553 0.10936 0.0
C910 C 0.7191 0.71152 0.08904 0.0
C911 C 0.72114 0.69455 0.07221 0.0
H912 H 0.01772 0.02582 0.1109 0.0
H913 H 0.01868 0.09632 0.12749 0.0
H914 H 0.99345 0.01715 0.14327 0.0
H915 H 0.99494 0.08768 0.16005 0.0
H916 H 0.93228 0.06512 0.19952 0.0
H917 H 0.95585 0.07249 0.16648 0.0
H918 H 0.99456 0.01934 0.18618 0.0
H919 H 0.97064 0.01161 0.21892 0.0
C920 C 0.0129 0.03946 0.12155 0.0
C921 C 0.02007 0.06176 0.11657 0.0
C922 C 0.99907 0.0345 0.14015 0.0
C923 C 0.99214 0.05173 0.15417 0.0
C924 C 0.9996 0.074 0.14934 0.0
C925 C 0.01336 0.07896 0.13076 0.0
C926 C 0.94576 0.05495 0.19676 0.0
C927 C 0.94962 0.03783 0.2119 0.0
C928 C 0.95937 0.05926 0.1779 0.0
C929 C 0.97719 0.0466 0.17377 0.0
C930 C 0.98083 0.02926 0.18872 0.0
C931 C 0.96719 0.02492 0.20757 0.0
H932 H 0.2654 0.75175 0.16308 0.0
H933 H 0.26813 0.81033 0.20997 0.0
H934 H 0.26174 0.77457 0.12906 0.0
H935 H 0.26516 0.83331 0.17593 0.0
H936 H 0.23627 0.86403 0.1096 0.0
H937 H 0.23896 0.84124 0.14387 0.0
H938 H 0.28381 0.80226 0.10826 0.0
H939 H 0.28057 0.82456 0.07385 0.0
C940 C 0.26534 0.76953 0.16613 0.0
C941 C 0.26707 0.77921 0.18924 0.0
C942 C 0.26338 0.78266 0.14661 0.0
C943 C 0.26324 0.80584 0.1497 0.0
C944 C 0.2649 0.81549 0.17286 0.0
C945 C 0.26674 0.80233 0.19239 0.0
C946 C 0.2467 0.85059 0.10911 0.0
C947 C 0.25814 0.84608 0.08895 0.0
C948 C 0.24835 0.83759 0.12882 0.0
C949 C 0.26156 0.81984 0.12885 0.0
C950 C 0.27315 0.81551 0.10873 0.0
C951 C 0.27141 0.82842 0.08902 0.0
H952 H 0.96622 0.48852 0.14601 0.0
H953 H 0.01225 0.44044 0.13177 0.0
H954 H 0.98688 0.49793 0.1849 0.0
H955 H 0.03259 0.44967 0.17057 0.0
H956 H 0.07939 0.48988 0.22926 0.0
H957 H 0.05801 0.48151 0.19082 0.0
H958 H 0.99394 0.48088 0.22354 0.0
H959 H 0.01536 0.48954 0.26216 0.0
C960 C 0.98068 0.47993 0.15117 0.0
C961 C 0.98761 0.46378 0.13573 0.0
C962 C 0.99242 0.48523 0.17349 0.0
C963 C 0.01141 0.4746 0.18074 0.0
C964 C 0.01823 0.45838 0.16536 0.0
C965 C 0.00647 0.45301 0.14315 0.0
C966 C 0.06075 0.48799 0.22832 0.0
C967 C 0.04908 0.49029 0.24881 0.0
C968 C 0.0485 0.48308 0.20627 0.0
C969 C 0.02429 0.48042 0.20417 0.0
C970 C 0.01259 0.48301 0.22459 0.0
C971 C 0.02487 0.48784 0.24671 0.0
H972 H 0.36096 0.70164 0.24989 0.0
H973 H 0.34836 0.75906 0.29233 0.0
H974 H 0.39953 0.70422 0.26975 0.0
H975 H 0.38669 0.76128 0.31257 0.0
H976 H 0.46372 0.77037 0.33185 0.0
H977 H 0.42735 0.76944 0.30797 0.0
H978 H 0.41655 0.69741 0.30838 0.0
H979 H 0.45321 0.6983 0.33178 0.0
C980 C 0.36644 0.71489 0.26337 0.0
C981 C 0.35151 0.7301 0.26958 0.0
C982 C 0.38851 0.71626 0.27487 0.0
C983 C 0.39615 0.73284 0.2929 0.0
C984 C 0.38146 0.74844 0.29861 0.0
C985 C 0.35942 0.74711 0.28705 0.0
C986 C 0.45365 0.75432 0.32675 0.0
C987 C 0.46134 0.7344 0.33379 0.0
C988 C 0.43273 0.7538 0.31315 0.0
C989 C 0.41898 0.73337 0.30631 0.0
C990 C 0.42686 0.71343 0.31306 0.0
C991 C 0.44782 0.71394 0.32661 0.0
H992 H 0.02789 0.40373 0.00415 0.0
H993 H 0.95602 0.3757 0.00138 0.0
H994 H 0.03428 0.37588 0.97406 0.0
H995 H 0.96242 0.34794 0.97094 0.0
H996 H 0.99059 0.28634 0.9392 0.0
H997 H 0.98288 0.31496 0.96798 0.0
H998 H 0.0245 0.36517 0.93205 0.0
H999 H 0.03248 0.3366 0.90347 0.0
C1000 C 0.0134 0.39174 0.99698 0.0
C1001 C 0.99145 0.39192 0.00521 0.0
C1002 C 0.01705 0.37584 0.97964 0.0
C1003 C 0.99887 0.35968 0.97014 0.0
C1004 C 0.97684 0.36002 0.97813 0.0
C1005 C 0.97314 0.37601 0.99543 0.0
C1006 C 0.99809 0.30349 0.93743 0.0
C1007 C 0.01222 0.30917 0.91908 0.0
C1008 C 0.99353 0.3199 0.95383 0.0
C1009 C 0.00308 0.34233 0.95229 0.0
C1010 C 0.01711 0.34801 0.93387 0.0
C1011 C 0.02159 0.33163 0.91744 0.0
H1012 H 0.68518 0.76755 0.2764 0.0
H1013 H 0.6591 0.83033 0.26713 0.0
H1014 H 0.65096 0.75371 0.29611 0.0
H1015 H 0.62483 0.81637 0.28642 0.0
H1016 H 0.58292 0.79489 0.34819 0.0
H1017 H 0.616 0.80746 0.32649 0.0
H1018 H 0.60899 0.74279 0.28938 0.0
H1019 H 0.57601 0.73 0.31143 0.0
C1020 C 0.67206 0.77831 0.27835 0.0
C1021 C 0.67495 0.8001 0.27035 0.0
C1022 C 0.65241 0.77034 0.28954 0.0
C1023 C 0.63527 0.78401 0.29299 0.0
C1024 C 0.63791 0.80557 0.28441 0.0
C1025 C 0.65751 0.81352 0.27322 0.0
C1026 C 0.58839 0.78332 0.3354 0.0
C1027 C 0.57681 0.76143 0.33154 0.0
C1028 C 0.60727 0.79059 0.32285 0.0
C1029 C 0.61506 0.77615 0.30613 0.0
C1030 C 0.60353 0.75424 0.30229 0.0
C1031 C 0.58457 0.74696 0.31484 0.0
H1032 H 0.08179 0.12319 0.00786 0.0
H1033 H 0.0229 0.08689 0.9662 0.0
H1034 H 0.07867 0.1557 0.98461 0.0
H1035 H 0.01915 0.11964 0.94359 0.0
H1036 H 0.02646 0.17809 0.89624 0.0
H1037 H 0.03416 0.14439 0.91566 0.0
H1038 H 0.05425 0.18352 0.98124 0.0
H1039 H 0.04743 0.2172 0.96158 0.0
C1040 C 0.06825 0.12211 0.99364 0.0
C1041 C 0.05252 0.10249 0.98898 0.0
C1042 C 0.06632 0.14083 0.98042 0.0
C1043 C 0.04844 0.14049 0.96241 0.0
C1044 C 0.03328 0.12052 0.95714 0.0
C1045 C 0.03538 0.10171 0.97018 0.0
C1046 C 0.0326 0.17947 0.91479 0.0
C1047 C 0.0363 0.20031 0.92738 0.0
C1048 C 0.03694 0.16013 0.92597 0.0
C1049 C 0.04487 0.16115 0.95006 0.0
C1050 C 0.04861 0.18208 0.96257 0.0
C1051 C 0.04451 0.20142 0.95134 0.0
H1052 H 0.30506 0.27712 0.26335 0.0
H1053 H 0.34674 0.31586 0.32065 0.0
H1054 H 0.33977 0.27265 0.24358 0.0
H1055 H 0.38134 0.31156 0.30077 0.0
H1056 H 0.43763 0.27339 0.27424 0.0
H1057 H 0.40275 0.28015 0.29221 0.0
H1058 H 0.37174 0.29391 0.22394 0.0
H1059 H 0.40672 0.28694 0.20578 0.0
C1060 C 0.32159 0.28486 0.27162 0.0
C1061 C 0.32315 0.29674 0.29364 0.0
C1062 C 0.34146 0.28239 0.26023 0.0
C1063 C 0.36329 0.29162 0.2707 0.0
C1064 C 0.36478 0.30397 0.29242 0.0
C1065 C 0.34493 0.30654 0.30375 0.0
C1066 C 0.42341 0.27787 0.26301 0.0
C1067 C 0.42497 0.27962 0.23856 0.0
C1068 C 0.40347 0.2819 0.27336 0.0
C1069 C 0.38454 0.28768 0.25952 0.0
C1070 C 0.386 0.28935 0.23504 0.0
C1071 C 0.40606 0.28544 0.22467 0.0
H1072 H 0.52652 0.38133 0.03419 0.0
H1073 H 0.58692 0.36086 0.07048 0.0
H1074 H 0.50273 0.36397 0.06372 0.0
H1075 H 0.56317 0.34341 0.09976 0.0
H1076 H 0.51819 0.33002 0.15971 0.0
H1077 H 0.5397 0.35253 0.13205 0.0
H1078 H 0.48983 0.32531 0.07486 0.0
H1079 H 0.4681 0.30293 0.10254 0.0
C1080 C 0.53474 0.37326 0.04853 0.0
C1081 C 0.5586 0.37242 0.04996 0.0
C1082 C 0.5211 0.36324 0.06536 0.0
C1083 C 0.53107 0.35233 0.08406 0.0
C1084 C 0.555 0.35193 0.08574 0.0
C1085 C 0.5686 0.36181 0.06886 0.0
C1086 C 0.51162 0.32903 0.14129 0.0
C1087 C 0.49151 0.31452 0.13331 0.0
C1088 C 0.52404 0.34184 0.12543 0.0
C1089 C 0.51659 0.34053 0.10124 0.0
C1090 C 0.49593 0.3268 0.09342 0.0
C1091 C 0.48354 0.3139 0.10928 0.0
H1092 H 0.62765 0.24029 0.32637 0.0
H1093 H 0.64875 0.29875 0.288 0.0
H1094 H 0.5888 0.23769 0.30689 0.0
H1095 H 0.61027 0.29584 0.26821 0.0
H1096 H 0.53506 0.29545 0.24784 0.0
H1097 H 0.57066 0.2993 0.27349 0.0
H1098 H 0.57031 0.22783 0.26748 0.0
H1099 H 0.53437 0.22391 0.24231 0.0
C1100 C 0.62397 0.25267 0.31392 0.0
C1101 C 0.64133 0.26967 0.30865 0.0
C1102 C 0.60176 0.25109 0.30265 0.0
C1103 C 0.59643 0.26649 0.2859 0.0
C1104 C 0.61365 0.28386 0.28123 0.0
C1105 C 0.6358 0.28545 0.29249 0.0
C1106 C 0.54246 0.28052 0.25217 0.0
C1107 C 0.53198 0.25938 0.24287 0.0
C1108 C 0.56293 0.28275 0.26679 0.0
C1109 C 0.57346 0.26391 0.27239 0.0
C1110 C 0.56255 0.24268 0.26374 0.0
C1111 C 0.542 0.24044 0.24918 0.0
H1112 H 0.49861 0.15106 0.04046 0.0
H1113 H 0.47582 0.10665 0.09424 0.0
H1114 H 0.49837 0.18305 0.06782 0.0
H1115 H 0.4758 0.13886 0.12178 0.0
H1116 H 0.45757 0.20533 0.15517 0.0
H1117 H 0.45571 0.17244 0.1281 0.0
H1118 H 0.52154 0.19871 0.1042 0.0
H1119 H 0.52336 0.23149 0.13093 0.0
C1120 C 0.49349 0.1481 0.05811 0.0
C1121 C 0.48736 0.12627 0.0652 0.0
C1122 C 0.49348 0.16645 0.07383 0.0
C1123 C 0.48726 0.16347 0.09702 0.0
C1124 C 0.48055 0.14169 0.10398 0.0
C1125 C 0.48068 0.12325 0.08825 0.0
C1126 C 0.47165 0.20404 0.14415 0.0
C1127 C 0.49057 0.22107 0.14515 0.0
C1128 C 0.47062 0.18517 0.12875 0.0
C1129 C 0.48841 0.18307 0.11392 0.0
C1130 C 0.5074 0.20001 0.11513 0.0
C1131 C 0.50849 0.21874 0.13058 0.0
H1132 H 0.30974 0.36441 0.77151 0.0
H1133 H 0.26729 0.38715 0.71449 0.0
H1134 H 0.33549 0.39958 0.77295 0.0
H1135 H 0.29276 0.42258 0.71635 0.0
H1136 H 0.35552 0.47583 0.71235 0.0
H1137 H 0.33097 0.4398 0.70902 0.0
H1138 H 0.33496 0.43809 0.78522 0.0
H1139 H 0.35993 0.47379 0.78854 0.0
C1140 C 0.30591 0.37688 0.75924 0.0
C1141 C 0.28639 0.37297 0.74294 0.0
C1142 C 0.3206 0.39713 0.76019 0.0
C1143 C 0.31608 0.41401 0.74493 0.0
C1144 C 0.29687 0.40988 0.72823 0.0
C1145 C 0.28221 0.38958 0.72722 0.0
C1146 C 0.35113 0.46778 0.7284 0.0
C1147 C 0.35974 0.47767 0.75071 0.0
C1148 C 0.33698 0.44715 0.72648 0.0
C1149 C 0.33107 0.43598 0.74684 0.0
C1150 C 0.33951 0.44602 0.76916 0.0
C1151 C 0.3537 0.46659 0.77107 0.0
H1152 H 0.28385 0.66199 0.81558 0.0
H1153 H 0.35191 0.69986 0.81833 0.0
H1154 H 0.3005 0.62739 0.81146 0.0
H1155 H 0.3686 0.66527 0.81485 0.0
H1156 H 0.38686 0.60246 0.77767 0.0
H1157 H 0.37038 0.63666 0.78462 0.0
H1158 H 0.32404 0.60283 0.83129 0.0
H1159 H 0.3402 0.56833 0.82385 0.0
C1160 C 0.30239 0.66293 0.81563 0.0
C1161 C 0.31654 0.68369 0.81712 0.0
C1162 C 0.31195 0.64307 0.81338 0.0
C1163 C 0.33588 0.64354 0.81264 0.0
C1164 C 0.35006 0.66431 0.8149 0.0
C1165 C 0.3405 0.68415 0.81706 0.0
C1166 C 0.37317 0.60228 0.78943 0.0
C1167 C 0.36484 0.58264 0.80018 0.0
C1168 C 0.36382 0.62197 0.79357 0.0
C1169 C 0.34596 0.62256 0.80863 0.0
C1170 C 0.33762 0.6029 0.81941 0.0
C1171 C 0.34695 0.58315 0.81522 0.0
H1172 H 0.90023 0.51814 0.54878 0.0
H1173 H 0.87725 0.51456 0.47444 0.0
H1174 H 0.87083 0.48647 0.5549 0.0
H1175 H 0.84848 0.48254 0.48054 0.0
H1176 H 0.82366 0.40883 0.5026 0.0
H1177 H 0.85421 0.43996 0.4988 0.0
H1178 H 0.82117 0.48179 0.54503 0.0
H1179 H 0.79013 0.45088 0.54834 0.0
C1180 C 0.88901 0.51051 0.53377 0.0
C1181 C 0.89096 0.5188 0.51115 0.0
C1182 C 0.87223 0.4925 0.5373 0.0
C1183 C 0.85759 0.48218 0.51815 0.0
C1184 C 0.85971 0.49025 0.49551 0.0
C1185 C 0.87607 0.50857 0.49208 0.0
C1186 C 0.82302 0.42459 0.51214 0.0
C1187 C 0.80453 0.42748 0.52574 0.0
C1188 C 0.84042 0.44236 0.50987 0.0
C1189 C 0.83991 0.46312 0.52165 0.0
C1190 C 0.82189 0.46585 0.53589 0.0
C1191 C 0.80417 0.44823 0.53771 0.0
H1192 H 0.72842 0.88058 0.86709 0.0
H1193 H 0.68669 0.84612 0.80723 0.0
H1194 H 0.70799 0.91275 0.86239 0.0
H1195 H 0.66581 0.87804 0.80294 0.0
H1196 H 0.6466 0.94687 0.78854 0.0
H1197 H 0.66924 0.91611 0.79193 0.0
H1198 H 0.67077 0.92326 0.86812 0.0
H1199 H 0.64869 0.95443 0.86473 0.0
C1200 C 0.71489 0.87986 0.85291 0.0
C1201 C 0.70915 0.86074 0.83757 0.0
C1202 C 0.70306 0.89826 0.85032 0.0
C1203 C 0.68513 0.89796 0.83239 0.0
C1204 C 0.67969 0.87898 0.81678 0.0
C1205 C 0.6916 0.86061 0.8193 0.0
C1206 C 0.6518 0.94191 0.80602 0.0
C1207 C 0.64582 0.95311 0.82637 0.0
C1208 C 0.6647 0.92418 0.80796 0.0
C1209 C 0.67184 0.91716 0.83029 0.0
C1210 C 0.66589 0.92843 0.85064 0.0
C1211 C 0.65308 0.94623 0.8487 0.0
H1212 H 0.59872 0.49065 0.01925 0.0
H1213 H 0.65634 0.46319 0.9925 0.0
H1214 H 0.62248 0.527 0.02642 0.0
H1215 H 0.67988 0.49952 0.99872 0.0
H1216 H 0.72386 0.55939 0.03536 0.0
H1217 H 0.699 0.52389 0.02893 0.0
H1218 H 0.6413 0.55854 0.00907 0.0
H1219 H 0.66615 0.59424 0.01668 0.0
C1220 C 0.61634 0.49254 0.01445 0.0
C1221 C 0.62567 0.47418 0.00519 0.0
C1222 C 0.62999 0.51336 0.01856 0.0
C1223 C 0.65321 0.51628 0.01328 0.0
C1224 C 0.66229 0.49788 0.00356 0.0
C1225 C 0.64876 0.47705 -0.00018 0.0
C1226 C 0.70585 0.55944 0.02967 0.0
C1227 C 0.69698 0.57962 0.02646 0.0
C1228 C 0.69158 0.53904 0.02579 0.0
C1229 C 0.66811 0.53822 0.01819 0.0
C1230 C 0.65919 0.55847 0.01517 0.0
C1231 C 0.67345 0.57895 0.01941 0.0
H1232 H 0.23265 0.6599 0.30033 0.0
H1233 H 0.2154 0.65002 0.22491 0.0
H1234 H 0.20204 0.63007 0.3071 0.0
H1235 H 0.18502 0.61987 0.23171 0.0
H1236 H 0.11919 0.57994 0.25401 0.0
H1237 H 0.1477 0.61197 0.24803 0.0
H1238 H 0.19483 0.58959 0.30106 0.0
H1239 H 0.1662 0.55779 0.30736 0.0
C1240 C 0.22228 0.65143 0.28518 0.0
C1241 C 0.22655 0.65728 0.26207 0.0
C1242 C 0.20482 0.63422 0.28907 0.0
C1243 C 0.19121 0.62246 0.26995 0.0
C1244 C 0.19507 0.62872 0.24684 0.0
C1245 C 0.21255 0.64594 0.24294 0.0
C1246 C 0.1356 0.58188 0.26446 0.0
C1247 C 0.14042 0.56629 0.28116 0.0
C1248 C 0.15198 0.60019 0.26094 0.0
C1249 C 0.17353 0.60334 0.27405 0.0
C1250 C 0.17827 0.58782 0.29089 0.0
C1251 C 0.16191 0.56951 0.2944 0.0
H1252 H 0.9163 0.53061 0.03057 0.0
H1253 H 0.86803 0.49797 0.07615 0.0
H1254 H 0.8911 0.55906 0.02355 0.0
H1255 H 0.8429 0.52636 0.06906 0.0
H1256 H 0.81401 0.59253 0.06896 0.0
H1257 H 0.84223 0.56718 0.07744 0.0
H1258 H 0.85212 0.56044 0.00302 0.0
H1259 H 0.824 0.58581 0.99449 0.0
C1260 C 0.90035 0.52953 0.03913 0.0
C1261 C 0.89413 0.51199 0.05386 0.0
C1262 C 0.88591 0.54578 0.03504 0.0
C1263 C 0.86505 0.54496 0.04579 0.0
C1264 C 0.85899 0.52759 0.06075 0.0
C1265 C 0.87331 0.51123 0.06467 0.0
C1266 C 0.82239 0.58584 0.05443 0.0
C1267 C 0.81667 0.5911 0.03102 0.0
C1268 C 0.83844 0.57122 0.05928 0.0
C1269 C 0.84927 0.56171 0.04088 0.0
C1270 C 0.84417 0.56761 0.01759 0.0
C1271 C 0.82798 0.58207 0.0127 0.0
H1272 H 0.11161 0.01021 0.05435 0.0
H1273 H 0.07971 0.97517 0.98979 0.0
H1274 H 0.14315 0.98784 0.05375 0.0
H1275 H 0.11118 0.95267 0.98934 0.0
H1276 H 0.18506 0.93619 0.98306 0.0
H1277 H 0.15279 0.95759 0.98363 0.0
H1278 H 0.15017 0.94879 0.05852 0.0
H1279 H 0.18263 0.92753 0.05804 0.0
C1280 C 0.11131 0.99773 0.04004 0.0
C1281 C 0.09315 0.9945 0.02209 0.0
C1282 C 0.12931 0.9848 0.03979 0.0
C1283 C 0.12964 0.96845 0.02153 0.0
C1284 C 0.11153 0.96528 0.00354 0.0
C1285 C 0.09345 0.97811 0.00385 0.0
C1286 C 0.17757 0.93874 0.99965 0.0
C1287 C 0.18647 0.93018 0.02052 0.0
C1288 C 0.15899 0.95091 -6e-05 0.0
C1289 C 0.14896 0.95493 0.02113 0.0
C1290 C 0.15771 0.9462 0.04196 0.0
C1291 C 0.17621 0.9339 0.04165 0.0
loop_
_geom_bond_atom_site_label_1
_geom_bond_atom_site_label_2
_geom_bond_distance
_geom_bond_site_symmetry_2
_ccdc_geom_bond_type
O0 Cd1 2.300 . S
O0 C7 1.275 . S
Cd1 O0 2.300 . S
Cd1 O9 2.381 . S
Cd1 O10 2.378 . S
O2 Cd3 2.385 . S
O2 C7 1.255 . S
Cd3 O2 2.385 . S
Cd3 O4 2.317 . S
O4 Cd3 2.317 . S
O4 C5 1.232 1_455 S
C5 O4 1.232 1_655 S
C5 O6 1.218 . S
O6 C5 1.218 . S
C7 O0 1.275 . S
C7 O2 1.255 . S
C8 O9 1.258 . S
C8 O10 1.256 . S
O9 Cd1 2.381 . S
O9 C8 1.258 . S
O10 Cd1 2.378 . S
O10 C8 1.256 . S
O11 Cd12 2.300 . S
O11 C18 1.275 . S
Cd12 O11 2.300 . S
Cd12 O20 2.381 . S
Cd12 O21 2.378 . S
O13 Cd14 2.385 . S
O13 C18 1.255 . S
Cd14 O13 2.385 . S
Cd14 O15 2.317 . S
O15 Cd14 2.317 . S
O15 C16 1.232 . S
C16 O15 1.232 . S
C16 O17 1.218 . S
O17 C16 1.218 . S
C18 O11 1.275 . S
C18 O13 1.255 . S
C19 O20 1.258 . S
C19 O21 1.256 . S
O20 Cd12 2.381 . S
O20 C19 1.258 . S
O21 Cd12 2.378 . S
O21 C19 1.256 . S
O22 Cd23 2.300 . S
O22 C29 1.275 . S
Cd23 O22 2.300 . S
Cd23 O31 2.381 . S
Cd23 O32 2.378 . S
O24 Cd25 2.385 1_655 S
O24 C29 1.255 . S
Cd25 O24 2.385 1_455 S
Cd25 O26 2.317 1_455 S
O26 Cd25 2.317 1_655 S
O26 C27 1.232 . S
C27 O26 1.232 . S
C27 O28 1.218 1_655 S
O28 C27 1.218 1_455 S
C29 O22 1.275 . S
C29 O24 1.255 . S
C30 O31 1.258 . S
C30 O32 1.256 . S
O31 Cd23 2.381 . S
O31 C30 1.258 . S
O32 Cd23 2.378 . S
O32 C30 1.256 . S
O33 Cd34 2.300 . S
O33 C40 1.275 . S
Cd34 O33 2.300 . S
Cd34 O42 2.381 . S
Cd34 O43 2.378 . S
O35 Cd36 2.385 . S
O35 C40 1.255 . S
Cd36 O35 2.385 . S
Cd36 O37 2.317 . S
O37 Cd36 2.317 . S
O37 C38 1.232 . S
C38 O37 1.232 . S
C38 O39 1.218 . S
O39 C38 1.218 . S
C40 O33 1.275 . S
C40 O35 1.255 . S
C41 O42 1.258 . S
C41 O43 1.256 . S
O42 Cd34 2.381 . S
O42 C41 1.258 . S
O43 Cd34 2.378 . S
O43 C41 1.256 . S
O44 Cd45 2.300 . S
O44 C51 1.275 1_565 S
Cd45 O44 2.300 . S
Cd45 O53 2.381 . S
Cd45 O54 2.378 . S
O46 Cd47 2.385 . S
O46 C51 1.255 . S
Cd47 O46 2.385 . S
Cd47 O48 2.317 1_545 S
O48 Cd47 2.317 1_565 S
O48 C49 1.232 1_565 S
C49 O48 1.232 1_545 S
C49 O50 1.218 . S
O50 C49 1.218 . S
C51 O44 1.275 1_545 S
C51 O46 1.255 . S
C52 O53 1.258 . S
C52 O54 1.256 . S
O53 Cd45 2.381 . S
O53 C52 1.258 . S
O54 Cd45 2.378 . S
O54 C52 1.256 . S
O55 Cd56 2.300 . S
O55 C62 1.275 . S
Cd56 O55 2.300 . S
Cd56 O64 2.381 . S
Cd56 O65 2.378 . S
O57 Cd58 2.385 . S
O57 C62 1.255 . S
Cd58 O57 2.385 . S
Cd58 O59 2.317 . S
O59 Cd58 2.317 . S
O59 C60 1.232 . S
C60 O59 1.232 . S
C60 O61 1.218 . S
O61 C60 1.218 . S
C62 O55 1.275 . S
C62 O57 1.255 . S
C63 O64 1.258 . S
C63 O65 1.256 . S
O64 Cd56 2.381 . S
O64 C63 1.258 . S
O65 Cd56 2.378 . S
O65 C63 1.256 . S
O66 Cd67 2.300 . S
O66 C73 1.275 . S
Cd67 O66 2.300 . S
Cd67 O75 2.381 . S
Cd67 O76 2.378 . S
O68 Cd69 2.385 . S
O68 C73 1.255 1_455 S
Cd69 O68 2.385 . S
Cd69 O70 2.317 1_455 S
O70 Cd69 2.317 1_655 S
O70 C71 1.232 1_655 S
C71 O70 1.232 1_455 S
C71 O72 1.218 . S
O72 C71 1.218 . S
C73 O66 1.275 . S
C73 O68 1.255 1_655 S
C74 O75 1.258 . S
C74 O76 1.256 . S
O75 Cd67 2.381 . S
O75 C74 1.258 . S
O76 Cd67 2.378 . S
O76 C74 1.256 . S
O77 Cd78 2.300 . S
O77 C84 1.275 . S
Cd78 O77 2.300 . S
Cd78 O86 2.381 . S
Cd78 O87 2.378 . S
O79 Cd80 2.385 . S
O79 C84 1.255 . S
Cd80 O79 2.385 . S
Cd80 O81 2.317 . S
O81 Cd80 2.317 . S
O81 C82 1.232 . S
C82 O81 1.232 . S
C82 O83 1.218 . S
O83 C82 1.218 . S
C84 O77 1.275 . S
C84 O79 1.255 . S
C85 O86 1.258 . S
C85 O87 1.256 . S
O86 Cd78 2.381 . S
O86 C85 1.258 . S
O87 Cd78 2.378 . S
O87 C85 1.256 . S
O88 Cd89 2.300 . S
O88 C95 1.275 . S
Cd89 O88 2.300 . S
Cd89 O97 2.381 . S
Cd89 O98 2.378 . S
O90 Cd91 2.385 . S
O90 C95 1.255 . S
Cd91 O90 2.385 . S
Cd91 O92 2.317 . S
O92 Cd91 2.317 . S
O92 C93 1.232 . S
C93 O92 1.232 . S
C93 O94 1.218 . S
O94 C93 1.218 . S
C95 O88 1.275 . S
C95 O90 1.255 . S
C96 O97 1.258 . S
C96 O98 1.256 . S
O97 Cd89 2.381 . S
O97 C96 1.258 . S
O98 Cd89 2.378 . S
O98 C96 1.256 . S
O99 Cd100 2.300 1_565 S
O99 C106 1.275 . S
Cd100 O99 2.300 1_545 S
Cd100 O108 2.381 . S
Cd100 O109 2.378 . S
O101 Cd102 2.385 . S
O101 C106 1.255 . S
Cd102 O101 2.385 . S
Cd102 O103 2.317 . S
O103 Cd102 2.317 . S
O103 C104 1.232 . S
C104 O103 1.232 . S
C104 O105 1.218 . S
O105 C104 1.218 . S
C106 O99 1.275 . S
C106 O101 1.255 . S
C107 O108 1.258 . S
C107 O109 1.256 . S
O108 Cd100 2.381 . S
O108 C107 1.258 . S
O109 Cd100 2.378 . S
O109 C107 1.256 . S
O110 Cd111 2.300 . S
O110 C117 1.275 . S
Cd111 O110 2.300 . S
Cd111 O119 2.381 . S
Cd111 O120 2.378 . S
O112 Cd113 2.385 . S
O112 C117 1.255 . S
Cd113 O112 2.385 . S
Cd113 O114 2.317 . S
O114 Cd113 2.317 . S
O114 C115 1.232 . S
C115 O114 1.232 . S
C115 O116 1.218 . S
O116 C115 1.218 . S
C117 O110 1.275 . S
C117 O112 1.255 . S
C118 O119 1.258 . S
C118 O120 1.256 . S
O119 Cd111 2.381 . S
O119 C118 1.258 . S
O120 Cd111 2.378 . S
O120 C118 1.256 . S
O121 Cd122 2.300 . S
O121 C128 1.275 . S
Cd122 O121 2.300 . S
Cd122 O130 2.381 . S
Cd122 O131 2.378 . S
O123 Cd124 2.385 . S
O123 C128 1.255 . S
Cd124 O123 2.385 . S
Cd124 O125 2.317 . S
O125 Cd124 2.317 . S
O125 C126 1.232 . S
C126 O125 1.232 . S
C126 O127 1.218 . S
O127 C126 1.218 . S
C128 O121 1.275 . S
C128 O123 1.255 . S
C129 O130 1.258 . S
C129 O131 1.256 . S
O130 Cd122 2.381 . S
O130 C129 1.258 . S
O131 Cd122 2.378 . S
O131 C129 1.256 . S
O132 Cd133 2.300 . S
O132 C139 1.275 . S
Cd133 O132 2.300 . S
Cd133 O141 2.381 . S
Cd133 O142 2.378 . S
O134 Cd135 2.385 . S
O134 C139 1.255 . S
Cd135 O134 2.385 . S
Cd135 O136 2.317 . S
O136 Cd135 2.317 . S
O136 C137 1.232 . S
C137 O136 1.232 . S
C137 O138 1.218 . S
O138 C137 1.218 . S
C139 O132 1.275 . S
C139 O134 1.255 . S
C140 O141 1.258 . S
C140 O142 1.256 . S
O141 Cd133 2.381 . S
O141 C140 1.258 . S
O142 Cd133 2.378 . S
O142 C140 1.256 . S
O143 Cd144 2.300 1_556 S
O143 C150 1.275 . S
Cd144 O143 2.300 1_554 S
Cd144 O152 2.381 . S
Cd144 O153 2.378 . S
O145 Cd146 2.385 . S
O145 C150 1.255 . S
Cd146 O145 2.385 . S
Cd146 O147 2.317 . S
O147 Cd146 2.317 . S
O147 C148 1.232 . S
C148 O147 1.232 . S
C148 O149 1.218 . S
O149 C148 1.218 . S
C150 O143 1.275 . S
C150 O145 1.255 . S
C151 O152 1.258 . S
C151 O153 1.256 . S
O152 Cd144 2.381 . S
O152 C151 1.258 . S
O153 Cd144 2.378 . S
O153 C151 1.256 . S
O154 Cd155 2.300 . S
O154 C161 1.275 . S
Cd155 O154 2.300 . S
Cd155 O163 2.381 . S
Cd155 O164 2.378 . S
O156 Cd157 2.385 . S
O156 C161 1.255 . S
Cd157 O156 2.385 . S
Cd157 O158 2.317 . S
O158 Cd157 2.317 . S
O158 C159 1.232 . S
C159 O158 1.232 . S
C159 O160 1.218 . S
O160 C159 1.218 . S
C161 O154 1.275 . S
C161 O156 1.255 . S
C162 O163 1.258 . S
C162 O164 1.256 . S
O163 Cd155 2.381 . S
O163 C162 1.258 . S
O164 Cd155 2.378 . S
O164 C162 1.256 . S
O165 Cd166 2.300 1_556 S
O165 C172 1.275 . S
Cd166 O165 2.300 1_554 S
Cd166 O174 2.381 1_554 S
Cd166 O175 2.378 . S
O167 Cd168 2.385 1_556 S
O167 C172 1.255 . S
Cd168 O167 2.385 1_554 S
Cd168 O169 2.317 . S
O169 Cd168 2.317 . S
O169 C170 1.232 . S
C170 O169 1.232 . S
C170 O171 1.218 . S
O171 C170 1.218 . S
C172 O165 1.275 . S
C172 O167 1.255 . S
C173 O174 1.258 1_564 S
C173 O175 1.256 1_565 S
O174 Cd166 2.381 1_556 S
O174 C173 1.258 1_546 S
O175 Cd166 2.378 . S
O175 C173 1.256 1_545 S
C176 O177 1.160 1_554 S
C176 O183 1.185 . S
O177 C176 1.160 1_556 S
O178 Zn179 1.899 1_556 S
O178 C186 1.284 . S
Zn179 O178 1.899 1_554 S
Zn179 O180 2.032 . S
Zn179 O183 2.086 . S
Zn179 O188 1.977 . S
O180 Zn179 2.032 . S
O180 C184 1.278 . S
C181 O182 1.203 . S
C181 O188 1.267 . S
O182 C181 1.203 . S
O183 C176 1.185 . S
O183 Zn179 2.086 . S
C184 O180 1.278 . S
C184 O185 1.211 . S
O185 C184 1.211 . S
C186 O178 1.284 . S
C186 O187 1.273 . S
O187 C186 1.273 . S
O188 Zn179 1.977 . S
O188 C181 1.267 . S
C189 O190 1.160 . S
C189 O196 1.185 . S
O190 C189 1.160 . S
O191 Zn192 1.899 . S
O191 C199 1.284 . S
Zn192 O191 1.899 . S
Zn192 O193 2.032 . S
Zn192 O196 2.086 . S
Zn192 O201 1.977 . S
O193 Zn192 2.032 . S
O193 C197 1.278 . S
C194 O195 1.203 . S
C194 O201 1.267 . S
O195 C194 1.203 . S
O196 C189 1.185 . S
O196 Zn192 2.086 . S
C197 O193 1.278 . S
C197 O198 1.211 . S
O198 C197 1.211 . S
C199 O191 1.284 . S
C199 O200 1.273 . S
O200 C199 1.273 . S
O201 Zn192 1.977 . S
O201 C194 1.267 . S
C202 O203 1.160 1_554 S
C202 O209 1.185 . S
O203 C202 1.160 1_556 S
O204 Zn205 1.899 1_556 S
O204 C212 1.284 . S
Zn205 O204 1.899 1_554 S
Zn205 O206 2.032 . S
Zn205 O209 2.086 . S
Zn205 O214 1.977 . S
O206 Zn205 2.032 . S
O206 C210 1.278 . S
C207 O208 1.203 . S
C207 O214 1.267 . S
O208 C207 1.203 . S
O209 C202 1.185 . S
O209 Zn205 2.086 . S
C210 O206 1.278 . S
C210 O211 1.211 . S
O211 C210 1.211 . S
C212 O204 1.284 . S
C212 O213 1.273 . S
O213 C212 1.273 . S
O214 Zn205 1.977 . S
O214 C207 1.267 . S
C215 O216 1.160 . S
C215 O222 1.185 . S
O216 C215 1.160 . S
O217 Zn218 1.899 . S
O217 C225 1.284 . S
Zn218 O217 1.899 . S
Zn218 O219 2.032 . S
Zn218 O222 2.086 . S
Zn218 O227 1.977 . S
O219 Zn218 2.032 . S
O219 C223 1.278 1_545 S
C220 O221 1.203 . S
C220 O227 1.267 . S
O221 C220 1.203 . S
O222 C215 1.185 . S
O222 Zn218 2.086 . S
C223 O219 1.278 1_565 S
C223 O224 1.211 . S
O224 C223 1.211 . S
C225 O217 1.284 . S
C225 O226 1.275 1_545 S
O226 C225 1.275 1_565 S
O227 Zn218 1.977 . S
O227 C220 1.267 . S
C228 O229 1.160 . S
C228 O235 1.185 . S
O229 C228 1.160 . S
O230 Zn231 1.899 . S
O230 C238 1.284 . S
Zn231 O230 1.899 . S
Zn231 O232 2.032 . S
Zn231 O235 2.086 . S
Zn231 O240 1.977 . S
O232 Zn231 2.032 . S
O232 C236 1.278 . S
C233 O234 1.203 . S
C233 O240 1.267 . S
O234 C233 1.203 . S
O235 C228 1.185 . S
O235 Zn231 2.086 . S
C236 O232 1.278 . S
C236 O237 1.211 . S
O237 C236 1.211 . S
C238 O230 1.284 . S
C238 O239 1.273 . S
O239 C238 1.273 . S
O240 Zn231 1.977 . S
O240 C233 1.267 . S
C241 O242 1.160 . S
C241 O248 1.185 . S
O242 C241 1.160 . S
O243 Zn244 1.899 . S
O243 C251 1.284 . S
Zn244 O243 1.899 . S
Zn244 O245 2.032 . S
Zn244 O248 2.086 . S
Zn244 O253 1.977 . S
O245 Zn244 2.032 . S
O245 C249 1.278 . S
C246 O247 1.203 . S
C246 O253 1.267 . S
O247 C246 1.203 . S
O248 C241 1.185 . S
O248 Zn244 2.086 . S
C249 O245 1.278 . S
C249 O250 1.211 . S
O250 C249 1.211 . S
C251 O243 1.284 . S
C251 O252 1.273 . S
O252 C251 1.273 . S
O253 Zn244 1.977 . S
O253 C246 1.267 . S
C254 O255 1.160 . S
C254 O261 1.185 . S
O255 C254 1.160 . S
O256 Zn257 1.899 . S
O256 C264 1.284 . S
Zn257 O256 1.899 . S
Zn257 O258 2.032 . S
Zn257 O261 2.086 . S
Zn257 O266 1.977 . S
O258 Zn257 2.032 . S
O258 C262 1.278 . S
C259 O260 1.203 . S
C259 O266 1.267 . S
O260 C259 1.203 . S
O261 C254 1.185 . S
O261 Zn257 2.086 . S
C262 O258 1.278 . S
C262 O263 1.211 . S
O263 C262 1.211 . S
C264 O256 1.284 . S
C264 O265 1.273 . S
O265 C264 1.273 . S
O266 Zn257 1.977 . S
O266 C259 1.267 . S
C267 O268 1.160 . S
C267 O274 1.185 . S
O268 C267 1.160 . S
O269 Zn270 1.899 . S
O269 C277 1.284 1_565 S
Zn270 O269 1.899 . S
Zn270 O271 2.032 1_565 S
Zn270 O274 2.086 . S
Zn270 O279 1.977 . S
O271 Zn270 2.032 1_545 S
O271 C275 1.278 . S
C272 O273 1.203 1_565 S
C272 O279 1.267 . S
O273 C272 1.203 1_545 S
O274 C267 1.185 . S
O274 Zn270 2.086 . S
C275 O271 1.278 . S
C275 O276 1.211 . S
O276 C275 1.211 . S
C277 O269 1.284 1_545 S
C277 O278 1.273 . S
O278 C277 1.273 . S
O279 Zn270 1.977 . S
O279 C272 1.267 . S
C280 O281 1.160 1_455 S
C280 O287 1.185 . S
O281 C280 1.160 1_655 S
O282 Zn283 1.899 1_655 S
O282 C290 1.284 . S
Zn283 O282 1.899 1_455 S
Zn283 O284 2.032 . S
Zn283 O287 2.086 . S
Zn283 O292 1.977 . S
O284 Zn283 2.032 . S
O284 C288 1.278 . S
C285 O286 1.203 . S
C285 O292 1.267 . S
O286 C285 1.203 . S
O287 C280 1.185 . S
O287 Zn283 2.086 . S
C288 O284 1.278 . S
C288 O289 1.211 . S
O289 C288 1.211 . S
C290 O282 1.284 . S
C290 O291 1.273 . S
O291 C290 1.273 . S
O292 Zn283 1.977 . S
O292 C285 1.267 . S
C293 O294 1.160 . S
C293 O300 1.185 . S
O294 C293 1.160 . S
O295 Zn296 1.899 . S
O295 C303 1.284 . S
Zn296 O295 1.899 . S
Zn296 O297 2.032 . S
Zn296 O300 2.086 . S
Zn296 O305 1.977 . S
O297 Zn296 2.032 . S
O297 C301 1.278 . S
C298 O299 1.203 . S
C298 O305 1.267 . S
O299 C298 1.203 . S
O300 C293 1.185 . S
O300 Zn296 2.086 . S
C301 O297 1.278 . S
C301 O302 1.211 . S
O302 C301 1.211 . S
C303 O295 1.284 . S
C303 O304 1.273 . S
O304 C303 1.273 . S
O305 Zn296 1.977 . S
O305 C298 1.267 . S
C306 O307 1.160 . S
C306 O313 1.185 . S
O307 C306 1.160 . S
O308 Zn309 1.899 . S
O308 C316 1.284 1_455 S
Zn309 O308 1.899 . S
Zn309 O310 2.032 . S
Zn309 O313 2.086 . S
Zn309 O318 1.977 . S
O310 Zn309 2.032 . S
O310 C314 1.278 . S
C311 O312 1.203 . S
C311 O318 1.267 . S
O312 C311 1.203 . S
O313 C306 1.185 . S
O313 Zn309 2.086 . S
C314 O310 1.278 . S
C314 O315 1.211 . S
O315 C314 1.211 . S
C316 O308 1.284 1_655 S
C316 O317 1.273 . S
O317 C316 1.273 . S
O318 Zn309 1.977 . S
O318 C311 1.267 . S
C319 O320 1.160 . S
C319 O326 1.185 . S
O320 C319 1.160 . S
O321 Zn322 1.899 . S
O321 C329 1.284 . S
Zn322 O321 1.899 . S
Zn322 O323 2.032 . S
Zn322 O326 2.086 . S
Zn322 O331 1.977 . S
O323 Zn322 2.032 . S
O323 C327 1.278 . S
C324 O325 1.203 . S
C324 O331 1.267 . S
O325 C324 1.203 . S
O326 C319 1.185 . S
O326 Zn322 2.086 . S
C327 O323 1.278 . S
C327 O328 1.211 . S
O328 C327 1.211 . S
C329 O321 1.284 . S
C329 O330 1.273 . S
O330 C329 1.273 . S
O331 Zn322 1.977 . S
O331 C324 1.267 . S
H332 C340 0.950 . S
H333 C345 0.950 . S
H334 C342 0.950 . S
H335 C344 0.950 . S
H336 C346 0.950 . S
H337 C348 0.950 . S
H338 C350 0.950 . S
H339 C351 0.950 . S
C340 H332 0.950 . S
C340 C341 1.386 . S
C340 C342 1.391 . S
C341 C340 1.386 . S
C341 C345 1.393 . S
C342 H334 0.950 . S
C342 C340 1.391 . S
C342 C343 1.400 . S
C343 C342 1.400 . S
C343 C344 1.398 . S
C343 C349 1.491 . S
C344 H335 0.950 . S
C344 C343 1.398 . S
C344 C345 1.391 . S
C345 H333 0.950 . S
C345 C341 1.393 . S
C345 C344 1.391 . S
C346 H336 0.950 . S
C346 C347 1.386 . S
C346 C348 1.391 . S
C347 C346 1.386 . S
C347 C351 1.393 . S
C348 H337 0.950 . S
C348 C346 1.391 . S
C348 C349 1.400 . S
C349 C343 1.491 . S
C349 C348 1.400 . S
C349 C350 1.398 . S
C350 H338 0.950 . S
C350 C349 1.398 . S
C350 C351 1.391 . S
C351 H339 0.950 . S
C351 C347 1.393 . S
C351 C350 1.391 . S
H352 C360 0.950 1_655 S
H353 C365 0.950 . S
H354 C362 0.950 . S
H355 C364 0.950 . S
H356 C366 0.950 . S
H357 C368 0.950 . S
H358 C370 0.950 . S
H359 C371 0.950 . S
C360 H352 0.950 1_455 S
C360 C361 1.386 . S
C360 C362 1.391 . S
C361 C360 1.386 . S
C361 C365 1.393 . S
C362 H354 0.950 . S
C362 C360 1.391 . S
C362 C363 1.400 . S
C363 C362 1.400 . S
C363 C364 1.398 . S
C363 C369 1.491 . S
C364 H355 0.950 . S
C364 C363 1.398 . S
C364 C365 1.391 . S
C365 H353 0.950 . S
C365 C361 1.393 . S
C365 C364 1.391 . S
C366 H356 0.950 . S
C366 C367 1.386 . S
C366 C368 1.391 . S
C367 C366 1.386 . S
C367 C371 1.393 . S
C368 H357 0.950 . S
C368 C366 1.391 . S
C368 C369 1.400 . S
C369 C363 1.491 . S
C369 C368 1.400 . S
C369 C370 1.398 . S
C370 H358 0.950 . S
C370 C369 1.398 . S
C370 C371 1.391 . S
C371 H359 0.950 . S
C371 C367 1.393 . S
C371 C370 1.391 . S
H372 C380 0.950 . S
H373 C385 0.950 . S
H374 C382 0.950 . S
H375 C384 0.950 . S
H376 C386 0.950 . S
H377 C388 0.950 . S
H378 C390 0.950 . S
H379 C391 0.950 . S
C380 H372 0.950 . S
C380 C381 1.386 . S
C380 C382 1.391 . S
C381 C380 1.386 . S
C381 C385 1.393 . S
C382 H374 0.950 . S
C382 C380 1.391 . S
C382 C383 1.400 . S
C383 C382 1.400 . S
C383 C384 1.398 . S
C383 C389 1.491 . S
C384 H375 0.950 . S
C384 C383 1.398 . S
C384 C385 1.391 . S
C385 H373 0.950 . S
C385 C381 1.393 . S
C385 C384 1.391 . S
C386 H376 0.950 . S
C386 C387 1.386 . S
C386 C388 1.391 . S
C387 C386 1.386 . S
C387 C391 1.393 . S
C388 H377 0.950 . S
C388 C386 1.391 . S
C388 C389 1.400 . S
C389 C383 1.491 . S
C389 C388 1.400 . S
C389 C390 1.398 . S
C390 H378 0.950 . S
C390 C389 1.398 . S
C390 C391 1.391 . S
C391 H379 0.950 . S
C391 C387 1.393 . S
C391 C390 1.391 . S
H392 C400 0.950 . S
H393 C405 0.950 . S
H394 C402 0.950 . S
H395 C404 0.950 . S
H396 C406 0.950 . S
H397 C408 0.950 . S
H398 C410 0.950 . S
H399 C411 0.924 1_565 S
C400 H392 0.950 . S
C400 C401 1.386 1_665 S
C400 C402 1.391 . S
C401 C400 1.386 1_445 S
C401 C405 1.393 . S
C402 H394 0.950 . S
C402 C400 1.391 . S
C402 C403 1.400 1_565 S
C403 C402 1.400 1_545 S
C403 C404 1.398 . S
C403 C409 1.491 . S
C404 H395 0.950 . S
C404 C403 1.398 . S
C404 C405 1.391 1_655 S
C405 H393 0.950 . S
C405 C401 1.393 . S
C405 C404 1.391 1_455 S
C406 H396 0.950 . S
C406 C407 1.386 . S
C406 C408 1.391 . S
C407 C406 1.386 . S
C407 C411 1.435 . S
C408 H397 0.950 . S
C408 C406 1.391 . S
C408 C409 1.400 . S
C409 C403 1.491 . S
C409 C408 1.400 . S
C409 C410 1.398 1_545 S
C410 H398 0.950 . S
C410 C409 1.398 1_565 S
C410 C411 1.376 1_565 S
C411 H399 0.924 1_545 S
C411 C407 1.435 . S
C411 C410 1.376 1_545 S
H412 C420 0.950 . S
H413 C425 0.950 . S
H414 C422 0.950 . S
H415 C424 0.950 . S
H416 C426 0.950 . S
H417 C428 0.950 . S
H418 C430 0.950 . S
H419 C431 0.950 . S
C420 H412 0.950 . S
C420 C421 1.386 . S
C420 C422 1.391 . S
C421 C420 1.386 . S
C421 C425 1.393 . S
C422 H414 0.950 . S
C422 C420 1.391 . S
C422 C423 1.400 . S
C423 C422 1.400 . S
C423 C424 1.398 . S
C423 C429 1.491 . S
C424 H415 0.950 . S
C424 C423 1.398 . S
C424 C425 1.391 . S
C425 H413 0.950 . S
C425 C421 1.393 . S
C425 C424 1.391 . S
C426 H416 0.950 . S
C426 C427 1.386 . S
C426 C428 1.391 . S
C427 C426 1.386 . S
C427 C431 1.393 . S
C428 H417 0.950 . S
C428 C426 1.391 . S
C428 C429 1.400 . S
C429 C423 1.491 . S
C429 C428 1.400 . S
C429 C430 1.398 . S
C430 H418 0.950 . S
C430 C429 1.398 . S
C430 C431 1.391 . S
C431 H419 0.950 . S
C431 C427 1.393 . S
C431 C430 1.391 . S
H432 C440 0.950 . S
H433 C445 0.950 . S
H434 C442 0.950 . S
H435 C444 0.950 . S
H436 C446 0.950 . S
H437 C448 0.950 . S
H438 C450 0.950 . S
H439 C451 0.950 . S
C440 H432 0.950 . S
C440 C441 1.386 . S
C440 C442 1.391 . S
C441 C440 1.386 . S
C441 C445 1.393 . S
C442 H434 0.950 . S
C442 C440 1.391 . S
C442 C443 1.400 . S
C443 C442 1.400 . S
C443 C444 1.398 . S
C443 C449 1.491 . S
C444 H435 0.950 . S
C444 C443 1.398 . S
C444 C445 1.391 . S
C445 H433 0.950 . S
C445 C441 1.393 . S
C445 C444 1.391 . S
C446 H436 0.950 . S
C446 C447 1.386 . S
C446 C448 1.391 . S
C447 C446 1.386 . S
C447 C451 1.393 . S
C448 H437 0.950 . S
C448 C446 1.391 . S
C448 C449 1.400 . S
C449 C443 1.491 . S
C449 C448 1.400 . S
C449 C450 1.398 . S
C450 H438 0.950 . S
C450 C449 1.398 . S
C450 C451 1.391 . S
C451 H439 0.950 . S
C451 C447 1.393 . S
C451 C450 1.391 . S
H452 C460 0.950 . S
H453 C465 0.950 . S
H454 C462 0.950 . S
H455 C464 0.950 . S
H456 C466 0.950 . S
H457 C468 0.950 . S
H458 C470 0.950 . S
H459 C471 0.950 . S
C460 H452 0.950 . S
C460 C461 1.386 . S
C460 C462 1.391 . S
C461 C460 1.386 . S
C461 C465 1.393 . S
C462 H454 0.950 . S
C462 C460 1.391 . S
C462 C463 1.400 . S
C463 C462 1.400 . S
C463 C464 1.398 . S
C463 C469 1.491 . S
C464 H455 0.950 . S
C464 C463 1.398 . S
C464 C465 1.391 . S
C465 H453 0.950 . S
C465 C461 1.393 . S
C465 C464 1.391 . S
C466 H456 0.950 . S
C466 C467 1.386 . S
C466 C468 1.391 . S
C467 C466 1.386 . S
C467 C471 1.393 . S
C468 H457 0.950 . S
C468 C466 1.391 . S
C468 C469 1.400 . S
C469 C463 1.491 . S
C469 C468 1.400 . S
C469 C470 1.398 . S
C470 H458 0.950 . S
C470 C469 1.398 . S
C470 C471 1.391 . S
C471 H459 0.950 . S
C471 C467 1.393 . S
C471 C470 1.391 . S
H472 C480 0.950 . S
H473 C485 0.935 1_545 S
H474 C482 0.950 . S
H475 C484 0.950 1_545 S
H476 C486 0.954 . S
H477 C488 0.950 1_545 S
H478 C490 0.950 . S
H479 C491 0.950 . S
C480 H472 0.950 . S
C480 C481 1.386 . S
C480 C482 1.391 . S
C481 C480 1.386 . S
C481 C485 1.393 . S
C482 H474 0.950 . S
C482 C480 1.391 . S
C482 C483 1.400 . S
C483 C482 1.400 . S
C483 C484 1.398 . S
C483 C489 1.491 . S
C484 H475 0.950 1_565 S
C484 C483 1.398 . S
C484 C485 1.391 . S
C485 H473 0.935 1_565 S
C485 C481 1.393 . S
C485 C484 1.391 . S
C486 H476 0.954 . S
C486 C487 1.381 1_545 S
C486 C488 1.392 1_545 S
C487 C486 1.381 1_565 S
C487 C491 1.393 . S
C488 H477 0.950 1_565 S
C488 C486 1.392 1_565 S
C488 C489 1.400 . S
C489 C483 1.491 . S
C489 C488 1.400 . S
C489 C490 1.398 . S
C490 H478 0.950 . S
C490 C489 1.398 . S
C490 C491 1.391 . S
C491 H479 0.950 . S
C491 C487 1.393 . S
C491 C490 1.391 . S
H492 C500 0.950 . S
H493 C505 0.950 . S
H494 C502 0.950 . S
H495 C504 0.950 . S
H496 C506 0.950 . S
H497 C508 0.950 . S
H498 C510 0.950 . S
H499 C511 0.950 . S
C500 H492 0.950 . S
C500 C501 1.386 . S
C500 C502 1.391 . S
C501 C500 1.386 . S
C501 C505 1.393 . S
C502 H494 0.950 . S
C502 C500 1.391 . S
C502 C503 1.400 . S
C503 C502 1.400 . S
C503 C504 1.398 . S
C503 C509 1.491 . S
C504 H495 0.950 . S
C504 C503 1.398 . S
C504 C505 1.391 . S
C505 H493 0.950 . S
C505 C501 1.393 . S
C505 C504 1.391 . S
C506 H496 0.950 . S
C506 C507 1.386 . S
C506 C508 1.391 . S
C507 C506 1.386 . S
C507 C511 1.393 . S
C508 H497 0.950 . S
C508 C506 1.391 . S
C508 C509 1.400 . S
C509 C503 1.491 . S
C509 C508 1.400 . S
C509 C510 1.398 . S
C510 H498 0.950 . S
C510 C509 1.398 . S
C510 C511 1.391 . S
C511 H499 0.950 . S
C511 C507 1.393 . S
C511 C510 1.391 . S
H512 C520 0.950 . S
H513 C525 0.950 . S
H514 C522 0.950 . S
H515 C524 0.950 . S
H516 C526 0.950 . S
H517 C528 0.950 . S
H518 C530 0.950 . S
H519 C531 0.950 . S
C520 H512 0.950 . S
C520 C521 1.386 . S
C520 C522 1.391 . S
C521 C520 1.386 . S
C521 C525 1.393 . S
C522 H514 0.950 . S
C522 C520 1.391 . S
C522 C523 1.400 . S
C523 C522 1.400 . S
C523 C524 1.398 . S
C523 C529 1.491 . S
C524 H515 0.950 . S
C524 C523 1.398 . S
C524 C525 1.391 . S
C525 H513 0.950 . S
C525 C521 1.393 . S
C525 C524 1.391 . S
C526 H516 0.950 . S
C526 C527 1.386 . S
C526 C528 1.391 . S
C527 C526 1.386 . S
C527 C531 1.393 . S
C528 H517 0.950 . S
C528 C526 1.391 . S
C528 C529 1.400 . S
C529 C523 1.491 . S
C529 C528 1.400 . S
C529 C530 1.398 . S
C530 H518 0.950 . S
C530 C529 1.398 . S
C530 C531 1.391 . S
C531 H519 0.950 . S
C531 C527 1.393 . S
C531 C530 1.391 . S
H532 C540 0.950 . S
H533 C545 0.950 . S
H534 C542 0.950 . S
H535 C544 0.950 . S
H536 C546 0.950 . S
H537 C548 0.950 . S
H538 C550 0.950 . S
H539 C551 0.950 . S
C540 H532 0.950 . S
C540 C541 1.386 . S
C540 C542 1.391 . S
C541 C540 1.386 . S
C541 C545 1.393 . S
C542 H534 0.950 . S
C542 C540 1.391 . S
C542 C543 1.400 . S
C543 C542 1.400 . S
C543 C544 1.398 . S
C543 C549 1.491 . S
C544 H535 0.950 . S
C544 C543 1.398 . S
C544 C545 1.391 . S
C545 H533 0.950 . S
C545 C541 1.393 . S
C545 C544 1.391 . S
C546 H536 0.950 . S
C546 C547 1.386 . S
C546 C548 1.391 . S
C547 C546 1.386 . S
C547 C551 1.393 . S
C548 H537 0.950 . S
C548 C546 1.391 . S
C548 C549 1.400 . S
C549 C543 1.491 . S
C549 C548 1.400 . S
C549 C550 1.398 . S
C550 H538 0.950 . S
C550 C549 1.398 . S
C550 C551 1.391 . S
C551 H539 0.950 . S
C551 C547 1.393 . S
C551 C550 1.391 . S
H552 C560 0.950 . S
H553 C565 0.950 . S
H554 C562 0.950 . S
H555 C564 0.950 . S
H556 C566 0.950 . S
H557 C568 0.950 . S
H558 C570 0.950 . S
H559 C571 0.950 . S
C560 H552 0.950 . S
C560 C561 1.386 . S
C560 C562 1.391 . S
C561 C560 1.386 . S
C561 C565 1.393 . S
C562 H554 0.950 . S
C562 C560 1.391 . S
C562 C563 1.400 . S
C563 C562 1.400 . S
C563 C564 1.398 . S
C563 C569 1.491 . S
C564 H555 0.950 . S
C564 C563 1.398 . S
C564 C565 1.391 . S
C565 H553 0.950 . S
C565 C561 1.393 . S
C565 C564 1.391 . S
C566 H556 0.950 . S
C566 C567 1.386 . S
C566 C568 1.391 . S
C567 C566 1.386 . S
C567 C571 1.393 . S
C568 H557 0.950 . S
C568 C566 1.391 . S
C568 C569 1.400 . S
C569 C563 1.491 . S
C569 C568 1.400 . S
C569 C570 1.398 . S
C570 H558 0.950 . S
C570 C569 1.398 . S
C570 C571 1.391 . S
C571 H559 0.950 . S
C571 C567 1.393 . S
C571 C570 1.391 . S
H572 C580 0.950 . S
H573 C585 0.950 . S
H574 C582 0.950 . S
H575 C584 0.950 . S
H576 C586 0.950 . S
H577 C588 0.950 . S
H578 C590 0.950 . S
H579 C591 0.950 . S
C580 H572 0.950 . S
C580 C581 1.386 . S
C580 C582 1.391 . S
C581 C580 1.386 . S
C581 C585 1.393 . S
C582 H574 0.950 . S
C582 C580 1.391 . S
C582 C583 1.400 . S
C583 C582 1.400 . S
C583 C584 1.398 . S
C583 C589 1.491 . S
C584 H575 0.950 . S
C584 C583 1.398 . S
C584 C585 1.391 . S
C585 H573 0.950 . S
C585 C581 1.393 . S
C585 C584 1.391 . S
C586 H576 0.950 . S
C586 C587 1.386 . S
C586 C588 1.391 . S
C587 C586 1.386 . S
C587 C591 1.393 . S
C588 H577 0.950 . S
C588 C586 1.391 . S
C588 C589 1.400 . S
C589 C583 1.491 . S
C589 C588 1.400 . S
C589 C590 1.398 . S
C590 H578 0.950 . S
C590 C589 1.398 . S
C590 C591 1.391 . S
C591 H579 0.950 . S
C591 C587 1.393 . S
C591 C590 1.391 . S
H592 C600 0.950 . S
H593 C605 0.950 . S
H594 C602 0.950 . S
H595 C604 0.950 . S
H596 C606 0.950 . S
H597 C608 0.950 . S
H598 C610 0.950 . S
H599 C611 0.950 . S
C600 H592 0.950 . S
C600 C601 1.386 . S
C600 C602 1.391 . S
C601 C600 1.386 . S
C601 C605 1.393 . S
C602 H594 0.950 . S
C602 C600 1.391 . S
C602 C603 1.400 . S
C603 C602 1.400 . S
C603 C604 1.398 . S
C603 C609 1.491 . S
C604 H595 0.950 . S
C604 C603 1.398 . S
C604 C605 1.391 . S
C605 H593 0.950 . S
C605 C601 1.393 . S
C605 C604 1.391 . S
C606 H596 0.950 . S
C606 C607 1.386 . S
C606 C608 1.391 . S
C607 C606 1.386 . S
C607 C611 1.393 . S
C608 H597 0.950 . S
C608 C606 1.391 . S
C608 C609 1.400 . S
C609 C603 1.491 . S
C609 C608 1.400 . S
C609 C610 1.398 . S
C610 H598 0.950 . S
C610 C609 1.398 . S
C610 C611 1.391 . S
C611 H599 0.950 . S
C611 C607 1.393 . S
C611 C610 1.391 . S
H612 C620 0.950 . S
H613 C625 0.950 . S
H614 C622 0.950 . S
H615 C624 0.950 . S
H616 C626 0.950 . S
H617 C628 0.950 . S
H618 C630 0.950 . S
H619 C631 0.950 . S
C620 H612 0.950 . S
C620 C621 1.386 . S
C620 C622 1.391 . S
C621 C620 1.386 . S
C621 C625 1.393 . S
C622 H614 0.950 . S
C622 C620 1.391 . S
C622 C623 1.400 . S
C623 C622 1.400 . S
C623 C624 1.398 . S
C623 C629 1.491 . S
C624 H615 0.950 . S
C624 C623 1.398 . S
C624 C625 1.391 . S
C625 H613 0.950 . S
C625 C621 1.393 . S
C625 C624 1.391 . S
C626 H616 0.950 . S
C626 C627 1.386 . S
C626 C628 1.391 . S
C627 C626 1.386 . S
C627 C631 1.393 . S
C628 H617 0.950 . S
C628 C626 1.391 . S
C628 C629 1.400 . S
C629 C623 1.491 . S
C629 C628 1.400 . S
C629 C630 1.398 . S
C630 H618 0.950 . S
C630 C629 1.398 . S
C630 C631 1.391 . S
C631 H619 0.950 . S
C631 C627 1.393 . S
C631 C630 1.391 . S
H632 C640 0.950 . S
H633 C645 0.950 . S
H634 C642 0.950 . S
H635 C644 0.950 . S
H636 C646 0.950 . S
H637 C648 0.950 . S
H638 C650 0.950 . S
H639 C651 0.950 . S
C640 H632 0.950 . S
C640 C641 1.386 1_455 S
C640 C642 1.391 . S
C641 C640 1.386 1_655 S
C641 C645 1.393 . S
C642 H634 0.950 . S
C642 C640 1.391 . S
C642 C643 1.400 . S
C643 C642 1.400 . S
C643 C644 1.398 1_455 S
C643 C649 1.491 . S
C644 H635 0.950 . S
C644 C643 1.398 1_655 S
C644 C645 1.391 . S
C645 H633 0.950 . S
C645 C641 1.393 . S
C645 C644 1.391 . S
C646 H636 0.950 . S
C646 C647 1.386 1_655 S
C646 C648 1.391 . S
C647 C646 1.386 1_455 S
C647 C651 1.393 . S
C648 H637 0.950 . S
C648 C646 1.391 . S
C648 C649 1.400 1_655 S
C649 C643 1.491 . S
C649 C648 1.400 1_455 S
C649 C650 1.398 . S
C650 H638 0.950 . S
C650 C649 1.398 . S
C650 C651 1.391 . S
C651 H639 0.950 . S
C651 C647 1.393 . S
C651 C650 1.391 . S
H652 C660 0.950 . S
H653 C665 0.950 . S
H654 C662 0.950 . S
H655 C664 0.950 . S
H656 C666 0.950 . S
H657 C668 0.950 . S
H658 C670 0.950 . S
H659 C671 0.950 . S
C660 H652 0.950 . S
C660 C661 1.386 . S
C660 C662 1.391 . S
C661 C660 1.386 . S
C661 C665 1.393 . S
C662 H654 0.950 . S
C662 C660 1.391 . S
C662 C663 1.400 . S
C663 C662 1.400 . S
C663 C664 1.398 . S
C663 C669 1.491 . S
C664 H655 0.950 . S
C664 C663 1.398 . S
C664 C665 1.391 . S
C665 H653 0.950 . S
C665 C661 1.393 . S
C665 C664 1.391 . S
C666 H656 0.950 . S
C666 C667 1.386 . S
C666 C668 1.391 . S
C667 C666 1.386 . S
C667 C671 1.393 . S
C668 H657 0.950 . S
C668 C666 1.391 . S
C668 C669 1.400 . S
C669 C663 1.491 . S
C669 C668 1.400 . S
C669 C670 1.398 . S
C670 H658 0.950 . S
C670 C669 1.398 . S
C670 C671 1.391 . S
C671 H659 0.950 . S
C671 C667 1.393 . S
C671 C670 1.391 . S
H672 C680 0.950 . S
H673 C685 0.950 . S
H674 C682 0.950 . S
H675 C684 0.950 . S
H676 C686 0.950 . S
H677 C688 0.950 . S
H678 C690 0.950 . S
H679 C691 0.950 . S
C680 H672 0.950 . S
C680 C681 1.386 . S
C680 C682 1.391 . S
C681 C680 1.386 . S
C681 C685 1.393 . S
C682 H674 0.950 . S
C682 C680 1.391 . S
C682 C683 1.400 . S
C683 C682 1.400 . S
C683 C684 1.398 . S
C683 C689 1.491 . S
C684 H675 0.950 . S
C684 C683 1.398 . S
C684 C685 1.391 . S
C685 H673 0.950 . S
C685 C681 1.393 . S
C685 C684 1.391 . S
C686 H676 0.950 . S
C686 C687 1.386 . S
C686 C688 1.391 . S
C687 C686 1.386 . S
C687 C691 1.393 . S
C688 H677 0.950 . S
C688 C686 1.391 . S
C688 C689 1.400 . S
C689 C683 1.491 . S
C689 C688 1.400 . S
C689 C690 1.398 . S
C690 H678 0.950 . S
C690 C689 1.398 . S
C690 C691 1.391 . S
C691 H679 0.950 . S
C691 C687 1.393 . S
C691 C690 1.391 . S
H692 C700 0.950 . S
H693 C705 0.950 . S
H694 C702 0.950 . S
H695 C704 0.950 . S
H696 C706 0.950 . S
H697 C708 0.950 . S
H698 C710 0.950 . S
H699 C711 0.950 . S
C700 H692 0.950 . S
C700 C701 1.386 . S
C700 C702 1.391 . S
C701 C700 1.386 . S
C701 C705 1.393 1_554 S
C702 H694 0.950 . S
C702 C700 1.391 . S
C702 C703 1.400 . S
C703 C702 1.400 . S
C703 C704 1.398 1_554 S
C703 C709 1.491 . S
C704 H695 0.950 . S
C704 C703 1.398 1_556 S
C704 C705 1.391 . S
C705 H693 0.950 . S
C705 C701 1.393 1_556 S
C705 C704 1.391 . S
C706 H696 0.950 . S
C706 C707 1.386 1_556 S
C706 C708 1.391 . S
C707 C706 1.386 1_554 S
C707 C711 1.393 . S
C708 H697 0.950 . S
C708 C706 1.391 . S
C708 C709 1.400 1_556 S
C709 C703 1.491 . S
C709 C708 1.400 1_554 S
C709 C710 1.398 . S
C710 H698 0.950 . S
C710 C709 1.398 . S
C710 C711 1.391 . S
C711 H699 0.950 . S
C711 C707 1.393 . S
C711 C710 1.391 . S
H712 C720 0.950 . S
H713 C725 0.950 . S
H714 C722 0.950 . S
H715 C724 0.950 . S
H716 C726 0.950 . S
H717 C728 0.950 . S
H718 C730 0.950 . S
H719 C731 0.950 . S
C720 H712 0.950 . S
C720 C721 1.386 . S
C720 C722 1.391 . S
C721 C720 1.386 . S
C721 C725 1.393 . S
C722 H714 0.950 . S
C722 C720 1.391 . S
C722 C723 1.400 . S
C723 C722 1.400 . S
C723 C724 1.398 . S
C723 C729 1.491 . S
C724 H715 0.950 . S
C724 C723 1.398 . S
C724 C725 1.391 . S
C725 H713 0.950 . S
C725 C721 1.393 . S
C725 C724 1.391 . S
C726 H716 0.950 . S
C726 C727 1.386 . S
C726 C728 1.391 . S
C727 C726 1.386 . S
C727 C731 1.393 . S
C728 H717 0.950 . S
C728 C726 1.391 . S
C728 C729 1.400 . S
C729 C723 1.491 . S
C729 C728 1.400 . S
C729 C730 1.398 . S
C730 H718 0.950 . S
C730 C729 1.398 . S
C730 C731 1.391 . S
C731 H719 0.950 . S
C731 C727 1.393 . S
C731 C730 1.391 . S
H732 C740 0.950 . S
H733 C745 0.950 . S
H734 C742 0.950 . S
H735 C744 0.950 . S
H736 C746 0.950 . S
H737 C748 0.950 . S
H738 C750 0.950 . S
H739 C751 0.950 . S
C740 H732 0.950 . S
C740 C741 1.386 . S
C740 C742 1.391 . S
C741 C740 1.386 . S
C741 C745 1.393 . S
C742 H734 0.950 . S
C742 C740 1.391 . S
C742 C743 1.400 . S
C743 C742 1.400 . S
C743 C744 1.398 . S
C743 C749 1.491 . S
C744 H735 0.950 . S
C744 C743 1.398 . S
C744 C745 1.391 . S
C745 H733 0.950 . S
C745 C741 1.393 . S
C745 C744 1.391 . S
C746 H736 0.950 . S
C746 C747 1.386 . S
C746 C748 1.391 . S
C747 C746 1.386 . S
C747 C751 1.393 . S
C748 H737 0.950 . S
C748 C746 1.391 . S
C748 C749 1.400 . S
C749 C743 1.491 . S
C749 C748 1.400 . S
C749 C750 1.398 . S
C750 H738 0.950 . S
C750 C749 1.398 . S
C750 C751 1.391 . S
C751 H739 0.950 . S
C751 C747 1.393 . S
C751 C750 1.391 . S
H752 C760 0.950 . S
H753 C765 0.950 . S
H754 C762 0.950 . S
H755 C764 0.950 . S
H756 C766 0.950 . S
H757 C768 0.950 . S
H758 C770 0.950 . S
H759 C771 0.950 . S
C760 H752 0.950 . S
C760 C761 1.386 . S
C760 C762 1.391 . S
C761 C760 1.386 . S
C761 C765 1.393 . S
C762 H754 0.950 . S
C762 C760 1.391 . S
C762 C763 1.400 . S
C763 C762 1.400 . S
C763 C764 1.398 . S
C763 C769 1.491 . S
C764 H755 0.950 . S
C764 C763 1.398 . S
C764 C765 1.391 . S
C765 H753 0.950 . S
C765 C761 1.393 . S
C765 C764 1.391 . S
C766 H756 0.950 . S
C766 C767 1.386 . S
C766 C768 1.391 . S
C767 C766 1.386 . S
C767 C771 1.393 . S
C768 H757 0.950 . S
C768 C766 1.391 . S
C768 C769 1.400 . S
C769 C763 1.491 . S
C769 C768 1.400 . S
C769 C770 1.398 . S
C770 H758 0.950 . S
C770 C769 1.398 . S
C770 C771 1.391 . S
C771 H759 0.950 . S
C771 C767 1.393 . S
C771 C770 1.391 . S
H772 C780 0.950 . S
H773 C785 0.950 . S
H774 C782 0.950 . S
H775 C784 0.950 . S
H776 C786 0.950 . S
H777 C788 0.950 . S
H778 C790 0.950 . S
H779 C791 0.950 . S
C780 H772 0.950 . S
C780 C781 1.386 . S
C780 C782 1.391 . S
C781 C780 1.386 . S
C781 C785 1.393 . S
C782 H774 0.950 . S
C782 C780 1.391 . S
C782 C783 1.400 . S
C783 C782 1.400 . S
C783 C784 1.398 . S
C783 C789 1.491 . S
C784 H775 0.950 . S
C784 C783 1.398 . S
C784 C785 1.391 . S
C785 H773 0.950 . S
C785 C781 1.393 . S
C785 C784 1.391 . S
C786 H776 0.950 . S
C786 C787 1.386 . S
C786 C788 1.391 . S
C787 C786 1.386 . S
C787 C791 1.393 . S
C788 H777 0.950 . S
C788 C786 1.391 . S
C788 C789 1.400 . S
C789 C783 1.491 . S
C789 C788 1.400 . S
C789 C790 1.398 . S
C790 H778 0.950 . S
C790 C789 1.398 . S
C790 C791 1.391 . S
C791 H779 0.950 . S
C791 C787 1.393 . S
C791 C790 1.391 . S
H792 C800 0.950 . S
H793 C805 0.950 . S
H794 C802 0.950 . S
H795 C804 0.950 . S
H796 C806 0.950 . S
H797 C808 0.950 . S
H798 C810 0.950 . S
H799 C811 0.950 . S
C800 H792 0.950 . S
C800 C801 1.386 . S
C800 C802 1.391 . S
C801 C800 1.386 . S
C801 C805 1.393 . S
C802 H794 0.950 . S
C802 C800 1.391 . S
C802 C803 1.400 . S
C803 C802 1.400 . S
C803 C804 1.398 . S
C803 C809 1.491 . S
C804 H795 0.950 . S
C804 C803 1.398 . S
C804 C805 1.391 . S
C805 H793 0.950 . S
C805 C801 1.393 . S
C805 C804 1.391 . S
C806 H796 0.950 . S
C806 C807 1.386 . S
C806 C808 1.391 . S
C807 C806 1.386 . S
C807 C811 1.393 . S
C808 H797 0.950 . S
C808 C806 1.391 . S
C808 C809 1.400 . S
C809 C803 1.491 . S
C809 C808 1.400 . S
C809 C810 1.398 . S
C810 H798 0.950 . S
C810 C809 1.398 . S
C810 C811 1.391 . S
C811 H799 0.950 . S
C811 C807 1.393 . S
C811 C810 1.391 . S
H812 C820 0.950 . S
H813 C825 0.950 . S
H814 C822 0.950 . S
H815 C824 0.950 . S
H816 C826 0.950 . S
H817 C828 0.950 . S
H818 C830 0.950 . S
H819 C831 0.950 . S
C820 H812 0.950 . S
C820 C821 1.386 . S
C820 C822 1.391 . S
C821 C820 1.386 . S
C821 C825 1.393 . S
C822 H814 0.950 . S
C822 C820 1.391 . S
C822 C823 1.400 . S
C823 C822 1.400 . S
C823 C824 1.398 . S
C823 C829 1.491 . S
C824 H815 0.950 . S
C824 C823 1.398 . S
C824 C825 1.391 . S
C825 H813 0.950 . S
C825 C821 1.393 . S
C825 C824 1.391 . S
C826 H816 0.950 . S
C826 C827 1.386 . S
C826 C828 1.391 . S
C827 C826 1.386 . S
C827 C831 1.393 . S
C828 H817 0.950 . S
C828 C826 1.391 . S
C828 C829 1.400 . S
C829 C823 1.491 . S
C829 C828 1.400 . S
C829 C830 1.398 . S
C830 H818 0.950 . S
C830 C829 1.398 . S
C830 C831 1.391 . S
C831 H819 0.950 . S
C831 C827 1.393 . S
C831 C830 1.391 . S
H832 C840 0.950 . S
H833 C845 0.950 . S
H834 C842 0.950 . S
H835 C844 0.950 . S
H836 C846 0.922 1_565 S
H837 C848 0.950 . S
H838 C850 0.950 . S
H839 C851 0.950 . S
C840 H832 0.950 . S
C840 C841 1.386 . S
C840 C842 1.391 . S
C841 C840 1.386 . S
C841 C845 1.393 . S
C842 H834 0.950 . S
C842 C840 1.391 . S
C842 C843 1.400 . S
C843 C842 1.400 . S
C843 C844 1.398 . S
C843 C849 1.491 . S
C844 H835 0.950 . S
C844 C843 1.398 . S
C844 C845 1.391 . S
C845 H833 0.950 . S
C845 C841 1.393 . S
C845 C844 1.391 . S
C846 H836 0.922 1_545 S
C846 C847 1.386 . S
C846 C848 1.391 . S
C847 C846 1.386 . S
C847 C851 1.393 . S
C848 H837 0.950 . S
C848 C846 1.391 . S
C848 C849 1.400 . S
C849 C843 1.491 . S
C849 C848 1.400 . S
C849 C850 1.398 . S
C850 H838 0.950 . S
C850 C849 1.398 . S
C850 C851 1.391 . S
C851 H839 0.950 . S
C851 C847 1.393 . S
C851 C850 1.391 . S
H852 C860 0.950 . S
H853 C865 0.950 . S
H854 C862 0.950 . S
H855 C864 0.950 . S
H856 C866 0.950 . S
H857 C868 0.950 . S
H858 C870 0.950 . S
H859 C871 0.950 . S
C860 H852 0.950 . S
C860 C861 1.386 . S
C860 C862 1.391 . S
C861 C860 1.386 . S
C861 C865 1.393 . S
C862 H854 0.950 . S
C862 C860 1.391 . S
C862 C863 1.400 . S
C863 C862 1.400 . S
C863 C864 1.398 . S
C863 C869 1.491 . S
C864 H855 0.950 . S
C864 C863 1.398 . S
C864 C865 1.391 . S
C865 H853 0.950 . S
C865 C861 1.393 . S
C865 C864 1.391 . S
C866 H856 0.950 . S
C866 C867 1.386 . S
C866 C868 1.391 . S
C867 C866 1.386 . S
C867 C871 1.393 . S
C868 H857 0.950 . S
C868 C866 1.391 . S
C868 C869 1.400 . S
C869 C863 1.491 . S
C869 C868 1.400 . S
C869 C870 1.398 . S
C870 H858 0.950 . S
C870 C869 1.398 . S
C870 C871 1.391 . S
C871 H859 0.950 . S
C871 C867 1.393 . S
C871 C870 1.391 . S
H872 C880 0.950 . S
H873 C885 0.950 . S
H874 C882 0.950 . S
H875 C884 0.950 . S
H876 C886 0.950 . S
H877 C888 0.950 . S
H878 C890 0.950 . S
H879 C891 0.950 . S
C880 H872 0.950 . S
C880 C881 1.386 . S
C880 C882 1.391 . S
C881 C880 1.386 . S
C881 C885 1.393 . S
C882 H874 0.950 . S
C882 C880 1.391 . S
C882 C883 1.400 . S
C883 C882 1.400 . S
C883 C884 1.398 . S
C883 C889 1.491 . S
C884 H875 0.950 . S
C884 C883 1.398 . S
C884 C885 1.391 . S
C885 H873 0.950 . S
C885 C881 1.393 . S
C885 C884 1.391 . S
C886 H876 0.950 . S
C886 C887 1.386 . S
C886 C888 1.391 . S
C887 C886 1.386 . S
C887 C891 1.393 . S
C888 H877 0.950 . S
C888 C886 1.391 . S
C888 C889 1.400 . S
C889 C883 1.491 . S
C889 C888 1.400 . S
C889 C890 1.398 . S
C890 H878 0.950 . S
C890 C889 1.398 . S
C890 C891 1.391 . S
C891 H879 0.950 . S
C891 C887 1.393 . S
C891 C890 1.391 . S
H892 C900 0.950 . S
H893 C905 0.950 . S
H894 C902 0.950 . S
H895 C904 0.950 . S
H896 C906 0.950 . S
H897 C908 0.950 . S
H898 C910 0.950 . S
H899 C911 0.950 . S
C900 H892 0.950 . S
C900 C901 1.386 . S
C900 C902 1.391 . S
C901 C900 1.386 . S
C901 C905 1.393 . S
C902 H894 0.950 . S
C902 C900 1.391 . S
C902 C903 1.400 . S
C903 C902 1.400 . S
C903 C904 1.398 . S
C903 C909 1.491 . S
C904 H895 0.950 . S
C904 C903 1.398 . S
C904 C905 1.391 . S
C905 H893 0.950 . S
C905 C901 1.393 . S
C905 C904 1.391 . S
C906 H896 0.950 . S
C906 C907 1.386 . S
C906 C908 1.391 . S
C907 C906 1.386 . S
C907 C911 1.393 . S
C908 H897 0.950 . S
C908 C906 1.391 . S
C908 C909 1.400 . S
C909 C903 1.491 . S
C909 C908 1.400 . S
C909 C910 1.398 . S
C910 H898 0.950 . S
C910 C909 1.398 . S
C910 C911 1.391 . S
C911 H899 0.950 . S
C911 C907 1.393 . S
C911 C910 1.391 . S
H912 C920 0.950 . S
H913 C925 0.950 . S
H914 C922 0.950 . S
H915 C924 0.950 . S
H916 C926 0.950 . S
H917 C928 0.950 . S
H918 C930 0.950 . S
H919 C931 0.950 . S
C920 H912 0.950 . S
C920 C921 1.386 . S
C920 C922 1.391 . S
C921 C920 1.386 . S
C921 C925 1.393 . S
C922 H914 0.950 . S
C922 C920 1.391 . S
C922 C923 1.400 . S
C923 C922 1.400 . S
C923 C924 1.398 . S
C923 C929 1.491 . S
C924 H915 0.950 . S
C924 C923 1.398 . S
C924 C925 1.391 . S
C925 H913 0.950 . S
C925 C921 1.393 . S
C925 C924 1.391 . S
C926 H916 0.950 . S
C926 C927 1.386 . S
C926 C928 1.391 . S
C927 C926 1.386 . S
C927 C931 1.393 . S
C928 H917 0.950 . S
C928 C926 1.391 . S
C928 C929 1.400 . S
C929 C923 1.491 . S
C929 C928 1.400 . S
C929 C930 1.398 . S
C930 H918 0.950 . S
C930 C929 1.398 . S
C930 C931 1.391 . S
C931 H919 0.950 . S
C931 C927 1.393 . S
C931 C930 1.391 . S
H932 C940 0.950 . S
H933 C945 0.950 . S
H934 C942 0.950 . S
H935 C944 0.950 . S
H936 C946 0.950 . S
H937 C948 0.950 . S
H938 C950 0.950 . S
H939 C951 0.950 . S
C940 H932 0.950 . S
C940 C941 1.386 . S
C940 C942 1.391 . S
C941 C940 1.386 . S
C941 C945 1.393 . S
C942 H934 0.950 . S
C942 C940 1.391 . S
C942 C943 1.400 . S
C943 C942 1.400 . S
C943 C944 1.398 . S
C943 C949 1.491 . S
C944 H935 0.950 . S
C944 C943 1.398 . S
C944 C945 1.391 . S
C945 H933 0.950 . S
C945 C941 1.393 . S
C945 C944 1.391 . S
C946 H936 0.950 . S
C946 C947 1.386 . S
C946 C948 1.391 . S
C947 C946 1.386 . S
C947 C951 1.393 . S
C948 H937 0.950 . S
C948 C946 1.391 . S
C948 C949 1.400 . S
C949 C943 1.491 . S
C949 C948 1.400 . S
C949 C950 1.398 . S
C950 H938 0.950 . S
C950 C949 1.398 . S
C950 C951 1.391 . S
C951 H939 0.950 . S
C951 C947 1.393 . S
C951 C950 1.391 . S
H952 C960 0.950 . S
H953 C965 0.950 . S
H954 C962 0.950 . S
H955 C964 0.950 . S
H956 C966 0.950 . S
H957 C968 0.950 . S
H958 C970 0.950 . S
H959 C971 0.950 . S
C960 H952 0.950 . S
C960 C961 1.386 1_655 S
C960 C962 1.391 1_655 S
C961 C960 1.386 1_455 S
C961 C965 1.393 . S
C962 H954 0.950 . S
C962 C960 1.391 1_455 S
C962 C963 1.400 . S
C963 C962 1.400 . S
C963 C964 1.398 . S
C963 C969 1.491 . S
C964 H955 0.950 . S
C964 C963 1.398 . S
C964 C965 1.391 . S
C965 H953 0.950 . S
C965 C961 1.393 . S
C965 C964 1.391 . S
C966 H956 0.950 . S
C966 C967 1.386 . S
C966 C968 1.391 . S
C967 C966 1.386 . S
C967 C971 1.393 . S
C968 H957 0.950 . S
C968 C966 1.391 . S
C968 C969 1.400 . S
C969 C963 1.491 . S
C969 C968 1.400 . S
C969 C970 1.398 . S
C970 H958 0.950 . S
C970 C969 1.398 . S
C970 C971 1.391 . S
C971 H959 0.950 . S
C971 C967 1.393 . S
C971 C970 1.391 . S
H972 C980 0.950 . S
H973 C985 0.950 . S
H974 C982 0.950 . S
H975 C984 0.950 . S
H976 C986 0.950 . S
H977 C988 0.950 . S
H978 C990 0.950 . S
H979 C991 0.950 . S
C980 H972 0.950 . S
C980 C981 1.386 . S
C980 C982 1.391 . S
C981 C980 1.386 . S
C981 C985 1.393 . S
C982 H974 0.950 . S
C982 C980 1.391 . S
C982 C983 1.400 . S
C983 C982 1.400 . S
C983 C984 1.398 . S
C983 C989 1.491 . S
C984 H975 0.950 . S
C984 C983 1.398 . S
C984 C985 1.391 . S
C985 H973 0.950 . S
C985 C981 1.393 . S
C985 C984 1.391 . S
C986 H976 0.950 . S
C986 C987 1.386 . S
C986 C988 1.391 . S
C987 C986 1.386 . S
C987 C991 1.393 . S
C988 H977 0.950 . S
C988 C986 1.391 . S
C988 C989 1.400 . S
C989 C983 1.491 . S
C989 C988 1.400 . S
C989 C990 1.398 . S
C990 H978 0.950 . S
C990 C989 1.398 . S
C990 C991 1.391 . S
C991 H979 0.950 . S
C991 C987 1.393 . S
C991 C990 1.391 . S
H992 C1000 0.950 . S
H993 C1005 0.950 . S
H994 C1002 0.950 . S
H995 C1004 0.950 . S
H996 C1006 0.950 . S
H997 C1008 0.950 . S
H998 C1010 0.950 . S
H999 C1011 0.950 . S
C1000 H992 0.950 . S
C1000 C1001 1.386 1_455 S
C1000 C1002 1.391 . S
C1001 C1000 1.386 1_655 S
C1001 C1005 1.393 . S
C1002 H994 0.950 . S
C1002 C1000 1.391 . S
C1002 C1003 1.400 1_455 S
C1003 C1002 1.400 1_655 S
C1003 C1004 1.398 . S
C1003 C1009 1.491 1_554 S
C1004 H995 0.950 . S
C1004 C1003 1.398 . S
C1004 C1005 1.391 . S
C1005 H993 0.950 . S
C1005 C1001 1.393 . S
C1005 C1004 1.391 . S
C1006 H996 0.950 . S
C1006 C1007 1.345 1_655 S
C1006 C1008 1.391 . S
C1007 C1006 1.345 1_455 S
C1007 C1011 1.420 . S
C1008 H997 0.950 . S
C1008 C1006 1.391 . S
C1008 C1009 1.400 . S
C1009 C1003 1.491 1_556 S
C1009 C1008 1.400 . S
C1009 C1010 1.398 1_655 S
C1010 H998 0.950 . S
C1010 C1009 1.398 1_455 S
C1010 C1011 1.391 . S
C1011 H999 0.950 . S
C1011 C1007 1.420 . S
C1011 C1010 1.391 . S
H1012 C1020 0.950 . S
H1013 C1025 0.950 . S
H1014 C1022 0.950 . S
H1015 C1024 0.950 . S
H1016 C1026 0.950 . S
H1017 C1028 0.950 . S
H1018 C1030 0.950 . S
H1019 C1031 0.950 . S
C1020 H1012 0.950 . S
C1020 C1021 1.386 . S
C1020 C1022 1.391 . S
C1021 C1020 1.386 . S
C1021 C1025 1.393 . S
C1022 H1014 0.950 . S
C1022 C1020 1.391 . S
C1022 C1023 1.400 . S
C1023 C1022 1.400 . S
C1023 C1024 1.398 . S
C1023 C1029 1.491 . S
C1024 H1015 0.950 . S
C1024 C1023 1.398 . S
C1024 C1025 1.391 . S
C1025 H1013 0.950 . S
C1025 C1021 1.393 . S
C1025 C1024 1.391 . S
C1026 H1016 0.950 . S
C1026 C1027 1.386 . S
C1026 C1028 1.391 . S
C1027 C1026 1.386 . S
C1027 C1031 1.393 . S
C1028 H1017 0.950 . S
C1028 C1026 1.391 . S
C1028 C1029 1.400 . S
C1029 C1023 1.491 . S
C1029 C1028 1.400 . S
C1029 C1030 1.398 . S
C1030 H1018 0.950 . S
C1030 C1029 1.398 . S
C1030 C1031 1.391 . S
C1031 H1019 0.950 . S
C1031 C1027 1.393 . S
C1031 C1030 1.391 . S
H1032 C1040 0.926 1_655 S
H1033 C1045 0.950 . S
H1034 C1042 0.950 1_655 S
H1035 C1044 0.950 . S
H1036 C1046 0.950 . S
H1037 C1048 0.950 . S
H1038 C1050 0.922 1_654 S
H1039 C1051 0.936 1_655 S
C1040 H1032 0.926 1_455 S
C1040 C1041 1.386 . S
C1040 C1042 1.391 . S
C1041 C1040 1.386 . S
C1041 C1045 1.393 . S
C1042 H1034 0.950 1_455 S
C1042 C1040 1.391 . S
C1042 C1043 1.400 . S
C1043 C1042 1.400 . S
C1043 C1044 1.398 1_554 S
C1043 C1049 1.491 1_554 S
C1044 H1035 0.950 . S
C1044 C1043 1.398 1_556 S
C1044 C1045 1.391 1_556 S
C1045 H1033 0.950 . S
C1045 C1041 1.393 . S
C1045 C1044 1.391 1_554 S
C1046 H1036 0.950 . S
C1046 C1047 1.386 . S
C1046 C1048 1.391 . S
C1047 C1046 1.386 . S
C1047 C1051 1.403 . S
C1048 H1037 0.950 . S
C1048 C1046 1.391 . S
C1048 C1049 1.400 . S
C1049 C1043 1.491 1_556 S
C1049 C1048 1.400 . S
C1049 C1050 1.410 . S
C1050 H1038 0.922 1_456 S
C1050 C1049 1.410 . S
C1050 C1051 1.411 . S
C1051 H1039 0.936 1_455 S
C1051 C1047 1.403 . S
C1051 C1050 1.411 . S
H1052 C1060 0.950 . S
H1053 C1065 0.950 . S
H1054 C1062 0.950 . S
H1055 C1064 0.950 . S
H1056 C1066 0.950 . S
H1057 C1068 0.950 . S
H1058 C1070 0.950 . S
H1059 C1071 0.950 . S
C1060 H1052 0.950 . S
C1060 C1061 1.386 . S
C1060 C1062 1.391 . S
C1061 C1060 1.386 . S
C1061 C1065 1.393 . S
C1062 H1054 0.950 . S
C1062 C1060 1.391 . S
C1062 C1063 1.400 . S
C1063 C1062 1.400 . S
C1063 C1064 1.398 . S
C1063 C1069 1.491 . S
C1064 H1055 0.950 . S
C1064 C1063 1.398 . S
C1064 C1065 1.391 . S
C1065 H1053 0.950 . S
C1065 C1061 1.393 . S
C1065 C1064 1.391 . S
C1066 H1056 0.950 . S
C1066 C1067 1.386 . S
C1066 C1068 1.391 . S
C1067 C1066 1.386 . S
C1067 C1071 1.393 . S
C1068 H1057 0.950 . S
C1068 C1066 1.391 . S
C1068 C1069 1.400 . S
C1069 C1063 1.491 . S
C1069 C1068 1.400 . S
C1069 C1070 1.398 . S
C1070 H1058 0.950 . S
C1070 C1069 1.398 . S
C1070 C1071 1.391 . S
C1071 H1059 0.950 . S
C1071 C1067 1.393 . S
C1071 C1070 1.391 . S
H1072 C1080 0.950 . S
H1073 C1085 0.950 . S
H1074 C1082 0.950 . S
H1075 C1084 0.950 . S
H1076 C1086 0.950 . S
H1077 C1088 0.950 . S
H1078 C1090 0.950 . S
H1079 C1091 0.950 . S
C1080 H1072 0.950 . S
C1080 C1081 1.386 . S
C1080 C1082 1.391 . S
C1081 C1080 1.386 . S
C1081 C1085 1.393 . S
C1082 H1074 0.950 . S
C1082 C1080 1.391 . S
C1082 C1083 1.400 . S
C1083 C1082 1.400 . S
C1083 C1084 1.398 . S
C1083 C1089 1.491 . S
C1084 H1075 0.950 . S
C1084 C1083 1.398 . S
C1084 C1085 1.391 . S
C1085 H1073 0.950 . S
C1085 C1081 1.393 . S
C1085 C1084 1.391 . S
C1086 H1076 0.950 . S
C1086 C1087 1.386 . S
C1086 C1088 1.391 . S
C1087 C1086 1.386 . S
C1087 C1091 1.393 . S
C1088 H1077 0.950 . S
C1088 C1086 1.391 . S
C1088 C1089 1.400 . S
C1089 C1083 1.491 . S
C1089 C1088 1.400 . S
C1089 C1090 1.398 . S
C1090 H1078 0.950 . S
C1090 C1089 1.398 . S
C1090 C1091 1.391 . S
C1091 H1079 0.950 . S
C1091 C1087 1.393 . S
C1091 C1090 1.391 . S
H1092 C1100 0.950 . S
H1093 C1105 0.950 . S
H1094 C1102 0.950 . S
H1095 C1104 0.950 . S
H1096 C1106 0.950 . S
H1097 C1108 0.950 . S
H1098 C1110 0.950 . S
H1099 C1111 0.950 . S
C1100 H1092 0.950 . S
C1100 C1101 1.386 . S
C1100 C1102 1.391 . S
C1101 C1100 1.386 . S
C1101 C1105 1.393 . S
C1102 H1094 0.950 . S
C1102 C1100 1.391 . S
C1102 C1103 1.400 . S
C1103 C1102 1.400 . S
C1103 C1104 1.398 . S
C1103 C1109 1.491 . S
C1104 H1095 0.950 . S
C1104 C1103 1.398 . S
C1104 C1105 1.391 . S
C1105 H1093 0.950 . S
C1105 C1101 1.393 . S
C1105 C1104 1.391 . S
C1106 H1096 0.950 . S
C1106 C1107 1.386 . S
C1106 C1108 1.391 . S
C1107 C1106 1.386 . S
C1107 C1111 1.393 . S
C1108 H1097 0.950 . S
C1108 C1106 1.391 . S
C1108 C1109 1.400 . S
C1109 C1103 1.491 . S
C1109 C1108 1.400 . S
C1109 C1110 1.398 . S
C1110 H1098 0.950 . S
C1110 C1109 1.398 . S
C1110 C1111 1.391 . S
C1111 H1099 0.950 . S
C1111 C1107 1.393 . S
C1111 C1110 1.391 . S
H1112 C1120 0.950 . S
H1113 C1125 0.950 . S
H1114 C1122 0.950 . S
H1115 C1124 0.950 . S
H1116 C1126 0.950 . S
H1117 C1128 0.950 . S
H1118 C1130 0.950 . S
H1119 C1131 0.950 . S
C1120 H1112 0.950 . S
C1120 C1121 1.386 . S
C1120 C1122 1.391 . S
C1121 C1120 1.386 . S
C1121 C1125 1.393 . S
C1122 H1114 0.950 . S
C1122 C1120 1.391 . S
C1122 C1123 1.400 . S
C1123 C1122 1.400 . S
C1123 C1124 1.398 . S
C1123 C1129 1.491 . S
C1124 H1115 0.950 . S
C1124 C1123 1.398 . S
C1124 C1125 1.391 . S
C1125 H1113 0.950 . S
C1125 C1121 1.393 . S
C1125 C1124 1.391 . S
C1126 H1116 0.950 . S
C1126 C1127 1.386 . S
C1126 C1128 1.391 . S
C1127 C1126 1.386 . S
C1127 C1131 1.393 . S
C1128 H1117 0.950 . S
C1128 C1126 1.391 . S
C1128 C1129 1.400 . S
C1129 C1123 1.491 . S
C1129 C1128 1.400 . S
C1129 C1130 1.398 . S
C1130 H1118 0.950 . S
C1130 C1129 1.398 . S
C1130 C1131 1.391 . S
C1131 H1119 0.950 . S
C1131 C1127 1.393 . S
C1131 C1130 1.391 . S
H1132 C1140 0.950 . S
H1133 C1145 0.950 . S
H1134 C1142 0.950 . S
H1135 C1144 0.950 . S
H1136 C1146 0.950 . S
H1137 C1148 0.950 . S
H1138 C1150 0.950 . S
H1139 C1151 0.950 . S
C1140 H1132 0.950 . S
C1140 C1141 1.386 . S
C1140 C1142 1.391 . S
C1141 C1140 1.386 . S
C1141 C1145 1.393 . S
C1142 H1134 0.950 . S
C1142 C1140 1.391 . S
C1142 C1143 1.400 . S
C1143 C1142 1.400 . S
C1143 C1144 1.398 . S
C1143 C1149 1.491 . S
C1144 H1135 0.950 . S
C1144 C1143 1.398 . S
C1144 C1145 1.391 . S
C1145 H1133 0.950 . S
C1145 C1141 1.393 . S
C1145 C1144 1.391 . S
C1146 H1136 0.950 . S
C1146 C1147 1.386 . S
C1146 C1148 1.391 . S
C1147 C1146 1.386 . S
C1147 C1151 1.393 . S
C1148 H1137 0.950 . S
C1148 C1146 1.391 . S
C1148 C1149 1.400 . S
C1149 C1143 1.491 . S
C1149 C1148 1.400 . S
C1149 C1150 1.398 . S
C1150 H1138 0.950 . S
C1150 C1149 1.398 . S
C1150 C1151 1.391 . S
C1151 H1139 0.950 . S
C1151 C1147 1.393 . S
C1151 C1150 1.391 . S
H1152 C1160 0.950 . S
H1153 C1165 0.950 . S
H1154 C1162 0.950 . S
H1155 C1164 0.950 . S
H1156 C1166 0.950 . S
H1157 C1168 0.950 . S
H1158 C1170 0.950 . S
H1159 C1171 0.950 . S
C1160 H1152 0.950 . S
C1160 C1161 1.386 . S
C1160 C1162 1.391 . S
C1161 C1160 1.386 . S
C1161 C1165 1.393 . S
C1162 H1154 0.950 . S
C1162 C1160 1.391 . S
C1162 C1163 1.400 . S
C1163 C1162 1.400 . S
C1163 C1164 1.398 . S
C1163 C1169 1.491 . S
C1164 H1155 0.950 . S
C1164 C1163 1.398 . S
C1164 C1165 1.391 . S
C1165 H1153 0.950 . S
C1165 C1161 1.393 . S
C1165 C1164 1.391 . S
C1166 H1156 0.950 . S
C1166 C1167 1.386 . S
C1166 C1168 1.391 . S
C1167 C1166 1.386 . S
C1167 C1171 1.393 . S
C1168 H1157 0.950 . S
C1168 C1166 1.391 . S
C1168 C1169 1.400 . S
C1169 C1163 1.491 . S
C1169 C1168 1.400 . S
C1169 C1170 1.398 . S
C1170 H1158 0.950 . S
C1170 C1169 1.398 . S
C1170 C1171 1.391 . S
C1171 H1159 0.950 . S
C1171 C1167 1.393 . S
C1171 C1170 1.391 . S
H1172 C1180 0.950 . S
H1173 C1185 0.950 . S
H1174 C1182 0.950 . S
H1175 C1184 0.950 . S
H1176 C1186 0.950 . S
H1177 C1188 0.950 . S
H1178 C1190 0.950 . S
H1179 C1191 0.950 . S
C1180 H1172 0.950 . S
C1180 C1181 1.386 . S
C1180 C1182 1.391 . S
C1181 C1180 1.386 . S
C1181 C1185 1.393 . S
C1182 H1174 0.950 . S
C1182 C1180 1.391 . S
C1182 C1183 1.400 . S
C1183 C1182 1.400 . S
C1183 C1184 1.398 . S
C1183 C1189 1.491 . S
C1184 H1175 0.950 . S
C1184 C1183 1.398 . S
C1184 C1185 1.391 . S
C1185 H1173 0.950 . S
C1185 C1181 1.393 . S
C1185 C1184 1.391 . S
C1186 H1176 0.950 . S
C1186 C1187 1.386 . S
C1186 C1188 1.391 . S
C1187 C1186 1.386 . S
C1187 C1191 1.393 . S
C1188 H1177 0.950 . S
C1188 C1186 1.391 . S
C1188 C1189 1.400 . S
C1189 C1183 1.491 . S
C1189 C1188 1.400 . S
C1189 C1190 1.398 . S
C1190 H1178 0.950 . S
C1190 C1189 1.398 . S
C1190 C1191 1.391 . S
C1191 H1179 0.950 . S
C1191 C1187 1.393 . S
C1191 C1190 1.391 . S
H1192 C1200 0.950 . S
H1193 C1205 0.950 . S
H1194 C1202 0.950 . S
H1195 C1204 0.950 . S
H1196 C1206 0.950 . S
H1197 C1208 0.950 . S
H1198 C1210 0.950 . S
H1199 C1211 0.950 . S
C1200 H1192 0.950 . S
C1200 C1201 1.386 . S
C1200 C1202 1.391 . S
C1201 C1200 1.386 . S
C1201 C1205 1.393 . S
C1202 H1194 0.950 . S
C1202 C1200 1.391 . S
C1202 C1203 1.400 . S
C1203 C1202 1.400 . S
C1203 C1204 1.398 . S
C1203 C1209 1.491 . S
C1204 H1195 0.950 . S
C1204 C1203 1.398 . S
C1204 C1205 1.391 . S
C1205 H1193 0.950 . S
C1205 C1201 1.393 . S
C1205 C1204 1.391 . S
C1206 H1196 0.950 . S
C1206 C1207 1.386 . S
C1206 C1208 1.391 . S
C1207 C1206 1.386 . S
C1207 C1211 1.393 . S
C1208 H1197 0.950 . S
C1208 C1206 1.391 . S
C1208 C1209 1.400 . S
C1209 C1203 1.491 . S
C1209 C1208 1.400 . S
C1209 C1210 1.398 . S
C1210 H1198 0.950 . S
C1210 C1209 1.398 . S
C1210 C1211 1.391 . S
C1211 H1199 0.950 . S
C1211 C1207 1.393 . S
C1211 C1210 1.391 . S
H1212 C1220 0.950 . S
H1213 C1225 0.950 . S
H1214 C1222 0.950 1_554 S
H1215 C1224 0.950 . S
H1216 C1226 0.950 . S
H1217 C1228 0.950 . S
H1218 C1230 0.950 1_554 S
H1219 C1231 0.950 . S
C1220 H1212 0.950 . S
C1220 C1221 1.386 . S
C1220 C1222 1.391 . S
C1221 C1220 1.386 . S
C1221 C1225 1.393 . S
C1222 H1214 0.950 1_556 S
C1222 C1220 1.391 . S
C1222 C1223 1.400 . S
C1223 C1222 1.400 . S
C1223 C1224 1.398 . S
C1223 C1229 1.491 . S
C1224 H1215 0.950 . S
C1224 C1223 1.398 . S
C1224 C1225 1.391 . S
C1225 H1213 0.950 . S
C1225 C1221 1.393 . S
C1225 C1224 1.391 . S
C1226 H1216 0.950 . S
C1226 C1227 1.386 . S
C1226 C1228 1.391 . S
C1227 C1226 1.386 . S
C1227 C1231 1.393 1_556 S
C1228 H1217 0.950 . S
C1228 C1226 1.391 . S
C1228 C1229 1.400 . S
C1229 C1223 1.491 . S
C1229 C1228 1.400 . S
C1229 C1230 1.398 . S
C1230 H1218 0.950 1_556 S
C1230 C1229 1.398 . S
C1230 C1231 1.391 1_556 S
C1231 H1219 0.950 . S
C1231 C1227 1.393 1_554 S
C1231 C1230 1.391 1_554 S
H1232 C1240 0.950 . S
H1233 C1245 0.950 . S
H1234 C1242 0.950 . S
H1235 C1244 0.950 . S
H1236 C1246 0.950 . S
H1237 C1248 0.950 . S
H1238 C1250 0.950 . S
H1239 C1251 0.950 . S
C1240 H1232 0.950 . S
C1240 C1241 1.386 . S
C1240 C1242 1.391 . S
C1241 C1240 1.386 . S
C1241 C1245 1.393 . S
C1242 H1234 0.950 . S
C1242 C1240 1.391 . S
C1242 C1243 1.400 . S
C1243 C1242 1.400 . S
C1243 C1244 1.398 . S
C1243 C1249 1.491 . S
C1244 H1235 0.950 . S
C1244 C1243 1.398 . S
C1244 C1245 1.391 . S
C1245 H1233 0.950 . S
C1245 C1241 1.393 . S
C1245 C1244 1.391 . S
C1246 H1236 0.950 . S
C1246 C1247 1.386 . S
C1246 C1248 1.391 . S
C1247 C1246 1.386 . S
C1247 C1251 1.393 . S
C1248 H1237 0.950 . S
C1248 C1246 1.391 . S
C1248 C1249 1.400 . S
C1249 C1243 1.491 . S
C1249 C1248 1.400 . S
C1249 C1250 1.398 . S
C1250 H1238 0.950 . S
C1250 C1249 1.398 . S
C1250 C1251 1.391 . S
C1251 H1239 0.950 . S
C1251 C1247 1.393 . S
C1251 C1250 1.391 . S
H1252 C1260 0.950 . S
H1253 C1265 0.950 . S
H1254 C1262 0.950 . S
H1255 C1264 0.950 . S
H1256 C1266 0.950 . S
H1257 C1268 0.950 . S
H1258 C1270 0.950 . S
H1259 C1271 0.950 1_556 S
C1260 H1252 0.950 . S
C1260 C1261 1.386 . S
C1260 C1262 1.391 . S
C1261 C1260 1.386 . S
C1261 C1265 1.393 . S
C1262 H1254 0.950 . S
C1262 C1260 1.391 . S
C1262 C1263 1.400 . S
C1263 C1262 1.400 . S
C1263 C1264 1.398 . S
C1263 C1269 1.491 . S
C1264 H1255 0.950 . S
C1264 C1263 1.398 . S
C1264 C1265 1.391 . S
C1265 H1253 0.950 . S
C1265 C1261 1.393 . S
C1265 C1264 1.391 . S
C1266 H1256 0.950 . S
C1266 C1267 1.386 . S
C1266 C1268 1.391 . S
C1267 C1266 1.386 . S
C1267 C1271 1.393 . S
C1268 H1257 0.950 . S
C1268 C1266 1.391 . S
C1268 C1269 1.400 . S
C1269 C1263 1.491 . S
C1269 C1268 1.400 . S
C1269 C1270 1.398 . S
C1270 H1258 0.950 . S
C1270 C1269 1.398 . S
C1270 C1271 1.391 . S
C1271 H1259 0.950 1_554 S
C1271 C1267 1.393 . S
C1271 C1270 1.391 . S
H1272 C1280 0.949 1_545 S
H1273 C1285 0.950 . S
H1274 C1282 0.950 . S
H1275 C1284 0.963 . S
H1276 C1286 0.950 1_556 S
H1277 C1288 0.950 1_556 S
H1278 C1290 0.950 . S
H1279 C1291 0.950 . S
C1280 H1272 0.949 1_565 S
C1280 C1281 1.386 . S
C1280 C1282 1.391 . S
C1281 C1280 1.386 . S
C1281 C1285 1.393 . S
C1282 H1274 0.950 . S
C1282 C1280 1.391 . S
C1282 C1283 1.400 . S
C1283 C1282 1.400 . S
C1283 C1284 1.398 . S
C1283 C1289 1.491 . S
C1284 H1275 0.963 . S
C1284 C1283 1.398 . S
C1284 C1285 1.391 . S
C1285 H1273 0.950 . S
C1285 C1281 1.393 . S
C1285 C1284 1.391 . S
C1286 H1276 0.950 1_554 S
C1286 C1287 1.386 . S
C1286 C1288 1.391 . S
C1287 C1286 1.386 . S
C1287 C1291 1.393 . S
C1288 H1277 0.950 1_554 S
C1288 C1286 1.391 . S
C1288 C1289 1.400 . S
C1289 C1283 1.491 . S
C1289 C1288 1.400 . S
C1289 C1290 1.398 . S
C1290 H1278 0.950 . S
C1290 C1289 1.398 . S
C1290 C1291 1.391 . S
C1291 H1279 0.950 . S
C1291 C1287 1.393 . S
C1291 C1290 1.391 . S
C347 C186 1.088 . S
C341 C62 1.089 . S
C367 C199 1.646 . S
C361 C73 1.604 1_455 S
C381 C84 1.459 . S
C387 C212 1.512 . S
C407 C225 1.287 . S
C401 C49 1.110 . S
C427 C233 1.370 . S
C421 C118 1.379 . S
C447 C246 1.539 . S
C441 C137 1.321 . S
C461 C129 1.563 . S
C467 C259 1.547 . S
C487 C272 1.859 . S
C481 C106 1.820 . S
C501 C128 1.744 . S
C507 C290 1.775 . S
C527 C301 1.647 . S
C521 C104 1.473 . S
C541 C115 1.524 . S
C547 C285 1.738 . S
C567 C293 1.705 . S
C561 C139 1.694 . S
C581 C85 1.572 . S
C587 C316 1.571 . S
C601 C52 1.201 . S
C607 C306 1.196 . S
C621 C60 0.966 . S
C627 C311 1.010 . S
C641 C71 1.485 1_655 S
C647 C314 1.562 . S
C661 C40 1.641 . S
C667 C223 1.700 . S
C681 C162 1.062 . S
C687 C215 1.048 . S
C707 C184 1.158 . S
C701 C173 1.190 . S
C727 C189 1.757 . S
C721 C93 1.553 . S
C741 C51 1.450 . S
C747 C236 1.465 . S
C767 C275 1.517 . S
C761 C126 1.353 . S
C787 C228 1.755 . S
C781 C107 1.762 . S
C807 C254 1.551 . S
C801 C140 1.556 . S
C827 C264 1.109 . S
C821 C161 1.089 . S
C841 C172 1.603 . S
C847 C277 1.641 . S
C861 C95 1.452 . S
C867 C238 1.517 . S
C887 C251 1.300 . S
C881 C148 1.152 . S
C901 C41 1.366 . S
C907 C207 1.358 . S
C927 C220 1.540 . S
C921 C5 1.322 . S
C947 C181 1.553 . S
C941 C19 1.559 . S
C967 C194 1.850 . S
C961 C29 1.835 1_455 S
C981 C18 1.730 . S
C987 C303 1.767 . S
C1001 C27 1.487 . S
C1007 C288 1.648 . S
C1021 C38 1.521 . S
C1027 C298 1.736 . S
C1041 C7 1.673 . S
C1047 C280 1.683 . S
C1067 C329 1.561 . S
C1061 C96 1.580 . S
C1087 C319 1.175 . S
C1081 C151 1.211 . S
C1107 C324 1.008 . S
C1101 C159 0.965 . S
C1121 C170 1.476 . S
C1127 C327 1.573 . S
C1141 C117 1.621 . S
C1147 C249 1.702 . S
C1167 C241 1.034 . S
C1161 C63 1.059 . S
C1187 C262 1.154 . S
C1181 C74 1.194 . S
C1207 C267 1.753 . S
C1201 C82 1.588 . S
C1221 C150 1.430 . S
C1227 C210 1.469 1_556 S
C1247 C197 1.511 . S
C1241 C16 1.391 . S
C1261 C30 1.763 . S
C1267 C202 1.753 . S
C1287 C176 1.552 . S
C1281 C8 1.557 1_565 S
