# Generated by pormake.
# Topology ibd, (4,6)-cn, num edge types: 1
# Building blocks:
#     Node 0, Type 0, BuildingBlock: KUFVIS_clean_sbu_0, # of connection points: 4
#     Node 1, Type 0, BuildingBlock: KUFVIS_clean_sbu_0, # of connection points: 4
#     Node 2, Type 0, BuildingBlock: KUFVIS_clean_sbu_0, # of connection points: 4
#     Node 3, Type 0, BuildingBlock: KUFVIS_clean_sbu_0, # of connection points: 4
#     Node 4, Type 0, BuildingBlock: KUFVIS_clean_sbu_0, # of connection points: 4
#     Node 5, Type 0, BuildingBlock: KUFVIS_clean_sbu_0, # of connection points: 4
#     Node 6, Type 0, BuildingBlock: KUFVIS_clean_sbu_0, # of connection points: 4
#     Node 7, Type 0, BuildingBlock: KUFVIS_clean_sbu_0, # of connection points: 4
#     Node 8, Type 0, BuildingBlock: KUFVIS_clean_sbu_0, # of connection points: 4
#     Node 9, Type 0, BuildingBlock: KUFVIS_clean_sbu_0, # of connection points: 4
#     Node 10, Type 0, BuildingBlock: KUFVIS_clean_sbu_0, # of connection points: 4
#     Node 11, Type 0, BuildingBlock: KUFVIS_clean_sbu_0, # of connection points: 4
#     Node 12, Type 0, BuildingBlock: KUFVIS_clean_sbu_0, # of connection points: 4
#     Node 13, Type 0, BuildingBlock: KUFVIS_clean_sbu_0, # of connection points: 4
#     Node 14, Type 0, BuildingBlock: KUFVIS_clean_sbu_0, # of connection points: 4
#     Node 15, Type 0, BuildingBlock: KUFVIS_clean_sbu_0, # of connection points: 4
#     Node 16, Type 0, BuildingBlock: KUFVIS_clean_sbu_0, # of connection points: 4
#     Node 17, Type 0, BuildingBlock: KUFVIS_clean_sbu_0, # of connection points: 4
#     Node 18, Type 0, BuildingBlock: KUFVIS_clean_sbu_0, # of connection points: 4
#     Node 19, Type 0, BuildingBlock: KUFVIS_clean_sbu_0, # of connection points: 4
#     Node 20, Type 0, BuildingBlock: KUFVIS_clean_sbu_0, # of connection points: 4
#     Node 21, Type 0, BuildingBlock: KUFVIS_clean_sbu_0, # of connection points: 4
#     Node 22, Type 0, BuildingBlock: KUFVIS_clean_sbu_0, # of connection points: 4
#     Node 23, Type 0, BuildingBlock: KUFVIS_clean_sbu_0, # of connection points: 4
#     Node 24, Type 1, BuildingBlock: IZENUY_clean_sbu_0, # of connection points: 6
#     Node 25, Type 1, BuildingBlock: IZENUY_clean_sbu_0, # of connection points: 6
#     Node 26, Type 1, BuildingBlock: IZENUY_clean_sbu_0, # of connection points: 6
#     Node 27, Type 1, BuildingBlock: IZENUY_clean_sbu_0, # of connection points: 6
#     Node 28, Type 1, BuildingBlock: IZENUY_clean_sbu_0, # of connection points: 6
#     Node 29, Type 1, BuildingBlock: IZENUY_clean_sbu_0, # of connection points: 6
#     Node 30, Type 1, BuildingBlock: IZENUY_clean_sbu_0, # of connection points: 6
#     Node 31, Type 1, BuildingBlock: IZENUY_clean_sbu_0, # of connection points: 6
#     Node 32, Type 1, BuildingBlock: IZENUY_clean_sbu_0, # of connection points: 6
#     Node 33, Type 1, BuildingBlock: IZENUY_clean_sbu_0, # of connection points: 6
#     Node 34, Type 1, BuildingBlock: IZENUY_clean_sbu_0, # of connection points: 6
#     Node 35, Type 1, BuildingBlock: IZENUY_clean_sbu_0, # of connection points: 6
#     Node 36, Type 1, BuildingBlock: IZENUY_clean_sbu_0, # of connection points: 6
#     Node 37, Type 1, BuildingBlock: IZENUY_clean_sbu_0, # of connection points: 6
#     Node 38, Type 1, BuildingBlock: IZENUY_clean_sbu_0, # of connection points: 6
#     Node 39, Type 1, BuildingBlock: IZENUY_clean_sbu_0, # of connection points: 6
#     Edge 40, Type (0, 1), BuildingBlock: XIVTED_clean_linker_0, # of connection points: 2
#     Edge 41, Type (0, 1), BuildingBlock: XIVTED_clean_linker_0, # of connection points: 2
#     Edge 42, Type (0, 1), BuildingBlock: XIVTED_clean_linker_0, # of connection points: 2
#     Edge 43, Type (0, 1), BuildingBlock: XIVTED_clean_linker_0, # of connection points: 2
#     Edge 44, Type (0, 1), BuildingBlock: XIVTED_clean_linker_0, # of connection points: 2
#     Edge 45, Type (0, 1), BuildingBlock: XIVTED_clean_linker_0, # of connection points: 2
#     Edge 46, Type (0, 1), BuildingBlock: XIVTED_clean_linker_0, # of connection points: 2
#     Edge 47, Type (0, 1), BuildingBlock: XIVTED_clean_linker_0, # of connection points: 2
#     Edge 48, Type (0, 1), BuildingBlock: XIVTED_clean_linker_0, # of connection points: 2
#     Edge 49, Type (0, 1), BuildingBlock: XIVTED_clean_linker_0, # of connection points: 2
#     Edge 50, Type (0, 1), BuildingBlock: XIVTED_clean_linker_0, # of connection points: 2
#     Edge 51, Type (0, 1), BuildingBlock: XIVTED_clean_linker_0, # of connection points: 2
#     Edge 52, Type (0, 1), BuildingBlock: XIVTED_clean_linker_0, # of connection points: 2
#     Edge 53, Type (0, 1), BuildingBlock: XIVTED_clean_linker_0, # of connection points: 2
#     Edge 54, Type (0, 1), BuildingBlock: XIVTED_clean_linker_0, # of connection points: 2
#     Edge 55, Type (0, 1), BuildingBlock: XIVTED_clean_linker_0, # of connection points: 2
#     Edge 56, Type (0, 1), BuildingBlock: XIVTED_clean_linker_0, # of connection points: 2
#     Edge 57, Type (0, 1), BuildingBlock: XIVTED_clean_linker_0, # of connection points: 2
#     Edge 58, Type (0, 1), BuildingBlock: XIVTED_clean_linker_0, # of connection points: 2
#     Edge 59, Type (0, 1), BuildingBlock: XIVTED_clean_linker_0, # of connection points: 2
#     Edge 60, Type (0, 1), BuildingBlock: XIVTED_clean_linker_0, # of connection points: 2
#     Edge 61, Type (0, 1), BuildingBlock: XIVTED_clean_linker_0, # of connection points: 2
#     Edge 62, Type (0, 1), BuildingBlock: XIVTED_clean_linker_0, # of connection points: 2
#     Edge 63, Type (0, 1), BuildingBlock: XIVTED_clean_linker_0, # of connection points: 2
#     Edge 64, Type (0, 1), BuildingBlock: XIVTED_clean_linker_0, # of connection points: 2
#     Edge 65, Type (0, 1), BuildingBlock: XIVTED_clean_linker_0, # of connection points: 2
#     Edge 66, Type (0, 1), BuildingBlock: XIVTED_clean_linker_0, # of connection points: 2
#     Edge 67, Type (0, 1), BuildingBlock: XIVTED_clean_linker_0, # of connection points: 2
#     Edge 68, Type (0, 1), BuildingBlock: XIVTED_clean_linker_0, # of connection points: 2
#     Edge 69, Type (0, 1), BuildingBlock: XIVTED_clean_linker_0, # of connection points: 2
#     Edge 70, Type (0, 1), BuildingBlock: XIVTED_clean_linker_0, # of connection points: 2
#     Edge 71, Type (0, 1), BuildingBlock: XIVTED_clean_linker_0, # of connection points: 2
#     Edge 72, Type (0, 1), BuildingBlock: XIVTED_clean_linker_0, # of connection points: 2
#     Edge 73, Type (0, 1), BuildingBlock: XIVTED_clean_linker_0, # of connection points: 2
#     Edge 74, Type (0, 1), BuildingBlock: XIVTED_clean_linker_0, # of connection points: 2
#     Edge 75, Type (0, 1), BuildingBlock: XIVTED_clean_linker_0, # of connection points: 2
#     Edge 76, Type (0, 1), BuildingBlock: XIVTED_clean_linker_0, # of connection points: 2
#     Edge 77, Type (0, 1), BuildingBlock: XIVTED_clean_linker_0, # of connection points: 2
#     Edge 78, Type (0, 1), BuildingBlock: XIVTED_clean_linker_0, # of connection points: 2
#     Edge 79, Type (0, 1), BuildingBlock: XIVTED_clean_linker_0, # of connection points: 2
#     Edge 80, Type (0, 1), BuildingBlock: XIVTED_clean_linker_0, # of connection points: 2
#     Edge 81, Type (0, 1), BuildingBlock: XIVTED_clean_linker_0, # of connection points: 2
#     Edge 82, Type (0, 1), BuildingBlock: XIVTED_clean_linker_0, # of connection points: 2
#     Edge 83, Type (0, 1), BuildingBlock: XIVTED_clean_linker_0, # of connection points: 2
#     Edge 84, Type (0, 1), BuildingBlock: XIVTED_clean_linker_0, # of connection points: 2
#     Edge 85, Type (0, 1), BuildingBlock: XIVTED_clean_linker_0, # of connection points: 2
#     Edge 86, Type (0, 1), BuildingBlock: XIVTED_clean_linker_0, # of connection points: 2
#     Edge 87, Type (0, 1), BuildingBlock: XIVTED_clean_linker_0, # of connection points: 2
#     Edge 88, Type (0, 1), BuildingBlock: XIVTED_clean_linker_0, # of connection points: 2
#     Edge 89, Type (0, 1), BuildingBlock: XIVTED_clean_linker_0, # of connection points: 2
#     Edge 90, Type (0, 1), BuildingBlock: XIVTED_clean_linker_0, # of connection points: 2
#     Edge 91, Type (0, 1), BuildingBlock: XIVTED_clean_linker_0, # of connection points: 2
#     Edge 92, Type (0, 1), BuildingBlock: XIVTED_clean_linker_0, # of connection points: 2
#     Edge 93, Type (0, 1), BuildingBlock: XIVTED_clean_linker_0, # of connection points: 2
#     Edge 94, Type (0, 1), BuildingBlock: XIVTED_clean_linker_0, # of connection points: 2
#     Edge 95, Type (0, 1), BuildingBlock: XIVTED_clean_linker_0, # of connection points: 2
#     Edge 96, Type (0, 1), BuildingBlock: XIVTED_clean_linker_0, # of connection points: 2
#     Edge 97, Type (0, 1), BuildingBlock: XIVTED_clean_linker_0, # of connection points: 2
#     Edge 98, Type (0, 1), BuildingBlock: XIVTED_clean_linker_0, # of connection points: 2
#     Edge 99, Type (0, 1), BuildingBlock: XIVTED_clean_linker_0, # of connection points: 2
#     Edge 100, Type (0, 1), BuildingBlock: XIVTED_clean_linker_0, # of connection points: 2
#     Edge 101, Type (0, 1), BuildingBlock: XIVTED_clean_linker_0, # of connection points: 2
#     Edge 102, Type (0, 1), BuildingBlock: XIVTED_clean_linker_0, # of connection points: 2
#     Edge 103, Type (0, 1), BuildingBlock: XIVTED_clean_linker_0, # of connection points: 2
#     Edge 104, Type (0, 1), BuildingBlock: XIVTED_clean_linker_0, # of connection points: 2
#     Edge 105, Type (0, 1), BuildingBlock: XIVTED_clean_linker_0, # of connection points: 2
#     Edge 106, Type (0, 1), BuildingBlock: XIVTED_clean_linker_0, # of connection points: 2
#     Edge 107, Type (0, 1), BuildingBlock: XIVTED_clean_linker_0, # of connection points: 2
#     Edge 108, Type (0, 1), BuildingBlock: XIVTED_clean_linker_0, # of connection points: 2
#     Edge 109, Type (0, 1), BuildingBlock: XIVTED_clean_linker_0, # of connection points: 2
#     Edge 110, Type (0, 1), BuildingBlock: XIVTED_clean_linker_0, # of connection points: 2
#     Edge 111, Type (0, 1), BuildingBlock: XIVTED_clean_linker_0, # of connection points: 2
#     Edge 112, Type (0, 1), BuildingBlock: XIVTED_clean_linker_0, # of connection points: 2
#     Edge 113, Type (0, 1), BuildingBlock: XIVTED_clean_linker_0, # of connection points: 2
#     Edge 114, Type (0, 1), BuildingBlock: XIVTED_clean_linker_0, # of connection points: 2
#     Edge 115, Type (0, 1), BuildingBlock: XIVTED_clean_linker_0, # of connection points: 2
#     Edge 116, Type (0, 1), BuildingBlock: XIVTED_clean_linker_0, # of connection points: 2
#     Edge 117, Type (0, 1), BuildingBlock: XIVTED_clean_linker_0, # of connection points: 2
#     Edge 118, Type (0, 1), BuildingBlock: XIVTED_clean_linker_0, # of connection points: 2
#     Edge 119, Type (0, 1), BuildingBlock: XIVTED_clean_linker_0, # of connection points: 2
#     Edge 120, Type (0, 1), BuildingBlock: XIVTED_clean_linker_0, # of connection points: 2
#     Edge 121, Type (0, 1), BuildingBlock: XIVTED_clean_linker_0, # of connection points: 2
#     Edge 122, Type (0, 1), BuildingBlock: XIVTED_clean_linker_0, # of connection points: 2
#     Edge 123, Type (0, 1), BuildingBlock: XIVTED_clean_linker_0, # of connection points: 2
#     Edge 124, Type (0, 1), BuildingBlock: XIVTED_clean_linker_0, # of connection points: 2
#     Edge 125, Type (0, 1), BuildingBlock: XIVTED_clean_linker_0, # of connection points: 2
#     Edge 126, Type (0, 1), BuildingBlock: XIVTED_clean_linker_0, # of connection points: 2
#     Edge 127, Type (0, 1), BuildingBlock: XIVTED_clean_linker_0, # of connection points: 2
#     Edge 128, Type (0, 1), BuildingBlock: XIVTED_clean_linker_0, # of connection points: 2
#     Edge 129, Type (0, 1), BuildingBlock: XIVTED_clean_linker_0, # of connection points: 2
#     Edge 130, Type (0, 1), BuildingBlock: XIVTED_clean_linker_0, # of connection points: 2
#     Edge 131, Type (0, 1), BuildingBlock: XIVTED_clean_linker_0, # of connection points: 2
#     Edge 132, Type (0, 1), BuildingBlock: XIVTED_clean_linker_0, # of connection points: 2
#     Edge 133, Type (0, 1), BuildingBlock: XIVTED_clean_linker_0, # of connection points: 2
#     Edge 134, Type (0, 1), BuildingBlock: XIVTED_clean_linker_0, # of connection points: 2
#     Edge 135, Type (0, 1), BuildingBlock: XIVTED_clean_linker_0, # of connection points: 2
# Relax obj value: 0.306
# Max RMSD: 0.286
# Mean RMSD: 0.260
data_MOF--net-ibd--node1-KUFVIS_clean_sbu_0--node2-IZENUY_clean_sbu_0--edge1-XIVTED_clean_linker_0
_symmetry_space_group_name_H-M    P1
_symmetry_Int_Tables_number       1
_symmetry_cell_setting            triclinic
loop_
_symmetry_equiv_pos_as_xyz
'x, y, z'
_cell_length_a     48.827499
_cell_length_b     48.83253
_cell_length_c     48.829531
_cell_angle_alpha  91.268618
_cell_angle_beta   91.257507
_cell_angle_gamma 91.258672
loop_
_atom_site_label
_atom_site_type_symbol
_atom_site_fract_x
_atom_site_fract_y
_atom_site_fract_z
_atom_type_partial_charge
Mn0 Mn 0.00034 0.23761 0.38234 0.0
Mn1 Mn 0.03568 0.29686 0.3749 0.0
C2 C 0.02657 0.25613 0.41821 0.0
C3 C 0.96134 0.21356 0.3945 0.0
C4 C 0.05168 0.24267 0.34887 0.0
O5 O 0.98203 0.25412 0.34878 0.0
O6 O 0.00348 0.29567 0.34958 0.0
C7 C 0.99511 0.33612 0.3954 0.0
N8 N 0.02059 0.32539 0.39695 0.0
C9 C 0.03386 0.35618 0.43431 0.0
C10 C 0.00785 0.36775 0.43292 0.0
C11 C 0.98837 0.3576 0.41345 0.0
C12 C 0.03941 0.33483 0.41577 0.0
H13 H 0.98002 0.32827 0.38059 0.0
C14 C 0.98494 0.27864 0.34039 0.0
O15 O 0.97894 0.20269 0.3782 0.0
O16 O 0.96561 0.23889 0.40235 0.0
N17 N 0.06705 0.3003 0.39908 0.0
C18 C 0.09055 0.28576 0.39889 0.0
C19 C 0.11187 0.29279 0.41769 0.0
C20 C 0.1089 0.31478 0.43634 0.0
C21 C 0.08458 0.32953 0.43606 0.0
C22 C 0.06408 0.32165 0.41679 0.0
H23 H 0.09301 0.26891 0.38454 0.0
O24 O 0.02033 0.23017 0.41763 0.0
O25 O 0.01764 0.27002 0.39775 0.0
O26 O 0.03372 0.22802 0.36048 0.0
O27 O 0.05337 0.26874 0.35168 0.0
C28 C 0.0797 0.35142 0.45447 0.0
C29 C 0.05431 0.36464 0.45369 0.0
H30 H 0.00253 0.38424 0.44688 0.0
H31 H 0.96818 0.36628 0.41239 0.0
H32 H 0.13056 0.28127 0.41781 0.0
H33 H 0.12532 0.32002 0.45093 0.0
H34 H 0.09516 0.35794 0.46962 0.0
H35 H 0.05061 0.38109 0.46829 0.0
Mn36 Mn 0.0161 0.72838 0.62566 0.0
Mn37 Mn 0.98016 0.67382 0.64791 0.0
C38 C 0.00735 0.69059 0.59723 0.0
C39 C 0.02029 0.7698 0.60355 0.0
C40 C 0.03843 0.68758 0.66648 0.0
O41 O 0.9957 0.74444 0.65776 0.0
O42 O 0.97171 0.70682 0.67057 0.0
C43 C 0.92379 0.69074 0.63389 0.0
N44 N 0.94439 0.6726 0.6311 0.0
C45 C 0.91689 0.64412 0.5999 0.0
C46 C 0.89536 0.66246 0.60252 0.0
C47 C 0.89883 0.68586 0.61961 0.0
C48 C 0.94117 0.64985 0.61495 0.0
H49 H 0.92642 0.70886 0.64684 0.0
C50 C 0.97836 0.73239 0.67292 0.0
O51 O 0.03849 0.76222 0.62141 0.0
O52 O -0.00129 0.75401 0.59974 0.0
N53 N 0.98656 0.64121 0.62671 0.0
C54 C 0.01003 0.62678 0.62474 0.0
C55 C 0.01036 0.60334 0.60758 0.0
C56 C 0.98662 0.59504 0.59258 0.0
C57 C 0.96274 0.61027 0.59488 0.0
C58 C 0.96353 0.63328 0.61254 0.0
H59 H 0.02842 0.63327 0.63596 0.0
O60 O 0.0287 0.70625 0.59335 0.0
O61 O 0.993 0.69681 0.61838 0.0
O62 O 0.04125 0.70869 0.65201 0.0
O63 O 0.01665 0.67263 0.66627 0.0
C64 C 0.93839 0.60391 0.57983 0.0
C65 C 0.91547 0.6208 0.58236 0.0
H66 H 0.87618 0.65894 0.59128 0.0
H67 H 0.88235 0.70017 0.62164 0.0
H68 H 0.02893 0.5918 0.60577 0.0
H69 H 0.98706 0.57713 0.57913 0.0
H70 H 0.9372 0.58629 0.56594 0.0
H71 H 0.89701 0.61592 0.57038 0.0
Mn72 Mn 0.49737 0.75126 0.87852 0.0
Mn73 Mn 0.53546 0.80915 0.87305 0.0
C74 C 0.52762 0.76489 0.91323 0.0
C75 C 0.45854 0.72792 0.89223 0.0
C76 C 0.54684 0.75621 0.84213 0.0
O77 O 0.47759 0.77133 0.84801 0.0
O78 O 0.50219 0.81112 0.84904 0.0
C79 C 0.49769 0.84872 0.89796 0.0
N80 N 0.52258 0.83666 0.89777 0.0
C81 C 0.53803 0.86304 0.9376 0.0
C82 C 0.51264 0.87589 0.93808 0.0
C83 C 0.49238 0.86867 0.91819 0.0
C84 C 0.54222 0.84345 0.91682 0.0
H85 H 0.48197 0.84308 0.88285 0.0
C86 C 0.48201 0.79585 0.84022 0.0
O87 O 0.47395 0.71774 0.8734 0.0
O88 O 0.46463 0.75242 0.90162 0.0
N89 N 0.5679 0.80965 0.89586 0.0
C90 C 0.59073 0.79431 0.89341 0.0
C91 C 0.61271 0.79851 0.91218 0.0
C92 C 0.61102 0.81845 0.93322 0.0
C93 C 0.5874 0.83412 0.93521 0.0
C94 C 0.56627 0.82924 0.91573 0.0
H95 H 0.59211 0.77887 0.87736 0.0
O96 O 0.51962 0.73945 0.91081 0.0
O97 O 0.51772 0.78139 0.89525 0.0
O98 O 0.52819 0.74196 0.85317 0.0
O99 O 0.5508 0.78182 0.84714 0.0
C100 C 0.58379 0.85403 0.95607 0.0
C101 C 0.55911 0.86846 0.95728 0.0
H102 H 0.50839 0.89114 0.95378 0.0
H103 H 0.47268 0.87838 0.91853 0.0
H104 H 0.63085 0.7863 0.91053 0.0
H105 H 0.62788 0.8214 0.94785 0.0
H106 H 0.5997 0.85813 0.97152 0.0
H107 H 0.55643 0.88345 0.97363 0.0
Mn108 Mn 0.50614 0.24027 0.12695 0.0
Mn109 Mn 0.46344 0.19142 0.14982 0.0
C110 C 0.49726 0.20088 0.10089 0.0
C111 C 0.51407 0.27995 0.10291 0.0
C112 C 0.52013 0.20422 0.17431 0.0
O113 O 0.48451 0.2599 0.15646 0.0
O114 O 0.45227 0.22732 0.16502 0.0
C115 C 0.41055 0.20566 0.12363 0.0
N116 N 0.43099 0.18748 0.12733 0.0
C117 C 0.40822 0.15429 0.09705 0.0
C118 C 0.3869 0.17264 0.09296 0.0
C119 C 0.38808 0.19843 0.10631 0.0
C120 C 0.42994 0.1625 0.11479 0.0
H121 H 0.41148 0.22558 0.13369 0.0
C122 C 0.46235 0.25177 0.16759 0.0
O123 O 0.53083 0.27243 0.12218 0.0
O124 O 0.492 0.26505 0.0985 0.0
N125 N 0.47272 0.15614 0.13533 0.0
C126 C 0.49594 0.14175 0.13972 0.0
C127 C 0.4986 0.11598 0.12684 0.0
C128 C 0.4774 0.10529 0.10958 0.0
C129 C 0.45371 0.1205 0.10534 0.0
C130 C 0.45212 0.14597 0.11889 0.0
H131 H 0.51237 0.14993 0.15282 0.0
O132 O 0.51956 0.21519 0.09716 0.0
O133 O 0.48174 0.20986 0.12011 0.0
O134 O 0.52794 0.22042 0.15592 0.0
O135 O 0.49613 0.19333 0.17466 0.0
C136 C 0.4319 0.11164 0.08771 0.0
C137 C 0.40914 0.12849 0.08362 0.0
H138 H 0.36969 0.16726 0.07937 0.0
H139 H 0.37178 0.21276 0.10315 0.0
H140 H 0.517 0.10443 0.13012 0.0
H141 H 0.47963 0.08551 0.0995 0.0
H142 H 0.43258 0.09206 0.07691 0.0
H143 H 0.39268 0.12162 0.06972 0.0
Mn144 Mn 0.01187 0.74652 0.13062 0.0
Mn145 Mn 0.06473 0.78786 0.11322 0.0
C146 C 0.04928 0.75406 0.15986 0.0
C147 C 0.97117 0.73714 0.15272 0.0
C148 C 0.05442 0.7313 0.08834 0.0
O149 O 0.99465 0.76966 0.10095 0.0
O150 O 0.03145 0.79653 0.09137 0.0
C151 C 0.04416 0.84121 0.13297 0.0
N152 N 0.06363 0.82167 0.13365 0.0
C153 C 0.09079 0.84797 0.16697 0.0
C154 C 0.07107 0.8684 0.16656 0.0
C155 C 0.04764 0.86498 0.1495 0.0
C156 C 0.08633 0.82482 0.14988 0.0
H157 H 0.02607 0.83865 0.11996 0.0
C158 C 0.00619 0.78911 0.08795 0.0
O159 O 0.97932 0.72165 0.1327 0.0
O160 O 0.98553 0.75933 0.15835 0.0
N161 N 0.09766 0.78137 0.13387 0.0
C162 C 0.11361 0.75883 0.13347 0.0
C163 C 0.13731 0.75845 0.15027 0.0
C164 C 0.14434 0.78121 0.16728 0.0
C165 C 0.12757 0.80415 0.16738 0.0
C166 C 0.10432 0.80345 0.15005 0.0
H167 H 0.10815 0.74119 0.12063 0.0
O168 O 0.03479 0.73155 0.16133 0.0
O169 O 0.04222 0.77036 0.14056 0.0
O170 O 0.03305 0.72577 0.10173 0.0
O171 O 0.06828 0.75365 0.09133 0.0
C172 C 0.13271 0.82745 0.18441 0.0
C173 C 0.11437 0.84937 0.18415 0.0
H174 H 0.07357 0.88666 0.17945 0.0
H175 H 0.03227 0.88061 0.14915 0.0
H176 H 0.15005 0.74059 0.15021 0.0
H177 H 0.1625 0.78073 0.18039 0.0
H178 H 0.1505 0.82855 0.19807 0.0
H179 H 0.11836 0.86701 0.19761 0.0
Mn180 Mn 0.51187 0.76572 0.37163 0.0
Mn181 Mn 0.45328 0.72842 0.37642 0.0
C182 C 0.49626 0.7384 0.33529 0.0
C183 C 0.53603 0.80502 0.3604 0.0
C184 C 0.50689 0.71362 0.40427 0.0
O185 O 0.49328 0.78374 0.40413 0.0
O186 O 0.453 0.76002 0.40264 0.0
C187 C 0.41402 0.76885 0.35568 0.0
N188 N 0.42522 0.74359 0.35386 0.0
C189 C 0.39612 0.73094 0.31499 0.0
C190 C 0.38411 0.75674 0.31661 0.0
C191 C 0.39316 0.77579 0.337 0.0
C192 C 0.41677 0.72516 0.33422 0.0
H193 H 0.42102 0.78362 0.37121 0.0
C194 C 0.46891 0.77932 0.41229 0.0
O195 O 0.54604 0.78788 0.3777 0.0
O196 O 0.5112 0.80025 0.35115 0.0
N197 N 0.45096 0.69751 0.35158 0.0
C198 C 0.46556 0.67405 0.35197 0.0
C199 C 0.45943 0.65306 0.33252 0.0
C200 C 0.43827 0.65633 0.31299 0.0
C201 C 0.42338 0.68056 0.31312 0.0
C202 C 0.43026 0.70067 0.33315 0.0
H203 H 0.48181 0.67138 0.36696 0.0
O204 O 0.52196 0.74562 0.33729 0.0
O205 O 0.48068 0.74727 0.35457 0.0
O206 O 0.52115 0.73284 0.39423 0.0
O207 O 0.48107 0.71062 0.39997 0.0
C208 C 0.40231 0.68573 0.29387 0.0
C209 C 0.38876 0.71095 0.29474 0.0
H210 H 0.36811 0.76222 0.30216 0.0
H211 H 0.38412 0.7958 0.33827 0.0
H212 H 0.47104 0.63444 0.33253 0.0
H213 H 0.43378 0.64022 0.29785 0.0
H214 H 0.39665 0.67064 0.27805 0.0
H215 H 0.37289 0.71486 0.27956 0.0
Mn216 Mn 0.5133 0.2383 0.63707 0.0
Mn217 Mn 0.55601 0.28675 0.61364 0.0
C218 C 0.55076 0.25311 0.66354 0.0
C219 C 0.4745 0.22565 0.66066 0.0
C220 C 0.55135 0.2284 0.59052 0.0
O221 O 0.49152 0.25584 0.60616 0.0
O222 O 0.51885 0.29279 0.598 0.0
C223 C 0.53483 0.33764 0.63854 0.0
N224 N 0.55563 0.3198 0.63533 0.0
C225 C 0.58565 0.34742 0.66494 0.0
C226 C 0.56458 0.36614 0.66848 0.0
C227 C 0.53906 0.36122 0.65523 0.0
C228 C 0.58035 0.32445 0.64779 0.0
H229 H 0.51513 0.33381 0.62859 0.0
C230 C 0.49638 0.27881 0.59486 0.0
O231 O 0.48469 0.20955 0.64219 0.0
O232 O 0.48608 0.24966 0.66442 0.0
N233 N 0.59227 0.28251 0.62846 0.0
C234 C 0.60961 0.26133 0.62476 0.0
C235 C 0.63556 0.26236 0.63777 0.0
C236 C 0.6434 0.28512 0.65445 0.0
C237 C 0.62519 0.30666 0.65799 0.0
C238 C 0.59969 0.30459 0.64433 0.0
H239 H 0.60365 0.24371 0.6121 0.0
O240 O 0.53941 0.22932 0.66775 0.0
O241 O 0.54 0.26685 0.64378 0.0
O242 O 0.53672 0.21874 0.60935 0.0
O243 O 0.55846 0.25369 0.58945 0.0
C244 C 0.63112 0.32979 0.67504 0.0
C245 C 0.61139 0.35018 0.67847 0.0
H246 H 0.56765 0.38417 0.6816 0.0
H247 H 0.52265 0.37548 0.65799 0.0
H248 H 0.64945 0.2456 0.63504 0.0
H249 H 0.66334 0.28573 0.66464 0.0
H250 H 0.65065 0.33191 0.68591 0.0
H251 H 0.61603 0.36765 0.69196 0.0
Mn252 Mn 0.002 0.24624 0.87697 0.0
Mn253 Mn 0.94888 0.20334 0.88834 0.0
C254 C 0.98759 0.2145 0.84385 0.0
C255 C 0.01901 0.2868 0.85974 0.0
C256 C 0.00546 0.1976 0.91447 0.0
O257 O 0.98323 0.26467 0.90899 0.0
O258 O 0.94596 0.23668 0.91211 0.0
C259 C 0.90353 0.23661 0.86692 0.0
N260 N 0.91805 0.21312 0.86608 0.0
C261 C 0.89024 0.195 0.8283 0.0
C262 C 0.87486 0.21891 0.82893 0.0
C263 C 0.88156 0.2398 0.84832 0.0
C264 C 0.91175 0.19286 0.84753 0.0
H265 H 0.90879 0.25287 0.88157 0.0
C266 C 0.96005 0.25834 0.91907 0.0
O267 O 0.03301 0.27345 0.87781 0.0
O268 O 0.99452 0.2776 0.8535 0.0
N269 N 0.94959 0.17081 0.86571 0.0
C270 C 0.9675 0.14983 0.86667 0.0
C271 C 0.96415 0.12761 0.84806 0.0
C272 C 0.94247 0.12719 0.82866 0.0
C273 C 0.92425 0.14898 0.82811 0.0
C274 C 0.92841 0.17042 0.84738 0.0
H275 H 0.98432 0.15012 0.88141 0.0
O276 O 0.01241 0.22448 0.84371 0.0
O277 O 0.97255 0.22303 0.86367 0.0
O278 O 0.01695 0.21718 0.90196 0.0
O279 O 0.97997 0.19127 0.91164 0.0
C280 C 0.90249 0.15054 0.8088 0.0
C281 C 0.88551 0.17353 0.80889 0.0
H282 H 0.85806 0.22157 0.81445 0.0
H283 H 0.86991 0.2584 0.84881 0.0
H284 H 0.97836 0.11092 0.84855 0.0
H285 H 0.94015 0.11017 0.81413 0.0
H286 H 0.89889 0.13434 0.79354 0.0
H287 H 0.8691 0.17468 0.7937 0.0
Mn288 Mn 0.38291 0.98653 0.25025 0.0
Mn289 Mn 0.37687 0.02543 0.30764 0.0
C290 C 0.41787 0.01633 0.26437 0.0
C291 C 0.39622 0.94721 0.22736 0.0
C292 C 0.34772 0.03709 0.25383 0.0
O293 O 0.35151 0.96757 0.26975 0.0
O294 O 0.35184 0.9929 0.30905 0.0
C295 C 0.39953 0.9871 0.34799 0.0
N296 N 0.40031 0.01199 0.33595 0.0
C297 C 0.43928 0.02676 0.36397 0.0
C298 C 0.43875 0.00135 0.3768 0.0
C299 C 0.41882 0.98143 0.36873 0.0
C300 C 0.41946 0.03128 0.3435 0.0
H301 H 0.38436 0.97166 0.34173 0.0
C302 C 0.34299 0.97267 0.29388 0.0
O303 O 0.37788 0.96296 0.21685 0.0
O304 O 0.40533 0.95328 0.25198 0.0
N305 N 0.40044 0.05732 0.30888 0.0
C306 C 0.39887 0.08032 0.29367 0.0
C307 C 0.41772 0.10207 0.29881 0.0
C308 C 0.43787 0.10001 0.31959 0.0
C309 C 0.4389 0.07626 0.33517 0.0
C310 C 0.41941 0.05536 0.32929 0.0
H311 H 0.38345 0.08203 0.27766 0.0
O312 O 0.41592 0.00805 0.23898 0.0
O313 O 0.39939 0.00691 0.2806 0.0
O314 O 0.35837 0.01778 0.24014 0.0
O315 O 0.35238 0.04135 0.27946 0.0
C316 C 0.45878 0.07233 0.35598 0.0
C317 C 0.45901 0.04757 0.37033 0.0
H318 H 0.45369 -0.00316 0.3927 0.0
H319 H 0.41838 0.96171 0.37843 0.0
H320 H 0.41679 0.12034 0.2867 0.0
H321 H 0.45255 0.11671 0.32331 0.0
H322 H 0.47422 0.08805 0.36085 0.0
H323 H 0.47462 0.04463 0.38602 0.0
Mn324 Mn 0.23945 0.12588 0.50678 0.0
Mn325 Mn 0.1865 0.14253 0.46527 0.0
C326 C 0.20294 0.09577 0.49895 0.0
C327 C 0.28134 0.10583 0.51506 0.0
C328 C 0.19576 0.16665 0.5224 0.0
O329 O 0.25566 0.15651 0.48451 0.0
O330 O 0.21936 0.16522 0.4567 0.0
C331 C 0.20768 0.12341 0.41197 0.0
N332 N 0.18808 0.12235 0.43136 0.0
C333 C 0.16164 0.08866 0.40481 0.0
C334 C 0.18149 0.08949 0.38451 0.0
C335 C 0.20461 0.10693 0.38812 0.0
C336 C 0.16566 0.10576 0.42802 0.0
H337 H 0.22556 0.13668 0.4147 0.0
C338 C 0.24434 0.16926 0.46484 0.0
O339 O 0.27222 0.12473 0.53135 0.0
O340 O 0.26683 0.09975 0.49308 0.0
N341 N 0.15393 0.12125 0.47153 0.0
C342 C 0.13787 0.12124 0.494 0.0
C343 C 0.11447 0.10402 0.49421 0.0
C344 C 0.10784 0.08699 0.47135 0.0
C345 C 0.12468 0.08735 0.44846 0.0
C346 C 0.1476 0.10513 0.44933 0.0
H347 H 0.14302 0.1341 0.51172 0.0
O348 O 0.21775 0.09421 0.52125 0.0
O349 O 0.20944 0.1154 0.48274 0.0
O350 O 0.21716 0.15338 0.52811 0.0
O351 O 0.18251 0.16409 0.49963 0.0
C352 C 0.11998 0.07031 0.42509 0.0
C353 C 0.13843 0.07097 0.40327 0.0
H354 H 0.17933 0.0766 0.3662 0.0
H355 H 0.22008 0.10758 0.3726 0.0
H356 H 0.10166 0.10374 0.51201 0.0
H357 H 0.08993 0.07353 0.4717 0.0
H358 H 0.10247 0.05628 0.42388 0.0
H359 H 0.13483 0.05744 0.38562 0.0
Mn360 Mn 0.12637 0.02375 0.74277 0.0
Mn361 Mn 0.10134 0.06556 0.79099 0.0
C362 C 0.15204 0.06148 0.75822 0.0
C363 C 0.15083 0.9854 0.73051 0.0
C364 C 0.07858 0.05991 0.73257 0.0
O365 O 0.09584 0.0013 0.75998 0.0
O366 O 0.08682 0.02798 0.79718 0.0
C367 C 0.1261 0.04583 0.84257 0.0
N368 N 0.12282 0.06616 0.8242 0.0
C369 C 0.15196 0.09706 0.85134 0.0
C370 C 0.15567 0.07644 0.87052 0.0
C371 C 0.14266 0.05073 0.86612 0.0
C372 C 0.13494 0.09111 0.82843 0.0
H373 H 0.11632 0.02598 0.83915 0.0
C374 C 0.08431 0.00559 0.78294 0.0
O375 O 0.13243 0.99528 0.71412 0.0
O376 O 0.15415 -0.00287 0.75451 0.0
N377 N 0.11522 0.10212 0.78638 0.0
C378 C 0.11109 0.11911 0.765 0.0
C379 C 0.12364 0.14528 0.76564 0.0
C380 C 0.14033 0.15368 0.78821 0.0
C381 C 0.14433 0.13582 0.80995 0.0
C382 C 0.13112 0.11007 0.80828 0.0
H383 H 0.09844 0.11272 0.74752 0.0
O384 O 0.1566 0.05053 0.73431 0.0
O385 O 0.13213 0.05035 0.77147 0.0
O386 O 0.09826 0.04646 0.72293 0.0
O387 O 0.07716 0.0669 0.75785 0.0
C388 C 0.16133 0.14236 0.83297 0.0
C389 C 0.1651 0.12302 0.85367 0.0
H390 H 0.16869 0.08003 0.88855 0.0
H391 H 0.14552 0.03468 0.88077 0.0
H392 H 0.12055 0.1589 0.74872 0.0
H393 H 0.15015 0.17379 0.78852 0.0
H394 H 0.17185 0.1621 0.8348 0.0
H395 H 0.17849 0.12816 0.8711 0.0
Mn396 Mn 0.23675 0.87132 0.01409 0.0
Mn397 Mn 0.19916 0.87374 0.95569 0.0
C398 C 0.21378 0.83268 -0.00263 0.0
C399 C 0.27696 0.86307 0.03798 0.0
C400 C 0.18261 0.90012 0.00948 0.0
O401 O 0.25165 0.90549 0.99587 0.0
O402 O 0.22882 0.90219 0.95502 0.0
C403 C 0.23957 0.85701 0.91455 0.0
N404 N 0.21523 0.85262 0.92704 0.0
C405 C 0.20541 0.8124 0.89884 0.0
C406 C 0.2303 0.81657 0.88561 0.0
C407 C 0.24745 0.83898 0.89351 0.0
C408 C 0.19846 0.83126 0.91944 0.0
H409 H 0.25292 0.87408 0.92069 0.0
C410 C 0.24712 0.91322 0.97133 0.0
O411 O 0.25835 0.87844 0.04846 0.0
O412 O 0.27307 0.85427 0.01289 0.0
N413 N 0.17056 0.84623 0.95453 0.0
C414 C 0.14843 0.84379 0.97088 0.0
C415 C 0.12987 0.82166 0.96658 0.0
C416 C 0.13427 0.80226 0.94556 0.0
C417 C 0.15721 0.80516 0.92901 0.0
C418 C 0.17488 0.82777 0.93411 0.0
H419 H 0.14507 0.85851 0.98722 0.0
O420 O 0.22007 0.83502 0.02329 0.0
O421 O 0.22035 0.8534 0.98252 0.0
O422 O 0.20194 0.89052 0.02388 0.0
O423 O 0.18022 0.89614 0.98359 0.0
C424 C 0.16359 0.78615 0.9081 0.0
C425 C 0.18763 0.7898 0.89298 0.0
H426 H 0.23661 0.80253 0.86959 0.0
H427 H 0.26677 0.84224 0.8835 0.0
H428 H 0.11229 0.81947 0.97954 0.0
H429 H 0.12005 0.78507 0.94249 0.0
H430 H 0.15036 0.76842 0.90377 0.0
H431 H 0.19253 0.77481 0.87726 0.0
Mn432 Mn 0.25136 0.37424 0.00671 0.0
Mn433 Mn 0.31157 0.37107 0.04147 0.0
C434 C 0.26645 0.41041 0.03442 0.0
C435 C 0.2249 0.38578 0.96905 0.0
C436 C 0.26003 0.34021 0.05741 0.0
O437 O 0.27074 0.34324 0.98689 0.0
O438 O 0.31187 0.3458 0.00911 0.0
C439 C 0.34835 0.39472 0.00032 0.0
N440 N 0.33784 0.39546 0.02593 0.0
C441 C 0.36459 0.43605 0.03822 0.0
C442 C 0.37584 0.43559 0.01205 0.0
C443 C 0.36765 0.41485 0.99301 0.0
C444 C 0.34558 0.41533 0.04441 0.0
H445 H 0.34196 0.37895 0.98554 0.0
C446 C 0.29564 0.33604 0.99013 0.0
O447 O 0.21645 0.36744 0.98594 0.0
O448 O 0.24957 0.39582 0.97289 0.0
N449 N 0.31368 0.39523 0.07292 0.0
C450 C 0.29979 0.39362 0.09675 0.0
C451 C 0.30513 0.41324 0.11776 0.0
C452 C 0.32471 0.43427 0.11408 0.0
C453 C 0.33885 0.43543 0.08943 0.0
C454 C 0.33289 0.41512 0.06935 0.0
H455 H 0.28465 0.37756 0.09968 0.0
O456 O 0.24057 0.40734 0.02832 0.0
O457 O 0.28249 0.39213 0.02432 0.0
O458 O 0.24456 0.3503 0.03919 0.0
O459 O 0.28576 0.34548 0.05957 0.0
C460 C 0.35823 0.45625 0.08381 0.0
C461 C 0.37105 0.45658 0.0582 0.0
H462 H 0.39059 0.4512 0.00626 0.0
H463 H 0.37612 0.41446 0.97271 0.0
H464 H 0.29408 0.41225 0.1367 0.0
H465 H 0.32855 0.44955 0.13021 0.0
H466 H 0.36312 0.47232 0.09888 0.0
H467 H 0.38562 0.47292 0.05398 0.0
Mn468 Mn 0.74739 0.12576 0.00332 0.0
Mn469 Mn 0.79074 0.10266 0.05162 0.0
C470 C 0.75743 0.15189 0.04247 0.0
C471 C 0.73828 0.15031 0.96422 0.0
C472 C 0.73323 0.07945 0.04098 0.0
O473 O 0.76823 0.09599 0.98303 0.0
O474 O 0.79986 0.08605 0.01571 0.0
C475 C 0.84367 0.12657 0.03433 0.0
N476 N 0.82404 0.124 0.05356 0.0
C477 C 0.84949 0.15386 0.08519 0.0
C478 C 0.87002 0.15675 0.06576 0.0
C479 C 0.86707 0.14306 0.04022 0.0
C480 C 0.82674 0.13694 0.07827 0.0
H481 H 0.84142 0.1162 0.01462 0.0
C482 C 0.78979 0.08382 0.99124 0.0
O483 O 0.72177 0.13094 0.97196 0.0
O484 O 0.76099 0.15419 0.97824 0.0
N485 N 0.78358 0.11835 0.08695 0.0
C486 C 0.76092 0.11522 0.10247 0.0
C487 C 0.75996 0.12869 0.12812 0.0
C488 C 0.78228 0.14522 0.13755 0.0
C489 C 0.80536 0.14816 0.1212 0.0
C490 C 0.80523 0.13409 0.09589 0.0
H491 H 0.74365 0.10268 0.09525 0.0
O492 O 0.73481 0.15564 0.02873 0.0
O493 O 0.77268 0.13256 0.0332 0.0
O494 O 0.72579 0.09705 0.02376 0.0
O495 O 0.75724 0.07906 0.05182 0.0
C496 C 0.82825 0.16495 0.12877 0.0
C497 C 0.85033 0.16772 0.11082 0.0
H498 H 0.88797 0.16967 0.07011 0.0
H499 H 0.88276 0.14531 0.02506 0.0
H500 H 0.74202 0.12642 0.14057 0.0
H501 H 0.78136 0.15575 0.15725 0.0
H502 H 0.82891 0.17611 0.1482 0.0
H503 H 0.86764 0.18097 0.11671 0.0
Mn504 Mn 0.12366 0.50262 0.24505 0.0
Mn505 Mn 0.14516 0.46413 0.1919 0.0
C506 C 0.09497 0.49276 0.20765 0.0
C507 C 0.10169 0.50901 0.28625 0.0
C508 C 0.16461 0.52258 0.20317 0.0
O509 O 0.15558 0.48255 0.26194 0.0
O510 O 0.16784 0.45693 0.22519 0.0
C511 C 0.13054 0.40884 0.21142 0.0
N512 N 0.12798 0.42858 0.19232 0.0
C513 C 0.09676 0.40004 0.16489 0.0
C514 C 0.09915 0.37937 0.18423 0.0
C515 C 0.11612 0.3838 0.20759 0.0
C516 C 0.11189 0.42444 0.16964 0.0
H517 H 0.14343 0.41219 0.22949 0.0
C518 C 0.17049 0.46459 0.25048 0.0
O519 O 0.11985 0.52652 0.27791 0.0
O520 O 0.09758 0.48679 0.27145 0.0
N521 N 0.12395 0.46928 0.15904 0.0
C522 C 0.12217 0.49207 0.14357 0.0
C523 C 0.10509 0.49148 0.12003 0.0
C524 C 0.09 0.46751 0.11271 0.0
C525 C 0.09212 0.44432 0.129 0.0
C526 C 0.10968 0.44604 0.15207 0.0
H527 H 0.13349 0.51064 0.14929 0.0
O528 O 0.09145 0.51477 0.22245 0.0
O529 O 0.11591 0.47834 0.21443 0.0
O530 O 0.15031 0.52645 0.22425 0.0
O531 O 0.16395 0.50027 0.18902 0.0
C532 C 0.07702 0.41981 0.1236 0.0
C533 C 0.07938 0.39766 0.1415 0.0
H534 H 0.08783 0.36014 0.1815 0.0
H535 H 0.11797 0.36799 0.22266 0.0
H536 H 0.10343 0.50951 0.10766 0.0
H537 H 0.07664 0.46722 0.0947 0.0
H538 H 0.06322 0.4179 0.10595 0.0
H539 H 0.06736 0.37907 0.13735 0.0
Mn540 Mn 0.74447 0.88021 0.48542 0.0
Mn541 Mn 0.80136 0.87787 0.52568 0.0
C542 C 0.75693 0.91697 0.51352 0.0
C543 C 0.72177 0.89071 0.44509 0.0
C544 C 0.7481 0.8481 0.53802 0.0
O545 O 0.76528 0.8487 0.46847 0.0
O546 O 0.80408 0.85128 0.49453 0.0
C547 C 0.84177 0.89954 0.48685 0.0
N548 N 0.82926 0.9013 0.51147 0.0
C549 C 0.85601 0.94164 0.52463 0.0
C550 C 0.8693 0.94013 0.4995 0.0
C551 C 0.8621 0.91902 0.48051 0.0
C552 C 0.83597 0.92159 0.52985 0.0
H553 H 0.8362 0.88343 0.47213 0.0
C554 C 0.78956 0.84116 0.4744 0.0
O555 O 0.71166 0.87281 0.46157 0.0
O556 O 0.74605 0.90084 0.45106 0.0
N557 N 0.80138 0.90308 0.55629 0.0
C558 C 0.7858 0.90233 0.57909 0.0
C559 C 0.79008 0.92238 0.5999 0.0
C560 C 0.81039 0.94288 0.59714 0.0
C561 C 0.82636 0.94307 0.57363 0.0
C562 C 0.82134 0.92242 0.55367 0.0
H563 H 0.77015 0.88663 0.58133 0.0
O564 O 0.73173 0.91378 0.5049 0.0
O565 O 0.77397 0.8986 0.50543 0.0
O566 O 0.73454 0.85719 0.5178 0.0
O567 O 0.77356 0.85352 0.54248 0.0
C568 C 0.84674 0.96321 0.569 0.0
C569 C 0.86151 0.96254 0.5445 0.0
H570 H 0.8849 0.9552 0.49447 0.0
H571 H 0.87216 0.91781 0.461 0.0
H572 H 0.77766 0.92209 0.61799 0.0
H573 H 0.81344 0.95847 0.61311 0.0
H574 H 0.85095 0.97954 0.58399 0.0
H575 H 0.87686 0.97835 0.54101 0.0
Mn576 Mn 0.87394 0.01416 0.25741 0.0
Mn577 Mn 0.87894 0.95766 0.21711 0.0
C578 C 0.8388 0.00137 0.22718 0.0
C579 C 0.8607 0.03616 0.29729 0.0
C580 C 0.90971 0.01107 0.20728 0.0
O581 O 0.90459 0.99329 0.27614 0.0
O582 O 0.90335 0.95454 0.24991 0.0
C583 C 0.85459 0.91668 0.25376 0.0
N584 N 0.85448 0.92959 0.22931 0.0
C585 C 0.81485 0.90325 0.21324 0.0
C586 C 0.81467 0.88955 0.23816 0.0
C587 C 0.8346 0.89634 0.25852 0.0
C588 C 0.83535 0.92328 0.20961 0.0
H589 H 0.86975 0.92195 0.26954 0.0
C590 C 0.9123 0.96893 0.27066 0.0
O591 O 0.8794 0.04681 0.28203 0.0
O592 O 0.85116 0.01191 0.29035 0.0
N593 N 0.85573 0.95823 0.185 0.0
C594 C 0.85787 0.97435 0.16269 0.0
C595 C 0.83906 0.97061 0.14068 0.0
C596 C 0.81831 0.9503 0.14179 0.0
C597 C 0.81663 0.93383 0.16488 0.0
C598 C 0.8361 0.93833 0.18608 0.0
H599 H 0.87375 0.99001 0.16172 0.0
O600 O 0.84125 0.02658 0.23593 0.0
O601 O 0.85704 0.98472 0.23621 0.0
O602 O 0.89905 0.02461 0.22669 0.0
O603 O 0.90449 0.98564 0.20241 0.0
C604 C 0.7961 0.91346 0.16789 0.0
C605 C 0.79517 0.89823 0.19208 0.0
H606 H 0.79919 0.87395 0.24199 0.0
H607 H 0.83449 0.88596 0.27788 0.0
H608 H 0.84047 0.98343 0.12295 0.0
H609 H 0.80366 0.94767 0.1249 0.0
H610 H 0.78067 0.90962 0.15189 0.0
H611 H 0.77903 0.88292 0.19433 0.0
Mn612 Mn 0.24854 0.634 0.50548 0.0
Mn613 Mn 0.28843 0.61819 0.55993 0.0
C614 C 0.25636 0.6651 0.54121 0.0
C615 C 0.24051 0.6533 0.46318 0.0
C616 C 0.23098 0.59525 0.55034 0.0
O617 O 0.27058 0.60248 0.49051 0.0
O618 O 0.2966 0.59388 0.52813 0.0
C619 C 0.34259 0.63461 0.53874 0.0
N620 N 0.32301 0.63711 0.55803 0.0
C621 C 0.35033 0.67095 0.58348 0.0
C622 C 0.37082 0.66864 0.56394 0.0
C623 C 0.36692 0.6504 0.54147 0.0
C624 C 0.32662 0.6545 0.57981 0.0
H625 H 0.33963 0.62072 0.52136 0.0
C626 C 0.28923 0.58928 0.50302 0.0
O627 O 0.22424 0.63453 0.47254 0.0
O628 O 0.26267 0.6593 0.47749 0.0
N629 N 0.28251 0.64096 0.59158 0.0
C630 C 0.25991 0.64229 0.60739 0.0
C631 C 0.26002 0.66039 0.63014 0.0
C632 C 0.28334 0.67691 0.63639 0.0
C633 C 0.30636 0.67516 0.61983 0.0
C634 C 0.30515 0.65656 0.59757 0.0
H635 H 0.24186 0.6298 0.60254 0.0
O636 O 0.23427 0.66652 0.52607 0.0
O637 O 0.27231 0.64499 0.53562 0.0
O638 O 0.2264 0.60757 0.52814 0.0
O639 O 0.25331 0.59798 0.56432 0.0
C640 C 0.33021 0.69158 0.62418 0.0
C641 C 0.35219 0.68947 0.60603 0.0
H642 H 0.38951 0.68097 0.56584 0.0
H643 H 0.38258 0.6486 0.52624 0.0
H644 H 0.24212 0.66173 0.64275 0.0
H645 H 0.28324 0.69105 0.65379 0.0
H646 H 0.3317 0.70622 0.64117 0.0
H647 H 0.37023 0.70253 0.60933 0.0
Mn648 Mn 0.37937 0.50662 0.74541 0.0
Mn649 Mn 0.38679 0.45022 0.70564 0.0
C650 C 0.34307 0.48939 0.71922 0.0
C651 C 0.36818 0.52737 0.78648 0.0
C652 C 0.41053 0.50622 0.69239 0.0
O653 O 0.41381 0.4898 0.76112 0.0
O654 O 0.41377 0.44998 0.73662 0.0
C655 C 0.36967 0.40758 0.74432 0.0
N656 N 0.36629 0.42012 0.71987 0.0
C657 C 0.32832 0.38992 0.70703 0.0
C658 C 0.33154 0.37655 0.73198 0.0
C659 C 0.35227 0.38547 0.75072 0.0
C660 C 0.34636 0.41176 0.70172 0.0
H661 H 0.38545 0.41447 0.75887 0.0
C662 C 0.42304 0.46597 0.75605 0.0
O663 O 0.38361 0.53994 0.76921 0.0
O664 O 0.36074 0.50221 0.78057 0.0
N665 N 0.36108 0.44819 0.67542 0.0
C666 C 0.3597 0.46423 0.65297 0.0
C667 C 0.33956 0.4585 0.63254 0.0
C668 C 0.32111 0.43631 0.63536 0.0
C669 C 0.32303 0.41999 0.65855 0.0
C670 C 0.34367 0.42654 0.67813 0.0
H671 H 0.37379 0.48133 0.65069 0.0
O672 O 0.34343 0.51485 0.72739 0.0
O673 O 0.36399 0.47515 0.72642 0.0
O674 O 0.39968 0.51913 0.7121 0.0
O675 O 0.40821 0.48026 0.6888 0.0
C676 C 0.30496 0.39778 0.66325 0.0
C677 C 0.30756 0.38279 0.6875 0.0
H678 H 0.31805 0.3596 0.73708 0.0
H679 H 0.35477 0.37537 0.77009 0.0
H680 H 0.33818 0.47122 0.61472 0.0
H681 H 0.30544 0.43212 0.61969 0.0
H682 H 0.28872 0.39231 0.64853 0.0
H683 H 0.29328 0.36604 0.69107 0.0
Mn684 Mn 0.62231 0.00305 0.75309 0.0
Mn685 Mn 0.64413 0.96887 0.69714 0.0
C686 C 0.5946 -0.00266 0.71437 0.0
C687 C 0.5987 0.00584 0.79379 0.0
C688 C 0.66372 0.02624 0.71326 0.0
O689 O 0.65332 0.98081 0.76878 0.0
O690 O 0.66619 0.95897 0.72995 0.0
C691 C 0.62879 0.91228 0.7124 0.0
N692 N 0.62677 0.93337 0.69472 0.0
C693 C 0.59629 0.9068 0.66461 0.0
C694 C 0.59815 0.88478 0.68245 0.0
C695 C 0.61445 0.88755 0.70645 0.0
C696 C 0.61126 0.93087 0.67147 0.0
H697 H 0.64118 0.91432 0.73094 0.0
C698 C 0.66827 0.96389 0.75586 0.0
O699 O 0.61745 0.0239 0.78793 0.0
O700 O 0.59519 0.98506 0.77694 0.0
N701 N 0.6235 0.97647 0.66447 0.0
C702 C 0.62207 0.00034 0.65065 0.0
C703 C 0.60568 0.00139 0.62673 0.0
C704 C 0.59089 0.97792 0.6173 0.0
C705 C 0.59261 0.9536 0.63191 0.0
C706 C 0.60949 0.95371 0.65547 0.0
H707 H 0.6331 0.01853 0.65801 0.0
O708 O 0.59103 0.01795 0.73106 0.0
O709 O 0.61488 0.98175 0.72029 0.0
O710 O 0.64992 0.0283 0.73496 0.0
O711 O 0.66277 0.00519 0.69727 0.0
C712 C 0.57774 0.92945 0.62436 0.0
C713 C 0.57961 0.90606 0.64068 0.0
H714 H 0.58692 0.86575 0.67806 0.0
H715 H 0.61589 0.87068 0.72038 0.0
H716 H 0.6043 0.0203 0.61568 0.0
H717 H 0.57804 0.97889 0.59899 0.0
H718 H 0.56446 0.92878 0.60629 0.0
H719 H 0.56775 0.88775 0.63489 0.0
Mn720 Mn 0.74517 0.62122 0.01551 0.0
Mn721 Mn 0.69739 0.64373 0.97134 0.0
C722 C 0.706 0.59506 0.00567 0.0
C723 C 0.78441 0.59696 0.02486 0.0
C724 C 0.7084 0.66852 0.02823 0.0
O725 O 0.76558 0.6505 0.99425 0.0
O726 O 0.73351 0.65947 0.96167 0.0
C727 C 0.71405 0.61805 0.91901 0.0
N728 N 0.69501 0.62138 0.93871 0.0
C729 C 0.66306 0.59084 0.91453 0.0
C730 C 0.68232 0.5871 0.89397 0.0
C731 C 0.70792 0.60077 0.89622 0.0
C732 C 0.67021 0.60854 0.93661 0.0
H733 H 0.7338 0.6284 0.92075 0.0
C734 C 0.7578 0.66197 0.97215 0.0
O735 O 0.77654 0.6164 0.04124 0.0
O736 O 0.77022 0.59261 0.00232 0.0
N737 N 0.66191 0.62878 0.97914 0.0
C738 C 0.64656 0.63287 0.00177 0.0
C739 C 0.62082 0.61967 0.00335 0.0
C740 C 0.61116 0.6024 0.98169 0.0
C741 C 0.62736 0.59846 0.95863 0.0
C742 C 0.65274 0.61233 0.95811 0.0
H743 H 0.65397 0.64597 0.01855 0.0
O744 O 0.7196 0.59161 0.02844 0.0
O745 O 0.71544 0.61415 0.99025 0.0
O746 O 0.72482 0.65049 0.03647 0.0
O747 O 0.69779 0.66843 0.00409 0.0
C748 C 0.61957 0.58086 0.93642 0.0
C749 C 0.63738 0.5771 0.91436 0.0
H750 H 0.67778 0.57355 0.87651 0.0
H751 H 0.72293 0.59789 0.8805 0.0
H752 H 0.6085 0.6227 0.02127 0.0
H753 H 0.5914 0.59206 0.98309 0.0
H754 H 0.60008 0.56982 0.93628 0.0
H755 H 0.63131 0.56323 0.89759 0.0
Mn756 Mn 0.87449 0.51736 0.7632 0.0
Mn757 Mn 0.86069 0.55834 0.81715 0.0
C758 C 0.90593 0.55015 0.77875 0.0
C759 C 0.8938 0.47843 0.74483 0.0
C760 C 0.83522 0.56468 0.76049 0.0
O761 O 0.84342 0.49681 0.78123 0.0
O762 O 0.83793 0.52416 0.81862 0.0
C763 C 0.88214 0.52441 0.86197 0.0
N764 N 0.88271 0.54827 0.84805 0.0
C765 C 0.91984 0.56642 0.8767 0.0
C766 C 0.91948 0.54213 0.89148 0.0
C767 C 0.90055 0.52104 0.88408 0.0
C768 C 0.90077 0.56875 0.85508 0.0
H769 H 0.86787 0.50799 0.85617 0.0
C770 C 0.83245 0.50235 0.80417 0.0
O771 O 0.87495 0.49126 0.73136 0.0
O772 O 0.8996 0.48701 0.76965 0.0
N773 N 0.88241 0.59151 0.81777 0.0
C774 C 0.88124 0.61292 0.80039 0.0
C775 C 0.89942 0.6354 0.80448 0.0
C776 C 0.91863 0.6356 0.82632 0.0
C777 C 0.91944 0.61334 0.84395 0.0
C778 C 0.90059 0.59166 0.83907 0.0
H779 H 0.86669 0.61278 0.78342 0.0
O780 O 0.90655 0.54108 0.75361 0.0
O781 O 0.88649 0.54022 0.79344 0.0
O782 O 0.84824 0.54551 0.74895 0.0
O783 O 0.83756 0.57074 0.78606 0.0
C784 C 0.93858 0.61158 0.86582 0.0
C785 C 0.93878 0.58814 0.88218 0.0
H786 H 0.93383 0.53933 0.90837 0.0
H787 H 0.90028 0.50215 0.89526 0.0
H788 H 0.89874 0.65245 0.79072 0.0
H789 H 0.93281 0.65285 0.82922 0.0
H790 H 0.95347 0.62799 0.87002 0.0
H791 H 0.95381 0.58688 0.89873 0.0
Mn792 Mn 0.75066 0.37583 0.51354 0.0
Mn793 Mn 0.71073 0.37995 0.45673 0.0
C794 C 0.72097 0.34027 0.50088 0.0
C795 C 0.79073 0.36326 0.53556 0.0
C796 C 0.70029 0.41109 0.50981 0.0
O797 O 0.76902 0.40658 0.4926 0.0
O798 O 0.74343 0.40451 0.45343 0.0
C799 C 0.74763 0.35534 0.41614 0.0
N800 N 0.72317 0.3552 0.42903 0.0
C801 C 0.70761 0.31487 0.40349 0.0
C802 C 0.73256 0.31471 0.38981 0.0
C803 C 0.75266 0.33502 0.3962 0.0
C804 C 0.70369 0.33575 0.42305 0.0
H805 H 0.76322 0.37078 0.42112 0.0
C806 C 0.76384 0.4139 0.46805 0.0
O807 O 0.77516 0.38168 0.54624 0.0
O808 O 0.78392 0.35356 0.51134 0.0
N809 N 0.67878 0.35654 0.45754 0.0
C810 C 0.65644 0.35873 0.47362 0.0
C811 C 0.63465 0.33961 0.47024 0.0
C812 C 0.63602 0.31849 0.45034 0.0
C813 C 0.65916 0.31673 0.43394 0.0
C814 C 0.68011 0.33655 0.43804 0.0
H815 H 0.65528 0.37486 0.489 0.0
O816 O 0.72962 0.34298 0.52611 0.0
O817 O 0.72984 0.3585 0.48414 0.0
O818 O 0.7195 0.40051 0.52371 0.0
O819 O 0.69582 0.40579 0.48432 0.0
C820 C 0.66249 0.29578 0.41407 0.0
C821 C 0.68673 0.29481 0.3989 0.0
H822 H 0.7366 0.29895 0.37456 0.0
H823 H 0.77203 0.33493 0.38584 0.0
H824 H 0.61689 0.34106 0.48302 0.0
H825 H 0.61932 0.3036 0.448 0.0
H826 H 0.64672 0.28006 0.41058 0.0
H827 H 0.68922 0.27837 0.38397 0.0
Mn828 Mn 0.62944 0.5126 0.24678 0.0
Mn829 Mn 0.60876 0.56338 0.28889 0.0
C830 C 0.65736 0.55068 0.25624 0.0
C831 C 0.65221 0.47221 0.23812 0.0
C832 C 0.58566 0.55338 0.23139 0.0
O833 O 0.59956 0.4939 0.2683 0.0
O834 O 0.58859 0.52881 0.29699 0.0
C835 C 0.62873 0.54338 0.34239 0.0
N836 N 0.62876 0.563 0.32299 0.0
C837 C 0.66057 0.5914 0.34988 0.0
C838 C 0.6608 0.57152 0.37016 0.0
C839 C 0.64481 0.54741 0.36639 0.0
C840 C 0.64387 0.5864 0.32653 0.0
H841 H 0.6166 0.52474 0.33953 0.0
C842 C 0.58628 0.50379 0.28838 0.0
O843 O 0.63305 0.48051 0.22166 0.0
O844 O 0.65716 0.48669 0.26037 0.0
N845 N 0.62786 0.59733 0.28297 0.0
C846 C 0.62719 0.61331 0.26046 0.0
C847 C 0.64303 0.63765 0.26038 0.0
C848 C 0.65947 0.64525 0.28339 0.0
C849 C 0.65994 0.62841 0.30627 0.0
C850 C 0.64351 0.60452 0.30527 0.0
H851 H 0.61486 0.60739 0.2426 0.0
O852 O 0.66009 0.53672 0.23355 0.0
O853 O 0.63762 0.54263 0.27161 0.0
O854 O 0.60071 0.53334 0.22535 0.0
O855 O 0.58703 0.56624 0.25443 0.0
C856 C 0.67657 0.63406 0.32975 0.0
C857 C 0.67685 0.61559 0.35156 0.0
H858 H 0.67342 0.57441 0.38857 0.0
H859 H 0.64499 0.53192 0.3819 0.0
H860 H 0.64272 0.65044 0.24256 0.0
H861 H 0.67188 0.66391 0.28314 0.0
H862 H 0.68954 0.65234 0.33108 0.0
H863 H 0.69004 0.61995 0.36932 0.0
Fe864 Fe 0.13119 0.09842 0.15665 0.0
Fe865 Fe 0.10986 0.15094 0.13193 0.0
O866 O 0.13302 0.12374 0.13151 0.0
Fe867 Fe 0.15791 0.12171 0.10587 0.0
O868 O 0.14395 0.08912 0.09353 0.0
O869 O 0.14267 0.07047 0.13396 0.0
O870 O 0.09683 0.0887 0.14579 0.0
C871 C 0.07706 0.10477 0.145 0.0
C872 C 0.18631 0.10622 0.15401 0.0
O873 O 0.08125 0.13053 0.14587 0.0
C874 C 0.16036 0.17629 0.11825 0.0
O875 O 0.11924 0.12179 0.18387 0.0
O876 O 0.12199 0.16233 0.1655 0.0
O877 O 0.18382 0.10563 0.12806 0.0
O878 O 0.1655 0.10686 0.16874 0.0
C879 C 0.11054 0.13872 0.07732 0.0
O880 O 0.13434 0.17615 0.11806 0.0
O881 O 0.1731 0.15421 0.11681 0.0
C882 C 0.12167 0.14765 0.18635 0.0
O883 O 0.09645 0.14097 0.09847 0.0
O884 O 0.13644 0.13747 0.07914 0.0
C885 C 0.141 0.06833 0.10804 0.0
Fe886 Fe 0.09808 0.83932 0.38687 0.0
Fe887 Fe 0.12286 0.8922 0.36485 0.0
O888 O 0.12243 0.86659 0.38966 0.0
Fe889 Fe 0.14647 0.86816 0.41723 0.0
O890 O 0.1605 0.83588 0.40659 0.0
O891 O 0.12086 0.81393 0.40221 0.0
O892 O 0.11101 0.82837 0.35418 0.0
C893 C 0.11252 0.84341 0.33367 0.0
C894 C 0.0974 0.85042 0.4417 0.0
O895 O 0.11121 0.86923 0.33638 0.0
C896 C 0.13295 0.92167 0.41481 0.0
O897 O 0.07105 0.85987 0.37069 0.0
O898 O 0.08839 0.90174 0.37267 0.0
O899 O 0.12337 0.85188 0.44169 0.0
O900 O 0.0838 0.84867 0.41949 0.0
C901 C 0.17756 0.88534 0.37208 0.0
O902 O 0.13456 0.91968 0.38895 0.0
O903 O 0.13375 0.90064 0.42924 0.0
C904 C 0.06796 0.88562 0.37057 0.0
O905 O 0.15739 0.88417 0.35557 0.0
O906 O 0.17392 0.88481 0.39772 0.0
C907 C 0.14685 0.81384 0.40328 0.0
Fe908 Fe 0.36864 0.92026 0.65051 0.0
Fe909 Fe 0.34085 0.89227 0.60024 0.0
O910 O 0.36711 0.89333 0.62572 0.0
Fe911 Fe 0.39178 0.86755 0.62637 0.0
O912 O 0.38232 0.85778 0.66039 0.0
O913 O 0.3835 0.89951 0.67799 0.0
O914 O 0.33527 0.9106 0.66288 0.0
C915 C 0.31381 0.90918 0.64805 0.0
C916 C 0.42255 0.91627 0.63856 0.0
O917 O 0.31526 0.90832 0.62216 0.0
C918 C 0.38742 0.87477 0.57148 0.0
O919 O 0.35441 0.94594 0.62742 0.0
O920 O 0.35238 0.92479 0.58727 0.0
O921 O 0.41974 0.89042 0.63938 0.0
O922 O 0.40203 0.93139 0.63948 0.0
C923 C 0.34212 0.8385 0.61321 0.0
O924 O 0.36164 0.87584 0.57373 0.0
O925 O 0.40287 0.87569 0.59244 0.0
C926 C 0.3545 0.94661 0.60147 0.0
O927 O 0.32794 0.85967 0.61181 0.0
O928 O 0.36808 0.84025 0.61335 0.0
C929 C 0.38365 0.87377 0.68096 0.0
Fe930 Fe 0.41195 0.14026 0.8776 0.0
Fe931 Fe 0.38002 0.09269 0.84905 0.0
O932 O 0.38332 0.11751 0.87586 0.0
Fe933 Fe 0.35793 0.11962 0.90081 0.0
O934 O 0.35055 0.15433 0.8919 0.0
O935 O 0.39332 0.16907 0.89301 0.0
O936 O 0.40303 0.15387 0.84456 0.0
C937 C 0.40024 0.13962 0.82281 0.0
C938 C 0.40748 0.12818 0.93143 0.0
O939 O 0.39753 0.11378 0.82371 0.0
C940 C 0.36056 0.06448 0.89525 0.0
O941 O 0.43563 0.11546 0.8627 0.0
O942 O 0.41154 0.07691 0.85986 0.0
O943 O 0.38178 0.13072 0.92875 0.0
O944 O 0.42246 0.12793 0.91077 0.0
C945 C 0.32759 0.11026 0.8514 0.0
O946 O 0.36165 0.06717 0.86952 0.0
O947 O 0.36376 0.08497 0.91115 0.0
C948 C 0.43436 0.08946 0.86206 0.0
O949 O 0.34834 0.10722 0.83684 0.0
O950 O 0.32957 0.109 0.87727 0.0
C951 C 0.36787 0.17377 0.89307 0.0
Fe952 Fe 0.60175 0.34174 0.88743 0.0
Fe953 Fe 0.62733 0.39424 0.86553 0.0
O954 O 0.62598 0.36906 0.89072 0.0
Fe955 Fe 0.64895 0.37112 0.91917 0.0
O956 O 0.66341 0.33861 0.90966 0.0
O957 O 0.62382 0.31674 0.90414 0.0
O958 O 0.61591 0.33024 0.85535 0.0
C959 C 0.61786 0.345 0.83463 0.0
C960 C 0.59898 0.35403 0.94195 0.0
O961 O 0.61672 0.37085 0.837 0.0
C962 C 0.63563 0.42464 0.9153 0.0
O963 O 0.57548 0.3619 0.86985 0.0
O964 O 0.59256 0.40384 0.87184 0.0
O965 O 0.62495 0.35524 0.94291 0.0
O966 O 0.58621 0.35171 0.91929 0.0
C967 C 0.68166 0.38794 0.87508 0.0
O968 O 0.63811 0.42216 0.88956 0.0
O969 O 0.63578 0.40385 0.93013 0.0
C970 C 0.57231 0.38758 0.86903 0.0
O971 O 0.6622 0.38604 0.85779 0.0
O972 O 0.67703 0.38757 0.90052 0.0
C973 C 0.64974 0.31656 0.90624 0.0
Fe974 Fe 0.83803 0.377 0.10679 0.0
Fe975 Fe 0.86733 0.40479 0.15644 0.0
O976 O 0.86542 0.3784 0.1311 0.0
Fe977 Fe 0.89086 0.35341 0.12997 0.0
O978 O 0.90016 0.36294 0.09585 0.0
O979 O 0.85811 0.36164 0.07911 0.0
O980 O 0.84803 0.41007 0.09398 0.0
C981 C 0.85063 0.43166 0.1085 0.0
C982 C 0.84163 0.32305 0.11856 0.0
O983 O 0.8518 0.4306 0.13443 0.0
C984 C 0.88397 0.35778 0.18492 0.0
O985 O 0.81295 0.39197 0.13004 0.0
O986 O 0.83467 0.39423 0.16986 0.0
O987 O 0.86746 0.32577 0.11719 0.0
O988 O 0.82664 0.34374 0.11826 0.0
C989 C 0.92105 0.40246 0.1429 0.0
O990 O 0.88336 0.3836 0.1828 0.0
O991 O 0.88302 0.34238 0.16393 0.0
C992 C 0.81262 0.39263 0.156 0.0
O993 O 0.90015 0.41699 0.14464 0.0
O994 O 0.9188 0.37654 0.14268 0.0
C995 C 0.88376 0.3616 0.0756 0.0
Fe996 Fe 0.86299 0.62341 0.39362 0.0
Fe997 Fe 0.91633 0.64594 0.37055 0.0
O998 O 0.88815 0.62264 0.36834 0.0
Fe999 Fe 0.8851 0.59857 0.34082 0.0
O1000 O 0.85295 0.61256 0.32944 0.0
O1001 O 0.83459 0.61262 0.37006 0.0
O1002 O 0.85468 0.65815 0.38571 0.0
C1003 C 0.8716 0.67796 0.38705 0.0
C1004 C 0.86732 0.56847 0.38654 0.0
O1005 O 0.89717 0.67386 0.38688 0.0
C1006 C 0.93959 0.59614 0.35347 0.0
O1007 O 0.88688 0.63437 0.42172 0.0
O1008 O 0.92737 0.63285 0.40319 0.0
O1009 O 0.86773 0.57187 0.36085 0.0
O1010 O 0.86988 0.58867 0.40291 0.0
C1011 C 0.90407 0.64691 0.31586 0.0
O1012 O 0.94045 0.62212 0.35479 0.0
O1013 O 0.91702 0.58327 0.35075 0.0
C1014 C 0.91267 0.63223 0.42403 0.0
O1015 O 0.90688 0.66039 0.33807 0.0
O1016 O 0.90175 0.62097 0.31584 0.0
C1017 C 0.83222 0.61417 0.34422 0.0
Fe1018 Fe 0.90719 0.84753 0.87862 0.0
Fe1019 Fe 0.85493 0.87207 0.9006 0.0
O1020 O 0.87983 0.87027 0.87502 0.0
Fe1021 Fe 0.87694 0.89109 0.84605 0.0
O1022 O 0.90982 0.90733 0.85323 0.0
O1023 O 0.9322 0.86959 0.86141 0.0
O1024 O 0.91854 0.8641 0.91048 0.0
C1025 C 0.90389 0.86499 0.93135 0.0
C1026 C 0.89547 0.84063 0.82407 0.0
O1027 O 0.8781 0.86278 0.92885 0.0
C1028 C 0.8234 0.87776 0.85193 0.0
O1029 O 0.88679 0.8213 0.89624 0.0
O1030 O 0.8448 0.83678 0.89396 0.0
O1031 O 0.89195 0.86615 0.82228 0.0
O1032 O 0.89761 0.82957 0.84704 0.0
C1033 C 0.86277 0.92594 0.89046 0.0
O1034 O 0.82679 0.8817 0.87746 0.0
O1035 O 0.8438 0.87598 0.83676 0.0
C1036 C 0.86104 0.81716 0.89591 0.0
O1037 O 0.86419 0.90746 0.90805 0.0
O1038 O 0.86171 0.91997 0.865 0.0
C1039 C 0.93193 0.89475 0.85566 0.0
Fe1040 Fe 0.86525 0.11248 0.64049 0.0
Fe1041 Fe 0.83823 0.14726 0.59628 0.0
O1042 O 0.8675 0.13851 0.6159 0.0
Fe1043 Fe 0.89895 0.15605 0.61063 0.0
O1044 O 0.9005 0.16866 0.64591 0.0
O1045 O 0.89004 0.12907 0.66445 0.0
O1046 O 0.83856 0.13001 0.65885 0.0
C1047 C 0.81582 0.13593 0.6481 0.0
C1048 C 0.91585 0.10187 0.62113 0.0
O1049 O 0.81358 0.13896 0.62255 0.0
C1050 C 0.88037 0.14913 0.55792 0.0
O1051 O 0.8401 0.09145 0.62049 0.0
O1052 O 0.83516 0.11295 0.5815 0.0
O1053 O 0.92045 0.12727 0.61916 0.0
O1054 O 0.89185 0.0927 0.62447 0.0
C1055 C 0.86023 0.19801 0.60733 0.0
O1056 O 0.85729 0.15682 0.56598 0.0
O1057 O 0.89927 0.14421 0.57506 0.0
C1058 C 0.83316 0.09149 0.59533 0.0
O1059 O 0.83974 0.18215 0.61008 0.0
O1060 O 0.88331 0.18846 0.60147 0.0
C1061 C 0.89969 0.15332 0.66641 0.0
Fe1062 Fe 0.64624 0.10043 0.34889 0.0
Fe1063 Fe 0.65592 0.10755 0.41054 0.0
O1064 O 0.63785 0.11641 0.38034 0.0
Fe1065 Fe 0.61166 0.14083 0.38163 0.0
O1066 O 0.62819 0.16228 0.35681 0.0
O1067 O 0.6372 0.12931 0.32757 0.0
O1068 O 0.68108 0.11435 0.35142 0.0
C1069 C 0.69723 0.10893 0.37103 0.0
C1070 C 0.5903 0.09917 0.34517 0.0
O1071 O 0.68791 0.10006 0.39322 0.0
C1072 C 0.60232 0.11671 0.4301 0.0
O1073 O 0.65619 0.06815 0.36417 0.0
O1074 O 0.64376 0.07212 0.40696 0.0
O1075 O 0.58997 0.12338 0.35508 0.0
O1076 O 0.61206 0.08569 0.34479 0.0
C1077 C 0.65382 0.16311 0.41706 0.0
O1078 O 0.62779 0.11402 0.43378 0.0
O1079 O 0.59279 0.12155 0.4066 0.0
C1080 C 0.64855 0.05732 0.38611 0.0
O1081 O 0.66882 0.14239 0.41552 0.0
O1082 O 0.62913 0.16222 0.40837 0.0
C1083 C 0.63323 0.15432 0.3328 0.0
Fe1084 Fe 0.60372 0.84597 0.14649 0.0
Fe1085 Fe 0.64479 0.87758 0.11185 0.0
O1086 O 0.61955 0.87721 0.13726 0.0
Fe1087 Fe 0.60982 0.90805 0.15365 0.0
O1088 O 0.57457 0.90343 0.1412 0.0
O1089 O 0.571 0.86113 0.15511 0.0
O1090 O 0.58991 0.8404 0.11201 0.0
C1091 C 0.6042 0.83996 0.09076 0.0
C1092 C 0.61118 0.87046 0.19669 0.0
O1093 O 0.62847 0.84973 0.09106 0.0
C1094 C 0.6654 0.91547 0.1526 0.0
O1095 O 0.63313 0.82472 0.1391 0.0
O1096 O 0.66612 0.85402 0.13039 0.0
O1097 O 0.60217 0.89211 0.18629 0.0
O1098 O 0.61676 0.8501 0.18154 0.0
C1099 C 0.61974 0.92481 0.0992 0.0
O1100 O 0.66531 0.90556 0.12838 0.0
O1101 O 0.6443 0.91428 0.16704 0.0
C1102 C 0.65828 0.83012 0.13604 0.0
O1103 O 0.62554 0.90103 0.09115 0.0
O1104 O 0.61639 0.92989 0.12438 0.0
C1105 C 0.55992 0.88278 0.14701 0.0
Fe1106 Fe 0.40223 0.66447 0.10939 0.0
Fe1107 Fe 0.34325 0.6474 0.09454 0.0
O1108 O 0.373 0.64355 0.11531 0.0
Fe1109 Fe 0.37345 0.61911 0.14164 0.0
O1110 O 0.40302 0.60204 0.12765 0.0
O1111 O 0.42707 0.63938 0.12009 0.0
O1112 O 0.40476 0.65088 0.07453 0.0
C1113 C 0.38575 0.65293 0.05678 0.0
C1114 C 0.40226 0.66541 0.16532 0.0
O1115 O 0.36161 0.65758 0.06408 0.0
C1116 C 0.32082 0.63606 0.14634 0.0
O1117 O 0.38287 0.69388 0.09803 0.0
O1118 O 0.34008 0.68285 0.10621 0.0
O1119 O 0.39531 0.64025 0.16504 0.0
O1120 O 0.40157 0.67921 0.14376 0.0
C1121 C 0.34495 0.59168 0.0973 0.0
O1122 O 0.31916 0.63765 0.12063 0.0
O1123 O 0.34384 0.63372 0.15822 0.0
C1124 C 0.35874 0.70083 0.10331 0.0
O1125 O 0.34471 0.61221 0.08196 0.0
O1126 O 0.35179 0.59401 0.12244 0.0
C1127 C 0.42578 0.61391 0.1238 0.0
Fe1128 Fe 0.14812 0.58336 0.85058 0.0
Fe1129 Fe 0.16609 0.59752 0.9096 0.0
O1130 O 0.14705 0.60561 0.87961 0.0
Fe1131 Fe 0.12703 0.63542 0.87841 0.0
O1132 O 0.14468 0.64841 0.84866 0.0
O1133 O 0.14251 0.60963 0.82545 0.0
O1134 O 0.1847 0.58998 0.84769 0.0
C1135 C 0.20187 0.58581 0.86682 0.0
C1136 C 0.09365 0.59446 0.85162 0.0
O1137 O 0.19408 0.58186 0.89098 0.0
C1138 C 0.1177 0.62009 0.93112 0.0
O1139 O 0.15384 0.55234 0.86982 0.0
O1140 O 0.14779 0.56485 0.91245 0.0
O1141 O 0.09991 0.61934 0.85689 0.0
O1142 O 0.11152 0.57606 0.85214 0.0
C1143 C 0.17527 0.65293 0.90786 0.0
O1144 O 0.14206 0.61222 0.93342 0.0
O1145 O 0.1074 0.6254 0.90797 0.0
C1146 C 0.14809 0.54633 0.89405 0.0
O1147 O 0.18558 0.62953 0.90925 0.0
O1148 O 0.1508 0.65618 0.89986 0.0
C1149 C 0.14556 0.63532 0.82616 0.0
Fe1150 Fe 0.13418 0.38329 0.61271 0.0
Fe1151 Fe 0.08396 0.35741 0.63955 0.0
O1152 O 0.10975 0.3835 0.63901 0.0
Fe1153 Fe 0.11138 0.40981 0.66463 0.0
O1154 O 0.146 0.40104 0.67513 0.0
O1155 O 0.16171 0.39926 0.63349 0.0
O1156 O 0.14666 0.35014 0.62299 0.0
C1157 C 0.13151 0.32887 0.62406 0.0
C1158 C 0.12377 0.4378 0.61588 0.0
O1159 O 0.1058 0.33067 0.62595 0.0
C1160 C 0.05594 0.40524 0.65563 0.0
O1161 O 0.11148 0.36713 0.58685 0.0
O1162 O 0.07115 0.36547 0.60549 0.0
O1163 O 0.12394 0.4361 0.64171 0.0
O1164 O 0.12328 0.41643 0.60076 0.0
C1165 C 0.09667 0.36273 0.69433 0.0
O1166 O 0.05767 0.37951 0.65341 0.0
O1167 O 0.07705 0.42061 0.65617 0.0
C1168 C 0.08582 0.36401 0.58461 0.0
O1169 O 0.09462 0.34709 0.67346 0.0
O1170 O 0.09896 0.38837 0.69209 0.0
C1171 C 0.16584 0.40151 0.65903 0.0
Fe1172 Fe 0.65028 0.63394 0.5982 0.0
Fe1173 Fe 0.62208 0.61036 0.64795 0.0
O1174 O 0.62372 0.63493 0.62209 0.0
Fe1175 Fe 0.59872 0.66039 0.62009 0.0
O1176 O 0.588 0.6485 0.58634 0.0
O1177 O 0.62934 0.64721 0.56964 0.0
O1178 O 0.63947 0.60018 0.58624 0.0
C1179 C 0.63754 0.57968 0.60127 0.0
C1180 C 0.64818 0.68875 0.60852 0.0
O1181 O 0.63705 0.58267 0.62713 0.0
C1182 C 0.60784 0.65959 0.67513 0.0
O1183 O 0.67593 0.62053 0.62257 0.0
O1184 O 0.65492 0.62162 0.66189 0.0
O1185 O 0.62223 0.68678 0.60668 0.0
O1186 O 0.66247 0.66764 0.60888 0.0
C1187 C 0.56841 0.61252 0.63244 0.0
O1188 O 0.60684 0.63361 0.67346 0.0
O1189 O 0.60814 0.67359 0.65382 0.0
C1190 C 0.67668 0.62212 0.64858 0.0
O1191 O 0.58917 0.59794 0.63518 0.0
O1192 O 0.57075 0.63847 0.63305 0.0
C1193 C 0.60349 0.64665 0.56618 0.0
Fe1194 Fe 0.40473 0.34854 0.37929 0.0
Fe1195 Fe 0.38428 0.40262 0.35746 0.0
O1196 O 0.3816 0.37576 0.38086 0.0
Fe1197 Fe 0.3557 0.37614 0.40545 0.0
O1198 O 0.34122 0.34403 0.39228 0.0
O1199 O 0.38016 0.32244 0.39079 0.0
O1200 O 0.39344 0.33969 0.34476 0.0
C1201 C 0.39499 0.35582 0.3251 0.0
C1202 C 0.40179 0.35537 0.43434 0.0
O1203 O 0.39791 0.38137 0.32948 0.0
C1204 C 0.37014 0.42999 0.40669 0.0
O1205 O 0.43363 0.36997 0.36755 0.0
O1206 O 0.41807 0.41178 0.37062 0.0
O1207 O 0.37623 0.35901 0.43185 0.0
O1208 O 0.41701 0.35553 0.41384 0.0
C1209 C 0.32916 0.39452 0.3573 0.0
O1210 O 0.37103 0.42896 0.38081 0.0
O1211 O 0.36862 0.40831 0.42009 0.0
C1212 C 0.43783 0.39565 0.37008 0.0
O1213 O 0.35058 0.39459 0.34337 0.0
O1214 O 0.33051 0.39317 0.38322 0.0
C1215 C 0.35422 0.32209 0.39074 0.0
H1216 H 0.06138 0.18785 0.34451 0.0
H1217 H 0.13001 0.20195 0.1994 0.0
H1218 H 0.08377 0.26538 0.30942 0.0
H1219 H 0.10855 0.12452 0.2352 0.0
H1220 H 0.12026 0.22516 0.24268 0.0
H1221 H 0.08564 0.16426 0.30825 0.0
C1222 C 0.07166 0.19996 0.32934 0.0
C1223 C 0.07005 0.22865 0.32969 0.0
C1224 C 0.11798 0.20307 0.2412 0.0
C1225 C 0.09775 0.20166 0.28794 0.0
C1226 C 0.12349 0.18977 0.21646 0.0
C1227 C 0.11953 0.16127 0.2135 0.0
C1228 C 0.10826 0.18781 0.26313 0.0
C1229 C 0.11154 0.14654 0.23644 0.0
C1230 C 0.08556 0.18644 0.30864 0.0
C1231 C 0.08421 0.24323 0.30979 0.0
N1232 N 0.10578 0.16004 0.26019 0.0
N1233 N 0.09711 0.22954 0.28944 0.0
H1234 H 0.06442 0.80518 0.60578 0.0
H1235 H 0.04238 0.84211 0.44912 0.0
H1236 H 0.99078 0.78516 0.55833 0.0
H1237 H 0.11948 0.8512 0.49382 0.0
H1238 H 0.01978 0.83158 0.49182 0.0
H1239 H 0.08062 0.83317 0.56841 0.0
C1240 C 0.05135 0.80719 0.58776 0.0
C1241 C 0.02649 0.79233 0.58489 0.0
C1242 C 0.04159 0.83619 0.49233 0.0
C1243 C 0.04512 0.82395 0.5419 0.0
C1244 C 0.05455 0.84214 0.46794 0.0
C1245 C 0.08302 0.84694 0.46778 0.0
C1246 C 0.05717 0.83502 0.51675 0.0
C1247 C 0.09759 0.84713 0.49288 0.0
C1248 C 0.06069 0.82308 0.56637 0.0
C1249 C 0.01026 0.79597 0.56124 0.0
N1250 N 0.08455 0.84091 0.5163 0.0
N1251 N 0.0201 0.81102 0.5404 0.0
H1252 H 0.47624 0.84981 0.82827 0.0
H1253 H 0.38213 0.82004 0.69585 0.0
H1254 H 0.44436 0.76901 0.80583 0.0
H1255 H 0.40283 0.90142 0.7272 0.0
H1256 H 0.40176 0.801 0.73752 0.0
H1257 H 0.44716 0.86906 0.79284 0.0
C1258 C 0.46305 0.83607 0.81594 0.0
C1259 C 0.46302 0.80766 0.81984 0.0
C1260 C 0.40168 0.82304 0.73546 0.0
C1261 C 0.42956 0.82971 0.77906 0.0
C1262 C 0.39047 0.83394 0.71166 0.0
C1263 C 0.39118 0.86238 0.70784 0.0
C1264 C 0.41394 0.84066 0.75548 0.0
C1265 C 0.40199 0.87938 0.72915 0.0
C1266 C 0.44631 0.84714 0.79577 0.0
C1267 C 0.44517 0.791 0.80346 0.0
N1268 N 0.4133 0.86823 0.75187 0.0
N1269 N 0.42937 0.80225 0.78355 0.0
H1270 H 0.51912 0.15764 0.07196 0.0
H1271 H 0.38268 0.13879 0.97999 0.0
H1272 H 0.4486 0.20895 0.07674 0.0
H1273 H 0.46191 0.12339 0.94578 0.0
H1274 H 0.40518 0.15063 0.02383 0.0
H1275 H 0.49699 0.13288 0.03221 0.0
C1276 C 0.4989 0.16334 0.06487 0.0
C1277 C 0.48509 0.18456 0.07804 0.0
C1278 C 0.41756 0.14425 0.00678 0.0
C1279 C 0.46006 0.1568 0.03348 0.0
C1280 C 0.40477 0.13747 0.98176 0.0
C1281 C 0.4205 0.13078 0.95898 0.0
C1282 C 0.44624 0.14418 0.00913 0.0
C1283 C 0.44905 0.12902 0.9627 0.0
C1284 C 0.48636 0.14931 0.04241 0.0
C1285 C 0.45936 0.19192 0.0678 0.0
N1286 N 0.46113 0.13605 0.98729 0.0
N1287 N 0.44758 0.17792 0.04631 0.0
H1288 H 0.08885 0.73115 0.19301 0.0
H1289 H 0.10262 0.86816 0.28497 0.0
H1290 H 0.03957 0.80264 0.1834 0.0
H1291 H 0.11822 0.78918 0.31958 0.0
H1292 H 0.09228 0.84553 0.24089 0.0
H1293 H 0.11069 0.75315 0.23442 0.0
C1294 C 0.08288 0.75146 0.19952 0.0
C1295 C 0.06318 0.76561 0.1845 0.0
C1296 C 0.09836 0.83322 0.25807 0.0
C1297 C 0.08769 0.79052 0.23088 0.0
C1298 C 0.1043 0.84611 0.28322 0.0
C1299 C 0.11063 0.83046 0.30612 0.0
C1300 C 0.09895 0.80454 0.25573 0.0
C1301 C 0.11283 0.80194 0.30251 0.0
C1302 C 0.0953 0.76396 0.22289 0.0
C1303 C 0.05546 0.79154 0.1939 0.0
N1304 N 0.10667 0.78977 0.27778 0.0
N1305 N 0.0679 0.80326 0.21631 0.0
H1306 H 0.49684 0.81513 0.44784 0.0
H1307 H 0.36034 0.85875 0.52386 0.0
H1308 H 0.41531 0.78543 0.42511 0.0
H1309 H 0.44166 0.87308 0.55859 0.0
H1310 H 0.38059 0.83972 0.48254 0.0
H1311 H 0.47716 0.84363 0.4841 0.0
C1312 C 0.47485 0.81471 0.45035 0.0
C1313 C 0.45775 0.7976 0.43364 0.0
C1314 C 0.394 0.84726 0.49912 0.0
C1315 C 0.43518 0.83025 0.47472 0.0
C1316 C 0.38245 0.85825 0.52267 0.0
C1317 C 0.39931 0.86711 0.5449 0.0
C1318 C 0.4226 0.84518 0.49775 0.0
C1319 C 0.42786 0.8661 0.54209 0.0
C1320 C 0.46365 0.83096 0.47101 0.0
C1321 C 0.42937 0.79797 0.43772 0.0
N1322 N 0.43862 0.85507 0.51904 0.0
N1323 N 0.41902 0.81395 0.45786 0.0
H1324 H 0.45095 0.25365 0.70278 0.0
H1325 H 0.40169 0.11537 0.77165 0.0
H1326 H 0.45117 0.17429 0.66205 0.0
H1327 H 0.40597 0.1944 0.81322 0.0
H1328 H 0.41132 0.13776 0.72855 0.0
H1329 H 0.42521 0.23367 0.73996 0.0
C1330 C 0.44509 0.23213 0.70137 0.0
C1331 C 0.45367 0.21548 0.67957 0.0
C1332 C 0.40987 0.15022 0.74707 0.0
C1333 C 0.42466 0.19239 0.72225 0.0
C1334 C 0.40444 0.13744 0.7717 0.0
C1335 C 0.40359 0.15297 0.79619 0.0
C1336 C 0.41451 0.17871 0.74694 0.0
C1337 C 0.40694 0.18154 0.79494 0.0
C1338 C 0.43049 0.2207 0.72268 0.0
C1339 C 0.44529 0.1878 0.67868 0.0
N1340 N 0.41254 0.19344 0.77078 0.0
N1341 N 0.43164 0.177 0.69999 0.0
H1342 H 0.06133 0.19935 0.92116 0.0
H1343 H 0.05672 0.12808 0.06532 0.0
H1344 H 0.98826 0.16175 0.95337 0.0
H1345 H 0.13211 0.15414 0.02829 0.0
H1346 H 0.03211 0.1365 0.02254 0.0
H1347 H 0.0883 0.17928 0.95788 0.0
C1348 C 0.05095 0.18666 0.9358 0.0
C1349 C 0.02236 0.18263 0.93443 0.0
C1350 C 0.05407 0.14012 0.02359 0.0
C1351 C 0.05322 0.15969 0.97663 0.0
C1352 C 0.06813 0.13542 0.04807 0.0
C1353 C 0.09643 0.14087 0.05046 0.0
C1354 C 0.0683 0.15071 0.00139 0.0
C1355 C 0.11026 0.14988 0.02735 0.0
C1356 C 0.06643 0.17515 0.95673 0.0
C1357 C 0.01017 0.16566 0.95374 0.0
N1358 N 0.09597 0.15493 0.00384 0.0
N1359 N 0.02563 0.15513 0.97426 0.0
H1360 H 0.31008 0.07202 0.27559 0.0
H1361 H 0.23468 0.09172 0.13052 0.0
H1362 H 0.3402 0.04133 0.19853 0.0
H1363 H 0.19939 0.11245 0.20841 0.0
H1364 H 0.27755 0.08109 0.15449 0.0
H1365 H 0.27358 0.09504 0.25056 0.0
C1366 C 0.30926 0.07042 0.25343 0.0
C1367 C 0.3279 0.05428 0.23919 0.0
C1368 C 0.26048 0.08821 0.16628 0.0
C1369 C 0.28623 0.08044 0.21047 0.0
C1370 C 0.23602 0.09429 0.1526 0.0
C1371 C 0.21328 0.10246 0.16753 0.0
C1372 C 0.26215 0.09039 0.19503 0.0
C1373 C 0.21626 0.10571 0.19611 0.0
C1374 C 0.28838 0.08349 0.23915 0.0
C1375 C 0.32596 0.0531 0.21043 0.0
N1376 N 0.24014 0.09942 0.20894 0.0
N1377 N 0.30533 0.06575 0.19706 0.0
H1378 H 0.21133 0.07203 0.45014 0.0
H1379 H 0.1318 0.93445 0.4699 0.0
H1380 H 0.16419 0.06275 0.52309 0.0
H1381 H 0.14045 0.97104 0.39069 0.0
H1382 H 0.14444 0.97879 0.49178 0.0
H1383 H 0.18839 0.03159 0.42995 0.0
C1384 C 0.19573 0.0616 0.46172 0.0
C1385 C 0.18867 0.07121 0.48775 0.0
C1386 C 0.14301 0.97707 0.46964 0.0
C1387 C 0.16305 0.02436 0.46522 0.0
C1388 C 0.13594 0.95184 0.45711 0.0
C1389 C 0.13574 0.9489 0.42839 0.0
C1390 C 0.15025 -0.00083 0.45326 0.0
C1391 C 0.14085 0.97218 0.41286 0.0
C1392 C 0.1827 0.03853 0.45022 0.0
C1393 C 0.16952 0.05618 0.50261 0.0
N1394 N 0.14838 -0.00378 0.42551 0.0
N1395 N 0.15722 0.03326 0.49108 0.0
H1396 H 0.19247 0.96211 0.75942 0.0
H1397 H 0.26321 0.9113 0.62285 0.0
H1398 H 0.153 0.9616 0.67942 0.0
H1399 H 0.30311 0.91411 0.70273 0.0
H1400 H 0.21982 0.92144 0.64439 0.0
H1401 H 0.22969 0.93569 0.7404 0.0
C1402 C 0.19137 0.95597 0.73796 0.0
C1403 C 0.16991 0.9645 0.72084 0.0
C1404 C 0.23802 0.91954 0.65723 0.0
C1405 C 0.2126 0.93468 0.69886 0.0
C1406 C 0.26283 0.91382 0.64494 0.0
C1407 C 0.28696 0.91245 0.66095 0.0
C1408 C 0.23736 0.92401 0.68572 0.0
C1409 C 0.28513 0.91547 0.68951 0.0
C1410 C 0.21268 0.94096 0.72708 0.0
C1411 C 0.16936 0.95576 0.69327 0.0
N1412 N 0.26082 0.92144 0.70093 0.0
N1413 N 0.19068 0.94171 0.68302 0.0
H1414 H 0.24986 0.92955 0.91825 0.0
H1415 H 0.3594 0.0498 0.94895 0.0
H1416 H 0.28577 0.94594 -0.0012 0.0
H1417 H 0.33527 0.02136 0.8674 0.0
H1418 H 0.33359 0.01149 0.96782 0.0
H1419 H 0.2809 0.96357 0.89962 0.0
C1420 C 0.26417 0.94038 0.93211 0.0
C1421 C 0.26506 0.9349 0.96023 0.0
C1422 C 0.33422 0.01345 0.94579 0.0
C1423 C 0.30093 0.9739 0.93881 0.0
C1424 C 0.34899 0.03528 0.93499 0.0
C1425 C 0.34923 0.03896 0.90655 0.0
C1426 C 0.31938 0.99534 0.92804 0.0
C1427 C 0.33556 0.0194 0.88944 0.0
C1428 C 0.28207 0.95969 0.92136 0.0
C1429 C 0.28427 0.94951 0.97703 0.0
N1430 N 0.32089 -0.00137 0.90048 0.0
N1431 N 0.30138 0.96845 0.96606 0.0
H1432 H 0.30805 0.93599 0.26642 0.0
H1433 H 0.22391 0.90224 0.40099 0.0
H1434 H 0.32892 0.96837 0.34742 0.0
H1435 H 0.19351 0.88408 0.31872 0.0
H1436 H 0.26698 0.91889 0.38217 0.0
H1437 H 0.27024 0.90954 0.28588 0.0
C1438 C 0.30487 0.93735 0.28829 0.0
C1439 C 0.32145 0.95472 0.30524 0.0
C1440 C 0.25096 0.91104 0.36826 0.0
C1441 C 0.27841 0.9245 0.32759 0.0
C1442 C 0.2264 0.90143 0.379 0.0
C1443 C 0.20491 0.89215 0.36139 0.0
C1444 C 0.2541 0.91125 0.33972 0.0
C1445 C 0.20938 0.89144 0.33305 0.0
C1446 C 0.28327 0.9223 0.29936 0.0
C1447 C 0.31643 0.95559 0.33347 0.0
N1448 N 0.23339 0.90109 0.32308 0.0
N1449 N 0.29531 0.94082 0.3437 0.0
H1450 H 0.30408 0.06363 0.48641 0.0
H1451 H 0.35479 -0.00173 0.62478 0.0
H1452 H 0.3097 0.10775 0.56398 0.0
H1453 H 0.35182 0.95552 0.54635 0.0
H1454 H 0.3474 0.04126 0.6014 0.0
H1455 H 0.33148 0.02743 0.50596 0.0
C1456 C 0.31166 0.06603 0.50736 0.0
C1457 C 0.30403 0.08837 0.52381 0.0
C1458 C 0.34872 0.02252 0.58928 0.0
C1459 C 0.33484 0.04678 0.5465 0.0
C1460 C 0.35283 -0.00207 0.60264 0.0
C1461 C 0.35321 0.97315 0.58757 0.0
C1462 C 0.34479 0.02228 0.56068 0.0
C1463 C 0.35108 0.97404 0.55888 0.0
C1464 C 0.32721 0.04528 0.51858 0.0
C1465 C 0.31471 0.09062 0.5507 0.0
N1466 N 0.34656 -0.00186 0.54641 0.0
N1467 N 0.32907 0.06974 0.56142 0.0
H1468 H 0.17255 0.04781 0.80725 0.0
H1469 H 0.31481 0.11777 0.79704 0.0
H1470 H 0.18531 0.10412 0.74183 0.0
H1471 H 0.27787 0.10421 0.87532 0.0
H1472 H 0.26934 0.11263 0.77486 0.0
H1473 H 0.21264 0.06707 0.83144 0.0
C1474 C 0.18331 0.065 0.79845 0.0
C1475 C 0.17483 0.07546 0.77329 0.0
C1476 C 0.27126 0.11135 0.79693 0.0
C1477 C 0.2221 0.09626 0.79988 0.0
C1478 C 0.29715 0.11404 0.80959 0.0
C1479 C 0.3002 0.11082 0.83802 0.0
C1480 C 0.24852 0.10493 0.81281 0.0
C1481 C 0.27659 0.10645 0.85332 0.0
C1482 C 0.20639 0.07578 0.81212 0.0
C1483 C 0.19084 0.09618 0.76167 0.0
N1484 N 0.25182 0.10312 0.84045 0.0
N1485 N 0.21403 0.10583 0.775 0.0
H1486 H 0.15257 0.94087 0.98653 0.0
H1487 H 0.14244 0.01773 0.13142 0.0
H1488 H 0.1721 0.90433 0.06405 0.0
H1489 H 0.13333 0.05683 0.05337 0.0
H1490 H 0.1424 0.9732 0.1075 0.0
H1491 H 0.13351 0.97993 0.01119 0.0
C1492 C 0.15218 0.9407 0.0087 0.0
C1493 C 0.16455 0.91968 0.02329 0.0
C1494 C 0.14012 0.99153 0.09565 0.0
C1495 C 0.14324 0.96438 0.05156 0.0
C1496 C 0.14022 0.01695 0.10929 0.0
C1497 C 0.13857 0.04108 0.09433 0.0
C1498 C 0.13835 0.99025 0.06687 0.0
C1499 C 0.13529 0.0388 0.06571 0.0
C1500 C 0.1415 0.9631 0.02278 0.0
C1501 C 0.16335 0.92045 0.052 0.0
N1502 N 0.1356 0.01387 0.0529 0.0
N1503 N 0.15336 0.94269 0.06522 0.0
H1504 H 0.20726 0.3386 0.07384 0.0
H1505 H 0.21607 0.18393 0.11966 0.0
H1506 H 0.28335 0.29588 0.08162 0.0
H1507 H 0.14067 0.22822 0.11338 0.0
H1508 H 0.24178 0.22645 0.11254 0.0
H1509 H 0.18367 0.30076 0.09568 0.0
C1510 C 0.21908 0.32136 0.08055 0.0
C1511 C 0.24721 0.32011 0.07552 0.0
C1512 C 0.21963 0.22694 0.113 0.0
C1513 C 0.22022 0.27645 0.10015 0.0
C1514 C 0.20488 0.20264 0.11696 0.0
C1515 C 0.17609 0.2024 0.11659 0.0
C1516 C 0.20553 0.25121 0.10851 0.0
C1517 C 0.1628 0.22734 0.11346 0.0
C1518 C 0.20558 0.29973 0.093 0.0
C1519 C 0.26161 0.29754 0.085 0.0
N1520 N 0.17763 0.25067 0.10923 0.0
N1521 N 0.24783 0.27631 0.09645 0.0
H1522 H 0.76635 0.19552 0.9468 0.0
H1523 H 0.62734 0.26466 0.90143 0.0
H1524 H 0.68899 0.15156 0.93672 0.0
H1525 H 0.70478 0.3084 0.91256 0.0
H1526 H 0.65116 0.2215 0.9059 0.0
H1527 H 0.74621 0.23481 0.9246 0.0
C1528 C 0.74532 0.19387 0.93929 0.0
C1529 C 0.72912 0.1705 0.94417 0.0
C1530 C 0.66297 0.24053 0.9071 0.0
C1531 C 0.7058 0.21554 0.91932 0.0
C1532 C 0.64936 0.26521 0.9047 0.0
C1533 C 0.664 0.29022 0.90723 0.0
C1534 C 0.69141 0.24088 0.91217 0.0
C1535 C 0.69257 0.28963 0.91097 0.0
C1536 C 0.73377 0.21639 0.92676 0.0
C1537 C 0.70209 0.16937 0.93377 0.0
N1538 N 0.70529 0.26537 0.91364 0.0
N1539 N 0.69109 0.19182 0.92233 0.0
H1540 H 0.07619 0.44155 0.2152 0.0
H1541 H 0.97089 0.37791 0.14315 0.0
H1542 H 0.05852 0.51427 0.17026 0.0
H1543 H 0.934 0.45741 0.14846 0.0
H1544 H 0.01551 0.39956 0.15367 0.0
H1545 H 0.0363 0.41863 0.19395 0.0
C1546 C 0.06422 0.45244 0.20019 0.0
C1547 C 0.07126 0.47936 0.19345 0.0
C1548 C -0.0024 0.41223 0.15257 0.0
C1549 C 0.02501 0.45346 0.16947 0.0
C1550 C 0.97214 0.39992 0.14642 0.0
C1551 C 0.94853 0.41575 0.14566 0.0
C1552 C -0.00054 0.44054 0.15822 0.0
C1553 C 0.95158 0.44432 0.14942 0.0
C1554 C 0.04145 0.43933 0.18804 0.0
C1555 C 0.05408 0.49318 0.17529 0.0
N1556 N 0.97659 0.4558 0.15585 0.0
N1557 N 0.0315 0.48006 0.16392 0.0
H1558 H 0.76444 0.80721 0.43535 0.0
H1559 H 0.90028 0.72294 0.40796 0.0
H1560 H 0.84323 0.82637 0.47394 0.0
H1561 H 0.81908 0.69531 0.38171 0.0
H1562 H 0.88098 0.76566 0.42511 0.0
H1563 H 0.78548 0.77043 0.40894 0.0
C1564 C 0.78615 0.80381 0.43818 0.0
C1565 C 0.80198 0.81967 0.4572 0.0
C1566 C 0.86745 0.75033 0.41534 0.0
C1567 C 0.82617 0.77777 0.42695 0.0
C1568 C 0.87848 0.72602 0.40543 0.0
C1569 C 0.8612 0.70538 0.39379 0.0
C1570 C 0.83901 0.75401 0.41347 0.0
C1571 C 0.8331 0.71051 0.39095 0.0
C1572 C 0.79815 0.78282 0.4231 0.0
C1573 C 0.83009 0.81442 0.45985 0.0
N1574 N 0.82285 0.73421 0.40095 0.0
N1575 N 0.84124 0.79385 0.44501 0.0
H1576 H 0.94613 0.98907 0.17119 0.0
H1577 H 0.02989 0.13069 0.15935 0.0
H1578 H 0.92018 0.06623 0.20569 0.0
H1579 H 0.06062 0.05178 0.13499 0.0
H1580 H 0.98538 0.10883 0.16798 0.0
H1581 H 0.98387 0.01325 0.14931 0.0
C1582 C 0.94812 0.0111 0.17388 0.0
C1583 C 0.93028 0.02554 0.19076 0.0
C1584 C 0.00181 0.09638 0.16046 0.0
C1585 C 0.97343 0.0533 0.16588 0.0
C1586 C 0.02718 0.10887 0.15549 0.0
C1587 C 0.04912 0.09295 0.14699 0.0
C1588 C -0.00157 0.06785 0.1568 0.0
C1589 C 0.04441 0.06476 0.14209 0.0
C1590 C 0.96972 0.0249 0.16144 0.0
C1591 C 0.93375 0.05414 0.1933 0.0
N1592 N 0.01968 0.05308 0.14732 0.0
N1593 N 0.95508 0.06703 0.18127 0.0
H1594 H 0.30581 0.68778 0.5332 0.0
H1595 H 0.28698 0.8261 0.61372 0.0
H1596 H 0.23211 0.69957 0.57859 0.0
H1597 H 0.36586 0.78925 0.60346 0.0
H1598 H 0.26471 0.78234 0.59973 0.0
H1599 H 0.32636 0.7283 0.55571 0.0
C1600 C 0.29411 0.69881 0.54829 0.0
C1601 C 0.26774 0.68988 0.555 0.0
C1602 C 0.28687 0.78385 0.60102 0.0
C1603 C 0.29075 0.73678 0.58019 0.0
C1604 C 0.29961 0.80875 0.60889 0.0
C1605 C 0.32835 0.81146 0.60921 0.0
C1606 C 0.30303 0.76182 0.59308 0.0
C1607 C 0.34368 0.78826 0.60314 0.0
C1608 C 0.30582 0.72193 0.56109 0.0
C1609 C 0.25281 0.70562 0.57352 0.0
N1610 N 0.33081 0.76454 0.59488 0.0
N1611 N 0.2646 0.7285 0.58564 0.0
H1612 H 0.10438 0.55472 0.31953 0.0
H1613 H 0.94528 0.5406 0.34842 0.0
H1614 H 0.05535 0.48156 0.30193 0.0
H1615 H 0.99246 0.61637 0.35588 0.0
H1616 H 0.9876 0.51585 0.34215 0.0
H1617 H 0.06639 0.57382 0.34473 0.0
C1618 C 0.08588 0.54236 0.32157 0.0
C1619 C 0.08274 0.5168 0.30804 0.0
C1620 C 0.98872 0.53785 0.34544 0.0
C1621 C 0.03908 0.53874 0.33639 0.0
C1622 C 0.96455 0.55205 0.34891 0.0
C1623 C 0.96526 0.58073 0.35202 0.0
C1624 C 0.01381 0.55239 0.34503 0.0
C1625 C 0.99088 0.59434 0.35302 0.0
C1626 C 0.06412 0.55337 0.33583 0.0
C1627 C 0.05848 0.50155 0.31168 0.0
N1628 N 0.01411 0.58008 0.34919 0.0
N1629 N 0.03732 0.513 0.32505 0.0
H1630 H 0.45317 0.49372 0.79646 0.0
H1631 H 0.52898 0.35905 0.84494 0.0
H1632 H 0.44062 0.41338 0.75874 0.0
H1633 H 0.55678 0.441 0.8684 0.0
H1634 H 0.49042 0.37836 0.8199 0.0
H1635 H 0.48643 0.47436 0.82844 0.0
C1636 C 0.45743 0.47207 0.79483 0.0
C1637 C 0.44421 0.45521 0.77472 0.0
C1638 C 0.50484 0.39209 0.83076 0.0
C1639 C 0.48179 0.43296 0.81147 0.0
C1640 C 0.52672 0.38107 0.84524 0.0
C1641 C 0.54635 0.39847 0.8584 0.0
C1642 C 0.50253 0.42066 0.82956 0.0
C1643 C 0.54232 0.42686 0.85817 0.0
C1644 C 0.47633 0.46105 0.81314 0.0
C1645 C 0.45045 0.42727 0.77369 0.0
N1646 N 0.52098 0.43711 0.84372 0.0
N1647 N 0.46875 0.41704 0.79182 0.0
H1648 H 0.97872 0.78835 0.67982 0.0
H1649 H 0.8955 0.78495 0.81802 0.0
H1650 H 0.94589 0.71392 0.71389 0.0
H1651 H 0.91186 0.85935 0.77447 0.0
H1652 H 0.91352 0.75852 0.77974 0.0
H1653 H 0.95486 0.81485 0.71457 0.0
C1654 C 0.96657 0.77756 0.69461 0.0
C1655 C 0.96446 0.74883 0.694 0.0
C1656 C 0.91289 0.7806 0.77841 0.0
C1657 C 0.93702 0.77905 0.73369 0.0
C1658 C 0.90259 0.79569 0.80025 0.0
C1659 C 0.90239 0.82438 0.79949 0.0
C1660 C 0.92337 0.79431 0.75581 0.0
C1661 C 0.91165 0.83725 0.77589 0.0
C1662 C 0.9528 0.79272 0.71432 0.0
C1663 C 0.9482 0.736 0.71356 0.0
N1664 N 0.92211 0.82212 0.7551 0.0
N1665 N 0.93524 0.7512 0.73268 0.0
H1666 H 0.96404 0.15934 0.40565 0.0
H1667 H 0.84911 0.1721 0.51792 0.0
H1668 H 0.91317 0.22977 0.41599 0.0
H1669 H 0.92511 0.13007 0.53079 0.0
H1670 H 0.86197 0.18057 0.47081 0.0
H1671 H 0.93827 0.13603 0.44118 0.0
C1672 C 0.94674 0.16946 0.4146 0.0
C1673 C 0.94087 0.19663 0.4083 0.0
C1674 C 0.87554 0.16906 0.48385 0.0
C1675 C 0.91163 0.17023 0.44862 0.0
C1676 C 0.86832 0.16424 0.51076 0.0
C1677 C 0.88642 0.15091 0.52853 0.0
C1678 C 0.90084 0.1602 0.47455 0.0
C1679 C 0.91084 0.14093 0.51794 0.0
C1680 C 0.93228 0.15625 0.43499 0.0
C1681 C 0.91846 0.20892 0.4206 0.0
N1682 N 0.9175 0.14603 0.49163 0.0
N1683 N 0.9048 0.19574 0.44049 0.0
H1684 H 0.50743 0.19468 0.22726 0.0
H1685 H 0.65039 0.15149 0.27994 0.0
H1686 H 0.57619 0.20373 0.17389 0.0
H1687 H 0.59523 0.19436 0.33286 0.0
H1688 H 0.62489 0.16815 0.24004 0.0
H1689 H 0.53937 0.18979 0.26605 0.0
C1690 C 0.52926 0.19539 0.22369 0.0
C1691 C 0.53924 0.19943 0.19738 0.0
C1692 C 0.61892 0.17448 0.26042 0.0
C1693 C 0.57574 0.19402 0.24153 0.0
C1694 C 0.63352 0.16516 0.28313 0.0
C1695 C 0.62476 0.17137 0.30971 0.0
C1696 C 0.59509 0.18942 0.26447 0.0
C1697 C 0.60269 0.18904 0.31276 0.0
C1698 C 0.54742 0.193 0.24585 0.0
C1699 C 0.56773 0.2006 0.19392 0.0
N1700 N 0.58811 0.19683 0.29038 0.0
N1701 N 0.58508 0.19754 0.21575 0.0
H1702 H 0.50526 0.80169 0.94738 0.0
H1703 H 0.63291 0.81809 0.0485 0.0
H1704 H 0.57502 0.74988 0.93896 0.0
H1705 H 0.55053 0.83167 0.07535 0.0
H1706 H 0.61413 0.79804 0.00546 0.0
H1707 H 0.52357 0.81822 0.99196 0.0
C1708 C 0.52459 0.79402 0.95496 0.0
C1709 C 0.53921 0.77511 0.93944 0.0
C1710 C 0.60025 0.8052 0.02093 0.0
C1711 C 0.55994 0.79348 0.99016 0.0
C1712 C 0.61088 0.81676 0.04536 0.0
C1713 C 0.59318 0.82657 0.06544 0.0
C1714 C 0.57181 0.80395 0.01642 0.0
C1715 C 0.56484 0.82424 0.06043 0.0
C1716 C 0.53485 0.8032 0.98039 0.0
C1717 C 0.56361 0.76496 0.95029 0.0
N1718 N 0.555 0.81342 0.03623 0.0
N1719 N 0.57355 0.77464 0.97495 0.0
H1720 H 0.9468 0.2384 0.81634 0.0
H1721 H 0.92336 0.12102 0.70448 0.0
H1722 H 0.00059 0.16967 0.81243 0.0
H1723 H 0.90734 0.20555 0.68702 0.0
H1724 H 0.94589 0.13572 0.74775 0.0
H1725 H 0.926 0.22379 0.77225 0.0
C1726 C 0.954 0.22005 0.80617 0.0
C1727 C 0.97484 0.2047 0.81804 0.0
C1728 C 0.93754 0.15098 0.73434 0.0
C1729 C 0.95156 0.18822 0.76782 0.0
C1730 C 0.92451 0.14268 0.70983 0.0
C1731 C 0.91338 0.16218 0.6923 0.0
C1732 C 0.93896 0.17888 0.74155 0.0
C1733 C 0.9157 0.18994 0.69999 0.0
C1734 C 0.94236 0.21193 0.78101 0.0
C1735 C 0.98417 0.18162 0.80394 0.0
N1736 N 0.92804 0.19749 0.72428 0.0
N1737 N 0.97213 0.17375 0.77956 0.0
H1738 H 0.55884 0.24157 0.53727 0.0
H1739 H 0.60952 0.10073 0.48307 0.0
H1740 H 0.55832 0.1729 0.59143 0.0
H1741 H 0.56075 0.15299 0.43225 0.0
H1742 H 0.59431 0.12611 0.52371 0.0
H1743 H 0.56544 0.20997 0.49853 0.0
C1744 C 0.56046 0.21988 0.54104 0.0
C1745 C 0.55816 0.20981 0.56757 0.0
C1746 C 0.58645 0.13148 0.50367 0.0
C1747 C 0.56546 0.17366 0.52341 0.0
C1748 C 0.59491 0.11692 0.48054 0.0
C1749 C 0.58651 0.12486 0.45425 0.0
C1750 C 0.57012 0.15449 0.50029 0.0
C1751 C 0.56773 0.14612 0.45208 0.0
C1752 C 0.56382 0.20186 0.51891 0.0
C1753 C 0.56001 0.18144 0.57125 0.0
N1754 N 0.56073 0.16068 0.47477 0.0
N1755 N 0.56383 0.1643 0.5494 0.0
H1756 H 0.59189 0.80596 0.359 0.0
H1757 H 0.63097 0.82898 0.22808 0.0
H1758 H 0.52081 0.84879 0.33027 0.0
H1759 H 0.58705 0.90467 0.23345 0.0
H1760 H 0.62055 0.82063 0.27594 0.0
H1761 H 0.61919 0.82853 0.32424 0.0
C1762 C 0.58222 0.82079 0.34599 0.0
C1763 C 0.5539 0.82501 0.34693 0.0
C1764 C 0.61399 0.83951 0.26691 0.0
C1765 C 0.58476 0.85027 0.30707 0.0
C1766 C 0.61966 0.84411 0.23948 0.0
C1767 C 0.6094 0.86724 0.22659 0.0
C1768 C 0.59764 0.85802 0.28131 0.0
C1769 C 0.59506 0.88633 0.24241 0.0
C1770 C 0.59775 0.83335 0.32597 0.0
C1771 C 0.54247 0.84456 0.32978 0.0
N1772 N 0.58897 0.88092 0.26874 0.0
N1773 N 0.55788 0.85619 0.3102 0.0
H1774 H 0.02408 0.83018 0.05527 0.0
H1775 H 0.88012 0.84677 0.97798 0.0
H1776 H 0.95114 0.78346 0.07485 0.0
H1777 H 0.95766 0.87403 0.94613 0.0
H1778 H 0.9039 0.83226 0.01957 0.0
H1779 H -0.00215 0.85433 0.021 0.0
C1780 C 0.00251 0.82497 0.05246 0.0
C1781 C 0.9899 0.80438 0.06777 0.0
C1782 C 0.91561 0.84175 0.0036 0.0
C1783 C 0.95972 0.8323 0.02849 0.0
C1784 C 0.90207 0.85023 0.97995 0.0
C1785 C 0.91704 0.86125 0.9584 0.0
C1786 C 0.94422 0.84456 0.00575 0.0
C1787 C 0.9454 0.86528 0.96209 0.0
C1788 C 0.98755 0.83888 0.03287 0.0
C1789 C 0.9618 0.79891 0.06331 0.0
N1790 N 0.95812 0.85669 0.98523 0.0
N1791 N 0.94764 0.81271 0.04392 0.0
H1792 H 0.67903 0.96512 0.81145 0.0
H1793 H 0.8071 0.868 0.79865 0.0
H1794 H 0.70356 0.92615 0.73579 0.0
H1795 H 0.77852 0.89965 0.87596 0.0
H1796 H 0.76617 0.88522 0.77604 0.0
H1797 H 0.71306 0.93857 0.83617 0.0
C1798 C 0.69152 0.95104 0.80002 0.0
C1799 C 0.68862 0.94817 0.77144 0.0
C1800 C 0.76865 0.8881 0.79801 0.0
C1801 C 0.72737 0.91759 0.7996 0.0
C1802 C 0.79199 0.87819 0.81093 0.0
C1803 C 0.79644 0.88281 0.83913 0.0
C1804 C 0.74981 0.90301 0.81336 0.0
C1805 C 0.77604 0.89585 0.85411 0.0
C1806 C 0.71082 0.93575 0.81417 0.0
C1807 C 0.70519 0.92934 0.75777 0.0
N1808 N 0.75379 0.90592 0.84096 0.0
N1809 N 0.72393 0.91493 0.77196 0.0
H1810 H 0.79459 0.95084 0.49193 0.0
H1811 H 0.80789 0.04947 0.62145 0.0
H1812 H 0.73943 0.94377 0.5592 0.0
H1813 H 0.82867 0.0771 0.54095 0.0
H1814 H 0.78682 0.00799 0.60053 0.0
H1815 H 0.81116 0.99525 0.51076 0.0
C1816 C 0.78611 0.95874 0.51077 0.0
C1817 C 0.76641 0.94356 0.5247 0.0
C1818 C 0.7958 0.02327 0.58749 0.0
C1819 C 0.78485 0.99398 0.54604 0.0
C1820 C 0.80801 0.0468 0.59937 0.0
C1821 C 0.82007 0.06667 0.58285 0.0
C1822 C 0.79611 0.01941 0.55898 0.0
C1823 C 0.8195 0.06229 0.55437 0.0
C1824 C 0.79533 0.98407 0.52131 0.0
C1825 C 0.75519 0.9548 0.5484 0.0
N1826 N 0.80793 0.03892 0.5433 0.0
N1827 N 0.76497 0.97925 0.55872 0.0
H1828 H 0.85797 0.09188 0.3003 0.0
H1829 H 0.72677 0.12965 0.32865 0.0
H1830 H 0.83009 0.01846 0.33971 0.0
H1831 H 0.73514 0.08281 0.40225 0.0
H1832 H 0.77401 0.11891 0.31752 0.0
H1833 H 0.82287 0.11769 0.3242 0.0
C1834 C 0.84507 0.08137 0.31467 0.0
C1835 C 0.84646 0.05291 0.31768 0.0
C1836 C 0.76577 0.11174 0.33655 0.0
C1837 C 0.80627 0.08207 0.34448 0.0
C1838 C 0.73871 0.11761 0.34273 0.0
C1839 C 0.72686 0.10675 0.36616 0.0
C1840 C 0.78081 0.09456 0.35371 0.0
C1841 C 0.74332 0.0914 0.38381 0.0
C1842 C 0.82485 0.09604 0.32797 0.0
C1843 C 0.82932 0.04031 0.33652 0.0
N1844 N 0.76923 0.08517 0.37686 0.0
N1845 N 0.80966 0.05494 0.349 0.0
H1846 H 0.74447 0.02635 0.0511 0.0
H1847 H 0.60497 0.97841 0.10499 0.0
H1848 H 0.67744 0.08211 0.04419 0.0
H1849 H 0.65277 0.92436 0.05483 0.0
H1850 H 0.63001 0.01771 0.08645 0.0
H1851 H 0.71149 0.98892 0.05847 0.0
C1852 C 0.72282 0.03072 0.05138 0.0
C1853 C 0.71359 0.05728 0.04719 0.0
C1854 C 0.63438 -0.00276 0.07902 0.0
C1855 C 0.67596 0.01474 0.0555 0.0
C1856 C 0.62006 0.97485 0.08944 0.0
C1857 C 0.62708 0.94806 0.08177 0.0
C1858 C 0.65619 0.99259 0.06145 0.0
C1859 C 0.64679 0.9446 0.06153 0.0
C1860 C 0.70405 0.00935 0.0552 0.0
C1861 C 0.68528 0.06183 0.04737 0.0
N1862 N 0.66125 0.96659 0.05268 0.0
N1863 N 0.66736 0.04076 0.05186 0.0
H1864 H 0.6938 0.05921 0.74902 0.0
H1865 H 0.76325 0.1427 0.6299 0.0
H1866 H 0.67661 0.04472 0.66279 0.0
H1867 H 0.81012 0.11793 0.70087 0.0
H1868 H 0.72233 0.12189 0.64907 0.0
H1869 H 0.72825 0.09436 0.73735 0.0
C1870 C 0.69693 0.06379 0.72769 0.0
C1871 C 0.68255 0.04901 0.70676 0.0
C1872 C 0.74149 0.12161 0.66068 0.0
C1873 C 0.72103 0.08931 0.69355 0.0
C1874 C 0.76487 0.13356 0.64986 0.0
C1875 C 0.79039 0.13132 0.66341 0.0
C1876 C 0.74352 0.10773 0.68538 0.0
C1877 C 0.791 0.11968 0.68948 0.0
C1878 C 0.71652 0.08372 0.72113 0.0
C1879 C 0.68742 0.05552 0.67949 0.0
N1880 N 0.76791 0.10783 0.69947 0.0
N1881 N 0.70625 0.07525 0.67366 0.0
H1882 H 0.66595 0.89205 0.44365 0.0
H1883 H 0.62987 0.02475 0.42721 0.0
H1884 H 0.73744 0.92141 0.4019 0.0
H1885 H 0.67209 0.02164 0.35042 0.0
H1886 H 0.63966 0.97634 0.43339 0.0
H1887 H 0.63923 0.92814 0.42261 0.0
C1888 C 0.6758 0.90543 0.42926 0.0
C1889 C 0.70411 0.90433 0.42504 0.0
C1890 C 0.64599 0.98605 0.41477 0.0
C1891 C 0.67392 0.94567 0.40156 0.0
C1892 C 0.64073 0.01377 0.41144 0.0
C1893 C 0.65062 0.02736 0.38856 0.0
C1894 C 0.66158 0.97207 0.39527 0.0
C1895 C 0.66436 0.01209 0.36858 0.0
C1896 C 0.66061 0.92622 0.41761 0.0
C1897 C 0.71578 0.92201 0.40611 0.0
N1898 N 0.67006 0.98543 0.37276 0.0
N1899 N 0.7007 0.94233 0.39538 0.0
H1900 H 0.80593 0.96436 0.25064 0.0
H1901 H 0.70641 0.93931 0.12347 0.0
H1902 H 0.8113 0.0159 0.18037 0.0
H1903 H 0.6802 0.92577 0.20606 0.0
H1904 H 0.74766 0.96325 0.14201 0.0
H1905 H 0.76196 0.94578 0.23296 0.0
C1906 C 0.79773 0.97167 0.2314 0.0
C1907 C 0.8123 0.99101 0.21642 0.0
C1908 C 0.73269 0.95524 0.15597 0.0
C1909 C 0.76229 0.97013 0.19626 0.0
C1910 C 0.70933 0.9414 0.14548 0.0
C1911 C 0.68997 0.93047 0.16332 0.0
C1912 C 0.73687 0.95763 0.18442 0.0
C1913 C 0.69461 0.93394 0.19163 0.0
C1914 C 0.77264 0.96128 0.22147 0.0
C1915 C 0.8007 0.00054 0.19208 0.0
N1916 N 0.71778 0.94696 0.20133 0.0
N1917 N 0.77644 0.98958 0.18237 0.0
H1918 H 0.84096 0.06351 -0.00239 0.0
H1919 H 0.83037 0.96384 0.86591 0.0
H1920 H 0.77174 0.06285 0.94089 0.0
H1921 H 0.88164 0.95104 0.93736 0.0
H1922 H 0.81552 0.00722 0.88668 0.0
H1923 H 0.86284 0.02975 0.96878 0.0
C1924 C 0.83034 0.05637 0.979 0.0
C1925 C 0.80413 0.0656 0.97199 0.0
C1926 C 0.83034 0.99506 0.89753 0.0
C1927 C 0.82929 0.02677 0.93881 0.0
C1928 C 0.83894 0.97049 0.88567 0.0
C1929 C 0.85705 0.95388 0.90015 0.0
C1930 C 0.84032 0.00305 0.92375 0.0
C1931 C 0.86742 0.96318 0.92571 0.0
C1932 C 0.84294 0.03709 0.96251 0.0
C1933 C 0.79179 0.05602 0.94724 0.0
N1934 N 0.85881 0.98709 0.93675 0.0
N1935 N 0.80436 0.03679 0.93164 0.0
H1936 H 0.80898 0.68088 0.98979 0.0
H1937 H 0.81237 0.79509 0.87818 0.0
H1938 H 0.75122 0.68377 0.92161 0.0
H1939 H 0.88357 0.77813 0.92833 0.0
H1940 H 0.79063 0.75282 0.8932 0.0
H1941 H 0.83802 0.71478 0.96725 0.0
C1942 C 0.80254 0.68836 0.97001 0.0
C1943 C 0.77733 0.6799 0.95788 0.0
C1944 C 0.81117 0.75806 0.90069 0.0
C1945 C 0.81031 0.71852 0.93215 0.0
C1946 C 0.8235 0.78222 0.89217 0.0
C1947 C 0.84961 0.79006 0.90224 0.0
C1948 C 0.8248 0.74194 0.91992 0.0
C1949 C 0.86335 0.77266 0.92014 0.0
C1950 C 0.81915 0.70763 0.95714 0.0
C1951 C 0.77016 0.69009 0.93209 0.0
N1952 N 0.85055 0.74953 0.92884 0.0
N1953 N 0.78639 0.70907 0.92029 0.0
H1954 H 0.2735 0.85228 0.09215 0.0
H1955 H 0.3903 0.74184 0.08262 0.0
H1956 H 0.3263 0.84322 0.023 0.0
H1957 H 0.3119 0.72642 0.11933 0.0
H1958 H 0.37704 0.78883 0.07423 0.0
H1959 H 0.29894 0.81674 0.11571 0.0
C1960 C 0.2912 0.84369 0.08242 0.0
C1961 C 0.29766 0.85028 0.05546 0.0
C1962 C 0.36301 0.77525 0.08457 0.0
C1963 C 0.32651 0.80993 0.08216 0.0
C1964 C 0.37044 0.74841 0.08932 0.0
C1965 C 0.35188 0.72999 0.10118 0.0
C1966 C 0.33704 0.78387 0.09207 0.0
C1967 C 0.32659 0.73981 0.10965 0.0
C1968 C 0.30545 0.82325 0.09576 0.0
C1969 C 0.32057 0.83841 0.04368 0.0
N1970 N 0.31977 0.76611 0.10471 0.0
N1971 N 0.33401 0.81846 0.05698 0.0
H1972 H 0.93755 0.59457 0.76553 0.0
H1973 H 0.06583 0.54514 0.85235 0.0
H1974 H 0.93295 0.5265 0.82006 0.0
H1975 H 0.0578 0.6292 0.82824 0.0
H1976 H 0.01852 0.5358 0.83621 0.0
H1977 H 0.98347 0.6064 0.78465 0.0
C1978 C 0.94613 0.58248 0.78181 0.0
C1979 C 0.93154 0.56004 0.79181 0.0
C1980 C 0.02719 0.55629 0.8346 0.0
C1981 C 0.98377 0.57249 0.81279 0.0
C1982 C 0.05414 0.56154 0.8436 0.0
C1983 C 0.0656 0.58793 0.84166 0.0
C1984 C 0.01197 0.57749 0.82317 0.0
C1985 C 0.04962 0.60857 0.83029 0.0
C1986 C 0.97218 0.58911 0.79264 0.0
C1987 C 0.9435 0.5444 0.81239 0.0
N1988 N 0.02363 0.60288 0.82129 0.0
N1989 N 0.96906 0.5508 0.82212 0.0
H1990 H 0.22728 0.19495 0.56075 0.0
H1991 H 0.103 0.28049 0.61735 0.0
H1992 H 0.14406 0.18545 0.52969 0.0
H1993 H 0.18495 0.31535 0.61385 0.0
H1994 H 0.11926 0.23806 0.59711 0.0
H1995 H 0.21277 0.23213 0.59134 0.0
C1996 C 0.20589 0.2004 0.56068 0.0
C1997 C 0.1868 0.18724 0.54259 0.0
C1998 C 0.13371 0.25491 0.60112 0.0
C1999 C 0.17025 0.22928 0.5776 0.0
C2000 C 0.12454 0.27915 0.61278 0.0
C2001 C 0.14256 0.30179 0.61684 0.0
C2002 C 0.16116 0.25307 0.59378 0.0
C2003 C 0.17029 0.29855 0.61076 0.0
C2004 C 0.19773 0.22164 0.57801 0.0
C2005 C 0.15943 0.19521 0.54316 0.0
N2006 N 0.17875 0.27465 0.59926 0.0
N2007 N 0.15195 0.21573 0.56043 0.0
H2008 H 0.05124 0.97002 0.75307 0.0
H2009 H 0.98361 0.89549 0.87867 0.0
H2010 H 0.07531 0.99295 0.83617 0.0
H2011 H 0.93648 0.92319 0.80928 0.0
H2012 H 0.0246 0.91877 0.8605 0.0
H2013 H 0.01613 0.93887 0.77087 0.0
C2014 C 0.04949 0.96805 0.77503 0.0
C2015 C 0.06588 0.98419 0.79324 0.0
C2016 C 0.00522 0.91948 0.84932 0.0
C2017 C 0.02637 0.94863 0.81349 0.0
C2018 C 0.98203 0.90635 0.85961 0.0
C2019 C 0.95682 0.90796 0.84557 0.0
C2020 C 0.00306 0.93328 0.82448 0.0
C2021 C 0.95557 0.92199 0.82088 0.0
C2022 C 0.02947 0.95045 0.7851 0.0
C2023 C 0.06278 0.98105 0.82151 0.0
N2024 N 0.97845 0.93402 0.811 0.0
N2025 N 0.04327 0.96359 0.83086 0.0
H2026 H 0.67476 0.31223 0.51595 0.0
H2027 H 0.7071 0.18033 0.42401 0.0
H2028 H 0.74489 0.3074 0.46416 0.0
H2029 H 0.62438 0.20254 0.44286 0.0
H2030 H 0.72395 0.22271 0.44695 0.0
H2031 H 0.65842 0.26725 0.4974 0.0
C2032 C 0.68661 0.30161 0.50071 0.0
C2033 C 0.71058 0.31357 0.49075 0.0
C2034 C 0.70213 0.21819 0.4461 0.0
C2035 C 0.69289 0.26245 0.47043 0.0
C2036 C 0.69254 0.19405 0.43312 0.0
C2037 C 0.66434 0.18811 0.43139 0.0
C2038 C 0.68341 0.23617 0.45782 0.0
C2039 C 0.64629 0.20657 0.44349 0.0
C2040 C 0.67738 0.27612 0.49019 0.0
C2041 C 0.72583 0.29898 0.47163 0.0
N2042 N 0.65615 0.22981 0.4563 0.0
N2043 N 0.71669 0.27414 0.46199 0.0
H2044 H 0.89078 0.45882 0.69152 0.0
H2045 H 0.04795 0.45078 0.68724 0.0
H2046 H 0.93989 0.45631 0.76607 0.0
H2047 H 0.0043 0.3848 0.64361 0.0
H2048 H 0.00504 0.46415 0.70806 0.0
H2049 H 0.92904 0.43898 0.66633 0.0
C2050 C 0.90922 0.45344 0.70269 0.0
C2051 C 0.91234 0.45958 0.73086 0.0
C2052 C 0.00493 0.44697 0.69362 0.0
C2053 C 0.95584 0.4381 0.70222 0.0
C2054 C 0.02924 0.43952 0.68152 0.0
C2055 C 0.02961 0.41657 0.66383 0.0
C2056 C 0.98082 0.43176 0.68751 0.0
C2057 C 0.00477 0.40254 0.65733 0.0
C2058 C 0.93096 0.44232 0.6883 0.0
C2059 C 0.93667 0.45223 0.74434 0.0
N2060 N 0.98117 0.41037 0.66922 0.0
N2061 N 0.95778 0.44254 0.72977 0.0
H2062 H 0.56673 0.60454 0.22171 0.0
H2063 H 0.43315 0.5614 0.14225 0.0
H2064 H 0.55639 0.51988 0.19556 0.0
H2065 H 0.47756 0.63568 0.12264 0.0
H2066 H 0.47498 0.54465 0.16457 0.0
H2067 H 0.53005 0.61661 0.18944 0.0
C2068 C 0.55683 0.58855 0.20907 0.0
C2069 C 0.56462 0.56124 0.21113 0.0
C2070 C 0.47551 0.56437 0.15484 0.0
C2071 C 0.52247 0.57475 0.17478 0.0
C2072 C 0.45174 0.5739 0.14204 0.0
C2073 C 0.45164 0.60022 0.13098 0.0
C2074 C 0.49894 0.58153 0.15698 0.0
C2075 C 0.47643 0.61548 0.13128 0.0
C2076 C 0.53606 0.59543 0.19061 0.0
C2077 C 0.55108 0.54124 0.19433 0.0
N2078 N 0.49886 0.60621 0.14467 0.0
N2079 N 0.53028 0.54831 0.17711 0.0
H2080 H 0.55566 0.70149 0.83663 0.0
H2081 H 0.61276 0.7146 0.68622 0.0
H2082 H 0.57539 0.77896 0.80009 0.0
H2083 H 0.59718 0.63736 0.72504 0.0
H2084 H 0.60446 0.73844 0.72952 0.0
H2085 H 0.57646 0.6778 0.79825 0.0
C2086 C 0.56465 0.71355 0.82063 0.0
C2087 C 0.56337 0.74226 0.82131 0.0
C2088 C 0.6031 0.71628 0.72866 0.0
C2089 C 0.58702 0.71516 0.77709 0.0
C2090 C 0.60773 0.70261 0.7039 0.0
C2091 C 0.60518 0.67392 0.70187 0.0
C2092 C 0.5957 0.70119 0.75157 0.0
C2093 C 0.59906 0.6595 0.72557 0.0
C2094 C 0.57656 0.69998 0.79871 0.0
C2095 C 0.57576 0.75681 0.80028 0.0
N2096 N 0.59422 0.67332 0.74937 0.0
N2097 N 0.58671 0.74306 0.77876 0.0
H2098 H 0.56012 0.31281 0.10544 0.0
H2099 H 0.54355 0.3472 0.94774 0.0
H2100 H 0.48655 0.29593 0.0568 0.0
H2101 H 0.61939 0.35601 0.99465 0.0
H2102 H 0.51936 0.3386 0.99 0.0
H2103 H 0.57839 0.33959 0.06812 0.0
C2104 C 0.54754 0.31524 0.08715 0.0
C2105 C 0.52206 0.3016 0.08392 0.0
C2106 C 0.54125 0.34272 0.99107 0.0
C2107 C 0.543 0.33181 0.04103 0.0
C2108 C 0.55511 0.34754 0.96694 0.0
C2109 C 0.58367 0.35166 0.96757 0.0
C2110 C 0.55604 0.34194 0.01601 0.0
C2111 C 0.59745 0.35239 0.99311 0.0
C2112 C 0.55804 0.33044 0.06579 0.0
C2113 C 0.5065 0.30574 0.05995 0.0
N2114 N 0.58355 0.34721 0.01627 0.0
N2115 N 0.51745 0.32007 0.03917 0.0
H2116 H 0.94948 0.24912 0.30565 0.0
H2117 H 0.8976 0.3845 0.23335 0.0
H2118 H 0.97532 0.3318 0.32872 0.0
H2119 H 0.88694 0.30341 0.19694 0.0
H2120 H 0.91699 0.36423 0.27443 0.0
H2121 H 0.9184 0.26777 0.27087 0.0
C2122 C 0.94852 0.27111 0.30353 0.0
C2123 C 0.96532 0.28889 0.31983 0.0
C2124 C 0.91014 0.35086 0.25753 0.0
C2125 C 0.92972 0.31022 0.28063 0.0
C2126 C 0.89897 0.36242 0.23412 0.0
C2127 C 0.89124 0.34568 0.21145 0.0
C2128 C 0.9136 0.32239 0.25826 0.0
C2129 C 0.89317 0.31714 0.21376 0.0
C2130 C 0.93079 0.28172 0.28376 0.0
C2131 C 0.96312 0.31724 0.31637 0.0
N2132 N 0.90451 0.30639 0.23664 0.0
N2133 N 0.94575 0.32697 0.29713 0.0
H2134 H 0.02967 0.65418 0.56041 0.0
H2135 H 0.88877 0.63999 0.47372 0.0
H2136 H 0.95543 0.69604 0.57947 0.0
H2137 H 0.96733 0.62743 0.43697 0.0
H2138 H 0.91207 0.64826 0.51796 0.0
H2139 H 0.00617 0.63346 0.51936 0.0
C2140 C 0.00837 0.65857 0.55617 0.0
C2141 C 0.99409 0.67602 0.57367 0.0
C2142 C 0.92416 0.64346 0.50021 0.0
C2143 C 0.96744 0.65285 0.52736 0.0
C2144 C 0.91088 0.63868 0.47497 0.0
C2145 C 0.92615 0.63362 0.45147 0.0
C2146 C 0.9529 0.64315 0.50203 0.0
C2147 C 0.95478 0.63179 0.45447 0.0
C2148 C 0.99502 0.64682 0.53292 0.0
C2149 C 0.9668 0.6818 0.56706 0.0
N2150 N 0.96729 0.63686 0.47927 0.0
N2151 N 0.95433 0.67015 0.54457 0.0
H2152 H 0.53855 0.30151 0.68652 0.0
H2153 H 0.62483 0.29086 0.8207 0.0
H2154 H 0.59543 0.23567 0.69325 0.0
H2155 H 0.60616 0.36902 0.7859 0.0
H2156 H 0.61394 0.26858 0.77614 0.0
H2157 H 0.56143 0.3251 0.72527 0.0
C2158 C 0.5564 0.29239 0.69582 0.0
C2159 C 0.56602 0.26733 0.68602 0.0
C2160 C 0.6128 0.29065 0.77824 0.0
C2161 C 0.59138 0.29343 0.73135 0.0
C2162 C 0.61885 0.30337 0.80362 0.0
C2163 C 0.61588 0.33179 0.80714 0.0
C2164 C 0.60327 0.30645 0.75654 0.0
C2165 C 0.60841 0.34704 0.78425 0.0
C2166 C 0.56933 0.30576 0.71802 0.0
C2167 C 0.58801 0.25541 0.69988 0.0
N2168 N 0.60185 0.3341 0.76007 0.0
N2169 N 0.59999 0.26856 0.72212 0.0
H2170 H 0.90694 0.25995 0.93524 0.0
H2171 H 0.9369 0.36426 0.05906 0.0
H2172 H 0.98597 0.29997 0.94908 0.0
H2173 H 0.85526 0.34 0.03102 0.0
H2174 H 0.95529 0.34299 0.01784 0.0
H2175 H 0.88768 0.29027 0.96961 0.0
C2176 C 0.92029 0.27513 0.9455 0.0
C2177 C 0.94822 0.27721 0.93945 0.0
C2178 C 0.93333 0.3427 0.02051 0.0
C2179 C 0.92617 0.3121 0.97892 0.0
C2180 C 0.9228 0.35483 0.04403 0.0
C2181 C 0.89453 0.35352 0.04868 0.0
C2182 C 0.91547 0.32888 0.00171 0.0
C2183 C 0.87721 0.34131 0.02839 0.0
C2184 C 0.90919 0.2926 0.965 0.0
C2185 C 0.96437 0.29755 0.95319 0.0
N2186 N 0.888 0.32906 0.00599 0.0
N2187 N 0.95316 0.31404 0.97253 0.0
H2188 H 0.94345 0.68778 0.15087 0.0
H2189 H 0.90709 0.70224 0.30869 0.0
H2190 H 0.95263 0.76284 0.19886 0.0
H2191 H 0.90618 0.6252 0.26348 0.0
H2192 H 0.91471 0.72621 0.26622 0.0
H2193 H 0.91986 0.66667 0.18891 0.0
C2194 C 0.93988 0.70007 0.16912 0.0
C2195 C 0.95047 0.72698 0.17188 0.0
C2196 C 0.91262 0.70408 0.26551 0.0
C2197 C 0.9239 0.70277 0.21563 0.0
C2198 C 0.90837 0.69032 0.28981 0.0
C2199 C 0.90652 0.66158 0.28977 0.0
C2200 C 0.91517 0.68905 0.24091 0.0
C2201 C 0.90785 0.64734 0.26455 0.0
C2202 C 0.92658 0.68791 0.19093 0.0
C2203 C 0.94511 0.74193 0.19596 0.0
N2204 N 0.91241 0.66121 0.24117 0.0
N2205 N 0.93259 0.72949 0.21708 0.0
H2206 H 0.48435 0.67807 0.44089 0.0
H2207 H 0.62828 0.6588 0.51777 0.0
H2208 H 0.56202 0.70701 0.41068 0.0
H2209 H 0.54991 0.63732 0.55157 0.0
H2210 H 0.6052 0.66729 0.47385 0.0
H2211 H 0.50891 0.65373 0.47677 0.0
C2212 C 0.50654 0.67897 0.44152 0.0
C2213 C 0.52111 0.69514 0.42317 0.0
C2214 C 0.59312 0.66038 0.49081 0.0
C2215 C 0.54929 0.66751 0.46417 0.0
C2216 C 0.6063 0.65549 0.51585 0.0
C2217 C 0.59091 0.64799 0.5385 0.0
C2218 C 0.56441 0.65769 0.48851 0.0
C2219 C 0.56251 0.64372 0.5348 0.0
C2220 C 0.52056 0.66513 0.46204 0.0
C2221 C 0.54989 0.69532 0.42479 0.0
N2222 N 0.55015 0.64896 0.5104 0.0
N2223 N 0.56301 0.68205 0.44516 0.0
H2224 H 0.83209 0.56561 0.7046 0.0
H2225 H 0.68616 0.63415 0.70271 0.0
H2226 H 0.79379 0.59803 0.77695 0.0
H2227 H 0.72683 0.60684 0.62972 0.0
H2228 H 0.72781 0.62635 0.72946 0.0
H2229 H 0.79648 0.58573 0.67635 0.0
C2230 C 0.81628 0.57714 0.71458 0.0
C2231 C 0.81564 0.5797 0.74327 0.0
C2232 C 0.72778 0.62232 0.70757 0.0
C2233 C 0.77469 0.60274 0.71091 0.0
C2234 C 0.70396 0.62669 0.69226 0.0
C2235 C 0.70289 0.62063 0.66401 0.0
C2236 C 0.75066 0.61156 0.69461 0.0
C2237 C 0.7267 0.61152 0.65149 0.0
C2238 C 0.79598 0.58871 0.69837 0.0
C2239 C 0.79495 0.59531 0.75495 0.0
N2240 N 0.74953 0.60688 0.66697 0.0
N2241 N 0.77506 0.60593 0.73872 0.0
H2242 H 0.66269 0.56579 0.02695 0.0
H2243 H 0.64602 0.47331 0.8907 0.0
H2244 H 0.715 0.57078 0.95719 0.0
H2245 H 0.63074 0.43882 0.9698 0.0
H2246 H 0.65747 0.51718 0.91329 0.0
H2247 H 0.63874 0.52561 0.00474 0.0
C2248 C 0.66876 0.55867 0.00686 0.0
C2249 C 0.69003 0.57203 0.99328 0.0
C2250 C 0.65119 0.50007 0.92562 0.0
C2251 C 0.66318 0.52694 0.96817 0.0
C2252 C 0.64463 0.47502 0.91278 0.0
C2253 C 0.63805 0.45217 0.92844 0.0
C2254 C 0.65098 0.5024 0.95429 0.0
C2255 C 0.63625 0.45581 0.957 0.0
C2256 C 0.6552 0.53595 0.99429 0.0
C2257 C 0.69789 0.56172 0.96774 0.0
N2258 N 0.64302 0.48046 0.96913 0.0
N2259 N 0.68432 0.53998 0.9559 0.0
H2260 H 0.64986 0.44159 0.19054 0.0
H2261 H 0.80444 0.39669 0.21124 0.0
H2262 H 0.69677 0.45309 0.26604 0.0
H2263 H 0.7609 0.39509 0.13323 0.0
H2264 H 0.76179 0.40707 0.23395 0.0
H2265 H 0.68646 0.41377 0.17224 0.0
C2266 C 0.66758 0.43776 0.20351 0.0
C2267 C 0.67056 0.45014 0.22964 0.0
C2268 C 0.7615 0.40415 0.21189 0.0
C2269 C 0.71262 0.41868 0.20869 0.0
C2270 C 0.78587 0.39827 0.19887 0.0
C2271 C 0.78638 0.39564 0.17019 0.0
C2272 C 0.73746 0.40748 0.19615 0.0
C2273 C 0.76157 0.39743 0.15534 0.0
C2274 C 0.68853 0.42197 0.19299 0.0
C2275 C 0.69382 0.44426 0.24563 0.0
N2276 N 0.73818 0.4036 0.16846 0.0
N2277 N 0.71419 0.42932 0.23472 0.0
H2278 H 0.76591 0.42718 0.41402 0.0
H2279 H 0.87156 0.55185 0.43944 0.0
H2280 H 0.80443 0.44636 0.49281 0.0
H2281 H 0.84182 0.52502 0.35914 0.0
H2282 H 0.8498 0.51151 0.45894 0.0
H2283 H 0.79543 0.46137 0.39334 0.0
C2284 C 0.78059 0.43856 0.42703 0.0
C2285 C 0.78243 0.43405 0.45533 0.0
C2286 C 0.84831 0.51424 0.43702 0.0
C2287 C 0.81647 0.47333 0.43158 0.0
C2288 C 0.86074 0.53727 0.42585 0.0
C2289 C 0.85821 0.54198 0.39765 0.0
C2290 C 0.83297 0.49591 0.41993 0.0
C2291 C 0.8442 0.52227 0.381 0.0
C2292 C 0.79758 0.45801 0.41512 0.0
C2293 C 0.80215 0.44922 0.47097 0.0
N2294 N 0.83177 0.50028 0.39245 0.0
N2295 N 0.81824 0.46836 0.45892 0.0
H2296 H 0.81436 0.49982 0.8566 0.0
H2297 H 0.70098 0.3853 0.82302 0.0
H2298 H 0.80671 0.45846 0.77756 0.0
H2299 H 0.72346 0.41261 0.90535 0.0
H2300 H 0.74131 0.40945 0.80617 0.0
H2301 H 0.78213 0.46668 0.87493 0.0
C2302 C 0.8059 0.48378 0.84305 0.0
C2303 C 0.81304 0.48212 0.81538 0.0
C2304 C 0.73767 0.40978 0.82797 0.0
C2305 C 0.77611 0.44397 0.83638 0.0
C2306 C 0.71467 0.39599 0.83761 0.0
C2307 C 0.70863 0.39736 0.86557 0.0
C2308 C 0.75449 0.42531 0.84638 0.0
C2309 C 0.7272 0.4112 0.8836 0.0
C2310 C 0.78765 0.46469 0.85363 0.0
C2311 C 0.80166 0.46063 0.79896 0.0
N2312 N 0.74907 0.42507 0.87362 0.0
N2313 N 0.78351 0.44253 0.80966 0.0
H2314 H 0.80435 0.55359 0.99578 0.0
H2315 H 0.85245 0.48287 0.13277 0.0
H2316 H 0.81147 0.59567 0.07438 0.0
H2317 H 0.84608 0.44155 0.05368 0.0
H2318 H 0.84598 0.52654 0.11036 0.0
H2319 H 0.82909 0.51528 0.0148 0.0
C2320 C 0.81167 0.55504 0.01688 0.0
C2321 C 0.80531 0.57753 0.03372 0.0
C2322 C 0.8463 0.50794 0.09788 0.0
C2323 C 0.83309 0.53358 0.05576 0.0
C2324 C 0.84987 0.48298 0.11068 0.0
C2325 C 0.84916 0.45844 0.09515 0.0
C2326 C 0.84186 0.50834 0.06937 0.0
C2327 C 0.84624 0.45989 0.06655 0.0
C2328 C 0.8257 0.5331 0.02778 0.0
C2329 C 0.81556 0.5785 0.06079 0.0
N2330 N 0.84235 0.48438 0.05464 0.0
N2331 N 0.82848 0.55654 0.07116 0.0
H2332 H 0.67911 0.54157 0.3059 0.0
H2333 H 0.81876 0.61882 0.28961 0.0
H2334 H 0.69127 0.59031 0.23448 0.0
H2335 H 0.78295 0.60567 0.36849 0.0
H2336 H 0.77397 0.6086 0.2676 0.0
H2337 H 0.71915 0.5635 0.32782 0.0
C2338 C 0.68999 0.55742 0.29506 0.0
C2339 C 0.68131 0.56507 0.26887 0.0
C2340 C 0.77592 0.60849 0.28974 0.0
C2341 C 0.72809 0.58937 0.29335 0.0
C2342 C 0.80144 0.61417 0.30233 0.0
C2343 C 0.80473 0.6125 0.33093 0.0
C2344 C 0.7538 0.60072 0.30586 0.0
C2345 C 0.78152 0.60679 0.34639 0.0
C2346 C 0.71292 0.56985 0.30754 0.0
C2347 C 0.69706 0.58446 0.25502 0.0
N2348 N 0.75716 0.60064 0.33362 0.0
N2349 N 0.71995 0.59599 0.26744 0.0
H2350 H 0.69485 0.41922 0.56492 0.0
H2351 H 0.63032 0.56557 0.54724 0.0
H2352 H 0.66789 0.45016 0.48691 0.0
H2353 H 0.64938 0.53117 0.62591 0.0
H2354 H 0.63886 0.52139 0.52528 0.0
H2355 H 0.67314 0.45749 0.58797 0.0
C2356 C 0.68411 0.43393 0.55262 0.0
C2357 C 0.68363 0.43177 0.52388 0.0
C2358 C 0.6409 0.52337 0.54737 0.0
C2359 C 0.65885 0.4758 0.55023 0.0
C2360 C 0.63614 0.54864 0.55994 0.0
C2361 C 0.63965 0.55218 0.58842 0.0
C2362 C 0.64953 0.50151 0.56334 0.0
C2363 C 0.6467 0.52942 0.60387 0.0
C2364 C 0.67165 0.45577 0.56583 0.0
C2365 C 0.66899 0.45116 0.50908 0.0
N2366 N 0.6518 0.50512 0.59107 0.0
N2367 N 0.65754 0.47262 0.52242 0.0
H2368 H 0.6931 0.84441 0.54564 0.0
H2369 H 0.70253 0.70073 0.61755 0.0
H2370 H 0.76941 0.80918 0.57174 0.0
H2371 H 0.62636 0.73783 0.59392 0.0
H2372 H 0.72692 0.74328 0.60753 0.0
H2373 H 0.66819 0.80907 0.56986 0.0
C2374 C 0.70465 0.82935 0.55672 0.0
C2375 C 0.73339 0.82938 0.55622 0.0
C2376 C 0.70485 0.74226 0.60483 0.0
C2377 C 0.7049 0.78866 0.58386 0.0
C2378 C 0.69088 0.71793 0.61047 0.0
C2379 C 0.66239 0.71555 0.60601 0.0
C2380 C 0.69028 0.76433 0.59445 0.0
C2381 C 0.64834 0.73864 0.59733 0.0
C2382 C 0.69038 0.80919 0.57061 0.0
C2383 C 0.74725 0.80974 0.57139 0.0
N2384 N 0.6625 0.76197 0.59145 0.0
N2385 N 0.73284 0.78985 0.58425 0.0
H2386 H 0.2674 0.69757 0.4421 0.0
H2387 H 0.12512 0.76141 0.40103 0.0
H2388 H 0.1914 0.65084 0.43519 0.0
H2389 H 0.20218 0.80662 0.40486 0.0
H2390 H 0.15017 0.71879 0.40469 0.0
H2391 H 0.24567 0.73494 0.41818 0.0
C2392 C 0.24637 0.69484 0.43486 0.0
C2393 C 0.23097 0.67137 0.4413 0.0
C2394 C 0.1616 0.73803 0.4044 0.0
C2395 C 0.20575 0.71431 0.41461 0.0
C2396 C 0.14729 0.76238 0.40247 0.0
C2397 C 0.16152 0.78767 0.40333 0.0
C2398 C 0.19032 0.73901 0.40733 0.0
C2399 C 0.19028 0.78765 0.40472 0.0
C2400 C 0.23388 0.71629 0.42136 0.0
C2401 C 0.20389 0.66882 0.43113 0.0
N2402 N 0.20368 0.76375 0.40702 0.0
N2403 N 0.19192 0.69033 0.41887 0.0
H2404 H 0.57416 0.94627 0.71676 0.0
H2405 H 0.47177 0.89089 0.63638 0.0
H2406 H 0.56094 0.02313 0.67735 0.0
H2407 H 0.43637 0.97068 0.64674 0.0
H2408 H 0.51668 0.91105 0.6485 0.0
H2409 H 0.53526 0.92612 0.69137 0.0
C2410 C 0.56335 0.9587 0.70213 0.0
C2411 C 0.57132 0.98598 0.69813 0.0
C2412 C 0.49903 0.9241 0.64806 0.0
C2413 C 0.52641 0.96322 0.66929 0.0
C2414 C 0.47344 0.91266 0.64106 0.0
C2415 C 0.45017 0.92895 0.64148 0.0
C2416 C 0.50126 0.95192 0.65588 0.0
C2417 C 0.4537 0.95723 0.64686 0.0
C2418 C 0.54123 0.94716 0.68755 0.0
C2419 C 0.5557 0.00176 0.68029 0.0
N2420 N 0.47879 0.96781 0.65432 0.0
N2421 N 0.53368 0.99012 0.66648 0.0
H2422 H 0.34934 0.32361 0.98327 0.0
H2423 H 0.31563 0.19222 0.88853 0.0
H2424 H 0.26773 0.30153 0.95333 0.0
H2425 H 0.39759 0.21809 0.91397 0.0
H2426 H 0.29827 0.23489 0.9075 0.0
H2427 H 0.36769 0.28777 0.95412 0.0
C2428 C 0.33522 0.31126 0.97051 0.0
C2429 C 0.30684 0.31536 0.9711 0.0
C2430 C 0.32009 0.23142 0.90864 0.0
C2431 C 0.3279 0.27414 0.93751 0.0
C2432 C 0.33004 0.20706 0.8978 0.0
C2433 C 0.35807 0.20139 0.90008 0.0
C2434 C 0.33824 0.25019 0.92207 0.0
C2435 C 0.37581 0.2215 0.91194 0.0
C2436 C 0.34579 0.29085 0.95373 0.0
C2437 C 0.2897 0.29898 0.95372 0.0
N2438 N 0.36554 0.24485 0.92286 0.0
N2439 N 0.30048 0.27887 0.93784 0.0
H2440 H 0.44762 0.48712 0.65545 0.0
H2441 H 0.51856 0.63486 0.64358 0.0
H2442 H 0.41404 0.56188 0.68798 0.0
H2443 H 0.55639 0.55879 0.62096 0.0
H2444 H 0.47526 0.60968 0.64971 0.0
H2445 H 0.48233 0.51437 0.63229 0.0
C2446 C 0.44724 0.50925 0.65736 0.0
C2447 C 0.42835 0.52219 0.67426 0.0
C2448 C 0.49298 0.59859 0.64304 0.0
C2449 C 0.46804 0.55344 0.64801 0.0
C2450 C 0.51766 0.61296 0.63952 0.0
C2451 C 0.54122 0.59878 0.63244 0.0
C2452 C 0.49197 0.56993 0.63936 0.0
C2453 C 0.53885 0.57044 0.62712 0.0
C2454 C 0.4671 0.52481 0.6442 0.0
C2455 C 0.42864 0.55098 0.67571 0.0
N2456 N 0.51477 0.55691 0.63102 0.0
N2457 N 0.44844 0.56561 0.66311 0.0
H2458 H 0.80656 0.1754 0.03472 0.0
H2459 H 0.86735 0.27401 0.11652 0.0
H2460 H 0.73542 0.18174 0.08495 0.0
H2461 H 0.78682 0.30893 0.11354 0.0
H2462 H 0.84687 0.22947 0.10364 0.0
H2463 H 0.82779 0.21417 0.05964 0.0
C2464 C 0.79573 0.18459 0.0516 0.0
C2465 C 0.76985 0.17467 0.05879 0.0
C2466 C 0.83372 0.24689 0.10602 0.0
C2467 C 0.79362 0.21964 0.08687 0.0
C2468 C 0.84534 0.27231 0.11341 0.0
C2469 C 0.82888 0.29542 0.11528 0.0
C2470 C 0.80547 0.24457 0.10032 0.0
C2471 C 0.80036 0.29175 0.11169 0.0
C2472 C 0.80784 0.20671 0.06579 0.0
C2473 C 0.75583 0.18843 0.07951 0.0
N2474 N 0.78952 0.26679 0.10398 0.0
N2475 N 0.76789 0.21051 0.09287 0.0
H2476 H 0.55358 0.97503 0.80671 0.0
H2477 H 0.44003 0.03374 0.86312 0.0
H2478 H 0.59692 0.05068 0.82822 0.0
H2479 H 0.48696 0.10932 0.8577 0.0
H2480 H 0.48169 0.00822 0.85642 0.0
H2481 H 0.514 0.9913 0.83076 0.0
C2482 C 0.55508 0.99475 0.81731 0.0
C2483 C 0.57841 0.01173 0.81499 0.0
C2484 C 0.483 0.03034 0.85638 0.0
C2485 C 0.53291 0.03079 0.8428 0.0
C2486 C 0.45912 0.04498 0.86039 0.0
C2487 C 0.45984 0.07374 0.86025 0.0
C2488 C 0.50776 0.04458 0.85178 0.0
C2489 C 0.48529 0.08717 0.85744 0.0
C2490 C 0.5323 0.00414 0.83118 0.0
C2491 C 0.5792 0.03704 0.82917 0.0
N2492 N 0.50812 0.07248 0.853 0.0
N2493 N 0.55657 0.04603 0.84197 0.0
H2494 H 0.92478 0.91478 0.27294 0.0
H2495 H 0.05225 0.93883 0.37521 0.0
H2496 H 0.94549 0.99349 0.31088 0.0
H2497 H 0.02326 0.85881 0.34673 0.0
H2498 H 0.01154 0.95889 0.3547 0.0
H2499 H 0.95917 0.89378 0.30192 0.0
C2500 C 0.93654 0.92771 0.2874 0.0
C2501 C 0.93242 0.95607 0.2892 0.0
C2502 C 0.01388 0.93691 0.35324 0.0
C2503 C 0.97198 0.93195 0.32263 0.0
C2504 C 0.03713 0.92542 0.36494 0.0
C2505 C 0.04134 0.89712 0.36236 0.0
C2506 C 0.99482 0.92003 0.33858 0.0
C2507 C 0.02093 0.88072 0.34911 0.0
C2508 C 0.9561 0.91561 0.30409 0.0
C2509 C 0.94805 0.9716 0.30866 0.0
N2510 N -0.00127 0.89248 0.33737 0.0
N2511 N 0.96736 0.95937 0.32443 0.0
H2512 H 0.40914 0.24785 0.18307 0.0
H2513 H 0.37541 0.30668 0.3056 0.0
H2514 H 0.48153 0.30004 0.19176 0.0
H2515 H 0.4226 0.37783 0.28226 0.0
H2516 H 0.38669 0.28399 0.26269 0.0
H2517 H 0.38641 0.27667 0.21641 0.0
C2518 C 0.4203 0.26537 0.19204 0.0
C2519 C 0.44757 0.27111 0.18521 0.0
C2520 C 0.39391 0.30488 0.26639 0.0
C2521 C 0.42188 0.30371 0.22405 0.0
C2522 C 0.3877 0.31772 0.29108 0.0
C2523 C 0.39824 0.34404 0.29745 0.0
C2524 C 0.411 0.3184 0.248 0.0
C2525 C 0.41404 0.35751 0.27799 0.0
C2526 C 0.40733 0.28172 0.21122 0.0
C2527 C 0.46065 0.29461 0.19681 0.0
N2528 N 0.42043 0.34428 0.25427 0.0
N2529 N 0.44778 0.30989 0.21602 0.0
H2530 H 0.41196 0.74322 0.91749 0.0
H2531 H 0.43324 0.63996 0.03058 0.0
H2532 H 0.46283 0.6737 0.9021 0.0
H2533 H 0.35296 0.67308 0.01648 0.0
H2534 H 0.44502 0.65153 0.98355 0.0
H2535 H 0.38895 0.71766 0.95325 0.0
C2536 C 0.41762 0.72224 0.92107 0.0
C2537 C 0.43927 0.7105 0.90701 0.0
C2538 C 0.42465 0.65567 0.99069 0.0
C2539 C 0.41408 0.68177 0.94843 0.0
C2540 C 0.41801 0.64928 0.01752 0.0
C2541 C 0.39228 0.65598 0.02761 0.0
C2542 C 0.40564 0.66939 0.97424 0.0
C2543 C 0.37317 0.66781 0.00971 0.0
C2544 C 0.4046 0.70771 0.94149 0.0
C2545 C 0.4461 0.68337 0.9125 0.0
N2546 N 0.38045 0.6747 0.98409 0.0
N2547 N 0.4341 0.67014 0.93343 0.0
H2548 H 0.0547 0.63743 0.6836 0.0
H2549 H 0.12762 0.68764 0.81718 0.0
H2550 H 0.0723 0.72403 0.69434 0.0
H2551 H 0.15349 0.61427 0.77511 0.0
H2552 H 0.10714 0.70302 0.77395 0.0
H2553 H 0.08923 0.62838 0.71925 0.0
C2554 C 0.06603 0.65448 0.69329 0.0
C2555 C 0.06074 0.68146 0.68607 0.0
C2556 C 0.11799 0.68391 0.77415 0.0
C2557 C 0.09969 0.67138 0.72704 0.0
C2558 C 0.12984 0.67522 0.79874 0.0
C2559 C 0.14173 0.64934 0.79987 0.0
C2560 C 0.11774 0.66635 0.75096 0.0
C2561 C 0.14397 0.63409 0.7753 0.0
C2562 C 0.0858 0.64934 0.71346 0.0
C2563 C 0.07597 0.70289 0.69926 0.0
N2564 N 0.13137 0.64243 0.75203 0.0
N2565 N 0.09443 0.69744 0.71955 0.0
H2566 H 0.07266 0.24957 0.44977 0.0
H2567 H 0.03184 0.35341 0.56905 0.0
H2568 H -0.00319 0.29293 0.4456 0.0
H2569 H 0.11499 0.34349 0.54241 0.0
H2570 H 0.01573 0.32496 0.52941 0.0
H2571 H 0.08568 0.27623 0.4916 0.0
C2572 C 0.05877 0.26456 0.45789 0.0
C2573 C 0.03419 0.26994 0.44413 0.0
C2574 C 0.03746 0.32925 0.53241 0.0
C2575 C 0.0483 0.29963 0.49161 0.0
C2576 C 0.04662 0.34556 0.55481 0.0
C2577 C 0.07477 0.35083 0.55911 0.0
C2578 C 0.05668 0.31772 0.51484 0.0
C2579 C 0.09308 0.34005 0.54004 0.0
C2580 C 0.06612 0.27971 0.48155 0.0
C2581 C 0.01635 0.28897 0.45549 0.0
N2582 N 0.08374 0.32372 0.51899 0.0
N2583 N 0.0238 0.30334 0.47863 0.0
H2584 H 0.50915 0.69188 0.30687 0.0
H2585 H 0.40776 0.71957 0.18068 0.0
H2586 H 0.45846 0.76292 0.30388 0.0
H2587 H 0.42848 0.63824 0.20589 0.0
H2588 H 0.43303 0.73857 0.22103 0.0
H2589 H 0.48721 0.6747 0.26378 0.0
C2590 C 0.49349 0.70381 0.29698 0.0
C2591 C 0.48472 0.72819 0.30908 0.0
C2592 C 0.43195 0.71658 0.21763 0.0
C2593 C 0.46036 0.70942 0.26007 0.0
C2594 C 0.41755 0.70577 0.19473 0.0
C2595 C 0.41589 0.67734 0.19012 0.0
C2596 C 0.44522 0.69882 0.23554 0.0
C2597 C 0.42899 0.66029 0.20887 0.0
C2598 C 0.48101 0.69409 0.27257 0.0
C2599 C 0.46499 0.74351 0.29538 0.0
N2600 N 0.44328 0.67131 0.23069 0.0
N2601 N 0.4533 0.73381 0.27157 0.0
H2602 H 0.10622 0.72087 0.0716 0.0
H2603 H 0.06571 0.64033 0.93678 0.0
H2604 H 0.02151 0.69663 0.05709 0.0
H2605 H 0.13926 0.62192 0.98306 0.0
H2606 H 0.04847 0.66421 0.97754 0.0
H2607 H 0.11928 0.68876 0.03517 0.0
C2608 C 0.09042 0.70869 0.06082 0.0
C2609 C 0.0628 0.71124 0.06737 0.0
C2610 C 0.06816 0.65446 0.97871 0.0
C2611 C 0.07747 0.67505 0.02557 0.0
C2612 C 0.07798 0.64082 0.95555 0.0
C2613 C 0.10412 0.62939 0.95634 0.0
C2614 C 0.0849 0.6571 0.0024 0.0
C2615 C 0.11911 0.63062 0.98129 0.0
C2616 C 0.09786 0.69034 0.0402 0.0
C2617 C 0.04307 0.69503 0.05276 0.0
N2618 N 0.10954 0.64475 0.00312 0.0
N2619 N 0.05074 0.67784 0.03219 0.0
H2620 H 0.07305 0.30411 0.85984 0.0
H2621 H 0.06611 0.31718 0.70514 0.0
H2622 H 0.99492 0.31483 0.81869 0.0
H2623 H 0.11196 0.3841 0.74484 0.0
H2624 H 0.04868 0.30421 0.74969 0.0
H2625 H 0.09577 0.32569 0.82101 0.0
C2626 C 0.06063 0.31176 0.84316 0.0
C2627 C 0.0321 0.3072 0.84219 0.0
C2628 C 0.06288 0.3215 0.74853 0.0
C2629 C 0.05785 0.33078 0.79804 0.0
C2630 C 0.07303 0.32874 0.72328 0.0
C2631 C 0.09036 0.35182 0.72137 0.0
C2632 C 0.07058 0.33705 0.772 0.0
C2633 C 0.09846 0.36625 0.74556 0.0
C2634 C 0.07362 0.32386 0.82107 0.0
C2635 C 0.01699 0.31749 0.82009 0.0
N2636 N 0.08847 0.35862 0.77011 0.0
N2637 N 0.03012 0.32808 0.79847 0.0
H2638 H 0.48146 0.33179 0.58918 0.0
H2639 H 0.4334 0.31103 0.43884 0.0
H2640 H 0.46578 0.25008 0.55634 0.0
H2641 H 0.39405 0.37315 0.48718 0.0
H2642 H 0.45074 0.29072 0.48096 0.0
H2643 H 0.45338 0.35008 0.55185 0.0
C2644 C 0.47169 0.31771 0.57435 0.0
C2645 C 0.47591 0.28944 0.57563 0.0
C2646 C 0.43819 0.30871 0.48232 0.0
C2647 C 0.44467 0.31018 0.53287 0.0
C2648 C 0.42864 0.32048 0.4584 0.0
C2649 C 0.41267 0.34394 0.45975 0.0
C2650 C 0.43235 0.32093 0.50768 0.0
C2651 C 0.40652 0.35515 0.48549 0.0
C2652 C 0.45566 0.32813 0.55322 0.0
C2653 C 0.46287 0.27199 0.55603 0.0
N2654 N 0.41683 0.34379 0.50863 0.0
N2655 N 0.44829 0.28272 0.53499 0.0
H2656 H 0.20769 0.42725 0.23335 0.0
H2657 H 0.28272 0.41549 0.37957 0.0
H2658 H 0.18231 0.47186 0.30558 0.0
H2659 H 0.31638 0.3875 0.30312 0.0
H2660 H 0.24171 0.43007 0.35445 0.0
H2661 H 0.24373 0.40664 0.26047 0.0
C2662 C 0.20963 0.43274 0.25493 0.0
C2663 C 0.19205 0.4516 0.26711 0.0
C2664 C 0.25803 0.42055 0.34328 0.0
C2665 C 0.23341 0.42785 0.29835 0.0
C2666 C 0.28132 0.41209 0.35758 0.0
C2667 C 0.30304 0.40055 0.34332 0.0
C2668 C 0.25648 0.41714 0.31465 0.0
C2669 C 0.30023 0.39663 0.31486 0.0
C2670 C 0.23025 0.4209 0.27042 0.0
C2671 C 0.19553 0.45764 0.29525 0.0
N2672 N 0.27743 0.40502 0.30146 0.0
N2673 N 0.21591 0.44585 0.30993 0.0
H2674 H 0.25402 0.43835 0.08132 0.0
H2675 H 0.34006 0.57262 0.04412 0.0
H2676 H 0.30147 0.44351 0.00818 0.0
H2677 H 0.32311 0.55073 0.12737 0.0
H2678 H 0.3197 0.52853 0.0282 0.0
H2679 H 0.2726 0.4836 0.09635 0.0
C2680 C 0.26839 0.4491 0.06856 0.0
C2681 C 0.2771 0.43716 0.04408 0.0
C2682 C 0.32053 0.53348 0.04994 0.0
C2683 C 0.29754 0.48865 0.06038 0.0
C2684 C 0.33206 0.55857 0.05899 0.0
C2685 C 0.33338 0.56521 0.08706 0.0
C2686 C 0.30982 0.51532 0.0691 0.0
C2687 C 0.32274 0.5463 0.10554 0.0
C2688 C 0.27895 0.47475 0.07705 0.0
C2689 C 0.29506 0.45193 0.02766 0.0
N2690 N 0.31125 0.52226 0.09621 0.0
N2691 N 0.3048 0.47698 0.03613 0.0
H2692 H 0.35697 0.58167 0.78833 0.0
H2693 H 0.23989 0.55855 0.89676 0.0
H2694 H 0.34643 0.50702 0.83293 0.0
H2695 H 0.23015 0.60553 0.82342 0.0
H2696 H 0.28757 0.55065 0.8851 0.0
H2697 H 0.32002 0.602 0.81445 0.0
C2698 C 0.34768 0.56997 0.80442 0.0
C2699 C 0.35426 0.54248 0.80821 0.0
C2700 C 0.27505 0.56302 0.87185 0.0
C2701 C 0.31224 0.56546 0.83777 0.0
C2702 C 0.24787 0.56746 0.87836 0.0
C2703 C 0.23097 0.58228 0.86069 0.0
C2704 C 0.28546 0.57386 0.84779 0.0
C2705 C 0.24239 0.59353 0.83727 0.0
C2706 C 0.32645 0.58148 0.81906 0.0
C2707 C 0.34157 0.52816 0.82919 0.0
N2708 N 0.26898 0.58896 0.83139 0.0
N2709 N 0.32077 0.5397 0.84296 0.0
H2710 H 0.19255 0.56739 0.51862 0.0
H2711 H 0.13019 0.48675 0.64343 0.0
H2712 H 0.22161 0.57819 0.6024 0.0
H2713 H 0.13435 0.45023 0.56223 0.0
H2714 H 0.15171 0.5284 0.62673 0.0
H2715 H 0.16014 0.53191 0.53324 0.0
C2716 C 0.19183 0.56258 0.54015 0.0
C2717 C 0.20989 0.5756 0.55936 0.0
C2718 C 0.14754 0.51138 0.61253 0.0
C2719 C 0.17276 0.53547 0.57605 0.0
C2720 C 0.13516 0.48759 0.62195 0.0
C2721 C 0.13101 0.46465 0.60432 0.0
C2722 C 0.15552 0.51245 0.58523 0.0
C2723 C 0.1375 0.46725 0.57662 0.0
C2724 C 0.17343 0.54231 0.54838 0.0
C2725 C 0.20822 0.56848 0.58692 0.0
N2726 N 0.14976 0.49069 0.56794 0.0
N2727 N 0.18993 0.54886 0.59447 0.0
H2728 H 0.1813 0.53711 0.15229 0.0
H2729 H 0.31454 0.61515 0.19805 0.0
H2730 H 0.19353 0.55689 0.23831 0.0
H2731 H 0.26858 0.63979 0.12646 0.0
H2732 H 0.27307 0.59174 0.21423 0.0
H2733 H 0.21673 0.57146 0.14177 0.0
C2734 C 0.19132 0.54882 0.16889 0.0
C2735 C 0.18448 0.54432 0.19614 0.0
C2736 C 0.27209 0.60284 0.19528 0.0
C2737 C 0.22518 0.583 0.1844 0.0
C2738 C 0.29566 0.61632 0.18612 0.0
C2739 C 0.29523 0.62898 0.16057 0.0
C2740 C 0.24834 0.60168 0.1785 0.0
C2741 C 0.27009 0.62981 0.146 0.0
C2742 C 0.21136 0.56846 0.16292 0.0
C2743 C 0.1981 0.55999 0.21699 0.0
N2744 N 0.24787 0.61571 0.15479 0.0
N2745 N 0.2182 0.57836 0.21073 0.0
H2746 H 0.17007 0.3913 0.97546 0.0
H2747 H 0.13586 0.52335 0.94344 0.0
H2748 H 0.2361 0.41251 0.92204 0.0
H2749 H 0.16241 0.50292 0.86182 0.0
H2750 H 0.14612 0.47663 0.95717 0.0
H2751 H 0.14184 0.42601 0.95376 0.0
C2752 C 0.17827 0.40254 0.95848 0.0
C2753 C 0.20555 0.39942 0.95069 0.0
C2754 C 0.14883 0.48222 0.93605 0.0
C2755 C 0.17364 0.43894 0.92622 0.0
C2756 C 0.14322 0.50892 0.92828 0.0
C2757 C 0.14875 0.51721 0.90161 0.0
C2758 C 0.16047 0.46404 0.9171 0.0
C2759 C 0.15816 0.49759 0.88273 0.0
C2760 C 0.16227 0.42251 0.94642 0.0
C2761 C 0.21525 0.41458 0.92877 0.0
N2762 N 0.16447 0.47215 0.89105 0.0
N2763 N 0.19934 0.43393 0.91741 0.0
H2764 H 0.31681 0.44949 0.74611 0.0
H2765 H 0.20851 0.41756 0.62788 0.0
H2766 H 0.31017 0.50009 0.67517 0.0
H2767 H 0.18553 0.40799 0.71222 0.0
H2768 H 0.25151 0.43913 0.6435 0.0
H2769 H 0.27313 0.42654 0.73275 0.0
C2770 C 0.30608 0.4556 0.72764 0.0
C2771 C 0.3171 0.47601 0.71115 0.0
C2772 C 0.23704 0.43224 0.65852 0.0
C2773 C 0.26776 0.45023 0.69605 0.0
C2774 C 0.21257 0.41968 0.64974 0.0
C2775 C 0.1932 0.41116 0.66884 0.0
C2776 C 0.2425 0.43589 0.68658 0.0
C2777 C 0.19981 0.41444 0.69685 0.0
C2778 C 0.28124 0.44272 0.72023 0.0
C2779 C 0.30237 0.48398 0.68795 0.0
N2780 N 0.22407 0.42658 0.70496 0.0
N2781 N 0.27852 0.47067 0.68074 0.0
H2782 H 0.28721 0.57734 0.44773 0.0
H2783 H 0.37295 0.44176 0.46164 0.0
H2784 H 0.32444 0.55196 0.5239 0.0
H2785 H 0.35349 0.47757 0.3837 0.0
H2786 H 0.35614 0.48264 0.48483 0.0
H2787 H 0.31134 0.54098 0.42369 0.0
C2788 C 0.30041 0.56416 0.4594 0.0
C2789 C 0.30362 0.5676 0.48791 0.0
C2790 C 0.35586 0.4817 0.46264 0.0
C2791 C 0.3313 0.52612 0.46055 0.0
C2792 C 0.36547 0.45839 0.44941 0.0
C2793 C 0.36434 0.45616 0.42074 0.0
C2794 C 0.34471 0.50276 0.44708 0.0
C2795 C 0.35465 0.47839 0.40587 0.0
C2796 C 0.31432 0.54354 0.44565 0.0
C2797 C 0.32122 0.55006 0.50193 0.0
N2798 N 0.34482 0.50064 0.41924 0.0
N2799 N 0.33424 0.52998 0.48813 0.0
H2800 H 0.22668 0.20543 0.42665 0.0
H2801 H 0.37492 0.27335 0.40716 0.0
H2802 H 0.29982 0.17912 0.46905 0.0
H2803 H 0.29931 0.31183 0.384 0.0
H2804 H 0.34859 0.23314 0.42129 0.0
H2805 H 0.25417 0.23939 0.40309 0.0
C2806 C 0.24853 0.20671 0.43099 0.0
C2807 C 0.26091 0.1896 0.45016 0.0
C2808 C 0.33784 0.25028 0.41282 0.0
C2809 C 0.29245 0.22833 0.42301 0.0
C2810 C 0.35283 0.27315 0.40457 0.0
C2811 C 0.3392 0.29609 0.39478 0.0
C2812 C 0.30912 0.25037 0.41103 0.0
C2813 C 0.31057 0.29471 0.39183 0.0
C2814 C 0.26419 0.2261 0.41747 0.0
C2815 C 0.28935 0.19212 0.45473 0.0
N2816 N 0.29644 0.2723 0.40016 0.0
N2817 N 0.30417 0.21122 0.4413 0.0
H2818 H 0.83624 0.33742 0.5181 0.0
H2819 H 0.81726 0.22825 0.62548 0.0
H2820 H 0.79042 0.35566 0.59051 0.0
H2821 H 0.89398 0.23543 0.58358 0.0
H2822 H 0.80808 0.27602 0.61482 0.0
H2823 H 0.8603 0.30198 0.54304 0.0
C2824 C 0.83195 0.33456 0.53954 0.0
C2825 C 0.81121 0.34918 0.55225 0.0
C2826 C 0.82721 0.26726 0.60854 0.0
C2827 C 0.83767 0.30816 0.58043 0.0
C2828 C 0.83233 0.23998 0.61442 0.0
C2829 C 0.85615 0.22773 0.60497 0.0
C2830 C 0.84571 0.28204 0.59255 0.0
C2831 C 0.87519 0.24395 0.59101 0.0
C2832 C 0.8456 0.31432 0.55375 0.0
C2833 C 0.80629 0.34473 0.58001 0.0
N2834 N 0.86925 0.2701 0.58465 0.0
N2835 N 0.81882 0.32394 0.593 0.0
H2836 H 0.4515 0.99497 0.30227 0.0
H2837 H 0.5469 0.12625 0.32319 0.0
H2838 H 0.44326 0.0639 0.24936 0.0
H2839 H 0.57691 0.04508 0.33705 0.0
H2840 H 0.50535 0.10573 0.30144 0.0
H2841 H 0.49482 0.01482 0.32056 0.0
C2842 C 0.45889 0.0144 0.29466 0.0
C2843 C 0.44372 0.02839 0.27501 0.0
C2844 C 0.52118 0.09252 0.30911 0.0
C2845 C 0.4929 0.05095 0.29548 0.0
C2846 C 0.54471 0.10413 0.32168 0.0
C2847 C 0.56529 0.08727 0.33192 0.0
C2848 C 0.51807 0.06392 0.30732 0.0
C2849 C 0.56156 0.05877 0.3293 0.0
C2850 C 0.48359 0.02555 0.30488 0.0
C2851 C 0.45431 0.05297 0.26501 0.0
N2852 N 0.53823 0.04796 0.31748 0.0
N2853 N 0.47817 0.06384 0.27575 0.0
H2854 H 0.6985 0.72098 0.01415 0.0
H2855 H 0.65587 0.77809 0.15542 0.0
H2856 H 0.70796 0.66961 0.08438 0.0
H2857 H 0.69876 0.82904 0.09853 0.0
H2858 H 0.67267 0.73737 0.13137 0.0
H2859 H 0.69384 0.76063 0.04499 0.0
C2860 C 0.69931 0.71802 0.03607 0.0
C2861 C 0.70341 0.69201 0.04678 0.0
C2862 C 0.67901 0.75751 0.12472 0.0
C2863 C 0.69832 0.73721 0.08206 0.0
C2864 C 0.66962 0.7807 0.1385 0.0
C2865 C 0.67574 0.80694 0.12879 0.0
C2866 C 0.69391 0.76074 0.10075 0.0
C2867 C 0.6935 0.80923 0.10671 0.0
C2868 C 0.69708 0.74068 0.05362 0.0
C2869 C 0.70475 0.68938 0.07537 0.0
N2870 N 0.70133 0.78638 0.09291 0.0
N2871 N 0.70185 0.71171 0.09212 0.0
H2872 H 0.574 0.44926 0.27767 0.0
H2873 H 0.45823 0.44458 0.38939 0.0
H2874 H 0.55682 0.51609 0.33377 0.0
H2875 H 0.47884 0.37436 0.33943 0.0
H2876 H 0.49863 0.46892 0.37325 0.0
H2877 H 0.54273 0.41976 0.30283 0.0
C2878 C 0.56373 0.45775 0.29525 0.0
C2879 C 0.56776 0.48535 0.30332 0.0
C2880 C 0.49465 0.44804 0.36609 0.0
C2881 C 0.53222 0.45165 0.3323 0.0
C2882 C 0.47165 0.43413 0.3754 0.0
C2883 C 0.46513 0.40762 0.36544 0.0
C2884 C 0.51095 0.43551 0.34628 0.0
C2885 C 0.4832 0.39485 0.34753 0.0
C2886 C 0.54601 0.44084 0.3097 0.0
C2887 C 0.55412 0.49509 0.32647 0.0
N2888 N 0.50509 0.40914 0.33806 0.0
N2889 N 0.53686 0.47832 0.33999 0.0
H2890 H 0.24315 0.81111 0.95653 0.0
H2891 H 0.17691 0.66161 0.96236 0.0
H2892 H 0.17844 0.79153 0.01192 0.0
H2893 H 0.20092 0.69711 0.8863 0.0
H2894 H 0.18859 0.70522 0.98632 0.0
H2895 H 0.2382 0.7652 0.93573 0.0
C2896 C 0.2276 0.79717 0.96399 0.0
C2897 C 0.21018 0.80529 0.98493 0.0
C2898 C 0.19183 0.70321 0.9645 0.0
C2899 C 0.20558 0.75261 0.96246 0.0
C2900 C 0.18559 0.67839 0.95097 0.0
C2901 C 0.18861 0.67596 0.92259 0.0
C2902 C 0.20136 0.72542 0.94943 0.0
C2903 C 0.19893 0.69829 0.90833 0.0
C2904 C 0.22504 0.771 0.95236 0.0
C2905 C 0.19157 0.78611 0.99515 0.0
N2906 N 0.20503 0.72225 0.92197 0.0
N2907 N 0.18959 0.76051 0.98366 0.0
H2908 H 0.42434 0.90264 0.24384 0.0
H2909 H 0.52394 0.84463 0.16642 0.0
H2910 H 0.40254 0.94822 0.17222 0.0
H2911 H 0.5277 0.92693 0.13576 0.0
H2912 H 0.47703 0.85212 0.18048 0.0
H2913 H 0.45934 0.87944 0.21757 0.0
C2914 C 0.42628 0.907 0.2223 0.0
C2915 C 0.41071 0.9274 0.21018 0.0
C2916 C 0.48808 0.86838 0.1704 0.0
C2917 C 0.45095 0.90153 0.18022 0.0
C2918 C 0.51483 0.86418 0.16227 0.0
C2919 C 0.53011 0.88553 0.15061 0.0
C2920 C 0.47647 0.89403 0.16672 0.0
C2921 C 0.51692 0.91013 0.14522 0.0
C2922 C 0.4462 0.89374 0.20728 0.0
C2923 C 0.41413 0.93253 0.18227 0.0
N2924 N 0.49088 0.91384 0.15364 0.0
N2925 N 0.43455 0.92032 0.16842 0.0
H2926 H 0.02548 0.06735 0.74663 0.0
H2927 H 0.96779 0.10413 0.60194 0.0
H2928 H 0.07771 0.06279 0.67653 0.0
H2929 H 0.91757 0.06469 0.66172 0.0
H2930 H 0.00882 0.09054 0.62761 0.0
H2931 H 0.98574 0.07058 0.71568 0.0
C2932 C 0.02863 0.06737 0.72473 0.0
C2933 C 0.05495 0.06496 0.71413 0.0
C2934 C 0.98882 0.0842 0.63464 0.0
C2935 C 0.00955 0.06827 0.67867 0.0
C2936 C 0.96546 0.09169 0.61988 0.0
C2937 C 0.93932 0.08549 0.62975 0.0
C2938 C 0.98584 0.07115 0.65973 0.0
C2939 C 0.93734 0.06969 0.65329 0.0
C2940 C 0.00591 0.06877 0.7071 0.0
C2941 C 0.05775 0.06467 0.68554 0.0
N2942 N 0.96032 0.06368 0.66792 0.0
N2943 N 0.03532 0.06655 0.66875 0.0
loop_
_geom_bond_atom_site_label_1
_geom_bond_atom_site_label_2
_geom_bond_distance
_geom_bond_site_symmetry_2
_ccdc_geom_bond_type
Mn0 O5 2.095 1_455 S
Mn0 O15 2.162 1_455 S
Mn0 O16 2.297 1_455 S
Mn0 O24 2.385 . S
Mn0 O25 2.209 . S
Mn0 O26 2.094 . S
Mn1 O6 2.121 1_455 S
Mn1 N8 2.257 . S
Mn1 N17 2.282 . S
Mn1 O25 2.215 . S
Mn1 O27 2.117 . S
C2 O24 1.234 . S
C2 O25 1.283 . S
C3 O15 1.281 . S
C3 O16 1.236 . S
C4 O26 1.240 . S
C4 O27 1.264 . S
O5 Mn0 2.095 1_655 S
O5 C14 1.250 . S
O6 Mn1 2.121 1_655 S
O6 C14 1.258 . S
C7 N8 1.326 . S
C7 C11 1.460 . S
C7 H13 0.929 . S
N8 Mn1 2.257 . S
N8 C7 1.326 . S
N8 C12 1.362 . S
C9 C10 1.258 . S
C9 C12 1.431 . S
C9 C29 1.449 . S
C10 C9 1.258 . S
C10 C11 1.477 . S
C10 H30 0.931 . S
C11 C7 1.460 . S
C11 C10 1.477 . S
C11 H31 0.930 . S
C12 N8 1.362 . S
C12 C9 1.431 . S
C12 C22 1.476 . S
H13 C7 0.929 . S
C14 O5 1.250 . S
C14 O6 1.258 . S
O15 Mn0 2.162 1_655 S
O15 C3 1.281 . S
O16 Mn0 2.297 1_655 S
O16 C3 1.236 . S
N17 Mn1 2.282 . S
N17 C18 1.328 . S
N17 C22 1.318 . S
C18 N17 1.328 . S
C18 C19 1.457 . S
C18 H23 0.929 . S
C19 C18 1.457 . S
C19 C20 1.291 . S
C19 H32 0.931 . S
C20 C19 1.291 . S
C20 C21 1.373 . S
C20 H33 0.929 . S
C21 C20 1.373 . S
C21 C22 1.396 . S
C21 C28 1.403 . S
C22 C12 1.476 . S
C22 N17 1.318 . S
C22 C21 1.396 . S
H23 C18 0.929 . S
O24 Mn0 2.385 . S
O24 C2 1.234 . S
O25 Mn0 2.209 . S
O25 Mn1 2.215 . S
O25 C2 1.283 . S
O26 Mn0 2.094 . S
O26 C4 1.240 . S
O27 Mn1 2.117 . S
O27 C4 1.264 . S
C28 C21 1.403 . S
C28 C29 1.399 . S
C28 H34 0.929 . S
C29 C9 1.449 . S
C29 C28 1.399 . S
C29 H35 0.930 . S
H30 C10 0.931 . S
H31 C11 0.930 . S
H32 C19 0.931 . S
H33 C20 0.929 . S
H34 C28 0.929 . S
H35 C29 0.930 . S
Mn36 O41 2.095 . S
Mn36 O51 2.162 . S
Mn36 O52 2.297 . S
Mn36 O60 2.385 . S
Mn36 O61 2.209 1_455 S
Mn36 O62 2.094 . S
Mn37 O42 2.121 . S
Mn37 N44 2.257 . S
Mn37 N53 2.282 . S
Mn37 O61 2.215 . S
Mn37 O63 2.117 1_655 S
C38 O60 1.234 1_655 S
C38 O61 1.283 . S
C39 O51 1.281 . S
C39 O52 1.236 . S
C40 O62 1.240 . S
C40 O63 1.264 . S
O41 Mn36 2.095 . S
O41 C50 1.250 1_455 S
O42 Mn37 2.121 . S
O42 C50 1.258 . S
C43 N44 1.326 . S
C43 C47 1.460 . S
C43 H49 0.929 . S
N44 Mn37 2.257 . S
N44 C43 1.326 . S
N44 C48 1.362 . S
C45 C46 1.258 . S
C45 C48 1.431 . S
C45 C65 1.449 . S
C46 C45 1.258 . S
C46 C47 1.477 . S
C46 H66 0.931 . S
C47 C43 1.460 . S
C47 C46 1.477 . S
C47 H67 0.930 . S
C48 N44 1.362 . S
C48 C45 1.431 . S
C48 C58 1.476 . S
H49 C43 0.929 . S
C50 O41 1.250 1_655 S
C50 O42 1.258 . S
O51 Mn36 2.162 . S
O51 C39 1.281 . S
O52 Mn36 2.297 . S
O52 C39 1.236 . S
N53 Mn37 2.282 . S
N53 C54 1.328 . S
N53 C58 1.318 . S
C54 N53 1.328 . S
C54 C55 1.457 . S
C54 H59 0.929 . S
C55 C54 1.457 . S
C55 C56 1.291 . S
C55 H68 0.931 . S
C56 C55 1.291 . S
C56 C57 1.373 . S
C56 H69 0.929 . S
C57 C56 1.373 . S
C57 C58 1.396 . S
C57 C64 1.403 . S
C58 C48 1.476 . S
C58 N53 1.318 . S
C58 C57 1.396 . S
H59 C54 0.929 . S
O60 Mn36 2.385 . S
O60 C38 1.234 1_455 S
O61 Mn36 2.209 1_655 S
O61 Mn37 2.215 . S
O61 C38 1.283 . S
O62 Mn36 2.094 . S
O62 C40 1.240 . S
O63 Mn37 2.117 1_455 S
O63 C40 1.264 . S
C64 C57 1.403 . S
C64 C65 1.399 . S
C64 H70 0.929 . S
C65 C45 1.449 . S
C65 C64 1.399 . S
C65 H71 0.930 . S
H66 C46 0.931 . S
H67 C47 0.930 . S
H68 C55 0.931 . S
H69 C56 0.929 . S
H70 C64 0.929 . S
H71 C65 0.930 . S
Mn72 O77 2.095 . S
Mn72 O87 2.162 . S
Mn72 O88 2.297 . S
Mn72 O96 2.385 . S
Mn72 O97 2.209 . S
Mn72 O98 2.094 . S
Mn73 O78 2.121 . S
Mn73 N80 2.257 . S
Mn73 N89 2.282 . S
Mn73 O97 2.215 . S
Mn73 O99 2.117 . S
C74 O96 1.234 . S
C74 O97 1.283 . S
C75 O87 1.281 . S
C75 O88 1.236 . S
C76 O98 1.240 . S
C76 O99 1.264 . S
O77 Mn72 2.095 . S
O77 C86 1.250 . S
O78 Mn73 2.121 . S
O78 C86 1.258 . S
C79 N80 1.326 . S
C79 C83 1.460 . S
C79 H85 0.929 . S
N80 Mn73 2.257 . S
N80 C79 1.326 . S
N80 C84 1.362 . S
C81 C82 1.258 . S
C81 C84 1.431 . S
C81 C101 1.449 . S
C82 C81 1.258 . S
C82 C83 1.477 . S
C82 H102 0.931 . S
C83 C79 1.460 . S
C83 C82 1.477 . S
C83 H103 0.930 . S
C84 N80 1.362 . S
C84 C81 1.431 . S
C84 C94 1.476 . S
H85 C79 0.929 . S
C86 O77 1.250 . S
C86 O78 1.258 . S
O87 Mn72 2.162 . S
O87 C75 1.281 . S
O88 Mn72 2.297 . S
O88 C75 1.236 . S
N89 Mn73 2.282 . S
N89 C90 1.328 . S
N89 C94 1.318 . S
C90 N89 1.328 . S
C90 C91 1.457 . S
C90 H95 0.929 . S
C91 C90 1.457 . S
C91 C92 1.291 . S
C91 H104 0.931 . S
C92 C91 1.291 . S
C92 C93 1.373 . S
C92 H105 0.929 . S
C93 C92 1.373 . S
C93 C94 1.396 . S
C93 C100 1.403 . S
C94 C84 1.476 . S
C94 N89 1.318 . S
C94 C93 1.396 . S
H95 C90 0.929 . S
O96 Mn72 2.385 . S
O96 C74 1.234 . S
O97 Mn72 2.209 . S
O97 Mn73 2.215 . S
O97 C74 1.283 . S
O98 Mn72 2.094 . S
O98 C76 1.240 . S
O99 Mn73 2.117 . S
O99 C76 1.264 . S
C100 C93 1.403 . S
C100 C101 1.399 . S
C100 H106 0.929 . S
C101 C81 1.449 . S
C101 C100 1.399 . S
C101 H107 0.930 . S
H102 C82 0.931 . S
H103 C83 0.930 . S
H104 C91 0.931 . S
H105 C92 0.929 . S
H106 C100 0.929 . S
H107 C101 0.930 . S
Mn108 O113 2.095 . S
Mn108 O123 2.162 . S
Mn108 O124 2.297 . S
Mn108 O132 2.385 . S
Mn108 O133 2.209 . S
Mn108 O134 2.094 . S
Mn109 O114 2.121 . S
Mn109 N116 2.257 . S
Mn109 N125 2.282 . S
Mn109 O133 2.215 . S
Mn109 O135 2.117 . S
C110 O132 1.234 . S
C110 O133 1.283 . S
C111 O123 1.281 . S
C111 O124 1.236 . S
C112 O134 1.240 . S
C112 O135 1.264 . S
O113 Mn108 2.095 . S
O113 C122 1.250 . S
O114 Mn109 2.121 . S
O114 C122 1.258 . S
C115 N116 1.326 . S
C115 C119 1.460 . S
C115 H121 0.929 . S
N116 Mn109 2.257 . S
N116 C115 1.326 . S
N116 C120 1.362 . S
C117 C118 1.258 . S
C117 C120 1.431 . S
C117 C137 1.449 . S
C118 C117 1.258 . S
C118 C119 1.477 . S
C118 H138 0.931 . S
C119 C115 1.460 . S
C119 C118 1.477 . S
C119 H139 0.930 . S
C120 N116 1.362 . S
C120 C117 1.431 . S
C120 C130 1.476 . S
H121 C115 0.929 . S
C122 O113 1.250 . S
C122 O114 1.258 . S
O123 Mn108 2.162 . S
O123 C111 1.281 . S
O124 Mn108 2.297 . S
O124 C111 1.236 . S
N125 Mn109 2.282 . S
N125 C126 1.328 . S
N125 C130 1.318 . S
C126 N125 1.328 . S
C126 C127 1.457 . S
C126 H131 0.929 . S
C127 C126 1.457 . S
C127 C128 1.291 . S
C127 H140 0.931 . S
C128 C127 1.291 . S
C128 C129 1.373 . S
C128 H141 0.929 . S
C129 C128 1.373 . S
C129 C130 1.396 . S
C129 C136 1.403 . S
C130 C120 1.476 . S
C130 N125 1.318 . S
C130 C129 1.396 . S
H131 C126 0.929 . S
O132 Mn108 2.385 . S
O132 C110 1.234 . S
O133 Mn108 2.209 . S
O133 Mn109 2.215 . S
O133 C110 1.283 . S
O134 Mn108 2.094 . S
O134 C112 1.240 . S
O135 Mn109 2.117 . S
O135 C112 1.264 . S
C136 C129 1.403 . S
C136 C137 1.399 . S
C136 H142 0.929 . S
C137 C117 1.449 . S
C137 C136 1.399 . S
C137 H143 0.930 . S
H138 C118 0.931 . S
H139 C119 0.930 . S
H140 C127 0.931 . S
H141 C128 0.929 . S
H142 C136 0.929 . S
H143 C137 0.930 . S
Mn144 O149 2.095 . S
Mn144 O159 2.162 . S
Mn144 O160 2.297 . S
Mn144 O168 2.385 1_655 S
Mn144 O169 2.209 1_655 S
Mn144 O170 2.094 1_655 S
Mn145 O150 2.121 1_455 S
Mn145 N152 2.257 . S
Mn145 N161 2.282 . S
Mn145 O169 2.215 . S
Mn145 O171 2.117 . S
C146 O168 1.234 . S
C146 O169 1.283 . S
C147 O159 1.281 . S
C147 O160 1.236 . S
C148 O170 1.240 . S
C148 O171 1.264 . S
O149 Mn144 2.095 . S
O149 C158 1.250 . S
O150 Mn145 2.121 1_655 S
O150 C158 1.258 . S
C151 N152 1.326 . S
C151 C155 1.460 . S
C151 H157 0.907 1_455 S
N152 Mn145 2.257 . S
N152 C151 1.326 . S
N152 C156 1.362 . S
C153 C154 1.258 . S
C153 C156 1.431 . S
C153 C173 1.449 . S
C154 C153 1.258 . S
C154 C155 1.477 . S
C154 H174 0.931 . S
C155 C151 1.460 . S
C155 C154 1.477 . S
C155 H175 0.930 . S
C156 N152 1.362 . S
C156 C153 1.431 . S
C156 C166 1.476 . S
H157 C151 0.907 1_655 S
C158 O149 1.250 . S
C158 O150 1.258 . S
O159 Mn144 2.162 . S
O159 C147 1.281 . S
O160 Mn144 2.297 . S
O160 C147 1.236 . S
N161 Mn145 2.282 . S
N161 C162 1.328 . S
N161 C166 1.318 . S
C162 N161 1.328 . S
C162 C163 1.457 . S
C162 H167 0.929 . S
C163 C162 1.457 . S
C163 C164 1.291 . S
C163 H176 0.931 . S
C164 C163 1.291 . S
C164 C165 1.373 . S
C164 H177 0.929 . S
C165 C164 1.373 . S
C165 C166 1.396 . S
C165 C172 1.403 . S
C166 C156 1.476 . S
C166 N161 1.318 . S
C166 C165 1.396 . S
H167 C162 0.929 . S
O168 Mn144 2.385 1_455 S
O168 C146 1.234 . S
O169 Mn144 2.209 1_455 S
O169 Mn145 2.215 . S
O169 C146 1.283 . S
O170 Mn144 2.094 1_455 S
O170 C148 1.240 . S
O171 Mn145 2.117 . S
O171 C148 1.264 . S
C172 C165 1.403 . S
C172 C173 1.399 . S
C172 H178 0.929 . S
C173 C153 1.449 . S
C173 C172 1.399 . S
C173 H179 0.930 . S
H174 C154 0.931 . S
H175 C155 0.930 . S
H176 C163 0.931 . S
H177 C164 0.929 . S
H178 C172 0.929 . S
H179 C173 0.930 . S
Mn180 O185 2.095 . S
Mn180 O195 2.162 . S
Mn180 O196 2.297 . S
Mn180 O204 2.385 . S
Mn180 O205 2.209 . S
Mn180 O206 2.094 . S
Mn181 O186 2.121 . S
Mn181 N188 2.257 . S
Mn181 N197 2.282 . S
Mn181 O205 2.215 . S
Mn181 O207 2.117 . S
C182 O204 1.234 . S
C182 O205 1.283 . S
C183 O195 1.281 . S
C183 O196 1.236 . S
C184 O206 1.240 . S
C184 O207 1.264 . S
O185 Mn180 2.095 . S
O185 C194 1.250 . S
O186 Mn181 2.121 . S
O186 C194 1.258 . S
C187 N188 1.326 . S
C187 C191 1.460 . S
C187 H193 0.929 . S
N188 Mn181 2.257 . S
N188 C187 1.326 . S
N188 C192 1.362 . S
C189 C190 1.258 . S
C189 C192 1.431 . S
C189 C209 1.449 . S
C190 C189 1.258 . S
C190 C191 1.477 . S
C190 H210 0.931 . S
C191 C187 1.460 . S
C191 C190 1.477 . S
C191 H211 0.930 . S
C192 N188 1.362 . S
C192 C189 1.431 . S
C192 C202 1.476 . S
H193 C187 0.929 . S
C194 O185 1.250 . S
C194 O186 1.258 . S
O195 Mn180 2.162 . S
O195 C183 1.281 . S
O196 Mn180 2.297 . S
O196 C183 1.236 . S
N197 Mn181 2.282 . S
N197 C198 1.328 . S
N197 C202 1.318 . S
C198 N197 1.328 . S
C198 C199 1.457 . S
C198 H203 0.929 . S
C199 C198 1.457 . S
C199 C200 1.291 . S
C199 H212 0.931 . S
C200 C199 1.291 . S
C200 C201 1.373 . S
C200 H213 0.929 . S
C201 C200 1.373 . S
C201 C202 1.396 . S
C201 C208 1.403 . S
C202 C192 1.476 . S
C202 N197 1.318 . S
C202 C201 1.396 . S
H203 C198 0.929 . S
O204 Mn180 2.385 . S
O204 C182 1.234 . S
O205 Mn180 2.209 . S
O205 Mn181 2.215 . S
O205 C182 1.283 . S
O206 Mn180 2.094 . S
O206 C184 1.240 . S
O207 Mn181 2.117 . S
O207 C184 1.264 . S
C208 C201 1.403 . S
C208 C209 1.399 . S
C208 H214 0.929 . S
C209 C189 1.449 . S
C209 C208 1.399 . S
C209 H215 0.930 . S
H210 C190 0.931 . S
H211 C191 0.930 . S
H212 C199 0.931 . S
H213 C200 0.929 . S
H214 C208 0.929 . S
H215 C209 0.930 . S
Mn216 O221 2.095 . S
Mn216 O231 2.162 . S
Mn216 O232 2.297 . S
Mn216 O240 2.385 . S
Mn216 O241 2.209 . S
Mn216 O242 2.094 . S
Mn217 O222 2.121 . S
Mn217 N224 2.257 . S
Mn217 N233 2.282 . S
Mn217 O241 2.215 . S
Mn217 O243 2.117 . S
C218 O240 1.234 . S
C218 O241 1.283 . S
C219 O231 1.281 . S
C219 O232 1.236 . S
C220 O242 1.240 . S
C220 O243 1.264 . S
O221 Mn216 2.095 . S
O221 C230 1.250 . S
O222 Mn217 2.121 . S
O222 C230 1.258 . S
C223 N224 1.326 . S
C223 C227 1.460 . S
C223 H229 0.929 . S
N224 Mn217 2.257 . S
N224 C223 1.326 . S
N224 C228 1.362 . S
C225 C226 1.258 . S
C225 C228 1.431 . S
C225 C245 1.449 . S
C226 C225 1.258 . S
C226 C227 1.477 . S
C226 H246 0.931 . S
C227 C223 1.460 . S
C227 C226 1.477 . S
C227 H247 0.930 . S
C228 N224 1.362 . S
C228 C225 1.431 . S
C228 C238 1.476 . S
H229 C223 0.929 . S
C230 O221 1.250 . S
C230 O222 1.258 . S
O231 Mn216 2.162 . S
O231 C219 1.281 . S
O232 Mn216 2.297 . S
O232 C219 1.236 . S
N233 Mn217 2.282 . S
N233 C234 1.328 . S
N233 C238 1.318 . S
C234 N233 1.328 . S
C234 C235 1.457 . S
C234 H239 0.929 . S
C235 C234 1.457 . S
C235 C236 1.291 . S
C235 H248 0.931 . S
C236 C235 1.291 . S
C236 C237 1.373 . S
C236 H249 0.929 . S
C237 C236 1.373 . S
C237 C238 1.396 . S
C237 C244 1.403 . S
C238 C228 1.476 . S
C238 N233 1.318 . S
C238 C237 1.396 . S
H239 C234 0.929 . S
O240 Mn216 2.385 . S
O240 C218 1.234 . S
O241 Mn216 2.209 . S
O241 Mn217 2.215 . S
O241 C218 1.283 . S
O242 Mn216 2.094 . S
O242 C220 1.240 . S
O243 Mn217 2.117 . S
O243 C220 1.264 . S
C244 C237 1.403 . S
C244 C245 1.399 . S
C244 H250 0.929 . S
C245 C225 1.449 . S
C245 C244 1.399 . S
C245 H251 0.930 . S
H246 C226 0.931 . S
H247 C227 0.930 . S
H248 C235 0.931 . S
H249 C236 0.929 . S
H250 C244 0.929 . S
H251 C245 0.930 . S
Mn252 O257 2.095 . S
Mn252 O267 2.162 . S
Mn252 O268 2.297 . S
Mn252 O276 2.385 . S
Mn252 O277 2.209 1_455 S
Mn252 O278 2.094 . S
Mn253 O258 2.121 . S
Mn253 N260 2.257 . S
Mn253 N269 2.282 . S
Mn253 O277 2.215 . S
Mn253 O279 2.117 1_655 S
C254 O276 1.234 1_655 S
C254 O277 1.283 . S
C255 O267 1.281 . S
C255 O268 1.236 . S
C256 O278 1.240 . S
C256 O279 1.264 . S
O257 Mn252 2.095 . S
O257 C266 1.250 1_455 S
O258 Mn253 2.121 . S
O258 C266 1.258 . S
C259 N260 1.326 . S
C259 C263 1.460 . S
C259 H265 0.929 . S
N260 Mn253 2.257 . S
N260 C259 1.326 . S
N260 C264 1.362 . S
C261 C262 1.258 . S
C261 C264 1.431 . S
C261 C281 1.449 . S
C262 C261 1.258 . S
C262 C263 1.477 . S
C262 H282 0.931 . S
C263 C259 1.460 . S
C263 C262 1.477 . S
C263 H283 0.930 . S
C264 N260 1.362 . S
C264 C261 1.431 . S
C264 C274 1.476 . S
H265 C259 0.929 . S
C266 O257 1.250 1_655 S
C266 O258 1.258 . S
O267 Mn252 2.162 . S
O267 C255 1.281 . S
O268 Mn252 2.297 . S
O268 C255 1.236 . S
N269 Mn253 2.282 . S
N269 C270 1.328 . S
N269 C274 1.318 . S
C270 N269 1.328 . S
C270 C271 1.457 . S
C270 H275 0.929 . S
C271 C270 1.457 . S
C271 C272 1.291 . S
C271 H284 0.931 . S
C272 C271 1.291 . S
C272 C273 1.373 . S
C272 H285 0.929 . S
C273 C272 1.373 . S
C273 C274 1.396 . S
C273 C280 1.403 . S
C274 C264 1.476 . S
C274 N269 1.318 . S
C274 C273 1.396 . S
H275 C270 0.929 . S
O276 Mn252 2.385 . S
O276 C254 1.234 1_455 S
O277 Mn252 2.209 1_655 S
O277 Mn253 2.215 . S
O277 C254 1.283 . S
O278 Mn252 2.094 . S
O278 C256 1.240 . S
O279 Mn253 2.117 1_455 S
O279 C256 1.264 . S
C280 C273 1.403 . S
C280 C281 1.399 . S
C280 H286 0.929 . S
C281 C261 1.449 . S
C281 C280 1.399 . S
C281 H287 0.930 . S
H282 C262 0.931 . S
H283 C263 0.930 . S
H284 C271 0.931 . S
H285 C272 0.929 . S
H286 C280 0.929 . S
H287 C281 0.930 . S
Mn288 O293 2.108 . S
Mn288 O303 2.174 . S
Mn288 O304 2.314 . S
Mn288 O312 2.369 1_565 S
Mn288 O313 2.199 1_565 S
Mn288 O314 2.080 1_565 S
Mn289 O294 2.121 1_545 S
Mn289 N296 2.257 . S
Mn289 N305 2.282 . S
Mn289 O313 2.215 . S
Mn289 O315 2.117 . S
C290 O312 1.234 . S
C290 O313 1.283 . S
C291 O303 1.281 . S
C291 O304 1.236 . S
C292 O314 1.240 . S
C292 O315 1.264 . S
O293 Mn288 2.108 . S
O293 C302 1.250 . S
O294 Mn289 2.121 1_565 S
O294 C302 1.258 . S
C295 N296 1.326 . S
C295 C299 1.460 . S
C295 H301 0.959 . S
N296 Mn289 2.257 . S
N296 C295 1.326 . S
N296 C300 1.362 . S
C297 C298 1.258 . S
C297 C300 1.431 . S
C297 C317 1.449 . S
C298 C297 1.258 . S
C298 C299 1.477 . S
C298 H318 0.931 . S
C299 C295 1.460 . S
C299 C298 1.477 . S
C299 H319 0.930 . S
C300 N296 1.362 . S
C300 C297 1.431 . S
C300 C310 1.476 . S
H301 C295 0.959 . S
C302 O293 1.250 . S
C302 O294 1.258 . S
O303 Mn288 2.174 . S
O303 C291 1.281 . S
O304 Mn288 2.314 . S
O304 C291 1.236 . S
N305 Mn289 2.282 . S
N305 C306 1.328 . S
N305 C310 1.318 . S
C306 N305 1.328 . S
C306 C307 1.457 . S
C306 H311 0.929 . S
C307 C306 1.457 . S
C307 C308 1.291 . S
C307 H320 0.931 . S
C308 C307 1.291 . S
C308 C309 1.373 . S
C308 H321 0.929 . S
C309 C308 1.373 . S
C309 C310 1.396 . S
C309 C316 1.403 . S
C310 C300 1.476 . S
C310 N305 1.318 . S
C310 C309 1.396 . S
H311 C306 0.929 . S
O312 Mn288 2.369 1_545 S
O312 C290 1.234 . S
O313 Mn288 2.199 1_545 S
O313 Mn289 2.215 . S
O313 C290 1.283 . S
O314 Mn288 2.080 1_545 S
O314 C292 1.240 . S
O315 Mn289 2.117 . S
O315 C292 1.264 . S
C316 C309 1.403 . S
C316 C317 1.399 . S
C316 H322 0.929 . S
C317 C297 1.449 . S
C317 C316 1.399 . S
C317 H323 0.930 . S
H318 C298 0.931 . S
H319 C299 0.930 . S
H320 C307 0.931 . S
H321 C308 0.929 . S
H322 C316 0.929 . S
H323 C317 0.930 . S
Mn324 O329 2.095 . S
Mn324 O339 2.162 . S
Mn324 O340 2.297 . S
Mn324 O348 2.385 . S
Mn324 O349 2.209 . S
Mn324 O350 2.094 . S
Mn325 O330 2.121 . S
Mn325 N332 2.257 . S
Mn325 N341 2.282 . S
Mn325 O349 2.215 . S
Mn325 O351 2.117 . S
C326 O348 1.234 . S
C326 O349 1.283 . S
C327 O339 1.281 . S
C327 O340 1.236 . S
C328 O350 1.240 . S
C328 O351 1.264 . S
O329 Mn324 2.095 . S
O329 C338 1.250 . S
O330 Mn325 2.121 . S
O330 C338 1.258 . S
C331 N332 1.326 . S
C331 C335 1.460 . S
C331 H337 0.929 . S
N332 Mn325 2.257 . S
N332 C331 1.326 . S
N332 C336 1.362 . S
C333 C334 1.258 . S
C333 C336 1.431 . S
C333 C353 1.449 . S
C334 C333 1.258 . S
C334 C335 1.477 . S
C334 H354 0.931 . S
C335 C331 1.460 . S
C335 C334 1.477 . S
C335 H355 0.930 . S
C336 N332 1.362 . S
C336 C333 1.431 . S
C336 C346 1.476 . S
H337 C331 0.929 . S
C338 O329 1.250 . S
C338 O330 1.258 . S
O339 Mn324 2.162 . S
O339 C327 1.281 . S
O340 Mn324 2.297 . S
O340 C327 1.236 . S
N341 Mn325 2.282 . S
N341 C342 1.328 . S
N341 C346 1.318 . S
C342 N341 1.328 . S
C342 C343 1.457 . S
C342 H347 0.929 . S
C343 C342 1.457 . S
C343 C344 1.291 . S
C343 H356 0.931 . S
C344 C343 1.291 . S
C344 C345 1.373 . S
C344 H357 0.929 . S
C345 C344 1.373 . S
C345 C346 1.396 . S
C345 C352 1.403 . S
C346 C336 1.476 . S
C346 N341 1.318 . S
C346 C345 1.396 . S
H347 C342 0.929 . S
O348 Mn324 2.385 . S
O348 C326 1.234 . S
O349 Mn324 2.209 . S
O349 Mn325 2.215 . S
O349 C326 1.283 . S
O350 Mn324 2.094 . S
O350 C328 1.240 . S
O351 Mn325 2.117 . S
O351 C328 1.264 . S
C352 C345 1.403 . S
C352 C353 1.399 . S
C352 H358 0.929 . S
C353 C333 1.449 . S
C353 C352 1.399 . S
C353 H359 0.930 . S
H354 C334 0.931 . S
H355 C335 0.930 . S
H356 C343 0.931 . S
H357 C344 0.929 . S
H358 C352 0.929 . S
H359 C353 0.930 . S
Mn360 O365 2.097 1_545 S
Mn360 O375 2.163 1_545 S
Mn360 O376 2.299 1_545 S
Mn360 O384 2.383 . S
Mn360 O385 2.207 . S
Mn360 O386 2.092 . S
Mn361 O366 2.121 1_545 S
Mn361 N368 2.257 . S
Mn361 N377 2.282 . S
Mn361 O385 2.215 . S
Mn361 O387 2.117 . S
C362 O384 1.234 . S
C362 O385 1.283 . S
C363 O375 1.281 . S
C363 O376 1.236 . S
C364 O386 1.240 . S
C364 O387 1.264 . S
O365 Mn360 2.097 1_565 S
O365 C374 1.250 . S
O366 Mn361 2.121 1_565 S
O366 C374 1.258 . S
C367 N368 1.326 . S
C367 C371 1.460 . S
C367 H373 0.954 . S
N368 Mn361 2.257 . S
N368 C367 1.326 . S
N368 C372 1.362 . S
C369 C370 1.258 . S
C369 C372 1.431 . S
C369 C389 1.449 . S
C370 C369 1.258 . S
C370 C371 1.477 . S
C370 H390 0.931 . S
C371 C367 1.460 . S
C371 C370 1.477 . S
C371 H391 0.930 . S
C372 N368 1.362 . S
C372 C369 1.431 . S
C372 C382 1.476 . S
H373 C367 0.954 . S
C374 O365 1.250 . S
C374 O366 1.258 . S
O375 Mn360 2.163 1_565 S
O375 C363 1.281 . S
O376 Mn360 2.299 1_565 S
O376 C363 1.236 . S
N377 Mn361 2.282 . S
N377 C378 1.328 . S
N377 C382 1.318 . S
C378 N377 1.328 . S
C378 C379 1.457 . S
C378 H383 0.929 . S
C379 C378 1.457 . S
C379 C380 1.291 . S
C379 H392 0.931 . S
C380 C379 1.291 . S
C380 C381 1.373 . S
C380 H393 0.929 . S
C381 C380 1.373 . S
C381 C382 1.396 . S
C381 C388 1.403 . S
C382 C372 1.476 . S
C382 N377 1.318 . S
C382 C381 1.396 . S
H383 C378 0.929 . S
O384 Mn360 2.383 . S
O384 C362 1.234 . S
O385 Mn360 2.207 . S
O385 Mn361 2.215 . S
O385 C362 1.283 . S
O386 Mn360 2.092 . S
O386 C364 1.240 . S
O387 Mn361 2.117 . S
O387 C364 1.264 . S
C388 C381 1.403 . S
C388 C389 1.399 . S
C388 H394 0.929 . S
C389 C369 1.449 . S
C389 C388 1.399 . S
C389 H395 0.930 . S
H390 C370 0.931 . S
H391 C371 0.930 . S
H392 C379 0.931 . S
H393 C380 0.929 . S
H394 C388 0.929 . S
H395 C389 0.930 . S
Mn396 O401 2.095 . S
Mn396 O411 2.162 . S
Mn396 O412 2.297 . S
Mn396 O420 2.385 . S
Mn396 O421 2.209 1_554 S
Mn396 O422 2.094 . S
Mn397 O402 2.121 . S
Mn397 N404 2.257 . S
Mn397 N413 2.282 . S
Mn397 O421 2.215 . S
Mn397 O423 2.117 1_556 S
C398 O420 1.234 1_556 S
C398 O421 1.283 . S
C399 O411 1.281 . S
C399 O412 1.236 . S
C400 O422 1.240 . S
C400 O423 1.264 . S
O401 Mn396 2.095 . S
O401 C410 1.250 1_554 S
O402 Mn397 2.121 . S
O402 C410 1.258 . S
C403 N404 1.326 . S
C403 C407 1.460 . S
C403 H409 0.929 . S
N404 Mn397 2.257 . S
N404 C403 1.326 . S
N404 C408 1.362 . S
C405 C406 1.258 . S
C405 C408 1.431 . S
C405 C425 1.449 . S
C406 C405 1.258 . S
C406 C407 1.477 . S
C406 H426 0.931 . S
C407 C403 1.460 . S
C407 C406 1.477 . S
C407 H427 0.930 . S
C408 N404 1.362 . S
C408 C405 1.431 . S
C408 C418 1.476 . S
H409 C403 0.929 . S
C410 O401 1.250 1_556 S
C410 O402 1.258 . S
O411 Mn396 2.162 . S
O411 C399 1.281 . S
O412 Mn396 2.297 . S
O412 C399 1.236 . S
N413 Mn397 2.282 . S
N413 C414 1.328 . S
N413 C418 1.318 . S
C414 N413 1.328 . S
C414 C415 1.457 . S
C414 H419 0.929 . S
C415 C414 1.457 . S
C415 C416 1.291 . S
C415 H428 0.931 . S
C416 C415 1.291 . S
C416 C417 1.373 . S
C416 H429 0.929 . S
C417 C416 1.373 . S
C417 C418 1.396 . S
C417 C424 1.403 . S
C418 C408 1.476 . S
C418 N413 1.318 . S
C418 C417 1.396 . S
H419 C414 0.929 . S
O420 Mn396 2.385 . S
O420 C398 1.234 1_554 S
O421 Mn396 2.209 1_556 S
O421 Mn397 2.215 . S
O421 C398 1.283 . S
O422 Mn396 2.094 . S
O422 C400 1.240 . S
O423 Mn397 2.117 1_554 S
O423 C400 1.264 . S
C424 C417 1.403 . S
C424 C425 1.399 . S
C424 H430 0.929 . S
C425 C405 1.449 . S
C425 C424 1.399 . S
C425 H431 0.930 . S
H426 C406 0.931 . S
H427 C407 0.930 . S
H428 C415 0.931 . S
H429 C416 0.929 . S
H430 C424 0.929 . S
H431 C425 0.930 . S
Mn432 O437 2.095 1_554 S
Mn432 O447 2.162 1_554 S
Mn432 O448 2.297 1_554 S
Mn432 O456 2.385 . S
Mn432 O457 2.209 . S
Mn432 O458 2.094 . S
Mn433 O438 2.121 1_554 S
Mn433 N440 2.257 . S
Mn433 N449 2.282 . S
Mn433 O457 2.215 . S
Mn433 O459 2.117 . S
C434 O456 1.234 . S
C434 O457 1.283 . S
C435 O447 1.281 . S
C435 O448 1.236 . S
C436 O458 1.240 . S
C436 O459 1.264 . S
O437 Mn432 2.095 1_556 S
O437 C446 1.250 . S
O438 Mn433 2.121 1_556 S
O438 C446 1.258 . S
C439 N440 1.326 . S
C439 C443 1.460 . S
C439 H445 0.929 . S
N440 Mn433 2.257 . S
N440 C439 1.326 . S
N440 C444 1.362 . S
C441 C442 1.258 . S
C441 C444 1.431 . S
C441 C461 1.449 . S
C442 C441 1.258 . S
C442 C443 1.477 . S
C442 H462 0.931 . S
C443 C439 1.460 . S
C443 C442 1.477 . S
C443 H463 0.930 . S
C444 N440 1.362 . S
C444 C441 1.431 . S
C444 C454 1.476 . S
H445 C439 0.929 . S
C446 O437 1.250 . S
C446 O438 1.258 . S
O447 Mn432 2.162 1_556 S
O447 C435 1.281 . S
O448 Mn432 2.297 1_556 S
O448 C435 1.236 . S
N449 Mn433 2.282 . S
N449 C450 1.328 . S
N449 C454 1.318 . S
C450 N449 1.328 . S
C450 C451 1.457 . S
C450 H455 0.929 . S
C451 C450 1.457 . S
C451 C452 1.291 . S
C451 H464 0.931 . S
C452 C451 1.291 . S
C452 C453 1.373 . S
C452 H465 0.929 . S
C453 C452 1.373 . S
C453 C454 1.396 . S
C453 C460 1.403 . S
C454 C444 1.476 . S
C454 N449 1.318 . S
C454 C453 1.396 . S
H455 C450 0.929 . S
O456 Mn432 2.385 . S
O456 C434 1.234 . S
O457 Mn432 2.209 . S
O457 Mn433 2.215 . S
O457 C434 1.283 . S
O458 Mn432 2.094 . S
O458 C436 1.240 . S
O459 Mn433 2.117 . S
O459 C436 1.264 . S
C460 C453 1.403 . S
C460 C461 1.399 . S
C460 H466 0.929 . S
C461 C441 1.449 . S
C461 C460 1.399 . S
C461 H467 0.930 . S
H462 C442 0.931 . S
H463 C443 0.930 . S
H464 C451 0.931 . S
H465 C452 0.929 . S
H466 C460 0.929 . S
H467 C461 0.930 . S
Mn468 O473 2.095 . S
Mn468 O483 2.162 . S
Mn468 O484 2.297 . S
Mn468 O492 2.385 1_556 S
Mn468 O493 2.209 1_556 S
Mn468 O494 2.094 1_556 S
Mn469 O474 2.121 1_554 S
Mn469 N476 2.257 . S
Mn469 N485 2.282 . S
Mn469 O493 2.215 . S
Mn469 O495 2.117 . S
C470 O492 1.234 . S
C470 O493 1.283 . S
C471 O483 1.281 . S
C471 O484 1.236 . S
C472 O494 1.240 . S
C472 O495 1.264 . S
O473 Mn468 2.095 . S
O473 C482 1.250 . S
O474 Mn469 2.121 1_556 S
O474 C482 1.258 . S
C475 N476 1.326 . S
C475 C479 1.460 . S
C475 H481 0.912 1_554 S
N476 Mn469 2.257 . S
N476 C475 1.326 . S
N476 C480 1.362 . S
C477 C478 1.258 . S
C477 C480 1.431 . S
C477 C497 1.449 . S
C478 C477 1.258 . S
C478 C479 1.477 . S
C478 H498 0.931 . S
C479 C475 1.460 . S
C479 C478 1.477 . S
C479 H499 0.930 . S
C480 N476 1.362 . S
C480 C477 1.431 . S
C480 C490 1.476 . S
H481 C475 0.912 1_556 S
C482 O473 1.250 . S
C482 O474 1.258 . S
O483 Mn468 2.162 . S
O483 C471 1.281 . S
O484 Mn468 2.297 . S
O484 C471 1.236 . S
N485 Mn469 2.282 . S
N485 C486 1.328 . S
N485 C490 1.318 . S
C486 N485 1.328 . S
C486 C487 1.457 . S
C486 H491 0.929 . S
C487 C486 1.457 . S
C487 C488 1.291 . S
C487 H500 0.931 . S
C488 C487 1.291 . S
C488 C489 1.373 . S
C488 H501 0.929 . S
C489 C488 1.373 . S
C489 C490 1.396 . S
C489 C496 1.403 . S
C490 C480 1.476 . S
C490 N485 1.318 . S
C490 C489 1.396 . S
H491 C486 0.929 . S
O492 Mn468 2.385 1_554 S
O492 C470 1.234 . S
O493 Mn468 2.209 1_554 S
O493 Mn469 2.215 . S
O493 C470 1.283 . S
O494 Mn468 2.094 1_554 S
O494 C472 1.240 . S
O495 Mn469 2.117 . S
O495 C472 1.264 . S
C496 C489 1.403 . S
C496 C497 1.399 . S
C496 H502 0.929 . S
C497 C477 1.449 . S
C497 C496 1.399 . S
C497 H503 0.930 . S
H498 C478 0.931 . S
H499 C479 0.930 . S
H500 C487 0.931 . S
H501 C488 0.929 . S
H502 C496 0.929 . S
H503 C497 0.930 . S
Mn504 O509 2.095 . S
Mn504 O519 2.162 . S
Mn504 O520 2.297 . S
Mn504 O528 2.385 . S
Mn504 O529 2.209 . S
Mn504 O530 2.094 . S
Mn505 O510 2.121 . S
Mn505 N512 2.257 . S
Mn505 N521 2.282 . S
Mn505 O529 2.215 . S
Mn505 O531 2.117 . S
C506 O528 1.234 . S
C506 O529 1.283 . S
C507 O519 1.281 . S
C507 O520 1.236 . S
C508 O530 1.240 . S
C508 O531 1.264 . S
O509 Mn504 2.095 . S
O509 C518 1.250 . S
O510 Mn505 2.121 . S
O510 C518 1.258 . S
C511 N512 1.326 . S
C511 C515 1.460 . S
C511 H517 0.929 . S
N512 Mn505 2.257 . S
N512 C511 1.326 . S
N512 C516 1.362 . S
C513 C514 1.258 . S
C513 C516 1.431 . S
C513 C533 1.449 . S
C514 C513 1.258 . S
C514 C515 1.477 . S
C514 H534 0.931 . S
C515 C511 1.460 . S
C515 C514 1.477 . S
C515 H535 0.930 . S
C516 N512 1.362 . S
C516 C513 1.431 . S
C516 C526 1.476 . S
H517 C511 0.929 . S
C518 O509 1.250 . S
C518 O510 1.258 . S
O519 Mn504 2.162 . S
O519 C507 1.281 . S
O520 Mn504 2.297 . S
O520 C507 1.236 . S
N521 Mn505 2.282 . S
N521 C522 1.328 . S
N521 C526 1.318 . S
C522 N521 1.328 . S
C522 C523 1.457 . S
C522 H527 0.929 . S
C523 C522 1.457 . S
C523 C524 1.291 . S
C523 H536 0.931 . S
C524 C523 1.291 . S
C524 C525 1.373 . S
C524 H537 0.929 . S
C525 C524 1.373 . S
C525 C526 1.396 . S
C525 C532 1.403 . S
C526 C516 1.476 . S
C526 N521 1.318 . S
C526 C525 1.396 . S
H527 C522 0.929 . S
O528 Mn504 2.385 . S
O528 C506 1.234 . S
O529 Mn504 2.209 . S
O529 Mn505 2.215 . S
O529 C506 1.283 . S
O530 Mn504 2.094 . S
O530 C508 1.240 . S
O531 Mn505 2.117 . S
O531 C508 1.264 . S
C532 C525 1.403 . S
C532 C533 1.399 . S
C532 H538 0.929 . S
C533 C513 1.449 . S
C533 C532 1.399 . S
C533 H539 0.930 . S
H534 C514 0.931 . S
H535 C515 0.930 . S
H536 C523 0.931 . S
H537 C524 0.929 . S
H538 C532 0.929 . S
H539 C533 0.930 . S
Mn540 O545 2.095 . S
Mn540 O555 2.162 . S
Mn540 O556 2.297 . S
Mn540 O564 2.385 . S
Mn540 O565 2.209 . S
Mn540 O566 2.094 . S
Mn541 O546 2.121 . S
Mn541 N548 2.257 . S
Mn541 N557 2.282 . S
Mn541 O565 2.215 . S
Mn541 O567 2.117 . S
C542 O564 1.234 . S
C542 O565 1.283 . S
C543 O555 1.281 . S
C543 O556 1.236 . S
C544 O566 1.240 . S
C544 O567 1.264 . S
O545 Mn540 2.095 . S
O545 C554 1.250 . S
O546 Mn541 2.121 . S
O546 C554 1.258 . S
C547 N548 1.326 . S
C547 C551 1.460 . S
C547 H553 0.929 . S
N548 Mn541 2.257 . S
N548 C547 1.326 . S
N548 C552 1.362 . S
C549 C550 1.258 . S
C549 C552 1.431 . S
C549 C569 1.449 . S
C550 C549 1.258 . S
C550 C551 1.477 . S
C550 H570 0.931 . S
C551 C547 1.460 . S
C551 C550 1.477 . S
C551 H571 0.930 . S
C552 N548 1.362 . S
C552 C549 1.431 . S
C552 C562 1.476 . S
H553 C547 0.929 . S
C554 O545 1.250 . S
C554 O546 1.258 . S
O555 Mn540 2.162 . S
O555 C543 1.281 . S
O556 Mn540 2.297 . S
O556 C543 1.236 . S
N557 Mn541 2.282 . S
N557 C558 1.328 . S
N557 C562 1.318 . S
C558 N557 1.328 . S
C558 C559 1.457 . S
C558 H563 0.929 . S
C559 C558 1.457 . S
C559 C560 1.291 . S
C559 H572 0.931 . S
C560 C559 1.291 . S
C560 C561 1.373 . S
C560 H573 0.929 . S
C561 C560 1.373 . S
C561 C562 1.396 . S
C561 C568 1.403 . S
C562 C552 1.476 . S
C562 N557 1.318 . S
C562 C561 1.396 . S
H563 C558 0.929 . S
O564 Mn540 2.385 . S
O564 C542 1.234 . S
O565 Mn540 2.209 . S
O565 Mn541 2.215 . S
O565 C542 1.283 . S
O566 Mn540 2.094 . S
O566 C544 1.240 . S
O567 Mn541 2.117 . S
O567 C544 1.264 . S
C568 C561 1.403 . S
C568 C569 1.399 . S
C568 H574 0.929 . S
C569 C549 1.449 . S
C569 C568 1.399 . S
C569 H575 0.930 . S
H570 C550 0.931 . S
H571 C551 0.930 . S
H572 C559 0.931 . S
H573 C560 0.929 . S
H574 C568 0.929 . S
H575 C569 0.930 . S
Mn576 O581 2.095 . S
Mn576 O591 2.162 . S
Mn576 O592 2.297 . S
Mn576 O600 2.385 . S
Mn576 O601 2.209 1_545 S
Mn576 O602 2.094 . S
Mn577 O582 2.121 . S
Mn577 N584 2.257 . S
Mn577 N593 2.282 . S
Mn577 O601 2.215 . S
Mn577 O603 2.117 1_565 S
C578 O600 1.234 1_565 S
C578 O601 1.283 . S
C579 O591 1.281 . S
C579 O592 1.236 . S
C580 O602 1.240 . S
C580 O603 1.264 . S
O581 Mn576 2.095 . S
O581 C590 1.250 1_545 S
O582 Mn577 2.121 . S
O582 C590 1.258 . S
C583 N584 1.326 . S
C583 C587 1.460 . S
C583 H589 0.929 . S
N584 Mn577 2.257 . S
N584 C583 1.326 . S
N584 C588 1.362 . S
C585 C586 1.258 . S
C585 C588 1.431 . S
C585 C605 1.449 . S
C586 C585 1.258 . S
C586 C587 1.477 . S
C586 H606 0.931 . S
C587 C583 1.460 . S
C587 C586 1.477 . S
C587 H607 0.930 . S
C588 N584 1.362 . S
C588 C585 1.431 . S
C588 C598 1.476 . S
H589 C583 0.929 . S
C590 O581 1.250 1_565 S
C590 O582 1.258 . S
O591 Mn576 2.162 . S
O591 C579 1.281 . S
O592 Mn576 2.297 . S
O592 C579 1.236 . S
N593 Mn577 2.282 . S
N593 C594 1.328 . S
N593 C598 1.318 . S
C594 N593 1.328 . S
C594 C595 1.457 . S
C594 H599 0.914 1_565 S
C595 C594 1.457 . S
C595 C596 1.291 . S
C595 H608 0.931 . S
C596 C595 1.291 . S
C596 C597 1.373 . S
C596 H609 0.929 . S
C597 C596 1.373 . S
C597 C598 1.396 . S
C597 C604 1.403 . S
C598 C588 1.476 . S
C598 N593 1.318 . S
C598 C597 1.396 . S
H599 C594 0.914 1_545 S
O600 Mn576 2.385 . S
O600 C578 1.234 1_545 S
O601 Mn576 2.209 1_565 S
O601 Mn577 2.215 . S
O601 C578 1.283 . S
O602 Mn576 2.094 . S
O602 C580 1.240 . S
O603 Mn577 2.117 1_545 S
O603 C580 1.264 . S
C604 C597 1.403 . S
C604 C605 1.399 . S
C604 H610 0.929 . S
C605 C585 1.449 . S
C605 C604 1.399 . S
C605 H611 0.930 . S
H606 C586 0.931 . S
H607 C587 0.930 . S
H608 C595 0.931 . S
H609 C596 0.929 . S
H610 C604 0.929 . S
H611 C605 0.930 . S
Mn612 O617 2.095 . S
Mn612 O627 2.162 . S
Mn612 O628 2.297 . S
Mn612 O636 2.385 . S
Mn612 O637 2.209 . S
Mn612 O638 2.094 . S
Mn613 O618 2.121 . S
Mn613 N620 2.257 . S
Mn613 N629 2.282 . S
Mn613 O637 2.215 . S
Mn613 O639 2.117 . S
C614 O636 1.234 . S
C614 O637 1.283 . S
C615 O627 1.281 . S
C615 O628 1.236 . S
C616 O638 1.240 . S
C616 O639 1.264 . S
O617 Mn612 2.095 . S
O617 C626 1.250 . S
O618 Mn613 2.121 . S
O618 C626 1.258 . S
C619 N620 1.326 . S
C619 C623 1.460 . S
C619 H625 0.929 . S
N620 Mn613 2.257 . S
N620 C619 1.326 . S
N620 C624 1.362 . S
C621 C622 1.258 . S
C621 C624 1.431 . S
C621 C641 1.449 . S
C622 C621 1.258 . S
C622 C623 1.477 . S
C622 H642 0.931 . S
C623 C619 1.460 . S
C623 C622 1.477 . S
C623 H643 0.930 . S
C624 N620 1.362 . S
C624 C621 1.431 . S
C624 C634 1.476 . S
H625 C619 0.929 . S
C626 O617 1.250 . S
C626 O618 1.258 . S
O627 Mn612 2.162 . S
O627 C615 1.281 . S
O628 Mn612 2.297 . S
O628 C615 1.236 . S
N629 Mn613 2.282 . S
N629 C630 1.328 . S
N629 C634 1.318 . S
C630 N629 1.328 . S
C630 C631 1.457 . S
C630 H635 0.929 . S
C631 C630 1.457 . S
C631 C632 1.291 . S
C631 H644 0.931 . S
C632 C631 1.291 . S
C632 C633 1.373 . S
C632 H645 0.929 . S
C633 C632 1.373 . S
C633 C634 1.396 . S
C633 C640 1.403 . S
C634 C624 1.476 . S
C634 N629 1.318 . S
C634 C633 1.396 . S
H635 C630 0.929 . S
O636 Mn612 2.385 . S
O636 C614 1.234 . S
O637 Mn612 2.209 . S
O637 Mn613 2.215 . S
O637 C614 1.283 . S
O638 Mn612 2.094 . S
O638 C616 1.240 . S
O639 Mn613 2.117 . S
O639 C616 1.264 . S
C640 C633 1.403 . S
C640 C641 1.399 . S
C640 H646 0.929 . S
C641 C621 1.449 . S
C641 C640 1.399 . S
C641 H647 0.930 . S
H642 C622 0.931 . S
H643 C623 0.930 . S
H644 C631 0.931 . S
H645 C632 0.929 . S
H646 C640 0.929 . S
H647 C641 0.930 . S
Mn648 O653 2.095 . S
Mn648 O663 2.162 . S
Mn648 O664 2.297 . S
Mn648 O672 2.385 . S
Mn648 O673 2.209 . S
Mn648 O674 2.094 . S
Mn649 O654 2.121 . S
Mn649 N656 2.257 . S
Mn649 N665 2.282 . S
Mn649 O673 2.215 . S
Mn649 O675 2.117 . S
C650 O672 1.234 . S
C650 O673 1.283 . S
C651 O663 1.281 . S
C651 O664 1.236 . S
C652 O674 1.240 . S
C652 O675 1.264 . S
O653 Mn648 2.095 . S
O653 C662 1.250 . S
O654 Mn649 2.121 . S
O654 C662 1.258 . S
C655 N656 1.326 . S
C655 C659 1.460 . S
C655 H661 0.929 . S
N656 Mn649 2.257 . S
N656 C655 1.326 . S
N656 C660 1.362 . S
C657 C658 1.258 . S
C657 C660 1.431 . S
C657 C677 1.449 . S
C658 C657 1.258 . S
C658 C659 1.477 . S
C658 H678 0.931 . S
C659 C655 1.460 . S
C659 C658 1.477 . S
C659 H679 0.930 . S
C660 N656 1.362 . S
C660 C657 1.431 . S
C660 C670 1.476 . S
H661 C655 0.929 . S
C662 O653 1.250 . S
C662 O654 1.258 . S
O663 Mn648 2.162 . S
O663 C651 1.281 . S
O664 Mn648 2.297 . S
O664 C651 1.236 . S
N665 Mn649 2.282 . S
N665 C666 1.328 . S
N665 C670 1.318 . S
C666 N665 1.328 . S
C666 C667 1.457 . S
C666 H671 0.929 . S
C667 C666 1.457 . S
C667 C668 1.291 . S
C667 H680 0.931 . S
C668 C667 1.291 . S
C668 C669 1.373 . S
C668 H681 0.929 . S
C669 C668 1.373 . S
C669 C670 1.396 . S
C669 C676 1.403 . S
C670 C660 1.476 . S
C670 N665 1.318 . S
C670 C669 1.396 . S
H671 C666 0.929 . S
O672 Mn648 2.385 . S
O672 C650 1.234 . S
O673 Mn648 2.209 . S
O673 Mn649 2.215 . S
O673 C650 1.283 . S
O674 Mn648 2.094 . S
O674 C652 1.240 . S
O675 Mn649 2.117 . S
O675 C652 1.264 . S
C676 C669 1.403 . S
C676 C677 1.399 . S
C676 H682 0.929 . S
C677 C657 1.449 . S
C677 C676 1.399 . S
C677 H683 0.930 . S
H678 C658 0.931 . S
H679 C659 0.930 . S
H680 C667 0.931 . S
H681 C668 0.929 . S
H682 C676 0.929 . S
H683 C677 0.930 . S
Mn684 O689 2.097 . S
Mn684 O699 2.162 . S
Mn684 O700 2.297 . S
Mn684 O708 2.385 . S
Mn684 O709 2.209 1_545 S
Mn684 O710 2.094 . S
Mn685 O690 2.121 . S
Mn685 N692 2.257 . S
Mn685 N701 2.282 . S
Mn685 O709 2.215 . S
Mn685 O711 2.117 1_565 S
C686 O708 1.234 1_565 S
C686 O709 1.283 . S
C687 O699 1.281 . S
C687 O700 1.236 . S
C688 O710 1.240 . S
C688 O711 1.264 . S
O689 Mn684 2.097 . S
O689 C698 1.245 1_545 S
O690 Mn685 2.121 . S
O690 C698 1.258 . S
C691 N692 1.326 . S
C691 C695 1.460 . S
C691 H697 0.929 . S
N692 Mn685 2.257 . S
N692 C691 1.326 . S
N692 C696 1.362 . S
C693 C694 1.258 . S
C693 C696 1.431 . S
C693 C713 1.449 . S
C694 C693 1.258 . S
C694 C695 1.477 . S
C694 H714 0.931 . S
C695 C691 1.460 . S
C695 C694 1.477 . S
C695 H715 0.930 . S
C696 N692 1.362 . S
C696 C693 1.431 . S
C696 C706 1.476 . S
H697 C691 0.929 . S
C698 O689 1.245 1_565 S
C698 O690 1.258 . S
O699 Mn684 2.162 . S
O699 C687 1.281 . S
O700 Mn684 2.297 . S
O700 C687 1.236 . S
N701 Mn685 2.282 . S
N701 C702 1.328 . S
N701 C706 1.318 . S
C702 N701 1.328 . S
C702 C703 1.457 . S
C702 H707 0.929 . S
C703 C702 1.457 . S
C703 C704 1.291 . S
C703 H716 0.931 . S
C704 C703 1.291 . S
C704 C705 1.373 . S
C704 H717 0.929 . S
C705 C704 1.373 . S
C705 C706 1.396 . S
C705 C712 1.403 . S
C706 C696 1.476 . S
C706 N701 1.318 . S
C706 C705 1.396 . S
H707 C702 0.929 . S
O708 Mn684 2.385 . S
O708 C686 1.234 1_545 S
O709 Mn684 2.209 1_565 S
O709 Mn685 2.215 . S
O709 C686 1.283 . S
O710 Mn684 2.094 . S
O710 C688 1.240 . S
O711 Mn685 2.117 1_545 S
O711 C688 1.264 . S
C712 C705 1.403 . S
C712 C713 1.399 . S
C712 H718 0.929 . S
C713 C693 1.449 . S
C713 C712 1.399 . S
C713 H719 0.930 . S
H714 C694 0.931 . S
H715 C695 0.930 . S
H716 C703 0.931 . S
H717 C704 0.929 . S
H718 C712 0.929 . S
H719 C713 0.930 . S
Mn720 O725 2.095 . S
Mn720 O735 2.162 . S
Mn720 O736 2.297 . S
Mn720 O744 2.385 . S
Mn720 O745 2.209 1_554 S
Mn720 O746 2.094 . S
Mn721 O726 2.121 . S
Mn721 N728 2.257 . S
Mn721 N737 2.282 . S
Mn721 O745 2.215 . S
Mn721 O747 2.117 1_556 S
C722 O744 1.234 1_556 S
C722 O745 1.283 . S
C723 O735 1.281 . S
C723 O736 1.236 . S
C724 O746 1.240 . S
C724 O747 1.264 . S
O725 Mn720 2.095 . S
O725 C734 1.250 1_554 S
O726 Mn721 2.121 . S
O726 C734 1.258 . S
C727 N728 1.326 . S
C727 C731 1.460 . S
C727 H733 0.929 . S
N728 Mn721 2.257 . S
N728 C727 1.326 . S
N728 C732 1.362 . S
C729 C730 1.258 . S
C729 C732 1.431 . S
C729 C749 1.449 . S
C730 C729 1.258 . S
C730 C731 1.477 . S
C730 H750 0.931 . S
C731 C727 1.460 . S
C731 C730 1.477 . S
C731 H751 0.930 . S
C732 N728 1.362 . S
C732 C729 1.431 . S
C732 C742 1.476 . S
H733 C727 0.929 . S
C734 O725 1.250 1_556 S
C734 O726 1.258 . S
O735 Mn720 2.162 . S
O735 C723 1.281 . S
O736 Mn720 2.297 . S
O736 C723 1.236 . S
N737 Mn721 2.282 . S
N737 C738 1.328 . S
N737 C742 1.318 . S
C738 N737 1.328 . S
C738 C739 1.457 . S
C738 H743 0.929 . S
C739 C738 1.457 . S
C739 C740 1.291 . S
C739 H752 0.931 . S
C740 C739 1.291 . S
C740 C741 1.373 . S
C740 H753 0.929 . S
C741 C740 1.373 . S
C741 C742 1.396 . S
C741 C748 1.403 . S
C742 C732 1.476 . S
C742 N737 1.318 . S
C742 C741 1.396 . S
H743 C738 0.929 . S
O744 Mn720 2.385 . S
O744 C722 1.234 1_554 S
O745 Mn720 2.209 1_556 S
O745 Mn721 2.215 . S
O745 C722 1.283 . S
O746 Mn720 2.094 . S
O746 C724 1.240 . S
O747 Mn721 2.117 1_554 S
O747 C724 1.264 . S
C748 C741 1.403 . S
C748 C749 1.399 . S
C748 H754 0.929 . S
C749 C729 1.449 . S
C749 C748 1.399 . S
C749 H755 0.930 . S
H750 C730 0.931 . S
H751 C731 0.930 . S
H752 C739 0.931 . S
H753 C740 0.929 . S
H754 C748 0.929 . S
H755 C749 0.930 . S
Mn756 O761 2.095 . S
Mn756 O771 2.162 . S
Mn756 O772 2.297 . S
Mn756 O780 2.385 . S
Mn756 O781 2.209 . S
Mn756 O782 2.094 . S
Mn757 O762 2.121 . S
Mn757 N764 2.257 . S
Mn757 N773 2.282 . S
Mn757 O781 2.215 . S
Mn757 O783 2.117 . S
C758 O780 1.234 . S
C758 O781 1.283 . S
C759 O771 1.281 . S
C759 O772 1.236 . S
C760 O782 1.240 . S
C760 O783 1.264 . S
O761 Mn756 2.095 . S
O761 C770 1.250 . S
O762 Mn757 2.121 . S
O762 C770 1.258 . S
C763 N764 1.326 . S
C763 C767 1.460 . S
C763 H769 0.929 . S
N764 Mn757 2.257 . S
N764 C763 1.326 . S
N764 C768 1.362 . S
C765 C766 1.258 . S
C765 C768 1.431 . S
C765 C785 1.449 . S
C766 C765 1.258 . S
C766 C767 1.477 . S
C766 H786 0.931 . S
C767 C763 1.460 . S
C767 C766 1.477 . S
C767 H787 0.930 . S
C768 N764 1.362 . S
C768 C765 1.431 . S
C768 C778 1.476 . S
H769 C763 0.929 . S
C770 O761 1.250 . S
C770 O762 1.258 . S
O771 Mn756 2.162 . S
O771 C759 1.281 . S
O772 Mn756 2.297 . S
O772 C759 1.236 . S
N773 Mn757 2.282 . S
N773 C774 1.328 . S
N773 C778 1.318 . S
C774 N773 1.328 . S
C774 C775 1.457 . S
C774 H779 0.929 . S
C775 C774 1.457 . S
C775 C776 1.291 . S
C775 H788 0.931 . S
C776 C775 1.291 . S
C776 C777 1.373 . S
C776 H789 0.929 . S
C777 C776 1.373 . S
C777 C778 1.396 . S
C777 C784 1.403 . S
C778 C768 1.476 . S
C778 N773 1.318 . S
C778 C777 1.396 . S
H779 C774 0.929 . S
O780 Mn756 2.385 . S
O780 C758 1.234 . S
O781 Mn756 2.209 . S
O781 Mn757 2.215 . S
O781 C758 1.283 . S
O782 Mn756 2.094 . S
O782 C760 1.240 . S
O783 Mn757 2.117 . S
O783 C760 1.264 . S
C784 C777 1.403 . S
C784 C785 1.399 . S
C784 H790 0.929 . S
C785 C765 1.449 . S
C785 C784 1.399 . S
C785 H791 0.930 . S
H786 C766 0.931 . S
H787 C767 0.930 . S
H788 C775 0.931 . S
H789 C776 0.929 . S
H790 C784 0.929 . S
H791 C785 0.930 . S
Mn792 O797 2.095 . S
Mn792 O807 2.162 . S
Mn792 O808 2.297 . S
Mn792 O816 2.385 . S
Mn792 O817 2.209 . S
Mn792 O818 2.094 . S
Mn793 O798 2.121 . S
Mn793 N800 2.257 . S
Mn793 N809 2.282 . S
Mn793 O817 2.215 . S
Mn793 O819 2.117 . S
C794 O816 1.234 . S
C794 O817 1.283 . S
C795 O807 1.281 . S
C795 O808 1.236 . S
C796 O818 1.240 . S
C796 O819 1.264 . S
O797 Mn792 2.095 . S
O797 C806 1.250 . S
O798 Mn793 2.121 . S
O798 C806 1.258 . S
C799 N800 1.326 . S
C799 C803 1.460 . S
C799 H805 0.929 . S
N800 Mn793 2.257 . S
N800 C799 1.326 . S
N800 C804 1.362 . S
C801 C802 1.258 . S
C801 C804 1.431 . S
C801 C821 1.449 . S
C802 C801 1.258 . S
C802 C803 1.477 . S
C802 H822 0.931 . S
C803 C799 1.460 . S
C803 C802 1.477 . S
C803 H823 0.930 . S
C804 N800 1.362 . S
C804 C801 1.431 . S
C804 C814 1.476 . S
H805 C799 0.929 . S
C806 O797 1.250 . S
C806 O798 1.258 . S
O807 Mn792 2.162 . S
O807 C795 1.281 . S
O808 Mn792 2.297 . S
O808 C795 1.236 . S
N809 Mn793 2.282 . S
N809 C810 1.328 . S
N809 C814 1.318 . S
C810 N809 1.328 . S
C810 C811 1.457 . S
C810 H815 0.929 . S
C811 C810 1.457 . S
C811 C812 1.291 . S
C811 H824 0.931 . S
C812 C811 1.291 . S
C812 C813 1.373 . S
C812 H825 0.929 . S
C813 C812 1.373 . S
C813 C814 1.396 . S
C813 C820 1.403 . S
C814 C804 1.476 . S
C814 N809 1.318 . S
C814 C813 1.396 . S
H815 C810 0.929 . S
O816 Mn792 2.385 . S
O816 C794 1.234 . S
O817 Mn792 2.209 . S
O817 Mn793 2.215 . S
O817 C794 1.283 . S
O818 Mn792 2.094 . S
O818 C796 1.240 . S
O819 Mn793 2.117 . S
O819 C796 1.264 . S
C820 C813 1.403 . S
C820 C821 1.399 . S
C820 H826 0.929 . S
C821 C801 1.449 . S
C821 C820 1.399 . S
C821 H827 0.930 . S
H822 C802 0.931 . S
H823 C803 0.930 . S
H824 C811 0.931 . S
H825 C812 0.929 . S
H826 C820 0.929 . S
H827 C821 0.930 . S
Mn828 O833 2.095 . S
Mn828 O843 2.162 . S
Mn828 O844 2.297 . S
Mn828 O852 2.385 . S
Mn828 O853 2.209 . S
Mn828 O854 2.094 . S
Mn829 O834 2.121 . S
Mn829 N836 2.257 . S
Mn829 N845 2.282 . S
Mn829 O853 2.215 . S
Mn829 O855 2.117 . S
C830 O852 1.234 . S
C830 O853 1.283 . S
C831 O843 1.281 . S
C831 O844 1.236 . S
C832 O854 1.240 . S
C832 O855 1.264 . S
O833 Mn828 2.095 . S
O833 C842 1.250 . S
O834 Mn829 2.121 . S
O834 C842 1.258 . S
C835 N836 1.326 . S
C835 C839 1.460 . S
C835 H841 0.929 . S
N836 Mn829 2.257 . S
N836 C835 1.326 . S
N836 C840 1.362 . S
C837 C838 1.258 . S
C837 C840 1.431 . S
C837 C857 1.449 . S
C838 C837 1.258 . S
C838 C839 1.477 . S
C838 H858 0.931 . S
C839 C835 1.460 . S
C839 C838 1.477 . S
C839 H859 0.930 . S
C840 N836 1.362 . S
C840 C837 1.431 . S
C840 C850 1.476 . S
H841 C835 0.929 . S
C842 O833 1.250 . S
C842 O834 1.258 . S
O843 Mn828 2.162 . S
O843 C831 1.281 . S
O844 Mn828 2.297 . S
O844 C831 1.236 . S
N845 Mn829 2.282 . S
N845 C846 1.328 . S
N845 C850 1.318 . S
C846 N845 1.328 . S
C846 C847 1.457 . S
C846 H851 0.929 . S
C847 C846 1.457 . S
C847 C848 1.291 . S
C847 H860 0.931 . S
C848 C847 1.291 . S
C848 C849 1.373 . S
C848 H861 0.929 . S
C849 C848 1.373 . S
C849 C850 1.396 . S
C849 C856 1.403 . S
C850 C840 1.476 . S
C850 N845 1.318 . S
C850 C849 1.396 . S
H851 C846 0.929 . S
O852 Mn828 2.385 . S
O852 C830 1.234 . S
O853 Mn828 2.209 . S
O853 Mn829 2.215 . S
O853 C830 1.283 . S
O854 Mn828 2.094 . S
O854 C832 1.240 . S
O855 Mn829 2.117 . S
O855 C832 1.264 . S
C856 C849 1.403 . S
C856 C857 1.399 . S
C856 H862 0.929 . S
C857 C837 1.449 . S
C857 C856 1.399 . S
C857 H863 0.930 . S
H858 C838 0.931 . S
H859 C839 0.930 . S
H860 C847 0.931 . S
H861 C848 0.929 . S
H862 C856 0.929 . S
H863 C857 0.930 . S
Fe864 O866 1.918 . S
Fe864 O869 1.997 . S
Fe864 O870 2.002 . S
Fe864 O875 1.976 . S
Fe864 O878 1.996 . S
Fe865 O866 1.918 . S
Fe865 O873 1.997 . S
Fe865 O876 1.996 . S
Fe865 O880 1.976 . S
Fe865 O883 2.002 . S
O866 Fe864 1.918 . S
O866 Fe865 1.918 . S
O866 Fe867 1.918 . S
Fe867 O866 1.918 . S
Fe867 O868 2.002 . S
Fe867 O877 1.976 . S
Fe867 O881 1.996 . S
Fe867 O884 1.997 . S
O868 Fe867 2.002 . S
O868 C885 1.295 . S
O869 Fe864 1.997 . S
O869 C885 1.235 . S
O870 Fe864 2.002 . S
O870 C871 1.295 . S
C871 O870 1.295 . S
C871 O873 1.235 . S
C872 O877 1.287 . S
C872 O878 1.255 . S
O873 Fe865 1.997 . S
O873 C871 1.235 . S
C874 O880 1.287 . S
C874 O881 1.255 . S
O875 Fe864 1.976 . S
O875 C882 1.287 . S
O876 Fe865 1.996 . S
O876 C882 1.255 . S
O877 Fe867 1.976 . S
O877 C872 1.287 . S
O878 Fe864 1.996 . S
O878 C872 1.255 . S
C879 O883 1.295 . S
C879 O884 1.235 . S
O880 Fe865 1.976 . S
O880 C874 1.287 . S
O881 Fe867 1.996 . S
O881 C874 1.255 . S
C882 O875 1.287 . S
C882 O876 1.255 . S
O883 Fe865 2.002 . S
O883 C879 1.295 . S
O884 Fe867 1.997 . S
O884 C879 1.235 . S
C885 O868 1.295 . S
C885 O869 1.235 . S
Fe886 O888 1.918 . S
Fe886 O891 1.997 . S
Fe886 O892 2.002 . S
Fe886 O897 1.976 . S
Fe886 O900 1.996 . S
Fe887 O888 1.918 . S
Fe887 O895 1.997 . S
Fe887 O898 1.996 . S
Fe887 O902 1.976 . S
Fe887 O905 2.002 . S
O888 Fe886 1.918 . S
O888 Fe887 1.918 . S
O888 Fe889 1.918 . S
Fe889 O888 1.918 . S
Fe889 O890 2.002 . S
Fe889 O899 1.976 . S
Fe889 O903 1.996 . S
Fe889 O906 1.997 . S
O890 Fe889 2.002 . S
O890 C907 1.295 . S
O891 Fe886 1.997 . S
O891 C907 1.235 . S
O892 Fe886 2.002 . S
O892 C893 1.295 . S
C893 O892 1.295 . S
C893 O895 1.235 . S
C894 O899 1.287 . S
C894 O900 1.255 . S
O895 Fe887 1.997 . S
O895 C893 1.235 . S
C896 O902 1.287 . S
C896 O903 1.255 . S
O897 Fe886 1.976 . S
O897 C904 1.287 . S
O898 Fe887 1.996 . S
O898 C904 1.255 . S
O899 Fe889 1.976 . S
O899 C894 1.287 . S
O900 Fe886 1.996 . S
O900 C894 1.255 . S
C901 O905 1.295 . S
C901 O906 1.235 . S
O902 Fe887 1.976 . S
O902 C896 1.287 . S
O903 Fe889 1.996 . S
O903 C896 1.255 . S
C904 O897 1.287 . S
C904 O898 1.255 . S
O905 Fe887 2.002 . S
O905 C901 1.295 . S
O906 Fe889 1.997 . S
O906 C901 1.235 . S
C907 O890 1.295 . S
C907 O891 1.235 . S
Fe908 O910 1.918 . S
Fe908 O913 1.997 . S
Fe908 O914 2.002 . S
Fe908 O919 1.976 . S
Fe908 O922 1.996 . S
Fe909 O910 1.918 . S
Fe909 O917 1.997 . S
Fe909 O920 1.996 . S
Fe909 O924 1.976 . S
Fe909 O927 2.002 . S
O910 Fe908 1.918 . S
O910 Fe909 1.918 . S
O910 Fe911 1.918 . S
Fe911 O910 1.918 . S
Fe911 O912 2.002 . S
Fe911 O921 1.976 . S
Fe911 O925 1.996 . S
Fe911 O928 1.997 . S
O912 Fe911 2.002 . S
O912 C929 1.295 . S
O913 Fe908 1.997 . S
O913 C929 1.235 . S
O914 Fe908 2.002 . S
O914 C915 1.295 . S
C915 O914 1.295 . S
C915 O917 1.235 . S
C916 O921 1.287 . S
C916 O922 1.255 . S
O917 Fe909 1.997 . S
O917 C915 1.235 . S
C918 O924 1.287 . S
C918 O925 1.255 . S
O919 Fe908 1.976 . S
O919 C926 1.287 . S
O920 Fe909 1.996 . S
O920 C926 1.255 . S
O921 Fe911 1.976 . S
O921 C916 1.287 . S
O922 Fe908 1.996 . S
O922 C916 1.255 . S
C923 O927 1.295 . S
C923 O928 1.235 . S
O924 Fe909 1.976 . S
O924 C918 1.287 . S
O925 Fe911 1.996 . S
O925 C918 1.255 . S
C926 O919 1.287 . S
C926 O920 1.255 . S
O927 Fe909 2.002 . S
O927 C923 1.295 . S
O928 Fe911 1.997 . S
O928 C923 1.235 . S
C929 O912 1.295 . S
C929 O913 1.235 . S
Fe930 O932 1.918 . S
Fe930 O935 1.997 . S
Fe930 O936 2.002 . S
Fe930 O941 1.976 . S
Fe930 O944 1.996 . S
Fe931 O932 1.918 . S
Fe931 O939 1.997 . S
Fe931 O942 1.996 . S
Fe931 O946 1.976 . S
Fe931 O949 2.002 . S
O932 Fe930 1.918 . S
O932 Fe931 1.918 . S
O932 Fe933 1.918 . S
Fe933 O932 1.918 . S
Fe933 O934 2.002 . S
Fe933 O943 1.976 . S
Fe933 O947 1.996 . S
Fe933 O950 1.997 . S
O934 Fe933 2.002 . S
O934 C951 1.295 . S
O935 Fe930 1.997 . S
O935 C951 1.235 . S
O936 Fe930 2.002 . S
O936 C937 1.295 . S
C937 O936 1.295 . S
C937 O939 1.235 . S
C938 O943 1.287 . S
C938 O944 1.255 . S
O939 Fe931 1.997 . S
O939 C937 1.235 . S
C940 O946 1.287 . S
C940 O947 1.255 . S
O941 Fe930 1.976 . S
O941 C948 1.287 . S
O942 Fe931 1.996 . S
O942 C948 1.255 . S
O943 Fe933 1.976 . S
O943 C938 1.287 . S
O944 Fe930 1.996 . S
O944 C938 1.255 . S
C945 O949 1.295 . S
C945 O950 1.235 . S
O946 Fe931 1.976 . S
O946 C940 1.287 . S
O947 Fe933 1.996 . S
O947 C940 1.255 . S
C948 O941 1.287 . S
C948 O942 1.255 . S
O949 Fe931 2.002 . S
O949 C945 1.295 . S
O950 Fe933 1.997 . S
O950 C945 1.235 . S
C951 O934 1.295 . S
C951 O935 1.235 . S
Fe952 O954 1.918 . S
Fe952 O957 1.997 . S
Fe952 O958 2.002 . S
Fe952 O963 1.976 . S
Fe952 O966 1.996 . S
Fe953 O954 1.918 . S
Fe953 O961 1.997 . S
Fe953 O964 1.996 . S
Fe953 O968 1.976 . S
Fe953 O971 2.002 . S
O954 Fe952 1.918 . S
O954 Fe953 1.918 . S
O954 Fe955 1.918 . S
Fe955 O954 1.918 . S
Fe955 O956 2.002 . S
Fe955 O965 1.976 . S
Fe955 O969 1.996 . S
Fe955 O972 1.997 . S
O956 Fe955 2.002 . S
O956 C973 1.295 . S
O957 Fe952 1.997 . S
O957 C973 1.235 . S
O958 Fe952 2.002 . S
O958 C959 1.295 . S
C959 O958 1.295 . S
C959 O961 1.235 . S
C960 O965 1.287 . S
C960 O966 1.255 . S
O961 Fe953 1.997 . S
O961 C959 1.235 . S
C962 O968 1.287 . S
C962 O969 1.255 . S
O963 Fe952 1.976 . S
O963 C970 1.287 . S
O964 Fe953 1.996 . S
O964 C970 1.255 . S
O965 Fe955 1.976 . S
O965 C960 1.287 . S
O966 Fe952 1.996 . S
O966 C960 1.255 . S
C967 O971 1.295 . S
C967 O972 1.235 . S
O968 Fe953 1.976 . S
O968 C962 1.287 . S
O969 Fe955 1.996 . S
O969 C962 1.255 . S
C970 O963 1.287 . S
C970 O964 1.255 . S
O971 Fe953 2.002 . S
O971 C967 1.295 . S
O972 Fe955 1.997 . S
O972 C967 1.235 . S
C973 O956 1.295 . S
C973 O957 1.235 . S
Fe974 O976 1.918 . S
Fe974 O979 1.997 . S
Fe974 O980 2.002 . S
Fe974 O985 1.976 . S
Fe974 O988 1.996 . S
Fe975 O976 1.918 . S
Fe975 O983 1.997 . S
Fe975 O986 1.996 . S
Fe975 O990 1.976 . S
Fe975 O993 2.002 . S
O976 Fe974 1.918 . S
O976 Fe975 1.918 . S
O976 Fe977 1.918 . S
Fe977 O976 1.918 . S
Fe977 O978 2.002 . S
Fe977 O987 1.976 . S
Fe977 O991 1.996 . S
Fe977 O994 1.997 . S
O978 Fe977 2.002 . S
O978 C995 1.295 . S
O979 Fe974 1.997 . S
O979 C995 1.235 . S
O980 Fe974 2.002 . S
O980 C981 1.295 . S
C981 O980 1.295 . S
C981 O983 1.235 . S
C982 O987 1.287 . S
C982 O988 1.255 . S
O983 Fe975 1.997 . S
O983 C981 1.235 . S
C984 O990 1.287 . S
C984 O991 1.255 . S
O985 Fe974 1.976 . S
O985 C992 1.287 . S
O986 Fe975 1.996 . S
O986 C992 1.255 . S
O987 Fe977 1.976 . S
O987 C982 1.287 . S
O988 Fe974 1.996 . S
O988 C982 1.255 . S
C989 O993 1.295 . S
C989 O994 1.235 . S
O990 Fe975 1.976 . S
O990 C984 1.287 . S
O991 Fe977 1.996 . S
O991 C984 1.255 . S
C992 O985 1.287 . S
C992 O986 1.255 . S
O993 Fe975 2.002 . S
O993 C989 1.295 . S
O994 Fe977 1.997 . S
O994 C989 1.235 . S
C995 O978 1.295 . S
C995 O979 1.235 . S
Fe996 O998 1.918 . S
Fe996 O1001 1.997 . S
Fe996 O1002 2.002 . S
Fe996 O1007 1.976 . S
Fe996 O1010 1.996 . S
Fe997 O998 1.918 . S
Fe997 O1005 1.997 . S
Fe997 O1008 1.996 . S
Fe997 O1012 1.976 . S
Fe997 O1015 2.002 . S
O998 Fe996 1.918 . S
O998 Fe997 1.918 . S
O998 Fe999 1.918 . S
Fe999 O998 1.918 . S
Fe999 O1000 2.002 . S
Fe999 O1009 1.976 . S
Fe999 O1013 1.996 . S
Fe999 O1016 1.997 . S
O1000 Fe999 2.002 . S
O1000 C1017 1.295 . S
O1001 Fe996 1.997 . S
O1001 C1017 1.235 . S
O1002 Fe996 2.002 . S
O1002 C1003 1.295 . S
C1003 O1002 1.295 . S
C1003 O1005 1.235 . S
C1004 O1009 1.287 . S
C1004 O1010 1.255 . S
O1005 Fe997 1.997 . S
O1005 C1003 1.235 . S
C1006 O1012 1.287 . S
C1006 O1013 1.255 . S
O1007 Fe996 1.976 . S
O1007 C1014 1.287 . S
O1008 Fe997 1.996 . S
O1008 C1014 1.255 . S
O1009 Fe999 1.976 . S
O1009 C1004 1.287 . S
O1010 Fe996 1.996 . S
O1010 C1004 1.255 . S
C1011 O1015 1.295 . S
C1011 O1016 1.235 . S
O1012 Fe997 1.976 . S
O1012 C1006 1.287 . S
O1013 Fe999 1.996 . S
O1013 C1006 1.255 . S
C1014 O1007 1.287 . S
C1014 O1008 1.255 . S
O1015 Fe997 2.002 . S
O1015 C1011 1.295 . S
O1016 Fe999 1.997 . S
O1016 C1011 1.235 . S
C1017 O1000 1.295 . S
C1017 O1001 1.235 . S
Fe1018 O1020 1.918 . S
Fe1018 O1023 1.997 . S
Fe1018 O1024 2.002 . S
Fe1018 O1029 1.976 . S
Fe1018 O1032 1.996 . S
Fe1019 O1020 1.918 . S
Fe1019 O1027 1.997 . S
Fe1019 O1030 1.996 . S
Fe1019 O1034 1.976 . S
Fe1019 O1037 2.002 . S
O1020 Fe1018 1.918 . S
O1020 Fe1019 1.918 . S
O1020 Fe1021 1.918 . S
Fe1021 O1020 1.918 . S
Fe1021 O1022 2.002 . S
Fe1021 O1031 1.976 . S
Fe1021 O1035 1.996 . S
Fe1021 O1038 1.997 . S
O1022 Fe1021 2.002 . S
O1022 C1039 1.295 . S
O1023 Fe1018 1.997 . S
O1023 C1039 1.235 . S
O1024 Fe1018 2.002 . S
O1024 C1025 1.295 . S
C1025 O1024 1.295 . S
C1025 O1027 1.235 . S
C1026 O1031 1.287 . S
C1026 O1032 1.255 . S
O1027 Fe1019 1.997 . S
O1027 C1025 1.235 . S
C1028 O1034 1.287 . S
C1028 O1035 1.255 . S
O1029 Fe1018 1.976 . S
O1029 C1036 1.287 . S
O1030 Fe1019 1.996 . S
O1030 C1036 1.255 . S
O1031 Fe1021 1.976 . S
O1031 C1026 1.287 . S
O1032 Fe1018 1.996 . S
O1032 C1026 1.255 . S
C1033 O1037 1.295 . S
C1033 O1038 1.235 . S
O1034 Fe1019 1.976 . S
O1034 C1028 1.287 . S
O1035 Fe1021 1.996 . S
O1035 C1028 1.255 . S
C1036 O1029 1.287 . S
C1036 O1030 1.255 . S
O1037 Fe1019 2.002 . S
O1037 C1033 1.295 . S
O1038 Fe1021 1.997 . S
O1038 C1033 1.235 . S
C1039 O1022 1.295 . S
C1039 O1023 1.235 . S
Fe1040 O1042 1.918 . S
Fe1040 O1045 1.997 . S
Fe1040 O1046 2.002 . S
Fe1040 O1051 1.976 . S
Fe1040 O1054 1.996 . S
Fe1041 O1042 1.918 . S
Fe1041 O1049 1.997 . S
Fe1041 O1052 1.996 . S
Fe1041 O1056 1.976 . S
Fe1041 O1059 2.002 . S
O1042 Fe1040 1.918 . S
O1042 Fe1041 1.918 . S
O1042 Fe1043 1.918 . S
Fe1043 O1042 1.918 . S
Fe1043 O1044 2.002 . S
Fe1043 O1053 1.976 . S
Fe1043 O1057 1.996 . S
Fe1043 O1060 1.997 . S
O1044 Fe1043 2.002 . S
O1044 C1061 1.295 . S
O1045 Fe1040 1.997 . S
O1045 C1061 1.235 . S
O1046 Fe1040 2.002 . S
O1046 C1047 1.295 . S
C1047 O1046 1.295 . S
C1047 O1049 1.235 . S
C1048 O1053 1.287 . S
C1048 O1054 1.255 . S
O1049 Fe1041 1.997 . S
O1049 C1047 1.235 . S
C1050 O1056 1.287 . S
C1050 O1057 1.255 . S
O1051 Fe1040 1.976 . S
O1051 C1058 1.287 . S
O1052 Fe1041 1.996 . S
O1052 C1058 1.255 . S
O1053 Fe1043 1.976 . S
O1053 C1048 1.287 . S
O1054 Fe1040 1.996 . S
O1054 C1048 1.255 . S
C1055 O1059 1.295 . S
C1055 O1060 1.235 . S
O1056 Fe1041 1.976 . S
O1056 C1050 1.287 . S
O1057 Fe1043 1.996 . S
O1057 C1050 1.255 . S
C1058 O1051 1.287 . S
C1058 O1052 1.255 . S
O1059 Fe1041 2.002 . S
O1059 C1055 1.295 . S
O1060 Fe1043 1.997 . S
O1060 C1055 1.235 . S
C1061 O1044 1.295 . S
C1061 O1045 1.235 . S
Fe1062 O1064 1.918 . S
Fe1062 O1067 1.997 . S
Fe1062 O1068 2.002 . S
Fe1062 O1073 1.976 . S
Fe1062 O1076 1.996 . S
Fe1063 O1064 1.918 . S
Fe1063 O1071 1.997 . S
Fe1063 O1074 1.996 . S
Fe1063 O1078 1.976 . S
Fe1063 O1081 2.002 . S
O1064 Fe1062 1.918 . S
O1064 Fe1063 1.918 . S
O1064 Fe1065 1.918 . S
Fe1065 O1064 1.918 . S
Fe1065 O1066 2.002 . S
Fe1065 O1075 1.976 . S
Fe1065 O1079 1.996 . S
Fe1065 O1082 1.997 . S
O1066 Fe1065 2.002 . S
O1066 C1083 1.295 . S
O1067 Fe1062 1.997 . S
O1067 C1083 1.235 . S
O1068 Fe1062 2.002 . S
O1068 C1069 1.295 . S
C1069 O1068 1.295 . S
C1069 O1071 1.235 . S
C1070 O1075 1.287 . S
C1070 O1076 1.255 . S
O1071 Fe1063 1.997 . S
O1071 C1069 1.235 . S
C1072 O1078 1.287 . S
C1072 O1079 1.255 . S
O1073 Fe1062 1.976 . S
O1073 C1080 1.287 . S
O1074 Fe1063 1.996 . S
O1074 C1080 1.255 . S
O1075 Fe1065 1.976 . S
O1075 C1070 1.287 . S
O1076 Fe1062 1.996 . S
O1076 C1070 1.255 . S
C1077 O1081 1.295 . S
C1077 O1082 1.235 . S
O1078 Fe1063 1.976 . S
O1078 C1072 1.287 . S
O1079 Fe1065 1.996 . S
O1079 C1072 1.255 . S
C1080 O1073 1.287 . S
C1080 O1074 1.255 . S
O1081 Fe1063 2.002 . S
O1081 C1077 1.295 . S
O1082 Fe1065 1.997 . S
O1082 C1077 1.235 . S
C1083 O1066 1.295 . S
C1083 O1067 1.235 . S
Fe1084 O1086 1.918 . S
Fe1084 O1089 1.997 . S
Fe1084 O1090 2.002 . S
Fe1084 O1095 1.976 . S
Fe1084 O1098 1.996 . S
Fe1085 O1086 1.918 . S
Fe1085 O1093 1.997 . S
Fe1085 O1096 1.996 . S
Fe1085 O1100 1.976 . S
Fe1085 O1103 2.002 . S
O1086 Fe1084 1.918 . S
O1086 Fe1085 1.918 . S
O1086 Fe1087 1.918 . S
Fe1087 O1086 1.918 . S
Fe1087 O1088 2.002 . S
Fe1087 O1097 1.976 . S
Fe1087 O1101 1.996 . S
Fe1087 O1104 1.997 . S
O1088 Fe1087 2.002 . S
O1088 C1105 1.295 . S
O1089 Fe1084 1.997 . S
O1089 C1105 1.235 . S
O1090 Fe1084 2.002 . S
O1090 C1091 1.295 . S
C1091 O1090 1.295 . S
C1091 O1093 1.235 . S
C1092 O1097 1.287 . S
C1092 O1098 1.255 . S
O1093 Fe1085 1.997 . S
O1093 C1091 1.235 . S
C1094 O1100 1.287 . S
C1094 O1101 1.255 . S
O1095 Fe1084 1.976 . S
O1095 C1102 1.287 . S
O1096 Fe1085 1.996 . S
O1096 C1102 1.255 . S
O1097 Fe1087 1.976 . S
O1097 C1092 1.287 . S
O1098 Fe1084 1.996 . S
O1098 C1092 1.255 . S
C1099 O1103 1.295 . S
C1099 O1104 1.235 . S
O1100 Fe1085 1.976 . S
O1100 C1094 1.287 . S
O1101 Fe1087 1.996 . S
O1101 C1094 1.255 . S
C1102 O1095 1.287 . S
C1102 O1096 1.255 . S
O1103 Fe1085 2.002 . S
O1103 C1099 1.295 . S
O1104 Fe1087 1.997 . S
O1104 C1099 1.235 . S
C1105 O1088 1.295 . S
C1105 O1089 1.235 . S
Fe1106 O1108 1.918 . S
Fe1106 O1111 1.997 . S
Fe1106 O1112 2.002 . S
Fe1106 O1117 1.976 . S
Fe1106 O1120 1.996 . S
Fe1107 O1108 1.918 . S
Fe1107 O1115 1.997 . S
Fe1107 O1118 1.996 . S
Fe1107 O1122 1.976 . S
Fe1107 O1125 2.002 . S
O1108 Fe1106 1.918 . S
O1108 Fe1107 1.918 . S
O1108 Fe1109 1.918 . S
Fe1109 O1108 1.918 . S
Fe1109 O1110 2.002 . S
Fe1109 O1119 1.976 . S
Fe1109 O1123 1.996 . S
Fe1109 O1126 1.997 . S
O1110 Fe1109 2.002 . S
O1110 C1127 1.295 . S
O1111 Fe1106 1.997 . S
O1111 C1127 1.235 . S
O1112 Fe1106 2.002 . S
O1112 C1113 1.295 . S
C1113 O1112 1.295 . S
C1113 O1115 1.235 . S
C1114 O1119 1.287 . S
C1114 O1120 1.255 . S
O1115 Fe1107 1.997 . S
O1115 C1113 1.235 . S
C1116 O1122 1.287 . S
C1116 O1123 1.255 . S
O1117 Fe1106 1.976 . S
O1117 C1124 1.287 . S
O1118 Fe1107 1.996 . S
O1118 C1124 1.255 . S
O1119 Fe1109 1.976 . S
O1119 C1114 1.287 . S
O1120 Fe1106 1.996 . S
O1120 C1114 1.255 . S
C1121 O1125 1.295 . S
C1121 O1126 1.235 . S
O1122 Fe1107 1.976 . S
O1122 C1116 1.287 . S
O1123 Fe1109 1.996 . S
O1123 C1116 1.255 . S
C1124 O1117 1.287 . S
C1124 O1118 1.255 . S
O1125 Fe1107 2.002 . S
O1125 C1121 1.295 . S
O1126 Fe1109 1.997 . S
O1126 C1121 1.235 . S
C1127 O1110 1.295 . S
C1127 O1111 1.235 . S
Fe1128 O1130 1.918 . S
Fe1128 O1133 1.997 . S
Fe1128 O1134 2.002 . S
Fe1128 O1139 1.976 . S
Fe1128 O1142 1.996 . S
Fe1129 O1130 1.918 . S
Fe1129 O1137 1.997 . S
Fe1129 O1140 1.996 . S
Fe1129 O1144 1.976 . S
Fe1129 O1147 2.002 . S
O1130 Fe1128 1.918 . S
O1130 Fe1129 1.918 . S
O1130 Fe1131 1.918 . S
Fe1131 O1130 1.918 . S
Fe1131 O1132 2.002 . S
Fe1131 O1141 1.976 . S
Fe1131 O1145 1.996 . S
Fe1131 O1148 1.997 . S
O1132 Fe1131 2.002 . S
O1132 C1149 1.295 . S
O1133 Fe1128 1.997 . S
O1133 C1149 1.235 . S
O1134 Fe1128 2.002 . S
O1134 C1135 1.295 . S
C1135 O1134 1.295 . S
C1135 O1137 1.235 . S
C1136 O1141 1.287 . S
C1136 O1142 1.255 . S
O1137 Fe1129 1.997 . S
O1137 C1135 1.235 . S
C1138 O1144 1.287 . S
C1138 O1145 1.255 . S
O1139 Fe1128 1.976 . S
O1139 C1146 1.287 . S
O1140 Fe1129 1.996 . S
O1140 C1146 1.255 . S
O1141 Fe1131 1.976 . S
O1141 C1136 1.287 . S
O1142 Fe1128 1.996 . S
O1142 C1136 1.255 . S
C1143 O1147 1.295 . S
C1143 O1148 1.235 . S
O1144 Fe1129 1.976 . S
O1144 C1138 1.287 . S
O1145 Fe1131 1.996 . S
O1145 C1138 1.255 . S
C1146 O1139 1.287 . S
C1146 O1140 1.255 . S
O1147 Fe1129 2.002 . S
O1147 C1143 1.295 . S
O1148 Fe1131 1.997 . S
O1148 C1143 1.235 . S
C1149 O1132 1.295 . S
C1149 O1133 1.235 . S
Fe1150 O1152 1.918 . S
Fe1150 O1155 1.997 . S
Fe1150 O1156 2.002 . S
Fe1150 O1161 1.976 . S
Fe1150 O1164 1.996 . S
Fe1151 O1152 1.918 . S
Fe1151 O1159 1.997 . S
Fe1151 O1162 1.996 . S
Fe1151 O1166 1.976 . S
Fe1151 O1169 2.002 . S
O1152 Fe1150 1.918 . S
O1152 Fe1151 1.918 . S
O1152 Fe1153 1.918 . S
Fe1153 O1152 1.918 . S
Fe1153 O1154 2.002 . S
Fe1153 O1163 1.976 . S
Fe1153 O1167 1.996 . S
Fe1153 O1170 1.997 . S
O1154 Fe1153 2.002 . S
O1154 C1171 1.295 . S
O1155 Fe1150 1.997 . S
O1155 C1171 1.235 . S
O1156 Fe1150 2.002 . S
O1156 C1157 1.295 . S
C1157 O1156 1.295 . S
C1157 O1159 1.235 . S
C1158 O1163 1.287 . S
C1158 O1164 1.255 . S
O1159 Fe1151 1.997 . S
O1159 C1157 1.235 . S
C1160 O1166 1.287 . S
C1160 O1167 1.255 . S
O1161 Fe1150 1.976 . S
O1161 C1168 1.287 . S
O1162 Fe1151 1.996 . S
O1162 C1168 1.255 . S
O1163 Fe1153 1.976 . S
O1163 C1158 1.287 . S
O1164 Fe1150 1.996 . S
O1164 C1158 1.255 . S
C1165 O1169 1.295 . S
C1165 O1170 1.235 . S
O1166 Fe1151 1.976 . S
O1166 C1160 1.287 . S
O1167 Fe1153 1.996 . S
O1167 C1160 1.255 . S
C1168 O1161 1.287 . S
C1168 O1162 1.255 . S
O1169 Fe1151 2.002 . S
O1169 C1165 1.295 . S
O1170 Fe1153 1.997 . S
O1170 C1165 1.235 . S
C1171 O1154 1.295 . S
C1171 O1155 1.235 . S
Fe1172 O1174 1.918 . S
Fe1172 O1177 1.997 . S
Fe1172 O1178 2.002 . S
Fe1172 O1183 1.976 . S
Fe1172 O1186 1.996 . S
Fe1173 O1174 1.918 . S
Fe1173 O1181 1.997 . S
Fe1173 O1184 1.996 . S
Fe1173 O1188 1.976 . S
Fe1173 O1191 2.002 . S
O1174 Fe1172 1.918 . S
O1174 Fe1173 1.918 . S
O1174 Fe1175 1.918 . S
Fe1175 O1174 1.918 . S
Fe1175 O1176 2.002 . S
Fe1175 O1185 1.976 . S
Fe1175 O1189 1.996 . S
Fe1175 O1192 1.997 . S
O1176 Fe1175 2.002 . S
O1176 C1193 1.295 . S
O1177 Fe1172 1.997 . S
O1177 C1193 1.235 . S
O1178 Fe1172 2.002 . S
O1178 C1179 1.295 . S
C1179 O1178 1.295 . S
C1179 O1181 1.235 . S
C1180 O1185 1.287 . S
C1180 O1186 1.255 . S
O1181 Fe1173 1.997 . S
O1181 C1179 1.235 . S
C1182 O1188 1.287 . S
C1182 O1189 1.255 . S
O1183 Fe1172 1.976 . S
O1183 C1190 1.287 . S
O1184 Fe1173 1.996 . S
O1184 C1190 1.255 . S
O1185 Fe1175 1.976 . S
O1185 C1180 1.287 . S
O1186 Fe1172 1.996 . S
O1186 C1180 1.255 . S
C1187 O1191 1.295 . S
C1187 O1192 1.235 . S
O1188 Fe1173 1.976 . S
O1188 C1182 1.287 . S
O1189 Fe1175 1.996 . S
O1189 C1182 1.255 . S
C1190 O1183 1.287 . S
C1190 O1184 1.255 . S
O1191 Fe1173 2.002 . S
O1191 C1187 1.295 . S
O1192 Fe1175 1.997 . S
O1192 C1187 1.235 . S
C1193 O1176 1.295 . S
C1193 O1177 1.235 . S
Fe1194 O1196 1.918 . S
Fe1194 O1199 1.997 . S
Fe1194 O1200 2.002 . S
Fe1194 O1205 1.976 . S
Fe1194 O1208 1.996 . S
Fe1195 O1196 1.918 . S
Fe1195 O1203 1.997 . S
Fe1195 O1206 1.996 . S
Fe1195 O1210 1.976 . S
Fe1195 O1213 2.002 . S
O1196 Fe1194 1.918 . S
O1196 Fe1195 1.918 . S
O1196 Fe1197 1.918 . S
Fe1197 O1196 1.918 . S
Fe1197 O1198 2.002 . S
Fe1197 O1207 1.976 . S
Fe1197 O1211 1.996 . S
Fe1197 O1214 1.997 . S
O1198 Fe1197 2.002 . S
O1198 C1215 1.295 . S
O1199 Fe1194 1.997 . S
O1199 C1215 1.235 . S
O1200 Fe1194 2.002 . S
O1200 C1201 1.295 . S
C1201 O1200 1.295 . S
C1201 O1203 1.235 . S
C1202 O1207 1.287 . S
C1202 O1208 1.255 . S
O1203 Fe1195 1.997 . S
O1203 C1201 1.235 . S
C1204 O1210 1.287 . S
C1204 O1211 1.255 . S
O1205 Fe1194 1.976 . S
O1205 C1212 1.287 . S
O1206 Fe1195 1.996 . S
O1206 C1212 1.255 . S
O1207 Fe1197 1.976 . S
O1207 C1202 1.287 . S
O1208 Fe1194 1.996 . S
O1208 C1202 1.255 . S
C1209 O1213 1.295 . S
C1209 O1214 1.235 . S
O1210 Fe1195 1.976 . S
O1210 C1204 1.287 . S
O1211 Fe1197 1.996 . S
O1211 C1204 1.255 . S
C1212 O1205 1.287 . S
C1212 O1206 1.255 . S
O1213 Fe1195 2.002 . S
O1213 C1209 1.295 . S
O1214 Fe1197 1.997 . S
O1214 C1209 1.235 . S
C1215 O1198 1.295 . S
C1215 O1199 1.235 . S
H1216 C1222 0.930 . S
H1217 C1226 0.930 . S
H1218 C1231 0.929 . S
H1219 C1229 0.929 . S
H1220 C1224 0.929 . S
H1221 C1230 0.929 . S
C1222 H1216 0.930 . S
C1222 C1223 1.367 . S
C1222 C1230 1.378 . S
C1223 C1222 1.367 . S
C1223 C1231 1.433 . S
C1224 H1220 0.929 . S
C1224 C1226 1.378 . S
C1224 C1228 1.350 . S
C1225 C1228 1.463 . S
C1225 C1230 1.350 . S
C1225 N1233 1.427 . S
C1226 H1217 0.930 . S
C1226 C1224 1.378 . S
C1226 C1227 1.367 . S
C1227 C1226 1.367 . S
C1227 C1229 1.433 . S
C1228 C1224 1.350 . S
C1228 C1225 1.463 . S
C1228 N1232 1.427 . S
C1229 H1219 0.929 . S
C1229 C1227 1.433 . S
C1229 N1232 1.384 . S
C1230 H1221 0.929 . S
C1230 C1222 1.378 . S
C1230 C1225 1.350 . S
C1231 H1218 0.929 . S
C1231 C1223 1.433 . S
C1231 N1233 1.384 . S
N1232 C1228 1.427 . S
N1232 C1229 1.384 . S
N1233 C1225 1.427 . S
N1233 C1231 1.384 . S
H1234 C1240 0.930 . S
H1235 C1244 0.930 . S
H1236 C1249 0.929 . S
H1237 C1247 0.929 . S
H1238 C1242 0.929 . S
H1239 C1248 0.929 . S
C1240 H1234 0.930 . S
C1240 C1241 1.367 . S
C1240 C1248 1.378 . S
C1241 C1240 1.367 . S
C1241 C1249 1.433 . S
C1242 H1238 0.929 . S
C1242 C1244 1.378 . S
C1242 C1246 1.350 . S
C1243 C1246 1.463 . S
C1243 C1248 1.350 . S
C1243 N1251 1.427 . S
C1244 H1235 0.930 . S
C1244 C1242 1.378 . S
C1244 C1245 1.367 . S
C1245 C1244 1.367 . S
C1245 C1247 1.433 . S
C1246 C1242 1.350 . S
C1246 C1243 1.463 . S
C1246 N1250 1.427 . S
C1247 H1237 0.929 . S
C1247 C1245 1.433 . S
C1247 N1250 1.384 . S
C1248 H1239 0.929 . S
C1248 C1240 1.378 . S
C1248 C1243 1.350 . S
C1249 H1236 0.929 . S
C1249 C1241 1.433 . S
C1249 N1251 1.384 . S
N1250 C1246 1.427 . S
N1250 C1247 1.384 . S
N1251 C1243 1.427 . S
N1251 C1249 1.384 . S
H1252 C1258 0.930 . S
H1253 C1262 0.930 . S
H1254 C1267 0.929 . S
H1255 C1265 0.929 . S
H1256 C1260 0.929 . S
H1257 C1266 0.929 . S
C1258 H1252 0.930 . S
C1258 C1259 1.367 . S
C1258 C1266 1.378 . S
C1259 C1258 1.367 . S
C1259 C1267 1.433 . S
C1260 H1256 0.929 . S
C1260 C1262 1.378 . S
C1260 C1264 1.350 . S
C1261 C1264 1.463 . S
C1261 C1266 1.350 . S
C1261 N1269 1.427 . S
C1262 H1253 0.930 . S
C1262 C1260 1.378 . S
C1262 C1263 1.367 . S
C1263 C1262 1.367 . S
C1263 C1265 1.433 . S
C1264 C1260 1.350 . S
C1264 C1261 1.463 . S
C1264 N1268 1.427 . S
C1265 H1255 0.929 . S
C1265 C1263 1.433 . S
C1265 N1268 1.384 . S
C1266 H1257 0.929 . S
C1266 C1258 1.378 . S
C1266 C1261 1.350 . S
C1267 H1254 0.929 . S
C1267 C1259 1.433 . S
C1267 N1269 1.384 . S
N1268 C1264 1.427 . S
N1268 C1265 1.384 . S
N1269 C1261 1.427 . S
N1269 C1267 1.384 . S
H1270 C1276 0.930 . S
H1271 C1280 0.930 . S
H1272 C1285 0.929 . S
H1273 C1283 0.929 . S
H1274 C1278 0.929 . S
H1275 C1284 0.929 . S
C1276 H1270 0.930 . S
C1276 C1277 1.367 . S
C1276 C1284 1.378 . S
C1277 C1276 1.367 . S
C1277 C1285 1.433 . S
C1278 H1274 0.929 . S
C1278 C1280 1.378 . S
C1278 C1282 1.350 1_556 S
C1279 C1282 1.463 . S
C1279 C1284 1.350 . S
C1279 N1287 1.427 . S
C1280 H1271 0.930 . S
C1280 C1278 1.378 . S
C1280 C1281 1.367 . S
C1281 C1280 1.367 . S
C1281 C1283 1.433 . S
C1282 C1278 1.350 1_554 S
C1282 C1279 1.463 . S
C1282 N1286 1.427 . S
C1283 H1273 0.929 . S
C1283 C1281 1.433 . S
C1283 N1286 1.384 1_556 S
C1284 H1275 0.929 . S
C1284 C1276 1.378 . S
C1284 C1279 1.350 . S
C1285 H1272 0.929 . S
C1285 C1277 1.433 . S
C1285 N1287 1.384 . S
N1286 C1282 1.427 . S
N1286 C1283 1.384 1_554 S
N1287 C1279 1.427 . S
N1287 C1285 1.384 . S
H1288 C1294 0.930 . S
H1289 C1298 0.930 . S
H1290 C1303 0.929 . S
H1291 C1301 0.929 . S
H1292 C1296 0.929 . S
H1293 C1302 0.929 . S
C1294 H1288 0.930 . S
C1294 C1295 1.367 . S
C1294 C1302 1.378 . S
C1295 C1294 1.367 . S
C1295 C1303 1.433 . S
C1296 H1292 0.929 . S
C1296 C1298 1.378 . S
C1296 C1300 1.350 . S
C1297 C1300 1.463 . S
C1297 C1302 1.350 . S
C1297 N1305 1.427 . S
C1298 H1289 0.930 . S
C1298 C1296 1.378 . S
C1298 C1299 1.367 . S
C1299 C1298 1.367 . S
C1299 C1301 1.433 . S
C1300 C1296 1.350 . S
C1300 C1297 1.463 . S
C1300 N1304 1.427 . S
C1301 H1291 0.929 . S
C1301 C1299 1.433 . S
C1301 N1304 1.384 . S
C1302 H1293 0.929 . S
C1302 C1294 1.378 . S
C1302 C1297 1.350 . S
C1303 H1290 0.929 . S
C1303 C1295 1.433 . S
C1303 N1305 1.384 . S
N1304 C1300 1.427 . S
N1304 C1301 1.384 . S
N1305 C1297 1.427 . S
N1305 C1303 1.384 . S
H1306 C1312 0.930 . S
H1307 C1316 0.930 . S
H1308 C1321 0.929 . S
H1309 C1319 0.929 . S
H1310 C1314 0.929 . S
H1311 C1320 0.929 . S
C1312 H1306 0.930 . S
C1312 C1313 1.367 . S
C1312 C1320 1.378 . S
C1313 C1312 1.367 . S
C1313 C1321 1.433 . S
C1314 H1310 0.929 . S
C1314 C1316 1.378 . S
C1314 C1318 1.350 . S
C1315 C1318 1.463 . S
C1315 C1320 1.350 . S
C1315 N1323 1.427 . S
C1316 H1307 0.930 . S
C1316 C1314 1.378 . S
C1316 C1317 1.367 . S
C1317 C1316 1.367 . S
C1317 C1319 1.433 . S
C1318 C1314 1.350 . S
C1318 C1315 1.463 . S
C1318 N1322 1.427 . S
C1319 H1309 0.929 . S
C1319 C1317 1.433 . S
C1319 N1322 1.384 . S
C1320 H1311 0.929 . S
C1320 C1312 1.378 . S
C1320 C1315 1.350 . S
C1321 H1308 0.929 . S
C1321 C1313 1.433 . S
C1321 N1323 1.384 . S
N1322 C1318 1.427 . S
N1322 C1319 1.384 . S
N1323 C1315 1.427 . S
N1323 C1321 1.384 . S
H1324 C1330 0.930 . S
H1325 C1334 0.930 . S
H1326 C1339 0.929 . S
H1327 C1337 0.929 . S
H1328 C1332 0.929 . S
H1329 C1338 0.929 . S
C1330 H1324 0.930 . S
C1330 C1331 1.367 . S
C1330 C1338 1.378 . S
C1331 C1330 1.367 . S
C1331 C1339 1.433 . S
C1332 H1328 0.929 . S
C1332 C1334 1.378 . S
C1332 C1336 1.350 . S
C1333 C1336 1.463 . S
C1333 C1338 1.350 . S
C1333 N1341 1.427 . S
C1334 H1325 0.930 . S
C1334 C1332 1.378 . S
C1334 C1335 1.367 . S
C1335 C1334 1.367 . S
C1335 C1337 1.433 . S
C1336 C1332 1.350 . S
C1336 C1333 1.463 . S
C1336 N1340 1.427 . S
C1337 H1327 0.929 . S
C1337 C1335 1.433 . S
C1337 N1340 1.384 . S
C1338 H1329 0.929 . S
C1338 C1330 1.378 . S
C1338 C1333 1.350 . S
C1339 H1326 0.929 . S
C1339 C1331 1.433 . S
C1339 N1341 1.384 . S
N1340 C1336 1.427 . S
N1340 C1337 1.384 . S
N1341 C1333 1.427 . S
N1341 C1339 1.384 . S
H1342 C1348 0.930 . S
H1343 C1352 0.930 . S
H1344 C1357 0.929 . S
H1345 C1355 0.929 . S
H1346 C1350 0.929 1_556 S
H1347 C1356 0.929 . S
C1348 H1342 0.930 . S
C1348 C1349 1.367 . S
C1348 C1356 1.378 . S
C1349 C1348 1.367 . S
C1349 C1357 1.433 . S
C1350 H1346 0.929 1_554 S
C1350 C1352 1.378 . S
C1350 C1354 1.350 . S
C1351 C1354 1.463 1_556 S
C1351 C1356 1.350 . S
C1351 N1359 1.427 . S
C1352 H1343 0.930 . S
C1352 C1350 1.378 . S
C1352 C1353 1.367 . S
C1353 C1352 1.367 . S
C1353 C1355 1.433 . S
C1354 C1350 1.350 . S
C1354 C1351 1.463 1_554 S
C1354 N1358 1.427 . S
C1355 H1345 0.929 . S
C1355 C1353 1.433 . S
C1355 N1358 1.384 . S
C1356 H1347 0.929 . S
C1356 C1348 1.378 . S
C1356 C1351 1.350 . S
C1357 H1344 0.929 . S
C1357 C1349 1.433 . S
C1357 N1359 1.384 . S
N1358 C1354 1.427 . S
N1358 C1355 1.384 . S
N1359 C1351 1.427 . S
N1359 C1357 1.384 . S
H1360 C1366 0.930 . S
H1361 C1370 0.930 . S
H1362 C1375 0.929 . S
H1363 C1373 0.929 . S
H1364 C1368 0.929 . S
H1365 C1374 0.929 . S
C1366 H1360 0.930 . S
C1366 C1367 1.367 . S
C1366 C1374 1.378 . S
C1367 C1366 1.367 . S
C1367 C1375 1.433 . S
C1368 H1364 0.929 . S
C1368 C1370 1.378 . S
C1368 C1372 1.350 . S
C1369 C1372 1.463 . S
C1369 C1374 1.350 . S
C1369 N1377 1.427 . S
C1370 H1361 0.930 . S
C1370 C1368 1.378 . S
C1370 C1371 1.367 . S
C1371 C1370 1.367 . S
C1371 C1373 1.433 . S
C1372 C1368 1.350 . S
C1372 C1369 1.463 . S
C1372 N1376 1.427 . S
C1373 H1363 0.929 . S
C1373 C1371 1.433 . S
C1373 N1376 1.384 . S
C1374 H1365 0.929 . S
C1374 C1366 1.378 . S
C1374 C1369 1.350 . S
C1375 H1362 0.929 . S
C1375 C1367 1.433 . S
C1375 N1377 1.384 . S
N1376 C1372 1.427 . S
N1376 C1373 1.384 . S
N1377 C1369 1.427 . S
N1377 C1375 1.384 . S
H1378 C1384 0.930 . S
H1379 C1388 0.930 . S
H1380 C1393 0.929 . S
H1381 C1391 0.929 . S
H1382 C1386 0.929 . S
H1383 C1392 0.929 . S
C1384 H1378 0.930 . S
C1384 C1385 1.367 . S
C1384 C1392 1.378 . S
C1385 C1384 1.367 . S
C1385 C1393 1.433 . S
C1386 H1382 0.929 . S
C1386 C1388 1.378 1_545 S
C1386 C1390 1.350 . S
C1387 C1390 1.463 . S
C1387 C1392 1.350 . S
C1387 N1395 1.427 . S
C1388 H1379 0.930 . S
C1388 C1386 1.378 1_565 S
C1388 C1389 1.367 . S
C1389 C1388 1.367 . S
C1389 C1391 1.433 . S
C1390 C1386 1.350 . S
C1390 C1387 1.463 . S
C1390 N1394 1.427 1_545 S
C1391 H1381 0.929 . S
C1391 C1389 1.433 . S
C1391 N1394 1.384 . S
C1392 H1383 0.929 . S
C1392 C1384 1.378 . S
C1392 C1387 1.350 . S
C1393 H1380 0.929 . S
C1393 C1385 1.433 . S
C1393 N1395 1.384 . S
N1394 C1390 1.427 1_565 S
N1394 C1391 1.384 . S
N1395 C1387 1.427 . S
N1395 C1393 1.384 . S
H1396 C1402 0.930 . S
H1397 C1406 0.930 . S
H1398 C1411 0.929 . S
H1399 C1409 0.929 . S
H1400 C1404 0.929 . S
H1401 C1410 0.929 . S
C1402 H1396 0.930 . S
C1402 C1403 1.367 . S
C1402 C1410 1.378 . S
C1403 C1402 1.367 . S
C1403 C1411 1.433 . S
C1404 H1400 0.929 . S
C1404 C1406 1.378 . S
C1404 C1408 1.350 . S
C1405 C1408 1.463 . S
C1405 C1410 1.350 . S
C1405 N1413 1.427 . S
C1406 H1397 0.930 . S
C1406 C1404 1.378 . S
C1406 C1407 1.367 . S
C1407 C1406 1.367 . S
C1407 C1409 1.433 . S
C1408 C1404 1.350 . S
C1408 C1405 1.463 . S
C1408 N1412 1.427 . S
C1409 H1399 0.929 . S
C1409 C1407 1.433 . S
C1409 N1412 1.384 . S
C1410 H1401 0.929 . S
C1410 C1402 1.378 . S
C1410 C1405 1.350 . S
C1411 H1398 0.929 . S
C1411 C1403 1.433 . S
C1411 N1413 1.384 . S
N1412 C1408 1.427 . S
N1412 C1409 1.384 . S
N1413 C1405 1.427 . S
N1413 C1411 1.384 . S
H1414 C1420 0.930 . S
H1415 C1424 0.930 . S
H1416 C1429 0.929 . S
H1417 C1427 0.929 . S
H1418 C1422 0.929 . S
H1419 C1428 0.929 . S
C1420 H1414 0.930 . S
C1420 C1421 1.367 . S
C1420 C1428 1.378 . S
C1421 C1420 1.367 . S
C1421 C1429 1.433 . S
C1422 H1418 0.929 . S
C1422 C1424 1.378 . S
C1422 C1426 1.350 . S
C1423 C1426 1.463 1_565 S
C1423 C1428 1.350 . S
C1423 N1431 1.427 . S
C1424 H1415 0.930 . S
C1424 C1422 1.378 . S
C1424 C1425 1.367 . S
C1425 C1424 1.367 . S
C1425 C1427 1.433 . S
C1426 C1422 1.350 . S
C1426 C1423 1.463 1_545 S
C1426 N1430 1.427 . S
C1427 H1417 0.929 . S
C1427 C1425 1.433 . S
C1427 N1430 1.384 . S
C1428 H1419 0.929 . S
C1428 C1420 1.378 . S
C1428 C1423 1.350 . S
C1429 H1416 0.929 . S
C1429 C1421 1.433 . S
C1429 N1431 1.384 . S
N1430 C1426 1.427 . S
N1430 C1427 1.384 . S
N1431 C1423 1.427 . S
N1431 C1429 1.384 . S
H1432 C1438 0.930 . S
H1433 C1442 0.930 . S
H1434 C1447 0.929 . S
H1435 C1445 0.929 . S
H1436 C1440 0.929 . S
H1437 C1446 0.929 . S
C1438 H1432 0.930 . S
C1438 C1439 1.367 . S
C1438 C1446 1.378 . S
C1439 C1438 1.367 . S
C1439 C1447 1.433 . S
C1440 H1436 0.929 . S
C1440 C1442 1.378 . S
C1440 C1444 1.350 . S
C1441 C1444 1.463 . S
C1441 C1446 1.350 . S
C1441 N1449 1.427 . S
C1442 H1433 0.930 . S
C1442 C1440 1.378 . S
C1442 C1443 1.367 . S
C1443 C1442 1.367 . S
C1443 C1445 1.433 . S
C1444 C1440 1.350 . S
C1444 C1441 1.463 . S
C1444 N1448 1.427 . S
C1445 H1435 0.929 . S
C1445 C1443 1.433 . S
C1445 N1448 1.384 . S
C1446 H1437 0.929 . S
C1446 C1438 1.378 . S
C1446 C1441 1.350 . S
C1447 H1434 0.929 . S
C1447 C1439 1.433 . S
C1447 N1449 1.384 . S
N1448 C1444 1.427 . S
N1448 C1445 1.384 . S
N1449 C1441 1.427 . S
N1449 C1447 1.384 . S
H1450 C1456 0.930 . S
H1451 C1460 0.930 . S
H1452 C1465 0.929 . S
H1453 C1463 0.929 . S
H1454 C1458 0.929 . S
H1455 C1464 0.929 . S
C1456 H1450 0.930 . S
C1456 C1457 1.367 . S
C1456 C1464 1.378 . S
C1457 C1456 1.367 . S
C1457 C1465 1.433 . S
C1458 H1454 0.929 . S
C1458 C1460 1.378 1_545 S
C1458 C1462 1.350 . S
C1459 C1462 1.463 . S
C1459 C1464 1.350 . S
C1459 N1467 1.427 . S
C1460 H1451 0.930 . S
C1460 C1458 1.378 1_565 S
C1460 C1461 1.367 . S
C1461 C1460 1.367 . S
C1461 C1463 1.433 . S
C1462 C1458 1.350 . S
C1462 C1459 1.463 . S
C1462 N1466 1.427 1_545 S
C1463 H1453 0.929 . S
C1463 C1461 1.433 . S
C1463 N1466 1.384 . S
C1464 H1455 0.929 . S
C1464 C1456 1.378 . S
C1464 C1459 1.350 . S
C1465 H1452 0.929 . S
C1465 C1457 1.433 . S
C1465 N1467 1.384 . S
N1466 C1462 1.427 1_565 S
N1466 C1463 1.384 . S
N1467 C1459 1.427 . S
N1467 C1465 1.384 . S
H1468 C1474 0.930 . S
H1469 C1478 0.930 . S
H1470 C1483 0.929 . S
H1471 C1481 0.929 . S
H1472 C1476 0.929 . S
H1473 C1482 0.929 . S
C1474 H1468 0.930 . S
C1474 C1475 1.367 . S
C1474 C1482 1.378 . S
C1475 C1474 1.367 . S
C1475 C1483 1.433 . S
C1476 H1472 0.929 . S
C1476 C1478 1.378 . S
C1476 C1480 1.350 . S
C1477 C1480 1.463 . S
C1477 C1482 1.350 . S
C1477 N1485 1.427 . S
C1478 H1469 0.930 . S
C1478 C1476 1.378 . S
C1478 C1479 1.367 . S
C1479 C1478 1.367 . S
C1479 C1481 1.433 . S
C1480 C1476 1.350 . S
C1480 C1477 1.463 . S
C1480 N1484 1.427 . S
C1481 H1471 0.929 . S
C1481 C1479 1.433 . S
C1481 N1484 1.384 . S
C1482 H1473 0.929 . S
C1482 C1474 1.378 . S
C1482 C1477 1.350 . S
C1483 H1470 0.929 . S
C1483 C1475 1.433 . S
C1483 N1485 1.384 . S
N1484 C1480 1.427 . S
N1484 C1481 1.384 . S
N1485 C1477 1.427 . S
N1485 C1483 1.384 . S
H1486 C1492 0.930 . S
H1487 C1496 0.930 . S
H1488 C1501 0.929 . S
H1489 C1499 0.929 . S
H1490 C1494 0.929 1_565 S
H1491 C1500 0.929 . S
C1492 H1486 0.930 . S
C1492 C1493 1.367 . S
C1492 C1500 1.378 . S
C1493 C1492 1.367 . S
C1493 C1501 1.433 . S
C1494 H1490 0.929 1_545 S
C1494 C1496 1.378 . S
C1494 C1498 1.350 . S
C1495 C1498 1.463 1_565 S
C1495 C1500 1.350 . S
C1495 N1503 1.427 . S
C1496 H1487 0.930 . S
C1496 C1494 1.378 . S
C1496 C1497 1.367 . S
C1497 C1496 1.367 . S
C1497 C1499 1.433 . S
C1498 C1494 1.350 . S
C1498 C1495 1.463 1_545 S
C1498 N1502 1.427 . S
C1499 H1489 0.929 . S
C1499 C1497 1.433 . S
C1499 N1502 1.384 . S
C1500 H1491 0.929 . S
C1500 C1492 1.378 . S
C1500 C1495 1.350 . S
C1501 H1488 0.929 . S
C1501 C1493 1.433 . S
C1501 N1503 1.384 . S
N1502 C1498 1.427 . S
N1502 C1499 1.384 . S
N1503 C1495 1.427 . S
N1503 C1501 1.384 . S
H1504 C1510 0.930 . S
H1505 C1514 0.930 . S
H1506 C1519 0.929 . S
H1507 C1517 0.929 . S
H1508 C1512 0.929 . S
H1509 C1518 0.929 . S
C1510 H1504 0.930 . S
C1510 C1511 1.367 . S
C1510 C1518 1.378 . S
C1511 C1510 1.367 . S
C1511 C1519 1.433 . S
C1512 H1508 0.929 . S
C1512 C1514 1.378 . S
C1512 C1516 1.350 . S
C1513 C1516 1.463 . S
C1513 C1518 1.350 . S
C1513 N1521 1.427 . S
C1514 H1505 0.930 . S
C1514 C1512 1.378 . S
C1514 C1515 1.367 . S
C1515 C1514 1.367 . S
C1515 C1517 1.433 . S
C1516 C1512 1.350 . S
C1516 C1513 1.463 . S
C1516 N1520 1.427 . S
C1517 H1507 0.929 . S
C1517 C1515 1.433 . S
C1517 N1520 1.384 . S
C1518 H1509 0.929 . S
C1518 C1510 1.378 . S
C1518 C1513 1.350 . S
C1519 H1506 0.929 . S
C1519 C1511 1.433 . S
C1519 N1521 1.384 . S
N1520 C1516 1.427 . S
N1520 C1517 1.384 . S
N1521 C1513 1.427 . S
N1521 C1519 1.384 . S
H1522 C1528 0.930 . S
H1523 C1532 0.930 . S
H1524 C1537 0.929 . S
H1525 C1535 0.929 . S
H1526 C1530 0.929 . S
H1527 C1536 0.929 . S
C1528 H1522 0.930 . S
C1528 C1529 1.367 . S
C1528 C1536 1.378 . S
C1529 C1528 1.367 . S
C1529 C1537 1.433 . S
C1530 H1526 0.929 . S
C1530 C1532 1.378 . S
C1530 C1534 1.350 . S
C1531 C1534 1.463 . S
C1531 C1536 1.350 . S
C1531 N1539 1.427 . S
C1532 H1523 0.930 . S
C1532 C1530 1.378 . S
C1532 C1533 1.367 . S
C1533 C1532 1.367 . S
C1533 C1535 1.433 . S
C1534 C1530 1.350 . S
C1534 C1531 1.463 . S
C1534 N1538 1.427 . S
C1535 H1525 0.929 . S
C1535 C1533 1.433 . S
C1535 N1538 1.384 . S
C1536 H1527 0.929 . S
C1536 C1528 1.378 . S
C1536 C1531 1.350 . S
C1537 H1524 0.929 . S
C1537 C1529 1.433 . S
C1537 N1539 1.384 . S
N1538 C1534 1.427 . S
N1538 C1535 1.384 . S
N1539 C1531 1.427 . S
N1539 C1537 1.384 . S
H1540 C1546 0.930 . S
H1541 C1550 0.930 . S
H1542 C1555 0.929 . S
H1543 C1553 0.929 . S
H1544 C1548 0.929 . S
H1545 C1554 0.929 . S
C1546 H1540 0.930 . S
C1546 C1547 1.367 . S
C1546 C1554 1.378 . S
C1547 C1546 1.367 . S
C1547 C1555 1.433 . S
C1548 H1544 0.929 . S
C1548 C1550 1.378 1_455 S
C1548 C1552 1.350 . S
C1549 C1552 1.463 . S
C1549 C1554 1.350 . S
C1549 N1557 1.427 . S
C1550 H1541 0.930 . S
C1550 C1548 1.378 1_655 S
C1550 C1551 1.367 . S
C1551 C1550 1.367 . S
C1551 C1553 1.433 . S
C1552 C1548 1.350 . S
C1552 C1549 1.463 . S
C1552 N1556 1.427 1_455 S
C1553 H1543 0.929 . S
C1553 C1551 1.433 . S
C1553 N1556 1.384 . S
C1554 H1545 0.929 . S
C1554 C1546 1.378 . S
C1554 C1549 1.350 . S
C1555 H1542 0.929 . S
C1555 C1547 1.433 . S
C1555 N1557 1.384 . S
N1556 C1552 1.427 1_655 S
N1556 C1553 1.384 . S
N1557 C1549 1.427 . S
N1557 C1555 1.384 . S
H1558 C1564 0.930 . S
H1559 C1568 0.930 . S
H1560 C1573 0.929 . S
H1561 C1571 0.929 . S
H1562 C1566 0.929 . S
H1563 C1572 0.929 . S
C1564 H1558 0.930 . S
C1564 C1565 1.367 . S
C1564 C1572 1.378 . S
C1565 C1564 1.367 . S
C1565 C1573 1.433 . S
C1566 H1562 0.929 . S
C1566 C1568 1.378 . S
C1566 C1570 1.350 . S
C1567 C1570 1.463 . S
C1567 C1572 1.350 . S
C1567 N1575 1.427 . S
C1568 H1559 0.930 . S
C1568 C1566 1.378 . S
C1568 C1569 1.367 . S
C1569 C1568 1.367 . S
C1569 C1571 1.433 . S
C1570 C1566 1.350 . S
C1570 C1567 1.463 . S
C1570 N1574 1.427 . S
C1571 H1561 0.929 . S
C1571 C1569 1.433 . S
C1571 N1574 1.384 . S
C1572 H1563 0.929 . S
C1572 C1564 1.378 . S
C1572 C1567 1.350 . S
C1573 H1560 0.929 . S
C1573 C1565 1.433 . S
C1573 N1575 1.384 . S
N1574 C1570 1.427 . S
N1574 C1571 1.384 . S
N1575 C1567 1.427 . S
N1575 C1573 1.384 . S
H1576 C1582 0.930 . S
H1577 C1586 0.930 . S
H1578 C1591 0.929 . S
H1579 C1589 0.929 . S
H1580 C1584 0.929 1_655 S
H1581 C1590 0.929 . S
C1582 H1576 0.930 . S
C1582 C1583 1.367 . S
C1582 C1590 1.378 . S
C1583 C1582 1.367 . S
C1583 C1591 1.433 . S
C1584 H1580 0.929 1_455 S
C1584 C1586 1.378 . S
C1584 C1588 1.350 . S
C1585 C1588 1.463 1_655 S
C1585 C1590 1.350 . S
C1585 N1593 1.427 . S
C1586 H1577 0.930 . S
C1586 C1584 1.378 . S
C1586 C1587 1.367 . S
C1587 C1586 1.367 . S
C1587 C1589 1.433 . S
C1588 C1584 1.350 . S
C1588 C1585 1.463 1_455 S
C1588 N1592 1.427 . S
C1589 H1579 0.929 . S
C1589 C1587 1.433 . S
C1589 N1592 1.384 . S
C1590 H1581 0.929 . S
C1590 C1582 1.378 . S
C1590 C1585 1.350 . S
C1591 H1578 0.929 . S
C1591 C1583 1.433 . S
C1591 N1593 1.384 . S
N1592 C1588 1.427 . S
N1592 C1589 1.384 . S
N1593 C1585 1.427 . S
N1593 C1591 1.384 . S
H1594 C1600 0.930 . S
H1595 C1604 0.930 . S
H1596 C1609 0.929 . S
H1597 C1607 0.929 . S
H1598 C1602 0.929 . S
H1599 C1608 0.929 . S
C1600 H1594 0.930 . S
C1600 C1601 1.367 . S
C1600 C1608 1.378 . S
C1601 C1600 1.367 . S
C1601 C1609 1.433 . S
C1602 H1598 0.929 . S
C1602 C1604 1.378 . S
C1602 C1606 1.350 . S
C1603 C1606 1.463 . S
C1603 C1608 1.350 . S
C1603 N1611 1.427 . S
C1604 H1595 0.930 . S
C1604 C1602 1.378 . S
C1604 C1605 1.367 . S
C1605 C1604 1.367 . S
C1605 C1607 1.433 . S
C1606 C1602 1.350 . S
C1606 C1603 1.463 . S
C1606 N1610 1.427 . S
C1607 H1597 0.929 . S
C1607 C1605 1.433 . S
C1607 N1610 1.384 . S
C1608 H1599 0.929 . S
C1608 C1600 1.378 . S
C1608 C1603 1.350 . S
C1609 H1596 0.929 . S
C1609 C1601 1.433 . S
C1609 N1611 1.384 . S
N1610 C1606 1.427 . S
N1610 C1607 1.384 . S
N1611 C1603 1.427 . S
N1611 C1609 1.384 . S
H1612 C1618 0.930 . S
H1613 C1622 0.930 . S
H1614 C1627 0.929 . S
H1615 C1625 0.929 . S
H1616 C1620 0.929 . S
H1617 C1626 0.929 . S
C1618 H1612 0.930 . S
C1618 C1619 1.367 . S
C1618 C1626 1.378 . S
C1619 C1618 1.367 . S
C1619 C1627 1.433 . S
C1620 H1616 0.929 . S
C1620 C1622 1.378 1_455 S
C1620 C1624 1.350 . S
C1621 C1624 1.463 . S
C1621 C1626 1.350 . S
C1621 N1629 1.427 . S
C1622 H1613 0.930 . S
C1622 C1620 1.378 1_655 S
C1622 C1623 1.367 . S
C1623 C1622 1.367 . S
C1623 C1625 1.433 . S
C1624 C1620 1.350 . S
C1624 C1621 1.463 . S
C1624 N1628 1.427 1_455 S
C1625 H1615 0.929 . S
C1625 C1623 1.433 . S
C1625 N1628 1.384 . S
C1626 H1617 0.929 . S
C1626 C1618 1.378 . S
C1626 C1621 1.350 . S
C1627 H1614 0.929 . S
C1627 C1619 1.433 . S
C1627 N1629 1.384 . S
N1628 C1624 1.427 1_655 S
N1628 C1625 1.384 . S
N1629 C1621 1.427 . S
N1629 C1627 1.384 . S
H1630 C1636 0.930 . S
H1631 C1640 0.930 . S
H1632 C1645 0.929 . S
H1633 C1643 0.929 . S
H1634 C1638 0.929 . S
H1635 C1644 0.929 . S
C1636 H1630 0.930 . S
C1636 C1637 1.367 . S
C1636 C1644 1.378 . S
C1637 C1636 1.367 . S
C1637 C1645 1.433 . S
C1638 H1634 0.929 . S
C1638 C1640 1.378 . S
C1638 C1642 1.350 . S
C1639 C1642 1.463 . S
C1639 C1644 1.350 . S
C1639 N1647 1.427 . S
C1640 H1631 0.930 . S
C1640 C1638 1.378 . S
C1640 C1641 1.367 . S
C1641 C1640 1.367 . S
C1641 C1643 1.433 . S
C1642 C1638 1.350 . S
C1642 C1639 1.463 . S
C1642 N1646 1.427 . S
C1643 H1633 0.929 . S
C1643 C1641 1.433 . S
C1643 N1646 1.384 . S
C1644 H1635 0.929 . S
C1644 C1636 1.378 . S
C1644 C1639 1.350 . S
C1645 H1632 0.929 . S
C1645 C1637 1.433 . S
C1645 N1647 1.384 . S
N1646 C1642 1.427 . S
N1646 C1643 1.384 . S
N1647 C1639 1.427 . S
N1647 C1645 1.384 . S
H1648 C1654 0.930 . S
H1649 C1658 0.930 . S
H1650 C1663 0.929 . S
H1651 C1661 0.929 . S
H1652 C1656 0.929 . S
H1653 C1662 0.929 . S
C1654 H1648 0.930 . S
C1654 C1655 1.367 . S
C1654 C1662 1.378 . S
C1655 C1654 1.367 . S
C1655 C1663 1.433 . S
C1656 H1652 0.929 . S
C1656 C1658 1.378 . S
C1656 C1660 1.350 . S
C1657 C1660 1.463 . S
C1657 C1662 1.350 . S
C1657 N1665 1.427 . S
C1658 H1649 0.930 . S
C1658 C1656 1.378 . S
C1658 C1659 1.367 . S
C1659 C1658 1.367 . S
C1659 C1661 1.433 . S
C1660 C1656 1.350 . S
C1660 C1657 1.463 . S
C1660 N1664 1.427 . S
C1661 H1651 0.929 . S
C1661 C1659 1.433 . S
C1661 N1664 1.384 . S
C1662 H1653 0.929 . S
C1662 C1654 1.378 . S
C1662 C1657 1.350 . S
C1663 H1650 0.929 . S
C1663 C1655 1.433 . S
C1663 N1665 1.384 . S
N1664 C1660 1.427 . S
N1664 C1661 1.384 . S
N1665 C1657 1.427 . S
N1665 C1663 1.384 . S
H1666 C1672 0.930 . S
H1667 C1676 0.930 . S
H1668 C1681 0.929 . S
H1669 C1679 0.929 . S
H1670 C1674 0.929 . S
H1671 C1680 0.929 . S
C1672 H1666 0.930 . S
C1672 C1673 1.367 . S
C1672 C1680 1.378 . S
C1673 C1672 1.367 . S
C1673 C1681 1.433 . S
C1674 H1670 0.929 . S
C1674 C1676 1.378 . S
C1674 C1678 1.350 . S
C1675 C1678 1.463 . S
C1675 C1680 1.350 . S
C1675 N1683 1.427 . S
C1676 H1667 0.930 . S
C1676 C1674 1.378 . S
C1676 C1677 1.367 . S
C1677 C1676 1.367 . S
C1677 C1679 1.433 . S
C1678 C1674 1.350 . S
C1678 C1675 1.463 . S
C1678 N1682 1.427 . S
C1679 H1669 0.929 . S
C1679 C1677 1.433 . S
C1679 N1682 1.384 . S
C1680 H1671 0.929 . S
C1680 C1672 1.378 . S
C1680 C1675 1.350 . S
C1681 H1668 0.929 . S
C1681 C1673 1.433 . S
C1681 N1683 1.384 . S
N1682 C1678 1.427 . S
N1682 C1679 1.384 . S
N1683 C1675 1.427 . S
N1683 C1681 1.384 . S
H1684 C1690 0.930 . S
H1685 C1694 0.930 . S
H1686 C1699 0.929 . S
H1687 C1697 0.929 . S
H1688 C1692 0.929 . S
H1689 C1698 0.929 . S
C1690 H1684 0.930 . S
C1690 C1691 1.367 . S
C1690 C1698 1.378 . S
C1691 C1690 1.367 . S
C1691 C1699 1.433 . S
C1692 H1688 0.929 . S
C1692 C1694 1.378 . S
C1692 C1696 1.350 . S
C1693 C1696 1.463 . S
C1693 C1698 1.350 . S
C1693 N1701 1.427 . S
C1694 H1685 0.930 . S
C1694 C1692 1.378 . S
C1694 C1695 1.367 . S
C1695 C1694 1.367 . S
C1695 C1697 1.433 . S
C1696 C1692 1.350 . S
C1696 C1693 1.463 . S
C1696 N1700 1.427 . S
C1697 H1687 0.929 . S
C1697 C1695 1.433 . S
C1697 N1700 1.384 . S
C1698 H1689 0.929 . S
C1698 C1690 1.378 . S
C1698 C1693 1.350 . S
C1699 H1686 0.929 . S
C1699 C1691 1.433 . S
C1699 N1701 1.384 . S
N1700 C1696 1.427 . S
N1700 C1697 1.384 . S
N1701 C1693 1.427 . S
N1701 C1699 1.384 . S
H1702 C1708 0.930 . S
H1703 C1712 0.930 . S
H1704 C1717 0.929 . S
H1705 C1715 0.929 . S
H1706 C1710 0.929 1_556 S
H1707 C1716 0.929 . S
C1708 H1702 0.930 . S
C1708 C1709 1.367 . S
C1708 C1716 1.378 . S
C1709 C1708 1.367 . S
C1709 C1717 1.433 . S
C1710 H1706 0.929 1_554 S
C1710 C1712 1.378 . S
C1710 C1714 1.350 . S
C1711 C1714 1.463 1_556 S
C1711 C1716 1.350 . S
C1711 N1719 1.427 . S
C1712 H1703 0.930 . S
C1712 C1710 1.378 . S
C1712 C1713 1.367 . S
C1713 C1712 1.367 . S
C1713 C1715 1.433 . S
C1714 C1710 1.350 . S
C1714 C1711 1.463 1_554 S
C1714 N1718 1.427 . S
C1715 H1705 0.929 . S
C1715 C1713 1.433 . S
C1715 N1718 1.384 . S
C1716 H1707 0.929 . S
C1716 C1708 1.378 . S
C1716 C1711 1.350 . S
C1717 H1704 0.929 . S
C1717 C1709 1.433 . S
C1717 N1719 1.384 . S
N1718 C1714 1.427 . S
N1718 C1715 1.384 . S
N1719 C1711 1.427 . S
N1719 C1717 1.384 . S
H1720 C1726 0.930 . S
H1721 C1730 0.930 . S
H1722 C1735 0.929 . S
H1723 C1733 0.929 . S
H1724 C1728 0.929 . S
H1725 C1734 0.929 . S
C1726 H1720 0.930 . S
C1726 C1727 1.367 . S
C1726 C1734 1.378 . S
C1727 C1726 1.367 . S
C1727 C1735 1.433 . S
C1728 H1724 0.929 . S
C1728 C1730 1.378 . S
C1728 C1732 1.350 . S
C1729 C1732 1.463 . S
C1729 C1734 1.350 . S
C1729 N1737 1.427 . S
C1730 H1721 0.930 . S
C1730 C1728 1.378 . S
C1730 C1731 1.367 . S
C1731 C1730 1.367 . S
C1731 C1733 1.433 . S
C1732 C1728 1.350 . S
C1732 C1729 1.463 . S
C1732 N1736 1.427 . S
C1733 H1723 0.929 . S
C1733 C1731 1.433 . S
C1733 N1736 1.384 . S
C1734 H1725 0.929 . S
C1734 C1726 1.378 . S
C1734 C1729 1.350 . S
C1735 H1722 0.929 . S
C1735 C1727 1.433 . S
C1735 N1737 1.384 . S
N1736 C1732 1.427 . S
N1736 C1733 1.384 . S
N1737 C1729 1.427 . S
N1737 C1735 1.384 . S
H1738 C1744 0.930 . S
H1739 C1748 0.930 . S
H1740 C1753 0.929 . S
H1741 C1751 0.929 . S
H1742 C1746 0.929 . S
H1743 C1752 0.929 . S
C1744 H1738 0.930 . S
C1744 C1745 1.367 . S
C1744 C1752 1.378 . S
C1745 C1744 1.367 . S
C1745 C1753 1.433 . S
C1746 H1742 0.929 . S
C1746 C1748 1.378 . S
C1746 C1750 1.350 . S
C1747 C1750 1.463 . S
C1747 C1752 1.350 . S
C1747 N1755 1.427 . S
C1748 H1739 0.930 . S
C1748 C1746 1.378 . S
C1748 C1749 1.367 . S
C1749 C1748 1.367 . S
C1749 C1751 1.433 . S
C1750 C1746 1.350 . S
C1750 C1747 1.463 . S
C1750 N1754 1.427 . S
C1751 H1741 0.929 . S
C1751 C1749 1.433 . S
C1751 N1754 1.384 . S
C1752 H1743 0.929 . S
C1752 C1744 1.378 . S
C1752 C1747 1.350 . S
C1753 H1740 0.929 . S
C1753 C1745 1.433 . S
C1753 N1755 1.384 . S
N1754 C1750 1.427 . S
N1754 C1751 1.384 . S
N1755 C1747 1.427 . S
N1755 C1753 1.384 . S
H1756 C1762 0.930 . S
H1757 C1766 0.930 . S
H1758 C1771 0.929 . S
H1759 C1769 0.929 . S
H1760 C1764 0.929 . S
H1761 C1770 0.929 . S
C1762 H1756 0.930 . S
C1762 C1763 1.367 . S
C1762 C1770 1.378 . S
C1763 C1762 1.367 . S
C1763 C1771 1.433 . S
C1764 H1760 0.929 . S
C1764 C1766 1.378 . S
C1764 C1768 1.350 . S
C1765 C1768 1.463 . S
C1765 C1770 1.350 . S
C1765 N1773 1.427 . S
C1766 H1757 0.930 . S
C1766 C1764 1.378 . S
C1766 C1767 1.367 . S
C1767 C1766 1.367 . S
C1767 C1769 1.433 . S
C1768 C1764 1.350 . S
C1768 C1765 1.463 . S
C1768 N1772 1.427 . S
C1769 H1759 0.929 . S
C1769 C1767 1.433 . S
C1769 N1772 1.384 . S
C1770 H1761 0.929 . S
C1770 C1762 1.378 . S
C1770 C1765 1.350 . S
C1771 H1758 0.929 . S
C1771 C1763 1.433 . S
C1771 N1773 1.384 . S
N1772 C1768 1.427 . S
N1772 C1769 1.384 . S
N1773 C1765 1.427 . S
N1773 C1771 1.384 . S
H1774 C1780 0.930 . S
H1775 C1784 0.930 . S
H1776 C1789 0.929 . S
H1777 C1787 0.929 . S
H1778 C1782 0.929 . S
H1779 C1788 0.929 . S
C1780 H1774 0.930 . S
C1780 C1781 1.367 . S
C1780 C1788 1.378 . S
C1781 C1780 1.367 . S
C1781 C1789 1.433 . S
C1782 H1778 0.929 . S
C1782 C1784 1.378 1_554 S
C1782 C1786 1.350 . S
C1783 C1786 1.463 . S
C1783 C1788 1.350 . S
C1783 N1791 1.427 . S
C1784 H1775 0.930 . S
C1784 C1782 1.378 1_556 S
C1784 C1785 1.367 . S
C1785 C1784 1.367 . S
C1785 C1787 1.433 . S
C1786 C1782 1.350 . S
C1786 C1783 1.463 . S
C1786 N1790 1.427 1_554 S
C1787 H1777 0.929 . S
C1787 C1785 1.433 . S
C1787 N1790 1.384 . S
C1788 H1779 0.929 . S
C1788 C1780 1.378 . S
C1788 C1783 1.350 . S
C1789 H1776 0.929 . S
C1789 C1781 1.433 . S
C1789 N1791 1.384 . S
N1790 C1786 1.427 1_556 S
N1790 C1787 1.384 . S
N1791 C1783 1.427 . S
N1791 C1789 1.384 . S
H1792 C1798 0.930 . S
H1793 C1802 0.930 . S
H1794 C1807 0.929 . S
H1795 C1805 0.929 . S
H1796 C1800 0.929 . S
H1797 C1806 0.929 . S
C1798 H1792 0.930 . S
C1798 C1799 1.367 . S
C1798 C1806 1.378 . S
C1799 C1798 1.367 . S
C1799 C1807 1.433 . S
C1800 H1796 0.929 . S
C1800 C1802 1.378 . S
C1800 C1804 1.350 . S
C1801 C1804 1.463 . S
C1801 C1806 1.350 . S
C1801 N1809 1.427 . S
C1802 H1793 0.930 . S
C1802 C1800 1.378 . S
C1802 C1803 1.367 . S
C1803 C1802 1.367 . S
C1803 C1805 1.433 . S
C1804 C1800 1.350 . S
C1804 C1801 1.463 . S
C1804 N1808 1.427 . S
C1805 H1795 0.929 . S
C1805 C1803 1.433 . S
C1805 N1808 1.384 . S
C1806 H1797 0.929 . S
C1806 C1798 1.378 . S
C1806 C1801 1.350 . S
C1807 H1794 0.929 . S
C1807 C1799 1.433 . S
C1807 N1809 1.384 . S
N1808 C1804 1.427 . S
N1808 C1805 1.384 . S
N1809 C1801 1.427 . S
N1809 C1807 1.384 . S
H1810 C1816 0.930 . S
H1811 C1820 0.930 . S
H1812 C1825 0.929 . S
H1813 C1823 0.929 . S
H1814 C1818 0.929 . S
H1815 C1824 0.929 . S
C1816 H1810 0.930 . S
C1816 C1817 1.367 . S
C1816 C1824 1.378 . S
C1817 C1816 1.367 . S
C1817 C1825 1.433 . S
C1818 H1814 0.929 . S
C1818 C1820 1.378 1_565 S
C1818 C1822 1.350 . S
C1819 C1822 1.463 . S
C1819 C1824 1.350 . S
C1819 N1827 1.427 . S
C1820 H1811 0.930 . S
C1820 C1818 1.378 1_545 S
C1820 C1821 1.367 . S
C1821 C1820 1.367 . S
C1821 C1823 1.433 . S
C1822 C1818 1.350 . S
C1822 C1819 1.463 . S
C1822 N1826 1.427 1_565 S
C1823 H1813 0.929 . S
C1823 C1821 1.433 . S
C1823 N1826 1.384 . S
C1824 H1815 0.929 . S
C1824 C1816 1.378 . S
C1824 C1819 1.350 . S
C1825 H1812 0.929 . S
C1825 C1817 1.433 . S
C1825 N1827 1.384 . S
N1826 C1822 1.427 1_545 S
N1826 C1823 1.384 . S
N1827 C1819 1.427 . S
N1827 C1825 1.384 . S
H1828 C1834 0.930 . S
H1829 C1838 0.930 . S
H1830 C1843 0.929 . S
H1831 C1841 0.929 . S
H1832 C1836 0.929 . S
H1833 C1842 0.929 . S
C1834 H1828 0.930 . S
C1834 C1835 1.367 . S
C1834 C1842 1.378 . S
C1835 C1834 1.367 . S
C1835 C1843 1.433 . S
C1836 H1832 0.929 . S
C1836 C1838 1.378 . S
C1836 C1840 1.350 . S
C1837 C1840 1.463 . S
C1837 C1842 1.350 . S
C1837 N1845 1.427 . S
C1838 H1829 0.930 . S
C1838 C1836 1.378 . S
C1838 C1839 1.367 . S
C1839 C1838 1.367 . S
C1839 C1841 1.433 . S
C1840 C1836 1.350 . S
C1840 C1837 1.463 . S
C1840 N1844 1.427 . S
C1841 H1831 0.929 . S
C1841 C1839 1.433 . S
C1841 N1844 1.384 . S
C1842 H1833 0.929 . S
C1842 C1834 1.378 . S
C1842 C1837 1.350 . S
C1843 H1830 0.929 . S
C1843 C1835 1.433 . S
C1843 N1845 1.384 . S
N1844 C1840 1.427 . S
N1844 C1841 1.384 . S
N1845 C1837 1.427 . S
N1845 C1843 1.384 . S
H1846 C1852 0.930 . S
H1847 C1856 0.930 . S
H1848 C1861 0.929 . S
H1849 C1859 0.929 . S
H1850 C1854 0.929 . S
H1851 C1860 0.929 . S
C1852 H1846 0.930 . S
C1852 C1853 1.367 . S
C1852 C1860 1.378 . S
C1853 C1852 1.367 . S
C1853 C1861 1.433 . S
C1854 H1850 0.929 . S
C1854 C1856 1.378 1_545 S
C1854 C1858 1.350 . S
C1855 C1858 1.463 . S
C1855 C1860 1.350 . S
C1855 N1863 1.427 . S
C1856 H1847 0.930 . S
C1856 C1854 1.378 1_565 S
C1856 C1857 1.367 . S
C1857 C1856 1.367 . S
C1857 C1859 1.433 . S
C1858 C1854 1.350 . S
C1858 C1855 1.463 . S
C1858 N1862 1.427 1_545 S
C1859 H1849 0.929 . S
C1859 C1857 1.433 . S
C1859 N1862 1.384 . S
C1860 H1851 0.929 . S
C1860 C1852 1.378 . S
C1860 C1855 1.350 . S
C1861 H1848 0.929 . S
C1861 C1853 1.433 . S
C1861 N1863 1.384 . S
N1862 C1858 1.427 1_565 S
N1862 C1859 1.384 . S
N1863 C1855 1.427 . S
N1863 C1861 1.384 . S
H1864 C1870 0.930 . S
H1865 C1874 0.930 . S
H1866 C1879 0.929 . S
H1867 C1877 0.929 . S
H1868 C1872 0.929 . S
H1869 C1878 0.929 . S
C1870 H1864 0.930 . S
C1870 C1871 1.367 . S
C1870 C1878 1.378 . S
C1871 C1870 1.367 . S
C1871 C1879 1.433 . S
C1872 H1868 0.929 . S
C1872 C1874 1.378 . S
C1872 C1876 1.350 . S
C1873 C1876 1.463 . S
C1873 C1878 1.350 . S
C1873 N1881 1.427 . S
C1874 H1865 0.930 . S
C1874 C1872 1.378 . S
C1874 C1875 1.367 . S
C1875 C1874 1.367 . S
C1875 C1877 1.433 . S
C1876 C1872 1.350 . S
C1876 C1873 1.463 . S
C1876 N1880 1.427 . S
C1877 H1867 0.929 . S
C1877 C1875 1.433 . S
C1877 N1880 1.384 . S
C1878 H1869 0.929 . S
C1878 C1870 1.378 . S
C1878 C1873 1.350 . S
C1879 H1866 0.929 . S
C1879 C1871 1.433 . S
C1879 N1881 1.384 . S
N1880 C1876 1.427 . S
N1880 C1877 1.384 . S
N1881 C1873 1.427 . S
N1881 C1879 1.384 . S
H1882 C1888 0.930 . S
H1883 C1892 0.930 . S
H1884 C1897 0.929 . S
H1885 C1895 0.929 . S
H1886 C1890 0.929 . S
H1887 C1896 0.929 . S
C1888 H1882 0.930 . S
C1888 C1889 1.367 . S
C1888 C1896 1.378 . S
C1889 C1888 1.367 . S
C1889 C1897 1.433 . S
C1890 H1886 0.929 . S
C1890 C1892 1.378 . S
C1890 C1894 1.350 . S
C1891 C1894 1.463 1_565 S
C1891 C1896 1.350 . S
C1891 N1899 1.427 . S
C1892 H1883 0.930 . S
C1892 C1890 1.378 . S
C1892 C1893 1.367 . S
C1893 C1892 1.367 . S
C1893 C1895 1.433 . S
C1894 C1890 1.350 . S
C1894 C1891 1.463 1_545 S
C1894 N1898 1.427 . S
C1895 H1885 0.929 . S
C1895 C1893 1.433 . S
C1895 N1898 1.384 . S
C1896 H1887 0.929 . S
C1896 C1888 1.378 . S
C1896 C1891 1.350 . S
C1897 H1884 0.929 . S
C1897 C1889 1.433 . S
C1897 N1899 1.384 . S
N1898 C1894 1.427 . S
N1898 C1895 1.384 . S
N1899 C1891 1.427 . S
N1899 C1897 1.384 . S
H1900 C1906 0.930 . S
H1901 C1910 0.930 . S
H1902 C1915 0.929 . S
H1903 C1913 0.929 . S
H1904 C1908 0.929 . S
H1905 C1914 0.929 . S
C1906 H1900 0.930 . S
C1906 C1907 1.367 . S
C1906 C1914 1.378 . S
C1907 C1906 1.367 . S
C1907 C1915 1.433 . S
C1908 H1904 0.929 . S
C1908 C1910 1.378 . S
C1908 C1912 1.350 . S
C1909 C1912 1.463 . S
C1909 C1914 1.350 . S
C1909 N1917 1.427 . S
C1910 H1901 0.930 . S
C1910 C1908 1.378 . S
C1910 C1911 1.367 . S
C1911 C1910 1.367 . S
C1911 C1913 1.433 . S
C1912 C1908 1.350 . S
C1912 C1909 1.463 . S
C1912 N1916 1.427 . S
C1913 H1903 0.929 . S
C1913 C1911 1.433 . S
C1913 N1916 1.384 . S
C1914 H1905 0.929 . S
C1914 C1906 1.378 . S
C1914 C1909 1.350 . S
C1915 H1902 0.929 . S
C1915 C1907 1.433 . S
C1915 N1917 1.384 . S
N1916 C1912 1.427 . S
N1916 C1913 1.384 . S
N1917 C1909 1.427 . S
N1917 C1915 1.384 . S
H1918 C1924 0.930 . S
H1919 C1928 0.930 . S
H1920 C1933 0.929 . S
H1921 C1931 0.929 . S
H1922 C1926 0.929 . S
H1923 C1932 0.929 . S
C1924 H1918 0.930 . S
C1924 C1925 1.367 . S
C1924 C1932 1.378 . S
C1925 C1924 1.367 . S
C1925 C1933 1.433 . S
C1926 H1922 0.929 . S
C1926 C1928 1.378 . S
C1926 C1930 1.350 1_565 S
C1927 C1930 1.463 . S
C1927 C1932 1.350 . S
C1927 N1935 1.427 . S
C1928 H1919 0.930 . S
C1928 C1926 1.378 . S
C1928 C1929 1.367 . S
C1929 C1928 1.367 . S
C1929 C1931 1.433 . S
C1930 C1926 1.350 1_545 S
C1930 C1927 1.463 . S
C1930 N1934 1.427 . S
C1931 H1921 0.929 . S
C1931 C1929 1.433 . S
C1931 N1934 1.384 1_565 S
C1932 H1923 0.929 . S
C1932 C1924 1.378 . S
C1932 C1927 1.350 . S
C1933 H1920 0.929 . S
C1933 C1925 1.433 . S
C1933 N1935 1.384 . S
N1934 C1930 1.427 . S
N1934 C1931 1.384 1_545 S
N1935 C1927 1.427 . S
N1935 C1933 1.384 . S
H1936 C1942 0.923 1_554 S
H1937 C1946 0.930 . S
H1938 C1951 0.929 . S
H1939 C1949 0.929 . S
H1940 C1944 0.929 . S
H1941 C1950 0.929 . S
C1942 H1936 0.923 1_556 S
C1942 C1943 1.367 . S
C1942 C1950 1.378 . S
C1943 C1942 1.367 . S
C1943 C1951 1.433 . S
C1944 H1940 0.929 . S
C1944 C1946 1.378 . S
C1944 C1948 1.350 . S
C1945 C1948 1.463 . S
C1945 C1950 1.350 . S
C1945 N1953 1.427 . S
C1946 H1937 0.930 . S
C1946 C1944 1.378 . S
C1946 C1947 1.367 . S
C1947 C1946 1.367 . S
C1947 C1949 1.433 . S
C1948 C1944 1.350 . S
C1948 C1945 1.463 . S
C1948 N1952 1.427 . S
C1949 H1939 0.929 . S
C1949 C1947 1.433 . S
C1949 N1952 1.384 . S
C1950 H1941 0.929 . S
C1950 C1942 1.378 . S
C1950 C1945 1.350 . S
C1951 H1938 0.929 . S
C1951 C1943 1.433 . S
C1951 N1953 1.384 . S
N1952 C1948 1.427 . S
N1952 C1949 1.384 . S
N1953 C1945 1.427 . S
N1953 C1951 1.384 . S
H1954 C1960 0.930 . S
H1955 C1964 0.930 . S
H1956 C1969 0.929 . S
H1957 C1967 0.929 . S
H1958 C1962 0.929 . S
H1959 C1968 0.929 . S
C1960 H1954 0.930 . S
C1960 C1961 1.367 . S
C1960 C1968 1.378 . S
C1961 C1960 1.367 . S
C1961 C1969 1.433 . S
C1962 H1958 0.929 . S
C1962 C1964 1.378 . S
C1962 C1966 1.350 . S
C1963 C1966 1.463 . S
C1963 C1968 1.350 . S
C1963 N1971 1.427 . S
C1964 H1955 0.930 . S
C1964 C1962 1.378 . S
C1964 C1965 1.367 . S
C1965 C1964 1.367 . S
C1965 C1967 1.433 . S
C1966 C1962 1.350 . S
C1966 C1963 1.463 . S
C1966 N1970 1.427 . S
C1967 H1957 0.929 . S
C1967 C1965 1.433 . S
C1967 N1970 1.384 . S
C1968 H1959 0.929 . S
C1968 C1960 1.378 . S
C1968 C1963 1.350 . S
C1969 H1956 0.929 . S
C1969 C1961 1.433 . S
C1969 N1971 1.384 . S
N1970 C1966 1.427 . S
N1970 C1967 1.384 . S
N1971 C1963 1.427 . S
N1971 C1969 1.384 . S
H1972 C1978 0.930 . S
H1973 C1982 0.930 . S
H1974 C1987 0.929 . S
H1975 C1985 0.929 . S
H1976 C1980 0.929 . S
H1977 C1986 0.929 . S
C1978 H1972 0.930 . S
C1978 C1979 1.367 . S
C1978 C1986 1.378 . S
C1979 C1978 1.367 . S
C1979 C1987 1.433 . S
C1980 H1976 0.929 . S
C1980 C1982 1.378 . S
C1980 C1984 1.350 1_455 S
C1981 C1984 1.463 . S
C1981 C1986 1.350 . S
C1981 N1989 1.427 . S
C1982 H1973 0.930 . S
C1982 C1980 1.378 . S
C1982 C1983 1.367 . S
C1983 C1982 1.367 . S
C1983 C1985 1.433 . S
C1984 C1980 1.350 1_655 S
C1984 C1981 1.463 . S
C1984 N1988 1.427 1_655 S
C1985 H1975 0.929 . S
C1985 C1983 1.433 . S
C1985 N1988 1.384 . S
C1986 H1977 0.929 . S
C1986 C1978 1.378 . S
C1986 C1981 1.350 . S
C1987 H1974 0.929 . S
C1987 C1979 1.433 . S
C1987 N1989 1.384 . S
N1988 C1984 1.427 1_455 S
N1988 C1985 1.384 . S
N1989 C1981 1.427 . S
N1989 C1987 1.384 . S
H1990 C1996 0.930 . S
H1991 C2000 0.930 . S
H1992 C2005 0.929 . S
H1993 C2003 0.929 . S
H1994 C1998 0.929 . S
H1995 C2004 0.929 . S
C1996 H1990 0.930 . S
C1996 C1997 1.367 . S
C1996 C2004 1.378 . S
C1997 C1996 1.367 . S
C1997 C2005 1.433 . S
C1998 H1994 0.929 . S
C1998 C2000 1.378 . S
C1998 C2002 1.350 . S
C1999 C2002 1.463 . S
C1999 C2004 1.350 . S
C1999 N2007 1.427 . S
C2000 H1991 0.930 . S
C2000 C1998 1.378 . S
C2000 C2001 1.367 . S
C2001 C2000 1.367 . S
C2001 C2003 1.433 . S
C2002 C1998 1.350 . S
C2002 C1999 1.463 . S
C2002 N2006 1.427 . S
C2003 H1993 0.929 . S
C2003 C2001 1.433 . S
C2003 N2006 1.384 . S
C2004 H1995 0.929 . S
C2004 C1996 1.378 . S
C2004 C1999 1.350 . S
C2005 H1992 0.929 . S
C2005 C1997 1.433 . S
C2005 N2007 1.384 . S
N2006 C2002 1.427 . S
N2006 C2003 1.384 . S
N2007 C1999 1.427 . S
N2007 C2005 1.384 . S
H2008 C2014 0.930 . S
H2009 C2018 0.930 . S
H2010 C2023 0.929 . S
H2011 C2021 0.929 . S
H2012 C2016 0.929 . S
H2013 C2022 0.929 . S
C2014 H2008 0.930 . S
C2014 C2015 1.367 . S
C2014 C2022 1.378 . S
C2015 C2014 1.367 . S
C2015 C2023 1.433 . S
C2016 H2012 0.929 . S
C2016 C2018 1.378 1_455 S
C2016 C2020 1.350 . S
C2017 C2020 1.463 . S
C2017 C2022 1.350 . S
C2017 N2025 1.427 . S
C2018 H2009 0.930 . S
C2018 C2016 1.378 1_655 S
C2018 C2019 1.367 . S
C2019 C2018 1.367 . S
C2019 C2021 1.433 . S
C2020 C2016 1.350 . S
C2020 C2017 1.463 . S
C2020 N2024 1.427 1_455 S
C2021 H2011 0.929 . S
C2021 C2019 1.433 . S
C2021 N2024 1.384 . S
C2022 H2013 0.929 . S
C2022 C2014 1.378 . S
C2022 C2017 1.350 . S
C2023 H2010 0.929 . S
C2023 C2015 1.433 . S
C2023 N2025 1.384 . S
N2024 C2020 1.427 1_655 S
N2024 C2021 1.384 . S
N2025 C2017 1.427 . S
N2025 C2023 1.384 . S
H2026 C2032 0.930 . S
H2027 C2036 0.930 . S
H2028 C2041 0.929 . S
H2029 C2039 0.929 . S
H2030 C2034 0.929 . S
H2031 C2040 0.929 . S
C2032 H2026 0.930 . S
C2032 C2033 1.367 . S
C2032 C2040 1.378 . S
C2033 C2032 1.367 . S
C2033 C2041 1.433 . S
C2034 H2030 0.929 . S
C2034 C2036 1.378 . S
C2034 C2038 1.350 . S
C2035 C2038 1.463 . S
C2035 C2040 1.350 . S
C2035 N2043 1.427 . S
C2036 H2027 0.930 . S
C2036 C2034 1.378 . S
C2036 C2037 1.367 . S
C2037 C2036 1.367 . S
C2037 C2039 1.433 . S
C2038 C2034 1.350 . S
C2038 C2035 1.463 . S
C2038 N2042 1.427 . S
C2039 H2029 0.929 . S
C2039 C2037 1.433 . S
C2039 N2042 1.384 . S
C2040 H2031 0.929 . S
C2040 C2032 1.378 . S
C2040 C2035 1.350 . S
C2041 H2028 0.929 . S
C2041 C2033 1.433 . S
C2041 N2043 1.384 . S
N2042 C2038 1.427 . S
N2042 C2039 1.384 . S
N2043 C2035 1.427 . S
N2043 C2041 1.384 . S
H2044 C2050 0.930 . S
H2045 C2054 0.930 . S
H2046 C2059 0.929 . S
H2047 C2057 0.929 . S
H2048 C2052 0.929 . S
H2049 C2058 0.929 . S
C2050 H2044 0.930 . S
C2050 C2051 1.367 . S
C2050 C2058 1.378 . S
C2051 C2050 1.367 . S
C2051 C2059 1.433 . S
C2052 H2048 0.929 . S
C2052 C2054 1.378 . S
C2052 C2056 1.350 . S
C2053 C2056 1.463 1_655 S
C2053 C2058 1.350 . S
C2053 N2061 1.427 . S
C2054 H2045 0.930 . S
C2054 C2052 1.378 . S
C2054 C2055 1.367 . S
C2055 C2054 1.367 . S
C2055 C2057 1.433 . S
C2056 C2052 1.350 . S
C2056 C2053 1.463 1_455 S
C2056 N2060 1.430 . S
C2057 H2047 0.929 . S
C2057 C2055 1.433 . S
C2057 N2060 1.403 . S
C2058 H2049 0.929 . S
C2058 C2050 1.378 . S
C2058 C2053 1.350 . S
C2059 H2046 0.929 . S
C2059 C2051 1.433 . S
C2059 N2061 1.384 . S
N2060 C2056 1.430 . S
N2060 C2057 1.403 . S
N2061 C2053 1.427 . S
N2061 C2059 1.384 . S
H2062 C2068 0.930 . S
H2063 C2072 0.930 . S
H2064 C2077 0.929 . S
H2065 C2075 0.929 . S
H2066 C2070 0.929 . S
H2067 C2076 0.929 . S
C2068 H2062 0.930 . S
C2068 C2069 1.367 . S
C2068 C2076 1.378 . S
C2069 C2068 1.367 . S
C2069 C2077 1.433 . S
C2070 H2066 0.929 . S
C2070 C2072 1.378 . S
C2070 C2074 1.350 . S
C2071 C2074 1.463 . S
C2071 C2076 1.350 . S
C2071 N2079 1.427 . S
C2072 H2063 0.930 . S
C2072 C2070 1.378 . S
C2072 C2073 1.367 . S
C2073 C2072 1.367 . S
C2073 C2075 1.433 . S
C2074 C2070 1.350 . S
C2074 C2071 1.463 . S
C2074 N2078 1.427 . S
C2075 H2065 0.929 . S
C2075 C2073 1.433 . S
C2075 N2078 1.384 . S
C2076 H2067 0.929 . S
C2076 C2068 1.378 . S
C2076 C2071 1.350 . S
C2077 H2064 0.929 . S
C2077 C2069 1.433 . S
C2077 N2079 1.384 . S
N2078 C2074 1.427 . S
N2078 C2075 1.384 . S
N2079 C2071 1.427 . S
N2079 C2077 1.384 . S
H2080 C2086 0.930 . S
H2081 C2090 0.930 . S
H2082 C2095 0.929 . S
H2083 C2093 0.929 . S
H2084 C2088 0.929 . S
H2085 C2094 0.929 . S
C2086 H2080 0.930 . S
C2086 C2087 1.367 . S
C2086 C2094 1.378 . S
C2087 C2086 1.367 . S
C2087 C2095 1.433 . S
C2088 H2084 0.929 . S
C2088 C2090 1.378 . S
C2088 C2092 1.350 . S
C2089 C2092 1.463 . S
C2089 C2094 1.350 . S
C2089 N2097 1.427 . S
C2090 H2081 0.930 . S
C2090 C2088 1.378 . S
C2090 C2091 1.367 . S
C2091 C2090 1.367 . S
C2091 C2093 1.433 . S
C2092 C2088 1.350 . S
C2092 C2089 1.463 . S
C2092 N2096 1.427 . S
C2093 H2083 0.929 . S
C2093 C2091 1.433 . S
C2093 N2096 1.384 . S
C2094 H2085 0.929 . S
C2094 C2086 1.378 . S
C2094 C2089 1.350 . S
C2095 H2082 0.929 . S
C2095 C2087 1.433 . S
C2095 N2097 1.384 . S
N2096 C2092 1.427 . S
N2096 C2093 1.384 . S
N2097 C2089 1.427 . S
N2097 C2095 1.384 . S
H2098 C2104 0.930 . S
H2099 C2108 0.930 . S
H2100 C2113 0.929 . S
H2101 C2111 0.929 . S
H2102 C2106 0.929 . S
H2103 C2112 0.929 . S
C2104 H2098 0.930 . S
C2104 C2105 1.367 . S
C2104 C2112 1.378 . S
C2105 C2104 1.367 . S
C2105 C2113 1.433 . S
C2106 H2102 0.929 . S
C2106 C2108 1.378 . S
C2106 C2110 1.350 1_556 S
C2107 C2110 1.463 . S
C2107 C2112 1.350 . S
C2107 N2115 1.427 . S
C2108 H2099 0.930 . S
C2108 C2106 1.378 . S
C2108 C2109 1.367 . S
C2109 C2108 1.367 . S
C2109 C2111 1.433 . S
C2110 C2106 1.350 1_554 S
C2110 C2107 1.463 . S
C2110 N2114 1.427 . S
C2111 H2101 0.929 . S
C2111 C2109 1.433 . S
C2111 N2114 1.384 1_556 S
C2112 H2103 0.929 . S
C2112 C2104 1.378 . S
C2112 C2107 1.350 . S
C2113 H2100 0.929 . S
C2113 C2105 1.433 . S
C2113 N2115 1.384 . S
N2114 C2110 1.427 . S
N2114 C2111 1.384 1_554 S
N2115 C2107 1.427 . S
N2115 C2113 1.384 . S
H2116 C2122 0.930 . S
H2117 C2126 0.930 . S
H2118 C2131 0.929 . S
H2119 C2129 0.929 . S
H2120 C2124 0.929 . S
H2121 C2130 0.929 . S
C2122 H2116 0.930 . S
C2122 C2123 1.367 . S
C2122 C2130 1.378 . S
C2123 C2122 1.367 . S
C2123 C2131 1.433 . S
C2124 H2120 0.929 . S
C2124 C2126 1.378 . S
C2124 C2128 1.350 . S
C2125 C2128 1.463 . S
C2125 C2130 1.350 . S
C2125 N2133 1.427 . S
C2126 H2117 0.930 . S
C2126 C2124 1.378 . S
C2126 C2127 1.367 . S
C2127 C2126 1.367 . S
C2127 C2129 1.433 . S
C2128 C2124 1.350 . S
C2128 C2125 1.463 . S
C2128 N2132 1.427 . S
C2129 H2119 0.929 . S
C2129 C2127 1.433 . S
C2129 N2132 1.384 . S
C2130 H2121 0.929 . S
C2130 C2122 1.378 . S
C2130 C2125 1.350 . S
C2131 H2118 0.929 . S
C2131 C2123 1.433 . S
C2131 N2133 1.384 . S
N2132 C2128 1.427 . S
N2132 C2129 1.384 . S
N2133 C2125 1.427 . S
N2133 C2131 1.384 . S
H2134 C2140 0.930 1_455 S
H2135 C2144 0.930 . S
H2136 C2149 0.929 . S
H2137 C2147 0.929 . S
H2138 C2142 0.929 . S
H2139 C2148 0.929 . S
C2140 H2134 0.930 1_655 S
C2140 C2141 1.367 . S
C2140 C2148 1.378 . S
C2141 C2140 1.367 . S
C2141 C2149 1.433 . S
C2142 H2138 0.929 . S
C2142 C2144 1.378 . S
C2142 C2146 1.350 . S
C2143 C2146 1.463 . S
C2143 C2148 1.350 . S
C2143 N2151 1.427 . S
C2144 H2135 0.930 . S
C2144 C2142 1.378 . S
C2144 C2145 1.367 . S
C2145 C2144 1.367 . S
C2145 C2147 1.433 . S
C2146 C2142 1.350 . S
C2146 C2143 1.463 . S
C2146 N2150 1.427 . S
C2147 H2137 0.929 . S
C2147 C2145 1.433 . S
C2147 N2150 1.384 . S
C2148 H2139 0.929 . S
C2148 C2140 1.378 . S
C2148 C2143 1.350 . S
C2149 H2136 0.929 . S
C2149 C2141 1.433 . S
C2149 N2151 1.384 . S
N2150 C2146 1.427 . S
N2150 C2147 1.384 . S
N2151 C2143 1.427 . S
N2151 C2149 1.384 . S
H2152 C2158 0.930 . S
H2153 C2162 0.930 . S
H2154 C2167 0.929 . S
H2155 C2165 0.929 . S
H2156 C2160 0.929 . S
H2157 C2166 0.929 . S
C2158 H2152 0.930 . S
C2158 C2159 1.367 . S
C2158 C2166 1.378 . S
C2159 C2158 1.367 . S
C2159 C2167 1.433 . S
C2160 H2156 0.929 . S
C2160 C2162 1.378 . S
C2160 C2164 1.350 . S
C2161 C2164 1.463 . S
C2161 C2166 1.350 . S
C2161 N2169 1.427 . S
C2162 H2153 0.930 . S
C2162 C2160 1.378 . S
C2162 C2163 1.367 . S
C2163 C2162 1.367 . S
C2163 C2165 1.433 . S
C2164 C2160 1.350 . S
C2164 C2161 1.463 . S
C2164 N2168 1.427 . S
C2165 H2155 0.929 . S
C2165 C2163 1.433 . S
C2165 N2168 1.384 . S
C2166 H2157 0.929 . S
C2166 C2158 1.378 . S
C2166 C2161 1.350 . S
C2167 H2154 0.929 . S
C2167 C2159 1.433 . S
C2167 N2169 1.384 . S
N2168 C2164 1.427 . S
N2168 C2165 1.384 . S
N2169 C2161 1.427 . S
N2169 C2167 1.384 . S
H2170 C2176 0.930 . S
H2171 C2180 0.930 . S
H2172 C2185 0.929 . S
H2173 C2183 0.929 . S
H2174 C2178 0.929 . S
H2175 C2184 0.929 . S
C2176 H2170 0.930 . S
C2176 C2177 1.367 . S
C2176 C2184 1.378 . S
C2177 C2176 1.367 . S
C2177 C2185 1.433 . S
C2178 H2174 0.929 . S
C2178 C2180 1.378 . S
C2178 C2182 1.350 . S
C2179 C2182 1.463 1_556 S
C2179 C2184 1.350 . S
C2179 N2187 1.427 . S
C2180 H2171 0.930 . S
C2180 C2178 1.378 . S
C2180 C2181 1.367 . S
C2181 C2180 1.367 . S
C2181 C2183 1.433 . S
C2182 C2178 1.350 . S
C2182 C2179 1.463 1_554 S
C2182 N2186 1.427 . S
C2183 H2173 0.929 . S
C2183 C2181 1.433 . S
C2183 N2186 1.384 . S
C2184 H2175 0.929 . S
C2184 C2176 1.378 . S
C2184 C2179 1.350 . S
C2185 H2172 0.929 . S
C2185 C2177 1.433 . S
C2185 N2187 1.384 . S
N2186 C2182 1.427 . S
N2186 C2183 1.384 . S
N2187 C2179 1.427 . S
N2187 C2185 1.384 . S
H2188 C2194 0.930 . S
H2189 C2198 0.930 . S
H2190 C2203 0.929 . S
H2191 C2201 0.929 . S
H2192 C2196 0.929 . S
H2193 C2202 0.929 . S
C2194 H2188 0.930 . S
C2194 C2195 1.367 . S
C2194 C2202 1.378 . S
C2195 C2194 1.367 . S
C2195 C2203 1.433 . S
C2196 H2192 0.929 . S
C2196 C2198 1.378 . S
C2196 C2200 1.350 . S
C2197 C2200 1.463 . S
C2197 C2202 1.350 . S
C2197 N2205 1.427 . S
C2198 H2189 0.930 . S
C2198 C2196 1.378 . S
C2198 C2199 1.367 . S
C2199 C2198 1.367 . S
C2199 C2201 1.433 . S
C2200 C2196 1.350 . S
C2200 C2197 1.463 . S
C2200 N2204 1.427 . S
C2201 H2191 0.929 . S
C2201 C2199 1.433 . S
C2201 N2204 1.384 . S
C2202 H2193 0.929 . S
C2202 C2194 1.378 . S
C2202 C2197 1.350 . S
C2203 H2190 0.929 . S
C2203 C2195 1.433 . S
C2203 N2205 1.384 . S
N2204 C2200 1.427 . S
N2204 C2201 1.384 . S
N2205 C2197 1.427 . S
N2205 C2203 1.384 . S
H2206 C2212 0.930 . S
H2207 C2216 0.930 . S
H2208 C2221 0.929 . S
H2209 C2219 0.929 . S
H2210 C2214 0.929 . S
H2211 C2220 0.929 . S
C2212 H2206 0.930 . S
C2212 C2213 1.367 . S
C2212 C2220 1.378 . S
C2213 C2212 1.367 . S
C2213 C2221 1.433 . S
C2214 H2210 0.929 . S
C2214 C2216 1.378 . S
C2214 C2218 1.350 . S
C2215 C2218 1.463 . S
C2215 C2220 1.350 . S
C2215 N2223 1.427 . S
C2216 H2207 0.930 . S
C2216 C2214 1.378 . S
C2216 C2217 1.367 . S
C2217 C2216 1.367 . S
C2217 C2219 1.433 . S
C2218 C2214 1.350 . S
C2218 C2215 1.463 . S
C2218 N2222 1.427 . S
C2219 H2209 0.929 . S
C2219 C2217 1.433 . S
C2219 N2222 1.384 . S
C2220 H2211 0.929 . S
C2220 C2212 1.378 . S
C2220 C2215 1.350 . S
C2221 H2208 0.929 . S
C2221 C2213 1.433 . S
C2221 N2223 1.384 . S
N2222 C2218 1.427 . S
N2222 C2219 1.384 . S
N2223 C2215 1.427 . S
N2223 C2221 1.384 . S
H2224 C2230 0.930 . S
H2225 C2234 0.930 . S
H2226 C2239 0.929 . S
H2227 C2237 0.929 . S
H2228 C2232 0.929 . S
H2229 C2238 0.929 . S
C2230 H2224 0.930 . S
C2230 C2231 1.367 . S
C2230 C2238 1.378 . S
C2231 C2230 1.367 . S
C2231 C2239 1.433 . S
C2232 H2228 0.929 . S
C2232 C2234 1.378 . S
C2232 C2236 1.350 . S
C2233 C2236 1.463 . S
C2233 C2238 1.350 . S
C2233 N2241 1.427 . S
C2234 H2225 0.930 . S
C2234 C2232 1.378 . S
C2234 C2235 1.367 . S
C2235 C2234 1.367 . S
C2235 C2237 1.433 . S
C2236 C2232 1.350 . S
C2236 C2233 1.463 . S
C2236 N2240 1.427 . S
C2237 H2227 0.929 . S
C2237 C2235 1.433 . S
C2237 N2240 1.384 . S
C2238 H2229 0.929 . S
C2238 C2230 1.378 . S
C2238 C2233 1.350 . S
C2239 H2226 0.929 . S
C2239 C2231 1.433 . S
C2239 N2241 1.384 . S
N2240 C2236 1.427 . S
N2240 C2237 1.384 . S
N2241 C2233 1.427 . S
N2241 C2239 1.384 . S
H2242 C2248 0.930 1_554 S
H2243 C2252 0.930 . S
H2244 C2257 0.929 . S
H2245 C2255 0.929 . S
H2246 C2250 0.929 . S
H2247 C2256 0.929 . S
C2248 H2242 0.930 1_556 S
C2248 C2249 1.367 . S
C2248 C2256 1.378 . S
C2249 C2248 1.367 . S
C2249 C2257 1.433 . S
C2250 H2246 0.929 . S
C2250 C2252 1.378 . S
C2250 C2254 1.350 . S
C2251 C2254 1.463 . S
C2251 C2256 1.350 . S
C2251 N2259 1.427 . S
C2252 H2243 0.930 . S
C2252 C2250 1.378 . S
C2252 C2253 1.367 . S
C2253 C2252 1.367 . S
C2253 C2255 1.433 . S
C2254 C2250 1.350 . S
C2254 C2251 1.463 . S
C2254 N2258 1.427 . S
C2255 H2245 0.929 . S
C2255 C2253 1.433 . S
C2255 N2258 1.384 . S
C2256 H2247 0.929 . S
C2256 C2248 1.378 . S
C2256 C2251 1.350 . S
C2257 H2244 0.929 . S
C2257 C2249 1.433 . S
C2257 N2259 1.384 . S
N2258 C2254 1.427 . S
N2258 C2255 1.384 . S
N2259 C2251 1.427 . S
N2259 C2257 1.384 . S
H2260 C2266 0.930 . S
H2261 C2270 0.930 . S
H2262 C2275 0.929 . S
H2263 C2273 0.929 . S
H2264 C2268 0.929 . S
H2265 C2274 0.929 . S
C2266 H2260 0.930 . S
C2266 C2267 1.367 . S
C2266 C2274 1.378 . S
C2267 C2266 1.367 . S
C2267 C2275 1.433 . S
C2268 H2264 0.929 . S
C2268 C2270 1.378 . S
C2268 C2272 1.350 . S
C2269 C2272 1.463 . S
C2269 C2274 1.350 . S
C2269 N2277 1.427 . S
C2270 H2261 0.930 . S
C2270 C2268 1.378 . S
C2270 C2271 1.367 . S
C2271 C2270 1.367 . S
C2271 C2273 1.433 . S
C2272 C2268 1.350 . S
C2272 C2269 1.463 . S
C2272 N2276 1.427 . S
C2273 H2263 0.929 . S
C2273 C2271 1.433 . S
C2273 N2276 1.384 . S
C2274 H2265 0.929 . S
C2274 C2266 1.378 . S
C2274 C2269 1.350 . S
C2275 H2262 0.929 . S
C2275 C2267 1.433 . S
C2275 N2277 1.384 . S
N2276 C2272 1.427 . S
N2276 C2273 1.384 . S
N2277 C2269 1.427 . S
N2277 C2275 1.384 . S
H2278 C2284 0.930 . S
H2279 C2288 0.930 . S
H2280 C2293 0.929 . S
H2281 C2291 0.929 . S
H2282 C2286 0.929 . S
H2283 C2292 0.929 . S
C2284 H2278 0.930 . S
C2284 C2285 1.367 . S
C2284 C2292 1.378 . S
C2285 C2284 1.367 . S
C2285 C2293 1.433 . S
C2286 H2282 0.929 . S
C2286 C2288 1.378 . S
C2286 C2290 1.350 . S
C2287 C2290 1.463 . S
C2287 C2292 1.350 . S
C2287 N2295 1.427 . S
C2288 H2279 0.930 . S
C2288 C2286 1.378 . S
C2288 C2289 1.367 . S
C2289 C2288 1.367 . S
C2289 C2291 1.433 . S
C2290 C2286 1.350 . S
C2290 C2287 1.463 . S
C2290 N2294 1.427 . S
C2291 H2281 0.929 . S
C2291 C2289 1.433 . S
C2291 N2294 1.384 . S
C2292 H2283 0.929 . S
C2292 C2284 1.378 . S
C2292 C2287 1.350 . S
C2293 H2280 0.929 . S
C2293 C2285 1.433 . S
C2293 N2295 1.384 . S
N2294 C2290 1.427 . S
N2294 C2291 1.384 . S
N2295 C2287 1.427 . S
N2295 C2293 1.384 . S
H2296 C2302 0.930 . S
H2297 C2306 0.930 . S
H2298 C2311 0.929 . S
H2299 C2309 0.929 . S
H2300 C2304 0.929 . S
H2301 C2310 0.929 . S
C2302 H2296 0.930 . S
C2302 C2303 1.367 . S
C2302 C2310 1.378 . S
C2303 C2302 1.367 . S
C2303 C2311 1.433 . S
C2304 H2300 0.929 . S
C2304 C2306 1.378 . S
C2304 C2308 1.350 . S
C2305 C2308 1.463 . S
C2305 C2310 1.350 . S
C2305 N2313 1.427 . S
C2306 H2297 0.930 . S
C2306 C2304 1.378 . S
C2306 C2307 1.367 . S
C2307 C2306 1.367 . S
C2307 C2309 1.433 . S
C2308 C2304 1.350 . S
C2308 C2305 1.463 . S
C2308 N2312 1.427 . S
C2309 H2299 0.929 . S
C2309 C2307 1.433 . S
C2309 N2312 1.384 . S
C2310 H2301 0.929 . S
C2310 C2302 1.378 . S
C2310 C2305 1.350 . S
C2311 H2298 0.929 . S
C2311 C2303 1.433 . S
C2311 N2313 1.384 . S
N2312 C2308 1.427 . S
N2312 C2309 1.384 . S
N2313 C2305 1.427 . S
N2313 C2311 1.384 . S
H2314 C2320 0.930 . S
H2315 C2324 0.930 . S
H2316 C2329 0.929 . S
H2317 C2327 0.929 . S
H2318 C2322 0.929 . S
H2319 C2328 0.929 . S
C2320 H2314 0.930 . S
C2320 C2321 1.367 . S
C2320 C2328 1.378 . S
C2321 C2320 1.367 . S
C2321 C2329 1.433 . S
C2322 H2318 0.929 . S
C2322 C2324 1.378 . S
C2322 C2326 1.350 . S
C2323 C2326 1.463 . S
C2323 C2328 1.350 . S
C2323 N2331 1.427 . S
C2324 H2315 0.930 . S
C2324 C2322 1.378 . S
C2324 C2325 1.367 . S
C2325 C2324 1.367 . S
C2325 C2327 1.433 . S
C2326 C2322 1.350 . S
C2326 C2323 1.463 . S
C2326 N2330 1.427 . S
C2327 H2317 0.929 . S
C2327 C2325 1.433 . S
C2327 N2330 1.384 . S
C2328 H2319 0.929 . S
C2328 C2320 1.378 . S
C2328 C2323 1.350 . S
C2329 H2316 0.929 . S
C2329 C2321 1.433 . S
C2329 N2331 1.384 . S
N2330 C2326 1.427 . S
N2330 C2327 1.384 . S
N2331 C2323 1.427 . S
N2331 C2329 1.384 . S
H2332 C2338 0.930 . S
H2333 C2342 0.930 . S
H2334 C2347 0.929 . S
H2335 C2345 0.929 . S
H2336 C2340 0.929 . S
H2337 C2346 0.929 . S
C2338 H2332 0.930 . S
C2338 C2339 1.367 . S
C2338 C2346 1.378 . S
C2339 C2338 1.367 . S
C2339 C2347 1.433 . S
C2340 H2336 0.929 . S
C2340 C2342 1.378 . S
C2340 C2344 1.350 . S
C2341 C2344 1.463 . S
C2341 C2346 1.350 . S
C2341 N2349 1.427 . S
C2342 H2333 0.930 . S
C2342 C2340 1.378 . S
C2342 C2343 1.367 . S
C2343 C2342 1.367 . S
C2343 C2345 1.433 . S
C2344 C2340 1.350 . S
C2344 C2341 1.463 . S
C2344 N2348 1.427 . S
C2345 H2335 0.929 . S
C2345 C2343 1.433 . S
C2345 N2348 1.384 . S
C2346 H2337 0.929 . S
C2346 C2338 1.378 . S
C2346 C2341 1.350 . S
C2347 H2334 0.929 . S
C2347 C2339 1.433 . S
C2347 N2349 1.384 . S
N2348 C2344 1.427 . S
N2348 C2345 1.384 . S
N2349 C2341 1.427 . S
N2349 C2347 1.384 . S
H2350 C2356 0.930 . S
H2351 C2360 0.930 . S
H2352 C2365 0.929 . S
H2353 C2363 0.929 . S
H2354 C2358 0.929 . S
H2355 C2364 0.929 . S
C2356 H2350 0.930 . S
C2356 C2357 1.367 . S
C2356 C2364 1.378 . S
C2357 C2356 1.367 . S
C2357 C2365 1.433 . S
C2358 H2354 0.929 . S
C2358 C2360 1.378 . S
C2358 C2362 1.350 . S
C2359 C2362 1.463 . S
C2359 C2364 1.350 . S
C2359 N2367 1.427 . S
C2360 H2351 0.930 . S
C2360 C2358 1.378 . S
C2360 C2361 1.367 . S
C2361 C2360 1.367 . S
C2361 C2363 1.433 . S
C2362 C2358 1.350 . S
C2362 C2359 1.463 . S
C2362 N2366 1.427 . S
C2363 H2353 0.929 . S
C2363 C2361 1.433 . S
C2363 N2366 1.384 . S
C2364 H2355 0.929 . S
C2364 C2356 1.378 . S
C2364 C2359 1.350 . S
C2365 H2352 0.929 . S
C2365 C2357 1.433 . S
C2365 N2367 1.384 . S
N2366 C2362 1.427 . S
N2366 C2363 1.384 . S
N2367 C2359 1.427 . S
N2367 C2365 1.384 . S
H2368 C2374 0.930 . S
H2369 C2378 0.930 . S
H2370 C2383 0.929 . S
H2371 C2381 0.929 . S
H2372 C2376 0.929 . S
H2373 C2382 0.929 . S
C2374 H2368 0.930 . S
C2374 C2375 1.367 . S
C2374 C2382 1.378 . S
C2375 C2374 1.367 . S
C2375 C2383 1.433 . S
C2376 H2372 0.929 . S
C2376 C2378 1.378 . S
C2376 C2380 1.350 . S
C2377 C2380 1.463 . S
C2377 C2382 1.350 . S
C2377 N2385 1.427 . S
C2378 H2369 0.930 . S
C2378 C2376 1.378 . S
C2378 C2379 1.367 . S
C2379 C2378 1.367 . S
C2379 C2381 1.433 . S
C2380 C2376 1.350 . S
C2380 C2377 1.463 . S
C2380 N2384 1.427 . S
C2381 H2371 0.929 . S
C2381 C2379 1.433 . S
C2381 N2384 1.384 . S
C2382 H2373 0.929 . S
C2382 C2374 1.378 . S
C2382 C2377 1.350 . S
C2383 H2370 0.929 . S
C2383 C2375 1.433 . S
C2383 N2385 1.384 . S
N2384 C2380 1.427 . S
N2384 C2381 1.384 . S
N2385 C2377 1.427 . S
N2385 C2383 1.384 . S
H2386 C2392 0.930 . S
H2387 C2396 0.930 . S
H2388 C2401 0.929 . S
H2389 C2399 0.929 . S
H2390 C2394 0.929 . S
H2391 C2400 0.929 . S
C2392 H2386 0.930 . S
C2392 C2393 1.367 . S
C2392 C2400 1.378 . S
C2393 C2392 1.367 . S
C2393 C2401 1.433 . S
C2394 H2390 0.929 . S
C2394 C2396 1.378 . S
C2394 C2398 1.350 . S
C2395 C2398 1.463 . S
C2395 C2400 1.350 . S
C2395 N2403 1.427 . S
C2396 H2387 0.930 . S
C2396 C2394 1.378 . S
C2396 C2397 1.367 . S
C2397 C2396 1.367 . S
C2397 C2399 1.433 . S
C2398 C2394 1.350 . S
C2398 C2395 1.463 . S
C2398 N2402 1.427 . S
C2399 H2389 0.929 . S
C2399 C2397 1.433 . S
C2399 N2402 1.384 . S
C2400 H2391 0.929 . S
C2400 C2392 1.378 . S
C2400 C2395 1.350 . S
C2401 H2388 0.929 . S
C2401 C2393 1.433 . S
C2401 N2403 1.384 . S
N2402 C2398 1.427 . S
N2402 C2399 1.384 . S
N2403 C2395 1.427 . S
N2403 C2401 1.384 . S
H2404 C2410 0.930 . S
H2405 C2414 0.930 . S
H2406 C2419 0.929 . S
H2407 C2417 0.929 . S
H2408 C2412 0.929 . S
H2409 C2418 0.929 . S
C2410 H2404 0.930 . S
C2410 C2411 1.367 . S
C2410 C2418 1.378 . S
C2411 C2410 1.367 . S
C2411 C2419 1.433 . S
C2412 H2408 0.929 . S
C2412 C2414 1.378 . S
C2412 C2416 1.350 . S
C2413 C2416 1.463 . S
C2413 C2418 1.350 . S
C2413 N2421 1.427 . S
C2414 H2405 0.930 . S
C2414 C2412 1.378 . S
C2414 C2415 1.367 . S
C2415 C2414 1.367 . S
C2415 C2417 1.433 . S
C2416 C2412 1.350 . S
C2416 C2413 1.463 . S
C2416 N2420 1.427 . S
C2417 H2407 0.929 . S
C2417 C2415 1.433 . S
C2417 N2420 1.384 . S
C2418 H2409 0.929 . S
C2418 C2410 1.378 . S
C2418 C2413 1.350 . S
C2419 H2406 0.929 . S
C2419 C2411 1.433 . S
C2419 N2421 1.384 . S
N2420 C2416 1.427 . S
N2420 C2417 1.384 . S
N2421 C2413 1.427 . S
N2421 C2419 1.384 . S
H2422 C2428 0.930 . S
H2423 C2432 0.930 . S
H2424 C2437 0.929 . S
H2425 C2435 0.929 . S
H2426 C2430 0.929 . S
H2427 C2436 0.929 . S
C2428 H2422 0.930 . S
C2428 C2429 1.367 . S
C2428 C2436 1.378 . S
C2429 C2428 1.367 . S
C2429 C2437 1.433 . S
C2430 H2426 0.929 . S
C2430 C2432 1.378 . S
C2430 C2434 1.350 . S
C2431 C2434 1.463 . S
C2431 C2436 1.350 . S
C2431 N2439 1.427 . S
C2432 H2423 0.930 . S
C2432 C2430 1.378 . S
C2432 C2433 1.367 . S
C2433 C2432 1.367 . S
C2433 C2435 1.433 . S
C2434 C2430 1.350 . S
C2434 C2431 1.463 . S
C2434 N2438 1.427 . S
C2435 H2425 0.929 . S
C2435 C2433 1.433 . S
C2435 N2438 1.384 . S
C2436 H2427 0.929 . S
C2436 C2428 1.378 . S
C2436 C2431 1.350 . S
C2437 H2424 0.929 . S
C2437 C2429 1.433 . S
C2437 N2439 1.384 . S
N2438 C2434 1.427 . S
N2438 C2435 1.384 . S
N2439 C2431 1.427 . S
N2439 C2437 1.384 . S
H2440 C2446 0.930 . S
H2441 C2450 0.930 . S
H2442 C2455 0.929 . S
H2443 C2453 0.929 . S
H2444 C2448 0.929 . S
H2445 C2454 0.929 . S
C2446 H2440 0.930 . S
C2446 C2447 1.367 . S
C2446 C2454 1.378 . S
C2447 C2446 1.367 . S
C2447 C2455 1.433 . S
C2448 H2444 0.929 . S
C2448 C2450 1.378 . S
C2448 C2452 1.350 . S
C2449 C2452 1.463 . S
C2449 C2454 1.350 . S
C2449 N2457 1.427 . S
C2450 H2441 0.930 . S
C2450 C2448 1.378 . S
C2450 C2451 1.367 . S
C2451 C2450 1.367 . S
C2451 C2453 1.433 . S
C2452 C2448 1.350 . S
C2452 C2449 1.463 . S
C2452 N2456 1.427 . S
C2453 H2443 0.929 . S
C2453 C2451 1.433 . S
C2453 N2456 1.384 . S
C2454 H2445 0.929 . S
C2454 C2446 1.378 . S
C2454 C2449 1.350 . S
C2455 H2442 0.929 . S
C2455 C2447 1.433 . S
C2455 N2457 1.384 . S
N2456 C2452 1.427 . S
N2456 C2453 1.384 . S
N2457 C2449 1.427 . S
N2457 C2455 1.384 . S
H2458 C2464 0.930 . S
H2459 C2468 0.930 . S
H2460 C2473 0.929 . S
H2461 C2471 0.929 . S
H2462 C2466 0.929 . S
H2463 C2472 0.929 . S
C2464 H2458 0.930 . S
C2464 C2465 1.367 . S
C2464 C2472 1.378 . S
C2465 C2464 1.367 . S
C2465 C2473 1.433 . S
C2466 H2462 0.929 . S
C2466 C2468 1.378 . S
C2466 C2470 1.350 . S
C2467 C2470 1.463 . S
C2467 C2472 1.350 . S
C2467 N2475 1.427 . S
C2468 H2459 0.930 . S
C2468 C2466 1.378 . S
C2468 C2469 1.367 . S
C2469 C2468 1.367 . S
C2469 C2471 1.433 . S
C2470 C2466 1.350 . S
C2470 C2467 1.463 . S
C2470 N2474 1.427 . S
C2471 H2461 0.929 . S
C2471 C2469 1.433 . S
C2471 N2474 1.384 . S
C2472 H2463 0.929 . S
C2472 C2464 1.378 . S
C2472 C2467 1.350 . S
C2473 H2460 0.929 . S
C2473 C2465 1.433 . S
C2473 N2475 1.384 . S
N2474 C2470 1.427 . S
N2474 C2471 1.384 . S
N2475 C2467 1.427 . S
N2475 C2473 1.384 . S
H2476 C2482 0.930 . S
H2477 C2486 0.930 . S
H2478 C2491 0.929 . S
H2479 C2489 0.929 . S
H2480 C2484 0.929 . S
H2481 C2490 0.929 . S
C2482 H2476 0.930 . S
C2482 C2483 1.367 . S
C2482 C2490 1.378 . S
C2483 C2482 1.367 . S
C2483 C2491 1.433 . S
C2484 H2480 0.929 . S
C2484 C2486 1.378 . S
C2484 C2488 1.350 . S
C2485 C2488 1.463 . S
C2485 C2490 1.350 . S
C2485 N2493 1.427 . S
C2486 H2477 0.930 . S
C2486 C2484 1.378 . S
C2486 C2487 1.367 . S
C2487 C2486 1.367 . S
C2487 C2489 1.433 . S
C2488 C2484 1.350 . S
C2488 C2485 1.463 . S
C2488 N2492 1.427 . S
C2489 H2479 0.929 . S
C2489 C2487 1.433 . S
C2489 N2492 1.384 . S
C2490 H2481 0.929 . S
C2490 C2482 1.378 . S
C2490 C2485 1.350 . S
C2491 H2478 0.929 . S
C2491 C2483 1.433 . S
C2491 N2493 1.384 . S
N2492 C2488 1.427 . S
N2492 C2489 1.384 . S
N2493 C2485 1.427 . S
N2493 C2491 1.384 . S
H2494 C2500 0.930 . S
H2495 C2504 0.930 . S
H2496 C2509 0.929 . S
H2497 C2507 0.929 . S
H2498 C2502 0.929 1_655 S
H2499 C2508 0.929 . S
C2500 H2494 0.930 . S
C2500 C2501 1.367 . S
C2500 C2508 1.378 . S
C2501 C2500 1.367 . S
C2501 C2509 1.433 . S
C2502 H2498 0.929 1_455 S
C2502 C2504 1.378 . S
C2502 C2506 1.350 . S
C2503 C2506 1.463 1_655 S
C2503 C2508 1.350 . S
C2503 N2511 1.427 . S
C2504 H2495 0.930 . S
C2504 C2502 1.378 . S
C2504 C2505 1.367 . S
C2505 C2504 1.367 . S
C2505 C2507 1.433 . S
C2506 C2502 1.350 . S
C2506 C2503 1.463 1_455 S
C2506 N2510 1.427 . S
C2507 H2497 0.929 . S
C2507 C2505 1.433 . S
C2507 N2510 1.384 . S
C2508 H2499 0.929 . S
C2508 C2500 1.378 . S
C2508 C2503 1.350 . S
C2509 H2496 0.929 . S
C2509 C2501 1.433 . S
C2509 N2511 1.384 . S
N2510 C2506 1.427 . S
N2510 C2507 1.384 . S
N2511 C2503 1.427 . S
N2511 C2509 1.384 . S
H2512 C2518 0.930 . S
H2513 C2522 0.930 . S
H2514 C2527 0.929 . S
H2515 C2525 0.929 . S
H2516 C2520 0.929 . S
H2517 C2526 0.929 . S
C2518 H2512 0.930 . S
C2518 C2519 1.367 . S
C2518 C2526 1.378 . S
C2519 C2518 1.367 . S
C2519 C2527 1.433 . S
C2520 H2516 0.929 . S
C2520 C2522 1.378 . S
C2520 C2524 1.350 . S
C2521 C2524 1.463 . S
C2521 C2526 1.350 . S
C2521 N2529 1.427 . S
C2522 H2513 0.930 . S
C2522 C2520 1.378 . S
C2522 C2523 1.367 . S
C2523 C2522 1.367 . S
C2523 C2525 1.433 . S
C2524 C2520 1.350 . S
C2524 C2521 1.463 . S
C2524 N2528 1.427 . S
C2525 H2515 0.929 . S
C2525 C2523 1.433 . S
C2525 N2528 1.384 . S
C2526 H2517 0.929 . S
C2526 C2518 1.378 . S
C2526 C2521 1.350 . S
C2527 H2514 0.929 . S
C2527 C2519 1.433 . S
C2527 N2529 1.384 . S
N2528 C2524 1.427 . S
N2528 C2525 1.384 . S
N2529 C2521 1.427 . S
N2529 C2527 1.384 . S
H2530 C2536 0.930 . S
H2531 C2540 0.930 . S
H2532 C2545 0.929 . S
H2533 C2543 0.929 . S
H2534 C2538 0.929 1_556 S
H2535 C2544 0.929 . S
C2536 H2530 0.930 . S
C2536 C2537 1.367 . S
C2536 C2544 1.378 . S
C2537 C2536 1.367 . S
C2537 C2545 1.433 . S
C2538 H2534 0.929 1_554 S
C2538 C2540 1.378 . S
C2538 C2542 1.350 . S
C2539 C2542 1.463 1_556 S
C2539 C2544 1.350 . S
C2539 N2547 1.427 . S
C2540 H2531 0.930 . S
C2540 C2538 1.378 . S
C2540 C2541 1.367 . S
C2541 C2540 1.367 . S
C2541 C2543 1.433 . S
C2542 C2538 1.350 . S
C2542 C2539 1.463 1_554 S
C2542 N2546 1.427 . S
C2543 H2533 0.929 . S
C2543 C2541 1.433 . S
C2543 N2546 1.384 . S
C2544 H2535 0.929 . S
C2544 C2536 1.378 . S
C2544 C2539 1.350 . S
C2545 H2532 0.929 . S
C2545 C2537 1.433 . S
C2545 N2547 1.384 . S
N2546 C2542 1.427 . S
N2546 C2543 1.384 . S
N2547 C2539 1.427 . S
N2547 C2545 1.384 . S
H2548 C2554 0.930 . S
H2549 C2558 0.930 . S
H2550 C2563 0.929 . S
H2551 C2561 0.929 . S
H2552 C2556 0.929 . S
H2553 C2562 0.929 . S
C2554 H2548 0.930 . S
C2554 C2555 1.367 . S
C2554 C2562 1.378 . S
C2555 C2554 1.367 . S
C2555 C2563 1.433 . S
C2556 H2552 0.929 . S
C2556 C2558 1.378 . S
C2556 C2560 1.350 . S
C2557 C2560 1.463 . S
C2557 C2562 1.350 . S
C2557 N2565 1.427 . S
C2558 H2549 0.930 . S
C2558 C2556 1.378 . S
C2558 C2559 1.367 . S
C2559 C2558 1.367 . S
C2559 C2561 1.433 . S
C2560 C2556 1.350 . S
C2560 C2557 1.463 . S
C2560 N2564 1.427 . S
C2561 H2551 0.929 . S
C2561 C2559 1.433 . S
C2561 N2564 1.384 . S
C2562 H2553 0.929 . S
C2562 C2554 1.378 . S
C2562 C2557 1.350 . S
C2563 H2550 0.929 . S
C2563 C2555 1.433 . S
C2563 N2565 1.384 . S
N2564 C2560 1.427 . S
N2564 C2561 1.384 . S
N2565 C2557 1.427 . S
N2565 C2563 1.384 . S
H2566 C2572 0.930 . S
H2567 C2576 0.930 . S
H2568 C2581 0.929 . S
H2569 C2579 0.929 . S
H2570 C2574 0.929 . S
H2571 C2580 0.929 . S
C2572 H2566 0.930 . S
C2572 C2573 1.367 . S
C2572 C2580 1.378 . S
C2573 C2572 1.367 . S
C2573 C2581 1.433 . S
C2574 H2570 0.929 . S
C2574 C2576 1.378 . S
C2574 C2578 1.350 . S
C2575 C2578 1.463 . S
C2575 C2580 1.350 . S
C2575 N2583 1.427 . S
C2576 H2567 0.930 . S
C2576 C2574 1.378 . S
C2576 C2577 1.367 . S
C2577 C2576 1.367 . S
C2577 C2579 1.433 . S
C2578 C2574 1.350 . S
C2578 C2575 1.463 . S
C2578 N2582 1.427 . S
C2579 H2569 0.929 . S
C2579 C2577 1.433 . S
C2579 N2582 1.384 . S
C2580 H2571 0.929 . S
C2580 C2572 1.378 . S
C2580 C2575 1.350 . S
C2581 H2568 0.929 . S
C2581 C2573 1.433 . S
C2581 N2583 1.384 . S
N2582 C2578 1.427 . S
N2582 C2579 1.384 . S
N2583 C2575 1.427 . S
N2583 C2581 1.384 . S
H2584 C2590 0.930 . S
H2585 C2594 0.930 . S
H2586 C2599 0.929 . S
H2587 C2597 0.929 . S
H2588 C2592 0.929 . S
H2589 C2598 0.929 . S
C2590 H2584 0.930 . S
C2590 C2591 1.367 . S
C2590 C2598 1.378 . S
C2591 C2590 1.367 . S
C2591 C2599 1.433 . S
C2592 H2588 0.929 . S
C2592 C2594 1.378 . S
C2592 C2596 1.350 . S
C2593 C2596 1.463 . S
C2593 C2598 1.350 . S
C2593 N2601 1.427 . S
C2594 H2585 0.930 . S
C2594 C2592 1.378 . S
C2594 C2595 1.367 . S
C2595 C2594 1.367 . S
C2595 C2597 1.433 . S
C2596 C2592 1.350 . S
C2596 C2593 1.463 . S
C2596 N2600 1.427 . S
C2597 H2587 0.929 . S
C2597 C2595 1.433 . S
C2597 N2600 1.384 . S
C2598 H2589 0.929 . S
C2598 C2590 1.378 . S
C2598 C2593 1.350 . S
C2599 H2586 0.929 . S
C2599 C2591 1.433 . S
C2599 N2601 1.384 . S
N2600 C2596 1.427 . S
N2600 C2597 1.384 . S
N2601 C2593 1.427 . S
N2601 C2599 1.384 . S
H2602 C2608 0.930 . S
H2603 C2612 0.930 . S
H2604 C2617 0.929 . S
H2605 C2615 0.929 . S
H2606 C2610 0.929 . S
H2607 C2616 0.929 . S
C2608 H2602 0.930 . S
C2608 C2609 1.367 . S
C2608 C2616 1.378 . S
C2609 C2608 1.367 . S
C2609 C2617 1.433 . S
C2610 H2606 0.929 . S
C2610 C2612 1.378 1_554 S
C2610 C2614 1.350 . S
C2611 C2614 1.463 . S
C2611 C2616 1.350 . S
C2611 N2619 1.427 . S
C2612 H2603 0.930 . S
C2612 C2610 1.378 1_556 S
C2612 C2613 1.367 . S
C2613 C2612 1.367 . S
C2613 C2615 1.433 . S
C2614 C2610 1.350 . S
C2614 C2611 1.463 . S
C2614 N2618 1.427 1_554 S
C2615 H2605 0.929 . S
C2615 C2613 1.433 . S
C2615 N2618 1.384 . S
C2616 H2607 0.929 . S
C2616 C2608 1.378 . S
C2616 C2611 1.350 . S
C2617 H2604 0.929 . S
C2617 C2609 1.433 . S
C2617 N2619 1.384 . S
N2618 C2614 1.427 1_556 S
N2618 C2615 1.384 . S
N2619 C2611 1.427 . S
N2619 C2617 1.384 . S
H2620 C2626 0.930 . S
H2621 C2630 0.930 . S
H2622 C2635 0.929 . S
H2623 C2633 0.929 . S
H2624 C2628 0.929 . S
H2625 C2634 0.929 . S
C2626 H2620 0.930 . S
C2626 C2627 1.367 . S
C2626 C2634 1.378 . S
C2627 C2626 1.367 . S
C2627 C2635 1.433 . S
C2628 H2624 0.929 . S
C2628 C2630 1.378 . S
C2628 C2632 1.350 . S
C2629 C2632 1.463 . S
C2629 C2634 1.350 . S
C2629 N2637 1.427 . S
C2630 H2621 0.930 . S
C2630 C2628 1.378 . S
C2630 C2631 1.367 . S
C2631 C2630 1.367 . S
C2631 C2633 1.433 . S
C2632 C2628 1.350 . S
C2632 C2629 1.463 . S
C2632 N2636 1.427 . S
C2633 H2623 0.929 . S
C2633 C2631 1.433 . S
C2633 N2636 1.384 . S
C2634 H2625 0.929 . S
C2634 C2626 1.378 . S
C2634 C2629 1.350 . S
C2635 H2622 0.929 . S
C2635 C2627 1.433 . S
C2635 N2637 1.384 . S
N2636 C2632 1.427 . S
N2636 C2633 1.384 . S
N2637 C2629 1.427 . S
N2637 C2635 1.384 . S
H2638 C2644 0.930 . S
H2639 C2648 0.930 . S
H2640 C2653 0.929 . S
H2641 C2651 0.929 . S
H2642 C2646 0.929 . S
H2643 C2652 0.929 . S
C2644 H2638 0.930 . S
C2644 C2645 1.367 . S
C2644 C2652 1.378 . S
C2645 C2644 1.367 . S
C2645 C2653 1.433 . S
C2646 H2642 0.929 . S
C2646 C2648 1.378 . S
C2646 C2650 1.350 . S
C2647 C2650 1.463 . S
C2647 C2652 1.350 . S
C2647 N2655 1.427 . S
C2648 H2639 0.930 . S
C2648 C2646 1.378 . S
C2648 C2649 1.367 . S
C2649 C2648 1.367 . S
C2649 C2651 1.433 . S
C2650 C2646 1.350 . S
C2650 C2647 1.463 . S
C2650 N2654 1.427 . S
C2651 H2641 0.929 . S
C2651 C2649 1.433 . S
C2651 N2654 1.384 . S
C2652 H2643 0.929 . S
C2652 C2644 1.378 . S
C2652 C2647 1.350 . S
C2653 H2640 0.929 . S
C2653 C2645 1.433 . S
C2653 N2655 1.384 . S
N2654 C2650 1.427 . S
N2654 C2651 1.384 . S
N2655 C2647 1.427 . S
N2655 C2653 1.384 . S
H2656 C2662 0.930 . S
H2657 C2666 0.930 . S
H2658 C2671 0.929 . S
H2659 C2669 0.929 . S
H2660 C2664 0.929 . S
H2661 C2670 0.929 . S
C2662 H2656 0.930 . S
C2662 C2663 1.367 . S
C2662 C2670 1.378 . S
C2663 C2662 1.367 . S
C2663 C2671 1.433 . S
C2664 H2660 0.929 . S
C2664 C2666 1.378 . S
C2664 C2668 1.350 . S
C2665 C2668 1.463 . S
C2665 C2670 1.350 . S
C2665 N2673 1.427 . S
C2666 H2657 0.930 . S
C2666 C2664 1.378 . S
C2666 C2667 1.367 . S
C2667 C2666 1.367 . S
C2667 C2669 1.433 . S
C2668 C2664 1.350 . S
C2668 C2665 1.463 . S
C2668 N2672 1.427 . S
C2669 H2659 0.929 . S
C2669 C2667 1.433 . S
C2669 N2672 1.384 . S
C2670 H2661 0.929 . S
C2670 C2662 1.378 . S
C2670 C2665 1.350 . S
C2671 H2658 0.929 . S
C2671 C2663 1.433 . S
C2671 N2673 1.384 . S
N2672 C2668 1.427 . S
N2672 C2669 1.384 . S
N2673 C2665 1.427 . S
N2673 C2671 1.384 . S
H2674 C2680 0.930 . S
H2675 C2684 0.930 . S
H2676 C2689 0.929 . S
H2677 C2687 0.929 . S
H2678 C2682 0.929 . S
H2679 C2688 0.929 . S
C2680 H2674 0.930 . S
C2680 C2681 1.367 . S
C2680 C2688 1.378 . S
C2681 C2680 1.367 . S
C2681 C2689 1.433 . S
C2682 H2678 0.929 . S
C2682 C2684 1.378 . S
C2682 C2686 1.350 . S
C2683 C2686 1.463 . S
C2683 C2688 1.350 . S
C2683 N2691 1.427 . S
C2684 H2675 0.930 . S
C2684 C2682 1.378 . S
C2684 C2685 1.367 . S
C2685 C2684 1.367 . S
C2685 C2687 1.433 . S
C2686 C2682 1.350 . S
C2686 C2683 1.463 . S
C2686 N2690 1.427 . S
C2687 H2677 0.929 . S
C2687 C2685 1.433 . S
C2687 N2690 1.384 . S
C2688 H2679 0.929 . S
C2688 C2680 1.378 . S
C2688 C2683 1.350 . S
C2689 H2676 0.929 . S
C2689 C2681 1.433 . S
C2689 N2691 1.384 . S
N2690 C2686 1.427 . S
N2690 C2687 1.384 . S
N2691 C2683 1.427 . S
N2691 C2689 1.384 . S
H2692 C2698 0.930 . S
H2693 C2702 0.930 . S
H2694 C2707 0.929 . S
H2695 C2705 0.929 . S
H2696 C2700 0.929 . S
H2697 C2706 0.929 . S
C2698 H2692 0.930 . S
C2698 C2699 1.367 . S
C2698 C2706 1.378 . S
C2699 C2698 1.367 . S
C2699 C2707 1.433 . S
C2700 H2696 0.929 . S
C2700 C2702 1.378 . S
C2700 C2704 1.350 . S
C2701 C2704 1.463 . S
C2701 C2706 1.350 . S
C2701 N2709 1.427 . S
C2702 H2693 0.930 . S
C2702 C2700 1.378 . S
C2702 C2703 1.367 . S
C2703 C2702 1.367 . S
C2703 C2705 1.433 . S
C2704 C2700 1.350 . S
C2704 C2701 1.463 . S
C2704 N2708 1.427 . S
C2705 H2695 0.929 . S
C2705 C2703 1.433 . S
C2705 N2708 1.384 . S
C2706 H2697 0.929 . S
C2706 C2698 1.378 . S
C2706 C2701 1.350 . S
C2707 H2694 0.929 . S
C2707 C2699 1.433 . S
C2707 N2709 1.384 . S
N2708 C2704 1.427 . S
N2708 C2705 1.384 . S
N2709 C2701 1.427 . S
N2709 C2707 1.384 . S
H2710 C2716 0.930 . S
H2711 C2720 0.930 . S
H2712 C2725 0.929 . S
H2713 C2723 0.929 . S
H2714 C2718 0.929 . S
H2715 C2724 0.929 . S
C2716 H2710 0.930 . S
C2716 C2717 1.367 . S
C2716 C2724 1.378 . S
C2717 C2716 1.367 . S
C2717 C2725 1.433 . S
C2718 H2714 0.929 . S
C2718 C2720 1.378 . S
C2718 C2722 1.350 . S
C2719 C2722 1.463 . S
C2719 C2724 1.350 . S
C2719 N2727 1.427 . S
C2720 H2711 0.930 . S
C2720 C2718 1.378 . S
C2720 C2721 1.367 . S
C2721 C2720 1.367 . S
C2721 C2723 1.433 . S
C2722 C2718 1.350 . S
C2722 C2719 1.463 . S
C2722 N2726 1.427 . S
C2723 H2713 0.929 . S
C2723 C2721 1.433 . S
C2723 N2726 1.384 . S
C2724 H2715 0.929 . S
C2724 C2716 1.378 . S
C2724 C2719 1.350 . S
C2725 H2712 0.929 . S
C2725 C2717 1.433 . S
C2725 N2727 1.384 . S
N2726 C2722 1.427 . S
N2726 C2723 1.384 . S
N2727 C2719 1.427 . S
N2727 C2725 1.384 . S
H2728 C2734 0.930 . S
H2729 C2738 0.930 . S
H2730 C2743 0.929 . S
H2731 C2741 0.929 . S
H2732 C2736 0.929 . S
H2733 C2742 0.929 . S
C2734 H2728 0.930 . S
C2734 C2735 1.367 . S
C2734 C2742 1.378 . S
C2735 C2734 1.367 . S
C2735 C2743 1.433 . S
C2736 H2732 0.929 . S
C2736 C2738 1.378 . S
C2736 C2740 1.350 . S
C2737 C2740 1.463 . S
C2737 C2742 1.350 . S
C2737 N2745 1.427 . S
C2738 H2729 0.930 . S
C2738 C2736 1.378 . S
C2738 C2739 1.367 . S
C2739 C2738 1.367 . S
C2739 C2741 1.433 . S
C2740 C2736 1.350 . S
C2740 C2737 1.463 . S
C2740 N2744 1.427 . S
C2741 H2731 0.929 . S
C2741 C2739 1.433 . S
C2741 N2744 1.384 . S
C2742 H2733 0.929 . S
C2742 C2734 1.378 . S
C2742 C2737 1.350 . S
C2743 H2730 0.929 . S
C2743 C2735 1.433 . S
C2743 N2745 1.384 . S
N2744 C2740 1.427 . S
N2744 C2741 1.384 . S
N2745 C2737 1.427 . S
N2745 C2743 1.384 . S
H2746 C2752 0.930 . S
H2747 C2756 0.930 . S
H2748 C2761 0.929 . S
H2749 C2759 0.929 . S
H2750 C2754 0.929 . S
H2751 C2760 0.929 . S
C2752 H2746 0.930 . S
C2752 C2753 1.367 . S
C2752 C2760 1.378 . S
C2753 C2752 1.367 . S
C2753 C2761 1.433 . S
C2754 H2750 0.929 . S
C2754 C2756 1.378 . S
C2754 C2758 1.350 . S
C2755 C2758 1.463 . S
C2755 C2760 1.350 . S
C2755 N2763 1.427 . S
C2756 H2747 0.930 . S
C2756 C2754 1.378 . S
C2756 C2757 1.367 . S
C2757 C2756 1.367 . S
C2757 C2759 1.433 . S
C2758 C2754 1.350 . S
C2758 C2755 1.463 . S
C2758 N2762 1.427 . S
C2759 H2749 0.929 . S
C2759 C2757 1.433 . S
C2759 N2762 1.384 . S
C2760 H2751 0.929 . S
C2760 C2752 1.378 . S
C2760 C2755 1.350 . S
C2761 H2748 0.929 . S
C2761 C2753 1.433 . S
C2761 N2763 1.384 . S
N2762 C2758 1.427 . S
N2762 C2759 1.384 . S
N2763 C2755 1.427 . S
N2763 C2761 1.384 . S
H2764 C2770 0.930 . S
H2765 C2774 0.930 . S
H2766 C2779 0.929 . S
H2767 C2777 0.929 . S
H2768 C2772 0.929 . S
H2769 C2778 0.929 . S
C2770 H2764 0.930 . S
C2770 C2771 1.367 . S
C2770 C2778 1.378 . S
C2771 C2770 1.367 . S
C2771 C2779 1.433 . S
C2772 H2768 0.929 . S
C2772 C2774 1.378 . S
C2772 C2776 1.350 . S
C2773 C2776 1.463 . S
C2773 C2778 1.350 . S
C2773 N2781 1.427 . S
C2774 H2765 0.930 . S
C2774 C2772 1.378 . S
C2774 C2775 1.367 . S
C2775 C2774 1.367 . S
C2775 C2777 1.433 . S
C2776 C2772 1.350 . S
C2776 C2773 1.463 . S
C2776 N2780 1.427 . S
C2777 H2767 0.929 . S
C2777 C2775 1.433 . S
C2777 N2780 1.384 . S
C2778 H2769 0.929 . S
C2778 C2770 1.378 . S
C2778 C2773 1.350 . S
C2779 H2766 0.929 . S
C2779 C2771 1.433 . S
C2779 N2781 1.384 . S
N2780 C2776 1.427 . S
N2780 C2777 1.384 . S
N2781 C2773 1.427 . S
N2781 C2779 1.384 . S
H2782 C2788 0.930 . S
H2783 C2792 0.930 . S
H2784 C2797 0.929 . S
H2785 C2795 0.929 . S
H2786 C2790 0.929 . S
H2787 C2796 0.929 . S
C2788 H2782 0.930 . S
C2788 C2789 1.367 . S
C2788 C2796 1.378 . S
C2789 C2788 1.367 . S
C2789 C2797 1.433 . S
C2790 H2786 0.929 . S
C2790 C2792 1.378 . S
C2790 C2794 1.350 . S
C2791 C2794 1.463 . S
C2791 C2796 1.350 . S
C2791 N2799 1.427 . S
C2792 H2783 0.930 . S
C2792 C2790 1.378 . S
C2792 C2793 1.367 . S
C2793 C2792 1.367 . S
C2793 C2795 1.433 . S
C2794 C2790 1.350 . S
C2794 C2791 1.463 . S
C2794 N2798 1.427 . S
C2795 H2785 0.929 . S
C2795 C2793 1.433 . S
C2795 N2798 1.384 . S
C2796 H2787 0.929 . S
C2796 C2788 1.378 . S
C2796 C2791 1.350 . S
C2797 H2784 0.929 . S
C2797 C2789 1.433 . S
C2797 N2799 1.384 . S
N2798 C2794 1.427 . S
N2798 C2795 1.384 . S
N2799 C2791 1.427 . S
N2799 C2797 1.384 . S
H2800 C2806 0.930 . S
H2801 C2810 0.930 . S
H2802 C2815 0.929 . S
H2803 C2813 0.929 . S
H2804 C2808 0.929 . S
H2805 C2814 0.929 . S
C2806 H2800 0.930 . S
C2806 C2807 1.367 . S
C2806 C2814 1.378 . S
C2807 C2806 1.367 . S
C2807 C2815 1.433 . S
C2808 H2804 0.929 . S
C2808 C2810 1.378 . S
C2808 C2812 1.350 . S
C2809 C2812 1.463 . S
C2809 C2814 1.350 . S
C2809 N2817 1.427 . S
C2810 H2801 0.930 . S
C2810 C2808 1.378 . S
C2810 C2811 1.367 . S
C2811 C2810 1.367 . S
C2811 C2813 1.433 . S
C2812 C2808 1.350 . S
C2812 C2809 1.463 . S
C2812 N2816 1.427 . S
C2813 H2803 0.929 . S
C2813 C2811 1.433 . S
C2813 N2816 1.384 . S
C2814 H2805 0.929 . S
C2814 C2806 1.378 . S
C2814 C2809 1.350 . S
C2815 H2802 0.929 . S
C2815 C2807 1.433 . S
C2815 N2817 1.384 . S
N2816 C2812 1.427 . S
N2816 C2813 1.384 . S
N2817 C2809 1.427 . S
N2817 C2815 1.384 . S
H2818 C2824 0.930 . S
H2819 C2828 0.930 . S
H2820 C2833 0.929 . S
H2821 C2831 0.929 . S
H2822 C2826 0.929 . S
H2823 C2832 0.929 . S
C2824 H2818 0.930 . S
C2824 C2825 1.367 . S
C2824 C2832 1.378 . S
C2825 C2824 1.367 . S
C2825 C2833 1.433 . S
C2826 H2822 0.929 . S
C2826 C2828 1.378 . S
C2826 C2830 1.350 . S
C2827 C2830 1.463 . S
C2827 C2832 1.350 . S
C2827 N2835 1.427 . S
C2828 H2819 0.930 . S
C2828 C2826 1.378 . S
C2828 C2829 1.367 . S
C2829 C2828 1.367 . S
C2829 C2831 1.433 . S
C2830 C2826 1.350 . S
C2830 C2827 1.463 . S
C2830 N2834 1.427 . S
C2831 H2821 0.929 . S
C2831 C2829 1.433 . S
C2831 N2834 1.384 . S
C2832 H2823 0.929 . S
C2832 C2824 1.378 . S
C2832 C2827 1.350 . S
C2833 H2820 0.929 . S
C2833 C2825 1.433 . S
C2833 N2835 1.384 . S
N2834 C2830 1.427 . S
N2834 C2831 1.384 . S
N2835 C2827 1.427 . S
N2835 C2833 1.384 . S
H2836 C2842 0.930 . S
H2837 C2846 0.930 . S
H2838 C2851 0.929 . S
H2839 C2849 0.929 . S
H2840 C2844 0.929 . S
H2841 C2850 0.929 . S
C2842 H2836 0.930 . S
C2842 C2843 1.367 . S
C2842 C2850 1.378 . S
C2843 C2842 1.367 . S
C2843 C2851 1.433 . S
C2844 H2840 0.929 . S
C2844 C2846 1.378 . S
C2844 C2848 1.350 . S
C2845 C2848 1.463 . S
C2845 C2850 1.350 . S
C2845 N2853 1.427 . S
C2846 H2837 0.930 . S
C2846 C2844 1.378 . S
C2846 C2847 1.367 . S
C2847 C2846 1.367 . S
C2847 C2849 1.433 . S
C2848 C2844 1.350 . S
C2848 C2845 1.463 . S
C2848 N2852 1.427 . S
C2849 H2839 0.929 . S
C2849 C2847 1.433 . S
C2849 N2852 1.384 . S
C2850 H2841 0.929 . S
C2850 C2842 1.378 . S
C2850 C2845 1.350 . S
C2851 H2838 0.929 . S
C2851 C2843 1.433 . S
C2851 N2853 1.384 . S
N2852 C2848 1.427 . S
N2852 C2849 1.384 . S
N2853 C2845 1.427 . S
N2853 C2851 1.384 . S
H2854 C2860 0.930 . S
H2855 C2864 0.930 . S
H2856 C2869 0.929 . S
H2857 C2867 0.929 . S
H2858 C2862 0.929 . S
H2859 C2868 0.929 . S
C2860 H2854 0.930 . S
C2860 C2861 1.367 . S
C2860 C2868 1.378 . S
C2861 C2860 1.367 . S
C2861 C2869 1.433 . S
C2862 H2858 0.929 . S
C2862 C2864 1.378 . S
C2862 C2866 1.350 . S
C2863 C2866 1.463 . S
C2863 C2868 1.350 . S
C2863 N2871 1.427 . S
C2864 H2855 0.930 . S
C2864 C2862 1.378 . S
C2864 C2865 1.367 . S
C2865 C2864 1.367 . S
C2865 C2867 1.433 . S
C2866 C2862 1.350 . S
C2866 C2863 1.463 . S
C2866 N2870 1.427 . S
C2867 H2857 0.929 . S
C2867 C2865 1.433 . S
C2867 N2870 1.384 . S
C2868 H2859 0.929 . S
C2868 C2860 1.378 . S
C2868 C2863 1.350 . S
C2869 H2856 0.929 . S
C2869 C2861 1.433 . S
C2869 N2871 1.384 . S
N2870 C2866 1.427 . S
N2870 C2867 1.384 . S
N2871 C2863 1.427 . S
N2871 C2869 1.384 . S
H2872 C2878 0.930 . S
H2873 C2882 0.930 . S
H2874 C2887 0.929 . S
H2875 C2885 0.929 . S
H2876 C2880 0.929 . S
H2877 C2886 0.929 . S
C2878 H2872 0.930 . S
C2878 C2879 1.367 . S
C2878 C2886 1.378 . S
C2879 C2878 1.367 . S
C2879 C2887 1.433 . S
C2880 H2876 0.929 . S
C2880 C2882 1.378 . S
C2880 C2884 1.350 . S
C2881 C2884 1.463 . S
C2881 C2886 1.350 . S
C2881 N2889 1.427 . S
C2882 H2873 0.930 . S
C2882 C2880 1.378 . S
C2882 C2883 1.367 . S
C2883 C2882 1.367 . S
C2883 C2885 1.433 . S
C2884 C2880 1.350 . S
C2884 C2881 1.463 . S
C2884 N2888 1.427 . S
C2885 H2875 0.929 . S
C2885 C2883 1.433 . S
C2885 N2888 1.384 . S
C2886 H2877 0.929 . S
C2886 C2878 1.378 . S
C2886 C2881 1.350 . S
C2887 H2874 0.929 . S
C2887 C2879 1.433 . S
C2887 N2889 1.384 . S
N2888 C2884 1.427 . S
N2888 C2885 1.384 . S
N2889 C2881 1.427 . S
N2889 C2887 1.384 . S
H2890 C2896 0.930 . S
H2891 C2900 0.930 . S
H2892 C2905 0.929 1_554 S
H2893 C2903 0.929 . S
H2894 C2898 0.929 . S
H2895 C2904 0.929 . S
C2896 H2890 0.930 . S
C2896 C2897 1.367 . S
C2896 C2904 1.378 . S
C2897 C2896 1.367 . S
C2897 C2905 1.433 . S
C2898 H2894 0.929 . S
C2898 C2900 1.378 . S
C2898 C2902 1.350 . S
C2899 C2902 1.463 . S
C2899 C2904 1.350 . S
C2899 N2907 1.427 . S
C2900 H2891 0.930 . S
C2900 C2898 1.378 . S
C2900 C2901 1.367 . S
C2901 C2900 1.367 . S
C2901 C2903 1.433 . S
C2902 C2898 1.350 . S
C2902 C2899 1.463 . S
C2902 N2906 1.427 . S
C2903 H2893 0.929 . S
C2903 C2901 1.433 . S
C2903 N2906 1.384 . S
C2904 H2895 0.929 . S
C2904 C2896 1.378 . S
C2904 C2899 1.350 . S
C2905 H2892 0.929 1_556 S
C2905 C2897 1.433 . S
C2905 N2907 1.384 . S
N2906 C2902 1.427 . S
N2906 C2903 1.384 . S
N2907 C2899 1.427 . S
N2907 C2905 1.384 . S
H2908 C2914 0.930 . S
H2909 C2918 0.930 . S
H2910 C2923 0.929 . S
H2911 C2921 0.929 . S
H2912 C2916 0.929 . S
H2913 C2922 0.929 . S
C2914 H2908 0.930 . S
C2914 C2915 1.367 . S
C2914 C2922 1.378 . S
C2915 C2914 1.367 . S
C2915 C2923 1.433 . S
C2916 H2912 0.929 . S
C2916 C2918 1.378 . S
C2916 C2920 1.350 . S
C2917 C2920 1.463 . S
C2917 C2922 1.350 . S
C2917 N2925 1.427 . S
C2918 H2909 0.930 . S
C2918 C2916 1.378 . S
C2918 C2919 1.367 . S
C2919 C2918 1.367 . S
C2919 C2921 1.433 . S
C2920 C2916 1.350 . S
C2920 C2917 1.463 . S
C2920 N2924 1.427 . S
C2921 H2911 0.929 . S
C2921 C2919 1.433 . S
C2921 N2924 1.384 . S
C2922 H2913 0.929 . S
C2922 C2914 1.378 . S
C2922 C2917 1.350 . S
C2923 H2910 0.929 . S
C2923 C2915 1.433 . S
C2923 N2925 1.384 . S
N2924 C2920 1.427 . S
N2924 C2921 1.384 . S
N2925 C2917 1.427 . S
N2925 C2923 1.384 . S
H2926 C2932 0.930 . S
H2927 C2936 0.930 . S
H2928 C2941 0.929 . S
H2929 C2939 0.929 . S
H2930 C2934 0.929 . S
H2931 C2940 0.929 . S
C2932 H2926 0.930 . S
C2932 C2933 1.367 . S
C2932 C2940 1.378 . S
C2933 C2932 1.367 . S
C2933 C2941 1.433 . S
C2934 H2930 0.929 . S
C2934 C2936 1.378 1_455 S
C2934 C2938 1.350 . S
C2935 C2938 1.463 . S
C2935 C2940 1.350 . S
C2935 N2943 1.427 . S
C2936 H2927 0.930 . S
C2936 C2934 1.378 1_655 S
C2936 C2937 1.367 . S
C2937 C2936 1.367 . S
C2937 C2939 1.433 . S
C2938 C2934 1.350 . S
C2938 C2935 1.463 . S
C2938 N2942 1.427 1_455 S
C2939 H2929 0.929 . S
C2939 C2937 1.433 . S
C2939 N2942 1.384 . S
C2940 H2931 0.929 . S
C2940 C2932 1.378 . S
C2940 C2935 1.350 . S
C2941 H2928 0.929 . S
C2941 C2933 1.433 . S
C2941 N2943 1.384 . S
N2942 C2938 1.427 1_655 S
N2942 C2939 1.384 . S
N2943 C2935 1.427 . S
N2943 C2941 1.384 . S
C1227 C882 1.017 . S
C1223 C4 1.019 . S
C1241 C39 1.174 . S
C1245 C894 1.158 . S
C1263 C929 1.181 . S
C1259 C86 1.128 . S
C1281 C938 1.100 . S
C1277 C110 1.104 . S
C1299 C893 1.124 . S
C1295 C146 1.141 . S
C1313 C194 1.080 . S
C1317 C918 1.165 . S
C1335 C937 1.183 . S
C1331 C219 1.201 . S
C1349 C256 1.064 . S
C1353 C879 1.066 . S
C1367 C292 1.037 . S
C1371 C872 1.027 . S
C1389 C896 1.128 . S
C1385 C326 1.117 . S
C1407 C915 1.195 . S
C1403 C363 1.222 . S
C1425 C940 1.150 . S
C1421 C410 1.105 . S
C1443 C901 1.162 . S
C1439 C302 1.113 . S
C1461 C926 1.175 . S
C1457 C327 1.176 . S
C1475 C362 1.125 . S
C1479 C945 1.121 . S
C1497 C885 1.036 . S
C1493 C400 1.046 . S
C1511 C436 1.042 . S
C1515 C874 1.030 . S
C1529 C471 1.208 . S
C1533 C973 1.182 . S
C1551 C989 1.119 . S
C1547 C506 1.114 . S
C1569 C1003 1.160 . S
C1565 C554 1.090 . S
C1583 C580 1.043 . S
C1587 C871 1.043 . S
C1601 C614 1.157 . S
C1605 C923 1.143 . S
C1623 C1006 1.192 . S
C1619 C507 1.189 . S
C1641 C970 1.183 . S
C1637 C662 1.128 . S
C1659 C1026 1.167 . S
C1655 C50 1.101 . S
C1677 C1050 1.119 . S
C1673 C3 1.124 . S
C1691 C112 1.101 . S
C1695 C1083 1.085 . S
C1709 C74 1.162 . S
C1713 C1091 1.147 . S
C1727 C254 1.167 . S
C1731 C1061 1.146 . S
C1745 C220 1.092 . S
C1749 C1072 1.094 . S
C1767 C1092 1.139 . S
C1763 C183 1.153 . S
C1781 C158 1.117 . S
C1785 C1025 1.202 . S
C1799 C698 1.092 . S
C1803 C1028 1.167 . S
C1821 C1058 1.132 . S
C1817 C542 1.123 . S
C1839 C1069 1.141 . S
C1835 C579 1.170 . S
C1857 C1099 1.097 . S
C1853 C472 1.109 . S
C1875 C1047 1.084 . S
C1871 C688 1.108 . S
C1893 C1080 1.138 . S
C1889 C543 1.151 . S
C1911 C1094 1.146 . S
C1907 C578 1.146 . S
C1925 C482 1.134 . S
C1929 C1033 1.194 . S
C1947 C1036 1.169 . S
C1943 C734 1.088 . S
C1961 C399 1.151 . S
C1965 C1124 1.140 . S
C1983 C1136 1.148 . S
C1979 C758 1.145 . S
C1997 C328 1.119 . S
C2001 C1157 1.087 . S
C2019 C1039 1.209 . S
C2015 C374 1.128 . S
C2037 C1077 1.139 . S
C2033 C794 1.152 . S
C2055 C1160 1.106 . S
C2051 C759 1.120 . S
C2069 C832 1.109 . S
C2073 C1127 1.087 . S
C2087 C76 1.036 . S
C2091 C1182 1.025 . S
C2105 C111 1.175 . S
C2109 C960 1.167 . S
C2127 C984 1.146 . S
C2123 C14 1.060 . S
C2141 C38 1.111 . S
C2145 C1014 1.121 . S
C2159 C218 1.133 . S
C2163 C959 1.113 . S
C2177 C266 1.132 . S
C2181 C995 1.174 . S
C2199 C1011 1.203 . S
C2195 C147 1.225 . S
C2217 C1193 1.047 . S
C2213 C184 1.046 . S
C2235 C1190 1.019 . S
C2231 C760 1.026 . S
C2253 C962 1.110 . S
C2249 C722 1.109 . S
C2271 C992 1.188 . S
C2267 C831 1.187 . S
C2285 C806 1.107 . S
C2289 C1004 1.187 . S
C2307 C967 1.151 . S
C2303 C770 1.113 . S
C2321 C723 1.176 . S
C2325 C981 1.171 . S
C2343 C1017 1.120 . S
C2339 C830 1.138 . S
C2357 C796 1.060 . S
C2361 C1179 1.060 . S
C2379 C1180 1.035 . S
C2375 C544 1.046 . S
C2393 C615 1.189 . S
C2397 C907 1.180 . S
C2415 C916 1.098 . S
C2411 C686 1.083 . S
C2429 C446 1.078 . S
C2433 C951 1.156 . S
C2451 C1187 1.025 . S
C2447 C652 1.044 . S
C2469 C982 1.132 . S
C2465 C470 1.119 . S
C2487 C948 1.178 . S
C2483 C687 1.174 . S
C2505 C904 1.178 . S
C2501 C590 1.091 . S
C2519 C122 1.130 . S
C2523 C1201 1.180 . S
C2537 C75 1.171 . S
C2541 C1113 1.153 . S
C2555 C40 1.106 . S
C2559 C1149 1.080 . S
C2577 C1168 1.124 . S
C2573 C2 1.122 . S
C2595 C1114 1.128 . S
C2591 C182 1.134 . S
C2609 C148 1.105 . S
C2613 C1138 1.101 . S
C2631 C1165 1.160 . S
C2627 C255 1.192 . S
C2645 C230 1.109 . S
C2649 C1202 1.189 . S
C2667 C1209 1.175 . S
C2663 C518 1.099 . S
C2681 C434 1.146 . S
C2685 C1121 1.124 . S
C2699 C651 1.164 . S
C2703 C1135 1.134 . S
C2721 C1158 1.079 . S
C2717 C616 1.081 . S
C2739 C1116 1.088 . S
C2735 C508 1.102 . S
C2753 C435 1.156 . S
C2757 C1146 1.141 . S
C2775 C1171 1.143 . S
C2771 C650 1.162 . S
C2793 C1204 1.199 . S
C2789 C626 1.127 . S
C2811 C1215 1.166 . S
C2807 C338 1.091 . S
C2829 C1055 1.172 . S
C2825 C795 1.202 . S
C2843 C290 1.146 . S
C2847 C1070 1.147 . S
C2861 C724 1.090 . S
C2865 C1102 1.093 . S
C2883 C1212 1.205 . S
C2879 C842 1.128 . S
C2901 C1143 1.117 . S
C2897 C398 1.147 . S
C2919 C1105 1.142 . S
C2915 C291 1.157 . S
C2937 C1048 1.088 . S
C2933 C364 1.086 . S
