# Generated by pormake.
# Topology wbl, (4,4)-cn, num edge types: 1
# Building blocks:
#     Node 0, Type 0, BuildingBlock: MUDLON_clean_sbu_0, # of connection points: 4
#     Node 1, Type 0, BuildingBlock: MUDLON_clean_sbu_0, # of connection points: 4
#     Node 2, Type 0, BuildingBlock: MUDLON_clean_sbu_0, # of connection points: 4
#     Node 3, Type 0, BuildingBlock: MUDLON_clean_sbu_0, # of connection points: 4
#     Node 4, Type 0, BuildingBlock: MUDLON_clean_sbu_0, # of connection points: 4
#     Node 5, Type 0, BuildingBlock: MUDLON_clean_sbu_0, # of connection points: 4
#     Node 6, Type 0, BuildingBlock: MUDLON_clean_sbu_0, # of connection points: 4
#     Node 7, Type 0, BuildingBlock: MUDLON_clean_sbu_0, # of connection points: 4
#     Node 8, Type 1, BuildingBlock: KUFVIS_clean_sbu_0, # of connection points: 4
#     Node 9, Type 1, BuildingBlock: KUFVIS_clean_sbu_0, # of connection points: 4
#     Node 10, Type 1, BuildingBlock: KUFVIS_clean_sbu_0, # of connection points: 4
#     Node 11, Type 1, BuildingBlock: KUFVIS_clean_sbu_0, # of connection points: 4
#     Node 12, Type 1, BuildingBlock: KUFVIS_clean_sbu_0, # of connection points: 4
#     Node 13, Type 1, BuildingBlock: KUFVIS_clean_sbu_0, # of connection points: 4
#     Node 14, Type 1, BuildingBlock: KUFVIS_clean_sbu_0, # of connection points: 4
#     Node 15, Type 1, BuildingBlock: KUFVIS_clean_sbu_0, # of connection points: 4
#     Edge 16, Type (0, 1), BuildingBlock: AJUNOK_clean_linker_0, # of connection points: 2
#     Edge 17, Type (0, 1), BuildingBlock: AJUNOK_clean_linker_0, # of connection points: 2
#     Edge 18, Type (0, 1), BuildingBlock: AJUNOK_clean_linker_0, # of connection points: 2
#     Edge 19, Type (0, 1), BuildingBlock: AJUNOK_clean_linker_0, # of connection points: 2
#     Edge 20, Type (0, 1), BuildingBlock: AJUNOK_clean_linker_0, # of connection points: 2
#     Edge 21, Type (0, 1), BuildingBlock: AJUNOK_clean_linker_0, # of connection points: 2
#     Edge 22, Type (0, 1), BuildingBlock: AJUNOK_clean_linker_0, # of connection points: 2
#     Edge 23, Type (0, 1), BuildingBlock: AJUNOK_clean_linker_0, # of connection points: 2
#     Edge 24, Type (0, 1), BuildingBlock: AJUNOK_clean_linker_0, # of connection points: 2
#     Edge 25, Type (0, 1), BuildingBlock: AJUNOK_clean_linker_0, # of connection points: 2
#     Edge 26, Type (0, 1), BuildingBlock: AJUNOK_clean_linker_0, # of connection points: 2
#     Edge 27, Type (0, 1), BuildingBlock: AJUNOK_clean_linker_0, # of connection points: 2
#     Edge 28, Type (0, 1), BuildingBlock: AJUNOK_clean_linker_0, # of connection points: 2
#     Edge 29, Type (0, 1), BuildingBlock: AJUNOK_clean_linker_0, # of connection points: 2
#     Edge 30, Type (0, 1), BuildingBlock: AJUNOK_clean_linker_0, # of connection points: 2
#     Edge 31, Type (0, 1), BuildingBlock: AJUNOK_clean_linker_0, # of connection points: 2
#     Edge 32, Type (0, 1), BuildingBlock: AJUNOK_clean_linker_0, # of connection points: 2
#     Edge 33, Type (0, 1), BuildingBlock: AJUNOK_clean_linker_0, # of connection points: 2
#     Edge 34, Type (0, 1), BuildingBlock: AJUNOK_clean_linker_0, # of connection points: 2
#     Edge 35, Type (0, 1), BuildingBlock: AJUNOK_clean_linker_0, # of connection points: 2
#     Edge 36, Type (0, 1), BuildingBlock: AJUNOK_clean_linker_0, # of connection points: 2
#     Edge 37, Type (0, 1), BuildingBlock: AJUNOK_clean_linker_0, # of connection points: 2
#     Edge 38, Type (0, 1), BuildingBlock: AJUNOK_clean_linker_0, # of connection points: 2
#     Edge 39, Type (0, 1), BuildingBlock: AJUNOK_clean_linker_0, # of connection points: 2
#     Edge 40, Type (0, 1), BuildingBlock: AJUNOK_clean_linker_0, # of connection points: 2
#     Edge 41, Type (0, 1), BuildingBlock: AJUNOK_clean_linker_0, # of connection points: 2
#     Edge 42, Type (0, 1), BuildingBlock: AJUNOK_clean_linker_0, # of connection points: 2
#     Edge 43, Type (0, 1), BuildingBlock: AJUNOK_clean_linker_0, # of connection points: 2
#     Edge 44, Type (0, 1), BuildingBlock: AJUNOK_clean_linker_0, # of connection points: 2
#     Edge 45, Type (0, 1), BuildingBlock: AJUNOK_clean_linker_0, # of connection points: 2
#     Edge 46, Type (0, 1), BuildingBlock: AJUNOK_clean_linker_0, # of connection points: 2
#     Edge 47, Type (0, 1), BuildingBlock: AJUNOK_clean_linker_0, # of connection points: 2
# Relax obj value: 0.225
# Max RMSD: 0.216
# Mean RMSD: 0.173
data_MOF--net-wbl--node1-MUDLON_clean_sbu_0--node2-KUFVIS_clean_sbu_0--edge1-AJUNOK_clean_linker_0
_symmetry_space_group_name_H-M    P1
_symmetry_Int_Tables_number       1
_symmetry_cell_setting            triclinic
loop_
_symmetry_equiv_pos_as_xyz
'x, y, z'
_cell_length_a     25.764744
_cell_length_b     25.954241
_cell_length_c     55.321101
_cell_angle_alpha  89.960945
_cell_angle_beta   89.999629
_cell_angle_gamma 90.08416
loop_
_atom_site_label
_atom_site_type_symbol
_atom_site_fract_x
_atom_site_fract_y
_atom_site_fract_z
_atom_type_partial_charge
Mg0 Mg 0.02476 0.03229 0.35516 0.0
C1 C 0.05883 0.93363 0.38112 0.0
O2 O 0.09022 0.92835 0.36262 0.0
C3 C 0.95506 0.09571 0.32548 0.0
O4 O 0.99778 0.12313 0.32735 0.0
C5 C 0.09421 0.98949 0.31509 0.0
O6 O 0.0569 0.95508 0.31362 0.0
O7 O 0.09067 0.02562 0.33061 0.0
O8 O 0.02315 0.96749 0.38022 0.0
O9 O 0.03254 0.0942 0.38177 0.0
C10 C 0.98971 0.11021 0.39046 0.0
O11 O 0.9463 0.09189 0.38146 0.0
O12 O 0.95441 0.05098 0.33499 0.0
Mg13 Mg 0.12569 0.53243 0.61235 0.0
C14 C 0.24707 0.51333 0.62903 0.0
O15 O 0.2873 0.48375 0.62458 0.0
C16 C 0.10357 0.45163 0.57347 0.0
O17 O 0.15121 0.43768 0.57879 0.0
C18 C 0.17137 0.62331 0.58685 0.0
O19 O 0.20624 0.58764 0.58254 0.0
O20 O 0.13253 0.61196 0.60016 0.0
O21 O 0.20508 0.50327 0.61755 0.0
O22 O 0.07715 0.51386 0.64377 0.0
C23 C 0.06516 0.46665 0.64672 0.0
O24 O 0.08012 0.43315 0.63036 0.0
O25 O 0.08485 0.49111 0.58381 0.0
Mg26 Mg 0.64169 0.61012 0.85077 0.0
C27 C 0.59196 0.68688 0.88004 0.0
O28 O 0.55663 0.65384 0.87274 0.0
C29 C 0.75464 0.59694 0.82998 0.0
O30 O 0.76878 0.6331 0.84523 0.0
C31 C 0.56024 0.64884 0.81688 0.0
O32 O 0.59078 0.68926 0.81854 0.0
O33 O 0.57238 0.60802 0.82838 0.0
O34 O 0.63768 0.68229 0.87147 0.0
O35 O 0.64467 0.55546 0.88078 0.0
C36 C 0.68253 0.56881 0.89418 0.0
O37 O 0.71008 0.60889 0.88743 0.0
O38 O 0.70684 0.58535 0.82819 0.0
Mg39 Mg 0.52457 0.1441 0.10306 0.0
C40 C 0.57881 0.17555 0.14431 0.0
O41 O 0.54258 0.2093 0.13895 0.0
C42 C 0.5395 0.07075 0.05871 0.0
O43 O 0.57818 0.10028 0.05181 0.0
C44 C 0.5975 0.21461 0.07987 0.0
O45 O 0.6249 0.17417 0.0862 0.0
O46 O 0.54887 0.21413 0.08421 0.0
O47 O 0.5841 0.13657 0.13061 0.0
O48 O 0.45598 0.14279 0.12657 0.0
C49 C 0.42947 0.10129 0.12677 0.0
O50 O 0.43453 0.06934 0.10855 0.0
O51 O 0.51585 0.08 0.07835 0.0
Mg52 Mg 0.16125 0.53192 0.93 0.0
C53 C 0.196 0.59847 0.88879 0.0
O54 O 0.24024 0.58804 0.89951 0.0
C55 C 0.0884 0.50227 0.97145 0.0
O56 O 0.12708 0.4715 0.97698 0.0
C57 C 0.23504 0.59779 0.9573 0.0
O58 O 0.19473 0.62826 0.95468 0.0
O59 O 0.232 0.55201 0.94925 0.0
O60 O 0.15407 0.58321 0.89868 0.0
O61 O 0.16418 0.4591 0.91102 0.0
C62 C 0.12704 0.42688 0.91222 0.0
O63 O 0.09591 0.42794 0.93096 0.0
O64 O 0.093 0.53252 0.95341 0.0
Mg65 Mg 0.65268 0.64853 0.17644 0.0
C66 C 0.5518 0.65807 0.14633 0.0
O67 O 0.53248 0.68119 0.16537 0.0
C68 C 0.6288 0.55267 0.20792 0.0
O69 O 0.58452 0.55285 0.19613 0.0
C70 C 0.59481 0.72129 0.20804 0.0
O71 O 0.57671 0.67602 0.21459 0.0
O72 O 0.63151 0.72268 0.1926 0.0
O73 O 0.59573 0.63599 0.14786 0.0
O74 O 0.72189 0.64405 0.15351 0.0
C75 C 0.74754 0.60207 0.15399 0.0
O76 O 0.74091 0.57122 0.17254 0.0
O77 O 0.6613 0.58843 0.20386 0.0
Mg78 Mg 0.53567 0.11805 0.42702 0.0
C79 C 0.57045 0.21923 0.40546 0.0
O80 O 0.60421 0.21584 0.42313 0.0
C81 C 0.42994 0.10709 0.45412 0.0
O82 O 0.41457 0.14554 0.44044 0.0
C83 C 0.61726 0.14373 0.46338 0.0
O84 O 0.57731 0.16828 0.47259 0.0
O85 O 0.61063 0.11684 0.44443 0.0
O86 O 0.53082 0.1898 0.40594 0.0
O87 O 0.52893 0.06185 0.39818 0.0
C88 C 0.48629 0.0693 0.38718 0.0
O89 O 0.45557 0.10571 0.39529 0.0
O90 O 0.47692 0.09253 0.4529 0.0
Mg91 Mg 0.02717 0.01379 0.68239 0.0
C92 C 0.11659 0.03043 0.64249 0.0
O93 O 0.11516 0.08074 0.64492 0.0
C94 C 0.98996 0.09359 0.71707 0.0
O95 O 0.94539 0.07537 0.7093 0.0
C96 C 0.07863 0.94578 0.71483 0.0
O97 O 0.10183 0.99083 0.7161 0.0
O98 O 0.03715 0.94247 0.70233 0.0
O99 O 0.08865 0.00231 0.65608 0.0
O100 O 0.96314 0.03329 0.65831 0.0
C101 C 0.97224 0.079 0.65102 0.0
O102 O 0.01127 0.10423 0.66067 0.0
O103 O 0.03209 0.07577 0.70842 0.0
Mn104 Mn 0.47772 0.78242 0.01752 0.0
Mn105 Mn 0.53551 0.66765 0.01453 0.0
C106 C 0.48751 0.73447 0.05266 0.0
C107 C 0.49169 0.87066 0.02053 0.0
C108 C 0.42444 0.687 0.99789 0.0
O109 O 0.50845 0.78042 0.98357 0.0
O110 O 0.55998 0.71096 0.98695 0.0
C111 C 0.63764 0.70983 0.02773 0.0
N112 N 0.60029 0.67333 0.03093 0.0
C113 C 0.6427 0.64091 0.06654 0.0
C114 C 0.6827 0.67684 0.06303 0.0
C115 C 0.67996 0.71172 0.04366 0.0
C116 C 0.6014 0.6411 0.05013 0.0
H117 H 0.63471 0.73767 0.01327 0.0
C118 C 0.54346 0.75048 0.97543 0.0
O119 O 0.44843 0.85278 0.0117 0.0
O120 O 0.52631 0.8375 0.02708 0.0
N121 N 0.51629 0.62097 0.03976 0.0
C122 C 0.47117 0.59413 0.04251 0.0
C123 C 0.46642 0.5586 0.06154 0.0
C124 C 0.50805 0.55103 0.07752 0.0
C125 C 0.55426 0.57872 0.07417 0.0
C126 C 0.55729 0.61243 0.05445 0.0
H127 H 0.43904 0.59964 0.03027 0.0
O128 O 0.45596 0.77325 0.05226 0.0
O129 O 0.51309 0.72701 0.0328 0.0
O130 O 0.42083 0.73311 0.00603 0.0
O131 O 0.46662 0.66069 0.99855 0.0
C132 C 0.59667 0.57561 0.09013 0.0
C133 C 0.64038 0.60742 0.08659 0.0
H134 H 0.71428 0.68001 0.07578 0.0
H135 H 0.70992 0.74053 0.04128 0.0
H136 H 0.43062 0.53736 0.06397 0.0
H137 H 0.50389 0.52439 0.09248 0.0
H138 H 0.5952 0.55045 0.10575 0.0
H139 H 0.67108 0.60687 0.09985 0.0
Mn140 Mn 0.3847 0.94977 0.26371 0.0
Mn141 Mn 0.49621 0.01475 0.25928 0.0
C142 C 0.43526 0.96293 0.29815 0.0
C143 C 0.29525 0.96079 0.27004 0.0
C144 C 0.48295 0.90373 0.24215 0.0
O145 O 0.38069 0.98265 0.23023 0.0
O146 O 0.44898 0.0366 0.23272 0.0
C147 C 0.4473 0.11238 0.27379 0.0
N148 N 0.48682 0.07801 0.27622 0.0
C149 C 0.51902 0.12177 0.31148 0.0
C150 C 0.47985 0.15867 0.30877 0.0
C151 C 0.44361 0.15384 0.28997 0.0
C152 C 0.52045 0.0811 0.29492 0.0
H153 H 0.41849 0.10776 0.25978 0.0
C154 C 0.40811 0.01982 0.22218 0.0
O155 O 0.31283 0.91862 0.26025 0.0
O156 O 0.3292 0.99531 0.27537 0.0
N157 N 0.54605 0.99861 0.28379 0.0
C158 C 0.57625 0.95581 0.28598 0.0
C159 C 0.61375 0.95353 0.30438 0.0
C160 C 0.61988 0.99526 0.32029 0.0
C161 C 0.58865 0.03906 0.31755 0.0
C162 C 0.55286 0.03965 0.29849 0.0
H163 H 0.57203 0.92374 0.27373 0.0
O164 O 0.39919 0.92816 0.29818 0.0
O165 O 0.43959 0.98766 0.27799 0.0
O166 O 0.43683 0.89682 0.25048 0.0
O167 O 0.50685 0.94726 0.24291 0.0
C168 C 0.59022 0.08127 0.33353 0.0
C169 C 0.55475 0.12215 0.33075 0.0
H170 H 0.4759 0.18958 0.32162 0.0
H171 H 0.41247 0.1815 0.28817 0.0
H172 H 0.63775 0.9196 0.30635 0.0
H173 H 0.64821 0.99299 0.33471 0.0
H174 H 0.61711 0.08172 0.34858 0.0
H175 H 0.55444 0.15298 0.3439 0.0
Mn176 Mn 0.21113 0.90714 0.50452 0.0
Mn177 Mn 0.08333 0.88877 0.51315 0.0
C178 C 0.15766 0.88568 0.47213 0.0
C179 C 0.2764 0.96768 0.4956 0.0
C180 C 0.16537 0.81306 0.53013 0.0
O181 O 0.19861 0.93921 0.53751 0.0
O182 O 0.11099 0.93356 0.53958 0.0
C183 C 0.0513 0.99463 0.50185 0.0
N184 N 0.04555 0.94323 0.49834 0.0
C185 C 0.98371 0.95714 0.46638 0.0
C186 C 0.9873 0.01033 0.47039 0.0
C187 C 0.02211 0.02898 0.48785 0.0
C188 C 0.01404 0.92463 0.48084 0.0
H189 H 0.07938 0.00906 0.51465 0.0
C190 C 0.15539 0.9473 0.54807 0.0
O191 O 0.28756 0.92407 0.50602 0.0
O192 O 0.2281 0.97548 0.49067 0.0
N193 N 0.05273 0.84569 0.48892 0.0
C194 C 0.06133 0.79479 0.48448 0.0
C195 C 0.03413 0.77024 0.46574 0.0
C196 C 0.99854 0.7983 0.45172 0.0
C197 C 0.99039 0.85067 0.45662 0.0
C198 C 0.0179 0.8728 0.47582 0.0
H199 H 0.08902 0.77319 0.49506 0.0
O200 O 0.20728 0.87782 0.47078 0.0
O201 O 0.14179 0.90455 0.49247 0.0
O202 O 0.20508 0.83491 0.52049 0.0
O203 O 0.11937 0.83081 0.5283 0.0
C204 C 0.9575 0.88219 0.44265 0.0
C205 C 0.95425 0.93545 0.44749 0.0
H206 H 0.96542 0.03725 0.45943 0.0
H207 H 0.02755 0.06969 0.4902 0.0
H208 H 0.04092 0.72991 0.46195 0.0
H209 H 0.97831 0.77945 0.43701 0.0
H210 H 0.93581 0.86617 0.42765 0.0
H211 H 0.93046 0.95966 0.43603 0.0
Mn212 Mn 0.26724 0.70278 0.74456 0.0
Mn213 Mn 0.27763 0.57562 0.75128 0.0
C214 C 0.27956 0.65131 0.71044 0.0
C215 C 0.20888 0.77123 0.74033 0.0
C216 C 0.36176 0.65144 0.76604 0.0
O217 O 0.24334 0.68921 0.77927 0.0
O218 O 0.23288 0.60317 0.77767 0.0
C219 C 0.16954 0.54995 0.73905 0.0
N220 N 0.2212 0.54197 0.73587 0.0
C221 C 0.20569 0.47903 0.70495 0.0
C222 C 0.15247 0.48434 0.70897 0.0
C223 C 0.13413 0.52052 0.72576 0.0
C224 C 0.23907 0.50939 0.71877 0.0
H225 H 0.15568 0.57867 0.75161 0.0
C226 C 0.22783 0.64666 0.78834 0.0
O227 O 0.25564 0.77866 0.74857 0.0
O228 O 0.19647 0.72437 0.73498 0.0
N229 N 0.32021 0.54386 0.72716 0.0
C230 C 0.37251 0.54758 0.72386 0.0
C231 C 0.39681 0.51654 0.70643 0.0
C232 C 0.36722 0.48166 0.69274 0.0
C233 C 0.31356 0.47823 0.6966 0.0
C234 C 0.2916 0.5099 0.71433 0.0
H235 H 0.39564 0.57383 0.73447 0.0
O236 O 0.28783 0.70052 0.70919 0.0
O237 O 0.26412 0.63516 0.73136 0.0
O238 O 0.34265 0.6916 0.7559 0.0
O239 O 0.33811 0.60812 0.76677 0.0
C240 C 0.28078 0.44547 0.68319 0.0
C241 C 0.22674 0.44618 0.68723 0.0
H242 H 0.12571 0.46185 0.69867 0.0
H243 H 0.09303 0.52609 0.72838 0.0
H244 H 0.43827 0.51944 0.70358 0.0
H245 H 0.38602 0.45806 0.67919 0.0
H246 H 0.29657 0.42056 0.66933 0.0
H247 H 0.20164 0.42207 0.67631 0.0
Mn248 Mn 0.9076 0.22825 0.53013 0.0
Mn249 Mn 0.90807 0.10076 0.52391 0.0
C250 C 0.89604 0.17618 0.56416 0.0
C251 C 0.96258 0.29935 0.53485 0.0
C252 C 0.82081 0.17021 0.50659 0.0
O253 O 0.93449 0.21552 0.49587 0.0
O254 O 0.95473 0.13137 0.49899 0.0
C255 C 0.01532 0.08526 0.54076 0.0
N256 N 0.96427 0.07208 0.54174 0.0
C257 C 0.97921 0.01512 0.57531 0.0
C258 C 0.03226 0.02595 0.57376 0.0
C259 C 0.05036 0.06191 0.55673 0.0
C260 C 0.94611 0.03988 0.55902 0.0
H261 H 0.02887 0.11411 0.52816 0.0
C262 C 0.95506 0.17441 0.4876 0.0
O263 O 0.91578 0.3052 0.52639 0.0
O264 O 0.97646 0.25313 0.54044 0.0
N265 N 0.86418 0.06669 0.54689 0.0
C266 C 0.81135 0.0663 0.5482 0.0
C267 C 0.7866 0.0352 0.5655 0.0
C268 C 0.81635 0.00482 0.58128 0.0
C269 C 0.87062 0.00572 0.57954 0.0
C270 C 0.89306 0.03658 0.56157 0.0
H271 H 0.78813 0.08922 0.53607 0.0
O272 O 0.8847 0.22478 0.5652 0.0
O273 O 0.91366 0.16149 0.54348 0.0
O274 O 0.83434 0.21134 0.5178 0.0
O275 O 0.84798 0.12891 0.50618 0.0
C276 C 0.90335 0.97823 0.59534 0.0
C277 C 0.95768 0.98326 0.59335 0.0
H278 H 0.05876 0.00858 0.58637 0.0
H279 H 0.09095 0.07222 0.55604 0.0
H280 H 0.74469 0.03481 0.56675 0.0
H281 H 0.79716 0.98149 0.59485 0.0
H282 H 0.88714 0.9543 0.60951 0.0
H283 H 0.9825 0.96356 0.60617 0.0
Mn284 Mn 0.97018 0.38374 0.7909 0.0
Mn285 Mn 0.09622 0.35098 0.78489 0.0
C286 C 0.02128 0.36923 0.8246 0.0
C287 C 0.90835 0.44964 0.79542 0.0
C288 C 0.00799 0.27685 0.77526 0.0
O289 O 0.98572 0.40389 0.75618 0.0
O290 O 0.07148 0.3849 0.7544 0.0
C291 C 0.14106 0.45549 0.78412 0.0
N292 N 0.13974 0.40735 0.79368 0.0
C293 C 0.2058 0.429 0.8228 0.0
C294 C 0.20858 0.47857 0.81292 0.0
C295 C 0.17576 0.49176 0.79368 0.0
C296 C 0.17066 0.39414 0.81247 0.0
H297 H 0.11506 0.46616 0.76968 0.0
C298 C 0.02896 0.40156 0.74498 0.0
O299 O 0.89514 0.40409 0.78772 0.0
O300 O 0.95713 0.45674 0.79971 0.0
N301 N 0.12381 0.3177 0.81305 0.0
C302 C 0.10931 0.27216 0.82331 0.0
C303 C 0.13546 0.25425 0.84392 0.0
C304 C 0.17559 0.28379 0.85407 0.0
C305 C 0.18894 0.33118 0.84359 0.0
C306 C 0.16226 0.34649 0.82272 0.0
H307 H 0.07707 0.25042 0.81624 0.0
O308 O 0.97119 0.36544 0.82614 0.0
O309 O 0.03944 0.38045 0.8034 0.0
O310 O 0.97024 0.30685 0.78068 0.0
O311 O 0.05542 0.29048 0.77617 0.0
C312 C 0.2261 0.36478 0.85363 0.0
C313 C 0.23448 0.41373 0.84326 0.0
H314 H 0.23455 0.50729 0.82042 0.0
H315 H 0.17642 0.53013 0.78661 0.0
H316 H 0.12403 0.21823 0.85224 0.0
H317 H 0.19494 0.27037 0.87028 0.0
H318 H 0.24729 0.35401 0.86977 0.0
H319 H 0.2619 0.43993 0.8516 0.0
Mn320 Mn 0.792 0.45153 0.01676 0.0
Mn321 Mn 0.6762 0.50766 0.02375 0.0
C322 C 0.73805 0.46338 0.98326 0.0
C323 C 0.88049 0.46751 0.00948 0.0
C324 C 0.69884 0.39736 0.03934 0.0
O325 O 0.79647 0.48329 0.05044 0.0
O326 O 0.72352 0.53116 0.05003 0.0
C327 C 0.71567 0.61025 0.01061 0.0
N328 N 0.67926 0.57268 0.00784 0.0
C329 C 0.64273 0.61543 0.97326 0.0
C330 C 0.67914 0.65503 0.97609 0.0
C331 C 0.71616 0.65221 0.99464 0.0
C332 C 0.64488 0.57402 0.98939 0.0
H333 H 0.74499 0.60743 0.0245 0.0
C334 C 0.7666 0.51724 0.05957 0.0
O335 O 0.86537 0.4243 0.01923 0.0
O336 O 0.84459 0.50041 0.00467 0.0
N337 N 0.62649 0.48906 0.99955 0.0
C338 C 0.60029 0.4438 0.99677 0.0
C339 C 0.56263 0.43941 0.97853 0.0
C340 C 0.55245 0.48146 0.96327 0.0
C341 C 0.5799 0.52762 0.96648 0.0
C342 C 0.61588 0.53021 0.98543 0.0
H343 H 0.60789 0.41131 0.0084 0.0
O344 O 0.77604 0.43079 0.98232 0.0
O345 O 0.73371 0.48673 0.00379 0.0
O346 O 0.74467 0.39457 0.03031 0.0
O347 O 0.67163 0.43879 0.03925 0.0
C348 C 0.57452 0.5704 0.95102 0.0
C349 C 0.60664 0.61388 0.95414 0.0
H350 H 0.68039 0.68667 0.96356 0.0
H351 H 0.74519 0.68211 0.9965 0.0
H352 H 0.54173 0.40358 0.97614 0.0
H353 H 0.52409 0.47763 0.94893 0.0
H354 H 0.54737 0.56942 0.93607 0.0
H355 H 0.60419 0.64524 0.94135 0.0
Mn356 Mn 0.7036 0.27531 0.26474 0.0
Mn357 Mn 0.65373 0.15719 0.27191 0.0
C358 C 0.69368 0.22122 0.23144 0.0
C359 C 0.68326 0.36193 0.25685 0.0
C360 C 0.76403 0.18566 0.28665 0.0
O361 O 0.67226 0.27778 0.29867 0.0
O362 O 0.62901 0.20212 0.2987 0.0
C363 C 0.5493 0.19308 0.25891 0.0
N364 N 0.58766 0.15747 0.25639 0.0
C365 C 0.54555 0.12017 0.22173 0.0
C366 C 0.5052 0.15574 0.22432 0.0
C367 C 0.50741 0.19292 0.2427 0.0
C368 C 0.58722 0.12345 0.23787 0.0
H369 H 0.55168 0.22248 0.27268 0.0
C370 C 0.64072 0.24564 0.30817 0.0
O371 O 0.72751 0.34941 0.2666 0.0
O372 O 0.65129 0.32469 0.25275 0.0
N373 N 0.67387 0.10921 0.24738 0.0
C374 C 0.72033 0.08502 0.2444 0.0
C375 C 0.72582 0.04795 0.2261 0.0
C376 C 0.68361 0.03633 0.21098 0.0
C377 C 0.63617 0.06163 0.21443 0.0
C378 C 0.6325 0.09687 0.23352 0.0
H379 H 0.75293 0.09369 0.25596 0.0
O380 O 0.72463 0.2605 0.23025 0.0
O381 O 0.67114 0.21565 0.25212 0.0
O382 O 0.76376 0.23156 0.27794 0.0
O383 O 0.72394 0.15612 0.28676 0.0
C384 C 0.59298 0.05458 0.19917 0.0
C385 C 0.54798 0.08455 0.20256 0.0
H386 H 0.47379 0.15644 0.2115 0.0
H387 H 0.47703 0.22145 0.24431 0.0
H388 H 0.76262 0.02869 0.22352 0.0
H389 H 0.68833 0.00857 0.19654 0.0
H390 H 0.59476 0.02781 0.18418 0.0
H391 H 0.51608 0.08097 0.1899 0.0
C392 C 0.1581 0.93447 0.29243 0.0
C393 C 0.14218 0.98353 0.3005 0.0
C394 C 0.20652 0.9273 0.28112 0.0
C395 C 0.2404 0.96905 0.27733 0.0
H396 H 0.13412 0.90095 0.29588 0.0
H397 H 0.21847 0.88858 0.27643 0.0
S398 S 0.21302 0.1065 0.29142 0.0
N399 N 0.16157 0.07509 0.3014 0.0
N400 N 0.25155 0.06218 0.27986 0.0
C401 C 0.22311 0.01877 0.28378 0.0
C402 C 0.17432 0.02587 0.29546 0.0
C403 C 0.13016 0.70583 0.57398 0.0
C404 C 0.17373 0.67349 0.57385 0.0
C405 C 0.12869 0.75068 0.56002 0.0
C406 C 0.17082 0.76576 0.54524 0.0
H407 H 0.09609 0.69591 0.58449 0.0
H408 H 0.09358 0.77351 0.56082 0.0
S409 S 0.29647 0.69707 0.54019 0.0
N410 N 0.2619 0.66133 0.55896 0.0
N411 N 0.25897 0.74609 0.53269 0.0
C412 C 0.21562 0.73494 0.54567 0.0
C413 C 0.21708 0.68878 0.55992 0.0
C414 C 0.48312 0.60591 0.79858 0.0
C415 C 0.51116 0.65137 0.80286 0.0
C416 C 0.43573 0.60673 0.78634 0.0
C417 C 0.41374 0.65313 0.77782 0.0
H418 H 0.49767 0.5691 0.80484 0.0
H419 H 0.4161 0.57021 0.78375 0.0
S420 S 0.47207 0.78328 0.78403 0.0
N421 N 0.51411 0.74447 0.79727 0.0
N422 N 0.42455 0.74594 0.77429 0.0
C423 C 0.44173 0.69899 0.78162 0.0
C424 C 0.49044 0.69813 0.79411 0.0
C425 C 0.56397 0.99354 0.03449 0.0
C426 C 0.52519 0.02429 0.04488 0.0
C427 C 0.55204 0.94478 0.02514 0.0
C428 C 0.5008 0.92578 0.02531 0.0
H429 H 0.60419 0.00576 0.03496 0.0
H430 H 0.58352 0.92086 0.01863 0.0
S431 S 0.38435 0.99465 0.04749 0.0
N432 N 0.43291 0.03471 0.05276 0.0
N433 N 0.41044 0.94344 0.03462 0.0
C434 C 0.46115 0.95785 0.03391 0.0
C435 C 0.47341 0.00704 0.04389 0.0
C436 C 0.28407 0.6677 0.9784 0.0
C437 C 0.28381 0.61816 0.96808 0.0
C438 C 0.32951 0.68936 0.98789 0.0
C439 C 0.37701 0.66257 0.98748 0.0
H440 H 0.24881 0.69032 0.97915 0.0
H441 H 0.3271 0.72763 0.9956 0.0
S442 S 0.39766 0.53134 0.96224 0.0
N443 N 0.33531 0.54267 0.95793 0.0
N444 N 0.42083 0.58326 0.97566 0.0
C445 C 0.37738 0.61275 0.97724 0.0
C446 C 0.33086 0.5906 0.9676 0.0
C447 C 0.52192 0.76462 0.22999 0.0
C448 C 0.56817 0.76899 0.21652 0.0
C449 C 0.49429 0.80816 0.23765 0.0
C450 C 0.5117 0.85834 0.23238 0.0
H451 H 0.50645 0.72708 0.23465 0.0
H452 H 0.45928 0.8022 0.24813 0.0
S453 S 0.63033 0.89154 0.1973 0.0
N454 N 0.62988 0.82794 0.19794 0.0
N455 N 0.57831 0.90983 0.21242 0.0
C456 C 0.55792 0.86345 0.21883 0.0
C457 C 0.58598 0.8189 0.2109 0.0
C458 C 0.40584 0.0262 0.47666 0.0
C459 C 0.39161 0.07522 0.46777 0.0
C460 C 0.36894 0.99234 0.48665 0.0
C461 C 0.3163 0.0061 0.48816 0.0
H462 H 0.44551 0.01287 0.47507 0.0
H463 H 0.38148 0.95439 0.49232 0.0
S464 S 0.25985 0.13258 0.47072 0.0
N465 N 0.32181 0.13749 0.4635 0.0
N466 N 0.25275 0.07435 0.48225 0.0
C467 C 0.30208 0.0561 0.48065 0.0
C468 C 0.33959 0.09049 0.47048 0.0
C469 C 0.15312 0.90636 0.73704 0.0
C470 C 0.10641 0.89962 0.72409 0.0
C471 C 0.18521 0.86459 0.74283 0.0
C472 C 0.1719 0.81417 0.73605 0.0
H473 H 0.16613 0.94455 0.74212 0.0
H474 H 0.22138 0.87218 0.75217 0.0
S475 S 0.05153 0.77467 0.7038 0.0
N476 N 0.04687 0.8379 0.70606 0.0
N477 N 0.10674 0.75925 0.71707 0.0
C478 C 0.12399 0.80641 0.72416 0.0
C479 C 0.09135 0.84911 0.71818 0.0
C480 C 0.77924 0.51554 0.80817 0.0
C481 C 0.79416 0.56341 0.81811 0.0
C482 C 0.81616 0.47982 0.79993 0.0
C483 C 0.86963 0.49049 0.80114 0.0
H484 H 0.73871 0.50446 0.80762 0.0
H485 H 0.80265 0.44286 0.79336 0.0
S486 S 0.9291 0.61289 0.82258 0.0
N487 N 0.86619 0.62129 0.82654 0.0
N488 N 0.93541 0.55471 0.81094 0.0
C489 C 0.88499 0.53941 0.80972 0.0
C490 C 0.84737 0.57566 0.81822 0.0
C491 C 0.5969 0.30685 0.06603 0.0
C492 C 0.62386 0.26026 0.06906 0.0
C493 C 0.62161 0.35079 0.0567 0.0
C494 C 0.6744 0.35012 0.04979 0.0
H495 H 0.5564 0.30968 0.07111 0.0
H496 H 0.59875 0.38554 0.0548 0.0
S497 S 0.76264 0.23736 0.05393 0.0
N498 N 0.70655 0.21595 0.06426 0.0
N499 N 0.75274 0.29826 0.04677 0.0
C500 C 0.70181 0.30363 0.05267 0.0
C501 C 0.67666 0.25888 0.06226 0.0
C502 C 0.85969 0.09263 0.31611 0.0
C503 C 0.90742 0.11884 0.31475 0.0
C504 C 0.81383 0.11473 0.3072 0.0
C505 C 0.81348 0.16414 0.2965 0.0
H506 H 0.85748 0.05481 0.32434 0.0
H507 H 0.77831 0.09262 0.30881 0.0
S508 S 0.92864 0.24863 0.28793 0.0
N509 N 0.95174 0.19679 0.30141 0.0
N510 N 0.86584 0.23821 0.28476 0.0
C511 C 0.8611 0.19069 0.29489 0.0
C512 C 0.90788 0.16811 0.30395 0.0
C513 C 0.01502 0.42636 0.55824 0.0
C514 C 0.06902 0.41705 0.5592 0.0
C515 C 0.98048 0.38976 0.54856 0.0
C516 C 0.99872 0.34253 0.53962 0.0
H517 H 0.9989 0.46099 0.56613 0.0
H518 H 0.93915 0.39713 0.54952 0.0
S519 S 0.1365 0.30284 0.53387 0.0
N520 N 0.13907 0.35965 0.54721 0.0
N521 N 0.07429 0.29109 0.52935 0.0
C522 C 0.05267 0.33445 0.53875 0.0
C523 C 0.08779 0.37165 0.54843 0.0
C524 C 0.67695 0.18336 0.49398 0.0
C525 C 0.66996 0.15164 0.47354 0.0
C526 C 0.72632 0.19149 0.504 0.0
C527 C 0.77034 0.16786 0.49403 0.0
H528 H 0.644 0.20168 0.50255 0.0
H529 H 0.72972 0.21484 0.52015 0.0
S530 S 0.7744 0.08517 0.43933 0.0
N531 N 0.71243 0.09935 0.44279 0.0
N532 N 0.80475 0.11434 0.46174 0.0
C533 C 0.76426 0.13743 0.47318 0.0
C534 C 0.71421 0.12935 0.46291 0.0
C535 C 0.95011 0.17182 0.73603 0.0
C536 C 0.99108 0.13601 0.73482 0.0
C537 C 0.95366 0.21583 0.75074 0.0
C538 C 0.99818 0.22513 0.7648 0.0
H539 H 0.91627 0.16728 0.7246 0.0
H540 H 0.92287 0.24415 0.74992 0.0
S541 S 0.11158 0.13748 0.77136 0.0
N542 N 0.07398 0.10894 0.75128 0.0
N543 N 0.08086 0.19077 0.77896 0.0
C544 C 0.0374 0.18716 0.76514 0.0
C545 C 0.03387 0.14287 0.7501 0.0
C546 C 0.02403 0.44932 0.99497 0.0
C547 C 0.03736 0.49621 0.98363 0.0
C548 C 0.97378 0.44063 0.00411 0.0
C549 C 0.93514 0.47869 1.00243 0.0
H550 H 0.05197 0.41824 0.99597 0.0
H551 H 0.96481 0.40332 0.01185 0.0
S552 S 0.95232 0.61052 0.97702 0.0
N553 N 0.00913 0.58252 0.97305 0.0
N554 N 0.91546 0.56701 0.9904 0.0
C555 C 0.94897 0.52674 0.99224 0.0
C556 C 0.99981 0.53528 0.98279 0.0
C557 C 0.60551 0.47019 0.22869 0.0
C558 C 0.64292 0.50815 0.22365 0.0
C559 C 0.61869 0.4246 0.24075 0.0
C560 C 0.66997 0.41466 0.24832 0.0
H561 H 0.56582 0.47482 0.22262 0.0
H562 H 0.5885 0.39604 0.24337 0.0
S563 S 0.78192 0.50346 0.2417 0.0
N564 N 0.7331 0.53443 0.22896 0.0
N565 N 0.75771 0.4483 0.25147 0.0
C566 C 0.70731 0.45338 0.24467 0.0
C567 C 0.69386 0.50015 0.23236 0.0
C568 C 0.08017 0.95311 0.42379 0.0
C569 C 0.07721 0.91655 0.40511 0.0
C570 C 0.10581 0.94203 0.44542 0.0
C571 C 0.12755 0.89332 0.44974 0.0
H572 H 0.06501 0.99167 0.42123 0.0
H573 H 0.10981 0.97247 0.45866 0.0
S574 S 0.13023 0.78393 0.40687 0.0
N575 N 0.09895 0.82981 0.39213 0.0
N576 N 0.14531 0.80828 0.43358 0.0
C577 C 0.12459 0.85612 0.43141 0.0
C578 C 0.09944 0.86779 0.40899 0.0
C579 C 0.30391 0.57023 0.65447 0.0
C580 C 0.25324 0.55529 0.64742 0.0
C581 C 0.31263 0.60299 0.67431 0.0
C582 C 0.27105 0.62092 0.68825 0.0
H583 H 0.33749 0.55519 0.64506 0.0
H584 H 0.35211 0.61239 0.6794 0.0
S585 S 0.13141 0.60357 0.67504 0.0
N586 N 0.1613 0.56901 0.65422 0.0
N587 N 0.17778 0.62908 0.69176 0.0
C588 C 0.22047 0.60991 0.6805 0.0
C589 C 0.21153 0.57742 0.66004 0.0
C590 C 0.52819 0.71936 0.91007 0.0
C591 C 0.57979 0.71911 0.90154 0.0
C592 C 0.51618 0.7353 0.93353 0.0
C593 C 0.55513 0.75211 0.94936 0.0
H594 H 0.49707 0.70335 0.89925 0.0
H595 H 0.47677 0.73016 0.93998 0.0
S596 S 0.69305 0.77495 0.93371 0.0
N597 N 0.66822 0.74812 0.90919 0.0
N598 N 0.645 0.77891 0.95346 0.0
C599 C 0.60561 0.75851 0.94025 0.0
C600 C 0.61807 0.74208 0.9162 0.0
C601 C 0.41328 0.02728 0.15456 0.0
C602 C 0.4101 0.08075 0.15017 0.0
C603 C 0.40769 0.00715 0.17792 0.0
C604 C 0.39811 0.03959 0.19766 0.0
H605 H 0.4241 1.00097 0.14024 0.0
H606 H 0.41478 0.96645 0.18079 0.0
S607 S 0.37176 0.17978 0.195 0.0
N608 N 0.38733 0.16427 0.16694 0.0
N609 N 0.37544 0.12586 0.21085 0.0
C610 C 0.38933 0.09214 0.19325 0.0
C611 C 0.39561 0.11288 0.16946 0.0
C612 C 0.24109 0.6475 0.85607 0.0
C613 C 0.19688 0.62015 0.86389 0.0
C614 C 0.2484 0.66007 0.83164 0.0
C615 C 0.21207 0.64531 0.81403 0.0
H616 H 0.27157 0.65725 0.86876 0.0
H617 H 0.28449 0.67832 0.8263 0.0
S618 S 0.08652 0.57954 0.82509 0.0
N619 N 0.11364 0.58336 0.85211 0.0
N620 N 0.12758 0.60739 0.80619 0.0
C621 C 0.16605 0.62122 0.82168 0.0
C622 C 0.15832 0.60866 0.84663 0.0
C623 C 0.48712 0.66138 0.11229 0.0
C624 C 0.53518 0.67582 0.12225 0.0
C625 C 0.4716 0.68001 0.08947 0.0
C626 C 0.50407 0.71295 0.07604 0.0
H627 H 0.46166 0.63554 0.1221 0.0
H628 H 0.43435 0.66834 0.08222 0.0
S629 S 0.6278 0.77069 0.09675 0.0
N630 N 0.61133 0.73043 0.11857 0.0
N631 N 0.58205 0.76541 0.07598 0.0
C632 C 0.5507 0.72965 0.08646 0.0
C633 C 0.56641 0.71087 0.10949 0.0
C634 C 0.49968 0.99601 0.35796 0.0
C635 C 0.47212 0.04049 0.36499 0.0
C636 C 0.48734 0.96975 0.33645 0.0
C637 C 0.44832 0.98831 0.32106 0.0
H638 H 0.5311 0.98155 0.36905 0.0
H639 H 0.50923 0.93575 0.33153 0.0
S640 S 0.36054 0.09866 0.33221 0.0
N641 N 0.40056 0.09856 0.35548 0.0
N642 N 0.37889 0.04992 0.31514 0.0
C643 C 0.41935 0.03124 0.32825 0.0
C644 C 0.43102 0.05733 0.35016 0.0
C645 C 0.1606 0.03755 0.60189 0.0
C646 C 0.13932 0.00653 0.6204 0.0
C647 C 0.16971 0.01746 0.57862 0.0
C648 C 0.1565 0.96629 0.57311 0.0
H649 H 0.16719 0.07826 0.60488 0.0
H650 H 0.18343 0.04298 0.56449 0.0
S651 S 0.11157 0.86602 0.61588 0.0
N652 N 0.11531 0.91898 0.6323 0.0
N653 N 0.12981 0.88293 0.5884 0.0
C654 C 0.14023 0.93379 0.59183 0.0
C655 C 0.13233 0.9535 0.61556 0.0
C656 C 0.67188 0.49456 0.92343 0.0
C657 C 0.6961 0.54138 0.91693 0.0
C658 C 0.68544 0.46854 0.94491 0.0
C659 C 0.72237 0.48948 0.9608 0.0
H660 H 0.64253 0.47778 0.91183 0.0
H661 H 0.66646 0.43247 0.94927 0.0
S662 S 0.8009 0.60747 0.95141 0.0
N663 N 0.76189 0.60506 0.92781 0.0
N664 N 0.78594 0.55663 0.96789 0.0
C665 C 0.74758 0.53526 0.9543 0.0
C666 C 0.73462 0.56125 0.9325 0.0
C667 C 0.58901 0.21507 0.18463 0.0
C668 C 0.60976 0.1833 0.16648 0.0
C669 C 0.61677 0.22595 0.2056 0.0
C670 C 0.6664 0.20554 0.20938 0.0
H671 H 0.5507 0.23176 0.18275 0.0
H672 H 0.59933 0.25113 0.21893 0.0
S673 S 0.74034 0.12337 0.16701 0.0
N674 N 0.6841 0.13281 0.15332 0.0
N675 N 0.73716 0.15489 0.19294 0.0
C676 C 0.68858 0.17476 0.19132 0.0
C677 C 0.65981 0.16285 0.16989 0.0
C678 C 0.02612 0.13326 0.4311 0.0
C679 C 0.98752 0.13981 0.41335 0.0
C680 C 0.0178 0.14946 0.45504 0.0
C681 C 0.97084 0.17278 0.46193 0.0
H682 H 0.06122 0.11209 0.42698 0.0
H683 H 0.04722 0.14141 0.46847 0.0
S684 S 0.86185 0.20742 0.42137 0.0
N685 N 0.90397 0.17808 0.4036 0.0
N686 N 0.88852 0.20807 0.44851 0.0
C687 C 0.93442 0.18429 0.44386 0.0
C688 C 0.94266 0.16771 0.41958 0.0
C689 C 0.05818 0.39783 0.67803 0.0
C690 C 0.04519 0.44798 0.67031 0.0
C691 C 0.05164 0.38283 0.70219 0.0
C692 C 0.02987 0.41653 0.71924 0.0
H693 H 0.07739 0.37128 0.66589 0.0
H694 H 0.06511 0.34508 0.70773 0.0
S695 S 0.9798 0.54783 0.70733 0.0
N696 N 1.0039 0.52901 0.68111 0.0
N697 N 0.98834 0.49913 0.72617 0.0
C698 C 0.01154 0.46455 0.71126 0.0
C699 C 0.01999 0.48071 0.68685 0.0
C700 C 0.64143 0.23209 0.37557 0.0
C701 C 0.58882 0.23893 0.38178 0.0
C702 C 0.65868 0.23884 0.35178 0.0
C703 C 0.62423 0.25329 0.33338 0.0
H704 H 0.66894 0.21773 0.38875 0.0
H705 H 0.69857 0.22931 0.34745 0.0
S706 S 0.48597 0.28849 0.34116 0.0
N707 N 0.50442 0.26915 0.36832 0.0
N708 N 0.53731 0.28243 0.32343 0.0
C709 C 0.57271 0.2648 0.33962 0.0
C710 C 0.5549 0.25756 0.3639 0.0
C711 C 0.98374 0.12137 0.61163 0.0
C712 C 0.94958 0.0998 0.62865 0.0
C713 C 0.96528 0.14548 0.59085 0.0
C714 C 0.91193 0.14915 0.58626 0.0
H715 H 0.02536 0.11964 0.61439 0.0
H716 H 0.99311 0.16188 0.57832 0.0
S717 S 0.80601 0.10282 0.62597 0.0
N718 N 0.85971 0.08528 0.64012 0.0
N719 N 0.82468 0.13251 0.60096 0.0
C720 C 0.87699 0.12904 0.6033 0.0
C721 C 0.89594 0.10343 0.62447 0.0
C722 C 0.10937 0.43692 0.86851 0.0
C723 C 0.1065 0.40604 0.88936 0.0
C724 C 0.08177 0.42409 0.84768 0.0
C725 C 0.05205 0.37884 0.84649 0.0
H726 H 0.13078 0.47289 0.86861 0.0
H727 H 0.08282 0.45053 0.83253 0.0
S728 S 0.03205 0.28453 0.89583 0.0
N729 N 0.07102 0.32845 0.90766 0.0
N730 N 0.02054 0.30323 0.86778 0.0
C731 C 0.04907 0.34723 0.867 0.0
C732 C 0.07643 0.36085 0.88853 0.0
C733 C 0.77412 0.61302 0.11058 0.0
C734 C 0.76926 0.58099 0.13104 0.0
C735 C 0.77853 0.59199 0.08726 0.0
C736 C 0.77868 0.53848 0.08365 0.0
H737 H 0.77026 0.65439 0.11236 0.0
H738 H 0.77866 0.61754 0.07179 0.0
S739 S 0.77938 0.43797 0.13111 0.0
N740 N 0.77469 0.49273 0.14612 0.0
N741 N 0.78241 0.45408 0.10227 0.0
C742 C 0.78037 0.50628 0.10395 0.0
C743 C 0.77592 0.5274 0.1277 0.0
loop_
_geom_bond_atom_site_label_1
_geom_bond_atom_site_label_2
_geom_bond_distance
_geom_bond_site_symmetry_2
_ccdc_geom_bond_type
Mg0 O7 2.141 . S
Mg0 O8 2.048 1_545 S
Mg0 O9 2.048 1_455 S
Mg0 O12 2.141 1_455 S
C1 O2 1.313 . S
C1 O8 1.195 . S
O2 C1 1.313 . S
C3 O4 1.245 . S
C3 O12 1.289 . S
O4 C3 1.245 . S
C5 O6 1.245 . S
C5 O7 1.289 1_565 S
O6 C5 1.245 . S
O7 Mg0 2.141 . S
O7 C5 1.289 1_545 S
O8 Mg0 2.048 1_565 S
O8 C1 1.195 . S
O9 Mg0 2.048 1_655 S
O9 C10 1.195 . S
C10 O9 1.195 . S
C10 O11 1.313 1_545 S
O11 C10 1.313 1_565 S
O12 Mg0 2.141 1_655 S
O12 C3 1.289 . S
Mg13 O20 2.141 . S
Mg13 O21 2.048 . S
Mg13 O22 2.048 . S
Mg13 O25 2.141 . S
C14 O15 1.313 . S
C14 O21 1.195 . S
O15 C14 1.313 . S
C16 O17 1.245 . S
C16 O25 1.289 . S
O17 C16 1.245 . S
C18 O19 1.245 . S
C18 O20 1.289 . S
O19 C18 1.245 . S
O20 Mg13 2.141 . S
O20 C18 1.289 . S
O21 Mg13 2.048 . S
O21 C14 1.195 . S
O22 Mg13 2.048 . S
O22 C23 1.195 . S
C23 O22 1.195 . S
C23 O24 1.313 . S
O24 C23 1.313 . S
O25 Mg13 2.141 . S
O25 C16 1.289 . S
Mg26 O33 2.141 . S
Mg26 O34 2.048 . S
Mg26 O35 2.048 . S
Mg26 O38 2.141 . S
C27 O28 1.313 . S
C27 O34 1.195 . S
O28 C27 1.313 . S
C29 O30 1.245 . S
C29 O38 1.289 . S
O30 C29 1.245 . S
C31 O32 1.245 . S
C31 O33 1.289 . S
O32 C31 1.245 . S
O33 Mg26 2.141 . S
O33 C31 1.289 . S
O34 Mg26 2.048 . S
O34 C27 1.195 . S
O35 Mg26 2.048 . S
O35 C36 1.195 . S
C36 O35 1.195 . S
C36 O37 1.313 . S
O37 C36 1.313 . S
O38 Mg26 2.141 . S
O38 C29 1.289 . S
Mg39 O46 2.141 . S
Mg39 O47 2.048 . S
Mg39 O48 2.048 . S
Mg39 O51 2.141 . S
C40 O41 1.313 . S
C40 O47 1.195 . S
O41 C40 1.313 . S
C42 O43 1.245 . S
C42 O51 1.289 . S
O43 C42 1.245 . S
C44 O45 1.245 . S
C44 O46 1.289 . S
O45 C44 1.245 . S
O46 Mg39 2.141 . S
O46 C44 1.289 . S
O47 Mg39 2.048 . S
O47 C40 1.195 . S
O48 Mg39 2.048 . S
O48 C49 1.195 . S
C49 O48 1.195 . S
C49 O50 1.313 . S
O50 C49 1.313 . S
O51 Mg39 2.141 . S
O51 C42 1.289 . S
Mg52 O59 2.141 . S
Mg52 O60 2.048 . S
Mg52 O61 2.048 . S
Mg52 O64 2.141 . S
C53 O54 1.313 . S
C53 O60 1.195 . S
O54 C53 1.313 . S
C55 O56 1.245 . S
C55 O64 1.289 . S
O56 C55 1.245 . S
C57 O58 1.245 . S
C57 O59 1.289 . S
O58 C57 1.245 . S
O59 Mg52 2.141 . S
O59 C57 1.289 . S
O60 Mg52 2.048 . S
O60 C53 1.195 . S
O61 Mg52 2.048 . S
O61 C62 1.195 . S
C62 O61 1.195 . S
C62 O63 1.313 . S
O63 C62 1.313 . S
O64 Mg52 2.141 . S
O64 C55 1.289 . S
Mg65 O72 2.141 . S
Mg65 O73 2.048 . S
Mg65 O74 2.048 . S
Mg65 O77 2.141 . S
C66 O67 1.313 . S
C66 O73 1.195 . S
O67 C66 1.313 . S
C68 O69 1.245 . S
C68 O77 1.289 . S
O69 C68 1.245 . S
C70 O71 1.245 . S
C70 O72 1.289 . S
O71 C70 1.245 . S
O72 Mg65 2.141 . S
O72 C70 1.289 . S
O73 Mg65 2.048 . S
O73 C66 1.195 . S
O74 Mg65 2.048 . S
O74 C75 1.195 . S
C75 O74 1.195 . S
C75 O76 1.313 . S
O76 C75 1.313 . S
O77 Mg65 2.141 . S
O77 C68 1.289 . S
Mg78 O85 2.141 . S
Mg78 O86 2.048 . S
Mg78 O87 2.048 . S
Mg78 O90 2.141 . S
C79 O80 1.313 . S
C79 O86 1.195 . S
O80 C79 1.313 . S
C81 O82 1.245 . S
C81 O90 1.289 . S
O82 C81 1.245 . S
C83 O84 1.245 . S
C83 O85 1.289 . S
O84 C83 1.245 . S
O85 Mg78 2.141 . S
O85 C83 1.289 . S
O86 Mg78 2.048 . S
O86 C79 1.195 . S
O87 Mg78 2.048 . S
O87 C88 1.195 . S
C88 O87 1.195 . S
C88 O89 1.313 . S
O89 C88 1.313 . S
O90 Mg78 2.141 . S
O90 C81 1.289 . S
Mg91 O98 2.141 1_655 S
Mg91 O99 2.048 1_655 S
Mg91 O100 2.048 1_565 S
Mg91 O103 2.141 1_565 S
C92 O93 1.313 . S
C92 O99 1.195 . S
O93 C92 1.313 . S
C94 O95 1.245 1_655 S
C94 O103 1.289 . S
O95 C94 1.245 1_455 S
C96 O97 1.245 . S
C96 O98 1.289 . S
O97 C96 1.245 . S
O98 Mg91 2.141 1_455 S
O98 C96 1.289 . S
O99 Mg91 2.048 1_455 S
O99 C92 1.195 . S
O100 Mg91 2.048 1_545 S
O100 C101 1.195 . S
C101 O100 1.195 . S
C101 O102 1.313 1_655 S
O102 C101 1.313 1_455 S
O103 Mg91 2.141 1_545 S
O103 C94 1.289 . S
Mn104 O109 2.095 1_554 S
Mn104 O119 2.162 . S
Mn104 O120 2.297 . S
Mn104 O128 2.385 . S
Mn104 O129 2.209 . S
Mn104 O130 2.094 1_554 S
Mn105 O110 2.134 . S
Mn105 N112 2.252 1_556 S
Mn105 N121 2.268 1_556 S
Mn105 O129 2.204 1_556 S
Mn105 O131 2.119 . S
C106 O128 1.234 . S
C106 O129 1.283 . S
C107 O119 1.281 . S
C107 O120 1.236 . S
C108 O130 1.240 . S
C108 O131 1.264 . S
O109 Mn104 2.095 1_556 S
O109 C118 1.250 . S
O110 Mn105 2.134 . S
O110 C118 1.258 . S
C111 N112 1.326 . S
C111 C115 1.460 . S
C111 H117 0.929 1_554 S
N112 Mn105 2.252 1_554 S
N112 C111 1.326 . S
N112 C116 1.362 . S
C113 C114 1.258 . S
C113 C116 1.431 . S
C113 C133 1.449 . S
C114 C113 1.258 . S
C114 C115 1.477 . S
C114 H134 0.931 . S
C115 C111 1.460 . S
C115 C114 1.477 . S
C115 H135 0.930 . S
C116 N112 1.362 . S
C116 C113 1.431 . S
C116 C126 1.476 . S
H117 C111 0.929 1_556 S
C118 O109 1.250 . S
C118 O110 1.258 . S
O119 Mn104 2.162 . S
O119 C107 1.281 . S
O120 Mn104 2.297 . S
O120 C107 1.236 . S
N121 Mn105 2.268 1_554 S
N121 C122 1.328 . S
N121 C126 1.318 . S
C122 N121 1.328 . S
C122 C123 1.457 . S
C122 H127 0.929 . S
C123 C122 1.457 . S
C123 C124 1.291 . S
C123 H136 0.931 . S
C124 C123 1.291 . S
C124 C125 1.373 . S
C124 H137 0.929 . S
C125 C124 1.373 . S
C125 C126 1.396 . S
C125 C132 1.403 . S
C126 C116 1.476 . S
C126 N121 1.318 . S
C126 C125 1.396 . S
H127 C122 0.929 . S
O128 Mn104 2.385 . S
O128 C106 1.234 . S
O129 Mn104 2.209 . S
O129 Mn105 2.204 1_554 S
O129 C106 1.283 . S
O130 Mn104 2.094 1_556 S
O130 C108 1.240 . S
O131 Mn105 2.119 . S
O131 C108 1.264 . S
C132 C125 1.403 . S
C132 C133 1.399 . S
C132 H138 0.929 . S
C133 C113 1.449 . S
C133 C132 1.399 . S
C133 H139 0.930 . S
H134 C114 0.931 . S
H135 C115 0.930 . S
H136 C123 0.931 . S
H137 C124 0.929 . S
H138 C132 0.929 . S
H139 C133 0.930 . S
Mn140 O145 2.095 . S
Mn140 O155 2.162 . S
Mn140 O156 2.297 . S
Mn140 O164 2.385 . S
Mn140 O165 2.209 . S
Mn140 O166 2.094 . S
Mn141 O146 2.121 1_565 S
Mn141 N148 2.257 1_565 S
Mn141 N157 2.282 . S
Mn141 O165 2.215 . S
Mn141 O167 2.117 . S
C142 O164 1.234 . S
C142 O165 1.283 . S
C143 O155 1.281 . S
C143 O156 1.236 . S
C144 O166 1.240 . S
C144 O167 1.264 . S
O145 Mn140 2.095 . S
O145 C154 1.250 1_565 S
O146 Mn141 2.121 1_545 S
O146 C154 1.258 . S
C147 N148 1.326 . S
C147 C151 1.460 . S
C147 H153 0.929 . S
N148 Mn141 2.257 1_545 S
N148 C147 1.326 . S
N148 C152 1.362 . S
C149 C150 1.258 . S
C149 C152 1.431 . S
C149 C169 1.449 . S
C150 C149 1.258 . S
C150 C151 1.477 . S
C150 H170 0.931 . S
C151 C147 1.460 . S
C151 C150 1.477 . S
C151 H171 0.930 . S
C152 N148 1.362 . S
C152 C149 1.431 . S
C152 C162 1.476 . S
H153 C147 0.929 . S
C154 O145 1.250 1_545 S
C154 O146 1.258 . S
O155 Mn140 2.162 . S
O155 C143 1.281 . S
O156 Mn140 2.297 . S
O156 C143 1.236 . S
N157 Mn141 2.282 . S
N157 C158 1.328 . S
N157 C162 1.318 1_565 S
C158 N157 1.328 . S
C158 C159 1.457 . S
C158 H163 0.929 . S
C159 C158 1.457 . S
C159 C160 1.291 . S
C159 H172 0.931 . S
C160 C159 1.291 . S
C160 C161 1.378 . S
C160 H173 0.929 . S
C161 C160 1.378 . S
C161 C162 1.395 1_565 S
C161 C168 1.397 1_565 S
C162 C152 1.476 . S
C162 N157 1.318 1_545 S
C162 C161 1.395 1_545 S
H163 C158 0.929 . S
O164 Mn140 2.385 . S
O164 C142 1.234 . S
O165 Mn140 2.209 . S
O165 Mn141 2.215 . S
O165 C142 1.283 . S
O166 Mn140 2.094 . S
O166 C144 1.240 . S
O167 Mn141 2.117 . S
O167 C144 1.264 . S
C168 C161 1.397 1_545 S
C168 C169 1.399 . S
C168 H174 0.929 . S
C169 C149 1.449 . S
C169 C168 1.399 . S
C169 H175 0.930 . S
H170 C150 0.931 . S
H171 C151 0.930 . S
H172 C159 0.931 . S
H173 C160 0.929 . S
H174 C168 0.929 . S
H175 C169 0.930 . S
Mn176 O181 2.095 . S
Mn176 O191 2.162 . S
Mn176 O192 2.297 . S
Mn176 O200 2.385 . S
Mn176 O201 2.209 . S
Mn176 O202 2.094 . S
Mn177 O182 2.121 . S
Mn177 N184 2.257 . S
Mn177 N193 2.282 . S
Mn177 O201 2.215 . S
Mn177 O203 2.117 . S
C178 O200 1.234 . S
C178 O201 1.283 . S
C179 O191 1.281 . S
C179 O192 1.236 . S
C180 O202 1.240 . S
C180 O203 1.264 . S
O181 Mn176 2.095 . S
O181 C190 1.250 . S
O182 Mn177 2.121 . S
O182 C190 1.258 . S
C183 N184 1.326 . S
C183 C187 1.460 1_455 S
C183 H189 0.929 . S
N184 Mn177 2.257 . S
N184 C183 1.326 . S
N184 C188 1.362 . S
C185 C186 1.258 . S
C185 C188 1.431 1_655 S
C185 C205 1.449 . S
C186 C185 1.258 . S
C186 C187 1.477 . S
C186 H206 0.931 . S
C187 C183 1.460 1_655 S
C187 C186 1.477 . S
C187 H207 0.930 . S
C188 N184 1.362 . S
C188 C185 1.431 1_455 S
C188 C198 1.476 . S
H189 C183 0.929 . S
C190 O181 1.250 . S
C190 O182 1.258 . S
O191 Mn176 2.162 . S
O191 C179 1.281 . S
O192 Mn176 2.297 . S
O192 C179 1.236 . S
N193 Mn177 2.282 . S
N193 C194 1.328 . S
N193 C198 1.318 . S
C194 N193 1.328 . S
C194 C195 1.457 . S
C194 H199 0.929 . S
C195 C194 1.457 . S
C195 C196 1.291 . S
C195 H208 0.931 . S
C196 C195 1.291 . S
C196 C197 1.373 . S
C196 H209 0.929 . S
C197 C196 1.373 . S
C197 C198 1.396 . S
C197 C204 1.403 1_455 S
C198 C188 1.476 . S
C198 N193 1.318 . S
C198 C197 1.396 . S
H199 C194 0.929 . S
O200 Mn176 2.385 . S
O200 C178 1.234 . S
O201 Mn176 2.209 . S
O201 Mn177 2.215 . S
O201 C178 1.283 . S
O202 Mn176 2.094 . S
O202 C180 1.240 . S
O203 Mn177 2.117 . S
O203 C180 1.264 . S
C204 C197 1.403 1_655 S
C204 C205 1.399 . S
C204 H210 0.929 . S
C205 C185 1.449 . S
C205 C204 1.399 . S
C205 H211 0.930 . S
H206 C186 0.931 . S
H207 C187 0.930 . S
H208 C195 0.931 . S
H209 C196 0.929 . S
H210 C204 0.929 . S
H211 C205 0.930 . S
Mn212 O217 2.095 . S
Mn212 O227 2.162 . S
Mn212 O228 2.297 . S
Mn212 O236 2.385 . S
Mn212 O237 2.209 . S
Mn212 O238 2.094 . S
Mn213 O218 2.121 . S
Mn213 N220 2.257 . S
Mn213 N229 2.282 . S
Mn213 O237 2.215 . S
Mn213 O239 2.117 . S
C214 O236 1.234 . S
C214 O237 1.283 . S
C215 O227 1.281 . S
C215 O228 1.236 . S
C216 O238 1.240 . S
C216 O239 1.264 . S
O217 Mn212 2.095 . S
O217 C226 1.250 . S
O218 Mn213 2.121 . S
O218 C226 1.258 . S
C219 N220 1.326 . S
C219 C223 1.460 . S
C219 H225 0.929 . S
N220 Mn213 2.257 . S
N220 C219 1.326 . S
N220 C224 1.362 . S
C221 C222 1.258 . S
C221 C224 1.431 . S
C221 C241 1.449 . S
C222 C221 1.258 . S
C222 C223 1.477 . S
C222 H242 0.931 . S
C223 C219 1.460 . S
C223 C222 1.477 . S
C223 H243 0.930 . S
C224 N220 1.362 . S
C224 C221 1.431 . S
C224 C234 1.476 . S
H225 C219 0.929 . S
C226 O217 1.250 . S
C226 O218 1.258 . S
O227 Mn212 2.162 . S
O227 C215 1.281 . S
O228 Mn212 2.297 . S
O228 C215 1.236 . S
N229 Mn213 2.282 . S
N229 C230 1.328 . S
N229 C234 1.318 . S
C230 N229 1.328 . S
C230 C231 1.457 . S
C230 H235 0.929 . S
C231 C230 1.457 . S
C231 C232 1.291 . S
C231 H244 0.931 . S
C232 C231 1.291 . S
C232 C233 1.373 . S
C232 H245 0.929 . S
C233 C232 1.373 . S
C233 C234 1.396 . S
C233 C240 1.403 . S
C234 C224 1.476 . S
C234 N229 1.318 . S
C234 C233 1.396 . S
H235 C230 0.929 . S
O236 Mn212 2.385 . S
O236 C214 1.234 . S
O237 Mn212 2.209 . S
O237 Mn213 2.215 . S
O237 C214 1.283 . S
O238 Mn212 2.094 . S
O238 C216 1.240 . S
O239 Mn213 2.117 . S
O239 C216 1.264 . S
C240 C233 1.403 . S
C240 C241 1.399 . S
C240 H246 0.929 . S
C241 C221 1.449 . S
C241 C240 1.399 . S
C241 H247 0.930 . S
H242 C222 0.931 . S
H243 C223 0.930 . S
H244 C231 0.931 . S
H245 C232 0.929 . S
H246 C240 0.929 . S
H247 C241 0.930 . S
Mn248 O253 2.095 . S
Mn248 O263 2.162 . S
Mn248 O264 2.297 . S
Mn248 O272 2.385 . S
Mn248 O273 2.209 . S
Mn248 O274 2.094 . S
Mn249 O254 2.121 . S
Mn249 N256 2.257 . S
Mn249 N265 2.282 . S
Mn249 O273 2.215 . S
Mn249 O275 2.117 . S
C250 O272 1.234 . S
C250 O273 1.283 . S
C251 O263 1.281 . S
C251 O264 1.236 . S
C252 O274 1.240 . S
C252 O275 1.264 . S
O253 Mn248 2.095 . S
O253 C262 1.250 . S
O254 Mn249 2.121 . S
O254 C262 1.258 . S
C255 N256 1.326 . S
C255 C259 1.460 1_545 S
C255 H261 0.929 . S
N256 Mn249 2.257 . S
N256 C255 1.326 . S
N256 C260 1.362 . S
C257 C258 1.258 . S
C257 C260 1.431 1_565 S
C257 C277 1.449 . S
C258 C257 1.258 . S
C258 C259 1.477 . S
C258 H278 0.931 . S
C259 C255 1.460 1_565 S
C259 C258 1.477 . S
C259 H279 0.930 . S
C260 N256 1.362 . S
C260 C257 1.431 1_545 S
C260 C270 1.476 . S
H261 C255 0.929 . S
C262 O253 1.250 . S
C262 O254 1.258 . S
O263 Mn248 2.162 . S
O263 C251 1.281 . S
O264 Mn248 2.297 . S
O264 C251 1.236 . S
N265 Mn249 2.282 . S
N265 C266 1.328 . S
N265 C270 1.318 . S
C266 N265 1.328 . S
C266 C267 1.457 . S
C266 H271 0.929 . S
C267 C266 1.457 . S
C267 C268 1.291 . S
C267 H280 0.931 . S
C268 C267 1.291 . S
C268 C269 1.373 . S
C268 H281 0.929 . S
C269 C268 1.373 . S
C269 C270 1.396 . S
C269 C276 1.403 1_545 S
C270 C260 1.476 . S
C270 N265 1.318 . S
C270 C269 1.396 . S
H271 C266 0.929 . S
O272 Mn248 2.385 . S
O272 C250 1.234 . S
O273 Mn248 2.209 . S
O273 Mn249 2.215 . S
O273 C250 1.283 . S
O274 Mn248 2.094 . S
O274 C252 1.240 . S
O275 Mn249 2.117 . S
O275 C252 1.264 . S
C276 C269 1.403 1_565 S
C276 C277 1.399 . S
C276 H282 0.929 . S
C277 C257 1.449 . S
C277 C276 1.399 . S
C277 H283 0.930 . S
H278 C258 0.931 . S
H279 C259 0.930 . S
H280 C267 0.931 . S
H281 C268 0.929 . S
H282 C276 0.929 . S
H283 C277 0.930 . S
Mn284 O289 2.095 . S
Mn284 O299 2.162 . S
Mn284 O300 2.297 . S
Mn284 O308 2.385 . S
Mn284 O309 2.209 1_655 S
Mn284 O310 2.094 . S
Mn285 O290 2.121 . S
Mn285 N292 2.257 . S
Mn285 N301 2.282 . S
Mn285 O309 2.215 . S
Mn285 O311 2.117 . S
C286 O308 1.234 . S
C286 O309 1.283 1_655 S
C287 O299 1.281 . S
C287 O300 1.236 . S
C288 O310 1.240 . S
C288 O311 1.264 1_655 S
O289 Mn284 2.095 . S
O289 C298 1.250 . S
O290 Mn285 2.121 . S
O290 C298 1.258 1_455 S
C291 N292 1.326 . S
C291 C295 1.460 . S
C291 H297 0.929 . S
N292 Mn285 2.257 . S
N292 C291 1.326 . S
N292 C296 1.362 . S
C293 C294 1.258 . S
C293 C296 1.431 . S
C293 C313 1.449 . S
C294 C293 1.258 . S
C294 C295 1.477 . S
C294 H314 0.931 . S
C295 C291 1.460 . S
C295 C294 1.477 . S
C295 H315 0.930 . S
C296 N292 1.362 . S
C296 C293 1.431 . S
C296 C306 1.476 . S
H297 C291 0.929 . S
C298 O289 1.250 . S
C298 O290 1.258 1_655 S
O299 Mn284 2.162 . S
O299 C287 1.281 . S
O300 Mn284 2.297 . S
O300 C287 1.236 . S
N301 Mn285 2.282 . S
N301 C302 1.328 . S
N301 C306 1.318 . S
C302 N301 1.328 . S
C302 C303 1.457 . S
C302 H307 0.929 . S
C303 C302 1.457 . S
C303 C304 1.291 . S
C303 H316 0.931 . S
C304 C303 1.291 . S
C304 C305 1.373 . S
C304 H317 0.929 . S
C305 C304 1.373 . S
C305 C306 1.396 . S
C305 C312 1.403 . S
C306 C296 1.476 . S
C306 N301 1.318 . S
C306 C305 1.396 . S
H307 C302 0.929 . S
O308 Mn284 2.385 . S
O308 C286 1.234 . S
O309 Mn284 2.209 1_455 S
O309 Mn285 2.215 . S
O309 C286 1.283 1_455 S
O310 Mn284 2.094 . S
O310 C288 1.240 . S
O311 Mn285 2.117 . S
O311 C288 1.264 1_455 S
C312 C305 1.403 . S
C312 C313 1.399 . S
C312 H318 0.929 . S
C313 C293 1.449 . S
C313 C312 1.399 . S
C313 H319 0.930 . S
H314 C294 0.931 . S
H315 C295 0.930 . S
H316 C303 0.931 . S
H317 C304 0.929 . S
H318 C312 0.929 . S
H319 C313 0.930 . S
Mn320 O325 2.095 . S
Mn320 O335 2.162 . S
Mn320 O336 2.297 . S
Mn320 O344 2.385 1_554 S
Mn320 O345 2.209 . S
Mn320 O346 2.094 . S
Mn321 O326 2.121 . S
Mn321 N328 2.257 . S
Mn321 N337 2.282 1_554 S
Mn321 O345 2.215 . S
Mn321 O347 2.117 . S
C322 O344 1.234 . S
C322 O345 1.283 1_556 S
C323 O335 1.281 . S
C323 O336 1.236 . S
C324 O346 1.240 . S
C324 O347 1.264 . S
O325 Mn320 2.095 . S
O325 C334 1.250 . S
O326 Mn321 2.121 . S
O326 C334 1.258 . S
C327 N328 1.326 . S
C327 C331 1.460 . S
C327 H333 0.929 . S
N328 Mn321 2.257 . S
N328 C327 1.326 . S
N328 C332 1.335 1_554 S
C329 C330 1.256 1_556 S
C329 C332 1.444 . S
C329 C349 1.449 . S
C330 C329 1.256 1_554 S
C330 C331 1.481 . S
C330 H350 0.929 1_554 S
C331 C327 1.460 . S
C331 C330 1.481 . S
C331 H351 0.930 . S
C332 N328 1.335 1_556 S
C332 C329 1.444 . S
C332 C342 1.493 . S
H333 C327 0.929 . S
C334 O325 1.250 . S
C334 O326 1.258 . S
O335 Mn320 2.162 . S
O335 C323 1.281 . S
O336 Mn320 2.297 . S
O336 C323 1.236 . S
N337 Mn321 2.282 1_556 S
N337 C338 1.328 . S
N337 C342 1.318 . S
C338 N337 1.328 . S
C338 C339 1.457 . S
C338 H343 0.929 . S
C339 C338 1.457 . S
C339 C340 1.291 . S
C339 H352 0.931 . S
C340 C339 1.291 . S
C340 C341 1.373 . S
C340 H353 0.929 . S
C341 C340 1.373 . S
C341 C342 1.396 . S
C341 C348 1.403 . S
C342 C332 1.493 . S
C342 N337 1.318 . S
C342 C341 1.396 . S
H343 C338 0.929 . S
O344 Mn320 2.385 1_556 S
O344 C322 1.234 . S
O345 Mn320 2.209 . S
O345 Mn321 2.215 . S
O345 C322 1.283 1_554 S
O346 Mn320 2.094 . S
O346 C324 1.240 . S
O347 Mn321 2.117 . S
O347 C324 1.264 . S
C348 C341 1.403 . S
C348 C349 1.399 . S
C348 H354 0.929 . S
C349 C329 1.449 . S
C349 C348 1.399 . S
C349 H355 0.930 . S
H350 C330 0.929 1_556 S
H351 C331 0.930 . S
H352 C339 0.931 . S
H353 C340 0.929 . S
H354 C348 0.929 . S
H355 C349 0.930 . S
Mn356 O361 2.095 . S
Mn356 O371 2.162 . S
Mn356 O372 2.297 . S
Mn356 O380 2.385 . S
Mn356 O381 2.209 . S
Mn356 O382 2.094 . S
Mn357 O362 2.121 . S
Mn357 N364 2.257 . S
Mn357 N373 2.282 . S
Mn357 O381 2.215 . S
Mn357 O383 2.117 . S
C358 O380 1.234 . S
C358 O381 1.283 . S
C359 O371 1.281 . S
C359 O372 1.236 . S
C360 O382 1.240 . S
C360 O383 1.264 . S
O361 Mn356 2.095 . S
O361 C370 1.250 . S
O362 Mn357 2.121 . S
O362 C370 1.258 . S
C363 N364 1.326 . S
C363 C367 1.460 . S
C363 H369 0.929 . S
N364 Mn357 2.257 . S
N364 C363 1.326 . S
N364 C368 1.362 . S
C365 C366 1.258 . S
C365 C368 1.431 . S
C365 C385 1.449 . S
C366 C365 1.258 . S
C366 C367 1.477 . S
C366 H386 0.931 . S
C367 C363 1.460 . S
C367 C366 1.477 . S
C367 H387 0.930 . S
C368 N364 1.362 . S
C368 C365 1.431 . S
C368 C378 1.476 . S
H369 C363 0.929 . S
C370 O361 1.250 . S
C370 O362 1.258 . S
O371 Mn356 2.162 . S
O371 C359 1.281 . S
O372 Mn356 2.297 . S
O372 C359 1.236 . S
N373 Mn357 2.282 . S
N373 C374 1.328 . S
N373 C378 1.318 . S
C374 N373 1.328 . S
C374 C375 1.457 . S
C374 H379 0.929 . S
C375 C374 1.457 . S
C375 C376 1.291 . S
C375 H388 0.931 . S
C376 C375 1.291 . S
C376 C377 1.373 . S
C376 H389 0.929 . S
C377 C376 1.373 . S
C377 C378 1.396 . S
C377 C384 1.403 . S
C378 C368 1.476 . S
C378 N373 1.318 . S
C378 C377 1.396 . S
H379 C374 0.929 . S
O380 Mn356 2.385 . S
O380 C358 1.234 . S
O381 Mn356 2.209 . S
O381 Mn357 2.215 . S
O381 C358 1.283 . S
O382 Mn356 2.094 . S
O382 C360 1.240 . S
O383 Mn357 2.117 . S
O383 C360 1.264 . S
C384 C377 1.403 . S
C384 C385 1.399 . S
C384 H390 0.929 . S
C385 C365 1.449 . S
C385 C384 1.399 . S
C385 H391 0.930 . S
H386 C366 0.931 . S
H387 C367 0.930 . S
H388 C375 0.931 . S
H389 C376 0.929 . S
H390 C384 0.929 . S
H391 C385 0.930 . S
C392 C393 1.369 . S
C392 C394 1.419 . S
C392 H396 0.930 . S
C393 C392 1.369 . S
C393 C402 1.429 1_565 S
C394 C392 1.419 . S
C394 C395 1.363 . S
C394 H397 0.929 . S
C395 C394 1.363 . S
C395 C401 1.444 . S
H396 C392 0.930 . S
H397 C394 0.929 . S
S398 N399 1.613 . S
S398 N400 1.610 . S
N399 S398 1.613 . S
N399 C402 1.350 . S
N400 S398 1.610 . S
N400 C401 1.336 1_545 S
C401 C395 1.444 . S
C401 N400 1.336 1_565 S
C401 C402 1.433 1_565 S
C402 C393 1.429 1_545 S
C402 N399 1.350 . S
C402 C401 1.433 1_545 S
C403 C404 1.369 . S
C403 C405 1.419 . S
C403 H407 0.930 . S
C404 C403 1.369 . S
C404 C413 1.429 . S
C405 C403 1.419 . S
C405 C406 1.363 . S
C405 H408 0.929 . S
C406 C405 1.363 . S
C406 C412 1.428 . S
H407 C403 0.930 . S
H408 C405 0.929 . S
S409 N410 1.613 . S
S409 N411 1.610 . S
N410 S409 1.613 . S
N410 C413 1.350 . S
N411 S409 1.610 . S
N411 C412 1.351 . S
C412 C406 1.428 . S
C412 N411 1.351 . S
C412 C413 1.434 . S
C413 C404 1.429 . S
C413 N410 1.350 . S
C413 C412 1.434 . S
C414 C415 1.369 . S
C414 C416 1.419 . S
C414 H418 0.930 . S
C415 C414 1.369 . S
C415 C424 1.429 . S
C416 C414 1.419 . S
C416 C417 1.363 . S
C416 H419 0.929 . S
C417 C416 1.363 . S
C417 C423 1.428 . S
H418 C414 0.930 . S
H419 C416 0.929 . S
S420 N421 1.613 . S
S420 N422 1.610 . S
N421 S420 1.613 . S
N421 C424 1.350 . S
N422 S420 1.610 . S
N422 C423 1.351 . S
C423 C417 1.428 . S
C423 N422 1.351 . S
C423 C424 1.434 . S
C424 C415 1.429 . S
C424 N421 1.350 . S
C424 C423 1.434 . S
C425 C426 1.369 . S
C425 C427 1.419 1_545 S
C425 H429 0.930 . S
C426 C425 1.369 . S
C426 C435 1.429 . S
C427 C425 1.419 1_565 S
C427 C428 1.363 . S
C427 H430 0.929 . S
C428 C427 1.363 . S
C428 C434 1.428 1_565 S
H429 C425 0.930 . S
H430 C427 0.929 . S
S431 N432 1.613 . S
S431 N433 1.610 1_545 S
N432 S431 1.613 . S
N432 C435 1.350 . S
N433 S431 1.610 1_565 S
N433 C434 1.351 1_565 S
C434 C428 1.428 1_545 S
C434 N433 1.351 1_545 S
C434 C435 1.434 . S
C435 C426 1.429 . S
C435 N432 1.350 . S
C435 C434 1.434 . S
C436 C437 1.369 . S
C436 C438 1.419 . S
C436 H440 0.930 . S
C437 C436 1.369 . S
C437 C446 1.429 . S
C438 C436 1.419 . S
C438 C439 1.363 . S
C438 H441 0.929 . S
C439 C438 1.363 . S
C439 C445 1.428 . S
H440 C436 0.930 . S
H441 C438 0.929 . S
S442 N443 1.637 . S
S442 N444 1.610 . S
N443 S442 1.637 . S
N443 C446 1.350 . S
N444 S442 1.610 . S
N444 C445 1.361 . S
C445 C439 1.428 . S
C445 N444 1.361 . S
C445 C446 1.434 . S
C446 C437 1.429 . S
C446 N443 1.350 . S
C446 C445 1.434 . S
C447 C448 1.369 . S
C447 C449 1.419 . S
C447 H451 0.930 . S
C448 C447 1.369 . S
C448 C457 1.429 . S
C449 C447 1.419 . S
C449 C450 1.363 . S
C449 H452 0.929 . S
C450 C449 1.363 . S
C450 C456 1.428 . S
H451 C447 0.930 . S
H452 C449 0.929 . S
S453 N454 1.613 . S
S453 N455 1.610 . S
N454 S453 1.613 . S
N454 C457 1.350 . S
N455 S453 1.610 . S
N455 C456 1.351 . S
C456 C450 1.428 . S
C456 N455 1.351 . S
C456 C457 1.434 . S
C457 C448 1.429 . S
C457 N454 1.350 . S
C457 C456 1.434 . S
C458 C459 1.369 . S
C458 C460 1.419 1_545 S
C458 H462 0.930 . S
C459 C458 1.369 . S
C459 C468 1.429 . S
C460 C458 1.419 1_565 S
C460 C461 1.363 . S
C460 H463 0.929 . S
C461 C460 1.363 . S
C461 C467 1.428 1_565 S
H462 C458 0.930 . S
H463 C460 0.929 . S
S464 N465 1.613 . S
S464 N466 1.610 1_545 S
N465 S464 1.613 . S
N465 C468 1.350 . S
N466 S464 1.610 1_565 S
N466 C467 1.351 1_565 S
C467 C461 1.428 1_545 S
C467 N466 1.351 1_545 S
C467 C468 1.435 . S
C468 C459 1.429 . S
C468 N465 1.350 . S
C468 C467 1.435 . S
C469 C470 1.369 . S
C469 C471 1.419 . S
C469 H473 0.930 . S
C470 C469 1.369 . S
C470 C479 1.429 . S
C471 C469 1.419 . S
C471 C472 1.363 . S
C471 H474 0.929 . S
C472 C471 1.363 . S
C472 C478 1.428 . S
H473 C469 0.930 . S
H474 C471 0.929 . S
S475 N476 1.613 . S
S475 N477 1.610 . S
N476 S475 1.613 . S
N476 C479 1.350 . S
N477 S475 1.610 . S
N477 C478 1.351 . S
C478 C472 1.428 . S
C478 N477 1.351 . S
C478 C479 1.434 . S
C479 C470 1.429 . S
C479 N476 1.350 . S
C479 C478 1.434 . S
C480 C481 1.369 . S
C480 C482 1.419 . S
C480 H484 0.930 . S
C481 C480 1.369 . S
C481 C490 1.429 . S
C482 C480 1.419 . S
C482 C483 1.363 . S
C482 H485 0.929 . S
C483 C482 1.363 . S
C483 C489 1.428 . S
H484 C480 0.930 . S
H485 C482 0.929 . S
S486 N487 1.613 . S
S486 N488 1.610 . S
N487 S486 1.613 . S
N487 C490 1.350 . S
N488 S486 1.610 . S
N488 C489 1.351 . S
C489 C483 1.428 . S
C489 N488 1.351 . S
C489 C490 1.434 . S
C490 C481 1.429 . S
C490 N487 1.350 . S
C490 C489 1.434 . S
C491 C492 1.369 . S
C491 C493 1.419 . S
C491 H495 0.930 . S
C492 C491 1.369 . S
C492 C501 1.429 . S
C493 C491 1.419 . S
C493 C494 1.363 . S
C493 H496 0.929 . S
C494 C493 1.363 . S
C494 C500 1.428 . S
H495 C491 0.930 . S
H496 C493 0.929 . S
S497 N498 1.613 . S
S497 N499 1.610 . S
N498 S497 1.613 . S
N498 C501 1.350 . S
N499 S497 1.610 . S
N499 C500 1.351 . S
C500 C494 1.428 . S
C500 N499 1.351 . S
C500 C501 1.434 . S
C501 C492 1.429 . S
C501 N498 1.350 . S
C501 C500 1.434 . S
C502 C503 1.369 . S
C502 C504 1.419 . S
C502 H506 0.930 . S
C503 C502 1.369 . S
C503 C512 1.429 . S
C504 C502 1.419 . S
C504 C505 1.363 . S
C504 H507 0.929 . S
C505 C504 1.363 . S
C505 C511 1.428 . S
H506 C502 0.930 . S
H507 C504 0.929 . S
S508 N509 1.613 . S
S508 N510 1.610 . S
N509 S508 1.613 . S
N509 C512 1.350 . S
N510 S508 1.610 . S
N510 C511 1.351 . S
C511 C505 1.428 . S
C511 N510 1.351 . S
C511 C512 1.434 . S
C512 C503 1.429 . S
C512 N509 1.350 . S
C512 C511 1.434 . S
C513 C514 1.369 . S
C513 C515 1.419 1_455 S
C513 H517 0.930 . S
C514 C513 1.369 . S
C514 C523 1.429 . S
C515 C513 1.419 1_655 S
C515 C516 1.363 . S
C515 H518 0.929 . S
C516 C515 1.363 . S
C516 C522 1.428 1_655 S
H517 C513 0.930 . S
H518 C515 0.929 . S
S519 N520 1.613 . S
S519 N521 1.610 . S
N520 S519 1.613 . S
N520 C523 1.350 . S
N521 S519 1.610 . S
N521 C522 1.351 . S
C522 C516 1.428 1_455 S
C522 N521 1.351 . S
C522 C523 1.434 . S
C523 C514 1.429 . S
C523 N520 1.350 . S
C523 C522 1.434 . S
C524 C525 1.369 . S
C524 C526 1.419 . S
C524 H528 0.930 . S
C525 C524 1.369 . S
C525 C534 1.429 . S
C526 C524 1.419 . S
C526 C527 1.363 . S
C526 H529 0.929 . S
C527 C526 1.363 . S
C527 C533 1.428 . S
H528 C524 0.930 . S
H529 C526 0.929 . S
S530 N531 1.613 . S
S530 N532 1.610 . S
N531 S530 1.613 . S
N531 C534 1.350 . S
N532 S530 1.610 . S
N532 C533 1.351 . S
C533 C527 1.428 . S
C533 N532 1.351 . S
C533 C534 1.434 . S
C534 C525 1.429 . S
C534 N531 1.350 . S
C534 C533 1.434 . S
C535 C536 1.369 . S
C535 C537 1.419 . S
C535 H539 0.930 . S
C536 C535 1.369 . S
C536 C545 1.429 . S
C537 C535 1.419 . S
C537 C538 1.363 . S
C537 H540 0.929 . S
C538 C537 1.363 . S
C538 C544 1.428 . S
H539 C535 0.930 . S
H540 C537 0.929 . S
S541 N542 1.613 . S
S541 N543 1.610 . S
N542 S541 1.613 . S
N542 C545 1.350 1_455 S
N543 S541 1.610 . S
N543 C544 1.351 1_455 S
C544 C538 1.428 . S
C544 N543 1.351 1_655 S
C544 C545 1.434 . S
C545 C536 1.429 . S
C545 N542 1.350 1_655 S
C545 C544 1.434 . S
C546 C547 1.357 1_554 S
C546 C548 1.425 . S
C546 H550 0.936 . S
C547 C546 1.357 1_556 S
C547 C556 1.429 . S
C548 C546 1.425 . S
C548 C549 1.363 1_455 S
C548 H551 0.929 . S
C549 C548 1.363 1_655 S
C549 C555 1.428 1_554 S
H550 C546 0.936 . S
H551 C548 0.929 . S
S552 N553 1.613 1_655 S
S552 N554 1.610 . S
N553 S552 1.613 1_455 S
N553 C556 1.350 . S
N554 S552 1.610 . S
N554 C555 1.351 . S
C555 C549 1.428 1_556 S
C555 N554 1.351 . S
C555 C556 1.434 1_655 S
C556 C547 1.429 . S
C556 N553 1.350 . S
C556 C555 1.434 1_455 S
C557 C558 1.369 . S
C557 C559 1.419 . S
C557 H561 0.930 . S
C558 C557 1.369 . S
C558 C567 1.429 . S
C559 C557 1.419 . S
C559 C560 1.363 . S
C559 H562 0.929 . S
C560 C559 1.363 . S
C560 C566 1.428 . S
H561 C557 0.930 . S
H562 C559 0.929 . S
S563 N564 1.613 . S
S563 N565 1.610 . S
N564 S563 1.613 . S
N564 C567 1.350 . S
N565 S563 1.610 . S
N565 C566 1.351 . S
C566 C560 1.428 . S
C566 N565 1.351 . S
C566 C567 1.434 . S
C567 C558 1.429 . S
C567 N564 1.350 . S
C567 C566 1.434 . S
C568 C569 1.369 . S
C568 C570 1.419 . S
C568 H572 0.930 . S
C569 C568 1.369 . S
C569 C578 1.429 . S
C570 C568 1.419 . S
C570 C571 1.363 . S
C570 H573 0.929 . S
C571 C570 1.363 . S
C571 C577 1.428 . S
H572 C568 0.930 . S
H573 C570 0.929 . S
S574 N575 1.613 . S
S574 N576 1.610 . S
N575 S574 1.613 . S
N575 C578 1.350 . S
N576 S574 1.610 . S
N576 C577 1.351 . S
C577 C571 1.428 . S
C577 N576 1.351 . S
C577 C578 1.434 . S
C578 C569 1.429 . S
C578 N575 1.350 . S
C578 C577 1.434 . S
C579 C580 1.369 . S
C579 C581 1.419 . S
C579 H583 0.930 . S
C580 C579 1.369 . S
C580 C589 1.429 . S
C581 C579 1.419 . S
C581 C582 1.363 . S
C581 H584 0.929 . S
C582 C581 1.363 . S
C582 C588 1.428 . S
H583 C579 0.930 . S
H584 C581 0.929 . S
S585 N586 1.613 . S
S585 N587 1.610 . S
N586 S585 1.613 . S
N586 C589 1.350 . S
N587 S585 1.610 . S
N587 C588 1.351 . S
C588 C582 1.428 . S
C588 N587 1.351 . S
C588 C589 1.434 . S
C589 C580 1.429 . S
C589 N586 1.350 . S
C589 C588 1.434 . S
C590 C591 1.369 . S
C590 C592 1.419 . S
C590 H594 0.930 . S
C591 C590 1.369 . S
C591 C600 1.429 . S
C592 C590 1.419 . S
C592 C593 1.363 . S
C592 H595 0.929 . S
C593 C592 1.363 . S
C593 C599 1.428 . S
H594 C590 0.930 . S
H595 C592 0.929 . S
S596 N597 1.613 . S
S596 N598 1.610 . S
N597 S596 1.613 . S
N597 C600 1.350 . S
N598 S596 1.610 . S
N598 C599 1.351 . S
C599 C593 1.428 . S
C599 N598 1.351 . S
C599 C600 1.434 . S
C600 C591 1.429 . S
C600 N597 1.350 . S
C600 C599 1.434 . S
C601 C602 1.369 . S
C601 C603 1.419 . S
C601 H605 0.930 . S
C602 C601 1.369 . S
C602 C611 1.429 . S
C603 C601 1.419 . S
C603 C604 1.363 . S
C603 H606 0.929 . S
C604 C603 1.363 . S
C604 C610 1.428 . S
H605 C601 0.930 . S
H606 C603 0.929 . S
S607 N608 1.613 . S
S607 N609 1.610 . S
N608 S607 1.613 . S
N608 C611 1.350 . S
N609 S607 1.610 . S
N609 C610 1.351 . S
C610 C604 1.428 . S
C610 N609 1.351 . S
C610 C611 1.434 . S
C611 C602 1.429 . S
C611 N608 1.350 . S
C611 C610 1.434 . S
C612 C613 1.369 . S
C612 C614 1.419 . S
C612 H616 0.930 . S
C613 C612 1.369 . S
C613 C622 1.429 . S
C614 C612 1.419 . S
C614 C615 1.363 . S
C614 H617 0.929 . S
C615 C614 1.363 . S
C615 C621 1.428 . S
H616 C612 0.930 . S
H617 C614 0.929 . S
S618 N619 1.613 . S
S618 N620 1.610 . S
N619 S618 1.613 . S
N619 C622 1.350 . S
N620 S618 1.610 . S
N620 C621 1.351 . S
C621 C615 1.428 . S
C621 N620 1.351 . S
C621 C622 1.434 . S
C622 C613 1.429 . S
C622 N619 1.350 . S
C622 C621 1.434 . S
C623 C624 1.369 . S
C623 C625 1.419 . S
C623 H627 0.930 . S
C624 C623 1.369 . S
C624 C633 1.429 . S
C625 C623 1.419 . S
C625 C626 1.363 . S
C625 H628 0.929 . S
C626 C625 1.363 . S
C626 C632 1.428 . S
H627 C623 0.930 . S
H628 C625 0.929 . S
S629 N630 1.613 . S
S629 N631 1.610 . S
N630 S629 1.613 . S
N630 C633 1.350 . S
N631 S629 1.610 . S
N631 C632 1.351 . S
C632 C626 1.428 . S
C632 N631 1.351 . S
C632 C633 1.434 . S
C633 C624 1.429 . S
C633 N630 1.350 . S
C633 C632 1.434 . S
C634 C635 1.369 . S
C634 C636 1.419 . S
C634 H638 0.930 . S
C635 C634 1.369 . S
C635 C644 1.429 . S
C636 C634 1.419 . S
C636 C637 1.363 . S
C636 H639 0.929 1_545 S
C637 C636 1.363 . S
C637 C643 1.428 . S
H638 C634 0.930 . S
H639 C636 0.929 1_565 S
S640 N641 1.613 . S
S640 N642 1.610 . S
N641 S640 1.613 . S
N641 C644 1.350 . S
N642 S640 1.610 . S
N642 C643 1.351 . S
C643 C637 1.428 . S
C643 N642 1.351 . S
C643 C644 1.434 . S
C644 C635 1.429 . S
C644 N641 1.350 . S
C644 C643 1.434 . S
C645 C646 1.369 . S
C645 C647 1.419 . S
C645 H649 0.930 . S
C646 C645 1.369 . S
C646 C655 1.429 . S
C647 C645 1.419 . S
C647 C648 1.363 . S
C647 H650 0.929 . S
C648 C647 1.363 . S
C648 C654 1.428 . S
H649 C645 0.930 . S
H650 C647 0.929 . S
S651 N652 1.613 . S
S651 N653 1.610 . S
N652 S651 1.613 . S
N652 C655 1.350 . S
N653 S651 1.610 . S
N653 C654 1.351 . S
C654 C648 1.428 . S
C654 N653 1.351 . S
C654 C655 1.434 . S
C655 C646 1.429 . S
C655 N652 1.350 . S
C655 C654 1.434 . S
C656 C657 1.369 . S
C656 C658 1.419 . S
C656 H660 0.930 . S
C657 C656 1.369 . S
C657 C666 1.429 . S
C658 C656 1.419 . S
C658 C659 1.363 . S
C658 H661 0.929 . S
C659 C658 1.363 . S
C659 C665 1.428 . S
H660 C656 0.930 . S
H661 C658 0.929 . S
S662 N663 1.613 . S
S662 N664 1.610 . S
N663 S662 1.613 . S
N663 C666 1.350 . S
N664 S662 1.610 . S
N664 C665 1.351 . S
C665 C659 1.428 . S
C665 N664 1.351 . S
C665 C666 1.434 . S
C666 C657 1.429 . S
C666 N663 1.350 . S
C666 C665 1.434 . S
C667 C668 1.369 . S
C667 C669 1.419 . S
C667 H671 0.930 . S
C668 C667 1.369 . S
C668 C677 1.429 . S
C669 C667 1.419 . S
C669 C670 1.363 . S
C669 H672 0.929 . S
C670 C669 1.363 . S
C670 C676 1.428 . S
H671 C667 0.930 . S
H672 C669 0.929 . S
S673 N674 1.613 . S
S673 N675 1.610 . S
N674 S673 1.613 . S
N674 C677 1.350 . S
N675 S673 1.610 . S
N675 C676 1.351 . S
C676 C670 1.428 . S
C676 N675 1.351 . S
C676 C677 1.434 . S
C677 C668 1.429 . S
C677 N674 1.350 . S
C677 C676 1.434 . S
C678 C679 1.369 . S
C678 C680 1.419 . S
C678 H682 0.930 . S
C679 C678 1.369 . S
C679 C688 1.429 . S
C680 C678 1.419 . S
C680 C681 1.363 . S
C680 H683 0.929 . S
C681 C680 1.363 . S
C681 C687 1.428 . S
H682 C678 0.930 . S
H683 C680 0.929 . S
S684 N685 1.613 . S
S684 N686 1.610 . S
N685 S684 1.613 . S
N685 C688 1.350 . S
N686 S684 1.610 . S
N686 C687 1.351 . S
C687 C681 1.428 . S
C687 N686 1.351 . S
C687 C688 1.434 . S
C688 C679 1.429 . S
C688 N685 1.350 . S
C688 C687 1.434 . S
C689 C690 1.369 . S
C689 C691 1.419 . S
C689 H693 0.930 . S
C690 C689 1.369 . S
C690 C699 1.429 . S
C691 C689 1.419 . S
C691 C692 1.363 . S
C691 H694 0.929 . S
C692 C691 1.363 . S
C692 C698 1.428 . S
H693 C689 0.930 . S
H694 C691 0.929 . S
S695 N696 1.613 . S
S695 N697 1.610 1_455 S
N696 S695 1.613 . S
N696 C699 1.350 . S
N697 S695 1.610 1_655 S
N697 C698 1.351 1_655 S
C698 C692 1.428 . S
C698 N697 1.351 1_455 S
C698 C699 1.434 . S
C699 C690 1.429 . S
C699 N696 1.350 . S
C699 C698 1.434 . S
C700 C701 1.369 . S
C700 C702 1.419 . S
C700 H704 0.930 . S
C701 C700 1.369 . S
C701 C710 1.429 . S
C702 C700 1.419 . S
C702 C703 1.363 . S
C702 H705 0.929 . S
C703 C702 1.363 . S
C703 C709 1.428 . S
H704 C700 0.930 . S
H705 C702 0.929 . S
S706 N707 1.613 . S
S706 N708 1.610 . S
N707 S706 1.613 . S
N707 C710 1.350 . S
N708 S706 1.610 . S
N708 C709 1.351 . S
C709 C703 1.428 . S
C709 N708 1.351 . S
C709 C710 1.434 . S
C710 C701 1.429 . S
C710 N707 1.350 . S
C710 C709 1.434 . S
C711 C712 1.369 . S
C711 C713 1.419 . S
C711 H715 0.930 . S
C712 C711 1.369 . S
C712 C721 1.429 . S
C713 C711 1.419 . S
C713 C714 1.363 . S
C713 H716 0.929 . S
C714 C713 1.363 . S
C714 C720 1.428 . S
H715 C711 0.930 . S
H716 C713 0.929 . S
S717 N718 1.613 . S
S717 N719 1.610 . S
N718 S717 1.613 . S
N718 C721 1.350 . S
N719 S717 1.610 . S
N719 C720 1.351 . S
C720 C714 1.428 . S
C720 N719 1.351 . S
C720 C721 1.434 . S
C721 C712 1.429 . S
C721 N718 1.350 . S
C721 C720 1.434 . S
C722 C723 1.369 . S
C722 C724 1.419 . S
C722 H726 0.930 . S
C723 C722 1.369 . S
C723 C732 1.429 . S
C724 C722 1.419 . S
C724 C725 1.363 . S
C724 H727 0.929 1_455 S
C725 C724 1.363 . S
C725 C731 1.428 . S
H726 C722 0.930 . S
H727 C724 0.929 1_655 S
S728 N729 1.613 . S
S728 N730 1.610 . S
N729 S728 1.613 . S
N729 C732 1.350 . S
N730 S728 1.610 . S
N730 C731 1.351 . S
C731 C725 1.428 . S
C731 N730 1.351 . S
C731 C732 1.434 . S
C732 C723 1.429 . S
C732 N729 1.350 . S
C732 C731 1.434 . S
C733 C734 1.369 . S
C733 C735 1.419 . S
C733 H737 0.930 . S
C734 C733 1.369 . S
C734 C743 1.429 . S
C735 C733 1.419 . S
C735 C736 1.363 . S
C735 H738 0.929 . S
C736 C735 1.363 . S
C736 C742 1.428 . S
H737 C733 0.930 . S
H738 C735 0.929 . S
S739 N740 1.613 . S
S739 N741 1.610 . S
N740 S739 1.613 . S
N740 C743 1.350 . S
N741 S739 1.610 . S
N741 C742 1.351 . S
C742 C736 1.428 . S
C742 N741 1.351 . S
C742 C743 1.434 . S
C743 C734 1.429 . S
C743 N740 1.350 . S
C743 C742 1.434 . S
C395 C143 1.394 . S
C393 C5 1.395 . S
C406 C180 1.385 . S
C404 C18 1.401 . S
C417 C216 1.392 . S
C415 C31 1.402 . S
C426 C42 1.333 . S
C428 C107 1.400 . S
C437 C57 1.505 . S
C439 C108 1.504 . S
C448 C70 1.499 . S
C450 C144 1.498 . S
C461 C179 1.530 . S
C459 C81 1.542 . S
C472 C215 1.535 . S
C470 C96 1.493 . S
C481 C29 1.543 . S
C483 C287 1.529 . S
C494 C324 1.505 . S
C492 C44 1.493 . S
C503 C3 1.557 . S
C505 C360 1.507 . S
C516 C251 1.536 . S
C514 C16 1.546 . S
C525 C83 1.402 . S
C527 C252 1.390 . S
C536 C94 1.340 . S
C538 C288 1.387 . S
C549 C323 1.391 . S
C547 C55 1.323 . S
C558 C68 1.328 . S
C560 C359 1.399 . S
C571 C178 1.404 . S
C569 C1 1.414 . S
C582 C214 1.389 . S
C580 C14 1.398 . S
C591 C27 1.378 . S
C593 C118 1.240 . S
C602 C49 1.393 . S
C604 C154 1.261 . S
C613 C53 1.607 . S
C615 C226 1.520 . S
C626 C106 1.737 . S
C624 C66 1.635 . S
C637 C142 1.749 1_545 S
C635 C88 1.740 . S
C648 C190 1.529 . S
C646 C92 1.618 . S
C659 C322 1.749 . S
C657 C36 1.740 . S
C670 C358 1.742 . S
C668 C40 1.624 . S
C679 C10 1.702 . S
C681 C262 1.522 . S
C692 C298 1.538 1_455 S
C690 C23 1.707 . S
C703 C370 1.252 . S
C701 C79 1.377 . S
C712 C101 1.395 . S
C714 C250 1.393 . S
C725 C286 1.407 1_455 S
C723 C62 1.409 . S
C736 C334 1.258 . S
C734 C75 1.393 . S
