# Generated by pormake.
# Topology zzz, (3,6)-cn, num edge types: 1
# Building blocks:
#     Node 0, Type 0, BuildingBlock: OLANEW_clean_sbu_2, # of connection points: 3
#     Node 1, Type 0, BuildingBlock: OLANEW_clean_sbu_2, # of connection points: 3
#     Node 2, Type 0, BuildingBlock: OLANEW_clean_sbu_2, # of connection points: 3
#     Node 3, Type 0, BuildingBlock: OLANEW_clean_sbu_2, # of connection points: 3
#     Node 4, Type 0, BuildingBlock: OLANEW_clean_sbu_2, # of connection points: 3
#     Node 5, Type 0, BuildingBlock: OLANEW_clean_sbu_2, # of connection points: 3
#     Node 6, Type 0, BuildingBlock: OLANEW_clean_sbu_2, # of connection points: 3
#     Node 7, Type 0, BuildingBlock: OLANEW_clean_sbu_2, # of connection points: 3
#     Node 8, Type 1, BuildingBlock: BETFAJ_clean_sbu_0, # of connection points: 6
#     Node 9, Type 1, BuildingBlock: BETFAJ_clean_sbu_0, # of connection points: 6
#     Node 10, Type 1, BuildingBlock: BETFAJ_clean_sbu_0, # of connection points: 6
#     Node 11, Type 1, BuildingBlock: BETFAJ_clean_sbu_0, # of connection points: 6
#     Edge 12, Type (0, 1), BuildingBlock: MIFKUJ_clean_linker_0, # of connection points: 2
#     Edge 13, Type (0, 1), BuildingBlock: MIFKUJ_clean_linker_0, # of connection points: 2
#     Edge 14, Type (0, 1), BuildingBlock: MIFKUJ_clean_linker_0, # of connection points: 2
#     Edge 15, Type (0, 1), BuildingBlock: MIFKUJ_clean_linker_0, # of connection points: 2
#     Edge 16, Type (0, 1), BuildingBlock: MIFKUJ_clean_linker_0, # of connection points: 2
#     Edge 17, Type (0, 1), BuildingBlock: MIFKUJ_clean_linker_0, # of connection points: 2
#     Edge 18, Type (0, 1), BuildingBlock: MIFKUJ_clean_linker_0, # of connection points: 2
#     Edge 19, Type (0, 1), BuildingBlock: MIFKUJ_clean_linker_0, # of connection points: 2
#     Edge 20, Type (0, 1), BuildingBlock: MIFKUJ_clean_linker_0, # of connection points: 2
#     Edge 21, Type (0, 1), BuildingBlock: MIFKUJ_clean_linker_0, # of connection points: 2
#     Edge 22, Type (0, 1), BuildingBlock: MIFKUJ_clean_linker_0, # of connection points: 2
#     Edge 23, Type (0, 1), BuildingBlock: MIFKUJ_clean_linker_0, # of connection points: 2
#     Edge 24, Type (0, 1), BuildingBlock: MIFKUJ_clean_linker_0, # of connection points: 2
#     Edge 25, Type (0, 1), BuildingBlock: MIFKUJ_clean_linker_0, # of connection points: 2
#     Edge 26, Type (0, 1), BuildingBlock: MIFKUJ_clean_linker_0, # of connection points: 2
#     Edge 27, Type (0, 1), BuildingBlock: MIFKUJ_clean_linker_0, # of connection points: 2
#     Edge 28, Type (0, 1), BuildingBlock: MIFKUJ_clean_linker_0, # of connection points: 2
#     Edge 29, Type (0, 1), BuildingBlock: MIFKUJ_clean_linker_0, # of connection points: 2
#     Edge 30, Type (0, 1), BuildingBlock: MIFKUJ_clean_linker_0, # of connection points: 2
#     Edge 31, Type (0, 1), BuildingBlock: MIFKUJ_clean_linker_0, # of connection points: 2
#     Edge 32, Type (0, 1), BuildingBlock: MIFKUJ_clean_linker_0, # of connection points: 2
#     Edge 33, Type (0, 1), BuildingBlock: MIFKUJ_clean_linker_0, # of connection points: 2
#     Edge 34, Type (0, 1), BuildingBlock: MIFKUJ_clean_linker_0, # of connection points: 2
#     Edge 35, Type (0, 1), BuildingBlock: MIFKUJ_clean_linker_0, # of connection points: 2
# Relax obj value: 0.222
# Max RMSD: 0.179
# Mean RMSD: 0.169
data_MOF--net-zzz--node1-OLANEW_clean_sbu_2--node2-BETFAJ_clean_sbu_0--edge1-MIFKUJ_clean_linker_0
_symmetry_space_group_name_H-M    P1
_symmetry_Int_Tables_number       1
_symmetry_cell_setting            triclinic
loop_
_symmetry_equiv_pos_as_xyz
'x, y, z'
_cell_length_a     72.076919
_cell_length_b     72.03395
_cell_length_c     19.222348
_cell_angle_alpha  90.028079
_cell_angle_beta   90.079735
_cell_angle_gamma 90.000997
loop_
_atom_site_label
_atom_site_type_symbol
_atom_site_fract_x
_atom_site_fract_y
_atom_site_fract_z
_atom_type_partial_charge
O0 O 0.7334 0.52672 0.24752 0.0
Cd1 Cd 0.70216 0.52345 0.29557 0.0
O2 O 0.73799 0.49856 0.28731 0.0
Cd3 Cd 0.75651 0.47497 0.30232 0.0
O4 O 0.78407 0.46584 0.3325 0.0
C5 C 0.78796 0.46814 0.39633 0.0
O6 O 0.7748 0.47381 0.43857 0.0
C7 C 0.74422 0.51308 0.2579 0.0
C8 C 0.67413 0.52015 0.19647 0.0
O9 O 0.67815 0.53596 0.22312 0.0
O10 O 0.68355 0.50598 0.21595 0.0
O11 O 0.95291 0.74002 0.22405 0.0
Cd12 Cd 0.94306 0.71083 0.27653 0.0
O13 O 0.98065 0.736 0.26871 0.0
Cd14 Cd 0.00642 0.74876 0.30326 0.0
O15 O 0.01105 0.77431 0.36089 0.0
C16 C 0.99601 0.78144 0.3827 0.0
O17 O 0.98036 0.77262 0.37095 0.0
C18 C 0.9694 0.74573 0.23314 0.0
C19 C 0.95452 0.68106 0.19536 0.0
O20 O 0.93881 0.68891 0.18488 0.0
O21 O 0.96474 0.68719 0.24493 0.0
O22 O 0.7666 0.93646 0.1852 0.0
Cd23 Cd 0.79689 0.92754 0.23197 0.0
O24 O 0.76628 0.95993 0.25806 0.0
Cd25 Cd 0.75254 0.98423 0.30259 0.0
O26 O 0.72636 0.99641 0.3356 0.0
C27 C 0.72319 0.00103 0.3982 0.0
O28 O 0.73672 0.00014 0.44398 0.0
C29 C 0.75822 0.95031 0.21137 0.0
C30 C 0.82677 0.94103 0.15537 0.0
O31 O 0.81893 0.92562 0.13957 0.0
O32 O 0.82034 0.95021 0.20718 0.0
O33 O 0.55044 0.77383 0.20446 0.0
Cd34 Cd 0.55495 0.80374 0.26205 0.0
O35 O 0.52335 0.77337 0.25588 0.0
Cd36 Cd 0.49971 0.75775 0.29524 0.0
O37 O 0.4942 0.72956 0.32925 0.0
C38 C 0.50885 0.72101 0.34729 0.0
O39 O 0.52474 0.72995 0.34576 0.0
C40 C 0.53531 0.76547 0.21718 0.0
C41 C 0.54359 0.83363 0.18103 0.0
O42 O 0.56054 0.82824 0.18101 0.0
O43 O 0.53199 0.8248 0.21917 0.0
O44 O 0.26673 0.51131 0.05879 0.0
Cd45 Cd 0.29766 0.50658 0.01023 0.0
O46 O 0.26001 0.48537 0.00578 0.0
Cd47 Cd 0.24406 0.46149 0.96851 0.0
O48 O 0.23772 0.43215 0.93027 0.0
C49 C 0.22278 0.42618 0.90172 0.0
O50 O 0.2382 0.43168 0.93053 0.0
C51 C 0.25501 0.49865 0.04525 0.0
C52 C 0.32374 0.50058 0.11503 0.0
O53 O 0.32174 0.51666 0.08749 0.0
O54 O 0.31347 0.48731 0.09286 0.0
O55 O 0.98574 0.27964 0.1062 0.0
Cd56 Cd 0.98576 0.30927 0.04449 0.0
O57 O 0.01561 0.27757 0.08591 0.0
Cd58 Cd 0.03983 0.25979 0.07489 0.0
O59 O 0.04469 0.23378 0.0205 0.0
C60 C 0.03049 0.22844 0.98673 0.0
O61 O 0.01554 0.23888 0.98762 0.0
C62 C 0.00087 0.27071 0.11146 0.0
C63 C 0.99195 0.33868 0.13538 0.0
O64 O 0.97547 0.33298 0.12212 0.0
O65 O 0.00553 0.33052 0.10515 0.0
O66 O 0.2314 0.96518 0.09285 0.0
Cd67 Cd 0.20111 0.96903 0.03788 0.0
O68 O 0.23402 0.99488 0.07117 0.0
Cd69 Cd 0.2492 0.02103 0.07244 0.0
O70 O 0.27431 0.03581 0.04449 0.0
C71 C 0.27684 0.03894 0.98021 0.0
O72 O 0.26348 0.03487 0.93617 0.0
C73 C 0.24106 0.97991 0.09439 0.0
C74 C 0.17472 0.98171 0.13202 0.0
O75 O 0.17591 0.96443 0.11664 0.0
O76 O 0.186 0.99302 0.1028 0.0
O77 O 0.52406 0.23206 0.06224 0.0
Cd78 Cd 0.51756 0.20236 0.00646 0.0
O79 O 0.49398 0.23313 0.07978 0.0
Cd80 Cd 0.47022 0.25004 0.10888 0.0
O81 O 0.46168 0.2778 0.07918 0.0
C82 C 0.465 0.28144 0.01579 0.0
O83 O 0.47125 0.26808 0.97554 0.0
C84 C 0.50991 0.24055 0.08527 0.0
C85 C 0.50848 0.17598 0.10618 0.0
O86 O 0.52497 0.17702 0.08158 0.0
O87 O 0.49622 0.18728 0.083 0.0
Sm88 Sm 0.01129 0.99929 0.74697 0.0
Sm89 Sm 0.99686 0.01374 0.60536 0.0
C90 C 0.01612 0.98119 0.86541 0.0
C91 C 0.01255 0.96232 0.89211 0.0
C92 C 0.99527 0.9536 0.88297 0.0
C93 C 0.99232 0.93562 0.90823 0.0
C94 C 0.00665 0.92597 0.94238 0.0
C95 C 0.02395 0.9347 0.95091 0.0
C96 C 0.02683 0.95272 0.92624 0.0
C97 C 0.03799 0.00705 0.64985 0.0
C98 C 0.9979 0.96983 0.62468 0.0
C99 C 0.99202 0.03143 0.48615 0.0
C100 C 0.9935 0.05073 0.46085 0.0
C101 C 0.00976 0.06121 0.47036 0.0
C102 C 0.01081 0.07946 0.44578 0.0
C103 C 0.99558 0.08768 0.41169 0.0
C104 C 0.97925 0.07716 0.40329 0.0
C105 C 0.97828 0.05888 0.42724 0.0
C106 C 0.97012 0.0048 0.70043 0.0
C107 C 0.01105 0.04336 0.72703 0.0
O108 O 0.00167 0.99169 0.85275 0.0
O109 O 0.02905 0.98264 0.81805 0.0
O110 O 0.02276 0.99912 0.6385 0.0
O111 O 0.04021 0.01054 0.71572 0.0
O112 O 0.99919 0.97327 0.69217 0.0
O113 O 0.99927 0.98312 0.57778 0.0
O114 O 0.00749 0.02299 0.50293 0.0
O115 O 0.97843 0.02795 0.52932 0.0
O116 O 0.98498 0.01332 0.7136 0.0
O117 O 0.96842 0.00144 0.63426 0.0
O118 O 0.00783 0.04009 0.66037 0.0
O119 O 0.01119 0.03003 0.77406 0.0
H120 H 0.98405 0.9606 0.85611 0.0
H121 H 0.97892 0.92916 0.90017 0.0
H122 H 0.0352 0.92768 0.97753 0.0
H123 H 0.04027 0.95917 0.93372 0.0
H124 H 0.02171 0.05533 0.49647 0.0
H125 H 0.02368 0.08699 0.45257 0.0
H126 H 0.96709 0.08309 0.37879 0.0
H127 H 0.96556 0.05111 0.4198 0.0
Sm128 Sm 0.50733 0.02215 0.76717 0.0
Sm129 Sm 0.49085 0.00756 0.61574 0.0
C130 C 0.52476 0.02466 0.88779 0.0
C131 C 0.54234 0.01789 0.91741 0.0
C132 C 0.55074 0.00168 0.89209 0.0
C133 C 0.56767 0.99565 0.91939 0.0
C134 C 0.57669 0.00584 0.97205 0.0
C135 C 0.56816 0.02211 0.99716 0.0
C136 C 0.55113 0.02803 0.97015 0.0
C137 C 0.50081 0.048 0.66599 0.0
C138 C 0.53551 0.00544 0.64475 0.0
C139 C 0.47602 0.00766 0.49021 0.0
C140 C 0.4576 0.00392 0.45976 0.0
C141 C 0.44141 0.01086 0.49102 0.0
C142 C 0.42409 0.0078 0.46047 0.0
C143 C 0.42256 0.99761 0.39831 0.0
C144 C 0.43876 0.99039 0.36781 0.0
C145 C 0.45613 0.99355 0.39826 0.0
C146 C 0.49126 0.98029 0.71691 0.0
C147 C 0.46275 0.02283 0.74099 0.0
O148 O 0.51204 0.01208 0.87466 0.0
O149 O 0.52624 0.03723 0.83879 0.0
O150 O 0.50714 0.03191 0.65673 0.0
O151 O 0.49869 0.05165 0.73198 0.0
O152 O 0.53261 0.00938 0.71132 0.0
O153 O 0.52218 0.0054 0.59711 0.0
O154 O 0.47737 0.02257 0.52922 0.0
O155 O 0.48511 0.99333 0.51516 0.0
O156 O 0.49569 0.99697 0.72064 0.0
O157 O 0.48531 0.97697 0.65419 0.0
O158 O 0.46561 0.01971 0.67374 0.0
O159 O 0.47611 0.02236 0.78844 0.0
H160 H 0.54427 0.99372 0.85103 0.0
H161 H 0.5736 0.9829 0.89949 0.0
H162 H 0.57478 0.03052 0.03671 0.0
H163 H 0.54491 0.04067 0.98994 0.0
H164 H 0.44213 0.01878 0.53881 0.0
H165 H 0.41185 0.0133 0.48584 0.0
H166 H 0.43805 0.98261 0.31964 0.0
H167 H 0.46845 0.9881 0.37329 0.0
Sm168 Sm 0.48309 0.51145 0.75914 0.0
Sm169 Sm 0.49653 0.49171 0.61325 0.0
C170 C 0.47922 0.53038 0.8763 0.0
C171 C 0.48552 0.54748 0.91071 0.0
C172 C 0.50054 0.55777 0.88501 0.0
C173 C 0.50596 0.57423 0.91814 0.0
C174 C 0.49637 0.58069 0.97724 0.0
C175 C 0.48144 0.57017 0.0029 0.0
C176 C 0.47609 0.55373 0.96992 0.0
C177 C 0.45646 0.5022 0.66316 0.0
C178 C 0.49932 0.53676 0.62813 0.0
C179 C 0.49529 0.47502 0.49116 0.0
C180 C 0.49921 0.4565 0.462 0.0
C181 C 0.49291 0.44032 0.49518 0.0
C182 C 0.49581 0.42293 0.46487 0.0
C183 C 0.50522 0.42132 0.40106 0.0
C184 C 0.51189 0.43755 0.36885 0.0
C185 C 0.50888 0.45496 0.39903 0.0
C186 C 0.52499 0.49428 0.70952 0.0
C187 C 0.48363 0.46627 0.74846 0.0
O188 O 0.49158 0.51719 0.868 0.0
O189 O 0.46821 0.53244 0.82255 0.0
O190 O 0.47229 0.50864 0.65044 0.0
O191 O 0.45355 0.50124 0.72988 0.0
O192 O 0.49634 0.5354 0.69616 0.0
O193 O 0.49827 0.52244 0.58509 0.0
O194 O 0.48097 0.47622 0.53309 0.0
O195 O 0.50961 0.48492 0.51154 0.0
O196 O 0.50851 0.49946 0.71463 0.0
O197 O 0.52726 0.48655 0.64888 0.0
O198 O 0.4858 0.46749 0.68011 0.0
O199 O 0.48405 0.48082 0.79064 0.0
H200 H 0.50793 0.55317 0.83909 0.0
H201 H 0.51738 0.58212 0.8966 0.0
H202 H 0.47392 0.57461 0.04872 0.0
H203 H 0.46448 0.54591 0.99053 0.0
H204 H 0.48545 0.44109 0.54397 0.0
H205 H 0.49026 0.4108 0.49075 0.0
H206 H 0.51943 0.43681 0.32025 0.0
H207 H 0.51389 0.46727 0.3727 0.0
Sm208 Sm 0.99875 0.49637 0.78463 0.0
Sm209 Sm 0.01658 0.50648 0.64227 0.0
C210 C 0.98538 0.49554 0.91273 0.0
C211 C 0.96677 0.49771 0.94292 0.0
C212 C 0.96476 0.50306 0.01254 0.0
C213 C 0.94709 0.50549 0.04118 0.0
C214 C 0.93105 0.50238 0.00079 0.0
C215 C 0.93322 0.49692 0.93088 0.0
C216 C 0.95089 0.49475 0.90215 0.0
C217 C 0.00497 0.46716 0.69684 0.0
C218 C 0.97112 0.50062 0.65456 0.0
C219 C 0.02841 0.50866 0.51215 0.0
C220 C 0.04607 0.50735 0.47379 0.0
C221 C 0.05759 0.49167 0.47922 0.0
C222 C 0.07438 0.49092 0.44291 0.0
C223 C 0.08 0.50588 0.40093 0.0
C224 C 0.0684 0.52149 0.39541 0.0
C225 C 0.05158 0.52218 0.43129 0.0
C226 C 0.00879 0.53576 0.72873 0.0
C227 C 0.04468 0.49909 0.76971 0.0
O228 O 0.99259 0.51047 0.88495 0.0
O229 O 0.988 0.48063 0.87503 0.0
O230 O 0.01587 0.48058 0.70672 0.0
O231 O 0.99061 0.46818 0.73752 0.0
O232 O 0.97231 0.50231 0.72282 0.0
O233 O 0.98602 0.50011 0.61453 0.0
O234 O 0.02188 0.49339 0.53975 0.0
O235 O 0.02636 0.52317 0.55231 0.0
O236 O 0.99855 0.5219 0.71835 0.0
O237 O 0.02353 0.53508 0.6901 0.0
O238 O 0.04314 0.4995 0.70125 0.0
O239 O 0.03002 0.49949 0.81133 0.0
H240 H 0.97688 0.50536 0.04472 0.0
H241 H 0.94603 0.50998 0.09478 0.0
H242 H 0.92129 0.49406 0.89835 0.0
H243 H 0.95215 0.49064 0.84813 0.0
H244 H 0.05373 0.48003 0.51179 0.0
H245 H 0.0831 0.47878 0.44862 0.0
H246 H 0.07225 0.53312 0.36274 0.0
H247 H 0.04287 0.53436 0.42604 0.0
H248 H 0.17592 0.0133 0.21046 0.0
H249 H 0.15334 0.02344 0.2982 0.0
H250 H 0.11948 0.97556 0.25348 0.0
H251 H 0.1422 0.96502 0.16743 0.0
H252 H 0.10134 0.01539 0.26384 0.0
H253 H 0.14145 0.96912 0.38046 0.0
H254 H 0.17224 0.95782 0.41722 0.0
H255 H 0.18226 0.00911 0.5249 0.0
H256 H 0.15159 0.0208 0.48784 0.0
H257 H 0.0372 0.99365 0.51842 0.0
H258 H 0.06126 0.99576 0.43039 0.0
H259 H 0.09501 0.02848 0.56998 0.0
H260 H 0.07098 0.02576 0.66 0.0
H261 H 0.11556 0.00357 0.51269 0.0
H262 H 0.07514 0.04844 0.42022 0.0
H263 H 0.0455 0.06264 0.38501 0.0
H264 H 0.03714 0.01948 0.23409 0.0
H265 H 0.0668 0.00501 0.2683 0.0
C266 C 0.1636 0.00501 0.21913 0.0
C267 C 0.16082 0.98834 0.18246 0.0
C268 C 0.15076 0.01082 0.26907 0.0
C269 C 0.1348 0.00025 0.2818 0.0
C270 C 0.13172 0.9839 0.2439 0.0
C271 C 0.14474 0.97787 0.1952 0.0
C272 C 0.12168 0.00559 0.33712 0.0
C273 C 0.10434 0.01281 0.31831 0.0
C274 C 0.12605 0.00301 0.40808 0.0
C275 C 0.14437 0.99591 0.43065 0.0
C276 C 0.1503 0.97805 0.41137 0.0
C277 C 0.16771 0.97156 0.43239 0.0
C278 C 0.17923 0.98277 0.47316 0.0
C279 C 0.17334 0.00046 0.49319 0.0
C280 C 0.15595 0.00702 0.47222 0.0
C281 C 0.04966 0.00146 0.53025 0.0
C282 C 0.05227 0.00954 0.59598 0.0
C283 C 0.06337 0.0028 0.47958 0.0
C284 C 0.07984 0.0126 0.49289 0.0
C285 C 0.08238 0.02093 0.55838 0.0
C286 C 0.06868 0.01939 0.60967 0.0
C287 C 0.09475 0.01281 0.43967 0.0
C288 C 0.11252 0.00662 0.4586 0.0
C289 C 0.09092 0.01686 0.36893 0.0
C290 C 0.07317 0.02558 0.34713 0.0
C291 C 0.06695 0.04192 0.37972 0.0
C292 C 0.05014 0.05003 0.35992 0.0
C293 C 0.03936 0.04191 0.30766 0.0
C294 C 0.04548 0.02574 0.27464 0.0
C295 C 0.06235 0.01763 0.29398 0.0
H296 H 0.02631 0.04818 0.29265 0.0
H297 H 0.1927 0.97772 0.4894 0.0
H298 H 0.4798 0.17742 0.19861 0.0
H299 H 0.47341 0.15578 0.29418 0.0
H300 H 0.52011 0.12227 0.23211 0.0
H301 H 0.52689 0.14404 0.13768 0.0
H302 H 0.48369 0.10276 0.26473 0.0
H303 H 0.52867 0.14808 0.35396 0.0
H304 H 0.53874 0.18008 0.37973 0.0
H305 H 0.49034 0.18841 0.50598 0.0
H306 H 0.47986 0.15652 0.48007 0.0
H307 H 0.51274 0.04495 0.53319 0.0
H308 H 0.50835 0.06687 0.43837 0.0
H309 H 0.47621 0.10233 0.57355 0.0
H310 H 0.48125 0.08053 0.67001 0.0
H311 H 0.49902 0.12249 0.50545 0.0
H312 H 0.45571 0.07708 0.43565 0.0
H313 H 0.44261 0.04632 0.40835 0.0
H314 H 0.48309 0.03882 0.24716 0.0
H315 H 0.49655 0.0695 0.27374 0.0
C316 C 0.48861 0.16536 0.20505 0.0
C317 C 0.50389 0.16242 0.16098 0.0
C318 C 0.48494 0.15306 0.25955 0.0
C319 C 0.4963 0.1375 0.26983 0.0
C320 C 0.51118 0.13421 0.22461 0.0
C321 C 0.51508 0.14668 0.17104 0.0
C322 C 0.49332 0.12507 0.32975 0.0
C323 C 0.48709 0.10694 0.31746 0.0
C324 C 0.49699 0.13093 0.39851 0.0
C325 C 0.50337 0.15003 0.41436 0.0
C326 C 0.52009 0.1568 0.38665 0.0
C327 C 0.52589 0.1749 0.4014 0.0
C328 C 0.51516 0.1863 0.44427 0.0
C329 C 0.49862 0.17959 0.47266 0.0
C330 C 0.49275 0.1615 0.45798 0.0
C331 C 0.50461 0.05735 0.54259 0.0
C332 C 0.4973 0.06108 0.60875 0.0
C333 C 0.50196 0.06981 0.48813 0.0
C334 C 0.49161 0.08611 0.49824 0.0
C335 C 0.48416 0.0898 0.56438 0.0
C336 C 0.48703 0.07739 0.61937 0.0
C337 C 0.48987 0.09975 0.44075 0.0
C338 C 0.49523 0.11821 0.45322 0.0
C339 C 0.48497 0.09426 0.3723 0.0
C340 C 0.47719 0.0756 0.35693 0.0
C341 C 0.46193 0.06882 0.39478 0.0
C342 C 0.45442 0.0514 0.37934 0.0
C343 C 0.46202 0.04063 0.32609 0.0
C344 C 0.4772 0.04721 0.28834 0.0
C345 C 0.48475 0.06463 0.30344 0.0
H346 H 0.45609 0.02723 0.31378 0.0
H347 H 0.51967 0.2003 0.45565 0.0
H348 H 0.32375 0.47307 0.21278 0.0
H349 H 0.34594 0.46873 0.30845 0.0
H350 H 0.37691 0.51636 0.23834 0.0
H351 H 0.35454 0.52114 0.14394 0.0
H352 H 0.39765 0.47939 0.27371 0.0
H353 H 0.35316 0.52599 0.35932 0.0
H354 H 0.32133 0.53624 0.38645 0.0
H355 H 0.3142 0.48935 0.5217 0.0
H356 H 0.34593 0.4787 0.4945 0.0
H357 H 0.45827 0.51187 0.52744 0.0
H358 H 0.43531 0.5064 0.43692 0.0
H359 H 0.40088 0.47698 0.58384 0.0
H360 H 0.42373 0.48318 0.67598 0.0
H361 H 0.38017 0.49861 0.51279 0.0
H362 H 0.42478 0.45414 0.44835 0.0
H363 H 0.45533 0.44057 0.42142 0.0
H364 H 0.46143 0.47795 0.24911 0.0
H365 H 0.431 0.49192 0.2754 0.0
C366 C 0.33534 0.48257 0.21764 0.0
C367 C 0.33741 0.49749 0.17113 0.0
C368 C 0.34796 0.48006 0.27218 0.0
C369 C 0.36301 0.49221 0.28003 0.0
C370 C 0.36537 0.50683 0.23274 0.0
C371 C 0.35255 0.50959 0.17919 0.0
C372 C 0.376 0.49018 0.33901 0.0
C373 C 0.39397 0.48366 0.32604 0.0
C374 C 0.37077 0.49492 0.40751 0.0
C375 C 0.3518 0.50143 0.42419 0.0
C376 C 0.34473 0.51778 0.39428 0.0
C377 C 0.32673 0.52368 0.4098 0.0
C378 C 0.31572 0.51342 0.45558 0.0
C379 C 0.32272 0.49727 0.48613 0.0
C380 C 0.34071 0.4913 0.47072 0.0
C381 C 0.44587 0.50411 0.5404 0.0
C382 C 0.44275 0.49791 0.6086 0.0
C383 C 0.4328 0.50084 0.48839 0.0
C384 C 0.41649 0.49092 0.50298 0.0
C385 C 0.4134 0.48458 0.57119 0.0
C386 C 0.42642 0.4881 0.62372 0.0
C387 C 0.4023 0.48837 0.44761 0.0
C388 C 0.38398 0.494 0.46101 0.0
C389 C 0.40713 0.48232 0.37978 0.0
C390 C 0.42559 0.47414 0.36409 0.0
C391 C 0.43269 0.45958 0.40504 0.0
C392 C 0.44998 0.4518 0.38984 0.0
C393 C 0.46031 0.45839 0.3336 0.0
C394 C 0.4534 0.47284 0.2926 0.0
C395 C 0.4361 0.48067 0.30755 0.0
H396 H 0.47362 0.45226 0.32155 0.0
H397 H 0.30178 0.51801 0.46753 0.0
H398 H 0.02516 0.35395 0.1743 0.0
H399 H 0.03045 0.37814 0.2615 0.0
H400 H 0.97149 0.38187 0.29734 0.0
H401 H 0.96606 0.35795 0.20963 0.0
H402 H 0.98725 0.41586 0.29447 0.0
H403 H 0.99942 0.35665 0.4049 0.0
H404 H 0.01502 0.32636 0.41747 0.0
H405 H 0.06785 0.35367 0.43191 0.0
H406 H 0.05256 0.38413 0.41851 0.0
H407 H 0.97678 0.44765 0.63842 0.0
H408 H 0.97801 0.42823 0.53417 0.0
H409 H 0.03662 0.4391 0.51475 0.0
H410 H 0.03544 0.45888 0.61893 0.0
H411 H 0.02539 0.40037 0.50165 0.0
H412 H 0.01172 0.46023 0.41152 0.0
H413 H 0.99528 0.49013 0.40343 0.0
H414 H 0.94469 0.46169 0.35264 0.0
H415 H 0.9608 0.43156 0.36136 0.0
C416 C 0.01331 0.36001 0.20042 0.0
C417 C 0.99519 0.35394 0.18543 0.0
C418 C 0.01636 0.3738 0.2503 0.0
C419 C 0.00137 0.38165 0.2864 0.0
C420 C 0.98325 0.376 0.27004 0.0
C421 C 0.98018 0.36226 0.22011 0.0
C422 C 0.00447 0.39518 0.34331 0.0
C423 C 0.99551 0.41246 0.33992 0.0
C424 C 0.0157 0.39092 0.40165 0.0
C425 C 0.02488 0.37263 0.40985 0.0
C426 C 0.01438 0.35618 0.41019 0.0
C427 C 0.02316 0.33899 0.41757 0.0
C428 C 0.04242 0.33809 0.42525 0.0
C429 C 0.05293 0.35439 0.42579 0.0
C430 C 0.04422 0.37162 0.41834 0.0
C431 C 0.98996 0.44578 0.61227 0.0
C432 C 0.00605 0.45465 0.63661 0.0
C433 C 0.99061 0.43481 0.5526 0.0
C434 C 0.00737 0.43237 0.51681 0.0
C435 C 0.02357 0.44087 0.54183 0.0
C436 C 0.02288 0.45211 0.60109 0.0
C437 C 0.00778 0.4208 0.45346 0.0
C438 C 0.01739 0.4039 0.45565 0.0
C439 C 0.99709 0.4254 0.3942 0.0
C440 C 0.98741 0.44357 0.38809 0.0
C441 C 0.99704 0.4603 0.39935 0.0
C442 C 0.9878 0.47731 0.39437 0.0
C443 C 0.96895 0.4778 0.37751 0.0
C444 C 0.9593 0.46129 0.36565 0.0
C445 C 0.96848 0.44424 0.3706 0.0
H446 H 0.96181 0.49098 0.37371 0.0
H447 H 0.04919 0.32476 0.43098 0.0
H448 H 0.84082 0.92685 0.03485 0.0
H449 H 0.86728 0.93813 0.96827 0.0
H450 H 0.87595 0.98173 0.11887 0.0
H451 H 0.84907 0.9708 0.18493 0.0
H452 H 0.87922 0.99535 0.99396 0.0
H453 H 0.90603 0.9437 0.11039 0.0
H454 H 0.9086 0.91149 0.15291 0.0
H455 H 0.90854 0.89143 0.94253 0.0
H456 H 0.90605 0.92347 0.89881 0.0
H457 H 0.96755 0.01616 0.83548 0.0
H458 H 0.94506 0.00566 0.92295 0.0
H459 H 0.92098 0.96817 0.77287 0.0
H460 H 0.94316 0.97881 0.6851 0.0
H461 H 0.92833 0.95255 0.91024 0.0
H462 H 0.89939 0.0059 0.79835 0.0
H463 H 0.89847 0.03867 0.76146 0.0
H464 H 0.90439 0.0562 0.97388 0.0
H465 H 0.90561 0.02349 0.01192 0.0
C466 C 0.84837 0.93881 0.05398 0.0
C467 C 0.84287 0.9479 0.11526 0.0
C468 C 0.8636 0.94517 0.01609 0.0
C469 C 0.87385 0.96058 0.03921 0.0
C470 C 0.86831 0.96977 0.10018 0.0
C471 C 0.85296 0.9635 0.13788 0.0
C472 C 0.88989 0.96739 0.99807 0.0
C473 C 0.89014 0.98605 0.97687 0.0
C474 C 0.90415 0.9553 0.97536 0.0
C475 C 0.90573 0.93598 0.00136 0.0
C476 C 0.9065 0.9324 0.07323 0.0
C477 C 0.90801 0.91417 0.09755 0.0
C478 C 0.90878 0.89941 0.05048 0.0
C479 C 0.90808 0.90285 0.97899 0.0
C480 C 0.90666 0.92105 0.95439 0.0
C481 C 0.95745 0.00567 0.82135 0.0
C482 C 0.95693 0.99837 0.75359 0.0
C483 C 0.94466 0.99971 0.8712 0.0
C484 C 0.93138 0.98621 0.85407 0.0
C485 C 0.93116 0.9786 0.78691 0.0
C486 C 0.94373 0.98476 0.73684 0.0
C487 C 0.91732 0.98028 0.90531 0.0
C488 C 0.9175 0.96183 0.92834 0.0
C489 C 0.90368 0.99263 0.9307 0.0
C490 C 0.90281 0.01227 0.90786 0.0
C491 C 0.90067 0.01674 0.83711 0.0
C492 C 0.90005 0.0353 0.81601 0.0
C493 C 0.90143 0.04951 0.86527 0.0
C494 C 0.90336 0.04518 0.93577 0.0
C495 C 0.904 0.02664 0.95713 0.0
H496 H 0.90095 0.06387 0.84884 0.0
H497 H 0.90991 0.88531 0.06945 0.0
H498 H 0.50812 0.84435 0.15074 0.0
H499 H 0.49829 0.87031 0.07725 0.0
H500 H 0.55551 0.88497 0.04175 0.0
H501 H 0.56549 0.85895 0.11463 0.0
H502 H 0.53186 0.9157 0.0731 0.0
H503 H 0.53456 0.86237 0.9205 0.0
H504 H 0.52684 0.83041 0.88464 0.0
H505 H 0.46893 0.84438 0.88061 0.0
H506 H 0.4763 0.87637 0.91745 0.0
H507 H 0.52354 0.97593 0.78491 0.0
H508 H 0.53169 0.95184 0.86901 0.0
H509 H 0.47621 0.92941 0.85274 0.0
H510 H 0.46868 0.95288 0.76455 0.0
H511 H 0.49793 0.90273 0.85372 0.0
H512 H 0.49479 0.9569 0.99805 0.0
H513 H 0.50211 0.98878 0.03592 0.0
H514 H 0.55937 0.97385 0.06163 0.0
H515 H 0.55253 0.94203 0.022 0.0
C516 C 0.51861 0.85313 0.12749 0.0
C517 C 0.53758 0.84956 0.13813 0.0
C518 C 0.51297 0.86793 0.08554 0.0
C519 C 0.5262 0.87946 0.05401 0.0
C520 C 0.54512 0.87621 0.0658 0.0
C521 C 0.55078 0.86129 0.10709 0.0
C522 C 0.52033 0.89458 0.00683 0.0
C523 C 0.52455 0.91296 0.02478 0.0
C524 C 0.51039 0.8909 0.94497 0.0
C525 C 0.50596 0.8717 0.92247 0.0
C526 C 0.52017 0.85858 0.91256 0.0
C527 C 0.51586 0.84047 0.89194 0.0
C528 C 0.4974 0.83535 0.88055 0.0
C529 C 0.48322 0.84835 0.88957 0.0
C530 C 0.48745 0.86648 0.91027 0.0
C531 C 0.51311 0.96596 0.80033 0.0
C532 C 0.49548 0.96628 0.7697 0.0
C533 C 0.51769 0.95224 0.84854 0.0
C534 C 0.50443 0.93902 0.86901 0.0
C535 C 0.48669 0.93947 0.83822 0.0
C536 C 0.48234 0.95285 0.78814 0.0
C537 C 0.50933 0.92417 0.91962 0.0
C538 C 0.505 0.90571 0.9023 0.0
C539 C 0.51901 0.92787 0.98252 0.0
C540 C 0.52314 0.94706 0.00653 0.0
C541 C 0.50897 0.96044 0.01121 0.0
C542 C 0.51304 0.97852 0.03295 0.0
C543 C 0.53119 0.98334 0.05112 0.0
C544 C 0.54532 0.9701 0.04749 0.0
C545 C 0.54136 0.95205 0.02527 0.0
H546 H 0.5343 0.99733 0.06806 0.0
H547 H 0.4941 0.82132 0.86458 0.0
H548 H 0.64653 0.54505 0.16808 0.0
H549 H 0.62063 0.54129 0.08655 0.0
H550 H 0.6413 0.4873 0.02849 0.0
H551 H 0.66707 0.4908 0.11054 0.0
H552 H 0.63138 0.51143 0.91418 0.0
H553 H 0.60648 0.4883 0.13208 0.0
H554 H 0.59859 0.49079 0.25654 0.0
H555 H 0.56403 0.53798 0.21363 0.0
H556 H 0.57191 0.53591 0.08895 0.0
H557 H 0.55697 0.47482 0.72301 0.0
H558 H 0.58182 0.47983 0.80767 0.0
H559 H 0.55118 0.52563 0.89613 0.0
H560 H 0.52594 0.52001 0.81322 0.0
H561 H 0.56622 0.50752 0.99584 0.0
H562 H 0.58927 0.53177 0.78264 0.0
H563 H 0.5972 0.53199 0.6579 0.0
H564 H 0.63533 0.48698 0.68977 0.0
H565 H 0.62744 0.48632 0.81459 0.0
C566 C 0.64559 0.5324 0.13781 0.0
C567 C 0.65882 0.5182 0.14573 0.0
C568 C 0.63077 0.53026 0.09152 0.0
C569 C 0.62905 0.51399 0.05193 0.0
C570 C 0.64241 0.49994 0.05875 0.0
C571 C 0.65708 0.50195 0.10572 0.0
C572 C 0.61334 0.51156 0.00319 0.0
C573 C 0.61713 0.51036 0.93187 0.0
C574 C 0.59475 0.51089 0.02645 0.0
C575 C 0.58994 0.51207 0.10132 0.0
C576 C 0.59733 0.49931 0.14927 0.0
C577 C 0.59283 0.50062 0.21983 0.0
C578 C 0.58086 0.51456 0.24301 0.0
C579 C 0.57332 0.5272 0.19562 0.0
C580 C 0.57778 0.52595 0.125 0.0
C581 C 0.55555 0.48587 0.76085 0.0
C582 C 0.5396 0.49701 0.76197 0.0
C583 C 0.56979 0.48883 0.80889 0.0
C584 C 0.5686 0.50338 0.85747 0.0
C585 C 0.55246 0.51434 0.8592 0.0
C586 C 0.53804 0.51112 0.81199 0.0
C587 C 0.58419 0.50713 0.90622 0.0
C588 C 0.58042 0.50865 0.97768 0.0
C589 C 0.6028 0.50852 0.88292 0.0
C590 C 0.60764 0.50889 0.80788 0.0
C591 C 0.59925 0.52183 0.76296 0.0
C592 C 0.60375 0.52205 0.69225 0.0
C593 C 0.61673 0.50948 0.6659 0.0
C594 C 0.62527 0.4967 0.71025 0.0
C595 C 0.6208 0.49641 0.781 0.0
H596 H 0.6202 0.50967 0.61114 0.0
H597 H 0.57739 0.51556 0.29765 0.0
H598 H 0.98629 0.66055 0.20787 0.0
H599 H 0.99721 0.63588 0.13044 0.0
H600 H 0.948 0.64202 0.0046 0.0
H601 H 0.93701 0.66671 0.08135 0.0
H602 H 0.98199 0.60222 0.09375 0.0
H603 H 0.96057 0.63701 0.83478 0.0
H604 H 0.95619 0.66849 0.78691 0.0
H605 H 0.99552 0.6902 0.93388 0.0
H606 H 0.00032 0.65883 0.98195 0.0
H607 H 0.9781 0.53897 0.81016 0.0
H608 H 0.971 0.56367 0.89335 0.0
H609 H 0.02181 0.59169 0.83844 0.0
H610 H 0.02923 0.56674 0.75614 0.0
H611 H 0.99047 0.61507 0.84206 0.0
H612 H 0.0214 0.57033 0.98414 0.0
H613 H 0.02756 0.5394 0.03388 0.0
H614 H 0.973 0.53843 0.12315 0.0
H615 H 0.96637 0.56922 0.07279 0.0
C616 C 0.97777 0.65661 0.16383 0.0
C617 C 0.96083 0.66564 0.15051 0.0
C618 C 0.984 0.64248 0.11983 0.0
C619 C 0.97349 0.63729 0.06152 0.0
C620 C 0.95642 0.64601 0.04889 0.0
C621 C 0.95014 0.66007 0.09293 0.0
C622 C 0.98047 0.62293 0.01313 0.0
C623 C 0.98386 0.60501 0.03874 0.0
C624 C 0.98321 0.62671 0.94164 0.0
C625 C 0.98067 0.64559 0.91233 0.0
C626 C 0.96834 0.64849 0.85664 0.0
C627 C 0.96577 0.66632 0.82952 0.0
C628 C 0.97553 0.68134 0.85747 0.0
C629 C 0.98793 0.67856 0.91244 0.0
C630 C 0.99056 0.66077 0.9397 0.0
C631 C 0.98783 0.55031 0.81626 0.0
C632 C 0.00432 0.55088 0.77741 0.0
C633 C 0.98375 0.5644 0.86364 0.0
C634 C 0.99597 0.57938 0.87226 0.0
C635 C 0.01225 0.58019 0.83249 0.0
C636 C 0.01647 0.56596 0.78569 0.0
C637 C 0.99158 0.59429 0.92243 0.0
C638 C 0.98865 0.61229 0.8971 0.0
C639 C 0.98948 0.59063 0.99427 0.0
C640 C 0.99334 0.57203 0.02422 0.0
C641 C 0.01064 0.56345 0.01378 0.0
C642 C 0.01424 0.54595 0.0422 0.0
C643 C 0.00069 0.53697 0.08169 0.0
C644 C 0.98349 0.54542 0.09264 0.0
C645 C 0.9798 0.5629 0.06414 0.0
H646 H 0.00353 0.52345 0.10386 0.0
H647 H 0.97351 0.69513 0.83645 0.0
H648 H 0.97669 0.24236 0.08894 0.0
H649 H 0.97691 0.21158 0.14269 0.0
H650 H 0.02507 0.22702 0.26365 0.0
H651 H 0.02562 0.25727 0.20556 0.0
H652 H 0.02941 0.19393 0.23107 0.0
H653 H 0.97782 0.2253 0.33131 0.0
H654 H 0.94872 0.2433 0.33428 0.0
H655 H 0.92056 0.19965 0.2245 0.0
H656 H 0.94956 0.18149 0.22007 0.0
H657 H 0.01367 0.11773 0.46899 0.0
H658 H 0.0156 0.14931 0.42271 0.0
H659 H 0.98143 0.13339 0.24845 0.0
H660 H 0.98011 0.10164 0.2921 0.0
H661 H 0.97052 0.16739 0.31983 0.0
H662 H 0.02434 0.13674 0.22144 0.0
H663 H 0.0537 0.11932 0.22844 0.0
H664 H 0.07795 0.16303 0.35032 0.0
H665 H 0.04861 0.18064 0.34475 0.0
C666 C 0.98732 0.23909 0.1269 0.0
C667 C 0.00108 0.25212 0.14352 0.0
C668 C 0.98737 0.22156 0.15812 0.0
C669 C 0.00068 0.21705 0.20908 0.0
C670 C 0.01459 0.23008 0.22487 0.0
C671 C 0.01489 0.24738 0.19187 0.0
C672 C 0.00011 0.19876 0.24553 0.0
C673 C 0.01655 0.18837 0.25159 0.0
C674 C 0.98338 0.19125 0.27232 0.0
C675 C 0.9659 0.2021 0.27492 0.0
C676 C 0.96544 0.21959 0.30743 0.0
C677 C 0.94897 0.22981 0.30941 0.0
C678 C 0.93281 0.22263 0.27947 0.0
C679 C 0.93309 0.2052 0.24762 0.0
C680 C 0.94954 0.19492 0.24543 0.0
C681 C 0.00677 0.12083 0.42032 0.0
C682 C 0.9967 0.10703 0.38445 0.0
C683 C 0.00777 0.13894 0.3943 0.0
C684 C 0.9986 0.14364 0.33237 0.0
C685 C 0.98846 0.13003 0.29671 0.0
C686 C 0.98765 0.11189 0.32207 0.0
C687 C 0.99966 0.1627 0.30388 0.0
C688 C 0.98334 0.17321 0.29989 0.0
C689 C 0.01654 0.17045 0.2805 0.0
C690 C 0.03421 0.15992 0.28332 0.0
C691 C 0.03587 0.14257 0.25025 0.0
C692 C 0.05253 0.13268 0.25382 0.0
C693 C 0.06767 0.14003 0.28998 0.0
C694 C 0.0662 0.15734 0.32242 0.0
C695 C 0.04957 0.16729 0.31899 0.0
H696 H 0.08055 0.13235 0.29273 0.0
H697 H 0.92007 0.23057 0.28107 0.0
H698 H 0.27178 0.99696 0.04196 0.0
H699 H 0.30293 0.99798 0.09298 0.0
H700 H 0.28466 0.96229 0.25964 0.0
H701 H 0.25334 0.96167 0.20945 0.0
H702 H 0.30372 0.99164 0.30899 0.0
H703 H 0.31114 0.94622 0.13142 0.0
H704 H 0.31078 0.9326 0.01384 0.0
H705 H 0.35047 0.97304 0.9452 0.0
H706 H 0.35046 0.98747 0.06146 0.0
H707 H 0.40869 0.9656 0.34151 0.0
H708 H 0.37799 0.9607 0.29003 0.0
H709 H 0.3642 0.01807 0.32863 0.0
H710 H 0.39479 0.02301 0.38049 0.0
H711 H 0.36103 0.97509 0.18056 0.0
H712 H 0.31849 0.02207 0.36506 0.0
H713 H 0.31953 0.03332 0.48623 0.0
H714 H 0.3505 0.98505 0.54688 0.0
H715 H 0.34946 0.97338 0.42621 0.0
C716 C 0.27437 0.98959 0.09006 0.0
C717 C 0.26008 0.97966 0.12293 0.0
C718 C 0.29223 0.98994 0.11858 0.0
C719 C 0.29612 0.98021 0.18019 0.0
C720 C 0.28193 0.96995 0.21224 0.0
C721 C 0.2641 0.96954 0.18348 0.0
C722 C 0.31482 0.98125 0.21254 0.0
C723 C 0.31624 0.988 0.28086 0.0
C724 C 0.33116 0.97629 0.17613 0.0
C725 C 0.33062 0.96808 0.1052 0.0
C726 C 0.31953 0.95246 0.09098 0.0
C727 C 0.31939 0.94458 0.02448 0.0
C728 C 0.33051 0.95203 0.97196 0.0
C729 C 0.34176 0.96738 0.98579 0.0
C730 C 0.34177 0.97546 0.05191 0.0
C731 C 0.39915 0.97719 0.33864 0.0
C732 C 0.40411 0.99466 0.36551 0.0
C733 C 0.3816 0.97436 0.30934 0.0
C734 C 0.36868 0.98894 0.30635 0.0
C735 C 0.37377 0.0065 0.33175 0.0
C736 C 0.39126 0.0093 0.3614 0.0
C737 C 0.34992 0.98582 0.27635 0.0
C738 C 0.34848 0.97873 0.20853 0.0
C739 C 0.33354 0.99024 0.31343 0.0
C740 C 0.33403 0.99695 0.38643 0.0
C741 C 0.32545 0.01381 0.40431 0.0
C742 C 0.32606 0.02027 0.47287 0.0
C743 C 0.33513 0.00994 0.52412 0.0
C744 C 0.34355 0.99307 0.50702 0.0
C745 C 0.34297 0.98654 0.43853 0.0
H746 H 0.33561 0.01501 0.57708 0.0
H747 H 0.33045 0.94587 0.92059 0.0
H748 H 0.51479 0.24896 0.22114 0.0
H749 H 0.51547 0.27996 0.2741 0.0
H750 H 0.50834 0.3047 0.07129 0.0
H751 H 0.50851 0.27366 0.01826 0.0
H752 H 0.53358 0.32369 0.14639 0.0
H753 H 0.47219 0.30068 0.18343 0.0
H754 H 0.44823 0.27844 0.22163 0.0
H755 H 0.4677 0.283 0.43216 0.0
H756 H 0.4919 0.30507 0.39481 0.0
H757 H 0.50249 0.41258 0.26253 0.0
H758 H 0.50531 0.382 0.20845 0.0
H759 H 0.51561 0.35749 0.40945 0.0
H760 H 0.51325 0.38807 0.4639 0.0
H761 H 0.48912 0.33861 0.33519 0.0
H762 H 0.55104 0.36119 0.29732 0.0
H763 H 0.57461 0.38372 0.25838 0.0
H764 H 0.55346 0.38055 0.04973 0.0
H765 H 0.52957 0.35826 0.0879 0.0
C766 C 0.51366 0.26108 0.18809 0.0
C767 C 0.51168 0.25912 0.11596 0.0
C768 C 0.5139 0.27874 0.21823 0.0
C769 C 0.5118 0.29468 0.17672 0.0
C770 C 0.51014 0.29265 0.10426 0.0
C771 C 0.51014 0.27497 0.07407 0.0
C772 C 0.51106 0.3134 0.2091 0.0
C773 C 0.52367 0.32702 0.18692 0.0
C774 C 0.49844 0.31765 0.26327 0.0
C775 C 0.48395 0.30436 0.28608 0.0
C776 C 0.47142 0.2968 0.23768 0.0
C777 C 0.4578 0.28425 0.25921 0.0
C778 C 0.45648 0.27926 0.32925 0.0
C779 C 0.46876 0.28685 0.37789 0.0
C780 C 0.48242 0.29939 0.35655 0.0
C781 C 0.50569 0.40076 0.29518 0.0
C782 C 0.50765 0.40282 0.36765 0.0
C783 C 0.50724 0.38327 0.26416 0.0
C784 C 0.51076 0.36749 0.30491 0.0
C785 C 0.51283 0.36949 0.3771 0.0
C786 C 0.51139 0.38698 0.40814 0.0
C787 C 0.51164 0.34882 0.27252 0.0
C788 C 0.49902 0.33524 0.29463 0.0
C789 C 0.52421 0.34463 0.2183 0.0
C790 C 0.5385 0.3581 0.1954 0.0
C791 C 0.55135 0.3654 0.24323 0.0
C792 C 0.56477 0.37812 0.22133 0.0
C793 C 0.56553 0.38357 0.15164 0.0
C794 C 0.55287 0.37631 0.1037 0.0
C795 C 0.53941 0.3636 0.12539 0.0
H796 H 0.57594 0.39342 0.13477 0.0
H797 H 0.44592 0.26955 0.34586 0.0
H798 H 0.23654 0.52932 0.09061 0.0
H799 H 0.2062 0.53062 0.14771 0.0
H800 H 0.20071 0.4713 0.12691 0.0
H801 H 0.23154 0.46974 0.07476 0.0
H802 H 0.16724 0.49548 0.08822 0.0
H803 H 0.21202 0.4822 0.27038 0.0
H804 H 0.24077 0.48784 0.33676 0.0
H805 H 0.22155 0.54238 0.39095 0.0
H806 H 0.19279 0.53715 0.32386 0.0
H807 H 0.09455 0.47699 0.3265 0.0
H808 H 0.12401 0.47617 0.26333 0.0
H809 H 0.13527 0.53256 0.32607 0.0
H810 H 0.10597 0.53337 0.39029 0.0
H811 H 0.16571 0.51041 0.34048 0.0
H812 H 0.12165 0.52506 0.16508 0.0
H813 H 0.09179 0.52075 0.1047 0.0
H814 H 0.10896 0.4666 0.03704 0.0
H815 H 0.13896 0.47055 0.09734 0.0
C816 C 0.22883 0.51656 0.09781 0.0
C817 C 0.23621 0.49946 0.07589 0.0
C818 C 0.2115 0.51735 0.13011 0.0
C819 C 0.2012 0.50108 0.14059 0.0
C820 C 0.20835 0.48404 0.11797 0.0
C821 C 0.22585 0.4832 0.08702 0.0
C822 C 0.18354 0.50174 0.17931 0.0
C823 C 0.16688 0.49852 0.1435 0.0
C824 C 0.18313 0.50622 0.25091 0.0
C825 C 0.20037 0.50937 0.29138 0.0
C826 C 0.21402 0.49547 0.29581 0.0
C827 C 0.23029 0.49857 0.3337 0.0
C828 C 0.23302 0.51548 0.36786 0.0
C829 C 0.21944 0.5293 0.36434 0.0
C830 C 0.20315 0.52627 0.32642 0.0
C831 C 0.10338 0.48915 0.32726 0.0
C832 C 0.09793 0.50526 0.36314 0.0
C833 C 0.12013 0.48872 0.29077 0.0
C834 C 0.13174 0.50437 0.28954 0.0
C835 C 0.12649 0.52036 0.32624 0.0
C836 C 0.10969 0.52084 0.36241 0.0
C837 C 0.14934 0.50405 0.2497 0.0
C838 C 0.16602 0.50737 0.2852 0.0
C839 C 0.14974 0.49995 0.17764 0.0
C840 C 0.13239 0.49797 0.13677 0.0
C841 C 0.11905 0.51222 0.13738 0.0
C842 C 0.10211 0.50985 0.1032 0.0
C843 C 0.09841 0.49335 0.06772 0.0
C844 C 0.11183 0.47935 0.06484 0.0
C845 C 0.12883 0.48166 0.0989 0.0
H846 H 0.08512 0.49149 0.04257 0.0
H847 H 0.24562 0.51786 0.39721 0.0
H848 H 0.00118 0.75434 0.16403 0.0
H849 H 0.00931 0.78404 0.11023 0.0
H850 H 0.95882 0.80815 0.19064 0.0
H851 H 0.95011 0.77806 0.23971 0.0
H852 H 0.96204 0.81757 0.06441 0.0
H853 H 0.0078 0.81629 0.25576 0.0
H854 H 0.03461 0.80337 0.31967 0.0
H855 H 0.06734 0.80446 0.13382 0.0
H856 H 0.04085 0.81732 0.06843 0.0
H857 H 0.97696 0.91296 0.01611 0.0
H858 H 0.97223 0.88167 0.06186 0.0
H859 H 0.02449 0.86446 0.97321 0.0
H860 H 0.02963 0.89597 0.93054 0.0
H861 H 0.02222 0.85002 0.09205 0.0
H862 H 0.98134 0.85239 0.90191 0.0
H863 H 0.9567 0.86367 0.82373 0.0
H864 H 0.91656 0.85736 0.98687 0.0
H865 H 0.94107 0.84662 0.06688 0.0
C866 C 0.99194 0.76608 0.17048 0.0
C867 C 0.97503 0.764 0.20581 0.0
C868 C 0.99665 0.78311 0.14024 0.0
C869 C 0.98484 0.79855 0.14704 0.0
C870 C 0.96816 0.7965 0.18421 0.0
C871 C 0.96318 0.77933 0.21239 0.0
C872 C 0.98907 0.81656 0.11228 0.0
C873 C 0.9751 0.82481 0.07164 0.0
C874 C 0.00654 0.82551 0.11733 0.0
C875 C 0.02229 0.8176 0.15707 0.0
C876 C 0.02067 0.81367 0.22842 0.0
C877 C 0.03581 0.80639 0.26493 0.0
C878 C 0.05258 0.80303 0.2309 0.0
C879 C 0.05433 0.80702 0.16015 0.0
C880 C 0.03929 0.81434 0.12335 0.0
C881 C 0.98737 0.90246 0.00604 0.0
C882 C 0.00359 0.90687 0.9691 0.0
C883 C 0.98463 0.88454 0.03198 0.0
C884 C 0.99783 0.87052 0.01995 0.0
C885 C 0.01408 0.87496 0.98326 0.0
C886 C 0.01698 0.89298 0.95859 0.0
C887 C 0.99486 0.85139 0.04704 0.0
C888 C 0.00912 0.84282 0.08512 0.0
C889 C 0.97785 0.84186 0.03792 0.0
C890 C 0.96311 0.84884 0.99064 0.0
C891 C 0.96731 0.85364 0.92148 0.0
C892 C 0.95336 0.85995 0.8768 0.0
C893 C 0.93509 0.86129 0.90038 0.0
C894 C 0.93074 0.85639 0.96878 0.0
C895 C 0.94467 0.85023 0.01387 0.0
H896 H 0.92428 0.86607 0.86558 0.0
H897 H 0.06425 0.79739 0.25943 0.0
H898 H 0.74419 0.94923 0.07948 0.0
H899 H 0.71288 0.9579 0.04168 0.0
H900 H 0.69811 0.97003 0.25437 0.0
H901 H 0.72897 0.96037 0.29226 0.0
H902 H 0.67032 0.9562 0.20046 0.0
H903 H 0.70979 0.00508 0.12667 0.0
H904 H 0.73641 0.0201 0.06912 0.0
H905 H 0.71739 0.00029 0.87072 0.0
H906 H 0.69078 0.98494 0.92721 0.0
H907 H 0.58979 0.00823 0.10635 0.0
H908 H 0.62027 0.99919 0.14997 0.0
H909 H 0.63533 0.97952 0.94588 0.0
H910 H 0.60541 0.98969 0.90054 0.0
H911 H 0.66278 0.99888 6e-05 0.0
H912 H 0.62207 0.94956 0.08897 0.0
H913 H 0.5949 0.93891 0.15609 0.0
H914 H 0.61634 0.96557 0.33929 0.0
H915 H 0.64354 0.97647 0.27306 0.0
C916 C 0.73422 0.95379 0.11797 0.0
C917 C 0.73922 0.95498 0.18842 0.0
C918 C 0.71638 0.95891 0.09636 0.0
C919 C 0.70327 0.96545 0.14478 0.0
C920 C 0.70805 0.96564 0.21563 0.0
C921 C 0.7258 0.96037 0.23721 0.0
C922 C 0.68462 0.97207 0.12187 0.0
C923 C 0.66877 0.96568 0.15703 0.0
C924 C 0.68238 0.98456 0.0655 0.0
C925 C 0.69841 0.99369 0.03128 0.0
C926 C 0.71137 0.0038 0.07083 0.0
C927 C 0.72644 0.0124 0.03839 0.0
C928 C 0.72862 0.0111 0.96634 0.0
C929 C 0.7157 0.00125 0.92654 0.0
C930 C 0.70062 0.99261 0.95874 0.0
C931 C 0.59964 0.00221 0.07037 0.0
C932 C 0.59504 0.99972 -0.00026 0.0
C933 C 0.61702 0.99682 0.09571 0.0
C934 C 0.63006 0.98846 0.05142 0.0
C935 C 0.6255 0.98591 0.98106 0.0
C936 C 0.60825 0.99153 0.95542 0.0
C937 C 0.64861 0.98264 0.07752 0.0
C938 C 0.66444 0.98932 0.04322 0.0
C939 C 0.65085 0.97093 0.13604 0.0
C940 C 0.63478 0.96384 0.17607 0.0
C941 C 0.62097 0.95313 0.14356 0.0
C942 C 0.60557 0.94706 0.18143 0.0
C943 C 0.6039 0.95155 0.25191 0.0
C944 C 0.61766 0.96206 0.28475 0.0
C945 C 0.63309 0.96815 0.24713 0.0
H946 H 0.59195 0.94688 0.28108 0.0
H947 H 0.74029 0.01778 0.94131 0.0
H948 H 0.56131 0.73831 0.20103 0.0
H949 H 0.55616 0.70586 0.16725 0.0
H950 H 0.49764 0.71675 0.14454 0.0
H951 H 0.50281 0.74931 0.17555 0.0
H952 H 0.50583 0.68407 0.22236 0.0
H953 H 0.52202 0.71334 0.0048 0.0
H954 H 0.5418 0.73195 0.92687 0.0
H955 H 0.58659 0.69339 0.95565 0.0
H956 H 0.56713 0.67468 0.03459 0.0
H957 H 0.47316 0.60791 0.02463 0.0
H958 H 0.48149 0.63778 0.0757 0.0
H959 H 0.53953 0.62398 0.0573 0.0
H960 H 0.53124 0.59403 0.00556 0.0
H961 H 0.53377 0.65726 0.00911 0.0
H962 H 0.51757 0.62692 0.2227 0.0
H963 H 0.49829 0.60861 0.3037 0.0
H964 H 0.45439 0.64852 0.28545 0.0
H965 H 0.47331 0.66705 0.20427 0.0
C966 C 0.54738 0.7338 0.18824 0.0
C967 C 0.53238 0.74622 0.1926 0.0
C968 C 0.54445 0.71527 0.16935 0.0
C969 C 0.52649 0.70888 0.15415 0.0
C970 C 0.51156 0.72134 0.15715 0.0
C971 C 0.51452 0.7399 0.1753 0.0
C972 C 0.52326 0.68929 0.13372 0.0
C973 C 0.51181 0.67819 0.17554 0.0
C974 C 0.53151 0.68153 0.07371 0.0
C975 C 0.5432 0.69274 0.02622 0.0
C976 C 0.53614 0.70893 0.99502 0.0
C977 C 0.54728 0.71947 0.95056 0.0
C978 C 0.56546 0.71389 0.93649 0.0
C979 C 0.57252 0.69772 0.96671 0.0
C980 C 0.56144 0.68713 0.01127 0.0
C981 C 0.4877 0.61108 0.0325 0.0
C982 C 0.50154 0.59857 0.01099 0.0
C983 C 0.49245 0.62817 0.06202 0.0
C984 C 0.51115 0.63308 0.07142 0.0
C985 C 0.525 0.62051 0.05077 0.0
C986 C 0.52026 0.60344 0.02086 0.0
C987 C 0.51616 0.65188 0.09747 0.0
C988 C 0.52795 0.66293 0.0566 0.0
C989 C 0.50831 0.65953 0.15869 0.0
C990 C 0.49681 0.64829 0.20691 0.0
C991 C 0.50375 0.63172 0.23556 0.0
C992 C 0.49292 0.62134 0.28168 0.0
C993 C 0.47516 0.62741 0.29969 0.0
C994 C 0.46814 0.64382 0.27136 0.0
C995 C 0.47894 0.65431 0.22552 0.0
H996 H 0.46686 0.6194 0.3357 0.0
H997 H 0.57406 0.72206 0.90203 0.0
H998 H 0.758 0.52375 0.13236 0.0
H999 H 0.79053 0.52286 0.09455 0.0
H1000 H 0.80706 0.50406 0.29853 0.0
H1001 H 0.77453 0.50498 0.33625 0.0
H1002 H 0.83131 0.53082 0.24243 0.0
H1003 H 0.80416 0.47302 0.18076 0.0
H1004 H 0.78071 0.45204 0.13037 0.0
H1005 H 0.79109 0.47455 0.92729 0.0
H1006 H 0.81442 0.49592 0.97672 0.0
H1007 H 0.91945 0.49407 0.13356 0.0
H1008 H 0.88832 0.49739 0.18225 0.0
H1009 H 0.86845 0.51836 0.98587 0.0
H1010 H 0.89963 0.51587 0.93736 0.0
H1011 H 0.84639 0.48943 0.04377 0.0
H1012 H 0.87314 0.5485 0.11131 0.0
H1013 H 0.89703 0.56833 0.16564 0.0
H1014 H 0.88824 0.54123 0.36184 0.0
H1015 H 0.86458 0.52103 0.30801 0.0
C1016 C 0.76863 0.51959 0.16908 0.0
C1017 C 0.76384 0.51402 0.23658 0.0
C1018 C 0.78715 0.51903 0.14753 0.0
C1019 C 0.80116 0.51316 0.19351 0.0
C1020 C 0.79647 0.50852 0.26214 0.0
C1021 C 0.77792 0.50887 0.28336 0.0
C1022 C 0.82052 0.51103 0.16866 0.0
C1023 C 0.83465 0.52164 0.19949 0.0
C1024 C 0.82487 0.49904 0.11266 0.0
C1025 C 0.81089 0.48622 0.08256 0.0
C1026 C 0.80132 0.47363 0.12545 0.0
C1027 C 0.78808 0.46164 0.09705 0.0
C1028 C 0.78438 0.46199 0.02569 0.0
C1029 C 0.79395 0.47432 0.98258 0.0
C1030 C 0.8072 0.48636 0.01075 0.0
C1031 C 0.90858 0.49971 0.1009 0.0
C1032 C 0.91215 0.50467 0.03129 0.0
C1033 C 0.89076 0.50149 0.12881 0.0
C1034 C 0.87611 0.50813 0.08763 0.0
C1035 C 0.87956 0.51311 0.01836 0.0
C1036 C 0.89741 0.51155 0.99063 0.0
C1037 C 0.85708 0.50957 0.11628 0.0
C1038 C 0.84303 0.49868 0.0865 0.0
C1039 C 0.85288 0.52113 0.17365 0.0
C1040 C 0.86711 0.53326 0.20581 0.0
C1041 C 0.87639 0.54672 0.16594 0.0
C1042 C 0.88989 0.55802 0.19658 0.0
C1043 C 0.89415 0.55605 0.26715 0.0
C1044 C 0.88492 0.54277 0.30721 0.0
C1045 C 0.87144 0.53142 0.27671 0.0
H1046 H 0.9046 0.56482 0.29079 0.0
H1047 H 0.77412 0.45269 0.00378 0.0
H1048 H 0.00039 0.21061 0.93344 0.0
H1049 H 0.99928 0.17981 0.88068 0.0
H1050 H 0.05855 0.17461 0.90377 0.0
H1051 H 0.05984 0.2055 0.95757 0.0
H1052 H 0.04217 0.16086 0.76979 0.0
H1053 H 0.03642 0.1563 0.01944 0.0
H1054 H 0.02272 0.16574 0.13084 0.0
H1055 H 0.96919 0.14699 0.06214 0.0
H1056 H 0.98251 0.13809 0.94865 0.0
H1057 H 0.02672 0.05513 0.84862 0.0
H1058 H 0.0324 0.08709 0.88534 0.0
H1059 H 0.00825 0.10711 0.69392 0.0
H1060 H 0.00321 0.07518 0.65569 0.0
H1061 H 0.00929 0.11373 0.91213 0.0
H1062 H 0.02599 0.14887 0.65117 0.0
H1063 H 0.0387 0.14064 0.5361 0.0
H1064 H 0.07124 0.09728 0.62905 0.0
H1065 H 0.05891 0.10542 0.74479 0.0
C1066 C 0.01325 0.20305 0.9266 0.0
C1067 C 0.0302 0.21041 0.95018 0.0
C1068 C 0.01257 0.18549 0.89626 0.0
C1069 C 0.02882 0.17502 0.88852 0.0
C1070 C 0.0459 0.18259 0.90909 0.0
C1071 C 0.04658 0.20013 0.94026 0.0
C1072 C 0.0276 0.15551 0.86537 0.0
C1073 C 0.03507 0.15048 0.80077 0.0
C1074 C 0.01836 0.14209 0.90621 0.0
C1075 C 0.01043 0.14672 0.97527 0.0
C1076 C 0.02169 0.15433 0.0278 0.0
C1077 C 0.01398 0.15959 0.0914 0.0
C1078 C 0.99507 0.15696 0.10378 0.0
C1079 C 0.98383 0.14904 0.05246 0.0
C1080 C 0.99145 0.14393 0.98837 0.0
C1081 C 0.02271 0.06634 0.8142 0.0
C1082 C 0.01455 0.06265 0.74926 0.0
C1083 C 0.02596 0.0846 0.83524 0.0
C1084 C 0.02097 0.0995 0.79206 0.0
C1085 C 0.01263 0.09585 0.72744 0.0
C1086 C 0.00965 0.07758 0.70585 0.0
C1087 C 0.02388 0.11884 0.81611 0.0
C1088 C 0.01658 0.12395 0.881 0.0
C1089 C 0.03332 0.13226 0.77544 0.0
C1090 C 0.04142 0.12769 0.70658 0.0
C1091 C 0.03597 0.13768 0.64713 0.0
C1092 C 0.04307 0.133 0.58177 0.0
C1093 C 0.05572 0.11841 0.57524 0.0
C1094 C 0.06139 0.10855 0.63415 0.0
C1095 C 0.05435 0.11318 0.69965 0.0
H1096 H 0.06115 0.11476 0.52456 0.0
H1097 H 0.9891 0.16106 0.15301 0.0
H1098 H 0.28734 0.0451 0.84572 0.0
H1099 H 0.31903 0.04699 0.80123 0.0
H1100 H 0.34032 0.04476 0.01087 0.0
H1101 H 0.30871 0.04303 0.05597 0.0
H1102 H 0.36089 0.06811 0.92526 0.0
H1103 H 0.33427 0.00678 0.92122 0.0
H1104 H 0.3111 0.9832 0.88852 0.0
H1105 H 0.32398 0.99124 0.67266 0.0
H1106 H 0.34681 0.01539 0.70392 0.0
H1107 H 0.45028 0.02912 0.87365 0.0
H1108 H 0.41855 0.03579 0.91031 0.0
H1109 H 0.40022 0.03325 0.69677 0.0
H1110 H 0.43178 0.02634 0.65963 0.0
H1111 H 0.3778 0.01387 0.77916 0.0
H1112 H 0.40418 0.0747 0.78006 0.0
H1113 H 0.42706 0.09888 0.80988 0.0
H1114 H 0.41498 0.0918 0.02693 0.0
H1115 H 0.3922 0.06737 0.99847 0.0
C1116 C 0.29874 0.04542 0.88249 0.0
C1117 C 0.29554 0.04364 0.95431 0.0
C1118 C 0.31682 0.04649 0.85694 0.0
C1119 C 0.33197 0.04568 0.90277 0.0
C1120 C 0.32879 0.04535 0.97471 0.0
C1121 C 0.31071 0.04431 0.00034 0.0
C1122 C 0.35101 0.04317 0.87586 0.0
C1123 C 0.36465 0.05621 0.89366 0.0
C1124 C 0.35574 0.02777 0.83358 0.0
C1125 C 0.34209 0.01312 0.81489 0.0
C1126 C 0.33202 0.00372 0.86671 0.0
C1127 C 0.31895 0.99023 0.84844 0.0
C1128 C 0.31605 0.98574 0.77856 0.0
C1129 C 0.32621 0.99477 0.72677 0.0
C1130 C 0.33918 0.0084 0.74472 0.0
C1131 C 0.43953 0.03003 0.83437 0.0
C1132 C 0.44362 0.02716 0.76365 0.0
C1133 C 0.42141 0.03395 0.85543 0.0
C1134 C 0.40707 0.03522 0.80616 0.0
C1135 C 0.41109 0.03237 0.73562 0.0
C1136 C 0.42918 0.02842 0.71452 0.0
C1137 C 0.38774 0.03884 0.82838 0.0
C1138 C 0.37403 0.02591 0.81006 0.0
C1139 C 0.38295 0.05436 0.8698 0.0
C1140 C 0.3966 0.06908 0.88715 0.0
C1141 C 0.4065 0.07819 0.83419 0.0
C1142 C 0.41944 0.09196 0.85084 0.0
C1143 C 0.4225 0.09685 0.92027 0.0
C1144 C 0.4126 0.08799 0.97318 0.0
C1145 C 0.39967 0.07419 0.95681 0.0
H1146 H 0.43252 0.10751 0.93306 0.0
H1147 H 0.30597 0.97524 0.76455 0.0
H1148 H 0.47464 0.29375 0.88694 0.0
H1149 H 0.47688 0.3258 0.8473 0.0
H1150 H 0.45705 0.345 0.04638 0.0
H1151 H 0.45436 0.31282 0.08618 0.0
H1152 H 0.4415 0.36417 0.93845 0.0
H1153 H 0.50235 0.34615 0.01089 0.0
H1154 H 0.53057 0.32683 0.01544 0.0
H1155 H 0.5395 0.33563 0.79731 0.0
H1156 H 0.51125 0.35487 0.79107 0.0
H1157 H 0.47231 0.4576 0.88058 0.0
H1158 H 0.46811 0.42662 0.93042 0.0
H1159 H 0.48451 0.4019 0.7356 0.0
H1160 H 0.48872 0.43269 0.68522 0.0
H1161 H 0.50226 0.3864 0.85036 0.0
H1162 H 0.44046 0.40232 0.77627 0.0
H1163 H 0.4124 0.42184 0.77051 0.0
H1164 H 0.40546 0.41693 0.99158 0.0
H1165 H 0.43366 0.3976 0.99878 0.0
C1166 C 0.47056 0.30475 0.92219 0.0
C1167 C 0.46449 0.30075 0.99001 0.0
C1168 C 0.47196 0.32307 0.89955 0.0
C1169 C 0.46748 0.33776 0.94439 0.0
C1170 C 0.46071 0.33383 0.01119 0.0
C1171 C 0.45924 0.31546 0.03389 0.0
C1172 C 0.4702 0.35717 0.9215 0.0
C1173 C 0.45485 0.36914 0.92027 0.0
C1174 C 0.48758 0.36351 0.8968 0.0
C1175 C 0.50457 0.35186 0.90041 0.0
C1176 C 0.51023 0.34385 0.96372 0.0
C1177 C 0.52625 0.33292 0.96664 0.0
C1178 C 0.53677 0.32995 0.90672 0.0
C1179 C 0.53133 0.33793 0.8437 0.0
C1180 C 0.51533 0.34888 0.84045 0.0
C1181 C 0.47502 0.44558 0.84829 0.0
C1182 C 0.48082 0.44763 0.77888 0.0
C1183 C 0.47255 0.42791 0.87681 0.0
C1184 C 0.47594 0.41202 0.83652 0.0
C1185 C 0.48184 0.41401 0.76747 0.0
C1186 C 0.48415 0.43164 0.73873 0.0
C1187 C 0.47351 0.39326 0.86631 0.0
C1188 C 0.48895 0.38145 0.86903 0.0
C1189 C 0.45625 0.38708 0.89237 0.0
C1190 C 0.4393 0.3987 0.88817 0.0
C1191 C 0.43306 0.40555 0.82375 0.0
C1192 C 0.4171 0.41655 0.8202 0.0
C1193 C 0.40719 0.42067 0.88067 0.0
C1194 C 0.41318 0.41376 0.9448 0.0
C1195 C 0.42914 0.40277 0.94864 0.0
H1196 H 0.39483 0.42918 0.87781 0.0
H1197 H 0.54917 0.3215 0.90915 0.0
H1198 H 0.21166 0.45493 0.98883 0.0
H1199 H 0.18178 0.47125 0.98587 0.0
H1200 H 0.16534 0.4384 0.8084 0.0
H1201 H 0.1951 0.42218 0.81143 0.0
H1202 H 0.16291 0.49223 0.88863 0.0
H1203 H 0.12241 0.42414 0.8264 0.0
H1204 H 0.1246 0.39077 0.85408 0.0
H1205 H 0.15502 0.40347 0.04035 0.0
H1206 H 0.15278 0.43691 0.01431 0.0
H1207 H 0.07824 0.50756 0.7122 0.0
H1208 H 0.10895 0.49946 0.75692 0.0
H1209 H 0.08373 0.47496 0.93833 0.0
H1210 H 0.05308 0.48356 0.89512 0.0
H1211 H 0.10686 0.45222 0.88822 0.0
H1212 H 0.11048 0.5154 0.94939 0.0
H1213 H 0.10826 0.54934 0.93638 0.0
H1214 H 0.15038 0.54806 0.77871 0.0
H1215 H 0.15271 0.51405 0.79028 0.0
C1216 C 0.20189 0.45162 0.9481 0.0
C1217 C 0.2058 0.43757 0.89936 0.0
C1218 C 0.18476 0.46083 0.94682 0.0
C1219 C 0.17128 0.45591 0.89731 0.0
C1220 C 0.17544 0.44224 0.84766 0.0
C1221 C 0.19245 0.43304 0.84919 0.0
C1222 C 0.15251 0.46435 0.89815 0.0
C1223 C 0.1506 0.48357 0.88896 0.0
C1224 C 0.13645 0.45311 0.90151 0.0
C1225 C 0.13753 0.43302 0.91811 0.0
C1226 C 0.12946 0.41981 0.87348 0.0
C1227 C 0.13074 0.40089 0.88883 0.0
C1228 C 0.13998 0.395 0.94885 0.0
C1229 C 0.14791 0.40804 0.99377 0.0
C1230 C 0.14667 0.42698 0.97869 0.0
C1231 C 0.0793 0.50085 0.76248 0.0
C1232 C 0.06327 0.49626 0.80033 0.0
C1233 C 0.09687 0.49634 0.78825 0.0
C1234 C 0.09874 0.487 0.85202 0.0
C1235 C 0.08272 0.48266 0.89018 0.0
C1236 C 0.06517 0.4875 0.86519 0.0
C1237 C 0.11717 0.48008 0.87498 0.0
C1238 C 0.11905 0.46105 0.88878 0.0
C1239 C 0.13306 0.49165 0.87807 0.0
C1240 C 0.1317 0.51212 0.87055 0.0
C1241 C 0.1192 0.52232 0.91168 0.0
C1242 C 0.11793 0.54159 0.9046 0.0
C1243 C 0.12916 0.55085 0.85667 0.0
C1244 C 0.14169 0.54086 0.81583 0.0
C1245 C 0.14302 0.52159 0.82274 0.0
H1246 H 0.12815 0.56577 0.85124 0.0
H1247 H 0.14097 0.38034 0.96059 0.0
H1248 H 0.96599 0.80356 0.40412 0.0
H1249 H 0.96553 0.83502 0.4509 0.0
H1250 H 0.02486 0.83293 0.48043 0.0
H1251 H 0.02526 0.80098 0.43703 0.0
H1252 H 0.00966 0.85022 0.58537 0.0
H1253 H 0.00596 0.85542 0.33854 0.0
H1254 H 0.99413 0.8495 0.22058 0.0
H1255 H 0.94075 0.87076 0.27864 0.0
H1256 H 0.95229 0.87689 0.3975 0.0
H1257 H 0.00637 0.95572 0.49734 0.0
H1258 H 0.00537 0.92331 0.46087 0.0
H1259 H 0.98323 0.90785 0.66128 0.0
H1260 H 0.98501 0.94023 0.69917 0.0
H1261 H 0.98028 0.89922 0.44106 0.0
H1262 H 0.9974 0.86545 0.70714 0.0
H1263 H 0.01443 0.87306 0.81495 0.0
H1264 H 0.04943 0.91057 0.70147 0.0
H1265 H 0.03275 0.90303 0.59299 0.0
C1266 C 0.97893 0.8097 0.42131 0.0
C1267 C 0.99574 0.79996 0.41552 0.0
C1268 C 0.97865 0.82774 0.44755 0.0
C1269 C 0.99521 0.83648 0.46766 0.0
C1270 C 0.01193 0.82651 0.46463 0.0
C1271 C 0.01218 0.80835 0.43908 0.0
C1272 C 0.9951 0.85617 0.48994 0.0
C1273 C 0.0032 0.86094 0.55394 0.0
C1274 C 0.98704 0.87022 0.44821 0.0
C1275 C 0.97994 0.86643 0.37711 0.0
C1276 C 0.99166 0.8587 0.32637 0.0
C1277 C 0.985 0.85533 0.25926 0.0
C1278 C 0.96667 0.85961 0.24204 0.0
C1279 C 0.95495 0.8674 0.29203 0.0
C1280 C 0.96155 0.87088 0.35927 0.0
C1281 C 0.0012 0.94543 0.53353 0.0
C1282 C 0.99588 0.95046 0.60121 0.0
C1283 C 0.00061 0.9269 0.51259 0.0
C1284 C 0.99447 0.91308 0.5586 0.0
C1285 C 0.98844 0.9182 0.62539 0.0
C1286 C 0.98936 0.9367 0.64687 0.0
C1287 C 0.99478 0.89333 0.53671 0.0
C1288 C 0.98664 0.88852 0.47282 0.0
C1289 C 0.00346 0.87939 0.57725 0.0
C1290 C 0.01372 0.88379 0.64214 0.0
C1291 C 0.00877 0.87526 0.70522 0.0
C1292 C 0.01835 0.87959 0.76645 0.0
C1293 C 0.03297 0.89233 0.76505 0.0
C1294 C 0.03806 0.90075 0.70249 0.0
C1295 C 0.02855 0.89647 0.64116 0.0
H1296 H 0.04044 0.89563 0.81228 0.0
H1297 H 0.96158 0.85696 0.18994 0.0
H1298 H 0.69152 0.99607 0.32269 0.0
H1299 H 0.6598 0.99645 0.36492 0.0
H1300 H 0.67904 0.01494 0.56618 0.0
H1301 H 0.71112 0.01314 0.52541 0.0
H1302 H 0.65564 0.98923 0.58518 0.0
H1303 H 0.65445 0.04376 0.44138 0.0
H1304 H 0.65885 0.06201 0.33413 0.0
H1305 H 0.6205 0.02668 0.22591 0.0
H1306 H 0.61617 0.00793 0.33207 0.0
H1307 H 0.56711 0.01341 0.71721 0.0
H1308 H 0.59889 0.01247 0.67495 0.0
H1309 H 0.57984 0.99017 0.479 0.0
H1310 H 0.54778 0.99179 0.52002 0.0
H1311 H 0.60295 0.01741 0.45713 0.0
H1312 H 0.60353 0.96367 0.60668 0.0
H1313 H 0.59883 0.94692 0.71716 0.0
H1314 H 0.63838 0.98251 0.81805 0.0
H1315 H 0.64303 0.99969 0.70871 0.0
C1316 C 0.68905 0.00026 0.37589 0.0
C1317 C 0.70388 0.00431 0.42097 0.0
C1318 C 0.67081 0.00068 0.39984 0.0
C1319 C 0.66691 0.00591 0.46865 0.0
C1320 C 0.68167 0.01077 0.51295 0.0
C1321 C 0.7 0.00986 0.48948 0.0
C1322 C 0.64759 0.00528 0.49543 0.0
C1323 C 0.64417 0.99566 0.55768 0.0
C1324 C 0.63248 0.01317 0.45863 0.0
C1325 C 0.63509 0.02438 0.3946 0.0
C1326 C 0.64707 0.03979 0.39456 0.0
C1327 C 0.64956 0.0502 0.33394 0.0
C1328 C 0.64002 0.04544 0.27316 0.0
C1329 C 0.62795 0.03027 0.27291 0.0
C1330 C 0.62546 0.01976 0.33331 0.0
C1331 C 0.56965 0.00807 0.6654 0.0
C1332 C 0.55489 0.0027 0.62187 0.0
C1333 C 0.58789 0.00747 0.64139 0.0
C1334 C 0.5918 0.00105 0.57404 0.0
C1335 C 0.57714 0.99519 0.53116 0.0
C1336 C 0.55883 0.99605 0.55476 0.0
C1337 C 0.61106 0.00147 0.54697 0.0
C1338 C 0.61444 0.01099 0.48455 0.0
C1339 C 0.62614 0.99363 0.58396 0.0
C1340 C 0.62352 0.98306 0.64953 0.0
C1341 C 0.61113 0.968 0.65255 0.0
C1342 C 0.60847 0.95843 0.71503 0.0
C1343 C 0.61824 0.96368 0.77471 0.0
C1344 C 0.63076 0.97847 0.77194 0.0
C1345 C 0.63343 0.98812 0.7097 0.0
H1346 H 0.61615 0.95628 0.82307 0.0
H1347 H 0.64195 0.05354 0.22631 0.0
H1348 H 0.47909 0.69735 0.34635 0.0
H1349 H 0.47821 0.66537 0.38828 0.0
H1350 H 0.53626 0.66868 0.44226 0.0
H1351 H 0.53733 0.70043 0.39914 0.0
H1352 H 0.53039 0.63667 0.39114 0.0
H1353 H 0.49927 0.67362 0.56571 0.0
H1354 H 0.47575 0.69566 0.60902 0.0
H1355 H 0.43225 0.65937 0.53926 0.0
H1356 H 0.45554 0.63722 0.49487 0.0
H1357 H 0.50353 0.56987 0.69678 0.0
H1358 H 0.5067 0.60071 0.64533 0.0
H1359 H 0.50525 0.57663 0.43983 0.0
H1360 H 0.50245 0.54577 0.49049 0.0
H1361 H 0.483 0.6187 0.56546 0.0
H1362 H 0.53121 0.60448 0.3278 0.0
H1363 H 0.55669 0.58339 0.29558 0.0
H1364 H 0.5706 0.57619 0.51114 0.0
H1365 H 0.54532 0.59741 0.54468 0.0
C1366 C 0.49167 0.69123 0.36698 0.0
C1367 C 0.50822 0.70148 0.37026 0.0
C1368 C 0.49116 0.67293 0.39082 0.0
C1369 C 0.50713 0.66463 0.41908 0.0
C1370 C 0.52376 0.67473 0.42058 0.0
C1371 C 0.52432 0.69295 0.39628 0.0
C1372 C 0.5065 0.6457 0.44938 0.0
C1373 C 0.52002 0.63273 0.42921 0.0
C1374 C 0.49311 0.6406 0.4997 0.0
C1375 C 0.47912 0.65386 0.52655 0.0
C1376 C 0.48469 0.67041 0.55932 0.0
C1377 C 0.4714 0.6829 0.58408 0.0
C1378 C 0.45252 0.67894 0.57677 0.0
C1379 C 0.44688 0.66244 0.54483 0.0
C1380 C 0.46011 0.6499 0.51994 0.0
C1381 C 0.50409 0.57109 0.64066 0.0
C1382 C 0.50271 0.55533 0.59783 0.0
C1383 C 0.50584 0.58874 0.61134 0.0
C1384 C 0.50627 0.59095 0.53878 0.0
C1385 C 0.5052 0.57523 0.49595 0.0
C1386 C 0.50355 0.55758 0.52515 0.0
C1387 C 0.50702 0.60976 0.5079 0.0
C1388 C 0.4934 0.62264 0.52745 0.0
C1389 C 0.52065 0.6149 0.45854 0.0
C1390 C 0.53609 0.60229 0.43881 0.0
C1391 C 0.53966 0.5984 0.36838 0.0
C1392 C 0.5541 0.58643 0.34986 0.0
C1393 C 0.56519 0.57837 0.40129 0.0
C1394 C 0.56193 0.58235 0.47136 0.0
C1395 C 0.54751 0.59432 0.49015 0.0
H1396 H 0.57636 0.56909 0.38684 0.0
H1397 H 0.44226 0.68863 0.59596 0.0
H1398 H 0.80077 0.47411 0.52778 0.0
H1399 H 0.83294 0.47833 0.56406 0.0
H1400 H 0.85147 0.46579 0.35607 0.0
H1401 H 0.81921 0.46161 0.31887 0.0
H1402 H 0.87422 0.45045 0.46303 0.0
H1403 H 0.84676 0.50721 0.39542 0.0
H1404 H 0.8238 0.53244 0.39187 0.0
H1405 H 0.83445 0.54462 0.60697 0.0
H1406 H 0.8574 0.51927 0.61199 0.0
H1407 H 0.96339 0.49136 0.51985 0.0
H1408 H 0.93296 0.48516 0.46835 0.0
H1409 H 0.90679 0.49798 0.6642 0.0
H1410 H 0.93711 0.50427 0.7161 0.0
H1411 H 0.88875 0.51359 0.55121 0.0
H1412 H 0.91587 0.45481 0.61661 0.0
H1413 H 0.9394 0.43 0.61382 0.0
H1414 H 0.92893 0.42142 0.39628 0.0
H1415 H 0.90604 0.44682 0.39681 0.0
C1416 C 0.81167 0.47194 0.4899 0.0
C1417 C 0.80743 0.46769 0.4203 0.0
C1418 C 0.83003 0.47437 0.51076 0.0
C1419 C 0.84449 0.4726 0.46247 0.0
C1420 C 0.84045 0.46721 0.39398 0.0
C1421 C 0.82203 0.46486 0.37288 0.0
C1422 C 0.86357 0.47785 0.48264 0.0
C1423 C 0.87752 0.46431 0.48141 0.0
C1424 C 0.8677 0.49596 0.50672 0.0
C1425 C 0.85382 0.51123 0.50409 0.0
C1426 C 0.8442 0.5152 0.44207 0.0
C1427 C 0.83116 0.52954 0.43978 0.0
C1428 C 0.82765 0.54013 0.4992 0.0
C1429 C 0.83719 0.5364 0.56097 0.0
C1430 C 0.85024 0.52205 0.56351 0.0
C1431 C 0.95115 0.49305 0.55177 0.0
C1432 C 0.95267 0.49827 0.6221 0.0
C1433 C 0.9338 0.48942 0.52231 0.0
C1434 C 0.91769 0.49094 0.5627 0.0
C1435 C 0.9191 0.49671 0.63224 0.0
C1436 C 0.93644 0.50026 0.66184 0.0
C1437 C 0.89934 0.48606 0.53341 0.0
C1438 C 0.8855 0.49974 0.53258 0.0
C1439 C 0.8954 0.46813 0.50676 0.0
C1440 C 0.9094 0.45297 0.50653 0.0
C1441 C 0.91881 0.44789 0.56784 0.0
C1442 C 0.93206 0.43371 0.56666 0.0
C1443 C 0.93574 0.42422 0.50481 0.0
C1444 C 0.92618 0.42888 0.44405 0.0
C1445 C 0.91314 0.44324 0.44468 0.0
H1446 H 0.94594 0.41319 0.50402 0.0
H1447 H 0.81755 0.55124 0.49737 0.0
loop_
_geom_bond_atom_site_label_1
_geom_bond_atom_site_label_2
_geom_bond_distance
_geom_bond_site_symmetry_2
_ccdc_geom_bond_type
O0 Cd1 2.300 . S
O0 C7 1.275 . S
Cd1 O0 2.300 . S
Cd1 O9 2.381 . S
Cd1 O10 2.378 . S
O2 Cd3 2.385 . S
O2 C7 1.255 . S
Cd3 O2 2.385 . S
Cd3 O4 2.317 . S
O4 Cd3 2.317 . S
O4 C5 1.232 . S
C5 O4 1.232 . S
C5 O6 1.218 . S
O6 C5 1.218 . S
C7 O0 1.275 . S
C7 O2 1.255 . S
C8 O9 1.258 . S
C8 O10 1.256 . S
O9 Cd1 2.381 . S
O9 C8 1.258 . S
O10 Cd1 2.378 . S
O10 C8 1.256 . S
O11 Cd12 2.300 1_655 S
O11 C18 1.275 1_655 S
Cd12 O11 2.300 1_455 S
Cd12 O20 2.381 1_455 S
Cd12 O21 2.378 . S
O13 Cd14 2.385 . S
O13 C18 1.255 . S
Cd14 O13 2.385 . S
Cd14 O15 2.317 . S
O15 Cd14 2.317 . S
O15 C16 1.232 . S
C16 O15 1.232 . S
C16 O17 1.218 . S
O17 C16 1.218 . S
C18 O11 1.275 1_455 S
C18 O13 1.255 . S
C19 O20 1.228 1_455 S
C19 O21 1.298 . S
O20 Cd12 2.381 1_655 S
O20 C19 1.228 1_655 S
O21 Cd12 2.378 . S
O21 C19 1.298 . S
O22 Cd23 2.300 1_565 S
O22 C29 1.275 1_565 S
Cd23 O22 2.300 1_545 S
Cd23 O31 2.381 1_545 S
Cd23 O32 2.378 . S
O24 Cd25 2.385 . S
O24 C29 1.255 . S
Cd25 O24 2.385 . S
Cd25 O26 2.317 . S
O26 Cd25 2.317 . S
O26 C27 1.232 . S
C27 O26 1.232 . S
C27 O28 1.218 . S
O28 C27 1.218 . S
C29 O22 1.275 1_545 S
C29 O24 1.255 . S
C30 O31 1.246 1_545 S
C30 O32 1.272 . S
O31 Cd23 2.381 1_565 S
O31 C30 1.246 1_565 S
O32 Cd23 2.378 . S
O32 C30 1.272 . S
O33 Cd34 2.300 . S
O33 C40 1.275 . S
Cd34 O33 2.300 . S
Cd34 O42 2.381 . S
Cd34 O43 2.378 . S
O35 Cd36 2.385 . S
O35 C40 1.255 . S
Cd36 O35 2.385 . S
Cd36 O37 2.317 . S
O37 Cd36 2.317 . S
O37 C38 1.232 . S
C38 O37 1.232 . S
C38 O39 1.218 . S
O39 C38 1.218 . S
C40 O33 1.275 . S
C40 O35 1.255 . S
C41 O42 1.258 . S
C41 O43 1.256 . S
O42 Cd34 2.381 . S
O42 C41 1.258 . S
O43 Cd34 2.378 . S
O43 C41 1.256 . S
O44 Cd45 2.300 . S
O44 C51 1.275 . S
Cd45 O44 2.300 . S
Cd45 O53 2.381 . S
Cd45 O54 2.378 . S
O46 Cd47 2.385 1_554 S
O46 C51 1.255 . S
Cd47 O46 2.385 1_556 S
Cd47 O48 2.317 . S
O48 Cd47 2.317 . S
O48 C49 1.232 . S
C49 O48 1.232 . S
C49 O50 1.218 . S
O50 C49 1.218 . S
C51 O44 1.275 . S
C51 O46 1.255 . S
C52 O53 1.258 . S
C52 O54 1.256 . S
O53 Cd45 2.381 . S
O53 C52 1.258 . S
O54 Cd45 2.378 . S
O54 C52 1.256 . S
O55 Cd56 2.332 . S
O55 C62 1.302 . S
Cd56 O55 2.332 . S
Cd56 O64 2.381 1_455 S
Cd56 O65 2.378 . S
O57 Cd58 2.385 1_554 S
O57 C62 1.255 . S
Cd58 O57 2.385 1_556 S
Cd58 O59 2.317 . S
O59 Cd58 2.317 . S
O59 C60 1.232 . S
C60 O59 1.232 . S
C60 O61 1.218 . S
O61 C60 1.218 . S
C62 O55 1.302 . S
C62 O57 1.255 . S
C63 O64 1.258 1_455 S
C63 O65 1.256 . S
O64 Cd56 2.381 1_655 S
O64 C63 1.258 1_655 S
O65 Cd56 2.378 . S
O65 C63 1.256 . S
O66 Cd67 2.303 1_565 S
O66 C73 1.277 1_565 S
Cd67 O66 2.303 1_545 S
Cd67 O75 2.381 1_545 S
Cd67 O76 2.378 . S
O68 Cd69 2.385 1_554 S
O68 C73 1.255 . S
Cd69 O68 2.385 1_556 S
Cd69 O70 2.317 . S
O70 Cd69 2.317 . S
O70 C71 1.232 . S
C71 O70 1.232 . S
C71 O72 1.218 . S
O72 C71 1.218 . S
C73 O66 1.277 1_545 S
C73 O68 1.255 . S
C74 O75 1.258 1_545 S
C74 O76 1.256 . S
O75 Cd67 2.381 1_565 S
O75 C74 1.258 1_565 S
O76 Cd67 2.378 . S
O76 C74 1.256 . S
O77 Cd78 2.300 . S
O77 C84 1.275 . S
Cd78 O77 2.300 . S
Cd78 O86 2.381 . S
Cd78 O87 2.378 . S
O79 Cd80 2.385 1_554 S
O79 C84 1.255 . S
Cd80 O79 2.385 1_556 S
Cd80 O81 2.317 . S
O81 Cd80 2.317 . S
O81 C82 1.232 . S
C82 O81 1.232 . S
C82 O83 1.218 . S
O83 C82 1.218 . S
C84 O77 1.275 . S
C84 O79 1.255 . S
C85 O86 1.258 . S
C85 O87 1.256 . S
O86 Cd78 2.381 . S
O86 C85 1.258 . S
O87 Cd78 2.378 . S
O87 C85 1.256 . S
Sm88 C90 2.846 . S
Sm88 O108 2.543 . S
Sm88 O109 2.450 . S
Sm88 O110 2.681 1_565 S
Sm88 O111 2.464 . S
Sm88 O112 2.396 . S
Sm88 O116 2.386 1_455 S
Sm88 O119 2.408 1_565 S
Sm89 C99 2.846 . S
Sm89 O110 2.386 1_655 S
Sm89 O113 2.408 1_545 S
Sm89 O114 2.543 1_655 S
Sm89 O115 2.450 . S
Sm89 O116 2.681 1_545 S
Sm89 O117 2.464 . S
Sm89 O118 2.396 . S
C90 Sm88 2.846 . S
C90 C91 1.506 . S
C90 O108 1.261 . S
C90 O109 1.242 . S
C91 C90 1.506 . S
C91 C92 1.358 . S
C91 C96 1.382 . S
C92 C91 1.358 . S
C92 C93 1.385 . S
C92 H120 0.930 1_455 S
C93 C92 1.385 . S
C93 C94 1.395 . S
C93 H121 0.929 1_455 S
C94 C93 1.395 . S
C94 C95 1.335 . S
C95 C94 1.335 . S
C95 C96 1.398 . S
C95 H122 0.930 . S
C96 C91 1.382 . S
C96 C95 1.398 . S
C96 H123 0.929 . S
C97 O110 1.273 . S
C97 O111 1.249 1_545 S
C98 O112 1.252 1_655 S
C98 O113 1.272 . S
C99 Sm89 2.846 . S
C99 C100 1.506 . S
C99 O114 1.261 1_655 S
C99 O115 1.242 . S
C100 C99 1.506 . S
C100 C101 1.366 . S
C100 C105 1.382 . S
C101 C100 1.366 . S
C101 C102 1.386 . S
C101 H124 0.921 1_655 S
C102 C101 1.386 . S
C102 C103 1.395 . S
C102 H125 0.929 1_655 S
C103 C102 1.395 . S
C103 C104 1.335 . S
C104 C103 1.335 . S
C104 C105 1.398 . S
C104 H126 0.930 . S
C105 C100 1.382 . S
C105 C104 1.398 . S
C105 H127 0.929 . S
C106 O116 1.271 1_545 S
C106 O117 1.251 . S
C107 O118 1.252 1_455 S
C107 O119 1.272 . S
O108 Sm88 2.543 . S
O108 C90 1.261 . S
O109 Sm88 2.450 . S
O109 C90 1.242 . S
O110 Sm88 2.681 1_545 S
O110 Sm89 2.386 1_455 S
O110 C97 1.273 . S
O111 Sm88 2.464 . S
O111 C97 1.249 1_565 S
O112 Sm88 2.396 . S
O112 C98 1.252 1_455 S
O113 Sm89 2.408 1_565 S
O113 C98 1.272 . S
O114 Sm89 2.543 1_455 S
O114 C99 1.261 1_455 S
O115 Sm89 2.450 . S
O115 C99 1.242 . S
O116 Sm88 2.386 1_655 S
O116 Sm89 2.681 1_565 S
O116 C106 1.271 1_565 S
O117 Sm89 2.464 . S
O117 C106 1.251 . S
O118 Sm89 2.396 . S
O118 C107 1.252 1_655 S
O119 Sm88 2.408 1_545 S
O119 C107 1.272 . S
H120 C92 0.930 1_655 S
H121 C93 0.929 1_655 S
H122 C95 0.930 . S
H123 C96 0.929 . S
H124 C101 0.921 1_455 S
H125 C102 0.929 1_455 S
H126 C104 0.930 . S
H127 C105 0.929 . S
Sm128 C130 2.846 . S
Sm128 O148 2.551 . S
Sm128 O149 2.450 . S
Sm128 O150 2.681 . S
Sm128 O151 2.464 . S
Sm128 O152 2.396 . S
Sm128 O156 2.386 1_545 S
Sm128 O159 2.408 . S
Sm129 C139 2.846 . S
Sm129 O150 2.386 1_565 S
Sm129 O153 2.408 . S
Sm129 O154 2.543 1_565 S
Sm129 O155 2.450 . S
Sm129 O156 2.681 . S
Sm129 O157 2.464 . S
Sm129 O158 2.396 . S
C130 Sm128 2.846 . S
C130 C131 1.506 . S
C130 O148 1.281 . S
C130 O149 1.242 . S
C131 C130 1.506 . S
C131 C132 1.358 . S
C131 C136 1.382 . S
C132 C131 1.358 . S
C132 C133 1.385 . S
C132 H160 0.930 1_545 S
C133 C132 1.385 . S
C133 C134 1.395 . S
C133 H161 0.929 1_545 S
C134 C133 1.395 . S
C134 C135 1.335 . S
C135 C134 1.335 . S
C135 C136 1.398 . S
C135 H162 0.930 . S
C136 C131 1.382 . S
C136 C135 1.398 . S
C136 H163 0.929 . S
C137 O150 1.271 . S
C137 O151 1.251 . S
C138 O152 1.252 1_565 S
C138 O153 1.272 . S
C139 Sm129 2.846 . S
C139 C140 1.506 . S
C139 O154 1.261 1_565 S
C139 O155 1.242 . S
C140 C139 1.506 . S
C140 C141 1.358 . S
C140 C145 1.382 . S
C141 C140 1.358 . S
C141 C142 1.385 . S
C141 H164 0.930 1_565 S
C142 C141 1.385 . S
C142 C143 1.395 . S
C142 H165 0.929 1_565 S
C143 C142 1.395 . S
C143 C144 1.335 . S
C144 C143 1.335 . S
C144 C145 1.398 . S
C144 H166 0.930 . S
C145 C140 1.382 . S
C145 C144 1.398 . S
C145 H167 0.929 . S
C146 O156 1.271 . S
C146 O157 1.251 . S
C147 O158 1.252 1_545 S
C147 O159 1.272 . S
O148 Sm128 2.551 . S
O148 C130 1.281 . S
O149 Sm128 2.450 . S
O149 C130 1.242 . S
O150 Sm128 2.681 . S
O150 Sm129 2.386 1_545 S
O150 C137 1.271 . S
O151 Sm128 2.464 . S
O151 C137 1.251 . S
O152 Sm128 2.396 . S
O152 C138 1.252 1_545 S
O153 Sm129 2.408 . S
O153 C138 1.272 . S
O154 Sm129 2.543 1_545 S
O154 C139 1.261 1_545 S
O155 Sm129 2.450 . S
O155 C139 1.242 . S
O156 Sm128 2.386 1_565 S
O156 Sm129 2.681 . S
O156 C146 1.271 . S
O157 Sm129 2.464 . S
O157 C146 1.251 . S
O158 Sm129 2.396 . S
O158 C147 1.252 1_565 S
O159 Sm128 2.408 . S
O159 C147 1.272 . S
H160 C132 0.930 1_565 S
H161 C133 0.929 1_565 S
H162 C135 0.930 . S
H163 C136 0.929 . S
H164 C141 0.930 1_545 S
H165 C142 0.929 1_545 S
H166 C144 0.930 . S
H167 C145 0.929 . S
Sm168 C170 2.846 . S
Sm168 O188 2.543 . S
Sm168 O189 2.450 . S
Sm168 O190 2.681 . S
Sm168 O191 2.464 . S
Sm168 O192 2.396 . S
Sm168 O196 2.386 . S
Sm168 O199 2.408 . S
Sm169 C179 2.846 . S
Sm169 O190 2.386 . S
Sm169 O193 2.408 . S
Sm169 O194 2.543 . S
Sm169 O195 2.450 . S
Sm169 O196 2.681 . S
Sm169 O197 2.464 . S
Sm169 O198 2.396 . S
C170 Sm168 2.846 . S
C170 C171 1.506 . S
C170 O188 1.261 . S
C170 O189 1.242 . S
C171 C170 1.506 . S
C171 C172 1.358 . S
C171 C176 1.382 . S
C172 C171 1.358 . S
C172 C173 1.385 . S
C172 H200 0.930 . S
C173 C172 1.385 . S
C173 C174 1.395 . S
C173 H201 0.929 . S
C174 C173 1.395 . S
C174 C175 1.335 . S
C175 C174 1.335 . S
C175 C176 1.398 . S
C175 H202 0.930 . S
C176 C171 1.382 . S
C176 C175 1.398 . S
C176 H203 0.929 . S
C177 O190 1.271 . S
C177 O191 1.251 . S
C178 O192 1.252 . S
C178 O193 1.272 . S
C179 Sm169 2.846 . S
C179 C180 1.506 . S
C179 O194 1.261 . S
C179 O195 1.242 . S
C180 C179 1.506 . S
C180 C181 1.358 . S
C180 C185 1.382 . S
C181 C180 1.358 . S
C181 C182 1.385 . S
C181 H204 0.930 . S
C182 C181 1.385 . S
C182 C183 1.395 . S
C182 H205 0.929 . S
C183 C182 1.395 . S
C183 C184 1.335 . S
C184 C183 1.335 . S
C184 C185 1.398 . S
C184 H206 0.930 . S
C185 C180 1.382 . S
C185 C184 1.398 . S
C185 H207 0.929 . S
C186 O196 1.271 . S
C186 O197 1.251 . S
C187 O198 1.252 . S
C187 O199 1.272 . S
O188 Sm168 2.543 . S
O188 C170 1.261 . S
O189 Sm168 2.450 . S
O189 C170 1.242 . S
O190 Sm168 2.681 . S
O190 Sm169 2.386 . S
O190 C177 1.271 . S
O191 Sm168 2.464 . S
O191 C177 1.251 . S
O192 Sm168 2.396 . S
O192 C178 1.252 . S
O193 Sm169 2.408 . S
O193 C178 1.272 . S
O194 Sm169 2.543 . S
O194 C179 1.261 . S
O195 Sm169 2.450 . S
O195 C179 1.242 . S
O196 Sm168 2.386 . S
O196 Sm169 2.681 . S
O196 C186 1.271 . S
O197 Sm169 2.464 . S
O197 C186 1.251 . S
O198 Sm169 2.396 . S
O198 C187 1.252 . S
O199 Sm168 2.408 . S
O199 C187 1.272 . S
H200 C172 0.930 . S
H201 C173 0.929 . S
H202 C175 0.930 . S
H203 C176 0.929 . S
H204 C181 0.930 . S
H205 C182 0.929 . S
H206 C184 0.930 . S
H207 C185 0.929 . S
Sm208 C210 2.846 . S
Sm208 O228 2.543 . S
Sm208 O229 2.450 . S
Sm208 O230 2.681 1_655 S
Sm208 O231 2.464 . S
Sm208 O232 2.396 . S
Sm208 O236 2.386 . S
Sm208 O239 2.408 1_655 S
Sm209 C219 2.846 . S
Sm209 O230 2.386 . S
Sm209 O233 2.408 1_455 S
Sm209 O234 2.543 . S
Sm209 O235 2.450 . S
Sm209 O236 2.681 1_455 S
Sm209 O237 2.464 . S
Sm209 O238 2.396 . S
C210 Sm208 2.846 . S
C210 C211 1.506 . S
C210 O228 1.261 . S
C210 O229 1.242 . S
C211 C210 1.506 . S
C211 C212 1.358 . S
C211 C216 1.382 . S
C212 C211 1.358 . S
C212 C213 1.385 . S
C212 H240 0.930 . S
C213 C212 1.385 . S
C213 C214 1.395 . S
C213 H241 0.929 . S
C214 C213 1.395 . S
C214 C215 1.335 . S
C215 C214 1.335 . S
C215 C216 1.398 . S
C215 H242 0.930 . S
C216 C211 1.382 . S
C216 C215 1.398 . S
C216 H243 0.929 . S
C217 O230 1.292 . S
C217 O231 1.221 1_455 S
C218 O232 1.252 . S
C218 O233 1.272 . S
C219 Sm209 2.846 . S
C219 C220 1.506 . S
C219 O234 1.261 . S
C219 O235 1.242 . S
C220 C219 1.506 . S
C220 C221 1.358 . S
C220 C225 1.382 . S
C221 C220 1.358 . S
C221 C222 1.385 . S
C221 H244 0.930 . S
C222 C221 1.385 . S
C222 C223 1.395 . S
C222 H245 0.929 . S
C223 C222 1.395 . S
C223 C224 1.335 . S
C224 C223 1.335 . S
C224 C225 1.398 . S
C224 H246 0.930 . S
C225 C220 1.382 . S
C225 C224 1.398 . S
C225 H247 0.929 . S
C226 O236 1.271 1_455 S
C226 O237 1.251 . S
C227 O238 1.252 . S
C227 O239 1.272 . S
O228 Sm208 2.543 . S
O228 C210 1.261 . S
O229 Sm208 2.450 . S
O229 C210 1.242 . S
O230 Sm208 2.681 1_455 S
O230 Sm209 2.386 . S
O230 C217 1.292 . S
O231 Sm208 2.464 . S
O231 C217 1.221 1_655 S
O232 Sm208 2.396 . S
O232 C218 1.252 . S
O233 Sm209 2.408 1_655 S
O233 C218 1.272 . S
O234 Sm209 2.543 . S
O234 C219 1.261 . S
O235 Sm209 2.450 . S
O235 C219 1.242 . S
O236 Sm208 2.386 . S
O236 Sm209 2.681 1_655 S
O236 C226 1.271 1_655 S
O237 Sm209 2.464 . S
O237 C226 1.251 . S
O238 Sm209 2.396 . S
O238 C227 1.252 . S
O239 Sm208 2.408 1_455 S
O239 C227 1.272 . S
H240 C212 0.930 . S
H241 C213 0.929 . S
H242 C215 0.930 . S
H243 C216 0.929 . S
H244 C221 0.930 . S
H245 C222 0.929 . S
H246 C224 0.930 . S
H247 C225 0.929 . S
H248 C266 0.951 . S
H249 C268 0.951 . S
H250 C270 0.950 . S
H251 C271 0.950 . S
H252 C273 0.961 . S
H253 C276 0.950 . S
H254 C277 0.950 . S
H255 C279 0.950 . S
H256 C280 0.950 . S
H257 C281 0.951 . S
H258 C283 0.951 . S
H259 C285 0.950 . S
H260 C286 0.950 . S
H261 C288 0.950 . S
H262 C291 0.950 . S
H263 C292 0.950 . S
H264 C294 0.950 . S
H265 C295 0.950 . S
C266 H248 0.951 . S
C266 C267 1.366 . S
C266 C268 1.388 . S
C267 C266 1.366 . S
C267 C271 1.385 1_545 S
C268 H249 0.951 . S
C268 C266 1.388 . S
C268 C269 1.366 . S
C269 C268 1.366 . S
C269 C270 1.414 1_545 S
C269 C272 1.499 . S
C270 H250 0.950 . S
C270 C269 1.414 1_565 S
C270 C271 1.374 . S
C271 H251 0.950 . S
C271 C267 1.385 1_565 S
C271 C270 1.374 . S
C272 C269 1.499 . S
C272 C273 1.367 1_545 S
C272 C274 1.389 . S
C273 H252 0.961 . S
C273 C272 1.367 1_565 S
C273 C289 1.375 1_565 S
C274 C272 1.389 . S
C274 C275 1.524 . S
C274 C288 1.377 . S
C275 C274 1.524 . S
C275 C276 1.397 1_545 S
C275 C280 1.363 . S
C276 H253 0.950 . S
C276 C275 1.397 1_565 S
C276 C277 1.334 . S
C277 H254 0.950 . S
C277 C276 1.334 . S
C277 C278 1.287 1_565 S
C278 C277 1.287 1_545 S
C278 C279 1.524 . S
C278 H297 0.913 . S
C279 H255 0.950 . S
C279 C278 1.524 . S
C279 C280 1.415 . S
C280 H256 0.950 . S
C280 C275 1.363 . S
C280 C279 1.415 . S
C281 H257 0.951 . S
C281 C282 1.366 1_565 S
C281 C283 1.388 . S
C282 C281 1.366 1_545 S
C282 C286 1.385 . S
C283 H258 0.951 . S
C283 C281 1.388 . S
C283 C284 1.366 1_565 S
C284 C283 1.366 1_545 S
C284 C285 1.414 . S
C284 C287 1.499 . S
C285 H259 0.950 . S
C285 C284 1.414 . S
C285 C286 1.374 . S
C286 H260 0.950 . S
C286 C282 1.385 . S
C286 C285 1.374 . S
C287 C284 1.499 . S
C287 C288 1.373 . S
C287 C289 1.392 . S
C288 H261 0.950 . S
C288 C274 1.377 . S
C288 C287 1.373 . S
C289 C273 1.375 1_545 S
C289 C287 1.392 . S
C289 C290 1.523 1_545 S
C290 C289 1.523 1_565 S
C290 C291 1.397 1_565 S
C290 C295 1.363 . S
C291 H262 0.950 . S
C291 C290 1.397 1_545 S
C291 C292 1.334 . S
C292 H263 0.950 . S
C292 C291 1.334 . S
C292 C293 1.263 1_545 S
C293 C292 1.263 1_565 S
C293 C294 1.550 . S
C293 H296 1.002 . S
C294 H264 0.950 . S
C294 C293 1.550 . S
C294 C295 1.415 . S
C295 H265 0.950 . S
C295 C290 1.363 . S
C295 C294 1.415 . S
H296 C293 1.002 . S
H297 C278 0.913 . S
H298 C316 0.951 . S
H299 C318 0.951 . S
H300 C320 0.950 . S
H301 C321 0.950 . S
H302 C323 0.950 . S
H303 C326 0.950 . S
H304 C327 0.950 . S
H305 C329 0.950 . S
H306 C330 0.950 . S
H307 C331 0.951 . S
H308 C333 0.951 . S
H309 C335 0.950 . S
H310 C336 0.950 . S
H311 C338 0.950 . S
H312 C341 0.950 . S
H313 C342 0.950 . S
H314 C344 0.950 . S
H315 C345 0.950 . S
C316 H298 0.951 . S
C316 C317 1.366 . S
C316 C318 1.388 . S
C317 C316 1.366 . S
C317 C321 1.385 . S
C318 H299 0.951 . S
C318 C316 1.388 . S
C318 C319 1.366 . S
C319 C318 1.366 . S
C319 C320 1.414 . S
C319 C322 1.499 . S
C320 H300 0.950 . S
C320 C319 1.414 . S
C320 C321 1.374 . S
C321 H301 0.950 . S
C321 C317 1.385 . S
C321 C320 1.374 . S
C322 C319 1.499 . S
C322 C323 1.373 . S
C322 C324 1.389 . S
C323 H302 0.950 . S
C323 C322 1.373 . S
C323 C339 1.377 . S
C324 C322 1.389 . S
C324 C325 1.524 . S
C324 C338 1.377 . S
C325 C324 1.524 . S
C325 C326 1.397 . S
C325 C330 1.363 . S
C326 H303 0.950 . S
C326 C325 1.397 . S
C326 C327 1.334 . S
C327 H304 0.950 . S
C327 C326 1.334 . S
C327 C328 1.287 . S
C328 C327 1.287 . S
C328 C329 1.524 . S
C328 H347 0.913 . S
C329 H305 0.950 . S
C329 C328 1.524 . S
C329 C330 1.415 . S
C330 H306 0.950 . S
C330 C325 1.363 . S
C330 C329 1.415 . S
C331 H307 0.951 . S
C331 C332 1.366 . S
C331 C333 1.388 . S
C332 C331 1.366 . S
C332 C336 1.385 . S
C333 H308 0.951 . S
C333 C331 1.388 . S
C333 C334 1.366 . S
C334 C333 1.366 . S
C334 C335 1.414 . S
C334 C337 1.499 . S
C335 H309 0.950 . S
C335 C334 1.414 . S
C335 C336 1.374 . S
C336 H310 0.950 . S
C336 C332 1.385 . S
C336 C335 1.374 . S
C337 C334 1.499 . S
C337 C338 1.373 . S
C337 C339 1.389 . S
C338 H311 0.950 . S
C338 C324 1.377 . S
C338 C337 1.373 . S
C339 C323 1.377 . S
C339 C337 1.389 . S
C339 C340 1.524 . S
C340 C339 1.524 . S
C340 C341 1.397 . S
C340 C345 1.363 . S
C341 H312 0.950 . S
C341 C340 1.397 . S
C341 C342 1.334 . S
C342 H313 0.950 . S
C342 C341 1.334 . S
C342 C343 1.287 . S
C343 C342 1.287 . S
C343 C344 1.524 . S
C343 H346 0.999 . S
C344 H314 0.950 . S
C344 C343 1.524 . S
C344 C345 1.415 . S
C345 H315 0.950 . S
C345 C340 1.363 . S
C345 C344 1.415 . S
H346 C343 0.999 . S
H347 C328 0.913 . S
H348 C366 0.951 . S
H349 C368 0.951 . S
H350 C370 0.950 . S
H351 C371 0.950 . S
H352 C373 0.950 . S
H353 C376 0.950 . S
H354 C377 0.950 . S
H355 C379 0.950 . S
H356 C380 0.950 . S
H357 C381 0.951 . S
H358 C383 0.951 . S
H359 C385 0.950 . S
H360 C386 0.950 . S
H361 C388 0.950 . S
H362 C391 0.950 . S
H363 C392 0.950 . S
H364 C394 0.950 . S
H365 C395 0.950 . S
C366 H348 0.951 . S
C366 C367 1.366 . S
C366 C368 1.388 . S
C367 C366 1.366 . S
C367 C371 1.385 . S
C368 H349 0.951 . S
C368 C366 1.388 . S
C368 C369 1.366 . S
C369 C368 1.366 . S
C369 C370 1.414 . S
C369 C372 1.499 . S
C370 H350 0.950 . S
C370 C369 1.414 . S
C370 C371 1.374 . S
C371 H351 0.950 . S
C371 C367 1.385 . S
C371 C370 1.374 . S
C372 C369 1.499 . S
C372 C373 1.373 . S
C372 C374 1.389 . S
C373 H352 0.950 . S
C373 C372 1.373 . S
C373 C389 1.377 . S
C374 C372 1.389 . S
C374 C375 1.524 . S
C374 C388 1.377 . S
C375 C374 1.524 . S
C375 C376 1.397 . S
C375 C380 1.363 . S
C376 H353 0.950 . S
C376 C375 1.397 . S
C376 C377 1.334 . S
C377 H354 0.950 . S
C377 C376 1.334 . S
C377 C378 1.287 . S
C378 C377 1.287 . S
C378 C379 1.524 . S
C378 H397 0.913 . S
C379 H355 0.950 . S
C379 C378 1.524 . S
C379 C380 1.415 . S
C380 H356 0.950 . S
C380 C375 1.363 . S
C380 C379 1.415 . S
C381 H357 0.951 . S
C381 C382 1.366 . S
C381 C383 1.388 . S
C382 C381 1.366 . S
C382 C386 1.385 . S
C383 H358 0.951 . S
C383 C381 1.388 . S
C383 C384 1.366 . S
C384 C383 1.366 . S
C384 C385 1.414 . S
C384 C387 1.499 . S
C385 H359 0.950 . S
C385 C384 1.414 . S
C385 C386 1.374 . S
C386 H360 0.950 . S
C386 C382 1.385 . S
C386 C385 1.374 . S
C387 C384 1.499 . S
C387 C388 1.373 . S
C387 C389 1.389 . S
C388 H361 0.950 . S
C388 C374 1.377 . S
C388 C387 1.373 . S
C389 C373 1.377 . S
C389 C387 1.389 . S
C389 C390 1.524 . S
C390 C389 1.524 . S
C390 C391 1.397 . S
C390 C395 1.363 . S
C391 H362 0.950 . S
C391 C390 1.397 . S
C391 C392 1.334 . S
C392 H363 0.950 . S
C392 C391 1.334 . S
C392 C393 1.287 . S
C393 C392 1.287 . S
C393 C394 1.524 . S
C393 H396 0.999 . S
C394 H364 0.950 . S
C394 C393 1.524 . S
C394 C395 1.415 . S
C395 H365 0.950 . S
C395 C390 1.363 . S
C395 C394 1.415 . S
H396 C393 0.999 . S
H397 C378 0.913 . S
H398 C416 0.951 . S
H399 C418 0.951 . S
H400 C420 0.950 . S
H401 C421 0.950 . S
H402 C423 0.950 . S
H403 C426 0.950 . S
H404 C427 0.950 . S
H405 C429 0.950 . S
H406 C430 0.950 . S
H407 C431 0.951 . S
H408 C433 0.951 . S
H409 C435 0.950 . S
H410 C436 0.950 . S
H411 C438 0.950 . S
H412 C441 0.950 . S
H413 C442 0.950 . S
H414 C444 0.950 . S
H415 C445 0.950 . S
C416 H398 0.951 . S
C416 C417 1.366 . S
C416 C418 1.388 . S
C417 C416 1.366 . S
C417 C421 1.385 1_455 S
C418 H399 0.951 . S
C418 C416 1.388 . S
C418 C419 1.366 . S
C419 C418 1.366 . S
C419 C420 1.414 1_455 S
C419 C422 1.499 . S
C420 H400 0.950 . S
C420 C419 1.414 1_655 S
C420 C421 1.374 . S
C421 H401 0.950 . S
C421 C417 1.385 1_655 S
C421 C420 1.374 . S
C422 C419 1.499 . S
C422 C423 1.373 1_455 S
C422 C424 1.389 . S
C423 H402 0.950 . S
C423 C422 1.373 1_655 S
C423 C439 1.377 . S
C424 C422 1.389 . S
C424 C425 1.524 . S
C424 C438 1.377 . S
C425 C424 1.524 . S
C425 C426 1.397 . S
C425 C430 1.363 . S
C426 H403 0.950 . S
C426 C425 1.397 . S
C426 C427 1.334 . S
C427 H404 0.950 . S
C427 C426 1.334 . S
C427 C428 1.287 . S
C428 C427 1.287 . S
C428 C429 1.524 . S
C428 H447 0.913 . S
C429 H405 0.950 . S
C429 C428 1.524 . S
C429 C430 1.415 . S
C430 H406 0.950 . S
C430 C425 1.363 . S
C430 C429 1.415 . S
C431 H407 0.951 . S
C431 C432 1.366 1_655 S
C431 C433 1.388 . S
C432 C431 1.366 1_455 S
C432 C436 1.385 . S
C433 H408 0.951 . S
C433 C431 1.388 . S
C433 C434 1.366 1_655 S
C434 C433 1.366 1_455 S
C434 C435 1.414 . S
C434 C437 1.499 . S
C435 H409 0.950 . S
C435 C434 1.414 . S
C435 C436 1.374 . S
C436 H410 0.950 . S
C436 C432 1.385 . S
C436 C435 1.374 . S
C437 C434 1.499 . S
C437 C438 1.373 . S
C437 C439 1.389 1_455 S
C438 H411 0.950 . S
C438 C424 1.377 . S
C438 C437 1.373 . S
C439 C423 1.377 . S
C439 C437 1.389 1_655 S
C439 C440 1.524 . S
C440 C439 1.524 . S
C440 C441 1.397 . S
C440 C445 1.363 . S
C441 H412 0.950 . S
C441 C440 1.397 . S
C441 C442 1.334 . S
C442 H413 0.950 . S
C442 C441 1.334 . S
C442 C443 1.287 . S
C443 C442 1.287 . S
C443 C444 1.524 . S
C443 H446 0.999 . S
C444 H414 0.950 . S
C444 C443 1.524 . S
C444 C445 1.415 . S
C445 H415 0.950 . S
C445 C440 1.363 . S
C445 C444 1.415 . S
H446 C443 0.999 . S
H447 C428 0.913 . S
H448 C466 0.951 . S
H449 C468 0.951 . S
H450 C470 0.950 . S
H451 C471 0.950 . S
H452 C473 0.950 . S
H453 C476 0.950 . S
H454 C477 0.950 . S
H455 C479 0.950 . S
H456 C480 0.950 1_556 S
H457 C481 0.951 . S
H458 C483 0.951 . S
H459 C485 0.950 . S
H460 C486 0.950 . S
H461 C488 0.950 . S
H462 C491 0.950 . S
H463 C492 0.950 . S
H464 C494 0.950 . S
H465 C495 0.950 1_554 S
C466 H448 0.951 . S
C466 C467 1.366 . S
C466 C468 1.388 . S
C467 C466 1.366 . S
C467 C471 1.385 1_565 S
C468 H449 0.951 . S
C468 C466 1.388 . S
C468 C469 1.366 . S
C469 C468 1.366 . S
C469 C470 1.414 1_565 S
C469 C472 1.499 . S
C470 H450 0.950 . S
C470 C469 1.414 1_545 S
C470 C471 1.374 . S
C471 H451 0.950 . S
C471 C467 1.385 1_545 S
C471 C470 1.374 . S
C472 C469 1.499 . S
C472 C473 1.373 1_565 S
C472 C474 1.389 . S
C473 H452 0.950 . S
C473 C472 1.373 1_545 S
C473 C489 1.377 1_554 S
C474 C472 1.389 . S
C474 C475 1.524 . S
C474 C488 1.377 1_554 S
C475 C474 1.524 . S
C475 C476 1.397 . S
C475 C480 1.363 . S
C476 H453 0.950 . S
C476 C475 1.397 . S
C476 C477 1.334 . S
C477 H454 0.950 . S
C477 C476 1.334 . S
C477 C478 1.287 . S
C478 C477 1.287 . S
C478 C479 1.524 . S
C478 H497 0.913 . S
C479 H455 0.950 . S
C479 C478 1.524 . S
C479 C480 1.415 . S
C480 H456 0.950 1_554 S
C480 C475 1.363 . S
C480 C479 1.415 . S
C481 H457 0.951 . S
C481 C482 1.351 1_545 S
C481 C483 1.388 . S
C482 C481 1.351 1_565 S
C482 C486 1.400 . S
C483 H458 0.951 . S
C483 C481 1.388 . S
C483 C484 1.366 1_545 S
C484 C483 1.366 1_565 S
C484 C485 1.414 . S
C484 C487 1.498 . S
C485 H459 0.950 . S
C485 C484 1.414 . S
C485 C486 1.374 . S
C486 H460 0.950 . S
C486 C482 1.400 . S
C486 C485 1.374 . S
C487 C484 1.498 . S
C487 C488 1.407 . S
C487 C489 1.357 1_565 S
C488 H461 0.950 . S
C488 C474 1.377 1_556 S
C488 C487 1.407 . S
C489 C473 1.377 1_556 S
C489 C487 1.357 1_545 S
C489 C490 1.524 . S
C490 C489 1.524 . S
C490 C491 1.397 . S
C490 C495 1.363 . S
C491 H462 0.950 . S
C491 C490 1.397 . S
C491 C492 1.334 . S
C492 H463 0.950 . S
C492 C491 1.334 . S
C492 C493 1.287 . S
C493 C492 1.287 . S
C493 C494 1.524 . S
C493 H496 0.999 . S
C494 H464 0.950 . S
C494 C493 1.524 . S
C494 C495 1.415 . S
C495 H465 0.950 1_556 S
C495 C490 1.363 . S
C495 C494 1.415 . S
H496 C493 0.999 . S
H497 C478 0.913 . S
H498 C516 0.951 . S
H499 C518 0.951 . S
H500 C520 0.950 . S
H501 C521 0.950 . S
H502 C523 0.950 . S
H503 C526 0.950 . S
H504 C527 0.950 . S
H505 C529 0.950 . S
H506 C530 0.950 . S
H507 C531 0.951 . S
H508 C533 0.951 . S
H509 C535 0.950 . S
H510 C536 0.950 . S
H511 C538 0.950 . S
H512 C541 0.950 1_556 S
H513 C542 0.950 . S
H514 C544 0.950 . S
H515 C545 0.950 . S
C516 H498 0.951 . S
C516 C517 1.366 . S
C516 C518 1.388 . S
C517 C516 1.366 . S
C517 C521 1.385 . S
C518 H499 0.951 . S
C518 C516 1.388 . S
C518 C519 1.366 . S
C519 C518 1.366 . S
C519 C520 1.414 . S
C519 C522 1.499 . S
C520 H500 0.950 . S
C520 C519 1.414 . S
C520 C521 1.374 . S
C521 H501 0.950 . S
C521 C517 1.385 . S
C521 C520 1.374 . S
C522 C519 1.499 . S
C522 C523 1.373 . S
C522 C524 1.389 1_554 S
C523 H502 0.950 . S
C523 C522 1.373 . S
C523 C539 1.377 . S
C524 C522 1.389 1_556 S
C524 C525 1.524 . S
C524 C538 1.377 . S
C525 C524 1.524 . S
C525 C526 1.397 . S
C525 C530 1.363 . S
C526 H503 0.950 . S
C526 C525 1.397 . S
C526 C527 1.334 . S
C527 H504 0.950 . S
C527 C526 1.334 . S
C527 C528 1.287 . S
C528 C527 1.287 . S
C528 C529 1.524 . S
C528 H547 0.913 . S
C529 H505 0.950 . S
C529 C528 1.524 . S
C529 C530 1.415 . S
C530 H506 0.950 . S
C530 C525 1.363 . S
C530 C529 1.415 . S
C531 H507 0.951 . S
C531 C532 1.366 . S
C531 C533 1.388 . S
C532 C531 1.366 . S
C532 C536 1.385 . S
C533 H508 0.951 . S
C533 C531 1.388 . S
C533 C534 1.366 . S
C534 C533 1.366 . S
C534 C535 1.414 . S
C534 C537 1.499 . S
C535 H509 0.950 . S
C535 C534 1.414 . S
C535 C536 1.374 . S
C536 H510 0.950 . S
C536 C532 1.385 . S
C536 C535 1.374 . S
C537 C534 1.499 . S
C537 C538 1.373 . S
C537 C539 1.389 1_556 S
C538 H511 0.950 . S
C538 C524 1.377 . S
C538 C537 1.373 . S
C539 C523 1.377 . S
C539 C537 1.389 1_554 S
C539 C540 1.524 . S
C540 C539 1.524 . S
C540 C541 1.397 . S
C540 C545 1.363 . S
C541 H512 0.950 1_554 S
C541 C540 1.397 . S
C541 C542 1.334 . S
C542 H513 0.950 . S
C542 C541 1.334 . S
C542 C543 1.287 . S
C543 C542 1.287 . S
C543 C544 1.524 . S
C543 H546 0.999 . S
C544 H514 0.950 . S
C544 C543 1.524 . S
C544 C545 1.415 . S
C545 H515 0.950 . S
C545 C540 1.363 . S
C545 C544 1.415 . S
H546 C543 0.999 . S
H547 C528 0.913 . S
H548 C566 0.951 . S
H549 C568 0.951 . S
H550 C570 0.950 . S
H551 C571 0.950 . S
H552 C573 0.950 . S
H553 C576 0.950 . S
H554 C577 0.950 . S
H555 C579 0.950 . S
H556 C580 0.950 . S
H557 C581 0.951 . S
H558 C583 0.951 . S
H559 C585 0.950 . S
H560 C586 0.950 . S
H561 C588 0.950 . S
H562 C591 0.950 . S
H563 C592 0.950 . S
H564 C594 0.950 . S
H565 C595 0.950 . S
C566 H548 0.951 . S
C566 C567 1.366 . S
C566 C568 1.388 . S
C567 C566 1.366 . S
C567 C571 1.385 . S
C568 H549 0.951 . S
C568 C566 1.388 . S
C568 C569 1.366 . S
C569 C568 1.366 . S
C569 C570 1.414 . S
C569 C572 1.499 . S
C570 H550 0.950 . S
C570 C569 1.414 . S
C570 C571 1.374 . S
C571 H551 0.950 . S
C571 C567 1.385 . S
C571 C570 1.374 . S
C572 C569 1.499 . S
C572 C573 1.373 1_554 S
C572 C574 1.389 . S
C573 H552 0.950 . S
C573 C572 1.373 1_556 S
C573 C589 1.377 . S
C574 C572 1.389 . S
C574 C575 1.524 . S
C574 C588 1.377 . S
C575 C574 1.524 . S
C575 C576 1.397 . S
C575 C580 1.363 . S
C576 H553 0.950 . S
C576 C575 1.397 . S
C576 C577 1.334 . S
C577 H554 0.950 . S
C577 C576 1.334 . S
C577 C578 1.287 . S
C578 C577 1.287 . S
C578 C579 1.524 . S
C578 H597 0.913 . S
C579 H555 0.950 . S
C579 C578 1.524 . S
C579 C580 1.415 . S
C580 H556 0.950 . S
C580 C575 1.363 . S
C580 C579 1.415 . S
C581 H557 0.951 . S
C581 C582 1.366 . S
C581 C583 1.388 . S
C582 C581 1.366 . S
C582 C586 1.385 . S
C583 H558 0.951 . S
C583 C581 1.388 . S
C583 C584 1.366 . S
C584 C583 1.366 . S
C584 C585 1.414 . S
C584 C587 1.499 . S
C585 H559 0.950 . S
C585 C584 1.414 . S
C585 C586 1.374 . S
C586 H560 0.950 . S
C586 C582 1.385 . S
C586 C585 1.374 . S
C587 C584 1.499 . S
C587 C588 1.373 1_556 S
C587 C589 1.389 . S
C588 H561 0.950 . S
C588 C574 1.377 . S
C588 C587 1.373 1_554 S
C589 C573 1.377 . S
C589 C587 1.389 . S
C589 C590 1.524 . S
C590 C589 1.524 . S
C590 C591 1.397 . S
C590 C595 1.363 . S
C591 H562 0.950 . S
C591 C590 1.397 . S
C591 C592 1.334 . S
C592 H563 0.950 . S
C592 C591 1.334 . S
C592 C593 1.287 . S
C593 C592 1.287 . S
C593 C594 1.524 . S
C593 H596 0.999 . S
C594 H564 0.950 . S
C594 C593 1.524 . S
C594 C595 1.415 . S
C595 H565 0.950 . S
C595 C590 1.363 . S
C595 C594 1.415 . S
H596 C593 0.999 . S
H597 C578 0.913 . S
H598 C616 0.951 . S
H599 C618 0.951 . S
H600 C620 0.950 . S
H601 C621 0.950 . S
H602 C623 0.950 . S
H603 C626 0.950 . S
H604 C627 0.950 . S
H605 C629 0.950 . S
H606 C630 0.950 . S
H607 C631 0.951 . S
H608 C633 0.951 . S
H609 C635 0.950 . S
H610 C636 0.950 . S
H611 C638 0.950 . S
H612 C641 0.950 . S
H613 C642 0.950 . S
H614 C644 0.950 . S
H615 C645 0.950 . S
C616 H598 0.951 . S
C616 C617 1.366 1_455 S
C616 C618 1.388 . S
C617 C616 1.366 1_655 S
C617 C621 1.385 . S
C618 H599 0.951 . S
C618 C616 1.388 . S
C618 C619 1.366 1_455 S
C619 C618 1.366 1_655 S
C619 C620 1.414 . S
C619 C622 1.499 . S
C620 H600 0.950 . S
C620 C619 1.414 . S
C620 C621 1.374 . S
C621 H601 0.950 . S
C621 C617 1.385 . S
C621 C620 1.374 . S
C622 C619 1.499 . S
C622 C623 1.373 1_655 S
C622 C624 1.389 1_554 S
C623 H602 0.950 . S
C623 C622 1.373 1_455 S
C623 C639 1.377 . S
C624 C622 1.389 1_556 S
C624 C625 1.524 . S
C624 C638 1.377 . S
C625 C624 1.524 . S
C625 C626 1.397 1_556 S
C625 C630 1.363 . S
C626 H603 0.950 . S
C626 C625 1.397 1_554 S
C626 C627 1.334 . S
C627 H604 0.950 . S
C627 C626 1.334 . S
C627 C628 1.287 1_554 S
C628 C627 1.287 1_556 S
C628 C629 1.524 . S
C628 H647 0.913 . S
C629 H605 0.950 . S
C629 C628 1.524 . S
C629 C630 1.415 . S
C630 H606 0.950 . S
C630 C625 1.363 . S
C630 C629 1.415 . S
C631 H607 0.951 . S
C631 C632 1.364 1_655 S
C631 C633 1.388 . S
C632 C631 1.364 1_455 S
C632 C636 1.386 . S
C633 H608 0.951 . S
C633 C631 1.388 . S
C633 C634 1.357 1_655 S
C634 C633 1.357 1_455 S
C634 C635 1.423 . S
C634 C637 1.499 . S
C635 H609 0.950 . S
C635 C634 1.423 . S
C635 C636 1.374 . S
C636 H610 0.950 . S
C636 C632 1.386 . S
C636 C635 1.374 . S
C637 C634 1.499 . S
C637 C638 1.341 1_455 S
C637 C639 1.420 1_556 S
C638 H611 0.950 . S
C638 C624 1.377 . S
C638 C637 1.341 1_655 S
C639 C623 1.377 . S
C639 C637 1.420 1_554 S
C639 C640 1.524 . S
C640 C639 1.524 . S
C640 C641 1.397 1_554 S
C640 C645 1.363 . S
C641 H612 0.950 . S
C641 C640 1.397 1_556 S
C641 C642 1.334 . S
C642 H613 0.950 . S
C642 C641 1.334 . S
C642 C643 1.287 1_556 S
C643 C642 1.287 1_554 S
C643 C644 1.524 . S
C643 H646 0.999 . S
C644 H614 0.950 . S
C644 C643 1.524 . S
C644 C645 1.415 . S
C645 H615 0.950 . S
C645 C640 1.363 . S
C645 C644 1.415 . S
H646 C643 0.999 . S
H647 C628 0.913 . S
H648 C666 0.951 . S
H649 C668 0.951 . S
H650 C670 0.950 . S
H651 C671 0.950 . S
H652 C673 0.950 . S
H653 C676 0.950 . S
H654 C677 0.950 . S
H655 C679 0.950 . S
H656 C680 0.950 . S
H657 C681 0.951 1_455 S
H658 C683 0.951 1_455 S
H659 C685 0.950 . S
H660 C686 0.950 . S
H661 C688 0.950 . S
H662 C691 0.950 . S
H663 C692 0.950 . S
H664 C694 0.950 . S
H665 C695 0.950 . S
C666 H648 0.951 . S
C666 C667 1.366 1_655 S
C666 C668 1.388 . S
C667 C666 1.366 1_455 S
C667 C671 1.385 . S
C668 H649 0.951 . S
C668 C666 1.388 . S
C668 C669 1.366 . S
C669 C668 1.366 . S
C669 C670 1.414 1_655 S
C669 C672 1.499 . S
C670 H650 0.950 . S
C670 C669 1.414 1_455 S
C670 C671 1.374 . S
C671 H651 0.950 . S
C671 C667 1.385 . S
C671 C670 1.374 . S
C672 C669 1.499 . S
C672 C673 1.373 1_655 S
C672 C674 1.389 . S
C673 H652 0.950 . S
C673 C672 1.373 1_455 S
C673 C689 1.377 . S
C674 C672 1.389 . S
C674 C675 1.524 . S
C674 C688 1.377 . S
C675 C674 1.524 . S
C675 C676 1.397 . S
C675 C680 1.363 . S
C676 H653 0.950 . S
C676 C675 1.397 . S
C676 C677 1.334 . S
C677 H654 0.950 . S
C677 C676 1.334 . S
C677 C678 1.287 . S
C678 C677 1.287 . S
C678 C679 1.524 . S
C678 H697 0.913 . S
C679 H655 0.950 . S
C679 C678 1.524 . S
C679 C680 1.415 . S
C680 H656 0.950 . S
C680 C675 1.363 . S
C680 C679 1.415 . S
C681 H657 0.951 1_655 S
C681 C682 1.366 . S
C681 C683 1.388 . S
C682 C681 1.366 . S
C682 C686 1.385 . S
C683 H658 0.951 1_655 S
C683 C681 1.388 . S
C683 C684 1.366 . S
C684 C683 1.366 . S
C684 C685 1.414 . S
C684 C687 1.499 . S
C685 H659 0.950 . S
C685 C684 1.414 . S
C685 C686 1.374 . S
C686 H660 0.950 . S
C686 C682 1.385 . S
C686 C685 1.374 . S
C687 C684 1.499 . S
C687 C688 1.373 . S
C687 C689 1.389 1_655 S
C688 H661 0.950 . S
C688 C674 1.377 . S
C688 C687 1.373 . S
C689 C673 1.377 . S
C689 C687 1.389 1_455 S
C689 C690 1.524 . S
C690 C689 1.524 . S
C690 C691 1.397 . S
C690 C695 1.363 . S
C691 H662 0.950 . S
C691 C690 1.397 . S
C691 C692 1.334 . S
C692 H663 0.950 . S
C692 C691 1.334 . S
C692 C693 1.287 . S
C693 C692 1.287 . S
C693 C694 1.524 . S
C693 H696 0.999 . S
C694 H664 0.950 . S
C694 C693 1.524 . S
C694 C695 1.415 . S
C695 H665 0.950 . S
C695 C690 1.363 . S
C695 C694 1.415 . S
H696 C693 0.999 . S
H697 C678 0.913 . S
H698 C716 0.951 . S
H699 C718 0.951 . S
H700 C720 0.950 . S
H701 C721 0.950 . S
H702 C723 0.950 . S
H703 C726 0.950 . S
H704 C727 0.950 . S
H705 C729 0.950 . S
H706 C730 0.950 . S
H707 C731 0.951 . S
H708 C733 0.951 . S
H709 C735 0.950 1_545 S
H710 C736 0.943 1_545 S
H711 C738 0.950 . S
H712 C741 0.979 . S
H713 C742 0.950 . S
H714 C744 0.950 . S
H715 C745 0.950 . S
C716 H698 0.951 . S
C716 C717 1.366 . S
C716 C718 1.388 . S
C717 C716 1.366 . S
C717 C721 1.385 1_545 S
C718 H699 0.951 . S
C718 C716 1.388 . S
C718 C719 1.366 1_545 S
C719 C718 1.366 1_565 S
C719 C720 1.414 . S
C719 C722 1.499 . S
C720 H700 0.950 . S
C720 C719 1.414 . S
C720 C721 1.374 . S
C721 H701 0.950 . S
C721 C717 1.385 1_565 S
C721 C720 1.374 . S
C722 C719 1.499 . S
C722 C723 1.373 . S
C722 C724 1.389 . S
C723 H702 0.950 . S
C723 C722 1.373 . S
C723 C739 1.377 . S
C724 C722 1.389 . S
C724 C725 1.524 . S
C724 C738 1.377 . S
C725 C724 1.524 . S
C725 C726 1.397 . S
C725 C730 1.363 1_565 S
C726 H703 0.950 . S
C726 C725 1.397 . S
C726 C727 1.334 . S
C727 H704 0.950 . S
C727 C726 1.334 . S
C727 C728 1.287 . S
C728 C727 1.287 . S
C728 C729 1.524 1_565 S
C728 H747 0.913 1_554 S
C729 H705 0.950 . S
C729 C728 1.524 1_545 S
C729 C730 1.415 . S
C730 H706 0.950 . S
C730 C725 1.363 1_545 S
C730 C729 1.415 . S
C731 H707 0.951 . S
C731 C732 1.366 . S
C731 C733 1.388 . S
C732 C731 1.366 . S
C732 C736 1.385 . S
C733 H708 0.951 . S
C733 C731 1.388 . S
C733 C734 1.366 . S
C734 C733 1.366 . S
C734 C735 1.414 . S
C734 C737 1.499 . S
C735 H709 0.950 1_565 S
C735 C734 1.414 . S
C735 C736 1.374 . S
C736 H710 0.943 1_565 S
C736 C732 1.385 . S
C736 C735 1.374 . S
C737 C734 1.499 . S
C737 C738 1.373 . S
C737 C739 1.389 . S
C738 H711 0.950 . S
C738 C724 1.377 . S
C738 C737 1.373 . S
C739 C723 1.377 . S
C739 C737 1.389 . S
C739 C740 1.524 . S
C740 C739 1.524 . S
C740 C741 1.367 1_565 S
C740 C745 1.363 . S
C741 H712 0.979 . S
C741 C740 1.367 1_545 S
C741 C742 1.336 . S
C742 H713 0.950 . S
C742 C741 1.336 . S
C742 C743 1.287 1_545 S
C743 C742 1.287 1_565 S
C743 C744 1.524 . S
C743 H746 0.999 . S
C744 H714 0.950 . S
C744 C743 1.524 . S
C744 C745 1.415 . S
C745 H715 0.950 . S
C745 C740 1.363 . S
C745 C744 1.415 . S
H746 C743 0.999 . S
H747 C728 0.913 1_556 S
H748 C766 0.951 . S
H749 C768 0.951 . S
H750 C770 0.950 . S
H751 C771 0.950 . S
H752 C773 0.950 . S
H753 C776 0.950 . S
H754 C777 0.950 . S
H755 C779 0.950 . S
H756 C780 0.950 . S
H757 C781 0.951 . S
H758 C783 0.951 . S
H759 C785 0.950 . S
H760 C786 0.950 . S
H761 C788 0.950 . S
H762 C791 0.950 . S
H763 C792 0.950 . S
H764 C794 0.950 . S
H765 C795 0.950 . S
C766 H748 0.951 . S
C766 C767 1.366 . S
C766 C768 1.388 . S
C767 C766 1.366 . S
C767 C771 1.385 . S
C768 H749 0.951 . S
C768 C766 1.388 . S
C768 C769 1.366 . S
C769 C768 1.366 . S
C769 C770 1.414 . S
C769 C772 1.499 . S
C770 H750 0.950 . S
C770 C769 1.414 . S
C770 C771 1.374 . S
C771 H751 0.950 . S
C771 C767 1.385 . S
C771 C770 1.374 . S
C772 C769 1.499 . S
C772 C773 1.373 . S
C772 C774 1.389 . S
C773 H752 0.950 . S
C773 C772 1.373 . S
C773 C789 1.377 . S
C774 C772 1.389 . S
C774 C775 1.524 . S
C774 C788 1.377 . S
C775 C774 1.524 . S
C775 C776 1.397 . S
C775 C780 1.363 . S
C776 H753 0.950 . S
C776 C775 1.397 . S
C776 C777 1.334 . S
C777 H754 0.950 . S
C777 C776 1.334 . S
C777 C778 1.287 . S
C778 C777 1.287 . S
C778 C779 1.524 . S
C778 H797 0.913 . S
C779 H755 0.950 . S
C779 C778 1.524 . S
C779 C780 1.415 . S
C780 H756 0.950 . S
C780 C775 1.363 . S
C780 C779 1.415 . S
C781 H757 0.951 . S
C781 C782 1.366 . S
C781 C783 1.388 . S
C782 C781 1.366 . S
C782 C786 1.385 . S
C783 H758 0.951 . S
C783 C781 1.388 . S
C783 C784 1.366 . S
C784 C783 1.366 . S
C784 C785 1.414 . S
C784 C787 1.499 . S
C785 H759 0.950 . S
C785 C784 1.414 . S
C785 C786 1.374 . S
C786 H760 0.950 . S
C786 C782 1.385 . S
C786 C785 1.374 . S
C787 C784 1.499 . S
C787 C788 1.373 . S
C787 C789 1.389 . S
C788 H761 0.950 . S
C788 C774 1.377 . S
C788 C787 1.373 . S
C789 C773 1.377 . S
C789 C787 1.389 . S
C789 C790 1.524 . S
C790 C789 1.524 . S
C790 C791 1.397 . S
C790 C795 1.363 . S
C791 H762 0.950 . S
C791 C790 1.397 . S
C791 C792 1.334 . S
C792 H763 0.950 . S
C792 C791 1.334 . S
C792 C793 1.287 . S
C793 C792 1.287 . S
C793 C794 1.524 . S
C793 H796 0.999 . S
C794 H764 0.950 . S
C794 C793 1.524 . S
C794 C795 1.415 . S
C795 H765 0.950 . S
C795 C790 1.363 . S
C795 C794 1.415 . S
H796 C793 0.999 . S
H797 C778 0.913 . S
H798 C816 0.951 . S
H799 C818 0.951 . S
H800 C820 0.950 . S
H801 C821 0.950 . S
H802 C823 0.950 . S
H803 C826 0.950 . S
H804 C827 0.950 . S
H805 C829 0.950 . S
H806 C830 0.950 . S
H807 C831 0.951 . S
H808 C833 0.951 . S
H809 C835 0.950 . S
H810 C836 0.950 . S
H811 C838 0.950 . S
H812 C841 0.950 . S
H813 C842 0.950 . S
H814 C844 0.950 . S
H815 C845 0.950 . S
C816 H798 0.951 . S
C816 C817 1.366 . S
C816 C818 1.388 . S
C817 C816 1.366 . S
C817 C821 1.385 . S
C818 H799 0.951 . S
C818 C816 1.388 . S
C818 C819 1.366 . S
C819 C818 1.366 . S
C819 C820 1.414 . S
C819 C822 1.499 . S
C820 H800 0.950 . S
C820 C819 1.414 . S
C820 C821 1.374 . S
C821 H801 0.950 . S
C821 C817 1.385 . S
C821 C820 1.374 . S
C822 C819 1.499 . S
C822 C823 1.373 . S
C822 C824 1.389 . S
C823 H802 0.950 . S
C823 C822 1.373 . S
C823 C839 1.377 . S
C824 C822 1.389 . S
C824 C825 1.524 . S
C824 C838 1.377 . S
C825 C824 1.524 . S
C825 C826 1.397 . S
C825 C830 1.363 . S
C826 H803 0.950 . S
C826 C825 1.397 . S
C826 C827 1.334 . S
C827 H804 0.950 . S
C827 C826 1.334 . S
C827 C828 1.287 . S
C828 C827 1.287 . S
C828 C829 1.524 . S
C828 H847 0.913 . S
C829 H805 0.950 . S
C829 C828 1.524 . S
C829 C830 1.415 . S
C830 H806 0.950 . S
C830 C825 1.363 . S
C830 C829 1.415 . S
C831 H807 0.951 . S
C831 C832 1.366 . S
C831 C833 1.388 . S
C832 C831 1.366 . S
C832 C836 1.385 . S
C833 H808 0.951 . S
C833 C831 1.388 . S
C833 C834 1.366 . S
C834 C833 1.366 . S
C834 C835 1.414 . S
C834 C837 1.499 . S
C835 H809 0.950 . S
C835 C834 1.414 . S
C835 C836 1.374 . S
C836 H810 0.950 . S
C836 C832 1.385 . S
C836 C835 1.374 . S
C837 C834 1.499 . S
C837 C838 1.373 . S
C837 C839 1.389 . S
C838 H811 0.950 . S
C838 C824 1.377 . S
C838 C837 1.373 . S
C839 C823 1.377 . S
C839 C837 1.389 . S
C839 C840 1.524 . S
C840 C839 1.524 . S
C840 C841 1.397 . S
C840 C845 1.363 . S
C841 H812 0.950 . S
C841 C840 1.397 . S
C841 C842 1.334 . S
C842 H813 0.950 . S
C842 C841 1.334 . S
C842 C843 1.287 . S
C843 C842 1.287 . S
C843 C844 1.524 . S
C843 H846 0.999 . S
C844 H814 0.950 . S
C844 C843 1.524 . S
C844 C845 1.415 . S
C845 H815 0.950 . S
C845 C840 1.363 . S
C845 C844 1.415 . S
H846 C843 0.999 . S
H847 C828 0.913 . S
H848 C866 0.951 . S
H849 C868 0.951 . S
H850 C870 0.950 . S
H851 C871 0.950 . S
H852 C873 0.950 . S
H853 C876 0.950 . S
H854 C877 0.950 . S
H855 C879 0.950 1_556 S
H856 C880 0.950 1_556 S
H857 C881 0.951 1_554 S
H858 C883 0.951 . S
H859 C885 0.950 . S
H860 C886 0.950 . S
H861 C888 0.950 . S
H862 C891 0.950 . S
H863 C892 0.950 . S
H864 C894 0.950 . S
H865 C895 0.950 . S
C866 H848 0.951 . S
C866 C867 1.366 1_455 S
C866 C868 1.388 . S
C867 C866 1.366 1_655 S
C867 C871 1.385 . S
C868 H849 0.951 . S
C868 C866 1.388 . S
C868 C869 1.366 . S
C869 C868 1.366 . S
C869 C870 1.414 1_455 S
C869 C872 1.499 . S
C870 H850 0.950 . S
C870 C869 1.414 1_655 S
C870 C871 1.374 . S
C871 H851 0.950 . S
C871 C867 1.385 . S
C871 C870 1.374 . S
C872 C869 1.499 . S
C872 C873 1.373 1_455 S
C872 C874 1.389 . S
C873 H852 0.950 . S
C873 C872 1.373 1_655 S
C873 C889 1.377 . S
C874 C872 1.389 . S
C874 C875 1.524 . S
C874 C888 1.377 . S
C875 C874 1.524 . S
C875 C876 1.397 . S
C875 C880 1.363 . S
C876 H853 0.950 . S
C876 C875 1.397 . S
C876 C877 1.334 . S
C877 H854 0.950 . S
C877 C876 1.334 . S
C877 C878 1.287 . S
C878 C877 1.287 . S
C878 C879 1.524 . S
C878 H897 0.913 . S
C879 H855 0.950 1_554 S
C879 C878 1.524 . S
C879 C880 1.415 . S
C880 H856 0.950 1_554 S
C880 C875 1.363 . S
C880 C879 1.415 . S
C881 H857 0.951 1_556 S
C881 C882 1.366 . S
C881 C883 1.388 1_556 S
C882 C881 1.366 . S
C882 C886 1.385 . S
C883 H858 0.951 . S
C883 C881 1.388 1_554 S
C883 C884 1.366 1_554 S
C884 C883 1.366 1_556 S
C884 C885 1.414 . S
C884 C887 1.499 1_556 S
C885 H859 0.950 . S
C885 C884 1.414 . S
C885 C886 1.374 . S
C886 H860 0.950 . S
C886 C882 1.385 . S
C886 C885 1.374 . S
C887 C884 1.499 1_554 S
C887 C888 1.373 . S
C887 C889 1.389 1_455 S
C888 H861 0.950 . S
C888 C874 1.377 . S
C888 C887 1.373 . S
C889 C873 1.377 . S
C889 C887 1.389 1_655 S
C889 C890 1.524 . S
C890 C889 1.524 . S
C890 C891 1.397 1_554 S
C890 C895 1.363 . S
C891 H862 0.950 . S
C891 C890 1.397 1_556 S
C891 C892 1.334 . S
C892 H863 0.950 . S
C892 C891 1.334 . S
C892 C893 1.287 1_556 S
C893 C892 1.287 1_554 S
C893 C894 1.524 . S
C893 H896 0.999 . S
C894 H864 0.950 . S
C894 C893 1.524 . S
C894 C895 1.415 . S
C895 H865 0.950 . S
C895 C890 1.363 . S
C895 C894 1.415 . S
H896 C893 0.999 . S
H897 C878 0.913 . S
H898 C916 0.951 . S
H899 C918 0.951 . S
H900 C920 0.950 . S
H901 C921 0.950 . S
H902 C923 0.950 1_565 S
H903 C926 0.950 . S
H904 C927 0.950 . S
H905 C929 0.950 . S
H906 C930 0.950 . S
H907 C931 0.951 1_554 S
H908 C933 0.951 . S
H909 C935 0.950 . S
H910 C936 0.950 . S
H911 C938 0.950 1_556 S
H912 C941 0.950 . S
H913 C942 0.950 . S
H914 C944 0.950 . S
H915 C945 0.950 1_545 S
C916 H898 0.951 . S
C916 C917 1.366 . S
C916 C918 1.388 . S
C917 C916 1.366 . S
C917 C921 1.385 1_565 S
C918 H899 0.951 . S
C918 C916 1.388 . S
C918 C919 1.366 1_565 S
C919 C918 1.366 1_545 S
C919 C920 1.414 . S
C919 C922 1.499 . S
C920 H900 0.950 . S
C920 C919 1.414 . S
C920 C921 1.374 . S
C921 H901 0.950 . S
C921 C917 1.385 1_545 S
C921 C920 1.374 . S
C922 C919 1.499 . S
C922 C923 1.373 . S
C922 C924 1.389 . S
C923 H902 0.950 1_545 S
C923 C922 1.373 . S
C923 C939 1.377 . S
C924 C922 1.389 . S
C924 C925 1.524 . S
C924 C938 1.377 . S
C925 C924 1.524 . S
C925 C926 1.397 . S
C925 C930 1.363 1_554 S
C926 H903 0.950 . S
C926 C925 1.397 . S
C926 C927 1.334 . S
C927 H904 0.950 . S
C927 C926 1.334 . S
C927 C928 1.287 1_554 S
C928 C927 1.287 1_556 S
C928 C929 1.524 . S
C928 H947 0.913 . S
C929 H905 0.950 . S
C929 C928 1.524 . S
C929 C930 1.415 . S
C930 H906 0.950 . S
C930 C925 1.363 1_556 S
C930 C929 1.415 . S
C931 H907 0.951 1_556 S
C931 C932 1.366 . S
C931 C933 1.388 1_556 S
C932 C931 1.366 . S
C932 C936 1.385 . S
C933 H908 0.951 . S
C933 C931 1.388 1_554 S
C933 C934 1.366 1_554 S
C934 C933 1.366 1_556 S
C934 C935 1.414 . S
C934 C937 1.499 1_556 S
C935 H909 0.950 . S
C935 C934 1.414 . S
C935 C936 1.374 . S
C936 H910 0.950 . S
C936 C932 1.385 . S
C936 C935 1.374 . S
C937 C934 1.499 1_554 S
C937 C938 1.373 . S
C937 C939 1.389 . S
C938 H911 0.950 1_554 S
C938 C924 1.377 . S
C938 C937 1.373 . S
C939 C923 1.377 . S
C939 C937 1.389 . S
C939 C940 1.524 1_545 S
C940 C939 1.524 1_565 S
C940 C941 1.397 . S
C940 C945 1.363 . S
C941 H912 0.950 . S
C941 C940 1.397 . S
C941 C942 1.334 . S
C942 H913 0.950 . S
C942 C941 1.334 . S
C942 C943 1.287 . S
C943 C942 1.287 . S
C943 C944 1.524 . S
C943 H946 0.999 . S
C944 H914 0.950 . S
C944 C943 1.524 . S
C944 C945 1.415 . S
C945 H915 0.950 1_565 S
C945 C940 1.363 . S
C945 C944 1.415 . S
H946 C943 0.999 . S
H947 C928 0.913 . S
H948 C966 0.951 . S
H949 C968 0.951 . S
H950 C970 0.950 . S
H951 C971 0.950 . S
H952 C973 0.950 . S
H953 C976 0.950 1_554 S
H954 C977 0.950 . S
H955 C979 0.950 . S
H956 C980 0.952 . S
H957 C981 0.951 . S
H958 C983 0.951 . S
H959 C985 0.950 . S
H960 C986 0.950 . S
H961 C988 0.950 1_556 S
H962 C991 0.950 . S
H963 C992 0.950 . S
H964 C994 0.950 . S
H965 C995 0.950 . S
C966 H948 0.951 . S
C966 C967 1.366 . S
C966 C968 1.388 . S
C967 C966 1.366 . S
C967 C971 1.385 . S
C968 H949 0.951 . S
C968 C966 1.388 . S
C968 C969 1.366 . S
C969 C968 1.366 . S
C969 C970 1.414 . S
C969 C972 1.499 . S
C970 H950 0.950 . S
C970 C969 1.414 . S
C970 C971 1.374 . S
C971 H951 0.950 . S
C971 C967 1.385 . S
C971 C970 1.374 . S
C972 C969 1.499 . S
C972 C973 1.373 . S
C972 C974 1.389 . S
C973 H952 0.950 . S
C973 C972 1.373 . S
C973 C989 1.377 . S
C974 C972 1.389 . S
C974 C975 1.524 . S
C974 C988 1.377 . S
C975 C974 1.524 . S
C975 C976 1.397 1_554 S
C975 C980 1.363 1_554 S
C976 H953 0.950 1_556 S
C976 C975 1.397 1_556 S
C976 C977 1.334 . S
C977 H954 0.950 . S
C977 C976 1.334 . S
C977 C978 1.287 . S
C978 C977 1.287 . S
C978 C979 1.524 . S
C978 H997 0.913 . S
C979 H955 0.950 . S
C979 C978 1.524 . S
C979 C980 1.415 . S
C980 H956 0.952 . S
C980 C975 1.363 1_556 S
C980 C979 1.415 . S
C981 H957 0.951 . S
C981 C982 1.366 . S
C981 C983 1.388 . S
C982 C981 1.366 . S
C982 C986 1.385 . S
C983 H958 0.951 . S
C983 C981 1.388 . S
C983 C984 1.366 . S
C984 C983 1.366 . S
C984 C985 1.414 . S
C984 C987 1.499 1_556 S
C985 H959 0.950 . S
C985 C984 1.414 . S
C985 C986 1.374 . S
C986 H960 0.950 . S
C986 C982 1.385 . S
C986 C985 1.374 . S
C987 C984 1.499 1_554 S
C987 C988 1.373 . S
C987 C989 1.389 . S
C988 H961 0.950 1_554 S
C988 C974 1.377 . S
C988 C987 1.373 . S
C989 C973 1.377 . S
C989 C987 1.389 . S
C989 C990 1.524 . S
C990 C989 1.524 . S
C990 C991 1.397 . S
C990 C995 1.363 . S
C991 H962 0.950 . S
C991 C990 1.397 . S
C991 C992 1.334 . S
C992 H963 0.950 . S
C992 C991 1.334 . S
C992 C993 1.287 . S
C993 C992 1.287 . S
C993 C994 1.524 . S
C993 H996 0.999 . S
C994 H964 0.950 . S
C994 C993 1.524 . S
C994 C995 1.415 . S
C995 H965 0.950 . S
C995 C990 1.363 . S
C995 C994 1.415 . S
H996 C993 0.999 . S
H997 C978 0.913 . S
H998 C1016 0.951 . S
H999 C1018 0.951 . S
H1000 C1020 0.950 . S
H1001 C1021 0.950 . S
H1002 C1023 0.950 . S
H1003 C1026 0.950 . S
H1004 C1027 0.950 . S
H1005 C1029 0.950 . S
H1006 C1030 0.950 1_556 S
H1007 C1031 0.951 1_554 S
H1008 C1033 0.951 . S
H1009 C1035 0.950 . S
H1010 C1036 0.950 . S
H1011 C1038 0.950 . S
H1012 C1041 0.950 . S
H1013 C1042 0.950 . S
H1014 C1044 0.950 . S
H1015 C1045 0.950 . S
C1016 H998 0.951 . S
C1016 C1017 1.366 . S
C1016 C1018 1.388 . S
C1017 C1016 1.366 . S
C1017 C1021 1.385 . S
C1018 H999 0.951 . S
C1018 C1016 1.388 . S
C1018 C1019 1.366 . S
C1019 C1018 1.366 . S
C1019 C1020 1.414 . S
C1019 C1022 1.499 . S
C1020 H1000 0.950 . S
C1020 C1019 1.414 . S
C1020 C1021 1.374 . S
C1021 H1001 0.950 . S
C1021 C1017 1.385 . S
C1021 C1020 1.374 . S
C1022 C1019 1.499 . S
C1022 C1023 1.373 . S
C1022 C1024 1.389 . S
C1023 H1002 0.950 . S
C1023 C1022 1.373 . S
C1023 C1039 1.377 . S
C1024 C1022 1.389 . S
C1024 C1025 1.524 . S
C1024 C1038 1.377 . S
C1025 C1024 1.524 . S
C1025 C1026 1.397 . S
C1025 C1030 1.363 . S
C1026 H1003 0.950 . S
C1026 C1025 1.397 . S
C1026 C1027 1.334 . S
C1027 H1004 0.950 . S
C1027 C1026 1.334 . S
C1027 C1028 1.287 . S
C1028 C1027 1.287 . S
C1028 C1029 1.524 . S
C1028 H1047 0.913 . S
C1029 H1005 0.950 . S
C1029 C1028 1.524 . S
C1029 C1030 1.415 . S
C1030 H1006 0.950 1_554 S
C1030 C1025 1.363 . S
C1030 C1029 1.415 . S
C1031 H1007 0.951 1_556 S
C1031 C1032 1.366 . S
C1031 C1033 1.388 1_556 S
C1032 C1031 1.366 . S
C1032 C1036 1.385 . S
C1033 H1008 0.951 . S
C1033 C1031 1.388 1_554 S
C1033 C1034 1.366 1_554 S
C1034 C1033 1.366 1_556 S
C1034 C1035 1.414 . S
C1034 C1037 1.499 1_556 S
C1035 H1009 0.950 . S
C1035 C1034 1.414 . S
C1035 C1036 1.374 . S
C1036 H1010 0.950 . S
C1036 C1032 1.385 . S
C1036 C1035 1.374 . S
C1037 C1034 1.499 1_554 S
C1037 C1038 1.373 . S
C1037 C1039 1.389 . S
C1038 H1011 0.950 . S
C1038 C1024 1.377 . S
C1038 C1037 1.373 . S
C1039 C1023 1.377 . S
C1039 C1037 1.389 . S
C1039 C1040 1.524 . S
C1040 C1039 1.524 . S
C1040 C1041 1.397 1_554 S
C1040 C1045 1.363 . S
C1041 H1012 0.950 . S
C1041 C1040 1.397 1_556 S
C1041 C1042 1.334 . S
C1042 H1013 0.950 . S
C1042 C1041 1.334 . S
C1042 C1043 1.287 1_556 S
C1043 C1042 1.287 1_554 S
C1043 C1044 1.524 . S
C1043 H1046 0.999 . S
C1044 H1014 0.950 . S
C1044 C1043 1.524 . S
C1044 C1045 1.415 . S
C1045 H1015 0.950 . S
C1045 C1040 1.363 . S
C1045 C1044 1.415 . S
H1046 C1043 0.999 . S
H1047 C1028 0.913 . S
H1048 C1066 0.951 . S
H1049 C1068 0.951 . S
H1050 C1070 0.950 . S
H1051 C1071 0.950 . S
H1052 C1073 0.950 . S
H1053 C1076 0.950 . S
H1054 C1077 0.950 . S
H1055 C1079 0.950 . S
H1056 C1080 0.950 . S
H1057 C1081 0.951 . S
H1058 C1083 0.951 . S
H1059 C1085 0.950 . S
H1060 C1086 0.950 . S
H1061 C1088 0.928 1_655 S
H1062 C1091 0.950 1_655 S
H1063 C1092 0.950 . S
H1064 C1094 0.950 . S
H1065 C1095 0.950 . S
C1066 H1048 0.951 . S
C1066 C1067 1.366 1_655 S
C1066 C1068 1.388 . S
C1067 C1066 1.366 1_455 S
C1067 C1071 1.385 . S
C1068 H1049 0.951 . S
C1068 C1066 1.388 . S
C1068 C1069 1.366 1_655 S
C1069 C1068 1.366 1_455 S
C1069 C1070 1.414 . S
C1069 C1072 1.499 . S
C1070 H1050 0.950 . S
C1070 C1069 1.414 . S
C1070 C1071 1.374 . S
C1071 H1051 0.950 . S
C1071 C1067 1.385 . S
C1071 C1070 1.374 . S
C1072 C1069 1.499 . S
C1072 C1073 1.373 . S
C1072 C1074 1.389 . S
C1073 H1052 0.950 . S
C1073 C1072 1.373 . S
C1073 C1089 1.377 . S
C1074 C1072 1.389 . S
C1074 C1075 1.524 1_455 S
C1074 C1088 1.379 . S
C1075 C1074 1.524 1_655 S
C1075 C1076 1.397 1_655 S
C1075 C1080 1.363 . S
C1076 H1053 0.950 . S
C1076 C1075 1.397 1_455 S
C1076 C1077 1.334 1_556 S
C1077 H1054 0.950 . S
C1077 C1076 1.334 1_554 S
C1077 C1078 1.287 1_455 S
C1078 C1077 1.287 1_655 S
C1078 C1079 1.524 . S
C1078 H1097 0.913 . S
C1079 H1055 0.950 . S
C1079 C1078 1.524 . S
C1079 C1080 1.415 1_554 S
C1080 H1056 0.950 . S
C1080 C1075 1.363 . S
C1080 C1079 1.415 1_556 S
C1081 H1057 0.951 . S
C1081 C1082 1.366 . S
C1081 C1083 1.388 . S
C1082 C1081 1.366 . S
C1082 C1086 1.385 1_455 S
C1083 H1058 0.951 . S
C1083 C1081 1.388 . S
C1083 C1084 1.366 . S
C1084 C1083 1.366 . S
C1084 C1085 1.414 1_455 S
C1084 C1087 1.499 . S
C1085 H1059 0.950 . S
C1085 C1084 1.414 1_655 S
C1085 C1086 1.374 . S
C1086 H1060 0.950 . S
C1086 C1082 1.385 1_655 S
C1086 C1085 1.374 . S
C1087 C1084 1.499 . S
C1087 C1088 1.397 . S
C1087 C1089 1.389 . S
C1088 H1061 0.928 1_455 S
C1088 C1074 1.379 . S
C1088 C1087 1.397 . S
C1089 C1073 1.377 . S
C1089 C1087 1.389 . S
C1089 C1090 1.524 . S
C1090 C1089 1.524 . S
C1090 C1091 1.397 . S
C1090 C1095 1.363 . S
C1091 H1062 0.950 1_455 S
C1091 C1090 1.397 . S
C1091 C1092 1.334 . S
C1092 H1063 0.950 . S
C1092 C1091 1.334 . S
C1092 C1093 1.287 . S
C1093 C1092 1.287 . S
C1093 C1094 1.524 . S
C1093 H1096 0.999 . S
C1094 H1064 0.950 . S
C1094 C1093 1.524 . S
C1094 C1095 1.415 . S
C1095 H1065 0.950 . S
C1095 C1090 1.363 . S
C1095 C1094 1.415 . S
H1096 C1093 0.999 . S
H1097 C1078 0.913 . S
H1098 C1116 0.951 . S
H1099 C1118 0.951 . S
H1100 C1120 0.950 . S
H1101 C1121 0.950 . S
H1102 C1123 0.950 . S
H1103 C1126 0.950 . S
H1104 C1127 0.950 . S
H1105 C1129 0.950 . S
H1106 C1130 0.950 . S
H1107 C1131 0.951 . S
H1108 C1133 0.951 . S
H1109 C1135 0.950 1_565 S
H1110 C1136 0.932 1_565 S
H1111 C1138 0.950 . S
H1112 C1141 0.950 . S
H1113 C1142 0.950 . S
H1114 C1144 0.950 . S
H1115 C1145 0.950 . S
C1116 H1098 0.951 . S
C1116 C1117 1.366 1_565 S
C1116 C1118 1.388 . S
C1117 C1116 1.366 1_545 S
C1117 C1121 1.385 . S
C1118 H1099 0.951 . S
C1118 C1116 1.388 . S
C1118 C1119 1.366 1_565 S
C1119 C1118 1.366 1_545 S
C1119 C1120 1.414 . S
C1119 C1122 1.499 . S
C1120 H1100 0.950 . S
C1120 C1119 1.414 . S
C1120 C1121 1.374 . S
C1121 H1101 0.950 . S
C1121 C1117 1.385 . S
C1121 C1120 1.374 . S
C1122 C1119 1.499 . S
C1122 C1123 1.373 . S
C1122 C1124 1.389 1_545 S
C1123 H1102 0.950 . S
C1123 C1122 1.373 . S
C1123 C1139 1.377 . S
C1124 C1122 1.389 1_565 S
C1124 C1125 1.524 . S
C1124 C1138 1.377 . S
C1125 C1124 1.524 . S
C1125 C1126 1.397 . S
C1125 C1130 1.363 . S
C1126 H1103 0.950 . S
C1126 C1125 1.397 . S
C1126 C1127 1.334 . S
C1127 H1104 0.950 . S
C1127 C1126 1.334 . S
C1127 C1128 1.287 . S
C1128 C1127 1.287 . S
C1128 C1129 1.524 . S
C1128 H1147 0.913 . S
C1129 H1105 0.950 . S
C1129 C1128 1.524 . S
C1129 C1130 1.415 . S
C1130 H1106 0.950 . S
C1130 C1125 1.363 . S
C1130 C1129 1.415 . S
C1131 H1107 0.951 . S
C1131 C1132 1.366 . S
C1131 C1133 1.388 . S
C1132 C1131 1.366 . S
C1132 C1136 1.385 . S
C1133 H1108 0.951 . S
C1133 C1131 1.388 . S
C1133 C1134 1.366 . S
C1134 C1133 1.366 . S
C1134 C1135 1.414 . S
C1134 C1137 1.499 . S
C1135 H1109 0.950 1_545 S
C1135 C1134 1.414 . S
C1135 C1136 1.374 . S
C1136 H1110 0.932 1_545 S
C1136 C1132 1.385 . S
C1136 C1135 1.374 . S
C1137 C1134 1.499 . S
C1137 C1138 1.373 1_545 S
C1137 C1139 1.389 . S
C1138 H1111 0.950 . S
C1138 C1124 1.377 . S
C1138 C1137 1.373 1_565 S
C1139 C1123 1.377 . S
C1139 C1137 1.389 . S
C1139 C1140 1.524 . S
C1140 C1139 1.524 . S
C1140 C1141 1.397 . S
C1140 C1145 1.363 . S
C1141 H1112 0.950 . S
C1141 C1140 1.397 . S
C1141 C1142 1.334 . S
C1142 H1113 0.950 . S
C1142 C1141 1.334 . S
C1142 C1143 1.287 . S
C1143 C1142 1.287 . S
C1143 C1144 1.524 . S
C1143 H1146 0.999 . S
C1144 H1114 0.950 . S
C1144 C1143 1.524 . S
C1144 C1145 1.415 . S
C1145 H1115 0.950 . S
C1145 C1140 1.363 . S
C1145 C1144 1.415 . S
H1146 C1143 0.999 . S
H1147 C1128 0.913 . S
H1148 C1166 0.951 . S
H1149 C1168 0.951 . S
H1150 C1170 0.950 . S
H1151 C1171 0.950 . S
H1152 C1173 0.950 . S
H1153 C1176 0.950 . S
H1154 C1177 0.950 . S
H1155 C1179 0.950 . S
H1156 C1180 0.950 . S
H1157 C1181 0.951 . S
H1158 C1183 0.951 . S
H1159 C1185 0.950 . S
H1160 C1186 0.950 . S
H1161 C1188 0.950 . S
H1162 C1191 0.950 . S
H1163 C1192 0.950 . S
H1164 C1194 0.950 . S
H1165 C1195 0.950 . S
C1166 H1148 0.951 . S
C1166 C1167 1.366 . S
C1166 C1168 1.388 . S
C1167 C1166 1.366 . S
C1167 C1171 1.385 . S
C1168 H1149 0.951 . S
C1168 C1166 1.388 . S
C1168 C1169 1.366 . S
C1169 C1168 1.366 . S
C1169 C1170 1.414 . S
C1169 C1172 1.499 . S
C1170 H1150 0.950 . S
C1170 C1169 1.414 . S
C1170 C1171 1.374 . S
C1171 H1151 0.950 . S
C1171 C1167 1.385 . S
C1171 C1170 1.374 . S
C1172 C1169 1.499 . S
C1172 C1173 1.373 . S
C1172 C1174 1.389 . S
C1173 H1152 0.950 . S
C1173 C1172 1.373 . S
C1173 C1189 1.377 . S
C1174 C1172 1.389 . S
C1174 C1175 1.524 . S
C1174 C1188 1.377 . S
C1175 C1174 1.524 . S
C1175 C1176 1.397 . S
C1175 C1180 1.363 . S
C1176 H1153 0.950 . S
C1176 C1175 1.397 . S
C1176 C1177 1.334 . S
C1177 H1154 0.950 . S
C1177 C1176 1.334 . S
C1177 C1178 1.287 . S
C1178 C1177 1.287 . S
C1178 C1179 1.524 . S
C1178 H1197 0.913 . S
C1179 H1155 0.950 . S
C1179 C1178 1.524 . S
C1179 C1180 1.415 . S
C1180 H1156 0.950 . S
C1180 C1175 1.363 . S
C1180 C1179 1.415 . S
C1181 H1157 0.951 . S
C1181 C1182 1.366 . S
C1181 C1183 1.388 . S
C1182 C1181 1.366 . S
C1182 C1186 1.385 . S
C1183 H1158 0.951 . S
C1183 C1181 1.388 . S
C1183 C1184 1.366 . S
C1184 C1183 1.366 . S
C1184 C1185 1.414 . S
C1184 C1187 1.499 . S
C1185 H1159 0.950 . S
C1185 C1184 1.414 . S
C1185 C1186 1.374 . S
C1186 H1160 0.950 . S
C1186 C1182 1.385 . S
C1186 C1185 1.374 . S
C1187 C1184 1.499 . S
C1187 C1188 1.373 . S
C1187 C1189 1.389 . S
C1188 H1161 0.950 . S
C1188 C1174 1.377 . S
C1188 C1187 1.373 . S
C1189 C1173 1.377 . S
C1189 C1187 1.389 . S
C1189 C1190 1.524 . S
C1190 C1189 1.524 . S
C1190 C1191 1.397 . S
C1190 C1195 1.363 . S
C1191 H1162 0.950 . S
C1191 C1190 1.397 . S
C1191 C1192 1.334 . S
C1192 H1163 0.950 . S
C1192 C1191 1.334 . S
C1192 C1193 1.287 . S
C1193 C1192 1.287 . S
C1193 C1194 1.524 . S
C1193 H1196 0.999 . S
C1194 H1164 0.950 . S
C1194 C1193 1.524 . S
C1194 C1195 1.415 . S
C1195 H1165 0.950 . S
C1195 C1190 1.363 . S
C1195 C1194 1.415 . S
H1196 C1193 0.999 . S
H1197 C1178 0.913 . S
H1198 C1216 0.951 . S
H1199 C1218 0.951 . S
H1200 C1220 0.950 . S
H1201 C1221 0.950 . S
H1202 C1223 0.950 . S
H1203 C1226 0.950 . S
H1204 C1227 0.950 . S
H1205 C1229 0.950 . S
H1206 C1230 0.950 . S
H1207 C1231 0.951 . S
H1208 C1233 0.951 . S
H1209 C1235 0.950 . S
H1210 C1236 0.950 . S
H1211 C1238 0.950 . S
H1212 C1241 0.950 . S
H1213 C1242 0.950 . S
H1214 C1244 0.950 . S
H1215 C1245 0.950 . S
C1216 H1198 0.951 . S
C1216 C1217 1.366 . S
C1216 C1218 1.388 . S
C1217 C1216 1.366 . S
C1217 C1221 1.385 . S
C1218 H1199 0.951 . S
C1218 C1216 1.388 . S
C1218 C1219 1.366 . S
C1219 C1218 1.366 . S
C1219 C1220 1.414 . S
C1219 C1222 1.499 . S
C1220 H1200 0.950 . S
C1220 C1219 1.414 . S
C1220 C1221 1.374 . S
C1221 H1201 0.950 . S
C1221 C1217 1.385 . S
C1221 C1220 1.374 . S
C1222 C1219 1.499 . S
C1222 C1223 1.373 . S
C1222 C1224 1.389 . S
C1223 H1202 0.950 . S
C1223 C1222 1.373 . S
C1223 C1239 1.377 . S
C1224 C1222 1.389 . S
C1224 C1225 1.524 . S
C1224 C1238 1.377 . S
C1225 C1224 1.524 . S
C1225 C1226 1.397 . S
C1225 C1230 1.363 . S
C1226 H1203 0.950 . S
C1226 C1225 1.397 . S
C1226 C1227 1.334 . S
C1227 H1204 0.950 . S
C1227 C1226 1.334 . S
C1227 C1228 1.287 . S
C1228 C1227 1.287 . S
C1228 C1229 1.524 . S
C1228 H1247 0.913 . S
C1229 H1205 0.950 . S
C1229 C1228 1.524 . S
C1229 C1230 1.415 . S
C1230 H1206 0.950 . S
C1230 C1225 1.363 . S
C1230 C1229 1.415 . S
C1231 H1207 0.951 . S
C1231 C1232 1.366 . S
C1231 C1233 1.388 . S
C1232 C1231 1.366 . S
C1232 C1236 1.385 . S
C1233 H1208 0.951 . S
C1233 C1231 1.388 . S
C1233 C1234 1.366 . S
C1234 C1233 1.366 . S
C1234 C1235 1.414 . S
C1234 C1237 1.499 . S
C1235 H1209 0.950 . S
C1235 C1234 1.414 . S
C1235 C1236 1.374 . S
C1236 H1210 0.950 . S
C1236 C1232 1.385 . S
C1236 C1235 1.374 . S
C1237 C1234 1.499 . S
C1237 C1238 1.373 . S
C1237 C1239 1.389 . S
C1238 H1211 0.950 . S
C1238 C1224 1.377 . S
C1238 C1237 1.373 . S
C1239 C1223 1.377 . S
C1239 C1237 1.389 . S
C1239 C1240 1.524 . S
C1240 C1239 1.524 . S
C1240 C1241 1.397 . S
C1240 C1245 1.363 . S
C1241 H1212 0.950 . S
C1241 C1240 1.397 . S
C1241 C1242 1.334 . S
C1242 H1213 0.950 . S
C1242 C1241 1.334 . S
C1242 C1243 1.287 . S
C1243 C1242 1.287 . S
C1243 C1244 1.524 . S
C1243 H1246 0.999 . S
C1244 H1214 0.950 . S
C1244 C1243 1.524 . S
C1244 C1245 1.415 . S
C1245 H1215 0.950 . S
C1245 C1240 1.363 . S
C1245 C1244 1.415 . S
H1246 C1243 0.999 . S
H1247 C1228 0.913 . S
H1248 C1266 0.951 . S
H1249 C1268 0.951 . S
H1250 C1270 0.950 . S
H1251 C1271 0.950 . S
H1252 C1273 0.950 . S
H1253 C1276 0.950 . S
H1254 C1277 0.950 . S
H1255 C1279 0.950 . S
H1256 C1280 0.950 . S
H1257 C1281 0.951 . S
H1258 C1283 0.951 . S
H1259 C1285 0.950 . S
H1260 C1286 0.950 . S
H1261 C1288 0.950 . S
H1262 C1291 1.012 . S
H1263 C1292 0.950 . S
H1264 C1294 0.950 . S
H1265 C1295 0.950 . S
C1266 H1248 0.951 . S
C1266 C1267 1.366 . S
C1266 C1268 1.388 . S
C1267 C1266 1.366 . S
C1267 C1271 1.385 1_655 S
C1268 H1249 0.951 . S
C1268 C1266 1.388 . S
C1268 C1269 1.366 . S
C1269 C1268 1.366 . S
C1269 C1270 1.414 1_655 S
C1269 C1272 1.499 . S
C1270 H1250 0.950 . S
C1270 C1269 1.414 1_455 S
C1270 C1271 1.374 . S
C1271 H1251 0.950 . S
C1271 C1267 1.385 1_455 S
C1271 C1270 1.374 . S
C1272 C1269 1.499 . S
C1272 C1273 1.373 1_655 S
C1272 C1274 1.389 . S
C1273 H1252 0.950 . S
C1273 C1272 1.373 1_455 S
C1273 C1289 1.377 . S
C1274 C1272 1.389 . S
C1274 C1275 1.524 . S
C1274 C1288 1.377 . S
C1275 C1274 1.524 . S
C1275 C1276 1.397 . S
C1275 C1280 1.363 . S
C1276 H1253 0.950 . S
C1276 C1275 1.397 . S
C1276 C1277 1.334 . S
C1277 H1254 0.950 . S
C1277 C1276 1.334 . S
C1277 C1278 1.287 . S
C1278 C1277 1.287 . S
C1278 C1279 1.524 . S
C1278 H1297 0.913 . S
C1279 H1255 0.950 . S
C1279 C1278 1.524 . S
C1279 C1280 1.415 . S
C1280 H1256 0.950 . S
C1280 C1275 1.363 . S
C1280 C1279 1.415 . S
C1281 H1257 0.951 . S
C1281 C1282 1.366 1_455 S
C1281 C1283 1.388 . S
C1282 C1281 1.366 1_655 S
C1282 C1286 1.385 . S
C1283 H1258 0.951 . S
C1283 C1281 1.388 . S
C1283 C1284 1.366 1_455 S
C1284 C1283 1.366 1_655 S
C1284 C1285 1.414 . S
C1284 C1287 1.499 . S
C1285 H1259 0.950 . S
C1285 C1284 1.414 . S
C1285 C1286 1.374 . S
C1286 H1260 0.950 . S
C1286 C1282 1.385 . S
C1286 C1285 1.374 . S
C1287 C1284 1.499 . S
C1287 C1288 1.373 . S
C1287 C1289 1.389 1_655 S
C1288 H1261 0.950 . S
C1288 C1274 1.377 . S
C1288 C1287 1.373 . S
C1289 C1273 1.377 . S
C1289 C1287 1.389 1_455 S
C1289 C1290 1.524 . S
C1290 C1289 1.524 . S
C1290 C1291 1.397 . S
C1290 C1295 1.363 . S
C1291 H1262 1.012 . S
C1291 C1290 1.397 . S
C1291 C1292 1.334 . S
C1292 H1263 0.950 . S
C1292 C1291 1.334 . S
C1292 C1293 1.287 . S
C1293 C1292 1.287 . S
C1293 C1294 1.524 . S
C1293 H1296 0.999 . S
C1294 H1264 0.950 . S
C1294 C1293 1.524 . S
C1294 C1295 1.415 . S
C1295 H1265 0.950 . S
C1295 C1290 1.363 . S
C1295 C1294 1.415 . S
H1296 C1293 0.999 . S
H1297 C1278 0.913 . S
H1298 C1316 0.951 . S
H1299 C1318 0.951 . S
H1300 C1320 0.951 . S
H1301 C1321 0.956 . S
H1302 C1323 0.950 . S
H1303 C1326 0.950 . S
H1304 C1327 0.950 . S
H1305 C1329 0.950 . S
H1306 C1330 0.950 . S
H1307 C1331 0.951 . S
H1308 C1333 0.951 . S
H1309 C1335 0.950 . S
H1310 C1336 0.950 . S
H1311 C1338 0.950 . S
H1312 C1341 0.950 . S
H1313 C1342 0.950 . S
H1314 C1344 0.950 . S
H1315 C1345 0.950 . S
C1316 H1298 0.951 . S
C1316 C1317 1.366 . S
C1316 C1318 1.388 . S
C1317 C1316 1.366 . S
C1317 C1321 1.380 1_565 S
C1318 H1299 0.951 . S
C1318 C1316 1.388 . S
C1318 C1319 1.366 . S
C1319 C1318 1.366 . S
C1319 C1320 1.413 1_565 S
C1319 C1322 1.499 . S
C1320 H1300 0.951 . S
C1320 C1319 1.413 1_545 S
C1320 C1321 1.374 . S
C1321 H1301 0.956 . S
C1321 C1317 1.380 1_545 S
C1321 C1320 1.374 . S
C1322 C1319 1.499 . S
C1322 C1323 1.373 . S
C1322 C1324 1.389 1_565 S
C1323 H1302 0.950 . S
C1323 C1322 1.373 . S
C1323 C1339 1.377 . S
C1324 C1322 1.389 1_545 S
C1324 C1325 1.524 . S
C1324 C1338 1.377 . S
C1325 C1324 1.524 . S
C1325 C1326 1.397 . S
C1325 C1330 1.363 . S
C1326 H1303 0.950 . S
C1326 C1325 1.397 . S
C1326 C1327 1.334 . S
C1327 H1304 0.950 . S
C1327 C1326 1.334 . S
C1327 C1328 1.287 . S
C1328 C1327 1.287 . S
C1328 C1329 1.524 . S
C1328 H1347 0.913 . S
C1329 H1305 0.950 . S
C1329 C1328 1.524 . S
C1329 C1330 1.415 . S
C1330 H1306 0.950 . S
C1330 C1325 1.363 . S
C1330 C1329 1.415 . S
C1331 H1307 0.951 . S
C1331 C1332 1.366 . S
C1331 C1333 1.388 . S
C1332 C1331 1.366 . S
C1332 C1336 1.385 . S
C1333 H1308 0.951 . S
C1333 C1331 1.388 . S
C1333 C1334 1.366 . S
C1334 C1333 1.366 . S
C1334 C1335 1.414 . S
C1334 C1337 1.499 . S
C1335 H1309 0.950 . S
C1335 C1334 1.414 . S
C1335 C1336 1.374 . S
C1336 H1310 0.950 . S
C1336 C1332 1.385 . S
C1336 C1335 1.374 . S
C1337 C1334 1.499 . S
C1337 C1338 1.373 1_565 S
C1337 C1339 1.389 . S
C1338 H1311 0.950 . S
C1338 C1324 1.377 . S
C1338 C1337 1.373 1_545 S
C1339 C1323 1.377 . S
C1339 C1337 1.389 . S
C1339 C1340 1.524 . S
C1340 C1339 1.524 . S
C1340 C1341 1.397 . S
C1340 C1345 1.363 . S
C1341 H1312 0.950 . S
C1341 C1340 1.397 . S
C1341 C1342 1.334 . S
C1342 H1313 0.950 . S
C1342 C1341 1.334 . S
C1342 C1343 1.287 . S
C1343 C1342 1.287 . S
C1343 C1344 1.524 . S
C1343 H1346 0.999 . S
C1344 H1314 0.950 . S
C1344 C1343 1.524 . S
C1344 C1345 1.415 . S
C1345 H1315 0.950 . S
C1345 C1340 1.363 . S
C1345 C1344 1.415 . S
H1346 C1343 0.999 . S
H1347 C1328 0.913 . S
H1348 C1366 0.951 . S
H1349 C1368 0.951 . S
H1350 C1370 0.950 . S
H1351 C1371 0.950 . S
H1352 C1373 0.950 . S
H1353 C1376 0.950 . S
H1354 C1377 0.950 . S
H1355 C1379 0.950 . S
H1356 C1380 0.950 . S
H1357 C1381 0.951 . S
H1358 C1383 0.951 . S
H1359 C1385 0.950 . S
H1360 C1386 0.950 . S
H1361 C1388 0.950 . S
H1362 C1391 0.950 . S
H1363 C1392 0.950 . S
H1364 C1394 0.950 . S
H1365 C1395 0.950 . S
C1366 H1348 0.951 . S
C1366 C1367 1.366 . S
C1366 C1368 1.388 . S
C1367 C1366 1.366 . S
C1367 C1371 1.385 . S
C1368 H1349 0.951 . S
C1368 C1366 1.388 . S
C1368 C1369 1.366 . S
C1369 C1368 1.366 . S
C1369 C1370 1.414 . S
C1369 C1372 1.499 . S
C1370 H1350 0.950 . S
C1370 C1369 1.414 . S
C1370 C1371 1.374 . S
C1371 H1351 0.950 . S
C1371 C1367 1.385 . S
C1371 C1370 1.374 . S
C1372 C1369 1.499 . S
C1372 C1373 1.373 . S
C1372 C1374 1.389 . S
C1373 H1352 0.950 . S
C1373 C1372 1.373 . S
C1373 C1389 1.377 . S
C1374 C1372 1.389 . S
C1374 C1375 1.524 . S
C1374 C1388 1.377 . S
C1375 C1374 1.524 . S
C1375 C1376 1.397 . S
C1375 C1380 1.363 . S
C1376 H1353 0.950 . S
C1376 C1375 1.397 . S
C1376 C1377 1.334 . S
C1377 H1354 0.950 . S
C1377 C1376 1.334 . S
C1377 C1378 1.287 . S
C1378 C1377 1.287 . S
C1378 C1379 1.524 . S
C1378 H1397 0.913 . S
C1379 H1355 0.950 . S
C1379 C1378 1.524 . S
C1379 C1380 1.415 . S
C1380 H1356 0.950 . S
C1380 C1375 1.363 . S
C1380 C1379 1.415 . S
C1381 H1357 0.951 . S
C1381 C1382 1.366 . S
C1381 C1383 1.388 . S
C1382 C1381 1.366 . S
C1382 C1386 1.385 . S
C1383 H1358 0.951 . S
C1383 C1381 1.388 . S
C1383 C1384 1.366 . S
C1384 C1383 1.366 . S
C1384 C1385 1.414 . S
C1384 C1387 1.499 . S
C1385 H1359 0.950 . S
C1385 C1384 1.414 . S
C1385 C1386 1.374 . S
C1386 H1360 0.950 . S
C1386 C1382 1.385 . S
C1386 C1385 1.374 . S
C1387 C1384 1.499 . S
C1387 C1388 1.373 . S
C1387 C1389 1.389 . S
C1388 H1361 0.950 . S
C1388 C1374 1.377 . S
C1388 C1387 1.373 . S
C1389 C1373 1.377 . S
C1389 C1387 1.389 . S
C1389 C1390 1.524 . S
C1390 C1389 1.524 . S
C1390 C1391 1.397 . S
C1390 C1395 1.363 . S
C1391 H1362 0.950 . S
C1391 C1390 1.397 . S
C1391 C1392 1.334 . S
C1392 H1363 0.950 . S
C1392 C1391 1.334 . S
C1392 C1393 1.287 . S
C1393 C1392 1.287 . S
C1393 C1394 1.524 . S
C1393 H1396 0.999 . S
C1394 H1364 0.950 . S
C1394 C1393 1.524 . S
C1394 C1395 1.415 . S
C1395 H1365 0.950 . S
C1395 C1390 1.363 . S
C1395 C1394 1.415 . S
H1396 C1393 0.999 . S
H1397 C1378 0.913 . S
H1398 C1416 0.951 . S
H1399 C1418 0.951 . S
H1400 C1420 0.950 . S
H1401 C1421 0.950 . S
H1402 C1423 0.950 . S
H1403 C1426 0.950 . S
H1404 C1427 0.950 . S
H1405 C1429 0.950 . S
H1406 C1430 0.950 . S
H1407 C1431 0.951 . S
H1408 C1433 0.951 . S
H1409 C1435 0.950 . S
H1410 C1436 0.950 . S
H1411 C1438 0.950 . S
H1412 C1441 0.950 . S
H1413 C1442 0.950 . S
H1414 C1444 0.950 . S
H1415 C1445 0.950 . S
C1416 H1398 0.951 . S
C1416 C1417 1.366 . S
C1416 C1418 1.388 . S
C1417 C1416 1.366 . S
C1417 C1421 1.385 . S
C1418 H1399 0.951 . S
C1418 C1416 1.388 . S
C1418 C1419 1.366 . S
C1419 C1418 1.366 . S
C1419 C1420 1.414 . S
C1419 C1422 1.499 . S
C1420 H1400 0.950 . S
C1420 C1419 1.414 . S
C1420 C1421 1.374 . S
C1421 H1401 0.950 . S
C1421 C1417 1.385 . S
C1421 C1420 1.374 . S
C1422 C1419 1.499 . S
C1422 C1423 1.373 . S
C1422 C1424 1.389 . S
C1423 H1402 0.950 . S
C1423 C1422 1.373 . S
C1423 C1439 1.377 . S
C1424 C1422 1.389 . S
C1424 C1425 1.524 . S
C1424 C1438 1.377 . S
C1425 C1424 1.524 . S
C1425 C1426 1.397 . S
C1425 C1430 1.363 . S
C1426 H1403 0.950 . S
C1426 C1425 1.397 . S
C1426 C1427 1.334 . S
C1427 H1404 0.950 . S
C1427 C1426 1.334 . S
C1427 C1428 1.287 . S
C1428 C1427 1.287 . S
C1428 C1429 1.524 . S
C1428 H1447 0.913 . S
C1429 H1405 0.950 . S
C1429 C1428 1.524 . S
C1429 C1430 1.415 . S
C1430 H1406 0.950 . S
C1430 C1425 1.363 . S
C1430 C1429 1.415 . S
C1431 H1407 0.951 . S
C1431 C1432 1.366 . S
C1431 C1433 1.388 . S
C1432 C1431 1.366 . S
C1432 C1436 1.385 . S
C1433 H1408 0.951 . S
C1433 C1431 1.388 . S
C1433 C1434 1.366 . S
C1434 C1433 1.366 . S
C1434 C1435 1.414 . S
C1434 C1437 1.499 . S
C1435 H1409 0.950 . S
C1435 C1434 1.414 . S
C1435 C1436 1.374 . S
C1436 H1410 0.950 . S
C1436 C1432 1.385 . S
C1436 C1435 1.374 . S
C1437 C1434 1.499 . S
C1437 C1438 1.373 . S
C1437 C1439 1.389 . S
C1438 H1411 0.950 . S
C1438 C1424 1.377 . S
C1438 C1437 1.373 . S
C1439 C1423 1.377 . S
C1439 C1437 1.389 . S
C1439 C1440 1.524 . S
C1440 C1439 1.524 . S
C1440 C1441 1.397 . S
C1440 C1445 1.363 . S
C1441 H1412 0.950 . S
C1441 C1440 1.397 . S
C1441 C1442 1.334 . S
C1442 H1413 0.950 . S
C1442 C1441 1.334 . S
C1442 C1443 1.287 . S
C1443 C1442 1.287 . S
C1443 C1444 1.524 . S
C1443 H1446 0.999 . S
C1444 H1414 0.950 . S
C1444 C1443 1.524 . S
C1444 C1445 1.415 . S
C1445 H1415 0.950 . S
C1445 C1440 1.363 . S
C1445 C1444 1.415 . S
H1446 C1443 0.999 . S
H1447 C1428 0.913 . S
C267 C74 1.663 . S
C282 C97 1.718 . S
C332 C137 1.717 . S
C317 C85 1.664 . S
C382 C177 1.717 . S
C367 C52 1.663 . S
C432 C217 1.725 . S
C417 C63 1.663 . S
C482 C106 1.716 1_565 S
C467 C30 1.660 1_565 S
C517 C41 1.662 . S
C532 C146 1.717 . S
C567 C8 1.661 . S
C582 C186 1.718 . S
C617 C19 1.657 1_655 S
C632 C226 1.719 . S
C682 C103 0.423 . S
C667 C62 0.410 . S
C732 C143 0.422 . S
C717 C73 0.409 . S
C782 C183 0.421 . S
C767 C84 0.409 . S
C817 C51 0.410 . S
C832 C223 0.422 . S
C867 C18 0.480 1_655 S
C882 C94 0.423 . S
C932 C134 0.423 . S
C917 C29 0.480 1_565 S
C982 C174 0.422 . S
C967 C40 0.478 . S
C1017 C7 0.480 . S
C1032 C214 0.423 . S
C1067 C60 1.572 . S
C1082 C107 2.018 . S
C1117 C71 1.570 . S
C1132 C147 2.018 . S
C1182 C187 2.018 . S
C1167 C82 1.570 . S
C1232 C227 2.018 . S
C1217 C49 1.571 . S
C1267 C16 1.604 1_655 S
C1282 C98 2.018 . S
C1332 C138 2.017 . S
C1317 C27 1.605 1_565 S
C1382 C178 2.018 . S
C1367 C38 1.603 . S
C1417 C5 1.603 . S
C1432 C218 2.018 . S
