# Generated by pormake.
# Topology anh, (6,3)-cn, num edge types: 1
# Building blocks:
#     Node 0, Type 0, BuildingBlock: VOLQOD_clean_sbu_1, # of connection points: 6
#     Node 1, Type 0, BuildingBlock: VOLQOD_clean_sbu_1, # of connection points: 6
#     Node 2, Type 0, BuildingBlock: VOLQOD_clean_sbu_1, # of connection points: 6
#     Node 3, Type 1, BuildingBlock: WUSLED_clean_sbu_0, # of connection points: 3
#     Node 4, Type 1, BuildingBlock: WUSLED_clean_sbu_0, # of connection points: 3
#     Node 5, Type 1, BuildingBlock: WUSLED_clean_sbu_0, # of connection points: 3
#     Node 6, Type 1, BuildingBlock: WUSLED_clean_sbu_0, # of connection points: 3
#     Node 7, Type 1, BuildingBlock: WUSLED_clean_sbu_0, # of connection points: 3
#     Node 8, Type 1, BuildingBlock: WUSLED_clean_sbu_0, # of connection points: 3
#     Edge 9, Type (0, 1), BuildingBlock: TEMPAE_clean_linker_10, # of connection points: 2
#     Edge 10, Type (0, 1), BuildingBlock: TEMPAE_clean_linker_10, # of connection points: 2
#     Edge 11, Type (0, 1), BuildingBlock: TEMPAE_clean_linker_10, # of connection points: 2
#     Edge 12, Type (0, 1), BuildingBlock: TEMPAE_clean_linker_10, # of connection points: 2
#     Edge 13, Type (0, 1), BuildingBlock: TEMPAE_clean_linker_10, # of connection points: 2
#     Edge 14, Type (0, 1), BuildingBlock: TEMPAE_clean_linker_10, # of connection points: 2
#     Edge 15, Type (0, 1), BuildingBlock: TEMPAE_clean_linker_10, # of connection points: 2
#     Edge 16, Type (0, 1), BuildingBlock: TEMPAE_clean_linker_10, # of connection points: 2
#     Edge 17, Type (0, 1), BuildingBlock: TEMPAE_clean_linker_10, # of connection points: 2
#     Edge 18, Type (0, 1), BuildingBlock: TEMPAE_clean_linker_10, # of connection points: 2
#     Edge 19, Type (0, 1), BuildingBlock: TEMPAE_clean_linker_10, # of connection points: 2
#     Edge 20, Type (0, 1), BuildingBlock: TEMPAE_clean_linker_10, # of connection points: 2
#     Edge 21, Type (0, 1), BuildingBlock: TEMPAE_clean_linker_10, # of connection points: 2
#     Edge 22, Type (0, 1), BuildingBlock: TEMPAE_clean_linker_10, # of connection points: 2
#     Edge 23, Type (0, 1), BuildingBlock: TEMPAE_clean_linker_10, # of connection points: 2
#     Edge 24, Type (0, 1), BuildingBlock: TEMPAE_clean_linker_10, # of connection points: 2
#     Edge 25, Type (0, 1), BuildingBlock: TEMPAE_clean_linker_10, # of connection points: 2
#     Edge 26, Type (0, 1), BuildingBlock: TEMPAE_clean_linker_10, # of connection points: 2
# Relax obj value: 0.164
# Max RMSD: 0.228
# Mean RMSD: 0.110
data_MOF--net-anh--node1-VOLQOD_clean_sbu_1--node2-WUSLED_clean_sbu_0--edge1-TEMPAE_clean_linker_10
_symmetry_space_group_name_H-M    P1
_symmetry_Int_Tables_number       1
_symmetry_cell_setting            triclinic
loop_
_symmetry_equiv_pos_as_xyz
'x, y, z'
_cell_length_a     37.25156
_cell_length_b     37.176544
_cell_length_c     79.544689
_cell_angle_alpha  89.75147
_cell_angle_beta   90.040456
_cell_angle_gamma 120.13749
loop_
_atom_site_label
_atom_site_type_symbol
_atom_site_fract_x
_atom_site_fract_y
_atom_site_fract_z
_atom_type_partial_charge
O0 O 0.98532 0.52638 0.20586 0.0
Zn1 Zn 0.99094 0.5484 0.18223 0.0
O2 O 0.99962 0.51311 0.1665 0.0
Zn3 Zn 0.95247 0.48575 0.15154 0.0
Zn4 Zn 0.00579 0.47091 0.17897 0.0
Zn5 Zn 0.04863 0.5471 0.15281 0.0
O6 O 0.9695 0.49388 0.12726 0.0
O7 O 0.03474 0.54581 0.12806 0.0
O8 O 0.93971 0.55231 0.17627 0.0
O9 O 0.91615 0.51045 0.15417 0.0
O10 O 0.91729 0.4249 0.15713 0.0
O11 O 0.95459 0.41414 0.17612 0.0
O12 O 0.05703 0.4691 0.1713 0.0
O13 O 0.04176 0.60598 0.18258 0.0
O14 O 0.08679 0.52401 0.15426 0.0
O15 O 0.08079 0.60585 0.16151 0.0
C16 C 0.99645 0.5025 0.21275 0.0
C17 C 0.00243 0.52079 0.11979 0.0
C18 C 0.92188 0.40084 0.16723 0.0
C19 C 0.91373 0.53548 0.16432 0.0
C20 C 0.08668 0.49344 0.16158 0.0
C21 C 0.07471 0.6243 0.1737 0.0
O22 O 0.0088 0.4821 0.20399 0.0
O23 O 0.48288 0.02539 0.46387 0.0
Zn24 Zn 0.46322 0.01736 0.48803 0.0
O25 O 0.50011 0.00705 0.50229 0.0
Zn26 Zn 0.52883 0.05167 0.5182 0.0
Zn27 Zn 0.54126 0.0025 0.48857 0.0
Zn28 Zn 0.4674 0.95689 0.51539 0.0
O29 O 0.52455 0.03091 0.54196 0.0
O30 O 0.46884 0.96802 0.54029 0.0
O31 O 0.45977 0.06765 0.4963 0.0
O32 O 0.50248 0.08678 0.51823 0.0
O33 O 0.58856 0.08885 0.51162 0.0
O34 O 0.59817 0.05374 0.49136 0.0
O35 O 0.54349 0.95016 0.49455 0.0
O36 O 0.40561 0.9661 0.48764 0.0
O37 O 0.49157 0.92002 0.51287 0.0
O38 O 0.40876 0.92457 0.50698 0.0
C39 C 0.50639 0.01525 0.45606 0.0
C40 C 0.49631 0.99792 0.54898 0.0
C41 C 0.61185 0.0857 0.50073 0.0
C42 C 0.47683 0.09092 0.50902 0.0
C43 C 0.52093 0.92031 0.50458 0.0
C44 C 0.38878 0.93174 0.49573 0.0
O45 O 0.52784 0.00257 0.46395 0.0
O46 O 0.4808 0.49471 0.79714 0.0
Zn47 Zn 0.46914 0.47601 0.82148 0.0
O48 O 0.51648 0.51373 0.83554 0.0
Zn49 Zn 0.50089 0.54344 0.85112 0.0
Zn50 Zn 0.56257 0.55411 0.8215 0.0
Zn51 Zn 0.53343 0.4813 0.84902 0.0
O52 O 0.51341 0.53692 0.87529 0.0
O53 O 0.52161 0.48191 0.87373 0.0
O54 O 0.41556 0.47313 0.82947 0.0
O55 O 0.43981 0.52005 0.84987 0.0
O56 O 0.5269 0.6038 0.84492 0.0
O57 O 0.5702 0.61189 0.8242 0.0
O58 O 0.61654 0.55515 0.82731 0.0
O59 O 0.4622 0.41822 0.82162 0.0
O60 O 0.5947 0.50601 0.84701 0.0
O61 O 0.50766 0.42255 0.84069 0.0
C62 C 0.51437 0.51844 0.78919 0.0
C63 C 0.51762 0.50846 0.88238 0.0
C64 C 0.55343 0.62659 0.83387 0.0
C65 C 0.40972 0.49321 0.84112 0.0
C66 C 0.62373 0.53408 0.83813 0.0
C67 C 0.48009 0.40191 0.8297 0.0
O68 O 0.54854 0.54044 0.79695 0.0
C69 C 0.58395 0.07527 0.21372 0.0
C70 C 0.61324 0.10231 0.22539 0.0
C71 C 0.66158 0.14048 0.20268 0.0
C72 C 0.6517 0.13464 0.21992 0.0
C73 C 0.63234 0.11274 0.19107 0.0
C74 C 0.5938 0.08044 0.19656 0.0
U75 U 0.50852 0.01777 0.24915 0.0
O76 O 0.44178 0.99621 0.25155 0.0
O77 O 0.46377 0.95142 0.25307 0.0
C78 C 0.43152 0.95683 0.2522 0.0
C79 C 0.54281 0.04244 0.21939 0.0
C80 C 0.39697 0.92824 0.24117 0.0
C81 C 0.36666 0.87192 0.22083 0.0
C82 C 0.40089 0.90104 0.23007 0.0
C83 C 0.3244 0.8976 0.23312 0.0
C84 C 0.32792 0.86956 0.22241 0.0
C85 C 0.35854 0.92649 0.24246 0.0
C86 C 0.54542 0.05068 0.29429 0.0
C87 C 0.49967 0.02267 0.3185 0.0
C88 C 0.5738 0.0667 0.32252 0.0
C89 C 0.5795 0.07064 0.3051 0.0
C90 C 0.53381 0.04272 0.32945 0.0
C91 C 0.50544 0.02656 0.30106 0.0
C92 C 0.55228 0.0549 0.27603 0.0
O93 O 0.54232 0.01157 0.2277 0.0
O94 O 0.51984 0.05588 0.22643 0.0
O95 O 0.53089 0.06835 0.26762 0.0
O96 O 0.55294 0.02364 0.2687 0.0
H97 H 0.60616 0.09863 0.23871 0.0
H98 H 0.67373 0.15511 0.22919 0.0
H99 H 0.63883 0.11666 0.1777 0.0
H100 H 0.57147 0.05985 0.1874 0.0
H101 H 0.37039 0.85098 0.21254 0.0
H102 H 0.43013 0.90169 0.22873 0.0
H103 H 0.29488 0.89625 0.23473 0.0
H104 H 0.35466 0.94694 0.25099 0.0
H105 H 0.46843 0.00432 0.32341 0.0
H106 H 0.60084 0.08197 0.33055 0.0
H107 H 0.61061 0.08915 0.30007 0.0
H108 H 0.47876 0.01082 0.29286 0.0
C109 C 0.53322 0.59414 0.54582 0.0
C110 C 0.53502 0.62435 0.55683 0.0
C111 C 0.54614 0.67073 0.53318 0.0
C112 C 0.54139 0.66231 0.55057 0.0
C113 C 0.54506 0.64054 0.52225 0.0
C114 C 0.53864 0.60255 0.52854 0.0
U115 U 0.51509 0.52037 0.58227 0.0
O116 O 0.47015 0.45367 0.58512 0.0
O117 O 0.53701 0.47586 0.58609 0.0
C118 C 0.49927 0.44351 0.58534 0.0
C119 C 0.52474 0.55352 0.55223 0.0
C120 C 0.4938 0.40992 0.57389 0.0
C121 C 0.45821 0.36185 0.55091 0.0
C122 C 0.46343 0.39462 0.56118 0.0
C123 C 0.51412 0.3598 0.56561 0.0
C124 C 0.48352 0.34412 0.55303 0.0
C125 C 0.51906 0.39222 0.57596 0.0
C126 C 0.51897 0.5574 0.62732 0.0
C127 C 0.50135 0.5114 0.65152 0.0
C128 C 0.53015 0.58543 0.65557 0.0
C129 C 0.53226 0.59132 0.63815 0.0
C130 C 0.51461 0.54538 0.66249 0.0
C131 C 0.50358 0.51738 0.63408 0.0
C132 C 0.52183 0.56441 0.60904 0.0
O133 O 0.55518 0.55378 0.56069 0.0
O134 O 0.48833 0.53102 0.55946 0.0
O135 O 0.48699 0.54296 0.60066 0.0
O136 O 0.55376 0.56514 0.60169 0.0
H137 H 0.53082 0.61828 0.57023 0.0
H138 H 0.54139 0.68455 0.55931 0.0
H139 H 0.54903 0.64621 0.50883 0.0
H140 H 0.53747 0.57955 0.51989 0.0
H141 H 0.43452 0.35048 0.54126 0.0
H142 H 0.44353 0.40772 0.55923 0.0
H143 H 0.53365 0.34633 0.56772 0.0
H144 H 0.54249 0.40327 0.58572 0.0
H145 H 0.48884 0.48012 0.65641 0.0
H146 H 0.54127 0.61237 0.66362 0.0
H147 H 0.54447 0.62247 0.63314 0.0
H148 H 0.49325 0.49081 0.62586 0.0
C149 C 0.94865 0.51768 0.87522 0.0
C150 C 0.90694 0.48555 0.87501 0.0
C151 C 0.88632 0.53139 0.8616 0.0
C152 C 0.87618 0.49237 0.86833 0.0
C153 C 0.92805 0.56341 0.86161 0.0
C154 C 0.95892 0.55655 0.86826 0.0
U155 U 0.00831 0.50789 0.91255 0.0
O156 O 0.07471 0.5294 0.91566 0.0
O157 O 0.0289 0.46274 0.91726 0.0
C158 C 0.06841 0.49138 0.91687 0.0
C159 C 0.98145 0.5106 0.88232 0.0
C160 C 0.09481 0.48222 0.90614 0.0
C161 C 0.1167 0.47224 0.87862 0.0
C162 C 0.09023 0.47981 0.8886 0.0
C163 C 0.15199 0.46897 0.90369 0.0
C164 C 0.14804 0.46693 0.88606 0.0
C165 C 0.12559 0.47649 0.91361 0.0
C166 C 0.98094 0.52238 0.95753 0.0
C167 C 0.01075 0.56187 0.98319 0.0
C168 C 0.96668 0.48705 0.98465 0.0
C169 C 0.96141 0.48568 0.96722 0.0
C170 C 0.99141 0.52516 0.99286 0.0
C171 C 0.00547 0.56051 0.96575 0.0
C172 C 0.97479 0.52127 0.93906 0.0
O173 O 0.01314 0.54283 0.8894 0.0
O174 O 0.96867 0.47588 0.89087 0.0
O175 O 0.95926 0.48473 0.9318 0.0
O176 O 0.005 0.55133 0.93032 0.0
H177 H 0.89783 0.45509 0.88011 0.0
H178 H 0.84425 0.46721 0.86872 0.0
H179 H 0.93687 0.59368 0.85637 0.0
H180 H 0.99085 0.58174 0.86799 0.0
H181 H 0.11272 0.47066 0.8651 0.0
H182 H 0.06647 0.48412 0.88265 0.0
H183 H 0.17629 0.46591 0.90983 0.0
H184 H 0.12961 0.47843 0.92713 0.0
H185 H 0.03024 0.59169 0.9891 0.0
H186 H 0.95073 0.45828 0.99175 0.0
H187 H 0.94175 0.45581 0.96137 0.0
H188 H 0.02058 0.58941 0.95871 0.0
C189 C 0.93683 0.42699 0.45528 0.0
C190 C 0.90856 0.39869 0.44364 0.0
C191 C 0.87036 0.34988 0.46625 0.0
C192 C 0.87559 0.36053 0.44907 0.0
C193 C 0.89915 0.37819 0.47785 0.0
C194 C 0.93209 0.41648 0.47239 0.0
U195 U 0.99799 0.49885 0.41952 0.0
O196 O 0.02311 0.56589 0.41572 0.0
O197 O 0.06514 0.54051 0.41581 0.0
C198 C 0.06174 0.57401 0.41511 0.0
C199 C 0.97118 0.46734 0.44955 0.0
C200 C 0.09192 0.60964 0.42509 0.0
C201 C 0.11462 0.64864 0.45118 0.0
C202 C 0.08537 0.6138 0.44218 0.0
C203 C 0.15706 0.67509 0.4261 0.0
C204 C 0.15089 0.67961 0.44323 0.0
C205 C 0.12788 0.64046 0.41715 0.0
C206 C 0.96565 0.46003 0.37458 0.0
C207 C 0.00945 0.48394 0.34965 0.0
C208 C 0.93477 0.45072 0.34687 0.0
C209 C 0.93055 0.44587 0.36433 0.0
C210 C 0.97427 0.4696 0.33929 0.0
C211 C 0.00521 0.4794 0.36712 0.0
C212 C 0.96028 0.45419 0.39294 0.0
O213 O 0.00155 0.4657 0.44188 0.0
O214 O 0.95984 0.49134 0.44179 0.0
O215 O 0.94817 0.47752 0.40063 0.0
O216 O 0.98954 0.45142 0.40108 0.0
H217 H 0.91194 0.40621 0.43034 0.0
H218 H 0.85432 0.33922 0.4398 0.0
H219 H 0.89575 0.37108 0.49117 0.0
H220 H 0.95369 0.43797 0.48154 0.0
H221 H 0.10915 0.65106 0.46439 0.0
H222 H 0.05773 0.5902 0.44852 0.0
H223 H 0.1843 0.69863 0.41954 0.0
H224 H 0.13331 0.63784 0.40395 0.0
H225 H 0.04031 0.49818 0.34427 0.0
H226 H 0.90704 0.44001 0.33934 0.0
H227 H 0.89977 0.43109 0.36984 0.0
H228 H 0.03286 0.49081 0.37477 0.0
C229 C 0.53103 0.94827 0.79056 0.0
C230 C 0.52951 0.91951 0.7788 0.0
C231 C 0.54557 0.88389 0.80073 0.0
C232 C 0.53664 0.8876 0.78384 0.0
C233 C 0.54782 0.91327 0.81242 0.0
C234 C 0.5405 0.94518 0.80736 0.0
U235 U 0.50965 0.00299 0.75543 0.0
O236 O 0.46526 0.02531 0.75304 0.0
O237 O 0.53211 0.06918 0.75038 0.0
C238 C 0.49466 0.06428 0.75103 0.0
C239 C 0.52241 0.98111 0.78524 0.0
C240 C 0.49047 0.09539 0.76084 0.0
C241 C 0.47992 0.12188 0.78716 0.0
C242 C 0.48376 0.09146 0.77829 0.0
C243 C 0.48956 0.16018 0.76123 0.0
C244 C 0.48304 0.15672 0.77871 0.0
C245 C 0.49324 0.12982 0.75241 0.0
C246 C 0.50876 0.9656 0.71059 0.0
C247 C 0.47178 0.96937 0.68603 0.0
C248 C 0.53663 0.9699 0.68257 0.0
C249 C 0.53951 0.96707 0.69998 0.0
C250 C 0.50266 0.97095 0.67534 0.0
C251 C 0.47487 0.9669 0.70348 0.0
C252 C 0.51296 0.96296 0.72894 0.0
O253 O 0.55195 0.01128 0.77631 0.0
O254 O 0.48517 0.96761 0.77894 0.0
O255 O 0.47915 0.95031 0.73801 0.0
O256 O 0.54598 0.99443 0.73566 0.0
H257 H 0.52251 0.92163 0.76573 0.0
H258 H 0.53524 0.86583 0.77449 0.0
H259 H 0.55427 0.91103 0.82554 0.0
H260 H 0.54185 0.96717 0.81659 0.0
H261 H 0.47521 0.11852 0.80064 0.0
H262 H 0.48164 0.06505 0.78501 0.0
H263 H 0.49149 0.18625 0.75431 0.0
H264 H 0.49825 0.13323 0.73894 0.0
H265 H 0.44495 0.96959 0.68092 0.0
H266 H 0.56137 0.97182 0.67478 0.0
H267 H 0.56599 0.96629 0.7052 0.0
H268 H 0.45071 0.96595 0.71136 0.0
C269 C 0.56854 0.50765 0.12655 0.0
C270 C 0.58582 0.48337 0.12153 0.0
C271 C 0.64479 0.52235 0.14008 0.0
C272 C 0.62342 0.49053 0.12829 0.0
C273 C 0.62782 0.54699 0.14495 0.0
C274 C 0.58986 0.53951 0.1383 0.0
U275 U 0.49793 0.49256 0.08931 0.0
O276 O 0.43142 0.44767 0.0857 0.0
O277 O 0.45422 0.51482 0.08468 0.0
C278 C 0.42167 0.47707 0.08502 0.0
C279 C 0.52854 0.50018 0.11964 0.0
C280 C 0.38686 0.47082 0.09584 0.0
C281 C 0.35901 0.49207 0.11893 0.0
C282 C 0.39293 0.49689 0.10958 0.0
C283 C 0.3127 0.43388 0.10145 0.0
C284 C 0.31837 0.46089 0.11483 0.0
C285 C 0.3466 0.43894 0.09202 0.0
C286 C 0.53971 0.49998 0.04465 0.0
C287 C 0.50155 0.46801 0.01898 0.0
C288 C 0.56762 0.53218 0.0175 0.0
C289 C 0.571 0.53198 0.03499 0.0
C290 C 0.53294 0.5001 0.00924 0.0
C291 C 0.50481 0.46803 0.03651 0.0
C292 C 0.54427 0.50091 0.0631 0.0
O293 O 0.52975 0.53144 0.11135 0.0
O294 O 0.50543 0.46408 0.11228 0.0
O295 O 0.52219 0.46546 0.07119 0.0
O296 O 0.54483 0.53257 0.07064 0.0
H297 H 0.5704 0.45886 0.11235 0.0
H298 H 0.63613 0.47151 0.1241 0.0
H299 H 0.64364 0.57167 0.15403 0.0
H300 H 0.57713 0.55864 0.14234 0.0
H301 H 0.36456 0.51375 0.12901 0.0
H302 H 0.42376 0.52157 0.11288 0.0
H303 H 0.28196 0.40909 0.09811 0.0
H304 H 0.34128 0.4183 0.08155 0.0
H305 H 0.47466 0.44255 0.01306 0.0
H306 H 0.59202 0.55779 0.01047 0.0
H307 H 0.59808 0.55705 0.04101 0.0
H308 H 0.48009 0.443 0.04366 0.0
C309 C 0.15856 0.51813 0.15134 0.0
C310 C 0.12131 0.48582 0.15797 0.0
C311 C 0.19039 0.51109 0.14611 0.0
C312 C 0.1848 0.47062 0.14737 0.0
C313 C 0.14801 0.43817 0.1547 0.0
C314 C 0.11669 0.44621 0.16001 0.0
C315 C 0.22934 0.54672 0.13857 0.0
C316 C 0.14093 0.3946 0.1562 0.0
C317 C 0.24669 0.45106 0.11462 0.0
C318 C 0.28201 0.4584 0.12373 0.0
C319 C 0.21375 0.45259 0.12242 0.0
C320 C 0.21624 0.46211 0.13975 0.0
C321 C 0.25092 0.46781 0.14919 0.0
C322 C 0.28336 0.46579 0.14108 0.0
C323 C 0.17725 0.44618 0.1119 0.0
C324 C 0.25469 0.478 0.16769 0.0
H325 H 0.16261 0.54897 0.14993 0.0
H326 H 0.08797 0.42111 0.16511 0.0
H327 H 0.25723 0.54952 0.14485 0.0
H328 H 0.23136 0.54062 0.12506 0.0
H329 H 0.23015 0.5769 0.13966 0.0
H330 H 0.11287 0.37401 0.16377 0.0
H331 H 0.13707 0.38102 0.14348 0.0
H332 H 0.1682 0.39505 0.16204 0.0
H333 H 0.24548 0.44587 0.10119 0.0
H334 H 0.31017 0.47077 0.14829 0.0
H335 H 0.17739 0.476 0.11071 0.0
H336 H 0.14765 0.42349 0.11806 0.0
H337 H 0.17798 0.43485 0.09907 0.0
H338 H 0.25935 0.50967 0.16937 0.0
H339 H 0.28115 0.47691 0.17362 0.0
H340 H 0.22572 0.45602 0.17442 0.0
C341 C 0.67929 0.12085 0.4848 0.0
C342 C 0.6541 0.1218 0.49772 0.0
C343 C 0.71675 0.15667 0.48036 0.0
C344 C 0.72931 0.19438 0.48899 0.0
C345 C 0.70508 0.19506 0.50255 0.0
C346 C 0.66788 0.1588 0.50677 0.0
C347 C 0.7419 0.15459 0.46591 0.0
C348 C 0.71738 0.23462 0.5121 0.0
C349 C 0.83969 0.28531 0.48421 0.0
C350 C 0.8345 0.30975 0.47203 0.0
C351 C 0.80588 0.24744 0.48975 0.0
C352 C 0.7659 0.23383 0.48302 0.0
C353 C 0.76051 0.25836 0.47072 0.0
C354 C 0.79483 0.29593 0.46537 0.0
C355 C 0.81289 0.22204 0.50282 0.0
C356 C 0.71834 0.24514 0.4633 0.0
H357 H 0.6691 0.09247 0.47775 0.0
H358 H 0.64884 0.15997 0.51681 0.0
H359 H 0.74086 0.17323 0.45519 0.0
H360 H 0.77491 0.16818 0.46961 0.0
H361 H 0.73014 0.1222 0.46158 0.0
H362 H 0.69703 0.22923 0.52315 0.0
H363 H 0.74995 0.24883 0.51648 0.0
H364 H 0.71559 0.25747 0.50364 0.0
H365 H 0.87034 0.29558 0.48928 0.0
H366 H 0.79046 0.31492 0.45614 0.0
H367 H 0.8027 0.19049 0.49788 0.0
H368 H 0.79392 0.21813 0.51416 0.0
H369 H 0.84598 0.23663 0.50661 0.0
H370 H 0.70547 0.21412 0.45738 0.0
H371 H 0.71949 0.26749 0.45371 0.0
H372 H 0.69653 0.24228 0.47341 0.0
C373 C 0.54057 0.68478 0.84094 0.0
C374 C 0.56102 0.66941 0.831 0.0
C375 C 0.54192 0.7222 0.83685 0.0
C376 C 0.56442 0.74504 0.82251 0.0
C377 C 0.58718 0.73108 0.81301 0.0
C378 C 0.58518 0.69341 0.81735 0.0
C379 C 0.51728 0.73602 0.84735 0.0
C380 C 0.61184 0.75475 0.79772 0.0
C381 C 0.52412 0.80838 0.80034 0.0
C382 C 0.55126 0.84871 0.80615 0.0
C383 C 0.52845 0.77459 0.80544 0.0
C384 C 0.56081 0.78119 0.81661 0.0
C385 C 0.58857 0.82187 0.82242 0.0
C386 C 0.58337 0.85515 0.81717 0.0
C387 C 0.49794 0.73166 0.79904 0.0
C388 C 0.6236 0.83017 0.83424 0.0
H389 H 0.52201 0.66673 0.85158 0.0
H390 H 0.60125 0.68199 0.80961 0.0
H391 H 0.5369 0.7691 0.85098 0.0
H392 H 0.49101 0.73351 0.83984 0.0
H393 H 0.50459 0.71696 0.85894 0.0
H394 H 0.63154 0.74249 0.79284 0.0
H395 H 0.5903 0.75252 0.7876 0.0
H396 H 0.63199 0.7882 0.80069 0.0
H397 H 0.49889 0.80308 0.79202 0.0
H398 H 0.6047 0.88632 0.82157 0.0
H399 H 0.48088 0.71086 0.80977 0.0
H400 H 0.51472 0.7181 0.79255 0.0
H401 H 0.47501 0.73191 0.79018 0.0
H402 H 0.61088 0.81265 0.84614 0.0
H403 H 0.64322 0.86373 0.83723 0.0
H404 H 0.64351 0.81906 0.82861 0.0
C405 C 0.86145 0.55261 0.17598 0.0
C406 C 0.87882 0.54337 0.1622 0.0
C407 C 0.82462 0.55413 0.17419 0.0
C408 C 0.80529 0.54676 0.15823 0.0
C409 C 0.82424 0.53998 0.14413 0.0
C410 C 0.86056 0.53812 0.14631 0.0
C411 C 0.80525 0.56132 0.18952 0.0
C412 C 0.80508 0.53262 0.12683 0.0
C413 C 0.6891 0.49629 0.15252 0.0
C414 C 0.68501 0.52986 0.14694 0.0
C415 C 0.72782 0.50194 0.15729 0.0
C416 C 0.76343 0.54211 0.15631 0.0
C417 C 0.75916 0.57651 0.15152 0.0
C418 C 0.71988 0.56998 0.14694 0.0
C419 C 0.73092 0.46447 0.1625 0.0
C420 C 0.79637 0.61975 0.15026 0.0
H421 H 0.87543 0.55661 0.18829 0.0
H422 H 0.8742 0.53153 0.13557 0.0
H423 H 0.79614 0.58496 0.18684 0.0
H424 H 0.7766 0.53201 0.19295 0.0
H425 H 0.82655 0.57167 0.20049 0.0
H426 H 0.82561 0.53153 0.11697 0.0
H427 H 0.77528 0.50266 0.12673 0.0
H428 H 0.79812 0.5575 0.12353 0.0
H429 H 0.66203 0.46534 0.15279 0.0
H430 H 0.71682 0.59598 0.14258 0.0
H431 H 0.74879 0.47084 0.17435 0.0
H432 H 0.7478 0.45766 0.15268 0.0
H433 H 0.69992 0.43635 0.16433 0.0
H434 H 0.81603 0.62717 0.16164 0.0
H435 H 0.78724 0.64378 0.14863 0.0
H436 H 0.81565 0.62145 0.13932 0.0
C437 C 0.32855 0.85941 0.49936 0.0
C438 C 0.34727 0.89741 0.49057 0.0
C439 C 0.29313 0.8243 0.49305 0.0
C440 C 0.27598 0.82716 0.47756 0.0
C441 C 0.29304 0.86604 0.4692 0.0
C442 C 0.32842 0.90072 0.47581 0.0
C443 C 0.27569 0.78353 0.50244 0.0
C444 C 0.27556 0.87045 0.45269 0.0
C445 C 0.22489 0.73072 0.45024 0.0
C446 C 0.18254 0.71652 0.45263 0.0
C447 C 0.25542 0.76649 0.45835 0.0
C448 C 0.24342 0.78872 0.4692 0.0
C449 C 0.20073 0.77426 0.47191 0.0
C450 C 0.17075 0.73827 0.4636 0.0
C451 C 0.3006 0.78063 0.4552 0.0
C452 C 0.18676 0.79712 0.48339 0.0
H453 H 0.34256 0.85651 0.51085 0.0
H454 H 0.34246 0.9299 0.46894 0.0
H455 H 0.24147 0.76854 0.50361 0.0
H456 H 0.28242 0.76198 0.49532 0.0
H457 H 0.28921 0.78754 0.51522 0.0
H458 H 0.28914 0.9035 0.44879 0.0
H459 H 0.28216 0.85374 0.44273 0.0
H460 H 0.24136 0.85617 0.45353 0.0
H461 H 0.23422 0.7137 0.44201 0.0
H462 H 0.13809 0.72768 0.4654 0.0
H463 H 0.31624 0.78191 0.46725 0.0
H464 H 0.31653 0.81249 0.44978 0.0
H465 H 0.30472 0.75972 0.44648 0.0
H466 H 0.20029 0.80016 0.49609 0.0
H467 H 0.15243 0.78115 0.48457 0.0
H468 H 0.19815 0.82906 0.47851 0.0
C469 C 0.49354 0.34263 0.83315 0.0
C470 C 0.47242 0.36002 0.82491 0.0
C471 C 0.49203 0.30646 0.82712 0.0
C472 C 0.4688 0.2871 0.81248 0.0
C473 C 0.44533 0.30294 0.80471 0.0
C474 C 0.44739 0.33918 0.81102 0.0
C475 C 0.51731 0.29046 0.83583 0.0
C476 C 0.41998 0.28306 0.78913 0.0
C477 C 0.50763 0.23178 0.78422 0.0
C478 C 0.48 0.1898 0.78796 0.0
C479 C 0.50438 0.26358 0.7922 0.0
C480 C 0.4727 0.25326 0.80427 0.0
C481 C 0.44503 0.21097 0.80832 0.0
C482 C 0.44907 0.1797 0.80013 0.0
C483 C 0.53476 0.30828 0.78761 0.0
C484 C 0.41087 0.19878 0.8211 0.0
H485 H 0.51274 0.35821 0.84397 0.0
H486 H 0.43078 0.35215 0.80458 0.0
H487 H 0.49832 0.25642 0.83798 0.0
H488 H 0.54383 0.29603 0.8277 0.0
H489 H 0.52974 0.30597 0.8481 0.0
H490 H 0.3999 0.29616 0.78572 0.0
H491 H 0.44108 0.28808 0.77841 0.0
H492 H 0.40013 0.24898 0.79095 0.0
H493 H 0.53203 0.23983 0.77504 0.0
H494 H 0.42741 0.1473 0.80297 0.0
H495 H 0.55168 0.32576 0.79899 0.0
H496 H 0.5178 0.32341 0.78256 0.0
H497 H 0.55781 0.31105 0.77808 0.0
H498 H 0.42416 0.21418 0.83328 0.0
H499 H 0.39268 0.16461 0.82319 0.0
H500 H 0.38944 0.20953 0.81683 0.0
C501 C 0.50333 0.85285 0.51826 0.0
C502 C 0.52862 0.88512 0.50708 0.0
C503 C 0.50983 0.81943 0.52121 0.0
C504 C 0.54247 0.81793 0.51278 0.0
C505 C 0.56808 0.85013 0.50141 0.0
C506 C 0.56088 0.88344 0.49869 0.0
C507 C 0.48175 0.78575 0.53345 0.0
C508 C 0.6031 0.84942 0.49218 0.0
C509 C 0.57413 0.74772 0.53493 0.0
C510 C 0.54996 0.70996 0.5265 0.0
C511 C 0.57409 0.78394 0.52992 0.0
C512 C 0.54931 0.7824 0.51613 0.0
C513 C 0.52676 0.74502 0.50697 0.0
C514 C 0.52728 0.70923 0.51228 0.0
C515 C 0.59866 0.82322 0.54 0.0
C516 C 0.49997 0.74208 0.49219 0.0
H517 H 0.47827 0.85365 0.52483 0.0
H518 H 0.58057 0.90817 0.49004 0.0
H519 H 0.46598 0.75518 0.52705 0.0
H520 H 0.5004 0.78353 0.54386 0.0
H521 H 0.45769 0.79153 0.53893 0.0
H522 H 0.61994 0.87657 0.48363 0.0
H523 H 0.62551 0.84928 0.50134 0.0
H524 H 0.59083 0.8205 0.48469 0.0
H525 H 0.59237 0.74872 0.54573 0.0
H526 H 0.50825 0.68016 0.50576 0.0
H527 H 0.57703 0.82974 0.54717 0.0
H528 H 0.617 0.85017 0.53155 0.0
H529 H 0.62009 0.82073 0.54904 0.0
H530 H 0.47251 0.74341 0.49674 0.0
H531 H 0.4889 0.71272 0.48508 0.0
H532 H 0.51729 0.76873 0.48349 0.0
C533 C 0.67535 0.5257 0.85506 0.0
C534 C 0.66628 0.54117 0.84052 0.0
C535 C 0.71408 0.52883 0.85727 0.0
C536 C 0.7447 0.54774 0.84461 0.0
C537 C 0.73639 0.56467 0.83012 0.0
C538 C 0.69723 0.56133 0.82827 0.0
C539 C 0.72173 0.5107 0.873 0.0
C540 C 0.76834 0.58505 0.81637 0.0
C541 C 0.85204 0.57463 0.85957 0.0
C542 C 0.85299 0.53863 0.85515 0.0
C543 C 0.81806 0.57939 0.85526 0.0
C544 C 0.78429 0.54735 0.84635 0.0
C545 C 0.78627 0.51211 0.84099 0.0
C546 C 0.82057 0.50819 0.84546 0.0
C547 C 0.81716 0.61745 0.86118 0.0
C548 C 0.75102 0.47733 0.8314 0.0
H549 H 0.65185 0.51054 0.86471 0.0
H550 H 0.69045 0.57334 0.81701 0.0
H551 H 0.72667 0.48458 0.86961 0.0
H552 H 0.75025 0.53451 0.87941 0.0
H553 H 0.69543 0.49896 0.88202 0.0
H554 H 0.75844 0.59975 0.80661 0.0
H555 H 0.79839 0.60907 0.82171 0.0
H556 H 0.77378 0.56145 0.81024 0.0
H557 H 0.87689 0.59821 0.86711 0.0
H558 H 0.82154 0.48068 0.84172 0.0
H559 H 0.79438 0.60864 0.87158 0.0
H560 H 0.80704 0.63057 0.85089 0.0
H561 H 0.84796 0.64199 0.86579 0.0
H562 H 0.7236 0.46076 0.83976 0.0
H563 H 0.75929 0.45442 0.82656 0.0
H564 H 0.74176 0.48998 0.82065 0.0
C565 C 0.1083 0.68139 0.19491 0.0
C566 C 0.10883 0.66586 0.17891 0.0
C567 C 0.14316 0.71717 0.20114 0.0
C568 C 0.17928 0.7383 0.19107 0.0
C569 C 0.17912 0.72432 0.17453 0.0
C570 C 0.14401 0.68815 0.16868 0.0
C571 C 0.14212 0.7309 0.21889 0.0
C572 C 0.21678 0.74638 0.16329 0.0
C573 C 0.26305 0.84575 0.20537 0.0
C574 C 0.2908 0.83653 0.21363 0.0
C575 C 0.22701 0.81428 0.19765 0.0
C576 C 0.21828 0.77258 0.1984 0.0
C577 C 0.24639 0.76321 0.2066 0.0
C578 C 0.28235 0.7953 0.21404 0.0
C579 C 0.19809 0.82555 0.18882 0.0
C580 C 0.23806 0.71911 0.20784 0.0
H581 H 0.08136 0.66445 0.20294 0.0
H582 H 0.14465 0.67662 0.15625 0.0
H583 H 0.164 0.72628 0.22683 0.0
H584 H 0.15237 0.76453 0.21914 0.0
H585 H 0.11067 0.71326 0.22459 0.0
H586 H 0.21007 0.73462 0.15018 0.0
H587 H 0.22843 0.78033 0.1631 0.0
H588 H 0.24205 0.74186 0.16829 0.0
H589 H 0.26966 0.87765 0.20491 0.0
H590 H 0.30339 0.78793 0.2206 0.0
H591 H 0.16735 0.80995 0.19513 0.0
H592 H 0.19311 0.81437 0.17565 0.0
H593 H 0.21021 0.85962 0.18874 0.0
H594 H 0.20848 0.69947 0.21466 0.0
H595 H 0.26327 0.71713 0.21447 0.0
H596 H 0.23457 0.70579 0.19508 0.0
C597 C 0.46025 0.14653 0.5011 0.0
C598 C 0.46799 0.12429 0.51345 0.0
C599 C 0.45815 0.18218 0.50535 0.0
C600 C 0.46338 0.19526 0.52234 0.0
C601 C 0.46861 0.17127 0.53493 0.0
C602 C 0.47111 0.13633 0.53031 0.0
C603 C 0.4526 0.20702 0.49159 0.0
C604 C 0.47365 0.18362 0.55323 0.0
C605 C 0.51171 0.30732 0.53606 0.0
C606 C 0.47735 0.3083 0.54268 0.0
C607 C 0.5071 0.27154 0.52822 0.0
C608 C 0.46716 0.23572 0.52707 0.0
C609 C 0.43203 0.2374 0.53276 0.0
C610 C 0.43754 0.27376 0.54049 0.0
C611 C 0.54536 0.27125 0.52215 0.0
C612 C 0.38896 0.19992 0.53178 0.0
H613 H 0.45795 0.13735 0.48805 0.0
H614 H 0.47654 0.11886 0.53994 0.0
H615 H 0.4288 0.21515 0.4952 0.0
H616 H 0.48221 0.23661 0.48965 0.0
H617 H 0.44341 0.18991 0.47949 0.0
H618 H 0.47405 0.15978 0.56157 0.0
H619 H 0.50318 0.21337 0.55496 0.0
H620 H 0.44805 0.18868 0.55729 0.0
H621 H 0.54245 0.33425 0.53746 0.0
H622 H 0.41088 0.27433 0.54562 0.0
H623 H 0.54045 0.25819 0.50929 0.0
H624 H 0.55162 0.25107 0.53053 0.0
H625 H 0.57322 0.30287 0.52205 0.0
H626 H 0.38349 0.18504 0.51926 0.0
H627 H 0.36456 0.20812 0.53419 0.0
H628 H 0.38579 0.17658 0.54129 0.0
C629 C 0.33219 0.45536 0.83647 0.0
C630 C 0.36744 0.48553 0.84502 0.0
C631 C 0.29226 0.44778 0.84074 0.0
C632 C 0.28765 0.4708 0.85387 0.0
C633 C 0.32317 0.50162 0.86233 0.0
C634 C 0.36243 0.50861 0.8578 0.0
C635 C 0.25503 0.41488 0.83138 0.0
C636 C 0.31975 0.52692 0.87643 0.0
C637 C 0.1963 0.48669 0.86136 0.0
C638 C 0.17832 0.46178 0.87566 0.0
C639 C 0.22987 0.48719 0.8531 0.0
C640 C 0.24598 0.46246 0.85938 0.0
C641 C 0.22585 0.43484 0.87297 0.0
C642 C 0.19219 0.43475 0.88091 0.0
C643 C 0.25016 0.51675 0.83853 0.0
C644 C 0.24193 0.40787 0.88006 0.0
H645 H 0.33571 0.43744 0.82656 0.0
H646 H 0.38932 0.53215 0.86448 0.0
H647 H 0.23468 0.38943 0.84014 0.0
H648 H 0.23644 0.42819 0.82628 0.0
H649 H 0.26399 0.40142 0.82086 0.0
H650 H 0.35052 0.55012 0.88156 0.0
H651 H 0.30391 0.54364 0.87189 0.0
H652 H 0.30073 0.50601 0.88681 0.0
H653 H 0.18588 0.50774 0.85721 0.0
H654 H 0.17778 0.41466 0.8917 0.0
H655 H 0.25816 0.50165 0.82836 0.0
H656 H 0.27948 0.5441 0.84284 0.0
H657 H 0.22987 0.52798 0.83328 0.0
H658 H 0.24878 0.39203 0.86982 0.0
H659 H 0.21953 0.38398 0.88893 0.0
H660 H 0.27138 0.42768 0.88689 0.0
C661 C 0.88892 0.3322 0.18243 0.0
C662 C 0.88655 0.35803 0.17007 0.0
C663 C 0.85379 0.29427 0.18696 0.0
C664 C 0.81535 0.28186 0.17898 0.0
C665 C 0.81326 0.30664 0.16589 0.0
C666 C 0.84885 0.34433 0.16157 0.0
C667 C 0.85736 0.26854 0.2009 0.0
C668 C 0.77289 0.29447 0.15703 0.0
C669 C 0.72482 0.17127 0.18409 0.0
C670 C 0.70161 0.17626 0.19682 0.0
C671 C 0.76223 0.2052 0.17828 0.0
C672 C 0.77661 0.24506 0.18531 0.0
C673 C 0.75342 0.2502 0.19822 0.0
C674 C 0.71628 0.21578 0.20381 0.0
C675 C 0.78624 0.19847 0.16458 0.0
C676 C 0.76752 0.29223 0.20597 0.0
H677 H 0.91787 0.34231 0.18904 0.0
H678 H 0.84661 0.36384 0.15195 0.0
H679 H 0.84011 0.26939 0.21211 0.0
H680 H 0.84321 0.23556 0.19702 0.0
H681 H 0.89014 0.28008 0.20457 0.0
H682 H 0.77721 0.3151 0.14614 0.0
H683 H 0.75827 0.26193 0.15253 0.0
H684 H 0.75092 0.2961 0.16598 0.0
H685 H 0.71387 0.14072 0.17876 0.0
H686 H 0.69822 0.22001 0.21346 0.0
H687 H 0.81827 0.20875 0.16891 0.0
H688 H 0.78882 0.21757 0.1534 0.0
H689 H 0.77137 0.16537 0.16072 0.0
H690 H 0.7991 0.30494 0.21131 0.0
H691 H 0.74631 0.29083 0.21609 0.0
H692 H 0.76929 0.31438 0.19616 0.0
C693 C 0.04004 0.54638 0.09224 0.0
C694 C 0.00275 0.52294 0.10114 0.0
C695 C 0.04046 0.54806 0.07458 0.0
C696 C 0.00267 0.5261 0.06562 0.0
C697 C 0.96494 0.50267 0.07453 0.0
C698 C 0.96546 0.50123 0.09214 0.0
C699 C 0.08133 0.57314 0.0655 0.0
C700 C 0.92395 0.47908 0.06544 0.0
C701 C 0.99438 0.55743 0.02086 0.0
C702 C 0.99629 0.52658 0.01146 0.0
C703 C 0.99735 0.55821 0.03847 0.0
C704 C 0.00233 0.52738 0.0469 0.0
C705 C 0.00508 0.49663 0.03748 0.0
C706 C 0.00202 0.49659 0.01988 0.0
C707 C 0.99412 0.59142 0.04808 0.0
C708 C 0.01057 0.46334 0.046 0.0
H709 H 0.06901 0.56313 0.09907 0.0
H710 H 0.93644 0.48321 0.09888 0.0
H711 H 0.08654 0.55271 0.05693 0.0
H712 H 0.08061 0.59747 0.05762 0.0
H713 H 0.10798 0.58837 0.0743 0.0
H714 H 0.89732 0.46273 0.07424 0.0
H715 H 0.91881 0.50076 0.05755 0.0
H716 H 0.92442 0.45579 0.05691 0.0
H717 H 0.98947 0.58042 0.01448 0.0
H718 H 0.00416 0.47304 0.01269 0.0
H719 H 0.02135 0.60833 0.05645 0.0
H720 H 0.96607 0.5768 0.05619 0.0
H721 H 0.99226 0.61428 0.03962 0.0
H722 H 0.03838 0.47778 0.0542 0.0
H723 H 0.01395 0.44275 0.03684 0.0
H724 H 0.98339 0.44391 0.05416 0.0
C725 C 0.53769 0.01142 0.42869 0.0
C726 C 0.5091 0.01851 0.43743 0.0
C727 C 0.54101 0.01491 0.4111 0.0
C728 C 0.51501 0.02558 0.40198 0.0
C729 C 0.48586 0.03245 0.41068 0.0
C730 C 0.48331 0.02893 0.42829 0.0
C731 C 0.57261 0.00752 0.40229 0.0
C732 C 0.45746 0.0437 0.40138 0.0
C733 C 0.55086 0.07293 0.35849 0.0
C734 C 0.52798 0.0385 0.34802 0.0
C735 C 0.54671 0.06921 0.37605 0.0
C736 C 0.51882 0.03017 0.38336 0.0
C737 C 0.49517 0.99541 0.37288 0.0
C738 C 0.50009 0.99997 0.35535 0.0
C739 C 0.57245 0.10703 0.38679 0.0
C740 C 0.46507 0.95327 0.38021 0.0
H741 H 0.55782 0.00342 0.43559 0.0
H742 H 0.46101 0.03434 0.43488 0.0
H743 H 0.55698 0.98222 0.39295 0.0
H744 H 0.59499 0.03594 0.3953 0.0
H745 H 0.59018 0.99901 0.41118 0.0
H746 H 0.436 0.04734 0.40997 0.0
H747 H 0.47613 0.07324 0.39436 0.0
H748 H 0.43879 0.01931 0.39203 0.0
H749 H 0.57197 0.10297 0.35294 0.0
H750 H 0.48267 0.97309 0.34739 0.0
H751 H 0.59256 0.10115 0.39531 0.0
H752 H 0.5519 0.11336 0.3948 0.0
H753 H 0.59243 0.13523 0.37914 0.0
H754 H 0.48201 0.9422 0.38821 0.0
H755 H 0.44805 0.92969 0.37033 0.0
H756 H 0.44216 0.95557 0.38836 0.0
C757 C 0.47754 0.49434 0.7615 0.0
C758 C 0.51366 0.52085 0.77054 0.0
C759 C 0.47644 0.49667 0.74389 0.0
C760 C 0.51225 0.52635 0.73507 0.0
C761 C 0.54883 0.55308 0.74409 0.0
C762 C 0.54913 0.54995 0.76168 0.0
C763 C 0.43692 0.46748 0.7347 0.0
C764 C 0.5876 0.58527 0.73516 0.0
C765 C 0.52375 0.51192 0.68844 0.0
C766 C 0.51263 0.53933 0.68107 0.0
C767 C 0.52317 0.50691 0.70597 0.0
C768 C 0.51137 0.52997 0.71643 0.0
C769 C 0.49965 0.5573 0.70908 0.0
C770 C 0.50032 0.56156 0.69152 0.0
C771 C 0.53582 0.47741 0.71333 0.0
C772 C 0.48682 0.58241 0.71979 0.0
H773 H 0.44999 0.47165 0.76819 0.0
H774 H 0.5772 0.57065 0.7685 0.0
H775 H 0.42552 0.48559 0.72766 0.0
H776 H 0.44303 0.4491 0.72537 0.0
H777 H 0.412 0.44566 0.74337 0.0
H778 H 0.61364 0.6034 0.74399 0.0
H779 H 0.59766 0.56999 0.72584 0.0
H780 H 0.58102 0.60718 0.72815 0.0
H781 H 0.53378 0.49499 0.6805 0.0
H782 H 0.49101 0.58227 0.68594 0.0
H783 H 0.5108 0.45423 0.72157 0.0
H784 H 0.56386 0.49489 0.72125 0.0
H785 H 0.54265 0.46059 0.70347 0.0
H786 H 0.4601 0.56139 0.72788 0.0
H787 H 0.478 0.60181 0.71212 0.0
H788 H 0.51268 0.60311 0.72824 0.0
C789 C 0.46113 0.96211 0.57587 0.0
C790 C 0.49581 0.99407 0.56756 0.0
C791 C 0.46056 0.9579 0.59344 0.0
C792 C 0.49569 0.986 0.60291 0.0
C793 C 0.53073 0.01836 0.59462 0.0
C794 C 0.53027 0.02216 0.57707 0.0
C795 C 0.42241 0.92332 0.60186 0.0
C796 C 0.56896 0.04866 0.60427 0.0
C797 C 0.48517 0.99893 0.64971 0.0
C798 C 0.49971 0.97393 0.65676 0.0
C799 C 0.48302 0.00259 0.63221 0.0
C800 C 0.49618 0.98115 0.62147 0.0
C801 C 0.51065 0.95571 0.62848 0.0
C802 C 0.51199 0.9522 0.64601 0.0
C803 C 0.46711 0.02979 0.6252 0.0
C804 C 0.52515 0.9325 0.61744 0.0
H805 H 0.43427 0.9404 0.56865 0.0
H806 H 0.55728 0.04685 0.57077 0.0
H807 H 0.4305 0.90212 0.60856 0.0
H808 H 0.41047 0.93642 0.61139 0.0
H809 H 0.39722 0.90481 0.59275 0.0
H810 H 0.59353 0.07225 0.59595 0.0
H811 H 0.56073 0.06501 0.6138 0.0
H812 H 0.58184 0.03158 0.61111 0.0
H813 H 0.47614 0.0163 0.65787 0.0
H814 H 0.52253 0.9322 0.6513 0.0
H815 H 0.44095 0.01164 0.61646 0.0
H816 H 0.49198 0.05585 0.61788 0.0
H817 H 0.45638 0.04293 0.63523 0.0
H818 H 0.49975 0.91126 0.60893 0.0
H819 H 0.53548 0.91396 0.62486 0.0
H820 H 0.55133 0.95483 0.60941 0.0
C821 C 0.51331 0.47058 0.90913 0.0
C822 C 0.5183 0.5064 0.90101 0.0
C823 C 0.51435 0.46838 0.92674 0.0
C824 C 0.52115 0.50304 0.93647 0.0
C825 C 0.52612 0.53925 0.92836 0.0
C826 C 0.52434 0.54039 0.91074 0.0
C827 C 0.50833 0.429 0.93493 0.0
C828 C 0.53394 0.57705 0.93828 0.0
C829 C 0.49137 0.48783 0.98277 0.0
C830 C 0.52967 0.50024 0.99056 0.0
C831 C 0.48805 0.48821 0.96518 0.0
C832 C 0.52394 0.50176 0.95512 0.0
C833 C 0.56266 0.51432 0.96287 0.0
C834 C 0.565 0.51314 0.98045 0.0
C835 C 0.44615 0.4743 0.95737 0.0
C836 C 0.60169 0.52915 0.95257 0.0
H837 H 0.50834 0.44406 0.90173 0.0
H838 H 0.5284 0.56826 0.90458 0.0
H839 H 0.53648 0.43572 0.94217 0.0
H840 H 0.48209 0.41688 0.94397 0.0
H841 H 0.50201 0.40434 0.92562 0.0
H842 H 0.53679 0.60264 0.93009 0.0
H843 H 0.5083 0.56862 0.94736 0.0
H844 H 0.56294 0.58871 0.94568 0.0
H845 H 0.46399 0.47837 0.99043 0.0
H846 H 0.59459 0.52207 0.98629 0.0
H847 H 0.43828 0.44858 0.94842 0.0
H848 H 0.44707 0.50029 0.95011 0.0
H849 H 0.42105 0.46354 0.96692 0.0
H850 H 0.59806 0.50422 0.94392 0.0
H851 H 0.62948 0.5384 0.96054 0.0
H852 H 0.60721 0.55619 0.9447 0.0
C853 C 0.01386 0.47899 0.23962 0.0
C854 C 0.99443 0.49805 0.23133 0.0
C855 C 0.01189 0.47447 0.25719 0.0
C856 C 0.98952 0.48886 0.2667 0.0
C857 C 0.96979 0.50804 0.25843 0.0
C858 C 0.97269 0.51263 0.24087 0.0
C859 C 0.03376 0.45431 0.26559 0.0
C860 C 0.94523 0.52336 0.2681 0.0
C861 C 0.95018 0.44261 0.31009 0.0
C862 C 0.97869 0.47428 0.32066 0.0
C863 C 0.95344 0.44689 0.29253 0.0
C864 C 0.9863 0.48351 0.2853 0.0
C865 C 0.01555 0.51534 0.29585 0.0
C866 C 0.01126 0.51046 0.31338 0.0
C867 C 0.92149 0.41233 0.2817 0.0
C868 C 0.05118 0.55475 0.28861 0.0
H869 H 0.0309 0.46782 0.23237 0.0
H870 H 0.95738 0.5272 0.2346 0.0
H871 H 0.05632 0.47583 0.27497 0.0
H872 H 0.01094 0.42595 0.27248 0.0
H873 H 0.05057 0.44557 0.25645 0.0
H874 H 0.9317 0.53756 0.25978 0.0
H875 H 0.91966 0.49715 0.27511 0.0
H876 H 0.96542 0.5468 0.2775 0.0
H877 H 0.92535 0.41422 0.31555 0.0
H878 H 0.03311 0.53538 0.32139 0.0
H879 H 0.93691 0.40063 0.2732 0.0
H880 H 0.90547 0.42438 0.27366 0.0
H881 H 0.89781 0.38585 0.28928 0.0
H882 H 0.06953 0.54707 0.27986 0.0
H883 H 0.07221 0.57579 0.2985 0.0
H884 H 0.03901 0.57172 0.28124 0.0
loop_
_geom_bond_atom_site_label_1
_geom_bond_atom_site_label_2
_geom_bond_distance
_geom_bond_site_symmetry_2
_ccdc_geom_bond_type
O0 Zn1 1.953 . S
O0 C16 1.225 1_655 S
Zn1 O0 1.953 . S
Zn1 O2 1.949 1_655 S
Zn1 O8 1.919 . S
Zn1 O13 1.924 1_655 S
O2 Zn1 1.949 1_455 S
O2 Zn3 1.923 1_455 S
O2 Zn4 1.950 . S
O2 Zn5 1.945 . S
Zn3 O2 1.923 1_655 S
Zn3 O6 1.933 . S
Zn3 O9 1.941 . S
Zn3 O10 1.965 . S
Zn4 O2 1.950 . S
Zn4 O11 1.938 1_455 S
Zn4 O12 1.906 . S
Zn4 O22 1.953 . S
Zn5 O2 1.945 . S
Zn5 O7 1.932 . S
Zn5 O14 1.977 . S
Zn5 O15 1.910 . S
O6 Zn3 1.933 . S
O6 C17 1.226 1_655 S
O7 Zn5 1.932 . S
O7 C17 1.307 . S
O8 Zn1 1.919 . S
O8 C19 1.253 . S
O9 Zn3 1.941 . S
O9 C19 1.283 . S
O10 Zn3 1.965 . S
O10 C18 1.303 . S
O11 Zn4 1.938 1_655 S
O11 C18 1.247 . S
O12 Zn4 1.906 . S
O12 C20 1.304 . S
O13 Zn1 1.924 1_455 S
O13 C21 1.311 . S
O14 Zn5 1.977 . S
O14 C20 1.272 . S
O15 Zn5 1.910 . S
O15 C21 1.231 . S
C16 O0 1.225 1_455 S
C16 O22 1.298 . S
C17 O6 1.226 1_455 S
C17 O7 1.307 . S
C18 O10 1.303 . S
C18 O11 1.247 . S
C19 O8 1.253 . S
C19 O9 1.283 . S
C20 O12 1.304 . S
C20 O14 1.272 . S
C21 O13 1.311 . S
C21 O15 1.231 . S
O22 Zn4 1.953 . S
O22 C16 1.298 . S
O23 Zn24 1.953 . S
O23 C39 1.225 . S
Zn24 O23 1.953 . S
Zn24 O25 1.949 . S
Zn24 O31 1.919 . S
Zn24 O36 1.924 1_545 S
O25 Zn24 1.949 . S
O25 Zn26 1.923 . S
O25 Zn27 1.950 1_545 S
O25 Zn28 1.945 1_545 S
Zn26 O25 1.923 . S
Zn26 O29 1.933 . S
Zn26 O32 1.941 . S
Zn26 O33 1.965 . S
Zn27 O25 1.950 1_565 S
Zn27 O34 1.938 1_565 S
Zn27 O35 1.906 . S
Zn27 O45 1.953 . S
Zn28 O25 1.945 1_565 S
Zn28 O30 1.932 . S
Zn28 O37 1.977 . S
Zn28 O38 1.910 . S
O29 Zn26 1.933 . S
O29 C40 1.226 . S
O30 Zn28 1.932 . S
O30 C40 1.307 1_565 S
O31 Zn24 1.919 . S
O31 C42 1.253 . S
O32 Zn26 1.941 . S
O32 C42 1.283 . S
O33 Zn26 1.965 . S
O33 C41 1.303 . S
O34 Zn27 1.938 1_545 S
O34 C41 1.247 . S
O35 Zn27 1.906 . S
O35 C43 1.304 . S
O36 Zn24 1.924 1_565 S
O36 C44 1.311 . S
O37 Zn28 1.977 . S
O37 C43 1.272 . S
O38 Zn28 1.910 . S
O38 C44 1.231 . S
C39 O23 1.225 . S
C39 O45 1.298 1_545 S
C40 O29 1.226 . S
C40 O30 1.307 1_545 S
C41 O33 1.303 . S
C41 O34 1.247 . S
C42 O31 1.253 . S
C42 O32 1.283 . S
C43 O35 1.304 . S
C43 O37 1.272 . S
C44 O36 1.311 . S
C44 O38 1.231 . S
O45 Zn27 1.953 . S
O45 C39 1.298 1_565 S
O46 Zn47 1.953 . S
O46 C62 1.225 . S
Zn47 O46 1.953 . S
Zn47 O48 1.949 . S
Zn47 O54 1.919 . S
Zn47 O59 1.924 . S
O48 Zn47 1.949 . S
O48 Zn49 1.923 . S
O48 Zn50 1.950 . S
O48 Zn51 1.945 . S
Zn49 O48 1.923 . S
Zn49 O52 1.933 . S
Zn49 O55 1.941 . S
Zn49 O56 1.965 . S
Zn50 O48 1.950 . S
Zn50 O57 1.938 . S
Zn50 O58 1.906 . S
Zn50 O68 1.953 . S
Zn51 O48 1.945 . S
Zn51 O53 1.932 . S
Zn51 O60 1.977 . S
Zn51 O61 1.910 . S
O52 Zn49 1.933 . S
O52 C63 1.226 . S
O53 Zn51 1.932 . S
O53 C63 1.307 . S
O54 Zn47 1.919 . S
O54 C65 1.253 . S
O55 Zn49 1.941 . S
O55 C65 1.283 . S
O56 Zn49 1.965 . S
O56 C64 1.303 . S
O57 Zn50 1.938 . S
O57 C64 1.247 . S
O58 Zn50 1.906 . S
O58 C66 1.304 . S
O59 Zn47 1.924 . S
O59 C67 1.311 . S
O60 Zn51 1.977 . S
O60 C66 1.272 . S
O61 Zn51 1.910 . S
O61 C67 1.231 . S
C62 O46 1.225 . S
C62 O68 1.298 . S
C63 O52 1.226 . S
C63 O53 1.307 . S
C64 O56 1.303 . S
C64 O57 1.247 . S
C65 O54 1.253 . S
C65 O55 1.283 . S
C66 O58 1.304 . S
C66 O60 1.272 . S
C67 O59 1.311 . S
C67 O61 1.231 . S
O68 Zn50 1.953 . S
O68 C62 1.298 . S
C69 C70 1.264 . S
C69 C74 1.479 . S
C69 C79 1.465 . S
C70 C69 1.264 . S
C70 C72 1.339 . S
C70 H97 0.931 . S
C71 C72 1.395 . S
C71 C73 1.320 . S
C72 C70 1.339 . S
C72 C71 1.395 . S
C72 H98 0.929 . S
C73 C71 1.320 . S
C73 C74 1.405 . S
C73 H99 0.930 . S
C74 C69 1.479 . S
C74 C73 1.405 . S
C74 H100 0.931 . S
U75 O76 2.454 1_545 S
U75 O77 2.458 1_545 S
U75 C78 2.984 1_545 S
U75 C79 2.847 . S
U75 C92 2.882 . S
U75 O93 2.441 . S
U75 O94 2.420 . S
U75 O95 2.455 1_545 S
U75 O96 2.449 . S
O76 U75 2.454 1_565 S
O76 C78 1.353 . S
O77 U75 2.458 1_565 S
O77 C78 1.286 . S
C78 U75 2.984 1_565 S
C78 O76 1.353 . S
C78 O77 1.286 . S
C78 C80 1.363 . S
C79 C69 1.465 . S
C79 U75 2.847 . S
C79 O93 1.249 . S
C79 O94 1.202 . S
C80 C78 1.363 . S
C80 C82 1.408 . S
C80 C85 1.342 . S
C81 C82 1.310 . S
C81 C84 1.461 . S
C81 H101 0.932 . S
C82 C80 1.408 . S
C82 C81 1.310 . S
C82 H102 0.930 . S
C83 C84 1.474 . S
C83 C85 1.285 . S
C83 H103 0.929 . S
C84 C81 1.461 . S
C84 C83 1.474 . S
C85 C80 1.342 . S
C85 C83 1.285 . S
C85 H104 0.930 . S
C86 C89 1.424 . S
C86 C91 1.245 1_545 S
C86 C92 1.428 . S
C87 C90 1.260 1_565 S
C87 C91 1.477 . S
C87 H105 0.932 . S
C88 C89 1.384 . S
C88 C90 1.479 . S
C88 H106 0.929 . S
C89 C86 1.424 . S
C89 C88 1.384 . S
C89 H107 0.928 . S
C90 C87 1.260 1_545 S
C90 C88 1.479 . S
C91 C86 1.245 1_565 S
C91 C87 1.477 . S
C91 H108 0.932 . S
C92 U75 2.882 . S
C92 C86 1.428 . S
C92 O95 1.301 1_545 S
C92 O96 1.282 . S
O93 U75 2.441 . S
O93 C79 1.249 . S
O94 U75 2.420 . S
O94 C79 1.202 . S
O95 U75 2.455 1_565 S
O95 C92 1.301 1_565 S
O96 U75 2.449 . S
O96 C92 1.282 . S
H97 C70 0.931 . S
H98 C72 0.929 . S
H99 C73 0.930 . S
H100 C74 0.931 . S
H101 C81 0.932 . S
H102 C82 0.930 . S
H103 C83 0.929 . S
H104 C85 0.930 . S
H105 C87 0.932 . S
H106 C88 0.929 . S
H107 C89 0.928 . S
H108 C91 0.932 . S
C109 C110 1.264 . S
C109 C114 1.479 . S
C109 C119 1.465 . S
C110 C109 1.264 . S
C110 C112 1.339 . S
C110 H137 0.931 . S
C111 C112 1.395 . S
C111 C113 1.320 . S
C112 C110 1.339 . S
C112 C111 1.395 . S
C112 H138 0.929 . S
C113 C111 1.320 . S
C113 C114 1.405 . S
C113 H139 0.930 . S
C114 C109 1.479 . S
C114 C113 1.405 . S
C114 H140 0.931 . S
U115 O116 2.454 . S
U115 O117 2.458 . S
U115 C118 2.984 . S
U115 C119 2.847 . S
U115 C132 2.882 . S
U115 O133 2.441 . S
U115 O134 2.420 . S
U115 O135 2.455 . S
U115 O136 2.449 . S
O116 U115 2.454 . S
O116 C118 1.353 . S
O117 U115 2.458 . S
O117 C118 1.286 . S
C118 U115 2.984 . S
C118 O116 1.353 . S
C118 O117 1.286 . S
C118 C120 1.363 . S
C119 C109 1.465 . S
C119 U115 2.847 . S
C119 O133 1.249 . S
C119 O134 1.202 . S
C120 C118 1.363 . S
C120 C122 1.408 . S
C120 C125 1.342 . S
C121 C122 1.310 . S
C121 C124 1.461 . S
C121 H141 0.932 . S
C122 C120 1.408 . S
C122 C121 1.310 . S
C122 H142 0.930 . S
C123 C124 1.474 . S
C123 C125 1.285 . S
C123 H143 0.929 . S
C124 C121 1.461 . S
C124 C123 1.474 . S
C125 C120 1.342 . S
C125 C123 1.285 . S
C125 H144 0.930 . S
C126 C129 1.424 . S
C126 C131 1.245 . S
C126 C132 1.428 . S
C127 C130 1.260 . S
C127 C131 1.477 . S
C127 H145 0.932 . S
C128 C129 1.384 . S
C128 C130 1.479 . S
C128 H146 0.929 . S
C129 C126 1.424 . S
C129 C128 1.384 . S
C129 H147 0.928 . S
C130 C127 1.260 . S
C130 C128 1.479 . S
C131 C126 1.245 . S
C131 C127 1.477 . S
C131 H148 0.932 . S
C132 U115 2.882 . S
C132 C126 1.428 . S
C132 O135 1.301 . S
C132 O136 1.282 . S
O133 U115 2.441 . S
O133 C119 1.249 . S
O134 U115 2.420 . S
O134 C119 1.202 . S
O135 U115 2.455 . S
O135 C132 1.301 . S
O136 U115 2.449 . S
O136 C132 1.282 . S
H137 C110 0.931 . S
H138 C112 0.929 . S
H139 C113 0.930 . S
H140 C114 0.931 . S
H141 C121 0.932 . S
H142 C122 0.930 . S
H143 C123 0.929 . S
H144 C125 0.930 . S
H145 C127 0.932 . S
H146 C128 0.929 . S
H147 C129 0.928 . S
H148 C131 0.932 . S
C149 C150 1.264 . S
C149 C154 1.479 . S
C149 C159 1.465 . S
C150 C149 1.264 . S
C150 C152 1.339 . S
C150 H177 0.931 . S
C151 C152 1.395 . S
C151 C153 1.320 . S
C152 C150 1.339 . S
C152 C151 1.395 . S
C152 H178 0.929 . S
C153 C151 1.320 . S
C153 C154 1.405 . S
C153 H179 0.930 . S
C154 C149 1.479 . S
C154 C153 1.405 . S
C154 H180 0.931 . S
U155 O156 2.454 . S
U155 O157 2.458 . S
U155 C158 2.984 . S
U155 C159 2.847 1_455 S
U155 C172 2.882 . S
U155 O173 2.441 1_455 S
U155 O174 2.420 1_455 S
U155 O175 2.455 . S
U155 O176 2.449 1_455 S
O156 U155 2.454 . S
O156 C158 1.353 . S
O157 U155 2.458 . S
O157 C158 1.286 . S
C158 U155 2.984 . S
C158 O156 1.353 . S
C158 O157 1.286 . S
C158 C160 1.363 . S
C159 C149 1.465 . S
C159 U155 2.847 1_655 S
C159 O173 1.249 . S
C159 O174 1.202 . S
C160 C158 1.363 . S
C160 C162 1.408 . S
C160 C165 1.342 . S
C161 C162 1.310 . S
C161 C164 1.461 . S
C161 H181 0.932 . S
C162 C160 1.408 . S
C162 C161 1.310 . S
C162 H182 0.930 . S
C163 C164 1.474 . S
C163 C165 1.285 . S
C163 H183 0.929 . S
C164 C161 1.461 . S
C164 C163 1.474 . S
C165 C160 1.342 . S
C165 C163 1.285 . S
C165 H184 0.930 . S
C166 C169 1.424 1_455 S
C166 C171 1.245 . S
C166 C172 1.428 . S
C167 C170 1.260 . S
C167 C171 1.477 . S
C167 H185 0.932 . S
C168 C169 1.384 . S
C168 C170 1.479 1_655 S
C168 H186 0.929 . S
C169 C166 1.424 1_655 S
C169 C168 1.384 . S
C169 H187 0.928 . S
C170 C167 1.260 . S
C170 C168 1.479 1_455 S
C171 C166 1.245 . S
C171 C167 1.477 . S
C171 H188 0.932 . S
C172 U155 2.882 . S
C172 C166 1.428 . S
C172 O175 1.301 . S
C172 O176 1.282 1_455 S
O173 U155 2.441 1_655 S
O173 C159 1.249 . S
O174 U155 2.420 1_655 S
O174 C159 1.202 . S
O175 U155 2.455 . S
O175 C172 1.301 . S
O176 U155 2.449 1_655 S
O176 C172 1.282 1_655 S
H177 C150 0.931 . S
H178 C152 0.929 . S
H179 C153 0.930 . S
H180 C154 0.931 . S
H181 C161 0.932 . S
H182 C162 0.930 . S
H183 C163 0.929 . S
H184 C165 0.930 . S
H185 C167 0.932 . S
H186 C168 0.929 . S
H187 C169 0.928 . S
H188 C171 0.932 . S
C189 C190 1.264 . S
C189 C194 1.479 . S
C189 C199 1.465 . S
C190 C189 1.264 . S
C190 C192 1.339 . S
C190 H217 0.931 . S
C191 C192 1.395 . S
C191 C193 1.320 . S
C192 C190 1.339 . S
C192 C191 1.395 . S
C192 H218 0.929 . S
C193 C191 1.320 . S
C193 C194 1.405 . S
C193 H219 0.930 . S
C194 C189 1.479 . S
C194 C193 1.405 . S
C194 H220 0.931 . S
U195 O196 2.454 1_655 S
U195 O197 2.458 1_655 S
U195 C198 2.984 1_655 S
U195 C199 2.847 . S
U195 C212 2.882 . S
U195 O213 2.441 . S
U195 O214 2.420 . S
U195 O215 2.455 1_655 S
U195 O216 2.449 . S
O196 U195 2.454 1_455 S
O196 C198 1.353 . S
O197 U195 2.458 1_455 S
O197 C198 1.286 . S
C198 U195 2.984 1_455 S
C198 O196 1.353 . S
C198 O197 1.286 . S
C198 C200 1.363 . S
C199 C189 1.465 . S
C199 U195 2.847 . S
C199 O213 1.249 . S
C199 O214 1.202 . S
C200 C198 1.363 . S
C200 C202 1.408 . S
C200 C205 1.342 . S
C201 C202 1.310 . S
C201 C204 1.461 . S
C201 H221 0.932 . S
C202 C200 1.408 . S
C202 C201 1.310 . S
C202 H222 0.930 . S
C203 C204 1.474 . S
C203 C205 1.285 . S
C203 H223 0.929 . S
C204 C201 1.461 . S
C204 C203 1.474 . S
C205 C200 1.342 . S
C205 C203 1.285 . S
C205 H224 0.930 . S
C206 C209 1.424 . S
C206 C211 1.245 1_655 S
C206 C212 1.428 . S
C207 C210 1.260 1_455 S
C207 C211 1.477 . S
C207 H225 0.932 . S
C208 C209 1.384 . S
C208 C210 1.479 . S
C208 H226 0.929 . S
C209 C206 1.424 . S
C209 C208 1.384 . S
C209 H227 0.928 . S
C210 C207 1.260 1_655 S
C210 C208 1.479 . S
C211 C206 1.245 1_455 S
C211 C207 1.477 . S
C211 H228 0.932 . S
C212 U195 2.882 . S
C212 C206 1.428 . S
C212 O215 1.301 1_655 S
C212 O216 1.282 . S
O213 U195 2.441 . S
O213 C199 1.249 . S
O214 U195 2.420 . S
O214 C199 1.202 . S
O215 U195 2.455 1_455 S
O215 C212 1.301 1_455 S
O216 U195 2.449 . S
O216 C212 1.282 . S
H217 C190 0.931 . S
H218 C192 0.929 . S
H219 C193 0.930 . S
H220 C194 0.931 . S
H221 C201 0.932 . S
H222 C202 0.930 . S
H223 C203 0.929 . S
H224 C205 0.930 . S
H225 C207 0.932 . S
H226 C208 0.929 . S
H227 C209 0.928 . S
H228 C211 0.932 . S
C229 C230 1.264 . S
C229 C234 1.479 . S
C229 C239 1.465 . S
C230 C229 1.264 . S
C230 C232 1.339 . S
C230 H257 0.931 . S
C231 C232 1.395 . S
C231 C233 1.320 . S
C232 C230 1.339 . S
C232 C231 1.395 . S
C232 H258 0.929 . S
C233 C231 1.320 . S
C233 C234 1.405 . S
C233 H259 0.930 . S
C234 C229 1.479 . S
C234 C233 1.405 . S
C234 H260 0.931 . S
U235 O236 2.454 1_565 S
U235 O237 2.458 1_565 S
U235 C238 2.984 1_565 S
U235 C239 2.847 . S
U235 C252 2.882 . S
U235 O253 2.441 . S
U235 O254 2.420 . S
U235 O255 2.455 1_565 S
U235 O256 2.449 . S
O236 U235 2.454 1_545 S
O236 C238 1.353 . S
O237 U235 2.458 1_545 S
O237 C238 1.286 . S
C238 U235 2.984 1_545 S
C238 O236 1.353 . S
C238 O237 1.286 . S
C238 C240 1.363 . S
C239 C229 1.465 . S
C239 U235 2.847 . S
C239 O253 1.249 . S
C239 O254 1.202 . S
C240 C238 1.363 . S
C240 C242 1.408 . S
C240 C245 1.342 . S
C241 C242 1.310 . S
C241 C244 1.461 . S
C241 H261 0.932 . S
C242 C240 1.408 . S
C242 C241 1.310 . S
C242 H262 0.930 . S
C243 C244 1.474 . S
C243 C245 1.285 . S
C243 H263 0.929 . S
C244 C241 1.461 . S
C244 C243 1.474 . S
C245 C240 1.342 . S
C245 C243 1.285 . S
C245 H264 0.930 . S
C246 C249 1.424 . S
C246 C251 1.245 1_565 S
C246 C252 1.428 . S
C247 C250 1.260 1_545 S
C247 C251 1.477 . S
C247 H265 0.932 . S
C248 C249 1.384 . S
C248 C250 1.479 . S
C248 H266 0.929 . S
C249 C246 1.424 . S
C249 C248 1.384 . S
C249 H267 0.928 . S
C250 C247 1.260 1_565 S
C250 C248 1.479 . S
C251 C246 1.245 1_545 S
C251 C247 1.477 . S
C251 H268 0.932 . S
C252 U235 2.882 . S
C252 C246 1.428 . S
C252 O255 1.301 1_565 S
C252 O256 1.282 . S
O253 U235 2.441 . S
O253 C239 1.249 . S
O254 U235 2.420 . S
O254 C239 1.202 . S
O255 U235 2.455 1_545 S
O255 C252 1.301 1_545 S
O256 U235 2.449 . S
O256 C252 1.282 . S
H257 C230 0.931 . S
H258 C232 0.929 . S
H259 C233 0.930 . S
H260 C234 0.931 . S
H261 C241 0.932 . S
H262 C242 0.930 . S
H263 C243 0.929 . S
H264 C245 0.930 . S
H265 C247 0.932 . S
H266 C248 0.929 . S
H267 C249 0.928 . S
H268 C251 0.932 . S
C269 C270 1.264 . S
C269 C274 1.479 . S
C269 C279 1.465 . S
C270 C269 1.264 . S
C270 C272 1.339 . S
C270 H297 0.931 . S
C271 C272 1.395 . S
C271 C273 1.320 . S
C272 C270 1.339 . S
C272 C271 1.395 . S
C272 H298 0.929 . S
C273 C271 1.320 . S
C273 C274 1.405 . S
C273 H299 0.930 . S
C274 C269 1.479 . S
C274 C273 1.405 . S
C274 H300 0.931 . S
U275 O276 2.454 . S
U275 O277 2.458 . S
U275 C278 2.984 . S
U275 C279 2.847 . S
U275 C292 2.882 . S
U275 O293 2.441 . S
U275 O294 2.420 . S
U275 O295 2.455 . S
U275 O296 2.449 . S
O276 U275 2.454 . S
O276 C278 1.353 . S
O277 U275 2.458 . S
O277 C278 1.286 . S
C278 U275 2.984 . S
C278 O276 1.353 . S
C278 O277 1.286 . S
C278 C280 1.363 . S
C279 C269 1.465 . S
C279 U275 2.847 . S
C279 O293 1.249 . S
C279 O294 1.202 . S
C280 C278 1.363 . S
C280 C282 1.408 . S
C280 C285 1.342 . S
C281 C282 1.310 . S
C281 C284 1.461 . S
C281 H301 0.932 . S
C282 C280 1.408 . S
C282 C281 1.310 . S
C282 H302 0.930 . S
C283 C284 1.474 . S
C283 C285 1.285 . S
C283 H303 0.929 . S
C284 C281 1.461 . S
C284 C283 1.474 . S
C285 C280 1.342 . S
C285 C283 1.285 . S
C285 H304 0.930 . S
C286 C289 1.424 . S
C286 C291 1.245 . S
C286 C292 1.428 . S
C287 C290 1.260 . S
C287 C291 1.477 . S
C287 H305 0.932 . S
C288 C289 1.384 . S
C288 C290 1.479 . S
C288 H306 0.929 . S
C289 C286 1.424 . S
C289 C288 1.384 . S
C289 H307 0.928 . S
C290 C287 1.260 . S
C290 C288 1.479 . S
C291 C286 1.245 . S
C291 C287 1.477 . S
C291 H308 0.932 . S
C292 U275 2.882 . S
C292 C286 1.428 . S
C292 O295 1.301 . S
C292 O296 1.282 . S
O293 U275 2.441 . S
O293 C279 1.249 . S
O294 U275 2.420 . S
O294 C279 1.202 . S
O295 U275 2.455 . S
O295 C292 1.301 . S
O296 U275 2.449 . S
O296 C292 1.282 . S
H297 C270 0.931 . S
H298 C272 0.929 . S
H299 C273 0.930 . S
H300 C274 0.931 . S
H301 C281 0.932 . S
H302 C282 0.930 . S
H303 C283 0.929 . S
H304 C285 0.930 . S
H305 C287 0.932 . S
H306 C288 0.929 . S
H307 C289 0.928 . S
H308 C291 0.932 . S
C309 C310 1.391 . S
C309 C311 1.394 . S
C309 H325 0.931 . S
C310 C309 1.391 . S
C310 C314 1.376 . S
C311 C309 1.394 . S
C311 C312 1.369 . S
C311 C315 1.531 . S
C312 C311 1.369 . S
C312 C313 1.410 . S
C312 C320 1.503 . S
C313 C312 1.410 . S
C313 C314 1.392 . S
C313 C316 1.511 . S
C314 C310 1.376 . S
C314 C313 1.392 . S
C314 H326 0.929 . S
C315 C311 1.531 . S
C315 H327 0.960 . S
C315 H328 0.962 . S
C315 H329 0.960 . S
C316 C313 1.511 . S
C316 H330 0.961 . S
C316 H331 0.961 . S
C316 H332 0.961 . S
C317 C318 1.370 . S
C317 C319 1.363 . S
C317 H333 0.931 . S
C318 C317 1.370 . S
C318 C322 1.408 . S
C319 C317 1.363 . S
C319 C320 1.370 . S
C319 C323 1.524 . S
C320 C312 1.503 . S
C320 C319 1.370 . S
C320 C321 1.403 . S
C321 C320 1.403 . S
C321 C322 1.404 . S
C321 C324 1.539 . S
C322 C318 1.408 . S
C322 C321 1.404 . S
C322 H334 0.930 . S
C323 C319 1.524 . S
C323 H335 0.956 . S
C323 H336 0.961 . S
C323 H337 0.961 . S
C324 C321 1.539 . S
C324 H338 0.958 . S
C324 H339 0.961 . S
C324 H340 0.960 . S
H325 C309 0.931 . S
H326 C314 0.929 . S
H327 C315 0.960 . S
H328 C315 0.962 . S
H329 C315 0.960 . S
H330 C316 0.961 . S
H331 C316 0.961 . S
H332 C316 0.961 . S
H333 C317 0.931 . S
H334 C322 0.930 . S
H335 C323 0.956 . S
H336 C323 0.961 . S
H337 C323 0.961 . S
H338 C324 0.958 . S
H339 C324 0.961 . S
H340 C324 0.960 . S
C341 C342 1.391 . S
C341 C343 1.394 . S
C341 H357 0.931 . S
C342 C341 1.391 . S
C342 C346 1.376 . S
C343 C341 1.394 . S
C343 C344 1.369 . S
C343 C347 1.531 . S
C344 C343 1.369 . S
C344 C345 1.410 . S
C344 C352 1.503 . S
C345 C344 1.410 . S
C345 C346 1.392 . S
C345 C348 1.511 . S
C346 C342 1.376 . S
C346 C345 1.392 . S
C346 H358 0.929 . S
C347 C343 1.531 . S
C347 H359 0.960 . S
C347 H360 0.962 . S
C347 H361 0.960 . S
C348 C345 1.511 . S
C348 H362 0.961 . S
C348 H363 0.961 . S
C348 H364 0.961 . S
C349 C350 1.370 . S
C349 C351 1.363 . S
C349 H365 0.931 . S
C350 C349 1.370 . S
C350 C354 1.408 . S
C351 C349 1.363 . S
C351 C352 1.370 . S
C351 C355 1.524 . S
C352 C344 1.503 . S
C352 C351 1.370 . S
C352 C353 1.403 . S
C353 C352 1.403 . S
C353 C354 1.404 . S
C353 C356 1.539 . S
C354 C350 1.408 . S
C354 C353 1.404 . S
C354 H366 0.930 . S
C355 C351 1.524 . S
C355 H367 0.956 . S
C355 H368 0.961 . S
C355 H369 0.961 . S
C356 C353 1.539 . S
C356 H370 0.958 . S
C356 H371 0.961 . S
C356 H372 0.960 . S
H357 C341 0.931 . S
H358 C346 0.929 . S
H359 C347 0.960 . S
H360 C347 0.962 . S
H361 C347 0.960 . S
H362 C348 0.961 . S
H363 C348 0.961 . S
H364 C348 0.961 . S
H365 C349 0.931 . S
H366 C354 0.930 . S
H367 C355 0.956 . S
H368 C355 0.961 . S
H369 C355 0.961 . S
H370 C356 0.958 . S
H371 C356 0.961 . S
H372 C356 0.960 . S
C373 C374 1.391 . S
C373 C375 1.394 . S
C373 H389 0.931 . S
C374 C373 1.391 . S
C374 C378 1.376 . S
C375 C373 1.394 . S
C375 C376 1.369 . S
C375 C379 1.531 . S
C376 C375 1.369 . S
C376 C377 1.410 . S
C376 C384 1.503 . S
C377 C376 1.410 . S
C377 C378 1.392 . S
C377 C380 1.511 . S
C378 C374 1.376 . S
C378 C377 1.392 . S
C378 H390 0.929 . S
C379 C375 1.531 . S
C379 H391 0.960 . S
C379 H392 0.962 . S
C379 H393 0.960 . S
C380 C377 1.511 . S
C380 H394 0.961 . S
C380 H395 0.961 . S
C380 H396 0.961 . S
C381 C382 1.370 . S
C381 C383 1.363 . S
C381 H397 0.931 . S
C382 C381 1.370 . S
C382 C386 1.408 . S
C383 C381 1.363 . S
C383 C384 1.370 . S
C383 C387 1.524 . S
C384 C376 1.503 . S
C384 C383 1.370 . S
C384 C385 1.403 . S
C385 C384 1.403 . S
C385 C386 1.404 . S
C385 C388 1.539 . S
C386 C382 1.408 . S
C386 C385 1.404 . S
C386 H398 0.930 . S
C387 C383 1.524 . S
C387 H399 0.956 . S
C387 H400 0.961 . S
C387 H401 0.961 . S
C388 C385 1.539 . S
C388 H402 0.958 . S
C388 H403 0.961 . S
C388 H404 0.960 . S
H389 C373 0.931 . S
H390 C378 0.929 . S
H391 C379 0.960 . S
H392 C379 0.962 . S
H393 C379 0.960 . S
H394 C380 0.961 . S
H395 C380 0.961 . S
H396 C380 0.961 . S
H397 C381 0.931 . S
H398 C386 0.930 . S
H399 C387 0.956 . S
H400 C387 0.961 . S
H401 C387 0.961 . S
H402 C388 0.958 . S
H403 C388 0.961 . S
H404 C388 0.960 . S
C405 C406 1.391 . S
C405 C407 1.394 . S
C405 H421 0.931 . S
C406 C405 1.391 . S
C406 C410 1.376 . S
C407 C405 1.394 . S
C407 C408 1.369 . S
C407 C411 1.531 . S
C408 C407 1.369 . S
C408 C409 1.410 . S
C408 C416 1.503 . S
C409 C408 1.410 . S
C409 C410 1.392 . S
C409 C412 1.511 . S
C410 C406 1.376 . S
C410 C409 1.392 . S
C410 H422 0.929 . S
C411 C407 1.531 . S
C411 H423 0.960 . S
C411 H424 0.962 . S
C411 H425 0.960 . S
C412 C409 1.511 . S
C412 H426 0.961 . S
C412 H427 0.961 . S
C412 H428 0.961 . S
C413 C414 1.370 . S
C413 C415 1.363 . S
C413 H429 0.931 . S
C414 C413 1.370 . S
C414 C418 1.408 . S
C415 C413 1.363 . S
C415 C416 1.370 . S
C415 C419 1.524 . S
C416 C408 1.503 . S
C416 C415 1.370 . S
C416 C417 1.403 . S
C417 C416 1.403 . S
C417 C418 1.404 . S
C417 C420 1.539 . S
C418 C414 1.408 . S
C418 C417 1.404 . S
C418 H430 0.930 . S
C419 C415 1.524 . S
C419 H431 0.956 . S
C419 H432 0.961 . S
C419 H433 0.961 . S
C420 C417 1.539 . S
C420 H434 0.958 . S
C420 H435 0.961 . S
C420 H436 0.960 . S
H421 C405 0.931 . S
H422 C410 0.929 . S
H423 C411 0.960 . S
H424 C411 0.962 . S
H425 C411 0.960 . S
H426 C412 0.961 . S
H427 C412 0.961 . S
H428 C412 0.961 . S
H429 C413 0.931 . S
H430 C418 0.930 . S
H431 C419 0.956 . S
H432 C419 0.961 . S
H433 C419 0.961 . S
H434 C420 0.958 . S
H435 C420 0.961 . S
H436 C420 0.960 . S
C437 C438 1.391 . S
C437 C439 1.394 . S
C437 H453 0.931 . S
C438 C437 1.391 . S
C438 C442 1.376 . S
C439 C437 1.394 . S
C439 C440 1.369 . S
C439 C443 1.531 . S
C440 C439 1.369 . S
C440 C441 1.410 . S
C440 C448 1.503 . S
C441 C440 1.410 . S
C441 C442 1.392 . S
C441 C444 1.511 . S
C442 C438 1.376 . S
C442 C441 1.392 . S
C442 H454 0.929 . S
C443 C439 1.531 . S
C443 H455 0.960 . S
C443 H456 0.962 . S
C443 H457 0.960 . S
C444 C441 1.511 . S
C444 H458 0.961 . S
C444 H459 0.961 . S
C444 H460 0.961 . S
C445 C446 1.370 . S
C445 C447 1.363 . S
C445 H461 0.931 . S
C446 C445 1.370 . S
C446 C450 1.408 . S
C447 C445 1.363 . S
C447 C448 1.370 . S
C447 C451 1.524 . S
C448 C440 1.503 . S
C448 C447 1.370 . S
C448 C449 1.403 . S
C449 C448 1.403 . S
C449 C450 1.404 . S
C449 C452 1.539 . S
C450 C446 1.408 . S
C450 C449 1.404 . S
C450 H462 0.930 . S
C451 C447 1.524 . S
C451 H463 0.956 . S
C451 H464 0.961 . S
C451 H465 0.961 . S
C452 C449 1.539 . S
C452 H466 0.958 . S
C452 H467 0.961 . S
C452 H468 0.960 . S
H453 C437 0.931 . S
H454 C442 0.929 . S
H455 C443 0.960 . S
H456 C443 0.962 . S
H457 C443 0.960 . S
H458 C444 0.961 . S
H459 C444 0.961 . S
H460 C444 0.961 . S
H461 C445 0.931 . S
H462 C450 0.930 . S
H463 C451 0.956 . S
H464 C451 0.961 . S
H465 C451 0.961 . S
H466 C452 0.958 . S
H467 C452 0.961 . S
H468 C452 0.960 . S
C469 C470 1.391 . S
C469 C471 1.394 . S
C469 H485 0.931 . S
C470 C469 1.391 . S
C470 C474 1.376 . S
C471 C469 1.394 . S
C471 C472 1.369 . S
C471 C475 1.531 . S
C472 C471 1.369 . S
C472 C473 1.410 . S
C472 C480 1.503 . S
C473 C472 1.410 . S
C473 C474 1.392 . S
C473 C476 1.511 . S
C474 C470 1.376 . S
C474 C473 1.392 . S
C474 H486 0.929 . S
C475 C471 1.531 . S
C475 H487 0.960 . S
C475 H488 0.962 . S
C475 H489 0.960 . S
C476 C473 1.511 . S
C476 H490 0.961 . S
C476 H491 0.961 . S
C476 H492 0.961 . S
C477 C478 1.370 . S
C477 C479 1.363 . S
C477 H493 0.931 . S
C478 C477 1.370 . S
C478 C482 1.408 . S
C479 C477 1.363 . S
C479 C480 1.370 . S
C479 C483 1.524 . S
C480 C472 1.503 . S
C480 C479 1.370 . S
C480 C481 1.403 . S
C481 C480 1.403 . S
C481 C482 1.404 . S
C481 C484 1.539 . S
C482 C478 1.408 . S
C482 C481 1.404 . S
C482 H494 0.930 . S
C483 C479 1.524 . S
C483 H495 0.956 . S
C483 H496 0.961 . S
C483 H497 0.961 . S
C484 C481 1.539 . S
C484 H498 0.958 . S
C484 H499 0.961 . S
C484 H500 0.960 . S
H485 C469 0.931 . S
H486 C474 0.929 . S
H487 C475 0.960 . S
H488 C475 0.962 . S
H489 C475 0.960 . S
H490 C476 0.961 . S
H491 C476 0.961 . S
H492 C476 0.961 . S
H493 C477 0.931 . S
H494 C482 0.930 . S
H495 C483 0.956 . S
H496 C483 0.961 . S
H497 C483 0.961 . S
H498 C484 0.958 . S
H499 C484 0.961 . S
H500 C484 0.960 . S
C501 C502 1.391 . S
C501 C503 1.394 . S
C501 H517 0.931 . S
C502 C501 1.391 . S
C502 C506 1.376 . S
C503 C501 1.394 . S
C503 C504 1.369 . S
C503 C507 1.531 . S
C504 C503 1.369 . S
C504 C505 1.410 . S
C504 C512 1.503 . S
C505 C504 1.410 . S
C505 C506 1.392 . S
C505 C508 1.511 . S
C506 C502 1.376 . S
C506 C505 1.392 . S
C506 H518 0.929 . S
C507 C503 1.531 . S
C507 H519 0.960 . S
C507 H520 0.962 . S
C507 H521 0.960 . S
C508 C505 1.511 . S
C508 H522 0.961 . S
C508 H523 0.961 . S
C508 H524 0.961 . S
C509 C510 1.370 . S
C509 C511 1.363 . S
C509 H525 0.931 . S
C510 C509 1.370 . S
C510 C514 1.408 . S
C511 C509 1.363 . S
C511 C512 1.370 . S
C511 C515 1.524 . S
C512 C504 1.503 . S
C512 C511 1.370 . S
C512 C513 1.403 . S
C513 C512 1.403 . S
C513 C514 1.404 . S
C513 C516 1.539 . S
C514 C510 1.408 . S
C514 C513 1.404 . S
C514 H526 0.930 . S
C515 C511 1.524 . S
C515 H527 0.956 . S
C515 H528 0.961 . S
C515 H529 0.961 . S
C516 C513 1.539 . S
C516 H530 0.958 . S
C516 H531 0.961 . S
C516 H532 0.960 . S
H517 C501 0.931 . S
H518 C506 0.929 . S
H519 C507 0.960 . S
H520 C507 0.962 . S
H521 C507 0.960 . S
H522 C508 0.961 . S
H523 C508 0.961 . S
H524 C508 0.961 . S
H525 C509 0.931 . S
H526 C514 0.930 . S
H527 C515 0.956 . S
H528 C515 0.961 . S
H529 C515 0.961 . S
H530 C516 0.958 . S
H531 C516 0.961 . S
H532 C516 0.960 . S
C533 C534 1.391 . S
C533 C535 1.394 . S
C533 H549 0.931 . S
C534 C533 1.391 . S
C534 C538 1.376 . S
C535 C533 1.394 . S
C535 C536 1.369 . S
C535 C539 1.531 . S
C536 C535 1.369 . S
C536 C537 1.410 . S
C536 C544 1.503 . S
C537 C536 1.410 . S
C537 C538 1.392 . S
C537 C540 1.511 . S
C538 C534 1.376 . S
C538 C537 1.392 . S
C538 H550 0.929 . S
C539 C535 1.531 . S
C539 H551 0.960 . S
C539 H552 0.962 . S
C539 H553 0.960 . S
C540 C537 1.511 . S
C540 H554 0.961 . S
C540 H555 0.961 . S
C540 H556 0.961 . S
C541 C542 1.370 . S
C541 C543 1.363 . S
C541 H557 0.931 . S
C542 C541 1.370 . S
C542 C546 1.408 . S
C543 C541 1.363 . S
C543 C544 1.370 . S
C543 C547 1.524 . S
C544 C536 1.503 . S
C544 C543 1.370 . S
C544 C545 1.403 . S
C545 C544 1.403 . S
C545 C546 1.404 . S
C545 C548 1.539 . S
C546 C542 1.408 . S
C546 C545 1.404 . S
C546 H558 0.930 . S
C547 C543 1.524 . S
C547 H559 0.956 . S
C547 H560 0.961 . S
C547 H561 0.961 . S
C548 C545 1.539 . S
C548 H562 0.958 . S
C548 H563 0.961 . S
C548 H564 0.960 . S
H549 C533 0.931 . S
H550 C538 0.929 . S
H551 C539 0.960 . S
H552 C539 0.962 . S
H553 C539 0.960 . S
H554 C540 0.961 . S
H555 C540 0.961 . S
H556 C540 0.961 . S
H557 C541 0.931 . S
H558 C546 0.930 . S
H559 C547 0.956 . S
H560 C547 0.961 . S
H561 C547 0.961 . S
H562 C548 0.958 . S
H563 C548 0.961 . S
H564 C548 0.960 . S
C565 C566 1.391 . S
C565 C567 1.394 . S
C565 H581 0.931 . S
C566 C565 1.391 . S
C566 C570 1.376 . S
C567 C565 1.394 . S
C567 C568 1.369 . S
C567 C571 1.531 . S
C568 C567 1.369 . S
C568 C569 1.410 . S
C568 C576 1.503 . S
C569 C568 1.410 . S
C569 C570 1.392 . S
C569 C572 1.511 . S
C570 C566 1.376 . S
C570 C569 1.392 . S
C570 H582 0.929 . S
C571 C567 1.531 . S
C571 H583 0.960 . S
C571 H584 0.962 . S
C571 H585 0.960 . S
C572 C569 1.511 . S
C572 H586 0.961 . S
C572 H587 0.961 . S
C572 H588 0.961 . S
C573 C574 1.370 . S
C573 C575 1.363 . S
C573 H589 0.931 . S
C574 C573 1.370 . S
C574 C578 1.408 . S
C575 C573 1.363 . S
C575 C576 1.370 . S
C575 C579 1.524 . S
C576 C568 1.503 . S
C576 C575 1.370 . S
C576 C577 1.403 . S
C577 C576 1.403 . S
C577 C578 1.404 . S
C577 C580 1.539 . S
C578 C574 1.408 . S
C578 C577 1.404 . S
C578 H590 0.930 . S
C579 C575 1.524 . S
C579 H591 0.956 . S
C579 H592 0.961 . S
C579 H593 0.961 . S
C580 C577 1.539 . S
C580 H594 0.958 . S
C580 H595 0.961 . S
C580 H596 0.960 . S
H581 C565 0.931 . S
H582 C570 0.929 . S
H583 C571 0.960 . S
H584 C571 0.962 . S
H585 C571 0.960 . S
H586 C572 0.961 . S
H587 C572 0.961 . S
H588 C572 0.961 . S
H589 C573 0.931 . S
H590 C578 0.930 . S
H591 C579 0.956 . S
H592 C579 0.961 . S
H593 C579 0.961 . S
H594 C580 0.958 . S
H595 C580 0.961 . S
H596 C580 0.960 . S
C597 C598 1.391 . S
C597 C599 1.394 . S
C597 H613 0.931 . S
C598 C597 1.391 . S
C598 C602 1.376 . S
C599 C597 1.394 . S
C599 C600 1.369 . S
C599 C603 1.531 . S
C600 C599 1.369 . S
C600 C601 1.410 . S
C600 C608 1.503 . S
C601 C600 1.410 . S
C601 C602 1.392 . S
C601 C604 1.511 . S
C602 C598 1.376 . S
C602 C601 1.392 . S
C602 H614 0.929 . S
C603 C599 1.531 . S
C603 H615 0.960 . S
C603 H616 0.962 . S
C603 H617 0.960 . S
C604 C601 1.511 . S
C604 H618 0.961 . S
C604 H619 0.961 . S
C604 H620 0.961 . S
C605 C606 1.370 . S
C605 C607 1.363 . S
C605 H621 0.931 . S
C606 C605 1.370 . S
C606 C610 1.408 . S
C607 C605 1.363 . S
C607 C608 1.370 . S
C607 C611 1.524 . S
C608 C600 1.503 . S
C608 C607 1.370 . S
C608 C609 1.403 . S
C609 C608 1.403 . S
C609 C610 1.404 . S
C609 C612 1.539 . S
C610 C606 1.408 . S
C610 C609 1.404 . S
C610 H622 0.930 . S
C611 C607 1.524 . S
C611 H623 0.956 . S
C611 H624 0.961 . S
C611 H625 0.961 . S
C612 C609 1.539 . S
C612 H626 0.958 . S
C612 H627 0.961 . S
C612 H628 0.960 . S
H613 C597 0.931 . S
H614 C602 0.929 . S
H615 C603 0.960 . S
H616 C603 0.962 . S
H617 C603 0.960 . S
H618 C604 0.961 . S
H619 C604 0.961 . S
H620 C604 0.961 . S
H621 C605 0.931 . S
H622 C610 0.930 . S
H623 C611 0.956 . S
H624 C611 0.961 . S
H625 C611 0.961 . S
H626 C612 0.958 . S
H627 C612 0.961 . S
H628 C612 0.960 . S
C629 C630 1.391 . S
C629 C631 1.394 . S
C629 H645 0.931 . S
C630 C629 1.391 . S
C630 C634 1.376 . S
C631 C629 1.394 . S
C631 C632 1.369 . S
C631 C635 1.531 . S
C632 C631 1.369 . S
C632 C633 1.410 . S
C632 C640 1.503 . S
C633 C632 1.410 . S
C633 C634 1.392 . S
C633 C636 1.511 . S
C634 C630 1.376 . S
C634 C633 1.392 . S
C634 H646 0.929 . S
C635 C631 1.531 . S
C635 H647 0.960 . S
C635 H648 0.962 . S
C635 H649 0.960 . S
C636 C633 1.511 . S
C636 H650 0.961 . S
C636 H651 0.961 . S
C636 H652 0.961 . S
C637 C638 1.370 . S
C637 C639 1.363 . S
C637 H653 0.931 . S
C638 C637 1.370 . S
C638 C642 1.408 . S
C639 C637 1.363 . S
C639 C640 1.370 . S
C639 C643 1.524 . S
C640 C632 1.503 . S
C640 C639 1.370 . S
C640 C641 1.403 . S
C641 C640 1.403 . S
C641 C642 1.404 . S
C641 C644 1.539 . S
C642 C638 1.408 . S
C642 C641 1.404 . S
C642 H654 0.930 . S
C643 C639 1.524 . S
C643 H655 0.956 . S
C643 H656 0.961 . S
C643 H657 0.961 . S
C644 C641 1.539 . S
C644 H658 0.958 . S
C644 H659 0.961 . S
C644 H660 0.960 . S
H645 C629 0.931 . S
H646 C634 0.929 . S
H647 C635 0.960 . S
H648 C635 0.962 . S
H649 C635 0.960 . S
H650 C636 0.961 . S
H651 C636 0.961 . S
H652 C636 0.961 . S
H653 C637 0.931 . S
H654 C642 0.930 . S
H655 C643 0.956 . S
H656 C643 0.961 . S
H657 C643 0.961 . S
H658 C644 0.958 . S
H659 C644 0.961 . S
H660 C644 0.960 . S
C661 C662 1.391 . S
C661 C663 1.394 . S
C661 H677 0.931 . S
C662 C661 1.391 . S
C662 C666 1.376 . S
C663 C661 1.394 . S
C663 C664 1.369 . S
C663 C667 1.531 . S
C664 C663 1.369 . S
C664 C665 1.410 . S
C664 C672 1.503 . S
C665 C664 1.410 . S
C665 C666 1.392 . S
C665 C668 1.511 . S
C666 C662 1.376 . S
C666 C665 1.392 . S
C666 H678 0.929 . S
C667 C663 1.531 . S
C667 H679 0.960 . S
C667 H680 0.962 . S
C667 H681 0.960 . S
C668 C665 1.511 . S
C668 H682 0.961 . S
C668 H683 0.961 . S
C668 H684 0.961 . S
C669 C670 1.370 . S
C669 C671 1.363 . S
C669 H685 0.931 . S
C670 C669 1.370 . S
C670 C674 1.408 . S
C671 C669 1.363 . S
C671 C672 1.370 . S
C671 C675 1.524 . S
C672 C664 1.503 . S
C672 C671 1.370 . S
C672 C673 1.403 . S
C673 C672 1.403 . S
C673 C674 1.404 . S
C673 C676 1.539 . S
C674 C670 1.408 . S
C674 C673 1.404 . S
C674 H686 0.930 . S
C675 C671 1.524 . S
C675 H687 0.956 . S
C675 H688 0.961 . S
C675 H689 0.961 . S
C676 C673 1.539 . S
C676 H690 0.958 . S
C676 H691 0.961 . S
C676 H692 0.960 . S
H677 C661 0.931 . S
H678 C666 0.929 . S
H679 C667 0.960 . S
H680 C667 0.962 . S
H681 C667 0.960 . S
H682 C668 0.961 . S
H683 C668 0.961 . S
H684 C668 0.961 . S
H685 C669 0.931 . S
H686 C674 0.930 . S
H687 C675 0.956 . S
H688 C675 0.961 . S
H689 C675 0.961 . S
H690 C676 0.958 . S
H691 C676 0.961 . S
H692 C676 0.960 . S
C693 C694 1.391 . S
C693 C695 1.394 . S
C693 H709 0.931 . S
C694 C693 1.391 . S
C694 C698 1.376 1_455 S
C695 C693 1.394 . S
C695 C696 1.369 . S
C695 C699 1.531 . S
C696 C695 1.369 . S
C696 C697 1.410 1_455 S
C696 C704 1.503 . S
C697 C696 1.410 1_655 S
C697 C698 1.392 . S
C697 C700 1.511 . S
C698 C694 1.376 1_655 S
C698 C697 1.392 . S
C698 H710 0.929 . S
C699 C695 1.531 . S
C699 H711 0.960 . S
C699 H712 0.962 . S
C699 H713 0.960 . S
C700 C697 1.511 . S
C700 H714 0.961 . S
C700 H715 0.961 . S
C700 H716 0.961 . S
C701 C702 1.370 . S
C701 C703 1.363 . S
C701 H717 0.931 . S
C702 C701 1.370 . S
C702 C706 1.408 1_455 S
C703 C701 1.363 . S
C703 C704 1.370 . S
C703 C707 1.524 . S
C704 C696 1.503 . S
C704 C703 1.370 . S
C704 C705 1.403 1_455 S
C705 C704 1.403 1_655 S
C705 C706 1.404 . S
C705 C708 1.539 . S
C706 C702 1.408 1_655 S
C706 C705 1.404 . S
C706 H718 0.930 . S
C707 C703 1.524 . S
C707 H719 0.956 . S
C707 H720 0.961 . S
C707 H721 0.961 . S
C708 C705 1.539 . S
C708 H722 0.958 . S
C708 H723 0.961 . S
C708 H724 0.960 . S
H709 C693 0.931 . S
H710 C698 0.929 . S
H711 C699 0.960 . S
H712 C699 0.962 . S
H713 C699 0.960 . S
H714 C700 0.961 . S
H715 C700 0.961 . S
H716 C700 0.961 . S
H717 C701 0.931 . S
H718 C706 0.930 . S
H719 C707 0.956 . S
H720 C707 0.961 . S
H721 C707 0.961 . S
H722 C708 0.958 . S
H723 C708 0.961 . S
H724 C708 0.960 . S
C725 C726 1.391 1_565 S
C725 C727 1.394 . S
C725 H741 0.931 . S
C726 C725 1.391 1_545 S
C726 C730 1.376 . S
C727 C725 1.394 . S
C727 C728 1.369 1_565 S
C727 C731 1.531 . S
C728 C727 1.369 1_545 S
C728 C729 1.410 . S
C728 C736 1.503 . S
C729 C728 1.410 . S
C729 C730 1.392 . S
C729 C732 1.511 . S
C730 C726 1.376 . S
C730 C729 1.392 . S
C730 H742 0.929 . S
C731 C727 1.531 . S
C731 H743 0.960 . S
C731 H744 0.962 . S
C731 H745 0.960 . S
C732 C729 1.511 . S
C732 H746 0.961 . S
C732 H747 0.961 . S
C732 H748 0.961 . S
C733 C734 1.370 . S
C733 C735 1.363 . S
C733 H749 0.931 . S
C734 C733 1.370 . S
C734 C738 1.408 1_545 S
C735 C733 1.363 . S
C735 C736 1.370 . S
C735 C739 1.524 . S
C736 C728 1.503 . S
C736 C735 1.370 . S
C736 C737 1.403 1_545 S
C737 C736 1.403 1_565 S
C737 C738 1.404 . S
C737 C740 1.539 . S
C738 C734 1.408 1_565 S
C738 C737 1.404 . S
C738 H750 0.930 . S
C739 C735 1.524 . S
C739 H751 0.956 . S
C739 H752 0.961 . S
C739 H753 0.961 . S
C740 C737 1.539 . S
C740 H754 0.958 . S
C740 H755 0.961 . S
C740 H756 0.960 . S
H741 C725 0.931 . S
H742 C730 0.929 . S
H743 C731 0.960 . S
H744 C731 0.962 . S
H745 C731 0.960 . S
H746 C732 0.961 . S
H747 C732 0.961 . S
H748 C732 0.961 . S
H749 C733 0.931 . S
H750 C738 0.930 . S
H751 C739 0.956 . S
H752 C739 0.961 . S
H753 C739 0.961 . S
H754 C740 0.958 . S
H755 C740 0.961 . S
H756 C740 0.960 . S
C757 C758 1.391 . S
C757 C759 1.394 . S
C757 H773 0.931 . S
C758 C757 1.391 . S
C758 C762 1.376 . S
C759 C757 1.394 . S
C759 C760 1.369 . S
C759 C763 1.531 . S
C760 C759 1.369 . S
C760 C761 1.410 . S
C760 C768 1.503 . S
C761 C760 1.410 . S
C761 C762 1.392 . S
C761 C764 1.511 . S
C762 C758 1.376 . S
C762 C761 1.392 . S
C762 H774 0.929 . S
C763 C759 1.531 . S
C763 H775 0.960 . S
C763 H776 0.962 . S
C763 H777 0.960 . S
C764 C761 1.511 . S
C764 H778 0.961 . S
C764 H779 0.961 . S
C764 H780 0.961 . S
C765 C766 1.370 . S
C765 C767 1.363 . S
C765 H781 0.931 . S
C766 C765 1.370 . S
C766 C770 1.408 . S
C767 C765 1.363 . S
C767 C768 1.370 . S
C767 C771 1.524 . S
C768 C760 1.503 . S
C768 C767 1.370 . S
C768 C769 1.403 . S
C769 C768 1.403 . S
C769 C770 1.404 . S
C769 C772 1.539 . S
C770 C766 1.408 . S
C770 C769 1.404 . S
C770 H782 0.930 . S
C771 C767 1.524 . S
C771 H783 0.956 . S
C771 H784 0.961 . S
C771 H785 0.961 . S
C772 C769 1.539 . S
C772 H786 0.958 . S
C772 H787 0.961 . S
C772 H788 0.960 . S
H773 C757 0.931 . S
H774 C762 0.929 . S
H775 C763 0.960 . S
H776 C763 0.962 . S
H777 C763 0.960 . S
H778 C764 0.961 . S
H779 C764 0.961 . S
H780 C764 0.961 . S
H781 C765 0.931 . S
H782 C770 0.930 . S
H783 C771 0.956 . S
H784 C771 0.961 . S
H785 C771 0.961 . S
H786 C772 0.958 . S
H787 C772 0.961 . S
H788 C772 0.960 . S
C789 C790 1.391 1_565 S
C789 C791 1.394 . S
C789 H805 0.931 . S
C790 C789 1.391 1_545 S
C790 C794 1.376 . S
C791 C789 1.394 . S
C791 C792 1.369 . S
C791 C795 1.531 . S
C792 C791 1.369 . S
C792 C793 1.410 1_565 S
C792 C800 1.503 . S
C793 C792 1.410 1_545 S
C793 C794 1.392 . S
C793 C796 1.511 . S
C794 C790 1.376 . S
C794 C793 1.392 . S
C794 H806 0.929 . S
C795 C791 1.531 . S
C795 H807 0.960 . S
C795 H808 0.962 . S
C795 H809 0.960 . S
C796 C793 1.511 . S
C796 H810 0.961 . S
C796 H811 0.961 . S
C796 H812 0.961 . S
C797 C798 1.381 . S
C797 C799 1.363 . S
C797 H813 0.931 . S
C798 C797 1.381 . S
C798 C802 1.396 1_545 S
C799 C797 1.363 . S
C799 C800 1.370 1_545 S
C799 C803 1.524 . S
C800 C792 1.503 . S
C800 C799 1.370 1_565 S
C800 C801 1.403 . S
C801 C800 1.403 . S
C801 C802 1.404 . S
C801 C804 1.539 . S
C802 C798 1.396 1_565 S
C802 C801 1.404 . S
C802 H814 0.930 . S
C803 C799 1.524 . S
C803 H815 0.956 . S
C803 H816 0.961 . S
C803 H817 0.961 . S
C804 C801 1.539 . S
C804 H818 0.958 . S
C804 H819 0.961 . S
C804 H820 0.960 . S
H805 C789 0.931 . S
H806 C794 0.929 . S
H807 C795 0.960 . S
H808 C795 0.962 . S
H809 C795 0.960 . S
H810 C796 0.961 . S
H811 C796 0.961 . S
H812 C796 0.961 . S
H813 C797 0.931 . S
H814 C802 0.930 . S
H815 C803 0.956 . S
H816 C803 0.961 . S
H817 C803 0.961 . S
H818 C804 0.958 . S
H819 C804 0.961 . S
H820 C804 0.960 . S
C821 C822 1.391 . S
C821 C823 1.394 . S
C821 H837 0.931 . S
C822 C821 1.391 . S
C822 C826 1.376 . S
C823 C821 1.394 . S
C823 C824 1.369 . S
C823 C827 1.531 . S
C824 C823 1.369 . S
C824 C825 1.410 . S
C824 C832 1.503 . S
C825 C824 1.410 . S
C825 C826 1.392 . S
C825 C828 1.511 . S
C826 C822 1.376 . S
C826 C825 1.392 . S
C826 H838 0.929 . S
C827 C823 1.531 . S
C827 H839 0.960 . S
C827 H840 0.962 . S
C827 H841 0.960 . S
C828 C825 1.511 . S
C828 H842 0.961 . S
C828 H843 0.961 . S
C828 H844 0.961 . S
C829 C830 1.370 . S
C829 C831 1.363 . S
C829 H845 0.931 . S
C830 C829 1.370 . S
C830 C834 1.408 . S
C831 C829 1.363 . S
C831 C832 1.370 . S
C831 C835 1.524 . S
C832 C824 1.503 . S
C832 C831 1.370 . S
C832 C833 1.403 . S
C833 C832 1.403 . S
C833 C834 1.404 . S
C833 C836 1.539 . S
C834 C830 1.408 . S
C834 C833 1.404 . S
C834 H846 0.930 . S
C835 C831 1.524 . S
C835 H847 0.956 . S
C835 H848 0.961 . S
C835 H849 0.961 . S
C836 C833 1.539 . S
C836 H850 0.958 . S
C836 H851 0.961 . S
C836 H852 0.960 . S
H837 C821 0.931 . S
H838 C826 0.929 . S
H839 C827 0.960 . S
H840 C827 0.962 . S
H841 C827 0.960 . S
H842 C828 0.961 . S
H843 C828 0.961 . S
H844 C828 0.961 . S
H845 C829 0.931 . S
H846 C834 0.930 . S
H847 C835 0.956 . S
H848 C835 0.961 . S
H849 C835 0.961 . S
H850 C836 0.958 . S
H851 C836 0.961 . S
H852 C836 0.960 . S
C853 C854 1.391 . S
C853 C855 1.394 . S
C853 H869 0.931 . S
C854 C853 1.391 . S
C854 C858 1.376 1_455 S
C855 C853 1.394 . S
C855 C856 1.369 . S
C855 C859 1.531 . S
C856 C855 1.369 . S
C856 C857 1.410 1_455 S
C856 C864 1.503 . S
C857 C856 1.410 1_655 S
C857 C858 1.392 . S
C857 C860 1.511 . S
C858 C854 1.376 1_655 S
C858 C857 1.392 . S
C858 H870 0.929 . S
C859 C855 1.531 . S
C859 H871 0.960 . S
C859 H872 0.962 . S
C859 H873 0.960 . S
C860 C857 1.511 . S
C860 H874 0.961 . S
C860 H875 0.961 . S
C860 H876 0.961 . S
C861 C862 1.370 1_655 S
C861 C863 1.363 . S
C861 H877 0.931 . S
C862 C861 1.370 1_455 S
C862 C866 1.408 . S
C863 C861 1.363 . S
C863 C864 1.370 1_655 S
C863 C867 1.524 . S
C864 C856 1.503 . S
C864 C863 1.370 1_455 S
C864 C865 1.403 . S
C865 C864 1.403 . S
C865 C866 1.404 . S
C865 C868 1.539 . S
C866 C862 1.408 . S
C866 C865 1.404 . S
C866 H878 0.930 . S
C867 C863 1.524 . S
C867 H879 0.956 1_655 S
C867 H880 0.961 . S
C867 H881 0.961 . S
C868 C865 1.539 . S
C868 H882 0.958 . S
C868 H883 0.961 . S
C868 H884 0.960 . S
H869 C853 0.931 . S
H870 C858 0.929 . S
H871 C859 0.960 . S
H872 C859 0.962 . S
H873 C859 0.960 . S
H874 C860 0.961 . S
H875 C860 0.961 . S
H876 C860 0.961 . S
H877 C861 0.931 . S
H878 C866 0.930 . S
H879 C867 0.956 1_455 S
H880 C867 0.961 . S
H881 C867 0.961 . S
H882 C868 0.958 . S
H883 C868 0.961 . S
H884 C868 0.960 . S
C310 C20 1.156 . S
C318 C284 1.195 . S
C342 C41 1.224 . S
C350 C191 1.215 . S
C374 C64 1.244 . S
C382 C231 1.253 . S
C406 C19 1.226 . S
C414 C271 1.258 . S
C446 C204 1.208 . S
C438 C44 1.236 . S
C478 C244 1.204 . S
C470 C67 1.213 . S
C502 C43 1.122 . S
C510 C111 1.187 . S
C534 C66 1.108 . S
C542 C151 1.178 . S
C566 C21 1.193 . S
C574 C84 1.225 . S
C606 C124 1.237 . S
C598 C42 1.204 . S
C638 C164 1.240 . S
C630 C65 1.229 . S
C662 C18 1.214 . S
C670 C71 1.219 . S
C702 C170 1.438 1_554 S
C694 C17 1.455 . S
C726 C39 1.450 . S
C734 C90 1.445 . S
C758 C62 1.469 . S
C766 C130 1.456 . S
C798 C250 1.434 1_545 S
C790 C40 1.435 . S
C830 C290 1.452 1_556 S
C822 C63 1.457 . S
C854 C16 1.448 . S
C862 C210 1.441 1_455 S
