# Generated by pormake.
# Topology ocu, (6,8)-cn, num edge types: 1
# Building blocks:
#     Node 0, Type 0, BuildingBlock: FUNLAD_clean_sbu_0, # of connection points: 6
#     Node 1, Type 0, BuildingBlock: FUNLAD_clean_sbu_0, # of connection points: 6
#     Node 2, Type 0, BuildingBlock: FUNLAD_clean_sbu_0, # of connection points: 6
#     Node 3, Type 0, BuildingBlock: FUNLAD_clean_sbu_0, # of connection points: 6
#     Node 4, Type 0, BuildingBlock: FUNLAD_clean_sbu_0, # of connection points: 6
#     Node 5, Type 0, BuildingBlock: FUNLAD_clean_sbu_0, # of connection points: 6
#     Node 6, Type 0, BuildingBlock: FUNLAD_clean_sbu_0, # of connection points: 6
#     Node 7, Type 0, BuildingBlock: FUNLAD_clean_sbu_0, # of connection points: 6
#     Node 8, Type 1, BuildingBlock: TAGTUT_clean_sbu_1, # of connection points: 8
#     Node 9, Type 1, BuildingBlock: TAGTUT_clean_sbu_1, # of connection points: 8
#     Node 10, Type 1, BuildingBlock: TAGTUT_clean_sbu_1, # of connection points: 8
#     Node 11, Type 1, BuildingBlock: TAGTUT_clean_sbu_1, # of connection points: 8
#     Node 12, Type 1, BuildingBlock: TAGTUT_clean_sbu_1, # of connection points: 8
#     Node 13, Type 1, BuildingBlock: TAGTUT_clean_sbu_1, # of connection points: 8
#     Edge 14, Type (0, 1), BuildingBlock: AJUNOK_clean_linker_0, # of connection points: 2
#     Edge 15, Type (0, 1), BuildingBlock: AJUNOK_clean_linker_0, # of connection points: 2
#     Edge 16, Type (0, 1), BuildingBlock: AJUNOK_clean_linker_0, # of connection points: 2
#     Edge 17, Type (0, 1), BuildingBlock: AJUNOK_clean_linker_0, # of connection points: 2
#     Edge 18, Type (0, 1), BuildingBlock: AJUNOK_clean_linker_0, # of connection points: 2
#     Edge 19, Type (0, 1), BuildingBlock: AJUNOK_clean_linker_0, # of connection points: 2
#     Edge 20, Type (0, 1), BuildingBlock: AJUNOK_clean_linker_0, # of connection points: 2
#     Edge 21, Type (0, 1), BuildingBlock: AJUNOK_clean_linker_0, # of connection points: 2
#     Edge 22, Type (0, 1), BuildingBlock: AJUNOK_clean_linker_0, # of connection points: 2
#     Edge 23, Type (0, 1), BuildingBlock: AJUNOK_clean_linker_0, # of connection points: 2
#     Edge 24, Type (0, 1), BuildingBlock: AJUNOK_clean_linker_0, # of connection points: 2
#     Edge 25, Type (0, 1), BuildingBlock: AJUNOK_clean_linker_0, # of connection points: 2
#     Edge 26, Type (0, 1), BuildingBlock: AJUNOK_clean_linker_0, # of connection points: 2
#     Edge 27, Type (0, 1), BuildingBlock: AJUNOK_clean_linker_0, # of connection points: 2
#     Edge 28, Type (0, 1), BuildingBlock: AJUNOK_clean_linker_0, # of connection points: 2
#     Edge 29, Type (0, 1), BuildingBlock: AJUNOK_clean_linker_0, # of connection points: 2
#     Edge 30, Type (0, 1), BuildingBlock: AJUNOK_clean_linker_0, # of connection points: 2
#     Edge 31, Type (0, 1), BuildingBlock: AJUNOK_clean_linker_0, # of connection points: 2
#     Edge 32, Type (0, 1), BuildingBlock: AJUNOK_clean_linker_0, # of connection points: 2
#     Edge 33, Type (0, 1), BuildingBlock: AJUNOK_clean_linker_0, # of connection points: 2
#     Edge 34, Type (0, 1), BuildingBlock: AJUNOK_clean_linker_0, # of connection points: 2
#     Edge 35, Type (0, 1), BuildingBlock: AJUNOK_clean_linker_0, # of connection points: 2
#     Edge 36, Type (0, 1), BuildingBlock: AJUNOK_clean_linker_0, # of connection points: 2
#     Edge 37, Type (0, 1), BuildingBlock: AJUNOK_clean_linker_0, # of connection points: 2
#     Edge 38, Type (0, 1), BuildingBlock: AJUNOK_clean_linker_0, # of connection points: 2
#     Edge 39, Type (0, 1), BuildingBlock: AJUNOK_clean_linker_0, # of connection points: 2
#     Edge 40, Type (0, 1), BuildingBlock: AJUNOK_clean_linker_0, # of connection points: 2
#     Edge 41, Type (0, 1), BuildingBlock: AJUNOK_clean_linker_0, # of connection points: 2
#     Edge 42, Type (0, 1), BuildingBlock: AJUNOK_clean_linker_0, # of connection points: 2
#     Edge 43, Type (0, 1), BuildingBlock: AJUNOK_clean_linker_0, # of connection points: 2
#     Edge 44, Type (0, 1), BuildingBlock: AJUNOK_clean_linker_0, # of connection points: 2
#     Edge 45, Type (0, 1), BuildingBlock: AJUNOK_clean_linker_0, # of connection points: 2
#     Edge 46, Type (0, 1), BuildingBlock: AJUNOK_clean_linker_0, # of connection points: 2
#     Edge 47, Type (0, 1), BuildingBlock: AJUNOK_clean_linker_0, # of connection points: 2
#     Edge 48, Type (0, 1), BuildingBlock: AJUNOK_clean_linker_0, # of connection points: 2
#     Edge 49, Type (0, 1), BuildingBlock: AJUNOK_clean_linker_0, # of connection points: 2
#     Edge 50, Type (0, 1), BuildingBlock: AJUNOK_clean_linker_0, # of connection points: 2
#     Edge 51, Type (0, 1), BuildingBlock: AJUNOK_clean_linker_0, # of connection points: 2
#     Edge 52, Type (0, 1), BuildingBlock: AJUNOK_clean_linker_0, # of connection points: 2
#     Edge 53, Type (0, 1), BuildingBlock: AJUNOK_clean_linker_0, # of connection points: 2
#     Edge 54, Type (0, 1), BuildingBlock: AJUNOK_clean_linker_0, # of connection points: 2
#     Edge 55, Type (0, 1), BuildingBlock: AJUNOK_clean_linker_0, # of connection points: 2
#     Edge 56, Type (0, 1), BuildingBlock: AJUNOK_clean_linker_0, # of connection points: 2
#     Edge 57, Type (0, 1), BuildingBlock: AJUNOK_clean_linker_0, # of connection points: 2
#     Edge 58, Type (0, 1), BuildingBlock: AJUNOK_clean_linker_0, # of connection points: 2
#     Edge 59, Type (0, 1), BuildingBlock: AJUNOK_clean_linker_0, # of connection points: 2
#     Edge 60, Type (0, 1), BuildingBlock: AJUNOK_clean_linker_0, # of connection points: 2
#     Edge 61, Type (0, 1), BuildingBlock: AJUNOK_clean_linker_0, # of connection points: 2
# Relax obj value: 0.233
# Max RMSD: 0.262
# Mean RMSD: 0.206
data_MOF--net-ocu--node1-FUNLAD_clean_sbu_0--node2-TAGTUT_clean_sbu_1--edge1-AJUNOK_clean_linker_0
_symmetry_space_group_name_H-M    P1
_symmetry_Int_Tables_number       1
_symmetry_cell_setting            triclinic
loop_
_symmetry_equiv_pos_as_xyz
'x, y, z'
_cell_length_a     29.828922
_cell_length_b     28.470615
_cell_length_c     31.447849
_cell_angle_alpha  83.305223
_cell_angle_beta   85.11572
_cell_angle_gamma 91.202944
loop_
_atom_site_label
_atom_site_type_symbol
_atom_site_fract_x
_atom_site_fract_y
_atom_site_fract_z
_atom_type_partial_charge
C0 C 0.20669 0.27093 0.32343 0.0
N1 N 0.18155 0.16297 0.24872 0.0
C2 C 0.17889 0.13184 0.28484 0.0
C3 C 0.14729 0.09526 0.29033 0.0
C4 C 0.11668 0.09155 0.25913 0.0
C5 C 0.12083 0.12298 0.22134 0.0
C6 C 0.15464 0.15839 0.21635 0.0
Zn7 Zn 0.22365 0.21857 0.2479 0.0
C8 C 0.18513 0.30461 0.20325 0.0
N9 N 0.31171 0.33543 0.2443 0.0
C10 C 0.3388 0.33768 0.2769 0.0
C11 C 0.31526 0.36793 0.20905 0.0
C12 C 0.34942 0.40212 0.20384 0.0
C13 C 0.38138 0.40147 0.23432 0.0
C14 C 0.37498 0.37021 0.2721 0.0
Zn15 Zn 0.26965 0.2797 0.24435 0.0
O16 O 0.19152 0.2353 0.30766 0.0
C17 C 0.30791 0.19346 0.289 0.0
O18 O 0.23921 0.29548 0.30297 0.0
H19 H 0.29379 0.36526 0.1834 0.0
H20 H 0.19959 0.13674 0.3106 0.0
H21 H 0.33446 0.31212 0.30528 0.0
O22 O 0.27063 0.17546 0.28134 0.0
O23 O 0.31616 0.23695 0.27676 0.0
H24 H 0.15786 0.1835 0.18762 0.0
O25 O 0.302 0.26285 0.18488 0.0
O26 O 0.25537 0.20176 0.18978 0.0
O27 O 0.22219 0.32297 0.2113 0.0
O28 O 0.17735 0.26092 0.2149 0.0
C29 C 0.28878 0.2257 0.1701 0.0
H30 H 0.14453 0.07247 0.32056 0.0
H31 H 0.09725 0.12141 0.19717 0.0
H32 H 0.35384 0.42518 0.17374 0.0
H33 H 0.39938 0.36857 0.2958 0.0
C34 C 0.69115 0.30231 0.21387 0.0
N35 N 0.75087 0.17945 0.18076 0.0
C36 C 0.70693 0.16581 0.18027 0.0
C37 C 0.6936 0.13893 0.14946 0.0
C38 C 0.72523 0.12698 0.11752 0.0
C39 C 0.7705 0.14122 0.11794 0.0
C40 C 0.78285 0.1674 0.15063 0.0
Zn41 Zn 0.76089 0.22368 0.22631 0.0
C42 C 0.8227 0.30657 0.19498 0.0
N43 N 0.76537 0.31968 0.31998 0.0
C44 C 0.73449 0.33163 0.35114 0.0
C45 C 0.8095 0.33328 0.31924 0.0
C46 C 0.82412 0.36002 0.34966 0.0
C47 C 0.79363 0.37215 0.38246 0.0
C48 C 0.74816 0.35778 0.3834 0.0
Zn49 Zn 0.75439 0.27526 0.27439 0.0
O50 O 0.70973 0.26654 0.20015 0.0
C51 C 0.69099 0.1936 0.30457 0.0
O52 O 0.70335 0.31706 0.24791 0.0
H53 H 0.83437 0.3217 0.29612 0.0
H54 H 0.68131 0.17744 0.20265 0.0
H55 H 0.69976 0.3196 0.35188 0.0
O56 O 0.71052 0.18235 0.26983 0.0
O57 O 0.70313 0.2326 0.31715 0.0
H58 H 0.81744 0.1794 0.15101 0.0
O59 O 0.80629 0.23241 0.30011 0.0
O60 O 0.81145 0.18091 0.25327 0.0
O61 O 0.80334 0.31775 0.22983 0.0
O62 O 0.81226 0.26648 0.18355 0.0
C63 C 0.82435 0.19613 0.28679 0.0
H64 H 0.65819 0.12956 0.14925 0.0
H65 H 0.79549 0.13321 0.09299 0.0
H66 H 0.85968 0.36921 0.34878 0.0
H67 H 0.72399 0.36583 0.40901 0.0
C68 C 0.81922 0.69791 0.30197 0.0
N69 N 0.81568 0.84111 0.26802 0.0
C70 C 0.82206 0.83026 0.31052 0.0
C71 C 0.84136 0.86207 0.33362 0.0
C72 C 0.85624 0.90627 0.31355 0.0
C73 C 0.85129 0.91763 0.26936 0.0
C74 C 0.82978 0.88432 0.24704 0.0
Zn75 Zn 0.77808 0.78448 0.25058 0.0
C76 C 0.80434 0.73452 0.18288 0.0
N77 N 0.69714 0.66045 0.25659 0.0
C78 C 0.72064 0.62665 0.23779 0.0
C79 C 0.65272 0.66632 0.25111 0.0
C80 C 0.63259 0.6434 0.22032 0.0
C81 C 0.65847 0.61408 0.19575 0.0
C82 C 0.70198 0.60338 0.20642 0.0
Zn83 Zn 0.73449 0.71899 0.26651 0.0
O84 O 0.82477 0.73955 0.28293 0.0
C85 C 0.70681 0.77264 0.33226 0.0
O86 O 0.781 0.67704 0.30222 0.0
H87 H 0.63468 0.69351 0.26608 0.0
H88 H 0.81076 0.79692 0.32825 0.0
H89 H 0.75598 0.62272 0.24224 0.0
O90 O 0.73729 0.79356 0.30634 0.0
O91 O 0.69429 0.73113 0.32593 0.0
H92 H 0.82433 0.89305 0.21351 0.0
O93 O 0.68973 0.7613 0.23029 0.0
O94 O 0.73123 0.82691 0.2165 0.0
O95 O 0.77428 0.70992 0.20751 0.0
O96 O 0.81665 0.77484 0.19266 0.0
C97 C 0.69462 0.80398 0.21328 0.0
H98 H 0.84569 0.85145 0.36726 0.0
H99 H 0.86373 0.95136 0.25261 0.0
H100 H 0.59872 0.65207 0.21288 0.0
H101 H 0.72258 0.58053 0.18817 0.0
C102 C 0.21315 0.80955 0.28662 0.0
N103 N 0.3312 0.75497 0.32049 0.0
C104 C 0.33782 0.80281 0.31404 0.0
C105 C 0.35834 0.82622 0.34295 0.0
C106 C 0.37283 0.80073 0.37936 0.0
C107 C 0.36614 0.75134 0.38632 0.0
C108 C 0.34485 0.72869 0.3558 0.0
Zn109 Zn 0.29061 0.73543 0.27742 0.0
C110 C 0.21095 0.67892 0.3159 0.0
N111 N 0.19808 0.72703 0.18961 0.0
C112 C 0.18315 0.75308 0.15485 0.0
C113 C 0.19264 0.67907 0.19576 0.0
C114 C 0.17348 0.65519 0.16635 0.0
C115 C 0.15716 0.68035 0.13065 0.0
C116 C 0.16187 0.73005 0.12457 0.0
Zn117 Zn 0.2389 0.74706 0.23236 0.0
O118 O 0.24783 0.78881 0.29864 0.0
C119 C 0.3183 0.80392 0.19372 0.0
O120 O 0.19734 0.80027 0.25217 0.0
H121 H 0.20616 0.65801 0.22209 0.0
H122 H 0.32441 0.8242 0.28786 0.0
H123 H 0.18895 0.79103 0.14998 0.0
O124 O 0.33032 0.78346 0.2287 0.0
O125 O 0.27802 0.79635 0.18481 0.0
H126 H 0.33777 0.69094 0.36102 0.0
O127 O 0.28129 0.69337 0.21181 0.0
O128 O 0.33262 0.68211 0.25731 0.0
O129 O 0.19897 0.69976 0.28108 0.0
O130 O 0.25146 0.68562 0.32457 0.0
C131 C 0.31571 0.67209 0.22363 0.0
H132 H 0.36143 0.86454 0.33751 0.0
H133 H 0.37652 0.73104 0.41492 0.0
H134 H 0.17258 0.61686 0.1712 0.0
H135 H 0.14991 0.75045 0.09676 0.0
C136 C 0.19277 0.8091 0.71415 0.0
N137 N 0.25328 0.68575 0.68371 0.0
C138 C 0.20832 0.67772 0.68221 0.0
C139 C 0.19236 0.65069 0.65287 0.0
C140 C 0.22253 0.63076 0.62431 0.0
C141 C 0.26898 0.63941 0.62535 0.0
C142 C 0.28387 0.6674 0.65588 0.0
Zn143 Zn 0.26381 0.72985 0.72953 0.0
C144 C 0.32504 0.81337 0.70019 0.0
N145 N 0.26195 0.82342 0.82409 0.0
C146 C 0.23101 0.83524 0.85529 0.0
C147 C 0.30644 0.83473 0.82466 0.0
C148 C 0.3215 0.85865 0.85656 0.0
C149 C 0.29101 0.87066 0.88933 0.0
C150 C 0.24507 0.85909 0.88889 0.0
Zn151 Zn 0.25214 0.78038 0.77765 0.0
O152 O 0.21341 0.774 0.70147 0.0
C153 C 0.19013 0.69718 0.80633 0.0
O154 O 0.20181 0.82357 0.74935 0.0
H155 H 0.33131 0.82307 0.80162 0.0
H156 H 0.18397 0.69286 0.70351 0.0
H157 H 0.19598 0.8248 0.85499 0.0
O158 O 0.2122 0.68713 0.7723 0.0
O159 O 0.1994 0.7369 0.81918 0.0
H160 H 0.31945 0.67465 0.65711 0.0
O161 O 0.30314 0.73695 0.80565 0.0
O162 O 0.3142 0.68671 0.75841 0.0
O163 O 0.30313 0.82346 0.73432 0.0
O164 O 0.31648 0.77315 0.68789 0.0
C165 C 0.32366 0.70153 0.7934 0.0
H166 H 0.15628 0.64544 0.65247 0.0
H167 H 0.29309 0.62468 0.60324 0.0
H168 H 0.3573 0.86625 0.85652 0.0
H169 H 0.22086 0.86758 0.91429 0.0
C170 C 0.30888 0.18249 0.80203 0.0
N171 N 0.30714 0.32548 0.77548 0.0
C172 C 0.31248 0.31309 0.81804 0.0
C173 C 0.33317 0.34312 0.84214 0.0
C174 C 0.35081 0.38664 0.82288 0.0
C175 C 0.34676 0.39946 0.77872 0.0
C176 C 0.32378 0.36821 0.75543 0.0
Zn177 Zn 0.27 0.2703 0.75464 0.0
C178 C 0.2976 0.22648 0.68309 0.0
N179 N 0.19069 0.14628 0.74914 0.0
C180 C 0.21578 0.11403 0.72966 0.0
C181 C 0.14674 0.15191 0.7418 0.0
C182 C 0.12946 0.13216 0.70773 0.0
C183 C 0.15747 0.1056 0.68218 0.0
C184 C 0.19967 0.09319 0.69553 0.0
Zn185 Zn 0.2255 0.2049 0.76341 0.0
O186 O 0.3164 0.22465 0.78506 0.0
C187 C 0.19589 0.25058 0.83348 0.0
O188 O 0.27064 0.16277 0.79958 0.0
H189 H 0.12715 0.17714 0.758 0.0
H190 H 0.3004 0.27939 0.83461 0.0
H191 H 0.25071 0.11005 0.7358 0.0
O192 O 0.2279 0.27452 0.81173 0.0
O193 O 0.18315 0.21191 0.82098 0.0
H194 H 0.31967 0.37792 0.72173 0.0
O195 O 0.18163 0.24846 0.72798 0.0
O196 O 0.22313 0.31396 0.7221 0.0
O197 O 0.26723 0.2003 0.70558 0.0
O198 O 0.30954 0.26539 0.69595 0.0
C199 C 0.18698 0.29229 0.71505 0.0
H200 H 0.33669 0.33148 0.87576 0.0
H201 H 0.36115 0.43274 0.76264 0.0
H202 H 0.09619 0.14133 0.69882 0.0
H203 H 0.22191 0.07228 0.67679 0.0
C204 C 0.72609 0.30959 0.80027 0.0
N205 N 0.84124 0.23209 0.81851 0.0
C206 C 0.87886 0.25877 0.80459 0.0
C207 C 0.89313 0.29234 0.82949 0.0
C208 C 0.87198 0.29384 0.8713 0.0
C209 C 0.84335 0.25499 0.88857 0.0
C210 C 0.82653 0.22566 0.8609 0.0
Zn211 Zn 0.79418 0.23396 0.7756 0.0
C212 C 0.71288 0.17567 0.81235 0.0
N213 N 0.69159 0.24466 0.69373 0.0
C214 C 0.68429 0.27513 0.65838 0.0
C215 C 0.67624 0.1988 0.69792 0.0
C216 C 0.65333 0.18176 0.66687 0.0
C217 C 0.64632 0.21126 0.62979 0.0
C218 C 0.66141 0.25885 0.62534 0.0
Zn219 Zn 0.73907 0.25136 0.73552 0.0
O220 O 0.75924 0.28446 0.81037 0.0
C221 C 0.81891 0.31169 0.69947 0.0
O222 O 0.70908 0.30567 0.76503 0.0
H223 H 0.68596 0.17277 0.72266 0.0
H224 H 0.8931 0.25973 0.77177 0.0
H225 H 0.69864 0.31074 0.65446 0.0
O226 O 0.83216 0.29108 0.73401 0.0
O227 O 0.77935 0.30141 0.69023 0.0
H228 H 0.79814 0.20222 0.87253 0.0
O229 O 0.77039 0.19707 0.70465 0.0
O230 O 0.82916 0.18587 0.74091 0.0
O231 O 0.69769 0.20369 0.78322 0.0
O232 O 0.75513 0.17727 0.81552 0.0
C233 C 0.8077 0.17777 0.70933 0.0
H234 H 0.91768 0.31841 0.81384 0.0
H235 H 0.83114 0.24868 0.92204 0.0
H236 H 0.64394 0.14439 0.67065 0.0
H237 H 0.65683 0.28233 0.59649 0.0
C238 C 0.72197 0.78013 0.8186 0.0
N239 N 0.69142 0.68932 0.72859 0.0
C240 C 0.64823 0.70326 0.73499 0.0
C241 C 0.61313 0.66982 0.74001 0.0
C242 C 0.62465 0.62234 0.74526 0.0
C243 C 0.66632 0.6101 0.72603 0.0
C244 C 0.70057 0.64498 0.71883 0.0
Zn245 Zn 0.74092 0.73437 0.73921 0.0
C246 C 0.71445 0.83152 0.70119 0.0
N247 N 0.84026 0.83697 0.75104 0.0
C248 C 0.83369 0.87557 0.77224 0.0
C249 C 0.88228 0.82495 0.73705 0.0
C250 C 0.91848 0.85602 0.7375 0.0
C251 C 0.9111 0.90085 0.75127 0.0
C252 C 0.86954 0.90727 0.77436 0.0
Zn253 Zn 0.78995 0.79196 0.7418 0.0
O254 O 0.70674 0.74743 0.79903 0.0
C255 C 0.81638 0.69517 0.78141 0.0
O256 O 0.75707 0.80359 0.80197 0.0
H257 H 0.8875 0.79242 0.72302 0.0
H258 H 0.64117 0.73877 0.74178 0.0
H259 H 0.8004 0.88305 0.7857 0.0
O260 O 0.77842 0.67997 0.77207 0.0
O261 O 0.82684 0.73864 0.77222 0.0
H262 H 0.73499 0.63521 0.71169 0.0
O263 O 0.82284 0.77866 0.68035 0.0
O264 O 0.77315 0.72104 0.68131 0.0
O265 O 0.75189 0.84715 0.71122 0.0
O266 O 0.70538 0.78762 0.7081 0.0
C267 C 0.80726 0.7444 0.66289 0.0
H268 H 0.58016 0.68038 0.75202 0.0
H269 H 0.67532 0.57334 0.72707 0.0
H270 H 0.95019 0.84696 0.72165 0.0
H271 H 0.8632 0.93884 0.78968 0.0
C272 C 0.89663 0.1232 0.55288 0.0
C273 C 0.92991 0.10459 0.41627 0.0
C274 C 0.94746 0.92778 0.45815 0.0
Mg275 Mg 0.98557 0.11648 0.4951 0.0
O276 O 0.97121 0.05296 0.5119 0.0
Mg277 Mg 0.91106 0.02538 0.50554 0.0
Mg278 Mg 0.00917 0.9996 0.49945 0.0
O279 O 0.04822 0.94652 0.48621 0.0
Mg280 Mg 0.0352 0.88204 0.49729 0.0
Mg281 Mg 0.10891 0.97518 0.48698 0.0
C282 C 0.08104 0.0793 0.52452 0.0
C283 C 0.05883 0.02449 0.40599 0.0
O284 O 0.88032 0.08726 0.53771 0.0
O285 O 0.93663 0.13987 0.54156 0.0
O286 O 0.90939 0.0679 0.43754 0.0
O287 O 0.96162 0.12683 0.43148 0.0
O288 O 0.05468 0.11366 0.51546 0.0
O289 O 0.07105 0.03703 0.51723 0.0
C290 C 0.95521 0.9772 0.59088 0.0
O291 O 0.99296 0.97329 0.56939 0.0
O292 O 0.91999 0.99084 0.57287 0.0
O293 O 0.1388 0.91556 0.44935 0.0
O294 O 0.08442 0.85976 0.45116 0.0
O295 O 0.11388 0.92969 0.55338 0.0
C296 C 0.12267 0.87825 0.43612 0.0
O297 O 0.06035 0.87158 0.56137 0.0
O298 O 0.97279 0.89201 0.46442 0.0
C299 C 0.0932 0.8935 0.57551 0.0
O300 O 0.948 0.96125 0.48185 0.0
O301 O 0.02272 0.02688 0.42999 0.0
O302 O 0.09568 0.01098 0.42083 0.0
C303 C 0.40165 0.12746 0.05113 0.0
C304 C 0.43464 0.10942 0.92313 0.0
C305 C 0.43502 0.92433 0.97599 0.0
Mg306 Mg 0.49227 0.1102 0.99851 0.0
O307 O 0.47453 0.04714 0.02217 0.0
Mg308 Mg 0.41422 0.02555 0.0065 0.0
Mg309 Mg 0.51204 0.99396 0.00346 0.0
O310 O 0.54841 0.94036 0.98532 0.0
Mg311 Mg 0.52724 0.87795 0.00742 0.0
Mg312 Mg 0.60787 0.95965 0.00426 0.0
C313 C 0.58714 0.06571 0.02778 0.0
C314 C 0.59317 0.03956 0.92732 0.0
O315 O 0.38605 0.08764 0.04193 0.0
O316 O 0.44233 0.1422 0.03937 0.0
O317 O 0.41709 0.07438 0.94741 0.0
O318 O 0.47008 0.13018 0.93297 0.0
O319 O 0.56308 0.10101 0.01475 0.0
O320 O 0.57164 0.02253 0.03338 0.0
C321 C 0.43376 0.94416 0.08048 0.0
O322 O 0.47544 0.94362 0.06522 0.0
O323 O 0.40768 0.97539 0.0655 0.0
O324 O 0.63519 0.89554 0.97043 0.0
O325 O 0.57715 0.84445 0.9679 0.0
O326 O 0.59966 0.91454 0.06783 0.0
C327 C 0.61856 0.85764 0.95822 0.0
O328 O 0.54364 0.86105 0.07473 0.0
O329 O 0.45719 0.88757 0.9889 0.0
C330 C 0.57628 0.88134 0.09014 0.0
O331 O 0.45187 0.96662 0.97332 0.0
O332 O 0.55134 0.04326 0.94161 0.0
O333 O 0.61674 0.00633 0.94316 0.0
C334 C 0.8903 0.63557 0.04611 0.0
C335 C 0.91872 0.60545 0.91316 0.0
C336 C 0.92338 0.42924 0.975 0.0
Mg337 Mg 0.97579 0.61511 0.98719 0.0
O338 O 0.96019 0.55432 0.01582 0.0
Mg339 Mg 0.89902 0.53071 0.00432 0.0
Mg340 Mg 0.99827 0.50342 0.9949 0.0
O341 O 0.03582 0.45187 0.97482 0.0
Mg342 Mg 0.01703 0.39288 0.00627 0.0
Mg343 Mg 0.09663 0.47385 0.98858 0.0
C344 C 0.0715 0.5785 0.01468 0.0
C345 C 0.07145 0.5532 0.91241 0.0
O346 O 0.87324 0.5947 0.04084 0.0
O347 O 0.92899 0.65039 0.02801 0.0
O348 O 0.89643 0.57536 0.94026 0.0
O349 O 0.95551 0.6239 0.92218 0.0
O350 O 0.04626 0.61163 0.99999 0.0
O351 O 0.05889 0.53457 0.02042 0.0
C352 C 0.92827 0.4522 0.07897 0.0
O353 O 0.96818 0.45318 0.05914 0.0
O354 O 0.89887 0.4812 0.06607 0.0
O355 O 0.12102 0.40626 0.95567 0.0
O356 O 0.06252 0.35356 0.9689 0.0
O357 O 0.09674 0.4299 0.05394 0.0
C358 C 0.10228 0.3656 0.95192 0.0
O359 O 0.037 0.38217 0.07127 0.0
O360 O 0.94673 0.39647 0.99314 0.0
C361 C 0.07386 0.39991 0.08072 0.0
O362 O 0.93688 0.47276 0.9687 0.0
O363 O 0.03095 0.55373 0.93112 0.0
O364 O 0.09941 0.52266 0.92585 0.0
C365 C 0.39949 0.612 0.0685 0.0
C366 C 0.42996 0.61249 0.92593 0.0
C367 C 0.45122 0.42842 0.96094 0.0
Mg368 Mg 0.48665 0.61667 0.00568 0.0
O369 O 0.47423 0.55178 0.01911 0.0
Mg370 Mg 0.41574 0.52301 0.00817 0.0
Mg371 Mg 0.5158 0.50359 1.00117 0.0
O372 O 0.55754 0.45569 0.98281 0.0
Mg373 Mg 0.54341 0.39133 0.99761 0.0
Mg374 Mg 0.61492 0.48328 0.99829 0.0
C375 C 0.58036 0.5798 0.03988 0.0
C376 C 0.57726 0.55032 0.92054 0.0
O377 O 0.38382 0.57672 0.05157 0.0
O378 O 0.43735 0.63278 0.05485 0.0
O379 O 0.41123 0.57413 0.94553 0.0
O380 O 0.46134 0.63452 0.94198 0.0
O381 O 0.55538 0.61482 0.0287 0.0
O382 O 0.57139 0.53777 0.03162 0.0
C383 C 0.45876 0.46011 0.08655 0.0
O384 O 0.49701 0.46186 0.06532 0.0
O385 O 0.42394 0.47746 0.07053 0.0
O386 O 0.64956 0.42821 0.95739 0.0
O387 O 0.59624 0.37166 0.95398 0.0
O388 O 0.61425 0.43231 0.06042 0.0
C389 C 0.63499 0.39127 0.94216 0.0
O390 O 0.56195 0.3744 0.06317 0.0
O391 O 0.47729 0.39398 0.97067 0.0
C392 C 0.59311 0.39551 0.08011 0.0
O393 O 0.45869 0.4698 0.9715 0.0
O394 O 0.53701 0.54567 0.93789 0.0
O395 O 0.61053 0.53137 0.93815 0.0
C396 C 0.9079 0.63954 0.54274 0.0
C397 C 0.94435 0.61113 0.4154 0.0
C398 C 0.93022 0.42872 0.47816 0.0
Mg399 Mg 0.99774 0.61266 0.49515 0.0
O400 O 0.97407 0.55227 0.52048 0.0
Mg401 Mg 0.91357 0.53393 0.50259 0.0
Mg402 Mg 0.00901 0.49717 0.50384 0.0
O403 O 0.04385 0.44207 0.4869 0.0
Mg404 Mg 0.02131 0.38053 0.51026 0.0
Mg405 Mg 0.10406 0.46003 0.50516 0.0
C406 C 0.08713 0.56456 0.53131 0.0
C407 C 0.09097 0.54113 0.42837 0.0
O408 O 0.88944 0.60058 0.53445 0.0
O409 O 0.9496 0.65057 0.53195 0.0
O410 O 0.92106 0.57917 0.4394 0.0
O411 O 0.97981 0.62913 0.42816 0.0
O412 O 0.06686 0.60158 0.51573 0.0
O413 O 0.06914 0.52265 0.53517 0.0
C414 C 0.92855 0.45389 0.58089 0.0
O415 O 0.97017 0.45078 0.56624 0.0
O416 O 0.90379 0.48564 0.56406 0.0
O417 O 0.12903 0.39575 0.47109 0.0
O418 O 0.06981 0.34529 0.47109 0.0
O419 O 0.09589 0.41347 0.56686 0.0
C420 C 0.11129 0.35761 0.46047 0.0
O421 O 0.03835 0.36223 0.57713 0.0
O422 O 0.95177 0.3919 0.49196 0.0
C423 C 0.07327 0.38069 0.59033 0.0
O424 O 0.94819 0.47077 0.47336 0.0
O425 O 0.04897 0.54449 0.44185 0.0
O426 O 0.1146 0.50851 0.44518 0.0
C427 C 0.3874 0.13561 0.54394 0.0
C428 C 0.41944 0.10218 0.41363 0.0
C429 C 0.439 0.92498 0.489 0.0
Mg430 Mg 0.47429 0.11834 0.48708 0.0
O431 O 0.46212 0.05853 0.51919 0.0
Mg432 Mg 0.40383 0.02855 0.50743 0.0
Mg433 Mg 0.50496 0.01018 0.50272 0.0
O434 O 0.5477 0.96159 0.48626 0.0
Mg435 Mg 0.53631 0.90243 0.51975 0.0
Mg436 Mg 0.60611 0.99232 0.49608 0.0
C437 C 0.57198 0.09637 0.51594 0.0
C438 C 0.57277 0.05942 0.41678 0.0
O439 O 0.37292 0.0933 0.53983 0.0
O440 O 0.42541 0.15243 0.52584 0.0
O441 O 0.39948 0.07019 0.44076 0.0
O442 O 0.45426 0.12411 0.42277 0.0
O443 O 0.54481 0.12431 0.49691 0.0
O444 O 0.56306 0.05171 0.52617 0.0
C445 C 0.43535 0.95852 0.58746 0.0
O446 O 0.47638 0.96198 0.56965 0.0
O447 O 0.40458 0.98352 0.57142 0.0
O448 O 0.6358 0.9262 0.46484 0.0
O449 O 0.58449 0.8662 0.48128 0.0
O450 O 0.61224 0.9544 0.56184 0.0
C451 C 0.62191 0.88334 0.46198 0.0
O452 O 0.55799 0.90106 0.58377 0.0
O453 O 0.46545 0.89745 0.50962 0.0
C454 C 0.59311 0.92418 0.59077 0.0
O455 O 0.44782 0.96954 0.47837 0.0
O456 O 0.53245 0.05755 0.4359 0.0
O457 O 0.60368 0.03428 0.43207 0.0
C458 C 0.04316 0.08436 0.29577 0.0
C459 C 0.07631 0.06125 0.27207 0.0
C460 C 0.03484 0.07079 0.34008 0.0
C461 C 0.05661 0.03171 0.35945 0.0
H462 H 0.03227 0.11883 0.28293 0.0
H463 H 0.01561 0.09361 0.3595 0.0
S464 S 0.12092 0.94393 0.30317 0.0
N465 N 0.11141 0.98647 0.26492 0.0
N466 N 0.09621 0.95959 0.34821 0.0
C467 C 0.07822 0.00099 0.33299 0.0
C468 C 0.0857 0.01494 0.28807 0.0
C469 C 0.85569 0.12223 0.32316 0.0
C470 C 0.85838 0.17159 0.31222 0.0
C471 C 0.88134 0.10005 0.35493 0.0
C472 C 0.91114 0.12636 0.3763 0.0
H473 H 0.83146 0.10104 0.30928 0.0
H474 H 0.87617 0.06234 0.36421 0.0
S475 S 0.9348 0.25614 0.35408 0.0
N476 N 0.89611 0.24547 0.32165 0.0
N477 N 0.94499 0.2043 0.3802 0.0
C478 C 0.91669 0.17533 0.36276 0.0
C479 C 0.89005 0.1978 0.33111 0.0
C480 C 0.86016 0.94968 0.37706 0.0
C481 C 0.88248 0.93442 0.33987 0.0
C482 C 0.88173 0.95014 0.41518 0.0
C483 C 0.92586 0.93436 0.41727 0.0
H484 H 0.82446 0.95617 0.3781 0.0
H485 H 0.86275 0.95926 0.44382 0.0
S486 S 1.0014 0.90096 0.32629 0.0
N487 N 0.95306 0.91149 0.30569 0.0
N488 N 0.9936 0.91152 0.37687 0.0
C489 C 0.94992 0.92448 0.37893 0.0
C490 C 0.92832 0.92518 0.34019 0.0
C491 C 0.21079 0.86158 0.34477 0.0
C492 C 0.18743 0.8342 0.31883 0.0
C493 C 0.18992 0.87521 0.38289 0.0
C494 C 0.1452 0.86082 0.39719 0.0
H495 H 0.24602 0.87126 0.33618 0.0
H496 H 0.20927 0.89647 0.40163 0.0
S497 S 0.06964 0.7883 0.34044 0.0
N498 N 0.11743 0.79343 0.3095 0.0
N499 N 0.07794 0.81806 0.38124 0.0
C500 C 0.12135 0.83367 0.37108 0.0
C501 C 0.14246 0.82075 0.33184 0.0
C502 C 0.16527 0.88107 0.67102 0.0
C503 C 0.16012 0.83267 0.68618 0.0
C504 C 0.14164 0.90113 0.63671 0.0
C505 C 0.11145 0.87372 0.61663 0.0
H506 H 0.18986 0.90288 0.68379 0.0
H507 H 0.14857 0.93798 0.62469 0.0
S508 S 0.08232 0.74615 0.64861 0.0
N509 N 0.12008 0.75874 0.68136 0.0
N510 N 0.0751 0.79608 0.61793 0.0
C511 C 0.10379 0.82595 0.63385 0.0
C512 C 0.12833 0.80554 0.66823 0.0
C513 C 0.13827 0.05293 0.62708 0.0
C514 C 0.1458 0.09843 0.63846 0.0
C515 C 0.12196 0.04669 0.58739 0.0
C516 C 0.11291 0.08574 0.55758 0.0
H517 H 0.14251 0.02216 0.64993 0.0
H518 H 0.11297 0.01114 0.58174 0.0
S519 S 0.13621 0.21201 0.56952 0.0
N520 N 0.14957 0.18284 0.61498 0.0
N521 N 0.11951 0.17137 0.54036 0.0
C522 C 0.12462 0.13125 0.56729 0.0
C523 C 0.14075 0.13753 0.60777 0.0
C524 C 0.87651 0.16376 0.66296 0.0
C525 C 0.82974 0.15743 0.67224 0.0
C526 C 0.89738 0.15479 0.62332 0.0
C527 C 0.87238 0.13861 0.59156 0.0
H528 H 0.89704 0.17753 0.68578 0.0
H529 H 0.93362 0.15979 0.61794 0.0
S530 S 0.74892 0.11506 0.60052 0.0
N531 N 0.75893 0.13326 0.64687 0.0
N532 N 0.79837 0.1157 0.57247 0.0
C533 C 0.82565 0.13124 0.60074 0.0
C534 C 0.80432 0.14075 0.64103 0.0
C535 C 0.97882 0.93312 0.70472 0.0
C536 C 0.93738 0.94227 0.72702 0.0
C537 C 0.98547 0.94523 0.66007 0.0
C538 C 0.95307 0.97106 0.63812 0.0
H539 H 1.00176 0.90874 0.71982 0.0
H540 H 0.01421 0.93148 0.6426 0.0
S541 S 0.85938 0.03484 0.6887 0.0
N542 N 0.87824 1.00028 0.72865 0.0
N543 N 0.8913 0.02505 0.64537 0.0
C544 C 0.91943 0.99246 0.66259 0.0
C545 C 0.91254 0.97921 0.70762 0.0
C546 C 0.30157 0.16204 0.12257 0.0
C547 C 0.31527 0.20597 0.13446 0.0
C548 C 0.32913 0.13785 0.09476 0.0
C549 C 0.37175 0.15642 0.0774 0.0
H550 H 0.26988 0.14502 0.13612 0.0
H551 H 0.31725 0.10352 0.08798 0.0
S552 S 0.42086 0.27366 0.09319 0.0
N553 N 0.37242 0.26947 0.12315 0.0
N554 N 0.42426 0.22423 0.07053 0.0
C555 C 0.3848 0.20176 0.08686 0.0
C556 C 0.35657 0.22647 0.11537 0.0
C557 C 0.85428 0.38995 0.17439 0.0
C558 C 0.8551 0.34171 0.16788 0.0
C559 C 0.88111 0.42481 0.14769 0.0
C560 C 0.91127 0.41341 0.11366 0.0
H561 H 0.8311 0.40144 0.19925 0.0
H562 H 0.87672 0.46153 0.15262 0.0
S563 S 0.93006 0.29192 0.08507 0.0
N564 N 0.89105 0.28416 0.12603 0.0
N565 N 0.94222 0.3493 0.07693 0.0
C566 C 0.9145 0.365 0.10834 0.0
C567 C 0.88629 0.3294 0.13502 0.0
C568 C 0.63038 0.7945 0.16816 0.0
C569 C 0.65843 0.82453 0.18789 0.0
C570 C 0.59925 0.81286 0.13989 0.0
C571 C 0.59474 0.8619 0.13068 0.0
H572 H 0.63432 0.75654 0.17253 0.0
H573 H 0.58144 0.78867 0.12258 0.0
S574 S 0.65221 0.95489 0.18183 0.0
N575 N 0.67422 0.90511 0.20155 0.0
N576 N 0.61522 0.93964 0.14929 0.0
C577 C 0.61923 0.89189 0.15366 0.0
C578 C 0.65134 0.87327 0.18189 0.0
C579 C 0.15015 0.66113 0.05613 0.0
C580 C 0.13665 0.6529 0.1003 0.0
C581 C 0.13287 0.63264 0.02765 0.0
C582 C 0.10295 0.59447 0.04295 0.0
H583 H 0.17362 0.68996 0.04355 0.0
H584 H 0.14095 0.64192 0.9934 0.0
S585 S 0.05698 0.55865 0.15553 0.0
N586 N 0.09015 0.60522 0.15766 0.0
N587 N 0.06115 0.5493 0.10461 0.0
C588 C 0.09108 0.58453 0.08721 0.0
C589 C 0.10674 0.61466 0.11577 0.0
C590 C 0.32565 0.86278 0.95791 0.0
C591 C 0.31046 0.89284 0.92379 0.0
C592 C 0.36432 0.87485 0.97721 0.0
C593 C 0.38894 0.91735 0.96292 0.0
H594 H 0.31082 0.82748 0.96622 0.0
H595 H 0.37678 0.8492 1.00125 0.0
S596 S 0.35859 0.01042 0.87823 0.0
N597 N 0.31872 0.96896 0.88042 0.0
N598 N 0.39202 0.99145 0.91537 0.0
C599 C 0.371 0.94977 0.93199 0.0
C600 C 0.33132 0.93766 0.91296 0.0
C601 C 0.19523 0.30897 0.88679 0.0
C602 C 0.17251 0.27241 0.86963 0.0
C603 C 0.17265 0.33804 0.91404 0.0
C604 C 0.12627 0.33171 0.92579 0.0
H605 H 0.23071 0.31656 0.87779 0.0
H606 H 0.19166 0.36633 0.92518 0.0
S607 S 0.05147 0.23881 0.89222 0.0
N608 N 0.10146 0.22991 0.86822 0.0
N609 N 0.05865 0.2838 0.91993 0.0
C610 C 0.10346 0.29357 0.91071 0.0
C611 C 0.12665 0.26406 0.88267 0.0
C612 C 0.63585 0.13488 0.83408 0.0
C613 C 0.6813 0.14275 0.84242 0.0
C614 C 0.60605 0.10322 0.86195 0.0
C615 C 0.62064 0.07817 0.89926 0.0
H616 H 0.62334 0.15268 0.80531 0.0
H617 H 0.57212 0.09727 0.85352 0.0
S618 S 0.73454 0.09037 0.93856 0.0
N619 N 0.73753 0.12543 0.89282 0.0
N620 N 0.683 0.06715 0.94464 0.0
C621 C 0.6655 0.08757 0.90863 0.0
C622 C 0.69541 0.11933 0.88045 0.0
C623 C 0.82941 0.62559 0.83462 0.0
C624 C 0.84671 0.66532 0.80717 0.0
C625 C 0.85445 0.6044 0.86697 0.0
C626 C 0.89781 0.62209 0.87307 0.0
H627 H 0.79529 0.61264 0.83303 0.0
H628 H 0.83842 0.57553 0.88885 0.0
S629 S 0.96244 0.71804 0.80237 0.0
N630 N 0.91296 0.71599 0.78271 0.0
N631 N 0.95976 0.67641 0.84377 0.0
C632 C 0.91726 0.65859 0.84284 0.0
C633 C 0.89177 0.68011 0.80983 0.0
C634 C 0.11474 0.309 0.16488 0.0
C635 C 0.15245 0.33232 0.1781 0.0
C636 C 0.08668 0.33235 0.13619 0.0
C637 C 0.0953 0.37994 0.11946 0.0
H638 H 0.10792 0.27168 0.17509 0.0
H639 H 0.05997 0.312 0.12488 0.0
S640 S 0.184 0.45974 0.15024 0.0
N641 N 0.19277 0.40776 0.1769 0.0
N642 N 0.14007 0.45157 0.12307 0.0
C643 C 0.13046 0.40479 0.13525 0.0
C644 C 0.15905 0.38102 0.16448 0.0
C645 C 0.12738 0.67291 0.86661 0.0
C646 C 0.15474 0.66211 0.83022 0.0
C647 C 0.09643 0.63906 0.89058 0.0
C648 C 0.09137 0.59261 0.87955 0.0
H649 H 0.13082 0.70738 0.87755 0.0
H650 H 0.07848 0.64852 0.91958 0.0
S651 S 0.15159 0.54653 0.78564 0.0
N652 N 0.17132 0.6015 0.78296 0.0
N653 N 0.11489 0.53874 0.8284 0.0
C654 C 0.11703 0.58207 0.84237 0.0
C655 C 0.14804 0.61642 0.81771 0.0
C656 C 0.38838 0.16663 0.82006 0.0
C657 C 0.3414 0.16123 0.83096 0.0
C658 C 0.41949 0.15117 0.84981 0.0
C659 C 0.40432 0.13109 0.89161 0.0
H660 H 0.40106 0.18276 0.78829 0.0
H661 H 0.45521 0.1543 0.83994 0.0
S662 S 0.28463 0.11704 0.93773 0.0
N663 N 0.28169 0.13837 0.88706 0.0
N664 N 0.33881 0.11233 0.94356 0.0
C665 C 0.35723 0.12813 0.90317 0.0
C666 C 0.32611 0.14223 0.87271 0.0
C667 C 0.91436 0.36866 0.88166 0.0
C668 C 0.87797 0.33617 0.89495 0.0
C669 C 0.92292 0.40658 0.90414 0.0
C670 C 0.8978 0.41178 0.94277 0.0
H671 H 0.93894 0.3641 0.85546 0.0
H672 H 0.95353 0.42781 0.89449 0.0
S673 S 0.79367 0.34593 0.98835 0.0
N674 N 0.80959 0.32124 0.94478 0.0
N675 N 0.83203 0.38779 0.99105 0.0
C676 C 0.85944 0.38314 0.95509 0.0
C677 C 0.8483 0.34623 0.93046 0.0
C678 C 0.71454 0.83213 0.87755 0.0
C679 C 0.69753 0.79401 0.8583 0.0
C680 C 0.68986 0.85057 0.91137 0.0
C681 C 0.6469 0.83183 0.92763 0.0
H682 H 0.74663 0.84922 0.86543 0.0
H683 H 0.70404 0.88113 0.92357 0.0
S684 S 0.58965 0.72733 0.89261 0.0
N685 N 0.63688 0.73497 0.86091 0.0
N686 N 0.59056 0.76923 0.92472 0.0
C687 C 0.63069 0.79162 0.91058 0.0
C688 C 0.65592 0.77286 0.87591 0.0
C689 C 0.80556 0.67185 0.13306 0.0
C690 C 0.82485 0.7138 0.14453 0.0
C691 C 0.82586 0.64801 0.10024 0.0
C692 C 0.86651 0.66495 0.07704 0.0
H693 H 0.77475 0.65644 0.15019 0.0
H694 H 0.81001 0.61526 0.09392 0.0
S695 S 0.92883 0.77602 0.09137 0.0
N696 N 0.88541 0.77309 0.1279 0.0
N697 N 0.92366 0.72889 0.06596 0.0
C698 C 0.88511 0.70826 0.08671 0.0
C699 C 0.86431 0.7325 0.12038 0.0
C700 C 0.33783 0.85768 0.12508 0.0
C701 C 0.35101 0.83636 0.16437 0.0
C702 C 0.36631 0.89019 0.09796 0.0
C703 C 0.40966 0.90352 0.10842 0.0
H704 H 0.30476 0.84994 0.11534 0.0
H705 H 0.35354 0.90604 0.06854 0.0
S706 S 0.46274 0.8553 0.20574 0.0
N707 N 0.41243 0.82867 0.21119 0.0
N708 N 0.46555 0.89027 0.15973 0.0
C709 C 0.42446 0.88099 0.14653 0.0
C710 C 0.39524 0.84754 0.17458 0.0
C711 C 0.68916 0.05865 0.09103 0.0
C712 C 0.70751 0.10494 0.08211 0.0
C713 C 0.65271 0.04423 0.0698 0.0
C714 C 0.63305 0.07608 0.03966 0.0
H715 H 0.69976 0.03532 0.11778 0.0
H716 H 0.63725 0.00961 0.08019 0.0
S717 S 0.67701 0.19706 0.99737 0.0
N718 N 0.70983 0.17909 0.03539 0.0
N719 N 0.64099 0.15262 0.99559 0.0
C720 C 0.65507 0.12033 0.02658 0.0
C721 C 0.69261 0.13453 0.04771 0.0
C722 C 0.57007 0.57965 0.80189 0.0
C723 C 0.61289 0.60044 0.78937 0.0
C724 C 0.55692 0.56571 0.84543 0.0
C725 C 0.58611 0.57337 0.87699 0.0
H726 H 0.54689 0.57432 0.77806 0.0
H727 H 0.52457 0.5476 0.85429 0.0
S728 S 0.69842 0.63338 0.86137 0.0
N729 N 0.68254 0.63188 0.81263 0.0
N730 N 0.65666 0.60742 0.89388 0.0
C731 C 0.6277 0.59646 0.86503 0.0
C732 C 0.64151 0.60945 0.82126 0.0
C733 C 0.3793 0.70523 0.84853 0.0
C734 C 0.3568 0.67821 0.82148 0.0
C735 C 0.40573 0.68403 0.88002 0.0
C736 C 0.41005 0.63465 0.88663 0.0
H737 H 0.37539 0.74317 0.84623 0.0
H738 H 0.42065 0.70633 0.90102 0.0
S739 S 0.36174 0.54811 0.82194 0.0
N740 N 0.34396 0.59965 0.80116 0.0
N741 N 0.39244 0.55958 0.86105 0.0
C742 C 0.38952 0.60737 0.8585 0.0
C743 C 0.3633 0.62915 0.82577 0.0
C744 C 0.42348 0.40209 0.8508 0.0
C745 C 0.37793 0.4131 0.84987 0.0
C746 C 0.4465 0.40756 0.88699 0.0
C747 C 0.42507 0.42488 0.92346 0.0
H748 H 0.44032 0.3852 0.82498 0.0
H749 H 0.4812 0.39698 0.88679 0.0
S750 S 0.30789 0.46482 0.93476 0.0
N751 N 0.31306 0.44542 0.88709 0.0
N752 N 0.35743 0.4584 0.95429 0.0
C753 C 0.38077 0.43993 0.92152 0.0
C754 C 0.35691 0.4333 0.88494 0.0
C755 C 0.72795 0.34891 0.86727 0.0
C756 C 0.70436 0.33764 0.83254 0.0
C757 C 0.70596 0.36809 0.90227 0.0
C758 C 0.65956 0.37532 0.90409 0.0
H759 H 0.76341 0.34168 0.86796 0.0
H760 H 0.72486 0.37559 0.92868 0.0
S761 S 0.58356 0.35779 0.81932 0.0
N762 N 0.63288 0.34002 0.80048 0.0
N763 N 0.59163 0.3751 0.86644 0.0
C764 C 0.63616 0.36673 0.86861 0.0
C765 C 0.65856 0.34815 0.83274 0.0
C766 C 0.63012 0.30194 0.1645 0.0
C767 C 0.65855 0.32775 0.18747 0.0
C768 C 0.60583 0.32461 0.13216 0.0
C769 C 0.6099 0.37389 0.12087 0.0
H770 H 0.62824 0.26364 0.17023 0.0
H771 H 0.58623 0.30294 0.11397 0.0
S772 S 0.67725 0.45785 0.17389 0.0
N773 N 0.68652 0.40537 0.19934 0.0
N774 N 0.64215 0.44812 0.13775 0.0
C775 C 0.63621 0.40034 0.14543 0.0
C776 C 0.66019 0.37724 0.17897 0.0
C777 C 0.65801 0.62678 0.11589 0.0
C778 C 0.64247 0.6008 0.15551 0.0
C779 C 0.63932 0.61884 0.07765 0.0
C780 C 0.60555 0.5837 0.07785 0.0
H781 H 0.68347 0.65471 0.11482 0.0
H782 H 0.65054 0.64091 0.04808 0.0
S783 S 0.55323 0.5068 0.17365 0.0
N784 N 0.59121 0.53962 0.19288 0.0
N785 N 0.55711 0.52309 0.12127 0.0
C786 C 0.59075 0.55671 0.11728 0.0
C787 C 0.60896 0.56566 0.1561 0.0
C788 C 0.38384 0.66089 0.17609 0.0
C789 C 0.33983 0.64593 0.19162 0.0
C790 C 0.4023 0.65028 0.136 0.0
C791 C 0.37757 0.624 0.10993 0.0
H792 H 0.40298 0.68385 0.19352 0.0
H793 H 0.43618 0.66348 0.12524 0.0
S794 S 0.26226 0.57226 0.13895 0.0
N795 N 0.27303 0.6006 0.18005 0.0
N796 N 0.30779 0.57994 0.10488 0.0
C797 C 0.33435 0.60653 0.12644 0.0
C798 C 0.31554 0.6176 0.16722 0.0
C799 C 0.42502 0.47073 0.20185 0.0
C800 C 0.4257 0.42308 0.21914 0.0
C801 C 0.43856 0.48331 0.15837 0.0
C802 C 0.4566 0.4494 0.13311 0.0
H803 H 0.40494 0.4953 0.21859 0.0
H804 H 0.43132 0.51838 0.14367 0.0
S805 S 0.48845 0.32832 0.17188 0.0
N806 N 0.46216 0.34816 0.2143 0.0
N807 N 0.48936 0.37217 0.13242 0.0
C808 C 0.46853 0.40579 0.15343 0.0
C809 C 0.45422 0.39311 0.19762 0.0
C810 C 0.87838 0.73164 0.61816 0.0
C811 C 0.83134 0.72629 0.62535 0.0
C812 C 0.90275 0.70494 0.58984 0.0
C813 C 0.88094 0.67184 0.56782 0.0
H814 H 0.89677 0.75425 0.63652 0.0
H815 H 0.93913 0.7086 0.58697 0.0
S816 S 0.75745 0.65151 0.5696 0.0
N817 N 0.76331 0.69058 0.60375 0.0
N818 N 0.80901 0.64037 0.55082 0.0
C819 C 0.83364 0.66903 0.57228 0.0
C820 C 0.80889 0.69632 0.6009 0.0
C821 C 0.38804 0.83775 0.64024 0.0
C822 C 0.3589 0.84929 0.67514 0.0
C823 C 0.41725 0.8722 0.61483 0.0
C824 C 0.41863 0.92008 0.62274 0.0
H825 H 0.38734 0.80205 0.63155 0.0
H826 H 0.43665 0.86172 0.58705 0.0
S827 S 0.35195 0.9691 0.71147 0.0
N828 N 0.33634 0.91258 0.71755 0.0
N829 N 0.38951 0.97635 0.66936 0.0
C830 C 0.39117 0.93155 0.65851 0.0
C831 C 0.36195 0.89661 0.68469 0.0
C832 C 0.1613 0.3628 0.66991 0.0
C833 C 0.15252 0.31644 0.68946 0.0
C834 C 0.13322 0.38402 0.64046 0.0
C835 C 0.09453 0.36038 0.6293 0.0
H836 H 0.19146 0.3822 0.67551 0.0
H837 H 0.14403 0.41836 0.62407 0.0
S838 S 0.0529 0.24027 0.67571 0.0
N839 N 0.09946 0.24875 0.69907 0.0
N840 N 0.0469 0.28916 0.6432 0.0
C841 C 0.08347 0.31514 0.65079 0.0
C842 C 0.11235 0.29314 0.68094 0.0
C843 C 0.58682 0.16014 0.6092 0.0
C844 C 0.62575 0.18861 0.59637 0.0
C845 C 0.57321 0.12615 0.58441 0.0
C846 C 0.59671 0.12083 0.54484 0.0
H847 H 0.56797 0.16264 0.63986 0.0
H848 H 0.54264 0.10533 0.59534 0.0
S849 S 0.69804 0.18949 0.49442 0.0
N850 N 0.68729 0.21011 0.54115 0.0
N851 N 0.65824 0.14886 0.4918 0.0
C852 C 0.63426 0.15057 0.53025 0.0
C853 C 0.64944 0.18415 0.55655 0.0
C854 C 0.83518 0.43903 0.40643 0.0
C855 C 0.81259 0.39482 0.4171 0.0
C856 C 0.87056 0.45232 0.42958 0.0
C857 C 0.88486 0.42142 0.46369 0.0
H858 H 0.82867 0.46118 0.37731 0.0
H859 H 0.88957 0.48475 0.41785 0.0
S860 S 0.8293 0.30687 0.51035 0.0
N861 N 0.80132 0.32422 0.46845 0.0
N862 N 0.86778 0.349 0.51222 0.0
C863 C 0.85871 0.37992 0.47796 0.0
C864 C 0.82244 0.36669 0.45458 0.0
C865 C 0.6549 0.77898 0.39989 0.0
C866 C 0.68662 0.79968 0.36706 0.0
C867 C 0.63541 0.80571 0.43143 0.0
C868 C 0.64699 0.85419 0.43168 0.0
H869 H 0.64461 0.74213 0.40096 0.0
H870 H 0.61045 0.78828 0.45546 0.0
S871 S 0.72779 0.92597 0.35242 0.0
N872 N 0.72799 0.87275 0.33673 0.0
N873 N 0.69242 0.92144 0.39596 0.0
C874 C 0.67923 0.87499 0.39951 0.0
C875 C 0.69864 0.84822 0.36728 0.0
C876 C 0.19332 0.61742 0.3794 0.0
C877 C 0.17803 0.64652 0.34491 0.0
C878 C 0.16428 0.58485 0.40577 0.0
C879 C 0.11802 0.57926 0.39944 0.0
H880 H 0.22838 0.61914 0.38587 0.0
H881 H 0.17878 0.56358 0.43169 0.0
S882 S 0.05936 0.65009 0.31598 0.0
N883 N 0.11221 0.66999 0.3073 0.0
N884 N 0.0578 0.60848 0.35742 0.0
C885 C 0.10157 0.60945 0.36619 0.0
C886 C 0.13146 0.64286 0.3388 0.0
C887 C 0.37976 0.18817 0.32469 0.0
C888 C 0.34007 0.16576 0.3147 0.0
C889 C 0.4075 0.1657 0.35409 0.0
C890 C 0.39664 0.11992 0.37492 0.0
H891 H 0.38857 0.22429 0.31126 0.0
H892 H 0.43611 0.18568 0.36244 0.0
S893 S 0.30116 0.04235 0.354 0.0
N894 N 0.29478 0.0926 0.3235 0.0
N895 N 0.34687 0.05034 0.37874 0.0
C896 C 0.35917 0.09556 0.36245 0.0
C897 C 0.33089 0.11848 0.33241 0.0
C898 C 0.63722 0.84252 0.6786 0.0
C899 C 0.68072 0.86199 0.68095 0.0
C900 C 0.60662 0.86554 0.65288 0.0
C901 C 0.61829 0.90902 0.62836 0.0
H902 H 0.6273 0.80779 0.69484 0.0
H903 H 0.5751 0.8472 0.6497 0.0
S904 S 0.72322 0.981 0.63228 0.0
N905 N 0.7306 0.93129 0.66322 0.0
N906 N 0.6728 0.97551 0.61505 0.0
C907 C 0.65947 0.93176 0.63468 0.0
C908 C 0.69083 0.90798 0.66088 0.0
C909 C 0.62849 0.17495 0.3652 0.0
C910 C 0.65459 0.16116 0.3294 0.0
C911 C 0.59656 0.14352 0.39041 0.0
C912 C 0.5893 0.09675 0.38116 0.0
H913 H 0.63386 0.20978 0.37487 0.0
H914 H 0.58007 0.15488 0.41928 0.0
S915 S 0.64576 0.04344 0.28951 0.0
N916 N 0.66777 0.09771 0.28446 0.0
N917 N 0.60924 0.03925 0.33238 0.0
C918 C 0.61336 0.08342 0.34428 0.0
C919 C 0.6455 0.11531 0.31838 0.0
C920 C 0.85608 0.62639 0.33633 0.0
C921 C 0.85678 0.6755 0.32464 0.0
C922 C 0.88851 0.6052 0.36147 0.0
C923 C 0.92261 0.63221 0.37695 0.0
H924 H 0.82943 0.6042 0.32719 0.0
H925 H 0.88486 0.56747 0.37135 0.0
S926 S 0.94289 0.76169 0.35092 0.0
N927 N 0.89797 0.75016 0.3262 0.0
N928 N 0.95765 0.71028 0.37481 0.0
C929 C 0.92586 0.68087 0.36274 0.0
C930 C 0.89313 0.70252 0.33648 0.0
C931 C 0.3701 0.83062 0.45045 0.0
C932 C 0.39252 0.82845 0.40965 0.0
C933 C 0.38236 0.86551 0.47554 0.0
C934 C 0.41591 0.8999 0.4595 0.0
H935 H 0.34253 0.80595 0.46251 0.0
H936 H 0.36645 0.86502 0.5079 0.0
S937 S 0.48644 0.90683 0.35596 0.0
N938 N 0.45174 0.86095 0.35573 0.0
N939 N 0.47294 0.92816 0.40178 0.0
C940 C 0.43836 0.89792 0.41878 0.0
C941 C 0.42732 0.86152 0.39424 0.0
C942 C 0.13958 0.27486 0.37623 0.0
C943 C 0.18507 0.28657 0.36328 0.0
C944 C 0.11656 0.29602 0.40946 0.0
C945 C 0.13823 0.3296 0.43102 0.0
H946 H 0.12093 0.25115 0.35913 0.0
H947 H 0.08095 0.2876 0.41672 0.0
S948 S 0.25959 0.36517 0.41453 0.0
N949 N 0.25265 0.32865 0.37839 0.0
N950 N 0.20963 0.36824 0.4408 0.0
C951 C 0.18468 0.33862 0.42056 0.0
C952 C 0.20802 0.31718 0.3867 0.0
C953 C 0.29944 0.16853 0.6291 0.0
C954 C 0.31867 0.20892 0.64349 0.0
C955 C 0.32067 0.14651 0.59561 0.0
C956 C 0.36207 0.16404 0.5745 0.0
H957 H 0.26807 0.1527 0.64458 0.0
H958 H 0.30502 0.11456 0.58724 0.0
S959 S 0.42392 0.27279 0.59583 0.0
N960 N 0.3795 0.26819 0.6313 0.0
N961 N 0.41946 0.22762 0.5678 0.0
C962 C 0.38031 0.2064 0.5866 0.0
C963 C 0.35863 0.22864 0.62112 0.0
C964 C 0.83136 0.37326 0.63521 0.0
C965 C 0.84908 0.34691 0.67015 0.0
C966 C 0.85782 0.40686 0.6072 0.0
C967 C 0.90381 0.41607 0.61207 0.0
H968 H 0.79641 0.36826 0.62939 0.0
H969 H 0.84172 0.4257 0.58097 0.0
S970 S 0.968 0.35551 0.69712 0.0
N971 N 0.9167 0.33156 0.70741 0.0
N972 N 0.96635 0.39453 0.65407 0.0
C973 C 0.92261 0.38927 0.64614 0.0
C974 C 0.89532 0.35502 0.67531 0.0
C975 C 0.19699 0.62249 0.5525 0.0
C976 C 0.20267 0.60173 0.5944 0.0
C977 C 0.16133 0.60761 0.53031 0.0
C978 C 0.13061 0.57141 0.54934 0.0
H979 H 0.21708 0.65358 0.53874 0.0
H980 H 0.15588 0.62675 0.49941 0.0
S981 S 0.13262 0.50521 0.65788 0.0
N982 N 0.17698 0.54161 0.65281 0.0
N983 N 0.10982 0.51387 0.61166 0.0
C984 C 0.13853 0.54769 0.58964 0.0
C985 C 0.17483 0.56269 0.61197 0.0
loop_
_geom_bond_atom_site_label_1
_geom_bond_atom_site_label_2
_geom_bond_distance
_geom_bond_site_symmetry_2
_ccdc_geom_bond_type
C0 O16 1.251 . S
C0 O18 1.254 . S
N1 C2 1.333 . S
N1 C6 1.307 . S
N1 Zn7 2.020 . S
C2 N1 1.333 . S
C2 C3 1.379 . S
C2 H20 0.952 . S
C3 C2 1.379 . S
C3 C4 1.390 . S
C3 H30 0.949 . S
C4 C3 1.390 . S
C4 C5 1.357 . S
C5 C4 1.357 . S
C5 C6 1.370 . S
C5 H31 0.950 . S
C6 N1 1.307 . S
C6 C5 1.370 . S
C6 H24 0.948 . S
Zn7 N1 2.020 . S
Zn7 O16 2.039 . S
Zn7 O22 2.034 . S
Zn7 O26 2.025 . S
Zn7 O28 2.024 . S
C8 O27 1.246 . S
C8 O28 1.249 . S
N9 C10 1.307 . S
N9 C11 1.333 . S
N9 Zn15 2.020 . S
C10 N9 1.307 . S
C10 C14 1.370 . S
C10 H21 0.948 . S
C11 N9 1.333 . S
C11 C12 1.379 . S
C11 H19 0.952 . S
C12 C11 1.379 . S
C12 C13 1.390 . S
C12 H32 0.949 . S
C13 C12 1.390 . S
C13 C14 1.357 . S
C14 C10 1.370 . S
C14 C13 1.357 . S
C14 H33 0.950 . S
Zn15 N9 2.020 . S
Zn15 O18 2.025 . S
Zn15 O23 2.024 . S
Zn15 O25 2.039 . S
Zn15 O27 2.034 . S
O16 C0 1.251 . S
O16 Zn7 2.039 . S
C17 O22 1.246 . S
C17 O23 1.249 . S
O18 C0 1.254 . S
O18 Zn15 2.025 . S
H19 C11 0.952 . S
H20 C2 0.952 . S
H21 C10 0.948 . S
O22 Zn7 2.034 . S
O22 C17 1.246 . S
O23 Zn15 2.024 . S
O23 C17 1.249 . S
H24 C6 0.948 . S
O25 Zn15 2.039 . S
O25 C29 1.251 . S
O26 Zn7 2.025 . S
O26 C29 1.254 . S
O27 C8 1.246 . S
O27 Zn15 2.034 . S
O28 Zn7 2.024 . S
O28 C8 1.249 . S
C29 O25 1.251 . S
C29 O26 1.254 . S
H30 C3 0.949 . S
H31 C5 0.950 . S
H32 C12 0.949 . S
H33 C14 0.950 . S
C34 O50 1.251 . S
C34 O52 1.254 . S
N35 C36 1.333 . S
N35 C40 1.307 . S
N35 Zn41 2.020 . S
C36 N35 1.333 . S
C36 C37 1.379 . S
C36 H54 0.952 . S
C37 C36 1.379 . S
C37 C38 1.390 . S
C37 H64 0.949 . S
C38 C37 1.390 . S
C38 C39 1.357 . S
C39 C38 1.357 . S
C39 C40 1.370 . S
C39 H65 0.950 . S
C40 N35 1.307 . S
C40 C39 1.370 . S
C40 H58 0.948 . S
Zn41 N35 2.020 . S
Zn41 O50 2.039 . S
Zn41 O56 2.034 . S
Zn41 O60 2.025 . S
Zn41 O62 2.024 . S
C42 O61 1.246 . S
C42 O62 1.249 . S
N43 C44 1.307 . S
N43 C45 1.333 . S
N43 Zn49 2.020 . S
C44 N43 1.307 . S
C44 C48 1.370 . S
C44 H55 0.948 . S
C45 N43 1.333 . S
C45 C46 1.379 . S
C45 H53 0.952 . S
C46 C45 1.379 . S
C46 C47 1.390 . S
C46 H66 0.949 . S
C47 C46 1.390 . S
C47 C48 1.357 . S
C48 C44 1.370 . S
C48 C47 1.357 . S
C48 H67 0.950 . S
Zn49 N43 2.020 . S
Zn49 O52 2.025 . S
Zn49 O57 2.024 . S
Zn49 O59 2.039 . S
Zn49 O61 2.034 . S
O50 C34 1.251 . S
O50 Zn41 2.039 . S
C51 O56 1.246 . S
C51 O57 1.249 . S
O52 C34 1.254 . S
O52 Zn49 2.025 . S
H53 C45 0.952 . S
H54 C36 0.952 . S
H55 C44 0.948 . S
O56 Zn41 2.034 . S
O56 C51 1.246 . S
O57 Zn49 2.024 . S
O57 C51 1.249 . S
H58 C40 0.948 . S
O59 Zn49 2.039 . S
O59 C63 1.251 . S
O60 Zn41 2.025 . S
O60 C63 1.254 . S
O61 C42 1.246 . S
O61 Zn49 2.034 . S
O62 Zn41 2.024 . S
O62 C42 1.249 . S
C63 O59 1.251 . S
C63 O60 1.254 . S
H64 C37 0.949 . S
H65 C39 0.950 . S
H66 C46 0.949 . S
H67 C48 0.950 . S
C68 O84 1.251 . S
C68 O86 1.254 . S
N69 C70 1.333 . S
N69 C74 1.307 . S
N69 Zn75 2.020 . S
C70 N69 1.333 . S
C70 C71 1.379 . S
C70 H88 0.952 . S
C71 C70 1.379 . S
C71 C72 1.390 . S
C71 H98 0.949 . S
C72 C71 1.390 . S
C72 C73 1.357 . S
C73 C72 1.357 . S
C73 C74 1.370 . S
C73 H99 0.950 . S
C74 N69 1.307 . S
C74 C73 1.370 . S
C74 H92 0.948 . S
Zn75 N69 2.020 . S
Zn75 O84 2.039 . S
Zn75 O90 2.034 . S
Zn75 O94 2.025 . S
Zn75 O96 2.024 . S
C76 O95 1.246 . S
C76 O96 1.249 . S
N77 C78 1.307 . S
N77 C79 1.333 . S
N77 Zn83 2.020 . S
C78 N77 1.307 . S
C78 C82 1.370 . S
C78 H89 0.948 . S
C79 N77 1.333 . S
C79 C80 1.379 . S
C79 H87 0.952 . S
C80 C79 1.379 . S
C80 C81 1.390 . S
C80 H100 0.949 . S
C81 C80 1.390 . S
C81 C82 1.357 . S
C82 C78 1.370 . S
C82 C81 1.357 . S
C82 H101 0.950 . S
Zn83 N77 2.020 . S
Zn83 O86 2.025 . S
Zn83 O91 2.024 . S
Zn83 O93 2.039 . S
Zn83 O95 2.034 . S
O84 C68 1.251 . S
O84 Zn75 2.039 . S
C85 O90 1.246 . S
C85 O91 1.249 . S
O86 C68 1.254 . S
O86 Zn83 2.025 . S
H87 C79 0.952 . S
H88 C70 0.952 . S
H89 C78 0.948 . S
O90 Zn75 2.034 . S
O90 C85 1.246 . S
O91 Zn83 2.024 . S
O91 C85 1.249 . S
H92 C74 0.948 . S
O93 Zn83 2.039 . S
O93 C97 1.251 . S
O94 Zn75 2.025 . S
O94 C97 1.254 . S
O95 C76 1.246 . S
O95 Zn83 2.034 . S
O96 Zn75 2.024 . S
O96 C76 1.249 . S
C97 O93 1.251 . S
C97 O94 1.254 . S
H98 C71 0.949 . S
H99 C73 0.950 . S
H100 C80 0.949 . S
H101 C82 0.950 . S
C102 O118 1.251 . S
C102 O120 1.254 . S
N103 C104 1.333 . S
N103 C108 1.307 . S
N103 Zn109 2.020 . S
C104 N103 1.333 . S
C104 C105 1.379 . S
C104 H122 0.952 . S
C105 C104 1.379 . S
C105 C106 1.390 . S
C105 H132 0.949 . S
C106 C105 1.390 . S
C106 C107 1.357 . S
C107 C106 1.357 . S
C107 C108 1.370 . S
C107 H133 0.950 . S
C108 N103 1.307 . S
C108 C107 1.370 . S
C108 H126 0.948 . S
Zn109 N103 2.020 . S
Zn109 O118 2.039 . S
Zn109 O124 2.034 . S
Zn109 O128 2.025 . S
Zn109 O130 2.024 . S
C110 O129 1.246 . S
C110 O130 1.249 . S
N111 C112 1.307 . S
N111 C113 1.333 . S
N111 Zn117 2.020 . S
C112 N111 1.307 . S
C112 C116 1.370 . S
C112 H123 0.948 . S
C113 N111 1.333 . S
C113 C114 1.379 . S
C113 H121 0.952 . S
C114 C113 1.379 . S
C114 C115 1.390 . S
C114 H134 0.949 . S
C115 C114 1.390 . S
C115 C116 1.357 . S
C116 C112 1.370 . S
C116 C115 1.357 . S
C116 H135 0.950 . S
Zn117 N111 2.020 . S
Zn117 O120 2.025 . S
Zn117 O125 2.024 . S
Zn117 O127 2.039 . S
Zn117 O129 2.034 . S
O118 C102 1.251 . S
O118 Zn109 2.039 . S
C119 O124 1.246 . S
C119 O125 1.249 . S
O120 C102 1.254 . S
O120 Zn117 2.025 . S
H121 C113 0.952 . S
H122 C104 0.952 . S
H123 C112 0.948 . S
O124 Zn109 2.034 . S
O124 C119 1.246 . S
O125 Zn117 2.024 . S
O125 C119 1.249 . S
H126 C108 0.948 . S
O127 Zn117 2.039 . S
O127 C131 1.251 . S
O128 Zn109 2.025 . S
O128 C131 1.254 . S
O129 C110 1.246 . S
O129 Zn117 2.034 . S
O130 Zn109 2.024 . S
O130 C110 1.249 . S
C131 O127 1.251 . S
C131 O128 1.254 . S
H132 C105 0.949 . S
H133 C107 0.950 . S
H134 C114 0.949 . S
H135 C116 0.950 . S
C136 O152 1.251 . S
C136 O154 1.254 . S
N137 C138 1.333 . S
N137 C142 1.307 . S
N137 Zn143 2.020 . S
C138 N137 1.333 . S
C138 C139 1.379 . S
C138 H156 0.952 . S
C139 C138 1.379 . S
C139 C140 1.390 . S
C139 H166 0.949 . S
C140 C139 1.390 . S
C140 C141 1.357 . S
C141 C140 1.357 . S
C141 C142 1.370 . S
C141 H167 0.950 . S
C142 N137 1.307 . S
C142 C141 1.370 . S
C142 H160 0.948 . S
Zn143 N137 2.020 . S
Zn143 O152 2.039 . S
Zn143 O158 2.034 . S
Zn143 O162 2.025 . S
Zn143 O164 2.024 . S
C144 O163 1.246 . S
C144 O164 1.249 . S
N145 C146 1.307 . S
N145 C147 1.333 . S
N145 Zn151 2.020 . S
C146 N145 1.307 . S
C146 C150 1.370 . S
C146 H157 0.948 . S
C147 N145 1.333 . S
C147 C148 1.379 . S
C147 H155 0.952 . S
C148 C147 1.379 . S
C148 C149 1.390 . S
C148 H168 0.949 . S
C149 C148 1.390 . S
C149 C150 1.357 . S
C150 C146 1.370 . S
C150 C149 1.357 . S
C150 H169 0.950 . S
Zn151 N145 2.020 . S
Zn151 O154 2.025 . S
Zn151 O159 2.024 . S
Zn151 O161 2.039 . S
Zn151 O163 2.034 . S
O152 C136 1.251 . S
O152 Zn143 2.039 . S
C153 O158 1.246 . S
C153 O159 1.249 . S
O154 C136 1.254 . S
O154 Zn151 2.025 . S
H155 C147 0.952 . S
H156 C138 0.952 . S
H157 C146 0.948 . S
O158 Zn143 2.034 . S
O158 C153 1.246 . S
O159 Zn151 2.024 . S
O159 C153 1.249 . S
H160 C142 0.948 . S
O161 Zn151 2.039 . S
O161 C165 1.251 . S
O162 Zn143 2.025 . S
O162 C165 1.254 . S
O163 C144 1.246 . S
O163 Zn151 2.034 . S
O164 Zn143 2.024 . S
O164 C144 1.249 . S
C165 O161 1.251 . S
C165 O162 1.254 . S
H166 C139 0.949 . S
H167 C141 0.950 . S
H168 C148 0.949 . S
H169 C150 0.950 . S
C170 O186 1.251 . S
C170 O188 1.254 . S
N171 C172 1.333 . S
N171 C176 1.307 . S
N171 Zn177 2.020 . S
C172 N171 1.333 . S
C172 C173 1.379 . S
C172 H190 0.952 . S
C173 C172 1.379 . S
C173 C174 1.390 . S
C173 H200 0.949 . S
C174 C173 1.390 . S
C174 C175 1.357 . S
C175 C174 1.357 . S
C175 C176 1.370 . S
C175 H201 0.950 . S
C176 N171 1.307 . S
C176 C175 1.370 . S
C176 H194 0.948 . S
Zn177 N171 2.020 . S
Zn177 O186 2.039 . S
Zn177 O192 2.034 . S
Zn177 O196 2.025 . S
Zn177 O198 2.024 . S
C178 O197 1.246 . S
C178 O198 1.249 . S
N179 C180 1.307 . S
N179 C181 1.333 . S
N179 Zn185 2.020 . S
C180 N179 1.307 . S
C180 C184 1.370 . S
C180 H191 0.948 . S
C181 N179 1.333 . S
C181 C182 1.379 . S
C181 H189 0.952 . S
C182 C181 1.379 . S
C182 C183 1.390 . S
C182 H202 0.949 . S
C183 C182 1.390 . S
C183 C184 1.357 . S
C184 C180 1.370 . S
C184 C183 1.357 . S
C184 H203 0.950 . S
Zn185 N179 2.020 . S
Zn185 O188 2.025 . S
Zn185 O193 2.024 . S
Zn185 O195 2.039 . S
Zn185 O197 2.034 . S
O186 C170 1.251 . S
O186 Zn177 2.039 . S
C187 O192 1.246 . S
C187 O193 1.249 . S
O188 C170 1.254 . S
O188 Zn185 2.025 . S
H189 C181 0.952 . S
H190 C172 0.952 . S
H191 C180 0.948 . S
O192 Zn177 2.034 . S
O192 C187 1.246 . S
O193 Zn185 2.024 . S
O193 C187 1.249 . S
H194 C176 0.948 . S
O195 Zn185 2.039 . S
O195 C199 1.251 . S
O196 Zn177 2.025 . S
O196 C199 1.254 . S
O197 C178 1.246 . S
O197 Zn185 2.034 . S
O198 Zn177 2.024 . S
O198 C178 1.249 . S
C199 O195 1.251 . S
C199 O196 1.254 . S
H200 C173 0.949 . S
H201 C175 0.950 . S
H202 C182 0.949 . S
H203 C184 0.950 . S
C204 O220 1.251 . S
C204 O222 1.254 . S
N205 C206 1.333 . S
N205 C210 1.307 . S
N205 Zn211 2.020 . S
C206 N205 1.333 . S
C206 C207 1.379 . S
C206 H224 0.952 . S
C207 C206 1.379 . S
C207 C208 1.390 . S
C207 H234 0.949 . S
C208 C207 1.390 . S
C208 C209 1.357 . S
C209 C208 1.357 . S
C209 C210 1.370 . S
C209 H235 0.950 . S
C210 N205 1.307 . S
C210 C209 1.370 . S
C210 H228 0.948 . S
Zn211 N205 2.020 . S
Zn211 O220 2.039 . S
Zn211 O226 2.034 . S
Zn211 O230 2.025 . S
Zn211 O232 2.024 . S
C212 O231 1.246 . S
C212 O232 1.249 . S
N213 C214 1.307 . S
N213 C215 1.333 . S
N213 Zn219 2.020 . S
C214 N213 1.307 . S
C214 C218 1.370 . S
C214 H225 0.948 . S
C215 N213 1.333 . S
C215 C216 1.379 . S
C215 H223 0.952 . S
C216 C215 1.379 . S
C216 C217 1.390 . S
C216 H236 0.949 . S
C217 C216 1.390 . S
C217 C218 1.357 . S
C218 C214 1.370 . S
C218 C217 1.357 . S
C218 H237 0.950 . S
Zn219 N213 2.020 . S
Zn219 O222 2.025 . S
Zn219 O227 2.024 . S
Zn219 O229 2.039 . S
Zn219 O231 2.034 . S
O220 C204 1.251 . S
O220 Zn211 2.039 . S
C221 O226 1.246 . S
C221 O227 1.249 . S
O222 C204 1.254 . S
O222 Zn219 2.025 . S
H223 C215 0.952 . S
H224 C206 0.952 . S
H225 C214 0.948 . S
O226 Zn211 2.034 . S
O226 C221 1.246 . S
O227 Zn219 2.024 . S
O227 C221 1.249 . S
H228 C210 0.948 . S
O229 Zn219 2.039 . S
O229 C233 1.251 . S
O230 Zn211 2.025 . S
O230 C233 1.254 . S
O231 C212 1.246 . S
O231 Zn219 2.034 . S
O232 Zn211 2.024 . S
O232 C212 1.249 . S
C233 O229 1.251 . S
C233 O230 1.254 . S
H234 C207 0.949 . S
H235 C209 0.950 . S
H236 C216 0.949 . S
H237 C218 0.950 . S
C238 O254 1.251 . S
C238 O256 1.254 . S
N239 C240 1.333 . S
N239 C244 1.307 . S
N239 Zn245 2.020 . S
C240 N239 1.333 . S
C240 C241 1.379 . S
C240 H258 0.952 . S
C241 C240 1.379 . S
C241 C242 1.390 . S
C241 H268 0.949 . S
C242 C241 1.390 . S
C242 C243 1.357 . S
C243 C242 1.357 . S
C243 C244 1.370 . S
C243 H269 0.950 . S
C244 N239 1.307 . S
C244 C243 1.370 . S
C244 H262 0.948 . S
Zn245 N239 2.020 . S
Zn245 O254 2.039 . S
Zn245 O260 2.034 . S
Zn245 O264 2.025 . S
Zn245 O266 2.024 . S
C246 O265 1.246 . S
C246 O266 1.249 . S
N247 C248 1.307 . S
N247 C249 1.333 . S
N247 Zn253 2.020 . S
C248 N247 1.307 . S
C248 C252 1.370 . S
C248 H259 0.948 . S
C249 N247 1.333 . S
C249 C250 1.379 . S
C249 H257 0.952 . S
C250 C249 1.379 . S
C250 C251 1.390 . S
C250 H270 0.949 . S
C251 C250 1.390 . S
C251 C252 1.357 . S
C252 C248 1.370 . S
C252 C251 1.357 . S
C252 H271 0.950 . S
Zn253 N247 2.020 . S
Zn253 O256 2.025 . S
Zn253 O261 2.024 . S
Zn253 O263 2.039 . S
Zn253 O265 2.034 . S
O254 C238 1.251 . S
O254 Zn245 2.039 . S
C255 O260 1.246 . S
C255 O261 1.249 . S
O256 C238 1.254 . S
O256 Zn253 2.025 . S
H257 C249 0.952 . S
H258 C240 0.952 . S
H259 C248 0.948 . S
O260 Zn245 2.034 . S
O260 C255 1.246 . S
O261 Zn253 2.024 . S
O261 C255 1.249 . S
H262 C244 0.948 . S
O263 Zn253 2.039 . S
O263 C267 1.251 . S
O264 Zn245 2.025 . S
O264 C267 1.254 . S
O265 C246 1.246 . S
O265 Zn253 2.034 . S
O266 Zn245 2.024 . S
O266 C246 1.249 . S
C267 O263 1.251 . S
C267 O264 1.254 . S
H268 C241 0.949 . S
H269 C243 0.950 . S
H270 C250 0.949 . S
H271 C252 0.950 . S
C272 O284 1.241 . S
C272 O285 1.280 . S
C273 O286 1.277 . S
C273 O287 1.245 . S
C274 O298 1.247 . S
C274 O300 1.289 . S
Mg275 O276 1.926 . S
Mg275 O285 1.984 . S
Mg275 O287 1.988 . S
Mg275 O288 2.061 1_655 S
O276 Mg275 1.926 . S
O276 Mg277 1.986 . S
O276 Mg278 1.917 1_655 S
Mg277 O276 1.986 . S
Mg277 O284 2.042 . S
Mg277 O286 2.041 . S
Mg277 O292 2.038 1_545 S
Mg277 O300 2.238 1_545 S
Mg278 O276 1.917 1_455 S
Mg278 O279 1.917 1_545 S
Mg278 O289 2.106 . S
Mg278 O291 2.079 1_445 S
Mg278 O300 2.106 1_445 S
Mg278 O301 2.079 . S
O279 Mg278 1.917 1_565 S
O279 Mg280 1.926 . S
O279 Mg281 1.986 . S
Mg280 O279 1.926 . S
Mg280 O294 1.984 . S
Mg280 O297 1.988 . S
Mg280 O298 2.061 1_455 S
Mg281 O279 1.986 . S
Mg281 O289 2.238 1_565 S
Mg281 O293 2.042 . S
Mg281 O295 2.041 . S
Mg281 O302 2.038 1_565 S
C282 O288 1.247 . S
C282 O289 1.289 . S
C283 O301 1.245 . S
C283 O302 1.274 . S
O284 C272 1.241 . S
O284 Mg277 2.042 . S
O285 C272 1.280 . S
O285 Mg275 1.984 . S
O286 C273 1.277 . S
O286 Mg277 2.041 . S
O287 C273 1.245 . S
O287 Mg275 1.988 . S
O288 Mg275 2.061 1_455 S
O288 C282 1.247 . S
O289 Mg278 2.106 . S
O289 Mg281 2.238 1_545 S
O289 C282 1.289 . S
C290 O291 1.245 . S
C290 O292 1.274 . S
O291 Mg278 2.079 1_665 S
O291 C290 1.245 . S
O292 Mg277 2.038 1_565 S
O292 C290 1.274 . S
O293 Mg281 2.042 . S
O293 C296 1.241 . S
O294 Mg280 1.984 . S
O294 C296 1.280 . S
O295 Mg281 2.041 . S
O295 C299 1.277 . S
C296 O293 1.241 . S
C296 O294 1.280 . S
O297 Mg280 1.988 . S
O297 C299 1.245 . S
O298 C274 1.247 . S
O298 Mg280 2.061 1_655 S
C299 O295 1.277 . S
C299 O297 1.245 . S
O300 C274 1.289 . S
O300 Mg277 2.238 1_565 S
O300 Mg278 2.106 1_665 S
O301 Mg278 2.079 . S
O301 C283 1.245 . S
O302 Mg281 2.038 1_545 S
O302 C283 1.274 . S
C303 O315 1.241 . S
C303 O316 1.280 . S
C304 O317 1.277 . S
C304 O318 1.245 . S
C305 O329 1.247 . S
C305 O331 1.289 . S
Mg306 O307 1.926 . S
Mg306 O316 1.984 . S
Mg306 O318 1.988 1_554 S
Mg306 O319 2.061 . S
O307 Mg306 1.926 . S
O307 Mg308 1.986 . S
O307 Mg309 1.917 . S
Mg308 O307 1.986 . S
Mg308 O315 2.042 . S
Mg308 O317 2.041 1_554 S
Mg308 O323 2.038 1_545 S
Mg308 O331 2.238 1_544 S
Mg309 O307 1.917 . S
Mg309 O310 1.916 1_544 S
Mg309 O320 2.107 . S
Mg309 O322 2.080 1_545 S
Mg309 O331 2.105 1_544 S
Mg309 O332 2.077 1_554 S
O310 Mg309 1.916 1_566 S
O310 Mg311 1.926 . S
O310 Mg312 1.986 . S
Mg311 O310 1.926 . S
Mg311 O325 1.984 . S
Mg311 O328 1.988 1_556 S
Mg311 O329 2.061 . S
Mg312 O310 1.986 . S
Mg312 O320 2.238 1_566 S
Mg312 O324 2.042 . S
Mg312 O326 2.041 1_556 S
Mg312 O333 2.038 1_565 S
C313 O319 1.247 . S
C313 O320 1.289 . S
C314 O332 1.245 . S
C314 O333 1.274 . S
O315 C303 1.241 . S
O315 Mg308 2.042 . S
O316 C303 1.280 . S
O316 Mg306 1.984 . S
O317 C304 1.277 . S
O317 Mg308 2.041 1_556 S
O318 C304 1.245 . S
O318 Mg306 1.988 1_556 S
O319 Mg306 2.061 . S
O319 C313 1.247 . S
O320 Mg309 2.107 . S
O320 Mg312 2.238 1_544 S
O320 C313 1.289 . S
C321 O322 1.245 . S
C321 O323 1.274 . S
O322 Mg309 2.080 1_565 S
O322 C321 1.245 . S
O323 Mg308 2.038 1_565 S
O323 C321 1.274 . S
O324 Mg312 2.042 . S
O324 C327 1.241 . S
O325 Mg311 1.984 . S
O325 C327 1.280 . S
O326 Mg312 2.041 1_554 S
O326 C330 1.277 . S
C327 O324 1.241 . S
C327 O325 1.280 . S
O328 Mg311 1.988 1_554 S
O328 C330 1.245 . S
O329 C305 1.247 . S
O329 Mg311 2.061 . S
C330 O326 1.277 . S
C330 O328 1.245 . S
O331 C305 1.289 . S
O331 Mg308 2.238 1_566 S
O331 Mg309 2.105 1_566 S
O332 Mg309 2.077 1_556 S
O332 C314 1.245 . S
O333 Mg312 2.038 1_545 S
O333 C314 1.274 . S
C334 O346 1.241 . S
C334 O347 1.280 . S
C335 O348 1.277 . S
C335 O349 1.245 . S
C336 O360 1.247 . S
C336 O362 1.289 . S
Mg337 O338 1.926 . S
Mg337 O347 1.984 . S
Mg337 O349 1.988 1_554 S
Mg337 O350 2.061 1_655 S
O338 Mg337 1.926 . S
O338 Mg339 1.986 . S
O338 Mg340 1.917 1_655 S
Mg339 O338 1.986 . S
Mg339 O346 2.042 . S
Mg339 O348 2.041 1_554 S
Mg339 O354 2.038 . S
Mg339 O362 2.238 1_554 S
Mg340 O338 1.917 1_455 S
Mg340 O341 1.916 1_554 S
Mg340 O351 2.107 . S
Mg340 O353 2.080 1_455 S
Mg340 O362 2.105 1_454 S
Mg340 O363 2.077 1_554 S
O341 Mg340 1.916 1_556 S
O341 Mg342 1.926 . S
O341 Mg343 1.986 . S
Mg342 O341 1.926 . S
Mg342 O356 1.984 . S
Mg342 O359 1.988 1_556 S
Mg342 O360 2.061 1_455 S
Mg343 O341 1.986 . S
Mg343 O351 2.238 1_556 S
Mg343 O355 2.042 . S
Mg343 O357 2.041 1_556 S
Mg343 O364 2.038 . S
C344 O350 1.247 . S
C344 O351 1.289 . S
C345 O363 1.245 . S
C345 O364 1.274 . S
O346 C334 1.241 . S
O346 Mg339 2.042 . S
O347 C334 1.280 . S
O347 Mg337 1.984 . S
O348 C335 1.277 . S
O348 Mg339 2.041 1_556 S
O349 C335 1.245 . S
O349 Mg337 1.988 1_556 S
O350 Mg337 2.061 1_455 S
O350 C344 1.247 . S
O351 Mg340 2.107 . S
O351 Mg343 2.238 1_554 S
O351 C344 1.289 . S
C352 O353 1.245 . S
C352 O354 1.274 . S
O353 Mg340 2.080 1_655 S
O353 C352 1.245 . S
O354 Mg339 2.038 . S
O354 C352 1.274 . S
O355 Mg343 2.042 . S
O355 C358 1.241 . S
O356 Mg342 1.984 . S
O356 C358 1.280 . S
O357 Mg343 2.041 1_554 S
O357 C361 1.277 . S
C358 O355 1.241 . S
C358 O356 1.280 . S
O359 Mg342 1.988 1_554 S
O359 C361 1.245 . S
O360 C336 1.247 . S
O360 Mg342 2.061 1_655 S
C361 O357 1.277 . S
C361 O359 1.245 . S
O362 C336 1.289 . S
O362 Mg339 2.238 1_556 S
O362 Mg340 2.105 1_656 S
O363 Mg340 2.077 1_556 S
O363 C345 1.245 . S
O364 Mg343 2.038 . S
O364 C345 1.274 . S
C365 O377 1.241 . S
C365 O378 1.280 . S
C366 O379 1.277 . S
C366 O380 1.245 . S
C367 O391 1.247 . S
C367 O393 1.289 . S
Mg368 O369 1.926 . S
Mg368 O378 1.984 . S
Mg368 O380 1.988 1_554 S
Mg368 O381 2.061 . S
O369 Mg368 1.926 . S
O369 Mg370 1.986 . S
O369 Mg371 1.917 . S
Mg370 O369 1.986 . S
Mg370 O377 2.042 . S
Mg370 O379 2.041 1_554 S
Mg370 O385 2.038 . S
Mg370 O393 2.238 1_554 S
Mg371 O369 1.917 . S
Mg371 O372 1.916 1_554 S
Mg371 O382 2.107 . S
Mg371 O384 2.080 . S
Mg371 O393 2.105 1_554 S
Mg371 O394 2.077 1_554 S
O372 Mg371 1.916 1_556 S
O372 Mg373 1.926 . S
O372 Mg374 1.986 . S
Mg373 O372 1.926 . S
Mg373 O387 1.984 . S
Mg373 O390 1.988 1_556 S
Mg373 O391 2.061 . S
Mg374 O372 1.986 . S
Mg374 O382 2.238 1_556 S
Mg374 O386 2.042 . S
Mg374 O388 2.041 1_556 S
Mg374 O395 2.038 . S
C375 O381 1.247 . S
C375 O382 1.289 . S
C376 O394 1.245 . S
C376 O395 1.274 . S
O377 C365 1.241 . S
O377 Mg370 2.042 . S
O378 C365 1.280 . S
O378 Mg368 1.984 . S
O379 C366 1.277 . S
O379 Mg370 2.041 1_556 S
O380 C366 1.245 . S
O380 Mg368 1.988 1_556 S
O381 Mg368 2.061 . S
O381 C375 1.247 . S
O382 Mg371 2.107 . S
O382 Mg374 2.238 1_554 S
O382 C375 1.289 . S
C383 O384 1.245 . S
C383 O385 1.274 . S
O384 Mg371 2.080 . S
O384 C383 1.245 . S
O385 Mg370 2.038 . S
O385 C383 1.274 . S
O386 Mg374 2.042 . S
O386 C389 1.241 . S
O387 Mg373 1.984 . S
O387 C389 1.280 . S
O388 Mg374 2.041 1_554 S
O388 C392 1.277 . S
C389 O386 1.241 . S
C389 O387 1.280 . S
O390 Mg373 1.988 1_554 S
O390 C392 1.245 . S
O391 C367 1.247 . S
O391 Mg373 2.061 . S
C392 O388 1.277 . S
C392 O390 1.245 . S
O393 C367 1.289 . S
O393 Mg370 2.238 1_556 S
O393 Mg371 2.105 1_556 S
O394 Mg371 2.077 1_556 S
O394 C376 1.245 . S
O395 Mg374 2.038 . S
O395 C376 1.274 . S
C396 O408 1.241 . S
C396 O409 1.280 . S
C397 O410 1.277 . S
C397 O411 1.245 . S
C398 O422 1.247 . S
C398 O424 1.289 . S
Mg399 O400 1.926 . S
Mg399 O409 1.984 . S
Mg399 O411 1.988 . S
Mg399 O412 2.061 1_655 S
O400 Mg399 1.926 . S
O400 Mg401 1.986 . S
O400 Mg402 1.917 1_655 S
Mg401 O400 1.986 . S
Mg401 O408 2.042 . S
Mg401 O410 2.041 . S
Mg401 O416 2.038 . S
Mg401 O424 2.238 . S
Mg402 O400 1.917 1_455 S
Mg402 O403 1.917 . S
Mg402 O413 2.106 . S
Mg402 O415 2.079 1_455 S
Mg402 O424 2.106 1_455 S
Mg402 O425 2.079 . S
O403 Mg402 1.917 . S
O403 Mg404 1.926 . S
O403 Mg405 1.986 . S
Mg404 O403 1.926 . S
Mg404 O418 1.984 . S
Mg404 O421 1.988 . S
Mg404 O422 2.061 1_455 S
Mg405 O403 1.986 . S
Mg405 O413 2.238 . S
Mg405 O417 2.042 . S
Mg405 O419 2.041 . S
Mg405 O426 2.038 . S
C406 O412 1.247 . S
C406 O413 1.289 . S
C407 O425 1.245 . S
C407 O426 1.274 . S
O408 C396 1.241 . S
O408 Mg401 2.042 . S
O409 C396 1.280 . S
O409 Mg399 1.984 . S
O410 C397 1.277 . S
O410 Mg401 2.041 . S
O411 C397 1.245 . S
O411 Mg399 1.988 . S
O412 Mg399 2.061 1_455 S
O412 C406 1.247 . S
O413 Mg402 2.106 . S
O413 Mg405 2.238 . S
O413 C406 1.289 . S
C414 O415 1.245 . S
C414 O416 1.274 . S
O415 Mg402 2.079 1_655 S
O415 C414 1.245 . S
O416 Mg401 2.038 . S
O416 C414 1.274 . S
O417 Mg405 2.042 . S
O417 C420 1.241 . S
O418 Mg404 1.984 . S
O418 C420 1.280 . S
O419 Mg405 2.041 . S
O419 C423 1.277 . S
C420 O417 1.241 . S
C420 O418 1.280 . S
O421 Mg404 1.988 . S
O421 C423 1.245 . S
O422 C398 1.247 . S
O422 Mg404 2.061 1_655 S
C423 O419 1.277 . S
C423 O421 1.245 . S
O424 C398 1.289 . S
O424 Mg401 2.238 . S
O424 Mg402 2.106 1_655 S
O425 Mg402 2.079 . S
O425 C407 1.245 . S
O426 Mg405 2.038 . S
O426 C407 1.274 . S
C427 O439 1.241 . S
C427 O440 1.280 . S
C428 O441 1.277 . S
C428 O442 1.245 . S
C429 O453 1.247 . S
C429 O455 1.289 . S
Mg430 O431 1.926 . S
Mg430 O440 1.984 . S
Mg430 O442 1.988 . S
Mg430 O443 2.061 . S
O431 Mg430 1.926 . S
O431 Mg432 1.986 . S
O431 Mg433 1.917 . S
Mg432 O431 1.986 . S
Mg432 O439 2.042 . S
Mg432 O441 2.041 . S
Mg432 O447 2.038 1_545 S
Mg432 O455 2.238 1_545 S
Mg433 O431 1.917 . S
Mg433 O434 1.917 1_545 S
Mg433 O444 2.106 . S
Mg433 O446 2.079 1_545 S
Mg433 O455 2.106 1_545 S
Mg433 O456 2.079 . S
O434 Mg433 1.917 1_565 S
O434 Mg435 1.926 . S
O434 Mg436 1.986 . S
Mg435 O434 1.926 . S
Mg435 O449 1.984 . S
Mg435 O452 1.988 . S
Mg435 O453 2.061 . S
Mg436 O434 1.986 . S
Mg436 O444 2.238 1_565 S
Mg436 O448 2.042 . S
Mg436 O450 2.041 . S
Mg436 O457 2.038 1_565 S
C437 O443 1.247 . S
C437 O444 1.289 . S
C438 O456 1.245 . S
C438 O457 1.274 . S
O439 C427 1.241 . S
O439 Mg432 2.042 . S
O440 C427 1.280 . S
O440 Mg430 1.984 . S
O441 C428 1.277 . S
O441 Mg432 2.041 . S
O442 C428 1.245 . S
O442 Mg430 1.988 . S
O443 Mg430 2.061 . S
O443 C437 1.247 . S
O444 Mg433 2.106 . S
O444 Mg436 2.238 1_545 S
O444 C437 1.289 . S
C445 O446 1.245 . S
C445 O447 1.274 . S
O446 Mg433 2.079 1_565 S
O446 C445 1.245 . S
O447 Mg432 2.038 1_565 S
O447 C445 1.274 . S
O448 Mg436 2.042 . S
O448 C451 1.241 . S
O449 Mg435 1.984 . S
O449 C451 1.280 . S
O450 Mg436 2.041 . S
O450 C454 1.277 . S
C451 O448 1.241 . S
C451 O449 1.280 . S
O452 Mg435 1.988 . S
O452 C454 1.245 . S
O453 C429 1.247 . S
O453 Mg435 2.061 . S
C454 O450 1.277 . S
C454 O452 1.245 . S
O455 C429 1.289 . S
O455 Mg432 2.238 1_565 S
O455 Mg433 2.106 1_565 S
O456 Mg433 2.079 . S
O456 C438 1.245 . S
O457 Mg436 2.038 1_545 S
O457 C438 1.274 . S
C458 C459 1.369 . S
C458 C460 1.419 . S
C458 H462 0.930 . S
C459 C458 1.369 . S
C459 C468 1.429 . S
C460 C458 1.419 . S
C460 C461 1.363 . S
C460 H463 0.929 . S
C461 C460 1.363 . S
C461 C467 1.428 . S
H462 C458 0.930 . S
H463 C460 0.929 . S
S464 N465 1.613 . S
S464 N466 1.610 . S
N465 S464 1.613 . S
N465 C468 1.350 . S
N466 S464 1.610 . S
N466 C467 1.351 . S
C467 C461 1.428 . S
C467 N466 1.351 . S
C467 C468 1.434 . S
C468 C459 1.429 . S
C468 N465 1.350 . S
C468 C467 1.434 . S
C469 C470 1.369 . S
C469 C471 1.419 . S
C469 H473 0.930 . S
C470 C469 1.369 . S
C470 C479 1.429 . S
C471 C469 1.419 . S
C471 C472 1.363 . S
C471 H474 0.929 . S
C472 C471 1.363 . S
C472 C478 1.428 . S
H473 C469 0.930 . S
H474 C471 0.929 . S
S475 N476 1.613 . S
S475 N477 1.610 . S
N476 S475 1.613 . S
N476 C479 1.350 . S
N477 S475 1.610 . S
N477 C478 1.351 . S
C478 C472 1.428 . S
C478 N477 1.351 . S
C478 C479 1.434 . S
C479 C470 1.429 . S
C479 N476 1.350 . S
C479 C478 1.434 . S
C480 C481 1.369 . S
C480 C482 1.419 . S
C480 H484 0.930 . S
C481 C480 1.369 . S
C481 C490 1.429 . S
C482 C480 1.419 . S
C482 C483 1.363 . S
C482 H485 0.929 . S
C483 C482 1.363 . S
C483 C489 1.428 . S
H484 C480 0.930 . S
H485 C482 0.929 . S
S486 N487 1.613 . S
S486 N488 1.610 . S
N487 S486 1.613 . S
N487 C490 1.350 . S
N488 S486 1.610 . S
N488 C489 1.351 . S
C489 C483 1.428 . S
C489 N488 1.351 . S
C489 C490 1.434 . S
C490 C481 1.429 . S
C490 N487 1.350 . S
C490 C489 1.434 . S
C491 C492 1.369 . S
C491 C493 1.419 . S
C491 H495 0.930 . S
C492 C491 1.369 . S
C492 C501 1.429 . S
C493 C491 1.419 . S
C493 C494 1.363 . S
C493 H496 0.929 . S
C494 C493 1.363 . S
C494 C500 1.428 . S
H495 C491 0.930 . S
H496 C493 0.929 . S
S497 N498 1.613 . S
S497 N499 1.610 . S
N498 S497 1.613 . S
N498 C501 1.350 . S
N499 S497 1.610 . S
N499 C500 1.351 . S
C500 C494 1.428 . S
C500 N499 1.351 . S
C500 C501 1.434 . S
C501 C492 1.429 . S
C501 N498 1.350 . S
C501 C500 1.434 . S
C502 C503 1.369 . S
C502 C504 1.419 . S
C502 H506 0.930 . S
C503 C502 1.369 . S
C503 C512 1.429 . S
C504 C502 1.419 . S
C504 C505 1.363 . S
C504 H507 0.929 . S
C505 C504 1.363 . S
C505 C511 1.428 . S
H506 C502 0.930 . S
H507 C504 0.929 . S
S508 N509 1.613 . S
S508 N510 1.610 . S
N509 S508 1.613 . S
N509 C512 1.350 . S
N510 S508 1.610 . S
N510 C511 1.351 . S
C511 C505 1.428 . S
C511 N510 1.351 . S
C511 C512 1.434 . S
C512 C503 1.429 . S
C512 N509 1.350 . S
C512 C511 1.434 . S
C513 C514 1.369 . S
C513 C515 1.419 . S
C513 H517 0.930 . S
C514 C513 1.369 . S
C514 C523 1.429 . S
C515 C513 1.419 . S
C515 C516 1.363 . S
C515 H518 0.929 . S
C516 C515 1.363 . S
C516 C522 1.428 . S
H517 C513 0.930 . S
H518 C515 0.929 . S
S519 N520 1.613 . S
S519 N521 1.610 . S
N520 S519 1.613 . S
N520 C523 1.350 . S
N521 S519 1.610 . S
N521 C522 1.351 . S
C522 C516 1.428 . S
C522 N521 1.351 . S
C522 C523 1.434 . S
C523 C514 1.429 . S
C523 N520 1.350 . S
C523 C522 1.434 . S
C524 C525 1.369 . S
C524 C526 1.419 . S
C524 H528 0.930 . S
C525 C524 1.369 . S
C525 C534 1.429 . S
C526 C524 1.419 . S
C526 C527 1.363 . S
C526 H529 0.929 . S
C527 C526 1.363 . S
C527 C533 1.428 . S
H528 C524 0.930 . S
H529 C526 0.929 . S
S530 N531 1.613 . S
S530 N532 1.610 . S
N531 S530 1.613 . S
N531 C534 1.350 . S
N532 S530 1.610 . S
N532 C533 1.351 . S
C533 C527 1.428 . S
C533 N532 1.351 . S
C533 C534 1.434 . S
C534 C525 1.429 . S
C534 N531 1.350 . S
C534 C533 1.434 . S
C535 C536 1.369 . S
C535 C537 1.419 . S
C535 H539 0.930 . S
C536 C535 1.369 . S
C536 C545 1.429 . S
C537 C535 1.419 . S
C537 C538 1.363 . S
C537 H540 0.929 . S
C538 C537 1.363 . S
C538 C544 1.428 . S
H539 C535 0.930 . S
H540 C537 0.929 . S
S541 N542 1.613 . S
S541 N543 1.610 . S
N542 S541 1.613 . S
N542 C545 1.350 . S
N543 S541 1.610 . S
N543 C544 1.351 . S
C544 C538 1.428 . S
C544 N543 1.351 . S
C544 C545 1.434 . S
C545 C536 1.429 . S
C545 N542 1.350 . S
C545 C544 1.434 . S
C546 C547 1.369 . S
C546 C548 1.419 . S
C546 H550 0.930 . S
C547 C546 1.369 . S
C547 C556 1.429 . S
C548 C546 1.419 . S
C548 C549 1.363 . S
C548 H551 0.929 . S
C549 C548 1.363 . S
C549 C555 1.428 . S
H550 C546 0.930 . S
H551 C548 0.929 . S
S552 N553 1.613 . S
S552 N554 1.610 . S
N553 S552 1.613 . S
N553 C556 1.350 . S
N554 S552 1.610 . S
N554 C555 1.351 . S
C555 C549 1.428 . S
C555 N554 1.351 . S
C555 C556 1.434 . S
C556 C547 1.429 . S
C556 N553 1.350 . S
C556 C555 1.434 . S
C557 C558 1.369 . S
C557 C559 1.419 . S
C557 H561 0.930 . S
C558 C557 1.369 . S
C558 C567 1.429 . S
C559 C557 1.419 . S
C559 C560 1.363 . S
C559 H562 0.929 . S
C560 C559 1.363 . S
C560 C566 1.428 . S
H561 C557 0.930 . S
H562 C559 0.929 . S
S563 N564 1.613 . S
S563 N565 1.610 . S
N564 S563 1.613 . S
N564 C567 1.350 . S
N565 S563 1.610 . S
N565 C566 1.351 . S
C566 C560 1.428 . S
C566 N565 1.351 . S
C566 C567 1.434 . S
C567 C558 1.429 . S
C567 N564 1.350 . S
C567 C566 1.434 . S
C568 C569 1.369 . S
C568 C570 1.419 . S
C568 H572 0.930 . S
C569 C568 1.369 . S
C569 C578 1.429 . S
C570 C568 1.419 . S
C570 C571 1.363 . S
C570 H573 0.929 . S
C571 C570 1.363 . S
C571 C577 1.428 . S
H572 C568 0.930 . S
H573 C570 0.929 . S
S574 N575 1.613 . S
S574 N576 1.610 . S
N575 S574 1.613 . S
N575 C578 1.350 . S
N576 S574 1.610 . S
N576 C577 1.351 . S
C577 C571 1.428 . S
C577 N576 1.351 . S
C577 C578 1.434 . S
C578 C569 1.429 . S
C578 N575 1.350 . S
C578 C577 1.434 . S
C579 C580 1.369 . S
C579 C581 1.419 . S
C579 H583 0.930 . S
C580 C579 1.369 . S
C580 C589 1.429 . S
C581 C579 1.419 . S
C581 C582 1.363 . S
C581 H584 0.929 . S
C582 C581 1.363 . S
C582 C588 1.428 . S
H583 C579 0.930 . S
H584 C581 0.929 . S
S585 N586 1.613 1_655 S
S585 N587 1.602 1_655 S
N586 S585 1.613 1_455 S
N586 C589 1.350 . S
N587 S585 1.602 1_455 S
N587 C588 1.376 . S
C588 C582 1.428 . S
C588 N587 1.376 . S
C588 C589 1.434 . S
C589 C580 1.429 . S
C589 N586 1.350 . S
C589 C588 1.434 . S
C590 C591 1.369 . S
C590 C592 1.419 . S
C590 H594 0.930 . S
C591 C590 1.369 . S
C591 C600 1.429 . S
C592 C590 1.419 . S
C592 C593 1.363 . S
C592 H595 0.929 . S
C593 C592 1.363 . S
C593 C599 1.428 . S
H594 C590 0.930 . S
H595 C592 0.929 . S
S596 N597 1.613 . S
S596 N598 1.610 . S
N597 S596 1.613 . S
N597 C600 1.350 . S
N598 S596 1.610 . S
N598 C599 1.351 . S
C599 C593 1.428 . S
C599 N598 1.351 . S
C599 C600 1.434 . S
C600 C591 1.429 . S
C600 N597 1.350 . S
C600 C599 1.434 . S
C601 C602 1.369 . S
C601 C603 1.419 . S
C601 H605 0.930 . S
C602 C601 1.369 . S
C602 C611 1.429 . S
C603 C601 1.419 . S
C603 C604 1.363 . S
C603 H606 0.929 . S
C604 C603 1.363 . S
C604 C610 1.428 . S
H605 C601 0.930 . S
H606 C603 0.929 . S
S607 N608 1.613 . S
S607 N609 1.610 . S
N608 S607 1.613 . S
N608 C611 1.350 . S
N609 S607 1.610 . S
N609 C610 1.351 . S
C610 C604 1.428 . S
C610 N609 1.351 . S
C610 C611 1.434 . S
C611 C602 1.429 . S
C611 N608 1.350 . S
C611 C610 1.434 . S
C612 C613 1.369 . S
C612 C614 1.419 . S
C612 H616 0.930 . S
C613 C612 1.369 . S
C613 C622 1.429 . S
C614 C612 1.419 . S
C614 C615 1.363 . S
C614 H617 0.929 . S
C615 C614 1.363 . S
C615 C621 1.428 . S
H616 C612 0.930 . S
H617 C614 0.929 . S
S618 N619 1.613 . S
S618 N620 1.610 . S
N619 S618 1.613 . S
N619 C622 1.350 . S
N620 S618 1.610 . S
N620 C621 1.351 . S
C621 C615 1.428 . S
C621 N620 1.351 . S
C621 C622 1.434 . S
C622 C613 1.429 . S
C622 N619 1.350 . S
C622 C621 1.434 . S
C623 C624 1.369 . S
C623 C625 1.419 . S
C623 H627 0.930 . S
C624 C623 1.369 . S
C624 C633 1.429 . S
C625 C623 1.419 . S
C625 C626 1.363 . S
C625 H628 0.929 . S
C626 C625 1.363 . S
C626 C632 1.428 . S
H627 C623 0.930 . S
H628 C625 0.929 . S
S629 N630 1.613 . S
S629 N631 1.610 . S
N630 S629 1.613 . S
N630 C633 1.350 . S
N631 S629 1.610 . S
N631 C632 1.351 . S
C632 C626 1.428 . S
C632 N631 1.351 . S
C632 C633 1.434 . S
C633 C624 1.429 . S
C633 N630 1.350 . S
C633 C632 1.434 . S
C634 C635 1.369 . S
C634 C636 1.419 . S
C634 H638 0.930 . S
C635 C634 1.369 . S
C635 C644 1.429 . S
C636 C634 1.419 . S
C636 C637 1.363 . S
C636 H639 0.929 . S
C637 C636 1.363 . S
C637 C643 1.428 . S
H638 C634 0.930 . S
H639 C636 0.929 . S
S640 N641 1.613 . S
S640 N642 1.610 . S
N641 S640 1.613 . S
N641 C644 1.350 . S
N642 S640 1.610 . S
N642 C643 1.351 . S
C643 C637 1.428 . S
C643 N642 1.351 . S
C643 C644 1.434 . S
C644 C635 1.429 . S
C644 N641 1.350 . S
C644 C643 1.434 . S
C645 C646 1.369 . S
C645 C647 1.419 . S
C645 H649 0.930 . S
C646 C645 1.369 . S
C646 C655 1.429 . S
C647 C645 1.419 . S
C647 C648 1.363 . S
C647 H650 0.929 . S
C648 C647 1.363 . S
C648 C654 1.428 . S
H649 C645 0.930 . S
H650 C647 0.929 . S
S651 N652 1.613 . S
S651 N653 1.610 . S
N652 S651 1.613 . S
N652 C655 1.350 . S
N653 S651 1.610 . S
N653 C654 1.351 . S
C654 C648 1.428 . S
C654 N653 1.351 . S
C654 C655 1.434 . S
C655 C646 1.429 . S
C655 N652 1.350 . S
C655 C654 1.434 . S
C656 C657 1.369 . S
C656 C658 1.419 . S
C656 H660 0.930 . S
C657 C656 1.369 . S
C657 C666 1.429 . S
C658 C656 1.419 . S
C658 C659 1.363 . S
C658 H661 0.929 . S
C659 C658 1.363 . S
C659 C665 1.428 . S
H660 C656 0.930 . S
H661 C658 0.929 . S
S662 N663 1.613 . S
S662 N664 1.610 . S
N663 S662 1.613 . S
N663 C666 1.350 . S
N664 S662 1.610 . S
N664 C665 1.351 . S
C665 C659 1.428 . S
C665 N664 1.351 . S
C665 C666 1.434 . S
C666 C657 1.429 . S
C666 N663 1.350 . S
C666 C665 1.434 . S
C667 C668 1.369 . S
C667 C669 1.419 . S
C667 H671 0.930 . S
C668 C667 1.369 . S
C668 C677 1.429 . S
C669 C667 1.419 . S
C669 C670 1.363 . S
C669 H672 0.929 . S
C670 C669 1.363 . S
C670 C676 1.428 . S
H671 C667 0.930 . S
H672 C669 0.929 . S
S673 N674 1.613 1_554 S
S673 N675 1.610 1_554 S
N674 S673 1.613 1_556 S
N674 C677 1.350 . S
N675 S673 1.610 1_556 S
N675 C676 1.351 . S
C676 C670 1.428 . S
C676 N675 1.351 . S
C676 C677 1.434 . S
C677 C668 1.429 . S
C677 N674 1.350 . S
C677 C676 1.434 . S
C678 C679 1.369 . S
C678 C680 1.419 . S
C678 H682 0.930 . S
C679 C678 1.369 . S
C679 C688 1.429 . S
C680 C678 1.419 . S
C680 C681 1.363 . S
C680 H683 0.929 . S
C681 C680 1.363 . S
C681 C687 1.428 . S
H682 C678 0.930 . S
H683 C680 0.929 . S
S684 N685 1.613 . S
S684 N686 1.610 . S
N685 S684 1.613 . S
N685 C688 1.350 . S
N686 S684 1.610 . S
N686 C687 1.351 . S
C687 C681 1.428 . S
C687 N686 1.351 . S
C687 C688 1.434 . S
C688 C679 1.429 . S
C688 N685 1.350 . S
C688 C687 1.434 . S
C689 C690 1.369 . S
C689 C691 1.419 . S
C689 H693 0.930 . S
C690 C689 1.369 . S
C690 C699 1.429 . S
C691 C689 1.419 . S
C691 C692 1.363 . S
C691 H694 0.929 . S
C692 C691 1.363 . S
C692 C698 1.428 . S
H693 C689 0.930 . S
H694 C691 0.929 . S
S695 N696 1.613 . S
S695 N697 1.610 . S
N696 S695 1.613 . S
N696 C699 1.350 . S
N697 S695 1.610 . S
N697 C698 1.351 . S
C698 C692 1.428 . S
C698 N697 1.351 . S
C698 C699 1.434 . S
C699 C690 1.429 . S
C699 N696 1.350 . S
C699 C698 1.434 . S
C700 C701 1.369 . S
C700 C702 1.419 . S
C700 H704 0.930 . S
C701 C700 1.369 . S
C701 C710 1.429 . S
C702 C700 1.419 . S
C702 C703 1.363 . S
C702 H705 0.929 . S
C703 C702 1.363 . S
C703 C709 1.428 . S
H704 C700 0.930 . S
H705 C702 0.929 . S
S706 N707 1.613 . S
S706 N708 1.610 . S
N707 S706 1.613 . S
N707 C710 1.350 . S
N708 S706 1.610 . S
N708 C709 1.351 . S
C709 C703 1.428 . S
C709 N708 1.351 . S
C709 C710 1.434 . S
C710 C701 1.429 . S
C710 N707 1.350 . S
C710 C709 1.434 . S
C711 C712 1.369 . S
C711 C713 1.419 . S
C711 H715 0.930 . S
C712 C711 1.369 . S
C712 C721 1.429 . S
C713 C711 1.419 . S
C713 C714 1.363 . S
C713 H716 0.929 . S
C714 C713 1.363 . S
C714 C720 1.428 . S
H715 C711 0.930 . S
H716 C713 0.929 . S
S717 N718 1.613 . S
S717 N719 1.610 . S
N718 S717 1.613 . S
N718 C721 1.350 . S
N719 S717 1.610 . S
N719 C720 1.351 . S
C720 C714 1.428 . S
C720 N719 1.351 . S
C720 C721 1.434 . S
C721 C712 1.429 . S
C721 N718 1.350 . S
C721 C720 1.434 . S
C722 C723 1.369 . S
C722 C724 1.419 . S
C722 H726 0.930 . S
C723 C722 1.369 . S
C723 C732 1.429 . S
C724 C722 1.419 . S
C724 C725 1.363 . S
C724 H727 0.929 . S
C725 C724 1.363 . S
C725 C731 1.428 . S
H726 C722 0.930 . S
H727 C724 0.929 . S
S728 N729 1.613 . S
S728 N730 1.610 . S
N729 S728 1.613 . S
N729 C732 1.350 . S
N730 S728 1.610 . S
N730 C731 1.351 . S
C731 C725 1.428 . S
C731 N730 1.351 . S
C731 C732 1.434 . S
C732 C723 1.429 . S
C732 N729 1.350 . S
C732 C731 1.434 . S
C733 C734 1.369 . S
C733 C735 1.419 . S
C733 H737 0.930 . S
C734 C733 1.369 . S
C734 C743 1.429 . S
C735 C733 1.419 . S
C735 C736 1.363 . S
C735 H738 0.929 . S
C736 C735 1.363 . S
C736 C742 1.428 . S
H737 C733 0.930 . S
H738 C735 0.929 . S
S739 N740 1.613 . S
S739 N741 1.610 . S
N740 S739 1.613 . S
N740 C743 1.350 . S
N741 S739 1.610 . S
N741 C742 1.351 . S
C742 C736 1.428 . S
C742 N741 1.351 . S
C742 C743 1.434 . S
C743 C734 1.429 . S
C743 N740 1.350 . S
C743 C742 1.434 . S
C744 C745 1.369 . S
C744 C746 1.419 . S
C744 H748 0.930 . S
C745 C744 1.369 . S
C745 C754 1.429 . S
C746 C744 1.419 . S
C746 C747 1.363 . S
C746 H749 0.929 . S
C747 C746 1.363 . S
C747 C753 1.428 . S
H748 C744 0.930 . S
H749 C746 0.929 . S
S750 N751 1.613 . S
S750 N752 1.610 . S
N751 S750 1.613 . S
N751 C754 1.350 . S
N752 S750 1.610 . S
N752 C753 1.351 . S
C753 C747 1.428 . S
C753 N752 1.351 . S
C753 C754 1.434 . S
C754 C745 1.429 . S
C754 N751 1.350 . S
C754 C753 1.434 . S
C755 C756 1.369 . S
C755 C757 1.419 . S
C755 H759 0.930 . S
C756 C755 1.369 . S
C756 C765 1.429 . S
C757 C755 1.419 . S
C757 C758 1.363 . S
C757 H760 0.929 . S
C758 C757 1.363 . S
C758 C764 1.428 . S
H759 C755 0.930 . S
H760 C757 0.929 . S
S761 N762 1.613 . S
S761 N763 1.610 . S
N762 S761 1.613 . S
N762 C765 1.350 . S
N763 S761 1.610 . S
N763 C764 1.351 . S
C764 C758 1.428 . S
C764 N763 1.351 . S
C764 C765 1.434 . S
C765 C756 1.429 . S
C765 N762 1.350 . S
C765 C764 1.434 . S
C766 C767 1.369 . S
C766 C768 1.419 . S
C766 H770 0.930 . S
C767 C766 1.369 . S
C767 C776 1.429 . S
C768 C766 1.419 . S
C768 C769 1.363 . S
C768 H771 0.929 . S
C769 C768 1.363 . S
C769 C775 1.428 . S
H770 C766 0.930 . S
H771 C768 0.929 . S
S772 N773 1.613 . S
S772 N774 1.610 . S
N773 S772 1.613 . S
N773 C776 1.350 . S
N774 S772 1.610 . S
N774 C775 1.351 . S
C775 C769 1.428 . S
C775 N774 1.351 . S
C775 C776 1.434 . S
C776 C767 1.429 . S
C776 N773 1.350 . S
C776 C775 1.434 . S
C777 C778 1.369 . S
C777 C779 1.419 . S
C777 H781 0.930 . S
C778 C777 1.369 . S
C778 C787 1.429 . S
C779 C777 1.419 . S
C779 C780 1.363 . S
C779 H782 0.929 . S
C780 C779 1.363 . S
C780 C786 1.428 . S
H781 C777 0.930 . S
H782 C779 0.929 . S
S783 N784 1.613 . S
S783 N785 1.610 . S
N784 S783 1.613 . S
N784 C787 1.350 . S
N785 S783 1.610 . S
N785 C786 1.351 . S
C786 C780 1.428 . S
C786 N785 1.351 . S
C786 C787 1.434 . S
C787 C778 1.429 . S
C787 N784 1.350 . S
C787 C786 1.434 . S
C788 C789 1.369 . S
C788 C790 1.419 . S
C788 H792 0.930 . S
C789 C788 1.369 . S
C789 C798 1.429 . S
C790 C788 1.419 . S
C790 C791 1.363 . S
C790 H793 0.929 . S
C791 C790 1.363 . S
C791 C797 1.428 . S
H792 C788 0.930 . S
H793 C790 0.929 . S
S794 N795 1.613 . S
S794 N796 1.610 . S
N795 S794 1.613 . S
N795 C798 1.350 . S
N796 S794 1.610 . S
N796 C797 1.351 . S
C797 C791 1.428 . S
C797 N796 1.351 . S
C797 C798 1.434 . S
C798 C789 1.429 . S
C798 N795 1.350 . S
C798 C797 1.434 . S
C799 C800 1.369 . S
C799 C801 1.419 . S
C799 H803 0.930 . S
C800 C799 1.369 . S
C800 C809 1.429 . S
C801 C799 1.419 . S
C801 C802 1.363 . S
C801 H804 0.929 . S
C802 C801 1.363 . S
C802 C808 1.428 . S
H803 C799 0.930 . S
H804 C801 0.929 . S
S805 N806 1.613 . S
S805 N807 1.610 . S
N806 S805 1.613 . S
N806 C809 1.350 . S
N807 S805 1.610 . S
N807 C808 1.351 . S
C808 C802 1.428 . S
C808 N807 1.351 . S
C808 C809 1.434 . S
C809 C800 1.429 . S
C809 N806 1.350 . S
C809 C808 1.434 . S
C810 C811 1.369 . S
C810 C812 1.419 . S
C810 H814 0.930 . S
C811 C810 1.369 . S
C811 C820 1.429 . S
C812 C810 1.419 . S
C812 C813 1.363 . S
C812 H815 0.929 . S
C813 C812 1.363 . S
C813 C819 1.428 . S
H814 C810 0.930 . S
H815 C812 0.929 . S
S816 N817 1.613 . S
S816 N818 1.610 . S
N817 S816 1.613 . S
N817 C820 1.350 . S
N818 S816 1.610 . S
N818 C819 1.351 . S
C819 C813 1.428 . S
C819 N818 1.351 . S
C819 C820 1.434 . S
C820 C811 1.429 . S
C820 N817 1.350 . S
C820 C819 1.434 . S
C821 C822 1.369 . S
C821 C823 1.419 . S
C821 H825 0.930 . S
C822 C821 1.369 . S
C822 C831 1.429 . S
C823 C821 1.419 . S
C823 C824 1.363 . S
C823 H826 0.929 . S
C824 C823 1.363 . S
C824 C830 1.428 . S
H825 C821 0.930 . S
H826 C823 0.929 . S
S827 N828 1.613 . S
S827 N829 1.610 . S
N828 S827 1.613 . S
N828 C831 1.350 . S
N829 S827 1.610 . S
N829 C830 1.351 . S
C830 C824 1.428 . S
C830 N829 1.351 . S
C830 C831 1.434 . S
C831 C822 1.429 . S
C831 N828 1.350 . S
C831 C830 1.434 . S
C832 C833 1.369 . S
C832 C834 1.419 . S
C832 H836 0.930 . S
C833 C832 1.369 . S
C833 C842 1.429 . S
C834 C832 1.419 . S
C834 C835 1.363 . S
C834 H837 0.929 . S
C835 C834 1.363 . S
C835 C841 1.428 . S
H836 C832 0.930 . S
H837 C834 0.929 . S
S838 N839 1.613 . S
S838 N840 1.610 . S
N839 S838 1.613 . S
N839 C842 1.350 . S
N840 S838 1.610 . S
N840 C841 1.351 . S
C841 C835 1.428 . S
C841 N840 1.351 . S
C841 C842 1.434 . S
C842 C833 1.429 . S
C842 N839 1.350 . S
C842 C841 1.434 . S
C843 C844 1.369 . S
C843 C845 1.419 . S
C843 H847 0.930 . S
C844 C843 1.369 . S
C844 C853 1.429 . S
C845 C843 1.419 . S
C845 C846 1.363 . S
C845 H848 0.929 . S
C846 C845 1.363 . S
C846 C852 1.428 . S
H847 C843 0.930 . S
H848 C845 0.929 . S
S849 N850 1.613 . S
S849 N851 1.610 . S
N850 S849 1.613 . S
N850 C853 1.350 . S
N851 S849 1.610 . S
N851 C852 1.351 . S
C852 C846 1.428 . S
C852 N851 1.351 . S
C852 C853 1.434 . S
C853 C844 1.429 . S
C853 N850 1.350 . S
C853 C852 1.434 . S
C854 C855 1.369 . S
C854 C856 1.419 . S
C854 H858 0.930 . S
C855 C854 1.369 . S
C855 C864 1.429 . S
C856 C854 1.419 . S
C856 C857 1.363 . S
C856 H859 0.929 . S
C857 C856 1.363 . S
C857 C863 1.428 . S
H858 C854 0.930 . S
H859 C856 0.929 . S
S860 N861 1.613 . S
S860 N862 1.610 . S
N861 S860 1.613 . S
N861 C864 1.350 . S
N862 S860 1.610 . S
N862 C863 1.351 . S
C863 C857 1.428 . S
C863 N862 1.351 . S
C863 C864 1.434 . S
C864 C855 1.429 . S
C864 N861 1.350 . S
C864 C863 1.434 . S
C865 C866 1.369 . S
C865 C867 1.419 . S
C865 H869 0.930 . S
C866 C865 1.369 . S
C866 C875 1.429 . S
C867 C865 1.419 . S
C867 C868 1.363 . S
C867 H870 0.929 . S
C868 C867 1.363 . S
C868 C874 1.428 . S
H869 C865 0.930 . S
H870 C867 0.929 . S
S871 N872 1.613 . S
S871 N873 1.610 . S
N872 S871 1.613 . S
N872 C875 1.350 . S
N873 S871 1.610 . S
N873 C874 1.351 . S
C874 C868 1.428 . S
C874 N873 1.351 . S
C874 C875 1.434 . S
C875 C866 1.429 . S
C875 N872 1.350 . S
C875 C874 1.434 . S
C876 C877 1.369 . S
C876 C878 1.419 . S
C876 H880 0.930 . S
C877 C876 1.369 . S
C877 C886 1.429 . S
C878 C876 1.419 . S
C878 C879 1.363 . S
C878 H881 0.929 . S
C879 C878 1.363 . S
C879 C885 1.428 . S
H880 C876 0.930 . S
H881 C878 0.929 . S
S882 N883 1.613 . S
S882 N884 1.610 . S
N883 S882 1.613 . S
N883 C886 1.350 . S
N884 S882 1.610 . S
N884 C885 1.351 . S
C885 C879 1.428 . S
C885 N884 1.351 . S
C885 C886 1.434 . S
C886 C877 1.429 . S
C886 N883 1.350 . S
C886 C885 1.434 . S
C887 C888 1.369 . S
C887 C889 1.419 . S
C887 H891 0.930 . S
C888 C887 1.369 . S
C888 C897 1.429 . S
C889 C887 1.419 . S
C889 C890 1.363 . S
C889 H892 0.929 . S
C890 C889 1.363 . S
C890 C896 1.428 . S
H891 C887 0.930 . S
H892 C889 0.929 . S
S893 N894 1.613 . S
S893 N895 1.610 . S
N894 S893 1.613 . S
N894 C897 1.350 . S
N895 S893 1.610 . S
N895 C896 1.351 . S
C896 C890 1.428 . S
C896 N895 1.351 . S
C896 C897 1.434 . S
C897 C888 1.429 . S
C897 N894 1.350 . S
C897 C896 1.434 . S
C898 C899 1.369 . S
C898 C900 1.419 . S
C898 H902 0.930 . S
C899 C898 1.369 . S
C899 C908 1.429 . S
C900 C898 1.419 . S
C900 C901 1.363 . S
C900 H903 0.929 . S
C901 C900 1.363 . S
C901 C907 1.428 . S
H902 C898 0.930 . S
H903 C900 0.929 . S
S904 N905 1.613 . S
S904 N906 1.610 . S
N905 S904 1.613 . S
N905 C908 1.350 . S
N906 S904 1.610 . S
N906 C907 1.351 . S
C907 C901 1.428 . S
C907 N906 1.351 . S
C907 C908 1.434 . S
C908 C899 1.429 . S
C908 N905 1.350 . S
C908 C907 1.434 . S
C909 C910 1.369 . S
C909 C911 1.419 . S
C909 H913 0.930 . S
C910 C909 1.369 . S
C910 C919 1.429 . S
C911 C909 1.419 . S
C911 C912 1.363 . S
C911 H914 0.929 . S
C912 C911 1.363 . S
C912 C918 1.428 . S
H913 C909 0.930 . S
H914 C911 0.929 . S
S915 N916 1.613 . S
S915 N917 1.610 . S
N916 S915 1.613 . S
N916 C919 1.350 . S
N917 S915 1.610 . S
N917 C918 1.351 . S
C918 C912 1.428 . S
C918 N917 1.351 . S
C918 C919 1.434 . S
C919 C910 1.429 . S
C919 N916 1.350 . S
C919 C918 1.434 . S
C920 C921 1.369 . S
C920 C922 1.419 . S
C920 H924 0.930 . S
C921 C920 1.369 . S
C921 C930 1.429 . S
C922 C920 1.419 . S
C922 C923 1.363 . S
C922 H925 0.929 . S
C923 C922 1.363 . S
C923 C929 1.428 . S
H924 C920 0.930 . S
H925 C922 0.929 . S
S926 N927 1.613 . S
S926 N928 1.610 . S
N927 S926 1.613 . S
N927 C930 1.350 . S
N928 S926 1.610 . S
N928 C929 1.351 . S
C929 C923 1.428 . S
C929 N928 1.351 . S
C929 C930 1.434 . S
C930 C921 1.429 . S
C930 N927 1.350 . S
C930 C929 1.434 . S
C931 C932 1.369 . S
C931 C933 1.419 . S
C931 H935 0.930 . S
C932 C931 1.369 . S
C932 C941 1.429 . S
C933 C931 1.419 . S
C933 C934 1.363 . S
C933 H936 0.929 . S
C934 C933 1.363 . S
C934 C940 1.428 . S
H935 C931 0.930 . S
H936 C933 0.929 . S
S937 N938 1.613 . S
S937 N939 1.610 . S
N938 S937 1.613 . S
N938 C941 1.350 . S
N939 S937 1.610 . S
N939 C940 1.351 . S
C940 C934 1.428 . S
C940 N939 1.351 . S
C940 C941 1.434 . S
C941 C932 1.429 . S
C941 N938 1.350 . S
C941 C940 1.434 . S
C942 C943 1.369 . S
C942 C944 1.419 . S
C942 H946 0.930 . S
C943 C942 1.369 . S
C943 C952 1.429 . S
C944 C942 1.419 . S
C944 C945 1.363 . S
C944 H947 0.929 . S
C945 C944 1.363 . S
C945 C951 1.428 . S
H946 C942 0.930 . S
H947 C944 0.929 . S
S948 N949 1.613 . S
S948 N950 1.610 . S
N949 S948 1.613 . S
N949 C952 1.350 . S
N950 S948 1.610 . S
N950 C951 1.351 . S
C951 C945 1.428 . S
C951 N950 1.351 . S
C951 C952 1.434 . S
C952 C943 1.429 . S
C952 N949 1.350 . S
C952 C951 1.434 . S
C953 C954 1.369 . S
C953 C955 1.419 . S
C953 H957 0.930 . S
C954 C953 1.369 . S
C954 C963 1.429 . S
C955 C953 1.419 . S
C955 C956 1.363 . S
C955 H958 0.929 . S
C956 C955 1.363 . S
C956 C962 1.428 . S
H957 C953 0.930 . S
H958 C955 0.929 . S
S959 N960 1.613 . S
S959 N961 1.610 . S
N960 S959 1.613 . S
N960 C963 1.350 . S
N961 S959 1.610 . S
N961 C962 1.351 . S
C962 C956 1.428 . S
C962 N961 1.351 . S
C962 C963 1.434 . S
C963 C954 1.429 . S
C963 N960 1.350 . S
C963 C962 1.434 . S
C964 C965 1.369 . S
C964 C966 1.419 . S
C964 H968 0.930 . S
C965 C964 1.369 . S
C965 C974 1.429 . S
C966 C964 1.419 . S
C966 C967 1.363 . S
C966 H969 0.929 . S
C967 C966 1.363 . S
C967 C973 1.428 . S
H968 C964 0.930 . S
H969 C966 0.929 . S
S970 N971 1.613 . S
S970 N972 1.610 . S
N971 S970 1.613 . S
N971 C974 1.350 . S
N972 S970 1.610 . S
N972 C973 1.351 . S
C973 C967 1.428 . S
C973 N972 1.351 . S
C973 C974 1.434 . S
C974 C965 1.429 . S
C974 N971 1.350 . S
C974 C973 1.434 . S
C975 C976 1.369 . S
C975 C977 1.419 . S
C975 H979 0.930 . S
C976 C975 1.369 . S
C976 C985 1.429 . S
C977 C975 1.419 . S
C977 C978 1.363 . S
C977 H980 0.929 . S
C978 C977 1.363 . S
C978 C984 1.428 . S
H979 C975 0.930 . S
H980 C977 0.929 . S
S981 N982 1.613 . S
S981 N983 1.610 . S
N982 S981 1.613 . S
N982 C985 1.350 . S
N983 S981 1.610 . S
N983 C984 1.351 . S
C984 C978 1.428 . S
C984 N983 1.351 . S
C984 C985 1.434 . S
C985 C976 1.429 . S
C985 N982 1.350 . S
C985 C984 1.434 . S
C461 C283 0.409 . S
C459 C4 0.457 . S
C472 C273 1.783 . S
C470 C63 1.743 . S
C483 C274 1.120 . S
C481 C72 1.073 . S
C492 C102 1.694 . S
C494 C296 1.727 . S
C503 C136 1.744 . S
C505 C299 1.783 . S
C516 C282 1.122 . S
C514 C183 1.067 . S
C525 C233 1.692 . S
C527 C272 1.728 . S
C536 C251 0.452 . S
C538 C290 0.411 . S
C549 C303 1.576 . S
C547 C29 1.603 . S
C558 C42 2.098 . S
C560 C352 1.989 . S
C571 C330 1.731 . S
C569 C97 1.743 . S
C582 C344 0.974 . S
C580 C115 1.057 . S
C591 C149 1.057 . S
C593 C305 1.077 . S
C604 C358 1.665 . S
C602 C187 1.695 . S
C613 C212 2.114 . S
C615 C314 1.967 . S
C624 C255 1.684 . S
C626 C335 1.660 . S
C635 C8 1.684 . S
C637 C361 1.658 . S
C646 C153 2.098 . S
C648 C345 1.989 . S
C659 C304 1.730 . S
C657 C170 1.741 . S
C670 C336 0.972 . S
C668 C208 1.060 . S
C679 C238 1.605 . S
C681 C327 1.580 . S
C690 C76 1.697 . S
C692 C334 1.660 . S
C703 C321 1.971 . S
C701 C119 2.113 . S
C712 C38 1.061 . S
C714 C313 1.070 . S
C723 C242 0.450 . S
C725 C376 0.413 . S
C734 C165 1.748 . S
C736 C366 1.782 . S
C747 C367 1.125 . S
C745 C174 1.079 . S
C758 C389 1.727 . S
C756 C204 1.693 . S
C767 C34 1.748 . S
C769 C392 1.782 . S
C780 C375 1.123 . S
C778 C81 1.082 . S
C789 C131 1.695 . S
C791 C365 1.727 . S
C800 C13 0.456 . S
C802 C383 0.424 . S
C811 C267 1.606 . S
C813 C396 1.581 . S
C824 C445 1.984 . S
C822 C144 2.099 . S
C833 C199 1.736 . S
C835 C423 1.733 . S
C844 C217 1.049 . S
C846 C437 0.984 . S
C857 C398 1.069 . S
C855 C47 1.074 . S
C866 C85 1.693 . S
C868 C451 1.663 . S
C879 C407 1.973 . S
C877 C110 2.110 . S
C890 C428 1.655 . S
C888 C17 1.682 . S
C901 C454 1.655 . S
C899 C246 1.682 . S
C910 C51 2.096 . S
C912 C438 1.987 . S
C921 C68 1.738 . S
C923 C397 1.731 . S
C934 C429 0.971 . S
C932 C106 1.061 . S
C943 C0 1.606 . S
C945 C420 1.579 . S
C954 C178 1.695 . S
C956 C427 1.660 . S
C967 C414 1.974 . S
C965 C221 2.112 . S
C978 C406 1.077 . S
C976 C140 1.065 . S
