# Generated by pormake.
# Topology gar, (4,6)-cn, num edge types: 1
# Building blocks:
#     Node 0, Type 0, BuildingBlock: GALJAG_clean_sbu_0, # of connection points: 4
#     Node 1, Type 0, BuildingBlock: GALJAG_clean_sbu_0, # of connection points: 4
#     Node 2, Type 0, BuildingBlock: GALJAG_clean_sbu_0, # of connection points: 4
#     Node 3, Type 0, BuildingBlock: GALJAG_clean_sbu_0, # of connection points: 4
#     Node 4, Type 0, BuildingBlock: GALJAG_clean_sbu_0, # of connection points: 4
#     Node 5, Type 0, BuildingBlock: GALJAG_clean_sbu_0, # of connection points: 4
#     Node 6, Type 0, BuildingBlock: GALJAG_clean_sbu_0, # of connection points: 4
#     Node 7, Type 0, BuildingBlock: GALJAG_clean_sbu_0, # of connection points: 4
#     Node 8, Type 0, BuildingBlock: GALJAG_clean_sbu_0, # of connection points: 4
#     Node 9, Type 0, BuildingBlock: GALJAG_clean_sbu_0, # of connection points: 4
#     Node 10, Type 0, BuildingBlock: GALJAG_clean_sbu_0, # of connection points: 4
#     Node 11, Type 0, BuildingBlock: GALJAG_clean_sbu_0, # of connection points: 4
#     Node 12, Type 0, BuildingBlock: GALJAG_clean_sbu_0, # of connection points: 4
#     Node 13, Type 0, BuildingBlock: GALJAG_clean_sbu_0, # of connection points: 4
#     Node 14, Type 0, BuildingBlock: GALJAG_clean_sbu_0, # of connection points: 4
#     Node 15, Type 0, BuildingBlock: GALJAG_clean_sbu_0, # of connection points: 4
#     Node 16, Type 0, BuildingBlock: GALJAG_clean_sbu_0, # of connection points: 4
#     Node 17, Type 0, BuildingBlock: GALJAG_clean_sbu_0, # of connection points: 4
#     Node 18, Type 0, BuildingBlock: GALJAG_clean_sbu_0, # of connection points: 4
#     Node 19, Type 0, BuildingBlock: GALJAG_clean_sbu_0, # of connection points: 4
#     Node 20, Type 0, BuildingBlock: GALJAG_clean_sbu_0, # of connection points: 4
#     Node 21, Type 0, BuildingBlock: GALJAG_clean_sbu_0, # of connection points: 4
#     Node 22, Type 0, BuildingBlock: GALJAG_clean_sbu_0, # of connection points: 4
#     Node 23, Type 0, BuildingBlock: GALJAG_clean_sbu_0, # of connection points: 4
#     Node 24, Type 1, BuildingBlock: HISSIN_clean_sbu_0, # of connection points: 6
#     Node 25, Type 1, BuildingBlock: HISSIN_clean_sbu_0, # of connection points: 6
#     Node 26, Type 1, BuildingBlock: HISSIN_clean_sbu_0, # of connection points: 6
#     Node 27, Type 1, BuildingBlock: HISSIN_clean_sbu_0, # of connection points: 6
#     Node 28, Type 1, BuildingBlock: HISSIN_clean_sbu_0, # of connection points: 6
#     Node 29, Type 1, BuildingBlock: HISSIN_clean_sbu_0, # of connection points: 6
#     Node 30, Type 1, BuildingBlock: HISSIN_clean_sbu_0, # of connection points: 6
#     Node 31, Type 1, BuildingBlock: HISSIN_clean_sbu_0, # of connection points: 6
#     Node 32, Type 1, BuildingBlock: HISSIN_clean_sbu_0, # of connection points: 6
#     Node 33, Type 1, BuildingBlock: HISSIN_clean_sbu_0, # of connection points: 6
#     Node 34, Type 1, BuildingBlock: HISSIN_clean_sbu_0, # of connection points: 6
#     Node 35, Type 1, BuildingBlock: HISSIN_clean_sbu_0, # of connection points: 6
#     Node 36, Type 1, BuildingBlock: HISSIN_clean_sbu_0, # of connection points: 6
#     Node 37, Type 1, BuildingBlock: HISSIN_clean_sbu_0, # of connection points: 6
#     Node 38, Type 1, BuildingBlock: HISSIN_clean_sbu_0, # of connection points: 6
#     Node 39, Type 1, BuildingBlock: HISSIN_clean_sbu_0, # of connection points: 6
#     Edge 40, Type (0, 1), BuildingBlock: AJUNOK_clean_linker_0, # of connection points: 2
#     Edge 41, Type (0, 1), BuildingBlock: AJUNOK_clean_linker_0, # of connection points: 2
#     Edge 42, Type (0, 1), BuildingBlock: AJUNOK_clean_linker_0, # of connection points: 2
#     Edge 43, Type (0, 1), BuildingBlock: AJUNOK_clean_linker_0, # of connection points: 2
#     Edge 44, Type (0, 1), BuildingBlock: AJUNOK_clean_linker_0, # of connection points: 2
#     Edge 45, Type (0, 1), BuildingBlock: AJUNOK_clean_linker_0, # of connection points: 2
#     Edge 46, Type (0, 1), BuildingBlock: AJUNOK_clean_linker_0, # of connection points: 2
#     Edge 47, Type (0, 1), BuildingBlock: AJUNOK_clean_linker_0, # of connection points: 2
#     Edge 48, Type (0, 1), BuildingBlock: AJUNOK_clean_linker_0, # of connection points: 2
#     Edge 49, Type (0, 1), BuildingBlock: AJUNOK_clean_linker_0, # of connection points: 2
#     Edge 50, Type (0, 1), BuildingBlock: AJUNOK_clean_linker_0, # of connection points: 2
#     Edge 51, Type (0, 1), BuildingBlock: AJUNOK_clean_linker_0, # of connection points: 2
#     Edge 52, Type (0, 1), BuildingBlock: AJUNOK_clean_linker_0, # of connection points: 2
#     Edge 53, Type (0, 1), BuildingBlock: AJUNOK_clean_linker_0, # of connection points: 2
#     Edge 54, Type (0, 1), BuildingBlock: AJUNOK_clean_linker_0, # of connection points: 2
#     Edge 55, Type (0, 1), BuildingBlock: AJUNOK_clean_linker_0, # of connection points: 2
#     Edge 56, Type (0, 1), BuildingBlock: AJUNOK_clean_linker_0, # of connection points: 2
#     Edge 57, Type (0, 1), BuildingBlock: AJUNOK_clean_linker_0, # of connection points: 2
#     Edge 58, Type (0, 1), BuildingBlock: AJUNOK_clean_linker_0, # of connection points: 2
#     Edge 59, Type (0, 1), BuildingBlock: AJUNOK_clean_linker_0, # of connection points: 2
#     Edge 60, Type (0, 1), BuildingBlock: AJUNOK_clean_linker_0, # of connection points: 2
#     Edge 61, Type (0, 1), BuildingBlock: AJUNOK_clean_linker_0, # of connection points: 2
#     Edge 62, Type (0, 1), BuildingBlock: AJUNOK_clean_linker_0, # of connection points: 2
#     Edge 63, Type (0, 1), BuildingBlock: AJUNOK_clean_linker_0, # of connection points: 2
#     Edge 64, Type (0, 1), BuildingBlock: AJUNOK_clean_linker_0, # of connection points: 2
#     Edge 65, Type (0, 1), BuildingBlock: AJUNOK_clean_linker_0, # of connection points: 2
#     Edge 66, Type (0, 1), BuildingBlock: AJUNOK_clean_linker_0, # of connection points: 2
#     Edge 67, Type (0, 1), BuildingBlock: AJUNOK_clean_linker_0, # of connection points: 2
#     Edge 68, Type (0, 1), BuildingBlock: AJUNOK_clean_linker_0, # of connection points: 2
#     Edge 69, Type (0, 1), BuildingBlock: AJUNOK_clean_linker_0, # of connection points: 2
#     Edge 70, Type (0, 1), BuildingBlock: AJUNOK_clean_linker_0, # of connection points: 2
#     Edge 71, Type (0, 1), BuildingBlock: AJUNOK_clean_linker_0, # of connection points: 2
#     Edge 72, Type (0, 1), BuildingBlock: AJUNOK_clean_linker_0, # of connection points: 2
#     Edge 73, Type (0, 1), BuildingBlock: AJUNOK_clean_linker_0, # of connection points: 2
#     Edge 74, Type (0, 1), BuildingBlock: AJUNOK_clean_linker_0, # of connection points: 2
#     Edge 75, Type (0, 1), BuildingBlock: AJUNOK_clean_linker_0, # of connection points: 2
#     Edge 76, Type (0, 1), BuildingBlock: AJUNOK_clean_linker_0, # of connection points: 2
#     Edge 77, Type (0, 1), BuildingBlock: AJUNOK_clean_linker_0, # of connection points: 2
#     Edge 78, Type (0, 1), BuildingBlock: AJUNOK_clean_linker_0, # of connection points: 2
#     Edge 79, Type (0, 1), BuildingBlock: AJUNOK_clean_linker_0, # of connection points: 2
#     Edge 80, Type (0, 1), BuildingBlock: AJUNOK_clean_linker_0, # of connection points: 2
#     Edge 81, Type (0, 1), BuildingBlock: AJUNOK_clean_linker_0, # of connection points: 2
#     Edge 82, Type (0, 1), BuildingBlock: AJUNOK_clean_linker_0, # of connection points: 2
#     Edge 83, Type (0, 1), BuildingBlock: AJUNOK_clean_linker_0, # of connection points: 2
#     Edge 84, Type (0, 1), BuildingBlock: AJUNOK_clean_linker_0, # of connection points: 2
#     Edge 85, Type (0, 1), BuildingBlock: AJUNOK_clean_linker_0, # of connection points: 2
#     Edge 86, Type (0, 1), BuildingBlock: AJUNOK_clean_linker_0, # of connection points: 2
#     Edge 87, Type (0, 1), BuildingBlock: AJUNOK_clean_linker_0, # of connection points: 2
#     Edge 88, Type (0, 1), BuildingBlock: AJUNOK_clean_linker_0, # of connection points: 2
#     Edge 89, Type (0, 1), BuildingBlock: AJUNOK_clean_linker_0, # of connection points: 2
#     Edge 90, Type (0, 1), BuildingBlock: AJUNOK_clean_linker_0, # of connection points: 2
#     Edge 91, Type (0, 1), BuildingBlock: AJUNOK_clean_linker_0, # of connection points: 2
#     Edge 92, Type (0, 1), BuildingBlock: AJUNOK_clean_linker_0, # of connection points: 2
#     Edge 93, Type (0, 1), BuildingBlock: AJUNOK_clean_linker_0, # of connection points: 2
#     Edge 94, Type (0, 1), BuildingBlock: AJUNOK_clean_linker_0, # of connection points: 2
#     Edge 95, Type (0, 1), BuildingBlock: AJUNOK_clean_linker_0, # of connection points: 2
#     Edge 96, Type (0, 1), BuildingBlock: AJUNOK_clean_linker_0, # of connection points: 2
#     Edge 97, Type (0, 1), BuildingBlock: AJUNOK_clean_linker_0, # of connection points: 2
#     Edge 98, Type (0, 1), BuildingBlock: AJUNOK_clean_linker_0, # of connection points: 2
#     Edge 99, Type (0, 1), BuildingBlock: AJUNOK_clean_linker_0, # of connection points: 2
#     Edge 100, Type (0, 1), BuildingBlock: AJUNOK_clean_linker_0, # of connection points: 2
#     Edge 101, Type (0, 1), BuildingBlock: AJUNOK_clean_linker_0, # of connection points: 2
#     Edge 102, Type (0, 1), BuildingBlock: AJUNOK_clean_linker_0, # of connection points: 2
#     Edge 103, Type (0, 1), BuildingBlock: AJUNOK_clean_linker_0, # of connection points: 2
#     Edge 104, Type (0, 1), BuildingBlock: AJUNOK_clean_linker_0, # of connection points: 2
#     Edge 105, Type (0, 1), BuildingBlock: AJUNOK_clean_linker_0, # of connection points: 2
#     Edge 106, Type (0, 1), BuildingBlock: AJUNOK_clean_linker_0, # of connection points: 2
#     Edge 107, Type (0, 1), BuildingBlock: AJUNOK_clean_linker_0, # of connection points: 2
#     Edge 108, Type (0, 1), BuildingBlock: AJUNOK_clean_linker_0, # of connection points: 2
#     Edge 109, Type (0, 1), BuildingBlock: AJUNOK_clean_linker_0, # of connection points: 2
#     Edge 110, Type (0, 1), BuildingBlock: AJUNOK_clean_linker_0, # of connection points: 2
#     Edge 111, Type (0, 1), BuildingBlock: AJUNOK_clean_linker_0, # of connection points: 2
#     Edge 112, Type (0, 1), BuildingBlock: AJUNOK_clean_linker_0, # of connection points: 2
#     Edge 113, Type (0, 1), BuildingBlock: AJUNOK_clean_linker_0, # of connection points: 2
#     Edge 114, Type (0, 1), BuildingBlock: AJUNOK_clean_linker_0, # of connection points: 2
#     Edge 115, Type (0, 1), BuildingBlock: AJUNOK_clean_linker_0, # of connection points: 2
#     Edge 116, Type (0, 1), BuildingBlock: AJUNOK_clean_linker_0, # of connection points: 2
#     Edge 117, Type (0, 1), BuildingBlock: AJUNOK_clean_linker_0, # of connection points: 2
#     Edge 118, Type (0, 1), BuildingBlock: AJUNOK_clean_linker_0, # of connection points: 2
#     Edge 119, Type (0, 1), BuildingBlock: AJUNOK_clean_linker_0, # of connection points: 2
#     Edge 120, Type (0, 1), BuildingBlock: AJUNOK_clean_linker_0, # of connection points: 2
#     Edge 121, Type (0, 1), BuildingBlock: AJUNOK_clean_linker_0, # of connection points: 2
#     Edge 122, Type (0, 1), BuildingBlock: AJUNOK_clean_linker_0, # of connection points: 2
#     Edge 123, Type (0, 1), BuildingBlock: AJUNOK_clean_linker_0, # of connection points: 2
#     Edge 124, Type (0, 1), BuildingBlock: AJUNOK_clean_linker_0, # of connection points: 2
#     Edge 125, Type (0, 1), BuildingBlock: AJUNOK_clean_linker_0, # of connection points: 2
#     Edge 126, Type (0, 1), BuildingBlock: AJUNOK_clean_linker_0, # of connection points: 2
#     Edge 127, Type (0, 1), BuildingBlock: AJUNOK_clean_linker_0, # of connection points: 2
#     Edge 128, Type (0, 1), BuildingBlock: AJUNOK_clean_linker_0, # of connection points: 2
#     Edge 129, Type (0, 1), BuildingBlock: AJUNOK_clean_linker_0, # of connection points: 2
#     Edge 130, Type (0, 1), BuildingBlock: AJUNOK_clean_linker_0, # of connection points: 2
#     Edge 131, Type (0, 1), BuildingBlock: AJUNOK_clean_linker_0, # of connection points: 2
#     Edge 132, Type (0, 1), BuildingBlock: AJUNOK_clean_linker_0, # of connection points: 2
#     Edge 133, Type (0, 1), BuildingBlock: AJUNOK_clean_linker_0, # of connection points: 2
#     Edge 134, Type (0, 1), BuildingBlock: AJUNOK_clean_linker_0, # of connection points: 2
#     Edge 135, Type (0, 1), BuildingBlock: AJUNOK_clean_linker_0, # of connection points: 2
# Relax obj value: 0.248
# Max RMSD: 0.325
# Mean RMSD: 0.172
data_MOF--net-gar--node1-GALJAG_clean_sbu_0--node2-HISSIN_clean_sbu_0--edge1-AJUNOK_clean_linker_0
_symmetry_space_group_name_H-M    P1
_symmetry_Int_Tables_number       1
_symmetry_cell_setting            triclinic
loop_
_symmetry_equiv_pos_as_xyz
'x, y, z'
_cell_length_a     45.442937
_cell_length_b     45.35304
_cell_length_c     43.122427
_cell_angle_alpha  101.41064
_cell_angle_beta   93.250389
_cell_angle_gamma 100.68282
loop_
_atom_site_label
_atom_site_type_symbol
_atom_site_fract_x
_atom_site_fract_y
_atom_site_fract_z
_atom_type_partial_charge
In0 In 0.13386 0.34963 0.4174 0.0
O1 O 0.16234 0.31909 0.39105 0.0
O2 O 0.18119 0.36682 0.40421 0.0
C3 C 0.09696 0.33484 0.36329 0.0
C4 C 0.11932 0.31523 0.46114 0.0
C5 C 0.12997 0.40651 0.44805 0.0
O6 O 0.11919 0.35699 0.36887 0.0
O7 O 0.09347 0.31987 0.38504 0.0
O8 O 0.15078 0.39353 0.45561 0.0
O9 O 0.11175 0.39096 0.42502 0.0
C10 C 0.18401 0.34054 0.38979 0.0
O11 O 0.14583 0.32192 0.45368 0.0
O12 O 0.1003 0.32579 0.44649 0.0
In13 In 0.04861 0.7988 0.68505 0.0
O14 O 0.0388 0.81213 0.63732 0.0
O15 O 0.06823 0.84461 0.67315 0.0
C16 C 0.0615 0.74594 0.65316 0.0
C17 C 0.08447 0.80587 0.73874 0.0
C18 C 0.99647 0.80167 0.71078 0.0
O19 O 0.08101 0.77043 0.66151 0.0
O20 O 0.03543 0.74824 0.66048 0.0
O21 O 1.01894 0.82356 0.71751 0.0
O22 O 0.99964 0.7796 0.6892 0.0
C23 C 0.05595 0.83823 0.64509 0.0
O24 O 0.0606 0.78579 0.73168 0.0
O25 O 0.09052 0.82201 0.71835 0.0
In26 In 0.6346 0.84749 0.91528 0.0
O27 O 0.66449 0.82043 0.88672 0.0
O28 O 0.68145 0.86829 0.90308 0.0
C29 C 0.59654 0.8286 0.86191 0.0
C30 C 0.62353 0.81269 0.95929 0.0
C31 C 0.62709 0.90363 0.94448 0.0
O32 O 0.61788 0.85155 0.86619 0.0
O33 O 0.59427 0.81497 0.88479 0.0
O34 O 0.64766 0.89144 0.95421 0.0
O35 O 0.61087 0.88767 0.92017 0.0
C36 C 0.68503 0.84322 0.88639 0.0
O37 O 0.64951 0.82024 0.95076 0.0
O38 O 0.60341 0.8227 0.94563 0.0
In39 In 0.55073 0.29435 0.18885 0.0
O40 O 0.58073 0.26571 0.16189 0.0
O41 O 0.53469 0.2449 0.16154 0.0
C42 C 0.5612 0.3328 0.14836 0.0
C43 C 0.49906 0.29748 0.21512 0.0
C44 C 0.58317 0.29727 0.24373 0.0
O45 O 0.5354 0.31736 0.14988 0.0
O46 O 0.58143 0.32957 0.16793 0.0
O47 O 0.58183 0.32107 0.23309 0.0
O48 O 0.56886 0.27256 0.22634 0.0
C49 C 0.56029 0.24204 0.15287 0.0
O50 O 0.50186 0.2754 0.19328 0.0
O51 O 0.52181 0.3191 0.22212 0.0
In52 In 0.15308 0.8132 0.1293 0.0
O53 O 0.12886 0.77379 0.09117 0.0
O54 O 0.16983 0.76839 0.11377 0.0
C55 C 0.15806 0.85003 0.08713 0.0
C56 C 0.10033 0.8126 0.15571 0.0
C57 C 0.19774 0.82497 0.17678 0.0
O58 O 0.1613 0.82263 0.08036 0.0
O59 O 0.1536 0.85942 0.11569 0.0
O60 O 0.17135 0.81136 0.17855 0.0
O61 O 0.20205 0.83251 0.15049 0.0
C62 C 0.14756 0.75676 0.09322 0.0
O63 O 0.10889 0.78872 0.14264 0.0
O64 O 0.1184 0.8373 0.15547 0.0
In65 In 0.5388 0.8275 0.47254 0.0
O66 O 0.57457 0.80307 0.44901 0.0
O67 O 0.58241 0.85163 0.45807 0.0
C68 C 0.49424 0.81271 0.42517 0.0
C69 C 0.53407 0.79485 0.51847 0.0
C70 C 0.53813 0.88504 0.50197 0.0
O71 O 0.52107 0.82361 0.42153 0.0
O72 O 0.48991 0.80869 0.45285 0.0
O73 O 0.55882 0.87114 0.50744 0.0
O74 O 0.51716 0.86969 0.48134 0.0
C75 C 0.59181 0.82771 0.44691 0.0
O76 O 0.53782 0.8236 0.52401 0.0
O77 O 0.5322 0.78219 0.4894 0.0
In78 In 0.64975 0.31029 0.63703 0.0
O79 O 0.67201 0.27835 0.60229 0.0
O80 O 0.64906 0.26084 0.63841 0.0
C81 C 0.63222 0.32931 0.5855 0.0
C82 C 0.60017 0.31618 0.66659 0.0
C83 C 0.69402 0.33515 0.684 0.0
O84 O 0.61792 0.30624 0.5941 0.0
O85 O 0.65608 0.34323 0.60294 0.0
O86 O 0.6959 0.34124 0.65667 0.0
O87 O 0.67023 0.31715 0.6869 0.0
C88 C 0.66361 0.25562 0.61462 0.0
O89 O 0.62105 0.33894 0.66674 0.0
O90 O 0.6042 0.29077 0.65108 0.0
In91 In 0.0387 0.32916 0.96982 0.0
O92 O 0.0556 0.32998 1.02011 0.0
O93 O 0.03073 0.28751 0.99314 0.0
C94 C 0.03415 0.38567 0.99905 0.0
C95 C 0.0858 0.3256 0.93513 0.0
C96 C 0.99013 0.31258 0.92716 0.0
O97 O 1.01149 0.36603 0.98524 0.0
O98 O 0.05886 0.37688 0.99758 0.0
O99 O 1.01575 0.32418 0.92045 0.0
O100 O 0.98931 0.30808 0.95513 0.0
C101 C 0.04465 0.30232 1.01946 0.0
O102 O 0.07115 0.30235 0.94339 0.0
O103 O 0.07683 0.35018 0.94481 0.0
In104 In 0.4192 0.06641 0.36061 0.0
O105 O 0.44547 0.08309 0.32185 0.0
O106 O 0.43263 0.03496 0.31827 0.0
C107 C 0.46199 0.09034 0.40938 0.0
C108 C 0.37314 0.09224 0.34544 0.0
C109 C 0.39731 1.0129 0.37598 0.0
O110 O 0.46597 0.09335 0.38142 0.0
O111 O 0.43536 0.0788 0.41325 0.0
O112 O 0.38184 0.03337 0.37653 0.0
O113 O 0.42349 1.01963 0.36776 0.0
C114 C 0.44605 0.05645 0.30653 0.0
O115 O 0.37637 0.06602 0.33172 0.0
O116 O 0.39357 0.10609 0.36742 0.0
In117 In 0.31035 0.22596 0.52538 0.0
O118 O 0.32631 0.23125 0.57779 0.0
O119 O 0.30572 0.2667 0.56738 0.0
C120 C 0.31556 0.24785 0.46943 0.0
C121 C 0.35908 0.19982 0.52749 0.0
C122 C 0.25462 0.18976 0.52367 0.0
O123 O 0.32641 0.26402 0.49644 0.0
O124 O 0.3013 0.22165 0.47091 0.0
O125 O 0.27776 0.17917 0.51666 0.0
O126 O 0.25938 0.2188 0.53095 0.0
C127 C 0.31856 0.25622 0.58855 0.0
O128 O 0.33265 0.18411 0.52066 0.0
O129 O 0.36089 0.22844 0.53137 0.0
In130 In 0.21719 0.05225 0.79934 0.0
O131 O 0.17256 0.05463 0.76435 0.0
O132 O 0.20813 0.04425 0.7402 0.0
C133 C 0.18465 0.05651 0.85968 0.0
C134 C 0.24721 0.99415 0.79634 0.0
C135 C 0.25097 0.11737 0.80269 0.0
O136 O 0.17404 0.04089 0.83207 0.0
O137 O 0.2116 0.06954 0.85737 0.0
O138 O 0.26319 0.09432 0.80381 0.0
O139 O 0.22276 0.10798 0.80105 0.0
C140 C 0.18194 0.05007 0.73694 0.0
O141 O 0.26044 1.02192 0.79716 0.0
O142 O 0.21932 0.99542 0.79673 0.0
In143 In 0.32479 0.99618 1.02215 0.0
O144 O 0.31916 0.95333 0.04249 0.0
O145 O 0.32972 0.99637 0.07521 0.0
C146 C 0.32642 0.95279 0.96761 0.0
C147 C 0.26909 1.01797 0.02755 0.0
C148 C 0.38708 1.02408 0.03169 0.0
O149 O 0.31977 0.94668 0.99391 0.0
O150 O 0.33092 0.98131 0.96786 0.0
O151 O 0.36969 0.02691 1.00873 0.0
O152 O 0.37264 1.01012 0.05034 0.0
C153 C 0.325 0.96742 0.07112 0.0
O154 O 0.29492 0.03545 0.03431 0.0
O155 O 0.27151 0.9908 1.01622 0.0
In156 In 0.36139 0.41184 0.06574 0.0
O157 O 0.34706 0.37087 0.09188 0.0
O158 O 0.36523 0.4143 0.12028 0.0
C159 C 0.35489 0.38119 1.00263 0.0
C160 C 0.31395 0.44039 0.06285 0.0
C161 C 0.4178 0.44834 0.06911 0.0
O162 O 0.36935 0.37269 0.02414 0.0
O163 O 0.34385 0.40425 1.01307 0.0
O164 O 0.39492 0.45872 0.07749 0.0
O165 O 0.41253 0.41945 0.05997 0.0
C166 C 0.35397 0.38666 0.11985 0.0
O167 O 0.34091 0.4548 0.06879 0.0
O168 O 0.31086 0.41163 0.05955 0.0
In169 In 0.85056 0.13932 0.07376 0.0
O170 O 0.88115 0.10081 0.05807 0.0
O171 O 0.90363 0.14396 0.08238 0.0
C172 C 0.78865 0.11039 0.06668 0.0
C173 C 0.84822 0.18268 0.12813 0.0
C174 C 0.84762 0.16854 0.02525 0.0
O175 O 0.80323 0.11923 0.04504 0.0
O176 O 0.80588 0.11281 0.09172 0.0
O177 O 0.85838 0.18232 0.05307 0.0
O178 O 0.83965 0.13979 1.02157 0.0
C179 C 0.90674 0.11784 0.06805 0.0
O180 O 0.85284 0.18897 0.10136 0.0
O181 O 0.846 0.15435 0.12813 0.0
In182 In 0.25051 0.59445 0.24258 0.0
O183 O 0.27878 0.55737 0.23579 0.0
O184 O 0.27146 0.57806 0.2827 0.0
C185 C 0.28775 0.64603 0.23874 0.0
C186 C 0.21778 0.57572 0.18623 0.0
C187 C 0.21099 0.60663 0.28505 0.0
O188 O 0.29733 0.62215 0.24136 0.0
O189 O 0.25959 0.6436 0.23773 0.0
O190 O 0.2056 0.58329 0.26262 0.0
O191 O 0.23628 0.62395 0.28591 0.0
C192 C 0.2838 0.55918 0.26534 0.0
O193 O 0.21529 0.55964 0.20707 0.0
O194 O 0.23874 0.59901 0.19272 0.0
In195 In 0.86771 0.90538 0.56118 0.0
O196 O 0.85991 0.86515 0.58906 0.0
O197 O 0.86596 0.91032 0.61548 0.0
C198 C 0.86071 0.87054 0.49993 0.0
C199 C 0.82242 0.93494 0.55085 0.0
C200 C 0.9222 0.94514 0.56759 0.0
O201 O 0.88617 0.88051 0.51561 0.0
O202 O 0.83933 0.87626 0.51583 0.0
O203 O 0.89763 0.95365 0.57259 0.0
O204 O 0.91954 0.91625 0.55992 0.0
C205 C 0.86077 0.88225 0.61617 0.0
O206 O 0.84982 0.94758 0.55263 0.0
O207 O 0.81796 0.90802 0.55569 0.0
In208 In 0.95973 0.08588 0.29394 0.0
O209 O 1.00275 0.09799 0.26168 0.0
O210 O 0.96585 0.06822 0.23613 0.0
C211 C 0.99448 0.08815 0.3565 0.0
C212 C 0.92998 0.14395 0.29688 0.0
C213 C 0.92666 1.02047 0.28946 0.0
O214 O 1.00442 0.08453 0.32934 0.0
O215 O 0.96796 0.09301 0.35293 0.0
O216 O 0.91399 0.04331 0.28878 0.0
O217 O 0.9548 0.03031 0.29115 0.0
C218 C 0.99261 0.08194 0.23411 0.0
O219 O 0.91692 0.1167 0.29834 0.0
O220 O 0.9575 0.14214 0.29412 0.0
In221 In 0.35421 0.64007 0.57496 0.0
O222 O 0.38473 0.60396 0.55254 0.0
O223 O 0.40549 0.6392 0.59001 0.0
C224 C 0.29191 0.61234 0.56778 0.0
C225 C 0.35186 0.68289 0.62952 0.0
C226 C 0.3551 0.67231 0.52869 0.0
O227 O 0.31026 0.60946 0.58986 0.0
O228 O 0.30537 0.6261 0.54837 0.0
O229 O 0.3636 0.68459 0.55746 0.0
O230 O 0.3474 0.64339 0.523 0.0
C231 C 0.40937 0.61688 0.56909 0.0
O232 O 0.35977 0.68973 0.60381 0.0
O233 O 0.34672 0.65422 0.62851 0.0
In234 In 0.46041 0.58573 0.7934 0.0
O235 O 0.41718 0.61553 0.79269 0.0
O236 O 0.45855 0.64306 0.79946 0.0
C237 C 0.42717 0.52039 0.78972 0.0
C238 C 0.49345 0.58202 0.73348 0.0
C239 C 0.49437 0.58748 0.85613 0.0
O240 O 0.41463 0.54345 0.78995 0.0
O241 O 0.45524 0.52996 0.79012 0.0
O242 O 0.5045 0.58323 0.82909 0.0
O243 O 0.46816 0.59308 0.85226 0.0
C244 C 0.4305 0.64377 0.79683 0.0
O245 O 0.50403 0.59712 0.7613 0.0
O246 O 0.46631 0.56934 0.73538 0.0
In247 In 0.75449 0.09792 0.7485 0.0
O248 O 0.78727 0.06587 0.7358 0.0
O249 O 0.77428 0.07396 0.78288 0.0
C250 C 0.79197 0.14898 0.74134 0.0
C251 C 0.71188 0.07479 0.69969 0.0
C252 C 0.72085 0.10842 0.79684 0.0
O253 O 0.79623 0.13482 0.7629 0.0
O254 O 0.76844 0.13731 0.72284 0.0
O255 O 0.71929 0.08209 0.77964 0.0
O256 O 0.73974 0.12968 0.78982 0.0
C257 C 0.79048 0.06147 0.76373 0.0
O258 O 0.7358 0.06445 0.70135 0.0
O259 O 0.7101 0.09658 0.72218 0.0
In260 In 0.80428 0.72925 0.02399 0.0
O261 O 0.82348 0.68679 0.02854 0.0
O262 O 0.85405 0.72939 0.03459 0.0
C263 C 0.75015 0.68979 1.01973 0.0
C264 C 0.81183 0.7643 0.0853 0.0
C265 C 0.81026 0.75079 0.96802 0.0
O266 O 0.77478 0.68111 1.01574 0.0
O267 O 0.75257 0.7187 0.02532 0.0
O268 O 0.80799 0.76777 0.99443 0.0
O269 O 0.80842 0.72313 0.96959 0.0
C270 C 0.85037 0.70124 0.03495 0.0
O271 O 0.78629 0.75086 0.07128 0.0
O272 O 0.8328 0.76209 0.06766 0.0
In273 In 0.91257 0.56259 0.85123 0.0
O274 O 0.86732 0.56454 0.82856 0.0
O275 O 0.89234 0.60538 0.85911 0.0
C276 C 0.89009 0.51219 0.87246 0.0
C277 C 0.93346 0.55337 0.79376 0.0
C278 C 0.95906 0.58687 0.89598 0.0
O279 O 0.87521 0.53275 0.87105 0.0
O280 O 0.91583 0.51701 0.86284 0.0
O281 O 0.96237 0.57554 0.86764 0.0
O282 O 0.93218 0.58787 0.90136 0.0
C283 C 0.8685 0.59231 0.84128 0.0
O284 O 0.93528 0.57976 0.81097 0.0
O285 O 0.92009 0.53157 0.80517 0.0
In286 In 0.82838 0.49774 0.52281 0.0
O287 O 0.8238 0.45529 0.54409 0.0
O288 O 0.83355 0.49878 0.57607 0.0
C289 C 0.83011 0.45569 0.46709 0.0
C290 C 0.77232 0.51901 0.52859 0.0
C291 C 0.89067 0.52596 0.53216 0.0
O292 O 0.82401 0.44852 0.49312 0.0
O293 O 0.83382 0.48434 0.46835 0.0
O294 O 0.8728 0.53038 0.5105 0.0
O295 O 0.87673 0.51012 0.54961 0.0
C296 C 0.82958 0.46991 0.57258 0.0
O297 O 0.79808 0.5367 0.53483 0.0
O298 O 0.77492 0.49177 0.5178 0.0
In299 In 0.71767 0.55239 0.29853 0.0
O300 O 0.76093 0.52263 0.30077 0.0
O301 O 0.71959 0.49506 0.29147 0.0
C302 C 0.75094 0.61745 0.30118 0.0
C303 C 0.68207 0.55045 0.23652 0.0
C304 C 0.68586 0.55683 0.35927 0.0
O305 O 0.76312 0.59393 0.2983 0.0
O306 O 0.72329 0.60847 0.30397 0.0
O307 O 0.67484 0.5414 0.33171 0.0
O308 O 0.71287 0.56946 0.35672 0.0
C309 C 0.74756 0.49433 0.29546 0.0
O310 O 0.67252 0.55397 0.26389 0.0
O311 O 0.70867 0.54565 0.23963 0.0
Eu312 Eu 0.10548 0.1025 0.05993 0.0
Eu313 Eu 0.07203 0.03561 0.03433 0.0
C314 C 0.11558 0.06713 0.98375 0.0
C315 C 0.12251 0.18769 0.09475 0.0
C316 C 0.09478 0.18561 0.10774 0.0
C317 C 0.12317 0.24071 0.09331 0.0
C318 C 0.08037 0.21051 0.11133 0.0
C319 C 0.13765 0.21592 0.08987 0.0
C320 C 0.09338 0.2372 0.10143 0.0
C321 C 0.1317 0.15989 0.07878 0.0
O322 O 0.1224 0.03103 0.03911 0.0
O323 O 0.14528 0.07897 0.06541 0.0
C324 C 0.14744 0.05106 0.05132 0.0
O325 O 0.08344 0.09408 0.10652 0.0
O326 O 0.04649 0.99695 0.99846 0.0
O327 O 0.05996 0.99069 0.04556 0.0
O328 O 0.05454 0.04695 0.08602 0.0
C329 C 0.06174 0.07129 0.1104 0.0
O330 O 0.05503 0.10699 0.056 0.0
O331 O 0.03157 0.05897 0.02974 0.0
O332 O 0.09353 0.04448 0.98734 0.0
O333 O 0.13384 0.13921 0.09555 0.0
O334 O 0.11773 0.1481 0.05041 0.0
O335 O 0.12292 0.0912 1.00837 0.0
C336 C 0.06407 0.95203 1.00332 0.0
C337 C 0.05341 0.92307 1.00969 0.0
C338 C 0.1127 0.93871 0.99474 0.0
C339 C 0.07296 0.90286 1.01071 0.0
C340 C 0.09308 0.95886 0.99353 0.0
C341 C 0.10334 0.91171 1.00572 0.0
C342 C 0.04946 0.97729 1.01632 0.0
C343 C 0.02973 0.08703 0.04414 0.0
H344 H 0.0829 0.16388 0.11179 0.0
H345 H 0.13371 0.26102 0.08538 0.0
H346 H 0.05768 0.20776 0.11815 0.0
H347 H 0.15909 0.2178 0.07985 0.0
H348 H 0.03119 0.91755 1.0175 0.0
H349 H 0.13598 0.94572 0.99052 0.0
H350 H 0.06531 0.88211 1.01929 0.0
H351 H 0.1017 0.98118 0.98855 0.0
Eu352 Eu 0.36551 0.84139 0.28252 0.0
Eu353 Eu 0.32248 0.81787 0.33519 0.0
C354 C 0.29483 0.83726 0.27444 0.0
C355 C 0.38504 0.8807 0.21625 0.0
C356 C 0.36395 0.89957 0.22329 0.0
C357 C 0.38367 0.88957 0.16259 0.0
C358 C 0.35292 0.91342 0.20021 0.0
C359 C 0.39492 0.87588 0.18581 0.0
C360 C 0.36243 0.90826 0.16959 0.0
C361 C 0.395 0.86445 0.23992 0.0
O362 O 0.33916 0.77748 0.30894 0.0
O363 O 0.34213 0.79277 0.26173 0.0
C364 C 0.34001 0.77122 0.27812 0.0
O365 O 0.39556 0.81924 0.30985 0.0
O366 O 0.28581 0.78527 0.34762 0.0
O367 O 0.31002 0.82377 0.38379 0.0
O368 O 0.37008 0.82102 0.35475 0.0
C369 C 0.39394 0.81712 0.33973 0.0
O370 O 0.376 0.87483 0.32931 0.0
O371 O 0.32835 0.86914 0.34374 0.0
O372 O 0.29149 0.81711 0.29262 0.0
O373 O 0.39648 0.8787 0.26952 0.0
O374 O 0.38236 0.83551 0.23563 0.0
O375 O 0.32105 0.85488 0.27378 0.0
C376 C 0.29874 0.77618 0.39802 0.0
C377 C 0.31684 0.75493 0.38736 0.0
C378 C 0.30052 0.76244 0.44952 0.0
C379 C 0.32677 0.73763 0.40768 0.0
C380 C 0.2904 0.77961 0.42909 0.0
C381 C 0.31916 0.74168 0.43909 0.0
C382 C 0.29169 0.7971 0.37802 0.0
C383 C 0.35553 0.88552 0.34573 0.0
H384 H 0.35564 0.90328 0.24652 0.0
H385 H 0.39158 0.88561 0.13918 0.0
H386 H 0.33649 0.92767 0.20606 0.0
H387 H 0.41099 0.86123 0.1799 0.0
H388 H 0.324 0.75232 0.3636 0.0
H389 H 0.29406 0.76558 0.47357 0.0
H390 H 0.34116 0.7218 0.39919 0.0
H391 H 0.27676 0.79613 0.43778 0.0
Eu392 Eu 0.62253 0.06359 0.51627 0.0
Eu393 Eu 0.57146 0.084 0.56371 0.0
C394 C 0.62732 0.05917 0.59133 0.0
C395 C 0.68537 0.02581 0.48866 0.0
C396 C 0.67792 1.00392 0.50738 0.0
C397 C 0.73584 1.01511 0.48796 0.0
C398 C 0.69927 0.98788 0.51642 0.0
C399 C 0.7144 0.03109 0.4788 0.0
C400 C 0.7286 0.99353 0.50713 0.0
C401 C 0.66407 0.04533 0.48243 0.0
O402 O 0.61561 0.1163 0.57949 0.0
O403 O 0.63169 0.11518 0.53028 0.0
C404 C 0.63235 0.12907 0.5601 0.0
O405 O 0.58132 0.0652 0.48513 0.0
O406 O 0.55481 0.12102 0.59334 0.0
O407 O 0.52852 0.07476 0.58394 0.0
O408 O 0.56708 0.10331 0.52012 0.0
C409 C 0.56558 0.0868 0.49143 0.0
O410 O 0.59882 1.02208 0.53166 0.0
O411 O 0.55318 0.03596 0.53573 0.0
O412 O 0.59952 0.06305 0.59462 0.0
O413 O 0.63566 0.03198 0.47684 0.0
O414 O 0.66817 0.07193 0.50207 0.0
O415 O 0.64075 0.06204 0.56548 0.0
C416 C 0.50261 0.11542 0.58491 0.0
C417 C 0.494 0.11205 0.55243 0.0
C418 C 0.46408 0.14528 0.59752 0.0
C419 C 0.47056 0.12512 0.54249 0.0
C420 C 0.48738 0.13192 0.60742 0.0
C421 C 0.45572 0.1423 0.56495 0.0
C422 C 0.52888 0.10378 0.59507 0.0
C423 C 0.56972 1.01501 0.53268 0.0
H424 H 0.65584 0.99989 0.51587 0.0
H425 H 0.7582 1.01985 0.4803 0.0
H426 H 0.69313 0.97192 0.53174 0.0
H427 H 0.7207 0.04813 0.46468 0.0
H428 H 0.50591 0.09989 0.53479 0.0
H429 H 0.4527 0.15812 0.61529 0.0
H430 H 0.46464 0.12259 0.51727 0.0
H431 H 0.49387 0.13494 0.6326 0.0
Eu432 Eu 0.3069 0.32701 0.79352 0.0
Eu433 Eu 0.3714 0.31044 0.79781 0.0
C434 C 0.31167 0.25356 0.80006 0.0
C435 C 0.22723 0.33269 0.81084 0.0
C436 C 0.22922 0.31691 0.83554 0.0
C437 C 0.17803 0.34078 0.82462 0.0
C438 C 0.20579 0.31336 0.85495 0.0
C439 C 0.20144 0.34429 0.80523 0.0
C440 C 0.18013 0.32557 0.84984 0.0
C441 C 0.25257 0.3384 0.79192 0.0
O442 O 0.35858 0.29958 0.74453 0.0
O443 O 0.31464 0.31684 0.74126 0.0
C444 C 0.33579 0.30448 0.72748 0.0
O445 O 0.33696 0.37491 0.7906 0.0
O446 O 0.40222 0.27957 0.78477 0.0
O447 O 0.41887 0.32376 0.81617 0.0
O448 O 0.38337 0.36278 0.7938 0.0
C449 C 0.36679 0.38393 0.79166 0.0
O450 O 0.31952 0.33771 0.84691 0.0
O451 O 0.36354 0.32047 0.84995 0.0
O452 O 0.34147 0.26279 0.80121 0.0
O453 O 0.27616 0.35792 0.8069 0.0
O454 O 0.25963 0.31419 0.77471 0.0
O455 O 0.29487 0.27452 0.79764 0.0
C456 C 0.45094 0.3053 0.77957 0.0
C457 C 0.44551 0.30811 0.74801 0.0
C458 C 0.50445 0.31306 0.77403 0.0
C459 C 0.46937 0.31267 0.72934 0.0
C460 C 0.48052 0.30812 0.79259 0.0
C461 C 0.499 0.31509 0.7422 0.0
C462 C 0.42589 0.29952 0.79899 0.0
C463 C 0.34235 0.33265 0.86382 0.0
H464 H 0.24918 0.30799 0.84023 0.0
H465 H 0.15842 0.35032 0.82021 0.0
H466 H 0.20816 0.30202 0.87455 0.0
H467 H 0.19966 0.35655 0.78626 0.0
H468 H 0.42282 0.30646 0.73772 0.0
H469 H 0.52713 0.31447 0.78427 0.0
H470 H 0.46471 0.31418 0.70485 0.0
H471 H 0.48507 0.30617 0.81696 0.0
Eu472 Eu 0.07566 0.09807 0.56473 0.0
Eu473 Eu 0.09953 0.04018 0.52876 0.0
C474 C 0.14075 0.10701 0.53307 0.0
C475 C 0.06798 0.1773 0.57021 0.0
C476 C 0.07834 0.17234 0.53992 0.0
C477 C 0.07372 0.23162 0.56975 0.0
C478 C 0.0866 0.19664 0.52483 0.0
C479 C 0.06562 0.2071 0.58509 0.0
C480 C 0.08455 0.22654 0.53957 0.0
C481 C 0.06187 0.15118 0.58611 0.0
O482 O 0.12013 0.04554 0.58185 0.0
O483 O 0.09836 0.08332 0.60864 0.0
C484 C 0.11615 0.06296 0.60954 0.0
O485 O 0.03927 0.06068 0.57416 0.0
O486 O 0.132 1.00987 0.52366 0.0
O487 O 0.0903 0.99711 0.49333 0.0
O488 O 0.05429 1.0199 0.54353 0.0
C489 C 0.0349 0.03124 0.56146 0.0
O490 O 0.05383 0.09125 0.51191 0.0
O491 O 0.07837 0.05618 0.48501 0.0
O492 O 0.13738 0.07744 0.52155 0.0
O493 O 0.04231 0.12741 0.57034 0.0
O494 O 0.08586 0.14317 0.59699 0.0
O495 O 0.12039 0.11819 0.54939 0.0
C496 C 0.10554 0.95874 0.51697 0.0
C497 C 0.0754 0.94343 0.51582 0.0
C498 C 0.12005 0.92746 0.55267 0.0
C499 C 0.06758 0.92138 0.53402 0.0
C500 C 0.12791 0.94949 0.53444 0.0
C501 C 0.08969 0.91424 0.55369 0.0
C502 C 0.11294 0.98746 0.50501 0.0
C503 C 0.05928 0.07521 0.48412 0.0
H504 H 0.08061 0.14963 0.52806 0.0
H505 H 0.07214 0.25457 0.58167 0.0
H506 H 0.09467 0.19203 0.50153 0.0
H507 H 0.05795 0.21144 0.60858 0.0
H508 H 0.05754 0.94977 0.50245 0.0
H509 H 0.13758 0.92176 0.56711 0.0
H510 H 0.04403 0.91137 0.53424 0.0
H511 H 0.1513 0.96067 0.5356 0.0
Eu512 Eu 0.36737 0.8373 0.78855 0.0
Eu513 Eu 0.31018 0.80042 0.80748 0.0
C514 C 0.34455 0.85783 0.85864 0.0
C515 C 0.44714 0.85547 0.76876 0.0
C516 C 0.44687 0.82395 0.75931 0.0
C517 C 0.50107 0.86549 0.78062 0.0
C518 C 0.47352 0.81312 0.76224 0.0
C519 C 0.47452 0.87627 0.7775 0.0
C520 C 0.50046 0.83372 0.77514 0.0
C521 C 0.41958 0.86579 0.77758 0.0
O522 O 0.29365 0.84741 0.80024 0.0
O523 O 0.33576 0.87392 0.78475 0.0
C524 C 0.30743 0.87381 0.79243 0.0
O525 O 0.3487 0.80687 0.74064 0.0
O526 O 0.28365 0.7794 0.84103 0.0
O527 O 0.2643 0.77604 0.79283 0.0
O528 O 0.31814 0.77132 0.76059 0.0
C529 C 0.33334 0.77878 0.73741 0.0
O530 O 0.38418 0.79077 0.79664 0.0
O531 O 0.34118 0.76306 0.80875 0.0
O532 O 0.33116 0.82908 0.85523 0.0
O533 O 0.39632 0.85754 0.75626 0.0
O534 O 0.41268 0.86195 0.80571 0.0
O535 O 0.35785 0.86661 0.83488 0.0
C536 C 0.23161 0.77802 0.83222 0.0
C537 C 0.20539 0.75533 0.82439 0.0
C538 C 0.20164 0.81712 0.84235 0.0
C539 C 0.17745 0.76372 0.82309 0.0
C540 C 0.22965 0.80874 0.84332 0.0
C541 C 0.17567 0.79492 0.82958 0.0
C542 C 0.25952 0.77053 0.82094 0.0
C543 C 0.36991 0.76376 0.80258 0.0
H544 H 0.42578 0.80757 0.7525 0.0
H545 H 0.52145 0.88198 0.79063 0.0
H546 H 0.47256 0.78857 0.75715 0.0
H547 H 0.47504 0.90063 0.78505 0.0
H548 H 0.20666 0.73152 0.81573 0.0
H549 H 0.2007 0.84126 0.84786 0.0
H550 H 0.1579 0.74611 0.81294 0.0
H551 H 0.24982 0.82654 0.84945 0.0
Eu552 Eu 0.58813 0.05624 0.08245 0.0
Eu553 Eu 0.58705 0.08503 1.02012 0.0
C554 C 0.58339 0.12525 0.08712 0.0
C555 C 0.56323 0.03626 0.15781 0.0
C556 C 0.54 0.05234 0.15485 0.0
C557 C 0.54376 1.02222 0.20515 0.0
C558 C 0.51901 0.05373 0.17717 0.0
C559 C 0.56489 1.02096 0.18284 0.0
C560 C 0.52082 0.03884 0.2026 0.0
C561 C 0.58564 0.03585 0.13475 0.0
O562 O 0.63715 0.08331 0.02866 0.0
O563 O 0.63829 0.0775 0.08037 0.0
C564 C 0.65272 0.08305 0.05554 0.0
O565 O 0.6043 1.02185 0.04611 0.0
O566 O 0.59478 0.126 1.00018 0.0
O567 O 0.57434 0.08215 0.96986 0.0
O568 O 0.58747 0.03525 1.0008 0.0
C569 C 0.59873 1.01631 1.01515 0.0
O570 O 0.53853 0.04139 0.06156 0.0
O571 O 0.53716 0.07609 0.02996 0.0
O572 O 0.59895 0.12387 0.06263 0.0
O573 O 0.57613 1.01851 0.10673 0.0
O574 O 0.60094 0.0628 0.13314 0.0
O575 O 0.57064 0.09994 0.09504 0.0
C576 C 0.60591 0.11712 0.94701 0.0
C577 C 0.63722 0.12199 0.95378 0.0
C578 C 0.61246 0.11882 0.89205 0.0
C579 C 0.65605 0.12489 0.92966 0.0
C580 C 0.59365 0.1161 0.9162 0.0
C581 C 0.64374 0.12275 0.89852 0.0
C582 C 0.58574 0.11097 0.97122 0.0
C583 C 0.52282 0.05537 0.0444 0.0
H584 H 0.53833 0.06411 0.13546 0.0
H585 H 0.54579 1.01093 0.22486 0.0
H586 H 0.50147 0.06659 0.17471 0.0
H587 H 0.5827 1.00844 0.18534 0.0
H588 H 0.64703 0.12265 0.97745 0.0
H589 H 0.60257 0.11703 0.86812 0.0
H590 H 0.68007 0.12739 0.93502 0.0
H591 H 0.56951 0.11227 0.91065 0.0
Eu592 Eu 0.3531 0.3457 0.31391 0.0
Eu593 Eu 0.31928 0.27903 0.26994 0.0
C594 C 0.33511 0.33765 0.23699 0.0
C595 C 0.36714 0.42845 0.33391 0.0
C596 C 0.34493 0.42293 0.3084 0.0
C597 C 0.37058 0.48318 0.33927 0.0
C598 C 0.33575 0.44714 0.29818 0.0
C599 C 0.38008 0.45864 0.3494 0.0
C600 C 0.34839 0.47741 0.31349 0.0
C601 C 0.37581 0.40182 0.34321 0.0
O602 O 0.36714 0.28867 0.25922 0.0
O603 O 0.38971 0.3186 0.30642 0.0
C604 C 0.39113 0.30055 0.27904 0.0
O605 O 0.34611 0.31707 0.35115 0.0
O606 O 0.32473 0.23494 0.24336 0.0
O607 O 0.28011 0.24552 0.24434 0.0
O608 O 0.32765 0.26888 0.31971 0.0
C609 C 0.33582 0.28745 0.34804 0.0
O610 O 0.30318 0.34551 0.30928 0.0
O611 O 0.28619 0.29407 0.30238 0.0
O612 O 0.31563 0.31203 0.23672 0.0
O613 O 0.35419 0.38426 0.35355 0.0
O614 O 0.38944 0.38608 0.32201 0.0
O615 O 0.35336 0.3515 0.26265 0.0
C616 C 0.28627 0.19513 0.24715 0.0
C617 C 0.2739 0.19507 0.27627 0.0
C618 C 0.30192 0.14741 0.24971 0.0
C619 C 0.27726 0.17218 0.29283 0.0
C620 C 0.29803 0.16986 0.23283 0.0
C621 C 0.29371 0.14989 0.2809 0.0
C622 C 0.29588 0.22418 0.23709 0.0
C623 C 0.2825 0.32209 0.31221 0.0
H624 H 0.33451 0.39972 0.29638 0.0
H625 H 0.38044 0.50651 0.35142 0.0
H626 H 0.31827 0.44217 0.27862 0.0
H627 H 0.39721 0.46315 0.36919 0.0
H628 H 0.26456 0.21426 0.28775 0.0
H629 H 0.31443 0.13024 0.23975 0.0
H630 H 0.26969 0.17355 0.31626 0.0
H631 H 0.30772 0.16953 0.2104 0.0
Eu632 Eu 0.5748 0.59702 0.06483 0.0
Eu633 Eu 0.59767 0.53906 0.02885 0.0
C634 C 0.63868 0.60477 0.03089 0.0
C635 C 0.56971 0.6766 0.06948 0.0
C636 C 0.5825 0.67138 0.0405 0.0
C637 C 0.57592 0.73068 0.06788 0.0
C638 C 0.59232 0.69547 0.0256 0.0
C639 C 0.56633 0.70639 0.08311 0.0
C640 C 0.58944 0.7254 0.03924 0.0
C641 C 0.56185 0.65064 0.0853 0.0
O642 O 0.61957 0.5463 0.08188 0.0
O643 O 0.59626 0.58228 0.10914 0.0
C644 C 0.61497 0.56286 0.10979 0.0
O645 O 0.53802 0.55995 0.07497 0.0
O646 O 0.63112 0.50981 0.02461 0.0
O647 O 0.58766 0.49333 0.99788 0.0
O648 O 0.55078 0.52045 0.04038 0.0
C649 C 0.53232 0.53102 0.05999 0.0
O650 O 0.55394 0.59049 1.01167 0.0
O651 O 0.57659 0.55386 0.98432 0.0
O652 O 0.63275 0.57575 1.01649 0.0
O653 O 0.54226 0.62728 0.06883 0.0
O654 O 0.58494 0.64196 0.09732 0.0
O655 O 0.62105 0.61586 0.05128 0.0
C656 C 0.60508 0.46092 0.02722 0.0
C657 C 0.59075 0.46663 0.05516 0.0
C658 C 0.60491 0.40907 0.03441 0.0
C659 C 0.58303 0.4438 0.0722 0.0
C660 C 0.61228 0.43203 1.0169 0.0
C661 C 0.58986 0.4148 0.06196 0.0
C662 C 0.61152 0.48571 1.00964 0.0
C663 C 0.5584 0.57383 0.98375 0.0
H664 H 0.58524 0.64859 0.02946 0.0
H665 H 0.57327 0.75361 0.07865 0.0
H666 H 0.60204 0.69065 1.00323 0.0
H667 H 0.5566 0.71087 0.1055 0.0
H668 H 0.58531 0.48885 0.06381 0.0
H669 H 0.61056 0.38682 0.0263 0.0
H670 H 0.57192 0.44891 0.09364 0.0
H671 H 0.62344 0.42725 0.99546 0.0
Eu672 Eu 0.86814 0.33811 0.28632 0.0
Eu673 Eu 0.81193 0.30215 0.3083 0.0
C674 C 0.8471 0.36106 0.35701 0.0
C675 C 0.94825 0.36034 0.26524 0.0
C676 C 0.97427 0.38283 0.27604 0.0
C677 C 0.97844 0.32122 0.25769 0.0
C678 C 1.00189 0.37425 0.28009 0.0
C679 C 0.95064 0.32972 0.25413 0.0
C680 C 1.00362 0.34306 0.27329 0.0
C681 C 0.91949 0.36769 0.27405 0.0
O682 O 0.79467 0.34815 0.29912 0.0
O683 O 0.83656 0.37483 0.28353 0.0
C684 C 0.80823 0.37451 0.29118 0.0
O685 O 0.84734 0.30736 0.23927 0.0
O686 O 0.78669 0.28352 0.34418 0.0
O687 O 0.76581 0.2775 0.29612 0.0
O688 O 0.81879 0.27197 0.26136 0.0
C689 C 0.83264 0.27916 0.23716 0.0
O690 O 0.88474 0.29119 0.29372 0.0
O691 O 0.84311 0.26501 0.31026 0.0
O692 O 0.83381 0.33251 0.35506 0.0
O693 O 0.89615 0.35782 0.25289 0.0
O694 O 0.91343 0.36334 0.30225 0.0
O695 O 0.85974 0.3686 0.33239 0.0
C696 C 0.73517 0.2848 0.33726 0.0
C697 C 0.73048 0.31385 0.33452 0.0
C698 C 0.6829 0.27008 0.346 0.0
C699 C 0.70152 0.31975 0.33408 0.0
C700 C 0.71183 0.26375 0.34533 0.0
C701 C 0.67697 0.29682 0.33702 0.0
C702 C 0.76182 0.27456 0.32524 0.0
C703 C 0.87111 0.26491 0.30183 0.0
H704 H 0.97273 0.40656 0.28477 0.0
H705 H 0.97965 0.29724 0.25137 0.0
H706 H 1.02101 0.3916 0.29202 0.0
H707 H 0.9307 0.31204 0.24572 0.0
H708 H 0.74851 0.33066 0.32902 0.0
H709 H 0.66464 0.25238 0.34957 0.0
H710 H 0.69829 0.34066 0.32726 0.0
H711 H 0.71529 0.2414 0.34817 0.0
Eu712 Eu 0.09072 0.55981 0.5841 0.0
Eu713 Eu 0.09098 0.58828 0.52158 0.0
C714 C 0.08599 0.62929 0.58835 0.0
C715 C 0.06006 0.53793 0.65564 0.0
C716 C 0.03807 0.55509 0.65105 0.0
C717 C 0.03345 0.5199 0.69759 0.0
C718 C 1.01423 0.5551 0.66996 0.0
C719 C 0.05747 0.52 0.67867 0.0
C720 C 1.01184 0.53772 0.69356 0.0
C721 C 0.08496 0.53841 0.63552 0.0
O722 O 0.14117 0.58703 0.53156 0.0
O723 O 0.14111 0.58049 0.58307 0.0
C724 C 0.15612 0.58628 0.55867 0.0
O725 O 0.10949 0.52653 0.54921 0.0
O726 O 0.10333 0.62702 0.4989 0.0
O727 O 0.07398 0.58541 0.47249 0.0
O728 O 0.09262 0.53854 0.50311 0.0
C729 C 0.10468 0.52058 0.51821 0.0
O730 O 0.04212 0.54365 0.56072 0.0
O731 O 0.04105 0.58041 0.53187 0.0
O732 O 0.10071 0.62817 0.56322 0.0
O733 O 0.07806 0.52123 0.60702 0.0
O734 O 0.10041 0.56571 0.63527 0.0
O735 O 0.07389 0.60396 0.59672 0.0
C736 C 0.10633 0.61407 0.44398 0.0
C737 C 0.1352 0.60733 0.44407 0.0
C738 C 0.10954 0.62323 0.39069 0.0
C739 C 0.15121 0.60861 0.41758 0.0
C740 C 0.09359 0.62212 0.4173 0.0
C741 C 0.13841 0.61634 0.39064 0.0
C742 C 0.08922 0.61246 0.47145 0.0
C743 C 1.02646 0.5586 0.54481 0.0
H744 H 0.03949 0.5687 0.63298 0.0
H745 H 0.0323 0.50671 0.71602 0.0
H746 H 0.99781 0.56896 0.66641 0.0
H747 H 0.07415 0.50644 0.68226 0.0
H748 H 0.14525 0.60093 0.46452 0.0
H749 H 0.09941 0.6295 0.37022 0.0
H750 H 0.17337 0.60299 0.41789 0.0
H751 H 0.07129 0.6274 0.41701 0.0
Eu752 Eu 0.80632 0.82707 0.29346 0.0
Eu753 Eu 0.87104 0.80961 0.29193 0.0
C754 C 0.81069 0.75341 0.29697 0.0
C755 C 0.73057 0.8379 0.32027 0.0
C756 C 0.73069 0.81661 0.33991 0.0
C757 C 0.68839 0.85447 0.34542 0.0
C758 C 0.70969 0.81428 0.36223 0.0
C759 C 0.70926 0.85667 0.32304 0.0
C760 C 0.68863 0.83351 0.36544 0.0
C761 C 0.75366 0.84198 0.29825 0.0
O762 O 0.85724 0.80613 0.23963 0.0
O763 O 0.80859 0.81279 0.24048 0.0
C764 C 0.83131 0.80651 0.22471 0.0
O765 O 0.83705 0.87467 0.29007 0.0
O766 O 0.89895 0.77676 0.27485 0.0
O767 O 0.91947 0.82 0.30622 0.0
O768 O 0.8835 0.86233 0.29033 0.0
C769 C 0.86679 0.88363 0.28986 0.0
O770 O 0.81981 0.83066 0.34548 0.0
O771 O 0.86785 0.8222 0.34509 0.0
O772 O 0.84028 0.762 0.29535 0.0
O773 O 0.77885 0.86037 0.3107 0.0
O774 O 0.75798 0.81713 0.27958 0.0
O775 O 0.79406 0.77486 0.29711 0.0
C776 C 0.94844 0.79942 0.26671 0.0
C777 C 0.97819 0.81074 0.28028 0.0
C778 C 0.96605 0.79539 0.21409 0.0
C779 C 1.00172 0.81417 0.26094 0.0
C780 C 0.94251 0.79207 0.23343 0.0
C781 C 0.9959 0.80613 0.22768 0.0
C782 C 0.92405 0.79527 0.28756 0.0
C783 C 0.84515 0.82909 0.3606 0.0
H784 H 0.74726 0.80212 0.33825 0.0
H785 H 0.67199 0.86914 0.34707 0.0
H786 H 0.71026 0.79795 0.3774 0.0
H787 H 0.70897 0.87328 0.30814 0.0
H788 H 0.98324 0.81664 0.30588 0.0
H789 H 0.96093 0.78949 0.18851 0.0
H790 H 1.02456 0.82242 0.27198 0.0
H791 H 0.91974 0.78351 0.22232 0.0
Eu792 Eu 0.8628 0.34537 0.78671 0.0
Eu793 Eu 0.81617 0.31851 0.83533 0.0
C794 C 0.79227 0.34445 0.77694 0.0
C795 C 0.88683 0.38692 0.72294 0.0
C796 C 0.86573 0.40605 0.72837 0.0
C797 C 0.88835 0.39541 0.66914 0.0
C798 C 0.85607 0.41973 0.70442 0.0
C799 C 0.89823 0.38189 0.69324 0.0
C800 C 0.86695 0.41417 0.67447 0.0
C801 C 0.89531 0.3707 0.74742 0.0
O802 O 0.8351 0.28032 0.80778 0.0
O803 O 0.83865 0.29801 0.76204 0.0
C804 C 0.83629 0.27545 0.77702 0.0
O805 O 0.89106 0.32239 0.81561 0.0
O806 O 0.78082 0.28207 0.84379 0.0
O807 O 0.79969 0.32093 0.88208 0.0
O808 O 0.86289 0.32427 0.85835 0.0
C809 C 0.88768 0.3203 0.84534 0.0
O810 O 0.86999 0.37718 0.83449 0.0
O811 O 0.82158 0.36975 0.84723 0.0
O812 O 0.78688 0.32314 0.79369 0.0
O813 O 0.89395 0.38428 0.77676 0.0
O814 O 0.88388 0.34137 0.74204 0.0
O815 O 0.81942 0.36026 0.77639 0.0
C816 C 0.79183 0.27225 0.89411 0.0
C817 C 0.81974 0.26329 0.89176 0.0
C818 C 0.78214 0.2443 0.93619 0.0
C819 C 0.82908 0.24555 0.91192 0.0
C820 C 0.77294 0.26249 0.91624 0.0
C821 C 0.81044 0.23612 0.93439 0.0
C822 C 0.78372 0.29302 0.87443 0.0
C823 C 0.84862 0.38673 0.85037 0.0
H824 H 0.85627 0.41003 0.75097 0.0
H825 H 0.89735 0.39114 0.64631 0.0
H826 H 0.83951 0.43403 0.70903 0.0
H827 H 0.9144 0.36714 0.68854 0.0
H828 H 0.83456 0.27051 0.87468 0.0
H829 H 0.76751 0.2372 0.95348 0.0
H830 H 0.85095 0.2394 0.91016 0.0
H831 H 0.75136 0.26924 0.91836 0.0
Eu832 Eu 0.85485 0.84956 0.81246 0.0
Eu833 Eu 0.81883 0.78243 0.77101 0.0
C834 C 0.83826 0.83855 0.7351 0.0
C835 C 0.87563 0.93236 0.82857 0.0
C836 C 0.85511 0.92746 0.80169 0.0
C837 C 0.88187 0.98728 0.83286 0.0
C838 C 0.8482 0.95202 0.79023 0.0
C839 C 0.88928 0.96234 0.84411 0.0
C840 C 0.8613 0.98211 0.80577 0.0
C841 C 0.88108 0.90538 0.83982 0.0
O842 O 0.8663 0.78962 0.75902 0.0
O843 O 0.88943 0.8198 0.80586 0.0
C844 C 0.89053 0.80155 0.77846 0.0
O845 O 0.84353 0.82317 0.85068 0.0
O846 O 0.82077 0.7364 0.74642 0.0
O847 O 0.77781 0.7508 0.74718 0.0
O848 O 0.82865 0.77384 0.82113 0.0
C849 C 0.8346 0.79358 0.84895 0.0
O850 O 0.80576 0.85261 0.80662 0.0
O851 O 0.78651 0.80165 0.8018 0.0
O852 O 0.81804 0.8136 0.73538 0.0
O853 O 0.85769 0.89029 0.8501 0.0
O854 O 0.89391 0.88724 0.8201 0.0
O855 O 0.85603 0.85307 0.76081 0.0
C856 C 0.78008 0.70062 0.75374 0.0
C857 C 0.77325 0.70456 0.78548 0.0
C858 C 0.78915 0.65008 0.75547 0.0
C859 C 0.7765 0.68217 0.80272 0.0
C860 C 0.78558 0.6723 0.73816 0.0
C861 C 0.78716 0.6561 0.78845 0.0
C862 C 0.79159 0.72772 0.74111 0.0
C863 C 0.78374 0.83022 0.80916 0.0
H864 H 0.8438 0.90449 0.78991 0.0
H865 H 0.89169 1.01046 0.84551 0.0
H866 H 0.83152 0.94748 0.76998 0.0
H867 H 0.90495 0.96641 0.86511 0.0
H868 H 0.76901 0.72633 0.79801 0.0
H869 H 0.79716 0.63003 0.74384 0.0
H870 H 0.77413 0.68687 0.82798 0.0
H871 H 0.79104 0.66895 0.71373 0.0
Eu872 Eu 0.60801 0.60294 0.56078 0.0
Eu873 Eu 0.57455 0.53641 0.53406 0.0
C874 C 0.61801 0.56812 0.48404 0.0
C875 C 0.6197 0.6868 0.59553 0.0
C876 C 0.59159 0.68128 0.60756 0.0
C877 C 0.6136 0.73792 0.59258 0.0
C878 C 0.57359 0.70326 0.60967 0.0
C879 C 0.63157 0.71596 0.59041 0.0
C880 C 0.58359 0.73058 0.59949 0.0
C881 C 0.63201 0.66083 0.57988 0.0
O882 O 0.62518 0.53218 0.53934 0.0
O883 O 0.64817 0.57993 0.56611 0.0
C884 C 0.6503 0.55208 0.55177 0.0
O885 O 0.58634 0.59364 0.60744 0.0
O886 O 0.54983 0.49783 0.49736 0.0
O887 O 0.5609 0.49164 0.54506 0.0
O888 O 0.55602 0.54773 0.58521 0.0
C889 C 0.56368 0.57132 0.61034 0.0
O890 O 0.55747 0.60687 0.55788 0.0
O891 O 0.5346 0.56016 0.52818 0.0
O892 O 0.59589 0.54548 0.48731 0.0
O893 O 0.63543 0.64032 0.59651 0.0
O894 O 0.61928 0.64857 0.55109 0.0
O895 O 0.62551 0.59192 0.509 0.0
C896 C 0.56378 0.45142 0.50336 0.0
C897 C 0.5948 0.4535 0.50915 0.0
C898 C 0.55681 0.39602 0.49065 0.0
C899 C 0.60621 0.42717 0.50933 0.0
C900 C 0.5451 0.42263 0.49186 0.0
C901 C 0.58677 0.39822 0.50289 0.0
C902 C 0.55093 0.47823 0.51567 0.0
C903 C 0.53244 0.58748 0.54432 0.0
H904 H 0.58217 0.65881 0.61173 0.0
H905 H 0.62185 0.75891 0.58466 0.0
H906 H 0.55067 0.69749 0.61544 0.0
H907 H 0.65322 0.7205 0.58108 0.0
H908 H 0.60971 0.47556 0.51724 0.0
H909 H 0.54166 0.37394 0.48329 0.0
H910 H 0.62956 0.43012 0.51825 0.0
H911 H 0.52116 0.42064 0.48636 0.0
Eu912 Eu 0.10158 0.55699 1.02309 0.0
Eu913 Eu 0.0546 0.58268 0.07284 0.0
C914 C 0.11521 0.56588 0.09718 0.0
C915 C 0.16789 0.52111 1.00228 0.0
C916 C 0.18072 0.53133 0.03393 0.0
C917 C 0.20292 0.48645 0.99305 0.0
C918 C 0.2045 0.51923 0.04503 0.0
C919 C 0.1792 0.49863 0.98193 0.0
C920 C 0.21583 0.49657 0.02473 0.0
C921 C 0.14116 0.53188 0.99132 0.0
O922 O 0.07758 0.62206 0.05332 0.0
O923 O 0.12214 0.60616 0.04641 0.0
C924 C 0.10644 0.62794 0.05014 0.0
O925 O 0.07211 0.5768 0.99209 0.0
O926 O 0.04344 0.61647 0.11155 0.0
O927 O 1.01044 0.57518 0.09058 0.0
O928 O 0.03277 0.57879 0.02376 0.0
C929 C 0.04471 0.58131 0.99705 0.0
O930 O 0.05699 0.52436 1.01597 0.0
O931 O 0.05027 0.53191 0.0683 0.0
O932 O 0.09805 0.58628 0.10197 0.0
O933 O 0.11547 0.51642 0.99664 0.0
O934 O 0.1423 0.56146 0.99824 0.0
O935 O 0.11234 0.54583 0.07034 0.0
C936 C 0.99249 0.62089 0.10351 0.0
C937 C 0.99938 0.64621 0.08905 0.0
C938 C 0.93988 0.62481 0.09982 0.0
C939 C 0.97659 0.66038 0.07963 0.0
C940 C 0.9627 0.61081 0.1095 0.0
C941 C 0.94646 0.64909 0.08386 0.0
C942 C 1.01522 0.6026 0.10879 0.0
C943 C 0.04591 0.5141 0.03999 0.0
H944 H 0.17199 0.54828 0.05024 0.0
H945 H 0.2112 0.46905 0.97685 0.0
H946 H 0.21353 0.52707 0.0697 0.0
H947 H 0.16937 0.49015 0.95758 0.0
H948 H 1.02214 0.6543 0.08382 0.0
H949 H 0.91697 0.61622 0.10423 0.0
H950 H 0.98234 0.67912 0.06749 0.0
H951 H 0.95692 0.59133 0.1206 0.0
C952 C 0.03982 0.25632 0.0435 0.0
C953 C 0.05093 0.28781 0.04618 0.0
C954 C 0.05103 0.24053 0.06473 0.0
C955 C 0.0739 0.25573 0.0891 0.0
H956 H 1.024 0.24331 0.0236 0.0
H957 H 0.04393 0.21577 0.05996 0.0
S958 S 0.1053 0.33917 0.11078 0.0
N959 N 0.08183 0.3347 0.07876 0.0
N960 N 0.10334 0.30453 0.11817 0.0
C961 C 0.08258 0.28771 0.09426 0.0
C962 C 0.07098 0.30391 0.07286 0.0
C963 C 0.2514 0.84421 0.19946 0.0
C964 C 0.22173 0.83061 0.20315 0.0
C965 C 0.27479 0.84771 0.22336 0.0
C966 C 0.26935 0.83757 0.25172 0.0
H967 H 0.25678 0.85151 0.17764 0.0
H968 H 0.29746 0.8573 0.21898 0.0
S969 S 0.1951 0.80367 0.27459 0.0
N970 N 0.18781 0.80935 0.23855 0.0
N971 N 0.23174 0.81582 0.28326 0.0
C972 C 0.23958 0.82524 0.25629 0.0
C973 C 0.21578 0.82179 0.23206 0.0
C974 C 0.52434 0.93557 0.50069 0.0
C975 C 0.54082 0.91792 0.51557 0.0
C976 C 0.532 0.96774 0.5083 0.0
C977 C 0.55633 0.98279 0.53083 0.0
H978 H 0.50695 0.92457 0.48151 0.0
H979 H 0.52045 0.9807 0.49481 0.0
S980 S 0.60212 0.94743 0.58115 0.0
N981 N 0.57907 0.91812 0.55759 0.0
N982 N 0.59363 0.97845 0.57136 0.0
C983 C 0.5709 0.96556 0.54798 0.0
C984 C 0.56305 0.93304 0.54049 0.0
C985 C 0.54758 0.29531 0.67592 0.0
C986 C 0.57372 0.31837 0.68454 0.0
C987 C 0.52304 0.29512 0.69412 0.0
C988 C 0.52402 0.31768 0.72186 0.0
H989 H 0.54623 0.27699 0.65518 0.0
H990 H 0.50358 0.27658 0.68704 0.0
S991 S 0.58648 0.38383 0.75398 0.0
N992 N 0.59856 0.36514 0.72189 0.0
N993 N 0.55245 0.36441 0.75642 0.0
C994 C 0.54964 0.34129 0.73035 0.0
C995 C 0.57448 0.34177 0.71155 0.0
C996 C 0.05297 0.84828 0.58997 0.0
C997 C 0.06322 0.85864 0.62245 0.0
C998 C 0.06154 0.86632 0.56776 0.0
C999 C 0.08084 0.89524 0.57723 0.0
H1000 H 0.03863 0.82585 0.5815 0.0
H1001 H 0.0534 0.85739 0.54295 0.0
S1002 S 0.11167 0.93426 0.65967 0.0
N1003 N 0.09225 0.90068 0.66311 0.0
N1004 N 0.10813 0.93443 0.62141 0.0
C1005 C 0.09058 0.90622 0.60968 0.0
C1006 C 0.08181 0.88798 0.63228 0.0
C1007 C 0.57906 0.83695 0.80925 0.0
C1008 C 0.57375 0.82156 0.83431 0.0
C1009 C 0.55552 0.83766 0.78723 0.0
C1010 C 0.52586 0.82316 0.78968 0.0
H1011 H 0.60112 0.85041 0.80792 0.0
H1012 H 0.56012 0.85179 0.76986 0.0
S1013 S 0.50134 0.77463 0.84721 0.0
N1014 N 0.53779 0.78717 0.8571 0.0
N1015 N 0.4933 0.78913 0.8163 0.0
C1016 C 0.52094 0.80473 0.81238 0.0
C1017 C 0.545 0.80382 0.83465 0.0
C1018 C 0.54683 0.18497 0.13608 0.0
C1019 C 0.56635 0.21272 0.13535 0.0
C1020 C 0.55289 0.1567 0.12101 0.0
C1021 C 0.57841 0.15524 0.10421 0.0
H1022 H 0.52694 0.18501 0.14878 0.0
H1023 H 0.53719 0.1359 0.12214 0.0
S1024 S 0.63641 0.22144 0.09493 0.0
N1025 N 0.61222 0.23708 0.11655 0.0
N1026 N 0.62337 0.18402 0.08776 0.0
C1027 C 0.59801 0.18286 0.10313 0.0
C1028 C 0.59204 0.2116 0.11883 0.0
C1029 C 0.23116 0.36051 0.36659 0.0
C1030 C 0.20921 0.33548 0.37039 0.0
C1031 C 0.25428 0.35625 0.3469 0.0
C1032 C 0.25624 0.32679 0.33021 0.0
H1033 H 0.23049 0.38362 0.37885 0.0
H1034 H 0.27096 0.37614 0.34519 0.0
S1035 S 0.20375 0.25362 0.33162 0.0
N1036 N 0.19073 0.28023 0.35562 0.0
N1037 N 0.23355 0.27214 0.31845 0.0
C1038 C 0.2341 0.3016 0.33357 0.0
C1039 C 0.2108 0.30595 0.35372 0.0
C1040 C 1.00102 0.05614 0.17413 0.0
C1041 C 1.0105 0.07933 0.20262 0.0
C1042 C 1.01726 0.05337 0.14571 0.0
C1043 C 0.04458 0.07374 0.14243 0.0
H1044 H 0.98054 0.03943 0.17367 0.0
H1045 H 1.00781 0.03487 0.12569 0.0
S1046 S 0.08007 0.13967 0.20858 0.0
N1047 N 0.05034 0.12353 0.22398 0.0
N1048 N 0.07933 0.11904 0.17229 0.0
C1049 C 0.05408 0.09723 0.17062 0.0
C1050 C 0.0378 0.09976 0.19969 0.0
C1051 C 0.33553 0.67561 0.47444 0.0
C1052 C 0.34997 0.69053 0.50473 0.0
C1053 C 0.32629 0.69236 0.45296 0.0
C1054 C 0.33101 0.72455 0.46112 0.0
H1055 H 0.33035 0.65078 0.46764 0.0
H1056 H 0.31446 0.67999 0.43024 0.0
S1057 S 0.37101 0.77484 0.53564 0.0
N1058 N 0.37093 0.73963 0.54052 0.0
N1059 N 0.35344 0.77093 0.50004 0.0
C1060 C 0.34665 0.73983 0.49062 0.0
C1061 C 0.35622 0.72286 0.51243 0.0
C1062 C 0.66054 0.07353 0.67603 0.0
C1063 C 0.68836 0.0644 0.67276 0.0
C1064 C 0.63962 0.06932 0.64976 0.0
C1065 C 0.64591 0.05611 0.61921 0.0
H1066 H 0.65543 0.08539 0.69885 0.0
H1067 H 0.61936 0.07846 0.6532 0.0
S1068 S 0.71311 1.02328 0.59886 0.0
N1069 N 0.71935 0.03773 0.63746 0.0
N1070 N 0.67998 0.0299 0.58777 0.0
C1071 C 0.67249 0.04446 0.61602 0.0
C1072 C 0.69375 0.04855 0.64291 0.0
C1073 C 0.32989 0.37408 0.94722 0.0
C1074 C 0.35124 0.36648 0.96776 0.0
C1075 C 0.32669 0.36237 0.91413 0.0
C1076 C 0.34495 0.34268 0.8996 0.0
H1077 H 0.31552 0.38955 0.95675 0.0
H1078 H 0.31012 0.36952 0.89977 0.0
S1079 S 0.40388 0.31471 0.94263 0.0
N1080 N 0.39041 0.33707 0.97105 0.0
N1081 N 0.38484 0.3154 0.90907 0.0
C1082 C 0.36613 0.33444 0.91994 0.0
C1083 C 0.36914 0.34618 0.95382 0.0
C1084 C 1.00218 0.09526 0.41979 0.0
C1085 C 1.0117 0.08542 0.38902 0.0
C1086 C 1.01738 0.09239 0.44938 0.0
C1087 C 0.04325 0.07869 0.45125 0.0
H1088 H 0.98255 0.10564 0.42125 0.0
H1089 H 1.00824 0.10083 0.47129 0.0
S1090 S 0.07838 0.04835 0.3785 0.0
N1091 N 0.05006 0.06119 0.36377 0.0
N1092 N 0.07713 0.05512 0.41744 0.0
C1093 C 0.05286 0.06857 0.42063 0.0
C1094 C 0.03774 0.07205 0.39057 0.0
C1095 C 0.35571 0.7384 0.65752 0.0
C1096 C 0.34714 0.70679 0.65748 0.0
C1097 C 0.35066 0.76138 0.68287 0.0
C1098 C 0.33633 0.75399 0.70931 0.0
H1099 H 0.3666 0.74556 0.63778 0.0
H1100 H 0.35821 0.7852 0.68172 0.0
S1101 S 0.30922 0.67457 0.72095 0.0
N1102 N 0.32356 0.66947 0.68643 0.0
N1103 N 0.31374 0.71209 0.73355 0.0
C1104 C 0.32744 0.72237 0.70941 0.0
C1105 C 0.33291 0.69902 0.68375 0.0
C1106 C 0.67509 0.09167 0.82255 0.0
C1107 C 0.70136 0.11364 0.82263 0.0
C1108 C 0.65621 0.09538 0.84683 0.0
C1109 C 0.66309 0.12101 0.87223 0.0
H1110 H 0.66903 0.07138 0.8036 0.0
H1111 H 0.63643 0.07765 0.84612 0.0
S1112 S 0.72891 0.1853 0.88344 0.0
N1113 N 0.73311 0.16222 0.84992 0.0
N1114 N 0.69753 0.16897 0.89598 0.0
C1115 C 0.68913 0.1433 0.87258 0.0
C1116 C 0.70826 0.13971 0.8476 0.0
C1117 C 0.33361 0.34394 0.1486 0.0
C1118 C 0.34875 0.3744 0.1498 0.0
C1119 C 0.32844 0.33245 0.1766 0.0
C1120 C 0.33838 0.35074 0.20727 0.0
H1121 H 0.32568 0.32872 0.1258 0.0
H1122 H 0.3171 0.30878 0.1741 0.0
S1123 S 0.37815 0.43254 0.22396 0.0
N1124 N 0.37271 0.42285 0.18482 0.0
N1125 N 0.36351 0.4015 0.23663 0.0
C1126 C 0.35325 0.38134 0.2087 0.0
C1127 C 0.35827 0.39305 0.18032 0.0
C1128 C 0.2109 1.00543 0.02602 0.0
C1129 C 0.23843 0.0273 0.0338 0.0
C1130 C 0.18224 1.01297 0.03214 0.0
C1131 C 0.17889 0.04287 0.04686 0.0
H1132 H 0.21137 0.98195 1.01489 0.0
H1133 H 0.16239 0.99502 0.02502 0.0
S1134 S 0.24337 0.10933 0.07214 0.0
N1135 N 0.25969 0.08074 0.05719 0.0
N1136 N 0.20694 0.09474 0.0687 0.0
C1137 C 0.2063 0.06497 0.05486 0.0
C1138 C 0.23548 0.05731 0.04843 0.0
C1139 C 0.69612 0.67847 0.03209 0.0
C1140 C 0.72121 0.66779 1.0199 0.0
C1141 C 0.6695 0.65801 0.03492 0.0
C1142 C 0.66657 0.62588 0.02539 0.0
H1143 H 0.69728 0.70286 0.04033 0.0
H1144 H 0.65117 0.66758 0.04503 0.0
S1145 S 0.72515 0.58602 0.99029 0.0
N1146 N 0.74095 0.62282 0.99709 0.0
N1147 N 0.69108 0.58457 1.0021 0.0
C1148 C 0.69119 0.61494 1.01223 0.0
C1149 C 0.7184 0.63578 1.00961 0.0
C1150 C 0.7946 0.46317 0.29443 0.0
C1151 C 0.76281 0.46345 0.29416 0.0
C1152 C 0.80822 0.43573 0.29302 0.0
C1153 C 0.79211 0.40475 0.29176 0.0
H1154 H 0.80976 0.48487 0.29559 0.0
H1155 H 0.83246 0.43925 0.29332 0.0
S1156 S 0.70795 0.38963 0.29005 0.0
N1157 N 0.71593 0.42701 0.2918 0.0
N1158 N 0.74038 0.37808 0.2902 0.0
C1159 C 0.76029 0.40471 0.29168 0.0
C1160 C 0.74636 0.43259 0.29255 0.0
C1161 C 0.94159 0.5529 0.51627 0.0
C1162 C 0.92526 0.53572 0.53609 0.0
C1163 C 0.97381 0.56046 0.51929 0.0
C1164 C 0.99177 0.5509 0.54198 0.0
H1165 H 0.92941 0.56049 0.49803 0.0
H1166 H 0.98474 0.57361 0.50327 0.0
S1167 S 0.96077 0.5062 0.60063 0.0
N1168 N 0.93054 0.51026 0.58014 0.0
N1169 N 0.98972 0.52369 0.58522 0.0
C1170 C 0.97564 0.53391 0.56202 0.0
C1171 C 0.94302 0.52659 0.55924 0.0
C1172 C 0.32835 0.08892 0.30803 0.0
C1173 C 0.34875 0.10607 0.33398 0.0
C1174 C 0.30851 0.10263 0.29246 0.0
C1175 C 0.30813 0.13392 0.30244 0.0
H1176 H 0.32876 0.06506 0.29847 0.0
H1177 H 0.29457 0.08909 0.27139 0.0
S1178 S 0.35401 0.18799 0.37184 0.0
N1179 N 0.36497 0.15515 0.37117 0.0
N1180 N 0.32782 0.18111 0.34175 0.0
C1181 C 0.32664 0.15076 0.32996 0.0
C1182 C 0.34695 0.13678 0.34578 0.0
C1183 C 0.38398 0.15455 0.52402 0.0
C1184 C 0.38511 0.18614 0.53496 0.0
C1185 C 0.40719 0.14061 0.53329 0.0
C1186 C 0.43202 0.15765 0.55438 0.0
H1187 H 0.36486 0.14041 0.50845 0.0
H1188 H 0.40535 0.11617 0.52456 0.0
S1189 S 0.44619 0.24113 0.58933 0.0
N1190 N 0.41368 0.23419 0.56742 0.0
N1191 N 0.45694 0.20784 0.58507 0.0
C1192 C 0.43365 0.18929 0.56513 0.0
C1193 C 0.41031 0.20358 0.55533 0.0
C1194 C 0.79777 0.66243 0.29717 0.0
C1195 C 0.76656 0.65226 0.30063 0.0
C1196 C 0.81152 0.69398 0.29622 0.0
C1197 C 0.79552 0.7187 0.29851 0.0
H1198 H 0.81208 0.64567 0.29504 0.0
H1199 H 0.83534 0.69894 0.29345 0.0
S1200 S 0.7132 0.70637 0.30817 0.0
N1201 N 0.7205 0.67178 0.30657 0.0
N1202 N 0.74536 0.72882 0.30475 0.0
C1203 C 0.76434 0.70879 0.30204 0.0
C1204 C 0.7504 0.67678 0.30309 0.0
C1205 C 0.84622 0.46979 0.86983 0.0
C1206 C 0.87692 0.48232 0.879 0.0
C1207 C 0.83552 0.43801 0.86449 0.0
C1208 C 0.85537 0.41844 0.86841 0.0
H1209 H 0.8312 0.48402 0.86334 0.0
H1210 H 0.81269 0.42864 0.85382 0.0
S1211 S 0.93541 0.4411 0.90076 0.0
N1212 N 0.92522 0.47372 0.89831 0.0
N1213 N 0.90501 0.41403 0.88865 0.0
C1214 C 0.88481 0.43124 0.88224 0.0
C1215 C 0.8957 0.46335 0.88743 0.0
C1216 C 0.13727 0.85063 0.0329 0.0
C1217 C 0.15263 0.86698 0.06233 0.0
C1218 C 0.12354 0.86568 1.01251 0.0
C1219 C 0.12557 0.89757 1.02059 0.0
H1220 H 0.13336 0.82577 0.02692 0.0
H1221 H 0.10943 0.85212 0.99156 0.0
S1222 S 0.16806 0.95122 0.09208 0.0
N1223 N 0.17249 0.91691 0.09655 0.0
N1224 N 0.14742 0.94544 0.05786 0.0
C1225 C 0.14369 0.91446 0.04825 0.0
C1226 C 0.15707 0.89907 0.06929 0.0
C1227 C 0.96514 0.30993 0.87338 0.0
C1228 C 0.96282 0.30964 0.90572 0.0
C1229 C 0.94048 0.31232 0.85365 0.0
C1230 C 0.91273 0.31491 0.86568 0.0
H1231 H 0.98643 0.3092 0.86343 0.0
H1232 H 0.94354 0.31309 0.82907 0.0
S1233 S 0.89509 0.31469 0.9489 0.0
N1234 N 0.93053 0.31113 0.94875 0.0
N1235 N 0.88433 0.31606 0.91217 0.0
C1236 C 0.90995 0.3136 0.89787 0.0
C1237 C 0.93495 0.31082 0.91776 0.0
C1238 C 0.66362 0.20228 0.61883 0.0
C1239 C 0.66557 0.22414 0.59977 0.0
C1240 C 0.65571 0.17103 0.60527 0.0
C1241 C 0.64917 0.16064 0.5722 0.0
H1242 H 0.66605 0.20941 0.64452 0.0
H1243 H 0.65257 0.15504 0.62102 0.0
S1244 S 0.65666 0.20864 0.51171 0.0
N1245 N 0.66499 0.23347 0.54611 0.0
N1246 N 0.64965 0.17431 0.52043 0.0
C1247 C 0.65439 0.18206 0.55266 0.0
C1248 C 0.66271 0.21405 0.56655 0.0
C1249 C 0.62427 0.80209 0.4097 0.0
C1250 C 0.61918 0.82876 0.42982 0.0
C1251 C 0.64764 0.80354 0.38978 0.0
C1252 C 0.66661 0.83169 0.38933 0.0
H1253 H 0.60936 0.78017 0.4083 0.0
H1254 H 0.65006 0.78273 0.37365 0.0
S1255 S 0.66561 0.90731 0.44077 0.0
N1256 N 0.63715 0.88361 0.45045 0.0
N1257 N 0.681 0.88614 0.41309 0.0
C1258 C 0.6629 0.85816 0.41066 0.0
C1259 C 0.63921 0.85673 0.43092 0.0
C1260 C 0.13084 0.27703 0.49219 0.0
C1261 C 0.11093 0.29511 0.4838 0.0
C1262 C 0.12246 0.25568 0.51116 0.0
C1263 C 0.09405 0.25193 0.52295 0.0
H1264 H 0.15272 0.27858 0.48316 0.0
H1265 H 0.13812 0.24149 0.51607 0.0
S1266 S 0.03434 0.29497 0.50968 0.0
N1267 N 0.06195 0.30883 0.49 0.0
N1268 N 0.04645 0.26884 0.52597 0.0
C1269 C 0.07438 0.27069 0.51586 0.0
C1270 C 0.08274 0.29221 0.49618 0.0
C1271 C 0.60999 0.2697 0.27643 0.0
C1272 C 0.60217 0.29735 0.27256 0.0
C1273 C 0.63203 0.2693 0.30004 0.0
C1274 C 0.64695 0.29654 0.32111 0.0
H1275 H 0.60063 0.24837 0.25967 0.0
H1276 H 0.63914 0.24774 0.29962 0.0
S1277 S 0.6282 0.37355 0.32643 0.0
N1278 N 0.60665 0.35172 0.29506 0.0
N1279 N 0.64734 0.35082 0.34082 0.0
C1280 C 0.63652 0.32374 0.31998 0.0
C1281 C 0.61439 0.32423 0.29531 0.0
C1282 C 0.63264 0.9454 0.99301 0.0
C1283 C 0.62105 0.93331 0.96122 0.0
C1284 C 0.62525 0.9722 1.01016 0.0
C1285 C 0.60625 0.98818 0.99607 0.0
H1286 H 0.64698 0.93369 1.00503 0.0
H1287 H 0.63457 0.9804 0.03471 0.0
S1288 S 0.5714 0.96684 0.91265 0.0
N1289 N 0.59055 0.93983 0.91579 0.0
N1290 N 0.57686 0.99036 0.94787 0.0
C1291 C 0.59514 0.97673 0.96396 0.0
C1292 C 0.60246 0.94926 0.94659 0.0
C1293 C 0.96779 0.82589 0.75318 0.0
C1294 C 0.9699 0.80061 0.72907 0.0
C1295 C 0.94297 0.82528 0.77111 0.0
C1296 C 0.91947 0.79937 0.76547 0.0
H1297 H 0.98515 0.84654 0.75788 0.0
H1298 H 0.94148 0.84577 0.7883 0.0
S1299 S 0.91562 0.72603 0.70771 0.0
N1300 N 0.94737 0.74803 0.70241 0.0
N1301 N 0.90085 0.74701 0.73609 0.0
C1302 C 0.92197 0.77348 0.74251 0.0
C1303 C 0.94712 0.77408 0.72426 0.0
C1304 C 0.13826 0.04124 0.8938 0.0
C1305 C 0.16713 0.05953 0.89153 0.0
C1306 C 0.12231 0.04365 0.92246 0.0
C1307 C 0.13311 0.06509 0.95191 0.0
H1308 H 0.12761 1.0243 0.87297 0.0
H1309 H 0.10079 0.02829 0.92125 0.0
S1310 S 0.20773 0.11879 0.96117 0.0
N1311 N 0.20553 0.10001 0.92388 0.0
N1312 N 0.17639 0.10486 0.97548 0.0
C1313 C 0.16193 0.08354 0.94993 0.0
C1314 C 0.17837 0.08075 0.92092 0.0
C1315 C 0.84743 0.47288 0.62928 0.0
C1316 C 0.83588 0.45486 0.59906 0.0
C1317 C 0.85704 0.45952 0.65371 0.0
C1318 C 0.85564 0.42769 0.64874 0.0
H1319 H 0.84986 0.49761 0.63391 0.0
H1320 H 0.86638 0.47427 0.67641 0.0
S1321 S 0.82473 0.36994 0.57518 0.0
N1322 N 0.82177 0.40314 0.56636 0.0
N1323 N 0.83991 0.37821 0.61235 0.0
C1324 C 0.84326 0.40928 0.61908 0.0
C1325 C 0.83331 0.42281 0.59424 0.0
C1326 C 0.51603 0.10984 0.43064 0.0
C1327 C 0.48764 0.09188 0.43265 0.0
C1328 C 0.54168 0.10783 0.44929 0.0
C1329 C 0.53977 0.08704 0.46959 0.0
H1330 H 0.51845 0.12532 0.41435 0.0
H1331 H 0.56305 0.12246 0.44775 0.0
S1332 S 0.47135 0.03442 0.48317 0.0
N1333 N 0.45946 0.05282 0.45707 0.0
N1334 N 0.50786 0.0482 0.49074 0.0
C1335 C 0.51174 0.06892 0.47171 0.0
C1336 C 0.48557 0.07158 0.45361 0.0
C1337 C 0.79313 0.77986 0.13924 0.0
C1338 C 0.81733 0.7781 0.12036 0.0
C1339 C 0.79787 0.78988 0.17264 0.0
C1340 C 0.82706 0.79831 0.18889 0.0
H1341 H 0.77021 0.77285 0.12822 0.0
H1342 H 0.77834 0.79016 0.18587 0.0
S1343 S 0.89839 0.7994 0.15055 0.0
N1344 N 0.87182 0.78697 0.12061 0.0
N1345 N 0.88064 0.80551 0.18284 0.0
C1346 C 0.85149 0.79738 0.17017 0.0
C1347 C 0.84667 0.78741 0.13617 0.0
C1348 C 0.17268 0.04137 0.67348 0.0
C1349 C 0.16448 0.05283 0.70449 0.0
C1350 C 0.15724 0.04423 0.64399 0.0
C1351 C 0.13242 0.05951 0.64238 0.0
H1352 H 0.19144 0.02969 0.67175 0.0
H1353 H 0.16535 0.03447 0.62191 0.0
S1354 S 0.10096 0.09452 0.71584 0.0
N1355 N 0.12847 0.08034 0.73025 0.0
N1356 N 0.10103 0.08638 0.67677 0.0
C1357 C 0.12415 0.07125 0.67325 0.0
C1358 C 0.13948 0.0678 0.70323 0.0
C1359 C 0.82897 0.40066 0.43926 0.0
C1360 C 0.83434 0.4322 0.43844 0.0
C1361 C 0.83364 0.37804 0.41334 0.0
C1362 C 0.84433 0.38576 0.38531 0.0
H1363 H 0.82097 0.39322 0.4602 0.0
H1364 H 0.82872 0.35423 0.41534 0.0
S1365 S 0.86153 0.46504 0.37048 0.0
N1366 N 0.85064 0.46976 0.40671 0.0
N1367 N 0.85967 0.42779 0.35844 0.0
C1368 C 0.84987 0.41729 0.38421 0.0
C1369 C 0.84482 0.44027 0.41053 0.0
C1370 C 0.4792 0.07622 0.26796 0.0
C1371 C 0.46295 0.05102 0.27834 0.0
C1372 C 0.49732 0.07197 0.24295 0.0
C1373 C 0.49997 0.04238 0.22751 0.0
H1374 H 0.47844 0.09949 0.27964 0.0
H1375 H 0.51001 0.09203 0.2362 0.0
S1376 S 0.46009 0.96868 0.24342 0.0
N1377 N 0.4492 0.99526 0.26972 0.0
N1378 N 0.48347 0.98745 0.22267 0.0
C1379 C 0.48322 1.01694 0.2369 0.0
C1380 C 0.4646 1.02122 0.26229 0.0
C1381 C 0.81038 0.74187 0.90795 0.0
C1382 C 0.8162 0.76221 0.93798 0.0
C1383 C 0.81643 0.75203 0.87953 0.0
C1384 C 0.82945 0.78282 0.87967 0.0
H1385 H 0.80064 0.71786 0.90628 0.0
H1386 H 0.81046 0.73565 0.85717 0.0
S1387 S 0.84985 0.84536 0.95235 0.0
N1388 N 0.83578 0.81473 0.96601 0.0
N1389 N 0.84812 0.83361 0.91342 0.0
C1390 C 0.83562 0.80333 0.90975 0.0
C1391 C 0.82883 0.7931 0.93856 0.0
C1392 C 0.94185 0.08309 0.04011 0.0
C1393 C 0.93797 0.1094 0.06235 0.0
C1394 C 0.97096 0.07636 0.034 0.0
C1395 C 0.99839 0.09554 0.04947 0.0
H1396 H 0.92214 0.06749 0.027 0.0
H1397 H 0.97188 0.05571 1.0168 0.0
S1398 S 1.00136 0.16601 0.11193 0.0
N1399 N 0.96506 0.15382 0.10104 0.0
N1400 N 1.01845 0.14154 0.08988 0.0
C1401 C 0.99466 0.12165 0.07206 0.0
C1402 C 0.96512 0.12841 0.07831 0.0
C1403 C 0.45329 0.5003 0.08234 0.0
C1404 C 0.4478 0.46865 0.06832 0.0
C1405 C 0.48073 0.52015 0.0803 0.0
C1406 C 0.50389 0.50936 0.06382 0.0
H1407 H 0.4361 0.50997 0.09482 0.0
H1408 H 0.4835 0.54426 0.09122 0.0
S1409 S 0.50091 0.42826 1.02281 0.0
N1410 N 0.46819 0.42749 0.03768 0.0
N1411 N 0.51913 0.46424 0.03345 0.0
C1412 C 0.49872 0.47758 0.05001 0.0
C1413 C 0.47094 0.45743 0.05235 0.0
C1414 C 0.4309 0.70518 0.79795 0.0
C1415 C 0.41497 0.6745 0.79847 0.0
C1416 C 0.41716 0.73255 0.7991 0.0
C1417 C 0.38565 0.73322 0.80157 0.0
H1418 H 0.45492 0.70836 0.79633 0.0
H1419 H 0.43199 0.7539 0.79812 0.0
S1420 S 0.33171 0.66044 0.80413 0.0
N1421 N 0.36388 0.64855 0.80146 0.0
N1422 N 0.33943 0.69756 0.8044 0.0
C1423 C 0.36955 0.70275 0.80229 0.0
C1424 C 0.38346 0.67481 0.8006 0.0
C1425 C 0.23941 0.60679 0.53903 0.0
C1426 C 0.25734 0.60347 0.56566 0.0
C1427 C 0.20735 0.60105 0.53697 0.0
C1428 C 0.19084 0.59187 0.56155 0.0
H1429 H 0.25028 0.61426 0.51942 0.0
H1430 H 0.19542 0.60424 0.51581 0.0
S1431 S 0.22626 0.57932 0.63671 0.0
N1432 N 0.25534 0.58986 0.61725 0.0
N1433 N 0.19596 0.57934 0.61366 0.0
C1434 C 0.20849 0.58821 0.58828 0.0
C1435 C 0.24122 0.59389 0.59025 0.0
C1436 C 0.81584 0.04304 0.80654 0.0
C1437 C 0.81202 0.04397 0.77413 0.0
C1438 C 0.83435 1.025 0.81722 0.0
C1439 C 0.84957 1.00725 0.79582 0.0
H1440 H 0.80368 0.05553 0.82376 0.0
H1441 H 0.83515 1.02339 0.84198 0.0
S1442 S 0.85047 1.00465 0.70945 0.0
N1443 N 0.82747 0.02797 0.7213 0.0
N1444 N 0.8623 0.99387 0.74157 0.0
C1445 C 0.84759 1.0095 0.76377 0.0
C1446 C 0.82876 0.02791 0.75285 0.0
C1447 C 0.80312 0.98125 0.54221 0.0
C1448 C 0.79774 0.94946 0.54101 0.0
C1449 C 0.78066 0.99526 0.53131 0.0
C1450 C 0.75198 0.97801 0.51855 0.0
H1451 H 0.82489 0.99546 0.55162 0.0
H1452 H 0.78576 1.01986 0.53306 0.0
S1453 S 0.72699 0.89367 0.50814 0.0
N1454 N 0.76181 0.90094 0.52509 0.0
N1455 N 0.71988 0.9272 0.50421 0.0
C1456 C 0.74635 0.94617 0.51707 0.0
C1457 C 0.76914 0.93192 0.52837 0.0
C1458 C 0.37973 0.47457 0.78965 0.0
C1459 C 0.41144 0.48545 0.7897 0.0
C1460 C 0.36586 0.44291 0.79008 0.0
C1461 C 0.3822 0.41875 0.79068 0.0
H1462 H 0.3651 0.49084 0.78937 0.0
H1463 H 0.34165 0.43741 0.79009 0.0
S1464 S 0.46593 0.43308 0.79094 0.0
N1465 N 0.45837 0.46722 0.7903 0.0
N1466 N 0.43328 0.40999 0.79115 0.0
C1467 C 0.41388 0.42938 0.79068 0.0
C1468 C 0.42796 0.46151 0.79019 0.0
C1469 C 0.29826 0.69768 0.22654 0.0
C1470 C 0.30754 0.67598 0.24201 0.0
C1471 C 0.31146 0.72882 0.23612 0.0
C1472 C 0.33365 0.73894 0.26196 0.0
H1473 H 0.27932 0.69081 0.20844 0.0
H1474 H 0.30227 0.7452 0.22529 0.0
S1475 S 0.36848 0.69078 0.30727 0.0
N1476 N 0.34276 0.66614 0.28148 0.0
N1477 N 0.36696 0.725 0.30025 0.0
C1478 C 0.34492 0.71723 0.27571 0.0
C1479 C 0.33198 0.68551 0.26547 0.0
C1480 C 0.55498 0.79434 0.5727 0.0
C1481 C 0.53786 0.77834 0.54407 0.0
C1482 C 0.56704 0.77854 0.59342 0.0
C1483 C 0.56176 0.74635 0.58642 0.0
H1484 H 0.56161 0.81915 0.57766 0.0
H1485 H 0.58279 0.79151 0.61341 0.0
S1486 S 0.51226 0.69408 0.51851 0.0
N1487 N 0.51174 0.7289 0.51268 0.0
N1488 N 0.53393 0.69903 0.55192 0.0
C1489 C 0.54133 0.73021 0.56012 0.0
C1490 C 0.52951 0.74629 0.53876 0.0
C1491 C 0.74869 0.35294 0.70299 0.0
C1492 C 0.71877 0.34465 0.70978 0.0
C1493 C 0.77271 0.35501 0.72579 0.0
C1494 C 0.7674 0.34862 0.75587 0.0
H1495 H 0.75363 0.3559 0.67938 0.0
H1496 H 0.79546 0.35962 0.71906 0.0
S1497 S 0.69329 0.33248 0.78744 0.0
N1498 N 0.68525 0.33507 0.75038 0.0
N1499 N 0.73035 0.33844 0.79284 0.0
C1500 C 0.73767 0.34301 0.76378 0.0
C1501 C 0.71333 0.3412 0.74081 0.0
C1502 C 0.05584 0.43419 0.03741 0.0
C1503 C 0.03263 0.41715 1.01431 0.0
C1504 C 0.05815 0.46569 0.04838 0.0
C1505 C 0.03757 0.48098 0.03615 0.0
H1506 H 0.07313 0.42339 0.04597 0.0
H1507 H 0.07744 0.47851 0.06459 0.0
S1508 S 0.97083 0.44645 0.9786 0.0
N1509 N 0.98676 0.41727 0.98234 0.0
N1510 N 0.99199 0.47707 1.00227 0.0
C1511 C 1.01321 0.46405 1.01473 0.0
C1512 C 1.01044 0.43184 1.00402 0.0
C1513 C 0.06814 0.83691 0.19423 0.0
C1514 C 0.07231 0.81133 0.17175 0.0
C1515 C 0.04312 0.83522 0.2119 0.0
C1516 C 1.02116 0.80804 0.20737 0.0
H1517 H 0.08476 0.85813 0.19891 0.0
H1518 H 0.04103 0.85525 0.22942 0.0
S1519 S 1.02073 0.73502 0.15033 0.0
N1520 N 0.05172 0.75829 0.1451 0.0
N1521 N 1.00476 0.75525 0.17825 0.0
C1522 C 1.02458 0.7826 0.18431 0.0
C1523 C 0.05014 0.78421 0.16653 0.0
C1524 C 0.59744 0.36121 0.11772 0.0
C1525 C 0.56764 0.35238 0.12489 0.0
C1526 C 0.60434 0.38016 0.09598 0.0
C1527 C 0.58173 0.39125 0.08101 0.0
H1528 H 0.61565 0.35358 0.12913 0.0
H1529 H 0.62763 0.38708 0.09171 0.0
S1530 S 0.50016 0.37427 0.0906 0.0
N1531 N 0.51524 0.35541 0.11429 0.0
N1532 N 0.5284 0.39148 0.07395 0.0
C1533 C 0.55183 0.38216 0.08746 0.0
C1534 C 0.54472 0.36258 0.10925 0.0
C1535 C 0.0811 0.34634 0.31145 0.0
C1536 C 0.07462 0.33001 0.33564 0.0
C1537 C 0.05836 0.34808 0.28896 0.0
C1538 C 0.02843 0.33352 0.28993 0.0
H1539 H 0.10353 0.35942 0.31101 0.0
H1540 H 0.06383 0.36256 0.27205 0.0
S1541 S 1.00024 0.28566 0.34679 0.0
N1542 N 0.03673 0.29658 0.35732 0.0
N1543 N 0.99383 0.30081 0.31591 0.0
C1544 C 1.02211 0.31525 0.31254 0.0
C1545 C 0.04529 0.31322 0.3352 0.0
C1546 C 0.04905 0.68875 0.63719 0.0
C1547 C 0.06864 0.7166 0.63688 0.0
C1548 C 0.05528 0.66055 0.62219 0.0
C1549 C 0.08105 0.6592 0.6058 0.0
H1550 H 0.02878 0.68869 0.64928 0.0
H1551 H 0.03942 0.6397 0.62284 0.0
S1552 S 0.13979 0.72552 0.59836 0.0
N1553 N 0.1152 0.74108 0.61944 0.0
N1554 N 0.12664 0.68811 0.59068 0.0
C1555 C 0.10091 0.68687 0.60542 0.0
C1556 C 0.09479 0.71556 0.62112 0.0
C1557 C 0.73528 0.86456 0.86953 0.0
C1558 C 0.70948 0.84098 0.86532 0.0
C1559 C 0.75871 0.8622 0.84978 0.0
C1560 C 0.75687 0.83632 0.82506 0.0
H1561 H 0.73776 0.88452 0.88874 0.0
H1562 H 0.77891 0.87998 0.85488 0.0
S1563 S 0.6922 0.77054 0.80118 0.0
N1564 N 0.68233 0.79246 0.83255 0.0
N1565 N 0.72585 0.78835 0.79537 0.0
C1566 C 0.73039 0.81358 0.8195 0.0
C1567 C 0.70685 0.81578 0.83968 0.0
C1568 C 0.5405 0.59679 0.70006 0.0
C1569 C 0.51122 0.57908 0.70183 0.0
C1570 C 0.55671 0.59433 0.6716 0.0
C1571 C 0.54576 0.57341 0.64188 0.0
H1572 H 0.55129 0.61329 0.72116 0.0
H1573 H 0.57854 0.60924 0.67318 0.0
S1574 S 0.47001 0.52156 0.63122 0.0
N1575 N 0.47223 0.53986 0.66869 0.0
N1576 N 0.50184 0.53492 0.61741 0.0
C1577 C 0.5165 0.55561 0.64331 0.0
C1578 C 0.49981 0.55845 0.67213 0.0
C1579 C 0.81655 0.17156 0.9768 0.0
C1580 C 0.84055 0.18511 1.00047 0.0
C1581 C 0.80681 0.18821 0.95543 0.0
C1582 C 0.82111 0.2187 0.95672 0.0
H1583 H 0.8045 0.14831 0.97548 0.0
H1584 H 0.78792 0.17725 0.9379 0.0
S1585 S 0.88554 0.26429 1.01313 0.0
N1586 N 0.87873 0.2306 1.02331 0.0
N1587 N 0.86062 0.2616 0.98278 0.0
C1588 C 0.84553 0.23222 0.97964 0.0
C1589 C 0.85521 0.21549 1.00163 0.0
C1590 C 0.17635 0.5441 0.14611 0.0
C1591 C 0.19331 0.57296 0.16149 0.0
C1592 C 0.15091 0.54181 0.1251 0.0
C1593 C 0.14111 0.56831 0.12006 0.0
H1594 H 0.18275 0.52329 0.15039 0.0
H1595 H 0.13853 0.51924 0.11318 0.0
S1596 S 0.17771 0.64915 0.15489 0.0
N1597 N 0.19886 0.62851 0.1699 0.0
N1598 N 0.15048 0.62407 0.13156 0.0
C1599 C 0.15786 0.5972 0.13539 0.0
C1600 C 0.18416 0.59956 0.15585 0.0
C1601 C 0.88083 0.85309 0.44713 0.0
C1602 C 0.85614 0.85668 0.46491 0.0
C1603 C 0.87705 0.84324 0.41369 0.0
C1604 C 0.84842 0.83673 0.3964 0.0
H1605 H 0.9034 0.85868 0.45904 0.0
H1606 H 0.89692 0.84162 0.40125 0.0
S1607 S 0.77603 0.8405 0.43174 0.0
N1608 N 0.80172 0.8513 0.46255 0.0
N1609 N 0.79468 0.83308 0.40033 0.0
C1610 C 0.82345 0.83931 0.41407 0.0
C1611 C 0.82728 0.84916 0.44805 0.0
C1612 C 0.53595 0.56976 0.89074 0.0
C1613 C 0.51102 0.58479 0.88894 0.0
C1614 C 0.55057 0.56614 0.92031 0.0
C1615 C 0.54215 0.57773 0.95119 0.0
H1616 H 0.54425 0.56009 0.86875 0.0
H1617 H 0.56906 0.55408 0.91878 0.0
S1618 S 0.47876 0.61975 0.96177 0.0
N1619 N 0.4791 0.6114 0.92274 0.0
N1620 N 0.5062 0.60572 0.97653 0.0
C1621 C 0.51749 0.59315 0.94969 0.0
C1622 C 0.50227 0.59631 0.91958 0.0
C1623 C 0.84809 0.23795 0.15438 0.0
C1624 C 0.84428 0.20675 0.15642 0.0
C1625 C 0.84387 0.26103 0.18012 0.0
C1626 C 0.83508 0.25407 0.20912 0.0
H1627 H 0.85456 0.24476 0.13263 0.0
H1628 H 0.84753 0.28457 0.17719 0.0
S1629 S 0.82316 0.17615 0.22759 0.0
N1630 N 0.83197 0.17049 0.19055 0.0
N1631 N 0.82367 0.21326 0.2384 0.0
C1632 C 0.83121 0.22291 0.21148 0.0
C1633 C 0.83588 0.1995 0.1854 0.0
C1634 C 0.20216 0.63114 0.33966 0.0
C1635 C 0.19073 0.61161 0.3102 0.0
C1636 C 0.1847 0.63327 0.36538 0.0
C1637 C 0.15512 0.61632 0.36233 0.0
H1638 H 0.22515 0.64393 0.34332 0.0
H1639 H 0.1946 0.64779 0.38801 0.0
S1640 S 0.11381 0.56397 0.28957 0.0
N1641 N 0.14739 0.57652 0.27886 0.0
N1642 N 0.1145 0.58073 0.32734 0.0
C1643 C 0.1429 0.59788 0.33264 0.0
C1644 C 0.16077 0.59545 0.30651 0.0
C1645 C 0.83838 0.84141 0.64603 0.0
C1646 C 0.85537 0.87091 0.64636 0.0
C1647 C 0.83213 0.83135 0.67455 0.0
C1648 C 0.84302 0.85013 0.70476 0.0
H1649 H 0.82948 0.82605 0.62354 0.0
H1650 H 0.81908 0.80845 0.67283 0.0
S1651 S 0.88977 0.92907 0.71867 0.0
N1652 N 0.88327 0.91855 0.67964 0.0
N1653 N 0.87248 0.89979 0.73254 0.0
C1654 C 0.86034 0.87959 0.70519 0.0
C1655 C 0.86623 0.8899 0.6763 0.0
C1656 C 0.71402 0.5064 0.52681 0.0
C1657 C 0.74155 0.52829 0.53467 0.0
C1658 C 0.68528 0.5139 0.53275 0.0
C1659 C 0.6818 0.54382 0.54735 0.0
H1660 H 0.71457 0.48292 0.51574 0.0
H1661 H 0.66549 0.49583 0.52561 0.0
S1662 S 0.74623 0.61037 0.57268 0.0
N1663 N 0.76264 0.58178 0.55794 0.0
N1664 N 0.70981 0.59573 0.56911 0.0
C1665 C 0.70922 0.56595 0.55539 0.0
C1666 C 0.73847 0.55831 0.54913 0.0
C1667 C 0.22046 0.13744 0.51315 0.0
C1668 C 0.22477 0.16947 0.52454 0.0
C1669 C 0.19315 0.11757 0.51521 0.0
C1670 C 0.16888 0.12875 0.52898 0.0
H1671 H 0.23848 0.12748 0.50279 0.0
H1672 H 0.19134 0.09316 0.50645 0.0
S1673 S 0.16843 0.21099 0.56215 0.0
N1674 N 0.20212 0.21148 0.54962 0.0
N1675 N 0.15121 0.17459 0.55379 0.0
C1676 C 0.17281 0.1609 0.54004 0.0
C1677 C 0.20056 0.18108 0.53775 0.0
C1678 C 0.29288 0.96104 0.78828 0.0
C1679 C 0.26248 0.96326 0.79523 0.0
C1680 C 0.30632 0.93348 0.78711 0.0
C1681 C 0.29145 0.90424 0.79303 0.0
H1682 H 0.307 0.98124 0.78335 0.0
H1683 H 0.32942 0.93546 0.7815 0.0
S1684 S 0.21192 0.8955 0.81457 0.0
N1685 N 0.21867 0.93107 0.80919 0.0
N1686 N 0.24282 0.88194 0.80772 0.0
C1687 C 0.26117 0.90631 0.80049 0.0
C1688 C 0.24739 0.93431 0.80134 0.0
C1689 C 0.43823 0.04861 1.01452 0.0
C1690 C 0.42167 0.03348 0.03572 0.0
C1691 C 0.47042 0.05581 1.01755 0.0
C1692 C 0.48816 0.04791 0.04166 0.0
H1693 H 0.42623 0.05484 0.99517 0.0
H1694 H 0.48151 0.06736 1.00041 0.0
S1695 S 0.45655 1.00896 0.10426 0.0
N1696 N 0.42647 1.01174 0.08257 0.0
N1697 N 0.48571 1.02458 0.08775 0.0
C1698 C 0.47183 0.03298 0.0631 0.0
C1699 C 0.43919 0.02601 0.06028 0.0
C1700 C 0.81916 0.59225 0.81291 0.0
C1701 C 0.84476 0.60857 0.83337 0.0
C1702 C 0.79887 0.60762 0.80038 0.0
C1703 C 0.8034 0.63978 0.80804 0.0
H1704 H 0.81552 0.56752 0.8052 0.0
H1705 H 0.78045 0.5944 0.78326 0.0
S1706 S 0.86548 0.69293 0.86273 0.0
N1707 N 0.87206 0.65839 0.86292 0.0
N1708 N 0.83448 0.68733 0.8387 0.0
C1709 C 0.82783 0.65618 0.8301 0.0
C1710 C 0.84839 0.64055 0.84296 0.0
C1711 C 0.90121 0.70628 0.06304 0.0
C1712 C 0.87515 0.68729 0.04541 0.0
C1713 C 0.92415 0.69379 0.07537 0.0
C1714 C 0.92193 0.66183 0.07047 0.0
H1715 H 0.90364 0.73103 0.06804 0.0
H1716 H 0.94352 0.70927 0.08932 0.0
S1717 S 0.8598 0.60224 1.02307 0.0
N1718 N 0.8493 0.63501 1.02202 0.0
N1719 N 0.8927 0.61151 0.04456 0.0
C1720 C 0.8964 0.64261 0.05206 0.0
C1721 C 0.87295 0.65534 0.03968 0.0
C1722 C 0.251 0.17602 0.80061 0.0
C1723 C 0.26727 0.15209 0.80257 0.0
C1724 C 0.26491 0.20754 0.79998 0.0
C1725 C 0.29669 0.21867 0.80125 0.0
H1726 H 0.22669 0.17035 0.79941 0.0
H1727 H 0.25017 0.22349 0.79837 0.0
S1728 S 0.35118 0.16689 0.80658 0.0
N1729 N 0.31839 0.14365 0.8058 0.0
N1730 N 0.34376 0.20084 0.80468 0.0
C1731 C 0.31327 0.19498 0.80328 0.0
C1732 C 0.29905 0.16285 0.80391 0.0
C1733 C 0.35391 0.96912 0.36889 0.0
C1734 C 0.38449 0.98155 0.37886 0.0
C1735 C 0.34339 0.93726 0.36125 0.0
C1736 C 0.36328 0.91735 0.36353 0.0
H1737 H 0.33874 0.98382 0.364 0.0
H1738 H 0.32047 0.92829 0.35067 0.0
S1739 S 0.44315 0.93889 0.39687 0.0
N1740 N 0.4328 0.97193 0.39688 0.0
N1741 N 0.41303 0.91203 0.38254 0.0
C1742 C 0.39281 0.92964 0.37741 0.0
C1743 C 0.40346 0.96189 0.38513 0.0
C1744 C 0.63824 0.3554 0.53978 0.0
C1745 C 0.61954 0.34124 0.5596 0.0
C1746 C 0.62656 0.37054 0.51805 0.0
C1747 C 0.59606 0.37322 0.51651 0.0
H1748 H 0.66215 0.35559 0.54175 0.0
H1749 H 0.642 0.38206 0.50395 0.0
S1750 S 0.53757 0.33722 0.56223 0.0
N1751 N 0.56881 0.32751 0.57424 0.0
N1752 N 0.54707 0.3578 0.53551 0.0
C1753 C 0.57682 0.35711 0.53488 0.0
C1754 C 0.58859 0.34085 0.5561 0.0
C1755 C 0.43961 0.79976 0.4072 0.0
C1756 C 0.46934 0.80889 0.40034 0.0
C1757 C 0.41534 0.80105 0.38651 0.0
C1758 C 0.41989 0.81149 0.35817 0.0
H1759 H 0.43497 0.7928 0.42935 0.0
H1760 H 0.39284 0.79474 0.39339 0.0
S1761 S 0.49336 0.83435 0.32733 0.0
N1762 N 0.50207 0.82581 0.36173 0.0
N1763 N 0.45627 0.82838 0.32285 0.0
C1764 C 0.44943 0.81867 0.34993 0.0
C1765 C 0.47423 0.81736 0.37105 0.0
C1766 C 0.15812 0.70371 0.08467 0.0
C1767 C 0.14134 0.72445 0.07591 0.0
C1768 C 0.14825 0.67195 0.07369 0.0
C1769 C 0.12119 0.66022 0.05408 0.0
H1770 H 0.17786 0.71188 0.10165 0.0
H1771 H 0.16059 0.65656 0.08251 0.0
S1772 S 0.07271 0.70473 1.01887 0.0
N1773 N 0.09928 0.73094 0.04196 0.0
N1774 N 0.08051 0.67131 1.02219 0.0
C1775 C 0.10592 0.68069 0.04272 0.0
C1776 C 0.11607 0.71287 0.05346 0.0
C1777 C 0.12498 0.35182 0.90632 0.0
C1778 C 0.11058 0.32451 0.91441 0.0
C1779 C 0.14743 0.35181 0.88551 0.0
C1780 C 0.15649 0.32452 0.87202 0.0
H1781 H 0.11872 0.37349 0.9159 0.0
H1782 H 0.15789 0.37343 0.88003 0.0
S1783 S 0.12615 0.24679 0.88532 0.0
N1784 N 0.10718 0.26934 0.90737 0.0
N1785 N 0.14955 0.26942 0.86803 0.0
C1786 C 0.14266 0.29705 0.88011 0.0
C1787 C 0.11963 0.29702 0.90133 0.0
C1788 C 0.58768 0.78815 0.99313 0.0
C1789 C 0.6166 0.79271 0.98243 0.0
C1790 C 0.57952 0.76752 1.01297 0.0
C1791 C 0.59987 0.75049 1.02257 0.0
H1792 H 0.57094 0.80009 0.98558 0.0
H1793 H 0.55673 0.7639 1.01971 0.0
S1794 S 0.679 0.75561 1.00355 0.0
N1795 N 0.66622 0.77981 0.98482 0.0
N1796 N 0.65071 0.74091 1.02186 0.0
C1797 C 0.62917 0.75566 1.01313 0.0
C1798 C 0.63759 0.77682 0.99314 0.0
C1799 C 0.13488 0.82479 0.76848 0.0
C1800 C 0.10537 0.80811 0.76685 0.0
C1801 C 0.15699 0.82252 0.79113 0.0
C1802 C 0.15033 0.80405 0.81347 0.0
H1803 H 0.14157 0.83792 0.7507 0.0
H1804 H 0.17999 0.83308 0.78917 0.0
S1805 S 0.07526 0.76033 0.82298 0.0
N1806 N 0.06957 0.77563 0.79198 0.0
N1807 N 0.11143 0.77201 0.83524 0.0
C1808 C 0.12035 0.78949 0.81396 0.0
C1809 C 0.09777 0.79145 0.79054 0.0
C1810 C 0.10379 0.45066 0.45323 0.0
C1811 C 0.12586 0.43678 0.46542 0.0
C1812 C 0.0976 0.47819 0.47007 0.0
C1813 C 0.11298 0.49266 0.49994 0.0
H1814 H 0.09082 0.43998 0.43063 0.0
H1815 H 0.08005 0.48769 0.45998 0.0
S1816 S 0.17458 0.46718 0.54127 0.0
N1817 N 0.16443 0.44062 0.50831 0.0
N1818 N 0.1527 0.4923 0.54013 0.0
C1819 C 0.13575 0.47956 0.51201 0.0
C1820 C 0.14225 0.45166 0.4947 0.0
C1821 C 0.46985 0.32282 0.25626 0.0
C1822 C 0.47207 0.29713 0.23271 0.0
C1823 C 0.44436 0.32309 0.27311 0.0
C1824 C 0.42029 0.2977 0.26688 0.0
H1825 H 0.48763 0.34313 0.26129 0.0
H1826 H 0.44287 0.34384 0.2899 0.0
S1827 S 0.4164 0.22353 0.21046 0.0
N1828 N 0.44899 0.24469 0.20612 0.0
N1829 N 0.40121 0.24532 0.23775 0.0
C1830 C 0.42285 0.27139 0.24455 0.0
C1831 C 0.44869 0.27108 0.22743 0.0
C1832 C 0.63971 0.54224 0.39381 0.0
C1833 C 0.66871 0.56011 0.39133 0.0
C1834 C 0.62405 0.54487 0.42264 0.0
C1835 C 0.63532 0.56612 0.45209 0.0
H1836 H 0.62872 0.52546 0.37301 0.0
H1837 H 0.6024 0.52979 0.42159 0.0
S1838 S 0.71045 0.61882 0.46082 0.0
N1839 N 0.70776 0.60008 0.42345 0.0
N1840 N 0.67912 0.6053 0.47541 0.0
C1841 C 0.66426 0.5842 0.44991 0.0
C1842 C 0.68041 0.58119 0.42071 0.0
C1843 C 0.3429 0.9688 0.12731 0.0
C1844 C 0.33064 0.95154 0.09702 0.0
C1845 C 0.35248 0.95454 0.15096 0.0
C1846 C 0.3503 0.92257 0.14505 0.0
H1847 H 0.34608 0.99361 0.13252 0.0
H1848 H 0.36258 0.96871 0.17368 0.0
S1849 S 0.31678 0.8666 0.07116 0.0
N1850 N 0.31455 0.90039 0.06341 0.0
N1851 N 0.33272 0.87377 0.10796 0.0
C1852 C 0.33693 0.9049 0.11543 0.0
C1853 C 0.327 0.91935 0.0914 0.0
C1854 C 1.01013 0.58111 0.91499 0.0
C1855 C 0.98363 0.59214 0.9216 0.0
C1856 C 0.03076 0.57914 0.93954 0.0
C1857 C 1.02557 0.5881 0.97151 0.0
H1858 H 1.01415 0.57219 0.89073 0.0
H1859 H 0.04997 0.56896 0.93336 0.0
S1860 S 0.9626 0.62419 1.00116 0.0
N1861 N 0.95551 0.61612 0.96215 0.0
N1862 N 0.99429 0.61282 1.0084 0.0
C1863 C 1.00048 0.60166 0.97835 0.0
C1864 C 0.97952 0.60361 0.95335 0.0
C1865 C 0.30564 0.28937 0.63894 0.0
C1866 C 0.32454 0.2711 0.62333 0.0
C1867 C 0.30971 0.30055 0.67234 0.0
C1868 C 0.33313 0.29435 0.69163 0.0
H1869 H 0.28694 0.29422 0.62544 0.0
H1870 H 0.294 0.31378 0.68313 0.0
S1871 S 0.39065 0.24995 0.66174 0.0
N1872 N 0.36874 0.24901 0.62957 0.0
N1873 N 0.37659 0.26999 0.69144 0.0
C1874 C 0.35285 0.27708 0.67591 0.0
C1875 C 0.3485 0.2655 0.64212 0.0
C1876 C 0.67302 0.54274 0.17321 0.0
C1877 C 0.6643 0.55312 0.20425 0.0
C1878 C 0.65727 0.54547 0.14385 0.0
C1879 C 0.63161 0.55955 0.14246 0.0
H1880 H 0.69242 0.53203 0.17136 0.0
H1881 H 0.66581 0.53659 0.12171 0.0
S1882 S 0.59858 0.5915 0.21609 0.0
N1883 N 0.62693 0.57835 0.2303 0.0
N1884 N 0.5989 0.58418 0.17704 0.0
C1885 C 0.62283 0.57025 0.17336 0.0
C1886 C 0.63849 0.56691 0.2032 0.0
C1887 C 0.34359 0.93602 0.91292 0.0
C1888 C 0.33047 0.92831 0.93984 0.0
C1889 C 0.34883 0.91325 0.88745 0.0
C1890 C 0.34109 0.88155 0.88747 0.0
H1891 H 0.3501 0.9599 0.91155 0.0
H1892 H 0.35866 0.92067 0.86729 0.0
S1893 S 0.30587 0.84887 0.95219 0.0
N1894 N 0.30983 0.88633 0.96476 0.0
N1895 N 0.31937 0.84398 0.91721 0.0
C1896 C 0.32791 0.87356 0.91426 0.0
C1897 C 0.32271 0.89673 0.94025 0.0
C1898 C 0.9673 0.574 0.75641 0.0
C1899 C 0.94944 0.54852 0.76486 0.0
C1900 C 0.98653 0.57019 0.73243 0.0
C1901 C 0.98866 0.54077 0.716 0.0
H1902 H 0.96741 0.5971 0.76927 0.0
H1903 H 1.00081 0.59042 0.72766 0.0
S1904 S 0.94348 0.46675 0.72548 0.0
N1905 N 0.93271 0.49289 0.75242 0.0
N1906 N 0.96909 0.48587 0.70718 0.0
C1907 C 0.96973 0.51514 0.72282 0.0
C1908 C 0.94998 0.51898 0.74723 0.0
C1909 C 0.34459 0.28132 0.43586 0.0
C1910 C 0.32034 0.25776 0.43833 0.0
C1911 C 0.34991 0.29003 0.40656 0.0
C1912 C 0.33137 0.27554 0.37816 0.0
H1913 H 0.35978 0.29307 0.45672 0.0
H1914 H 0.36876 0.30846 0.40623 0.0
S1915 S 0.26258 0.21529 0.37251 0.0
N1916 N 0.27634 0.22168 0.41 0.0
N1917 N 0.28609 0.2381 0.35551 0.0
C1918 C 0.30677 0.2523 0.38047 0.0
C1919 C 0.30135 0.24344 0.41029 0.0
C1920 C 0.44546 0.58752 0.53584 0.0
C1921 C 0.4406 0.6086 0.56325 0.0
C1922 C 0.47461 0.58104 0.52967 0.0
C1923 C 0.50112 0.59554 0.55019 0.0
H1924 H 0.42649 0.57591 0.51869 0.0
H1925 H 0.47636 0.56453 0.50832 0.0
S1926 S 0.50113 0.65006 0.62714 0.0
N1927 N 0.46561 0.64222 0.61222 0.0
N1928 N 0.51915 0.63048 0.60079 0.0
C1929 C 0.4964 0.6162 0.57793 0.0
C1930 C 0.46678 0.62257 0.58432 0.0
C1931 C 0.97688 0.95705 0.5573 0.0
C1932 C 0.95136 0.96739 0.56873 0.0
C1933 C 1.0038 0.97773 0.55582 0.0
C1934 C 1.00666 1.00982 0.5659 0.0
H1935 H 0.97592 0.93274 0.54869 0.0
H1936 H 1.02243 0.96836 0.54625 0.0
S1937 S 0.94698 0.04885 0.59968 0.0
N1938 N 0.93116 1.01201 0.59165 0.0
N1939 N 0.98149 0.05066 0.58907 0.0
C1940 C 0.98156 1.02041 0.57835 0.0
C1941 C 0.95407 0.99932 0.57968 0.0
C1942 C 0.8862 0.17877 0.30922 0.0
C1943 C 0.91497 0.17492 0.29811 0.0
C1944 C 0.87311 0.20654 0.31056 0.0
C1945 C 0.88678 0.23431 0.3008 0.0
H1946 H 0.87319 0.1598 0.31742 0.0
H1947 H 0.8513 0.20594 0.31954 0.0
S1948 S 0.96084 0.23754 0.26604 0.0
N1949 N 0.95538 0.20341 0.27515 0.0
N1950 N 0.93179 0.25291 0.27697 0.0
C1951 C 0.91525 0.23045 0.28895 0.0
C1952 C 0.92869 0.20225 0.28786 0.0
C1953 C 0.73732 0.09612 0.08914 0.0
C1954 C 0.75403 0.10135 0.06329 0.0
C1955 C 0.70513 0.09014 0.08651 0.0
C1956 C 0.68746 0.08907 0.05788 0.0
H1957 H 0.74922 0.09712 0.11192 0.0
H1958 H 0.694 0.08658 0.1074 0.0
S1959 S 0.71961 0.10046 0.98252 0.0
N1960 N 0.74954 0.10444 1.00766 0.0
N1961 N 0.69031 0.09332 1.00277 0.0
C1962 C 0.70399 0.0939 0.03179 0.0
C1963 C 0.73665 0.09997 0.03447 0.0
C1964 C 0.31842 0.5223 0.25869 0.0
C1965 C 0.30275 0.54086 0.2788 0.0
C1966 C 0.33502 0.50326 0.27061 0.0
C1967 C 0.33652 0.50222 0.30302 0.0
H1968 H 0.3173 0.52186 0.23344 0.0
H1969 H 0.34584 0.48836 0.25418 0.0
S1970 S 0.30071 0.54723 0.36589 0.0
N1971 N 0.29092 0.55806 0.33308 0.0
N1972 N 0.32197 0.52183 0.35521 0.0
C1973 C 0.32206 0.52154 0.32363 0.0
C1974 C 0.30513 0.54096 0.31156 0.0
C1975 C 0.26099 0.43734 0.04076 0.0
C1976 C 0.28848 0.45539 0.05616 0.0
C1977 C 0.23761 0.45083 0.03099 0.0
C1978 C 0.24059 0.48294 0.03654 0.0
H1979 H 0.25773 0.41252 0.03536 0.0
H1980 H 0.21704 0.43597 1.01884 0.0
S1981 S 0.30748 0.5406 0.077 0.0
N1982 N 0.31694 0.5072 0.0773 0.0
N1983 N 0.27297 0.53247 0.05909 0.0
C1984 C 0.26761 0.50128 0.05269 0.0
C1985 C 0.29155 0.48754 0.06241 0.0
C1986 C 0.8793 0.97439 0.28862 0.0
C1987 C 0.91101 0.98545 0.28902 0.0
C1988 C 0.86554 0.94263 0.28878 0.0
C1989 C 0.88201 0.91857 0.2893 0.0
H1990 H 0.86458 0.99058 0.28831 0.0
H1991 H 0.84131 0.93697 0.28855 0.0
S1992 S 0.96582 0.93347 0.29043 0.0
N1993 N 0.9581 0.96756 0.28996 0.0
N1994 N 0.93322 0.91014 0.29015 0.0
C1995 C 0.9137 0.9294 0.28962 0.0
C1996 C 0.92767 0.96163 0.28951 0.0
C1997 C 0.79755 0.20002 0.72675 0.0
C1998 C 0.80977 0.17973 0.7421 0.0
C1999 C 0.80873 0.23174 0.73554 0.0
C2000 C 0.83227 0.24366 0.75982 0.0
H2001 H 0.77753 0.19175 0.71015 0.0
H2002 H 0.79698 0.247 0.72565 0.0
S2003 S 0.87682 0.1999 0.80112 0.0
N2004 N 0.8506 0.17346 0.77779 0.0
N2005 N 0.87105 0.23315 0.79465 0.0
C2006 C 0.84702 0.22347 0.7723 0.0
C2007 C 0.83592 0.19134 0.76325 0.0
loop_
_geom_bond_atom_site_label_1
_geom_bond_atom_site_label_2
_geom_bond_distance
_geom_bond_site_symmetry_2
_ccdc_geom_bond_type
In0 O1 2.294 . S
In0 O2 2.326 . S
In0 O6 2.266 . S
In0 O7 2.326 . S
In0 O8 2.266 . S
In0 O9 2.326 . S
In0 O11 2.294 . S
In0 O12 2.326 . S
O1 In0 2.294 . S
O1 C10 1.240 . S
O2 In0 2.326 . S
O2 C10 1.252 . S
C3 O6 1.252 . S
C3 O7 1.260 . S
C4 O11 1.240 . S
C4 O12 1.252 . S
C5 O8 1.252 . S
C5 O9 1.260 . S
O6 In0 2.266 . S
O6 C3 1.252 . S
O7 In0 2.326 . S
O7 C3 1.260 . S
O8 In0 2.266 . S
O8 C5 1.252 . S
O9 In0 2.326 . S
O9 C5 1.260 . S
C10 O1 1.240 . S
C10 O2 1.252 . S
O11 In0 2.294 . S
O11 C4 1.240 . S
O12 In0 2.326 . S
O12 C4 1.252 . S
In13 O14 2.294 . S
In13 O15 2.326 . S
In13 O19 2.266 1_455 S
In13 O20 2.326 1_455 S
In13 O21 2.264 1_455 S
In13 O22 2.322 1_455 S
In13 O24 2.296 . S
In13 O25 2.330 . S
O14 In13 2.294 . S
O14 C23 1.240 . S
O15 In13 2.326 . S
O15 C23 1.252 . S
C16 O19 1.252 . S
C16 O20 1.260 . S
C17 O24 1.240 . S
C17 O25 1.252 . S
C18 O21 1.252 . S
C18 O22 1.260 . S
O19 In13 2.266 1_655 S
O19 C16 1.252 . S
O20 In13 2.326 1_655 S
O20 C16 1.260 . S
O21 In13 2.264 1_655 S
O21 C18 1.252 . S
O22 In13 2.322 1_655 S
O22 C18 1.260 . S
C23 O14 1.240 . S
C23 O15 1.252 . S
O24 In13 2.296 . S
O24 C17 1.240 . S
O25 In13 2.330 . S
O25 C17 1.252 . S
In26 O27 2.294 . S
In26 O28 2.326 . S
In26 O32 2.266 . S
In26 O33 2.326 . S
In26 O34 2.266 . S
In26 O35 2.326 . S
In26 O37 2.294 . S
In26 O38 2.326 . S
O27 In26 2.294 . S
O27 C36 1.240 . S
O28 In26 2.326 . S
O28 C36 1.252 . S
C29 O32 1.252 . S
C29 O33 1.260 . S
C30 O37 1.240 . S
C30 O38 1.252 . S
C31 O34 1.252 . S
C31 O35 1.260 . S
O32 In26 2.266 . S
O32 C29 1.252 . S
O33 In26 2.326 . S
O33 C29 1.260 . S
O34 In26 2.266 . S
O34 C31 1.252 . S
O35 In26 2.326 . S
O35 C31 1.260 . S
C36 O27 1.240 . S
C36 O28 1.252 . S
O37 In26 2.294 . S
O37 C30 1.240 . S
O38 In26 2.326 . S
O38 C30 1.252 . S
In39 O40 2.294 . S
In39 O41 2.326 . S
In39 O45 2.266 . S
In39 O46 2.326 . S
In39 O47 2.266 . S
In39 O48 2.326 . S
In39 O50 2.294 . S
In39 O51 2.326 . S
O40 In39 2.294 . S
O40 C49 1.240 . S
O41 In39 2.326 . S
O41 C49 1.252 . S
C42 O45 1.252 . S
C42 O46 1.260 . S
C43 O50 1.240 . S
C43 O51 1.252 . S
C44 O47 1.252 . S
C44 O48 1.260 . S
O45 In39 2.266 . S
O45 C42 1.252 . S
O46 In39 2.326 . S
O46 C42 1.260 . S
O47 In39 2.266 . S
O47 C44 1.252 . S
O48 In39 2.326 . S
O48 C44 1.260 . S
C49 O40 1.240 . S
C49 O41 1.252 . S
O50 In39 2.294 . S
O50 C43 1.240 . S
O51 In39 2.326 . S
O51 C43 1.252 . S
In52 O53 2.294 . S
In52 O54 2.326 . S
In52 O58 2.266 . S
In52 O59 2.326 . S
In52 O60 2.266 . S
In52 O61 2.326 . S
In52 O63 2.294 . S
In52 O64 2.326 . S
O53 In52 2.294 . S
O53 C62 1.240 . S
O54 In52 2.326 . S
O54 C62 1.252 . S
C55 O58 1.252 . S
C55 O59 1.260 . S
C56 O63 1.240 . S
C56 O64 1.252 . S
C57 O60 1.252 . S
C57 O61 1.260 . S
O58 In52 2.266 . S
O58 C55 1.252 . S
O59 In52 2.326 . S
O59 C55 1.260 . S
O60 In52 2.266 . S
O60 C57 1.252 . S
O61 In52 2.326 . S
O61 C57 1.260 . S
C62 O53 1.240 . S
C62 O54 1.252 . S
O63 In52 2.294 . S
O63 C56 1.240 . S
O64 In52 2.326 . S
O64 C56 1.252 . S
In65 O66 2.294 . S
In65 O67 2.326 . S
In65 O71 2.266 . S
In65 O72 2.326 . S
In65 O73 2.266 . S
In65 O74 2.326 . S
In65 O76 2.294 . S
In65 O77 2.326 . S
O66 In65 2.294 . S
O66 C75 1.240 . S
O67 In65 2.326 . S
O67 C75 1.252 . S
C68 O71 1.252 . S
C68 O72 1.260 . S
C69 O76 1.240 . S
C69 O77 1.252 . S
C70 O73 1.252 . S
C70 O74 1.260 . S
O71 In65 2.266 . S
O71 C68 1.252 . S
O72 In65 2.326 . S
O72 C68 1.260 . S
O73 In65 2.266 . S
O73 C70 1.252 . S
O74 In65 2.326 . S
O74 C70 1.260 . S
C75 O66 1.240 . S
C75 O67 1.252 . S
O76 In65 2.294 . S
O76 C69 1.240 . S
O77 In65 2.326 . S
O77 C69 1.252 . S
In78 O79 2.294 . S
In78 O80 2.326 . S
In78 O84 2.266 . S
In78 O85 2.326 . S
In78 O86 2.266 . S
In78 O87 2.326 . S
In78 O89 2.294 . S
In78 O90 2.326 . S
O79 In78 2.294 . S
O79 C88 1.240 . S
O80 In78 2.326 . S
O80 C88 1.252 . S
C81 O84 1.252 . S
C81 O85 1.260 . S
C82 O89 1.240 . S
C82 O90 1.252 . S
C83 O86 1.252 . S
C83 O87 1.260 . S
O84 In78 2.266 . S
O84 C81 1.252 . S
O85 In78 2.326 . S
O85 C81 1.260 . S
O86 In78 2.266 . S
O86 C83 1.252 . S
O87 In78 2.326 . S
O87 C83 1.260 . S
C88 O79 1.240 . S
C88 O80 1.252 . S
O89 In78 2.294 . S
O89 C82 1.240 . S
O90 In78 2.326 . S
O90 C82 1.252 . S
In91 O92 2.294 . S
In91 O93 2.326 . S
In91 O97 2.266 . S
In91 O98 2.326 . S
In91 O99 2.266 1_455 S
In91 O100 2.326 1_455 S
In91 O102 2.294 . S
In91 O103 2.326 . S
O92 In91 2.294 . S
O92 C101 1.240 . S
O93 In91 2.326 . S
O93 C101 1.252 . S
C94 O97 1.252 . S
C94 O98 1.260 . S
C95 O102 1.240 . S
C95 O103 1.252 . S
C96 O99 1.252 . S
C96 O100 1.260 . S
O97 In91 2.266 . S
O97 C94 1.252 . S
O98 In91 2.326 . S
O98 C94 1.260 . S
O99 In91 2.266 1_655 S
O99 C96 1.252 . S
O100 In91 2.326 1_655 S
O100 C96 1.260 . S
C101 O92 1.240 . S
C101 O93 1.252 . S
O102 In91 2.294 . S
O102 C95 1.240 . S
O103 In91 2.326 . S
O103 C95 1.252 . S
In104 O105 2.295 . S
In104 O106 2.329 1_545 S
In104 O110 2.263 . S
In104 O111 2.324 . S
In104 O112 2.258 1_545 S
In104 O113 2.312 1_545 S
In104 O115 2.303 . S
In104 O116 2.339 . S
O105 In104 2.295 . S
O105 C114 1.240 . S
O106 In104 2.329 1_565 S
O106 C114 1.252 1_565 S
C107 O110 1.252 . S
C107 O111 1.260 . S
C108 O115 1.240 . S
C108 O116 1.252 . S
C109 O112 1.252 . S
C109 O113 1.260 . S
O110 In104 2.263 . S
O110 C107 1.252 . S
O111 In104 2.324 . S
O111 C107 1.260 . S
O112 In104 2.258 1_565 S
O112 C109 1.252 . S
O113 In104 2.312 1_565 S
O113 C109 1.260 . S
C114 O105 1.240 . S
C114 O106 1.252 1_545 S
O115 In104 2.303 . S
O115 C108 1.240 . S
O116 In104 2.339 . S
O116 C108 1.252 . S
In117 O118 2.294 . S
In117 O119 2.326 . S
In117 O123 2.266 . S
In117 O124 2.326 . S
In117 O125 2.266 . S
In117 O126 2.326 . S
In117 O128 2.294 . S
In117 O129 2.326 . S
O118 In117 2.294 . S
O118 C127 1.240 . S
O119 In117 2.326 . S
O119 C127 1.252 . S
C120 O123 1.252 . S
C120 O124 1.260 . S
C121 O128 1.240 . S
C121 O129 1.252 . S
C122 O125 1.252 . S
C122 O126 1.260 . S
O123 In117 2.266 . S
O123 C120 1.252 . S
O124 In117 2.326 . S
O124 C120 1.260 . S
O125 In117 2.266 . S
O125 C122 1.252 . S
O126 In117 2.326 . S
O126 C122 1.260 . S
C127 O118 1.240 . S
C127 O119 1.252 . S
O128 In117 2.294 . S
O128 C121 1.240 . S
O129 In117 2.326 . S
O129 C121 1.252 . S
In130 O131 2.294 . S
In130 O132 2.326 . S
In130 O136 2.266 . S
In130 O137 2.326 . S
In130 O138 2.266 . S
In130 O139 2.326 . S
In130 O141 2.294 1_545 S
In130 O142 2.326 1_545 S
O131 In130 2.294 . S
O131 C140 1.240 . S
O132 In130 2.326 . S
O132 C140 1.252 . S
C133 O136 1.252 . S
C133 O137 1.260 . S
C134 O141 1.240 . S
C134 O142 1.252 . S
C135 O138 1.252 . S
C135 O139 1.260 . S
O136 In130 2.266 . S
O136 C133 1.252 . S
O137 In130 2.326 . S
O137 C133 1.260 . S
O138 In130 2.266 . S
O138 C135 1.252 . S
O139 In130 2.326 . S
O139 C135 1.260 . S
C140 O131 1.240 . S
C140 O132 1.252 . S
O141 In130 2.294 1_565 S
O141 C134 1.240 . S
O142 In130 2.326 1_565 S
O142 C134 1.252 . S
In143 O144 2.294 . S
In143 O145 2.326 . S
In143 O149 2.266 1_554 S
In143 O150 2.326 1_554 S
In143 O151 2.266 1_565 S
In143 O152 2.326 . S
In143 O154 2.294 . S
In143 O155 2.326 . S
O144 In143 2.294 . S
O144 C153 1.240 . S
O145 In143 2.326 . S
O145 C153 1.252 . S
C146 O149 1.252 . S
C146 O150 1.260 . S
C147 O154 1.240 . S
C147 O155 1.252 . S
C148 O151 1.252 1_565 S
C148 O152 1.260 . S
O149 In143 2.266 1_556 S
O149 C146 1.252 . S
O150 In143 2.326 1_556 S
O150 C146 1.260 . S
O151 In143 2.266 1_545 S
O151 C148 1.252 1_545 S
O152 In143 2.326 . S
O152 C148 1.260 . S
C153 O144 1.240 . S
C153 O145 1.252 . S
O154 In143 2.294 . S
O154 C147 1.240 . S
O155 In143 2.326 . S
O155 C147 1.252 . S
In156 O157 2.294 . S
In156 O158 2.326 . S
In156 O162 2.266 1_554 S
In156 O163 2.326 1_554 S
In156 O164 2.266 . S
In156 O165 2.326 . S
In156 O167 2.294 . S
In156 O168 2.326 . S
O157 In156 2.294 . S
O157 C166 1.240 . S
O158 In156 2.326 . S
O158 C166 1.252 . S
C159 O162 1.252 . S
C159 O163 1.260 . S
C160 O167 1.240 . S
C160 O168 1.252 . S
C161 O164 1.252 . S
C161 O165 1.260 . S
O162 In156 2.266 1_556 S
O162 C159 1.252 . S
O163 In156 2.326 1_556 S
O163 C159 1.260 . S
O164 In156 2.266 . S
O164 C161 1.252 . S
O165 In156 2.326 . S
O165 C161 1.260 . S
C166 O157 1.240 . S
C166 O158 1.252 . S
O167 In156 2.294 . S
O167 C160 1.240 . S
O168 In156 2.326 . S
O168 C160 1.252 . S
In169 O170 2.294 . S
In169 O171 2.326 . S
In169 O175 2.266 . S
In169 O176 2.326 . S
In169 O177 2.266 . S
In169 O178 2.326 1_554 S
In169 O180 2.294 . S
In169 O181 2.326 . S
O170 In169 2.294 . S
O170 C179 1.240 . S
O171 In169 2.326 . S
O171 C179 1.252 . S
C172 O175 1.252 . S
C172 O176 1.260 . S
C173 O180 1.240 . S
C173 O181 1.252 . S
C174 O177 1.252 1_556 S
C174 O178 1.260 . S
O175 In169 2.266 . S
O175 C172 1.252 . S
O176 In169 2.326 . S
O176 C172 1.260 . S
O177 In169 2.266 . S
O177 C174 1.252 1_554 S
O178 In169 2.326 1_556 S
O178 C174 1.260 . S
C179 O170 1.240 . S
C179 O171 1.252 . S
O180 In169 2.294 . S
O180 C173 1.240 . S
O181 In169 2.326 . S
O181 C173 1.252 . S
In182 O183 2.294 . S
In182 O184 2.326 . S
In182 O188 2.266 . S
In182 O189 2.326 . S
In182 O190 2.266 . S
In182 O191 2.326 . S
In182 O193 2.294 . S
In182 O194 2.326 . S
O183 In182 2.294 . S
O183 C192 1.240 . S
O184 In182 2.326 . S
O184 C192 1.252 . S
C185 O188 1.252 . S
C185 O189 1.260 . S
C186 O193 1.240 . S
C186 O194 1.252 . S
C187 O190 1.252 . S
C187 O191 1.260 . S
O188 In182 2.266 . S
O188 C185 1.252 . S
O189 In182 2.326 . S
O189 C185 1.260 . S
O190 In182 2.266 . S
O190 C187 1.252 . S
O191 In182 2.326 . S
O191 C187 1.260 . S
C192 O183 1.240 . S
C192 O184 1.252 . S
O193 In182 2.294 . S
O193 C186 1.240 . S
O194 In182 2.326 . S
O194 C186 1.252 . S
In195 O196 2.294 . S
In195 O197 2.326 . S
In195 O201 2.266 . S
In195 O202 2.326 . S
In195 O203 2.266 . S
In195 O204 2.326 . S
In195 O206 2.294 . S
In195 O207 2.326 . S
O196 In195 2.294 . S
O196 C205 1.240 . S
O197 In195 2.326 . S
O197 C205 1.252 . S
C198 O201 1.252 . S
C198 O202 1.260 . S
C199 O206 1.240 . S
C199 O207 1.252 . S
C200 O203 1.252 . S
C200 O204 1.260 . S
O201 In195 2.266 . S
O201 C198 1.252 . S
O202 In195 2.326 . S
O202 C198 1.260 . S
O203 In195 2.266 . S
O203 C200 1.252 . S
O204 In195 2.326 . S
O204 C200 1.260 . S
C205 O196 1.240 . S
C205 O197 1.252 . S
O206 In195 2.294 . S
O206 C199 1.240 . S
O207 In195 2.326 . S
O207 C199 1.252 . S
In208 O209 2.294 . S
In208 O210 2.326 . S
In208 O214 2.266 . S
In208 O215 2.326 . S
In208 O216 2.266 . S
In208 O217 2.326 . S
In208 O219 2.294 . S
In208 O220 2.326 . S
O209 In208 2.294 . S
O209 C218 1.240 . S
O210 In208 2.326 . S
O210 C218 1.252 . S
C211 O214 1.252 . S
C211 O215 1.260 . S
C212 O219 1.240 . S
C212 O220 1.252 . S
C213 O216 1.252 . S
C213 O217 1.260 . S
O214 In208 2.266 . S
O214 C211 1.252 . S
O215 In208 2.326 . S
O215 C211 1.260 . S
O216 In208 2.266 . S
O216 C213 1.252 . S
O217 In208 2.326 . S
O217 C213 1.260 . S
C218 O209 1.240 . S
C218 O210 1.252 . S
O219 In208 2.294 . S
O219 C212 1.240 . S
O220 In208 2.326 . S
O220 C212 1.252 . S
In221 O222 2.294 . S
In221 O223 2.326 . S
In221 O227 2.266 . S
In221 O228 2.326 . S
In221 O229 2.266 . S
In221 O230 2.326 . S
In221 O232 2.294 . S
In221 O233 2.326 . S
O222 In221 2.294 . S
O222 C231 1.240 . S
O223 In221 2.326 . S
O223 C231 1.252 . S
C224 O227 1.252 . S
C224 O228 1.260 . S
C225 O232 1.240 . S
C225 O233 1.252 . S
C226 O229 1.252 . S
C226 O230 1.260 . S
O227 In221 2.266 . S
O227 C224 1.252 . S
O228 In221 2.326 . S
O228 C224 1.260 . S
O229 In221 2.266 . S
O229 C226 1.252 . S
O230 In221 2.326 . S
O230 C226 1.260 . S
C231 O222 1.240 . S
C231 O223 1.252 . S
O232 In221 2.294 . S
O232 C225 1.240 . S
O233 In221 2.326 . S
O233 C225 1.252 . S
In234 O235 2.294 . S
In234 O236 2.326 . S
In234 O240 2.266 . S
In234 O241 2.326 . S
In234 O242 2.266 . S
In234 O243 2.326 . S
In234 O245 2.294 . S
In234 O246 2.326 . S
O235 In234 2.294 . S
O235 C244 1.240 . S
O236 In234 2.326 . S
O236 C244 1.252 . S
C237 O240 1.252 . S
C237 O241 1.260 . S
C238 O245 1.240 . S
C238 O246 1.252 . S
C239 O242 1.252 . S
C239 O243 1.260 . S
O240 In234 2.266 . S
O240 C237 1.252 . S
O241 In234 2.326 . S
O241 C237 1.260 . S
O242 In234 2.266 . S
O242 C239 1.252 . S
O243 In234 2.326 . S
O243 C239 1.260 . S
C244 O235 1.240 . S
C244 O236 1.252 . S
O245 In234 2.294 . S
O245 C238 1.240 . S
O246 In234 2.326 . S
O246 C238 1.252 . S
In247 O248 2.294 . S
In247 O249 2.326 . S
In247 O253 2.266 . S
In247 O254 2.326 . S
In247 O255 2.266 . S
In247 O256 2.326 . S
In247 O258 2.294 . S
In247 O259 2.326 . S
O248 In247 2.294 . S
O248 C257 1.240 . S
O249 In247 2.326 . S
O249 C257 1.252 . S
C250 O253 1.252 . S
C250 O254 1.260 . S
C251 O258 1.240 . S
C251 O259 1.252 . S
C252 O255 1.252 . S
C252 O256 1.260 . S
O253 In247 2.266 . S
O253 C250 1.252 . S
O254 In247 2.326 . S
O254 C250 1.260 . S
O255 In247 2.266 . S
O255 C252 1.252 . S
O256 In247 2.326 . S
O256 C252 1.260 . S
C257 O248 1.240 . S
C257 O249 1.252 . S
O258 In247 2.294 . S
O258 C251 1.240 . S
O259 In247 2.326 . S
O259 C251 1.252 . S
In260 O261 2.294 . S
In260 O262 2.326 . S
In260 O266 2.267 . S
In260 O267 2.326 . S
In260 O268 2.266 1_554 S
In260 O269 2.326 1_554 S
In260 O271 2.294 . S
In260 O272 2.326 . S
O261 In260 2.294 . S
O261 C270 1.240 . S
O262 In260 2.326 . S
O262 C270 1.252 . S
C263 O266 1.252 . S
C263 O267 1.260 . S
C264 O271 1.240 . S
C264 O272 1.252 . S
C265 O268 1.252 . S
C265 O269 1.260 . S
O266 In260 2.267 . S
O266 C263 1.252 . S
O267 In260 2.326 . S
O267 C263 1.260 . S
O268 In260 2.266 1_556 S
O268 C265 1.252 . S
O269 In260 2.326 1_556 S
O269 C265 1.260 . S
C270 O261 1.240 . S
C270 O262 1.252 . S
O271 In260 2.294 . S
O271 C264 1.240 . S
O272 In260 2.326 . S
O272 C264 1.252 . S
In273 O274 2.294 . S
In273 O275 2.326 . S
In273 O279 2.266 . S
In273 O280 2.326 . S
In273 O281 2.266 . S
In273 O282 2.326 . S
In273 O284 2.294 . S
In273 O285 2.326 . S
O274 In273 2.294 . S
O274 C283 1.240 . S
O275 In273 2.326 . S
O275 C283 1.252 . S
C276 O279 1.252 . S
C276 O280 1.260 . S
C277 O284 1.240 . S
C277 O285 1.252 . S
C278 O281 1.252 . S
C278 O282 1.260 . S
O279 In273 2.266 . S
O279 C276 1.252 . S
O280 In273 2.326 . S
O280 C276 1.260 . S
O281 In273 2.266 . S
O281 C278 1.252 . S
O282 In273 2.326 . S
O282 C278 1.260 . S
C283 O274 1.240 . S
C283 O275 1.252 . S
O284 In273 2.294 . S
O284 C277 1.240 . S
O285 In273 2.326 . S
O285 C277 1.252 . S
In286 O287 2.294 . S
In286 O288 2.326 . S
In286 O292 2.266 . S
In286 O293 2.326 . S
In286 O294 2.266 . S
In286 O295 2.326 . S
In286 O297 2.294 . S
In286 O298 2.326 . S
O287 In286 2.294 . S
O287 C296 1.240 . S
O288 In286 2.326 . S
O288 C296 1.252 . S
C289 O292 1.252 . S
C289 O293 1.260 . S
C290 O297 1.240 . S
C290 O298 1.252 . S
C291 O294 1.252 . S
C291 O295 1.260 . S
O292 In286 2.266 . S
O292 C289 1.252 . S
O293 In286 2.326 . S
O293 C289 1.260 . S
O294 In286 2.266 . S
O294 C291 1.252 . S
O295 In286 2.326 . S
O295 C291 1.260 . S
C296 O287 1.240 . S
C296 O288 1.252 . S
O297 In286 2.294 . S
O297 C290 1.240 . S
O298 In286 2.326 . S
O298 C290 1.252 . S
In299 O300 2.294 . S
In299 O301 2.326 . S
In299 O305 2.266 . S
In299 O306 2.326 . S
In299 O307 2.266 . S
In299 O308 2.326 . S
In299 O310 2.294 . S
In299 O311 2.326 . S
O300 In299 2.294 . S
O300 C309 1.240 . S
O301 In299 2.326 . S
O301 C309 1.252 . S
C302 O305 1.252 . S
C302 O306 1.260 . S
C303 O310 1.240 . S
C303 O311 1.252 . S
C304 O307 1.252 . S
C304 O308 1.260 . S
O305 In299 2.266 . S
O305 C302 1.252 . S
O306 In299 2.326 . S
O306 C302 1.260 . S
O307 In299 2.266 . S
O307 C304 1.252 . S
O308 In299 2.326 . S
O308 C304 1.260 . S
C309 O300 1.240 . S
C309 O301 1.252 . S
O310 In299 2.294 . S
O310 C303 1.240 . S
O311 In299 2.326 . S
O311 C303 1.252 . S
Eu312 C321 2.828 . S
Eu312 O323 2.392 . S
Eu312 O325 2.418 . S
Eu312 O330 2.373 . S
Eu312 O333 2.488 . S
Eu312 O334 2.471 . S
Eu312 O335 2.349 1_554 S
Eu313 O322 2.373 . S
Eu313 O326 2.488 1_545 S
Eu313 O327 2.471 1_545 S
Eu313 O328 2.349 . S
Eu313 O331 2.392 . S
Eu313 O332 2.418 1_554 S
Eu313 C342 2.828 1_545 S
C314 O332 1.244 . S
C314 O335 1.265 . S
C315 C316 1.379 1_554 S
C315 C319 1.373 . S
C315 C321 1.505 . S
C316 C315 1.379 1_556 S
C316 C318 1.369 . S
C316 H344 0.930 . S
C317 C319 1.383 . S
C317 C320 1.382 . S
C317 H345 0.930 . S
C318 C316 1.369 . S
C318 C320 1.392 1_556 S
C318 H346 0.930 . S
C319 C315 1.373 . S
C319 C317 1.383 . S
C319 H347 0.931 . S
C320 C317 1.382 . S
C320 C318 1.392 1_554 S
C321 Eu312 2.828 . S
C321 C315 1.505 . S
C321 O333 1.249 . S
C321 O334 1.244 . S
O322 Eu313 2.373 . S
O322 C324 1.258 . S
O323 Eu312 2.392 . S
O323 C324 1.242 . S
C324 O322 1.258 . S
C324 O323 1.242 . S
O325 Eu312 2.418 . S
O325 C329 1.244 . S
O326 Eu313 2.488 1_565 S
O326 C342 1.249 . S
O327 Eu313 2.471 1_565 S
O327 C342 1.244 . S
O328 Eu313 2.349 . S
O328 C329 1.265 . S
C329 O325 1.244 . S
C329 O328 1.265 . S
O330 Eu312 2.373 . S
O330 C343 1.258 . S
O331 Eu313 2.392 . S
O331 C343 1.242 . S
O332 Eu313 2.418 1_556 S
O332 C314 1.244 . S
O333 Eu312 2.488 . S
O333 C321 1.249 . S
O334 Eu312 2.471 . S
O334 C321 1.244 . S
O335 Eu312 2.349 1_556 S
O335 C314 1.265 . S
C336 C337 1.379 . S
C336 C340 1.373 . S
C336 C342 1.505 . S
C337 C336 1.379 . S
C337 C339 1.369 . S
C337 H348 0.930 . S
C338 C340 1.383 . S
C338 C341 1.382 . S
C338 H349 0.930 . S
C339 C337 1.369 . S
C339 C341 1.392 . S
C339 H350 0.930 . S
C340 C336 1.373 . S
C340 C338 1.383 . S
C340 H351 0.966 . S
C341 C338 1.382 . S
C341 C339 1.392 . S
C342 Eu313 2.828 1_565 S
C342 O326 1.249 . S
C342 O327 1.244 . S
C342 C336 1.505 . S
C343 O330 1.258 . S
C343 O331 1.242 . S
H344 C316 0.930 . S
H345 C317 0.930 . S
H346 C318 0.930 . S
H347 C319 0.931 . S
H348 C337 0.930 . S
H349 C338 0.930 . S
H350 C339 0.930 . S
H351 C340 0.966 . S
Eu352 C361 2.828 . S
Eu352 O363 2.392 . S
Eu352 O365 2.418 . S
Eu352 O370 2.373 . S
Eu352 O373 2.488 . S
Eu352 O374 2.471 . S
Eu352 O375 2.349 . S
Eu353 O362 2.373 . S
Eu353 O366 2.488 . S
Eu353 O367 2.471 . S
Eu353 O368 2.349 . S
Eu353 O371 2.392 . S
Eu353 O372 2.418 . S
Eu353 C382 2.828 . S
C354 O372 1.244 . S
C354 O375 1.265 . S
C355 C356 1.379 . S
C355 C359 1.373 . S
C355 C361 1.505 . S
C356 C355 1.379 . S
C356 C358 1.369 . S
C356 H384 0.930 . S
C357 C359 1.383 . S
C357 C360 1.382 . S
C357 H385 0.930 . S
C358 C356 1.369 . S
C358 C360 1.392 . S
C358 H386 0.930 . S
C359 C355 1.373 . S
C359 C357 1.383 . S
C359 H387 0.931 . S
C360 C357 1.382 . S
C360 C358 1.392 . S
C361 Eu352 2.828 . S
C361 C355 1.505 . S
C361 O373 1.249 . S
C361 O374 1.244 . S
O362 Eu353 2.373 . S
O362 C364 1.258 . S
O363 Eu352 2.392 . S
O363 C364 1.242 . S
C364 O362 1.258 . S
C364 O363 1.242 . S
O365 Eu352 2.418 . S
O365 C369 1.244 . S
O366 Eu353 2.488 . S
O366 C382 1.249 . S
O367 Eu353 2.471 . S
O367 C382 1.244 . S
O368 Eu353 2.349 . S
O368 C369 1.265 . S
C369 O365 1.244 . S
C369 O368 1.265 . S
O370 Eu352 2.373 . S
O370 C383 1.258 . S
O371 Eu353 2.392 . S
O371 C383 1.242 . S
O372 Eu353 2.418 . S
O372 C354 1.244 . S
O373 Eu352 2.488 . S
O373 C361 1.249 . S
O374 Eu352 2.471 . S
O374 C361 1.244 . S
O375 Eu352 2.349 . S
O375 C354 1.265 . S
C376 C377 1.379 . S
C376 C380 1.373 . S
C376 C382 1.505 . S
C377 C376 1.379 . S
C377 C379 1.369 . S
C377 H388 0.930 . S
C378 C380 1.383 . S
C378 C381 1.382 . S
C378 H389 0.930 . S
C379 C377 1.369 . S
C379 C381 1.392 . S
C379 H390 0.930 . S
C380 C376 1.373 . S
C380 C378 1.383 . S
C380 H391 0.931 . S
C381 C378 1.382 . S
C381 C379 1.392 . S
C382 Eu353 2.828 . S
C382 O366 1.249 . S
C382 O367 1.244 . S
C382 C376 1.505 . S
C383 O370 1.258 . S
C383 O371 1.242 . S
H384 C356 0.930 . S
H385 C357 0.930 . S
H386 C358 0.930 . S
H387 C359 0.931 . S
H388 C377 0.930 . S
H389 C378 0.930 . S
H390 C379 0.930 . S
H391 C380 0.931 . S
Eu392 C401 2.828 . S
Eu392 O403 2.392 . S
Eu392 O405 2.418 . S
Eu392 O410 2.373 1_545 S
Eu392 O413 2.488 . S
Eu392 O414 2.471 . S
Eu392 O415 2.349 . S
Eu393 O402 2.373 . S
Eu393 O406 2.488 . S
Eu393 O407 2.471 . S
Eu393 O408 2.349 . S
Eu393 O411 2.392 1_545 S
Eu393 O412 2.418 . S
Eu393 C422 2.828 . S
C394 O412 1.244 . S
C394 O415 1.265 . S
C395 C396 1.379 . S
C395 C399 1.373 . S
C395 C401 1.505 1_565 S
C396 C395 1.379 . S
C396 C398 1.369 . S
C396 H424 0.930 . S
C397 C399 1.383 . S
C397 C400 1.382 . S
C397 H425 0.930 . S
C398 C396 1.369 . S
C398 C400 1.392 . S
C398 H426 0.930 . S
C399 C395 1.373 . S
C399 C397 1.383 . S
C399 H427 0.931 . S
C400 C397 1.382 . S
C400 C398 1.392 . S
C401 Eu392 2.828 . S
C401 C395 1.505 1_545 S
C401 O413 1.249 . S
C401 O414 1.244 . S
O402 Eu393 2.373 . S
O402 C404 1.258 . S
O403 Eu392 2.392 . S
O403 C404 1.242 . S
C404 O402 1.258 . S
C404 O403 1.242 . S
O405 Eu392 2.418 . S
O405 C409 1.244 . S
O406 Eu393 2.488 . S
O406 C422 1.249 . S
O407 Eu393 2.471 . S
O407 C422 1.244 . S
O408 Eu393 2.349 . S
O408 C409 1.265 . S
C409 O405 1.244 . S
C409 O408 1.265 . S
O410 Eu392 2.373 1_565 S
O410 C423 1.258 . S
O411 Eu393 2.392 1_565 S
O411 C423 1.242 . S
O412 Eu393 2.418 . S
O412 C394 1.244 . S
O413 Eu392 2.488 . S
O413 C401 1.249 . S
O414 Eu392 2.471 . S
O414 C401 1.244 . S
O415 Eu392 2.349 . S
O415 C394 1.265 . S
C416 C417 1.379 . S
C416 C420 1.373 . S
C416 C422 1.505 . S
C417 C416 1.379 . S
C417 C419 1.369 . S
C417 H428 0.930 . S
C418 C420 1.383 . S
C418 C421 1.382 . S
C418 H429 0.930 . S
C419 C417 1.369 . S
C419 C421 1.392 . S
C419 H430 0.930 . S
C420 C416 1.373 . S
C420 C418 1.383 . S
C420 H431 0.931 . S
C421 C418 1.382 . S
C421 C419 1.392 . S
C422 Eu393 2.828 . S
C422 O406 1.249 . S
C422 O407 1.244 . S
C422 C416 1.505 . S
C423 O410 1.258 . S
C423 O411 1.242 . S
H424 C396 0.930 . S
H425 C397 0.930 . S
H426 C398 0.930 . S
H427 C399 0.931 . S
H428 C417 0.930 . S
H429 C418 0.930 . S
H430 C419 0.930 . S
H431 C420 0.931 . S
Eu432 C441 2.828 . S
Eu432 O443 2.392 . S
Eu432 O445 2.418 . S
Eu432 O450 2.373 . S
Eu432 O453 2.488 . S
Eu432 O454 2.471 . S
Eu432 O455 2.349 . S
Eu433 O442 2.373 . S
Eu433 O446 2.488 . S
Eu433 O447 2.471 . S
Eu433 O448 2.349 . S
Eu433 O451 2.392 . S
Eu433 O452 2.418 . S
Eu433 C462 2.828 . S
C434 O452 1.244 . S
C434 O455 1.265 . S
C435 C436 1.379 . S
C435 C439 1.373 . S
C435 C441 1.505 . S
C436 C435 1.379 . S
C436 C438 1.369 . S
C436 H464 0.930 . S
C437 C439 1.383 . S
C437 C440 1.382 . S
C437 H465 0.930 . S
C438 C436 1.369 . S
C438 C440 1.392 . S
C438 H466 0.930 . S
C439 C435 1.373 . S
C439 C437 1.383 . S
C439 H467 0.931 . S
C440 C437 1.382 . S
C440 C438 1.392 . S
C441 Eu432 2.828 . S
C441 C435 1.505 . S
C441 O453 1.249 . S
C441 O454 1.244 . S
O442 Eu433 2.373 . S
O442 C444 1.258 . S
O443 Eu432 2.392 . S
O443 C444 1.242 . S
C444 O442 1.258 . S
C444 O443 1.242 . S
O445 Eu432 2.418 . S
O445 C449 1.244 . S
O446 Eu433 2.488 . S
O446 C462 1.249 . S
O447 Eu433 2.471 . S
O447 C462 1.244 . S
O448 Eu433 2.349 . S
O448 C449 1.265 . S
C449 O445 1.244 . S
C449 O448 1.265 . S
O450 Eu432 2.373 . S
O450 C463 1.258 . S
O451 Eu433 2.392 . S
O451 C463 1.242 . S
O452 Eu433 2.418 . S
O452 C434 1.244 . S
O453 Eu432 2.488 . S
O453 C441 1.249 . S
O454 Eu432 2.471 . S
O454 C441 1.244 . S
O455 Eu432 2.349 . S
O455 C434 1.265 . S
C456 C457 1.379 . S
C456 C460 1.373 . S
C456 C462 1.505 . S
C457 C456 1.379 . S
C457 C459 1.369 . S
C457 H468 0.930 . S
C458 C460 1.383 . S
C458 C461 1.382 . S
C458 H469 0.930 . S
C459 C457 1.369 . S
C459 C461 1.392 . S
C459 H470 0.930 . S
C460 C456 1.373 . S
C460 C458 1.383 . S
C460 H471 0.931 . S
C461 C458 1.382 . S
C461 C459 1.392 . S
C462 Eu433 2.828 . S
C462 O446 1.249 . S
C462 O447 1.244 . S
C462 C456 1.505 . S
C463 O450 1.258 . S
C463 O451 1.242 . S
H464 C436 0.930 . S
H465 C437 0.930 . S
H466 C438 0.930 . S
H467 C439 0.931 . S
H468 C457 0.930 . S
H469 C458 0.930 . S
H470 C459 0.930 . S
H471 C460 0.931 . S
Eu472 C481 2.828 . S
Eu472 O483 2.392 . S
Eu472 O485 2.418 . S
Eu472 O490 2.373 . S
Eu472 O493 2.488 . S
Eu472 O494 2.471 . S
Eu472 O495 2.349 . S
Eu473 O482 2.373 1_565 S
Eu473 O486 2.488 . S
Eu473 O487 2.471 . S
Eu473 O488 2.349 1_565 S
Eu473 O491 2.392 1_565 S
Eu473 O492 2.418 1_565 S
Eu473 C502 2.828 . S
C474 O492 1.244 . S
C474 O495 1.265 . S
C475 C476 1.379 . S
C475 C479 1.373 . S
C475 C481 1.505 . S
C476 C475 1.379 . S
C476 C478 1.369 . S
C476 H504 0.930 . S
C477 C479 1.383 . S
C477 C480 1.382 . S
C477 H505 0.930 . S
C478 C476 1.369 . S
C478 C480 1.392 . S
C478 H506 0.930 . S
C479 C475 1.373 . S
C479 C477 1.383 . S
C479 H507 0.931 . S
C480 C477 1.382 . S
C480 C478 1.392 . S
C481 Eu472 2.828 . S
C481 C475 1.505 . S
C481 O493 1.249 . S
C481 O494 1.244 . S
O482 Eu473 2.373 1_545 S
O482 C484 1.258 . S
O483 Eu472 2.392 . S
O483 C484 1.242 . S
C484 O482 1.258 . S
C484 O483 1.242 . S
O485 Eu472 2.418 . S
O485 C489 1.244 . S
O486 Eu473 2.488 . S
O486 C502 1.249 . S
O487 Eu473 2.471 . S
O487 C502 1.244 . S
O488 Eu473 2.349 1_545 S
O488 C489 1.265 . S
C489 O485 1.244 . S
C489 O488 1.265 . S
O490 Eu472 2.373 . S
O490 C503 1.258 . S
O491 Eu473 2.392 1_545 S
O491 C503 1.242 . S
O492 Eu473 2.418 1_545 S
O492 C474 1.244 . S
O493 Eu472 2.488 . S
O493 C481 1.249 . S
O494 Eu472 2.471 . S
O494 C481 1.244 . S
O495 Eu472 2.349 . S
O495 C474 1.265 . S
C496 C497 1.379 . S
C496 C500 1.373 . S
C496 C502 1.505 . S
C497 C496 1.379 . S
C497 C499 1.369 . S
C497 H508 0.930 . S
C498 C500 1.383 . S
C498 C501 1.382 . S
C498 H509 0.930 . S
C499 C497 1.369 . S
C499 C501 1.392 . S
C499 H510 0.930 . S
C500 C496 1.373 . S
C500 C498 1.383 . S
C500 H511 0.931 . S
C501 C498 1.382 . S
C501 C499 1.392 . S
C502 Eu473 2.828 . S
C502 O486 1.249 . S
C502 O487 1.244 . S
C502 C496 1.505 . S
C503 O490 1.258 . S
C503 O491 1.242 . S
H504 C476 0.930 . S
H505 C477 0.930 . S
H506 C478 0.930 . S
H507 C479 0.931 . S
H508 C497 0.930 . S
H509 C498 0.930 . S
H510 C499 0.930 . S
H511 C500 0.931 . S
Eu512 C521 2.828 . S
Eu512 O523 2.392 . S
Eu512 O525 2.418 . S
Eu512 O530 2.373 . S
Eu512 O533 2.488 . S
Eu512 O534 2.471 . S
Eu512 O535 2.349 . S
Eu513 O522 2.373 . S
Eu513 O526 2.488 . S
Eu513 O527 2.471 . S
Eu513 O528 2.349 . S
Eu513 O531 2.392 . S
Eu513 O532 2.418 . S
Eu513 C542 2.828 . S
C514 O532 1.244 . S
C514 O535 1.265 . S
C515 C516 1.379 . S
C515 C519 1.373 . S
C515 C521 1.505 . S
C516 C515 1.379 . S
C516 C518 1.369 . S
C516 H544 0.930 . S
C517 C519 1.383 . S
C517 C520 1.382 . S
C517 H545 0.930 . S
C518 C516 1.369 . S
C518 C520 1.392 . S
C518 H546 0.930 . S
C519 C515 1.373 . S
C519 C517 1.383 . S
C519 H547 0.931 . S
C520 C517 1.382 . S
C520 C518 1.392 . S
C521 Eu512 2.828 . S
C521 C515 1.505 . S
C521 O533 1.249 . S
C521 O534 1.244 . S
O522 Eu513 2.373 . S
O522 C524 1.258 . S
O523 Eu512 2.392 . S
O523 C524 1.242 . S
C524 O522 1.258 . S
C524 O523 1.242 . S
O525 Eu512 2.418 . S
O525 C529 1.244 . S
O526 Eu513 2.488 . S
O526 C542 1.249 . S
O527 Eu513 2.471 . S
O527 C542 1.244 . S
O528 Eu513 2.349 . S
O528 C529 1.265 . S
C529 O525 1.244 . S
C529 O528 1.265 . S
O530 Eu512 2.373 . S
O530 C543 1.258 . S
O531 Eu513 2.392 . S
O531 C543 1.242 . S
O532 Eu513 2.418 . S
O532 C514 1.244 . S
O533 Eu512 2.488 . S
O533 C521 1.249 . S
O534 Eu512 2.471 . S
O534 C521 1.244 . S
O535 Eu512 2.349 . S
O535 C514 1.265 . S
C536 C537 1.379 . S
C536 C540 1.373 . S
C536 C542 1.505 . S
C537 C536 1.379 . S
C537 C539 1.369 . S
C537 H548 0.930 . S
C538 C540 1.383 . S
C538 C541 1.382 . S
C538 H549 0.930 . S
C539 C537 1.369 . S
C539 C541 1.392 . S
C539 H550 0.930 . S
C540 C536 1.373 . S
C540 C538 1.383 . S
C540 H551 0.931 . S
C541 C538 1.382 . S
C541 C539 1.392 . S
C542 Eu513 2.828 . S
C542 O526 1.249 . S
C542 O527 1.244 . S
C542 C536 1.505 . S
C543 O530 1.258 . S
C543 O531 1.242 . S
H544 C516 0.930 . S
H545 C517 0.930 . S
H546 C518 0.930 . S
H547 C519 0.931 . S
H548 C537 0.930 . S
H549 C538 0.930 . S
H550 C539 0.930 . S
H551 C540 0.931 . S
Eu552 C561 2.828 . S
Eu552 O563 2.392 . S
Eu552 O565 2.418 1_545 S
Eu552 O570 2.373 . S
Eu552 O573 2.488 . S
Eu552 O574 2.471 . S
Eu552 O575 2.349 . S
Eu553 O562 2.373 1_556 S
Eu553 O566 2.488 . S
Eu553 O567 2.471 . S
Eu553 O568 2.349 . S
Eu553 O571 2.392 . S
Eu553 O572 2.418 1_556 S
Eu553 C582 2.828 . S
C554 O572 1.244 . S
C554 O575 1.265 . S
C555 C556 1.379 . S
C555 C559 1.358 1_545 S
C555 C561 1.505 . S
C556 C555 1.379 . S
C556 C558 1.369 . S
C556 H584 0.930 . S
C557 C559 1.387 . S
C557 C560 1.382 1_565 S
C557 H585 0.930 . S
C558 C556 1.369 . S
C558 C560 1.392 . S
C558 H586 0.930 . S
C559 C555 1.358 1_565 S
C559 C557 1.387 . S
C559 H587 0.941 . S
C560 C557 1.382 1_545 S
C560 C558 1.392 . S
C561 Eu552 2.828 . S
C561 C555 1.505 . S
C561 O573 1.249 . S
C561 O574 1.244 . S
O562 Eu553 2.373 1_554 S
O562 C564 1.258 . S
O563 Eu552 2.392 . S
O563 C564 1.242 . S
C564 O562 1.258 . S
C564 O563 1.242 . S
O565 Eu552 2.418 1_565 S
O565 C569 1.244 1_565 S
O566 Eu553 2.488 . S
O566 C582 1.249 . S
O567 Eu553 2.471 . S
O567 C582 1.244 . S
O568 Eu553 2.349 . S
O568 C569 1.265 1_556 S
C569 O565 1.244 1_545 S
C569 O568 1.265 1_554 S
O570 Eu552 2.373 . S
O570 C583 1.258 . S
O571 Eu553 2.392 . S
O571 C583 1.242 1_556 S
O572 Eu553 2.418 1_554 S
O572 C554 1.244 . S
O573 Eu552 2.488 . S
O573 C561 1.249 . S
O574 Eu552 2.471 . S
O574 C561 1.244 . S
O575 Eu552 2.349 . S
O575 C554 1.265 . S
C576 C577 1.379 . S
C576 C580 1.373 . S
C576 C582 1.505 . S
C577 C576 1.379 . S
C577 C579 1.369 . S
C577 H588 0.930 . S
C578 C580 1.383 . S
C578 C581 1.382 . S
C578 H589 0.930 . S
C579 C577 1.369 . S
C579 C581 1.392 . S
C579 H590 0.930 . S
C580 C576 1.373 . S
C580 C578 1.383 . S
C580 H591 0.931 . S
C581 C578 1.382 . S
C581 C579 1.392 . S
C582 Eu553 2.828 . S
C582 O566 1.249 . S
C582 O567 1.244 . S
C582 C576 1.505 . S
C583 O570 1.258 . S
C583 O571 1.242 1_554 S
H584 C556 0.930 . S
H585 C557 0.930 . S
H586 C558 0.930 . S
H587 C559 0.941 . S
H588 C577 0.930 . S
H589 C578 0.930 . S
H590 C579 0.930 . S
H591 C580 0.931 . S
Eu592 C601 2.828 . S
Eu592 O603 2.392 . S
Eu592 O605 2.418 . S
Eu592 O610 2.373 . S
Eu592 O613 2.488 . S
Eu592 O614 2.471 . S
Eu592 O615 2.349 . S
Eu593 O602 2.373 . S
Eu593 O606 2.488 . S
Eu593 O607 2.471 . S
Eu593 O608 2.349 . S
Eu593 O611 2.392 . S
Eu593 O612 2.418 . S
Eu593 C622 2.828 . S
C594 O612 1.244 . S
C594 O615 1.265 . S
C595 C596 1.379 . S
C595 C599 1.373 . S
C595 C601 1.505 . S
C596 C595 1.379 . S
C596 C598 1.369 . S
C596 H624 0.930 . S
C597 C599 1.383 . S
C597 C600 1.382 . S
C597 H625 0.930 . S
C598 C596 1.369 . S
C598 C600 1.392 . S
C598 H626 0.930 . S
C599 C595 1.373 . S
C599 C597 1.383 . S
C599 H627 0.931 . S
C600 C597 1.382 . S
C600 C598 1.392 . S
C601 Eu592 2.828 . S
C601 C595 1.505 . S
C601 O613 1.249 . S
C601 O614 1.244 . S
O602 Eu593 2.373 . S
O602 C604 1.258 . S
O603 Eu592 2.392 . S
O603 C604 1.242 . S
C604 O602 1.258 . S
C604 O603 1.242 . S
O605 Eu592 2.418 . S
O605 C609 1.244 . S
O606 Eu593 2.488 . S
O606 C622 1.249 . S
O607 Eu593 2.471 . S
O607 C622 1.244 . S
O608 Eu593 2.349 . S
O608 C609 1.265 . S
C609 O605 1.244 . S
C609 O608 1.265 . S
O610 Eu592 2.373 . S
O610 C623 1.258 . S
O611 Eu593 2.392 . S
O611 C623 1.242 . S
O612 Eu593 2.418 . S
O612 C594 1.244 . S
O613 Eu592 2.488 . S
O613 C601 1.249 . S
O614 Eu592 2.471 . S
O614 C601 1.244 . S
O615 Eu592 2.349 . S
O615 C594 1.265 . S
C616 C617 1.379 . S
C616 C620 1.373 . S
C616 C622 1.505 . S
C617 C616 1.379 . S
C617 C619 1.369 . S
C617 H628 0.930 . S
C618 C620 1.383 . S
C618 C621 1.382 . S
C618 H629 0.930 . S
C619 C617 1.369 . S
C619 C621 1.392 . S
C619 H630 0.930 . S
C620 C616 1.373 . S
C620 C618 1.383 . S
C620 H631 0.931 . S
C621 C618 1.382 . S
C621 C619 1.392 . S
C622 Eu593 2.828 . S
C622 O606 1.249 . S
C622 O607 1.244 . S
C622 C616 1.505 . S
C623 O610 1.258 . S
C623 O611 1.242 . S
H624 C596 0.930 . S
H625 C597 0.930 . S
H626 C598 0.930 . S
H627 C599 0.931 . S
H628 C617 0.930 . S
H629 C618 0.930 . S
H630 C619 0.930 . S
H631 C620 0.931 . S
Eu632 C641 2.828 . S
Eu632 O643 2.392 . S
Eu632 O645 2.418 . S
Eu632 O650 2.373 1_554 S
Eu632 O653 2.488 . S
Eu632 O654 2.471 . S
Eu632 O655 2.349 . S
Eu633 O642 2.373 1_556 S
Eu633 O646 2.488 1_556 S
Eu633 O647 2.471 1_556 S
Eu633 O648 2.349 1_556 S
Eu633 O651 2.392 . S
Eu633 O652 2.418 . S
Eu633 C662 2.828 1_556 S
C634 O652 1.243 1_554 S
C634 O655 1.265 . S
C635 C636 1.379 . S
C635 C639 1.372 . S
C635 C641 1.505 1_556 S
C636 C635 1.379 . S
C636 C638 1.369 . S
C636 H664 0.930 . S
C637 C639 1.381 . S
C637 C640 1.382 . S
C637 H665 0.930 . S
C638 C636 1.369 . S
C638 C640 1.392 . S
C638 H666 0.930 . S
C639 C635 1.372 . S
C639 C637 1.381 . S
C639 H667 0.933 1_556 S
C640 C637 1.382 . S
C640 C638 1.392 . S
C641 Eu632 2.828 . S
C641 C635 1.505 1_554 S
C641 O653 1.249 . S
C641 O654 1.244 . S
O642 Eu633 2.373 1_554 S
O642 C644 1.258 . S
O643 Eu632 2.392 . S
O643 C644 1.242 . S
C644 O642 1.258 . S
C644 O643 1.242 . S
O645 Eu632 2.418 . S
O645 C649 1.244 . S
O646 Eu633 2.488 1_554 S
O646 C662 1.249 . S
O647 Eu633 2.471 1_554 S
O647 C662 1.244 . S
O648 Eu633 2.349 1_554 S
O648 C649 1.265 . S
C649 O645 1.244 . S
C649 O648 1.265 . S
O650 Eu632 2.373 1_556 S
O650 C663 1.258 . S
O651 Eu633 2.392 . S
O651 C663 1.242 . S
O652 Eu633 2.418 . S
O652 C634 1.243 1_556 S
O653 Eu632 2.488 . S
O653 C641 1.249 . S
O654 Eu632 2.471 . S
O654 C641 1.244 . S
O655 Eu632 2.349 . S
O655 C634 1.265 . S
C656 C657 1.379 . S
C656 C660 1.373 . S
C656 C662 1.505 . S
C657 C656 1.379 . S
C657 C659 1.369 . S
C657 H668 0.930 . S
C658 C660 1.383 . S
C658 C661 1.382 . S
C658 H669 0.930 . S
C659 C657 1.369 . S
C659 C661 1.392 . S
C659 H670 0.930 . S
C660 C656 1.373 . S
C660 C658 1.383 . S
C660 H671 0.931 . S
C661 C658 1.382 . S
C661 C659 1.392 . S
C662 Eu633 2.828 1_554 S
C662 O646 1.249 . S
C662 O647 1.244 . S
C662 C656 1.505 . S
C663 O650 1.258 . S
C663 O651 1.242 . S
H664 C636 0.930 . S
H665 C637 0.930 . S
H666 C638 0.930 . S
H667 C639 0.933 1_554 S
H668 C657 0.930 . S
H669 C658 0.930 . S
H670 C659 0.930 . S
H671 C660 0.931 . S
Eu672 C681 2.828 . S
Eu672 O683 2.392 . S
Eu672 O685 2.418 . S
Eu672 O690 2.373 . S
Eu672 O693 2.488 . S
Eu672 O694 2.471 . S
Eu672 O695 2.349 . S
Eu673 O682 2.373 . S
Eu673 O686 2.488 . S
Eu673 O687 2.471 . S
Eu673 O688 2.349 . S
Eu673 O691 2.392 . S
Eu673 O692 2.418 . S
Eu673 C702 2.828 . S
C674 O692 1.244 . S
C674 O695 1.265 . S
C675 C676 1.379 . S
C675 C679 1.373 . S
C675 C681 1.505 . S
C676 C675 1.379 . S
C676 C678 1.369 . S
C676 H704 0.930 . S
C677 C679 1.383 1_455 S
C677 C680 1.382 . S
C677 H705 0.930 . S
C678 C676 1.369 . S
C678 C680 1.392 1_655 S
C678 H706 0.930 . S
C679 C675 1.373 . S
C679 C677 1.383 1_655 S
C679 H707 0.931 . S
C680 C677 1.382 . S
C680 C678 1.392 1_455 S
C681 Eu672 2.828 . S
C681 C675 1.505 . S
C681 O693 1.249 . S
C681 O694 1.244 . S
O682 Eu673 2.373 . S
O682 C684 1.258 . S
O683 Eu672 2.392 . S
O683 C684 1.242 . S
C684 O682 1.258 . S
C684 O683 1.242 . S
O685 Eu672 2.418 . S
O685 C689 1.244 . S
O686 Eu673 2.488 . S
O686 C702 1.249 . S
O687 Eu673 2.471 . S
O687 C702 1.244 . S
O688 Eu673 2.349 . S
O688 C689 1.265 . S
C689 O685 1.244 . S
C689 O688 1.265 . S
O690 Eu672 2.373 . S
O690 C703 1.258 . S
O691 Eu673 2.392 . S
O691 C703 1.242 . S
O692 Eu673 2.418 . S
O692 C674 1.244 . S
O693 Eu672 2.488 . S
O693 C681 1.249 . S
O694 Eu672 2.471 . S
O694 C681 1.244 . S
O695 Eu672 2.349 . S
O695 C674 1.265 . S
C696 C697 1.379 . S
C696 C700 1.373 . S
C696 C702 1.505 . S
C697 C696 1.379 . S
C697 C699 1.369 . S
C697 H708 0.930 . S
C698 C700 1.383 . S
C698 C701 1.382 . S
C698 H709 0.930 . S
C699 C697 1.369 . S
C699 C701 1.392 . S
C699 H710 0.930 . S
C700 C696 1.373 . S
C700 C698 1.383 . S
C700 H711 0.931 . S
C701 C698 1.382 . S
C701 C699 1.392 . S
C702 Eu673 2.828 . S
C702 O686 1.249 . S
C702 O687 1.244 . S
C702 C696 1.505 . S
C703 O690 1.258 . S
C703 O691 1.242 . S
H704 C676 0.930 . S
H705 C677 0.930 . S
H706 C678 0.930 . S
H707 C679 0.931 . S
H708 C697 0.930 . S
H709 C698 0.930 . S
H710 C699 0.930 . S
H711 C700 0.931 . S
Eu712 C721 2.828 . S
Eu712 O723 2.392 . S
Eu712 O725 2.418 . S
Eu712 O730 2.373 . S
Eu712 O733 2.488 . S
Eu712 O734 2.471 . S
Eu712 O735 2.349 . S
Eu713 O722 2.373 . S
Eu713 O726 2.488 . S
Eu713 O727 2.471 . S
Eu713 O728 2.349 . S
Eu713 O731 2.392 . S
Eu713 O732 2.418 . S
Eu713 C742 2.828 . S
C714 O732 1.244 . S
C714 O735 1.265 . S
C715 C716 1.379 1_455 S
C715 C719 1.373 . S
C715 C721 1.505 . S
C716 C715 1.379 1_655 S
C716 C718 1.369 . S
C716 H744 0.930 . S
C717 C719 1.383 1_655 S
C717 C720 1.382 . S
C717 H745 0.930 . S
C718 C716 1.369 . S
C718 C720 1.392 . S
C718 H746 0.930 . S
C719 C715 1.373 . S
C719 C717 1.383 1_455 S
C719 H747 0.931 . S
C720 C717 1.382 . S
C720 C718 1.392 . S
C721 Eu712 2.828 . S
C721 C715 1.505 . S
C721 O733 1.249 . S
C721 O734 1.244 . S
O722 Eu713 2.373 . S
O722 C724 1.258 . S
O723 Eu712 2.392 . S
O723 C724 1.242 . S
C724 O722 1.258 . S
C724 O723 1.242 . S
O725 Eu712 2.418 . S
O725 C729 1.244 . S
O726 Eu713 2.488 . S
O726 C742 1.249 . S
O727 Eu713 2.471 . S
O727 C742 1.244 . S
O728 Eu713 2.349 . S
O728 C729 1.265 . S
C729 O725 1.244 . S
C729 O728 1.265 . S
O730 Eu712 2.373 . S
O730 C743 1.258 1_455 S
O731 Eu713 2.392 . S
O731 C743 1.242 1_455 S
O732 Eu713 2.418 . S
O732 C714 1.244 . S
O733 Eu712 2.488 . S
O733 C721 1.249 . S
O734 Eu712 2.471 . S
O734 C721 1.244 . S
O735 Eu712 2.349 . S
O735 C714 1.265 . S
C736 C737 1.379 . S
C736 C740 1.373 . S
C736 C742 1.505 . S
C737 C736 1.379 . S
C737 C739 1.369 . S
C737 H748 0.930 . S
C738 C740 1.383 . S
C738 C741 1.382 . S
C738 H749 0.930 . S
C739 C737 1.369 . S
C739 C741 1.392 . S
C739 H750 0.930 . S
C740 C736 1.373 . S
C740 C738 1.383 . S
C740 H751 0.931 . S
C741 C738 1.382 . S
C741 C739 1.392 . S
C742 Eu713 2.828 . S
C742 O726 1.249 . S
C742 O727 1.244 . S
C742 C736 1.505 . S
C743 O730 1.258 1_655 S
C743 O731 1.242 1_655 S
H744 C716 0.930 . S
H745 C717 0.930 . S
H746 C718 0.930 . S
H747 C719 0.931 . S
H748 C737 0.930 . S
H749 C738 0.930 . S
H750 C739 0.930 . S
H751 C740 0.931 . S
Eu752 C761 2.828 . S
Eu752 O763 2.392 . S
Eu752 O765 2.418 . S
Eu752 O770 2.373 . S
Eu752 O773 2.488 . S
Eu752 O774 2.471 . S
Eu752 O775 2.349 . S
Eu753 O762 2.373 . S
Eu753 O766 2.488 . S
Eu753 O767 2.471 . S
Eu753 O768 2.349 . S
Eu753 O771 2.392 . S
Eu753 O772 2.418 . S
Eu753 C782 2.828 . S
C754 O772 1.244 . S
C754 O775 1.265 . S
C755 C756 1.379 . S
C755 C759 1.373 . S
C755 C761 1.505 . S
C756 C755 1.379 . S
C756 C758 1.369 . S
C756 H784 0.930 . S
C757 C759 1.383 . S
C757 C760 1.382 . S
C757 H785 0.930 . S
C758 C756 1.369 . S
C758 C760 1.392 . S
C758 H786 0.930 . S
C759 C755 1.373 . S
C759 C757 1.383 . S
C759 H787 0.931 . S
C760 C757 1.382 . S
C760 C758 1.392 . S
C761 Eu752 2.828 . S
C761 C755 1.505 . S
C761 O773 1.249 . S
C761 O774 1.244 . S
O762 Eu753 2.373 . S
O762 C764 1.258 . S
O763 Eu752 2.392 . S
O763 C764 1.242 . S
C764 O762 1.258 . S
C764 O763 1.242 . S
O765 Eu752 2.418 . S
O765 C769 1.244 . S
O766 Eu753 2.488 . S
O766 C782 1.249 . S
O767 Eu753 2.471 . S
O767 C782 1.244 . S
O768 Eu753 2.349 . S
O768 C769 1.265 . S
C769 O765 1.244 . S
C769 O768 1.265 . S
O770 Eu752 2.373 . S
O770 C783 1.258 . S
O771 Eu753 2.392 . S
O771 C783 1.242 . S
O772 Eu753 2.418 . S
O772 C754 1.244 . S
O773 Eu752 2.488 . S
O773 C761 1.249 . S
O774 Eu752 2.471 . S
O774 C761 1.244 . S
O775 Eu752 2.349 . S
O775 C754 1.265 . S
C776 C777 1.379 . S
C776 C780 1.373 . S
C776 C782 1.505 . S
C777 C776 1.379 . S
C777 C779 1.369 . S
C777 H788 0.930 . S
C778 C780 1.383 . S
C778 C781 1.382 . S
C778 H789 0.930 . S
C779 C777 1.369 . S
C779 C781 1.392 . S
C779 H790 0.930 . S
C780 C776 1.373 . S
C780 C778 1.383 . S
C780 H791 0.931 . S
C781 C778 1.382 . S
C781 C779 1.392 . S
C782 Eu753 2.828 . S
C782 O766 1.249 . S
C782 O767 1.244 . S
C782 C776 1.505 . S
C783 O770 1.258 . S
C783 O771 1.242 . S
H784 C756 0.930 . S
H785 C757 0.930 . S
H786 C758 0.930 . S
H787 C759 0.931 . S
H788 C777 0.930 . S
H789 C778 0.930 . S
H790 C779 0.930 . S
H791 C780 0.931 . S
Eu792 C801 2.828 . S
Eu792 O803 2.392 . S
Eu792 O805 2.418 . S
Eu792 O810 2.373 . S
Eu792 O813 2.488 . S
Eu792 O814 2.471 . S
Eu792 O815 2.349 . S
Eu793 O802 2.373 . S
Eu793 O806 2.488 . S
Eu793 O807 2.471 . S
Eu793 O808 2.349 . S
Eu793 O811 2.392 . S
Eu793 O812 2.418 . S
Eu793 C822 2.828 . S
C794 O812 1.244 . S
C794 O815 1.265 . S
C795 C796 1.379 . S
C795 C799 1.373 . S
C795 C801 1.505 . S
C796 C795 1.379 . S
C796 C798 1.369 . S
C796 H824 0.930 . S
C797 C799 1.383 . S
C797 C800 1.382 . S
C797 H825 0.930 . S
C798 C796 1.369 . S
C798 C800 1.392 . S
C798 H826 0.930 . S
C799 C795 1.373 . S
C799 C797 1.383 . S
C799 H827 0.931 . S
C800 C797 1.382 . S
C800 C798 1.392 . S
C801 Eu792 2.828 . S
C801 C795 1.505 . S
C801 O813 1.249 . S
C801 O814 1.244 . S
O802 Eu793 2.373 . S
O802 C804 1.258 . S
O803 Eu792 2.392 . S
O803 C804 1.242 . S
C804 O802 1.258 . S
C804 O803 1.242 . S
O805 Eu792 2.418 . S
O805 C809 1.244 . S
O806 Eu793 2.488 . S
O806 C822 1.249 . S
O807 Eu793 2.471 . S
O807 C822 1.244 . S
O808 Eu793 2.349 . S
O808 C809 1.265 . S
C809 O805 1.244 . S
C809 O808 1.265 . S
O810 Eu792 2.373 . S
O810 C823 1.258 . S
O811 Eu793 2.392 . S
O811 C823 1.242 . S
O812 Eu793 2.418 . S
O812 C794 1.244 . S
O813 Eu792 2.488 . S
O813 C801 1.249 . S
O814 Eu792 2.471 . S
O814 C801 1.244 . S
O815 Eu792 2.349 . S
O815 C794 1.265 . S
C816 C817 1.379 . S
C816 C820 1.373 . S
C816 C822 1.505 . S
C817 C816 1.379 . S
C817 C819 1.369 . S
C817 H828 0.930 . S
C818 C820 1.383 . S
C818 C821 1.382 . S
C818 H829 0.930 . S
C819 C817 1.369 . S
C819 C821 1.392 . S
C819 H830 0.930 . S
C820 C816 1.373 . S
C820 C818 1.383 . S
C820 H831 0.931 . S
C821 C818 1.382 . S
C821 C819 1.392 . S
C822 Eu793 2.828 . S
C822 O806 1.249 . S
C822 O807 1.244 . S
C822 C816 1.505 . S
C823 O810 1.258 . S
C823 O811 1.242 . S
H824 C796 0.930 . S
H825 C797 0.930 . S
H826 C798 0.930 . S
H827 C799 0.931 . S
H828 C817 0.930 . S
H829 C818 0.930 . S
H830 C819 0.930 . S
H831 C820 0.931 . S
Eu832 C841 2.828 . S
Eu832 O843 2.392 . S
Eu832 O845 2.418 . S
Eu832 O850 2.373 . S
Eu832 O853 2.488 . S
Eu832 O854 2.471 . S
Eu832 O855 2.349 . S
Eu833 O842 2.373 . S
Eu833 O846 2.488 . S
Eu833 O847 2.471 . S
Eu833 O848 2.349 . S
Eu833 O851 2.392 . S
Eu833 O852 2.418 . S
Eu833 C862 2.828 . S
C834 O852 1.244 . S
C834 O855 1.265 . S
C835 C836 1.379 . S
C835 C839 1.373 . S
C835 C841 1.505 . S
C836 C835 1.379 . S
C836 C838 1.369 . S
C836 H864 0.930 . S
C837 C839 1.383 . S
C837 C840 1.382 . S
C837 H865 0.930 . S
C838 C836 1.369 . S
C838 C840 1.392 . S
C838 H866 0.930 . S
C839 C835 1.373 . S
C839 C837 1.383 . S
C839 H867 0.931 . S
C840 C837 1.382 . S
C840 C838 1.392 . S
C841 Eu832 2.828 . S
C841 C835 1.505 . S
C841 O853 1.249 . S
C841 O854 1.244 . S
O842 Eu833 2.373 . S
O842 C844 1.258 . S
O843 Eu832 2.392 . S
O843 C844 1.242 . S
C844 O842 1.258 . S
C844 O843 1.242 . S
O845 Eu832 2.418 . S
O845 C849 1.244 . S
O846 Eu833 2.488 . S
O846 C862 1.249 . S
O847 Eu833 2.471 . S
O847 C862 1.244 . S
O848 Eu833 2.349 . S
O848 C849 1.265 . S
C849 O845 1.244 . S
C849 O848 1.265 . S
O850 Eu832 2.373 . S
O850 C863 1.258 . S
O851 Eu833 2.392 . S
O851 C863 1.242 . S
O852 Eu833 2.418 . S
O852 C834 1.244 . S
O853 Eu832 2.488 . S
O853 C841 1.249 . S
O854 Eu832 2.471 . S
O854 C841 1.244 . S
O855 Eu832 2.349 . S
O855 C834 1.265 . S
C856 C857 1.379 . S
C856 C860 1.373 . S
C856 C862 1.505 . S
C857 C856 1.379 . S
C857 C859 1.369 . S
C857 H868 0.930 . S
C858 C860 1.383 . S
C858 C861 1.382 . S
C858 H869 0.930 . S
C859 C857 1.369 . S
C859 C861 1.392 . S
C859 H870 0.930 . S
C860 C856 1.373 . S
C860 C858 1.383 . S
C860 H871 0.931 . S
C861 C858 1.382 . S
C861 C859 1.392 . S
C862 Eu833 2.828 . S
C862 O846 1.249 . S
C862 O847 1.244 . S
C862 C856 1.505 . S
C863 O850 1.258 . S
C863 O851 1.242 . S
H864 C836 0.930 . S
H865 C837 0.930 . S
H866 C838 0.930 . S
H867 C839 0.931 . S
H868 C857 0.930 . S
H869 C858 0.930 . S
H870 C859 0.930 . S
H871 C860 0.931 . S
Eu872 C881 2.828 . S
Eu872 O883 2.392 . S
Eu872 O885 2.418 . S
Eu872 O890 2.373 . S
Eu872 O893 2.488 . S
Eu872 O894 2.471 . S
Eu872 O895 2.349 . S
Eu873 O882 2.373 . S
Eu873 O886 2.488 . S
Eu873 O887 2.471 . S
Eu873 O888 2.349 . S
Eu873 O891 2.392 . S
Eu873 O892 2.418 . S
Eu873 C902 2.828 . S
C874 O892 1.244 . S
C874 O895 1.265 . S
C875 C876 1.379 . S
C875 C879 1.373 . S
C875 C881 1.505 . S
C876 C875 1.379 . S
C876 C878 1.369 . S
C876 H904 0.930 . S
C877 C879 1.383 . S
C877 C880 1.382 . S
C877 H905 0.930 . S
C878 C876 1.369 . S
C878 C880 1.392 . S
C878 H906 0.930 . S
C879 C875 1.373 . S
C879 C877 1.383 . S
C879 H907 0.931 . S
C880 C877 1.382 . S
C880 C878 1.392 . S
C881 Eu872 2.828 . S
C881 C875 1.505 . S
C881 O893 1.249 . S
C881 O894 1.244 . S
O882 Eu873 2.373 . S
O882 C884 1.258 . S
O883 Eu872 2.392 . S
O883 C884 1.242 . S
C884 O882 1.258 . S
C884 O883 1.242 . S
O885 Eu872 2.418 . S
O885 C889 1.244 . S
O886 Eu873 2.488 . S
O886 C902 1.249 . S
O887 Eu873 2.471 . S
O887 C902 1.244 . S
O888 Eu873 2.349 . S
O888 C889 1.265 . S
C889 O885 1.244 . S
C889 O888 1.265 . S
O890 Eu872 2.373 . S
O890 C903 1.258 . S
O891 Eu873 2.392 . S
O891 C903 1.242 . S
O892 Eu873 2.418 . S
O892 C874 1.244 . S
O893 Eu872 2.488 . S
O893 C881 1.249 . S
O894 Eu872 2.471 . S
O894 C881 1.244 . S
O895 Eu872 2.349 . S
O895 C874 1.265 . S
C896 C897 1.379 . S
C896 C900 1.373 . S
C896 C902 1.505 . S
C897 C896 1.379 . S
C897 C899 1.369 . S
C897 H908 0.930 . S
C898 C900 1.383 . S
C898 C901 1.382 . S
C898 H909 0.930 . S
C899 C897 1.369 . S
C899 C901 1.392 . S
C899 H910 0.930 . S
C900 C896 1.373 . S
C900 C898 1.383 . S
C900 H911 0.931 . S
C901 C898 1.382 . S
C901 C899 1.392 . S
C902 Eu873 2.828 . S
C902 O886 1.249 . S
C902 O887 1.244 . S
C902 C896 1.505 . S
C903 O890 1.258 . S
C903 O891 1.242 . S
H904 C876 0.930 . S
H905 C877 0.930 . S
H906 C878 0.930 . S
H907 C879 0.931 . S
H908 C897 0.930 . S
H909 C898 0.930 . S
H910 C899 0.930 . S
H911 C900 0.931 . S
Eu912 C921 2.828 . S
Eu912 O923 2.392 . S
Eu912 O925 2.418 1_554 S
Eu912 O930 2.373 . S
Eu912 O933 2.488 1_554 S
Eu912 O934 2.471 . S
Eu912 O935 2.349 . S
Eu913 O922 2.373 . S
Eu913 O926 2.488 1_455 S
Eu913 O927 2.471 1_455 S
Eu913 O928 2.349 . S
Eu913 O931 2.392 . S
Eu913 O932 2.418 . S
Eu913 C942 2.828 1_455 S
C914 O932 1.244 . S
C914 O935 1.265 . S
C915 C916 1.379 . S
C915 C919 1.373 1_554 S
C915 C921 1.505 . S
C916 C915 1.379 . S
C916 C918 1.369 . S
C916 H944 0.930 . S
C917 C919 1.383 . S
C917 C920 1.382 . S
C917 H945 0.930 . S
C918 C916 1.369 . S
C918 C920 1.392 1_554 S
C918 H946 0.930 . S
C919 C915 1.373 1_556 S
C919 C917 1.383 . S
C919 H947 0.931 . S
C920 C917 1.382 . S
C920 C918 1.392 1_556 S
C921 Eu912 2.828 . S
C921 C915 1.505 . S
C921 O933 1.249 1_554 S
C921 O934 1.244 . S
O922 Eu913 2.373 . S
O922 C924 1.258 . S
O923 Eu912 2.392 . S
O923 C924 1.242 . S
C924 O922 1.258 . S
C924 O923 1.242 . S
O925 Eu912 2.418 1_556 S
O925 C929 1.244 . S
O926 Eu913 2.488 1_655 S
O926 C942 1.249 . S
O927 Eu913 2.471 1_655 S
O927 C942 1.244 . S
O928 Eu913 2.349 . S
O928 C929 1.265 1_554 S
C929 O925 1.244 . S
C929 O928 1.265 1_556 S
O930 Eu912 2.373 . S
O930 C943 1.258 . S
O931 Eu913 2.392 . S
O931 C943 1.242 . S
O932 Eu913 2.418 . S
O932 C914 1.244 . S
O933 Eu912 2.488 1_556 S
O933 C921 1.249 1_556 S
O934 Eu912 2.471 . S
O934 C921 1.244 . S
O935 Eu912 2.349 . S
O935 C914 1.265 . S
C936 C937 1.379 . S
C936 C940 1.373 . S
C936 C942 1.505 . S
C937 C936 1.379 . S
C937 C939 1.369 . S
C937 H948 0.930 . S
C938 C940 1.383 . S
C938 C941 1.382 . S
C938 H949 0.930 . S
C939 C937 1.369 . S
C939 C941 1.392 . S
C939 H950 0.930 . S
C940 C936 1.373 . S
C940 C938 1.383 . S
C940 H951 0.931 . S
C941 C938 1.382 . S
C941 C939 1.392 . S
C942 Eu913 2.828 1_655 S
C942 O926 1.249 . S
C942 O927 1.244 . S
C942 C936 1.505 . S
C943 O930 1.258 . S
C943 O931 1.242 . S
H944 C916 0.930 . S
H945 C917 0.930 . S
H946 C918 0.930 . S
H947 C919 0.931 . S
H948 C937 0.930 . S
H949 C938 0.930 . S
H950 C939 0.930 . S
H951 C940 0.931 . S
C952 C953 1.369 . S
C952 C954 1.419 . S
C952 H956 0.930 . S
C953 C952 1.369 . S
C953 C962 1.429 . S
C954 C952 1.419 . S
C954 C955 1.363 . S
C954 H957 0.929 . S
C955 C954 1.363 . S
C955 C961 1.428 1_556 S
H956 C952 0.930 . S
H957 C954 0.929 . S
S958 N959 1.613 1_554 S
S958 N960 1.610 . S
N959 S958 1.613 1_556 S
N959 C962 1.350 . S
N960 S958 1.610 . S
N960 C961 1.351 . S
C961 C955 1.428 1_554 S
C961 N960 1.351 . S
C961 C962 1.434 1_554 S
C962 C953 1.429 . S
C962 N959 1.350 . S
C962 C961 1.434 1_556 S
C963 C964 1.369 . S
C963 C965 1.419 . S
C963 H967 0.930 . S
C964 C963 1.369 . S
C964 C973 1.429 . S
C965 C963 1.419 . S
C965 C966 1.363 . S
C965 H968 0.929 . S
C966 C965 1.363 . S
C966 C972 1.428 . S
H967 C963 0.930 . S
H968 C965 0.929 . S
S969 N970 1.613 . S
S969 N971 1.610 . S
N970 S969 1.613 . S
N970 C973 1.350 . S
N971 S969 1.610 . S
N971 C972 1.351 . S
C972 C966 1.428 . S
C972 N971 1.351 . S
C972 C973 1.434 . S
C973 C964 1.429 . S
C973 N970 1.350 . S
C973 C972 1.434 . S
C974 C975 1.369 . S
C974 C976 1.419 . S
C974 H978 0.930 . S
C975 C974 1.369 . S
C975 C984 1.429 . S
C976 C974 1.419 . S
C976 C977 1.363 . S
C976 H979 0.929 . S
C977 C976 1.363 . S
C977 C983 1.428 . S
H978 C974 0.930 . S
H979 C976 0.929 . S
S980 N981 1.613 . S
S980 N982 1.610 . S
N981 S980 1.613 . S
N981 C984 1.350 . S
N982 S980 1.610 . S
N982 C983 1.351 . S
C983 C977 1.428 . S
C983 N982 1.351 . S
C983 C984 1.434 . S
C984 C975 1.429 . S
C984 N981 1.350 . S
C984 C983 1.434 . S
C985 C986 1.369 . S
C985 C987 1.419 . S
C985 H989 0.930 . S
C986 C985 1.369 . S
C986 C995 1.429 . S
C987 C985 1.419 . S
C987 C988 1.363 . S
C987 H990 0.929 . S
C988 C987 1.363 . S
C988 C994 1.428 . S
H989 C985 0.930 . S
H990 C987 0.929 . S
S991 N992 1.613 . S
S991 N993 1.610 . S
N992 S991 1.613 . S
N992 C995 1.350 . S
N993 S991 1.610 . S
N993 C994 1.351 . S
C994 C988 1.428 . S
C994 N993 1.351 . S
C994 C995 1.434 . S
C995 C986 1.429 . S
C995 N992 1.350 . S
C995 C994 1.434 . S
C996 C997 1.369 . S
C996 C998 1.419 . S
C996 H1000 0.930 . S
C997 C996 1.369 . S
C997 C1006 1.429 . S
C998 C996 1.419 . S
C998 C999 1.363 . S
C998 H1001 0.929 . S
C999 C998 1.363 . S
C999 C1005 1.428 . S
H1000 C996 0.930 . S
H1001 C998 0.929 . S
S1002 N1003 1.613 . S
S1002 N1004 1.610 . S
N1003 S1002 1.613 . S
N1003 C1006 1.350 . S
N1004 S1002 1.610 . S
N1004 C1005 1.351 . S
C1005 C999 1.428 . S
C1005 N1004 1.351 . S
C1005 C1006 1.434 . S
C1006 C997 1.429 . S
C1006 N1003 1.350 . S
C1006 C1005 1.434 . S
C1007 C1008 1.369 . S
C1007 C1009 1.419 . S
C1007 H1011 0.930 . S
C1008 C1007 1.369 . S
C1008 C1017 1.429 . S
C1009 C1007 1.419 . S
C1009 C1010 1.363 . S
C1009 H1012 0.929 . S
C1010 C1009 1.363 . S
C1010 C1016 1.428 . S
H1011 C1007 0.930 . S
H1012 C1009 0.929 . S
S1013 N1014 1.613 . S
S1013 N1015 1.610 . S
N1014 S1013 1.613 . S
N1014 C1017 1.350 . S
N1015 S1013 1.610 . S
N1015 C1016 1.351 . S
C1016 C1010 1.428 . S
C1016 N1015 1.351 . S
C1016 C1017 1.434 . S
C1017 C1008 1.429 . S
C1017 N1014 1.350 . S
C1017 C1016 1.434 . S
C1018 C1019 1.369 . S
C1018 C1020 1.419 . S
C1018 H1022 0.930 . S
C1019 C1018 1.369 . S
C1019 C1028 1.429 . S
C1020 C1018 1.419 . S
C1020 C1021 1.363 . S
C1020 H1023 0.929 . S
C1021 C1020 1.363 . S
C1021 C1027 1.428 . S
H1022 C1018 0.930 . S
H1023 C1020 0.929 . S
S1024 N1025 1.613 . S
S1024 N1026 1.610 . S
N1025 S1024 1.613 . S
N1025 C1028 1.350 . S
N1026 S1024 1.610 . S
N1026 C1027 1.351 . S
C1027 C1021 1.428 . S
C1027 N1026 1.351 . S
C1027 C1028 1.434 . S
C1028 C1019 1.429 . S
C1028 N1025 1.350 . S
C1028 C1027 1.434 . S
C1029 C1030 1.369 . S
C1029 C1031 1.419 . S
C1029 H1033 0.930 . S
C1030 C1029 1.369 . S
C1030 C1039 1.429 . S
C1031 C1029 1.419 . S
C1031 C1032 1.363 . S
C1031 H1034 0.929 . S
C1032 C1031 1.363 . S
C1032 C1038 1.428 . S
H1033 C1029 0.930 . S
H1034 C1031 0.929 . S
S1035 N1036 1.613 . S
S1035 N1037 1.610 . S
N1036 S1035 1.613 . S
N1036 C1039 1.350 . S
N1037 S1035 1.610 . S
N1037 C1038 1.351 . S
C1038 C1032 1.428 . S
C1038 N1037 1.351 . S
C1038 C1039 1.434 . S
C1039 C1030 1.429 . S
C1039 N1036 1.350 . S
C1039 C1038 1.434 . S
C1040 C1041 1.369 1_655 S
C1040 C1042 1.419 1_655 S
C1040 H1044 0.930 . S
C1041 C1040 1.369 1_455 S
C1041 C1050 1.429 . S
C1042 C1040 1.419 1_455 S
C1042 C1043 1.363 . S
C1042 H1045 0.929 . S
C1043 C1042 1.363 . S
C1043 C1049 1.428 . S
H1044 C1040 0.930 . S
H1045 C1042 0.929 . S
S1046 N1047 1.613 . S
S1046 N1048 1.610 . S
N1047 S1046 1.613 . S
N1047 C1050 1.350 . S
N1048 S1046 1.610 . S
N1048 C1049 1.351 . S
C1049 C1043 1.428 . S
C1049 N1048 1.351 . S
C1049 C1050 1.434 . S
C1050 C1041 1.429 . S
C1050 N1047 1.350 . S
C1050 C1049 1.434 . S
C1051 C1052 1.369 . S
C1051 C1053 1.419 . S
C1051 H1055 0.930 . S
C1052 C1051 1.369 . S
C1052 C1061 1.429 . S
C1053 C1051 1.419 . S
C1053 C1054 1.363 . S
C1053 H1056 0.929 . S
C1054 C1053 1.363 . S
C1054 C1060 1.428 . S
H1055 C1051 0.930 . S
H1056 C1053 0.929 . S
S1057 N1058 1.613 . S
S1057 N1059 1.610 . S
N1058 S1057 1.613 . S
N1058 C1061 1.350 . S
N1059 S1057 1.610 . S
N1059 C1060 1.351 . S
C1060 C1054 1.428 . S
C1060 N1059 1.351 . S
C1060 C1061 1.434 . S
C1061 C1052 1.429 . S
C1061 N1058 1.350 . S
C1061 C1060 1.434 . S
C1062 C1063 1.369 . S
C1062 C1064 1.419 . S
C1062 H1066 0.930 . S
C1063 C1062 1.369 . S
C1063 C1072 1.429 . S
C1064 C1062 1.419 . S
C1064 C1065 1.363 . S
C1064 H1067 0.929 . S
C1065 C1064 1.363 . S
C1065 C1071 1.428 . S
H1066 C1062 0.930 . S
H1067 C1064 0.929 . S
S1068 N1069 1.613 1_565 S
S1068 N1070 1.610 . S
N1069 S1068 1.613 1_545 S
N1069 C1072 1.350 . S
N1070 S1068 1.610 . S
N1070 C1071 1.351 1_565 S
C1071 C1065 1.428 . S
C1071 N1070 1.351 1_545 S
C1071 C1072 1.434 . S
C1072 C1063 1.429 . S
C1072 N1069 1.350 . S
C1072 C1071 1.434 . S
C1073 C1074 1.369 . S
C1073 C1075 1.419 . S
C1073 H1077 0.930 . S
C1074 C1073 1.369 . S
C1074 C1083 1.429 . S
C1075 C1073 1.419 . S
C1075 C1076 1.363 . S
C1075 H1078 0.929 . S
C1076 C1075 1.363 . S
C1076 C1082 1.428 . S
H1077 C1073 0.930 . S
H1078 C1075 0.929 . S
S1079 N1080 1.613 . S
S1079 N1081 1.610 . S
N1080 S1079 1.613 . S
N1080 C1083 1.350 . S
N1081 S1079 1.610 . S
N1081 C1082 1.351 . S
C1082 C1076 1.428 . S
C1082 N1081 1.351 . S
C1082 C1083 1.434 . S
C1083 C1074 1.429 . S
C1083 N1080 1.350 . S
C1083 C1082 1.434 . S
C1084 C1085 1.369 1_455 S
C1084 C1086 1.416 . S
C1084 H1088 0.933 1_455 S
C1085 C1084 1.369 1_655 S
C1085 C1094 1.429 1_655 S
C1086 C1084 1.416 . S
C1086 C1087 1.363 . S
C1086 H1089 0.929 . S
C1087 C1086 1.363 . S
C1087 C1093 1.428 . S
H1088 C1084 0.933 1_655 S
H1089 C1086 0.929 . S
S1090 N1091 1.613 . S
S1090 N1092 1.610 . S
N1091 S1090 1.613 . S
N1091 C1094 1.350 . S
N1092 S1090 1.610 . S
N1092 C1093 1.351 . S
C1093 C1087 1.428 . S
C1093 N1092 1.351 . S
C1093 C1094 1.434 . S
C1094 C1085 1.429 1_455 S
C1094 N1091 1.350 . S
C1094 C1093 1.434 . S
C1095 C1096 1.369 . S
C1095 C1097 1.419 . S
C1095 H1099 0.930 . S
C1096 C1095 1.369 . S
C1096 C1105 1.429 . S
C1097 C1095 1.419 . S
C1097 C1098 1.363 . S
C1097 H1100 0.929 . S
C1098 C1097 1.363 . S
C1098 C1104 1.428 . S
H1099 C1095 0.930 . S
H1100 C1097 0.929 . S
S1101 N1102 1.613 . S
S1101 N1103 1.610 . S
N1102 S1101 1.613 . S
N1102 C1105 1.350 . S
N1103 S1101 1.610 . S
N1103 C1104 1.351 . S
C1104 C1098 1.428 . S
C1104 N1103 1.351 . S
C1104 C1105 1.434 . S
C1105 C1096 1.429 . S
C1105 N1102 1.350 . S
C1105 C1104 1.434 . S
C1106 C1107 1.369 . S
C1106 C1108 1.419 . S
C1106 H1110 0.930 . S
C1107 C1106 1.369 . S
C1107 C1116 1.429 . S
C1108 C1106 1.419 . S
C1108 C1109 1.363 . S
C1108 H1111 0.929 . S
C1109 C1108 1.363 . S
C1109 C1115 1.428 . S
H1110 C1106 0.930 . S
H1111 C1108 0.929 . S
S1112 N1113 1.613 . S
S1112 N1114 1.610 . S
N1113 S1112 1.613 . S
N1113 C1116 1.350 . S
N1114 S1112 1.610 . S
N1114 C1115 1.351 . S
C1115 C1109 1.428 . S
C1115 N1114 1.351 . S
C1115 C1116 1.434 . S
C1116 C1107 1.429 . S
C1116 N1113 1.350 . S
C1116 C1115 1.434 . S
C1117 C1118 1.369 . S
C1117 C1119 1.419 . S
C1117 H1121 0.930 . S
C1118 C1117 1.369 . S
C1118 C1127 1.429 . S
C1119 C1117 1.419 . S
C1119 C1120 1.363 . S
C1119 H1122 0.929 . S
C1120 C1119 1.363 . S
C1120 C1126 1.428 . S
H1121 C1117 0.930 . S
H1122 C1119 0.929 . S
S1123 N1124 1.613 . S
S1123 N1125 1.610 . S
N1124 S1123 1.613 . S
N1124 C1127 1.350 . S
N1125 S1123 1.610 . S
N1125 C1126 1.351 . S
C1126 C1120 1.428 . S
C1126 N1125 1.351 . S
C1126 C1127 1.434 . S
C1127 C1118 1.429 . S
C1127 N1124 1.350 . S
C1127 C1126 1.434 . S
C1128 C1129 1.361 1_565 S
C1128 C1130 1.419 . S
C1128 H1132 0.930 . S
C1129 C1128 1.361 1_545 S
C1129 C1138 1.449 . S
C1130 C1128 1.419 . S
C1130 C1131 1.363 1_565 S
C1130 H1133 0.929 . S
C1131 C1130 1.363 1_545 S
C1131 C1137 1.428 . S
H1132 C1128 0.930 . S
H1133 C1130 0.929 . S
S1134 N1135 1.613 . S
S1134 N1136 1.610 . S
N1135 S1134 1.613 . S
N1135 C1138 1.350 . S
N1136 S1134 1.610 . S
N1136 C1137 1.351 . S
C1137 C1131 1.428 . S
C1137 N1136 1.351 . S
C1137 C1138 1.434 . S
C1138 C1129 1.449 . S
C1138 N1135 1.350 . S
C1138 C1137 1.434 . S
C1139 C1140 1.375 . S
C1139 C1141 1.419 . S
C1139 H1143 0.930 . S
C1140 C1139 1.375 . S
C1140 C1149 1.425 1_554 S
C1141 C1139 1.419 . S
C1141 C1142 1.363 . S
C1141 H1144 0.929 . S
C1142 C1141 1.363 . S
C1142 C1148 1.428 1_554 S
H1143 C1139 0.930 . S
H1144 C1141 0.929 . S
S1145 N1146 1.613 . S
S1145 N1147 1.610 . S
N1146 S1145 1.613 . S
N1146 C1149 1.350 . S
N1147 S1145 1.610 . S
N1147 C1148 1.351 . S
C1148 C1142 1.428 1_556 S
C1148 N1147 1.351 . S
C1148 C1149 1.434 . S
C1149 C1140 1.425 1_556 S
C1149 N1146 1.350 . S
C1149 C1148 1.434 . S
C1150 C1151 1.369 . S
C1150 C1152 1.419 . S
C1150 H1154 0.930 . S
C1151 C1150 1.369 . S
C1151 C1160 1.429 . S
C1152 C1150 1.419 . S
C1152 C1153 1.363 . S
C1152 H1155 0.929 . S
C1153 C1152 1.363 . S
C1153 C1159 1.428 . S
H1154 C1150 0.930 . S
H1155 C1152 0.929 . S
S1156 N1157 1.613 . S
S1156 N1158 1.610 . S
N1157 S1156 1.613 . S
N1157 C1160 1.350 . S
N1158 S1156 1.610 . S
N1158 C1159 1.351 . S
C1159 C1153 1.428 . S
C1159 N1158 1.351 . S
C1159 C1160 1.434 . S
C1160 C1151 1.429 . S
C1160 N1157 1.350 . S
C1160 C1159 1.434 . S
C1161 C1162 1.369 . S
C1161 C1163 1.419 . S
C1161 H1165 0.930 . S
C1162 C1161 1.369 . S
C1162 C1171 1.429 . S
C1163 C1161 1.419 . S
C1163 C1164 1.363 . S
C1163 H1166 0.929 . S
C1164 C1163 1.363 . S
C1164 C1170 1.428 . S
H1165 C1161 0.930 . S
H1166 C1163 0.929 . S
S1167 N1168 1.613 . S
S1167 N1169 1.610 . S
N1168 S1167 1.613 . S
N1168 C1171 1.350 . S
N1169 S1167 1.610 . S
N1169 C1170 1.351 . S
C1170 C1164 1.428 . S
C1170 N1169 1.351 . S
C1170 C1171 1.434 . S
C1171 C1162 1.429 . S
C1171 N1168 1.350 . S
C1171 C1170 1.434 . S
C1172 C1173 1.369 . S
C1172 C1174 1.419 . S
C1172 H1176 0.930 . S
C1173 C1172 1.369 . S
C1173 C1182 1.429 . S
C1174 C1172 1.419 . S
C1174 C1175 1.363 . S
C1174 H1177 0.929 . S
C1175 C1174 1.363 . S
C1175 C1181 1.428 . S
H1176 C1172 0.930 . S
H1177 C1174 0.929 . S
S1178 N1179 1.613 . S
S1178 N1180 1.610 . S
N1179 S1178 1.613 . S
N1179 C1182 1.350 . S
N1180 S1178 1.610 . S
N1180 C1181 1.351 . S
C1181 C1175 1.428 . S
C1181 N1180 1.351 . S
C1181 C1182 1.434 . S
C1182 C1173 1.429 . S
C1182 N1179 1.350 . S
C1182 C1181 1.434 . S
C1183 C1184 1.369 . S
C1183 C1185 1.419 . S
C1183 H1187 0.930 . S
C1184 C1183 1.369 . S
C1184 C1193 1.429 . S
C1185 C1183 1.419 . S
C1185 C1186 1.363 . S
C1185 H1188 0.929 . S
C1186 C1185 1.363 . S
C1186 C1192 1.428 . S
H1187 C1183 0.930 . S
H1188 C1185 0.929 . S
S1189 N1190 1.613 . S
S1189 N1191 1.610 . S
N1190 S1189 1.613 . S
N1190 C1193 1.350 . S
N1191 S1189 1.610 . S
N1191 C1192 1.351 . S
C1192 C1186 1.428 . S
C1192 N1191 1.351 . S
C1192 C1193 1.434 . S
C1193 C1184 1.429 . S
C1193 N1190 1.350 . S
C1193 C1192 1.434 . S
C1194 C1195 1.369 . S
C1194 C1196 1.419 . S
C1194 H1198 0.930 . S
C1195 C1194 1.369 . S
C1195 C1204 1.429 . S
C1196 C1194 1.419 . S
C1196 C1197 1.363 . S
C1196 H1199 0.929 . S
C1197 C1196 1.363 . S
C1197 C1203 1.428 . S
H1198 C1194 0.930 . S
H1199 C1196 0.929 . S
S1200 N1201 1.613 . S
S1200 N1202 1.610 . S
N1201 S1200 1.613 . S
N1201 C1204 1.350 . S
N1202 S1200 1.610 . S
N1202 C1203 1.351 . S
C1203 C1197 1.428 . S
C1203 N1202 1.351 . S
C1203 C1204 1.434 . S
C1204 C1195 1.429 . S
C1204 N1201 1.350 . S
C1204 C1203 1.434 . S
C1205 C1206 1.369 . S
C1205 C1207 1.419 . S
C1205 H1209 0.930 . S
C1206 C1205 1.369 . S
C1206 C1215 1.429 . S
C1207 C1205 1.419 . S
C1207 C1208 1.363 . S
C1207 H1210 0.929 . S
C1208 C1207 1.363 . S
C1208 C1214 1.428 . S
H1209 C1205 0.930 . S
H1210 C1207 0.929 . S
S1211 N1212 1.613 . S
S1211 N1213 1.610 . S
N1212 S1211 1.613 . S
N1212 C1215 1.350 . S
N1213 S1211 1.610 . S
N1213 C1214 1.351 . S
C1214 C1208 1.428 . S
C1214 N1213 1.351 . S
C1214 C1215 1.434 . S
C1215 C1206 1.429 . S
C1215 N1212 1.350 . S
C1215 C1214 1.434 . S
C1216 C1217 1.369 . S
C1216 C1218 1.419 . S
C1216 H1220 0.930 . S
C1217 C1216 1.369 . S
C1217 C1226 1.429 . S
C1218 C1216 1.419 . S
C1218 C1219 1.363 . S
C1218 H1221 0.929 . S
C1219 C1218 1.363 . S
C1219 C1225 1.428 . S
H1220 C1216 0.930 . S
H1221 C1218 0.929 . S
S1222 N1223 1.613 . S
S1222 N1224 1.610 . S
N1223 S1222 1.613 . S
N1223 C1226 1.350 . S
N1224 S1222 1.610 . S
N1224 C1225 1.351 . S
C1225 C1219 1.428 . S
C1225 N1224 1.351 . S
C1225 C1226 1.434 . S
C1226 C1217 1.429 . S
C1226 N1223 1.350 . S
C1226 C1225 1.434 . S
C1227 C1228 1.369 . S
C1227 C1229 1.419 . S
C1227 H1231 0.930 . S
C1228 C1227 1.369 . S
C1228 C1237 1.429 . S
C1229 C1227 1.419 . S
C1229 C1230 1.363 . S
C1229 H1232 0.929 . S
C1230 C1229 1.363 . S
C1230 C1236 1.428 . S
H1231 C1227 0.930 . S
H1232 C1229 0.929 . S
S1233 N1234 1.613 . S
S1233 N1235 1.610 . S
N1234 S1233 1.613 . S
N1234 C1237 1.350 . S
N1235 S1233 1.610 . S
N1235 C1236 1.351 . S
C1236 C1230 1.428 . S
C1236 N1235 1.351 . S
C1236 C1237 1.434 . S
C1237 C1228 1.429 . S
C1237 N1234 1.350 . S
C1237 C1236 1.434 . S
C1238 C1239 1.369 . S
C1238 C1240 1.419 . S
C1238 H1242 0.930 . S
C1239 C1238 1.369 . S
C1239 C1248 1.429 . S
C1240 C1238 1.419 . S
C1240 C1241 1.363 . S
C1240 H1243 0.929 . S
C1241 C1240 1.363 . S
C1241 C1247 1.428 . S
H1242 C1238 0.930 . S
H1243 C1240 0.929 . S
S1244 N1245 1.613 . S
S1244 N1246 1.610 . S
N1245 S1244 1.613 . S
N1245 C1248 1.350 . S
N1246 S1244 1.610 . S
N1246 C1247 1.351 . S
C1247 C1241 1.428 . S
C1247 N1246 1.351 . S
C1247 C1248 1.434 . S
C1248 C1239 1.429 . S
C1248 N1245 1.350 . S
C1248 C1247 1.434 . S
C1249 C1250 1.369 . S
C1249 C1251 1.419 . S
C1249 H1253 0.930 . S
C1250 C1249 1.369 . S
C1250 C1259 1.429 . S
C1251 C1249 1.419 . S
C1251 C1252 1.363 . S
C1251 H1254 0.929 . S
C1252 C1251 1.363 . S
C1252 C1258 1.428 . S
H1253 C1249 0.930 . S
H1254 C1251 0.929 . S
S1255 N1256 1.613 . S
S1255 N1257 1.610 . S
N1256 S1255 1.613 . S
N1256 C1259 1.350 . S
N1257 S1255 1.610 . S
N1257 C1258 1.351 . S
C1258 C1252 1.428 . S
C1258 N1257 1.351 . S
C1258 C1259 1.434 . S
C1259 C1250 1.429 . S
C1259 N1256 1.350 . S
C1259 C1258 1.434 . S
C1260 C1261 1.369 . S
C1260 C1262 1.419 . S
C1260 H1264 0.930 . S
C1261 C1260 1.369 . S
C1261 C1270 1.429 . S
C1262 C1260 1.419 . S
C1262 C1263 1.363 . S
C1262 H1265 0.929 . S
C1263 C1262 1.363 . S
C1263 C1269 1.428 . S
H1264 C1260 0.930 . S
H1265 C1262 0.929 . S
S1266 N1267 1.613 . S
S1266 N1268 1.610 . S
N1267 S1266 1.613 . S
N1267 C1270 1.350 . S
N1268 S1266 1.610 . S
N1268 C1269 1.351 . S
C1269 C1263 1.428 . S
C1269 N1268 1.351 . S
C1269 C1270 1.434 . S
C1270 C1261 1.429 . S
C1270 N1267 1.350 . S
C1270 C1269 1.434 . S
C1271 C1272 1.369 . S
C1271 C1273 1.419 . S
C1271 H1275 0.930 . S
C1272 C1271 1.369 . S
C1272 C1281 1.429 . S
C1273 C1271 1.419 . S
C1273 C1274 1.363 . S
C1273 H1276 0.929 . S
C1274 C1273 1.363 . S
C1274 C1280 1.428 . S
H1275 C1271 0.930 . S
H1276 C1273 0.929 . S
S1277 N1278 1.613 . S
S1277 N1279 1.610 . S
N1278 S1277 1.613 . S
N1278 C1281 1.350 . S
N1279 S1277 1.610 . S
N1279 C1280 1.351 . S
C1280 C1274 1.428 . S
C1280 N1279 1.351 . S
C1280 C1281 1.434 . S
C1281 C1272 1.429 . S
C1281 N1278 1.350 . S
C1281 C1280 1.434 . S
C1282 C1283 1.369 . S
C1282 C1284 1.419 . S
C1282 H1286 0.930 . S
C1283 C1282 1.369 . S
C1283 C1292 1.429 . S
C1284 C1282 1.419 . S
C1284 C1285 1.363 . S
C1284 H1287 0.929 1_556 S
C1285 C1284 1.363 . S
C1285 C1291 1.428 . S
H1286 C1282 0.930 . S
H1287 C1284 0.929 1_554 S
S1288 N1289 1.613 . S
S1288 N1290 1.610 . S
N1289 S1288 1.613 . S
N1289 C1292 1.350 . S
N1290 S1288 1.610 . S
N1290 C1291 1.351 . S
C1291 C1285 1.428 . S
C1291 N1290 1.351 . S
C1291 C1292 1.434 . S
C1292 C1283 1.429 . S
C1292 N1289 1.350 . S
C1292 C1291 1.434 . S
C1293 C1294 1.369 . S
C1293 C1295 1.419 . S
C1293 H1297 0.930 . S
C1294 C1293 1.369 . S
C1294 C1303 1.429 . S
C1295 C1293 1.419 . S
C1295 C1296 1.363 . S
C1295 H1298 0.929 . S
C1296 C1295 1.363 . S
C1296 C1302 1.428 . S
H1297 C1293 0.930 . S
H1298 C1295 0.929 . S
S1299 N1300 1.613 . S
S1299 N1301 1.610 . S
N1300 S1299 1.613 . S
N1300 C1303 1.350 . S
N1301 S1299 1.610 . S
N1301 C1302 1.351 . S
C1302 C1296 1.428 . S
C1302 N1301 1.351 . S
C1302 C1303 1.434 . S
C1303 C1294 1.429 . S
C1303 N1300 1.350 . S
C1303 C1302 1.434 . S
C1304 C1305 1.369 . S
C1304 C1306 1.419 . S
C1304 H1308 0.930 . S
C1305 C1304 1.369 . S
C1305 C1314 1.429 . S
C1306 C1304 1.419 . S
C1306 C1307 1.363 . S
C1306 H1309 0.929 . S
C1307 C1306 1.363 . S
C1307 C1313 1.428 . S
H1308 C1304 0.930 . S
H1309 C1306 0.929 . S
S1310 N1311 1.613 . S
S1310 N1312 1.610 . S
N1311 S1310 1.613 . S
N1311 C1314 1.350 . S
N1312 S1310 1.610 . S
N1312 C1313 1.351 . S
C1313 C1307 1.428 . S
C1313 N1312 1.351 . S
C1313 C1314 1.434 . S
C1314 C1305 1.429 . S
C1314 N1311 1.350 . S
C1314 C1313 1.434 . S
C1315 C1316 1.369 . S
C1315 C1317 1.419 . S
C1315 H1319 0.930 . S
C1316 C1315 1.369 . S
C1316 C1325 1.429 . S
C1317 C1315 1.419 . S
C1317 C1318 1.363 . S
C1317 H1320 0.929 . S
C1318 C1317 1.363 . S
C1318 C1324 1.428 . S
H1319 C1315 0.930 . S
H1320 C1317 0.929 . S
S1321 N1322 1.613 . S
S1321 N1323 1.610 . S
N1322 S1321 1.613 . S
N1322 C1325 1.350 . S
N1323 S1321 1.610 . S
N1323 C1324 1.351 . S
C1324 C1318 1.428 . S
C1324 N1323 1.351 . S
C1324 C1325 1.434 . S
C1325 C1316 1.429 . S
C1325 N1322 1.350 . S
C1325 C1324 1.434 . S
C1326 C1327 1.369 . S
C1326 C1328 1.419 . S
C1326 H1330 0.930 . S
C1327 C1326 1.369 . S
C1327 C1336 1.429 . S
C1328 C1326 1.419 . S
C1328 C1329 1.363 . S
C1328 H1331 0.929 . S
C1329 C1328 1.363 . S
C1329 C1335 1.428 . S
H1330 C1326 0.930 . S
H1331 C1328 0.929 . S
S1332 N1333 1.613 . S
S1332 N1334 1.610 . S
N1333 S1332 1.613 . S
N1333 C1336 1.350 . S
N1334 S1332 1.610 . S
N1334 C1335 1.351 . S
C1335 C1329 1.428 . S
C1335 N1334 1.351 . S
C1335 C1336 1.434 . S
C1336 C1327 1.429 . S
C1336 N1333 1.350 . S
C1336 C1335 1.434 . S
C1337 C1338 1.369 . S
C1337 C1339 1.419 . S
C1337 H1341 0.930 . S
C1338 C1337 1.369 . S
C1338 C1347 1.429 . S
C1339 C1337 1.419 . S
C1339 C1340 1.363 . S
C1339 H1342 0.929 . S
C1340 C1339 1.363 . S
C1340 C1346 1.428 . S
H1341 C1337 0.930 . S
H1342 C1339 0.929 . S
S1343 N1344 1.613 . S
S1343 N1345 1.610 . S
N1344 S1343 1.613 . S
N1344 C1347 1.350 . S
N1345 S1343 1.610 . S
N1345 C1346 1.351 . S
C1346 C1340 1.428 . S
C1346 N1345 1.351 . S
C1346 C1347 1.434 . S
C1347 C1338 1.429 . S
C1347 N1344 1.350 . S
C1347 C1346 1.434 . S
C1348 C1349 1.369 . S
C1348 C1350 1.419 . S
C1348 H1352 0.930 1_545 S
C1349 C1348 1.369 . S
C1349 C1358 1.429 . S
C1350 C1348 1.419 . S
C1350 C1351 1.363 . S
C1350 H1353 0.929 . S
C1351 C1350 1.363 . S
C1351 C1357 1.428 . S
H1352 C1348 0.930 1_565 S
H1353 C1350 0.929 . S
S1354 N1355 1.613 . S
S1354 N1356 1.610 . S
N1355 S1354 1.613 . S
N1355 C1358 1.350 . S
N1356 S1354 1.610 . S
N1356 C1357 1.351 . S
C1357 C1351 1.428 . S
C1357 N1356 1.351 . S
C1357 C1358 1.434 . S
C1358 C1349 1.429 . S
C1358 N1355 1.350 . S
C1358 C1357 1.434 . S
C1359 C1360 1.369 . S
C1359 C1361 1.419 . S
C1359 H1363 0.930 . S
C1360 C1359 1.369 . S
C1360 C1369 1.429 . S
C1361 C1359 1.419 . S
C1361 C1362 1.363 . S
C1361 H1364 0.929 . S
C1362 C1361 1.363 . S
C1362 C1368 1.428 . S
H1363 C1359 0.930 . S
H1364 C1361 0.929 . S
S1365 N1366 1.613 . S
S1365 N1367 1.610 . S
N1366 S1365 1.613 . S
N1366 C1369 1.350 . S
N1367 S1365 1.610 . S
N1367 C1368 1.351 . S
C1368 C1362 1.428 . S
C1368 N1367 1.351 . S
C1368 C1369 1.434 . S
C1369 C1360 1.429 . S
C1369 N1366 1.350 . S
C1369 C1368 1.434 . S
C1370 C1371 1.369 . S
C1370 C1372 1.419 . S
C1370 H1374 0.930 . S
C1371 C1370 1.369 . S
C1371 C1380 1.429 1_545 S
C1372 C1370 1.419 . S
C1372 C1373 1.363 . S
C1372 H1375 0.929 . S
C1373 C1372 1.363 . S
C1373 C1379 1.428 1_545 S
H1374 C1370 0.930 . S
H1375 C1372 0.929 . S
S1376 N1377 1.613 . S
S1376 N1378 1.610 . S
N1377 S1376 1.613 . S
N1377 C1380 1.350 . S
N1378 S1376 1.610 . S
N1378 C1379 1.351 . S
C1379 C1373 1.428 1_565 S
C1379 N1378 1.351 . S
C1379 C1380 1.434 . S
C1380 C1371 1.429 1_565 S
C1380 N1377 1.350 . S
C1380 C1379 1.434 . S
C1381 C1382 1.369 . S
C1381 C1383 1.419 . S
C1381 H1385 0.930 . S
C1382 C1381 1.369 . S
C1382 C1391 1.429 . S
C1383 C1381 1.419 . S
C1383 C1384 1.363 . S
C1383 H1386 0.929 . S
C1384 C1383 1.363 . S
C1384 C1390 1.428 . S
H1385 C1381 0.930 . S
H1386 C1383 0.929 . S
S1387 N1388 1.613 . S
S1387 N1389 1.610 . S
N1388 S1387 1.613 . S
N1388 C1391 1.350 . S
N1389 S1387 1.610 . S
N1389 C1390 1.351 . S
C1390 C1384 1.428 . S
C1390 N1389 1.351 . S
C1390 C1391 1.434 . S
C1391 C1382 1.429 . S
C1391 N1388 1.350 . S
C1391 C1390 1.434 . S
C1392 C1393 1.369 . S
C1392 C1394 1.419 . S
C1392 H1396 0.930 . S
C1393 C1392 1.369 . S
C1393 C1402 1.429 . S
C1394 C1392 1.419 . S
C1394 C1395 1.363 . S
C1394 H1397 0.929 . S
C1395 C1394 1.363 . S
C1395 C1401 1.428 . S
H1396 C1392 0.930 . S
H1397 C1394 0.929 . S
S1398 N1399 1.613 . S
S1398 N1400 1.610 . S
N1399 S1398 1.613 . S
N1399 C1402 1.350 . S
N1400 S1398 1.610 . S
N1400 C1401 1.351 . S
C1401 C1395 1.428 . S
C1401 N1400 1.351 . S
C1401 C1402 1.434 . S
C1402 C1393 1.429 . S
C1402 N1399 1.350 . S
C1402 C1401 1.434 . S
C1403 C1404 1.369 . S
C1403 C1405 1.419 . S
C1403 H1407 0.930 . S
C1404 C1403 1.369 . S
C1404 C1413 1.446 . S
C1405 C1403 1.419 . S
C1405 C1406 1.363 . S
C1405 H1408 0.929 . S
C1406 C1405 1.363 . S
C1406 C1412 1.428 1_554 S
H1407 C1403 0.930 . S
H1408 C1405 0.929 . S
S1409 N1410 1.613 . S
S1409 N1411 1.610 . S
N1410 S1409 1.613 . S
N1410 C1413 1.337 1_556 S
N1411 S1409 1.610 . S
N1411 C1412 1.351 . S
C1412 C1406 1.428 1_556 S
C1412 N1411 1.351 . S
C1412 C1413 1.428 1_556 S
C1413 C1404 1.446 . S
C1413 N1410 1.337 1_554 S
C1413 C1412 1.428 1_554 S
C1414 C1415 1.369 . S
C1414 C1416 1.419 . S
C1414 H1418 0.930 . S
C1415 C1414 1.369 . S
C1415 C1424 1.429 . S
C1416 C1414 1.419 . S
C1416 C1417 1.363 . S
C1416 H1419 0.929 . S
C1417 C1416 1.363 . S
C1417 C1423 1.428 . S
H1418 C1414 0.930 . S
H1419 C1416 0.929 . S
S1420 N1421 1.613 . S
S1420 N1422 1.610 . S
N1421 S1420 1.613 . S
N1421 C1424 1.350 . S
N1422 S1420 1.610 . S
N1422 C1423 1.351 . S
C1423 C1417 1.428 . S
C1423 N1422 1.351 . S
C1423 C1424 1.434 . S
C1424 C1415 1.429 . S
C1424 N1421 1.350 . S
C1424 C1423 1.434 . S
C1425 C1426 1.369 . S
C1425 C1427 1.419 . S
C1425 H1429 0.930 . S
C1426 C1425 1.369 . S
C1426 C1435 1.429 . S
C1427 C1425 1.419 . S
C1427 C1428 1.363 . S
C1427 H1430 0.929 . S
C1428 C1427 1.363 . S
C1428 C1434 1.428 . S
H1429 C1425 0.930 . S
H1430 C1427 0.929 . S
S1431 N1432 1.613 . S
S1431 N1433 1.610 . S
N1432 S1431 1.613 . S
N1432 C1435 1.350 . S
N1433 S1431 1.610 . S
N1433 C1434 1.351 . S
C1434 C1428 1.428 . S
C1434 N1433 1.351 . S
C1434 C1435 1.434 . S
C1435 C1426 1.429 . S
C1435 N1432 1.350 . S
C1435 C1434 1.434 . S
C1436 C1437 1.384 . S
C1436 C1438 1.392 1_545 S
C1436 H1440 0.944 . S
C1437 C1436 1.384 . S
C1437 C1446 1.429 . S
C1438 C1436 1.392 1_565 S
C1438 C1439 1.363 . S
C1438 H1441 0.929 . S
C1439 C1438 1.363 . S
C1439 C1445 1.428 . S
H1440 C1436 0.944 . S
H1441 C1438 0.929 . S
S1442 N1443 1.613 1_565 S
S1442 N1444 1.610 . S
N1443 S1442 1.613 1_545 S
N1443 C1446 1.350 . S
N1444 S1442 1.610 . S
N1444 C1445 1.351 . S
C1445 C1439 1.428 . S
C1445 N1444 1.351 . S
C1445 C1446 1.434 1_565 S
C1446 C1437 1.429 . S
C1446 N1443 1.350 . S
C1446 C1445 1.434 1_545 S
C1447 C1448 1.369 . S
C1447 C1449 1.419 . S
C1447 H1451 0.930 . S
C1448 C1447 1.369 . S
C1448 C1457 1.429 . S
C1449 C1447 1.419 . S
C1449 C1450 1.363 . S
C1449 H1452 0.929 . S
C1450 C1449 1.363 . S
C1450 C1456 1.428 . S
H1451 C1447 0.930 . S
H1452 C1449 0.929 . S
S1453 N1454 1.613 . S
S1453 N1455 1.610 . S
N1454 S1453 1.613 . S
N1454 C1457 1.350 . S
N1455 S1453 1.610 . S
N1455 C1456 1.351 . S
C1456 C1450 1.428 . S
C1456 N1455 1.351 . S
C1456 C1457 1.434 . S
C1457 C1448 1.429 . S
C1457 N1454 1.350 . S
C1457 C1456 1.434 . S
C1458 C1459 1.369 . S
C1458 C1460 1.419 . S
C1458 H1462 0.930 . S
C1459 C1458 1.369 . S
C1459 C1468 1.429 . S
C1460 C1458 1.419 . S
C1460 C1461 1.363 . S
C1460 H1463 0.929 . S
C1461 C1460 1.363 . S
C1461 C1467 1.428 . S
H1462 C1458 0.930 . S
H1463 C1460 0.929 . S
S1464 N1465 1.613 . S
S1464 N1466 1.610 . S
N1465 S1464 1.613 . S
N1465 C1468 1.350 . S
N1466 S1464 1.610 . S
N1466 C1467 1.351 . S
C1467 C1461 1.428 . S
C1467 N1466 1.351 . S
C1467 C1468 1.434 . S
C1468 C1459 1.429 . S
C1468 N1465 1.350 . S
C1468 C1467 1.434 . S
C1469 C1470 1.369 . S
C1469 C1471 1.419 . S
C1469 H1473 0.930 . S
C1470 C1469 1.369 . S
C1470 C1479 1.429 . S
C1471 C1469 1.419 . S
C1471 C1472 1.363 . S
C1471 H1474 0.929 . S
C1472 C1471 1.363 . S
C1472 C1478 1.428 . S
H1473 C1469 0.930 . S
H1474 C1471 0.929 . S
S1475 N1476 1.613 . S
S1475 N1477 1.610 . S
N1476 S1475 1.613 . S
N1476 C1479 1.350 . S
N1477 S1475 1.610 . S
N1477 C1478 1.351 . S
C1478 C1472 1.428 . S
C1478 N1477 1.351 . S
C1478 C1479 1.434 . S
C1479 C1470 1.429 . S
C1479 N1476 1.350 . S
C1479 C1478 1.434 . S
C1480 C1481 1.369 . S
C1480 C1482 1.419 . S
C1480 H1484 0.930 . S
C1481 C1480 1.369 . S
C1481 C1490 1.429 . S
C1482 C1480 1.419 . S
C1482 C1483 1.363 . S
C1482 H1485 0.929 . S
C1483 C1482 1.363 . S
C1483 C1489 1.428 . S
H1484 C1480 0.930 . S
H1485 C1482 0.929 . S
S1486 N1487 1.613 . S
S1486 N1488 1.610 . S
N1487 S1486 1.613 . S
N1487 C1490 1.350 . S
N1488 S1486 1.610 . S
N1488 C1489 1.351 . S
C1489 C1483 1.428 . S
C1489 N1488 1.351 . S
C1489 C1490 1.434 . S
C1490 C1481 1.429 . S
C1490 N1487 1.350 . S
C1490 C1489 1.434 . S
C1491 C1492 1.369 . S
C1491 C1493 1.419 . S
C1491 H1495 0.930 . S
C1492 C1491 1.369 . S
C1492 C1501 1.429 . S
C1493 C1491 1.419 . S
C1493 C1494 1.363 . S
C1493 H1496 0.929 . S
C1494 C1493 1.363 . S
C1494 C1500 1.428 . S
H1495 C1491 0.930 . S
H1496 C1493 0.929 . S
S1497 N1498 1.613 . S
S1497 N1499 1.610 . S
N1498 S1497 1.613 . S
N1498 C1501 1.350 . S
N1499 S1497 1.610 . S
N1499 C1500 1.351 . S
C1500 C1494 1.428 . S
C1500 N1499 1.351 . S
C1500 C1501 1.434 . S
C1501 C1492 1.429 . S
C1501 N1498 1.350 . S
C1501 C1500 1.434 . S
C1502 C1503 1.369 . S
C1502 C1504 1.421 . S
C1502 H1506 0.930 . S
C1503 C1502 1.369 . S
C1503 C1512 1.428 1_455 S
C1504 C1502 1.421 . S
C1504 C1505 1.361 1_556 S
C1504 H1507 0.928 1_556 S
C1505 C1504 1.361 1_554 S
C1505 C1511 1.428 . S
H1506 C1502 0.930 . S
H1507 C1504 0.928 1_554 S
S1508 N1509 1.613 . S
S1508 N1510 1.610 1_556 S
N1509 S1508 1.613 . S
N1509 C1512 1.350 . S
N1510 S1508 1.610 1_554 S
N1510 C1511 1.351 1_655 S
C1511 C1505 1.428 . S
C1511 N1510 1.351 1_455 S
C1511 C1512 1.434 1_454 S
C1512 C1503 1.428 1_655 S
C1512 N1509 1.350 . S
C1512 C1511 1.434 1_656 S
C1513 C1514 1.369 . S
C1513 C1515 1.419 1_455 S
C1513 H1517 0.930 . S
C1514 C1513 1.369 . S
C1514 C1523 1.429 . S
C1515 C1513 1.419 1_655 S
C1515 C1516 1.363 . S
C1515 H1518 0.929 . S
C1516 C1515 1.363 . S
C1516 C1522 1.428 . S
H1517 C1513 0.930 . S
H1518 C1515 0.929 . S
S1519 N1520 1.613 . S
S1519 N1521 1.610 1_455 S
N1520 S1519 1.613 . S
N1520 C1523 1.350 . S
N1521 S1519 1.610 1_655 S
N1521 C1522 1.351 . S
C1522 C1516 1.428 . S
C1522 N1521 1.351 . S
C1522 C1523 1.434 1_655 S
C1523 C1514 1.429 . S
C1523 N1520 1.350 . S
C1523 C1522 1.434 1_455 S
C1524 C1525 1.369 . S
C1524 C1526 1.419 . S
C1524 H1528 0.930 . S
C1525 C1524 1.369 . S
C1525 C1534 1.429 . S
C1526 C1524 1.419 . S
C1526 C1527 1.363 . S
C1526 H1529 0.929 . S
C1527 C1526 1.363 . S
C1527 C1533 1.428 . S
H1528 C1524 0.930 . S
H1529 C1526 0.929 . S
S1530 N1531 1.613 . S
S1530 N1532 1.610 . S
N1531 S1530 1.613 . S
N1531 C1534 1.350 . S
N1532 S1530 1.610 . S
N1532 C1533 1.351 . S
C1533 C1527 1.428 . S
C1533 N1532 1.351 . S
C1533 C1534 1.434 . S
C1534 C1525 1.429 . S
C1534 N1531 1.350 . S
C1534 C1533 1.434 . S
C1535 C1536 1.369 . S
C1535 C1537 1.419 . S
C1535 H1539 0.930 . S
C1536 C1535 1.369 . S
C1536 C1545 1.429 . S
C1537 C1535 1.419 . S
C1537 C1538 1.363 . S
C1537 H1540 0.929 . S
C1538 C1537 1.363 . S
C1538 C1544 1.428 . S
H1539 C1535 0.930 . S
H1540 C1537 0.929 . S
S1541 N1542 1.613 1_655 S
S1541 N1543 1.610 . S
N1542 S1541 1.613 1_455 S
N1542 C1545 1.350 . S
N1543 S1541 1.610 . S
N1543 C1544 1.351 1_655 S
C1544 C1538 1.428 . S
C1544 N1543 1.351 1_455 S
C1544 C1545 1.434 . S
C1545 C1536 1.429 . S
C1545 N1542 1.350 . S
C1545 C1544 1.434 . S
C1546 C1547 1.369 . S
C1546 C1548 1.419 1_655 S
C1546 H1550 0.930 . S
C1547 C1546 1.369 . S
C1547 C1556 1.429 1_655 S
C1548 C1546 1.419 1_455 S
C1548 C1549 1.363 . S
C1548 H1551 0.933 . S
C1549 C1548 1.363 . S
C1549 C1555 1.428 . S
H1550 C1546 0.930 . S
H1551 C1548 0.933 . S
S1552 N1553 1.613 . S
S1552 N1554 1.610 . S
N1553 S1552 1.613 . S
N1553 C1556 1.350 . S
N1554 S1552 1.610 . S
N1554 C1555 1.351 . S
C1555 C1549 1.428 . S
C1555 N1554 1.351 . S
C1555 C1556 1.434 . S
C1556 C1547 1.429 1_455 S
C1556 N1553 1.350 . S
C1556 C1555 1.434 . S
C1557 C1558 1.369 . S
C1557 C1559 1.419 . S
C1557 H1561 0.930 . S
C1558 C1557 1.369 . S
C1558 C1567 1.429 . S
C1559 C1557 1.419 . S
C1559 C1560 1.363 . S
C1559 H1562 0.929 . S
C1560 C1559 1.363 . S
C1560 C1566 1.428 . S
H1561 C1557 0.930 . S
H1562 C1559 0.929 . S
S1563 N1564 1.613 . S
S1563 N1565 1.610 . S
N1564 S1563 1.613 . S
N1564 C1567 1.350 . S
N1565 S1563 1.610 . S
N1565 C1566 1.351 . S
C1566 C1560 1.428 . S
C1566 N1565 1.351 . S
C1566 C1567 1.434 . S
C1567 C1558 1.429 . S
C1567 N1564 1.350 . S
C1567 C1566 1.434 . S
C1568 C1569 1.369 . S
C1568 C1570 1.419 . S
C1568 H1572 0.930 . S
C1569 C1568 1.369 . S
C1569 C1578 1.429 . S
C1570 C1568 1.419 . S
C1570 C1571 1.363 . S
C1570 H1573 0.929 . S
C1571 C1570 1.363 . S
C1571 C1577 1.428 . S
H1572 C1568 0.930 . S
H1573 C1570 0.929 . S
S1574 N1575 1.613 . S
S1574 N1576 1.610 . S
N1575 S1574 1.613 . S
N1575 C1578 1.350 . S
N1576 S1574 1.610 . S
N1576 C1577 1.351 . S
C1577 C1571 1.428 . S
C1577 N1576 1.351 . S
C1577 C1578 1.434 . S
C1578 C1569 1.429 . S
C1578 N1575 1.350 . S
C1578 C1577 1.434 . S
C1579 C1580 1.369 . S
C1579 C1581 1.419 . S
C1579 H1583 0.930 . S
C1580 C1579 1.369 . S
C1580 C1589 1.429 . S
C1581 C1579 1.419 . S
C1581 C1582 1.363 . S
C1581 H1584 0.929 . S
C1582 C1581 1.363 . S
C1582 C1588 1.428 . S
H1583 C1579 0.930 . S
H1584 C1581 0.929 . S
S1585 N1586 1.612 . S
S1585 N1587 1.610 1_554 S
N1586 S1585 1.612 . S
N1586 C1589 1.340 1_554 S
N1587 S1585 1.610 1_556 S
N1587 C1588 1.351 . S
C1588 C1582 1.428 . S
C1588 N1587 1.351 . S
C1588 C1589 1.434 . S
C1589 C1580 1.429 . S
C1589 N1586 1.340 1_556 S
C1589 C1588 1.434 . S
C1590 C1591 1.369 . S
C1590 C1592 1.419 . S
C1590 H1594 0.930 . S
C1591 C1590 1.369 . S
C1591 C1600 1.429 . S
C1592 C1590 1.419 . S
C1592 C1593 1.363 . S
C1592 H1595 0.929 . S
C1593 C1592 1.363 . S
C1593 C1599 1.428 . S
H1594 C1590 0.930 . S
H1595 C1592 0.929 . S
S1596 N1597 1.613 . S
S1596 N1598 1.610 . S
N1597 S1596 1.613 . S
N1597 C1600 1.350 . S
N1598 S1596 1.610 . S
N1598 C1599 1.351 . S
C1599 C1593 1.428 . S
C1599 N1598 1.351 . S
C1599 C1600 1.434 . S
C1600 C1591 1.429 . S
C1600 N1597 1.350 . S
C1600 C1599 1.434 . S
C1601 C1602 1.369 . S
C1601 C1603 1.419 . S
C1601 H1605 0.930 . S
C1602 C1601 1.369 . S
C1602 C1611 1.429 . S
C1603 C1601 1.419 . S
C1603 C1604 1.363 . S
C1603 H1606 0.929 . S
C1604 C1603 1.363 . S
C1604 C1610 1.428 . S
H1605 C1601 0.930 . S
H1606 C1603 0.929 . S
S1607 N1608 1.613 . S
S1607 N1609 1.610 . S
N1608 S1607 1.613 . S
N1608 C1611 1.350 . S
N1609 S1607 1.610 . S
N1609 C1610 1.351 . S
C1610 C1604 1.428 . S
C1610 N1609 1.351 . S
C1610 C1611 1.434 . S
C1611 C1602 1.429 . S
C1611 N1608 1.350 . S
C1611 C1610 1.434 . S
C1612 C1613 1.369 . S
C1612 C1614 1.419 . S
C1612 H1616 0.930 . S
C1613 C1612 1.369 . S
C1613 C1622 1.429 . S
C1614 C1612 1.419 . S
C1614 C1615 1.363 . S
C1614 H1617 0.929 . S
C1615 C1614 1.363 . S
C1615 C1621 1.428 . S
H1616 C1612 0.930 . S
H1617 C1614 0.929 . S
S1618 N1619 1.613 . S
S1618 N1620 1.610 . S
N1619 S1618 1.613 . S
N1619 C1622 1.350 . S
N1620 S1618 1.610 . S
N1620 C1621 1.351 . S
C1621 C1615 1.428 . S
C1621 N1620 1.351 . S
C1621 C1622 1.434 . S
C1622 C1613 1.429 . S
C1622 N1619 1.350 . S
C1622 C1621 1.434 . S
C1623 C1624 1.369 . S
C1623 C1625 1.419 . S
C1623 H1627 0.930 . S
C1624 C1623 1.369 . S
C1624 C1633 1.429 . S
C1625 C1623 1.419 . S
C1625 C1626 1.363 . S
C1625 H1628 0.929 . S
C1626 C1625 1.363 . S
C1626 C1632 1.428 . S
H1627 C1623 0.930 . S
H1628 C1625 0.929 . S
S1629 N1630 1.613 . S
S1629 N1631 1.610 . S
N1630 S1629 1.613 . S
N1630 C1633 1.350 . S
N1631 S1629 1.610 . S
N1631 C1632 1.351 . S
C1632 C1626 1.428 . S
C1632 N1631 1.351 . S
C1632 C1633 1.434 . S
C1633 C1624 1.429 . S
C1633 N1630 1.350 . S
C1633 C1632 1.434 . S
C1634 C1635 1.369 . S
C1634 C1636 1.419 . S
C1634 H1638 0.930 . S
C1635 C1634 1.369 . S
C1635 C1644 1.429 . S
C1636 C1634 1.419 . S
C1636 C1637 1.363 . S
C1636 H1639 0.929 . S
C1637 C1636 1.363 . S
C1637 C1643 1.428 . S
H1638 C1634 0.930 . S
H1639 C1636 0.929 . S
S1640 N1641 1.613 . S
S1640 N1642 1.610 . S
N1641 S1640 1.613 . S
N1641 C1644 1.350 . S
N1642 S1640 1.610 . S
N1642 C1643 1.351 . S
C1643 C1637 1.428 . S
C1643 N1642 1.351 . S
C1643 C1644 1.434 . S
C1644 C1635 1.429 . S
C1644 N1641 1.350 . S
C1644 C1643 1.434 . S
C1645 C1646 1.369 . S
C1645 C1647 1.419 . S
C1645 H1649 0.930 . S
C1646 C1645 1.369 . S
C1646 C1655 1.429 . S
C1647 C1645 1.419 . S
C1647 C1648 1.363 . S
C1647 H1650 0.929 . S
C1648 C1647 1.363 . S
C1648 C1654 1.428 . S
H1649 C1645 0.930 . S
H1650 C1647 0.929 . S
S1651 N1652 1.613 . S
S1651 N1653 1.610 . S
N1652 S1651 1.613 . S
N1652 C1655 1.350 . S
N1653 S1651 1.610 . S
N1653 C1654 1.351 . S
C1654 C1648 1.428 . S
C1654 N1653 1.351 . S
C1654 C1655 1.434 . S
C1655 C1646 1.429 . S
C1655 N1652 1.350 . S
C1655 C1654 1.434 . S
C1656 C1657 1.369 . S
C1656 C1658 1.419 . S
C1656 H1660 0.930 . S
C1657 C1656 1.369 . S
C1657 C1666 1.429 . S
C1658 C1656 1.419 . S
C1658 C1659 1.363 . S
C1658 H1661 0.929 . S
C1659 C1658 1.363 . S
C1659 C1665 1.428 . S
H1660 C1656 0.930 . S
H1661 C1658 0.929 . S
S1662 N1663 1.613 . S
S1662 N1664 1.610 . S
N1663 S1662 1.613 . S
N1663 C1666 1.350 . S
N1664 S1662 1.610 . S
N1664 C1665 1.351 . S
C1665 C1659 1.428 . S
C1665 N1664 1.351 . S
C1665 C1666 1.434 . S
C1666 C1657 1.429 . S
C1666 N1663 1.350 . S
C1666 C1665 1.434 . S
C1667 C1668 1.369 . S
C1667 C1669 1.419 . S
C1667 H1671 0.930 . S
C1668 C1667 1.369 . S
C1668 C1677 1.429 . S
C1669 C1667 1.419 . S
C1669 C1670 1.363 . S
C1669 H1672 0.929 . S
C1670 C1669 1.363 . S
C1670 C1676 1.428 . S
H1671 C1667 0.930 . S
H1672 C1669 0.929 . S
S1673 N1674 1.613 . S
S1673 N1675 1.610 . S
N1674 S1673 1.613 . S
N1674 C1677 1.350 . S
N1675 S1673 1.610 . S
N1675 C1676 1.351 . S
C1676 C1670 1.428 . S
C1676 N1675 1.351 . S
C1676 C1677 1.434 . S
C1677 C1668 1.429 . S
C1677 N1674 1.350 . S
C1677 C1676 1.434 . S
C1678 C1679 1.369 . S
C1678 C1680 1.419 . S
C1678 H1682 0.930 . S
C1679 C1678 1.369 . S
C1679 C1688 1.429 . S
C1680 C1678 1.419 . S
C1680 C1681 1.363 . S
C1680 H1683 0.929 . S
C1681 C1680 1.363 . S
C1681 C1687 1.428 . S
H1682 C1678 0.930 . S
H1683 C1680 0.929 . S
S1684 N1685 1.613 . S
S1684 N1686 1.610 . S
N1685 S1684 1.613 . S
N1685 C1688 1.350 . S
N1686 S1684 1.610 . S
N1686 C1687 1.351 . S
C1687 C1681 1.428 . S
C1687 N1686 1.351 . S
C1687 C1688 1.434 . S
C1688 C1679 1.429 . S
C1688 N1685 1.350 . S
C1688 C1687 1.434 . S
C1689 C1690 1.358 1_545 S
C1689 C1691 1.419 . S
C1689 H1693 0.930 . S
C1690 C1689 1.358 1_565 S
C1690 C1699 1.439 1_554 S
C1691 C1689 1.419 . S
C1691 C1692 1.363 . S
C1691 H1694 0.929 . S
C1692 C1691 1.363 . S
C1692 C1698 1.428 1_544 S
H1693 C1689 0.930 . S
H1694 C1691 0.929 . S
S1695 N1696 1.613 . S
S1695 N1697 1.610 . S
N1696 S1695 1.613 . S
N1696 C1699 1.350 . S
N1697 S1695 1.610 . S
N1697 C1698 1.351 . S
C1698 C1692 1.428 1_566 S
C1698 N1697 1.351 . S
C1698 C1699 1.434 . S
C1699 C1690 1.439 1_556 S
C1699 N1696 1.350 . S
C1699 C1698 1.434 . S
C1700 C1701 1.369 . S
C1700 C1702 1.419 . S
C1700 H1704 0.930 . S
C1701 C1700 1.369 . S
C1701 C1710 1.429 . S
C1702 C1700 1.419 . S
C1702 C1703 1.363 . S
C1702 H1705 0.929 . S
C1703 C1702 1.363 . S
C1703 C1709 1.428 . S
H1704 C1700 0.930 . S
H1705 C1702 0.929 . S
S1706 N1707 1.613 . S
S1706 N1708 1.610 . S
N1707 S1706 1.613 . S
N1707 C1710 1.350 . S
N1708 S1706 1.610 . S
N1708 C1709 1.351 . S
C1709 C1703 1.428 . S
C1709 N1708 1.351 . S
C1709 C1710 1.434 . S
C1710 C1701 1.429 . S
C1710 N1707 1.350 . S
C1710 C1709 1.434 . S
C1711 C1712 1.369 . S
C1711 C1713 1.419 . S
C1711 H1715 0.930 . S
C1712 C1711 1.369 . S
C1712 C1721 1.429 . S
C1713 C1711 1.419 . S
C1713 C1714 1.363 . S
C1713 H1716 0.929 . S
C1714 C1713 1.363 . S
C1714 C1720 1.428 . S
H1715 C1711 0.930 . S
H1716 C1713 0.929 . S
S1717 N1718 1.613 . S
S1717 N1719 1.610 . S
N1718 S1717 1.613 . S
N1718 C1721 1.350 . S
N1719 S1717 1.610 . S
N1719 C1720 1.351 . S
C1720 C1714 1.428 . S
C1720 N1719 1.351 . S
C1720 C1721 1.434 . S
C1721 C1712 1.429 . S
C1721 N1718 1.350 . S
C1721 C1720 1.434 . S
C1722 C1723 1.369 . S
C1722 C1724 1.419 . S
C1722 H1726 0.930 . S
C1723 C1722 1.369 . S
C1723 C1732 1.429 . S
C1724 C1722 1.419 . S
C1724 C1725 1.363 . S
C1724 H1727 0.929 . S
C1725 C1724 1.363 . S
C1725 C1731 1.428 . S
H1726 C1722 0.930 . S
H1727 C1724 0.929 . S
S1728 N1729 1.613 . S
S1728 N1730 1.610 . S
N1729 S1728 1.613 . S
N1729 C1732 1.350 . S
N1730 S1728 1.610 . S
N1730 C1731 1.351 . S
C1731 C1725 1.428 . S
C1731 N1730 1.351 . S
C1731 C1732 1.434 . S
C1732 C1723 1.429 . S
C1732 N1729 1.350 . S
C1732 C1731 1.434 . S
C1733 C1734 1.369 . S
C1733 C1735 1.419 . S
C1733 H1737 0.930 . S
C1734 C1733 1.369 . S
C1734 C1743 1.429 . S
C1735 C1733 1.419 . S
C1735 C1736 1.363 . S
C1735 H1738 0.929 . S
C1736 C1735 1.363 . S
C1736 C1742 1.428 . S
H1737 C1733 0.930 . S
H1738 C1735 0.929 . S
S1739 N1740 1.613 . S
S1739 N1741 1.610 . S
N1740 S1739 1.613 . S
N1740 C1743 1.350 . S
N1741 S1739 1.610 . S
N1741 C1742 1.351 . S
C1742 C1736 1.428 . S
C1742 N1741 1.351 . S
C1742 C1743 1.434 . S
C1743 C1734 1.429 . S
C1743 N1740 1.350 . S
C1743 C1742 1.434 . S
C1744 C1745 1.369 . S
C1744 C1746 1.419 . S
C1744 H1748 0.930 . S
C1745 C1744 1.369 . S
C1745 C1754 1.429 . S
C1746 C1744 1.419 . S
C1746 C1747 1.363 . S
C1746 H1749 0.929 . S
C1747 C1746 1.363 . S
C1747 C1753 1.428 . S
H1748 C1744 0.930 . S
H1749 C1746 0.929 . S
S1750 N1751 1.613 . S
S1750 N1752 1.610 . S
N1751 S1750 1.613 . S
N1751 C1754 1.350 . S
N1752 S1750 1.610 . S
N1752 C1753 1.351 . S
C1753 C1747 1.428 . S
C1753 N1752 1.351 . S
C1753 C1754 1.434 . S
C1754 C1745 1.429 . S
C1754 N1751 1.350 . S
C1754 C1753 1.434 . S
C1755 C1756 1.369 . S
C1755 C1757 1.419 . S
C1755 H1759 0.930 . S
C1756 C1755 1.369 . S
C1756 C1765 1.429 . S
C1757 C1755 1.419 . S
C1757 C1758 1.363 . S
C1757 H1760 0.929 . S
C1758 C1757 1.363 . S
C1758 C1764 1.428 . S
H1759 C1755 0.930 . S
H1760 C1757 0.929 . S
S1761 N1762 1.613 . S
S1761 N1763 1.610 . S
N1762 S1761 1.613 . S
N1762 C1765 1.350 . S
N1763 S1761 1.610 . S
N1763 C1764 1.351 . S
C1764 C1758 1.428 . S
C1764 N1763 1.351 . S
C1764 C1765 1.434 . S
C1765 C1756 1.429 . S
C1765 N1762 1.350 . S
C1765 C1764 1.434 . S
C1766 C1767 1.369 . S
C1766 C1768 1.419 . S
C1766 H1770 0.930 . S
C1767 C1766 1.369 . S
C1767 C1776 1.429 . S
C1768 C1766 1.419 . S
C1768 C1769 1.363 . S
C1768 H1771 0.929 . S
C1769 C1768 1.363 . S
C1769 C1775 1.428 . S
H1770 C1766 0.930 . S
H1771 C1768 0.929 . S
S1772 N1773 1.613 . S
S1772 N1774 1.610 . S
N1773 S1772 1.613 . S
N1773 C1776 1.350 . S
N1774 S1772 1.610 . S
N1774 C1775 1.351 . S
C1775 C1769 1.428 . S
C1775 N1774 1.351 . S
C1775 C1776 1.434 . S
C1776 C1767 1.429 . S
C1776 N1773 1.350 . S
C1776 C1775 1.434 . S
C1777 C1778 1.369 . S
C1777 C1779 1.419 . S
C1777 H1781 0.930 . S
C1778 C1777 1.369 . S
C1778 C1787 1.429 . S
C1779 C1777 1.419 . S
C1779 C1780 1.363 . S
C1779 H1782 0.929 . S
C1780 C1779 1.363 . S
C1780 C1786 1.428 . S
H1781 C1777 0.930 . S
H1782 C1779 0.929 . S
S1783 N1784 1.613 . S
S1783 N1785 1.610 . S
N1784 S1783 1.613 . S
N1784 C1787 1.350 . S
N1785 S1783 1.610 . S
N1785 C1786 1.351 . S
C1786 C1780 1.428 . S
C1786 N1785 1.351 . S
C1786 C1787 1.434 . S
C1787 C1778 1.429 . S
C1787 N1784 1.350 . S
C1787 C1786 1.434 . S
C1788 C1789 1.369 . S
C1788 C1790 1.419 . S
C1788 H1792 0.930 . S
C1789 C1788 1.369 . S
C1789 C1798 1.429 . S
C1790 C1788 1.419 . S
C1790 C1791 1.363 . S
C1790 H1793 0.929 . S
C1791 C1790 1.363 . S
C1791 C1797 1.428 . S
H1792 C1788 0.930 . S
H1793 C1790 0.929 . S
S1794 N1795 1.613 . S
S1794 N1796 1.610 . S
N1795 S1794 1.613 . S
N1795 C1798 1.350 . S
N1796 S1794 1.610 . S
N1796 C1797 1.351 . S
C1797 C1791 1.428 . S
C1797 N1796 1.351 . S
C1797 C1798 1.434 . S
C1798 C1789 1.429 . S
C1798 N1795 1.350 . S
C1798 C1797 1.434 . S
C1799 C1800 1.369 . S
C1799 C1801 1.419 . S
C1799 H1803 0.930 . S
C1800 C1799 1.369 . S
C1800 C1809 1.429 . S
C1801 C1799 1.419 . S
C1801 C1802 1.363 . S
C1801 H1804 0.929 . S
C1802 C1801 1.363 . S
C1802 C1808 1.428 . S
H1803 C1799 0.930 . S
H1804 C1801 0.929 . S
S1805 N1806 1.613 . S
S1805 N1807 1.610 . S
N1806 S1805 1.613 . S
N1806 C1809 1.350 . S
N1807 S1805 1.610 . S
N1807 C1808 1.351 . S
C1808 C1802 1.428 . S
C1808 N1807 1.351 . S
C1808 C1809 1.434 . S
C1809 C1800 1.429 . S
C1809 N1806 1.350 . S
C1809 C1808 1.434 . S
C1810 C1811 1.369 . S
C1810 C1812 1.419 . S
C1810 H1814 0.930 . S
C1811 C1810 1.369 . S
C1811 C1820 1.429 . S
C1812 C1810 1.419 . S
C1812 C1813 1.363 . S
C1812 H1815 0.929 . S
C1813 C1812 1.363 . S
C1813 C1819 1.428 . S
H1814 C1810 0.930 . S
H1815 C1812 0.929 . S
S1816 N1817 1.613 . S
S1816 N1818 1.610 . S
N1817 S1816 1.613 . S
N1817 C1820 1.350 . S
N1818 S1816 1.610 . S
N1818 C1819 1.351 . S
C1819 C1813 1.428 . S
C1819 N1818 1.351 . S
C1819 C1820 1.434 . S
C1820 C1811 1.429 . S
C1820 N1817 1.350 . S
C1820 C1819 1.434 . S
C1821 C1822 1.369 . S
C1821 C1823 1.419 . S
C1821 H1825 0.930 . S
C1822 C1821 1.369 . S
C1822 C1831 1.429 . S
C1823 C1821 1.419 . S
C1823 C1824 1.363 . S
C1823 H1826 0.929 . S
C1824 C1823 1.363 . S
C1824 C1830 1.428 . S
H1825 C1821 0.930 . S
H1826 C1823 0.929 . S
S1827 N1828 1.613 . S
S1827 N1829 1.610 . S
N1828 S1827 1.613 . S
N1828 C1831 1.350 . S
N1829 S1827 1.610 . S
N1829 C1830 1.351 . S
C1830 C1824 1.428 . S
C1830 N1829 1.351 . S
C1830 C1831 1.434 . S
C1831 C1822 1.429 . S
C1831 N1828 1.350 . S
C1831 C1830 1.434 . S
C1832 C1833 1.369 . S
C1832 C1834 1.419 . S
C1832 H1836 0.930 . S
C1833 C1832 1.369 . S
C1833 C1842 1.429 . S
C1834 C1832 1.419 . S
C1834 C1835 1.363 . S
C1834 H1837 0.929 . S
C1835 C1834 1.363 . S
C1835 C1841 1.428 . S
H1836 C1832 0.930 . S
H1837 C1834 0.929 . S
S1838 N1839 1.613 . S
S1838 N1840 1.610 . S
N1839 S1838 1.613 . S
N1839 C1842 1.350 . S
N1840 S1838 1.610 . S
N1840 C1841 1.351 . S
C1841 C1835 1.428 . S
C1841 N1840 1.351 . S
C1841 C1842 1.434 . S
C1842 C1833 1.429 . S
C1842 N1839 1.350 . S
C1842 C1841 1.434 . S
C1843 C1844 1.369 . S
C1843 C1845 1.419 . S
C1843 H1847 0.930 . S
C1844 C1843 1.369 . S
C1844 C1853 1.429 . S
C1845 C1843 1.419 . S
C1845 C1846 1.363 . S
C1845 H1848 0.929 . S
C1846 C1845 1.363 . S
C1846 C1852 1.428 . S
H1847 C1843 0.930 . S
H1848 C1845 0.929 . S
S1849 N1850 1.613 . S
S1849 N1851 1.610 . S
N1850 S1849 1.613 . S
N1850 C1853 1.350 . S
N1851 S1849 1.610 . S
N1851 C1852 1.351 . S
C1852 C1846 1.428 . S
C1852 N1851 1.351 . S
C1852 C1853 1.434 . S
C1853 C1844 1.429 . S
C1853 N1850 1.350 . S
C1853 C1852 1.434 . S
C1854 C1855 1.369 . S
C1854 C1856 1.419 1_655 S
C1854 H1858 0.930 . S
C1855 C1854 1.369 . S
C1855 C1864 1.429 . S
C1856 C1854 1.419 1_455 S
C1856 C1857 1.363 . S
C1856 H1859 0.929 . S
C1857 C1856 1.363 . S
C1857 C1863 1.428 1_455 S
H1858 C1854 0.930 . S
H1859 C1856 0.929 . S
S1860 N1861 1.613 . S
S1860 N1862 1.610 . S
N1861 S1860 1.613 . S
N1861 C1864 1.350 . S
N1862 S1860 1.610 . S
N1862 C1863 1.351 . S
C1863 C1857 1.428 1_655 S
C1863 N1862 1.351 . S
C1863 C1864 1.434 . S
C1864 C1855 1.429 . S
C1864 N1861 1.350 . S
C1864 C1863 1.434 . S
C1865 C1866 1.369 . S
C1865 C1867 1.419 . S
C1865 H1869 0.930 . S
C1866 C1865 1.369 . S
C1866 C1875 1.429 . S
C1867 C1865 1.419 . S
C1867 C1868 1.363 . S
C1867 H1870 0.929 . S
C1868 C1867 1.363 . S
C1868 C1874 1.428 . S
H1869 C1865 0.930 . S
H1870 C1867 0.929 . S
S1871 N1872 1.613 . S
S1871 N1873 1.610 . S
N1872 S1871 1.613 . S
N1872 C1875 1.350 . S
N1873 S1871 1.610 . S
N1873 C1874 1.351 . S
C1874 C1868 1.428 . S
C1874 N1873 1.351 . S
C1874 C1875 1.434 . S
C1875 C1866 1.429 . S
C1875 N1872 1.350 . S
C1875 C1874 1.434 . S
C1876 C1877 1.369 . S
C1876 C1878 1.419 . S
C1876 H1880 0.930 . S
C1877 C1876 1.369 . S
C1877 C1886 1.429 . S
C1878 C1876 1.419 . S
C1878 C1879 1.363 . S
C1878 H1881 0.929 . S
C1879 C1878 1.363 . S
C1879 C1885 1.428 . S
H1880 C1876 0.930 . S
H1881 C1878 0.929 . S
S1882 N1883 1.613 . S
S1882 N1884 1.610 . S
N1883 S1882 1.613 . S
N1883 C1886 1.350 . S
N1884 S1882 1.610 . S
N1884 C1885 1.351 . S
C1885 C1879 1.428 . S
C1885 N1884 1.351 . S
C1885 C1886 1.434 . S
C1886 C1877 1.429 . S
C1886 N1883 1.350 . S
C1886 C1885 1.434 . S
C1887 C1888 1.369 . S
C1887 C1889 1.419 . S
C1887 H1891 0.930 . S
C1888 C1887 1.369 . S
C1888 C1897 1.429 . S
C1889 C1887 1.419 . S
C1889 C1890 1.363 . S
C1889 H1892 0.929 . S
C1890 C1889 1.363 . S
C1890 C1896 1.428 . S
H1891 C1887 0.930 . S
H1892 C1889 0.929 . S
S1893 N1894 1.613 . S
S1893 N1895 1.610 . S
N1894 S1893 1.613 . S
N1894 C1897 1.350 . S
N1895 S1893 1.610 . S
N1895 C1896 1.351 . S
C1896 C1890 1.428 . S
C1896 N1895 1.351 . S
C1896 C1897 1.434 . S
C1897 C1888 1.429 . S
C1897 N1894 1.350 . S
C1897 C1896 1.434 . S
C1898 C1899 1.369 . S
C1898 C1900 1.419 . S
C1898 H1902 0.930 . S
C1899 C1898 1.369 . S
C1899 C1908 1.429 . S
C1900 C1898 1.419 . S
C1900 C1901 1.363 . S
C1900 H1903 0.929 . S
C1901 C1900 1.363 . S
C1901 C1907 1.428 . S
H1902 C1898 0.930 . S
H1903 C1900 0.929 . S
S1904 N1905 1.613 . S
S1904 N1906 1.610 . S
N1905 S1904 1.613 . S
N1905 C1908 1.350 . S
N1906 S1904 1.610 . S
N1906 C1907 1.351 . S
C1907 C1901 1.428 . S
C1907 N1906 1.351 . S
C1907 C1908 1.434 . S
C1908 C1899 1.429 . S
C1908 N1905 1.350 . S
C1908 C1907 1.434 . S
C1909 C1910 1.369 . S
C1909 C1911 1.419 . S
C1909 H1913 0.930 . S
C1910 C1909 1.369 . S
C1910 C1919 1.429 . S
C1911 C1909 1.419 . S
C1911 C1912 1.363 . S
C1911 H1914 0.929 . S
C1912 C1911 1.363 . S
C1912 C1918 1.428 . S
H1913 C1909 0.930 . S
H1914 C1911 0.929 . S
S1915 N1916 1.613 . S
S1915 N1917 1.610 . S
N1916 S1915 1.613 . S
N1916 C1919 1.350 . S
N1917 S1915 1.610 . S
N1917 C1918 1.351 . S
C1918 C1912 1.428 . S
C1918 N1917 1.351 . S
C1918 C1919 1.434 . S
C1919 C1910 1.429 . S
C1919 N1916 1.350 . S
C1919 C1918 1.434 . S
C1920 C1921 1.369 . S
C1920 C1922 1.419 . S
C1920 H1924 0.930 . S
C1921 C1920 1.369 . S
C1921 C1930 1.429 . S
C1922 C1920 1.419 . S
C1922 C1923 1.363 . S
C1922 H1925 0.929 . S
C1923 C1922 1.363 . S
C1923 C1929 1.428 . S
H1924 C1920 0.930 . S
H1925 C1922 0.929 . S
S1926 N1927 1.613 . S
S1926 N1928 1.610 . S
N1927 S1926 1.613 . S
N1927 C1930 1.350 . S
N1928 S1926 1.610 . S
N1928 C1929 1.351 . S
C1929 C1923 1.428 . S
C1929 N1928 1.351 . S
C1929 C1930 1.434 . S
C1930 C1921 1.429 . S
C1930 N1927 1.350 . S
C1930 C1929 1.434 . S
C1931 C1932 1.369 . S
C1931 C1933 1.419 . S
C1931 H1935 0.930 . S
C1932 C1931 1.369 . S
C1932 C1941 1.429 . S
C1933 C1931 1.419 . S
C1933 C1934 1.363 . S
C1933 H1936 0.929 . S
C1934 C1933 1.363 . S
C1934 C1940 1.428 . S
H1935 C1931 0.930 . S
H1936 C1933 0.929 . S
S1937 N1938 1.613 . S
S1937 N1939 1.610 . S
N1938 S1937 1.613 . S
N1938 C1941 1.350 . S
N1939 S1937 1.610 . S
N1939 C1940 1.351 . S
C1940 C1934 1.428 . S
C1940 N1939 1.351 . S
C1940 C1941 1.434 . S
C1941 C1932 1.429 . S
C1941 N1938 1.350 . S
C1941 C1940 1.434 . S
C1942 C1943 1.369 . S
C1942 C1944 1.419 . S
C1942 H1946 0.930 . S
C1943 C1942 1.369 . S
C1943 C1952 1.429 . S
C1944 C1942 1.419 . S
C1944 C1945 1.363 . S
C1944 H1947 0.929 . S
C1945 C1944 1.363 . S
C1945 C1951 1.428 . S
H1946 C1942 0.930 . S
H1947 C1944 0.929 . S
S1948 N1949 1.613 . S
S1948 N1950 1.610 . S
N1949 S1948 1.613 . S
N1949 C1952 1.350 . S
N1950 S1948 1.610 . S
N1950 C1951 1.351 . S
C1951 C1945 1.428 . S
C1951 N1950 1.351 . S
C1951 C1952 1.434 . S
C1952 C1943 1.429 . S
C1952 N1949 1.350 . S
C1952 C1951 1.434 . S
C1953 C1954 1.369 . S
C1953 C1955 1.419 . S
C1953 H1957 0.930 . S
C1954 C1953 1.369 . S
C1954 C1963 1.429 . S
C1955 C1953 1.419 . S
C1955 C1956 1.363 . S
C1955 H1958 0.929 . S
C1956 C1955 1.363 . S
C1956 C1962 1.428 . S
H1957 C1953 0.930 . S
H1958 C1955 0.929 . S
S1959 N1960 1.613 . S
S1959 N1961 1.610 . S
N1960 S1959 1.613 . S
N1960 C1963 1.350 1_556 S
N1961 S1959 1.610 . S
N1961 C1962 1.351 1_556 S
C1962 C1956 1.428 . S
C1962 N1961 1.351 1_554 S
C1962 C1963 1.434 . S
C1963 C1954 1.429 . S
C1963 N1960 1.350 1_554 S
C1963 C1962 1.434 . S
C1964 C1965 1.369 . S
C1964 C1966 1.419 . S
C1964 H1968 0.930 . S
C1965 C1964 1.369 . S
C1965 C1974 1.429 . S
C1966 C1964 1.419 . S
C1966 C1967 1.363 . S
C1966 H1969 0.929 . S
C1967 C1966 1.363 . S
C1967 C1973 1.428 . S
H1968 C1964 0.930 . S
H1969 C1966 0.929 . S
S1970 N1971 1.613 . S
S1970 N1972 1.610 . S
N1971 S1970 1.613 . S
N1971 C1974 1.350 . S
N1972 S1970 1.610 . S
N1972 C1973 1.351 . S
C1973 C1967 1.428 . S
C1973 N1972 1.351 . S
C1973 C1974 1.434 . S
C1974 C1965 1.429 . S
C1974 N1971 1.350 . S
C1974 C1973 1.434 . S
C1975 C1976 1.402 . S
C1975 C1977 1.404 1_554 S
C1975 H1979 0.911 1_554 S
C1976 C1975 1.402 . S
C1976 C1985 1.429 . S
C1977 C1975 1.404 1_556 S
C1977 C1978 1.363 1_556 S
C1977 H1980 0.929 . S
C1978 C1977 1.363 1_554 S
C1978 C1984 1.428 . S
H1979 C1975 0.911 1_556 S
H1980 C1977 0.929 . S
S1981 N1982 1.613 . S
S1981 N1983 1.610 . S
N1982 S1981 1.613 . S
N1982 C1985 1.350 . S
N1983 S1981 1.610 . S
N1983 C1984 1.351 . S
C1984 C1978 1.428 . S
C1984 N1983 1.351 . S
C1984 C1985 1.434 . S
C1985 C1976 1.429 . S
C1985 N1982 1.350 . S
C1985 C1984 1.434 . S
C1986 C1987 1.369 . S
C1986 C1988 1.419 . S
C1986 H1990 0.930 . S
C1987 C1986 1.369 . S
C1987 C1996 1.429 . S
C1988 C1986 1.419 . S
C1988 C1989 1.363 . S
C1988 H1991 0.929 . S
C1989 C1988 1.363 . S
C1989 C1995 1.428 . S
H1990 C1986 0.930 . S
H1991 C1988 0.929 . S
S1992 N1993 1.613 . S
S1992 N1994 1.610 . S
N1993 S1992 1.613 . S
N1993 C1996 1.350 . S
N1994 S1992 1.610 . S
N1994 C1995 1.351 . S
C1995 C1989 1.428 . S
C1995 N1994 1.351 . S
C1995 C1996 1.434 . S
C1996 C1987 1.429 . S
C1996 N1993 1.350 . S
C1996 C1995 1.434 . S
C1997 C1998 1.369 . S
C1997 C1999 1.419 . S
C1997 H2001 0.930 . S
C1998 C1997 1.369 . S
C1998 C2007 1.429 . S
C1999 C1997 1.419 . S
C1999 C2000 1.363 . S
C1999 H2002 0.929 . S
C2000 C1999 1.363 . S
C2000 C2006 1.428 . S
H2001 C1997 0.930 . S
H2002 C1999 0.929 . S
S2003 N2004 1.613 . S
S2003 N2005 1.610 . S
N2004 S2003 1.613 . S
N2004 C2007 1.350 . S
N2005 S2003 1.610 . S
N2005 C2006 1.351 . S
C2006 C2000 1.428 . S
C2006 N2005 1.351 . S
C2006 C2007 1.434 . S
C2007 C1998 1.429 . S
C2007 N2004 1.350 . S
C2007 C2006 1.434 . S
C953 C101 1.207 . S
C955 C320 1.233 1_556 S
C964 C57 1.626 . S
C966 C354 1.681 . S
C975 C70 0.842 . S
C977 C423 0.841 . S
C988 C461 0.883 . S
C986 C82 0.891 . S
C997 C23 1.866 . S
C999 C501 1.799 . S
C1010 C520 0.628 . S
C1008 C29 0.640 . S
C1021 C554 1.447 . S
C1019 C49 1.333 . S
C1030 C10 1.979 . S
C1032 C623 1.956 . S
C1043 C329 2.511 . S
C1041 C218 2.549 1_455 S
C1052 C226 1.584 . S
C1054 C381 1.554 . S
C1065 C394 1.496 . S
C1063 C251 1.451 . S
C1076 C463 1.467 . S
C1074 C159 1.469 . S
C1085 C211 2.075 . S
C1087 C503 2.082 . S
C1098 C529 1.961 . S
C1096 C225 1.952 . S
C1109 C581 0.481 . S
C1107 C252 0.429 . S
C1120 C594 2.339 . S
C1118 C166 2.342 . S
C1131 C324 2.387 . S
C1129 C147 2.421 1_545 S
C1140 C263 1.981 . S
C1142 C634 2.079 . S
C1153 C684 2.682 . S
C1151 C309 2.703 . S
C1164 C743 1.561 . S
C1162 C291 1.556 . S
C1173 C108 1.956 . S
C1175 C621 1.909 . S
C1184 C121 1.691 . S
C1186 C421 1.678 . S
C1195 C302 2.374 . S
C1197 C754 2.372 . S
C1208 C823 1.057 . S
C1206 C276 1.126 . S
C1219 C341 1.234 . S
C1217 C55 1.221 . S
C1230 C809 1.653 . S
C1228 C96 1.652 . S
C1239 C88 0.955 . S
C1241 C404 0.951 . S
C1250 C75 1.136 . S
C1252 C760 1.121 . S
C1263 C480 1.742 . S
C1261 C4 1.783 . S
C1272 C44 0.664 . S
C1274 C701 0.672 . S
C1285 C569 1.733 1_566 S
C1283 C31 1.697 . S
C1296 C844 1.882 . S
C1294 C18 1.889 . S
C1307 C314 2.536 . S
C1305 C133 2.583 . S
C1318 C800 1.305 . S
C1316 C296 1.321 . S
C1327 C107 1.576 . S
C1329 C409 1.575 . S
C1338 C264 1.704 . S
C1340 C764 1.713 . S
C1349 C140 2.194 . S
C1351 C484 2.234 . S
C1362 C674 1.967 . S
C1360 C289 2.005 . S
C1371 C114 0.667 . S
C1373 C560 0.675 . S
C1382 C265 2.459 . S
C1384 C849 2.449 . S
C1393 C179 2.673 . S
C1395 C343 2.631 1_655 S
C1404 C161 2.152 . S
C1406 C649 2.189 . S
C1415 C244 2.945 . S
C1417 C543 2.918 . S
C1426 C224 1.956 . S
C1428 C724 1.960 . S
C1439 C840 1.772 . S
C1437 C257 1.793 . S
C1448 C199 1.618 . S
C1450 C400 1.587 . S
C1461 C449 2.644 . S
C1459 C237 2.681 . S
C1472 C364 1.138 . S
C1470 C185 1.152 . S
C1481 C69 1.215 . S
C1483 C880 1.226 . S
C1494 C794 1.678 . S
C1492 C83 1.627 . S
C1503 C94 0.859 . S
C1505 C943 0.828 . S
C1514 C56 0.893 . S
C1516 C781 0.887 . S
C1525 C42 1.894 . S
C1527 C661 1.801 . S
C1538 C680 0.636 . S
C1536 C3 0.637 . S
C1549 C714 1.457 . S
C1547 C16 1.325 . S
C1560 C863 1.956 . S
C1558 C36 1.980 . S
C1571 C889 2.511 . S
C1569 C238 2.550 . S
C1580 C174 1.583 . S
C1582 C821 1.550 . S
C1593 C914 1.494 . S
C1591 C186 1.449 . S
C1604 C783 1.467 . S
C1602 C198 1.467 . S
C1615 C663 2.080 . S
C1613 C239 2.082 . S
C1624 C173 1.953 . S
C1626 C689 1.962 . S
C1637 C741 0.475 . S
C1635 C187 0.426 . S
C1646 C205 2.345 . S
C1648 C834 2.337 . S
C1659 C884 2.386 . S
C1657 C290 2.431 . S
C1668 C122 1.984 . S
C1670 C474 2.079 . S
C1681 C524 2.688 . S
C1679 C134 2.709 . S
C1692 C583 1.560 . S
C1690 C148 1.558 . S
C1703 C861 1.913 . S
C1701 C283 1.951 . S
C1712 C270 1.686 . S
C1714 C941 1.677 . S
C1725 C434 2.368 . S
C1723 C135 2.373 . S
C1736 C383 1.057 . S
C1734 C109 1.127 . S
C1745 C81 1.216 . S
C1747 C901 1.238 . S
C1758 C369 1.651 . S
C1756 C68 1.647 . S
C1767 C62 0.953 . S
C1769 C924 0.952 . S
C1778 C95 1.136 . S
C1780 C440 1.117 . S
C1789 C30 1.790 . S
C1791 C640 1.732 . S
C1802 C541 0.664 . S
C1800 C17 0.650 . S
C1811 C5 1.695 . S
C1813 C729 1.730 . S
C1822 C43 1.883 . S
C1824 C604 1.875 . S
C1835 C874 2.539 . S
C1833 C304 2.583 . S
C1844 C153 1.316 . S
C1846 C360 1.307 . S
C1857 C929 1.577 . S
C1855 C278 1.576 . S
C1866 C127 1.705 . S
C1868 C444 1.714 . S
C1877 C303 2.188 . S
C1879 C644 2.227 . S
C1890 C514 1.968 . S
C1888 C146 1.999 . S
C1899 C277 0.665 . S
C1901 C720 0.677 . S
C1912 C609 2.448 . S
C1910 C120 2.458 . S
C1923 C903 2.629 . S
C1921 C231 2.673 . S
C1934 C489 2.188 1_665 S
C1932 C200 2.150 . S
C1943 C212 2.949 . S
C1945 C703 2.922 . S
C1956 C564 1.960 . S
C1954 C172 1.954 . S
C1965 C192 1.787 . S
C1967 C600 1.777 . S
C1976 C160 1.620 . S
C1978 C920 1.586 1_554 S
C1989 C769 2.646 . S
C1987 C213 2.682 1_565 S
C2000 C804 1.138 . S
C1998 C250 1.153 . S
