# Generated by pormake.
# Topology zzz, (3,6)-cn, num edge types: 1
# Building blocks:
#     Node 0, Type 0, BuildingBlock: OLANEW_clean_sbu_2, # of connection points: 3
#     Node 1, Type 0, BuildingBlock: OLANEW_clean_sbu_2, # of connection points: 3
#     Node 2, Type 0, BuildingBlock: OLANEW_clean_sbu_2, # of connection points: 3
#     Node 3, Type 0, BuildingBlock: OLANEW_clean_sbu_2, # of connection points: 3
#     Node 4, Type 0, BuildingBlock: OLANEW_clean_sbu_2, # of connection points: 3
#     Node 5, Type 0, BuildingBlock: OLANEW_clean_sbu_2, # of connection points: 3
#     Node 6, Type 0, BuildingBlock: OLANEW_clean_sbu_2, # of connection points: 3
#     Node 7, Type 0, BuildingBlock: OLANEW_clean_sbu_2, # of connection points: 3
#     Node 8, Type 1, BuildingBlock: MIFKUJ_clean_sbu_0, # of connection points: 6
#     Node 9, Type 1, BuildingBlock: MIFKUJ_clean_sbu_0, # of connection points: 6
#     Node 10, Type 1, BuildingBlock: MIFKUJ_clean_sbu_0, # of connection points: 6
#     Node 11, Type 1, BuildingBlock: MIFKUJ_clean_sbu_0, # of connection points: 6
#     Edge 12, Type (0, 1), BuildingBlock: ZUJKAS_clean_linker_0, # of connection points: 2
#     Edge 13, Type (0, 1), BuildingBlock: ZUJKAS_clean_linker_0, # of connection points: 2
#     Edge 14, Type (0, 1), BuildingBlock: ZUJKAS_clean_linker_0, # of connection points: 2
#     Edge 15, Type (0, 1), BuildingBlock: ZUJKAS_clean_linker_0, # of connection points: 2
#     Edge 16, Type (0, 1), BuildingBlock: ZUJKAS_clean_linker_0, # of connection points: 2
#     Edge 17, Type (0, 1), BuildingBlock: ZUJKAS_clean_linker_0, # of connection points: 2
#     Edge 18, Type (0, 1), BuildingBlock: ZUJKAS_clean_linker_0, # of connection points: 2
#     Edge 19, Type (0, 1), BuildingBlock: ZUJKAS_clean_linker_0, # of connection points: 2
#     Edge 20, Type (0, 1), BuildingBlock: ZUJKAS_clean_linker_0, # of connection points: 2
#     Edge 21, Type (0, 1), BuildingBlock: ZUJKAS_clean_linker_0, # of connection points: 2
#     Edge 22, Type (0, 1), BuildingBlock: ZUJKAS_clean_linker_0, # of connection points: 2
#     Edge 23, Type (0, 1), BuildingBlock: ZUJKAS_clean_linker_0, # of connection points: 2
#     Edge 24, Type (0, 1), BuildingBlock: ZUJKAS_clean_linker_0, # of connection points: 2
#     Edge 25, Type (0, 1), BuildingBlock: ZUJKAS_clean_linker_0, # of connection points: 2
#     Edge 26, Type (0, 1), BuildingBlock: ZUJKAS_clean_linker_0, # of connection points: 2
#     Edge 27, Type (0, 1), BuildingBlock: ZUJKAS_clean_linker_0, # of connection points: 2
#     Edge 28, Type (0, 1), BuildingBlock: ZUJKAS_clean_linker_0, # of connection points: 2
#     Edge 29, Type (0, 1), BuildingBlock: ZUJKAS_clean_linker_0, # of connection points: 2
#     Edge 30, Type (0, 1), BuildingBlock: ZUJKAS_clean_linker_0, # of connection points: 2
#     Edge 31, Type (0, 1), BuildingBlock: ZUJKAS_clean_linker_0, # of connection points: 2
#     Edge 32, Type (0, 1), BuildingBlock: ZUJKAS_clean_linker_0, # of connection points: 2
#     Edge 33, Type (0, 1), BuildingBlock: ZUJKAS_clean_linker_0, # of connection points: 2
#     Edge 34, Type (0, 1), BuildingBlock: ZUJKAS_clean_linker_0, # of connection points: 2
#     Edge 35, Type (0, 1), BuildingBlock: ZUJKAS_clean_linker_0, # of connection points: 2
# Relax obj value: 0.118
# Max RMSD: 0.125
# Mean RMSD: 0.094
data_MOF--net-zzz--node1-OLANEW_clean_sbu_2--node2-MIFKUJ_clean_sbu_0--edge1-ZUJKAS_clean_linker_0
_symmetry_space_group_name_H-M    P1
_symmetry_Int_Tables_number       1
_symmetry_cell_setting            triclinic
loop_
_symmetry_equiv_pos_as_xyz
'x, y, z'
_cell_length_a     69.434869
_cell_length_b     70.711474
_cell_length_c     22.794743
_cell_angle_alpha  89.753432
_cell_angle_beta   89.795747
_cell_angle_gamma 89.934567
loop_
_atom_site_label
_atom_site_type_symbol
_atom_site_fract_x
_atom_site_fract_y
_atom_site_fract_z
_atom_type_partial_charge
O0 O 0.75735 0.59245 0.91572 0.0
Cd1 Cd 0.72798 0.60305 0.96456 0.0
O2 O 0.76659 0.58267 0.00244 0.0
Cd3 Cd 0.78585 0.56769 0.06254 0.0
O4 O 0.80871 0.55453 0.11389 0.0
C5 C 0.82479 0.56292 0.11915 0.0
O6 O 0.82722 0.57947 0.09382 0.0
C7 C 0.76993 0.58451 0.94777 0.0
C8 C 0.69596 0.58368 0.92304 0.0
O9 O 0.70047 0.59998 0.90233 0.0
O10 O 0.70655 0.5766 0.96348 0.0
O11 O -0.00372 0.75636 0.90915 0.0
Cd12 Cd -0.00928 0.72571 0.95526 0.0
O13 O 0.00388 0.76482 -0.00179 0.0
Cd14 Cd 0.00979 0.78618 0.06408 0.0
O15 O 0.01209 0.81197 0.11475 0.0
C16 C -0.0003 0.82493 0.10641 0.0
O17 O 0.98598 0.82223 0.0678 0.0
C18 C 0.00179 0.76909 0.94437 0.0
C19 C -0.00337 0.69537 0.88027 0.0
O20 O 0.97987 0.70273 0.88643 0.0
O21 O 0.01064 0.70257 0.90905 0.0
O22 O 0.7302 0.93293 0.93367 0.0
Cd23 Cd 0.75982 0.91784 0.96744 0.0
O24 O 0.72027 0.93253 0.02493 0.0
Cd25 Cd 0.69863 0.93583 0.09387 0.0
O26 O 0.67539 0.94127 0.15592 0.0
C27 C 0.65802 0.93879 0.14036 0.0
O28 O 0.65448 0.93265 0.08719 0.0
C29 C 0.71728 0.93675 0.97142 0.0
C30 C 0.79251 0.93275 0.91329 0.0
O31 O 0.78363 0.91859 0.89127 0.0
O32 O 0.78586 0.9399 0.96081 0.0
O33 O 0.44722 0.73494 -0.00814 0.0
Cd34 Cd 0.44225 0.76486 0.04307 0.0
O35 O 0.44326 0.722 0.07852 0.0
Cd36 Cd 0.44424 0.69755 0.13715 0.0
O37 O 0.44752 0.67091 0.18423 0.0
C38 C 0.46277 0.66117 0.17769 0.0
O39 O 0.47638 0.66746 0.14253 0.0
C40 C 0.44629 0.7202 0.02378 0.0
C41 C 0.44962 0.79699 0.97546 0.0
O42 O 0.46302 0.78908 0.00541 0.0
O43 O 0.43282 0.78949 0.97677 0.0
O44 O 0.23382 0.39886 0.33643 0.0
Cd45 Cd 0.2649 0.38452 0.31407 0.0
O46 O 0.22309 0.39283 0.248 0.0
Cd47 Cd 0.20142 0.39546 0.17907 0.0
O48 O 0.17771 0.40191 0.11973 0.0
C49 C 0.16738 0.41639 0.12984 0.0
O50 O 0.17137 0.42694 0.17551 0.0
C51 C 0.22036 0.39963 0.29893 0.0
C52 C 0.29356 0.40003 0.38427 0.0
O53 O 0.28952 0.40719 0.33404 0.0
O54 O 0.28411 0.38541 0.40114 0.0
O55 O 0.89837 0.22631 0.2716 0.0
Cd56 Cd 0.88502 0.25682 0.24243 0.0
O57 O 0.91979 0.22818 0.20075 0.0
Cd58 Cd 0.94481 0.21742 0.15256 0.0
O59 O 0.96266 0.19738 0.10417 0.0
C60 C 0.96274 0.19807 0.04849 0.0
O61 O 0.95293 0.21151 0.02207 0.0
C62 C 0.91243 0.21913 0.24366 0.0
C63 C 0.90062 0.2861 0.30829 0.0
O64 O 0.88538 0.27745 0.32544 0.0
O65 O 0.90844 0.28089 0.25995 0.0
O66 O 0.25653 0.01083 0.17663 0.0
Cd67 Cd 0.22806 0.01688 0.11723 0.0
O68 O 0.25726 0.04077 0.20173 0.0
Cd69 Cd 0.24407 0.04875 0.1187 0.0
O70 O 0.26334 0.05119 0.04313 0.0
C71 C 0.27947 0.05868 0.05541 0.0
O72 O 0.28203 0.06538 0.10851 0.0
C73 C 0.26303 0.02386 0.20928 0.0
C74 C 0.19673 0.01735 0.19411 0.0
O75 O 0.20146 0.00222 0.16684 0.0
O76 O 0.20646 0.03239 0.18364 0.0
O77 O 0.53616 0.26061 0.23938 0.0
Cd78 Cd 0.53698 0.23218 0.17914 0.0
O79 O 0.5047 0.25878 0.24876 0.0
Cd80 Cd 0.50229 0.24318 0.16697 0.0
O81 O 0.50014 0.26009 0.08697 0.0
C82 C 0.51493 0.26985 0.07403 0.0
O83 O 0.53074 0.26726 0.10454 0.0
C84 C 0.52064 0.26617 0.26358 0.0
C85 C 0.53156 0.20078 0.25194 0.0
O86 O 0.54849 0.20709 0.24084 0.0
O87 O 0.51723 0.20911 0.22769 0.0
Zn88 Zn -0.00922 0.0199 0.57147 0.0
Zn89 Zn 0.00715 -0.0117 0.64535 0.0
C90 C 0.9828 0.04636 0.65913 0.0
O91 O 0.96597 0.04449 0.6336 0.0
C92 C 0.01266 0.96298 0.55319 0.0
O93 O 0.02911 0.96185 0.58133 0.0
O94 O 0.97966 0.03765 0.51139 0.0
O95 O 0.01525 0.00953 0.53726 0.0
O96 O 0.02988 0.00461 0.62144 0.0
C97 C -0.00921 0.04874 0.48333 0.0
O98 O 0.00946 0.04757 0.49185 0.0
O99 O -0.00308 0.03661 0.64041 0.0
C100 C 0.00161 0.95661 0.71594 0.0
O101 O 0.98432 0.96005 0.69523 0.0
O102 O 0.01534 0.96763 0.70166 0.0
O103 O 0.98348 3e-05 0.68179 0.0
O104 O 0.96963 0.00204 0.59587 0.0
O105 O -0.00032 0.97402 0.57256 0.0
C106 C 0.03071 0.00821 0.56669 0.0
C107 C 0.96833 -0.00075 0.6508 0.0
Zn108 Zn 0.46723 0.00358 0.60966 0.0
Zn109 Zn 0.50466 0.00737 0.67755 0.0
C110 C 0.43892 0.00463 0.69781 0.0
O111 O 0.43626 -0.01228 0.6756 0.0
C112 C 0.52829 0.00396 0.57776 0.0
O113 O 0.53484 0.01963 0.60114 0.0
O114 O 0.4464 -0.00057 0.55045 0.0
O115 O 0.48473 0.02325 0.57436 0.0
O116 O 0.49661 0.03403 0.65705 0.0
C117 C 0.43662 0.01407 0.53775 0.0
O118 O 0.44162 0.03036 0.56064 0.0
O119 O 0.4527 0.01471 0.67826 0.0
C120 C 0.53496 -0.00859 0.73963 0.0
O121 O 0.52609 0.97664 0.71777 0.0
O122 O 0.52812 0.00779 0.72945 0.0
O123 O 0.48596 -0.01021 0.71783 0.0
O124 O 0.47741 0.97796 0.63322 0.0
O125 O 0.51436 -0.00456 0.60271 0.0
C126 C 0.49215 0.03666 0.60354 0.0
C127 C 0.48046 0.97574 0.6877 0.0
Zn128 Zn 0.49968 0.46831 0.65845 0.0
Zn129 Zn 0.48265 0.50217 0.72495 0.0
C130 C 0.51133 0.44295 0.74639 0.0
O131 O 0.52782 0.44677 0.7205 0.0
C132 C 0.4723 0.5225 0.62389 0.0
O133 O 0.45617 0.52256 0.65423 0.0
O134 O 0.50869 0.44971 0.5977 0.0
O135 O 0.47367 0.47688 0.63019 0.0
O136 O 0.46152 0.48271 0.71727 0.0
C137 C 0.49664 0.43645 0.58946 0.0
O138 O 0.48024 0.43679 0.61838 0.0
O139 O 0.49633 0.45179 0.72994 0.0
C140 C 0.48504 0.53816 0.77289 0.0
O141 O 0.50093 0.53683 0.7417 0.0
O142 O 0.47368 0.52405 0.77473 0.0
O143 O 0.50804 0.49436 0.75919 0.0
O144 O 0.52075 0.48726 0.67365 0.0
O145 O 0.48684 0.5139 0.64486 0.0
C146 C 0.45938 0.47679 0.66513 0.0
C147 C 0.52259 0.4936 0.7254 0.0
Zn148 Zn 0.00982 0.47657 0.59193 0.0
Zn149 Zn 0.97054 0.48187 0.65097 0.0
C150 C 0.03487 0.4781 0.68832 0.0
O151 O 0.04091 0.49246 0.65643 0.0
C152 C 0.94891 0.48259 0.5471 0.0
O153 O 0.94001 0.46936 0.57743 0.0
O154 O 0.03232 0.47373 0.53702 0.0
O155 O -0.00977 0.45752 0.56505 0.0
O156 O 0.9746 0.45374 0.64847 0.0
C157 C 0.03899 0.45703 0.5334 0.0
O158 O 0.0304 0.44341 0.56292 0.0
O159 O 0.0205 0.46861 0.67053 0.0
C160 C 0.94095 0.50512 0.6896 0.0
O161 O 0.95087 0.51616 0.6542 0.0
O162 O 0.94675 0.48825 0.69802 0.0
O163 O -0.00891 0.49858 0.68373 0.0
O164 O 0.0029 0.50428 0.59625 0.0
O165 O 0.96381 0.49025 0.5688 0.0
C166 C 0.97994 0.44735 0.59894 0.0
C167 C -0.00136 0.51004 0.64738 0.0
H168 H 0.18735 0.04516 0.27214 0.0
H169 H 0.16182 0.04463 0.34632 0.0
H170 H 0.14446 -0.01071 0.28781 0.0
H171 H 0.17032 -0.01054 0.21483 0.0
H172 H 0.12411 0.04305 0.33412 0.0
H173 H 0.14734 0.98046 0.4616 0.0
H174 H 0.16266 -0.00832 0.40764 0.0
H175 H 0.14458 0.97494 0.38541 0.0
C176 C 0.17814 0.03284 0.27522 0.0
C177 C 0.18089 0.01732 0.23774 0.0
C178 C 0.16358 0.03254 0.31775 0.0
C179 C 0.15148 0.01675 0.32357 0.0
C180 C 0.15399 0.00138 0.28546 0.0
H181 H 0.03647 0.01129 0.44905 0.0
H182 H 0.06677 0.01441 0.39638 0.0
C183 C 0.16866 0.00158 0.24332 0.0
C184 C 0.13555 0.01676 0.36721 0.0
H185 H 0.11437 -0.00974 0.47519 0.0
C186 C 0.12214 0.03162 0.36548 0.0
C187 C 0.13317 0.00209 0.40911 0.0
C188 C 0.14784 -0.01349 0.41655 0.0
C189 C 0.10594 0.03173 0.40238 0.0
C190 C 0.10278 0.01631 0.44098 0.0
C191 C 0.11667 0.00194 0.44497 0.0
C192 C 0.08451 0.01422 0.47424 0.0
C193 C 0.0923 0.04834 0.39928 0.0
C194 C 0.08441 0.01234 0.53564 0.0
C195 C 0.06697 0.01031 0.56622 0.0
C196 C 0.0494 0.01007 0.5357 0.0
C197 C 0.04968 0.01164 0.47415 0.0
C198 C 0.06702 0.01355 0.44384 0.0
H199 H 0.09979 0.06132 0.38382 0.0
H200 H 0.08068 0.04517 0.36751 0.0
H201 H 0.08562 0.05125 0.44264 0.0
H202 H 0.0978 0.01262 0.55988 0.0
H203 H 0.06724 0.00904 0.61357 0.0
H204 H 0.49749 0.1843 0.28398 0.0
H205 H 0.49267 0.15766 0.35113 0.0
H206 H 0.55396 0.15408 0.37901 0.0
H207 H 0.55897 0.18058 0.31125 0.0
H208 H 0.53738 0.11951 0.3565 0.0
H209 H 0.49659 0.15711 0.52992 0.0
H210 H 0.48644 0.1601 0.45816 0.0
H211 H 0.50999 0.16939 0.47342 0.0
C212 C 0.50996 0.17789 0.3045 0.0
C213 C 0.52862 0.18458 0.29233 0.0
C214 C 0.50715 0.16277 0.34325 0.0
C215 C 0.52293 0.15413 0.3709 0.0
C216 C 0.54158 0.16065 0.35848 0.0
H217 H 0.5111 0.06769 0.64732 0.0
H218 H 0.51996 0.09666 0.59389 0.0
C219 C 0.54441 0.17578 0.3197 0.0
C220 C 0.51998 0.13772 0.41062 0.0
H221 H 0.49582 0.12326 0.53366 0.0
C222 C 0.52846 0.12038 0.39556 0.0
C223 C 0.50858 0.13894 0.46206 0.0
C224 C 0.50003 0.15743 0.48228 0.0
C225 C 0.52519 0.10404 0.42924 0.0
C226 C 0.51291 0.10504 0.47876 0.0
C227 C 0.50508 0.12252 0.4953 0.0
C228 C 0.50725 0.08786 0.51191 0.0
C229 C 0.53482 0.0858 0.4113 0.0
C230 C 0.49682 0.07359 0.48381 0.0
C231 C 0.49173 0.05714 0.51401 0.0
C232 C 0.49689 0.05463 0.57318 0.0
C233 C 0.50695 0.06917 0.60177 0.0
C234 C 0.51203 0.0857 0.57136 0.0
H235 H 0.54772 0.08844 0.38346 0.0
H236 H 0.53923 0.07741 0.45031 0.0
H237 H 0.52454 0.07722 0.38549 0.0
H238 H 0.49264 0.07516 0.4383 0.0
H239 H 0.48385 0.04633 0.49068 0.0
H240 H 0.31638 0.43049 0.35943 0.0
H241 H 0.34233 0.44345 0.41919 0.0
H242 H 0.33099 0.40164 0.55312 0.0
H243 H 0.30513 0.38838 0.49331 0.0
H244 H 0.34197 0.45804 0.53512 0.0
H245 H 0.38844 0.39424 0.51357 0.0
H246 H 0.36775 0.39825 0.46748 0.0
H247 H 0.36458 0.39018 0.54169 0.0
C248 C 0.31937 0.42405 0.40163 0.0
C249 C 0.30881 0.40829 0.42138 0.0
C250 C 0.33415 0.43152 0.4358 0.0
C251 C 0.33869 0.42337 0.49022 0.0
C252 C 0.32788 0.40795 0.51082 0.0
H253 H 0.42518 0.47383 0.72609 0.0
H254 H 0.39462 0.46087 0.69007 0.0
C255 C 0.31309 0.40043 0.47663 0.0
C256 C 0.35518 0.43071 0.52418 0.0
H257 H 0.40057 0.4194 0.56946 0.0
C258 C 0.35473 0.44957 0.54322 0.0
C259 C 0.37182 0.41962 0.5342 0.0
C260 C 0.37335 0.39949 0.51286 0.0
C261 C 0.37069 0.45777 0.57099 0.0
C262 C 0.38739 0.44672 0.58031 0.0
C263 C 0.38765 0.42775 0.56255 0.0
C264 C 0.40544 0.45501 0.60287 0.0
C265 C 0.36991 0.47836 0.5879 0.0
C266 C 0.42158 0.45585 0.5659 0.0
C267 C 0.43893 0.46316 0.58618 0.0
C268 C 0.44058 0.46972 0.64412 0.0
C269 C 0.42435 0.46896 0.6812 0.0
C270 C 0.40689 0.46162 0.66068 0.0
H271 H 0.35705 0.48563 0.56962 0.0
H272 H 0.36938 0.47951 0.63641 0.0
H273 H 0.38304 0.48583 0.57236 0.0
H274 H 0.42074 0.45082 0.52115 0.0
H275 H 0.4511 0.46349 0.55635 0.0
H276 H 0.88767 0.3001 0.41304 0.0
H277 H 0.90083 0.32672 0.46842 0.0
H278 H 0.94533 0.33393 0.33787 0.0
H279 H 0.93226 0.30748 0.28201 0.0
H280 H 0.93903 0.3321 0.51439 0.0
H281 H 0.91914 0.38639 0.34861 0.0
H282 H 0.90892 0.36292 0.34913 0.0
H283 H 0.93266 0.36683 0.31981 0.0
C284 C 0.90027 0.30735 0.39611 0.0
C285 C 0.90884 0.30178 0.34287 0.0
C286 C 0.90777 0.32251 0.42788 0.0
C287 C 0.92387 0.33241 0.40675 0.0
C288 C 0.9327 0.32664 0.35435 0.0
H289 H -0.00819 0.42829 0.50191 0.0
H290 H 0.97808 0.39961 0.4605 0.0
C291 C 0.92524 0.31149 0.32262 0.0
C292 C 0.93138 0.34891 0.43904 0.0
H293 H 0.93978 0.39624 0.42538 0.0
C294 C 0.93909 0.34617 0.49528 0.0
C295 C 0.93131 0.36722 0.41392 0.0
C296 C 0.92241 0.37113 0.35477 0.0
C297 C 0.94742 0.36121 0.52627 0.0
C298 C 0.94771 0.37943 0.50053 0.0
C299 C 0.93961 0.38221 0.44483 0.0
C300 C 0.9569 0.39581 0.52934 0.0
C301 C 0.95637 0.35739 0.58534 0.0
C302 C 0.94965 0.40308 0.58224 0.0
C303 C 0.95753 0.41952 0.60628 0.0
C304 C 0.97264 0.42902 0.57739 0.0
C305 C 0.98012 0.42139 0.52515 0.0
C306 C 0.9723 0.40499 0.50138 0.0
H307 H 0.95867 0.34203 0.59314 0.0
H308 H 0.97041 0.36479 0.58929 0.0
H309 H 0.94668 0.36279 0.62027 0.0
H310 H 0.93754 0.39637 0.60396 0.0
H311 H 0.95138 0.42511 0.64637 0.0
H312 H 0.81071 0.91995 0.81452 0.0
H313 H 0.8402 0.93226 0.76954 0.0
H314 H 0.84361 0.97512 0.90305 0.0
H315 H 0.81403 0.96302 0.94819 0.0
H316 H 0.84989 -0.0114 0.7864 0.0
H317 H 0.89472 0.92569 0.83937 0.0
H318 H 0.8727 0.92064 0.80139 0.0
H319 H 0.87179 0.93016 0.87429 0.0
C320 C 0.81771 0.93201 0.83433 0.0
C321 C 0.81008 0.94045 0.88514 0.0
C322 C 0.8346 0.93896 0.8087 0.0
C323 C 0.84419 0.95442 0.83349 0.0
C324 C 0.83644 0.96312 0.88347 0.0
H325 H 0.96131 -0.00944 0.7658 0.0
H326 H 0.93082 0.98068 0.81009 0.0
C327 C 0.81956 0.95616 0.90922 0.0
C328 C 0.86235 0.96152 0.80737 0.0
H329 H 0.90886 0.94899 0.77794 0.0
C330 C 0.86281 0.97998 0.78456 0.0
C331 C 0.8792 0.95028 0.80576 0.0
C332 C 0.87973 0.93064 0.83193 0.0
C333 C 0.87966 -0.01258 0.7593 0.0
C334 C 0.89637 0.976 0.75637 0.0
C335 C 0.89597 0.95764 0.77992 0.0
C336 C 0.91453 0.98287 0.72963 0.0
C337 C 0.87955 0.00752 0.7368 0.0
C338 C 0.91544 -0.01266 0.66966 0.0
C339 C 0.93286 -0.00701 0.64413 0.0
C340 C 0.94967 -0.00582 0.67815 0.0
C341 C 0.94863 -0.01016 0.73836 0.0
C342 C 0.93123 0.98416 0.76376 0.0
H343 H 0.86724 0.01573 0.75477 0.0
H344 H 0.89316 0.01486 0.74824 0.0
H345 H 0.87829 0.00741 0.68829 0.0
H346 H 0.90277 -0.01388 0.64238 0.0
H347 H 0.93319 -0.00383 0.59762 0.0
H348 H 0.48347 0.81653 0.96556 0.0
H349 H 0.48893 0.84662 0.91477 0.0
H350 H 0.42971 0.84733 0.85854 0.0
H351 H 0.42403 0.81736 0.90964 0.0
H352 H 0.48397 0.85658 0.79553 0.0
H353 H 0.43641 0.89836 0.94256 0.0
H354 H 0.44462 0.87484 0.96092 0.0
H355 H 0.42513 0.8781 0.91017 0.0
C356 C 0.47161 0.82305 0.94225 0.0
C357 C 0.45327 0.81462 0.942 0.0
C358 C 0.47477 0.84023 0.91323 0.0
C359 C 0.45965 0.84932 0.88373 0.0
C360 C 0.44147 0.8407 0.88201 0.0
H361 H 0.46734 0.94317 0.63723 0.0
H362 H 0.4627 0.91234 0.68424 0.0
C363 C 0.43829 0.82353 0.91099 0.0
C364 C 0.46286 0.86791 0.85522 0.0
H365 H 0.44871 0.91414 0.85849 0.0
C366 C 0.4763 0.86919 0.80925 0.0
C367 C 0.453 0.88435 0.87387 0.0
C368 C 0.43911 0.88397 0.92493 0.0
C369 C 0.47993 0.88647 0.78075 0.0
C370 C 0.46965 0.90279 0.79829 0.0
C371 C 0.45643 0.90155 0.84483 0.0
C372 C 0.47259 0.92139 0.76954 0.0
C373 C 0.49496 0.88719 0.73283 0.0
C374 C 0.47928 0.93678 0.80227 0.0
C375 C 0.48184 0.95444 0.77568 0.0
C376 C 0.47765 0.95705 0.71586 0.0
C377 C 0.47081 0.94162 0.68329 0.0
C378 C 0.46824 0.92396 0.70997 0.0
H379 H 0.50478 0.87478 0.73465 0.0
H380 H 0.48771 0.88716 0.68953 0.0
H381 H 0.50369 0.9003 0.73587 0.0
H382 H 0.48263 0.93509 0.84839 0.0
H383 H 0.48714 0.96602 0.80202 0.0
H384 H 0.66566 0.59805 0.86129 0.0
H385 H 0.63703 0.58121 0.82776 0.0
H386 H 0.6597 0.52913 0.8989 0.0
H387 H 0.68795 0.54607 0.93485 0.0
H388 H 0.6322 0.55352 0.75271 0.0
H389 H 0.60736 0.52908 0.9715 0.0
H390 H 0.62653 0.54602 0.96254 0.0
H391 H 0.63124 0.52112 0.95435 0.0
C392 C 0.66449 0.58302 0.86999 0.0
C393 C 0.67893 0.57341 0.90121 0.0
C394 C 0.64814 0.57341 0.85074 0.0
C395 C 0.64601 0.55396 0.86181 0.0
C396 C 0.66072 0.54423 0.89142 0.0
H397 H 0.55842 0.4872 0.67889 0.0
H398 H 0.58906 0.50066 0.7114 0.0
C399 C 0.67692 0.5539 0.9116 0.0
C400 C 0.62845 0.54395 0.84185 0.0
H401 H 0.59109 0.51645 0.8892 0.0
C402 C 0.62318 0.54545 0.78258 0.0
C403 C 0.61655 0.53361 0.88099 0.0
C404 C 0.62058 0.5325 0.94597 0.0
C405 C 0.60631 0.537 0.7614 0.0
C406 C 0.59473 0.52617 0.80018 0.0
C407 C 0.60007 0.52458 0.85936 0.0
C408 C 0.57643 0.51727 0.78132 0.0
C409 C 0.60075 0.54037 0.69824 0.0
C410 C 0.55927 0.52147 0.81131 0.0
C411 C 0.54188 0.51346 0.79379 0.0
C412 C 0.54124 0.50121 0.74543 0.0
C413 C 0.55845 0.49677 0.71588 0.0
C414 C 0.57594 0.50456 0.73414 0.0
H415 H 0.60798 0.55309 0.67974 0.0
H416 H 0.60523 0.52802 0.67158 0.0
H417 H 0.58494 0.54221 0.69373 0.0
H418 H 0.55928 0.53119 0.84794 0.0
H419 H 0.52887 0.51719 0.81745 0.0
H420 H 0.03076 0.67885 0.84923 0.0
H421 H 0.03538 0.64945 0.79481 0.0
H422 H 0.97384 0.644 0.77569 0.0
H423 H 0.96914 0.6736 0.82844 0.0
H424 H 0.02366 0.61559 0.8286 0.0
H425 H -0.00863 0.63119 0.6127 0.0
H426 H -0.00289 0.64954 0.66459 0.0
H427 H 0.97487 0.63657 0.67094 0.0
C428 C 0.01823 0.67155 0.83253 0.0
C429 C -0.00042 0.67853 0.84316 0.0
C430 C 0.0209 0.65477 0.8014 0.0
C431 C 0.00499 0.64466 0.78038 0.0
C432 C 0.98637 0.65181 0.78999 0.0
H433 H 0.98746 0.52702 0.74888 0.0
H434 H -0.00834 0.55995 0.77678 0.0
C435 C 0.9837 0.66866 0.82064 0.0
C436 C 0.00763 0.62572 0.75393 0.0
H437 H -0.00654 0.59806 0.63963 0.0
C438 C 0.01735 0.61186 0.78675 0.0
C439 C -0.0003 0.62088 0.6989 0.0
C440 C -0.00963 0.63541 0.65951 0.0
C441 C 0.01839 0.59308 0.76765 0.0
C442 C 0.00907 0.58794 0.71504 0.0
C443 C 0.00034 0.60198 0.68044 0.0
C444 C 0.00698 0.56792 0.69762 0.0
C445 C 0.02923 0.57887 0.80452 0.0
C446 C 0.01373 0.56159 0.64301 0.0
C447 C 0.0112 0.54271 0.62657 0.0
C448 C 0.0018 0.52993 0.66446 0.0
C449 C -0.00503 0.53642 0.71892 0.0
C450 C -0.00256 0.55523 0.73513 0.0
H451 H 0.04056 0.58583 0.83108 0.0
H452 H 0.01905 0.57188 0.83532 0.0
H453 H 0.03607 0.56783 0.77689 0.0
H454 H 0.02098 0.57123 0.61325 0.0
H455 H 0.01656 0.53814 0.58424 0.0
H456 H 0.91572 0.20573 0.35498 0.0
H457 H 0.92957 0.17554 0.38676 0.0
H458 H 0.94061 0.1607 0.20635 0.0
H459 H 0.92582 0.19043 0.17432 0.0
H460 H 0.92565 0.13125 0.26933 0.0
H461 H 0.98672 0.16313 0.38923 0.0
H462 H 0.96379 0.17194 0.41336 0.0
H463 H 0.9718 0.17657 0.33951 0.0
C464 C 0.9211 0.19601 0.32217 0.0
C465 C 0.92038 0.20071 0.26231 0.0
C466 C 0.92915 0.17886 0.34035 0.0
C467 C 0.93664 0.16614 0.29899 0.0
C468 C 0.93526 0.17049 0.23903 0.0
H469 H 0.01035 0.07296 0.41101 0.0
H470 H -0.00255 0.10031 0.35813 0.0
C471 C 0.92711 0.1876 0.22083 0.0
C472 C 0.94564 0.14819 0.31843 0.0
H473 H 0.98072 0.13039 0.40734 0.0
C474 C 0.9378 0.13103 0.29911 0.0
C475 C 0.96174 0.14795 0.3563 0.0
C476 C 0.97164 0.16588 0.37534 0.0
C477 C 0.9452 0.1136 0.31841 0.0
C478 C 0.96056 0.11339 0.35901 0.0
C479 C 0.96882 0.13055 0.37665 0.0
C480 C 0.96795 0.09565 0.38554 0.0
C481 C 0.93655 0.09562 0.29486 0.0
C482 C 0.95562 0.08383 0.418 0.0
C483 C 0.96292 0.06812 0.44789 0.0
C484 C 0.98276 0.06409 0.44658 0.0
C485 C -0.00499 0.0757 0.41298 0.0
C486 C 0.98767 0.09133 0.38275 0.0
H487 H 0.92966 0.09801 0.25152 0.0
H488 H 0.94759 0.08435 0.29023 0.0
H489 H 0.92525 0.09054 0.32565 0.0
H490 H 0.94044 0.08714 0.42201 0.0
H491 H 0.95312 0.05954 0.47374 0.0
H492 H 0.28073 -0.01007 0.23102 0.0
H493 H 0.30871 0.98418 0.29365 0.0
H494 H 0.30863 0.04283 0.34488 0.0
H495 H 0.28061 0.04867 0.28322 0.0
H496 H 0.34404 0.0017 0.27913 0.0
H497 H 0.31508 0.0156 0.50138 0.0
H498 H 0.29973 0.01125 0.43908 0.0
H499 H 0.30986 0.03436 0.4506 0.0
C500 C 0.28644 0.00153 0.25647 0.0
C501 C 0.27845 0.01977 0.25209 0.0
C502 C 0.30244 -0.00179 0.29213 0.0
C503 C 0.31058 0.01302 0.32435 0.0
C504 C 0.30231 0.03111 0.32133 0.0
H505 H 0.41225 0.04263 0.5071 0.0
H506 H 0.38177 0.04017 0.45477 0.0
C507 C 0.28635 0.03444 0.28575 0.0
C508 C 0.32871 0.01012 0.35707 0.0
H509 H 0.34951 0.01693 0.49064 0.0
C510 C 0.34522 0.00469 0.32561 0.0
C511 C 0.33013 0.01404 0.41765 0.0
C512 C 0.31271 0.01895 0.45429 0.0
C513 C 0.36334 0.00403 0.35255 0.0
C514 C 0.36486 0.00873 0.41252 0.0
C515 C 0.34825 0.01346 0.44449 0.0
C516 C 0.38369 0.00993 0.44219 0.0
C517 C 0.38085 -0.00082 0.31617 0.0
C518 C 0.39487 -0.00629 0.45204 0.0
C519 C 0.41237 -0.00495 0.48193 0.0
C520 C 0.41887 0.01264 0.50251 0.0
C521 C 0.40769 0.02887 0.49178 0.0
C522 C 0.39024 0.0275 0.46206 0.0
H523 H 0.37763 -0.00098 0.26846 0.0
H524 H 0.39261 0.00947 0.32423 0.0
H525 H 0.38615 -0.01505 0.32898 0.0
H526 H 0.38991 0.97999 0.43755 0.0
H527 H 0.42061 0.98228 0.48979 0.0
H528 H 0.55133 0.28832 0.29409 0.0
H529 H 0.55047 0.31787 0.34949 0.0
H530 H 0.48951 0.31076 0.37868 0.0
H531 H 0.49014 0.28137 0.32296 0.0
H532 H 0.50015 0.34601 0.32915 0.0
H533 H 0.54384 0.32854 0.52637 0.0
H534 H 0.55459 0.3231 0.45656 0.0
H535 H 0.53346 0.31056 0.4802 0.0
C536 C 0.5378 0.29285 0.31322 0.0
C537 C 0.52078 0.28251 0.30392 0.0
C538 C 0.53736 0.30972 0.34499 0.0
C539 C 0.51995 0.31642 0.36833 0.0
C540 C 0.50309 0.30579 0.36096 0.0
H541 H 0.4721 0.40893 0.55406 0.0
H542 H 0.47954 0.38099 0.496 0.0
C543 C 0.5035 0.28897 0.32921 0.0
C544 C 0.51885 0.33517 0.39661 0.0
H545 H 0.5328 0.36001 0.51725 0.0
C546 C 0.50735 0.3491 0.37017 0.0
C547 C 0.52846 0.33919 0.44968 0.0
C548 C 0.54069 0.32456 0.4803 0.0
C549 C 0.50484 0.36687 0.39607 0.0
C550 C 0.51387 0.37067 0.45018 0.0
C551 C 0.52593 0.357 0.47567 0.0
C552 C 0.50957 0.38807 0.48339 0.0
C553 C 0.49242 0.38139 0.36558 0.0
C554 C 0.5241 0.40121 0.496 0.0
C555 C 0.51988 0.4173 0.5293 0.0
C556 C 0.50114 0.42028 0.55101 0.0
C557 C 0.48667 0.40708 0.53794 0.0
C558 C 0.49086 0.39114 0.50453 0.0
H559 H 0.49113 0.37843 0.31792 0.0
H560 H 0.47773 0.38104 0.38495 0.0
H561 H 0.49831 0.39585 0.37127 0.0
H562 H 0.53866 0.39898 0.48026 0.0
H563 H 0.53135 0.42717 0.53899 0.0
H564 H 0.18419 0.38836 0.26802 0.0
H565 H 0.15354 0.4022 0.2989 0.0
H566 H 0.184 0.44392 0.40013 0.0
H567 H 0.21477 0.43018 0.36883 0.0
H568 H 0.1564 0.42512 0.46322 0.0
H569 H 0.12538 0.45091 0.25347 0.0
H570 H 0.13427 0.42707 0.25069 0.0
H571 H 0.15077 0.44623 0.26276 0.0
C572 C 0.18437 0.40087 0.29516 0.0
C573 C 0.20184 0.40851 0.31484 0.0
C574 C 0.16684 0.40874 0.31296 0.0
C575 C 0.1665 0.42436 0.35072 0.0
C576 C 0.18396 0.43202 0.37036 0.0
H577 H 0.06218 0.48215 0.47422 0.0
H578 H 0.09335 0.47551 0.42754 0.0
C579 C 0.20148 0.42413 0.35266 0.0
C580 C 0.14799 0.43144 0.37439 0.0
H581 H 0.10377 0.44837 0.33492 0.0
C582 C 0.14497 0.4304 0.43521 0.0
C583 C 0.13318 0.4385 0.33781 0.0
C584 C 0.13605 0.44094 0.2726 0.0
C585 C 0.1273 0.43558 0.46027 0.0
C586 C 0.11217 0.44168 0.42342 0.0
C587 C 0.11537 0.44344 0.36285 0.0
C588 C 0.09277 0.44557 0.44728 0.0
C589 C 0.1249 0.43435 0.52602 0.0
C590 C 0.082 0.43083 0.47229 0.0
C591 C 0.06428 0.43453 0.49883 0.0
C592 C 0.05697 0.45307 0.50073 0.0
C593 C 0.06746 0.46773 0.47364 0.0
C594 C 0.08524 0.46398 0.44695 0.0
H595 H 0.13902 0.43405 0.54881 0.0
H596 H 0.11636 0.44648 0.54279 0.0
H597 H 0.11709 0.42114 0.53736 0.0
H598 H 0.08749 0.41648 0.47214 0.0
H599 H 0.05652 0.42289 0.51886 0.0
H600 H 0.02883 0.79449 0.98085 0.0
H601 H 0.03227 0.82756 0.95032 0.0
H602 H 0.9857 0.82063 0.82762 0.0
H603 H 0.98187 0.78764 0.85912 0.0
H604 H 0.01978 0.83881 0.78192 0.0
H605 H -0.006 0.87116 0.99046 0.0
H606 H 0.01222 0.85314 -0.00403 0.0
H607 H -0.01142 0.84704 0.97089 0.0
C608 C 0.01902 0.80015 0.94842 0.0
C609 C 0.00466 0.7887 0.92372 0.0
C610 C 0.02112 0.81898 0.93069 0.0
C611 C 0.00899 0.8266 0.88759 0.0
C612 C -0.00491 0.81502 0.86135 0.0
H613 H 0.97458 0.93469 0.76909 0.0
H614 H 0.97914 0.90395 0.81596 0.0
C615 C -0.00705 0.7962 0.87923 0.0
C616 C 0.01087 0.84658 0.86904 0.0
H617 H 0.00307 0.89194 0.91427 0.0
C618 C 0.01634 0.85046 0.81094 0.0
C619 C 0.0063 0.86168 0.90717 0.0
C620 C -0.00018 0.85818 0.96955 0.0
C621 C 0.01694 0.86907 0.78942 0.0
C622 C 0.01209 0.88415 0.82724 0.0
C623 C 0.00701 0.88031 0.88573 0.0
C624 C 0.01008 0.90371 0.80484 0.0
C625 C 0.02192 0.87242 0.72571 0.0
C626 C 0.02608 0.91399 0.78455 0.0
C627 C 0.02354 0.93168 0.75774 0.0
C628 C 0.00493 0.93922 0.75066 0.0
C629 C -0.01092 0.9292 0.77342 0.0
C630 C -0.00835 0.91166 0.80043 0.0
H631 H 0.02266 0.85904 0.70044 0.0
H632 H 0.0111 0.88187 0.70495 0.0
H633 H 0.03614 0.87951 0.72263 0.0
H634 H 0.04044 0.90812 0.78811 0.0
H635 H 0.03601 0.93909 0.74065 0.0
H636 H 0.69481 0.96241 0.03009 0.0
H637 H 0.6637 0.97535 -0.00069 0.0
H638 H 0.66758 0.944 0.83779 0.0
H639 H 0.69858 0.93086 0.86867 0.0
H640 H 0.65629 0.98145 0.82193 0.0
H641 H 0.61261 0.94643 -0.00364 0.0
H642 H 0.63262 0.96031 0.02112 0.0
H643 H 0.63691 0.93923 0.97925 0.0
C644 C 0.68881 0.95793 0.98867 0.0
C645 C 0.69881 0.94516 0.95257 0.0
C646 C 0.67112 0.96546 0.97093 0.0
C647 C 0.66316 0.96034 0.91677 0.0
C648 C 0.67342 0.94804 0.87993 0.0
H649 H 0.55131 0.9581 0.77266 0.0
H650 H 0.58229 0.95317 0.82014 0.0
C651 C 0.6911 0.94055 0.89759 0.0
C652 C 0.64416 0.96772 0.89797 0.0
H653 H 0.59607 0.96576 0.92918 0.0
C654 C 0.64312 0.97819 0.84561 0.0
C655 C 0.62703 0.96337 0.92895 0.0
C656 C 0.6272 0.95161 0.98433 0.0
C657 C 0.62534 0.98398 0.82246 0.0
C658 C 0.6082 0.97938 0.85301 0.0
C659 C 0.60928 0.96938 0.90622 0.0
C660 C 0.58897 0.98293 0.82733 0.0
C661 C 0.62497 -0.00583 0.76416 0.0
C662 C 0.58229 0.00137 0.81656 0.0
C663 C 0.56449 0.00428 0.78916 0.0
C664 C 0.55315 -0.01124 0.77226 0.0
C665 C 0.55971 0.97037 0.78476 0.0
C666 C 0.57741 0.9675 0.81208 0.0
H667 H 0.63917 -0.00625 0.7416 0.0
H668 H 0.614 -0.01215 0.73485 0.0
H669 H 0.62103 0.0092 0.77127 0.0
H670 H 0.5909 0.01348 0.82883 0.0
H671 H 0.55979 0.01861 0.7803 0.0
H672 H 0.42689 0.6878 0.05024 0.0
H673 H 0.43252 0.65616 0.0108 0.0
H674 H 0.47719 0.67838 0.89809 0.0
H675 H 0.47157 0.71015 0.93764 0.0
H676 H 0.45261 0.65464 0.84065 0.0
H677 H 0.47702 0.6209 0.04811 0.0
H678 H 0.45416 0.63266 0.05343 0.0
H679 H 0.47555 0.64621 0.0388 0.0
C680 C 0.43817 0.68585 0.01791 0.0
C681 C 0.44919 0.70128 -0.00185 0.0
C682 C 0.44134 0.66779 -0.00467 0.0
C683 C 0.45563 0.66482 0.95267 0.0
C684 C 0.46625 0.68033 0.93151 0.0
H685 H 0.5052 0.57111 0.76788 0.0
H686 H 0.49698 0.60134 0.81262 0.0
C687 C 0.46301 0.69844 0.95395 0.0
C688 C 0.45911 0.64564 0.92878 0.0
H689 H 0.47223 0.60063 0.96683 0.0
C690 C 0.45693 0.64285 0.86824 0.0
C691 C 0.46469 0.63025 0.96495 0.0
C692 C 0.46817 0.63261 0.02985 0.0
C693 C 0.46015 0.62509 0.84287 0.0
C694 C 0.46581 0.60978 0.87893 0.0
C695 C 0.46775 0.61243 0.93953 0.0
C696 C 0.47083 0.59119 0.85369 0.0
C697 C 0.4575 0.62277 0.77763 0.0
C698 C 0.45899 0.57539 0.86302 0.0
C699 C 0.4636 0.558 0.83725 0.0
C700 C 0.48024 0.55618 0.80233 0.0
C701 C 0.49225 0.572 0.79435 0.0
C702 C 0.48757 0.58933 0.81973 0.0
H703 H 0.44933 0.63474 0.75807 0.0
H704 H 0.47184 0.62212 0.75605 0.0
H705 H 0.44982 0.60937 0.76796 0.0
H706 H 0.44604 0.5766 0.8894 0.0
H707 H 0.4541 0.54607 0.84434 0.0
H708 H 0.80593 0.58348 -0.00458 0.0
H709 H 0.8348 0.56872 0.95458 0.0
H710 H 0.8037 0.55577 0.79619 0.0
H711 H 0.77435 0.56925 0.83909 0.0
H712 H 0.82489 0.5261 0.8313 0.0
H713 H 0.87002 0.59066 0.83298 0.0
H714 H 0.86093 0.58466 0.90438 0.0
H715 H 0.84445 0.5913 0.84702 0.0
C716 C 0.80511 0.57698 0.95269 0.0
C717 C 0.78776 0.5769 0.92132 0.0
C718 C 0.82175 0.56896 0.92872 0.0
C719 C 0.82148 0.56129 0.87205 0.0
C720 C 0.80423 0.56158 0.84006 0.0
H721 H 0.92112 0.53683 0.6598 0.0
H722 H 0.89191 0.54928 0.70472 0.0
C723 C 0.78752 0.56938 0.86441 0.0
C724 C 0.83908 0.5527 0.84639 0.0
H725 H 0.88609 0.56172 0.8125 0.0
C726 C 0.83827 0.5339 0.82694 0.0
C727 C 0.85646 0.56296 0.84021 0.0
C728 C 0.85801 0.58356 0.8567 0.0
C729 C 0.85436 0.52505 0.80156 0.0
C730 C 0.8719 0.53514 0.79704 0.0
C731 C 0.8727 0.55393 0.81653 0.0
C732 C 0.88938 0.52692 0.76942 0.0
C733 C 0.85223 0.50522 0.77831 0.0
C734 C 0.89775 0.51016 0.79085 0.0
C735 C 0.91441 0.50282 0.76461 0.0
C736 C 0.92315 0.51235 0.71728 0.0
C737 C 0.9148 0.52918 0.69636 0.0
C738 C 0.89808 0.53634 0.72201 0.0
H739 H 0.83689 0.50156 0.77055 0.0
H740 H 0.86032 0.50341 0.73662 0.0
H741 H 0.85803 0.49504 0.81097 0.0
H742 H 0.89155 0.50288 0.82829 0.0
H743 H 0.92061 0.4899 0.78193 0.0
H744 H 0.98228 0.16702 0.0894 0.0
H745 H -0.00628 0.13995 0.03244 0.0
H746 H 0.97439 0.16702 0.87323 0.0
H747 H 0.9633 0.19419 0.92942 0.0
H748 H 0.97098 0.11719 0.97028 0.0
H749 H 0.02607 0.14706 0.82162 0.0
H750 H 0.01764 0.15945 0.88594 0.0
H751 H 0.0043 0.16066 0.81834 0.0
C752 C 0.98083 0.16738 0.04211 0.0
C753 C 0.9718 0.18274 0.01395 0.0
C754 C 0.98739 0.1519 0.00965 0.0
C755 C 0.98516 0.15156 0.94848 0.0
C756 C 0.97673 0.16716 0.92017 0.0
H757 H 0.95473 0.06713 0.71183 0.0
H758 H 0.95831 0.09069 0.78853 0.0
C759 C 0.97023 0.18264 0.9525 0.0
C760 C -0.01059 0.13413 0.91482 0.0
H761 H 0.00991 0.11865 0.78742 0.0
C762 C 0.97984 0.11741 0.93101 0.0
C763 C 0.00124 0.13425 0.86414 0.0
C764 C 0.01306 0.15129 0.8469 0.0
C765 C 0.98064 0.10127 0.89556 0.0
C766 C -0.00903 0.10201 0.84205 0.0
C767 C 0.00173 0.11821 0.82805 0.0
C768 C -0.0109 0.08697 0.79744 0.0
C769 C 0.96994 0.08376 0.91493 0.0
C770 C 0.00532 0.07729 0.77609 0.0
C771 C 0.00334 0.06378 0.73176 0.0
C772 C 0.98512 0.05995 0.70772 0.0
C773 C 0.96896 0.06968 0.72943 0.0
C774 C 0.97095 0.08308 0.77365 0.0
H775 H 0.96844 0.08318 0.96345 0.0
H776 H 0.95524 0.08399 0.89599 0.0
H777 H 0.97735 0.07072 0.89986 0.0
H778 H 0.01949 0.08024 0.79357 0.0
H779 H 0.01607 0.05656 0.71578 0.0
H780 H 0.31562 0.07275 0.07109 0.0
H781 H 0.34396 0.06767 0.00943 0.0
H782 H 0.30936 0.0368 0.88578 0.0
H783 H 0.28082 0.04193 0.94707 0.0
H784 H 0.35839 0.03198 0.98333 0.0
H785 H 0.34154 0.07203 0.78002 0.0
H786 H 0.32907 0.07604 0.84856 0.0
H787 H 0.32276 0.05622 0.80344 0.0
C788 C 0.31393 0.06516 0.03028 0.0
C789 C 0.29595 0.05768 0.0141 0.0
C790 C 0.33016 0.06226 -0.00487 0.0
C791 C 0.32875 0.05198 0.94289 0.0
C792 C 0.31071 0.04506 0.92546 0.0
H793 H 0.4112 -0.01475 0.75749 0.0
H794 H 0.38584 -0.00188 0.82013 0.0
C795 C 0.29442 0.04794 0.96066 0.0
C796 C 0.3464 0.04703 0.9096 0.0
H797 H 0.36766 0.05004 0.77459 0.0
C798 C 0.36051 0.03609 0.93786 0.0
C799 C 0.34922 0.05257 0.85052 0.0
C800 C 0.33494 0.06501 0.81889 0.0
C801 C 0.37706 0.02998 0.90797 0.0
C802 C 0.37945 0.03479 0.84817 0.0
C803 C 0.36571 0.04629 0.82042 0.0
C804 C 0.39555 0.0271 0.81285 0.0
C805 C 0.3918 0.01828 0.94044 0.0
C806 C 0.40941 0.03916 0.78795 0.0
C807 C 0.42403 0.03182 0.75221 0.0
C808 C 0.42481 0.01233 0.7402 0.0
C809 C 0.41103 0.00031 0.76594 0.0
C810 C 0.39655 0.00763 0.8019 0.0
H811 H 0.39041 0.01993 0.98872 0.0
H812 H 0.38965 0.00313 0.92985 0.0
H813 H 0.40664 0.02226 0.927 0.0
H814 H 0.4088 0.05425 0.79577 0.0
H815 H 0.43436 0.04145 0.73268 0.0
H816 H 0.54409 0.29238 0.0345 0.0
H817 H 0.5413 0.32184 0.9789 0.0
H818 H 0.47988 0.31401 0.96656 0.0
H819 H 0.48254 0.28427 0.02154 0.0
H820 H 0.49688 0.32747 0.86242 0.0
H821 H 0.51955 0.36985 0.05422 0.0
H822 H 0.53642 0.35162 0.03498 0.0
H823 H 0.5127 0.3453 0.0603 0.0
C824 C 0.53 0.29678 0.0194 0.0
C825 C 0.51351 0.28608 0.03302 0.0
C826 C 0.52842 0.31369 0.98799 0.0
C827 C 0.51033 0.32034 0.97005 0.0
C828 C 0.49395 0.3092 0.98062 0.0
H829 H 0.47867 0.42545 0.78725 0.0
H830 H 0.47682 0.39605 0.84439 0.0
C831 C 0.49552 0.2922 0.01189 0.0
C832 C 0.50853 0.33916 0.94174 0.0
H833 H 0.51833 0.38599 0.96225 0.0
C834 C 0.50136 0.3403 0.88436 0.0
C835 C 0.51425 0.35588 0.97079 0.0
C836 C 0.52098 0.35569 0.03368 0.0
C837 C 0.50055 0.35767 0.8543 0.0
C838 C 0.50685 0.37428 0.88277 0.0
C839 C 0.51356 0.3732 0.94061 0.0
C840 C 0.50768 0.39273 0.85201 0.0
C841 C 0.49361 0.35807 0.79165 0.0
C842 C 0.52562 0.40088 0.83935 0.0
C843 C 0.52674 0.41764 0.80695 0.0
C844 C 0.50991 0.42664 0.78701 0.0
C845 C 0.4919 0.41887 0.80202 0.0
C846 C 0.4908 0.40201 0.83422 0.0
H847 H 0.49234 0.34365 0.77293 0.0
H848 H 0.47923 0.36491 0.78991 0.0
H849 H 0.50358 0.3665 0.7637 0.0
H850 H 0.5388 0.39397 0.85308 0.0
H851 H 0.54083 0.42329 0.79632 0.0
H852 H 0.15551 0.39778 0.03143 0.0
H853 H 0.13076 0.40771 0.96174 0.0
H854 H 0.11902 0.4571 0.06632 0.0
H855 H 0.1436 0.44718 0.13675 0.0
H856 H 0.08549 0.4388 0.02392 0.0
H857 H 0.1392 0.45212 0.84737 0.0
H858 H 0.14008 0.42874 0.87835 0.0
H859 H 0.14596 0.44878 0.92308 0.0
C860 C 0.14762 0.41072 0.03982 0.0
C861 C 0.15168 0.4218 0.08933 0.0
C862 C 0.13352 0.41639 -0.00016 0.0
C863 C 0.1233 0.43329 0.00843 0.0
C864 C 0.12682 0.44405 0.05881 0.0
H865 H 0.06403 0.49719 0.74121 0.0
H866 H 0.08403 0.48657 0.82276 0.0
C867 C 0.14091 0.43838 0.0989 0.0
C868 C 0.10944 0.44008 0.96381 0.0
H869 H 0.10636 0.45453 0.82116 0.0
C870 C 0.09 0.44226 0.97956 0.0
C871 C 0.11547 0.44482 0.90628 0.0
C872 C 0.13633 0.44368 0.8877 0.0
C873 C 0.07635 0.44886 0.93892 0.0
C874 C 0.08233 0.45315 0.88099 0.0
C875 C 0.1018 0.45112 0.86553 0.0
C876 C 0.06883 0.46018 0.83564 0.0
C877 C 0.05577 0.45154 0.95856 0.0
C878 C 0.05347 0.44895 0.81624 0.0
C879 C 0.04191 0.45503 0.7696 0.0
C880 C 0.04569 0.47235 0.74127 0.0
C881 C 0.06078 0.48374 0.76187 0.0
C882 C 0.07223 0.4777 0.80851 0.0
H883 H 0.05453 0.45214 0.00712 0.0
H884 H 0.04959 0.46471 0.93968 0.0
H885 H 0.047 0.43945 0.94307 0.0
H886 H 0.0508 0.43522 0.83586 0.0
H887 H 0.03045 0.44589 0.75455 0.0
H888 H 0.97303 0.85346 0.10961 0.0
H889 H 0.97305 0.88126 0.17353 0.0
H890 H 0.02738 0.86357 0.24668 0.0
H891 H 0.0275 0.83581 0.18341 0.0
H892 H 0.97477 0.87903 0.30028 0.0
H893 H 0.03521 0.92038 0.20548 0.0
H894 H 0.02265 0.90229 0.16497 0.0
H895 H 0.04074 0.89585 0.21764 0.0
C896 C 0.98508 0.85559 0.1389 0.0
C897 C 0.00022 0.84239 0.14172 0.0
C898 C 0.98505 0.87147 0.17527 0.0
C899 C 0.00031 0.87451 0.21422 0.0
C900 C 0.01563 0.8616 0.21617 0.0
H901 H 0.03694 0.93686 0.50623 0.0
H902 H 0.03186 0.91741 0.41971 0.0
C903 C 0.01561 0.84568 0.18024 0.0
C904 C -0.00028 0.89034 0.25626 0.0
H905 H 0.02571 0.92815 0.30364 0.0
C906 C 0.98565 0.89003 0.30057 0.0
C907 C 0.01395 0.90458 0.25621 0.0
C908 C 0.0289 0.90596 0.20822 0.0
C909 C 0.98618 0.90293 0.34715 0.0
C910 C 0.00095 0.91669 0.34849 0.0
C911 C 0.01444 0.91755 0.30253 0.0
C912 C 0.00381 0.92909 0.39982 0.0
C913 C 0.97164 0.90103 0.39619 0.0
C914 C -0.01024 0.94225 0.41702 0.0
C915 C -0.00744 0.95336 0.46694 0.0
C916 C 0.00953 0.95154 0.5 0.0
C917 C 0.02368 0.93858 0.48187 0.0
C918 C 0.02084 0.92748 0.4323 0.0
H919 H 0.96359 0.88748 0.39394 0.0
H920 H 0.97881 0.90189 0.43956 0.0
H921 H 0.96108 0.91278 0.3932 0.0
H922 H 0.97665 0.94393 0.3919 0.0
H923 H 0.98146 0.96333 0.47958 0.0
H924 H 0.66064 0.94988 0.25463 0.0
H925 H 0.63436 0.9578 0.32155 0.0
H926 H 0.59299 0.94555 0.18633 0.0
H927 H 0.61926 0.9377 0.11858 0.0
H928 H 0.58656 0.98004 0.24307 0.0
H929 H 0.59643 0.92202 0.40408 0.0
H930 H 0.61832 0.93469 0.38928 0.0
H931 H 0.60699 0.92152 0.33155 0.0
C932 C 0.64596 0.94873 0.23911 0.0
C933 C 0.64204 0.94309 0.18131 0.0
C934 C 0.63095 0.95315 0.27758 0.0
C935 C 0.61174 0.95194 0.25918 0.0
C936 C 0.60774 0.9464 0.20148 0.0
H937 H 0.52162 0.96976 0.5252 0.0
H938 H 0.53898 0.95619 0.44141 0.0
C939 C 0.62276 0.94192 0.1629 0.0
C940 C 0.596 0.95742 0.29969 0.0
H941 H 0.57819 0.94889 0.43694 0.0
C942 C 0.5845 0.97306 0.28509 0.0
C943 C 0.59311 0.94809 0.35401 0.0
C944 C 0.60423 0.93052 0.37049 0.0
C945 C 0.57095 0.98031 0.32494 0.0
C946 C 0.56909 0.97182 0.38097 0.0
C947 C 0.57977 0.9555 0.39417 0.0
C948 C 0.5574 0.9805 0.42819 0.0
C949 C 0.55898 -0.00282 0.30705 0.0
C950 C 0.56205 -0.00138 0.44845 0.0
C951 C 0.55225 0.00637 0.49617 0.0
C952 C 0.53766 -0.00391 0.52487 0.0
C953 C 0.53277 0.97805 0.50392 0.0
C954 C 0.54266 0.97027 0.45613 0.0
H955 H 0.55752 -0.0019 0.2586 0.0
H956 H 0.54438 -0.00342 0.32699 0.0
H957 H 0.56615 0.01029 0.32216 0.0
H958 H 0.57367 0.00659 0.42838 0.0
H959 H 0.55639 0.02029 0.51119 0.0
H960 H 0.49517 0.63912 0.18441 0.0
H961 H 0.50012 0.61108 0.24617 0.0
H962 H 0.44166 0.61535 0.30921 0.0
H963 H 0.43656 0.64327 0.24794 0.0
H964 H 0.49596 0.61079 0.37038 0.0
H965 H 0.44727 0.55899 0.26611 0.0
H966 H 0.45581 0.57995 0.22858 0.0
H967 H 0.43601 0.58145 0.27943 0.0
C968 C 0.4833 0.63396 0.21093 0.0
C969 C 0.46549 0.64347 0.21151 0.0
C970 C 0.48616 0.61794 0.24608 0.0
C971 C 0.47119 0.61103 0.2816 0.0
C972 C 0.45329 0.62025 0.28124 0.0
H973 H 0.44375 0.54237 0.57012 0.0
H974 H 0.44606 0.56173 0.48172 0.0
C975 C 0.45045 0.6363 0.2465 0.0
C976 C 0.47452 0.59519 0.32294 0.0
H977 H 0.45615 0.55261 0.36614 0.0
C978 C 0.48759 0.59786 0.36895 0.0
C979 C 0.46357 0.57837 0.32068 0.0
C980 C 0.45001 0.57439 0.27071 0.0
C981 C 0.48904 0.58473 0.41508 0.0
C982 C 0.47735 0.56835 0.41435 0.0
C983 C 0.46504 0.56521 0.36665 0.0
C984 C 0.47611 0.55543 0.46552 0.0
C985 C 0.50216 0.58907 0.46594 0.0
C986 C 0.49218 0.54517 0.48516 0.0
C987 C 0.49094 0.53411 0.53614 0.0
C988 C 0.47357 0.53309 0.56796 0.0
C989 C 0.45737 0.54291 0.54689 0.0
C990 C 0.45864 0.55394 0.49621 0.0
H991 H 0.50754 0.60385 0.46455 0.0
H992 H 0.49457 0.58675 0.50832 0.0
H993 H 0.51478 0.57945 0.46457 0.0
H994 H 0.50571 0.54588 0.46148 0.0
H995 H 0.50363 0.5266 0.55104 0.0
H996 H 0.8602 0.57787 0.14313 0.0
H997 H 0.88554 0.56414 0.20438 0.0
H998 H 0.85003 0.51518 0.23673 0.0
H999 H 0.8247 0.52867 0.17531 0.0
H1000 H 0.88183 0.55451 0.32293 0.0
H1001 H 0.90207 0.49194 0.1907 0.0
H1002 H 0.88867 0.51162 0.16072 0.0
H1003 H 0.87664 0.49383 0.20389 0.0
C1004 C 0.85784 0.5641 0.16283 0.0
C1005 C 0.84042 0.55436 0.15437 0.0
C1006 C 0.87235 0.55628 0.19773 0.0
C1007 C 0.86977 0.53854 0.22428 0.0
C1008 C 0.85247 0.52872 0.21556 0.0
H1009 H 0.91744 0.46896 0.49025 0.0
H1010 H 0.90075 0.48313 0.40693 0.0
C1011 C 0.83795 0.53652 0.1808 0.0
C1012 C 0.88452 0.53082 0.26451 0.0
H1013 H 0.91234 0.4919 0.29097 0.0
C1014 C 0.88876 0.54097 0.3156 0.0
C1015 C 0.89351 0.51316 0.25466 0.0
C1016 C 0.89015 0.50207 0.19924 0.0
C1017 C 0.90102 0.53348 0.35863 0.0
C1018 C 0.90953 0.51553 0.34965 0.0
C1019 C 0.9058 0.50566 0.29764 0.0
C1020 C 0.92099 0.50612 0.39595 0.0
C1021 C 0.904 0.54442 0.41462 0.0
C1022 C 0.93825 0.51404 0.4162 0.0
C1023 C 0.94783 0.506 0.4641 0.0
C1024 C 0.9403 0.48987 0.49225 0.0
C1025 C 0.92354 0.48146 0.46986 0.0
C1026 C 0.914 0.48951 0.42212 0.0
H1027 H 0.89347 0.55617 0.41936 0.0
H1028 H 0.90271 0.53496 0.45345 0.0
H1029 H 0.91868 0.55058 0.41453 0.0
H1030 H 0.94405 0.52669 0.39584 0.0
H1031 H 0.96077 0.51274 0.48011 0.0
loop_
_geom_bond_atom_site_label_1
_geom_bond_atom_site_label_2
_geom_bond_distance
_geom_bond_site_symmetry_2
_ccdc_geom_bond_type
O0 Cd1 2.300 1_556 S
O0 C7 1.275 . S
Cd1 O0 2.300 1_554 S
Cd1 O9 2.381 1_554 S
Cd1 O10 2.378 . S
O2 Cd3 2.385 . S
O2 C7 1.255 1_554 S
Cd3 O2 2.385 . S
Cd3 O4 2.317 . S
O4 Cd3 2.317 . S
O4 C5 1.232 . S
C5 O4 1.232 . S
C5 O6 1.218 . S
O6 C5 1.218 . S
C7 O0 1.275 . S
C7 O2 1.255 1_556 S
C8 O9 1.258 . S
C8 O10 1.256 1_556 S
O9 Cd1 2.381 1_556 S
O9 C8 1.258 . S
O10 Cd1 2.378 . S
O10 C8 1.256 1_554 S
O11 Cd12 2.300 1_656 S
O11 C18 1.275 1_655 S
Cd12 O11 2.300 1_454 S
Cd12 O20 2.381 1_454 S
Cd12 O21 2.378 . S
O13 Cd14 2.385 . S
O13 C18 1.255 1_554 S
Cd14 O13 2.385 . S
Cd14 O15 2.317 . S
O15 Cd14 2.317 . S
O15 C16 1.232 . S
C16 O15 1.232 . S
C16 O17 1.218 . S
O17 C16 1.218 . S
C18 O11 1.275 1_455 S
C18 O13 1.255 1_556 S
C19 O20 1.258 1_455 S
C19 O21 1.256 1_556 S
O20 Cd12 2.381 1_656 S
O20 C19 1.258 1_655 S
O21 Cd12 2.378 . S
O21 C19 1.256 1_554 S
O22 Cd23 2.300 1_556 S
O22 C29 1.275 . S
Cd23 O22 2.300 1_554 S
Cd23 O31 2.381 1_554 S
Cd23 O32 2.378 . S
O24 Cd25 2.385 . S
O24 C29 1.255 1_554 S
Cd25 O24 2.385 . S
Cd25 O26 2.317 . S
O26 Cd25 2.317 . S
O26 C27 1.232 . S
C27 O26 1.232 . S
C27 O28 1.218 . S
O28 C27 1.218 . S
C29 O22 1.275 . S
C29 O24 1.255 1_556 S
C30 O31 1.258 . S
C30 O32 1.256 1_556 S
O31 Cd23 2.381 1_556 S
O31 C30 1.258 . S
O32 Cd23 2.378 . S
O32 C30 1.256 1_554 S
O33 Cd34 2.300 1_556 S
O33 C40 1.275 . S
Cd34 O33 2.300 1_554 S
Cd34 O42 2.381 1_554 S
Cd34 O43 2.378 . S
O35 Cd36 2.385 . S
O35 C40 1.255 1_554 S
Cd36 O35 2.385 . S
Cd36 O37 2.317 . S
O37 Cd36 2.317 . S
O37 C38 1.232 . S
C38 O37 1.232 . S
C38 O39 1.218 . S
O39 C38 1.218 . S
C40 O33 1.275 . S
C40 O35 1.255 1_556 S
C41 O42 1.258 . S
C41 O43 1.256 1_556 S
O42 Cd34 2.381 1_556 S
O42 C41 1.258 . S
O43 Cd34 2.378 . S
O43 C41 1.256 1_554 S
O44 Cd45 2.300 . S
O44 C51 1.275 . S
Cd45 O44 2.300 . S
Cd45 O53 2.381 . S
Cd45 O54 2.378 . S
O46 Cd47 2.385 . S
O46 C51 1.255 . S
Cd47 O46 2.385 . S
Cd47 O48 2.317 . S
O48 Cd47 2.317 . S
O48 C49 1.232 . S
C49 O48 1.232 . S
C49 O50 1.218 . S
O50 C49 1.218 . S
C51 O44 1.275 . S
C51 O46 1.255 . S
C52 O53 1.258 . S
C52 O54 1.256 . S
O53 Cd45 2.381 . S
O53 C52 1.258 . S
O54 Cd45 2.378 . S
O54 C52 1.256 . S
O55 Cd56 2.300 1_655 S
O55 C62 1.275 1_655 S
Cd56 O55 2.300 1_455 S
Cd56 O64 2.381 1_455 S
Cd56 O65 2.378 . S
O57 Cd58 2.385 . S
O57 C62 1.255 . S
Cd58 O57 2.385 . S
Cd58 O59 2.317 . S
O59 Cd58 2.317 . S
O59 C60 1.232 . S
C60 O59 1.232 . S
C60 O61 1.218 . S
O61 C60 1.218 . S
C62 O55 1.275 1_455 S
C62 O57 1.255 . S
C63 O64 1.258 1_455 S
C63 O65 1.256 . S
O64 Cd56 2.381 1_655 S
O64 C63 1.258 1_655 S
O65 Cd56 2.378 . S
O65 C63 1.256 . S
O66 Cd67 2.300 . S
O66 C73 1.275 . S
Cd67 O66 2.300 . S
Cd67 O75 2.381 . S
Cd67 O76 2.378 . S
O68 Cd69 2.385 . S
O68 C73 1.255 . S
Cd69 O68 2.385 . S
Cd69 O70 2.317 . S
O70 Cd69 2.317 . S
O70 C71 1.232 . S
C71 O70 1.232 . S
C71 O72 1.218 . S
O72 C71 1.218 . S
C73 O66 1.275 . S
C73 O68 1.255 . S
C74 O75 1.258 . S
C74 O76 1.256 . S
O75 Cd67 2.381 . S
O75 C74 1.258 . S
O76 Cd67 2.378 . S
O76 C74 1.256 . S
O77 Cd78 2.300 . S
O77 C84 1.275 . S
Cd78 O77 2.300 . S
Cd78 O86 2.381 . S
Cd78 O87 2.378 . S
O79 Cd80 2.385 . S
O79 C84 1.255 . S
Cd80 O79 2.385 . S
Cd80 O81 2.317 . S
O81 Cd80 2.317 . S
O81 C82 1.232 . S
C82 O81 1.232 . S
C82 O83 1.218 . S
O83 C82 1.218 . S
C84 O77 1.275 . S
C84 O79 1.255 . S
C85 O86 1.258 . S
C85 O87 1.256 . S
O86 Cd78 2.381 . S
O86 C85 1.258 . S
O87 Cd78 2.378 . S
O87 C85 1.256 . S
Zn88 O94 1.969 . S
Zn88 O95 1.965 1_655 S
Zn88 O99 2.024 1_655 S
Zn88 O104 1.969 . S
Zn89 O96 1.969 . S
Zn89 O102 1.969 . S
Zn89 O103 1.965 1_455 S
Zn89 O105 2.024 1_455 S
C90 O91 1.229 1_455 S
C90 O99 1.058 . S
O91 C90 1.229 1_655 S
C92 O93 1.229 1_655 S
C92 O105 1.058 . S
O93 C92 1.229 1_455 S
O94 Zn88 1.969 . S
O94 C97 1.267 . S
O95 Zn88 1.965 1_455 S
O95 C106 1.260 . S
O96 Zn89 1.969 . S
O96 C106 1.258 1_565 S
C97 O94 1.267 . S
C97 O98 1.228 1_655 S
O98 C97 1.228 1_455 S
O99 Zn88 2.024 1_455 S
O99 C90 1.058 . S
C100 O101 1.228 1_455 S
C100 O102 1.267 . S
O101 C100 1.228 1_655 S
O102 Zn89 1.969 . S
O102 C100 1.267 . S
O103 Zn89 1.965 1_655 S
O103 C107 1.260 1_565 S
O104 Zn88 1.969 . S
O104 C107 1.258 . S
O105 Zn89 2.024 1_655 S
O105 C92 1.058 . S
C106 O95 1.260 . S
C106 O96 1.258 1_545 S
C107 O103 1.260 1_545 S
C107 O104 1.258 . S
Zn108 O114 1.969 . S
Zn108 O115 1.965 . S
Zn108 O119 2.024 . S
Zn108 O124 1.969 1_545 S
Zn109 O116 1.969 . S
Zn109 O122 1.969 . S
Zn109 O123 1.965 1_545 S
Zn109 O125 2.024 1_545 S
C110 O111 1.229 . S
C110 O119 1.058 . S
O111 C110 1.229 . S
C112 O113 1.229 1_565 S
C112 O125 1.058 . S
O113 C112 1.229 1_545 S
O114 Zn108 1.969 . S
O114 C117 1.267 . S
O115 Zn108 1.965 . S
O115 C126 1.260 . S
O116 Zn109 1.969 . S
O116 C126 1.258 . S
C117 O114 1.267 . S
C117 O118 1.228 . S
O118 C117 1.228 . S
O119 Zn108 2.024 . S
O119 C110 1.058 . S
C120 O121 1.226 . S
C120 O122 1.269 1_565 S
O121 C120 1.226 . S
O122 Zn109 1.969 . S
O122 C120 1.269 1_545 S
O123 Zn109 1.965 1_565 S
O123 C127 1.260 . S
O124 Zn108 1.969 1_565 S
O124 C127 1.258 . S
O125 Zn109 2.024 1_565 S
O125 C112 1.058 . S
C126 O115 1.260 . S
C126 O116 1.258 . S
C127 O123 1.260 . S
C127 O124 1.258 . S
Zn128 O134 1.969 . S
Zn128 O135 1.965 . S
Zn128 O139 2.024 . S
Zn128 O144 1.969 . S
Zn129 O136 1.969 . S
Zn129 O142 1.969 . S
Zn129 O143 1.965 . S
Zn129 O145 2.024 . S
C130 O131 1.229 . S
C130 O139 1.058 . S
O131 C130 1.229 . S
C132 O133 1.229 . S
C132 O145 1.058 . S
O133 C132 1.229 . S
O134 Zn128 1.969 . S
O134 C137 1.267 . S
O135 Zn128 1.965 . S
O135 C146 1.260 . S
O136 Zn129 1.969 . S
O136 C146 1.258 . S
C137 O134 1.267 . S
C137 O138 1.228 . S
O138 C137 1.228 . S
O139 Zn128 2.024 . S
O139 C130 1.058 . S
C140 O141 1.228 . S
C140 O142 1.267 . S
O141 C140 1.228 . S
O142 Zn129 1.969 . S
O142 C140 1.267 . S
O143 Zn129 1.965 . S
O143 C147 1.260 . S
O144 Zn128 1.969 . S
O144 C147 1.258 . S
O145 Zn129 2.024 . S
O145 C132 1.058 . S
C146 O135 1.260 . S
C146 O136 1.258 . S
C147 O143 1.260 . S
C147 O144 1.258 . S
Zn148 O154 1.969 . S
Zn148 O155 1.965 . S
Zn148 O159 2.024 . S
Zn148 O164 1.969 . S
Zn149 O156 1.969 . S
Zn149 O162 1.969 . S
Zn149 O163 1.965 . S
Zn149 O165 2.024 . S
C150 O151 1.229 . S
C150 O159 1.058 . S
O151 C150 1.229 . S
C152 O153 1.229 . S
C152 O165 1.058 . S
O153 C152 1.229 . S
O154 Zn148 1.969 . S
O154 C157 1.267 . S
O155 Zn148 1.965 . S
O155 C166 1.260 1_455 S
O156 Zn149 1.969 . S
O156 C166 1.258 . S
C157 O154 1.267 . S
C157 O158 1.228 . S
O158 C157 1.228 . S
O159 Zn148 2.024 . S
O159 C150 1.058 . S
C160 O161 1.228 . S
C160 O162 1.267 . S
O161 C160 1.228 . S
O162 Zn149 1.969 . S
O162 C160 1.267 . S
O163 Zn149 1.965 . S
O163 C167 1.260 1_655 S
O164 Zn148 1.969 . S
O164 C167 1.258 . S
O165 Zn149 2.024 . S
O165 C152 1.058 . S
C166 O155 1.260 1_655 S
C166 O156 1.258 . S
C167 O163 1.260 1_455 S
C167 O164 1.258 . S
H168 C176 0.929 . S
H169 C178 0.930 . S
H170 C180 0.930 . S
H171 C183 0.929 . S
H172 C186 0.930 . S
H173 C188 0.960 1_565 S
H174 C188 0.960 . S
H175 C188 0.960 . S
C176 H168 0.929 . S
C176 C177 1.377 . S
C176 C178 1.384 . S
C177 C176 1.377 . S
C177 C183 1.390 . S
C178 H169 0.930 . S
C178 C176 1.384 . S
C178 C179 1.372 . S
C179 C178 1.372 . S
C179 C180 1.400 . S
C179 C184 1.490 . S
C180 H170 0.930 . S
C180 C179 1.400 . S
C180 C183 1.386 . S
H181 C197 0.930 . S
H182 C198 0.931 . S
C183 H171 0.929 . S
C183 C177 1.390 . S
C183 C180 1.386 . S
C184 C179 1.490 . S
C184 C186 1.395 . S
C184 C187 1.403 . S
H185 C191 0.930 . S
C186 H172 0.930 . S
C186 C184 1.395 . S
C186 C189 1.403 . S
C187 C184 1.403 . S
C187 C188 1.524 . S
C187 C191 1.400 . S
C188 H173 0.960 1_545 S
C188 H174 0.960 . S
C188 H175 0.960 . S
C188 C187 1.524 . S
C189 C186 1.403 . S
C189 C190 1.392 . S
C189 C193 1.495 . S
C190 C189 1.392 . S
C190 C191 1.385 . S
C190 C192 1.478 . S
C191 H185 0.930 . S
C191 C187 1.400 . S
C191 C190 1.385 . S
C192 C190 1.478 . S
C192 C194 1.381 . S
C192 C198 1.383 . S
C193 C189 1.495 . S
C193 H199 0.959 . S
C193 H200 0.961 . S
C193 H201 0.960 . S
C194 C192 1.381 . S
C194 C195 1.394 . S
C194 H202 0.930 . S
C195 C194 1.394 . S
C195 C196 1.383 . S
C195 H203 0.929 . S
C196 C195 1.383 . S
C196 C197 1.377 . S
C197 H181 0.930 . S
C197 C196 1.377 . S
C197 C198 1.379 . S
C198 H182 0.931 . S
C198 C192 1.383 . S
C198 C197 1.379 . S
H199 C193 0.959 . S
H200 C193 0.961 . S
H201 C193 0.960 . S
H202 C194 0.930 . S
H203 C195 0.929 . S
H204 C212 0.929 . S
H205 C214 0.930 . S
H206 C216 0.930 . S
H207 C219 0.929 . S
H208 C222 0.930 . S
H209 C224 0.960 . S
H210 C224 0.960 . S
H211 C224 0.960 . S
C212 H204 0.929 . S
C212 C213 1.377 . S
C212 C214 1.384 . S
C213 C212 1.377 . S
C213 C219 1.390 . S
C214 H205 0.930 . S
C214 C212 1.384 . S
C214 C215 1.372 . S
C215 C214 1.372 . S
C215 C216 1.400 . S
C215 C220 1.490 . S
C216 H206 0.930 . S
C216 C215 1.400 . S
C216 C219 1.386 . S
H217 C233 0.930 . S
H218 C234 0.931 . S
C219 H207 0.929 . S
C219 C213 1.390 . S
C219 C216 1.386 . S
C220 C215 1.490 . S
C220 C222 1.395 . S
C220 C223 1.403 . S
H221 C227 0.930 . S
C222 H208 0.930 . S
C222 C220 1.395 . S
C222 C225 1.403 . S
C223 C220 1.403 . S
C223 C224 1.524 . S
C223 C227 1.400 . S
C224 H209 0.960 . S
C224 H210 0.960 . S
C224 H211 0.960 . S
C224 C223 1.524 . S
C225 C222 1.403 . S
C225 C226 1.392 . S
C225 C229 1.495 . S
C226 C225 1.392 . S
C226 C227 1.385 . S
C226 C228 1.478 . S
C227 H221 0.930 . S
C227 C223 1.400 . S
C227 C226 1.385 . S
C228 C226 1.478 . S
C228 C230 1.381 . S
C228 C234 1.383 . S
C229 C225 1.495 . S
C229 H235 0.959 . S
C229 H236 0.961 . S
C229 H237 0.960 . S
C230 C228 1.381 . S
C230 C231 1.394 . S
C230 H238 0.930 . S
C231 C230 1.394 . S
C231 C232 1.383 . S
C231 H239 0.929 . S
C232 C231 1.383 . S
C232 C233 1.377 . S
C233 H217 0.930 . S
C233 C232 1.377 . S
C233 C234 1.379 . S
C234 H218 0.931 . S
C234 C228 1.383 . S
C234 C233 1.379 . S
H235 C229 0.959 . S
H236 C229 0.961 . S
H237 C229 0.960 . S
H238 C230 0.930 . S
H239 C231 0.929 . S
H240 C248 0.929 . S
H241 C250 0.930 . S
H242 C252 0.930 . S
H243 C255 0.929 . S
H244 C258 0.930 . S
H245 C260 0.960 . S
H246 C260 0.960 . S
H247 C260 0.960 . S
C248 H240 0.929 . S
C248 C249 1.377 . S
C248 C250 1.384 . S
C249 C248 1.377 . S
C249 C255 1.390 . S
C250 H241 0.930 . S
C250 C248 1.384 . S
C250 C251 1.372 . S
C251 C250 1.372 . S
C251 C252 1.400 . S
C251 C256 1.490 . S
C252 H242 0.930 . S
C252 C251 1.400 . S
C252 C255 1.386 . S
H253 C269 0.930 . S
H254 C270 0.931 . S
C255 H243 0.929 . S
C255 C249 1.390 . S
C255 C252 1.386 . S
C256 C251 1.490 . S
C256 C258 1.395 . S
C256 C259 1.403 . S
H257 C263 0.930 . S
C258 H244 0.930 . S
C258 C256 1.395 . S
C258 C261 1.403 . S
C259 C256 1.403 . S
C259 C260 1.524 . S
C259 C263 1.400 . S
C260 H245 0.960 . S
C260 H246 0.960 . S
C260 H247 0.960 . S
C260 C259 1.524 . S
C261 C258 1.403 . S
C261 C262 1.392 . S
C261 C265 1.495 . S
C262 C261 1.392 . S
C262 C263 1.385 . S
C262 C264 1.478 . S
C263 H257 0.930 . S
C263 C259 1.400 . S
C263 C262 1.385 . S
C264 C262 1.478 . S
C264 C266 1.381 . S
C264 C270 1.383 . S
C265 C261 1.495 . S
C265 H271 0.959 . S
C265 H272 0.961 . S
C265 H273 0.960 . S
C266 C264 1.381 . S
C266 C267 1.394 . S
C266 H274 0.930 . S
C267 C266 1.394 . S
C267 C268 1.383 . S
C267 H275 0.929 . S
C268 C267 1.383 . S
C268 C269 1.377 . S
C269 H253 0.930 . S
C269 C268 1.377 . S
C269 C270 1.379 . S
C270 H254 0.931 . S
C270 C264 1.383 . S
C270 C269 1.379 . S
H271 C265 0.959 . S
H272 C265 0.961 . S
H273 C265 0.960 . S
H274 C266 0.930 . S
H275 C267 0.929 . S
H276 C284 0.929 . S
H277 C286 0.930 . S
H278 C288 0.930 . S
H279 C291 0.929 . S
H280 C294 0.930 . S
H281 C296 0.960 . S
H282 C296 0.960 . S
H283 C296 0.960 . S
C284 H276 0.929 . S
C284 C285 1.380 1_655 S
C284 C286 1.384 . S
C285 C284 1.380 1_455 S
C285 C291 1.387 . S
C286 H277 0.930 . S
C286 C284 1.384 . S
C286 C287 1.372 . S
C287 C286 1.372 . S
C287 C288 1.400 1_655 S
C287 C292 1.490 . S
C288 H278 0.930 . S
C288 C287 1.400 1_455 S
C288 C291 1.386 . S
H289 C305 0.930 . S
H290 C306 0.931 . S
C291 H279 0.929 . S
C291 C285 1.387 . S
C291 C288 1.386 . S
C292 C287 1.490 . S
C292 C294 1.395 . S
C292 C295 1.403 1_655 S
H293 C299 0.930 . S
C294 H280 0.930 . S
C294 C292 1.395 . S
C294 C297 1.403 . S
C295 C292 1.403 1_455 S
C295 C296 1.524 . S
C295 C299 1.400 . S
C296 H281 0.960 . S
C296 H282 0.960 . S
C296 H283 0.960 . S
C296 C295 1.524 . S
C297 C294 1.403 . S
C297 C298 1.392 . S
C297 C301 1.495 . S
C298 C297 1.392 . S
C298 C299 1.385 1_655 S
C298 C300 1.478 . S
C299 H293 0.930 . S
C299 C295 1.400 . S
C299 C298 1.385 1_455 S
C300 C298 1.478 . S
C300 C302 1.381 . S
C300 C306 1.383 1_655 S
C301 C297 1.495 . S
C301 H307 0.959 . S
C301 H308 0.961 . S
C301 H309 0.960 . S
C302 C300 1.381 . S
C302 C303 1.394 . S
C302 H310 0.930 . S
C303 C302 1.394 . S
C303 C304 1.383 . S
C303 H311 0.929 . S
C304 C303 1.383 . S
C304 C305 1.377 1_655 S
C305 H289 0.930 . S
C305 C304 1.377 1_455 S
C305 C306 1.379 . S
C306 H290 0.931 . S
C306 C300 1.383 1_455 S
C306 C305 1.379 . S
H307 C301 0.959 . S
H308 C301 0.961 . S
H309 C301 0.960 . S
H310 C302 0.930 . S
H311 C303 0.929 . S
H312 C320 0.929 . S
H313 C322 0.930 . S
H314 C324 0.930 . S
H315 C327 0.929 1_554 S
H316 C330 0.941 . S
H317 C332 0.960 . S
H318 C332 0.960 . S
H319 C332 0.960 . S
C320 H312 0.929 . S
C320 C321 1.377 . S
C320 C322 1.384 . S
C321 C320 1.377 . S
C321 C327 1.390 . S
C322 H313 0.930 . S
C322 C320 1.384 . S
C322 C323 1.372 . S
C323 C322 1.372 . S
C323 C324 1.400 . S
C323 C328 1.490 . S
C324 H314 0.930 . S
C324 C323 1.400 . S
C324 C327 1.386 . S
H325 C341 0.925 1_545 S
H326 C342 0.931 . S
C327 H315 0.929 1_556 S
C327 C321 1.390 . S
C327 C324 1.386 . S
C328 C323 1.490 . S
C328 C330 1.395 . S
C328 C331 1.403 . S
H329 C335 0.930 . S
C330 H316 0.941 . S
C330 C328 1.395 . S
C330 C333 1.403 . S
C331 C328 1.403 . S
C331 C332 1.524 . S
C331 C335 1.400 . S
C332 H317 0.960 . S
C332 H318 0.960 . S
C332 H319 0.960 . S
C332 C331 1.524 . S
C333 C330 1.403 . S
C333 C334 1.392 . S
C333 C337 1.495 1_565 S
C334 C333 1.392 . S
C334 C335 1.385 . S
C334 C336 1.478 . S
C335 H329 0.930 . S
C335 C331 1.400 . S
C335 C334 1.385 . S
C336 C334 1.478 . S
C336 C338 1.381 . S
C336 C342 1.383 . S
C337 C333 1.495 1_545 S
C337 H343 0.959 . S
C337 H344 0.961 . S
C337 H345 0.960 . S
C338 C336 1.381 . S
C338 C339 1.394 . S
C338 H346 0.930 . S
C339 C338 1.394 . S
C339 C340 1.383 . S
C339 H347 0.929 . S
C340 C339 1.383 . S
C340 C341 1.376 . S
C341 H325 0.925 1_565 S
C341 C340 1.376 . S
C341 C342 1.379 . S
C342 H326 0.931 . S
C342 C336 1.383 . S
C342 C341 1.379 . S
H343 C337 0.959 . S
H344 C337 0.961 . S
H345 C337 0.960 . S
H346 C338 0.930 . S
H347 C339 0.929 . S
H348 C356 0.929 . S
H349 C358 0.930 . S
H350 C360 0.930 . S
H351 C363 0.929 . S
H352 C366 0.930 . S
H353 C368 0.960 . S
H354 C368 0.960 . S
H355 C368 0.960 . S
C356 H348 0.929 . S
C356 C357 1.377 . S
C356 C358 1.384 . S
C357 C356 1.377 . S
C357 C363 1.390 . S
C358 H349 0.930 . S
C358 C356 1.384 . S
C358 C359 1.372 . S
C359 C358 1.372 . S
C359 C360 1.400 . S
C359 C364 1.490 . S
C360 H350 0.930 . S
C360 C359 1.400 . S
C360 C363 1.386 . S
H361 C377 0.930 . S
H362 C378 0.931 . S
C363 H351 0.929 . S
C363 C357 1.390 . S
C363 C360 1.386 . S
C364 C359 1.490 . S
C364 C366 1.395 . S
C364 C367 1.403 . S
H365 C371 0.930 . S
C366 H352 0.930 . S
C366 C364 1.395 . S
C366 C369 1.403 . S
C367 C364 1.403 . S
C367 C368 1.524 . S
C367 C371 1.400 . S
C368 H353 0.960 . S
C368 H354 0.960 . S
C368 H355 0.960 . S
C368 C367 1.524 . S
C369 C366 1.403 . S
C369 C370 1.392 . S
C369 C373 1.495 . S
C370 C369 1.392 . S
C370 C371 1.385 . S
C370 C372 1.478 . S
C371 H365 0.930 . S
C371 C367 1.400 . S
C371 C370 1.385 . S
C372 C370 1.478 . S
C372 C374 1.381 . S
C372 C378 1.383 . S
C373 C369 1.495 . S
C373 H379 0.959 . S
C373 H380 0.961 . S
C373 H381 0.960 . S
C374 C372 1.381 . S
C374 C375 1.394 . S
C374 H382 0.930 . S
C375 C374 1.394 . S
C375 C376 1.383 . S
C375 H383 0.929 . S
C376 C375 1.383 . S
C376 C377 1.377 . S
C377 H361 0.930 . S
C377 C376 1.377 . S
C377 C378 1.379 . S
C378 H362 0.931 . S
C378 C372 1.383 . S
C378 C377 1.379 . S
H379 C373 0.959 . S
H380 C373 0.961 . S
H381 C373 0.960 . S
H382 C374 0.930 . S
H383 C375 0.929 . S
H384 C392 0.929 . S
H385 C394 0.930 . S
H386 C396 0.930 . S
H387 C399 0.929 . S
H388 C402 0.930 . S
H389 C404 0.960 . S
H390 C404 0.960 . S
H391 C404 0.960 . S
C392 H384 0.929 . S
C392 C393 1.377 . S
C392 C394 1.384 . S
C393 C392 1.377 . S
C393 C399 1.390 . S
C394 H385 0.930 . S
C394 C392 1.384 . S
C394 C395 1.372 . S
C395 C394 1.372 . S
C395 C396 1.400 . S
C395 C400 1.490 . S
C396 H386 0.930 . S
C396 C395 1.400 . S
C396 C399 1.386 . S
H397 C413 0.930 . S
H398 C414 0.931 . S
C399 H387 0.929 . S
C399 C393 1.390 . S
C399 C396 1.386 . S
C400 C395 1.490 . S
C400 C402 1.395 . S
C400 C403 1.403 . S
H401 C407 0.930 . S
C402 H388 0.930 . S
C402 C400 1.395 . S
C402 C405 1.403 . S
C403 C400 1.403 . S
C403 C404 1.524 . S
C403 C407 1.400 . S
C404 H389 0.960 . S
C404 H390 0.960 . S
C404 H391 0.960 . S
C404 C403 1.524 . S
C405 C402 1.403 . S
C405 C406 1.392 . S
C405 C409 1.495 . S
C406 C405 1.392 . S
C406 C407 1.385 . S
C406 C408 1.478 . S
C407 H401 0.930 . S
C407 C403 1.400 . S
C407 C406 1.385 . S
C408 C406 1.478 . S
C408 C410 1.381 . S
C408 C414 1.383 . S
C409 C405 1.495 . S
C409 H415 0.959 . S
C409 H416 0.961 . S
C409 H417 0.960 . S
C410 C408 1.381 . S
C410 C411 1.394 . S
C410 H418 0.930 . S
C411 C410 1.394 . S
C411 C412 1.383 . S
C411 H419 0.929 . S
C412 C411 1.383 . S
C412 C413 1.377 . S
C413 H397 0.930 . S
C413 C412 1.377 . S
C413 C414 1.379 . S
C414 H398 0.931 . S
C414 C408 1.383 . S
C414 C413 1.379 . S
H415 C409 0.959 . S
H416 C409 0.961 . S
H417 C409 0.960 . S
H418 C410 0.930 . S
H419 C411 0.929 . S
H420 C428 0.929 . S
H421 C430 0.930 . S
H422 C432 0.930 . S
H423 C435 0.929 1_554 S
H424 C438 0.930 . S
H425 C440 0.960 . S
H426 C440 0.960 . S
H427 C440 0.960 . S
C428 H420 0.929 . S
C428 C429 1.377 1_455 S
C428 C430 1.384 . S
C429 C428 1.377 1_655 S
C429 C435 1.390 . S
C430 H421 0.930 . S
C430 C428 1.384 . S
C430 C431 1.396 . S
C431 C430 1.396 . S
C431 C432 1.376 1_455 S
C431 C436 1.493 . S
C432 H422 0.930 . S
C432 C431 1.376 1_655 S
C432 C435 1.386 . S
H433 C449 0.930 . S
H434 C450 0.931 . S
C435 H423 0.929 1_556 S
C435 C429 1.390 . S
C435 C432 1.386 . S
C436 C431 1.493 . S
C436 C438 1.395 . S
C436 C439 1.403 1_455 S
H437 C443 0.930 . S
C438 H424 0.930 . S
C438 C436 1.395 . S
C438 C441 1.403 . S
C439 C436 1.403 1_655 S
C439 C440 1.524 . S
C439 C443 1.400 . S
C440 H425 0.960 . S
C440 H426 0.960 . S
C440 H427 0.960 . S
C440 C439 1.524 . S
C441 C438 1.403 . S
C441 C442 1.392 . S
C441 C445 1.495 . S
C442 C441 1.392 . S
C442 C443 1.385 1_455 S
C442 C444 1.478 . S
C443 H437 0.930 . S
C443 C439 1.400 . S
C443 C442 1.385 1_655 S
C444 C442 1.478 . S
C444 C446 1.381 . S
C444 C450 1.383 1_455 S
C445 C441 1.495 . S
C445 H451 0.959 . S
C445 H452 0.961 . S
C445 H453 0.960 . S
C446 C444 1.381 . S
C446 C447 1.394 . S
C446 H454 0.930 . S
C447 C446 1.394 . S
C447 C448 1.383 . S
C447 H455 0.929 . S
C448 C447 1.383 . S
C448 C449 1.377 1_455 S
C449 H433 0.930 . S
C449 C448 1.377 1_655 S
C449 C450 1.379 . S
C450 H434 0.931 . S
C450 C444 1.383 1_655 S
C450 C449 1.379 . S
H451 C445 0.959 . S
H452 C445 0.961 . S
H453 C445 0.960 . S
H454 C446 0.930 . S
H455 C447 0.929 . S
H456 C464 0.929 . S
H457 C466 0.930 . S
H458 C468 0.930 . S
H459 C471 0.929 . S
H460 C474 0.930 . S
H461 C476 0.960 . S
H462 C476 0.960 . S
H463 C476 0.960 . S
C464 H456 0.929 . S
C464 C465 1.374 1_655 S
C464 C466 1.384 . S
C465 C464 1.374 1_455 S
C465 C471 1.393 . S
C466 H457 0.930 . S
C466 C464 1.384 . S
C466 C467 1.372 . S
C467 C466 1.372 . S
C467 C468 1.400 1_655 S
C467 C472 1.490 . S
C468 H458 0.930 . S
C468 C467 1.400 1_455 S
C468 C471 1.386 . S
H469 C485 0.930 1_455 S
H470 C486 0.931 1_455 S
C471 H459 0.929 . S
C471 C465 1.393 . S
C471 C468 1.386 . S
C472 C467 1.490 . S
C472 C474 1.395 . S
C472 C475 1.403 1_655 S
H473 C479 0.930 . S
C474 H460 0.930 . S
C474 C472 1.395 . S
C474 C477 1.403 . S
C475 C472 1.403 1_455 S
C475 C476 1.524 . S
C475 C479 1.400 . S
C476 H461 0.960 . S
C476 H462 0.960 . S
C476 H463 0.960 . S
C476 C475 1.524 . S
C477 C474 1.403 . S
C477 C478 1.392 . S
C477 C481 1.495 . S
C478 C477 1.392 . S
C478 C479 1.385 1_655 S
C478 C480 1.478 . S
C479 H473 0.930 . S
C479 C475 1.400 . S
C479 C478 1.385 1_455 S
C480 C478 1.478 . S
C480 C482 1.381 . S
C480 C486 1.383 . S
C481 C477 1.495 . S
C481 H487 0.959 . S
C481 H488 0.961 . S
C481 H489 0.960 . S
C482 C480 1.381 . S
C482 C483 1.394 . S
C482 H490 0.930 . S
C483 C482 1.394 . S
C483 C484 1.383 . S
C483 H491 0.929 . S
C484 C483 1.383 . S
C484 C485 1.377 . S
C485 H469 0.930 1_655 S
C485 C484 1.377 . S
C485 C486 1.379 . S
C486 H470 0.931 1_655 S
C486 C480 1.383 . S
C486 C485 1.379 . S
H487 C481 0.959 . S
H488 C481 0.961 . S
H489 C481 0.960 . S
H490 C482 0.930 . S
H491 C483 0.929 . S
H492 C500 0.929 . S
H493 C502 0.930 . S
H494 C504 0.930 . S
H495 C507 0.929 . S
H496 C510 0.930 . S
H497 C512 0.960 . S
H498 C512 0.960 . S
H499 C512 0.960 . S
C500 H492 0.929 . S
C500 C501 1.377 . S
C500 C502 1.384 . S
C501 C500 1.377 . S
C501 C507 1.390 . S
C502 H493 0.930 . S
C502 C500 1.384 . S
C502 C503 1.372 . S
C503 C502 1.372 . S
C503 C504 1.400 . S
C503 C508 1.490 . S
C504 H494 0.930 . S
C504 C503 1.400 . S
C504 C507 1.386 . S
H505 C521 0.930 . S
H506 C522 0.931 . S
C507 H495 0.929 . S
C507 C501 1.390 . S
C507 C504 1.386 . S
C508 C503 1.490 . S
C508 C510 1.395 . S
C508 C511 1.403 . S
H509 C515 0.930 . S
C510 H496 0.930 . S
C510 C508 1.395 . S
C510 C513 1.403 . S
C511 C508 1.403 . S
C511 C512 1.524 . S
C511 C515 1.400 . S
C512 H497 0.960 . S
C512 H498 0.960 . S
C512 H499 0.960 . S
C512 C511 1.524 . S
C513 C510 1.403 . S
C513 C514 1.392 . S
C513 C517 1.495 . S
C514 C513 1.392 . S
C514 C515 1.385 . S
C514 C516 1.478 . S
C515 H509 0.930 . S
C515 C511 1.400 . S
C515 C514 1.385 . S
C516 C514 1.478 . S
C516 C518 1.381 . S
C516 C522 1.383 . S
C517 C513 1.495 . S
C517 H523 0.959 . S
C517 H524 0.961 . S
C517 H525 0.960 . S
C518 C516 1.381 . S
C518 C519 1.394 1_545 S
C518 H526 0.930 1_545 S
C519 C518 1.394 1_565 S
C519 C520 1.383 1_565 S
C519 H527 0.929 . S
C520 C519 1.383 1_545 S
C520 C521 1.377 . S
C521 H505 0.930 . S
C521 C520 1.377 . S
C521 C522 1.379 . S
C522 H506 0.931 . S
C522 C516 1.383 . S
C522 C521 1.379 . S
H523 C517 0.959 . S
H524 C517 0.961 . S
H525 C517 0.960 . S
H526 C518 0.930 1_565 S
H527 C519 0.929 . S
H528 C536 0.929 . S
H529 C538 0.930 . S
H530 C540 0.930 . S
H531 C543 0.929 . S
H532 C546 0.930 . S
H533 C548 0.960 . S
H534 C548 0.960 . S
H535 C548 0.960 . S
C536 H528 0.929 . S
C536 C537 1.377 . S
C536 C538 1.384 . S
C537 C536 1.377 . S
C537 C543 1.390 . S
C538 H529 0.930 . S
C538 C536 1.384 . S
C538 C539 1.372 . S
C539 C538 1.372 . S
C539 C540 1.400 . S
C539 C544 1.490 . S
C540 H530 0.930 . S
C540 C539 1.400 . S
C540 C543 1.386 . S
H541 C557 0.930 . S
H542 C558 0.931 . S
C543 H531 0.929 . S
C543 C537 1.390 . S
C543 C540 1.386 . S
C544 C539 1.490 . S
C544 C546 1.395 . S
C544 C547 1.403 . S
H545 C551 0.930 . S
C546 H532 0.930 . S
C546 C544 1.395 . S
C546 C549 1.403 . S
C547 C544 1.403 . S
C547 C548 1.524 . S
C547 C551 1.400 . S
C548 H533 0.960 . S
C548 H534 0.960 . S
C548 H535 0.960 . S
C548 C547 1.524 . S
C549 C546 1.403 . S
C549 C550 1.392 . S
C549 C553 1.495 . S
C550 C549 1.392 . S
C550 C551 1.385 . S
C550 C552 1.478 . S
C551 H545 0.930 . S
C551 C547 1.400 . S
C551 C550 1.385 . S
C552 C550 1.478 . S
C552 C554 1.381 . S
C552 C558 1.383 . S
C553 C549 1.495 . S
C553 H559 0.959 . S
C553 H560 0.961 . S
C553 H561 0.960 . S
C554 C552 1.381 . S
C554 C555 1.394 . S
C554 H562 0.930 . S
C555 C554 1.394 . S
C555 C556 1.383 . S
C555 H563 0.929 . S
C556 C555 1.383 . S
C556 C557 1.377 . S
C557 H541 0.930 . S
C557 C556 1.377 . S
C557 C558 1.379 . S
C558 H542 0.931 . S
C558 C552 1.383 . S
C558 C557 1.379 . S
H559 C553 0.959 . S
H560 C553 0.961 . S
H561 C553 0.960 . S
H562 C554 0.930 . S
H563 C555 0.929 . S
H564 C572 0.929 . S
H565 C574 0.930 . S
H566 C576 0.930 . S
H567 C579 0.929 . S
H568 C582 0.930 . S
H569 C584 0.960 . S
H570 C584 0.960 . S
H571 C584 0.960 . S
C572 H564 0.929 . S
C572 C573 1.377 . S
C572 C574 1.384 . S
C573 C572 1.377 . S
C573 C579 1.390 . S
C574 H565 0.930 . S
C574 C572 1.384 . S
C574 C575 1.372 . S
C575 C574 1.372 . S
C575 C576 1.400 . S
C575 C580 1.490 . S
C576 H566 0.930 . S
C576 C575 1.400 . S
C576 C579 1.386 . S
H577 C593 0.930 . S
H578 C594 0.931 . S
C579 H567 0.929 . S
C579 C573 1.390 . S
C579 C576 1.386 . S
C580 C575 1.490 . S
C580 C582 1.395 . S
C580 C583 1.403 . S
H581 C587 0.930 . S
C582 H568 0.930 . S
C582 C580 1.395 . S
C582 C585 1.403 . S
C583 C580 1.403 . S
C583 C584 1.524 . S
C583 C587 1.400 . S
C584 H569 0.960 . S
C584 H570 0.960 . S
C584 H571 0.960 . S
C584 C583 1.524 . S
C585 C582 1.403 . S
C585 C586 1.392 . S
C585 C589 1.495 . S
C586 C585 1.392 . S
C586 C587 1.385 . S
C586 C588 1.478 . S
C587 H581 0.930 . S
C587 C583 1.400 . S
C587 C586 1.385 . S
C588 C586 1.478 . S
C588 C590 1.381 . S
C588 C594 1.383 . S
C589 C585 1.495 . S
C589 H595 0.959 . S
C589 H596 0.961 . S
C589 H597 0.960 . S
C590 C588 1.381 . S
C590 C591 1.394 . S
C590 H598 0.930 . S
C591 C590 1.394 . S
C591 C592 1.383 . S
C591 H599 0.929 . S
C592 C591 1.383 . S
C592 C593 1.377 . S
C593 H577 0.930 . S
C593 C592 1.377 . S
C593 C594 1.379 . S
C594 H578 0.931 . S
C594 C588 1.383 . S
C594 C593 1.379 . S
H595 C589 0.959 . S
H596 C589 0.961 . S
H597 C589 0.960 . S
H598 C590 0.930 . S
H599 C591 0.929 . S
H600 C608 0.929 1_554 S
H601 C610 0.930 . S
H602 C612 0.930 . S
H603 C615 0.929 . S
H604 C618 0.930 . S
H605 C620 0.960 . S
H606 C620 0.960 . S
H607 C620 0.960 . S
C608 H600 0.929 1_556 S
C608 C609 1.375 1_455 S
C608 C610 1.384 . S
C609 C608 1.375 1_655 S
C609 C615 1.392 . S
C610 H601 0.930 . S
C610 C608 1.384 . S
C610 C611 1.372 . S
C611 C610 1.372 . S
C611 C612 1.400 1_455 S
C611 C616 1.490 . S
C612 H602 0.930 . S
C612 C611 1.400 1_655 S
C612 C615 1.386 . S
H613 C629 0.947 . S
H614 C630 0.944 . S
C615 H603 0.929 . S
C615 C609 1.392 . S
C615 C612 1.386 . S
C616 C611 1.490 . S
C616 C618 1.395 . S
C616 C619 1.403 1_455 S
H617 C623 0.930 . S
C618 H604 0.930 . S
C618 C616 1.395 . S
C618 C621 1.403 . S
C619 C616 1.403 1_655 S
C619 C620 1.524 . S
C619 C623 1.400 . S
C620 H605 0.960 . S
C620 H606 0.960 . S
C620 H607 0.960 . S
C620 C619 1.524 . S
C621 C618 1.403 . S
C621 C622 1.392 . S
C621 C625 1.495 . S
C622 C621 1.392 . S
C622 C623 1.385 1_455 S
C622 C624 1.478 . S
C623 H617 0.930 . S
C623 C619 1.400 . S
C623 C622 1.385 1_655 S
C624 C622 1.478 . S
C624 C626 1.381 . S
C624 C630 1.370 1_455 S
C625 C621 1.495 . S
C625 H631 0.959 . S
C625 H632 0.961 . S
C625 H633 0.960 . S
C626 C624 1.381 . S
C626 C627 1.394 . S
C626 H634 0.930 . S
C627 C626 1.394 . S
C627 C628 1.383 . S
C627 H635 0.929 . S
C628 C627 1.383 . S
C628 C629 1.360 1_455 S
C629 H613 0.947 . S
C629 C628 1.360 1_655 S
C629 C630 1.379 . S
C630 H614 0.944 . S
C630 C624 1.370 1_655 S
C630 C629 1.379 . S
H631 C625 0.959 . S
H632 C625 0.961 . S
H633 C625 0.960 . S
H634 C626 0.930 . S
H635 C627 0.929 . S
H636 C644 0.929 . S
H637 C646 0.930 . S
H638 C648 0.930 . S
H639 C651 0.929 . S
H640 C654 0.930 . S
H641 C656 0.960 . S
H642 C656 0.960 . S
H643 C656 0.960 . S
C644 H636 0.929 . S
C644 C645 1.377 . S
C644 C646 1.384 . S
C645 C644 1.377 . S
C645 C651 1.390 . S
C646 H637 0.930 . S
C646 C644 1.384 . S
C646 C647 1.372 . S
C647 C646 1.372 . S
C647 C648 1.400 . S
C647 C652 1.490 . S
C648 H638 0.930 . S
C648 C647 1.400 . S
C648 C651 1.386 . S
H649 C665 0.930 . S
H650 C666 0.931 . S
C651 H639 0.929 . S
C651 C645 1.390 . S
C651 C648 1.386 . S
C652 C647 1.490 . S
C652 C654 1.395 . S
C652 C655 1.403 . S
H653 C659 0.930 . S
C654 H640 0.930 . S
C654 C652 1.395 . S
C654 C657 1.403 . S
C655 C652 1.403 . S
C655 C656 1.524 . S
C655 C659 1.400 . S
C656 H641 0.960 . S
C656 H642 0.960 . S
C656 H643 0.960 . S
C656 C655 1.524 . S
C657 C654 1.403 . S
C657 C658 1.392 . S
C657 C661 1.495 . S
C658 C657 1.392 . S
C658 C659 1.385 . S
C658 C660 1.478 . S
C659 H653 0.930 . S
C659 C655 1.400 . S
C659 C658 1.385 . S
C660 C658 1.478 . S
C660 C662 1.381 1_565 S
C660 C666 1.383 . S
C661 C657 1.495 . S
C661 H667 0.959 . S
C661 H668 0.961 . S
C661 H669 0.960 . S
C662 C660 1.381 1_545 S
C662 C663 1.394 . S
C662 H670 0.930 . S
C663 C662 1.394 . S
C663 C664 1.383 . S
C663 H671 0.929 . S
C664 C663 1.383 . S
C664 C665 1.377 1_545 S
C665 H649 0.930 . S
C665 C664 1.377 1_565 S
C665 C666 1.379 . S
C666 H650 0.931 . S
C666 C660 1.383 . S
C666 C665 1.379 . S
H667 C661 0.959 . S
H668 C661 0.961 . S
H669 C661 0.960 . S
H670 C662 0.930 . S
H671 C663 0.929 . S
H672 C680 0.929 . S
H673 C682 0.930 . S
H674 C684 0.930 . S
H675 C687 0.929 1_554 S
H676 C690 0.930 . S
H677 C692 0.960 . S
H678 C692 0.960 . S
H679 C692 0.960 . S
C680 H672 0.929 . S
C680 C681 1.377 . S
C680 C682 1.384 . S
C681 C680 1.377 . S
C681 C687 1.390 . S
C682 H673 0.930 . S
C682 C680 1.384 . S
C682 C683 1.372 . S
C683 C682 1.372 . S
C683 C684 1.400 . S
C683 C688 1.490 . S
C684 H674 0.930 . S
C684 C683 1.400 . S
C684 C687 1.386 . S
H685 C701 0.930 . S
H686 C702 0.931 . S
C687 H675 0.929 1_556 S
C687 C681 1.390 . S
C687 C684 1.386 . S
C688 C683 1.490 . S
C688 C690 1.395 . S
C688 C691 1.403 . S
H689 C695 0.930 . S
C690 H676 0.930 . S
C690 C688 1.395 . S
C690 C693 1.403 . S
C691 C688 1.403 . S
C691 C692 1.524 . S
C691 C695 1.400 . S
C692 H677 0.960 . S
C692 H678 0.960 . S
C692 H679 0.960 . S
C692 C691 1.524 . S
C693 C690 1.403 . S
C693 C694 1.392 . S
C693 C697 1.495 . S
C694 C693 1.392 . S
C694 C695 1.385 . S
C694 C696 1.478 . S
C695 H689 0.930 . S
C695 C691 1.400 . S
C695 C694 1.385 . S
C696 C694 1.478 . S
C696 C698 1.381 . S
C696 C702 1.383 . S
C697 C693 1.495 . S
C697 H703 0.959 . S
C697 H704 0.961 . S
C697 H705 0.960 . S
C698 C696 1.381 . S
C698 C699 1.394 . S
C698 H706 0.930 . S
C699 C698 1.394 . S
C699 C700 1.383 . S
C699 H707 0.929 . S
C700 C699 1.383 . S
C700 C701 1.377 . S
C701 H685 0.930 . S
C701 C700 1.377 . S
C701 C702 1.379 . S
C702 H686 0.931 . S
C702 C696 1.383 . S
C702 C701 1.379 . S
H703 C697 0.959 . S
H704 C697 0.961 . S
H705 C697 0.960 . S
H706 C698 0.930 . S
H707 C699 0.929 . S
H708 C716 0.929 1_554 S
H709 C718 0.930 . S
H710 C720 0.930 . S
H711 C723 0.929 . S
H712 C726 0.930 . S
H713 C728 0.960 . S
H714 C728 0.960 . S
H715 C728 0.960 . S
C716 H708 0.929 1_556 S
C716 C717 1.377 . S
C716 C718 1.384 . S
C717 C716 1.377 . S
C717 C723 1.390 . S
C718 H709 0.930 . S
C718 C716 1.384 . S
C718 C719 1.372 . S
C719 C718 1.372 . S
C719 C720 1.400 . S
C719 C724 1.490 . S
C720 H710 0.930 . S
C720 C719 1.400 . S
C720 C723 1.386 . S
H721 C737 0.930 . S
H722 C738 0.931 . S
C723 H711 0.929 . S
C723 C717 1.390 . S
C723 C720 1.386 . S
C724 C719 1.490 . S
C724 C726 1.395 . S
C724 C727 1.403 . S
H725 C731 0.930 . S
C726 H712 0.930 . S
C726 C724 1.395 . S
C726 C729 1.403 . S
C727 C724 1.403 . S
C727 C728 1.524 . S
C727 C731 1.400 . S
C728 H713 0.960 . S
C728 H714 0.960 . S
C728 H715 0.960 . S
C728 C727 1.524 . S
C729 C726 1.403 . S
C729 C730 1.392 . S
C729 C733 1.495 . S
C730 C729 1.392 . S
C730 C731 1.385 . S
C730 C732 1.478 . S
C731 H725 0.930 . S
C731 C727 1.400 . S
C731 C730 1.385 . S
C732 C730 1.478 . S
C732 C734 1.381 . S
C732 C738 1.383 . S
C733 C729 1.495 . S
C733 H739 0.959 . S
C733 H740 0.961 . S
C733 H741 0.960 . S
C734 C732 1.381 . S
C734 C735 1.394 . S
C734 H742 0.930 . S
C735 C734 1.394 . S
C735 C736 1.383 . S
C735 H743 0.929 . S
C736 C735 1.383 . S
C736 C737 1.377 . S
C737 H721 0.930 . S
C737 C736 1.377 . S
C737 C738 1.379 . S
C738 H722 0.931 . S
C738 C732 1.383 . S
C738 C737 1.379 . S
H739 C733 0.959 . S
H740 C733 0.961 . S
H741 C733 0.960 . S
H742 C734 0.930 . S
H743 C735 0.929 . S
H744 C752 0.929 . S
H745 C754 0.930 . S
H746 C756 0.930 . S
H747 C759 0.929 . S
H748 C762 0.930 1_554 S
H749 C764 0.960 . S
H750 C764 0.957 1_455 S
H751 C764 0.960 . S
C752 H744 0.929 . S
C752 C753 1.414 . S
C752 C754 1.384 1_554 S
C753 C752 1.414 . S
C753 C759 1.355 1_455 S
C754 H745 0.930 . S
C754 C752 1.384 1_556 S
C754 C755 1.372 . S
C755 C754 1.372 . S
C755 C756 1.400 1_455 S
C755 C760 1.490 . S
C756 H746 0.930 . S
C756 C755 1.400 1_655 S
C756 C759 1.386 1_556 S
H757 C773 0.930 . S
H758 C774 0.931 . S
C759 H747 0.929 . S
C759 C753 1.355 1_655 S
C759 C756 1.386 1_554 S
C760 C755 1.490 . S
C760 C762 1.395 . S
C760 C763 1.403 1_455 S
H761 C767 0.930 . S
C762 H748 0.930 1_556 S
C762 C760 1.395 . S
C762 C765 1.403 . S
C763 C760 1.403 1_655 S
C763 C764 1.524 . S
C763 C767 1.400 . S
C764 H749 0.960 . S
C764 H750 0.957 1_655 S
C764 H751 0.960 . S
C764 C763 1.524 . S
C765 C762 1.403 . S
C765 C766 1.392 . S
C765 C769 1.495 . S
C766 C765 1.392 . S
C766 C767 1.385 1_455 S
C766 C768 1.478 . S
C767 H761 0.930 . S
C767 C763 1.400 . S
C767 C766 1.385 1_655 S
C768 C766 1.478 . S
C768 C770 1.381 . S
C768 C774 1.383 1_455 S
C769 C765 1.495 . S
C769 H775 0.959 1_556 S
C769 H776 0.961 . S
C769 H777 0.960 . S
C770 C768 1.381 . S
C770 C771 1.394 . S
C770 H778 0.930 . S
C771 C770 1.394 . S
C771 C772 1.383 . S
C771 H779 0.929 . S
C772 C771 1.383 . S
C772 C773 1.377 1_455 S
C773 H757 0.930 . S
C773 C772 1.377 1_655 S
C773 C774 1.379 . S
C774 H758 0.931 . S
C774 C768 1.383 1_655 S
C774 C773 1.379 . S
H775 C769 0.959 1_554 S
H776 C769 0.961 . S
H777 C769 0.960 . S
H778 C770 0.930 . S
H779 C771 0.929 . S
H780 C788 0.929 . S
H781 C790 0.930 . S
H782 C792 0.930 . S
H783 C795 0.929 . S
H784 C798 0.930 1_554 S
H785 C800 0.960 . S
H786 C800 0.960 . S
H787 C800 0.960 . S
C788 H780 0.929 . S
C788 C789 1.377 . S
C788 C790 1.384 . S
C789 C788 1.377 . S
C789 C795 1.390 1_554 S
C790 H781 0.930 . S
C790 C788 1.384 . S
C790 C791 1.372 1_554 S
C791 C790 1.372 1_556 S
C791 C792 1.400 . S
C791 C796 1.490 . S
C792 H782 0.930 . S
C792 C791 1.400 . S
C792 C795 1.386 . S
H793 C809 0.930 . S
H794 C810 0.931 . S
C795 H783 0.929 . S
C795 C789 1.390 1_556 S
C795 C792 1.386 . S
C796 C791 1.490 . S
C796 C798 1.395 . S
C796 C799 1.403 . S
H797 C803 0.930 . S
C798 H784 0.930 1_556 S
C798 C796 1.395 . S
C798 C801 1.403 . S
C799 C796 1.403 . S
C799 C800 1.524 . S
C799 C803 1.400 . S
C800 H785 0.960 . S
C800 H786 0.960 . S
C800 H787 0.960 . S
C800 C799 1.524 . S
C801 C798 1.403 . S
C801 C802 1.392 . S
C801 C805 1.495 . S
C802 C801 1.392 . S
C802 C803 1.385 . S
C802 C804 1.478 . S
C803 H797 0.930 . S
C803 C799 1.400 . S
C803 C802 1.385 . S
C804 C802 1.478 . S
C804 C806 1.381 . S
C804 C810 1.383 . S
C805 C801 1.495 . S
C805 H811 0.959 . S
C805 H812 0.964 1_545 S
C805 H813 0.960 . S
C806 C804 1.381 . S
C806 C807 1.394 . S
C806 H814 0.930 . S
C807 C806 1.394 . S
C807 C808 1.383 . S
C807 H815 0.929 . S
C808 C807 1.383 . S
C808 C809 1.377 . S
C809 H793 0.930 . S
C809 C808 1.377 . S
C809 C810 1.379 . S
C810 H794 0.931 . S
C810 C804 1.383 . S
C810 C809 1.379 . S
H811 C805 0.959 . S
H812 C805 0.964 1_565 S
H813 C805 0.960 . S
H814 C806 0.930 . S
H815 C807 0.929 . S
H816 C824 0.929 . S
H817 C826 0.930 . S
H818 C828 0.930 . S
H819 C831 0.929 . S
H820 C834 0.930 . S
H821 C836 0.960 . S
H822 C836 0.960 . S
H823 C836 0.960 . S
C824 H816 0.929 . S
C824 C825 1.377 1_556 S
C824 C826 1.384 . S
C825 C824 1.377 1_554 S
C825 C831 1.390 . S
C826 H817 0.930 . S
C826 C824 1.384 . S
C826 C827 1.372 . S
C827 C826 1.372 . S
C827 C828 1.400 1_556 S
C827 C832 1.490 . S
C828 H818 0.930 . S
C828 C827 1.400 1_554 S
C828 C831 1.386 . S
H829 C845 0.930 . S
H830 C846 0.931 . S
C831 H819 0.929 . S
C831 C825 1.390 . S
C831 C828 1.386 . S
C832 C827 1.490 . S
C832 C834 1.395 . S
C832 C835 1.403 . S
H833 C839 0.930 . S
C834 H820 0.930 . S
C834 C832 1.395 . S
C834 C837 1.403 . S
C835 C832 1.403 . S
C835 C836 1.524 1_556 S
C835 C839 1.400 . S
C836 H821 0.960 . S
C836 H822 0.960 . S
C836 H823 0.960 . S
C836 C835 1.524 1_554 S
C837 C834 1.403 . S
C837 C838 1.392 . S
C837 C841 1.495 . S
C838 C837 1.392 . S
C838 C839 1.385 . S
C838 C840 1.478 . S
C839 H833 0.930 . S
C839 C835 1.400 . S
C839 C838 1.385 . S
C840 C838 1.478 . S
C840 C842 1.381 . S
C840 C846 1.383 . S
C841 C837 1.495 . S
C841 H847 0.959 . S
C841 H848 0.961 . S
C841 H849 0.960 . S
C842 C840 1.381 . S
C842 C843 1.394 . S
C842 H850 0.930 . S
C843 C842 1.394 . S
C843 C844 1.383 . S
C843 H851 0.929 . S
C844 C843 1.383 . S
C844 C845 1.377 . S
C845 H829 0.930 . S
C845 C844 1.377 . S
C845 C846 1.379 . S
C846 H830 0.931 . S
C846 C840 1.383 . S
C846 C845 1.379 . S
H847 C841 0.959 . S
H848 C841 0.961 . S
H849 C841 0.960 . S
H850 C842 0.930 . S
H851 C843 0.929 . S
H852 C860 0.929 . S
H853 C862 0.930 . S
H854 C864 0.930 . S
H855 C867 0.929 . S
H856 C870 0.930 1_554 S
H857 C872 0.960 . S
H858 C872 0.960 . S
H859 C872 0.960 . S
C860 H852 0.929 . S
C860 C861 1.377 . S
C860 C862 1.384 . S
C861 C860 1.377 . S
C861 C867 1.390 . S
C862 H853 0.930 . S
C862 C860 1.384 . S
C862 C863 1.372 1_554 S
C863 C862 1.372 1_556 S
C863 C864 1.400 . S
C863 C868 1.490 . S
C864 H854 0.930 . S
C864 C863 1.400 . S
C864 C867 1.386 1_556 S
H865 C881 0.930 . S
H866 C882 0.931 . S
C867 H855 0.929 . S
C867 C861 1.390 . S
C867 C864 1.386 1_554 S
C868 C863 1.490 . S
C868 C870 1.395 . S
C868 C871 1.403 . S
H869 C875 0.930 . S
C870 H856 0.930 1_556 S
C870 C868 1.395 . S
C870 C873 1.403 . S
C871 C868 1.403 . S
C871 C872 1.524 . S
C871 C875 1.400 . S
C872 H857 0.960 . S
C872 H858 0.960 . S
C872 H859 0.960 . S
C872 C871 1.524 . S
C873 C870 1.403 . S
C873 C874 1.392 . S
C873 C877 1.495 . S
C874 C873 1.392 . S
C874 C875 1.385 . S
C874 C876 1.478 . S
C875 H869 0.930 . S
C875 C871 1.400 . S
C875 C874 1.385 . S
C876 C874 1.478 . S
C876 C878 1.381 . S
C876 C882 1.383 . S
C877 C873 1.495 . S
C877 H883 0.959 1_556 S
C877 H884 0.961 . S
C877 H885 0.960 . S
C878 C876 1.381 . S
C878 C879 1.394 . S
C878 H886 0.930 . S
C879 C878 1.394 . S
C879 C880 1.383 . S
C879 H887 0.929 . S
C880 C879 1.383 . S
C880 C881 1.377 . S
C881 H865 0.930 . S
C881 C880 1.377 . S
C881 C882 1.379 . S
C882 H866 0.931 . S
C882 C876 1.383 . S
C882 C881 1.379 . S
H883 C877 0.959 1_554 S
H884 C877 0.961 . S
H885 C877 0.960 . S
H886 C878 0.930 . S
H887 C879 0.929 . S
H888 C896 0.929 . S
H889 C898 0.930 . S
H890 C900 0.930 . S
H891 C903 0.929 . S
H892 C906 0.930 . S
H893 C908 0.960 . S
H894 C908 0.960 . S
H895 C908 0.960 . S
C896 H888 0.929 . S
C896 C897 1.388 . S
C896 C898 1.384 . S
C897 C896 1.388 . S
C897 C903 1.380 1_655 S
C898 H889 0.930 . S
C898 C896 1.384 . S
C898 C899 1.372 . S
C899 C898 1.372 . S
C899 C900 1.400 1_655 S
C899 C904 1.490 . S
C900 H890 0.930 . S
C900 C899 1.400 1_455 S
C900 C903 1.386 . S
H901 C917 0.944 . S
H902 C918 0.931 1_455 S
C903 H891 0.929 . S
C903 C897 1.380 1_455 S
C903 C900 1.386 . S
C904 C899 1.490 . S
C904 C906 1.395 . S
C904 C907 1.403 1_655 S
H905 C911 0.930 . S
C906 H892 0.930 . S
C906 C904 1.395 . S
C906 C909 1.403 . S
C907 C904 1.403 1_455 S
C907 C908 1.524 . S
C907 C911 1.400 . S
C908 H893 0.960 . S
C908 H894 0.960 . S
C908 H895 0.960 . S
C908 C907 1.524 . S
C909 C906 1.403 . S
C909 C910 1.392 . S
C909 C913 1.495 . S
C910 C909 1.392 . S
C910 C911 1.385 1_655 S
C910 C912 1.478 . S
C911 H905 0.930 . S
C911 C907 1.400 . S
C911 C910 1.385 1_455 S
C912 C910 1.478 . S
C912 C914 1.381 . S
C912 C918 1.383 . S
C913 C909 1.495 . S
C913 H919 0.959 . S
C913 H920 0.961 . S
C913 H921 0.960 . S
C914 C912 1.381 . S
C914 C915 1.394 . S
C914 H922 0.930 . S
C915 C914 1.394 . S
C915 C916 1.383 . S
C915 H923 0.929 . S
C916 C915 1.383 . S
C916 C917 1.365 1_655 S
C917 H901 0.944 . S
C917 C916 1.365 1_455 S
C917 C918 1.379 1_455 S
C918 H902 0.931 1_655 S
C918 C912 1.383 . S
C918 C917 1.379 1_655 S
H919 C913 0.959 . S
H920 C913 0.961 . S
H921 C913 0.960 . S
H922 C914 0.930 . S
H923 C915 0.929 . S
H924 C932 0.929 . S
H925 C934 0.930 . S
H926 C936 0.930 . S
H927 C939 0.929 . S
H928 C942 0.930 . S
H929 C944 0.960 . S
H930 C944 0.960 . S
H931 C944 0.960 . S
C932 H924 0.929 . S
C932 C933 1.377 . S
C932 C934 1.384 . S
C933 C932 1.377 . S
C933 C939 1.390 . S
C934 H925 0.930 . S
C934 C932 1.384 . S
C934 C935 1.372 . S
C935 C934 1.372 . S
C935 C936 1.400 . S
C935 C940 1.490 . S
C936 H926 0.930 . S
C936 C935 1.400 . S
C936 C939 1.386 . S
H937 C953 0.930 . S
H938 C954 0.931 . S
C939 H927 0.929 . S
C939 C933 1.390 . S
C939 C936 1.386 . S
C940 C935 1.490 . S
C940 C942 1.395 . S
C940 C943 1.403 . S
H941 C947 0.930 . S
C942 H928 0.930 . S
C942 C940 1.395 . S
C942 C945 1.403 . S
C943 C940 1.403 . S
C943 C944 1.524 . S
C943 C947 1.400 . S
C944 H929 0.960 . S
C944 H930 0.960 . S
C944 H931 0.960 . S
C944 C943 1.524 . S
C945 C942 1.403 . S
C945 C946 1.392 . S
C945 C949 1.495 . S
C946 C945 1.392 . S
C946 C947 1.385 . S
C946 C948 1.478 . S
C947 H941 0.930 . S
C947 C943 1.400 . S
C947 C946 1.385 . S
C948 C946 1.478 . S
C948 C950 1.381 . S
C948 C954 1.383 . S
C949 C945 1.495 . S
C949 H955 0.959 . S
C949 H956 0.961 . S
C949 H957 0.960 . S
C950 C948 1.381 . S
C950 C951 1.394 1_565 S
C950 H958 0.930 1_565 S
C951 C950 1.394 1_545 S
C951 C952 1.383 1_545 S
C951 H959 0.929 . S
C952 C951 1.383 1_565 S
C952 C953 1.377 . S
C953 H937 0.930 . S
C953 C952 1.377 . S
C953 C954 1.379 . S
C954 H938 0.931 . S
C954 C948 1.383 . S
C954 C953 1.379 . S
H955 C949 0.959 . S
H956 C949 0.961 . S
H957 C949 0.960 . S
H958 C950 0.930 1_545 S
H959 C951 0.929 . S
H960 C968 0.929 . S
H961 C970 0.930 . S
H962 C972 0.930 . S
H963 C975 0.929 . S
H964 C978 0.930 . S
H965 C980 0.960 . S
H966 C980 0.960 . S
H967 C980 0.960 . S
C968 H960 0.929 . S
C968 C969 1.377 . S
C968 C970 1.384 . S
C969 C968 1.377 . S
C969 C975 1.390 . S
C970 H961 0.930 . S
C970 C968 1.384 . S
C970 C971 1.372 . S
C971 C970 1.372 . S
C971 C972 1.400 . S
C971 C976 1.490 . S
C972 H962 0.930 . S
C972 C971 1.400 . S
C972 C975 1.386 . S
H973 C989 0.930 . S
H974 C990 0.931 . S
C975 H963 0.929 . S
C975 C969 1.390 . S
C975 C972 1.386 . S
C976 C971 1.490 . S
C976 C978 1.395 . S
C976 C979 1.403 . S
H977 C983 0.930 . S
C978 H964 0.930 . S
C978 C976 1.395 . S
C978 C981 1.403 . S
C979 C976 1.403 . S
C979 C980 1.524 . S
C979 C983 1.400 . S
C980 H965 0.960 . S
C980 H966 0.960 . S
C980 H967 0.960 . S
C980 C979 1.524 . S
C981 C978 1.403 . S
C981 C982 1.392 . S
C981 C985 1.495 . S
C982 C981 1.392 . S
C982 C983 1.385 . S
C982 C984 1.478 . S
C983 H977 0.930 . S
C983 C979 1.400 . S
C983 C982 1.385 . S
C984 C982 1.478 . S
C984 C986 1.381 . S
C984 C990 1.383 . S
C985 C981 1.495 . S
C985 H991 0.959 . S
C985 H992 0.961 . S
C985 H993 0.960 . S
C986 C984 1.381 . S
C986 C987 1.394 . S
C986 H994 0.930 . S
C987 C986 1.394 . S
C987 C988 1.383 . S
C987 H995 0.929 . S
C988 C987 1.383 . S
C988 C989 1.377 . S
C989 H973 0.930 . S
C989 C988 1.377 . S
C989 C990 1.379 . S
C990 H974 0.931 . S
C990 C984 1.383 . S
C990 C989 1.379 . S
H991 C985 0.959 . S
H992 C985 0.961 . S
H993 C985 0.960 . S
H994 C986 0.930 . S
H995 C987 0.929 . S
H996 C1004 0.929 . S
H997 C1006 0.930 . S
H998 C1008 0.930 . S
H999 C1011 0.929 . S
H1000 C1014 0.930 . S
H1001 C1016 0.960 . S
H1002 C1016 0.960 . S
H1003 C1016 0.960 . S
C1004 H996 0.929 . S
C1004 C1005 1.377 . S
C1004 C1006 1.384 . S
C1005 C1004 1.377 . S
C1005 C1011 1.390 . S
C1006 H997 0.930 . S
C1006 C1004 1.384 . S
C1006 C1007 1.372 . S
C1007 C1006 1.372 . S
C1007 C1008 1.400 . S
C1007 C1012 1.490 . S
C1008 H998 0.930 . S
C1008 C1007 1.400 . S
C1008 C1011 1.386 . S
H1009 C1025 0.930 . S
H1010 C1026 0.931 . S
C1011 H999 0.929 . S
C1011 C1005 1.390 . S
C1011 C1008 1.386 . S
C1012 C1007 1.490 . S
C1012 C1014 1.395 . S
C1012 C1015 1.403 . S
H1013 C1019 0.930 . S
C1014 H1000 0.930 . S
C1014 C1012 1.395 . S
C1014 C1017 1.403 . S
C1015 C1012 1.403 . S
C1015 C1016 1.524 . S
C1015 C1019 1.400 . S
C1016 H1001 0.960 . S
C1016 H1002 0.960 . S
C1016 H1003 0.960 . S
C1016 C1015 1.524 . S
C1017 C1014 1.403 . S
C1017 C1018 1.392 . S
C1017 C1021 1.495 . S
C1018 C1017 1.392 . S
C1018 C1019 1.385 . S
C1018 C1020 1.478 . S
C1019 H1013 0.930 . S
C1019 C1015 1.400 . S
C1019 C1018 1.385 . S
C1020 C1018 1.478 . S
C1020 C1022 1.381 . S
C1020 C1026 1.383 . S
C1021 C1017 1.495 . S
C1021 H1027 0.959 . S
C1021 H1028 0.961 . S
C1021 H1029 0.960 . S
C1022 C1020 1.381 . S
C1022 C1023 1.394 . S
C1022 H1030 0.930 . S
C1023 C1022 1.394 . S
C1023 C1024 1.383 . S
C1023 H1031 0.929 . S
C1024 C1023 1.383 . S
C1024 C1025 1.377 . S
C1025 H1009 0.930 . S
C1025 C1024 1.377 . S
C1025 C1026 1.379 . S
C1026 H1010 0.931 . S
C1026 C1020 1.383 . S
C1026 C1025 1.379 . S
H1027 C1021 0.959 . S
H1028 C1021 0.961 . S
H1029 C1021 0.960 . S
H1030 C1022 0.930 . S
H1031 C1023 0.929 . S
C177 C74 1.527 . S
C196 C106 1.507 . S
C232 C126 1.336 . S
C213 C85 1.372 . S
C268 C146 1.503 . S
C249 C52 1.525 . S
C304 C166 1.368 . S
C285 C63 1.387 . S
C340 C107 1.510 1_565 S
C321 C30 1.495 . S
C357 C41 1.384 . S
C376 C127 1.383 . S
C393 C8 1.488 . S
C412 C147 1.520 . S
C429 C19 1.381 1_655 S
C448 C167 1.356 . S
C484 C97 0.774 . S
C465 C62 0.717 . S
C520 C117 0.810 . S
C501 C73 0.766 . S
C556 C137 0.748 . S
C537 C84 0.746 . S
C573 C51 0.743 . S
C592 C157 0.689 . S
C609 C18 0.722 1_655 S
C628 C100 0.742 . S
C664 C120 0.730 1_545 S
C645 C29 0.757 . S
C700 C140 0.686 . S
C681 C40 0.732 . S
C717 C7 0.749 . S
C736 C160 0.787 . S
C753 C60 1.281 . S
C772 C90 1.483 . S
C789 C71 1.392 . S
C808 C110 1.518 . S
C844 C130 1.403 . S
C825 C82 1.241 . S
C880 C150 1.566 . S
C861 C49 1.417 . S
C897 C16 1.272 1_655 S
C916 C92 1.464 . S
C952 C112 1.543 . S
C933 C27 1.253 . S
C988 C132 1.397 . S
C969 C38 1.285 . S
C1005 C5 1.278 . S
C1024 C152 1.523 . S
