# Generated by pormake.
# Topology pyr, (3,6)-cn, num edge types: 1
# Building blocks:
#     Node 0, Type 0, BuildingBlock: OLANEW_clean_sbu_2, # of connection points: 3
#     Node 1, Type 0, BuildingBlock: OLANEW_clean_sbu_2, # of connection points: 3
#     Node 2, Type 0, BuildingBlock: OLANEW_clean_sbu_2, # of connection points: 3
#     Node 3, Type 0, BuildingBlock: OLANEW_clean_sbu_2, # of connection points: 3
#     Node 4, Type 0, BuildingBlock: OLANEW_clean_sbu_2, # of connection points: 3
#     Node 5, Type 0, BuildingBlock: OLANEW_clean_sbu_2, # of connection points: 3
#     Node 6, Type 0, BuildingBlock: OLANEW_clean_sbu_2, # of connection points: 3
#     Node 7, Type 0, BuildingBlock: OLANEW_clean_sbu_2, # of connection points: 3
#     Node 8, Type 1, BuildingBlock: VOLQOD_clean_sbu_1, # of connection points: 6
#     Node 9, Type 1, BuildingBlock: VOLQOD_clean_sbu_1, # of connection points: 6
#     Node 10, Type 1, BuildingBlock: VOLQOD_clean_sbu_1, # of connection points: 6
#     Node 11, Type 1, BuildingBlock: VOLQOD_clean_sbu_1, # of connection points: 6
#     Edge 12, Type (0, 1), BuildingBlock: OJICUG_clean_linker_0, # of connection points: 2
#     Edge 13, Type (0, 1), BuildingBlock: OJICUG_clean_linker_0, # of connection points: 2
#     Edge 14, Type (0, 1), BuildingBlock: OJICUG_clean_linker_0, # of connection points: 2
#     Edge 15, Type (0, 1), BuildingBlock: OJICUG_clean_linker_0, # of connection points: 2
#     Edge 16, Type (0, 1), BuildingBlock: OJICUG_clean_linker_0, # of connection points: 2
#     Edge 17, Type (0, 1), BuildingBlock: OJICUG_clean_linker_0, # of connection points: 2
#     Edge 18, Type (0, 1), BuildingBlock: OJICUG_clean_linker_0, # of connection points: 2
#     Edge 19, Type (0, 1), BuildingBlock: OJICUG_clean_linker_0, # of connection points: 2
#     Edge 20, Type (0, 1), BuildingBlock: OJICUG_clean_linker_0, # of connection points: 2
#     Edge 21, Type (0, 1), BuildingBlock: OJICUG_clean_linker_0, # of connection points: 2
#     Edge 22, Type (0, 1), BuildingBlock: OJICUG_clean_linker_0, # of connection points: 2
#     Edge 23, Type (0, 1), BuildingBlock: OJICUG_clean_linker_0, # of connection points: 2
#     Edge 24, Type (0, 1), BuildingBlock: OJICUG_clean_linker_0, # of connection points: 2
#     Edge 25, Type (0, 1), BuildingBlock: OJICUG_clean_linker_0, # of connection points: 2
#     Edge 26, Type (0, 1), BuildingBlock: OJICUG_clean_linker_0, # of connection points: 2
#     Edge 27, Type (0, 1), BuildingBlock: OJICUG_clean_linker_0, # of connection points: 2
#     Edge 28, Type (0, 1), BuildingBlock: OJICUG_clean_linker_0, # of connection points: 2
#     Edge 29, Type (0, 1), BuildingBlock: OJICUG_clean_linker_0, # of connection points: 2
#     Edge 30, Type (0, 1), BuildingBlock: OJICUG_clean_linker_0, # of connection points: 2
#     Edge 31, Type (0, 1), BuildingBlock: OJICUG_clean_linker_0, # of connection points: 2
#     Edge 32, Type (0, 1), BuildingBlock: OJICUG_clean_linker_0, # of connection points: 2
#     Edge 33, Type (0, 1), BuildingBlock: OJICUG_clean_linker_0, # of connection points: 2
#     Edge 34, Type (0, 1), BuildingBlock: OJICUG_clean_linker_0, # of connection points: 2
#     Edge 35, Type (0, 1), BuildingBlock: OJICUG_clean_linker_0, # of connection points: 2
# Relax obj value: 0.097
# Max RMSD: 0.151
# Mean RMSD: 0.133
data_MOF--net-pry--node1-OLANEW_clean_sbu_2--node2-VOLQOD_clean_sbu_1--edge1-OJICUG_clean_linker_0
_symmetry_space_group_name_H-M    P1
_symmetry_Int_Tables_number       1
_symmetry_cell_setting            triclinic
loop_
_symmetry_equiv_pos_as_xyz
'x, y, z'
_cell_length_a     29.524782
_cell_length_b     29.82146
_cell_length_c     29.108907
_cell_angle_alpha  95.013495
_cell_angle_beta   89.912662
_cell_angle_gamma 95.104556
loop_
_atom_site_label
_atom_site_type_symbol
_atom_site_fract_x
_atom_site_fract_y
_atom_site_fract_z
_atom_type_partial_charge
O0 O 0.1979 0.12863 0.0994 0.0
Cd1 Cd 0.11789 0.14452 0.10899 0.0
O2 O 0.19666 0.09289 0.16253 0.0
Cd3 Cd 0.13244 0.11152 0.19173 0.0
O4 O 0.10235 0.1061 0.25964 0.0
C5 C 0.08264 0.06813 0.26812 0.0
O6 O 0.07742 0.03558 0.2346 0.0
C7 C 0.21708 0.10478 0.12651 0.0
C8 C 0.09372 0.22818 0.08506 0.0
O9 O 0.10046 0.22126 0.12726 0.0
O10 O 0.09965 0.19611 0.05397 0.0
O11 O 0.542 0.9623 0.73614 0.0
Cd12 Cd 0.55168 0.9547 0.65257 0.0
O13 O 0.47023 0.97189 0.72686 0.0
Cd14 Cd 0.39809 0.97913 0.73992 0.0
O15 O 0.32725 0.97865 0.71718 0.0
C16 C 0.31932 -0.00145 0.68149 0.0
O17 O 0.35349 0.01983 0.66101 0.0
C18 C 0.50346 0.96864 0.75379 0.0
C19 C 0.55063 0.86359 0.62145 0.0
O20 O 0.58759 0.88657 0.6353 0.0
O21 O 0.51416 0.88392 0.62159 0.0
O22 O 0.67909 0.51571 0.98198 0.0
Cd23 Cd 0.60006 0.52902 0.96686 0.0
O24 O 0.66172 0.44681 0.9514 0.0
Cd25 Cd 0.67148 0.37557 0.93848 0.0
O26 O 0.64255 0.30982 0.95644 0.0
C27 C 0.63934 0.30434 0.99916 0.0
O28 O 0.65604 0.33693 0.02935 0.0
C29 C 0.69092 0.47643 0.97038 0.0
C30 C 0.58235 0.52947 0.87274 0.0
O31 O 0.59781 0.56538 0.8972 0.0
O32 O 0.57505 0.49294 0.89279 0.0
O33 O 0.94513 0.67364 0.44969 0.0
Cd34 Cd 0.90865 0.59906 0.4237 0.0
O35 O 0.98826 0.65477 0.50515 0.0
Cd36 Cd 0.95422 0.58668 0.4957 0.0
O37 O 0.88488 0.55612 0.50161 0.0
C38 C 0.86291 0.57616 0.53357 0.0
O39 O 0.88448 0.60906 0.56022 0.0
C40 C 0.97483 0.68478 0.48121 0.0
C41 C 0.92974 0.576 0.33203 0.0
O42 O 0.89924 0.60297 0.34283 0.0
O43 O 0.95013 0.55935 0.36455 0.0
O44 O 0.90981 0.90688 0.88514 0.0
Cd45 Cd 0.87815 0.88493 0.95804 0.0
O46 O 0.93637 0.97592 0.91055 0.0
Cd47 Cd 0.90608 0.96731 0.9776 0.0
O48 O 0.84301 0.96216 0.01586 0.0
C49 C 0.83006 0.99648 0.03947 0.0
O50 O 0.8574 0.03387 0.04404 0.0
C51 C 0.93091 0.94463 0.87797 0.0
C52 C 0.90519 0.80045 0.97286 0.0
O53 O 0.92808 0.83671 0.98966 0.0
O54 O 0.86897 0.80423 0.94984 0.0
O55 O 0.58192 0.00101 0.41287 0.0
Cd56 Cd 0.60643 0.99074 0.4915 0.0
O57 O 0.57889 0.07373 0.42942 0.0
Cd58 Cd 0.56445 0.14317 0.42022 0.0
O59 O 0.55733 0.2156 0.43391 0.0
C60 C 0.537 0.22988 0.47014 0.0
O61 O 0.51944 0.20049 0.4978 0.0
C62 C 0.57357 0.03925 0.40035 0.0
C63 C 0.70061 0.99604 0.50521 0.0
O64 O 0.67856 0.95928 0.48849 0.0
O65 O 0.67831 0.03062 0.51471 0.0
O66 O 0.52507 0.69303 0.13019 0.0
Cd67 Cd 0.52105 0.6127 0.14237 0.0
O68 O 0.45096 0.6845 0.13187 0.0
Cd69 Cd 0.3811 0.69957 0.12147 0.0
O70 O 0.31035 0.67756 0.10457 0.0
C71 C 0.30302 0.63881 0.08266 0.0
O72 O 0.33785 0.61579 0.07101 0.0
C73 C 0.48726 0.70988 0.12718 0.0
C74 C 0.5241 0.5969 0.23519 0.0
O75 O 0.56028 0.59848 0.21075 0.0
O76 O 0.4865 0.6031 0.21578 0.0
O77 O 0.10288 0.54257 0.69049 0.0
Cd78 Cd 0.12883 0.54078 0.61047 0.0
O79 O 0.11328 0.47082 0.68318 0.0
Cd80 Cd 0.10683 0.40085 0.69987 0.0
O81 O 0.09725 0.3281 0.68343 0.0
C82 C 0.05735 0.30821 0.68098 0.0
O83 O 0.02253 0.3317 0.69116 0.0
C84 C 0.10061 0.50475 0.70769 0.0
C85 C 0.22268 0.53912 0.59975 0.0
O86 O 0.20385 0.57635 0.60178 0.0
O87 O 0.19723 0.50253 0.60358 0.0
O88 O 0.99276 0.09708 0.62128 0.0
Zn89 Zn 0.97217 0.03096 0.61062 0.0
O90 O 0.01591 0.99797 0.57352 0.0
Zn91 Zn 0.98531 0.96926 0.51792 0.0
Zn92 Zn 0.06691 0.04014 0.55714 0.0
Zn93 Zn 0.03884 0.95112 0.60809 0.0
O94 O 0.99232 0.90272 0.51057 0.0
O95 O 0.02866 0.88909 0.57382 0.0
O96 O 0.90953 0.02396 0.58116 0.0
O97 O 0.91816 0.97717 0.51881 0.0
O98 O 0.01142 0.99612 0.46185 0.0
O99 O 0.06904 0.04462 0.48806 0.0
O100 O 0.12688 0.02269 0.58091 0.0
O101 O 0.96666 0.00794 0.6734 0.0
O102 O 0.10589 0.96434 0.62091 0.0
O103 O 0.00854 0.94934 0.66978 0.0
C104 C 0.02901 0.12033 0.61098 0.0
C105 C 0.00985 0.87542 0.53515 0.0
C106 C 0.04428 0.02533 0.45489 0.0
C107 C 0.89317 0.00058 0.54529 0.0
C108 C 0.13652 0.99298 0.60741 0.0
C109 C 0.9821 0.97505 0.69158 0.0
O110 O 0.06007 0.10255 0.58721 0.0
O111 O 0.51953 0.11659 0.03435 0.0
Zn112 Zn 0.48509 0.05556 0.03816 0.0
O113 O 0.51647 0.02064 0.08004 0.0
Zn114 Zn 0.54391 0.97288 0.04311 0.0
Zn115 Zn 0.5638 0.0603 0.11426 0.0
Zn116 Zn 0.47379 0.99418 0.12386 0.0
O117 O 0.52268 0.91266 0.06403 0.0
O118 O 0.46901 0.92518 0.11589 0.0
O119 O 0.48146 0.02599 0.97278 0.0
O120 O 0.52814 0.97203 0.97561 0.0
O121 O 0.61178 0.97948 0.04992 0.0
O122 O 0.6254 0.03809 0.10191 0.0
O123 O 0.55464 0.06284 0.18314 0.0
O124 O 0.42166 0.06407 0.06064 0.0
O125 O 0.49602 0.01172 0.18945 0.0
O126 O 0.41236 0.01863 0.1173 0.0
C127 C 0.55095 0.13905 0.05878 0.0
C128 C 0.49276 0.89813 0.09192 0.0
C129 C 0.63932 0.00625 0.07509 0.0
C130 C 0.50215 0.99403 0.95291 0.0
C131 C 0.52732 0.03982 0.2078 0.0
C132 C 0.39716 0.04672 0.09177 0.0
O133 O 0.56883 0.12263 0.09261 0.0
O134 O 0.57518 0.56648 0.65749 0.0
Zn135 Zn 0.58311 0.58318 0.59303 0.0
O136 O 0.54089 0.54571 0.5516 0.0
Zn137 Zn 0.57578 0.51646 0.50217 0.0
Zn138 Zn 0.50635 0.49983 0.58584 0.0
Zn139 Zn 0.49966 0.58472 0.52531 0.0
O140 O 0.56128 0.53844 0.44087 0.0
O141 O 0.50402 0.58092 0.45585 0.0
O142 O 0.64775 0.57523 0.57624 0.0
O143 O 0.64367 0.5282 0.5128 0.0
O144 O 0.56053 0.44925 0.49763 0.0
O145 O 0.51456 0.43656 0.55655 0.0
O146 O 0.43887 0.50906 0.58513 0.0
O147 O 0.57443 0.64912 0.59325 0.0
O148 O 0.43534 0.56784 0.54367 0.0
O149 O 0.51419 0.65036 0.54818 0.0
C150 C 0.55316 0.53463 0.67665 0.0
C151 C 0.5313 0.56268 0.42747 0.0
C152 C 0.5366 0.42214 0.52132 0.0
C153 C 0.66696 0.55252 0.544 0.0
C154 C 0.41611 0.53769 0.56735 0.0
C155 C 0.54531 0.67077 0.57446 0.0
O156 O 0.52655 0.505 0.6534 0.0
O157 O 0.96386 0.49618 0.12156 0.0
Zn158 Zn 0.96676 0.47021 0.0553 0.0
O159 O 0.00158 0.51196 0.01725 0.0
Zn160 Zn 0.9644 0.52513 0.96534 0.0
Zn161 Zn 0.01881 0.56842 0.05497 0.0
Zn162 Zn 0.05614 0.48512 0.99338 0.0
O163 O 0.99581 0.5126 0.90465 0.0
O164 O 0.05902 0.48331 0.92374 0.0
O165 O 0.90128 0.45943 0.03239 0.0
O166 O 0.90272 0.49056 0.96554 0.0
O167 O 0.95238 0.59098 0.96964 0.0
O168 O 0.99309 0.62134 0.03025 0.0
O169 O 0.08645 0.5814 0.05822 0.0
O170 O 0.99664 0.41166 0.05619 0.0
O171 O 0.11289 0.52281 0.01775 0.0
O172 O 0.05823 0.42182 0.0128 0.0
C173 C 0.97556 0.53521 0.14139 0.0
C174 C 0.03306 0.49617 0.89346 0.0
C175 C 0.96652 0.62514 0.99677 0.0
C176 C 0.88163 0.46835 0.99567 0.0
C177 C 0.11955 0.56037 0.04231 0.0
C178 C 0.03274 0.39759 0.0381 0.0
O179 O 0.99572 0.56629 0.11965 0.0
C180 C 0.08887 0.08756 0.35355 0.0
C181 C 0.0706 0.0589 0.31592 0.0
H182 H 0.09548 0.09913 0.42702 0.0
C183 C 0.04302 0.0197 0.3244 0.0
H184 H 0.11048 0.11791 0.34812 0.0
C185 C 0.03422 0.00911 0.36953 0.0
C186 C 0.05332 0.03717 0.4072 0.0
H187 H 0.02847 0.99694 0.29614 0.0
H188 H 0.013 0.97847 0.37482 0.0
C189 C 0.08058 0.07663 0.39875 0.0
C190 C 0.52861 0.94987 0.83084 0.0
C191 C 0.49874 0.97163 0.80458 0.0
H192 H 0.55258 0.93918 0.89781 0.0
C193 C 0.46751 -0.00152 0.8275 0.0
H194 H 0.55293 0.92875 0.81415 0.0
C195 C 0.4676 0.00494 0.87584 0.0
C196 C 0.49857 0.9842 0.90206 0.0
H197 H 0.44448 0.0161 0.80818 0.0
H198 H 0.44415 0.02698 0.89258 0.0
C199 C 0.52832 0.95578 0.87891 0.0
C200 C 0.58804 0.56914 0.80065 0.0
C201 C 0.57375 0.53038 0.82273 0.0
H202 H 0.5928 0.60077 0.73769 0.0
C203 C 0.55169 0.49285 0.79652 0.0
H204 H 0.60512 0.59863 0.81975 0.0
C205 C 0.54423 0.49415 0.74911 0.0
C206 C 0.55918 0.53282 0.727 0.0
H207 H 0.54017 0.4625 0.81261 0.0
H208 H 0.52737 0.46472 0.72972 0.0
C209 C 0.58102 0.57028 0.75344 0.0
C210 C 0.93918 0.59779 0.25169 0.0
C211 C 0.94157 0.5652 0.28339 0.0
H212 H 0.94927 0.61401 0.18195 0.0
C213 C 0.95541 0.52257 0.26822 0.0
H214 H 0.9288 0.63098 0.26264 0.0
C215 C 0.9659 0.51243 0.22178 0.0
C216 C 0.96419 0.54532 0.19027 0.0
H217 H 0.95737 0.49687 0.29208 0.0
H218 H 0.97602 0.47918 0.21065 0.0
C219 C 0.95109 0.58817 0.20568 0.0
C220 C 0.2886 0.1045 0.0792 0.0
C221 C 0.26297 0.08984 0.11665 0.0
H222 H 0.35105 0.1024 0.04185 0.0
C223 C 0.28151 0.06021 0.14509 0.0
H224 H 0.27531 0.12724 0.05659 0.0
C225 C 0.32466 0.0458 0.13657 0.0
C226 C 0.35058 0.06076 0.09948 0.0
H227 H 0.26272 0.04802 0.17417 0.0
H228 H 0.33781 0.02323 0.15946 0.0
C229 C 0.33201 0.09019 0.07077 0.0
C230 C 0.26327 0.02302 0.62616 0.0
C231 C 0.27263 0.99681 0.66232 0.0
H232 H 0.21319 0.04241 0.5804 0.0
C233 C 0.23711 0.96854 0.67945 0.0
H234 H 0.28988 0.04513 0.6121 0.0
C235 C 0.19322 0.96662 0.66094 0.0
C236 C 0.18369 0.99324 0.62512 0.0
H237 H 0.24318 0.94774 0.70712 0.0
H238 H 0.16662 0.94469 0.67525 0.0
C239 C 0.21929 0.02142 0.60791 0.0
C240 C 0.75813 0.47809 0.02236 0.0
C241 C 0.73782 0.466 0.97899 0.0
H242 H 0.81984 0.48605 0.06206 0.0
C243 C 0.76418 0.44869 0.94255 0.0
H244 H 0.73837 0.49162 0.05087 0.0
C245 C 0.81102 0.44686 0.9485 0.0
C246 C 0.83171 0.4606 0.99147 0.0
H247 H 0.74916 0.4395 0.90872 0.0
H248 H 0.83138 0.43641 0.91914 0.0
C249 C 0.80457 0.47459 0.02879 0.0
C250 C 0.79017 0.58835 0.57443 0.0
C251 C 0.81318 0.56645 0.53795 0.0
H252 H 0.72636 0.60104 0.60502 0.0
C253 C 0.78787 0.53786 0.5045 0.0
H254 H 0.80863 0.61045 0.60089 0.0
C255 C 0.74034 0.53253 0.50675 0.0
C256 C 0.71729 0.55562 0.54255 0.0
H257 H 0.80466 0.52055 0.47592 0.0
H258 H 0.72169 0.51102 0.47997 0.0
C259 C 0.74286 0.58298 0.57674 0.0
C260 C 0.05259 0.29713 0.1042 0.0
C261 C 0.07812 0.2714 0.07274 0.0
H262 H 0.01715 0.35656 0.11733 0.0
C263 C 0.08773 0.28691 0.02925 0.0
H264 H 0.04438 0.28582 0.13784 0.0
C265 C 0.07293 0.3279 0.01784 0.0
C266 C 0.04703 0.35342 0.04919 0.0
H267 H 0.10733 0.26772 0.00433 0.0
H268 H 0.08146 0.33949 0.98439 0.0
C269 C 0.03667 0.3374 0.09231 0.0
C270 C 0.62049 0.25213 0.06054 0.0
C271 C 0.61553 0.26279 0.01485 0.0
H272 H 0.60382 0.20466 0.11037 0.0
C273 C 0.58709 0.23375 0.98454 0.0
H274 H 0.64205 0.27397 0.08475 0.0
C275 C 0.56451 0.1945 0.99944 0.0
C276 C 0.5705 0.18313 0.04476 0.0
H277 H 0.58225 0.2413 0.94924 0.0
H278 H 0.54347 0.1724 0.97499 0.0
C279 C 0.59849 0.21251 0.07525 0.0
C280 C 0.01302 0.74826 0.53379 0.0
C281 C 0.98982 0.7332 0.49239 0.0
H282 H 0.03758 0.8051 0.57998 0.0
C283 C 0.97699 0.76535 0.46352 0.0
H284 H 0.02336 0.72434 0.55679 0.0
C285 C 0.98503 0.81145 0.47676 0.0
C286 C 0.00604 0.82663 0.51927 0.0
H287 H 0.95937 0.75495 0.43121 0.0
H288 H 0.97347 0.83512 0.45414 0.0
C289 C 0.02101 0.79455 0.54714 0.0
C290 C 0.51112 0.79086 0.58607 0.0
C291 C 0.5499 0.81469 0.60719 0.0
H292 H 0.47935 0.72673 0.55868 0.0
C293 C 0.58763 0.79109 0.61597 0.0
H294 H 0.48154 0.80814 0.57875 0.0
C295 C 0.58623 0.74447 0.60492 0.0
C296 C 0.54726 0.72046 0.58432 0.0
H297 H 0.61802 0.80846 0.63225 0.0
H298 H 0.61569 0.72722 0.61274 0.0
C299 C 0.50991 0.74424 0.57447 0.0
C300 C 0.9563 0.91638 0.79974 0.0
C301 C 0.94647 0.95272 0.83109 0.0
H302 H 0.97599 0.89514 0.73095 0.0
C303 C 0.94912 0.99649 0.81646 0.0
H304 H 0.9545 0.88229 0.81022 0.0
C305 C 0.96024 0.00364 0.77089 0.0
C306 C 0.97001 0.96731 0.73952 0.0
H307 H 0.94136 0.02502 0.83987 0.0
H308 H 0.96153 0.03767 0.7603 0.0
C309 C 0.96857 0.92371 0.75448 0.0
C310 C 0.53032 0.00625 0.3301 0.0
C311 C 0.55773 0.04244 0.35267 0.0
H312 H 0.49828 0.9776 0.26712 0.0
C313 C 0.57231 0.07956 0.32816 0.0
H314 H 0.51854 0.97723 0.34824 0.0
C315 C 0.56133 0.07948 0.28131 0.0
C316 C 0.53483 0.04266 0.2584 0.0
H317 H 0.59397 0.10761 0.34454 0.0
H318 H 0.57441 0.10779 0.26279 0.0
C319 C 0.51855 0.00659 0.28368 0.0
C320 C 0.48876 0.59594 0.31345 0.0
C321 C 0.5257 0.5879 0.28429 0.0
H322 H 0.46165 0.59461 0.38165 0.0
C323 C 0.56418 0.57102 0.30243 0.0
H324 H 0.45865 0.60899 0.30046 0.0
C325 C 0.56567 0.56223 0.34874 0.0
C326 C 0.52898 0.57075 0.3781 0.0
H327 H 0.59311 0.56432 0.28078 0.0
H328 H 0.59589 0.54931 0.36165 0.0
C329 C 0.49052 0.58778 0.35997 0.0
C330 C 0.04733 0.52703 0.77049 0.0
C331 C 0.08186 0.50037 0.75433 0.0
H332 H 0.00407 0.54575 0.82662 0.0
C333 C 0.09901 0.47074 0.78355 0.0
H334 H 0.03346 0.5501 0.74861 0.0
C335 C 0.08262 0.46862 0.82855 0.0
C336 C 0.04822 0.49555 0.84486 0.0
H337 H 0.12617 0.45036 0.77221 0.0
H338 H 0.09723 0.44628 0.85072 0.0
C339 C 0.03032 0.52428 0.81507 0.0
C340 C 0.76687 0.03462 0.07952 0.0
C341 C 0.78224 0.99651 0.05451 0.0
H342 H 0.70955 0.06751 0.10602 0.0
C343 C 0.75057 0.95999 0.0401 0.0
H344 H 0.79046 0.06322 0.09127 0.0
C345 C 0.70426 0.96261 0.04812 0.0
C346 C 0.68863 0.00161 0.07115 0.0
H347 H 0.76128 0.93001 0.02091 0.0
H348 H 0.68061 0.93448 0.03522 0.0
C349 C 0.7205 0.03707 0.08796 0.0
C350 C 0.77601 0.96417 0.49449 0.0
C351 C 0.75013 0.99807 0.51435 0.0
H352 H 0.84146 0.93864 0.48825 0.0
C353 C 0.77178 0.03324 0.54397 0.0
H354 H 0.76034 0.93666 0.47147 0.0
C355 C 0.81818 0.03403 0.55417 0.0
C356 C 0.84408 0.0001 0.53432 0.0
H357 H 0.75271 0.05978 0.55994 0.0
H358 H 0.83378 0.06136 0.57746 0.0
C359 C 0.82253 0.96538 0.50404 0.0
C360 C 0.21864 0.64216 0.0868 0.0
C361 C 0.25613 0.61913 0.07166 0.0
H362 H 0.14629 0.64171 0.0896 0.0
C363 C 0.24841 0.57666 0.04657 0.0
H364 H 0.22341 0.67491 0.10625 0.0
C365 C 0.20412 0.55755 0.03695 0.0
C366 C 0.16658 0.58045 0.05234 0.0
H367 H 0.27657 0.55802 0.03439 0.0
H368 H 0.19938 0.52475 0.01759 0.0
C369 C 0.17438 0.62302 0.0773 0.0
C370 C 0.29463 0.49995 0.59927 0.0
C371 C 0.2722 0.53844 0.59205 0.0
H372 H 0.35787 0.46953 0.59754 0.0
C373 C 0.2974 0.57633 0.57659 0.0
H374 H 0.27609 0.47023 0.61122 0.0
C375 C 0.3439 0.5757 0.56814 0.0
C376 C 0.36653 0.53739 0.57559 0.0
H377 H 0.28112 0.60644 0.5705 0.0
H378 H 0.36221 0.60555 0.55619 0.0
C379 C 0.34144 0.49956 0.59149 0.0
C380 C 0.89976 0.71652 0.95455 0.0
C381 C 0.92062 0.75557 0.97913 0.0
H382 H 0.89815 0.64474 0.94043 0.0
C383 C 0.95689 0.75144 0.00918 0.0
H384 H 0.87183 0.71863 0.93098 0.0
C385 C 0.97183 0.70911 0.01476 0.0
C386 C 0.9511 0.67001 0.99009 0.0
H387 H 0.97369 0.7809 0.02858 0.0
H388 H 0.99978 0.70711 0.03835 0.0
C389 C 0.91499 0.6742 0.95979 0.0
C390 C 0.52116 0.77673 0.08975 0.0
C391 C 0.48625 0.75726 0.11629 0.0
H392 H 0.55001 0.83578 0.06055 0.0
C393 C 0.45198 0.78392 0.13343 0.0
H394 H 0.54796 0.75697 0.076 0.0
C395 C 0.4533 0.82962 0.12498 0.0
C396 C 0.48863 0.8492 0.09874 0.0
H397 H 0.42508 0.76996 0.15469 0.0
H398 H 0.42709 0.84969 0.1395 0.0
C399 C 0.52214 0.82195 0.08074 0.0
C400 C 0.0862 0.23736 0.64422 0.0
C401 C 0.05012 0.25994 0.66391 0.0
H402 H 0.10774 0.17588 0.61161 0.0
C403 C 0.00689 0.23634 0.6658 0.0
H404 H 0.11989 0.25465 0.64204 0.0
C405 C 0.99994 0.19103 0.64849 0.0
C406 C 0.03598 0.16854 0.62849 0.0
H407 H 0.9784 0.25282 0.68073 0.0
H408 H 0.96626 0.17372 0.65061 0.0
C409 C 0.07916 0.19225 0.6265 0.0
C410 C 0.5571 0.31064 0.45476 0.0
C411 C 0.53516 0.27902 0.4823 0.0
H412 H 0.57479 0.38026 0.44538 0.0
C413 C 0.51258 0.29485 0.52229 0.0
H414 H 0.57479 0.29966 0.42373 0.0
C415 C 0.5125 0.34126 0.53477 0.0
C416 C 0.53513 0.37288 0.50762 0.0
H417 H 0.49527 0.2714 0.54426 0.0
H418 H 0.49514 0.35228 0.566 0.0
C419 C 0.55715 0.35695 0.46729 0.0
loop_
_geom_bond_atom_site_label_1
_geom_bond_atom_site_label_2
_geom_bond_distance
_geom_bond_site_symmetry_2
_ccdc_geom_bond_type
O0 Cd1 2.300 . S
O0 C7 1.275 . S
Cd1 O0 2.300 . S
Cd1 O9 2.381 . S
Cd1 O10 2.378 . S
O2 Cd3 2.385 . S
O2 C7 1.255 . S
Cd3 O2 2.385 . S
Cd3 O4 2.317 . S
O4 Cd3 2.317 . S
O4 C5 1.232 . S
C5 O4 1.232 . S
C5 O6 1.218 . S
O6 C5 1.218 . S
C7 O0 1.275 . S
C7 O2 1.255 . S
C8 O9 1.258 . S
C8 O10 1.256 . S
O9 Cd1 2.381 . S
O9 C8 1.258 . S
O10 Cd1 2.378 . S
O10 C8 1.256 . S
O11 Cd12 2.300 . S
O11 C18 1.275 . S
Cd12 O11 2.300 . S
Cd12 O20 2.381 . S
Cd12 O21 2.378 . S
O13 Cd14 2.385 . S
O13 C18 1.255 . S
Cd14 O13 2.385 . S
Cd14 O15 2.317 . S
O15 Cd14 2.317 . S
O15 C16 1.232 . S
C16 O15 1.232 . S
C16 O17 1.218 . S
O17 C16 1.218 . S
C18 O11 1.275 . S
C18 O13 1.255 . S
C19 O20 1.258 . S
C19 O21 1.256 . S
O20 Cd12 2.381 . S
O20 C19 1.258 . S
O21 Cd12 2.378 . S
O21 C19 1.256 . S
O22 Cd23 2.300 . S
O22 C29 1.275 . S
Cd23 O22 2.300 . S
Cd23 O31 2.381 . S
Cd23 O32 2.378 . S
O24 Cd25 2.385 . S
O24 C29 1.255 . S
Cd25 O24 2.385 . S
Cd25 O26 2.317 . S
O26 Cd25 2.317 . S
O26 C27 1.232 . S
C27 O26 1.232 . S
C27 O28 1.218 1_556 S
O28 C27 1.218 1_554 S
C29 O22 1.275 . S
C29 O24 1.255 . S
C30 O31 1.258 . S
C30 O32 1.256 . S
O31 Cd23 2.381 . S
O31 C30 1.258 . S
O32 Cd23 2.378 . S
O32 C30 1.256 . S
O33 Cd34 2.300 . S
O33 C40 1.275 . S
Cd34 O33 2.300 . S
Cd34 O42 2.381 . S
Cd34 O43 2.378 . S
O35 Cd36 2.385 . S
O35 C40 1.255 . S
Cd36 O35 2.385 . S
Cd36 O37 2.317 . S
O37 Cd36 2.317 . S
O37 C38 1.232 . S
C38 O37 1.232 . S
C38 O39 1.218 . S
O39 C38 1.218 . S
C40 O33 1.275 . S
C40 O35 1.255 . S
C41 O42 1.258 . S
C41 O43 1.256 . S
O42 Cd34 2.381 . S
O42 C41 1.258 . S
O43 Cd34 2.378 . S
O43 C41 1.256 . S
O44 Cd45 2.300 . S
O44 C51 1.275 . S
Cd45 O44 2.300 . S
Cd45 O53 2.381 . S
Cd45 O54 2.378 1_556 S
O46 Cd47 2.385 1_556 S
O46 C51 1.255 1_545 S
Cd47 O46 2.385 1_554 S
Cd47 O48 2.317 . S
O48 Cd47 2.317 . S
O48 C49 1.232 . S
C49 O48 1.232 . S
C49 O50 1.218 1_554 S
O50 C49 1.218 1_556 S
C51 O44 1.275 . S
C51 O46 1.255 1_565 S
C52 O53 1.258 . S
C52 O54 1.256 1_556 S
O53 Cd45 2.381 . S
O53 C52 1.258 . S
O54 Cd45 2.378 1_554 S
O54 C52 1.256 1_554 S
O55 Cd56 2.300 . S
O55 C62 1.275 . S
Cd56 O55 2.300 . S
Cd56 O64 2.381 . S
Cd56 O65 2.378 . S
O57 Cd58 2.385 . S
O57 C62 1.255 . S
Cd58 O57 2.385 . S
Cd58 O59 2.317 . S
O59 Cd58 2.317 . S
O59 C60 1.232 . S
C60 O59 1.232 . S
C60 O61 1.218 . S
O61 C60 1.218 . S
C62 O55 1.275 . S
C62 O57 1.255 . S
C63 O64 1.258 . S
C63 O65 1.256 . S
O64 Cd56 2.381 . S
O64 C63 1.258 . S
O65 Cd56 2.378 . S
O65 C63 1.256 . S
O66 Cd67 2.300 . S
O66 C73 1.275 . S
Cd67 O66 2.300 . S
Cd67 O75 2.381 . S
Cd67 O76 2.378 . S
O68 Cd69 2.385 . S
O68 C73 1.255 . S
Cd69 O68 2.385 . S
Cd69 O70 2.317 . S
O70 Cd69 2.317 . S
O70 C71 1.232 . S
C71 O70 1.232 . S
C71 O72 1.218 . S
O72 C71 1.218 . S
C73 O66 1.275 . S
C73 O68 1.255 . S
C74 O75 1.258 . S
C74 O76 1.256 . S
O75 Cd67 2.381 . S
O75 C74 1.258 . S
O76 Cd67 2.378 . S
O76 C74 1.256 . S
O77 Cd78 2.300 . S
O77 C84 1.275 . S
Cd78 O77 2.300 . S
Cd78 O86 2.381 . S
Cd78 O87 2.378 . S
O79 Cd80 2.385 . S
O79 C84 1.255 . S
Cd80 O79 2.385 . S
Cd80 O81 2.317 . S
O81 Cd80 2.317 . S
O81 C82 1.232 . S
C82 O81 1.232 . S
C82 O83 1.218 . S
O83 C82 1.218 . S
C84 O77 1.275 . S
C84 O79 1.255 . S
C85 O86 1.258 . S
C85 O87 1.256 . S
O86 Cd78 2.381 . S
O86 C85 1.258 . S
O87 Cd78 2.378 . S
O87 C85 1.256 . S
O88 Zn89 1.953 . S
O88 C104 1.225 1_655 S
Zn89 O88 1.953 . S
Zn89 O90 1.949 1_655 S
Zn89 O96 1.919 . S
Zn89 O101 1.924 . S
O90 Zn89 1.949 1_455 S
O90 Zn91 1.923 1_445 S
O90 Zn92 1.950 . S
O90 Zn93 1.945 1_545 S
Zn91 O90 1.923 1_665 S
Zn91 O94 1.933 . S
Zn91 O97 1.941 1_565 S
Zn91 O98 1.965 1_665 S
Zn92 O90 1.950 . S
Zn92 O99 1.938 . S
Zn92 O100 1.906 . S
Zn92 O110 1.953 . S
Zn93 O90 1.945 1_565 S
Zn93 O95 1.932 1_455 S
Zn93 O102 1.977 . S
Zn93 O103 1.910 1_455 S
O94 Zn91 1.933 . S
O94 C105 1.226 . S
O95 Zn93 1.932 1_655 S
O95 C105 1.307 . S
O96 Zn89 1.919 . S
O96 C107 1.253 . S
O97 Zn91 1.941 1_545 S
O97 C107 1.283 . S
O98 Zn91 1.965 1_445 S
O98 C106 1.303 . S
O99 Zn92 1.938 . S
O99 C106 1.247 . S
O100 Zn92 1.906 . S
O100 C108 1.304 1_545 S
O101 Zn89 1.924 . S
O101 C109 1.311 . S
O102 Zn93 1.977 . S
O102 C108 1.272 . S
O103 Zn93 1.910 1_655 S
O103 C109 1.231 1_565 S
C104 O88 1.225 1_455 S
C104 O110 1.298 . S
C105 O94 1.226 . S
C105 O95 1.307 . S
C106 O98 1.303 . S
C106 O99 1.247 . S
C107 O96 1.253 . S
C107 O97 1.283 . S
C108 O100 1.304 1_565 S
C108 O102 1.272 . S
C109 O101 1.311 . S
C109 O103 1.231 1_545 S
O110 Zn92 1.953 . S
O110 C104 1.298 . S
O111 Zn112 1.953 . S
O111 C127 1.225 . S
Zn112 O111 1.953 . S
Zn112 O113 1.949 . S
Zn112 O119 1.919 1_554 S
Zn112 O124 1.924 . S
O113 Zn112 1.949 . S
O113 Zn114 1.923 1_545 S
O113 Zn115 1.950 . S
O113 Zn116 1.945 . S
Zn114 O113 1.923 1_565 S
Zn114 O117 1.933 . S
Zn114 O120 1.941 1_554 S
Zn114 O121 1.965 . S
Zn115 O113 1.950 . S
Zn115 O122 1.938 . S
Zn115 O123 1.906 . S
Zn115 O133 1.953 . S
Zn116 O113 1.945 . S
Zn116 O118 1.932 1_545 S
Zn116 O125 1.977 . S
Zn116 O126 1.910 . S
O117 Zn114 1.933 . S
O117 C128 1.226 . S
O118 Zn116 1.932 1_565 S
O118 C128 1.307 . S
O119 Zn112 1.919 1_556 S
O119 C130 1.253 1_545 S
O120 Zn114 1.941 1_556 S
O120 C130 1.283 . S
O121 Zn114 1.965 . S
O121 C129 1.303 1_565 S
O122 Zn115 1.938 . S
O122 C129 1.247 . S
O123 Zn115 1.906 . S
O123 C131 1.304 . S
O124 Zn112 1.924 . S
O124 C132 1.311 . S
O125 Zn116 1.977 . S
O125 C131 1.272 . S
O126 Zn116 1.910 . S
O126 C132 1.231 . S
C127 O111 1.225 . S
C127 O133 1.298 . S
C128 O117 1.226 . S
C128 O118 1.307 . S
C129 O121 1.303 1_545 S
C129 O122 1.247 . S
C130 O119 1.253 1_565 S
C130 O120 1.283 . S
C131 O123 1.304 . S
C131 O125 1.272 . S
C132 O124 1.311 . S
C132 O126 1.231 . S
O133 Zn115 1.953 . S
O133 C127 1.298 . S
O134 Zn135 1.953 . S
O134 C150 1.225 . S
Zn135 O134 1.953 . S
Zn135 O136 1.949 . S
Zn135 O142 1.919 . S
Zn135 O147 1.924 . S
O136 Zn135 1.949 . S
O136 Zn137 1.923 . S
O136 Zn138 1.950 . S
O136 Zn139 1.945 . S
Zn137 O136 1.923 . S
Zn137 O140 1.933 . S
Zn137 O143 1.941 . S
Zn137 O144 1.965 . S
Zn138 O136 1.950 . S
Zn138 O145 1.938 . S
Zn138 O146 1.906 . S
Zn138 O156 1.953 . S
Zn139 O136 1.945 . S
Zn139 O141 1.932 . S
Zn139 O148 1.977 . S
Zn139 O149 1.910 . S
O140 Zn137 1.933 . S
O140 C151 1.226 . S
O141 Zn139 1.932 . S
O141 C151 1.307 . S
O142 Zn135 1.919 . S
O142 C153 1.253 . S
O143 Zn137 1.941 . S
O143 C153 1.283 . S
O144 Zn137 1.965 . S
O144 C152 1.303 . S
O145 Zn138 1.938 . S
O145 C152 1.247 . S
O146 Zn138 1.906 . S
O146 C154 1.304 . S
O147 Zn135 1.924 . S
O147 C155 1.311 . S
O148 Zn139 1.977 . S
O148 C154 1.272 . S
O149 Zn139 1.910 . S
O149 C155 1.231 . S
C150 O134 1.225 . S
C150 O156 1.298 . S
C151 O140 1.226 . S
C151 O141 1.307 . S
C152 O144 1.303 . S
C152 O145 1.247 . S
C153 O142 1.253 . S
C153 O143 1.283 . S
C154 O146 1.304 . S
C154 O148 1.272 . S
C155 O147 1.311 . S
C155 O149 1.231 . S
O156 Zn138 1.953 . S
O156 C150 1.298 . S
O157 Zn158 1.953 . S
O157 C173 1.225 . S
Zn158 O157 1.953 . S
Zn158 O159 1.949 1_655 S
Zn158 O165 1.919 . S
Zn158 O170 1.924 1_655 S
O159 Zn158 1.949 1_455 S
O159 Zn160 1.923 1_554 S
O159 Zn161 1.950 . S
O159 Zn162 1.945 1_554 S
Zn160 O159 1.923 1_556 S
Zn160 O163 1.933 . S
Zn160 O166 1.941 1_455 S
Zn160 O167 1.965 . S
Zn161 O159 1.950 . S
Zn161 O168 1.938 . S
Zn161 O169 1.906 . S
Zn161 O179 1.953 . S
Zn162 O159 1.945 1_556 S
Zn162 O164 1.932 . S
Zn162 O171 1.977 1_556 S
Zn162 O172 1.910 1_556 S
O163 Zn160 1.933 . S
O163 C174 1.226 . S
O164 Zn162 1.932 . S
O164 C174 1.307 . S
O165 Zn158 1.919 . S
O165 C176 1.253 1_554 S
O166 Zn160 1.941 1_655 S
O166 C176 1.283 . S
O167 Zn160 1.965 . S
O167 C175 1.303 . S
O168 Zn161 1.938 . S
O168 C175 1.247 1_554 S
O169 Zn161 1.906 . S
O169 C177 1.304 . S
O170 Zn158 1.924 1_455 S
O170 C178 1.311 . S
O171 Zn162 1.977 1_554 S
O171 C177 1.272 . S
O172 Zn162 1.910 1_554 S
O172 C178 1.231 . S
C173 O157 1.225 . S
C173 O179 1.298 1_655 S
C174 O163 1.226 . S
C174 O164 1.307 . S
C175 O167 1.303 . S
C175 O168 1.247 1_556 S
C176 O165 1.253 1_556 S
C176 O166 1.283 . S
C177 O169 1.304 . S
C177 O171 1.272 . S
C178 O170 1.311 . S
C178 O172 1.231 . S
O179 Zn161 1.953 . S
O179 C173 1.298 1_455 S
C180 C181 1.387 . S
C180 H184 0.950 . S
C180 C189 1.390 . S
C181 C180 1.387 . S
C181 C183 1.387 . S
H182 C189 0.950 . S
C183 C181 1.387 . S
C183 C185 1.390 . S
C183 H187 0.950 . S
H184 C180 0.950 . S
C185 C183 1.390 . S
C185 C186 1.387 . S
C185 H188 0.950 . S
C186 C185 1.387 . S
C186 C189 1.387 . S
H187 C183 0.950 . S
H188 C185 0.950 . S
C189 C180 1.390 . S
C189 H182 0.950 . S
C189 C186 1.387 . S
C190 C191 1.387 . S
C190 H194 0.950 . S
C190 C199 1.390 . S
C191 C190 1.387 . S
C191 C193 1.387 . S
H192 C199 0.950 . S
C193 C191 1.387 . S
C193 C195 1.394 . S
C193 H197 0.950 1_565 S
H194 C190 0.950 . S
C195 C193 1.394 . S
C195 C196 1.407 . S
C195 H198 0.926 1_565 S
C196 C195 1.407 . S
C196 C199 1.387 . S
H197 C193 0.950 1_545 S
H198 C195 0.926 1_545 S
C199 C190 1.390 . S
C199 H192 0.950 . S
C199 C196 1.387 . S
C200 C201 1.387 . S
C200 H204 0.950 . S
C200 C209 1.390 . S
C201 C200 1.387 . S
C201 C203 1.387 . S
H202 C209 0.950 . S
C203 C201 1.387 . S
C203 C205 1.390 . S
C203 H207 0.950 . S
H204 C200 0.950 . S
C205 C203 1.390 . S
C205 C206 1.387 . S
C205 H208 0.950 . S
C206 C205 1.387 . S
C206 C209 1.387 . S
H207 C203 0.950 . S
H208 C205 0.950 . S
C209 C200 1.390 . S
C209 H202 0.950 . S
C209 C206 1.387 . S
C210 C211 1.387 . S
C210 H214 0.950 . S
C210 C219 1.390 . S
C211 C210 1.387 . S
C211 C213 1.387 . S
H212 C219 0.950 . S
C213 C211 1.387 . S
C213 C215 1.390 . S
C213 H217 0.950 . S
H214 C210 0.950 . S
C215 C213 1.390 . S
C215 C216 1.387 . S
C215 H218 0.950 . S
C216 C215 1.387 . S
C216 C219 1.387 . S
H217 C213 0.950 . S
H218 C215 0.950 . S
C219 C210 1.390 . S
C219 H212 0.950 . S
C219 C216 1.387 . S
C220 C221 1.387 . S
C220 H224 0.950 . S
C220 C229 1.390 . S
C221 C220 1.387 . S
C221 C223 1.387 . S
H222 C229 0.950 . S
C223 C221 1.387 . S
C223 C225 1.390 . S
C223 H227 0.950 . S
H224 C220 0.950 . S
C225 C223 1.390 . S
C225 C226 1.387 . S
C225 H228 0.950 . S
C226 C225 1.387 . S
C226 C229 1.387 . S
H227 C223 0.950 . S
H228 C225 0.950 . S
C229 C220 1.390 . S
C229 H222 0.950 . S
C229 C226 1.387 . S
C230 C231 1.387 . S
C230 H234 0.950 1_565 S
C230 C239 1.390 . S
C231 C230 1.387 . S
C231 C233 1.387 . S
H232 C239 0.950 1_545 S
C233 C231 1.387 . S
C233 C235 1.390 . S
C233 H237 0.950 . S
H234 C230 0.950 1_545 S
C235 C233 1.390 . S
C235 C236 1.387 . S
C235 H238 0.950 . S
C236 C235 1.387 . S
C236 C239 1.387 . S
H237 C233 0.950 . S
H238 C235 0.950 . S
C239 C230 1.390 . S
C239 H232 0.950 1_565 S
C239 C236 1.387 . S
C240 C241 1.387 1_554 S
C240 H244 0.950 . S
C240 C249 1.390 . S
C241 C240 1.387 1_556 S
C241 C243 1.387 . S
H242 C249 0.950 . S
C243 C241 1.387 . S
C243 C245 1.390 . S
C243 H247 0.950 . S
H244 C240 0.950 . S
C245 C243 1.390 . S
C245 C246 1.387 . S
C245 H248 0.950 . S
C246 C245 1.387 . S
C246 C249 1.387 1_556 S
H247 C243 0.950 . S
H248 C245 0.950 . S
C249 C240 1.390 . S
C249 H242 0.950 . S
C249 C246 1.387 1_554 S
C250 C251 1.387 . S
C250 H254 0.950 . S
C250 C259 1.390 . S
C251 C250 1.387 . S
C251 C253 1.387 . S
H252 C259 0.950 . S
C253 C251 1.387 . S
C253 C255 1.390 . S
C253 H257 0.950 . S
H254 C250 0.950 . S
C255 C253 1.390 . S
C255 C256 1.387 . S
C255 H258 0.950 . S
C256 C255 1.387 . S
C256 C259 1.387 . S
H257 C253 0.950 . S
H258 C255 0.950 . S
C259 C250 1.390 . S
C259 H252 0.950 . S
C259 C256 1.387 . S
C260 C261 1.387 . S
C260 H264 0.950 . S
C260 C269 1.390 . S
C261 C260 1.387 . S
C261 C263 1.387 . S
H262 C269 0.950 . S
C263 C261 1.387 . S
C263 C265 1.390 . S
C263 H267 0.950 . S
H264 C260 0.950 . S
C265 C263 1.390 . S
C265 C266 1.387 . S
C265 H268 0.950 . S
C266 C265 1.387 . S
C266 C269 1.387 . S
H267 C263 0.950 . S
H268 C265 0.950 . S
C269 C260 1.390 . S
C269 H262 0.950 . S
C269 C266 1.387 . S
C270 C271 1.387 . S
C270 H274 0.950 . S
C270 C279 1.390 . S
C271 C270 1.387 . S
C271 C273 1.387 1_554 S
H272 C279 0.950 . S
C273 C271 1.387 1_556 S
C273 C275 1.390 . S
C273 H277 0.950 . S
H274 C270 0.950 . S
C275 C273 1.390 . S
C275 C276 1.387 1_556 S
C275 H278 0.950 . S
C276 C275 1.387 1_554 S
C276 C279 1.387 . S
H277 C273 0.950 . S
H278 C275 0.950 . S
C279 C270 1.390 . S
C279 H272 0.950 . S
C279 C276 1.387 . S
C280 C281 1.387 . S
C280 H284 0.950 . S
C280 C289 1.390 . S
C281 C280 1.387 . S
C281 C283 1.387 . S
H282 C289 0.950 . S
C283 C281 1.387 . S
C283 C285 1.390 . S
C283 H287 0.950 1_655 S
H284 C280 0.950 . S
C285 C283 1.390 . S
C285 C286 1.387 . S
C285 H288 0.950 1_655 S
C286 C285 1.387 . S
C286 C289 1.387 . S
H287 C283 0.950 1_455 S
H288 C285 0.950 1_455 S
C289 C280 1.390 . S
C289 H282 0.950 . S
C289 C286 1.387 . S
C290 C291 1.387 . S
C290 H294 0.950 . S
C290 C299 1.390 . S
C291 C290 1.387 . S
C291 C293 1.387 . S
H292 C299 0.950 . S
C293 C291 1.387 . S
C293 C295 1.390 . S
C293 H297 0.950 . S
H294 C290 0.950 . S
C295 C293 1.390 . S
C295 C296 1.387 . S
C295 H298 0.950 . S
C296 C295 1.387 . S
C296 C299 1.387 . S
H297 C293 0.950 . S
H298 C295 0.950 . S
C299 C290 1.390 . S
C299 H292 0.950 . S
C299 C296 1.387 . S
C300 C301 1.387 . S
C300 H304 0.950 . S
C300 C309 1.390 . S
C301 C300 1.387 . S
C301 C303 1.387 1_565 S
H302 C309 0.950 . S
C303 C301 1.387 1_545 S
C303 C305 1.390 . S
C303 H307 0.950 . S
H304 C300 0.950 . S
C305 C303 1.390 . S
C305 C306 1.387 . S
C305 H308 0.950 1_655 S
C306 C305 1.387 . S
C306 C309 1.387 1_545 S
H307 C303 0.950 . S
H308 C305 0.950 1_455 S
C309 C300 1.390 . S
C309 H302 0.950 . S
C309 C306 1.387 1_565 S
C310 C311 1.387 . S
C310 H314 0.950 . S
C310 C319 1.390 . S
C311 C310 1.387 . S
C311 C313 1.387 . S
H312 C319 0.950 . S
C313 C311 1.387 . S
C313 C315 1.390 . S
C313 H317 0.950 . S
H314 C310 0.950 . S
C315 C313 1.390 . S
C315 C316 1.387 . S
C315 H318 0.950 . S
C316 C315 1.387 . S
C316 C319 1.387 . S
H317 C313 0.950 . S
H318 C315 0.950 . S
C319 C310 1.390 . S
C319 H312 0.950 . S
C319 C316 1.387 . S
C320 C321 1.387 . S
C320 H324 0.950 . S
C320 C329 1.390 . S
C321 C320 1.387 . S
C321 C323 1.387 . S
H322 C329 0.950 . S
C323 C321 1.387 . S
C323 C325 1.390 . S
C323 H327 0.950 . S
H324 C320 0.950 . S
C325 C323 1.390 . S
C325 C326 1.387 . S
C325 H328 0.950 . S
C326 C325 1.387 . S
C326 C329 1.387 . S
H327 C323 0.950 . S
H328 C325 0.950 . S
C329 C320 1.390 . S
C329 H322 0.950 . S
C329 C326 1.387 . S
C330 C331 1.387 . S
C330 H334 0.950 . S
C330 C339 1.390 . S
C331 C330 1.387 . S
C331 C333 1.387 . S
H332 C339 0.950 . S
C333 C331 1.387 . S
C333 C335 1.390 . S
C333 H337 0.950 . S
H334 C330 0.950 . S
C335 C333 1.390 . S
C335 C336 1.387 . S
C335 H338 0.950 . S
C336 C335 1.387 . S
C336 C339 1.387 . S
H337 C333 0.950 . S
H338 C335 0.950 . S
C339 C330 1.390 . S
C339 H332 0.950 . S
C339 C336 1.387 . S
C340 C341 1.387 1_556 S
C340 H344 0.950 . S
C340 C349 1.394 . S
C341 C340 1.387 1_554 S
C341 C343 1.387 1_545 S
H342 C349 0.960 . S
C343 C341 1.387 1_565 S
C343 C345 1.390 . S
C343 H347 0.950 . S
H344 C340 0.950 . S
C345 C343 1.390 . S
C345 C346 1.387 1_565 S
C345 H348 0.950 . S
C346 C345 1.387 1_545 S
C346 C349 1.374 1_554 S
H347 C343 0.950 . S
H348 C345 0.950 . S
C349 C340 1.394 . S
C349 H342 0.960 . S
C349 C346 1.374 1_556 S
C350 C351 1.387 1_565 S
C350 H354 0.950 . S
C350 C359 1.390 . S
C351 C350 1.387 1_545 S
C351 C353 1.387 . S
H352 C359 0.950 . S
C353 C351 1.387 . S
C353 C355 1.390 . S
C353 H357 0.950 . S
H354 C350 0.950 . S
C355 C353 1.390 . S
C355 C356 1.387 . S
C355 H358 0.950 . S
C356 C355 1.387 . S
C356 C359 1.387 1_545 S
H357 C353 0.950 . S
H358 C355 0.950 . S
C359 C350 1.390 . S
C359 H352 0.950 . S
C359 C356 1.387 1_565 S
C360 C361 1.387 . S
C360 H364 0.950 . S
C360 C369 1.390 . S
C361 C360 1.387 . S
C361 C363 1.387 . S
H362 C369 0.950 . S
C363 C361 1.387 . S
C363 C365 1.390 . S
C363 H367 0.950 . S
H364 C360 0.950 . S
C365 C363 1.390 . S
C365 C366 1.387 . S
C365 H368 0.950 . S
C366 C365 1.387 . S
C366 C369 1.387 . S
H367 C363 0.950 . S
H368 C365 0.950 . S
C369 C360 1.390 . S
C369 H362 0.950 . S
C369 C366 1.387 . S
C370 C371 1.387 . S
C370 H374 0.950 . S
C370 C379 1.390 . S
C371 C370 1.387 . S
C371 C373 1.387 . S
H372 C379 0.950 . S
C373 C371 1.387 . S
C373 C375 1.390 . S
C373 H377 0.950 . S
H374 C370 0.950 . S
C375 C373 1.390 . S
C375 C376 1.387 . S
C375 H378 0.950 . S
C376 C375 1.387 . S
C376 C379 1.387 . S
H377 C373 0.950 . S
H378 C375 0.950 . S
C379 C370 1.390 . S
C379 H372 0.950 . S
C379 C376 1.387 . S
C380 C381 1.401 . S
C380 H384 0.950 . S
C380 C389 1.390 . S
C381 C380 1.401 . S
C381 C383 1.375 1_654 S
H382 C389 0.950 . S
C383 C381 1.375 1_456 S
C383 C385 1.390 . S
C383 H387 0.950 . S
H384 C380 0.950 . S
C385 C383 1.390 . S
C385 C386 1.387 1_455 S
C385 H388 0.950 . S
C386 C385 1.387 1_655 S
C386 C389 1.387 1_556 S
H387 C383 0.950 . S
H388 C385 0.950 . S
C389 C380 1.390 . S
C389 H382 0.950 . S
C389 C386 1.387 1_554 S
C390 C391 1.387 . S
C390 H394 0.950 . S
C390 C399 1.390 . S
C391 C390 1.387 . S
C391 C393 1.387 . S
H392 C399 0.950 . S
C393 C391 1.387 . S
C393 C395 1.390 . S
C393 H397 0.950 . S
H394 C390 0.950 . S
C395 C393 1.390 . S
C395 C396 1.387 . S
C395 H398 0.950 . S
C396 C395 1.387 . S
C396 C399 1.387 . S
H397 C393 0.950 . S
H398 C395 0.950 . S
C399 C390 1.390 . S
C399 H392 0.950 . S
C399 C396 1.387 . S
C400 C401 1.387 . S
C400 H404 0.950 . S
C400 C409 1.390 . S
C401 C400 1.387 . S
C401 C403 1.387 . S
H402 C409 0.950 . S
C403 C401 1.387 . S
C403 C405 1.390 . S
C403 H407 0.950 1_455 S
H404 C400 0.950 . S
C405 C403 1.390 . S
C405 C406 1.387 . S
C405 H408 0.950 1_455 S
C406 C405 1.387 . S
C406 C409 1.387 . S
H407 C403 0.950 1_655 S
H408 C405 0.950 1_655 S
C409 C400 1.390 . S
C409 H402 0.950 . S
C409 C406 1.387 . S
C410 C411 1.387 . S
C410 H414 0.950 . S
C410 C419 1.390 . S
C411 C410 1.387 . S
C411 C413 1.387 . S
H412 C419 0.950 . S
C413 C411 1.387 . S
C413 C415 1.390 . S
C413 H417 0.950 . S
H414 C410 0.950 . S
C415 C413 1.390 . S
C415 C416 1.387 . S
C415 H418 0.950 . S
C416 C415 1.387 . S
C416 C419 1.387 . S
H417 C413 0.950 . S
H418 C415 0.950 . S
C419 C410 1.390 . S
C419 H412 0.950 . S
C419 C416 1.387 . S
C181 C5 1.704 . S
C186 C106 1.781 . S
C191 C18 1.549 . S
C196 C130 1.613 . S
C206 C150 1.328 . S
C201 C30 1.281 . S
C211 C41 1.309 . S
C216 C173 1.314 . S
C226 C132 1.863 . S
C221 C7 1.847 . S
C236 C108 1.834 . S
C231 C16 1.653 . S
C246 C176 1.659 . S
C241 C29 1.579 . S
C256 C153 1.279 . S
C251 C38 1.333 . S
C261 C8 1.577 . S
C266 C178 1.545 . S
C276 C127 1.747 . S
C271 C27 1.458 1_554 S
C281 C40 1.611 . S
C286 C105 1.620 . S
C291 C19 1.230 . S
C296 C155 1.210 . S
C306 C109 1.704 . S
C301 C51 1.663 . S
C311 C62 1.593 . S
C316 C131 1.709 . S
C321 C74 1.583 . S
C326 C151 1.668 . S
C331 C84 1.455 . S
C336 C174 1.626 . S
C341 C49 1.815 . S
C346 C129 1.829 . S
C356 C107 1.547 . S
C351 C63 1.479 . S
C366 C177 1.456 . S
C361 C71 1.178 . S
C376 C154 1.306 . S
C371 C85 1.285 . S
C381 C52 1.802 1_554 S
C386 C175 1.766 1_655 S
C396 C128 1.822 . S
C391 C73 1.641 . S
C406 C104 1.502 . S
C401 C82 1.073 . S
C411 C60 1.480 . S
C416 C152 1.835 . S
