# Generated by pormake.
# Topology apo, (3,6)-cn, num edge types: 1
# Building blocks:
#     Node 0, Type 0, BuildingBlock: OLANEW_clean_sbu_2, # of connection points: 3
#     Node 1, Type 0, BuildingBlock: OLANEW_clean_sbu_2, # of connection points: 3
#     Node 2, Type 0, BuildingBlock: OLANEW_clean_sbu_2, # of connection points: 3
#     Node 3, Type 0, BuildingBlock: OLANEW_clean_sbu_2, # of connection points: 3
#     Node 4, Type 0, BuildingBlock: OLANEW_clean_sbu_2, # of connection points: 3
#     Node 5, Type 0, BuildingBlock: OLANEW_clean_sbu_2, # of connection points: 3
#     Node 6, Type 0, BuildingBlock: OLANEW_clean_sbu_2, # of connection points: 3
#     Node 7, Type 0, BuildingBlock: OLANEW_clean_sbu_2, # of connection points: 3
#     Node 8, Type 1, BuildingBlock: KUMJIN_clean_sbu_1, # of connection points: 6
#     Node 9, Type 1, BuildingBlock: KUMJIN_clean_sbu_1, # of connection points: 6
#     Node 10, Type 1, BuildingBlock: KUMJIN_clean_sbu_1, # of connection points: 6
#     Node 11, Type 1, BuildingBlock: KUMJIN_clean_sbu_1, # of connection points: 6
#     Edge 12, Type (0, 1), BuildingBlock: AJUNOK_clean_linker_0, # of connection points: 2
#     Edge 13, Type (0, 1), BuildingBlock: AJUNOK_clean_linker_0, # of connection points: 2
#     Edge 14, Type (0, 1), BuildingBlock: AJUNOK_clean_linker_0, # of connection points: 2
#     Edge 15, Type (0, 1), BuildingBlock: AJUNOK_clean_linker_0, # of connection points: 2
#     Edge 16, Type (0, 1), BuildingBlock: AJUNOK_clean_linker_0, # of connection points: 2
#     Edge 17, Type (0, 1), BuildingBlock: AJUNOK_clean_linker_0, # of connection points: 2
#     Edge 18, Type (0, 1), BuildingBlock: AJUNOK_clean_linker_0, # of connection points: 2
#     Edge 19, Type (0, 1), BuildingBlock: AJUNOK_clean_linker_0, # of connection points: 2
#     Edge 20, Type (0, 1), BuildingBlock: AJUNOK_clean_linker_0, # of connection points: 2
#     Edge 21, Type (0, 1), BuildingBlock: AJUNOK_clean_linker_0, # of connection points: 2
#     Edge 22, Type (0, 1), BuildingBlock: AJUNOK_clean_linker_0, # of connection points: 2
#     Edge 23, Type (0, 1), BuildingBlock: AJUNOK_clean_linker_0, # of connection points: 2
#     Edge 24, Type (0, 1), BuildingBlock: AJUNOK_clean_linker_0, # of connection points: 2
#     Edge 25, Type (0, 1), BuildingBlock: AJUNOK_clean_linker_0, # of connection points: 2
#     Edge 26, Type (0, 1), BuildingBlock: AJUNOK_clean_linker_0, # of connection points: 2
#     Edge 27, Type (0, 1), BuildingBlock: AJUNOK_clean_linker_0, # of connection points: 2
#     Edge 28, Type (0, 1), BuildingBlock: AJUNOK_clean_linker_0, # of connection points: 2
#     Edge 29, Type (0, 1), BuildingBlock: AJUNOK_clean_linker_0, # of connection points: 2
#     Edge 30, Type (0, 1), BuildingBlock: AJUNOK_clean_linker_0, # of connection points: 2
#     Edge 31, Type (0, 1), BuildingBlock: AJUNOK_clean_linker_0, # of connection points: 2
#     Edge 32, Type (0, 1), BuildingBlock: AJUNOK_clean_linker_0, # of connection points: 2
#     Edge 33, Type (0, 1), BuildingBlock: AJUNOK_clean_linker_0, # of connection points: 2
#     Edge 34, Type (0, 1), BuildingBlock: AJUNOK_clean_linker_0, # of connection points: 2
#     Edge 35, Type (0, 1), BuildingBlock: AJUNOK_clean_linker_0, # of connection points: 2
# Relax obj value: 0.031
# Max RMSD: 0.242
# Mean RMSD: 0.144
data_MOF--net-apo--node1-OLANEW_clean_sbu_2--node2-KUMJIN_clean_sbu_1--edge1-AJUNOK_clean_linker_0
_symmetry_space_group_name_H-M    P1
_symmetry_Int_Tables_number       1
_symmetry_cell_setting            triclinic
loop_
_symmetry_equiv_pos_as_xyz
'x, y, z'
_cell_length_a     21.908241
_cell_length_b     33.247151
_cell_length_c     44.199627
_cell_angle_alpha  88.513689
_cell_angle_beta   89.949054
_cell_angle_gamma 89.850867
loop_
_atom_site_label
_atom_site_type_symbol
_atom_site_fract_x
_atom_site_fract_y
_atom_site_fract_z
_atom_type_partial_charge
O0 O 0.30274 0.41289 0.32614 0.0
Cd1 Cd 0.23546 0.36595 0.35409 0.0
O2 O 0.3365 0.42879 0.37081 0.0
Cd3 Cd 0.39242 0.45728 0.40536 0.0
O4 O 0.43117 0.46378 0.45079 0.0
C5 C 0.39709 0.45445 0.47319 0.0
O6 O 0.34088 0.44289 0.46787 0.0
C7 C 0.33748 0.43426 0.34222 0.0
C8 C 0.18052 0.30401 0.32216 0.0
O9 O 0.15535 0.33876 0.32357 0.0
O10 O 0.23257 0.29906 0.33499 0.0
O11 O 0.24667 0.17647 0.95681 0.0
Cd12 Cd 0.25122 0.18932 0.90162 0.0
O13 O 0.20285 0.12467 0.93727 0.0
Cd14 Cd 0.14926 0.07001 0.9323 0.0
O15 O 0.10317 0.02772 0.90317 0.0
C16 C 0.13563 0.00817 0.88475 0.0
O17 O 0.19524 0.0123 0.88559 0.0
C18 C 0.21857 0.14333 0.96076 0.0
C19 C 0.33611 0.24094 0.87391 0.0
O20 O 0.28422 0.254 0.88294 0.0
O21 O 0.34913 0.20388 0.87956 0.0
O22 O 0.83304 0.09857 0.6657 0.0
Cd23 Cd 0.78028 0.15235 0.6369 0.0
O24 O 0.881 0.0742 0.62631 0.0
Cd25 Cd 0.85496 0.11894 0.5914 0.0
O26 O 0.86382 0.14558 0.54567 0.0
C27 C 0.83778 0.12898 0.52354 0.0
O28 O 0.80275 0.09761 0.52905 0.0
C29 C 0.86812 0.0723 0.6544 0.0
C30 C 0.72445 0.21023 0.67286 0.0
O31 O 0.6997 0.17584 0.66914 0.0
O32 O 0.77579 0.21729 0.6599 0.0
O33 O 0.71088 0.33428 0.06893 0.0
Cd34 Cd 0.7439 0.34971 0.12018 0.0
O35 O 0.75519 0.38917 0.05091 0.0
Cd36 Cd 0.76516 0.41491 0.09569 0.0
O37 O 0.73438 0.45053 0.13379 0.0
C38 C 0.70626 0.48268 0.12613 0.0
O39 O 0.7006 0.49156 0.09713 0.0
C40 C 0.72703 0.35642 0.04643 0.0
C41 C 0.81232 0.28812 0.14748 0.0
O42 O 0.83598 0.31143 0.12719 0.0
O43 O 0.75643 0.29362 0.15487 0.0
O44 O 0.70816 0.59569 0.64913 0.0
Cd45 Cd 0.75039 0.64303 0.61142 0.0
O46 O 0.74034 0.54373 0.62373 0.0
Cd47 Cd 0.75713 0.57702 0.58154 0.0
O48 O 0.73625 0.57779 0.53331 0.0
C49 C 0.68093 0.57198 0.52598 0.0
O50 O 0.63979 0.56865 0.54755 0.0
C51 C 0.71644 0.55794 0.64739 0.0
C52 C 0.81723 0.70318 0.63921 0.0
O53 O 0.76172 0.70925 0.63115 0.0
O54 O 0.84111 0.66881 0.63408 0.0
O55 O 0.8181 0.91033 0.15236 0.0
Cd56 Cd 0.76107 0.86094 0.12289 0.0
O57 O 0.81951 0.95283 0.1133 0.0
Cd58 Cd 0.77854 0.91376 0.08005 0.0
O59 O 0.75806 0.89553 0.03406 0.0
C60 C 0.79775 0.90404 0.01391 0.0
O61 O 0.84853 0.9216 0.0222 0.0
C62 C 0.83221 0.94458 0.14083 0.0
C63 C 0.6998 0.79969 0.15548 0.0
O64 O 0.7548 0.79495 0.1463 0.0
O65 O 0.67433 0.83388 0.15005 0.0
O66 O 0.25785 0.92009 0.33946 0.0
Cd67 Cd 0.31515 0.87653 0.37496 0.0
O68 O 0.19694 0.94008 0.3757 0.0
Cd69 Cd 0.23321 0.90327 0.41305 0.0
O70 O 0.23766 0.88704 0.46114 0.0
C71 C 0.24061 0.91613 0.47916 0.0
O72 O 0.24363 0.95296 0.46773 0.0
C73 C 0.21362 0.94178 0.34813 0.0
C74 C 0.37021 0.81176 0.3466 0.0
O75 O 0.31815 0.80787 0.35959 0.0
O76 O 0.39624 0.8462 0.34716 0.0
O77 O 0.32157 0.59644 0.8474 0.0
Cd78 Cd 0.25764 0.64028 0.87835 0.0
O79 O 0.34797 0.56062 0.88786 0.0
Cd80 Cd 0.3087 0.60051 0.92114 0.0
O81 O 0.30392 0.63023 0.96452 0.0
C82 C 0.34849 0.65219 0.97207 0.0
O83 O 0.39347 0.65775 0.95272 0.0
C84 C 0.34941 0.56633 0.85931 0.0
C85 C 0.18394 0.69565 0.84657 0.0
O86 O 0.23547 0.70622 0.85748 0.0
O87 O 0.16792 0.65877 0.85 0.0
Eu88 Eu 0.0895 0.11794 0.2093 0.0
C89 C 0.83076 0.06558 0.24052 0.0
N90 N 0.8552 0.10266 0.24431 0.0
C91 C 0.76925 0.13303 0.21897 0.0
C92 C 0.77604 0.06071 0.22424 0.0
C93 C 0.82311 0.13624 0.23568 0.0
C94 C 0.74629 0.09504 0.21263 0.0
C95 C 0.83331 0.99386 0.25223 0.0
C96 C 0.85887 0.03254 0.25431 0.0
C97 C 0.78027 0.98864 0.23496 0.0
C98 C 0.75183 0.02198 0.2209 0.0
Eu99 Eu 0.95054 0.10427 0.26975 0.0
N100 N 0.9113 0.03829 0.26993 0.0
C101 C 0.86193 0.96162 0.26759 0.0
C102 C 0.93795 0.00746 0.2861 0.0
C103 C 0.91405 0.96856 0.28491 0.0
H104 H 0.83815 0.16557 0.24216 0.0
H105 H 0.93593 0.94396 0.29724 0.0
H106 H 0.20865 0.07892 0.24705 0.0
H107 H 0.05817 0.27106 0.16237 0.0
H108 H 0.97824 0.01289 0.29944 0.0
H109 H 0.84375 0.93141 0.26653 0.0
H110 H 0.04043 0.19818 0.16625 0.0
H111 H 0.74495 0.15985 0.21145 0.0
H112 H 0.76047 0.95905 0.23267 0.0
H113 H 0.71028 0.01762 0.20813 0.0
H114 H 0.30226 0.10235 0.27225 0.0
H115 H 0.70425 0.0926 0.19992 0.0
H116 H 0.14224 0.30134 0.19127 0.0
N117 N 0.18104 0.13759 0.23262 0.0
C118 C 0.19563 0.17724 0.23041 0.0
C119 C 0.27244 0.12376 0.26075 0.0
C120 C 0.24848 0.192 0.24448 0.0
C121 C 0.21929 0.11059 0.24663 0.0
C122 C 0.28679 0.1647 0.25996 0.0
N123 N 0.10761 0.18763 0.20015 0.0
C124 C 0.07448 0.21116 0.18043 0.0
C125 C 0.17091 0.2445 0.21172 0.0
C126 C 0.15717 0.20311 0.21424 0.0
C127 C 0.13336 0.26938 0.19373 0.0
C128 C 0.08568 0.25245 0.17752 0.0
H129 H 0.32779 0.17486 0.27109 0.0
H130 H 0.30112 0.24536 0.25381 0.0
H131 H 0.23316 0.29135 0.22515 0.0
O132 O 0.13697 0.12881 0.16636 0.0
O133 O 0.09596 0.13883 0.25766 0.0
O134 O 0.00135 0.16363 0.26786 0.0
O135 O 0.13564 0.06894 0.18637 0.0
O136 O 0.99646 0.14294 0.1949 0.0
O137 O 0.94823 0.16059 0.23931 0.0
O138 O 0.96553 0.10226 0.31867 0.0
O139 O 0.97771 0.05549 0.23731 0.0
O140 O 0.00067 0.09035 0.19391 0.0
O141 O 0.87672 0.11801 0.30106 0.0
O142 O 0.04244 0.07864 0.28398 0.0
O143 O 0.09643 0.06211 0.24052 0.0
C144 C 0.06098 0.16694 0.26854 0.0
C145 C 0.12913 0.0755 0.1328 0.0
C146 C 0.13502 0.07891 0.07749 0.0
C147 C 0.08774 0.05045 0.07625 0.0
C148 C 0.08154 0.0474 0.13093 0.0
C149 C 0.06134 0.03485 0.10279 0.0
C150 C 0.15592 0.09099 0.106 0.0
C151 C 0.95652 0.16467 0.20982 0.0
C152 C 0.14833 0.09094 0.16232 0.0
C153 C 0.26117 0.23337 0.24281 0.0
C154 C 0.22235 0.25958 0.22657 0.0
C155 C 0.97372 0.06009 0.20794 0.0
C156 C 0.9072 0.14834 0.34608 0.0
C157 C 0.89012 0.17181 0.3973 0.0
C158 C 0.89889 0.21161 0.38661 0.0
C159 C 0.91666 0.18816 0.3359 0.0
C160 C 0.89415 0.14029 0.37671 0.0
C161 C 0.91239 0.21961 0.35613 0.0
C162 C 0.08397 0.05726 0.26974 0.0
C163 C 0.91092 0.11496 0.32504 0.0
H164 H 0.07035 0.04081 0.05469 0.0
H165 H 0.05947 0.03542 0.15115 0.0
H166 H 0.0245 0.01331 0.10154 0.0
H167 H 0.19272 0.11259 0.10741 0.0
H168 H 0.89467 0.23658 0.40173 0.0
H169 H 0.92695 0.1949 0.31234 0.0
H170 H 0.88769 0.10941 0.38455 0.0
H171 H 0.91925 0.25032 0.34814 0.0
Eu172 Eu 0.47915 0.39718 0.73211 0.0
C173 C 0.73319 0.44226 0.7721 0.0
N174 N 0.7108 0.40412 0.77191 0.0
C175 C 0.80037 0.38117 0.74644 0.0
C176 C 0.78978 0.45148 0.75844 0.0
C177 C 0.74362 0.37351 0.75983 0.0
C178 C 0.8234 0.42035 0.74557 0.0
C179 C 0.71992 0.51228 0.78493 0.0
C180 C 0.69802 0.4724 0.78491 0.0
C181 C 0.77589 0.52165 0.77093 0.0
C182 C 0.81068 0.49136 0.75773 0.0
Eu183 Eu 0.61408 0.39418 0.79416 0.0
N184 N 0.64316 0.4627 0.79775 0.0
C185 C 0.68551 0.54149 0.79953 0.0
C186 C 0.61272 0.49031 0.81448 0.0
C187 C 0.63235 0.53025 0.8149 0.0
H188 H 0.72576 0.34324 0.76049 0.0
H189 H 0.60706 0.55219 0.82759 0.0
H190 H 0.37779 0.46859 0.74916 0.0
H191 H 0.44801 0.23438 0.72307 0.0
H192 H 0.5743 0.48172 0.82837 0.0
H193 H 0.70077 0.57244 0.80005 0.0
H194 H 0.50237 0.29849 0.71701 0.0
H195 H 0.82612 0.35694 0.73661 0.0
H196 H 0.79303 0.5522 0.77052 0.0
H197 H 0.85386 0.49907 0.74714 0.0
H198 H 0.27095 0.47344 0.76672 0.0
H199 H 0.86709 0.42625 0.73487 0.0
H200 H 0.34157 0.23342 0.74175 0.0
N201 N 0.37636 0.40497 0.74662 0.0
C202 C 0.34277 0.37074 0.74939 0.0
C203 C 0.29065 0.44437 0.76205 0.0
C204 C 0.28156 0.37207 0.75921 0.0
C205 C 0.35124 0.44154 0.75239 0.0
C206 C 0.2557 0.40948 0.7656 0.0
N207 N 0.43002 0.33369 0.73455 0.0
C208 C 0.45715 0.29865 0.72633 0.0
C209 C 0.33682 0.29804 0.74632 0.0
C210 C 0.37024 0.33411 0.7431 0.0
C211 C 0.36566 0.26177 0.73955 0.0
C212 C 0.42584 0.26216 0.72917 0.0
H213 H 0.20882 0.41175 0.77321 0.0
H214 H 0.20134 0.33659 0.77022 0.0
H215 H 0.24965 0.27184 0.75889 0.0
O216 O 0.49192 0.38694 0.68382 0.0
O217 O 0.4573 0.36967 0.7785 0.0
O218 O 0.54712 0.34231 0.79685 0.0
O219 O 0.42229 0.4282 0.69818 0.0
O220 O 0.56453 0.35997 0.72207 0.0
O221 O 0.60482 0.33697 0.768 0.0
O222 O 0.61918 0.3974 0.8436 0.0
O223 O 0.631 0.41586 0.74566 0.0
O224 O 0.5435 0.44987 0.73463 0.0
O225 O 0.68561 0.36263 0.81948 0.0
O226 O 0.52453 0.4255 0.80612 0.0
O227 O 0.48978 0.45231 0.76059 0.0
C228 C 0.48725 0.34431 0.79631 0.0
C229 C 0.47144 0.44304 0.65175 0.0
C230 C 0.47657 0.46493 0.59862 0.0
C231 C 0.51197 0.49806 0.60692 0.0
C232 C 0.50599 0.47666 0.65957 0.0
C233 C 0.52648 0.50384 0.63724 0.0
C234 C 0.45646 0.43738 0.62125 0.0
C235 C 0.59808 0.33461 0.73851 0.0
C236 C 0.45149 0.41369 0.67525 0.0
C237 C 0.24836 0.33616 0.7626 0.0
C238 C 0.2759 0.29927 0.75618 0.0
C239 C 0.6026 0.44596 0.73223 0.0
C240 C 0.66036 0.33992 0.86887 0.0
C241 C 0.67022 0.31743 0.9217 0.0
C242 C 0.65862 0.27777 0.913 0.0
C243 C 0.64794 0.30025 0.86072 0.0
C244 C 0.67096 0.34839 0.89935 0.0
C245 C 0.64714 0.26939 0.88274 0.0
C246 C 0.49079 0.45151 0.79037 0.0
C247 C 0.665 0.37251 0.84583 0.0
H248 H 0.52717 0.52004 0.59005 0.0
H249 H 0.51661 0.48206 0.68294 0.0
H250 H 0.55307 0.52972 0.64346 0.0
H251 H 0.42937 0.41159 0.61513 0.0
H252 H 0.65962 0.25308 0.92945 0.0
H253 H 0.63994 0.29304 0.8373 0.0
H254 H 0.68011 0.37912 0.90559 0.0
H255 H 0.63859 0.23875 0.87628 0.0
Eu256 Eu 0.07048 0.86445 0.7252 0.0
C257 C 0.79981 0.81891 0.73264 0.0
N258 N 0.82302 0.85636 0.73618 0.0
C259 C 0.7454 0.88507 0.7042 0.0
C260 C 0.74878 0.81309 0.71386 0.0
C261 C 0.79662 0.88937 0.72265 0.0
C262 C 0.72137 0.84677 0.69977 0.0
C263 C 0.80557 0.747 0.74322 0.0
C264 C 0.8281 0.78622 0.74731 0.0
C265 C 0.75553 0.74106 0.724 0.0
C266 C 0.72708 0.774 0.70948 0.0
Eu267 Eu 0.90529 0.86113 0.76972 0.0
N268 N 0.87693 0.79269 0.76571 0.0
C269 C 0.83342 0.71483 0.75889 0.0
C270 C 0.90098 0.7617 0.78275 0.0
C271 C 0.88072 0.72231 0.77906 0.0
H272 H 0.81515 0.91897 0.72625 0.0
H273 H 0.90081 0.69781 0.79226 0.0
H274 H 0.14461 0.77938 0.74504 0.0
H275 H 0.14508 0.02057 0.73025 0.0
H276 H 0.93435 0.76692 0.80002 0.0
H277 H 0.81755 0.68427 0.75629 0.0
H278 H 0.07725 0.9647 0.71619 0.0
H279 H 0.72457 0.91124 0.69336 0.0
H280 H 0.73807 0.71109 0.72045 0.0
H281 H 0.68834 0.7689 0.69486 0.0
H282 H 0.23869 0.75895 0.77235 0.0
H283 H 0.682 0.8435 0.68523 0.0
H284 H 0.24038 0.00614 0.75859 0.0
N285 N 0.16037 0.84189 0.74974 0.0
C286 C 0.19973 0.87085 0.75859 0.0
C287 C 0.22811 0.79053 0.76878 0.0
C288 C 0.25448 0.86064 0.77367 0.0
C289 C 0.17461 0.80215 0.75365 0.0
C290 C 0.26794 0.8199 0.77911 0.0
N291 N 0.1326 0.91965 0.73737 0.0
C292 C 0.1185 0.95827 0.72875 0.0
C293 C 0.22622 0.94167 0.76008 0.0
C294 C 0.18601 0.91086 0.75178 0.0
C295 C 0.21077 0.98158 0.75252 0.0
C296 C 0.15692 0.98987 0.73658 0.0
H297 H 0.30945 0.8108 0.79074 0.0
H298 H 0.33648 0.88401 0.79418 0.0
H299 H 0.31162 0.95493 0.78237 0.0
O300 O 0.07804 0.88404 0.67757 0.0
O301 O 0.06792 0.90032 0.76831 0.0
O302 O 0.97465 0.89803 0.79396 0.0
O303 O 0.13345 0.83478 0.69483 0.0
O304 O 0.9965 0.9083 0.70925 0.0
O305 O 0.93142 0.92197 0.74946 0.0
O306 O 0.857 0.84576 0.81204 0.0
O307 O 0.91507 0.8514 0.71902 0.0
O308 O 0.00243 0.81486 0.71777 0.0
O309 O 0.83448 0.90134 0.78663 0.0
O310 O 0.98595 0.82974 0.79277 0.0
O311 O 0.03695 0.80927 0.75078 0.0
C312 C 0.0315 0.90991 0.79075 0.0
C313 C 0.17696 0.87633 0.65678 0.0
C314 C 0.23047 0.89538 0.6102 0.0
C315 C 0.28091 0.90728 0.62739 0.0
C316 C 0.22817 0.8879 0.67351 0.0
C317 C 0.27969 0.90345 0.65887 0.0
C318 C 0.1783 0.88012 0.6251 0.0
C319 C 0.95744 0.93173 0.72337 0.0
C320 C 0.12277 0.85931 0.67205 0.0
C321 C 0.29433 0.89127 0.78243 0.0
C322 C 0.28025 0.93167 0.77564 0.0
C323 C 0.94742 0.82229 0.70759 0.0
C324 C 0.77701 0.88801 0.83266 0.0
C325 C 0.74553 0.89424 0.88529 0.0
C326 C 0.68887 0.90949 0.87532 0.0
C327 C 0.72041 0.90344 0.82315 0.0
C328 C 0.78937 0.88321 0.86372 0.0
C329 C 0.6764 0.91383 0.84443 0.0
C330 C 0.02998 0.80913 0.78017 0.0
C331 C 0.82368 0.8782 0.81017 0.0
H332 H 0.32156 0.91907 0.6164 0.0
H333 H 0.22876 0.88453 0.69782 0.0
H334 H 0.31893 0.9123 0.67196 0.0
H335 H 0.13876 0.87138 0.6121 0.0
H336 H 0.6548 0.91907 0.89139 0.0
H337 H 0.71025 0.90741 0.79926 0.0
H338 H 0.83342 0.87169 0.87108 0.0
H339 H 0.63282 0.92583 0.83697 0.0
Eu340 Eu 0.44063 0.62267 0.22368 0.0
C341 C 0.67818 0.69032 0.28209 0.0
N342 N 0.6722 0.65284 0.27121 0.0
C343 C 0.76916 0.6587 0.24641 0.0
C344 C 0.72851 0.71462 0.27406 0.0
C345 C 0.71803 0.6359 0.25488 0.0
C346 C 0.77363 0.69863 0.25535 0.0
C347 C 0.64415 0.73998 0.31747 0.0
C348 C 0.63675 0.7027 0.30349 0.0
C349 C 0.69135 0.76585 0.30781 0.0
C350 C 0.73359 0.75314 0.28616 0.0
Eu351 Eu 0.58175 0.61784 0.28389 0.0
N352 N 0.59297 0.67643 0.31279 0.0
C353 C 0.60592 0.74913 0.34175 0.0
C354 C 0.55971 0.68345 0.33826 0.0
C355 C 0.56452 0.72031 0.35267 0.0
H356 H 0.71379 0.60526 0.24752 0.0
H357 H 0.53632 0.72644 0.37214 0.0
H358 H 0.34958 0.69097 0.25862 0.0
H359 H 0.37672 0.47149 0.19221 0.0
H360 H 0.52801 0.66107 0.34692 0.0
H361 H 0.60989 0.77753 0.35306 0.0
H362 H 0.43529 0.53531 0.18927 0.0
H363 H 0.80474 0.64563 0.23276 0.0
H364 H 0.69722 0.79492 0.31793 0.0
H365 H 0.77138 0.7726 0.27989 0.0
H366 H 0.26396 0.69043 0.29465 0.0
H367 H 0.81317 0.71627 0.2487 0.0
H368 H 0.29426 0.46291 0.23019 0.0
N369 N 0.35328 0.62713 0.25552 0.0
C370 C 0.32231 0.59225 0.26077 0.0
C371 C 0.28068 0.66243 0.28578 0.0
C372 C 0.27155 0.59066 0.28041 0.0
C373 C 0.33031 0.66247 0.26585 0.0
C374 C 0.25216 0.62618 0.29375 0.0
N375 N 0.38568 0.56187 0.22488 0.0
C376 C 0.3986 0.53172 0.2055 0.0
C377 C 0.30453 0.52289 0.24747 0.0
C378 C 0.33826 0.5588 0.2445 0.0
C379 C 0.31921 0.49098 0.22867 0.0
C380 C 0.36569 0.49572 0.20717 0.0
H381 H 0.21334 0.62629 0.30896 0.0
H382 H 0.20162 0.55226 0.30035 0.0
H383 H 0.23071 0.49281 0.27152 0.0
O384 O 0.44356 0.62109 0.17438 0.0
O385 O 0.46745 0.56611 0.25098 0.0
O386 O 0.48805 0.59483 0.29547 0.0
O387 O 0.36658 0.64838 0.19625 0.0
O388 O 0.52403 0.59225 0.20506 0.0
O389 O 0.59575 0.57742 0.24329 0.0
O390 O 0.63587 0.60407 0.32434 0.0
O391 O 0.59963 0.64735 0.23761 0.0
O392 O 0.50718 0.67511 0.2229 0.0
O393 O 0.60781 0.55598 0.29573 0.0
O394 O 0.48905 0.64435 0.29534 0.0
O395 O 0.45657 0.67728 0.25241 0.0
C396 C 0.46733 0.56437 0.28062 0.0
C397 C 0.39637 0.67508 0.14858 0.0
C398 C 0.38552 0.69928 0.09637 0.0
C399 C 0.40684 0.7372 0.10482 0.0
C400 C 0.41746 0.71308 0.15679 0.0
C401 C 0.42248 0.74403 0.13493 0.0
C402 C 0.38062 0.6683 0.11846 0.0
C403 C 0.57417 0.57467 0.2154 0.0
C404 C 0.3934 0.64149 0.17065 0.0
C405 C 0.24011 0.5542 0.28498 0.0
C406 C 0.25652 0.52037 0.26849 0.0
C407 C 0.56717 0.6736 0.22164 0.0
C408 C 0.60879 0.54264 0.34881 0.0
C409 C 0.60568 0.53376 0.40384 0.0
C410 C 0.56367 0.50227 0.40078 0.0
C411 C 0.56771 0.51044 0.34624 0.0
C412 C 0.6278 0.55392 0.37774 0.0
C413 C 0.54502 0.49066 0.37211 0.0
C414 C 0.46776 0.67679 0.28158 0.0
C415 C 0.63091 0.56533 0.32175 0.0
H416 H 0.41138 0.76147 0.08815 0.0
H417 H 0.43048 0.71864 0.17995 0.0
H418 H 0.43899 0.77327 0.14129 0.0
H419 H 0.3661 0.63853 0.11208 0.0
H420 H 0.546 0.48627 0.42056 0.0
H421 H 0.55272 0.50066 0.3243 0.0
H422 H 0.65912 0.57886 0.37998 0.0
H423 H 0.51294 0.46619 0.36992 0.0
C424 C 0.14127 0.99864 0.33875 0.0
C425 C 0.18196 0.97028 0.32691 0.0
C426 C 0.11062 0.0264 0.32003 0.0
C427 C 0.11872 0.0272 0.28841 0.0
H428 H 0.13305 0.99978 0.36289 0.0
H429 H 0.08025 0.04748 0.33075 0.0
S430 S 0.21928 0.95877 0.24561 0.0
N431 N 0.22859 0.94436 0.28135 0.0
N432 N 0.17009 0.99646 0.24591 0.0
C433 C 0.15914 0.99893 0.27606 0.0
C434 C 0.19089 0.97056 0.29533 0.0
C435 C 0.40171 0.5001 0.8533 0.0
C436 C 0.384 0.53762 0.84054 0.0
C437 C 0.43593 0.47257 0.83684 0.0
C438 C 0.4541 0.48135 0.80691 0.0
H439 H 0.38897 0.49172 0.87629 0.0
H440 H 0.44798 0.44405 0.8477 0.0
S441 S 0.42228 0.57594 0.76321 0.0
N442 N 0.38843 0.58234 0.79614 0.0
N443 N 0.45381 0.53081 0.76537 0.0
C444 C 0.43711 0.51877 0.7938 0.0
C445 C 0.40179 0.5468 0.81054 0.0
C446 C 0.64799 0.54279 0.69156 0.0
C447 C 0.69372 0.53006 0.67153 0.0
C448 C 0.61968 0.51549 0.71174 0.0
C449 C 0.63666 0.47471 0.71284 0.0
H450 H 0.63201 0.57365 0.69079 0.0
H451 H 0.58338 0.5262 0.72615 0.0
S452 S 0.75782 0.42675 0.66761 0.0
N453 N 0.75784 0.47431 0.6559 0.0
N454 N 0.70433 0.42328 0.69384 0.0
C455 C 0.68436 0.46198 0.6942 0.0
C456 C 0.71293 0.4896 0.6735 0.0
C457 C 0.90338 0.96213 0.18298 0.0
C458 C 0.8658 0.9746 0.15867 0.0
C459 C 0.93879 0.98994 0.19863 0.0
C460 C 0.93752 0.03117 0.19066 0.0
H461 H 0.90641 0.93061 0.18962 0.0
H462 H 0.96757 0.97909 0.21703 0.0
S463 S 0.84189 0.08 0.13118 0.0
N464 N 0.82653 0.03159 0.12886 0.0
N465 N 0.89266 0.08351 0.15854 0.0
C466 C 0.89927 0.04415 0.16695 0.0
C467 C 0.86335 0.01598 0.15097 0.0
C468 C 0.92986 0.00901 0.65991 0.0
C469 C 0.89274 0.03825 0.67337 0.0
C470 C 0.95138 0.97538 0.67641 0.0
C471 C 0.93675 0.96921 0.7072 0.0
H472 H 0.94193 0.01166 0.63618 0.0
H473 H 0.97884 0.95367 0.66458 0.0
S474 S 0.84462 0.03811 0.75401 0.0
N475 N 0.84471 0.05971 0.71996 0.0
N476 N 0.88532 0.99656 0.75103 0.0
C477 C 0.901 0.99871 0.72127 0.0
C478 C 0.87904 0.03314 0.70439 0.0
C479 C 0.67493 0.4955 0.17984 0.0
C480 C 0.6764 0.50806 0.14911 0.0
C481 C 0.64309 0.51765 0.20148 0.0
C482 C 0.61103 0.55284 0.19308 0.0
H483 H 0.69751 0.46793 0.1872 0.0
H484 H 0.64205 0.50649 0.22472 0.0
S485 S 0.60622 0.60148 0.11657 0.0
N486 N 0.64712 0.56029 0.11218 0.0
N487 N 0.587 0.60125 0.15265 0.0
C488 C 0.61395 0.56654 0.16275 0.0
C489 C 0.64671 0.54434 0.14083 0.0
C490 C 0.37994 0.50401 0.34042 0.0
C491 C 0.37605 0.46573 0.32776 0.0
C492 C 0.41071 0.5356 0.32531 0.0
C493 C 0.43904 0.52989 0.29714 0.0
H494 H 0.35701 0.51003 0.36155 0.0
H495 H 0.41074 0.56498 0.33535 0.0
S496 S 0.45131 0.43343 0.25728 0.0
N497 N 0.40828 0.42276 0.28711 0.0
N498 N 0.46826 0.48166 0.25934 0.0
C499 C 0.43846 0.49115 0.28517 0.0
C500 C 0.40636 0.4592 0.30031 0.0
C501 C 0.14369 0.95618 0.84509 0.0
C502 C 0.10717 0.98284 0.86151 0.0
C503 C 0.11887 0.93283 0.82228 0.0
C504 C 0.05667 0.93535 0.81472 0.0
H505 H 0.19194 0.95303 0.84998 0.0
H506 H 0.14853 0.91197 0.81102 0.0
S507 S 0.9413 0.00123 0.85013 0.0
N508 N 0.00526 0.01065 0.86833 0.0
N509 N 0.959 0.96711 0.8251 0.0
C510 C 0.01947 0.96184 0.83091 0.0
C511 C 0.04462 0.9855 0.85434 0.0
C512 C 0.19632 0.08609 0.99698 0.0
C513 C 0.20197 0.12777 0.99147 0.0
C514 C 0.1763 0.07061 0.02508 0.0
C515 C 0.16112 0.09616 0.04886 0.0
H516 H 0.20752 0.06513 0.97948 0.0
H517 H 0.17227 0.03828 0.02813 0.0
S518 S 0.16842 0.20772 0.04617 0.0
N519 N 0.19193 0.1944 0.01234 0.0
N520 N 0.15342 0.16536 0.06501 0.0
C521 C 0.16796 0.13791 0.04391 0.0
C522 C 0.18866 0.15368 0.01528 0.0
C523 C 0.37732 0.45387 0.52898 0.0
C524 C 0.41943 0.45646 0.50488 0.0
C525 C 0.39636 0.45579 0.55918 0.0
C526 C 0.45827 0.46041 0.56654 0.0
H527 H 0.32896 0.4508 0.52456 0.0
H528 H 0.36214 0.4545 0.57689 0.0
S529 S 0.58777 0.46449 0.51247 0.0
N530 N 0.5267 0.46128 0.49078 0.0
N531 N 0.56222 0.46478 0.54762 0.0
C532 C 0.50111 0.46214 0.54283 0.0
C533 C 0.48179 0.46019 0.51201 0.0
C534 C 0.74662 0.36109 0.99071 0.0
C535 C 0.71237 0.34492 0.01506 0.0
C536 C 0.73285 0.35187 0.96074 0.0
C537 C 0.68383 0.32644 0.95381 0.0
H538 H 0.78476 0.38089 0.99482 0.0
H539 H 0.76123 0.36458 0.94284 0.0
S540 S 0.5774 0.27833 0.00913 0.0
N541 N 0.62616 0.30301 0.03017 0.0
N542 N 0.59919 0.28665 0.97376 0.0
C543 C 0.64881 0.31032 0.97791 0.0
C544 C 0.66331 0.31933 0.00851 0.0
C545 C 0.81579 0.1264 0.46803 0.0
C546 C 0.85 0.14257 0.49177 0.0
C547 C 0.8286 0.1364 0.43768 0.0
C548 C 0.87621 0.16296 0.42975 0.0
H549 H 0.77897 0.10551 0.47283 0.0
H550 H 0.80093 0.12317 0.42026 0.0
S551 S 0.98037 0.21321 0.483 0.0
N552 N 0.9338 0.18672 0.50507 0.0
N553 N 0.95834 0.20489 0.44802 0.0
C554 C 0.91046 0.17971 0.45318 0.0
C555 C 0.89728 0.16967 0.48415 0.0
C556 C 0.82678 0.91266 0.95937 0.0
C557 C 0.78543 0.89768 0.98133 0.0
C558 C 0.81443 0.9102 0.92839 0.0
C559 C 0.76025 0.89266 0.91808 0.0
H560 H 0.86846 0.92743 0.96608 0.0
H561 H 0.84663 0.92342 0.91241 0.0
S562 S 0.64008 0.84477 0.9658 0.0
N563 N 0.69003 0.86182 0.99028 0.0
N564 N 0.66732 0.85699 0.93197 0.0
C565 C 0.71967 0.87605 0.93963 0.0
C566 C 0.73216 0.87856 0.97124 0.0
C567 C 0.60117 0.56259 0.48634 0.0
C568 C 0.66337 0.56537 0.49405 0.0
C569 C 0.58293 0.55274 0.45708 0.0
C570 C 0.62613 0.54563 0.4343 0.0
H571 H 0.56606 0.56722 0.50317 0.0
H572 H 0.53458 0.55046 0.45229 0.0
S573 S 0.7945 0.54942 0.44234 0.0
N574 N 0.76824 0.56069 0.4761 0.0
N575 N 0.73369 0.54212 0.42118 0.0
C576 C 0.68838 0.54911 0.44142 0.0
C577 C 0.70706 0.55905 0.47125 0.0
C578 C 0.4063 0.68845 0.01182 0.0
C579 C 0.35334 0.66767 0.00321 0.0
C580 C 0.41529 0.69992 0.04176 0.0
C581 C 0.37176 0.691 0.06429 0.0
H582 H 0.44211 0.69498 0.99553 0.0
H583 H 0.45771 0.71453 0.04754 0.0
S584 S 0.22227 0.64145 0.0533 0.0
N585 N 0.25442 0.64164 0.0195 0.0
N586 N 0.27157 0.66341 0.07572 0.0
C587 C 0.31745 0.67191 0.05586 0.0
C588 C 0.30813 0.66027 0.02534 0.0
C589 C 0.25184 0.94138 0.53159 0.0
C590 C 0.23866 0.90932 0.51246 0.0
C591 C 0.24909 0.93652 0.56311 0.0
C592 C 0.23247 0.89954 0.57678 0.0
H593 H 0.26452 0.9706 0.52221 0.0
H594 H 0.25944 0.96209 0.57691 0.0
S595 S 0.19465 0.80579 0.5373 0.0
N596 N 0.20906 0.83891 0.50975 0.0
N597 N 0.20394 0.82999 0.56911 0.0
C598 C 0.21931 0.86714 0.55809 0.0
C599 C 0.22253 0.87195 0.52592 0.0
C600 C 0.17333 0.23069 0.31114 0.0
C601 C 0.14936 0.26989 0.30755 0.0
C602 C 0.14389 0.19753 0.29884 0.0
C603 C 0.08941 0.20221 0.28239 0.0
H604 H 0.21507 0.22538 0.32376 0.0
H605 H 0.16402 0.16796 0.30221 0.0
S606 S 0.00897 0.29809 0.2648 0.0
N607 N 0.06833 0.31131 0.28527 0.0
N608 N 0.01346 0.24875 0.26211 0.0
C609 C 0.06493 0.24101 0.27839 0.0
C610 C 0.0949 0.27491 0.29088 0.0
C611 C 0.35726 0.30565 0.84565 0.0
C612 C 0.37761 0.26736 0.85566 0.0
C613 C 0.39315 0.33019 0.82656 0.0
C614 C 0.4512 0.31769 0.81688 0.0
H615 H 0.31267 0.31665 0.85214 0.0
H616 H 0.37515 0.35929 0.81939 0.0
S617 S 0.52563 0.21998 0.83585 0.0
N618 N 0.4598 0.218 0.85402 0.0
N619 N 0.52712 0.26434 0.81823 0.0
C620 C 0.4725 0.27972 0.82683 0.0
C621 C 0.43576 0.25451 0.84616 0.0
C622 C 0.69696 0.28212 0.68117 0.0
C623 C 0.69352 0.24145 0.69064 0.0
C624 C 0.66536 0.31206 0.69665 0.0
C625 C 0.63106 0.30256 0.72273 0.0
H626 H 0.72296 0.29074 0.66118 0.0
H627 H 0.66819 0.34291 0.6883 0.0
S628 S 0.60875 0.20106 0.75741 0.0
N629 N 0.65288 0.19335 0.72777 0.0
N630 N 0.59597 0.25003 0.75763 0.0
C631 C 0.62836 0.26227 0.73286 0.0
C632 C 0.65892 0.23159 0.71659 0.0
C633 C 0.85482 0.25571 0.19418 0.0
C634 C 0.84901 0.25643 0.16259 0.0
C635 C 0.89064 0.22643 0.20908 0.0
C636 C 0.92017 0.19583 0.19304 0.0
H637 H 0.8325 0.27846 0.20743 0.0
H638 H 0.89496 0.22783 0.23344 0.0
S639 S 0.91667 0.18424 0.10963 0.0
N640 N 0.87529 0.2249 0.11547 0.0
N641 N 0.93949 0.16806 0.1434 0.0
C642 C 0.91378 0.19611 0.16128 0.0
C643 C 0.8789 0.22682 0.14609 0.0
C644 C 0.89884 0.72297 0.67529 0.0
C645 C 0.8523 0.7344 0.65488 0.0
C646 C 0.93073 0.75173 0.69163 0.0
C647 C 0.91726 0.79295 0.68808 0.0
H648 H 0.90957 0.69146 0.67935 0.0
H649 H 0.96467 0.74148 0.70792 0.0
S650 S 0.80625 0.83897 0.63419 0.0
N651 N 0.7984 0.79004 0.62998 0.0
N652 N 0.85921 0.84412 0.66038 0.0
C653 C 0.8729 0.80494 0.66678 0.0
C654 C 0.84008 0.77565 0.65029 0.0
C655 C 0.6094 0.77446 0.18525 0.0
C656 C 0.66623 0.76666 0.17159 0.0
C657 C 0.57676 0.74394 0.20062 0.0
C658 C 0.60005 0.70459 0.20338 0.0
H659 H 0.58997 0.80445 0.18425 0.0
H660 H 0.53343 0.75147 0.21081 0.0
S661 S 0.7412 0.66656 0.16754 0.0
N662 N 0.74083 0.71523 0.15911 0.0
N663 N 0.67928 0.65821 0.18802 0.0
C664 C 0.65538 0.69591 0.18883 0.0
C665 C 0.68856 0.72686 0.17301 0.0
C666 C 0.38108 0.73783 0.33857 0.0
C667 C 0.39868 0.77756 0.33097 0.0
C668 C 0.40548 0.70502 0.32328 0.0
C669 C 0.44667 0.711 0.29926 0.0
H670 H 0.34813 0.732 0.35642 0.0
H671 H 0.39052 0.67491 0.32959 0.0
S672 S 0.51149 0.80799 0.27199 0.0
N673 N 0.46369 0.82037 0.29915 0.0
N674 N 0.50746 0.75857 0.26987 0.0
C675 C 0.46577 0.75019 0.29188 0.0
C676 C 0.44231 0.78353 0.30789 0.0
C677 C 0.10393 0.71207 0.80782 0.0
C678 C 0.14375 0.72507 0.83055 0.0
C679 C 0.06629 0.7394 0.79187 0.0
C680 C 0.06572 0.78038 0.79882 0.0
H681 H 0.10292 0.6807 0.8018 0.0
H682 H 0.03765 0.72849 0.77388 0.0
S683 S 0.16011 0.82988 0.85632 0.0
N684 N 0.18024 0.78198 0.85893 0.0
N685 N 0.10729 0.83283 0.82972 0.0
C686 C 0.10396 0.79368 0.82185 0.0
C687 C 0.14367 0.76615 0.83749 0.0
loop_
_geom_bond_atom_site_label_1
_geom_bond_atom_site_label_2
_geom_bond_distance
_geom_bond_site_symmetry_2
_ccdc_geom_bond_type
O0 Cd1 2.300 . S
O0 C7 1.275 . S
Cd1 O0 2.300 . S
Cd1 O9 2.381 . S
Cd1 O10 2.378 . S
O2 Cd3 2.385 . S
O2 C7 1.255 . S
Cd3 O2 2.385 . S
Cd3 O4 2.317 . S
O4 Cd3 2.317 . S
O4 C5 1.232 . S
C5 O4 1.232 . S
C5 O6 1.218 . S
O6 C5 1.218 . S
C7 O0 1.275 . S
C7 O2 1.255 . S
C8 O9 1.258 . S
C8 O10 1.256 . S
O9 Cd1 2.381 . S
O9 C8 1.258 . S
O10 Cd1 2.378 . S
O10 C8 1.256 . S
O11 Cd12 2.300 . S
O11 C18 1.275 . S
Cd12 O11 2.300 . S
Cd12 O20 2.381 . S
Cd12 O21 2.378 . S
O13 Cd14 2.385 . S
O13 C18 1.255 . S
Cd14 O13 2.385 . S
Cd14 O15 2.317 . S
O15 Cd14 2.317 . S
O15 C16 1.232 . S
C16 O15 1.232 . S
C16 O17 1.218 . S
O17 C16 1.218 . S
C18 O11 1.275 . S
C18 O13 1.255 . S
C19 O20 1.258 . S
C19 O21 1.256 . S
O20 Cd12 2.381 . S
O20 C19 1.258 . S
O21 Cd12 2.378 . S
O21 C19 1.256 . S
O22 Cd23 2.300 . S
O22 C29 1.275 . S
Cd23 O22 2.300 . S
Cd23 O31 2.381 . S
Cd23 O32 2.378 . S
O24 Cd25 2.385 . S
O24 C29 1.255 . S
Cd25 O24 2.385 . S
Cd25 O26 2.317 . S
O26 Cd25 2.317 . S
O26 C27 1.232 . S
C27 O26 1.232 . S
C27 O28 1.218 . S
O28 C27 1.218 . S
C29 O22 1.275 . S
C29 O24 1.255 . S
C30 O31 1.258 . S
C30 O32 1.256 . S
O31 Cd23 2.381 . S
O31 C30 1.258 . S
O32 Cd23 2.378 . S
O32 C30 1.256 . S
O33 Cd34 2.300 . S
O33 C40 1.275 . S
Cd34 O33 2.300 . S
Cd34 O42 2.381 . S
Cd34 O43 2.378 . S
O35 Cd36 2.385 . S
O35 C40 1.255 . S
Cd36 O35 2.385 . S
Cd36 O37 2.317 . S
O37 Cd36 2.317 . S
O37 C38 1.232 . S
C38 O37 1.232 . S
C38 O39 1.218 . S
O39 C38 1.218 . S
C40 O33 1.275 . S
C40 O35 1.255 . S
C41 O42 1.258 . S
C41 O43 1.256 . S
O42 Cd34 2.381 . S
O42 C41 1.258 . S
O43 Cd34 2.378 . S
O43 C41 1.256 . S
O44 Cd45 2.300 . S
O44 C51 1.275 . S
Cd45 O44 2.300 . S
Cd45 O53 2.381 . S
Cd45 O54 2.378 . S
O46 Cd47 2.385 . S
O46 C51 1.255 . S
Cd47 O46 2.385 . S
Cd47 O48 2.317 . S
O48 Cd47 2.317 . S
O48 C49 1.232 . S
C49 O48 1.232 . S
C49 O50 1.218 . S
O50 C49 1.218 . S
C51 O44 1.275 . S
C51 O46 1.255 . S
C52 O53 1.258 . S
C52 O54 1.256 . S
O53 Cd45 2.381 . S
O53 C52 1.258 . S
O54 Cd45 2.378 . S
O54 C52 1.256 . S
O55 Cd56 2.300 . S
O55 C62 1.275 . S
Cd56 O55 2.300 . S
Cd56 O64 2.381 . S
Cd56 O65 2.378 . S
O57 Cd58 2.385 . S
O57 C62 1.255 . S
Cd58 O57 2.385 . S
Cd58 O59 2.317 . S
O59 Cd58 2.317 . S
O59 C60 1.232 . S
C60 O59 1.232 . S
C60 O61 1.218 . S
O61 C60 1.218 . S
C62 O55 1.275 . S
C62 O57 1.255 . S
C63 O64 1.258 . S
C63 O65 1.256 . S
O64 Cd56 2.381 . S
O64 C63 1.258 . S
O65 Cd56 2.378 . S
O65 C63 1.256 . S
O66 Cd67 2.300 . S
O66 C73 1.275 . S
Cd67 O66 2.300 . S
Cd67 O75 2.381 . S
Cd67 O76 2.378 . S
O68 Cd69 2.385 . S
O68 C73 1.255 . S
Cd69 O68 2.385 . S
Cd69 O70 2.317 . S
O70 Cd69 2.317 . S
O70 C71 1.232 . S
C71 O70 1.232 . S
C71 O72 1.218 . S
O72 C71 1.218 . S
C73 O66 1.275 . S
C73 O68 1.255 . S
C74 O75 1.258 . S
C74 O76 1.256 . S
O75 Cd67 2.381 . S
O75 C74 1.258 . S
O76 Cd67 2.378 . S
O76 C74 1.256 . S
O77 Cd78 2.300 . S
O77 C84 1.275 . S
Cd78 O77 2.300 . S
Cd78 O86 2.381 . S
Cd78 O87 2.378 . S
O79 Cd80 2.385 . S
O79 C84 1.255 . S
Cd80 O79 2.385 . S
Cd80 O81 2.317 . S
O81 Cd80 2.317 . S
O81 C82 1.232 . S
C82 O81 1.232 . S
C82 O83 1.218 . S
O83 C82 1.218 . S
C84 O77 1.275 . S
C84 O79 1.255 . S
C85 O86 1.258 . S
C85 O87 1.256 . S
O86 Cd78 2.381 . S
O86 C85 1.258 . S
O87 Cd78 2.378 . S
O87 C85 1.256 . S
Eu88 N117 2.600 . S
Eu88 N123 2.562 . S
Eu88 O132 2.462 . S
Eu88 O133 2.373 . S
Eu88 O135 2.432 . S
Eu88 O136 2.291 . S
Eu88 O140 2.335 . S
Eu88 O143 2.372 . S
Eu88 C152 2.787 . S
C89 N90 1.365 . S
C89 C92 1.405 . S
C89 C96 1.448 . S
N90 C89 1.365 . S
N90 C93 1.319 . S
N90 Eu99 2.600 . S
C91 C93 1.397 . S
C91 C94 1.367 . S
C91 H111 0.931 . S
C92 C89 1.405 . S
C92 C94 1.403 . S
C92 C98 1.439 . S
C93 N90 1.319 . S
C93 C91 1.397 . S
C93 H104 0.930 . S
C94 C91 1.367 . S
C94 C92 1.403 . S
C94 H115 0.929 . S
C95 C96 1.430 . S
C95 C97 1.387 . S
C95 C101 1.404 1_545 S
C96 C89 1.448 . S
C96 C95 1.430 . S
C96 N100 1.351 . S
C97 C95 1.387 . S
C97 C98 1.374 . S
C97 H112 0.931 1_545 S
C98 C92 1.439 . S
C98 C97 1.374 . S
C98 H113 0.931 . S
Eu99 N90 2.600 . S
Eu99 N100 2.562 . S
Eu99 O134 2.335 1_655 S
Eu99 O137 2.372 . S
Eu99 O138 2.462 . S
Eu99 O139 2.373 . S
Eu99 O141 2.432 . S
Eu99 O142 2.291 1_655 S
Eu99 C163 2.787 . S
N100 C96 1.351 . S
N100 Eu99 2.562 . S
N100 C102 1.325 . S
C101 C95 1.404 1_565 S
C101 C103 1.366 . S
C101 H109 0.930 . S
C102 N100 1.325 . S
C102 C103 1.416 1_545 S
C102 H108 0.929 . S
C103 C101 1.366 . S
C103 C102 1.416 1_565 S
C103 H105 0.930 . S
H104 C93 0.930 . S
H105 C103 0.930 . S
H106 C121 0.930 . S
H107 C128 0.930 . S
H108 C102 0.929 . S
H109 C101 0.930 . S
H110 C124 0.929 . S
H111 C91 0.931 . S
H112 C97 0.931 1_565 S
H113 C98 0.931 . S
H114 C119 0.931 . S
H115 C94 0.929 . S
H116 C127 0.930 . S
N117 Eu88 2.600 . S
N117 C118 1.365 . S
N117 C121 1.319 . S
C118 N117 1.365 . S
C118 C120 1.405 . S
C118 C126 1.448 . S
C119 H114 0.931 . S
C119 C121 1.397 . S
C119 C122 1.367 . S
C120 C118 1.405 . S
C120 C122 1.403 . S
C120 C153 1.439 . S
C121 H106 0.930 . S
C121 N117 1.319 . S
C121 C119 1.397 . S
C122 C119 1.367 . S
C122 C120 1.403 . S
C122 H129 0.929 . S
N123 Eu88 2.562 . S
N123 C124 1.325 . S
N123 C126 1.351 . S
C124 H110 0.929 . S
C124 N123 1.325 . S
C124 C128 1.416 . S
C125 C126 1.430 . S
C125 C127 1.404 . S
C125 C154 1.387 . S
C126 C118 1.448 . S
C126 N123 1.351 . S
C126 C125 1.430 . S
C127 H116 0.930 . S
C127 C125 1.404 . S
C127 C128 1.366 . S
C128 H107 0.930 . S
C128 C124 1.416 . S
C128 C127 1.366 . S
H129 C122 0.929 . S
H130 C153 0.931 . S
H131 C154 0.931 . S
O132 Eu88 2.462 . S
O132 C152 1.252 . S
O133 Eu88 2.373 . S
O133 C144 1.249 . S
O134 Eu99 2.335 1_455 S
O134 C144 1.264 . S
O135 Eu88 2.432 . S
O135 C152 1.268 . S
O136 Eu88 2.291 . S
O136 C151 1.255 1_455 S
O137 Eu99 2.372 . S
O137 C151 1.257 . S
O138 Eu99 2.462 . S
O138 C163 1.252 . S
O139 Eu99 2.373 . S
O139 C155 1.249 . S
O140 Eu88 2.335 . S
O140 C155 1.264 1_455 S
O141 Eu99 2.432 . S
O141 C163 1.268 . S
O142 Eu99 2.291 1_455 S
O142 C162 1.255 . S
O143 Eu88 2.372 . S
O143 C162 1.257 . S
C144 O133 1.249 . S
C144 O134 1.264 . S
C145 C148 1.382 . S
C145 C150 1.390 . S
C145 C152 1.506 . S
C146 C147 1.398 . S
C146 C150 1.392 . S
C147 C146 1.398 . S
C147 C149 1.372 . S
C147 H164 0.931 . S
C148 C145 1.382 . S
C148 C149 1.390 . S
C148 H165 0.931 . S
C149 C147 1.372 . S
C149 C148 1.390 . S
C149 H166 0.929 . S
C150 C145 1.390 . S
C150 C146 1.392 . S
C150 H167 0.930 . S
C151 O136 1.255 1_655 S
C151 O137 1.257 . S
C152 Eu88 2.787 . S
C152 O132 1.252 . S
C152 O135 1.268 . S
C152 C145 1.506 . S
C153 C120 1.439 . S
C153 H130 0.931 . S
C153 C154 1.374 . S
C154 C125 1.387 . S
C154 H131 0.931 . S
C154 C153 1.374 . S
C155 O139 1.249 . S
C155 O140 1.264 1_655 S
C156 C159 1.382 . S
C156 C160 1.390 . S
C156 C163 1.506 . S
C157 C158 1.398 . S
C157 C160 1.392 . S
C158 C157 1.398 . S
C158 C161 1.372 . S
C158 H168 0.931 . S
C159 C156 1.382 . S
C159 C161 1.390 . S
C159 H169 0.931 . S
C160 C156 1.390 . S
C160 C157 1.392 . S
C160 H170 0.930 . S
C161 C158 1.372 . S
C161 C159 1.390 . S
C161 H171 0.929 . S
C162 O142 1.255 . S
C162 O143 1.257 . S
C163 Eu99 2.787 . S
C163 O138 1.252 . S
C163 O141 1.268 . S
C163 C156 1.506 . S
H164 C147 0.931 . S
H165 C148 0.931 . S
H166 C149 0.929 . S
H167 C150 0.930 . S
H168 C158 0.931 . S
H169 C159 0.931 . S
H170 C160 0.930 . S
H171 C161 0.929 . S
Eu172 N201 2.600 . S
Eu172 N207 2.562 . S
Eu172 O216 2.462 . S
Eu172 O217 2.373 . S
Eu172 O219 2.432 . S
Eu172 O220 2.291 . S
Eu172 O224 2.335 . S
Eu172 O227 2.372 . S
Eu172 C236 2.787 . S
C173 N174 1.365 . S
C173 C176 1.405 . S
C173 C180 1.448 . S
N174 C173 1.365 . S
N174 C177 1.319 . S
N174 Eu183 2.600 . S
C175 C177 1.397 . S
C175 C178 1.367 . S
C175 H195 0.931 . S
C176 C173 1.405 . S
C176 C178 1.403 . S
C176 C182 1.439 . S
C177 N174 1.319 . S
C177 C175 1.397 . S
C177 H188 0.930 . S
C178 C175 1.367 . S
C178 C176 1.403 . S
C178 H199 0.929 . S
C179 C180 1.430 . S
C179 C181 1.387 . S
C179 C185 1.404 . S
C180 C173 1.448 . S
C180 C179 1.430 . S
C180 N184 1.351 . S
C181 C179 1.387 . S
C181 C182 1.374 . S
C181 H196 0.931 . S
C182 C176 1.439 . S
C182 C181 1.374 . S
C182 H197 0.931 . S
Eu183 N174 2.600 . S
Eu183 N184 2.562 . S
Eu183 O218 2.335 . S
Eu183 O221 2.372 . S
Eu183 O222 2.462 . S
Eu183 O223 2.373 . S
Eu183 O225 2.432 . S
Eu183 O226 2.291 . S
Eu183 C247 2.787 . S
N184 C180 1.351 . S
N184 Eu183 2.562 . S
N184 C186 1.325 . S
C185 C179 1.404 . S
C185 C187 1.366 . S
C185 H193 0.930 . S
C186 N184 1.325 . S
C186 C187 1.416 . S
C186 H192 0.929 . S
C187 C185 1.366 . S
C187 C186 1.416 . S
C187 H189 0.930 . S
H188 C177 0.930 . S
H189 C187 0.930 . S
H190 C205 0.930 . S
H191 C212 0.930 . S
H192 C186 0.929 . S
H193 C185 0.930 . S
H194 C208 0.929 . S
H195 C175 0.931 . S
H196 C181 0.931 . S
H197 C182 0.931 . S
H198 C203 0.931 . S
H199 C178 0.929 . S
H200 C211 0.930 . S
N201 Eu172 2.600 . S
N201 C202 1.365 . S
N201 C205 1.319 . S
C202 N201 1.365 . S
C202 C204 1.405 . S
C202 C210 1.448 . S
C203 H198 0.931 . S
C203 C205 1.397 . S
C203 C206 1.367 . S
C204 C202 1.405 . S
C204 C206 1.403 . S
C204 C237 1.439 . S
C205 H190 0.930 . S
C205 N201 1.319 . S
C205 C203 1.397 . S
C206 C203 1.367 . S
C206 C204 1.403 . S
C206 H213 0.929 . S
N207 Eu172 2.562 . S
N207 C208 1.325 . S
N207 C210 1.351 . S
C208 H194 0.929 . S
C208 N207 1.325 . S
C208 C212 1.416 . S
C209 C210 1.430 . S
C209 C211 1.404 . S
C209 C238 1.387 . S
C210 C202 1.448 . S
C210 N207 1.351 . S
C210 C209 1.430 . S
C211 H200 0.930 . S
C211 C209 1.404 . S
C211 C212 1.366 . S
C212 H191 0.930 . S
C212 C208 1.416 . S
C212 C211 1.366 . S
H213 C206 0.929 . S
H214 C237 0.931 . S
H215 C238 0.931 . S
O216 Eu172 2.462 . S
O216 C236 1.252 . S
O217 Eu172 2.373 . S
O217 C228 1.249 . S
O218 Eu183 2.335 . S
O218 C228 1.264 . S
O219 Eu172 2.432 . S
O219 C236 1.268 . S
O220 Eu172 2.291 . S
O220 C235 1.255 . S
O221 Eu183 2.372 . S
O221 C235 1.257 . S
O222 Eu183 2.462 . S
O222 C247 1.252 . S
O223 Eu183 2.373 . S
O223 C239 1.249 . S
O224 Eu172 2.335 . S
O224 C239 1.264 . S
O225 Eu183 2.432 . S
O225 C247 1.268 . S
O226 Eu183 2.291 . S
O226 C246 1.255 . S
O227 Eu172 2.372 . S
O227 C246 1.257 . S
C228 O217 1.249 . S
C228 O218 1.264 . S
C229 C232 1.382 . S
C229 C234 1.390 . S
C229 C236 1.506 . S
C230 C231 1.398 . S
C230 C234 1.392 . S
C231 C230 1.398 . S
C231 C233 1.372 . S
C231 H248 0.931 . S
C232 C229 1.382 . S
C232 C233 1.390 . S
C232 H249 0.931 . S
C233 C231 1.372 . S
C233 C232 1.390 . S
C233 H250 0.929 . S
C234 C229 1.390 . S
C234 C230 1.392 . S
C234 H251 0.930 . S
C235 O220 1.255 . S
C235 O221 1.257 . S
C236 Eu172 2.787 . S
C236 O216 1.252 . S
C236 O219 1.268 . S
C236 C229 1.506 . S
C237 C204 1.439 . S
C237 H214 0.931 . S
C237 C238 1.374 . S
C238 C209 1.387 . S
C238 H215 0.931 . S
C238 C237 1.374 . S
C239 O223 1.249 . S
C239 O224 1.264 . S
C240 C243 1.382 . S
C240 C244 1.390 . S
C240 C247 1.506 . S
C241 C242 1.398 . S
C241 C244 1.392 . S
C242 C241 1.398 . S
C242 C245 1.372 . S
C242 H252 0.931 . S
C243 C240 1.382 . S
C243 C245 1.390 . S
C243 H253 0.931 . S
C244 C240 1.390 . S
C244 C241 1.392 . S
C244 H254 0.930 . S
C245 C242 1.372 . S
C245 C243 1.390 . S
C245 H255 0.929 . S
C246 O226 1.255 . S
C246 O227 1.257 . S
C247 Eu183 2.787 . S
C247 O222 1.252 . S
C247 O225 1.268 . S
C247 C240 1.506 . S
H248 C231 0.931 . S
H249 C232 0.931 . S
H250 C233 0.929 . S
H251 C234 0.930 . S
H252 C242 0.931 . S
H253 C243 0.931 . S
H254 C244 0.930 . S
H255 C245 0.929 . S
Eu256 N285 2.600 . S
Eu256 N291 2.562 . S
Eu256 O300 2.462 . S
Eu256 O301 2.373 . S
Eu256 O303 2.432 . S
Eu256 O304 2.291 . S
Eu256 O308 2.330 1_455 S
Eu256 O311 2.372 . S
Eu256 C320 2.787 . S
C257 N258 1.365 . S
C257 C260 1.405 . S
C257 C264 1.448 . S
N258 C257 1.365 . S
N258 C261 1.319 . S
N258 Eu267 2.600 . S
C259 C261 1.397 . S
C259 C262 1.367 . S
C259 H279 0.931 . S
C260 C257 1.405 . S
C260 C262 1.403 . S
C260 C266 1.439 . S
C261 N258 1.319 . S
C261 C259 1.397 . S
C261 H272 0.930 . S
C262 C259 1.367 . S
C262 C260 1.403 . S
C262 H283 0.929 . S
C263 C264 1.430 . S
C263 C265 1.387 . S
C263 C269 1.404 . S
C264 C257 1.448 . S
C264 C263 1.430 . S
C264 N268 1.351 . S
C265 C263 1.387 . S
C265 C266 1.374 . S
C265 H280 0.931 . S
C266 C260 1.439 . S
C266 C265 1.374 . S
C266 H281 0.931 . S
Eu267 N258 2.600 . S
Eu267 N268 2.562 . S
Eu267 O302 2.335 1_655 S
Eu267 O305 2.372 . S
Eu267 O306 2.462 . S
Eu267 O307 2.373 . S
Eu267 O309 2.432 . S
Eu267 O310 2.291 1_655 S
Eu267 C331 2.787 . S
N268 C264 1.351 . S
N268 Eu267 2.562 . S
N268 C270 1.325 . S
C269 C263 1.404 . S
C269 C271 1.366 . S
C269 H277 0.930 . S
C270 N268 1.325 . S
C270 C271 1.416 . S
C270 H276 0.929 . S
C271 C269 1.366 . S
C271 C270 1.416 . S
C271 H273 0.930 . S
H272 C261 0.930 . S
H273 C271 0.930 . S
H274 C289 0.930 . S
H275 C296 0.930 . S
H276 C270 0.929 . S
H277 C269 0.930 . S
H278 C292 0.930 . S
H279 C259 0.931 . S
H280 C265 0.931 . S
H281 C266 0.931 . S
H282 C287 0.931 . S
H283 C262 0.929 . S
H284 C295 0.930 . S
N285 Eu256 2.600 . S
N285 C286 1.365 . S
N285 C289 1.319 . S
C286 N285 1.365 . S
C286 C288 1.405 . S
C286 C294 1.448 . S
C287 H282 0.931 . S
C287 C289 1.397 . S
C287 C290 1.367 . S
C288 C286 1.405 . S
C288 C290 1.403 . S
C288 C321 1.439 . S
C289 H274 0.930 . S
C289 N285 1.319 . S
C289 C287 1.397 . S
C290 C287 1.367 . S
C290 C288 1.403 . S
C290 H297 0.929 . S
N291 Eu256 2.562 . S
N291 C292 1.333 . S
N291 C294 1.351 . S
C292 H278 0.930 . S
C292 N291 1.333 . S
C292 C296 1.407 1_565 S
C293 C294 1.430 1_545 S
C293 C295 1.404 . S
C293 C322 1.387 . S
C294 C286 1.448 . S
C294 N291 1.351 . S
C294 C293 1.430 1_565 S
C295 H284 0.930 . S
C295 C293 1.404 . S
C295 C296 1.366 . S
C296 H275 0.930 . S
C296 C292 1.407 1_545 S
C296 C295 1.366 . S
H297 C290 0.929 . S
H298 C321 0.931 . S
H299 C322 0.931 . S
O300 Eu256 2.462 . S
O300 C320 1.252 . S
O301 Eu256 2.373 . S
O301 C312 1.249 . S
O302 Eu267 2.335 1_455 S
O302 C312 1.264 . S
O303 Eu256 2.432 . S
O303 C320 1.268 . S
O304 Eu256 2.291 . S
O304 C319 1.255 1_455 S
O305 Eu267 2.372 . S
O305 C319 1.257 . S
O306 Eu267 2.462 . S
O306 C331 1.252 . S
O307 Eu267 2.373 . S
O307 C323 1.249 . S
O308 Eu256 2.330 1_655 S
O308 C323 1.270 . S
O309 Eu267 2.432 . S
O309 C331 1.268 . S
O310 Eu267 2.291 1_455 S
O310 C330 1.255 . S
O311 Eu256 2.372 . S
O311 C330 1.257 . S
C312 O301 1.249 . S
C312 O302 1.264 . S
C313 C316 1.382 . S
C313 C318 1.390 . S
C313 C320 1.506 . S
C314 C315 1.398 . S
C314 C318 1.392 . S
C315 C314 1.398 . S
C315 C317 1.372 . S
C315 H332 0.931 . S
C316 C313 1.382 . S
C316 C317 1.390 . S
C316 H333 0.931 . S
C317 C315 1.372 . S
C317 C316 1.390 . S
C317 H334 0.929 . S
C318 C313 1.390 . S
C318 C314 1.392 . S
C318 H335 0.930 . S
C319 O304 1.255 1_655 S
C319 O305 1.257 . S
C320 Eu256 2.787 . S
C320 O300 1.252 . S
C320 O303 1.268 . S
C320 C313 1.506 . S
C321 C288 1.439 . S
C321 H298 0.931 . S
C321 C322 1.374 1_565 S
C322 C293 1.387 . S
C322 H299 0.931 . S
C322 C321 1.374 1_545 S
C323 O307 1.249 . S
C323 O308 1.270 . S
C324 C327 1.382 . S
C324 C328 1.390 . S
C324 C331 1.506 . S
C325 C326 1.398 . S
C325 C328 1.392 . S
C326 C325 1.398 . S
C326 C329 1.372 . S
C326 H336 0.931 . S
C327 C324 1.382 . S
C327 C329 1.390 . S
C327 H337 0.931 . S
C328 C324 1.390 . S
C328 C325 1.392 . S
C328 H338 0.930 . S
C329 C326 1.372 . S
C329 C327 1.390 . S
C329 H339 0.929 . S
C330 O310 1.255 . S
C330 O311 1.257 . S
C331 Eu267 2.787 . S
C331 O306 1.252 . S
C331 O309 1.268 . S
C331 C324 1.506 . S
H332 C315 0.931 . S
H333 C316 0.931 . S
H334 C317 0.929 . S
H335 C318 0.930 . S
H336 C326 0.931 . S
H337 C327 0.931 . S
H338 C328 0.930 . S
H339 C329 0.929 . S
Eu340 N369 2.600 . S
Eu340 N375 2.562 . S
Eu340 O384 2.462 . S
Eu340 O385 2.373 . S
Eu340 O387 2.432 . S
Eu340 O388 2.291 . S
Eu340 O392 2.335 . S
Eu340 O395 2.372 . S
Eu340 C404 2.787 . S
C341 N342 1.365 . S
C341 C344 1.405 . S
C341 C348 1.448 . S
N342 C341 1.365 . S
N342 C345 1.319 . S
N342 Eu351 2.600 . S
C343 C345 1.397 . S
C343 C346 1.367 . S
C343 H363 0.931 . S
C344 C341 1.405 . S
C344 C346 1.403 . S
C344 C350 1.439 . S
C345 N342 1.319 . S
C345 C343 1.397 . S
C345 H356 0.930 . S
C346 C343 1.367 . S
C346 C344 1.403 . S
C346 H367 0.929 . S
C347 C348 1.430 . S
C347 C349 1.387 . S
C347 C353 1.404 . S
C348 C341 1.448 . S
C348 C347 1.430 . S
C348 N352 1.351 . S
C349 C347 1.387 . S
C349 C350 1.374 . S
C349 H364 0.931 . S
C350 C344 1.439 . S
C350 C349 1.374 . S
C350 H365 0.931 . S
Eu351 N342 2.600 . S
Eu351 N352 2.562 . S
Eu351 O386 2.335 . S
Eu351 O389 2.372 . S
Eu351 O390 2.462 . S
Eu351 O391 2.373 . S
Eu351 O393 2.432 . S
Eu351 O394 2.291 . S
Eu351 C415 2.787 . S
N352 C348 1.351 . S
N352 Eu351 2.562 . S
N352 C354 1.325 . S
C353 C347 1.404 . S
C353 C355 1.366 . S
C353 H361 0.930 . S
C354 N352 1.325 . S
C354 C355 1.416 . S
C354 H360 0.929 . S
C355 C353 1.366 . S
C355 C354 1.416 . S
C355 H357 0.930 . S
H356 C345 0.930 . S
H357 C355 0.930 . S
H358 C373 0.930 . S
H359 C380 0.930 . S
H360 C354 0.929 . S
H361 C353 0.930 . S
H362 C376 0.929 . S
H363 C343 0.931 . S
H364 C349 0.931 . S
H365 C350 0.931 . S
H366 C371 0.931 . S
H367 C346 0.929 . S
H368 C379 0.930 . S
N369 Eu340 2.600 . S
N369 C370 1.365 . S
N369 C373 1.319 . S
C370 N369 1.365 . S
C370 C372 1.405 . S
C370 C378 1.448 . S
C371 H366 0.931 . S
C371 C373 1.397 . S
C371 C374 1.367 . S
C372 C370 1.405 . S
C372 C374 1.403 . S
C372 C405 1.439 . S
C373 H358 0.930 . S
C373 N369 1.319 . S
C373 C371 1.397 . S
C374 C371 1.367 . S
C374 C372 1.403 . S
C374 H381 0.929 . S
N375 Eu340 2.562 . S
N375 C376 1.325 . S
N375 C378 1.351 . S
C376 H362 0.929 . S
C376 N375 1.325 . S
C376 C380 1.416 . S
C377 C378 1.430 . S
C377 C379 1.404 . S
C377 C406 1.387 . S
C378 C370 1.448 . S
C378 N375 1.351 . S
C378 C377 1.430 . S
C379 H368 0.930 . S
C379 C377 1.404 . S
C379 C380 1.366 . S
C380 H359 0.930 . S
C380 C376 1.416 . S
C380 C379 1.366 . S
H381 C374 0.929 . S
H382 C405 0.931 . S
H383 C406 0.931 . S
O384 Eu340 2.462 . S
O384 C404 1.252 . S
O385 Eu340 2.373 . S
O385 C396 1.249 . S
O386 Eu351 2.335 . S
O386 C396 1.264 . S
O387 Eu340 2.432 . S
O387 C404 1.268 . S
O388 Eu340 2.291 . S
O388 C403 1.255 . S
O389 Eu351 2.372 . S
O389 C403 1.257 . S
O390 Eu351 2.462 . S
O390 C415 1.252 . S
O391 Eu351 2.373 . S
O391 C407 1.249 . S
O392 Eu340 2.335 . S
O392 C407 1.264 . S
O393 Eu351 2.432 . S
O393 C415 1.268 . S
O394 Eu351 2.291 . S
O394 C414 1.255 . S
O395 Eu340 2.372 . S
O395 C414 1.257 . S
C396 O385 1.249 . S
C396 O386 1.264 . S
C397 C400 1.382 . S
C397 C402 1.390 . S
C397 C404 1.506 . S
C398 C399 1.398 . S
C398 C402 1.392 . S
C399 C398 1.398 . S
C399 C401 1.372 . S
C399 H416 0.931 . S
C400 C397 1.382 . S
C400 C401 1.390 . S
C400 H417 0.931 . S
C401 C399 1.372 . S
C401 C400 1.390 . S
C401 H418 0.929 . S
C402 C397 1.390 . S
C402 C398 1.392 . S
C402 H419 0.930 . S
C403 O388 1.255 . S
C403 O389 1.257 . S
C404 Eu340 2.787 . S
C404 O384 1.252 . S
C404 O387 1.268 . S
C404 C397 1.506 . S
C405 C372 1.439 . S
C405 H382 0.931 . S
C405 C406 1.374 . S
C406 C377 1.387 . S
C406 H383 0.931 . S
C406 C405 1.374 . S
C407 O391 1.249 . S
C407 O392 1.264 . S
C408 C411 1.382 . S
C408 C412 1.390 . S
C408 C415 1.506 . S
C409 C410 1.398 . S
C409 C412 1.392 . S
C410 C409 1.398 . S
C410 C413 1.372 . S
C410 H420 0.931 . S
C411 C408 1.382 . S
C411 C413 1.390 . S
C411 H421 0.931 . S
C412 C408 1.390 . S
C412 C409 1.392 . S
C412 H422 0.930 . S
C413 C410 1.372 . S
C413 C411 1.390 . S
C413 H423 0.929 . S
C414 O394 1.255 . S
C414 O395 1.257 . S
C415 Eu351 2.787 . S
C415 O390 1.252 . S
C415 O393 1.268 . S
C415 C408 1.506 . S
H416 C399 0.931 . S
H417 C400 0.931 . S
H418 C401 0.929 . S
H419 C402 0.930 . S
H420 C410 0.931 . S
H421 C411 0.931 . S
H422 C412 0.930 . S
H423 C413 0.929 . S
C424 C425 1.369 . S
C424 C426 1.419 1_565 S
C424 H428 0.930 . S
C425 C424 1.369 . S
C425 C434 1.429 . S
C426 C424 1.419 1_545 S
C426 C427 1.363 . S
C426 H429 0.929 . S
C427 C426 1.363 . S
C427 C433 1.428 1_545 S
H428 C424 0.930 . S
H429 C426 0.929 . S
S430 N431 1.613 . S
S430 N432 1.610 . S
N431 S430 1.613 . S
N431 C434 1.350 . S
N432 S430 1.610 . S
N432 C433 1.351 . S
C433 C427 1.428 1_565 S
C433 N432 1.351 . S
C433 C434 1.434 . S
C434 C425 1.429 . S
C434 N431 1.350 . S
C434 C433 1.434 . S
C435 C436 1.369 . S
C435 C437 1.419 . S
C435 H439 0.930 . S
C436 C435 1.369 . S
C436 C445 1.429 . S
C437 C435 1.419 . S
C437 C438 1.363 . S
C437 H440 0.929 . S
C438 C437 1.363 . S
C438 C444 1.428 . S
H439 C435 0.930 . S
H440 C437 0.929 . S
S441 N442 1.613 . S
S441 N443 1.610 . S
N442 S441 1.613 . S
N442 C445 1.350 . S
N443 S441 1.610 . S
N443 C444 1.351 . S
C444 C438 1.428 . S
C444 N443 1.351 . S
C444 C445 1.434 . S
C445 C436 1.429 . S
C445 N442 1.350 . S
C445 C444 1.434 . S
C446 C447 1.369 . S
C446 C448 1.419 . S
C446 H450 0.930 . S
C447 C446 1.369 . S
C447 C456 1.429 . S
C448 C446 1.419 . S
C448 C449 1.363 . S
C448 H451 0.929 . S
C449 C448 1.363 . S
C449 C455 1.428 . S
H450 C446 0.930 . S
H451 C448 0.929 . S
S452 N453 1.613 . S
S452 N454 1.610 . S
N453 S452 1.613 . S
N453 C456 1.350 . S
N454 S452 1.610 . S
N454 C455 1.351 . S
C455 C449 1.428 . S
C455 N454 1.351 . S
C455 C456 1.434 . S
C456 C447 1.429 . S
C456 N453 1.350 . S
C456 C455 1.434 . S
C457 C458 1.369 . S
C457 C459 1.419 . S
C457 H461 0.930 . S
C458 C457 1.369 . S
C458 C467 1.429 . S
C459 C457 1.419 . S
C459 C460 1.363 1_565 S
C459 H462 0.929 . S
C460 C459 1.363 1_545 S
C460 C466 1.428 . S
H461 C457 0.930 . S
H462 C459 0.929 . S
S463 N464 1.613 . S
S463 N465 1.610 . S
N464 S463 1.613 . S
N464 C467 1.350 1_545 S
N465 S463 1.610 . S
N465 C466 1.351 . S
C466 C460 1.428 . S
C466 N465 1.351 . S
C466 C467 1.434 1_545 S
C467 C458 1.429 . S
C467 N464 1.350 1_565 S
C467 C466 1.434 1_565 S
C468 C469 1.369 . S
C468 C470 1.419 1_545 S
C468 H472 0.930 . S
C469 C468 1.369 . S
C469 C478 1.429 . S
C470 C468 1.419 1_565 S
C470 C471 1.363 . S
C470 H473 0.929 . S
C471 C470 1.363 . S
C471 C477 1.428 1_565 S
H472 C468 0.930 . S
H473 C470 0.929 . S
S474 N475 1.613 . S
S474 N476 1.610 . S
N475 S474 1.613 . S
N475 C478 1.350 . S
N476 S474 1.610 . S
N476 C477 1.351 . S
C477 C471 1.428 1_545 S
C477 N476 1.351 . S
C477 C478 1.434 . S
C478 C469 1.429 . S
C478 N475 1.350 . S
C478 C477 1.434 . S
C479 C480 1.369 . S
C479 C481 1.419 . S
C479 H483 0.930 . S
C480 C479 1.369 . S
C480 C489 1.429 . S
C481 C479 1.419 . S
C481 C482 1.363 . S
C481 H484 0.929 . S
C482 C481 1.363 . S
C482 C488 1.428 . S
H483 C479 0.930 . S
H484 C481 0.929 . S
S485 N486 1.613 . S
S485 N487 1.610 . S
N486 S485 1.613 . S
N486 C489 1.350 . S
N487 S485 1.610 . S
N487 C488 1.351 . S
C488 C482 1.428 . S
C488 N487 1.351 . S
C488 C489 1.434 . S
C489 C480 1.429 . S
C489 N486 1.350 . S
C489 C488 1.434 . S
C490 C491 1.369 . S
C490 C492 1.419 . S
C490 H494 0.930 . S
C491 C490 1.369 . S
C491 C500 1.429 . S
C492 C490 1.419 . S
C492 C493 1.363 . S
C492 H495 0.929 . S
C493 C492 1.363 . S
C493 C499 1.428 . S
H494 C490 0.930 . S
H495 C492 0.929 . S
S496 N497 1.613 . S
S496 N498 1.610 . S
N497 S496 1.613 . S
N497 C500 1.350 . S
N498 S496 1.610 . S
N498 C499 1.351 . S
C499 C493 1.428 . S
C499 N498 1.351 . S
C499 C500 1.434 . S
C500 C491 1.429 . S
C500 N497 1.350 . S
C500 C499 1.434 . S
C501 C502 1.369 . S
C501 C503 1.419 . S
C501 H505 0.930 . S
C502 C501 1.369 . S
C502 C511 1.442 . S
C503 C501 1.419 . S
C503 C504 1.363 1_545 S
C503 H506 0.929 . S
C504 C503 1.363 1_565 S
C504 C510 1.428 . S
H505 C501 0.930 . S
H506 C503 0.929 . S
S507 N508 1.613 . S
S507 N509 1.610 . S
N508 S507 1.613 . S
N508 C511 1.345 1_565 S
N509 S507 1.610 . S
N509 C510 1.351 . S
C510 C504 1.428 . S
C510 N509 1.351 . S
C510 C511 1.424 1_565 S
C511 C502 1.442 . S
C511 N508 1.345 1_545 S
C511 C510 1.424 1_545 S
C512 C513 1.369 . S
C512 C514 1.419 1_556 S
C512 H516 0.930 . S
C513 C512 1.369 . S
C513 C522 1.429 . S
C514 C512 1.419 1_554 S
C514 C515 1.363 . S
C514 H517 0.929 . S
C515 C514 1.363 . S
C515 C521 1.428 . S
H516 C512 0.930 . S
H517 C514 0.929 . S
S518 N519 1.613 . S
S518 N520 1.610 1_556 S
N519 S518 1.613 . S
N519 C522 1.350 . S
N520 S518 1.610 1_554 S
N520 C521 1.351 . S
C521 C515 1.428 . S
C521 N520 1.351 . S
C521 C522 1.434 1_554 S
C522 C513 1.429 . S
C522 N519 1.350 . S
C522 C521 1.434 1_556 S
C523 C524 1.369 . S
C523 C525 1.419 . S
C523 H527 0.930 . S
C524 C523 1.369 . S
C524 C533 1.429 . S
C525 C523 1.419 . S
C525 C526 1.363 . S
C525 H528 0.929 . S
C526 C525 1.363 . S
C526 C532 1.428 . S
H527 C523 0.930 . S
H528 C525 0.929 . S
S529 N530 1.613 . S
S529 N531 1.610 . S
N530 S529 1.613 . S
N530 C533 1.350 . S
N531 S529 1.610 . S
N531 C532 1.351 . S
C532 C526 1.428 . S
C532 N531 1.351 . S
C532 C533 1.434 . S
C533 C524 1.429 . S
C533 N530 1.350 . S
C533 C532 1.434 . S
C534 C535 1.369 1_556 S
C534 C536 1.419 . S
C534 H538 0.930 . S
C535 C534 1.369 1_554 S
C535 C544 1.429 . S
C536 C534 1.419 . S
C536 C537 1.363 . S
C536 H539 0.929 . S
C537 C536 1.363 . S
C537 C543 1.428 . S
H538 C534 0.930 . S
H539 C536 0.929 . S
S540 N541 1.613 . S
S540 N542 1.610 1_554 S
N541 S540 1.613 . S
N541 C544 1.350 . S
N542 S540 1.610 1_556 S
N542 C543 1.351 . S
C543 C537 1.428 . S
C543 N542 1.351 . S
C543 C544 1.434 1_556 S
C544 C535 1.429 . S
C544 N541 1.350 . S
C544 C543 1.434 1_554 S
C545 C546 1.369 . S
C545 C547 1.419 . S
C545 H549 0.930 . S
C546 C545 1.369 . S
C546 C555 1.429 . S
C547 C545 1.419 . S
C547 C548 1.363 . S
C547 H550 0.929 . S
C548 C547 1.363 . S
C548 C554 1.428 . S
H549 C545 0.930 . S
H550 C547 0.929 . S
S551 N552 1.613 . S
S551 N553 1.610 . S
N552 S551 1.613 . S
N552 C555 1.350 . S
N553 S551 1.610 . S
N553 C554 1.351 . S
C554 C548 1.428 . S
C554 N553 1.351 . S
C554 C555 1.434 . S
C555 C546 1.429 . S
C555 N552 1.350 . S
C555 C554 1.434 . S
C556 C557 1.369 . S
C556 C558 1.419 1_554 S
C556 H560 0.930 . S
C557 C556 1.369 . S
C557 C566 1.429 1_554 S
C558 C556 1.419 1_556 S
C558 C559 1.363 . S
C558 H561 0.929 . S
C559 C558 1.363 . S
C559 C565 1.428 . S
H560 C556 0.930 . S
H561 C558 0.929 . S
S562 N563 1.613 . S
S562 N564 1.610 . S
N563 S562 1.613 . S
N563 C566 1.350 . S
N564 S562 1.610 . S
N564 C565 1.351 . S
C565 C559 1.428 . S
C565 N564 1.351 . S
C565 C566 1.434 . S
C566 C557 1.429 1_556 S
C566 N563 1.350 . S
C566 C565 1.434 . S
C567 C568 1.369 . S
C567 C569 1.419 . S
C567 H571 0.930 . S
C568 C567 1.369 . S
C568 C577 1.429 . S
C569 C567 1.419 . S
C569 C570 1.363 . S
C569 H572 0.929 . S
C570 C569 1.363 . S
C570 C576 1.428 . S
H571 C567 0.930 . S
H572 C569 0.929 . S
S573 N574 1.613 . S
S573 N575 1.610 . S
N574 S573 1.613 . S
N574 C577 1.350 . S
N575 S573 1.610 . S
N575 C576 1.351 . S
C576 C570 1.428 . S
C576 N575 1.351 . S
C576 C577 1.434 . S
C577 C568 1.429 . S
C577 N574 1.350 . S
C577 C576 1.434 . S
C578 C579 1.369 . S
C578 C580 1.419 1_556 S
C578 H582 0.930 . S
C579 C578 1.369 . S
C579 C588 1.429 1_556 S
C580 C578 1.419 1_554 S
C580 C581 1.363 . S
C580 H583 0.929 . S
C581 C580 1.363 . S
C581 C587 1.428 . S
H582 C578 0.930 . S
H583 C580 0.929 . S
S584 N585 1.613 . S
S584 N586 1.610 . S
N585 S584 1.613 . S
N585 C588 1.350 . S
N586 S584 1.610 . S
N586 C587 1.351 . S
C587 C581 1.428 . S
C587 N586 1.351 . S
C587 C588 1.434 . S
C588 C579 1.429 1_554 S
C588 N585 1.350 . S
C588 C587 1.434 . S
C589 C590 1.369 . S
C589 C591 1.419 . S
C589 H593 0.930 . S
C590 C589 1.369 . S
C590 C599 1.429 . S
C591 C589 1.419 . S
C591 C592 1.363 . S
C591 H594 0.929 . S
C592 C591 1.363 . S
C592 C598 1.428 . S
H593 C589 0.930 . S
H594 C591 0.929 . S
S595 N596 1.613 . S
S595 N597 1.610 . S
N596 S595 1.613 . S
N596 C599 1.350 . S
N597 S595 1.610 . S
N597 C598 1.351 . S
C598 C592 1.428 . S
C598 N597 1.351 . S
C598 C599 1.434 . S
C599 C590 1.429 . S
C599 N596 1.350 . S
C599 C598 1.434 . S
C600 C601 1.369 . S
C600 C602 1.419 . S
C600 H604 0.930 . S
C601 C600 1.369 . S
C601 C610 1.429 . S
C602 C600 1.419 . S
C602 C603 1.363 . S
C602 H605 0.929 . S
C603 C602 1.363 . S
C603 C609 1.428 . S
H604 C600 0.930 . S
H605 C602 0.929 . S
S606 N607 1.613 . S
S606 N608 1.610 . S
N607 S606 1.613 . S
N607 C610 1.350 . S
N608 S606 1.610 . S
N608 C609 1.351 . S
C609 C603 1.428 . S
C609 N608 1.351 . S
C609 C610 1.434 . S
C610 C601 1.429 . S
C610 N607 1.350 . S
C610 C609 1.434 . S
C611 C612 1.369 . S
C611 C613 1.419 . S
C611 H615 0.930 . S
C612 C611 1.369 . S
C612 C621 1.429 . S
C613 C611 1.419 . S
C613 C614 1.363 . S
C613 H616 0.929 . S
C614 C613 1.363 . S
C614 C620 1.428 . S
H615 C611 0.930 . S
H616 C613 0.929 . S
S617 N618 1.613 . S
S617 N619 1.610 . S
N618 S617 1.613 . S
N618 C621 1.350 . S
N619 S617 1.610 . S
N619 C620 1.351 . S
C620 C614 1.428 . S
C620 N619 1.351 . S
C620 C621 1.434 . S
C621 C612 1.429 . S
C621 N618 1.350 . S
C621 C620 1.434 . S
C622 C623 1.369 . S
C622 C624 1.419 . S
C622 H626 0.930 . S
C623 C622 1.369 . S
C623 C632 1.429 . S
C624 C622 1.419 . S
C624 C625 1.363 . S
C624 H627 0.929 . S
C625 C624 1.363 . S
C625 C631 1.428 . S
H626 C622 0.930 . S
H627 C624 0.929 . S
S628 N629 1.613 . S
S628 N630 1.610 . S
N629 S628 1.613 . S
N629 C632 1.350 . S
N630 S628 1.610 . S
N630 C631 1.351 . S
C631 C625 1.428 . S
C631 N630 1.351 . S
C631 C632 1.434 . S
C632 C623 1.429 . S
C632 N629 1.350 . S
C632 C631 1.434 . S
C633 C634 1.369 . S
C633 C635 1.419 . S
C633 H637 0.930 . S
C634 C633 1.369 . S
C634 C643 1.429 . S
C635 C633 1.419 . S
C635 C636 1.363 . S
C635 H638 0.929 . S
C636 C635 1.363 . S
C636 C642 1.428 . S
H637 C633 0.930 . S
H638 C635 0.929 . S
S639 N640 1.613 . S
S639 N641 1.610 . S
N640 S639 1.613 . S
N640 C643 1.350 . S
N641 S639 1.610 . S
N641 C642 1.351 . S
C642 C636 1.428 . S
C642 N641 1.351 . S
C642 C643 1.434 . S
C643 C634 1.429 . S
C643 N640 1.350 . S
C643 C642 1.434 . S
C644 C645 1.369 . S
C644 C646 1.419 . S
C644 H648 0.930 . S
C645 C644 1.369 . S
C645 C654 1.429 . S
C646 C644 1.419 . S
C646 C647 1.363 . S
C646 H649 0.929 . S
C647 C646 1.363 . S
C647 C653 1.428 . S
H648 C644 0.930 . S
H649 C646 0.929 . S
S650 N651 1.613 . S
S650 N652 1.610 . S
N651 S650 1.613 . S
N651 C654 1.350 . S
N652 S650 1.610 . S
N652 C653 1.351 . S
C653 C647 1.428 . S
C653 N652 1.351 . S
C653 C654 1.434 . S
C654 C645 1.429 . S
C654 N651 1.350 . S
C654 C653 1.434 . S
C655 C656 1.369 . S
C655 C657 1.419 . S
C655 H659 0.930 . S
C656 C655 1.369 . S
C656 C665 1.429 . S
C657 C655 1.419 . S
C657 C658 1.363 . S
C657 H660 0.929 . S
C658 C657 1.363 . S
C658 C664 1.428 . S
H659 C655 0.930 . S
H660 C657 0.929 . S
S661 N662 1.613 . S
S661 N663 1.610 . S
N662 S661 1.613 . S
N662 C665 1.350 . S
N663 S661 1.610 . S
N663 C664 1.351 . S
C664 C658 1.428 . S
C664 N663 1.351 . S
C664 C665 1.434 . S
C665 C656 1.429 . S
C665 N662 1.350 . S
C665 C664 1.434 . S
C666 C667 1.369 . S
C666 C668 1.419 . S
C666 H670 0.930 . S
C667 C666 1.369 . S
C667 C676 1.429 . S
C668 C666 1.419 . S
C668 C669 1.363 . S
C668 H671 0.929 . S
C669 C668 1.363 . S
C669 C675 1.428 . S
H670 C666 0.930 . S
H671 C668 0.929 . S
S672 N673 1.613 . S
S672 N674 1.610 . S
N673 S672 1.613 . S
N673 C676 1.350 . S
N674 S672 1.610 . S
N674 C675 1.351 . S
C675 C669 1.428 . S
C675 N674 1.351 . S
C675 C676 1.434 . S
C676 C667 1.429 . S
C676 N673 1.350 . S
C676 C675 1.434 . S
C677 C678 1.369 . S
C677 C679 1.419 . S
C677 H681 0.930 . S
C678 C677 1.369 . S
C678 C687 1.429 . S
C679 C677 1.419 . S
C679 C680 1.363 . S
C679 H682 0.929 . S
C680 C679 1.363 . S
C680 C686 1.428 . S
H681 C677 0.930 . S
H682 C679 0.929 . S
S683 N684 1.613 . S
S683 N685 1.610 . S
N684 S683 1.613 . S
N684 C687 1.350 . S
N685 S683 1.610 . S
N685 C686 1.351 . S
C686 C680 1.428 . S
C686 N685 1.351 . S
C686 C687 1.434 . S
C687 C678 1.429 . S
C687 N684 1.350 . S
C687 C686 1.434 . S
C425 C73 1.608 . S
C427 C162 1.651 . S
C438 C246 1.741 . S
C436 C84 1.732 . S
C449 C239 1.642 . S
C447 C51 1.603 . S
C458 C62 1.735 . S
C460 C155 1.749 . S
C471 C319 1.645 . S
C469 C29 1.576 . S
C482 C403 1.633 . S
C480 C38 1.527 . S
C491 C7 1.560 . S
C493 C396 1.646 . S
C502 C16 1.544 . S
C504 C312 1.606 . S
C515 C146 1.497 . S
C513 C18 1.674 . S
C526 C230 1.494 . S
C524 C5 1.393 . S
C537 C241 1.425 . S
C535 C40 1.671 . S
C548 C157 1.437 . S
C546 C27 1.408 . S
C559 C325 1.318 . S
C557 C60 1.362 . S
C568 C49 1.368 . S
C570 C409 1.358 . S
C581 C398 1.315 . S
C579 C82 1.361 . S
C590 C71 1.376 . S
C592 C314 1.330 . S
C603 C144 1.626 . S
C601 C8 1.600 . S
C614 C228 1.562 . S
C612 C19 1.556 . S
C623 C30 1.604 . S
C625 C235 1.604 . S
C636 C151 1.552 . S
C634 C41 1.547 . S
C647 C323 1.438 . S
C645 C52 1.438 . S
C656 C63 1.540 . S
C658 C407 1.539 . S
C667 C74 1.428 . S
C669 C414 1.392 . S
C678 C85 1.531 . S
C680 C330 1.495 . S
