# Generated by pormake.
# Topology gar, (4,6)-cn, num edge types: 1
# Building blocks:
#     Node 0, Type 0, BuildingBlock: QUQFOY_clean_sbu_1, # of connection points: 4
#     Node 1, Type 0, BuildingBlock: QUQFOY_clean_sbu_1, # of connection points: 4
#     Node 2, Type 0, BuildingBlock: QUQFOY_clean_sbu_1, # of connection points: 4
#     Node 3, Type 0, BuildingBlock: QUQFOY_clean_sbu_1, # of connection points: 4
#     Node 4, Type 0, BuildingBlock: QUQFOY_clean_sbu_1, # of connection points: 4
#     Node 5, Type 0, BuildingBlock: QUQFOY_clean_sbu_1, # of connection points: 4
#     Node 6, Type 0, BuildingBlock: QUQFOY_clean_sbu_1, # of connection points: 4
#     Node 7, Type 0, BuildingBlock: QUQFOY_clean_sbu_1, # of connection points: 4
#     Node 8, Type 0, BuildingBlock: QUQFOY_clean_sbu_1, # of connection points: 4
#     Node 9, Type 0, BuildingBlock: QUQFOY_clean_sbu_1, # of connection points: 4
#     Node 10, Type 0, BuildingBlock: QUQFOY_clean_sbu_1, # of connection points: 4
#     Node 11, Type 0, BuildingBlock: QUQFOY_clean_sbu_1, # of connection points: 4
#     Node 12, Type 0, BuildingBlock: QUQFOY_clean_sbu_1, # of connection points: 4
#     Node 13, Type 0, BuildingBlock: QUQFOY_clean_sbu_1, # of connection points: 4
#     Node 14, Type 0, BuildingBlock: QUQFOY_clean_sbu_1, # of connection points: 4
#     Node 15, Type 0, BuildingBlock: QUQFOY_clean_sbu_1, # of connection points: 4
#     Node 16, Type 0, BuildingBlock: QUQFOY_clean_sbu_1, # of connection points: 4
#     Node 17, Type 0, BuildingBlock: QUQFOY_clean_sbu_1, # of connection points: 4
#     Node 18, Type 0, BuildingBlock: QUQFOY_clean_sbu_1, # of connection points: 4
#     Node 19, Type 0, BuildingBlock: QUQFOY_clean_sbu_1, # of connection points: 4
#     Node 20, Type 0, BuildingBlock: QUQFOY_clean_sbu_1, # of connection points: 4
#     Node 21, Type 0, BuildingBlock: QUQFOY_clean_sbu_1, # of connection points: 4
#     Node 22, Type 0, BuildingBlock: QUQFOY_clean_sbu_1, # of connection points: 4
#     Node 23, Type 0, BuildingBlock: QUQFOY_clean_sbu_1, # of connection points: 4
#     Node 24, Type 1, BuildingBlock: MIFKUJ_clean_sbu_0, # of connection points: 6
#     Node 25, Type 1, BuildingBlock: MIFKUJ_clean_sbu_0, # of connection points: 6
#     Node 26, Type 1, BuildingBlock: MIFKUJ_clean_sbu_0, # of connection points: 6
#     Node 27, Type 1, BuildingBlock: MIFKUJ_clean_sbu_0, # of connection points: 6
#     Node 28, Type 1, BuildingBlock: MIFKUJ_clean_sbu_0, # of connection points: 6
#     Node 29, Type 1, BuildingBlock: MIFKUJ_clean_sbu_0, # of connection points: 6
#     Node 30, Type 1, BuildingBlock: MIFKUJ_clean_sbu_0, # of connection points: 6
#     Node 31, Type 1, BuildingBlock: MIFKUJ_clean_sbu_0, # of connection points: 6
#     Node 32, Type 1, BuildingBlock: MIFKUJ_clean_sbu_0, # of connection points: 6
#     Node 33, Type 1, BuildingBlock: MIFKUJ_clean_sbu_0, # of connection points: 6
#     Node 34, Type 1, BuildingBlock: MIFKUJ_clean_sbu_0, # of connection points: 6
#     Node 35, Type 1, BuildingBlock: MIFKUJ_clean_sbu_0, # of connection points: 6
#     Node 36, Type 1, BuildingBlock: MIFKUJ_clean_sbu_0, # of connection points: 6
#     Node 37, Type 1, BuildingBlock: MIFKUJ_clean_sbu_0, # of connection points: 6
#     Node 38, Type 1, BuildingBlock: MIFKUJ_clean_sbu_0, # of connection points: 6
#     Node 39, Type 1, BuildingBlock: MIFKUJ_clean_sbu_0, # of connection points: 6
#     Edge 40, Type (0, 1), BuildingBlock: XUDNAN_clean_linker_2, # of connection points: 2
#     Edge 41, Type (0, 1), BuildingBlock: XUDNAN_clean_linker_2, # of connection points: 2
#     Edge 42, Type (0, 1), BuildingBlock: XUDNAN_clean_linker_2, # of connection points: 2
#     Edge 43, Type (0, 1), BuildingBlock: XUDNAN_clean_linker_2, # of connection points: 2
#     Edge 44, Type (0, 1), BuildingBlock: XUDNAN_clean_linker_2, # of connection points: 2
#     Edge 45, Type (0, 1), BuildingBlock: XUDNAN_clean_linker_2, # of connection points: 2
#     Edge 46, Type (0, 1), BuildingBlock: XUDNAN_clean_linker_2, # of connection points: 2
#     Edge 47, Type (0, 1), BuildingBlock: XUDNAN_clean_linker_2, # of connection points: 2
#     Edge 48, Type (0, 1), BuildingBlock: XUDNAN_clean_linker_2, # of connection points: 2
#     Edge 49, Type (0, 1), BuildingBlock: XUDNAN_clean_linker_2, # of connection points: 2
#     Edge 50, Type (0, 1), BuildingBlock: XUDNAN_clean_linker_2, # of connection points: 2
#     Edge 51, Type (0, 1), BuildingBlock: XUDNAN_clean_linker_2, # of connection points: 2
#     Edge 52, Type (0, 1), BuildingBlock: XUDNAN_clean_linker_2, # of connection points: 2
#     Edge 53, Type (0, 1), BuildingBlock: XUDNAN_clean_linker_2, # of connection points: 2
#     Edge 54, Type (0, 1), BuildingBlock: XUDNAN_clean_linker_2, # of connection points: 2
#     Edge 55, Type (0, 1), BuildingBlock: XUDNAN_clean_linker_2, # of connection points: 2
#     Edge 56, Type (0, 1), BuildingBlock: XUDNAN_clean_linker_2, # of connection points: 2
#     Edge 57, Type (0, 1), BuildingBlock: XUDNAN_clean_linker_2, # of connection points: 2
#     Edge 58, Type (0, 1), BuildingBlock: XUDNAN_clean_linker_2, # of connection points: 2
#     Edge 59, Type (0, 1), BuildingBlock: XUDNAN_clean_linker_2, # of connection points: 2
#     Edge 60, Type (0, 1), BuildingBlock: XUDNAN_clean_linker_2, # of connection points: 2
#     Edge 61, Type (0, 1), BuildingBlock: XUDNAN_clean_linker_2, # of connection points: 2
#     Edge 62, Type (0, 1), BuildingBlock: XUDNAN_clean_linker_2, # of connection points: 2
#     Edge 63, Type (0, 1), BuildingBlock: XUDNAN_clean_linker_2, # of connection points: 2
#     Edge 64, Type (0, 1), BuildingBlock: XUDNAN_clean_linker_2, # of connection points: 2
#     Edge 65, Type (0, 1), BuildingBlock: XUDNAN_clean_linker_2, # of connection points: 2
#     Edge 66, Type (0, 1), BuildingBlock: XUDNAN_clean_linker_2, # of connection points: 2
#     Edge 67, Type (0, 1), BuildingBlock: XUDNAN_clean_linker_2, # of connection points: 2
#     Edge 68, Type (0, 1), BuildingBlock: XUDNAN_clean_linker_2, # of connection points: 2
#     Edge 69, Type (0, 1), BuildingBlock: XUDNAN_clean_linker_2, # of connection points: 2
#     Edge 70, Type (0, 1), BuildingBlock: XUDNAN_clean_linker_2, # of connection points: 2
#     Edge 71, Type (0, 1), BuildingBlock: XUDNAN_clean_linker_2, # of connection points: 2
#     Edge 72, Type (0, 1), BuildingBlock: XUDNAN_clean_linker_2, # of connection points: 2
#     Edge 73, Type (0, 1), BuildingBlock: XUDNAN_clean_linker_2, # of connection points: 2
#     Edge 74, Type (0, 1), BuildingBlock: XUDNAN_clean_linker_2, # of connection points: 2
#     Edge 75, Type (0, 1), BuildingBlock: XUDNAN_clean_linker_2, # of connection points: 2
#     Edge 76, Type (0, 1), BuildingBlock: XUDNAN_clean_linker_2, # of connection points: 2
#     Edge 77, Type (0, 1), BuildingBlock: XUDNAN_clean_linker_2, # of connection points: 2
#     Edge 78, Type (0, 1), BuildingBlock: XUDNAN_clean_linker_2, # of connection points: 2
#     Edge 79, Type (0, 1), BuildingBlock: XUDNAN_clean_linker_2, # of connection points: 2
#     Edge 80, Type (0, 1), BuildingBlock: XUDNAN_clean_linker_2, # of connection points: 2
#     Edge 81, Type (0, 1), BuildingBlock: XUDNAN_clean_linker_2, # of connection points: 2
#     Edge 82, Type (0, 1), BuildingBlock: XUDNAN_clean_linker_2, # of connection points: 2
#     Edge 83, Type (0, 1), BuildingBlock: XUDNAN_clean_linker_2, # of connection points: 2
#     Edge 84, Type (0, 1), BuildingBlock: XUDNAN_clean_linker_2, # of connection points: 2
#     Edge 85, Type (0, 1), BuildingBlock: XUDNAN_clean_linker_2, # of connection points: 2
#     Edge 86, Type (0, 1), BuildingBlock: XUDNAN_clean_linker_2, # of connection points: 2
#     Edge 87, Type (0, 1), BuildingBlock: XUDNAN_clean_linker_2, # of connection points: 2
#     Edge 88, Type (0, 1), BuildingBlock: XUDNAN_clean_linker_2, # of connection points: 2
#     Edge 89, Type (0, 1), BuildingBlock: XUDNAN_clean_linker_2, # of connection points: 2
#     Edge 90, Type (0, 1), BuildingBlock: XUDNAN_clean_linker_2, # of connection points: 2
#     Edge 91, Type (0, 1), BuildingBlock: XUDNAN_clean_linker_2, # of connection points: 2
#     Edge 92, Type (0, 1), BuildingBlock: XUDNAN_clean_linker_2, # of connection points: 2
#     Edge 93, Type (0, 1), BuildingBlock: XUDNAN_clean_linker_2, # of connection points: 2
#     Edge 94, Type (0, 1), BuildingBlock: XUDNAN_clean_linker_2, # of connection points: 2
#     Edge 95, Type (0, 1), BuildingBlock: XUDNAN_clean_linker_2, # of connection points: 2
#     Edge 96, Type (0, 1), BuildingBlock: XUDNAN_clean_linker_2, # of connection points: 2
#     Edge 97, Type (0, 1), BuildingBlock: XUDNAN_clean_linker_2, # of connection points: 2
#     Edge 98, Type (0, 1), BuildingBlock: XUDNAN_clean_linker_2, # of connection points: 2
#     Edge 99, Type (0, 1), BuildingBlock: XUDNAN_clean_linker_2, # of connection points: 2
#     Edge 100, Type (0, 1), BuildingBlock: XUDNAN_clean_linker_2, # of connection points: 2
#     Edge 101, Type (0, 1), BuildingBlock: XUDNAN_clean_linker_2, # of connection points: 2
#     Edge 102, Type (0, 1), BuildingBlock: XUDNAN_clean_linker_2, # of connection points: 2
#     Edge 103, Type (0, 1), BuildingBlock: XUDNAN_clean_linker_2, # of connection points: 2
#     Edge 104, Type (0, 1), BuildingBlock: XUDNAN_clean_linker_2, # of connection points: 2
#     Edge 105, Type (0, 1), BuildingBlock: XUDNAN_clean_linker_2, # of connection points: 2
#     Edge 106, Type (0, 1), BuildingBlock: XUDNAN_clean_linker_2, # of connection points: 2
#     Edge 107, Type (0, 1), BuildingBlock: XUDNAN_clean_linker_2, # of connection points: 2
#     Edge 108, Type (0, 1), BuildingBlock: XUDNAN_clean_linker_2, # of connection points: 2
#     Edge 109, Type (0, 1), BuildingBlock: XUDNAN_clean_linker_2, # of connection points: 2
#     Edge 110, Type (0, 1), BuildingBlock: XUDNAN_clean_linker_2, # of connection points: 2
#     Edge 111, Type (0, 1), BuildingBlock: XUDNAN_clean_linker_2, # of connection points: 2
#     Edge 112, Type (0, 1), BuildingBlock: XUDNAN_clean_linker_2, # of connection points: 2
#     Edge 113, Type (0, 1), BuildingBlock: XUDNAN_clean_linker_2, # of connection points: 2
#     Edge 114, Type (0, 1), BuildingBlock: XUDNAN_clean_linker_2, # of connection points: 2
#     Edge 115, Type (0, 1), BuildingBlock: XUDNAN_clean_linker_2, # of connection points: 2
#     Edge 116, Type (0, 1), BuildingBlock: XUDNAN_clean_linker_2, # of connection points: 2
#     Edge 117, Type (0, 1), BuildingBlock: XUDNAN_clean_linker_2, # of connection points: 2
#     Edge 118, Type (0, 1), BuildingBlock: XUDNAN_clean_linker_2, # of connection points: 2
#     Edge 119, Type (0, 1), BuildingBlock: XUDNAN_clean_linker_2, # of connection points: 2
#     Edge 120, Type (0, 1), BuildingBlock: XUDNAN_clean_linker_2, # of connection points: 2
#     Edge 121, Type (0, 1), BuildingBlock: XUDNAN_clean_linker_2, # of connection points: 2
#     Edge 122, Type (0, 1), BuildingBlock: XUDNAN_clean_linker_2, # of connection points: 2
#     Edge 123, Type (0, 1), BuildingBlock: XUDNAN_clean_linker_2, # of connection points: 2
#     Edge 124, Type (0, 1), BuildingBlock: XUDNAN_clean_linker_2, # of connection points: 2
#     Edge 125, Type (0, 1), BuildingBlock: XUDNAN_clean_linker_2, # of connection points: 2
#     Edge 126, Type (0, 1), BuildingBlock: XUDNAN_clean_linker_2, # of connection points: 2
#     Edge 127, Type (0, 1), BuildingBlock: XUDNAN_clean_linker_2, # of connection points: 2
#     Edge 128, Type (0, 1), BuildingBlock: XUDNAN_clean_linker_2, # of connection points: 2
#     Edge 129, Type (0, 1), BuildingBlock: XUDNAN_clean_linker_2, # of connection points: 2
#     Edge 130, Type (0, 1), BuildingBlock: XUDNAN_clean_linker_2, # of connection points: 2
#     Edge 131, Type (0, 1), BuildingBlock: XUDNAN_clean_linker_2, # of connection points: 2
#     Edge 132, Type (0, 1), BuildingBlock: XUDNAN_clean_linker_2, # of connection points: 2
#     Edge 133, Type (0, 1), BuildingBlock: XUDNAN_clean_linker_2, # of connection points: 2
#     Edge 134, Type (0, 1), BuildingBlock: XUDNAN_clean_linker_2, # of connection points: 2
#     Edge 135, Type (0, 1), BuildingBlock: XUDNAN_clean_linker_2, # of connection points: 2
# Relax obj value: 0.116
# Max RMSD: 0.292
# Mean RMSD: 0.169
data_MOF--net-gar--node1-QUQFOY_clean_sbu_1--node2-MIFKUJ_clean_sbu_0--edge1-XUDNAN_clean_linker_2
_symmetry_space_group_name_H-M    P1
_symmetry_Int_Tables_number       1
_symmetry_cell_setting            triclinic
loop_
_symmetry_equiv_pos_as_xyz
'x, y, z'
_cell_length_a     57.739609
_cell_length_b     57.602168
_cell_length_c     55.493639
_cell_angle_alpha  95.214586
_cell_angle_beta   95.20392
_cell_angle_gamma 101.99375
loop_
_atom_site_label
_atom_site_type_symbol
_atom_site_fract_x
_atom_site_fract_y
_atom_site_fract_z
_atom_type_partial_charge
O0 O 0.02174 0.22887 0.39526 0.0
Cd1 Cd 0.02717 0.25763 0.37563 0.0
Cd2 Cd 0.00576 0.27663 0.41596 0.0
O3 O 0.01084 0.24504 0.42891 0.0
O4 O 0.04134 0.24522 0.34721 0.0
O5 O 0.06061 0.2759 0.37341 0.0
C6 C 0.06013 0.26162 0.35399 0.0
C7 C 0.01277 0.31162 0.44299 0.0
C8 C 0.01603 0.22739 0.41672 0.0
C9 C 0.9799 0.27066 0.36514 0.0
O10 O 0.979 0.27483 0.38789 0.0
O11 O 0.99804 0.26503 0.35708 0.0
O12 O 0.99518 0.29405 0.4442 0.0
O13 O 0.02705 0.30918 0.42678 0.0
O14 O 0.98324 0.70879 0.62985 0.0
Cd15 Cd 0.99017 0.73993 0.65383 0.0
Cd16 Cd 0.01181 0.75629 0.6161 0.0
O17 O 0.99347 0.72486 0.59672 0.0
O18 O 0.96886 0.73207 0.67961 0.0
O19 O 0.96708 0.76154 0.65692 0.0
C20 C 0.95933 0.7495 0.67415 0.0
C21 C 0.00784 0.79344 0.60584 0.0
C22 C 0.98476 0.70676 0.60706 0.0
C23 C 0.04285 0.7545 0.66125 0.0
O24 O 0.04198 0.75501 0.63836 0.0
O25 O 0.02397 0.75103 0.67168 0.0
O26 O 0.02035 0.78128 0.59384 0.0
O27 O 0.99689 0.78394 0.62306 0.0
O28 O 0.55947 0.76099 0.8902 0.0
Cd29 Cd 0.53227 0.76146 0.91223 0.0
Cd30 Cd 0.52127 0.78799 0.87435 0.0
O31 O 0.55006 0.78004 0.8593 0.0
O32 O 0.54219 0.74179 0.93719 0.0
O33 O 0.50925 0.7296 0.9117 0.0
C34 C 0.524 0.72516 0.92867 0.0
C35 C 0.48436 0.77782 0.85229 0.0
C36 C 0.56354 0.76831 0.86973 0.0
C37 C 0.52695 0.81228 0.92495 0.0
O38 O 0.52588 0.81457 0.90239 0.0
O39 O 0.52827 0.79231 0.93246 0.0
O40 O 0.49959 0.79664 0.84871 0.0
O41 O 0.49024 0.76436 0.86816 0.0
O42 O 0.48774 0.20461 0.13823 0.0
Cd43 Cd 0.4943 0.23652 0.16016 0.0
Cd44 Cd 0.51822 0.25011 0.12203 0.0
O45 O 0.50368 0.21583 0.10539 0.0
O46 O 0.47045 0.22977 0.18385 0.0
O47 O 0.47221 0.25947 0.16091 0.0
C48 C 0.4621 0.24752 0.17715 0.0
C49 C 0.51861 0.28382 0.10157 0.0
C50 C 0.4929 0.19953 0.11689 0.0
C51 C 0.54668 0.24994 0.17077 0.0
O52 O 0.54656 0.25265 0.14826 0.0
O53 O 0.52726 0.24458 0.18014 0.0
O54 O 0.53136 0.2687 0.09581 0.0
O55 O 0.50488 0.27942 0.11851 0.0
O56 O 0.0093 0.73338 0.1291 0.0
Cd57 Cd 0.01157 0.76003 0.15689 0.0
Cd58 Cd 0.04062 0.78599 0.1308 0.0
O59 O 0.03875 0.75319 0.11148 0.0
O60 O 0.98516 0.74712 0.17592 0.0
O61 O 0.98881 0.78174 0.16058 0.0
C62 C 0.97741 0.76622 0.17312 0.0
C63 C 0.03732 0.81901 0.11037 0.0
C64 C 0.0241 0.7339 0.1135 0.0
C65 C 0.06168 0.77996 0.17981 0.0
O66 O 0.06437 0.79211 0.1619 0.0
O67 O 0.04197 0.76562 0.18095 0.0
O68 O 0.0559 0.80992 0.11039 0.0
O69 O 0.01991 0.80889 0.12153 0.0
O70 O 0.54706 0.75001 0.38342 0.0
Cd71 Cd 0.52342 0.75015 0.40942 0.0
Cd72 Cd 0.4942 0.76 0.36739 0.0
O73 O 0.52383 0.75534 0.35131 0.0
O74 O 0.53402 0.732 0.43581 0.0
O75 O 0.49938 0.72043 0.4127 0.0
C76 C 0.51411 0.71663 0.43014 0.0
C77 C 0.45908 0.75695 0.34114 0.0
C78 C 0.54366 0.75232 0.36087 0.0
C79 C 0.50786 0.79625 0.41333 0.0
O80 O 0.49835 0.78976 0.39163 0.0
O81 O 0.51857 0.78274 0.42487 0.0
O82 O 0.47809 0.77277 0.34011 0.0
O83 O 0.4601 0.74149 0.35639 0.0
O84 O 0.52491 0.23138 0.63509 0.0
Cd85 Cd 0.52242 0.26147 0.65648 0.0
Cd86 Cd 0.55129 0.28048 0.62496 0.0
O87 O 0.54653 0.24623 0.60704 0.0
O88 O 0.49882 0.24599 0.67743 0.0
O89 O 0.49261 0.27501 0.65599 0.0
C90 C 0.48516 0.25967 0.67061 0.0
C91 C 0.53902 0.31173 0.60698 0.0
C92 C 0.5354 0.22837 0.6163 0.0
C93 C 0.573 0.28233 0.67657 0.0
O94 O 0.57691 0.28717 0.65518 0.0
O95 O 0.55198 0.27374 0.68119 0.0
O96 O 0.55886 0.30588 0.60289 0.0
O97 O 0.52586 0.29951 0.62111 0.0
O98 O 0.00861 0.21102 0.89711 0.0
Cd99 Cd 0.00753 0.23462 0.87151 0.0
Cd100 Cd 0.98874 0.25778 0.90727 0.0
O101 O 0.99388 0.23004 0.92627 0.0
O102 O 0.02923 0.22627 0.84811 0.0
O103 O 0.03629 0.2611 0.87093 0.0
C104 C 0.04298 0.24695 0.85486 0.0
C105 C 0.00078 0.29532 0.92867 0.0
C106 C 0.0026 0.21267 0.91855 0.0
C107 C 0.95916 0.24331 0.85834 0.0
O108 O 0.96105 0.25325 0.88002 0.0
O109 O 0.97587 0.2343 0.85091 0.0
O110 O 0.98095 0.28139 0.93162 0.0
O111 O 0.01395 0.28796 0.91332 0.0
O112 O 0.40214 0.02564 0.23654 0.0
Cd113 Cd 0.37614 0.0276 0.25846 0.0
Cd114 Cd 0.41097 0.02098 0.29263 0.0
O115 O 0.43116 0.02273 0.26386 0.0
O116 O 0.35407 0.04009 0.23646 0.0
O117 O 0.37092 0.05931 0.27224 0.0
C118 C 0.35756 0.05871 0.25212 0.0
C119 C 0.43325 0.03354 0.33035 0.0
C120 C 0.42345 0.02394 0.242 0.0
C121 C 0.36466 0.98302 0.28113 0.0
O122 O 0.38507 0.99023 0.29321 0.0
O123 O 0.35692 0.99569 0.26609 0.0
O124 O 0.43419 0.01412 0.31756 0.0
O125 O 0.41978 0.04674 0.32161 0.0
O126 O 0.27326 0.13421 0.53506 0.0
Cd127 Cd 0.27302 0.11343 0.50292 0.0
Cd128 Cd 0.25885 0.15242 0.48586 0.0
O129 O 0.26892 0.16817 0.52166 0.0
O130 O 0.29194 0.08914 0.51187 0.0
O131 O 0.3041 0.11689 0.48802 0.0
C132 C 0.30827 0.09948 0.49963 0.0
C133 C 0.27 0.1693 0.45065 0.0
C134 C 0.27202 0.15597 0.53926 0.0
C135 C 0.22224 0.10576 0.48216 0.0
O136 O 0.22659 0.12813 0.48069 0.0
O137 O 0.23889 0.09539 0.48864 0.0
O138 O 0.25578 0.17779 0.46391 0.0
O139 O 0.27915 0.15225 0.45828 0.0
O140 O 0.11903 0.98967 0.74689 0.0
Cd141 Cd 0.14963 0.99646 0.77093 0.0
Cd142 Cd 0.12147 0.02474 0.79567 0.0
O143 O 0.09983 0.01584 0.7627 0.0
O144 O 0.16774 0.97401 0.75552 0.0
O145 O 0.15836 0.97295 0.79318 0.0
C146 C 0.16844 0.96447 0.77557 0.0
C147 C 0.10425 0.02498 0.83263 0.0
C148 C 0.10185 0.00035 0.7456 0.0
C149 C 0.17008 0.0495 0.78366 0.0
O150 O 0.15215 0.05058 0.7951 0.0
O151 O 0.17198 0.02984 0.77242 0.0
O152 O 0.10367 0.04138 0.81844 0.0
O153 O 0.11402 0.00766 0.82565 0.0
O154 O 0.24144 0.86984 0.04112 0.0
Cd155 Cd 0.24481 0.8965 0.01935 0.0
Cd156 Cd 0.25364 0.86336 0.98652 0.0
O157 O 0.25252 0.84363 0.01578 0.0
O158 O 0.22757 0.91926 0.03432 0.0
O159 O 0.21817 0.90149 0.99634 0.0
C160 C 0.21418 0.91598 0.01389 0.0
C161 C 0.2393 0.8412 0.94918 0.0
C162 C 0.24657 0.84968 0.03649 0.0
C163 C 0.2909 0.90919 0.00018 0.0
O164 O 0.28325 0.89048 0.98532 0.0
O165 O 0.27874 0.91463 0.01688 0.0
O166 O 0.2593 0.84009 0.96068 0.0
O167 O 0.2268 0.85489 0.9589 0.0
O168 O 0.25782 0.38398 0.0787 0.0
Cd169 Cd 0.26149 0.4061 0.05091 0.0
Cd170 Cd 0.27929 0.3662 0.0299 0.0
O171 O 0.26865 0.3524 0.06121 0.0
O172 O 0.24197 0.43066 0.05769 0.0
O173 O 0.23203 0.402 0.02688 0.0
C174 C 0.22706 0.42004 0.03933 0.0
C175 C 0.27172 0.34257 0.99234 0.0
C176 C 0.26096 0.36275 0.07907 0.0
C177 C 0.31237 0.415 0.03744 0.0
O178 O 0.30957 0.39262 0.03217 0.0
O179 O 0.29536 0.42413 0.04416 0.0
O180 O 0.28674 0.33891 0.00944 0.0
O181 O 0.25995 0.35894 0.99694 0.0
O182 O 0.79056 0.14704 0.06427 0.0
Cd183 Cd 0.78316 0.12381 0.03263 0.0
Cd184 Cd 0.76386 0.15774 0.01822 0.0
O185 O 0.78395 0.17853 0.04747 0.0
O186 O 0.80361 0.10098 0.03857 0.0
O187 O 0.80686 0.12379 0.00837 0.0
C188 C 0.81409 0.1078 0.02009 0.0
C189 C 0.76764 0.16814 0.97965 0.0
C190 C 0.79156 0.16934 0.06563 0.0
C191 C 0.73095 0.11232 0.02255 0.0
O192 O 0.73267 0.13469 0.02304 0.0
O193 O 0.74937 0.10358 0.02361 0.0
O194 O 0.75616 0.17908 0.99419 0.0
O195 O 0.77752 0.15163 0.98742 0.0
O196 O 0.13099 0.48047 0.22361 0.0
Cd197 Cd 0.15681 0.49115 0.25275 0.0
Cd198 Cd 0.12218 0.50405 0.27518 0.0
O199 O 0.10219 0.491 0.24253 0.0
O200 O 0.18031 0.4712 0.24769 0.0
O201 O 0.15909 0.46984 0.27918 0.0
C202 C 0.17445 0.46181 0.26713 0.0
C203 C 0.10527 0.49797 0.31094 0.0
C204 C 0.1095 0.48237 0.22355 0.0
C205 C 0.16446 0.54261 0.26893 0.0
O206 O 0.14448 0.53685 0.27705 0.0
O207 O 0.17354 0.52691 0.25802 0.0
O208 O 0.09749 0.51079 0.29561 0.0
O209 O 0.12215 0.48753 0.30551 0.0
O210 O 0.76623 0.88574 0.58036 0.0
Cd211 Cd 0.76838 0.90606 0.55123 0.0
Cd212 Cd 0.7765 0.86353 0.53149 0.0
O213 O 0.76595 0.84976 0.56284 0.0
O214 O 0.75336 0.93251 0.5632 0.0
O215 O 0.73736 0.90709 0.53088 0.0
C216 C 0.73581 0.92465 0.54641 0.0
C217 C 0.7605 0.84626 0.49242 0.0
C218 C 0.76428 0.86346 0.58158 0.0
C219 C 0.81693 0.90783 0.53673 0.0
O220 O 0.80989 0.88522 0.53325 0.0
O221 O 0.80254 0.92083 0.54267 0.0
O222 O 0.77571 0.8373 0.50499 0.0
O223 O 0.75343 0.86422 0.50271 0.0
O224 O 0.8896 0.0087 0.19809 0.0
Cd225 Cd 0.86357 0.00525 0.22223 0.0
Cd226 Cd 0.90109 0.99894 0.25568 0.0
O227 O 0.91818 0.00369 0.22506 0.0
O228 O 0.84132 0.02698 0.21502 0.0
O229 O 0.86546 0.03165 0.24934 0.0
C230 C 0.8494 0.03888 0.23602 0.0
C231 C 0.92538 0.00942 0.29273 0.0
C232 C 0.91107 0.00713 0.20362 0.0
C233 C 0.85523 0.95956 0.24472 0.0
O234 O 0.87559 0.96843 0.25634 0.0
O235 O 0.84631 0.97083 0.22882 0.0
O236 O 0.92758 0.99205 0.27755 0.0
O237 O 0.90969 0.02152 0.28686 0.0
O238 O 0.29072 0.64939 0.5603 0.0
Cd239 Cd 0.28333 0.6195 0.5355 0.0
Cd240 Cd 0.2698 0.64756 0.50401 0.0
O241 O 0.27598 0.67117 0.53495 0.0
O242 O 0.30595 0.59939 0.54397 0.0
O243 O 0.30451 0.61601 0.50937 0.0
C244 C 0.31419 0.60312 0.52344 0.0
C245 C 0.27403 0.66812 0.47024 0.0
C246 C 0.28515 0.6689 0.55596 0.0
C247 C 0.2343 0.60332 0.51316 0.0
O248 O 0.24054 0.61983 0.49987 0.0
O249 O 0.24868 0.60009 0.53057 0.0
O250 O 0.25629 0.66796 0.48254 0.0
O251 O 0.28959 0.65604 0.47655 0.0
O252 O 0.39783 0.51349 0.71065 0.0
Cd253 Cd 0.37019 0.51185 0.73263 0.0
Cd254 Cd 0.4035 0.49213 0.76277 0.0
O255 O 0.42273 0.4981 0.73373 0.0
O256 O 0.34992 0.53076 0.71566 0.0
O257 O 0.36649 0.54157 0.75356 0.0
C258 C 0.35385 0.54601 0.73482 0.0
C259 C 0.42489 0.49417 0.80123 0.0
C260 C 0.41737 0.50675 0.71424 0.0
C261 C 0.35378 0.46163 0.74497 0.0
O262 O 0.37418 0.46449 0.7569 0.0
O263 O 0.34805 0.47848 0.73407 0.0
O264 O 0.42419 0.47708 0.78442 0.0
O265 O 0.41407 0.51088 0.79612 0.0
O266 O 0.62914 0.98936 0.71784 0.0
Cd267 Cd 0.65359 0.99719 0.74858 0.0
Cd268 Cd 0.6187 0.01165 0.76859 0.0
O269 O 0.5992 0.99891 0.73558 0.0
O270 O 0.67643 0.97691 0.74193 0.0
O271 O 0.65299 0.97205 0.77149 0.0
C272 C 0.6685 0.96483 0.75904 0.0
C273 C 0.60298 0.00527 0.80462 0.0
C274 C 0.6075 0.99098 0.7169 0.0
C275 C 0.66301 0.04862 0.76642 0.0
O276 O 0.64165 0.04416 0.77136 0.0
O277 O 0.67221 0.03205 0.75744 0.0
O278 O 0.59505 0.01865 0.79001 0.0
O279 O 0.61901 0.99409 0.79815 0.0
O280 O 0.77972 0.65931 0.0404 0.0
Cd281 Cd 0.77638 0.62808 0.01788 0.0
Cd282 Cd 0.7479 0.65149 0.98931 0.0
O283 O 0.75237 0.67468 0.02111 0.0
O284 O 0.79567 0.61195 0.03985 0.0
O285 O 0.80481 0.61852 0.00314 0.0
C286 C 0.80974 0.61038 0.02344 0.0
C287 C 0.75237 0.66684 0.95192 0.0
C288 C 0.76697 0.67481 0.03976 0.0
C289 C 0.72377 0.60476 0.00367 0.0
O290 O 0.7222 0.62053 0.98941 0.0
O291 O 0.74335 0.60521 0.01641 0.0
O292 O 0.73391 0.66754 0.96312 0.0
O293 O 0.76891 0.65776 0.96206 0.0
O294 O 0.89302 0.52682 0.74327 0.0
Cd295 Cd 0.87346 0.53503 0.77041 0.0
Cd296 Cd 0.90842 0.52239 0.79484 0.0
O297 O 0.92707 0.5292 0.76553 0.0
O298 O 0.85154 0.55061 0.75181 0.0
O299 O 0.87496 0.56871 0.785 0.0
C300 C 0.85939 0.56939 0.76702 0.0
C301 C 0.92709 0.53082 0.83419 0.0
C302 C 0.91503 0.52688 0.74487 0.0
C303 C 0.86024 0.48846 0.78602 0.0
O304 O 0.88263 0.49089 0.79059 0.0
O305 O 0.8516 0.50599 0.78041 0.0
O306 O 0.93206 0.51485 0.81899 0.0
O307 O 0.91241 0.54342 0.82666 0.0
O308 O 0.74481 0.36914 0.5482 0.0
Cd309 Cd 0.74277 0.39475 0.52563 0.0
Cd310 Cd 0.75883 0.36351 0.49566 0.0
O311 O 0.75417 0.34194 0.52275 0.0
O312 O 0.72685 0.41448 0.54662 0.0
O313 O 0.71118 0.39833 0.50942 0.0
C314 C 0.70946 0.41059 0.52957 0.0
C315 C 0.74547 0.34394 0.45736 0.0
C316 C 0.7491 0.34864 0.54355 0.0
C317 C 0.79097 0.41195 0.5109 0.0
O318 O 0.78852 0.39124 0.49955 0.0
O319 O 0.7742 0.41747 0.52188 0.0
O320 O 0.76439 0.34064 0.46944 0.0
O321 O 0.73422 0.35904 0.46684 0.0
O322 O 0.6197 0.49333 0.25044 0.0
Cd323 Cd 0.64999 0.49497 0.27391 0.0
Cd324 Cd 0.62473 0.52231 0.30361 0.0
O325 O 0.60214 0.51782 0.27149 0.0
O326 O 0.66674 0.47635 0.25195 0.0
O327 O 0.65811 0.46548 0.28763 0.0
C328 C 0.66719 0.46139 0.26769 0.0
C329 C 0.6092 0.52173 0.34139 0.0
C330 C 0.60334 0.50495 0.25194 0.0
C331 C 0.67272 0.54708 0.29125 0.0
O332 O 0.65541 0.548 0.3036 0.0
O333 O 0.67371 0.52778 0.27869 0.0
O334 O 0.60882 0.53887 0.32815 0.0
O335 O 0.61754 0.50393 0.33286 0.0
Zn336 Zn 0.04123 0.0071 0.03414 0.0
Zn337 Zn 0.99622 0.02613 0.01216 0.0
C338 C 0.00973 0.96 0.03483 0.0
O339 O 0.9952 0.96937 0.04754 0.0
C340 C 0.01003 0.06739 0.99063 0.0
O341 O 0.00011 0.05147 0.97213 0.0
O342 O 0.07481 0.00256 0.04028 0.0
O343 O 0.04384 0.02891 0.00764 0.0
O344 O 0.01139 0.0075 0.98695 0.0
C345 C 0.08127 0.99488 0.0203 0.0
O346 O 0.06613 0.99065 0.0005 0.0
O347 O 0.02351 0.97313 0.02244 0.0
C348 C 0.95524 0.04097 0.01429 0.0
O349 O 0.96924 0.05156 0.0339 0.0
O350 O 0.96262 0.0265 -0.00026 0.0
O351 O 0.9943 0.01962 0.04757 0.0
O352 O 0.02972 0.01798 0.06519 0.0
O353 O 0.01187 0.06077 0.01181 0.0
C354 C 0.03271 0.01907 0.98734 0.0
C355 C 0.00823 0.01941 0.06662 0.0
Zn356 Zn 0.25258 0.76227 0.28222 0.0
Zn357 Zn 0.26497 0.76588 0.23424 0.0
C358 C 0.23437 0.71014 0.25416 0.0
O359 O 0.24383 0.71294 0.23368 0.0
C360 C 0.29429 0.81375 0.24248 0.0
O361 O 0.3032 0.80667 0.22287 0.0
O362 O 0.24931 0.76343 0.31776 0.0
O363 O 0.2881 0.7691 0.28211 0.0
O364 O 0.28706 0.74631 0.24805 0.0
C365 C 0.25664 0.74595 0.32571 0.0
O366 O 0.26564 0.73186 0.31105 0.0
O367 O 0.23743 0.72752 0.2708 0.0
C368 C 0.25792 0.78248 0.19065 0.0
O369 O 0.24773 0.79524 0.20554 0.0
O370 O 0.26795 0.76675 0.19882 0.0
O371 O 0.22932 0.75718 0.23514 0.0
O372 O 0.23231 0.78286 0.26741 0.0
O373 O 0.27761 0.79967 0.25065 0.0
C374 C 0.2978 0.75586 0.26865 0.0
C375 C 0.22049 0.77182 0.24789 0.0
Zn376 Zn 0.4959 0.02053 0.52732 0.0
Zn377 Zn 0.54817 0.00222 0.51705 0.0
C378 C 0.51621 0.06044 0.56143 0.0
O379 O 0.50468 0.04593 0.5754 0.0
C380 C 0.52804 0.95077 0.50827 0.0
O381 O 0.54203 0.94945 0.52786 0.0
O382 O 0.46167 0.02568 0.52447 0.0
O383 O 0.50399 0.00977 0.49467 0.0
O384 O 0.54198 0.02615 0.49385 0.0
C385 C 0.45835 0.04329 0.51326 0.0
O386 O 0.47627 0.05576 0.50376 0.0
O387 O 0.516 0.05336 0.53906 0.0
C388 C 0.58927 0.98864 0.53958 0.0
O389 O 0.57572 0.98904 0.55728 0.0
O390 O 0.58228 0.99529 0.51936 0.0
O391 O 0.54032 0.01102 0.55102 0.0
O392 O 0.50168 0.99793 0.5518 0.0
O393 O 0.52705 0.9711 0.50165 0.0
C394 C 0.52022 0.02316 0.48517 0.0
C395 C 0.52309 0.99897 0.56039 0.0
Zn396 Zn 0.28717 0.24764 0.75192 0.0
Zn397 Zn 0.24183 0.26016 0.77382 0.0
C398 C 0.27287 0.24312 0.69993 0.0
O399 O 0.28911 0.26294 0.70058 0.0
C400 C 0.26098 0.28881 0.81804 0.0
O401 O 0.25144 0.30398 0.80633 0.0
O402 O 0.31898 0.24215 0.74391 0.0
O403 O 0.29108 0.28321 0.76051 0.0
O404 O 0.25358 0.28382 0.75051 0.0
C405 C 0.33844 0.2577 0.74703 0.0
O406 O 0.33919 0.27889 0.75845 0.0
O407 O 0.26717 0.2355 0.71986 0.0
C408 C 0.19326 0.24954 0.78585 0.0
O409 O 0.19581 0.22735 0.78338 0.0
O410 O 0.21005 0.26616 0.78154 0.0
O411 O 0.23781 0.22479 0.76416 0.0
O412 O 0.2753 0.22411 0.77511 0.0
O413 O 0.26118 0.26863 0.80678 0.0
C414 C 0.27543 0.29425 0.75305 0.0
C415 C 0.25342 0.21363 0.77154 0.0
Zn416 Zn 0.02926 0.99303 0.53057 0.0
Zn417 Zn 0.01026 0.03609 0.50902 0.0
C418 C 0.05194 0.01347 0.57725 0.0
O419 O 0.07047 0.01243 0.56547 0.0
C420 C 0.98573 0.01521 0.46348 0.0
O421 O 0.96789 0.01902 0.47525 0.0
O422 O 0.03253 0.95978 0.53768 0.0
O423 O 0.99654 0.98647 0.51235 0.0
O424 O 0.98534 0.0177 0.52853 0.0
C425 C 0.01635 0.95204 0.55096 0.0
O426 O 0.00117 0.96532 0.55622 0.0
O427 O 0.03151 0.00949 0.56501 0.0
C428 C 0.01233 0.08751 0.50628 0.0
O429 O 0.03078 0.09201 0.52299 0.0
O430 O 0.00069 0.06616 0.50044 0.0
O431 O 0.04592 0.04498 0.51966 0.0
O432 O 0.05567 0.00989 0.51311 0.0
O433 O 0.00644 0.0191 0.47505 0.0
C434 C 0.98054 0.99551 0.52127 0.0
C435 C 0.06083 0.03253 0.51389 0.0
Zn436 Zn 0.25243 0.78262 0.74839 0.0
Zn437 Zn 0.27421 0.73208 0.76015 0.0
C438 C 0.20519 0.7567 0.72686 0.0
O439 O 0.2156 0.75226 0.70742 0.0
C440 C 0.31798 0.7588 0.78917 0.0
O441 O 0.30626 0.75484 0.80811 0.0
O442 O 0.2509 0.8176 0.7488 0.0
O443 O 0.26873 0.77791 0.78042 0.0
O444 O 0.25242 0.74071 0.78434 0.0
C445 C 0.24002 0.82453 0.7661 0.0
O446 O 0.2327 0.80968 0.7818 0.0
O447 O 0.21776 0.76705 0.74633 0.0
C448 C 0.29661 0.69609 0.74772 0.0
O449 O 0.30517 0.71416 0.73597 0.0
O450 O 0.2808 0.69848 0.76181 0.0
O451 O 0.26424 0.73333 0.72459 0.0
O452 O 0.26638 0.77144 0.71877 0.0
O453 O 0.30708 0.753 0.76787 0.0
C454 C 0.25638 0.76278 0.79205 0.0
C455 C 0.2669 0.75011 0.71096 0.0
Zn456 Zn 0.51659 0.01372 0.00036 0.0
Zn457 Zn 0.50875 0.99809 0.04614 0.0
C458 C 0.56382 0.04024 0.01643 0.0
O459 O 0.55395 0.05843 0.01305 0.0
C460 C 0.46171 0.9724 0.03217 0.0
O461 O 0.4697 0.95868 0.0471 0.0
O462 O 0.51995 0.02251 0.96667 0.0
O463 O 0.50431 0.97746 0.99704 0.0
O464 O 0.52518 0.9744 0.03133 0.0
C465 C 0.53047 0.00853 0.9551 0.0
O466 O 0.53639 0.99074 0.9655 0.0
O467 O 0.55103 0.01924 0.01345 0.0
C468 C 0.48876 0.00213 0.08836 0.0
O469 O 0.47689 0.01327 0.07364 0.0
O470 O 0.50483 0.99239 0.08054 0.0
O471 O 0.52414 0.03259 0.05003 0.0
O472 O 0.50078 0.03767 0.01879 0.0
O473 O 0.47548 0.99153 0.02807 0.0
C474 C 0.5151 0.96523 0.01035 0.0
C475 C 0.51143 0.04523 0.03997 0.0
Zn476 Zn 0.26173 0.2326 0.24238 0.0
Zn477 Zn 0.25208 0.27568 0.27085 0.0
C478 C 0.30364 0.24902 0.22415 0.0
O479 O 0.2892 0.23656 0.20566 0.0
C480 C 0.21025 0.25784 0.28958 0.0
O481 O 0.22564 0.26533 0.30906 0.0
O482 O 0.26664 0.20037 0.22965 0.0
O483 O 0.2505 0.22595 0.275 0.0
O484 O 0.27083 0.25963 0.29489 0.0
C485 C 0.28221 0.19482 0.24447 0.0
O486 O 0.29155 0.20962 0.26396 0.0
O487 O 0.29551 0.25245 0.24444 0.0
C488 C 0.23509 0.31608 0.27198 0.0
O489 O 0.22473 0.30261 0.25201 0.0
O490 O 0.25009 0.30853 0.28573 0.0
O491 O 0.26094 0.28095 0.23652 0.0
O492 O 0.24146 0.246 0.21803 0.0
O493 O 0.21769 0.25847 0.26875 0.0
C494 C 0.26208 0.23741 0.2945 0.0
C495 C 0.24936 0.26822 0.21755 0.0
Zn496 Zn 0.5256 0.48777 0.03225 0.0
Zn497 Zn 0.51327 0.53448 0.01891 0.0
C498 C 0.55157 0.49851 0.07939 0.0
O499 O 0.56462 0.48569 0.06829 0.0
C500 C 0.48972 0.52039 0.97226 0.0
O501 O 0.47777 0.5354 0.9816 0.0
O502 O 0.52952 0.45367 0.03332 0.0
O503 O 0.49051 0.48473 0.02125 0.0
O504 O 0.48596 0.51984 0.0371 0.0
C505 C 0.52145 0.44293 0.05088 0.0
O506 O 0.51052 0.45401 0.06654 0.0
O507 O 0.53344 0.50301 0.06745 0.0
C508 C 0.52712 0.57392 0.99555 0.0
O509 O 0.5409 0.55921 0.98991 0.0
O510 O 0.51212 0.56808 0.01061 0.0
O511 O 0.54717 0.5375 0.03415 0.0
O512 O 0.55084 0.50482 0.01281 0.0
O513 O 0.5069 0.51541 0.98538 0.0
C514 C 0.47732 0.49788 0.02983 0.0
C515 C 0.56003 0.52579 0.0229 0.0
Zn516 Zn 0.75555 0.27773 0.25477 0.0
Zn517 Zn 0.77387 0.22952 0.26956 0.0
C518 C 0.71307 0.25675 0.22869 0.0
O519 O 0.72584 0.2681 0.21318 0.0
C520 C 0.81932 0.25552 0.2935 0.0
O521 O 0.80845 0.25369 0.31324 0.0
O522 O 0.74845 0.31035 0.25 0.0
O523 O 0.77161 0.27949 0.28803 0.0
O524 O 0.75642 0.2432 0.2962 0.0
C525 C 0.7299 0.31535 0.25818 0.0
O526 O 0.71592 0.2995 0.26895 0.0
O527 O 0.72316 0.25571 0.24976 0.0
C528 C 0.79022 0.18721 0.25826 0.0
O529 O 0.79804 0.2004 0.24134 0.0
O530 O 0.77782 0.19547 0.27349 0.0
O531 O 0.76107 0.22988 0.23445 0.0
O532 O 0.77508 0.26773 0.22994 0.0
O533 O 0.80767 0.24768 0.27288 0.0
C534 C 0.76108 0.26572 0.30204 0.0
C535 C 0.77142 0.24574 0.22208 0.0
Zn536 Zn 0.02448 0.52193 0.50847 0.0
Zn537 Zn 0.00718 0.50729 0.55364 0.0
C538 C 0.0652 0.55457 0.52873 0.0
O539 O 0.05113 0.5685 0.52174 0.0
C540 C 0.96076 0.47896 0.52955 0.0
O541 O 0.97033 0.46019 0.52834 0.0
O542 O 0.03562 0.53109 0.47733 0.0
O543 O 0.01483 0.48622 0.50274 0.0
O544 O 0.02558 0.48328 0.54103 0.0
C545 C 0.02629 0.52134 0.45637 0.0
O546 O 0.00504 0.50713 0.45379 0.0
O547 O 0.05595 0.53268 0.52974 0.0
C548 C 0.98956 0.51387 0.59714 0.0
O549 O 0.98162 0.5295 0.58474 0.0
O550 O 0.00243 0.50107 0.58757 0.0
O551 O 0.01739 0.54325 0.555 0.0
O552 O 0.00065 0.54101 0.51767 0.0
O553 O 0.97341 0.49935 0.53785 0.0
C554 C 0.02156 0.47417 0.51895 0.0
C555 C 0.00533 0.55179 0.53908 0.0
Zn556 Zn 0.78582 0.74873 0.26032 0.0
Zn557 Zn 0.73818 0.76099 0.27574 0.0
C558 C 0.77535 0.72685 0.21275 0.0
O559 O 0.7889 0.71412 0.2233 0.0
C560 C 0.74607 0.79298 0.31727 0.0
O561 O 0.73825 0.80441 0.2999 0.0
O562 O 0.81989 0.74846 0.25579 0.0
O563 O 0.78762 0.78163 0.27704 0.0
O564 O 0.75565 0.78547 0.25501 0.0
C565 C 0.82911 0.76582 0.24471 0.0
O566 O 0.81625 0.78097 0.23815 0.0
O567 O 0.7694 0.74363 0.22565 0.0
C568 C 0.69316 0.75208 0.29056 0.0
O569 O 0.70437 0.73851 0.30291 0.0
O570 O 0.704 0.76409 0.27521 0.0
O571 O 0.73545 0.72495 0.26919 0.0
O572 O 0.77249 0.72086 0.27722 0.0
O573 O 0.7503 0.77251 0.31142 0.0
C574 C 0.77657 0.79458 0.2652 0.0
C575 C 0.75025 0.71216 0.27457 0.0
Zn576 Zn 0.76161 0.25934 0.78741 0.0
Zn577 Zn 0.77236 0.26957 0.74142 0.0
C578 C 0.74854 0.21019 0.74919 0.0
O579 O 0.7562 0.21062 0.72762 0.0
C580 C 0.80335 0.31658 0.75825 0.0
O581 O 0.82133 0.30672 0.75393 0.0
O582 O 0.75643 0.2474 0.81956 0.0
O583 O 0.79706 0.27275 0.79001 0.0
O584 O 0.79611 0.25166 0.75505 0.0
C585 C 0.76722 0.23051 0.82205 0.0
O586 O 0.78004 0.22469 0.80504 0.0
O587 O 0.75356 0.22911 0.76395 0.0
C588 C 0.7658 0.28498 0.69769 0.0
O589 O 0.75541 0.29815 0.71191 0.0
O590 O 0.7756 0.26936 0.70636 0.0
O591 O 0.73661 0.26057 0.74171 0.0
O592 O 0.73779 0.2791 0.77831 0.0
O593 O 0.78223 0.30409 0.75512 0.0
C594 C 0.80718 0.26066 0.77565 0.0
C595 C 0.72683 0.27168 0.75724 0.0
Zn596 Zn 0.76328 0.74068 0.75075 0.0
Zn597 Zn 0.74862 0.78362 0.77961 0.0
C598 C 0.80584 0.7517 0.73344 0.0
O599 O 0.7903 0.74073 0.71504 0.0
C600 C 0.70683 0.76493 0.79621 0.0
O601 O 0.72033 0.77879 0.81448 0.0
O602 O 0.76478 0.70683 0.73936 0.0
O603 O 0.74959 0.73766 0.78278 0.0
O604 O 0.7666 0.77046 0.8067 0.0
C605 C 0.77401 0.69714 0.75642 0.0
O606 O 0.77872 0.70858 0.77844 0.0
O607 O 0.79841 0.75638 0.75387 0.0
C608 C 0.72519 0.81699 0.76866 0.0
O609 O 0.71992 0.7989 0.75148 0.0
O610 O 0.74012 0.81612 0.78683 0.0
O611 O 0.76511 0.78835 0.74909 0.0
O612 O 0.74703 0.75638 0.72484 0.0
O613 O 0.71514 0.76215 0.77591 0.0
C614 C 0.75869 0.74791 0.80377 0.0
C615 C 0.75578 0.77869 0.72799 0.0
Zn616 Zn 0.54394 0.5145 0.54561 0.0
Zn617 Zn 0.49848 0.52407 0.51858 0.0
C618 C 0.53311 0.46881 0.55869 0.0
O619 O 0.54695 0.48164 0.57736 0.0
C620 C 0.50893 0.56637 0.49809 0.0
O621 O 0.50169 0.54971 0.47961 0.0
O622 O 0.57749 0.51192 0.55586 0.0
O623 O 0.5468 0.53114 0.51532 0.0
O624 O 0.51585 0.50723 0.49416 0.0
C625 C 0.58602 0.50181 0.53846 0.0
O626 O 0.57399 0.49761 0.51674 0.0
O627 O 0.52715 0.47913 0.54044 0.0
C628 C 0.45611 0.53622 0.52012 0.0
O629 O 0.46922 0.5457 0.54064 0.0
O630 O 0.46457 0.52306 0.50508 0.0
O631 O 0.49483 0.51322 0.55248 0.0
O632 O 0.52978 0.52962 0.57293 0.0
O633 O 0.51156 0.56001 0.51939 0.0
C634 C 0.53693 0.51961 0.49518 0.0
C635 C 0.50752 0.52167 0.57253 0.0
Zn636 Zn 0.99499 0.52571 0.04248 0.0
Zn637 Zn 0.04414 0.50495 0.02376 0.0
C638 C 0.02176 0.56809 0.06773 0.0
O639 O 0.01597 0.55539 0.08562 0.0
C640 C 0.01792 0.45767 0.00263 0.0
O641 O 0.01318 0.46819 0.98337 0.0
O642 O 0.96247 0.53209 0.04729 0.0
O643 O 0.99217 0.50897 0.00946 0.0
O644 O 0.02755 0.51981 0.99652 0.0
C645 C 0.95235 0.54132 0.03036 0.0
O646 O 0.96271 0.54469 0.01045 0.0
O647 O 0.01578 0.5586 0.04589 0.0
C648 C 0.08992 0.49575 0.03703 0.0
O649 O 0.08171 0.49784 0.05819 0.0
O650 O 0.07827 0.50131 0.01857 0.0
O651 O 0.04295 0.51871 0.0583 0.0
O652 O 0.00618 0.50628 0.06705 0.0
O653 O 0.0289 0.47011 0.0219 0.0
C654 C 0.00486 0.51595 0.99295 0.0
C655 C 0.02834 0.50718 0.07111 0.0
H656 H 0.01449 0.17004 0.9061 0.0
H657 H -0.00085 0.2143 0.96764 0.0
H658 H 0.00541 0.18373 0.99454 0.0
H659 H 0.9833 0.11609 0.92139 0.0
H660 H 0.00393 0.09883 0.91102 0.0
H661 H 0.00118 0.1255 0.89758 0.0
H662 H 0.04662 0.14228 0.90831 0.0
H663 H 0.04943 0.11569 0.9221 0.0
H664 H 0.05971 0.14463 0.93943 0.0
H665 H 0.0106 0.1471 0.01406 0.0
H666 H 0.00997 0.1058 0.02348 0.0
H667 H 0.0211 0.08576 0.94889 0.0
C668 C 0.01277 0.1735 0.9253 0.0
C669 C 0.00643 0.19458 0.9348 0.0
C670 C 0.00399 0.19825 0.95996 0.0
C671 C 0.00772 0.1811 0.97542 0.0
C672 C 0.01393 0.16048 0.96542 0.0
C673 C 0.01628 0.15658 0.9409 0.0
C674 C 0.02084 0.13205 0.93416 0.0
C675 C 0.00113 0.11725 0.91492 0.0
C676 C 0.04563 0.13378 0.92549 0.0
C677 C 0.01981 0.1224 0.95854 0.0
C678 C 0.01641 0.13922 0.97651 0.0
C679 C 0.01356 0.13387 0.00022 0.0
C680 C 0.01334 0.11045 0.00545 0.0
C681 C 0.0155 0.09276 0.98687 0.0
C682 C 0.01951 0.09904 0.96341 0.0
H683 H 0.10669 0.80898 0.18431 0.0
H684 H 0.0642 0.74879 0.21356 0.0
H685 H 0.10031 0.74217 0.23637 0.0
H686 H 0.15494 0.78459 0.17455 0.0
H687 H 0.17776 0.81117 0.18415 0.0
H688 H 0.14839 0.81367 0.17248 0.0
H689 H 0.14509 0.83992 0.2119 0.0
H690 H 0.17467 0.83784 0.22358 0.0
H691 H 0.15006 0.82916 0.24102 0.0
H692 H 0.14083 0.73795 0.2508 0.0
H693 H 0.18393 0.73961 0.26025 0.0
H694 H 0.20063 0.80335 0.22367 0.0
C695 C 0.10489 0.79486 0.19609 0.0
C696 C 0.08256 0.77942 0.19714 0.0
C697 C 0.08102 0.76098 0.21256 0.0
C698 C 0.10146 0.757 0.22556 0.0
C699 C 0.12328 0.7719 0.22338 0.0
C700 C 0.12515 0.79081 0.20951 0.0
C701 C 0.15099 0.80348 0.2096 0.0
C702 C 0.15845 0.80319 0.18365 0.0
C703 C 0.15546 0.82912 0.22228 0.0
C704 C 0.1633 0.78795 0.22469 0.0
C705 C 0.14691 0.76993 0.23255 0.0
C706 C 0.15385 0.75233 0.24536 0.0
C707 C 0.17824 0.75335 0.25058 0.0
C708 C 0.19521 0.77184 0.24306 0.0
C709 C 0.18777 0.78937 0.22999 0.0
H710 H 0.51196 0.81333 0.46209 0.0
H711 H 0.50158 0.83359 0.38904 0.0
H712 H 0.49995 0.87402 0.40603 0.0
H713 H 0.47244 0.8512 0.48829 0.0
H714 H 0.49097 0.8585 0.51702 0.0
H715 H 0.48868 0.83006 0.49939 0.0
H716 H 0.53461 0.83859 0.49975 0.0
H717 H 0.53701 0.86684 0.51755 0.0
H718 H 0.54976 0.86574 0.48909 0.0
H719 H 0.50233 0.9127 0.43012 0.0
H720 H 0.51217 0.94845 0.4601 0.0
H721 H 0.52139 0.9041 0.51797 0.0
C722 C 0.50916 0.82626 0.44975 0.0
C723 C 0.50681 0.82029 0.42428 0.0
C724 C 0.50316 0.83767 0.40865 0.0
C725 C 0.50209 0.86068 0.41809 0.0
C726 C 0.50431 0.86601 0.44323 0.0
C727 C 0.50772 0.84937 0.45891 0.0
C728 C 0.51082 0.86033 0.4852 0.0
C729 C 0.48946 0.84937 0.49825 0.0
C730 C 0.53447 0.85773 0.49867 0.0
C731 C 0.51076 0.88612 0.48165 0.0
C732 C 0.50601 0.88873 0.45732 0.0
C733 C 0.50581 0.9109 0.44928 0.0
C734 C 0.5114 0.93111 0.46648 0.0
C735 C 0.51764 0.92904 0.49136 0.0
C736 C 0.51665 0.90617 0.49907 0.0
H737 H 0.46839 0.28908 0.70301 0.0
H738 H 0.44876 0.22206 0.65618 0.0
H739 H 0.40922 0.21369 0.67145 0.0
H740 H 0.43994 0.26616 0.75386 0.0
H741 H 0.43057 0.29324 0.76314 0.0
H742 H 0.45697 0.29459 0.74786 0.0
H743 H 0.43972 0.31735 0.71482 0.0
H744 H 0.41341 0.31631 0.73017 0.0
H745 H 0.41072 0.30464 0.69854 0.0
H746 H 0.37247 0.2123 0.69215 0.0
H747 H 0.33974 0.21861 0.71574 0.0
H748 H 0.3834 0.28624 0.75019 0.0
C749 C 0.45551 0.2729 0.69576 0.0
C750 C 0.46115 0.25633 0.67817 0.0
C751 C 0.44438 0.23499 0.66946 0.0
C752 C 0.42203 0.23007 0.67809 0.0
C753 C 0.417 0.24656 0.69572 0.0
C754 C 0.43321 0.26754 0.70449 0.0
C755 C 0.4235 0.28183 0.72395 0.0
C756 C 0.43865 0.28408 0.74866 0.0
C757 C 0.42173 0.30649 0.7164 0.0
C758 C 0.39909 0.26592 0.72422 0.0
C759 C 0.39585 0.24555 0.708 0.0
C760 C 0.37478 0.22817 0.70494 0.0
C761 C 0.35632 0.23189 0.71852 0.0
C762 C 0.35899 0.25293 0.73484 0.0
C763 C 0.38081 0.26998 0.73789 0.0
H764 H 0.02224 0.81621 0.56641 0.0
H765 H 0.99235 0.82653 0.63465 0.0
H766 H 0.99338 0.86849 0.6284 0.0
H767 H 0.06173 0.87405 0.57068 0.0
H768 H 0.05646 0.87748 0.53882 0.0
H769 H 0.05373 0.84808 0.54842 0.0
H770 H 0.01065 0.83555 0.52674 0.0
H771 H 0.01333 0.86485 0.51689 0.0
H772 H 0.98925 0.85315 0.53395 0.0
H773 H 0.99731 0.90857 0.61537 0.0
H774 H 0.00171 0.94501 0.59491 0.0
H775 H 0.02923 0.91002 0.53461 0.0
C776 C 0.01588 0.82732 0.57999 0.0
C777 C 0.00722 0.81812 0.60105 0.0
C778 C 0.99893 0.83314 0.61834 0.0
C779 C -0.00043 0.85703 0.61502 0.0
C780 C 0.00838 0.86559 0.59424 0.0
C781 C 0.01618 0.85125 0.57685 0.0
C782 C 0.02406 0.86497 0.55581 0.0
C783 C 0.05057 0.86622 0.5533 0.0
C784 C 0.00839 0.85397 0.53194 0.0
C785 C 0.01964 0.88931 0.56428 0.0
C786 C 0.0106 0.8891 0.58653 0.0
C787 C 0.00433 0.90899 0.59795 0.0
C788 C 0.00684 0.92957 0.58612 0.0
C789 C 0.01575 0.93027 0.56317 0.0
C790 C 0.02262 0.90999 0.55225 0.0
H791 H 0.44839 0.80004 0.86033 0.0
H792 H 0.46735 0.74347 0.8145 0.0
H793 H 0.42761 0.73563 0.79044 0.0
H794 H 0.38879 0.76969 0.8639 0.0
H795 H 0.37667 0.7961 0.86358 0.0
H796 H 0.40721 0.79852 0.87553 0.0
H797 H 0.42076 0.82919 0.84544 0.0
H798 H 0.39022 0.82657 0.83315 0.0
H799 H 0.412 0.82118 0.81325 0.0
H800 H 0.38671 0.73464 0.77131 0.0
H801 H 0.34432 0.73495 0.7624 0.0
H802 H 0.35012 0.78943 0.8233 0.0
C803 C 0.44404 0.78608 0.84515 0.0
C804 C 0.4606 0.77236 0.83891 0.0
C805 C 0.45463 0.75406 0.81928 0.0
C806 C 0.43229 0.74968 0.8055 0.0
C807 C 0.4163 0.76367 0.81191 0.0
C808 C 0.42168 0.78119 0.83154 0.0
C809 C 0.40061 0.79235 0.83571 0.0
C810 C 0.39286 0.78894 0.86119 0.0
C811 C 0.40624 0.8189 0.83164 0.0
C812 C 0.38227 0.77779 0.81584 0.0
C813 C 0.39203 0.762 0.80182 0.0
C814 C 0.37883 0.74686 0.78217 0.0
C815 C 0.35479 0.74729 0.77717 0.0
C816 C 0.34404 0.76223 0.79218 0.0
C817 C 0.35802 0.77791 0.81156 0.0
H818 H 0.48906 0.17767 0.06934 0.0
H819 H 0.49405 0.16408 0.14519 0.0
H820 H 0.49803 0.12329 0.13309 0.0
H821 H 0.45357 0.11571 0.04667 0.0
H822 H 0.46764 0.1146 0.01901 0.0
H823 H 0.46374 0.14277 0.03314 0.0
H824 H 0.50903 0.1601 0.03452 0.0
H825 H 0.5131 0.13195 0.02065 0.0
H826 H 0.52985 0.14512 0.04939 0.0
H827 H 0.50726 0.08687 0.11447 0.0
H828 H 0.51467 0.05271 0.08904 0.0
H829 H 0.49925 0.08591 0.02395 0.0
C830 C 0.49043 0.16586 0.08326 0.0
C831 C 0.49111 0.17409 0.10822 0.0
C832 C 0.4931 0.15818 0.12596 0.0
C833 C 0.49555 0.13496 0.11931 0.0
C834 C 0.49532 0.12754 0.09475 0.0
C835 C 0.49214 0.14211 0.07685 0.0
C836 C 0.49233 0.12908 0.05177 0.0
C837 C 0.46786 0.12532 0.03676 0.0
C838 C 0.51227 0.14236 0.0383 0.0
C839 C 0.49729 0.10547 0.05865 0.0
C840 C 0.49904 0.10523 0.08362 0.0
C841 C 0.50531 0.08648 0.09485 0.0
C842 C 0.50957 0.06718 0.08019 0.0
C843 C 0.50709 0.06641 0.05447 0.0
C844 C 0.50079 0.08582 0.04353 0.0
H845 H 0.10336 0.25374 0.3694 0.0
H846 H 0.06199 0.27104 0.30715 0.0
H847 H 0.09513 0.26882 0.2821 0.0
H848 H 0.16107 0.28504 0.3588 0.0
H849 H 0.17568 0.262 0.36807 0.0
H850 H 0.1489 0.26586 0.3806 0.0
H851 H 0.12965 0.22132 0.36618 0.0
H852 H 0.15623 0.21756 0.35301 0.0
H853 H 0.12788 0.21036 0.33444 0.0
H854 H 0.1332 0.26501 0.26431 0.0
H855 H 0.17415 0.26278 0.25607 0.0
H856 H 0.18911 0.24564 0.3296 0.0
C857 C 0.10157 0.25746 0.35061 0.0
C858 C 0.08061 0.26303 0.34012 0.0
C859 C 0.07827 0.26707 0.31536 0.0
C860 C 0.09684 0.26566 0.30105 0.0
C861 C 0.11723 0.25959 0.31175 0.0
C862 C 0.11966 0.25554 0.33596 0.0
C863 C 0.14306 0.24878 0.34296 0.0
C864 C 0.15806 0.26649 0.36383 0.0
C865 C 0.13895 0.22297 0.34954 0.0
C866 C 0.15395 0.25082 0.31929 0.0
C867 C 0.13865 0.25662 0.30133 0.0
C868 C 0.14526 0.26025 0.27817 0.0
C869 C 0.16845 0.25876 0.27358 0.0
C870 C 0.18466 0.25397 0.29221 0.0
C871 C 0.17701 0.24924 0.31502 0.0
H872 H 0.91431 0.03182 0.16271 0.0
H873 H 0.94602 0.98257 0.20257 0.0
H874 H 0.97523 0.98221 0.17306 0.0
H875 H 0.92043 0.00819 0.10251 0.0
H876 H 0.92912 0.03674 0.0912 0.0
H877 H 0.91068 0.03381 0.1157 0.0
H878 H 0.94125 0.06779 0.14235 0.0
H879 H 0.95982 0.07073 0.11789 0.0
H880 H 0.97191 0.06545 0.14748 0.0
H881 H 0.00101 0.98667 0.1399 0.0
H882 H 0.02058 0.99398 0.10274 0.0
H883 H 0.97278 0.03996 0.08315 0.0
C884 C 0.92738 0.02094 0.16508 0.0
C885 C 0.92792 0.00725 0.18499 0.0
C886 C 0.94541 0.99339 0.18764 0.0
C887 C 0.96211 0.99305 0.17097 0.0
C888 C 0.9614 0.00691 0.1518 0.0
C889 C 0.94458 0.02066 0.14867 0.0
C890 C 0.94819 0.03401 0.12642 0.0
C891 C 0.92577 0.02779 0.10786 0.0
C892 C 0.95574 0.0611 0.13399 0.0
C893 C 0.96866 0.02441 0.11689 0.0
C894 C 0.97637 0.00934 0.13226 0.0
C895 C 0.99523 0.9985 0.12772 0.0
C896 C 0.00633 0.00286 0.10666 0.0
C897 C 0.99824 0.01755 0.09015 0.0
C898 C 0.97927 0.02861 0.09547 0.0
H899 H 0.25156 0.65656 0.42461 0.0
H900 H 0.29988 0.71315 0.4724 0.0
H901 H 0.29634 0.74144 0.44185 0.0
H902 H 0.27337 0.67374 0.36814 0.0
H903 H 0.24409 0.66538 0.35137 0.0
H904 H 0.25103 0.65034 0.37722 0.0
H905 H 0.21463 0.66126 0.39609 0.0
H906 H 0.20831 0.67717 0.37065 0.0
H907 H 0.21284 0.69217 0.4012 0.0
H908 H 0.28632 0.76357 0.40681 0.0
H909 H 0.2772 0.77606 0.36603 0.0
H910 H 0.23647 0.70456 0.34117 0.0
C911 C 0.26183 0.67478 0.42822 0.0
C912 C 0.27639 0.68283 0.45032 0.0
C913 C 0.28914 0.70679 0.4551 0.0
C914 C 0.28692 0.72296 0.43811 0.0
C915 C 0.27181 0.71469 0.41666 0.0
C916 C 0.25994 0.69103 0.41141 0.0
C917 C 0.24558 0.68647 0.38666 0.0
C918 C 0.25404 0.6679 0.36986 0.0
C919 C 0.21875 0.67882 0.3888 0.0
C920 C 0.25174 0.71113 0.37857 0.0
C921 C 0.26631 0.72734 0.39638 0.0
C922 C 0.27487 0.7511 0.39273 0.0
C923 C 0.26944 0.75812 0.36972 0.0
C924 C 0.25605 0.74121 0.35094 0.0
C925 C 0.24647 0.71776 0.35559 0.0
H926 H 0.58467 0.02131 0.69552 0.0
H927 H 0.59787 0.94996 0.68535 0.0
H928 H 0.57259 0.94233 0.64552 0.0
H929 H 0.52427 0.00971 0.666 0.0
H930 H 0.52914 0.03687 0.6516 0.0
H931 H 0.54597 0.03561 0.68026 0.0
H932 H 0.58553 0.04876 0.66144 0.0
H933 H 0.56877 0.05044 0.63295 0.0
H934 H 0.59054 0.0321 0.63403 0.0
H935 H 0.54558 0.94297 0.60684 0.0
H936 H 0.52556 0.95399 0.5695 0.0
H937 H 0.53455 0.02634 0.60373 0.0
C938 C 0.58183 0.00396 0.68503 0.0
C939 C 0.59251 0.98595 0.69349 0.0
C940 C 0.58938 0.96375 0.6791 0.0
C941 C 0.57502 0.95928 0.65662 0.0
C942 C 0.56448 0.97743 0.6488 0.0
C943 C 0.56824 0.99951 0.66236 0.0
C944 C 0.55737 0.01696 0.64881 0.0
C945 C 0.53803 0.02527 0.66249 0.0
C946 C 0.57671 0.03831 0.64402 0.0
C947 C 0.54668 0.00124 0.62554 0.0
C948 C 0.5505 0.97835 0.62603 0.0
C949 C 0.54249 0.96082 0.6063 0.0
C950 C 0.53107 0.96716 0.58525 0.0
C951 C 0.52838 0.99086 0.58406 0.0
C952 C 0.53588 0.00795 0.60454 0.0
H953 H 0.26254 0.35928 0.94874 0.0
H954 H 0.27776 0.29733 0.98057 0.0
H955 H 0.27844 0.27716 0.93936 0.0
H956 H 0.22512 0.32893 0.89501 0.0
H957 H 0.23734 0.35077 0.87564 0.0
H958 H 0.23707 0.35953 0.90756 0.0
H959 H 0.28272 0.3763 0.91153 0.0
H960 H 0.28316 0.36717 0.87967 0.0
H961 H 0.30197 0.35699 0.90228 0.0
H962 H 0.27756 0.26393 0.89441 0.0
H963 H 0.27355 0.25808 0.84941 0.0
H964 H 0.26092 0.32963 0.84741 0.0
C965 C 0.26558 0.3413 0.94697 0.0
C966 C 0.26975 0.32967 0.96774 0.0
C967 C 0.27437 0.30644 0.96481 0.0
C968 C 0.27488 0.29491 0.94152 0.0
C969 C 0.2712 0.30707 0.92139 0.0
C970 C 0.26668 0.32977 0.92391 0.0
C971 C 0.26416 0.33927 0.89946 0.0
C972 C 0.23944 0.34494 0.89411 0.0
C973 C 0.28419 0.36123 0.89817 0.0
C974 C 0.26708 0.31806 0.88272 0.0
C975 C 0.2714 0.29975 0.8957 0.0
C976 C 0.27428 0.2782 0.88407 0.0
C977 C 0.27208 0.27508 0.8585 0.0
C978 C 0.26694 0.29339 0.84484 0.0
C979 C 0.26493 0.3153 0.85726 0.0
H980 H 0.90826 0.99899 0.33507 0.0
H981 H 0.97305 0.02701 0.30399 0.0
H982 H 0.99655 0.02894 0.34418 0.0
H983 H 0.92236 0.03225 0.39391 0.0
H984 H 0.90926 0.00755 0.4096 0.0
H985 H 0.89815 0.00915 0.37858 0.0
H986 H 0.9056 0.96695 0.36657 0.0
H987 H 0.91721 0.96548 0.39752 0.0
H988 H 0.935 0.96142 0.37306 0.0
H989 H 0.01261 0.02766 0.388 0.0
H990 H 0.01967 0.0262 0.43241 0.0
H991 H 0.94421 0.99758 0.43403 0.0
C992 C 0.92735 0.00597 0.33697 0.0
C993 C 0.93896 0.01346 0.31689 0.0
C994 C 0.96398 0.02166 0.3195 0.0
C995 C 0.9774 0.0226 0.34212 0.0
C996 C 0.96546 0.01469 0.36162 0.0
C997 C 0.94099 0.00652 0.35923 0.0
C998 C 0.93249 0.99855 0.38275 0.0
C999 C 0.91452 0.01274 0.39174 0.0
C1000 C 0.92195 0.9715 0.37979 0.0
C1001 C 0.95581 0.00468 0.39915 0.0
C1002 C 0.97472 0.01346 0.38653 0.0
C1003 C 0.99795 0.02069 0.39803 0.0
C1004 C 0.00181 0.01964 0.42322 0.0
C1005 C 0.98247 0.01173 0.4366 0.0
C1006 C 0.95932 0.00365 0.42423 0.0
H1007 H 0.30109 0.66895 0.60374 0.0
H1008 H 0.27212 0.71183 0.55334 0.0
H1009 H 0.26827 0.74043 0.58784 0.0
H1010 H 0.2629 0.67168 0.64473 0.0
H1011 H 0.2831 0.67408 0.67193 0.0
H1012 H 0.28939 0.65979 0.64391 0.0
H1013 H 0.33027 0.68826 0.64634 0.0
H1014 H 0.32565 0.70364 0.67467 0.0
H1015 H 0.33261 0.72011 0.64932 0.0
H1016 H 0.2627 0.76143 0.62834 0.0
H1017 H 0.25643 0.77279 0.6711 0.0
H1018 H 0.28673 0.71424 0.69347 0.0
C1019 C 0.29462 0.68471 0.59986 0.0
C1020 C 0.28688 0.68813 0.5759 0.0
C1021 C 0.27823 0.70887 0.57161 0.0
C1022 C 0.27602 0.72527 0.59107 0.0
C1023 C 0.2828 0.72077 0.61461 0.0
C1024 C 0.29221 0.70113 0.619 0.0
C1025 C 0.29595 0.6989 0.64585 0.0
C1026 C 0.28202 0.6747 0.65195 0.0
C1027 C 0.32269 0.70294 0.65456 0.0
C1028 C 0.28571 0.71937 0.6558 0.0
C1029 C 0.27889 0.7323 0.6377 0.0
C1030 C 0.26831 0.75164 0.64272 0.0
C1031 C 0.26474 0.7579 0.66697 0.0
C1032 C 0.27116 0.7444 0.68556 0.0
C1033 C 0.28177 0.72499 0.67975 0.0
H1034 H 0.56613 0.97741 0.8234 0.0
H1035 H 0.6259 0.03788 0.84089 0.0
H1036 H 0.612 0.04704 0.88081 0.0
H1037 H 0.52339 0.00374 0.84991 0.0
H1038 H 0.50845 0.97747 0.86217 0.0
H1039 H 0.52352 0.97447 0.8354 0.0
H1040 H 0.54924 0.94848 0.85638 0.0
H1041 H 0.53368 0.95074 0.88289 0.0
H1042 H 0.56572 0.95953 0.88579 0.0
H1043 H 0.58963 0.05195 0.91658 0.0
H1044 H 0.56454 0.04727 0.95048 0.0
H1045 H 0.52093 0.98214 0.91115 0.0
C1046 C 0.57653 0.99211 0.83603 0.0
C1047 C 0.59713 0.00687 0.82958 0.0
C1048 C 0.61022 0.02631 0.846 0.0
C1049 C 0.60236 0.03175 0.86849 0.0
C1050 C 0.58148 0.01741 0.87413 0.0
C1051 C 0.56909 0.99758 0.85875 0.0
C1052 C 0.54735 0.98502 0.86945 0.0
C1053 C 0.52432 0.9852 0.85326 0.0
C1054 C 0.54912 0.95943 0.8739 0.0
C1055 C 0.54947 0.00093 0.89313 0.0
C1056 C 0.56898 0.01981 0.89521 0.0
C1057 C 0.57435 0.0372 0.91526 0.0
C1058 C 0.55991 0.03461 0.93421 0.0
C1059 C 0.54079 0.0146 0.93294 0.0
C1060 C 0.53528 0.99779 0.91211 0.0
H1061 H 0.28252 0.32909 0.09792 0.0
H1062 H 0.22592 0.36693 0.10804 0.0
H1063 H 0.21469 0.34397 0.14236 0.0
H1064 H 0.25259 0.27161 0.11357 0.0
H1065 H 0.27888 0.2659 0.12995 0.0
H1066 H 0.28164 0.28414 0.1052 0.0
H1067 H 0.3098 0.31865 0.13369 0.0
H1068 H 0.30736 0.3004 0.15841 0.0
H1069 H 0.30014 0.32942 0.16178 0.0
H1070 H 0.20889 0.31612 0.17477 0.0
H1071 H 0.21285 0.29 0.20716 0.0
H1072 H 0.27563 0.27314 0.1789 0.0
C1073 C 0.26767 0.33241 0.1073 0.0
C1074 C 0.2549 0.3496 0.10019 0.0
C1075 C 0.23591 0.35382 0.11318 0.0
C1076 C 0.2293 0.34075 0.13257 0.0
C1077 C 0.24212 0.3238 0.139 0.0
C1078 C 0.26121 0.31993 0.12708 0.0
C1079 C 0.27311 0.30194 0.1388 0.0
C1080 C 0.27145 0.27957 0.1208 0.0
C1081 C 0.29914 0.31329 0.14876 0.0
C1082 C 0.25779 0.29638 0.15923 0.0
C1083 C 0.23971 0.30881 0.15866 0.0
C1084 C 0.22313 0.3065 0.17553 0.0
C1085 C 0.22555 0.29172 0.19392 0.0
C1086 C 0.24467 0.27989 0.19562 0.0
C1087 C 0.26076 0.28191 0.17783 0.0
H1088 H 0.18109 0.92096 0.04464 0.0
H1089 H 0.20527 0.94077 0.97613 0.0
H1090 H 0.17593 0.96649 0.97267 0.0
H1091 H 0.11813 0.91734 0.02423 0.0
H1092 H 0.11189 0.92751 0.05414 0.0
H1093 H 0.13511 0.91128 0.05092 0.0
H1094 H 0.16474 0.9463 0.07751 0.0
H1095 H 0.14162 0.96282 0.07996 0.0
H1096 H 0.16888 0.97596 0.06826 0.0
H1097 H 0.14471 0.9898 0.97672 0.0
H1098 H 0.10935 0.00566 0.98508 0.0
H1099 H 0.10442 0.97003 0.05057 0.0
C1100 C 0.18008 0.93074 0.02893 0.0
C1101 C 0.19534 0.92925 0.01069 0.0
C1102 C 0.19351 0.94179 0.99015 0.0
C1103 C 0.17711 0.95651 0.98817 0.0
C1104 C 0.16251 0.95796 0.00668 0.0
C1105 C 0.16339 0.94499 0.02637 0.0
C1106 C 0.14448 0.94841 0.04275 0.0
C1107 C 0.12633 0.92473 0.04301 0.0
C1108 C 0.15561 0.95902 0.06865 0.0
C1109 C 0.13339 0.96604 0.02965 0.0
C1110 C 0.14412 0.97125 0.00888 0.0
C1111 C 0.13624 0.986 0.99297 0.0
C1112 C 0.1163 0.99499 0.99791 0.0
C1113 C 0.10467 0.98934 0.01865 0.0
C1114 C 0.11358 0.97516 0.03504 0.0
H1115 H 0.6839 0.5796 0.97314 0.0
H1116 H 0.71355 0.59702 0.04891 0.0
H1117 H 0.67524 0.57761 0.06172 0.0
H1118 H 0.62596 0.58748 0.97914 0.0
H1119 H 0.61052 0.56184 0.9585 0.0
H1120 H 0.64056 0.57619 0.95468 0.0
H1121 H 0.65377 0.53609 0.95687 0.0
H1122 H 0.62368 0.52153 0.96049 0.0
H1123 H 0.64789 0.51971 0.98263 0.0
H1124 H 0.63306 0.5615 0.06672 0.0
H1125 H 0.59003 0.54335 0.06361 0.0
H1126 H 0.58766 0.53132 0.98508 0.0
C1127 C 0.68236 0.5788 0.99236 0.0
C1128 C 0.70172 0.58964 0.01007 0.0
C1129 C 0.69908 0.58847 0.03507 0.0
C1130 C 0.67734 0.57764 0.04254 0.0
C1131 C 0.65851 0.5674 0.02479 0.0
C1132 C 0.66086 0.56722 0.0002 0.0
C1133 C 0.63768 0.55438 0.9851 0.0
C1134 C 0.62812 0.57097 0.96837 0.0
C1135 C 0.64095 0.53157 0.9704 0.0
C1136 C 0.6218 0.5484 0.00508 0.0
C1137 C 0.63425 0.55629 0.02781 0.0
C1138 C 0.62323 0.55464 0.04909 0.0
C1139 C 0.59883 0.5444 0.04717 0.0
C1140 C 0.58584 0.53553 0.02421 0.0
C1141 C 0.59746 0.53742 0.00288 0.0
H1142 H 0.68081 0.43096 0.2995 0.0
H1143 H 0.67644 0.44374 0.22346 0.0
H1144 H 0.69352 0.40886 0.21329 0.0
H1145 H 0.73748 0.41158 0.29969 0.0
H1146 H 0.72944 0.38932 0.32006 0.0
H1147 H 0.71734 0.41578 0.32188 0.0
H1148 H 0.67456 0.38955 0.31619 0.0
H1149 H 0.68657 0.36307 0.31449 0.0
H1150 H 0.66545 0.36728 0.29016 0.0
H1151 H 0.71129 0.37303 0.21092 0.0
H1152 H 0.72637 0.33639 0.21654 0.0
H1153 H 0.71823 0.3455 0.29347 0.0
C1154 C 0.68345 0.42637 0.28074 0.0
C1155 C 0.67735 0.44015 0.26229 0.0
C1156 C 0.68116 0.43361 0.23796 0.0
C1157 C 0.69086 0.41381 0.23196 0.0
C1158 C 0.6969 0.40074 0.2505 0.0
C1159 C 0.69336 0.40664 0.27441 0.0
C1160 C 0.70139 0.38936 0.29072 0.0
C1161 C 0.72268 0.40228 0.30918 0.0
C1162 C 0.68075 0.37655 0.30363 0.0
C1163 C 0.70898 0.37236 0.27202 0.0
C1164 C 0.70678 0.37962 0.24903 0.0
C1165 C 0.71317 0.36715 0.22883 0.0
C1166 C 0.72182 0.34651 0.23216 0.0
C1167 C 0.72348 0.3384 0.25537 0.0
C1168 C 0.71706 0.35149 0.27553 0.0
H1169 H 0.82814 0.41035 0.48388 0.0
H1170 H 0.80674 0.45112 0.54442 0.0
H1171 H 0.84746 0.47595 0.55258 0.0
H1172 H 0.88225 0.40616 0.51008 0.0
H1173 H 0.89814 0.41029 0.48374 0.0
H1174 H 0.86654 0.39838 0.47987 0.0
H1175 H 0.86017 0.43204 0.4537 0.0
H1176 H 0.89189 0.44401 0.4573 0.0
H1177 H 0.8719 0.46278 0.46577 0.0
H1178 H 0.89097 0.49321 0.55713 0.0
H1179 H 0.93473 0.50145 0.55814 0.0
H1180 H 0.92838 0.44874 0.49553 0.0
C1181 C 0.83189 0.42488 0.49847 0.0
C1182 C 0.81427 0.42888 0.51343 0.0
C1183 C 0.81988 0.44793 0.5325 0.0
C1184 C 0.84296 0.46215 0.53729 0.0
C1185 C 0.86007 0.45736 0.52256 0.0
C1186 C 0.85479 0.43939 0.50336 0.0
C1187 C 0.87684 0.4369 0.4914 0.0
C1188 C 0.88119 0.41142 0.4913 0.0
C1189 C 0.8751 0.44437 0.46551 0.0
C1190 C 0.89563 0.45486 0.50818 0.0
C1191 C 0.88544 0.46707 0.52547 0.0
C1192 C 0.89914 0.4841 0.54343 0.0
C1193 C 0.92393 0.48867 0.54382 0.0
C1194 C 0.93473 0.47582 0.52676 0.0
C1195 C 0.92042 0.45884 0.50864 0.0
H1196 H 0.34214 0.08996 0.28377 0.0
H1197 H 0.34947 0.07276 0.20749 0.0
H1198 H 0.33059 0.10575 0.19689 0.0
H1199 H 0.28418 0.10286 0.27293 0.0
H1200 H 0.28927 0.12672 0.29746 0.0
H1201 H 0.30459 0.10261 0.29944 0.0
H1202 H 0.3453 0.13285 0.30628 0.0
H1203 H 0.33005 0.15703 0.3047 0.0
H1204 H 0.35249 0.15415 0.28472 0.0
H1205 H 0.30976 0.13961 0.19436 0.0
H1206 H 0.28983 0.17356 0.20068 0.0
H1207 H 0.29558 0.16795 0.2783 0.0
C1208 C 0.33993 0.09336 0.26491 0.0
C1209 C 0.34712 0.07894 0.2464 0.0
C1210 C 0.34379 0.08358 0.22185 0.0
C1211 C 0.33317 0.10226 0.21567 0.0
C1212 C 0.32573 0.11586 0.23424 0.0
C1213 C 0.32896 0.11168 0.25836 0.0
C1214 C 0.31849 0.12832 0.27465 0.0
C1215 C 0.29791 0.11429 0.28684 0.0
C1216 C 0.33774 0.14402 0.2937 0.0
C1217 C 0.30939 0.14278 0.25596 0.0
C1218 C 0.31351 0.1352 0.23273 0.0
C1219 C 0.30635 0.14571 0.21245 0.0
C1220 C 0.29489 0.16475 0.21612 0.0
C1221 C 0.29113 0.17304 0.23988 0.0
C1222 C 0.29829 0.16182 0.25994 0.0
H1223 H 0.3248 0.06078 0.48012 0.0
H1224 H 0.34589 0.12732 0.52766 0.0
H1225 H 0.3858 0.11906 0.53759 0.0
H1226 H 0.35604 0.02542 0.51497 0.0
H1227 H 0.36566 0.00997 0.48928 0.0
H1228 H 0.33866 0.02092 0.48558 0.0
H1229 H 0.35465 0.04491 0.45108 0.0
H1230 H 0.3816 0.03381 0.45447 0.0
H1231 H 0.3832 0.06552 0.4567 0.0
H1232 H 0.42297 0.1037 0.54294 0.0
H1233 H 0.4566 0.08335 0.54123 0.0
H1234 H 0.41275 0.02672 0.48972 0.0
C1235 C 0.33799 0.07362 0.49241 0.0
C1236 C 0.33248 0.09478 0.50308 0.0
C1237 C 0.34999 0.11119 0.51914 0.0
C1238 C 0.37262 0.10657 0.52498 0.0
C1239 C 0.37758 0.08555 0.51434 0.0
C1240 C 0.36097 0.06948 0.49809 0.0
C1241 C 0.37141 0.04867 0.48868 0.0
C1242 C 0.35708 0.02483 0.49502 0.0
C1243 C 0.3728 0.0482 0.4611 0.0
C1244 C 0.39617 0.05523 0.50275 0.0
C1245 C 0.39928 0.07666 0.51736 0.0
C1246 C 0.42073 0.08689 0.53163 0.0
C1247 C 0.43968 0.07519 0.53064 0.0
C1248 C 0.43705 0.05336 0.51572 0.0
C1249 C 0.41497 0.04314 0.5017 0.0
H1250 H 0.67742 0.5916 0.31652 0.0
H1251 H 0.70586 0.55362 0.2589 0.0
H1252 H 0.72931 0.5918 0.24931 0.0
H1253 H 0.66994 0.64033 0.28654 0.0
H1254 H 0.67949 0.66264 0.31247 0.0
H1255 H 0.66674 0.63227 0.3169 0.0
H1256 H 0.70423 0.63056 0.34545 0.0
H1257 H 0.71696 0.66112 0.34147 0.0
H1258 H 0.73319 0.63817 0.33494 0.0
H1259 H 0.74758 0.6338 0.24395 0.0
H1260 H 0.76121 0.6775 0.24456 0.0
H1261 H 0.72026 0.68884 0.30456 0.0
C1262 C 0.68899 0.59125 0.30224 0.0
C1263 C 0.68983 0.56951 0.28854 0.0
C1264 C 0.70506 0.56992 0.26986 0.0
C1265 C 0.71838 0.59156 0.26417 0.0
C1266 C 0.71657 0.61265 0.27751 0.0
C1267 C 0.70255 0.61272 0.29639 0.0
C1268 C 0.70337 0.63804 0.3074 0.0
C1269 C 0.6784 0.64364 0.3057 0.0
C1270 C 0.71514 0.64222 0.33388 0.0
C1271 C 0.71918 0.65217 0.29099 0.0
C1272 C 0.72689 0.6371 0.27416 0.0
C1273 C 0.74186 0.64579 0.25717 0.0
C1274 C 0.7495 0.67056 0.25763 0.0
C1275 C 0.74179 0.68628 0.27461 0.0
C1276 C 0.72627 0.67703 0.29136 0.0
H1277 H 0.86466 0.45046 0.81111 0.0
H1278 H 0.82227 0.47213 0.75212 0.0
H1279 H 0.80107 0.4303 0.74061 0.0
H1280 H 0.87394 0.39899 0.78314 0.0
H1281 H 0.86966 0.381 0.808 0.0
H1282 H 0.87923 0.41291 0.81418 0.0
H1283 H 0.84339 0.41459 0.83865 0.0
H1284 H 0.83384 0.38253 0.83285 0.0
H1285 H 0.81363 0.40124 0.82466 0.0
H1286 H 0.78814 0.38658 0.73229 0.0
H1287 H 0.78211 0.3427 0.72917 0.0
H1288 H 0.83246 0.34857 0.79348 0.0
C1289 C 0.85041 0.44637 0.79626 0.0
C1290 C 0.84487 0.4644 0.78261 0.0
C1291 C 0.82638 0.45857 0.76309 0.0
C1292 C 0.81433 0.43488 0.75635 0.0
C1293 C 0.82057 0.4174 0.76975 0.0
C1294 C 0.83776 0.42282 0.78965 0.0
C1295 C 0.84146 0.40039 0.80035 0.0
C1296 C 0.86763 0.39821 0.80145 0.0
C1297 C 0.83256 0.39964 0.82563 0.0
C1298 C 0.82538 0.38152 0.78194 0.0
C1299 C 0.81297 0.39182 0.76492 0.0
C1300 C 0.79735 0.37826 0.74576 0.0
C1301 C 0.79407 0.35343 0.74411 0.0
C1302 C 0.80674 0.34257 0.76118 0.0
C1303 C 0.82263 0.35669 0.78029 0.0
H1304 H 0.99825 0.8365 0.09381 0.0
H1305 H 0.07561 0.8513 0.10092 0.0
H1306 H 0.0763 0.88802 0.08141 0.0
H1307 H 0.99192 0.858 0.03416 0.0
H1308 H 0.96669 0.87065 0.04012 0.0
H1309 H 0.97175 0.84521 0.0548 0.0
H1310 H 0.97164 0.8684 0.097 0.0
H1311 H 0.96645 0.89383 0.08244 0.0
H1312 H 0.99163 0.89714 0.10518 0.0
H1313 H 0.06936 0.92209 0.06077 0.0
H1314 H 0.05509 0.95405 0.04172 0.0
H1315 H 0.982 0.91915 0.04816 0.0
C1316 C 0.01528 0.84755 0.09128 0.0
C1317 C 0.0369 0.841 0.09875 0.0
C1318 C 0.05884 0.85581 0.09507 0.0
C1319 C 0.05944 0.87674 0.08405 0.0
C1320 C 0.03793 0.88255 0.07657 0.0
C1321 C 0.01622 0.86854 0.07999 0.0
C1322 C 0.99583 0.87909 0.06983 0.0
C1323 C 0.98065 0.86223 0.04847 0.0
C1324 C 0.9805 0.88498 0.08982 0.0
C1325 C 0.00964 0.90154 0.06099 0.0
C1326 C 0.03387 0.90278 0.0647 0.0
C1327 C 0.05044 0.92133 0.05763 0.0
C1328 C 0.04211 0.93932 0.04663 0.0
C1329 C 0.01742 0.93894 0.0432 0.0
C1330 C 0.00096 0.91975 0.05045 0.0
H1331 H 0.92358 0.26675 0.86651 0.0
H1332 H 0.94574 0.21884 0.81261 0.0
H1333 H 0.90943 0.21849 0.78511 0.0
H1334 H 0.86124 0.24087 0.85669 0.0
H1335 H 0.8526 0.26917 0.8609 0.0
H1336 H 0.88033 0.26556 0.87609 0.0
H1337 H 0.90307 0.30164 0.85673 0.0
H1338 H 0.87542 0.30532 0.84141 0.0
H1339 H 0.89959 0.30156 0.8241 0.0
H1340 H 0.8704 0.2233 0.76376 0.0
H1341 H 0.83174 0.23261 0.7503 0.0
H1342 H 0.83583 0.27766 0.81836 0.0
C1343 C 0.92084 0.2561 0.84896 0.0
C1344 C 0.93748 0.24277 0.84173 0.0
C1345 C 0.93324 0.22922 0.81852 0.0
C1346 C 0.91268 0.22891 0.80279 0.0
C1347 C 0.89668 0.24234 0.81053 0.0
C1348 C 0.90057 0.2557 0.83305 0.0
C1349 C 0.88078 0.26869 0.83706 0.0
C1350 C 0.86798 0.26058 0.85898 0.0
C1351 C 0.89029 0.29592 0.83999 0.0
C1352 C 0.86492 0.26034 0.81336 0.0
C1353 C 0.87442 0.24523 0.79824 0.0
C1354 C 0.86283 0.23516 0.77543 0.0
C1355 C 0.8409 0.24059 0.76794 0.0
C1356 C 0.83078 0.25591 0.78327 0.0
C1357 C 0.84309 0.26594 0.80621 0.0
H1358 H 0.5271 0.20096 0.5711 0.0
H1359 H 0.55175 0.20125 0.64735 0.0
H1360 H 0.55532 0.15953 0.63972 0.0
H1361 H 0.49042 0.14414 0.56437 0.0
H1362 H 0.49631 0.13517 0.53397 0.0
H1363 H 0.49939 0.16632 0.54413 0.0
H1364 H 0.54292 0.17499 0.53346 0.0
H1365 H 0.53994 0.14375 0.52332 0.0
H1366 H 0.56366 0.15878 0.54636 0.0
H1367 H 0.55093 0.11725 0.62619 0.0
H1368 H 0.53831 0.07567 0.6069 0.0
H1369 H 0.51694 0.10096 0.53884 0.0
C1370 C 0.53384 0.1923 0.5859 0.0
C1371 C 0.53929 0.20423 0.60978 0.0
C1372 C 0.54749 0.19231 0.62894 0.0
C1373 C 0.54974 0.16868 0.62478 0.0
C1374 C 0.54372 0.15709 0.60129 0.0
C1375 C 0.53598 0.16836 0.58207 0.0
C1376 C 0.52837 0.15075 0.55923 0.0
C1377 C 0.50207 0.149 0.54989 0.0
C1378 C 0.5447 0.15747 0.53942 0.0
C1379 C 0.53207 0.12783 0.56901 0.0
C1380 C 0.54133 0.1321 0.59324 0.0
C1381 C 0.54419 0.11366 0.60707 0.0
C1382 C 0.53692 0.09013 0.59603 0.0
C1383 C 0.52705 0.08527 0.57139 0.0
C1384 C 0.52512 0.10434 0.55753 0.0
H1385 H 0.57832 0.72618 0.36158 0.0
H1386 H 0.55429 0.78287 0.32707 0.0
H1387 H 0.58948 0.78857 0.30419 0.0
H1388 H 0.63986 0.75047 0.36863 0.0
H1389 H 0.64855 0.7227 0.3607 0.0
H1390 H 0.62112 0.72256 0.37376 0.0
H1391 H 0.59769 0.69381 0.33681 0.0
H1392 H 0.62512 0.69375 0.32371 0.0
H1393 H 0.60067 0.70193 0.30645 0.0
H1394 H 0.62869 0.78974 0.2871 0.0
H1395 H 0.66777 0.78451 0.27524 0.0
H1396 H 0.66478 0.72564 0.31931 0.0
C1397 C 0.58045 0.73963 0.34904 0.0
C1398 C 0.56372 0.75411 0.34602 0.0
C1399 C 0.56688 0.77146 0.3294 0.0
C1400 C 0.58681 0.77488 0.31642 0.0
C1401 C 0.6031 0.76041 0.31987 0.0
C1402 C 0.59992 0.74285 0.33545 0.0
C1403 C 0.61983 0.72943 0.3355 0.0
C1404 C 0.63313 0.73143 0.36117 0.0
C1405 C 0.61025 0.70317 0.32499 0.0
C1406 C 0.63523 0.74291 0.31844 0.0
C1407 C 0.62523 0.7606 0.30943 0.0
C1408 C 0.63655 0.77572 0.29376 0.0
C1409 C 0.65869 0.77259 0.28709 0.0
C1410 C 0.66921 0.75456 0.29617 0.0
C1411 C 0.65718 0.73952 0.31194 0.0
H1412 H 0.02221 0.21865 0.46476 0.0
H1413 H 0.00474 0.18363 0.39075 0.0
H1414 H -0.00041 0.14435 0.40621 0.0
H1415 H 0.05706 0.17771 0.48541 0.0
H1416 H 0.04755 0.17833 0.51547 0.0
H1417 H 0.04847 0.20389 0.49887 0.0
H1418 H 0.004 0.2023 0.50388 0.0
H1419 H 0.0029 0.17661 0.52037 0.0
H1420 H 0.98218 0.17511 0.49366 0.0
H1421 H 0.99499 0.10912 0.42916 0.0
H1422 H 0.99671 0.0794 0.45806 0.0
H1423 H 0.02069 0.13642 0.51738 0.0
C1424 C 0.01719 0.20267 0.45189 0.0
C1425 C 0.0137 0.20414 0.42657 0.0
C1426 C 0.00753 0.1829 0.41022 0.0
C1427 C 0.00441 0.16051 0.41881 0.0
C1428 C 0.00787 0.15962 0.44381 0.0
C1429 C 0.01452 0.18005 0.46015 0.0
C1430 C 0.01852 0.17385 0.486 0.0
C1431 C 0.04444 0.18405 0.49708 0.0
C1432 C 0.00085 0.18249 0.50191 0.0
C1433 C 0.01321 0.1468 0.48152 0.0
C1434 C 0.00658 0.13905 0.45708 0.0
C1435 C 0.00024 0.11492 0.44834 0.0
C1436 C 0.00112 0.09819 0.46495 0.0
C1437 C 0.00878 0.10564 0.48997 0.0
C1438 C 0.01479 0.13028 0.49836 0.0
H1439 H 0.59106 0.26852 0.15921 0.0
H1440 H 0.55415 0.23247 0.21466 0.0
H1441 H 0.59285 0.22907 0.23559 0.0
H1442 H 0.63373 0.23397 0.15431 0.0
H1443 H 0.65769 0.25845 0.15039 0.0
H1444 H 0.62736 0.25964 0.14092 0.0
H1445 H 0.63232 0.29979 0.16826 0.0
H1446 H 0.66285 0.29898 0.17738 0.0
H1447 H 0.6429 0.30171 0.20011 0.0
H1448 H 0.63622 0.22837 0.24938 0.0
H1449 H 0.6801 0.23306 0.25605 0.0
H1450 H 0.68686 0.26821 0.19028 0.0
C1451 C 0.59106 0.26017 0.17592 0.0
C1452 C 0.56962 0.25075 0.1853 0.0
C1453 C 0.57042 0.23999 0.20726 0.0
C1454 C 0.59229 0.23784 0.21918 0.0
C1455 C 0.61308 0.2467 0.20896 0.0
C1456 C 0.61258 0.25794 0.188 0.0
C1457 C 0.6372 0.26579 0.18045 0.0
C1458 C 0.63909 0.25373 0.15502 0.0
C1459 C 0.64423 0.29319 0.18163 0.0
C1460 C 0.65164 0.2567 0.20006 0.0
C1461 C 0.63758 0.2459 0.21652 0.0
C1462 C 0.64738 0.23679 0.23657 0.0
C1463 C 0.67226 0.2394 0.24014 0.0
C1464 C 0.68687 0.25082 0.22359 0.0
C1465 C 0.67623 0.25911 0.20313 0.0
H1466 H 0.52693 0.8579 0.9149 0.0
H1467 H 0.52353 0.8133 0.9741 0.0
H1468 H 0.51945 0.84758 0.00237 0.0
H1469 H 0.561 0.91199 0.95053 0.0
H1470 H 0.54557 0.93108 0.93437 0.0
H1471 H 0.5489 0.90319 0.91915 0.0
H1472 H 0.50312 0.89047 0.90816 0.0
H1473 H 0.49973 0.91828 0.92349 0.0
H1474 H 0.48392 0.89037 0.93205 0.0
H1475 H 0.51664 0.88698 0.02425 0.0
H1476 H 0.5144 0.92847 0.03796 0.0
H1477 H 0.51693 0.94608 0.96376 0.0
C1478 C 0.52542 0.85528 0.93382 0.0
C1479 C 0.52562 0.8329 0.94231 0.0
C1480 C 0.52358 0.83031 0.96722 0.0
C1481 C 0.52119 0.84964 0.98339 0.0
C1482 C 0.5209 0.87139 0.97433 0.0
C1483 C 0.52298 0.87431 0.95013 0.0
C1484 C 0.5221 0.89948 0.94494 0.0
C1485 C 0.5458 0.91218 0.93677 0.0
C1486 C 0.50095 0.89964 0.92605 0.0
C1487 C 0.51867 0.91015 0.96993 0.0
C1488 C 0.51842 0.89379 0.98672 0.0
C1489 C 0.51669 0.8999 0.01126 0.0
C1490 C 0.51547 0.92345 0.01887 0.0
C1491 C 0.5155 0.94037 0.0019 0.0
C1492 C 0.51675 0.93349 0.97709 0.0
H1493 H 0.9155 0.72113 0.67111 0.0
H1494 H 0.95831 0.78906 0.70483 0.0
H1495 H 0.92433 0.79637 0.72677 0.0
H1496 H 0.8621 0.74229 0.66029 0.0
H1497 H 0.84289 0.71465 0.66538 0.0
H1498 H 0.87116 0.7144 0.65425 0.0
H1499 H 0.88288 0.69205 0.69046 0.0
H1500 H 0.85467 0.69243 0.70175 0.0
H1501 H 0.88202 0.70479 0.72118 0.0
H1502 H 0.88487 0.79539 0.74532 0.0
H1503 H 0.8427 0.78862 0.75444 0.0
H1504 H 0.82627 0.72285 0.70553 0.0
C1505 C 0.91765 0.73747 0.68323 0.0
C1506 C 0.93928 0.75453 0.68656 0.0
C1507 C 0.94166 0.77589 0.70218 0.0
C1508 C 0.92257 0.78006 0.71476 0.0
C1509 C 0.90128 0.7628 0.71111 0.0
C1510 C 0.8987 0.7421 0.6954 0.0
C1511 C 0.87365 0.72716 0.69306 0.0
C1512 C 0.86175 0.72448 0.66669 0.0
C1513 C 0.8733 0.70266 0.70216 0.0
C1514 C 0.86247 0.7426 0.70989 0.0
C1515 C 0.87864 0.7629 0.72054 0.0
C1516 C 0.87206 0.77961 0.73695 0.0
C1517 C 0.84819 0.77563 0.7421 0.0
C1518 C 0.83135 0.75541 0.73044 0.0
C1519 C 0.83876 0.73865 0.71446 0.0
H1520 H 0.07795 0.99022 0.85696 0.0
H1521 H 0.11111 0.06565 0.86285 0.0
H1522 H 0.09671 0.07179 0.90291 0.0
H1523 H 0.02492 0.99865 0.88283 0.0
H1524 H 0.02166 0.97259 0.89898 0.0
H1525 H 0.03601 0.9732 0.87147 0.0
H1526 H 0.07344 0.96377 0.89449 0.0
H1527 H 0.05908 0.96294 0.92201 0.0
H1528 H 0.08775 0.98258 0.92178 0.0
H1529 H 0.07975 0.07016 0.94213 0.0
H1530 H 0.05878 0.06127 0.97806 0.0
H1531 H 0.0326 0.98775 0.94638 0.0
C1532 C 0.0823 0.00793 0.86688 0.0
C1533 C 0.09575 0.0275 0.85692 0.0
C1534 C 0.10079 0.05048 0.87016 0.0
C1535 C 0.09276 0.05413 0.89295 0.0
C1536 C 0.07927 0.03468 0.90216 0.0
C1537 C 0.07383 0.01204 0.88958 0.0
C1538 C 0.05787 0.99465 0.90335 0.0
C1539 C 0.03368 0.98416 0.88825 0.0
C1540 C 0.07028 0.97482 0.91085 0.0
C1541 C 0.05521 0.01115 0.92547 0.0
C1542 C 0.06807 0.03406 0.92445 0.0
C1543 C 0.0694 0.05237 0.94305 0.0
C1544 C 0.0574 0.04716 0.96336 0.0
C1545 C 0.04372 0.02399 0.96475 0.0
C1546 C 0.04247 0.00575 0.94545 0.0
H1547 H 0.7633 0.36451 0.59073 0.0
H1548 H 0.73944 0.29975 0.54067 0.0
H1549 H 0.74416 0.27552 0.57485 0.0
H1550 H 0.80811 0.34235 0.62678 0.0
H1551 H 0.80336 0.35827 0.65475 0.0
H1552 H 0.79863 0.37022 0.62624 0.0
H1553 H 0.7554 0.37192 0.63439 0.0
H1554 H 0.76022 0.36043 0.66303 0.0
H1555 H 0.73557 0.34528 0.64105 0.0
H1556 H 0.75065 0.25888 0.61501 0.0
H1557 H 0.75589 0.25121 0.65828 0.0
H1558 H 0.77568 0.32742 0.68045 0.0
C1559 C 0.75892 0.34522 0.58698 0.0
C1560 C 0.75084 0.33383 0.56333 0.0
C1561 C 0.74569 0.30863 0.55885 0.0
C1562 C 0.7484 0.29482 0.57804 0.0
C1563 C 0.75674 0.3067 0.60121 0.0
C1564 C 0.76196 0.33134 0.60566 0.0
C1565 C 0.77048 0.33994 0.63204 0.0
C1566 C 0.7967 0.35349 0.63512 0.0
C1567 C 0.75444 0.35527 0.64327 0.0
C1568 C 0.7679 0.31626 0.64209 0.0
C1569 C 0.76057 0.29724 0.62404 0.0
C1570 C 0.75658 0.2736 0.62927 0.0
C1571 C 0.75965 0.26941 0.65372 0.0
C1572 C 0.76609 0.28883 0.67223 0.0
C1573 C 0.77068 0.3124 0.66638 0.0
H1574 H 0.43887 0.00165 0.36104 0.0
H1575 H 0.45741 0.0774 0.35423 0.0
H1576 H 0.48406 0.08379 0.39332 0.0
H1577 H 0.43849 0.00758 0.42687 0.0
H1578 H 0.44979 0.9809 0.42943 0.0
H1579 H 0.43165 0.98376 0.4022 0.0
H1580 H 0.46518 0.97547 0.37665 0.0
H1581 H 0.48371 0.97332 0.40386 0.0
H1582 H 0.49461 0.99436 0.38317 0.0
H1583 H 0.51093 0.08021 0.43266 0.0
H1584 H 0.53057 0.06793 0.46984 0.0
H1585 H 0.49315 0.99466 0.44809 0.0
C1586 C 0.44837 0.01965 0.36787 0.0
C1587 C 0.44642 0.03902 0.35476 0.0
C1588 C 0.45876 0.06238 0.36427 0.0
C1589 C 0.47399 0.06608 0.38627 0.0
C1590 C 0.47619 0.04624 0.39835 0.0
C1591 C 0.46323 0.02359 0.38957 0.0
C1592 C 0.46824 0.00501 0.40547 0.0
C1593 C 0.44571 0.99366 0.41666 0.0
C1594 C 0.47855 0.98593 0.39144 0.0
C1595 C 0.48662 0.02048 0.42438 0.0
C1596 C 0.49114 0.04425 0.42026 0.0
C1597 C 0.50749 0.06164 0.43597 0.0
C1598 C 0.5188 0.05454 0.45678 0.0
C1599 C 0.5135 0.03037 0.46139 0.0
C1600 C 0.49766 0.01323 0.44473 0.0
H1601 H 0.80028 0.68497 0.07955 0.0
H1602 H 0.73179 0.69779 0.05223 0.0
H1603 H 0.72715 0.71529 0.09345 0.0
H1604 H 0.78434 0.66532 0.13301 0.0
H1605 H 0.81195 0.67922 0.15141 0.0
H1606 H 0.81177 0.67154 0.11926 0.0
H1607 H 0.83142 0.71534 0.11439 0.0
H1608 H 0.83201 0.72312 0.14668 0.0
H1609 H 0.81784 0.73914 0.12543 0.0
H1610 H 0.72841 0.72757 0.13932 0.0
H1611 H 0.73635 0.73448 0.1845 0.0
H1612 H 0.80307 0.71179 0.18063 0.0
C1613 C 0.78462 0.69212 0.08202 0.0
C1614 C 0.76649 0.69016 0.06259 0.0
C1615 C 0.74612 0.69945 0.06672 0.0
C1616 C 0.74326 0.7093 0.09013 0.0
C1617 C 0.76107 0.71 0.10912 0.0
C1618 C 0.78154 0.70199 0.10515 0.0
C1619 C 0.79736 0.70315 0.12868 0.0
C1620 C 0.80157 0.67833 0.13335 0.0
C1621 C 0.82106 0.72127 0.12879 0.0
C1622 C 0.78216 0.71201 0.14667 0.0
C1623 C 0.76149 0.71636 0.13518 0.0
C1624 C 0.74467 0.72443 0.14843 0.0
C1625 C 0.74927 0.72828 0.17402 0.0
C1626 C 0.77022 0.72352 0.18596 0.0
C1627 C 0.78677 0.71534 0.172 0.0
H1628 H 0.0862 0.03435 0.72121 0.0
H1629 H 0.08469 0.95853 0.71676 0.0
H1630 H 0.06654 0.95345 0.67408 0.0
H1631 H 0.03065 0.03064 0.6778 0.0
H1632 H 0.04417 0.05708 0.66486 0.0
H1633 H 0.05224 0.05403 0.6964 0.0
H1634 H 0.09662 0.06103 0.68879 0.0
H1635 H 0.0887 0.06372 0.65723 0.0
H1636 H 0.10551 0.04195 0.6654 0.0
H1637 H 0.05559 0.95736 0.63108 0.0
H1638 H 0.05073 0.96975 0.59001 0.0
H1639 H 0.05867 0.04316 0.62065 0.0
C1640 C 0.08099 0.01655 0.71153 0.0
C1641 C 0.08627 0.99669 0.72237 0.0
C1642 C 0.08036 0.97383 0.70886 0.0
C1643 C 0.07008 0.97081 0.68463 0.0
C1644 C 0.06595 0.99086 0.67411 0.0
C1645 C 0.07103 0.0133 0.6871 0.0
C1646 C 0.06761 0.03224 0.67054 0.0
C1647 C 0.04746 0.0442 0.67784 0.0
C1648 C 0.091 0.05082 0.67049 0.0
C1649 C 0.06055 0.01702 0.64613 0.0
C1650 C 0.05947 0.99317 0.6488 0.0
C1651 C 0.05556 0.97582 0.62885 0.0
C1652 C 0.05263 0.98296 0.60559 0.0
C1653 C 0.05323 0.00711 0.60233 0.0
C1654 C 0.05727 0.02444 0.62282 0.0
H1655 H 0.75097 0.29984 0.44079 0.0
H1656 H 0.7242 0.36059 0.41881 0.0
H1657 H 0.71955 0.34321 0.37584 0.0
H1658 H 0.7855 0.29467 0.39616 0.0
H1659 H 0.77967 0.26254 0.39093 0.0
H1660 H 0.77646 0.27689 0.42019 0.0
H1661 H 0.73283 0.25312 0.41754 0.0
H1662 H 0.73598 0.23826 0.38837 0.0
H1663 H 0.71221 0.25389 0.39136 0.0
H1664 H 0.73029 0.32686 0.33744 0.0
H1665 H 0.74615 0.30695 0.30397 0.0
H1666 H 0.75837 0.25164 0.34811 0.0
C1667 C 0.74331 0.30898 0.42693 0.0
C1668 C 0.73797 0.33151 0.43283 0.0
C1669 C 0.72818 0.34322 0.41449 0.0
C1670 C 0.72552 0.33349 0.39012 0.0
C1671 C 0.732 0.31174 0.38473 0.0
C1672 C 0.73993 0.29916 0.40261 0.0
C1673 C 0.74752 0.27717 0.39172 0.0
C1674 C 0.77384 0.27788 0.40026 0.0
C1675 C 0.73115 0.25425 0.39759 0.0
C1676 C 0.74396 0.28015 0.36491 0.0
C1677 C 0.73523 0.30041 0.36147 0.0
C1678 C 0.73538 0.31002 0.33944 0.0
C1679 C 0.7442 0.29842 0.32037 0.0
C1680 C 0.7515 0.27671 0.32279 0.0
C1681 C 0.75136 0.26736 0.34538 0.0
H1682 H 0.40868 0.01556 0.19364 0.0
H1683 H 0.47181 0.02627 0.24575 0.0
H1684 H 0.49574 0.01958 0.21189 0.0
H1685 H 0.42253 0.96843 0.15473 0.0
H1686 H 0.41027 0.97809 0.12731 0.0
H1687 H 0.39837 0.9838 0.15562 0.0
H1688 H 0.40638 0.02915 0.15105 0.0
H1689 H 0.41787 0.02345 0.12256 0.0
H1690 H 0.43591 0.04457 0.14643 0.0
H1691 H 0.51235 0.01122 0.17178 0.0
H1692 H 0.52061 0.00517 0.12878 0.0
H1693 H 0.44604 0.00016 0.10459 0.0
C1694 C 0.42757 0.01669 0.19805 0.0
C1695 C 0.43844 0.02146 0.22228 0.0
C1696 C 0.46317 0.02257 0.22724 0.0
C1697 C 0.47684 0.01873 0.20818 0.0
C1698 C 0.46536 0.01361 0.18449 0.0
C1699 C 0.44129 0.01271 0.17945 0.0
C1700 C 0.43302 0.00702 0.15261 0.0
C1701 C 0.41499 0.9829 0.14726 0.0
C1702 C 0.42271 0.02726 0.14259 0.0
C1703 C 0.45634 0.0055 0.14315 0.0
C1704 C 0.47479 0.00895 0.16173 0.0
C1705 C 0.49803 0.00843 0.15711 0.0
C1706 C 0.50253 0.00485 0.13276 0.0
C1707 C 0.48389 0.00225 0.1137 0.0
C1708 C 0.46055 0.00219 0.11899 0.0
H1709 H 0.78527 0.70171 0.93445 0.0
H1710 H 0.71959 0.64857 0.91408 0.0
H1711 H 0.71598 0.66249 0.87351 0.0
H1712 H 0.76665 0.74804 0.90754 0.0
H1713 H 0.79431 0.76066 0.89627 0.0
H1714 H 0.79454 0.74446 0.92252 0.0
H1715 H 0.81769 0.71598 0.90137 0.0
H1716 H 0.81788 0.73236 0.87518 0.0
H1717 H 0.80601 0.70059 0.87163 0.0
H1718 H 0.71749 0.68286 0.83703 0.0
H1719 H 0.72353 0.70942 0.80514 0.0
H1720 H 0.78677 0.75274 0.84849 0.0
C1721 C 0.77055 0.69272 0.9211 0.0
C1722 C 0.75277 0.67389 0.9271 0.0
C1723 C 0.73338 0.66288 0.90962 0.0
C1724 C 0.73123 0.67063 0.88657 0.0
C1725 C 0.74853 0.68963 0.88134 0.0
C1726 C 0.76791 0.70058 0.89791 0.0
C1727 C 0.78277 0.72186 0.88785 0.0
C1728 C 0.78466 0.74513 0.90455 0.0
C1729 C 0.80756 0.71743 0.88377 0.0
C1730 C 0.76797 0.72175 0.8637 0.0
C1731 C 0.74871 0.70253 0.86026 0.0
C1732 C 0.73247 0.698 0.83948 0.0
C1733 C 0.73602 0.71337 0.82152 0.0
C1734 C 0.75533 0.73351 0.8245 0.0
C1735 C 0.77155 0.73782 0.84597 0.0
H1736 H 0.84769 0.09643 0.05088 0.0
H1737 H 0.82585 0.09722 0.97421 0.0
H1738 H 0.85896 0.07807 0.9636 0.0
H1739 H 0.91091 0.11152 0.04554 0.0
H1740 H 0.91794 0.09359 0.069 0.0
H1741 H 0.89236 0.10684 0.06986 0.0
H1742 H 0.86551 0.06497 0.07138 0.0
H1743 H 0.89099 0.05163 0.07021 0.0
H1744 H 0.86539 0.0412 0.04784 0.0
H1745 H 0.89378 0.05698 0.96205 0.0
H1746 H 0.93011 0.04079 0.96969 0.0
H1747 H 0.92909 0.05657 0.04746 0.0
C1748 C 0.84988 0.09251 0.03185 0.0
C1749 C 0.83425 0.09788 0.01328 0.0
C1750 C 0.83779 0.09309 0.9886 0.0
C1751 C 0.85639 0.08216 0.98247 0.0
C1752 C 0.87136 0.07672 0.00131 0.0
C1753 C 0.86853 0.08222 0.02551 0.0
C1754 C 0.88755 0.0758 0.04246 0.0
C1755 C 0.90311 0.09828 0.05759 0.0
C1756 C 0.8767 0.05729 0.05893 0.0
C1757 C 0.90122 0.06519 0.02409 0.0
C1758 C 0.89166 0.06569 0.00043 0.0
C1759 C 0.90146 0.0566 0.9805 0.0
C1760 C 0.92189 0.04728 0.98497 0.0
C1761 C 0.93221 0.04748 0.00912 0.0
C1762 C 0.92153 0.05626 0.02879 0.0
H1763 H 0.34986 0.4405 0.07007 0.0
H1764 H 0.32568 0.42227 0.99314 0.0
H1765 H 0.36463 0.44379 0.98301 0.0
H1766 H 0.3869 0.5 0.06653 0.0
H1767 H 0.41015 0.49648 0.08898 0.0
H1768 H 0.37977 0.48126 0.09033 0.0
H1769 H 0.39286 0.44085 0.08955 0.0
H1770 H 0.42324 0.45595 0.08813 0.0
H1771 H 0.40883 0.43189 0.06514 0.0
H1772 H 0.40659 0.46421 0.98102 0.0
H1773 H 0.44943 0.48345 0.9873 0.0
H1774 H 0.44736 0.48962 0.06544 0.0
C1775 C 0.3527 0.44166 0.05116 0.0
C1776 C 0.33473 0.43031 0.03228 0.0
C1777 C 0.33918 0.4313 0.00773 0.0
C1778 C 0.36123 0.4434 0.00184 0.0
C1779 C 0.37873 0.45427 0.02076 0.0
C1780 C 0.37481 0.45357 0.04494 0.0
C1781 C 0.39729 0.46553 0.06162 0.0
C1782 C 0.39328 0.48711 0.07782 0.0
C1783 C 0.40607 0.44748 0.07701 0.0
C1784 C 0.41427 0.47328 0.04304 0.0
C1785 C 0.40315 0.46639 0.01959 0.0
C1786 C 0.41539 0.47008 -0.00073 0.0
C1787 C 0.43966 0.48103 0.00298 0.0
C1788 C 0.45137 0.48849 0.02676 0.0
C1789 C 0.43852 0.48469 0.04707 0.0
H1790 H 0.3362 0.5724 0.77075 0.0
H1791 H 0.35422 0.57112 0.69644 0.0
H1792 H 0.34169 0.60898 0.69265 0.0
H1793 H 0.28278 0.59532 0.75832 0.0
H1794 H 0.28656 0.61396 0.78693 0.0
H1795 H 0.29812 0.58717 0.78496 0.0
H1796 H 0.34012 0.61186 0.8019 0.0
H1797 H 0.32867 0.6387 0.80399 0.0
H1798 H 0.3535 0.63699 0.78694 0.0
H1799 H 0.32856 0.6464 0.6963 0.0
H1800 H 0.31289 0.68193 0.70646 0.0
H1801 H 0.29943 0.65969 0.77745 0.0
C1802 C 0.33757 0.58027 0.75381 0.0
C1803 C 0.34621 0.56889 0.73384 0.0
C1804 C 0.34752 0.57947 0.71185 0.0
C1805 C 0.34053 0.60101 0.70954 0.0
C1806 C 0.33184 0.61167 0.72927 0.0
C1807 C 0.33004 0.60173 0.75095 0.0
C1808 C 0.31896 0.61682 0.76872 0.0
C1809 C 0.29519 0.60246 0.77511 0.0
C1810 C 0.33636 0.62668 0.79175 0.0
C1811 C 0.31504 0.63672 0.75356 0.0
C1812 C 0.32291 0.63326 0.73099 0.0
C1813 C 0.32212 0.64922 0.7138 0.0
C1814 C 0.31311 0.66938 0.71975 0.0
C1815 C 0.30459 0.67348 0.74254 0.0
C1816 C 0.30541 0.6568 0.75971 0.0
H1817 H 0.20777 0.58113 0.54681 0.0
H1818 H 0.2039 0.5976 0.4719 0.0
H1819 H 0.16034 0.58457 0.46789 0.0
H1820 H 0.15582 0.52787 0.53669 0.0
H1821 H 0.14603 0.53522 0.5658 0.0
H1822 H 0.17728 0.54258 0.56195 0.0
H1823 H 0.17881 0.58671 0.57742 0.0
H1824 H 0.1475 0.57962 0.58082 0.0
H1825 H 0.15894 0.60247 0.56219 0.0
H1826 H 0.11836 0.57692 0.47347 0.0
H1827 H 0.07823 0.56855 0.48648 0.0
H1828 H 0.10717 0.55405 0.55711 0.0
C1829 C 0.19777 0.58108 0.52932 0.0
C1830 C 0.20919 0.5903 0.50963 0.0
C1831 C 0.19552 0.59058 0.48719 0.0
C1832 C 0.17076 0.58325 0.48473 0.0
C1833 C 0.15994 0.5754 0.50477 0.0
C1834 C 0.17285 0.57368 0.52649 0.0
C1835 C 0.15635 0.56587 0.54549 0.0
C1836 C 0.15903 0.54143 0.55291 0.0
C1837 C 0.16066 0.5848 0.56779 0.0
C1838 C 0.13227 0.56423 0.53115 0.0
C1839 C 0.13499 0.56997 0.50776 0.0
C1840 C 0.11588 0.57182 0.49151 0.0
C1841 C 0.09322 0.56725 0.49914 0.0
C1842 C 0.08976 0.56052 0.52265 0.0
C1843 C 0.10947 0.55888 0.53892 0.0
H1844 H 0.69375 0.94629 0.79487 0.0
H1845 H 0.65238 0.92937 0.72384 0.0
H1846 H 0.66025 0.88894 0.72082 0.0
H1847 H 0.73925 0.9171 0.78047 0.0
H1848 H 0.74344 0.90528 0.80914 0.0
H1849 H 0.73227 0.93215 0.80793 0.0
H1850 H 0.69515 0.91299 0.8279 0.0
H1851 H 0.70635 0.88612 0.82939 0.0
H1852 H 0.67699 0.88465 0.81436 0.0
H1853 H 0.67463 0.85299 0.72297 0.0
H1854 H 0.69486 0.82079 0.7301 0.0
H1855 H 0.72871 0.85884 0.79995 0.0
C1856 C 0.68606 0.93375 0.77902 0.0
C1857 C 0.67236 0.94059 0.75957 0.0
C1858 C 0.66284 0.92419 0.73884 0.0
C1859 C 0.66714 0.90124 0.73702 0.0
C1860 C 0.68108 0.89503 0.7561 0.0
C1861 C 0.6904 0.91056 0.77679 0.0
C1862 C 0.70616 0.89933 0.79363 0.0
C1863 C 0.7318 0.91437 0.79804 0.0
C1864 C 0.69552 0.89555 0.81775 0.0
C1865 C 0.70486 0.87558 0.77858 0.0
C1866 C 0.68991 0.87361 0.75724 0.0
C1867 C 0.68615 0.85408 0.73973 0.0
C1868 C 0.69788 0.83586 0.74403 0.0
C1869 C 0.71339 0.83715 0.7657 0.0
C1870 C 0.7169 0.85731 0.7833 0.0
H1871 H 0.70594 0.93782 0.50988 0.0
H1872 H 0.71486 0.92985 0.58697 0.0
H1873 H 0.67793 0.94362 0.59234 0.0
H1874 H 0.68509 0.99248 0.51777 0.0
H1875 H 0.66374 0.98586 0.49094 0.0
H1876 H 0.68988 0.97332 0.492 0.0
H1877 H 0.66332 0.93081 0.48213 0.0
H1878 H 0.63709 0.94322 0.48093 0.0
H1879 H 0.64021 0.92089 0.50101 0.0
H1880 H 0.64177 0.95899 0.59056 0.0
H1881 H 0.60741 0.97675 0.58221 0.0
H1882 H 0.62045 0.97762 0.50628 0.0
C1883 C 0.69989 0.93885 0.52777 0.0
C1884 C 0.71327 0.93283 0.5481 0.0
C1885 C 0.70502 0.9346 0.57127 0.0
C1886 C 0.68398 0.94228 0.57448 0.0
C1887 C 0.67142 0.94852 0.55439 0.0
C1888 C 0.67894 0.94711 0.53146 0.0
C1889 C 0.66241 0.95644 0.51351 0.0
C1890 C 0.6761 0.97833 0.50293 0.0
C1891 C 0.65002 0.93665 0.49319 0.0
C1892 C 0.64466 0.96338 0.53008 0.0
C1893 C 0.65031 0.95833 0.55348 0.0
C1894 C 0.63712 0.96307 0.57233 0.0
C1895 C 0.61757 0.97328 0.56732 0.0
C1896 C 0.61112 0.97885 0.54358 0.0
C1897 C 0.62495 0.97379 0.52465 0.0
H1898 H 0.36432 0.42077 0.75976 0.0
H1899 H 0.30636 0.44832 0.72591 0.0
H1900 H 0.2799 0.40807 0.7232 0.0
H1901 H 0.35023 0.36345 0.72366 0.0
H1902 H 0.35887 0.34794 0.74861 0.0
H1903 H 0.37295 0.37876 0.74756 0.0
H1904 H 0.36111 0.38974 0.7904 0.0
H1905 H 0.34706 0.35896 0.7916 0.0
H1906 H 0.33028 0.38187 0.7958 0.0
H1907 H 0.25961 0.36456 0.72562 0.0
H1908 H 0.24755 0.32203 0.73223 0.0
H1909 H 0.31967 0.32379 0.7635 0.0
C1910 C 0.34605 0.4185 0.7518 0.0
C1911 C 0.33738 0.43783 0.7432 0.0
C1912 C 0.31339 0.43384 0.7327 0.0
C1913 C 0.29826 0.41104 0.73107 0.0
C1914 C 0.30748 0.39243 0.73981 0.0
C1915 C 0.33089 0.39598 0.74985 0.0
C1916 C 0.33664 0.37324 0.75797 0.0
C1917 C 0.3558 0.36539 0.74358 0.0
C1918 C 0.34421 0.37614 0.78558 0.0
C1919 C 0.3127 0.35629 0.75128 0.0
C1920 C 0.29607 0.3676 0.74079 0.0
C1921 C 0.27254 0.35554 0.73371 0.0
C1922 C 0.26585 0.33139 0.73757 0.0
C1923 C 0.28265 0.31953 0.74835 0.0
C1924 C 0.30639 0.33224 0.75508 0.0
H1925 H 0.18889 0.56769 0.23593 0.0
H1926 H 0.16551 0.5747 0.30785 0.0
H1927 H 0.18074 0.6183 0.31138 0.0
H1928 H 0.24284 0.61499 0.24725 0.0
H1929 H 0.23871 0.62528 0.21776 0.0
H1930 H 0.22749 0.59439 0.22156 0.0
H1931 H 0.18538 0.59768 0.20377 0.0
H1932 H 0.1964 0.62868 0.20026 0.0
H1933 H 0.1717 0.62017 0.21763 0.0
H1934 H 0.19648 0.66042 0.3068 0.0
H1935 H 0.21403 0.69979 0.29532 0.0
H1936 H 0.22692 0.66666 0.22563 0.0
C1937 C 0.18754 0.57843 0.25259 0.0
C1938 C 0.17635 0.56799 0.27178 0.0
C1939 C 0.17418 0.5825 0.29306 0.0
C1940 C 0.18269 0.60722 0.2952 0.0
C1941 C 0.19306 0.6171 0.27575 0.0
C1942 C 0.19562 0.60329 0.25487 0.0
C1943 C 0.20647 0.61878 0.2363 0.0
C1944 C 0.2303 0.61302 0.23038 0.0
C1945 C 0.18894 0.61617 0.21312 0.0
C1946 C 0.21003 0.64336 0.25029 0.0
C1947 C 0.20194 0.64184 0.2729 0.0
C1948 C 0.20299 0.66191 0.28919 0.0
C1949 C 0.213 0.68422 0.28242 0.0
C1950 C 0.22204 0.68636 0.2596 0.0
C1951 C 0.22022 0.66562 0.2432 0.0
H1952 H 0.54523 0.69652 0.45736 0.0
H1953 H 0.47037 0.68791 0.43156 0.0
H1954 H 0.46092 0.65129 0.45191 0.0
H1955 H 0.54672 0.63614 0.44667 0.0
H1956 H 0.56722 0.63585 0.4731 0.0
H1957 H 0.56776 0.6631 0.45949 0.0
H1958 H 0.56188 0.68433 0.50096 0.0
H1959 H 0.56117 0.65702 0.51466 0.0
H1960 H 0.53681 0.67201 0.51645 0.0
H1961 H 0.45965 0.61465 0.47201 0.0
H1962 H 0.46698 0.57762 0.48707 0.0
H1963 H 0.5428 0.60819 0.49895 0.0
C1964 C 0.5268 0.68715 0.45641 0.0
C1965 C 0.50846 0.69518 0.4431 0.0
C1966 C 0.48465 0.68214 0.44174 0.0
C1967 C 0.4791 0.66143 0.45339 0.0
C1968 C 0.49757 0.65392 0.46625 0.0
C1969 C 0.52098 0.66621 0.46769 0.0
C1970 C 0.53766 0.65292 0.48061 0.0
C1971 C 0.55591 0.64662 0.46396 0.0
C1972 C 0.55012 0.66744 0.5046 0.0
C1973 C 0.52002 0.63077 0.48538 0.0
C1974 C 0.49695 0.63215 0.47748 0.0
C1975 C 0.47756 0.61351 0.47858 0.0
C1976 C 0.48187 0.59259 0.48723 0.0
C1977 C 0.50532 0.59038 0.49457 0.0
C1978 C 0.52466 0.60983 0.4941 0.0
H1979 H 0.6183 0.31174 0.68573 0.0
H1980 H 0.57328 0.24822 0.70657 0.0
H1981 H 0.60736 0.24039 0.73185 0.0
H1982 H 0.66999 0.29077 0.68114 0.0
H1983 H 0.6907 0.3174 0.69532 0.0
H1984 H 0.66241 0.31954 0.68028 0.0
H1985 H 0.65288 0.34147 0.71978 0.0
H1986 H 0.68126 0.33947 0.73496 0.0
H1987 H 0.65417 0.32785 0.74771 0.0
H1988 H 0.64649 0.2364 0.75076 0.0
H1989 H 0.68881 0.23851 0.76511 0.0
H1990 H 0.709 0.30557 0.73485 0.0
C1991 C 0.6156 0.29657 0.69614 0.0
C1992 C 0.59306 0.28077 0.69445 0.0
C1993 C 0.59022 0.26089 0.70804 0.0
C1994 C 0.60951 0.25617 0.72236 0.0
C1995 C 0.6315 0.27186 0.72352 0.0
C1996 C 0.63465 0.29195 0.71125 0.0
C1997 C 0.66042 0.30567 0.7157 0.0
C1998 C 0.67153 0.30848 0.69167 0.0
C1999 C 0.66229 0.33006 0.73041 0.0
C2000 C 0.67139 0.28923 0.7309 0.0
C2001 C 0.65424 0.27002 0.73547 0.0
C2002 C 0.66002 0.25168 0.74795 0.0
C2003 C 0.68399 0.25302 0.75609 0.0
C2004 C 0.70176 0.27252 0.75168 0.0
C2005 C 0.69546 0.29087 0.739 0.0
H2006 H 0.97169 0.32403 0.94313 0.0
H2007 H 0.04598 0.31995 0.9452 0.0
H2008 H 0.05765 0.35942 0.96996 0.0
H2009 H 0.98109 0.38462 0.9338 0.0
H2010 H 0.95818 0.39103 0.95173 0.0
H2011 H 0.95575 0.36133 0.9371 0.0
H2012 H 0.95186 0.34475 0.9788 0.0
H2013 H 0.95465 0.37454 0.99361 0.0
H2014 H 0.9747 0.35638 0.00384 0.0
H2015 H 0.06109 0.39904 0.994 0.0
H2016 H 0.05716 0.4397 0.0085 0.0
H2017 H 0.98105 0.41968 0.98692 0.0
C2018 C 0.99039 0.33136 0.9491 0.0
C2019 C 0.00799 0.319 0.94269 0.0
C2020 C 0.03231 0.32925 0.95012 0.0
C2021 C 0.03903 0.35146 0.96435 0.0
C2022 C 0.02119 0.36316 0.97057 0.0
C2023 C 0.99741 0.35371 0.96274 0.0
C2024 C 0.982 0.37105 0.96949 0.0
C2025 C 0.96848 0.37739 0.94667 0.0
C2026 C 0.96478 0.36108 0.98751 0.0
C2027 C 0.00094 0.39207 0.98167 0.0
C2028 C 0.0233 0.38677 0.98295 0.0
C2029 C 0.04369 0.40337 0.9932 0.0
C2030 C 0.04128 0.4263 0.00156 0.0
C2031 C 0.01879 0.43245 -0.00101 0.0
C2032 C 0.99833 0.41511 0.98929 0.0
H2033 H 0.9381 0.73323 0.18076 0.0
H2034 H 0.97061 0.80892 0.19267 0.0
H2035 H 0.93744 0.81612 0.21545 0.0
H2036 H 0.87769 0.74191 0.17029 0.0
H2037 H 0.86485 0.71599 0.18436 0.0
H2038 H 0.89165 0.71667 0.16993 0.0
H2039 H 0.91295 0.70767 0.21006 0.0
H2040 H 0.88624 0.70722 0.22463 0.0
H2041 H 0.91386 0.72694 0.23778 0.0
H2042 H 0.90107 0.81546 0.23581 0.0
H2043 H 0.86125 0.80755 0.25016 0.0
H2044 H 0.85152 0.73229 0.22501 0.0
C2045 C 0.93816 0.75128 0.18823 0.0
C2046 C 0.95682 0.77058 0.18513 0.0
C2047 C 0.95632 0.79401 0.19476 0.0
C2048 C 0.9377 0.79821 0.20785 0.0
C2049 C 0.91963 0.77881 0.21075 0.0
C2050 C 0.91943 0.75586 0.2009 0.0
C2051 C 0.89698 0.73851 0.20531 0.0
C2052 C 0.88191 0.72764 0.18104 0.0
C2053 C 0.90288 0.71894 0.22035 0.0
C2054 C 0.88489 0.75528 0.21967 0.0
C2055 C 0.89833 0.77843 0.22252 0.0
C2056 C 0.89043 0.79742 0.23386 0.0
C2057 C 0.86789 0.79279 0.24195 0.0
C2058 C 0.85373 0.76936 0.23892 0.0
C2059 C 0.86242 0.75026 0.22805 0.0
H2060 H 0.51499 0.3279 0.12168 0.0
H2061 H 0.52729 0.28957 0.0548 0.0
H2062 H 0.53152 0.32671 0.03484 0.0
H2063 H 0.48148 0.36628 0.09694 0.0
H2064 H 0.49551 0.39215 0.118 0.0
H2065 H 0.49406 0.36269 0.12698 0.0
H2066 H 0.53994 0.37268 0.13754 0.0
H2067 H 0.54155 0.40212 0.1283 0.0
H2068 H 0.55875 0.38278 0.11468 0.0
H2069 H 0.53291 0.36782 0.02181 0.0
H2070 H 0.5308 0.40962 0.01667 0.0
H2071 H 0.51886 0.42115 0.0925 0.0
C2072 C 0.51842 0.32735 0.10279 0.0
C2073 C 0.52048 0.30588 0.0896 0.0
C2074 C 0.52554 0.30588 0.06512 0.0
C2075 C 0.52805 0.32687 0.05369 0.0
C2076 C 0.526 0.34781 0.0672 0.0
C2077 C 0.52154 0.34827 0.09129 0.0
C2078 C 0.52052 0.37319 0.10183 0.0
C2079 C 0.49645 0.37358 0.11149 0.0
C2080 C 0.54143 0.38328 0.12177 0.0
C2081 C 0.52344 0.38626 0.07946 0.0
C2082 C 0.52715 0.37149 0.05981 0.0
C2083 C 0.53012 0.37959 0.0371 0.0
C2084 C 0.5289 0.40332 0.03435 0.0
C2085 C 0.52441 0.41849 0.0541 0.0
C2086 C 0.52202 0.40987 0.07698 0.0
H2087 H 0.94398 0.29421 0.37159 0.0
H2088 H 0.96876 0.24659 0.31963 0.0
H2089 H 0.93217 0.24326 0.29182 0.0
H2090 H 0.88644 0.26582 0.36678 0.0
H2091 H 0.87363 0.29186 0.36815 0.0
H2092 H 0.90353 0.2941 0.38176 0.0
H2093 H 0.91885 0.32808 0.35572 0.0
H2094 H 0.88884 0.32587 0.34192 0.0
H2095 H 0.91215 0.32312 0.32307 0.0
H2096 H 0.89113 0.24061 0.27245 0.0
H2097 H 0.84781 0.23718 0.26404 0.0
H2098 H 0.84937 0.28616 0.3286 0.0
C2099 C 0.94188 0.28353 0.35412 0.0
C2100 C 0.95914 0.27073 0.3477 0.0
C2101 C 0.95583 0.25679 0.32477 0.0
C2102 C 0.93517 0.25486 0.30879 0.0
C2103 C 0.91828 0.26744 0.31579 0.0
C2104 C 0.92151 0.2817 0.3378 0.0
C2105 C 0.89976 0.29168 0.34185 0.0
C2106 C 0.89028 0.28546 0.36605 0.0
C2107 C 0.90523 0.3188 0.34057 0.0
C2108 C 0.88295 0.27875 0.32002 0.0
C2109 C 0.89432 0.26572 0.30464 0.0
C2110 C 0.88214 0.25114 0.28404 0.0
C2111 C 0.85757 0.24934 0.27939 0.0
C2112 C 0.84545 0.26154 0.29568 0.0
C2113 C 0.85838 0.27686 0.31584 0.0
H2114 H 0.98961 0.66504 0.62429 0.0
H2115 H 0.97071 0.69512 0.55833 0.0
H2116 H 0.96977 0.65667 0.53409 0.0
H2117 H 0.03025 0.63669 0.60067 0.0
H2118 H 0.02394 0.61059 0.61663 0.0
H2119 H 0.01819 0.63835 0.62948 0.0
H2120 H 0.97417 0.61791 0.63182 0.0
H2121 H 0.97988 0.58992 0.6193 0.0
H2122 H 0.95627 0.6017 0.60481 0.0
H2123 H 0.97533 0.61694 0.51672 0.0
H2124 H 0.9875 0.57886 0.50718 0.0
H2125 H 0.00575 0.5758 0.5843 0.0
C2126 C 0.98435 0.66321 0.60486 0.0
C2127 C 0.97982 0.68286 0.59316 0.0
C2128 C 0.97396 0.68015 0.56761 0.0
C2129 C 0.97335 0.65839 0.55373 0.0
C2130 C 0.97883 0.63963 0.5657 0.0
C2131 C 0.98414 0.64177 0.59072 0.0
C2132 C 0.99223 0.62 0.59879 0.0
C2133 C 0.01766 0.62683 0.61217 0.0
C2134 C 0.97458 0.60659 0.61461 0.0
C2135 C 0.99147 0.60571 0.57434 0.0
C2136 C 0.98317 0.61709 0.55556 0.0
C2137 C 0.98159 0.60773 0.53129 0.0
C2138 C 0.98864 0.58613 0.52605 0.0
C2139 C 0.99756 0.57434 0.54499 0.0
C2140 C 0.99892 0.58432 0.56943 0.0
H2141 H 0.5859 0.78934 0.83296 0.0
H2142 H 0.58587 0.73227 0.87897 0.0
H2143 H 0.61842 0.72044 0.85851 0.0
H2144 H 0.60174 0.7581 0.77739 0.0
H2145 H 0.621 0.78473 0.76995 0.0
H2146 H 0.59549 0.78697 0.78578 0.0
H2147 H 0.62272 0.81577 0.82052 0.0
H2148 H 0.64811 0.81394 0.80453 0.0
H2149 H 0.64793 0.80674 0.83546 0.0
H2150 H 0.653 0.71705 0.83645 0.0
H2151 H 0.69051 0.72555 0.81772 0.0
H2152 H 0.66906 0.78465 0.78584 0.0
C2153 C 0.59253 0.77414 0.83844 0.0
C2154 C 0.58326 0.76163 0.85745 0.0
C2155 C 0.59271 0.74214 0.86448 0.0
C2156 C 0.61103 0.7351 0.85278 0.0
C2157 C 0.61974 0.74773 0.83409 0.0
C2158 C 0.61104 0.76702 0.82712 0.0
C2159 C 0.6254 0.77917 0.80843 0.0
C2160 C 0.60998 0.77711 0.78393 0.0
C2161 C 0.63672 0.80545 0.81781 0.0
C2162 C 0.64403 0.7642 0.80668 0.0
C2163 C 0.64002 0.74578 0.82119 0.0
C2164 C 0.65602 0.73096 0.82451 0.0
C2165 C 0.67718 0.73573 0.81362 0.0
C2166 C 0.68206 0.75504 0.79958 0.0
C2167 C 0.66504 0.76903 0.79551 0.0
H2168 H 0.42838 0.53979 0.68143 0.0
H2169 H 0.44121 0.47244 0.70257 0.0
H2170 H 0.46615 0.46968 0.66914 0.0
H2171 H 0.42578 0.52649 0.61688 0.0
H2172 H 0.44216 0.55551 0.61174 0.0
H2173 H 0.4251 0.55248 0.63731 0.0
H2174 H 0.46281 0.573 0.66654 0.0
H2175 H 0.48002 0.57605 0.64103 0.0
H2176 H 0.48927 0.56106 0.66613 0.0
H2177 H 0.48788 0.4728 0.63289 0.0
H2178 H 0.50731 0.48284 0.59632 0.0
H2179 H 0.48318 0.5493 0.59898 0.0
C2180 C 0.43653 0.52454 0.67896 0.0
C2181 C 0.43294 0.50631 0.69457 0.0
C2182 C 0.44396 0.4867 0.69097 0.0
C2183 C 0.45808 0.48492 0.67199 0.0
C2184 C 0.46141 0.50315 0.657 0.0
C2185 C 0.45125 0.52275 0.66033 0.0
C2186 C 0.45847 0.54009 0.64186 0.0
C2187 C 0.43657 0.54385 0.62601 0.0
C2188 C 0.47353 0.56396 0.65466 0.0
C2189 C 0.47348 0.52664 0.62715 0.0
C2190 C 0.47498 0.50545 0.63639 0.0
C2191 C 0.48723 0.48954 0.62572 0.0
C2192 C 0.49835 0.49543 0.60505 0.0
C2193 C 0.49726 0.51706 0.59537 0.0
C2194 C 0.48463 0.53287 0.60646 0.0
H2195 H 0.7608 0.20895 0.96124 0.0
H2196 H 0.77593 0.13941 0.94121 0.0
H2197 H 0.77464 0.14726 0.8982 0.0
H2198 H 0.7207 0.2106 0.90821 0.0
H2199 H 0.73197 0.24185 0.9059 0.0
H2200 H 0.73338 0.23071 0.93518 0.0
H2201 H 0.77897 0.24776 0.94212 0.0
H2202 H 0.77762 0.25919 0.91301 0.0
H2203 H 0.79743 0.23964 0.91966 0.0
H2204 H 0.77177 0.16207 0.85814 0.0
H2205 H 0.77125 0.18479 0.82272 0.0
H2206 H 0.7587 0.24534 0.86827 0.0
C2207 C 0.7638 0.19539 0.94775 0.0
C2208 C 0.76835 0.17353 0.95438 0.0
C2209 C 0.77251 0.1563 0.93642 0.0
C2210 C 0.77164 0.16051 0.91198 0.0
C2211 C 0.76683 0.18211 0.90599 0.0
C2212 C 0.76331 0.19943 0.92331 0.0
C2213 C 0.7597 0.22158 0.91204 0.0
C2214 C 0.73496 0.22645 0.91554 0.0
C2215 C 0.77962 0.24332 0.92232 0.0
C2216 C 0.76162 0.21386 0.88562 0.0
C2217 C 0.76559 0.19096 0.88264 0.0
C2218 C 0.76873 0.18003 0.86018 0.0
C2219 C 0.76848 0.19308 0.84024 0.0
C2220 C 0.76508 0.21676 0.84295 0.0
C2221 C 0.76112 0.22715 0.86578 0.0
H2222 H 0.08001 0.51 0.20834 0.0
H2223 H 0.10599 0.44683 0.18627 0.0
H2224 H 0.08378 0.44378 0.14528 0.0
H2225 H 0.02129 0.49491 0.17198 0.0
H2226 H 0.02368 0.52506 0.16449 0.0
H2227 H 0.03809 0.51967 0.19298 0.0
H2228 H 0.07843 0.54353 0.18241 0.0
H2229 H 0.06422 0.54882 0.15384 0.0
H2230 H 0.08939 0.53481 0.15433 0.0
H2231 H 0.06159 0.44976 0.10606 0.0
H2232 H 0.04295 0.4655 0.07087 0.0
H2233 H 0.03426 0.52636 0.11827 0.0
C2234 C 0.08029 0.49503 0.19512 0.0
C2235 C 0.09406 0.47824 0.20043 0.0
C2236 C 0.09511 0.45957 0.18247 0.0
C2237 C 0.08256 0.45772 0.15926 0.0
C2238 C 0.06953 0.47495 0.15439 0.0
C2239 C 0.06849 0.49336 0.17179 0.0
C2240 C 0.05602 0.51138 0.1612 0.0
C2241 C 0.03342 0.51282 0.17339 0.0
C2242 C 0.07303 0.53608 0.16306 0.0
C2243 C 0.05005 0.5002 0.13511 0.0
C2244 C 0.05779 0.47908 0.13157 0.0
C2245 C 0.05528 0.46614 0.10866 0.0
C2246 C 0.0448 0.47519 0.08885 0.0
C2247 C 0.03738 0.49701 0.09218 0.0
C2248 C 0.03969 0.5095 0.11553 0.0
H2249 H 0.77882 0.81511 0.46272 0.0
H2250 H 0.72542 0.85826 0.4631 0.0
H2251 H 0.71552 0.84776 0.41883 0.0
H2252 H 0.79996 0.83114 0.40755 0.0
H2253 H 0.80451 0.80209 0.39688 0.0
H2254 H 0.80629 0.81102 0.42906 0.0
H2255 H 0.77409 0.77356 0.43363 0.0
H2256 H 0.77239 0.76436 0.40148 0.0
H2257 H 0.74585 0.76775 0.41493 0.0
H2258 H 0.71384 0.83632 0.37497 0.0
H2259 H 0.71783 0.82164 0.33301 0.0
H2260 H 0.7715 0.78437 0.35944 0.0
C2261 C 0.7647 0.82193 0.45355 0.0
C2262 C 0.7528 0.83748 0.46642 0.0
C2263 C 0.73472 0.84633 0.45369 0.0
C2264 C 0.72899 0.84047 0.42853 0.0
C2265 C 0.74142 0.82568 0.41631 0.0
C2266 C 0.75872 0.81625 0.4283 0.0
C2267 C 0.76992 0.80152 0.41039 0.0
C2268 C 0.79676 0.81208 0.41101 0.0
C2269 C 0.76527 0.77523 0.41541 0.0
C2270 C 0.75636 0.80446 0.38647 0.0
C2271 C 0.74012 0.81857 0.39052 0.0
C2272 C 0.72626 0.82502 0.37154 0.0
C2273 C 0.72883 0.81671 0.34772 0.0
C2274 C 0.74497 0.80186 0.34292 0.0
C2275 C 0.75888 0.79554 0.3626 0.0
H2276 H 0.44726 0.53205 0.83489 0.0
H2277 H 0.42853 0.45466 0.82309 0.0
H2278 H 0.4463 0.45267 0.86483 0.0
H2279 H 0.50501 0.5344 0.87244 0.0
H2280 H 0.5026 0.56051 0.8917 0.0
H2281 H 0.4899 0.55592 0.86028 0.0
H2282 H 0.44876 0.55929 0.87369 0.0
H2283 H 0.46138 0.56404 0.90503 0.0
H2284 H 0.4358 0.54011 0.89513 0.0
H2285 H 0.46393 0.45908 0.90877 0.0
H2286 H 0.47918 0.47388 0.95194 0.0
H2287 H 0.48664 0.54676 0.93482 0.0
C2288 C 0.4471 0.51474 0.8411 0.0
C2289 C 0.43656 0.49351 0.82586 0.0
C2290 C 0.43675 0.47113 0.83447 0.0
C2291 C 0.44681 0.46981 0.85812 0.0
C2292 C 0.45711 0.49104 0.87275 0.0
C2293 C 0.45757 0.51309 0.86451 0.0
C2294 C 0.46947 0.53317 0.88405 0.0
C2295 C 0.49314 0.54681 0.87667 0.0
C2296 C 0.45284 0.55013 0.88982 0.0
C2297 C 0.47389 0.51901 0.90504 0.0
C2298 C 0.46732 0.49471 0.898 0.0
C2299 C 0.46942 0.47807 0.91444 0.0
C2300 C 0.47814 0.48655 0.93881 0.0
C2301 C 0.48409 0.51133 0.94638 0.0
C2302 C 0.48221 0.52769 0.92927 0.0
H2303 H 0.78135 0.15528 0.10928 0.0
H2304 H 0.81332 0.21655 0.07442 0.0
H2305 H 0.81549 0.2427 0.11285 0.0
H2306 H 0.74324 0.18367 0.13728 0.0
H2307 H 0.7436 0.16914 0.16469 0.0
H2308 H 0.74955 0.15427 0.13676 0.0
H2309 H 0.79041 0.14947 0.15707 0.0
H2310 H 0.78373 0.16335 0.18525 0.0
H2311 H 0.81108 0.17529 0.17305 0.0
H2312 H 0.80901 0.26256 0.15277 0.0
H2313 H 0.79537 0.27482 0.19186 0.0
H2314 H 0.7652 0.20049 0.19922 0.0
C2315 C 0.78979 0.17403 0.11011 0.0
C2316 C 0.79761 0.18397 0.08924 0.0
C2317 C 0.80755 0.2087 0.09048 0.0
C2318 C 0.80884 0.22362 0.11216 0.0
C2319 C 0.7999 0.21343 0.13218 0.0
C2320 C 0.79066 0.18917 0.13137 0.0
C2321 C 0.77906 0.18314 0.15402 0.0
C2322 C 0.75229 0.17191 0.1478 0.0
C2323 C 0.79187 0.16686 0.16818 0.0
C2324 C 0.78302 0.2078 0.16758 0.0
C2325 C 0.79524 0.225 0.15482 0.0
C2326 C 0.79976 0.24923 0.16313 0.0
C2327 C 0.79181 0.256 0.18525 0.0
C2328 C 0.77932 0.23858 0.19861 0.0
C2329 C 0.7749 0.21421 0.18956 0.0
H2330 H 0.06036 0.49873 0.32159 0.0
H2331 H 0.13132 0.49799 0.35424 0.0
H2332 H 0.11894 0.50576 0.39521 0.0
H2333 H 0.0491 0.54469 0.36174 0.0
H2334 H 0.01825 0.53122 0.36329 0.0
H2335 H 0.03212 0.52462 0.33646 0.0
H2336 H 0.02059 0.47927 0.34043 0.0
H2337 H 0.00611 0.4857 0.36689 0.0
H2338 H 0.02884 0.4685 0.36879 0.0
H2339 H 0.10023 0.51788 0.43166 0.0
H2340 H 0.0741 0.52502 0.46283 0.0
H2341 H 0.01411 0.51473 0.40685 0.0
C2342 C 0.07309 0.49971 0.33744 0.0
C2343 C 0.09673 0.49776 0.33499 0.0
C2344 C 0.11304 0.49916 0.35593 0.0
C2345 C 0.10625 0.50382 0.37917 0.0
C2346 C 0.083 0.50647 0.38095 0.0
C2347 C 0.06645 0.50376 0.36074 0.0
C2348 C 0.04244 0.50686 0.36775 0.0
C2349 C 0.03506 0.52811 0.35665 0.0
C2350 C 0.02337 0.4837 0.36054 0.0
C2351 C 0.04817 0.51203 0.39509 0.0
C2352 C 0.07179 0.51219 0.4022 0.0
C2353 C 0.08162 0.51746 0.42638 0.0
C2354 C 0.06666 0.52176 0.44389 0.0
C2355 C 0.04208 0.52041 0.43716 0.0
C2356 C 0.0328 0.51577 0.41242 0.0
H2357 H 0.75582 0.81631 0.59182 0.0
H2358 H 0.76547 0.88934 0.62543 0.0
H2359 H 0.76217 0.87487 0.66548 0.0
H2360 H 0.71256 0.78973 0.63228 0.0
H2361 H 0.72416 0.76306 0.63336 0.0
H2362 H 0.72599 0.77879 0.60672 0.0
H2363 H 0.77163 0.78218 0.61052 0.0
H2364 H 0.76995 0.76654 0.63719 0.0
H2365 H 0.78945 0.79559 0.63866 0.0
H2366 H 0.76115 0.8538 0.70186 0.0
H2367 H 0.76074 0.82669 0.73339 0.0
H2368 H 0.74985 0.76611 0.67774 0.0
C2369 C 0.75702 0.82921 0.60759 0.0
C2370 C 0.76095 0.85402 0.60536 0.0
C2371 C 0.76243 0.87029 0.6265 0.0
C2372 C 0.76056 0.86225 0.64941 0.0
C2373 C 0.75695 0.83783 0.65101 0.0
C2374 C 0.75496 0.82144 0.63076 0.0
C2375 C 0.75155 0.79619 0.63798 0.0
C2376 C 0.72711 0.78105 0.62692 0.0
C2377 C 0.77186 0.78444 0.63065 0.0
C2378 C 0.75266 0.80114 0.66549 0.0
C2379 C 0.75569 0.82534 0.67241 0.0
C2380 C 0.75846 0.83477 0.69669 0.0
C2381 C 0.75824 0.81914 0.7145 0.0
C2382 C 0.75502 0.79418 0.70811 0.0
C2383 C 0.75198 0.78503 0.68319 0.0
H2384 H 0.68504 0.43378 0.49872 0.0
H2385 H 0.68725 0.40911 0.57023 0.0
H2386 H 0.65541 0.42982 0.58046 0.0
H2387 H 0.67933 0.49136 0.51905 0.0
H2388 H 0.65966 0.49486 0.49315 0.0
H2389 H 0.6802 0.47547 0.48973 0.0
H2390 H 0.64546 0.43991 0.47251 0.0
H2391 H 0.6249 0.45937 0.47519 0.0
H2392 H 0.62034 0.43218 0.48954 0.0
H2393 H 0.62658 0.45625 0.58445 0.0
H2394 H 0.59889 0.4835 0.58013 0.0
H2395 H 0.61625 0.49178 0.50649 0.0
C2396 C 0.67826 0.43226 0.51622 0.0
C2397 C 0.68828 0.41989 0.53372 0.0
C2398 C 0.67962 0.41863 0.5567 0.0
C2399 C 0.66162 0.4303 0.56265 0.0
C2400 C 0.65279 0.44332 0.54546 0.0
C2401 C 0.66057 0.44419 0.52261 0.0
C2402 C 0.64929 0.46082 0.50819 0.0
C2403 C 0.66825 0.48187 0.50219 0.0
C2404 C 0.63409 0.44725 0.48499 0.0
C2405 C 0.63401 0.46906 0.52651 0.0
C2406 C 0.63638 0.45889 0.54793 0.0
C2407 C 0.62445 0.46429 0.56773 0.0
C2408 C 0.60907 0.48001 0.56526 0.0
C2409 C 0.6057 0.48978 0.54306 0.0
C2410 C 0.61865 0.48456 0.52368 0.0
H2411 H 0.20151 0.07392 0.5115 0.0
H2412 H 0.18618 0.11017 0.44881 0.0
H2413 H 0.14301 0.09404 0.44929 0.0
H2414 H 0.15353 0.02048 0.49809 0.0
H2415 H 0.14757 0.02016 0.52941 0.0
H2416 H 0.17717 0.0324 0.52232 0.0
H2417 H 0.17699 0.07208 0.54829 0.0
H2418 H 0.14725 0.0601 0.55515 0.0
H2419 H 0.15353 0.08758 0.54144 0.0
H2420 H 0.10158 0.07735 0.45914 0.0
H2421 H 0.06469 0.05868 0.47584 0.0
H2422 H 0.10676 0.03298 0.53203 0.0
C2423 C 0.18907 0.07772 0.49737 0.0
C2424 C 0.1971 0.09277 0.47972 0.0
C2425 C 0.18031 0.09834 0.4622 0.0
C2426 C 0.15581 0.08936 0.46243 0.0
C2427 C 0.14839 0.07515 0.48055 0.0
C2428 C 0.16452 0.06929 0.49765 0.0
C2429 C 0.15186 0.05536 0.51636 0.0
C2430 C 0.15789 0.03062 0.51653 0.0
C2431 C 0.15777 0.06963 0.54181 0.0
C2432 C 0.12609 0.05357 0.50663 0.0
C2433 C 0.1245 0.06551 0.48622 0.0
C2434 C 0.10261 0.06771 0.47492 0.0
C2435 C 0.08181 0.05719 0.48456 0.0
C2436 C 0.08306 0.04434 0.505 0.0
C2437 C 0.10544 0.04247 0.51615 0.0
H2438 H 0.17027 0.92768 0.74137 0.0
H2439 H 0.19545 0.9576 0.81599 0.0
H2440 H 0.21937 0.92685 0.81996 0.0
H2441 H 0.16393 0.86593 0.75422 0.0
H2442 H 0.17227 0.85597 0.72517 0.0
H2443 H 0.15803 0.88094 0.72796 0.0
H2444 H 0.19323 0.90693 0.71021 0.0
H2445 H 0.20773 0.88212 0.7077 0.0
H2446 H 0.22317 0.91011 0.72461 0.0
H2447 H 0.24094 0.89373 0.8157 0.0
H2448 H 0.25471 0.85656 0.80541 0.0
H2449 H 0.21395 0.84612 0.73451 0.0
C2450 C 0.18087 0.9277 0.7585 0.0
C2451 C 0.18127 0.94506 0.77837 0.0
C2452 C 0.19493 0.94439 0.80065 0.0
C2453 C 0.20867 0.92713 0.80298 0.0
C2454 C 0.20815 0.91042 0.78299 0.0
C2455 C 0.1942 0.91018 0.76134 0.0
C2456 C 0.19554 0.88914 0.74331 0.0
C2457 C 0.17099 0.87198 0.73732 0.0
C2458 C 0.20552 0.8976 0.72009 0.0
C2459 C 0.21288 0.87792 0.75802 0.0
C2460 C 0.22 0.89065 0.78079 0.0
C2461 C 0.23545 0.8836 0.79797 0.0
C2462 C 0.24318 0.86255 0.79206 0.0
C2463 C 0.23552 0.84877 0.76933 0.0
C2464 C 0.22053 0.85674 0.75184 0.0
H2465 H 0.3241 0.92387 0.03895 0.0
H2466 H 0.31281 0.92355 0.96068 0.0
H2467 H 0.35533 0.94331 0.96052 0.0
H2468 H 0.3694 0.97951 0.05374 0.0
H2469 H 0.38626 0.967 0.07615 0.0
H2470 H 0.35442 0.95645 0.07034 0.0
H2471 H 0.36001 0.9131 0.06138 0.0
H2472 H 0.39182 0.92352 0.067 0.0
H2473 H 0.37859 0.90649 0.03841 0.0
H2474 H 0.3997 0.96236 0.96941 0.0
H2475 H 0.44252 0.97462 0.98571 0.0
H2476 H 0.42442 0.9575 0.05705 0.0
C2477 C 0.33048 0.92862 0.0219 0.0
C2478 C 0.3153 0.92288 -9e-05 0.0
C2479 C 0.3243 0.92827 0.97773 0.0
C2480 C 0.34832 0.93949 0.97751 0.0
C2481 C 0.36303 0.94462 -0.00044 0.0
C2482 C 0.35445 0.93905 0.0213 0.0
C2483 C 0.37425 0.94357 0.04203 0.0
C2484 C 0.37087 0.96278 0.06172 0.0
C2485 C 0.37628 0.92028 0.05282 0.0
C2486 C 0.39535 0.95258 0.02864 0.0
C2487 C 0.38857 0.95357 0.00428 0.0
C2488 C 0.40519 0.96159 0.98844 0.0
C2489 C 0.42936 0.96853 0.99779 0.0
C2490 C 0.43649 0.96671 0.02247 0.0
C2491 C 0.41929 0.95877 0.03802 0.0
H2492 H 0.83376 0.59244 0.79607 0.0
H2493 H 0.86497 0.59352 0.72797 0.0
H2494 H 0.84521 0.6259 0.71692 0.0
H2495 H 0.77756 0.59971 0.77109 0.0
H2496 H 0.77227 0.61823 0.79709 0.0
H2497 H 0.79073 0.59691 0.80112 0.0
H2498 H 0.82558 0.63041 0.82249 0.0
H2499 H 0.807 0.6517 0.81918 0.0
H2500 H 0.83556 0.65661 0.80753 0.0
H2501 H 0.81993 0.65581 0.71199 0.0
H2502 H 0.79426 0.68514 0.71583 0.0
H2503 H 0.77874 0.66371 0.78661 0.0
C2504 C 0.83688 0.60008 0.77921 0.0
C2505 C 0.85103 0.59105 0.76293 0.0
C2506 C 0.85429 0.60065 0.74064 0.0
C2507 C 0.84307 0.61885 0.73419 0.0
C2508 C 0.82843 0.62684 0.75016 0.0
C2509 C 0.82548 0.618 0.77232 0.0
C2510 C 0.80788 0.62892 0.78557 0.0
C2511 C 0.78581 0.6098 0.78891 0.0
C2512 C 0.81972 0.64274 0.81014 0.0
C2513 C 0.80173 0.64549 0.76755 0.0
C2514 C 0.81353 0.64382 0.74711 0.0
C2515 C 0.81055 0.65732 0.72789 0.0
C2516 C 0.79573 0.67366 0.73005 0.0
C2517 C 0.78443 0.67636 0.75137 0.0
C2518 C 0.78708 0.66175 0.77004 0.0
H2519 H 0.83978 0.59669 0.99116 0.0
H2520 H 0.82759 0.60063 0.06738 0.0
H2521 H 0.86212 0.58302 0.077 0.0
H2522 H 0.85765 0.53985 0.9893 0.0
H2523 H 0.88013 0.54776 0.96918 0.0
H2524 H 0.85444 0.56099 0.96786 0.0
H2525 H 0.88199 0.60322 0.97486 0.0
H2526 H 0.90773 0.5901 0.97607 0.0
H2527 H 0.90417 0.61093 0.001 0.0
H2528 H 0.89737 0.56467 0.07883 0.0
H2529 H 0.93252 0.54765 0.07271 0.0
H2530 H 0.92272 0.55532 0.99553 0.0
C2531 C 0.84445 0.59388 0.00985 0.0
C2532 C 0.83088 0.59999 0.0285 0.0
C2533 C 0.83755 0.59597 0.05273 0.0
C2534 C 0.85719 0.58598 0.05843 0.0
C2535 C 0.87004 0.57995 0.03971 0.0
C2536 C 0.86406 0.58372 0.0159 0.0
C2537 C 0.88095 0.57534 -0.00066 0.0
C2538 C 0.86748 0.55476 0.98029 0.0
C2539 C 0.89451 0.59615 0.98711 0.0
C2540 C 0.89744 0.56665 0.01768 0.0
C2541 C 0.89065 0.56933 0.04081 0.0
C2542 C 0.9029 0.56244 0.0608 0.0
C2543 C 0.92278 0.5527 0.05713 0.0
C2544 C 0.93036 0.55009 0.03368 0.0
C2545 C 0.91739 0.5571 0.01371 0.0
H2546 H 0.1724 0.09454 0.80635 0.0
H2547 H 0.20757 0.05508 0.75611 0.0
H2548 H 0.23458 0.09272 0.74977 0.0
H2549 H 0.17216 0.14357 0.77433 0.0
H2550 H 0.17835 0.16565 0.8006 0.0
H2551 H 0.16352 0.13545 0.80338 0.0
H2552 H 0.19602 0.13281 0.83777 0.0
H2553 H 0.21091 0.16312 0.83523 0.0
H2554 H 0.2269 0.13944 0.83241 0.0
H2555 H 0.25648 0.13493 0.74721 0.0
H2556 H 0.27062 0.17869 0.74777 0.0
H2557 H 0.22001 0.19063 0.79806 0.0
C2558 C 0.18602 0.09372 0.79431 0.0
C2559 C 0.18789 0.07176 0.78182 0.0
C2560 C 0.20588 0.07159 0.76607 0.0
C2561 C 0.22132 0.09291 0.76233 0.0
C2562 C 0.21872 0.11425 0.77462 0.0
C2563 C 0.20159 0.11482 0.79039 0.0
C2564 C 0.2018 0.14023 0.80049 0.0
C2565 C 0.17752 0.14659 0.79431 0.0
C2566 C 0.20936 0.14412 0.82811 0.0
C2567 C 0.22087 0.15393 0.78697 0.0
C2568 C 0.23086 0.1386 0.77263 0.0
C2569 C 0.24891 0.14709 0.7585 0.0
C2570 C 0.25687 0.17188 0.75896 0.0
C2571 C 0.24639 0.18779 0.773 0.0
C2572 C 0.22823 0.17871 0.78718 0.0
H2573 H 0.33509 0.95394 0.24472 0.0
H2574 H 0.36588 0.95622 0.31936 0.0
H2575 H 0.34791 0.91319 0.31886 0.0
H2576 H 0.27981 0.90857 0.24704 0.0
H2577 H 0.28106 0.89471 0.21687 0.0
H2578 H 0.29292 0.92629 0.22457 0.0
H2579 H 0.33358 0.92109 0.21114 0.0
H2580 H 0.3219 0.88955 0.20361 0.0
H2581 H 0.34843 0.90008 0.22476 0.0
H2582 H 0.32815 0.86929 0.3092 0.0
H2583 H 0.31103 0.8278 0.29018 0.0
H2584 H 0.29713 0.85433 0.22094 0.0
C2585 C 0.33738 0.94557 0.26123 0.0
C2586 C 0.35139 0.95843 0.28227 0.0
C2587 C 0.35487 0.94668 0.30319 0.0
C2588 C 0.34472 0.9223 0.30306 0.0
C2589 C 0.33145 0.90997 0.28177 0.0
C2590 C 0.3279 0.92122 0.26119 0.0
C2591 C 0.31529 0.90359 0.2398 0.0
C2592 C 0.29081 0.90859 0.2316 0.0
C2593 C 0.33073 0.90358 0.21859 0.0
C2594 C 0.31273 0.88059 0.25137 0.0
C2595 C 0.3216 0.88463 0.27574 0.0
C2596 C 0.32109 0.86594 0.29017 0.0
C2597 C 0.31137 0.84254 0.2793 0.0
C2598 C 0.30298 0.8382 0.25423 0.0
C2599 C 0.30361 0.85739 0.24016 0.0
H2600 H 0.56849 0.34955 0.59161 0.0
H2601 H 0.49424 0.32112 0.59937 0.0
H2602 H 0.48352 0.35658 0.58288 0.0
H2603 H 0.56759 0.40905 0.61235 0.0
H2604 H 0.58843 0.42207 0.59243 0.0
H2605 H 0.58951 0.39334 0.60219 0.0
H2606 H 0.58521 0.37513 0.55708 0.0
H2607 H 0.58401 0.40388 0.5473 0.0
H2608 H 0.56034 0.37831 0.53649 0.0
H2609 H 0.48149 0.39674 0.56685 0.0
H2610 H 0.48913 0.4389 0.55735 0.0
H2611 H 0.56474 0.4408 0.56241 0.0
C2612 C 0.54991 0.35054 0.58943 0.0
C2613 C 0.53215 0.33242 0.59643 0.0
C2614 C 0.50812 0.33474 0.59396 0.0
C2615 C 0.50186 0.35476 0.5845 0.0
C2616 C 0.51988 0.3724 0.57784 0.0
C2617 C 0.54346 0.37053 0.58048 0.0
C2618 C 0.55983 0.39279 0.57434 0.0
C2619 C 0.57736 0.40503 0.59665 0.0
C2620 C 0.57312 0.38718 0.5525 0.0
C2621 C 0.54187 0.40755 0.5678 0.0
C2622 C 0.51884 0.39548 0.56953 0.0
C2623 C 0.49944 0.4062 0.56519 0.0
C2624 C 0.50385 0.43001 0.55959 0.0
C2625 C 0.52744 0.44271 0.55869 0.0
C2626 C 0.54651 0.4312 0.5625 0.0
H2627 H 0.41382 0.72852 0.34042 0.0
H2628 H 0.45382 0.78866 0.30894 0.0
H2629 H 0.41703 0.79351 0.2862 0.0
H2630 H 0.372 0.70461 0.286 0.0
H2631 H 0.34685 0.69612 0.3028 0.0
H2632 H 0.3765 0.6965 0.31643 0.0
H2633 H 0.37073 0.72509 0.35311 0.0
H2634 H 0.34108 0.72475 0.33961 0.0
H2635 H 0.36224 0.75276 0.34777 0.0
H2636 H 0.37667 0.79314 0.26768 0.0
H2637 H 0.33365 0.78735 0.25439 0.0
H2638 H 0.31863 0.72784 0.29723 0.0
C2639 C 0.41483 0.74247 0.32849 0.0
C2640 C 0.4368 0.75805 0.32632 0.0
C2641 C 0.43731 0.77633 0.31077 0.0
C2642 C 0.41648 0.7793 0.29776 0.0
C2643 C 0.39518 0.76379 0.30032 0.0
C2644 C 0.39406 0.74571 0.31521 0.0
C2645 C 0.36854 0.73192 0.31484 0.0
C2646 C 0.36582 0.70573 0.30439 0.0
C2647 C 0.36016 0.73376 0.34035 0.0
C2648 C 0.35566 0.7453 0.2976 0.0
C2649 C 0.3715 0.76353 0.2894 0.0
C2650 C 0.36407 0.77874 0.27368 0.0
C2651 C 0.33972 0.77528 0.26612 0.0
C2652 C 0.32322 0.75684 0.27433 0.0
C2653 C 0.33116 0.74168 0.2903 0.0
H2654 H 0.00585 0.70135 0.07288 0.0
H2655 H 0.05606 0.71557 0.1382 0.0
H2656 H 0.06525 0.67588 0.1302 0.0
H2657 H 0.98192 0.64199 0.07835 0.0
H2658 H 0.97927 0.63116 0.04649 0.0
H2659 H 0.97875 0.66181 0.05551 0.0
H2660 H 0.01393 0.67563 0.03054 0.0
H2661 H 0.01462 0.64491 0.02156 0.0
H2662 H 0.04113 0.66534 0.03633 0.0
H2663 H 0.0645 0.6336 0.11929 0.0
H2664 H 0.05473 0.59053 0.10479 0.0
H2665 H 0.00745 0.6033 0.04457 0.0
C2666 C 0.01923 0.69619 0.08496 0.0
C2667 C 0.03062 0.71137 0.1059 0.0
C2668 C 0.04757 0.70411 0.12184 0.0
C2669 C 0.05291 0.68169 0.11745 0.0
C2670 C 0.04138 0.6669 0.09679 0.0
C2671 C 0.02509 0.67382 0.08059 0.0
C2672 C 0.01421 0.65365 0.0607 0.0
C2673 C 0.98693 0.64675 0.06026 0.0
C2674 C 0.02141 0.66028 0.0358 0.0
C2675 C 0.02597 0.63409 0.06909 0.0
C2676 C 0.04177 0.64228 0.08981 0.0
C2677 C 0.05277 0.62706 0.10264 0.0
C2678 C 0.04715 0.60269 0.09432 0.0
C2679 C 0.03093 0.59391 0.07329 0.0
C2680 C 0.02065 0.60984 0.06017 0.0
H2681 H 0.06238 0.21879 0.82407 0.0
H2682 H 0.07604 0.28965 0.86373 0.0
H2683 H 0.11552 0.29919 0.84834 0.0
H2684 H 0.12003 0.20896 0.8364 0.0
H2685 H 0.12013 0.19285 0.80702 0.0
H2686 H 0.09242 0.19254 0.81955 0.0
H2687 H 0.07574 0.20843 0.78083 0.0
H2688 H 0.10342 0.20872 0.76813 0.0
H2689 H 0.09202 0.23557 0.77115 0.0
H2690 H 0.15417 0.30019 0.82917 0.0
H2691 H 0.18904 0.29194 0.80983 0.0
H2692 H 0.14971 0.21984 0.78451 0.0
C2693 C 0.07348 0.23645 0.82933 0.0
C2694 C 0.06608 0.25354 0.84496 0.0
C2695 C 0.08132 0.27633 0.85164 0.0
C2696 C 0.10374 0.2819 0.84297 0.0
C2697 C 0.11053 0.26448 0.8277 0.0
C2698 C 0.09581 0.24221 0.82103 0.0
C2699 C 0.10757 0.22613 0.8055 0.0
C2700 C 0.1102 0.20381 0.81787 0.0
C2701 C 0.09387 0.21932 0.77988 0.0
C2702 C 0.13143 0.24263 0.80477 0.0
C2703 C 0.13275 0.26482 0.81735 0.0
C2704 C 0.15325 0.28292 0.8192 0.0
C2705 C 0.17291 0.2781 0.80809 0.0
C2706 C 0.17197 0.25526 0.79566 0.0
C2707 C 0.15091 0.23744 0.79392 0.0
H2708 H 0.49522 0.69611 0.95653 0.0
H2709 H 0.55405 0.69977 0.91268 0.0
H2710 H 0.55937 0.66055 0.92352 0.0
H2711 H 0.52044 0.67086 0.00486 0.0
H2712 H 0.49349 0.65096 0.01057 0.0
H2713 H 0.4919 0.67806 0.99731 0.0
H2714 H 0.46349 0.65374 0.9607 0.0
H2715 H 0.4648 0.62655 0.97398 0.0
H2716 H 0.47238 0.62963 0.94347 0.0
H2717 H 0.56119 0.62391 0.94125 0.0
H2718 H 0.55864 0.58931 0.96415 0.0
H2719 H 0.49853 0.60741 0.99766 0.0
C2720 C 0.50876 0.68822 0.94885 0.0
C2721 C 0.52414 0.70061 0.93358 0.0
C2722 C 0.54206 0.69027 0.92422 0.0
C2723 C 0.54519 0.66807 0.93026 0.0
C2724 C 0.53023 0.65641 0.94573 0.0
C2725 C 0.51221 0.66585 0.95482 0.0
C2726 C 0.49965 0.64979 0.97216 0.0
C2727 C 0.50149 0.66323 0.99774 0.0
C2728 C 0.47353 0.6393 0.96197 0.0
C2729 C 0.5141 0.63051 0.97202 0.0
C2730 C 0.53141 0.63473 0.95635 0.0
C2731 C 0.54756 0.62018 0.95338 0.0
C2732 C 0.54598 0.60058 0.96663 0.0
C2733 C 0.52838 0.59556 0.98278 0.0
C2734 C 0.51219 0.61079 0.9855 0.0
H2735 H 0.07693 0.72973 0.65266 0.0
H2736 H 0.05997 0.78453 0.70254 0.0
H2737 H 0.09883 0.78849 0.72733 0.0
H2738 H 0.10689 0.70257 0.7011 0.0
H2739 H 0.12831 0.69483 0.68188 0.0
H2740 H 0.09885 0.69577 0.66869 0.0
H2741 H 0.11704 0.7258 0.6398 0.0
H2742 H 0.14646 0.72474 0.65267 0.0
H2743 H 0.13775 0.75303 0.65248 0.0
H2744 H 0.13993 0.78761 0.74525 0.0
H2745 H 0.1814 0.78363 0.75419 0.0
H2746 H 0.17111 0.72844 0.69309 0.0
C2747 C 0.08152 0.74254 0.66882 0.0
C2748 C 0.06584 0.757 0.67579 0.0
C2749 C 0.07196 0.77334 0.69713 0.0
C2750 C 0.09385 0.7756 0.71128 0.0
C2751 C 0.10892 0.76089 0.70408 0.0
C2752 C 0.10298 0.74456 0.68346 0.0
C2753 C 0.12236 0.73095 0.6797 0.0
C2754 C 0.11358 0.70446 0.68304 0.0
C2755 C 0.13144 0.73383 0.65469 0.0
C2756 C 0.14091 0.74343 0.70037 0.0
C2757 C 0.13252 0.76014 0.71464 0.0
C2758 C 0.1466 0.77437 0.73443 0.0
C2759 C 0.17011 0.77187 0.73943 0.0
C2760 C 0.17937 0.75561 0.72437 0.0
C2761 C 0.1644 0.74088 0.70495 0.0
H2762 H 0.02973 0.35747 0.43288 0.0
H2763 H 0.00094 0.31626 0.48917 0.0
H2764 H 0.00259 0.35358 0.51562 0.0
H2765 H 0.06884 0.40725 0.47297 0.0
H2766 H 0.06226 0.42948 0.45414 0.0
H2767 H 0.06128 0.3996 0.44058 0.0
H2768 H 0.01788 0.39637 0.42163 0.0
H2769 H 0.01875 0.42619 0.43518 0.0
H2770 H 0.99573 0.40169 0.4411 0.0
H2771 H 0.00721 0.39505 0.5359 0.0
H2772 H 0.01047 0.43817 0.54723 0.0
H2773 H 0.03248 0.45279 0.47642 0.0
C2774 C 0.02429 0.35638 0.45098 0.0
C2775 C 0.01564 0.33404 0.45924 0.0
C2776 C 0.00787 0.33323 0.48267 0.0
C2777 C 0.00878 0.35431 0.49782 0.0
C2778 C 0.01717 0.37608 0.48911 0.0
C2779 C 0.02453 0.37732 0.46614 0.0
C2780 C 0.0309 0.40303 0.46052 0.0
C2781 C 0.0574 0.41026 0.45684 0.0
C2782 C 0.01485 0.40705 0.4383 0.0
C2783 C 0.02571 0.41596 0.48381 0.0
C2784 C 0.01832 0.40007 0.50023 0.0
C2785 C 0.01294 0.40768 0.5232 0.0
C2786 C 0.01495 0.43219 0.52951 0.0
C2787 C 0.02168 0.44873 0.51269 0.0
C2788 C 0.02719 0.44047 0.48957 0.0
H2789 H 0.42053 0.21637 0.17941 0.0
H2790 H 0.45583 0.29088 0.19664 0.0
H2791 H 0.41989 0.29924 0.21418 0.0
H2792 H 0.36422 0.22822 0.15903 0.0
H2793 H 0.34723 0.2022 0.17007 0.0
H2794 H 0.37644 0.20203 0.1613 0.0
H2795 H 0.38941 0.19091 0.20396 0.0
H2796 H 0.36024 0.19126 0.21285 0.0
H2797 H 0.38629 0.20963 0.2308 0.0
H2798 H 0.37957 0.29881 0.23037 0.0
H2799 H 0.33693 0.2909 0.23797 0.0
H2800 H 0.32793 0.21767 0.20606 0.0
C2801 C 0.4207 0.23439 0.18711 0.0
C2802 C 0.44084 0.25299 0.18705 0.0
C2803 C 0.44043 0.27647 0.19665 0.0
C2804 C 0.42021 0.28129 0.20676 0.0
C2805 C 0.40052 0.26249 0.20656 0.0
C2806 C 0.40051 0.23959 0.19654 0.0
C2807 C 0.37648 0.22297 0.19635 0.0
C2808 C 0.36545 0.2133 0.17013 0.0
C2809 C 0.37822 0.20249 0.21192 0.0
C2810 C 0.36296 0.24001 0.20794 0.0
C2811 C 0.37714 0.26263 0.21419 0.0
C2812 C 0.36829 0.28121 0.22539 0.0
C2813 C 0.3442 0.2766 0.22973 0.0
C2814 C 0.32937 0.25382 0.22234 0.0
C2815 C 0.33897 0.23533 0.21163 0.0
H2816 H 0.58333 0.48711 0.36625 0.0
H2817 H 0.61915 0.56185 0.37251 0.0
H2818 H 0.60606 0.5683 0.41307 0.0
H2819 H 0.53216 0.49645 0.39231 0.0
H2820 H 0.52814 0.47069 0.40893 0.0
H2821 H 0.54276 0.47047 0.38162 0.0
H2822 H 0.57963 0.46065 0.4053 0.0
H2823 H 0.56498 0.46058 0.43265 0.0
H2824 H 0.59397 0.47963 0.43246 0.0
H2825 H 0.58808 0.56785 0.45128 0.0
H2826 H 0.56489 0.56069 0.48595 0.0
H2827 H 0.53762 0.48689 0.45545 0.0
C2828 C 0.58869 0.50467 0.37645 0.0
C2829 C 0.60227 0.52404 0.36634 0.0
C2830 C 0.60866 0.54686 0.37992 0.0
C2831 C 0.60142 0.55067 0.40302 0.0
C2832 C 0.58753 0.53153 0.41227 0.0
C2833 C 0.58115 0.50894 0.39958 0.0
C2834 C 0.56465 0.49208 0.41339 0.0
C2835 C 0.54049 0.48182 0.39814 0.0
C2836 C 0.57652 0.47205 0.42142 0.0
C2837 C 0.56217 0.50904 0.43521 0.0
C2838 C 0.57603 0.53152 0.43431 0.0
C2839 C 0.57715 0.55033 0.45226 0.0
C2840 C 0.56386 0.5461 0.47183 0.0
C2841 C 0.54928 0.52335 0.47321 0.0
C2842 C 0.54831 0.50456 0.45458 0.0
H2843 H 0.2497 0.86356 0.08481 0.0
H2844 H 0.2469 0.80177 0.03276 0.0
H2845 H 0.25127 0.77745 0.06688 0.0
H2846 H 0.29432 0.85087 0.12807 0.0
H2847 H 0.28158 0.86205 0.15401 0.0
H2848 H 0.27815 0.8743 0.12549 0.0
H2849 H 0.23217 0.86439 0.12539 0.0
H2850 H 0.23553 0.85247 0.15404 0.0
H2851 H 0.21705 0.83426 0.12842 0.0
H2852 H 0.2562 0.76029 0.10737 0.0
H2853 H 0.2588 0.7514 0.15039 0.0
H2854 H 0.25844 0.82511 0.17424 0.0
C2855 C 0.24976 0.84485 0.08048 0.0
C2856 C 0.24779 0.83444 0.05621 0.0
C2857 C 0.24837 0.81002 0.05133 0.0
C2858 C 0.25091 0.79614 0.07054 0.0
C2859 C 0.25314 0.80715 0.09433 0.0
C2860 C 0.25258 0.83097 0.09927 0.0
C2861 C 0.25547 0.83881 0.12624 0.0
C2862 C 0.27876 0.85761 0.13389 0.0
C2863 C 0.23375 0.848 0.13396 0.0
C2864 C 0.25682 0.81544 0.13581 0.0
C2865 C 0.2559 0.79742 0.11727 0.0
C2866 C 0.25693 0.77426 0.12202 0.0
C2867 C 0.25847 0.76939 0.14638 0.0
C2868 C 0.25855 0.78757 0.16534 0.0
C2869 C 0.25808 0.81085 0.15996 0.0
H2870 H 0.96282 0.56005 0.86656 0.0
H2871 H 0.90517 0.49727 0.85886 0.0
H2872 H 0.91906 0.48739 0.8991 0.0
H2873 H 0.00689 0.53646 0.89327 0.0
H2874 H 0.02074 0.56132 0.91562 0.0
H2875 H 0.00466 0.56639 0.88796 0.0
H2876 H 0.97755 0.58765 0.91262 0.0
H2877 H 0.99402 0.5833 0.94043 0.0
H2878 H 0.96213 0.57276 0.93564 0.0
H2879 H 0.94141 0.48077 0.93579 0.0
H2880 H 0.96826 0.4809 0.97271 0.0
H2881 H 0.01205 0.54835 0.95909 0.0
C2882 C 0.95275 0.54482 0.87395 0.0
C2883 C 0.93283 0.52946 0.86006 0.0
C2884 C 0.92027 0.50929 0.86963 0.0
C2885 C 0.92806 0.5035 0.89234 0.0
C2886 C 0.94831 0.51829 0.90528 0.0
C2887 C 0.96018 0.53892 0.89697 0.0
C2888 C 0.98195 0.55099 0.91461 0.0
C2889 C 0.00492 0.55395 0.9021 0.0
C2890 C 0.97872 0.5751 0.92653 0.0
C2891 C 0.98126 0.53295 0.933 0.0
C2892 C 0.96145 0.51446 0.92722 0.0
C2893 C 0.95679 0.4953 0.94082 0.0
C2894 C 0.97227 0.49544 0.96158 0.0
C2895 C 0.99226 0.51453 0.96852 0.0
C2896 C 0.99712 0.53336 0.95385 0.0
H2897 H 0.27257 0.20263 0.55789 0.0
H2898 H 0.27012 0.13132 0.57885 0.0
H2899 H 0.26585 0.14557 0.62084 0.0
H2900 H 0.30786 0.23392 0.61222 0.0
H2901 H 0.29253 0.25818 0.61388 0.0
H2902 H 0.29393 0.24218 0.58483 0.0
H2903 H 0.24785 0.23315 0.57683 0.0
H2904 H 0.24632 0.24882 0.60608 0.0
H2905 H 0.2303 0.21828 0.59847 0.0
H2906 H 0.26066 0.16646 0.66013 0.0
H2907 H 0.26238 0.19465 0.6966 0.0
H2908 H 0.27144 0.25362 0.65231 0.0
C2909 C 0.27121 0.19007 0.57134 0.0
C2910 C 0.27158 0.16579 0.56488 0.0
C2911 C 0.26988 0.14998 0.58314 0.0
C2912 C 0.26723 0.15784 0.60711 0.0
C2913 C 0.26649 0.18165 0.61277 0.0
C2914 C 0.26888 0.19771 0.59563 0.0
C2915 C 0.2689 0.22266 0.6072 0.0
C2916 C 0.2922 0.24027 0.60437 0.0
C2917 C 0.24704 0.23123 0.5965 0.0
C2918 C 0.26702 0.21813 0.63358 0.0
C2919 C 0.2648 0.19416 0.63609 0.0
C2920 C 0.26247 0.18531 0.65847 0.0
C2921 C 0.26329 0.20149 0.67907 0.0
C2922 C 0.26706 0.22636 0.67731 0.0
C2923 C 0.26851 0.23471 0.65416 0.0
H2924 H 0.58679 0.47047 0.21348 0.0
H2925 H 0.58879 0.54443 0.23851 0.0
H2926 H 0.57315 0.55063 0.19717 0.0
H2927 H 0.60615 0.47748 0.15833 0.0
H2928 H 0.58616 0.45176 0.14135 0.0
H2929 H 0.59391 0.45205 0.17349 0.0
H2930 H 0.54929 0.44354 0.18006 0.0
H2931 H 0.54119 0.44324 0.14785 0.0
H2932 H 0.53083 0.463 0.16934 0.0
H2933 H 0.56171 0.54981 0.15169 0.0
H2934 H 0.55327 0.54108 0.10666 0.0
H2935 H 0.55919 0.46793 0.11191 0.0
C2936 C 0.58313 0.48772 0.21041 0.0
C2937 C 0.58871 0.50689 0.22922 0.0
C2938 C 0.58411 0.52936 0.22448 0.0
C2939 C 0.57539 0.53309 0.20101 0.0
C2940 C 0.57081 0.51402 0.18263 0.0
C2941 C 0.57399 0.4916 0.18723 0.0
C2942 C 0.5686 0.47431 0.16417 0.0
C2943 C 0.59 0.46328 0.15905 0.0
C2944 C 0.54615 0.45487 0.16544 0.0
C2945 C 0.56383 0.49093 0.14563 0.0
C2946 C 0.56451 0.51361 0.15661 0.0
C2947 C 0.56081 0.53201 0.14296 0.0
C2948 C 0.55607 0.52697 0.11749 0.0
C2949 C 0.55572 0.50393 0.10606 0.0
C2950 C 0.55961 0.48576 0.12032 0.0
H2951 H 0.2642 0.85037 0.91188 0.0
H2952 H 0.20159 0.80397 0.93196 0.0
H2953 H 0.19731 0.77885 0.89214 0.0
H2954 H 0.24491 0.84655 0.84582 0.0
H2955 H 0.27536 0.84771 0.83962 0.0
H2956 H 0.26939 0.86238 0.86764 0.0
H2957 H 0.29641 0.8382 0.89009 0.0
H2958 H 0.30045 0.82252 0.86179 0.0
H2959 H 0.2885 0.80602 0.88561 0.0
H2960 H 0.20409 0.75617 0.85211 0.0
H2961 H 0.21828 0.74068 0.81419 0.0
H2962 H 0.27574 0.80361 0.82145 0.0
C2963 C 0.24914 0.83535 0.90748 0.0
C2964 C 0.23298 0.82914 0.92444 0.0
C2965 C 0.21378 0.80913 0.91869 0.0
C2966 C 0.21138 0.79476 0.89629 0.0
C2967 C 0.22824 0.80099 0.88011 0.0
C2968 C 0.24649 0.8211 0.88541 0.0
C2969 C 0.26326 0.82343 0.86608 0.0
C2970 C 0.26317 0.84638 0.85404 0.0
C2971 C 0.28864 0.82247 0.87653 0.0
C2972 C 0.25182 0.80139 0.84893 0.0
C2973 C 0.23177 0.78845 0.8573 0.0
C2974 C 0.21948 0.76642 0.84519 0.0
C2975 C 0.22774 0.75767 0.82383 0.0
C2976 C 0.24794 0.77109 0.81487 0.0
C2977 C 0.26002 0.79315 0.82767 0.0
H2978 H 0.95791 0.54685 0.72963 0.0
H2979 H 0.89412 0.49089 0.71059 0.0
H2980 H 0.90968 0.47782 0.67296 0.0
H2981 H 0.96088 0.56302 0.6701 0.0
H2982 H 0.99294 0.56986 0.67202 0.0
H2983 H 0.97849 0.57269 0.69918 0.0
H2984 H 0.00217 0.54408 0.7186 0.0
H2985 H 0.01648 0.54097 0.69129 0.0
H2986 H 0.00046 0.51484 0.70296 0.0
H2987 H 0.93039 0.47212 0.6368 0.0
H2988 H 0.95314 0.47748 0.60125 0.0
H2989 H 0.00214 0.53868 0.64182 0.0
C2990 C 0.94754 0.53163 0.71765 0.0
C2991 C 0.92504 0.51966 0.72287 0.0
C2992 C 0.91147 0.5002 0.70669 0.0
C2993 C 0.92022 0.49251 0.68546 0.0
C2994 C 0.94243 0.50468 0.68063 0.0
C2995 C 0.95578 0.52406 0.69598 0.0
C2996 C 0.97769 0.5357 0.68493 0.0
C2997 C 0.97747 0.56186 0.68134 0.0
C2998 C 0.00056 0.53377 0.70037 0.0
C2999 C 0.97419 0.52017 0.66083 0.0
C3000 C 0.95407 0.50199 0.65904 0.0
C3001 C 0.9464 0.48602 0.63806 0.0
C3002 C 0.95939 0.48909 0.61809 0.0
C3003 C 0.97943 0.50811 0.61939 0.0
C3004 C 0.98714 0.52367 0.64094 0.0
H3005 H 0.26971 0.21347 0.43516 0.0
H3006 H 0.27665 0.14182 0.41055 0.0
H3007 H 0.27623 0.15192 0.36824 0.0
H3008 H 0.23126 0.22182 0.38522 0.0
H3009 H 0.24519 0.25259 0.38354 0.0
H3010 H 0.24688 0.24029 0.41218 0.0
H3011 H 0.29297 0.25271 0.41645 0.0
H3012 H 0.29141 0.2653 0.38792 0.0
H3013 H 0.30882 0.2431 0.39222 0.0
H3014 H 0.26919 0.16778 0.32845 0.0
H3015 H 0.2633 0.19045 0.29384 0.0
H3016 H 0.2667 0.25401 0.34359 0.0
C3017 C 0.27158 0.20009 0.42088 0.0
C3018 C 0.27326 0.17685 0.42612 0.0
C3019 C 0.27562 0.15978 0.40699 0.0
C3020 C 0.27523 0.16531 0.38288 0.0
C3021 C 0.27311 0.1882 0.37823 0.0
C3022 C 0.27198 0.20556 0.39671 0.0
C3023 C 0.27021 0.22889 0.38661 0.0
C3024 C 0.24701 0.23633 0.39223 0.0
C3025 C 0.29216 0.24867 0.39638 0.0
C3026 C 0.26992 0.22172 0.35954 0.0
C3027 C 0.27122 0.19803 0.35519 0.0
C3028 C 0.26897 0.18654 0.33166 0.0
C3029 C 0.26569 0.19966 0.31207 0.0
C3030 C 0.26549 0.22429 0.31593 0.0
C3031 C 0.26761 0.23544 0.34006 0.0
H3032 H 0.34926 0.59419 0.55452 0.0
H3033 H 0.32526 0.59019 0.47765 0.0
H3034 H 0.3588 0.57148 0.4676 0.0
H3035 H 0.41251 0.60941 0.54737 0.0
H3036 H 0.42023 0.59299 0.57192 0.0
H3037 H 0.3946 0.60622 0.57234 0.0
H3038 H 0.36814 0.5648 0.57665 0.0
H3039 H 0.39368 0.55149 0.57596 0.0
H3040 H 0.36767 0.53984 0.55435 0.0
H3041 H 0.39436 0.55086 0.4668 0.0
H3042 H 0.43052 0.53453 0.47518 0.0
H3043 H 0.43052 0.55422 0.55251 0.0
C3044 C 0.35104 0.58935 0.53556 0.0
C3045 C 0.3346 0.59324 0.51684 0.0
C3046 C 0.33773 0.58721 0.49222 0.0
C3047 C 0.35664 0.57655 0.48638 0.0
C3048 C 0.37236 0.57256 0.50541 0.0
C3049 C 0.36992 0.57924 0.52947 0.0
C3050 C 0.38938 0.57383 0.54665 0.0
C3051 C 0.40511 0.59699 0.56037 0.0
C3052 C 0.37909 0.55645 0.56444 0.0
C3053 C 0.40271 0.56222 0.52864 0.0
C3054 C 0.39282 0.5616 0.50491 0.0
C3055 C 0.40228 0.55136 0.48533 0.0
C3056 C 0.42263 0.54194 0.49024 0.0
C3057 C 0.4332 0.54308 0.51447 0.0
C3058 C 0.42287 0.55312 0.53377 0.0
H3059 H 0.84414 0.95418 0.55071 0.0
H3060 H 0.84661 0.88498 0.51376 0.0
H3061 H 0.88789 0.90033 0.50673 0.0
H3062 H 0.88011 0.9902 0.51208 0.0
H3063 H 0.89614 0.01217 0.53635 0.0
H3064 H 0.86638 0.99616 0.53922 0.0
H3065 H 0.88153 0.9822 0.57962 0.0
H3066 H 0.91134 0.99822 0.57687 0.0
H3067 H 0.90569 0.96676 0.58014 0.0
H3068 H 0.92791 0.92185 0.50281 0.0
H3069 H 0.9663 0.94919 0.5023 0.0
H3070 H 0.94071 0.00587 0.54173 0.0
C3071 C 0.85341 0.94235 0.5411 0.0
C3072 C 0.84194 0.91829 0.5328 0.0
C3073 C 0.85481 0.90338 0.52044 0.0
C3074 C 0.87837 0.91193 0.51629 0.0
C3075 C 0.88913 0.9355 0.52466 0.0
C3076 C 0.87731 0.95061 0.53689 0.0
C3077 C 0.89371 0.97517 0.54396 0.0
C3078 C 0.88346 0.99457 0.53219 0.0
C3079 C 0.89833 0.98092 0.5718 0.0
C3080 C 0.91621 0.97145 0.53321 0.0
C3081 C 0.91296 0.94828 0.52238 0.0
C3082 C 0.93075 0.94006 0.51122 0.0
C3083 C 0.95257 0.95586 0.51103 0.0
C3084 C 0.95667 0.97984 0.52189 0.0
C3085 C 0.93814 0.98773 0.53317 0.0
H3086 H 0.8421 0.07533 0.21004 0.0
H3087 H 0.8368 0.05054 0.28114 0.0
H3088 H 0.82003 0.08524 0.2947 0.0
H3089 H 0.86124 0.13851 0.23389 0.0
H3090 H 0.84589 0.14831 0.20828 0.0
H3091 H 0.85689 0.1213 0.2044 0.0
H3092 H 0.81449 0.09783 0.1869 0.0
H3093 H 0.80342 0.12474 0.19096 0.0
H3094 H 0.78991 0.09876 0.20458 0.0
H3095 H 0.80154 0.122 0.29941 0.0
H3096 H 0.78768 0.15973 0.29654 0.0
H3097 H 0.80868 0.16192 0.22355 0.0
C3098 C 0.83736 0.07724 0.22845 0.0
C3099 C 0.84041 0.06016 0.24449 0.0
C3100 C 0.83451 0.06345 0.26859 0.0
C3101 C 0.82492 0.08304 0.27639 0.0
C3102 C 0.82193 0.09953 0.26005 0.0
C3103 C 0.8285 0.09708 0.23674 0.0
C3104 C 0.82472 0.11787 0.22313 0.0
C3105 C 0.8486 0.13235 0.21707 0.0
C3106 C 0.80707 0.10927 0.20003 0.0
C3107 C 0.81422 0.132 0.24205 0.0
C3108 C 0.81262 0.12113 0.26321 0.0
C3109 C 0.80293 0.13074 0.28299 0.0
C3110 C 0.79498 0.15212 0.28116 0.0
C3111 C 0.79704 0.16382 0.25983 0.0
C3112 C 0.80679 0.15347 0.24011 0.0
H3113 H 0.69736 0.10891 0.05401 0.0
H3114 H 0.71219 0.08033 0.98354 0.0
H3115 H 0.67163 0.05446 0.9766 0.0
H3116 H 0.65955 0.05044 0.06706 0.0
H3117 H 0.64011 0.06543 0.08314 0.0
H3118 H 0.67116 0.0795 0.08372 0.0
H3119 H 0.65938 0.1167 0.06743 0.0
H3120 H 0.62842 0.10283 0.06693 0.0
H3121 H 0.63965 0.11303 0.03957 0.0
H3122 H 0.62915 0.03439 0.97607 0.0
H3123 H 0.58623 0.0232 0.98068 0.0
H3124 H 0.59861 0.06544 0.05115 0.0
C3125 C 0.69201 0.0969 0.03733 0.0
C3126 C 0.70751 0.09631 0.01926 0.0
C3127 C 0.70034 0.08062 0.99758 0.0
C3128 C 0.6775 0.06587 0.99358 0.0
C3129 C 0.66248 0.06675 0.01177 0.0
C3130 C 0.66945 0.08171 0.0333 0.0
C3131 C 0.64946 0.08002 0.04934 0.0
C3132 C 0.65543 0.06815 0.07217 0.0
C3133 C 0.6439 0.10461 0.05618 0.0
C3134 C 0.62951 0.06366 0.03242 0.0
C3135 C 0.6377 0.05537 0.01132 0.0
C3136 C 0.62258 0.04045 0.99263 0.0
C3137 C 0.59832 0.0342 0.99538 0.0
C3138 C 0.58952 0.04347 0.01627 0.0
C3139 C 0.60522 0.05807 0.03516 0.0
H3140 H 0.18541 0.42768 0.2365 0.0
H3141 H 0.184 0.44924 0.31313 0.0
H3142 H 0.20077 0.41453 0.32364 0.0
H3143 H 0.16668 0.36446 0.24086 0.0
H3144 H 0.18446 0.35651 0.21766 0.0
H3145 H 0.17295 0.38321 0.21691 0.0
H3146 H 0.21582 0.40815 0.21641 0.0
H3147 H 0.22742 0.38152 0.21735 0.0
H3148 H 0.23874 0.40664 0.24019 0.0
H3149 H 0.21989 0.37784 0.32503 0.0
H3150 H 0.23478 0.34063 0.317 0.0
H3151 H 0.2204 0.34327 0.23937 0.0
C3152 C 0.18881 0.42521 0.25552 0.0
C3153 C 0.18395 0.44126 0.27407 0.0
C3154 C 0.18789 0.43714 0.29871 0.0
C3155 C 0.19741 0.41756 0.3048 0.0
C3156 C 0.2023 0.40215 0.28595 0.0
C3157 C 0.19765 0.4056 0.2618 0.0
C3158 C 0.20321 0.38608 0.24475 0.0
C3159 C 0.18047 0.37172 0.22914 0.0
C3160 C 0.22245 0.39622 0.22874 0.0
C3161 C 0.21246 0.37141 0.263 0.0
C3162 C 0.21197 0.38084 0.28671 0.0
C3163 C 0.22021 0.37026 0.30652 0.0
C3164 C 0.2288 0.34931 0.30184 0.0
C3165 C 0.22871 0.33923 0.27761 0.0
C3166 C 0.22058 0.35057 0.2581 0.0
H3167 H 0.21564 0.46032 0.02217 0.0
H3168 H 0.18553 0.39345 0.04882 0.0
H3169 H 0.14635 0.40451 0.04797 0.0
H3170 H 0.18545 0.49723 0.05387 0.0
H3171 H 0.17964 0.51465 0.02951 0.0
H3172 H 0.20487 0.50082 0.03015 0.0
H3173 H 0.18981 0.47917 0.98688 0.0
H3174 H 0.16453 0.49306 0.98603 0.0
H3175 H 0.16002 0.46101 0.98089 0.0
H3176 H 0.11246 0.42471 0.04952 0.0
H3177 H 0.08423 0.45141 0.05004 0.0
H3178 H 0.13394 0.50442 0.01878 0.0
C3179 C 0.20058 0.44788 0.02726 0.0
C3180 C 0.20339 0.42593 0.03539 0.0
C3181 C 0.18353 0.41014 0.04223 0.0
C3182 C 0.16126 0.41631 0.04185 0.0
C3183 C 0.159 0.43814 0.03401 0.0
C3184 C 0.17793 0.45351 0.02632 0.0
C3185 C 0.1705 0.47599 0.01904 0.0
C3186 C 0.18604 0.4985 0.03405 0.0
C3187 C 0.17127 0.47739 0.99158 0.0
C3188 C 0.14495 0.47151 0.02532 0.0
C3189 C 0.13875 0.44941 0.03373 0.0
C3190 C 0.1169 0.44178 0.04243 0.0
C3191 C 0.101 0.4571 0.0427 0.0
C3192 C 0.10673 0.47974 0.03403 0.0
C3193 C 0.1289 0.48695 0.02492 0.0
H3194 H 0.8236 0.92166 0.21574 0.0
H3195 H 0.8579 0.9451 0.2894 0.0
H3196 H 0.84024 0.90629 0.30213 0.0
H3197 H 0.76834 0.88536 0.23211 0.0
H3198 H 0.76623 0.86174 0.20783 0.0
H3199 H 0.78056 0.89192 0.2041 0.0
H3200 H 0.8186 0.8776 0.19412 0.0
H3201 H 0.8044 0.84741 0.1979 0.0
H3202 H 0.83249 0.86135 0.21536 0.0
H3203 H 0.82162 0.8652 0.30714 0.0
H3204 H 0.80102 0.82296 0.30444 0.0
H3205 H 0.77702 0.82408 0.22824 0.0
C3206 C 0.82694 0.91868 0.23461 0.0
C3207 C 0.84207 0.93654 0.25161 0.0
C3208 C 0.84645 0.93176 0.27602 0.0
C3209 C 0.83648 0.90974 0.28349 0.0
C3210 C 0.82208 0.89241 0.26638 0.0
C3211 C 0.81718 0.89643 0.24246 0.0
C3212 C 0.80178 0.87395 0.22784 0.0
C3213 C 0.7778 0.87852 0.21735 0.0
C3214 C 0.81511 0.86453 0.20761 0.0
C3215 C 0.79856 0.85705 0.24748 0.0
C3216 C 0.81074 0.86819 0.26945 0.0
C3217 C 0.81174 0.85631 0.29014 0.0
C3218 C 0.8 0.83232 0.28843 0.0
C3219 C 0.78712 0.82041 0.2663 0.0
C3220 C 0.78625 0.83298 0.24554 0.0
H3221 H 0.69522 0.0702 0.73807 0.0
H3222 H 0.65989 0.08315 0.80209 0.0
H3223 H 0.6794 0.12602 0.80581 0.0
H3224 H 0.75107 0.11383 0.75634 0.0
H3225 H 0.75319 0.12256 0.7261 0.0
H3226 H 0.7384 0.09263 0.73015 0.0
H3227 H 0.70047 0.09793 0.70434 0.0
H3228 H 0.71504 0.12794 0.70039 0.0
H3229 H 0.68705 0.12255 0.71314 0.0
H3230 H 0.70155 0.16755 0.80152 0.0
H3231 H 0.72375 0.20505 0.78883 0.0
H3232 H 0.74275 0.16498 0.72631 0.0
C3233 C 0.6921 0.082 0.75319 0.0
C3234 C 0.67645 0.07349 0.77003 0.0
C3235 C 0.67204 0.08946 0.78914 0.0
C3236 C 0.68302 0.11376 0.7914 0.0
C3237 C 0.69803 0.12173 0.77418 0.0
C3238 C 0.70248 0.10636 0.75539 0.0
C3239 C 0.71776 0.11971 0.73819 0.0
C3240 C 0.74152 0.1117 0.73768 0.0
C3241 C 0.70427 0.11686 0.7125 0.0
C3242 C 0.72136 0.14496 0.75033 0.0
C3243 C 0.70998 0.14575 0.77114 0.0
C3244 C 0.71061 0.16716 0.7853 0.0
C3245 C 0.72329 0.18834 0.77796 0.0
C3246 C 0.73503 0.18788 0.75663 0.0
C3247 C 0.73393 0.16589 0.74267 0.0
loop_
_geom_bond_atom_site_label_1
_geom_bond_atom_site_label_2
_geom_bond_distance
_geom_bond_site_symmetry_2
_ccdc_geom_bond_type
O0 Cd1 2.223 . S
O0 C8 1.315 . S
Cd1 O0 2.223 . S
Cd1 O4 2.297 . S
Cd1 O5 2.439 . S
Cd1 O11 2.240 1_455 S
Cd2 O3 2.240 . S
Cd2 O10 2.223 1_455 S
Cd2 O12 2.297 . S
Cd2 O13 2.439 . S
O3 Cd2 2.240 . S
O3 C8 1.279 . S
O4 Cd1 2.297 . S
O4 C6 1.247 . S
O5 Cd1 2.439 . S
O5 C6 1.208 . S
C6 O4 1.247 . S
C6 O5 1.208 . S
C7 O12 1.247 . S
C7 O13 1.208 . S
C8 O0 1.315 . S
C8 O3 1.279 . S
C9 O10 1.315 . S
C9 O11 1.279 . S
O10 Cd2 2.223 1_655 S
O10 C9 1.315 . S
O11 Cd1 2.240 1_655 S
O11 C9 1.279 . S
O12 Cd2 2.297 . S
O12 C7 1.247 . S
O13 Cd2 2.439 . S
O13 C7 1.208 . S
O14 Cd15 2.223 1_455 S
O14 C22 1.315 1_455 S
Cd15 O14 2.223 1_655 S
Cd15 O18 2.297 . S
Cd15 O19 2.439 . S
Cd15 O25 2.240 1_655 S
Cd16 O17 2.240 1_455 S
Cd16 O24 2.223 . S
Cd16 O26 2.297 . S
Cd16 O27 2.439 . S
O17 Cd16 2.240 1_655 S
O17 C22 1.279 . S
O18 Cd15 2.297 . S
O18 C20 1.247 . S
O19 Cd15 2.439 . S
O19 C20 1.208 . S
C20 O18 1.247 . S
C20 O19 1.208 . S
C21 O26 1.247 . S
C21 O27 1.208 . S
C22 O14 1.315 1_655 S
C22 O17 1.279 . S
C23 O24 1.315 . S
C23 O25 1.279 . S
O24 Cd16 2.223 . S
O24 C23 1.315 . S
O25 Cd15 2.240 1_455 S
O25 C23 1.279 . S
O26 Cd16 2.297 . S
O26 C21 1.247 . S
O27 Cd16 2.439 . S
O27 C21 1.208 . S
O28 Cd29 2.223 . S
O28 C36 1.315 . S
Cd29 O28 2.223 . S
Cd29 O32 2.297 . S
Cd29 O33 2.439 . S
Cd29 O39 2.240 . S
Cd30 O31 2.240 . S
Cd30 O38 2.223 . S
Cd30 O40 2.297 . S
Cd30 O41 2.439 . S
O31 Cd30 2.240 . S
O31 C36 1.279 . S
O32 Cd29 2.297 . S
O32 C34 1.247 . S
O33 Cd29 2.439 . S
O33 C34 1.208 . S
C34 O32 1.247 . S
C34 O33 1.208 . S
C35 O40 1.247 . S
C35 O41 1.208 . S
C36 O28 1.315 . S
C36 O31 1.279 . S
C37 O38 1.315 . S
C37 O39 1.279 . S
O38 Cd30 2.223 . S
O38 C37 1.315 . S
O39 Cd29 2.240 . S
O39 C37 1.279 . S
O40 Cd30 2.297 . S
O40 C35 1.247 . S
O41 Cd30 2.439 . S
O41 C35 1.208 . S
O42 Cd43 2.223 . S
O42 C50 1.315 . S
Cd43 O42 2.223 . S
Cd43 O46 2.297 . S
Cd43 O47 2.439 . S
Cd43 O53 2.240 . S
Cd44 O45 2.240 . S
Cd44 O52 2.223 . S
Cd44 O54 2.297 . S
Cd44 O55 2.439 . S
O45 Cd44 2.240 . S
O45 C50 1.279 . S
O46 Cd43 2.297 . S
O46 C48 1.247 . S
O47 Cd43 2.439 . S
O47 C48 1.208 . S
C48 O46 1.247 . S
C48 O47 1.208 . S
C49 O54 1.247 . S
C49 O55 1.208 . S
C50 O42 1.315 . S
C50 O45 1.279 . S
C51 O52 1.315 . S
C51 O53 1.279 . S
O52 Cd44 2.223 . S
O52 C51 1.315 . S
O53 Cd43 2.240 . S
O53 C51 1.279 . S
O54 Cd44 2.297 . S
O54 C49 1.247 . S
O55 Cd44 2.439 . S
O55 C49 1.208 . S
O56 Cd57 2.223 . S
O56 C64 1.315 . S
Cd57 O56 2.223 . S
Cd57 O60 2.297 1_455 S
Cd57 O61 2.439 1_455 S
Cd57 O67 2.240 . S
Cd58 O59 2.240 . S
Cd58 O66 2.223 . S
Cd58 O68 2.297 . S
Cd58 O69 2.439 . S
O59 Cd58 2.240 . S
O59 C64 1.279 . S
O60 Cd57 2.297 1_655 S
O60 C62 1.247 . S
O61 Cd57 2.439 1_655 S
O61 C62 1.208 . S
C62 O60 1.247 . S
C62 O61 1.208 . S
C63 O68 1.247 . S
C63 O69 1.208 . S
C64 O56 1.315 . S
C64 O59 1.279 . S
C65 O66 1.315 . S
C65 O67 1.279 . S
O66 Cd58 2.223 . S
O66 C65 1.315 . S
O67 Cd57 2.240 . S
O67 C65 1.279 . S
O68 Cd58 2.297 . S
O68 C63 1.247 . S
O69 Cd58 2.439 . S
O69 C63 1.208 . S
O70 Cd71 2.223 . S
O70 C78 1.315 . S
Cd71 O70 2.223 . S
Cd71 O74 2.297 . S
Cd71 O75 2.439 . S
Cd71 O81 2.240 . S
Cd72 O73 2.240 . S
Cd72 O80 2.223 . S
Cd72 O82 2.297 . S
Cd72 O83 2.439 . S
O73 Cd72 2.240 . S
O73 C78 1.279 . S
O74 Cd71 2.297 . S
O74 C76 1.247 . S
O75 Cd71 2.439 . S
O75 C76 1.208 . S
C76 O74 1.247 . S
C76 O75 1.208 . S
C77 O82 1.247 . S
C77 O83 1.208 . S
C78 O70 1.315 . S
C78 O73 1.279 . S
C79 O80 1.315 . S
C79 O81 1.279 . S
O80 Cd72 2.223 . S
O80 C79 1.315 . S
O81 Cd71 2.240 . S
O81 C79 1.279 . S
O82 Cd72 2.297 . S
O82 C77 1.247 . S
O83 Cd72 2.439 . S
O83 C77 1.208 . S
O84 Cd85 2.223 . S
O84 C92 1.315 . S
Cd85 O84 2.223 . S
Cd85 O88 2.297 . S
Cd85 O89 2.439 . S
Cd85 O95 2.240 . S
Cd86 O87 2.240 . S
Cd86 O94 2.223 . S
Cd86 O96 2.297 . S
Cd86 O97 2.439 . S
O87 Cd86 2.240 . S
O87 C92 1.279 . S
O88 Cd85 2.297 . S
O88 C90 1.247 . S
O89 Cd85 2.439 . S
O89 C90 1.208 . S
C90 O88 1.247 . S
C90 O89 1.208 . S
C91 O96 1.247 . S
C91 O97 1.208 . S
C92 O84 1.315 . S
C92 O87 1.279 . S
C93 O94 1.315 . S
C93 O95 1.279 . S
O94 Cd86 2.223 . S
O94 C93 1.315 . S
O95 Cd85 2.240 . S
O95 C93 1.279 . S
O96 Cd86 2.297 . S
O96 C91 1.247 . S
O97 Cd86 2.439 . S
O97 C91 1.208 . S
O98 Cd99 2.223 1_655 S
O98 C106 1.315 . S
Cd99 O98 2.223 1_455 S
Cd99 O102 2.297 . S
Cd99 O103 2.439 . S
Cd99 O109 2.240 1_455 S
Cd100 O101 2.240 1_655 S
Cd100 O108 2.223 . S
Cd100 O110 2.297 . S
Cd100 O111 2.439 1_655 S
O101 Cd100 2.240 1_455 S
O101 C106 1.279 1_455 S
O102 Cd99 2.297 . S
O102 C104 1.247 . S
O103 Cd99 2.439 . S
O103 C104 1.208 . S
C104 O102 1.247 . S
C104 O103 1.208 . S
C105 O110 1.242 1_455 S
C105 O111 1.214 . S
C106 O98 1.315 . S
C106 O101 1.279 1_655 S
C107 O108 1.315 . S
C107 O109 1.279 . S
O108 Cd100 2.223 . S
O108 C107 1.315 . S
O109 Cd99 2.240 1_655 S
O109 C107 1.279 . S
O110 Cd100 2.297 . S
O110 C105 1.242 1_655 S
O111 Cd100 2.439 1_455 S
O111 C105 1.214 . S
O112 Cd113 2.223 . S
O112 C120 1.315 . S
Cd113 O112 2.223 . S
Cd113 O116 2.297 . S
Cd113 O117 2.439 . S
Cd113 O123 2.240 1_545 S
Cd114 O115 2.240 . S
Cd114 O122 2.223 1_545 S
Cd114 O124 2.297 . S
Cd114 O125 2.439 . S
O115 Cd114 2.240 . S
O115 C120 1.279 . S
O116 Cd113 2.297 . S
O116 C118 1.247 . S
O117 Cd113 2.439 . S
O117 C118 1.208 . S
C118 O116 1.247 . S
C118 O117 1.208 . S
C119 O124 1.247 . S
C119 O125 1.208 . S
C120 O112 1.315 . S
C120 O115 1.279 . S
C121 O122 1.315 . S
C121 O123 1.279 . S
O122 Cd114 2.223 1_565 S
O122 C121 1.315 . S
O123 Cd113 2.240 1_565 S
O123 C121 1.279 . S
O124 Cd114 2.297 . S
O124 C119 1.247 . S
O125 Cd114 2.439 . S
O125 C119 1.208 . S
O126 Cd127 2.223 . S
O126 C134 1.315 . S
Cd127 O126 2.223 . S
Cd127 O130 2.297 . S
Cd127 O131 2.439 . S
Cd127 O137 2.240 . S
Cd128 O129 2.240 . S
Cd128 O136 2.223 . S
Cd128 O138 2.297 . S
Cd128 O139 2.439 . S
O129 Cd128 2.240 . S
O129 C134 1.279 . S
O130 Cd127 2.297 . S
O130 C132 1.247 . S
O131 Cd127 2.439 . S
O131 C132 1.208 . S
C132 O130 1.247 . S
C132 O131 1.208 . S
C133 O138 1.247 . S
C133 O139 1.208 . S
C134 O126 1.315 . S
C134 O129 1.279 . S
C135 O136 1.315 . S
C135 O137 1.279 . S
O136 Cd128 2.223 . S
O136 C135 1.315 . S
O137 Cd127 2.240 . S
O137 C135 1.279 . S
O138 Cd128 2.297 . S
O138 C133 1.247 . S
O139 Cd128 2.439 . S
O139 C133 1.208 . S
O140 Cd141 2.223 . S
O140 C148 1.315 . S
Cd141 O140 2.223 . S
Cd141 O144 2.297 1_545 S
Cd141 O145 2.439 1_545 S
Cd141 O151 2.240 . S
Cd142 O143 2.240 1_545 S
Cd142 O150 2.223 . S
Cd142 O152 2.297 . S
Cd142 O153 2.439 . S
O143 Cd142 2.240 1_565 S
O143 C148 1.279 1_565 S
O144 Cd141 2.297 1_565 S
O144 C146 1.247 . S
O145 Cd141 2.439 1_565 S
O145 C146 1.208 . S
C146 O144 1.247 . S
C146 O145 1.208 . S
C147 O152 1.247 . S
C147 O153 1.208 . S
C148 O140 1.315 . S
C148 O143 1.279 1_545 S
C149 O150 1.315 . S
C149 O151 1.279 . S
O150 Cd142 2.223 . S
O150 C149 1.315 . S
O151 Cd141 2.240 . S
O151 C149 1.279 . S
O152 Cd142 2.297 . S
O152 C147 1.247 . S
O153 Cd142 2.439 . S
O153 C147 1.208 . S
O154 Cd155 2.223 . S
O154 C162 1.315 . S
Cd155 O154 2.223 . S
Cd155 O158 2.297 . S
Cd155 O159 2.439 1_554 S
Cd155 O165 2.251 . S
Cd156 O157 2.240 1_556 S
Cd156 O164 2.223 1_556 S
Cd156 O166 2.297 . S
Cd156 O167 2.439 . S
O157 Cd156 2.240 1_554 S
O157 C162 1.279 . S
O158 Cd155 2.297 . S
O158 C160 1.247 . S
O159 Cd155 2.439 1_556 S
O159 C160 1.208 1_556 S
C160 O158 1.247 . S
C160 O159 1.208 1_554 S
C161 O166 1.247 . S
C161 O167 1.208 . S
C162 O154 1.315 . S
C162 O157 1.279 . S
C163 O164 1.315 . S
C163 O165 1.286 . S
O164 Cd156 2.223 1_554 S
O164 C163 1.315 . S
O165 Cd155 2.251 . S
O165 C163 1.286 . S
O166 Cd156 2.297 . S
O166 C161 1.247 . S
O167 Cd156 2.439 . S
O167 C161 1.208 . S
O168 Cd169 2.223 . S
O168 C176 1.315 . S
Cd169 O168 2.223 . S
Cd169 O172 2.297 . S
Cd169 O173 2.439 . S
Cd169 O179 2.240 . S
Cd170 O171 2.240 . S
Cd170 O178 2.223 . S
Cd170 O180 2.297 1_554 S
Cd170 O181 2.439 1_554 S
O171 Cd170 2.240 . S
O171 C176 1.279 . S
O172 Cd169 2.297 . S
O172 C174 1.247 . S
O173 Cd169 2.439 . S
O173 C174 1.208 . S
C174 O172 1.247 . S
C174 O173 1.208 . S
C175 O180 1.247 . S
C175 O181 1.208 . S
C176 O168 1.315 . S
C176 O171 1.279 . S
C177 O178 1.315 . S
C177 O179 1.279 . S
O178 Cd170 2.223 . S
O178 C177 1.315 . S
O179 Cd169 2.240 . S
O179 C177 1.279 . S
O180 Cd170 2.297 1_556 S
O180 C175 1.247 . S
O181 Cd170 2.439 1_556 S
O181 C175 1.208 . S
O182 Cd183 2.223 . S
O182 C190 1.315 . S
Cd183 O182 2.223 . S
Cd183 O186 2.297 . S
Cd183 O187 2.439 . S
Cd183 O193 2.240 . S
Cd184 O185 2.240 . S
Cd184 O192 2.223 . S
Cd184 O194 2.297 1_554 S
Cd184 O195 2.439 1_554 S
O185 Cd184 2.240 . S
O185 C190 1.279 . S
O186 Cd183 2.297 . S
O186 C188 1.247 . S
O187 Cd183 2.439 . S
O187 C188 1.208 . S
C188 O186 1.247 . S
C188 O187 1.208 . S
C189 O194 1.247 . S
C189 O195 1.208 . S
C190 O182 1.315 . S
C190 O185 1.279 . S
C191 O192 1.315 . S
C191 O193 1.279 . S
O192 Cd184 2.223 . S
O192 C191 1.315 . S
O193 Cd183 2.240 . S
O193 C191 1.279 . S
O194 Cd184 2.297 1_556 S
O194 C189 1.247 . S
O195 Cd184 2.439 1_556 S
O195 C189 1.208 . S
O196 Cd197 2.223 . S
O196 C204 1.315 . S
Cd197 O196 2.223 . S
Cd197 O200 2.297 . S
Cd197 O201 2.439 . S
Cd197 O207 2.240 . S
Cd198 O199 2.240 . S
Cd198 O206 2.223 . S
Cd198 O208 2.297 . S
Cd198 O209 2.439 . S
O199 Cd198 2.240 . S
O199 C204 1.279 . S
O200 Cd197 2.297 . S
O200 C202 1.247 . S
O201 Cd197 2.439 . S
O201 C202 1.208 . S
C202 O200 1.247 . S
C202 O201 1.208 . S
C203 O208 1.247 . S
C203 O209 1.208 . S
C204 O196 1.315 . S
C204 O199 1.279 . S
C205 O206 1.315 . S
C205 O207 1.279 . S
O206 Cd198 2.223 . S
O206 C205 1.315 . S
O207 Cd197 2.240 . S
O207 C205 1.279 . S
O208 Cd198 2.297 . S
O208 C203 1.247 . S
O209 Cd198 2.439 . S
O209 C203 1.208 . S
O210 Cd211 2.223 . S
O210 C218 1.315 . S
Cd211 O210 2.223 . S
Cd211 O214 2.297 . S
Cd211 O215 2.439 . S
Cd211 O221 2.240 . S
Cd212 O213 2.240 . S
Cd212 O220 2.223 . S
Cd212 O222 2.297 . S
Cd212 O223 2.439 . S
O213 Cd212 2.240 . S
O213 C218 1.279 . S
O214 Cd211 2.297 . S
O214 C216 1.247 . S
O215 Cd211 2.439 . S
O215 C216 1.208 . S
C216 O214 1.247 . S
C216 O215 1.208 . S
C217 O222 1.247 . S
C217 O223 1.208 . S
C218 O210 1.315 . S
C218 O213 1.279 . S
C219 O220 1.315 . S
C219 O221 1.279 . S
O220 Cd212 2.223 . S
O220 C219 1.315 . S
O221 Cd211 2.240 . S
O221 C219 1.279 . S
O222 Cd212 2.297 . S
O222 C217 1.247 . S
O223 Cd212 2.439 . S
O223 C217 1.208 . S
O224 Cd225 2.214 1_565 S
O224 C232 1.315 1_565 S
Cd225 O224 2.214 1_545 S
Cd225 O228 2.297 . S
Cd225 O229 2.439 . S
Cd225 O235 2.240 1_545 S
Cd226 O227 2.222 1_565 S
Cd226 O234 2.249 . S
Cd226 O236 2.310 . S
Cd226 O237 2.426 1_565 S
O227 Cd226 2.222 1_545 S
O227 C232 1.279 . S
O228 Cd225 2.297 . S
O228 C230 1.247 . S
O229 Cd225 2.439 . S
O229 C230 1.208 . S
C230 O228 1.247 . S
C230 O229 1.208 . S
C231 O236 1.247 1_545 S
C231 O237 1.208 . S
C232 O224 1.315 1_545 S
C232 O227 1.279 . S
C233 O234 1.315 . S
C233 O235 1.279 . S
O234 Cd226 2.249 . S
O234 C233 1.315 . S
O235 Cd225 2.240 1_565 S
O235 C233 1.279 . S
O236 Cd226 2.310 . S
O236 C231 1.247 1_565 S
O237 Cd226 2.426 1_545 S
O237 C231 1.208 . S
O238 Cd239 2.223 . S
O238 C246 1.315 . S
Cd239 O238 2.223 . S
Cd239 O242 2.297 . S
Cd239 O243 2.439 . S
Cd239 O249 2.240 . S
Cd240 O241 2.240 . S
Cd240 O248 2.223 . S
Cd240 O250 2.297 . S
Cd240 O251 2.439 . S
O241 Cd240 2.240 . S
O241 C246 1.279 . S
O242 Cd239 2.297 . S
O242 C244 1.247 . S
O243 Cd239 2.439 . S
O243 C244 1.208 . S
C244 O242 1.247 . S
C244 O243 1.208 . S
C245 O250 1.247 . S
C245 O251 1.208 . S
C246 O238 1.315 . S
C246 O241 1.279 . S
C247 O248 1.315 . S
C247 O249 1.279 . S
O248 Cd240 2.223 . S
O248 C247 1.315 . S
O249 Cd239 2.240 . S
O249 C247 1.279 . S
O250 Cd240 2.297 . S
O250 C245 1.247 . S
O251 Cd240 2.439 . S
O251 C245 1.208 . S
O252 Cd253 2.223 . S
O252 C260 1.315 . S
Cd253 O252 2.223 . S
Cd253 O256 2.297 . S
Cd253 O257 2.439 . S
Cd253 O263 2.240 . S
Cd254 O255 2.240 . S
Cd254 O262 2.223 . S
Cd254 O264 2.297 . S
Cd254 O265 2.439 . S
O255 Cd254 2.240 . S
O255 C260 1.279 . S
O256 Cd253 2.297 . S
O256 C258 1.247 . S
O257 Cd253 2.439 . S
O257 C258 1.208 . S
C258 O256 1.247 . S
C258 O257 1.208 . S
C259 O264 1.247 . S
C259 O265 1.208 . S
C260 O252 1.315 . S
C260 O255 1.279 . S
C261 O262 1.315 . S
C261 O263 1.279 . S
O262 Cd254 2.223 . S
O262 C261 1.315 . S
O263 Cd253 2.240 . S
O263 C261 1.279 . S
O264 Cd254 2.297 . S
O264 C259 1.247 . S
O265 Cd254 2.439 . S
O265 C259 1.208 . S
O266 Cd267 2.223 1_545 S
O266 C274 1.315 1_545 S
Cd267 O266 2.223 1_565 S
Cd267 O270 2.297 . S
Cd267 O271 2.439 . S
Cd267 O277 2.240 1_565 S
Cd268 O269 2.240 1_545 S
Cd268 O276 2.223 . S
Cd268 O278 2.297 . S
Cd268 O279 2.439 1_545 S
O269 Cd268 2.240 1_565 S
O269 C274 1.279 . S
O270 Cd267 2.297 . S
O270 C272 1.247 . S
O271 Cd267 2.439 . S
O271 C272 1.208 . S
C272 O270 1.247 . S
C272 O271 1.208 . S
C273 O278 1.247 . S
C273 O279 1.208 1_545 S
C274 O266 1.315 1_565 S
C274 O269 1.279 . S
C275 O276 1.315 . S
C275 O277 1.279 . S
O276 Cd268 2.223 . S
O276 C275 1.315 . S
O277 Cd267 2.240 1_545 S
O277 C275 1.279 . S
O278 Cd268 2.297 . S
O278 C273 1.247 . S
O279 Cd268 2.439 1_565 S
O279 C273 1.208 1_565 S
O280 Cd281 2.223 . S
O280 C288 1.315 . S
Cd281 O280 2.223 . S
Cd281 O284 2.297 . S
Cd281 O285 2.439 1_554 S
Cd281 O291 2.240 1_554 S
Cd282 O283 2.240 1_556 S
Cd282 O290 2.223 1_556 S
Cd282 O292 2.297 . S
Cd282 O293 2.439 . S
O283 Cd282 2.240 1_554 S
O283 C288 1.279 . S
O284 Cd281 2.297 . S
O284 C286 1.247 . S
O285 Cd281 2.439 1_556 S
O285 C286 1.208 1_556 S
C286 O284 1.247 . S
C286 O285 1.208 1_554 S
C287 O292 1.247 . S
C287 O293 1.208 . S
C288 O280 1.315 . S
C288 O283 1.279 . S
C289 O290 1.315 1_556 S
C289 O291 1.279 . S
O290 Cd282 2.223 1_554 S
O290 C289 1.315 1_554 S
O291 Cd281 2.240 1_556 S
O291 C289 1.279 . S
O292 Cd282 2.297 . S
O292 C287 1.247 . S
O293 Cd282 2.439 . S
O293 C287 1.208 . S
O294 Cd295 2.223 . S
O294 C302 1.315 . S
Cd295 O294 2.223 . S
Cd295 O298 2.297 . S
Cd295 O299 2.439 . S
Cd295 O305 2.240 . S
Cd296 O297 2.240 . S
Cd296 O304 2.223 . S
Cd296 O306 2.297 . S
Cd296 O307 2.439 . S
O297 Cd296 2.240 . S
O297 C302 1.279 . S
O298 Cd295 2.297 . S
O298 C300 1.247 . S
O299 Cd295 2.439 . S
O299 C300 1.208 . S
C300 O298 1.247 . S
C300 O299 1.208 . S
C301 O306 1.247 . S
C301 O307 1.208 . S
C302 O294 1.315 . S
C302 O297 1.279 . S
C303 O304 1.315 . S
C303 O305 1.279 . S
O304 Cd296 2.223 . S
O304 C303 1.315 . S
O305 Cd295 2.240 . S
O305 C303 1.279 . S
O306 Cd296 2.297 . S
O306 C301 1.247 . S
O307 Cd296 2.439 . S
O307 C301 1.208 . S
O308 Cd309 2.223 . S
O308 C316 1.315 . S
Cd309 O308 2.223 . S
Cd309 O312 2.297 . S
Cd309 O313 2.439 . S
Cd309 O319 2.240 . S
Cd310 O311 2.240 . S
Cd310 O318 2.223 . S
Cd310 O320 2.297 . S
Cd310 O321 2.439 . S
O311 Cd310 2.240 . S
O311 C316 1.279 . S
O312 Cd309 2.297 . S
O312 C314 1.247 . S
O313 Cd309 2.439 . S
O313 C314 1.208 . S
C314 O312 1.247 . S
C314 O313 1.208 . S
C315 O320 1.247 . S
C315 O321 1.208 . S
C316 O308 1.315 . S
C316 O311 1.279 . S
C317 O318 1.315 . S
C317 O319 1.279 . S
O318 Cd310 2.223 . S
O318 C317 1.315 . S
O319 Cd309 2.240 . S
O319 C317 1.279 . S
O320 Cd310 2.297 . S
O320 C315 1.247 . S
O321 Cd310 2.439 . S
O321 C315 1.208 . S
O322 Cd323 2.223 . S
O322 C330 1.315 . S
Cd323 O322 2.223 . S
Cd323 O326 2.297 . S
Cd323 O327 2.439 . S
Cd323 O333 2.240 . S
Cd324 O325 2.240 . S
Cd324 O332 2.223 . S
Cd324 O334 2.297 . S
Cd324 O335 2.439 . S
O325 Cd324 2.240 . S
O325 C330 1.279 . S
O326 Cd323 2.297 . S
O326 C328 1.247 . S
O327 Cd323 2.439 . S
O327 C328 1.208 . S
C328 O326 1.247 . S
C328 O327 1.208 . S
C329 O334 1.247 . S
C329 O335 1.208 . S
C330 O322 1.315 . S
C330 O325 1.279 . S
C331 O332 1.315 . S
C331 O333 1.279 . S
O332 Cd324 2.223 . S
O332 C331 1.315 . S
O333 Cd323 2.240 . S
O333 C331 1.279 . S
O334 Cd324 2.297 . S
O334 C329 1.247 . S
O335 Cd324 2.439 . S
O335 C329 1.208 . S
Zn336 O342 1.969 1_565 S
Zn336 O343 1.965 1_565 S
Zn336 O347 2.024 . S
Zn336 O352 1.969 1_565 S
Zn337 O344 1.969 1_654 S
Zn337 O350 1.969 1_554 S
Zn337 O351 1.965 . S
Zn337 O353 2.024 1_655 S
C338 O339 1.229 . S
C338 O347 1.058 . S
O339 C338 1.229 . S
C340 O341 1.247 1_554 S
C340 O353 1.058 . S
O341 C340 1.247 1_556 S
O342 Zn336 1.969 1_545 S
O342 C345 1.267 1_545 S
O343 Zn336 1.965 1_545 S
O343 C354 1.260 1_554 S
O344 Zn337 1.969 1_456 S
O344 C354 1.258 . S
C345 O342 1.267 1_565 S
C345 O346 1.228 . S
O346 C345 1.228 . S
O347 Zn336 2.024 . S
O347 C338 1.058 . S
C348 O349 1.228 . S
C348 O350 1.267 1_554 S
O349 C348 1.228 . S
O350 Zn337 1.969 1_556 S
O350 C348 1.267 1_556 S
O351 Zn337 1.965 . S
O351 C355 1.260 1_655 S
O352 Zn336 1.969 1_545 S
O352 C355 1.258 . S
O353 Zn337 2.024 1_455 S
O353 C340 1.058 . S
C354 O343 1.260 1_556 S
C354 O344 1.258 . S
C355 O351 1.260 1_455 S
C355 O352 1.258 . S
Zn356 O362 1.969 . S
Zn356 O363 1.965 . S
Zn356 O367 2.024 . S
Zn356 O372 1.969 . S
Zn357 O364 1.969 . S
Zn357 O370 1.969 . S
Zn357 O371 1.965 . S
Zn357 O373 2.024 . S
C358 O359 1.229 . S
C358 O367 1.058 . S
O359 C358 1.229 . S
C360 O361 1.229 . S
C360 O373 1.058 . S
O361 C360 1.229 . S
O362 Zn356 1.969 . S
O362 C365 1.267 . S
O363 Zn356 1.965 . S
O363 C374 1.260 . S
O364 Zn357 1.969 . S
O364 C374 1.258 . S
C365 O362 1.267 . S
C365 O366 1.228 . S
O366 C365 1.228 . S
O367 Zn356 2.024 . S
O367 C358 1.058 . S
C368 O369 1.228 . S
C368 O370 1.267 . S
O369 C368 1.228 . S
O370 Zn357 1.969 . S
O370 C368 1.267 . S
O371 Zn357 1.965 . S
O371 C375 1.260 . S
O372 Zn356 1.969 . S
O372 C375 1.258 . S
O373 Zn357 2.024 . S
O373 C360 1.058 . S
C374 O363 1.260 . S
C374 O364 1.258 . S
C375 O371 1.260 . S
C375 O372 1.258 . S
Zn376 O382 1.969 . S
Zn376 O383 1.965 . S
Zn376 O387 2.024 . S
Zn376 O392 1.969 . S
Zn377 O384 1.969 . S
Zn377 O390 1.969 . S
Zn377 O391 1.965 1_565 S
Zn377 O393 2.024 . S
C378 O379 1.229 . S
C378 O387 1.058 . S
O379 C378 1.229 . S
C380 O381 1.229 . S
C380 O393 1.058 . S
O381 C380 1.229 . S
O382 Zn376 1.969 . S
O382 C385 1.267 . S
O383 Zn376 1.965 . S
O383 C394 1.260 . S
O384 Zn377 1.969 . S
O384 C394 1.258 1_565 S
C385 O382 1.267 . S
C385 O386 1.228 . S
O386 C385 1.228 . S
O387 Zn376 2.024 . S
O387 C378 1.058 . S
C388 O389 1.228 . S
C388 O390 1.267 . S
O389 C388 1.228 . S
O390 Zn377 1.969 . S
O390 C388 1.267 . S
O391 Zn377 1.965 1_545 S
O391 C395 1.260 . S
O392 Zn376 1.969 . S
O392 C395 1.258 . S
O393 Zn377 2.024 . S
O393 C380 1.058 . S
C394 O383 1.260 . S
C394 O384 1.258 1_545 S
C395 O391 1.260 . S
C395 O392 1.258 . S
Zn396 O402 1.969 . S
Zn396 O403 1.965 . S
Zn396 O407 2.024 . S
Zn396 O412 1.969 . S
Zn397 O404 1.969 . S
Zn397 O410 1.969 . S
Zn397 O411 1.965 . S
Zn397 O413 2.024 . S
C398 O399 1.229 . S
C398 O407 1.058 . S
O399 C398 1.229 . S
C400 O401 1.229 . S
C400 O413 1.058 . S
O401 C400 1.229 . S
O402 Zn396 1.969 . S
O402 C405 1.267 . S
O403 Zn396 1.965 . S
O403 C414 1.260 . S
O404 Zn397 1.969 . S
O404 C414 1.258 . S
C405 O402 1.267 . S
C405 O406 1.228 . S
O406 C405 1.228 . S
O407 Zn396 2.024 . S
O407 C398 1.058 . S
C408 O409 1.228 . S
C408 O410 1.267 . S
O409 C408 1.228 . S
O410 Zn397 1.969 . S
O410 C408 1.267 . S
O411 Zn397 1.965 . S
O411 C415 1.260 . S
O412 Zn396 1.969 . S
O412 C415 1.258 . S
O413 Zn397 2.024 . S
O413 C400 1.058 . S
C414 O403 1.260 . S
C414 O404 1.258 . S
C415 O411 1.260 . S
C415 O412 1.258 . S
Zn416 O422 1.969 . S
Zn416 O423 1.965 . S
Zn416 O427 2.024 1_565 S
Zn416 O432 1.969 1_565 S
Zn417 O424 1.969 1_455 S
Zn417 O430 1.969 . S
Zn417 O431 1.965 . S
Zn417 O433 2.024 . S
C418 O419 1.229 1_545 S
C418 O427 1.058 . S
O419 C418 1.229 1_565 S
C420 O421 1.229 . S
C420 O433 1.058 1_655 S
O421 C420 1.229 . S
O422 Zn416 1.969 . S
O422 C425 1.267 . S
O423 Zn416 1.965 . S
O423 C434 1.260 1_455 S
O424 Zn417 1.969 1_655 S
O424 C434 1.258 1_545 S
C425 O422 1.267 . S
C425 O426 1.228 . S
O426 C425 1.228 . S
O427 Zn416 2.024 1_545 S
O427 C418 1.058 . S
C428 O429 1.228 . S
C428 O430 1.267 . S
O429 C428 1.228 . S
O430 Zn417 1.969 . S
O430 C428 1.267 . S
O431 Zn417 1.965 . S
O431 C435 1.260 . S
O432 Zn416 1.969 1_545 S
O432 C435 1.258 . S
O433 Zn417 2.024 . S
O433 C420 1.058 1_455 S
C434 O423 1.260 1_655 S
C434 O424 1.258 1_565 S
C435 O431 1.260 . S
C435 O432 1.258 . S
Zn436 O442 1.969 . S
Zn436 O443 1.965 . S
Zn436 O447 2.024 . S
Zn436 O452 1.969 . S
Zn437 O444 1.969 . S
Zn437 O450 1.969 . S
Zn437 O451 1.965 . S
Zn437 O453 2.024 . S
C438 O439 1.229 . S
C438 O447 1.058 . S
O439 C438 1.229 . S
C440 O441 1.229 . S
C440 O453 1.058 . S
O441 C440 1.229 . S
O442 Zn436 1.969 . S
O442 C445 1.267 . S
O443 Zn436 1.965 . S
O443 C454 1.260 . S
O444 Zn437 1.969 . S
O444 C454 1.258 . S
C445 O442 1.267 . S
C445 O446 1.228 . S
O446 C445 1.228 . S
O447 Zn436 2.024 . S
O447 C438 1.058 . S
C448 O449 1.228 . S
C448 O450 1.267 . S
O449 C448 1.228 . S
O450 Zn437 1.969 . S
O450 C448 1.267 . S
O451 Zn437 1.965 . S
O451 C455 1.260 . S
O452 Zn436 1.969 . S
O452 C455 1.258 . S
O453 Zn437 2.024 . S
O453 C440 1.058 . S
C454 O443 1.260 . S
C454 O444 1.258 . S
C455 O451 1.260 . S
C455 O452 1.258 . S
Zn456 O462 1.969 1_554 S
Zn456 O463 1.965 1_545 S
Zn456 O467 2.024 . S
Zn456 O472 1.969 . S
Zn457 O464 1.969 . S
Zn457 O470 1.969 . S
Zn457 O471 1.965 1_565 S
Zn457 O473 2.024 . S
C458 O459 1.229 . S
C458 O467 1.058 . S
O459 C458 1.229 . S
C460 O461 1.229 . S
C460 O473 1.058 . S
O461 C460 1.229 . S
O462 Zn456 1.969 1_556 S
O462 C465 1.267 . S
O463 Zn456 1.965 1_565 S
O463 C474 1.260 . S
O464 Zn457 1.969 . S
O464 C474 1.258 . S
C465 O462 1.267 . S
C465 O466 1.228 . S
O466 C465 1.228 . S
O467 Zn456 2.024 . S
O467 C458 1.058 . S
C468 O469 1.228 1_565 S
C468 O470 1.267 . S
O469 C468 1.228 1_545 S
O470 Zn457 1.969 . S
O470 C468 1.267 . S
O471 Zn457 1.965 1_545 S
O471 C475 1.260 . S
O472 Zn456 1.969 . S
O472 C475 1.258 . S
O473 Zn457 2.024 . S
O473 C460 1.058 . S
C474 O463 1.260 . S
C474 O464 1.258 . S
C475 O471 1.260 . S
C475 O472 1.258 . S
Zn476 O482 1.969 . S
Zn476 O483 1.965 . S
Zn476 O487 2.024 . S
Zn476 O492 1.969 . S
Zn477 O484 1.969 . S
Zn477 O490 1.969 . S
Zn477 O491 1.965 . S
Zn477 O493 2.024 . S
C478 O479 1.229 . S
C478 O487 1.058 . S
O479 C478 1.229 . S
C480 O481 1.229 . S
C480 O493 1.058 . S
O481 C480 1.229 . S
O482 Zn476 1.969 . S
O482 C485 1.267 . S
O483 Zn476 1.965 . S
O483 C494 1.260 . S
O484 Zn477 1.969 . S
O484 C494 1.258 . S
C485 O482 1.267 . S
C485 O486 1.228 . S
O486 C485 1.228 . S
O487 Zn476 2.024 . S
O487 C478 1.058 . S
C488 O489 1.228 . S
C488 O490 1.267 . S
O489 C488 1.228 . S
O490 Zn477 1.969 . S
O490 C488 1.267 . S
O491 Zn477 1.965 . S
O491 C495 1.260 . S
O492 Zn476 1.969 . S
O492 C495 1.258 . S
O493 Zn477 2.024 . S
O493 C480 1.058 . S
C494 O483 1.260 . S
C494 O484 1.258 . S
C495 O491 1.260 . S
C495 O492 1.258 . S
Zn496 O502 1.969 . S
Zn496 O503 1.965 . S
Zn496 O507 2.024 . S
Zn496 O512 1.969 . S
Zn497 O504 1.969 1_556 S
Zn497 O510 1.969 1_556 S
Zn497 O511 1.965 1_556 S
Zn497 O513 2.024 . S
C498 O499 1.229 . S
C498 O507 1.058 . S
O499 C498 1.229 . S
C500 O501 1.229 . S
C500 O513 1.058 . S
O501 C500 1.229 . S
O502 Zn496 1.969 . S
O502 C505 1.267 . S
O503 Zn496 1.965 . S
O503 C514 1.260 . S
O504 Zn497 1.969 1_554 S
O504 C514 1.258 . S
C505 O502 1.267 . S
C505 O506 1.228 . S
O506 C505 1.228 . S
O507 Zn496 2.024 . S
O507 C498 1.058 . S
C508 O509 1.228 . S
C508 O510 1.267 1_556 S
O509 C508 1.228 . S
O510 Zn497 1.969 1_554 S
O510 C508 1.267 1_554 S
O511 Zn497 1.965 1_554 S
O511 C515 1.260 . S
O512 Zn496 1.969 . S
O512 C515 1.258 . S
O513 Zn497 2.024 . S
O513 C500 1.058 . S
C514 O503 1.260 . S
C514 O504 1.258 . S
C515 O511 1.260 . S
C515 O512 1.258 . S
Zn516 O522 1.969 . S
Zn516 O523 1.965 . S
Zn516 O527 2.024 . S
Zn516 O532 1.969 . S
Zn517 O524 1.969 . S
Zn517 O530 1.969 . S
Zn517 O531 1.965 . S
Zn517 O533 2.024 . S
C518 O519 1.229 . S
C518 O527 1.058 . S
O519 C518 1.229 . S
C520 O521 1.229 . S
C520 O533 1.058 . S
O521 C520 1.229 . S
O522 Zn516 1.969 . S
O522 C525 1.267 . S
O523 Zn516 1.965 . S
O523 C534 1.260 . S
O524 Zn517 1.969 . S
O524 C534 1.258 . S
C525 O522 1.267 . S
C525 O526 1.228 . S
O526 C525 1.228 . S
O527 Zn516 2.024 . S
O527 C518 1.058 . S
C528 O529 1.228 . S
C528 O530 1.267 . S
O529 C528 1.228 . S
O530 Zn517 1.969 . S
O530 C528 1.267 . S
O531 Zn517 1.965 . S
O531 C535 1.260 . S
O532 Zn516 1.969 . S
O532 C535 1.258 . S
O533 Zn517 2.024 . S
O533 C520 1.058 . S
C534 O523 1.260 . S
C534 O524 1.258 . S
C535 O531 1.260 . S
C535 O532 1.258 . S
Zn536 O542 1.969 . S
Zn536 O543 1.965 . S
Zn536 O547 2.024 . S
Zn536 O552 1.969 . S
Zn537 O544 1.969 . S
Zn537 O550 1.969 . S
Zn537 O551 1.965 1_655 S
Zn537 O553 2.024 . S
C538 O539 1.229 . S
C538 O547 1.058 . S
O539 C538 1.229 . S
C540 O541 1.229 . S
C540 O553 1.058 . S
O541 C540 1.229 . S
O542 Zn536 1.969 . S
O542 C545 1.267 . S
O543 Zn536 1.965 . S
O543 C554 1.260 . S
O544 Zn537 1.969 . S
O544 C554 1.258 1_655 S
C545 O542 1.267 . S
C545 O546 1.228 . S
O546 C545 1.228 . S
O547 Zn536 2.024 . S
O547 C538 1.058 . S
C548 O549 1.228 . S
C548 O550 1.267 . S
O549 C548 1.228 . S
O550 Zn537 1.969 . S
O550 C548 1.267 . S
O551 Zn537 1.965 1_455 S
O551 C555 1.260 . S
O552 Zn536 1.969 . S
O552 C555 1.258 . S
O553 Zn537 2.024 . S
O553 C540 1.058 . S
C554 O543 1.260 . S
C554 O544 1.258 1_455 S
C555 O551 1.260 . S
C555 O552 1.258 . S
Zn556 O562 1.969 . S
Zn556 O563 1.965 . S
Zn556 O567 2.024 . S
Zn556 O572 1.969 . S
Zn557 O564 1.969 . S
Zn557 O570 1.969 . S
Zn557 O571 1.965 . S
Zn557 O573 2.024 . S
C558 O559 1.229 . S
C558 O567 1.058 . S
O559 C558 1.229 . S
C560 O561 1.229 . S
C560 O573 1.058 . S
O561 C560 1.229 . S
O562 Zn556 1.969 . S
O562 C565 1.267 . S
O563 Zn556 1.965 . S
O563 C574 1.260 . S
O564 Zn557 1.969 . S
O564 C574 1.258 . S
C565 O562 1.267 . S
C565 O566 1.228 . S
O566 C565 1.228 . S
O567 Zn556 2.024 . S
O567 C558 1.058 . S
C568 O569 1.228 . S
C568 O570 1.267 . S
O569 C568 1.228 . S
O570 Zn557 1.969 . S
O570 C568 1.267 . S
O571 Zn557 1.965 . S
O571 C575 1.260 . S
O572 Zn556 1.969 . S
O572 C575 1.258 . S
O573 Zn557 2.024 . S
O573 C560 1.058 . S
C574 O563 1.260 . S
C574 O564 1.258 . S
C575 O571 1.260 . S
C575 O572 1.258 . S
Zn576 O582 1.969 . S
Zn576 O583 1.965 . S
Zn576 O587 2.024 . S
Zn576 O592 1.969 . S
Zn577 O584 1.969 . S
Zn577 O590 1.969 . S
Zn577 O591 1.965 . S
Zn577 O593 2.024 . S
C578 O579 1.229 . S
C578 O587 1.058 . S
O579 C578 1.229 . S
C580 O581 1.229 . S
C580 O593 1.058 . S
O581 C580 1.229 . S
O582 Zn576 1.969 . S
O582 C585 1.267 . S
O583 Zn576 1.965 . S
O583 C594 1.260 . S
O584 Zn577 1.969 . S
O584 C594 1.258 . S
C585 O582 1.267 . S
C585 O586 1.228 . S
O586 C585 1.228 . S
O587 Zn576 2.024 . S
O587 C578 1.058 . S
C588 O589 1.228 . S
C588 O590 1.267 . S
O589 C588 1.228 . S
O590 Zn577 1.969 . S
O590 C588 1.267 . S
O591 Zn577 1.965 . S
O591 C595 1.260 . S
O592 Zn576 1.969 . S
O592 C595 1.258 . S
O593 Zn577 2.024 . S
O593 C580 1.058 . S
C594 O583 1.260 . S
C594 O584 1.258 . S
C595 O591 1.260 . S
C595 O592 1.258 . S
Zn596 O602 1.969 . S
Zn596 O603 1.965 . S
Zn596 O607 2.024 . S
Zn596 O612 1.969 . S
Zn597 O604 1.969 . S
Zn597 O610 1.969 . S
Zn597 O611 1.965 . S
Zn597 O613 2.024 . S
C598 O599 1.229 . S
C598 O607 1.058 . S
O599 C598 1.229 . S
C600 O601 1.229 . S
C600 O613 1.058 . S
O601 C600 1.229 . S
O602 Zn596 1.969 . S
O602 C605 1.267 . S
O603 Zn596 1.965 . S
O603 C614 1.260 . S
O604 Zn597 1.969 . S
O604 C614 1.258 . S
C605 O602 1.267 . S
C605 O606 1.228 . S
O606 C605 1.228 . S
O607 Zn596 2.024 . S
O607 C598 1.058 . S
C608 O609 1.228 . S
C608 O610 1.267 . S
O609 C608 1.228 . S
O610 Zn597 1.969 . S
O610 C608 1.267 . S
O611 Zn597 1.965 . S
O611 C615 1.260 . S
O612 Zn596 1.969 . S
O612 C615 1.258 . S
O613 Zn597 2.024 . S
O613 C600 1.058 . S
C614 O603 1.260 . S
C614 O604 1.258 . S
C615 O611 1.260 . S
C615 O612 1.258 . S
Zn616 O622 1.969 . S
Zn616 O623 1.965 . S
Zn616 O627 2.024 . S
Zn616 O632 1.969 . S
Zn617 O624 1.969 . S
Zn617 O630 1.969 . S
Zn617 O631 1.965 . S
Zn617 O633 2.024 . S
C618 O619 1.229 . S
C618 O627 1.058 . S
O619 C618 1.229 . S
C620 O621 1.229 . S
C620 O633 1.058 . S
O621 C620 1.229 . S
O622 Zn616 1.969 . S
O622 C625 1.267 . S
O623 Zn616 1.965 . S
O623 C634 1.260 . S
O624 Zn617 1.969 . S
O624 C634 1.258 . S
C625 O622 1.267 . S
C625 O626 1.228 . S
O626 C625 1.228 . S
O627 Zn616 2.024 . S
O627 C618 1.058 . S
C628 O629 1.228 . S
C628 O630 1.267 . S
O629 C628 1.228 . S
O630 Zn617 1.969 . S
O630 C628 1.267 . S
O631 Zn617 1.965 . S
O631 C635 1.260 . S
O632 Zn616 1.969 . S
O632 C635 1.258 . S
O633 Zn617 2.024 . S
O633 C620 1.058 . S
C634 O623 1.260 . S
C634 O624 1.258 . S
C635 O631 1.260 . S
C635 O632 1.258 . S
Zn636 O642 1.969 . S
Zn636 O643 1.965 . S
Zn636 O647 2.024 1_655 S
Zn636 O652 1.969 1_655 S
Zn637 O644 1.973 . S
Zn637 O650 1.969 . S
Zn637 O651 1.965 . S
Zn637 O653 2.024 . S
C638 O639 1.229 . S
C638 O647 1.058 . S
O639 C638 1.229 . S
C640 O641 1.229 1_554 S
C640 O653 1.058 . S
O641 C640 1.229 1_556 S
O642 Zn636 1.969 . S
O642 C645 1.267 . S
O643 Zn636 1.965 . S
O643 C654 1.260 1_655 S
O644 Zn637 1.973 . S
O644 C654 1.258 . S
C645 O642 1.267 . S
C645 O646 1.228 . S
O646 C645 1.228 . S
O647 Zn636 2.024 1_455 S
O647 C638 1.058 . S
C648 O649 1.228 . S
C648 O650 1.267 . S
O649 C648 1.228 . S
O650 Zn637 1.969 . S
O650 C648 1.267 . S
O651 Zn637 1.965 . S
O651 C655 1.260 . S
O652 Zn636 1.969 1_455 S
O652 C655 1.258 . S
O653 Zn637 2.024 . S
O653 C640 1.058 . S
C654 O643 1.260 1_455 S
C654 O644 1.258 . S
C655 O651 1.260 . S
C655 O652 1.258 . S
H656 C668 0.930 . S
H657 C670 0.930 . S
H658 C671 0.933 . S
H659 C675 0.959 1_655 S
H660 C675 0.959 . S
H661 C675 0.961 1_655 S
H662 C676 0.960 . S
H663 C676 0.961 . S
H664 C676 0.959 . S
H665 C679 0.929 . S
H666 C680 0.931 . S
H667 C682 0.930 . S
C668 H656 0.930 . S
C668 C669 1.399 1_455 S
C668 C673 1.399 . S
C669 C668 1.399 1_655 S
C669 C670 1.376 . S
C670 H657 0.930 . S
C670 C669 1.376 . S
C670 C671 1.391 . S
C671 H658 0.933 . S
C671 C670 1.391 . S
C671 C672 1.384 1_655 S
C672 C671 1.384 1_455 S
C672 C673 1.394 . S
C672 C678 1.465 . S
C673 C668 1.399 . S
C673 C672 1.394 . S
C673 C674 1.516 . S
C674 C673 1.516 . S
C674 C675 1.502 . S
C674 C676 1.561 . S
C674 C677 1.526 . S
C675 H659 0.959 1_455 S
C675 H660 0.959 . S
C675 H661 0.961 1_455 S
C675 C674 1.502 . S
C676 H662 0.960 . S
C676 H663 0.961 . S
C676 H664 0.959 . S
C676 C674 1.561 . S
C677 C674 1.526 . S
C677 C678 1.396 . S
C677 C682 1.390 . S
C678 C672 1.465 . S
C678 C677 1.396 . S
C678 C679 1.399 1_556 S
C679 H665 0.929 . S
C679 C678 1.399 1_554 S
C679 C680 1.385 . S
C680 H666 0.931 . S
C680 C679 1.385 . S
C680 C681 1.411 . S
C681 C680 1.411 . S
C681 C682 1.340 1_554 S
C682 H667 0.930 . S
C682 C677 1.390 . S
C682 C681 1.340 1_556 S
H683 C695 0.930 . S
H684 C697 0.930 . S
H685 C698 0.930 . S
H686 C702 0.959 . S
H687 C702 0.959 . S
H688 C702 0.961 . S
H689 C703 0.960 . S
H690 C703 0.961 . S
H691 C703 0.959 . S
H692 C706 0.929 . S
H693 C707 0.931 . S
H694 C709 0.930 . S
C695 H683 0.930 . S
C695 C696 1.399 . S
C695 C700 1.399 . S
C696 C695 1.399 . S
C696 C697 1.376 . S
C697 H684 0.930 . S
C697 C696 1.376 . S
C697 C698 1.388 . S
C698 H685 0.930 . S
C698 C697 1.388 . S
C698 C699 1.390 . S
C699 C698 1.390 . S
C699 C700 1.394 . S
C699 C705 1.465 . S
C700 C695 1.399 . S
C700 C699 1.394 . S
C700 C701 1.516 . S
C701 C700 1.516 . S
C701 C702 1.502 . S
C701 C703 1.561 . S
C701 C704 1.526 . S
C702 H686 0.959 . S
C702 H687 0.959 . S
C702 H688 0.961 . S
C702 C701 1.502 . S
C703 H689 0.960 . S
C703 H690 0.961 . S
C703 H691 0.959 . S
C703 C701 1.561 . S
C704 C701 1.526 . S
C704 C705 1.396 . S
C704 C709 1.390 . S
C705 C699 1.465 . S
C705 C704 1.396 . S
C705 C706 1.399 . S
C706 H692 0.929 . S
C706 C705 1.399 . S
C706 C707 1.385 . S
C707 H693 0.931 . S
C707 C706 1.385 . S
C707 C708 1.389 . S
C708 C707 1.389 . S
C708 C709 1.387 . S
C709 H694 0.930 . S
C709 C704 1.390 . S
C709 C708 1.387 . S
H710 C722 0.930 . S
H711 C724 0.930 . S
H712 C725 0.930 . S
H713 C729 0.959 . S
H714 C729 0.959 . S
H715 C729 0.961 . S
H716 C730 0.960 . S
H717 C730 0.961 . S
H718 C730 0.959 . S
H719 C733 0.929 . S
H720 C734 0.931 . S
H721 C736 0.930 . S
C722 H710 0.930 . S
C722 C723 1.399 . S
C722 C727 1.399 . S
C723 C722 1.399 . S
C723 C724 1.376 . S
C724 H711 0.930 . S
C724 C723 1.376 . S
C724 C725 1.388 . S
C725 H712 0.930 . S
C725 C724 1.388 . S
C725 C726 1.390 . S
C726 C725 1.390 . S
C726 C727 1.394 . S
C726 C732 1.465 . S
C727 C722 1.399 . S
C727 C726 1.394 . S
C727 C728 1.516 . S
C728 C727 1.516 . S
C728 C729 1.502 . S
C728 C730 1.561 . S
C728 C731 1.526 . S
C729 H713 0.959 . S
C729 H714 0.959 . S
C729 H715 0.961 . S
C729 C728 1.502 . S
C730 H716 0.960 . S
C730 H717 0.961 . S
C730 H718 0.959 . S
C730 C728 1.561 . S
C731 C728 1.526 . S
C731 C732 1.396 . S
C731 C736 1.390 . S
C732 C726 1.465 . S
C732 C731 1.396 . S
C732 C733 1.399 . S
C733 H719 0.929 . S
C733 C732 1.399 . S
C733 C734 1.385 . S
C734 H720 0.931 . S
C734 C733 1.385 . S
C734 C735 1.389 . S
C735 C734 1.389 . S
C735 C736 1.387 . S
C736 H721 0.930 . S
C736 C731 1.390 . S
C736 C735 1.387 . S
H737 C749 0.930 . S
H738 C751 0.930 . S
H739 C752 0.930 . S
H740 C756 0.959 . S
H741 C756 0.959 . S
H742 C756 0.961 . S
H743 C757 0.960 . S
H744 C757 0.961 . S
H745 C757 0.959 . S
H746 C760 0.929 . S
H747 C761 0.931 . S
H748 C763 0.930 . S
C749 H737 0.930 . S
C749 C750 1.399 . S
C749 C754 1.399 . S
C750 C749 1.399 . S
C750 C751 1.376 . S
C751 H738 0.930 . S
C751 C750 1.376 . S
C751 C752 1.388 . S
C752 H739 0.930 . S
C752 C751 1.388 . S
C752 C753 1.390 . S
C753 C752 1.390 . S
C753 C754 1.394 . S
C753 C759 1.465 . S
C754 C749 1.399 . S
C754 C753 1.394 . S
C754 C755 1.516 . S
C755 C754 1.516 . S
C755 C756 1.502 . S
C755 C757 1.561 . S
C755 C758 1.526 . S
C756 H740 0.959 . S
C756 H741 0.959 . S
C756 H742 0.961 . S
C756 C755 1.502 . S
C757 H743 0.960 . S
C757 H744 0.961 . S
C757 H745 0.959 . S
C757 C755 1.561 . S
C758 C755 1.526 . S
C758 C759 1.396 . S
C758 C763 1.390 . S
C759 C753 1.465 . S
C759 C758 1.396 . S
C759 C760 1.399 . S
C760 H746 0.929 . S
C760 C759 1.399 . S
C760 C761 1.385 . S
C761 H747 0.931 . S
C761 C760 1.385 . S
C761 C762 1.389 . S
C762 C761 1.389 . S
C762 C763 1.387 . S
C763 H748 0.930 . S
C763 C758 1.390 . S
C763 C762 1.387 . S
H764 C776 0.930 . S
H765 C778 0.940 . S
H766 C779 0.942 . S
H767 C783 0.959 . S
H768 C783 0.959 . S
H769 C783 0.961 . S
H770 C784 0.960 . S
H771 C784 0.961 . S
H772 C784 0.959 1_655 S
H773 C787 0.929 . S
H774 C788 0.931 . S
H775 C790 0.930 . S
C776 H764 0.930 . S
C776 C777 1.399 . S
C776 C781 1.399 . S
C777 C776 1.399 . S
C777 C778 1.376 . S
C778 H765 0.940 . S
C778 C777 1.376 . S
C778 C779 1.388 . S
C779 H766 0.942 . S
C779 C778 1.388 . S
C779 C780 1.390 . S
C780 C779 1.390 . S
C780 C781 1.394 . S
C780 C786 1.465 . S
C781 C776 1.399 . S
C781 C780 1.394 . S
C781 C782 1.516 . S
C782 C781 1.516 . S
C782 C783 1.502 . S
C782 C784 1.561 . S
C782 C785 1.526 . S
C783 H767 0.959 . S
C783 H768 0.959 . S
C783 H769 0.961 . S
C783 C782 1.502 . S
C784 H770 0.960 . S
C784 H771 0.961 . S
C784 H772 0.959 1_455 S
C784 C782 1.561 . S
C785 C782 1.526 . S
C785 C786 1.396 . S
C785 C790 1.390 . S
C786 C780 1.465 . S
C786 C785 1.396 . S
C786 C787 1.399 . S
C787 H773 0.929 . S
C787 C786 1.399 . S
C787 C788 1.385 . S
C788 H774 0.931 . S
C788 C787 1.385 . S
C788 C789 1.389 . S
C789 C788 1.389 . S
C789 C790 1.387 . S
C790 H775 0.930 . S
C790 C785 1.390 . S
C790 C789 1.387 . S
H791 C803 0.930 . S
H792 C805 0.930 . S
H793 C806 0.930 . S
H794 C810 0.959 . S
H795 C810 0.959 . S
H796 C810 0.961 . S
H797 C811 0.960 . S
H798 C811 0.961 . S
H799 C811 0.959 . S
H800 C814 0.929 . S
H801 C815 0.931 . S
H802 C817 0.930 . S
C803 H791 0.930 . S
C803 C804 1.399 . S
C803 C808 1.399 . S
C804 C803 1.399 . S
C804 C805 1.376 . S
C805 H792 0.930 . S
C805 C804 1.376 . S
C805 C806 1.388 . S
C806 H793 0.930 . S
C806 C805 1.388 . S
C806 C807 1.390 . S
C807 C806 1.390 . S
C807 C808 1.394 . S
C807 C813 1.465 . S
C808 C803 1.399 . S
C808 C807 1.394 . S
C808 C809 1.516 . S
C809 C808 1.516 . S
C809 C810 1.502 . S
C809 C811 1.561 . S
C809 C812 1.526 . S
C810 H794 0.959 . S
C810 H795 0.959 . S
C810 H796 0.961 . S
C810 C809 1.502 . S
C811 H797 0.960 . S
C811 H798 0.961 . S
C811 H799 0.959 . S
C811 C809 1.561 . S
C812 C809 1.526 . S
C812 C813 1.396 . S
C812 C817 1.390 . S
C813 C807 1.465 . S
C813 C812 1.396 . S
C813 C814 1.399 . S
C814 H800 0.929 . S
C814 C813 1.399 . S
C814 C815 1.385 . S
C815 H801 0.931 . S
C815 C814 1.385 . S
C815 C816 1.389 . S
C816 C815 1.389 . S
C816 C817 1.387 . S
C817 H802 0.930 . S
C817 C812 1.390 . S
C817 C816 1.387 . S
H818 C830 0.930 . S
H819 C832 0.930 . S
H820 C833 0.930 . S
H821 C837 0.959 . S
H822 C837 0.959 . S
H823 C837 0.961 . S
H824 C838 0.960 . S
H825 C838 0.961 . S
H826 C838 0.959 . S
H827 C841 0.929 . S
H828 C842 0.931 . S
H829 C844 0.930 . S
C830 H818 0.930 . S
C830 C831 1.399 . S
C830 C835 1.399 . S
C831 C830 1.399 . S
C831 C832 1.376 . S
C832 H819 0.930 . S
C832 C831 1.376 . S
C832 C833 1.388 . S
C833 H820 0.930 . S
C833 C832 1.388 . S
C833 C834 1.390 . S
C834 C833 1.390 . S
C834 C835 1.394 . S
C834 C840 1.465 . S
C835 C830 1.399 . S
C835 C834 1.394 . S
C835 C836 1.516 . S
C836 C835 1.516 . S
C836 C837 1.502 . S
C836 C838 1.561 . S
C836 C839 1.526 . S
C837 H821 0.959 . S
C837 H822 0.959 . S
C837 H823 0.961 . S
C837 C836 1.502 . S
C838 H824 0.960 . S
C838 H825 0.961 . S
C838 H826 0.959 . S
C838 C836 1.561 . S
C839 C836 1.526 . S
C839 C840 1.396 . S
C839 C844 1.390 . S
C840 C834 1.465 . S
C840 C839 1.396 . S
C840 C841 1.399 . S
C841 H827 0.929 . S
C841 C840 1.399 . S
C841 C842 1.385 . S
C842 H828 0.931 . S
C842 C841 1.385 . S
C842 C843 1.389 . S
C843 C842 1.389 . S
C843 C844 1.387 . S
C844 H829 0.930 . S
C844 C839 1.390 . S
C844 C843 1.387 . S
H845 C857 0.930 . S
H846 C859 0.930 . S
H847 C860 0.930 . S
H848 C864 0.959 . S
H849 C864 0.959 . S
H850 C864 0.961 . S
H851 C865 0.960 . S
H852 C865 0.961 . S
H853 C865 0.959 . S
H854 C868 0.929 . S
H855 C869 0.931 . S
H856 C871 0.930 . S
C857 H845 0.930 . S
C857 C858 1.399 . S
C857 C862 1.399 . S
C858 C857 1.399 . S
C858 C859 1.376 . S
C859 H846 0.930 . S
C859 C858 1.376 . S
C859 C860 1.388 . S
C860 H847 0.930 . S
C860 C859 1.388 . S
C860 C861 1.390 . S
C861 C860 1.390 . S
C861 C862 1.394 . S
C861 C867 1.465 . S
C862 C857 1.399 . S
C862 C861 1.394 . S
C862 C863 1.516 . S
C863 C862 1.516 . S
C863 C864 1.502 . S
C863 C865 1.561 . S
C863 C866 1.526 . S
C864 H848 0.959 . S
C864 H849 0.959 . S
C864 H850 0.961 . S
C864 C863 1.502 . S
C865 H851 0.960 . S
C865 H852 0.961 . S
C865 H853 0.959 . S
C865 C863 1.561 . S
C866 C863 1.526 . S
C866 C867 1.396 . S
C866 C871 1.390 . S
C867 C861 1.465 . S
C867 C866 1.396 . S
C867 C868 1.399 . S
C868 H854 0.929 . S
C868 C867 1.399 . S
C868 C869 1.385 . S
C869 H855 0.931 . S
C869 C868 1.385 . S
C869 C870 1.389 . S
C870 C869 1.389 . S
C870 C871 1.387 . S
C871 H856 0.930 . S
C871 C866 1.390 . S
C871 C870 1.387 . S
H872 C884 0.930 . S
H873 C886 0.930 . S
H874 C887 0.930 . S
H875 C891 0.959 . S
H876 C891 0.959 . S
H877 C891 0.961 . S
H878 C892 0.960 . S
H879 C892 0.961 . S
H880 C892 0.959 . S
H881 C895 0.929 . S
H882 C896 0.931 1_465 S
H883 C898 0.930 . S
C884 H872 0.930 . S
C884 C885 1.399 . S
C884 C889 1.399 . S
C885 C884 1.399 . S
C885 C886 1.376 1_545 S
C886 H873 0.930 . S
C886 C885 1.376 1_565 S
C886 C887 1.388 . S
C887 H874 0.930 . S
C887 C886 1.388 . S
C887 C888 1.390 1_565 S
C888 C887 1.390 1_545 S
C888 C889 1.394 . S
C888 C894 1.465 . S
C889 C884 1.399 . S
C889 C888 1.394 . S
C889 C890 1.516 . S
C890 C889 1.516 . S
C890 C891 1.502 . S
C890 C892 1.561 . S
C890 C893 1.526 . S
C891 H875 0.959 . S
C891 H876 0.959 . S
C891 H877 0.961 . S
C891 C890 1.502 . S
C892 H878 0.960 . S
C892 H879 0.961 . S
C892 H880 0.959 . S
C892 C890 1.561 . S
C893 C890 1.526 . S
C893 C894 1.396 . S
C893 C898 1.390 . S
C894 C888 1.465 . S
C894 C893 1.396 . S
C894 C895 1.399 1_545 S
C895 H881 0.929 . S
C895 C894 1.399 1_565 S
C895 C896 1.385 1_565 S
C896 H882 0.931 1_645 S
C896 C895 1.385 1_545 S
C896 C897 1.389 . S
C897 C896 1.389 . S
C897 C898 1.387 . S
C898 H883 0.930 . S
C898 C893 1.390 . S
C898 C897 1.387 . S
H899 C911 0.930 . S
H900 C913 0.930 . S
H901 C914 0.930 . S
H902 C918 0.959 . S
H903 C918 0.959 . S
H904 C918 0.961 . S
H905 C919 0.960 . S
H906 C919 0.961 . S
H907 C919 0.959 . S
H908 C922 0.929 . S
H909 C923 0.931 . S
H910 C925 0.930 . S
C911 H899 0.930 . S
C911 C912 1.399 . S
C911 C916 1.399 . S
C912 C911 1.399 . S
C912 C913 1.376 . S
C913 H900 0.930 . S
C913 C912 1.376 . S
C913 C914 1.388 . S
C914 H901 0.930 . S
C914 C913 1.388 . S
C914 C915 1.390 . S
C915 C914 1.390 . S
C915 C916 1.394 . S
C915 C921 1.465 . S
C916 C911 1.399 . S
C916 C915 1.394 . S
C916 C917 1.516 . S
C917 C916 1.516 . S
C917 C918 1.502 . S
C917 C919 1.561 . S
C917 C920 1.526 . S
C918 H902 0.959 . S
C918 H903 0.959 . S
C918 H904 0.961 . S
C918 C917 1.502 . S
C919 H905 0.960 . S
C919 H906 0.961 . S
C919 H907 0.959 . S
C919 C917 1.561 . S
C920 C917 1.526 . S
C920 C921 1.396 . S
C920 C925 1.390 . S
C921 C915 1.465 . S
C921 C920 1.396 . S
C921 C922 1.399 . S
C922 H908 0.929 . S
C922 C921 1.399 . S
C922 C923 1.385 . S
C923 H909 0.931 . S
C923 C922 1.385 . S
C923 C924 1.389 . S
C924 C923 1.389 . S
C924 C925 1.387 . S
C925 H910 0.930 . S
C925 C920 1.390 . S
C925 C924 1.387 . S
H926 C938 0.930 . S
H927 C940 0.930 . S
H928 C941 0.930 . S
H929 C945 0.959 . S
H930 C945 0.959 . S
H931 C945 0.961 . S
H932 C946 0.960 . S
H933 C946 0.961 . S
H934 C946 0.959 . S
H935 C949 0.929 . S
H936 C950 0.931 . S
H937 C952 0.930 . S
C938 H926 0.930 . S
C938 C939 1.399 1_545 S
C938 C943 1.399 . S
C939 C938 1.399 1_565 S
C939 C940 1.376 . S
C940 H927 0.930 . S
C940 C939 1.376 . S
C940 C941 1.388 . S
C941 H928 0.930 . S
C941 C940 1.388 . S
C941 C942 1.390 . S
C942 C941 1.390 . S
C942 C943 1.394 1_565 S
C942 C948 1.465 . S
C943 C938 1.399 . S
C943 C942 1.394 1_545 S
C943 C944 1.516 . S
C944 C943 1.516 . S
C944 C945 1.502 . S
C944 C946 1.561 . S
C944 C947 1.526 . S
C945 H929 0.959 . S
C945 H930 0.959 . S
C945 H931 0.961 . S
C945 C944 1.502 . S
C946 H932 0.960 . S
C946 H933 0.961 . S
C946 H934 0.959 . S
C946 C944 1.561 . S
C947 C944 1.526 . S
C947 C948 1.396 1_545 S
C947 C952 1.390 . S
C948 C942 1.465 . S
C948 C947 1.396 1_565 S
C948 C949 1.399 . S
C949 H935 0.929 . S
C949 C948 1.399 . S
C949 C950 1.385 . S
C950 H936 0.931 . S
C950 C949 1.385 . S
C950 C951 1.386 . S
C951 C950 1.386 . S
C951 C952 1.388 1_565 S
C952 H937 0.930 . S
C952 C947 1.390 . S
C952 C951 1.388 1_545 S
H953 C965 0.930 . S
H954 C967 0.930 . S
H955 C968 0.930 . S
H956 C972 0.959 . S
H957 C972 0.959 . S
H958 C972 0.961 . S
H959 C973 0.960 . S
H960 C973 0.961 . S
H961 C973 0.959 . S
H962 C976 0.929 . S
H963 C977 0.931 . S
H964 C979 0.930 . S
C965 H953 0.930 . S
C965 C966 1.399 . S
C965 C970 1.399 . S
C966 C965 1.399 . S
C966 C967 1.376 . S
C967 H954 0.930 . S
C967 C966 1.376 . S
C967 C968 1.388 . S
C968 H955 0.930 . S
C968 C967 1.388 . S
C968 C969 1.390 . S
C969 C968 1.390 . S
C969 C970 1.394 . S
C969 C975 1.465 . S
C970 C965 1.399 . S
C970 C969 1.394 . S
C970 C971 1.516 . S
C971 C970 1.516 . S
C971 C972 1.502 . S
C971 C973 1.561 . S
C971 C974 1.526 . S
C972 H956 0.959 . S
C972 H957 0.959 . S
C972 H958 0.961 . S
C972 C971 1.502 . S
C973 H959 0.960 . S
C973 H960 0.961 . S
C973 H961 0.959 . S
C973 C971 1.561 . S
C974 C971 1.526 . S
C974 C975 1.396 . S
C974 C979 1.390 . S
C975 C969 1.465 . S
C975 C974 1.396 . S
C975 C976 1.399 . S
C976 H962 0.929 . S
C976 C975 1.399 . S
C976 C977 1.385 . S
C977 H963 0.931 . S
C977 C976 1.385 . S
C977 C978 1.389 . S
C978 C977 1.389 . S
C978 C979 1.387 . S
C979 H964 0.930 . S
C979 C974 1.390 . S
C979 C978 1.387 . S
H980 C992 0.942 . S
H981 C994 0.930 . S
H982 C995 0.930 . S
H983 C999 0.963 . S
H984 C999 0.958 1_565 S
H985 C999 0.961 1_565 S
H986 C1000 0.960 . S
H987 C1000 0.961 . S
H988 C1000 0.959 . S
H989 C1003 0.945 . S
H990 C1004 0.931 . S
H991 C1006 0.913 1_565 S
C992 H980 0.942 . S
C992 C993 1.381 1_565 S
C992 C997 1.417 1_565 S
C993 C992 1.381 1_545 S
C993 C994 1.376 . S
C994 H981 0.930 . S
C994 C993 1.376 . S
C994 C995 1.388 . S
C995 H982 0.930 . S
C995 C994 1.388 . S
C995 C996 1.390 . S
C996 C995 1.390 . S
C996 C997 1.407 . S
C996 C1002 1.465 . S
C997 C992 1.417 1_545 S
C997 C996 1.407 . S
C997 C998 1.498 1_545 S
C998 C997 1.498 1_565 S
C998 C999 1.500 1_565 S
C998 C1000 1.561 . S
C998 C1001 1.526 1_565 S
C999 H983 0.963 . S
C999 H984 0.958 1_545 S
C999 H985 0.961 1_545 S
C999 C998 1.500 1_545 S
C1000 H986 0.960 . S
C1000 H987 0.961 . S
C1000 H988 0.959 . S
C1000 C998 1.561 . S
C1001 C998 1.526 1_545 S
C1001 C1002 1.396 . S
C1001 C1006 1.400 . S
C1002 C996 1.465 . S
C1002 C1001 1.396 . S
C1002 C1003 1.376 1_655 S
C1003 H989 0.945 . S
C1003 C1002 1.376 1_455 S
C1003 C1004 1.392 . S
C1004 H990 0.931 . S
C1004 C1003 1.392 . S
C1004 C1005 1.389 1_455 S
C1005 C1004 1.389 1_655 S
C1005 C1006 1.396 . S
C1006 H991 0.913 1_545 S
C1006 C1001 1.400 . S
C1006 C1005 1.396 . S
H1007 C1019 0.930 . S
H1008 C1021 0.930 . S
H1009 C1022 0.930 . S
H1010 C1026 0.959 . S
H1011 C1026 0.959 . S
H1012 C1026 0.961 . S
H1013 C1027 0.960 . S
H1014 C1027 0.961 . S
H1015 C1027 0.959 . S
H1016 C1030 0.929 . S
H1017 C1031 0.931 . S
H1018 C1033 0.930 . S
C1019 H1007 0.930 . S
C1019 C1020 1.399 . S
C1019 C1024 1.399 . S
C1020 C1019 1.399 . S
C1020 C1021 1.376 . S
C1021 H1008 0.930 . S
C1021 C1020 1.376 . S
C1021 C1022 1.388 . S
C1022 H1009 0.930 . S
C1022 C1021 1.388 . S
C1022 C1023 1.390 . S
C1023 C1022 1.390 . S
C1023 C1024 1.394 . S
C1023 C1029 1.465 . S
C1024 C1019 1.399 . S
C1024 C1023 1.394 . S
C1024 C1025 1.516 . S
C1025 C1024 1.516 . S
C1025 C1026 1.502 . S
C1025 C1027 1.561 . S
C1025 C1028 1.526 . S
C1026 H1010 0.959 . S
C1026 H1011 0.959 . S
C1026 H1012 0.961 . S
C1026 C1025 1.502 . S
C1027 H1013 0.960 . S
C1027 H1014 0.961 . S
C1027 H1015 0.959 . S
C1027 C1025 1.561 . S
C1028 C1025 1.526 . S
C1028 C1029 1.396 . S
C1028 C1033 1.390 . S
C1029 C1023 1.465 . S
C1029 C1028 1.396 . S
C1029 C1030 1.399 . S
C1030 H1016 0.929 . S
C1030 C1029 1.399 . S
C1030 C1031 1.385 . S
C1031 H1017 0.931 . S
C1031 C1030 1.385 . S
C1031 C1032 1.389 . S
C1032 C1031 1.389 . S
C1032 C1033 1.387 . S
C1033 H1018 0.930 . S
C1033 C1028 1.390 . S
C1033 C1032 1.387 . S
H1034 C1046 0.930 . S
H1035 C1048 0.930 . S
H1036 C1049 0.930 . S
H1037 C1053 0.959 1_545 S
H1038 C1053 0.959 . S
H1039 C1053 0.961 . S
H1040 C1054 0.960 . S
H1041 C1054 0.961 . S
H1042 C1054 0.959 . S
H1043 C1057 0.929 . S
H1044 C1058 0.931 . S
H1045 C1060 0.930 1_565 S
C1046 H1034 0.930 . S
C1046 C1047 1.399 1_565 S
C1046 C1051 1.399 1_565 S
C1047 C1046 1.399 1_545 S
C1047 C1048 1.376 . S
C1048 H1035 0.930 . S
C1048 C1047 1.376 . S
C1048 C1049 1.388 . S
C1049 H1036 0.930 . S
C1049 C1048 1.388 . S
C1049 C1050 1.390 . S
C1050 C1049 1.390 . S
C1050 C1051 1.394 . S
C1050 C1056 1.465 . S
C1051 C1046 1.399 1_545 S
C1051 C1050 1.394 . S
C1051 C1052 1.516 1_545 S
C1052 C1051 1.516 1_565 S
C1052 C1053 1.502 . S
C1052 C1054 1.561 . S
C1052 C1055 1.526 1_565 S
C1053 H1037 0.959 1_565 S
C1053 H1038 0.959 . S
C1053 H1039 0.961 . S
C1053 C1052 1.502 . S
C1054 H1040 0.960 . S
C1054 H1041 0.961 . S
C1054 H1042 0.959 . S
C1054 C1052 1.561 . S
C1055 C1052 1.526 1_545 S
C1055 C1056 1.396 . S
C1055 C1060 1.390 . S
C1056 C1050 1.465 . S
C1056 C1055 1.396 . S
C1056 C1057 1.399 . S
C1057 H1043 0.929 . S
C1057 C1056 1.399 . S
C1057 C1058 1.385 . S
C1058 H1044 0.931 . S
C1058 C1057 1.385 . S
C1058 C1059 1.389 . S
C1059 C1058 1.389 . S
C1059 C1060 1.387 . S
C1060 H1045 0.930 1_545 S
C1060 C1055 1.390 . S
C1060 C1059 1.387 . S
H1061 C1073 0.930 . S
H1062 C1075 0.930 . S
H1063 C1076 0.930 . S
H1064 C1080 0.959 . S
H1065 C1080 0.959 . S
H1066 C1080 0.961 . S
H1067 C1081 0.960 . S
H1068 C1081 0.961 . S
H1069 C1081 0.959 . S
H1070 C1084 0.929 . S
H1071 C1085 0.931 . S
H1072 C1087 0.930 . S
C1073 H1061 0.930 . S
C1073 C1074 1.399 . S
C1073 C1078 1.399 . S
C1074 C1073 1.399 . S
C1074 C1075 1.376 . S
C1075 H1062 0.930 . S
C1075 C1074 1.376 . S
C1075 C1076 1.388 . S
C1076 H1063 0.930 . S
C1076 C1075 1.388 . S
C1076 C1077 1.390 . S
C1077 C1076 1.390 . S
C1077 C1078 1.394 . S
C1077 C1083 1.465 . S
C1078 C1073 1.399 . S
C1078 C1077 1.394 . S
C1078 C1079 1.516 . S
C1079 C1078 1.516 . S
C1079 C1080 1.502 . S
C1079 C1081 1.561 . S
C1079 C1082 1.526 . S
C1080 H1064 0.959 . S
C1080 H1065 0.959 . S
C1080 H1066 0.961 . S
C1080 C1079 1.502 . S
C1081 H1067 0.960 . S
C1081 H1068 0.961 . S
C1081 H1069 0.959 . S
C1081 C1079 1.561 . S
C1082 C1079 1.526 . S
C1082 C1083 1.396 . S
C1082 C1087 1.390 . S
C1083 C1077 1.465 . S
C1083 C1082 1.396 . S
C1083 C1084 1.399 . S
C1084 H1070 0.929 . S
C1084 C1083 1.399 . S
C1084 C1085 1.385 . S
C1085 H1071 0.931 . S
C1085 C1084 1.385 . S
C1085 C1086 1.389 . S
C1086 C1085 1.389 . S
C1086 C1087 1.387 . S
C1087 H1072 0.930 . S
C1087 C1082 1.390 . S
C1087 C1086 1.387 . S
H1088 C1100 0.930 . S
H1089 C1102 0.930 . S
H1090 C1103 0.909 1_556 S
H1091 C1107 0.959 . S
H1092 C1107 0.959 . S
H1093 C1107 0.961 . S
H1094 C1108 0.960 . S
H1095 C1108 0.961 . S
H1096 C1108 0.959 . S
H1097 C1111 0.933 . S
H1098 C1112 0.931 1_545 S
H1099 C1114 0.930 . S
C1100 H1088 0.930 . S
C1100 C1101 1.399 . S
C1100 C1105 1.399 . S
C1101 C1100 1.399 . S
C1101 C1102 1.376 1_554 S
C1102 H1089 0.930 . S
C1102 C1101 1.376 1_556 S
C1102 C1103 1.387 1_556 S
C1103 H1090 0.909 1_554 S
C1103 C1102 1.387 1_554 S
C1103 C1104 1.413 . S
C1104 C1103 1.413 . S
C1104 C1105 1.394 . S
C1104 C1110 1.465 . S
C1105 C1100 1.399 . S
C1105 C1104 1.394 . S
C1105 C1106 1.516 . S
C1106 C1105 1.516 . S
C1106 C1107 1.502 . S
C1106 C1108 1.561 . S
C1106 C1109 1.526 . S
C1107 H1091 0.959 . S
C1107 H1092 0.959 . S
C1107 H1093 0.961 . S
C1107 C1106 1.502 . S
C1108 H1094 0.960 . S
C1108 H1095 0.961 . S
C1108 H1096 0.959 . S
C1108 C1106 1.561 . S
C1109 C1106 1.526 . S
C1109 C1110 1.396 . S
C1109 C1114 1.390 . S
C1110 C1104 1.465 . S
C1110 C1109 1.396 . S
C1110 C1111 1.399 . S
C1111 H1097 0.933 . S
C1111 C1110 1.399 . S
C1111 C1112 1.385 . S
C1112 H1098 0.931 1_565 S
C1112 C1111 1.385 . S
C1112 C1113 1.389 . S
C1113 C1112 1.389 . S
C1113 C1114 1.387 . S
C1114 H1099 0.930 . S
C1114 C1109 1.390 . S
C1114 C1113 1.387 . S
H1115 C1127 0.930 . S
H1116 C1129 0.930 . S
H1117 C1130 0.930 . S
H1118 C1134 0.959 . S
H1119 C1134 0.959 . S
H1120 C1134 0.961 . S
H1121 C1135 0.960 . S
H1122 C1135 0.961 . S
H1123 C1135 0.959 . S
H1124 C1138 0.929 . S
H1125 C1139 0.931 . S
H1126 C1141 0.930 . S
C1127 H1115 0.930 . S
C1127 C1128 1.399 1_556 S
C1127 C1132 1.399 . S
C1128 C1127 1.399 1_554 S
C1128 C1129 1.376 . S
C1129 H1116 0.930 . S
C1129 C1128 1.376 . S
C1129 C1130 1.388 . S
C1130 H1117 0.930 . S
C1130 C1129 1.388 . S
C1130 C1131 1.390 . S
C1131 C1130 1.390 . S
C1131 C1132 1.394 1_554 S
C1131 C1137 1.465 . S
C1132 C1127 1.399 . S
C1132 C1131 1.394 1_556 S
C1132 C1133 1.516 . S
C1133 C1132 1.516 . S
C1133 C1134 1.502 . S
C1133 C1135 1.561 . S
C1133 C1136 1.555 . S
C1134 H1118 0.959 . S
C1134 H1119 0.959 . S
C1134 H1120 0.961 . S
C1134 C1133 1.502 . S
C1135 H1121 0.960 . S
C1135 H1122 0.961 . S
C1135 H1123 0.959 . S
C1135 C1133 1.561 . S
C1136 C1133 1.555 . S
C1136 C1137 1.365 1_556 S
C1136 C1141 1.389 . S
C1137 C1131 1.465 . S
C1137 C1136 1.365 1_554 S
C1137 C1138 1.399 . S
C1138 H1124 0.929 . S
C1138 C1137 1.399 . S
C1138 C1139 1.385 . S
C1139 H1125 0.931 . S
C1139 C1138 1.385 . S
C1139 C1140 1.389 . S
C1140 C1139 1.389 . S
C1140 C1141 1.387 1_554 S
C1141 H1126 0.930 . S
C1141 C1136 1.389 . S
C1141 C1140 1.387 1_556 S
H1142 C1154 0.930 . S
H1143 C1156 0.930 . S
H1144 C1157 0.930 . S
H1145 C1161 0.959 . S
H1146 C1161 0.959 . S
H1147 C1161 0.961 . S
H1148 C1162 0.960 . S
H1149 C1162 0.961 . S
H1150 C1162 0.959 . S
H1151 C1165 0.929 . S
H1152 C1166 0.931 . S
H1153 C1168 0.930 . S
C1154 H1142 0.930 . S
C1154 C1155 1.399 . S
C1154 C1159 1.399 . S
C1155 C1154 1.399 . S
C1155 C1156 1.376 . S
C1156 H1143 0.930 . S
C1156 C1155 1.376 . S
C1156 C1157 1.388 . S
C1157 H1144 0.930 . S
C1157 C1156 1.388 . S
C1157 C1158 1.390 . S
C1158 C1157 1.390 . S
C1158 C1159 1.394 . S
C1158 C1164 1.465 . S
C1159 C1154 1.399 . S
C1159 C1158 1.394 . S
C1159 C1160 1.516 . S
C1160 C1159 1.516 . S
C1160 C1161 1.502 . S
C1160 C1162 1.561 . S
C1160 C1163 1.526 . S
C1161 H1145 0.959 . S
C1161 H1146 0.959 . S
C1161 H1147 0.961 . S
C1161 C1160 1.502 . S
C1162 H1148 0.960 . S
C1162 H1149 0.961 . S
C1162 H1150 0.959 . S
C1162 C1160 1.561 . S
C1163 C1160 1.526 . S
C1163 C1164 1.396 . S
C1163 C1168 1.390 . S
C1164 C1158 1.465 . S
C1164 C1163 1.396 . S
C1164 C1165 1.399 . S
C1165 H1151 0.929 . S
C1165 C1164 1.399 . S
C1165 C1166 1.385 . S
C1166 H1152 0.931 . S
C1166 C1165 1.385 . S
C1166 C1167 1.389 . S
C1167 C1166 1.389 . S
C1167 C1168 1.387 . S
C1168 H1153 0.930 . S
C1168 C1163 1.390 . S
C1168 C1167 1.387 . S
H1169 C1181 0.930 . S
H1170 C1183 0.930 . S
H1171 C1184 0.930 . S
H1172 C1188 0.959 . S
H1173 C1188 0.959 . S
H1174 C1188 0.961 . S
H1175 C1189 0.960 . S
H1176 C1189 0.961 . S
H1177 C1189 0.959 . S
H1178 C1192 0.929 . S
H1179 C1193 0.931 . S
H1180 C1195 0.930 . S
C1181 H1169 0.930 . S
C1181 C1182 1.399 . S
C1181 C1186 1.399 . S
C1182 C1181 1.399 . S
C1182 C1183 1.376 . S
C1183 H1170 0.930 . S
C1183 C1182 1.376 . S
C1183 C1184 1.388 . S
C1184 H1171 0.930 . S
C1184 C1183 1.388 . S
C1184 C1185 1.390 . S
C1185 C1184 1.390 . S
C1185 C1186 1.394 . S
C1185 C1191 1.465 . S
C1186 C1181 1.399 . S
C1186 C1185 1.394 . S
C1186 C1187 1.516 . S
C1187 C1186 1.516 . S
C1187 C1188 1.502 . S
C1187 C1189 1.561 . S
C1187 C1190 1.526 . S
C1188 H1172 0.959 . S
C1188 H1173 0.959 . S
C1188 H1174 0.961 . S
C1188 C1187 1.502 . S
C1189 H1175 0.960 . S
C1189 H1176 0.961 . S
C1189 H1177 0.959 . S
C1189 C1187 1.561 . S
C1190 C1187 1.526 . S
C1190 C1191 1.396 . S
C1190 C1195 1.390 . S
C1191 C1185 1.465 . S
C1191 C1190 1.396 . S
C1191 C1192 1.399 . S
C1192 H1178 0.929 . S
C1192 C1191 1.399 . S
C1192 C1193 1.385 . S
C1193 H1179 0.931 . S
C1193 C1192 1.385 . S
C1193 C1194 1.389 . S
C1194 C1193 1.389 . S
C1194 C1195 1.387 . S
C1195 H1180 0.930 . S
C1195 C1190 1.390 . S
C1195 C1194 1.387 . S
H1196 C1208 0.930 . S
H1197 C1210 0.930 . S
H1198 C1211 0.930 . S
H1199 C1215 0.959 . S
H1200 C1215 0.959 . S
H1201 C1215 0.961 . S
H1202 C1216 0.960 . S
H1203 C1216 0.961 . S
H1204 C1216 0.959 . S
H1205 C1219 0.929 . S
H1206 C1220 0.931 . S
H1207 C1222 0.930 . S
C1208 H1196 0.930 . S
C1208 C1209 1.399 . S
C1208 C1213 1.399 . S
C1209 C1208 1.399 . S
C1209 C1210 1.376 . S
C1210 H1197 0.930 . S
C1210 C1209 1.376 . S
C1210 C1211 1.388 . S
C1211 H1198 0.930 . S
C1211 C1210 1.388 . S
C1211 C1212 1.390 . S
C1212 C1211 1.390 . S
C1212 C1213 1.394 . S
C1212 C1218 1.465 . S
C1213 C1208 1.399 . S
C1213 C1212 1.394 . S
C1213 C1214 1.516 . S
C1214 C1213 1.516 . S
C1214 C1215 1.502 . S
C1214 C1216 1.561 . S
C1214 C1217 1.526 . S
C1215 H1199 0.959 . S
C1215 H1200 0.959 . S
C1215 H1201 0.961 . S
C1215 C1214 1.502 . S
C1216 H1202 0.960 . S
C1216 H1203 0.961 . S
C1216 H1204 0.959 . S
C1216 C1214 1.561 . S
C1217 C1214 1.526 . S
C1217 C1218 1.396 . S
C1217 C1222 1.390 . S
C1218 C1212 1.465 . S
C1218 C1217 1.396 . S
C1218 C1219 1.399 . S
C1219 H1205 0.929 . S
C1219 C1218 1.399 . S
C1219 C1220 1.385 . S
C1220 H1206 0.931 . S
C1220 C1219 1.385 . S
C1220 C1221 1.389 . S
C1221 C1220 1.389 . S
C1221 C1222 1.387 . S
C1222 H1207 0.930 . S
C1222 C1217 1.390 . S
C1222 C1221 1.387 . S
H1223 C1235 0.930 . S
H1224 C1237 0.930 . S
H1225 C1238 0.930 . S
H1226 C1242 0.959 . S
H1227 C1242 0.959 . S
H1228 C1242 0.961 . S
H1229 C1243 0.960 . S
H1230 C1243 0.961 . S
H1231 C1243 0.959 . S
H1232 C1246 0.929 . S
H1233 C1247 0.931 . S
H1234 C1249 0.930 . S
C1235 H1223 0.930 . S
C1235 C1236 1.399 . S
C1235 C1240 1.399 . S
C1236 C1235 1.399 . S
C1236 C1237 1.376 . S
C1237 H1224 0.930 . S
C1237 C1236 1.376 . S
C1237 C1238 1.388 . S
C1238 H1225 0.930 . S
C1238 C1237 1.388 . S
C1238 C1239 1.390 . S
C1239 C1238 1.390 . S
C1239 C1240 1.394 . S
C1239 C1245 1.465 . S
C1240 C1235 1.399 . S
C1240 C1239 1.394 . S
C1240 C1241 1.516 . S
C1241 C1240 1.516 . S
C1241 C1242 1.502 . S
C1241 C1243 1.561 . S
C1241 C1244 1.526 . S
C1242 H1226 0.959 . S
C1242 H1227 0.959 . S
C1242 H1228 0.961 . S
C1242 C1241 1.502 . S
C1243 H1229 0.960 . S
C1243 H1230 0.961 . S
C1243 H1231 0.959 . S
C1243 C1241 1.561 . S
C1244 C1241 1.526 . S
C1244 C1245 1.396 . S
C1244 C1249 1.390 . S
C1245 C1239 1.465 . S
C1245 C1244 1.396 . S
C1245 C1246 1.399 . S
C1246 H1232 0.929 . S
C1246 C1245 1.399 . S
C1246 C1247 1.385 . S
C1247 H1233 0.931 . S
C1247 C1246 1.385 . S
C1247 C1248 1.389 . S
C1248 C1247 1.389 . S
C1248 C1249 1.387 . S
C1249 H1234 0.930 . S
C1249 C1244 1.390 . S
C1249 C1248 1.387 . S
H1250 C1262 0.930 . S
H1251 C1264 0.930 . S
H1252 C1265 0.930 . S
H1253 C1269 0.959 . S
H1254 C1269 0.959 . S
H1255 C1269 0.961 . S
H1256 C1270 0.960 . S
H1257 C1270 0.961 . S
H1258 C1270 0.959 . S
H1259 C1273 0.929 . S
H1260 C1274 0.931 . S
H1261 C1276 0.930 . S
C1262 H1250 0.930 . S
C1262 C1263 1.399 . S
C1262 C1267 1.399 . S
C1263 C1262 1.399 . S
C1263 C1264 1.376 . S
C1264 H1251 0.930 . S
C1264 C1263 1.376 . S
C1264 C1265 1.388 . S
C1265 H1252 0.930 . S
C1265 C1264 1.388 . S
C1265 C1266 1.390 . S
C1266 C1265 1.390 . S
C1266 C1267 1.394 . S
C1266 C1272 1.465 . S
C1267 C1262 1.399 . S
C1267 C1266 1.394 . S
C1267 C1268 1.516 . S
C1268 C1267 1.516 . S
C1268 C1269 1.502 . S
C1268 C1270 1.561 . S
C1268 C1271 1.526 . S
C1269 H1253 0.959 . S
C1269 H1254 0.959 . S
C1269 H1255 0.961 . S
C1269 C1268 1.502 . S
C1270 H1256 0.960 . S
C1270 H1257 0.961 . S
C1270 H1258 0.959 . S
C1270 C1268 1.561 . S
C1271 C1268 1.526 . S
C1271 C1272 1.396 . S
C1271 C1276 1.390 . S
C1272 C1266 1.465 . S
C1272 C1271 1.396 . S
C1272 C1273 1.399 . S
C1273 H1259 0.929 . S
C1273 C1272 1.399 . S
C1273 C1274 1.385 . S
C1274 H1260 0.931 . S
C1274 C1273 1.385 . S
C1274 C1275 1.389 . S
C1275 C1274 1.389 . S
C1275 C1276 1.387 . S
C1276 H1261 0.930 . S
C1276 C1271 1.390 . S
C1276 C1275 1.387 . S
H1277 C1289 0.930 . S
H1278 C1291 0.930 . S
H1279 C1292 0.930 . S
H1280 C1296 0.959 . S
H1281 C1296 0.959 . S
H1282 C1296 0.961 . S
H1283 C1297 0.960 . S
H1284 C1297 0.961 . S
H1285 C1297 0.959 . S
H1286 C1300 0.929 . S
H1287 C1301 0.931 . S
H1288 C1303 0.930 . S
C1289 H1277 0.930 . S
C1289 C1290 1.399 . S
C1289 C1294 1.399 . S
C1290 C1289 1.399 . S
C1290 C1291 1.376 . S
C1291 H1278 0.930 . S
C1291 C1290 1.376 . S
C1291 C1292 1.388 . S
C1292 H1279 0.930 . S
C1292 C1291 1.388 . S
C1292 C1293 1.390 . S
C1293 C1292 1.390 . S
C1293 C1294 1.394 . S
C1293 C1299 1.465 . S
C1294 C1289 1.399 . S
C1294 C1293 1.394 . S
C1294 C1295 1.516 . S
C1295 C1294 1.516 . S
C1295 C1296 1.502 . S
C1295 C1297 1.561 . S
C1295 C1298 1.526 . S
C1296 H1280 0.959 . S
C1296 H1281 0.959 . S
C1296 H1282 0.961 . S
C1296 C1295 1.502 . S
C1297 H1283 0.960 . S
C1297 H1284 0.961 . S
C1297 H1285 0.959 . S
C1297 C1295 1.561 . S
C1298 C1295 1.526 . S
C1298 C1299 1.396 . S
C1298 C1303 1.390 . S
C1299 C1293 1.465 . S
C1299 C1298 1.396 . S
C1299 C1300 1.399 . S
C1300 H1286 0.929 . S
C1300 C1299 1.399 . S
C1300 C1301 1.385 . S
C1301 H1287 0.931 . S
C1301 C1300 1.385 . S
C1301 C1302 1.389 . S
C1302 C1301 1.389 . S
C1302 C1303 1.387 . S
C1303 H1288 0.930 . S
C1303 C1298 1.390 . S
C1303 C1302 1.387 . S
H1304 C1316 0.930 . S
H1305 C1318 0.930 . S
H1306 C1319 0.930 . S
H1307 C1323 0.959 1_455 S
H1308 C1323 0.959 . S
H1309 C1323 0.961 . S
H1310 C1324 0.960 . S
H1311 C1324 0.961 . S
H1312 C1324 0.959 . S
H1313 C1327 0.929 . S
H1314 C1328 0.931 . S
H1315 C1330 0.930 1_655 S
C1316 H1304 0.930 . S
C1316 C1317 1.399 . S
C1316 C1321 1.399 . S
C1317 C1316 1.399 . S
C1317 C1318 1.376 . S
C1318 H1305 0.930 . S
C1318 C1317 1.376 . S
C1318 C1319 1.388 . S
C1319 H1306 0.930 . S
C1319 C1318 1.388 . S
C1319 C1320 1.390 . S
C1320 C1319 1.390 . S
C1320 C1321 1.394 . S
C1320 C1326 1.465 . S
C1321 C1316 1.399 . S
C1321 C1320 1.394 . S
C1321 C1322 1.515 1_455 S
C1322 C1321 1.515 1_655 S
C1322 C1323 1.502 . S
C1322 C1324 1.563 . S
C1322 C1325 1.525 1_655 S
C1323 H1307 0.959 1_655 S
C1323 H1308 0.959 . S
C1323 H1309 0.961 . S
C1323 C1322 1.502 . S
C1324 H1310 0.960 . S
C1324 H1311 0.961 . S
C1324 H1312 0.959 . S
C1324 C1322 1.563 . S
C1325 C1322 1.525 1_455 S
C1325 C1326 1.396 . S
C1325 C1330 1.390 . S
C1326 C1320 1.465 . S
C1326 C1325 1.396 . S
C1326 C1327 1.399 . S
C1327 H1313 0.929 . S
C1327 C1326 1.399 . S
C1327 C1328 1.385 . S
C1328 H1314 0.931 . S
C1328 C1327 1.385 . S
C1328 C1329 1.389 . S
C1329 C1328 1.389 . S
C1329 C1330 1.387 . S
C1330 H1315 0.930 1_455 S
C1330 C1325 1.390 . S
C1330 C1329 1.387 . S
H1331 C1343 0.930 . S
H1332 C1345 0.930 . S
H1333 C1346 0.930 . S
H1334 C1350 0.959 . S
H1335 C1350 0.959 . S
H1336 C1350 0.961 . S
H1337 C1351 0.960 . S
H1338 C1351 0.961 . S
H1339 C1351 0.959 . S
H1340 C1354 0.929 . S
H1341 C1355 0.931 . S
H1342 C1357 0.930 . S
C1343 H1331 0.930 . S
C1343 C1344 1.399 . S
C1343 C1348 1.399 . S
C1344 C1343 1.399 . S
C1344 C1345 1.376 . S
C1345 H1332 0.930 . S
C1345 C1344 1.376 . S
C1345 C1346 1.388 . S
C1346 H1333 0.930 . S
C1346 C1345 1.388 . S
C1346 C1347 1.390 . S
C1347 C1346 1.390 . S
C1347 C1348 1.394 . S
C1347 C1353 1.465 . S
C1348 C1343 1.399 . S
C1348 C1347 1.394 . S
C1348 C1349 1.516 . S
C1349 C1348 1.516 . S
C1349 C1350 1.502 . S
C1349 C1351 1.561 . S
C1349 C1352 1.526 . S
C1350 H1334 0.959 . S
C1350 H1335 0.959 . S
C1350 H1336 0.961 . S
C1350 C1349 1.502 . S
C1351 H1337 0.960 . S
C1351 H1338 0.961 . S
C1351 H1339 0.959 . S
C1351 C1349 1.561 . S
C1352 C1349 1.526 . S
C1352 C1353 1.396 . S
C1352 C1357 1.390 . S
C1353 C1347 1.465 . S
C1353 C1352 1.396 . S
C1353 C1354 1.399 . S
C1354 H1340 0.929 . S
C1354 C1353 1.399 . S
C1354 C1355 1.385 . S
C1355 H1341 0.931 . S
C1355 C1354 1.385 . S
C1355 C1356 1.389 . S
C1356 C1355 1.389 . S
C1356 C1357 1.387 . S
C1357 H1342 0.930 . S
C1357 C1352 1.390 . S
C1357 C1356 1.387 . S
H1358 C1370 0.930 . S
H1359 C1372 0.930 . S
H1360 C1373 0.930 . S
H1361 C1377 0.959 . S
H1362 C1377 0.959 . S
H1363 C1377 0.961 . S
H1364 C1378 0.960 . S
H1365 C1378 0.961 . S
H1366 C1378 0.959 . S
H1367 C1381 0.929 . S
H1368 C1382 0.931 . S
H1369 C1384 0.930 . S
C1370 H1358 0.930 . S
C1370 C1371 1.399 . S
C1370 C1375 1.399 . S
C1371 C1370 1.399 . S
C1371 C1372 1.376 . S
C1372 H1359 0.930 . S
C1372 C1371 1.376 . S
C1372 C1373 1.388 . S
C1373 H1360 0.930 . S
C1373 C1372 1.388 . S
C1373 C1374 1.390 . S
C1374 C1373 1.390 . S
C1374 C1375 1.394 . S
C1374 C1380 1.465 . S
C1375 C1370 1.399 . S
C1375 C1374 1.394 . S
C1375 C1376 1.516 . S
C1376 C1375 1.516 . S
C1376 C1377 1.502 . S
C1376 C1378 1.561 . S
C1376 C1379 1.526 . S
C1377 H1361 0.959 . S
C1377 H1362 0.959 . S
C1377 H1363 0.961 . S
C1377 C1376 1.502 . S
C1378 H1364 0.960 . S
C1378 H1365 0.961 . S
C1378 H1366 0.959 . S
C1378 C1376 1.561 . S
C1379 C1376 1.526 . S
C1379 C1380 1.396 . S
C1379 C1384 1.390 . S
C1380 C1374 1.465 . S
C1380 C1379 1.396 . S
C1380 C1381 1.399 . S
C1381 H1367 0.929 . S
C1381 C1380 1.399 . S
C1381 C1382 1.385 . S
C1382 H1368 0.931 . S
C1382 C1381 1.385 . S
C1382 C1383 1.389 . S
C1383 C1382 1.389 . S
C1383 C1384 1.387 . S
C1384 H1369 0.930 . S
C1384 C1379 1.390 . S
C1384 C1383 1.387 . S
H1385 C1397 0.930 . S
H1386 C1399 0.930 . S
H1387 C1400 0.930 . S
H1388 C1404 0.959 . S
H1389 C1404 0.959 . S
H1390 C1404 0.961 . S
H1391 C1405 0.960 . S
H1392 C1405 0.961 . S
H1393 C1405 0.959 . S
H1394 C1408 0.929 . S
H1395 C1409 0.931 . S
H1396 C1411 0.930 . S
C1397 H1385 0.930 . S
C1397 C1398 1.399 . S
C1397 C1402 1.399 . S
C1398 C1397 1.399 . S
C1398 C1399 1.376 . S
C1399 H1386 0.930 . S
C1399 C1398 1.376 . S
C1399 C1400 1.388 . S
C1400 H1387 0.930 . S
C1400 C1399 1.388 . S
C1400 C1401 1.390 . S
C1401 C1400 1.390 . S
C1401 C1402 1.394 . S
C1401 C1407 1.465 . S
C1402 C1397 1.399 . S
C1402 C1401 1.394 . S
C1402 C1403 1.516 . S
C1403 C1402 1.516 . S
C1403 C1404 1.502 . S
C1403 C1405 1.561 . S
C1403 C1406 1.526 . S
C1404 H1388 0.959 . S
C1404 H1389 0.959 . S
C1404 H1390 0.961 . S
C1404 C1403 1.502 . S
C1405 H1391 0.960 . S
C1405 H1392 0.961 . S
C1405 H1393 0.959 . S
C1405 C1403 1.561 . S
C1406 C1403 1.526 . S
C1406 C1407 1.396 . S
C1406 C1411 1.390 . S
C1407 C1401 1.465 . S
C1407 C1406 1.396 . S
C1407 C1408 1.399 . S
C1408 H1394 0.929 . S
C1408 C1407 1.399 . S
C1408 C1409 1.385 . S
C1409 H1395 0.931 . S
C1409 C1408 1.385 . S
C1409 C1410 1.389 . S
C1410 C1409 1.389 . S
C1410 C1411 1.387 . S
C1411 H1396 0.930 . S
C1411 C1406 1.390 . S
C1411 C1410 1.387 . S
H1412 C1424 0.930 . S
H1413 C1426 0.930 . S
H1414 C1427 0.930 1_655 S
H1415 C1431 0.959 . S
H1416 C1431 0.959 . S
H1417 C1431 0.961 . S
H1418 C1432 0.960 . S
H1419 C1432 0.961 . S
H1420 C1432 0.959 . S
H1421 C1435 0.931 . S
H1422 C1436 0.931 . S
H1423 C1438 0.930 . S
C1424 H1412 0.930 . S
C1424 C1425 1.399 . S
C1424 C1429 1.399 . S
C1425 C1424 1.399 . S
C1425 C1426 1.376 . S
C1426 H1413 0.930 . S
C1426 C1425 1.376 . S
C1426 C1427 1.388 . S
C1427 H1414 0.930 1_455 S
C1427 C1426 1.388 . S
C1427 C1428 1.390 . S
C1428 C1427 1.390 . S
C1428 C1429 1.394 . S
C1428 C1434 1.465 . S
C1429 C1424 1.399 . S
C1429 C1428 1.394 . S
C1429 C1430 1.516 . S
C1430 C1429 1.516 . S
C1430 C1431 1.502 . S
C1430 C1432 1.561 1_455 S
C1430 C1433 1.526 . S
C1431 H1415 0.959 . S
C1431 H1416 0.959 . S
C1431 H1417 0.961 . S
C1431 C1430 1.502 . S
C1432 H1418 0.960 . S
C1432 H1419 0.961 . S
C1432 H1420 0.959 . S
C1432 C1430 1.561 1_655 S
C1433 C1430 1.526 . S
C1433 C1434 1.396 . S
C1433 C1438 1.390 . S
C1434 C1428 1.465 . S
C1434 C1433 1.396 . S
C1434 C1435 1.399 . S
C1435 H1421 0.931 . S
C1435 C1434 1.399 . S
C1435 C1436 1.385 . S
C1436 H1422 0.931 . S
C1436 C1435 1.385 . S
C1436 C1437 1.389 . S
C1437 C1436 1.389 . S
C1437 C1438 1.387 . S
C1438 H1423 0.930 . S
C1438 C1433 1.390 . S
C1438 C1437 1.387 . S
H1439 C1451 0.930 . S
H1440 C1453 0.930 . S
H1441 C1454 0.930 . S
H1442 C1458 0.959 . S
H1443 C1458 0.959 . S
H1444 C1458 0.961 . S
H1445 C1459 0.960 . S
H1446 C1459 0.961 . S
H1447 C1459 0.959 . S
H1448 C1462 0.929 . S
H1449 C1463 0.931 . S
H1450 C1465 0.930 . S
C1451 H1439 0.930 . S
C1451 C1452 1.399 . S
C1451 C1456 1.399 . S
C1452 C1451 1.399 . S
C1452 C1453 1.376 . S
C1453 H1440 0.930 . S
C1453 C1452 1.376 . S
C1453 C1454 1.388 . S
C1454 H1441 0.930 . S
C1454 C1453 1.388 . S
C1454 C1455 1.390 . S
C1455 C1454 1.390 . S
C1455 C1456 1.394 . S
C1455 C1461 1.465 . S
C1456 C1451 1.399 . S
C1456 C1455 1.394 . S
C1456 C1457 1.516 . S
C1457 C1456 1.516 . S
C1457 C1458 1.502 . S
C1457 C1459 1.561 . S
C1457 C1460 1.526 . S
C1458 H1442 0.959 . S
C1458 H1443 0.959 . S
C1458 H1444 0.961 . S
C1458 C1457 1.502 . S
C1459 H1445 0.960 . S
C1459 H1446 0.961 . S
C1459 H1447 0.959 . S
C1459 C1457 1.561 . S
C1460 C1457 1.526 . S
C1460 C1461 1.396 . S
C1460 C1465 1.390 . S
C1461 C1455 1.465 . S
C1461 C1460 1.396 . S
C1461 C1462 1.399 . S
C1462 H1448 0.929 . S
C1462 C1461 1.399 . S
C1462 C1463 1.385 . S
C1463 H1449 0.931 . S
C1463 C1462 1.385 . S
C1463 C1464 1.389 . S
C1464 C1463 1.389 . S
C1464 C1465 1.387 . S
C1465 H1450 0.930 . S
C1465 C1460 1.390 . S
C1465 C1464 1.387 . S
H1466 C1478 0.930 . S
H1467 C1480 0.930 . S
H1468 C1481 0.930 . S
H1469 C1485 0.959 . S
H1470 C1485 0.959 . S
H1471 C1485 0.961 . S
H1472 C1486 0.960 . S
H1473 C1486 0.961 . S
H1474 C1486 0.959 . S
H1475 C1489 0.929 . S
H1476 C1490 0.931 . S
H1477 C1492 0.930 . S
C1478 H1466 0.930 . S
C1478 C1479 1.399 . S
C1478 C1483 1.399 . S
C1479 C1478 1.399 . S
C1479 C1480 1.376 . S
C1480 H1467 0.930 . S
C1480 C1479 1.376 . S
C1480 C1481 1.388 . S
C1481 H1468 0.930 . S
C1481 C1480 1.388 . S
C1481 C1482 1.390 . S
C1482 C1481 1.390 . S
C1482 C1483 1.394 . S
C1482 C1488 1.465 . S
C1483 C1478 1.399 . S
C1483 C1482 1.394 . S
C1483 C1484 1.516 . S
C1484 C1483 1.516 . S
C1484 C1485 1.502 . S
C1484 C1486 1.561 . S
C1484 C1487 1.526 . S
C1485 H1469 0.959 . S
C1485 H1470 0.959 . S
C1485 H1471 0.961 . S
C1485 C1484 1.502 . S
C1486 H1472 0.960 . S
C1486 H1473 0.961 . S
C1486 H1474 0.959 . S
C1486 C1484 1.561 . S
C1487 C1484 1.526 . S
C1487 C1488 1.396 . S
C1487 C1492 1.390 . S
C1488 C1482 1.465 . S
C1488 C1487 1.396 . S
C1488 C1489 1.399 1_556 S
C1489 H1475 0.929 . S
C1489 C1488 1.399 1_554 S
C1489 C1490 1.385 . S
C1490 H1476 0.931 . S
C1490 C1489 1.385 . S
C1490 C1491 1.389 . S
C1491 C1490 1.389 . S
C1491 C1492 1.387 1_554 S
C1492 H1477 0.930 . S
C1492 C1487 1.390 . S
C1492 C1491 1.387 1_556 S
H1493 C1505 0.930 . S
H1494 C1507 0.930 . S
H1495 C1508 0.930 . S
H1496 C1512 0.959 . S
H1497 C1512 0.959 . S
H1498 C1512 0.961 . S
H1499 C1513 0.960 . S
H1500 C1513 0.961 . S
H1501 C1513 0.959 . S
H1502 C1516 0.929 . S
H1503 C1517 0.931 . S
H1504 C1519 0.930 . S
C1505 H1493 0.930 . S
C1505 C1506 1.399 . S
C1505 C1510 1.399 . S
C1506 C1505 1.399 . S
C1506 C1507 1.376 . S
C1507 H1494 0.930 . S
C1507 C1506 1.376 . S
C1507 C1508 1.388 . S
C1508 H1495 0.930 . S
C1508 C1507 1.388 . S
C1508 C1509 1.390 . S
C1509 C1508 1.390 . S
C1509 C1510 1.394 . S
C1509 C1515 1.465 . S
C1510 C1505 1.399 . S
C1510 C1509 1.394 . S
C1510 C1511 1.516 . S
C1511 C1510 1.516 . S
C1511 C1512 1.502 . S
C1511 C1513 1.561 . S
C1511 C1514 1.526 . S
C1512 H1496 0.959 . S
C1512 H1497 0.959 . S
C1512 H1498 0.961 . S
C1512 C1511 1.502 . S
C1513 H1499 0.960 . S
C1513 H1500 0.961 . S
C1513 H1501 0.959 . S
C1513 C1511 1.561 . S
C1514 C1511 1.526 . S
C1514 C1515 1.396 . S
C1514 C1519 1.390 . S
C1515 C1509 1.465 . S
C1515 C1514 1.396 . S
C1515 C1516 1.399 . S
C1516 H1502 0.929 . S
C1516 C1515 1.399 . S
C1516 C1517 1.385 . S
C1517 H1503 0.931 . S
C1517 C1516 1.385 . S
C1517 C1518 1.389 . S
C1518 C1517 1.389 . S
C1518 C1519 1.387 . S
C1519 H1504 0.930 . S
C1519 C1514 1.390 . S
C1519 C1518 1.387 . S
H1520 C1532 0.930 . S
H1521 C1534 0.930 . S
H1522 C1535 0.930 . S
H1523 C1539 0.959 . S
H1524 C1539 0.959 . S
H1525 C1539 0.961 . S
H1526 C1540 0.960 . S
H1527 C1540 0.961 . S
H1528 C1540 0.959 . S
H1529 C1543 0.929 . S
H1530 C1544 0.931 . S
H1531 C1546 0.930 . S
C1532 H1520 0.930 . S
C1532 C1533 1.399 1_565 S
C1532 C1537 1.399 1_565 S
C1533 C1532 1.399 1_545 S
C1533 C1534 1.376 . S
C1534 H1521 0.930 . S
C1534 C1533 1.376 . S
C1534 C1535 1.388 . S
C1535 H1522 0.930 . S
C1535 C1534 1.388 . S
C1535 C1536 1.390 . S
C1536 C1535 1.390 . S
C1536 C1537 1.394 . S
C1536 C1542 1.465 . S
C1537 C1532 1.399 1_545 S
C1537 C1536 1.394 . S
C1537 C1538 1.516 1_545 S
C1538 C1537 1.516 1_565 S
C1538 C1539 1.502 . S
C1538 C1540 1.561 . S
C1538 C1541 1.509 1_565 S
C1539 H1523 0.959 . S
C1539 H1524 0.959 . S
C1539 H1525 0.961 . S
C1539 C1538 1.502 . S
C1540 H1526 0.960 . S
C1540 H1527 0.961 . S
C1540 H1528 0.959 . S
C1540 C1538 1.561 . S
C1541 C1538 1.509 1_545 S
C1541 C1542 1.421 . S
C1541 C1546 1.385 1_545 S
C1542 C1536 1.465 . S
C1542 C1541 1.421 . S
C1542 C1543 1.399 . S
C1543 H1529 0.929 . S
C1543 C1542 1.399 . S
C1543 C1544 1.385 . S
C1544 H1530 0.931 . S
C1544 C1543 1.385 . S
C1544 C1545 1.389 . S
C1545 C1544 1.389 . S
C1545 C1546 1.387 1_545 S
C1546 H1531 0.930 . S
C1546 C1541 1.385 1_565 S
C1546 C1545 1.387 1_565 S
H1547 C1559 0.930 . S
H1548 C1561 0.930 . S
H1549 C1562 0.930 . S
H1550 C1566 0.959 . S
H1551 C1566 0.959 . S
H1552 C1566 0.961 . S
H1553 C1567 0.960 . S
H1554 C1567 0.961 . S
H1555 C1567 0.959 . S
H1556 C1570 0.929 . S
H1557 C1571 0.931 . S
H1558 C1573 0.930 . S
C1559 H1547 0.930 . S
C1559 C1560 1.399 . S
C1559 C1564 1.399 . S
C1560 C1559 1.399 . S
C1560 C1561 1.376 . S
C1561 H1548 0.930 . S
C1561 C1560 1.376 . S
C1561 C1562 1.388 . S
C1562 H1549 0.930 . S
C1562 C1561 1.388 . S
C1562 C1563 1.390 . S
C1563 C1562 1.390 . S
C1563 C1564 1.394 . S
C1563 C1569 1.465 . S
C1564 C1559 1.399 . S
C1564 C1563 1.394 . S
C1564 C1565 1.516 . S
C1565 C1564 1.516 . S
C1565 C1566 1.502 . S
C1565 C1567 1.561 . S
C1565 C1568 1.526 . S
C1566 H1550 0.959 . S
C1566 H1551 0.959 . S
C1566 H1552 0.961 . S
C1566 C1565 1.502 . S
C1567 H1553 0.960 . S
C1567 H1554 0.961 . S
C1567 H1555 0.959 . S
C1567 C1565 1.561 . S
C1568 C1565 1.526 . S
C1568 C1569 1.396 . S
C1568 C1573 1.390 . S
C1569 C1563 1.465 . S
C1569 C1568 1.396 . S
C1569 C1570 1.399 . S
C1570 H1556 0.929 . S
C1570 C1569 1.399 . S
C1570 C1571 1.385 . S
C1571 H1557 0.931 . S
C1571 C1570 1.385 . S
C1571 C1572 1.389 . S
C1572 C1571 1.389 . S
C1572 C1573 1.387 . S
C1573 H1558 0.930 . S
C1573 C1568 1.390 . S
C1573 C1572 1.387 . S
H1574 C1586 0.930 1_565 S
H1575 C1588 0.930 . S
H1576 C1589 0.930 . S
H1577 C1593 0.959 . S
H1578 C1593 0.959 . S
H1579 C1593 0.961 . S
H1580 C1594 0.960 . S
H1581 C1594 0.961 . S
H1582 C1594 0.959 . S
H1583 C1597 0.929 . S
H1584 C1598 0.931 . S
H1585 C1600 0.930 1_565 S
C1586 H1574 0.930 1_545 S
C1586 C1587 1.399 . S
C1586 C1591 1.399 . S
C1587 C1586 1.399 . S
C1587 C1588 1.376 . S
C1588 H1575 0.930 . S
C1588 C1587 1.376 . S
C1588 C1589 1.388 . S
C1589 H1576 0.930 . S
C1589 C1588 1.388 . S
C1589 C1590 1.390 . S
C1590 C1589 1.390 . S
C1590 C1591 1.394 . S
C1590 C1596 1.465 . S
C1591 C1586 1.399 . S
C1591 C1590 1.394 . S
C1591 C1592 1.516 1_545 S
C1592 C1591 1.516 1_565 S
C1592 C1593 1.502 . S
C1592 C1594 1.561 . S
C1592 C1595 1.526 1_565 S
C1593 H1577 0.959 . S
C1593 H1578 0.959 . S
C1593 H1579 0.961 . S
C1593 C1592 1.502 . S
C1594 H1580 0.960 . S
C1594 H1581 0.961 . S
C1594 H1582 0.959 . S
C1594 C1592 1.561 . S
C1595 C1592 1.526 1_545 S
C1595 C1596 1.396 . S
C1595 C1600 1.390 . S
C1596 C1590 1.465 . S
C1596 C1595 1.396 . S
C1596 C1597 1.399 . S
C1597 H1583 0.929 . S
C1597 C1596 1.399 . S
C1597 C1598 1.385 . S
C1598 H1584 0.931 . S
C1598 C1597 1.385 . S
C1598 C1599 1.389 . S
C1599 C1598 1.389 . S
C1599 C1600 1.387 . S
C1600 H1585 0.930 1_545 S
C1600 C1595 1.390 . S
C1600 C1599 1.387 . S
H1601 C1613 0.930 . S
H1602 C1615 0.930 . S
H1603 C1616 0.930 . S
H1604 C1620 0.959 . S
H1605 C1620 0.959 . S
H1606 C1620 0.961 . S
H1607 C1621 0.960 . S
H1608 C1621 0.961 . S
H1609 C1621 0.959 . S
H1610 C1624 0.929 . S
H1611 C1625 0.931 . S
H1612 C1627 0.930 . S
C1613 H1601 0.930 . S
C1613 C1614 1.399 . S
C1613 C1618 1.399 . S
C1614 C1613 1.399 . S
C1614 C1615 1.376 . S
C1615 H1602 0.930 . S
C1615 C1614 1.376 . S
C1615 C1616 1.388 . S
C1616 H1603 0.930 . S
C1616 C1615 1.388 . S
C1616 C1617 1.390 . S
C1617 C1616 1.390 . S
C1617 C1618 1.394 . S
C1617 C1623 1.465 . S
C1618 C1613 1.399 . S
C1618 C1617 1.394 . S
C1618 C1619 1.516 . S
C1619 C1618 1.516 . S
C1619 C1620 1.502 . S
C1619 C1621 1.561 . S
C1619 C1622 1.526 . S
C1620 H1604 0.959 . S
C1620 H1605 0.959 . S
C1620 H1606 0.961 . S
C1620 C1619 1.502 . S
C1621 H1607 0.960 . S
C1621 H1608 0.961 . S
C1621 H1609 0.959 . S
C1621 C1619 1.561 . S
C1622 C1619 1.526 . S
C1622 C1623 1.396 . S
C1622 C1627 1.390 . S
C1623 C1617 1.465 . S
C1623 C1622 1.396 . S
C1623 C1624 1.399 . S
C1624 H1610 0.929 . S
C1624 C1623 1.399 . S
C1624 C1625 1.385 . S
C1625 H1611 0.931 . S
C1625 C1624 1.385 . S
C1625 C1626 1.389 . S
C1626 C1625 1.389 . S
C1626 C1627 1.387 . S
C1627 H1612 0.930 . S
C1627 C1622 1.390 . S
C1627 C1626 1.387 . S
H1628 C1640 0.930 . S
H1629 C1642 0.930 . S
H1630 C1643 0.930 . S
H1631 C1647 0.959 . S
H1632 C1647 0.959 . S
H1633 C1647 0.961 . S
H1634 C1648 0.960 . S
H1635 C1648 0.961 . S
H1636 C1648 0.959 . S
H1637 C1651 0.929 . S
H1638 C1652 0.931 . S
H1639 C1654 0.930 . S
C1640 H1628 0.930 . S
C1640 C1641 1.399 . S
C1640 C1645 1.399 . S
C1641 C1640 1.399 . S
C1641 C1642 1.376 1_545 S
C1642 H1629 0.930 . S
C1642 C1641 1.376 1_565 S
C1642 C1643 1.388 . S
C1643 H1630 0.930 . S
C1643 C1642 1.388 . S
C1643 C1644 1.385 . S
C1644 C1643 1.385 . S
C1644 C1645 1.398 1_565 S
C1644 C1650 1.466 1_565 S
C1645 C1640 1.399 . S
C1645 C1644 1.398 1_545 S
C1645 C1646 1.516 . S
C1646 C1645 1.516 . S
C1646 C1647 1.502 . S
C1646 C1648 1.561 . S
C1646 C1649 1.526 . S
C1647 H1631 0.959 . S
C1647 H1632 0.959 . S
C1647 H1633 0.961 . S
C1647 C1646 1.502 . S
C1648 H1634 0.960 . S
C1648 H1635 0.961 . S
C1648 H1636 0.959 . S
C1648 C1646 1.561 . S
C1649 C1646 1.526 . S
C1649 C1650 1.396 . S
C1649 C1654 1.390 . S
C1650 C1644 1.466 1_545 S
C1650 C1649 1.396 . S
C1650 C1651 1.399 1_545 S
C1651 H1637 0.929 . S
C1651 C1650 1.399 1_565 S
C1651 C1652 1.385 . S
C1652 H1638 0.931 . S
C1652 C1651 1.385 . S
C1652 C1653 1.389 1_565 S
C1653 C1652 1.389 1_545 S
C1653 C1654 1.387 . S
C1654 H1639 0.930 . S
C1654 C1649 1.390 . S
C1654 C1653 1.387 . S
H1655 C1667 0.930 . S
H1656 C1669 0.930 . S
H1657 C1670 0.930 . S
H1658 C1674 0.959 . S
H1659 C1674 0.959 . S
H1660 C1674 0.961 . S
H1661 C1675 0.960 . S
H1662 C1675 0.961 . S
H1663 C1675 0.959 . S
H1664 C1678 0.929 . S
H1665 C1679 0.931 . S
H1666 C1681 0.930 . S
C1667 H1655 0.930 . S
C1667 C1668 1.399 . S
C1667 C1672 1.399 . S
C1668 C1667 1.399 . S
C1668 C1669 1.376 . S
C1669 H1656 0.930 . S
C1669 C1668 1.376 . S
C1669 C1670 1.388 . S
C1670 H1657 0.930 . S
C1670 C1669 1.388 . S
C1670 C1671 1.390 . S
C1671 C1670 1.390 . S
C1671 C1672 1.394 . S
C1671 C1677 1.465 . S
C1672 C1667 1.399 . S
C1672 C1671 1.394 . S
C1672 C1673 1.516 . S
C1673 C1672 1.516 . S
C1673 C1674 1.502 . S
C1673 C1675 1.561 . S
C1673 C1676 1.526 . S
C1674 H1658 0.959 . S
C1674 H1659 0.959 . S
C1674 H1660 0.961 . S
C1674 C1673 1.502 . S
C1675 H1661 0.960 . S
C1675 H1662 0.961 . S
C1675 H1663 0.959 . S
C1675 C1673 1.561 . S
C1676 C1673 1.526 . S
C1676 C1677 1.396 . S
C1676 C1681 1.390 . S
C1677 C1671 1.465 . S
C1677 C1676 1.396 . S
C1677 C1678 1.399 . S
C1678 H1664 0.929 . S
C1678 C1677 1.399 . S
C1678 C1679 1.385 . S
C1679 H1665 0.931 . S
C1679 C1678 1.385 . S
C1679 C1680 1.389 . S
C1680 C1679 1.389 . S
C1680 C1681 1.387 . S
C1681 H1666 0.930 . S
C1681 C1676 1.390 . S
C1681 C1680 1.387 . S
H1682 C1694 0.930 . S
H1683 C1696 0.930 . S
H1684 C1697 0.930 . S
H1685 C1701 0.959 . S
H1686 C1701 0.959 . S
H1687 C1701 0.961 . S
H1688 C1702 0.960 . S
H1689 C1702 0.961 . S
H1690 C1702 0.959 . S
H1691 C1705 0.929 . S
H1692 C1706 0.931 . S
H1693 C1708 0.930 . S
C1694 H1682 0.930 . S
C1694 C1695 1.399 . S
C1694 C1699 1.399 . S
C1695 C1694 1.399 . S
C1695 C1696 1.376 . S
C1696 H1683 0.930 . S
C1696 C1695 1.376 . S
C1696 C1697 1.388 . S
C1697 H1684 0.930 . S
C1697 C1696 1.388 . S
C1697 C1698 1.390 . S
C1698 C1697 1.390 . S
C1698 C1699 1.394 . S
C1698 C1704 1.465 . S
C1699 C1694 1.399 . S
C1699 C1698 1.394 . S
C1699 C1700 1.516 . S
C1700 C1699 1.516 . S
C1700 C1701 1.502 1_545 S
C1700 C1702 1.561 . S
C1700 C1703 1.526 . S
C1701 H1685 0.959 . S
C1701 H1686 0.959 . S
C1701 H1687 0.961 . S
C1701 C1700 1.502 1_565 S
C1702 H1688 0.960 . S
C1702 H1689 0.961 . S
C1702 H1690 0.959 . S
C1702 C1700 1.561 . S
C1703 C1700 1.526 . S
C1703 C1704 1.396 . S
C1703 C1708 1.390 1_545 S
C1704 C1698 1.465 . S
C1704 C1703 1.396 . S
C1704 C1705 1.399 . S
C1705 H1691 0.929 . S
C1705 C1704 1.399 . S
C1705 C1706 1.385 . S
C1706 H1692 0.931 . S
C1706 C1705 1.385 . S
C1706 C1707 1.381 1_545 S
C1707 C1706 1.381 1_565 S
C1707 C1708 1.384 . S
C1708 H1693 0.930 . S
C1708 C1703 1.390 1_565 S
C1708 C1707 1.384 . S
H1709 C1721 0.930 . S
H1710 C1723 0.930 . S
H1711 C1724 0.930 . S
H1712 C1728 0.959 . S
H1713 C1728 0.959 . S
H1714 C1728 0.961 . S
H1715 C1729 0.960 . S
H1716 C1729 0.961 . S
H1717 C1729 0.959 . S
H1718 C1732 0.929 . S
H1719 C1733 0.931 . S
H1720 C1735 0.930 . S
C1721 H1709 0.930 . S
C1721 C1722 1.399 . S
C1721 C1726 1.399 . S
C1722 C1721 1.399 . S
C1722 C1723 1.376 . S
C1723 H1710 0.930 . S
C1723 C1722 1.376 . S
C1723 C1724 1.388 . S
C1724 H1711 0.930 . S
C1724 C1723 1.388 . S
C1724 C1725 1.390 . S
C1725 C1724 1.390 . S
C1725 C1726 1.394 . S
C1725 C1731 1.465 . S
C1726 C1721 1.399 . S
C1726 C1725 1.394 . S
C1726 C1727 1.516 . S
C1727 C1726 1.516 . S
C1727 C1728 1.502 . S
C1727 C1729 1.561 . S
C1727 C1730 1.526 . S
C1728 H1712 0.959 . S
C1728 H1713 0.959 . S
C1728 H1714 0.961 . S
C1728 C1727 1.502 . S
C1729 H1715 0.960 . S
C1729 H1716 0.961 . S
C1729 H1717 0.959 . S
C1729 C1727 1.561 . S
C1730 C1727 1.526 . S
C1730 C1731 1.396 . S
C1730 C1735 1.390 . S
C1731 C1725 1.465 . S
C1731 C1730 1.396 . S
C1731 C1732 1.399 . S
C1732 H1718 0.929 . S
C1732 C1731 1.399 . S
C1732 C1733 1.385 . S
C1733 H1719 0.931 . S
C1733 C1732 1.385 . S
C1733 C1734 1.389 . S
C1734 C1733 1.389 . S
C1734 C1735 1.387 . S
C1735 H1720 0.930 . S
C1735 C1730 1.390 . S
C1735 C1734 1.387 . S
H1736 C1748 0.930 . S
H1737 C1750 0.930 1_556 S
H1738 C1751 0.930 . S
H1739 C1755 0.959 . S
H1740 C1755 0.959 . S
H1741 C1755 0.961 . S
H1742 C1756 0.960 . S
H1743 C1756 0.961 . S
H1744 C1756 0.959 . S
H1745 C1759 0.929 . S
H1746 C1760 0.931 . S
H1747 C1762 0.930 . S
C1748 H1736 0.930 . S
C1748 C1749 1.399 . S
C1748 C1753 1.399 . S
C1749 C1748 1.399 . S
C1749 C1750 1.376 . S
C1750 H1737 0.930 1_554 S
C1750 C1749 1.376 . S
C1750 C1751 1.388 1_554 S
C1751 H1738 0.930 . S
C1751 C1750 1.388 1_556 S
C1751 C1752 1.390 1_556 S
C1752 C1751 1.390 1_554 S
C1752 C1753 1.394 . S
C1752 C1758 1.465 . S
C1753 C1748 1.399 . S
C1753 C1752 1.394 . S
C1753 C1754 1.516 . S
C1754 C1753 1.516 . S
C1754 C1755 1.502 . S
C1754 C1756 1.561 . S
C1754 C1757 1.526 . S
C1755 H1739 0.959 . S
C1755 H1740 0.959 . S
C1755 H1741 0.961 . S
C1755 C1754 1.502 . S
C1756 H1742 0.960 . S
C1756 H1743 0.961 . S
C1756 H1744 0.959 . S
C1756 C1754 1.561 . S
C1757 C1754 1.526 . S
C1757 C1758 1.396 . S
C1757 C1762 1.390 . S
C1758 C1752 1.465 . S
C1758 C1757 1.396 . S
C1758 C1759 1.399 1_554 S
C1759 H1745 0.929 . S
C1759 C1758 1.399 1_556 S
C1759 C1760 1.385 . S
C1760 H1746 0.931 . S
C1760 C1759 1.385 . S
C1760 C1761 1.389 1_556 S
C1761 C1760 1.389 1_554 S
C1761 C1762 1.387 . S
C1762 H1747 0.930 . S
C1762 C1757 1.390 . S
C1762 C1761 1.387 . S
H1763 C1775 0.930 . S
H1764 C1777 0.930 . S
H1765 C1778 0.930 1_556 S
H1766 C1782 0.959 . S
H1767 C1782 0.959 . S
H1768 C1782 0.961 . S
H1769 C1783 0.960 . S
H1770 C1783 0.961 . S
H1771 C1783 0.959 . S
H1772 C1786 0.929 1_556 S
H1773 C1787 0.931 1_556 S
H1774 C1789 0.930 . S
C1775 H1763 0.930 . S
C1775 C1776 1.399 . S
C1775 C1780 1.399 . S
C1776 C1775 1.399 . S
C1776 C1777 1.376 . S
C1777 H1764 0.930 . S
C1777 C1776 1.376 . S
C1777 C1778 1.388 . S
C1778 H1765 0.930 1_554 S
C1778 C1777 1.388 . S
C1778 C1779 1.390 . S
C1779 C1778 1.390 . S
C1779 C1780 1.394 . S
C1779 C1785 1.465 . S
C1780 C1775 1.399 . S
C1780 C1779 1.394 . S
C1780 C1781 1.516 . S
C1781 C1780 1.516 . S
C1781 C1782 1.502 . S
C1781 C1783 1.561 . S
C1781 C1784 1.526 . S
C1782 H1766 0.959 . S
C1782 H1767 0.959 . S
C1782 H1768 0.961 . S
C1782 C1781 1.502 . S
C1783 H1769 0.960 . S
C1783 H1770 0.961 . S
C1783 H1771 0.959 . S
C1783 C1781 1.561 . S
C1784 C1781 1.526 . S
C1784 C1785 1.396 . S
C1784 C1789 1.390 . S
C1785 C1779 1.465 . S
C1785 C1784 1.396 . S
C1785 C1786 1.399 . S
C1786 H1772 0.929 1_554 S
C1786 C1785 1.399 . S
C1786 C1787 1.385 . S
C1787 H1773 0.931 1_554 S
C1787 C1786 1.385 . S
C1787 C1788 1.389 . S
C1788 C1787 1.389 . S
C1788 C1789 1.387 . S
C1789 H1774 0.930 . S
C1789 C1784 1.390 . S
C1789 C1788 1.387 . S
H1790 C1802 0.930 . S
H1791 C1804 0.930 . S
H1792 C1805 0.930 . S
H1793 C1809 0.959 . S
H1794 C1809 0.959 . S
H1795 C1809 0.961 . S
H1796 C1810 0.960 . S
H1797 C1810 0.961 . S
H1798 C1810 0.959 . S
H1799 C1813 0.929 . S
H1800 C1814 0.931 . S
H1801 C1816 0.930 . S
C1802 H1790 0.930 . S
C1802 C1803 1.399 . S
C1802 C1807 1.399 . S
C1803 C1802 1.399 . S
C1803 C1804 1.376 . S
C1804 H1791 0.930 . S
C1804 C1803 1.376 . S
C1804 C1805 1.388 . S
C1805 H1792 0.930 . S
C1805 C1804 1.388 . S
C1805 C1806 1.390 . S
C1806 C1805 1.390 . S
C1806 C1807 1.394 . S
C1806 C1812 1.465 . S
C1807 C1802 1.399 . S
C1807 C1806 1.394 . S
C1807 C1808 1.516 . S
C1808 C1807 1.516 . S
C1808 C1809 1.502 . S
C1808 C1810 1.561 . S
C1808 C1811 1.526 . S
C1809 H1793 0.959 . S
C1809 H1794 0.959 . S
C1809 H1795 0.961 . S
C1809 C1808 1.502 . S
C1810 H1796 0.960 . S
C1810 H1797 0.961 . S
C1810 H1798 0.959 . S
C1810 C1808 1.561 . S
C1811 C1808 1.526 . S
C1811 C1812 1.396 . S
C1811 C1816 1.390 . S
C1812 C1806 1.465 . S
C1812 C1811 1.396 . S
C1812 C1813 1.399 . S
C1813 H1799 0.929 . S
C1813 C1812 1.399 . S
C1813 C1814 1.385 . S
C1814 H1800 0.931 . S
C1814 C1813 1.385 . S
C1814 C1815 1.389 . S
C1815 C1814 1.389 . S
C1815 C1816 1.387 . S
C1816 H1801 0.930 . S
C1816 C1811 1.390 . S
C1816 C1815 1.387 . S
H1817 C1829 0.930 . S
H1818 C1831 0.930 . S
H1819 C1832 0.930 . S
H1820 C1836 0.959 . S
H1821 C1836 0.959 . S
H1822 C1836 0.961 . S
H1823 C1837 0.960 . S
H1824 C1837 0.961 . S
H1825 C1837 0.959 . S
H1826 C1840 0.929 . S
H1827 C1841 0.931 . S
H1828 C1843 0.930 . S
C1829 H1817 0.930 . S
C1829 C1830 1.399 . S
C1829 C1834 1.399 . S
C1830 C1829 1.399 . S
C1830 C1831 1.376 . S
C1831 H1818 0.930 . S
C1831 C1830 1.376 . S
C1831 C1832 1.388 . S
C1832 H1819 0.930 . S
C1832 C1831 1.388 . S
C1832 C1833 1.390 . S
C1833 C1832 1.390 . S
C1833 C1834 1.394 . S
C1833 C1839 1.465 . S
C1834 C1829 1.399 . S
C1834 C1833 1.394 . S
C1834 C1835 1.516 . S
C1835 C1834 1.516 . S
C1835 C1836 1.502 . S
C1835 C1837 1.561 . S
C1835 C1838 1.526 . S
C1836 H1820 0.959 . S
C1836 H1821 0.959 . S
C1836 H1822 0.961 . S
C1836 C1835 1.502 . S
C1837 H1823 0.960 . S
C1837 H1824 0.961 . S
C1837 H1825 0.959 . S
C1837 C1835 1.561 . S
C1838 C1835 1.526 . S
C1838 C1839 1.396 . S
C1838 C1843 1.390 . S
C1839 C1833 1.465 . S
C1839 C1838 1.396 . S
C1839 C1840 1.399 . S
C1840 H1826 0.929 . S
C1840 C1839 1.399 . S
C1840 C1841 1.385 . S
C1841 H1827 0.931 . S
C1841 C1840 1.385 . S
C1841 C1842 1.389 . S
C1842 C1841 1.389 . S
C1842 C1843 1.387 . S
C1843 H1828 0.930 . S
C1843 C1838 1.390 . S
C1843 C1842 1.387 . S
H1844 C1856 0.930 . S
H1845 C1858 0.930 . S
H1846 C1859 0.930 . S
H1847 C1863 0.959 . S
H1848 C1863 0.959 . S
H1849 C1863 0.961 . S
H1850 C1864 0.960 . S
H1851 C1864 0.961 . S
H1852 C1864 0.959 . S
H1853 C1867 0.929 . S
H1854 C1868 0.931 . S
H1855 C1870 0.930 . S
C1856 H1844 0.930 . S
C1856 C1857 1.399 . S
C1856 C1861 1.399 . S
C1857 C1856 1.399 . S
C1857 C1858 1.376 . S
C1858 H1845 0.930 . S
C1858 C1857 1.376 . S
C1858 C1859 1.388 . S
C1859 H1846 0.930 . S
C1859 C1858 1.388 . S
C1859 C1860 1.390 . S
C1860 C1859 1.390 . S
C1860 C1861 1.394 . S
C1860 C1866 1.465 . S
C1861 C1856 1.399 . S
C1861 C1860 1.394 . S
C1861 C1862 1.516 . S
C1862 C1861 1.516 . S
C1862 C1863 1.502 . S
C1862 C1864 1.561 . S
C1862 C1865 1.526 . S
C1863 H1847 0.959 . S
C1863 H1848 0.959 . S
C1863 H1849 0.961 . S
C1863 C1862 1.502 . S
C1864 H1850 0.960 . S
C1864 H1851 0.961 . S
C1864 H1852 0.959 . S
C1864 C1862 1.561 . S
C1865 C1862 1.526 . S
C1865 C1866 1.396 . S
C1865 C1870 1.390 . S
C1866 C1860 1.465 . S
C1866 C1865 1.396 . S
C1866 C1867 1.399 . S
C1867 H1853 0.929 . S
C1867 C1866 1.399 . S
C1867 C1868 1.385 . S
C1868 H1854 0.931 . S
C1868 C1867 1.385 . S
C1868 C1869 1.389 . S
C1869 C1868 1.389 . S
C1869 C1870 1.387 . S
C1870 H1855 0.930 . S
C1870 C1865 1.390 . S
C1870 C1869 1.387 . S
H1871 C1883 0.930 . S
H1872 C1885 0.930 . S
H1873 C1886 0.930 . S
H1874 C1890 0.959 . S
H1875 C1890 0.959 . S
H1876 C1890 0.961 . S
H1877 C1891 0.960 . S
H1878 C1891 0.961 . S
H1879 C1891 0.959 . S
H1880 C1894 0.929 . S
H1881 C1895 0.931 . S
H1882 C1897 0.930 . S
C1883 H1871 0.930 . S
C1883 C1884 1.399 . S
C1883 C1888 1.399 . S
C1884 C1883 1.399 . S
C1884 C1885 1.376 . S
C1885 H1872 0.930 . S
C1885 C1884 1.376 . S
C1885 C1886 1.388 . S
C1886 H1873 0.930 . S
C1886 C1885 1.388 . S
C1886 C1887 1.390 . S
C1887 C1886 1.390 . S
C1887 C1888 1.394 . S
C1887 C1893 1.465 . S
C1888 C1883 1.399 . S
C1888 C1887 1.394 . S
C1888 C1889 1.516 . S
C1889 C1888 1.516 . S
C1889 C1890 1.502 . S
C1889 C1891 1.561 . S
C1889 C1892 1.526 . S
C1890 H1874 0.959 . S
C1890 H1875 0.959 . S
C1890 H1876 0.961 . S
C1890 C1889 1.502 . S
C1891 H1877 0.960 . S
C1891 H1878 0.961 . S
C1891 H1879 0.959 . S
C1891 C1889 1.561 . S
C1892 C1889 1.526 . S
C1892 C1893 1.396 . S
C1892 C1897 1.390 . S
C1893 C1887 1.465 . S
C1893 C1892 1.396 . S
C1893 C1894 1.399 . S
C1894 H1880 0.929 . S
C1894 C1893 1.399 . S
C1894 C1895 1.385 . S
C1895 H1881 0.931 . S
C1895 C1894 1.385 . S
C1895 C1896 1.389 . S
C1896 C1895 1.389 . S
C1896 C1897 1.387 . S
C1897 H1882 0.930 . S
C1897 C1892 1.390 . S
C1897 C1896 1.387 . S
H1898 C1910 0.930 . S
H1899 C1912 0.930 . S
H1900 C1913 0.930 . S
H1901 C1917 0.959 . S
H1902 C1917 0.959 . S
H1903 C1917 0.961 . S
H1904 C1918 0.960 . S
H1905 C1918 0.961 . S
H1906 C1918 0.959 . S
H1907 C1921 0.929 . S
H1908 C1922 0.931 . S
H1909 C1924 0.930 . S
C1910 H1898 0.930 . S
C1910 C1911 1.399 . S
C1910 C1915 1.399 . S
C1911 C1910 1.399 . S
C1911 C1912 1.376 . S
C1912 H1899 0.930 . S
C1912 C1911 1.376 . S
C1912 C1913 1.388 . S
C1913 H1900 0.930 . S
C1913 C1912 1.388 . S
C1913 C1914 1.390 . S
C1914 C1913 1.390 . S
C1914 C1915 1.394 . S
C1914 C1920 1.465 . S
C1915 C1910 1.399 . S
C1915 C1914 1.394 . S
C1915 C1916 1.516 . S
C1916 C1915 1.516 . S
C1916 C1917 1.502 . S
C1916 C1918 1.561 . S
C1916 C1919 1.526 . S
C1917 H1901 0.959 . S
C1917 H1902 0.959 . S
C1917 H1903 0.961 . S
C1917 C1916 1.502 . S
C1918 H1904 0.960 . S
C1918 H1905 0.961 . S
C1918 H1906 0.959 . S
C1918 C1916 1.561 . S
C1919 C1916 1.526 . S
C1919 C1920 1.396 . S
C1919 C1924 1.390 . S
C1920 C1914 1.465 . S
C1920 C1919 1.396 . S
C1920 C1921 1.399 . S
C1921 H1907 0.929 . S
C1921 C1920 1.399 . S
C1921 C1922 1.385 . S
C1922 H1908 0.931 . S
C1922 C1921 1.385 . S
C1922 C1923 1.389 . S
C1923 C1922 1.389 . S
C1923 C1924 1.387 . S
C1924 H1909 0.930 . S
C1924 C1919 1.390 . S
C1924 C1923 1.387 . S
H1925 C1937 0.930 . S
H1926 C1939 0.930 . S
H1927 C1940 0.930 . S
H1928 C1944 0.959 . S
H1929 C1944 0.959 . S
H1930 C1944 0.961 . S
H1931 C1945 0.960 . S
H1932 C1945 0.961 . S
H1933 C1945 0.959 . S
H1934 C1948 0.929 . S
H1935 C1949 0.931 . S
H1936 C1951 0.930 . S
C1937 H1925 0.930 . S
C1937 C1938 1.399 . S
C1937 C1942 1.399 . S
C1938 C1937 1.399 . S
C1938 C1939 1.376 . S
C1939 H1926 0.930 . S
C1939 C1938 1.376 . S
C1939 C1940 1.388 . S
C1940 H1927 0.930 . S
C1940 C1939 1.388 . S
C1940 C1941 1.390 . S
C1941 C1940 1.390 . S
C1941 C1942 1.394 . S
C1941 C1947 1.465 . S
C1942 C1937 1.399 . S
C1942 C1941 1.394 . S
C1942 C1943 1.516 . S
C1943 C1942 1.516 . S
C1943 C1944 1.502 . S
C1943 C1945 1.561 . S
C1943 C1946 1.526 . S
C1944 H1928 0.959 . S
C1944 H1929 0.959 . S
C1944 H1930 0.961 . S
C1944 C1943 1.502 . S
C1945 H1931 0.960 . S
C1945 H1932 0.961 . S
C1945 H1933 0.959 . S
C1945 C1943 1.561 . S
C1946 C1943 1.526 . S
C1946 C1947 1.396 . S
C1946 C1951 1.390 . S
C1947 C1941 1.465 . S
C1947 C1946 1.396 . S
C1947 C1948 1.399 . S
C1948 H1934 0.929 . S
C1948 C1947 1.399 . S
C1948 C1949 1.385 . S
C1949 H1935 0.931 . S
C1949 C1948 1.385 . S
C1949 C1950 1.389 . S
C1950 C1949 1.389 . S
C1950 C1951 1.387 . S
C1951 H1936 0.930 . S
C1951 C1946 1.390 . S
C1951 C1950 1.387 . S
H1952 C1964 0.930 . S
H1953 C1966 0.930 . S
H1954 C1967 0.930 . S
H1955 C1971 0.959 . S
H1956 C1971 0.959 . S
H1957 C1971 0.961 . S
H1958 C1972 0.960 . S
H1959 C1972 0.961 . S
H1960 C1972 0.959 . S
H1961 C1975 0.929 . S
H1962 C1976 0.931 . S
H1963 C1978 0.930 . S
C1964 H1952 0.930 . S
C1964 C1965 1.399 . S
C1964 C1969 1.399 . S
C1965 C1964 1.399 . S
C1965 C1966 1.376 . S
C1966 H1953 0.930 . S
C1966 C1965 1.376 . S
C1966 C1967 1.388 . S
C1967 H1954 0.930 . S
C1967 C1966 1.388 . S
C1967 C1968 1.390 . S
C1968 C1967 1.390 . S
C1968 C1969 1.394 . S
C1968 C1974 1.465 . S
C1969 C1964 1.399 . S
C1969 C1968 1.394 . S
C1969 C1970 1.516 . S
C1970 C1969 1.516 . S
C1970 C1971 1.502 . S
C1970 C1972 1.561 . S
C1970 C1973 1.526 . S
C1971 H1955 0.959 . S
C1971 H1956 0.959 . S
C1971 H1957 0.961 . S
C1971 C1970 1.502 . S
C1972 H1958 0.960 . S
C1972 H1959 0.961 . S
C1972 H1960 0.959 . S
C1972 C1970 1.561 . S
C1973 C1970 1.526 . S
C1973 C1974 1.396 . S
C1973 C1978 1.390 . S
C1974 C1968 1.465 . S
C1974 C1973 1.396 . S
C1974 C1975 1.399 . S
C1975 H1961 0.929 . S
C1975 C1974 1.399 . S
C1975 C1976 1.385 . S
C1976 H1962 0.931 . S
C1976 C1975 1.385 . S
C1976 C1977 1.389 . S
C1977 C1976 1.389 . S
C1977 C1978 1.387 . S
C1978 H1963 0.930 . S
C1978 C1973 1.390 . S
C1978 C1977 1.387 . S
H1979 C1991 0.930 . S
H1980 C1993 0.930 . S
H1981 C1994 0.930 . S
H1982 C1998 0.959 . S
H1983 C1998 0.959 . S
H1984 C1998 0.961 . S
H1985 C1999 0.960 . S
H1986 C1999 0.961 . S
H1987 C1999 0.959 . S
H1988 C2002 0.929 . S
H1989 C2003 0.931 . S
H1990 C2005 0.930 . S
C1991 H1979 0.930 . S
C1991 C1992 1.399 . S
C1991 C1996 1.399 . S
C1992 C1991 1.399 . S
C1992 C1993 1.376 . S
C1993 H1980 0.930 . S
C1993 C1992 1.376 . S
C1993 C1994 1.388 . S
C1994 H1981 0.930 . S
C1994 C1993 1.388 . S
C1994 C1995 1.390 . S
C1995 C1994 1.390 . S
C1995 C1996 1.394 . S
C1995 C2001 1.465 . S
C1996 C1991 1.399 . S
C1996 C1995 1.394 . S
C1996 C1997 1.516 . S
C1997 C1996 1.516 . S
C1997 C1998 1.502 . S
C1997 C1999 1.561 . S
C1997 C2000 1.526 . S
C1998 H1982 0.959 . S
C1998 H1983 0.959 . S
C1998 H1984 0.961 . S
C1998 C1997 1.502 . S
C1999 H1985 0.960 . S
C1999 H1986 0.961 . S
C1999 H1987 0.959 . S
C1999 C1997 1.561 . S
C2000 C1997 1.526 . S
C2000 C2001 1.396 . S
C2000 C2005 1.390 . S
C2001 C1995 1.465 . S
C2001 C2000 1.396 . S
C2001 C2002 1.399 . S
C2002 H1988 0.929 . S
C2002 C2001 1.399 . S
C2002 C2003 1.385 . S
C2003 H1989 0.931 . S
C2003 C2002 1.385 . S
C2003 C2004 1.389 . S
C2004 C2003 1.389 . S
C2004 C2005 1.387 . S
C2005 H1990 0.930 . S
C2005 C2000 1.390 . S
C2005 C2004 1.387 . S
H2006 C2018 0.930 . S
H2007 C2020 0.930 . S
H2008 C2021 0.930 . S
H2009 C2025 0.959 . S
H2010 C2025 0.959 . S
H2011 C2025 0.961 . S
H2012 C2026 0.960 . S
H2013 C2026 0.961 . S
H2014 C2026 0.959 . S
H2015 C2029 0.929 . S
H2016 C2030 0.931 . S
H2017 C2032 0.928 1_554 S
C2018 H2006 0.930 . S
C2018 C2019 1.399 1_655 S
C2018 C2023 1.399 . S
C2019 C2018 1.399 1_455 S
C2019 C2020 1.376 . S
C2020 H2007 0.930 . S
C2020 C2019 1.376 . S
C2020 C2021 1.388 . S
C2021 H2008 0.930 . S
C2021 C2020 1.388 . S
C2021 C2022 1.390 . S
C2022 C2021 1.390 . S
C2022 C2023 1.394 1_455 S
C2022 C2028 1.465 . S
C2023 C2018 1.399 . S
C2023 C2022 1.394 1_655 S
C2023 C2024 1.516 . S
C2024 C2023 1.516 . S
C2024 C2025 1.502 . S
C2024 C2026 1.561 . S
C2024 C2027 1.526 . S
C2025 H2009 0.959 . S
C2025 H2010 0.959 . S
C2025 H2011 0.961 . S
C2025 C2024 1.502 . S
C2026 H2012 0.960 . S
C2026 H2013 0.961 . S
C2026 H2014 0.959 . S
C2026 C2024 1.561 . S
C2027 C2024 1.526 . S
C2027 C2028 1.396 1_655 S
C2027 C2032 1.390 . S
C2028 C2022 1.465 . S
C2028 C2027 1.396 1_455 S
C2028 C2029 1.399 . S
C2029 H2015 0.929 . S
C2029 C2028 1.399 . S
C2029 C2030 1.385 1_556 S
C2030 H2016 0.931 . S
C2030 C2029 1.385 1_554 S
C2030 C2031 1.389 . S
C2031 C2030 1.389 . S
C2031 C2032 1.387 1_454 S
C2032 H2017 0.928 1_556 S
C2032 C2027 1.390 . S
C2032 C2031 1.387 1_656 S
H2033 C2045 0.930 . S
H2034 C2047 0.930 . S
H2035 C2048 0.930 . S
H2036 C2052 0.959 . S
H2037 C2052 0.959 . S
H2038 C2052 0.961 . S
H2039 C2053 0.960 . S
H2040 C2053 0.961 . S
H2041 C2053 0.959 . S
H2042 C2056 0.929 . S
H2043 C2057 0.931 . S
H2044 C2059 0.930 . S
C2045 H2033 0.930 . S
C2045 C2046 1.399 . S
C2045 C2050 1.399 . S
C2046 C2045 1.399 . S
C2046 C2047 1.376 . S
C2047 H2034 0.930 . S
C2047 C2046 1.376 . S
C2047 C2048 1.388 . S
C2048 H2035 0.930 . S
C2048 C2047 1.388 . S
C2048 C2049 1.390 . S
C2049 C2048 1.390 . S
C2049 C2050 1.394 . S
C2049 C2055 1.465 . S
C2050 C2045 1.399 . S
C2050 C2049 1.394 . S
C2050 C2051 1.516 . S
C2051 C2050 1.516 . S
C2051 C2052 1.502 . S
C2051 C2053 1.561 . S
C2051 C2054 1.526 . S
C2052 H2036 0.959 . S
C2052 H2037 0.959 . S
C2052 H2038 0.961 . S
C2052 C2051 1.502 . S
C2053 H2039 0.960 . S
C2053 H2040 0.961 . S
C2053 H2041 0.959 . S
C2053 C2051 1.561 . S
C2054 C2051 1.526 . S
C2054 C2055 1.396 . S
C2054 C2059 1.390 . S
C2055 C2049 1.465 . S
C2055 C2054 1.396 . S
C2055 C2056 1.399 . S
C2056 H2042 0.929 . S
C2056 C2055 1.399 . S
C2056 C2057 1.385 . S
C2057 H2043 0.931 . S
C2057 C2056 1.385 . S
C2057 C2058 1.389 . S
C2058 C2057 1.389 . S
C2058 C2059 1.387 . S
C2059 H2044 0.930 . S
C2059 C2054 1.390 . S
C2059 C2058 1.387 . S
H2060 C2072 0.930 . S
H2061 C2074 0.930 . S
H2062 C2075 0.930 . S
H2063 C2079 0.959 . S
H2064 C2079 0.959 . S
H2065 C2079 0.961 . S
H2066 C2080 0.960 . S
H2067 C2080 0.961 . S
H2068 C2080 0.959 . S
H2069 C2083 0.929 . S
H2070 C2084 0.931 . S
H2071 C2086 0.930 . S
C2072 H2060 0.930 . S
C2072 C2073 1.399 . S
C2072 C2077 1.399 . S
C2073 C2072 1.399 . S
C2073 C2074 1.376 . S
C2074 H2061 0.930 . S
C2074 C2073 1.376 . S
C2074 C2075 1.388 . S
C2075 H2062 0.930 . S
C2075 C2074 1.388 . S
C2075 C2076 1.390 . S
C2076 C2075 1.390 . S
C2076 C2077 1.394 . S
C2076 C2082 1.465 . S
C2077 C2072 1.399 . S
C2077 C2076 1.394 . S
C2077 C2078 1.516 . S
C2078 C2077 1.516 . S
C2078 C2079 1.502 . S
C2078 C2080 1.561 . S
C2078 C2081 1.526 . S
C2079 H2063 0.959 . S
C2079 H2064 0.959 . S
C2079 H2065 0.961 . S
C2079 C2078 1.502 . S
C2080 H2066 0.960 . S
C2080 H2067 0.961 . S
C2080 H2068 0.959 . S
C2080 C2078 1.561 . S
C2081 C2078 1.526 . S
C2081 C2082 1.396 . S
C2081 C2086 1.390 . S
C2082 C2076 1.465 . S
C2082 C2081 1.396 . S
C2082 C2083 1.399 . S
C2083 H2069 0.929 . S
C2083 C2082 1.399 . S
C2083 C2084 1.385 . S
C2084 H2070 0.931 . S
C2084 C2083 1.385 . S
C2084 C2085 1.389 . S
C2085 C2084 1.389 . S
C2085 C2086 1.387 . S
C2086 H2071 0.930 . S
C2086 C2081 1.390 . S
C2086 C2085 1.387 . S
H2087 C2099 0.930 . S
H2088 C2101 0.930 . S
H2089 C2102 0.930 . S
H2090 C2106 0.959 . S
H2091 C2106 0.959 . S
H2092 C2106 0.961 . S
H2093 C2107 0.960 . S
H2094 C2107 0.961 . S
H2095 C2107 0.959 . S
H2096 C2110 0.929 . S
H2097 C2111 0.931 . S
H2098 C2113 0.930 . S
C2099 H2087 0.930 . S
C2099 C2100 1.399 . S
C2099 C2104 1.399 . S
C2100 C2099 1.399 . S
C2100 C2101 1.376 . S
C2101 H2088 0.930 . S
C2101 C2100 1.376 . S
C2101 C2102 1.388 . S
C2102 H2089 0.930 . S
C2102 C2101 1.388 . S
C2102 C2103 1.390 . S
C2103 C2102 1.390 . S
C2103 C2104 1.394 . S
C2103 C2109 1.465 . S
C2104 C2099 1.399 . S
C2104 C2103 1.394 . S
C2104 C2105 1.516 . S
C2105 C2104 1.516 . S
C2105 C2106 1.502 . S
C2105 C2107 1.561 . S
C2105 C2108 1.526 . S
C2106 H2090 0.959 . S
C2106 H2091 0.959 . S
C2106 H2092 0.961 . S
C2106 C2105 1.502 . S
C2107 H2093 0.960 . S
C2107 H2094 0.961 . S
C2107 H2095 0.959 . S
C2107 C2105 1.561 . S
C2108 C2105 1.526 . S
C2108 C2109 1.396 . S
C2108 C2113 1.390 . S
C2109 C2103 1.465 . S
C2109 C2108 1.396 . S
C2109 C2110 1.399 . S
C2110 H2096 0.929 . S
C2110 C2109 1.399 . S
C2110 C2111 1.385 . S
C2111 H2097 0.931 . S
C2111 C2110 1.385 . S
C2111 C2112 1.389 . S
C2112 C2111 1.389 . S
C2112 C2113 1.387 . S
C2113 H2098 0.930 . S
C2113 C2108 1.390 . S
C2113 C2112 1.387 . S
H2114 C2126 0.930 . S
H2115 C2128 0.930 . S
H2116 C2129 0.930 . S
H2117 C2133 0.959 . S
H2118 C2133 0.959 . S
H2119 C2133 0.961 . S
H2120 C2134 0.960 . S
H2121 C2134 0.961 . S
H2122 C2134 0.959 . S
H2123 C2137 0.929 . S
H2124 C2138 0.931 . S
H2125 C2140 0.930 . S
C2126 H2114 0.930 . S
C2126 C2127 1.399 1_455 S
C2126 C2131 1.396 . S
C2127 C2126 1.399 1_655 S
C2127 C2128 1.376 . S
C2128 H2115 0.930 . S
C2128 C2127 1.376 . S
C2128 C2129 1.388 . S
C2129 H2116 0.930 . S
C2129 C2128 1.388 . S
C2129 C2130 1.390 . S
C2130 C2129 1.390 . S
C2130 C2131 1.392 1_655 S
C2130 C2136 1.465 . S
C2131 C2126 1.396 . S
C2131 C2130 1.392 1_455 S
C2131 C2132 1.520 . S
C2132 C2131 1.520 . S
C2132 C2133 1.502 . S
C2132 C2134 1.561 1_455 S
C2132 C2135 1.526 . S
C2133 H2117 0.959 . S
C2133 H2118 0.959 . S
C2133 H2119 0.961 . S
C2133 C2132 1.502 . S
C2134 H2120 0.960 . S
C2134 H2121 0.961 . S
C2134 H2122 0.959 . S
C2134 C2132 1.561 1_655 S
C2135 C2132 1.526 . S
C2135 C2136 1.396 1_455 S
C2135 C2140 1.390 . S
C2136 C2130 1.465 . S
C2136 C2135 1.396 1_655 S
C2136 C2137 1.399 . S
C2137 H2123 0.929 . S
C2137 C2136 1.399 . S
C2137 C2138 1.385 . S
C2138 H2124 0.931 . S
C2138 C2137 1.385 . S
C2138 C2139 1.389 1_655 S
C2139 C2138 1.389 1_455 S
C2139 C2140 1.387 . S
C2140 H2125 0.930 . S
C2140 C2135 1.390 . S
C2140 C2139 1.387 . S
H2141 C2153 0.930 . S
H2142 C2155 0.930 . S
H2143 C2156 0.930 . S
H2144 C2160 0.959 . S
H2145 C2160 0.959 . S
H2146 C2160 0.961 . S
H2147 C2161 0.960 . S
H2148 C2161 0.961 . S
H2149 C2161 0.959 . S
H2150 C2164 0.929 . S
H2151 C2165 0.931 . S
H2152 C2167 0.930 . S
C2153 H2141 0.930 . S
C2153 C2154 1.399 . S
C2153 C2158 1.399 . S
C2154 C2153 1.399 . S
C2154 C2155 1.376 . S
C2155 H2142 0.930 . S
C2155 C2154 1.376 . S
C2155 C2156 1.388 . S
C2156 H2143 0.930 . S
C2156 C2155 1.388 . S
C2156 C2157 1.390 . S
C2157 C2156 1.390 . S
C2157 C2158 1.394 . S
C2157 C2163 1.465 . S
C2158 C2153 1.399 . S
C2158 C2157 1.394 . S
C2158 C2159 1.516 . S
C2159 C2158 1.516 . S
C2159 C2160 1.502 . S
C2159 C2161 1.561 . S
C2159 C2162 1.526 . S
C2160 H2144 0.959 . S
C2160 H2145 0.959 . S
C2160 H2146 0.961 . S
C2160 C2159 1.502 . S
C2161 H2147 0.960 . S
C2161 H2148 0.961 . S
C2161 H2149 0.959 . S
C2161 C2159 1.561 . S
C2162 C2159 1.526 . S
C2162 C2163 1.396 . S
C2162 C2167 1.390 . S
C2163 C2157 1.465 . S
C2163 C2162 1.396 . S
C2163 C2164 1.399 . S
C2164 H2150 0.929 . S
C2164 C2163 1.399 . S
C2164 C2165 1.385 . S
C2165 H2151 0.931 . S
C2165 C2164 1.385 . S
C2165 C2166 1.389 . S
C2166 C2165 1.389 . S
C2166 C2167 1.387 . S
C2167 H2152 0.930 . S
C2167 C2162 1.390 . S
C2167 C2166 1.387 . S
H2168 C2180 0.930 . S
H2169 C2182 0.930 . S
H2170 C2183 0.930 . S
H2171 C2187 0.959 . S
H2172 C2187 0.959 . S
H2173 C2187 0.961 . S
H2174 C2188 0.960 . S
H2175 C2188 0.961 . S
H2176 C2188 0.959 . S
H2177 C2191 0.929 . S
H2178 C2192 0.931 . S
H2179 C2194 0.930 . S
C2180 H2168 0.930 . S
C2180 C2181 1.399 . S
C2180 C2185 1.399 . S
C2181 C2180 1.399 . S
C2181 C2182 1.376 . S
C2182 H2169 0.930 . S
C2182 C2181 1.376 . S
C2182 C2183 1.388 . S
C2183 H2170 0.930 . S
C2183 C2182 1.388 . S
C2183 C2184 1.390 . S
C2184 C2183 1.390 . S
C2184 C2185 1.394 . S
C2184 C2190 1.465 . S
C2185 C2180 1.399 . S
C2185 C2184 1.394 . S
C2185 C2186 1.516 . S
C2186 C2185 1.516 . S
C2186 C2187 1.502 . S
C2186 C2188 1.561 . S
C2186 C2189 1.526 . S
C2187 H2171 0.959 . S
C2187 H2172 0.959 . S
C2187 H2173 0.961 . S
C2187 C2186 1.502 . S
C2188 H2174 0.960 . S
C2188 H2175 0.961 . S
C2188 H2176 0.959 . S
C2188 C2186 1.561 . S
C2189 C2186 1.526 . S
C2189 C2190 1.396 . S
C2189 C2194 1.390 . S
C2190 C2184 1.465 . S
C2190 C2189 1.396 . S
C2190 C2191 1.399 . S
C2191 H2177 0.929 . S
C2191 C2190 1.399 . S
C2191 C2192 1.385 . S
C2192 H2178 0.931 . S
C2192 C2191 1.385 . S
C2192 C2193 1.389 . S
C2193 C2192 1.389 . S
C2193 C2194 1.387 . S
C2194 H2179 0.930 . S
C2194 C2189 1.390 . S
C2194 C2193 1.387 . S
H2195 C2207 0.930 . S
H2196 C2209 0.930 . S
H2197 C2210 0.930 . S
H2198 C2214 0.959 . S
H2199 C2214 0.959 . S
H2200 C2214 0.961 . S
H2201 C2215 0.960 . S
H2202 C2215 0.961 . S
H2203 C2215 0.959 . S
H2204 C2218 0.929 . S
H2205 C2219 0.931 . S
H2206 C2221 0.930 . S
C2207 H2195 0.930 . S
C2207 C2208 1.399 . S
C2207 C2212 1.399 . S
C2208 C2207 1.399 . S
C2208 C2209 1.376 . S
C2209 H2196 0.930 . S
C2209 C2208 1.376 . S
C2209 C2210 1.388 . S
C2210 H2197 0.930 . S
C2210 C2209 1.388 . S
C2210 C2211 1.390 . S
C2211 C2210 1.390 . S
C2211 C2212 1.394 . S
C2211 C2217 1.465 . S
C2212 C2207 1.399 . S
C2212 C2211 1.394 . S
C2212 C2213 1.516 . S
C2213 C2212 1.516 . S
C2213 C2214 1.502 . S
C2213 C2215 1.561 . S
C2213 C2216 1.526 . S
C2214 H2198 0.959 . S
C2214 H2199 0.959 . S
C2214 H2200 0.961 . S
C2214 C2213 1.502 . S
C2215 H2201 0.960 . S
C2215 H2202 0.961 . S
C2215 H2203 0.959 . S
C2215 C2213 1.561 . S
C2216 C2213 1.526 . S
C2216 C2217 1.396 . S
C2216 C2221 1.390 . S
C2217 C2211 1.465 . S
C2217 C2216 1.396 . S
C2217 C2218 1.399 . S
C2218 H2204 0.929 . S
C2218 C2217 1.399 . S
C2218 C2219 1.385 . S
C2219 H2205 0.931 . S
C2219 C2218 1.385 . S
C2219 C2220 1.389 . S
C2220 C2219 1.389 . S
C2220 C2221 1.387 . S
C2221 H2206 0.930 . S
C2221 C2216 1.390 . S
C2221 C2220 1.387 . S
H2222 C2234 0.930 . S
H2223 C2236 0.930 . S
H2224 C2237 0.930 . S
H2225 C2241 0.959 . S
H2226 C2241 0.959 . S
H2227 C2241 0.961 . S
H2228 C2242 0.960 . S
H2229 C2242 0.961 . S
H2230 C2242 0.959 . S
H2231 C2245 0.929 . S
H2232 C2246 0.931 . S
H2233 C2248 0.930 . S
C2234 H2222 0.930 . S
C2234 C2235 1.399 . S
C2234 C2239 1.399 . S
C2235 C2234 1.399 . S
C2235 C2236 1.376 . S
C2236 H2223 0.930 . S
C2236 C2235 1.376 . S
C2236 C2237 1.388 . S
C2237 H2224 0.930 . S
C2237 C2236 1.388 . S
C2237 C2238 1.390 . S
C2238 C2237 1.390 . S
C2238 C2239 1.394 . S
C2238 C2244 1.465 . S
C2239 C2234 1.399 . S
C2239 C2238 1.394 . S
C2239 C2240 1.516 . S
C2240 C2239 1.516 . S
C2240 C2241 1.502 . S
C2240 C2242 1.561 . S
C2240 C2243 1.526 . S
C2241 H2225 0.959 . S
C2241 H2226 0.959 . S
C2241 H2227 0.961 . S
C2241 C2240 1.502 . S
C2242 H2228 0.960 . S
C2242 H2229 0.961 . S
C2242 H2230 0.959 . S
C2242 C2240 1.561 . S
C2243 C2240 1.526 . S
C2243 C2244 1.396 . S
C2243 C2248 1.390 . S
C2244 C2238 1.465 . S
C2244 C2243 1.396 . S
C2244 C2245 1.399 . S
C2245 H2231 0.929 . S
C2245 C2244 1.399 . S
C2245 C2246 1.385 . S
C2246 H2232 0.931 . S
C2246 C2245 1.385 . S
C2246 C2247 1.389 . S
C2247 C2246 1.389 . S
C2247 C2248 1.387 . S
C2248 H2233 0.930 . S
C2248 C2243 1.390 . S
C2248 C2247 1.387 . S
H2249 C2261 0.930 . S
H2250 C2263 0.930 . S
H2251 C2264 0.930 . S
H2252 C2268 0.959 . S
H2253 C2268 0.959 . S
H2254 C2268 0.961 . S
H2255 C2269 0.960 . S
H2256 C2269 0.961 . S
H2257 C2269 0.959 . S
H2258 C2272 0.929 . S
H2259 C2273 0.931 . S
H2260 C2275 0.930 . S
C2261 H2249 0.930 . S
C2261 C2262 1.399 . S
C2261 C2266 1.399 . S
C2262 C2261 1.399 . S
C2262 C2263 1.376 . S
C2263 H2250 0.930 . S
C2263 C2262 1.376 . S
C2263 C2264 1.388 . S
C2264 H2251 0.930 . S
C2264 C2263 1.388 . S
C2264 C2265 1.390 . S
C2265 C2264 1.390 . S
C2265 C2266 1.394 . S
C2265 C2271 1.465 . S
C2266 C2261 1.399 . S
C2266 C2265 1.394 . S
C2266 C2267 1.516 . S
C2267 C2266 1.516 . S
C2267 C2268 1.502 . S
C2267 C2269 1.561 . S
C2267 C2270 1.526 . S
C2268 H2252 0.959 . S
C2268 H2253 0.959 . S
C2268 H2254 0.961 . S
C2268 C2267 1.502 . S
C2269 H2255 0.960 . S
C2269 H2256 0.961 . S
C2269 H2257 0.959 . S
C2269 C2267 1.561 . S
C2270 C2267 1.526 . S
C2270 C2271 1.396 . S
C2270 C2275 1.390 . S
C2271 C2265 1.465 . S
C2271 C2270 1.396 . S
C2271 C2272 1.399 . S
C2272 H2258 0.929 . S
C2272 C2271 1.399 . S
C2272 C2273 1.385 . S
C2273 H2259 0.931 . S
C2273 C2272 1.385 . S
C2273 C2274 1.389 . S
C2274 C2273 1.389 . S
C2274 C2275 1.387 . S
C2275 H2260 0.930 . S
C2275 C2270 1.390 . S
C2275 C2274 1.387 . S
H2276 C2288 0.930 . S
H2277 C2290 0.930 . S
H2278 C2291 0.930 . S
H2279 C2295 0.959 . S
H2280 C2295 0.959 . S
H2281 C2295 0.961 . S
H2282 C2296 0.960 . S
H2283 C2296 0.961 . S
H2284 C2296 0.959 . S
H2285 C2299 0.929 . S
H2286 C2300 0.931 . S
H2287 C2302 0.930 . S
C2288 H2276 0.930 . S
C2288 C2289 1.399 . S
C2288 C2293 1.399 . S
C2289 C2288 1.399 . S
C2289 C2290 1.376 . S
C2290 H2277 0.930 . S
C2290 C2289 1.376 . S
C2290 C2291 1.388 . S
C2291 H2278 0.930 . S
C2291 C2290 1.388 . S
C2291 C2292 1.390 . S
C2292 C2291 1.390 . S
C2292 C2293 1.394 . S
C2292 C2298 1.465 . S
C2293 C2288 1.399 . S
C2293 C2292 1.394 . S
C2293 C2294 1.516 . S
C2294 C2293 1.516 . S
C2294 C2295 1.502 . S
C2294 C2296 1.561 . S
C2294 C2297 1.526 . S
C2295 H2279 0.959 . S
C2295 H2280 0.959 . S
C2295 H2281 0.961 . S
C2295 C2294 1.502 . S
C2296 H2282 0.960 . S
C2296 H2283 0.961 . S
C2296 H2284 0.959 . S
C2296 C2294 1.561 . S
C2297 C2294 1.526 . S
C2297 C2298 1.396 . S
C2297 C2302 1.390 . S
C2298 C2292 1.465 . S
C2298 C2297 1.396 . S
C2298 C2299 1.399 . S
C2299 H2285 0.929 . S
C2299 C2298 1.399 . S
C2299 C2300 1.385 . S
C2300 H2286 0.931 . S
C2300 C2299 1.385 . S
C2300 C2301 1.389 . S
C2301 C2300 1.389 . S
C2301 C2302 1.387 . S
C2302 H2287 0.930 . S
C2302 C2297 1.390 . S
C2302 C2301 1.387 . S
H2303 C2315 0.930 . S
H2304 C2317 0.930 . S
H2305 C2318 0.930 . S
H2306 C2322 0.959 . S
H2307 C2322 0.959 . S
H2308 C2322 0.961 . S
H2309 C2323 0.960 . S
H2310 C2323 0.961 . S
H2311 C2323 0.959 . S
H2312 C2326 0.929 . S
H2313 C2327 0.931 . S
H2314 C2329 0.930 . S
C2315 H2303 0.930 . S
C2315 C2316 1.399 . S
C2315 C2320 1.399 . S
C2316 C2315 1.399 . S
C2316 C2317 1.376 . S
C2317 H2304 0.930 . S
C2317 C2316 1.376 . S
C2317 C2318 1.388 . S
C2318 H2305 0.930 . S
C2318 C2317 1.388 . S
C2318 C2319 1.390 . S
C2319 C2318 1.390 . S
C2319 C2320 1.394 . S
C2319 C2325 1.465 . S
C2320 C2315 1.399 . S
C2320 C2319 1.394 . S
C2320 C2321 1.516 . S
C2321 C2320 1.516 . S
C2321 C2322 1.502 . S
C2321 C2323 1.561 . S
C2321 C2324 1.526 . S
C2322 H2306 0.959 . S
C2322 H2307 0.959 . S
C2322 H2308 0.961 . S
C2322 C2321 1.502 . S
C2323 H2309 0.960 . S
C2323 H2310 0.961 . S
C2323 H2311 0.959 . S
C2323 C2321 1.561 . S
C2324 C2321 1.526 . S
C2324 C2325 1.396 . S
C2324 C2329 1.390 . S
C2325 C2319 1.465 . S
C2325 C2324 1.396 . S
C2325 C2326 1.399 . S
C2326 H2312 0.929 . S
C2326 C2325 1.399 . S
C2326 C2327 1.385 . S
C2327 H2313 0.931 . S
C2327 C2326 1.385 . S
C2327 C2328 1.389 . S
C2328 C2327 1.389 . S
C2328 C2329 1.387 . S
C2329 H2314 0.930 . S
C2329 C2324 1.390 . S
C2329 C2328 1.387 . S
H2330 C2342 0.930 . S
H2331 C2344 0.930 . S
H2332 C2345 0.930 . S
H2333 C2349 0.959 . S
H2334 C2349 0.959 . S
H2335 C2349 0.961 . S
H2336 C2350 0.960 . S
H2337 C2350 0.961 . S
H2338 C2350 0.959 . S
H2339 C2353 0.929 . S
H2340 C2354 0.931 . S
H2341 C2356 0.930 . S
C2342 H2330 0.930 . S
C2342 C2343 1.399 . S
C2342 C2347 1.399 . S
C2343 C2342 1.399 . S
C2343 C2344 1.376 . S
C2344 H2331 0.930 . S
C2344 C2343 1.376 . S
C2344 C2345 1.388 . S
C2345 H2332 0.930 . S
C2345 C2344 1.388 . S
C2345 C2346 1.390 . S
C2346 C2345 1.390 . S
C2346 C2347 1.394 . S
C2346 C2352 1.465 . S
C2347 C2342 1.399 . S
C2347 C2346 1.394 . S
C2347 C2348 1.516 . S
C2348 C2347 1.516 . S
C2348 C2349 1.502 . S
C2348 C2350 1.561 . S
C2348 C2351 1.526 . S
C2349 H2333 0.959 . S
C2349 H2334 0.959 . S
C2349 H2335 0.961 . S
C2349 C2348 1.502 . S
C2350 H2336 0.960 . S
C2350 H2337 0.961 . S
C2350 H2338 0.959 . S
C2350 C2348 1.561 . S
C2351 C2348 1.526 . S
C2351 C2352 1.396 . S
C2351 C2356 1.390 . S
C2352 C2346 1.465 . S
C2352 C2351 1.396 . S
C2352 C2353 1.399 . S
C2353 H2339 0.929 . S
C2353 C2352 1.399 . S
C2353 C2354 1.385 . S
C2354 H2340 0.931 . S
C2354 C2353 1.385 . S
C2354 C2355 1.389 . S
C2355 C2354 1.389 . S
C2355 C2356 1.387 . S
C2356 H2341 0.930 . S
C2356 C2351 1.390 . S
C2356 C2355 1.387 . S
H2357 C2369 0.930 . S
H2358 C2371 0.930 . S
H2359 C2372 0.930 . S
H2360 C2376 0.959 . S
H2361 C2376 0.959 . S
H2362 C2376 0.961 . S
H2363 C2377 0.960 . S
H2364 C2377 0.961 . S
H2365 C2377 0.959 . S
H2366 C2380 0.929 . S
H2367 C2381 0.931 . S
H2368 C2383 0.930 . S
C2369 H2357 0.930 . S
C2369 C2370 1.399 . S
C2369 C2374 1.399 . S
C2370 C2369 1.399 . S
C2370 C2371 1.376 . S
C2371 H2358 0.930 . S
C2371 C2370 1.376 . S
C2371 C2372 1.388 . S
C2372 H2359 0.930 . S
C2372 C2371 1.388 . S
C2372 C2373 1.390 . S
C2373 C2372 1.390 . S
C2373 C2374 1.394 . S
C2373 C2379 1.465 . S
C2374 C2369 1.399 . S
C2374 C2373 1.394 . S
C2374 C2375 1.516 . S
C2375 C2374 1.516 . S
C2375 C2376 1.502 . S
C2375 C2377 1.561 . S
C2375 C2378 1.526 . S
C2376 H2360 0.959 . S
C2376 H2361 0.959 . S
C2376 H2362 0.961 . S
C2376 C2375 1.502 . S
C2377 H2363 0.960 . S
C2377 H2364 0.961 . S
C2377 H2365 0.959 . S
C2377 C2375 1.561 . S
C2378 C2375 1.526 . S
C2378 C2379 1.396 . S
C2378 C2383 1.390 . S
C2379 C2373 1.465 . S
C2379 C2378 1.396 . S
C2379 C2380 1.399 . S
C2380 H2366 0.929 . S
C2380 C2379 1.399 . S
C2380 C2381 1.385 . S
C2381 H2367 0.931 . S
C2381 C2380 1.385 . S
C2381 C2382 1.389 . S
C2382 C2381 1.389 . S
C2382 C2383 1.387 . S
C2383 H2368 0.930 . S
C2383 C2378 1.390 . S
C2383 C2382 1.387 . S
H2384 C2396 0.930 . S
H2385 C2398 0.930 . S
H2386 C2399 0.930 . S
H2387 C2403 0.959 . S
H2388 C2403 0.959 . S
H2389 C2403 0.961 . S
H2390 C2404 0.960 . S
H2391 C2404 0.961 . S
H2392 C2404 0.959 . S
H2393 C2407 0.929 . S
H2394 C2408 0.931 . S
H2395 C2410 0.930 . S
C2396 H2384 0.930 . S
C2396 C2397 1.399 . S
C2396 C2401 1.399 . S
C2397 C2396 1.399 . S
C2397 C2398 1.376 . S
C2398 H2385 0.930 . S
C2398 C2397 1.376 . S
C2398 C2399 1.388 . S
C2399 H2386 0.930 . S
C2399 C2398 1.388 . S
C2399 C2400 1.390 . S
C2400 C2399 1.390 . S
C2400 C2401 1.394 . S
C2400 C2406 1.465 . S
C2401 C2396 1.399 . S
C2401 C2400 1.394 . S
C2401 C2402 1.516 . S
C2402 C2401 1.516 . S
C2402 C2403 1.502 . S
C2402 C2404 1.561 . S
C2402 C2405 1.526 . S
C2403 H2387 0.959 . S
C2403 H2388 0.959 . S
C2403 H2389 0.961 . S
C2403 C2402 1.502 . S
C2404 H2390 0.960 . S
C2404 H2391 0.961 . S
C2404 H2392 0.959 . S
C2404 C2402 1.561 . S
C2405 C2402 1.526 . S
C2405 C2406 1.396 . S
C2405 C2410 1.390 . S
C2406 C2400 1.465 . S
C2406 C2405 1.396 . S
C2406 C2407 1.399 . S
C2407 H2393 0.929 . S
C2407 C2406 1.399 . S
C2407 C2408 1.385 . S
C2408 H2394 0.931 . S
C2408 C2407 1.385 . S
C2408 C2409 1.389 . S
C2409 C2408 1.389 . S
C2409 C2410 1.387 . S
C2410 H2395 0.930 . S
C2410 C2405 1.390 . S
C2410 C2409 1.387 . S
H2411 C2423 0.930 . S
H2412 C2425 0.930 . S
H2413 C2426 0.930 . S
H2414 C2430 0.959 . S
H2415 C2430 0.959 . S
H2416 C2430 0.961 . S
H2417 C2431 0.960 . S
H2418 C2431 0.961 . S
H2419 C2431 0.959 . S
H2420 C2434 0.929 . S
H2421 C2435 0.931 . S
H2422 C2437 0.930 . S
C2423 H2411 0.930 . S
C2423 C2424 1.399 . S
C2423 C2428 1.399 . S
C2424 C2423 1.399 . S
C2424 C2425 1.376 . S
C2425 H2412 0.930 . S
C2425 C2424 1.376 . S
C2425 C2426 1.388 . S
C2426 H2413 0.930 . S
C2426 C2425 1.388 . S
C2426 C2427 1.390 . S
C2427 C2426 1.390 . S
C2427 C2428 1.394 . S
C2427 C2433 1.465 . S
C2428 C2423 1.399 . S
C2428 C2427 1.394 . S
C2428 C2429 1.516 . S
C2429 C2428 1.516 . S
C2429 C2430 1.502 . S
C2429 C2431 1.561 . S
C2429 C2432 1.526 . S
C2430 H2414 0.959 . S
C2430 H2415 0.959 . S
C2430 H2416 0.961 . S
C2430 C2429 1.502 . S
C2431 H2417 0.960 . S
C2431 H2418 0.961 . S
C2431 H2419 0.959 . S
C2431 C2429 1.561 . S
C2432 C2429 1.526 . S
C2432 C2433 1.396 . S
C2432 C2437 1.390 . S
C2433 C2427 1.465 . S
C2433 C2432 1.396 . S
C2433 C2434 1.399 . S
C2434 H2420 0.929 . S
C2434 C2433 1.399 . S
C2434 C2435 1.385 . S
C2435 H2421 0.931 . S
C2435 C2434 1.385 . S
C2435 C2436 1.389 . S
C2436 C2435 1.389 . S
C2436 C2437 1.387 . S
C2437 H2422 0.930 . S
C2437 C2432 1.390 . S
C2437 C2436 1.387 . S
H2438 C2450 0.930 . S
H2439 C2452 0.930 . S
H2440 C2453 0.930 . S
H2441 C2457 0.959 . S
H2442 C2457 0.959 . S
H2443 C2457 0.961 . S
H2444 C2458 0.960 . S
H2445 C2458 0.961 . S
H2446 C2458 0.959 . S
H2447 C2461 0.929 . S
H2448 C2462 0.931 . S
H2449 C2464 0.930 . S
C2450 H2438 0.930 . S
C2450 C2451 1.399 . S
C2450 C2455 1.399 . S
C2451 C2450 1.399 . S
C2451 C2452 1.376 . S
C2452 H2439 0.930 . S
C2452 C2451 1.376 . S
C2452 C2453 1.388 . S
C2453 H2440 0.930 . S
C2453 C2452 1.388 . S
C2453 C2454 1.390 . S
C2454 C2453 1.390 . S
C2454 C2455 1.394 . S
C2454 C2460 1.465 . S
C2455 C2450 1.399 . S
C2455 C2454 1.394 . S
C2455 C2456 1.516 . S
C2456 C2455 1.516 . S
C2456 C2457 1.502 . S
C2456 C2458 1.561 . S
C2456 C2459 1.526 . S
C2457 H2441 0.959 . S
C2457 H2442 0.959 . S
C2457 H2443 0.961 . S
C2457 C2456 1.502 . S
C2458 H2444 0.960 . S
C2458 H2445 0.961 . S
C2458 H2446 0.959 . S
C2458 C2456 1.561 . S
C2459 C2456 1.526 . S
C2459 C2460 1.396 . S
C2459 C2464 1.390 . S
C2460 C2454 1.465 . S
C2460 C2459 1.396 . S
C2460 C2461 1.399 . S
C2461 H2447 0.929 . S
C2461 C2460 1.399 . S
C2461 C2462 1.385 . S
C2462 H2448 0.931 . S
C2462 C2461 1.385 . S
C2462 C2463 1.389 . S
C2463 C2462 1.389 . S
C2463 C2464 1.387 . S
C2464 H2449 0.930 . S
C2464 C2459 1.390 . S
C2464 C2463 1.387 . S
H2465 C2477 0.930 . S
H2466 C2479 0.930 . S
H2467 C2480 0.930 . S
H2468 C2484 0.959 . S
H2469 C2484 0.959 . S
H2470 C2484 0.961 . S
H2471 C2485 0.960 . S
H2472 C2485 0.961 . S
H2473 C2485 0.959 . S
H2474 C2488 0.929 . S
H2475 C2489 0.931 . S
H2476 C2491 0.930 . S
C2477 H2465 0.930 . S
C2477 C2478 1.399 . S
C2477 C2482 1.399 . S
C2478 C2477 1.399 . S
C2478 C2479 1.376 1_554 S
C2479 H2466 0.930 . S
C2479 C2478 1.376 1_556 S
C2479 C2480 1.388 . S
C2480 H2467 0.930 . S
C2480 C2479 1.388 . S
C2480 C2481 1.390 1_556 S
C2481 C2480 1.390 1_554 S
C2481 C2482 1.394 . S
C2481 C2487 1.465 . S
C2482 C2477 1.399 . S
C2482 C2481 1.394 . S
C2482 C2483 1.516 . S
C2483 C2482 1.516 . S
C2483 C2484 1.502 . S
C2483 C2485 1.561 . S
C2483 C2486 1.526 . S
C2484 H2468 0.959 . S
C2484 H2469 0.959 . S
C2484 H2470 0.961 . S
C2484 C2483 1.502 . S
C2485 H2471 0.960 . S
C2485 H2472 0.961 . S
C2485 H2473 0.959 . S
C2485 C2483 1.561 . S
C2486 C2483 1.526 . S
C2486 C2487 1.396 . S
C2486 C2491 1.390 . S
C2487 C2481 1.465 . S
C2487 C2486 1.396 . S
C2487 C2488 1.399 1_554 S
C2488 H2474 0.929 . S
C2488 C2487 1.399 1_556 S
C2488 C2489 1.385 . S
C2489 H2475 0.931 . S
C2489 C2488 1.385 . S
C2489 C2490 1.389 1_556 S
C2490 C2489 1.389 1_554 S
C2490 C2491 1.387 . S
C2491 H2476 0.930 . S
C2491 C2486 1.390 . S
C2491 C2490 1.387 . S
H2492 C2504 0.930 . S
H2493 C2506 0.930 . S
H2494 C2507 0.930 . S
H2495 C2511 0.959 . S
H2496 C2511 0.959 . S
H2497 C2511 0.961 . S
H2498 C2512 0.960 . S
H2499 C2512 0.961 . S
H2500 C2512 0.959 . S
H2501 C2515 0.929 . S
H2502 C2516 0.931 . S
H2503 C2518 0.930 . S
C2504 H2492 0.930 . S
C2504 C2505 1.399 . S
C2504 C2509 1.399 . S
C2505 C2504 1.399 . S
C2505 C2506 1.376 . S
C2506 H2493 0.930 . S
C2506 C2505 1.376 . S
C2506 C2507 1.388 . S
C2507 H2494 0.930 . S
C2507 C2506 1.388 . S
C2507 C2508 1.390 . S
C2508 C2507 1.390 . S
C2508 C2509 1.394 . S
C2508 C2514 1.465 . S
C2509 C2504 1.399 . S
C2509 C2508 1.394 . S
C2509 C2510 1.516 . S
C2510 C2509 1.516 . S
C2510 C2511 1.502 . S
C2510 C2512 1.561 . S
C2510 C2513 1.526 . S
C2511 H2495 0.959 . S
C2511 H2496 0.959 . S
C2511 H2497 0.961 . S
C2511 C2510 1.502 . S
C2512 H2498 0.960 . S
C2512 H2499 0.961 . S
C2512 H2500 0.959 . S
C2512 C2510 1.561 . S
C2513 C2510 1.526 . S
C2513 C2514 1.396 . S
C2513 C2518 1.390 . S
C2514 C2508 1.465 . S
C2514 C2513 1.396 . S
C2514 C2515 1.399 . S
C2515 H2501 0.929 . S
C2515 C2514 1.399 . S
C2515 C2516 1.385 . S
C2516 H2502 0.931 . S
C2516 C2515 1.385 . S
C2516 C2517 1.389 . S
C2517 C2516 1.389 . S
C2517 C2518 1.387 . S
C2518 H2503 0.930 . S
C2518 C2513 1.390 . S
C2518 C2517 1.387 . S
H2519 C2531 0.930 1_556 S
H2520 C2533 0.930 . S
H2521 C2534 0.930 . S
H2522 C2538 0.959 . S
H2523 C2538 0.959 . S
H2524 C2538 0.961 . S
H2525 C2539 0.960 . S
H2526 C2539 0.961 . S
H2527 C2539 0.962 . S
H2528 C2542 0.929 . S
H2529 C2543 0.931 . S
H2530 C2545 0.930 . S
C2531 H2519 0.930 1_554 S
C2531 C2532 1.399 . S
C2531 C2536 1.399 . S
C2532 C2531 1.399 . S
C2532 C2533 1.376 . S
C2533 H2520 0.930 . S
C2533 C2532 1.376 . S
C2533 C2534 1.388 . S
C2534 H2521 0.930 . S
C2534 C2533 1.388 . S
C2534 C2535 1.390 . S
C2535 C2534 1.390 . S
C2535 C2536 1.394 . S
C2535 C2541 1.465 . S
C2536 C2531 1.399 . S
C2536 C2535 1.394 . S
C2536 C2537 1.516 . S
C2537 C2536 1.516 . S
C2537 C2538 1.502 1_554 S
C2537 C2539 1.561 1_554 S
C2537 C2540 1.526 . S
C2538 H2522 0.959 . S
C2538 H2523 0.959 . S
C2538 H2524 0.961 . S
C2538 C2537 1.502 1_556 S
C2539 H2525 0.960 . S
C2539 H2526 0.961 . S
C2539 H2527 0.962 . S
C2539 C2537 1.561 1_556 S
C2540 C2537 1.526 . S
C2540 C2541 1.396 . S
C2540 C2545 1.390 . S
C2541 C2535 1.465 . S
C2541 C2540 1.396 . S
C2541 C2542 1.399 . S
C2542 H2528 0.929 . S
C2542 C2541 1.399 . S
C2542 C2543 1.385 . S
C2543 H2529 0.931 . S
C2543 C2542 1.385 . S
C2543 C2544 1.389 . S
C2544 C2543 1.389 . S
C2544 C2545 1.387 . S
C2545 H2530 0.930 . S
C2545 C2540 1.390 . S
C2545 C2544 1.387 . S
H2546 C2558 0.930 . S
H2547 C2560 0.930 . S
H2548 C2561 0.930 . S
H2549 C2565 0.959 . S
H2550 C2565 0.959 . S
H2551 C2565 0.961 . S
H2552 C2566 0.960 . S
H2553 C2566 0.961 . S
H2554 C2566 0.959 . S
H2555 C2569 0.929 . S
H2556 C2570 0.931 . S
H2557 C2572 0.930 . S
C2558 H2546 0.930 . S
C2558 C2559 1.399 . S
C2558 C2563 1.399 . S
C2559 C2558 1.399 . S
C2559 C2560 1.376 . S
C2560 H2547 0.930 . S
C2560 C2559 1.376 . S
C2560 C2561 1.388 . S
C2561 H2548 0.930 . S
C2561 C2560 1.388 . S
C2561 C2562 1.390 . S
C2562 C2561 1.390 . S
C2562 C2563 1.394 . S
C2562 C2568 1.465 . S
C2563 C2558 1.399 . S
C2563 C2562 1.394 . S
C2563 C2564 1.516 . S
C2564 C2563 1.516 . S
C2564 C2565 1.502 . S
C2564 C2566 1.561 . S
C2564 C2567 1.526 . S
C2565 H2549 0.959 . S
C2565 H2550 0.959 . S
C2565 H2551 0.961 . S
C2565 C2564 1.502 . S
C2566 H2552 0.960 . S
C2566 H2553 0.961 . S
C2566 H2554 0.959 . S
C2566 C2564 1.561 . S
C2567 C2564 1.526 . S
C2567 C2568 1.396 . S
C2567 C2572 1.390 . S
C2568 C2562 1.465 . S
C2568 C2567 1.396 . S
C2568 C2569 1.399 . S
C2569 H2555 0.929 . S
C2569 C2568 1.399 . S
C2569 C2570 1.385 . S
C2570 H2556 0.931 . S
C2570 C2569 1.385 . S
C2570 C2571 1.389 . S
C2571 C2570 1.389 . S
C2571 C2572 1.387 . S
C2572 H2557 0.930 . S
C2572 C2567 1.390 . S
C2572 C2571 1.387 . S
H2573 C2585 0.930 . S
H2574 C2587 0.930 . S
H2575 C2588 0.930 . S
H2576 C2592 0.959 . S
H2577 C2592 0.959 . S
H2578 C2592 0.961 . S
H2579 C2593 0.960 . S
H2580 C2593 0.961 . S
H2581 C2593 0.959 . S
H2582 C2596 0.929 . S
H2583 C2597 0.931 . S
H2584 C2599 0.930 . S
C2585 H2573 0.930 . S
C2585 C2586 1.399 . S
C2585 C2590 1.399 . S
C2586 C2585 1.399 . S
C2586 C2587 1.376 . S
C2587 H2574 0.930 . S
C2587 C2586 1.376 . S
C2587 C2588 1.388 . S
C2588 H2575 0.930 . S
C2588 C2587 1.388 . S
C2588 C2589 1.390 . S
C2589 C2588 1.390 . S
C2589 C2590 1.394 . S
C2589 C2595 1.465 . S
C2590 C2585 1.399 . S
C2590 C2589 1.394 . S
C2590 C2591 1.516 . S
C2591 C2590 1.516 . S
C2591 C2592 1.502 . S
C2591 C2593 1.561 . S
C2591 C2594 1.526 . S
C2592 H2576 0.959 . S
C2592 H2577 0.959 . S
C2592 H2578 0.961 . S
C2592 C2591 1.502 . S
C2593 H2579 0.960 . S
C2593 H2580 0.961 . S
C2593 H2581 0.959 . S
C2593 C2591 1.561 . S
C2594 C2591 1.526 . S
C2594 C2595 1.396 . S
C2594 C2599 1.390 . S
C2595 C2589 1.465 . S
C2595 C2594 1.396 . S
C2595 C2596 1.399 . S
C2596 H2582 0.929 . S
C2596 C2595 1.399 . S
C2596 C2597 1.385 . S
C2597 H2583 0.931 . S
C2597 C2596 1.385 . S
C2597 C2598 1.389 . S
C2598 C2597 1.389 . S
C2598 C2599 1.387 . S
C2599 H2584 0.930 . S
C2599 C2594 1.390 . S
C2599 C2598 1.387 . S
H2600 C2612 0.930 . S
H2601 C2614 0.930 . S
H2602 C2615 0.930 . S
H2603 C2619 0.959 . S
H2604 C2619 0.959 . S
H2605 C2619 0.961 . S
H2606 C2620 0.960 . S
H2607 C2620 0.961 . S
H2608 C2620 0.959 . S
H2609 C2623 0.929 . S
H2610 C2624 0.931 . S
H2611 C2626 0.930 . S
C2612 H2600 0.930 . S
C2612 C2613 1.399 . S
C2612 C2617 1.399 . S
C2613 C2612 1.399 . S
C2613 C2614 1.376 . S
C2614 H2601 0.930 . S
C2614 C2613 1.376 . S
C2614 C2615 1.388 . S
C2615 H2602 0.930 . S
C2615 C2614 1.388 . S
C2615 C2616 1.390 . S
C2616 C2615 1.390 . S
C2616 C2617 1.394 . S
C2616 C2622 1.465 . S
C2617 C2612 1.399 . S
C2617 C2616 1.394 . S
C2617 C2618 1.516 . S
C2618 C2617 1.516 . S
C2618 C2619 1.502 . S
C2618 C2620 1.561 . S
C2618 C2621 1.526 . S
C2619 H2603 0.959 . S
C2619 H2604 0.959 . S
C2619 H2605 0.961 . S
C2619 C2618 1.502 . S
C2620 H2606 0.960 . S
C2620 H2607 0.961 . S
C2620 H2608 0.959 . S
C2620 C2618 1.561 . S
C2621 C2618 1.526 . S
C2621 C2622 1.396 . S
C2621 C2626 1.390 . S
C2622 C2616 1.465 . S
C2622 C2621 1.396 . S
C2622 C2623 1.399 . S
C2623 H2609 0.929 . S
C2623 C2622 1.399 . S
C2623 C2624 1.385 . S
C2624 H2610 0.931 . S
C2624 C2623 1.385 . S
C2624 C2625 1.389 . S
C2625 C2624 1.389 . S
C2625 C2626 1.387 . S
C2626 H2611 0.930 . S
C2626 C2621 1.390 . S
C2626 C2625 1.387 . S
H2627 C2639 0.930 . S
H2628 C2641 0.930 . S
H2629 C2642 0.930 . S
H2630 C2646 0.959 . S
H2631 C2646 0.959 . S
H2632 C2646 0.961 . S
H2633 C2647 0.960 . S
H2634 C2647 0.961 . S
H2635 C2647 0.959 . S
H2636 C2650 0.929 . S
H2637 C2651 0.931 . S
H2638 C2653 0.930 . S
C2639 H2627 0.930 . S
C2639 C2640 1.399 . S
C2639 C2644 1.399 . S
C2640 C2639 1.399 . S
C2640 C2641 1.376 . S
C2641 H2628 0.930 . S
C2641 C2640 1.376 . S
C2641 C2642 1.388 . S
C2642 H2629 0.930 . S
C2642 C2641 1.388 . S
C2642 C2643 1.390 . S
C2643 C2642 1.390 . S
C2643 C2644 1.394 . S
C2643 C2649 1.465 . S
C2644 C2639 1.399 . S
C2644 C2643 1.394 . S
C2644 C2645 1.516 . S
C2645 C2644 1.516 . S
C2645 C2646 1.502 . S
C2645 C2647 1.561 . S
C2645 C2648 1.526 . S
C2646 H2630 0.959 . S
C2646 H2631 0.959 . S
C2646 H2632 0.961 . S
C2646 C2645 1.502 . S
C2647 H2633 0.960 . S
C2647 H2634 0.961 . S
C2647 H2635 0.959 . S
C2647 C2645 1.561 . S
C2648 C2645 1.526 . S
C2648 C2649 1.396 . S
C2648 C2653 1.390 . S
C2649 C2643 1.465 . S
C2649 C2648 1.396 . S
C2649 C2650 1.399 . S
C2650 H2636 0.929 . S
C2650 C2649 1.399 . S
C2650 C2651 1.385 . S
C2651 H2637 0.931 . S
C2651 C2650 1.385 . S
C2651 C2652 1.389 . S
C2652 C2651 1.389 . S
C2652 C2653 1.387 . S
C2653 H2638 0.930 . S
C2653 C2648 1.390 . S
C2653 C2652 1.387 . S
H2654 C2666 0.930 . S
H2655 C2668 0.930 . S
H2656 C2669 0.930 . S
H2657 C2673 0.959 . S
H2658 C2673 0.959 . S
H2659 C2673 0.961 . S
H2660 C2674 0.960 . S
H2661 C2674 0.961 . S
H2662 C2674 0.959 . S
H2663 C2677 0.929 . S
H2664 C2678 0.931 . S
H2665 C2680 0.930 . S
C2666 H2654 0.930 . S
C2666 C2667 1.399 . S
C2666 C2671 1.399 . S
C2667 C2666 1.399 . S
C2667 C2668 1.376 . S
C2668 H2655 0.930 . S
C2668 C2667 1.376 . S
C2668 C2669 1.388 . S
C2669 H2656 0.930 . S
C2669 C2668 1.388 . S
C2669 C2670 1.390 . S
C2670 C2669 1.390 . S
C2670 C2671 1.394 . S
C2670 C2676 1.465 . S
C2671 C2666 1.399 . S
C2671 C2670 1.394 . S
C2671 C2672 1.516 . S
C2672 C2671 1.516 . S
C2672 C2673 1.502 1_455 S
C2672 C2674 1.561 . S
C2672 C2675 1.526 . S
C2673 H2657 0.959 . S
C2673 H2658 0.959 . S
C2673 H2659 0.961 . S
C2673 C2672 1.502 1_655 S
C2674 H2660 0.960 . S
C2674 H2661 0.961 . S
C2674 H2662 0.959 . S
C2674 C2672 1.561 . S
C2675 C2672 1.526 . S
C2675 C2676 1.396 . S
C2675 C2680 1.390 . S
C2676 C2670 1.465 . S
C2676 C2675 1.396 . S
C2676 C2677 1.399 . S
C2677 H2663 0.929 . S
C2677 C2676 1.399 . S
C2677 C2678 1.385 . S
C2678 H2664 0.931 . S
C2678 C2677 1.385 . S
C2678 C2679 1.389 . S
C2679 C2678 1.389 . S
C2679 C2680 1.387 . S
C2680 H2665 0.930 . S
C2680 C2675 1.390 . S
C2680 C2679 1.387 . S
H2681 C2693 0.930 . S
H2682 C2695 0.930 . S
H2683 C2696 0.930 . S
H2684 C2700 0.959 . S
H2685 C2700 0.959 . S
H2686 C2700 0.961 . S
H2687 C2701 0.960 . S
H2688 C2701 0.961 . S
H2689 C2701 0.959 . S
H2690 C2704 0.929 . S
H2691 C2705 0.931 . S
H2692 C2707 0.930 . S
C2693 H2681 0.930 . S
C2693 C2694 1.399 . S
C2693 C2698 1.399 . S
C2694 C2693 1.399 . S
C2694 C2695 1.376 . S
C2695 H2682 0.930 . S
C2695 C2694 1.376 . S
C2695 C2696 1.388 . S
C2696 H2683 0.930 . S
C2696 C2695 1.388 . S
C2696 C2697 1.390 . S
C2697 C2696 1.390 . S
C2697 C2698 1.394 . S
C2697 C2703 1.465 . S
C2698 C2693 1.399 . S
C2698 C2697 1.394 . S
C2698 C2699 1.516 . S
C2699 C2698 1.516 . S
C2699 C2700 1.502 . S
C2699 C2701 1.561 . S
C2699 C2702 1.526 . S
C2700 H2684 0.959 . S
C2700 H2685 0.959 . S
C2700 H2686 0.961 . S
C2700 C2699 1.502 . S
C2701 H2687 0.960 . S
C2701 H2688 0.961 . S
C2701 H2689 0.959 . S
C2701 C2699 1.561 . S
C2702 C2699 1.526 . S
C2702 C2703 1.396 . S
C2702 C2707 1.390 . S
C2703 C2697 1.465 . S
C2703 C2702 1.396 . S
C2703 C2704 1.399 . S
C2704 H2690 0.929 . S
C2704 C2703 1.399 . S
C2704 C2705 1.385 . S
C2705 H2691 0.931 . S
C2705 C2704 1.385 . S
C2705 C2706 1.389 . S
C2706 C2705 1.389 . S
C2706 C2707 1.387 . S
C2707 H2692 0.930 . S
C2707 C2702 1.390 . S
C2707 C2706 1.387 . S
H2708 C2720 0.930 . S
H2709 C2722 0.930 . S
H2710 C2723 0.930 . S
H2711 C2727 0.959 1_554 S
H2712 C2727 0.959 1_554 S
H2713 C2727 0.961 . S
H2714 C2728 0.960 . S
H2715 C2728 0.961 . S
H2716 C2728 0.959 . S
H2717 C2731 0.929 . S
H2718 C2732 0.931 . S
H2719 C2734 0.927 . S
C2720 H2708 0.930 . S
C2720 C2721 1.399 . S
C2720 C2725 1.399 . S
C2721 C2720 1.399 . S
C2721 C2722 1.376 . S
C2722 H2709 0.930 . S
C2722 C2721 1.376 . S
C2722 C2723 1.388 . S
C2723 H2710 0.930 . S
C2723 C2722 1.388 . S
C2723 C2724 1.390 . S
C2724 C2723 1.390 . S
C2724 C2725 1.394 . S
C2724 C2730 1.465 . S
C2725 C2720 1.399 . S
C2725 C2724 1.394 . S
C2725 C2726 1.516 . S
C2726 C2725 1.516 . S
C2726 C2727 1.502 . S
C2726 C2728 1.561 . S
C2726 C2729 1.526 . S
C2727 H2711 0.959 1_556 S
C2727 H2712 0.959 1_556 S
C2727 H2713 0.961 . S
C2727 C2726 1.502 . S
C2728 H2714 0.960 . S
C2728 H2715 0.961 . S
C2728 H2716 0.959 . S
C2728 C2726 1.561 . S
C2729 C2726 1.526 . S
C2729 C2730 1.396 . S
C2729 C2734 1.390 . S
C2730 C2724 1.465 . S
C2730 C2729 1.396 . S
C2730 C2731 1.399 . S
C2731 H2717 0.929 . S
C2731 C2730 1.399 . S
C2731 C2732 1.385 . S
C2732 H2718 0.931 . S
C2732 C2731 1.385 . S
C2732 C2733 1.389 . S
C2733 C2732 1.389 . S
C2733 C2734 1.387 . S
C2734 H2719 0.927 . S
C2734 C2729 1.390 . S
C2734 C2733 1.387 . S
H2735 C2747 0.930 . S
H2736 C2749 0.930 . S
H2737 C2750 0.930 . S
H2738 C2754 0.959 . S
H2739 C2754 0.959 . S
H2740 C2754 0.961 . S
H2741 C2755 0.960 . S
H2742 C2755 0.961 . S
H2743 C2755 0.959 . S
H2744 C2758 0.929 . S
H2745 C2759 0.931 . S
H2746 C2761 0.930 . S
C2747 H2735 0.930 . S
C2747 C2748 1.399 . S
C2747 C2752 1.399 . S
C2748 C2747 1.399 . S
C2748 C2749 1.376 . S
C2749 H2736 0.930 . S
C2749 C2748 1.376 . S
C2749 C2750 1.388 . S
C2750 H2737 0.930 . S
C2750 C2749 1.388 . S
C2750 C2751 1.390 . S
C2751 C2750 1.390 . S
C2751 C2752 1.394 . S
C2751 C2757 1.465 . S
C2752 C2747 1.399 . S
C2752 C2751 1.394 . S
C2752 C2753 1.516 . S
C2753 C2752 1.516 . S
C2753 C2754 1.502 . S
C2753 C2755 1.561 . S
C2753 C2756 1.526 . S
C2754 H2738 0.959 . S
C2754 H2739 0.959 . S
C2754 H2740 0.961 . S
C2754 C2753 1.502 . S
C2755 H2741 0.960 . S
C2755 H2742 0.961 . S
C2755 H2743 0.959 . S
C2755 C2753 1.561 . S
C2756 C2753 1.526 . S
C2756 C2757 1.396 . S
C2756 C2761 1.390 . S
C2757 C2751 1.465 . S
C2757 C2756 1.396 . S
C2757 C2758 1.399 . S
C2758 H2744 0.929 . S
C2758 C2757 1.399 . S
C2758 C2759 1.385 . S
C2759 H2745 0.931 . S
C2759 C2758 1.385 . S
C2759 C2760 1.389 . S
C2760 C2759 1.389 . S
C2760 C2761 1.387 . S
C2761 H2746 0.930 . S
C2761 C2756 1.390 . S
C2761 C2760 1.387 . S
H2762 C2774 0.930 . S
H2763 C2776 0.930 1_655 S
H2764 C2777 0.912 1_655 S
H2765 C2781 0.959 . S
H2766 C2781 0.959 . S
H2767 C2781 0.961 . S
H2768 C2782 0.960 . S
H2769 C2782 0.961 . S
H2770 C2782 0.959 . S
H2771 C2785 0.929 . S
H2772 C2786 0.931 1_655 S
H2773 C2788 0.930 . S
C2774 H2762 0.930 . S
C2774 C2775 1.399 . S
C2774 C2779 1.399 . S
C2775 C2774 1.399 . S
C2775 C2776 1.376 . S
C2776 H2763 0.930 1_455 S
C2776 C2775 1.376 . S
C2776 C2777 1.400 . S
C2777 H2764 0.912 1_455 S
C2777 C2776 1.400 . S
C2777 C2778 1.397 . S
C2778 C2777 1.397 . S
C2778 C2779 1.394 . S
C2778 C2784 1.465 . S
C2779 C2774 1.399 . S
C2779 C2778 1.394 . S
C2779 C2780 1.516 . S
C2780 C2779 1.516 . S
C2780 C2781 1.502 . S
C2780 C2782 1.561 . S
C2780 C2783 1.526 . S
C2781 H2765 0.959 . S
C2781 H2766 0.959 . S
C2781 H2767 0.961 . S
C2781 C2780 1.502 . S
C2782 H2768 0.960 . S
C2782 H2769 0.961 . S
C2782 H2770 0.959 . S
C2782 C2780 1.561 . S
C2783 C2780 1.526 . S
C2783 C2784 1.396 . S
C2783 C2788 1.390 . S
C2784 C2778 1.465 . S
C2784 C2783 1.396 . S
C2784 C2785 1.399 1_455 S
C2785 H2771 0.929 . S
C2785 C2784 1.399 1_655 S
C2785 C2786 1.385 1_655 S
C2786 H2772 0.931 1_455 S
C2786 C2785 1.385 1_455 S
C2786 C2787 1.389 . S
C2787 C2786 1.389 . S
C2787 C2788 1.387 . S
C2788 H2773 0.930 . S
C2788 C2783 1.390 . S
C2788 C2787 1.387 . S
H2789 C2801 0.930 . S
H2790 C2803 0.930 . S
H2791 C2804 0.930 . S
H2792 C2808 0.959 . S
H2793 C2808 0.959 . S
H2794 C2808 0.961 . S
H2795 C2809 0.960 . S
H2796 C2809 0.961 . S
H2797 C2809 0.959 . S
H2798 C2812 0.929 . S
H2799 C2813 0.931 . S
H2800 C2815 0.930 . S
C2801 H2789 0.930 . S
C2801 C2802 1.399 . S
C2801 C2806 1.399 . S
C2802 C2801 1.399 . S
C2802 C2803 1.376 . S
C2803 H2790 0.930 . S
C2803 C2802 1.376 . S
C2803 C2804 1.388 . S
C2804 H2791 0.930 . S
C2804 C2803 1.388 . S
C2804 C2805 1.390 . S
C2805 C2804 1.390 . S
C2805 C2806 1.394 . S
C2805 C2811 1.465 . S
C2806 C2801 1.399 . S
C2806 C2805 1.394 . S
C2806 C2807 1.516 . S
C2807 C2806 1.516 . S
C2807 C2808 1.502 . S
C2807 C2809 1.561 . S
C2807 C2810 1.526 . S
C2808 H2792 0.959 . S
C2808 H2793 0.959 . S
C2808 H2794 0.961 . S
C2808 C2807 1.502 . S
C2809 H2795 0.960 . S
C2809 H2796 0.961 . S
C2809 H2797 0.959 . S
C2809 C2807 1.561 . S
C2810 C2807 1.526 . S
C2810 C2811 1.396 . S
C2810 C2815 1.390 . S
C2811 C2805 1.465 . S
C2811 C2810 1.396 . S
C2811 C2812 1.399 . S
C2812 H2798 0.929 . S
C2812 C2811 1.399 . S
C2812 C2813 1.385 . S
C2813 H2799 0.931 . S
C2813 C2812 1.385 . S
C2813 C2814 1.389 . S
C2814 C2813 1.389 . S
C2814 C2815 1.387 . S
C2815 H2800 0.930 . S
C2815 C2810 1.390 . S
C2815 C2814 1.387 . S
H2816 C2828 0.930 . S
H2817 C2830 0.930 . S
H2818 C2831 0.930 . S
H2819 C2835 0.959 . S
H2820 C2835 0.959 . S
H2821 C2835 0.961 . S
H2822 C2836 0.960 . S
H2823 C2836 0.961 . S
H2824 C2836 0.959 . S
H2825 C2839 0.929 . S
H2826 C2840 0.931 . S
H2827 C2842 0.930 . S
C2828 H2816 0.930 . S
C2828 C2829 1.399 . S
C2828 C2833 1.399 . S
C2829 C2828 1.399 . S
C2829 C2830 1.376 . S
C2830 H2817 0.930 . S
C2830 C2829 1.376 . S
C2830 C2831 1.388 . S
C2831 H2818 0.930 . S
C2831 C2830 1.388 . S
C2831 C2832 1.390 . S
C2832 C2831 1.390 . S
C2832 C2833 1.394 . S
C2832 C2838 1.465 . S
C2833 C2828 1.399 . S
C2833 C2832 1.394 . S
C2833 C2834 1.516 . S
C2834 C2833 1.516 . S
C2834 C2835 1.502 . S
C2834 C2836 1.561 . S
C2834 C2837 1.526 . S
C2835 H2819 0.959 . S
C2835 H2820 0.959 . S
C2835 H2821 0.961 . S
C2835 C2834 1.502 . S
C2836 H2822 0.960 . S
C2836 H2823 0.961 . S
C2836 H2824 0.959 . S
C2836 C2834 1.561 . S
C2837 C2834 1.526 . S
C2837 C2838 1.396 . S
C2837 C2842 1.390 . S
C2838 C2832 1.465 . S
C2838 C2837 1.396 . S
C2838 C2839 1.399 . S
C2839 H2825 0.929 . S
C2839 C2838 1.399 . S
C2839 C2840 1.385 . S
C2840 H2826 0.931 . S
C2840 C2839 1.385 . S
C2840 C2841 1.389 . S
C2841 C2840 1.389 . S
C2841 C2842 1.387 . S
C2842 H2827 0.930 . S
C2842 C2837 1.390 . S
C2842 C2841 1.387 . S
H2843 C2855 0.930 . S
H2844 C2857 0.930 . S
H2845 C2858 0.930 . S
H2846 C2862 0.959 . S
H2847 C2862 0.959 . S
H2848 C2862 0.961 . S
H2849 C2863 0.960 . S
H2850 C2863 0.961 . S
H2851 C2863 0.959 . S
H2852 C2866 0.929 . S
H2853 C2867 0.931 . S
H2854 C2869 0.930 . S
C2855 H2843 0.930 . S
C2855 C2856 1.399 . S
C2855 C2860 1.399 . S
C2856 C2855 1.399 . S
C2856 C2857 1.376 . S
C2857 H2844 0.930 . S
C2857 C2856 1.376 . S
C2857 C2858 1.388 . S
C2858 H2845 0.930 . S
C2858 C2857 1.388 . S
C2858 C2859 1.390 . S
C2859 C2858 1.390 . S
C2859 C2860 1.394 . S
C2859 C2865 1.465 . S
C2860 C2855 1.399 . S
C2860 C2859 1.394 . S
C2860 C2861 1.516 . S
C2861 C2860 1.516 . S
C2861 C2862 1.502 . S
C2861 C2863 1.561 . S
C2861 C2864 1.526 . S
C2862 H2846 0.959 . S
C2862 H2847 0.959 . S
C2862 H2848 0.961 . S
C2862 C2861 1.502 . S
C2863 H2849 0.960 . S
C2863 H2850 0.961 . S
C2863 H2851 0.959 . S
C2863 C2861 1.561 . S
C2864 C2861 1.526 . S
C2864 C2865 1.396 . S
C2864 C2869 1.390 . S
C2865 C2859 1.465 . S
C2865 C2864 1.396 . S
C2865 C2866 1.399 . S
C2866 H2852 0.929 . S
C2866 C2865 1.399 . S
C2866 C2867 1.385 . S
C2867 H2853 0.931 . S
C2867 C2866 1.385 . S
C2867 C2868 1.389 . S
C2868 C2867 1.389 . S
C2868 C2869 1.387 . S
C2869 H2854 0.930 . S
C2869 C2864 1.390 . S
C2869 C2868 1.387 . S
H2870 C2882 0.930 . S
H2871 C2884 0.930 . S
H2872 C2885 0.930 . S
H2873 C2889 0.959 . S
H2874 C2889 0.959 . S
H2875 C2889 0.972 . S
H2876 C2890 0.960 . S
H2877 C2890 0.961 . S
H2878 C2890 0.959 . S
H2879 C2893 0.929 . S
H2880 C2894 0.931 . S
H2881 C2896 0.930 1_455 S
C2882 H2870 0.930 . S
C2882 C2883 1.399 . S
C2882 C2887 1.399 . S
C2883 C2882 1.399 . S
C2883 C2884 1.376 . S
C2884 H2871 0.930 . S
C2884 C2883 1.376 . S
C2884 C2885 1.388 . S
C2885 H2872 0.930 . S
C2885 C2884 1.388 . S
C2885 C2886 1.390 . S
C2886 C2885 1.390 . S
C2886 C2887 1.394 . S
C2886 C2892 1.465 . S
C2887 C2882 1.399 . S
C2887 C2886 1.394 . S
C2887 C2888 1.516 . S
C2888 C2887 1.516 . S
C2888 C2889 1.502 1_655 S
C2888 C2890 1.561 . S
C2888 C2891 1.526 . S
C2889 H2873 0.959 . S
C2889 H2874 0.959 . S
C2889 H2875 0.972 . S
C2889 C2888 1.502 1_455 S
C2890 H2876 0.960 . S
C2890 H2877 0.961 . S
C2890 H2878 0.959 . S
C2890 C2888 1.561 . S
C2891 C2888 1.526 . S
C2891 C2892 1.396 . S
C2891 C2896 1.390 . S
C2892 C2886 1.465 . S
C2892 C2891 1.396 . S
C2892 C2893 1.399 . S
C2893 H2879 0.929 . S
C2893 C2892 1.399 . S
C2893 C2894 1.385 . S
C2894 H2880 0.931 . S
C2894 C2893 1.385 . S
C2894 C2895 1.389 . S
C2895 C2894 1.389 . S
C2895 C2896 1.387 . S
C2896 H2881 0.930 1_655 S
C2896 C2891 1.390 . S
C2896 C2895 1.387 . S
H2897 C2909 0.930 . S
H2898 C2911 0.930 . S
H2899 C2912 0.930 . S
H2900 C2916 0.959 . S
H2901 C2916 0.959 . S
H2902 C2916 0.961 . S
H2903 C2917 0.960 . S
H2904 C2917 0.961 . S
H2905 C2917 0.959 . S
H2906 C2920 0.929 . S
H2907 C2921 0.931 . S
H2908 C2923 0.930 . S
C2909 H2897 0.930 . S
C2909 C2910 1.399 . S
C2909 C2914 1.399 . S
C2910 C2909 1.399 . S
C2910 C2911 1.376 . S
C2911 H2898 0.930 . S
C2911 C2910 1.376 . S
C2911 C2912 1.388 . S
C2912 H2899 0.930 . S
C2912 C2911 1.388 . S
C2912 C2913 1.390 . S
C2913 C2912 1.390 . S
C2913 C2914 1.394 . S
C2913 C2919 1.465 . S
C2914 C2909 1.399 . S
C2914 C2913 1.394 . S
C2914 C2915 1.516 . S
C2915 C2914 1.516 . S
C2915 C2916 1.502 . S
C2915 C2917 1.561 . S
C2915 C2918 1.526 . S
C2916 H2900 0.959 . S
C2916 H2901 0.959 . S
C2916 H2902 0.961 . S
C2916 C2915 1.502 . S
C2917 H2903 0.960 . S
C2917 H2904 0.961 . S
C2917 H2905 0.959 . S
C2917 C2915 1.561 . S
C2918 C2915 1.526 . S
C2918 C2919 1.396 . S
C2918 C2923 1.390 . S
C2919 C2913 1.465 . S
C2919 C2918 1.396 . S
C2919 C2920 1.399 . S
C2920 H2906 0.929 . S
C2920 C2919 1.399 . S
C2920 C2921 1.385 . S
C2921 H2907 0.931 . S
C2921 C2920 1.385 . S
C2921 C2922 1.389 . S
C2922 C2921 1.389 . S
C2922 C2923 1.387 . S
C2923 H2908 0.930 . S
C2923 C2918 1.390 . S
C2923 C2922 1.387 . S
H2924 C2936 0.930 . S
H2925 C2938 0.930 . S
H2926 C2939 0.930 . S
H2927 C2943 0.959 . S
H2928 C2943 0.959 . S
H2929 C2943 0.961 . S
H2930 C2944 0.960 . S
H2931 C2944 0.961 . S
H2932 C2944 0.959 . S
H2933 C2947 0.929 . S
H2934 C2948 0.931 . S
H2935 C2950 0.930 . S
C2936 H2924 0.930 . S
C2936 C2937 1.399 . S
C2936 C2941 1.399 . S
C2937 C2936 1.399 . S
C2937 C2938 1.376 . S
C2938 H2925 0.930 . S
C2938 C2937 1.376 . S
C2938 C2939 1.388 . S
C2939 H2926 0.930 . S
C2939 C2938 1.388 . S
C2939 C2940 1.390 . S
C2940 C2939 1.390 . S
C2940 C2941 1.394 . S
C2940 C2946 1.465 . S
C2941 C2936 1.399 . S
C2941 C2940 1.394 . S
C2941 C2942 1.516 . S
C2942 C2941 1.516 . S
C2942 C2943 1.502 . S
C2942 C2944 1.561 . S
C2942 C2945 1.526 . S
C2943 H2927 0.959 . S
C2943 H2928 0.959 . S
C2943 H2929 0.961 . S
C2943 C2942 1.502 . S
C2944 H2930 0.960 . S
C2944 H2931 0.961 . S
C2944 H2932 0.959 . S
C2944 C2942 1.561 . S
C2945 C2942 1.526 . S
C2945 C2946 1.396 . S
C2945 C2950 1.390 . S
C2946 C2940 1.465 . S
C2946 C2945 1.396 . S
C2946 C2947 1.399 . S
C2947 H2933 0.929 . S
C2947 C2946 1.399 . S
C2947 C2948 1.385 . S
C2948 H2934 0.931 . S
C2948 C2947 1.385 . S
C2948 C2949 1.389 . S
C2949 C2948 1.389 . S
C2949 C2950 1.387 . S
C2950 H2935 0.930 . S
C2950 C2945 1.390 . S
C2950 C2949 1.387 . S
H2951 C2963 0.930 . S
H2952 C2965 0.930 . S
H2953 C2966 0.930 . S
H2954 C2970 0.959 . S
H2955 C2970 0.959 . S
H2956 C2970 0.961 . S
H2957 C2971 0.960 . S
H2958 C2971 0.961 . S
H2959 C2971 0.959 . S
H2960 C2974 0.929 . S
H2961 C2975 0.931 . S
H2962 C2977 0.930 . S
C2963 H2951 0.930 . S
C2963 C2964 1.399 . S
C2963 C2968 1.399 . S
C2964 C2963 1.399 . S
C2964 C2965 1.376 . S
C2965 H2952 0.930 . S
C2965 C2964 1.376 . S
C2965 C2966 1.388 . S
C2966 H2953 0.930 . S
C2966 C2965 1.388 . S
C2966 C2967 1.390 . S
C2967 C2966 1.390 . S
C2967 C2968 1.394 . S
C2967 C2973 1.465 . S
C2968 C2963 1.399 . S
C2968 C2967 1.394 . S
C2968 C2969 1.516 . S
C2969 C2968 1.516 . S
C2969 C2970 1.502 . S
C2969 C2971 1.561 . S
C2969 C2972 1.526 . S
C2970 H2954 0.959 . S
C2970 H2955 0.959 . S
C2970 H2956 0.961 . S
C2970 C2969 1.502 . S
C2971 H2957 0.960 . S
C2971 H2958 0.961 . S
C2971 H2959 0.959 . S
C2971 C2969 1.561 . S
C2972 C2969 1.526 . S
C2972 C2973 1.396 . S
C2972 C2977 1.390 . S
C2973 C2967 1.465 . S
C2973 C2972 1.396 . S
C2973 C2974 1.399 . S
C2974 H2960 0.929 . S
C2974 C2973 1.399 . S
C2974 C2975 1.385 . S
C2975 H2961 0.931 . S
C2975 C2974 1.385 . S
C2975 C2976 1.389 . S
C2976 C2975 1.389 . S
C2976 C2977 1.387 . S
C2977 H2962 0.930 . S
C2977 C2972 1.390 . S
C2977 C2976 1.387 . S
H2978 C2990 0.930 . S
H2979 C2992 0.930 . S
H2980 C2993 0.930 . S
H2981 C2997 0.959 . S
H2982 C2997 0.959 . S
H2983 C2997 0.961 . S
H2984 C2998 0.960 . S
H2985 C2998 0.961 1_455 S
H2986 C2998 0.959 . S
H2987 C3001 0.929 . S
H2988 C3002 0.931 . S
H2989 C3004 0.930 . S
C2990 H2978 0.930 . S
C2990 C2991 1.399 . S
C2990 C2995 1.399 . S
C2991 C2990 1.399 . S
C2991 C2992 1.376 . S
C2992 H2979 0.930 . S
C2992 C2991 1.376 . S
C2992 C2993 1.388 . S
C2993 H2980 0.930 . S
C2993 C2992 1.388 . S
C2993 C2994 1.390 . S
C2994 C2993 1.390 . S
C2994 C2995 1.394 . S
C2994 C3000 1.465 . S
C2995 C2990 1.399 . S
C2995 C2994 1.394 . S
C2995 C2996 1.516 . S
C2996 C2995 1.516 . S
C2996 C2997 1.502 . S
C2996 C2998 1.561 . S
C2996 C2999 1.526 . S
C2997 H2981 0.959 . S
C2997 H2982 0.959 . S
C2997 H2983 0.961 . S
C2997 C2996 1.502 . S
C2998 H2984 0.960 . S
C2998 H2985 0.961 1_655 S
C2998 H2986 0.959 . S
C2998 C2996 1.561 . S
C2999 C2996 1.526 . S
C2999 C3000 1.396 . S
C2999 C3004 1.390 . S
C3000 C2994 1.465 . S
C3000 C2999 1.396 . S
C3000 C3001 1.399 . S
C3001 H2987 0.929 . S
C3001 C3000 1.399 . S
C3001 C3002 1.385 . S
C3002 H2988 0.931 . S
C3002 C3001 1.385 . S
C3002 C3003 1.389 . S
C3003 C3002 1.389 . S
C3003 C3004 1.387 . S
C3004 H2989 0.930 . S
C3004 C2999 1.390 . S
C3004 C3003 1.387 . S
H3005 C3017 0.930 . S
H3006 C3019 0.930 . S
H3007 C3020 0.930 . S
H3008 C3024 0.959 . S
H3009 C3024 0.959 . S
H3010 C3024 0.961 . S
H3011 C3025 0.960 . S
H3012 C3025 0.961 . S
H3013 C3025 0.959 . S
H3014 C3028 0.929 . S
H3015 C3029 0.931 . S
H3016 C3031 0.930 . S
C3017 H3005 0.930 . S
C3017 C3018 1.399 . S
C3017 C3022 1.399 . S
C3018 C3017 1.399 . S
C3018 C3019 1.376 . S
C3019 H3006 0.930 . S
C3019 C3018 1.376 . S
C3019 C3020 1.388 . S
C3020 H3007 0.930 . S
C3020 C3019 1.388 . S
C3020 C3021 1.390 . S
C3021 C3020 1.390 . S
C3021 C3022 1.394 . S
C3021 C3027 1.465 . S
C3022 C3017 1.399 . S
C3022 C3021 1.394 . S
C3022 C3023 1.516 . S
C3023 C3022 1.516 . S
C3023 C3024 1.502 . S
C3023 C3025 1.561 . S
C3023 C3026 1.526 . S
C3024 H3008 0.959 . S
C3024 H3009 0.959 . S
C3024 H3010 0.961 . S
C3024 C3023 1.502 . S
C3025 H3011 0.960 . S
C3025 H3012 0.961 . S
C3025 H3013 0.959 . S
C3025 C3023 1.561 . S
C3026 C3023 1.526 . S
C3026 C3027 1.396 . S
C3026 C3031 1.390 . S
C3027 C3021 1.465 . S
C3027 C3026 1.396 . S
C3027 C3028 1.399 . S
C3028 H3014 0.929 . S
C3028 C3027 1.399 . S
C3028 C3029 1.385 . S
C3029 H3015 0.931 . S
C3029 C3028 1.385 . S
C3029 C3030 1.389 . S
C3030 C3029 1.389 . S
C3030 C3031 1.387 . S
C3031 H3016 0.930 . S
C3031 C3026 1.390 . S
C3031 C3030 1.387 . S
H3032 C3044 0.930 . S
H3033 C3046 0.930 . S
H3034 C3047 0.930 . S
H3035 C3051 0.959 . S
H3036 C3051 0.959 . S
H3037 C3051 0.961 . S
H3038 C3052 0.960 . S
H3039 C3052 0.961 . S
H3040 C3052 0.959 . S
H3041 C3055 0.929 . S
H3042 C3056 0.931 . S
H3043 C3058 0.930 . S
C3044 H3032 0.930 . S
C3044 C3045 1.399 . S
C3044 C3049 1.399 . S
C3045 C3044 1.399 . S
C3045 C3046 1.376 . S
C3046 H3033 0.930 . S
C3046 C3045 1.376 . S
C3046 C3047 1.388 . S
C3047 H3034 0.930 . S
C3047 C3046 1.388 . S
C3047 C3048 1.390 . S
C3048 C3047 1.390 . S
C3048 C3049 1.394 . S
C3048 C3054 1.465 . S
C3049 C3044 1.399 . S
C3049 C3048 1.394 . S
C3049 C3050 1.516 . S
C3050 C3049 1.516 . S
C3050 C3051 1.502 . S
C3050 C3052 1.561 . S
C3050 C3053 1.526 . S
C3051 H3035 0.959 . S
C3051 H3036 0.959 . S
C3051 H3037 0.961 . S
C3051 C3050 1.502 . S
C3052 H3038 0.960 . S
C3052 H3039 0.961 . S
C3052 H3040 0.959 . S
C3052 C3050 1.561 . S
C3053 C3050 1.526 . S
C3053 C3054 1.396 . S
C3053 C3058 1.390 . S
C3054 C3048 1.465 . S
C3054 C3053 1.396 . S
C3054 C3055 1.399 . S
C3055 H3041 0.929 . S
C3055 C3054 1.399 . S
C3055 C3056 1.385 . S
C3056 H3042 0.931 . S
C3056 C3055 1.385 . S
C3056 C3057 1.389 . S
C3057 C3056 1.389 . S
C3057 C3058 1.387 . S
C3058 H3043 0.930 . S
C3058 C3053 1.390 . S
C3058 C3057 1.387 . S
H3059 C3071 0.930 . S
H3060 C3073 0.930 . S
H3061 C3074 0.930 . S
H3062 C3078 0.959 . S
H3063 C3078 0.959 1_545 S
H3064 C3078 0.961 . S
H3065 C3079 0.960 . S
H3066 C3079 0.961 . S
H3067 C3079 0.959 . S
H3068 C3082 0.929 . S
H3069 C3083 0.931 . S
H3070 C3085 0.930 1_545 S
C3071 H3059 0.930 . S
C3071 C3072 1.399 . S
C3071 C3076 1.399 . S
C3072 C3071 1.399 . S
C3072 C3073 1.376 . S
C3073 H3060 0.930 . S
C3073 C3072 1.376 . S
C3073 C3074 1.388 . S
C3074 H3061 0.930 . S
C3074 C3073 1.388 . S
C3074 C3075 1.390 . S
C3075 C3074 1.390 . S
C3075 C3076 1.394 . S
C3075 C3081 1.465 . S
C3076 C3071 1.399 . S
C3076 C3075 1.394 . S
C3076 C3077 1.516 . S
C3077 C3076 1.516 . S
C3077 C3078 1.502 . S
C3077 C3079 1.561 . S
C3077 C3080 1.526 . S
C3078 H3062 0.959 . S
C3078 H3063 0.959 1_565 S
C3078 H3064 0.961 . S
C3078 C3077 1.502 . S
C3079 H3065 0.960 . S
C3079 H3066 0.961 . S
C3079 H3067 0.959 . S
C3079 C3077 1.561 . S
C3080 C3077 1.526 . S
C3080 C3081 1.396 . S
C3080 C3085 1.390 . S
C3081 C3075 1.465 . S
C3081 C3080 1.396 . S
C3081 C3082 1.399 . S
C3082 H3068 0.929 . S
C3082 C3081 1.399 . S
C3082 C3083 1.385 . S
C3083 H3069 0.931 . S
C3083 C3082 1.385 . S
C3083 C3084 1.389 . S
C3084 C3083 1.389 . S
C3084 C3085 1.387 . S
C3085 H3070 0.930 1_565 S
C3085 C3080 1.390 . S
C3085 C3084 1.387 . S
H3086 C3098 0.930 . S
H3087 C3100 0.930 . S
H3088 C3101 0.930 . S
H3089 C3105 0.959 . S
H3090 C3105 0.959 . S
H3091 C3105 0.961 . S
H3092 C3106 0.960 . S
H3093 C3106 0.961 . S
H3094 C3106 0.959 . S
H3095 C3109 0.929 . S
H3096 C3110 0.931 . S
H3097 C3112 0.930 . S
C3098 H3086 0.930 . S
C3098 C3099 1.399 . S
C3098 C3103 1.399 . S
C3099 C3098 1.399 . S
C3099 C3100 1.376 . S
C3100 H3087 0.930 . S
C3100 C3099 1.376 . S
C3100 C3101 1.388 . S
C3101 H3088 0.930 . S
C3101 C3100 1.388 . S
C3101 C3102 1.390 . S
C3102 C3101 1.390 . S
C3102 C3103 1.394 . S
C3102 C3108 1.465 . S
C3103 C3098 1.399 . S
C3103 C3102 1.394 . S
C3103 C3104 1.516 . S
C3104 C3103 1.516 . S
C3104 C3105 1.502 . S
C3104 C3106 1.561 . S
C3104 C3107 1.526 . S
C3105 H3089 0.959 . S
C3105 H3090 0.959 . S
C3105 H3091 0.961 . S
C3105 C3104 1.502 . S
C3106 H3092 0.960 . S
C3106 H3093 0.961 . S
C3106 H3094 0.959 . S
C3106 C3104 1.561 . S
C3107 C3104 1.526 . S
C3107 C3108 1.396 . S
C3107 C3112 1.390 . S
C3108 C3102 1.465 . S
C3108 C3107 1.396 . S
C3108 C3109 1.399 . S
C3109 H3095 0.929 . S
C3109 C3108 1.399 . S
C3109 C3110 1.385 . S
C3110 H3096 0.931 . S
C3110 C3109 1.385 . S
C3110 C3111 1.389 . S
C3111 C3110 1.389 . S
C3111 C3112 1.387 . S
C3112 H3097 0.930 . S
C3112 C3107 1.390 . S
C3112 C3111 1.387 . S
H3113 C3125 0.930 . S
H3114 C3127 0.930 . S
H3115 C3128 0.930 . S
H3116 C3132 0.959 . S
H3117 C3132 0.959 . S
H3118 C3132 0.961 . S
H3119 C3133 0.960 . S
H3120 C3133 0.961 . S
H3121 C3133 0.959 . S
H3122 C3136 0.929 . S
H3123 C3137 0.931 1_556 S
H3124 C3139 0.930 . S
C3125 H3113 0.930 . S
C3125 C3126 1.399 . S
C3125 C3130 1.399 . S
C3126 C3125 1.399 . S
C3126 C3127 1.376 1_554 S
C3127 H3114 0.930 . S
C3127 C3126 1.376 1_556 S
C3127 C3128 1.388 . S
C3128 H3115 0.930 . S
C3128 C3127 1.388 . S
C3128 C3129 1.390 1_556 S
C3129 C3128 1.390 1_554 S
C3129 C3130 1.394 . S
C3129 C3135 1.465 . S
C3130 C3125 1.399 . S
C3130 C3129 1.394 . S
C3130 C3131 1.516 . S
C3131 C3130 1.516 . S
C3131 C3132 1.502 . S
C3131 C3133 1.561 . S
C3131 C3134 1.526 . S
C3132 H3116 0.959 . S
C3132 H3117 0.959 . S
C3132 H3118 0.961 . S
C3132 C3131 1.502 . S
C3133 H3119 0.960 . S
C3133 H3120 0.961 . S
C3133 H3121 0.959 . S
C3133 C3131 1.561 . S
C3134 C3131 1.526 . S
C3134 C3135 1.396 . S
C3134 C3139 1.390 . S
C3135 C3129 1.465 . S
C3135 C3134 1.396 . S
C3135 C3136 1.399 1_554 S
C3136 H3122 0.929 . S
C3136 C3135 1.399 1_556 S
C3136 C3137 1.385 1_556 S
C3137 H3123 0.931 1_554 S
C3137 C3136 1.385 1_554 S
C3137 C3138 1.389 . S
C3138 C3137 1.389 . S
C3138 C3139 1.387 . S
C3139 H3124 0.930 . S
C3139 C3134 1.390 . S
C3139 C3138 1.387 . S
H3140 C3152 0.930 . S
H3141 C3154 0.930 . S
H3142 C3155 0.930 . S
H3143 C3159 0.959 . S
H3144 C3159 0.959 . S
H3145 C3159 0.961 . S
H3146 C3160 0.960 . S
H3147 C3160 0.961 . S
H3148 C3160 0.959 . S
H3149 C3163 0.929 . S
H3150 C3164 0.931 . S
H3151 C3166 0.930 . S
C3152 H3140 0.930 . S
C3152 C3153 1.399 . S
C3152 C3157 1.399 . S
C3153 C3152 1.399 . S
C3153 C3154 1.376 . S
C3154 H3141 0.930 . S
C3154 C3153 1.376 . S
C3154 C3155 1.388 . S
C3155 H3142 0.930 . S
C3155 C3154 1.388 . S
C3155 C3156 1.390 . S
C3156 C3155 1.390 . S
C3156 C3157 1.394 . S
C3156 C3162 1.465 . S
C3157 C3152 1.399 . S
C3157 C3156 1.394 . S
C3157 C3158 1.516 . S
C3158 C3157 1.516 . S
C3158 C3159 1.502 . S
C3158 C3160 1.561 . S
C3158 C3161 1.526 . S
C3159 H3143 0.959 . S
C3159 H3144 0.959 . S
C3159 H3145 0.961 . S
C3159 C3158 1.502 . S
C3160 H3146 0.960 . S
C3160 H3147 0.961 . S
C3160 H3148 0.959 . S
C3160 C3158 1.561 . S
C3161 C3158 1.526 . S
C3161 C3162 1.396 . S
C3161 C3166 1.390 . S
C3162 C3156 1.465 . S
C3162 C3161 1.396 . S
C3162 C3163 1.399 . S
C3163 H3149 0.929 . S
C3163 C3162 1.399 . S
C3163 C3164 1.385 . S
C3164 H3150 0.931 . S
C3164 C3163 1.385 . S
C3164 C3165 1.389 . S
C3165 C3164 1.389 . S
C3165 C3166 1.387 . S
C3166 H3151 0.930 . S
C3166 C3161 1.390 . S
C3166 C3165 1.387 . S
H3167 C3179 0.930 . S
H3168 C3181 0.930 . S
H3169 C3182 0.930 . S
H3170 C3186 0.959 . S
H3171 C3186 0.959 . S
H3172 C3186 0.961 . S
H3173 C3187 0.960 . S
H3174 C3187 0.961 . S
H3175 C3187 0.959 . S
H3176 C3190 0.929 . S
H3177 C3191 0.931 . S
H3178 C3193 0.930 . S
C3179 H3167 0.930 . S
C3179 C3180 1.399 . S
C3179 C3184 1.399 . S
C3180 C3179 1.399 . S
C3180 C3181 1.376 . S
C3181 H3168 0.930 . S
C3181 C3180 1.376 . S
C3181 C3182 1.388 . S
C3182 H3169 0.930 . S
C3182 C3181 1.388 . S
C3182 C3183 1.390 . S
C3183 C3182 1.390 . S
C3183 C3184 1.394 . S
C3183 C3189 1.465 . S
C3184 C3179 1.399 . S
C3184 C3183 1.394 . S
C3184 C3185 1.516 . S
C3185 C3184 1.516 . S
C3185 C3186 1.502 . S
C3185 C3187 1.561 1_554 S
C3185 C3188 1.526 . S
C3186 H3170 0.959 . S
C3186 H3171 0.959 . S
C3186 H3172 0.961 . S
C3186 C3185 1.502 . S
C3187 H3173 0.960 . S
C3187 H3174 0.961 . S
C3187 H3175 0.959 . S
C3187 C3185 1.561 1_556 S
C3188 C3185 1.526 . S
C3188 C3189 1.396 . S
C3188 C3193 1.390 . S
C3189 C3183 1.465 . S
C3189 C3188 1.396 . S
C3189 C3190 1.399 . S
C3190 H3176 0.929 . S
C3190 C3189 1.399 . S
C3190 C3191 1.385 . S
C3191 H3177 0.931 . S
C3191 C3190 1.385 . S
C3191 C3192 1.389 . S
C3192 C3191 1.389 . S
C3192 C3193 1.387 . S
C3193 H3178 0.930 . S
C3193 C3188 1.390 . S
C3193 C3192 1.387 . S
H3194 C3206 0.930 . S
H3195 C3208 0.930 . S
H3196 C3209 0.930 . S
H3197 C3213 0.959 . S
H3198 C3213 0.959 . S
H3199 C3213 0.961 . S
H3200 C3214 0.960 . S
H3201 C3214 0.961 . S
H3202 C3214 0.959 . S
H3203 C3217 0.929 . S
H3204 C3218 0.931 . S
H3205 C3220 0.930 . S
C3206 H3194 0.930 . S
C3206 C3207 1.399 . S
C3206 C3211 1.399 . S
C3207 C3206 1.399 . S
C3207 C3208 1.376 . S
C3208 H3195 0.930 . S
C3208 C3207 1.376 . S
C3208 C3209 1.388 . S
C3209 H3196 0.930 . S
C3209 C3208 1.388 . S
C3209 C3210 1.390 . S
C3210 C3209 1.390 . S
C3210 C3211 1.394 . S
C3210 C3216 1.465 . S
C3211 C3206 1.399 . S
C3211 C3210 1.394 . S
C3211 C3212 1.516 . S
C3212 C3211 1.516 . S
C3212 C3213 1.502 . S
C3212 C3214 1.561 . S
C3212 C3215 1.526 . S
C3213 H3197 0.959 . S
C3213 H3198 0.959 . S
C3213 H3199 0.961 . S
C3213 C3212 1.502 . S
C3214 H3200 0.960 . S
C3214 H3201 0.961 . S
C3214 H3202 0.959 . S
C3214 C3212 1.561 . S
C3215 C3212 1.526 . S
C3215 C3216 1.396 . S
C3215 C3220 1.390 . S
C3216 C3210 1.465 . S
C3216 C3215 1.396 . S
C3216 C3217 1.399 . S
C3217 H3203 0.929 . S
C3217 C3216 1.399 . S
C3217 C3218 1.385 . S
C3218 H3204 0.931 . S
C3218 C3217 1.385 . S
C3218 C3219 1.389 . S
C3219 C3218 1.389 . S
C3219 C3220 1.387 . S
C3220 H3205 0.930 . S
C3220 C3215 1.390 . S
C3220 C3219 1.387 . S
H3221 C3233 0.930 . S
H3222 C3235 0.930 . S
H3223 C3236 0.930 . S
H3224 C3240 0.959 . S
H3225 C3240 0.959 . S
H3226 C3240 0.961 . S
H3227 C3241 0.960 . S
H3228 C3241 0.961 . S
H3229 C3241 0.959 . S
H3230 C3244 0.929 . S
H3231 C3245 0.931 . S
H3232 C3247 0.930 . S
C3233 H3221 0.930 . S
C3233 C3234 1.399 . S
C3233 C3238 1.399 . S
C3234 C3233 1.399 . S
C3234 C3235 1.376 . S
C3235 H3222 0.930 . S
C3235 C3234 1.376 . S
C3235 C3236 1.388 . S
C3236 H3223 0.930 . S
C3236 C3235 1.388 . S
C3236 C3237 1.390 . S
C3237 C3236 1.390 . S
C3237 C3238 1.394 . S
C3237 C3243 1.465 . S
C3238 C3233 1.399 . S
C3238 C3237 1.394 . S
C3238 C3239 1.516 . S
C3239 C3238 1.516 . S
C3239 C3240 1.502 . S
C3239 C3241 1.561 . S
C3239 C3242 1.526 . S
C3240 H3224 0.959 . S
C3240 H3225 0.959 . S
C3240 H3226 0.961 . S
C3240 C3239 1.502 . S
C3241 H3227 0.960 . S
C3241 H3228 0.961 . S
C3241 H3229 0.959 . S
C3241 C3239 1.561 . S
C3242 C3239 1.526 . S
C3242 C3243 1.396 . S
C3242 C3247 1.390 . S
C3243 C3237 1.465 . S
C3243 C3242 1.396 . S
C3243 C3244 1.399 . S
C3244 H3230 0.929 . S
C3244 C3243 1.399 . S
C3244 C3245 1.385 . S
C3245 H3231 0.931 . S
C3245 C3244 1.385 . S
C3245 C3246 1.389 . S
C3246 C3245 1.389 . S
C3246 C3247 1.387 . S
C3247 H3232 0.930 . S
C3247 C3242 1.390 . S
C3247 C3246 1.387 . S
C669 C106 1.776 . S
C681 C340 1.601 . S
C696 C65 1.480 . S
C708 C375 1.416 . S
C723 C79 1.494 . S
C735 C380 1.271 . S
C762 C405 1.139 . S
C750 C90 1.231 . S
C777 C21 1.262 . S
C789 C425 1.134 . S
C816 C440 1.023 . S
C804 C35 1.057 . S
C843 C475 1.471 . S
C831 C50 1.534 . S
C858 C6 1.352 . S
C870 C480 1.298 . S
C897 C355 1.720 1_655 S
C885 C232 1.858 . S
C912 C245 0.965 . S
C924 C365 1.035 . S
C951 C395 1.468 1_565 S
C939 C274 1.481 . S
C978 C400 1.190 . S
C966 C175 1.148 . S
C993 C231 0.999 . S
C1005 C420 1.026 . S
C1032 C455 1.362 . S
C1020 C246 1.420 . S
C1059 C465 0.826 . S
C1047 C273 0.937 . S
C1086 C495 1.689 . S
C1074 C176 1.776 . S
C1113 C345 1.355 . S
C1101 C160 1.405 . S
C1128 C289 1.736 1_554 S
C1140 C515 1.667 . S
C1167 C525 1.453 . S
C1155 C328 1.508 . S
C1194 C540 1.112 . S
C1182 C317 1.253 . S
C1209 C118 1.424 . S
C1221 C485 1.304 . S
C1236 C132 1.530 . S
C1248 C385 1.421 . S
C1263 C331 1.815 . S
C1275 C575 1.755 . S
C1302 C580 1.151 . S
C1290 C303 1.291 . S
C1329 C338 1.104 . S
C1317 C63 1.375 . S
C1356 C594 1.832 . S
C1344 C107 1.826 . S
C1371 C92 1.233 . S
C1383 C378 1.119 . S
C1398 C78 1.755 . S
C1410 C568 1.690 . S
C1437 C428 1.627 . S
C1425 C8 1.737 . S
C1452 C51 1.255 . S
C1464 C518 1.195 . S
C1491 C474 1.813 . S
C1479 C37 1.802 . S
C1518 C598 1.264 . S
C1506 C20 1.294 . S
C1545 C354 1.482 . S
C1533 C147 1.565 . S
C1572 C588 1.160 . S
C1560 C316 1.221 . S
C1587 C119 1.379 . S
C1599 C394 1.429 . S
C1614 C288 1.351 . S
C1626 C558 1.286 . S
C1641 C148 1.326 . S
C1653 C418 1.161 . S
C1680 C534 1.396 . S
C1668 C315 1.424 . S
C1695 C120 1.224 . S
C1707 C468 1.173 . S
C1722 C287 1.570 . S
C1734 C614 1.489 . S
C1749 C188 1.267 . S
C1761 C348 1.274 . S
C1776 C177 1.984 . S
C1788 C514 1.990 . S
C1803 C258 1.624 . S
C1815 C448 1.478 . S
C1830 C247 1.258 . S
C1842 C538 1.076 . S
C1869 C608 1.152 . S
C1857 C272 1.348 . S
C1884 C216 1.435 . S
C1896 C388 1.279 . S
C1923 C414 2.023 . S
C1911 C261 2.015 . S
C1950 C358 1.075 . S
C1938 C205 1.258 . S
C1965 C76 1.423 . S
C1977 C620 1.188 . S
C2004 C595 1.476 . S
C1992 C93 1.547 . S
C2019 C105 1.097 . S
C2031 C640 0.968 . S
C2046 C62 1.214 . S
C2058 C565 1.201 . S
C2073 C49 1.169 . S
C2085 C505 1.218 . S
C2112 C520 1.309 . S
C2100 C9 1.492 . S
C2139 C555 1.458 . S
C2127 C22 1.479 . S
C2166 C600 1.544 . S
C2154 C36 1.778 . S
C2193 C635 1.648 . S
C2181 C260 1.796 . S
C2208 C189 0.943 . S
C2220 C585 0.787 . S
C2247 C655 1.378 . S
C2235 C204 1.402 . S
C2274 C560 0.919 . S
C2262 C217 1.078 . S
C2301 C500 1.156 . S
C2289 C259 1.219 . S
C2316 C190 1.496 . S
C2328 C535 1.479 . S
C2355 C545 0.913 . S
C2343 C203 1.073 . S
C2370 C218 1.856 . S
C2382 C615 1.714 . S
C2409 C625 1.288 . S
C2397 C314 1.434 . S
C2424 C135 1.797 . S
C2436 C435 1.785 . S
C2463 C445 1.390 . S
C2451 C146 1.422 . S
C2490 C460 1.230 . S
C2478 C163 1.250 . S
C2517 C605 1.318 . S
C2505 C300 1.468 . S
C2532 C286 1.447 . S
C2544 C645 1.400 . S
C2571 C415 1.682 . S
C2559 C149 1.739 . S
C2598 C360 1.160 . S
C2586 C121 1.225 . S
C2613 C91 1.268 . S
C2625 C618 1.235 . S
C2652 C374 1.406 . S
C2640 C77 1.400 . S
C2667 C64 1.202 . S
C2679 C638 1.129 . S
C2694 C104 1.417 . S
C2706 C408 1.354 . S
C2721 C34 1.432 . S
C2733 C508 1.309 . S
C2760 C438 1.050 . S
C2748 C23 1.194 . S
C2775 C7 1.386 . S
C2787 C554 1.423 . S
C2802 C48 1.258 . S
C2814 C478 1.241 . S
C2841 C634 1.471 . S
C2829 C329 1.550 . S
C2856 C162 1.226 . S
C2868 C368 1.187 . S
C2895 C654 1.362 1_656 S
C2883 C301 1.410 . S
C2910 C134 1.325 . S
C2922 C398 1.200 . S
C2937 C330 1.348 . S
C2949 C498 1.288 . S
C2976 C454 1.428 . S
C2964 C161 1.368 . S
C2991 C302 1.209 . S
C3003 C548 1.129 . S
C3030 C494 1.507 . S
C3018 C133 1.561 . S
C3057 C628 1.440 . S
C3045 C244 1.458 . S
C3084 C434 1.972 . S
C3072 C219 1.968 . S
C3099 C230 1.366 . S
C3111 C528 1.384 . S
C3138 C458 1.067 . S
C3126 C191 1.250 . S
C3153 C202 1.461 . S
C3165 C488 1.436 . S
C3180 C174 1.630 . S
C3192 C648 1.471 . S
C3219 C574 1.966 . S
C3207 C233 1.954 . S
C3246 C578 1.065 . S
C3234 C275 1.245 . S
