# Generated by pormake.
# Topology gar, (4,6)-cn, num edge types: 1
# Building blocks:
#     Node 0, Type 0, BuildingBlock: CEKHIL_clean_sbu_0, # of connection points: 4
#     Node 1, Type 0, BuildingBlock: CEKHIL_clean_sbu_0, # of connection points: 4
#     Node 2, Type 0, BuildingBlock: CEKHIL_clean_sbu_0, # of connection points: 4
#     Node 3, Type 0, BuildingBlock: CEKHIL_clean_sbu_0, # of connection points: 4
#     Node 4, Type 0, BuildingBlock: CEKHIL_clean_sbu_0, # of connection points: 4
#     Node 5, Type 0, BuildingBlock: CEKHIL_clean_sbu_0, # of connection points: 4
#     Node 6, Type 0, BuildingBlock: CEKHIL_clean_sbu_0, # of connection points: 4
#     Node 7, Type 0, BuildingBlock: CEKHIL_clean_sbu_0, # of connection points: 4
#     Node 8, Type 0, BuildingBlock: CEKHIL_clean_sbu_0, # of connection points: 4
#     Node 9, Type 0, BuildingBlock: CEKHIL_clean_sbu_0, # of connection points: 4
#     Node 10, Type 0, BuildingBlock: CEKHIL_clean_sbu_0, # of connection points: 4
#     Node 11, Type 0, BuildingBlock: CEKHIL_clean_sbu_0, # of connection points: 4
#     Node 12, Type 0, BuildingBlock: CEKHIL_clean_sbu_0, # of connection points: 4
#     Node 13, Type 0, BuildingBlock: CEKHIL_clean_sbu_0, # of connection points: 4
#     Node 14, Type 0, BuildingBlock: CEKHIL_clean_sbu_0, # of connection points: 4
#     Node 15, Type 0, BuildingBlock: CEKHIL_clean_sbu_0, # of connection points: 4
#     Node 16, Type 0, BuildingBlock: CEKHIL_clean_sbu_0, # of connection points: 4
#     Node 17, Type 0, BuildingBlock: CEKHIL_clean_sbu_0, # of connection points: 4
#     Node 18, Type 0, BuildingBlock: CEKHIL_clean_sbu_0, # of connection points: 4
#     Node 19, Type 0, BuildingBlock: CEKHIL_clean_sbu_0, # of connection points: 4
#     Node 20, Type 0, BuildingBlock: CEKHIL_clean_sbu_0, # of connection points: 4
#     Node 21, Type 0, BuildingBlock: CEKHIL_clean_sbu_0, # of connection points: 4
#     Node 22, Type 0, BuildingBlock: CEKHIL_clean_sbu_0, # of connection points: 4
#     Node 23, Type 0, BuildingBlock: CEKHIL_clean_sbu_0, # of connection points: 4
#     Node 24, Type 1, BuildingBlock: KUMBUR_clean_sbu_0, # of connection points: 6
#     Node 25, Type 1, BuildingBlock: KUMBUR_clean_sbu_0, # of connection points: 6
#     Node 26, Type 1, BuildingBlock: KUMBUR_clean_sbu_0, # of connection points: 6
#     Node 27, Type 1, BuildingBlock: KUMBUR_clean_sbu_0, # of connection points: 6
#     Node 28, Type 1, BuildingBlock: KUMBUR_clean_sbu_0, # of connection points: 6
#     Node 29, Type 1, BuildingBlock: KUMBUR_clean_sbu_0, # of connection points: 6
#     Node 30, Type 1, BuildingBlock: KUMBUR_clean_sbu_0, # of connection points: 6
#     Node 31, Type 1, BuildingBlock: KUMBUR_clean_sbu_0, # of connection points: 6
#     Node 32, Type 1, BuildingBlock: KUMBUR_clean_sbu_0, # of connection points: 6
#     Node 33, Type 1, BuildingBlock: KUMBUR_clean_sbu_0, # of connection points: 6
#     Node 34, Type 1, BuildingBlock: KUMBUR_clean_sbu_0, # of connection points: 6
#     Node 35, Type 1, BuildingBlock: KUMBUR_clean_sbu_0, # of connection points: 6
#     Node 36, Type 1, BuildingBlock: KUMBUR_clean_sbu_0, # of connection points: 6
#     Node 37, Type 1, BuildingBlock: KUMBUR_clean_sbu_0, # of connection points: 6
#     Node 38, Type 1, BuildingBlock: KUMBUR_clean_sbu_0, # of connection points: 6
#     Node 39, Type 1, BuildingBlock: KUMBUR_clean_sbu_0, # of connection points: 6
#     Edge 40, Type (0, 1), BuildingBlock: KIFKEQ_clean_linker_1, # of connection points: 2
#     Edge 41, Type (0, 1), BuildingBlock: KIFKEQ_clean_linker_1, # of connection points: 2
#     Edge 42, Type (0, 1), BuildingBlock: KIFKEQ_clean_linker_1, # of connection points: 2
#     Edge 43, Type (0, 1), BuildingBlock: KIFKEQ_clean_linker_1, # of connection points: 2
#     Edge 44, Type (0, 1), BuildingBlock: KIFKEQ_clean_linker_1, # of connection points: 2
#     Edge 45, Type (0, 1), BuildingBlock: KIFKEQ_clean_linker_1, # of connection points: 2
#     Edge 46, Type (0, 1), BuildingBlock: KIFKEQ_clean_linker_1, # of connection points: 2
#     Edge 47, Type (0, 1), BuildingBlock: KIFKEQ_clean_linker_1, # of connection points: 2
#     Edge 48, Type (0, 1), BuildingBlock: KIFKEQ_clean_linker_1, # of connection points: 2
#     Edge 49, Type (0, 1), BuildingBlock: KIFKEQ_clean_linker_1, # of connection points: 2
#     Edge 50, Type (0, 1), BuildingBlock: KIFKEQ_clean_linker_1, # of connection points: 2
#     Edge 51, Type (0, 1), BuildingBlock: KIFKEQ_clean_linker_1, # of connection points: 2
#     Edge 52, Type (0, 1), BuildingBlock: KIFKEQ_clean_linker_1, # of connection points: 2
#     Edge 53, Type (0, 1), BuildingBlock: KIFKEQ_clean_linker_1, # of connection points: 2
#     Edge 54, Type (0, 1), BuildingBlock: KIFKEQ_clean_linker_1, # of connection points: 2
#     Edge 55, Type (0, 1), BuildingBlock: KIFKEQ_clean_linker_1, # of connection points: 2
#     Edge 56, Type (0, 1), BuildingBlock: KIFKEQ_clean_linker_1, # of connection points: 2
#     Edge 57, Type (0, 1), BuildingBlock: KIFKEQ_clean_linker_1, # of connection points: 2
#     Edge 58, Type (0, 1), BuildingBlock: KIFKEQ_clean_linker_1, # of connection points: 2
#     Edge 59, Type (0, 1), BuildingBlock: KIFKEQ_clean_linker_1, # of connection points: 2
#     Edge 60, Type (0, 1), BuildingBlock: KIFKEQ_clean_linker_1, # of connection points: 2
#     Edge 61, Type (0, 1), BuildingBlock: KIFKEQ_clean_linker_1, # of connection points: 2
#     Edge 62, Type (0, 1), BuildingBlock: KIFKEQ_clean_linker_1, # of connection points: 2
#     Edge 63, Type (0, 1), BuildingBlock: KIFKEQ_clean_linker_1, # of connection points: 2
#     Edge 64, Type (0, 1), BuildingBlock: KIFKEQ_clean_linker_1, # of connection points: 2
#     Edge 65, Type (0, 1), BuildingBlock: KIFKEQ_clean_linker_1, # of connection points: 2
#     Edge 66, Type (0, 1), BuildingBlock: KIFKEQ_clean_linker_1, # of connection points: 2
#     Edge 67, Type (0, 1), BuildingBlock: KIFKEQ_clean_linker_1, # of connection points: 2
#     Edge 68, Type (0, 1), BuildingBlock: KIFKEQ_clean_linker_1, # of connection points: 2
#     Edge 69, Type (0, 1), BuildingBlock: KIFKEQ_clean_linker_1, # of connection points: 2
#     Edge 70, Type (0, 1), BuildingBlock: KIFKEQ_clean_linker_1, # of connection points: 2
#     Edge 71, Type (0, 1), BuildingBlock: KIFKEQ_clean_linker_1, # of connection points: 2
#     Edge 72, Type (0, 1), BuildingBlock: KIFKEQ_clean_linker_1, # of connection points: 2
#     Edge 73, Type (0, 1), BuildingBlock: KIFKEQ_clean_linker_1, # of connection points: 2
#     Edge 74, Type (0, 1), BuildingBlock: KIFKEQ_clean_linker_1, # of connection points: 2
#     Edge 75, Type (0, 1), BuildingBlock: KIFKEQ_clean_linker_1, # of connection points: 2
#     Edge 76, Type (0, 1), BuildingBlock: KIFKEQ_clean_linker_1, # of connection points: 2
#     Edge 77, Type (0, 1), BuildingBlock: KIFKEQ_clean_linker_1, # of connection points: 2
#     Edge 78, Type (0, 1), BuildingBlock: KIFKEQ_clean_linker_1, # of connection points: 2
#     Edge 79, Type (0, 1), BuildingBlock: KIFKEQ_clean_linker_1, # of connection points: 2
#     Edge 80, Type (0, 1), BuildingBlock: KIFKEQ_clean_linker_1, # of connection points: 2
#     Edge 81, Type (0, 1), BuildingBlock: KIFKEQ_clean_linker_1, # of connection points: 2
#     Edge 82, Type (0, 1), BuildingBlock: KIFKEQ_clean_linker_1, # of connection points: 2
#     Edge 83, Type (0, 1), BuildingBlock: KIFKEQ_clean_linker_1, # of connection points: 2
#     Edge 84, Type (0, 1), BuildingBlock: KIFKEQ_clean_linker_1, # of connection points: 2
#     Edge 85, Type (0, 1), BuildingBlock: KIFKEQ_clean_linker_1, # of connection points: 2
#     Edge 86, Type (0, 1), BuildingBlock: KIFKEQ_clean_linker_1, # of connection points: 2
#     Edge 87, Type (0, 1), BuildingBlock: KIFKEQ_clean_linker_1, # of connection points: 2
#     Edge 88, Type (0, 1), BuildingBlock: KIFKEQ_clean_linker_1, # of connection points: 2
#     Edge 89, Type (0, 1), BuildingBlock: KIFKEQ_clean_linker_1, # of connection points: 2
#     Edge 90, Type (0, 1), BuildingBlock: KIFKEQ_clean_linker_1, # of connection points: 2
#     Edge 91, Type (0, 1), BuildingBlock: KIFKEQ_clean_linker_1, # of connection points: 2
#     Edge 92, Type (0, 1), BuildingBlock: KIFKEQ_clean_linker_1, # of connection points: 2
#     Edge 93, Type (0, 1), BuildingBlock: KIFKEQ_clean_linker_1, # of connection points: 2
#     Edge 94, Type (0, 1), BuildingBlock: KIFKEQ_clean_linker_1, # of connection points: 2
#     Edge 95, Type (0, 1), BuildingBlock: KIFKEQ_clean_linker_1, # of connection points: 2
#     Edge 96, Type (0, 1), BuildingBlock: KIFKEQ_clean_linker_1, # of connection points: 2
#     Edge 97, Type (0, 1), BuildingBlock: KIFKEQ_clean_linker_1, # of connection points: 2
#     Edge 98, Type (0, 1), BuildingBlock: KIFKEQ_clean_linker_1, # of connection points: 2
#     Edge 99, Type (0, 1), BuildingBlock: KIFKEQ_clean_linker_1, # of connection points: 2
#     Edge 100, Type (0, 1), BuildingBlock: KIFKEQ_clean_linker_1, # of connection points: 2
#     Edge 101, Type (0, 1), BuildingBlock: KIFKEQ_clean_linker_1, # of connection points: 2
#     Edge 102, Type (0, 1), BuildingBlock: KIFKEQ_clean_linker_1, # of connection points: 2
#     Edge 103, Type (0, 1), BuildingBlock: KIFKEQ_clean_linker_1, # of connection points: 2
#     Edge 104, Type (0, 1), BuildingBlock: KIFKEQ_clean_linker_1, # of connection points: 2
#     Edge 105, Type (0, 1), BuildingBlock: KIFKEQ_clean_linker_1, # of connection points: 2
#     Edge 106, Type (0, 1), BuildingBlock: KIFKEQ_clean_linker_1, # of connection points: 2
#     Edge 107, Type (0, 1), BuildingBlock: KIFKEQ_clean_linker_1, # of connection points: 2
#     Edge 108, Type (0, 1), BuildingBlock: KIFKEQ_clean_linker_1, # of connection points: 2
#     Edge 109, Type (0, 1), BuildingBlock: KIFKEQ_clean_linker_1, # of connection points: 2
#     Edge 110, Type (0, 1), BuildingBlock: KIFKEQ_clean_linker_1, # of connection points: 2
#     Edge 111, Type (0, 1), BuildingBlock: KIFKEQ_clean_linker_1, # of connection points: 2
#     Edge 112, Type (0, 1), BuildingBlock: KIFKEQ_clean_linker_1, # of connection points: 2
#     Edge 113, Type (0, 1), BuildingBlock: KIFKEQ_clean_linker_1, # of connection points: 2
#     Edge 114, Type (0, 1), BuildingBlock: KIFKEQ_clean_linker_1, # of connection points: 2
#     Edge 115, Type (0, 1), BuildingBlock: KIFKEQ_clean_linker_1, # of connection points: 2
#     Edge 116, Type (0, 1), BuildingBlock: KIFKEQ_clean_linker_1, # of connection points: 2
#     Edge 117, Type (0, 1), BuildingBlock: KIFKEQ_clean_linker_1, # of connection points: 2
#     Edge 118, Type (0, 1), BuildingBlock: KIFKEQ_clean_linker_1, # of connection points: 2
#     Edge 119, Type (0, 1), BuildingBlock: KIFKEQ_clean_linker_1, # of connection points: 2
#     Edge 120, Type (0, 1), BuildingBlock: KIFKEQ_clean_linker_1, # of connection points: 2
#     Edge 121, Type (0, 1), BuildingBlock: KIFKEQ_clean_linker_1, # of connection points: 2
#     Edge 122, Type (0, 1), BuildingBlock: KIFKEQ_clean_linker_1, # of connection points: 2
#     Edge 123, Type (0, 1), BuildingBlock: KIFKEQ_clean_linker_1, # of connection points: 2
#     Edge 124, Type (0, 1), BuildingBlock: KIFKEQ_clean_linker_1, # of connection points: 2
#     Edge 125, Type (0, 1), BuildingBlock: KIFKEQ_clean_linker_1, # of connection points: 2
#     Edge 126, Type (0, 1), BuildingBlock: KIFKEQ_clean_linker_1, # of connection points: 2
#     Edge 127, Type (0, 1), BuildingBlock: KIFKEQ_clean_linker_1, # of connection points: 2
#     Edge 128, Type (0, 1), BuildingBlock: KIFKEQ_clean_linker_1, # of connection points: 2
#     Edge 129, Type (0, 1), BuildingBlock: KIFKEQ_clean_linker_1, # of connection points: 2
#     Edge 130, Type (0, 1), BuildingBlock: KIFKEQ_clean_linker_1, # of connection points: 2
#     Edge 131, Type (0, 1), BuildingBlock: KIFKEQ_clean_linker_1, # of connection points: 2
#     Edge 132, Type (0, 1), BuildingBlock: KIFKEQ_clean_linker_1, # of connection points: 2
#     Edge 133, Type (0, 1), BuildingBlock: KIFKEQ_clean_linker_1, # of connection points: 2
#     Edge 134, Type (0, 1), BuildingBlock: KIFKEQ_clean_linker_1, # of connection points: 2
#     Edge 135, Type (0, 1), BuildingBlock: KIFKEQ_clean_linker_1, # of connection points: 2
# Relax obj value: 0.121
# Max RMSD: 0.321
# Mean RMSD: 0.150
data_MOF--net-gar--node1-CEKHIL_clean_sbu_0--node2-KUMBUR_clean_sbu_0--edge1-KIFKEQ_clean_linker_1
_symmetry_space_group_name_H-M    P1
_symmetry_Int_Tables_number       1
_symmetry_cell_setting            triclinic
loop_
_symmetry_equiv_pos_as_xyz
'x, y, z'
_cell_length_a     62.558875
_cell_length_b     56.885635
_cell_length_c     56.207729
_cell_angle_alpha  100.24074
_cell_angle_beta   93.536691
_cell_angle_gamma 101.99172
loop_
_atom_site_label
_atom_site_type_symbol
_atom_site_fract_x
_atom_site_fract_y
_atom_site_fract_z
_atom_type_partial_charge
Co0 Co 0.12617 0.33537 0.3927 0.0
O1 O 0.15691 0.33503 0.39551 0.0
O2 O 0.13405 0.31966 0.36208 0.0
C3 C 0.13047 0.3748 0.41084 0.0
O4 O 0.09393 0.33363 0.38232 0.0
Co5 Co 0.10128 0.3469 0.4383 0.0
O6 O 0.07707 0.34788 0.41429 0.0
C7 C 0.11428 0.29958 0.42598 0.0
C8 C 0.15398 0.32454 0.37272 0.0
C9 C 0.07723 0.34015 0.3916 0.0
O10 O 0.11881 0.30332 0.40469 0.0
O11 O 0.10932 0.31559 0.44243 0.0
O12 O 0.13308 0.36934 0.38791 0.0
O13 O 0.12703 0.35675 0.42207 0.0
Co14 Co 1.00948 0.77481 0.67161 0.0
O15 O 0.9783 0.7724 0.66653 0.0
O16 O 0.9964 0.77301 0.7018 0.0
C17 C 0.01974 0.80521 0.65077 0.0
O18 O 0.04154 0.77749 0.68385 0.0
Co19 Co 0.03634 0.76397 0.62746 0.0
O20 O 0.0621 0.77541 0.65235 0.0
C21 C 1.0063 0.72382 0.64321 0.0
C22 C 0.97775 0.77171 0.68945 0.0
C23 C 0.06021 0.77829 0.67509 0.0
O24 O 1.00469 0.73794 0.66329 0.0
O25 O 0.01589 0.7314 0.62565 0.0
O26 O 0.01524 0.8105 0.67311 0.0
O27 O 0.01597 0.78221 0.64148 0.0
Co28 Co 0.623 0.83872 0.89224 0.0
O29 O 0.65327 0.8363 0.89543 0.0
O30 O 0.62883 0.81572 0.86481 0.0
C31 C 0.63076 0.87999 0.90098 0.0
O32 O 0.59071 0.83761 0.88178 0.0
Co33 Co 0.60138 0.8643 0.93492 0.0
O34 O 0.57852 0.86446 0.909 0.0
C35 C 0.60961 0.81461 0.93473 0.0
C36 C 0.64913 0.82152 0.87448 0.0
C37 C 0.57627 0.85005 0.88843 0.0
O38 O 0.61467 0.81244 0.91257 0.0
O39 O 0.60572 0.83437 0.9467 0.0
O40 O 0.6314 0.86866 0.87893 0.0
O41 O 0.62664 0.86633 0.91682 0.0
Co42 Co 0.50927 0.27169 0.16845 0.0
O43 O 0.47808 0.26905 0.16418 0.0
O44 O 0.49651 0.26649 0.19818 0.0
C45 C 0.51831 0.30482 0.15095 0.0
O46 O 0.54139 0.27392 0.17971 0.0
Co47 Co 0.53628 0.26684 0.12374 0.0
O48 O 0.56214 0.27614 0.14854 0.0
C49 C 0.50696 0.22333 0.13529 0.0
C50 C 0.47776 0.26611 0.18653 0.0
C51 C 0.56014 0.27628 0.17101 0.0
O52 O 0.50492 0.23526 0.15641 0.0
O53 O 0.5165 0.23335 0.11893 0.0
O54 O 0.51464 0.30767 0.17369 0.0
O55 O 0.51501 0.28248 0.13953 0.0
Co56 Co 0.09899 0.82372 0.12605 0.0
O57 O 0.06674 0.81935 0.12217 0.0
O58 O 0.08566 0.8159 0.15493 0.0
C59 C 0.10424 0.86061 0.11 0.0
O60 O 0.13131 0.82703 0.14154 0.0
Co61 Co 0.12929 0.82335 0.09037 0.0
O62 O 0.15545 0.82848 0.11438 0.0
C63 C 0.10402 0.77488 0.09415 0.0
C64 C 0.0666 0.81528 0.1442 0.0
C65 C 0.15131 0.82814 0.13614 0.0
O66 O 0.09614 0.78652 0.11235 0.0
O67 O 0.1171 0.78672 0.08158 0.0
O68 O 0.10196 0.85989 0.13269 0.0
O69 O 0.10434 0.83916 0.09706 0.0
Co70 Co 0.53484 0.77941 0.42774 0.0
O71 O 0.56703 0.78544 0.43131 0.0
O72 O 0.54624 0.767 0.39757 0.0
C73 C 0.53346 0.81944 0.44538 0.0
O74 O 0.50165 0.77225 0.41371 0.0
Co75 Co 0.50676 0.77993 0.46705 0.0
O76 O 0.48328 0.78519 0.44415 0.0
C77 C 0.52759 0.73785 0.45893 0.0
C78 C 0.56595 0.77559 0.40845 0.0
C79 C 0.48428 0.77899 0.42143 0.0
O80 O 0.53344 0.74582 0.43939 0.0
O81 O 0.51715 0.74994 0.47371 0.0
O82 O 0.53669 0.81294 0.42285 0.0
O83 O 0.53231 0.80189 0.45773 0.0
Co84 Co 0.59858 0.3225 0.62535 0.0
O85 O 0.56632 0.31807 0.62135 0.0
O86 O 0.58521 0.31469 0.65417 0.0
C87 C 0.60379 0.35945 0.60951 0.0
O88 O 0.63085 0.32586 0.64105 0.0
Co89 Co 0.62904 0.3222 0.58994 0.0
O90 O 0.6551 0.32721 0.61402 0.0
C91 C 0.60356 0.27377 0.59334 0.0
C92 C 0.56617 0.31415 0.64344 0.0
C93 C 0.65087 0.32691 0.63576 0.0
O94 O 0.59577 0.28538 0.61162 0.0
O95 O 0.61668 0.28562 0.58082 0.0
O96 O 0.60134 0.35853 0.63213 0.0
O97 O 0.60411 0.33812 0.59645 0.0
Co98 Co 0.03488 0.28042 0.92798 0.0
O99 O 0.06705 0.28652 0.93144 0.0
O100 O 0.04617 0.26775 0.89785 0.0
C101 C 0.03358 0.32062 0.94526 0.0
O102 O 1.00166 0.27311 0.91402 0.0
Co103 Co 1.00701 0.28117 0.96722 0.0
O104 O 0.98348 0.2865 0.94442 0.0
C105 C 0.02775 0.23904 0.95947 0.0
C106 C 0.06591 0.27648 0.90863 0.0
C107 C 0.98437 0.28006 0.92171 0.0
O108 O 0.03361 0.24696 0.93991 0.0
O109 O 0.01728 0.25117 0.97416 0.0
O110 O 0.03664 0.31381 0.92273 0.0
O111 O 0.03249 0.30327 0.95787 0.0
Co112 Co 0.43431 0.05564 0.30376 0.0
O113 O 0.43515 0.08896 0.29974 0.0
O114 O 0.406 0.05811 0.29058 0.0
C115 C 0.45286 0.06574 0.34124 0.0
O116 O 0.42562 0.01949 0.30554 0.0
Co117 Co 0.47481 0.03352 0.31213 0.0
O118 O 0.45378 1.0033 0.3157 0.0
C119 C 0.46338 0.0461 0.26465 0.0
C120 C 0.41456 0.08108 0.29129 0.0
C121 C 0.43332 1.00146 0.31055 0.0
O122 O 0.44399 0.04767 0.27023 0.0
O123 O 0.47833 0.04323 0.2798 0.0
O124 O 0.43186 0.06492 0.33878 0.0
O125 O 0.46175 0.06141 0.32138 0.0
Co126 Co 0.30323 0.18593 0.50806 0.0
O127 O 0.3352 0.19022 0.5127 0.0
O128 O 0.31136 0.15743 0.51737 0.0
C129 C 0.3023 0.19983 0.47193 0.0
O130 O 0.26973 0.17251 0.50417 0.0
Co131 Co 0.2791 0.22738 0.50679 0.0
O132 O 0.25142 0.20157 0.49966 0.0
C133 C 0.29883 0.22229 0.55399 0.0
C134 C 0.33179 0.16835 0.51768 0.0
C135 C 0.25159 0.17945 0.50084 0.0
O136 O 0.30245 0.20143 0.54373 0.0
O137 O 0.29166 0.23663 0.54192 0.0
O138 O 0.30393 0.17752 0.47259 0.0
O139 O 0.30257 0.21345 0.49305 0.0
Co140 Co 0.18972 0.01275 0.77908 0.0
O141 O 0.18757 0.97512 0.77567 0.0
O142 O 0.21725 0.99894 0.77169 0.0
C143 C 0.1722 0.01852 0.81803 0.0
O144 O 0.20449 0.05133 0.78241 0.0
Co145 Co 0.15582 0.0433 0.78204 0.0
O146 O 0.17932 0.07387 0.78794 0.0
C147 C 0.15983 0.01936 0.73169 0.0
C148 C 0.2083 0.97646 0.77267 0.0
C149 C 0.19925 0.07281 0.78581 0.0
O150 O 0.17652 1.01107 0.74098 0.0
O151 O 0.14883 0.03108 0.74603 0.0
O152 O 0.19238 0.01621 0.81653 0.0
O153 O 0.16292 0.01659 0.79631 0.0
Co154 Co 0.32625 0.94441 0.019 0.0
O155 O 0.29609 0.94649 0.02105 0.0
O156 O 0.3248 0.97723 0.03426 0.0
C157 C 0.32143 0.92408 0.98024 0.0
O158 O 0.35943 0.94995 0.01911 0.0
Co159 Co 0.34072 0.89475 0.00793 0.0
O160 O 0.36879 0.91538 1.00147 0.0
C161 C 0.32732 0.91259 0.05633 0.0
C162 C 0.30356 0.96942 0.03099 0.0
C163 C 0.37355 0.93835 0.01002 0.0
O164 O 0.32764 0.93391 0.05141 0.0
O165 O 0.32987 0.89425 0.04075 0.0
O166 O 0.3241 0.94779 0.98489 0.0
O167 O 0.32034 0.91356 0.99871 0.0
Co168 Co 0.32519 0.39975 0.03402 0.0
O169 O 0.2933 0.39482 0.03036 0.0
O170 O 0.31572 0.42945 0.04816 0.0
C171 C 0.32746 0.38264 0.99437 0.0
O172 O 0.35885 0.41353 0.03948 0.0
Co173 Co 0.34987 0.35817 0.02556 0.0
O174 O 0.37476 0.38438 0.02098 0.0
C175 C 0.33042 0.36798 0.07233 0.0
C176 C 0.29567 0.41774 0.04031 0.0
C177 C 0.37563 0.40663 0.03056 0.0
O178 O 0.3247 0.38704 0.06636 0.0
O179 O 0.33941 0.35381 0.05783 0.0
O180 O 0.32593 0.40527 1.00052 0.0
O181 O 0.32636 0.37058 0.01185 0.0
Co182 Co 0.80132 0.14396 0.01385 0.0
O183 O 0.83228 0.14437 0.01687 0.0
O184 O 0.80634 0.11501 0.02516 0.0
C185 C 0.8009 0.1539 0.97662 0.0
O186 O 0.76778 0.13659 0.01229 0.0
Co187 Co 0.78389 0.19012 1.0067 0.0
O188 O 0.75478 0.16713 1.00047 0.0
C189 C 0.79971 0.18483 0.05613 0.0
C190 C 0.82706 0.12328 0.0233 0.0
C191 C 0.75174 0.14607 1.00617 0.0
O192 O 0.80348 0.16347 0.04823 0.0
O193 O 0.79345 0.19826 0.0423 0.0
O194 O 0.79932 0.13123 0.97866 0.0
O195 O 0.80382 0.16959 0.9967 0.0
Co196 Co 0.2053 0.53876 0.25311 0.0
O197 O 0.20351 0.50458 0.25262 0.0
O198 O 0.23239 0.53008 0.24371 0.0
C199 C 0.19206 0.5459 0.28916 0.0
O200 O 0.21355 0.57544 0.25304 0.0
Co201 Co 0.16356 0.56065 0.25553 0.0
O202 O 0.18501 0.59263 0.26211 0.0
C203 C 0.17032 0.52707 0.21165 0.0
C204 C 0.22356 0.5082 0.24697 0.0
C205 C 0.20514 0.59434 0.25847 0.0
O206 O 0.191 0.53068 0.21851 0.0
O207 O 0.15657 0.5349 0.22518 0.0
O208 O 0.21285 0.54626 0.2885 0.0
O209 O 0.18021 0.54011 0.26861 0.0
Co210 Co 0.82411 0.90215 0.53533 0.0
O211 O 0.79228 0.89822 0.53147 0.0
O212 O 0.81545 0.93221 0.54964 0.0
C213 C 0.82669 0.88518 0.49563 0.0
O214 O 0.85784 0.91498 0.54107 0.0
Co215 Co 0.84686 0.85899 0.52802 0.0
O216 O 0.8739 0.88417 0.52725 0.0
C217 C 0.82537 0.86889 0.57294 0.0
C218 C 0.79526 0.92114 0.54174 0.0
C219 C 0.87503 0.90685 0.53523 0.0
O220 O 0.8228 0.88947 0.56759 0.0
O221 O 0.8329 0.85331 0.55839 0.0
O222 O 0.82525 0.90783 0.502 0.0
O223 O 0.82496 0.87289 0.51298 0.0
Co224 Co 0.94355 0.08037 0.28301 0.0
O225 O 0.94603 0.11816 0.2887 0.0
O226 O 0.91633 0.09334 0.27345 0.0
C227 C 0.96194 0.07707 0.32244 0.0
O228 O 0.92862 0.0416 0.27668 0.0
Co229 Co 0.97812 0.04962 0.28096 0.0
O230 O 0.95444 0.0213 0.28459 0.0
C231 C 0.97263 0.07094 0.2372 0.0
C232 C 0.92558 0.11638 0.2807 0.0
C233 C 0.93421 0.02131 0.28016 0.0
O234 O 0.9556 0.07851 0.24678 0.0
O235 O 0.98451 0.06049 0.24936 0.0
O236 O 0.94218 0.08104 0.3198 0.0
O237 O 0.97049 0.07722 0.30205 0.0
Co238 Co 0.30054 0.64374 0.51072 0.0
O239 O 0.33128 0.64311 0.51165 0.0
O240 O 0.3054 0.6138 0.52013 0.0
C241 C 0.29848 0.65532 0.47425 0.0
O242 O 0.26717 0.63764 0.51123 0.0
Co243 Co 0.28464 0.69186 0.50779 0.0
O244 O 0.25493 0.67015 0.5031 0.0
C245 C 0.30149 0.68305 0.55538 0.0
C246 C 0.32602 0.62176 0.51753 0.0
C247 C 0.25148 0.64852 0.50749 0.0
O248 O 0.30445 0.66174 0.5458 0.0
O249 O 0.29535 0.69778 0.54302 0.0
O250 O 0.29675 0.63237 0.47524 0.0
O251 O 0.30283 0.67033 0.49482 0.0
Co252 Co 0.4437 0.58018 0.78191 0.0
O253 O 0.4466 0.618 0.78766 0.0
O254 O 0.41665 0.59351 0.7726 0.0
C255 C 0.4621 0.57673 0.82122 0.0
O256 O 0.42843 0.54149 0.77555 0.0
Co257 Co 0.47786 0.54891 0.77972 0.0
O258 O 0.45397 0.52078 0.7833 0.0
C259 C 0.47263 0.57053 0.73609 0.0
C260 C 0.42615 0.61649 0.77983 0.0
C261 C 0.4338 0.52106 0.77893 0.0
O262 O 0.45567 0.57824 0.74567 0.0
O263 O 0.48438 0.5599 0.74821 0.0
O264 O 0.4424 0.58088 0.81869 0.0
O265 O 0.47058 0.57674 0.80079 0.0
Co266 Co 0.69714 0.03975 0.76549 0.0
O267 O 0.69356 1.00477 0.76016 0.0
O268 O 0.72226 0.03049 0.75121 0.0
C269 C 0.68723 0.04278 0.80354 0.0
O270 O 0.70746 0.07687 0.76942 0.0
Co271 Co 0.65897 0.06568 0.77787 0.0
O272 O 0.68199 0.09637 0.78444 0.0
C273 C 0.65998 0.03773 0.72822 0.0
C274 C 0.71293 1.00815 0.75255 0.0
C275 C 0.70114 0.09662 0.77783 0.0
O276 O 0.68025 0.03686 0.73281 0.0
O277 O 0.64853 0.04611 0.74445 0.0
O278 O 0.70742 0.04218 0.79983 0.0
O279 O 0.674 0.04082 0.7845 0.0
Co280 Co 0.80441 0.68765 0.00896 0.0
O281 O 0.83636 0.69168 0.01332 0.0
O282 O 0.81239 0.65892 0.01784 0.0
C283 C 0.8032 0.70171 0.97296 0.0
O284 O 0.77091 0.67451 1.00521 0.0
Co285 Co 0.78083 0.72972 0.00857 0.0
O286 O 0.7529 0.70434 1.0029 0.0
C287 C 0.80065 0.72387 0.05534 0.0
C288 C 0.83285 0.66969 0.018 0.0
C289 C 0.75291 0.68198 1.0031 0.0
O290 O 0.8039 0.70294 0.04478 0.0
O291 O 0.79373 0.73857 0.04354 0.0
O292 O 0.80482 0.67938 0.97346 0.0
O293 O 0.8038 0.71532 0.99417 0.0
Co294 Co 0.92961 0.55556 0.81197 0.0
O295 O 0.93101 0.58946 0.80968 0.0
O296 O 0.90252 0.55853 0.79615 0.0
C297 C 0.94429 0.56317 0.85093 0.0
O298 O 0.92069 0.5189 0.81082 0.0
Co299 Co 0.96951 0.5334 0.82371 0.0
O300 O 0.94764 0.50294 0.82504 0.0
C301 C 0.96167 0.5467 0.77559 0.0
C302 C 0.91112 0.58177 0.79886 0.0
C303 C 0.9278 0.50094 0.8168 0.0
O304 O 0.94233 0.54965 0.77994 0.0
O305 O 0.97533 0.54262 0.79148 0.0
O306 O 0.92351 0.56238 0.84613 0.0
O307 O 0.95543 0.5605 0.83256 0.0
Co308 Co 0.82859 0.44633 0.52434 0.0
O309 O 0.79819 0.44644 0.52832 0.0
O310 O 0.82568 0.47914 0.53734 0.0
C311 C 0.8227 0.42271 0.48672 0.0
O312 O 0.86153 0.45419 0.52193 0.0
Co313 Co 0.84661 0.39871 0.51654 0.0
O314 O 0.87316 0.42004 0.50776 0.0
C315 C 0.83507 0.41945 0.56491 0.0
C316 C 0.80473 0.46994 0.53621 0.0
C317 C 0.87644 0.44328 0.5138 0.0
O318 O 0.83325 0.43945 0.55811 0.0
O319 O 0.83818 0.40057 0.55058 0.0
O320 O 0.82326 0.44604 0.4895 0.0
O321 O 0.82396 0.41438 0.50649 0.0
Co322 Co 0.68901 0.51232 0.27801 0.0
O323 O 0.68647 0.47482 0.27543 0.0
O324 O 0.71604 0.49776 0.26966 0.0
C325 C 0.67183 0.51847 0.31709 0.0
O326 O 0.70415 0.55079 0.28104 0.0
Co327 Co 0.65552 0.54336 0.28112 0.0
O328 O 0.67928 0.57368 0.28706 0.0
C329 C 0.65917 0.51928 0.23072 0.0
C330 C 0.70694 0.47556 0.27156 0.0
C331 C 0.69913 0.5724 0.28467 0.0
O332 O 0.67561 0.51059 0.23997 0.0
O333 O 0.64841 0.53131 0.24509 0.0
O334 O 0.69197 0.516 0.31548 0.0
O335 O 0.66246 0.51662 0.29544 0.0
Tb336 Tb 0.04382 0.02923 0.01058 0.0
C337 C 0.10186 0.1167 0.07696 0.0
C338 C 0.10561 0.14763 0.05221 0.0
C339 C 0.10806 0.15971 0.09614 0.0
C340 C 0.10163 0.12281 0.05442 0.0
C341 C 0.1058 0.13508 0.09818 0.0
C342 C 0.10797 0.16599 0.07313 0.0
C343 C 0.10819 0.10384 0.12154 0.0
N344 N 0.10024 0.09281 0.07804 0.0
C345 C 0.10442 0.08634 0.09995 0.0
C346 C 0.10846 0.12827 0.1207 0.0
Tb347 Tb 0.09282 0.06501 0.04175 0.0
N348 N 0.0998 0.10453 0.03483 0.0
C349 C 0.10437 0.11023 0.01273 0.0
C350 C 0.10833 0.1533 0.02923 0.0
C351 C 0.10824 0.13454 0.00951 0.0
H352 H 0.10419 0.06753 0.10097 0.0
H353 H 0.11102 0.13874 0.99176 0.0
H354 H 0.1107 0.18513 0.07178 0.0
H355 H 0.11086 0.09845 0.13881 0.0
H356 H 0.10428 0.0961 0.99714 0.0
H357 H 0.02346 0.95816 0.06374 0.0
H358 H 0.1114 0.17212 0.02672 0.0
H359 H 0.03303 0.02386 0.95085 0.0
H360 H 0.03024 0.99992 0.0565 0.0
H361 H 0.02666 0.99148 0.91411 0.0
H362 H 0.11081 0.17409 0.11221 0.0
H363 H 0.02413 0.9236 0.03044 0.0
H364 H 0.02576 0.90869 0.98586 0.0
H365 H 0.11154 0.14182 0.13743 0.0
H366 H 0.02626 0.91779 0.94464 0.0
N367 N 0.03588 0.99021 0.0192 0.0
C368 C 0.03066 0.98548 0.04147 0.0
C369 C 0.02724 0.94211 0.02705 0.0
C370 C 0.03046 0.94671 1.00379 0.0
C371 C 0.02674 0.96155 0.04582 0.0
C372 C 0.03446 0.97119 1.00043 0.0
H373 H 0.0258 0.94857 0.91764 0.0
N374 N 0.03604 0.99975 0.97534 0.0
C375 C 0.02893 0.98689 0.93183 0.0
C376 C 0.03453 0.97619 0.9775 0.0
C377 C 0.03241 1.00519 0.9528 0.0
C378 C 0.0286 0.96274 0.93388 0.0
C379 C 0.03093 0.95703 0.95695 0.0
O380 O 0.01541 0.03358 0.99095 0.0
O381 O 0.0622 0.06724 0.02249 0.0
O382 O 0.06793 0.07149 0.06849 0.0
O383 O 0.03864 0.03979 0.05068 0.0
O384 O 0.04748 0.05714 0.98789 0.0
O385 O 0.01553 0.0313 0.02847 0.0
O386 O 0.11929 0.05409 0.05841 0.0
O387 O 0.07464 0.02665 0.02926 0.0
O388 O 0.06884 0.02474 0.98314 0.0
O389 O 0.09902 0.05464 1.002 0.0
O390 O 0.08868 0.03702 0.06426 0.0
O391 O 0.12377 0.0728 0.02856 0.0
C392 C 0.05853 0.07574 1.00324 0.0
C393 C 0.98102 0.02042 1.00549 0.0
C394 C 0.94227 0.02185 1.00682 0.0
C395 C 0.9646 0.03382 0.00912 0.0
C396 C 0.93667 0.99609 1.00076 0.0
C397 C 0.97516 0.9948 0.99937 0.0
C398 C 0.95302 0.98272 0.99698 0.0
C399 C 0.04814 0.05743 0.06983 0.0
C400 C 1.00408 0.03383 0.00948 0.0
C401 C 0.02873 0.93275 0.96016 0.0
C402 C 0.02849 0.92758 0.98361 0.0
C403 C 0.07792 0.01832 0.04879 0.0
C404 C 0.1551 0.07616 0.0557 0.0
C405 C 0.17247 0.06432 0.05206 0.0
C406 C 0.194 0.0759 0.06223 0.0
C407 C 0.1978 0.09961 0.07653 0.0
C408 C 0.15912 0.09986 0.0698 0.0
C409 C 0.18043 0.11147 0.08024 0.0
C410 C 0.08912 0.03804 0.9823 0.0
C411 C 0.13313 0.06305 0.04434 0.0
H412 H 0.96931 0.05363 0.01426 0.0
H413 H 0.91964 0.98631 0.99865 0.0
H414 H 0.98765 0.98421 0.99665 0.0
H415 H 0.94851 0.96292 0.99226 0.0
H416 H 0.16909 0.04583 0.04142 0.0
H417 H 0.2142 0.1091 0.08454 0.0
H418 H 0.14591 0.10933 0.07269 0.0
H419 H 0.18352 0.12977 0.09114 0.0
Tb420 Tb 0.32672 0.78738 0.2541 0.0
C421 C 0.31724 0.87032 0.32142 0.0
C422 C 0.34247 0.8811 0.35792 0.0
C423 C 0.33513 0.91308 0.33738 0.0
C424 C 0.32834 0.86334 0.33974 0.0
C425 C 0.31998 0.89542 0.32039 0.0
C426 C 0.34638 0.90591 0.35616 0.0
C427 C 0.29122 0.88403 0.28744 0.0
N428 N 0.303 0.85256 0.30524 0.0
C429 C 0.28911 0.85946 0.28924 0.0
C430 C 0.30707 0.90207 0.30271 0.0
Tb431 Tb 0.30336 0.81201 0.30752 0.0
N432 N 0.32402 0.83925 0.34072 0.0
C433 C 0.33115 0.83224 0.36144 0.0
C434 C 0.35154 0.87349 0.37777 0.0
C435 C 0.34541 0.849 0.37983 0.0
H436 H 0.27589 0.84668 0.27782 0.0
H437 H 0.3516 0.843 0.39559 0.0
H438 H 0.35749 0.91976 0.36967 0.0
H439 H 0.28042 0.88902 0.27435 0.0
H440 H 0.32639 0.81337 0.36352 0.0
H441 H 0.27107 0.7482 0.17175 0.0
H442 H 0.3625 0.88651 0.39208 0.0
H443 H 0.36135 0.75695 0.28005 0.0
H444 H 0.29852 0.78025 0.19916 0.0
H445 H 0.36037 0.7158 0.28612 0.0
H446 H 0.33777 0.93234 0.33656 0.0
H447 H 0.26301 0.70584 0.17918 0.0
H448 H 0.27312 0.6754 0.2026 0.0
H449 H 0.30867 0.92109 0.30128 0.0
H450 H 0.29804 0.66647 0.23368 0.0
N451 N 0.30394 0.7575 0.22434 0.0
C452 C 0.29442 0.76223 0.20353 0.0
C453 C 0.27465 0.72009 0.19174 0.0
C454 C 0.28653 0.71462 0.2111 0.0
C455 C 0.27913 0.74394 0.18753 0.0
C456 C 0.30145 0.73393 0.22699 0.0
H457 H 0.3308 0.68135 0.26468 0.0
N458 N 0.33035 0.7481 0.25795 0.0
C459 C 0.34724 0.71925 0.2747 0.0
C460 C 0.31538 0.72898 0.24426 0.0
C461 C 0.3472 0.74313 0.27171 0.0
C462 C 0.33065 0.69986 0.26247 0.0
C463 C 0.31484 0.70447 0.2464 0.0
O464 O 0.36091 0.79423 0.25207 0.0
O465 O 0.32732 0.81868 0.2823 0.0
O466 O 0.2792 0.80757 0.27495 0.0
O467 O 0.297 0.79856 0.24035 0.0
O468 O 0.3281 0.82441 0.24744 0.0
O469 O 0.33867 0.78855 0.22007 0.0
O470 O 0.269 0.80724 0.30726 0.0
O471 O 0.30294 0.78038 0.27957 0.0
O472 O 0.3514 0.79308 0.28629 0.0
O473 O 0.33419 0.80282 0.32116 0.0
O474 O 0.30346 0.7757 0.31494 0.0
O475 O 0.28873 0.80665 0.33944 0.0
C476 C 0.32961 0.8352 0.26983 0.0
C477 C 0.37045 0.82059 0.22444 0.0
C478 C 0.37064 0.85469 0.20327 0.0
C479 C 0.36128 0.83088 0.20639 0.0
C480 C 0.38954 0.8682 0.21834 0.0
C481 C 0.38958 0.83429 0.23903 0.0
C482 C 0.39899 0.85795 0.23599 0.0
C483 C 0.27985 0.80432 0.2509 0.0
C484 C 0.35889 0.79678 0.22958 0.0
C485 C 0.29897 0.68531 0.23193 0.0
C486 C 0.28476 0.6904 0.2143 0.0
C487 C 0.30188 0.76444 0.29273 0.0
C488 C 0.25499 0.7772 0.32993 0.0
C489 C 0.26206 0.76222 0.34484 0.0
C490 C 0.24974 0.73839 0.34449 0.0
C491 C 0.22993 0.72984 0.32923 0.0
C492 C 0.23498 0.7683 0.31515 0.0
C493 C 0.22259 0.74478 0.31483 0.0
C494 C 0.35116 0.79689 0.31036 0.0
C495 C 0.26897 0.80135 0.32856 0.0
H496 H 0.34637 0.82067 0.19521 0.0
H497 H 0.39721 0.88651 0.21621 0.0
H498 H 0.39699 0.82693 0.25315 0.0
H499 H 0.4136 0.86844 0.24746 0.0
H500 H 0.27722 0.76911 0.35673 0.0
H501 H 0.2202 0.71151 0.32822 0.0
H502 H 0.22909 0.77939 0.30352 0.0
H503 H 0.20732 0.738 0.30316 0.0
Tb504 Tb 0.58959 0.04981 0.51609 0.0
C505 C 0.51793 1.00247 0.57361 0.0
C506 C 0.49834 0.96534 0.5465 0.0
C507 C 0.50045 0.96746 0.59017 0.0
C508 C 0.51116 0.98947 0.5504 0.0
C509 C 0.51242 0.99183 0.59386 0.0
C510 C 0.49341 0.95422 0.5665 0.0
C511 C 0.5297 0.03062 0.61972 0.0
N512 N 0.52928 0.02599 0.5763 0.0
C513 C 0.53468 0.04037 0.59904 0.0
C514 C 0.51869 1.00617 0.61714 0.0
Tb515 Tb 0.53761 0.0401 0.54135 0.0
N516 N 0.51602 1.00106 0.53169 0.0
C517 C 0.50699 0.99002 0.50859 0.0
C518 C 0.49028 0.95345 0.52271 0.0
C519 C 0.49435 0.966 0.50371 0.0
H520 H 0.54333 0.05925 0.60147 0.0
H521 H 0.4878 0.95719 0.48526 0.0
H522 H 0.48374 0.93563 0.56389 0.0
H523 H 0.53439 0.04198 0.63764 0.0
H524 H 0.50994 0.99926 0.49357 0.0
H525 H 0.6387 0.1318 0.5744 0.0
H526 H 0.48041 0.93489 0.51891 0.0
H527 H 0.58447 0.0321 0.45595 0.0
H528 H 0.61638 0.08982 0.565 0.0
H529 H 0.59386 0.0504 0.4204 0.0
H530 H 0.49616 0.95887 0.60548 0.0
H531 H 0.64699 0.15487 0.54148 0.0
H532 H 0.64434 0.15523 0.4967 0.0
H533 H 0.51479 0.99869 0.63318 0.0
H534 H 0.63224 0.13299 0.45469 0.0
N535 N 0.61121 0.08876 0.52688 0.0
C536 C 0.61975 0.09938 0.55026 0.0
C537 C 0.6371 0.13633 0.53717 0.0
C538 C 0.62939 0.12494 0.51314 0.0
C539 C 0.6325 0.12334 0.55577 0.0
C540 C 0.6165 0.10081 0.50858 0.0
H541 H 0.61361 0.09377 0.42603 0.0
N542 N 0.59833 0.06489 0.48179 0.0
C543 C 0.59839 0.06134 0.43853 0.0
C544 C 0.60982 0.0884 0.48514 0.0
C545 C 0.59316 0.051 0.45881 0.0
C546 C 0.6095 0.08584 0.44177 0.0
C547 C 0.61562 0.09962 0.46531 0.0
O548 O 0.60738 0.02441 0.50015 0.0
O549 O 0.56163 0.02266 0.52306 0.0
O550 O 0.56029 0.02589 0.5632 0.0
O551 O 0.59277 0.05006 0.55528 0.0
O552 O 0.57472 0.01499 0.49119 0.0
O553 O 0.61919 0.04745 0.53484 0.0
O554 O 0.51943 0.06516 0.55728 0.0
O555 O 0.5655 0.06722 0.53414 0.0
O556 O 0.56642 0.06317 0.49364 0.0
O557 O 0.53424 0.03882 0.50212 0.0
O558 O 0.55267 0.07508 0.56595 0.0
O559 O 0.50835 0.04262 0.52219 0.0
C560 C 0.55991 1.00615 0.50399 0.0
C561 C 0.64586 0.03303 0.51136 0.0
C562 C 0.68153 0.02083 0.51281 0.0
C563 C 0.65974 0.01857 0.51942 0.0
C564 C 0.68875 0.03756 0.4977 0.0
C565 C 0.65383 0.04966 0.49665 0.0
C566 C 0.67509 0.05182 0.48984 0.0
C567 C 0.58162 0.0354 0.56825 0.0
C568 C 0.623 0.03041 0.51798 0.0
C569 C 0.62774 0.12397 0.46966 0.0
C570 C 0.63461 0.13663 0.49357 0.0
C571 C 0.56733 0.08394 0.55303 0.0
C572 C 0.48108 0.05595 0.54522 0.0
C573 C 0.46843 0.07329 0.54164 0.0
C574 C 0.4464 0.07009 0.54754 0.0
C575 C 0.4374 0.04899 0.55659 0.0
C576 C 0.47156 0.03538 0.55448 0.0
C577 C 0.44986 0.03193 0.56004 0.0
C578 C 0.54508 0.0533 0.48881 0.0
C579 C 0.5041 0.05928 0.53916 0.0
H580 H 0.65365 1.00586 0.53098 0.0
H581 H 0.70498 0.03949 0.49157 0.0
H582 H 0.64355 0.06084 0.49026 0.0
H583 H 0.68102 0.06455 0.47826 0.0
H584 H 0.47581 0.0893 0.53463 0.0
H585 H 0.42051 0.04542 0.56078 0.0
H586 H 0.48088 0.02191 0.55732 0.0
H587 H 0.44261 0.01587 0.56702 0.0
Tb588 Tb 0.29007 0.30346 0.7725 0.0
C589 C 0.35974 0.26031 0.8196 0.0
C590 C 0.37487 0.29077 0.85556 0.0
C591 C 0.37426 0.2479 0.85536 0.0
C592 C 0.36434 0.28423 0.83163 0.0
C593 C 0.36535 0.2419 0.83093 0.0
C594 C 0.37902 0.27236 0.86769 0.0
C595 C 0.35611 0.21405 0.79219 0.0
N596 N 0.35179 0.25556 0.7959 0.0
C597 C 0.35094 0.23302 0.78179 0.0
C598 C 0.36293 0.21837 0.817 0.0
Tb599 Tb 0.34254 0.28733 0.78036 0.0
N600 N 0.36056 0.30136 0.81895 0.0
C601 C 0.36925 0.32565 0.82841 0.0
C602 C 0.38197 0.31562 0.86602 0.0
C603 C 0.3796 0.33313 0.85216 0.0
H604 H 0.34556 0.22936 0.76261 0.0
H605 H 0.38568 0.35242 0.85976 0.0
H606 H 0.38679 0.27697 0.88619 0.0
H607 H 0.35479 0.19611 0.78106 0.0
H608 H 0.36764 0.33963 0.81823 0.0
H609 H 0.24861 0.23706 0.69312 0.0
H610 H 0.3901 0.32144 0.88435 0.0
H611 H 0.28622 0.36115 0.78952 0.0
H612 H 0.26658 0.25055 0.73461 0.0
H613 H 0.27607 0.39378 0.77074 0.0
H614 H 0.37842 0.23398 0.86453 0.0
H615 H 0.24291 0.2675 0.66837 0.0
H616 H 0.24486 0.31169 0.66625 0.0
H617 H 0.36708 0.2037 0.82499 0.0
H618 H 0.25232 0.35476 0.68759 0.0
N619 N 0.2723 0.28878 0.73381 0.0
C620 C 0.26438 0.26433 0.72441 0.0
C621 C 0.25098 0.27365 0.68671 0.0
C622 C 0.25738 0.29858 0.69705 0.0
C623 C 0.25409 0.25644 0.70066 0.0
C624 C 0.26789 0.30555 0.72099 0.0
H625 H 0.2634 0.38549 0.72686 0.0
N626 N 0.28007 0.3346 0.75649 0.0
C627 C 0.27497 0.3758 0.75978 0.0
C628 C 0.272 0.32949 0.73282 0.0
C629 C 0.28065 0.35717 0.77037 0.0
C630 C 0.26795 0.3711 0.735 0.0
C631 C 0.26587 0.34753 0.7213 0.0
O632 O 0.26997 0.31668 0.79843 0.0
O633 O 0.31607 0.29978 0.7983 0.0
O634 O 0.31794 0.25602 0.78968 0.0
O635 O 0.28513 0.26332 0.77376 0.0
O636 O 0.30244 0.32986 0.80572 0.0
O637 O 0.26021 0.28045 0.77755 0.0
O638 O 0.36178 0.27426 0.75338 0.0
O639 O 0.31675 0.29149 0.75444 0.0
O640 O 0.3148 0.33554 0.7646 0.0
O641 O 0.34768 0.32757 0.77962 0.0
O642 O 0.32954 0.26083 0.74739 0.0
O643 O 0.37328 0.3093 0.77622 0.0
C644 C 0.3166 0.31915 0.81389 0.0
C645 C 0.23158 0.29937 0.79126 0.0
C646 C 0.19487 0.29575 0.80591 0.0
C647 C 0.21722 0.29442 0.8093 0.0
C648 C 0.18735 0.30242 0.78454 0.0
C649 C 0.22346 0.30612 0.77027 0.0
C650 C 0.20155 0.3077 0.76702 0.0
C651 C 0.29632 0.24859 0.78267 0.0
C652 C 0.25471 0.29672 0.7939 0.0
C653 C 0.25688 0.34113 0.69689 0.0
C654 C 0.25264 0.31662 0.68475 0.0
C655 C 0.31591 0.27199 0.73888 0.0
C656 C 0.40047 0.28881 0.76087 0.0
C657 C 0.41539 0.2944 0.74348 0.0
C658 C 0.43713 0.29073 0.74622 0.0
C659 C 0.44325 0.28086 0.76619 0.0
C660 C 0.40736 0.27918 0.78053 0.0
C661 C 0.42852 0.27512 0.78306 0.0
C662 C 0.33648 0.34271 0.77147 0.0
C663 C 0.37792 0.29336 0.75886 0.0
H664 H 0.22326 0.28906 0.82555 0.0
H665 H 0.17038 0.30362 0.78143 0.0
H666 H 0.23402 0.30993 0.75626 0.0
H667 H 0.19546 0.31286 0.7507 0.0
H668 H 0.41029 0.30205 0.72832 0.0
H669 H 0.45957 0.27745 0.76876 0.0
H670 H 0.39641 0.27489 0.79405 0.0
H671 H 0.43361 0.26759 0.7983 0.0
Tb672 Tb 0.05815 0.06802 0.53849 0.0
C673 C 0.09496 1.00793 0.46066 0.0
C674 C 0.06833 1.00309 0.42599 0.0
C675 C 0.10643 1.0032 0.41982 0.0
C676 C 0.07376 1.00722 0.45137 0.0
C677 C 0.11134 1.00511 0.4449 0.0
C678 C 0.08494 1.00215 0.41037 0.0
C679 C 0.13523 1.00254 0.47927 0.0
N680 N 0.09901 1.00925 0.48498 0.0
C681 C 0.11847 1.00522 0.49419 0.0
C682 C 0.13184 1.00304 0.45463 0.0
Tb683 Tb 0.07055 0.01572 0.50755 0.0
N684 N 0.05801 1.00764 0.46698 0.0
C685 C 0.0363 1.00054 0.45802 0.0
C686 C 0.04622 0.99841 0.41697 0.0
C687 C 0.03012 0.9964 0.43302 0.0
H688 H 0.1214 1.00417 0.51302 0.0
H689 H 0.01291 0.99173 0.42617 0.0
H690 H 0.08113 0.99942 0.39087 0.0
H691 H 0.15073 0.99995 0.48679 0.0
H692 H 0.02344 0.99862 0.46986 0.0
H693 H 0.12255 0.09827 0.6135 0.0
H694 H 0.04137 0.99511 0.39761 0.0
H695 H 1.00486 0.06838 0.53719 0.0
H696 H 0.10769 0.086 0.57085 0.0
H697 H 0.97781 0.07393 0.56634 0.0
H698 H 0.11888 1.00137 0.40747 0.0
H699 H 0.09759 0.10034 0.64584 0.0
H700 H 0.05905 0.09725 0.65722 0.0
H701 H 0.14482 1.00078 0.4431 0.0
H702 H 0.01958 0.09085 0.64437 0.0
N703 N 0.07402 0.08011 0.57812 0.0
C704 C 0.09627 0.08669 0.58438 0.0
C705 C 0.09083 0.09482 0.62697 0.0
C706 C 0.06817 0.08955 0.62052 0.0
C707 C 0.10495 0.09375 0.60877 0.0
C708 C 0.06024 0.08239 0.59565 0.0
H709 H 0.9892 0.08257 0.61051 0.0
N710 N 0.0317 0.07347 0.56438 0.0
C711 C 0.99476 0.07534 0.57286 0.0
C712 C 0.03825 0.07897 0.58851 0.0
C713 C 1.01027 0.07229 0.55635 0.0
C714 C 1.00123 0.08013 0.59776 0.0
C715 C 0.02326 0.08233 0.60589 0.0
O716 O 0.0444 0.09675 0.53017 0.0
O717 O 0.05781 0.04783 0.50061 0.0
O718 O 0.09857 0.04407 0.50254 0.0
O719 O 0.09257 0.07666 0.53032 0.0
O720 O 0.03138 0.0616 0.50887 0.0
O721 O 0.07934 0.10217 0.53951 0.0
O722 O 0.06197 0.9889 0.52905 0.0
O723 O 0.07154 0.03642 0.54504 0.0
O724 O 0.03426 0.03705 0.54684 0.0
O725 O 0.03521 1.01052 0.51121 0.0
O726 O 0.09773 0.02217 0.53687 0.0
O727 O 0.06517 0.97844 0.49124 0.0
C728 C 0.03931 0.05069 0.49065 0.0
C729 C 0.06518 0.13781 0.54043 0.0
C730 C 0.07399 0.1784 0.53025 0.0
C731 C 0.07263 0.15309 0.52433 0.0
C732 C 0.06818 0.18832 0.55308 0.0
C733 C 0.05935 0.14775 0.56306 0.0
C734 C 0.06095 0.17304 0.56936 0.0
C735 C 0.10476 0.06681 0.51475 0.0
C736 C 0.06352 0.11163 0.53222 0.0
C737 C 0.03085 0.08837 0.63073 0.0
C738 C 0.0533 0.09198 0.63804 0.0
C739 C 0.09024 0.03411 0.55497 0.0
C740 C 0.07379 0.95216 0.51695 0.0
C741 C 0.06668 0.93879 0.53486 0.0
C742 C 0.07618 0.91939 0.53902 0.0
C743 C 0.09326 0.91382 0.52552 0.0
C744 C 0.0909 0.9463 0.5036 0.0
C745 C 0.10067 0.92736 0.50806 0.0
C746 C 0.02536 0.01699 0.53065 0.0
C747 C 0.06211 0.97087 0.51145 0.0
H748 H 0.07748 0.14511 0.50707 0.0
H749 H 0.06887 0.20775 0.55821 0.0
H750 H 0.05357 0.13604 0.57565 0.0
H751 H 0.05641 0.18081 0.58682 0.0
H752 H 0.0532 0.94285 0.5449 0.0
H753 H 0.10078 0.8989 0.52842 0.0
H754 H 0.09647 0.95598 0.48942 0.0
H755 H 0.11377 0.92289 0.49765 0.0
Tb756 Tb 0.34283 0.81567 0.7638 0.0
C757 C 0.2894 0.75616 0.82638 0.0
C758 C 0.30045 0.71748 0.81731 0.0
C759 C 0.28816 0.73037 0.8567 0.0
C760 C 0.29769 0.73954 0.81068 0.0
C761 C 0.28401 0.75147 0.84935 0.0
C762 C 0.29635 0.71337 0.84068 0.0
C763 C 0.26823 0.78707 0.85481 0.0
N764 N 0.28521 0.77611 0.8184 0.0
C765 C 0.2737 0.79084 0.83182 0.0
C766 C 0.27375 0.76755 0.86381 0.0
Tb767 Tb 0.29546 0.78063 0.78047 0.0
N768 N 0.301 0.74391 0.78806 0.0
C769 C 0.30476 0.72571 0.77047 0.0
C770 C 0.30602 0.69962 0.79983 0.0
C771 C 0.30756 0.70348 0.77613 0.0
H772 H 0.26859 0.80561 0.82514 0.0
H773 H 0.311 0.68939 0.7622 0.0
H774 H 0.29863 0.69667 0.84619 0.0
H775 H 0.25957 0.79911 0.86549 0.0
H776 H 0.30589 0.7282 0.75202 0.0
H777 H 0.36248 0.91036 0.8111 0.0
H778 H 0.30819 0.68238 0.80414 0.0
H779 H 0.33455 0.79881 0.70033 0.0
H780 H 0.36625 0.8676 0.80283 0.0
H781 H 0.31418 0.81061 0.66814 0.0
H782 H 0.28432 0.72657 0.87436 0.0
H783 H 0.33845 0.92469 0.78286 0.0
H784 H 0.31472 0.91579 0.74329 0.0
H785 H 0.26929 0.76456 0.88153 0.0
H786 H 0.30053 0.88777 0.70442 0.0
N787 N 0.3424 0.85664 0.77191 0.0
C788 C 0.35489 0.87317 0.79093 0.0
C789 C 0.33975 0.9057 0.7794 0.0
C790 C 0.32918 0.88946 0.75834 0.0
C791 C 0.3532 0.89766 0.79542 0.0
C792 C 0.33137 0.86488 0.75475 0.0
H793 H 0.30037 0.84855 0.6761 0.0
N794 N 0.32874 0.82671 0.72896 0.0
C795 C 0.31609 0.82129 0.68643 0.0
C796 C 0.32371 0.84917 0.73279 0.0
C797 C 0.32701 0.81407 0.70538 0.0
C798 C 0.30843 0.84275 0.69095 0.0
C799 C 0.31317 0.85761 0.71404 0.0
O800 O 0.36784 0.82694 0.74214 0.0
O801 O 0.33027 0.78064 0.77546 0.0
O802 O 0.31505 0.79763 0.81483 0.0
O803 O 0.34017 0.82837 0.80264 0.0
O804 O 0.36173 0.7873 0.76923 0.0
O805 O 0.37503 0.82941 0.78137 0.0
O806 O 0.26489 0.78609 0.76702 0.0
O807 O 0.30706 0.81488 0.7661 0.0
O808 O 0.33432 0.78364 0.73482 0.0
O809 O 0.29913 0.76593 0.74236 0.0
O810 O 0.28702 0.81656 0.79287 0.0
O811 O 0.26909 0.75013 0.76842 0.0
C812 C 0.34754 0.77062 0.77608 0.0
C813 C 0.40602 0.84346 0.75904 0.0
C814 C 0.44507 0.85029 0.77337 0.0
C815 C 0.42274 0.8406 0.7756 0.0
C816 C 0.45024 0.86335 0.75465 0.0
C817 C 0.41173 0.85629 0.74041 0.0
C818 C 0.4337 0.86627 0.73835 0.0
C819 C 0.33012 0.81827 0.81961 0.0
C820 C 0.38263 0.83311 0.76092 0.0
C821 C 0.30899 0.88124 0.71845 0.0
C822 C 0.31712 0.89721 0.74053 0.0
C823 C 0.29689 0.83011 0.779 0.0
C824 C 0.23374 0.75784 0.77398 0.0
C825 C 0.21535 0.76336 0.76238 0.0
C826 C 0.1946 0.75832 0.77124 0.0
C827 C 0.1927 0.74788 0.79214 0.0
C828 C 0.2313 0.74708 0.79456 0.0
C829 C 0.21092 0.74229 0.80362 0.0
C830 C 0.31558 0.76742 0.72864 0.0
C831 C 0.25518 0.76322 0.76413 0.0
H832 H 0.41838 0.83036 0.78978 0.0
H833 H 0.46711 0.87158 0.75271 0.0
H834 H 0.39917 0.85882 0.72755 0.0
H835 H 0.43794 0.87637 0.72407 0.0
H836 H 0.21717 0.77114 0.74616 0.0
H837 H 0.17715 0.74415 0.79975 0.0
H838 H 0.24507 0.74228 0.80363 0.0
H839 H 0.20921 0.73415 0.8196 0.0
Tb840 Tb 0.57503 0.03913 0.04598 0.0
C841 C 0.49865 0.04947 0.98407 0.0
C842 C 0.48505 1.00882 0.95976 0.0
C843 C 0.45948 0.03456 0.97094 0.0
C844 C 0.50274 0.02763 0.97232 0.0
C845 C 0.47698 0.05333 0.98302 0.0
C846 C 0.46351 1.01235 0.95934 0.0
C847 C 0.49145 0.0949 1.00375 0.0
N848 N 0.51584 0.06717 0.99602 0.0
C849 C 0.51252 0.09033 1.00398 0.0
C850 C 0.4735 0.07615 0.99365 0.0
Tb851 Tb 0.55034 0.05829 0.99475 0.0
N852 N 0.52381 0.02456 0.97357 0.0
C853 C 0.52774 1.00263 0.96202 0.0
C854 C 0.48936 0.98679 0.94818 0.0
C855 C 0.51079 0.98373 0.94932 0.0
H856 H 0.52612 0.10565 0.01062 0.0
H857 H 0.51432 0.96664 0.94048 0.0
H858 H 0.44984 0.99801 0.95001 0.0
H859 H 0.48914 0.11305 0.01096 0.0
H860 H 0.54361 0.99857 0.96211 0.0
H861 H 0.61113 0.13152 0.09836 0.0
H862 H 0.47625 0.97197 0.93847 0.0
H863 H 0.59931 0.99179 0.03004 0.0
H864 H 0.58193 0.09951 0.07649 0.0
H865 H 0.6363 0.98441 0.02989 0.0
H866 H 0.4428 0.03715 0.97021 0.0
H867 H 0.64908 0.12587 0.10146 0.0
H868 H 0.67549 0.09959 0.09062 0.0
H869 H 0.45716 0.07976 0.99326 0.0
H870 H 0.68256 0.06035 0.07072 0.0
N871 N 0.6016 0.07304 0.06667 0.0
C872 C 0.59772 0.09526 0.0774 0.0
C873 C 0.63599 0.11099 0.09182 0.0
C874 C 0.6403 0.08877 0.08074 0.0
C875 C 0.61463 0.11422 0.09009 0.0
C876 C 0.62262 0.06987 0.06831 0.0
H877 H 0.66824 0.0177 0.04774 0.0
N878 N 0.60954 0.03023 0.04486 0.0
C879 C 0.63397 1.00255 0.03711 0.0
C880 C 0.62672 0.04795 0.05681 0.0
C881 C 0.61289 1.00711 0.0368 0.0
C882 C 0.65189 0.0213 0.04731 0.0
C883 C 0.64839 0.04412 0.0579 0.0
O884 O 0.56885 1.00287 0.05126 0.0
O885 O 0.54805 0.03089 0.01698 0.0
O886 O 0.54376 0.07885 0.02954 0.0
O887 O 0.55612 0.06428 0.06323 0.0
O888 O 0.54064 0.02734 0.05166 0.0
O889 O 0.57829 0.03335 0.0818 0.0
O890 O 0.55673 0.09464 0.98965 0.0
O891 O 0.57751 0.06626 0.02358 0.0
O892 O 0.58126 0.01811 0.01111 0.0
O893 O 0.56917 0.03317 0.9776 0.0
O894 O 0.58466 0.07007 0.98906 0.0
O895 O 0.54694 0.06434 0.95903 0.0
C896 C 0.53257 0.02473 0.02962 0.0
C897 C 0.55355 0.99726 0.08744 0.0
C898 C 0.52306 0.99797 0.11265 0.0
C899 C 0.53987 1.01022 0.10073 0.0
C900 C 0.51989 0.97236 0.11041 0.0
C901 C 0.54996 0.97181 0.08546 0.0
C902 C 0.53313 0.95945 0.09677 0.0
C903 C 0.5455 0.07844 0.0531 0.0
C904 C 0.57125 1.00962 0.07484 0.0
C905 C 0.66587 0.06293 0.06993 0.0
C906 C 0.66183 0.0852 0.08135 0.0
C907 C 0.59298 0.0726 0.01094 0.0
C908 C 0.57136 0.10045 0.95321 0.0
C909 C 0.58744 0.08858 0.94369 0.0
C910 C 0.60485 0.10106 0.93276 0.0
C911 C 0.60557 0.12568 0.9312 0.0
C912 C 0.57259 0.12497 0.95165 0.0
C913 C 0.58959 0.13748 0.94064 0.0
C914 C 0.5795 0.01867 0.98756 0.0
C915 C 0.55391 0.08807 0.96605 0.0
H916 H 0.54232 0.02979 0.10171 0.0
H917 H 0.50763 0.96225 0.11978 0.0
H918 H 0.56019 0.96148 0.0751 0.0
H919 H 0.53055 0.9398 0.09527 0.0
H920 H 0.58647 0.06971 0.94515 0.0
H921 H 0.61815 0.1358 0.92221 0.0
H922 H 0.56043 0.13448 0.95907 0.0
H923 H 0.59035 0.15638 0.93932 0.0
Tb924 Tb 0.33144 0.31699 0.28994 0.0
C925 C 0.24519 0.26953 0.25757 0.0
C926 C 0.22689 0.24798 0.2866 0.0
C927 C 0.20766 0.27201 0.26504 0.0
C928 C 0.24567 0.25501 0.27453 0.0
C929 C 0.22592 0.27769 0.2521 0.0
C930 C 0.20816 0.25718 0.28232 0.0
C931 C 0.24314 0.29409 0.21975 0.0
N932 N 0.26327 0.27475 0.24564 0.0
C933 C 0.26167 0.2853 0.22564 0.0
C934 C 0.22536 0.2908 0.23341 0.0
Tb935 Tb 0.2942 0.26174 0.25871 0.0
N936 N 0.26408 0.24655 0.27813 0.0
C937 C 0.26328 0.22798 0.2909 0.0
C938 C 0.22724 0.23127 0.30197 0.0
C939 C 0.24533 0.22073 0.30362 0.0
H940 H 0.27397 0.28635 0.21319 0.0
H941 H 0.24534 0.20671 0.31435 0.0
H942 H 0.19377 0.25236 0.29174 0.0
H943 H 0.24243 0.30291 0.20425 0.0
H944 H 0.27646 0.21842 0.29129 0.0
H945 H 0.38181 0.36025 0.22705 0.0
H946 H 0.21323 0.22548 0.31164 0.0
H947 H 0.35087 0.29948 0.3409 0.0
H948 H 0.35051 0.35353 0.2506 0.0
H949 H 0.38176 0.28355 0.35364 0.0
H950 H 0.19291 0.27847 0.26137 0.0
H951 H 0.41345 0.34191 0.23457 0.0
H952 H 0.43204 0.31857 0.25984 0.0
H953 H 0.21094 0.29742 0.22868 0.0
H954 H 0.43193 0.2974 0.29431 0.0
N955 N 0.36173 0.3276 0.26888 0.0
C956 C 0.36309 0.34355 0.25302 0.0
C957 C 0.3992 0.33804 0.24445 0.0
C958 C 0.39899 0.32421 0.26263 0.0
C959 C 0.38134 0.34824 0.24004 0.0
C960 C 0.3799 0.31952 0.27486 0.0
H961 H 0.41322 0.28401 0.32919 0.0
N962 N 0.36161 0.3048 0.30626 0.0
C963 C 0.38124 0.28963 0.33646 0.0
C964 C 0.37983 0.30767 0.29417 0.0
C965 C 0.36307 0.29791 0.32843 0.0
C966 C 0.39901 0.2901 0.32276 0.0
C967 C 0.39885 0.30009 0.30183 0.0
O968 O 0.33346 0.33551 0.32627 0.0
O969 O 0.29816 0.29548 0.28467 0.0
O970 O 0.30689 0.285 0.23249 0.0
O971 O 0.32018 0.32457 0.25473 0.0
O972 O 0.30222 0.33209 0.28554 0.0
O973 O 0.344 0.35504 0.29818 0.0
O974 O 0.29041 0.24668 0.22122 0.0
O975 O 0.32766 0.28302 0.26418 0.0
O976 O 0.31926 0.29396 0.31671 0.0
O977 O 0.30388 0.25467 0.29467 0.0
O978 O 0.32296 0.24652 0.26485 0.0
O979 O 0.28579 0.22344 0.24747 0.0
C980 C 0.28771 0.31213 0.28442 0.0
C981 C 0.32725 0.37546 0.32979 0.0
C982 C 0.30406 0.40382 0.32294 0.0
C983 C 0.31652 0.38692 0.31389 0.0
C984 C 0.30271 0.40942 0.34813 0.0
C985 C 0.32575 0.38144 0.35484 0.0
C986 C 0.31356 0.39836 0.36392 0.0
C987 C 0.31349 0.30907 0.23383 0.0
C988 C 0.33971 0.35694 0.32067 0.0
C989 C 0.41737 0.30345 0.2889 0.0
C990 C 0.41744 0.31552 0.26932 0.0
C991 C 0.33774 0.26619 0.2656 0.0
C992 C 0.30168 0.20924 0.21197 0.0
C993 C 0.31422 0.19638 0.22436 0.0
C994 C 0.32706 0.18178 0.21169 0.0
C995 C 0.32736 0.18031 0.18649 0.0
C996 C 0.30221 0.20742 0.1868 0.0
C997 C 0.31503 0.19309 0.17418 0.0
C998 C 0.31167 0.27001 0.31545 0.0
C999 C 0.28775 0.22435 0.22478 0.0
H1000 H 0.31742 0.38236 0.29448 0.0
H1001 H 0.29343 0.42257 0.35564 0.0
H1002 H 0.33394 0.37291 0.36737 0.0
H1003 H 0.31248 0.40287 0.38328 0.0
H1004 H 0.31369 0.19728 0.24372 0.0
H1005 H 0.33724 0.16939 0.1763 0.0
H1006 H 0.29265 0.21709 0.17688 0.0
H1007 H 0.31537 0.19184 0.15477 0.0
Tb1008 Tb 0.55935 0.56988 0.03609 0.0
C1009 C 0.59341 0.50967 0.95805 0.0
C1010 C 0.56489 0.5035 0.92499 0.0
C1011 C 0.60274 0.50572 0.91635 0.0
C1012 C 0.57163 0.50783 0.95014 0.0
C1013 C 0.60904 0.50772 0.94116 0.0
C1014 C 0.58067 0.50358 0.90827 0.0
C1015 C 0.63506 0.50585 0.97394 0.0
N1016 N 0.59879 0.51087 0.98208 0.0
C1017 C 0.61896 0.50747 0.98994 0.0
C1018 C 0.63024 0.50652 0.94953 0.0
Tb1019 Tb 0.57156 0.51657 1.00683 0.0
N1020 N 0.55677 0.50732 0.96681 0.0
C1021 C 0.53482 0.49902 0.95908 0.0
C1022 C 0.54243 0.49763 0.9173 0.0
C1023 C 0.52735 0.49466 0.93437 0.0
H1024 H 0.62299 0.50702 0.00877 0.0
H1025 H 0.50993 0.48905 0.92853 0.0
H1026 H 0.57582 0.50075 0.88894 0.0
H1027 H 0.65118 0.50405 0.98045 0.0
H1028 H 0.52264 0.49622 0.97159 0.0
H1029 H 0.62759 0.59939 0.10685 0.0
H1030 H 0.53658 0.49415 0.89817 0.0
H1031 H 0.50769 0.57532 0.03831 0.0
H1032 H 0.61031 0.58722 0.06499 0.0
H1033 H 0.48263 0.5831 0.06943 0.0
H1034 H 0.61458 0.5046 0.90315 0.0
H1035 H 0.60472 0.60219 0.14115 0.0
H1036 H 0.56719 0.60055 0.15531 0.0
H1037 H 0.6427 0.50502 0.93713 0.0
H1038 H 0.52755 0.59633 0.14508 0.0
N1039 N 0.57741 0.58204 0.07478 0.0
C1040 C 0.59984 0.5883 0.07946 0.0
C1041 C 0.59693 0.59672 0.12266 0.0
C1042 C 0.5741 0.5921 0.11779 0.0
C1043 C 0.60987 0.59526 0.10336 0.0
C1044 C 0.56481 0.58497 0.09337 0.0
H1045 H 0.49594 0.59042 0.11306 0.0
N1046 N 0.53504 0.57775 0.06391 0.0
C1047 C 0.4995 0.58296 0.07487 0.0
C1048 C 0.54275 0.58274 0.0877 0.0
C1049 C 0.51383 0.57865 0.05726 0.0
C1050 C 0.50703 0.58697 0.09945 0.0
C1051 C 0.52901 0.58733 0.10616 0.0
O1052 O 0.54525 0.5981 0.02687 0.0
O1053 O 0.55868 0.54831 0.99875 0.0
O1054 O 0.60073 0.54436 1.00375 0.0
O1055 O 0.59251 0.57944 0.02511 0.0
O1056 O 0.53194 0.56185 1.00711 0.0
O1057 O 0.58013 0.60394 0.03576 0.0
O1058 O 0.56011 0.48997 0.02763 0.0
O1059 O 0.57266 0.53829 0.04382 0.0
O1060 O 0.53382 0.54022 0.04429 0.0
O1061 O 0.53639 0.51036 0.01153 0.0
O1062 O 0.59882 0.52355 0.03596 0.0
O1063 O 0.57191 0.47961 0.99334 0.0
C1064 C 0.53984 0.55057 0.98904 0.0
C1065 C 0.56549 0.6392 0.03866 0.0
C1066 C 0.57472 0.68143 0.0326 0.0
C1067 C 0.57253 0.65624 0.02395 0.0
C1068 C 0.56963 0.68929 0.05636 0.0
C1069 C 0.56048 0.64724 0.06223 0.0
C1070 C 0.56252 0.67227 0.071 0.0
C1071 C 0.60567 0.56805 0.0125 0.0
C1072 C 0.56416 0.61331 0.02872 0.0
C1073 C 0.53786 0.59299 0.13061 0.0
C1074 C 0.56041 0.59537 0.13643 0.0
C1075 C 0.59128 0.53575 0.05385 0.0
C1076 C 0.57764 0.45686 0.02389 0.0
C1077 C 0.56825 0.44417 0.04137 0.0
C1078 C 0.57953 0.42919 0.05229 0.0
C1079 C 0.60049 0.42728 0.04566 0.0
C1080 C 0.59841 0.45422 0.01719 0.0
C1081 C 0.6098 0.43968 0.02819 0.0
C1082 C 0.52591 0.51871 0.02978 0.0
C1083 C 0.5653 0.47236 0.01279 0.0
H1084 H 0.57671 0.64984 1.00584 0.0
H1085 H 0.57091 0.70857 0.06353 0.0
H1086 H 0.5551 0.63425 0.07377 0.0
H1087 H 0.55861 0.67853 0.08921 0.0
H1088 H 0.55214 0.44598 0.04644 0.0
H1089 H 0.60945 0.41562 0.05346 0.0
H1090 H 0.60581 0.46316 1.00335 0.0
H1091 H 0.62579 0.43776 0.02291 0.0
Tb1092 Tb 0.84164 0.31553 0.26997 0.0
C1093 C 0.78441 0.25116 0.32536 0.0
C1094 C 0.79701 0.2134 0.31672 0.0
C1095 C 0.78162 0.22423 0.3547 0.0
C1096 C 0.7942 0.23555 0.31033 0.0
C1097 C 0.77734 0.24529 0.34737 0.0
C1098 C 0.79145 0.20829 0.33938 0.0
C1099 C 0.75959 0.27938 0.3515 0.0
N1100 N 0.78017 0.27109 0.31736 0.0
C1101 C 0.76686 0.28441 0.32951 0.0
C1102 C 0.76525 0.26007 0.36075 0.0
Tb1103 Tb 0.79369 0.27802 0.28135 0.0
N1104 N 0.79875 0.24081 0.28832 0.0
C1105 C 0.80358 0.22321 0.27081 0.0
C1106 C 0.80403 0.1964 0.29958 0.0
C1107 C 0.80672 0.20104 0.27629 0.0
H1108 H 0.76168 0.29902 0.3226 0.0
H1109 H 0.81122 0.18756 0.26252 0.0
H1110 H 0.79376 0.19153 0.34474 0.0
H1111 H 0.74951 0.29035 0.36123 0.0
H1112 H 0.80546 0.22629 0.25259 0.0
H1113 H 0.82447 0.40614 0.29095 0.0
H1114 H 0.80634 0.17915 0.30374 0.0
H1115 H 0.87513 0.29738 0.23008 0.0
H1116 H 0.82919 0.36665 0.29954 0.0
H1117 H 0.88733 0.30656 0.19141 0.0
H1118 H 0.77656 0.21958 0.37169 0.0
H1119 H 0.82939 0.4156 0.25011 0.0
H1120 H 0.84106 0.40364 0.20854 0.0
H1121 H 0.75946 0.25613 0.3777 0.0
H1122 H 0.85815 0.376 0.18095 0.0
N1123 N 0.83604 0.35286 0.26361 0.0
C1124 C 0.83129 0.37019 0.28152 0.0
C1125 C 0.83141 0.39806 0.25372 0.0
C1126 C 0.83787 0.38111 0.23601 0.0
C1127 C 0.82873 0.39284 0.27681 0.0
C1128 C 0.84044 0.35862 0.24176 0.0
H1129 H 0.87604 0.33999 0.17467 0.0
N1130 N 0.85509 0.32369 0.2344 0.0
C1131 C 0.87661 0.31683 0.20089 0.0
C1132 C 0.85026 0.34335 0.22647 0.0
C1133 C 0.86942 0.31153 0.22282 0.0
C1134 C 0.87016 0.33566 0.19146 0.0
C1135 C 0.85746 0.34977 0.20471 0.0
O1136 O 0.8727 0.31133 0.28342 0.0
O1137 O 0.82974 0.28008 0.2818 0.0
O1138 O 0.81036 0.2943 0.31742 0.0
O1139 O 0.83325 0.32732 0.30672 0.0
O1140 O 0.85338 0.28123 0.2589 0.0
O1141 O 0.86514 0.34649 0.28873 0.0
O1142 O 0.76327 0.28258 0.26641 0.0
O1143 O 0.80534 0.31348 0.26911 0.0
O1144 O 0.82646 0.29748 0.23372 0.0
O1145 O 0.80166 0.26558 0.24446 0.0
O1146 O 0.78278 0.31244 0.29324 0.0
O1147 O 0.7693 0.2469 0.2647 0.0
C1148 C 0.84221 0.26637 0.27075 0.0
C1149 C 0.90211 0.34483 0.284 0.0
C1150 C 0.94213 0.35046 0.28976 0.0
C1151 C 0.92106 0.34144 0.29648 0.0
C1152 C 0.94375 0.36278 0.27007 0.0
C1153 C 0.90427 0.35781 0.26494 0.0
C1154 C 0.92497 0.36653 0.25793 0.0
C1155 C 0.82386 0.31599 0.32316 0.0
C1156 C 0.88035 0.33455 0.29111 0.0
C1157 C 0.85303 0.37094 0.19776 0.0
C1158 C 0.84329 0.38666 0.21346 0.0
C1159 C 0.793 0.32714 0.28063 0.0
C1160 C 0.73278 0.25126 0.26867 0.0
C1161 C 0.7145 0.25709 0.25718 0.0
C1162 C 0.69332 0.24995 0.26444 0.0
C1163 C 0.69083 0.23698 0.2836 0.0
C1164 C 0.72977 0.23796 0.28746 0.0
C1165 C 0.70893 0.23101 0.29492 0.0
C1166 C 0.81234 0.27614 0.22825 0.0
C1167 C 0.75475 0.25934 0.26085 0.0
H1168 H 0.91927 0.3321 0.31169 0.0
H1169 H 0.95953 0.36946 0.2639 0.0
H1170 H 0.89004 0.36125 0.25546 0.0
H1171 H 0.92646 0.37624 0.24299 0.0
H1172 H 0.71682 0.26688 0.24232 0.0
H1173 H 0.67492 0.23159 0.29002 0.0
H1174 H 0.74347 0.23293 0.2964 0.0
H1175 H 0.70678 0.22095 0.30956 0.0
Tb1176 Tb 0.07535 0.5393 0.56249 0.0
C1177 C 0.01648 0.57562 0.49197 0.0
C1178 C 0.9918 0.53776 0.47176 0.0
C1179 C 0.98037 0.57633 0.47391 0.0
C1180 C 0.01208 0.55055 0.4848 0.0
C1181 C 1.00096 0.58896 0.48606 0.0
C1182 C 0.97578 0.55074 0.46681 0.0
C1183 C 0.02818 0.62618 0.50231 0.0
N1184 N 0.03654 0.58704 0.50354 0.0
C1185 C 0.04297 0.61205 0.50779 0.0
C1186 C 1.00693 0.61458 0.49177 0.0
Tb1187 Tb 0.0602 0.56276 0.51043 0.0
N1188 N 0.02807 0.53881 0.48983 0.0
C1189 C 0.02524 0.51423 0.48104 0.0
C1190 C 0.98847 0.51244 0.46366 0.0
C1191 C 1.00538 0.50068 0.46807 0.0
H1192 H 0.05938 0.62111 0.51592 0.0
H1193 H 1.00309 0.48115 0.46164 0.0
H1194 H 0.96001 0.54123 0.457 0.0
H1195 H 0.03317 0.64597 0.50623 0.0
H1196 H 0.03794 0.50473 0.48448 0.0
H1197 H 0.09269 0.60953 0.64514 0.0
H1198 H 0.9731 0.5019 0.45366 0.0
H1199 H 0.11108 0.50499 0.54053 0.0
H1200 H 0.07032 0.57384 0.61653 0.0
H1201 H 0.15038 0.51098 0.53788 0.0
H1202 H 0.96811 0.58621 0.46939 0.0
H1203 H 0.13206 0.62372 0.64043 0.0
H1204 H 0.16499 0.61568 0.61975 0.0
H1205 H 0.99552 0.62554 0.48747 0.0
H1206 H 0.18092 0.58817 0.59067 0.0
N1207 N 0.09554 0.57016 0.59321 0.0
C1208 C 0.08703 0.58079 0.61325 0.0
C1209 C 0.12205 0.60855 0.6273 0.0
C1210 C 0.1314 0.59542 0.6089 0.0
C1211 C 0.09985 0.60065 0.62996 0.0
C1212 C 0.11759 0.57578 0.59228 0.0
H1213 H 0.17567 0.54878 0.56044 0.0
N1214 N 0.11263 0.54078 0.56161 0.0
C1215 C 0.1439 0.52534 0.54828 0.0
C1216 C 0.1265 0.56029 0.57616 0.0
C1217 C 0.12123 0.52242 0.54927 0.0
C1218 C 0.15812 0.54658 0.56116 0.0
C1219 C 0.14954 0.56406 0.57594 0.0
O1220 O 0.06896 0.50148 0.56303 0.0
O1221 O 0.05099 0.5354 0.53233 0.0
O1222 O 0.04374 0.58034 0.53932 0.0
O1223 O 0.05874 0.56991 0.57441 0.0
O1224 O 0.04009 0.53186 0.56584 0.0
O1225 O 0.07742 0.5282 0.59608 0.0
O1226 O 0.08129 0.5885 0.49504 0.0
O1227 O 0.08671 0.56015 0.5358 0.0
O1228 O 0.07758 0.51231 0.5303 0.0
O1229 O 0.07436 0.53157 0.49741 0.0
O1230 O 0.0836 0.59429 0.53214 0.0
O1231 O 0.06511 0.5532 0.47361 0.0
C1232 C 0.03395 0.53086 0.54331 0.0
C1233 C 0.05079 0.49232 0.59684 0.0
C1234 C 0.0204 0.49327 0.6222 0.0
C1235 C 0.03777 0.50545 0.61101 0.0
C1236 C 0.01559 0.46745 0.61781 0.0
C1237 C 0.04563 0.46668 0.59269 0.0
C1238 C 0.02797 0.45433 0.60295 0.0
C1239 C 0.04664 0.58228 0.56324 0.0
C1240 C 0.0699 0.50521 0.58654 0.0
C1241 C 0.16325 0.5847 0.59099 0.0
C1242 C 0.15418 0.6004 0.60747 0.0
C1243 C 0.09638 0.58244 0.54133 0.0
C1244 C 0.07846 0.58478 0.4525 0.0
C1245 C 0.09516 0.58219 0.43766 0.0
C1246 C 0.09607 0.59149 0.41623 0.0
C1247 C 0.08041 0.60458 0.41031 0.0
C1248 C 0.06261 0.59745 0.44643 0.0
C1249 C 0.06376 0.60754 0.42543 0.0
C1250 C 0.07901 0.5136 0.50717 0.0
C1251 C 0.07879 0.57391 0.47408 0.0
H1252 H 0.04138 0.52524 0.61353 0.0
H1253 H 1.00274 0.45726 0.62643 0.0
H1254 H 0.05535 0.45623 0.58165 0.0
H1255 H 0.02416 0.43451 0.59984 0.0
H1256 H 0.10748 0.57257 0.44276 0.0
H1257 H 0.08067 0.61186 0.39376 0.0
H1258 H 0.04949 0.5995 0.45774 0.0
H1259 H 0.05156 0.61737 0.42067 0.0
Tb1260 Tb 0.79135 0.80348 0.27429 0.0
C1261 C 0.86008 0.75929 0.32085 0.0
C1262 C 0.87493 0.78934 0.35714 0.0
C1263 C 0.87362 0.74629 0.35671 0.0
C1264 C 0.86472 0.78311 0.33309 0.0
C1265 C 0.8652 0.74062 0.33211 0.0
C1266 C 0.87849 0.77069 0.36924 0.0
C1267 C 0.8566 0.71324 0.29306 0.0
N1268 N 0.85268 0.75492 0.29701 0.0
C1269 C 0.8519 0.73247 0.28274 0.0
C1270 C 0.86285 0.71719 0.31798 0.0
Tb1271 Tb 0.84371 0.78697 0.2817 0.0
N1272 N 0.86166 0.80045 0.32036 0.0
C1273 C 0.87106 0.82456 0.32979 0.0
C1274 C 0.88256 0.81411 0.36766 0.0
C1275 C 0.88119 0.83176 0.35366 0.0
H1276 H 0.84689 0.72907 0.26349 0.0
H1277 H 0.88784 0.85097 0.36124 0.0
H1278 H 0.886 0.77505 0.38785 0.0
H1279 H 0.85533 0.69538 0.2818 0.0
H1280 H 0.87021 0.83863 0.31947 0.0
H1281 H 0.74965 0.73757 0.19466 0.0
H1282 H 0.89051 0.81971 0.38608 0.0
H1283 H 0.78779 0.86122 0.2916 0.0
H1284 H 0.7676 0.75076 0.23613 0.0
H1285 H 0.77778 0.89406 0.27304 0.0
H1286 H 0.87738 0.73217 0.36584 0.0
H1287 H 0.74416 0.76824 0.1701 0.0
H1288 H 0.74634 0.81252 0.16823 0.0
H1289 H 0.86663 0.70233 0.32592 0.0
H1290 H 0.75396 0.85552 0.18978 0.0
N1291 N 0.77352 0.78905 0.23558 0.0
C1292 C 0.76549 0.76465 0.22605 0.0
C1293 C 0.75223 0.77426 0.18845 0.0
C1294 C 0.75873 0.79915 0.19892 0.0
C1295 C 0.75521 0.75692 0.20229 0.0
C1296 C 0.76923 0.80595 0.22286 0.0
H1297 H 0.76512 0.88604 0.22918 0.0
N1298 N 0.78149 0.83481 0.25848 0.0
C1299 C 0.7766 0.87611 0.262 0.0
C1300 C 0.77344 0.82985 0.23481 0.0
C1301 C 0.78219 0.85736 0.27246 0.0
C1302 C 0.76958 0.87156 0.23722 0.0
C1303 C 0.76742 0.84802 0.22341 0.0
O1304 O 0.77113 0.81682 0.30002 0.0
O1305 O 0.8174 0.79953 0.29984 0.0
O1306 O 0.81894 0.75549 0.29055 0.0
O1307 O 0.78617 0.76327 0.27513 0.0
O1308 O 0.80393 0.82965 0.30776 0.0
O1309 O 0.76166 0.78037 0.27963 0.0
O1310 O 0.86309 0.77381 0.25489 0.0
O1311 O 0.81791 0.79144 0.25599 0.0
O1312 O 0.81616 0.83546 0.26639 0.0
O1313 O 0.84901 0.82735 0.28134 0.0
O1314 O 0.83062 0.76075 0.24858 0.0
O1315 O 0.87426 0.8091 0.27729 0.0
C1316 C 0.81816 0.81884 0.31559 0.0
C1317 C 0.73277 0.79913 0.29272 0.0
C1318 C 0.69578 0.79501 0.30674 0.0
C1319 C 0.71821 0.79409 0.31056 0.0
C1320 C 0.68841 0.80142 0.28516 0.0
C1321 C 0.72478 0.8056 0.27152 0.0
C1322 C 0.70281 0.80681 0.26785 0.0
C1323 C 0.79729 0.74827 0.28364 0.0
C1324 C 0.75598 0.79676 0.2957 0.0
C1325 C 0.75844 0.84178 0.19899 0.0
C1326 C 0.7541 0.81732 0.18673 0.0
C1327 C 0.81701 0.77204 0.24027 0.0
C1328 C 0.90174 0.78877 0.26252 0.0
C1329 C 0.91601 0.7919 0.24398 0.0
C1330 C 0.93755 0.78752 0.24647 0.0
C1331 C 0.9444 0.78055 0.26803 0.0
C1332 C 0.90927 0.78162 0.28351 0.0
C1333 C 0.93043 0.77762 0.28623 0.0
C1334 C 0.83784 0.84255 0.27324 0.0
C1335 C 0.8791 0.79304 0.2602 0.0
H1336 H 0.72415 0.78892 0.32697 0.0
H1337 H 0.6714 0.80235 0.28171 0.0
H1338 H 0.73548 0.80948 0.25765 0.0
H1339 H 0.69683 0.81176 0.25136 0.0
H1340 H 0.91027 0.79732 0.22764 0.0
H1341 H 0.96082 0.77757 0.27105 0.0
H1342 H 0.89881 0.77925 0.29791 0.0
H1343 H 0.93609 0.77226 0.30262 0.0
Tb1344 Tb 0.82499 0.28463 0.7545 0.0
C1345 C 0.81569 0.36845 0.82292 0.0
C1346 C 0.84039 0.37856 0.8598 0.0
C1347 C 0.83331 0.41108 0.83993 0.0
C1348 C 0.82652 0.36111 0.84117 0.0
C1349 C 0.81828 0.39368 0.82258 0.0
C1350 C 0.84442 0.4035 0.85853 0.0
C1351 C 0.78941 0.38289 0.78977 0.0
N1352 N 0.80152 0.35092 0.80643 0.0
C1353 C 0.78751 0.35817 0.79081 0.0
C1354 C 0.80521 0.40073 0.80534 0.0
Tb1355 Tb 0.80201 0.3102 0.80794 0.0
N1356 N 0.82189 0.33696 0.84182 0.0
C1357 C 0.82851 0.3295 0.86247 0.0
C1358 C 0.84897 0.37053 0.87966 0.0
C1359 C 0.84255 0.34594 0.88128 0.0
H1360 H 0.77434 0.34558 0.77913 0.0
H1361 H 0.84836 0.33962 0.89701 0.0
H1362 H 0.85536 0.41713 0.87237 0.0
H1363 H 0.77851 0.38816 0.777 0.0
H1364 H 0.82362 0.31049 0.86404 0.0
H1365 H 0.76811 0.24456 0.67315 0.0
H1366 H 0.85971 0.38332 0.89431 0.0
H1367 H 0.8592 0.2542 0.78081 0.0
H1368 H 0.79646 0.27658 0.69945 0.0
H1369 H 0.85781 0.21315 0.78758 0.0
H1370 H 0.83588 0.43044 0.83959 0.0
H1371 H 0.75903 0.20282 0.68215 0.0
H1372 H 0.76864 0.17286 0.70657 0.0
H1373 H 0.80664 0.41986 0.80448 0.0
H1374 H 0.79381 0.16411 0.73754 0.0
N1375 N 0.80146 0.25457 0.7255 0.0
C1376 C 0.79199 0.25887 0.70445 0.0
C1377 C 0.7711 0.21709 0.69421 0.0
C1378 C 0.78298 0.21187 0.71372 0.0
C1379 C 0.77615 0.24058 0.6891 0.0
C1380 C 0.79848 0.23119 0.7289 0.0
H1381 H 0.8275 0.1789 0.76733 0.0
N1382 N 0.82808 0.24539 0.75897 0.0
C1383 C 0.84466 0.21661 0.7762 0.0
C1384 C 0.81259 0.22632 0.74601 0.0
C1385 C 0.84493 0.24041 0.77272 0.0
C1386 C 0.82764 0.19733 0.76466 0.0
C1387 C 0.81164 0.20192 0.7488 0.0
O1388 O 0.85903 0.28972 0.75193 0.0
O1389 O 0.82538 0.31621 0.78217 0.0
O1390 O 0.77837 0.30688 0.77525 0.0
O1391 O 0.79539 0.2958 0.74054 0.0
O1392 O 0.8271 0.32173 0.74743 0.0
O1393 O 0.83664 0.28541 0.72026 0.0
O1394 O 0.7674 0.3022 0.80566 0.0
O1395 O 0.80195 0.27793 0.78091 0.0
O1396 O 0.85015 0.29096 0.78636 0.0
O1397 O 0.83384 0.3029 0.82139 0.0
O1398 O 0.80399 0.275 0.81685 0.0
O1399 O 0.78636 0.30541 0.83943 0.0
C1400 C 0.82776 0.33263 0.76965 0.0
C1401 C 0.87031 0.31475 0.72372 0.0
C1402 C 0.87333 0.35071 0.70471 0.0
C1403 C 0.86103 0.32848 0.70907 0.0
C1404 C 0.89513 0.35922 0.71541 0.0
C1405 C 0.89219 0.3235 0.73396 0.0
C1406 C 0.90445 0.34564 0.72988 0.0
C1407 C 0.77869 0.30268 0.75116 0.0
C1408 C 0.85706 0.29201 0.72936 0.0
C1409 C 0.79511 0.18285 0.73522 0.0
C1410 C 0.78074 0.18784 0.71767 0.0
C1411 C 0.80193 0.26284 0.79493 0.0
C1412 C 0.75443 0.27317 0.82972 0.0
C1413 C 0.7626 0.25964 0.84546 0.0
C1414 C 0.75133 0.23569 0.84637 0.0
C1415 C 0.73168 0.22535 0.83123 0.0
C1416 C 0.73463 0.26248 0.81497 0.0
C1417 C 0.72341 0.23871 0.8157 0.0
C1418 C 0.85049 0.29615 0.81048 0.0
C1419 C 0.76703 0.29772 0.8275 0.0
H1420 H 0.84408 0.32207 0.70129 0.0
H1421 H 0.90516 0.37605 0.71212 0.0
H1422 H 0.89973 0.31332 0.74533 0.0
H1423 H 0.9213 0.35225 0.73788 0.0
H1424 H 0.77802 0.26752 0.85666 0.0
H1425 H 0.72248 0.2071 0.83169 0.0
H1426 H 0.72797 0.27239 0.80262 0.0
H1427 H 0.70823 0.23058 0.80415 0.0
Tb1428 Tb 0.82659 0.81891 0.79067 0.0
C1429 C 0.74267 0.76766 0.75573 0.0
C1430 C 0.72425 0.74604 0.78466 0.0
C1431 C 0.70454 0.76856 0.76167 0.0
C1432 C 0.74324 0.75361 0.77312 0.0
C1433 C 0.72306 0.77475 0.74927 0.0
C1434 C 0.70514 0.75421 0.77938 0.0
C1435 C 0.74058 0.79097 0.71698 0.0
N1436 N 0.76101 0.77342 0.74435 0.0
C1437 C 0.75942 0.7832 0.72384 0.0
C1438 C 0.72248 0.7873 0.73014 0.0
Tb1439 Tb 0.79235 0.76222 0.75906 0.0
N1440 N 0.76205 0.74623 0.77776 0.0
C1441 C 0.76164 0.72823 0.79119 0.0
C1442 C 0.72483 0.72992 0.80061 0.0
C1443 C 0.74346 0.72049 0.8034 0.0
H1444 H 0.77202 0.78433 0.71172 0.0
H1445 H 0.74372 0.70691 0.81463 0.0
H1446 H 0.69057 0.74899 0.7884 0.0
H1447 H 0.73987 0.79925 0.70111 0.0
H1448 H 0.77525 0.71943 0.79245 0.0
H1449 H 0.87584 0.86205 0.72682 0.0
H1450 H 0.71067 0.72376 0.80991 0.0
H1451 H 0.84683 0.80492 0.8432 0.0
H1452 H 0.84434 0.85445 0.74987 0.0
H1453 H 0.87873 0.79145 0.85744 0.0
H1454 H 0.68952 0.77423 0.75726 0.0
H1455 H 0.90866 0.84623 0.73602 0.0
H1456 H 0.92833 0.82514 0.76276 0.0
H1457 H 0.7078 0.79311 0.72465 0.0
H1458 H 0.92896 0.80541 0.7982 0.0
N1459 N 0.8568 0.83038 0.76977 0.0
C1460 C 0.85752 0.84551 0.75314 0.0
C1461 C 0.89437 0.84196 0.74576 0.0
C1462 C 0.89468 0.829 0.7646 0.0
C1463 C 0.87585 0.85074 0.7404 0.0
C1464 C 0.87553 0.82372 0.7766 0.0
H1465 H 0.91054 0.79256 0.83346 0.0
N1466 N 0.85755 0.80925 0.80832 0.0
C1467 C 0.87798 0.79669 0.83986 0.0
C1468 C 0.87587 0.81266 0.79645 0.0
C1469 C 0.85929 0.80352 0.83101 0.0
C1470 C 0.89593 0.79752 0.8264 0.0
C1471 C 0.8954 0.80652 0.80491 0.0
O1472 O 0.82781 0.83808 0.82661 0.0
O1473 O 0.79414 0.7953 0.78529 0.0
O1474 O 0.80495 0.78593 0.73313 0.0
O1475 O 0.81451 0.82575 0.75545 0.0
O1476 O 0.79596 0.83157 0.78638 0.0
O1477 O 0.83769 0.85718 0.798 0.0
O1478 O 0.78944 0.74661 0.72178 0.0
O1479 O 0.8251 0.78537 0.76493 0.0
O1480 O 0.81564 0.79525 0.81732 0.0
O1481 O 0.80227 0.75559 0.79517 0.0
O1482 O 0.82214 0.74912 0.76614 0.0
O1483 O 0.78557 0.72386 0.7485 0.0
C1484 C 0.78248 0.81086 0.78515 0.0
C1485 C 0.82011 0.87724 0.829 0.0
C1486 C 0.79531 0.90362 0.82115 0.0
C1487 C 0.80841 0.88725 0.8126 0.0
C1488 C 0.79429 0.91015 0.84632 0.0
C1489 C 0.81891 0.88411 0.85403 0.0
C1490 C 0.80608 0.9005 0.8626 0.0
C1491 C 0.80969 0.81009 0.73444 0.0
C1492 C 0.83333 0.85935 0.82048 0.0
C1493 C 0.91402 0.8104 0.79219 0.0
C1494 C 0.91367 0.82166 0.77207 0.0
C1495 C 0.83612 0.76941 0.76682 0.0
C1496 C 0.80289 0.71049 0.71381 0.0
C1497 C 0.81535 0.698 0.72677 0.0
C1498 C 0.82937 0.68445 0.71493 0.0
C1499 C 0.83099 0.6837 0.68998 0.0
C1500 C 0.80473 0.70939 0.6889 0.0
C1501 C 0.81877 0.69614 0.67712 0.0
C1502 C 0.80931 0.77113 0.81602 0.0
C1503 C 0.78781 0.72455 0.72581 0.0
H1504 H 0.80909 0.882 0.7932 0.0
H1505 H 0.78456 0.92297 0.85345 0.0
H1506 H 0.82785 0.87668 0.86693 0.0
H1507 H 0.80524 0.90572 0.88195 0.0
H1508 H 0.81384 0.69835 0.74593 0.0
H1509 H 0.84178 0.67354 0.68044 0.0
H1510 H 0.79527 0.71879 0.67854 0.0
H1511 H 0.82012 0.69544 0.65791 0.0
Tb1512 Tb 0.54355 0.52807 0.50972 0.0
C1513 C 0.60215 0.61593 0.57539 0.0
C1514 C 0.60583 0.6466 0.55035 0.0
C1515 C 0.60867 0.65905 0.59426 0.0
C1516 C 0.60177 0.62183 0.55277 0.0
C1517 C 0.60631 0.63446 0.5965 0.0
C1518 C 0.60844 0.66512 0.57117 0.0
C1519 C 0.60866 0.6034 0.6201 0.0
N1520 N 0.60043 0.59207 0.57664 0.0
C1521 C 0.60467 0.58574 0.59861 0.0
C1522 C 0.60906 0.62782 0.61909 0.0
Tb1523 Tb 0.59264 0.564 0.54054 0.0
N1524 N 0.59971 0.6034 0.53326 0.0
C1525 C 0.60412 0.60888 0.51105 0.0
C1526 C 0.60838 0.65205 0.52726 0.0
C1527 C 0.60805 0.63312 0.50762 0.0
H1528 H 0.60435 0.56695 0.59977 0.0
H1529 H 0.61071 0.63715 0.48979 0.0
H1530 H 0.61124 0.68423 0.56967 0.0
H1531 H 0.61139 0.59814 0.63742 0.0
H1532 H 0.60385 0.59464 0.49551 0.0
H1533 H 0.52393 0.4575 0.56349 0.0
H1534 H 0.61151 0.67082 0.5246 0.0
H1535 H 0.53272 0.52284 0.4501 0.0
H1536 H 0.53146 0.49926 0.55619 0.0
H1537 H 0.52548 0.4904 0.41337 0.0
H1538 H 0.61159 0.67354 0.61025 0.0
H1539 H 0.52275 0.42258 0.52987 0.0
H1540 H 0.52314 0.4074 0.48512 0.0
H1541 H 0.61231 0.64149 0.63574 0.0
H1542 H 0.52336 0.4164 0.44386 0.0
N1543 N 0.53564 0.48915 0.5185 0.0
C1544 C 0.53105 0.48463 0.54103 0.0
C1545 C 0.52618 0.44109 0.52645 0.0
C1546 C 0.52895 0.44553 0.50306 0.0
C1547 C 0.52673 0.46072 0.54542 0.0
C1548 C 0.5334 0.47001 0.49966 0.0
H1549 H 0.52356 0.44729 0.41687 0.0
N1550 N 0.53538 0.4986 0.47453 0.0
C1551 C 0.52775 0.48577 0.43107 0.0
C1552 C 0.53331 0.47496 0.4767 0.0
C1553 C 0.53175 0.50411 0.45203 0.0
C1554 C 0.5268 0.4615 0.43311 0.0
C1555 C 0.5291 0.45575 0.45616 0.0
O1556 O 0.51558 0.534 0.4906 0.0
O1557 O 0.56189 0.56609 0.52158 0.0
O1558 O 0.56789 0.57068 0.56741 0.0
O1559 O 0.53845 0.53911 0.54973 0.0
O1560 O 0.54716 0.5559 0.48696 0.0
O1561 O 0.51478 0.52829 0.52714 0.0
O1562 O 0.61907 0.55292 0.55713 0.0
O1563 O 0.57447 0.52555 0.52834 0.0
O1564 O 0.56844 0.52318 0.48219 0.0
O1565 O 0.59852 0.55343 0.50075 0.0
O1566 O 0.58848 0.5364 0.56333 0.0
O1567 O 0.6235 0.57144 0.52716 0.0
C1568 C 0.55818 0.57453 0.50231 0.0
C1569 C 0.48071 0.51915 0.5033 0.0
C1570 C 0.44182 0.52053 0.50273 0.0
C1571 C 0.46419 0.53252 0.50629 0.0
C1572 C 0.43627 0.49481 0.49602 0.0
C1573 C 0.47488 0.49357 0.49649 0.0
C1574 C 0.45272 0.48149 0.49283 0.0
C1575 C 0.54805 0.55677 0.5688 0.0
C1576 C 0.50377 0.53249 0.50865 0.0
C1577 C 0.52633 0.43141 0.45938 0.0
C1578 C 0.52623 0.42629 0.48285 0.0
C1579 C 0.57787 0.51749 0.54803 0.0
C1580 C 0.65477 0.57519 0.55455 0.0
C1581 C 0.67155 0.56229 0.55472 0.0
C1582 C 0.69306 0.57426 0.56458 0.0
C1583 C 0.69753 0.59949 0.57444 0.0
C1584 C 0.65938 0.60031 0.5646 0.0
C1585 C 0.68072 0.61236 0.57456 0.0
C1586 C 0.58863 0.53664 0.48119 0.0
C1587 C 0.6329 0.56185 0.54306 0.0
H1588 H 0.46883 0.55229 0.51194 0.0
H1589 H 0.41923 0.48502 0.49294 0.0
H1590 H 0.48742 0.48301 0.49422 0.0
H1591 H 0.44825 0.46172 0.48758 0.0
H1592 H 0.66793 0.54293 0.54659 0.0
H1593 H 0.71395 0.60919 0.58221 0.0
H1594 H 0.64662 0.61056 0.56455 0.0
H1595 H 0.68428 0.63177 0.58226 0.0
Tb1596 Tb 0.09207 0.55062 0.01568 0.0
C1597 C 0.01778 0.50231 0.06917 0.0
C1598 C 0.99851 0.46671 0.03978 0.0
C1599 C 0.99863 0.46621 0.08293 0.0
C1600 C 0.01175 0.49066 0.04538 0.0
C1601 C 0.01087 0.49053 0.0883 0.0
C1602 C 0.99248 0.45429 0.05867 0.0
C1603 C 0.0268 0.52843 0.11633 0.0
N1604 N 0.02935 0.52585 0.07349 0.0
C1605 C 0.03333 0.53928 0.09669 0.0
C1606 C 0.01582 0.50383 0.11216 0.0
Tb1607 Tb 0.03977 0.54202 0.04028 0.0
N1608 N 0.01754 0.50354 0.02779 0.0
C1609 C 1.00893 0.49412 1.00421 0.0
C1610 C 0.991 0.45637 0.01547 0.0
C1611 C 0.99591 0.47033 0.99766 0.0
H1612 H 0.04193 0.55825 0.10026 0.0
H1613 H 0.98972 0.46277 0.97885 0.0
H1614 H 0.98249 0.43579 0.05474 0.0
H1615 H 0.03035 0.53903 0.13468 0.0
H1616 H 0.0125 0.50448 0.99008 0.0
H1617 H 0.14029 0.63088 0.07719 0.0
H1618 H 0.98083 0.438 0.01036 0.0
H1619 H 0.08948 0.53422 0.95555 0.0
H1620 H 0.11766 0.58899 0.06603 0.0
H1621 H 0.10091 0.5534 0.92108 0.0
H1622 H 0.99333 0.45673 0.09737 0.0
H1623 H 0.15022 0.65498 0.04538 0.0
H1624 H 0.14951 0.65655 1.00088 0.0
H1625 H 0.01076 0.49548 0.12739 0.0
H1626 H 0.13897 0.63534 0.95829 0.0
N1627 N 0.11383 0.58929 0.02811 0.0
C1628 C 0.12172 0.59914 0.05183 0.0
C1629 C 0.14016 0.63655 0.04032 0.0
C1630 C 0.13324 0.62583 0.01596 0.0
C1631 C 0.13464 0.62298 0.05831 0.0
C1632 C 0.1201 0.60182 0.01041 0.0
H1633 H 0.12109 0.59673 0.92834 0.0
N1634 N 0.10244 0.56653 0.98232 0.0
C1635 C 0.10468 0.56396 0.93943 0.0
C1636 C 0.11424 0.58999 0.98662 0.0
C1637 C 0.09824 0.55313 0.9591 0.0
C1638 C 0.11603 0.58842 0.9436 0.0
C1639 C 0.12123 0.60168 0.96745 0.0
O1640 O 0.10851 0.52356 1.00023 0.0
O1641 O 0.06328 0.52402 0.02166 0.0
O1642 O 0.06113 0.52584 0.06195 0.0
O1643 O 0.09467 0.54826 0.0543 0.0
O1644 O 0.07615 0.51695 0.9896 0.0
O1645 O 0.12248 0.5489 0.03302 0.0
O1646 O 0.02217 0.5671 0.05744 0.0
O1647 O 0.06842 0.56875 0.03413 0.0
O1648 O 0.07044 0.56517 0.99276 0.0
O1649 O 0.03672 0.54381 1.00163 0.0
O1650 O 0.05602 0.57549 0.0664 0.0
O1651 O 0.01111 0.54658 0.02148 0.0
C1652 C 0.06105 0.50807 1.00209 0.0
C1653 C 0.14727 0.53074 0.00935 0.0
C1654 C 0.18096 0.51462 0.00878 0.0
C1655 C 0.16021 0.51531 0.01734 0.0
C1656 C 0.18858 0.5299 0.99257 0.0
C1657 C 0.15552 0.54589 0.99339 0.0
C1658 C 0.17606 0.54549 0.98513 0.0
C1659 C 0.0828 0.53299 0.06618 0.0
C1660 C 0.12496 0.53031 0.01711 0.0
C1661 C 0.13358 0.62595 0.97276 0.0
C1662 C 0.13957 0.63803 0.997 0.0
C1663 C 0.07068 0.58477 0.05365 0.0
C1664 C 0.9839 0.5591 0.04507 0.0
C1665 C 0.97057 0.57505 0.03916 0.0
C1666 C 0.94824 0.57111 0.04392 0.0
C1667 C 0.93979 0.55132 0.05506 0.0
C1668 C 0.97484 0.53959 0.05607 0.0
C1669 C 0.95298 0.53582 0.0611 0.0
C1670 C 0.04884 0.5574 0.98849 0.0
C1671 C 1.007 0.56251 0.03926 0.0
H1672 H 0.15393 0.50347 0.02964 0.0
H1673 H 0.20439 0.52988 0.98571 0.0
H1674 H 0.14601 0.55788 0.98713 0.0
H1675 H 0.18226 0.55719 0.97272 0.0
H1676 H 0.97741 0.59007 0.03046 0.0
H1677 H 0.9229 0.54791 0.05931 0.0
H1678 H 0.98465 0.5272 0.06073 0.0
H1679 H 0.94618 0.52071 0.06966 0.0
H1680 H 0.01658 0.21702 0.99877 0.0
H1681 H 0.05176 0.20652 0.93569 0.0
H1682 H 0.025 0.18034 0.01019 0.0
H1683 H 0.06072 0.16994 0.94737 0.0
H1684 H 0.05861 0.09186 0.96062 0.0
H1685 H 0.05196 0.12963 0.95048 0.0
H1686 H 0.0468 0.15701 0.02608 0.0
H1687 H 0.05293 0.11824 0.03601 0.0
C1688 C 0.0262 0.207 0.98716 0.0
C1689 C 0.03319 0.21538 0.96595 0.0
C1690 C 0.03129 0.18566 0.99398 0.0
C1691 C 0.04373 0.17119 0.98004 0.0
C1692 C 0.05082 0.17967 0.95882 0.0
C1693 C 0.0457 0.20109 0.95198 0.0
C1694 C 0.05628 0.10596 0.9753 0.0
C1695 C 0.05674 0.1015 0.99931 0.0
C1696 C 0.05251 0.12811 0.96941 0.0
C1697 C 0.04872 0.14741 0.98714 0.0
C1698 C 0.0493 0.14306 0.01141 0.0
C1699 C 0.05315 0.12066 0.01735 0.0
H1700 H 0.19622 0.8407 0.13437 0.0
H1701 H 0.14894 0.81216 0.18041 0.0
H1702 H 0.22591 0.83619 0.16185 0.0
H1703 H 0.17864 0.80632 0.20763 0.0
H1704 H 0.23801 0.80951 0.26252 0.0
H1705 H 0.20783 0.81655 0.23692 0.0
H1706 H 0.24725 0.81405 0.17648 0.0
H1707 H 0.27749 0.80881 0.20245 0.0
C1708 C 0.19203 0.83338 0.15041 0.0
C1709 C 0.16978 0.82698 0.15483 0.0
C1710 C 0.20933 0.83041 0.16633 0.0
C1711 C 0.20539 0.82037 0.18743 0.0
C1712 C 0.18303 0.81432 0.19205 0.0
C1713 C 0.16569 0.81767 0.17623 0.0
C1714 C 0.24031 0.81053 0.24376 0.0
C1715 C 0.26056 0.80809 0.23485 0.0
C1716 C 0.22269 0.81444 0.22876 0.0
C1717 C 0.22436 0.81605 0.20399 0.0
C1718 C 0.2447 0.8135 0.19523 0.0
C1719 C 0.26229 0.80988 0.21026 0.0
H1720 H 0.54412 0.85863 0.42319 0.0
H1721 H 0.52738 0.84216 0.49253 0.0
H1722 H 0.54844 0.90181 0.43902 0.0
H1723 H 0.53077 0.88619 0.50855 0.0
H1724 H 0.55932 0.97218 0.53487 0.0
H1725 H 0.55181 0.92716 0.52243 0.0
H1726 H 0.5322 0.93346 0.4492 0.0
H1727 H 0.54086 0.9777 0.46141 0.0
C1728 C 0.54102 0.86414 0.44188 0.0
C1729 C 0.53524 0.84636 0.45634 0.0
C1730 C 0.54331 0.88933 0.45108 0.0
C1731 C 0.53959 0.89832 0.47524 0.0
C1732 C 0.5339 0.88053 0.48992 0.0
C1733 C 0.5318 0.85505 0.48065 0.0
C1734 C 0.55299 0.9638 0.51624 0.0
C1735 C 0.55057 0.97879 0.49921 0.0
C1736 C 0.54873 0.93781 0.50896 0.0
C1737 C 0.54189 0.92594 0.48441 0.0
C1738 C 0.53826 0.94122 0.468 0.0
C1739 C 0.54286 0.96691 0.47513 0.0
H1740 H 0.56267 0.30372 0.68873 0.0
H1741 H 0.52349 0.31578 0.62807 0.0
H1742 H 0.53086 0.29919 0.71151 0.0
H1743 H 0.49129 0.31167 0.65129 0.0
H1744 H 0.43392 0.27872 0.6958 0.0
H1745 H 0.46394 0.28435 0.66958 0.0
H1746 H 0.50876 0.32339 0.73233 0.0
H1747 H 0.47914 0.3174 0.75816 0.0
C1748 C 0.54723 0.30546 0.68018 0.0
C1749 C 0.54584 0.31026 0.65649 0.0
C1750 C 0.52887 0.30305 0.69342 0.0
C1751 C 0.50833 0.30545 0.68359 0.0
C1752 C 0.50672 0.30965 0.65958 0.0
C1753 C 0.52524 0.31208 0.64624 0.0
C1754 C 0.45013 0.28885 0.70386 0.0
C1755 C 0.45409 0.29734 0.7292 0.0
C1756 C 0.46742 0.29205 0.68882 0.0
C1757 C 0.4891 0.30387 0.69876 0.0
C1758 C 0.49259 0.3135 0.72392 0.0
C1759 C 0.47548 0.31023 0.73882 0.0
H1760 H 0.01654 0.8533 0.65619 0.0
H1761 H 0.0449 0.79887 0.61368 0.0
H1762 H 0.02965 0.88201 0.6297 0.0
H1763 H 0.05898 0.82748 0.58839 0.0
H1764 H 0.06007 0.87038 0.52933 0.0
H1765 H 0.04619 0.84422 0.55731 0.0
H1766 H 0.05967 0.90737 0.61615 0.0
H1767 H 0.07243 0.9337 0.58742 0.0
C1768 C 0.02589 0.84765 0.64147 0.0
C1769 C 0.02946 0.82377 0.63683 0.0
C1770 C 0.03347 0.86408 0.62632 0.0
C1771 C 0.04506 0.85699 0.6065 0.0
C1772 C 0.04948 0.83343 0.60283 0.0
C1773 C 0.04156 0.817 0.61756 0.0
C1774 C 0.06002 0.8786 0.54826 0.0
C1775 C 0.06748 0.90393 0.55633 0.0
C1776 C 0.05222 0.86363 0.56441 0.0
C1777 C 0.05216 0.87353 0.58923 0.0
C1778 C 0.05931 0.89907 0.5972 0.0
C1779 C 0.06674 0.91415 0.58084 0.0
H1780 H 0.54422 0.87608 0.89493 0.0
H1781 H 0.56265 0.81907 0.84409 0.0
H1782 H 0.51205 0.87384 0.86753 0.0
H1783 H 0.52992 0.81638 0.8168 0.0
H1784 H 0.48489 0.84074 0.76245 0.0
H1785 H 0.51566 0.83918 0.79026 0.0
H1786 H 0.47674 0.8496 0.85055 0.0
H1787 H 0.44624 0.85241 0.82276 0.0
C1788 C 0.54132 0.86283 0.878 0.0
C1789 C 0.55616 0.84776 0.87178 0.0
C1790 C 0.52268 0.86144 0.86231 0.0
C1791 C 0.51823 0.84487 0.83991 0.0
C1792 C 0.53292 0.82957 0.83376 0.0
C1793 C 0.55167 0.83102 0.84947 0.0
C1794 C 0.48289 0.84284 0.78166 0.0
C1795 C 0.4631 0.84704 0.79034 0.0
C1796 C 0.5005 0.8416 0.79761 0.0
C1797 C 0.49883 0.84438 0.82274 0.0
C1798 C 0.47879 0.84776 0.83137 0.0
C1799 C 0.46116 0.84908 0.81538 0.0
H1800 H 0.52052 0.1927 0.16192 0.0
H1801 H 0.48199 0.19398 0.09603 0.0
H1802 H 0.52489 0.15151 0.14449 0.0
H1803 H 0.48582 0.15274 0.07892 0.0
H1804 H 0.54512 0.12436 0.04757 0.0
H1805 H 0.52726 0.15344 0.07072 0.0
H1806 H 0.50855 0.10364 0.11937 0.0
H1807 H 0.52583 0.07346 0.095 0.0
C1808 C 0.51184 0.18355 0.14435 0.0
C1809 C 0.50116 0.19644 0.1301 0.0
C1810 C 0.51437 0.16001 0.13438 0.0
C1811 C 0.50607 0.14931 0.11023 0.0
C1812 C 0.49256 0.1608 0.09751 0.0
C1813 C 0.4903 0.18432 0.10729 0.0
C1814 C 0.53662 0.11921 0.0627 0.0
C1815 C 0.53609 0.09634 0.06892 0.0
C1816 C 0.52649 0.13591 0.07605 0.0
C1817 C 0.51592 0.13041 0.09633 0.0
C1818 C 0.51624 0.10802 0.10348 0.0
C1819 C 0.52621 0.09095 0.08971 0.0
H1820 H 0.19556 0.32675 0.39176 0.0
H1821 H 0.15525 0.3134 0.32342 0.0
H1822 H 0.22768 0.32356 0.37 0.0
H1823 H 0.18758 0.31025 0.30158 0.0
H1824 H 0.25672 0.33757 0.27581 0.0
H1825 H 0.22361 0.3395 0.29677 0.0
H1826 H 0.24153 0.29164 0.34244 0.0
H1827 H 0.27427 0.28974 0.32157 0.0
C1828 C 0.19352 0.32291 0.37207 0.0
C1829 C 0.17287 0.32029 0.3593 0.0
C1830 C 0.21192 0.32105 0.35962 0.0
C1831 C 0.21014 0.31678 0.33411 0.0
C1832 C 0.18944 0.31381 0.32127 0.0
C1833 C 0.17093 0.31539 0.33375 0.0
C1834 C 0.2534 0.32741 0.29025 0.0
C1835 C 0.26763 0.31296 0.29663 0.0
C1836 C 0.23449 0.32842 0.30215 0.0
C1837 C 0.22992 0.31554 0.32109 0.0
C1838 C 0.24463 0.30178 0.32795 0.0
C1839 C 0.26331 0.30055 0.31588 0.0
H1840 H 0.01438 0.0907 0.22649 0.0
H1841 H 0.95142 0.05448 0.18814 0.0
H1842 H 0.03116 0.088 0.18844 0.0
H1843 H 0.96823 0.05172 0.14941 0.0
H1844 H 1.00722 0.03172 0.08123 0.0
H1845 H 0.98875 0.03643 0.11851 0.0
H1846 H 0.04229 0.09616 0.15198 0.0
H1847 H 0.06053 0.09138 0.11473 0.0
C1848 C 1.00368 0.08275 0.20986 0.0
C1849 C 0.98088 0.07382 0.21156 0.0
C1850 C 0.01361 0.08099 0.18738 0.0
C1851 C 1.00174 0.06958 0.16436 0.0
C1852 C 0.97875 0.06068 0.1659 0.0
C1853 C 0.96871 0.0627 0.18859 0.0
C1854 C 0.01528 0.046 0.09641 0.0
C1855 C 0.03607 0.06091 0.09386 0.0
C1856 C 1.00436 0.04885 0.11835 0.0
C1857 C 0.01337 0.06675 0.13974 0.0
C1858 C 0.03414 0.08173 0.13702 0.0
C1859 C 0.04495 0.07899 0.11503 0.0
H1860 H 0.26975 0.63103 0.43437 0.0
H1861 H 0.31538 0.69961 0.46408 0.0
H1862 H 0.25837 0.64837 0.39982 0.0
H1863 H 0.30443 0.71667 0.42963 0.0
H1864 H 0.29194 0.73377 0.35495 0.0
H1865 H 0.30488 0.71072 0.3834 0.0
H1866 H 0.23812 0.68375 0.39759 0.0
H1867 H 0.22511 0.70729 0.3697 0.0
C1868 C 0.27764 0.64958 0.43321 0.0
C1869 C 0.2934 0.66403 0.45182 0.0
C1870 C 0.27106 0.65953 0.4136 0.0
C1871 C 0.28055 0.68385 0.41206 0.0
C1872 C 0.29699 0.69782 0.43019 0.0
C1873 C 0.30318 0.6881 0.44996 0.0
C1874 C 0.27998 0.72298 0.36415 0.0
C1875 C 0.25748 0.72266 0.3602 0.0
C1876 C 0.28741 0.70966 0.3803 0.0
C1877 C 0.2725 0.69547 0.3927 0.0
C1878 C 0.24994 0.69427 0.38804 0.0
C1879 C 0.24252 0.70779 0.37205 0.0
H1880 H 0.61619 0.02806 0.71453 0.0
H1881 H 0.67864 0.03014 0.68507 0.0
H1882 H 0.59797 0.02256 0.67421 0.0
H1883 H 0.65998 0.02364 0.64402 0.0
H1884 H 0.62423 0.05551 0.58639 0.0
H1885 H 0.6436 0.04983 0.6228 0.0
H1886 H 0.58622 0.99788 0.63486 0.0
H1887 H 0.5665 1.00397 0.59842 0.0
C1888 C 0.62604 0.02688 0.69935 0.0
C1889 C 0.649 0.03007 0.7031 0.0
C1890 C 0.61546 0.0234 0.67609 0.0
C1891 C 0.62749 0.02284 0.65584 0.0
C1892 C 0.65029 0.02439 0.65934 0.0
C1893 C 0.66097 0.02794 0.6828 0.0
C1894 C 0.61569 0.04273 0.59665 0.0
C1895 C 0.59361 0.03057 0.58972 0.0
C1896 C 0.62697 0.03924 0.61744 0.0
C1897 C 0.6165 0.02345 0.63183 0.0
C1898 C 0.59468 1.01046 0.62435 0.0
C1899 C 0.58334 0.014 0.60351 0.0
H1900 H 0.35028 0.40444 0.96139 0.0
H1901 H 0.31076 0.33545 0.97004 0.0
H1902 H 0.3531 0.38723 0.91922 0.0
H1903 H 0.31171 0.31852 0.9271 0.0
H1904 H 0.31975 0.28948 0.84811 0.0
H1905 H 0.3264 0.3034 0.8925 0.0
H1906 H 0.33397 0.37841 0.88283 0.0
H1907 H 0.32908 0.36456 0.83947 0.0
C1908 C 0.34199 0.38557 0.95411 0.0
C1909 C 0.3301 0.37143 0.96898 0.0
C1910 C 0.34337 0.37563 0.92971 0.0
C1911 C 0.33211 0.35145 0.919 0.0
C1912 C 0.32079 0.33706 0.9343 0.0
C1913 C 0.32006 0.34684 0.95901 0.0
C1914 C 0.32366 0.30894 0.85568 0.0
C1915 C 0.32437 0.32596 0.84027 0.0
C1916 C 0.32709 0.31702 0.8812 0.0
C1917 C 0.33079 0.34226 0.89184 0.0
C1918 C 0.33186 0.35898 0.87599 0.0
C1919 C 0.32883 0.35099 0.85083 0.0
H1920 H 0.94756 0.07577 0.36934 0.0
H1921 H 1.00436 0.06793 0.33227 0.0
H1922 H 0.96587 0.06935 0.40653 0.0
H1923 H 0.02287 0.06111 0.36946 0.0
H1924 H 0.0595 0.05876 0.44611 0.0
H1925 H 0.04211 0.06462 0.4075 0.0
H1926 H 0.97919 0.0529 0.43587 0.0
H1927 H 0.99648 0.04742 0.47368 0.0
C1928 C 0.96399 0.07257 0.36878 0.0
C1929 C 0.97383 0.07255 0.3466 0.0
C1930 C 0.97488 0.06862 0.39073 0.0
C1931 C 0.99664 0.06426 0.39256 0.0
C1932 C 1.00648 0.06434 0.37025 0.0
C1933 C 0.99554 0.06828 0.34826 0.0
C1934 C 0.0419 0.05711 0.44416 0.0
C1935 C 0.02984 0.05207 0.4641 0.0
C1936 C 0.03158 0.06065 0.42149 0.0
C1937 C 1.00848 0.05975 0.41706 0.0
C1938 C 0.99675 0.05447 0.43713 0.0
C1939 C 1.00695 0.05096 0.45948 0.0
H1940 H 0.32798 0.67135 0.59076 0.0
H1941 H 0.27815 0.71204 0.58035 0.0
H1942 H 0.33088 0.68702 0.63493 0.0
H1943 H 0.28095 0.7273 0.62366 0.0
H1944 H 0.27768 0.73881 0.70304 0.0
H1945 H 0.27375 0.71304 0.66263 0.0
H1946 H 0.34416 0.73024 0.66138 0.0
H1947 H 0.34818 0.75579 0.70183 0.0
C1948 C 0.31757 0.68339 0.59788 0.0
C1949 C 0.30311 0.69076 0.58209 0.0
C1950 C 0.31922 0.69235 0.62305 0.0
C1951 C 0.30602 0.70825 0.63269 0.0
C1952 C 0.2911 0.71482 0.61687 0.0
C1953 C 0.28973 0.70629 0.59196 0.0
C1954 C 0.29234 0.7368 0.69431 0.0
C1955 C 0.31319 0.74976 0.70538 0.0
C1956 C 0.29009 0.72205 0.6712 0.0
C1957 C 0.30866 0.71982 0.65881 0.0
C1958 C 0.32959 0.7315 0.67054 0.0
C1959 C 0.33184 0.74638 0.69357 0.0
H1960 H 0.71029 0.0635 0.84847 0.0
H1961 H 0.64557 0.0284 0.81263 0.0
H1962 H 0.6942 0.07279 0.88699 0.0
H1963 H 0.62966 0.0379 0.84997 0.0
H1964 H 0.59945 0.05195 0.91277 0.0
H1965 H 0.62422 0.03248 0.88951 0.0
H1966 H 0.67206 0.10127 0.90192 0.0
H1967 H 0.64842 0.12026 0.92812 0.0
C1968 C 0.69276 0.05741 0.84897 0.0
C1969 C 0.67908 0.04564 0.82762 0.0
C1970 C 0.68354 0.06277 0.8709 0.0
C1971 C 0.66062 0.05613 0.87165 0.0
C1972 C 0.64737 0.04296 0.85042 0.0
C1973 C 0.65648 0.0378 0.82877 0.0
C1974 C 0.61557 0.0629 0.91169 0.0
C1975 C 0.62144 0.08813 0.92181 0.0
C1976 C 0.62975 0.05166 0.89793 0.0
C1977 C 0.64972 0.06554 0.89293 0.0
C1978 C 0.65667 0.09005 0.90509 0.0
C1979 C 0.64278 0.10113 0.91965 0.0
H1980 H 0.34579 0.33285 0.09099 0.0
H1981 H 0.30815 0.38782 0.11015 0.0
H1982 H 0.34094 0.32023 0.12933 0.0
H1983 H 0.30289 0.37454 0.14924 0.0
H1984 H 0.3173 0.35685 0.22708 0.0
H1985 H 0.32058 0.37224 0.18909 0.0
H1986 H 0.31396 0.29832 0.14958 0.0
H1987 H 0.31148 0.28319 0.18735 0.0
C1988 C 0.33626 0.34228 0.10328 0.0
C1989 C 0.3272 0.36137 0.09695 0.0
C1990 C 0.33335 0.33479 0.12549 0.0
C1991 C 0.32116 0.34591 0.14254 0.0
C1992 C 0.31241 0.36544 0.13667 0.0
C1993 C 0.31536 0.37305 0.11416 0.0
C1994 C 0.31672 0.34389 0.2103 0.0
C1995 C 0.31449 0.31873 0.21055 0.0
C1996 C 0.31835 0.35274 0.18838 0.0
C1997 C 0.31782 0.33669 0.16601 0.0
C1998 C 0.31495 0.31147 0.16632 0.0
C1999 C 0.31335 0.30268 0.18812 0.0
H2000 H 0.25921 0.95893 0.02028 0.0
H2001 H 0.31373 0.0173 0.05527 0.0
H2002 H 0.23424 0.98635 0.0282 0.0
H2003 H 0.28852 0.04488 0.06325 0.0
H2004 H 0.22823 0.07426 0.0946 0.0
H2005 H 0.25596 0.04974 0.08774 0.0
H2006 H 0.22831 0.0236 0.01307 0.0
H2007 H 0.20098 0.04828 0.01969 0.0
C2008 C 0.26586 0.9776 0.02978 0.0
C2009 C 0.28846 0.98596 0.0371 0.0
C2010 C 0.25156 0.99335 0.03417 0.0
C2011 C 0.25946 0.01781 0.04615 0.0
C2012 C 0.28198 0.02609 0.05403 0.0
C2013 C 0.29639 1.01034 0.04941 0.0
C2014 C 0.22832 0.06361 0.07662 0.0
C2015 C 0.21217 0.06294 0.05779 0.0
C2016 C 0.24417 0.04955 0.07272 0.0
C2017 C 0.24407 0.03448 0.04997 0.0
C2018 C 0.22848 0.03461 0.03094 0.0
C2019 C 0.2128 0.04873 0.03477 0.0
H2020 H 0.74265 0.63155 0.98893 0.0
H2021 H 0.71429 0.69257 0.01659 0.0
H2022 H 0.70736 0.60335 0.98884 0.0
H2023 H 0.6797 0.66473 0.01819 0.0
H2024 H 0.61363 0.61418 1.00328 0.0
H2025 H 0.64841 0.64027 0.99855 0.0
H2026 H 0.68163 0.58296 0.00976 0.0
H2027 H 0.64624 0.55633 0.01281 0.0
C2028 C 0.7289 0.63895 0.9951 0.0
C2029 C 0.73135 0.66442 1.0025 0.0
C2030 C 0.70858 0.62272 0.99528 0.0
C2031 C 0.69019 0.63142 1.00338 0.0
C2032 C 0.69293 0.65697 0.01106 0.0
C2033 C 0.71301 0.67314 0.01033 0.0
C2034 C 0.62837 0.6071 1.00455 0.0
C2035 C 0.62712 0.58316 0.00842 0.0
C2036 C 0.64853 0.62222 1.00209 0.0
C2037 C 0.66836 0.61424 1.00418 0.0
C2038 C 0.66696 0.58997 0.00769 0.0
C2039 C 0.6466 0.57459 0.00953 0.0
H2040 H 0.74676 0.4676 0.25165 0.0
H2041 H 0.69732 0.43127 0.29054 0.0
H2042 H 0.7665 0.43423 0.25166 0.0
H2043 H 0.71744 0.3985 0.29146 0.0
H2044 H 0.76883 0.35227 0.31136 0.0
H2045 H 0.74923 0.38462 0.30828 0.0
H2046 H 0.77108 0.38881 0.23795 0.0
H2047 H 0.78997 0.35484 0.24049 0.0
C2048 C 0.73975 0.45264 0.26031 0.0
C2049 C 0.71955 0.45335 0.27093 0.0
C2050 C 0.75141 0.4329 0.26029 0.0
C2051 C 0.74443 0.4123 0.27162 0.0
C2052 C 0.72434 0.4132 0.28244 0.0
C2053 C 0.71236 0.43254 0.28182 0.0
C2054 C 0.76979 0.35974 0.29493 0.0
C2055 C 0.78226 0.34991 0.2766 0.0
C2056 C 0.75805 0.37889 0.29312 0.0
C2057 C 0.75774 0.39081 0.27286 0.0
C2058 C 0.77032 0.38123 0.2543 0.0
C2059 C 0.78164 0.36128 0.25582 0.0
H2060 H 0.90879 0.43112 0.48667 0.0
H2061 H 0.89456 0.48915 0.53981 0.0
H2062 H 0.94656 0.4542 0.48872 0.0
H2063 H 0.93244 0.5116 0.54289 0.0
H2064 H 1.00024 0.55381 0.53882 0.0
H2065 H 0.9615 0.53425 0.52663 0.0
H2066 H 0.97811 0.46319 0.51612 0.0
H2067 H 0.01674 0.48309 0.52687 0.0
C2068 C 0.91374 0.44883 0.49877 0.0
C2069 C 0.89875 0.45819 0.51325 0.0
C2070 C 0.93543 0.46203 0.50006 0.0
C2071 C 0.94276 0.48468 0.51623 0.0
C2072 C 0.92745 0.49443 0.52997 0.0
C2073 C 0.90569 0.48143 0.52835 0.0
C2074 C 0.9955 0.53407 0.53316 0.0
C2075 C 0.01133 0.51988 0.53283 0.0
C2076 C 0.97333 0.5228 0.52649 0.0
C2077 C 0.96653 0.49705 0.52032 0.0
C2078 C 0.98262 0.48302 0.52008 0.0
C2079 C 1.00476 0.49434 0.52635 0.0
H2080 H 0.3716 0.06852 0.27286 0.0
H2081 H 0.42784 0.12958 0.28852 0.0
H2082 H 0.3503 0.09353 0.25516 0.0
H2083 H 0.40643 0.15466 0.27046 0.0
H2084 H 0.35298 0.19735 0.2551 0.0
H2085 H 0.37398 0.17385 0.27605 0.0
H2086 H 0.35084 0.11087 0.21808 0.0
H2087 H 0.32971 0.13418 0.19745 0.0
C2088 C 0.37942 0.08733 0.27259 0.0
C2089 C 0.40147 0.09702 0.28195 0.0
C2090 C 0.36721 0.10162 0.26233 0.0
C2091 C 0.37673 0.12599 0.26119 0.0
C2092 C 0.3986 0.13597 0.2712 0.0
C2093 C 0.41088 0.12159 0.28144 0.0
C2094 C 0.35235 0.17846 0.24695 0.0
C2095 C 0.33978 0.16764 0.22459 0.0
C2096 C 0.36448 0.16507 0.25883 0.0
C2097 C 0.36404 0.14049 0.24874 0.0
C2098 C 0.35135 0.12969 0.22646 0.0
C2099 C 0.33942 0.14311 0.21451 0.0
H2100 H 0.37579 0.182 0.51125 0.0
H2101 H 0.32909 0.12634 0.53557 0.0
H2102 H 0.40504 0.16051 0.51877 0.0
H2103 H 0.35809 0.10507 0.5431 0.0
H2104 H 0.4174 0.08572 0.57797 0.0
H2105 H 0.39122 0.11058 0.57114 0.0
H2106 H 0.41716 0.12112 0.50351 0.0
H2107 H 0.4434 0.09567 0.51018 0.0
C2108 C 0.37176 0.16528 0.51831 0.0
C2109 C 0.35002 0.156 0.52288 0.0
C2110 C 0.38852 0.15286 0.52247 0.0
C2111 C 0.38405 0.13104 0.53168 0.0
C2112 C 0.36232 0.12195 0.53634 0.0
C2113 C 0.34559 0.13414 0.5319 0.0
C2114 C 0.41758 0.09319 0.56154 0.0
C2115 C 0.43238 0.08814 0.54442 0.0
C2116 C 0.40249 0.10754 0.55763 0.0
C2117 C 0.4017 0.1176 0.53656 0.0
C2118 C 0.41724 0.11371 0.51997 0.0
C2119 C 0.43236 0.09913 0.52383 0.0
H2120 H 0.69054 0.61855 0.28947 0.0
H2121 H 0.74579 0.5846 0.28118 0.0
H2122 H 0.71386 0.65812 0.28977 0.0
H2123 H 0.7697 0.6252 0.28126 0.0
H2124 H 0.81086 0.70871 0.30027 0.0
H2125 H 0.7895 0.66713 0.30034 0.0
H2126 H 0.73225 0.68551 0.26848 0.0
H2127 H 0.75334 0.72647 0.26856 0.0
C2128 C 0.70777 0.61922 0.28762 0.0
C2129 C 0.71565 0.59728 0.28524 0.0
C2130 C 0.72144 0.64253 0.28758 0.0
C2131 C 0.74422 0.64595 0.2852 0.0
C2132 C 0.75245 0.62414 0.28321 0.0
C2133 C 0.73854 0.60044 0.28308 0.0
C2134 C 0.79375 0.70397 0.29314 0.0
C2135 C 0.78434 0.72188 0.28437 0.0
C2136 C 0.78127 0.6797 0.29314 0.0
C2137 C 0.75854 0.67194 0.28461 0.0
C2138 C 0.74932 0.68995 0.27579 0.0
C2139 C 0.76174 0.71398 0.27568 0.0
H2140 H 0.91844 0.46752 0.84637 0.0
H2141 H 0.9038 0.47959 0.77418 0.0
H2142 H 0.89285 0.42751 0.83632 0.0
H2143 H 0.88004 0.43902 0.76309 0.0
H2144 H 0.82457 0.37327 0.75228 0.0
H2145 H 0.84747 0.41436 0.7651 0.0
H2146 H 0.88647 0.3879 0.81654 0.0
H2147 H 0.86221 0.34751 0.80491 0.0
C2148 C 0.9099 0.46136 0.82825 0.0
C2149 C 0.91288 0.47654 0.81108 0.0
C2150 C 0.89536 0.43834 0.82232 0.0
C2151 C 0.88413 0.42969 0.79878 0.0
C2152 C 0.88765 0.445 0.7816 0.0
C2153 C 0.90151 0.46826 0.78782 0.0
C2154 C 0.83789 0.37652 0.76656 0.0
C2155 C 0.84131 0.35754 0.77807 0.0
C2156 C 0.8513 0.4 0.77376 0.0
C2157 C 0.86912 0.4048 0.79193 0.0
C2158 C 0.87271 0.38539 0.80299 0.0
C2159 C 0.85888 0.36208 0.79623 0.0
H2160 H 0.09561 0.86512 0.06119 0.0
H2161 H 0.105 0.90798 0.1337 0.0
H2162 H 0.08813 0.90035 0.04501 0.0
H2163 H 0.09858 0.94319 0.11792 0.0
H2164 H 0.0725 1.00286 0.09123 0.0
H2165 H 0.078 0.96614 0.10427 0.0
H2166 H 0.09335 0.938 0.03239 0.0
H2167 H 0.08673 0.97526 0.01909 0.0
C2168 C 0.09634 0.88208 0.07383 0.0
C2169 C 0.10098 0.88303 0.09909 0.0
C2170 C 0.09201 0.90269 0.06443 0.0
C2171 C 0.09216 0.92558 0.07969 0.0
C2172 C 0.09737 0.92642 0.1049 0.0
C2173 C 0.10144 0.90586 0.11423 0.0
C2174 C 0.07679 0.9888 0.0779 0.0
C2175 C 0.07879 0.99261 0.05385 0.0
C2176 C 0.0804 0.96738 0.08563 0.0
C2177 C 0.08691 0.94823 0.07002 0.0
C2178 C 0.08845 0.9517 0.04554 0.0
C2179 C 0.08453 0.97333 0.03765 0.0
H2180 H 0.97659 0.26633 0.87073 0.0
H2181 H 0.94739 0.29702 0.93296 0.0
H2182 H 0.94521 0.26959 0.84401 0.0
H2183 H 0.91686 0.30119 0.90671 0.0
H2184 H 0.85352 0.29002 0.85821 0.0
H2185 H 0.88461 0.28507 0.88333 0.0
H2186 H 0.92478 0.29155 0.82404 0.0
H2187 H 0.89309 0.29579 0.79863 0.0
C2188 C 0.96356 0.27375 0.87885 0.0
C2189 C 0.96486 0.28111 0.90438 0.0
C2190 C 0.94541 0.27588 0.86337 0.0
C2191 C 0.92778 0.28559 0.8727 0.0
C2192 C 0.92935 0.29303 0.89825 0.0
C2193 C 0.94727 0.29076 0.91359 0.0
C2194 C 0.86899 0.29076 0.85048 0.0
C2195 C 0.87045 0.29376 0.82621 0.0
C2196 C 0.88717 0.2879 0.8651 0.0
C2197 C 0.90797 0.2881 0.85633 0.0
C2198 C 0.90937 0.29096 0.83189 0.0
C2199 C 0.89103 0.29362 0.81716 0.0
H2200 H 0.57924 0.23942 0.61682 0.0
H2201 H 0.61522 0.24382 0.55417 0.0
H2202 H 0.5716 0.19463 0.60607 0.0
H2203 H 0.60787 0.19919 0.54361 0.0
H2204 H 0.57863 0.11541 0.59606 0.0
H2205 H 0.58705 0.15999 0.60514 0.0
H2206 H 0.58212 0.16066 0.52836 0.0
H2207 H 0.5736 0.11549 0.51936 0.0
C2208 C 0.58555 0.23098 0.60073 0.0
C2209 C 0.59795 0.2458 0.58655 0.0
C2210 C 0.5813 0.20502 0.59456 0.0
C2211 C 0.58914 0.19264 0.57386 0.0
C2212 C 0.60124 0.20753 0.55951 0.0
C2213 C 0.6056 0.23343 0.56575 0.0
C2214 C 0.5796 0.125 0.581 0.0
C2215 C 0.57573 0.1115 0.55694 0.0
C2216 C 0.5842 0.15082 0.58626 0.0
C2217 C 0.58507 0.1646 0.56767 0.0
C2218 C 0.58177 0.15111 0.5434 0.0
C2219 C 0.57698 0.12502 0.53812 0.0
H2220 H 0.56769 0.76277 0.3594 0.0
H2221 H 0.60973 0.78975 0.42662 0.0
H2222 H 0.59965 0.76619 0.33676 0.0
H2223 H 0.64207 0.79222 0.40405 0.0
H2224 H 0.69453 0.81899 0.35363 0.0
H2225 H 0.66406 0.81322 0.37896 0.0
H2226 H 0.62929 0.7512 0.32453 0.0
H2227 H 0.65921 0.75798 0.29905 0.0
C2228 C 0.58382 0.76905 0.36944 0.0
C2229 C 0.58597 0.7759 0.39494 0.0
C2230 C 0.60236 0.77089 0.35638 0.0
C2231 C 0.62387 0.7794 0.3683 0.0
C2232 C 0.62599 0.78591 0.39394 0.0
C2233 C 0.60736 0.78428 0.40701 0.0
C2234 C 0.6805 0.80388 0.34738 0.0
C2235 C 0.67936 0.7889 0.32435 0.0
C2236 C 0.6629 0.8005 0.36191 0.0
C2237 C 0.64369 0.78189 0.3539 0.0
C2238 C 0.64326 0.76621 0.3313 0.0
C2239 C 0.66064 0.76983 0.31671 0.0
H2240 H 0.08032 0.26033 0.41422 0.0
H2241 H 0.14433 0.28645 0.45436 0.0
H2242 H 0.07179 0.22823 0.43795 0.0
H2243 H 0.13635 0.25381 0.47764 0.0
H2244 H 0.10093 0.22437 0.53903 0.0
H2245 H 0.11321 0.24955 0.50956 0.0
H2246 H 0.07713 0.19228 0.45127 0.0
H2247 H 0.06381 0.16776 0.48083 0.0
C2248 C 0.093 0.25825 0.42721 0.0
C2249 C 0.11307 0.27549 0.43228 0.0
C2250 C 0.0881 0.24 0.441 0.0
C2251 C 0.10322 0.23874 0.46011 0.0
C2252 C 0.12413 0.25463 0.46349 0.0
C2253 C 0.12891 0.27299 0.44984 0.0
C2254 C 0.09544 0.21726 0.51996 0.0
C2255 C 0.08139 0.19403 0.51237 0.0
C2256 C 0.10281 0.2315 0.50297 0.0
C2257 C 0.0964 0.22284 0.47794 0.0
C2258 C 0.08237 0.19958 0.47036 0.0
C2259 C 0.07489 0.18542 0.48735 0.0
H2260 H 0.60325 0.28927 0.16251 0.0
H2261 H 0.56202 0.26362 0.21577 0.0
H2262 H 0.63548 0.28469 0.18644 0.0
H2263 H 0.59433 0.2591 0.23966 0.0
H2264 H 0.65173 0.22109 0.25302 0.0
H2265 H 0.61986 0.23036 0.23272 0.0
H2266 H 0.65874 0.30076 0.22653 0.0
H2267 H 0.69064 0.29184 0.24747 0.0
C2268 C 0.60108 0.28298 0.17948 0.0
C2269 C 0.58 0.27671 0.18713 0.0
C2270 C 0.61958 0.28045 0.19323 0.0
C2271 C 0.61742 0.27135 0.21482 0.0
C2272 C 0.59647 0.26589 0.22294 0.0
C2273 C 0.57798 0.26868 0.20933 0.0
C2274 C 0.65348 0.23874 0.24773 0.0
C2275 C 0.67383 0.25573 0.25199 0.0
C2276 C 0.63517 0.24402 0.23606 0.0
C2277 C 0.63676 0.26633 0.22812 0.0
C2278 C 0.65706 0.28333 0.23228 0.0
C2279 C 0.67536 0.27815 0.24417 0.0
H2280 H 0.65103 0.91103 0.94136 0.0
H2281 H 0.60901 0.90676 0.87619 0.0
H2282 H 0.64154 0.94925 0.95941 0.0
H2283 H 0.59916 0.94518 0.89456 0.0
H2284 H 0.58119 0.97277 0.99269 0.0
H2285 H 0.59887 0.94423 0.96818 0.0
H2286 H 0.61495 0.99486 0.91976 0.0
H2287 H 0.59785 0.02431 0.94528 0.0
C2288 C 0.64044 0.91886 0.93056 0.0
C2289 C 0.63061 0.90606 0.90754 0.0
C2290 C 0.635 0.94065 0.94088 0.0
C2291 C 0.61942 0.94982 0.92844 0.0
C2292 C 0.61132 0.93844 0.90437 0.0
C2293 C 0.61696 0.91658 0.89388 0.0
C2294 C 0.58899 0.97815 0.97724 0.0
C2295 C 0.58889 1.00104 0.97137 0.0
C2296 C 0.5989 0.96174 0.96308 0.0
C2297 C 0.60863 0.96766 0.94245 0.0
C2298 C 0.60771 0.99008 0.93575 0.0
C2299 C 0.59792 1.00678 0.95024 0.0
H2300 H 0.93646 0.76313 0.66646 0.0
H2301 H 0.97152 0.77505 0.73773 0.0
H2302 H 0.90186 0.76006 0.68447 0.0
H2303 H 0.93682 0.77273 0.75594 0.0
H2304 H 0.86859 0.74758 0.77968 0.0
H2305 H 0.90244 0.74563 0.76036 0.0
H2306 H 0.88253 0.78615 0.70795 0.0
H2307 H 0.84879 0.78749 0.72694 0.0
C2308 C 0.93679 0.76518 0.68602 0.0
C2309 C 0.95677 0.76945 0.70068 0.0
C2310 C 0.91693 0.76353 0.69637 0.0
C2311 C 0.9165 0.76627 0.72169 0.0
C2312 C 0.93648 0.7702 0.73635 0.0
C2313 C 0.9564 0.77171 0.72595 0.0
C2314 C 0.8716 0.75602 0.76402 0.0
C2315 C 0.85655 0.76843 0.7553 0.0
C2316 C 0.89096 0.755 0.753 0.0
C2317 C 0.89539 0.76598 0.73274 0.0
C2318 C 0.87968 0.77734 0.72338 0.0
C2319 C 0.86043 0.77841 0.73445 0.0
H2320 H 0.18906 0.02904 0.86814 0.0
H2321 H 0.12711 0.01519 0.82496 0.0
H2322 H 0.17036 0.03352 0.9054 0.0
H2323 H 0.10829 0.01927 0.86207 0.0
H2324 H 0.07412 1.01113 0.93403 0.0
H2325 H 0.09288 1.00698 0.89696 0.0
H2326 H 0.1521 0.05316 0.93682 0.0
H2327 H 0.1331 0.05754 0.97378 0.0
C2328 C 0.1714 0.02689 0.86622 0.0
C2329 C 0.16022 0.02166 0.84232 0.0
C2330 C 0.16035 0.0296 0.88817 0.0
C2331 C 0.13708 0.02688 0.88818 0.0
C2332 C 0.12594 0.02148 0.86418 0.0
C2333 C 0.13703 0.01918 0.84227 0.0
C2334 C 0.09112 0.02059 0.93527 0.0
C2335 C 0.10139 0.03481 0.95819 0.0
C2336 C 0.10222 0.01824 0.91336 0.0
C2337 C 0.12475 0.02959 0.91244 0.0
C2338 C 0.13508 0.04362 0.93549 0.0
C2339 C 0.12386 0.04628 0.9573 0.0
H2340 H 0.86678 0.44266 0.60139 0.0
H2341 H 0.80421 0.39122 0.58539 0.0
H2342 H 0.87277 0.42923 0.63974 0.0
H2343 H 0.80953 0.37842 0.62416 0.0
H2344 H 0.87767 0.40055 0.70952 0.0
H2345 H 0.86416 0.42246 0.68011 0.0
H2346 H 0.83401 0.35318 0.63303 0.0
H2347 H 0.84749 0.33156 0.662 0.0
C2348 C 0.85384 0.42937 0.60675 0.0
C2349 C 0.83505 0.41792 0.59066 0.0
C2350 C 0.85725 0.42161 0.62868 0.0
C2351 C 0.84183 0.40235 0.63477 0.0
C2352 C 0.82196 0.39287 0.61972 0.0
C2353 C 0.81875 0.40035 0.59769 0.0
C2354 C 0.86807 0.39007 0.6929 0.0
C2355 C 0.86374 0.36429 0.68807 0.0
C2356 C 0.86026 0.40261 0.67613 0.0
C2357 C 0.84788 0.38961 0.65426 0.0
C2358 C 0.84302 0.36385 0.6499 0.0
C2359 C 0.85084 0.35138 0.66654 0.0
H2360 H 0.4388 0.0647 0.38665 0.0
H2361 H 0.49711 0.07461 0.34887 0.0
H2362 H 0.46159 0.06596 0.42416 0.0
H2363 H 0.51958 0.07521 0.38572 0.0
H2364 H 0.55728 0.08735 0.46001 0.0
H2365 H 0.53457 0.09536 0.42653 0.0
H2366 H 0.48126 0.0375 0.43703 0.0
H2367 H 0.50341 0.0299 0.47024 0.0
C2368 C 0.45644 0.06741 0.38643 0.0
C2369 C 0.46611 0.06917 0.36478 0.0
C2370 C 0.4695 0.06801 0.40781 0.0
C2371 C 0.49242 0.07042 0.40787 0.0
C2372 C 0.50208 0.07353 0.38646 0.0
C2373 C 0.4891 0.07291 0.36522 0.0
C2374 C 0.54072 0.07638 0.45509 0.0
C2375 C 0.53224 0.05797 0.46781 0.0
C2376 C 0.52768 0.08099 0.43599 0.0
C2377 C 0.50596 0.06724 0.42927 0.0
C2378 C 0.49764 0.04888 0.44205 0.0
C2379 C 0.51056 0.04434 0.46102 0.0
H2380 H 0.81869 0.76895 0.08353 0.0
H2381 H 0.78744 0.69523 0.08824 0.0
H2382 H 0.82096 0.78138 0.12756 0.0
H2383 H 0.78758 0.70772 0.13182 0.0
H2384 H 0.80837 0.72775 0.21188 0.0
H2385 H 0.80513 0.71657 0.16836 0.0
H2386 H 0.80768 0.7922 0.16336 0.0
H2387 H 0.81335 0.80358 0.20787 0.0
C2388 C 0.81226 0.75537 0.09409 0.0
C2389 C 0.80333 0.73095 0.08241 0.0
C2390 C 0.81321 0.76258 0.11948 0.0
C2391 C 0.80458 0.74576 0.13404 0.0
C2392 C 0.79521 0.72136 0.12198 0.0
C2393 C 0.79499 0.71401 0.09672 0.0
C2394 C 0.80805 0.74204 0.20149 0.0
C2395 C 0.81078 0.76652 0.21347 0.0
C2396 C 0.80592 0.73555 0.17618 0.0
C2397 C 0.80592 0.75321 0.1615 0.0
C2398 C 0.80797 0.77785 0.17358 0.0
C2399 C 0.81076 0.78447 0.19924 0.0
H2400 H 0.11677 1.00991 0.71112 0.0
H2401 H 0.18138 0.02612 0.68796 0.0
H2402 H 0.10061 0.01401 0.67211 0.0
H2403 H 0.1652 0.03042 0.64832 0.0
H2404 H 0.1323 0.03267 0.5717 0.0
H2405 H 0.14867 0.02766 0.61036 0.0
H2406 H 0.0868 0.0274 0.64002 0.0
H2407 H 0.07034 0.03199 0.60062 0.0
C2408 C 0.12786 0.01386 0.69758 0.0
C2409 C 0.15092 0.01677 0.70391 0.0
C2410 C 0.11828 0.01666 0.67455 0.0
C2411 C 0.1308 0.02295 0.65537 0.0
C2412 C 0.154 0.02546 0.66141 0.0
C2413 C 0.16367 0.02261 0.68472 0.0
C2414 C 0.12191 0.03176 0.58638 0.0
C2415 C 0.09956 0.03323 0.58179 0.0
C2416 C 0.13162 0.0288 0.60929 0.0
C2417 C 0.11985 0.0268 0.63003 0.0
C2418 C 0.09732 0.02844 0.62553 0.0
C2419 C 0.08755 0.03143 0.60238 0.0
H2420 H 0.82087 0.43468 0.4416 0.0
H2421 H 0.82529 0.37488 0.4781 0.0
H2422 H 0.82177 0.4081 0.40256 0.0
H2423 H 0.82695 0.34869 0.43943 0.0
H2424 H 0.80611 0.30151 0.36323 0.0
H2425 H 0.8052 0.32731 0.40253 0.0
H2426 H 0.84657 0.38843 0.37976 0.0
H2427 H 0.84661 0.36308 0.34026 0.0
C2428 C 0.82212 0.41593 0.44129 0.0
C2429 C 0.82303 0.40691 0.4629 0.0
C2430 C 0.8228 0.40072 0.41897 0.0
C2431 C 0.82451 0.37624 0.41785 0.0
C2432 C 0.82534 0.3673 0.43954 0.0
C2433 C 0.82454 0.38242 0.46176 0.0
C2434 C 0.81484 0.32047 0.36653 0.0
C2435 C 0.82583 0.33032 0.34826 0.0
C2436 C 0.81453 0.33525 0.38919 0.0
C2437 C 0.82551 0.36013 0.39418 0.0
C2438 C 0.83741 0.36958 0.37632 0.0
C2439 C 0.83758 0.35489 0.35368 0.0
H2440 H 0.43591 0.03597 0.22198 0.0
H2441 H 0.50423 0.0578 0.25088 0.0
H2442 H 0.44705 0.03113 0.18058 0.0
H2443 H 0.51523 0.05224 0.21041 0.0
H2444 H 0.53641 0.04449 0.14038 0.0
H2445 H 0.51821 0.06356 0.17266 0.0
H2446 H 0.4629 1.00146 0.15633 0.0
H2447 H 0.48007 0.98345 0.12224 0.0
C2448 C 0.45323 0.04013 0.2195 0.0
C2449 C 0.46918 0.0468 0.23965 0.0
C2450 C 0.45963 0.03724 0.19584 0.0
C2451 C 0.48206 0.04114 0.19206 0.0
C2452 C 0.49782 0.04941 0.21237 0.0
C2453 C 0.49148 0.05226 0.23576 0.0
C2454 C 0.51999 0.03522 0.14285 0.0
C2455 C 0.51012 1.01187 0.12906 0.0
C2456 C 0.50963 0.04611 0.16171 0.0
C2457 C 0.48946 0.03363 0.16777 0.0
C2458 C 0.47853 1.01155 0.15241 0.0
C2459 C 0.48865 1.00093 0.13311 0.0
H2460 H 0.79171 0.74399 0.96472 0.0
H2461 H 0.81504 0.68209 0.92891 0.0
H2462 H 0.79247 0.76037 0.92743 0.0
H2463 H 0.81729 0.69898 0.89213 0.0
H2464 H 0.80454 0.72321 0.82147 0.0
H2465 H 0.80132 0.7066 0.8582 0.0
H2466 H 0.81145 0.77998 0.9007 0.0
H2467 H 0.81255 0.79626 0.86346 0.0
C2468 C 0.79714 0.73392 0.94888 0.0
C2469 C 0.80318 0.71159 0.9499 0.0
C2470 C 0.79783 0.74347 0.92737 0.0
C2471 C 0.80501 0.73128 0.90619 0.0
C2472 C 0.81114 0.70893 0.90746 0.0
C2473 C 0.81001 0.69918 0.9288 0.0
C2474 C 0.80564 0.73584 0.83856 0.0
C2475 C 0.80854 0.76117 0.83915 0.0
C2476 C 0.80421 0.72628 0.85998 0.0
C2477 C 0.80617 0.74169 0.88305 0.0
C2478 C 0.8094 0.76715 0.8836 0.0
C2479 C 0.81038 0.77666 0.86207 0.0
H2480 H 0.87154 0.1393 0.02871 0.0
H2481 H 0.82049 0.07393 0.02269 0.0
H2482 H 0.89919 0.11481 0.02695 0.0
H2483 H 0.84814 0.04913 0.01999 0.0
H2484 H 0.90609 0.01286 0.03199 0.0
H2485 H 0.87844 0.03734 0.03906 0.0
H2486 H 0.91167 0.08773 0.99696 0.0
H2487 H 0.93935 0.06359 0.99038 0.0
C2488 C 0.86623 0.11966 0.02717 0.0
C2489 C 0.8438 0.10856 0.0257 0.0
C2490 C 0.88209 0.10554 0.02591 0.0
C2491 C 0.87597 0.07985 0.02281 0.0
C2492 C 0.85355 0.06884 0.02248 0.0
C2493 C 0.83765 0.08306 0.024 0.0
C2494 C 0.90739 0.02912 0.02418 0.0
C2495 C 0.92501 0.03633 0.01073 0.0
C2496 C 0.89152 0.04318 0.02822 0.0
C2497 C 0.89283 0.06472 0.0188 0.0
C2498 C 0.91034 0.07166 1.00508 0.0
C2499 C 0.92623 0.05773 1.00119 0.0
H2500 H 0.40741 0.40324 1.00012 0.0
H2501 H 0.39238 0.45083 0.06252 0.0
H2502 H 0.4427 0.43072 1.00103 0.0
H2503 H 0.42864 0.47813 0.06442 0.0
H2504 H 0.48929 0.5329 0.04796 0.0
H2505 H 0.45302 0.50719 0.04873 0.0
H2506 H 0.47738 0.44317 0.02019 0.0
H2507 H 0.51296 0.46908 0.01816 0.0
C2508 C 0.41177 0.41953 0.0143 0.0
C2509 C 0.397 0.42461 0.03138 0.0
C2510 C 0.43228 0.43533 0.015 0.0
C2511 C 0.43913 0.45667 0.03314 0.0
C2512 C 0.42415 0.46205 0.05004 0.0
C2513 C 0.4033 0.44632 0.04905 0.0
C2514 C 0.48693 0.51338 0.04198 0.0
C2515 C 0.50414 0.50325 0.03278 0.0
C2516 C 0.466 0.49846 0.04247 0.0
C2517 C 0.46176 0.47285 0.03412 0.0
C2518 C 0.47942 0.46275 0.02598 0.0
C2519 C 0.50008 0.47768 0.02504 0.0
H2520 H 0.38658 0.6193 0.7532 0.0
H2521 H 0.43673 0.66662 0.80599 0.0
H2522 H 0.36753 0.653 0.75266 0.0
H2523 H 0.41727 0.70018 0.80616 0.0
H2524 H 0.36909 0.75633 0.81548 0.0
H2525 H 0.38725 0.72195 0.81643 0.0
H2526 H 0.36311 0.69245 0.74164 0.0
H2527 H 0.34578 0.7274 0.74061 0.0
C2528 C 0.39386 0.63678 0.7649 0.0
C2529 C 0.41402 0.63894 0.77953 0.0
C2530 C 0.3826 0.65674 0.76457 0.0
C2531 C 0.39 0.68073 0.77939 0.0
C2532 C 0.41006 0.68279 0.79428 0.0
C2533 C 0.42164 0.66299 0.79411 0.0
C2534 C 0.36678 0.74223 0.79926 0.0
C2535 C 0.35384 0.74507 0.77845 0.0
C2536 C 0.37786 0.72212 0.79966 0.0
C2537 C 0.37726 0.70282 0.7792 0.0
C2538 C 0.36438 0.7057 0.75834 0.0
C2539 C 0.35382 0.72617 0.75781 0.0
H2540 H 0.23593 0.60277 0.5178 0.0
H2541 H 0.21509 0.66792 0.50556 0.0
H2542 H 0.19893 0.58585 0.52759 0.0
H2543 H 0.17851 0.65105 0.51539 0.0
H2544 H 0.12362 0.62621 0.56139 0.0
H2545 H 0.16166 0.64114 0.55333 0.0
H2546 H 0.15971 0.5718 0.50615 0.0
H2547 H 0.12177 0.5571 0.51397 0.0
C2548 C 0.2235 0.61339 0.51695 0.0
C2549 C 0.22861 0.63676 0.51091 0.0
C2550 C 0.20234 0.6037 0.52261 0.0
C2551 C 0.18596 0.61731 0.52259 0.0
C2552 C 0.19092 0.64035 0.51602 0.0
C2553 C 0.2119 0.6499 0.51015 0.0
C2554 C 0.1315 0.61415 0.54958 0.0
C2555 C 0.11999 0.5904 0.53876 0.0
C2556 C 0.15316 0.62266 0.54486 0.0
C2557 C 0.16363 0.6076 0.52911 0.0
C2558 C 0.15218 0.58369 0.51859 0.0
C2559 C 0.13049 0.57528 0.52313 0.0
H2560 H 0.75736 0.01271 0.75406 0.0
H2561 H 0.69619 0.95919 0.74768 0.0
H2562 H 0.77734 0.98277 0.76423 0.0
H2563 H 0.7162 0.92897 0.75712 0.0
H2564 H 0.75268 0.90731 0.82149 0.0
H2565 H 0.73296 0.92842 0.79674 0.0
H2566 H 0.78936 0.94407 0.75672 0.0
H2567 H 0.80939 0.9233 0.78217 0.0
C2568 C 0.74826 0.99425 0.75384 0.0
C2569 C 0.72518 0.98843 0.7506 0.0
C2570 C 0.75973 0.97703 0.75966 0.0
C2571 C 0.7483 0.95366 0.76215 0.0
C2572 C 0.72543 0.94704 0.75603 0.0
C2573 C 0.71397 0.96429 0.75044 0.0
C2574 C 0.76083 0.91512 0.80731 0.0
C2575 C 0.78267 0.91399 0.80402 0.0
C2576 C 0.74942 0.92693 0.79284 0.0
C2577 C 0.75956 0.93796 0.77468 0.0
C2578 C 0.78114 0.93591 0.77065 0.0
C2579 C 0.79255 0.92392 0.78512 0.0
H2580 H 0.7536 0.90497 0.51813 0.0
H2581 H 0.79569 0.96815 0.5648 0.0
H2582 H 0.72562 0.92844 0.51369 0.0
H2583 H 0.76741 0.99142 0.56132 0.0
H2584 H 0.67243 0.97238 0.51863 0.0
H2585 H 0.69839 0.94806 0.52889 0.0
H2586 H 0.75191 1.01118 0.53462 0.0
H2587 H 0.72604 0.03554 0.52594 0.0
C2588 C 0.75673 0.92376 0.52789 0.0
C2589 C 0.77705 0.93462 0.54175 0.0
C2590 C 0.74055 0.9373 0.52542 0.0
C2591 C 0.74405 0.96215 0.5369 0.0
C2592 C 0.76408 0.97262 0.55162 0.0
C2593 C 0.78033 0.95915 0.55387 0.0
C2594 C 0.68969 0.98119 0.52255 0.0
C2595 C 0.69696 1.00601 0.52111 0.0
C2596 C 0.70473 0.9671 0.52814 0.0
C2597 C 0.72755 0.97737 0.5325 0.0
C2598 C 0.73462 1.00239 0.53174 0.0
C2599 C 0.71966 0.01642 0.52632 0.0
H2600 H 0.4396 0.48251 0.79999 0.0
H2601 H 0.38971 0.50164 0.75584 0.0
H2602 H 0.41665 0.44253 0.79827 0.0
H2603 H 0.36638 0.46034 0.75314 0.0
H2604 H 0.32204 0.38428 0.76064 0.0
H2605 H 0.34315 0.42623 0.7626 0.0
H2606 H 0.40239 0.40368 0.78252 0.0
H2607 H 0.38128 0.36278 0.78166 0.0
C2608 C 0.42366 0.47827 0.7896 0.0
C2609 C 0.41714 0.49627 0.77802 0.0
C2610 C 0.41019 0.45455 0.78833 0.0
C2611 C 0.38912 0.4466 0.77501 0.0
C2612 C 0.38222 0.46479 0.76372 0.0
C2613 C 0.39579 0.48895 0.76525 0.0
C2614 C 0.33955 0.38822 0.76566 0.0
C2615 C 0.3494 0.36924 0.77125 0.0
C2616 C 0.35197 0.41273 0.76667 0.0
C2617 C 0.37512 0.41981 0.77318 0.0
C2618 C 0.38484 0.40046 0.77816 0.0
C2619 C 0.37246 0.37623 0.77739 0.0
H2620 H 0.19275 0.63827 0.2641 0.0
H2621 H 0.25007 0.60694 0.25973 0.0
H2622 H 0.21632 0.67926 0.27156 0.0
H2623 H 0.27359 0.64811 0.26707 0.0
H2624 H 0.3069 0.72531 0.31173 0.0
H2625 H 0.28341 0.68395 0.30246 0.0
H2626 H 0.24214 0.70647 0.25033 0.0
H2627 H 0.26562 0.74783 0.25983 0.0
C2628 C 0.21036 0.64007 0.26454 0.0
C2629 C 0.21949 0.61922 0.26136 0.0
C2630 C 0.22384 0.6636 0.2687 0.0
C2631 C 0.24678 0.66688 0.26996 0.0
C2632 C 0.25595 0.64612 0.26644 0.0
C2633 C 0.24246 0.62254 0.26207 0.0
C2634 C 0.2929 0.72123 0.29815 0.0
C2635 C 0.28839 0.73935 0.2859 0.0
C2636 C 0.27952 0.69763 0.29279 0.0
C2637 C 0.26109 0.69191 0.27546 0.0
C2638 C 0.25624 0.71034 0.26374 0.0
C2639 C 0.26976 0.73389 0.26896 0.0
H2640 H 0.51644 0.71579 0.49816 0.0
H2641 H 0.55152 0.70536 0.43499 0.0
H2642 H 0.52483 0.67907 0.50948 0.0
H2643 H 0.56046 0.66872 0.44657 0.0
H2644 H 0.55295 0.6171 0.53517 0.0
H2645 H 0.54688 0.65591 0.5253 0.0
H2646 H 0.55137 0.62832 0.44957 0.0
H2647 H 0.55796 0.5905 0.45964 0.0
C2648 C 0.52603 0.70577 0.48651 0.0
C2649 C 0.533 0.71417 0.46531 0.0
C2650 C 0.53111 0.68442 0.49327 0.0
C2651 C 0.54351 0.66997 0.47927 0.0
C2652 C 0.55058 0.67845 0.45805 0.0
C2653 C 0.54548 0.69989 0.45128 0.0
C2654 C 0.55302 0.61948 0.51649 0.0
C2655 C 0.55639 0.60025 0.49839 0.0
C2656 C 0.54922 0.64189 0.51059 0.0
C2657 C 0.54847 0.64618 0.48631 0.0
C2658 C 0.55206 0.62683 0.4685 0.0
C2659 C 0.55578 0.60465 0.47436 0.0
H2660 H 0.6483 0.31161 0.68037 0.0
H2661 H 0.69579 0.33878 0.63389 0.0
H2662 H 0.67787 0.30576 0.7078 0.0
H2663 H 0.72534 0.3342 0.66153 0.0
H2664 H 0.77621 0.30599 0.7024 0.0
H2665 H 0.7461 0.3114 0.67631 0.0
H2666 H 0.70725 0.31654 0.73714 0.0
H2667 H 0.73728 0.30941 0.76293 0.0
C2668 C 0.66507 0.31681 0.67612 0.0
C2669 C 0.66926 0.32574 0.65455 0.0
C2670 C 0.68232 0.31345 0.69206 0.0
C2671 C 0.70468 0.31909 0.68736 0.0
C2672 C 0.70873 0.32875 0.66608 0.0
C2673 C 0.69152 0.33176 0.65007 0.0
C2674 C 0.76117 0.30771 0.7103 0.0
C2675 C 0.75954 0.30666 0.73506 0.0
C2676 C 0.74367 0.31141 0.69519 0.0
C2677 C 0.72354 0.31473 0.70402 0.0
C2678 C 0.72197 0.31384 0.72895 0.0
C2679 C 0.7395 0.30988 0.74405 0.0
H2680 H 0.04518 0.3594 0.9227 0.0
H2681 H 0.02736 0.34413 0.99211 0.0
H2682 H 0.04999 0.40273 0.93797 0.0
H2683 H 0.0312 0.38834 1.00754 0.0
H2684 H 0.0598 0.47422 0.03326 0.0
H2685 H 0.05217 0.42918 0.02125 0.0
H2686 H 0.0345 0.43495 0.94733 0.0
H2687 H 0.04331 0.47922 0.95917 0.0
C2688 C 0.04194 0.36521 0.94129 0.0
C2689 C 0.03572 0.3477 0.95592 0.0
C2690 C 0.04451 0.39051 0.95016 0.0
C2691 C 0.04062 0.3999 0.97414 0.0
C2692 C 0.03448 0.38238 0.98902 0.0
C2693 C 0.03213 0.35679 0.98009 0.0
C2694 C 0.05393 0.46574 0.01455 0.0
C2695 C 0.05208 0.4806 0.99724 0.0
C2696 C 0.04957 0.43971 1.00751 0.0
C2697 C 0.04319 0.42765 0.98294 0.0
C2698 C 0.0402 0.44283 0.96619 0.0
C2699 C 0.0449 0.46855 0.97308 0.0
H2700 H 0.02475 0.82091 0.1308 0.0
H2701 H 0.06205 0.79915 0.18691 0.0
H2702 H 0.992 0.81384 0.15297 0.0
H2703 H 0.02969 0.79209 0.20879 0.0
H2704 H 0.9646 0.75705 0.23083 0.0
H2705 H 0.9941 0.7634 0.20489 0.0
H2706 H 0.97646 0.82977 0.19199 0.0
H2707 H 0.94674 0.8235 0.21851 0.0
C2708 C 0.02598 0.81452 0.14776 0.0
C2709 C 0.04614 0.81051 0.15693 0.0
C2710 C 1.00721 0.81062 0.16058 0.0
C2711 C 1.00799 0.80221 0.18271 0.0
C2712 C 0.02819 0.79819 0.1917 0.0
C2713 C 0.0469 0.80237 0.17913 0.0
C2714 C 0.96689 0.77306 0.22253 0.0
C2715 C 0.95336 0.78999 0.22731 0.0
C2716 C 0.98394 0.77673 0.20759 0.0
C2717 C 0.98812 0.79738 0.19659 0.0
C2718 C 0.97383 0.81365 0.20012 0.0
C2719 C 0.9567 0.81002 0.21531 0.0
H2720 H 0.51672 0.30266 0.10246 0.0
H2721 H 0.53736 0.35301 0.17105 0.0
H2722 H 0.53011 0.33526 0.08082 0.0
H2723 H 0.5511 0.38596 0.1491 0.0
H2724 H 0.59813 0.42234 0.09526 0.0
H2725 H 0.58198 0.39439 0.12111 0.0
H2726 H 0.52118 0.37499 0.07415 0.0
H2727 H 0.53734 0.40256 0.04815 0.0
C2728 C 0.52408 0.32077 0.11293 0.0
C2729 C 0.52602 0.3253 0.13846 0.0
C2730 C 0.5316 0.33949 0.1005 0.0
C2731 C 0.54151 0.36318 0.11326 0.0
C2732 C 0.54351 0.36783 0.13884 0.0
C2733 C 0.53561 0.34906 0.15136 0.0
C2734 C 0.58125 0.41224 0.0906 0.0
C2735 C 0.56906 0.4145 0.06956 0.0
C2736 C 0.57197 0.39645 0.10552 0.0
C2737 C 0.55038 0.38244 0.09955 0.0
C2738 C 0.53792 0.38544 0.07907 0.0
C2739 C 0.54713 0.40135 0.06429 0.0
H2740 H 0.07497 0.34507 0.34405 0.0
H2741 H 0.03479 0.33337 0.40251 0.0
H2742 H 0.04237 0.34638 0.31817 0.0
H2743 H 1.00226 0.33413 0.37645 0.0
H2744 H 0.94771 0.31162 0.31079 0.0
H2745 H 0.98031 0.30772 0.33461 0.0
H2746 H 0.01537 0.37759 0.32251 0.0
H2747 H 0.98258 0.38237 0.29987 0.0
C2748 C 0.05916 0.34244 0.35124 0.0
C2749 C 0.05742 0.33915 0.3753 0.0
C2750 C 0.04058 0.34332 0.33649 0.0
C2751 C 0.01987 0.34033 0.34537 0.0
C2752 C 0.01803 0.33632 0.36916 0.0
C2753 C 0.03665 0.33601 0.38407 0.0
C2754 C 0.96221 0.32636 0.31342 0.0
C2755 C 0.96232 0.34739 0.30339 0.0
C2756 C 0.98093 0.32398 0.3269 0.0
C2757 C 1.00031 0.34231 0.33026 0.0
C2758 C 1.00068 0.36305 0.31989 0.0
C2759 C 0.98187 0.36568 0.30681 0.0
H2760 H 0.97488 0.69153 0.6115 0.0
H2761 H 0.026 0.6967 0.66841 0.0
H2762 H 0.97694 0.6494 0.59546 0.0
H2763 H 0.02917 0.65518 0.65171 0.0
H2764 H 0.03789 0.58326 0.61104 0.0
H2765 H 0.01955 0.61131 0.63575 0.0
H2766 H 1.00663 0.64241 0.573 0.0
H2767 H 0.02471 0.61483 0.54891 0.0
C2768 C 0.9858 0.68316 0.62123 0.0
C2769 C 1.00037 0.69719 0.64101 0.0
C2770 C 0.98724 0.65918 0.6119 0.0
C2771 C 1.00386 0.64931 0.6217 0.0
C2772 C 0.01626 0.6622 0.6436 0.0
C2773 C 0.01443 0.68602 0.65327 0.0
C2774 C 0.03148 0.59636 0.60266 0.0
C2775 C 0.03397 0.59765 0.57817 0.0
C2776 C 0.02059 0.61214 0.61674 0.0
C2777 C 0.01166 0.62924 0.60647 0.0
C2778 C 0.01297 0.62933 0.58162 0.0
C2779 C 0.02383 0.6137 0.56773 0.0
H2780 H 0.64912 0.8059 0.82543 0.0
H2781 H 0.69068 0.82306 0.89326 0.0
H2782 H 0.68109 0.8019 0.80316 0.0
H2783 H 0.72243 0.8189 0.87107 0.0
H2784 H 0.77055 0.78781 0.82253 0.0
H2785 H 0.7376 0.78751 0.84359 0.0
H2786 H 0.71598 0.83296 0.79746 0.0
H2787 H 0.74929 0.83338 0.77643 0.0
C2788 C 0.66496 0.80829 0.8356 0.0
C2789 C 0.66737 0.81478 0.86111 0.0
C2790 C 0.68328 0.80628 0.82284 0.0
C2791 C 0.70429 0.81033 0.83537 0.0
C2792 C 0.70646 0.8156 0.86091 0.0
C2793 C 0.68826 0.81797 0.87361 0.0
C2794 C 0.75873 0.7976 0.81676 0.0
C2795 C 0.76216 0.81009 0.7974 0.0
C2796 C 0.7399 0.79754 0.82893 0.0
C2797 C 0.72407 0.80997 0.82201 0.0
C2798 C 0.72769 0.82283 0.80289 0.0
C2799 C 0.74674 0.82318 0.79095 0.0
H2800 H 0.51462 0.58937 0.72553 0.0
H2801 H 0.45131 0.55507 0.68701 0.0
H2802 H 0.53139 0.58664 0.68748 0.0
H2803 H 0.46812 0.55229 0.64827 0.0
H2804 H 0.50686 0.53166 0.58003 0.0
H2805 H 0.48842 0.53648 0.61732 0.0
H2806 H 0.54265 0.59521 0.65116 0.0
H2807 H 0.56086 0.59033 0.61388 0.0
C2808 C 0.50386 0.58184 0.70887 0.0
C2809 C 0.48097 0.57344 0.71051 0.0
C2810 C 0.51378 0.58008 0.68639 0.0
C2811 C 0.50179 0.56918 0.66332 0.0
C2812 C 0.47872 0.56082 0.66481 0.0
C2813 C 0.46869 0.56286 0.68751 0.0
C2814 C 0.51507 0.54575 0.59529 0.0
C2815 C 0.53602 0.56036 0.59284 0.0
C2816 C 0.50418 0.54866 0.61723 0.0
C2817 C 0.51339 0.56632 0.63871 0.0
C2818 C 0.53434 0.58099 0.63611 0.0
C2819 C 0.54512 0.5782 0.61411 0.0
H2820 H 0.82267 0.19478 0.96363 0.0
H2821 H 0.7701 0.13116 0.93812 0.0
H2822 H 0.8127 0.2126 0.92947 0.0
H2823 H 0.75918 0.14955 0.90428 0.0
H2824 H 0.75207 0.18666 0.83865 0.0
H2825 H 0.76649 0.16446 0.86709 0.0
H2826 H 0.7833 0.23116 0.92154 0.0
H2827 H 0.76944 0.25322 0.89317 0.0
C2828 C 0.8091 0.1845 0.95043 0.0
C2829 C 0.79706 0.16172 0.95346 0.0
C2830 C 0.80322 0.19479 0.93099 0.0
C2831 C 0.78475 0.18285 0.91446 0.0
C2832 C 0.77351 0.15925 0.91664 0.0
C2833 C 0.77973 0.14868 0.93596 0.0
C2834 C 0.75895 0.19656 0.85667 0.0
C2835 C 0.7599 0.22184 0.86349 0.0
C2836 C 0.76716 0.18381 0.87299 0.0
C2837 C 0.77635 0.19604 0.89654 0.0
C2838 C 0.77698 0.22123 0.90335 0.0
C2839 C 0.76895 0.23394 0.88706 0.0
H2840 H 0.18662 0.53899 0.1706 0.0
H2841 H 0.13337 0.49209 0.19638 0.0
H2842 H 0.16472 0.53329 0.13178 0.0
H2843 H 0.1116 0.48556 0.15732 0.0
H2844 H 0.07053 0.5235 0.11016 0.0
H2845 H 0.0932 0.51363 0.14214 0.0
H2846 H 0.1447 0.51006 0.09462 0.0
H2847 H 0.12221 0.52053 0.0632 0.0
C2848 C 0.17068 0.52641 0.16744 0.0
C2849 C 0.16155 0.51615 0.18639 0.0
C2850 C 0.15801 0.5232 0.14524 0.0
C2851 C 0.13613 0.50947 0.1417 0.0
C2852 C 0.12813 0.4968 0.15973 0.0
C2853 C 0.14069 0.50024 0.18194 0.0
C2854 C 0.08652 0.5203 0.1065 0.0
C2855 C 0.09483 0.52362 0.08448 0.0
C2856 C 0.09954 0.51442 0.12473 0.0
C2857 C 0.12098 0.51136 0.12106 0.0
C2858 C 0.12854 0.5129 0.0983 0.0
C2859 C 0.11565 0.51905 0.0803 0.0
H2860 H 0.83521 0.83999 0.47675 0.0
H2861 H 0.82121 0.90493 0.45567 0.0
H2862 H 0.83707 0.82233 0.43394 0.0
H2863 H 0.82188 0.8872 0.41341 0.0
H2864 H 0.83821 0.86332 0.3402 0.0
H2865 H 0.84365 0.8781 0.38377 0.0
H2866 H 0.81799 0.8046 0.39478 0.0
H2867 H 0.81412 0.7896 0.35052 0.0
C2868 C 0.8325 0.85049 0.463 0.0
C2869 C 0.82826 0.87402 0.46977 0.0
C2870 C 0.83343 0.84029 0.43836 0.0
C2871 C 0.82996 0.85329 0.41981 0.0
C2872 C 0.82543 0.8767 0.42684 0.0
C2873 C 0.82482 0.88693 0.4513 0.0
C2874 C 0.83437 0.85018 0.35197 0.0
C2875 C 0.8261 0.82526 0.34191 0.0
C2876 C 0.83709 0.85872 0.3771 0.0
C2877 C 0.83056 0.84285 0.39321 0.0
C2878 C 0.82325 0.81754 0.38319 0.0
C2879 C 0.82108 0.80882 0.35777 0.0
H2880 H 0.50441 0.56734 0.83079 0.0
H2881 H 0.44786 0.57561 0.86819 0.0
H2882 H 0.52301 0.56046 0.8679 0.0
H2883 H 0.46628 0.56914 0.90531 0.0
H2884 H 0.4969 0.54662 0.97205 0.0
H2885 H 0.4795 0.55202 0.93425 0.0
H2886 H 0.54244 0.5646 0.906 0.0
H2887 H 0.55994 0.55884 0.94458 0.0
C2888 C 0.49567 0.56777 0.84684 0.0
C2889 C 0.47402 0.57217 0.84531 0.0
C2890 C 0.50666 0.56381 0.86877 0.0
C2891 C 0.49691 0.56383 0.89113 0.0
C2892 C 0.47519 0.56832 0.88944 0.0
C2893 C 0.46426 0.5723 0.86754 0.0
C2894 C 0.50734 0.55031 0.95787 0.0
C2895 C 0.53028 0.5517 0.96249 0.0
C2896 C 0.49708 0.55379 0.93555 0.0
C2897 C 0.5088 0.5593 0.91555 0.0
C2898 C 0.53193 0.56043 0.91996 0.0
C2899 C 0.54231 0.55693 0.9426 0.0
H2900 H 0.82823 0.17956 0.09341 0.0
H2901 H 0.77349 0.21193 0.07825 0.0
H2902 H 0.83106 0.19967 0.13647 0.0
H2903 H 0.77628 0.23168 0.12057 0.0
H2904 H 0.77507 0.24783 0.20215 0.0
H2905 H 0.77153 0.22194 0.16172 0.0
H2906 H 0.84151 0.24433 0.15889 0.0
H2907 H 0.84495 0.26957 0.19939 0.0
C2908 C 0.8167 0.19066 0.09932 0.0
C2909 C 0.80083 0.19443 0.08249 0.0
C2910 C 0.81837 0.20225 0.12382 0.0
C2911 C 0.80388 0.21726 0.13182 0.0
C2912 C 0.78753 0.22008 0.11506 0.0
C2913 C 0.78609 0.20891 0.09075 0.0
C2914 C 0.78963 0.24729 0.19276 0.0
C2915 C 0.81019 0.26149 0.20346 0.0
C2916 C 0.78764 0.23244 0.16972 0.0
C2917 C 0.80626 0.2312 0.15712 0.0
C2918 C 0.8269 0.24485 0.16817 0.0
C2919 C 0.82881 0.25985 0.19111 0.0
H2920 H 0.20763 0.58273 0.32892 0.0
H2921 H 0.15284 0.5228 0.29855 0.0
H2922 H 0.18645 0.59534 0.36272 0.0
H2923 H 0.13205 0.53503 0.33179 0.0
H2924 H 0.10721 0.54776 0.40357 0.0
H2925 H 0.13445 0.53756 0.37706 0.0
H2926 H 0.14931 0.61156 0.36421 0.0
H2927 H 0.12228 0.62224 0.39181 0.0
C2928 C 0.19133 0.57201 0.32986 0.0
C2929 C 0.18177 0.55179 0.31143 0.0
C2930 C 0.1792 0.57932 0.34889 0.0
C2931 C 0.1577 0.56609 0.34975 0.0
C2932 C 0.14867 0.54538 0.3317 0.0
C2933 C 0.16053 0.5384 0.31269 0.0
C2934 C 0.11653 0.56205 0.39549 0.0
C2935 C 0.11264 0.58583 0.39975 0.0
C2936 C 0.13209 0.55616 0.38029 0.0
C2937 C 0.14394 0.5738 0.3687 0.0
C2938 C 0.1405 0.59776 0.37323 0.0
C2939 C 0.12485 0.60374 0.38863 0.0
H2940 H 0.83148 0.89848 0.61898 0.0
H2941 H 0.80754 0.82373 0.58137 0.0
H2942 H 0.82762 0.88523 0.65804 0.0
H2943 H 0.80243 0.81061 0.61974 0.0
H2944 H 0.81704 0.78656 0.68983 0.0
H2945 H 0.8201 0.80177 0.65223 0.0
H2946 H 0.80769 0.87071 0.68808 0.0
H2947 H 0.80579 0.85561 0.72621 0.0
C2948 C 0.8249 0.87931 0.61901 0.0
C2949 C 0.81996 0.86221 0.59692 0.0
C2950 C 0.82265 0.87159 0.64151 0.0
C2951 C 0.81508 0.84657 0.64257 0.0
C2952 C 0.80909 0.82985 0.62023 0.0
C2953 C 0.81175 0.83746 0.59796 0.0
C2954 C 0.8149 0.80496 0.68974 0.0
C2955 C 0.81109 0.81973 0.7112 0.0
C2956 C 0.81648 0.81376 0.66792 0.0
C2957 C 0.81386 0.83759 0.66648 0.0
C2958 C 0.81007 0.85241 0.68811 0.0
C2959 C 0.80883 0.84367 0.7101 0.0
H2960 H 0.81385 0.51899 0.55572 0.0
H2961 H 0.75999 0.45628 0.53136 0.0
H2962 H 0.78776 0.54494 0.56523 0.0
H2963 H 0.73394 0.48223 0.54012 0.0
H2964 H 0.6916 0.52967 0.57679 0.0
H2965 H 0.71922 0.50507 0.57227 0.0
H2966 H 0.76174 0.56247 0.54528 0.0
H2967 H 0.73421 0.58726 0.55037 0.0
C2968 C 0.79644 0.51074 0.55241 0.0
C2969 C 0.78898 0.48557 0.54281 0.0
C2970 C 0.78147 0.52565 0.55771 0.0
C2971 C 0.75871 0.51573 0.55345 0.0
C2972 C 0.75132 0.49047 0.54405 0.0
C2973 C 0.76627 0.47557 0.53887 0.0
C2974 C 0.70691 0.53705 0.57001 0.0
C2975 C 0.7107 0.56032 0.5638 0.0
C2976 C 0.72271 0.52293 0.56731 0.0
C2977 C 0.74265 0.53163 0.55815 0.0
C2978 C 0.7467 0.55526 0.55264 0.0
C2979 C 0.73092 0.56948 0.55552 0.0
H2980 H 0.21017 0.18857 0.49901 0.0
H2981 H 0.24381 0.12981 0.50123 0.0
H2982 H 0.17534 0.16082 0.5011 0.0
H2983 H 0.20869 0.10194 0.50335 0.0
H2984 H 0.13632 0.05488 0.48516 0.0
H2985 H 0.1717 0.08081 0.48036 0.0
H2986 H 0.15786 0.14011 0.53206 0.0
H2987 H 0.12297 0.11438 0.53714 0.0
C2988 C 0.2102 0.16969 0.49976 0.0
C2989 C 0.23003 0.16163 0.50005 0.0
C2990 C 0.19013 0.15375 0.50112 0.0
C2991 C 0.1891 0.1291 0.50264 0.0
C2992 C 0.20878 0.12073 0.5021 0.0
C2993 C 0.22897 0.13679 0.50096 0.0
C2994 C 0.14087 0.07335 0.49567 0.0
C2995 C 0.12658 0.08229 0.5116 0.0
C2996 C 0.16122 0.08827 0.4929 0.0
C2997 C 0.16769 0.11269 0.50571 0.0
C2998 C 0.15339 0.12157 0.5216 0.0
C2999 C 0.13327 0.10664 0.52458 0.0
H3000 H 0.25364 0.97787 0.78465 0.0
H3001 H 0.1942 0.92355 0.75949 0.0
H3002 H 0.27413 0.94534 0.78507 0.0
H3003 H 0.21494 0.89091 0.75877 0.0
H3004 H 0.26408 0.83429 0.74223 0.0
H3005 H 0.24351 0.86682 0.74052 0.0
H3006 H 0.28286 0.91071 0.80459 0.0
H3007 H 0.30247 0.87778 0.80688 0.0
C3008 C 0.24459 0.95907 0.77892 0.0
C3009 C 0.22145 0.95467 0.77203 0.0
C3010 C 0.25671 0.93981 0.77923 0.0
C3011 C 0.24709 0.91414 0.77189 0.0
C3012 C 0.22397 0.90971 0.76456 0.0
C3013 C 0.21168 0.92899 0.76503 0.0
C3014 C 0.26897 0.85101 0.75578 0.0
C3015 C 0.28655 0.85271 0.77405 0.0
C3016 C 0.25662 0.87011 0.75501 0.0
C3017 C 0.26078 0.89285 0.77229 0.0
C3018 C 0.27845 0.89448 0.79039 0.0
C3019 C 0.29022 0.87512 0.79159 0.0
H3020 H 0.40323 0.93037 0.97748 0.0
H3021 H 0.39541 0.97735 0.04411 0.0
H3022 H 0.44117 0.95302 0.9791 0.0
H3023 H 0.43354 0.99886 0.04684 0.0
H3024 H 0.49854 0.04569 0.04032 0.0
H3025 H 0.45955 0.0262 0.03291 0.0
H3026 H 0.47583 0.95849 0.99906 0.0
H3027 H 0.51465 0.97893 1.00501 0.0
C3028 C 0.40974 0.94542 0.99259 0.0
C3029 C 0.39644 0.95209 0.01069 0.0
C3030 C 0.43153 0.95834 0.99364 0.0
C3031 C 0.44066 0.97782 0.01318 0.0
C3032 C 0.42715 0.98443 0.0312 0.0
C3033 C 0.40526 0.97193 0.02979 0.0
C3034 C 0.49356 0.02686 0.03064 0.0
C3035 C 0.50928 0.0141 0.02202 0.0
C3036 C 0.47126 0.01548 0.02674 0.0
C3037 C 0.4643 0.99062 0.01535 0.0
C3038 C 0.48032 0.97778 1.00725 0.0
C3039 C 0.50259 0.98943 0.01059 0.0
H3040 H 0.92536 0.63068 0.79812 0.0
H3041 H 0.86914 0.56996 0.77745 0.0
H3042 H 0.90556 0.65652 0.77897 0.0
H3043 H 0.84944 0.5957 0.75873 0.0
H3044 H 0.83323 0.63738 0.70046 0.0
H3045 H 0.8531 0.61381 0.72225 0.0
H3046 H 0.87288 0.67582 0.78182 0.0
H3047 H 0.85319 0.69966 0.75968 0.0
C3048 C 0.90874 0.62294 0.78973 0.0
C3049 C 0.89891 0.59823 0.78909 0.0
C3050 C 0.89739 0.63774 0.77886 0.0
C3051 C 0.87604 0.62805 0.7671 0.0
C3052 C 0.86602 0.60358 0.76722 0.0
C3053 C 0.8773 0.58886 0.77806 0.0
C3054 C 0.84197 0.64606 0.71811 0.0
C3055 C 0.84171 0.67037 0.72834 0.0
C3056 C 0.85316 0.63249 0.73071 0.0
C3057 C 0.86445 0.6429 0.75383 0.0
C3058 C 0.86441 0.66734 0.764 0.0
C3059 C 0.85303 0.6809 0.75143 0.0
H3060 H 0.8295 0.62528 0.03132 0.0
H3061 H 0.87728 0.68483 0.01436 0.0
H3062 H 0.85811 0.60307 0.03666 0.0
H3063 H 0.90613 0.66218 0.01907 0.0
H3064 H 0.9554 0.62173 0.05253 0.0
H3065 H 0.92855 0.64662 0.04644 0.0
H3066 H 0.88027 0.58081 0.01399 0.0
H3067 H 0.90677 0.55626 0.02057 0.0
C3068 C 0.84615 0.63367 0.02866 0.0
C3069 C 0.85096 0.65688 0.02231 0.0
C3070 C 0.86265 0.62077 0.03152 0.0
C3071 C 0.8846 0.6305 0.02797 0.0
C3072 C 0.88953 0.65402 0.0221 0.0
C3073 C 0.87294 0.66702 0.01931 0.0
C3074 C 0.93912 0.61268 0.04381 0.0
C3075 C 0.93321 0.58693 0.03734 0.0
C3076 C 0.92366 0.62695 0.04032 0.0
C3077 C 0.90191 0.61583 0.03014 0.0
C3078 C 0.89651 0.59015 0.02259 0.0
C3079 C 0.91183 0.57599 0.02621 0.0
H3080 H 0.24562 0.08507 0.7809 0.0
H3081 H 0.19062 0.11902 0.79187 0.0
H3082 H 0.26926 0.12569 0.78053 0.0
H3083 H 0.2137 0.15865 0.79164 0.0
H3084 H 0.25221 0.2267 0.76861 0.0
H3085 H 0.23132 0.18578 0.76922 0.0
H3086 H 0.28925 0.16772 0.79982 0.0
H3087 H 0.31036 0.20926 0.79919 0.0
C3088 C 0.23838 0.10093 0.78334 0.0
C3089 C 0.21563 0.09777 0.78635 0.0
C3090 C 0.25213 0.12463 0.78318 0.0
C3091 C 0.24387 0.14643 0.78572 0.0
C3092 C 0.22125 0.14303 0.789 0.0
C3093 C 0.20774 0.11971 0.78934 0.0
C3094 C 0.26079 0.21429 0.77561 0.0
C3095 C 0.28349 0.22226 0.78378 0.0
C3096 C 0.2485 0.19031 0.7761 0.0
C3097 C 0.25799 0.1724 0.78475 0.0
C3098 C 0.28082 0.18022 0.79276 0.0
C3099 C 0.29315 0.20447 0.79244 0.0
H3100 H 0.44304 0.95684 0.31263 0.0
H3101 H 0.38842 0.99112 0.30295 0.0
H3102 H 0.41776 0.91671 0.30407 0.0
H3103 H 0.36323 0.95109 0.29486 0.0
H3104 H 0.33021 0.87511 0.24966 0.0
H3105 H 0.35528 0.91537 0.26141 0.0
H3106 H 0.38752 0.89027 0.31914 0.0
H3107 H 0.36268 0.84993 0.30697 0.0
C3108 C 0.42564 0.9559 0.30905 0.0
C3109 C 0.41785 0.97728 0.30826 0.0
C3110 C 0.41113 0.93287 0.3042 0.0
C3111 C 0.3885 0.93067 0.29847 0.0
C3112 C 0.38062 0.9521 0.29867 0.0
C3113 C 0.39509 0.97509 0.30349 0.0
C3114 C 0.34255 0.87837 0.26498 0.0
C3115 C 0.34409 0.85976 0.2779 0.0
C3116 C 0.35685 0.9014 0.27179 0.0
C3117 C 0.37324 0.90615 0.29143 0.0
C3118 C 0.37511 0.88722 0.30393 0.0
C3119 C 0.36075 0.86422 0.29715 0.0
H3120 H 0.60888 0.37034 0.56257 0.0
H3121 H 0.58895 0.39974 0.63138 0.0
H3122 H 0.60202 0.40587 0.54648 0.0
H3123 H 0.58093 0.43397 0.6155 0.0
H3124 H 0.57946 0.50522 0.59211 0.0
H3125 H 0.58611 0.46942 0.60542 0.0
H3126 H 0.58643 0.434 0.53084 0.0
H3127 H 0.58099 0.4717 0.51759 0.0
C3128 C 0.60301 0.38429 0.57442 0.0
C3129 C 0.5999 0.38169 0.5987 0.0
C3130 C 0.59884 0.40499 0.56502 0.0
C3131 C 0.591 0.42419 0.57924 0.0
C3132 C 0.58754 0.42097 0.60339 0.0
C3133 C 0.59206 0.40068 0.61279 0.0
C3134 C 0.58075 0.48984 0.57824 0.0
C3135 C 0.57923 0.49203 0.55353 0.0
C3136 C 0.58447 0.46855 0.58604 0.0
C3137 C 0.58672 0.44735 0.56971 0.0
C3138 C 0.58503 0.44932 0.54464 0.0
C3139 C 0.58155 0.47114 0.53676 0.0
H3140 H 0.44661 0.79439 0.43284 0.0
H3141 H 0.47722 0.76693 0.37035 0.0
H3142 H 0.41615 0.79882 0.40663 0.0
H3143 H 0.44594 0.77049 0.34366 0.0
H3144 H 0.39415 0.79809 0.29929 0.0
H3145 H 0.42559 0.79326 0.32467 0.0
H3146 H 0.38425 0.78273 0.38235 0.0
H3147 H 0.35334 0.78828 0.35728 0.0
C3148 C 0.44682 0.7889 0.41341 0.0
C3149 C 0.46479 0.78009 0.4041 0.0
C3150 C 0.42895 0.79132 0.3981 0.0
C3151 C 0.42783 0.78491 0.37249 0.0
C3152 C 0.44581 0.77599 0.36308 0.0
C3153 C 0.46389 0.77368 0.37852 0.0
C3154 C 0.39176 0.79486 0.31746 0.0
C3155 C 0.37091 0.79403 0.32608 0.0
C3156 C 0.40996 0.79188 0.33215 0.0
C3157 C 0.40814 0.78771 0.35615 0.0
C3158 C 0.38709 0.78654 0.3645 0.0
C3159 C 0.36903 0.78973 0.34991 0.0
H3160 H 0.1161 0.74505 0.05521 0.0
H3161 H 0.07985 0.7403 0.11761 0.0
H3162 H 0.10926 0.70049 0.04478 0.0
H3163 H 0.07267 0.69551 0.10696 0.0
H3164 H 0.08036 0.61631 0.09693 0.0
H3165 H 0.08796 0.66087 0.10613 0.0
H3166 H 0.08445 0.66177 0.02939 0.0
H3167 H 0.07681 0.61666 0.02028 0.0
C3168 C 0.10651 0.7346 0.06676 0.0
C3169 C 0.09863 0.74688 0.08746 0.0
C3170 C 0.10244 0.70871 0.06059 0.0
C3171 C 0.0904 0.69369 0.07488 0.0
C3172 C 0.08233 0.70597 0.09548 0.0
C3173 C 0.08631 0.73194 0.1016 0.0
C3174 C 0.08143 0.62594 0.08191 0.0
C3175 C 0.07823 0.61251 0.05782 0.0
C3176 C 0.08557 0.65177 0.08723 0.0
C3177 C 0.08663 0.66564 0.06869 0.0
C3178 C 0.08394 0.6522 0.04442 0.0
C3179 C 0.07964 0.62613 0.03907 0.0
H3180 H 0.06747 0.26234 0.85969 0.0
H3181 H 0.10971 0.29187 0.92649 0.0
H3182 H 0.0993 0.26573 0.83683 0.0
H3183 H 0.14192 0.29437 0.90371 0.0
H3184 H 0.19335 0.32094 0.85215 0.0
H3185 H 0.1631 0.31518 0.87778 0.0
H3186 H 0.12939 0.25111 0.82512 0.0
H3187 H 0.15909 0.25785 0.79931 0.0
C3188 C 0.08363 0.26919 0.8696 0.0
C3189 C 0.08587 0.27675 0.89503 0.0
C3190 C 0.10209 0.27102 0.85642 0.0
C3191 C 0.12359 0.28025 0.86817 0.0
C3192 C 0.12582 0.28747 0.89374 0.0
C3193 C 0.10727 0.28582 0.90693 0.0
C3194 C 0.17962 0.30539 0.84637 0.0
C3195 C 0.1787 0.28977 0.82375 0.0
C3196 C 0.16215 0.30202 0.86107 0.0
C3197 C 0.1433 0.2828 0.85363 0.0
C3198 C 0.14309 0.26655 0.83143 0.0
C3199 C 0.16034 0.27015 0.81667 0.0
H3200 H 0.6049 0.8162 0.98263 0.0
H3201 H 0.60919 0.76562 0.91677 0.0
H3202 H 0.59847 0.78312 1.00441 0.0
H3203 H 0.60323 0.73189 0.93936 0.0
H3204 H 0.56243 0.67825 0.98416 0.0
H3205 H 0.57369 0.70885 0.95918 0.0
H3206 H 0.61621 0.75538 0.02051 0.0
H3207 H 0.60469 0.72506 0.04546 0.0
C3208 C 0.60472 0.79799 0.97271 0.0
C3209 C 0.60749 0.7937 0.94774 0.0
C3210 C 0.60122 0.77892 0.98544 0.0
C3211 C 0.60051 0.75479 0.97379 0.0
C3212 C 0.60359 0.7503 0.94886 0.0
C3213 C 0.60714 0.76961 0.93596 0.0
C3214 C 0.57437 0.69493 0.99221 0.0
C3215 C 0.58241 0.6994 0.01693 0.0
C3216 C 0.5809 0.71241 0.97783 0.0
C3217 C 0.59568 0.73472 0.98786 0.0
C3218 C 0.60442 0.73864 0.0123 0.0
C3219 C 0.59778 0.7213 0.02667 0.0
H3220 H 0.06261 0.7702 0.72176 0.0
H3221 H 0.10309 0.78997 0.66568 0.0
H3222 H 0.09522 0.76758 0.74654 0.0
H3223 H 0.13554 0.7872 0.69037 0.0
H3224 H 0.192 0.79781 0.75004 0.0
H3225 H 0.15976 0.80566 0.72873 0.0
H3226 H 0.12032 0.73866 0.74276 0.0
H3227 H 0.15248 0.73052 0.7636 0.0
C3228 C 0.07847 0.77441 0.71488 0.0
C3229 C 0.08019 0.78019 0.69166 0.0
C3230 C 0.09713 0.77269 0.72899 0.0
C3231 C 0.11794 0.77698 0.72033 0.0
C3232 C 0.11979 0.78392 0.69764 0.0
C3233 C 0.10114 0.7854 0.68344 0.0
C3234 C 0.1765 0.78465 0.74844 0.0
C3235 C 0.17491 0.76352 0.75859 0.0
C3236 C 0.158 0.78922 0.73632 0.0
C3237 C 0.13745 0.77286 0.73418 0.0
C3238 C 0.13581 0.75188 0.74449 0.0
C3239 C 0.15429 0.74722 0.75646 0.0
H3240 H 0.11315 0.40811 0.39074 0.0
H3241 H 0.14047 0.39485 0.45822 0.0
H3242 H 0.10105 0.44328 0.41322 0.0
H3243 H 0.12919 0.43016 0.48052 0.0
H3244 H 0.07879 0.46755 0.51464 0.0
H3245 H 0.09337 0.43617 0.48985 0.0
H3246 H 0.11149 0.4843 0.43941 0.0
H3247 H 0.0964 0.51562 0.46402 0.0
C3248 C 0.11715 0.41323 0.41026 0.0
C3249 C 0.12752 0.39881 0.42287 0.0
C3250 C 0.1102 0.43325 0.42313 0.0
C3251 C 0.11372 0.43908 0.44869 0.0
C3252 C 0.12564 0.42567 0.46092 0.0
C3253 C 0.1323 0.40563 0.44816 0.0
C3254 C 0.08582 0.47142 0.49824 0.0
C3255 C 0.08656 0.49405 0.49135 0.0
C3256 C 0.09432 0.45352 0.48411 0.0
C3257 C 0.10392 0.45794 0.46288 0.0
C3258 C 0.10414 0.48035 0.45562 0.0
C3259 C 0.0955 0.49825 0.46972 0.0
H3260 H 0.4364 0.25755 0.16401 0.0
H3261 H 0.47191 0.26726 0.23471 0.0
H3262 H 0.40201 0.25436 0.18237 0.0
H3263 H 0.43737 0.2648 0.25332 0.0
H3264 H 0.3689 0.24223 0.27761 0.0
H3265 H 0.40225 0.23875 0.25772 0.0
H3266 H 0.38418 0.28155 0.20658 0.0
H3267 H 0.3509 0.28431 0.22601 0.0
C3268 C 0.43687 0.25902 0.18352 0.0
C3269 C 0.45691 0.26286 0.19794 0.0
C3270 C 0.41712 0.2573 0.19407 0.0
C3271 C 0.4169 0.25958 0.21937 0.0
C3272 C 0.43691 0.26273 0.23376 0.0
C3273 C 0.45672 0.26429 0.22313 0.0
C3274 C 0.37218 0.25076 0.26205 0.0
C3275 C 0.35782 0.2642 0.25379 0.0
C3276 C 0.39125 0.24887 0.25073 0.0
C3277 C 0.39604 0.26005 0.23067 0.0
C3278 C 0.38099 0.27251 0.22182 0.0
C3279 C 0.36204 0.27441 0.23315 0.0
H3280 H 0.68867 0.52861 0.3672 0.0
H3281 H 0.62677 0.51495 0.32397 0.0
H3282 H 0.66988 0.53271 0.40443 0.0
H3283 H 0.60787 0.51865 0.36104 0.0
H3284 H 0.57366 0.50968 0.43289 0.0
H3285 H 0.59247 0.50581 0.39581 0.0
H3286 H 0.65151 0.55229 0.43579 0.0
H3287 H 0.63248 0.55641 0.47271 0.0
C3288 C 0.67101 0.52642 0.36527 0.0
C3289 C 0.65986 0.52138 0.34137 0.0
C3290 C 0.65991 0.52891 0.38719 0.0
C3291 C 0.63662 0.52612 0.38715 0.0
C3292 C 0.62552 0.52089 0.36316 0.0
C3293 C 0.63666 0.51883 0.34129 0.0
C3294 C 0.59063 0.51926 0.43414 0.0
C3295 C 0.60086 0.53348 0.45707 0.0
C3296 C 0.60176 0.51708 0.41224 0.0
C3297 C 0.62425 0.5286 0.41138 0.0
C3298 C 0.63452 0.54262 0.43444 0.0
C3299 C 0.62328 0.54512 0.45622 0.0
H3300 H 0.3507 0.9422 0.09704 0.0
H3301 H 0.30286 0.87432 0.07192 0.0
H3302 H 0.35787 0.92978 0.13569 0.0
H3303 H 0.3091 0.86231 0.11083 0.0
H3304 H 0.36348 0.90113 0.20614 0.0
H3305 H 0.34778 0.918 0.1737 0.0
H3306 H 0.34014 0.84836 0.12465 0.0
H3307 H 0.35556 0.83171 0.15679 0.0
C3308 C 0.34103 0.92513 0.10026 0.0
C3309 C 0.32645 0.90904 0.08155 0.0
C3310 C 0.34513 0.91796 0.12237 0.0
C3311 C 0.33448 0.89473 0.12609 0.0
C3312 C 0.31808 0.87997 0.10826 0.0
C3313 C 0.31431 0.88692 0.08609 0.0
C3314 C 0.35842 0.88952 0.18838 0.0
C3315 C 0.36075 0.86509 0.184 0.0
C3316 C 0.34936 0.89913 0.16985 0.0
C3317 C 0.34246 0.88449 0.14663 0.0
C3318 C 0.34468 0.86002 0.14245 0.0
C3319 C 0.35366 0.85046 0.16087 0.0
H3320 H 0.94977 0.52478 0.87088 0.0
H3321 H 0.96433 0.6037 0.88399 0.0
H3322 H 0.97704 0.52607 0.90446 0.0
H3323 H 0.99142 0.60515 0.91806 0.0
H3324 H 0.02238 0.58925 0.9917 0.0
H3325 H 0.99497 0.59221 0.95991 0.0
H3326 H 0.01923 0.54042 0.90867 0.0
H3327 H 0.04676 0.53775 0.94056 0.0
C3328 C 0.95833 0.54238 0.8815 0.0
C3329 C 0.95481 0.56413 0.87521 0.0
C3330 C 0.97412 0.54315 0.90047 0.0
C3331 C 0.98662 0.56572 0.91352 0.0
C3332 C 0.98204 0.58752 0.90825 0.0
C3333 C 0.96639 0.58671 0.88902 0.0
C3334 C 0.02227 0.57922 0.97338 0.0
C3335 C 0.03682 0.56369 0.96824 0.0
C3336 C 1.00654 0.58076 0.9553 0.0
C3337 C 1.00482 0.56631 0.93196 0.0
C3338 C 0.02006 0.55153 0.92662 0.0
C3339 C 0.036 0.55028 0.94465 0.0
H3340 H 0.28607 0.19397 0.58729 0.0
H3341 H 0.31645 0.26772 0.58174 0.0
H3342 H 0.28643 0.20681 0.63085 0.0
H3343 H 0.31898 0.28052 0.62575 0.0
H3344 H 0.31195 0.30318 0.70619 0.0
H3345 H 0.30607 0.29147 0.66171 0.0
H3346 H 0.30423 0.2161 0.66724 0.0
H3347 H 0.30765 0.22758 0.71074 0.0
C3348 C 0.29347 0.21286 0.59557 0.0
C3349 C 0.30151 0.22969 0.58104 0.0
C3350 C 0.29383 0.2204 0.62082 0.0
C3351 C 0.30306 0.24492 0.63265 0.0
C3352 C 0.31136 0.26165 0.61786 0.0
C3353 C 0.31025 0.25423 0.59247 0.0
C3354 C 0.30948 0.28405 0.69769 0.0
C3355 C 0.30973 0.26625 0.71206 0.0
C3356 C 0.30657 0.27724 0.67204 0.0
C3357 C 0.30461 0.25257 0.66011 0.0
C3358 C 0.30491 0.23508 0.67493 0.0
C3359 C 0.30715 0.24175 0.70024 0.0
H3360 H 0.68093 0.52532 0.18699 0.0
H3361 H 0.61619 0.51098 0.21013 0.0
H3362 H 0.66513 0.53001 0.14733 0.0
H3363 H 0.60041 0.51545 0.17108 0.0
H3364 H 0.57101 0.53386 0.09935 0.0
H3365 H 0.58702 0.52882 0.13878 0.0
H3366 H 0.64893 0.52804 0.10949 0.0
H3367 H 0.63302 0.53351 0.07083 0.0
C3368 C 0.66325 0.52231 0.18374 0.0
C3369 C 0.65034 0.51688 0.20294 0.0
C3370 C 0.65381 0.52539 0.16042 0.0
C3371 C 0.63071 0.52353 0.15435 0.0
C3372 C 0.61802 0.51761 0.17353 0.0
C3373 C 0.62738 0.5146 0.19659 0.0
C3374 C 0.58814 0.533 0.1012 0.0
C3375 C 0.60031 0.53465 0.08072 0.0
C3376 C 0.59765 0.52974 0.12438 0.0
C3377 C 0.62004 0.52766 0.12899 0.0
C3378 C 0.63197 0.5295 0.10835 0.0
C3379 C 0.62253 0.53274 0.08542 0.0
H3380 H 0.29381 0.88238 0.95693 0.0
H3381 H 0.35388 0.93318 0.95094 0.0
H3382 H 0.29842 0.85588 0.91932 0.0
H3383 H 0.35953 0.90602 0.91412 0.0
H3384 H 0.34707 0.86733 0.83474 0.0
H3385 H 0.34634 0.89252 0.87343 0.0
H3386 H 0.31858 0.828 0.90139 0.0
H3387 H 0.31922 0.80251 0.86173 0.0
C3388 C 0.30797 0.88783 0.94735 0.0
C3389 C 0.32322 0.90995 0.95628 0.0
C3390 C 0.31086 0.87247 0.92608 0.0
C3391 C 0.32945 0.87862 0.91367 0.0
C3392 C 0.3448 0.90085 0.92287 0.0
C3393 C 0.34157 0.91651 0.94385 0.0
C3394 C 0.34143 0.85823 0.84904 0.0
C3395 C 0.33319 0.83279 0.84477 0.0
C3396 C 0.34093 0.87286 0.87155 0.0
C3397 C 0.3322 0.86247 0.89065 0.0
C3398 C 0.32498 0.83678 0.88693 0.0
C3399 C 0.32546 0.82211 0.86421 0.0
H3400 H 1.0033 0.55366 0.76307 0.0
H3401 H 0.93575 0.53905 0.73226 0.0
H3402 H 0.01503 0.54619 0.72294 0.0
H3403 H 0.94771 0.53225 0.69135 0.0
H3404 H 0.97737 0.48116 0.63274 0.0
H3405 H 0.96147 0.50003 0.66755 0.0
H3406 H 0.02011 0.55792 0.68547 0.0
H3407 H 0.0369 0.53794 0.65254 0.0
C3408 C 0.99095 0.54933 0.74763 0.0
C3409 C 0.96855 0.54651 0.75088 0.0
C3410 C 0.99773 0.54533 0.72446 0.0
C3411 C 0.98232 0.53851 0.70378 0.0
C3412 C 0.95997 0.53718 0.70691 0.0
C3413 C 0.95313 0.54124 0.7303 0.0
C3414 C 0.98696 0.49786 0.64413 0.0
C3415 C 1.00877 0.50743 0.64006 0.0
C3416 C 0.97761 0.50899 0.66386 0.0
C3417 C 0.98972 0.5302 0.67969 0.0
C3418 C 1.01056 0.54119 0.67406 0.0
C3419 C 0.02009 0.5298 0.65477 0.0
H3420 H 0.29211 0.24274 0.46375 0.0
H3421 H 0.31389 0.17976 0.42783 0.0
H3422 H 0.2938 0.2594 0.42662 0.0
H3423 H 0.31694 0.19685 0.39117 0.0
H3424 H 0.30515 0.2219 0.32069 0.0
H3425 H 0.3012 0.2052 0.35731 0.0
H3426 H 0.314 0.27863 0.40019 0.0
H3427 H 0.31597 0.29515 0.36303 0.0
C3428 C 0.29737 0.23246 0.44792 0.0
C3429 C 0.30271 0.20978 0.44888 0.0
C3430 C 0.29859 0.24217 0.42651 0.0
C3431 C 0.30559 0.22975 0.40534 0.0
C3432 C 0.31099 0.20701 0.40652 0.0
C3433 C 0.30937 0.19714 0.42778 0.0
C3434 C 0.30666 0.23456 0.33783 0.0
C3435 C 0.31052 0.25998 0.33855 0.0
C3436 C 0.30482 0.22491 0.35917 0.0
C3437 C 0.30728 0.2403 0.3823 0.0
C3438 C 0.31152 0.26585 0.38301 0.0
C3439 C 0.31297 0.27547 0.36155 0.0
H3440 H 0.37049 0.63758 0.52293 0.0
H3441 H 0.31931 0.57211 0.51548 0.0
H3442 H 0.39812 0.61311 0.52125 0.0
H3443 H 0.34697 0.54729 0.51275 0.0
H3444 H 0.40456 0.51088 0.52606 0.0
H3445 H 0.37664 0.53512 0.53213 0.0
H3446 H 0.41167 0.58655 0.49218 0.0
H3447 H 0.43967 0.56269 0.48673 0.0
C3448 C 0.36514 0.6179 0.52099 0.0
C3449 C 0.34268 0.60679 0.51921 0.0
C3450 C 0.381 0.60379 0.51978 0.0
C3451 C 0.37488 0.57807 0.51637 0.0
C3452 C 0.3524 0.56701 0.51551 0.0
C3453 C 0.33649 0.58124 0.51703 0.0
C3454 C 0.40621 0.52733 0.51852 0.0
C3455 C 0.42443 0.53491 0.50602 0.0
C3456 C 0.39017 0.54124 0.52196 0.0
C3457 C 0.39187 0.56301 0.51285 0.0
C3458 C 0.40999 0.57031 0.50005 0.0
C3459 C 0.42606 0.55654 0.49681 0.0
H3460 H 0.91433 0.89528 0.52564 0.0
H3461 H 0.88618 0.95763 0.5494 0.0
H3462 H 0.94988 0.92239 0.5263 0.0
H3463 H 0.92226 0.98507 0.54986 0.0
H3464 H 0.99801 0.02322 0.5673 0.0
H3465 H 0.96156 0.99803 0.56992 0.0
H3466 H 0.96625 0.95122 0.50194 0.0
H3467 H 1.00216 0.9761 0.49924 0.0
C3468 C 0.91564 0.91481 0.53108 0.0
C3469 C 0.89709 0.92411 0.53728 0.0
C3470 C 0.93616 0.93045 0.53133 0.0
C3471 C 0.93903 0.95604 0.53781 0.0
C3472 C 0.92072 0.96547 0.54481 0.0
C3473 C 0.89999 0.94971 0.54446 0.0
C3474 C 0.99116 1.00771 0.5528 0.0
C3475 C 1.00314 1.00196 0.53296 0.0
C3476 C 0.97022 0.99324 0.55431 0.0
C3477 C 0.96089 0.97242 0.53621 0.0
C3478 C 0.97292 0.96683 0.51643 0.0
C3479 C 0.99361 0.9813 0.51483 0.0
H3480 H 0.93403 0.16587 0.3086 0.0
H3481 H 0.88743 0.11927 0.25163 0.0
H3482 H 0.91396 0.19894 0.30815 0.0
H3483 H 0.868 0.15254 0.25039 0.0
H3484 H 0.8484 0.22696 0.2365 0.0
H3485 H 0.86671 0.19321 0.2392 0.0
H3486 H 0.87982 0.21824 0.31644 0.0
H3487 H 0.86039 0.25166 0.31374 0.0
C3488 C 0.91964 0.16231 0.29566 0.0
C3489 C 0.91318 0.1386 0.2801 0.0
C3490 C 0.9077 0.18181 0.29547 0.0
C3491 C 0.88853 0.1798 0.27917 0.0
C3492 C 0.88233 0.15619 0.26341 0.0
C3493 C 0.89383 0.13649 0.26414 0.0
C3494 C 0.85453 0.22523 0.25441 0.0
C3495 C 0.85138 0.24274 0.27485 0.0
C3496 C 0.8655 0.20536 0.25598 0.0
C3497 C 0.87554 0.20156 0.2781 0.0
C3498 C 0.87281 0.21935 0.2987 0.0
C3499 C 0.86111 0.23892 0.2972 0.0
H3500 H 0.73706 0.10137 0.01917 0.0
H3501 H 0.71419 0.16176 0.9972 0.0
H3502 H 0.69925 0.08226 0.02465 0.0
H3503 H 0.67683 0.1427 1.00262 0.0
H3504 H 0.61555 0.11665 0.03577 0.0
H3505 H 0.65502 0.13343 0.03696 0.0
H3506 H 0.66301 0.06375 0.9979 0.0
H3507 H 0.62361 0.04713 0.99692 0.0
C3508 C 0.72405 0.1105 0.01536 0.0
C3509 C 0.72877 0.13316 0.00776 0.0
C3510 C 0.70243 0.09957 0.01856 0.0
C3511 C 0.68516 0.11119 0.01445 0.0
C3512 C 0.68985 0.13357 1.00649 0.0
C3513 C 0.71131 0.14437 1.00313 0.0
C3514 C 0.62595 0.1047 0.02844 0.0
C3515 C 0.61679 0.08029 0.01738 0.0
C3516 C 0.64845 0.11436 0.02873 0.0
C3517 C 0.66211 0.09989 0.0175 0.0
C3518 C 0.653 0.07523 1.00703 0.0
C3519 C 0.63046 0.06568 1.00655 0.0
H3520 H 0.20772 0.45954 0.24468 0.0
H3521 H 0.26828 0.51436 0.25325 0.0
H3522 H 0.22767 0.4307 0.25751 0.0
H3523 H 0.28825 0.48564 0.26669 0.0
H3524 H 0.26188 0.40922 0.32305 0.0
H3525 H 0.24323 0.43133 0.29831 0.0
H3526 H 0.3007 0.44663 0.25988 0.0
H3527 H 0.31962 0.42477 0.28523 0.0
C3528 C 0.22539 0.46525 0.24878 0.0
C3529 C 0.2364 0.48932 0.24833 0.0
C3530 C 0.2368 0.44877 0.25629 0.0
C3531 C 0.25945 0.45607 0.26372 0.0
C3532 C 0.2708 0.47943 0.2611 0.0
C3533 C 0.25937 0.49591 0.25339 0.0
C3534 C 0.27051 0.41724 0.30928 0.0
C3535 C 0.29228 0.41552 0.30628 0.0
C3536 C 0.25974 0.42965 0.29485 0.0
C3537 C 0.27045 0.44071 0.27703 0.0
C3538 C 0.29205 0.43842 0.27353 0.0
C3539 C 0.30282 0.4258 0.28792 0.0
H3540 H 0.25447 0.3996 0.01629 0.0
H3541 H 0.29437 0.46492 0.06208 0.0
H3542 H 0.22535 0.42139 0.01064 0.0
H3543 H 0.26495 0.48671 0.05663 0.0
H3544 H 0.19845 0.51236 0.05441 0.0
H3545 H 0.22505 0.48831 0.06455 0.0
H3546 H 0.22173 0.45541 0.98869 0.0
H3547 H 0.19564 0.47964 0.97869 0.0
C3548 C 0.25694 0.41851 0.02552 0.0
C3549 C 0.27691 0.43042 0.03965 0.0
C3550 C 0.24022 0.43109 0.02213 0.0
C3551 C 0.24274 0.45592 0.03304 0.0
C3552 C 0.26232 0.46758 0.04805 0.0
C3553 C 0.27924 0.45508 0.05114 0.0
C3554 C 0.20319 0.49969 0.04001 0.0
C3555 C 0.19481 0.49782 0.01575 0.0
C3556 C 0.21858 0.48607 0.04576 0.0
C3557 C 0.22563 0.46984 0.02746 0.0
C3558 C 0.21662 0.46748 1.00333 0.0
C3559 C 0.20165 0.4814 0.99756 0.0
H3560 H 0.89012 1.00149 0.25725 0.0
H3561 H 0.9405 0.98288 0.30117 0.0
H3562 H 0.86709 0.96008 0.25469 0.0
H3563 H 0.91784 0.94278 0.2996 0.0
H3564 H 0.88261 0.86291 0.28379 0.0
H3565 H 0.90357 0.90388 0.28453 0.0
H3566 H 0.84421 0.92583 0.26385 0.0
H3567 H 0.82332 0.88386 0.26198 0.0
C3568 C 0.89637 0.98888 0.26664 0.0
C3569 C 0.91776 0.99639 0.27931 0.0
C3570 C 0.88298 0.96465 0.26519 0.0
C3571 C 0.89008 0.94657 0.27648 0.0
C3572 C 0.9112 0.95471 0.28968 0.0
C3573 C 0.9245 0.9785 0.29085 0.0
C3574 C 0.87375 0.87626 0.27933 0.0
C3575 C 0.85072 0.8691 0.27302 0.0
C3576 C 0.88604 0.90052 0.28002 0.0
C3577 C 0.87623 0.91973 0.27478 0.0
C3578 C 0.85311 0.91247 0.26812 0.0
C3579 C 0.8408 0.88794 0.26718 0.0
H3580 H 0.69145 0.14191 0.78464 0.0
H3581 H 0.7456 0.10593 0.77453 0.0
H3582 H 0.71645 0.18147 0.787 0.0
H3583 H 0.77064 0.14576 0.7771 0.0
H3584 H 0.80866 0.22517 0.81539 0.0
H3585 H 0.78477 0.18421 0.81003 0.0
H3586 H 0.74006 0.20395 0.75936 0.0
H3587 H 0.76421 0.24474 0.76446 0.0
C3588 C 0.70868 0.1424 0.78296 0.0
C3589 C 0.71649 0.12068 0.7794 0.0
C3590 C 0.72297 0.16509 0.78416 0.0
C3591 C 0.74546 0.16667 0.78219 0.0
C3592 C 0.75337 0.14505 0.7788 0.0
C3593 C 0.73902 0.12227 0.77724 0.0
C3594 C 0.79391 0.22048 0.80279 0.0
C3595 C 0.78853 0.23767 0.78977 0.0
C3596 C 0.78028 0.19713 0.7997 0.0
C3597 C 0.76062 0.19089 0.78421 0.0
C3598 C 0.75512 0.20828 0.77142 0.0
C3599 C 0.76898 0.23148 0.77415 0.0
loop_
_geom_bond_atom_site_label_1
_geom_bond_atom_site_label_2
_geom_bond_distance
_geom_bond_site_symmetry_2
_ccdc_geom_bond_type
Co0 O1 2.216 . S
Co0 O2 2.091 . S
Co0 O4 2.004 . S
Co0 O10 2.021 . S
Co0 O12 2.137 . S
Co0 O13 2.244 . S
O1 Co0 2.216 . S
O1 C8 1.247 . S
O2 Co0 2.091 . S
O2 C8 1.261 . S
C3 O12 1.247 . S
C3 O13 1.272 . S
O4 Co0 2.004 . S
O4 C9 1.259 . S
Co5 O6 2.061 . S
Co5 O11 2.052 . S
Co5 O13 2.135 . S
O6 Co5 2.061 . S
O6 C9 1.235 . S
C7 O10 1.238 . S
C7 O11 1.241 . S
C8 O1 1.247 . S
C8 O2 1.261 . S
C9 O4 1.259 . S
C9 O6 1.235 . S
O10 Co0 2.021 . S
O10 C7 1.238 . S
O11 Co5 2.052 . S
O11 C7 1.241 . S
O12 Co0 2.137 . S
O12 C3 1.247 . S
O13 Co0 2.244 . S
O13 C3 1.272 . S
O13 Co5 2.135 . S
Co14 O15 2.216 . S
Co14 O16 2.091 . S
Co14 O18 2.004 1_655 S
Co14 O24 2.021 . S
Co14 O26 2.137 . S
Co14 O27 2.244 1_655 S
O15 Co14 2.216 . S
O15 C22 1.247 . S
O16 Co14 2.091 . S
O16 C22 1.261 . S
C17 O26 1.247 1_455 S
C17 O27 1.272 . S
O18 Co14 2.004 1_455 S
O18 C23 1.259 . S
Co19 O20 2.061 . S
Co19 O25 2.052 . S
Co19 O27 2.135 . S
O20 Co19 2.061 . S
O20 C23 1.235 . S
C21 O24 1.238 . S
C21 O25 1.241 1_655 S
C22 O15 1.247 . S
C22 O16 1.261 . S
C23 O18 1.259 . S
C23 O20 1.235 . S
O24 Co14 2.021 . S
O24 C21 1.238 . S
O25 Co19 2.052 . S
O25 C21 1.241 1_455 S
O26 Co14 2.137 . S
O26 C17 1.247 1_655 S
O27 Co14 2.244 1_455 S
O27 C17 1.272 . S
O27 Co19 2.135 . S
Co28 O29 2.216 . S
Co28 O30 2.091 . S
Co28 O32 2.004 . S
Co28 O38 2.021 . S
Co28 O40 2.137 . S
Co28 O41 2.244 . S
O29 Co28 2.216 . S
O29 C36 1.247 . S
O30 Co28 2.091 . S
O30 C36 1.261 . S
C31 O40 1.247 . S
C31 O41 1.272 . S
O32 Co28 2.004 . S
O32 C37 1.259 . S
Co33 O34 2.061 . S
Co33 O39 2.052 . S
Co33 O41 2.135 . S
O34 Co33 2.061 . S
O34 C37 1.235 . S
C35 O38 1.238 . S
C35 O39 1.241 . S
C36 O29 1.247 . S
C36 O30 1.261 . S
C37 O32 1.259 . S
C37 O34 1.235 . S
O38 Co28 2.021 . S
O38 C35 1.238 . S
O39 Co33 2.052 . S
O39 C35 1.241 . S
O40 Co28 2.137 . S
O40 C31 1.247 . S
O41 Co28 2.244 . S
O41 C31 1.272 . S
O41 Co33 2.135 . S
Co42 O43 2.216 . S
Co42 O44 2.091 . S
Co42 O46 2.004 . S
Co42 O52 2.021 . S
Co42 O54 2.137 . S
Co42 O55 2.244 . S
O43 Co42 2.216 . S
O43 C50 1.247 . S
O44 Co42 2.091 . S
O44 C50 1.261 . S
C45 O54 1.247 . S
C45 O55 1.272 . S
O46 Co42 2.004 . S
O46 C51 1.259 . S
Co47 O48 2.061 . S
Co47 O53 2.052 . S
Co47 O55 2.135 . S
O48 Co47 2.061 . S
O48 C51 1.235 . S
C49 O52 1.238 . S
C49 O53 1.241 . S
C50 O43 1.247 . S
C50 O44 1.261 . S
C51 O46 1.259 . S
C51 O48 1.235 . S
O52 Co42 2.021 . S
O52 C49 1.238 . S
O53 Co47 2.052 . S
O53 C49 1.241 . S
O54 Co42 2.137 . S
O54 C45 1.247 . S
O55 Co42 2.244 . S
O55 C45 1.272 . S
O55 Co47 2.135 . S
Co56 O57 2.216 . S
Co56 O58 2.091 . S
Co56 O60 2.004 . S
Co56 O66 2.021 . S
Co56 O68 2.137 . S
Co56 O69 2.244 . S
O57 Co56 2.216 . S
O57 C64 1.247 . S
O58 Co56 2.091 . S
O58 C64 1.261 . S
C59 O68 1.247 . S
C59 O69 1.272 . S
O60 Co56 2.004 . S
O60 C65 1.259 . S
Co61 O62 2.061 . S
Co61 O67 2.052 . S
Co61 O69 2.135 . S
O62 Co61 2.061 . S
O62 C65 1.235 . S
C63 O66 1.238 . S
C63 O67 1.241 . S
C64 O57 1.247 . S
C64 O58 1.261 . S
C65 O60 1.259 . S
C65 O62 1.235 . S
O66 Co56 2.021 . S
O66 C63 1.238 . S
O67 Co61 2.052 . S
O67 C63 1.241 . S
O68 Co56 2.137 . S
O68 C59 1.247 . S
O69 Co56 2.244 . S
O69 C59 1.272 . S
O69 Co61 2.135 . S
Co70 O71 2.216 . S
Co70 O72 2.091 . S
Co70 O74 2.004 . S
Co70 O80 2.021 . S
Co70 O82 2.137 . S
Co70 O83 2.244 . S
O71 Co70 2.216 . S
O71 C78 1.247 . S
O72 Co70 2.091 . S
O72 C78 1.261 . S
C73 O82 1.247 . S
C73 O83 1.272 . S
O74 Co70 2.004 . S
O74 C79 1.259 . S
Co75 O76 2.061 . S
Co75 O81 2.052 . S
Co75 O83 2.135 . S
O76 Co75 2.061 . S
O76 C79 1.235 . S
C77 O80 1.238 . S
C77 O81 1.241 . S
C78 O71 1.247 . S
C78 O72 1.261 . S
C79 O74 1.259 . S
C79 O76 1.235 . S
O80 Co70 2.021 . S
O80 C77 1.238 . S
O81 Co75 2.052 . S
O81 C77 1.241 . S
O82 Co70 2.137 . S
O82 C73 1.247 . S
O83 Co70 2.244 . S
O83 C73 1.272 . S
O83 Co75 2.135 . S
Co84 O85 2.216 . S
Co84 O86 2.091 . S
Co84 O88 2.004 . S
Co84 O94 2.021 . S
Co84 O96 2.137 . S
Co84 O97 2.244 . S
O85 Co84 2.216 . S
O85 C92 1.247 . S
O86 Co84 2.091 . S
O86 C92 1.261 . S
C87 O96 1.247 . S
C87 O97 1.272 . S
O88 Co84 2.004 . S
O88 C93 1.259 . S
Co89 O90 2.061 . S
Co89 O95 2.052 . S
Co89 O97 2.135 . S
O90 Co89 2.061 . S
O90 C93 1.235 . S
C91 O94 1.238 . S
C91 O95 1.241 . S
C92 O85 1.247 . S
C92 O86 1.261 . S
C93 O88 1.259 . S
C93 O90 1.235 . S
O94 Co84 2.021 . S
O94 C91 1.238 . S
O95 Co89 2.052 . S
O95 C91 1.241 . S
O96 Co84 2.137 . S
O96 C87 1.247 . S
O97 Co84 2.244 . S
O97 C87 1.272 . S
O97 Co89 2.135 . S
Co98 O99 2.216 . S
Co98 O100 2.091 . S
Co98 O102 2.004 1_455 S
Co98 O108 2.021 . S
Co98 O110 2.137 . S
Co98 O111 2.244 . S
O99 Co98 2.216 . S
O99 C106 1.247 . S
O100 Co98 2.091 . S
O100 C106 1.261 . S
C101 O110 1.247 . S
C101 O111 1.272 . S
O102 Co98 2.004 1_655 S
O102 C107 1.259 . S
Co103 O104 2.061 . S
Co103 O109 2.052 1_655 S
Co103 O111 2.135 1_655 S
O104 Co103 2.061 . S
O104 C107 1.235 . S
C105 O108 1.238 . S
C105 O109 1.241 . S
C106 O99 1.247 . S
C106 O100 1.261 . S
C107 O102 1.259 . S
C107 O104 1.235 . S
O108 Co98 2.021 . S
O108 C105 1.238 . S
O109 Co103 2.052 1_455 S
O109 C105 1.241 . S
O110 Co98 2.137 . S
O110 C101 1.247 . S
O111 Co98 2.244 . S
O111 C101 1.272 . S
O111 Co103 2.135 1_455 S
Co112 O113 2.216 . S
Co112 O114 2.091 . S
Co112 O116 2.004 1_545 S
Co112 O122 2.021 . S
Co112 O124 2.137 . S
Co112 O125 2.244 . S
O113 Co112 2.216 . S
O113 C120 1.247 . S
O114 Co112 2.091 . S
O114 C120 1.261 . S
C115 O124 1.247 . S
C115 O125 1.272 . S
O116 Co112 2.004 1_565 S
O116 C121 1.259 . S
Co117 O118 2.061 . S
Co117 O123 2.052 1_565 S
Co117 O125 2.135 1_565 S
O118 Co117 2.061 . S
O118 C121 1.235 . S
C119 O122 1.238 . S
C119 O123 1.241 . S
C120 O113 1.247 . S
C120 O114 1.261 . S
C121 O116 1.259 . S
C121 O118 1.235 . S
O122 Co112 2.021 . S
O122 C119 1.238 . S
O123 Co117 2.052 1_545 S
O123 C119 1.241 . S
O124 Co112 2.137 . S
O124 C115 1.247 . S
O125 Co112 2.244 . S
O125 C115 1.272 . S
O125 Co117 2.135 1_545 S
Co126 O127 2.216 . S
Co126 O128 2.091 . S
Co126 O130 2.004 . S
Co126 O136 2.021 . S
Co126 O138 2.137 . S
Co126 O139 2.244 . S
O127 Co126 2.216 . S
O127 C134 1.247 . S
O128 Co126 2.091 . S
O128 C134 1.261 . S
C129 O138 1.247 . S
C129 O139 1.272 . S
O130 Co126 2.004 . S
O130 C135 1.259 . S
Co131 O132 2.061 . S
Co131 O137 2.052 . S
Co131 O139 2.135 . S
O132 Co131 2.061 . S
O132 C135 1.235 . S
C133 O136 1.238 . S
C133 O137 1.241 . S
C134 O127 1.247 . S
C134 O128 1.261 . S
C135 O130 1.259 . S
C135 O132 1.235 . S
O136 Co126 2.021 . S
O136 C133 1.238 . S
O137 Co131 2.052 . S
O137 C133 1.241 . S
O138 Co126 2.137 . S
O138 C129 1.247 . S
O139 Co126 2.244 . S
O139 C129 1.272 . S
O139 Co131 2.135 . S
Co140 O141 2.216 . S
Co140 O142 2.091 . S
Co140 O144 2.004 1_565 S
Co140 O150 2.021 . S
Co140 O152 2.137 . S
Co140 O153 2.244 1_565 S
O141 Co140 2.216 . S
O141 C148 1.247 . S
O142 Co140 2.091 . S
O142 C148 1.261 . S
C143 O152 1.247 1_545 S
C143 O153 1.272 . S
O144 Co140 2.004 1_545 S
O144 C149 1.259 . S
Co145 O146 2.061 . S
Co145 O151 2.052 . S
Co145 O153 2.135 . S
O146 Co145 2.061 . S
O146 C149 1.235 . S
C147 O150 1.238 . S
C147 O151 1.241 1_565 S
C148 O141 1.247 . S
C148 O142 1.261 . S
C149 O144 1.259 . S
C149 O146 1.235 . S
O150 Co140 2.021 . S
O150 C147 1.238 . S
O151 Co145 2.052 . S
O151 C147 1.241 1_545 S
O152 Co140 2.137 . S
O152 C143 1.247 1_565 S
O153 Co140 2.244 1_545 S
O153 C143 1.272 . S
O153 Co145 2.135 . S
Co154 O155 2.216 . S
Co154 O156 2.091 . S
Co154 O158 2.004 . S
Co154 O164 2.021 . S
Co154 O166 2.137 1_554 S
Co154 O167 2.244 1_554 S
O155 Co154 2.216 . S
O155 C162 1.247 . S
O156 Co154 2.091 . S
O156 C162 1.261 . S
C157 O166 1.247 . S
C157 O167 1.272 . S
O158 Co154 2.004 . S
O158 C163 1.259 . S
Co159 O160 2.061 . S
Co159 O165 2.052 . S
Co159 O167 2.135 1_554 S
O160 Co159 2.061 . S
O160 C163 1.235 . S
C161 O164 1.238 . S
C161 O165 1.241 . S
C162 O155 1.247 . S
C162 O156 1.261 . S
C163 O158 1.259 . S
C163 O160 1.235 . S
O164 Co154 2.021 . S
O164 C161 1.238 . S
O165 Co159 2.052 . S
O165 C161 1.241 . S
O166 Co154 2.137 1_556 S
O166 C157 1.247 . S
O167 Co154 2.244 1_556 S
O167 C157 1.272 . S
O167 Co159 2.135 1_556 S
Co168 O169 2.216 . S
Co168 O170 2.091 . S
Co168 O172 2.004 . S
Co168 O178 2.021 . S
Co168 O180 2.137 1_554 S
Co168 O181 2.244 . S
O169 Co168 2.216 . S
O169 C176 1.247 . S
O170 Co168 2.091 . S
O170 C176 1.261 . S
C171 O180 1.247 . S
C171 O181 1.272 1_556 S
O172 Co168 2.004 . S
O172 C177 1.259 . S
Co173 O174 2.061 . S
Co173 O179 2.052 . S
Co173 O181 2.135 . S
O174 Co173 2.061 . S
O174 C177 1.235 . S
C175 O178 1.238 . S
C175 O179 1.241 . S
C176 O169 1.247 . S
C176 O170 1.261 . S
C177 O172 1.259 . S
C177 O174 1.235 . S
O178 Co168 2.021 . S
O178 C175 1.238 . S
O179 Co173 2.052 . S
O179 C175 1.241 . S
O180 Co168 2.137 1_556 S
O180 C171 1.247 . S
O181 Co168 2.244 . S
O181 C171 1.272 1_554 S
O181 Co173 2.135 . S
Co182 O183 2.216 . S
Co182 O184 2.091 . S
Co182 O186 2.004 . S
Co182 O192 2.021 . S
Co182 O194 2.137 1_554 S
Co182 O195 2.244 . S
O183 Co182 2.216 . S
O183 C190 1.247 . S
O184 Co182 2.091 . S
O184 C190 1.261 . S
C185 O194 1.247 . S
C185 O195 1.272 1_556 S
O186 Co182 2.004 . S
O186 C191 1.259 . S
Co187 O188 2.061 . S
Co187 O193 2.052 . S
Co187 O195 2.135 . S
O188 Co187 2.061 . S
O188 C191 1.235 . S
C189 O192 1.238 . S
C189 O193 1.241 . S
C190 O183 1.247 . S
C190 O184 1.261 . S
C191 O186 1.259 . S
C191 O188 1.235 . S
O192 Co182 2.021 . S
O192 C189 1.238 . S
O193 Co187 2.052 . S
O193 C189 1.241 . S
O194 Co182 2.137 1_556 S
O194 C185 1.247 . S
O195 Co182 2.244 . S
O195 C185 1.272 1_554 S
O195 Co187 2.135 . S
Co196 O197 2.216 . S
Co196 O198 2.091 . S
Co196 O200 2.004 . S
Co196 O206 2.021 . S
Co196 O208 2.137 . S
Co196 O209 2.244 . S
O197 Co196 2.216 . S
O197 C204 1.247 . S
O198 Co196 2.091 . S
O198 C204 1.261 . S
C199 O208 1.247 . S
C199 O209 1.272 . S
O200 Co196 2.004 . S
O200 C205 1.259 . S
Co201 O202 2.061 . S
Co201 O207 2.052 . S
Co201 O209 2.135 . S
O202 Co201 2.061 . S
O202 C205 1.235 . S
C203 O206 1.238 . S
C203 O207 1.241 . S
C204 O197 1.247 . S
C204 O198 1.261 . S
C205 O200 1.259 . S
C205 O202 1.235 . S
O206 Co196 2.021 . S
O206 C203 1.238 . S
O207 Co201 2.052 . S
O207 C203 1.241 . S
O208 Co196 2.137 . S
O208 C199 1.247 . S
O209 Co196 2.244 . S
O209 C199 1.272 . S
O209 Co201 2.135 . S
Co210 O211 2.216 . S
Co210 O212 2.091 . S
Co210 O214 2.004 . S
Co210 O220 2.021 . S
Co210 O222 2.137 . S
Co210 O223 2.244 . S
O211 Co210 2.216 . S
O211 C218 1.247 . S
O212 Co210 2.091 . S
O212 C218 1.261 . S
C213 O222 1.247 . S
C213 O223 1.272 . S
O214 Co210 2.004 . S
O214 C219 1.259 . S
Co215 O216 2.061 . S
Co215 O221 2.052 . S
Co215 O223 2.135 . S
O216 Co215 2.061 . S
O216 C219 1.235 . S
C217 O220 1.238 . S
C217 O221 1.241 . S
C218 O211 1.247 . S
C218 O212 1.261 . S
C219 O214 1.259 . S
C219 O216 1.235 . S
O220 Co210 2.021 . S
O220 C217 1.238 . S
O221 Co215 2.052 . S
O221 C217 1.241 . S
O222 Co210 2.137 . S
O222 C213 1.247 . S
O223 Co210 2.244 . S
O223 C213 1.272 . S
O223 Co215 2.135 . S
Co224 O225 2.216 . S
Co224 O226 2.091 . S
Co224 O228 2.004 . S
Co224 O234 2.021 . S
Co224 O236 2.137 . S
Co224 O237 2.244 . S
O225 Co224 2.216 . S
O225 C232 1.247 . S
O226 Co224 2.091 . S
O226 C232 1.261 . S
C227 O236 1.247 . S
C227 O237 1.272 . S
O228 Co224 2.004 . S
O228 C233 1.259 . S
Co229 O230 2.061 . S
Co229 O235 2.052 . S
Co229 O237 2.135 . S
O230 Co229 2.061 . S
O230 C233 1.235 . S
C231 O234 1.238 . S
C231 O235 1.241 . S
C232 O225 1.247 . S
C232 O226 1.261 . S
C233 O228 1.259 . S
C233 O230 1.235 . S
O234 Co224 2.021 . S
O234 C231 1.238 . S
O235 Co229 2.052 . S
O235 C231 1.241 . S
O236 Co224 2.137 . S
O236 C227 1.247 . S
O237 Co224 2.244 . S
O237 C227 1.272 . S
O237 Co229 2.135 . S
Co238 O239 2.216 . S
Co238 O240 2.091 . S
Co238 O242 2.004 . S
Co238 O248 2.021 . S
Co238 O250 2.137 . S
Co238 O251 2.244 . S
O239 Co238 2.216 . S
O239 C246 1.247 . S
O240 Co238 2.091 . S
O240 C246 1.261 . S
C241 O250 1.247 . S
C241 O251 1.272 . S
O242 Co238 2.004 . S
O242 C247 1.259 . S
Co243 O244 2.061 . S
Co243 O249 2.052 . S
Co243 O251 2.135 . S
O244 Co243 2.061 . S
O244 C247 1.235 . S
C245 O248 1.238 . S
C245 O249 1.241 . S
C246 O239 1.247 . S
C246 O240 1.261 . S
C247 O242 1.259 . S
C247 O244 1.235 . S
O248 Co238 2.021 . S
O248 C245 1.238 . S
O249 Co243 2.052 . S
O249 C245 1.241 . S
O250 Co238 2.137 . S
O250 C241 1.247 . S
O251 Co238 2.244 . S
O251 C241 1.272 . S
O251 Co243 2.135 . S
Co252 O253 2.216 . S
Co252 O254 2.091 . S
Co252 O256 2.004 . S
Co252 O262 2.021 . S
Co252 O264 2.137 . S
Co252 O265 2.244 . S
O253 Co252 2.216 . S
O253 C260 1.247 . S
O254 Co252 2.091 . S
O254 C260 1.261 . S
C255 O264 1.247 . S
C255 O265 1.272 . S
O256 Co252 2.004 . S
O256 C261 1.259 . S
Co257 O258 2.061 . S
Co257 O263 2.052 . S
Co257 O265 2.135 . S
O258 Co257 2.061 . S
O258 C261 1.235 . S
C259 O262 1.238 . S
C259 O263 1.241 . S
C260 O253 1.247 . S
C260 O254 1.261 . S
C261 O256 1.259 . S
C261 O258 1.235 . S
O262 Co252 2.021 . S
O262 C259 1.238 . S
O263 Co257 2.052 . S
O263 C259 1.241 . S
O264 Co252 2.137 . S
O264 C255 1.247 . S
O265 Co252 2.244 . S
O265 C255 1.272 . S
O265 Co257 2.135 . S
Co266 O267 2.216 . S
Co266 O268 2.091 . S
Co266 O270 2.004 . S
Co266 O276 2.021 . S
Co266 O278 2.137 . S
Co266 O279 2.244 . S
O267 Co266 2.216 . S
O267 C274 1.247 . S
O268 Co266 2.091 . S
O268 C274 1.261 . S
C269 O278 1.247 . S
C269 O279 1.272 . S
O270 Co266 2.004 . S
O270 C275 1.259 . S
Co271 O272 2.061 . S
Co271 O277 2.052 . S
Co271 O279 2.135 . S
O272 Co271 2.061 . S
O272 C275 1.235 . S
C273 O276 1.238 . S
C273 O277 1.241 . S
C274 O267 1.247 . S
C274 O268 1.261 . S
C275 O270 1.259 . S
C275 O272 1.235 . S
O276 Co266 2.021 . S
O276 C273 1.238 . S
O277 Co271 2.052 . S
O277 C273 1.241 . S
O278 Co266 2.137 . S
O278 C269 1.247 . S
O279 Co266 2.244 . S
O279 C269 1.272 . S
O279 Co271 2.135 . S
Co280 O281 2.216 . S
Co280 O282 2.091 . S
Co280 O284 2.004 . S
Co280 O290 2.021 1_556 S
Co280 O292 2.137 . S
Co280 O293 2.244 . S
O281 Co280 2.216 . S
O281 C288 1.246 . S
O282 Co280 2.091 . S
O282 C288 1.261 . S
C283 O292 1.247 . S
C283 O293 1.272 . S
O284 Co280 2.004 . S
O284 C289 1.259 . S
Co285 O286 2.061 . S
Co285 O291 2.052 . S
Co285 O293 2.135 1_554 S
O286 Co285 2.061 . S
O286 C289 1.235 1_554 S
C287 O290 1.238 . S
C287 O291 1.241 . S
C288 O281 1.246 . S
C288 O282 1.261 . S
C289 O284 1.259 . S
C289 O286 1.235 1_556 S
O290 Co280 2.021 1_554 S
O290 C287 1.238 . S
O291 Co285 2.052 . S
O291 C287 1.241 . S
O292 Co280 2.137 . S
O292 C283 1.247 . S
O293 Co280 2.244 . S
O293 C283 1.272 . S
O293 Co285 2.135 1_556 S
Co294 O295 2.216 . S
Co294 O296 2.091 . S
Co294 O298 2.004 . S
Co294 O304 2.021 . S
Co294 O306 2.137 . S
Co294 O307 2.244 . S
O295 Co294 2.216 . S
O295 C302 1.247 . S
O296 Co294 2.091 . S
O296 C302 1.261 . S
C297 O306 1.247 . S
C297 O307 1.272 . S
O298 Co294 2.004 . S
O298 C303 1.259 . S
Co299 O300 2.061 . S
Co299 O305 2.052 . S
Co299 O307 2.135 . S
O300 Co299 2.061 . S
O300 C303 1.235 . S
C301 O304 1.238 . S
C301 O305 1.241 . S
C302 O295 1.247 . S
C302 O296 1.261 . S
C303 O298 1.259 . S
C303 O300 1.235 . S
O304 Co294 2.021 . S
O304 C301 1.238 . S
O305 Co299 2.052 . S
O305 C301 1.241 . S
O306 Co294 2.137 . S
O306 C297 1.247 . S
O307 Co294 2.244 . S
O307 C297 1.272 . S
O307 Co299 2.135 . S
Co308 O309 2.216 . S
Co308 O310 2.091 . S
Co308 O312 2.004 . S
Co308 O318 2.021 . S
Co308 O320 2.137 . S
Co308 O321 2.244 . S
O309 Co308 2.216 . S
O309 C316 1.247 . S
O310 Co308 2.091 . S
O310 C316 1.261 . S
C311 O320 1.247 . S
C311 O321 1.272 . S
O312 Co308 2.004 . S
O312 C317 1.259 . S
Co313 O314 2.061 . S
Co313 O319 2.052 . S
Co313 O321 2.135 . S
O314 Co313 2.061 . S
O314 C317 1.235 . S
C315 O318 1.238 . S
C315 O319 1.241 . S
C316 O309 1.247 . S
C316 O310 1.261 . S
C317 O312 1.259 . S
C317 O314 1.235 . S
O318 Co308 2.021 . S
O318 C315 1.238 . S
O319 Co313 2.052 . S
O319 C315 1.241 . S
O320 Co308 2.137 . S
O320 C311 1.247 . S
O321 Co308 2.244 . S
O321 C311 1.272 . S
O321 Co313 2.135 . S
Co322 O323 2.216 . S
Co322 O324 2.091 . S
Co322 O326 2.004 . S
Co322 O332 2.021 . S
Co322 O334 2.137 . S
Co322 O335 2.244 . S
O323 Co322 2.216 . S
O323 C330 1.247 . S
O324 Co322 2.091 . S
O324 C330 1.261 . S
C325 O334 1.247 . S
C325 O335 1.272 . S
O326 Co322 2.004 . S
O326 C331 1.259 . S
Co327 O328 2.061 . S
Co327 O333 2.052 . S
Co327 O335 2.135 . S
O328 Co327 2.061 . S
O328 C331 1.235 . S
C329 O332 1.238 . S
C329 O333 1.241 . S
C330 O323 1.247 . S
C330 O324 1.261 . S
C331 O326 1.259 . S
C331 O328 1.235 . S
O332 Co322 2.021 . S
O332 C329 1.238 . S
O333 Co327 2.052 . S
O333 C329 1.241 . S
O334 Co322 2.137 . S
O334 C325 1.247 . S
O335 Co322 2.244 . S
O335 C325 1.272 . S
O335 Co327 2.135 . S
Tb336 N367 2.660 1_545 S
Tb336 N374 2.600 1_544 S
Tb336 O380 2.546 1_454 S
Tb336 O381 2.610 . S
Tb336 O383 2.320 . S
Tb336 O384 2.552 . S
Tb336 O385 2.413 1_455 S
Tb336 O387 2.362 . S
Tb336 O388 2.421 1_554 S
Tb336 C400 2.833 1_454 S
C337 C340 1.432 . S
C337 C341 1.414 . S
C337 N344 1.359 . S
C338 C340 1.417 . S
C338 C342 1.432 . S
C338 C350 1.410 . S
C339 C341 1.444 . S
C339 C342 1.317 . S
C339 H362 0.929 . S
C340 C337 1.432 . S
C340 C338 1.417 . S
C340 N348 1.360 . S
C341 C337 1.414 . S
C341 C339 1.444 . S
C341 C346 1.385 . S
C342 C338 1.432 . S
C342 C339 1.317 . S
C342 H354 0.930 . S
C343 C345 1.392 . S
C343 C346 1.370 . S
C343 H355 0.931 . S
N344 C337 1.359 . S
N344 C345 1.327 . S
N344 Tb347 2.600 . S
C345 C343 1.392 . S
C345 N344 1.327 . S
C345 H352 0.930 . S
C346 C341 1.385 . S
C346 C343 1.370 . S
C346 H365 0.930 . S
Tb347 N344 2.600 . S
Tb347 N348 2.660 . S
Tb347 O381 2.362 . S
Tb347 O382 2.421 . S
Tb347 O386 2.546 . S
Tb347 O387 2.610 . S
Tb347 O389 2.320 1_554 S
Tb347 O390 2.552 . S
Tb347 O391 2.413 . S
Tb347 C411 2.833 . S
N348 C340 1.360 . S
N348 Tb347 2.660 . S
N348 C349 1.305 1_554 S
C349 N348 1.305 1_556 S
C349 C351 1.407 . S
C349 H356 0.930 . S
C350 C338 1.410 . S
C350 C351 1.345 1_554 S
C350 H358 0.930 1_554 S
C351 C349 1.407 . S
C351 C350 1.345 1_556 S
C351 H353 0.930 . S
H352 C345 0.930 . S
H353 C351 0.930 . S
H354 C342 0.930 . S
H355 C343 0.931 . S
H356 C349 0.930 . S
H357 C371 0.930 . S
H358 C350 0.930 1_556 S
H359 C377 0.930 . S
H360 C368 0.930 . S
H361 C375 0.931 . S
H362 C339 0.929 . S
H363 C369 0.930 . S
H364 C402 0.906 1_554 S
H365 C346 0.930 . S
H366 C401 0.929 . S
N367 Tb336 2.660 1_565 S
N367 C368 1.305 . S
N367 C372 1.368 . S
C368 H360 0.930 . S
C368 N367 1.305 . S
C368 C371 1.407 . S
C369 H363 0.930 . S
C369 C370 1.410 . S
C369 C371 1.345 1_655 S
C370 C369 1.410 . S
C370 C372 1.408 1_655 S
C370 C402 1.409 1_554 S
C371 H357 0.930 . S
C371 C368 1.407 . S
C371 C369 1.345 1_455 S
C372 N367 1.368 . S
C372 C370 1.408 1_455 S
C372 C376 1.433 1_554 S
H373 C378 0.930 . S
N374 Tb336 2.600 1_566 S
N374 C376 1.364 . S
N374 C377 1.327 . S
C375 H361 0.931 . S
C375 C377 1.384 1_655 S
C375 C378 1.379 . S
C376 C372 1.433 1_556 S
C376 N374 1.364 . S
C376 C379 1.410 1_455 S
C377 H359 0.930 . S
C377 N374 1.327 . S
C377 C375 1.384 1_455 S
C378 H373 0.930 . S
C378 C375 1.379 . S
C378 C379 1.385 . S
C379 C376 1.410 1_655 S
C379 C378 1.385 . S
C379 C401 1.444 . S
O380 Tb336 2.546 1_656 S
O380 C400 1.251 . S
O381 Tb336 2.610 . S
O381 Tb347 2.362 . S
O381 C392 1.283 . S
O382 Tb347 2.421 . S
O382 C399 1.262 . S
O383 Tb336 2.320 . S
O383 C399 1.260 . S
O384 Tb336 2.552 . S
O384 C392 1.243 . S
O385 Tb336 2.413 1_655 S
O385 C400 1.256 1_554 S
O386 Tb347 2.546 . S
O386 C411 1.251 . S
O387 Tb336 2.362 . S
O387 Tb347 2.610 . S
O387 C403 1.283 1_545 S
O388 Tb336 2.421 1_556 S
O388 C410 1.262 . S
O389 Tb347 2.320 1_556 S
O389 C410 1.260 . S
O390 Tb347 2.552 . S
O390 C403 1.243 1_545 S
O391 Tb347 2.413 . S
O391 C411 1.256 . S
C392 O381 1.283 . S
C392 O384 1.243 . S
C393 C395 1.382 1_556 S
C393 C397 1.393 . S
C393 C400 1.500 . S
C394 C395 1.397 1_556 S
C394 C396 1.396 . S
C395 C393 1.382 1_554 S
C395 C394 1.397 1_554 S
C395 H412 0.930 . S
C396 C394 1.396 . S
C396 C398 1.392 . S
C396 H413 0.931 . S
C397 C393 1.393 . S
C397 C398 1.401 . S
C397 H414 0.930 . S
C398 C396 1.392 . S
C398 C397 1.401 . S
C398 H415 0.930 . S
C399 O382 1.262 . S
C399 O383 1.260 . S
C400 Tb336 2.833 1_656 S
C400 O380 1.251 . S
C400 O385 1.256 1_556 S
C400 C393 1.500 . S
C401 H366 0.929 . S
C401 C379 1.444 . S
C401 C402 1.365 . S
C402 H364 0.906 1_556 S
C402 C370 1.409 1_556 S
C402 C401 1.365 . S
C403 O387 1.283 1_565 S
C403 O390 1.243 1_565 S
C404 C405 1.382 . S
C404 C408 1.393 . S
C404 C411 1.500 . S
C405 C404 1.382 . S
C405 C406 1.400 . S
C405 H416 0.930 . S
C406 C405 1.400 . S
C406 C407 1.384 . S
C407 C406 1.384 . S
C407 C409 1.392 . S
C407 H417 0.931 . S
C408 C404 1.393 . S
C408 C409 1.401 . S
C408 H418 0.930 . S
C409 C407 1.392 . S
C409 C408 1.401 . S
C409 H419 0.930 . S
C410 O388 1.262 . S
C410 O389 1.260 . S
C411 Tb347 2.833 . S
C411 O386 1.251 . S
C411 O391 1.256 . S
C411 C404 1.500 . S
H412 C395 0.930 . S
H413 C396 0.931 . S
H414 C397 0.930 . S
H415 C398 0.930 . S
H416 C405 0.930 . S
H417 C407 0.931 . S
H418 C408 0.930 . S
H419 C409 0.930 . S
Tb420 N451 2.660 . S
Tb420 N458 2.600 . S
Tb420 O464 2.546 . S
Tb420 O465 2.610 . S
Tb420 O467 2.320 . S
Tb420 O468 2.552 . S
Tb420 O469 2.413 . S
Tb420 O471 2.362 . S
Tb420 O472 2.421 . S
Tb420 C484 2.833 . S
C421 C424 1.432 . S
C421 C425 1.414 . S
C421 N428 1.359 . S
C422 C424 1.417 . S
C422 C426 1.432 . S
C422 C434 1.410 . S
C423 C425 1.444 . S
C423 C426 1.317 . S
C423 H446 0.929 . S
C424 C421 1.432 . S
C424 C422 1.417 . S
C424 N432 1.360 . S
C425 C421 1.414 . S
C425 C423 1.444 . S
C425 C430 1.385 . S
C426 C422 1.432 . S
C426 C423 1.317 . S
C426 H438 0.930 . S
C427 C429 1.392 . S
C427 C430 1.370 . S
C427 H439 0.931 . S
N428 C421 1.359 . S
N428 C429 1.327 . S
N428 Tb431 2.600 . S
C429 C427 1.392 . S
C429 N428 1.327 . S
C429 H436 0.930 . S
C430 C425 1.385 . S
C430 C427 1.370 . S
C430 H449 0.930 . S
Tb431 N428 2.600 . S
Tb431 N432 2.660 . S
Tb431 O465 2.362 . S
Tb431 O466 2.421 . S
Tb431 O470 2.546 . S
Tb431 O471 2.610 . S
Tb431 O473 2.320 . S
Tb431 O474 2.552 . S
Tb431 O475 2.413 . S
Tb431 C495 2.833 . S
N432 C424 1.360 . S
N432 Tb431 2.660 . S
N432 C433 1.305 . S
C433 N432 1.305 . S
C433 C435 1.407 . S
C433 H440 0.930 . S
C434 C422 1.410 . S
C434 C435 1.345 . S
C434 H442 0.930 . S
C435 C433 1.407 . S
C435 C434 1.345 . S
C435 H437 0.930 . S
H436 C429 0.930 . S
H437 C435 0.930 . S
H438 C426 0.930 . S
H439 C427 0.931 . S
H440 C433 0.930 . S
H441 C455 0.930 . S
H442 C434 0.930 . S
H443 C461 0.930 . S
H444 C452 0.930 . S
H445 C459 0.931 . S
H446 C423 0.929 . S
H447 C453 0.930 . S
H448 C486 0.930 . S
H449 C430 0.930 . S
H450 C485 0.929 . S
N451 Tb420 2.660 . S
N451 C452 1.305 . S
N451 C456 1.360 . S
C452 H444 0.930 . S
C452 N451 1.305 . S
C452 C455 1.407 . S
C453 H447 0.930 . S
C453 C454 1.410 . S
C453 C455 1.345 . S
C454 C453 1.410 . S
C454 C456 1.417 . S
C454 C486 1.432 . S
C455 H441 0.930 . S
C455 C452 1.407 . S
C455 C453 1.345 . S
C456 N451 1.360 . S
C456 C454 1.417 . S
C456 C460 1.432 . S
H457 C462 0.930 . S
N458 Tb420 2.600 . S
N458 C460 1.359 . S
N458 C461 1.327 . S
C459 H445 0.931 . S
C459 C461 1.392 . S
C459 C462 1.370 . S
C460 C456 1.432 . S
C460 N458 1.359 . S
C460 C463 1.414 . S
C461 H443 0.930 . S
C461 N458 1.327 . S
C461 C459 1.392 . S
C462 H457 0.930 . S
C462 C459 1.370 . S
C462 C463 1.385 . S
C463 C460 1.414 . S
C463 C462 1.385 . S
C463 C485 1.444 . S
O464 Tb420 2.546 . S
O464 C484 1.251 . S
O465 Tb420 2.610 . S
O465 Tb431 2.362 . S
O465 C476 1.283 . S
O466 Tb431 2.421 . S
O466 C483 1.262 . S
O467 Tb420 2.320 . S
O467 C483 1.260 . S
O468 Tb420 2.552 . S
O468 C476 1.243 . S
O469 Tb420 2.413 . S
O469 C484 1.256 . S
O470 Tb431 2.546 . S
O470 C495 1.251 . S
O471 Tb420 2.362 . S
O471 Tb431 2.610 . S
O471 C487 1.283 . S
O472 Tb420 2.421 . S
O472 C494 1.262 . S
O473 Tb431 2.320 . S
O473 C494 1.260 . S
O474 Tb431 2.552 . S
O474 C487 1.243 . S
O475 Tb431 2.413 . S
O475 C495 1.256 . S
C476 O465 1.283 . S
C476 O468 1.243 . S
C477 C479 1.382 . S
C477 C481 1.393 . S
C477 C484 1.500 . S
C478 C479 1.400 . S
C478 C480 1.384 . S
C479 C477 1.382 . S
C479 C478 1.400 . S
C479 H496 0.930 . S
C480 C478 1.384 . S
C480 C482 1.392 . S
C480 H497 0.931 . S
C481 C477 1.393 . S
C481 C482 1.401 . S
C481 H498 0.930 . S
C482 C480 1.392 . S
C482 C481 1.401 . S
C482 H499 0.930 . S
C483 O466 1.262 . S
C483 O467 1.260 . S
C484 Tb420 2.833 . S
C484 O464 1.251 . S
C484 O469 1.256 . S
C484 C477 1.500 . S
C485 H450 0.929 . S
C485 C463 1.444 . S
C485 C486 1.317 . S
C486 H448 0.930 . S
C486 C454 1.432 . S
C486 C485 1.317 . S
C487 O471 1.283 . S
C487 O474 1.243 . S
C488 C489 1.382 . S
C488 C492 1.393 . S
C488 C495 1.500 . S
C489 C488 1.382 . S
C489 C490 1.400 . S
C489 H500 0.930 . S
C490 C489 1.400 . S
C490 C491 1.384 . S
C491 C490 1.384 . S
C491 C493 1.392 . S
C491 H501 0.931 . S
C492 C488 1.393 . S
C492 C493 1.401 . S
C492 H502 0.930 . S
C493 C491 1.392 . S
C493 C492 1.401 . S
C493 H503 0.930 . S
C494 O472 1.262 . S
C494 O473 1.260 . S
C495 Tb431 2.833 . S
C495 O470 1.251 . S
C495 O475 1.256 . S
C495 C488 1.500 . S
H496 C479 0.930 . S
H497 C480 0.931 . S
H498 C481 0.930 . S
H499 C482 0.930 . S
H500 C489 0.930 . S
H501 C491 0.931 . S
H502 C492 0.930 . S
H503 C493 0.930 . S
Tb504 N535 2.660 . S
Tb504 N542 2.600 . S
Tb504 O548 2.546 . S
Tb504 O549 2.610 . S
Tb504 O551 2.320 . S
Tb504 O552 2.552 1_545 S
Tb504 O553 2.413 . S
Tb504 O555 2.362 . S
Tb504 O556 2.421 . S
Tb504 C568 2.833 . S
C505 C508 1.432 . S
C505 C509 1.414 . S
C505 N512 1.359 1_565 S
C506 C508 1.417 . S
C506 C510 1.432 . S
C506 C518 1.410 . S
C507 C509 1.444 . S
C507 C510 1.317 . S
C507 H530 0.929 . S
C508 C505 1.432 . S
C508 C506 1.417 . S
C508 N516 1.360 . S
C509 C505 1.414 . S
C509 C507 1.444 . S
C509 C514 1.385 . S
C510 C506 1.432 . S
C510 C507 1.317 . S
C510 H522 0.930 . S
C511 C513 1.395 1_565 S
C511 C514 1.366 . S
C511 H523 0.932 1_565 S
N512 C505 1.359 1_545 S
N512 C513 1.327 . S
N512 Tb515 2.600 . S
C513 C511 1.395 1_545 S
C513 N512 1.327 . S
C513 H520 0.930 . S
C514 C509 1.385 . S
C514 C511 1.366 . S
C514 H533 0.930 . S
Tb515 N512 2.600 . S
Tb515 N516 2.660 1_545 S
Tb515 O549 2.362 . S
Tb515 O550 2.421 . S
Tb515 O554 2.546 . S
Tb515 O555 2.610 . S
Tb515 O557 2.320 . S
Tb515 O558 2.552 . S
Tb515 O559 2.413 . S
Tb515 C579 2.833 . S
N516 C508 1.360 . S
N516 Tb515 2.660 1_565 S
N516 C517 1.305 . S
C517 N516 1.305 . S
C517 C519 1.407 . S
C517 H524 0.930 . S
C518 C506 1.410 . S
C518 C519 1.345 . S
C518 H526 0.930 . S
C519 C517 1.407 . S
C519 C518 1.345 . S
C519 H521 0.930 . S
H520 C513 0.930 . S
H521 C519 0.930 . S
H522 C510 0.930 . S
H523 C511 0.932 1_545 S
H524 C517 0.930 . S
H525 C539 0.930 . S
H526 C518 0.930 . S
H527 C545 0.930 . S
H528 C536 0.930 . S
H529 C543 0.931 . S
H530 C507 0.929 . S
H531 C537 0.930 . S
H532 C570 0.930 . S
H533 C514 0.930 . S
H534 C569 0.929 . S
N535 Tb504 2.660 . S
N535 C536 1.305 . S
N535 C540 1.360 . S
C536 H528 0.930 . S
C536 N535 1.305 . S
C536 C539 1.407 . S
C537 H531 0.930 . S
C537 C538 1.410 . S
C537 C539 1.345 . S
C538 C537 1.410 . S
C538 C540 1.417 . S
C538 C570 1.432 . S
C539 H525 0.930 . S
C539 C536 1.407 . S
C539 C537 1.345 . S
C540 N535 1.360 . S
C540 C538 1.417 . S
C540 C544 1.432 . S
H541 C546 0.930 . S
N542 Tb504 2.600 . S
N542 C544 1.359 . S
N542 C545 1.327 . S
C543 H529 0.931 . S
C543 C545 1.392 . S
C543 C546 1.370 . S
C544 C540 1.432 . S
C544 N542 1.359 . S
C544 C547 1.414 . S
C545 H527 0.930 . S
C545 N542 1.327 . S
C545 C543 1.392 . S
C546 H541 0.930 . S
C546 C543 1.370 . S
C546 C547 1.385 . S
C547 C544 1.414 . S
C547 C546 1.385 . S
C547 C569 1.444 . S
O548 Tb504 2.546 . S
O548 C568 1.251 . S
O549 Tb504 2.610 . S
O549 Tb515 2.362 . S
O549 C560 1.283 1_545 S
O550 Tb515 2.421 . S
O550 C567 1.262 . S
O551 Tb504 2.320 . S
O551 C567 1.260 . S
O552 Tb504 2.552 1_565 S
O552 C560 1.243 . S
O553 Tb504 2.413 . S
O553 C568 1.256 . S
O554 Tb515 2.546 . S
O554 C579 1.251 . S
O555 Tb504 2.362 . S
O555 Tb515 2.610 . S
O555 C571 1.283 . S
O556 Tb504 2.421 . S
O556 C578 1.262 . S
O557 Tb515 2.320 . S
O557 C578 1.260 . S
O558 Tb515 2.552 . S
O558 C571 1.243 . S
O559 Tb515 2.413 . S
O559 C579 1.256 . S
C560 O549 1.283 1_565 S
C560 O552 1.243 . S
C561 C563 1.382 1_545 S
C561 C565 1.393 . S
C561 C568 1.500 . S
C562 C563 1.400 . S
C562 C564 1.384 . S
C563 C561 1.382 1_565 S
C563 C562 1.400 . S
C563 H580 0.930 . S
C564 C562 1.384 . S
C564 C566 1.392 . S
C564 H581 0.931 . S
C565 C561 1.393 . S
C565 C566 1.401 1_545 S
C565 H582 0.930 . S
C566 C564 1.392 . S
C566 C565 1.401 1_565 S
C566 H583 0.930 . S
C567 O550 1.262 . S
C567 O551 1.260 . S
C568 Tb504 2.833 . S
C568 O548 1.251 . S
C568 O553 1.256 . S
C568 C561 1.500 . S
C569 H534 0.929 . S
C569 C547 1.444 . S
C569 C570 1.317 . S
C570 H532 0.930 . S
C570 C538 1.432 . S
C570 C569 1.317 . S
C571 O555 1.283 . S
C571 O558 1.243 . S
C572 C573 1.382 . S
C572 C576 1.393 . S
C572 C579 1.500 . S
C573 C572 1.382 . S
C573 C574 1.400 . S
C573 H584 0.930 . S
C574 C573 1.400 . S
C574 C575 1.384 . S
C575 C574 1.384 . S
C575 C577 1.392 . S
C575 H585 0.931 . S
C576 C572 1.393 . S
C576 C577 1.401 . S
C576 H586 0.930 . S
C577 C575 1.392 . S
C577 C576 1.401 . S
C577 H587 0.930 . S
C578 O556 1.262 . S
C578 O557 1.260 . S
C579 Tb515 2.833 . S
C579 O554 1.251 . S
C579 O559 1.256 . S
C579 C572 1.500 . S
H580 C563 0.930 . S
H581 C564 0.931 . S
H582 C565 0.930 . S
H583 C566 0.930 . S
H584 C573 0.930 . S
H585 C575 0.931 . S
H586 C576 0.930 . S
H587 C577 0.930 . S
Tb588 N619 2.660 . S
Tb588 N626 2.600 . S
Tb588 O632 2.546 . S
Tb588 O633 2.610 . S
Tb588 O635 2.320 . S
Tb588 O636 2.552 . S
Tb588 O637 2.413 . S
Tb588 O639 2.362 . S
Tb588 O640 2.421 . S
Tb588 C652 2.833 . S
C589 C592 1.432 . S
C589 C593 1.414 . S
C589 N596 1.359 . S
C590 C592 1.417 . S
C590 C594 1.432 . S
C590 C602 1.410 . S
C591 C593 1.444 . S
C591 C594 1.317 . S
C591 H614 0.929 . S
C592 C589 1.432 . S
C592 C590 1.417 . S
C592 N600 1.360 . S
C593 C589 1.414 . S
C593 C591 1.444 . S
C593 C598 1.385 . S
C594 C590 1.432 . S
C594 C591 1.317 . S
C594 H606 0.930 . S
C595 C597 1.392 . S
C595 C598 1.370 . S
C595 H607 0.931 . S
N596 C589 1.359 . S
N596 C597 1.327 . S
N596 Tb599 2.600 . S
C597 C595 1.392 . S
C597 N596 1.327 . S
C597 H604 0.930 . S
C598 C593 1.385 . S
C598 C595 1.370 . S
C598 H617 0.930 . S
Tb599 N596 2.600 . S
Tb599 N600 2.660 . S
Tb599 O633 2.362 . S
Tb599 O634 2.421 . S
Tb599 O638 2.546 . S
Tb599 O639 2.610 . S
Tb599 O641 2.320 . S
Tb599 O642 2.552 . S
Tb599 O643 2.413 . S
Tb599 C663 2.833 . S
N600 C592 1.360 . S
N600 Tb599 2.660 . S
N600 C601 1.305 . S
C601 N600 1.305 . S
C601 C603 1.407 . S
C601 H608 0.930 . S
C602 C590 1.410 . S
C602 C603 1.345 . S
C602 H610 0.930 . S
C603 C601 1.407 . S
C603 C602 1.345 . S
C603 H605 0.930 . S
H604 C597 0.930 . S
H605 C603 0.930 . S
H606 C594 0.930 . S
H607 C595 0.931 . S
H608 C601 0.930 . S
H609 C623 0.930 . S
H610 C602 0.930 . S
H611 C629 0.930 . S
H612 C620 0.930 . S
H613 C627 0.931 . S
H614 C591 0.929 . S
H615 C621 0.930 . S
H616 C654 0.930 . S
H617 C598 0.930 . S
H618 C653 0.929 . S
N619 Tb588 2.660 . S
N619 C620 1.305 . S
N619 C624 1.360 . S
C620 H612 0.930 . S
C620 N619 1.305 . S
C620 C623 1.407 . S
C621 H615 0.930 . S
C621 C622 1.410 . S
C621 C623 1.345 . S
C622 C621 1.410 . S
C622 C624 1.417 . S
C622 C654 1.432 . S
C623 H609 0.930 . S
C623 C620 1.407 . S
C623 C621 1.345 . S
C624 N619 1.360 . S
C624 C622 1.417 . S
C624 C628 1.432 . S
H625 C630 0.930 . S
N626 Tb588 2.600 . S
N626 C628 1.359 . S
N626 C629 1.327 . S
C627 H613 0.931 . S
C627 C629 1.392 . S
C627 C630 1.370 . S
C628 C624 1.432 . S
C628 N626 1.359 . S
C628 C631 1.414 . S
C629 H611 0.930 . S
C629 N626 1.327 . S
C629 C627 1.392 . S
C630 H625 0.930 . S
C630 C627 1.370 . S
C630 C631 1.385 . S
C631 C628 1.414 . S
C631 C630 1.385 . S
C631 C653 1.444 . S
O632 Tb588 2.546 . S
O632 C652 1.251 . S
O633 Tb588 2.610 . S
O633 Tb599 2.362 . S
O633 C644 1.283 . S
O634 Tb599 2.421 . S
O634 C651 1.262 . S
O635 Tb588 2.320 . S
O635 C651 1.260 . S
O636 Tb588 2.552 . S
O636 C644 1.243 . S
O637 Tb588 2.413 . S
O637 C652 1.256 . S
O638 Tb599 2.546 . S
O638 C663 1.251 . S
O639 Tb588 2.362 . S
O639 Tb599 2.610 . S
O639 C655 1.283 . S
O640 Tb588 2.421 . S
O640 C662 1.262 . S
O641 Tb599 2.320 . S
O641 C662 1.260 . S
O642 Tb599 2.552 . S
O642 C655 1.243 . S
O643 Tb599 2.413 . S
O643 C663 1.256 . S
C644 O633 1.283 . S
C644 O636 1.243 . S
C645 C647 1.382 . S
C645 C649 1.393 . S
C645 C652 1.500 . S
C646 C647 1.400 . S
C646 C648 1.384 . S
C647 C645 1.382 . S
C647 C646 1.400 . S
C647 H664 0.930 . S
C648 C646 1.384 . S
C648 C650 1.392 . S
C648 H665 0.931 . S
C649 C645 1.393 . S
C649 C650 1.401 . S
C649 H666 0.930 . S
C650 C648 1.392 . S
C650 C649 1.401 . S
C650 H667 0.930 . S
C651 O634 1.262 . S
C651 O635 1.260 . S
C652 Tb588 2.833 . S
C652 O632 1.251 . S
C652 O637 1.256 . S
C652 C645 1.500 . S
C653 H618 0.929 . S
C653 C631 1.444 . S
C653 C654 1.317 . S
C654 H616 0.930 . S
C654 C622 1.432 . S
C654 C653 1.317 . S
C655 O639 1.283 . S
C655 O642 1.243 . S
C656 C657 1.382 . S
C656 C660 1.393 . S
C656 C663 1.500 . S
C657 C656 1.382 . S
C657 C658 1.400 . S
C657 H668 0.930 . S
C658 C657 1.400 . S
C658 C659 1.384 . S
C659 C658 1.384 . S
C659 C661 1.392 . S
C659 H669 0.931 . S
C660 C656 1.393 . S
C660 C661 1.401 . S
C660 H670 0.930 . S
C661 C659 1.392 . S
C661 C660 1.401 . S
C661 H671 0.930 . S
C662 O640 1.262 . S
C662 O641 1.260 . S
C663 Tb599 2.833 . S
C663 O638 1.251 . S
C663 O643 1.256 . S
C663 C656 1.500 . S
H664 C647 0.930 . S
H665 C648 0.931 . S
H666 C649 0.930 . S
H667 C650 0.930 . S
H668 C657 0.930 . S
H669 C659 0.931 . S
H670 C660 0.930 . S
H671 C661 0.930 . S
Tb672 N703 2.660 . S
Tb672 N710 2.600 . S
Tb672 O716 2.546 . S
Tb672 O717 2.610 . S
Tb672 O719 2.320 . S
Tb672 O720 2.552 . S
Tb672 O721 2.413 . S
Tb672 O723 2.362 . S
Tb672 O724 2.421 . S
Tb672 C736 2.833 . S
C673 C676 1.432 . S
C673 C677 1.414 . S
C673 N680 1.359 . S
C674 C676 1.417 . S
C674 C678 1.432 . S
C674 C686 1.410 . S
C675 C677 1.444 . S
C675 C678 1.317 . S
C675 H698 0.929 . S
C676 C673 1.432 . S
C676 C674 1.417 . S
C676 N684 1.360 . S
C677 C673 1.414 . S
C677 C675 1.444 . S
C677 C682 1.385 . S
C678 C674 1.432 . S
C678 C675 1.317 . S
C678 H690 0.930 . S
C679 C681 1.392 . S
C679 C682 1.370 . S
C679 H691 0.931 . S
N680 C673 1.359 . S
N680 C681 1.327 . S
N680 Tb683 2.597 1_565 S
C681 C679 1.392 . S
C681 N680 1.327 . S
C681 H688 0.930 . S
C682 C677 1.385 . S
C682 C679 1.370 . S
C682 H701 0.930 . S
Tb683 N680 2.597 1_545 S
Tb683 N684 2.658 1_545 S
Tb683 O717 2.372 . S
Tb683 O718 2.427 . S
Tb683 O722 2.536 1_545 S
Tb683 O723 2.617 . S
Tb683 O725 2.321 . S
Tb683 O726 2.550 . S
Tb683 O727 2.403 1_545 S
Tb683 C747 2.822 1_545 S
N684 C676 1.360 . S
N684 Tb683 2.658 1_565 S
N684 C685 1.305 . S
C685 N684 1.305 . S
C685 C687 1.414 . S
C685 H692 0.930 . S
C686 C674 1.410 . S
C686 C687 1.353 . S
C686 H694 0.910 1_455 S
C687 C685 1.414 . S
C687 C686 1.353 . S
C687 H689 0.916 1_455 S
H688 C681 0.930 . S
H689 C687 0.916 1_655 S
H690 C678 0.930 . S
H691 C679 0.931 . S
H692 C685 0.930 . S
H693 C707 0.930 . S
H694 C686 0.910 1_655 S
H695 C713 0.930 . S
H696 C704 0.930 . S
H697 C711 0.931 1_655 S
H698 C675 0.929 . S
H699 C705 0.930 . S
H700 C738 0.930 . S
H701 C682 0.930 . S
H702 C737 0.929 . S
N703 Tb672 2.660 . S
N703 C704 1.305 . S
N703 C708 1.360 . S
C704 H696 0.930 . S
C704 N703 1.305 . S
C704 C707 1.407 . S
C705 H699 0.930 . S
C705 C706 1.410 . S
C705 C707 1.345 . S
C706 C705 1.410 . S
C706 C708 1.417 . S
C706 C738 1.432 . S
C707 H693 0.930 . S
C707 C704 1.407 . S
C707 C705 1.345 . S
C708 N703 1.360 . S
C708 C706 1.417 . S
C708 C712 1.432 . S
H709 C714 0.930 . S
N710 Tb672 2.600 . S
N710 C712 1.359 . S
N710 C713 1.327 . S
C711 H697 0.931 1_455 S
C711 C713 1.392 . S
C711 C714 1.370 . S
C712 C708 1.432 . S
C712 N710 1.359 . S
C712 C715 1.414 . S
C713 H695 0.930 . S
C713 N710 1.327 . S
C713 C711 1.392 . S
C714 H709 0.930 . S
C714 C711 1.370 . S
C714 C715 1.385 . S
C715 C712 1.414 . S
C715 C714 1.385 . S
C715 C737 1.444 . S
O716 Tb672 2.546 . S
O716 C736 1.251 . S
O717 Tb672 2.610 . S
O717 Tb683 2.372 . S
O717 C728 1.283 . S
O718 Tb683 2.427 . S
O718 C735 1.262 . S
O719 Tb672 2.320 . S
O719 C735 1.260 . S
O720 Tb672 2.552 . S
O720 C728 1.243 . S
O721 Tb672 2.413 . S
O721 C736 1.256 . S
O722 Tb683 2.536 1_565 S
O722 C747 1.251 . S
O723 Tb672 2.362 . S
O723 Tb683 2.617 . S
O723 C739 1.283 . S
O724 Tb672 2.421 . S
O724 C746 1.262 . S
O725 Tb683 2.321 . S
O725 C746 1.264 . S
O726 Tb683 2.550 . S
O726 C739 1.243 . S
O727 Tb683 2.403 1_565 S
O727 C747 1.256 . S
C728 O717 1.283 . S
C728 O720 1.243 . S
C729 C731 1.382 . S
C729 C733 1.393 . S
C729 C736 1.500 . S
C730 C731 1.400 . S
C730 C732 1.384 . S
C731 C729 1.382 . S
C731 C730 1.400 . S
C731 H748 0.930 . S
C732 C730 1.384 . S
C732 C734 1.392 . S
C732 H749 0.931 . S
C733 C729 1.393 . S
C733 C734 1.401 . S
C733 H750 0.930 . S
C734 C732 1.392 . S
C734 C733 1.401 . S
C734 H751 0.930 . S
C735 O718 1.262 . S
C735 O719 1.260 . S
C736 Tb672 2.833 . S
C736 O716 1.251 . S
C736 O721 1.256 . S
C736 C729 1.500 . S
C737 H702 0.929 . S
C737 C715 1.444 . S
C737 C738 1.317 . S
C738 H700 0.930 . S
C738 C706 1.432 . S
C738 C737 1.317 . S
C739 O723 1.283 . S
C739 O726 1.243 . S
C740 C741 1.382 . S
C740 C744 1.393 . S
C740 C747 1.500 . S
C741 C740 1.382 . S
C741 C742 1.400 . S
C741 H752 0.930 . S
C742 C741 1.400 . S
C742 C743 1.384 . S
C743 C742 1.384 . S
C743 C745 1.392 . S
C743 H753 0.931 . S
C744 C740 1.393 . S
C744 C745 1.401 . S
C744 H754 0.930 . S
C745 C743 1.392 . S
C745 C744 1.401 . S
C745 H755 0.930 . S
C746 O724 1.262 . S
C746 O725 1.264 . S
C747 Tb683 2.822 1_565 S
C747 O722 1.251 . S
C747 O727 1.256 . S
C747 C740 1.500 . S
H748 C731 0.930 . S
H749 C732 0.931 . S
H750 C733 0.930 . S
H751 C734 0.930 . S
H752 C741 0.930 . S
H753 C743 0.931 . S
H754 C744 0.930 . S
H755 C745 0.930 . S
Tb756 N787 2.660 . S
Tb756 N794 2.600 . S
Tb756 O800 2.546 . S
Tb756 O801 2.610 . S
Tb756 O803 2.320 . S
Tb756 O804 2.552 . S
Tb756 O805 2.413 . S
Tb756 O807 2.362 . S
Tb756 O808 2.421 . S
Tb756 C820 2.833 . S
C757 C760 1.432 . S
C757 C761 1.414 . S
C757 N764 1.359 . S
C758 C760 1.417 . S
C758 C762 1.432 . S
C758 C770 1.410 . S
C759 C761 1.444 . S
C759 C762 1.317 . S
C759 H782 0.929 . S
C760 C757 1.432 . S
C760 C758 1.417 . S
C760 N768 1.360 . S
C761 C757 1.414 . S
C761 C759 1.444 . S
C761 C766 1.385 . S
C762 C758 1.432 . S
C762 C759 1.317 . S
C762 H774 0.930 . S
C763 C765 1.392 . S
C763 C766 1.370 . S
C763 H775 0.931 . S
N764 C757 1.359 . S
N764 C765 1.327 . S
N764 Tb767 2.600 . S
C765 C763 1.392 . S
C765 N764 1.327 . S
C765 H772 0.930 . S
C766 C761 1.385 . S
C766 C763 1.370 . S
C766 H785 0.930 . S
Tb767 N764 2.600 . S
Tb767 N768 2.660 . S
Tb767 O801 2.362 . S
Tb767 O802 2.421 . S
Tb767 O806 2.546 . S
Tb767 O807 2.610 . S
Tb767 O809 2.320 . S
Tb767 O810 2.552 . S
Tb767 O811 2.413 . S
Tb767 C831 2.833 . S
N768 C760 1.360 . S
N768 Tb767 2.660 . S
N768 C769 1.305 . S
C769 N768 1.305 . S
C769 C771 1.407 . S
C769 H776 0.930 . S
C770 C758 1.410 . S
C770 C771 1.345 . S
C770 H778 0.930 . S
C771 C769 1.407 . S
C771 C770 1.345 . S
C771 H773 0.930 . S
H772 C765 0.930 . S
H773 C771 0.930 . S
H774 C762 0.930 . S
H775 C763 0.931 . S
H776 C769 0.930 . S
H777 C791 0.930 . S
H778 C770 0.930 . S
H779 C797 0.930 . S
H780 C788 0.930 . S
H781 C795 0.931 . S
H782 C759 0.929 . S
H783 C789 0.930 . S
H784 C822 0.930 . S
H785 C766 0.930 . S
H786 C821 0.929 . S
N787 Tb756 2.660 . S
N787 C788 1.305 . S
N787 C792 1.360 . S
C788 H780 0.930 . S
C788 N787 1.305 . S
C788 C791 1.407 . S
C789 H783 0.930 . S
C789 C790 1.410 . S
C789 C791 1.345 . S
C790 C789 1.410 . S
C790 C792 1.417 . S
C790 C822 1.432 . S
C791 H777 0.930 . S
C791 C788 1.407 . S
C791 C789 1.345 . S
C792 N787 1.360 . S
C792 C790 1.417 . S
C792 C796 1.432 . S
H793 C798 0.930 . S
N794 Tb756 2.600 . S
N794 C796 1.359 . S
N794 C797 1.327 . S
C795 H781 0.931 . S
C795 C797 1.392 . S
C795 C798 1.370 . S
C796 C792 1.432 . S
C796 N794 1.359 . S
C796 C799 1.414 . S
C797 H779 0.930 . S
C797 N794 1.327 . S
C797 C795 1.392 . S
C798 H793 0.930 . S
C798 C795 1.370 . S
C798 C799 1.385 . S
C799 C796 1.414 . S
C799 C798 1.385 . S
C799 C821 1.444 . S
O800 Tb756 2.546 . S
O800 C820 1.251 . S
O801 Tb756 2.610 . S
O801 Tb767 2.362 . S
O801 C812 1.283 . S
O802 Tb767 2.421 . S
O802 C819 1.262 . S
O803 Tb756 2.320 . S
O803 C819 1.260 . S
O804 Tb756 2.552 . S
O804 C812 1.243 . S
O805 Tb756 2.413 . S
O805 C820 1.256 . S
O806 Tb767 2.546 . S
O806 C831 1.251 . S
O807 Tb756 2.362 . S
O807 Tb767 2.610 . S
O807 C823 1.283 . S
O808 Tb756 2.421 . S
O808 C830 1.262 . S
O809 Tb767 2.320 . S
O809 C830 1.260 . S
O810 Tb767 2.552 . S
O810 C823 1.243 . S
O811 Tb767 2.413 . S
O811 C831 1.256 . S
C812 O801 1.283 . S
C812 O804 1.243 . S
C813 C815 1.382 . S
C813 C817 1.393 . S
C813 C820 1.500 . S
C814 C815 1.400 . S
C814 C816 1.384 . S
C815 C813 1.382 . S
C815 C814 1.400 . S
C815 H832 0.930 . S
C816 C814 1.384 . S
C816 C818 1.392 . S
C816 H833 0.931 . S
C817 C813 1.393 . S
C817 C818 1.401 . S
C817 H834 0.930 . S
C818 C816 1.392 . S
C818 C817 1.401 . S
C818 H835 0.930 . S
C819 O802 1.262 . S
C819 O803 1.260 . S
C820 Tb756 2.833 . S
C820 O800 1.251 . S
C820 O805 1.256 . S
C820 C813 1.500 . S
C821 H786 0.929 . S
C821 C799 1.444 . S
C821 C822 1.317 . S
C822 H784 0.930 . S
C822 C790 1.432 . S
C822 C821 1.317 . S
C823 O807 1.283 . S
C823 O810 1.243 . S
C824 C825 1.382 . S
C824 C828 1.393 . S
C824 C831 1.500 . S
C825 C824 1.382 . S
C825 C826 1.400 . S
C825 H836 0.930 . S
C826 C825 1.400 . S
C826 C827 1.384 . S
C827 C826 1.384 . S
C827 C829 1.392 . S
C827 H837 0.931 . S
C828 C824 1.393 . S
C828 C829 1.401 . S
C828 H838 0.930 . S
C829 C827 1.392 . S
C829 C828 1.401 . S
C829 H839 0.930 . S
C830 O808 1.262 . S
C830 O809 1.260 . S
C831 Tb767 2.833 . S
C831 O806 1.251 . S
C831 O811 1.256 . S
C831 C824 1.500 . S
H832 C815 0.930 . S
H833 C816 0.931 . S
H834 C817 0.930 . S
H835 C818 0.930 . S
H836 C825 0.930 . S
H837 C827 0.931 . S
H838 C828 0.930 . S
H839 C829 0.930 . S
Tb840 N871 2.660 . S
Tb840 N878 2.600 . S
Tb840 O884 2.546 1_545 S
Tb840 O885 2.610 . S
Tb840 O887 2.320 . S
Tb840 O888 2.552 . S
Tb840 O889 2.413 . S
Tb840 O891 2.362 . S
Tb840 O892 2.421 1_545 S
Tb840 C904 2.833 . S
C841 C844 1.432 . S
C841 C845 1.414 . S
C841 N848 1.359 . S
C842 C844 1.417 . S
C842 C846 1.432 . S
C842 C854 1.410 1_545 S
C843 C845 1.444 . S
C843 C846 1.317 . S
C843 H866 0.929 . S
C844 C841 1.432 . S
C844 C842 1.417 . S
C844 N852 1.360 . S
C845 C841 1.414 . S
C845 C843 1.444 . S
C845 C850 1.385 . S
C846 C842 1.432 . S
C846 C843 1.317 . S
C846 H858 0.930 . S
C847 C849 1.392 . S
C847 C850 1.370 . S
C847 H859 0.931 . S
N848 C841 1.359 . S
N848 C849 1.327 . S
N848 Tb851 2.600 . S
C849 C847 1.392 . S
C849 N848 1.327 . S
C849 H856 0.930 . S
C850 C845 1.385 . S
C850 C847 1.370 . S
C850 H869 0.930 . S
Tb851 N848 2.600 . S
Tb851 N852 2.660 . S
Tb851 O885 2.362 1_556 S
Tb851 O886 2.421 1_556 S
Tb851 O890 2.546 . S
Tb851 O891 2.610 1_556 S
Tb851 O893 2.320 . S
Tb851 O894 2.552 . S
Tb851 O895 2.413 . S
Tb851 C915 2.833 . S
N852 C844 1.360 . S
N852 Tb851 2.660 . S
N852 C853 1.305 1_545 S
C853 N852 1.305 1_565 S
C853 C855 1.407 . S
C853 H860 0.930 . S
C854 C842 1.410 1_565 S
C854 C855 1.345 . S
C854 H862 0.930 . S
C855 C853 1.407 . S
C855 C854 1.345 . S
C855 H857 0.930 . S
H856 C849 0.930 . S
H857 C855 0.930 . S
H858 C846 0.930 . S
H859 C847 0.931 . S
H860 C853 0.930 . S
H861 C875 0.930 . S
H862 C854 0.930 . S
H863 C881 0.930 . S
H864 C872 0.930 . S
H865 C879 0.931 . S
H866 C843 0.929 . S
H867 C873 0.930 . S
H868 C906 0.930 . S
H869 C850 0.930 . S
H870 C905 0.929 . S
N871 Tb840 2.660 . S
N871 C872 1.305 . S
N871 C876 1.360 . S
C872 H864 0.930 . S
C872 N871 1.305 . S
C872 C875 1.407 . S
C873 H867 0.930 . S
C873 C874 1.410 . S
C873 C875 1.345 . S
C874 C873 1.410 . S
C874 C876 1.417 . S
C874 C906 1.432 . S
C875 H861 0.930 . S
C875 C872 1.407 . S
C875 C873 1.345 . S
C876 N871 1.360 . S
C876 C874 1.417 . S
C876 C880 1.432 . S
H877 C882 0.930 . S
N878 Tb840 2.600 . S
N878 C880 1.359 . S
N878 C881 1.327 1_545 S
C879 H865 0.931 . S
C879 C881 1.392 . S
C879 C882 1.370 . S
C880 C876 1.432 . S
C880 N878 1.359 . S
C880 C883 1.414 . S
C881 H863 0.930 . S
C881 N878 1.327 1_565 S
C881 C879 1.392 . S
C882 H877 0.930 . S
C882 C879 1.370 . S
C882 C883 1.385 1_565 S
C883 C880 1.414 . S
C883 C882 1.385 1_545 S
C883 C905 1.444 . S
O884 Tb840 2.546 1_565 S
O884 C904 1.251 1_565 S
O885 Tb840 2.610 . S
O885 Tb851 2.362 1_554 S
O885 C896 1.283 . S
O886 Tb851 2.421 1_554 S
O886 C903 1.262 . S
O887 Tb840 2.320 . S
O887 C903 1.260 . S
O888 Tb840 2.552 . S
O888 C896 1.243 . S
O889 Tb840 2.413 . S
O889 C904 1.256 . S
O890 Tb851 2.546 . S
O890 C915 1.251 . S
O891 Tb840 2.362 . S
O891 Tb851 2.610 1_554 S
O891 C907 1.283 . S
O892 Tb840 2.421 1_565 S
O892 C914 1.262 1_554 S
O893 Tb851 2.320 . S
O893 C914 1.260 1_545 S
O894 Tb851 2.552 . S
O894 C907 1.243 1_556 S
O895 Tb851 2.413 . S
O895 C915 1.256 . S
C896 O885 1.283 . S
C896 O888 1.243 . S
C897 C899 1.382 . S
C897 C901 1.393 1_545 S
C897 C904 1.500 . S
C898 C899 1.400 . S
C898 C900 1.384 1_545 S
C899 C897 1.382 . S
C899 C898 1.400 . S
C899 H916 0.930 . S
C900 C898 1.384 1_565 S
C900 C902 1.392 . S
C900 H917 0.931 . S
C901 C897 1.393 1_565 S
C901 C902 1.401 . S
C901 H918 0.930 . S
C902 C900 1.392 . S
C902 C901 1.401 . S
C902 H919 0.930 . S
C903 O886 1.262 . S
C903 O887 1.260 . S
C904 Tb840 2.833 . S
C904 O884 1.251 1_545 S
C904 O889 1.256 . S
C904 C897 1.500 . S
C905 H870 0.929 . S
C905 C883 1.444 . S
C905 C906 1.317 . S
C906 H868 0.930 . S
C906 C874 1.432 . S
C906 C905 1.317 . S
C907 O891 1.283 . S
C907 O894 1.243 1_554 S
C908 C909 1.382 . S
C908 C912 1.393 . S
C908 C915 1.500 . S
C909 C908 1.382 . S
C909 C910 1.400 . S
C909 H920 0.930 . S
C910 C909 1.400 . S
C910 C911 1.384 . S
C911 C910 1.384 . S
C911 C913 1.392 . S
C911 H921 0.931 . S
C912 C908 1.393 . S
C912 C913 1.401 . S
C912 H922 0.930 . S
C913 C911 1.392 . S
C913 C912 1.401 . S
C913 H923 0.930 . S
C914 O892 1.262 1_556 S
C914 O893 1.260 1_565 S
C915 Tb851 2.833 . S
C915 O890 1.251 . S
C915 O895 1.256 . S
C915 C908 1.500 . S
H916 C899 0.930 . S
H917 C900 0.931 . S
H918 C901 0.930 . S
H919 C902 0.930 . S
H920 C909 0.930 . S
H921 C911 0.931 . S
H922 C912 0.930 . S
H923 C913 0.930 . S
Tb924 N955 2.660 . S
Tb924 N962 2.600 . S
Tb924 O968 2.546 . S
Tb924 O969 2.610 . S
Tb924 O971 2.320 . S
Tb924 O972 2.552 . S
Tb924 O973 2.413 . S
Tb924 O975 2.362 . S
Tb924 O976 2.421 . S
Tb924 C988 2.833 . S
C925 C928 1.432 . S
C925 C929 1.414 . S
C925 N932 1.359 . S
C926 C928 1.417 . S
C926 C930 1.432 . S
C926 C938 1.410 . S
C927 C929 1.444 . S
C927 C930 1.317 . S
C927 H950 0.929 . S
C928 C925 1.432 . S
C928 C926 1.417 . S
C928 N936 1.360 . S
C929 C925 1.414 . S
C929 C927 1.444 . S
C929 C934 1.385 . S
C930 C926 1.432 . S
C930 C927 1.317 . S
C930 H942 0.930 . S
C931 C933 1.392 . S
C931 C934 1.370 . S
C931 H943 0.931 . S
N932 C925 1.359 . S
N932 C933 1.327 . S
N932 Tb935 2.600 . S
C933 C931 1.392 . S
C933 N932 1.327 . S
C933 H940 0.930 . S
C934 C929 1.385 . S
C934 C931 1.370 . S
C934 H953 0.930 . S
Tb935 N932 2.600 . S
Tb935 N936 2.660 . S
Tb935 O969 2.362 . S
Tb935 O970 2.421 . S
Tb935 O974 2.546 . S
Tb935 O975 2.610 . S
Tb935 O977 2.320 . S
Tb935 O978 2.552 . S
Tb935 O979 2.413 . S
Tb935 C999 2.833 . S
N936 C928 1.360 . S
N936 Tb935 2.660 . S
N936 C937 1.305 . S
C937 N936 1.305 . S
C937 C939 1.407 . S
C937 H944 0.930 . S
C938 C926 1.410 . S
C938 C939 1.345 . S
C938 H946 0.930 . S
C939 C937 1.407 . S
C939 C938 1.345 . S
C939 H941 0.930 . S
H940 C933 0.930 . S
H941 C939 0.930 . S
H942 C930 0.930 . S
H943 C931 0.931 . S
H944 C937 0.930 . S
H945 C959 0.930 . S
H946 C938 0.930 . S
H947 C965 0.930 . S
H948 C956 0.930 . S
H949 C963 0.931 . S
H950 C927 0.929 . S
H951 C957 0.930 . S
H952 C990 0.930 . S
H953 C934 0.930 . S
H954 C989 0.929 . S
N955 Tb924 2.660 . S
N955 C956 1.305 . S
N955 C960 1.360 . S
C956 H948 0.930 . S
C956 N955 1.305 . S
C956 C959 1.407 . S
C957 H951 0.930 . S
C957 C958 1.410 . S
C957 C959 1.345 . S
C958 C957 1.410 . S
C958 C960 1.417 . S
C958 C990 1.432 . S
C959 H945 0.930 . S
C959 C956 1.407 . S
C959 C957 1.345 . S
C960 N955 1.360 . S
C960 C958 1.417 . S
C960 C964 1.432 . S
H961 C966 0.930 . S
N962 Tb924 2.600 . S
N962 C964 1.359 . S
N962 C965 1.327 . S
C963 H949 0.931 . S
C963 C965 1.392 . S
C963 C966 1.370 . S
C964 C960 1.432 . S
C964 N962 1.359 . S
C964 C967 1.414 . S
C965 H947 0.930 . S
C965 N962 1.327 . S
C965 C963 1.392 . S
C966 H961 0.930 . S
C966 C963 1.370 . S
C966 C967 1.385 . S
C967 C964 1.414 . S
C967 C966 1.385 . S
C967 C989 1.444 . S
O968 Tb924 2.546 . S
O968 C988 1.251 . S
O969 Tb924 2.610 . S
O969 Tb935 2.362 . S
O969 C980 1.283 . S
O970 Tb935 2.421 . S
O970 C987 1.262 . S
O971 Tb924 2.320 . S
O971 C987 1.260 . S
O972 Tb924 2.552 . S
O972 C980 1.243 . S
O973 Tb924 2.413 . S
O973 C988 1.256 . S
O974 Tb935 2.546 . S
O974 C999 1.251 . S
O975 Tb924 2.362 . S
O975 Tb935 2.610 . S
O975 C991 1.283 . S
O976 Tb924 2.421 . S
O976 C998 1.262 . S
O977 Tb935 2.320 . S
O977 C998 1.260 . S
O978 Tb935 2.552 . S
O978 C991 1.243 . S
O979 Tb935 2.413 . S
O979 C999 1.256 . S
C980 O969 1.283 . S
C980 O972 1.243 . S
C981 C983 1.382 . S
C981 C985 1.393 . S
C981 C988 1.500 . S
C982 C983 1.400 . S
C982 C984 1.384 . S
C983 C981 1.382 . S
C983 C982 1.400 . S
C983 H1000 0.930 . S
C984 C982 1.384 . S
C984 C986 1.392 . S
C984 H1001 0.931 . S
C985 C981 1.393 . S
C985 C986 1.401 . S
C985 H1002 0.930 . S
C986 C984 1.392 . S
C986 C985 1.401 . S
C986 H1003 0.930 . S
C987 O970 1.262 . S
C987 O971 1.260 . S
C988 Tb924 2.833 . S
C988 O968 1.251 . S
C988 O973 1.256 . S
C988 C981 1.500 . S
C989 H954 0.929 . S
C989 C967 1.444 . S
C989 C990 1.317 . S
C990 H952 0.930 . S
C990 C958 1.432 . S
C990 C989 1.317 . S
C991 O975 1.283 . S
C991 O978 1.243 . S
C992 C993 1.382 . S
C992 C996 1.393 . S
C992 C999 1.500 . S
C993 C992 1.382 . S
C993 C994 1.400 . S
C993 H1004 0.930 . S
C994 C993 1.400 . S
C994 C995 1.384 . S
C995 C994 1.384 . S
C995 C997 1.392 . S
C995 H1005 0.931 . S
C996 C992 1.393 . S
C996 C997 1.401 . S
C996 H1006 0.930 . S
C997 C995 1.392 . S
C997 C996 1.401 . S
C997 H1007 0.930 . S
C998 O976 1.262 . S
C998 O977 1.260 . S
C999 Tb935 2.833 . S
C999 O974 1.251 . S
C999 O979 1.256 . S
C999 C992 1.500 . S
H1000 C983 0.930 . S
H1001 C984 0.931 . S
H1002 C985 0.930 . S
H1003 C986 0.930 . S
H1004 C993 0.930 . S
H1005 C995 0.931 . S
H1006 C996 0.930 . S
H1007 C997 0.930 . S
Tb1008 N1039 2.660 . S
Tb1008 N1046 2.600 . S
Tb1008 O1052 2.546 . S
Tb1008 O1053 2.610 1_554 S
Tb1008 O1055 2.320 . S
Tb1008 O1056 2.552 1_554 S
Tb1008 O1057 2.413 . S
Tb1008 O1059 2.362 . S
Tb1008 O1060 2.421 . S
Tb1008 C1072 2.833 . S
C1009 C1012 1.432 . S
C1009 C1013 1.414 . S
C1009 N1016 1.359 . S
C1010 C1012 1.417 . S
C1010 C1014 1.432 . S
C1010 C1022 1.410 . S
C1011 C1013 1.444 . S
C1011 C1014 1.317 . S
C1011 H1034 0.929 . S
C1012 C1009 1.432 . S
C1012 C1010 1.417 . S
C1012 N1020 1.360 . S
C1013 C1009 1.414 . S
C1013 C1011 1.444 . S
C1013 C1018 1.385 . S
C1014 C1010 1.432 . S
C1014 C1011 1.317 . S
C1014 H1026 0.930 . S
C1015 C1017 1.392 . S
C1015 C1018 1.370 . S
C1015 H1027 0.931 . S
N1016 C1009 1.359 . S
N1016 C1017 1.327 . S
N1016 Tb1019 2.600 1_556 S
C1017 C1015 1.392 . S
C1017 N1016 1.327 . S
C1017 H1024 0.930 . S
C1018 C1013 1.385 . S
C1018 C1015 1.370 . S
C1018 H1037 0.930 . S
Tb1019 N1016 2.600 1_554 S
Tb1019 N1020 2.660 1_554 S
Tb1019 O1053 2.362 1_554 S
Tb1019 O1054 2.421 . S
Tb1019 O1058 2.546 . S
Tb1019 O1059 2.610 . S
Tb1019 O1061 2.320 . S
Tb1019 O1062 2.552 . S
Tb1019 O1063 2.413 . S
Tb1019 C1083 2.833 . S
N1020 C1012 1.360 . S
N1020 Tb1019 2.660 1_556 S
N1020 C1021 1.305 . S
C1021 N1020 1.305 . S
C1021 C1023 1.407 . S
C1021 H1028 0.930 . S
C1022 C1010 1.410 . S
C1022 C1023 1.345 . S
C1022 H1030 0.930 . S
C1023 C1021 1.407 . S
C1023 C1022 1.345 . S
C1023 H1025 0.930 . S
H1024 C1017 0.930 . S
H1025 C1023 0.930 . S
H1026 C1014 0.930 . S
H1027 C1015 0.931 . S
H1028 C1021 0.930 . S
H1029 C1043 0.930 . S
H1030 C1022 0.930 . S
H1031 C1049 0.930 . S
H1032 C1040 0.930 . S
H1033 C1047 0.931 . S
H1034 C1011 0.929 . S
H1035 C1041 0.930 . S
H1036 C1074 0.930 . S
H1037 C1018 0.930 . S
H1038 C1073 0.929 . S
N1039 Tb1008 2.660 . S
N1039 C1040 1.305 . S
N1039 C1044 1.360 . S
C1040 H1032 0.930 . S
C1040 N1039 1.305 . S
C1040 C1043 1.407 . S
C1041 H1035 0.930 . S
C1041 C1042 1.410 . S
C1041 C1043 1.345 . S
C1042 C1041 1.410 . S
C1042 C1044 1.417 . S
C1042 C1074 1.432 . S
C1043 H1029 0.930 . S
C1043 C1040 1.407 . S
C1043 C1041 1.345 . S
C1044 N1039 1.360 . S
C1044 C1042 1.417 . S
C1044 C1048 1.432 . S
H1045 C1050 0.930 . S
N1046 Tb1008 2.600 . S
N1046 C1048 1.359 . S
N1046 C1049 1.327 . S
C1047 H1033 0.931 . S
C1047 C1049 1.392 . S
C1047 C1050 1.370 . S
C1048 C1044 1.432 . S
C1048 N1046 1.359 . S
C1048 C1051 1.414 . S
C1049 H1031 0.930 . S
C1049 N1046 1.327 . S
C1049 C1047 1.392 . S
C1050 H1045 0.930 . S
C1050 C1047 1.370 . S
C1050 C1051 1.385 . S
C1051 C1048 1.414 . S
C1051 C1050 1.385 . S
C1051 C1073 1.444 . S
O1052 Tb1008 2.546 . S
O1052 C1072 1.251 . S
O1053 Tb1008 2.610 1_556 S
O1053 Tb1019 2.362 1_556 S
O1053 C1064 1.283 . S
O1054 Tb1019 2.421 . S
O1054 C1071 1.262 . S
O1055 Tb1008 2.320 . S
O1055 C1071 1.260 . S
O1056 Tb1008 2.552 1_556 S
O1056 C1064 1.243 . S
O1057 Tb1008 2.413 . S
O1057 C1072 1.256 . S
O1058 Tb1019 2.546 . S
O1058 C1083 1.251 . S
O1059 Tb1008 2.362 . S
O1059 Tb1019 2.610 . S
O1059 C1075 1.283 . S
O1060 Tb1008 2.421 . S
O1060 C1082 1.262 . S
O1061 Tb1019 2.320 . S
O1061 C1082 1.260 . S
O1062 Tb1019 2.552 . S
O1062 C1075 1.243 . S
O1063 Tb1019 2.413 . S
O1063 C1083 1.256 . S
C1064 O1053 1.283 . S
C1064 O1056 1.243 . S
C1065 C1067 1.382 . S
C1065 C1069 1.393 . S
C1065 C1072 1.500 . S
C1066 C1067 1.400 1_556 S
C1066 C1068 1.384 1_556 S
C1067 C1065 1.382 . S
C1067 C1066 1.400 1_554 S
C1067 H1084 0.930 1_554 S
C1068 C1066 1.384 1_554 S
C1068 C1070 1.392 . S
C1068 H1085 0.932 1_554 S
C1069 C1065 1.393 . S
C1069 C1070 1.401 . S
C1069 H1086 0.930 . S
C1070 C1068 1.392 . S
C1070 C1069 1.401 . S
C1070 H1087 0.930 . S
C1071 O1054 1.262 . S
C1071 O1055 1.260 . S
C1072 Tb1008 2.833 . S
C1072 O1052 1.251 . S
C1072 O1057 1.256 . S
C1072 C1065 1.500 . S
C1073 H1038 0.929 . S
C1073 C1051 1.444 . S
C1073 C1074 1.317 . S
C1074 H1036 0.930 . S
C1074 C1042 1.432 . S
C1074 C1073 1.317 . S
C1075 O1059 1.283 . S
C1075 O1062 1.243 . S
C1076 C1077 1.382 . S
C1076 C1080 1.393 . S
C1076 C1083 1.500 . S
C1077 C1076 1.382 . S
C1077 C1078 1.400 . S
C1077 H1088 0.930 . S
C1078 C1077 1.400 . S
C1078 C1079 1.384 . S
C1079 C1078 1.384 . S
C1079 C1081 1.392 . S
C1079 H1089 0.931 . S
C1080 C1076 1.393 . S
C1080 C1081 1.401 . S
C1080 H1090 0.930 . S
C1081 C1079 1.392 . S
C1081 C1080 1.401 . S
C1081 H1091 0.930 . S
C1082 O1060 1.262 . S
C1082 O1061 1.260 . S
C1083 Tb1019 2.833 . S
C1083 O1058 1.251 . S
C1083 O1063 1.256 . S
C1083 C1076 1.500 . S
H1084 C1067 0.930 1_556 S
H1085 C1068 0.932 1_556 S
H1086 C1069 0.930 . S
H1087 C1070 0.930 . S
H1088 C1077 0.930 . S
H1089 C1079 0.931 . S
H1090 C1080 0.930 . S
H1091 C1081 0.930 . S
Tb1092 N1123 2.660 . S
Tb1092 N1130 2.600 . S
Tb1092 O1136 2.546 . S
Tb1092 O1137 2.610 . S
Tb1092 O1139 2.320 . S
Tb1092 O1140 2.552 . S
Tb1092 O1141 2.413 . S
Tb1092 O1143 2.362 . S
Tb1092 O1144 2.421 . S
Tb1092 C1156 2.833 . S
C1093 C1096 1.432 . S
C1093 C1097 1.414 . S
C1093 N1100 1.359 . S
C1094 C1096 1.417 . S
C1094 C1098 1.432 . S
C1094 C1106 1.410 . S
C1095 C1097 1.444 . S
C1095 C1098 1.317 . S
C1095 H1118 0.929 . S
C1096 C1093 1.432 . S
C1096 C1094 1.417 . S
C1096 N1104 1.360 . S
C1097 C1093 1.414 . S
C1097 C1095 1.444 . S
C1097 C1102 1.385 . S
C1098 C1094 1.432 . S
C1098 C1095 1.317 . S
C1098 H1110 0.930 . S
C1099 C1101 1.392 . S
C1099 C1102 1.370 . S
C1099 H1111 0.931 . S
N1100 C1093 1.359 . S
N1100 C1101 1.327 . S
N1100 Tb1103 2.600 . S
C1101 C1099 1.392 . S
C1101 N1100 1.327 . S
C1101 H1108 0.930 . S
C1102 C1097 1.385 . S
C1102 C1099 1.370 . S
C1102 H1121 0.930 . S
Tb1103 N1100 2.600 . S
Tb1103 N1104 2.660 . S
Tb1103 O1137 2.362 . S
Tb1103 O1138 2.421 . S
Tb1103 O1142 2.546 . S
Tb1103 O1143 2.610 . S
Tb1103 O1145 2.320 . S
Tb1103 O1146 2.552 . S
Tb1103 O1147 2.413 . S
Tb1103 C1167 2.833 . S
N1104 C1096 1.360 . S
N1104 Tb1103 2.660 . S
N1104 C1105 1.305 . S
C1105 N1104 1.305 . S
C1105 C1107 1.407 . S
C1105 H1112 0.930 . S
C1106 C1094 1.410 . S
C1106 C1107 1.345 . S
C1106 H1114 0.930 . S
C1107 C1105 1.407 . S
C1107 C1106 1.345 . S
C1107 H1109 0.930 . S
H1108 C1101 0.930 . S
H1109 C1107 0.930 . S
H1110 C1098 0.930 . S
H1111 C1099 0.931 . S
H1112 C1105 0.930 . S
H1113 C1127 0.930 . S
H1114 C1106 0.930 . S
H1115 C1133 0.930 . S
H1116 C1124 0.930 . S
H1117 C1131 0.931 . S
H1118 C1095 0.929 . S
H1119 C1125 0.930 . S
H1120 C1158 0.930 . S
H1121 C1102 0.930 . S
H1122 C1157 0.929 . S
N1123 Tb1092 2.660 . S
N1123 C1124 1.305 . S
N1123 C1128 1.360 . S
C1124 H1116 0.930 . S
C1124 N1123 1.305 . S
C1124 C1127 1.407 . S
C1125 H1119 0.930 . S
C1125 C1126 1.410 . S
C1125 C1127 1.345 . S
C1126 C1125 1.410 . S
C1126 C1128 1.417 . S
C1126 C1158 1.432 . S
C1127 H1113 0.930 . S
C1127 C1124 1.407 . S
C1127 C1125 1.345 . S
C1128 N1123 1.360 . S
C1128 C1126 1.417 . S
C1128 C1132 1.432 . S
H1129 C1134 0.930 . S
N1130 Tb1092 2.600 . S
N1130 C1132 1.359 . S
N1130 C1133 1.327 . S
C1131 H1117 0.931 . S
C1131 C1133 1.392 . S
C1131 C1134 1.370 . S
C1132 C1128 1.432 . S
C1132 N1130 1.359 . S
C1132 C1135 1.414 . S
C1133 H1115 0.930 . S
C1133 N1130 1.327 . S
C1133 C1131 1.392 . S
C1134 H1129 0.930 . S
C1134 C1131 1.370 . S
C1134 C1135 1.385 . S
C1135 C1132 1.414 . S
C1135 C1134 1.385 . S
C1135 C1157 1.444 . S
O1136 Tb1092 2.546 . S
O1136 C1156 1.251 . S
O1137 Tb1092 2.610 . S
O1137 Tb1103 2.362 . S
O1137 C1148 1.283 . S
O1138 Tb1103 2.421 . S
O1138 C1155 1.262 . S
O1139 Tb1092 2.320 . S
O1139 C1155 1.260 . S
O1140 Tb1092 2.552 . S
O1140 C1148 1.243 . S
O1141 Tb1092 2.413 . S
O1141 C1156 1.256 . S
O1142 Tb1103 2.546 . S
O1142 C1167 1.251 . S
O1143 Tb1092 2.362 . S
O1143 Tb1103 2.610 . S
O1143 C1159 1.283 . S
O1144 Tb1092 2.421 . S
O1144 C1166 1.262 . S
O1145 Tb1103 2.320 . S
O1145 C1166 1.260 . S
O1146 Tb1103 2.552 . S
O1146 C1159 1.243 . S
O1147 Tb1103 2.413 . S
O1147 C1167 1.256 . S
C1148 O1137 1.283 . S
C1148 O1140 1.243 . S
C1149 C1151 1.382 . S
C1149 C1153 1.393 . S
C1149 C1156 1.500 . S
C1150 C1151 1.400 . S
C1150 C1152 1.384 . S
C1151 C1149 1.382 . S
C1151 C1150 1.400 . S
C1151 H1168 0.930 . S
C1152 C1150 1.384 . S
C1152 C1154 1.392 . S
C1152 H1169 0.931 . S
C1153 C1149 1.393 . S
C1153 C1154 1.401 . S
C1153 H1170 0.930 . S
C1154 C1152 1.392 . S
C1154 C1153 1.401 . S
C1154 H1171 0.930 . S
C1155 O1138 1.262 . S
C1155 O1139 1.260 . S
C1156 Tb1092 2.833 . S
C1156 O1136 1.251 . S
C1156 O1141 1.256 . S
C1156 C1149 1.500 . S
C1157 H1122 0.929 . S
C1157 C1135 1.444 . S
C1157 C1158 1.317 . S
C1158 H1120 0.930 . S
C1158 C1126 1.432 . S
C1158 C1157 1.317 . S
C1159 O1143 1.283 . S
C1159 O1146 1.243 . S
C1160 C1161 1.382 . S
C1160 C1164 1.393 . S
C1160 C1167 1.500 . S
C1161 C1160 1.382 . S
C1161 C1162 1.400 . S
C1161 H1172 0.930 . S
C1162 C1161 1.400 . S
C1162 C1163 1.384 . S
C1163 C1162 1.384 . S
C1163 C1165 1.392 . S
C1163 H1173 0.931 . S
C1164 C1160 1.393 . S
C1164 C1165 1.401 . S
C1164 H1174 0.930 . S
C1165 C1163 1.392 . S
C1165 C1164 1.401 . S
C1165 H1175 0.930 . S
C1166 O1144 1.262 . S
C1166 O1145 1.260 . S
C1167 Tb1103 2.833 . S
C1167 O1142 1.251 . S
C1167 O1147 1.256 . S
C1167 C1160 1.500 . S
H1168 C1151 0.930 . S
H1169 C1152 0.931 . S
H1170 C1153 0.930 . S
H1171 C1154 0.930 . S
H1172 C1161 0.930 . S
H1173 C1163 0.931 . S
H1174 C1164 0.930 . S
H1175 C1165 0.930 . S
Tb1176 N1207 2.660 . S
Tb1176 N1214 2.600 . S
Tb1176 O1220 2.546 . S
Tb1176 O1221 2.610 . S
Tb1176 O1223 2.320 . S
Tb1176 O1224 2.552 . S
Tb1176 O1225 2.413 . S
Tb1176 O1227 2.362 . S
Tb1176 O1228 2.421 . S
Tb1176 C1240 2.833 . S
C1177 C1180 1.428 . S
C1177 C1181 1.414 1_455 S
C1177 N1184 1.359 . S
C1178 C1180 1.400 1_655 S
C1178 C1182 1.432 . S
C1178 C1190 1.410 . S
C1179 C1181 1.444 . S
C1179 C1182 1.317 . S
C1179 H1202 0.929 . S
C1180 C1177 1.428 . S
C1180 C1178 1.400 1_455 S
C1180 N1188 1.380 . S
C1181 C1177 1.414 1_655 S
C1181 C1179 1.444 . S
C1181 C1186 1.385 . S
C1182 C1178 1.432 . S
C1182 C1179 1.317 . S
C1182 H1194 0.930 . S
C1183 C1185 1.392 . S
C1183 C1186 1.370 1_455 S
C1183 H1195 0.931 . S
N1184 C1177 1.359 . S
N1184 C1185 1.327 . S
N1184 Tb1187 2.600 . S
C1185 C1183 1.392 . S
C1185 N1184 1.327 . S
C1185 H1192 0.930 . S
C1186 C1181 1.385 . S
C1186 C1183 1.370 1_655 S
C1186 H1205 0.930 . S
Tb1187 N1184 2.600 . S
Tb1187 N1188 2.660 . S
Tb1187 O1221 2.362 . S
Tb1187 O1222 2.421 . S
Tb1187 O1226 2.546 . S
Tb1187 O1227 2.610 . S
Tb1187 O1229 2.320 . S
Tb1187 O1230 2.552 . S
Tb1187 O1231 2.413 . S
Tb1187 C1251 2.833 . S
N1188 C1180 1.380 . S
N1188 Tb1187 2.660 . S
N1188 C1189 1.305 . S
C1189 N1188 1.305 . S
C1189 C1191 1.407 1_455 S
C1189 H1196 0.930 . S
C1190 C1178 1.410 . S
C1190 C1191 1.345 . S
C1190 H1198 0.930 . S
C1191 C1189 1.407 1_655 S
C1191 C1190 1.345 . S
C1191 H1193 0.930 . S
H1192 C1185 0.930 . S
H1193 C1191 0.930 . S
H1194 C1182 0.930 . S
H1195 C1183 0.931 . S
H1196 C1189 0.930 . S
H1197 C1211 0.930 . S
H1198 C1190 0.930 . S
H1199 C1217 0.930 . S
H1200 C1208 0.930 . S
H1201 C1215 0.931 . S
H1202 C1179 0.929 . S
H1203 C1209 0.930 . S
H1204 C1242 0.930 . S
H1205 C1186 0.930 . S
H1206 C1241 0.929 . S
N1207 Tb1176 2.660 . S
N1207 C1208 1.305 . S
N1207 C1212 1.360 . S
C1208 H1200 0.930 . S
C1208 N1207 1.305 . S
C1208 C1211 1.407 . S
C1209 H1203 0.930 . S
C1209 C1210 1.410 . S
C1209 C1211 1.345 . S
C1210 C1209 1.410 . S
C1210 C1212 1.417 . S
C1210 C1242 1.432 . S
C1211 H1197 0.930 . S
C1211 C1208 1.407 . S
C1211 C1209 1.345 . S
C1212 N1207 1.360 . S
C1212 C1210 1.417 . S
C1212 C1216 1.432 . S
H1213 C1218 0.930 . S
N1214 Tb1176 2.600 . S
N1214 C1216 1.359 . S
N1214 C1217 1.327 . S
C1215 H1201 0.931 . S
C1215 C1217 1.392 . S
C1215 C1218 1.370 . S
C1216 C1212 1.432 . S
C1216 N1214 1.359 . S
C1216 C1219 1.414 . S
C1217 H1199 0.930 . S
C1217 N1214 1.327 . S
C1217 C1215 1.392 . S
C1218 H1213 0.930 . S
C1218 C1215 1.370 . S
C1218 C1219 1.385 . S
C1219 C1216 1.414 . S
C1219 C1218 1.385 . S
C1219 C1241 1.444 . S
O1220 Tb1176 2.546 . S
O1220 C1240 1.251 . S
O1221 Tb1176 2.610 . S
O1221 Tb1187 2.362 . S
O1221 C1232 1.283 . S
O1222 Tb1187 2.421 . S
O1222 C1239 1.262 . S
O1223 Tb1176 2.320 . S
O1223 C1239 1.260 . S
O1224 Tb1176 2.552 . S
O1224 C1232 1.243 . S
O1225 Tb1176 2.413 . S
O1225 C1240 1.256 . S
O1226 Tb1187 2.546 . S
O1226 C1251 1.251 . S
O1227 Tb1176 2.362 . S
O1227 Tb1187 2.610 . S
O1227 C1243 1.283 . S
O1228 Tb1176 2.421 . S
O1228 C1250 1.262 . S
O1229 Tb1187 2.320 . S
O1229 C1250 1.260 . S
O1230 Tb1187 2.552 . S
O1230 C1243 1.243 . S
O1231 Tb1187 2.413 . S
O1231 C1251 1.256 . S
C1232 O1221 1.283 . S
C1232 O1224 1.243 . S
C1233 C1235 1.382 . S
C1233 C1237 1.393 . S
C1233 C1240 1.500 . S
C1234 C1235 1.400 . S
C1234 C1236 1.384 . S
C1235 C1233 1.382 . S
C1235 C1234 1.400 . S
C1235 H1252 0.930 . S
C1236 C1234 1.384 . S
C1236 C1238 1.392 . S
C1236 H1253 0.931 . S
C1237 C1233 1.393 . S
C1237 C1238 1.401 . S
C1237 H1254 0.930 . S
C1238 C1236 1.392 . S
C1238 C1237 1.401 . S
C1238 H1255 0.930 . S
C1239 O1222 1.262 . S
C1239 O1223 1.260 . S
C1240 Tb1176 2.833 . S
C1240 O1220 1.251 . S
C1240 O1225 1.256 . S
C1240 C1233 1.500 . S
C1241 H1206 0.929 . S
C1241 C1219 1.444 . S
C1241 C1242 1.317 . S
C1242 H1204 0.930 . S
C1242 C1210 1.432 . S
C1242 C1241 1.317 . S
C1243 O1227 1.283 . S
C1243 O1230 1.243 . S
C1244 C1245 1.382 . S
C1244 C1248 1.393 . S
C1244 C1251 1.500 . S
C1245 C1244 1.382 . S
C1245 C1246 1.400 . S
C1245 H1256 0.930 . S
C1246 C1245 1.400 . S
C1246 C1247 1.384 . S
C1247 C1246 1.384 . S
C1247 C1249 1.392 . S
C1247 H1257 0.931 . S
C1248 C1244 1.393 . S
C1248 C1249 1.401 . S
C1248 H1258 0.930 . S
C1249 C1247 1.392 . S
C1249 C1248 1.401 . S
C1249 H1259 0.930 . S
C1250 O1228 1.262 . S
C1250 O1229 1.260 . S
C1251 Tb1187 2.833 . S
C1251 O1226 1.251 . S
C1251 O1231 1.256 . S
C1251 C1244 1.500 . S
H1252 C1235 0.930 . S
H1253 C1236 0.931 . S
H1254 C1237 0.930 . S
H1255 C1238 0.930 . S
H1256 C1245 0.930 . S
H1257 C1247 0.931 . S
H1258 C1248 0.930 . S
H1259 C1249 0.930 . S
Tb1260 N1291 2.660 . S
Tb1260 N1298 2.600 . S
Tb1260 O1304 2.546 . S
Tb1260 O1305 2.610 . S
Tb1260 O1307 2.320 . S
Tb1260 O1308 2.552 . S
Tb1260 O1309 2.413 . S
Tb1260 O1311 2.362 . S
Tb1260 O1312 2.421 . S
Tb1260 C1324 2.833 . S
C1261 C1264 1.432 . S
C1261 C1265 1.414 . S
C1261 N1268 1.359 . S
C1262 C1264 1.417 . S
C1262 C1266 1.432 . S
C1262 C1274 1.410 . S
C1263 C1265 1.444 . S
C1263 C1266 1.317 . S
C1263 H1286 0.929 . S
C1264 C1261 1.432 . S
C1264 C1262 1.417 . S
C1264 N1272 1.360 . S
C1265 C1261 1.414 . S
C1265 C1263 1.444 . S
C1265 C1270 1.385 . S
C1266 C1262 1.432 . S
C1266 C1263 1.317 . S
C1266 H1278 0.930 . S
C1267 C1269 1.392 . S
C1267 C1270 1.370 . S
C1267 H1279 0.931 . S
N1268 C1261 1.359 . S
N1268 C1269 1.327 . S
N1268 Tb1271 2.600 . S
C1269 C1267 1.392 . S
C1269 N1268 1.327 . S
C1269 H1276 0.930 . S
C1270 C1265 1.385 . S
C1270 C1267 1.370 . S
C1270 H1289 0.930 . S
Tb1271 N1268 2.600 . S
Tb1271 N1272 2.660 . S
Tb1271 O1305 2.362 . S
Tb1271 O1306 2.421 . S
Tb1271 O1310 2.546 . S
Tb1271 O1311 2.610 . S
Tb1271 O1313 2.320 . S
Tb1271 O1314 2.552 . S
Tb1271 O1315 2.413 . S
Tb1271 C1335 2.833 . S
N1272 C1264 1.360 . S
N1272 Tb1271 2.660 . S
N1272 C1273 1.305 . S
C1273 N1272 1.305 . S
C1273 C1275 1.407 . S
C1273 H1280 0.930 . S
C1274 C1262 1.410 . S
C1274 C1275 1.345 . S
C1274 H1282 0.930 . S
C1275 C1273 1.407 . S
C1275 C1274 1.345 . S
C1275 H1277 0.930 . S
H1276 C1269 0.930 . S
H1277 C1275 0.930 . S
H1278 C1266 0.930 . S
H1279 C1267 0.931 . S
H1280 C1273 0.930 . S
H1281 C1295 0.930 . S
H1282 C1274 0.930 . S
H1283 C1301 0.930 . S
H1284 C1292 0.930 . S
H1285 C1299 0.931 . S
H1286 C1263 0.929 . S
H1287 C1293 0.930 . S
H1288 C1326 0.930 . S
H1289 C1270 0.930 . S
H1290 C1325 0.929 . S
N1291 Tb1260 2.660 . S
N1291 C1292 1.305 . S
N1291 C1296 1.360 . S
C1292 H1284 0.930 . S
C1292 N1291 1.305 . S
C1292 C1295 1.407 . S
C1293 H1287 0.930 . S
C1293 C1294 1.410 . S
C1293 C1295 1.345 . S
C1294 C1293 1.410 . S
C1294 C1296 1.417 . S
C1294 C1326 1.432 . S
C1295 H1281 0.930 . S
C1295 C1292 1.407 . S
C1295 C1293 1.345 . S
C1296 N1291 1.360 . S
C1296 C1294 1.417 . S
C1296 C1300 1.432 . S
H1297 C1302 0.930 . S
N1298 Tb1260 2.600 . S
N1298 C1300 1.359 . S
N1298 C1301 1.327 . S
C1299 H1285 0.931 . S
C1299 C1301 1.392 . S
C1299 C1302 1.370 . S
C1300 C1296 1.432 . S
C1300 N1298 1.359 . S
C1300 C1303 1.414 . S
C1301 H1283 0.930 . S
C1301 N1298 1.327 . S
C1301 C1299 1.392 . S
C1302 H1297 0.930 . S
C1302 C1299 1.370 . S
C1302 C1303 1.385 . S
C1303 C1300 1.414 . S
C1303 C1302 1.385 . S
C1303 C1325 1.444 . S
O1304 Tb1260 2.546 . S
O1304 C1324 1.251 . S
O1305 Tb1260 2.610 . S
O1305 Tb1271 2.362 . S
O1305 C1316 1.283 . S
O1306 Tb1271 2.421 . S
O1306 C1323 1.262 . S
O1307 Tb1260 2.320 . S
O1307 C1323 1.260 . S
O1308 Tb1260 2.552 . S
O1308 C1316 1.243 . S
O1309 Tb1260 2.413 . S
O1309 C1324 1.256 . S
O1310 Tb1271 2.546 . S
O1310 C1335 1.251 . S
O1311 Tb1260 2.362 . S
O1311 Tb1271 2.610 . S
O1311 C1327 1.283 . S
O1312 Tb1260 2.421 . S
O1312 C1334 1.262 . S
O1313 Tb1271 2.320 . S
O1313 C1334 1.260 . S
O1314 Tb1271 2.552 . S
O1314 C1327 1.243 . S
O1315 Tb1271 2.413 . S
O1315 C1335 1.256 . S
C1316 O1305 1.283 . S
C1316 O1308 1.243 . S
C1317 C1319 1.382 . S
C1317 C1321 1.393 . S
C1317 C1324 1.500 . S
C1318 C1319 1.400 . S
C1318 C1320 1.384 . S
C1319 C1317 1.382 . S
C1319 C1318 1.400 . S
C1319 H1336 0.930 . S
C1320 C1318 1.384 . S
C1320 C1322 1.392 . S
C1320 H1337 0.931 . S
C1321 C1317 1.393 . S
C1321 C1322 1.401 . S
C1321 H1338 0.930 . S
C1322 C1320 1.392 . S
C1322 C1321 1.401 . S
C1322 H1339 0.930 . S
C1323 O1306 1.262 . S
C1323 O1307 1.260 . S
C1324 Tb1260 2.833 . S
C1324 O1304 1.251 . S
C1324 O1309 1.256 . S
C1324 C1317 1.500 . S
C1325 H1290 0.929 . S
C1325 C1303 1.444 . S
C1325 C1326 1.317 . S
C1326 H1288 0.930 . S
C1326 C1294 1.432 . S
C1326 C1325 1.317 . S
C1327 O1311 1.283 . S
C1327 O1314 1.243 . S
C1328 C1329 1.382 . S
C1328 C1332 1.393 . S
C1328 C1335 1.500 . S
C1329 C1328 1.382 . S
C1329 C1330 1.400 . S
C1329 H1340 0.930 . S
C1330 C1329 1.400 . S
C1330 C1331 1.384 . S
C1331 C1330 1.384 . S
C1331 C1333 1.392 . S
C1331 H1341 0.931 . S
C1332 C1328 1.393 . S
C1332 C1333 1.401 . S
C1332 H1342 0.930 . S
C1333 C1331 1.392 . S
C1333 C1332 1.401 . S
C1333 H1343 0.930 . S
C1334 O1312 1.262 . S
C1334 O1313 1.260 . S
C1335 Tb1271 2.833 . S
C1335 O1310 1.251 . S
C1335 O1315 1.256 . S
C1335 C1328 1.500 . S
H1336 C1319 0.930 . S
H1337 C1320 0.931 . S
H1338 C1321 0.930 . S
H1339 C1322 0.930 . S
H1340 C1329 0.930 . S
H1341 C1331 0.931 . S
H1342 C1332 0.930 . S
H1343 C1333 0.930 . S
Tb1344 N1375 2.660 . S
Tb1344 N1382 2.600 . S
Tb1344 O1388 2.546 . S
Tb1344 O1389 2.610 . S
Tb1344 O1391 2.320 . S
Tb1344 O1392 2.552 . S
Tb1344 O1393 2.413 . S
Tb1344 O1395 2.362 . S
Tb1344 O1396 2.421 . S
Tb1344 C1408 2.833 . S
C1345 C1348 1.432 . S
C1345 C1349 1.414 . S
C1345 N1352 1.359 . S
C1346 C1348 1.417 . S
C1346 C1350 1.432 . S
C1346 C1358 1.410 . S
C1347 C1349 1.444 . S
C1347 C1350 1.317 . S
C1347 H1370 0.929 . S
C1348 C1345 1.432 . S
C1348 C1346 1.417 . S
C1348 N1356 1.360 . S
C1349 C1345 1.414 . S
C1349 C1347 1.444 . S
C1349 C1354 1.385 . S
C1350 C1346 1.432 . S
C1350 C1347 1.317 . S
C1350 H1362 0.930 . S
C1351 C1353 1.392 . S
C1351 C1354 1.370 . S
C1351 H1363 0.931 . S
N1352 C1345 1.359 . S
N1352 C1353 1.327 . S
N1352 Tb1355 2.600 . S
C1353 C1351 1.392 . S
C1353 N1352 1.327 . S
C1353 H1360 0.930 . S
C1354 C1349 1.385 . S
C1354 C1351 1.370 . S
C1354 H1373 0.930 . S
Tb1355 N1352 2.600 . S
Tb1355 N1356 2.660 . S
Tb1355 O1389 2.362 . S
Tb1355 O1390 2.421 . S
Tb1355 O1394 2.546 . S
Tb1355 O1395 2.610 . S
Tb1355 O1397 2.320 . S
Tb1355 O1398 2.552 . S
Tb1355 O1399 2.413 . S
Tb1355 C1419 2.833 . S
N1356 C1348 1.360 . S
N1356 Tb1355 2.660 . S
N1356 C1357 1.305 . S
C1357 N1356 1.305 . S
C1357 C1359 1.407 . S
C1357 H1364 0.930 . S
C1358 C1346 1.410 . S
C1358 C1359 1.345 . S
C1358 H1366 0.930 . S
C1359 C1357 1.407 . S
C1359 C1358 1.345 . S
C1359 H1361 0.930 . S
H1360 C1353 0.930 . S
H1361 C1359 0.930 . S
H1362 C1350 0.930 . S
H1363 C1351 0.931 . S
H1364 C1357 0.930 . S
H1365 C1379 0.930 . S
H1366 C1358 0.930 . S
H1367 C1385 0.930 . S
H1368 C1376 0.930 . S
H1369 C1383 0.931 . S
H1370 C1347 0.929 . S
H1371 C1377 0.930 . S
H1372 C1410 0.930 . S
H1373 C1354 0.930 . S
H1374 C1409 0.929 . S
N1375 Tb1344 2.660 . S
N1375 C1376 1.305 . S
N1375 C1380 1.360 . S
C1376 H1368 0.930 . S
C1376 N1375 1.305 . S
C1376 C1379 1.407 . S
C1377 H1371 0.930 . S
C1377 C1378 1.410 . S
C1377 C1379 1.345 . S
C1378 C1377 1.410 . S
C1378 C1380 1.417 . S
C1378 C1410 1.432 . S
C1379 H1365 0.930 . S
C1379 C1376 1.407 . S
C1379 C1377 1.345 . S
C1380 N1375 1.360 . S
C1380 C1378 1.417 . S
C1380 C1384 1.432 . S
H1381 C1386 0.930 . S
N1382 Tb1344 2.600 . S
N1382 C1384 1.359 . S
N1382 C1385 1.327 . S
C1383 H1369 0.931 . S
C1383 C1385 1.392 . S
C1383 C1386 1.370 . S
C1384 C1380 1.432 . S
C1384 N1382 1.359 . S
C1384 C1387 1.414 . S
C1385 H1367 0.930 . S
C1385 N1382 1.327 . S
C1385 C1383 1.392 . S
C1386 H1381 0.930 . S
C1386 C1383 1.370 . S
C1386 C1387 1.385 . S
C1387 C1384 1.414 . S
C1387 C1386 1.385 . S
C1387 C1409 1.444 . S
O1388 Tb1344 2.546 . S
O1388 C1408 1.251 . S
O1389 Tb1344 2.610 . S
O1389 Tb1355 2.362 . S
O1389 C1400 1.283 . S
O1390 Tb1355 2.421 . S
O1390 C1407 1.262 . S
O1391 Tb1344 2.320 . S
O1391 C1407 1.260 . S
O1392 Tb1344 2.552 . S
O1392 C1400 1.243 . S
O1393 Tb1344 2.413 . S
O1393 C1408 1.256 . S
O1394 Tb1355 2.546 . S
O1394 C1419 1.251 . S
O1395 Tb1344 2.362 . S
O1395 Tb1355 2.610 . S
O1395 C1411 1.283 . S
O1396 Tb1344 2.421 . S
O1396 C1418 1.262 . S
O1397 Tb1355 2.320 . S
O1397 C1418 1.260 . S
O1398 Tb1355 2.552 . S
O1398 C1411 1.243 . S
O1399 Tb1355 2.413 . S
O1399 C1419 1.256 . S
C1400 O1389 1.283 . S
C1400 O1392 1.243 . S
C1401 C1403 1.382 . S
C1401 C1405 1.393 . S
C1401 C1408 1.500 . S
C1402 C1403 1.400 . S
C1402 C1404 1.384 . S
C1403 C1401 1.382 . S
C1403 C1402 1.400 . S
C1403 H1420 0.930 . S
C1404 C1402 1.384 . S
C1404 C1406 1.392 . S
C1404 H1421 0.931 . S
C1405 C1401 1.393 . S
C1405 C1406 1.401 . S
C1405 H1422 0.930 . S
C1406 C1404 1.392 . S
C1406 C1405 1.401 . S
C1406 H1423 0.930 . S
C1407 O1390 1.262 . S
C1407 O1391 1.260 . S
C1408 Tb1344 2.833 . S
C1408 O1388 1.251 . S
C1408 O1393 1.256 . S
C1408 C1401 1.500 . S
C1409 H1374 0.929 . S
C1409 C1387 1.444 . S
C1409 C1410 1.317 . S
C1410 H1372 0.930 . S
C1410 C1378 1.432 . S
C1410 C1409 1.317 . S
C1411 O1395 1.283 . S
C1411 O1398 1.243 . S
C1412 C1413 1.382 . S
C1412 C1416 1.393 . S
C1412 C1419 1.500 . S
C1413 C1412 1.382 . S
C1413 C1414 1.400 . S
C1413 H1424 0.930 . S
C1414 C1413 1.400 . S
C1414 C1415 1.384 . S
C1415 C1414 1.384 . S
C1415 C1417 1.392 . S
C1415 H1425 0.931 . S
C1416 C1412 1.393 . S
C1416 C1417 1.401 . S
C1416 H1426 0.930 . S
C1417 C1415 1.392 . S
C1417 C1416 1.401 . S
C1417 H1427 0.930 . S
C1418 O1396 1.262 . S
C1418 O1397 1.260 . S
C1419 Tb1355 2.833 . S
C1419 O1394 1.251 . S
C1419 O1399 1.256 . S
C1419 C1412 1.500 . S
H1420 C1403 0.930 . S
H1421 C1404 0.931 . S
H1422 C1405 0.930 . S
H1423 C1406 0.930 . S
H1424 C1413 0.930 . S
H1425 C1415 0.931 . S
H1426 C1416 0.930 . S
H1427 C1417 0.930 . S
Tb1428 N1459 2.660 . S
Tb1428 N1466 2.600 . S
Tb1428 O1472 2.546 . S
Tb1428 O1473 2.610 . S
Tb1428 O1475 2.320 . S
Tb1428 O1476 2.552 . S
Tb1428 O1477 2.413 . S
Tb1428 O1479 2.362 . S
Tb1428 O1480 2.421 . S
Tb1428 C1492 2.833 . S
C1429 C1432 1.432 . S
C1429 C1433 1.414 . S
C1429 N1436 1.359 . S
C1430 C1432 1.417 . S
C1430 C1434 1.432 . S
C1430 C1442 1.410 . S
C1431 C1433 1.444 . S
C1431 C1434 1.317 . S
C1431 H1454 0.929 . S
C1432 C1429 1.432 . S
C1432 C1430 1.417 . S
C1432 N1440 1.360 . S
C1433 C1429 1.414 . S
C1433 C1431 1.444 . S
C1433 C1438 1.385 . S
C1434 C1430 1.432 . S
C1434 C1431 1.317 . S
C1434 H1446 0.930 . S
C1435 C1437 1.392 . S
C1435 C1438 1.370 . S
C1435 H1447 0.931 . S
N1436 C1429 1.359 . S
N1436 C1437 1.327 . S
N1436 Tb1439 2.600 . S
C1437 C1435 1.392 . S
C1437 N1436 1.327 . S
C1437 H1444 0.930 . S
C1438 C1433 1.385 . S
C1438 C1435 1.370 . S
C1438 H1457 0.930 . S
Tb1439 N1436 2.600 . S
Tb1439 N1440 2.660 . S
Tb1439 O1473 2.362 . S
Tb1439 O1474 2.421 . S
Tb1439 O1478 2.546 . S
Tb1439 O1479 2.610 . S
Tb1439 O1481 2.320 . S
Tb1439 O1482 2.552 . S
Tb1439 O1483 2.413 . S
Tb1439 C1503 2.833 . S
N1440 C1432 1.360 . S
N1440 Tb1439 2.660 . S
N1440 C1441 1.305 . S
C1441 N1440 1.305 . S
C1441 C1443 1.407 . S
C1441 H1448 0.930 . S
C1442 C1430 1.410 . S
C1442 C1443 1.345 . S
C1442 H1450 0.930 . S
C1443 C1441 1.407 . S
C1443 C1442 1.345 . S
C1443 H1445 0.930 . S
H1444 C1437 0.930 . S
H1445 C1443 0.930 . S
H1446 C1434 0.930 . S
H1447 C1435 0.931 . S
H1448 C1441 0.930 . S
H1449 C1463 0.930 . S
H1450 C1442 0.930 . S
H1451 C1469 0.930 . S
H1452 C1460 0.930 . S
H1453 C1467 0.931 . S
H1454 C1431 0.929 . S
H1455 C1461 0.930 . S
H1456 C1494 0.930 . S
H1457 C1438 0.930 . S
H1458 C1493 0.929 . S
N1459 Tb1428 2.660 . S
N1459 C1460 1.305 . S
N1459 C1464 1.360 . S
C1460 H1452 0.930 . S
C1460 N1459 1.305 . S
C1460 C1463 1.407 . S
C1461 H1455 0.930 . S
C1461 C1462 1.410 . S
C1461 C1463 1.345 . S
C1462 C1461 1.410 . S
C1462 C1464 1.417 . S
C1462 C1494 1.432 . S
C1463 H1449 0.930 . S
C1463 C1460 1.407 . S
C1463 C1461 1.345 . S
C1464 N1459 1.360 . S
C1464 C1462 1.417 . S
C1464 C1468 1.432 . S
H1465 C1470 0.930 . S
N1466 Tb1428 2.600 . S
N1466 C1468 1.359 . S
N1466 C1469 1.327 . S
C1467 H1453 0.931 . S
C1467 C1469 1.392 . S
C1467 C1470 1.370 . S
C1468 C1464 1.432 . S
C1468 N1466 1.359 . S
C1468 C1471 1.414 . S
C1469 H1451 0.930 . S
C1469 N1466 1.327 . S
C1469 C1467 1.392 . S
C1470 H1465 0.930 . S
C1470 C1467 1.370 . S
C1470 C1471 1.385 . S
C1471 C1468 1.414 . S
C1471 C1470 1.385 . S
C1471 C1493 1.444 . S
O1472 Tb1428 2.546 . S
O1472 C1492 1.251 . S
O1473 Tb1428 2.610 . S
O1473 Tb1439 2.362 . S
O1473 C1484 1.283 . S
O1474 Tb1439 2.421 . S
O1474 C1491 1.262 . S
O1475 Tb1428 2.320 . S
O1475 C1491 1.260 . S
O1476 Tb1428 2.552 . S
O1476 C1484 1.243 . S
O1477 Tb1428 2.413 . S
O1477 C1492 1.256 . S
O1478 Tb1439 2.546 . S
O1478 C1503 1.251 . S
O1479 Tb1428 2.362 . S
O1479 Tb1439 2.610 . S
O1479 C1495 1.283 . S
O1480 Tb1428 2.421 . S
O1480 C1502 1.262 . S
O1481 Tb1439 2.320 . S
O1481 C1502 1.260 . S
O1482 Tb1439 2.552 . S
O1482 C1495 1.243 . S
O1483 Tb1439 2.413 . S
O1483 C1503 1.256 . S
C1484 O1473 1.283 . S
C1484 O1476 1.243 . S
C1485 C1487 1.382 . S
C1485 C1489 1.393 . S
C1485 C1492 1.500 . S
C1486 C1487 1.400 . S
C1486 C1488 1.384 . S
C1487 C1485 1.382 . S
C1487 C1486 1.400 . S
C1487 H1504 0.930 . S
C1488 C1486 1.384 . S
C1488 C1490 1.392 . S
C1488 H1505 0.931 . S
C1489 C1485 1.393 . S
C1489 C1490 1.401 . S
C1489 H1506 0.930 . S
C1490 C1488 1.392 . S
C1490 C1489 1.401 . S
C1490 H1507 0.930 . S
C1491 O1474 1.262 . S
C1491 O1475 1.260 . S
C1492 Tb1428 2.833 . S
C1492 O1472 1.251 . S
C1492 O1477 1.256 . S
C1492 C1485 1.500 . S
C1493 H1458 0.929 . S
C1493 C1471 1.444 . S
C1493 C1494 1.317 . S
C1494 H1456 0.930 . S
C1494 C1462 1.432 . S
C1494 C1493 1.317 . S
C1495 O1479 1.283 . S
C1495 O1482 1.243 . S
C1496 C1497 1.382 . S
C1496 C1500 1.393 . S
C1496 C1503 1.500 . S
C1497 C1496 1.382 . S
C1497 C1498 1.400 . S
C1497 H1508 0.930 . S
C1498 C1497 1.400 . S
C1498 C1499 1.384 . S
C1499 C1498 1.384 . S
C1499 C1501 1.392 . S
C1499 H1509 0.931 . S
C1500 C1496 1.393 . S
C1500 C1501 1.401 . S
C1500 H1510 0.930 . S
C1501 C1499 1.392 . S
C1501 C1500 1.401 . S
C1501 H1511 0.930 . S
C1502 O1480 1.262 . S
C1502 O1481 1.260 . S
C1503 Tb1439 2.833 . S
C1503 O1478 1.251 . S
C1503 O1483 1.256 . S
C1503 C1496 1.500 . S
H1504 C1487 0.930 . S
H1505 C1488 0.931 . S
H1506 C1489 0.930 . S
H1507 C1490 0.930 . S
H1508 C1497 0.930 . S
H1509 C1499 0.931 . S
H1510 C1500 0.930 . S
H1511 C1501 0.930 . S
Tb1512 N1543 2.660 . S
Tb1512 N1550 2.600 . S
Tb1512 O1556 2.546 . S
Tb1512 O1557 2.610 . S
Tb1512 O1559 2.320 . S
Tb1512 O1560 2.552 . S
Tb1512 O1561 2.413 . S
Tb1512 O1563 2.362 . S
Tb1512 O1564 2.421 . S
Tb1512 C1576 2.833 . S
C1513 C1516 1.432 . S
C1513 C1517 1.414 . S
C1513 N1520 1.359 . S
C1514 C1516 1.417 . S
C1514 C1518 1.432 . S
C1514 C1526 1.410 . S
C1515 C1517 1.444 . S
C1515 C1518 1.317 . S
C1515 H1538 0.929 . S
C1516 C1513 1.432 . S
C1516 C1514 1.417 . S
C1516 N1524 1.360 . S
C1517 C1513 1.414 . S
C1517 C1515 1.444 . S
C1517 C1522 1.385 . S
C1518 C1514 1.432 . S
C1518 C1515 1.317 . S
C1518 H1530 0.930 . S
C1519 C1521 1.392 . S
C1519 C1522 1.370 . S
C1519 H1531 0.931 . S
N1520 C1513 1.359 . S
N1520 C1521 1.327 . S
N1520 Tb1523 2.600 . S
C1521 C1519 1.392 . S
C1521 N1520 1.327 . S
C1521 H1528 0.930 . S
C1522 C1517 1.385 . S
C1522 C1519 1.370 . S
C1522 H1541 0.930 . S
Tb1523 N1520 2.600 . S
Tb1523 N1524 2.660 . S
Tb1523 O1557 2.362 . S
Tb1523 O1558 2.421 . S
Tb1523 O1562 2.546 . S
Tb1523 O1563 2.610 . S
Tb1523 O1565 2.320 . S
Tb1523 O1566 2.552 . S
Tb1523 O1567 2.413 . S
Tb1523 C1587 2.833 . S
N1524 C1516 1.360 . S
N1524 Tb1523 2.660 . S
N1524 C1525 1.305 . S
C1525 N1524 1.305 . S
C1525 C1527 1.407 . S
C1525 H1532 0.930 . S
C1526 C1514 1.410 . S
C1526 C1527 1.345 . S
C1526 H1534 0.930 . S
C1527 C1525 1.407 . S
C1527 C1526 1.345 . S
C1527 H1529 0.930 . S
H1528 C1521 0.930 . S
H1529 C1527 0.930 . S
H1530 C1518 0.930 . S
H1531 C1519 0.931 . S
H1532 C1525 0.930 . S
H1533 C1547 0.930 . S
H1534 C1526 0.930 . S
H1535 C1553 0.930 . S
H1536 C1544 0.930 . S
H1537 C1551 0.931 . S
H1538 C1515 0.929 . S
H1539 C1545 0.930 . S
H1540 C1578 0.930 . S
H1541 C1522 0.930 . S
H1542 C1577 0.929 . S
N1543 Tb1512 2.660 . S
N1543 C1544 1.305 . S
N1543 C1548 1.360 . S
C1544 H1536 0.930 . S
C1544 N1543 1.305 . S
C1544 C1547 1.407 . S
C1545 H1539 0.930 . S
C1545 C1546 1.410 . S
C1545 C1547 1.345 . S
C1546 C1545 1.410 . S
C1546 C1548 1.417 . S
C1546 C1578 1.432 . S
C1547 H1533 0.930 . S
C1547 C1544 1.407 . S
C1547 C1545 1.345 . S
C1548 N1543 1.360 . S
C1548 C1546 1.417 . S
C1548 C1552 1.432 . S
H1549 C1554 0.930 . S
N1550 Tb1512 2.600 . S
N1550 C1552 1.359 . S
N1550 C1553 1.327 . S
C1551 H1537 0.931 . S
C1551 C1553 1.392 . S
C1551 C1554 1.370 . S
C1552 C1548 1.432 . S
C1552 N1550 1.359 . S
C1552 C1555 1.414 . S
C1553 H1535 0.930 . S
C1553 N1550 1.327 . S
C1553 C1551 1.392 . S
C1554 H1549 0.930 . S
C1554 C1551 1.370 . S
C1554 C1555 1.385 . S
C1555 C1552 1.414 . S
C1555 C1554 1.385 . S
C1555 C1577 1.444 . S
O1556 Tb1512 2.546 . S
O1556 C1576 1.251 . S
O1557 Tb1512 2.610 . S
O1557 Tb1523 2.362 . S
O1557 C1568 1.283 . S
O1558 Tb1523 2.421 . S
O1558 C1575 1.262 . S
O1559 Tb1512 2.320 . S
O1559 C1575 1.260 . S
O1560 Tb1512 2.552 . S
O1560 C1568 1.243 . S
O1561 Tb1512 2.413 . S
O1561 C1576 1.256 . S
O1562 Tb1523 2.546 . S
O1562 C1587 1.251 . S
O1563 Tb1512 2.362 . S
O1563 Tb1523 2.610 . S
O1563 C1579 1.283 . S
O1564 Tb1512 2.421 . S
O1564 C1586 1.262 . S
O1565 Tb1523 2.320 . S
O1565 C1586 1.260 . S
O1566 Tb1523 2.552 . S
O1566 C1579 1.243 . S
O1567 Tb1523 2.413 . S
O1567 C1587 1.256 . S
C1568 O1557 1.283 . S
C1568 O1560 1.243 . S
C1569 C1571 1.382 . S
C1569 C1573 1.393 . S
C1569 C1576 1.500 . S
C1570 C1571 1.400 . S
C1570 C1572 1.384 . S
C1571 C1569 1.382 . S
C1571 C1570 1.400 . S
C1571 H1588 0.930 . S
C1572 C1570 1.384 . S
C1572 C1574 1.392 . S
C1572 H1589 0.931 . S
C1573 C1569 1.393 . S
C1573 C1574 1.401 . S
C1573 H1590 0.930 . S
C1574 C1572 1.392 . S
C1574 C1573 1.401 . S
C1574 H1591 0.930 . S
C1575 O1558 1.262 . S
C1575 O1559 1.260 . S
C1576 Tb1512 2.833 . S
C1576 O1556 1.251 . S
C1576 O1561 1.256 . S
C1576 C1569 1.500 . S
C1577 H1542 0.929 . S
C1577 C1555 1.444 . S
C1577 C1578 1.317 . S
C1578 H1540 0.930 . S
C1578 C1546 1.432 . S
C1578 C1577 1.317 . S
C1579 O1563 1.283 . S
C1579 O1566 1.243 . S
C1580 C1581 1.382 . S
C1580 C1584 1.393 . S
C1580 C1587 1.500 . S
C1581 C1580 1.382 . S
C1581 C1582 1.400 . S
C1581 H1592 0.930 . S
C1582 C1581 1.400 . S
C1582 C1583 1.384 . S
C1583 C1582 1.384 . S
C1583 C1585 1.392 . S
C1583 H1593 0.931 . S
C1584 C1580 1.393 . S
C1584 C1585 1.401 . S
C1584 H1594 0.930 . S
C1585 C1583 1.392 . S
C1585 C1584 1.401 . S
C1585 H1595 0.930 . S
C1586 O1564 1.262 . S
C1586 O1565 1.260 . S
C1587 Tb1523 2.833 . S
C1587 O1562 1.251 . S
C1587 O1567 1.256 . S
C1587 C1580 1.500 . S
H1588 C1571 0.930 . S
H1589 C1572 0.931 . S
H1590 C1573 0.930 . S
H1591 C1574 0.930 . S
H1592 C1581 0.930 . S
H1593 C1583 0.931 . S
H1594 C1584 0.930 . S
H1595 C1585 0.930 . S
Tb1596 N1627 2.660 . S
Tb1596 N1634 2.600 1_554 S
Tb1596 O1640 2.546 1_554 S
Tb1596 O1641 2.610 . S
Tb1596 O1643 2.320 . S
Tb1596 O1644 2.552 . S
Tb1596 O1645 2.413 . S
Tb1596 O1647 2.362 . S
Tb1596 O1648 2.421 1_554 S
Tb1596 C1660 2.833 1_554 S
C1597 C1600 1.432 . S
C1597 C1601 1.414 . S
C1597 N1604 1.359 1_655 S
C1598 C1600 1.417 . S
C1598 C1602 1.432 . S
C1598 C1610 1.410 1_554 S
C1599 C1601 1.444 . S
C1599 C1602 1.317 . S
C1599 H1622 0.929 . S
C1600 C1597 1.432 . S
C1600 C1598 1.417 . S
C1600 N1608 1.367 . S
C1601 C1597 1.414 . S
C1601 C1599 1.444 . S
C1601 C1606 1.385 . S
C1602 C1598 1.432 . S
C1602 C1599 1.317 . S
C1602 H1614 0.930 . S
C1603 C1605 1.392 . S
C1603 C1606 1.370 1_455 S
C1603 H1615 0.931 . S
N1604 C1597 1.359 1_455 S
N1604 C1605 1.327 . S
N1604 Tb1607 2.600 . S
C1605 C1603 1.392 . S
C1605 N1604 1.327 . S
C1605 H1612 0.930 . S
C1606 C1601 1.385 . S
C1606 C1603 1.370 1_655 S
C1606 H1625 0.930 . S
Tb1607 N1604 2.600 . S
Tb1607 N1608 2.652 1_455 S
Tb1607 O1641 2.362 . S
Tb1607 O1642 2.421 . S
Tb1607 O1646 2.546 . S
Tb1607 O1647 2.610 . S
Tb1607 O1649 2.320 1_554 S
Tb1607 O1650 2.552 . S
Tb1607 O1651 2.413 1_455 S
Tb1607 C1671 2.833 1_455 S
N1608 C1600 1.367 . S
N1608 Tb1607 2.652 1_655 S
N1608 C1609 1.306 1_554 S
C1609 N1608 1.306 1_556 S
C1609 C1611 1.407 . S
C1609 H1616 0.930 1_655 S
C1610 C1598 1.410 1_556 S
C1610 C1611 1.345 . S
C1610 H1618 0.930 . S
C1611 C1609 1.407 . S
C1611 C1610 1.345 . S
C1611 H1613 0.930 . S
H1612 C1605 0.930 . S
H1613 C1611 0.930 . S
H1614 C1602 0.930 . S
H1615 C1603 0.931 . S
H1616 C1609 0.930 1_455 S
H1617 C1631 0.930 . S
H1618 C1610 0.930 . S
H1619 C1637 0.930 . S
H1620 C1628 0.930 . S
H1621 C1635 0.931 . S
H1622 C1599 0.929 . S
H1623 C1629 0.930 . S
H1624 C1662 0.930 . S
H1625 C1606 0.930 . S
H1626 C1661 0.929 . S
N1627 Tb1596 2.660 . S
N1627 C1628 1.305 . S
N1627 C1632 1.360 . S
C1628 H1620 0.930 . S
C1628 N1627 1.305 . S
C1628 C1631 1.407 . S
C1629 H1623 0.930 . S
C1629 C1630 1.410 . S
C1629 C1631 1.345 . S
C1630 C1629 1.410 . S
C1630 C1632 1.417 . S
C1630 C1662 1.432 . S
C1631 H1617 0.930 . S
C1631 C1628 1.407 . S
C1631 C1629 1.345 . S
C1632 N1627 1.360 . S
C1632 C1630 1.417 . S
C1632 C1636 1.432 1_554 S
H1633 C1638 0.930 . S
N1634 Tb1596 2.600 1_556 S
N1634 C1636 1.359 . S
N1634 C1637 1.327 . S
C1635 H1621 0.931 . S
C1635 C1637 1.392 . S
C1635 C1638 1.370 . S
C1636 C1632 1.432 1_556 S
C1636 N1634 1.359 . S
C1636 C1639 1.414 . S
C1637 H1619 0.930 . S
C1637 N1634 1.327 . S
C1637 C1635 1.392 . S
C1638 H1633 0.930 . S
C1638 C1635 1.370 . S
C1638 C1639 1.385 . S
C1639 C1636 1.414 . S
C1639 C1638 1.385 . S
C1639 C1661 1.444 . S
O1640 Tb1596 2.546 1_556 S
O1640 C1660 1.251 . S
O1641 Tb1596 2.610 . S
O1641 Tb1607 2.362 . S
O1641 C1652 1.283 . S
O1642 Tb1607 2.421 . S
O1642 C1659 1.262 . S
O1643 Tb1596 2.320 . S
O1643 C1659 1.260 . S
O1644 Tb1596 2.552 . S
O1644 C1652 1.243 . S
O1645 Tb1596 2.413 . S
O1645 C1660 1.256 1_554 S
O1646 Tb1607 2.546 . S
O1646 C1671 1.251 1_455 S
O1647 Tb1596 2.362 . S
O1647 Tb1607 2.610 . S
O1647 C1663 1.283 . S
O1648 Tb1596 2.421 1_556 S
O1648 C1670 1.262 . S
O1649 Tb1607 2.320 1_556 S
O1649 C1670 1.260 . S
O1650 Tb1607 2.552 . S
O1650 C1663 1.243 . S
O1651 Tb1607 2.413 1_655 S
O1651 C1671 1.256 . S
C1652 O1641 1.283 . S
C1652 O1644 1.243 . S
C1653 C1655 1.382 1_556 S
C1653 C1657 1.393 . S
C1653 C1660 1.500 . S
C1654 C1655 1.400 1_556 S
C1654 C1656 1.384 . S
C1655 C1653 1.382 1_554 S
C1655 C1654 1.400 1_554 S
C1655 H1672 0.930 . S
C1656 C1654 1.384 . S
C1656 C1658 1.392 . S
C1656 H1673 0.931 . S
C1657 C1653 1.393 . S
C1657 C1658 1.401 . S
C1657 H1674 0.930 . S
C1658 C1656 1.392 . S
C1658 C1657 1.401 . S
C1658 H1675 0.930 . S
C1659 O1642 1.262 . S
C1659 O1643 1.260 . S
C1660 Tb1596 2.833 1_556 S
C1660 O1640 1.251 . S
C1660 O1645 1.256 1_556 S
C1660 C1653 1.500 . S
C1661 H1626 0.929 . S
C1661 C1639 1.444 . S
C1661 C1662 1.317 1_556 S
C1662 H1624 0.930 . S
C1662 C1630 1.432 . S
C1662 C1661 1.317 1_554 S
C1663 O1647 1.283 . S
C1663 O1650 1.243 . S
C1664 C1665 1.382 . S
C1664 C1668 1.393 . S
C1664 C1671 1.500 . S
C1665 C1664 1.382 . S
C1665 C1666 1.400 . S
C1665 H1676 0.930 . S
C1666 C1665 1.400 . S
C1666 C1667 1.384 . S
C1667 C1666 1.384 . S
C1667 C1669 1.392 . S
C1667 H1677 0.931 . S
C1668 C1664 1.393 . S
C1668 C1669 1.401 . S
C1668 H1678 0.930 . S
C1669 C1667 1.392 . S
C1669 C1668 1.401 . S
C1669 H1679 0.930 . S
C1670 O1648 1.262 . S
C1670 O1649 1.260 . S
C1671 Tb1607 2.833 1_655 S
C1671 O1646 1.251 1_655 S
C1671 O1651 1.256 . S
C1671 C1664 1.500 . S
H1672 C1655 0.930 . S
H1673 C1656 0.931 . S
H1674 C1657 0.930 . S
H1675 C1658 0.930 . S
H1676 C1665 0.930 . S
H1677 C1667 0.931 . S
H1678 C1668 0.930 . S
H1679 C1669 0.930 . S
H1680 C1688 0.950 . S
H1681 C1693 0.950 . S
H1682 C1690 0.950 1_554 S
H1683 C1692 0.950 . S
H1684 C1694 0.950 . S
H1685 C1696 0.950 . S
H1686 C1698 0.950 . S
H1687 C1699 0.950 . S
C1688 H1680 0.950 . S
C1688 C1689 1.386 . S
C1688 C1690 1.391 . S
C1689 C1688 1.386 . S
C1689 C1693 1.393 . S
C1690 H1682 0.950 1_556 S
C1690 C1688 1.391 . S
C1690 C1691 1.400 . S
C1691 C1690 1.400 . S
C1691 C1692 1.398 . S
C1691 C1697 1.491 . S
C1692 H1683 0.950 . S
C1692 C1691 1.398 . S
C1692 C1693 1.391 . S
C1693 H1681 0.950 . S
C1693 C1689 1.393 . S
C1693 C1692 1.391 . S
C1694 H1684 0.950 . S
C1694 C1695 1.386 1_556 S
C1694 C1696 1.391 . S
C1695 C1694 1.386 1_554 S
C1695 C1699 1.393 . S
C1696 H1685 0.950 . S
C1696 C1694 1.391 . S
C1696 C1697 1.400 . S
C1697 C1691 1.491 . S
C1697 C1696 1.400 . S
C1697 C1698 1.398 1_556 S
C1698 H1686 0.950 . S
C1698 C1697 1.398 1_554 S
C1698 C1699 1.391 . S
C1699 H1687 0.950 . S
C1699 C1695 1.393 . S
C1699 C1698 1.391 . S
H1700 C1708 0.950 . S
H1701 C1713 0.950 . S
H1702 C1710 0.950 . S
H1703 C1712 0.950 . S
H1704 C1714 0.950 . S
H1705 C1716 0.950 . S
H1706 C1718 0.950 . S
H1707 C1719 0.950 . S
C1708 H1700 0.950 . S
C1708 C1709 1.386 . S
C1708 C1710 1.391 . S
C1709 C1708 1.386 . S
C1709 C1713 1.393 . S
C1710 H1702 0.950 . S
C1710 C1708 1.391 . S
C1710 C1711 1.400 . S
C1711 C1710 1.400 . S
C1711 C1712 1.398 . S
C1711 C1717 1.491 . S
C1712 H1703 0.950 . S
C1712 C1711 1.398 . S
C1712 C1713 1.391 . S
C1713 H1701 0.950 . S
C1713 C1709 1.393 . S
C1713 C1712 1.391 . S
C1714 H1704 0.950 . S
C1714 C1715 1.386 . S
C1714 C1716 1.391 . S
C1715 C1714 1.386 . S
C1715 C1719 1.393 . S
C1716 H1705 0.950 . S
C1716 C1714 1.391 . S
C1716 C1717 1.400 . S
C1717 C1711 1.491 . S
C1717 C1716 1.400 . S
C1717 C1718 1.398 . S
C1718 H1706 0.950 . S
C1718 C1717 1.398 . S
C1718 C1719 1.391 . S
C1719 H1707 0.950 . S
C1719 C1715 1.393 . S
C1719 C1718 1.391 . S
H1720 C1728 0.950 . S
H1721 C1733 0.950 . S
H1722 C1730 0.950 . S
H1723 C1732 0.950 . S
H1724 C1734 0.950 . S
H1725 C1736 0.950 . S
H1726 C1738 0.950 . S
H1727 C1739 0.950 . S
C1728 H1720 0.950 . S
C1728 C1729 1.386 . S
C1728 C1730 1.391 . S
C1729 C1728 1.386 . S
C1729 C1733 1.393 . S
C1730 H1722 0.950 . S
C1730 C1728 1.391 . S
C1730 C1731 1.400 . S
C1731 C1730 1.400 . S
C1731 C1732 1.398 . S
C1731 C1737 1.491 . S
C1732 H1723 0.950 . S
C1732 C1731 1.398 . S
C1732 C1733 1.391 . S
C1733 H1721 0.950 . S
C1733 C1729 1.393 . S
C1733 C1732 1.391 . S
C1734 H1724 0.950 . S
C1734 C1735 1.386 . S
C1734 C1736 1.391 . S
C1735 C1734 1.386 . S
C1735 C1739 1.393 . S
C1736 H1725 0.950 . S
C1736 C1734 1.391 . S
C1736 C1737 1.400 . S
C1737 C1731 1.491 . S
C1737 C1736 1.400 . S
C1737 C1738 1.398 . S
C1738 H1726 0.950 . S
C1738 C1737 1.398 . S
C1738 C1739 1.391 . S
C1739 H1727 0.950 . S
C1739 C1735 1.393 . S
C1739 C1738 1.391 . S
H1740 C1748 0.950 . S
H1741 C1753 0.950 . S
H1742 C1750 0.950 . S
H1743 C1752 0.950 . S
H1744 C1754 0.950 . S
H1745 C1756 0.950 . S
H1746 C1758 0.950 . S
H1747 C1759 0.950 . S
C1748 H1740 0.950 . S
C1748 C1749 1.386 . S
C1748 C1750 1.391 . S
C1749 C1748 1.386 . S
C1749 C1753 1.393 . S
C1750 H1742 0.950 . S
C1750 C1748 1.391 . S
C1750 C1751 1.400 . S
C1751 C1750 1.400 . S
C1751 C1752 1.398 . S
C1751 C1757 1.491 . S
C1752 H1743 0.950 . S
C1752 C1751 1.398 . S
C1752 C1753 1.391 . S
C1753 H1741 0.950 . S
C1753 C1749 1.393 . S
C1753 C1752 1.391 . S
C1754 H1744 0.950 . S
C1754 C1755 1.386 . S
C1754 C1756 1.391 . S
C1755 C1754 1.386 . S
C1755 C1759 1.393 . S
C1756 H1745 0.950 . S
C1756 C1754 1.391 . S
C1756 C1757 1.400 . S
C1757 C1751 1.491 . S
C1757 C1756 1.400 . S
C1757 C1758 1.398 . S
C1758 H1746 0.950 . S
C1758 C1757 1.398 . S
C1758 C1759 1.391 . S
C1759 H1747 0.950 . S
C1759 C1755 1.393 . S
C1759 C1758 1.391 . S
H1760 C1768 0.948 1_655 S
H1761 C1773 0.950 . S
H1762 C1770 0.950 1_655 S
H1763 C1772 0.950 . S
H1764 C1774 0.950 . S
H1765 C1776 0.950 . S
H1766 C1778 0.950 . S
H1767 C1779 0.950 . S
C1768 H1760 0.948 1_455 S
C1768 C1769 1.387 . S
C1768 C1770 1.392 . S
C1769 C1768 1.387 . S
C1769 C1773 1.393 . S
C1770 H1762 0.950 1_455 S
C1770 C1768 1.392 . S
C1770 C1771 1.400 . S
C1771 C1770 1.400 . S
C1771 C1772 1.398 . S
C1771 C1777 1.491 . S
C1772 H1763 0.950 . S
C1772 C1771 1.398 . S
C1772 C1773 1.391 . S
C1773 H1761 0.950 . S
C1773 C1769 1.393 . S
C1773 C1772 1.391 . S
C1774 H1764 0.950 . S
C1774 C1775 1.386 . S
C1774 C1776 1.391 . S
C1775 C1774 1.386 . S
C1775 C1779 1.393 . S
C1776 H1765 0.950 . S
C1776 C1774 1.391 . S
C1776 C1777 1.400 . S
C1777 C1771 1.491 . S
C1777 C1776 1.400 . S
C1777 C1778 1.398 . S
C1778 H1766 0.950 . S
C1778 C1777 1.398 . S
C1778 C1779 1.391 . S
C1779 H1767 0.950 . S
C1779 C1775 1.393 . S
C1779 C1778 1.391 . S
H1780 C1788 0.950 . S
H1781 C1793 0.950 . S
H1782 C1790 0.950 . S
H1783 C1792 0.950 . S
H1784 C1794 0.950 . S
H1785 C1796 0.950 . S
H1786 C1798 0.950 . S
H1787 C1799 0.950 . S
C1788 H1780 0.950 . S
C1788 C1789 1.386 . S
C1788 C1790 1.391 . S
C1789 C1788 1.386 . S
C1789 C1793 1.393 . S
C1790 H1782 0.950 . S
C1790 C1788 1.391 . S
C1790 C1791 1.400 . S
C1791 C1790 1.400 . S
C1791 C1792 1.398 . S
C1791 C1797 1.491 . S
C1792 H1783 0.950 . S
C1792 C1791 1.398 . S
C1792 C1793 1.391 . S
C1793 H1781 0.950 . S
C1793 C1789 1.393 . S
C1793 C1792 1.391 . S
C1794 H1784 0.950 . S
C1794 C1795 1.386 . S
C1794 C1796 1.391 . S
C1795 C1794 1.386 . S
C1795 C1799 1.393 . S
C1796 H1785 0.950 . S
C1796 C1794 1.391 . S
C1796 C1797 1.400 . S
C1797 C1791 1.491 . S
C1797 C1796 1.400 . S
C1797 C1798 1.398 . S
C1798 H1786 0.950 . S
C1798 C1797 1.398 . S
C1798 C1799 1.391 . S
C1799 H1787 0.950 . S
C1799 C1795 1.393 . S
C1799 C1798 1.391 . S
H1800 C1808 0.950 . S
H1801 C1813 0.950 . S
H1802 C1810 0.950 . S
H1803 C1812 0.950 . S
H1804 C1814 0.950 . S
H1805 C1816 0.950 . S
H1806 C1818 0.950 . S
H1807 C1819 0.950 . S
C1808 H1800 0.950 . S
C1808 C1809 1.386 . S
C1808 C1810 1.391 . S
C1809 C1808 1.386 . S
C1809 C1813 1.393 . S
C1810 H1802 0.950 . S
C1810 C1808 1.391 . S
C1810 C1811 1.400 . S
C1811 C1810 1.400 . S
C1811 C1812 1.398 . S
C1811 C1817 1.491 . S
C1812 H1803 0.950 . S
C1812 C1811 1.398 . S
C1812 C1813 1.391 . S
C1813 H1801 0.950 . S
C1813 C1809 1.393 . S
C1813 C1812 1.391 . S
C1814 H1804 0.950 . S
C1814 C1815 1.386 . S
C1814 C1816 1.391 . S
C1815 C1814 1.386 . S
C1815 C1819 1.393 . S
C1816 H1805 0.950 . S
C1816 C1814 1.391 . S
C1816 C1817 1.400 . S
C1817 C1811 1.491 . S
C1817 C1816 1.400 . S
C1817 C1818 1.398 . S
C1818 H1806 0.950 . S
C1818 C1817 1.398 . S
C1818 C1819 1.391 . S
C1819 H1807 0.950 . S
C1819 C1815 1.393 . S
C1819 C1818 1.391 . S
H1820 C1828 0.950 . S
H1821 C1833 0.950 . S
H1822 C1830 0.950 . S
H1823 C1832 0.950 . S
H1824 C1834 0.950 . S
H1825 C1836 0.950 . S
H1826 C1838 0.950 . S
H1827 C1839 0.950 . S
C1828 H1820 0.950 . S
C1828 C1829 1.386 . S
C1828 C1830 1.391 . S
C1829 C1828 1.386 . S
C1829 C1833 1.393 . S
C1830 H1822 0.950 . S
C1830 C1828 1.391 . S
C1830 C1831 1.400 . S
C1831 C1830 1.400 . S
C1831 C1832 1.398 . S
C1831 C1837 1.491 . S
C1832 H1823 0.950 . S
C1832 C1831 1.398 . S
C1832 C1833 1.391 . S
C1833 H1821 0.950 . S
C1833 C1829 1.393 . S
C1833 C1832 1.391 . S
C1834 H1824 0.950 . S
C1834 C1835 1.386 . S
C1834 C1836 1.391 . S
C1835 C1834 1.386 . S
C1835 C1839 1.393 . S
C1836 H1825 0.950 . S
C1836 C1834 1.391 . S
C1836 C1837 1.400 . S
C1837 C1831 1.491 . S
C1837 C1836 1.400 . S
C1837 C1838 1.398 . S
C1838 H1826 0.950 . S
C1838 C1837 1.398 . S
C1838 C1839 1.391 . S
C1839 H1827 0.950 . S
C1839 C1835 1.393 . S
C1839 C1838 1.391 . S
H1840 C1848 0.950 1_455 S
H1841 C1853 0.950 . S
H1842 C1850 0.950 . S
H1843 C1852 0.950 . S
H1844 C1854 0.950 1_655 S
H1845 C1856 0.950 . S
H1846 C1858 0.950 . S
H1847 C1859 0.950 . S
C1848 H1840 0.950 1_655 S
C1848 C1849 1.386 . S
C1848 C1850 1.391 1_655 S
C1849 C1848 1.386 . S
C1849 C1853 1.393 . S
C1850 H1842 0.950 . S
C1850 C1848 1.391 1_455 S
C1850 C1851 1.400 1_455 S
C1851 C1850 1.400 1_655 S
C1851 C1852 1.398 . S
C1851 C1857 1.491 1_655 S
C1852 H1843 0.950 . S
C1852 C1851 1.398 . S
C1852 C1853 1.391 . S
C1853 H1841 0.950 . S
C1853 C1849 1.393 . S
C1853 C1852 1.391 . S
C1854 H1844 0.950 1_455 S
C1854 C1855 1.386 . S
C1854 C1856 1.391 1_455 S
C1855 C1854 1.386 . S
C1855 C1859 1.393 . S
C1856 H1845 0.950 . S
C1856 C1854 1.391 1_655 S
C1856 C1857 1.400 1_655 S
C1857 C1851 1.491 1_455 S
C1857 C1856 1.400 1_455 S
C1857 C1858 1.398 . S
C1858 H1846 0.950 . S
C1858 C1857 1.398 . S
C1858 C1859 1.391 . S
C1859 H1847 0.950 . S
C1859 C1855 1.393 . S
C1859 C1858 1.391 . S
H1860 C1868 0.950 . S
H1861 C1873 0.950 . S
H1862 C1870 0.950 . S
H1863 C1872 0.950 . S
H1864 C1874 0.950 . S
H1865 C1876 0.950 . S
H1866 C1878 0.950 . S
H1867 C1879 0.950 . S
C1868 H1860 0.950 . S
C1868 C1869 1.386 . S
C1868 C1870 1.391 . S
C1869 C1868 1.386 . S
C1869 C1873 1.393 . S
C1870 H1862 0.950 . S
C1870 C1868 1.391 . S
C1870 C1871 1.400 . S
C1871 C1870 1.400 . S
C1871 C1872 1.398 . S
C1871 C1877 1.491 . S
C1872 H1863 0.950 . S
C1872 C1871 1.398 . S
C1872 C1873 1.391 . S
C1873 H1861 0.950 . S
C1873 C1869 1.393 . S
C1873 C1872 1.391 . S
C1874 H1864 0.950 . S
C1874 C1875 1.386 . S
C1874 C1876 1.391 . S
C1875 C1874 1.386 . S
C1875 C1879 1.393 . S
C1876 H1865 0.950 . S
C1876 C1874 1.391 . S
C1876 C1877 1.400 . S
C1877 C1871 1.491 . S
C1877 C1876 1.400 . S
C1877 C1878 1.398 . S
C1878 H1866 0.950 . S
C1878 C1877 1.398 . S
C1878 C1879 1.391 . S
C1879 H1867 0.950 . S
C1879 C1875 1.393 . S
C1879 C1878 1.391 . S
H1880 C1888 0.950 . S
H1881 C1893 0.950 . S
H1882 C1890 0.950 . S
H1883 C1892 0.950 . S
H1884 C1894 0.950 . S
H1885 C1896 0.950 . S
H1886 C1898 0.950 . S
H1887 C1899 0.950 . S
C1888 H1880 0.950 . S
C1888 C1889 1.386 . S
C1888 C1890 1.391 . S
C1889 C1888 1.386 . S
C1889 C1893 1.393 . S
C1890 H1882 0.950 . S
C1890 C1888 1.391 . S
C1890 C1891 1.400 . S
C1891 C1890 1.400 . S
C1891 C1892 1.398 . S
C1891 C1897 1.491 . S
C1892 H1883 0.950 . S
C1892 C1891 1.398 . S
C1892 C1893 1.391 . S
C1893 H1881 0.950 . S
C1893 C1889 1.393 . S
C1893 C1892 1.391 . S
C1894 H1884 0.950 . S
C1894 C1895 1.386 . S
C1894 C1896 1.391 . S
C1895 C1894 1.386 . S
C1895 C1899 1.393 . S
C1896 H1885 0.950 . S
C1896 C1894 1.391 . S
C1896 C1897 1.400 . S
C1897 C1891 1.491 . S
C1897 C1896 1.400 . S
C1897 C1898 1.398 . S
C1898 H1886 0.950 . S
C1898 C1897 1.398 . S
C1898 C1899 1.391 . S
C1899 H1887 0.950 . S
C1899 C1895 1.393 . S
C1899 C1898 1.391 . S
H1900 C1908 0.950 . S
H1901 C1913 0.950 . S
H1902 C1910 0.950 . S
H1903 C1912 0.950 . S
H1904 C1914 0.950 . S
H1905 C1916 0.950 . S
H1906 C1918 0.950 . S
H1907 C1919 0.950 . S
C1908 H1900 0.950 . S
C1908 C1909 1.386 . S
C1908 C1910 1.391 . S
C1909 C1908 1.386 . S
C1909 C1913 1.393 . S
C1910 H1902 0.950 . S
C1910 C1908 1.391 . S
C1910 C1911 1.400 . S
C1911 C1910 1.400 . S
C1911 C1912 1.398 . S
C1911 C1917 1.491 . S
C1912 H1903 0.950 . S
C1912 C1911 1.398 . S
C1912 C1913 1.391 . S
C1913 H1901 0.950 . S
C1913 C1909 1.393 . S
C1913 C1912 1.391 . S
C1914 H1904 0.950 . S
C1914 C1915 1.386 . S
C1914 C1916 1.391 . S
C1915 C1914 1.386 . S
C1915 C1919 1.393 . S
C1916 H1905 0.950 . S
C1916 C1914 1.391 . S
C1916 C1917 1.400 . S
C1917 C1911 1.491 . S
C1917 C1916 1.400 . S
C1917 C1918 1.398 . S
C1918 H1906 0.950 . S
C1918 C1917 1.398 . S
C1918 C1919 1.391 . S
C1919 H1907 0.950 . S
C1919 C1915 1.393 . S
C1919 C1918 1.391 . S
H1920 C1928 0.950 . S
H1921 C1933 0.950 . S
H1922 C1930 0.950 . S
H1923 C1932 0.950 . S
H1924 C1934 0.950 . S
H1925 C1936 0.950 . S
H1926 C1938 0.950 1_655 S
H1927 C1939 0.950 . S
C1928 H1920 0.950 . S
C1928 C1929 1.386 . S
C1928 C1930 1.391 . S
C1929 C1928 1.386 . S
C1929 C1933 1.393 1_655 S
C1930 H1922 0.950 . S
C1930 C1928 1.391 . S
C1930 C1931 1.400 1_655 S
C1931 C1930 1.400 1_455 S
C1931 C1932 1.398 . S
C1931 C1937 1.491 . S
C1932 H1923 0.950 . S
C1932 C1931 1.398 . S
C1932 C1933 1.391 . S
C1933 H1921 0.950 . S
C1933 C1929 1.393 1_455 S
C1933 C1932 1.391 . S
C1934 H1924 0.950 . S
C1934 C1935 1.386 . S
C1934 C1936 1.391 . S
C1935 C1934 1.386 . S
C1935 C1939 1.393 . S
C1936 H1925 0.950 . S
C1936 C1934 1.391 . S
C1936 C1937 1.400 . S
C1937 C1931 1.491 . S
C1937 C1936 1.400 . S
C1937 C1938 1.398 . S
C1938 H1926 0.950 1_455 S
C1938 C1937 1.398 . S
C1938 C1939 1.391 . S
C1939 H1927 0.950 . S
C1939 C1935 1.393 . S
C1939 C1938 1.391 . S
H1940 C1948 0.950 . S
H1941 C1953 0.950 . S
H1942 C1950 0.950 . S
H1943 C1952 0.950 . S
H1944 C1954 0.950 . S
H1945 C1956 0.950 . S
H1946 C1958 0.950 . S
H1947 C1959 0.950 . S
C1948 H1940 0.950 . S
C1948 C1949 1.386 . S
C1948 C1950 1.391 . S
C1949 C1948 1.386 . S
C1949 C1953 1.393 . S
C1950 H1942 0.950 . S
C1950 C1948 1.391 . S
C1950 C1951 1.400 . S
C1951 C1950 1.400 . S
C1951 C1952 1.398 . S
C1951 C1957 1.491 . S
C1952 H1943 0.950 . S
C1952 C1951 1.398 . S
C1952 C1953 1.391 . S
C1953 H1941 0.950 . S
C1953 C1949 1.393 . S
C1953 C1952 1.391 . S
C1954 H1944 0.950 . S
C1954 C1955 1.386 . S
C1954 C1956 1.391 . S
C1955 C1954 1.386 . S
C1955 C1959 1.393 . S
C1956 H1945 0.950 . S
C1956 C1954 1.391 . S
C1956 C1957 1.400 . S
C1957 C1951 1.491 . S
C1957 C1956 1.400 . S
C1957 C1958 1.398 . S
C1958 H1946 0.950 . S
C1958 C1957 1.398 . S
C1958 C1959 1.391 . S
C1959 H1947 0.950 . S
C1959 C1955 1.393 . S
C1959 C1958 1.391 . S
H1960 C1968 0.950 . S
H1961 C1973 0.950 . S
H1962 C1970 0.950 . S
H1963 C1972 0.950 . S
H1964 C1974 0.950 . S
H1965 C1976 0.950 . S
H1966 C1978 0.950 . S
H1967 C1979 0.950 . S
C1968 H1960 0.950 . S
C1968 C1969 1.386 . S
C1968 C1970 1.391 . S
C1969 C1968 1.386 . S
C1969 C1973 1.393 . S
C1970 H1962 0.950 . S
C1970 C1968 1.391 . S
C1970 C1971 1.400 . S
C1971 C1970 1.400 . S
C1971 C1972 1.398 . S
C1971 C1977 1.491 . S
C1972 H1963 0.950 . S
C1972 C1971 1.398 . S
C1972 C1973 1.391 . S
C1973 H1961 0.950 . S
C1973 C1969 1.393 . S
C1973 C1972 1.391 . S
C1974 H1964 0.950 . S
C1974 C1975 1.386 . S
C1974 C1976 1.391 . S
C1975 C1974 1.386 . S
C1975 C1979 1.393 . S
C1976 H1965 0.950 . S
C1976 C1974 1.391 . S
C1976 C1977 1.400 . S
C1977 C1971 1.491 . S
C1977 C1976 1.400 . S
C1977 C1978 1.398 . S
C1978 H1966 0.950 . S
C1978 C1977 1.398 . S
C1978 C1979 1.391 . S
C1979 H1967 0.950 . S
C1979 C1975 1.393 . S
C1979 C1978 1.391 . S
H1980 C1988 0.950 . S
H1981 C1993 0.950 . S
H1982 C1990 0.950 . S
H1983 C1992 0.950 . S
H1984 C1994 0.950 . S
H1985 C1996 0.950 . S
H1986 C1998 0.950 . S
H1987 C1999 0.950 . S
C1988 H1980 0.950 . S
C1988 C1989 1.386 . S
C1988 C1990 1.391 . S
C1989 C1988 1.386 . S
C1989 C1993 1.393 . S
C1990 H1982 0.950 . S
C1990 C1988 1.391 . S
C1990 C1991 1.400 . S
C1991 C1990 1.400 . S
C1991 C1992 1.398 . S
C1991 C1997 1.491 . S
C1992 H1983 0.950 . S
C1992 C1991 1.398 . S
C1992 C1993 1.391 . S
C1993 H1981 0.950 . S
C1993 C1989 1.393 . S
C1993 C1992 1.391 . S
C1994 H1984 0.950 . S
C1994 C1995 1.386 . S
C1994 C1996 1.391 . S
C1995 C1994 1.386 . S
C1995 C1999 1.393 . S
C1996 H1985 0.950 . S
C1996 C1994 1.391 . S
C1996 C1997 1.400 . S
C1997 C1991 1.491 . S
C1997 C1996 1.400 . S
C1997 C1998 1.398 . S
C1998 H1986 0.950 . S
C1998 C1997 1.398 . S
C1998 C1999 1.391 . S
C1999 H1987 0.950 . S
C1999 C1995 1.393 . S
C1999 C1998 1.391 . S
H2000 C2008 0.950 . S
H2001 C2013 0.950 . S
H2002 C2010 0.950 . S
H2003 C2012 0.950 . S
H2004 C2014 0.950 . S
H2005 C2016 0.950 . S
H2006 C2018 0.950 1_556 S
H2007 C2019 0.959 1_556 S
C2008 H2000 0.950 . S
C2008 C2009 1.386 1_556 S
C2008 C2010 1.391 . S
C2009 C2008 1.386 1_554 S
C2009 C2013 1.393 . S
C2010 H2002 0.950 . S
C2010 C2008 1.391 . S
C2010 C2011 1.400 1_556 S
C2011 C2010 1.400 1_554 S
C2011 C2012 1.398 . S
C2011 C2017 1.491 . S
C2012 H2003 0.950 . S
C2012 C2011 1.398 . S
C2012 C2013 1.391 . S
C2013 H2001 0.950 . S
C2013 C2009 1.393 . S
C2013 C2012 1.391 . S
C2014 H2004 0.950 . S
C2014 C2015 1.386 . S
C2014 C2016 1.391 1_545 S
C2015 C2014 1.386 . S
C2015 C2019 1.399 . S
C2016 H2005 0.950 . S
C2016 C2014 1.391 1_565 S
C2016 C2017 1.400 . S
C2017 C2011 1.491 . S
C2017 C2016 1.400 . S
C2017 C2018 1.398 . S
C2018 H2006 0.950 1_554 S
C2018 C2017 1.398 . S
C2018 C2019 1.376 1_565 S
C2019 H2007 0.959 1_554 S
C2019 C2015 1.399 . S
C2019 C2018 1.376 1_545 S
H2020 C2028 0.950 . S
H2021 C2033 0.950 . S
H2022 C2030 0.950 . S
H2023 C2032 0.950 . S
H2024 C2034 0.950 . S
H2025 C2036 0.950 . S
H2026 C2038 0.950 . S
H2027 C2039 0.950 . S
C2028 H2020 0.950 . S
C2028 C2029 1.386 . S
C2028 C2030 1.391 . S
C2029 C2028 1.386 . S
C2029 C2033 1.393 1_556 S
C2030 H2022 0.950 . S
C2030 C2028 1.391 . S
C2030 C2031 1.400 . S
C2031 C2030 1.400 . S
C2031 C2032 1.398 1_556 S
C2031 C2037 1.491 . S
C2032 H2023 0.950 . S
C2032 C2031 1.398 1_554 S
C2032 C2033 1.391 . S
C2033 H2021 0.950 . S
C2033 C2029 1.393 1_554 S
C2033 C2032 1.391 . S
C2034 H2024 0.950 . S
C2034 C2035 1.386 1_554 S
C2034 C2036 1.391 . S
C2035 C2034 1.386 1_556 S
C2035 C2039 1.393 . S
C2036 H2025 0.950 . S
C2036 C2034 1.391 . S
C2036 C2037 1.400 1_554 S
C2037 C2031 1.491 . S
C2037 C2036 1.400 1_556 S
C2037 C2038 1.398 . S
C2038 H2026 0.950 . S
C2038 C2037 1.398 . S
C2038 C2039 1.391 . S
C2039 H2027 0.950 . S
C2039 C2035 1.393 . S
C2039 C2038 1.391 . S
H2040 C2048 0.950 . S
H2041 C2053 0.950 . S
H2042 C2050 0.950 . S
H2043 C2052 0.950 . S
H2044 C2054 0.950 . S
H2045 C2056 0.950 . S
H2046 C2058 0.950 . S
H2047 C2059 0.950 . S
C2048 H2040 0.950 . S
C2048 C2049 1.386 . S
C2048 C2050 1.391 . S
C2049 C2048 1.386 . S
C2049 C2053 1.393 . S
C2050 H2042 0.950 . S
C2050 C2048 1.391 . S
C2050 C2051 1.400 . S
C2051 C2050 1.400 . S
C2051 C2052 1.398 . S
C2051 C2057 1.491 . S
C2052 H2043 0.950 . S
C2052 C2051 1.398 . S
C2052 C2053 1.391 . S
C2053 H2041 0.950 . S
C2053 C2049 1.393 . S
C2053 C2052 1.391 . S
C2054 H2044 0.950 . S
C2054 C2055 1.386 . S
C2054 C2056 1.391 . S
C2055 C2054 1.386 . S
C2055 C2059 1.393 . S
C2056 H2045 0.950 . S
C2056 C2054 1.391 . S
C2056 C2057 1.400 . S
C2057 C2051 1.491 . S
C2057 C2056 1.400 . S
C2057 C2058 1.398 . S
C2058 H2046 0.950 . S
C2058 C2057 1.398 . S
C2058 C2059 1.391 . S
C2059 H2047 0.950 . S
C2059 C2055 1.393 . S
C2059 C2058 1.391 . S
H2060 C2068 0.950 . S
H2061 C2073 0.950 . S
H2062 C2070 0.950 . S
H2063 C2072 0.950 . S
H2064 C2074 0.950 . S
H2065 C2076 0.950 . S
H2066 C2078 0.950 . S
H2067 C2079 0.938 1_455 S
C2068 H2060 0.950 . S
C2068 C2069 1.386 . S
C2068 C2070 1.391 . S
C2069 C2068 1.386 . S
C2069 C2073 1.393 . S
C2070 H2062 0.950 . S
C2070 C2068 1.391 . S
C2070 C2071 1.400 . S
C2071 C2070 1.400 . S
C2071 C2072 1.398 . S
C2071 C2077 1.491 . S
C2072 H2063 0.950 . S
C2072 C2071 1.398 . S
C2072 C2073 1.391 . S
C2073 H2061 0.950 . S
C2073 C2069 1.393 . S
C2073 C2072 1.391 . S
C2074 H2064 0.950 . S
C2074 C2075 1.386 1_655 S
C2074 C2076 1.391 . S
C2075 C2074 1.386 1_455 S
C2075 C2079 1.392 1_455 S
C2076 H2065 0.950 . S
C2076 C2074 1.391 . S
C2076 C2077 1.400 . S
C2077 C2071 1.491 . S
C2077 C2076 1.400 . S
C2077 C2078 1.398 . S
C2078 H2066 0.950 . S
C2078 C2077 1.398 . S
C2078 C2079 1.404 . S
C2079 H2067 0.938 1_655 S
C2079 C2075 1.392 1_655 S
C2079 C2078 1.404 . S
H2080 C2088 0.950 . S
H2081 C2093 0.950 . S
H2082 C2090 0.950 . S
H2083 C2092 0.950 . S
H2084 C2094 0.950 . S
H2085 C2096 0.950 . S
H2086 C2098 0.950 . S
H2087 C2099 0.950 . S
C2088 H2080 0.950 . S
C2088 C2089 1.386 . S
C2088 C2090 1.391 . S
C2089 C2088 1.386 . S
C2089 C2093 1.393 . S
C2090 H2082 0.950 . S
C2090 C2088 1.391 . S
C2090 C2091 1.400 . S
C2091 C2090 1.400 . S
C2091 C2092 1.398 . S
C2091 C2097 1.491 . S
C2092 H2083 0.950 . S
C2092 C2091 1.398 . S
C2092 C2093 1.391 . S
C2093 H2081 0.950 . S
C2093 C2089 1.393 . S
C2093 C2092 1.391 . S
C2094 H2084 0.950 . S
C2094 C2095 1.386 . S
C2094 C2096 1.391 . S
C2095 C2094 1.386 . S
C2095 C2099 1.393 . S
C2096 H2085 0.950 . S
C2096 C2094 1.391 . S
C2096 C2097 1.400 . S
C2097 C2091 1.491 . S
C2097 C2096 1.400 . S
C2097 C2098 1.398 . S
C2098 H2086 0.950 . S
C2098 C2097 1.398 . S
C2098 C2099 1.391 . S
C2099 H2087 0.950 . S
C2099 C2095 1.393 . S
C2099 C2098 1.391 . S
H2100 C2108 0.950 . S
H2101 C2113 0.950 . S
H2102 C2110 0.950 . S
H2103 C2112 0.950 . S
H2104 C2114 0.950 . S
H2105 C2116 0.950 . S
H2106 C2118 0.950 . S
H2107 C2119 0.950 . S
C2108 H2100 0.950 . S
C2108 C2109 1.386 . S
C2108 C2110 1.391 . S
C2109 C2108 1.386 . S
C2109 C2113 1.393 . S
C2110 H2102 0.950 . S
C2110 C2108 1.391 . S
C2110 C2111 1.400 . S
C2111 C2110 1.400 . S
C2111 C2112 1.398 . S
C2111 C2117 1.491 . S
C2112 H2103 0.950 . S
C2112 C2111 1.398 . S
C2112 C2113 1.391 . S
C2113 H2101 0.950 . S
C2113 C2109 1.393 . S
C2113 C2112 1.391 . S
C2114 H2104 0.950 . S
C2114 C2115 1.386 . S
C2114 C2116 1.391 . S
C2115 C2114 1.386 . S
C2115 C2119 1.393 . S
C2116 H2105 0.950 . S
C2116 C2114 1.391 . S
C2116 C2117 1.400 . S
C2117 C2111 1.491 . S
C2117 C2116 1.400 . S
C2117 C2118 1.398 . S
C2118 H2106 0.950 . S
C2118 C2117 1.398 . S
C2118 C2119 1.391 . S
C2119 H2107 0.950 . S
C2119 C2115 1.393 . S
C2119 C2118 1.391 . S
H2120 C2128 0.950 . S
H2121 C2133 0.950 . S
H2122 C2130 0.950 . S
H2123 C2132 0.950 . S
H2124 C2134 0.950 . S
H2125 C2136 0.950 . S
H2126 C2138 0.950 . S
H2127 C2139 0.950 . S
C2128 H2120 0.950 . S
C2128 C2129 1.386 . S
C2128 C2130 1.391 . S
C2129 C2128 1.386 . S
C2129 C2133 1.393 . S
C2130 H2122 0.950 . S
C2130 C2128 1.391 . S
C2130 C2131 1.400 . S
C2131 C2130 1.400 . S
C2131 C2132 1.398 . S
C2131 C2137 1.491 . S
C2132 H2123 0.950 . S
C2132 C2131 1.398 . S
C2132 C2133 1.391 . S
C2133 H2121 0.950 . S
C2133 C2129 1.393 . S
C2133 C2132 1.391 . S
C2134 H2124 0.950 . S
C2134 C2135 1.386 . S
C2134 C2136 1.391 . S
C2135 C2134 1.386 . S
C2135 C2139 1.393 . S
C2136 H2125 0.950 . S
C2136 C2134 1.391 . S
C2136 C2137 1.400 . S
C2137 C2131 1.491 . S
C2137 C2136 1.400 . S
C2137 C2138 1.398 . S
C2138 H2126 0.950 . S
C2138 C2137 1.398 . S
C2138 C2139 1.391 . S
C2139 H2127 0.950 . S
C2139 C2135 1.393 . S
C2139 C2138 1.391 . S
H2140 C2148 0.950 . S
H2141 C2153 0.950 . S
H2142 C2150 0.950 . S
H2143 C2152 0.950 . S
H2144 C2154 0.950 . S
H2145 C2156 0.950 . S
H2146 C2158 0.950 . S
H2147 C2159 0.950 . S
C2148 H2140 0.950 . S
C2148 C2149 1.386 . S
C2148 C2150 1.391 . S
C2149 C2148 1.386 . S
C2149 C2153 1.393 . S
C2150 H2142 0.950 . S
C2150 C2148 1.391 . S
C2150 C2151 1.400 . S
C2151 C2150 1.400 . S
C2151 C2152 1.398 . S
C2151 C2157 1.491 . S
C2152 H2143 0.950 . S
C2152 C2151 1.398 . S
C2152 C2153 1.391 . S
C2153 H2141 0.950 . S
C2153 C2149 1.393 . S
C2153 C2152 1.391 . S
C2154 H2144 0.950 . S
C2154 C2155 1.386 . S
C2154 C2156 1.391 . S
C2155 C2154 1.386 . S
C2155 C2159 1.393 . S
C2156 H2145 0.950 . S
C2156 C2154 1.391 . S
C2156 C2157 1.400 . S
C2157 C2151 1.491 . S
C2157 C2156 1.400 . S
C2157 C2158 1.398 . S
C2158 H2146 0.950 . S
C2158 C2157 1.398 . S
C2158 C2159 1.391 . S
C2159 H2147 0.950 . S
C2159 C2155 1.393 . S
C2159 C2158 1.391 . S
H2160 C2168 0.950 . S
H2161 C2173 0.950 . S
H2162 C2170 0.950 . S
H2163 C2172 0.950 . S
H2164 C2174 0.950 . S
H2165 C2176 0.950 . S
H2166 C2178 0.950 . S
H2167 C2179 0.954 1_556 S
C2168 H2160 0.950 . S
C2168 C2169 1.386 . S
C2168 C2170 1.391 . S
C2169 C2168 1.386 . S
C2169 C2173 1.393 . S
C2170 H2162 0.950 . S
C2170 C2168 1.391 . S
C2170 C2171 1.400 . S
C2171 C2170 1.400 . S
C2171 C2172 1.398 . S
C2171 C2177 1.491 . S
C2172 H2163 0.950 . S
C2172 C2171 1.398 . S
C2172 C2173 1.391 . S
C2173 H2161 0.950 . S
C2173 C2169 1.393 . S
C2173 C2172 1.391 . S
C2174 H2164 0.950 . S
C2174 C2175 1.386 . S
C2174 C2176 1.391 . S
C2175 C2174 1.386 . S
C2175 C2179 1.393 . S
C2176 H2165 0.950 . S
C2176 C2174 1.391 . S
C2176 C2177 1.400 . S
C2177 C2171 1.491 . S
C2177 C2176 1.400 . S
C2177 C2178 1.398 . S
C2178 H2166 0.950 . S
C2178 C2177 1.398 . S
C2178 C2179 1.391 . S
C2179 H2167 0.954 1_554 S
C2179 C2175 1.393 . S
C2179 C2178 1.391 . S
H2180 C2188 0.950 . S
H2181 C2193 0.950 . S
H2182 C2190 0.950 . S
H2183 C2192 0.950 . S
H2184 C2194 0.950 . S
H2185 C2196 0.950 . S
H2186 C2198 0.950 . S
H2187 C2199 0.950 . S
C2188 H2180 0.950 . S
C2188 C2189 1.386 . S
C2188 C2190 1.391 . S
C2189 C2188 1.386 . S
C2189 C2193 1.393 . S
C2190 H2182 0.950 . S
C2190 C2188 1.391 . S
C2190 C2191 1.400 . S
C2191 C2190 1.400 . S
C2191 C2192 1.398 . S
C2191 C2197 1.491 . S
C2192 H2183 0.950 . S
C2192 C2191 1.398 . S
C2192 C2193 1.391 . S
C2193 H2181 0.950 . S
C2193 C2189 1.393 . S
C2193 C2192 1.391 . S
C2194 H2184 0.950 . S
C2194 C2195 1.386 . S
C2194 C2196 1.391 . S
C2195 C2194 1.386 . S
C2195 C2199 1.393 . S
C2196 H2185 0.950 . S
C2196 C2194 1.391 . S
C2196 C2197 1.400 . S
C2197 C2191 1.491 . S
C2197 C2196 1.400 . S
C2197 C2198 1.398 . S
C2198 H2186 0.950 . S
C2198 C2197 1.398 . S
C2198 C2199 1.391 . S
C2199 H2187 0.950 . S
C2199 C2195 1.393 . S
C2199 C2198 1.391 . S
H2200 C2208 0.950 . S
H2201 C2213 0.950 . S
H2202 C2210 0.950 . S
H2203 C2212 0.950 . S
H2204 C2214 0.950 . S
H2205 C2216 0.950 . S
H2206 C2218 0.950 . S
H2207 C2219 0.950 . S
C2208 H2200 0.950 . S
C2208 C2209 1.386 . S
C2208 C2210 1.391 . S
C2209 C2208 1.386 . S
C2209 C2213 1.393 . S
C2210 H2202 0.950 . S
C2210 C2208 1.391 . S
C2210 C2211 1.400 . S
C2211 C2210 1.400 . S
C2211 C2212 1.398 . S
C2211 C2217 1.491 . S
C2212 H2203 0.950 . S
C2212 C2211 1.398 . S
C2212 C2213 1.391 . S
C2213 H2201 0.950 . S
C2213 C2209 1.393 . S
C2213 C2212 1.391 . S
C2214 H2204 0.950 . S
C2214 C2215 1.386 . S
C2214 C2216 1.391 . S
C2215 C2214 1.386 . S
C2215 C2219 1.393 . S
C2216 H2205 0.950 . S
C2216 C2214 1.391 . S
C2216 C2217 1.400 . S
C2217 C2211 1.491 . S
C2217 C2216 1.400 . S
C2217 C2218 1.398 . S
C2218 H2206 0.950 . S
C2218 C2217 1.398 . S
C2218 C2219 1.391 . S
C2219 H2207 0.950 . S
C2219 C2215 1.393 . S
C2219 C2218 1.391 . S
H2220 C2228 0.950 . S
H2221 C2233 0.950 . S
H2222 C2230 0.950 . S
H2223 C2232 0.950 . S
H2224 C2234 0.950 . S
H2225 C2236 0.950 . S
H2226 C2238 0.950 . S
H2227 C2239 0.950 . S
C2228 H2220 0.950 . S
C2228 C2229 1.386 . S
C2228 C2230 1.391 . S
C2229 C2228 1.386 . S
C2229 C2233 1.393 . S
C2230 H2222 0.950 . S
C2230 C2228 1.391 . S
C2230 C2231 1.400 . S
C2231 C2230 1.400 . S
C2231 C2232 1.398 . S
C2231 C2237 1.491 . S
C2232 H2223 0.950 . S
C2232 C2231 1.398 . S
C2232 C2233 1.391 . S
C2233 H2221 0.950 . S
C2233 C2229 1.393 . S
C2233 C2232 1.391 . S
C2234 H2224 0.950 . S
C2234 C2235 1.386 . S
C2234 C2236 1.391 . S
C2235 C2234 1.386 . S
C2235 C2239 1.393 . S
C2236 H2225 0.950 . S
C2236 C2234 1.391 . S
C2236 C2237 1.400 . S
C2237 C2231 1.491 . S
C2237 C2236 1.400 . S
C2237 C2238 1.398 . S
C2238 H2226 0.950 . S
C2238 C2237 1.398 . S
C2238 C2239 1.391 . S
C2239 H2227 0.950 . S
C2239 C2235 1.393 . S
C2239 C2238 1.391 . S
H2240 C2248 0.950 . S
H2241 C2253 0.950 . S
H2242 C2250 0.950 . S
H2243 C2252 0.950 . S
H2244 C2254 0.950 . S
H2245 C2256 0.950 . S
H2246 C2258 0.950 . S
H2247 C2259 0.950 . S
C2248 H2240 0.950 . S
C2248 C2249 1.386 . S
C2248 C2250 1.391 . S
C2249 C2248 1.386 . S
C2249 C2253 1.393 . S
C2250 H2242 0.950 . S
C2250 C2248 1.391 . S
C2250 C2251 1.400 . S
C2251 C2250 1.400 . S
C2251 C2252 1.398 . S
C2251 C2257 1.491 . S
C2252 H2243 0.950 . S
C2252 C2251 1.398 . S
C2252 C2253 1.391 . S
C2253 H2241 0.950 . S
C2253 C2249 1.393 . S
C2253 C2252 1.391 . S
C2254 H2244 0.950 . S
C2254 C2255 1.386 . S
C2254 C2256 1.391 . S
C2255 C2254 1.386 . S
C2255 C2259 1.393 . S
C2256 H2245 0.950 . S
C2256 C2254 1.391 . S
C2256 C2257 1.400 . S
C2257 C2251 1.491 . S
C2257 C2256 1.400 . S
C2257 C2258 1.398 . S
C2258 H2246 0.950 . S
C2258 C2257 1.398 . S
C2258 C2259 1.391 . S
C2259 H2247 0.950 . S
C2259 C2255 1.393 . S
C2259 C2258 1.391 . S
H2260 C2268 0.950 . S
H2261 C2273 0.950 . S
H2262 C2270 0.950 . S
H2263 C2272 0.950 . S
H2264 C2274 0.950 . S
H2265 C2276 0.950 . S
H2266 C2278 0.950 . S
H2267 C2279 0.950 . S
C2268 H2260 0.950 . S
C2268 C2269 1.386 . S
C2268 C2270 1.391 . S
C2269 C2268 1.386 . S
C2269 C2273 1.393 . S
C2270 H2262 0.950 . S
C2270 C2268 1.391 . S
C2270 C2271 1.400 . S
C2271 C2270 1.400 . S
C2271 C2272 1.398 . S
C2271 C2277 1.491 . S
C2272 H2263 0.950 . S
C2272 C2271 1.398 . S
C2272 C2273 1.391 . S
C2273 H2261 0.950 . S
C2273 C2269 1.393 . S
C2273 C2272 1.391 . S
C2274 H2264 0.950 . S
C2274 C2275 1.386 . S
C2274 C2276 1.391 . S
C2275 C2274 1.386 . S
C2275 C2279 1.393 . S
C2276 H2265 0.950 . S
C2276 C2274 1.391 . S
C2276 C2277 1.400 . S
C2277 C2271 1.491 . S
C2277 C2276 1.400 . S
C2277 C2278 1.398 . S
C2278 H2266 0.950 . S
C2278 C2277 1.398 . S
C2278 C2279 1.391 . S
C2279 H2267 0.950 . S
C2279 C2275 1.393 . S
C2279 C2278 1.391 . S
H2280 C2288 0.950 . S
H2281 C2293 0.950 . S
H2282 C2290 0.950 . S
H2283 C2292 0.950 . S
H2284 C2294 0.950 . S
H2285 C2296 0.950 . S
H2286 C2298 0.950 . S
H2287 C2299 0.950 1_554 S
C2288 H2280 0.950 . S
C2288 C2289 1.386 . S
C2288 C2290 1.391 . S
C2289 C2288 1.386 . S
C2289 C2293 1.393 . S
C2290 H2282 0.950 . S
C2290 C2288 1.391 . S
C2290 C2291 1.400 . S
C2291 C2290 1.400 . S
C2291 C2292 1.398 . S
C2291 C2297 1.491 . S
C2292 H2283 0.950 . S
C2292 C2291 1.398 . S
C2292 C2293 1.391 . S
C2293 H2281 0.950 . S
C2293 C2289 1.393 . S
C2293 C2292 1.391 . S
C2294 H2284 0.950 . S
C2294 C2295 1.386 . S
C2294 C2296 1.391 . S
C2295 C2294 1.386 . S
C2295 C2299 1.393 . S
C2296 H2285 0.950 . S
C2296 C2294 1.391 . S
C2296 C2297 1.400 . S
C2297 C2291 1.491 . S
C2297 C2296 1.400 . S
C2297 C2298 1.398 . S
C2298 H2286 0.950 . S
C2298 C2297 1.398 . S
C2298 C2299 1.391 . S
C2299 H2287 0.950 1_556 S
C2299 C2295 1.393 . S
C2299 C2298 1.391 . S
H2300 C2308 0.950 . S
H2301 C2313 0.950 . S
H2302 C2310 0.950 . S
H2303 C2312 0.950 . S
H2304 C2314 0.950 . S
H2305 C2316 0.950 . S
H2306 C2318 0.950 . S
H2307 C2319 0.950 . S
C2308 H2300 0.950 . S
C2308 C2309 1.386 . S
C2308 C2310 1.391 . S
C2309 C2308 1.386 . S
C2309 C2313 1.393 . S
C2310 H2302 0.950 . S
C2310 C2308 1.391 . S
C2310 C2311 1.400 . S
C2311 C2310 1.400 . S
C2311 C2312 1.398 . S
C2311 C2317 1.491 . S
C2312 H2303 0.950 . S
C2312 C2311 1.398 . S
C2312 C2313 1.391 . S
C2313 H2301 0.950 . S
C2313 C2309 1.393 . S
C2313 C2312 1.391 . S
C2314 H2304 0.950 . S
C2314 C2315 1.386 . S
C2314 C2316 1.391 . S
C2315 C2314 1.386 . S
C2315 C2319 1.393 . S
C2316 H2305 0.950 . S
C2316 C2314 1.391 . S
C2316 C2317 1.400 . S
C2317 C2311 1.491 . S
C2317 C2316 1.400 . S
C2317 C2318 1.398 . S
C2318 H2306 0.950 . S
C2318 C2317 1.398 . S
C2318 C2319 1.391 . S
C2319 H2307 0.950 . S
C2319 C2315 1.393 . S
C2319 C2318 1.391 . S
H2320 C2328 0.950 . S
H2321 C2333 0.950 . S
H2322 C2330 0.950 . S
H2323 C2332 0.950 . S
H2324 C2334 0.950 . S
H2325 C2336 0.950 . S
H2326 C2338 0.950 . S
H2327 C2339 0.950 . S
C2328 H2320 0.950 . S
C2328 C2329 1.386 . S
C2328 C2330 1.391 . S
C2329 C2328 1.386 . S
C2329 C2333 1.393 1_545 S
C2330 H2322 0.950 . S
C2330 C2328 1.391 . S
C2330 C2331 1.400 . S
C2331 C2330 1.400 . S
C2331 C2332 1.398 1_545 S
C2331 C2337 1.491 . S
C2332 H2323 0.950 . S
C2332 C2331 1.398 1_565 S
C2332 C2333 1.391 . S
C2333 H2321 0.950 . S
C2333 C2329 1.393 1_565 S
C2333 C2332 1.391 . S
C2334 H2324 0.950 . S
C2334 C2335 1.386 1_565 S
C2334 C2336 1.391 . S
C2335 C2334 1.386 1_545 S
C2335 C2339 1.393 . S
C2336 H2325 0.950 . S
C2336 C2334 1.391 . S
C2336 C2337 1.400 1_565 S
C2337 C2331 1.491 . S
C2337 C2336 1.400 1_545 S
C2337 C2338 1.398 . S
C2338 H2326 0.950 . S
C2338 C2337 1.398 . S
C2338 C2339 1.391 . S
C2339 H2327 0.950 . S
C2339 C2335 1.393 . S
C2339 C2338 1.391 . S
H2340 C2348 0.950 . S
H2341 C2353 0.950 . S
H2342 C2350 0.950 . S
H2343 C2352 0.950 . S
H2344 C2354 0.950 . S
H2345 C2356 0.950 . S
H2346 C2358 0.950 . S
H2347 C2359 0.950 . S
C2348 H2340 0.950 . S
C2348 C2349 1.386 . S
C2348 C2350 1.391 . S
C2349 C2348 1.386 . S
C2349 C2353 1.393 . S
C2350 H2342 0.950 . S
C2350 C2348 1.391 . S
C2350 C2351 1.400 . S
C2351 C2350 1.400 . S
C2351 C2352 1.398 . S
C2351 C2357 1.491 . S
C2352 H2343 0.950 . S
C2352 C2351 1.398 . S
C2352 C2353 1.391 . S
C2353 H2341 0.950 . S
C2353 C2349 1.393 . S
C2353 C2352 1.391 . S
C2354 H2344 0.950 . S
C2354 C2355 1.386 . S
C2354 C2356 1.391 . S
C2355 C2354 1.386 . S
C2355 C2359 1.393 . S
C2356 H2345 0.950 . S
C2356 C2354 1.391 . S
C2356 C2357 1.400 . S
C2357 C2351 1.491 . S
C2357 C2356 1.400 . S
C2357 C2358 1.398 . S
C2358 H2346 0.950 . S
C2358 C2357 1.398 . S
C2358 C2359 1.391 . S
C2359 H2347 0.950 . S
C2359 C2355 1.393 . S
C2359 C2358 1.391 . S
H2360 C2368 0.950 1_565 S
H2361 C2373 0.950 . S
H2362 C2370 0.950 1_565 S
H2363 C2372 0.950 . S
H2364 C2374 0.950 . S
H2365 C2376 0.950 . S
H2366 C2378 0.950 1_565 S
H2367 C2379 0.950 . S
C2368 H2360 0.950 1_545 S
C2368 C2369 1.386 . S
C2368 C2370 1.391 . S
C2369 C2368 1.386 . S
C2369 C2373 1.393 . S
C2370 H2362 0.950 1_545 S
C2370 C2368 1.391 . S
C2370 C2371 1.400 . S
C2371 C2370 1.400 . S
C2371 C2372 1.398 . S
C2371 C2377 1.491 . S
C2372 H2363 0.950 . S
C2372 C2371 1.398 . S
C2372 C2373 1.391 . S
C2373 H2361 0.950 . S
C2373 C2369 1.393 . S
C2373 C2372 1.391 . S
C2374 H2364 0.950 . S
C2374 C2375 1.386 . S
C2374 C2376 1.391 . S
C2375 C2374 1.386 . S
C2375 C2379 1.393 . S
C2376 H2365 0.950 . S
C2376 C2374 1.391 . S
C2376 C2377 1.400 . S
C2377 C2371 1.491 . S
C2377 C2376 1.400 . S
C2377 C2378 1.398 . S
C2378 H2366 0.950 1_545 S
C2378 C2377 1.398 . S
C2378 C2379 1.391 . S
C2379 H2367 0.950 . S
C2379 C2375 1.393 . S
C2379 C2378 1.391 . S
H2380 C2388 0.950 . S
H2381 C2393 0.950 . S
H2382 C2390 0.950 . S
H2383 C2392 0.950 . S
H2384 C2394 0.950 . S
H2385 C2396 0.950 . S
H2386 C2398 0.950 . S
H2387 C2399 0.950 . S
C2388 H2380 0.950 . S
C2388 C2389 1.386 . S
C2388 C2390 1.391 . S
C2389 C2388 1.386 . S
C2389 C2393 1.393 . S
C2390 H2382 0.950 . S
C2390 C2388 1.391 . S
C2390 C2391 1.400 . S
C2391 C2390 1.400 . S
C2391 C2392 1.398 . S
C2391 C2397 1.491 . S
C2392 H2383 0.950 . S
C2392 C2391 1.398 . S
C2392 C2393 1.391 . S
C2393 H2381 0.950 . S
C2393 C2389 1.393 . S
C2393 C2392 1.391 . S
C2394 H2384 0.950 . S
C2394 C2395 1.386 . S
C2394 C2396 1.391 . S
C2395 C2394 1.386 . S
C2395 C2399 1.393 . S
C2396 H2385 0.950 . S
C2396 C2394 1.391 . S
C2396 C2397 1.400 . S
C2397 C2391 1.491 . S
C2397 C2396 1.400 . S
C2397 C2398 1.398 . S
C2398 H2386 0.950 . S
C2398 C2397 1.398 . S
C2398 C2399 1.391 . S
C2399 H2387 0.950 . S
C2399 C2395 1.393 . S
C2399 C2398 1.391 . S
H2400 C2408 0.950 . S
H2401 C2413 0.950 . S
H2402 C2410 0.950 . S
H2403 C2412 0.950 . S
H2404 C2414 0.950 . S
H2405 C2416 0.950 . S
H2406 C2418 0.968 . S
H2407 C2419 0.950 1_565 S
C2408 H2400 0.950 . S
C2408 C2409 1.386 . S
C2408 C2410 1.391 . S
C2409 C2408 1.386 . S
C2409 C2413 1.393 1_565 S
C2410 H2402 0.950 . S
C2410 C2408 1.391 . S
C2410 C2411 1.400 1_565 S
C2411 C2410 1.400 1_545 S
C2411 C2412 1.398 . S
C2411 C2417 1.491 . S
C2412 H2403 0.950 . S
C2412 C2411 1.398 . S
C2412 C2413 1.391 . S
C2413 H2401 0.950 . S
C2413 C2409 1.393 1_545 S
C2413 C2412 1.391 . S
C2414 H2404 0.950 . S
C2414 C2415 1.386 . S
C2414 C2416 1.391 . S
C2415 C2414 1.386 . S
C2415 C2419 1.393 . S
C2416 H2405 0.950 . S
C2416 C2414 1.391 . S
C2416 C2417 1.400 . S
C2417 C2411 1.491 . S
C2417 C2416 1.400 . S
C2417 C2418 1.393 1_545 S
C2418 H2406 0.968 . S
C2418 C2417 1.393 1_565 S
C2418 C2419 1.379 1_565 S
C2419 H2407 0.950 1_545 S
C2419 C2415 1.393 . S
C2419 C2418 1.379 1_545 S
H2420 C2428 0.950 . S
H2421 C2433 0.950 . S
H2422 C2430 0.950 . S
H2423 C2432 0.950 . S
H2424 C2434 0.950 . S
H2425 C2436 0.950 . S
H2426 C2438 0.950 . S
H2427 C2439 0.950 . S
C2428 H2420 0.950 . S
C2428 C2429 1.386 . S
C2428 C2430 1.391 . S
C2429 C2428 1.386 . S
C2429 C2433 1.393 . S
C2430 H2422 0.950 . S
C2430 C2428 1.391 . S
C2430 C2431 1.400 . S
C2431 C2430 1.400 . S
C2431 C2432 1.398 . S
C2431 C2437 1.491 . S
C2432 H2423 0.950 . S
C2432 C2431 1.398 . S
C2432 C2433 1.391 . S
C2433 H2421 0.950 . S
C2433 C2429 1.393 . S
C2433 C2432 1.391 . S
C2434 H2424 0.950 . S
C2434 C2435 1.386 . S
C2434 C2436 1.391 . S
C2435 C2434 1.386 . S
C2435 C2439 1.393 . S
C2436 H2425 0.950 . S
C2436 C2434 1.391 . S
C2436 C2437 1.400 . S
C2437 C2431 1.491 . S
C2437 C2436 1.400 . S
C2437 C2438 1.398 . S
C2438 H2426 0.950 . S
C2438 C2437 1.398 . S
C2438 C2439 1.391 . S
C2439 H2427 0.950 . S
C2439 C2435 1.393 . S
C2439 C2438 1.391 . S
H2440 C2448 0.950 . S
H2441 C2453 0.950 1_565 S
H2442 C2450 0.950 . S
H2443 C2452 0.950 1_565 S
H2444 C2454 0.950 1_565 S
H2445 C2456 0.950 1_565 S
H2446 C2458 0.950 . S
H2447 C2459 0.950 . S
C2448 H2440 0.950 . S
C2448 C2449 1.386 . S
C2448 C2450 1.391 . S
C2449 C2448 1.386 . S
C2449 C2453 1.393 . S
C2450 H2442 0.950 . S
C2450 C2448 1.391 . S
C2450 C2451 1.400 . S
C2451 C2450 1.400 . S
C2451 C2452 1.398 . S
C2451 C2457 1.491 . S
C2452 H2443 0.950 1_545 S
C2452 C2451 1.398 . S
C2452 C2453 1.391 . S
C2453 H2441 0.950 1_545 S
C2453 C2449 1.393 . S
C2453 C2452 1.391 . S
C2454 H2444 0.950 1_545 S
C2454 C2455 1.386 . S
C2454 C2456 1.391 . S
C2455 C2454 1.386 . S
C2455 C2459 1.393 . S
C2456 H2445 0.950 1_545 S
C2456 C2454 1.391 . S
C2456 C2457 1.400 . S
C2457 C2451 1.491 . S
C2457 C2456 1.400 . S
C2457 C2458 1.398 . S
C2458 H2446 0.950 . S
C2458 C2457 1.398 . S
C2458 C2459 1.391 . S
C2459 H2447 0.950 . S
C2459 C2455 1.393 . S
C2459 C2458 1.391 . S
H2460 C2468 0.950 . S
H2461 C2473 0.950 . S
H2462 C2470 0.950 . S
H2463 C2472 0.950 . S
H2464 C2474 0.950 . S
H2465 C2476 0.950 . S
H2466 C2478 0.950 . S
H2467 C2479 0.950 . S
C2468 H2460 0.950 . S
C2468 C2469 1.386 . S
C2468 C2470 1.391 . S
C2469 C2468 1.386 . S
C2469 C2473 1.393 . S
C2470 H2462 0.950 . S
C2470 C2468 1.391 . S
C2470 C2471 1.400 . S
C2471 C2470 1.400 . S
C2471 C2472 1.398 . S
C2471 C2477 1.491 . S
C2472 H2463 0.950 . S
C2472 C2471 1.398 . S
C2472 C2473 1.391 . S
C2473 H2461 0.950 . S
C2473 C2469 1.393 . S
C2473 C2472 1.391 . S
C2474 H2464 0.950 . S
C2474 C2475 1.386 . S
C2474 C2476 1.391 . S
C2475 C2474 1.386 . S
C2475 C2479 1.393 . S
C2476 H2465 0.950 . S
C2476 C2474 1.391 . S
C2476 C2477 1.400 . S
C2477 C2471 1.491 . S
C2477 C2476 1.400 . S
C2477 C2478 1.398 . S
C2478 H2466 0.950 . S
C2478 C2477 1.398 . S
C2478 C2479 1.391 . S
C2479 H2467 0.950 . S
C2479 C2475 1.393 . S
C2479 C2478 1.391 . S
H2480 C2488 0.950 . S
H2481 C2493 0.950 . S
H2482 C2490 0.950 . S
H2483 C2492 0.950 . S
H2484 C2494 0.950 1_556 S
H2485 C2496 0.955 . S
H2486 C2498 0.950 . S
H2487 C2499 0.950 . S
C2488 H2480 0.950 . S
C2488 C2489 1.386 . S
C2488 C2490 1.391 . S
C2489 C2488 1.386 . S
C2489 C2493 1.393 . S
C2490 H2482 0.950 . S
C2490 C2488 1.391 . S
C2490 C2491 1.400 . S
C2491 C2490 1.400 . S
C2491 C2492 1.398 . S
C2491 C2497 1.491 . S
C2492 H2483 0.950 . S
C2492 C2491 1.398 . S
C2492 C2493 1.391 . S
C2493 H2481 0.950 . S
C2493 C2489 1.393 . S
C2493 C2492 1.391 . S
C2494 H2484 0.950 1_554 S
C2494 C2495 1.386 . S
C2494 C2496 1.391 . S
C2495 C2494 1.386 . S
C2495 C2499 1.393 . S
C2496 H2485 0.955 . S
C2496 C2494 1.391 . S
C2496 C2497 1.400 . S
C2497 C2491 1.491 . S
C2497 C2496 1.400 . S
C2497 C2498 1.398 . S
C2498 H2486 0.950 . S
C2498 C2497 1.398 . S
C2498 C2499 1.391 . S
C2499 H2487 0.950 . S
C2499 C2495 1.393 . S
C2499 C2498 1.391 . S
H2500 C2508 0.950 . S
H2501 C2513 0.950 . S
H2502 C2510 0.950 . S
H2503 C2512 0.950 . S
H2504 C2514 0.950 . S
H2505 C2516 0.950 . S
H2506 C2518 0.950 . S
H2507 C2519 0.950 . S
C2508 H2500 0.950 . S
C2508 C2509 1.386 . S
C2508 C2510 1.391 . S
C2509 C2508 1.386 . S
C2509 C2513 1.393 . S
C2510 H2502 0.950 . S
C2510 C2508 1.391 . S
C2510 C2511 1.400 . S
C2511 C2510 1.400 . S
C2511 C2512 1.398 . S
C2511 C2517 1.491 . S
C2512 H2503 0.950 . S
C2512 C2511 1.398 . S
C2512 C2513 1.391 . S
C2513 H2501 0.950 . S
C2513 C2509 1.393 . S
C2513 C2512 1.391 . S
C2514 H2504 0.950 . S
C2514 C2515 1.386 . S
C2514 C2516 1.391 . S
C2515 C2514 1.386 . S
C2515 C2519 1.393 . S
C2516 H2505 0.950 . S
C2516 C2514 1.391 . S
C2516 C2517 1.400 . S
C2517 C2511 1.491 . S
C2517 C2516 1.400 . S
C2517 C2518 1.398 . S
C2518 H2506 0.950 . S
C2518 C2517 1.398 . S
C2518 C2519 1.391 . S
C2519 H2507 0.950 . S
C2519 C2515 1.393 . S
C2519 C2518 1.391 . S
H2520 C2528 0.950 . S
H2521 C2533 0.950 . S
H2522 C2530 0.950 . S
H2523 C2532 0.950 . S
H2524 C2534 0.950 . S
H2525 C2536 0.950 . S
H2526 C2538 0.950 . S
H2527 C2539 0.950 . S
C2528 H2520 0.950 . S
C2528 C2529 1.386 . S
C2528 C2530 1.391 . S
C2529 C2528 1.386 . S
C2529 C2533 1.393 . S
C2530 H2522 0.950 . S
C2530 C2528 1.391 . S
C2530 C2531 1.400 . S
C2531 C2530 1.400 . S
C2531 C2532 1.398 . S
C2531 C2537 1.491 . S
C2532 H2523 0.950 . S
C2532 C2531 1.398 . S
C2532 C2533 1.391 . S
C2533 H2521 0.950 . S
C2533 C2529 1.393 . S
C2533 C2532 1.391 . S
C2534 H2524 0.950 . S
C2534 C2535 1.386 . S
C2534 C2536 1.391 . S
C2535 C2534 1.386 . S
C2535 C2539 1.393 . S
C2536 H2525 0.950 . S
C2536 C2534 1.391 . S
C2536 C2537 1.400 . S
C2537 C2531 1.491 . S
C2537 C2536 1.400 . S
C2537 C2538 1.398 . S
C2538 H2526 0.950 . S
C2538 C2537 1.398 . S
C2538 C2539 1.391 . S
C2539 H2527 0.950 . S
C2539 C2535 1.393 . S
C2539 C2538 1.391 . S
H2540 C2548 0.950 . S
H2541 C2553 0.950 . S
H2542 C2550 0.950 . S
H2543 C2552 0.950 . S
H2544 C2554 0.950 . S
H2545 C2556 0.950 . S
H2546 C2558 0.950 . S
H2547 C2559 0.950 . S
C2548 H2540 0.950 . S
C2548 C2549 1.386 . S
C2548 C2550 1.391 . S
C2549 C2548 1.386 . S
C2549 C2553 1.393 . S
C2550 H2542 0.950 . S
C2550 C2548 1.391 . S
C2550 C2551 1.400 . S
C2551 C2550 1.400 . S
C2551 C2552 1.398 . S
C2551 C2557 1.491 . S
C2552 H2543 0.950 . S
C2552 C2551 1.398 . S
C2552 C2553 1.391 . S
C2553 H2541 0.950 . S
C2553 C2549 1.393 . S
C2553 C2552 1.391 . S
C2554 H2544 0.950 . S
C2554 C2555 1.386 . S
C2554 C2556 1.391 . S
C2555 C2554 1.386 . S
C2555 C2559 1.393 . S
C2556 H2545 0.950 . S
C2556 C2554 1.391 . S
C2556 C2557 1.400 . S
C2557 C2551 1.491 . S
C2557 C2556 1.400 . S
C2557 C2558 1.398 . S
C2558 H2546 0.950 . S
C2558 C2557 1.398 . S
C2558 C2559 1.391 . S
C2559 H2547 0.950 . S
C2559 C2555 1.393 . S
C2559 C2558 1.391 . S
H2560 C2568 0.950 . S
H2561 C2573 0.950 . S
H2562 C2570 0.950 . S
H2563 C2572 0.950 . S
H2564 C2574 0.950 . S
H2565 C2576 0.950 . S
H2566 C2578 0.950 . S
H2567 C2579 0.950 . S
C2568 H2560 0.950 . S
C2568 C2569 1.386 1_545 S
C2568 C2570 1.391 1_545 S
C2569 C2568 1.386 1_565 S
C2569 C2573 1.393 . S
C2570 H2562 0.950 . S
C2570 C2568 1.391 1_565 S
C2570 C2571 1.400 . S
C2571 C2570 1.400 . S
C2571 C2572 1.398 . S
C2571 C2577 1.491 . S
C2572 H2563 0.950 . S
C2572 C2571 1.398 . S
C2572 C2573 1.391 . S
C2573 H2561 0.950 . S
C2573 C2569 1.393 . S
C2573 C2572 1.391 . S
C2574 H2564 0.950 . S
C2574 C2575 1.386 . S
C2574 C2576 1.391 . S
C2575 C2574 1.386 . S
C2575 C2579 1.393 . S
C2576 H2565 0.950 . S
C2576 C2574 1.391 . S
C2576 C2577 1.400 . S
C2577 C2571 1.491 . S
C2577 C2576 1.400 . S
C2577 C2578 1.398 . S
C2578 H2566 0.950 . S
C2578 C2577 1.398 . S
C2578 C2579 1.391 . S
C2579 H2567 0.950 . S
C2579 C2575 1.393 . S
C2579 C2578 1.391 . S
H2580 C2588 0.950 . S
H2581 C2593 0.950 . S
H2582 C2590 0.950 . S
H2583 C2592 0.950 . S
H2584 C2594 0.950 . S
H2585 C2596 0.950 . S
H2586 C2598 0.950 . S
H2587 C2599 0.950 . S
C2588 H2580 0.950 . S
C2588 C2589 1.386 . S
C2588 C2590 1.391 . S
C2589 C2588 1.386 . S
C2589 C2593 1.393 . S
C2590 H2582 0.950 . S
C2590 C2588 1.391 . S
C2590 C2591 1.400 . S
C2591 C2590 1.400 . S
C2591 C2592 1.398 . S
C2591 C2597 1.491 . S
C2592 H2583 0.950 . S
C2592 C2591 1.398 . S
C2592 C2593 1.391 . S
C2593 H2581 0.950 . S
C2593 C2589 1.393 . S
C2593 C2592 1.391 . S
C2594 H2584 0.950 . S
C2594 C2595 1.386 . S
C2594 C2596 1.391 . S
C2595 C2594 1.386 . S
C2595 C2599 1.393 . S
C2596 H2585 0.950 . S
C2596 C2594 1.391 . S
C2596 C2597 1.400 . S
C2597 C2591 1.491 . S
C2597 C2596 1.400 . S
C2597 C2598 1.398 . S
C2598 H2586 0.950 . S
C2598 C2597 1.398 . S
C2598 C2599 1.391 . S
C2599 H2587 0.950 . S
C2599 C2595 1.393 . S
C2599 C2598 1.391 . S
H2600 C2608 0.950 . S
H2601 C2613 0.950 . S
H2602 C2610 0.950 . S
H2603 C2612 0.950 . S
H2604 C2614 0.950 . S
H2605 C2616 0.950 . S
H2606 C2618 0.950 . S
H2607 C2619 0.950 . S
C2608 H2600 0.950 . S
C2608 C2609 1.386 . S
C2608 C2610 1.391 . S
C2609 C2608 1.386 . S
C2609 C2613 1.393 . S
C2610 H2602 0.950 . S
C2610 C2608 1.391 . S
C2610 C2611 1.400 . S
C2611 C2610 1.400 . S
C2611 C2612 1.398 . S
C2611 C2617 1.491 . S
C2612 H2603 0.950 . S
C2612 C2611 1.398 . S
C2612 C2613 1.391 . S
C2613 H2601 0.950 . S
C2613 C2609 1.393 . S
C2613 C2612 1.391 . S
C2614 H2604 0.950 . S
C2614 C2615 1.386 . S
C2614 C2616 1.391 . S
C2615 C2614 1.386 . S
C2615 C2619 1.393 . S
C2616 H2605 0.950 . S
C2616 C2614 1.391 . S
C2616 C2617 1.400 . S
C2617 C2611 1.491 . S
C2617 C2616 1.400 . S
C2617 C2618 1.398 . S
C2618 H2606 0.950 . S
C2618 C2617 1.398 . S
C2618 C2619 1.391 . S
C2619 H2607 0.950 . S
C2619 C2615 1.393 . S
C2619 C2618 1.391 . S
H2620 C2628 0.950 . S
H2621 C2633 0.950 . S
H2622 C2630 0.950 . S
H2623 C2632 0.950 . S
H2624 C2634 0.950 . S
H2625 C2636 0.950 . S
H2626 C2638 0.950 . S
H2627 C2639 0.950 . S
C2628 H2620 0.950 . S
C2628 C2629 1.386 . S
C2628 C2630 1.391 . S
C2629 C2628 1.386 . S
C2629 C2633 1.393 . S
C2630 H2622 0.950 . S
C2630 C2628 1.391 . S
C2630 C2631 1.400 . S
C2631 C2630 1.400 . S
C2631 C2632 1.398 . S
C2631 C2637 1.491 . S
C2632 H2623 0.950 . S
C2632 C2631 1.398 . S
C2632 C2633 1.391 . S
C2633 H2621 0.950 . S
C2633 C2629 1.393 . S
C2633 C2632 1.391 . S
C2634 H2624 0.950 . S
C2634 C2635 1.386 . S
C2634 C2636 1.391 . S
C2635 C2634 1.386 . S
C2635 C2639 1.393 . S
C2636 H2625 0.950 . S
C2636 C2634 1.391 . S
C2636 C2637 1.400 . S
C2637 C2631 1.491 . S
C2637 C2636 1.400 . S
C2637 C2638 1.398 . S
C2638 H2626 0.950 . S
C2638 C2637 1.398 . S
C2638 C2639 1.391 . S
C2639 H2627 0.950 . S
C2639 C2635 1.393 . S
C2639 C2638 1.391 . S
H2640 C2648 0.950 . S
H2641 C2653 0.950 . S
H2642 C2650 0.950 . S
H2643 C2652 0.950 . S
H2644 C2654 0.950 . S
H2645 C2656 0.950 . S
H2646 C2658 0.950 . S
H2647 C2659 0.950 . S
C2648 H2640 0.950 . S
C2648 C2649 1.386 . S
C2648 C2650 1.391 . S
C2649 C2648 1.386 . S
C2649 C2653 1.393 . S
C2650 H2642 0.950 . S
C2650 C2648 1.391 . S
C2650 C2651 1.400 . S
C2651 C2650 1.400 . S
C2651 C2652 1.398 . S
C2651 C2657 1.491 . S
C2652 H2643 0.950 . S
C2652 C2651 1.398 . S
C2652 C2653 1.391 . S
C2653 H2641 0.950 . S
C2653 C2649 1.393 . S
C2653 C2652 1.391 . S
C2654 H2644 0.950 . S
C2654 C2655 1.386 . S
C2654 C2656 1.391 . S
C2655 C2654 1.386 . S
C2655 C2659 1.393 . S
C2656 H2645 0.950 . S
C2656 C2654 1.391 . S
C2656 C2657 1.400 . S
C2657 C2651 1.491 . S
C2657 C2656 1.400 . S
C2657 C2658 1.398 . S
C2658 H2646 0.950 . S
C2658 C2657 1.398 . S
C2658 C2659 1.391 . S
C2659 H2647 0.950 . S
C2659 C2655 1.393 . S
C2659 C2658 1.391 . S
H2660 C2668 0.950 . S
H2661 C2673 0.950 . S
H2662 C2670 0.950 . S
H2663 C2672 0.950 . S
H2664 C2674 0.950 . S
H2665 C2676 0.950 . S
H2666 C2678 0.950 . S
H2667 C2679 0.950 . S
C2668 H2660 0.950 . S
C2668 C2669 1.386 . S
C2668 C2670 1.391 . S
C2669 C2668 1.386 . S
C2669 C2673 1.393 . S
C2670 H2662 0.950 . S
C2670 C2668 1.391 . S
C2670 C2671 1.400 . S
C2671 C2670 1.400 . S
C2671 C2672 1.398 . S
C2671 C2677 1.491 . S
C2672 H2663 0.950 . S
C2672 C2671 1.398 . S
C2672 C2673 1.391 . S
C2673 H2661 0.950 . S
C2673 C2669 1.393 . S
C2673 C2672 1.391 . S
C2674 H2664 0.950 . S
C2674 C2675 1.386 . S
C2674 C2676 1.391 . S
C2675 C2674 1.386 . S
C2675 C2679 1.393 . S
C2676 H2665 0.950 . S
C2676 C2674 1.391 . S
C2676 C2677 1.400 . S
C2677 C2671 1.491 . S
C2677 C2676 1.400 . S
C2677 C2678 1.398 . S
C2678 H2666 0.950 . S
C2678 C2677 1.398 . S
C2678 C2679 1.391 . S
C2679 H2667 0.950 . S
C2679 C2675 1.393 . S
C2679 C2678 1.391 . S
H2680 C2688 0.950 . S
H2681 C2693 0.950 . S
H2682 C2690 0.950 . S
H2683 C2692 0.950 1_554 S
H2684 C2694 0.950 . S
H2685 C2696 0.950 . S
H2686 C2698 0.950 . S
H2687 C2699 0.950 . S
C2688 H2680 0.950 . S
C2688 C2689 1.386 . S
C2688 C2690 1.391 . S
C2689 C2688 1.386 . S
C2689 C2693 1.393 . S
C2690 H2682 0.950 . S
C2690 C2688 1.391 . S
C2690 C2691 1.400 . S
C2691 C2690 1.400 . S
C2691 C2692 1.398 . S
C2691 C2697 1.491 . S
C2692 H2683 0.950 1_556 S
C2692 C2691 1.398 . S
C2692 C2693 1.391 . S
C2693 H2681 0.950 . S
C2693 C2689 1.393 . S
C2693 C2692 1.391 . S
C2694 H2684 0.950 . S
C2694 C2695 1.386 . S
C2694 C2696 1.391 . S
C2695 C2694 1.386 . S
C2695 C2699 1.393 1_554 S
C2696 H2685 0.950 . S
C2696 C2694 1.391 . S
C2696 C2697 1.400 1_554 S
C2697 C2691 1.491 . S
C2697 C2696 1.400 1_556 S
C2697 C2698 1.398 . S
C2698 H2686 0.950 . S
C2698 C2697 1.398 . S
C2698 C2699 1.391 . S
C2699 H2687 0.950 . S
C2699 C2695 1.393 1_556 S
C2699 C2698 1.391 . S
H2700 C2708 0.950 . S
H2701 C2713 0.950 . S
H2702 C2710 0.956 . S
H2703 C2712 0.950 . S
H2704 C2714 0.950 . S
H2705 C2716 0.950 . S
H2706 C2718 0.950 . S
H2707 C2719 0.950 . S
C2708 H2700 0.950 . S
C2708 C2709 1.386 . S
C2708 C2710 1.391 . S
C2709 C2708 1.386 . S
C2709 C2713 1.393 . S
C2710 H2702 0.956 . S
C2710 C2708 1.391 . S
C2710 C2711 1.400 1_455 S
C2711 C2710 1.400 1_655 S
C2711 C2712 1.398 . S
C2711 C2717 1.491 . S
C2712 H2703 0.950 . S
C2712 C2711 1.398 . S
C2712 C2713 1.391 1_655 S
C2713 H2701 0.950 . S
C2713 C2709 1.393 . S
C2713 C2712 1.391 1_455 S
C2714 H2704 0.950 . S
C2714 C2715 1.386 . S
C2714 C2716 1.391 . S
C2715 C2714 1.386 . S
C2715 C2719 1.393 . S
C2716 H2705 0.950 . S
C2716 C2714 1.391 . S
C2716 C2717 1.400 . S
C2717 C2711 1.491 . S
C2717 C2716 1.400 . S
C2717 C2718 1.398 . S
C2718 H2706 0.950 . S
C2718 C2717 1.398 . S
C2718 C2719 1.391 . S
C2719 H2707 0.950 . S
C2719 C2715 1.393 . S
C2719 C2718 1.391 . S
H2720 C2728 0.950 . S
H2721 C2733 0.950 . S
H2722 C2730 0.950 . S
H2723 C2732 0.950 . S
H2724 C2734 0.950 . S
H2725 C2736 0.950 . S
H2726 C2738 0.950 . S
H2727 C2739 0.950 . S
C2728 H2720 0.950 . S
C2728 C2729 1.386 . S
C2728 C2730 1.391 . S
C2729 C2728 1.386 . S
C2729 C2733 1.393 . S
C2730 H2722 0.950 . S
C2730 C2728 1.391 . S
C2730 C2731 1.400 . S
C2731 C2730 1.400 . S
C2731 C2732 1.398 . S
C2731 C2737 1.491 . S
C2732 H2723 0.950 . S
C2732 C2731 1.398 . S
C2732 C2733 1.391 . S
C2733 H2721 0.950 . S
C2733 C2729 1.393 . S
C2733 C2732 1.391 . S
C2734 H2724 0.950 . S
C2734 C2735 1.386 . S
C2734 C2736 1.391 . S
C2735 C2734 1.386 . S
C2735 C2739 1.393 . S
C2736 H2725 0.950 . S
C2736 C2734 1.391 . S
C2736 C2737 1.400 . S
C2737 C2731 1.491 . S
C2737 C2736 1.400 . S
C2737 C2738 1.398 . S
C2738 H2726 0.950 . S
C2738 C2737 1.398 . S
C2738 C2739 1.391 . S
C2739 H2727 0.950 . S
C2739 C2735 1.393 . S
C2739 C2738 1.391 . S
H2740 C2748 0.950 . S
H2741 C2753 0.950 . S
H2742 C2750 0.950 . S
H2743 C2752 0.950 . S
H2744 C2754 0.950 . S
H2745 C2756 0.950 . S
H2746 C2758 0.950 . S
H2747 C2759 0.950 . S
C2748 H2740 0.950 . S
C2748 C2749 1.386 . S
C2748 C2750 1.391 . S
C2749 C2748 1.386 . S
C2749 C2753 1.393 . S
C2750 H2742 0.950 . S
C2750 C2748 1.391 . S
C2750 C2751 1.400 . S
C2751 C2750 1.400 . S
C2751 C2752 1.398 . S
C2751 C2757 1.491 1_455 S
C2752 H2743 0.950 . S
C2752 C2751 1.398 . S
C2752 C2753 1.391 . S
C2753 H2741 0.950 . S
C2753 C2749 1.393 . S
C2753 C2752 1.391 . S
C2754 H2744 0.950 . S
C2754 C2755 1.386 . S
C2754 C2756 1.391 . S
C2755 C2754 1.386 . S
C2755 C2759 1.393 . S
C2756 H2745 0.950 . S
C2756 C2754 1.391 . S
C2756 C2757 1.400 . S
C2757 C2751 1.491 1_655 S
C2757 C2756 1.400 . S
C2757 C2758 1.398 . S
C2758 H2746 0.950 . S
C2758 C2757 1.398 . S
C2758 C2759 1.391 . S
C2759 H2747 0.950 . S
C2759 C2755 1.393 . S
C2759 C2758 1.391 . S
H2760 C2768 0.950 . S
H2761 C2773 0.950 . S
H2762 C2770 0.950 . S
H2763 C2772 0.950 . S
H2764 C2774 0.950 . S
H2765 C2776 0.950 . S
H2766 C2778 0.950 1_655 S
H2767 C2779 0.950 . S
C2768 H2760 0.950 . S
C2768 C2769 1.386 . S
C2768 C2770 1.391 . S
C2769 C2768 1.386 . S
C2769 C2773 1.393 1_655 S
C2770 H2762 0.950 . S
C2770 C2768 1.391 . S
C2770 C2771 1.400 1_655 S
C2771 C2770 1.400 1_455 S
C2771 C2772 1.398 . S
C2771 C2777 1.491 . S
C2772 H2763 0.950 . S
C2772 C2771 1.398 . S
C2772 C2773 1.391 . S
C2773 H2761 0.950 . S
C2773 C2769 1.393 1_455 S
C2773 C2772 1.391 . S
C2774 H2764 0.950 . S
C2774 C2775 1.386 . S
C2774 C2776 1.391 . S
C2775 C2774 1.386 . S
C2775 C2779 1.393 . S
C2776 H2765 0.950 . S
C2776 C2774 1.391 . S
C2776 C2777 1.400 . S
C2777 C2771 1.491 . S
C2777 C2776 1.400 . S
C2777 C2778 1.398 . S
C2778 H2766 0.950 1_455 S
C2778 C2777 1.398 . S
C2778 C2779 1.391 . S
C2779 H2767 0.950 . S
C2779 C2775 1.393 . S
C2779 C2778 1.391 . S
H2780 C2788 0.950 . S
H2781 C2793 0.950 . S
H2782 C2790 0.950 . S
H2783 C2792 0.950 . S
H2784 C2794 0.950 . S
H2785 C2796 0.950 . S
H2786 C2798 0.950 . S
H2787 C2799 0.950 . S
C2788 H2780 0.950 . S
C2788 C2789 1.386 . S
C2788 C2790 1.391 . S
C2789 C2788 1.386 . S
C2789 C2793 1.393 . S
C2790 H2782 0.950 . S
C2790 C2788 1.391 . S
C2790 C2791 1.400 . S
C2791 C2790 1.400 . S
C2791 C2792 1.398 . S
C2791 C2797 1.491 . S
C2792 H2783 0.950 . S
C2792 C2791 1.398 . S
C2792 C2793 1.391 . S
C2793 H2781 0.950 . S
C2793 C2789 1.393 . S
C2793 C2792 1.391 . S
C2794 H2784 0.950 . S
C2794 C2795 1.386 . S
C2794 C2796 1.391 . S
C2795 C2794 1.386 . S
C2795 C2799 1.393 . S
C2796 H2785 0.950 . S
C2796 C2794 1.391 . S
C2796 C2797 1.400 . S
C2797 C2791 1.491 . S
C2797 C2796 1.400 . S
C2797 C2798 1.398 . S
C2798 H2786 0.950 . S
C2798 C2797 1.398 . S
C2798 C2799 1.391 . S
C2799 H2787 0.950 . S
C2799 C2795 1.393 . S
C2799 C2798 1.391 . S
H2800 C2808 0.950 . S
H2801 C2813 0.950 . S
H2802 C2810 0.950 . S
H2803 C2812 0.950 . S
H2804 C2814 0.950 . S
H2805 C2816 0.950 . S
H2806 C2818 0.950 . S
H2807 C2819 0.950 . S
C2808 H2800 0.950 . S
C2808 C2809 1.386 . S
C2808 C2810 1.391 . S
C2809 C2808 1.386 . S
C2809 C2813 1.393 . S
C2810 H2802 0.950 . S
C2810 C2808 1.391 . S
C2810 C2811 1.400 . S
C2811 C2810 1.400 . S
C2811 C2812 1.398 . S
C2811 C2817 1.491 . S
C2812 H2803 0.950 . S
C2812 C2811 1.398 . S
C2812 C2813 1.391 . S
C2813 H2801 0.950 . S
C2813 C2809 1.393 . S
C2813 C2812 1.391 . S
C2814 H2804 0.950 . S
C2814 C2815 1.386 . S
C2814 C2816 1.391 . S
C2815 C2814 1.386 . S
C2815 C2819 1.393 . S
C2816 H2805 0.950 . S
C2816 C2814 1.391 . S
C2816 C2817 1.400 . S
C2817 C2811 1.491 . S
C2817 C2816 1.400 . S
C2817 C2818 1.398 . S
C2818 H2806 0.950 . S
C2818 C2817 1.398 . S
C2818 C2819 1.391 . S
C2819 H2807 0.950 . S
C2819 C2815 1.393 . S
C2819 C2818 1.391 . S
H2820 C2828 0.950 . S
H2821 C2833 0.950 . S
H2822 C2830 0.950 . S
H2823 C2832 0.950 . S
H2824 C2834 0.950 . S
H2825 C2836 0.950 . S
H2826 C2838 0.950 . S
H2827 C2839 0.950 . S
C2828 H2820 0.950 . S
C2828 C2829 1.386 . S
C2828 C2830 1.391 . S
C2829 C2828 1.386 . S
C2829 C2833 1.393 . S
C2830 H2822 0.950 . S
C2830 C2828 1.391 . S
C2830 C2831 1.400 . S
C2831 C2830 1.400 . S
C2831 C2832 1.398 . S
C2831 C2837 1.491 . S
C2832 H2823 0.950 . S
C2832 C2831 1.398 . S
C2832 C2833 1.391 . S
C2833 H2821 0.950 . S
C2833 C2829 1.393 . S
C2833 C2832 1.391 . S
C2834 H2824 0.950 . S
C2834 C2835 1.386 . S
C2834 C2836 1.391 . S
C2835 C2834 1.386 . S
C2835 C2839 1.393 . S
C2836 H2825 0.950 . S
C2836 C2834 1.391 . S
C2836 C2837 1.400 . S
C2837 C2831 1.491 . S
C2837 C2836 1.400 . S
C2837 C2838 1.398 . S
C2838 H2826 0.950 . S
C2838 C2837 1.398 . S
C2838 C2839 1.391 . S
C2839 H2827 0.950 . S
C2839 C2835 1.393 . S
C2839 C2838 1.391 . S
H2840 C2848 0.950 . S
H2841 C2853 0.950 . S
H2842 C2850 0.950 . S
H2843 C2852 0.950 . S
H2844 C2854 0.950 . S
H2845 C2856 0.950 . S
H2846 C2858 0.950 . S
H2847 C2859 0.950 . S
C2848 H2840 0.950 . S
C2848 C2849 1.386 . S
C2848 C2850 1.391 . S
C2849 C2848 1.386 . S
C2849 C2853 1.393 . S
C2850 H2842 0.950 . S
C2850 C2848 1.391 . S
C2850 C2851 1.400 . S
C2851 C2850 1.400 . S
C2851 C2852 1.398 . S
C2851 C2857 1.491 . S
C2852 H2843 0.950 . S
C2852 C2851 1.398 . S
C2852 C2853 1.391 . S
C2853 H2841 0.950 . S
C2853 C2849 1.393 . S
C2853 C2852 1.391 . S
C2854 H2844 0.950 . S
C2854 C2855 1.386 . S
C2854 C2856 1.391 . S
C2855 C2854 1.386 . S
C2855 C2859 1.393 . S
C2856 H2845 0.950 . S
C2856 C2854 1.391 . S
C2856 C2857 1.400 . S
C2857 C2851 1.491 . S
C2857 C2856 1.400 . S
C2857 C2858 1.398 . S
C2858 H2846 0.950 . S
C2858 C2857 1.398 . S
C2858 C2859 1.391 . S
C2859 H2847 0.950 . S
C2859 C2855 1.393 . S
C2859 C2858 1.391 . S
H2860 C2868 0.950 . S
H2861 C2873 0.950 . S
H2862 C2870 0.950 . S
H2863 C2872 0.950 . S
H2864 C2874 0.950 . S
H2865 C2876 0.950 . S
H2866 C2878 0.950 . S
H2867 C2879 0.950 . S
C2868 H2860 0.950 . S
C2868 C2869 1.386 . S
C2868 C2870 1.391 . S
C2869 C2868 1.386 . S
C2869 C2873 1.393 . S
C2870 H2862 0.950 . S
C2870 C2868 1.391 . S
C2870 C2871 1.400 . S
C2871 C2870 1.400 . S
C2871 C2872 1.398 . S
C2871 C2877 1.491 . S
C2872 H2863 0.950 . S
C2872 C2871 1.398 . S
C2872 C2873 1.391 . S
C2873 H2861 0.950 . S
C2873 C2869 1.393 . S
C2873 C2872 1.391 . S
C2874 H2864 0.950 . S
C2874 C2875 1.386 . S
C2874 C2876 1.391 . S
C2875 C2874 1.386 . S
C2875 C2879 1.393 . S
C2876 H2865 0.950 . S
C2876 C2874 1.391 . S
C2876 C2877 1.400 . S
C2877 C2871 1.491 . S
C2877 C2876 1.400 . S
C2877 C2878 1.398 . S
C2878 H2866 0.950 . S
C2878 C2877 1.398 . S
C2878 C2879 1.391 . S
C2879 H2867 0.950 . S
C2879 C2875 1.393 . S
C2879 C2878 1.391 . S
H2880 C2888 0.950 . S
H2881 C2893 0.950 . S
H2882 C2890 0.950 . S
H2883 C2892 0.950 . S
H2884 C2894 0.950 . S
H2885 C2896 0.950 . S
H2886 C2898 0.950 . S
H2887 C2899 0.950 . S
C2888 H2880 0.950 . S
C2888 C2889 1.386 . S
C2888 C2890 1.391 . S
C2889 C2888 1.386 . S
C2889 C2893 1.393 . S
C2890 H2882 0.950 . S
C2890 C2888 1.391 . S
C2890 C2891 1.400 . S
C2891 C2890 1.400 . S
C2891 C2892 1.398 . S
C2891 C2897 1.491 . S
C2892 H2883 0.950 . S
C2892 C2891 1.398 . S
C2892 C2893 1.391 . S
C2893 H2881 0.950 . S
C2893 C2889 1.393 . S
C2893 C2892 1.391 . S
C2894 H2884 0.950 . S
C2894 C2895 1.386 . S
C2894 C2896 1.391 . S
C2895 C2894 1.386 . S
C2895 C2899 1.393 . S
C2896 H2885 0.950 . S
C2896 C2894 1.391 . S
C2896 C2897 1.400 . S
C2897 C2891 1.491 . S
C2897 C2896 1.400 . S
C2897 C2898 1.398 . S
C2898 H2886 0.950 . S
C2898 C2897 1.398 . S
C2898 C2899 1.391 . S
C2899 H2887 0.950 . S
C2899 C2895 1.393 . S
C2899 C2898 1.391 . S
H2900 C2908 0.950 . S
H2901 C2913 0.950 . S
H2902 C2910 0.950 . S
H2903 C2912 0.950 . S
H2904 C2914 0.950 . S
H2905 C2916 0.950 . S
H2906 C2918 0.950 . S
H2907 C2919 0.950 . S
C2908 H2900 0.950 . S
C2908 C2909 1.386 . S
C2908 C2910 1.391 . S
C2909 C2908 1.386 . S
C2909 C2913 1.393 . S
C2910 H2902 0.950 . S
C2910 C2908 1.391 . S
C2910 C2911 1.400 . S
C2911 C2910 1.400 . S
C2911 C2912 1.398 . S
C2911 C2917 1.491 . S
C2912 H2903 0.950 . S
C2912 C2911 1.398 . S
C2912 C2913 1.391 . S
C2913 H2901 0.950 . S
C2913 C2909 1.393 . S
C2913 C2912 1.391 . S
C2914 H2904 0.950 . S
C2914 C2915 1.386 . S
C2914 C2916 1.391 . S
C2915 C2914 1.386 . S
C2915 C2919 1.393 . S
C2916 H2905 0.950 . S
C2916 C2914 1.391 . S
C2916 C2917 1.400 . S
C2917 C2911 1.491 . S
C2917 C2916 1.400 . S
C2917 C2918 1.398 . S
C2918 H2906 0.950 . S
C2918 C2917 1.398 . S
C2918 C2919 1.391 . S
C2919 H2907 0.950 . S
C2919 C2915 1.393 . S
C2919 C2918 1.391 . S
H2920 C2928 0.950 . S
H2921 C2933 0.950 . S
H2922 C2930 0.950 . S
H2923 C2932 0.950 . S
H2924 C2934 0.950 . S
H2925 C2936 0.950 . S
H2926 C2938 0.950 . S
H2927 C2939 0.950 . S
C2928 H2920 0.950 . S
C2928 C2929 1.386 . S
C2928 C2930 1.391 . S
C2929 C2928 1.386 . S
C2929 C2933 1.393 . S
C2930 H2922 0.950 . S
C2930 C2928 1.391 . S
C2930 C2931 1.400 . S
C2931 C2930 1.400 . S
C2931 C2932 1.398 . S
C2931 C2937 1.491 . S
C2932 H2923 0.950 . S
C2932 C2931 1.398 . S
C2932 C2933 1.391 . S
C2933 H2921 0.950 . S
C2933 C2929 1.393 . S
C2933 C2932 1.391 . S
C2934 H2924 0.950 . S
C2934 C2935 1.386 . S
C2934 C2936 1.391 . S
C2935 C2934 1.386 . S
C2935 C2939 1.393 . S
C2936 H2925 0.950 . S
C2936 C2934 1.391 . S
C2936 C2937 1.400 . S
C2937 C2931 1.491 . S
C2937 C2936 1.400 . S
C2937 C2938 1.398 . S
C2938 H2926 0.950 . S
C2938 C2937 1.398 . S
C2938 C2939 1.391 . S
C2939 H2927 0.950 . S
C2939 C2935 1.393 . S
C2939 C2938 1.391 . S
H2940 C2948 0.950 . S
H2941 C2953 0.950 . S
H2942 C2950 0.950 . S
H2943 C2952 0.950 . S
H2944 C2954 0.950 . S
H2945 C2956 0.950 . S
H2946 C2958 0.950 . S
H2947 C2959 0.950 . S
C2948 H2940 0.950 . S
C2948 C2949 1.386 . S
C2948 C2950 1.391 . S
C2949 C2948 1.386 . S
C2949 C2953 1.393 . S
C2950 H2942 0.950 . S
C2950 C2948 1.391 . S
C2950 C2951 1.400 . S
C2951 C2950 1.400 . S
C2951 C2952 1.398 . S
C2951 C2957 1.491 . S
C2952 H2943 0.950 . S
C2952 C2951 1.398 . S
C2952 C2953 1.391 . S
C2953 H2941 0.950 . S
C2953 C2949 1.393 . S
C2953 C2952 1.391 . S
C2954 H2944 0.950 . S
C2954 C2955 1.386 . S
C2954 C2956 1.391 . S
C2955 C2954 1.386 . S
C2955 C2959 1.393 . S
C2956 H2945 0.950 . S
C2956 C2954 1.391 . S
C2956 C2957 1.400 . S
C2957 C2951 1.491 . S
C2957 C2956 1.400 . S
C2957 C2958 1.398 . S
C2958 H2946 0.950 . S
C2958 C2957 1.398 . S
C2958 C2959 1.391 . S
C2959 H2947 0.950 . S
C2959 C2955 1.393 . S
C2959 C2958 1.391 . S
H2960 C2968 0.950 . S
H2961 C2973 0.950 . S
H2962 C2970 0.950 . S
H2963 C2972 0.950 . S
H2964 C2974 0.950 . S
H2965 C2976 0.950 . S
H2966 C2978 0.950 . S
H2967 C2979 0.950 . S
C2968 H2960 0.950 . S
C2968 C2969 1.386 . S
C2968 C2970 1.391 . S
C2969 C2968 1.386 . S
C2969 C2973 1.393 . S
C2970 H2962 0.950 . S
C2970 C2968 1.391 . S
C2970 C2971 1.400 . S
C2971 C2970 1.400 . S
C2971 C2972 1.398 . S
C2971 C2977 1.491 . S
C2972 H2963 0.950 . S
C2972 C2971 1.398 . S
C2972 C2973 1.391 . S
C2973 H2961 0.950 . S
C2973 C2969 1.393 . S
C2973 C2972 1.391 . S
C2974 H2964 0.950 . S
C2974 C2975 1.386 . S
C2974 C2976 1.391 . S
C2975 C2974 1.386 . S
C2975 C2979 1.393 . S
C2976 H2965 0.950 . S
C2976 C2974 1.391 . S
C2976 C2977 1.400 . S
C2977 C2971 1.491 . S
C2977 C2976 1.400 . S
C2977 C2978 1.398 . S
C2978 H2966 0.950 . S
C2978 C2977 1.398 . S
C2978 C2979 1.391 . S
C2979 H2967 0.950 . S
C2979 C2975 1.393 . S
C2979 C2978 1.391 . S
H2980 C2988 0.950 . S
H2981 C2993 0.950 . S
H2982 C2990 0.950 . S
H2983 C2992 0.950 . S
H2984 C2994 0.950 . S
H2985 C2996 0.950 . S
H2986 C2998 0.950 . S
H2987 C2999 0.950 . S
C2988 H2980 0.950 . S
C2988 C2989 1.386 . S
C2988 C2990 1.391 . S
C2989 C2988 1.386 . S
C2989 C2993 1.393 . S
C2990 H2982 0.950 . S
C2990 C2988 1.391 . S
C2990 C2991 1.400 . S
C2991 C2990 1.400 . S
C2991 C2992 1.398 . S
C2991 C2997 1.491 . S
C2992 H2983 0.950 . S
C2992 C2991 1.398 . S
C2992 C2993 1.391 . S
C2993 H2981 0.950 . S
C2993 C2989 1.393 . S
C2993 C2992 1.391 . S
C2994 H2984 0.950 . S
C2994 C2995 1.386 . S
C2994 C2996 1.391 . S
C2995 C2994 1.386 . S
C2995 C2999 1.393 . S
C2996 H2985 0.950 . S
C2996 C2994 1.391 . S
C2996 C2997 1.400 . S
C2997 C2991 1.491 . S
C2997 C2996 1.400 . S
C2997 C2998 1.398 . S
C2998 H2986 0.950 . S
C2998 C2997 1.398 . S
C2998 C2999 1.391 . S
C2999 H2987 0.950 . S
C2999 C2995 1.393 . S
C2999 C2998 1.391 . S
H3000 C3008 0.950 . S
H3001 C3013 0.950 . S
H3002 C3010 0.950 . S
H3003 C3012 0.950 . S
H3004 C3014 0.950 . S
H3005 C3016 0.950 . S
H3006 C3018 0.950 . S
H3007 C3019 0.950 . S
C3008 H3000 0.950 . S
C3008 C3009 1.386 . S
C3008 C3010 1.391 . S
C3009 C3008 1.386 . S
C3009 C3013 1.393 . S
C3010 H3002 0.950 . S
C3010 C3008 1.391 . S
C3010 C3011 1.400 . S
C3011 C3010 1.400 . S
C3011 C3012 1.398 . S
C3011 C3017 1.491 . S
C3012 H3003 0.950 . S
C3012 C3011 1.398 . S
C3012 C3013 1.391 . S
C3013 H3001 0.950 . S
C3013 C3009 1.393 . S
C3013 C3012 1.391 . S
C3014 H3004 0.950 . S
C3014 C3015 1.386 . S
C3014 C3016 1.391 . S
C3015 C3014 1.386 . S
C3015 C3019 1.393 . S
C3016 H3005 0.950 . S
C3016 C3014 1.391 . S
C3016 C3017 1.400 . S
C3017 C3011 1.491 . S
C3017 C3016 1.400 . S
C3017 C3018 1.398 . S
C3018 H3006 0.950 . S
C3018 C3017 1.398 . S
C3018 C3019 1.391 . S
C3019 H3007 0.950 . S
C3019 C3015 1.393 . S
C3019 C3018 1.391 . S
H3020 C3028 0.950 1_556 S
H3021 C3033 0.950 . S
H3022 C3030 0.950 1_556 S
H3023 C3032 0.950 1_545 S
H3024 C3034 0.950 . S
H3025 C3036 0.950 . S
H3026 C3038 0.947 1_556 S
H3027 C3039 0.945 1_556 S
C3028 H3020 0.950 1_554 S
C3028 C3029 1.386 . S
C3028 C3030 1.391 . S
C3029 C3028 1.386 . S
C3029 C3033 1.393 . S
C3030 H3022 0.950 1_554 S
C3030 C3028 1.391 . S
C3030 C3031 1.400 . S
C3031 C3030 1.400 . S
C3031 C3032 1.398 . S
C3031 C3037 1.491 . S
C3032 H3023 0.950 1_565 S
C3032 C3031 1.398 . S
C3032 C3033 1.391 . S
C3033 H3021 0.950 . S
C3033 C3029 1.393 . S
C3033 C3032 1.391 . S
C3034 H3024 0.950 . S
C3034 C3035 1.386 . S
C3034 C3036 1.391 . S
C3035 C3034 1.386 . S
C3035 C3039 1.393 1_545 S
C3036 H3025 0.950 . S
C3036 C3034 1.391 . S
C3036 C3037 1.400 1_545 S
C3037 C3031 1.491 . S
C3037 C3036 1.400 1_565 S
C3037 C3038 1.398 . S
C3038 H3026 0.947 1_554 S
C3038 C3037 1.398 . S
C3038 C3039 1.391 . S
C3039 H3027 0.945 1_554 S
C3039 C3035 1.393 1_565 S
C3039 C3038 1.391 . S
H3040 C3048 0.950 . S
H3041 C3053 0.950 . S
H3042 C3050 0.950 . S
H3043 C3052 0.950 . S
H3044 C3054 0.950 . S
H3045 C3056 0.950 . S
H3046 C3058 0.950 . S
H3047 C3059 0.950 . S
C3048 H3040 0.950 . S
C3048 C3049 1.386 . S
C3048 C3050 1.391 . S
C3049 C3048 1.386 . S
C3049 C3053 1.393 . S
C3050 H3042 0.950 . S
C3050 C3048 1.391 . S
C3050 C3051 1.400 . S
C3051 C3050 1.400 . S
C3051 C3052 1.398 . S
C3051 C3057 1.491 . S
C3052 H3043 0.950 . S
C3052 C3051 1.398 . S
C3052 C3053 1.391 . S
C3053 H3041 0.950 . S
C3053 C3049 1.393 . S
C3053 C3052 1.391 . S
C3054 H3044 0.950 . S
C3054 C3055 1.386 . S
C3054 C3056 1.391 . S
C3055 C3054 1.386 . S
C3055 C3059 1.393 . S
C3056 H3045 0.950 . S
C3056 C3054 1.391 . S
C3056 C3057 1.400 . S
C3057 C3051 1.491 . S
C3057 C3056 1.400 . S
C3057 C3058 1.398 . S
C3058 H3046 0.950 . S
C3058 C3057 1.398 . S
C3058 C3059 1.391 . S
C3059 H3047 0.950 . S
C3059 C3055 1.393 . S
C3059 C3058 1.391 . S
H3060 C3068 0.950 . S
H3061 C3073 0.950 1_556 S
H3062 C3070 0.950 . S
H3063 C3072 0.950 . S
H3064 C3074 0.950 . S
H3065 C3076 0.950 . S
H3066 C3078 0.950 . S
H3067 C3079 0.950 . S
C3068 H3060 0.950 . S
C3068 C3069 1.386 . S
C3068 C3070 1.391 . S
C3069 C3068 1.386 . S
C3069 C3073 1.393 . S
C3070 H3062 0.950 . S
C3070 C3068 1.391 . S
C3070 C3071 1.400 . S
C3071 C3070 1.400 . S
C3071 C3072 1.398 . S
C3071 C3077 1.491 . S
C3072 H3063 0.950 . S
C3072 C3071 1.398 . S
C3072 C3073 1.391 . S
C3073 H3061 0.950 1_554 S
C3073 C3069 1.393 . S
C3073 C3072 1.391 . S
C3074 H3064 0.950 . S
C3074 C3075 1.386 . S
C3074 C3076 1.391 . S
C3075 C3074 1.386 . S
C3075 C3079 1.393 . S
C3076 H3065 0.950 . S
C3076 C3074 1.391 . S
C3076 C3077 1.400 . S
C3077 C3071 1.491 . S
C3077 C3076 1.400 . S
C3077 C3078 1.398 . S
C3078 H3066 0.950 . S
C3078 C3077 1.398 . S
C3078 C3079 1.391 . S
C3079 H3067 0.950 . S
C3079 C3075 1.393 . S
C3079 C3078 1.391 . S
H3080 C3088 0.950 . S
H3081 C3093 0.950 . S
H3082 C3090 0.950 . S
H3083 C3092 0.950 . S
H3084 C3094 0.950 . S
H3085 C3096 0.950 . S
H3086 C3098 0.950 . S
H3087 C3099 0.950 . S
C3088 H3080 0.950 . S
C3088 C3089 1.386 . S
C3088 C3090 1.391 . S
C3089 C3088 1.386 . S
C3089 C3093 1.393 . S
C3090 H3082 0.950 . S
C3090 C3088 1.391 . S
C3090 C3091 1.400 . S
C3091 C3090 1.400 . S
C3091 C3092 1.398 . S
C3091 C3097 1.491 . S
C3092 H3083 0.950 . S
C3092 C3091 1.398 . S
C3092 C3093 1.391 . S
C3093 H3081 0.950 . S
C3093 C3089 1.393 . S
C3093 C3092 1.391 . S
C3094 H3084 0.950 . S
C3094 C3095 1.386 . S
C3094 C3096 1.391 . S
C3095 C3094 1.386 . S
C3095 C3099 1.393 . S
C3096 H3085 0.950 . S
C3096 C3094 1.391 . S
C3096 C3097 1.400 . S
C3097 C3091 1.491 . S
C3097 C3096 1.400 . S
C3097 C3098 1.398 . S
C3098 H3086 0.950 . S
C3098 C3097 1.398 . S
C3098 C3099 1.391 . S
C3099 H3087 0.950 . S
C3099 C3095 1.393 . S
C3099 C3098 1.391 . S
H3100 C3108 0.950 . S
H3101 C3113 0.950 . S
H3102 C3110 0.950 . S
H3103 C3112 0.950 . S
H3104 C3114 0.950 . S
H3105 C3116 0.950 . S
H3106 C3118 0.950 . S
H3107 C3119 0.950 . S
C3108 H3100 0.950 . S
C3108 C3109 1.386 . S
C3108 C3110 1.391 . S
C3109 C3108 1.386 . S
C3109 C3113 1.393 . S
C3110 H3102 0.950 . S
C3110 C3108 1.391 . S
C3110 C3111 1.400 . S
C3111 C3110 1.400 . S
C3111 C3112 1.398 . S
C3111 C3117 1.491 . S
C3112 H3103 0.950 . S
C3112 C3111 1.398 . S
C3112 C3113 1.391 . S
C3113 H3101 0.950 . S
C3113 C3109 1.393 . S
C3113 C3112 1.391 . S
C3114 H3104 0.950 . S
C3114 C3115 1.386 . S
C3114 C3116 1.391 . S
C3115 C3114 1.386 . S
C3115 C3119 1.393 . S
C3116 H3105 0.950 . S
C3116 C3114 1.391 . S
C3116 C3117 1.400 . S
C3117 C3111 1.491 . S
C3117 C3116 1.400 . S
C3117 C3118 1.398 . S
C3118 H3106 0.950 . S
C3118 C3117 1.398 . S
C3118 C3119 1.391 . S
C3119 H3107 0.950 . S
C3119 C3115 1.393 . S
C3119 C3118 1.391 . S
H3120 C3128 0.950 . S
H3121 C3133 0.950 . S
H3122 C3130 0.950 . S
H3123 C3132 0.950 . S
H3124 C3134 0.950 . S
H3125 C3136 0.950 . S
H3126 C3138 0.950 . S
H3127 C3139 0.950 . S
C3128 H3120 0.950 . S
C3128 C3129 1.386 . S
C3128 C3130 1.391 . S
C3129 C3128 1.386 . S
C3129 C3133 1.393 . S
C3130 H3122 0.950 . S
C3130 C3128 1.391 . S
C3130 C3131 1.400 . S
C3131 C3130 1.400 . S
C3131 C3132 1.398 . S
C3131 C3137 1.491 . S
C3132 H3123 0.950 . S
C3132 C3131 1.398 . S
C3132 C3133 1.391 . S
C3133 H3121 0.950 . S
C3133 C3129 1.393 . S
C3133 C3132 1.391 . S
C3134 H3124 0.950 . S
C3134 C3135 1.386 . S
C3134 C3136 1.391 . S
C3135 C3134 1.386 . S
C3135 C3139 1.393 . S
C3136 H3125 0.950 . S
C3136 C3134 1.391 . S
C3136 C3137 1.400 . S
C3137 C3131 1.491 . S
C3137 C3136 1.400 . S
C3137 C3138 1.398 . S
C3138 H3126 0.950 . S
C3138 C3137 1.398 . S
C3138 C3139 1.391 . S
C3139 H3127 0.950 . S
C3139 C3135 1.393 . S
C3139 C3138 1.391 . S
H3140 C3148 0.950 . S
H3141 C3153 0.950 . S
H3142 C3150 0.950 . S
H3143 C3152 0.950 . S
H3144 C3154 0.950 . S
H3145 C3156 0.950 . S
H3146 C3158 0.950 . S
H3147 C3159 0.950 . S
C3148 H3140 0.950 . S
C3148 C3149 1.386 . S
C3148 C3150 1.391 . S
C3149 C3148 1.386 . S
C3149 C3153 1.393 . S
C3150 H3142 0.950 . S
C3150 C3148 1.391 . S
C3150 C3151 1.400 . S
C3151 C3150 1.400 . S
C3151 C3152 1.398 . S
C3151 C3157 1.491 . S
C3152 H3143 0.950 . S
C3152 C3151 1.398 . S
C3152 C3153 1.391 . S
C3153 H3141 0.950 . S
C3153 C3149 1.393 . S
C3153 C3152 1.391 . S
C3154 H3144 0.950 . S
C3154 C3155 1.386 . S
C3154 C3156 1.391 . S
C3155 C3154 1.386 . S
C3155 C3159 1.393 . S
C3156 H3145 0.950 . S
C3156 C3154 1.391 . S
C3156 C3157 1.400 . S
C3157 C3151 1.491 . S
C3157 C3156 1.400 . S
C3157 C3158 1.398 . S
C3158 H3146 0.950 . S
C3158 C3157 1.398 . S
C3158 C3159 1.391 . S
C3159 H3147 0.950 . S
C3159 C3155 1.393 . S
C3159 C3158 1.391 . S
H3160 C3168 0.950 . S
H3161 C3173 0.950 . S
H3162 C3170 0.950 . S
H3163 C3172 0.950 . S
H3164 C3174 0.950 . S
H3165 C3176 0.950 . S
H3166 C3178 0.950 . S
H3167 C3179 0.950 . S
C3168 H3160 0.950 . S
C3168 C3169 1.386 . S
C3168 C3170 1.391 . S
C3169 C3168 1.386 . S
C3169 C3173 1.393 . S
C3170 H3162 0.950 . S
C3170 C3168 1.391 . S
C3170 C3171 1.400 . S
C3171 C3170 1.400 . S
C3171 C3172 1.398 . S
C3171 C3177 1.491 . S
C3172 H3163 0.950 . S
C3172 C3171 1.398 . S
C3172 C3173 1.391 . S
C3173 H3161 0.950 . S
C3173 C3169 1.393 . S
C3173 C3172 1.391 . S
C3174 H3164 0.950 . S
C3174 C3175 1.386 . S
C3174 C3176 1.391 . S
C3175 C3174 1.386 . S
C3175 C3179 1.393 . S
C3176 H3165 0.950 . S
C3176 C3174 1.391 . S
C3176 C3177 1.400 . S
C3177 C3171 1.491 . S
C3177 C3176 1.400 . S
C3177 C3178 1.398 . S
C3178 H3166 0.950 . S
C3178 C3177 1.398 . S
C3178 C3179 1.391 . S
C3179 H3167 0.950 . S
C3179 C3175 1.393 . S
C3179 C3178 1.391 . S
H3180 C3188 0.950 . S
H3181 C3193 0.950 . S
H3182 C3190 0.950 . S
H3183 C3192 0.950 . S
H3184 C3194 0.950 . S
H3185 C3196 0.950 . S
H3186 C3198 0.950 . S
H3187 C3199 0.950 . S
C3188 H3180 0.950 . S
C3188 C3189 1.386 . S
C3188 C3190 1.391 . S
C3189 C3188 1.386 . S
C3189 C3193 1.393 . S
C3190 H3182 0.950 . S
C3190 C3188 1.391 . S
C3190 C3191 1.400 . S
C3191 C3190 1.400 . S
C3191 C3192 1.398 . S
C3191 C3197 1.491 . S
C3192 H3183 0.950 . S
C3192 C3191 1.398 . S
C3192 C3193 1.391 . S
C3193 H3181 0.950 . S
C3193 C3189 1.393 . S
C3193 C3192 1.391 . S
C3194 H3184 0.950 . S
C3194 C3195 1.386 . S
C3194 C3196 1.391 . S
C3195 C3194 1.386 . S
C3195 C3199 1.393 . S
C3196 H3185 0.950 . S
C3196 C3194 1.391 . S
C3196 C3197 1.400 . S
C3197 C3191 1.491 . S
C3197 C3196 1.400 . S
C3197 C3198 1.398 . S
C3198 H3186 0.950 . S
C3198 C3197 1.398 . S
C3198 C3199 1.391 . S
C3199 H3187 0.950 . S
C3199 C3195 1.393 . S
C3199 C3198 1.391 . S
H3200 C3208 0.950 . S
H3201 C3213 0.950 . S
H3202 C3210 0.950 . S
H3203 C3212 0.950 . S
H3204 C3214 0.950 . S
H3205 C3216 0.950 . S
H3206 C3218 0.950 . S
H3207 C3219 0.950 1_554 S
C3208 H3200 0.950 . S
C3208 C3209 1.386 . S
C3208 C3210 1.391 . S
C3209 C3208 1.386 . S
C3209 C3213 1.393 . S
C3210 H3202 0.950 . S
C3210 C3208 1.391 . S
C3210 C3211 1.400 . S
C3211 C3210 1.400 . S
C3211 C3212 1.398 . S
C3211 C3217 1.491 . S
C3212 H3203 0.950 . S
C3212 C3211 1.398 . S
C3212 C3213 1.391 . S
C3213 H3201 0.950 . S
C3213 C3209 1.393 . S
C3213 C3212 1.391 . S
C3214 H3204 0.950 . S
C3214 C3215 1.386 . S
C3214 C3216 1.391 . S
C3215 C3214 1.386 . S
C3215 C3219 1.393 . S
C3216 H3205 0.950 . S
C3216 C3214 1.391 . S
C3216 C3217 1.400 . S
C3217 C3211 1.491 . S
C3217 C3216 1.400 . S
C3217 C3218 1.398 . S
C3218 H3206 0.950 . S
C3218 C3217 1.398 . S
C3218 C3219 1.391 . S
C3219 H3207 0.950 1_556 S
C3219 C3215 1.393 . S
C3219 C3218 1.391 . S
H3220 C3228 0.950 . S
H3221 C3233 0.950 . S
H3222 C3230 0.950 . S
H3223 C3232 0.950 . S
H3224 C3234 0.950 . S
H3225 C3236 0.950 . S
H3226 C3238 0.950 . S
H3227 C3239 0.950 . S
C3228 H3220 0.950 . S
C3228 C3229 1.386 . S
C3228 C3230 1.391 . S
C3229 C3228 1.386 . S
C3229 C3233 1.393 . S
C3230 H3222 0.950 . S
C3230 C3228 1.391 . S
C3230 C3231 1.400 . S
C3231 C3230 1.400 . S
C3231 C3232 1.398 . S
C3231 C3237 1.491 . S
C3232 H3223 0.950 . S
C3232 C3231 1.398 . S
C3232 C3233 1.391 . S
C3233 H3221 0.950 . S
C3233 C3229 1.393 . S
C3233 C3232 1.391 . S
C3234 H3224 0.950 . S
C3234 C3235 1.386 . S
C3234 C3236 1.391 . S
C3235 C3234 1.386 . S
C3235 C3239 1.393 . S
C3236 H3225 0.950 . S
C3236 C3234 1.391 . S
C3236 C3237 1.400 . S
C3237 C3231 1.491 . S
C3237 C3236 1.400 . S
C3237 C3238 1.398 . S
C3238 H3226 0.950 . S
C3238 C3237 1.398 . S
C3238 C3239 1.391 . S
C3239 H3227 0.950 . S
C3239 C3235 1.393 . S
C3239 C3238 1.391 . S
H3240 C3248 0.950 . S
H3241 C3253 0.950 . S
H3242 C3250 0.950 . S
H3243 C3252 0.950 . S
H3244 C3254 0.950 . S
H3245 C3256 0.950 . S
H3246 C3258 0.950 . S
H3247 C3259 0.950 . S
C3248 H3240 0.950 . S
C3248 C3249 1.386 . S
C3248 C3250 1.391 . S
C3249 C3248 1.386 . S
C3249 C3253 1.393 . S
C3250 H3242 0.950 . S
C3250 C3248 1.391 . S
C3250 C3251 1.400 . S
C3251 C3250 1.400 . S
C3251 C3252 1.398 . S
C3251 C3257 1.491 . S
C3252 H3243 0.950 . S
C3252 C3251 1.398 . S
C3252 C3253 1.391 . S
C3253 H3241 0.950 . S
C3253 C3249 1.393 . S
C3253 C3252 1.391 . S
C3254 H3244 0.950 . S
C3254 C3255 1.386 . S
C3254 C3256 1.391 . S
C3255 C3254 1.386 . S
C3255 C3259 1.393 . S
C3256 H3245 0.950 . S
C3256 C3254 1.391 . S
C3256 C3257 1.400 . S
C3257 C3251 1.491 . S
C3257 C3256 1.400 . S
C3257 C3258 1.398 . S
C3258 H3246 0.950 . S
C3258 C3257 1.398 . S
C3258 C3259 1.391 . S
C3259 H3247 0.950 . S
C3259 C3255 1.393 . S
C3259 C3258 1.391 . S
H3260 C3268 0.950 . S
H3261 C3273 0.950 . S
H3262 C3270 0.950 . S
H3263 C3272 0.950 . S
H3264 C3274 0.950 . S
H3265 C3276 0.950 . S
H3266 C3278 0.950 . S
H3267 C3279 0.950 . S
C3268 H3260 0.950 . S
C3268 C3269 1.386 . S
C3268 C3270 1.391 . S
C3269 C3268 1.386 . S
C3269 C3273 1.393 . S
C3270 H3262 0.950 . S
C3270 C3268 1.391 . S
C3270 C3271 1.400 . S
C3271 C3270 1.400 . S
C3271 C3272 1.398 . S
C3271 C3277 1.491 . S
C3272 H3263 0.950 . S
C3272 C3271 1.398 . S
C3272 C3273 1.391 . S
C3273 H3261 0.950 . S
C3273 C3269 1.393 . S
C3273 C3272 1.391 . S
C3274 H3264 0.950 . S
C3274 C3275 1.386 . S
C3274 C3276 1.391 . S
C3275 C3274 1.386 . S
C3275 C3279 1.393 . S
C3276 H3265 0.950 . S
C3276 C3274 1.391 . S
C3276 C3277 1.400 . S
C3277 C3271 1.491 . S
C3277 C3276 1.400 . S
C3277 C3278 1.398 . S
C3278 H3266 0.950 . S
C3278 C3277 1.398 . S
C3278 C3279 1.391 . S
C3279 H3267 0.950 . S
C3279 C3275 1.393 . S
C3279 C3278 1.391 . S
H3280 C3288 0.950 . S
H3281 C3293 0.950 . S
H3282 C3290 0.950 . S
H3283 C3292 0.950 . S
H3284 C3294 0.950 . S
H3285 C3296 0.950 . S
H3286 C3298 0.950 . S
H3287 C3299 0.950 . S
C3288 H3280 0.950 . S
C3288 C3289 1.386 . S
C3288 C3290 1.391 . S
C3289 C3288 1.386 . S
C3289 C3293 1.393 . S
C3290 H3282 0.950 . S
C3290 C3288 1.391 . S
C3290 C3291 1.400 . S
C3291 C3290 1.400 . S
C3291 C3292 1.398 . S
C3291 C3297 1.491 . S
C3292 H3283 0.950 . S
C3292 C3291 1.398 . S
C3292 C3293 1.391 . S
C3293 H3281 0.950 . S
C3293 C3289 1.393 . S
C3293 C3292 1.391 . S
C3294 H3284 0.950 . S
C3294 C3295 1.386 . S
C3294 C3296 1.391 . S
C3295 C3294 1.386 . S
C3295 C3299 1.393 . S
C3296 H3285 0.950 . S
C3296 C3294 1.391 . S
C3296 C3297 1.400 . S
C3297 C3291 1.491 . S
C3297 C3296 1.400 . S
C3297 C3298 1.398 . S
C3298 H3286 0.950 . S
C3298 C3297 1.398 . S
C3298 C3299 1.391 . S
C3299 H3287 0.950 . S
C3299 C3295 1.393 . S
C3299 C3298 1.391 . S
H3300 C3308 0.950 . S
H3301 C3313 0.950 . S
H3302 C3310 0.950 . S
H3303 C3312 0.950 . S
H3304 C3314 0.950 . S
H3305 C3316 0.950 . S
H3306 C3318 0.950 . S
H3307 C3319 0.950 . S
C3308 H3300 0.950 . S
C3308 C3309 1.386 . S
C3308 C3310 1.391 . S
C3309 C3308 1.386 . S
C3309 C3313 1.393 . S
C3310 H3302 0.950 . S
C3310 C3308 1.391 . S
C3310 C3311 1.400 . S
C3311 C3310 1.400 . S
C3311 C3312 1.398 . S
C3311 C3317 1.491 . S
C3312 H3303 0.950 . S
C3312 C3311 1.398 . S
C3312 C3313 1.391 . S
C3313 H3301 0.950 . S
C3313 C3309 1.393 . S
C3313 C3312 1.391 . S
C3314 H3304 0.950 . S
C3314 C3315 1.386 . S
C3314 C3316 1.391 . S
C3315 C3314 1.386 . S
C3315 C3319 1.393 . S
C3316 H3305 0.950 . S
C3316 C3314 1.391 . S
C3316 C3317 1.400 . S
C3317 C3311 1.491 . S
C3317 C3316 1.400 . S
C3317 C3318 1.398 . S
C3318 H3306 0.950 . S
C3318 C3317 1.398 . S
C3318 C3319 1.391 . S
C3319 H3307 0.950 . S
C3319 C3315 1.393 . S
C3319 C3318 1.391 . S
H3320 C3328 0.950 . S
H3321 C3333 0.950 . S
H3322 C3330 0.950 . S
H3323 C3332 0.950 . S
H3324 C3334 0.950 . S
H3325 C3336 0.949 . S
H3326 C3338 0.947 1_655 S
H3327 C3339 0.950 . S
C3328 H3320 0.950 . S
C3328 C3329 1.386 . S
C3328 C3330 1.391 . S
C3329 C3328 1.386 . S
C3329 C3333 1.393 . S
C3330 H3322 0.950 . S
C3330 C3328 1.391 . S
C3330 C3331 1.400 . S
C3331 C3330 1.400 . S
C3331 C3332 1.398 . S
C3331 C3337 1.491 . S
C3332 H3323 0.950 . S
C3332 C3331 1.398 . S
C3332 C3333 1.391 . S
C3333 H3321 0.950 . S
C3333 C3329 1.393 . S
C3333 C3332 1.391 . S
C3334 H3324 0.950 . S
C3334 C3335 1.386 . S
C3334 C3336 1.393 1_455 S
C3335 C3334 1.386 . S
C3335 C3339 1.393 . S
C3336 H3325 0.949 . S
C3336 C3334 1.393 1_655 S
C3336 C3337 1.400 . S
C3337 C3331 1.491 . S
C3337 C3336 1.400 . S
C3337 C3338 1.382 1_655 S
C3338 H3326 0.947 1_455 S
C3338 C3337 1.382 1_455 S
C3338 C3339 1.410 . S
C3339 H3327 0.950 . S
C3339 C3335 1.393 . S
C3339 C3338 1.410 . S
H3340 C3348 0.950 . S
H3341 C3353 0.950 . S
H3342 C3350 0.950 . S
H3343 C3352 0.950 . S
H3344 C3354 0.950 . S
H3345 C3356 0.950 . S
H3346 C3358 0.950 . S
H3347 C3359 0.950 . S
C3348 H3340 0.950 . S
C3348 C3349 1.386 . S
C3348 C3350 1.391 . S
C3349 C3348 1.386 . S
C3349 C3353 1.393 . S
C3350 H3342 0.950 . S
C3350 C3348 1.391 . S
C3350 C3351 1.400 . S
C3351 C3350 1.400 . S
C3351 C3352 1.398 . S
C3351 C3357 1.491 . S
C3352 H3343 0.950 . S
C3352 C3351 1.398 . S
C3352 C3353 1.391 . S
C3353 H3341 0.950 . S
C3353 C3349 1.393 . S
C3353 C3352 1.391 . S
C3354 H3344 0.950 . S
C3354 C3355 1.386 . S
C3354 C3356 1.391 . S
C3355 C3354 1.386 . S
C3355 C3359 1.393 . S
C3356 H3345 0.950 . S
C3356 C3354 1.391 . S
C3356 C3357 1.400 . S
C3357 C3351 1.491 . S
C3357 C3356 1.400 . S
C3357 C3358 1.398 . S
C3358 H3346 0.950 . S
C3358 C3357 1.398 . S
C3358 C3359 1.391 . S
C3359 H3347 0.950 . S
C3359 C3355 1.393 . S
C3359 C3358 1.391 . S
H3360 C3368 0.950 . S
H3361 C3373 0.950 . S
H3362 C3370 0.950 . S
H3363 C3372 0.950 . S
H3364 C3374 0.950 . S
H3365 C3376 0.950 . S
H3366 C3378 0.950 . S
H3367 C3379 0.950 . S
C3368 H3360 0.950 . S
C3368 C3369 1.386 . S
C3368 C3370 1.391 . S
C3369 C3368 1.386 . S
C3369 C3373 1.393 . S
C3370 H3362 0.950 . S
C3370 C3368 1.391 . S
C3370 C3371 1.400 . S
C3371 C3370 1.400 . S
C3371 C3372 1.398 . S
C3371 C3377 1.491 . S
C3372 H3363 0.950 . S
C3372 C3371 1.398 . S
C3372 C3373 1.391 . S
C3373 H3361 0.950 . S
C3373 C3369 1.393 . S
C3373 C3372 1.391 . S
C3374 H3364 0.950 . S
C3374 C3375 1.386 . S
C3374 C3376 1.391 . S
C3375 C3374 1.386 . S
C3375 C3379 1.393 . S
C3376 H3365 0.950 . S
C3376 C3374 1.391 . S
C3376 C3377 1.400 . S
C3377 C3371 1.491 . S
C3377 C3376 1.400 . S
C3377 C3378 1.398 . S
C3378 H3366 0.950 . S
C3378 C3377 1.398 . S
C3378 C3379 1.391 . S
C3379 H3367 0.950 . S
C3379 C3375 1.393 . S
C3379 C3378 1.391 . S
H3380 C3388 0.950 . S
H3381 C3393 0.950 . S
H3382 C3390 0.950 . S
H3383 C3392 0.950 . S
H3384 C3394 0.950 . S
H3385 C3396 0.950 . S
H3386 C3398 0.950 . S
H3387 C3399 0.950 . S
C3388 H3380 0.950 . S
C3388 C3389 1.386 . S
C3388 C3390 1.391 . S
C3389 C3388 1.386 . S
C3389 C3393 1.393 . S
C3390 H3382 0.950 . S
C3390 C3388 1.391 . S
C3390 C3391 1.400 . S
C3391 C3390 1.400 . S
C3391 C3392 1.398 . S
C3391 C3397 1.491 . S
C3392 H3383 0.950 . S
C3392 C3391 1.398 . S
C3392 C3393 1.391 . S
C3393 H3381 0.950 . S
C3393 C3389 1.393 . S
C3393 C3392 1.391 . S
C3394 H3384 0.950 . S
C3394 C3395 1.386 . S
C3394 C3396 1.391 . S
C3395 C3394 1.386 . S
C3395 C3399 1.393 . S
C3396 H3385 0.950 . S
C3396 C3394 1.391 . S
C3396 C3397 1.400 . S
C3397 C3391 1.491 . S
C3397 C3396 1.400 . S
C3397 C3398 1.398 . S
C3398 H3386 0.950 . S
C3398 C3397 1.398 . S
C3398 C3399 1.391 . S
C3399 H3387 0.950 . S
C3399 C3395 1.393 . S
C3399 C3398 1.391 . S
H3400 C3408 0.950 . S
H3401 C3413 0.950 . S
H3402 C3410 0.950 . S
H3403 C3412 0.950 . S
H3404 C3414 0.950 . S
H3405 C3416 0.950 . S
H3406 C3418 0.941 1_455 S
H3407 C3419 0.950 . S
C3408 H3400 0.950 . S
C3408 C3409 1.386 . S
C3408 C3410 1.391 . S
C3409 C3408 1.386 . S
C3409 C3413 1.393 . S
C3410 H3402 0.950 . S
C3410 C3408 1.391 . S
C3410 C3411 1.400 . S
C3411 C3410 1.400 . S
C3411 C3412 1.398 . S
C3411 C3417 1.491 . S
C3412 H3403 0.950 . S
C3412 C3411 1.398 . S
C3412 C3413 1.391 . S
C3413 H3401 0.950 . S
C3413 C3409 1.393 . S
C3413 C3412 1.391 . S
C3414 H3404 0.950 . S
C3414 C3415 1.386 . S
C3414 C3416 1.391 . S
C3415 C3414 1.386 . S
C3415 C3419 1.393 1_655 S
C3416 H3405 0.950 . S
C3416 C3414 1.391 . S
C3416 C3417 1.400 . S
C3417 C3411 1.491 . S
C3417 C3416 1.400 . S
C3417 C3418 1.398 . S
C3418 H3406 0.941 1_655 S
C3418 C3417 1.398 . S
C3418 C3419 1.391 1_655 S
C3419 H3407 0.950 . S
C3419 C3415 1.393 1_455 S
C3419 C3418 1.391 1_455 S
H3420 C3428 0.950 . S
H3421 C3433 0.950 . S
H3422 C3430 0.950 . S
H3423 C3432 0.950 . S
H3424 C3434 0.950 . S
H3425 C3436 0.950 . S
H3426 C3438 0.950 . S
H3427 C3439 0.950 . S
C3428 H3420 0.950 . S
C3428 C3429 1.386 . S
C3428 C3430 1.391 . S
C3429 C3428 1.386 . S
C3429 C3433 1.393 . S
C3430 H3422 0.950 . S
C3430 C3428 1.391 . S
C3430 C3431 1.400 . S
C3431 C3430 1.400 . S
C3431 C3432 1.398 . S
C3431 C3437 1.491 . S
C3432 H3423 0.950 . S
C3432 C3431 1.398 . S
C3432 C3433 1.391 . S
C3433 H3421 0.950 . S
C3433 C3429 1.393 . S
C3433 C3432 1.391 . S
C3434 H3424 0.950 . S
C3434 C3435 1.386 . S
C3434 C3436 1.391 . S
C3435 C3434 1.386 . S
C3435 C3439 1.393 . S
C3436 H3425 0.950 . S
C3436 C3434 1.391 . S
C3436 C3437 1.400 . S
C3437 C3431 1.491 . S
C3437 C3436 1.400 . S
C3437 C3438 1.398 . S
C3438 H3426 0.950 . S
C3438 C3437 1.398 . S
C3438 C3439 1.391 . S
C3439 H3427 0.950 . S
C3439 C3435 1.393 . S
C3439 C3438 1.391 . S
H3440 C3448 0.950 . S
H3441 C3453 0.950 . S
H3442 C3450 0.950 . S
H3443 C3452 0.950 . S
H3444 C3454 0.950 . S
H3445 C3456 0.950 . S
H3446 C3458 0.950 . S
H3447 C3459 0.950 . S
C3448 H3440 0.950 . S
C3448 C3449 1.386 . S
C3448 C3450 1.391 . S
C3449 C3448 1.386 . S
C3449 C3453 1.393 . S
C3450 H3442 0.950 . S
C3450 C3448 1.391 . S
C3450 C3451 1.400 . S
C3451 C3450 1.400 . S
C3451 C3452 1.398 . S
C3451 C3457 1.491 . S
C3452 H3443 0.950 . S
C3452 C3451 1.398 . S
C3452 C3453 1.391 . S
C3453 H3441 0.950 . S
C3453 C3449 1.393 . S
C3453 C3452 1.391 . S
C3454 H3444 0.950 . S
C3454 C3455 1.386 . S
C3454 C3456 1.391 . S
C3455 C3454 1.386 . S
C3455 C3459 1.393 . S
C3456 H3445 0.950 . S
C3456 C3454 1.391 . S
C3456 C3457 1.400 . S
C3457 C3451 1.491 . S
C3457 C3456 1.400 . S
C3457 C3458 1.398 . S
C3458 H3446 0.950 . S
C3458 C3457 1.398 . S
C3458 C3459 1.391 . S
C3459 H3447 0.950 . S
C3459 C3455 1.393 . S
C3459 C3458 1.391 . S
H3460 C3468 0.950 . S
H3461 C3473 0.950 . S
H3462 C3470 0.950 . S
H3463 C3472 0.950 . S
H3464 C3474 0.950 . S
H3465 C3476 0.950 . S
H3466 C3478 0.950 . S
H3467 C3479 0.950 . S
C3468 H3460 0.950 . S
C3468 C3469 1.386 . S
C3468 C3470 1.391 . S
C3469 C3468 1.386 . S
C3469 C3473 1.393 . S
C3470 H3462 0.950 . S
C3470 C3468 1.391 . S
C3470 C3471 1.400 . S
C3471 C3470 1.400 . S
C3471 C3472 1.398 . S
C3471 C3477 1.491 . S
C3472 H3463 0.950 . S
C3472 C3471 1.398 . S
C3472 C3473 1.391 . S
C3473 H3461 0.950 . S
C3473 C3469 1.393 . S
C3473 C3472 1.391 . S
C3474 H3464 0.950 . S
C3474 C3475 1.386 . S
C3474 C3476 1.391 . S
C3475 C3474 1.386 . S
C3475 C3479 1.393 . S
C3476 H3465 0.950 . S
C3476 C3474 1.391 . S
C3476 C3477 1.400 . S
C3477 C3471 1.491 . S
C3477 C3476 1.400 . S
C3477 C3478 1.398 . S
C3478 H3466 0.950 . S
C3478 C3477 1.398 . S
C3478 C3479 1.391 . S
C3479 H3467 0.950 . S
C3479 C3475 1.393 . S
C3479 C3478 1.391 . S
H3480 C3488 0.950 . S
H3481 C3493 0.950 . S
H3482 C3490 0.950 . S
H3483 C3492 0.950 . S
H3484 C3494 0.950 . S
H3485 C3496 0.950 . S
H3486 C3498 0.950 . S
H3487 C3499 0.950 . S
C3488 H3480 0.950 . S
C3488 C3489 1.386 . S
C3488 C3490 1.391 . S
C3489 C3488 1.386 . S
C3489 C3493 1.393 . S
C3490 H3482 0.950 . S
C3490 C3488 1.391 . S
C3490 C3491 1.400 . S
C3491 C3490 1.400 . S
C3491 C3492 1.398 . S
C3491 C3497 1.491 . S
C3492 H3483 0.950 . S
C3492 C3491 1.398 . S
C3492 C3493 1.391 . S
C3493 H3481 0.950 . S
C3493 C3489 1.393 . S
C3493 C3492 1.391 . S
C3494 H3484 0.950 . S
C3494 C3495 1.386 . S
C3494 C3496 1.391 . S
C3495 C3494 1.386 . S
C3495 C3499 1.393 . S
C3496 H3485 0.950 . S
C3496 C3494 1.391 . S
C3496 C3497 1.400 . S
C3497 C3491 1.491 . S
C3497 C3496 1.400 . S
C3497 C3498 1.398 . S
C3498 H3486 0.950 . S
C3498 C3497 1.398 . S
C3498 C3499 1.391 . S
C3499 H3487 0.950 . S
C3499 C3495 1.393 . S
C3499 C3498 1.391 . S
H3500 C3508 0.950 . S
H3501 C3513 0.954 . S
H3502 C3510 0.950 . S
H3503 C3512 0.940 1_556 S
H3504 C3514 0.950 1_556 S
H3505 C3516 0.950 1_556 S
H3506 C3518 0.950 . S
H3507 C3519 0.950 . S
C3508 H3500 0.950 . S
C3508 C3509 1.386 . S
C3508 C3510 1.391 . S
C3509 C3508 1.386 . S
C3509 C3513 1.393 . S
C3510 H3502 0.950 . S
C3510 C3508 1.391 . S
C3510 C3511 1.400 . S
C3511 C3510 1.400 . S
C3511 C3512 1.398 . S
C3511 C3517 1.491 . S
C3512 H3503 0.940 1_554 S
C3512 C3511 1.398 . S
C3512 C3513 1.391 . S
C3513 H3501 0.954 . S
C3513 C3509 1.393 . S
C3513 C3512 1.391 . S
C3514 H3504 0.950 1_554 S
C3514 C3515 1.386 . S
C3514 C3516 1.391 . S
C3515 C3514 1.386 . S
C3515 C3519 1.393 . S
C3516 H3505 0.950 1_554 S
C3516 C3514 1.391 . S
C3516 C3517 1.400 . S
C3517 C3511 1.491 . S
C3517 C3516 1.400 . S
C3517 C3518 1.398 . S
C3518 H3506 0.950 . S
C3518 C3517 1.398 . S
C3518 C3519 1.391 . S
C3519 H3507 0.950 . S
C3519 C3515 1.393 . S
C3519 C3518 1.391 . S
H3520 C3528 0.950 . S
H3521 C3533 0.950 . S
H3522 C3530 0.950 . S
H3523 C3532 0.950 . S
H3524 C3534 0.950 . S
H3525 C3536 0.950 . S
H3526 C3538 0.950 . S
H3527 C3539 0.950 . S
C3528 H3520 0.950 . S
C3528 C3529 1.386 . S
C3528 C3530 1.391 . S
C3529 C3528 1.386 . S
C3529 C3533 1.393 . S
C3530 H3522 0.950 . S
C3530 C3528 1.391 . S
C3530 C3531 1.400 . S
C3531 C3530 1.400 . S
C3531 C3532 1.398 . S
C3531 C3537 1.491 . S
C3532 H3523 0.950 . S
C3532 C3531 1.398 . S
C3532 C3533 1.391 . S
C3533 H3521 0.950 . S
C3533 C3529 1.393 . S
C3533 C3532 1.391 . S
C3534 H3524 0.950 . S
C3534 C3535 1.386 . S
C3534 C3536 1.391 . S
C3535 C3534 1.386 . S
C3535 C3539 1.393 . S
C3536 H3525 0.950 . S
C3536 C3534 1.391 . S
C3536 C3537 1.400 . S
C3537 C3531 1.491 . S
C3537 C3536 1.400 . S
C3537 C3538 1.398 . S
C3538 H3526 0.950 . S
C3538 C3537 1.398 . S
C3538 C3539 1.391 . S
C3539 H3527 0.950 . S
C3539 C3535 1.393 . S
C3539 C3538 1.391 . S
H3540 C3548 0.950 . S
H3541 C3553 0.950 . S
H3542 C3550 0.950 1_556 S
H3543 C3552 0.950 . S
H3544 C3554 0.950 . S
H3545 C3556 0.950 . S
H3546 C3558 0.950 . S
H3547 C3559 0.950 . S
C3548 H3540 0.950 . S
C3548 C3549 1.386 . S
C3548 C3550 1.391 . S
C3549 C3548 1.386 . S
C3549 C3553 1.393 . S
C3550 H3542 0.950 1_554 S
C3550 C3548 1.391 . S
C3550 C3551 1.400 . S
C3551 C3550 1.400 . S
C3551 C3552 1.398 . S
C3551 C3557 1.491 . S
C3552 H3543 0.950 . S
C3552 C3551 1.398 . S
C3552 C3553 1.391 . S
C3553 H3541 0.950 . S
C3553 C3549 1.393 . S
C3553 C3552 1.391 . S
C3554 H3544 0.950 . S
C3554 C3555 1.386 . S
C3554 C3556 1.391 . S
C3555 C3554 1.386 . S
C3555 C3559 1.393 1_554 S
C3556 H3545 0.950 . S
C3556 C3554 1.391 . S
C3556 C3557 1.400 . S
C3557 C3551 1.491 . S
C3557 C3556 1.400 . S
C3557 C3558 1.398 1_554 S
C3558 H3546 0.950 . S
C3558 C3557 1.398 1_556 S
C3558 C3559 1.391 . S
C3559 H3547 0.950 . S
C3559 C3555 1.393 1_556 S
C3559 C3558 1.391 . S
H3560 C3568 0.950 . S
H3561 C3573 0.950 . S
H3562 C3570 0.950 . S
H3563 C3572 0.950 . S
H3564 C3574 0.950 . S
H3565 C3576 0.950 . S
H3566 C3578 0.950 . S
H3567 C3579 0.950 . S
C3568 H3560 0.950 . S
C3568 C3569 1.386 . S
C3568 C3570 1.391 . S
C3569 C3568 1.386 . S
C3569 C3573 1.393 . S
C3570 H3562 0.950 . S
C3570 C3568 1.391 . S
C3570 C3571 1.400 . S
C3571 C3570 1.400 . S
C3571 C3572 1.398 . S
C3571 C3577 1.491 . S
C3572 H3563 0.950 . S
C3572 C3571 1.398 . S
C3572 C3573 1.391 . S
C3573 H3561 0.950 . S
C3573 C3569 1.393 . S
C3573 C3572 1.391 . S
C3574 H3564 0.950 . S
C3574 C3575 1.386 . S
C3574 C3576 1.391 . S
C3575 C3574 1.386 . S
C3575 C3579 1.393 . S
C3576 H3565 0.950 . S
C3576 C3574 1.391 . S
C3576 C3577 1.400 . S
C3577 C3571 1.491 . S
C3577 C3576 1.400 . S
C3577 C3578 1.398 . S
C3578 H3566 0.950 . S
C3578 C3577 1.398 . S
C3578 C3579 1.391 . S
C3579 H3567 0.950 . S
C3579 C3575 1.393 . S
C3579 C3578 1.391 . S
H3580 C3588 0.950 . S
H3581 C3593 0.950 . S
H3582 C3590 0.950 . S
H3583 C3592 0.950 . S
H3584 C3594 0.950 . S
H3585 C3596 0.950 . S
H3586 C3598 0.950 . S
H3587 C3599 0.950 . S
C3588 H3580 0.950 . S
C3588 C3589 1.386 . S
C3588 C3590 1.391 . S
C3589 C3588 1.386 . S
C3589 C3593 1.393 . S
C3590 H3582 0.950 . S
C3590 C3588 1.391 . S
C3590 C3591 1.400 . S
C3591 C3590 1.400 . S
C3591 C3592 1.398 . S
C3591 C3597 1.491 . S
C3592 H3583 0.950 . S
C3592 C3591 1.398 . S
C3592 C3593 1.391 . S
C3593 H3581 0.950 . S
C3593 C3589 1.393 . S
C3593 C3592 1.391 . S
C3594 H3584 0.950 . S
C3594 C3595 1.386 . S
C3594 C3596 1.391 . S
C3595 C3594 1.386 . S
C3595 C3599 1.393 . S
C3596 H3585 0.950 . S
C3596 C3594 1.391 . S
C3596 C3597 1.400 . S
C3597 C3591 1.491 . S
C3597 C3596 1.400 . S
C3597 C3598 1.398 . S
C3598 H3586 0.950 . S
C3598 C3597 1.398 . S
C3598 C3599 1.391 . S
C3599 H3587 0.950 . S
C3599 C3595 1.393 . S
C3599 C3598 1.391 . S
C1689 C105 1.854 . S
C1695 C392 1.718 . S
C1709 C65 2.252 . S
C1715 C483 2.171 . S
C1729 C73 1.575 . S
C1735 C560 1.508 . S
C1755 C658 1.458 . S
C1749 C92 1.597 . S
C1769 C17 1.604 . S
C1775 C742 1.551 . S
C1795 C814 0.975 . S
C1789 C37 1.007 . S
C1815 C903 0.907 . S
C1809 C49 0.885 . S
C1829 C8 1.505 . S
C1835 C980 1.318 . S
C1855 C399 2.039 . S
C1849 C231 2.079 . S
C1869 C241 0.718 . S
C1875 C490 0.724 . S
C1895 C567 1.232 . S
C1889 C273 1.213 . S
C1915 C644 1.519 . S
C1909 C171 1.635 . S
C1929 C227 2.124 . S
C1935 C728 1.935 . S
C1955 C830 1.131 . S
C1949 C245 1.188 . S
C1975 C910 0.820 . S
C1969 C269 0.803 . S
C1995 C987 1.502 . S
C1989 C175 1.628 . S
C2015 C406 1.393 . S
C2009 C162 1.487 . S
C2029 C289 1.994 . S
C2035 C1071 1.921 1_556 S
C2055 C1159 2.207 . S
C2049 C330 2.393 . S
C2075 C1232 0.542 . S
C2069 C317 0.509 . S
C2089 C120 0.955 . S
C2095 C994 0.933 . S
C2109 C134 1.495 . S
C2115 C574 1.438 . S
C2129 C331 2.234 . S
C2135 C1323 2.144 . S
C2155 C1400 0.672 . S
C2149 C303 0.695 . S
C2175 C403 1.715 . S
C2169 C59 1.843 . S
C2195 C1418 2.205 . S
C2189 C107 2.275 . S
C2209 C91 1.634 . S
C2215 C571 1.541 . S
C2229 C78 1.624 . S
C2235 C1318 1.509 . S
C2255 C730 1.549 . S
C2249 C7 1.555 . S
C2269 C51 1.040 . S
C2275 C1162 0.994 . S
C2295 C914 0.980 . S
C2289 C31 0.980 . S
C2315 C1495 1.357 . S
C2309 C22 1.506 . S
C2335 C410 2.066 . S
C2329 C143 2.165 . S
C2355 C1402 0.770 . S
C2349 C315 0.749 . S
C2369 C115 1.283 . S
C2375 C578 1.231 . S
C2389 C287 1.651 . S
C2395 C1327 1.561 . S
C2409 C147 2.040 . S
C2415 C739 1.974 . S
C2435 C1155 1.136 . S
C2429 C311 1.256 . S
C2449 C119 0.824 . S
C2455 C898 0.810 . S
C2469 C283 1.665 . S
C2475 C1502 1.548 . S
C2489 C190 1.494 . S
C2495 C394 1.391 1_554 S
C2509 C177 2.019 . S
C2515 C1082 1.958 . S
C2529 C260 2.420 . S
C2535 C812 2.237 . S
C2549 C247 0.554 . S
C2555 C1243 0.626 . S
C2575 C1486 0.910 . S
C2569 C274 0.896 1_565 S
C2589 C218 1.489 . S
C2595 C562 1.445 . S
C2615 C662 2.196 . S
C2609 C261 2.271 . S
C2635 C487 0.736 . S
C2629 C205 0.729 . S
C2649 C77 1.855 . S
C2655 C1568 1.711 . S
C2675 C1407 2.186 . S
C2669 C93 2.248 . S
C2689 C101 1.577 . S
C2695 C1652 1.504 . S
C2709 C64 1.598 . S
C2715 C1330 1.464 . S
C2729 C45 1.608 . S
C2735 C1078 1.539 . S
C2755 C1150 0.951 . S
C2749 C9 1.006 . S
C2775 C1239 0.928 . S
C2769 C21 0.838 . S
C2795 C1484 1.345 . S
C2789 C36 1.517 . S
C2815 C1575 2.028 . S
C2809 C259 2.087 . S
C2829 C185 0.729 . S
C2835 C1414 0.706 . S
C2855 C1659 1.207 . S
C2849 C203 1.228 . S
C2875 C1316 1.535 . S
C2869 C213 1.637 . S
C2895 C1064 1.947 . S
C2889 C255 2.130 . S
C2909 C189 1.183 . S
C2915 C1166 1.123 . S
C2935 C1246 0.819 . S
C2929 C199 0.803 . S
C2949 C217 1.628 . S
C2955 C1491 1.487 . S
C2975 C1582 1.382 . S
C2969 C316 1.487 . S
C2989 C135 1.997 . S
C2995 C735 1.909 . S
C3015 C823 2.229 . S
C3009 C148 2.408 . S
C3035 C896 0.539 . S
C3029 C163 0.513 . S
C3055 C1498 0.960 . S
C3049 C302 0.918 . S
C3069 C288 1.490 1_554 S
C3075 C1666 1.431 . S
C3095 C651 2.163 . S
C3089 C149 2.229 . S
C3115 C476 0.707 . S
C3109 C121 0.688 . S
C3129 C87 1.846 . S
C3135 C1579 1.713 . S
C3155 C494 2.223 . S
C3149 C79 2.265 . S
C3169 C63 1.633 . S
C3175 C1663 1.541 . S
C3189 C106 1.621 . S
C3195 C646 1.515 . S
C3209 C35 1.537 . S
C3215 C1066 1.566 . S
C3235 C826 0.952 . S
C3229 C23 1.017 . S
C3249 C3 0.958 . S
C3255 C1250 0.995 . S
C3269 C50 1.512 . S
C3275 C991 1.374 . S
C3295 C1586 2.065 . S
C3289 C325 2.165 . S
C3309 C161 0.758 . S
C3315 C478 0.759 . S
C3335 C1670 1.226 . S
C3329 C297 1.284 . S
C3349 C133 1.666 . S
C3355 C655 1.598 . S
C3369 C329 2.060 . S
C3375 C1075 1.996 . S
C3395 C819 1.179 . S
C3389 C157 1.259 . S
C3409 C301 0.827 . S
C3415 C1234 0.824 1_655 S
C3435 C998 1.529 . S
C3429 C129 1.661 . S
C3455 C1570 1.404 . S
C3449 C246 1.492 . S
C3475 C746 1.951 1_665 S
C3469 C219 2.018 . S
C3489 C232 2.429 . S
C3495 C1148 2.258 . S
C3515 C907 0.617 . S
C3509 C191 0.556 . S
C3529 C204 0.888 . S
C3535 C982 0.916 . S
C3549 C176 1.493 . S
C3555 C1654 1.438 1_554 S
C3575 C1334 2.183 . S
C3569 C233 2.267 1_565 S
C3595 C1411 0.750 . S
C3589 C275 0.725 . S
