# Generated by pormake.
# Topology iac, (4,6)-cn, num edge types: 1
# Building blocks:
#     Node 0, Type 0, BuildingBlock: QUQFOY_clean_sbu_3, # of connection points: 4
#     Node 1, Type 0, BuildingBlock: QUQFOY_clean_sbu_3, # of connection points: 4
#     Node 2, Type 0, BuildingBlock: QUQFOY_clean_sbu_3, # of connection points: 4
#     Node 3, Type 0, BuildingBlock: QUQFOY_clean_sbu_3, # of connection points: 4
#     Node 4, Type 0, BuildingBlock: QUQFOY_clean_sbu_3, # of connection points: 4
#     Node 5, Type 0, BuildingBlock: QUQFOY_clean_sbu_3, # of connection points: 4
#     Node 6, Type 0, BuildingBlock: QUQFOY_clean_sbu_3, # of connection points: 4
#     Node 7, Type 0, BuildingBlock: QUQFOY_clean_sbu_3, # of connection points: 4
#     Node 8, Type 0, BuildingBlock: QUQFOY_clean_sbu_3, # of connection points: 4
#     Node 9, Type 0, BuildingBlock: QUQFOY_clean_sbu_3, # of connection points: 4
#     Node 10, Type 0, BuildingBlock: QUQFOY_clean_sbu_3, # of connection points: 4
#     Node 11, Type 0, BuildingBlock: QUQFOY_clean_sbu_3, # of connection points: 4
#     Node 12, Type 0, BuildingBlock: QUQFOY_clean_sbu_3, # of connection points: 4
#     Node 13, Type 0, BuildingBlock: QUQFOY_clean_sbu_3, # of connection points: 4
#     Node 14, Type 0, BuildingBlock: QUQFOY_clean_sbu_3, # of connection points: 4
#     Node 15, Type 0, BuildingBlock: QUQFOY_clean_sbu_3, # of connection points: 4
#     Node 16, Type 0, BuildingBlock: QUQFOY_clean_sbu_3, # of connection points: 4
#     Node 17, Type 0, BuildingBlock: QUQFOY_clean_sbu_3, # of connection points: 4
#     Node 18, Type 0, BuildingBlock: QUQFOY_clean_sbu_3, # of connection points: 4
#     Node 19, Type 0, BuildingBlock: QUQFOY_clean_sbu_3, # of connection points: 4
#     Node 20, Type 0, BuildingBlock: QUQFOY_clean_sbu_3, # of connection points: 4
#     Node 21, Type 0, BuildingBlock: QUQFOY_clean_sbu_3, # of connection points: 4
#     Node 22, Type 0, BuildingBlock: QUQFOY_clean_sbu_3, # of connection points: 4
#     Node 23, Type 0, BuildingBlock: QUQFOY_clean_sbu_3, # of connection points: 4
#     Node 24, Type 1, BuildingBlock: CIFDUS_clean_sbu_1, # of connection points: 6
#     Node 25, Type 1, BuildingBlock: CIFDUS_clean_sbu_1, # of connection points: 6
#     Node 26, Type 1, BuildingBlock: CIFDUS_clean_sbu_1, # of connection points: 6
#     Node 27, Type 1, BuildingBlock: CIFDUS_clean_sbu_1, # of connection points: 6
#     Node 28, Type 1, BuildingBlock: CIFDUS_clean_sbu_1, # of connection points: 6
#     Node 29, Type 1, BuildingBlock: CIFDUS_clean_sbu_1, # of connection points: 6
#     Node 30, Type 1, BuildingBlock: CIFDUS_clean_sbu_1, # of connection points: 6
#     Node 31, Type 1, BuildingBlock: CIFDUS_clean_sbu_1, # of connection points: 6
#     Node 32, Type 1, BuildingBlock: CIFDUS_clean_sbu_1, # of connection points: 6
#     Node 33, Type 1, BuildingBlock: CIFDUS_clean_sbu_1, # of connection points: 6
#     Node 34, Type 1, BuildingBlock: CIFDUS_clean_sbu_1, # of connection points: 6
#     Node 35, Type 1, BuildingBlock: CIFDUS_clean_sbu_1, # of connection points: 6
#     Node 36, Type 1, BuildingBlock: CIFDUS_clean_sbu_1, # of connection points: 6
#     Node 37, Type 1, BuildingBlock: CIFDUS_clean_sbu_1, # of connection points: 6
#     Node 38, Type 1, BuildingBlock: CIFDUS_clean_sbu_1, # of connection points: 6
#     Node 39, Type 1, BuildingBlock: CIFDUS_clean_sbu_1, # of connection points: 6
#     Edge 40, Type (0, 1), BuildingBlock: KIFKEQ_clean_linker_1, # of connection points: 2
#     Edge 41, Type (0, 1), BuildingBlock: KIFKEQ_clean_linker_1, # of connection points: 2
#     Edge 42, Type (0, 1), BuildingBlock: KIFKEQ_clean_linker_1, # of connection points: 2
#     Edge 43, Type (0, 1), BuildingBlock: KIFKEQ_clean_linker_1, # of connection points: 2
#     Edge 44, Type (0, 1), BuildingBlock: KIFKEQ_clean_linker_1, # of connection points: 2
#     Edge 45, Type (0, 1), BuildingBlock: KIFKEQ_clean_linker_1, # of connection points: 2
#     Edge 46, Type (0, 1), BuildingBlock: KIFKEQ_clean_linker_1, # of connection points: 2
#     Edge 47, Type (0, 1), BuildingBlock: KIFKEQ_clean_linker_1, # of connection points: 2
#     Edge 48, Type (0, 1), BuildingBlock: KIFKEQ_clean_linker_1, # of connection points: 2
#     Edge 49, Type (0, 1), BuildingBlock: KIFKEQ_clean_linker_1, # of connection points: 2
#     Edge 50, Type (0, 1), BuildingBlock: KIFKEQ_clean_linker_1, # of connection points: 2
#     Edge 51, Type (0, 1), BuildingBlock: KIFKEQ_clean_linker_1, # of connection points: 2
#     Edge 52, Type (0, 1), BuildingBlock: KIFKEQ_clean_linker_1, # of connection points: 2
#     Edge 53, Type (0, 1), BuildingBlock: KIFKEQ_clean_linker_1, # of connection points: 2
#     Edge 54, Type (0, 1), BuildingBlock: KIFKEQ_clean_linker_1, # of connection points: 2
#     Edge 55, Type (0, 1), BuildingBlock: KIFKEQ_clean_linker_1, # of connection points: 2
#     Edge 56, Type (0, 1), BuildingBlock: KIFKEQ_clean_linker_1, # of connection points: 2
#     Edge 57, Type (0, 1), BuildingBlock: KIFKEQ_clean_linker_1, # of connection points: 2
#     Edge 58, Type (0, 1), BuildingBlock: KIFKEQ_clean_linker_1, # of connection points: 2
#     Edge 59, Type (0, 1), BuildingBlock: KIFKEQ_clean_linker_1, # of connection points: 2
#     Edge 60, Type (0, 1), BuildingBlock: KIFKEQ_clean_linker_1, # of connection points: 2
#     Edge 61, Type (0, 1), BuildingBlock: KIFKEQ_clean_linker_1, # of connection points: 2
#     Edge 62, Type (0, 1), BuildingBlock: KIFKEQ_clean_linker_1, # of connection points: 2
#     Edge 63, Type (0, 1), BuildingBlock: KIFKEQ_clean_linker_1, # of connection points: 2
#     Edge 64, Type (0, 1), BuildingBlock: KIFKEQ_clean_linker_1, # of connection points: 2
#     Edge 65, Type (0, 1), BuildingBlock: KIFKEQ_clean_linker_1, # of connection points: 2
#     Edge 66, Type (0, 1), BuildingBlock: KIFKEQ_clean_linker_1, # of connection points: 2
#     Edge 67, Type (0, 1), BuildingBlock: KIFKEQ_clean_linker_1, # of connection points: 2
#     Edge 68, Type (0, 1), BuildingBlock: KIFKEQ_clean_linker_1, # of connection points: 2
#     Edge 69, Type (0, 1), BuildingBlock: KIFKEQ_clean_linker_1, # of connection points: 2
#     Edge 70, Type (0, 1), BuildingBlock: KIFKEQ_clean_linker_1, # of connection points: 2
#     Edge 71, Type (0, 1), BuildingBlock: KIFKEQ_clean_linker_1, # of connection points: 2
#     Edge 72, Type (0, 1), BuildingBlock: KIFKEQ_clean_linker_1, # of connection points: 2
#     Edge 73, Type (0, 1), BuildingBlock: KIFKEQ_clean_linker_1, # of connection points: 2
#     Edge 74, Type (0, 1), BuildingBlock: KIFKEQ_clean_linker_1, # of connection points: 2
#     Edge 75, Type (0, 1), BuildingBlock: KIFKEQ_clean_linker_1, # of connection points: 2
#     Edge 76, Type (0, 1), BuildingBlock: KIFKEQ_clean_linker_1, # of connection points: 2
#     Edge 77, Type (0, 1), BuildingBlock: KIFKEQ_clean_linker_1, # of connection points: 2
#     Edge 78, Type (0, 1), BuildingBlock: KIFKEQ_clean_linker_1, # of connection points: 2
#     Edge 79, Type (0, 1), BuildingBlock: KIFKEQ_clean_linker_1, # of connection points: 2
#     Edge 80, Type (0, 1), BuildingBlock: KIFKEQ_clean_linker_1, # of connection points: 2
#     Edge 81, Type (0, 1), BuildingBlock: KIFKEQ_clean_linker_1, # of connection points: 2
#     Edge 82, Type (0, 1), BuildingBlock: KIFKEQ_clean_linker_1, # of connection points: 2
#     Edge 83, Type (0, 1), BuildingBlock: KIFKEQ_clean_linker_1, # of connection points: 2
#     Edge 84, Type (0, 1), BuildingBlock: KIFKEQ_clean_linker_1, # of connection points: 2
#     Edge 85, Type (0, 1), BuildingBlock: KIFKEQ_clean_linker_1, # of connection points: 2
#     Edge 86, Type (0, 1), BuildingBlock: KIFKEQ_clean_linker_1, # of connection points: 2
#     Edge 87, Type (0, 1), BuildingBlock: KIFKEQ_clean_linker_1, # of connection points: 2
#     Edge 88, Type (0, 1), BuildingBlock: KIFKEQ_clean_linker_1, # of connection points: 2
#     Edge 89, Type (0, 1), BuildingBlock: KIFKEQ_clean_linker_1, # of connection points: 2
#     Edge 90, Type (0, 1), BuildingBlock: KIFKEQ_clean_linker_1, # of connection points: 2
#     Edge 91, Type (0, 1), BuildingBlock: KIFKEQ_clean_linker_1, # of connection points: 2
#     Edge 92, Type (0, 1), BuildingBlock: KIFKEQ_clean_linker_1, # of connection points: 2
#     Edge 93, Type (0, 1), BuildingBlock: KIFKEQ_clean_linker_1, # of connection points: 2
#     Edge 94, Type (0, 1), BuildingBlock: KIFKEQ_clean_linker_1, # of connection points: 2
#     Edge 95, Type (0, 1), BuildingBlock: KIFKEQ_clean_linker_1, # of connection points: 2
#     Edge 96, Type (0, 1), BuildingBlock: KIFKEQ_clean_linker_1, # of connection points: 2
#     Edge 97, Type (0, 1), BuildingBlock: KIFKEQ_clean_linker_1, # of connection points: 2
#     Edge 98, Type (0, 1), BuildingBlock: KIFKEQ_clean_linker_1, # of connection points: 2
#     Edge 99, Type (0, 1), BuildingBlock: KIFKEQ_clean_linker_1, # of connection points: 2
#     Edge 100, Type (0, 1), BuildingBlock: KIFKEQ_clean_linker_1, # of connection points: 2
#     Edge 101, Type (0, 1), BuildingBlock: KIFKEQ_clean_linker_1, # of connection points: 2
#     Edge 102, Type (0, 1), BuildingBlock: KIFKEQ_clean_linker_1, # of connection points: 2
#     Edge 103, Type (0, 1), BuildingBlock: KIFKEQ_clean_linker_1, # of connection points: 2
#     Edge 104, Type (0, 1), BuildingBlock: KIFKEQ_clean_linker_1, # of connection points: 2
#     Edge 105, Type (0, 1), BuildingBlock: KIFKEQ_clean_linker_1, # of connection points: 2
#     Edge 106, Type (0, 1), BuildingBlock: KIFKEQ_clean_linker_1, # of connection points: 2
#     Edge 107, Type (0, 1), BuildingBlock: KIFKEQ_clean_linker_1, # of connection points: 2
#     Edge 108, Type (0, 1), BuildingBlock: KIFKEQ_clean_linker_1, # of connection points: 2
#     Edge 109, Type (0, 1), BuildingBlock: KIFKEQ_clean_linker_1, # of connection points: 2
#     Edge 110, Type (0, 1), BuildingBlock: KIFKEQ_clean_linker_1, # of connection points: 2
#     Edge 111, Type (0, 1), BuildingBlock: KIFKEQ_clean_linker_1, # of connection points: 2
#     Edge 112, Type (0, 1), BuildingBlock: KIFKEQ_clean_linker_1, # of connection points: 2
#     Edge 113, Type (0, 1), BuildingBlock: KIFKEQ_clean_linker_1, # of connection points: 2
#     Edge 114, Type (0, 1), BuildingBlock: KIFKEQ_clean_linker_1, # of connection points: 2
#     Edge 115, Type (0, 1), BuildingBlock: KIFKEQ_clean_linker_1, # of connection points: 2
#     Edge 116, Type (0, 1), BuildingBlock: KIFKEQ_clean_linker_1, # of connection points: 2
#     Edge 117, Type (0, 1), BuildingBlock: KIFKEQ_clean_linker_1, # of connection points: 2
#     Edge 118, Type (0, 1), BuildingBlock: KIFKEQ_clean_linker_1, # of connection points: 2
#     Edge 119, Type (0, 1), BuildingBlock: KIFKEQ_clean_linker_1, # of connection points: 2
#     Edge 120, Type (0, 1), BuildingBlock: KIFKEQ_clean_linker_1, # of connection points: 2
#     Edge 121, Type (0, 1), BuildingBlock: KIFKEQ_clean_linker_1, # of connection points: 2
#     Edge 122, Type (0, 1), BuildingBlock: KIFKEQ_clean_linker_1, # of connection points: 2
#     Edge 123, Type (0, 1), BuildingBlock: KIFKEQ_clean_linker_1, # of connection points: 2
#     Edge 124, Type (0, 1), BuildingBlock: KIFKEQ_clean_linker_1, # of connection points: 2
#     Edge 125, Type (0, 1), BuildingBlock: KIFKEQ_clean_linker_1, # of connection points: 2
#     Edge 126, Type (0, 1), BuildingBlock: KIFKEQ_clean_linker_1, # of connection points: 2
#     Edge 127, Type (0, 1), BuildingBlock: KIFKEQ_clean_linker_1, # of connection points: 2
#     Edge 128, Type (0, 1), BuildingBlock: KIFKEQ_clean_linker_1, # of connection points: 2
#     Edge 129, Type (0, 1), BuildingBlock: KIFKEQ_clean_linker_1, # of connection points: 2
#     Edge 130, Type (0, 1), BuildingBlock: KIFKEQ_clean_linker_1, # of connection points: 2
#     Edge 131, Type (0, 1), BuildingBlock: KIFKEQ_clean_linker_1, # of connection points: 2
#     Edge 132, Type (0, 1), BuildingBlock: KIFKEQ_clean_linker_1, # of connection points: 2
#     Edge 133, Type (0, 1), BuildingBlock: KIFKEQ_clean_linker_1, # of connection points: 2
#     Edge 134, Type (0, 1), BuildingBlock: KIFKEQ_clean_linker_1, # of connection points: 2
#     Edge 135, Type (0, 1), BuildingBlock: KIFKEQ_clean_linker_1, # of connection points: 2
# Relax obj value: 0.093
# Max RMSD: 0.172
# Mean RMSD: 0.088
data_MOF--net-iac--node1-QUQFOY_clean_sbu_3--node2-CIFDUS_clean_sbu_1--edge1-KIFKEQ_clean_linker_1
_symmetry_space_group_name_H-M    P1
_symmetry_Int_Tables_number       1
_symmetry_cell_setting            triclinic
loop_
_symmetry_equiv_pos_as_xyz
'x, y, z'
_cell_length_a     55.23979
_cell_length_b     56.136905
_cell_length_c     55.805458
_cell_angle_alpha  90.853663
_cell_angle_beta   89.80472
_cell_angle_gamma 90.455091
loop_
_atom_site_label
_atom_site_type_symbol
_atom_site_fract_x
_atom_site_fract_y
_atom_site_fract_z
_atom_type_partial_charge
C0 C 0.95285 0.23361 0.14586 0.0
O1 O 0.96525 0.21979 0.1587 0.0
Cd2 Cd 0.00838 0.21509 0.15578 0.0
O3 O 0.9628 0.2458 0.12944 0.0
Cd4 Cd 0.00337 0.2519 0.11151 0.0
C5 C 0.01225 0.19245 0.0984 0.0
O6 O 0.02474 0.25404 0.1499 0.0
O7 O 0.04681 0.2564 0.11802 0.0
O8 O 0.98876 0.29252 0.10882 0.0
C9 C 0.04562 0.25644 0.14071 0.0
O10 O 0.01475 0.18979 0.12086 0.0
C11 C -0.00613 0.29547 0.08689 0.0
O12 O 0.00667 0.21273 0.08993 0.0
O13 O 0.00351 0.27791 0.07589 0.0
C14 C 0.94905 0.76909 0.33695 0.0
O15 O 0.96076 0.77779 0.31946 0.0
Cd16 Cd 0.00362 0.7825 0.31653 0.0
O17 O 0.96007 0.76002 0.35459 0.0
Cd18 Cd 0.00238 0.75359 0.3672 0.0
C19 C 0.00627 0.81415 0.36931 0.0
O20 O 0.0213 0.7461 0.32843 0.0
O21 O 0.04552 0.75458 0.35751 0.0
O22 O 0.99037 0.71425 0.38121 0.0
C23 C 0.04288 0.74901 0.33556 0.0
O24 O 0.00926 0.81386 0.34666 0.0
C25 C -0.00025 0.71665 0.40188 0.0
O26 O 0.00243 0.79497 0.38073 0.0
O27 O 0.01024 0.7364 0.40658 0.0
C28 C 0.45312 0.73986 0.65392 0.0
O29 O 0.46624 0.72733 0.66745 0.0
Cd30 Cd 0.50849 0.71938 0.66272 0.0
O31 O 0.46203 0.74983 0.63545 0.0
Cd32 Cd 0.50223 0.75515 0.61565 0.0
C33 C 0.51067 0.69518 0.60502 0.0
O34 O 0.52315 0.75762 0.65355 0.0
O35 O 0.54637 0.75977 0.62269 0.0
O36 O 0.48823 0.79597 0.61208 0.0
C37 C 0.54437 0.75958 0.64532 0.0
O38 O 0.51352 0.69359 0.62759 0.0
C39 C 0.49405 0.79871 0.59029 0.0
O40 O 0.50476 0.71496 0.59563 0.0
O41 O 0.50335 0.78078 0.5796 0.0
C42 C 0.45202 0.26496 0.83911 0.0
O43 O 0.46549 0.27575 0.82424 0.0
Cd44 Cd 0.50843 0.28017 0.82879 0.0
O45 O 0.46118 0.25405 0.85665 0.0
Cd46 Cd 0.50124 0.24586 0.8732 0.0
C47 C 0.50508 0.30504 0.88491 0.0
O48 O 0.52587 0.24219 0.83677 0.0
O49 O 0.54479 0.24684 0.87043 0.0
O50 O 0.48885 0.20471 0.87694 0.0
C51 C 0.54579 0.24258 0.84807 0.0
O52 O 0.51058 0.30753 0.86292 0.0
C53 C 0.49417 0.20285 0.89894 0.0
O54 O 0.49978 0.28461 0.89322 0.0
O55 O 0.50221 0.2215 0.90954 0.0
C56 C 0.0747 0.00841 0.29175 0.0
O57 O 0.06201 0.02138 0.27829 0.0
Cd58 Cd 0.07187 0.03037 0.2375 0.0
O59 O 0.09393 -0.00135 0.28384 0.0
Cd60 Cd 0.11657 0.99485 0.24551 0.0
C61 C 0.12945 0.05448 0.23982 0.0
O62 O 0.08133 0.9929 0.21922 0.0
O63 O 0.11635 0.9948 0.20193 0.0
O64 O 0.12057 0.9517 0.24843 0.0
C65 C 0.09354 0.99287 0.19994 0.0
O66 O 0.10683 0.05734 0.23673 0.0
C67 C 0.14299 0.95176 0.25313 0.0
O68 O 0.13797 0.0339 0.24415 0.0
O69 O 0.1535 0.97198 0.2543 0.0
C70 C 0.29768 0.91039 0.49889 0.0
O71 O 0.28856 0.92922 0.49063 0.0
Cd72 Cd 0.24756 0.9291 0.47681 0.0
O73 O 0.28443 0.89239 0.50337 0.0
Cd74 Cd 0.24076 0.88286 0.50429 0.0
C75 C 0.24788 0.87631 0.44523 0.0
O76 O 0.22116 0.92161 0.51024 0.0
O77 O 0.19936 0.89342 0.4944 0.0
O78 O 0.24798 0.87032 0.54486 0.0
C79 C 0.20048 0.91426 0.50345 0.0
O80 O 0.24636 0.89891 0.44417 0.0
C81 C 0.23704 0.85043 0.54276 0.0
O82 O 0.24737 0.86587 0.46527 0.0
O83 O 0.22732 0.84556 0.52265 0.0
C84 C 0.40912 0.98803 0.79201 0.0
O85 O 0.42557 0.98061 0.77783 0.0
Cd86 Cd 0.42299 0.97759 0.73489 0.0
O87 O 0.38944 -0.00373 0.78389 0.0
Cd88 Cd 0.37111 0.00277 0.74437 0.0
C89 C 0.37254 0.94237 0.73609 0.0
O90 O 0.407 0.01424 0.72095 0.0
O91 O 0.37366 0.00788 0.70161 0.0
O92 O 0.35548 0.03989 0.76091 0.0
C93 C 0.39569 0.01425 0.70119 0.0
O94 O 0.39484 0.94421 0.73053 0.0
C95 C 0.33411 0.03683 0.75304 0.0
O96 O 0.36039 0.96059 0.74256 0.0
O97 O 0.32964 0.01737 0.74193 0.0
C98 C 0.28523 0.0803 0.99159 0.0
O99 O 0.27018 0.06669 0.00199 0.0
Cd100 Cd 0.23266 0.08174 0.01729 0.0
O101 O 0.27983 0.10177 0.98707 0.0
Cd102 Cd 0.24404 0.12832 0.98824 0.0
C103 C 0.2502 0.13277 0.04866 0.0
O104 O 0.21348 0.09749 0.98265 0.0
O105 O 0.19949 0.13234 0.99135 0.0
O106 O 0.25615 0.1315 0.94692 0.0
C107 C 0.19525 0.11086 0.98527 0.0
O108 O 0.24249 0.11131 0.04885 0.0
C109 C 0.25462 0.15394 0.94551 0.0
O110 O 0.25322 0.14352 0.02887 0.0
O111 O 0.24848 0.1652 0.96454 0.0
C112 C 0.79458 0.40796 0.98853 0.0
O113 O 0.78087 0.42386 0.9801 0.0
Cd114 Cd 0.73776 0.42365 0.97824 0.0
O115 O 0.78572 0.38971 -0.00116 0.0
Cd116 Cd 0.74473 0.37361 0.00816 0.0
C117 C 0.73689 0.37072 0.94713 0.0
O118 O 0.72547 0.41147 0.01697 0.0
O119 O 0.70132 0.38127 0.01501 0.0
O120 O 0.76092 0.35968 0.04617 0.0
C121 C 0.70409 0.40345 0.01874 0.0
O122 O 0.73266 0.39299 0.94728 0.0
C123 C 0.75225 0.33869 0.04426 0.0
O124 O 0.74217 0.36 0.9664 0.0
O125 O 0.74044 0.33376 0.02529 0.0
C126 C 0.92145 0.49023 0.28818 0.0
O127 O 0.93611 0.48135 0.27296 0.0
Cd128 Cd 0.92753 0.47599 0.23121 0.0
O129 O 0.9013 0.49869 0.28157 0.0
Cd130 Cd 0.87876 0.50474 0.24448 0.0
C131 C 0.87481 0.44492 0.23891 0.0
O132 O 0.91233 0.51325 0.21731 0.0
O133 O 0.87721 0.50699 0.20144 0.0
O134 O 0.86583 0.5428 0.26092 0.0
C135 C 0.8993 0.51247 0.19863 0.0
O136 O 0.89685 0.44437 0.23219 0.0
C137 C 0.84359 0.53948 0.25603 0.0
O138 O 0.86471 0.46437 0.24495 0.0
O139 O 0.83771 0.51975 0.24617 0.0
C140 C 0.79448 0.58729 0.49229 0.0
O141 O 0.7808 0.5726 0.50304 0.0
Cd142 Cd 0.74116 0.5836 0.51692 0.0
O143 O 0.7869 0.60798 0.48735 0.0
Cd144 Cd 0.74936 0.63161 0.48957 0.0
C145 C 0.75328 0.63435 0.55033 0.0
O146 O 0.72075 0.59906 0.48259 0.0
O147 O 0.70484 0.63291 0.49217 0.0
O148 O 0.76047 0.63936 0.44853 0.0
C149 C 0.7018 0.6114 0.48552 0.0
O150 O 0.74703 0.61246 0.54992 0.0
C151 C 0.75845 0.66182 0.44981 0.0
O152 O 0.75633 0.64561 0.53086 0.0
O153 O 0.7523 0.67068 0.47003 0.0
C154 C 0.58061 0.49638 0.79627 0.0
O155 O 0.56623 0.50773 0.78296 0.0
Cd156 Cd 0.57499 0.51772 0.74194 0.0
O157 O 0.60069 0.48887 0.78801 0.0
Cd158 Cd 0.62305 0.48655 0.74959 0.0
C159 C 0.6303 0.54692 0.74555 0.0
O160 O 0.588 0.48179 0.72284 0.0
O161 O 0.62297 0.48608 0.706 0.0
O162 O 0.6276 0.44545 0.7615 0.0
C163 C 0.60033 0.48298 0.70367 0.0
O164 O 0.60771 0.54725 0.74103 0.0
C165 C 0.65039 0.44444 0.759 0.0
O166 O 0.64067 0.52746 0.75101 0.0
O167 O 0.66102 0.46333 0.75203 0.0
C168 C 0.96796 0.74867 0.82694 0.0
O169 O 0.98226 0.76123 0.81443 0.0
Cd170 Cd 0.02031 0.77445 0.82958 0.0
O171 O 0.9745 0.74117 0.84741 0.0
Cd172 Cd 0.01082 0.74101 0.87424 0.0
C173 C 0.00109 0.80008 0.88334 0.0
O174 O 0.04042 0.73906 0.84195 0.0
O175 O 0.05485 0.74629 0.87722 0.0
O176 O 0.00172 0.69872 0.87676 0.0
C177 C 0.0588 0.74132 0.85533 0.0
O178 O 0.00833 0.80191 0.86176 0.0
C179 C 0.00647 0.69665 0.89885 0.0
O180 O -8e-05 0.77977 0.8933 0.0
O181 O 0.012 0.7157 0.91026 0.0
C182 C 0.97124 0.26007 0.66628 0.0
O183 O 0.9883 0.25283 0.67941 0.0
Cd184 Cd 0.02665 0.24162 0.66244 0.0
O185 O 0.97479 0.26349 0.64402 0.0
Cd186 Cd 0.0068 0.26281 0.61295 0.0
C187 C 0.0059 0.20327 0.61761 0.0
O188 O 0.04165 0.27248 0.63736 0.0
O189 O 0.04918 0.25582 0.60305 0.0
O190 O 0.99306 0.3025 0.60564 0.0
C191 C 0.05724 0.26526 0.62223 0.0
O192 O 0.01744 0.20692 0.63709 0.0
C193 C 0.99347 0.3012 0.58294 0.0
O194 O -0.00213 0.22059 0.60544 0.0
O195 O -0.00046 0.28133 0.57351 0.0
C196 C 0.47083 0.2494 0.32718 0.0
O197 O 0.48541 0.26288 0.31602 0.0
Cd198 Cd 0.52443 0.27304 0.33177 0.0
O199 O 0.47694 0.24019 0.34702 0.0
Cd200 Cd 0.51224 0.23887 0.37484 0.0
C201 C 0.5061 0.29848 0.38554 0.0
O202 O 0.54337 0.23693 0.34405 0.0
O203 O 0.55623 0.24401 0.37997 0.0
O204 O 0.50619 0.19615 0.37525 0.0
C205 C 0.56114 0.2389 0.35828 0.0
O206 O 0.5151 0.30047 0.36462 0.0
C207 C 0.50596 0.19377 0.3978 0.0
O208 O 0.50193 0.2779 0.3942 0.0
O209 O 0.50751 0.21282 0.41038 0.0
C210 C 0.47483 0.74563 0.19086 0.0
O211 O 0.49132 0.73331 0.20037 0.0
Cd212 Cd 0.5295 0.72417 0.18189 0.0
O213 O 0.47774 0.75456 0.17013 0.0
Cd214 Cd 0.5071 0.75778 0.13656 0.0
C215 C 0.50729 0.69729 0.13007 0.0
O216 O 0.54186 0.7588 0.16141 0.0
O217 O 0.54971 0.75639 0.12366 0.0
O218 O 0.49676 0.7994 0.13354 0.0
C219 C 0.55756 0.75646 0.14496 0.0
O220 O 0.51872 0.69643 0.14984 0.0
C221 C 0.49299 0.79909 0.1111 0.0
O222 O 0.49958 0.71698 0.12192 0.0
O223 O 0.49506 0.77911 0.10026 0.0
C224 C 0.91468 0.99165 0.77572 0.0
O225 O 0.92664 0.9781 0.76175 0.0
Cd226 Cd 0.90991 0.96472 0.7246 0.0
O227 O 0.89418 -0.00029 0.76941 0.0
Cd228 Cd 0.86627 -0.00049 0.73453 0.0
C229 C 0.85621 0.94107 0.74633 0.0
O230 O 0.89731 -0.00035 0.70388 0.0
O231 O 0.86084 0.9926 0.69147 0.0
O232 O 0.86781 0.0422 0.73898 0.0
C233 C 0.88271 -0.00242 0.68646 0.0
O234 O 0.87763 0.93843 0.73828 0.0
C235 C 0.84523 0.04583 0.73802 0.0
O236 O 0.84657 0.96167 0.74728 0.0
O237 O 0.83155 0.02747 0.73696 0.0
C238 C 0.77082 0.08125 0.49669 0.0
O239 O 0.75408 0.06779 0.50449 0.0
Cd240 Cd 0.71525 0.08377 0.51593 0.0
O241 O 0.76688 0.1033 0.49347 0.0
Cd242 Cd 0.73452 0.13349 0.49606 0.0
C243 C 0.73451 0.12732 0.55593 0.0
O244 O 0.70016 0.10849 0.4847 0.0
O245 O 0.69179 0.14221 0.50182 0.0
O246 O 0.75009 0.14461 0.45735 0.0
C247 C 0.68423 0.12336 0.49145 0.0
O248 O 0.7229 0.10795 0.552 0.0
C249 C 0.74907 0.16697 0.46069 0.0
O250 O 0.74279 0.13967 0.53869 0.0
O251 O 0.74158 0.17429 0.48106 0.0
C252 C 0.577 0.00332 0.28183 0.0
O253 O 0.56442 0.01684 0.26881 0.0
Cd254 Cd 0.57627 0.02848 0.22889 0.0
O255 O 0.59695 0.9949 0.27416 0.0
Cd256 Cd 0.62385 0.99437 0.23902 0.0
C257 C 0.63151 0.05406 0.24243 0.0
O258 O 0.59232 0.99397 0.2096 0.0
O259 O 0.62857 -0.00273 0.19553 0.0
O260 O 0.62813 0.95347 0.24953 0.0
C261 C 0.60601 -0.00345 0.19153 0.0
O262 O 0.61011 0.0561 0.23429 0.0
C263 C 0.651 0.95276 0.24749 0.0
O264 O 0.64022 0.03381 0.2476 0.0
O265 O 0.66181 0.97187 0.24152 0.0
C266 C 0.78444 0.90636 0.00159 0.0
O267 O 0.77208 0.92011 0.98863 0.0
Cd268 Cd 0.72893 0.91658 0.98264 0.0
O269 O 0.77419 0.88945 0.0128 0.0
Cd270 Cd 0.73273 0.87266 0.01707 0.0
C271 C 0.72795 0.86123 0.95672 0.0
O272 O 0.7087 0.90929 0.02003 0.0
O273 O 0.68909 0.87583 0.01717 0.0
O274 O 0.74031 0.86943 0.05951 0.0
C275 C 0.68853 0.89823 0.02027 0.0
O276 O 0.72442 0.88347 0.95462 0.0
C277 C 0.73705 0.84709 0.06069 0.0
O278 O 0.73275 0.85244 0.97715 0.0
O279 O 0.73234 0.83606 0.04115 0.0
C280 C 0.28129 0.57398 0.00286 0.0
O281 O 0.26667 0.56455 0.01764 0.0
Cd282 Cd 0.2272 0.58006 0.02708 0.0
O283 O 0.27604 0.59326 0.9923 0.0
Cd284 Cd 0.2436 0.62356 0.98971 0.0
C285 C 0.24407 0.6349 0.05009 0.0
O286 O 0.21172 0.59465 0.99026 0.0
O287 O 0.19965 0.631 0.98941 0.0
O288 O 0.25484 0.6268 0.94794 0.0
C289 C 0.1942 0.60908 0.99051 0.0
O290 O 0.23521 0.61418 0.05334 0.0
C291 C 0.25647 0.64938 0.94788 0.0
O292 O 0.24975 0.64204 0.02919 0.0
O293 O 0.25235 0.66024 0.96761 0.0
C294 C 0.08812 0.49338 0.78117 0.0
O295 O 0.07279 0.50019 0.76585 0.0
Cd296 Cd 0.0831 0.51138 0.72591 0.0
O297 O 0.11036 0.49088 0.77554 0.0
Cd298 Cd 0.13922 0.49307 0.7415 0.0
C299 C 0.12888 0.55235 0.74004 0.0
O300 O 0.10955 0.48099 0.71299 0.0
O301 O 0.143 0.49277 0.69735 0.0
O302 O 0.15284 0.45771 0.76095 0.0
C303 C 0.12142 0.48561 0.69419 0.0
O304 O 0.10808 0.54727 0.73142 0.0
C305 C 0.17489 0.45953 0.75485 0.0
O306 O 0.14339 0.53613 0.74668 0.0
O307 O 0.18103 0.47761 0.74272 0.0
C308 C 0.29029 0.40713 0.49785 0.0
O309 O 0.27852 0.42178 0.48537 0.0
Cd310 Cd 0.23552 0.42008 0.47879 0.0
O311 O 0.27947 0.38996 0.50816 0.0
Cd312 Cd 0.23747 0.37395 0.51138 0.0
C313 C 0.23262 0.36568 0.45052 0.0
O314 O 0.21557 0.41134 0.51584 0.0
O315 O 0.19389 0.37927 0.51157 0.0
O316 O 0.24484 0.3701 0.55365 0.0
C317 C 0.19475 0.40154 0.51562 0.0
O318 O 0.23039 0.38818 0.44959 0.0
C319 C 0.24031 0.34799 0.55491 0.0
O320 O 0.23659 0.35552 0.47047 0.0
O321 O 0.2352 0.33713 0.53536 0.0
C322 C 0.41493 0.49811 0.28085 0.0
O323 O 0.42766 0.4866 0.26574 0.0
Cd324 Cd 0.41144 0.47515 0.22752 0.0
O325 O 0.39399 0.50555 0.27515 0.0
Cd326 Cd 0.36704 0.50707 0.23947 0.0
C327 C 0.35825 0.44747 0.24535 0.0
O328 O 0.39802 0.51071 0.20862 0.0
O329 O 0.36209 0.50184 0.19597 0.0
O330 O 0.36637 0.54954 0.24773 0.0
C331 C 0.38355 0.50846 0.19112 0.0
O332 O 0.37951 0.44624 0.23653 0.0
C333 C 0.34376 0.55224 0.24526 0.0
O334 O 0.3486 0.46772 0.24957 0.0
O335 O 0.33121 0.5334 0.24169 0.0
O336 O 0.0218 0.02187 0.98271 0.0
Mn337 Mn 0.99366 -0.002 0.99121 0.0
O338 O 0.05413 -0.00023 0.97259 0.0
Mn339 Mn 0.04266 0.97213 0.98628 0.0
O340 O 0.96551 0.97391 -0.00026 0.0
O341 O 0.97496 0.02647 0.00334 0.0
Mn342 Mn 0.94407 0.022 -0.00324 0.0
O343 O 0.97892 0.00243 0.95745 0.0
O344 O 0.93467 0.9957 0.01387 0.0
O345 O 0.00856 0.9934 0.02528 0.0
O346 O 0.0424 0.97178 0.01942 0.0
O347 O 0.94624 0.05181 0.01063 0.0
O348 O 0.94229 0.01885 0.96353 0.0
C349 C 0.01737 0.95002 0.96738 0.0
C350 C 0.04348 0.01974 0.97454 0.0
C351 C 0.94484 0.97574 0.01028 0.0
C352 C 0.96921 0.04749 0.0112 0.0
C353 C 0.95871 0.0104 0.9497 0.0
C354 C 0.02712 0.9822 0.03315 0.0
O355 O 0.01206 0.96984 0.97814 0.0
O356 O 0.03995 0.94427 0.9686 0.0
O357 O 0.28976 0.75704 0.24658 0.0
Mn358 Mn 0.25179 0.75776 0.24635 0.0
O359 O 0.30268 0.78733 0.22384 0.0
Mn360 Mn 0.27328 0.79224 0.20936 0.0
O361 O 0.2137 0.75834 0.24676 0.0
O362 O 0.25238 0.72489 0.26025 0.0
Mn363 Mn 0.23081 0.72254 0.28329 0.0
O364 O 0.25231 0.77332 0.2804 0.0
O365 O 0.20145 0.72697 0.26852 0.0
O366 O 0.25121 0.74209 0.21221 0.0
O367 O 0.26438 0.76978 0.18639 0.0
O368 O 0.24587 0.69342 0.28168 0.0
O369 O 0.23931 0.74543 0.3061 0.0
C370 C 0.24746 0.81314 0.22841 0.0
C371 C 0.30664 0.77054 0.23833 0.0
C372 C 0.19707 0.74439 0.25489 0.0
C373 C 0.25807 0.70309 0.26451 0.0
C374 C 0.24733 0.76631 0.30167 0.0
C375 C 0.25631 0.74898 0.1909 0.0
O376 O 0.25154 0.79086 0.2325 0.0
O377 O 0.25995 0.82202 0.21098 0.0
O378 O 0.47356 0.96674 0.49019 0.0
Mn379 Mn 0.49633 -0.0036 0.49459 0.0
O380 O 0.44047 0.979 0.47123 0.0
Mn381 Mn 0.4435 0.00959 0.48351 0.0
O382 O 0.51948 0.02574 0.49929 0.0
O383 O 0.51928 0.97462 0.51102 0.0
Mn384 Mn 0.54951 0.98127 0.50351 0.0
O385 O 0.51293 0.98889 0.46215 0.0
O386 O 0.55424 0.01214 0.51463 0.0
O387 O 0.47917 0.00414 0.52696 0.0
O388 O 0.4406 0.01248 0.51672 0.0
O389 O 0.5502 0.95522 0.52363 0.0
O390 O 0.55109 0.97758 0.47015 0.0
C391 C 0.46508 0.03546 0.46525 0.0
C392 C 0.45369 0.96244 0.47909 0.0
C393 C 0.54045 0.02913 0.5087 0.0
C394 C 0.52688 0.95691 0.52324 0.0
C395 C 0.53403 0.98205 0.45543 0.0
C396 C 0.45723 0.00966 0.53236 0.0
O397 O 0.47352 0.01821 0.47769 0.0
O398 O 0.44172 0.03577 0.46394 0.0
O399 O 0.27098 0.24907 0.77492 0.0
Mn400 Mn 0.24472 0.24447 0.7486 0.0
O401 O 0.30716 0.24717 0.75601 0.0
Mn402 Mn 0.29586 0.23742 0.72625 0.0
O403 O 0.21847 0.24052 0.72213 0.0
O404 O 0.22124 0.23573 0.77398 0.0
Mn405 Mn 0.19234 0.24736 0.76988 0.0
O406 O 0.2354 0.28024 0.75278 0.0
O407 O 0.18251 0.23504 0.74044 0.0
O408 O 0.25326 0.20844 0.74531 0.0
O409 O 0.28758 0.20539 0.72369 0.0
O410 O 0.19145 0.22965 0.79796 0.0
O411 O 0.1985 0.28003 0.77056 0.0
C412 C 0.27764 0.26239 0.70397 0.0
C413 C 0.29416 0.25035 0.77471 0.0
C414 C 0.19572 0.23575 0.72168 0.0
C415 C 0.2141 0.22614 0.79344 0.0
C416 C 0.2171 0.29099 0.76225 0.0
C417 C 0.26953 0.19608 0.73448 0.0
O418 O 0.26852 0.25283 0.72282 0.0
O419 O 0.29969 0.25614 0.69943 0.0
O420 O 0.9875 0.97991 0.47021 0.0
Mn421 Mn 0.99053 0.00742 0.49563 0.0
O422 O 0.98688 0.9456 0.49094 0.0
Mn423 Mn -0.00625 0.95844 0.52088 0.0
O424 O -0.00619 0.03473 0.52135 0.0
O425 O 0.00217 0.0289 0.46987 0.0
Mn426 Mn 0.98969 0.05745 0.472 0.0
O427 O 0.9548 0.01736 0.48935 0.0
O428 O -0.00016 0.069 0.50151 0.0
O429 O 0.02647 -0.00216 0.50177 0.0
O430 O 0.02597 0.9663 0.52624 0.0
O431 O 0.00996 0.05729 0.44536 0.0
O432 O 0.95653 0.05197 0.46924 0.0
C433 C 0.96564 0.97811 0.53865 0.0
C434 C 0.98571 0.95711 0.47145 0.0
C435 C -0.00129 0.05713 0.52076 0.0
C436 C 0.01351 0.03532 0.4509 0.0
C437 C 0.94467 0.0347 0.47847 0.0
C438 C 0.03722 0.9826 0.51493 0.0
O439 O 0.97872 0.98582 0.5213 0.0
O440 O 0.97098 0.95679 0.54521 0.0
O441 O 0.27669 0.77355 0.74637 0.0
Mn442 Mn 0.25017 0.74691 0.74315 0.0
O443 O 0.25691 0.80804 0.75332 0.0
Mn444 Mn 0.22614 0.79677 0.7466 0.0
O445 O 0.22347 0.72049 0.74 0.0
O446 O 0.27474 0.72583 0.72747 0.0
Mn447 Mn 0.27269 0.69646 0.73759 0.0
O448 O 0.25928 0.73414 0.77681 0.0
O449 O 0.24192 0.68632 0.72924 0.0
O450 O 0.24126 0.75923 0.70933 0.0
O451 O 0.21905 0.7924 0.71432 0.0
O452 O 0.29763 0.697 0.71534 0.0
O453 O 0.27852 0.69926 0.77033 0.0
C454 C 0.20825 0.77512 0.77264 0.0
C455 C 0.2763 0.796 0.75122 0.0
C456 C 0.22298 0.69854 0.73324 0.0
C457 C 0.29257 0.71939 0.71405 0.0
C458 C 0.27072 0.71581 0.78427 0.0
C459 C 0.22844 0.7762 0.70104 0.0
O460 O 0.22544 0.76807 0.75868 0.0
O461 O 0.20234 0.79717 0.76996 0.0
O462 O 0.46511 0.98748 0.9731 0.0
Mn463 Mn 0.48999 -0.00211 -0.00045 0.0
O464 O 0.48683 0.97427 0.94148 0.0
Mn465 Mn 0.51533 0.98915 0.95052 0.0
O466 O 0.51462 0.00845 0.02613 0.0
O467 O 0.46263 0.01217 0.01771 0.0
Mn468 Mn 0.46471 0.00798 0.04862 0.0
O469 O 0.48461 0.96567 0.01703 0.0
O470 O 0.49298 0.02385 0.05682 0.0
O471 O 0.49517 0.03024 0.98233 0.0
O472 O 0.51554 0.02218 0.94815 0.0
O473 O 0.43541 0.02298 0.04319 0.0
O474 O 0.46537 0.97499 0.05168 0.0
C475 C 0.53755 0.97267 0.97679 0.0
C476 C 0.46677 0.97733 0.95239 0.0
C477 C 0.51308 0.01963 0.04637 0.0
C478 C 0.44164 0.02124 0.02089 0.0
C479 C 0.4746 0.95983 0.03699 0.0
C480 C 0.50546 0.03681 0.96278 0.0
O481 O 0.51765 0.98363 0.98127 0.0
O482 O 0.5435 0.97201 0.95436 0.0
O483 O 0.28576 0.24226 0.26347 0.0
Mn484 Mn 0.25046 0.24685 0.2508 0.0
O485 O 0.28235 0.21986 0.29634 0.0
Mn486 Mn 0.249 0.21671 0.29558 0.0
O487 O 0.21513 0.25194 0.23782 0.0
O488 O 0.26185 0.27807 0.23643 0.0
Mn489 Mn 0.25295 0.27782 0.20616 0.0
O490 O 0.25908 0.22689 0.21962 0.0
O491 O 0.21956 0.27675 0.20667 0.0
O492 O 0.24148 0.26688 0.28197 0.0
O493 O 0.23206 0.24073 0.31045 0.0
O494 O 0.26829 0.30646 0.2106 0.0
O495 O 0.26808 0.25278 0.19069 0.0
C496 C 0.23216 0.19382 0.27031 0.0
C497 C 0.29506 0.23161 0.28145 0.0
C498 C 0.20636 0.26474 0.22097 0.0
C499 C 0.27052 0.29924 0.2324 0.0
C500 C 0.26669 0.23162 0.19837 0.0
C501 C 0.23309 0.26191 0.30288 0.0
O502 O 0.23989 0.21518 0.26524 0.0
O503 O 0.2353 0.18734 0.29226 0.0
O504 O 0.49696 0.46963 0.98767 0.0
Mn505 Mn 0.50039 0.50304 0.00437 0.0
O506 O 0.50035 0.44313 0.01754 0.0
Mn507 Mn 0.50423 0.46427 0.04301 0.0
O508 O 0.50424 0.53613 0.02199 0.0
O509 O 0.51237 0.51645 0.97333 0.0
Mn510 Mn 0.49986 0.54476 0.96896 0.0
O511 O 0.46466 0.51129 -0.00435 0.0
O512 O 0.51071 0.56371 0.99391 0.0
O513 O 0.53647 0.49511 0.01305 0.0
O514 O 0.53548 0.47511 0.04756 0.0
O515 O 0.51895 0.53887 0.9425 0.0
O516 O 0.4666 0.54017 0.96813 0.0
C517 C 0.47402 0.48579 0.05313 0.0
C518 C 0.49788 0.44814 -0.00457 0.0
C519 C 0.50932 0.55758 0.01574 0.0
C520 C 0.52299 0.51883 0.95287 0.0
C521 C 0.45454 0.52599 0.98139 0.0
C522 C 0.54712 0.48577 0.0311 0.0
O523 O 0.48785 0.48947 0.03494 0.0
O524 O 0.48015 0.4677 0.06579 0.0
O525 O 0.77446 0.28032 0.25431 0.0
Mn526 Mn 0.75727 0.24749 0.25158 0.0
O527 O 0.74608 0.30842 0.24907 0.0
Mn528 Mn 0.72106 0.28793 0.24022 0.0
O529 O 0.74053 0.21424 0.2487 0.0
O530 O 0.78942 0.23261 0.24552 0.0
Mn531 Mn 0.7943 0.20832 0.26423 0.0
O532 O 0.76061 0.24338 0.28881 0.0
O533 O 0.76937 0.18722 0.25662 0.0
O534 O 0.75391 0.25219 0.21444 0.0
O535 O 0.72232 0.27664 0.20889 0.0
O536 O 0.8214 0.21065 0.24478 0.0
O537 O 0.79354 0.22103 0.29494 0.0
C538 C 0.7048 0.26722 0.26808 0.0
C539 C 0.76772 0.3021 0.25356 0.0
C540 C 0.74774 0.19263 0.25085 0.0
C541 C 0.81 0.22835 0.23563 0.0
C542 C 0.77642 0.23416 0.30271 0.0
C543 C 0.73898 0.26308 0.20079 0.0
O544 O 0.72514 0.2626 0.2578 0.0
O545 O 0.69391 0.28555 0.25956 0.0
O546 O 0.98216 0.50686 0.47147 0.0
Mn547 Mn 0.00155 0.51345 0.50284 0.0
O548 O 0.00952 0.50525 0.44136 0.0
Mn549 Mn 0.03495 0.51884 0.45825 0.0
O550 O 0.02083 0.51945 0.53445 0.0
O551 O 0.97072 0.5218 0.51923 0.0
Mn552 Mn 0.96759 0.50873 0.54735 0.0
O553 O -0.00296 0.47748 0.51169 0.0
O554 O -0.00616 0.51993 0.56485 0.0
O555 O 0.00531 0.54937 0.4938 0.0
O556 O 0.03295 0.55138 0.46409 0.0
O557 O 0.94019 0.52707 0.54277 0.0
O558 O 0.96772 0.47639 0.54 0.0
C559 C 0.05411 0.49701 0.48276 0.0
C560 C 0.98811 0.50268 0.44958 0.0
C561 C 0.01539 0.52201 0.55677 0.0
C562 C 0.95011 0.5317 0.52234 0.0
C563 C 0.98218 0.46608 0.52529 0.0
C564 C 0.01846 0.56122 0.47902 0.0
O565 O 0.03287 0.50559 0.48649 0.0
O566 O 0.0636 0.50264 0.46239 0.0
O567 O 0.76905 0.75373 0.27999 0.0
Mn568 Mn 0.74572 0.74368 0.25238 0.0
O569 O 0.80677 0.75155 0.26421 0.0
Mn570 Mn 0.79889 0.73973 0.23402 0.0
O571 O 0.72275 0.73359 0.22418 0.0
O572 O 0.72104 0.73548 0.27717 0.0
Mn573 Mn 0.69171 0.74046 0.26678 0.0
O574 O 0.73197 0.77794 0.25127 0.0
O575 O 0.68882 0.71963 0.24106 0.0
O576 O 0.75825 0.70884 0.25361 0.0
O577 O 0.79294 0.70722 0.2324 0.0
O578 O 0.68874 0.73122 0.29844 0.0
O579 O 0.69205 0.77264 0.25906 0.0
C580 C 0.78024 0.76219 0.20943 0.0
C581 C 0.79214 0.75586 0.28148 0.0
C582 C 0.70253 0.72223 0.22292 0.0
C583 C 0.71214 0.73059 0.29785 0.0
C584 C 0.71023 0.78576 0.25343 0.0
C585 C 0.77553 0.69722 0.24356 0.0
O586 O 0.77069 0.75236 0.22789 0.0
O587 O 0.80301 0.75778 0.20668 0.0
O588 O 0.79007 0.25681 0.73874 0.0
Mn589 Mn 0.75578 0.24855 0.75198 0.0
O590 O 0.78448 0.27684 0.70446 0.0
Mn591 Mn 0.75098 0.27351 0.70296 0.0
O592 O 0.72151 0.24026 0.76522 0.0
O593 O 0.77034 0.22215 0.77086 0.0
Mn594 Mn 0.76076 0.22356 0.80084 0.0
O595 O 0.76048 0.27321 0.78021 0.0
O596 O 0.72735 0.21992 0.79926 0.0
O597 O 0.75068 0.22389 0.72391 0.0
O598 O 0.73962 0.24448 0.69148 0.0
O599 O 0.78085 0.19753 0.79849 0.0
O600 O 0.77162 0.25259 0.81255 0.0
C601 C 0.7297 0.29398 0.72788 0.0
C602 C 0.79819 0.26812 0.72048 0.0
C603 C 0.71354 0.22872 0.78339 0.0
C604 C 0.78213 0.20321 0.77614 0.0
C605 C 0.76779 0.27216 0.80201 0.0
C606 C 0.74289 0.22497 0.7023 0.0
O607 O 0.74136 0.27494 0.733 0.0
O608 O 0.73114 0.29982 0.7056 0.0
O609 O 0.7827 0.73779 0.76663 0.0
Mn610 Mn 0.7467 0.74288 0.75643 0.0
O611 O 0.7831 0.70853 0.79364 0.0
Mn612 Mn 0.74993 0.7078 0.79818 0.0
O613 O 0.71066 0.74823 0.74588 0.0
O614 O 0.75722 0.77486 0.74324 0.0
Mn615 Mn 0.74543 0.77705 0.71409 0.0
O616 O 0.75385 0.72503 0.72377 0.0
O617 O 0.71226 0.77636 0.71752 0.0
O618 O 0.73942 0.7603 0.78933 0.0
O619 O 0.73751 0.73189 0.81732 0.0
O620 O 0.76198 0.80495 0.71903 0.0
O621 O 0.75876 0.75288 0.6957 0.0
C622 C 0.72728 0.68997 0.77284 0.0
C623 C 0.794 0.72346 0.78036 0.0
C624 C 0.70044 0.7625 0.73121 0.0
C625 C 0.76637 0.79592 0.73976 0.0
C626 C 0.75928 0.73131 0.70233 0.0
C627 C 0.73548 0.75348 0.81097 0.0
O628 O 0.73661 0.71095 0.76973 0.0
O629 O 0.73266 0.68019 0.79297 0.0
O630 O 0.53001 0.51971 0.48608 0.0
Mn631 Mn 0.50081 0.49714 0.49485 0.0
O632 O 0.55981 0.49653 0.47204 0.0
Mn633 Mn 0.54838 0.47011 0.48783 0.0
O634 O 0.47133 0.47498 0.50349 0.0
O635 O 0.48423 0.52639 0.50817 0.0
Mn636 Mn 0.45348 0.52572 0.49994 0.0
O637 O 0.48592 0.50285 0.46108 0.0
O638 O 0.4404 0.49885 0.51383 0.0
O639 O 0.51602 0.49129 0.52855 0.0
O640 O 0.55046 0.47121 0.52097 0.0
O641 O 0.45777 0.55362 0.51722 0.0
O642 O 0.45322 0.52601 0.46666 0.0
C643 C 0.52205 0.44686 0.4723 0.0
C644 C 0.55064 0.51695 0.47573 0.0
C645 C 0.44982 0.47829 0.51172 0.0
C646 C 0.48002 0.54675 0.51845 0.0
C647 C 0.46796 0.51475 0.45302 0.0
C648 C 0.53535 0.48076 0.5355 0.0
O649 O 0.51725 0.46764 0.48152 0.0
O650 O 0.54472 0.44124 0.47246 0.0
O651 O 0.97424 0.46823 0.98362 0.0
Mn652 Mn -0.00042 0.49487 0.99218 0.0
O653 O 0.94277 0.48628 0.96639 0.0
Mn654 Mn 0.94917 0.51559 0.98057 0.0
O655 O 0.02489 0.5214 0.00095 0.0
O656 O 0.01906 0.46964 0.00803 0.0
Mn657 Mn 0.05009 0.47333 0.00183 0.0
O658 O 0.01738 0.48837 0.96009 0.0
O659 O 0.05779 0.50283 0.01493 0.0
O660 O 0.98149 0.50167 0.02411 0.0
O661 O 0.94553 0.5173 0.01374 0.0
O662 O 0.04735 0.44662 0.02074 0.0
O663 O 0.05274 0.47073 0.96856 0.0
C664 C 0.97533 0.53955 0.96542 0.0
C665 C 0.95421 0.46758 0.97205 0.0
C666 C 0.04573 0.52165 0.01106 0.0
C667 C 0.02441 0.45091 0.01989 0.0
C668 C 0.03741 0.47875 0.95364 0.0
C669 C 0.96081 0.51069 0.02944 0.0
O670 O 0.98028 0.52004 0.97613 0.0
O671 O 0.9524 0.5434 0.96336 0.0
H672 H 0.01529 0.14606 0.11175 0.0
H673 H 0.01472 0.19033 0.0491 0.0
H674 H 0.01387 0.11069 0.08652 0.0
H675 H 0.01454 0.15464 0.02354 0.0
H676 H 0.96624 0.09213 -0.00419 0.0
H677 H 0.9844 0.12724 0.01378 0.0
H678 H 0.02881 0.08278 0.05823 0.0
H679 H 0.00954 0.04717 0.04029 0.0
C680 C 0.0154 0.14828 0.09251 0.0
C681 C 0.01455 0.17112 0.08248 0.0
C682 C 0.01491 0.12784 0.07794 0.0
C683 C 0.01383 0.12961 0.05287 0.0
C684 C 0.01479 0.15251 0.04278 0.0
C685 C 0.01492 0.17303 0.05742 0.0
C686 C 0.98043 0.08983 0.00892 0.0
C687 C 0.98624 0.06703 0.01697 0.0
C688 C 0.99105 0.11006 0.01919 0.0
C689 C 0.00782 0.10806 0.0379 0.0
C690 C 0.01551 0.08504 0.04426 0.0
C691 C 0.00475 0.06461 0.03385 0.0
H692 H 0.08825 0.76568 0.34483 0.0
H693 H 0.04353 0.73704 0.28774 0.0
H694 H 0.12194 0.76951 0.31709 0.0
H695 H 0.07764 0.74084 0.25975 0.0
H696 H 0.15966 0.71553 0.24197 0.0
H697 H 0.11827 0.72019 0.25657 0.0
H698 H 0.13559 0.79167 0.2809 0.0
H699 H 0.17706 0.78659 0.26704 0.0
C700 C 0.08558 0.76028 0.32631 0.0
C701 C 0.06328 0.75092 0.31851 0.0
C702 C 0.10481 0.7628 0.31031 0.0
C703 C 0.1023 0.75585 0.28614 0.0
C704 C 0.07999 0.74649 0.27824 0.0
C705 C 0.06057 0.74422 0.29427 0.0
C706 C 0.15418 0.73268 0.24923 0.0
C707 C 0.17144 0.75083 0.25311 0.0
C708 C 0.13051 0.73533 0.25768 0.0
C709 C 0.1239 0.75612 0.27031 0.0
C710 C 0.14033 0.77536 0.27145 0.0
C711 C 0.16398 0.77269 0.26298 0.0
H712 H 0.47532 0.83941 0.60991 0.0
H713 H 0.50726 0.81144 0.54468 0.0
H714 H 0.47569 0.87927 0.59319 0.0
H715 H 0.5078 0.85149 0.52801 0.0
H716 H 0.49848 0.92498 0.49907 0.0
H717 H 0.48417 0.88656 0.5143 0.0
H718 H 0.50965 0.90659 0.58494 0.0
H719 H 0.52372 0.94474 0.56962 0.0
C720 C 0.48214 0.84169 0.59186 0.0
C721 C 0.49154 0.82224 0.57873 0.0
C722 C 0.48237 0.86458 0.58231 0.0
C723 C 0.49192 0.86863 0.55934 0.0
C724 C 0.5001 0.84898 0.54568 0.0
C725 C 0.49995 0.82603 0.55529 0.0
C726 C 0.49993 0.9215 0.51805 0.0
C727 C 0.51164 0.93795 0.53335 0.0
C728 C 0.49215 0.89938 0.5267 0.0
C729 C 0.49593 0.89341 0.55081 0.0
C730 C 0.50616 0.91066 0.56636 0.0
C731 C 0.51416 0.93257 0.55765 0.0
H732 H 0.42613 0.28973 0.80644 0.0
H733 H 0.41776 0.24212 0.86617 0.0
H734 H 0.38263 0.28961 0.80087 0.0
H735 H 0.37391 0.24229 0.86072 0.0
H736 H 0.30703 0.29347 0.79254 0.0
H737 H 0.34297 0.30057 0.81715 0.0
H738 H 0.3485 0.22485 0.82876 0.0
H739 H 0.3123 0.21808 0.80472 0.0
C740 C 0.41499 0.27943 0.81856 0.0
C741 C 0.42544 0.26565 0.83649 0.0
C742 C 0.38997 0.27967 0.81562 0.0
C743 C 0.3748 0.26611 0.83053 0.0
C744 C 0.38516 0.25291 0.84899 0.0
C745 C 0.41026 0.25274 0.852 0.0
C746 C 0.31519 0.27861 0.8016 0.0
C747 C 0.30723 0.25529 0.79687 0.0
C748 C 0.33588 0.28259 0.8154 0.0
C749 C 0.34892 0.2632 0.82424 0.0
C750 C 0.33889 0.24016 0.82219 0.0
C751 C 0.31814 0.23623 0.80847 0.0
H752 H -0.00576 0.82194 0.41614 0.0
H753 H 0.01393 0.85882 0.35131 0.0
H754 H 0.98673 0.85991 0.43609 0.0
H755 H 0.00626 0.89702 0.37153 0.0
H756 H 0.01866 0.95502 0.43548 0.0
H757 H 0.02325 0.92178 0.40697 0.0
H758 H 0.95545 0.8919 0.43158 0.0
H759 H 0.95101 0.9251 0.45996 0.0
C760 C -0.00285 0.83813 0.40617 0.0
C761 C 0.00455 0.83731 0.38209 0.0
C762 C 0.99257 0.85988 0.41753 0.0
C763 C -0.00462 0.88132 0.40513 0.0
C764 C 0.00376 0.88069 0.38138 0.0
C765 C 0.00819 0.85884 0.36989 0.0
C766 C 0.00416 0.94203 0.43376 0.0
C767 C 0.98433 0.94263 0.44952 0.0
C768 C 0.0069 0.92288 0.4177 0.0
C769 C 0.98994 0.9041 0.41751 0.0
C770 C 0.96899 0.90597 0.43173 0.0
C771 C 0.96629 0.92503 0.44773 0.0
H772 H 0.43254 0.73362 0.69765 0.0
H773 H 0.41599 0.75571 0.62572 0.0
H774 H 0.39057 0.73905 0.70919 0.0
H775 H 0.37344 0.76098 0.63741 0.0
H776 H 0.31937 0.75593 0.73204 0.0
H777 H 0.35758 0.7696 0.71467 0.0
H778 H 0.34168 0.72991 0.64965 0.0
H779 H 0.30342 0.71662 0.66702 0.0
C780 C 0.41994 0.73977 0.6843 0.0
C781 C 0.42755 0.74394 0.66068 0.0
C782 C 0.39592 0.74326 0.69104 0.0
C783 C 0.37877 0.75076 0.67428 0.0
C784 C 0.38635 0.75536 0.65071 0.0
C785 C 0.41062 0.75223 0.64403 0.0
C786 C 0.32333 0.75147 0.7135 0.0
C787 C 0.30849 0.73545 0.70072 0.0
C788 C 0.34536 0.75897 0.70367 0.0
C789 C 0.3528 0.75039 0.68101 0.0
C790 C 0.33643 0.73687 0.6671 0.0
C791 C 0.3145 0.72928 0.67701 0.0
H792 H 0.5062 0.19219 0.9453 0.0
H793 H 0.4792 0.16064 0.8794 0.0
H794 H 0.50839 0.15246 0.96286 0.0
H795 H 0.48141 0.12131 0.8969 0.0
H796 H 0.52253 0.05663 0.92166 0.0
H797 H 0.51808 0.0973 0.90843 0.0
H798 H 0.48162 0.11574 0.97459 0.0
H799 H 0.486 0.07465 0.98813 0.0
C800 C 0.50043 0.17686 0.9347 0.0
C801 C 0.49277 0.17952 0.91088 0.0
C802 C 0.50163 0.15418 0.94478 0.0
C803 C 0.4954 0.13384 0.9311 0.0
C804 C 0.48672 0.13667 0.9077 0.0
C805 C 0.48536 0.15923 0.89773 0.0
C806 C 0.51367 0.06926 0.93357 0.0
C807 C 0.50447 0.06223 0.95593 0.0
C808 C 0.51101 0.09257 0.92588 0.0
C809 C 0.49922 0.10956 0.94034 0.0
C810 C 0.49078 0.10294 0.96309 0.0
C811 C 0.49326 0.07943 0.97078 0.0
H812 H 0.05034 0.24747 0.18868 0.0
H813 H 0.09079 0.26918 0.12619 0.0
H814 H 0.08742 0.25023 0.21279 0.0
H815 H 0.12744 0.27203 0.15014 0.0
H816 H 0.18162 0.30067 0.20095 0.0
H817 H 0.14095 0.29923 0.18469 0.0
H818 H 0.13028 0.22912 0.21382 0.0
H819 H 0.1714 0.23065 0.23049 0.0
C820 C 0.06708 0.25291 0.18015 0.0
C821 C 0.06767 0.25824 0.15558 0.0
C822 C 0.08825 0.25436 0.1939 0.0
C823 C 0.11018 0.26155 0.18336 0.0
C824 C 0.11068 0.26677 0.15881 0.0
C825 C 0.08972 0.26504 0.14506 0.0
C826 C 0.17054 0.28505 0.20429 0.0
C827 C 0.17998 0.26543 0.21645 0.0
C828 C 0.14725 0.28425 0.19492 0.0
C829 C 0.13276 0.26384 0.19748 0.0
C830 C 0.14122 0.24503 0.21149 0.0
C831 C 0.16473 0.24586 0.22099 0.0
H832 H 0.04506 0.99436 0.18986 0.0
H833 H 0.11551 0.98841 0.15647 0.0
H834 H 0.02592 0.99122 0.15035 0.0
H835 H 0.09645 0.98537 0.11729 0.0
H836 H 0.05642 0.95163 0.05626 0.0
H837 H 0.07028 0.95416 0.09738 0.0
H838 H 0.02387 0.01451 0.1105 0.0
H839 H 0.00964 0.01197 0.06888 0.0
C840 C 0.05643 0.99241 0.17412 0.0
C841 C 0.08178 0.99145 0.17624 0.0
C842 C 0.04548 0.99075 0.15156 0.0
C843 C 0.0597 0.98784 0.13085 0.0
C844 C 0.08503 0.98724 0.13302 0.0
C845 C 0.09595 0.98907 0.15544 0.0
C846 C 0.04893 0.96538 0.06786 0.0
C847 C 0.03226 0.98192 0.05914 0.0
C848 C 0.05696 0.96682 0.09142 0.0
C849 C 0.04854 0.98482 0.10692 0.0
C850 C 0.03069 0.0005 0.09882 0.0
C851 C 0.02259 -0.00094 0.07504 0.0
H852 H 0.26606 0.83172 0.44161 0.0
H853 H 0.2365 0.88819 0.3991 0.0
H854 H 0.26901 0.80645 0.40612 0.0
H855 H 0.2386 0.86236 0.36341 0.0
H856 H 0.26219 0.81322 0.30085 0.0
H857 H 0.26487 0.84111 0.33486 0.0
H858 H 0.23992 0.78568 0.38211 0.0
H859 H 0.23798 0.75789 0.34871 0.0
C860 C 0.26008 0.8387 0.42465 0.0
C861 C 0.25068 0.86179 0.42317 0.0
C862 C 0.26172 0.82418 0.4043 0.0
C863 C 0.25365 0.83224 0.38202 0.0
C864 C 0.24508 0.85569 0.38031 0.0
C865 C 0.24372 0.87041 0.40074 0.0
C866 C 0.25754 0.80697 0.31856 0.0
C867 C 0.25001 0.78326 0.32205 0.0
C868 C 0.25891 0.82299 0.33799 0.0
C869 C 0.25278 0.81556 0.3612 0.0
C870 C 0.24529 0.79188 0.36457 0.0
C871 C 0.24402 0.77594 0.34531 0.0
H872 H 0.37657 0.03551 0.66269 0.0
H873 H 0.44182 0.00255 0.68788 0.0
H874 H 0.39372 0.03781 0.62262 0.0
H875 H 0.45866 0.00339 0.64725 0.0
H876 H 0.48641 0.01936 0.57125 0.0
H877 H 0.4737 0.02438 0.61313 0.0
H878 H 0.39971 0.00927 0.59245 0.0
H879 H 0.41214 0.00536 0.55108 0.0
C880 C 0.3947 0.02887 0.65958 0.0
C881 C 0.40782 0.01866 0.67818 0.0
C882 C 0.40448 0.02997 0.63659 0.0
C883 C 0.42732 0.02016 0.63149 0.0
C884 C 0.44105 0.01115 0.6505 0.0
C885 C 0.43143 0.0106 0.67375 0.0
C886 C 0.46744 0.01726 0.57578 0.0
C887 C 0.45024 0.01227 0.55784 0.0
C888 C 0.46016 0.02006 0.59974 0.0
C889 C 0.4356 0.01764 0.60618 0.0
C890 C 0.41864 0.0121 0.58818 0.0
C891 C 0.42581 0.00966 0.56437 0.0
H892 H 0.26814 0.13327 0.90319 0.0
H893 H 0.24801 0.20105 0.9348 0.0
H894 H 0.26642 0.15045 0.86343 0.0
H895 H 0.24632 0.21823 0.89481 0.0
H896 H 0.21042 0.18047 0.80693 0.0
H897 H 0.22814 0.16318 0.84261 0.0
H898 H 0.26881 0.22814 0.85554 0.0
H899 H 0.25105 0.2453 0.81947 0.0
C900 C 0.2638 0.15198 0.90171 0.0
C901 C 0.25778 0.16572 0.92214 0.0
C902 C 0.26287 0.16178 0.87891 0.0
C903 C 0.25605 0.18558 0.87602 0.0
C904 C 0.25182 0.19986 0.89653 0.0
C905 C 0.25263 0.18999 0.91941 0.0
C906 C 0.22389 0.19062 0.8169 0.0
C907 C 0.22973 0.21396 0.81042 0.0
C908 C 0.23404 0.18079 0.83731 0.0
C909 C 0.24976 0.19439 0.85193 0.0
C910 C 0.25669 0.21732 0.84462 0.0
C911 C 0.24681 0.22701 0.82388 0.0
H912 H 0.10206 0.99316 0.32936 0.0
H913 H 0.02975 0.01491 0.31071 0.0
H914 H 0.0896 0.99011 0.37141 0.0
H915 H 0.01739 0.01168 0.35239 0.0
H916 H 0.06053 0.03835 0.4383 0.0
H917 H 0.07744 0.02349 0.40053 0.0
H918 H 0.01155 0.98362 0.38713 0.0
H919 H -0.00526 -0.00134 0.425 0.0
C920 C 0.08345 -0.00308 0.33416 0.0
C921 C 0.06696 0.0046 0.3168 0.0
C922 C 0.07634 0.99511 0.35818 0.0
C923 C 0.05251 0.00047 0.36513 0.0
C924 C 0.03578 0.00702 0.34754 0.0
C925 C 0.04295 0.0092 0.32369 0.0
C926 C 0.05026 0.0254 0.42784 0.0
C927 C 0.02654 0.01936 0.43452 0.0
C928 C 0.05988 0.01691 0.40621 0.0
C929 C 0.04564 0.00269 0.39075 0.0
C930 C 0.02281 0.99473 0.39865 0.0
C931 C 0.01331 0.00305 0.42043 0.0
H932 H 0.20196 0.81715 0.55205 0.0
H933 H 0.26912 0.84673 0.57907 0.0
H934 H 0.19829 0.79258 0.588 0.0
H935 H 0.26578 0.82181 0.61439 0.0
H936 H 0.19219 0.79687 0.67593 0.0
H937 H 0.19366 0.80903 0.63407 0.0
H938 H 0.26308 0.77518 0.62556 0.0
H939 H 0.26146 0.76249 0.6673 0.0
C940 C 0.21611 0.81804 0.56544 0.0
C941 C 0.23571 0.83393 0.56298 0.0
C942 C 0.21401 0.80402 0.58589 0.0
C943 C 0.23185 0.80526 0.60374 0.0
C944 C 0.25196 0.82034 0.6007 0.0
C945 C 0.25375 0.83473 0.58063 0.0
C946 C 0.20741 0.79142 0.66491 0.0
C947 C 0.2268 0.77895 0.67487 0.0
C948 C 0.20817 0.79825 0.64097 0.0
C949 C 0.22853 0.7931 0.62678 0.0
C950 C 0.24721 0.77931 0.63625 0.0
C951 C 0.24622 0.77202 0.66006 0.0
H952 H 0.37846 0.00248 0.82825 0.0
H953 H 0.4464 0.9668 0.81496 0.0
H954 H 0.38296 0.9957 0.87128 0.0
H955 H 0.45084 0.96027 0.85748 0.0
H956 H 0.43211 0.00944 0.94235 0.0
H957 H 0.41116 0.00998 0.90391 0.0
H958 H 0.43252 0.93717 0.89019 0.0
H959 H 0.45425 0.9371 0.92811 0.0
C960 C 0.39433 0.99323 0.83447 0.0
C961 C 0.41211 0.98522 0.81816 0.0
C962 C 0.3968 0.98928 0.85906 0.0
C963 C 0.41695 0.97699 0.8677 0.0
C964 C 0.43471 0.96916 0.85136 0.0
C965 C 0.43235 0.97323 0.82694 0.0
C966 C 0.43112 0.99315 0.93171 0.0
C967 C 0.44506 0.97335 0.93782 0.0
C968 C 0.41926 0.9935 0.9096 0.0
C969 C 0.42106 0.97391 0.8937 0.0
C970 C 0.4315 0.95276 0.90182 0.0
C971 C 0.44364 0.95257 0.92366 0.0
H972 H 0.26225 0.17973 0.056 0.0
H973 H 0.25015 0.11408 0.09381 0.0
H974 H 0.2696 0.20041 0.09388 0.0
H975 H 0.25825 0.13465 0.13177 0.0
H976 H 0.24253 0.18896 0.19456 0.0
H977 H 0.24076 0.16309 0.15898 0.0
H978 H 0.2973 0.20506 0.12591 0.0
H979 H 0.2983 0.2313 0.16101 0.0
C980 C 0.26141 0.16963 0.07236 0.0
C981 C 0.25553 0.14524 0.07177 0.0
C982 C 0.26584 0.18146 0.09417 0.0
C983 C 0.26471 0.16921 0.11601 0.0
C984 C 0.25907 0.14474 0.11539 0.0
C985 C 0.25451 0.13292 0.09356 0.0
C986 C 0.25506 0.19218 0.17995 0.0
C987 C 0.2704 0.21226 0.18046 0.0
C988 C 0.254 0.17741 0.15947 0.0
C989 C 0.26846 0.18232 0.13923 0.0
C990 C 0.28533 0.20117 0.14078 0.0
C991 C 0.28615 0.21605 0.16104 0.0
H992 H 0.18263 0.06685 0.96873 0.0
H993 H 0.1518 0.13368 0.99246 0.0
H994 H 0.14242 0.0506 0.96228 0.0
H995 H 0.111 0.11726 0.98569 0.0
H996 H 0.04897 0.05899 0.00341 0.0
H997 H 0.08416 0.08578 0.00334 0.0
H998 H 0.10767 0.05448 0.93609 0.0
H999 H 0.07308 0.02729 0.93673 0.0
C1000 C 0.16723 0.07817 0.97242 0.0
C1001 C 0.17044 0.10156 0.98113 0.0
C1002 C 0.1441 0.06892 0.96846 0.0
C1003 C 0.12345 0.08275 0.9731 0.0
C1004 C 0.12656 0.1062 0.98187 0.0
C1005 C 0.14988 0.11558 0.98573 0.0
C1006 C 0.06113 0.05861 0.98815 0.0
C1007 C 0.05854 0.041 0.97019 0.0
C1008 C 0.08136 0.07387 0.98814 0.0
C1009 C 0.09906 0.07174 0.97005 0.0
C1010 C 0.09471 0.05607 0.95063 0.0
C1011 C 0.07478 0.04069 0.95082 0.0
H1012 H 0.70159 0.45098 0.00894 0.0
H1013 H 0.65938 0.39176 0.03536 0.0
H1014 H 0.66603 0.47683 0.01274 0.0
H1015 H 0.62427 0.41767 0.03971 0.0
H1016 H 0.57563 0.47441 0.06884 0.0
H1017 H 0.61618 0.45791 0.06667 0.0
H1018 H 0.61987 0.4737 0.99135 0.0
H1019 H 0.57881 0.48993 0.99321 0.0
C1020 C 0.68482 0.44359 0.01579 0.0
C1021 C 0.68318 0.41939 0.02192 0.0
C1022 C 0.66455 0.45833 0.01785 0.0
C1023 C 0.6426 0.4492 0.02665 0.0
C1024 C 0.64112 0.42514 0.03309 0.0
C1025 C 0.66114 0.41032 0.03052 0.0
C1026 C 0.58524 0.47498 0.05189 0.0
C1027 C 0.57376 0.48303 0.03107 0.0
C1028 C 0.60844 0.4655 0.05071 0.0
C1029 C 0.62083 0.46421 0.02879 0.0
C1030 C 0.61056 0.47452 0.00846 0.0
C1031 C 0.58711 0.48387 0.00957 0.0
H1032 H 0.89175 0.39986 0.24547 0.0
H1033 H 0.8261 0.44014 0.23683 0.0
H1034 H 0.86763 0.36391 0.25249 0.0
H1035 H 0.80215 0.40435 0.24275 0.0
H1036 H 0.76273 0.34503 0.2757 0.0
H1037 H 0.79078 0.37866 0.27408 0.0
H1038 H 0.84124 0.33553 0.23323 0.0
H1039 H 0.81349 0.30165 0.23597 0.0
C1040 C 0.87219 0.40091 0.24472 0.0
C1041 C 0.86073 0.42273 0.24079 0.0
C1042 C 0.8584 0.38038 0.24875 0.0
C1043 C 0.83297 0.38137 0.24862 0.0
C1044 C 0.82167 0.4031 0.24378 0.0
C1045 C 0.83539 0.42358 0.24012 0.0
C1046 C 0.78006 0.34271 0.26684 0.0
C1047 C 0.78606 0.32093 0.2559 0.0
C1048 C 0.79602 0.36195 0.2657 0.0
C1049 C 0.81799 0.35991 0.25304 0.0
C1050 C 0.82454 0.33766 0.24323 0.0
C1051 C 0.80871 0.31826 0.2448 0.0
H1052 H 0.81446 0.54297 0.49255 0.0
H1053 H 0.83155 0.61671 0.47839 0.0
H1054 H 0.85698 0.53291 0.48806 0.0
H1055 H 0.87429 0.60654 0.47394 0.0
H1056 H 0.93134 0.51498 0.48062 0.0
H1057 H 0.89477 0.53106 0.46247 0.0
H1058 H 0.90143 0.59403 0.50749 0.0
H1059 H 0.93764 0.5778 0.52554 0.0
C1060 C 0.82723 0.55696 0.48804 0.0
C1061 C 0.8197 0.5807 0.4863 0.0
C1062 C 0.85159 0.55114 0.48511 0.0
C1063 C 0.86899 0.56896 0.48061 0.0
C1064 C 0.86126 0.59247 0.4774 0.0
C1065 C 0.83681 0.59827 0.48006 0.0
C1066 C 0.92574 0.53287 0.48549 0.0
C1067 C 0.93709 0.54525 0.5044 0.0
C1068 C 0.90468 0.54195 0.47534 0.0
C1069 C 0.89497 0.56355 0.48396 0.0
C1070 C 0.90844 0.57738 0.50042 0.0
C1071 C 0.92924 0.56815 0.51075 0.0
H1072 H 0.11807 0.10124 0.24681 0.0
H1073 H 0.17766 0.05526 0.2281 0.0
H1074 H 0.14485 0.13569 0.24549 0.0
H1075 H 0.20436 0.08988 0.22518 0.0
H1076 H 0.2483 0.14952 0.26343 0.0
H1077 H 0.22421 0.11578 0.25027 0.0
H1078 H 0.16868 0.16364 0.22597 0.0
H1079 H 0.19292 0.19754 0.24071 0.0
C1080 C 0.13689 0.09855 0.24203 0.0
C1081 C 0.14584 0.07546 0.238 0.0
C1082 C 0.15227 0.11842 0.24092 0.0
C1083 C 0.177 0.11584 0.23526 0.0
C1084 C 0.18563 0.09272 0.23014 0.0
C1085 C 0.17033 0.07277 0.2318 0.0
C1086 C 0.23136 0.15286 0.25436 0.0
C1087 C 0.22238 0.17611 0.25311 0.0
C1088 C 0.21739 0.1334 0.24676 0.0
C1089 C 0.19401 0.13669 0.23753 0.0
C1090 C 0.18626 0.16027 0.23367 0.0
C1091 C 0.20031 0.17982 0.24155 0.0
H1092 H 0.32814 0.944 0.51712 0.0
H1093 H 0.32641 0.87341 0.4854 0.0
H1094 H 0.37235 0.94394 0.51541 0.0
H1095 H 0.37087 0.87386 0.4826 0.0
H1096 H 0.42926 0.93658 0.44536 0.0
H1097 H 0.3937 0.91236 0.45475 0.0
H1098 H 0.41292 0.91458 0.52957 0.0
H1099 H 0.44889 0.9381 0.52013 0.0
C1100 C 0.33731 0.9283 0.51027 0.0
C1101 C 0.32406 0.90876 0.50136 0.0
C1102 C 0.36251 0.92815 0.50947 0.0
C1103 C 0.37484 0.90875 0.49912 0.0
C1104 C 0.36168 0.88878 0.49101 0.0
C1105 C 0.33638 0.8886 0.49255 0.0
C1106 C 0.42682 0.93041 0.46352 0.0
C1107 C 0.44161 0.9393 0.48204 0.0
C1108 C 0.40647 0.91658 0.46892 0.0
C1109 C 0.40055 0.91202 0.4929 0.0
C1110 C 0.41727 0.91785 0.51096 0.0
C1111 C 0.43794 0.9312 0.50548 0.0
H1112 H 0.801 0.54485 0.23244 0.0
H1113 H 0.84666 0.57768 0.2865 0.0
H1114 H 0.77639 0.58088 0.23149 0.0
H1115 H 0.82163 0.61337 0.28594 0.0
H1116 H 0.76524 0.67195 0.28364 0.0
H1117 H 0.77478 0.62994 0.29035 0.0
H1118 H 0.79743 0.62249 0.21652 0.0
H1119 H 0.78876 0.6645 0.21006 0.0
C1120 C 0.80527 0.55943 0.24469 0.0
C1121 C 0.82591 0.55871 0.2593 0.0
C1122 C 0.79118 0.57994 0.24414 0.0
C1123 C 0.79722 0.59971 0.25864 0.0
C1124 C 0.81654 0.59819 0.27479 0.0
C1125 C 0.83094 0.5779 0.27496 0.0
C1126 C 0.77166 0.66111 0.26876 0.0
C1127 C 0.77651 0.67132 0.2464 0.0
C1128 C 0.77709 0.6372 0.2726 0.0
C1129 C 0.78669 0.62316 0.2539 0.0
C1130 C 0.78976 0.63297 0.2311 0.0
C1131 C 0.78498 0.65695 0.22745 0.0
H1132 H 0.69788 0.4342 0.74903 0.0
H1133 H 0.63221 0.40338 0.77769 0.0
H1134 H 0.71731 0.39537 0.75049 0.0
H1135 H 0.65176 0.36472 0.77967 0.0
H1136 H 0.75137 0.32551 0.75813 0.0
H1137 H 0.73269 0.36214 0.77348 0.0
H1138 H 0.66302 0.33661 0.74858 0.0
H1139 H 0.68178 0.30016 0.73373 0.0
C1140 C 0.68776 0.41926 0.75611 0.0
C1141 C 0.6634 0.42181 0.76286 0.0
C1142 C 0.69895 0.397 0.75716 0.0
C1143 C 0.68604 0.37682 0.76507 0.0
C1144 C 0.66212 0.37977 0.77316 0.0
C1145 C 0.65093 0.40197 0.77204 0.0
C1146 C 0.73188 0.32733 0.75714 0.0
C1147 C 0.71786 0.30997 0.74518 0.0
C1148 C 0.72124 0.34844 0.76553 0.0
C1149 C 0.69642 0.35254 0.76189 0.0
C1150 C 0.68212 0.33406 0.75191 0.0
C1151 C 0.6928 0.31306 0.74349 0.0
H1152 H 0.98288 0.84052 0.86461 0.0
H1153 H 0.00341 0.80949 0.93175 0.0
H1154 H 0.97581 0.87853 0.88479 0.0
H1155 H -0.00242 0.84794 0.95195 0.0
H1156 H 0.98644 0.91761 0.98659 0.0
H1157 H 0.97409 0.88053 0.96622 0.0
H1158 H 0.00166 0.90819 0.89944 0.0
H1159 H 0.01308 0.94501 0.91977 0.0
C1160 C 0.9858 0.84183 0.88377 0.0
C1161 C -0.00588 0.82212 0.89654 0.0
C1162 C 0.9818 0.86368 0.89537 0.0
C1163 C 0.98651 0.86661 0.91999 0.0
C1164 C 0.99349 0.84645 0.93303 0.0
C1165 C -0.00294 0.82438 0.92144 0.0
C1166 C 0.98849 0.91613 0.9673 0.0
C1167 C 0.00038 0.93418 0.95461 0.0
C1168 C 0.98192 0.89471 0.95569 0.0
C1169 C 0.98737 0.89098 0.93122 0.0
C1170 C -0.00307 0.91023 0.91819 0.0
C1171 C 0.00339 0.93154 0.9298 0.0
H1172 H 0.95652 0.25537 0.71306 0.0
H1173 H 0.93047 0.27307 0.6426 0.0
H1174 H 0.9156 0.25999 0.72917 0.0
H1175 H 0.88979 0.277 0.65848 0.0
H1176 H 0.83372 0.23975 0.73847 0.0
H1177 H 0.87654 0.23987 0.72743 0.0
H1178 H 0.86514 0.30161 0.68362 0.0
H1179 H 0.82237 0.301 0.694 0.0
C1180 C 0.94212 0.26031 0.70103 0.0
C1181 C 0.94678 0.26385 0.67653 0.0
C1182 C 0.91866 0.26283 0.71024 0.0
C1183 C 0.89942 0.26894 0.69515 0.0
C1184 C 0.90423 0.27274 0.67074 0.0
C1185 C 0.92759 0.2703 0.66157 0.0
C1186 C 0.84047 0.25355 0.72678 0.0
C1187 C 0.82463 0.27016 0.71682 0.0
C1188 C 0.86503 0.25367 0.7205 0.0
C1189 C 0.87419 0.27053 0.70434 0.0
C1190 C 0.85855 0.288 0.69562 0.0
C1191 C 0.83405 0.28772 0.70166 0.0
H1192 H 0.51294 0.15133 0.37497 0.0
H1193 H 0.49661 0.1818 0.44461 0.0
H1194 H 0.50978 0.11155 0.39124 0.0
H1195 H 0.49246 0.14169 0.46086 0.0
H1196 H 0.4964 0.0664 0.48752 0.0
H1197 H 0.51115 0.10435 0.47151 0.0
H1198 H 0.47735 0.08697 0.40362 0.0
H1199 H 0.46357 0.04914 0.41948 0.0
C1200 C 0.50855 0.14952 0.39379 0.0
C1201 C 0.50464 0.16974 0.40842 0.0
C1202 C 0.50672 0.12666 0.40314 0.0
C1203 C 0.50059 0.1233 0.42733 0.0
C1204 C 0.49746 0.14356 0.4422 0.0
C1205 C 0.49958 0.16656 0.43286 0.0
C1206 C 0.49322 0.07034 0.46886 0.0
C1207 C 0.47948 0.05467 0.45447 0.0
C1208 C 0.50117 0.09226 0.45982 0.0
C1209 C 0.49534 0.09887 0.43628 0.0
C1210 C 0.48259 0.08246 0.42166 0.0
C1211 C 0.47468 0.06071 0.4307 0.0
H1212 H 0.57358 0.73935 0.18714 0.0
H1213 H 0.59671 0.75409 0.11473 0.0
H1214 H 0.61317 0.72339 0.19589 0.0
H1215 H 0.63711 0.73859 0.12397 0.0
H1216 H 0.70148 0.75325 0.18655 0.0
H1217 H 0.6686 0.75607 0.15814 0.0
H1218 H 0.64154 0.68756 0.18038 0.0
H1219 H 0.67519 0.68435 0.20839 0.0
C1220 C 0.58711 0.73913 0.17305 0.0
C1221 C 0.58208 0.74798 0.15026 0.0
C1222 C 0.60968 0.72966 0.17797 0.0
C1223 C 0.62788 0.72922 0.16036 0.0
C1224 C 0.62311 0.73834 0.13761 0.0
C1225 C 0.60019 0.74737 0.13247 0.0
C1226 C 0.68988 0.73785 0.18389 0.0
C1227 C 0.69096 0.71852 0.19953 0.0
C1228 C 0.67077 0.73961 0.16778 0.0
C1229 C 0.65241 0.72224 0.16753 0.0
C1230 C 0.65552 0.70122 0.18046 0.0
C1231 C 0.67474 0.69937 0.19643 0.0
H1232 H 0.97323 0.18625 0.58471 0.0
H1233 H 0.03191 0.1644 0.63028 0.0
H1234 H 0.97068 0.14587 0.56781 0.0
H1235 H 0.02953 0.12421 0.61301 0.0
H1236 H 0.03857 0.07919 0.53837 0.0
H1237 H 0.03889 0.11191 0.56782 0.0
H1238 H 0.96252 0.10087 0.58065 0.0
H1239 H 0.96244 0.06768 0.55153 0.0
C1240 C 0.98538 0.1728 0.59128 0.0
C1241 C 0.00287 0.17854 0.60867 0.0
C1242 C 0.98376 0.14967 0.5818 0.0
C1243 C -0.00014 0.13201 0.58925 0.0
C1244 C 0.01689 0.13754 0.60709 0.0
C1245 C 0.01822 0.16053 0.61689 0.0
C1246 C 0.02218 0.08309 0.54837 0.0
C1247 C 0.00058 0.07089 0.54311 0.0
C1248 C 0.02231 0.1018 0.5651 0.0
C1249 C 0.00067 0.10892 0.57629 0.0
C1250 C 0.97939 0.09565 0.57219 0.0
C1251 C 0.97939 0.07659 0.5558 0.0
H1252 H 0.60328 0.24706 0.38308 0.0
H1253 H 0.57592 0.22472 0.31381 0.0
H1254 H 0.64462 0.24607 0.3672 0.0
H1255 H 0.61688 0.22401 0.29798 0.0
H1256 H 0.68907 0.22134 0.27015 0.0
H1257 H 0.65768 0.20715 0.29766 0.0
H1258 H 0.66445 0.27269 0.33881 0.0
H1259 H 0.69576 0.28635 0.31146 0.0
C1260 C 0.60611 0.24167 0.36457 0.0
C1261 C 0.58633 0.23638 0.34957 0.0
C1262 C 0.62977 0.24102 0.35551 0.0
C1263 C 0.63408 0.23493 0.33133 0.0
C1264 C 0.61432 0.22838 0.31678 0.0
C1265 C 0.59075 0.22914 0.32577 0.0
C1266 C 0.68475 0.23195 0.28585 0.0
C1267 C 0.69466 0.25481 0.28877 0.0
C1268 C 0.66656 0.22406 0.30144 0.0
C1269 C 0.65816 0.23905 0.3201 0.0
C1270 C 0.67045 0.26065 0.3247 0.0
C1271 C 0.68843 0.26851 0.30904 0.0
H1272 H 0.48371 0.8426 0.13084 0.0
H1273 H 0.49051 0.806 0.06251 0.0
H1274 H 0.47749 0.87994 0.11045 0.0
H1275 H 0.48393 0.84369 0.04193 0.0
H1276 H 0.50309 0.92312 0.02024 0.0
H1277 H 0.50544 0.88282 0.0363 0.0
H1278 H 0.44737 0.89921 0.08573 0.0
H1279 H 0.44527 0.93926 0.07015 0.0
C1280 C 0.48363 0.84248 0.11142 0.0
C1281 C 0.48756 0.82132 0.0983 0.0
C1282 C 0.47993 0.8639 0.09971 0.0
C1283 C 0.48009 0.86477 0.07455 0.0
C1284 C 0.48384 0.84359 0.06133 0.0
C1285 C 0.48743 0.82202 0.07311 0.0
C1286 C 0.49061 0.91796 0.03429 0.0
C1287 C 0.47425 0.93452 0.04417 0.0
C1288 C 0.49191 0.89487 0.04344 0.0
C1289 C 0.47683 0.88797 0.06254 0.0
C1290 C 0.45961 0.90415 0.0714 0.0
C1291 C 0.45838 0.92712 0.0624 0.0
H1292 H 0.93145 0.72477 0.84975 0.0
H1293 H 0.94856 0.76056 0.78368 0.0
H1294 H 0.89036 0.71768 0.8357 0.0
H1295 H 0.90753 0.75294 0.76939 0.0
H1296 H 0.82353 0.7609 0.76827 0.0
H1297 H 0.86643 0.76587 0.7777 0.0
H1298 H 0.8675 0.6949 0.80663 0.0
H1299 H 0.82467 0.6902 0.79778 0.0
C1300 C 0.92654 0.73091 0.83213 0.0
C1301 C 0.94331 0.74328 0.81789 0.0
C1302 C 0.90299 0.72672 0.82398 0.0
C1303 C 0.89566 0.73469 0.80137 0.0
C1304 C 0.91252 0.74679 0.787 0.0
C1305 C 0.93608 0.75104 0.79516 0.0
C1306 C 0.83305 0.74624 0.77627 0.0
C1307 C 0.82064 0.72528 0.78252 0.0
C1308 C 0.85764 0.74906 0.78166 0.0
C1309 C 0.87031 0.73089 0.79326 0.0
C1310 C 0.85815 0.70946 0.79825 0.0
C1311 C 0.83361 0.70671 0.79302 0.0
H1312 H 0.95004 0.96839 0.79992 0.0
H1313 H 0.89998 0.0269 0.80654 0.0
H1314 H 0.96206 0.97443 0.84149 0.0
H1315 H 0.91273 0.03365 0.84781 0.0
H1316 H 0.91563 0.01742 0.9273 0.0
H1317 H 0.90699 0.01458 0.88483 0.0
H1318 H 0.98222 -0.00091 0.87027 0.0
H1319 H 0.99073 0.00103 0.91312 0.0
C1320 C 0.94194 0.98285 0.81013 0.0
C1321 C 0.92388 -0.00298 0.80005 0.0
C1322 C 0.94893 0.9864 0.83396 0.0
C1323 C 0.93821 0.00439 0.84811 0.0
C1324 C 0.92095 0.01926 0.83761 0.0
C1325 C 0.91374 0.0155 0.8139 0.0
C1326 C 0.9304 0.01352 0.91509 0.0
C1327 C 0.95388 0.00945 0.92365 0.0
C1328 C 0.92547 0.01207 0.89064 0.0
C1329 C 0.94393 0.00677 0.87405 0.0
C1330 C 0.96751 0.00295 0.88257 0.0
C1331 C 0.97241 0.00417 0.90712 0.0
H1332 H 0.76883 0.15813 0.57349 0.0
H1333 H 0.70647 0.11635 0.59459 0.0
H1334 H 0.77116 0.17527 0.61398 0.0
H1335 H 0.70856 0.134 0.6349 0.0
H1336 H 0.70333 0.21063 0.67753 0.0
H1337 H 0.70225 0.18079 0.64516 0.0
H1338 H 0.77618 0.16202 0.66045 0.0
H1339 H 0.77698 0.19153 0.69335 0.0
C1340 C 0.75582 0.15243 0.58684 0.0
C1341 C 0.73737 0.13606 0.58085 0.0
C1342 C 0.7573 0.16204 0.61002 0.0
C1343 C 0.74009 0.1558 0.62746 0.0
C1344 C 0.72208 0.13893 0.62173 0.0
C1345 C 0.72091 0.12892 0.59869 0.0
C1346 C 0.71895 0.19939 0.67457 0.0
C1347 C 0.74014 0.20307 0.68792 0.0
C1348 C 0.71836 0.18238 0.65611 0.0
C1349 C 0.73918 0.16928 0.65034 0.0
C1350 C 0.75992 0.17193 0.66466 0.0
C1351 C 0.76031 0.18859 0.68354 0.0
H1352 H 0.54061 0.02413 0.30798 0.0
H1353 H 0.59515 0.9695 0.31126 0.0
H1354 H 0.52937 0.01635 0.34941 0.0
H1355 H 0.58341 0.96121 0.35236 0.0
H1356 H 0.57801 0.97667 0.43336 0.0
H1357 H 0.58709 0.97994 0.39089 0.0
H1358 H 0.51092 0.98817 0.37588 0.0
H1359 H 0.50187 0.98562 0.41847 0.0
C1360 C 0.54997 0.01025 0.31743 0.0
C1361 C 0.5689 -0.00242 0.30639 0.0
C1362 C 0.54344 0.00568 0.34115 0.0
C1363 C 0.55556 0.98821 0.35427 0.0
C1364 C 0.574 0.97508 0.34294 0.0
C1365 C 0.58065 0.97977 0.31932 0.0
C1366 C 0.56315 0.97888 0.42101 0.0
C1367 C 0.53924 0.98102 0.42939 0.0
C1368 C 0.56835 0.98066 0.39659 0.0
C1369 C 0.54974 0.98447 0.37996 0.0
C1370 C 0.52573 0.98569 0.38825 0.0
C1371 C 0.52053 0.98405 0.41268 0.0
H1372 H 0.73902 0.79906 0.06874 0.0
H1373 H 0.73848 0.86749 0.10516 0.0
H1374 H 0.74459 0.77947 0.10711 0.0
H1375 H 0.74316 0.84798 0.14345 0.0
H1376 H 0.79009 0.80757 0.19784 0.0
H1377 H 0.77567 0.82855 0.16284 0.0
H1378 H 0.728 0.76925 0.14573 0.0
H1379 H 0.74356 0.74799 0.18049 0.0
C1380 C 0.73976 0.80987 0.08497 0.0
C1381 C 0.7387 0.83482 0.08389 0.0
C1382 C 0.74273 0.79865 0.107 0.0
C1383 C 0.74448 0.81217 0.1284 0.0
C1384 C 0.74235 0.83705 0.12731 0.0
C1385 C 0.73963 0.84824 0.10534 0.0
C1386 C 0.77596 0.79944 0.18696 0.0
C1387 C 0.76723 0.7766 0.19211 0.0
C1388 C 0.76765 0.81141 0.16691 0.0
C1389 C 0.75061 0.80062 0.15141 0.0
C1390 C 0.74121 0.77803 0.1572 0.0
C1391 C 0.74961 0.76607 0.17735 0.0
H1392 H 0.85561 -0.00395 0.6454 0.0
H1393 H 0.92809 0.0093 0.67154 0.0
H1394 H 0.86997 0.00123 0.60429 0.0
H1395 H 0.94244 0.01394 0.63079 0.0
H1396 H 0.96888 0.02189 0.56002 0.0
H1397 H 0.94313 0.03523 0.59325 0.0
H1398 H 0.89491 0.97551 0.57974 0.0
H1399 H 0.92027 0.96287 0.54643 0.0
C1400 C 0.87455 0.00021 0.64238 0.0
C1401 C 0.89083 0.00181 0.66164 0.0
C1402 C 0.88273 0.00332 0.61887 0.0
C1403 C 0.90734 0.00806 0.61422 0.0
C1404 C 0.92329 0.01078 0.63366 0.0
C1405 C 0.91514 0.00771 0.65707 0.0
C1406 C 0.95198 0.0126 0.5633 0.0
C1407 C 0.94646 0.99139 0.5509 0.0
C1408 C 0.93742 0.01996 0.58255 0.0
C1409 C 0.91735 0.00603 0.58957 0.0
C1410 C 0.91019 0.98668 0.57492 0.0
C1411 C 0.92474 0.97936 0.55582 0.0
H1412 H 0.78078 0.15862 0.42468 0.0
H1413 H 0.73145 0.21169 0.45232 0.0
H1414 H 0.7884 0.18276 0.38962 0.0
H1415 H 0.73884 0.23596 0.41659 0.0
H1416 H 0.73419 0.23795 0.32845 0.0
H1417 H 0.72901 0.22782 0.37074 0.0
H1418 H 0.80654 0.22298 0.37833 0.0
H1419 H 0.81173 0.23285 0.33628 0.0
C1420 C 0.77182 0.17566 0.42338 0.0
C1421 C 0.75555 0.1833 0.44117 0.0
C1422 C 0.77629 0.18956 0.40337 0.0
C1423 C 0.76431 0.21131 0.40046 0.0
C1424 C 0.74835 0.2193 0.41847 0.0
C1425 C 0.74424 0.20551 0.43889 0.0
C1426 C 0.75013 0.23565 0.33941 0.0
C1427 C 0.77334 0.2357 0.329 0.0
C1428 C 0.74717 0.22985 0.36361 0.0
C1429 C 0.76739 0.22414 0.37761 0.0
C1430 C 0.79065 0.2269 0.36781 0.0
C1431 C 0.7936 0.23258 0.34375 0.0
H1432 H 0.62984 -0.00312 0.14853 0.0
H1433 H 0.56026 0.01045 0.18145 0.0
H1434 H 0.6134 0.00804 0.10951 0.0
H1435 H 0.54411 0.02175 0.14279 0.0
H1436 H 0.52254 0.0561 0.07756 0.0
H1437 H 0.55042 0.05433 0.11136 0.0
H1438 H 0.57957 0.98859 0.0829 0.0
H1439 H 0.5513 0.99008 0.04962 0.0
C1440 C 0.61111 0.00233 0.14743 0.0
C1441 C 0.59624 0.00268 0.16793 0.0
C1442 C 0.60181 0.00879 0.12519 0.0
C1443 C 0.57768 0.01613 0.12331 0.0
C1444 C 0.56295 0.01666 0.14387 0.0
C1445 C 0.57209 0.00988 0.16594 0.0
C1446 C 0.53565 0.04186 0.07802 0.0
C1447 C 0.53495 0.02329 0.0609 0.0
C1448 C 0.55148 0.04079 0.09737 0.0
C1449 C 0.56679 0.02114 0.09983 0.0
C1450 C 0.56806 0.00403 0.08129 0.0
C1451 C 0.5521 0.00503 0.06201 0.0
H1452 H 0.71738 0.8744 0.91096 0.0
H1453 H 0.73663 0.81325 0.95283 0.0
H1454 H 0.71663 0.84958 0.87483 0.0
H1455 H 0.73633 0.78853 0.91654 0.0
H1456 H 0.71207 0.74531 0.85292 0.0
H1457 H 0.70852 0.77187 0.88746 0.0
H1458 H 0.74377 0.82794 0.84783 0.0
H1459 H 0.74692 0.80126 0.81284 0.0
C1460 C 0.72147 0.85565 0.9125 0.0
C1461 C 0.72703 0.84582 0.93488 0.0
C1462 C 0.72117 0.84146 0.8917 0.0
C1463 C 0.72637 0.81706 0.89274 0.0
C1464 C 0.73185 0.8072 0.91513 0.0
C1465 C 0.73215 0.82139 0.93595 0.0
C1466 C 0.71882 0.7634 0.85142 0.0
C1467 C 0.72999 0.77112 0.83019 0.0
C1468 C 0.71695 0.77858 0.87133 0.0
C1469 C 0.7263 0.80188 0.87063 0.0
C1470 C 0.73633 0.81009 0.84897 0.0
C1471 C 0.7381 0.79485 0.82889 0.0
H1472 H 0.81423 0.92889 0.97004 0.0
H1473 H 0.81461 0.8918 0.03731 0.0
H1474 H 0.85752 0.93675 0.97392 0.0
H1475 H 0.85808 0.90014 0.04137 0.0
H1476 H 0.9164 0.96578 0.04856 0.0
H1477 H 0.8796 0.94148 0.04713 0.0
H1478 H 0.89945 0.91569 0.97657 0.0
H1479 H 0.93663 0.9397 0.97825 0.0
C1480 C 0.8236 0.92227 0.98557 0.0
C1481 C 0.81097 0.90993 0.00347 0.0
C1482 C 0.84846 0.9265 0.98764 0.0
C1483 C 0.86119 0.91885 0.00785 0.0
C1484 C 0.84871 0.90609 0.02555 0.0
C1485 C 0.82386 0.9014 0.02324 0.0
C1486 C 0.91352 0.95393 0.03331 0.0
C1487 C 0.92926 0.95462 0.0135 0.0
C1488 C 0.89241 0.94008 0.03244 0.0
C1489 C 0.8865 0.92707 0.01156 0.0
C1490 C 0.90353 0.92575 0.9928 0.0
C1491 C 0.92493 0.93926 0.99387 0.0
H1492 H 0.30913 0.54893 0.03381 0.0
H1493 H 0.30648 0.57357 0.96101 0.0
H1494 H 0.34991 0.53391 0.02688 0.0
H1495 H 0.34638 0.55709 0.95335 0.0
H1496 H 0.42796 0.55876 0.95782 0.0
H1497 H 0.38556 0.56716 0.96206 0.0
H1498 H 0.37715 0.50717 0.00924 0.0
H1499 H 0.42054 0.49955 0.00605 0.0
C1500 C 0.31714 0.55066 0.01617 0.0
C1501 C 0.3049 0.56274 -0.00194 0.0
C1502 C 0.34045 0.54187 0.01209 0.0
C1503 C 0.35177 0.54451 0.98961 0.0
C1504 C 0.33872 0.55537 0.97113 0.0
C1505 C 0.31575 0.56472 0.97542 0.0
C1506 C 0.41716 0.54709 0.96893 0.0
C1507 C 0.42782 0.52849 0.98166 0.0
C1508 C 0.39257 0.55182 0.97121 0.0
C1509 C 0.37764 0.53785 0.98595 0.0
C1510 C 0.38808 0.51858 -0.002 0.0
C1511 C 0.41294 0.51404 -0.00401 0.0
H1512 H 0.11176 0.58931 0.714 0.0
H1513 H 0.16358 0.57219 0.76888 0.0
H1514 H 0.12751 0.63014 0.71317 0.0
H1515 H 0.17893 0.61308 0.76827 0.0
H1516 H 0.19504 0.6901 0.77185 0.0
H1517 H 0.1654 0.6577 0.77543 0.0
H1518 H 0.17174 0.64306 0.6995 0.0
H1519 H 0.20154 0.67532 0.69607 0.0
C1520 C 0.12617 0.59439 0.72621 0.0
C1521 C 0.13664 0.57753 0.74136 0.0
C1522 C 0.1351 0.61772 0.72572 0.0
C1523 C 0.15425 0.62469 0.74075 0.0
C1524 C 0.16389 0.60819 0.75675 0.0
C1525 C 0.1553 0.58476 0.75691 0.0
C1526 C 0.18906 0.68076 0.75577 0.0
C1527 C 0.2001 0.6853 0.73362 0.0
C1528 C 0.17239 0.66209 0.75786 0.0
C1529 C 0.16647 0.64791 0.73776 0.0
C1530 C 0.17585 0.65392 0.7152 0.0
C1531 C 0.19282 0.67234 0.7132 0.0
H1532 H 0.18972 0.44943 0.51119 0.0
H1533 H 0.14948 0.38522 0.52668 0.0
H1534 H 0.15248 0.47196 0.51158 0.0
H1535 H 0.11206 0.40797 0.52844 0.0
H1536 H 0.05312 0.4492 0.486 0.0
H1537 H 0.08621 0.42527 0.50088 0.0
H1538 H 0.11971 0.48881 0.53116 0.0
H1539 H 0.08738 0.51266 0.5144 0.0
C1540 C 0.17291 0.44025 0.51523 0.0
C1541 C 0.17243 0.41555 0.51853 0.0
C1542 C 0.15147 0.45321 0.51576 0.0
C1543 C 0.12905 0.44185 0.52004 0.0
C1544 C 0.12885 0.41728 0.52466 0.0
C1545 C 0.15029 0.40423 0.5237 0.0
C1546 C 0.06707 0.45777 0.49677 0.0
C1547 C 0.06762 0.48258 0.49955 0.0
C1548 C 0.08615 0.44411 0.5053 0.0
C1549 C 0.10606 0.45513 0.51681 0.0
C1550 C 0.1051 0.47977 0.52176 0.0
C1551 C 0.08636 0.49343 0.51264 0.0
H1552 H 0.87569 0.90073 0.76407 0.0
H1553 H 0.80708 0.93292 0.74791 0.0
H1554 H 0.85519 0.86368 0.77401 0.0
H1555 H 0.78647 0.8954 0.75669 0.0
H1556 H 0.75057 0.8284 0.77232 0.0
H1557 H 0.77335 0.86465 0.78238 0.0
H1558 H 0.83758 0.8331 0.75128 0.0
H1559 H 0.81486 0.79704 0.74214 0.0
C1560 C 0.85614 0.89989 0.7627 0.0
C1561 C 0.84302 0.91964 0.75479 0.0
C1562 C 0.84436 0.87858 0.76838 0.0
C1563 C 0.81914 0.87623 0.76586 0.0
C1564 C 0.80587 0.89647 0.75917 0.0
C1565 C 0.81768 0.91799 0.75389 0.0
C1566 C 0.76993 0.82876 0.76916 0.0
C1567 C 0.78108 0.80983 0.7568 0.0
C1568 C 0.7829 0.84976 0.77434 0.0
C1569 C 0.8072 0.85224 0.76701 0.0
C1570 C 0.81898 0.83206 0.75735 0.0
C1571 C 0.80602 0.81109 0.75233 0.0
H1572 H 0.66153 0.09052 0.46295 0.0
H1573 H 0.64857 0.1417 0.52006 0.0
H1574 H 0.6199 0.0761 0.46655 0.0
H1575 H 0.60697 0.12682 0.52398 0.0
H1576 H 0.56488 0.05226 0.54426 0.0
H1577 H 0.59545 0.08333 0.53827 0.0
H1578 H 0.57409 0.08857 0.46421 0.0
H1579 H 0.54346 0.05759 0.4703 0.0
C1580 C 0.64964 0.09895 0.47596 0.0
C1581 C 0.65829 0.11703 0.49136 0.0
C1582 C 0.62577 0.09088 0.47787 0.0
C1583 C 0.61027 0.10046 0.4955 0.0
C1584 C 0.61857 0.11927 0.51019 0.0
C1585 C 0.64234 0.12771 0.50794 0.0
C1586 C 0.56591 0.06098 0.52708 0.0
C1587 C 0.55173 0.05283 0.50781 0.0
C1588 C 0.58337 0.07873 0.52363 0.0
C1589 C 0.58719 0.08811 0.50072 0.0
C1590 C 0.57142 0.08158 0.48203 0.0
C1591 C 0.55371 0.06409 0.48559 0.0
H1592 H 0.20529 0.43761 0.72324 0.0
H1593 H 0.18059 0.43652 0.79658 0.0
H1594 H 0.22176 0.39759 0.72746 0.0
H1595 H 0.19835 0.39732 0.80148 0.0
H1596 H 0.18421 0.31884 0.78538 0.0
H1597 H 0.18153 0.36156 0.78618 0.0
H1598 H 0.24712 0.36669 0.74403 0.0
H1599 H 0.24948 0.32308 0.74255 0.0
C1600 C 0.20447 0.42922 0.74059 0.0
C1601 C 0.19147 0.43983 0.75952 0.0
C1602 C 0.2139 0.4063 0.74305 0.0
C1603 C 0.21074 0.39394 0.76462 0.0
C1604 C 0.20037 0.406 0.78437 0.0
C1605 C 0.19042 0.42854 0.78171 0.0
C1606 C 0.19826 0.3289 0.77635 0.0
C1607 C 0.21699 0.31739 0.76375 0.0
C1608 C 0.19689 0.3536 0.77711 0.0
C1609 C 0.21429 0.36771 0.76544 0.0
C1610 C 0.2334 0.35634 0.75319 0.0
C1611 C 0.23479 0.33137 0.7524 0.0
H1612 H 0.36766 0.59484 0.24875 0.0
H1613 H 0.29605 0.56445 0.24033 0.0
H1614 H 0.35093 0.63472 0.24648 0.0
H1615 H 0.27917 0.60444 0.23873 0.0
H1616 H 0.25288 0.67631 0.22421 0.0
H1617 H 0.27625 0.64035 0.21548 0.0
H1618 H 0.32697 0.66067 0.27109 0.0
H1619 H 0.3038 0.69661 0.27923 0.0
C1620 C 0.34829 0.59666 0.24658 0.0
C1621 C 0.33314 0.57642 0.24495 0.0
C1622 C 0.33871 0.61958 0.24522 0.0
C1623 C 0.31372 0.62289 0.24227 0.0
C1624 C 0.29858 0.60261 0.2405 0.0
C1625 C 0.30819 0.57965 0.24177 0.0
C1626 C 0.26979 0.67365 0.23355 0.0
C1627 C 0.27682 0.68929 0.25212 0.0
C1628 C 0.2829 0.65282 0.22896 0.0
C1629 C 0.30315 0.64726 0.24301 0.0
C1630 C 0.31154 0.6643 0.25985 0.0
C1631 C 0.29841 0.68508 0.2644 0.0
H1632 H 0.53271 0.65398 0.61772 0.0
H1633 H 0.49598 0.68654 0.55852 0.0
H1634 H 0.53463 0.61653 0.59542 0.0
H1635 H 0.49732 0.6487 0.53634 0.0
H1636 H 0.4915 0.55021 0.56525 0.0
H1637 H 0.50521 0.58676 0.58511 0.0
H1638 H 0.52034 0.61773 0.51616 0.0
H1639 H 0.50609 0.58101 0.49645 0.0
C1640 C 0.52511 0.6532 0.59985 0.0
C1641 C 0.51383 0.67324 0.59006 0.0
C1642 C 0.52622 0.63164 0.58706 0.0
C1643 C 0.51594 0.6294 0.56415 0.0
C1644 C 0.5057 0.64977 0.55384 0.0
C1645 C 0.50474 0.67147 0.56662 0.0
C1646 C 0.49903 0.56436 0.55445 0.0
C1647 C 0.49815 0.56271 0.5294 0.0
C1648 C 0.50671 0.58549 0.56579 0.0
C1649 C 0.51345 0.60548 0.55224 0.0
C1650 C 0.51481 0.60289 0.52714 0.0
C1651 C 0.50715 0.5817 0.51584 0.0
H1652 H 0.55512 0.24045 0.79974 0.0
H1653 H 0.58942 0.2365 0.86906 0.0
H1654 H 0.59455 0.23444 0.78022 0.0
H1655 H 0.62838 0.23057 0.8497 0.0
H1656 H 0.68985 0.19725 0.81185 0.0
H1657 H 0.64775 0.19855 0.82452 0.0
H1658 H 0.63525 0.25746 0.77738 0.0
H1659 H 0.67762 0.25613 0.76439 0.0
C1660 C 0.57102 0.23823 0.81076 0.0
C1661 C 0.56922 0.2389 0.83591 0.0
C1662 C 0.59351 0.23488 0.79961 0.0
C1663 C 0.6144 0.2318 0.81347 0.0
C1664 C 0.61249 0.23247 0.83857 0.0
C1665 C 0.5902 0.23604 0.84965 0.0
C1666 C 0.67809 0.21027 0.80387 0.0
C1667 C 0.68716 0.22688 0.78745 0.0
C1668 C 0.654 0.21101 0.81116 0.0
C1669 C 0.63843 0.22839 0.80226 0.0
C1670 C 0.64692 0.24387 0.78449 0.0
C1671 C 0.67115 0.24312 0.77711 0.0
H1672 H 0.97275 0.33496 0.1066 0.0
H1673 H 0.00596 0.3088 0.04124 0.0
H1674 H 0.97048 0.37469 0.08978 0.0
H1675 H 0.00397 0.3487 0.02453 0.0
H1676 H -0.00558 0.42076 -0.00453 0.0
H1677 H 0.97921 0.38272 0.0108 0.0
H1678 H 0.00297 0.40341 0.08187 0.0
H1679 H 0.01798 0.44107 0.06644 0.0
C1680 C 0.9793 0.3376 0.08851 0.0
C1681 C 0.98988 0.31877 0.07538 0.0
C1682 C 0.97797 0.3604 0.07888 0.0
C1683 C 0.98716 0.36494 0.05587 0.0
C1684 C -0.00354 0.34579 0.0422 0.0
C1685 C -0.00219 0.32294 0.05186 0.0
C1686 C -0.00482 0.41757 0.01455 0.0
C1687 C 0.00703 0.43384 0.02991 0.0
C1688 C 0.98686 0.39567 0.02328 0.0
C1689 C 0.99022 0.38986 0.0475 0.0
C1690 C -0.0001 0.40729 0.06318 0.0
C1691 C 0.00841 0.42897 0.05441 0.0
H1692 H 0.92088 0.79403 0.30661 0.0
H1693 H 0.91687 0.74824 0.36813 0.0
H1694 H 0.87725 0.79543 0.30515 0.0
H1695 H 0.87259 0.74989 0.36681 0.0
H1696 H 0.80818 0.72497 0.31379 0.0
H1697 H 0.84417 0.73231 0.33772 0.0
H1698 H 0.83921 0.80757 0.32339 0.0
H1699 H 0.80348 0.79982 0.29873 0.0
C1700 C 0.91066 0.78444 0.32003 0.0
C1701 C 0.92236 0.77065 0.33719 0.0
C1702 C 0.88554 0.78561 0.31949 0.0
C1703 C 0.87137 0.77297 0.33606 0.0
C1704 C 0.88304 0.75986 0.35386 0.0
C1705 C 0.90835 0.75881 0.3545 0.0
C1706 C 0.81391 0.74323 0.31708 0.0
C1707 C 0.80339 0.76184 0.30442 0.0
C1708 C 0.83464 0.74749 0.33074 0.0
C1709 C 0.84501 0.77042 0.33169 0.0
C1710 C 0.83192 0.78961 0.32241 0.0
C1711 C 0.81131 0.78528 0.30855 0.0
H1712 H 0.48786 0.30761 0.93073 0.0
H1713 H 0.51817 0.35086 0.87441 0.0
H1714 H 0.48402 0.34286 0.95621 0.0
H1715 H 0.51487 0.38612 0.90026 0.0
H1716 H 0.48441 0.44734 0.94785 0.0
H1717 H 0.4853 0.41301 0.92016 0.0
H1718 H 0.51183 0.369 0.9771 0.0
H1719 H 0.51081 0.40267 0.00442 0.0
C1720 C 0.4939 0.32459 0.92385 0.0
C1721 C 0.50352 0.32637 0.90063 0.0
C1722 C 0.49169 0.34481 0.93845 0.0
C1723 C 0.49925 0.36724 0.93026 0.0
C1724 C 0.50865 0.36912 0.90695 0.0
C1725 C 0.51075 0.34887 0.89226 0.0
C1726 C 0.49048 0.43033 0.95432 0.0
C1727 C 0.49749 0.42779 0.97832 0.0
C1728 C 0.49099 0.41071 0.93852 0.0
C1729 C 0.49844 0.38828 0.94655 0.0
C1730 C 0.50548 0.38588 0.97049 0.0
C1731 C 0.50495 0.40531 0.98615 0.0
H1732 H 0.92124 0.19968 0.16072 0.0
H1733 H 0.92614 0.2742 0.1431 0.0
H1734 H 0.87963 0.2053 0.17429 0.0
H1735 H 0.88449 0.28002 0.15759 0.0
H1736 H 0.8399 0.26653 0.23527 0.0
H1737 H 0.87077 0.27282 0.20454 0.0
H1738 H 0.83582 0.22013 0.15915 0.0
H1739 H 0.80456 0.21442 0.18971 0.0
C1740 C 0.91323 0.21717 0.1594 0.0
C1741 C 0.92685 0.23651 0.15101 0.0
C1742 C 0.88937 0.22036 0.16693 0.0
C1743 C 0.87885 0.24307 0.16675 0.0
C1744 C 0.89216 0.26232 0.15762 0.0
C1745 C 0.91591 0.25897 0.14941 0.0
C1746 C 0.83783 0.25768 0.218 0.0
C1747 C 0.81979 0.24028 0.21459 0.0
C1748 C 0.8556 0.26111 0.20047 0.0
C1749 C 0.85576 0.2467 0.17968 0.0
C1750 C 0.83603 0.23142 0.17506 0.0
C1751 C 0.81809 0.22828 0.19245 0.0
H1752 H 0.02777 0.71177 0.4418 0.0
H1753 H 0.97141 0.67663 0.4007 0.0
H1754 H 0.03074 0.67679 0.46727 0.0
H1755 H 0.97423 0.64188 0.42628 0.0
H1756 H 0.97631 0.58605 0.48313 0.0
H1757 H 0.96938 0.62679 0.46958 0.0
H1758 H 0.04589 0.63512 0.45565 0.0
H1759 H 0.05271 0.59449 0.46877 0.0
C1760 C 0.01571 0.69678 0.43849 0.0
C1761 C -0.00046 0.69683 0.41909 0.0
C1762 C 0.01743 0.67678 0.45305 0.0
C1763 C 0.00271 0.65665 0.44876 0.0
C1764 C 0.98561 0.65725 0.43019 0.0
C1765 C 0.98416 0.67706 0.41541 0.0
C1766 C 0.9917 0.5969 0.47791 0.0
C1767 C 0.01503 0.58715 0.47688 0.0
C1768 C 0.98771 0.6201 0.46999 0.0
C1769 C 0.00708 0.63404 0.46142 0.0
C1770 C 0.03065 0.62488 0.4623 0.0
C1771 C 0.03455 0.6016 0.46974 0.0
H1772 H 0.54644 0.74482 0.69172 0.0
H1773 H 0.59031 0.77371 0.63469 0.0
H1774 H 0.58198 0.74476 0.71806 0.0
H1775 H 0.62548 0.77408 0.66113 0.0
H1776 H 0.67237 0.80012 0.72133 0.0
H1777 H 0.63225 0.79873 0.70347 0.0
H1778 H 0.62848 0.72291 0.71462 0.0
H1779 H 0.6692 0.72416 0.73243 0.0
C1780 C 0.56363 0.75122 0.68487 0.0
C1781 C 0.56566 0.7594 0.6612 0.0
C1782 C 0.58388 0.75105 0.69988 0.0
C1783 C 0.60625 0.75954 0.69158 0.0
C1784 C 0.60828 0.76761 0.66793 0.0
C1785 C 0.58823 0.76735 0.65282 0.0
C1786 C 0.66273 0.78323 0.72064 0.0
C1787 C 0.67398 0.76218 0.72792 0.0
C1788 C 0.63985 0.78247 0.71035 0.0
C1789 C 0.62765 0.76068 0.70731 0.0
C1790 C 0.6377 0.73991 0.71679 0.0
C1791 C 0.66085 0.74064 0.72707 0.0
H1792 H 0.55188 0.48296 0.69278 0.0
H1793 H 0.62307 0.48204 0.66044 0.0
H1794 H 0.53356 0.48216 0.65277 0.0
H1795 H 0.60487 0.48139 0.62084 0.0
H1796 H 0.56714 0.45107 0.55652 0.0
H1797 H 0.58069 0.45139 0.59772 0.0
H1798 H 0.53091 0.5081 0.61484 0.0
H1799 H 0.51698 0.5078 0.57305 0.0
C1800 C 0.56358 0.48255 0.67717 0.0
C1801 C 0.58892 0.48236 0.67974 0.0
C1802 C 0.5531 0.48228 0.65433 0.0
C1803 C 0.56779 0.48154 0.63374 0.0
C1804 C 0.59307 0.4816 0.6364 0.0
C1805 C 0.60351 0.48204 0.6591 0.0
C1806 C 0.55891 0.46361 0.56897 0.0
C1807 C 0.54122 0.47969 0.56135 0.0
C1808 C 0.56675 0.46378 0.59262 0.0
C1809 C 0.55719 0.48004 0.60938 0.0
C1810 C 0.5386 0.49538 0.60223 0.0
C1811 C 0.53067 0.49522 0.57835 0.0
H1812 H 0.74991 0.32444 0.93942 0.0
H1813 H 0.72945 0.38813 0.90205 0.0
H1814 H 0.7595 0.30514 0.90135 0.0
H1815 H 0.73929 0.36863 0.86381 0.0
H1816 H 0.79979 0.28409 0.83686 0.0
H1817 H 0.79197 0.31088 0.87075 0.0
H1818 H 0.72596 0.33386 0.83719 0.0
H1819 H 0.7339 0.30699 0.80323 0.0
C1820 C 0.74721 0.33427 0.9231 0.0
C1821 C 0.73907 0.35791 0.92385 0.0
C1822 C 0.753 0.32329 0.90129 0.0
C1823 C 0.75072 0.33563 0.87968 0.0
C1824 C 0.7414 0.35881 0.88022 0.0
C1825 C 0.73571 0.3699 0.90213 0.0
C1826 C 0.78412 0.29556 0.83633 0.0
C1827 C 0.7675 0.2936 0.81744 0.0
C1828 C 0.77947 0.31065 0.85582 0.0
C1829 C 0.75803 0.32392 0.85686 0.0
C1830 C 0.74261 0.32379 0.83687 0.0
C1831 C 0.74731 0.30866 0.81727 0.0
H1832 H 0.87491 0.51205 0.15654 0.0
H1833 H 0.94699 0.51819 0.18605 0.0
H1834 H 0.89157 0.51346 0.11632 0.0
H1835 H 0.96375 0.52009 0.14543 0.0
H1836 H 0.9818 0.49016 0.06845 0.0
H1837 H 0.96832 0.49297 0.11014 0.0
H1838 H 0.91161 0.54106 0.08958 0.0
H1839 H 0.92461 0.53792 0.04807 0.0
C1840 C 0.89433 0.51395 0.15443 0.0
C1841 C 0.90965 0.51497 0.17443 0.0
C1842 C 0.90387 0.51492 0.13136 0.0
C1843 C 0.92896 0.51698 0.12774 0.0
C1844 C 0.94435 0.51831 0.14773 0.0
C1845 C 0.93475 0.51738 0.17093 0.0
C1846 C 0.96658 0.50148 0.07289 0.0
C1847 C 0.95405 0.51354 0.05492 0.0
C1848 C 0.95897 0.50318 0.09677 0.0
C1849 C 0.93877 0.51705 0.10304 0.0
C1850 C 0.92693 0.52986 0.0852 0.0
C1851 C 0.93442 0.52807 0.06141 0.0
H1852 H 0.75224 0.70997 0.44567 0.0
H1853 H 0.77037 0.64659 0.40476 0.0
H1854 H 0.74897 0.73216 0.40852 0.0
H1855 H 0.76644 0.66848 0.3678 0.0
H1856 H 0.75794 0.71198 0.30236 0.0
H1857 H 0.77732 0.7001 0.33983 0.0
H1858 H 0.71655 0.72831 0.37984 0.0
H1859 H 0.69768 0.74012 0.34289 0.0
C1860 C 0.75597 0.70089 0.42881 0.0
C1861 C 0.76099 0.67642 0.4281 0.0
C1862 C 0.75408 0.71358 0.40753 0.0
C1863 C 0.75702 0.70198 0.38517 0.0
C1864 C 0.76418 0.67802 0.38465 0.0
C1865 C 0.76617 0.66539 0.4059 0.0
C1866 C 0.74915 0.7161 0.31924 0.0
C1867 C 0.72622 0.72665 0.31977 0.0
C1868 C 0.76016 0.70926 0.34067 0.0
C1869 C 0.74847 0.71322 0.36285 0.0
C1870 C 0.72629 0.72527 0.36321 0.0
C1871 C 0.71529 0.73179 0.34196 0.0
H1872 H 0.60947 0.47973 0.83216 0.0
H1873 H 0.53622 0.5014 0.81722 0.0
H1874 H 0.59842 0.47355 0.87413 0.0
H1875 H 0.5253 0.49525 0.85888 0.0
H1876 H 0.50376 0.48096 0.92962 0.0
H1877 H 0.52023 0.46597 0.89171 0.0
H1878 H 0.58745 0.50314 0.90633 0.0
H1879 H 0.57095 0.5176 0.94429 0.0
C1880 C 0.59097 0.48292 0.83774 0.0
C1881 C 0.57379 0.49138 0.82141 0.0
C1882 C 0.58465 0.47927 0.86174 0.0
C1883 C 0.56095 0.48367 0.86979 0.0
C1884 C 0.5436 0.4912 0.8532 0.0
C1885 C 0.54996 0.4951 0.82935 0.0
C1886 C 0.52265 0.48433 0.92555 0.0
C1887 C 0.53619 0.50023 0.93983 0.0
C1888 C 0.53194 0.47621 0.9036 0.0
C1889 C 0.55486 0.48399 0.89574 0.0
C1890 C 0.56971 0.49686 0.91181 0.0
C1891 C 0.56036 0.50501 0.9337 0.0
H1892 H 0.72882 0.29584 0.04891 0.0
H1893 H 0.7804 0.34255 0.0843 0.0
H1894 H 0.72843 0.27004 0.08384 0.0
H1895 H 0.77997 0.31683 0.11911 0.0
H1896 H 0.78227 0.26382 0.17709 0.0
H1897 H 0.78888 0.27654 0.13579 0.0
H1898 H 0.71155 0.27765 0.1247 0.0
H1899 H 0.70506 0.26497 0.16578 0.0
C1900 C 0.7404 0.30038 0.06395 0.0
C1901 C 0.75443 0.32139 0.06395 0.0
C1902 C 0.74014 0.28562 0.08395 0.0
C1903 C 0.75412 0.29141 0.10426 0.0
C1904 C 0.76921 0.31169 0.10366 0.0
C1905 C 0.76929 0.32656 0.08378 0.0
C1906 C 0.76676 0.2658 0.16549 0.0
C1907 C 0.74315 0.26344 0.17462 0.0
C1908 C 0.77053 0.27338 0.14194 0.0
C1909 C 0.75073 0.27839 0.12707 0.0
C1910 C 0.7272 0.27383 0.13559 0.0
C1911 C 0.72345 0.26659 0.15916 0.0
H1912 H 0.96347 0.47574 0.30853 0.0
H1913 H 0.89268 0.50352 0.32606 0.0
H1914 H 0.97333 0.47479 0.35077 0.0
H1915 H 0.90244 0.50202 0.36865 0.0
H1916 H 0.9505 0.52909 0.43452 0.0
H1917 H 0.92947 0.52317 0.39639 0.0
H1918 H 0.96383 0.45464 0.38743 0.0
H1919 H 0.98556 0.46126 0.42495 0.0
C1920 C 0.94993 0.48146 0.32141 0.0
C1921 C 0.92736 0.48982 0.31392 0.0
C1922 C 0.95545 0.48064 0.34569 0.0
C1923 C 0.9385 0.488 0.36308 0.0
C1924 C 0.91585 0.49625 0.35565 0.0
C1925 C 0.91032 0.49714 0.33127 0.0
C1926 C 0.95268 0.5124 0.42477 0.0
C1927 C 0.96959 0.49565 0.43229 0.0
C1928 C 0.94072 0.50899 0.40295 0.0
C1929 C 0.94555 0.48871 0.38864 0.0
C1930 C 0.9603 0.47073 0.39777 0.0
C1931 C 0.9725 0.47433 0.41931 0.0
H1932 H 0.75417 0.61499 0.59518 0.0
H1933 H 0.76024 0.68204 0.55852 0.0
H1934 H 0.75947 0.63571 0.63357 0.0
H1935 H 0.76468 0.70276 0.59675 0.0
H1936 H 0.78995 0.73503 0.66456 0.0
H1937 H 0.79146 0.70953 0.62898 0.0
H1938 H 0.739 0.66196 0.66096 0.0
H1939 H 0.73838 0.68716 0.69709 0.0
C1940 C 0.75658 0.63415 0.59529 0.0
C1941 C 0.75681 0.64684 0.57372 0.0
C1942 C 0.75952 0.64604 0.61735 0.0
C1943 C 0.76266 0.67092 0.61837 0.0
C1944 C 0.76289 0.68354 0.59673 0.0
C1945 C 0.76013 0.67166 0.57473 0.0
C1946 C 0.77919 0.7188 0.66419 0.0
C1947 C 0.76393 0.71314 0.68349 0.0
C1948 C 0.77983 0.70431 0.64368 0.0
C1949 C 0.76487 0.68399 0.64175 0.0
C1950 C 0.75081 0.67743 0.66178 0.0
C1951 C 0.75047 0.69183 0.68253 0.0
H1952 H 0.65753 0.63268 0.4918 0.0
H1953 H 0.69098 0.56646 0.47004 0.0
H1954 H 0.61745 0.61469 0.48532 0.0
H1955 H 0.65136 0.54856 0.46398 0.0
H1956 H 0.58196 0.52277 0.43881 0.0
H1957 H 0.61658 0.54988 0.43801 0.0
H1958 H 0.59135 0.58374 0.5034 0.0
H1959 H 0.55617 0.55699 0.50367 0.0
C1960 C 0.65633 0.61434 0.48558 0.0
C1961 C 0.67743 0.60098 0.48144 0.0
C1962 C 0.6334 0.60405 0.48191 0.0
C1963 C 0.63117 0.58028 0.47385 0.0
C1964 C 0.65234 0.56708 0.46963 0.0
C1965 C 0.67513 0.57728 0.47335 0.0
C1966 C 0.58338 0.53657 0.45254 0.0
C1967 C 0.56659 0.53765 0.47143 0.0
C1968 C 0.60333 0.55194 0.45223 0.0
C1969 C 0.60713 0.56845 0.47105 0.0
C1970 C 0.589 0.57117 0.48867 0.0
C1971 C 0.56879 0.55591 0.48879 0.0
H1972 H 0.16092 0.91141 0.47481 0.0
H1973 H 0.19165 0.9518 0.53391 0.0
H1974 H 0.12411 0.93508 0.47753 0.0
H1975 H 0.15429 0.97514 0.53704 0.0
H1976 H 0.06672 0.96934 0.55121 0.0
H1977 H 0.10937 0.95846 0.54789 0.0
H1978 H 0.11016 0.98087 0.47426 0.0
H1979 H 0.06758 0.99236 0.4777 0.0
C1980 C 0.15984 0.92547 0.48827 0.0
C1981 C 0.17902 0.92971 0.50426 0.0
C1982 C 0.1389 0.93914 0.48966 0.0
C1983 C 0.13652 0.95698 0.50738 0.0
C1984 C 0.15583 0.96155 0.52315 0.0
C1985 C 0.1771 0.94822 0.52137 0.0
C1986 C 0.07624 0.97267 0.53457 0.0
C1987 C 0.06388 0.98155 0.51468 0.0
C1988 C 0.10062 0.96654 0.53271 0.0
C1989 C 0.11288 0.96872 0.51078 0.0
C1990 C 0.101 0.97904 0.49134 0.0
C1991 C 0.07673 0.98571 0.49336 0.0
H1992 H 0.39196 0.89935 0.72238 0.0
H1993 H 0.32764 0.9312 0.75302 0.0
H1994 H 0.37433 0.85968 0.72825 0.0
H1995 H 0.31029 0.89184 0.75876 0.0
H1996 H 0.30966 0.80137 0.71595 0.0
H1997 H 0.33752 0.83531 0.71264 0.0
H1998 H 0.31966 0.85703 0.78511 0.0
H1999 H 0.29179 0.82327 0.78821 0.0
C2000 C 0.37405 0.89793 0.73021 0.0
C2001 C 0.36123 0.91845 0.73733 0.0
C2002 C 0.36406 0.87524 0.7336 0.0
C2003 C 0.34124 0.87273 0.74443 0.0
C2004 C 0.32822 0.89325 0.75094 0.0
C2005 C 0.33805 0.91583 0.74738 0.0
C2006 C 0.3128 0.81266 0.73156 0.0
C2007 C 0.29887 0.80976 0.75239 0.0
C2008 C 0.32851 0.83221 0.7296 0.0
C2009 C 0.33024 0.84903 0.74844 0.0
C2010 C 0.31827 0.84454 0.77017 0.0
C2011 C 0.30257 0.82513 0.77207 0.0
H2012 H 0.29672 0.03591 0.97524 0.0
H2013 H 0.32802 0.10449 0.99308 0.0
H2014 H 0.33704 0.01966 0.96883 0.0
H2015 H 0.36836 0.08806 0.98875 0.0
H2016 H 0.43947 0.05773 0.98916 0.0
H2017 H 0.402 0.07131 0.97057 0.0
H2018 H 0.36558 0.00749 -0.00492 0.0
H2019 H 0.40296 0.99394 0.01215 0.0
C2020 C 0.31233 0.04748 0.97776 0.0
C2021 C 0.30939 0.07126 0.98516 0.0
C2022 C 0.33547 0.03821 0.97416 0.0
C2023 C 0.35621 0.05227 0.97885 0.0
C2024 C 0.35305 0.07658 0.98469 0.0
C2025 C 0.32986 0.08602 0.98752 0.0
C2026 C 0.42364 0.0462 0.98929 0.0
C2027 C 0.4238 0.02493 0.00205 0.0
C2028 C 0.40206 0.05409 0.97905 0.0
C2029 C 0.38036 0.04096 0.98197 0.0
C2030 C 0.38164 0.01825 0.99226 0.0
C2031 C 0.40315 0.01037 0.00217 0.0
H2032 H 0.61398 0.59073 0.7324 0.0
H2033 H 0.67868 0.55447 0.75463 0.0
H2034 H 0.63658 0.62803 0.73025 0.0
H2035 H 0.70118 0.59195 0.75295 0.0
H2036 H 0.67858 0.69053 0.77033 0.0
H2037 H 0.65417 0.65599 0.75854 0.0
H2038 H 0.71757 0.6229 0.72756 0.0
H2039 H 0.74192 0.65746 0.73993 0.0
C2040 C 0.63305 0.59066 0.73683 0.0
C2041 C 0.64443 0.56953 0.74391 0.0
C2042 C 0.64601 0.61213 0.73557 0.0
C2043 C 0.67074 0.61309 0.74134 0.0
C2044 C 0.68226 0.59186 0.74793 0.0
C2045 C 0.66928 0.57036 0.74918 0.0
C2046 C 0.68694 0.67647 0.75977 0.0
C2047 C 0.71201 0.67674 0.75574 0.0
C2048 C 0.67303 0.65648 0.75322 0.0
C2049 C 0.68403 0.63633 0.74264 0.0
C2050 C 0.70864 0.63785 0.73619 0.0
C2051 C 0.72251 0.65786 0.74277 0.0
H2052 H 0.83094 0.37971 0.006 0.0
H2053 H 0.81802 0.44082 0.96166 0.0
H2054 H 0.87457 0.38363 -0.00175 0.0
H2055 H 0.86088 0.44469 0.95419 0.0
H2056 H 0.94396 0.43693 0.00763 0.0
H2057 H 0.90642 0.41392 0.00948 0.0
H2058 H 0.89511 0.42541 0.93399 0.0
H2059 H 0.93209 0.44935 0.93253 0.0
C2060 C 0.83735 0.39387 -0.00542 0.0
C2061 C 0.821 0.41005 0.98458 0.0
C2062 C 0.86226 0.39601 0.99006 0.0
C2063 C 0.87112 0.41413 0.9752 0.0
C2064 C 0.85466 0.43006 0.96512 0.0
C2065 C 0.83001 0.42808 0.96976 0.0
C2066 C 0.93416 0.43334 0.99116 0.0
C2067 C 0.94052 0.44518 0.97003 0.0
C2068 C 0.91256 0.42024 0.99223 0.0
C2069 C 0.89741 0.41869 0.97207 0.0
C2070 C 0.90612 0.42697 0.94997 0.0
C2071 C 0.9274 0.44044 0.94903 0.0
H2072 H 0.33343 0.07468 0.78416 0.0
H2073 H 0.29514 0.04322 0.72404 0.0
H2074 H 0.30931 0.11074 0.78077 0.0
H2075 H 0.27139 0.07961 0.72036 0.0
H2076 H 0.28357 0.16307 0.7013 0.0
H2077 H 0.29145 0.12098 0.70813 0.0
H2078 H 0.26442 0.12842 0.78051 0.0
H2079 H 0.25587 0.17054 0.77345 0.0
C2080 C 0.31945 0.07526 0.77062 0.0
C2081 C 0.3163 0.05628 0.75423 0.0
C2082 C 0.30555 0.09582 0.76878 0.0
C2083 C 0.2886 0.0979 0.75025 0.0
C2084 C 0.28436 0.07836 0.7348 0.0
C2085 C 0.29792 0.05758 0.73695 0.0
C2086 C 0.2786 0.15551 0.71839 0.0
C2087 C 0.26922 0.16998 0.73686 0.0
C2088 C 0.28298 0.13144 0.72227 0.0
C2089 C 0.27858 0.12156 0.74486 0.0
C2090 C 0.2679 0.13567 0.76293 0.0
C2091 C 0.26294 0.15968 0.75885 0.0
H2092 H 0.18372 0.94442 0.27953 0.0
H2093 H 0.13193 0.90826 0.23389 0.0
H2094 H 0.20672 0.90774 0.2827 0.0
H2095 H 0.15571 0.87211 0.23529 0.0
H2096 H 0.19941 0.80733 0.2387 0.0
H2097 H 0.17185 0.83878 0.25244 0.0
H2098 H 0.2331 0.88701 0.25949 0.0
H2099 H 0.25997 0.85519 0.24782 0.0
C2100 C 0.17736 0.9286 0.27008 0.0
C2101 C 0.15627 0.92925 0.25621 0.0
C2102 C 0.19057 0.90752 0.27177 0.0
C2103 C 0.18348 0.88679 0.25891 0.0
C2104 C 0.16175 0.88737 0.24578 0.0
C2105 C 0.14819 0.90826 0.2447 0.0
C2106 C 0.20681 0.82428 0.24469 0.0
C2107 C 0.23168 0.82879 0.24273 0.0
C2108 C 0.19108 0.84258 0.25192 0.0
C2109 C 0.20002 0.86583 0.25672 0.0
C2110 C 0.22525 0.86953 0.25636 0.0
C2111 C 0.24081 0.85124 0.24952 0.0
H2112 H 0.51447 0.34422 0.37201 0.0
H2113 H 0.48472 0.30328 0.43024 0.0
H2114 H 0.50782 0.38061 0.3945 0.0
H2115 H 0.47723 0.34027 0.4528 0.0
H2116 H 0.51223 0.4058 0.49427 0.0
H2117 H 0.50075 0.36912 0.4736 0.0
H2118 H 0.48184 0.40945 0.41107 0.0
H2119 H 0.4946 0.44608 0.43178 0.0
C2120 C 0.50615 0.34295 0.38956 0.0
C2121 C 0.50045 0.32065 0.39939 0.0
C2122 C 0.50197 0.36403 0.40241 0.0
C2123 C 0.49179 0.36362 0.42554 0.0
C2124 C 0.48528 0.34135 0.43513 0.0
C2125 C 0.48959 0.3201 0.42221 0.0
C2126 C 0.5044 0.4069 0.47654 0.0
C2127 C 0.50422 0.42875 0.46461 0.0
C2128 C 0.4979 0.38578 0.46455 0.0
C2129 C 0.49106 0.38609 0.44031 0.0
C2130 C 0.48773 0.40841 0.4295 0.0
C2131 C 0.49449 0.42956 0.44151 0.0
H2132 H 0.44105 0.77931 0.18215 0.0
H2133 H 0.4563 0.7203 0.22849 0.0
H2134 H 0.40207 0.78455 0.20167 0.0
H2135 H 0.41684 0.72558 0.2481 0.0
H2136 H 0.32881 0.72721 0.23941 0.0
H2137 H 0.37233 0.72081 0.23371 0.0
H2138 H 0.38525 0.79644 0.24208 0.0
H2139 H 0.34198 0.80281 0.2473 0.0
C2140 C 0.43615 0.76756 0.19663 0.0
C2141 C 0.45173 0.74938 0.20374 0.0
C2142 C 0.41389 0.77069 0.20798 0.0
C2143 C 0.40656 0.75561 0.22658 0.0
C2144 C 0.42214 0.73748 0.23387 0.0
C2145 C 0.44468 0.73454 0.22269 0.0
C2146 C 0.34112 0.74227 0.24104 0.0
C2147 C 0.33217 0.76553 0.24338 0.0
C2148 C 0.36599 0.73864 0.23772 0.0
C2149 C 0.38199 0.75824 0.23686 0.0
C2150 C 0.37321 0.78111 0.24215 0.0
C2151 C 0.3485 0.78473 0.24527 0.0
H2152 H 0.99015 0.65472 0.87971 0.0
H2153 H 0.0239 0.68471 0.9431 0.0
H2154 H 0.99109 0.61546 0.89715 0.0
H2155 H 0.02568 0.64499 0.96045 0.0
H2156 H 0.98629 0.5779 0.99258 0.0
H2157 H -0.00081 0.61625 0.97709 0.0
H2158 H 0.01486 0.58279 0.90854 0.0
H2159 H 0.00077 0.54461 0.92407 0.0
C2160 C -0.00204 0.65289 0.89736 0.0
C2161 C 0.00672 0.6729 0.9101 0.0
C2162 C -0.00115 0.63023 0.90727 0.0
C2163 C 0.00877 0.62684 0.93016 0.0
C2164 C 0.01779 0.64689 0.94285 0.0
C2165 C 0.01671 0.66968 0.93295 0.0
C2166 C 0.99361 0.57862 0.97456 0.0
C2167 C 0.99276 0.5584 0.95953 0.0
C2168 C 0.00091 0.60066 0.96557 0.0
C2169 C 0.00745 0.60284 0.94131 0.0
C2170 C 0.00927 0.58192 0.92712 0.0
C2171 C 0.00171 0.55991 0.9361 0.0
H2172 H 0.08835 0.23059 0.60736 0.0
H2173 H 0.08286 0.29278 0.65352 0.0
H2174 H 0.12789 0.22161 0.62471 0.0
H2175 H 0.12259 0.28419 0.67025 0.0
H2176 H 0.19816 0.27066 0.68942 0.0
H2177 H 0.16919 0.27797 0.65748 0.0
H2178 H 0.13395 0.21079 0.67201 0.0
H2179 H 0.16311 0.2035 0.70403 0.0
C2180 C 0.09594 0.24271 0.62065 0.0
C2181 C 0.08262 0.2623 0.62928 0.0
C2182 C 0.11847 0.23755 0.63054 0.0
C2183 C 0.12817 0.25229 0.64865 0.0
C2184 C 0.11556 0.27275 0.65607 0.0
C2185 C 0.09283 0.27757 0.64663 0.0
C2186 C 0.18513 0.25684 0.6848 0.0
C2187 C 0.18308 0.23629 0.69869 0.0
C2188 C 0.1684 0.26117 0.66678 0.0
C2189 C 0.14947 0.24493 0.66239 0.0
C2190 C 0.14864 0.2234 0.67491 0.0
C2191 C 0.16521 0.21924 0.69319 0.0
H2192 H 0.48243 0.69075 0.08812 0.0
H2193 H 0.52685 0.65379 0.13906 0.0
H2194 H 0.48252 0.65559 0.06204 0.0
H2195 H 0.52751 0.61898 0.11264 0.0
H2196 H 0.50769 0.55387 0.0649 0.0
H2197 H 0.50437 0.58658 0.09413 0.0
H2198 H 0.51325 0.6373 0.03721 0.0
H2199 H 0.51533 0.60505 0.00815 0.0
C2200 C 0.49207 0.67511 0.09383 0.0
C2201 C 0.50485 0.6752 0.11552 0.0
C2202 C 0.49227 0.65501 0.07883 0.0
C2203 C 0.50539 0.63467 0.08512 0.0
C2204 C 0.51717 0.63433 0.10734 0.0
C2205 C 0.51685 0.65437 0.12242 0.0
C2206 C 0.50869 0.572 0.05866 0.0
C2207 C 0.51106 0.57678 0.03412 0.0
C2208 C 0.507 0.59073 0.07541 0.0
C2209 C 0.50793 0.61453 0.06787 0.0
C2210 C 0.51164 0.61919 0.0435 0.0
C2211 C 0.51315 0.6006 0.02686 0.0
H2212 H 0.10151 0.74166 0.88006 0.0
H2213 H 0.07208 0.73564 0.80859 0.0
H2214 H 0.14246 0.74069 0.86347 0.0
H2215 H 0.11272 0.73547 0.79199 0.0
H2216 H 0.18457 0.73362 0.76266 0.0
H2217 H 0.15119 0.71714 0.78614 0.0
H2218 H 0.1656 0.76941 0.84213 0.0
H2219 H 0.19948 0.78475 0.81908 0.0
C2220 C 0.10379 0.74001 0.86083 0.0
C2221 C 0.0836 0.73913 0.84559 0.0
C2222 C 0.12724 0.7394 0.85132 0.0
C2223 C 0.13095 0.73807 0.82638 0.0
C2224 C 0.11066 0.73607 0.81129 0.0
C2225 C 0.08728 0.73651 0.82079 0.0
C2226 C 0.18154 0.74041 0.78064 0.0
C2227 C 0.19471 0.76011 0.7893 0.0
C2228 C 0.16207 0.7314 0.7939 0.0
C2229 C 0.15534 0.74229 0.81581 0.0
C2230 C 0.17024 0.76043 0.82545 0.0
C2231 C 0.18968 0.7693 0.81224 0.0
H2232 H 0.96649 0.33892 0.59666 0.0
H2233 H 0.00952 0.31199 0.53762 0.0
H2234 H 0.96227 0.37668 0.57661 0.0
H2235 H 0.0053 0.35033 0.51727 0.0
H2236 H 0.02024 0.43562 0.51767 0.0
H2237 H 0.02069 0.39287 0.52624 0.0
H2238 H 0.94394 0.39472 0.54104 0.0
H2239 H 0.9436 0.43718 0.533 0.0
C2240 C 0.97472 0.34097 0.57915 0.0
C2241 C 0.98834 0.32254 0.56871 0.0
C2242 C 0.97219 0.36259 0.56757 0.0
C2243 C 0.9834 0.36647 0.54531 0.0
C2244 C -0.00348 0.34782 0.53445 0.0
C2245 C -0.00123 0.32589 0.54597 0.0
C2246 C 0.0034 0.42668 0.52211 0.0
C2247 C 0.98199 0.43976 0.52514 0.0
C2248 C 0.00363 0.40223 0.52697 0.0
C2249 C 0.98241 0.39058 0.53475 0.0
C2250 C 0.96065 0.40332 0.53558 0.0
C2251 C 0.96047 0.42763 0.53097 0.0
H2252 H 0.43993 0.21285 0.33759 0.0
H2253 H 0.4461 0.2763 0.29511 0.0
H2254 H 0.39854 0.20707 0.32386 0.0
H2255 H 0.40421 0.27128 0.28227 0.0
H2256 H 0.33138 0.24694 0.25113 0.0
H2257 H 0.37477 0.24951 0.25975 0.0
H2258 H 0.36104 0.22435 0.33143 0.0
H2259 H 0.31845 0.22085 0.32257 0.0
C2260 C 0.43239 0.22561 0.32536 0.0
C2261 C 0.4462 0.24513 0.31761 0.0
C2262 C 0.40858 0.22241 0.31757 0.0
C2263 C 0.39778 0.23893 0.30222 0.0
C2264 C 0.41191 0.25807 0.29389 0.0
C2265 C 0.43591 0.26104 0.30137 0.0
C2266 C 0.33775 0.24181 0.26864 0.0
C2267 C 0.32144 0.23346 0.28604 0.0
C2268 C 0.3626 0.24339 0.27365 0.0
C2269 C 0.37155 0.23688 0.29623 0.0
C2270 C 0.35506 0.22885 0.31361 0.0
C2271 C 0.33046 0.22702 0.30855 0.0
H2272 H 0.4613 0.49298 0.29707 0.0
H2273 H 0.38942 0.51275 0.32027 0.0
H2274 H 0.47618 0.49914 0.3378 0.0
H2275 H 0.40395 0.5179 0.36105 0.0
H2276 H 0.43831 0.54442 0.42853 0.0
H2277 H 0.42744 0.54231 0.38645 0.0
H2278 H 0.47499 0.48216 0.37632 0.0
H2279 H 0.48684 0.48517 0.41828 0.0
C2280 C 0.44866 0.49857 0.31089 0.0
C2281 C 0.42418 0.50241 0.30542 0.0
C2282 C 0.45716 0.50196 0.33429 0.0
C2283 C 0.44131 0.50903 0.35281 0.0
C2284 C 0.41684 0.51294 0.34723 0.0
C2285 C 0.40843 0.50983 0.32382 0.0
C2286 C 0.44663 0.53085 0.4173 0.0
C2287 C 0.46318 0.51469 0.4269 0.0
C2288 C 0.44024 0.52953 0.39315 0.0
C2289 C 0.44996 0.51179 0.37798 0.0
C2290 C 0.46722 0.49616 0.38737 0.0
C2291 C 0.47389 0.49774 0.41151 0.0
H2292 H 0.24747 0.68333 0.04965 0.0
H2293 H 0.24598 0.62348 0.09743 0.0
H2294 H 0.24922 0.71053 0.08387 0.0
H2295 H 0.24895 0.65065 0.13177 0.0
H2296 H 0.23049 0.70696 0.18887 0.0
H2297 H 0.22729 0.67921 0.15485 0.0
H2298 H 0.27542 0.72423 0.11386 0.0
H2299 H 0.27762 0.75223 0.14714 0.0
C2300 C 0.24791 0.67598 0.06749 0.0
C2301 C 0.24666 0.65129 0.07086 0.0
C2302 C 0.249 0.69157 0.08715 0.0
C2303 C 0.24932 0.68282 0.11066 0.0
C2304 C 0.24832 0.65805 0.11398 0.0
C2305 C 0.24684 0.64246 0.09429 0.0
C2306 C 0.24022 0.71093 0.1725 0.0
C2307 C 0.25404 0.73192 0.1706 0.0
C2308 C 0.23856 0.69496 0.15306 0.0
C2309 C 0.25098 0.69954 0.1315 0.0
C2310 C 0.26509 0.72037 0.12989 0.0
C2311 C 0.26645 0.73642 0.14909 0.0
H2312 H 0.04178 0.48843 0.79776 0.0
H2313 H 0.11645 0.48766 0.82063 0.0
H2314 H 0.02865 0.48194 0.83885 0.0
H2315 H 0.10333 0.48211 0.86182 0.0
H2316 H 0.07391 0.45411 0.93132 0.0
H2317 H 0.08524 0.45503 0.88912 0.0
H2318 H 0.02659 0.50355 0.87566 0.0
H2319 H 0.0147 0.50186 0.9175 0.0
C2320 C 0.05539 0.48694 0.81157 0.0
C2321 C 0.08015 0.48866 0.80596 0.0
C2322 C 0.04787 0.48333 0.83515 0.0
C2323 C 0.06492 0.48162 0.85369 0.0
C2324 C 0.0897 0.48297 0.84797 0.0
C2325 C 0.09723 0.48633 0.82435 0.0
C2326 C 0.06331 0.4648 0.9193 0.0
C2327 C 0.04347 0.478 0.92781 0.0
C2328 C 0.0699 0.46544 0.89513 0.0
C2329 C 0.05693 0.47948 0.879 0.0
C2330 C 0.03678 0.49226 0.88747 0.0
C2331 C 0.03005 0.49142 0.91154 0.0
H2332 H 0.23914 0.29997 0.56372 0.0
H2333 H 0.24212 0.3689 0.59907 0.0
H2334 H 0.24266 0.28072 0.60258 0.0
H2335 H 0.2448 0.34981 0.63775 0.0
H2336 H 0.28942 0.30734 0.6927 0.0
H2337 H 0.27606 0.32882 0.65764 0.0
H2338 H 0.2247 0.27235 0.64145 0.0
H2339 H 0.23887 0.25062 0.67648 0.0
C2340 C 0.24023 0.31098 0.57979 0.0
C2341 C 0.24079 0.33592 0.5783 0.0
C2342 C 0.242 0.29998 0.60209 0.0
C2343 C 0.24418 0.31373 0.62331 0.0
C2344 C 0.24361 0.33867 0.62177 0.0
C2345 C 0.24207 0.34962 0.59956 0.0
C2346 C 0.27465 0.30002 0.6821 0.0
C2347 C 0.26465 0.27775 0.6875 0.0
C2348 C 0.26698 0.31226 0.66197 0.0
C2349 C 0.24934 0.30229 0.64661 0.0
C2350 C 0.23847 0.28043 0.65277 0.0
C2351 C 0.24618 0.26821 0.67304 0.0
H2352 H 0.42775 0.52436 0.17658 0.0
H2353 H 0.35745 0.5033 0.1496 0.0
H2354 H 0.44261 0.52831 0.13593 0.0
H2355 H 0.37227 0.50773 0.10853 0.0
H2356 H 0.42858 0.46901 0.05619 0.0
H2357 H 0.3999 0.48286 0.08615 0.0
H2358 H 0.4429 0.54677 0.09696 0.0
H2359 H 0.4718 0.53233 0.06692 0.0
C2360 C 0.41533 0.52095 0.16192 0.0
C2361 C 0.3916 0.51299 0.1663 0.0
C2362 C 0.42374 0.52362 0.13852 0.0
C2363 C 0.40863 0.51838 0.11886 0.0
C2364 C 0.38441 0.51177 0.12327 0.0
C2365 C 0.37597 0.50912 0.14677 0.0
C2366 C 0.43109 0.48667 0.06395 0.0
C2367 C 0.4525 0.4995 0.05968 0.0
C2368 C 0.41466 0.49465 0.08124 0.0
C2369 C 0.41959 0.51553 0.09462 0.0
C2370 C 0.43897 0.53027 0.08739 0.0
C2371 C 0.45538 0.52223 0.06995 0.0
H2372 H 0.27073 0.63009 0.90529 0.0
H2373 H 0.25482 0.69751 0.94 0.0
H2374 H 0.27753 0.65023 0.86769 0.0
H2375 H 0.26197 0.71791 0.90204 0.0
H2376 H 0.24197 0.73299 0.82062 0.0
H2377 H 0.24169 0.71989 0.86223 0.0
H2378 H 0.30535 0.67764 0.84817 0.0
H2379 H 0.30529 0.69022 0.80664 0.0
C2380 C 0.26894 0.64929 0.90495 0.0
C2381 C 0.26218 0.6622 0.9256 0.0
C2382 C 0.27304 0.66089 0.8834 0.0
C2383 C 0.27045 0.68571 0.88191 0.0
C2384 C 0.26402 0.69875 0.90264 0.0
C2385 C 0.26004 0.6871 0.92435 0.0
C2386 C 0.25623 0.72138 0.82661 0.0
C2387 C 0.2734 0.71228 0.81031 0.0
C2388 C 0.2561 0.7139 0.85045 0.0
C2389 C 0.27322 0.69734 0.85833 0.0
C2390 C 0.29156 0.68993 0.84247 0.0
C2391 C 0.29158 0.69721 0.8187 0.0
H2392 H 0.1399 0.5045 0.65284 0.0
H2393 H 0.07399 0.47719 0.68462 0.0
H2394 H 0.11682 0.5176 0.61806 0.0
H2395 H 0.05121 0.49019 0.6501 0.0
H2396 H 0.01232 0.53871 0.60275 0.0
H2397 H 0.04079 0.53103 0.63489 0.0
H2398 H 0.09079 0.50026 0.58369 0.0
H2399 H 0.06218 0.50803 0.55154 0.0
C2400 C 0.1206 0.50099 0.65224 0.0
C2401 C 0.10868 0.49004 0.67155 0.0
C2402 C 0.10744 0.50857 0.63242 0.0
C2403 C 0.08221 0.50544 0.63177 0.0
C2404 C 0.07057 0.49342 0.6505 0.0
C2405 C 0.08366 0.48574 0.67014 0.0
C2406 C 0.02965 0.53089 0.59825 0.0
C2407 C 0.03497 0.52367 0.57463 0.0
C2408 C 0.04586 0.52636 0.61665 0.0
C2409 C 0.06766 0.51452 0.61178 0.0
C2410 C 0.07405 0.50937 0.58792 0.0
C2411 C 0.05777 0.51394 0.56948 0.0
H2412 H 0.23263 0.31701 0.44451 0.0
H2413 H 0.22876 0.38251 0.40497 0.0
H2414 H 0.22992 0.29431 0.40695 0.0
H2415 H 0.22583 0.35979 0.36757 0.0
H2416 H 0.25259 0.30704 0.30627 0.0
H2417 H 0.25102 0.33351 0.34156 0.0
H2418 H 0.20016 0.28561 0.37525 0.0
H2419 H 0.20188 0.25924 0.34033 0.0
C2420 C 0.23112 0.32657 0.42787 0.0
C2421 C 0.23087 0.35158 0.42784 0.0
C2422 C 0.22941 0.31358 0.40634 0.0
C2423 C 0.22751 0.32528 0.38426 0.0
C2424 C 0.22741 0.35026 0.38422 0.0
C2425 C 0.22897 0.36325 0.40574 0.0
C2426 C 0.24055 0.30258 0.32093 0.0
C2427 C 0.22757 0.28095 0.32065 0.0
C2428 C 0.23975 0.31765 0.34121 0.0
C2429 C 0.22593 0.31131 0.36145 0.0
C2430 C 0.2115 0.29064 0.36025 0.0
C2431 C 0.21231 0.27567 0.34012 0.0
H2432 H 0.31863 0.39396 0.53549 0.0
H2433 H 0.32156 0.42773 0.46649 0.0
H2434 H 0.36172 0.40324 0.54154 0.0
H2435 H 0.36452 0.43636 0.47229 0.0
H2436 H 0.44379 0.43998 0.48193 0.0
H2437 H 0.40701 0.41536 0.47937 0.0
H2438 H 0.38111 0.4469 0.54553 0.0
H2439 H 0.41742 0.47191 0.54771 0.0
C2440 C 0.32859 0.4029 0.52144 0.0
C2441 C 0.31673 0.41036 0.50063 0.0
C2442 C 0.35319 0.40813 0.52489 0.0
C2443 C 0.36643 0.42029 0.50729 0.0
C2444 C 0.35482 0.42663 0.48598 0.0
C2445 C 0.33018 0.42194 0.48279 0.0
C2446 C 0.43074 0.44082 0.49646 0.0
C2447 C 0.43328 0.45788 0.51496 0.0
C2448 C 0.40964 0.4269 0.49489 0.0
C2449 C 0.39118 0.42946 0.51212 0.0
C2450 C 0.3951 0.44449 0.53208 0.0
C2451 C 0.41588 0.45879 0.53335 0.0
H2452 H 0.81023 0.10532 0.47989 0.0
H2453 H 0.78701 0.0355 0.50271 0.0
H2454 H 0.85089 0.09059 0.47361 0.0
H2455 H 0.82797 0.02051 0.49583 0.0
H2456 H 0.91198 0.01585 0.51021 0.0
H2457 H 0.86872 0.02456 0.51283 0.0
H2458 H 0.87395 0.06498 0.44768 0.0
H2459 H 0.91708 0.05692 0.44551 0.0
C2460 C 0.81372 0.08673 0.48334 0.0
C2461 C 0.7953 0.07162 0.49182 0.0
C2462 C 0.83707 0.0782 0.47954 0.0
C2463 C 0.84269 0.05429 0.48402 0.0
C2464 C 0.82427 0.03906 0.49234 0.0
C2465 C 0.80078 0.04762 0.49616 0.0
C2466 C 0.90374 0.02619 0.49622 0.0
C2467 C 0.91796 0.036 0.47785 0.0
C2468 C 0.87895 0.03117 0.49769 0.0
C2469 C 0.86797 0.04587 0.48071 0.0
C2470 C 0.88195 0.05416 0.46142 0.0
C2471 C 0.90666 0.04942 0.4601 0.0
H2472 H 0.62798 0.09514 0.21746 0.0
H2473 H 0.66996 0.06098 0.27213 0.0
H2474 H 0.65574 0.12902 0.2183 0.0
H2475 H 0.69697 0.09537 0.27406 0.0
H2476 H 0.75661 0.14504 0.25349 0.0
H2477 H 0.7278 0.11251 0.25117 0.0
H2478 H 0.66998 0.16255 0.23975 0.0
H2479 H 0.69934 0.19512 0.24007 0.0
C2480 C 0.64292 0.09511 0.22998 0.0
C2481 C 0.64698 0.07541 0.24461 0.0
C2482 C 0.65878 0.11457 0.23055 0.0
C2483 C 0.67877 0.11486 0.24607 0.0
C2484 C 0.68218 0.09548 0.26139 0.0
C2485 C 0.66661 0.07584 0.26046 0.0
C2486 C 0.73779 0.1492 0.25031 0.0
C2487 C 0.73019 0.17285 0.24765 0.0
C2488 C 0.72117 0.13048 0.24927 0.0
C2489 C 0.69643 0.1349 0.24591 0.0
C2490 C 0.68889 0.15847 0.24242 0.0
C2491 C 0.70567 0.17722 0.24297 0.0
H2492 H 0.67923 0.94487 0.01088 0.0
H2493 H 0.64525 0.87981 0.03455 0.0
H2494 H 0.63975 0.96368 0.00872 0.0
H2495 H 0.60582 0.89888 0.03372 0.0
H2496 H 0.54418 0.92618 0.98486 0.0
H2497 H 0.57994 0.90895 0.00261 0.0
H2498 H 0.60394 0.97925 0.02543 0.0
H2499 H 0.56839 -0.00364 0.00635 0.0
C2500 C 0.66334 0.93481 0.01622 0.0
C2501 C 0.66522 0.91077 0.02241 0.0
C2502 C 0.64065 0.94564 0.01522 0.0
C2503 C 0.61941 0.93275 0.02079 0.0
C2504 C 0.62165 0.9092 0.02873 0.0
C2505 C 0.64426 0.89827 0.02928 0.0
C2506 C 0.55664 0.93775 -0.00542 0.0
C2507 C 0.55347 0.96245 -0.00528 0.0
C2508 C 0.57723 0.92793 0.00479 0.0
C2509 C 0.59516 0.94271 0.01524 0.0
C2510 C 0.59081 0.96736 0.01712 0.0
C2511 C 0.57027 0.97717 0.00662 0.0
H2512 H 0.3711 0.40245 0.23194 0.0
H2513 H 0.31606 0.44095 0.27128 0.0
H2514 H 0.34994 0.36541 0.23902 0.0
H2515 H 0.29508 0.40335 0.27936 0.0
H2516 H 0.24933 0.33882 0.24923 0.0
H2517 H 0.27132 0.37516 0.25907 0.0
H2518 H 0.33747 0.33489 0.26416 0.0
H2519 H 0.31519 0.2986 0.253 0.0
C2520 C 0.35459 0.40301 0.24246 0.0
C2521 C 0.34519 0.42484 0.25078 0.0
C2522 C 0.34253 0.38155 0.24686 0.0
C2523 C 0.32073 0.38107 0.25998 0.0
C2524 C 0.31165 0.40289 0.26896 0.0
C2525 C 0.32367 0.42452 0.26432 0.0
C2526 C 0.26834 0.33757 0.25375 0.0
C2527 C 0.28056 0.31594 0.25038 0.0
C2528 C 0.28111 0.35854 0.25924 0.0
C2529 C 0.30646 0.3583 0.2616 0.0
C2530 C 0.3181 0.33597 0.26161 0.0
C2531 C 0.30528 0.31499 0.25582 0.0
H2532 H 0.15217 0.63452 0.98726 0.0
H2533 H 0.18018 0.56555 0.00586 0.0
H2534 H 0.11103 0.62074 -0.00282 0.0
H2535 H 0.1396 0.5521 0.01585 0.0
H2536 H 0.07358 0.53417 0.04897 0.0
H2537 H 0.10737 0.56227 0.04744 0.0
H2538 H 0.08233 0.58709 0.97906 0.0
H2539 H 0.0481 0.55924 0.98088 0.0
C2540 C 0.14954 0.61651 0.99353 0.0
C2541 C 0.16932 0.60106 -0.00423 0.0
C2542 C 0.1261 0.60873 -0.00075 0.0
C2543 C 0.12229 0.58559 0.00773 0.0
C2544 C 0.14211 0.57025 0.00992 0.0
C2545 C 0.16533 0.57785 0.00391 0.0
C2546 C 0.07463 0.54648 0.03422 0.0
C2547 C 0.05866 0.54432 0.01483 0.0
C2548 C 0.094 0.56244 0.03327 0.0
C2549 C 0.09778 0.5762 0.01278 0.0
C2550 C 0.07985 0.57654 -0.00501 0.0
C2551 C 0.06023 0.56066 -0.00394 0.0
H2552 H 0.63455 0.91419 0.27106 0.0
H2553 H 0.69628 0.94032 0.23129 0.0
H2554 H 0.65231 0.87482 0.27185 0.0
H2555 H 0.71402 0.9003 0.2317 0.0
H2556 H 0.74102 0.82416 0.25978 0.0
H2557 H 0.72978 0.86649 0.25915 0.0
H2558 H 0.65739 0.84637 0.23743 0.0
H2559 H 0.66831 0.80469 0.23838 0.0
C2560 C 0.65204 0.91154 0.26264 0.0
C2561 C 0.66386 0.93017 0.25076 0.0
C2562 C 0.66217 0.88898 0.26302 0.0
C2563 C 0.68423 0.88444 0.25132 0.0
C2564 C 0.69693 0.90338 0.24076 0.0
C2565 C 0.68679 0.92619 0.24051 0.0
C2566 C 0.72285 0.82894 0.25456 0.0
C2567 C 0.70536 0.8112 0.24968 0.0
C2568 C 0.71645 0.85306 0.2542 0.0
C2569 C 0.69256 0.85956 0.24888 0.0
C2570 C 0.67573 0.84181 0.24232 0.0
C2571 C 0.68201 0.81794 0.24281 0.0
H2572 H 0.7984 0.06115 0.74418 0.0
H2573 H 0.87098 0.08617 0.72936 0.0
H2574 H 0.78424 0.10235 0.74506 0.0
H2575 H 0.8568 0.12702 0.72933 0.0
H2576 H 0.82888 0.19094 0.7759 0.0
H2577 H 0.84454 0.15341 0.76061 0.0
H2578 H 0.77671 0.13953 0.72435 0.0
H2579 H 0.76097 0.17727 0.74034 0.0
C2580 C 0.81124 0.07541 0.74081 0.0
C2581 C 0.83587 0.07045 0.73724 0.0
C2582 C 0.80311 0.09901 0.741 0.0
C2583 C 0.81943 0.11807 0.73739 0.0
C2584 C 0.84381 0.11287 0.7326 0.0
C2585 C 0.85195 0.08941 0.73269 0.0
C2586 C 0.8178 0.18041 0.76366 0.0
C2587 C 0.79393 0.18705 0.75898 0.0
C2588 C 0.82669 0.15877 0.75496 0.0
C2589 C 0.81174 0.14318 0.74155 0.0
C2590 C 0.78854 0.15094 0.73497 0.0
C2591 C 0.77968 0.17276 0.74366 0.0
loop_
_geom_bond_atom_site_label_1
_geom_bond_atom_site_label_2
_geom_bond_distance
_geom_bond_site_symmetry_2
_ccdc_geom_bond_type
C0 O1 1.306 . S
C0 O3 1.160 . S
O1 C0 1.306 . S
O1 Cd2 2.228 1_655 S
Cd2 O1 2.228 1_455 S
Cd2 O6 2.273 . S
Cd2 O10 2.277 . S
O3 C0 1.160 . S
O3 Cd4 2.203 1_655 S
Cd4 O3 2.203 1_455 S
Cd4 O6 2.411 . S
Cd4 O7 2.333 . S
Cd4 O8 2.352 . S
Cd4 O12 2.277 . S
Cd4 O13 2.356 . S
C5 O10 1.209 . S
C5 O12 1.226 . S
O6 Cd2 2.273 . S
O6 Cd4 2.411 . S
O6 C9 1.320 . S
O7 Cd4 2.333 . S
O7 C9 1.214 . S
O8 Cd4 2.352 . S
O8 C11 1.258 . S
C9 O6 1.320 . S
C9 O7 1.214 . S
O10 Cd2 2.277 . S
O10 C5 1.209 . S
C11 O8 1.258 . S
C11 O13 1.282 . S
O12 Cd4 2.277 . S
O12 C5 1.226 . S
O13 Cd4 2.356 . S
O13 C11 1.282 . S
C14 O15 1.306 . S
C14 O17 1.160 . S
O15 C14 1.306 . S
O15 Cd16 2.228 1_655 S
Cd16 O15 2.228 1_455 S
Cd16 O20 2.273 . S
Cd16 O24 2.277 . S
O17 C14 1.160 . S
O17 Cd18 2.203 1_655 S
Cd18 O17 2.203 1_455 S
Cd18 O20 2.411 . S
Cd18 O21 2.333 . S
Cd18 O22 2.352 . S
Cd18 O26 2.277 . S
Cd18 O27 2.356 . S
C19 O24 1.209 . S
C19 O26 1.226 . S
O20 Cd16 2.273 . S
O20 Cd18 2.411 . S
O20 C23 1.320 . S
O21 Cd18 2.333 . S
O21 C23 1.214 . S
O22 Cd18 2.352 . S
O22 C25 1.258 . S
C23 O20 1.320 . S
C23 O21 1.214 . S
O24 Cd16 2.277 . S
O24 C19 1.209 . S
C25 O22 1.258 . S
C25 O27 1.282 . S
O26 Cd18 2.277 . S
O26 C19 1.226 . S
O27 Cd18 2.356 . S
O27 C25 1.282 . S
C28 O29 1.306 . S
C28 O31 1.160 . S
O29 C28 1.306 . S
O29 Cd30 2.228 . S
Cd30 O29 2.228 . S
Cd30 O34 2.273 . S
Cd30 O38 2.277 . S
O31 C28 1.160 . S
O31 Cd32 2.203 . S
Cd32 O31 2.203 . S
Cd32 O34 2.411 . S
Cd32 O35 2.333 . S
Cd32 O36 2.352 . S
Cd32 O40 2.277 . S
Cd32 O41 2.356 . S
C33 O38 1.209 . S
C33 O40 1.226 . S
O34 Cd30 2.273 . S
O34 Cd32 2.411 . S
O34 C37 1.320 . S
O35 Cd32 2.333 . S
O35 C37 1.214 . S
O36 Cd32 2.352 . S
O36 C39 1.258 . S
C37 O34 1.320 . S
C37 O35 1.214 . S
O38 Cd30 2.277 . S
O38 C33 1.209 . S
C39 O36 1.258 . S
C39 O41 1.282 . S
O40 Cd32 2.277 . S
O40 C33 1.226 . S
O41 Cd32 2.356 . S
O41 C39 1.282 . S
C42 O43 1.306 . S
C42 O45 1.160 . S
O43 C42 1.306 . S
O43 Cd44 2.228 . S
Cd44 O43 2.228 . S
Cd44 O48 2.273 . S
Cd44 O52 2.277 . S
O45 C42 1.160 . S
O45 Cd46 2.203 . S
Cd46 O45 2.203 . S
Cd46 O48 2.411 . S
Cd46 O49 2.333 . S
Cd46 O50 2.352 . S
Cd46 O54 2.277 . S
Cd46 O55 2.356 . S
C47 O52 1.209 . S
C47 O54 1.226 . S
O48 Cd44 2.273 . S
O48 Cd46 2.411 . S
O48 C51 1.320 . S
O49 Cd46 2.333 . S
O49 C51 1.214 . S
O50 Cd46 2.352 . S
O50 C53 1.258 . S
C51 O48 1.320 . S
C51 O49 1.214 . S
O52 Cd44 2.277 . S
O52 C47 1.209 . S
C53 O50 1.258 . S
C53 O55 1.282 . S
O54 Cd46 2.277 . S
O54 C47 1.226 . S
O55 Cd46 2.356 . S
O55 C53 1.282 . S
C56 O57 1.306 . S
C56 O59 1.155 1_545 S
O57 C56 1.306 . S
O57 Cd58 2.228 . S
Cd58 O57 2.228 . S
Cd58 O62 2.273 . S
Cd58 O66 2.277 . S
O59 C56 1.155 1_565 S
O59 Cd60 2.204 . S
Cd60 O59 2.204 . S
Cd60 O62 2.411 1_565 S
Cd60 O63 2.333 . S
Cd60 O64 2.352 . S
Cd60 O68 2.277 1_565 S
Cd60 O69 2.356 . S
C61 O66 1.209 . S
C61 O68 1.226 . S
O62 Cd58 2.273 . S
O62 Cd60 2.411 1_545 S
O62 C65 1.320 . S
O63 Cd60 2.333 . S
O63 C65 1.214 1_565 S
O64 Cd60 2.352 . S
O64 C67 1.258 . S
C65 O62 1.320 . S
C65 O63 1.214 1_545 S
O66 Cd58 2.277 . S
O66 C61 1.209 . S
C67 O64 1.258 . S
C67 O69 1.282 . S
O68 Cd60 2.277 1_545 S
O68 C61 1.226 . S
O69 Cd60 2.356 . S
O69 C67 1.282 . S
C70 O71 1.306 . S
C70 O73 1.160 . S
O71 C70 1.306 . S
O71 Cd72 2.228 . S
Cd72 O71 2.228 . S
Cd72 O76 2.273 . S
Cd72 O80 2.277 . S
O73 C70 1.160 . S
O73 Cd74 2.203 . S
Cd74 O73 2.203 . S
Cd74 O76 2.411 . S
Cd74 O77 2.333 . S
Cd74 O78 2.352 . S
Cd74 O82 2.277 . S
Cd74 O83 2.356 . S
C75 O80 1.209 . S
C75 O82 1.226 . S
O76 Cd72 2.273 . S
O76 Cd74 2.411 . S
O76 C79 1.320 . S
O77 Cd74 2.333 . S
O77 C79 1.214 . S
O78 Cd74 2.352 . S
O78 C81 1.258 . S
C79 O76 1.320 . S
C79 O77 1.214 . S
O80 Cd72 2.277 . S
O80 C75 1.209 . S
C81 O78 1.258 . S
C81 O83 1.282 . S
O82 Cd74 2.277 . S
O82 C75 1.226 . S
O83 Cd74 2.356 . S
O83 C81 1.282 . S
C84 O85 1.306 1_545 S
C84 O87 1.160 . S
O85 C84 1.306 1_565 S
O85 Cd86 2.228 . S
Cd86 O85 2.228 . S
Cd86 O90 2.273 1_565 S
Cd86 O94 2.277 . S
O87 C84 1.160 . S
O87 Cd88 2.203 . S
Cd88 O87 2.203 . S
Cd88 O90 2.411 . S
Cd88 O91 2.333 . S
Cd88 O92 2.352 . S
Cd88 O96 2.277 1_545 S
Cd88 O97 2.356 . S
C89 O94 1.209 . S
C89 O96 1.226 . S
O90 Cd86 2.273 1_545 S
O90 Cd88 2.411 . S
O90 C93 1.320 . S
O91 Cd88 2.333 . S
O91 C93 1.214 . S
O92 Cd88 2.352 . S
O92 C95 1.258 . S
C93 O90 1.320 . S
C93 O91 1.214 . S
O94 Cd86 2.277 . S
O94 C89 1.209 . S
C95 O92 1.258 . S
C95 O97 1.282 . S
O96 Cd88 2.277 1_565 S
O96 C89 1.226 . S
O97 Cd88 2.356 . S
O97 C95 1.282 . S
C98 O99 1.306 . S
C98 O101 1.160 . S
O99 C98 1.306 . S
O99 Cd100 2.228 . S
Cd100 O99 2.228 . S
Cd100 O104 2.273 . S
Cd100 O108 2.277 . S
O101 C98 1.160 . S
O101 Cd102 2.203 1_554 S
Cd102 O101 2.203 1_556 S
Cd102 O104 2.411 1_556 S
Cd102 O105 2.333 1_556 S
Cd102 O106 2.348 . S
Cd102 O110 2.280 1_556 S
Cd102 O111 2.354 . S
C103 O108 1.209 . S
C103 O110 1.226 . S
O104 Cd100 2.273 . S
O104 Cd102 2.411 1_554 S
O104 C107 1.320 . S
O105 Cd102 2.333 1_554 S
O105 C107 1.213 . S
O106 Cd102 2.348 . S
O106 C109 1.258 . S
C107 O104 1.320 . S
C107 O105 1.213 . S
O108 Cd100 2.277 . S
O108 C103 1.209 . S
C109 O106 1.258 . S
C109 O111 1.282 . S
O110 Cd102 2.280 1_554 S
O110 C103 1.226 . S
O111 Cd102 2.354 . S
O111 C109 1.282 . S
C112 O113 1.304 1_554 S
C112 O115 1.161 . S
O113 C112 1.304 1_556 S
O113 Cd114 2.228 . S
Cd114 O113 2.228 . S
Cd114 O118 2.273 1_556 S
Cd114 O122 2.277 . S
O115 C112 1.161 . S
O115 Cd116 2.203 . S
Cd116 O115 2.203 . S
Cd116 O118 2.411 . S
Cd116 O119 2.333 . S
Cd116 O120 2.352 . S
Cd116 O124 2.277 1_554 S
Cd116 O125 2.356 . S
C117 O122 1.209 . S
C117 O124 1.226 . S
O118 Cd114 2.273 1_554 S
O118 Cd116 2.411 . S
O118 C121 1.320 . S
O119 Cd116 2.333 . S
O119 C121 1.214 . S
O120 Cd116 2.352 . S
O120 C123 1.258 . S
C121 O118 1.320 . S
C121 O119 1.214 . S
O122 Cd114 2.277 . S
O122 C117 1.209 . S
C123 O120 1.258 . S
C123 O125 1.282 . S
O124 Cd116 2.277 1_556 S
O124 C117 1.226 . S
O125 Cd116 2.356 . S
O125 C123 1.282 . S
C126 O127 1.306 . S
C126 O129 1.160 . S
O127 C126 1.306 . S
O127 Cd128 2.228 . S
Cd128 O127 2.228 . S
Cd128 O132 2.273 . S
Cd128 O136 2.277 . S
O129 C126 1.160 . S
O129 Cd130 2.203 . S
Cd130 O129 2.203 . S
Cd130 O132 2.411 . S
Cd130 O133 2.333 . S
Cd130 O134 2.352 . S
Cd130 O138 2.277 . S
Cd130 O139 2.356 . S
C131 O136 1.209 . S
C131 O138 1.226 . S
O132 Cd128 2.273 . S
O132 Cd130 2.411 . S
O132 C135 1.320 . S
O133 Cd130 2.333 . S
O133 C135 1.214 . S
O134 Cd130 2.352 . S
O134 C137 1.258 . S
C135 O132 1.320 . S
C135 O133 1.214 . S
O136 Cd128 2.277 . S
O136 C131 1.209 . S
C137 O134 1.258 . S
C137 O139 1.282 . S
O138 Cd130 2.277 . S
O138 C131 1.226 . S
O139 Cd130 2.356 . S
O139 C137 1.282 . S
C140 O141 1.306 . S
C140 O143 1.160 . S
O141 C140 1.306 . S
O141 Cd142 2.228 . S
Cd142 O141 2.228 . S
Cd142 O146 2.273 . S
Cd142 O150 2.277 . S
O143 C140 1.160 . S
O143 Cd144 2.203 . S
Cd144 O143 2.203 . S
Cd144 O146 2.411 . S
Cd144 O147 2.333 . S
Cd144 O148 2.352 . S
Cd144 O152 2.277 . S
Cd144 O153 2.356 . S
C145 O150 1.209 . S
C145 O152 1.226 . S
O146 Cd142 2.273 . S
O146 Cd144 2.411 . S
O146 C149 1.320 . S
O147 Cd144 2.333 . S
O147 C149 1.214 . S
O148 Cd144 2.352 . S
O148 C151 1.258 . S
C149 O146 1.320 . S
C149 O147 1.214 . S
O150 Cd142 2.277 . S
O150 C145 1.209 . S
C151 O148 1.258 . S
C151 O153 1.282 . S
O152 Cd144 2.277 . S
O152 C145 1.226 . S
O153 Cd144 2.356 . S
O153 C151 1.282 . S
C154 O155 1.306 . S
C154 O157 1.160 . S
O155 C154 1.306 . S
O155 Cd156 2.228 . S
Cd156 O155 2.228 . S
Cd156 O160 2.273 . S
Cd156 O164 2.277 . S
O157 C154 1.160 . S
O157 Cd158 2.203 . S
Cd158 O157 2.203 . S
Cd158 O160 2.411 . S
Cd158 O161 2.333 . S
Cd158 O162 2.352 . S
Cd158 O166 2.277 . S
Cd158 O167 2.356 . S
C159 O164 1.209 . S
C159 O166 1.226 . S
O160 Cd156 2.273 . S
O160 Cd158 2.411 . S
O160 C163 1.320 . S
O161 Cd158 2.333 . S
O161 C163 1.214 . S
O162 Cd158 2.352 . S
O162 C165 1.258 . S
C163 O160 1.320 . S
C163 O161 1.214 . S
O164 Cd156 2.277 . S
O164 C159 1.209 . S
C165 O162 1.258 . S
C165 O167 1.282 . S
O166 Cd158 2.277 . S
O166 C159 1.226 . S
O167 Cd158 2.356 . S
O167 C165 1.282 . S
C168 O169 1.306 . S
C168 O171 1.160 . S
O169 C168 1.306 . S
O169 Cd170 2.228 1_655 S
Cd170 O169 2.228 1_455 S
Cd170 O174 2.273 . S
Cd170 O178 2.277 . S
O171 C168 1.160 . S
O171 Cd172 2.203 1_655 S
Cd172 O171 2.203 1_455 S
Cd172 O174 2.411 . S
Cd172 O175 2.333 . S
Cd172 O176 2.352 . S
Cd172 O180 2.277 . S
Cd172 O181 2.356 . S
C173 O178 1.209 . S
C173 O180 1.226 . S
O174 Cd170 2.273 . S
O174 Cd172 2.411 . S
O174 C177 1.320 . S
O175 Cd172 2.333 . S
O175 C177 1.214 . S
O176 Cd172 2.352 . S
O176 C179 1.258 . S
C177 O174 1.320 . S
C177 O175 1.214 . S
O178 Cd170 2.277 . S
O178 C173 1.209 . S
C179 O176 1.258 . S
C179 O181 1.282 . S
O180 Cd172 2.277 . S
O180 C173 1.226 . S
O181 Cd172 2.356 . S
O181 C179 1.282 . S
C182 O183 1.306 . S
C182 O185 1.160 . S
O183 C182 1.306 . S
O183 Cd184 2.228 1_655 S
Cd184 O183 2.228 1_455 S
Cd184 O188 2.273 . S
Cd184 O192 2.277 . S
O185 C182 1.160 . S
O185 Cd186 2.203 1_655 S
Cd186 O185 2.203 1_455 S
Cd186 O188 2.411 . S
Cd186 O189 2.333 . S
Cd186 O190 2.352 . S
Cd186 O194 2.277 . S
Cd186 O195 2.356 . S
C187 O192 1.209 . S
C187 O194 1.226 . S
O188 Cd184 2.273 . S
O188 Cd186 2.411 . S
O188 C191 1.320 . S
O189 Cd186 2.333 . S
O189 C191 1.214 . S
O190 Cd186 2.352 . S
O190 C193 1.258 . S
C191 O188 1.320 . S
C191 O189 1.214 . S
O192 Cd184 2.277 . S
O192 C187 1.209 . S
C193 O190 1.258 . S
C193 O195 1.282 . S
O194 Cd186 2.277 . S
O194 C187 1.226 . S
O195 Cd186 2.356 . S
O195 C193 1.282 . S
C196 O197 1.306 . S
C196 O199 1.160 . S
O197 C196 1.306 . S
O197 Cd198 2.228 . S
Cd198 O197 2.228 . S
Cd198 O202 2.273 . S
Cd198 O206 2.277 . S
O199 C196 1.160 . S
O199 Cd200 2.203 . S
Cd200 O199 2.203 . S
Cd200 O202 2.411 . S
Cd200 O203 2.333 . S
Cd200 O204 2.352 . S
Cd200 O208 2.277 . S
Cd200 O209 2.356 . S
C201 O206 1.209 . S
C201 O208 1.226 . S
O202 Cd198 2.273 . S
O202 Cd200 2.411 . S
O202 C205 1.320 . S
O203 Cd200 2.333 . S
O203 C205 1.214 . S
O204 Cd200 2.352 . S
O204 C207 1.258 . S
C205 O202 1.320 . S
C205 O203 1.214 . S
O206 Cd198 2.277 . S
O206 C201 1.209 . S
C207 O204 1.258 . S
C207 O209 1.282 . S
O208 Cd200 2.277 . S
O208 C201 1.226 . S
O209 Cd200 2.356 . S
O209 C207 1.282 . S
C210 O211 1.306 . S
C210 O213 1.160 . S
O211 C210 1.306 . S
O211 Cd212 2.228 . S
Cd212 O211 2.228 . S
Cd212 O216 2.273 . S
Cd212 O220 2.277 . S
O213 C210 1.160 . S
O213 Cd214 2.203 . S
Cd214 O213 2.203 . S
Cd214 O216 2.411 . S
Cd214 O217 2.333 . S
Cd214 O218 2.352 . S
Cd214 O222 2.277 . S
Cd214 O223 2.356 . S
C215 O220 1.209 . S
C215 O222 1.226 . S
O216 Cd212 2.273 . S
O216 Cd214 2.411 . S
O216 C219 1.320 . S
O217 Cd214 2.333 . S
O217 C219 1.214 . S
O218 Cd214 2.352 . S
O218 C221 1.258 . S
C219 O216 1.320 . S
C219 O217 1.214 . S
O220 Cd212 2.277 . S
O220 C215 1.209 . S
C221 O218 1.258 . S
C221 O223 1.282 . S
O222 Cd214 2.277 . S
O222 C215 1.226 . S
O223 Cd214 2.356 . S
O223 C221 1.282 . S
C224 O225 1.306 . S
C224 O227 1.160 1_565 S
O225 C224 1.306 . S
O225 Cd226 2.228 . S
Cd226 O225 2.228 . S
Cd226 O230 2.295 . S
Cd226 O234 2.277 . S
O227 C224 1.160 1_545 S
O227 Cd228 2.203 . S
Cd228 O227 2.203 . S
Cd228 O230 2.408 1_545 S
Cd228 O231 2.333 . S
Cd228 O232 2.352 . S
Cd228 O236 2.277 1_545 S
Cd228 O237 2.356 . S
C229 O234 1.209 . S
C229 O236 1.226 . S
O230 Cd226 2.295 . S
O230 Cd228 2.408 1_565 S
O230 C233 1.318 1_565 S
O231 Cd228 2.333 . S
O231 C233 1.214 . S
O232 Cd228 2.352 . S
O232 C235 1.258 . S
C233 O230 1.318 1_545 S
C233 O231 1.214 . S
O234 Cd226 2.277 . S
O234 C229 1.209 . S
C235 O232 1.258 . S
C235 O237 1.282 . S
O236 Cd228 2.277 1_565 S
O236 C229 1.226 . S
O237 Cd228 2.356 . S
O237 C235 1.282 . S
C238 O239 1.306 . S
C238 O241 1.160 . S
O239 C238 1.306 . S
O239 Cd240 2.228 . S
Cd240 O239 2.228 . S
Cd240 O244 2.273 . S
Cd240 O248 2.277 . S
O241 C238 1.160 . S
O241 Cd242 2.203 . S
Cd242 O241 2.203 . S
Cd242 O244 2.411 . S
Cd242 O245 2.333 . S
Cd242 O246 2.352 . S
Cd242 O250 2.277 . S
Cd242 O251 2.356 . S
C243 O248 1.209 . S
C243 O250 1.226 . S
O244 Cd240 2.273 . S
O244 Cd242 2.411 . S
O244 C247 1.320 . S
O245 Cd242 2.333 . S
O245 C247 1.214 . S
O246 Cd242 2.352 . S
O246 C249 1.258 . S
C247 O244 1.320 . S
C247 O245 1.214 . S
O248 Cd240 2.277 . S
O248 C243 1.209 . S
C249 O246 1.258 . S
C249 O251 1.282 . S
O250 Cd242 2.277 . S
O250 C243 1.226 . S
O251 Cd242 2.356 . S
O251 C249 1.282 . S
C252 O253 1.306 . S
C252 O255 1.160 . S
O253 C252 1.306 . S
O253 Cd254 2.228 . S
Cd254 O253 2.228 . S
Cd254 O258 2.273 . S
Cd254 O262 2.277 . S
O255 C252 1.160 . S
O255 Cd256 2.203 . S
Cd256 O255 2.203 . S
Cd256 O258 2.411 . S
Cd256 O259 2.333 1_545 S
Cd256 O260 2.351 1_545 S
Cd256 O264 2.277 . S
Cd256 O265 2.356 1_545 S
C257 O262 1.209 . S
C257 O264 1.226 . S
O258 Cd254 2.273 . S
O258 Cd256 2.411 . S
O258 C261 1.320 . S
O259 Cd256 2.333 1_565 S
O259 C261 1.211 1_565 S
O260 Cd256 2.351 1_565 S
O260 C263 1.258 . S
C261 O258 1.320 . S
C261 O259 1.211 1_545 S
O262 Cd254 2.277 . S
O262 C257 1.209 . S
C263 O260 1.258 . S
C263 O265 1.282 . S
O264 Cd256 2.277 . S
O264 C257 1.226 . S
O265 Cd256 2.356 1_565 S
O265 C263 1.282 . S
C266 O267 1.306 1_554 S
C266 O269 1.160 . S
O267 C266 1.306 1_556 S
O267 Cd268 2.228 . S
Cd268 O267 2.228 . S
Cd268 O272 2.273 1_556 S
Cd268 O276 2.277 . S
O269 C266 1.160 . S
O269 Cd270 2.203 . S
Cd270 O269 2.203 . S
Cd270 O272 2.411 . S
Cd270 O273 2.333 . S
Cd270 O274 2.352 . S
Cd270 O278 2.277 1_554 S
Cd270 O279 2.356 . S
C271 O276 1.209 . S
C271 O278 1.226 . S
O272 Cd268 2.273 1_554 S
O272 Cd270 2.411 . S
O272 C275 1.320 . S
O273 Cd270 2.333 . S
O273 C275 1.214 . S
O274 Cd270 2.352 . S
O274 C277 1.258 . S
C275 O272 1.320 . S
C275 O273 1.214 . S
O276 Cd268 2.277 . S
O276 C271 1.209 . S
C277 O274 1.258 . S
C277 O279 1.282 . S
O278 Cd270 2.277 1_556 S
O278 C271 1.226 . S
O279 Cd270 2.356 . S
O279 C277 1.282 . S
C280 O281 1.306 . S
C280 O283 1.160 1_554 S
O281 C280 1.306 . S
O281 Cd282 2.228 . S
Cd282 O281 2.228 . S
Cd282 O286 2.273 . S
Cd282 O290 2.277 . S
O283 C280 1.160 1_556 S
O283 Cd284 2.203 . S
Cd284 O283 2.203 . S
Cd284 O286 2.411 1_556 S
Cd284 O287 2.333 . S
Cd284 O288 2.352 . S
Cd284 O292 2.277 1_556 S
Cd284 O293 2.356 . S
C285 O290 1.209 . S
C285 O292 1.226 . S
O286 Cd282 2.273 . S
O286 Cd284 2.411 1_554 S
O286 C289 1.320 . S
O287 Cd284 2.333 . S
O287 C289 1.214 1_556 S
O288 Cd284 2.352 . S
O288 C291 1.258 . S
C289 O286 1.320 . S
C289 O287 1.214 1_554 S
O290 Cd282 2.277 . S
O290 C285 1.209 . S
C291 O288 1.258 . S
C291 O293 1.282 . S
O292 Cd284 2.277 1_554 S
O292 C285 1.226 . S
O293 Cd284 2.356 . S
O293 C291 1.282 . S
C294 O295 1.306 . S
C294 O297 1.160 . S
O295 C294 1.306 . S
O295 Cd296 2.228 . S
Cd296 O295 2.228 . S
Cd296 O300 2.273 . S
Cd296 O304 2.277 . S
O297 C294 1.160 . S
O297 Cd298 2.203 . S
Cd298 O297 2.203 . S
Cd298 O300 2.411 . S
Cd298 O301 2.333 . S
Cd298 O302 2.352 . S
Cd298 O306 2.277 . S
Cd298 O307 2.356 . S
C299 O304 1.209 . S
C299 O306 1.226 . S
O300 Cd296 2.273 . S
O300 Cd298 2.411 . S
O300 C303 1.320 . S
O301 Cd298 2.333 . S
O301 C303 1.214 . S
O302 Cd298 2.352 . S
O302 C305 1.258 . S
C303 O300 1.320 . S
C303 O301 1.214 . S
O304 Cd296 2.277 . S
O304 C299 1.209 . S
C305 O302 1.258 . S
C305 O307 1.282 . S
O306 Cd298 2.277 . S
O306 C299 1.226 . S
O307 Cd298 2.356 . S
O307 C305 1.282 . S
C308 O309 1.306 . S
C308 O311 1.160 . S
O309 C308 1.306 . S
O309 Cd310 2.228 . S
Cd310 O309 2.228 . S
Cd310 O314 2.273 . S
Cd310 O318 2.277 . S
O311 C308 1.160 . S
O311 Cd312 2.203 . S
Cd312 O311 2.203 . S
Cd312 O314 2.411 . S
Cd312 O315 2.333 . S
Cd312 O316 2.352 . S
Cd312 O320 2.277 . S
Cd312 O321 2.356 . S
C313 O318 1.209 . S
C313 O320 1.226 . S
O314 Cd310 2.273 . S
O314 Cd312 2.411 . S
O314 C317 1.320 . S
O315 Cd312 2.333 . S
O315 C317 1.214 . S
O316 Cd312 2.352 . S
O316 C319 1.258 . S
C317 O314 1.320 . S
C317 O315 1.214 . S
O318 Cd310 2.277 . S
O318 C313 1.209 . S
C319 O316 1.258 . S
C319 O321 1.282 . S
O320 Cd312 2.277 . S
O320 C313 1.226 . S
O321 Cd312 2.356 . S
O321 C319 1.282 . S
C322 O323 1.306 . S
C322 O325 1.160 . S
O323 C322 1.306 . S
O323 Cd324 2.228 . S
Cd324 O323 2.228 . S
Cd324 O328 2.273 . S
Cd324 O332 2.277 . S
O325 C322 1.160 . S
O325 Cd326 2.203 . S
Cd326 O325 2.203 . S
Cd326 O328 2.411 . S
Cd326 O329 2.333 . S
Cd326 O330 2.352 . S
Cd326 O334 2.277 . S
Cd326 O335 2.356 . S
C327 O332 1.209 . S
C327 O334 1.226 . S
O328 Cd324 2.273 . S
O328 Cd326 2.411 . S
O328 C331 1.320 . S
O329 Cd326 2.333 . S
O329 C331 1.214 . S
O330 Cd326 2.352 . S
O330 C333 1.258 . S
C331 O328 1.320 . S
C331 O329 1.214 . S
O332 Cd324 2.277 . S
O332 C327 1.209 . S
C333 O330 1.258 . S
C333 O335 1.282 . S
O334 Cd326 2.277 . S
O334 C327 1.226 . S
O335 Cd326 2.356 . S
O335 C333 1.282 . S
O336 Mn337 2.168 . S
O336 C350 1.241 1_554 S
Mn337 O336 2.168 . S
Mn337 O340 2.160 1_445 S
Mn337 O341 2.221 1_455 S
Mn337 O343 2.163 1_454 S
Mn337 O345 2.160 1_545 S
Mn337 O355 2.214 1_544 S
O338 Mn339 2.087 1_556 S
O338 C350 1.256 1_565 S
Mn339 O338 2.087 1_554 S
Mn339 O346 2.089 . S
Mn339 O355 2.276 1_554 S
Mn339 O356 2.251 1_554 S
O340 Mn337 2.160 1_665 S
O340 C351 1.239 . S
O341 Mn337 2.221 1_655 S
O341 Mn342 2.290 1_554 S
O341 C352 1.278 . S
Mn342 O341 2.290 1_556 S
Mn342 O344 2.089 1_556 S
Mn342 O347 2.251 1_556 S
Mn342 O348 2.087 . S
O343 Mn337 2.163 1_656 S
O343 C353 1.244 . S
O344 Mn342 2.089 1_554 S
O344 C351 1.256 1_545 S
O345 Mn337 2.160 1_565 S
O345 C354 1.239 . S
O346 Mn339 2.089 . S
O346 C354 1.256 . S
O347 Mn342 2.251 1_554 S
O347 C352 1.241 . S
O348 Mn342 2.087 . S
O348 C353 1.256 . S
C349 O355 1.310 . S
C349 O356 1.241 . S
C350 O336 1.241 1_556 S
C350 O338 1.256 1_545 S
C351 O340 1.239 . S
C351 O344 1.256 1_565 S
C352 O341 1.278 . S
C352 O347 1.241 . S
C353 O343 1.244 . S
C353 O348 1.256 . S
C354 O345 1.239 . S
C354 O346 1.256 . S
O355 Mn337 2.214 1_566 S
O355 Mn339 2.276 1_556 S
O355 C349 1.310 . S
O356 Mn339 2.251 1_556 S
O356 C349 1.241 . S
O357 Mn358 2.163 . S
O357 C371 1.244 . S
Mn358 O357 2.163 . S
Mn358 O361 2.160 . S
Mn358 O362 2.221 . S
Mn358 O364 2.163 . S
Mn358 O366 2.160 . S
Mn358 O376 2.221 . S
O359 Mn360 2.087 . S
O359 C371 1.256 . S
Mn360 O359 2.087 . S
Mn360 O367 2.089 . S
Mn360 O376 2.290 . S
Mn360 O377 2.251 . S
O361 Mn358 2.160 . S
O361 C372 1.239 . S
O362 Mn358 2.221 . S
O362 Mn363 2.290 . S
O362 C373 1.278 . S
Mn363 O362 2.290 . S
Mn363 O365 2.089 . S
Mn363 O368 2.251 . S
Mn363 O369 2.087 . S
O364 Mn358 2.163 . S
O364 C374 1.244 . S
O365 Mn363 2.089 . S
O365 C372 1.256 . S
O366 Mn358 2.160 . S
O366 C375 1.239 . S
O367 Mn360 2.089 . S
O367 C375 1.256 . S
O368 Mn363 2.251 . S
O368 C373 1.241 . S
O369 Mn363 2.087 . S
O369 C374 1.256 . S
C370 O376 1.278 . S
C370 O377 1.241 . S
C371 O357 1.244 . S
C371 O359 1.256 . S
C372 O361 1.239 . S
C372 O365 1.256 . S
C373 O362 1.278 . S
C373 O368 1.241 . S
C374 O364 1.244 . S
C374 O369 1.256 . S
C375 O366 1.239 . S
C375 O367 1.256 . S
O376 Mn358 2.221 . S
O376 Mn360 2.290 . S
O376 C370 1.278 . S
O377 Mn360 2.251 . S
O377 C370 1.241 . S
O378 Mn379 2.163 1_565 S
O378 C392 1.244 . S
Mn379 O378 2.163 1_545 S
Mn379 O382 2.160 . S
Mn379 O383 2.221 1_545 S
Mn379 O385 2.163 . S
Mn379 O387 2.160 . S
Mn379 O397 2.221 . S
O380 Mn381 2.087 . S
O380 C392 1.256 1_545 S
Mn381 O380 2.087 . S
Mn381 O388 2.089 . S
Mn381 O397 2.290 . S
Mn381 O398 2.251 . S
O382 Mn379 2.160 . S
O382 C393 1.239 . S
O383 Mn379 2.221 1_565 S
O383 Mn384 2.290 . S
O383 C394 1.278 . S
Mn384 O383 2.290 . S
Mn384 O386 2.089 1_565 S
Mn384 O389 2.251 . S
Mn384 O390 2.087 . S
O385 Mn379 2.163 . S
O385 C395 1.244 1_545 S
O386 Mn384 2.089 1_545 S
O386 C393 1.256 . S
O387 Mn379 2.160 . S
O387 C396 1.239 . S
O388 Mn381 2.089 . S
O388 C396 1.256 . S
O389 Mn384 2.251 . S
O389 C394 1.241 . S
O390 Mn384 2.087 . S
O390 C395 1.256 . S
C391 O397 1.278 . S
C391 O398 1.241 . S
C392 O378 1.244 . S
C392 O380 1.256 1_565 S
C393 O382 1.239 . S
C393 O386 1.256 . S
C394 O383 1.278 . S
C394 O389 1.241 . S
C395 O385 1.244 1_565 S
C395 O390 1.256 . S
C396 O387 1.239 . S
C396 O388 1.256 . S
O397 Mn379 2.221 . S
O397 Mn381 2.290 . S
O397 C391 1.278 . S
O398 Mn381 2.251 . S
O398 C391 1.241 . S
O399 Mn400 2.163 . S
O399 C413 1.244 . S
Mn400 O399 2.163 . S
Mn400 O403 2.160 . S
Mn400 O404 2.221 . S
Mn400 O406 2.163 . S
Mn400 O408 2.160 . S
Mn400 O418 2.221 . S
O401 Mn402 2.087 . S
O401 C413 1.256 . S
Mn402 O401 2.087 . S
Mn402 O409 2.089 . S
Mn402 O418 2.290 . S
Mn402 O419 2.251 . S
O403 Mn400 2.160 . S
O403 C414 1.239 . S
O404 Mn400 2.221 . S
O404 Mn405 2.290 . S
O404 C415 1.278 . S
Mn405 O404 2.290 . S
Mn405 O407 2.089 . S
Mn405 O410 2.251 . S
Mn405 O411 2.087 . S
O406 Mn400 2.163 . S
O406 C416 1.244 . S
O407 Mn405 2.089 . S
O407 C414 1.256 . S
O408 Mn400 2.160 . S
O408 C417 1.239 . S
O409 Mn402 2.089 . S
O409 C417 1.256 . S
O410 Mn405 2.251 . S
O410 C415 1.241 . S
O411 Mn405 2.087 . S
O411 C416 1.256 . S
C412 O418 1.278 . S
C412 O419 1.241 . S
C413 O399 1.244 . S
C413 O401 1.256 . S
C414 O403 1.239 . S
C414 O407 1.256 . S
C415 O404 1.278 . S
C415 O410 1.241 . S
C416 O406 1.244 . S
C416 O411 1.256 . S
C417 O408 1.239 . S
C417 O409 1.256 . S
O418 Mn400 2.221 . S
O418 Mn402 2.290 . S
O418 C412 1.278 . S
O419 Mn402 2.251 . S
O419 C412 1.241 . S
O420 Mn421 2.163 1_565 S
O420 C434 1.240 1_455 S
Mn421 O420 2.163 1_545 S
Mn421 O424 2.160 . S
Mn421 O425 2.221 . S
Mn421 O427 2.163 1_455 S
Mn421 O429 2.160 1_545 S
Mn421 O439 2.225 1_545 S
O422 Mn423 2.087 1_655 S
O422 C434 1.259 . S
Mn423 O422 2.087 1_455 S
Mn423 O430 2.089 . S
Mn423 O439 2.297 . S
Mn423 O440 2.251 1_455 S
O424 Mn421 2.160 . S
O424 C435 1.239 . S
O425 Mn421 2.221 . S
O425 Mn426 2.266 1_455 S
O425 C436 1.278 . S
Mn426 O425 2.266 1_655 S
Mn426 O428 2.083 1_655 S
Mn426 O431 2.243 1_655 S
Mn426 O432 2.130 . S
O427 Mn421 2.163 1_655 S
O427 C437 1.244 . S
O428 Mn426 2.083 1_455 S
O428 C435 1.256 . S
O429 Mn421 2.160 1_565 S
O429 C438 1.239 . S
O430 Mn423 2.089 . S
O430 C438 1.256 . S
O431 Mn426 2.243 1_455 S
O431 C436 1.241 . S
O432 Mn426 2.130 . S
O432 C437 1.256 . S
C433 O439 1.264 1_655 S
C433 O440 1.241 . S
C434 O420 1.240 1_655 S
C434 O422 1.259 . S
C435 O424 1.239 . S
C435 O428 1.256 . S
C436 O425 1.278 . S
C436 O431 1.241 . S
C437 O427 1.244 . S
C437 O432 1.256 . S
C438 O429 1.239 . S
C438 O430 1.256 . S
O439 Mn421 2.225 1_565 S
O439 Mn423 2.297 . S
O439 C433 1.264 1_455 S
O440 Mn423 2.251 1_655 S
O440 C433 1.241 . S
O441 Mn442 2.163 . S
O441 C455 1.244 . S
Mn442 O441 2.163 . S
Mn442 O445 2.160 . S
Mn442 O446 2.221 . S
Mn442 O448 2.163 . S
Mn442 O450 2.160 . S
Mn442 O460 2.221 . S
O443 Mn444 2.087 . S
O443 C455 1.256 . S
Mn444 O443 2.087 . S
Mn444 O451 2.089 . S
Mn444 O460 2.290 . S
Mn444 O461 2.251 . S
O445 Mn442 2.160 . S
O445 C456 1.239 . S
O446 Mn442 2.221 . S
O446 Mn447 2.290 . S
O446 C457 1.278 . S
Mn447 O446 2.290 . S
Mn447 O449 2.089 . S
Mn447 O452 2.251 . S
Mn447 O453 2.087 . S
O448 Mn442 2.163 . S
O448 C458 1.244 . S
O449 Mn447 2.089 . S
O449 C456 1.256 . S
O450 Mn442 2.160 . S
O450 C459 1.239 . S
O451 Mn444 2.089 . S
O451 C459 1.256 . S
O452 Mn447 2.251 . S
O452 C457 1.241 . S
O453 Mn447 2.087 . S
O453 C458 1.256 . S
C454 O460 1.278 . S
C454 O461 1.241 . S
C455 O441 1.244 . S
C455 O443 1.256 . S
C456 O445 1.239 . S
C456 O449 1.256 . S
C457 O446 1.278 . S
C457 O452 1.241 . S
C458 O448 1.244 . S
C458 O453 1.256 . S
C459 O450 1.239 . S
C459 O451 1.256 . S
O460 Mn442 2.221 . S
O460 Mn444 2.290 . S
O460 C454 1.278 . S
O461 Mn444 2.251 . S
O461 C454 1.241 . S
O462 Mn463 2.160 1_566 S
O462 C476 1.247 . S
Mn463 O462 2.160 1_544 S
Mn463 O466 2.160 . S
Mn463 O467 2.221 . S
Mn463 O469 2.163 1_545 S
Mn463 O471 2.160 1_554 S
Mn463 O481 2.221 1_544 S
O464 Mn465 2.087 1_565 S
O464 C476 1.256 . S
Mn465 O464 2.087 1_545 S
Mn465 O472 2.089 . S
Mn465 O481 2.290 1_545 S
Mn465 O482 2.251 1_545 S
O466 Mn463 2.160 . S
O466 C477 1.239 . S
O467 Mn463 2.221 . S
O467 Mn468 2.290 1_545 S
O467 C478 1.278 . S
Mn468 O467 2.290 1_565 S
Mn468 O470 2.089 1_565 S
Mn468 O473 2.251 1_565 S
Mn468 O474 2.087 . S
O469 Mn463 2.163 1_565 S
O469 C479 1.244 . S
O470 Mn468 2.089 1_545 S
O470 C477 1.256 . S
O471 Mn463 2.160 1_556 S
O471 C480 1.239 . S
O472 Mn465 2.089 . S
O472 C480 1.256 . S
O473 Mn468 2.251 1_545 S
O473 C478 1.241 . S
O474 Mn468 2.087 . S
O474 C479 1.256 . S
C475 O481 1.278 . S
C475 O482 1.241 . S
C476 O462 1.247 . S
C476 O464 1.256 . S
C477 O466 1.239 . S
C477 O470 1.256 . S
C478 O467 1.278 . S
C478 O473 1.241 . S
C479 O469 1.244 . S
C479 O474 1.256 . S
C480 O471 1.239 . S
C480 O472 1.256 . S
O481 Mn463 2.221 1_566 S
O481 Mn465 2.290 1_565 S
O481 C475 1.278 . S
O482 Mn465 2.251 1_565 S
O482 C475 1.241 . S
O483 Mn484 2.163 . S
O483 C497 1.244 . S
Mn484 O483 2.163 . S
Mn484 O487 2.160 . S
Mn484 O488 2.221 . S
Mn484 O490 2.163 . S
Mn484 O492 2.160 . S
Mn484 O502 2.221 . S
O485 Mn486 2.087 . S
O485 C497 1.256 . S
Mn486 O485 2.087 . S
Mn486 O493 2.089 . S
Mn486 O502 2.290 . S
Mn486 O503 2.251 . S
O487 Mn484 2.160 . S
O487 C498 1.239 . S
O488 Mn484 2.221 . S
O488 Mn489 2.290 . S
O488 C499 1.278 . S
Mn489 O488 2.290 . S
Mn489 O491 2.089 . S
Mn489 O494 2.251 . S
Mn489 O495 2.087 . S
O490 Mn484 2.163 . S
O490 C500 1.244 . S
O491 Mn489 2.089 . S
O491 C498 1.256 . S
O492 Mn484 2.160 . S
O492 C501 1.239 . S
O493 Mn486 2.089 . S
O493 C501 1.256 . S
O494 Mn489 2.251 . S
O494 C499 1.241 . S
O495 Mn489 2.087 . S
O495 C500 1.256 . S
C496 O502 1.278 . S
C496 O503 1.241 . S
C497 O483 1.244 . S
C497 O485 1.256 . S
C498 O487 1.239 . S
C498 O491 1.256 . S
C499 O488 1.278 . S
C499 O494 1.241 . S
C500 O490 1.244 . S
C500 O495 1.256 . S
C501 O492 1.239 . S
C501 O493 1.256 . S
O502 Mn484 2.221 . S
O502 Mn486 2.290 . S
O502 C496 1.278 . S
O503 Mn486 2.251 . S
O503 C496 1.241 . S
O504 Mn505 2.163 1_556 S
O504 C518 1.244 . S
Mn505 O504 2.163 1_554 S
Mn505 O508 2.160 . S
Mn505 O509 2.221 1_554 S
Mn505 O511 2.163 . S
Mn505 O513 2.160 . S
Mn505 O523 2.221 . S
O506 Mn507 2.087 . S
O506 C518 1.256 1_554 S
Mn507 O506 2.087 . S
Mn507 O514 2.089 . S
Mn507 O523 2.290 . S
Mn507 O524 2.251 . S
O508 Mn505 2.160 . S
O508 C519 1.239 . S
O509 Mn505 2.221 1_556 S
O509 Mn510 2.290 . S
O509 C520 1.278 . S
Mn510 O509 2.290 . S
Mn510 O512 2.089 1_556 S
Mn510 O515 2.251 . S
Mn510 O516 2.087 . S
O511 Mn505 2.163 . S
O511 C521 1.244 1_554 S
O512 Mn510 2.089 1_554 S
O512 C519 1.256 . S
O513 Mn505 2.160 . S
O513 C522 1.239 . S
O514 Mn507 2.089 . S
O514 C522 1.256 . S
O515 Mn510 2.251 . S
O515 C520 1.241 . S
O516 Mn510 2.087 . S
O516 C521 1.256 . S
C517 O523 1.278 . S
C517 O524 1.241 . S
C518 O504 1.244 . S
C518 O506 1.256 1_556 S
C519 O508 1.239 . S
C519 O512 1.256 . S
C520 O509 1.278 . S
C520 O515 1.241 . S
C521 O511 1.244 1_556 S
C521 O516 1.256 . S
C522 O513 1.239 . S
C522 O514 1.256 . S
O523 Mn505 2.221 . S
O523 Mn507 2.290 . S
O523 C517 1.278 . S
O524 Mn507 2.251 . S
O524 C517 1.241 . S
O525 Mn526 2.163 . S
O525 C539 1.244 . S
Mn526 O525 2.163 . S
Mn526 O529 2.160 . S
Mn526 O530 2.221 . S
Mn526 O532 2.163 . S
Mn526 O534 2.160 . S
Mn526 O544 2.221 . S
O527 Mn528 2.087 . S
O527 C539 1.256 . S
Mn528 O527 2.087 . S
Mn528 O535 2.089 . S
Mn528 O544 2.290 . S
Mn528 O545 2.251 . S
O529 Mn526 2.160 . S
O529 C540 1.239 . S
O530 Mn526 2.221 . S
O530 Mn531 2.290 . S
O530 C541 1.278 . S
Mn531 O530 2.290 . S
Mn531 O533 2.089 . S
Mn531 O536 2.251 . S
Mn531 O537 2.087 . S
O532 Mn526 2.163 . S
O532 C542 1.244 . S
O533 Mn531 2.089 . S
O533 C540 1.256 . S
O534 Mn526 2.160 . S
O534 C543 1.239 . S
O535 Mn528 2.089 . S
O535 C543 1.256 . S
O536 Mn531 2.251 . S
O536 C541 1.241 . S
O537 Mn531 2.087 . S
O537 C542 1.256 . S
C538 O544 1.278 . S
C538 O545 1.241 . S
C539 O525 1.244 . S
C539 O527 1.256 . S
C540 O529 1.239 . S
C540 O533 1.256 . S
C541 O530 1.278 . S
C541 O536 1.241 . S
C542 O532 1.244 . S
C542 O537 1.256 . S
C543 O534 1.239 . S
C543 O535 1.256 . S
O544 Mn526 2.221 . S
O544 Mn528 2.290 . S
O544 C538 1.278 . S
O545 Mn528 2.251 . S
O545 C538 1.241 . S
O546 Mn547 2.163 1_655 S
O546 C560 1.244 . S
Mn547 O546 2.163 1_455 S
Mn547 O550 2.160 . S
Mn547 O551 2.221 1_455 S
Mn547 O553 2.163 . S
Mn547 O555 2.160 . S
Mn547 O565 2.221 . S
O548 Mn549 2.087 . S
O548 C560 1.256 1_455 S
Mn549 O548 2.087 . S
Mn549 O556 2.089 . S
Mn549 O565 2.290 . S
Mn549 O566 2.251 . S
O550 Mn547 2.160 . S
O550 C561 1.239 . S
O551 Mn547 2.221 1_655 S
O551 Mn552 2.290 . S
O551 C562 1.278 . S
Mn552 O551 2.290 . S
Mn552 O554 2.089 1_655 S
Mn552 O557 2.251 . S
Mn552 O558 2.087 . S
O553 Mn547 2.163 . S
O553 C563 1.244 1_455 S
O554 Mn552 2.089 1_455 S
O554 C561 1.256 . S
O555 Mn547 2.160 . S
O555 C564 1.239 . S
O556 Mn549 2.089 . S
O556 C564 1.256 . S
O557 Mn552 2.251 . S
O557 C562 1.241 . S
O558 Mn552 2.087 . S
O558 C563 1.256 . S
C559 O565 1.278 . S
C559 O566 1.241 . S
C560 O546 1.244 . S
C560 O548 1.256 1_655 S
C561 O550 1.239 . S
C561 O554 1.256 . S
C562 O551 1.278 . S
C562 O557 1.241 . S
C563 O553 1.244 1_655 S
C563 O558 1.256 . S
C564 O555 1.239 . S
C564 O556 1.256 . S
O565 Mn547 2.221 . S
O565 Mn549 2.290 . S
O565 C559 1.278 . S
O566 Mn549 2.251 . S
O566 C559 1.241 . S
O567 Mn568 2.163 . S
O567 C581 1.244 . S
Mn568 O567 2.163 . S
Mn568 O571 2.160 . S
Mn568 O572 2.221 . S
Mn568 O574 2.163 . S
Mn568 O576 2.160 . S
Mn568 O586 2.221 . S
O569 Mn570 2.087 . S
O569 C581 1.256 . S
Mn570 O569 2.087 . S
Mn570 O577 2.089 . S
Mn570 O586 2.290 . S
Mn570 O587 2.251 . S
O571 Mn568 2.160 . S
O571 C582 1.239 . S
O572 Mn568 2.221 . S
O572 Mn573 2.290 . S
O572 C583 1.278 . S
Mn573 O572 2.290 . S
Mn573 O575 2.089 . S
Mn573 O578 2.251 . S
Mn573 O579 2.087 . S
O574 Mn568 2.163 . S
O574 C584 1.244 . S
O575 Mn573 2.089 . S
O575 C582 1.256 . S
O576 Mn568 2.160 . S
O576 C585 1.239 . S
O577 Mn570 2.089 . S
O577 C585 1.256 . S
O578 Mn573 2.251 . S
O578 C583 1.241 . S
O579 Mn573 2.087 . S
O579 C584 1.256 . S
C580 O586 1.278 . S
C580 O587 1.241 . S
C581 O567 1.244 . S
C581 O569 1.256 . S
C582 O571 1.239 . S
C582 O575 1.256 . S
C583 O572 1.278 . S
C583 O578 1.241 . S
C584 O574 1.244 . S
C584 O579 1.256 . S
C585 O576 1.239 . S
C585 O577 1.256 . S
O586 Mn568 2.221 . S
O586 Mn570 2.290 . S
O586 C580 1.278 . S
O587 Mn570 2.251 . S
O587 C580 1.241 . S
O588 Mn589 2.163 . S
O588 C602 1.244 . S
Mn589 O588 2.163 . S
Mn589 O592 2.160 . S
Mn589 O593 2.221 . S
Mn589 O595 2.163 . S
Mn589 O597 2.160 . S
Mn589 O607 2.221 . S
O590 Mn591 2.087 . S
O590 C602 1.256 . S
Mn591 O590 2.087 . S
Mn591 O598 2.089 . S
Mn591 O607 2.290 . S
Mn591 O608 2.251 . S
O592 Mn589 2.160 . S
O592 C603 1.239 . S
O593 Mn589 2.221 . S
O593 Mn594 2.290 . S
O593 C604 1.278 . S
Mn594 O593 2.290 . S
Mn594 O596 2.089 . S
Mn594 O599 2.251 . S
Mn594 O600 2.087 . S
O595 Mn589 2.163 . S
O595 C605 1.244 . S
O596 Mn594 2.089 . S
O596 C603 1.256 . S
O597 Mn589 2.160 . S
O597 C606 1.239 . S
O598 Mn591 2.089 . S
O598 C606 1.256 . S
O599 Mn594 2.251 . S
O599 C604 1.241 . S
O600 Mn594 2.087 . S
O600 C605 1.256 . S
C601 O607 1.278 . S
C601 O608 1.241 . S
C602 O588 1.244 . S
C602 O590 1.256 . S
C603 O592 1.239 . S
C603 O596 1.256 . S
C604 O593 1.278 . S
C604 O599 1.241 . S
C605 O595 1.244 . S
C605 O600 1.256 . S
C606 O597 1.239 . S
C606 O598 1.256 . S
O607 Mn589 2.221 . S
O607 Mn591 2.290 . S
O607 C601 1.278 . S
O608 Mn591 2.251 . S
O608 C601 1.241 . S
O609 Mn610 2.163 . S
O609 C623 1.244 . S
Mn610 O609 2.163 . S
Mn610 O613 2.160 . S
Mn610 O614 2.221 . S
Mn610 O616 2.163 . S
Mn610 O618 2.160 . S
Mn610 O628 2.221 . S
O611 Mn612 2.087 . S
O611 C623 1.256 . S
Mn612 O611 2.087 . S
Mn612 O619 2.089 . S
Mn612 O628 2.290 . S
Mn612 O629 2.251 . S
O613 Mn610 2.160 . S
O613 C624 1.239 . S
O614 Mn610 2.221 . S
O614 Mn615 2.290 . S
O614 C625 1.278 . S
Mn615 O614 2.290 . S
Mn615 O617 2.089 . S
Mn615 O620 2.251 . S
Mn615 O621 2.087 . S
O616 Mn610 2.163 . S
O616 C626 1.244 . S
O617 Mn615 2.089 . S
O617 C624 1.256 . S
O618 Mn610 2.160 . S
O618 C627 1.239 . S
O619 Mn612 2.089 . S
O619 C627 1.256 . S
O620 Mn615 2.251 . S
O620 C625 1.241 . S
O621 Mn615 2.087 . S
O621 C626 1.256 . S
C622 O628 1.278 . S
C622 O629 1.241 . S
C623 O609 1.244 . S
C623 O611 1.256 . S
C624 O613 1.239 . S
C624 O617 1.256 . S
C625 O614 1.278 . S
C625 O620 1.241 . S
C626 O616 1.244 . S
C626 O621 1.256 . S
C627 O618 1.239 . S
C627 O619 1.256 . S
O628 Mn610 2.221 . S
O628 Mn612 2.290 . S
O628 C622 1.278 . S
O629 Mn612 2.251 . S
O629 C622 1.241 . S
O630 Mn631 2.163 . S
O630 C644 1.244 . S
Mn631 O630 2.163 . S
Mn631 O634 2.160 . S
Mn631 O635 2.221 . S
Mn631 O637 2.163 . S
Mn631 O639 2.160 . S
Mn631 O649 2.221 . S
O632 Mn633 2.087 . S
O632 C644 1.256 . S
Mn633 O632 2.087 . S
Mn633 O640 2.089 . S
Mn633 O649 2.290 . S
Mn633 O650 2.251 . S
O634 Mn631 2.160 . S
O634 C645 1.239 . S
O635 Mn631 2.221 . S
O635 Mn636 2.290 . S
O635 C646 1.278 . S
Mn636 O635 2.290 . S
Mn636 O638 2.089 . S
Mn636 O641 2.251 . S
Mn636 O642 2.087 . S
O637 Mn631 2.163 . S
O637 C647 1.244 . S
O638 Mn636 2.089 . S
O638 C645 1.256 . S
O639 Mn631 2.160 . S
O639 C648 1.239 . S
O640 Mn633 2.089 . S
O640 C648 1.256 . S
O641 Mn636 2.251 . S
O641 C646 1.241 . S
O642 Mn636 2.087 . S
O642 C647 1.256 . S
C643 O649 1.278 . S
C643 O650 1.241 . S
C644 O630 1.244 . S
C644 O632 1.256 . S
C645 O634 1.239 . S
C645 O638 1.256 . S
C646 O635 1.278 . S
C646 O641 1.241 . S
C647 O637 1.244 . S
C647 O642 1.256 . S
C648 O639 1.239 . S
C648 O640 1.256 . S
O649 Mn631 2.221 . S
O649 Mn633 2.290 . S
O649 C643 1.278 . S
O650 Mn633 2.251 . S
O650 C643 1.241 . S
O651 Mn652 2.158 1_656 S
O651 C665 1.248 . S
Mn652 O651 2.158 1_454 S
Mn652 O655 2.160 . S
Mn652 O656 2.221 . S
Mn652 O658 2.163 1_554 S
Mn652 O660 2.160 1_455 S
Mn652 O670 2.221 1_454 S
O653 Mn654 2.087 1_556 S
O653 C665 1.256 . S
Mn654 O653 2.087 1_554 S
Mn654 O661 2.089 . S
Mn654 O670 2.290 1_554 S
Mn654 O671 2.251 1_554 S
O655 Mn652 2.160 . S
O655 C666 1.239 . S
O656 Mn652 2.221 . S
O656 Mn657 2.290 1_554 S
O656 C667 1.278 . S
Mn657 O656 2.290 1_556 S
Mn657 O659 2.090 . S
Mn657 O662 2.251 1_556 S
Mn657 O663 2.087 . S
O658 Mn652 2.163 1_556 S
O658 C668 1.244 . S
O659 Mn657 2.090 . S
O659 C666 1.252 1_556 S
O660 Mn652 2.160 1_655 S
O660 C669 1.239 . S
O661 Mn654 2.089 . S
O661 C669 1.256 . S
O662 Mn657 2.251 1_554 S
O662 C667 1.241 . S
O663 Mn657 2.087 . S
O663 C668 1.256 . S
C664 O670 1.278 . S
C664 O671 1.241 . S
C665 O651 1.248 . S
C665 O653 1.256 . S
C666 O655 1.239 . S
C666 O659 1.252 1_554 S
C667 O656 1.278 . S
C667 O662 1.241 . S
C668 O658 1.244 . S
C668 O663 1.256 . S
C669 O660 1.239 . S
C669 O661 1.256 . S
O670 Mn652 2.221 1_656 S
O670 Mn654 2.290 1_556 S
O670 C664 1.278 . S
O671 Mn654 2.251 1_556 S
O671 C664 1.241 . S
H672 C680 0.950 . S
H673 C685 0.950 . S
H674 C682 0.950 . S
H675 C684 0.950 . S
H676 C686 0.950 . S
H677 C688 0.950 . S
H678 C690 0.950 . S
H679 C691 0.950 . S
C680 H672 0.950 . S
C680 C681 1.386 . S
C680 C682 1.391 . S
C681 C680 1.386 . S
C681 C685 1.393 1_455 S
C682 H674 0.950 . S
C682 C680 1.391 . S
C682 C683 1.403 . S
C683 C682 1.403 . S
C683 C684 1.396 1_455 S
C683 C689 1.491 1_455 S
C684 H675 0.950 . S
C684 C683 1.396 1_655 S
C684 C685 1.391 . S
C685 H673 0.950 . S
C685 C681 1.393 1_655 S
C685 C684 1.391 . S
C686 H676 0.950 . S
C686 C687 1.386 . S
C686 C688 1.391 . S
C687 C686 1.386 . S
C687 C691 1.393 1_655 S
C688 H677 0.950 . S
C688 C686 1.391 . S
C688 C689 1.400 . S
C689 C683 1.491 1_655 S
C689 C688 1.400 . S
C689 C690 1.398 1_655 S
C690 H678 0.950 . S
C690 C689 1.398 1_455 S
C690 C691 1.391 . S
C691 H679 0.950 . S
C691 C687 1.393 1_455 S
C691 C690 1.391 . S
H692 C700 0.950 . S
H693 C705 0.950 . S
H694 C702 0.950 . S
H695 C704 0.950 . S
H696 C706 0.950 . S
H697 C708 0.950 . S
H698 C710 0.950 . S
H699 C711 0.950 . S
C700 H692 0.950 . S
C700 C701 1.386 . S
C700 C702 1.391 . S
C701 C700 1.386 . S
C701 C705 1.393 . S
C702 H694 0.950 . S
C702 C700 1.391 . S
C702 C703 1.400 . S
C703 C702 1.400 . S
C703 C704 1.398 . S
C703 C709 1.491 . S
C704 H695 0.950 . S
C704 C703 1.398 . S
C704 C705 1.391 . S
C705 H693 0.950 . S
C705 C701 1.393 . S
C705 C704 1.391 . S
C706 H696 0.950 . S
C706 C707 1.386 . S
C706 C708 1.391 . S
C707 C706 1.386 . S
C707 C711 1.393 . S
C708 H697 0.950 . S
C708 C706 1.391 . S
C708 C709 1.400 . S
C709 C703 1.491 . S
C709 C708 1.400 . S
C709 C710 1.398 . S
C710 H698 0.950 . S
C710 C709 1.398 . S
C710 C711 1.391 . S
C711 H699 0.950 . S
C711 C707 1.393 . S
C711 C710 1.391 . S
H712 C720 0.950 . S
H713 C725 0.950 . S
H714 C722 0.950 . S
H715 C724 0.950 . S
H716 C726 0.950 . S
H717 C728 0.950 . S
H718 C730 0.950 . S
H719 C731 0.950 . S
C720 H712 0.950 . S
C720 C721 1.386 . S
C720 C722 1.391 . S
C721 C720 1.386 . S
C721 C725 1.393 . S
C722 H714 0.950 . S
C722 C720 1.391 . S
C722 C723 1.400 . S
C723 C722 1.400 . S
C723 C724 1.398 . S
C723 C729 1.491 . S
C724 H715 0.950 . S
C724 C723 1.398 . S
C724 C725 1.391 . S
C725 H713 0.950 . S
C725 C721 1.393 . S
C725 C724 1.391 . S
C726 H716 0.950 . S
C726 C727 1.386 . S
C726 C728 1.391 . S
C727 C726 1.386 . S
C727 C731 1.393 . S
C728 H717 0.950 . S
C728 C726 1.391 . S
C728 C729 1.400 . S
C729 C723 1.491 . S
C729 C728 1.400 . S
C729 C730 1.398 . S
C730 H718 0.950 . S
C730 C729 1.398 . S
C730 C731 1.391 . S
C731 H719 0.950 . S
C731 C727 1.393 . S
C731 C730 1.391 . S
H732 C740 0.950 . S
H733 C745 0.950 . S
H734 C742 0.950 . S
H735 C744 0.950 . S
H736 C746 0.950 . S
H737 C748 0.950 . S
H738 C750 0.950 . S
H739 C751 0.950 . S
C740 H732 0.950 . S
C740 C741 1.386 . S
C740 C742 1.391 . S
C741 C740 1.386 . S
C741 C745 1.393 . S
C742 H734 0.950 . S
C742 C740 1.391 . S
C742 C743 1.400 . S
C743 C742 1.400 . S
C743 C744 1.398 . S
C743 C749 1.491 . S
C744 H735 0.950 . S
C744 C743 1.398 . S
C744 C745 1.391 . S
C745 H733 0.950 . S
C745 C741 1.393 . S
C745 C744 1.391 . S
C746 H736 0.950 . S
C746 C747 1.386 . S
C746 C748 1.391 . S
C747 C746 1.386 . S
C747 C751 1.393 . S
C748 H737 0.950 . S
C748 C746 1.391 . S
C748 C749 1.400 . S
C749 C743 1.491 . S
C749 C748 1.400 . S
C749 C750 1.398 . S
C750 H738 0.950 . S
C750 C749 1.398 . S
C750 C751 1.391 . S
C751 H739 0.950 . S
C751 C747 1.393 . S
C751 C750 1.391 . S
H752 C760 0.950 . S
H753 C765 0.950 . S
H754 C762 0.950 . S
H755 C764 0.950 . S
H756 C766 0.950 . S
H757 C768 0.950 . S
H758 C770 0.950 . S
H759 C771 0.950 . S
C760 H752 0.950 . S
C760 C761 1.386 1_655 S
C760 C762 1.391 . S
C761 C760 1.386 1_455 S
C761 C765 1.393 . S
C762 H754 0.950 . S
C762 C760 1.391 . S
C762 C763 1.400 1_655 S
C763 C762 1.400 1_455 S
C763 C764 1.398 . S
C763 C769 1.495 . S
C764 H755 0.950 . S
C764 C763 1.398 . S
C764 C765 1.391 . S
C765 H753 0.950 . S
C765 C761 1.393 . S
C765 C764 1.391 . S
C766 H756 0.950 . S
C766 C767 1.386 1_455 S
C766 C768 1.391 . S
C767 C766 1.386 1_655 S
C767 C771 1.393 . S
C768 H757 0.950 . S
C768 C766 1.391 . S
C768 C769 1.426 . S
C769 C763 1.495 . S
C769 C768 1.426 . S
C769 C770 1.369 1_455 S
C770 H758 0.950 . S
C770 C769 1.369 1_655 S
C770 C771 1.391 . S
C771 H759 0.950 . S
C771 C767 1.393 . S
C771 C770 1.391 . S
H772 C780 0.950 . S
H773 C785 0.950 . S
H774 C782 0.950 . S
H775 C784 0.950 . S
H776 C786 0.950 . S
H777 C788 0.950 . S
H778 C790 0.950 . S
H779 C791 0.950 . S
C780 H772 0.950 . S
C780 C781 1.386 . S
C780 C782 1.391 . S
C781 C780 1.386 . S
C781 C785 1.393 . S
C782 H774 0.950 . S
C782 C780 1.391 . S
C782 C783 1.400 . S
C783 C782 1.400 . S
C783 C784 1.398 . S
C783 C789 1.491 . S
C784 H775 0.950 . S
C784 C783 1.398 . S
C784 C785 1.391 . S
C785 H773 0.950 . S
C785 C781 1.393 . S
C785 C784 1.391 . S
C786 H776 0.950 . S
C786 C787 1.386 . S
C786 C788 1.391 . S
C787 C786 1.386 . S
C787 C791 1.393 . S
C788 H777 0.950 . S
C788 C786 1.391 . S
C788 C789 1.400 . S
C789 C783 1.491 . S
C789 C788 1.400 . S
C789 C790 1.398 . S
C790 H778 0.950 . S
C790 C789 1.398 . S
C790 C791 1.391 . S
C791 H779 0.950 . S
C791 C787 1.393 . S
C791 C790 1.391 . S
H792 C800 0.950 . S
H793 C805 0.950 . S
H794 C802 0.950 . S
H795 C804 0.950 . S
H796 C806 0.950 . S
H797 C808 0.950 . S
H798 C810 0.950 . S
H799 C811 0.950 . S
C800 H792 0.950 . S
C800 C801 1.386 . S
C800 C802 1.391 . S
C801 C800 1.386 . S
C801 C805 1.393 . S
C802 H794 0.950 . S
C802 C800 1.391 . S
C802 C803 1.400 . S
C803 C802 1.400 . S
C803 C804 1.398 . S
C803 C809 1.491 . S
C804 H795 0.950 . S
C804 C803 1.398 . S
C804 C805 1.391 . S
C805 H793 0.950 . S
C805 C801 1.393 . S
C805 C804 1.391 . S
C806 H796 0.950 . S
C806 C807 1.386 . S
C806 C808 1.391 . S
C807 C806 1.386 . S
C807 C811 1.393 . S
C808 H797 0.950 . S
C808 C806 1.391 . S
C808 C809 1.400 . S
C809 C803 1.491 . S
C809 C808 1.400 . S
C809 C810 1.398 . S
C810 H798 0.950 . S
C810 C809 1.398 . S
C810 C811 1.391 . S
C811 H799 0.950 . S
C811 C807 1.393 . S
C811 C810 1.391 . S
H812 C820 0.950 . S
H813 C825 0.950 . S
H814 C822 0.950 . S
H815 C824 0.950 . S
H816 C826 0.950 . S
H817 C828 0.950 . S
H818 C830 0.950 . S
H819 C831 0.950 . S
C820 H812 0.950 . S
C820 C821 1.386 . S
C820 C822 1.391 . S
C821 C820 1.386 . S
C821 C825 1.393 . S
C822 H814 0.950 . S
C822 C820 1.391 . S
C822 C823 1.400 . S
C823 C822 1.400 . S
C823 C824 1.398 . S
C823 C829 1.491 . S
C824 H815 0.950 . S
C824 C823 1.398 . S
C824 C825 1.391 . S
C825 H813 0.950 . S
C825 C821 1.393 . S
C825 C824 1.391 . S
C826 H816 0.950 . S
C826 C827 1.386 . S
C826 C828 1.391 . S
C827 C826 1.386 . S
C827 C831 1.393 . S
C828 H817 0.950 . S
C828 C826 1.391 . S
C828 C829 1.400 . S
C829 C823 1.491 . S
C829 C828 1.400 . S
C829 C830 1.398 . S
C830 H818 0.950 . S
C830 C829 1.398 . S
C830 C831 1.391 . S
C831 H819 0.950 . S
C831 C827 1.393 . S
C831 C830 1.391 . S
H832 C840 0.950 . S
H833 C845 0.950 . S
H834 C842 0.950 . S
H835 C844 0.950 . S
H836 C846 0.950 . S
H837 C848 0.950 . S
H838 C850 0.950 . S
H839 C851 0.950 . S
C840 H832 0.950 . S
C840 C841 1.386 . S
C840 C842 1.391 . S
C841 C840 1.386 . S
C841 C845 1.393 1_545 S
C842 H834 0.950 . S
C842 C840 1.391 . S
C842 C843 1.400 1_545 S
C843 C842 1.400 1_565 S
C843 C844 1.398 . S
C843 C849 1.491 . S
C844 H835 0.950 . S
C844 C843 1.398 . S
C844 C845 1.391 . S
C845 H833 0.950 . S
C845 C841 1.393 1_565 S
C845 C844 1.391 . S
C846 H836 0.950 . S
C846 C847 1.386 . S
C846 C848 1.391 . S
C847 C846 1.386 . S
C847 C851 1.393 1_565 S
C848 H837 0.950 . S
C848 C846 1.391 . S
C848 C849 1.400 . S
C849 C843 1.491 . S
C849 C848 1.400 . S
C849 C850 1.398 1_565 S
C850 H838 0.950 . S
C850 C849 1.398 1_545 S
C850 C851 1.391 . S
C851 H839 0.950 . S
C851 C847 1.393 1_545 S
C851 C850 1.391 . S
H852 C860 0.950 . S
H853 C865 0.950 . S
H854 C862 0.950 . S
H855 C864 0.950 . S
H856 C866 0.950 . S
H857 C868 0.950 . S
H858 C870 0.950 . S
H859 C871 0.950 . S
C860 H852 0.950 . S
C860 C861 1.386 . S
C860 C862 1.391 . S
C861 C860 1.386 . S
C861 C865 1.393 . S
C862 H854 0.950 . S
C862 C860 1.391 . S
C862 C863 1.400 . S
C863 C862 1.400 . S
C863 C864 1.398 . S
C863 C869 1.491 . S
C864 H855 0.950 . S
C864 C863 1.398 . S
C864 C865 1.391 . S
C865 H853 0.950 . S
C865 C861 1.393 . S
C865 C864 1.391 . S
C866 H856 0.950 . S
C866 C867 1.386 . S
C866 C868 1.391 . S
C867 C866 1.386 . S
C867 C871 1.393 . S
C868 H857 0.950 . S
C868 C866 1.391 . S
C868 C869 1.400 . S
C869 C863 1.491 . S
C869 C868 1.400 . S
C869 C870 1.398 . S
C870 H858 0.950 . S
C870 C869 1.398 . S
C870 C871 1.391 . S
C871 H859 0.950 . S
C871 C867 1.393 . S
C871 C870 1.391 . S
H872 C880 0.950 . S
H873 C885 0.950 . S
H874 C882 0.950 . S
H875 C884 0.950 . S
H876 C886 0.950 . S
H877 C888 0.950 . S
H878 C890 0.950 . S
H879 C891 0.950 . S
C880 H872 0.950 . S
C880 C881 1.386 . S
C880 C882 1.391 . S
C881 C880 1.386 . S
C881 C885 1.393 . S
C882 H874 0.950 . S
C882 C880 1.391 . S
C882 C883 1.400 . S
C883 C882 1.400 . S
C883 C884 1.398 . S
C883 C889 1.491 . S
C884 H875 0.950 . S
C884 C883 1.398 . S
C884 C885 1.391 . S
C885 H873 0.950 . S
C885 C881 1.393 . S
C885 C884 1.391 . S
C886 H876 0.950 . S
C886 C887 1.386 . S
C886 C888 1.391 . S
C887 C886 1.386 . S
C887 C891 1.393 . S
C888 H877 0.950 . S
C888 C886 1.391 . S
C888 C889 1.400 . S
C889 C883 1.491 . S
C889 C888 1.400 . S
C889 C890 1.398 . S
C890 H878 0.950 . S
C890 C889 1.398 . S
C890 C891 1.391 . S
C891 H879 0.950 . S
C891 C887 1.393 . S
C891 C890 1.391 . S
H892 C900 0.950 . S
H893 C905 0.950 . S
H894 C902 0.950 . S
H895 C904 0.950 . S
H896 C906 0.950 . S
H897 C908 0.950 . S
H898 C910 0.950 . S
H899 C911 0.950 . S
C900 H892 0.950 . S
C900 C901 1.386 . S
C900 C902 1.391 . S
C901 C900 1.386 . S
C901 C905 1.393 . S
C902 H894 0.950 . S
C902 C900 1.391 . S
C902 C903 1.400 . S
C903 C902 1.400 . S
C903 C904 1.398 . S
C903 C909 1.491 . S
C904 H895 0.950 . S
C904 C903 1.398 . S
C904 C905 1.391 . S
C905 H893 0.950 . S
C905 C901 1.393 . S
C905 C904 1.391 . S
C906 H896 0.950 . S
C906 C907 1.386 . S
C906 C908 1.391 . S
C907 C906 1.386 . S
C907 C911 1.393 . S
C908 H897 0.950 . S
C908 C906 1.391 . S
C908 C909 1.400 . S
C909 C903 1.491 . S
C909 C908 1.400 . S
C909 C910 1.398 . S
C910 H898 0.950 . S
C910 C909 1.398 . S
C910 C911 1.391 . S
C911 H899 0.950 . S
C911 C907 1.393 . S
C911 C910 1.391 . S
H912 C920 0.950 . S
H913 C925 0.950 . S
H914 C922 0.950 . S
H915 C924 0.950 . S
H916 C926 0.950 . S
H917 C928 0.950 . S
H918 C930 0.950 . S
H919 C931 0.950 . S
C920 H912 0.950 . S
C920 C921 1.386 1_565 S
C920 C922 1.391 . S
C921 C920 1.386 1_545 S
C921 C925 1.393 . S
C922 H914 0.950 . S
C922 C920 1.391 . S
C922 C923 1.400 1_565 S
C923 C922 1.400 1_545 S
C923 C924 1.398 . S
C923 C929 1.491 . S
C924 H915 0.950 . S
C924 C923 1.398 . S
C924 C925 1.391 . S
C925 H913 0.950 . S
C925 C921 1.393 . S
C925 C924 1.391 . S
C926 H916 0.950 . S
C926 C927 1.386 . S
C926 C928 1.391 . S
C927 C926 1.386 . S
C927 C931 1.393 1_545 S
C928 H917 0.950 . S
C928 C926 1.391 . S
C928 C929 1.400 . S
C929 C923 1.491 . S
C929 C928 1.400 . S
C929 C930 1.398 1_545 S
C930 H918 0.950 . S
C930 C929 1.398 1_565 S
C930 C931 1.391 . S
C931 H919 0.950 . S
C931 C927 1.393 1_565 S
C931 C930 1.391 . S
H932 C940 0.950 . S
H933 C945 0.950 . S
H934 C942 0.950 . S
H935 C944 0.950 . S
H936 C946 0.950 . S
H937 C948 0.950 . S
H938 C950 0.950 . S
H939 C951 0.950 . S
C940 H932 0.950 . S
C940 C941 1.386 . S
C940 C942 1.391 . S
C941 C940 1.386 . S
C941 C945 1.393 . S
C942 H934 0.950 . S
C942 C940 1.391 . S
C942 C943 1.400 . S
C943 C942 1.400 . S
C943 C944 1.398 . S
C943 C949 1.491 . S
C944 H935 0.950 . S
C944 C943 1.398 . S
C944 C945 1.391 . S
C945 H933 0.950 . S
C945 C941 1.393 . S
C945 C944 1.391 . S
C946 H936 0.950 . S
C946 C947 1.386 . S
C946 C948 1.391 . S
C947 C946 1.386 . S
C947 C951 1.393 . S
C948 H937 0.950 . S
C948 C946 1.391 . S
C948 C949 1.400 . S
C949 C943 1.491 . S
C949 C948 1.400 . S
C949 C950 1.398 . S
C950 H938 0.950 . S
C950 C949 1.398 . S
C950 C951 1.391 . S
C951 H939 0.950 . S
C951 C947 1.393 . S
C951 C950 1.391 . S
H952 C960 0.950 . S
H953 C965 0.950 . S
H954 C962 0.950 . S
H955 C964 0.950 . S
H956 C966 0.950 . S
H957 C968 0.950 . S
H958 C970 0.950 . S
H959 C971 0.950 . S
C960 H952 0.950 . S
C960 C961 1.386 1_565 S
C960 C962 1.391 . S
C961 C960 1.386 1_545 S
C961 C965 1.393 . S
C962 H954 0.950 . S
C962 C960 1.391 . S
C962 C963 1.401 . S
C963 C962 1.401 . S
C963 C964 1.398 1_565 S
C963 C969 1.490 . S
C964 H955 0.950 . S
C964 C963 1.398 1_545 S
C964 C965 1.391 . S
C965 H953 0.950 . S
C965 C961 1.393 . S
C965 C964 1.391 . S
C966 H956 0.950 . S
C966 C967 1.386 1_545 S
C966 C968 1.391 . S
C967 C966 1.386 1_565 S
C967 C971 1.393 . S
C968 H957 0.950 . S
C968 C966 1.391 . S
C968 C969 1.397 1_545 S
C969 C963 1.490 . S
C969 C968 1.397 1_565 S
C969 C970 1.403 . S
C970 H958 0.950 . S
C970 C969 1.403 . S
C970 C971 1.391 . S
C971 H959 0.950 . S
C971 C967 1.393 . S
C971 C970 1.391 . S
H972 C980 0.950 . S
H973 C985 0.950 . S
H974 C982 0.950 . S
H975 C984 0.950 . S
H976 C986 0.950 . S
H977 C988 0.950 . S
H978 C990 0.950 . S
H979 C991 0.950 . S
C980 H972 0.950 . S
C980 C981 1.386 . S
C980 C982 1.391 . S
C981 C980 1.386 . S
C981 C985 1.393 . S
C982 H974 0.950 . S
C982 C980 1.391 . S
C982 C983 1.400 . S
C983 C982 1.400 . S
C983 C984 1.398 . S
C983 C989 1.491 . S
C984 H975 0.950 . S
C984 C983 1.398 . S
C984 C985 1.391 . S
C985 H973 0.950 . S
C985 C981 1.393 . S
C985 C984 1.391 . S
C986 H976 0.950 . S
C986 C987 1.386 . S
C986 C988 1.391 . S
C987 C986 1.386 . S
C987 C991 1.393 . S
C988 H977 0.950 . S
C988 C986 1.391 . S
C988 C989 1.400 . S
C989 C983 1.491 . S
C989 C988 1.400 . S
C989 C990 1.398 . S
C990 H978 0.950 . S
C990 C989 1.398 . S
C990 C991 1.391 . S
C991 H979 0.950 . S
C991 C987 1.393 . S
C991 C990 1.391 . S
H992 C1000 0.950 . S
H993 C1005 0.950 . S
H994 C1002 0.950 . S
H995 C1004 0.950 . S
H996 C1006 0.950 . S
H997 C1008 0.950 . S
H998 C1010 0.950 . S
H999 C1011 0.950 . S
C1000 H992 0.950 . S
C1000 C1001 1.386 1_556 S
C1000 C1002 1.391 . S
C1001 C1000 1.386 1_554 S
C1001 C1005 1.393 . S
C1002 H994 0.950 . S
C1002 C1000 1.391 . S
C1002 C1003 1.400 1_556 S
C1003 C1002 1.400 1_554 S
C1003 C1004 1.398 . S
C1003 C1009 1.490 1_554 S
C1004 H995 0.950 . S
C1004 C1003 1.398 . S
C1004 C1005 1.391 . S
C1005 H993 0.950 . S
C1005 C1001 1.393 . S
C1005 C1004 1.391 . S
C1006 H996 0.950 . S
C1006 C1007 1.386 1_554 S
C1006 C1008 1.391 . S
C1007 C1006 1.386 1_556 S
C1007 C1011 1.393 . S
C1008 H997 0.950 . S
C1008 C1006 1.391 . S
C1008 C1009 1.392 1_554 S
C1009 C1003 1.490 1_556 S
C1009 C1008 1.392 1_556 S
C1009 C1010 1.408 . S
C1010 H998 0.950 . S
C1010 C1009 1.408 . S
C1010 C1011 1.391 . S
C1011 H999 0.950 . S
C1011 C1007 1.393 . S
C1011 C1010 1.391 . S
H1012 C1020 0.950 . S
H1013 C1025 0.950 . S
H1014 C1022 0.943 1_556 S
H1015 C1024 0.950 . S
H1016 C1026 0.950 . S
H1017 C1028 0.950 . S
H1018 C1030 0.950 . S
H1019 C1031 0.950 . S
C1020 H1012 0.950 . S
C1020 C1021 1.386 1_556 S
C1020 C1022 1.388 1_556 S
C1021 C1020 1.386 1_554 S
C1021 C1025 1.393 . S
C1022 H1014 0.943 1_554 S
C1022 C1020 1.388 1_554 S
C1022 C1023 1.412 . S
C1023 C1022 1.412 . S
C1023 C1024 1.398 . S
C1023 C1029 1.491 . S
C1024 H1015 0.950 . S
C1024 C1023 1.398 . S
C1024 C1025 1.391 . S
C1025 H1013 0.950 . S
C1025 C1021 1.393 . S
C1025 C1024 1.391 . S
C1026 H1016 0.950 . S
C1026 C1027 1.386 . S
C1026 C1028 1.391 . S
C1027 C1026 1.386 . S
C1027 C1031 1.393 . S
C1028 H1017 0.950 . S
C1028 C1026 1.391 . S
C1028 C1029 1.400 . S
C1029 C1023 1.491 . S
C1029 C1028 1.400 . S
C1029 C1030 1.398 . S
C1030 H1018 0.950 . S
C1030 C1029 1.398 . S
C1030 C1031 1.391 . S
C1031 H1019 0.950 . S
C1031 C1027 1.393 . S
C1031 C1030 1.391 . S
H1032 C1040 0.950 . S
H1033 C1045 0.950 . S
H1034 C1042 0.950 . S
H1035 C1044 0.950 . S
H1036 C1046 0.950 . S
H1037 C1048 0.950 . S
H1038 C1050 0.950 . S
H1039 C1051 0.950 . S
C1040 H1032 0.950 . S
C1040 C1041 1.386 . S
C1040 C1042 1.391 . S
C1041 C1040 1.386 . S
C1041 C1045 1.393 . S
C1042 H1034 0.950 . S
C1042 C1040 1.391 . S
C1042 C1043 1.400 . S
C1043 C1042 1.400 . S
C1043 C1044 1.398 . S
C1043 C1049 1.491 . S
C1044 H1035 0.950 . S
C1044 C1043 1.398 . S
C1044 C1045 1.391 . S
C1045 H1033 0.950 . S
C1045 C1041 1.393 . S
C1045 C1044 1.391 . S
C1046 H1036 0.950 . S
C1046 C1047 1.386 . S
C1046 C1048 1.391 . S
C1047 C1046 1.386 . S
C1047 C1051 1.393 . S
C1048 H1037 0.950 . S
C1048 C1046 1.391 . S
C1048 C1049 1.400 . S
C1049 C1043 1.491 . S
C1049 C1048 1.400 . S
C1049 C1050 1.398 . S
C1050 H1038 0.950 . S
C1050 C1049 1.398 . S
C1050 C1051 1.391 . S
C1051 H1039 0.950 . S
C1051 C1047 1.393 . S
C1051 C1050 1.391 . S
H1052 C1060 0.950 . S
H1053 C1065 0.950 . S
H1054 C1062 0.950 . S
H1055 C1064 0.950 . S
H1056 C1066 0.950 . S
H1057 C1068 0.950 . S
H1058 C1070 0.950 . S
H1059 C1071 0.950 . S
C1060 H1052 0.950 . S
C1060 C1061 1.386 . S
C1060 C1062 1.391 . S
C1061 C1060 1.386 . S
C1061 C1065 1.393 . S
C1062 H1054 0.950 . S
C1062 C1060 1.391 . S
C1062 C1063 1.400 . S
C1063 C1062 1.400 . S
C1063 C1064 1.398 . S
C1063 C1069 1.491 . S
C1064 H1055 0.950 . S
C1064 C1063 1.398 . S
C1064 C1065 1.391 . S
C1065 H1053 0.950 . S
C1065 C1061 1.393 . S
C1065 C1064 1.391 . S
C1066 H1056 0.950 . S
C1066 C1067 1.386 . S
C1066 C1068 1.391 . S
C1067 C1066 1.386 . S
C1067 C1071 1.393 . S
C1068 H1057 0.950 . S
C1068 C1066 1.391 . S
C1068 C1069 1.400 . S
C1069 C1063 1.491 . S
C1069 C1068 1.400 . S
C1069 C1070 1.398 . S
C1070 H1058 0.950 . S
C1070 C1069 1.398 . S
C1070 C1071 1.391 . S
C1071 H1059 0.950 . S
C1071 C1067 1.393 . S
C1071 C1070 1.391 . S
H1072 C1080 0.950 . S
H1073 C1085 0.950 . S
H1074 C1082 0.950 . S
H1075 C1084 0.950 . S
H1076 C1086 0.950 . S
H1077 C1088 0.950 . S
H1078 C1090 0.950 . S
H1079 C1091 0.950 . S
C1080 H1072 0.950 . S
C1080 C1081 1.386 . S
C1080 C1082 1.391 . S
C1081 C1080 1.386 . S
C1081 C1085 1.393 . S
C1082 H1074 0.950 . S
C1082 C1080 1.391 . S
C1082 C1083 1.400 . S
C1083 C1082 1.400 . S
C1083 C1084 1.398 . S
C1083 C1089 1.491 . S
C1084 H1075 0.950 . S
C1084 C1083 1.398 . S
C1084 C1085 1.391 . S
C1085 H1073 0.950 . S
C1085 C1081 1.393 . S
C1085 C1084 1.391 . S
C1086 H1076 0.950 . S
C1086 C1087 1.386 . S
C1086 C1088 1.391 . S
C1087 C1086 1.386 . S
C1087 C1091 1.393 . S
C1088 H1077 0.950 . S
C1088 C1086 1.391 . S
C1088 C1089 1.400 . S
C1089 C1083 1.491 . S
C1089 C1088 1.400 . S
C1089 C1090 1.398 . S
C1090 H1078 0.950 . S
C1090 C1089 1.398 . S
C1090 C1091 1.391 . S
C1091 H1079 0.950 . S
C1091 C1087 1.393 . S
C1091 C1090 1.391 . S
H1092 C1100 0.950 . S
H1093 C1105 0.950 . S
H1094 C1102 0.950 . S
H1095 C1104 0.950 . S
H1096 C1106 0.950 . S
H1097 C1108 0.950 . S
H1098 C1110 0.950 . S
H1099 C1111 0.950 . S
C1100 H1092 0.950 . S
C1100 C1101 1.386 . S
C1100 C1102 1.391 . S
C1101 C1100 1.386 . S
C1101 C1105 1.393 . S
C1102 H1094 0.950 . S
C1102 C1100 1.391 . S
C1102 C1103 1.400 . S
C1103 C1102 1.400 . S
C1103 C1104 1.398 . S
C1103 C1109 1.491 . S
C1104 H1095 0.950 . S
C1104 C1103 1.398 . S
C1104 C1105 1.391 . S
C1105 H1093 0.950 . S
C1105 C1101 1.393 . S
C1105 C1104 1.391 . S
C1106 H1096 0.950 . S
C1106 C1107 1.386 . S
C1106 C1108 1.391 . S
C1107 C1106 1.386 . S
C1107 C1111 1.393 . S
C1108 H1097 0.950 . S
C1108 C1106 1.391 . S
C1108 C1109 1.400 . S
C1109 C1103 1.491 . S
C1109 C1108 1.400 . S
C1109 C1110 1.398 . S
C1110 H1098 0.950 . S
C1110 C1109 1.398 . S
C1110 C1111 1.391 . S
C1111 H1099 0.950 . S
C1111 C1107 1.393 . S
C1111 C1110 1.391 . S
H1112 C1120 0.950 . S
H1113 C1125 0.950 . S
H1114 C1122 0.950 . S
H1115 C1124 0.950 . S
H1116 C1126 0.950 . S
H1117 C1128 0.950 . S
H1118 C1130 0.950 . S
H1119 C1131 0.950 . S
C1120 H1112 0.950 . S
C1120 C1121 1.386 . S
C1120 C1122 1.391 . S
C1121 C1120 1.386 . S
C1121 C1125 1.393 . S
C1122 H1114 0.950 . S
C1122 C1120 1.391 . S
C1122 C1123 1.400 . S
C1123 C1122 1.400 . S
C1123 C1124 1.398 . S
C1123 C1129 1.491 . S
C1124 H1115 0.950 . S
C1124 C1123 1.398 . S
C1124 C1125 1.391 . S
C1125 H1113 0.950 . S
C1125 C1121 1.393 . S
C1125 C1124 1.391 . S
C1126 H1116 0.950 . S
C1126 C1127 1.386 . S
C1126 C1128 1.391 . S
C1127 C1126 1.386 . S
C1127 C1131 1.393 . S
C1128 H1117 0.950 . S
C1128 C1126 1.391 . S
C1128 C1129 1.400 . S
C1129 C1123 1.491 . S
C1129 C1128 1.400 . S
C1129 C1130 1.398 . S
C1130 H1118 0.950 . S
C1130 C1129 1.398 . S
C1130 C1131 1.391 . S
C1131 H1119 0.950 . S
C1131 C1127 1.393 . S
C1131 C1130 1.391 . S
H1132 C1140 0.950 . S
H1133 C1145 0.950 . S
H1134 C1142 0.950 . S
H1135 C1144 0.950 . S
H1136 C1146 0.950 . S
H1137 C1148 0.950 . S
H1138 C1150 0.950 . S
H1139 C1151 0.950 . S
C1140 H1132 0.950 . S
C1140 C1141 1.386 . S
C1140 C1142 1.391 . S
C1141 C1140 1.386 . S
C1141 C1145 1.393 . S
C1142 H1134 0.950 . S
C1142 C1140 1.391 . S
C1142 C1143 1.400 . S
C1143 C1142 1.400 . S
C1143 C1144 1.398 . S
C1143 C1149 1.491 . S
C1144 H1135 0.950 . S
C1144 C1143 1.398 . S
C1144 C1145 1.391 . S
C1145 H1133 0.950 . S
C1145 C1141 1.393 . S
C1145 C1144 1.391 . S
C1146 H1136 0.950 . S
C1146 C1147 1.386 . S
C1146 C1148 1.391 . S
C1147 C1146 1.386 . S
C1147 C1151 1.393 . S
C1148 H1137 0.950 . S
C1148 C1146 1.391 . S
C1148 C1149 1.400 . S
C1149 C1143 1.491 . S
C1149 C1148 1.400 . S
C1149 C1150 1.398 . S
C1150 H1138 0.950 . S
C1150 C1149 1.398 . S
C1150 C1151 1.391 . S
C1151 H1139 0.950 . S
C1151 C1147 1.393 . S
C1151 C1150 1.391 . S
H1152 C1160 0.950 . S
H1153 C1165 0.950 . S
H1154 C1162 0.950 . S
H1155 C1164 0.950 . S
H1156 C1166 0.950 . S
H1157 C1168 0.950 . S
H1158 C1170 0.950 1_655 S
H1159 C1171 0.945 1_655 S
C1160 H1152 0.950 . S
C1160 C1161 1.386 1_655 S
C1160 C1162 1.391 . S
C1161 C1160 1.386 1_455 S
C1161 C1165 1.393 . S
C1162 H1154 0.950 . S
C1162 C1160 1.391 . S
C1162 C1163 1.400 1_655 S
C1163 C1162 1.400 1_455 S
C1163 C1164 1.398 . S
C1163 C1169 1.491 . S
C1164 H1155 0.950 . S
C1164 C1163 1.398 . S
C1164 C1165 1.391 . S
C1165 H1153 0.950 . S
C1165 C1161 1.393 . S
C1165 C1164 1.391 . S
C1166 H1156 0.950 . S
C1166 C1167 1.386 . S
C1166 C1168 1.391 . S
C1167 C1166 1.386 . S
C1167 C1171 1.393 . S
C1168 H1157 0.950 . S
C1168 C1166 1.391 . S
C1168 C1169 1.400 . S
C1169 C1163 1.491 . S
C1169 C1168 1.400 . S
C1169 C1170 1.398 . S
C1170 H1158 0.950 1_455 S
C1170 C1169 1.398 . S
C1170 C1171 1.391 . S
C1171 H1159 0.945 1_455 S
C1171 C1167 1.393 . S
C1171 C1170 1.391 . S
H1172 C1180 0.950 . S
H1173 C1185 0.950 . S
H1174 C1182 0.950 . S
H1175 C1184 0.950 . S
H1176 C1186 0.950 . S
H1177 C1188 0.950 . S
H1178 C1190 0.950 . S
H1179 C1191 0.950 . S
C1180 H1172 0.950 . S
C1180 C1181 1.386 . S
C1180 C1182 1.391 . S
C1181 C1180 1.386 . S
C1181 C1185 1.393 . S
C1182 H1174 0.950 . S
C1182 C1180 1.391 . S
C1182 C1183 1.400 . S
C1183 C1182 1.400 . S
C1183 C1184 1.398 . S
C1183 C1189 1.491 . S
C1184 H1175 0.950 . S
C1184 C1183 1.398 . S
C1184 C1185 1.391 . S
C1185 H1173 0.950 . S
C1185 C1181 1.393 . S
C1185 C1184 1.391 . S
C1186 H1176 0.950 . S
C1186 C1187 1.386 . S
C1186 C1188 1.391 . S
C1187 C1186 1.386 . S
C1187 C1191 1.393 . S
C1188 H1177 0.950 . S
C1188 C1186 1.391 . S
C1188 C1189 1.400 . S
C1189 C1183 1.491 . S
C1189 C1188 1.400 . S
C1189 C1190 1.398 . S
C1190 H1178 0.950 . S
C1190 C1189 1.398 . S
C1190 C1191 1.391 . S
C1191 H1179 0.950 . S
C1191 C1187 1.393 . S
C1191 C1190 1.391 . S
H1192 C1200 0.950 . S
H1193 C1205 0.950 . S
H1194 C1202 0.950 . S
H1195 C1204 0.950 . S
H1196 C1206 0.950 . S
H1197 C1208 0.950 . S
H1198 C1210 0.950 . S
H1199 C1211 0.950 . S
C1200 H1192 0.950 . S
C1200 C1201 1.386 . S
C1200 C1202 1.391 . S
C1201 C1200 1.386 . S
C1201 C1205 1.393 . S
C1202 H1194 0.950 . S
C1202 C1200 1.391 . S
C1202 C1203 1.400 . S
C1203 C1202 1.400 . S
C1203 C1204 1.398 . S
C1203 C1209 1.491 . S
C1204 H1195 0.950 . S
C1204 C1203 1.398 . S
C1204 C1205 1.391 . S
C1205 H1193 0.950 . S
C1205 C1201 1.393 . S
C1205 C1204 1.391 . S
C1206 H1196 0.950 . S
C1206 C1207 1.386 . S
C1206 C1208 1.391 . S
C1207 C1206 1.386 . S
C1207 C1211 1.393 . S
C1208 H1197 0.950 . S
C1208 C1206 1.391 . S
C1208 C1209 1.400 . S
C1209 C1203 1.491 . S
C1209 C1208 1.400 . S
C1209 C1210 1.398 . S
C1210 H1198 0.950 . S
C1210 C1209 1.398 . S
C1210 C1211 1.391 . S
C1211 H1199 0.950 . S
C1211 C1207 1.393 . S
C1211 C1210 1.391 . S
H1212 C1220 0.950 . S
H1213 C1225 0.950 . S
H1214 C1222 0.950 . S
H1215 C1224 0.950 . S
H1216 C1226 0.950 . S
H1217 C1228 0.950 . S
H1218 C1230 0.950 . S
H1219 C1231 0.950 . S
C1220 H1212 0.950 . S
C1220 C1221 1.386 . S
C1220 C1222 1.391 . S
C1221 C1220 1.386 . S
C1221 C1225 1.393 . S
C1222 H1214 0.950 . S
C1222 C1220 1.391 . S
C1222 C1223 1.400 . S
C1223 C1222 1.400 . S
C1223 C1224 1.398 . S
C1223 C1229 1.491 . S
C1224 H1215 0.950 . S
C1224 C1223 1.398 . S
C1224 C1225 1.391 . S
C1225 H1213 0.950 . S
C1225 C1221 1.393 . S
C1225 C1224 1.391 . S
C1226 H1216 0.950 . S
C1226 C1227 1.386 . S
C1226 C1228 1.391 . S
C1227 C1226 1.386 . S
C1227 C1231 1.393 . S
C1228 H1217 0.950 . S
C1228 C1226 1.391 . S
C1228 C1229 1.400 . S
C1229 C1223 1.491 . S
C1229 C1228 1.400 . S
C1229 C1230 1.398 . S
C1230 H1218 0.950 . S
C1230 C1229 1.398 . S
C1230 C1231 1.391 . S
C1231 H1219 0.950 . S
C1231 C1227 1.393 . S
C1231 C1230 1.391 . S
H1232 C1240 0.950 . S
H1233 C1245 0.950 . S
H1234 C1242 0.950 . S
H1235 C1244 0.950 . S
H1236 C1246 0.950 . S
H1237 C1248 0.950 . S
H1238 C1250 0.950 . S
H1239 C1251 0.950 . S
C1240 H1232 0.950 . S
C1240 C1241 1.386 1_655 S
C1240 C1242 1.391 . S
C1241 C1240 1.386 1_455 S
C1241 C1245 1.393 . S
C1242 H1234 0.950 . S
C1242 C1240 1.391 . S
C1242 C1243 1.400 1_655 S
C1243 C1242 1.400 1_455 S
C1243 C1244 1.398 . S
C1243 C1249 1.491 . S
C1244 H1235 0.950 . S
C1244 C1243 1.398 . S
C1244 C1245 1.391 . S
C1245 H1233 0.950 . S
C1245 C1241 1.393 . S
C1245 C1244 1.391 . S
C1246 H1236 0.950 . S
C1246 C1247 1.386 . S
C1246 C1248 1.391 . S
C1247 C1246 1.386 . S
C1247 C1251 1.393 1_455 S
C1248 H1237 0.950 . S
C1248 C1246 1.391 . S
C1248 C1249 1.400 . S
C1249 C1243 1.491 . S
C1249 C1248 1.400 . S
C1249 C1250 1.398 1_455 S
C1250 H1238 0.950 . S
C1250 C1249 1.398 1_655 S
C1250 C1251 1.391 . S
C1251 H1239 0.950 . S
C1251 C1247 1.393 1_655 S
C1251 C1250 1.391 . S
H1252 C1260 0.950 . S
H1253 C1265 0.950 . S
H1254 C1262 0.950 . S
H1255 C1264 0.950 . S
H1256 C1266 0.950 . S
H1257 C1268 0.950 . S
H1258 C1270 0.950 . S
H1259 C1271 0.950 . S
C1260 H1252 0.950 . S
C1260 C1261 1.386 . S
C1260 C1262 1.391 . S
C1261 C1260 1.386 . S
C1261 C1265 1.393 . S
C1262 H1254 0.950 . S
C1262 C1260 1.391 . S
C1262 C1263 1.400 . S
C1263 C1262 1.400 . S
C1263 C1264 1.398 . S
C1263 C1269 1.491 . S
C1264 H1255 0.950 . S
C1264 C1263 1.398 . S
C1264 C1265 1.391 . S
C1265 H1253 0.950 . S
C1265 C1261 1.393 . S
C1265 C1264 1.391 . S
C1266 H1256 0.950 . S
C1266 C1267 1.386 . S
C1266 C1268 1.391 . S
C1267 C1266 1.386 . S
C1267 C1271 1.393 . S
C1268 H1257 0.950 . S
C1268 C1266 1.391 . S
C1268 C1269 1.400 . S
C1269 C1263 1.491 . S
C1269 C1268 1.400 . S
C1269 C1270 1.398 . S
C1270 H1258 0.950 . S
C1270 C1269 1.398 . S
C1270 C1271 1.391 . S
C1271 H1259 0.950 . S
C1271 C1267 1.393 . S
C1271 C1270 1.391 . S
H1272 C1280 0.950 . S
H1273 C1285 0.950 . S
H1274 C1282 0.950 . S
H1275 C1284 0.950 . S
H1276 C1286 0.950 . S
H1277 C1288 0.950 . S
H1278 C1290 0.950 . S
H1279 C1291 0.950 . S
C1280 H1272 0.950 . S
C1280 C1281 1.386 . S
C1280 C1282 1.391 . S
C1281 C1280 1.386 . S
C1281 C1285 1.393 . S
C1282 H1274 0.950 . S
C1282 C1280 1.391 . S
C1282 C1283 1.400 . S
C1283 C1282 1.400 . S
C1283 C1284 1.398 . S
C1283 C1289 1.491 . S
C1284 H1275 0.950 . S
C1284 C1283 1.398 . S
C1284 C1285 1.391 . S
C1285 H1273 0.950 . S
C1285 C1281 1.393 . S
C1285 C1284 1.391 . S
C1286 H1276 0.950 . S
C1286 C1287 1.386 . S
C1286 C1288 1.391 . S
C1287 C1286 1.386 . S
C1287 C1291 1.393 . S
C1288 H1277 0.950 . S
C1288 C1286 1.391 . S
C1288 C1289 1.400 . S
C1289 C1283 1.491 . S
C1289 C1288 1.400 . S
C1289 C1290 1.398 . S
C1290 H1278 0.950 . S
C1290 C1289 1.398 . S
C1290 C1291 1.391 . S
C1291 H1279 0.950 . S
C1291 C1287 1.393 . S
C1291 C1290 1.391 . S
H1292 C1300 0.950 . S
H1293 C1305 0.950 . S
H1294 C1302 0.950 . S
H1295 C1304 0.950 . S
H1296 C1306 0.950 . S
H1297 C1308 0.950 . S
H1298 C1310 0.950 . S
H1299 C1311 0.950 . S
C1300 H1292 0.950 . S
C1300 C1301 1.386 . S
C1300 C1302 1.391 . S
C1301 C1300 1.386 . S
C1301 C1305 1.393 . S
C1302 H1294 0.950 . S
C1302 C1300 1.391 . S
C1302 C1303 1.400 . S
C1303 C1302 1.400 . S
C1303 C1304 1.398 . S
C1303 C1309 1.491 . S
C1304 H1295 0.950 . S
C1304 C1303 1.398 . S
C1304 C1305 1.391 . S
C1305 H1293 0.950 . S
C1305 C1301 1.393 . S
C1305 C1304 1.391 . S
C1306 H1296 0.950 . S
C1306 C1307 1.386 . S
C1306 C1308 1.391 . S
C1307 C1306 1.386 . S
C1307 C1311 1.393 . S
C1308 H1297 0.950 . S
C1308 C1306 1.391 . S
C1308 C1309 1.400 . S
C1309 C1303 1.491 . S
C1309 C1308 1.400 . S
C1309 C1310 1.398 . S
C1310 H1298 0.950 . S
C1310 C1309 1.398 . S
C1310 C1311 1.391 . S
C1311 H1299 0.950 . S
C1311 C1307 1.393 . S
C1311 C1310 1.391 . S
H1312 C1320 0.947 1_565 S
H1313 C1325 0.950 . S
H1314 C1322 0.950 . S
H1315 C1324 0.950 . S
H1316 C1326 0.950 . S
H1317 C1328 0.950 . S
H1318 C1330 0.950 . S
H1319 C1331 0.950 1_455 S
C1320 H1312 0.947 1_545 S
C1320 C1321 1.388 . S
C1320 C1322 1.394 . S
C1321 C1320 1.388 . S
C1321 C1325 1.393 . S
C1322 H1314 0.950 . S
C1322 C1320 1.394 . S
C1322 C1323 1.400 . S
C1323 C1322 1.400 . S
C1323 C1324 1.398 . S
C1323 C1329 1.491 . S
C1324 H1315 0.950 . S
C1324 C1323 1.398 . S
C1324 C1325 1.391 . S
C1325 H1313 0.950 . S
C1325 C1321 1.393 . S
C1325 C1324 1.391 . S
C1326 H1316 0.950 . S
C1326 C1327 1.386 . S
C1326 C1328 1.391 . S
C1327 C1326 1.386 . S
C1327 C1331 1.393 . S
C1328 H1317 0.950 . S
C1328 C1326 1.391 . S
C1328 C1329 1.400 . S
C1329 C1323 1.491 . S
C1329 C1328 1.400 . S
C1329 C1330 1.398 . S
C1330 H1318 0.950 . S
C1330 C1329 1.398 . S
C1330 C1331 1.391 . S
C1331 H1319 0.950 1_655 S
C1331 C1327 1.393 . S
C1331 C1330 1.391 . S
H1332 C1340 0.950 . S
H1333 C1345 0.950 . S
H1334 C1342 0.950 . S
H1335 C1344 0.950 . S
H1336 C1346 0.950 . S
H1337 C1348 0.950 . S
H1338 C1350 0.950 . S
H1339 C1351 0.950 . S
C1340 H1332 0.950 . S
C1340 C1341 1.386 . S
C1340 C1342 1.391 . S
C1341 C1340 1.386 . S
C1341 C1345 1.393 . S
C1342 H1334 0.950 . S
C1342 C1340 1.391 . S
C1342 C1343 1.400 . S
C1343 C1342 1.400 . S
C1343 C1344 1.398 . S
C1343 C1349 1.491 . S
C1344 H1335 0.950 . S
C1344 C1343 1.398 . S
C1344 C1345 1.391 . S
C1345 H1333 0.950 . S
C1345 C1341 1.393 . S
C1345 C1344 1.391 . S
C1346 H1336 0.950 . S
C1346 C1347 1.386 . S
C1346 C1348 1.391 . S
C1347 C1346 1.386 . S
C1347 C1351 1.393 . S
C1348 H1337 0.950 . S
C1348 C1346 1.391 . S
C1348 C1349 1.400 . S
C1349 C1343 1.491 . S
C1349 C1348 1.400 . S
C1349 C1350 1.398 . S
C1350 H1338 0.950 . S
C1350 C1349 1.398 . S
C1350 C1351 1.391 . S
C1351 H1339 0.950 . S
C1351 C1347 1.393 . S
C1351 C1350 1.391 . S
H1352 C1360 0.950 . S
H1353 C1365 0.950 . S
H1354 C1362 0.950 . S
H1355 C1364 0.950 . S
H1356 C1366 0.950 . S
H1357 C1368 0.950 . S
H1358 C1370 0.950 . S
H1359 C1371 0.950 . S
C1360 H1352 0.950 . S
C1360 C1361 1.386 . S
C1360 C1362 1.391 . S
C1361 C1360 1.386 . S
C1361 C1365 1.393 1_545 S
C1362 H1354 0.950 . S
C1362 C1360 1.391 . S
C1362 C1363 1.400 . S
C1363 C1362 1.400 . S
C1363 C1364 1.398 1_545 S
C1363 C1369 1.491 . S
C1364 H1355 0.950 . S
C1364 C1363 1.398 1_565 S
C1364 C1365 1.391 . S
C1365 H1353 0.950 . S
C1365 C1361 1.393 1_565 S
C1365 C1364 1.391 . S
C1366 H1356 0.950 . S
C1366 C1367 1.391 . S
C1366 C1368 1.391 . S
C1367 C1366 1.391 . S
C1367 C1371 1.386 1_565 S
C1368 H1357 0.950 . S
C1368 C1366 1.391 . S
C1368 C1369 1.400 1_565 S
C1369 C1363 1.491 . S
C1369 C1368 1.400 1_545 S
C1369 C1370 1.398 . S
C1370 H1358 0.950 . S
C1370 C1369 1.398 . S
C1370 C1371 1.391 . S
C1371 H1359 0.950 . S
C1371 C1367 1.386 1_545 S
C1371 C1370 1.391 . S
H1372 C1380 0.950 . S
H1373 C1385 0.950 . S
H1374 C1382 0.950 . S
H1375 C1384 0.950 . S
H1376 C1386 0.950 . S
H1377 C1388 0.950 . S
H1378 C1390 0.950 . S
H1379 C1391 0.950 . S
C1380 H1372 0.950 . S
C1380 C1381 1.386 . S
C1380 C1382 1.391 . S
C1381 C1380 1.386 . S
C1381 C1385 1.393 . S
C1382 H1374 0.950 . S
C1382 C1380 1.391 . S
C1382 C1383 1.400 . S
C1383 C1382 1.400 . S
C1383 C1384 1.398 . S
C1383 C1389 1.491 . S
C1384 H1375 0.950 . S
C1384 C1383 1.398 . S
C1384 C1385 1.391 . S
C1385 H1373 0.950 . S
C1385 C1381 1.393 . S
C1385 C1384 1.391 . S
C1386 H1376 0.950 . S
C1386 C1387 1.386 . S
C1386 C1388 1.391 . S
C1387 C1386 1.386 . S
C1387 C1391 1.393 . S
C1388 H1377 0.950 . S
C1388 C1386 1.391 . S
C1388 C1389 1.400 . S
C1389 C1383 1.491 . S
C1389 C1388 1.400 . S
C1389 C1390 1.398 . S
C1390 H1378 0.950 . S
C1390 C1389 1.398 . S
C1390 C1391 1.391 . S
C1391 H1379 0.950 . S
C1391 C1387 1.393 . S
C1391 C1390 1.391 . S
H1392 C1400 0.950 . S
H1393 C1405 0.950 . S
H1394 C1402 0.950 . S
H1395 C1404 0.950 . S
H1396 C1406 0.940 1_445 S
H1397 C1408 0.941 1_545 S
H1398 C1410 0.950 . S
H1399 C1411 0.950 . S
C1400 H1392 0.950 . S
C1400 C1401 1.385 . S
C1400 C1402 1.391 . S
C1401 C1400 1.385 . S
C1401 C1405 1.393 1_565 S
C1402 H1394 0.950 . S
C1402 C1400 1.391 . S
C1402 C1403 1.400 . S
C1403 C1402 1.400 . S
C1403 C1404 1.398 1_565 S
C1403 C1409 1.491 . S
C1404 H1395 0.950 . S
C1404 C1403 1.398 1_545 S
C1404 C1405 1.391 . S
C1405 H1393 0.950 . S
C1405 C1401 1.393 1_545 S
C1405 C1404 1.391 . S
C1406 H1396 0.940 1_665 S
C1406 C1407 1.386 . S
C1406 C1408 1.394 . S
C1407 C1406 1.386 . S
C1407 C1411 1.393 . S
C1408 H1397 0.941 1_565 S
C1408 C1406 1.394 . S
C1408 C1409 1.408 . S
C1409 C1403 1.491 . S
C1409 C1408 1.408 . S
C1409 C1410 1.398 . S
C1410 H1398 0.950 . S
C1410 C1409 1.398 . S
C1410 C1411 1.391 . S
C1411 H1399 0.950 . S
C1411 C1407 1.393 . S
C1411 C1410 1.391 . S
H1412 C1420 0.950 . S
H1413 C1425 0.950 . S
H1414 C1422 0.950 . S
H1415 C1424 0.950 . S
H1416 C1426 0.950 . S
H1417 C1428 0.950 . S
H1418 C1430 0.950 . S
H1419 C1431 0.950 . S
C1420 H1412 0.950 . S
C1420 C1421 1.386 . S
C1420 C1422 1.391 . S
C1421 C1420 1.386 . S
C1421 C1425 1.393 . S
C1422 H1414 0.950 . S
C1422 C1420 1.391 . S
C1422 C1423 1.400 . S
C1423 C1422 1.400 . S
C1423 C1424 1.398 . S
C1423 C1429 1.491 . S
C1424 H1415 0.950 . S
C1424 C1423 1.398 . S
C1424 C1425 1.391 . S
C1425 H1413 0.950 . S
C1425 C1421 1.393 . S
C1425 C1424 1.391 . S
C1426 H1416 0.950 . S
C1426 C1427 1.386 . S
C1426 C1428 1.391 . S
C1427 C1426 1.386 . S
C1427 C1431 1.393 . S
C1428 H1417 0.950 . S
C1428 C1426 1.391 . S
C1428 C1429 1.400 . S
C1429 C1423 1.491 . S
C1429 C1428 1.400 . S
C1429 C1430 1.398 . S
C1430 H1418 0.950 . S
C1430 C1429 1.398 . S
C1430 C1431 1.391 . S
C1431 H1419 0.950 . S
C1431 C1427 1.393 . S
C1431 C1430 1.391 . S
H1432 C1440 0.950 . S
H1433 C1445 0.950 . S
H1434 C1442 0.950 . S
H1435 C1444 0.950 . S
H1436 C1446 0.950 . S
H1437 C1448 0.950 . S
H1438 C1450 0.950 1_565 S
H1439 C1451 0.952 . S
C1440 H1432 0.950 . S
C1440 C1441 1.386 1_565 S
C1440 C1442 1.391 . S
C1441 C1440 1.386 1_545 S
C1441 C1445 1.393 . S
C1442 H1434 0.950 . S
C1442 C1440 1.391 . S
C1442 C1443 1.400 1_565 S
C1443 C1442 1.400 1_545 S
C1443 C1444 1.398 . S
C1443 C1449 1.491 . S
C1444 H1435 0.950 . S
C1444 C1443 1.398 . S
C1444 C1445 1.391 . S
C1445 H1433 0.950 . S
C1445 C1441 1.393 . S
C1445 C1444 1.391 . S
C1446 H1436 0.950 . S
C1446 C1447 1.386 . S
C1446 C1448 1.391 . S
C1447 C1446 1.386 . S
C1447 C1451 1.393 . S
C1448 H1437 0.950 . S
C1448 C1446 1.391 . S
C1448 C1449 1.400 . S
C1449 C1443 1.491 . S
C1449 C1448 1.400 . S
C1449 C1450 1.398 . S
C1450 H1438 0.950 1_545 S
C1450 C1449 1.398 . S
C1450 C1451 1.391 . S
C1451 H1439 0.952 . S
C1451 C1447 1.393 . S
C1451 C1450 1.391 . S
H1452 C1460 0.950 . S
H1453 C1465 0.950 . S
H1454 C1462 0.950 . S
H1455 C1464 0.950 . S
H1456 C1466 0.950 . S
H1457 C1468 0.950 . S
H1458 C1470 0.950 . S
H1459 C1471 0.950 . S
C1460 H1452 0.950 . S
C1460 C1461 1.386 . S
C1460 C1462 1.391 . S
C1461 C1460 1.386 . S
C1461 C1465 1.393 . S
C1462 H1454 0.950 . S
C1462 C1460 1.391 . S
C1462 C1463 1.400 . S
C1463 C1462 1.400 . S
C1463 C1464 1.398 . S
C1463 C1469 1.491 . S
C1464 H1455 0.950 . S
C1464 C1463 1.398 . S
C1464 C1465 1.391 . S
C1465 H1453 0.950 . S
C1465 C1461 1.393 . S
C1465 C1464 1.391 . S
C1466 H1456 0.950 . S
C1466 C1467 1.386 . S
C1466 C1468 1.391 . S
C1467 C1466 1.386 . S
C1467 C1471 1.393 . S
C1468 H1457 0.950 . S
C1468 C1466 1.391 . S
C1468 C1469 1.400 . S
C1469 C1463 1.491 . S
C1469 C1468 1.400 . S
C1469 C1470 1.398 . S
C1470 H1458 0.950 . S
C1470 C1469 1.398 . S
C1470 C1471 1.391 . S
C1471 H1459 0.950 . S
C1471 C1467 1.393 . S
C1471 C1470 1.391 . S
H1472 C1480 0.950 . S
H1473 C1485 0.950 . S
H1474 C1482 0.950 . S
H1475 C1484 0.950 . S
H1476 C1486 0.950 . S
H1477 C1488 0.950 . S
H1478 C1490 0.950 . S
H1479 C1491 0.950 . S
C1480 H1472 0.950 . S
C1480 C1481 1.386 1_556 S
C1480 C1482 1.391 . S
C1481 C1480 1.386 1_554 S
C1481 C1485 1.393 . S
C1482 H1474 0.950 . S
C1482 C1480 1.391 . S
C1482 C1483 1.400 1_556 S
C1483 C1482 1.400 1_554 S
C1483 C1484 1.398 . S
C1483 C1489 1.491 . S
C1484 H1475 0.950 . S
C1484 C1483 1.398 . S
C1484 C1485 1.391 . S
C1485 H1473 0.950 . S
C1485 C1481 1.393 . S
C1485 C1484 1.391 . S
C1486 H1476 0.950 . S
C1486 C1487 1.386 . S
C1486 C1488 1.391 . S
C1487 C1486 1.386 . S
C1487 C1491 1.393 1_554 S
C1488 H1477 0.950 . S
C1488 C1486 1.391 . S
C1488 C1489 1.400 . S
C1489 C1483 1.491 . S
C1489 C1488 1.400 . S
C1489 C1490 1.398 1_554 S
C1490 H1478 0.950 . S
C1490 C1489 1.398 1_556 S
C1490 C1491 1.391 . S
C1491 H1479 0.950 . S
C1491 C1487 1.393 1_556 S
C1491 C1490 1.391 . S
H1492 C1500 0.950 . S
H1493 C1505 0.950 . S
H1494 C1502 0.950 . S
H1495 C1504 0.950 . S
H1496 C1506 0.950 . S
H1497 C1508 0.950 . S
H1498 C1510 0.950 . S
H1499 C1511 0.950 . S
C1500 H1492 0.950 . S
C1500 C1501 1.386 . S
C1500 C1502 1.391 . S
C1501 C1500 1.386 . S
C1501 C1505 1.393 1_554 S
C1502 H1494 0.950 . S
C1502 C1500 1.391 . S
C1502 C1503 1.380 1_554 S
C1503 C1502 1.380 1_556 S
C1503 C1504 1.419 . S
C1503 C1509 1.491 . S
C1504 H1495 0.950 . S
C1504 C1503 1.419 . S
C1504 C1505 1.391 . S
C1505 H1493 0.950 . S
C1505 C1501 1.393 1_556 S
C1505 C1504 1.391 . S
C1506 H1496 0.950 . S
C1506 C1507 1.386 . S
C1506 C1508 1.391 . S
C1507 C1506 1.386 . S
C1507 C1511 1.393 1_556 S
C1508 H1497 0.950 . S
C1508 C1506 1.391 . S
C1508 C1509 1.400 . S
C1509 C1503 1.491 . S
C1509 C1508 1.400 . S
C1509 C1510 1.398 1_556 S
C1510 H1498 0.950 . S
C1510 C1509 1.398 1_554 S
C1510 C1511 1.391 . S
C1511 H1499 0.950 . S
C1511 C1507 1.393 1_554 S
C1511 C1510 1.391 . S
H1512 C1520 0.950 . S
H1513 C1525 0.950 . S
H1514 C1522 0.950 . S
H1515 C1524 0.950 . S
H1516 C1526 0.950 . S
H1517 C1528 0.950 . S
H1518 C1530 0.950 . S
H1519 C1531 0.950 . S
C1520 H1512 0.950 . S
C1520 C1521 1.386 . S
C1520 C1522 1.391 . S
C1521 C1520 1.386 . S
C1521 C1525 1.393 . S
C1522 H1514 0.950 . S
C1522 C1520 1.391 . S
C1522 C1523 1.400 . S
C1523 C1522 1.400 . S
C1523 C1524 1.398 . S
C1523 C1529 1.491 . S
C1524 H1515 0.950 . S
C1524 C1523 1.398 . S
C1524 C1525 1.391 . S
C1525 H1513 0.950 . S
C1525 C1521 1.393 . S
C1525 C1524 1.391 . S
C1526 H1516 0.950 . S
C1526 C1527 1.386 . S
C1526 C1528 1.391 . S
C1527 C1526 1.386 . S
C1527 C1531 1.393 . S
C1528 H1517 0.950 . S
C1528 C1526 1.391 . S
C1528 C1529 1.400 . S
C1529 C1523 1.491 . S
C1529 C1528 1.400 . S
C1529 C1530 1.398 . S
C1530 H1518 0.950 . S
C1530 C1529 1.398 . S
C1530 C1531 1.391 . S
C1531 H1519 0.950 . S
C1531 C1527 1.393 . S
C1531 C1530 1.391 . S
H1532 C1540 0.950 . S
H1533 C1545 0.950 . S
H1534 C1542 0.950 . S
H1535 C1544 0.950 . S
H1536 C1546 0.950 . S
H1537 C1548 0.950 . S
H1538 C1550 0.950 . S
H1539 C1551 0.950 . S
C1540 H1532 0.950 . S
C1540 C1541 1.386 . S
C1540 C1542 1.391 . S
C1541 C1540 1.386 . S
C1541 C1545 1.393 . S
C1542 H1534 0.950 . S
C1542 C1540 1.391 . S
C1542 C1543 1.400 . S
C1543 C1542 1.400 . S
C1543 C1544 1.398 . S
C1543 C1549 1.491 . S
C1544 H1535 0.950 . S
C1544 C1543 1.398 . S
C1544 C1545 1.391 . S
C1545 H1533 0.950 . S
C1545 C1541 1.393 . S
C1545 C1544 1.391 . S
C1546 H1536 0.950 . S
C1546 C1547 1.386 . S
C1546 C1548 1.391 . S
C1547 C1546 1.386 . S
C1547 C1551 1.393 . S
C1548 H1537 0.950 . S
C1548 C1546 1.391 . S
C1548 C1549 1.400 . S
C1549 C1543 1.491 . S
C1549 C1548 1.400 . S
C1549 C1550 1.398 . S
C1550 H1538 0.950 . S
C1550 C1549 1.398 . S
C1550 C1551 1.391 . S
C1551 H1539 0.950 . S
C1551 C1547 1.393 . S
C1551 C1550 1.391 . S
H1552 C1560 0.950 . S
H1553 C1565 0.950 . S
H1554 C1562 0.950 . S
H1555 C1564 0.950 . S
H1556 C1566 0.950 . S
H1557 C1568 0.950 . S
H1558 C1570 0.950 . S
H1559 C1571 0.950 . S
C1560 H1552 0.950 . S
C1560 C1561 1.386 . S
C1560 C1562 1.391 . S
C1561 C1560 1.386 . S
C1561 C1565 1.393 . S
C1562 H1554 0.950 . S
C1562 C1560 1.391 . S
C1562 C1563 1.400 . S
C1563 C1562 1.400 . S
C1563 C1564 1.398 . S
C1563 C1569 1.491 . S
C1564 H1555 0.950 . S
C1564 C1563 1.398 . S
C1564 C1565 1.391 . S
C1565 H1553 0.950 . S
C1565 C1561 1.393 . S
C1565 C1564 1.391 . S
C1566 H1556 0.950 . S
C1566 C1567 1.386 . S
C1566 C1568 1.391 . S
C1567 C1566 1.386 . S
C1567 C1571 1.393 . S
C1568 H1557 0.950 . S
C1568 C1566 1.391 . S
C1568 C1569 1.400 . S
C1569 C1563 1.491 . S
C1569 C1568 1.400 . S
C1569 C1570 1.398 . S
C1570 H1558 0.950 . S
C1570 C1569 1.398 . S
C1570 C1571 1.391 . S
C1571 H1559 0.950 . S
C1571 C1567 1.393 . S
C1571 C1570 1.391 . S
H1572 C1580 0.950 . S
H1573 C1585 0.950 . S
H1574 C1582 0.950 . S
H1575 C1584 0.950 . S
H1576 C1586 0.950 . S
H1577 C1588 0.950 . S
H1578 C1590 0.950 . S
H1579 C1591 0.950 . S
C1580 H1572 0.950 . S
C1580 C1581 1.386 . S
C1580 C1582 1.391 . S
C1581 C1580 1.386 . S
C1581 C1585 1.393 . S
C1582 H1574 0.950 . S
C1582 C1580 1.391 . S
C1582 C1583 1.400 . S
C1583 C1582 1.400 . S
C1583 C1584 1.398 . S
C1583 C1589 1.491 . S
C1584 H1575 0.950 . S
C1584 C1583 1.398 . S
C1584 C1585 1.391 . S
C1585 H1573 0.950 . S
C1585 C1581 1.393 . S
C1585 C1584 1.391 . S
C1586 H1576 0.950 . S
C1586 C1587 1.386 . S
C1586 C1588 1.391 . S
C1587 C1586 1.386 . S
C1587 C1591 1.393 . S
C1588 H1577 0.950 . S
C1588 C1586 1.391 . S
C1588 C1589 1.400 . S
C1589 C1583 1.491 . S
C1589 C1588 1.400 . S
C1589 C1590 1.398 . S
C1590 H1578 0.950 . S
C1590 C1589 1.398 . S
C1590 C1591 1.391 . S
C1591 H1579 0.950 . S
C1591 C1587 1.393 . S
C1591 C1590 1.391 . S
H1592 C1600 0.950 . S
H1593 C1605 0.950 . S
H1594 C1602 0.950 . S
H1595 C1604 0.950 . S
H1596 C1606 0.950 . S
H1597 C1608 0.950 . S
H1598 C1610 0.950 . S
H1599 C1611 0.950 . S
C1600 H1592 0.950 . S
C1600 C1601 1.386 . S
C1600 C1602 1.391 . S
C1601 C1600 1.386 . S
C1601 C1605 1.393 . S
C1602 H1594 0.950 . S
C1602 C1600 1.391 . S
C1602 C1603 1.400 . S
C1603 C1602 1.400 . S
C1603 C1604 1.398 . S
C1603 C1609 1.491 . S
C1604 H1595 0.950 . S
C1604 C1603 1.398 . S
C1604 C1605 1.391 . S
C1605 H1593 0.950 . S
C1605 C1601 1.393 . S
C1605 C1604 1.391 . S
C1606 H1596 0.950 . S
C1606 C1607 1.386 . S
C1606 C1608 1.391 . S
C1607 C1606 1.386 . S
C1607 C1611 1.393 . S
C1608 H1597 0.950 . S
C1608 C1606 1.391 . S
C1608 C1609 1.400 . S
C1609 C1603 1.491 . S
C1609 C1608 1.400 . S
C1609 C1610 1.398 . S
C1610 H1598 0.950 . S
C1610 C1609 1.398 . S
C1610 C1611 1.391 . S
C1611 H1599 0.950 . S
C1611 C1607 1.393 . S
C1611 C1610 1.391 . S
H1612 C1620 0.950 . S
H1613 C1625 0.950 . S
H1614 C1622 0.950 . S
H1615 C1624 0.950 . S
H1616 C1626 0.950 . S
H1617 C1628 0.950 . S
H1618 C1630 0.950 . S
H1619 C1631 0.950 . S
C1620 H1612 0.950 . S
C1620 C1621 1.386 . S
C1620 C1622 1.391 . S
C1621 C1620 1.386 . S
C1621 C1625 1.393 . S
C1622 H1614 0.950 . S
C1622 C1620 1.391 . S
C1622 C1623 1.400 . S
C1623 C1622 1.400 . S
C1623 C1624 1.398 . S
C1623 C1629 1.491 . S
C1624 H1615 0.950 . S
C1624 C1623 1.398 . S
C1624 C1625 1.391 . S
C1625 H1613 0.950 . S
C1625 C1621 1.393 . S
C1625 C1624 1.391 . S
C1626 H1616 0.950 . S
C1626 C1627 1.386 . S
C1626 C1628 1.391 . S
C1627 C1626 1.386 . S
C1627 C1631 1.393 . S
C1628 H1617 0.950 . S
C1628 C1626 1.391 . S
C1628 C1629 1.400 . S
C1629 C1623 1.491 . S
C1629 C1628 1.400 . S
C1629 C1630 1.398 . S
C1630 H1618 0.950 . S
C1630 C1629 1.398 . S
C1630 C1631 1.391 . S
C1631 H1619 0.950 . S
C1631 C1627 1.393 . S
C1631 C1630 1.391 . S
H1632 C1640 0.950 . S
H1633 C1645 0.950 . S
H1634 C1642 0.950 . S
H1635 C1644 0.950 . S
H1636 C1646 0.950 . S
H1637 C1648 0.950 . S
H1638 C1650 0.950 . S
H1639 C1651 0.950 . S
C1640 H1632 0.950 . S
C1640 C1641 1.386 . S
C1640 C1642 1.391 . S
C1641 C1640 1.386 . S
C1641 C1645 1.393 . S
C1642 H1634 0.950 . S
C1642 C1640 1.391 . S
C1642 C1643 1.400 . S
C1643 C1642 1.400 . S
C1643 C1644 1.398 . S
C1643 C1649 1.491 . S
C1644 H1635 0.950 . S
C1644 C1643 1.398 . S
C1644 C1645 1.391 . S
C1645 H1633 0.950 . S
C1645 C1641 1.393 . S
C1645 C1644 1.391 . S
C1646 H1636 0.950 . S
C1646 C1647 1.386 . S
C1646 C1648 1.391 . S
C1647 C1646 1.386 . S
C1647 C1651 1.393 . S
C1648 H1637 0.950 . S
C1648 C1646 1.391 . S
C1648 C1649 1.400 . S
C1649 C1643 1.491 . S
C1649 C1648 1.400 . S
C1649 C1650 1.398 . S
C1650 H1638 0.950 . S
C1650 C1649 1.398 . S
C1650 C1651 1.391 . S
C1651 H1639 0.950 . S
C1651 C1647 1.393 . S
C1651 C1650 1.391 . S
H1652 C1660 0.950 . S
H1653 C1665 0.950 . S
H1654 C1662 0.950 . S
H1655 C1664 0.950 . S
H1656 C1666 0.950 . S
H1657 C1668 0.950 . S
H1658 C1670 0.950 . S
H1659 C1671 0.950 . S
C1660 H1652 0.950 . S
C1660 C1661 1.386 . S
C1660 C1662 1.391 . S
C1661 C1660 1.386 . S
C1661 C1665 1.393 . S
C1662 H1654 0.950 . S
C1662 C1660 1.391 . S
C1662 C1663 1.400 . S
C1663 C1662 1.400 . S
C1663 C1664 1.398 . S
C1663 C1669 1.491 . S
C1664 H1655 0.950 . S
C1664 C1663 1.398 . S
C1664 C1665 1.391 . S
C1665 H1653 0.950 . S
C1665 C1661 1.393 . S
C1665 C1664 1.391 . S
C1666 H1656 0.950 . S
C1666 C1667 1.386 . S
C1666 C1668 1.391 . S
C1667 C1666 1.386 . S
C1667 C1671 1.393 . S
C1668 H1657 0.950 . S
C1668 C1666 1.391 . S
C1668 C1669 1.400 . S
C1669 C1663 1.491 . S
C1669 C1668 1.400 . S
C1669 C1670 1.398 . S
C1670 H1658 0.950 . S
C1670 C1669 1.398 . S
C1670 C1671 1.391 . S
C1671 H1659 0.950 . S
C1671 C1667 1.393 . S
C1671 C1670 1.391 . S
H1672 C1680 0.950 . S
H1673 C1685 0.950 . S
H1674 C1682 0.953 . S
H1675 C1684 0.950 . S
H1676 C1686 0.950 1_556 S
H1677 C1688 0.950 . S
H1678 C1690 0.939 1_655 S
H1679 C1691 0.950 1_655 S
C1680 H1672 0.950 . S
C1680 C1681 1.386 1_655 S
C1680 C1682 1.392 . S
C1681 C1680 1.386 1_455 S
C1681 C1685 1.393 . S
C1682 H1674 0.953 . S
C1682 C1680 1.392 . S
C1682 C1683 1.397 1_655 S
C1683 C1682 1.397 1_455 S
C1683 C1684 1.398 . S
C1683 C1689 1.491 . S
C1684 H1675 0.950 . S
C1684 C1683 1.398 . S
C1684 C1685 1.391 . S
C1685 H1673 0.950 . S
C1685 C1681 1.393 . S
C1685 C1684 1.391 . S
C1686 H1676 0.950 1_554 S
C1686 C1687 1.386 . S
C1686 C1688 1.391 . S
C1687 C1686 1.386 . S
C1687 C1691 1.393 . S
C1688 H1677 0.950 . S
C1688 C1686 1.391 . S
C1688 C1689 1.400 . S
C1689 C1683 1.491 . S
C1689 C1688 1.400 . S
C1689 C1690 1.408 . S
C1690 H1678 0.939 1_455 S
C1690 C1689 1.408 . S
C1690 C1691 1.392 . S
C1691 H1679 0.950 1_455 S
C1691 C1687 1.393 . S
C1691 C1690 1.392 . S
H1692 C1700 0.950 . S
H1693 C1705 0.950 . S
H1694 C1702 0.950 . S
H1695 C1704 0.950 . S
H1696 C1706 0.950 . S
H1697 C1708 0.950 . S
H1698 C1710 0.950 . S
H1699 C1711 0.950 . S
C1700 H1692 0.950 . S
C1700 C1701 1.386 . S
C1700 C1702 1.391 . S
C1701 C1700 1.386 . S
C1701 C1705 1.393 . S
C1702 H1694 0.950 . S
C1702 C1700 1.391 . S
C1702 C1703 1.400 . S
C1703 C1702 1.400 . S
C1703 C1704 1.398 . S
C1703 C1709 1.491 . S
C1704 H1695 0.950 . S
C1704 C1703 1.398 . S
C1704 C1705 1.391 . S
C1705 H1693 0.950 . S
C1705 C1701 1.393 . S
C1705 C1704 1.391 . S
C1706 H1696 0.950 . S
C1706 C1707 1.386 . S
C1706 C1708 1.391 . S
C1707 C1706 1.386 . S
C1707 C1711 1.393 . S
C1708 H1697 0.950 . S
C1708 C1706 1.391 . S
C1708 C1709 1.400 . S
C1709 C1703 1.491 . S
C1709 C1708 1.400 . S
C1709 C1710 1.398 . S
C1710 H1698 0.950 . S
C1710 C1709 1.398 . S
C1710 C1711 1.391 . S
C1711 H1699 0.950 . S
C1711 C1707 1.393 . S
C1711 C1710 1.391 . S
H1712 C1720 0.950 . S
H1713 C1725 0.950 . S
H1714 C1722 0.950 . S
H1715 C1724 0.950 . S
H1716 C1726 0.950 . S
H1717 C1728 0.950 . S
H1718 C1730 0.950 . S
H1719 C1731 0.950 . S
C1720 H1712 0.950 . S
C1720 C1721 1.386 . S
C1720 C1722 1.391 . S
C1721 C1720 1.386 . S
C1721 C1725 1.393 . S
C1722 H1714 0.950 . S
C1722 C1720 1.391 . S
C1722 C1723 1.400 . S
C1723 C1722 1.400 . S
C1723 C1724 1.398 . S
C1723 C1729 1.491 . S
C1724 H1715 0.950 . S
C1724 C1723 1.398 . S
C1724 C1725 1.391 . S
C1725 H1713 0.950 . S
C1725 C1721 1.393 . S
C1725 C1724 1.391 . S
C1726 H1716 0.950 . S
C1726 C1727 1.386 . S
C1726 C1728 1.391 . S
C1727 C1726 1.386 . S
C1727 C1731 1.393 . S
C1728 H1717 0.950 . S
C1728 C1726 1.391 . S
C1728 C1729 1.400 . S
C1729 C1723 1.491 . S
C1729 C1728 1.400 . S
C1729 C1730 1.398 . S
C1730 H1718 0.950 . S
C1730 C1729 1.398 . S
C1730 C1731 1.391 . S
C1731 H1719 0.950 . S
C1731 C1727 1.393 . S
C1731 C1730 1.391 . S
H1732 C1740 0.950 . S
H1733 C1745 0.950 . S
H1734 C1742 0.950 . S
H1735 C1744 0.950 . S
H1736 C1746 0.950 . S
H1737 C1748 0.950 . S
H1738 C1750 0.950 . S
H1739 C1751 0.950 . S
C1740 H1732 0.950 . S
C1740 C1741 1.386 . S
C1740 C1742 1.391 . S
C1741 C1740 1.386 . S
C1741 C1745 1.393 . S
C1742 H1734 0.950 . S
C1742 C1740 1.391 . S
C1742 C1743 1.400 . S
C1743 C1742 1.400 . S
C1743 C1744 1.398 . S
C1743 C1749 1.491 . S
C1744 H1735 0.950 . S
C1744 C1743 1.398 . S
C1744 C1745 1.391 . S
C1745 H1733 0.950 . S
C1745 C1741 1.393 . S
C1745 C1744 1.391 . S
C1746 H1736 0.950 . S
C1746 C1747 1.386 . S
C1746 C1748 1.391 . S
C1747 C1746 1.386 . S
C1747 C1751 1.393 . S
C1748 H1737 0.950 . S
C1748 C1746 1.391 . S
C1748 C1749 1.400 . S
C1749 C1743 1.491 . S
C1749 C1748 1.400 . S
C1749 C1750 1.398 . S
C1750 H1738 0.950 . S
C1750 C1749 1.398 . S
C1750 C1751 1.391 . S
C1751 H1739 0.950 . S
C1751 C1747 1.393 . S
C1751 C1750 1.391 . S
H1752 C1760 0.950 . S
H1753 C1765 0.950 . S
H1754 C1762 0.950 . S
H1755 C1764 0.950 . S
H1756 C1766 0.950 1_655 S
H1757 C1768 0.950 1_655 S
H1758 C1770 0.950 . S
H1759 C1771 0.950 . S
C1760 H1752 0.950 . S
C1760 C1761 1.386 . S
C1760 C1762 1.391 . S
C1761 C1760 1.386 . S
C1761 C1765 1.393 1_455 S
C1762 H1754 0.950 . S
C1762 C1760 1.391 . S
C1762 C1763 1.400 . S
C1763 C1762 1.400 . S
C1763 C1764 1.398 1_455 S
C1763 C1769 1.491 . S
C1764 H1755 0.950 . S
C1764 C1763 1.398 1_655 S
C1764 C1765 1.391 . S
C1765 H1753 0.950 . S
C1765 C1761 1.393 1_655 S
C1765 C1764 1.391 . S
C1766 H1756 0.950 1_455 S
C1766 C1767 1.386 . S
C1766 C1768 1.391 . S
C1767 C1766 1.386 . S
C1767 C1771 1.393 . S
C1768 H1757 0.950 1_455 S
C1768 C1766 1.391 . S
C1768 C1769 1.400 . S
C1769 C1763 1.491 . S
C1769 C1768 1.400 . S
C1769 C1770 1.398 . S
C1770 H1758 0.950 . S
C1770 C1769 1.398 . S
C1770 C1771 1.391 . S
C1771 H1759 0.950 . S
C1771 C1767 1.393 . S
C1771 C1770 1.391 . S
H1772 C1780 0.950 . S
H1773 C1785 0.950 . S
H1774 C1782 0.950 . S
H1775 C1784 0.950 . S
H1776 C1786 0.950 . S
H1777 C1788 0.950 . S
H1778 C1790 0.950 . S
H1779 C1791 0.950 . S
C1780 H1772 0.950 . S
C1780 C1781 1.386 . S
C1780 C1782 1.391 . S
C1781 C1780 1.386 . S
C1781 C1785 1.393 . S
C1782 H1774 0.950 . S
C1782 C1780 1.391 . S
C1782 C1783 1.400 . S
C1783 C1782 1.400 . S
C1783 C1784 1.398 . S
C1783 C1789 1.491 . S
C1784 H1775 0.950 . S
C1784 C1783 1.398 . S
C1784 C1785 1.391 . S
C1785 H1773 0.950 . S
C1785 C1781 1.393 . S
C1785 C1784 1.391 . S
C1786 H1776 0.950 . S
C1786 C1787 1.386 . S
C1786 C1788 1.391 . S
C1787 C1786 1.386 . S
C1787 C1791 1.393 . S
C1788 H1777 0.950 . S
C1788 C1786 1.391 . S
C1788 C1789 1.400 . S
C1789 C1783 1.491 . S
C1789 C1788 1.400 . S
C1789 C1790 1.398 . S
C1790 H1778 0.950 . S
C1790 C1789 1.398 . S
C1790 C1791 1.391 . S
C1791 H1779 0.950 . S
C1791 C1787 1.393 . S
C1791 C1790 1.391 . S
H1792 C1800 0.950 . S
H1793 C1805 0.950 . S
H1794 C1802 0.950 . S
H1795 C1804 0.950 . S
H1796 C1806 0.950 . S
H1797 C1808 0.950 . S
H1798 C1810 0.950 . S
H1799 C1811 0.950 . S
C1800 H1792 0.950 . S
C1800 C1801 1.386 . S
C1800 C1802 1.391 . S
C1801 C1800 1.386 . S
C1801 C1805 1.393 . S
C1802 H1794 0.950 . S
C1802 C1800 1.391 . S
C1802 C1803 1.400 . S
C1803 C1802 1.400 . S
C1803 C1804 1.398 . S
C1803 C1809 1.491 . S
C1804 H1795 0.950 . S
C1804 C1803 1.398 . S
C1804 C1805 1.391 . S
C1805 H1793 0.950 . S
C1805 C1801 1.393 . S
C1805 C1804 1.391 . S
C1806 H1796 0.950 . S
C1806 C1807 1.386 . S
C1806 C1808 1.391 . S
C1807 C1806 1.386 . S
C1807 C1811 1.393 . S
C1808 H1797 0.950 . S
C1808 C1806 1.391 . S
C1808 C1809 1.400 . S
C1809 C1803 1.491 . S
C1809 C1808 1.400 . S
C1809 C1810 1.398 . S
C1810 H1798 0.950 . S
C1810 C1809 1.398 . S
C1810 C1811 1.391 . S
C1811 H1799 0.950 . S
C1811 C1807 1.393 . S
C1811 C1810 1.391 . S
H1812 C1820 0.950 . S
H1813 C1825 0.950 . S
H1814 C1822 0.950 . S
H1815 C1824 0.950 . S
H1816 C1826 0.950 . S
H1817 C1828 0.950 . S
H1818 C1830 0.950 . S
H1819 C1831 0.950 . S
C1820 H1812 0.950 . S
C1820 C1821 1.386 . S
C1820 C1822 1.391 . S
C1821 C1820 1.386 . S
C1821 C1825 1.393 . S
C1822 H1814 0.950 . S
C1822 C1820 1.391 . S
C1822 C1823 1.400 . S
C1823 C1822 1.400 . S
C1823 C1824 1.398 . S
C1823 C1829 1.491 . S
C1824 H1815 0.950 . S
C1824 C1823 1.398 . S
C1824 C1825 1.391 . S
C1825 H1813 0.950 . S
C1825 C1821 1.393 . S
C1825 C1824 1.391 . S
C1826 H1816 0.950 . S
C1826 C1827 1.386 . S
C1826 C1828 1.391 . S
C1827 C1826 1.386 . S
C1827 C1831 1.393 . S
C1828 H1817 0.950 . S
C1828 C1826 1.391 . S
C1828 C1829 1.400 . S
C1829 C1823 1.491 . S
C1829 C1828 1.400 . S
C1829 C1830 1.398 . S
C1830 H1818 0.950 . S
C1830 C1829 1.398 . S
C1830 C1831 1.391 . S
C1831 H1819 0.950 . S
C1831 C1827 1.393 . S
C1831 C1830 1.391 . S
H1832 C1840 0.950 . S
H1833 C1845 0.950 . S
H1834 C1842 0.950 . S
H1835 C1844 0.950 . S
H1836 C1846 0.950 . S
H1837 C1848 0.950 . S
H1838 C1850 0.950 . S
H1839 C1851 0.950 . S
C1840 H1832 0.950 . S
C1840 C1841 1.386 . S
C1840 C1842 1.391 . S
C1841 C1840 1.386 . S
C1841 C1845 1.393 . S
C1842 H1834 0.950 . S
C1842 C1840 1.391 . S
C1842 C1843 1.400 . S
C1843 C1842 1.400 . S
C1843 C1844 1.398 . S
C1843 C1849 1.491 . S
C1844 H1835 0.950 . S
C1844 C1843 1.398 . S
C1844 C1845 1.391 . S
C1845 H1833 0.950 . S
C1845 C1841 1.393 . S
C1845 C1844 1.391 . S
C1846 H1836 0.950 . S
C1846 C1847 1.386 . S
C1846 C1848 1.391 . S
C1847 C1846 1.386 . S
C1847 C1851 1.393 . S
C1848 H1837 0.950 . S
C1848 C1846 1.391 . S
C1848 C1849 1.400 . S
C1849 C1843 1.491 . S
C1849 C1848 1.400 . S
C1849 C1850 1.398 . S
C1850 H1838 0.950 . S
C1850 C1849 1.398 . S
C1850 C1851 1.391 . S
C1851 H1839 0.950 . S
C1851 C1847 1.393 . S
C1851 C1850 1.391 . S
H1852 C1860 0.950 . S
H1853 C1865 0.950 . S
H1854 C1862 0.950 . S
H1855 C1864 0.950 . S
H1856 C1866 0.950 . S
H1857 C1868 0.950 . S
H1858 C1870 0.950 . S
H1859 C1871 0.950 . S
C1860 H1852 0.950 . S
C1860 C1861 1.386 . S
C1860 C1862 1.391 . S
C1861 C1860 1.386 . S
C1861 C1865 1.393 . S
C1862 H1854 0.950 . S
C1862 C1860 1.391 . S
C1862 C1863 1.400 . S
C1863 C1862 1.400 . S
C1863 C1864 1.398 . S
C1863 C1869 1.491 . S
C1864 H1855 0.950 . S
C1864 C1863 1.398 . S
C1864 C1865 1.391 . S
C1865 H1853 0.950 . S
C1865 C1861 1.393 . S
C1865 C1864 1.391 . S
C1866 H1856 0.950 . S
C1866 C1867 1.386 . S
C1866 C1868 1.391 . S
C1867 C1866 1.386 . S
C1867 C1871 1.393 . S
C1868 H1857 0.950 . S
C1868 C1866 1.391 . S
C1868 C1869 1.400 . S
C1869 C1863 1.491 . S
C1869 C1868 1.400 . S
C1869 C1870 1.398 . S
C1870 H1858 0.950 . S
C1870 C1869 1.398 . S
C1870 C1871 1.391 . S
C1871 H1859 0.950 . S
C1871 C1867 1.393 . S
C1871 C1870 1.391 . S
H1872 C1880 0.950 . S
H1873 C1885 0.950 . S
H1874 C1882 0.950 . S
H1875 C1884 0.950 . S
H1876 C1886 0.950 . S
H1877 C1888 0.950 . S
H1878 C1890 0.950 . S
H1879 C1891 0.950 . S
C1880 H1872 0.950 . S
C1880 C1881 1.386 . S
C1880 C1882 1.391 . S
C1881 C1880 1.386 . S
C1881 C1885 1.393 . S
C1882 H1874 0.950 . S
C1882 C1880 1.391 . S
C1882 C1883 1.400 . S
C1883 C1882 1.400 . S
C1883 C1884 1.398 . S
C1883 C1889 1.491 . S
C1884 H1875 0.950 . S
C1884 C1883 1.398 . S
C1884 C1885 1.391 . S
C1885 H1873 0.950 . S
C1885 C1881 1.393 . S
C1885 C1884 1.391 . S
C1886 H1876 0.950 . S
C1886 C1887 1.386 . S
C1886 C1888 1.391 . S
C1887 C1886 1.386 . S
C1887 C1891 1.393 . S
C1888 H1877 0.950 . S
C1888 C1886 1.391 . S
C1888 C1889 1.400 . S
C1889 C1883 1.491 . S
C1889 C1888 1.400 . S
C1889 C1890 1.398 . S
C1890 H1878 0.950 . S
C1890 C1889 1.398 . S
C1890 C1891 1.391 . S
C1891 H1879 0.950 . S
C1891 C1887 1.393 . S
C1891 C1890 1.391 . S
H1892 C1900 0.950 . S
H1893 C1905 0.950 . S
H1894 C1902 0.950 . S
H1895 C1904 0.950 . S
H1896 C1906 0.950 . S
H1897 C1908 0.950 . S
H1898 C1910 0.950 . S
H1899 C1911 0.950 . S
C1900 H1892 0.950 . S
C1900 C1901 1.386 . S
C1900 C1902 1.391 . S
C1901 C1900 1.386 . S
C1901 C1905 1.393 . S
C1902 H1894 0.950 . S
C1902 C1900 1.391 . S
C1902 C1903 1.400 . S
C1903 C1902 1.400 . S
C1903 C1904 1.398 . S
C1903 C1909 1.491 . S
C1904 H1895 0.950 . S
C1904 C1903 1.398 . S
C1904 C1905 1.391 . S
C1905 H1893 0.950 . S
C1905 C1901 1.393 . S
C1905 C1904 1.391 . S
C1906 H1896 0.950 . S
C1906 C1907 1.386 . S
C1906 C1908 1.391 . S
C1907 C1906 1.386 . S
C1907 C1911 1.393 . S
C1908 H1897 0.950 . S
C1908 C1906 1.391 . S
C1908 C1909 1.400 . S
C1909 C1903 1.491 . S
C1909 C1908 1.400 . S
C1909 C1910 1.398 . S
C1910 H1898 0.950 . S
C1910 C1909 1.398 . S
C1910 C1911 1.391 . S
C1911 H1899 0.950 . S
C1911 C1907 1.393 . S
C1911 C1910 1.391 . S
H1912 C1920 0.950 . S
H1913 C1925 0.950 . S
H1914 C1922 0.950 . S
H1915 C1924 0.950 . S
H1916 C1926 0.950 . S
H1917 C1928 0.950 . S
H1918 C1930 0.950 . S
H1919 C1931 0.950 1_455 S
C1920 H1912 0.950 . S
C1920 C1921 1.386 . S
C1920 C1922 1.391 . S
C1921 C1920 1.386 . S
C1921 C1925 1.393 . S
C1922 H1914 0.950 . S
C1922 C1920 1.391 . S
C1922 C1923 1.400 . S
C1923 C1922 1.400 . S
C1923 C1924 1.398 . S
C1923 C1929 1.491 . S
C1924 H1915 0.950 . S
C1924 C1923 1.398 . S
C1924 C1925 1.391 . S
C1925 H1913 0.950 . S
C1925 C1921 1.393 . S
C1925 C1924 1.391 . S
C1926 H1916 0.950 . S
C1926 C1927 1.386 . S
C1926 C1928 1.391 . S
C1927 C1926 1.386 . S
C1927 C1931 1.393 . S
C1928 H1917 0.950 . S
C1928 C1926 1.391 . S
C1928 C1929 1.400 . S
C1929 C1923 1.491 . S
C1929 C1928 1.400 . S
C1929 C1930 1.398 . S
C1930 H1918 0.950 . S
C1930 C1929 1.398 . S
C1930 C1931 1.391 . S
C1931 H1919 0.950 1_655 S
C1931 C1927 1.393 . S
C1931 C1930 1.391 . S
H1932 C1940 0.950 . S
H1933 C1945 0.950 . S
H1934 C1942 0.950 . S
H1935 C1944 0.950 . S
H1936 C1946 0.950 . S
H1937 C1948 0.950 . S
H1938 C1950 0.950 . S
H1939 C1951 0.950 . S
C1940 H1932 0.950 . S
C1940 C1941 1.386 . S
C1940 C1942 1.391 . S
C1941 C1940 1.386 . S
C1941 C1945 1.393 . S
C1942 H1934 0.950 . S
C1942 C1940 1.391 . S
C1942 C1943 1.400 . S
C1943 C1942 1.400 . S
C1943 C1944 1.398 . S
C1943 C1949 1.491 . S
C1944 H1935 0.950 . S
C1944 C1943 1.398 . S
C1944 C1945 1.391 . S
C1945 H1933 0.950 . S
C1945 C1941 1.393 . S
C1945 C1944 1.391 . S
C1946 H1936 0.950 . S
C1946 C1947 1.386 . S
C1946 C1948 1.391 . S
C1947 C1946 1.386 . S
C1947 C1951 1.393 . S
C1948 H1937 0.950 . S
C1948 C1946 1.391 . S
C1948 C1949 1.400 . S
C1949 C1943 1.491 . S
C1949 C1948 1.400 . S
C1949 C1950 1.398 . S
C1950 H1938 0.950 . S
C1950 C1949 1.398 . S
C1950 C1951 1.391 . S
C1951 H1939 0.950 . S
C1951 C1947 1.393 . S
C1951 C1950 1.391 . S
H1952 C1960 0.950 . S
H1953 C1965 0.950 . S
H1954 C1962 0.950 . S
H1955 C1964 0.950 . S
H1956 C1966 0.950 . S
H1957 C1968 0.950 . S
H1958 C1970 0.950 . S
H1959 C1971 0.950 . S
C1960 H1952 0.950 . S
C1960 C1961 1.386 . S
C1960 C1962 1.391 . S
C1961 C1960 1.386 . S
C1961 C1965 1.393 . S
C1962 H1954 0.950 . S
C1962 C1960 1.391 . S
C1962 C1963 1.400 . S
C1963 C1962 1.400 . S
C1963 C1964 1.398 . S
C1963 C1969 1.491 . S
C1964 H1955 0.950 . S
C1964 C1963 1.398 . S
C1964 C1965 1.391 . S
C1965 H1953 0.950 . S
C1965 C1961 1.393 . S
C1965 C1964 1.391 . S
C1966 H1956 0.950 . S
C1966 C1967 1.386 . S
C1966 C1968 1.391 . S
C1967 C1966 1.386 . S
C1967 C1971 1.393 . S
C1968 H1957 0.950 . S
C1968 C1966 1.391 . S
C1968 C1969 1.400 . S
C1969 C1963 1.491 . S
C1969 C1968 1.400 . S
C1969 C1970 1.398 . S
C1970 H1958 0.950 . S
C1970 C1969 1.398 . S
C1970 C1971 1.391 . S
C1971 H1959 0.950 . S
C1971 C1967 1.393 . S
C1971 C1970 1.391 . S
H1972 C1980 0.950 . S
H1973 C1985 0.950 . S
H1974 C1982 0.950 . S
H1975 C1984 0.950 . S
H1976 C1986 0.936 1_545 S
H1977 C1988 0.950 . S
H1978 C1990 0.950 . S
H1979 C1991 0.950 . S
C1980 H1972 0.950 . S
C1980 C1981 1.386 . S
C1980 C1982 1.391 . S
C1981 C1980 1.386 . S
C1981 C1985 1.393 . S
C1982 H1974 0.950 . S
C1982 C1980 1.391 . S
C1982 C1983 1.400 . S
C1983 C1982 1.400 . S
C1983 C1984 1.398 . S
C1983 C1989 1.491 . S
C1984 H1975 0.950 . S
C1984 C1983 1.398 . S
C1984 C1985 1.391 . S
C1985 H1973 0.950 . S
C1985 C1981 1.393 . S
C1985 C1984 1.391 . S
C1986 H1976 0.936 1_565 S
C1986 C1987 1.386 . S
C1986 C1988 1.391 . S
C1987 C1986 1.386 . S
C1987 C1991 1.393 . S
C1988 H1977 0.950 . S
C1988 C1986 1.391 . S
C1988 C1989 1.400 . S
C1989 C1983 1.491 . S
C1989 C1988 1.400 . S
C1989 C1990 1.398 . S
C1990 H1978 0.950 . S
C1990 C1989 1.398 . S
C1990 C1991 1.391 . S
C1991 H1979 0.950 . S
C1991 C1987 1.393 . S
C1991 C1990 1.391 . S
H1992 C2000 0.950 . S
H1993 C2005 0.950 . S
H1994 C2002 0.950 . S
H1995 C2004 0.950 . S
H1996 C2006 0.950 . S
H1997 C2008 0.950 . S
H1998 C2010 0.950 . S
H1999 C2011 0.950 . S
C2000 H1992 0.950 . S
C2000 C2001 1.386 . S
C2000 C2002 1.391 . S
C2001 C2000 1.386 . S
C2001 C2005 1.393 . S
C2002 H1994 0.950 . S
C2002 C2000 1.391 . S
C2002 C2003 1.400 . S
C2003 C2002 1.400 . S
C2003 C2004 1.398 . S
C2003 C2009 1.491 . S
C2004 H1995 0.950 . S
C2004 C2003 1.398 . S
C2004 C2005 1.391 . S
C2005 H1993 0.950 . S
C2005 C2001 1.393 . S
C2005 C2004 1.391 . S
C2006 H1996 0.950 . S
C2006 C2007 1.386 . S
C2006 C2008 1.391 . S
C2007 C2006 1.386 . S
C2007 C2011 1.393 . S
C2008 H1997 0.950 . S
C2008 C2006 1.391 . S
C2008 C2009 1.400 . S
C2009 C2003 1.491 . S
C2009 C2008 1.400 . S
C2009 C2010 1.398 . S
C2010 H1998 0.950 . S
C2010 C2009 1.398 . S
C2010 C2011 1.391 . S
C2011 H1999 0.950 . S
C2011 C2007 1.393 . S
C2011 C2010 1.391 . S
H2012 C2020 0.950 . S
H2013 C2025 0.950 . S
H2014 C2022 0.950 . S
H2015 C2024 0.950 . S
H2016 C2026 0.950 . S
H2017 C2028 0.950 . S
H2018 C2030 0.950 1_556 S
H2019 C2031 0.950 1_556 S
C2020 H2012 0.950 . S
C2020 C2021 1.386 1_556 S
C2020 C2022 1.391 . S
C2021 C2020 1.386 1_554 S
C2021 C2025 1.393 . S
C2022 H2014 0.950 . S
C2022 C2020 1.391 . S
C2022 C2023 1.400 1_556 S
C2023 C2022 1.400 1_554 S
C2023 C2024 1.398 . S
C2023 C2029 1.491 . S
C2024 H2015 0.950 . S
C2024 C2023 1.398 . S
C2024 C2025 1.391 . S
C2025 H2013 0.950 . S
C2025 C2021 1.393 . S
C2025 C2024 1.391 . S
C2026 H2016 0.950 . S
C2026 C2027 1.386 . S
C2026 C2028 1.391 . S
C2027 C2026 1.386 . S
C2027 C2031 1.393 . S
C2028 H2017 0.950 . S
C2028 C2026 1.391 . S
C2028 C2029 1.400 . S
C2029 C2023 1.491 . S
C2029 C2028 1.400 . S
C2029 C2030 1.398 . S
C2030 H2018 0.950 1_554 S
C2030 C2029 1.398 . S
C2030 C2031 1.391 . S
C2031 H2019 0.950 1_554 S
C2031 C2027 1.393 . S
C2031 C2030 1.391 . S
H2032 C2040 0.950 . S
H2033 C2045 0.950 . S
H2034 C2042 0.950 . S
H2035 C2044 0.950 . S
H2036 C2046 0.950 . S
H2037 C2048 0.950 . S
H2038 C2050 0.950 . S
H2039 C2051 0.950 . S
C2040 H2032 0.950 . S
C2040 C2041 1.386 . S
C2040 C2042 1.391 . S
C2041 C2040 1.386 . S
C2041 C2045 1.393 . S
C2042 H2034 0.950 . S
C2042 C2040 1.391 . S
C2042 C2043 1.400 . S
C2043 C2042 1.400 . S
C2043 C2044 1.398 . S
C2043 C2049 1.491 . S
C2044 H2035 0.950 . S
C2044 C2043 1.398 . S
C2044 C2045 1.391 . S
C2045 H2033 0.950 . S
C2045 C2041 1.393 . S
C2045 C2044 1.391 . S
C2046 H2036 0.950 . S
C2046 C2047 1.386 . S
C2046 C2048 1.391 . S
C2047 C2046 1.386 . S
C2047 C2051 1.393 . S
C2048 H2037 0.950 . S
C2048 C2046 1.391 . S
C2048 C2049 1.400 . S
C2049 C2043 1.491 . S
C2049 C2048 1.400 . S
C2049 C2050 1.398 . S
C2050 H2038 0.950 . S
C2050 C2049 1.398 . S
C2050 C2051 1.391 . S
C2051 H2039 0.950 . S
C2051 C2047 1.393 . S
C2051 C2050 1.391 . S
H2052 C2060 0.950 . S
H2053 C2065 0.950 . S
H2054 C2062 0.950 . S
H2055 C2064 0.950 . S
H2056 C2066 0.950 . S
H2057 C2068 0.950 . S
H2058 C2070 0.950 . S
H2059 C2071 0.950 . S
C2060 H2052 0.950 . S
C2060 C2061 1.359 1_556 S
C2060 C2062 1.391 . S
C2061 C2060 1.359 1_554 S
C2061 C2065 1.418 . S
C2062 H2054 0.950 . S
C2062 C2060 1.391 . S
C2062 C2063 1.427 . S
C2063 C2062 1.427 . S
C2063 C2064 1.372 1_556 S
C2063 C2069 1.493 . S
C2064 H2055 0.950 . S
C2064 C2063 1.372 1_554 S
C2064 C2065 1.391 . S
C2065 H2053 0.950 . S
C2065 C2061 1.418 . S
C2065 C2064 1.391 . S
C2066 H2056 0.950 . S
C2066 C2067 1.386 1_554 S
C2066 C2068 1.391 . S
C2067 C2066 1.386 1_556 S
C2067 C2071 1.393 . S
C2068 H2057 0.950 . S
C2068 C2066 1.391 . S
C2068 C2069 1.400 1_554 S
C2069 C2063 1.493 . S
C2069 C2068 1.400 1_556 S
C2069 C2070 1.398 . S
C2070 H2058 0.950 . S
C2070 C2069 1.398 . S
C2070 C2071 1.391 . S
C2071 H2059 0.950 . S
C2071 C2067 1.393 . S
C2071 C2070 1.391 . S
H2072 C2080 0.950 . S
H2073 C2085 0.950 . S
H2074 C2082 0.950 . S
H2075 C2084 0.950 . S
H2076 C2086 0.950 . S
H2077 C2088 0.950 . S
H2078 C2090 0.950 . S
H2079 C2091 0.950 . S
C2080 H2072 0.950 . S
C2080 C2081 1.386 . S
C2080 C2082 1.391 . S
C2081 C2080 1.386 . S
C2081 C2085 1.393 . S
C2082 H2074 0.950 . S
C2082 C2080 1.391 . S
C2082 C2083 1.400 . S
C2083 C2082 1.400 . S
C2083 C2084 1.398 . S
C2083 C2089 1.491 . S
C2084 H2075 0.950 . S
C2084 C2083 1.398 . S
C2084 C2085 1.391 . S
C2085 H2073 0.950 . S
C2085 C2081 1.393 . S
C2085 C2084 1.391 . S
C2086 H2076 0.950 . S
C2086 C2087 1.386 . S
C2086 C2088 1.391 . S
C2087 C2086 1.386 . S
C2087 C2091 1.393 . S
C2088 H2077 0.950 . S
C2088 C2086 1.391 . S
C2088 C2089 1.400 . S
C2089 C2083 1.491 . S
C2089 C2088 1.400 . S
C2089 C2090 1.398 . S
C2090 H2078 0.950 . S
C2090 C2089 1.398 . S
C2090 C2091 1.391 . S
C2091 H2079 0.950 . S
C2091 C2087 1.393 . S
C2091 C2090 1.391 . S
H2092 C2100 0.950 . S
H2093 C2105 0.950 . S
H2094 C2102 0.950 . S
H2095 C2104 0.950 . S
H2096 C2106 0.950 . S
H2097 C2108 0.950 . S
H2098 C2110 0.950 . S
H2099 C2111 0.950 . S
C2100 H2092 0.950 . S
C2100 C2101 1.386 . S
C2100 C2102 1.391 . S
C2101 C2100 1.386 . S
C2101 C2105 1.393 . S
C2102 H2094 0.950 . S
C2102 C2100 1.391 . S
C2102 C2103 1.400 . S
C2103 C2102 1.400 . S
C2103 C2104 1.398 . S
C2103 C2109 1.491 . S
C2104 H2095 0.950 . S
C2104 C2103 1.398 . S
C2104 C2105 1.391 . S
C2105 H2093 0.950 . S
C2105 C2101 1.393 . S
C2105 C2104 1.391 . S
C2106 H2096 0.950 . S
C2106 C2107 1.386 . S
C2106 C2108 1.391 . S
C2107 C2106 1.386 . S
C2107 C2111 1.393 . S
C2108 H2097 0.950 . S
C2108 C2106 1.391 . S
C2108 C2109 1.400 . S
C2109 C2103 1.491 . S
C2109 C2108 1.400 . S
C2109 C2110 1.398 . S
C2110 H2098 0.950 . S
C2110 C2109 1.398 . S
C2110 C2111 1.391 . S
C2111 H2099 0.950 . S
C2111 C2107 1.393 . S
C2111 C2110 1.391 . S
H2112 C2120 0.950 . S
H2113 C2125 0.950 . S
H2114 C2122 0.950 . S
H2115 C2124 0.950 . S
H2116 C2126 0.950 . S
H2117 C2128 0.950 . S
H2118 C2130 0.950 . S
H2119 C2131 0.950 . S
C2120 H2112 0.950 . S
C2120 C2121 1.386 . S
C2120 C2122 1.391 . S
C2121 C2120 1.386 . S
C2121 C2125 1.393 . S
C2122 H2114 0.950 . S
C2122 C2120 1.391 . S
C2122 C2123 1.400 . S
C2123 C2122 1.400 . S
C2123 C2124 1.398 . S
C2123 C2129 1.491 . S
C2124 H2115 0.950 . S
C2124 C2123 1.398 . S
C2124 C2125 1.391 . S
C2125 H2113 0.950 . S
C2125 C2121 1.393 . S
C2125 C2124 1.391 . S
C2126 H2116 0.950 . S
C2126 C2127 1.386 . S
C2126 C2128 1.391 . S
C2127 C2126 1.386 . S
C2127 C2131 1.393 . S
C2128 H2117 0.950 . S
C2128 C2126 1.391 . S
C2128 C2129 1.400 . S
C2129 C2123 1.491 . S
C2129 C2128 1.400 . S
C2129 C2130 1.398 . S
C2130 H2118 0.950 . S
C2130 C2129 1.398 . S
C2130 C2131 1.391 . S
C2131 H2119 0.950 . S
C2131 C2127 1.393 . S
C2131 C2130 1.391 . S
H2132 C2140 0.950 . S
H2133 C2145 0.950 . S
H2134 C2142 0.950 . S
H2135 C2144 0.950 . S
H2136 C2146 0.950 . S
H2137 C2148 0.950 . S
H2138 C2150 0.950 . S
H2139 C2151 0.950 . S
C2140 H2132 0.950 . S
C2140 C2141 1.386 . S
C2140 C2142 1.391 . S
C2141 C2140 1.386 . S
C2141 C2145 1.393 . S
C2142 H2134 0.950 . S
C2142 C2140 1.391 . S
C2142 C2143 1.400 . S
C2143 C2142 1.400 . S
C2143 C2144 1.398 . S
C2143 C2149 1.491 . S
C2144 H2135 0.950 . S
C2144 C2143 1.398 . S
C2144 C2145 1.391 . S
C2145 H2133 0.950 . S
C2145 C2141 1.393 . S
C2145 C2144 1.391 . S
C2146 H2136 0.950 . S
C2146 C2147 1.386 . S
C2146 C2148 1.391 . S
C2147 C2146 1.386 . S
C2147 C2151 1.393 . S
C2148 H2137 0.950 . S
C2148 C2146 1.391 . S
C2148 C2149 1.400 . S
C2149 C2143 1.491 . S
C2149 C2148 1.400 . S
C2149 C2150 1.398 . S
C2150 H2138 0.950 . S
C2150 C2149 1.398 . S
C2150 C2151 1.391 . S
C2151 H2139 0.950 . S
C2151 C2147 1.393 . S
C2151 C2150 1.391 . S
H2152 C2160 0.950 . S
H2153 C2165 0.950 . S
H2154 C2162 0.950 . S
H2155 C2164 0.950 . S
H2156 C2166 0.950 . S
H2157 C2168 0.950 . S
H2158 C2170 0.950 . S
H2159 C2171 0.950 . S
C2160 H2152 0.950 . S
C2160 C2161 1.386 1_655 S
C2160 C2162 1.391 . S
C2161 C2160 1.386 1_455 S
C2161 C2165 1.393 . S
C2162 H2154 0.950 . S
C2162 C2160 1.391 . S
C2162 C2163 1.400 1_655 S
C2163 C2162 1.400 1_455 S
C2163 C2164 1.398 . S
C2163 C2169 1.491 1_455 S
C2164 H2155 0.950 . S
C2164 C2163 1.398 . S
C2164 C2165 1.391 . S
C2165 H2153 0.950 . S
C2165 C2161 1.393 . S
C2165 C2164 1.391 . S
C2166 H2156 0.950 . S
C2166 C2167 1.386 1_455 S
C2166 C2168 1.391 . S
C2167 C2166 1.386 1_655 S
C2167 C2171 1.393 . S
C2168 H2157 0.950 . S
C2168 C2166 1.391 . S
C2168 C2169 1.400 1_455 S
C2169 C2163 1.491 1_655 S
C2169 C2168 1.400 1_655 S
C2169 C2170 1.398 . S
C2170 H2158 0.950 . S
C2170 C2169 1.398 . S
C2170 C2171 1.391 . S
C2171 H2159 0.950 . S
C2171 C2167 1.393 . S
C2171 C2170 1.391 . S
H2172 C2180 0.950 . S
H2173 C2185 0.950 . S
H2174 C2182 0.950 . S
H2175 C2184 0.950 . S
H2176 C2186 0.950 . S
H2177 C2188 0.950 . S
H2178 C2190 0.950 . S
H2179 C2191 0.950 . S
C2180 H2172 0.950 . S
C2180 C2181 1.386 . S
C2180 C2182 1.391 . S
C2181 C2180 1.386 . S
C2181 C2185 1.393 . S
C2182 H2174 0.950 . S
C2182 C2180 1.391 . S
C2182 C2183 1.400 . S
C2183 C2182 1.400 . S
C2183 C2184 1.398 . S
C2183 C2189 1.491 . S
C2184 H2175 0.950 . S
C2184 C2183 1.398 . S
C2184 C2185 1.391 . S
C2185 H2173 0.950 . S
C2185 C2181 1.393 . S
C2185 C2184 1.391 . S
C2186 H2176 0.950 . S
C2186 C2187 1.386 . S
C2186 C2188 1.391 . S
C2187 C2186 1.386 . S
C2187 C2191 1.393 . S
C2188 H2177 0.950 . S
C2188 C2186 1.391 . S
C2188 C2189 1.400 . S
C2189 C2183 1.491 . S
C2189 C2188 1.400 . S
C2189 C2190 1.398 . S
C2190 H2178 0.950 . S
C2190 C2189 1.398 . S
C2190 C2191 1.391 . S
C2191 H2179 0.950 . S
C2191 C2187 1.393 . S
C2191 C2190 1.391 . S
H2192 C2200 0.950 . S
H2193 C2205 0.950 . S
H2194 C2202 0.950 . S
H2195 C2204 0.950 . S
H2196 C2206 0.950 . S
H2197 C2208 0.950 . S
H2198 C2210 0.950 . S
H2199 C2211 0.950 . S
C2200 H2192 0.950 . S
C2200 C2201 1.386 . S
C2200 C2202 1.391 . S
C2201 C2200 1.386 . S
C2201 C2205 1.393 . S
C2202 H2194 0.950 . S
C2202 C2200 1.391 . S
C2202 C2203 1.400 . S
C2203 C2202 1.400 . S
C2203 C2204 1.398 . S
C2203 C2209 1.491 . S
C2204 H2195 0.950 . S
C2204 C2203 1.398 . S
C2204 C2205 1.391 . S
C2205 H2193 0.950 . S
C2205 C2201 1.393 . S
C2205 C2204 1.391 . S
C2206 H2196 0.950 . S
C2206 C2207 1.386 . S
C2206 C2208 1.391 . S
C2207 C2206 1.386 . S
C2207 C2211 1.393 . S
C2208 H2197 0.950 . S
C2208 C2206 1.391 . S
C2208 C2209 1.400 . S
C2209 C2203 1.491 . S
C2209 C2208 1.400 . S
C2209 C2210 1.398 . S
C2210 H2198 0.950 . S
C2210 C2209 1.398 . S
C2210 C2211 1.391 . S
C2211 H2199 0.950 . S
C2211 C2207 1.393 . S
C2211 C2210 1.391 . S
H2212 C2220 0.950 . S
H2213 C2225 0.950 . S
H2214 C2222 0.950 . S
H2215 C2224 0.950 . S
H2216 C2226 0.950 . S
H2217 C2228 0.950 . S
H2218 C2230 0.950 . S
H2219 C2231 0.950 . S
C2220 H2212 0.950 . S
C2220 C2221 1.386 . S
C2220 C2222 1.391 . S
C2221 C2220 1.386 . S
C2221 C2225 1.393 . S
C2222 H2214 0.950 . S
C2222 C2220 1.391 . S
C2222 C2223 1.400 . S
C2223 C2222 1.400 . S
C2223 C2224 1.398 . S
C2223 C2229 1.491 . S
C2224 H2215 0.950 . S
C2224 C2223 1.398 . S
C2224 C2225 1.391 . S
C2225 H2213 0.950 . S
C2225 C2221 1.393 . S
C2225 C2224 1.391 . S
C2226 H2216 0.950 . S
C2226 C2227 1.386 . S
C2226 C2228 1.391 . S
C2227 C2226 1.386 . S
C2227 C2231 1.393 . S
C2228 H2217 0.950 . S
C2228 C2226 1.391 . S
C2228 C2229 1.400 . S
C2229 C2223 1.491 . S
C2229 C2228 1.400 . S
C2229 C2230 1.398 . S
C2230 H2218 0.950 . S
C2230 C2229 1.398 . S
C2230 C2231 1.391 . S
C2231 H2219 0.950 . S
C2231 C2227 1.393 . S
C2231 C2230 1.391 . S
H2232 C2240 0.950 . S
H2233 C2245 0.950 . S
H2234 C2242 0.950 . S
H2235 C2244 0.950 . S
H2236 C2246 0.950 . S
H2237 C2248 0.950 . S
H2238 C2250 0.950 . S
H2239 C2251 0.950 . S
C2240 H2232 0.950 . S
C2240 C2241 1.386 1_655 S
C2240 C2242 1.391 . S
C2241 C2240 1.386 1_455 S
C2241 C2245 1.393 . S
C2242 H2234 0.950 . S
C2242 C2240 1.391 . S
C2242 C2243 1.400 1_655 S
C2243 C2242 1.400 1_455 S
C2243 C2244 1.398 . S
C2243 C2249 1.489 1_455 S
C2244 H2235 0.950 . S
C2244 C2243 1.398 . S
C2244 C2245 1.391 . S
C2245 H2233 0.950 . S
C2245 C2241 1.393 . S
C2245 C2244 1.391 . S
C2246 H2236 0.950 . S
C2246 C2247 1.386 1_455 S
C2246 C2248 1.391 . S
C2247 C2246 1.386 1_655 S
C2247 C2251 1.393 . S
C2248 H2237 0.950 . S
C2248 C2246 1.391 . S
C2248 C2249 1.385 1_455 S
C2249 C2243 1.489 1_655 S
C2249 C2248 1.385 1_655 S
C2249 C2250 1.415 . S
C2250 H2238 0.950 . S
C2250 C2249 1.415 . S
C2250 C2251 1.391 . S
C2251 H2239 0.950 . S
C2251 C2247 1.393 . S
C2251 C2250 1.391 . S
H2252 C2260 0.950 . S
H2253 C2265 0.950 . S
H2254 C2262 0.950 . S
H2255 C2264 0.950 . S
H2256 C2266 0.950 . S
H2257 C2268 0.950 . S
H2258 C2270 0.950 . S
H2259 C2271 0.950 . S
C2260 H2252 0.950 . S
C2260 C2261 1.386 . S
C2260 C2262 1.391 . S
C2261 C2260 1.386 . S
C2261 C2265 1.393 . S
C2262 H2254 0.950 . S
C2262 C2260 1.391 . S
C2262 C2263 1.400 . S
C2263 C2262 1.400 . S
C2263 C2264 1.398 . S
C2263 C2269 1.491 . S
C2264 H2255 0.950 . S
C2264 C2263 1.398 . S
C2264 C2265 1.391 . S
C2265 H2253 0.950 . S
C2265 C2261 1.393 . S
C2265 C2264 1.391 . S
C2266 H2256 0.950 . S
C2266 C2267 1.386 . S
C2266 C2268 1.391 . S
C2267 C2266 1.386 . S
C2267 C2271 1.393 . S
C2268 H2257 0.950 . S
C2268 C2266 1.391 . S
C2268 C2269 1.400 . S
C2269 C2263 1.491 . S
C2269 C2268 1.400 . S
C2269 C2270 1.398 . S
C2270 H2258 0.950 . S
C2270 C2269 1.398 . S
C2270 C2271 1.391 . S
C2271 H2259 0.950 . S
C2271 C2267 1.393 . S
C2271 C2270 1.391 . S
H2272 C2280 0.950 . S
H2273 C2285 0.950 . S
H2274 C2282 0.950 . S
H2275 C2284 0.950 . S
H2276 C2286 0.950 . S
H2277 C2288 0.950 . S
H2278 C2290 0.950 . S
H2279 C2291 0.950 . S
C2280 H2272 0.950 . S
C2280 C2281 1.386 . S
C2280 C2282 1.391 . S
C2281 C2280 1.386 . S
C2281 C2285 1.393 . S
C2282 H2274 0.950 . S
C2282 C2280 1.391 . S
C2282 C2283 1.400 . S
C2283 C2282 1.400 . S
C2283 C2284 1.398 . S
C2283 C2289 1.491 . S
C2284 H2275 0.950 . S
C2284 C2283 1.398 . S
C2284 C2285 1.391 . S
C2285 H2273 0.950 . S
C2285 C2281 1.393 . S
C2285 C2284 1.391 . S
C2286 H2276 0.950 . S
C2286 C2287 1.386 . S
C2286 C2288 1.391 . S
C2287 C2286 1.386 . S
C2287 C2291 1.393 . S
C2288 H2277 0.950 . S
C2288 C2286 1.391 . S
C2288 C2289 1.400 . S
C2289 C2283 1.491 . S
C2289 C2288 1.400 . S
C2289 C2290 1.398 . S
C2290 H2278 0.950 . S
C2290 C2289 1.398 . S
C2290 C2291 1.391 . S
C2291 H2279 0.950 . S
C2291 C2287 1.393 . S
C2291 C2290 1.391 . S
H2292 C2300 0.950 . S
H2293 C2305 0.950 . S
H2294 C2302 0.950 . S
H2295 C2304 0.950 . S
H2296 C2306 0.950 . S
H2297 C2308 0.950 . S
H2298 C2310 0.950 . S
H2299 C2311 0.950 . S
C2300 H2292 0.950 . S
C2300 C2301 1.386 . S
C2300 C2302 1.391 . S
C2301 C2300 1.386 . S
C2301 C2305 1.393 . S
C2302 H2294 0.950 . S
C2302 C2300 1.391 . S
C2302 C2303 1.400 . S
C2303 C2302 1.400 . S
C2303 C2304 1.398 . S
C2303 C2309 1.491 . S
C2304 H2295 0.950 . S
C2304 C2303 1.398 . S
C2304 C2305 1.391 . S
C2305 H2293 0.950 . S
C2305 C2301 1.393 . S
C2305 C2304 1.391 . S
C2306 H2296 0.950 . S
C2306 C2307 1.386 . S
C2306 C2308 1.391 . S
C2307 C2306 1.386 . S
C2307 C2311 1.393 . S
C2308 H2297 0.950 . S
C2308 C2306 1.391 . S
C2308 C2309 1.400 . S
C2309 C2303 1.491 . S
C2309 C2308 1.400 . S
C2309 C2310 1.398 . S
C2310 H2298 0.950 . S
C2310 C2309 1.398 . S
C2310 C2311 1.391 . S
C2311 H2299 0.950 . S
C2311 C2307 1.393 . S
C2311 C2310 1.391 . S
H2312 C2320 0.950 . S
H2313 C2325 0.950 . S
H2314 C2322 0.950 . S
H2315 C2324 0.950 . S
H2316 C2326 0.950 . S
H2317 C2328 0.950 . S
H2318 C2330 0.950 . S
H2319 C2331 0.950 . S
C2320 H2312 0.950 . S
C2320 C2321 1.386 . S
C2320 C2322 1.391 . S
C2321 C2320 1.386 . S
C2321 C2325 1.393 . S
C2322 H2314 0.950 . S
C2322 C2320 1.391 . S
C2322 C2323 1.400 . S
C2323 C2322 1.400 . S
C2323 C2324 1.398 . S
C2323 C2329 1.491 . S
C2324 H2315 0.950 . S
C2324 C2323 1.398 . S
C2324 C2325 1.391 . S
C2325 H2313 0.950 . S
C2325 C2321 1.393 . S
C2325 C2324 1.391 . S
C2326 H2316 0.950 . S
C2326 C2327 1.386 . S
C2326 C2328 1.391 . S
C2327 C2326 1.386 . S
C2327 C2331 1.393 . S
C2328 H2317 0.950 . S
C2328 C2326 1.391 . S
C2328 C2329 1.400 . S
C2329 C2323 1.491 . S
C2329 C2328 1.400 . S
C2329 C2330 1.398 . S
C2330 H2318 0.950 . S
C2330 C2329 1.398 . S
C2330 C2331 1.391 . S
C2331 H2319 0.950 . S
C2331 C2327 1.393 . S
C2331 C2330 1.391 . S
H2332 C2340 0.950 . S
H2333 C2345 0.950 . S
H2334 C2342 0.950 . S
H2335 C2344 0.950 . S
H2336 C2346 0.950 . S
H2337 C2348 0.950 . S
H2338 C2350 0.950 . S
H2339 C2351 0.950 . S
C2340 H2332 0.950 . S
C2340 C2341 1.386 . S
C2340 C2342 1.391 . S
C2341 C2340 1.386 . S
C2341 C2345 1.393 . S
C2342 H2334 0.950 . S
C2342 C2340 1.391 . S
C2342 C2343 1.400 . S
C2343 C2342 1.400 . S
C2343 C2344 1.398 . S
C2343 C2349 1.491 . S
C2344 H2335 0.950 . S
C2344 C2343 1.398 . S
C2344 C2345 1.391 . S
C2345 H2333 0.950 . S
C2345 C2341 1.393 . S
C2345 C2344 1.391 . S
C2346 H2336 0.950 . S
C2346 C2347 1.386 . S
C2346 C2348 1.391 . S
C2347 C2346 1.386 . S
C2347 C2351 1.393 . S
C2348 H2337 0.950 . S
C2348 C2346 1.391 . S
C2348 C2349 1.400 . S
C2349 C2343 1.491 . S
C2349 C2348 1.400 . S
C2349 C2350 1.398 . S
C2350 H2338 0.950 . S
C2350 C2349 1.398 . S
C2350 C2351 1.391 . S
C2351 H2339 0.950 . S
C2351 C2347 1.393 . S
C2351 C2350 1.391 . S
H2352 C2360 0.950 . S
H2353 C2365 0.950 . S
H2354 C2362 0.950 . S
H2355 C2364 0.950 . S
H2356 C2366 0.950 . S
H2357 C2368 0.950 . S
H2358 C2370 0.950 . S
H2359 C2371 0.950 . S
C2360 H2352 0.950 . S
C2360 C2361 1.386 . S
C2360 C2362 1.391 . S
C2361 C2360 1.386 . S
C2361 C2365 1.393 . S
C2362 H2354 0.950 . S
C2362 C2360 1.391 . S
C2362 C2363 1.400 . S
C2363 C2362 1.400 . S
C2363 C2364 1.398 . S
C2363 C2369 1.491 . S
C2364 H2355 0.950 . S
C2364 C2363 1.398 . S
C2364 C2365 1.391 . S
C2365 H2353 0.950 . S
C2365 C2361 1.393 . S
C2365 C2364 1.391 . S
C2366 H2356 0.950 . S
C2366 C2367 1.386 . S
C2366 C2368 1.391 . S
C2367 C2366 1.386 . S
C2367 C2371 1.393 . S
C2368 H2357 0.950 . S
C2368 C2366 1.391 . S
C2368 C2369 1.400 . S
C2369 C2363 1.491 . S
C2369 C2368 1.400 . S
C2369 C2370 1.398 . S
C2370 H2358 0.950 . S
C2370 C2369 1.398 . S
C2370 C2371 1.391 . S
C2371 H2359 0.950 . S
C2371 C2367 1.393 . S
C2371 C2370 1.391 . S
H2372 C2380 0.950 . S
H2373 C2385 0.950 . S
H2374 C2382 0.950 . S
H2375 C2384 0.950 . S
H2376 C2386 0.950 . S
H2377 C2388 0.950 . S
H2378 C2390 0.950 . S
H2379 C2391 0.950 . S
C2380 H2372 0.950 . S
C2380 C2381 1.386 . S
C2380 C2382 1.391 . S
C2381 C2380 1.386 . S
C2381 C2385 1.393 . S
C2382 H2374 0.950 . S
C2382 C2380 1.391 . S
C2382 C2383 1.400 . S
C2383 C2382 1.400 . S
C2383 C2384 1.398 . S
C2383 C2389 1.491 . S
C2384 H2375 0.950 . S
C2384 C2383 1.398 . S
C2384 C2385 1.391 . S
C2385 H2373 0.950 . S
C2385 C2381 1.393 . S
C2385 C2384 1.391 . S
C2386 H2376 0.950 . S
C2386 C2387 1.386 . S
C2386 C2388 1.391 . S
C2387 C2386 1.386 . S
C2387 C2391 1.393 . S
C2388 H2377 0.950 . S
C2388 C2386 1.391 . S
C2388 C2389 1.400 . S
C2389 C2383 1.491 . S
C2389 C2388 1.400 . S
C2389 C2390 1.398 . S
C2390 H2378 0.950 . S
C2390 C2389 1.398 . S
C2390 C2391 1.391 . S
C2391 H2379 0.950 . S
C2391 C2387 1.393 . S
C2391 C2390 1.391 . S
H2392 C2400 0.950 . S
H2393 C2405 0.950 . S
H2394 C2402 0.950 . S
H2395 C2404 0.950 . S
H2396 C2406 0.950 . S
H2397 C2408 0.950 . S
H2398 C2410 0.950 . S
H2399 C2411 0.950 . S
C2400 H2392 0.950 . S
C2400 C2401 1.386 . S
C2400 C2402 1.391 . S
C2401 C2400 1.386 . S
C2401 C2405 1.393 . S
C2402 H2394 0.950 . S
C2402 C2400 1.391 . S
C2402 C2403 1.400 . S
C2403 C2402 1.400 . S
C2403 C2404 1.398 . S
C2403 C2409 1.491 . S
C2404 H2395 0.950 . S
C2404 C2403 1.398 . S
C2404 C2405 1.391 . S
C2405 H2393 0.950 . S
C2405 C2401 1.393 . S
C2405 C2404 1.391 . S
C2406 H2396 0.950 . S
C2406 C2407 1.386 . S
C2406 C2408 1.391 . S
C2407 C2406 1.386 . S
C2407 C2411 1.393 . S
C2408 H2397 0.950 . S
C2408 C2406 1.391 . S
C2408 C2409 1.400 . S
C2409 C2403 1.491 . S
C2409 C2408 1.400 . S
C2409 C2410 1.398 . S
C2410 H2398 0.950 . S
C2410 C2409 1.398 . S
C2410 C2411 1.391 . S
C2411 H2399 0.950 . S
C2411 C2407 1.393 . S
C2411 C2410 1.391 . S
H2412 C2420 0.950 . S
H2413 C2425 0.950 . S
H2414 C2422 0.950 . S
H2415 C2424 0.950 . S
H2416 C2426 0.950 . S
H2417 C2428 0.950 . S
H2418 C2430 0.950 . S
H2419 C2431 0.950 . S
C2420 H2412 0.950 . S
C2420 C2421 1.386 . S
C2420 C2422 1.391 . S
C2421 C2420 1.386 . S
C2421 C2425 1.393 . S
C2422 H2414 0.950 . S
C2422 C2420 1.391 . S
C2422 C2423 1.400 . S
C2423 C2422 1.400 . S
C2423 C2424 1.398 . S
C2423 C2429 1.491 . S
C2424 H2415 0.950 . S
C2424 C2423 1.398 . S
C2424 C2425 1.391 . S
C2425 H2413 0.950 . S
C2425 C2421 1.393 . S
C2425 C2424 1.391 . S
C2426 H2416 0.950 . S
C2426 C2427 1.386 . S
C2426 C2428 1.391 . S
C2427 C2426 1.386 . S
C2427 C2431 1.393 . S
C2428 H2417 0.950 . S
C2428 C2426 1.391 . S
C2428 C2429 1.400 . S
C2429 C2423 1.491 . S
C2429 C2428 1.400 . S
C2429 C2430 1.398 . S
C2430 H2418 0.950 . S
C2430 C2429 1.398 . S
C2430 C2431 1.391 . S
C2431 H2419 0.950 . S
C2431 C2427 1.393 . S
C2431 C2430 1.391 . S
H2432 C2440 0.950 . S
H2433 C2445 0.950 . S
H2434 C2442 0.950 . S
H2435 C2444 0.950 . S
H2436 C2446 0.950 . S
H2437 C2448 0.950 . S
H2438 C2450 0.950 . S
H2439 C2451 0.950 . S
C2440 H2432 0.950 . S
C2440 C2441 1.386 . S
C2440 C2442 1.391 . S
C2441 C2440 1.386 . S
C2441 C2445 1.393 . S
C2442 H2434 0.950 . S
C2442 C2440 1.391 . S
C2442 C2443 1.400 . S
C2443 C2442 1.400 . S
C2443 C2444 1.398 . S
C2443 C2449 1.491 . S
C2444 H2435 0.950 . S
C2444 C2443 1.398 . S
C2444 C2445 1.391 . S
C2445 H2433 0.950 . S
C2445 C2441 1.393 . S
C2445 C2444 1.391 . S
C2446 H2436 0.950 . S
C2446 C2447 1.386 . S
C2446 C2448 1.391 . S
C2447 C2446 1.386 . S
C2447 C2451 1.393 . S
C2448 H2437 0.950 . S
C2448 C2446 1.391 . S
C2448 C2449 1.400 . S
C2449 C2443 1.491 . S
C2449 C2448 1.400 . S
C2449 C2450 1.398 . S
C2450 H2438 0.950 . S
C2450 C2449 1.398 . S
C2450 C2451 1.391 . S
C2451 H2439 0.950 . S
C2451 C2447 1.393 . S
C2451 C2450 1.391 . S
H2452 C2460 0.950 . S
H2453 C2465 0.950 . S
H2454 C2462 0.950 . S
H2455 C2464 0.950 . S
H2456 C2466 0.950 . S
H2457 C2468 0.950 . S
H2458 C2470 0.950 . S
H2459 C2471 0.950 . S
C2460 H2452 0.950 . S
C2460 C2461 1.386 . S
C2460 C2462 1.391 . S
C2461 C2460 1.386 . S
C2461 C2465 1.393 . S
C2462 H2454 0.950 . S
C2462 C2460 1.391 . S
C2462 C2463 1.400 . S
C2463 C2462 1.400 . S
C2463 C2464 1.398 . S
C2463 C2469 1.491 . S
C2464 H2455 0.950 . S
C2464 C2463 1.398 . S
C2464 C2465 1.391 . S
C2465 H2453 0.950 . S
C2465 C2461 1.393 . S
C2465 C2464 1.391 . S
C2466 H2456 0.950 . S
C2466 C2467 1.386 . S
C2466 C2468 1.391 . S
C2467 C2466 1.386 . S
C2467 C2471 1.393 . S
C2468 H2457 0.950 . S
C2468 C2466 1.391 . S
C2468 C2469 1.400 . S
C2469 C2463 1.491 . S
C2469 C2468 1.400 . S
C2469 C2470 1.398 . S
C2470 H2458 0.950 . S
C2470 C2469 1.398 . S
C2470 C2471 1.391 . S
C2471 H2459 0.950 . S
C2471 C2467 1.393 . S
C2471 C2470 1.391 . S
H2472 C2480 0.950 . S
H2473 C2485 0.950 . S
H2474 C2482 0.950 . S
H2475 C2484 0.950 . S
H2476 C2486 0.950 . S
H2477 C2488 0.950 . S
H2478 C2490 0.950 . S
H2479 C2491 0.950 . S
C2480 H2472 0.950 . S
C2480 C2481 1.386 . S
C2480 C2482 1.391 . S
C2481 C2480 1.386 . S
C2481 C2485 1.393 . S
C2482 H2474 0.950 . S
C2482 C2480 1.391 . S
C2482 C2483 1.400 . S
C2483 C2482 1.400 . S
C2483 C2484 1.398 . S
C2483 C2489 1.491 . S
C2484 H2475 0.950 . S
C2484 C2483 1.398 . S
C2484 C2485 1.391 . S
C2485 H2473 0.950 . S
C2485 C2481 1.393 . S
C2485 C2484 1.391 . S
C2486 H2476 0.950 . S
C2486 C2487 1.386 . S
C2486 C2488 1.391 . S
C2487 C2486 1.386 . S
C2487 C2491 1.393 . S
C2488 H2477 0.950 . S
C2488 C2486 1.391 . S
C2488 C2489 1.400 . S
C2489 C2483 1.491 . S
C2489 C2488 1.400 . S
C2489 C2490 1.398 . S
C2490 H2478 0.950 . S
C2490 C2489 1.398 . S
C2490 C2491 1.391 . S
C2491 H2479 0.950 . S
C2491 C2487 1.393 . S
C2491 C2490 1.391 . S
H2492 C2500 0.950 . S
H2493 C2505 0.950 . S
H2494 C2502 0.950 . S
H2495 C2504 0.950 . S
H2496 C2506 0.950 . S
H2497 C2508 0.950 . S
H2498 C2510 0.950 . S
H2499 C2511 0.950 . S
C2500 H2492 0.950 . S
C2500 C2501 1.386 . S
C2500 C2502 1.391 . S
C2501 C2500 1.386 . S
C2501 C2505 1.393 1_554 S
C2502 H2494 0.950 . S
C2502 C2500 1.391 . S
C2502 C2503 1.409 . S
C2503 C2502 1.409 . S
C2503 C2504 1.391 1_554 S
C2503 C2509 1.489 1_554 S
C2504 H2495 0.950 . S
C2504 C2503 1.391 1_556 S
C2504 C2505 1.391 . S
C2505 H2493 0.950 . S
C2505 C2501 1.393 1_556 S
C2505 C2504 1.391 . S
C2506 H2496 0.950 . S
C2506 C2507 1.386 . S
C2506 C2508 1.391 . S
C2507 C2506 1.386 . S
C2507 C2511 1.393 1_556 S
C2508 H2497 0.950 . S
C2508 C2506 1.391 . S
C2508 C2509 1.400 . S
C2509 C2503 1.489 1_556 S
C2509 C2508 1.400 . S
C2509 C2510 1.398 1_556 S
C2510 H2498 0.950 . S
C2510 C2509 1.398 1_554 S
C2510 C2511 1.391 . S
C2511 H2499 0.950 . S
C2511 C2507 1.393 1_554 S
C2511 C2510 1.391 . S
H2512 C2520 0.950 . S
H2513 C2525 0.950 . S
H2514 C2522 0.950 . S
H2515 C2524 0.950 . S
H2516 C2526 0.950 . S
H2517 C2528 0.950 . S
H2518 C2530 0.950 . S
H2519 C2531 0.950 . S
C2520 H2512 0.950 . S
C2520 C2521 1.386 . S
C2520 C2522 1.391 . S
C2521 C2520 1.386 . S
C2521 C2525 1.393 . S
C2522 H2514 0.950 . S
C2522 C2520 1.391 . S
C2522 C2523 1.400 . S
C2523 C2522 1.400 . S
C2523 C2524 1.398 . S
C2523 C2529 1.491 . S
C2524 H2515 0.950 . S
C2524 C2523 1.398 . S
C2524 C2525 1.391 . S
C2525 H2513 0.950 . S
C2525 C2521 1.393 . S
C2525 C2524 1.391 . S
C2526 H2516 0.950 . S
C2526 C2527 1.386 . S
C2526 C2528 1.391 . S
C2527 C2526 1.386 . S
C2527 C2531 1.393 . S
C2528 H2517 0.950 . S
C2528 C2526 1.391 . S
C2528 C2529 1.400 . S
C2529 C2523 1.491 . S
C2529 C2528 1.400 . S
C2529 C2530 1.398 . S
C2530 H2518 0.950 . S
C2530 C2529 1.398 . S
C2530 C2531 1.391 . S
C2531 H2519 0.950 . S
C2531 C2527 1.393 . S
C2531 C2530 1.391 . S
H2532 C2540 0.950 . S
H2533 C2545 0.950 . S
H2534 C2542 0.955 . S
H2535 C2544 0.950 . S
H2536 C2546 0.950 . S
H2537 C2548 0.950 . S
H2538 C2550 0.950 . S
H2539 C2551 0.950 . S
C2540 H2532 0.950 . S
C2540 C2541 1.386 1_556 S
C2540 C2542 1.395 . S
C2541 C2540 1.386 1_554 S
C2541 C2545 1.393 . S
C2542 H2534 0.955 . S
C2542 C2540 1.395 . S
C2542 C2543 1.392 1_556 S
C2543 C2542 1.392 1_554 S
C2543 C2544 1.398 . S
C2543 C2549 1.491 . S
C2544 H2535 0.950 . S
C2544 C2543 1.398 . S
C2544 C2545 1.391 . S
C2545 H2533 0.950 . S
C2545 C2541 1.393 . S
C2545 C2544 1.391 . S
C2546 H2536 0.950 . S
C2546 C2547 1.386 . S
C2546 C2548 1.391 . S
C2547 C2546 1.386 . S
C2547 C2551 1.393 . S
C2548 H2537 0.950 . S
C2548 C2546 1.391 . S
C2548 C2549 1.400 . S
C2549 C2543 1.491 . S
C2549 C2548 1.400 . S
C2549 C2550 1.398 . S
C2550 H2538 0.950 . S
C2550 C2549 1.398 . S
C2550 C2551 1.391 . S
C2551 H2539 0.950 . S
C2551 C2547 1.393 . S
C2551 C2550 1.391 . S
H2552 C2560 0.950 . S
H2553 C2565 0.950 . S
H2554 C2562 0.950 . S
H2555 C2564 0.950 . S
H2556 C2566 0.950 . S
H2557 C2568 0.950 . S
H2558 C2570 0.950 . S
H2559 C2571 0.950 . S
C2560 H2552 0.950 . S
C2560 C2561 1.386 . S
C2560 C2562 1.391 . S
C2561 C2560 1.386 . S
C2561 C2565 1.393 . S
C2562 H2554 0.950 . S
C2562 C2560 1.391 . S
C2562 C2563 1.400 . S
C2563 C2562 1.400 . S
C2563 C2564 1.398 . S
C2563 C2569 1.491 . S
C2564 H2555 0.950 . S
C2564 C2563 1.398 . S
C2564 C2565 1.391 . S
C2565 H2553 0.950 . S
C2565 C2561 1.393 . S
C2565 C2564 1.391 . S
C2566 H2556 0.950 . S
C2566 C2567 1.386 . S
C2566 C2568 1.391 . S
C2567 C2566 1.386 . S
C2567 C2571 1.393 . S
C2568 H2557 0.950 . S
C2568 C2566 1.391 . S
C2568 C2569 1.400 . S
C2569 C2563 1.491 . S
C2569 C2568 1.400 . S
C2569 C2570 1.398 . S
C2570 H2558 0.950 . S
C2570 C2569 1.398 . S
C2570 C2571 1.391 . S
C2571 H2559 0.950 . S
C2571 C2567 1.393 . S
C2571 C2570 1.391 . S
H2572 C2580 0.950 . S
H2573 C2585 0.950 . S
H2574 C2582 0.950 . S
H2575 C2584 0.950 . S
H2576 C2586 0.950 . S
H2577 C2588 0.950 . S
H2578 C2590 0.950 . S
H2579 C2591 0.950 . S
C2580 H2572 0.950 . S
C2580 C2581 1.386 . S
C2580 C2582 1.391 . S
C2581 C2580 1.386 . S
C2581 C2585 1.393 . S
C2582 H2574 0.950 . S
C2582 C2580 1.391 . S
C2582 C2583 1.400 . S
C2583 C2582 1.400 . S
C2583 C2584 1.398 . S
C2583 C2589 1.491 . S
C2584 H2575 0.950 . S
C2584 C2583 1.398 . S
C2584 C2585 1.391 . S
C2585 H2573 0.950 . S
C2585 C2581 1.393 . S
C2585 C2584 1.391 . S
C2586 H2576 0.950 . S
C2586 C2587 1.386 . S
C2586 C2588 1.391 . S
C2587 C2586 1.386 . S
C2587 C2591 1.393 . S
C2588 H2577 0.950 . S
C2588 C2586 1.391 . S
C2588 C2589 1.400 . S
C2589 C2583 1.491 . S
C2589 C2588 1.400 . S
C2589 C2590 1.398 . S
C2590 H2578 0.950 . S
C2590 C2589 1.398 . S
C2590 C2591 1.391 . S
C2591 H2579 0.950 . S
C2591 C2587 1.393 . S
C2591 C2590 1.391 . S
C687 C352 1.269 . S
C681 C5 1.378 . S
C701 C23 1.219 . S
C707 C372 1.182 . S
C721 C39 1.297 . S
C727 C394 1.218 . S
C747 C413 1.323 . S
C741 C42 1.357 . S
C761 C19 1.373 . S
C767 C434 1.356 . S
C787 C457 1.301 . S
C781 C28 1.374 . S
C807 C480 1.160 . S
C801 C53 1.186 . S
C821 C9 1.324 . S
C827 C498 1.290 . S
C841 C65 1.354 . S
C847 C354 1.328 . S
C861 C75 1.372 . S
C867 C374 1.345 . S
C887 C396 1.234 . S
C881 C93 1.262 . S
C907 C415 1.243 . S
C901 C109 1.340 . S
C921 C56 1.412 . S
C927 C436 1.284 . S
C947 C459 1.106 . S
C941 C81 1.128 . S
C967 C476 1.358 . S
C961 C84 1.376 . S
C987 C500 1.295 . S
C981 C103 1.316 . S
C1007 C350 1.294 . S
C1001 C107 1.311 . S
C1027 C522 1.176 . S
C1021 C121 1.210 . S
C1041 C131 1.390 . S
C1047 C539 1.355 . S
C1067 C562 1.315 . S
C1061 C140 1.397 . S
C1081 C61 1.389 . S
C1087 C496 1.294 . S
C1107 C392 1.314 . S
C1101 C70 1.346 . S
C1121 C137 1.168 . S
C1127 C585 1.132 . S
C1147 C601 1.189 . S
C1141 C165 1.268 . S
C1161 C173 1.322 . S
C1167 C349 1.209 . S
C1187 C602 1.248 . S
C1181 C182 1.265 . S
C1201 C207 1.350 . S
C1207 C391 1.241 . S
C1221 C219 1.215 . S
C1227 C582 1.168 . S
C1247 C435 1.205 . S
C1241 C187 1.237 . S
C1267 C538 1.243 . S
C1261 C205 1.355 . S
C1287 C479 1.254 . S
C1281 C221 1.279 . S
C1307 C623 1.335 . S
C1301 C168 1.354 . S
C1327 C353 1.365 . S
C1321 C224 1.387 1_545 S
C1341 C243 1.207 . S
C1347 C606 1.183 . S
C1367 C395 1.278 . S
C1361 C252 1.299 . S
C1381 C277 1.257 . S
C1387 C580 1.181 . S
C1401 C233 1.386 1_565 S
C1407 C433 1.254 . S
C1421 C249 1.254 . S
C1427 C542 1.235 . S
C1447 C477 1.228 . S
C1441 C261 1.251 . S
C1461 C271 1.263 . S
C1467 C627 1.241 . S
C1481 C266 1.244 . S
C1487 C351 1.220 . S
C1501 C280 1.309 . S
C1507 C521 1.281 . S
C1521 C299 1.251 . S
C1527 C456 1.200 . S
C1541 C317 1.332 . S
C1547 C559 1.255 . S
C1567 C625 1.228 . S
C1561 C229 1.331 . S
C1587 C393 1.182 . S
C1581 C247 1.213 . S
C1607 C416 1.246 . S
C1601 C305 1.262 . S
C1627 C373 1.235 . S
C1621 C333 1.337 . S
C1641 C33 1.378 . S
C1647 C646 1.257 . S
C1667 C603 1.198 . S
C1661 C51 1.225 . S
C1687 C667 1.222 . S
C1681 C11 1.296 . S
C1701 C14 1.357 . S
C1707 C581 1.330 . S
C1721 C47 1.374 . S
C1727 C518 1.335 . S
C1747 C541 1.304 . S
C1741 C0 1.374 . S
C1767 C564 1.139 . S
C1761 C25 1.181 . S
C1787 C624 1.288 . S
C1781 C37 1.325 . S
C1807 C648 1.317 . S
C1801 C163 1.359 . S
C1821 C117 1.373 . S
C1827 C605 1.338 . S
C1841 C135 1.265 . S
C1847 C669 1.224 . S
C1867 C583 1.227 . S
C1861 C151 1.341 . S
C1887 C520 1.320 . S
C1881 C154 1.402 . S
C1901 C123 1.121 . S
C1907 C543 1.082 . S
C1927 C560 1.363 . S
C1921 C126 1.386 . S
C1941 C145 1.315 . S
C1947 C626 1.284 . S
C1967 C644 1.275 . S
C1961 C149 1.302 . S
C1987 C438 1.176 . S
C1981 C79 1.200 . S
C2007 C455 1.368 . S
C2001 C89 1.388 . S
C2021 C98 1.409 . S
C2027 C478 1.283 . S
C2047 C622 1.261 . S
C2041 C159 1.391 . S
C2061 C112 1.335 . S
C2067 C665 1.329 . S
C2087 C417 1.141 . S
C2081 C95 1.163 . S
C2107 C370 1.158 . S
C2101 C67 1.278 . S
C2121 C201 1.321 . S
C2127 C643 1.207 . S
C2147 C371 1.248 . S
C2141 C210 1.265 . S
C2167 C664 1.232 . S
C2161 C179 1.354 . S
C2181 C191 1.214 . S
C2187 C414 1.168 . S
C2201 C215 1.237 . S
C2207 C519 1.192 . S
C2221 C177 1.355 . S
C2227 C454 1.246 . S
C2241 C193 1.280 . S
C2247 C563 1.263 . S
C2261 C196 1.347 . S
C2267 C497 1.314 . S
C2287 C647 1.367 . S
C2281 C322 1.387 . S
C2301 C285 1.206 . S
C2307 C375 1.166 . S
C2327 C668 1.277 . S
C2321 C294 1.300 . S
C2341 C319 1.254 . S
C2347 C412 1.191 . S
C2361 C331 1.389 . S
C2367 C517 1.292 . S
C2387 C458 1.234 . S
C2381 C291 1.254 . S
C2401 C303 1.251 . S
C2407 C561 1.228 . S
C2427 C501 1.213 . S
C2421 C313 1.264 . S
C2447 C645 1.200 . S
C2441 C308 1.251 . S
C2467 C437 1.289 . S
C2461 C238 1.312 . S
C2481 C257 1.253 . S
C2487 C540 1.222 . S
C2507 C475 1.256 . S
C2501 C275 1.332 . S
C2527 C499 1.216 . S
C2521 C327 1.332 . S
C2541 C289 1.211 . S
C2547 C666 1.188 . S
C2567 C584 1.235 . S
C2561 C263 1.263 . S
C2587 C604 1.234 . S
C2581 C235 1.342 . S
