# Generated by pormake.
# Topology pth, (4,4)-cn, num edge types: 1
# Building blocks:
#     Node 0, Type 0, BuildingBlock: KUFVIS_clean_sbu_0, # of connection points: 4
#     Node 1, Type 0, BuildingBlock: KUFVIS_clean_sbu_0, # of connection points: 4
#     Node 2, Type 0, BuildingBlock: KUFVIS_clean_sbu_0, # of connection points: 4
#     Node 3, Type 1, BuildingBlock: MUDLON_clean_sbu_0, # of connection points: 4
#     Node 4, Type 1, BuildingBlock: MUDLON_clean_sbu_0, # of connection points: 4
#     Node 5, Type 1, BuildingBlock: MUDLON_clean_sbu_0, # of connection points: 4
#     Edge 6, Type (0, 1), BuildingBlock: XIVTED_clean_linker_0, # of connection points: 2
#     Edge 7, Type (0, 1), BuildingBlock: XIVTED_clean_linker_0, # of connection points: 2
#     Edge 8, Type (0, 1), BuildingBlock: XIVTED_clean_linker_0, # of connection points: 2
#     Edge 9, Type (0, 1), BuildingBlock: XIVTED_clean_linker_0, # of connection points: 2
#     Edge 10, Type (0, 1), BuildingBlock: XIVTED_clean_linker_0, # of connection points: 2
#     Edge 11, Type (0, 1), BuildingBlock: XIVTED_clean_linker_0, # of connection points: 2
#     Edge 12, Type (0, 1), BuildingBlock: XIVTED_clean_linker_0, # of connection points: 2
#     Edge 13, Type (0, 1), BuildingBlock: XIVTED_clean_linker_0, # of connection points: 2
#     Edge 14, Type (0, 1), BuildingBlock: XIVTED_clean_linker_0, # of connection points: 2
#     Edge 15, Type (0, 1), BuildingBlock: XIVTED_clean_linker_0, # of connection points: 2
#     Edge 16, Type (0, 1), BuildingBlock: XIVTED_clean_linker_0, # of connection points: 2
#     Edge 17, Type (0, 1), BuildingBlock: XIVTED_clean_linker_0, # of connection points: 2
# Relax obj value: 0.022
# Max RMSD: 0.096
# Mean RMSD: 0.069
data_MOF--net-pth--node1-KUFVIS_clean_sbu_0--node2-MUDLON_clean_sbu_0--edge1-XIVTED_clean_linker_0
_symmetry_space_group_name_H-M    P1
_symmetry_Int_Tables_number       1
_symmetry_cell_setting            triclinic
loop_
_symmetry_equiv_pos_as_xyz
'x, y, z'
_cell_length_a     22.383328
_cell_length_b     22.357311
_cell_length_c     61.258125
_cell_angle_alpha  90.380682
_cell_angle_beta   92.036464
_cell_angle_gamma 119.77323
loop_
_atom_site_label
_atom_site_type_symbol
_atom_site_fract_x
_atom_site_fract_y
_atom_site_fract_z
_atom_type_partial_charge
Mn0 Mn 0.09938 0.16533 0.08275 0.0
Mn1 Mn 0.02015 0.22942 0.05024 0.0
C2 C 0.03123 0.10132 0.05274 0.0
C3 C 0.10301 0.10615 0.11354 0.0
C4 C 0.17234 0.2748 0.04858 0.0
O5 O 0.10435 0.24312 0.1015 0.0
O6 O 0.04534 0.27765 0.0794 0.0
C7 C 0.89363 0.18172 0.07495 0.0
N8 N 0.92418 0.18415 0.05588 0.0
C9 C 0.81407 0.11652 0.03685 0.0
C10 C 0.78145 0.11385 0.05624 0.0
C11 C 0.82144 0.14643 0.07538 0.0
C12 C 0.88621 0.15265 0.0374 0.0
H13 H 0.9241 0.20638 0.08974 0.0
C14 C 0.07699 0.28043 0.09756 0.0
O15 O 0.15891 0.15045 0.10444 0.0
O16 O 0.04508 0.09698 0.10493 0.0
N17 N 0.99117 0.18738 0.02162 0.0
C18 C 0.03044 0.19187 1.00454 0.0
C19 C 0.99827 0.16106 0.98423 0.0
C20 C 0.9261 0.12618 0.98166 0.0
C21 C 0.88674 0.12266 0.99941 0.0
C22 C 0.9217 0.15511 0.01918 0.0
H23 H 0.0858 0.21784 0.00646 0.0
O24 O 0.07758 0.08876 0.06134 0.0
O25 O 0.02528 0.15041 0.06209 0.0
O26 O 0.1729 0.23494 0.06326 0.0
O27 O 0.11848 0.27779 0.04271 0.0
C28 C 0.81414 0.087 0.99838 0.0
C29 C 0.77784 0.08377 0.0171 0.0
H30 H 0.72577 0.08645 0.05666 0.0
H31 H 0.79665 0.14425 0.09044 0.0
H32 H 0.02903 0.16373 0.97064 0.0
H33 H 0.90145 0.1017 0.96605 0.0
H34 H 0.78572 0.06105 0.98335 0.0
H35 H 0.72204 0.05543 0.01619 0.0
Mn36 Mn 0.03009 0.12374 0.41694 0.0
Mn37 Mn 0.12296 0.27395 0.44599 0.0
C38 C 0.10547 0.1319 0.44521 0.0
C39 C 1.00996 0.048 0.3876 0.0
C40 C 0.97163 0.17438 0.45243 0.0
O41 O 0.02366 0.19405 0.39735 0.0
O42 O 0.09246 0.29151 0.41708 0.0
C43 C 0.24353 0.34138 0.41821 0.0
N44 N 0.21702 0.31894 0.43812 0.0
C45 C 0.3303 0.36245 0.45496 0.0
C46 C 0.35884 0.38646 0.43467 0.0
C47 C 0.31524 0.37567 0.41621 0.0
C48 C 0.25848 0.32876 0.45597 0.0
H49 H 0.21021 0.33316 0.40397 0.0
C50 C 0.05526 0.25966 0.39994 0.0
O51 O 0.96024 0.04539 0.39849 0.0
O52 O 0.07213 0.09653 0.39321 0.0
N53 N 0.15711 0.26581 0.47427 0.0
C54 C 0.1213 0.23633 0.4924 0.0
C55 C 0.15729 0.24089 0.51216 0.0
C56 C 0.22964 0.27641 0.51316 0.0
C57 C 0.26539 0.30723 0.49439 0.0
C58 C 0.22676 0.30129 0.47518 0.0
H59 H 0.0657 0.20913 0.49177 0.0
O60 O 0.05506 0.0723 0.43847 0.0
O61 O 0.11134 0.18535 0.43503 0.0
O62 O 0.96558 0.12933 0.43841 0.0
O63 O 0.02749 0.23141 0.45601 0.0
C64 C 0.33782 0.34221 0.49386 0.0
C65 C 0.37023 0.36962 0.47415 0.0
H66 H 0.41411 0.41273 0.43304 0.0
H67 H 0.33687 0.39375 0.40047 0.0
H68 H 0.12931 0.21699 0.52657 0.0
H69 H 0.25721 0.27925 0.52838 0.0
H70 H 0.36903 0.34732 0.50844 0.0
H71 H 0.4259 0.39549 0.47387 0.0
Mn72 Mn 0.07983 0.13104 0.75241 0.0
Mn73 Mn 0.02696 0.22398 0.78174 0.0
C74 C 0.14652 0.19892 0.78207 0.0
C75 C 0.13527 0.11371 0.72353 0.0
C76 C 0.96829 0.07015 0.78626 0.0
O77 O 1.00783 0.1338 0.73187 0.0
O78 O 0.97817 0.19805 0.75245 0.0
C79 C 0.08365 0.3478 0.75453 0.0
N80 N 0.07874 0.31884 0.77435 0.0
C81 C 0.15218 0.42988 0.79178 0.0
C82 C 0.15761 0.46092 0.77158 0.0
C83 C 0.12337 0.41966 0.75286 0.0
C84 C 0.11184 0.35803 0.79243 0.0
H85 H 0.05749 0.31633 0.74009 0.0
C86 C 0.97373 0.1649 0.73475 0.0
O87 O 0.08524 0.06269 0.73299 0.0
O88 O 0.15253 0.17552 0.73049 0.0
N89 N 0.06991 0.2542 0.81034 0.0
C90 C 0.06219 0.21609 0.82838 0.0
C91 C 0.09415 0.24953 0.84842 0.0
C92 C 0.13321 0.32179 0.84977 0.0
C93 C 0.13987 0.36 0.83105 0.0
C94 C 0.1064 0.32384 0.81156 0.0
H95 H 0.03261 0.16058 0.82745 0.0
O96 O 0.15274 0.14724 0.77523 0.0
O97 O 0.10161 0.20969 0.77141 0.0
O98 O 1.00498 0.06414 0.77198 0.0
O99 O 0.97173 0.12743 0.79118 0.0
C100 C 0.17965 0.43244 0.83086 0.0
C101 C 0.186 0.46734 0.81122 0.0
H102 H 0.18833 0.51632 0.77021 0.0
H103 H 0.12759 0.44321 0.73719 0.0
H104 H 0.08894 0.21964 0.86278 0.0
H105 H 0.15841 0.34737 0.8652 0.0
H106 H 0.20645 0.46174 0.84566 0.0
H107 H 0.21752 0.52297 0.81122 0.0
Mg108 Mg 0.04873 0.6604 0.25115 0.0
C109 C 0.04697 0.55457 0.2781 0.0
O110 O 0.99213 0.52503 0.26477 0.0
C111 C 0.06431 0.76631 0.22407 0.0
O112 O 1.00006 0.71581 0.2234 0.0
C113 C 0.0704 0.58001 0.21925 0.0
O114 O 0.12816 0.61553 0.23101 0.0
O115 O 0.01911 0.58713 0.22374 0.0
O116 O 0.08817 0.61908 0.27653 0.0
O117 O 0.97484 0.68193 0.26657 0.0
C118 C 0.96698 0.67674 0.28706 0.0
O119 O 0.98802 0.64014 0.29818 0.0
O120 O 0.10894 0.75908 0.23552 0.0
Mg121 Mg 0.53531 0.12526 0.58755 0.0
C122 C 0.44946 0.12784 0.55229 0.0
O123 O 0.44879 0.06889 0.5509 0.0
C124 C 0.64194 0.13986 0.61629 0.0
O125 O 0.60782 0.07689 0.60784 0.0
C126 C 0.39384 0.03636 0.60743 0.0
O127 O 0.36827 0.03489 0.58772 0.0
O128 O 0.45819 0.05885 0.61028 0.0
O129 O 0.48721 0.17131 0.56732 0.0
O130 O 0.58803 0.09545 0.56436 0.0
C131 C 0.57952 0.04716 0.55133 0.0
O132 O 0.5199 0.98983 0.54952 0.0
O133 O 0.62224 0.18254 0.61081 0.0
Mg134 Mg 0.60582 0.63382 0.91814 0.0
C135 C 0.48753 0.52307 0.89548 0.0
O136 O 0.52342 0.49696 0.9044 0.0
C137 C 0.70959 0.75462 0.94094 0.0
O138 O 0.73791 0.71921 0.93397 0.0
C139 C 0.58276 0.56869 0.96276 0.0
O140 O 0.61144 0.63309 0.96975 0.0
O141 O 0.58486 0.55593 0.9426 0.0
O142 O 0.5091 0.58723 0.89846 0.0
O143 O 0.68614 0.66068 0.89475 0.0
C144 C 0.67327 0.65992 0.87432 0.0
O145 O 0.60908 0.62551 0.86672 0.0
O146 O 0.64548 0.73106 0.93667 0.0
H147 H 0.15369 0.31849 0.1363 0.0
H148 H 0.97311 0.51911 0.18531 0.0
H149 H 1.00123 0.34611 0.09955 0.0
H150 H 0.16098 0.53491 0.21267 0.0
H151 H 0.9743 0.44603 0.15533 0.0
H152 H 0.14961 0.38938 0.16606 0.0
C153 C 0.11957 0.33964 0.13442 0.0
C154 C 0.078 0.32643 0.11531 0.0
C155 C 0.01515 0.4656 0.16794 0.0
C156 C 0.07248 0.40714 0.1495 0.0
C157 C 0.01428 0.50694 0.18507 0.0
C158 C 0.06714 0.53334 0.20144 0.0
C159 C 0.06878 0.45005 0.1674 0.0
C160 C 0.11938 0.51613 0.20033 0.0
C161 C 0.11724 0.38014 0.15144 0.0
C162 C 0.03463 0.35525 0.11389 0.0
N163 N 0.11879 0.47557 0.18366 0.0
N164 N 0.03276 0.39394 0.13079 0.0
H165 H 0.96485 0.24991 0.48681 0.0
H166 H 0.57908 0.97002 0.51577 0.0
H167 H 0.84284 0.05919 0.44973 0.0
H168 H 0.71049 0.15579 0.55406 0.0
H169 H 0.67356 1.00077 0.49102 0.0
H170 H 0.86949 0.21668 0.51084 0.0
C171 C 0.9179 0.20128 0.48358 0.0
C172 C 0.91218 0.15739 0.46617 0.0
C173 C 0.68154 0.03456 0.5049 0.0
C174 C 0.80248 0.11852 0.49388 0.0
C175 C 0.62775 0.01685 0.51907 0.0
C176 C 0.63658 0.06046 0.53697 0.0
C177 C 0.7444 0.09627 0.50869 0.0
C178 C 0.70085 0.12067 0.54041 0.0
C179 C 0.86343 0.1821 0.49741 0.0
C180 C 0.84983 0.09478 0.46294 0.0
N181 N 0.75192 0.13678 0.5264 0.0
N182 N 0.79753 0.07718 0.47668 0.0
H183 H 0.91677 0.06395 0.82672 0.0
H184 H 0.67856 0.66087 0.82971 0.0
H185 H 0.91649 0.93455 0.77403 0.0
H186 H 0.78416 0.78285 0.88796 0.0
H187 H 0.75215 0.76001 0.80755 0.0
H188 H 0.85117 0.96098 0.84811 0.0
C189 C 0.90264 0.01401 0.81957 0.0
C190 C 0.92282 1.00806 0.7986 0.0
C191 C 0.75966 0.76446 0.82517 0.0
C192 C 0.84703 0.89015 0.82291 0.0
C193 C 0.71803 0.70799 0.8378 0.0
C194 C 0.72545 0.7135 0.86069 0.0
C195 C 0.80744 0.82727 0.83558 0.0
C196 C 0.77701 0.77601 0.87037 0.0
C197 C 0.86562 0.95537 0.83185 0.0
C198 C 0.90251 0.94165 0.79018 0.0
N199 N 0.8152 0.83084 0.85777 0.0
N200 N 0.86531 0.88518 0.80231 0.0
H201 H 0.21276 0.09621 0.13081 0.0
H202 H 0.97969 0.81784 0.21696 0.0
H203 H 0.99718 0.02443 0.1392 0.0
H204 H 0.18379 0.85698 0.20369 0.0
H205 H 0.99475 0.90903 0.19265 0.0
H206 H 0.21128 0.02293 0.16076 0.0
C207 C 0.16531 0.06554 0.13907 0.0
C208 C 0.10481 0.06606 0.13242 0.0
C209 C 0.03668 0.89835 0.19506 0.0
C210 C 0.10301 0.98276 0.16665 0.0
C211 C 0.02816 0.84626 0.20901 0.0
C212 C 0.08026 0.82926 0.2121 0.0
C213 C 0.09761 0.93376 0.18379 0.0
C214 C 0.14236 0.86853 0.20168 0.0
C215 C 0.16456 0.02373 0.15611 0.0
C216 C 0.04488 0.02536 0.14365 0.0
N217 N 0.14907 0.91859 0.18768 0.0
N218 N 0.04554 0.9854 0.16012 0.0
H219 H 0.24501 0.19885 0.44233 0.0
H220 H 0.31517 0.03386 0.54619 0.0
H221 H 0.0822 0.06883 0.48419 0.0
H222 H 0.46714 0.23756 0.5275 0.0
H223 H 0.23087 0.03801 0.52085 0.0
H224 H 0.3302 0.20463 0.47007 0.0
C225 C 0.22749 0.17241 0.45753 0.0
C226 C 0.15707 0.13575 0.46154 0.0
C227 C 0.28237 0.08217 0.52244 0.0
C228 C 0.25313 0.14001 0.49272 0.0
C229 C 0.33045 0.07992 0.5369 0.0
C230 C 0.39788 0.13568 0.53898 0.0
C231 C 0.30232 0.13977 0.50943 0.0
C232 C 0.41532 0.1939 0.52645 0.0
C233 C 0.27587 0.17556 0.47324 0.0
C234 C 0.13631 0.09911 0.48084 0.0
N235 N 0.36793 0.1941 0.51186 0.0
N236 N 0.1842 0.10233 0.49579 0.0
H237 H 0.226 0.33789 0.77901 0.0
H238 H 0.40439 0.38561 0.89815 0.0
H239 H 0.18218 0.17065 0.82197 0.0
H240 H 0.43772 0.55772 0.85872 0.0
H241 H 0.32036 0.30704 0.87063 0.0
H242 H 0.30532 0.4198 0.80736 0.0
C243 C 0.23291 0.31871 0.79454 0.0
C244 C 0.19592 0.24808 0.79864 0.0
C245 C 0.34542 0.36193 0.86798 0.0
C246 C 0.28672 0.34062 0.83088 0.0
C247 C 0.39323 0.40689 0.88375 0.0
C248 C 0.42821 0.47819 0.88063 0.0
C249 C 0.33292 0.3882 0.8487 0.0
C250 C 0.41155 0.50304 0.86177 0.0
C251 C 0.27817 0.36527 0.81065 0.0
C252 C 0.20865 0.22505 0.81849 0.0
N253 N 0.36552 0.45793 0.84633 0.0
N254 N 0.25242 0.2713 0.83399 0.0
H255 H 0.94403 0.09763 0.69478 0.0
H256 H 0.69378 0.23601 0.65058 0.0
H257 H 0.90124 0.23447 0.73276 0.0
H258 H 0.72164 0.08072 0.61784 0.0
H259 H 0.77988 0.24782 0.67907 0.0
H260 H 0.87119 0.10084 0.66481 0.0
C261 C 0.91928 0.12826 0.69688 0.0
C262 C 0.92851 0.16531 0.71647 0.0
C263 C 0.76743 0.21167 0.66551 0.0
C264 C 0.84497 0.16961 0.682 0.0
C265 C 0.71881 0.20539 0.64921 0.0
C266 C 0.70022 0.15692 0.63198 0.0
C267 C 0.79768 0.16956 0.66434 0.0
C268 C 0.7338 0.11814 0.631 0.0
C269 C 0.8777 0.13023 0.6797 0.0
C270 C 0.89525 0.2045 0.71807 0.0
N271 N 0.78047 0.12506 0.64696 0.0
N272 N 0.85489 0.20552 0.70109 0.0
H273 H 0.06291 0.06411 0.01461 0.0
H274 H 0.66979 0.81033 0.97403 0.0
H275 H 0.89084 0.03056 0.05239 0.0
H276 H 0.84716 0.83792 0.9402 0.0
H277 H 0.74766 0.90021 1.00099 0.0
H278 H 0.98262 0.98693 0.98578 0.0
C279 C 1.00798 0.0405 0.01669 0.0
C280 C 0.98304 0.05529 0.03536 0.0
C281 C 0.76927 0.88686 0.98751 0.0
C282 C 0.89066 0.96593 1.00282 0.0
C283 C 0.72488 0.8362 0.97205 0.0
C284 C 0.75224 0.81633 0.95504 0.0
C285 C 0.84107 0.91747 0.98578 0.0
C286 C 0.82395 0.85104 0.95325 0.0
C287 C 0.96209 0.99659 1.00028 0.0
C288 C 0.91164 0.02211 0.03774 0.0
N289 N 0.86573 0.89939 0.96848 0.0
N290 N 0.8677 0.97907 0.02157 0.0
H291 H 0.89926 0.9187 0.38409 0.0
H292 H 1.00061 0.80637 0.27449 0.0
H293 H 0.08828 0.05454 0.35309 0.0
H294 H 0.91325 0.66569 0.32722 0.0
H295 H 1.00597 0.89893 0.29768 0.0
H296 H 0.87855 0.82672 0.35779 0.0
C297 C 0.93601 0.92946 0.37157 0.0
C298 C 0.99579 0.99427 0.37079 0.0
C299 C 0.9846 0.84745 0.30396 0.0
C300 C 0.97151 0.88966 0.34052 0.0
C301 C 0.9807 0.79443 0.29072 0.0
C302 C 0.95629 0.72815 0.29898 0.0
C303 C 0.96237 0.83366 0.32539 0.0
C304 C 0.93233 0.716 0.32024 0.0
C305 C 0.92417 0.87688 0.35667 0.0
C306 C 0.04181 1.00518 0.35431 0.0
N307 N 0.93588 0.7683 0.33274 0.0
N308 N 0.02855 0.95337 0.3397 0.0
H309 H 0.26714 0.19844 0.71122 0.0
H310 H 0.25346 0.97095 0.60989 0.0
H311 H 0.08841 0.99916 0.69705 0.0
H312 H 0.44231 0.09882 0.64772 0.0
H313 H 0.18895 0.98666 0.63883 0.0
H314 H 0.33003 0.17199 0.68429 0.0
C315 C 0.24101 0.14946 0.7023 0.0
C316 C 0.17255 0.10093 0.70632 0.0
C317 C 0.24443 0.01036 0.64087 0.0
C318 C 0.24382 0.07056 0.67557 0.0
C319 C 0.28119 1.00119 0.62444 0.0
C320 C 0.35334 0.03342 0.6264 0.0
C321 C 0.28028 0.05358 0.65906 0.0
C322 C 0.38673 0.07256 0.64556 0.0
C323 C 0.27703 0.13415 0.68712 0.0
C324 C 0.14124 0.03793 0.69445 0.0
N325 N 0.35006 0.08253 0.66096 0.0
N326 N 0.17692 0.02472 0.67946 0.0
H327 H 0.30546 0.31889 0.06325 0.0
H328 H 0.4672 0.45038 0.94852 0.0
H329 H 0.18629 0.3275 0.00761 0.0
H330 H 0.57735 0.56516 0.00741 0.0
H331 H 0.3689 0.37572 0.97021 0.0
H332 H 0.41081 0.38462 0.043 0.0
C333 C 0.30133 0.33429 0.04679 0.0
C334 C 0.23676 0.31729 0.03708 0.0
C335 C 0.41515 0.41657 0.97837 0.0
C336 C 0.35642 0.3902 0.0138 0.0
C337 C 0.47159 0.45874 0.96608 0.0
C338 C 0.53058 0.51432 0.97619 0.0
C339 C 0.41823 0.42901 1.00095 0.0
C340 C 0.53278 0.52302 0.99899 0.0
C341 C 0.36135 0.37166 0.03532 0.0
C342 C 0.23463 0.33899 0.01575 0.0
N343 N 0.47723 0.48082 0.01067 0.0
N344 N 0.29348 0.37357 0.00473 0.0
H345 H 0.98212 0.21659 0.36042 0.0
H346 H 0.13392 0.5991 0.31501 0.0
H347 H 0.12423 0.40066 0.39785 0.0
H348 H 0.97811 0.41505 0.28069 0.0
H349 H 0.13719 0.52725 0.34469 0.0
H350 H 0.98431 0.28873 0.33031 0.0
C351 C 0.01349 0.27207 0.36239 0.0
C352 C 0.05275 0.30233 0.38181 0.0
C353 C 0.10252 0.50271 0.33059 0.0
C354 C 0.05608 0.38545 0.34724 0.0
C355 C 0.10098 0.54368 0.31362 0.0
C356 C 0.05546 0.51312 0.29541 0.0
C357 C 0.05846 0.43077 0.32924 0.0
C358 C 0.01367 0.441 0.29449 0.0
C359 C 0.0149 0.31332 0.34515 0.0
C360 C 0.09273 0.37475 0.38329 0.0
N361 N 0.01605 0.40245 0.31115 0.0
N362 N 0.09343 0.4137 0.36625 0.0
loop_
_geom_bond_atom_site_label_1
_geom_bond_atom_site_label_2
_geom_bond_distance
_geom_bond_site_symmetry_2
_ccdc_geom_bond_type
Mn0 O5 2.095 . S
Mn0 O15 2.162 . S
Mn0 O16 2.297 . S
Mn0 O24 2.385 . S
Mn0 O25 2.209 1_455 S
Mn0 O26 2.094 . S
Mn1 O6 2.121 . S
Mn1 N8 2.257 1_455 S
Mn1 N17 2.282 1_455 S
Mn1 O25 2.215 1_455 S
Mn1 O27 2.117 . S
C2 O24 1.234 1_655 S
C2 O25 1.283 . S
C3 O15 1.281 . S
C3 O16 1.236 . S
C4 O26 1.240 . S
C4 O27 1.264 . S
O5 Mn0 2.095 . S
O5 C14 1.250 . S
O6 Mn1 2.121 . S
O6 C14 1.258 . S
C7 N8 1.326 . S
C7 C11 1.460 . S
C7 H13 0.929 . S
N8 Mn1 2.257 1_655 S
N8 C7 1.326 . S
N8 C12 1.362 . S
C9 C10 1.258 . S
C9 C12 1.431 . S
C9 C29 1.449 . S
C10 C9 1.258 . S
C10 C11 1.477 . S
C10 H30 0.931 . S
C11 C7 1.460 . S
C11 C10 1.477 . S
C11 H31 0.930 . S
C12 N8 1.362 . S
C12 C9 1.431 . S
C12 C22 1.476 . S
H13 C7 0.929 . S
C14 O5 1.250 . S
C14 O6 1.258 . S
O15 Mn0 2.162 . S
O15 C3 1.281 . S
O16 Mn0 2.297 . S
O16 C3 1.236 . S
N17 Mn1 2.282 1_655 S
N17 C18 1.328 1_655 S
N17 C22 1.318 . S
C18 N17 1.328 1_455 S
C18 C19 1.457 1_454 S
C18 H23 0.929 . S
C19 C18 1.457 1_656 S
C19 C20 1.291 . S
C19 H32 0.931 1_655 S
C20 C19 1.291 . S
C20 C21 1.373 . S
C20 H33 0.929 . S
C21 C20 1.373 . S
C21 C22 1.396 1_556 S
C21 C28 1.403 . S
C22 C12 1.476 . S
C22 N17 1.318 . S
C22 C21 1.396 1_554 S
H23 C18 0.929 . S
O24 Mn0 2.385 . S
O24 C2 1.234 1_455 S
O25 Mn0 2.209 1_655 S
O25 Mn1 2.215 1_655 S
O25 C2 1.283 . S
O26 Mn0 2.094 . S
O26 C4 1.240 . S
O27 Mn1 2.117 . S
O27 C4 1.264 . S
C28 C21 1.403 . S
C28 C29 1.399 1_556 S
C28 H34 0.929 . S
C29 C9 1.449 . S
C29 C28 1.399 1_554 S
C29 H35 0.930 1_554 S
H30 C10 0.931 . S
H31 C11 0.930 . S
H32 C19 0.931 1_455 S
H33 C20 0.929 . S
H34 C28 0.929 . S
H35 C29 0.930 1_556 S
Mn36 O41 2.095 . S
Mn36 O51 2.162 1_445 S
Mn36 O52 2.297 . S
Mn36 O60 2.385 . S
Mn36 O61 2.209 . S
Mn36 O62 2.094 1_455 S
Mn37 O42 2.121 . S
Mn37 N44 2.257 . S
Mn37 N53 2.282 . S
Mn37 O61 2.215 . S
Mn37 O63 2.117 1_455 S
C38 O60 1.234 . S
C38 O61 1.283 . S
C39 O51 1.281 1_445 S
C39 O52 1.236 . S
C40 O62 1.240 . S
C40 O63 1.264 . S
O41 Mn36 2.095 . S
O41 C50 1.250 . S
O42 Mn37 2.121 . S
O42 C50 1.258 . S
C43 N44 1.326 . S
C43 C47 1.460 . S
C43 H49 0.929 . S
N44 Mn37 2.257 . S
N44 C43 1.326 . S
N44 C48 1.362 . S
C45 C46 1.258 . S
C45 C48 1.431 . S
C45 C65 1.449 . S
C46 C45 1.258 . S
C46 C47 1.477 . S
C46 H66 0.931 . S
C47 C43 1.460 . S
C47 C46 1.477 . S
C47 H67 0.930 . S
C48 N44 1.362 . S
C48 C45 1.431 . S
C48 C58 1.476 . S
H49 C43 0.929 . S
C50 O41 1.250 . S
C50 O42 1.258 . S
O51 Mn36 2.162 1_665 S
O51 C39 1.281 1_665 S
O52 Mn36 2.297 . S
O52 C39 1.236 . S
N53 Mn37 2.282 . S
N53 C54 1.328 . S
N53 C58 1.318 . S
C54 N53 1.328 . S
C54 C55 1.457 . S
C54 H59 0.929 . S
C55 C54 1.457 . S
C55 C56 1.291 . S
C55 H68 0.931 . S
C56 C55 1.291 . S
C56 C57 1.373 . S
C56 H69 0.929 . S
C57 C56 1.373 . S
C57 C58 1.396 . S
C57 C64 1.403 . S
C58 C48 1.476 . S
C58 N53 1.318 . S
C58 C57 1.396 . S
H59 C54 0.929 . S
O60 Mn36 2.385 . S
O60 C38 1.234 . S
O61 Mn36 2.209 . S
O61 Mn37 2.215 . S
O61 C38 1.283 . S
O62 Mn36 2.094 1_655 S
O62 C40 1.240 . S
O63 Mn37 2.117 1_655 S
O63 C40 1.264 . S
C64 C57 1.403 . S
C64 C65 1.399 . S
C64 H70 0.929 . S
C65 C45 1.449 . S
C65 C64 1.399 . S
C65 H71 0.930 . S
H66 C46 0.931 . S
H67 C47 0.930 . S
H68 C55 0.931 . S
H69 C56 0.929 . S
H70 C64 0.929 . S
H71 C65 0.930 . S
Mn72 O77 2.095 1_455 S
Mn72 O87 2.162 . S
Mn72 O88 2.297 . S
Mn72 O96 2.385 . S
Mn72 O97 2.209 . S
Mn72 O98 2.094 1_455 S
Mn73 O78 2.121 . S
Mn73 N80 2.257 1_655 S
Mn73 N89 2.282 1_655 S
Mn73 O97 2.215 1_655 S
Mn73 O99 2.117 . S
C74 O96 1.234 . S
C74 O97 1.283 . S
C75 O87 1.281 . S
C75 O88 1.236 . S
C76 O98 1.240 . S
C76 O99 1.264 . S
O77 Mn72 2.095 1_655 S
O77 C86 1.250 . S
O78 Mn73 2.121 . S
O78 C86 1.258 . S
C79 N80 1.326 . S
C79 C83 1.460 . S
C79 H85 0.929 1_455 S
N80 Mn73 2.257 1_455 S
N80 C79 1.326 . S
N80 C84 1.362 . S
C81 C82 1.258 . S
C81 C84 1.431 . S
C81 C101 1.449 . S
C82 C81 1.258 . S
C82 C83 1.477 . S
C82 H102 0.931 . S
C83 C79 1.460 . S
C83 C82 1.477 . S
C83 H103 0.930 . S
C84 N80 1.362 . S
C84 C81 1.431 . S
C84 C94 1.476 . S
H85 C79 0.929 1_655 S
C86 O77 1.250 . S
C86 O78 1.258 . S
O87 Mn72 2.162 . S
O87 C75 1.281 . S
O88 Mn72 2.297 . S
O88 C75 1.236 . S
N89 Mn73 2.282 1_455 S
N89 C90 1.328 . S
N89 C94 1.318 . S
C90 N89 1.328 . S
C90 C91 1.457 . S
C90 H95 0.929 . S
C91 C90 1.457 . S
C91 C92 1.291 . S
C91 H104 0.931 . S
C92 C91 1.291 . S
C92 C93 1.373 . S
C92 H105 0.929 . S
C93 C92 1.373 . S
C93 C94 1.396 . S
C93 C100 1.403 . S
C94 C84 1.476 . S
C94 N89 1.318 . S
C94 C93 1.396 . S
H95 C90 0.929 . S
O96 Mn72 2.385 . S
O96 C74 1.234 . S
O97 Mn72 2.209 . S
O97 Mn73 2.215 1_455 S
O97 C74 1.283 . S
O98 Mn72 2.094 1_655 S
O98 C76 1.240 . S
O99 Mn73 2.117 . S
O99 C76 1.264 . S
C100 C93 1.403 . S
C100 C101 1.399 . S
C100 H106 0.929 . S
C101 C81 1.449 . S
C101 C100 1.399 . S
C101 H107 0.930 . S
H102 C82 0.931 . S
H103 C83 0.930 . S
H104 C91 0.931 . S
H105 C92 0.929 . S
H106 C100 0.929 . S
H107 C101 0.930 . S
Mg108 O115 2.141 . S
Mg108 O116 2.048 . S
Mg108 O117 2.048 . S
Mg108 O120 2.141 . S
C109 O110 1.313 1_455 S
C109 O116 1.195 . S
O110 C109 1.313 1_655 S
C111 O112 1.245 1_455 S
C111 O120 1.289 . S
O112 C111 1.245 1_655 S
C113 O114 1.245 1_455 S
C113 O115 1.289 . S
O114 C113 1.245 1_655 S
O115 Mg108 2.141 . S
O115 C113 1.289 . S
O116 Mg108 2.048 . S
O116 C109 1.195 . S
O117 Mg108 2.048 . S
O117 C118 1.195 . S
C118 O117 1.195 . S
C118 O119 1.313 1_455 S
O119 C118 1.313 1_655 S
O120 Mg108 2.141 . S
O120 C111 1.289 . S
Mg121 O128 2.141 . S
Mg121 O129 2.048 . S
Mg121 O130 2.048 . S
Mg121 O133 2.141 . S
C122 O123 1.313 . S
C122 O129 1.195 . S
O123 C122 1.313 . S
C124 O125 1.245 . S
C124 O133 1.289 . S
O125 C124 1.245 . S
C126 O127 1.245 . S
C126 O128 1.289 . S
O127 C126 1.245 . S
O128 Mg121 2.141 . S
O128 C126 1.289 . S
O129 Mg121 2.048 . S
O129 C122 1.195 . S
O130 Mg121 2.048 . S
O130 C131 1.195 . S
C131 O130 1.195 . S
C131 O132 1.313 . S
O132 C131 1.313 . S
O133 Mg121 2.141 . S
O133 C124 1.289 . S
Mg134 O141 2.141 . S
Mg134 O142 2.048 . S
Mg134 O143 2.048 . S
Mg134 O146 2.141 . S
C135 O136 1.313 . S
C135 O142 1.195 . S
O136 C135 1.313 . S
C137 O138 1.245 . S
C137 O146 1.289 . S
O138 C137 1.245 . S
C139 O140 1.245 . S
C139 O141 1.289 . S
O140 C139 1.245 . S
O141 Mg134 2.141 . S
O141 C139 1.289 . S
O142 Mg134 2.048 . S
O142 C135 1.195 . S
O143 Mg134 2.048 . S
O143 C144 1.195 . S
C144 O143 1.195 . S
C144 O145 1.313 . S
O145 C144 1.313 . S
O146 Mg134 2.141 . S
O146 C137 1.289 . S
H147 C153 0.930 1_655 S
H148 C157 0.930 . S
H149 C162 0.929 . S
H150 C160 0.929 1_655 S
H151 C155 0.929 . S
H152 C161 0.929 1_655 S
C153 H147 0.930 1_455 S
C153 C154 1.367 . S
C153 C161 1.378 . S
C154 C153 1.367 . S
C154 C162 1.433 . S
C155 H151 0.929 . S
C155 C157 1.378 . S
C155 C159 1.350 . S
C156 C159 1.463 . S
C156 C161 1.350 . S
C156 N164 1.427 . S
C157 H148 0.930 . S
C157 C155 1.378 . S
C157 C158 1.367 . S
C158 C157 1.367 . S
C158 C160 1.433 . S
C159 C155 1.350 . S
C159 C156 1.463 . S
C159 N163 1.427 . S
C160 H150 0.929 1_455 S
C160 C158 1.433 . S
C160 N163 1.384 . S
C161 H152 0.929 1_455 S
C161 C153 1.378 . S
C161 C156 1.350 . S
C162 H149 0.929 . S
C162 C154 1.433 . S
C162 N164 1.384 . S
N163 C159 1.427 . S
N163 C160 1.384 . S
N164 C156 1.427 . S
N164 C162 1.384 . S
H165 C171 0.930 . S
H166 C175 0.930 . S
H167 C180 0.929 . S
H168 C178 0.929 . S
H169 C173 0.929 . S
H170 C179 0.929 . S
C171 H165 0.930 . S
C171 C172 1.367 . S
C171 C179 1.378 . S
C172 C171 1.367 . S
C172 C180 1.433 . S
C173 H169 0.929 . S
C173 C175 1.378 . S
C173 C177 1.350 . S
C174 C177 1.463 . S
C174 C179 1.350 . S
C174 N182 1.427 . S
C175 H166 0.930 . S
C175 C173 1.378 . S
C175 C176 1.367 . S
C176 C175 1.367 . S
C176 C178 1.433 . S
C177 C173 1.350 . S
C177 C174 1.463 . S
C177 N181 1.427 . S
C178 H168 0.929 . S
C178 C176 1.433 . S
C178 N181 1.384 . S
C179 H170 0.929 . S
C179 C171 1.378 . S
C179 C174 1.350 . S
C180 H167 0.929 . S
C180 C172 1.433 . S
C180 N182 1.384 . S
N181 C177 1.427 . S
N181 C178 1.384 . S
N182 C174 1.427 . S
N182 C180 1.384 . S
H183 C189 0.930 . S
H184 C193 0.930 . S
H185 C198 0.929 . S
H186 C196 0.929 . S
H187 C191 0.929 . S
H188 C197 0.929 . S
C189 H183 0.930 . S
C189 C190 1.367 1_545 S
C189 C197 1.378 1_545 S
C190 C189 1.367 1_565 S
C190 C198 1.433 . S
C191 H187 0.929 . S
C191 C193 1.378 . S
C191 C195 1.350 . S
C192 C195 1.463 . S
C192 C197 1.350 . S
C192 N200 1.427 . S
C193 H184 0.930 . S
C193 C191 1.378 . S
C193 C194 1.367 . S
C194 C193 1.367 . S
C194 C196 1.433 . S
C195 C191 1.350 . S
C195 C192 1.463 . S
C195 N199 1.427 . S
C196 H186 0.929 . S
C196 C194 1.433 . S
C196 N199 1.384 . S
C197 H188 0.929 . S
C197 C189 1.378 1_565 S
C197 C192 1.350 . S
C198 H185 0.929 . S
C198 C190 1.433 . S
C198 N200 1.384 . S
N199 C195 1.427 . S
N199 C196 1.384 . S
N200 C192 1.427 . S
N200 C198 1.384 . S
H201 C207 0.930 . S
H202 C211 0.930 . S
H203 C216 0.929 . S
H204 C214 0.929 . S
H205 C209 0.929 . S
H206 C215 0.929 . S
C207 H201 0.930 . S
C207 C208 1.367 . S
C207 C215 1.378 . S
C208 C207 1.367 . S
C208 C216 1.433 1_565 S
C209 H205 0.929 . S
C209 C211 1.378 . S
C209 C213 1.350 . S
C210 C213 1.463 . S
C210 C215 1.350 . S
C210 N218 1.427 . S
C211 H202 0.930 . S
C211 C209 1.378 . S
C211 C212 1.367 . S
C212 C211 1.367 . S
C212 C214 1.433 . S
C213 C209 1.350 . S
C213 C210 1.463 . S
C213 N217 1.427 . S
C214 H204 0.929 . S
C214 C212 1.433 . S
C214 N217 1.384 . S
C215 H206 0.929 . S
C215 C207 1.378 . S
C215 C210 1.350 . S
C216 H203 0.929 . S
C216 C208 1.433 1_545 S
C216 N218 1.384 1_545 S
N217 C213 1.427 . S
N217 C214 1.384 . S
N218 C210 1.427 . S
N218 C216 1.384 1_565 S
H219 C225 0.930 . S
H220 C229 0.930 . S
H221 C234 0.929 . S
H222 C232 0.929 . S
H223 C227 0.929 . S
H224 C233 0.929 . S
C225 H219 0.930 . S
C225 C226 1.367 . S
C225 C233 1.378 . S
C226 C225 1.367 . S
C226 C234 1.433 . S
C227 H223 0.929 . S
C227 C229 1.378 . S
C227 C231 1.350 . S
C228 C231 1.463 . S
C228 C233 1.350 . S
C228 N236 1.427 . S
C229 H220 0.930 . S
C229 C227 1.378 . S
C229 C230 1.367 . S
C230 C229 1.367 . S
C230 C232 1.433 . S
C231 C227 1.350 . S
C231 C228 1.463 . S
C231 N235 1.427 . S
C232 H222 0.929 . S
C232 C230 1.433 . S
C232 N235 1.384 . S
C233 H224 0.929 . S
C233 C225 1.378 . S
C233 C228 1.350 . S
C234 H221 0.929 . S
C234 C226 1.433 . S
C234 N236 1.384 . S
N235 C231 1.427 . S
N235 C232 1.384 . S
N236 C228 1.427 . S
N236 C234 1.384 . S
H237 C243 0.930 . S
H238 C247 0.930 . S
H239 C252 0.929 . S
H240 C250 0.929 . S
H241 C245 0.929 . S
H242 C251 0.929 . S
C243 H237 0.930 . S
C243 C244 1.367 . S
C243 C251 1.378 . S
C244 C243 1.367 . S
C244 C252 1.433 . S
C245 H241 0.929 . S
C245 C247 1.378 . S
C245 C249 1.350 . S
C246 C249 1.463 . S
C246 C251 1.350 . S
C246 N254 1.427 . S
C247 H238 0.930 . S
C247 C245 1.378 . S
C247 C248 1.367 . S
C248 C247 1.367 . S
C248 C250 1.433 . S
C249 C245 1.350 . S
C249 C246 1.463 . S
C249 N253 1.427 . S
C250 H240 0.929 . S
C250 C248 1.433 . S
C250 N253 1.384 . S
C251 H242 0.929 . S
C251 C243 1.378 . S
C251 C246 1.350 . S
C252 H239 0.929 . S
C252 C244 1.433 . S
C252 N254 1.384 . S
N253 C249 1.427 . S
N253 C250 1.384 . S
N254 C246 1.427 . S
N254 C252 1.384 . S
H255 C261 0.930 . S
H256 C265 0.930 . S
H257 C270 0.929 . S
H258 C268 0.929 . S
H259 C263 0.929 . S
H260 C269 0.929 . S
C261 H255 0.930 . S
C261 C262 1.367 . S
C261 C269 1.378 . S
C262 C261 1.367 . S
C262 C270 1.433 . S
C263 H259 0.929 . S
C263 C265 1.378 . S
C263 C267 1.350 . S
C264 C267 1.463 . S
C264 C269 1.350 . S
C264 N272 1.427 . S
C265 H256 0.930 . S
C265 C263 1.378 . S
C265 C266 1.367 . S
C266 C265 1.367 . S
C266 C268 1.433 . S
C267 C263 1.350 . S
C267 C264 1.463 . S
C267 N271 1.427 . S
C268 H258 0.929 . S
C268 C266 1.433 . S
C268 N271 1.384 . S
C269 H260 0.929 . S
C269 C261 1.378 . S
C269 C264 1.350 . S
C270 H257 0.929 . S
C270 C262 1.433 . S
C270 N272 1.384 . S
N271 C267 1.427 . S
N271 C268 1.384 . S
N272 C264 1.427 . S
N272 C270 1.384 . S
H273 C279 0.930 . S
H274 C283 0.930 . S
H275 C288 0.929 . S
H276 C286 0.929 . S
H277 C281 0.929 . S
H278 C287 0.929 . S
C279 H273 0.930 . S
C279 C280 1.367 1_565 S
C279 C287 1.378 . S
C280 C279 1.367 1_545 S
C280 C288 1.433 . S
C281 H277 0.929 . S
C281 C283 1.378 . S
C281 C285 1.350 . S
C282 C285 1.463 1_554 S
C282 C287 1.350 . S
C282 N290 1.427 . S
C283 H274 0.930 . S
C283 C281 1.378 . S
C283 C284 1.367 . S
C284 C283 1.367 . S
C284 C286 1.433 . S
C285 C281 1.350 . S
C285 C282 1.463 1_556 S
C285 N289 1.427 . S
C286 H276 0.929 . S
C286 C284 1.433 . S
C286 N289 1.384 . S
C287 H278 0.929 . S
C287 C279 1.378 . S
C287 C282 1.350 . S
C288 H275 0.929 . S
C288 C280 1.433 . S
C288 N290 1.384 1_545 S
N289 C285 1.427 . S
N289 C286 1.384 . S
N290 C282 1.427 . S
N290 C288 1.384 1_565 S
H291 C297 0.930 . S
H292 C301 0.930 . S
H293 C306 0.929 1_545 S
H294 C304 0.929 . S
H295 C299 0.929 . S
H296 C305 0.929 . S
C297 H291 0.930 . S
C297 C298 1.367 . S
C297 C305 1.378 . S
C298 C297 1.367 . S
C298 C306 1.433 . S
C299 H295 0.929 . S
C299 C301 1.378 . S
C299 C303 1.350 . S
C300 C303 1.463 . S
C300 C305 1.350 . S
C300 N308 1.427 . S
C301 H292 0.930 . S
C301 C299 1.378 . S
C301 C302 1.367 . S
C302 C301 1.367 . S
C302 C304 1.433 . S
C303 C299 1.350 . S
C303 C300 1.463 . S
C303 N307 1.427 . S
C304 H294 0.929 . S
C304 C302 1.433 . S
C304 N307 1.384 . S
C305 H296 0.929 . S
C305 C297 1.378 . S
C305 C300 1.350 . S
C306 H293 0.929 1_565 S
C306 C298 1.433 . S
C306 N308 1.384 . S
N307 C303 1.427 . S
N307 C304 1.384 . S
N308 C300 1.427 . S
N308 C306 1.384 . S
H309 C315 0.930 . S
H310 C319 0.930 . S
H311 C324 0.929 . S
H312 C322 0.929 . S
H313 C317 0.929 . S
H314 C323 0.929 . S
C315 H309 0.930 . S
C315 C316 1.367 . S
C315 C323 1.378 . S
C316 C315 1.367 . S
C316 C324 1.433 . S
C317 H313 0.929 . S
C317 C319 1.378 . S
C317 C321 1.350 . S
C318 C321 1.463 . S
C318 C323 1.350 . S
C318 N326 1.427 . S
C319 H310 0.930 . S
C319 C317 1.378 . S
C319 C320 1.367 . S
C320 C319 1.367 . S
C320 C322 1.433 . S
C321 C317 1.350 . S
C321 C318 1.463 . S
C321 N325 1.427 . S
C322 H312 0.929 . S
C322 C320 1.433 . S
C322 N325 1.384 . S
C323 H314 0.929 . S
C323 C315 1.378 . S
C323 C318 1.350 . S
C324 H311 0.929 . S
C324 C316 1.433 . S
C324 N326 1.384 . S
N325 C321 1.427 . S
N325 C322 1.384 . S
N326 C318 1.427 . S
N326 C324 1.384 . S
H327 C333 0.930 . S
H328 C337 0.930 . S
H329 C342 0.929 . S
H330 C340 0.929 . S
H331 C335 0.929 . S
H332 C341 0.929 . S
C333 H327 0.930 . S
C333 C334 1.367 . S
C333 C341 1.378 . S
C334 C333 1.367 . S
C334 C342 1.433 . S
C335 H331 0.929 . S
C335 C337 1.378 . S
C335 C339 1.350 . S
C336 C339 1.463 1_554 S
C336 C341 1.350 . S
C336 N344 1.427 1_554 S
C337 H328 0.930 . S
C337 C335 1.378 . S
C337 C338 1.367 . S
C338 C337 1.367 . S
C338 C340 1.433 . S
C339 C335 1.350 . S
C339 C336 1.463 1_556 S
C339 N343 1.427 . S
C340 H330 0.929 . S
C340 C338 1.433 . S
C340 N343 1.384 . S
C341 H332 0.929 . S
C341 C333 1.378 . S
C341 C336 1.350 . S
C342 H329 0.929 . S
C342 C334 1.433 . S
C342 N344 1.384 1_554 S
N343 C339 1.427 . S
N343 C340 1.384 . S
N344 C336 1.427 1_556 S
N344 C342 1.384 1_556 S
H345 C351 0.930 . S
H346 C355 0.930 . S
H347 C360 0.929 . S
H348 C358 0.929 . S
H349 C353 0.929 . S
H350 C359 0.929 . S
C351 H345 0.930 . S
C351 C352 1.367 1_655 S
C351 C359 1.378 . S
C352 C351 1.367 1_455 S
C352 C360 1.433 . S
C353 H349 0.929 . S
C353 C355 1.378 . S
C353 C357 1.350 . S
C354 C357 1.463 . S
C354 C359 1.350 1_455 S
C354 N362 1.427 . S
C355 H346 0.930 . S
C355 C353 1.378 . S
C355 C356 1.367 . S
C356 C355 1.367 . S
C356 C358 1.433 1_455 S
C357 C353 1.350 . S
C357 C354 1.463 . S
C357 N361 1.427 1_455 S
C358 H348 0.929 . S
C358 C356 1.433 1_655 S
C358 N361 1.384 . S
C359 H350 0.929 . S
C359 C351 1.378 . S
C359 C354 1.350 1_655 S
C360 H347 0.929 . S
C360 C352 1.433 . S
C360 N362 1.384 . S
N361 C357 1.427 1_655 S
N361 C358 1.384 . S
N362 C354 1.427 . S
N362 C360 1.384 . S
C158 C113 1.421 . S
C154 C14 1.402 . S
C172 C40 1.468 . S
C176 C131 1.476 . S
C190 C76 1.458 1_565 S
C194 C144 1.468 . S
C208 C3 1.389 1_565 S
C212 C111 1.383 . S
C230 C122 1.489 . S
C226 C38 1.484 . S
C244 C74 1.468 . S
C248 C135 1.474 . S
C266 C124 1.379 . S
C262 C86 1.353 . S
C280 C2 1.394 . S
C284 C137 1.410 . S
C302 C118 1.446 . S
C298 C39 1.453 1_565 S
C320 C126 1.381 . S
C316 C75 1.399 . S
C338 C139 1.401 . S
C334 C4 1.400 . S
C352 C50 1.462 . S
C356 C109 1.492 . S
