# Generated by pormake.
# Topology ocu, (6,8)-cn, num edge types: 1
# Building blocks:
#     Node 0, Type 0, BuildingBlock: KUMJIN_clean_sbu_1, # of connection points: 6
#     Node 1, Type 0, BuildingBlock: KUMJIN_clean_sbu_1, # of connection points: 6
#     Node 2, Type 0, BuildingBlock: KUMJIN_clean_sbu_1, # of connection points: 6
#     Node 3, Type 0, BuildingBlock: KUMJIN_clean_sbu_1, # of connection points: 6
#     Node 4, Type 0, BuildingBlock: KUMJIN_clean_sbu_1, # of connection points: 6
#     Node 5, Type 0, BuildingBlock: KUMJIN_clean_sbu_1, # of connection points: 6
#     Node 6, Type 0, BuildingBlock: KUMJIN_clean_sbu_1, # of connection points: 6
#     Node 7, Type 0, BuildingBlock: KUMJIN_clean_sbu_1, # of connection points: 6
#     Node 8, Type 1, BuildingBlock: AJUNOK_clean_sbu_0, # of connection points: 8
#     Node 9, Type 1, BuildingBlock: AJUNOK_clean_sbu_0, # of connection points: 8
#     Node 10, Type 1, BuildingBlock: AJUNOK_clean_sbu_0, # of connection points: 8
#     Node 11, Type 1, BuildingBlock: AJUNOK_clean_sbu_0, # of connection points: 8
#     Node 12, Type 1, BuildingBlock: AJUNOK_clean_sbu_0, # of connection points: 8
#     Node 13, Type 1, BuildingBlock: AJUNOK_clean_sbu_0, # of connection points: 8
#     Edge 14, Type (0, 1), BuildingBlock: EZIPEK_clean_linker_0, # of connection points: 2
#     Edge 15, Type (0, 1), BuildingBlock: EZIPEK_clean_linker_0, # of connection points: 2
#     Edge 16, Type (0, 1), BuildingBlock: EZIPEK_clean_linker_0, # of connection points: 2
#     Edge 17, Type (0, 1), BuildingBlock: EZIPEK_clean_linker_0, # of connection points: 2
#     Edge 18, Type (0, 1), BuildingBlock: EZIPEK_clean_linker_0, # of connection points: 2
#     Edge 19, Type (0, 1), BuildingBlock: EZIPEK_clean_linker_0, # of connection points: 2
#     Edge 20, Type (0, 1), BuildingBlock: EZIPEK_clean_linker_0, # of connection points: 2
#     Edge 21, Type (0, 1), BuildingBlock: EZIPEK_clean_linker_0, # of connection points: 2
#     Edge 22, Type (0, 1), BuildingBlock: EZIPEK_clean_linker_0, # of connection points: 2
#     Edge 23, Type (0, 1), BuildingBlock: EZIPEK_clean_linker_0, # of connection points: 2
#     Edge 24, Type (0, 1), BuildingBlock: EZIPEK_clean_linker_0, # of connection points: 2
#     Edge 25, Type (0, 1), BuildingBlock: EZIPEK_clean_linker_0, # of connection points: 2
#     Edge 26, Type (0, 1), BuildingBlock: EZIPEK_clean_linker_0, # of connection points: 2
#     Edge 27, Type (0, 1), BuildingBlock: EZIPEK_clean_linker_0, # of connection points: 2
#     Edge 28, Type (0, 1), BuildingBlock: EZIPEK_clean_linker_0, # of connection points: 2
#     Edge 29, Type (0, 1), BuildingBlock: EZIPEK_clean_linker_0, # of connection points: 2
#     Edge 30, Type (0, 1), BuildingBlock: EZIPEK_clean_linker_0, # of connection points: 2
#     Edge 31, Type (0, 1), BuildingBlock: EZIPEK_clean_linker_0, # of connection points: 2
#     Edge 32, Type (0, 1), BuildingBlock: EZIPEK_clean_linker_0, # of connection points: 2
#     Edge 33, Type (0, 1), BuildingBlock: EZIPEK_clean_linker_0, # of connection points: 2
#     Edge 34, Type (0, 1), BuildingBlock: EZIPEK_clean_linker_0, # of connection points: 2
#     Edge 35, Type (0, 1), BuildingBlock: EZIPEK_clean_linker_0, # of connection points: 2
#     Edge 36, Type (0, 1), BuildingBlock: EZIPEK_clean_linker_0, # of connection points: 2
#     Edge 37, Type (0, 1), BuildingBlock: EZIPEK_clean_linker_0, # of connection points: 2
#     Edge 38, Type (0, 1), BuildingBlock: EZIPEK_clean_linker_0, # of connection points: 2
#     Edge 39, Type (0, 1), BuildingBlock: EZIPEK_clean_linker_0, # of connection points: 2
#     Edge 40, Type (0, 1), BuildingBlock: EZIPEK_clean_linker_0, # of connection points: 2
#     Edge 41, Type (0, 1), BuildingBlock: EZIPEK_clean_linker_0, # of connection points: 2
#     Edge 42, Type (0, 1), BuildingBlock: EZIPEK_clean_linker_0, # of connection points: 2
#     Edge 43, Type (0, 1), BuildingBlock: EZIPEK_clean_linker_0, # of connection points: 2
#     Edge 44, Type (0, 1), BuildingBlock: EZIPEK_clean_linker_0, # of connection points: 2
#     Edge 45, Type (0, 1), BuildingBlock: EZIPEK_clean_linker_0, # of connection points: 2
#     Edge 46, Type (0, 1), BuildingBlock: EZIPEK_clean_linker_0, # of connection points: 2
#     Edge 47, Type (0, 1), BuildingBlock: EZIPEK_clean_linker_0, # of connection points: 2
#     Edge 48, Type (0, 1), BuildingBlock: EZIPEK_clean_linker_0, # of connection points: 2
#     Edge 49, Type (0, 1), BuildingBlock: EZIPEK_clean_linker_0, # of connection points: 2
#     Edge 50, Type (0, 1), BuildingBlock: EZIPEK_clean_linker_0, # of connection points: 2
#     Edge 51, Type (0, 1), BuildingBlock: EZIPEK_clean_linker_0, # of connection points: 2
#     Edge 52, Type (0, 1), BuildingBlock: EZIPEK_clean_linker_0, # of connection points: 2
#     Edge 53, Type (0, 1), BuildingBlock: EZIPEK_clean_linker_0, # of connection points: 2
#     Edge 54, Type (0, 1), BuildingBlock: EZIPEK_clean_linker_0, # of connection points: 2
#     Edge 55, Type (0, 1), BuildingBlock: EZIPEK_clean_linker_0, # of connection points: 2
#     Edge 56, Type (0, 1), BuildingBlock: EZIPEK_clean_linker_0, # of connection points: 2
#     Edge 57, Type (0, 1), BuildingBlock: EZIPEK_clean_linker_0, # of connection points: 2
#     Edge 58, Type (0, 1), BuildingBlock: EZIPEK_clean_linker_0, # of connection points: 2
#     Edge 59, Type (0, 1), BuildingBlock: EZIPEK_clean_linker_0, # of connection points: 2
#     Edge 60, Type (0, 1), BuildingBlock: EZIPEK_clean_linker_0, # of connection points: 2
#     Edge 61, Type (0, 1), BuildingBlock: EZIPEK_clean_linker_0, # of connection points: 2
# Relax obj value: 0.154
# Max RMSD: 0.183
# Mean RMSD: 0.152
data_MOF--net-ocu--node1-KUMJIN_clean_sbu_1--node2-AJUNOK_clean_sbu_0--edge1-EZIPEK_clean_linker_0
_symmetry_space_group_name_H-M    P1
_symmetry_Int_Tables_number       1
_symmetry_cell_setting            triclinic
loop_
_symmetry_equiv_pos_as_xyz
'x, y, z'
_cell_length_a     34.814529
_cell_length_b     35.332548
_cell_length_c     30.80085
_cell_angle_alpha  107.24985
_cell_angle_beta   86.758089
_cell_angle_gamma 117.65673
loop_
_atom_site_label
_atom_site_type_symbol
_atom_site_fract_x
_atom_site_fract_y
_atom_site_fract_z
_atom_type_partial_charge
Eu0 Eu 0.21846 0.22364 0.19443 0.0
C1 C 0.35918 0.36977 0.37463 0.0
N2 N 0.36677 0.3501 0.33226 0.0
C3 C 0.43532 0.41576 0.33839 0.0
C4 C 0.38844 0.41449 0.39936 0.0
C5 C 0.4052 0.37157 0.31495 0.0
C6 C 0.42634 0.43774 0.38019 0.0
C7 C 0.31787 0.36236 0.44065 0.0
C8 C 0.32442 0.3439 0.39526 0.0
C9 C 0.34511 0.40776 0.46401 0.0
C10 C 0.38035 0.43374 0.44344 0.0
Eu11 Eu 0.31544 0.2742 0.29746 0.0
N12 N 0.29924 0.29973 0.37242 0.0
C13 C 0.28557 0.33404 0.46205 0.0
C14 C 0.27067 0.27136 0.39447 0.0
C15 C 0.26248 0.28813 0.43913 0.0
H16 H 0.41235 0.35471 0.28252 0.0
H17 H 0.23898 0.26556 0.45611 0.0
H18 H 0.13418 0.14684 0.23503 0.0
H19 H 0.26267 0.2073 0.01947 0.0
H20 H 0.25477 0.23573 0.37763 0.0
H21 H 0.27967 0.34691 0.49693 0.0
H22 H 0.2656 0.247 0.10084 0.0
H23 H 0.46532 0.43287 0.32405 0.0
H24 H 0.3403 0.42259 0.49873 0.0
H25 H 0.4022 0.46818 0.46265 0.0
H26 H 0.08547 0.06583 0.21058 0.0
H27 H 0.44976 0.47198 0.39825 0.0
H28 H 0.21389 0.12565 0.98896 0.0
N29 N 0.16629 0.14649 0.17388 0.0
C30 C 0.16472 0.12214 0.12989 0.0
C31 C 0.10804 0.08108 0.18774 0.0
C32 C 0.13568 0.07567 0.11377 0.0
C33 C 0.13674 0.12712 0.20192 0.0
C34 C 0.10799 0.05508 0.14371 0.0
N35 N 0.21881 0.18859 0.11644 0.0
C36 C 0.24407 0.21147 0.08802 0.0
C37 C 0.18864 0.1198 0.0539 0.0
C38 C 0.19097 0.14392 0.10022 0.0
C39 C 0.2148 0.14298 0.02471 0.0
C40 C 0.24245 0.18906 0.04181 0.0
H41 H 0.08539 0.01948 0.13268 0.0
H42 H 0.1125 0.01567 0.05531 0.0
H43 H 0.1588 0.05433 0.00291 0.0
O44 O 0.203 0.25616 0.15328 0.0
O45 O 0.25678 0.18279 0.18631 0.0
O46 O 0.3242 0.23647 0.2249 0.0
O47 O 0.15353 0.21926 0.19193 0.0
O48 O 0.28699 0.27194 0.18439 0.0
O49 O 0.32814 0.31957 0.25313 0.0
O50 O 0.33143 0.24265 0.34208 0.0
O51 O 0.26137 0.29587 0.31646 0.0
O52 O 0.23583 0.29221 0.24697 0.0
O53 O 0.38039 0.28219 0.3038 0.0
O54 O 0.2596 0.204 0.28238 0.0
O55 O 0.20182 0.21146 0.26242 0.0
C56 C 0.29853 0.19558 0.19706 0.0
C57 C 0.13061 0.23862 0.13318 0.0
C58 C 0.09615 0.27279 0.10219 0.0
C59 C 0.06454 0.22979 0.07683 0.0
C60 C 0.09902 0.1959 0.10746 0.0
C61 C 0.06624 0.19164 0.07918 0.0
C62 C 0.12968 0.277 0.12959 0.0
C63 C 0.31474 0.31218 0.21072 0.0
C64 C 0.16396 0.24495 0.16568 0.0
C65 C 0.13436 0.0514 0.06809 0.0
C66 C 0.16061 0.07343 0.0382 0.0
C67 C 0.23825 0.30487 0.29193 0.0
C68 C 0.40809 0.25919 0.35526 0.0
C69 C 0.43781 0.21956 0.38376 0.0
C70 C 0.47971 0.25565 0.38769 0.0
C71 C 0.45039 0.29496 0.35998 0.0
C72 C 0.40162 0.22172 0.36835 0.0
C73 C 0.48584 0.2932 0.37628 0.0
C74 C 0.21866 0.19484 0.28375 0.0
C75 C 0.3722 0.26088 0.33386 0.0
H76 H 0.03837 0.22583 0.05555 0.0
H77 H 0.09945 0.16604 0.10962 0.0
H78 H 0.04167 0.15864 0.05954 0.0
H79 H 0.15401 0.31014 0.14951 0.0
H80 H 0.50786 0.25451 0.39931 0.0
H81 H 0.45618 0.32421 0.35048 0.0
H82 H 0.36921 0.1938 0.36473 0.0
H83 H 0.51832 0.32078 0.37938 0.0
Eu84 Eu 0.72879 0.28692 0.27173 0.0
C85 C 0.83823 0.19201 0.1347 0.0
N86 N 0.79854 0.17683 0.151 0.0
C87 C 0.76675 0.11978 0.07887 0.0
C88 C 0.84346 0.17244 0.08915 0.0
C89 C 0.76341 0.13963 0.1245 0.0
C90 C 0.80683 0.1367 0.06088 0.0
C91 C 0.91646 0.23791 0.15028 0.0
C92 C 0.87424 0.22489 0.16463 0.0
C93 C 0.92173 0.22026 0.10445 0.0
C94 C 0.88523 0.18778 0.07384 0.0
Eu95 Eu 0.79612 0.21525 0.2281 0.0
N96 N 0.86833 0.24113 0.20881 0.0
C97 C 0.95219 0.2663 0.18295 0.0
C98 C 0.90297 0.26716 0.24116 0.0
C99 C 0.94548 0.2806 0.22871 0.0
H100 H 0.73258 0.1255 0.13849 0.0
H101 H 0.973 0.3011 0.25436 0.0
H102 H 0.7857 0.37551 0.36275 0.0
H103 H 0.55222 0.17291 0.24762 0.0
H104 H 0.89768 0.27656 0.27675 0.0
H105 H 0.98492 0.27551 0.17341 0.0
H106 H 0.62426 0.21286 0.2225 0.0
H107 H 0.73851 0.09111 0.05779 0.0
H108 H 0.95395 0.23038 0.09274 0.0
H109 H 0.88983 0.17341 0.03889 0.0
H110 H 0.77779 0.40374 0.44429 0.0
H111 H 0.8095 0.12084 0.02568 0.0
H112 H 0.54188 0.18861 0.32989 0.0
N113 N 0.72407 0.31692 0.34973 0.0
C114 C 0.68531 0.2952 0.36592 0.0
C115 C 0.75178 0.37284 0.42282 0.0
C116 C 0.67929 0.31039 0.41234 0.0
C117 C 0.75629 0.35645 0.37665 0.0
C118 C 0.71348 0.34919 0.44099 0.0
N119 N 0.65629 0.24814 0.29018 0.0
C120 C 0.62099 0.21921 0.25866 0.0
C121 C 0.60934 0.2383 0.35111 0.0
C122 C 0.65062 0.25959 0.33544 0.0
C123 C 0.57402 0.20569 0.31916 0.0
C124 C 0.5797 0.1968 0.2727 0.0
H125 H 0.71003 0.36207 0.47677 0.0
H126 H 0.63386 0.29859 0.46392 0.0
H127 H 0.57273 0.23528 0.4104 0.0
O128 O 0.68368 0.30683 0.25225 0.0
O129 O 0.73204 0.24855 0.31812 0.0
O130 O 0.73234 0.19237 0.25968 0.0
O131 O 0.75016 0.35688 0.27637 0.0
O132 O 0.69536 0.22119 0.21462 0.0
O133 O 0.74823 0.20665 0.17558 0.0
O134 O 0.827 0.19988 0.27437 0.0
O135 O 0.82771 0.28307 0.21632 0.0
O136 O 0.76702 0.29219 0.2086 0.0
O137 O 0.7776 0.14484 0.21961 0.0
O138 O 0.81995 0.26806 0.2974 0.0
O139 O 0.79898 0.3225 0.30054 0.0
C140 C 0.72862 0.20817 0.30293 0.0
C141 C 0.71486 0.36545 0.21906 0.0
C142 C 0.67806 0.36271 0.15263 0.0
C143 C 0.71391 0.40281 0.15075 0.0
C144 C 0.75018 0.40617 0.21754 0.0
C145 C 0.75001 0.42422 0.18294 0.0
C146 C 0.67932 0.34327 0.18559 0.0
C147 C 0.70818 0.1997 0.17935 0.0
C148 C 0.71326 0.34793 0.25731 0.0
C149 C 0.63891 0.28764 0.42829 0.0
C150 C 0.60408 0.25159 0.39779 0.0
C151 C 0.80885 0.30413 0.20498 0.0
C152 C 0.81153 0.12516 0.26998 0.0
C153 C 0.85134 0.11541 0.32366 0.0
C154 C 0.84195 0.07289 0.29359 0.0
C155 C 0.80181 0.08258 0.24009 0.0
C156 C 0.83428 0.14043 0.31279 0.0
C157 C 0.81684 0.05641 0.25217 0.0
C158 C 0.82405 0.30872 0.31381 0.0
C159 C 0.80545 0.15687 0.25384 0.0
H160 H 0.71316 0.41836 0.12553 0.0
H161 H 0.7774 0.4245 0.24361 0.0
H162 H 0.7772 0.4557 0.18206 0.0
H163 H 0.65106 0.3126 0.18692 0.0
H164 H 0.85505 0.05306 0.30169 0.0
H165 H 0.78476 0.07064 0.20659 0.0
H166 H 0.84189 0.1733 0.33617 0.0
H167 H 0.81091 0.02439 0.2285 0.0
Eu168 Eu 0.7563 0.71351 0.29058 0.0
C169 C 0.87088 0.82342 0.1495 0.0
N170 N 0.85259 0.83658 0.18755 0.0
C171 C 0.91772 0.90736 0.21217 0.0
C172 C 0.91393 0.85148 0.14221 0.0
C173 C 0.87456 0.87903 0.21734 0.0
C174 C 0.93774 0.89326 0.17488 0.0
C175 C 0.86183 0.77091 0.07402 0.0
C176 C 0.84541 0.78328 0.1158 0.0
C177 C 0.90521 0.79786 0.06765 0.0
C178 C 0.93126 0.83789 0.10176 0.0
Eu179 Eu 0.78042 0.78239 0.193 0.0
N180 N 0.80357 0.75771 0.12259 0.0
C181 C 0.8336 0.7327 0.03923 0.0
C182 C 0.77516 0.72224 0.08814 0.0
C183 C 0.78984 0.70876 0.04604 0.0
H184 H 0.85914 0.89174 0.24511 0.0
H185 H 0.76746 0.67997 0.01897 0.0
H186 H 0.67585 0.6085 0.23974 0.0
H187 H 0.7902 0.80661 0.47267 0.0
H188 H 0.74125 0.70408 0.09344 0.0
H189 H 0.84491 0.72225 0.00655 0.0
H190 H 0.80746 0.78785 0.39239 0.0
H191 H 0.9353 0.94043 0.23657 0.0
H192 H 0.91855 0.78867 0.03596 0.0
H193 H 0.96433 0.85893 0.09581 0.0
H194 H 0.60337 0.55644 0.25589 0.0
H195 H 0.97094 0.91564 0.17062 0.0
H196 H 0.71607 0.76323 0.49274 0.0
N197 N 0.68785 0.65937 0.30285 0.0
C198 C 0.67462 0.67038 0.34502 0.0
C199 C 0.62284 0.58855 0.28107 0.0
C200 C 0.63388 0.64109 0.3562 0.0
C201 C 0.66372 0.61823 0.27183 0.0
C202 C 0.60751 0.60034 0.32317 0.0
N203 N 0.74353 0.73532 0.36771 0.0
C204 C 0.77505 0.76891 0.40101 0.0
C205 C 0.69203 0.7188 0.42367 0.0
C206 C 0.70335 0.70912 0.37844 0.0
C207 C 0.72344 0.75496 0.45758 0.0
C208 C 0.76539 0.77953 0.44637 0.0
H209 H 0.57602 0.57702 0.33045 0.0
H210 H 0.59017 0.63047 0.40941 0.0
H211 H 0.64115 0.69829 0.46853 0.0
O212 O 0.80736 0.71898 0.33462 0.0
O213 O 0.73331 0.76809 0.31197 0.0
O214 O 0.74677 0.80414 0.25549 0.0
O215 O 0.76265 0.65444 0.28714 0.0
O216 O 0.81633 0.76833 0.2754 0.0
O217 O 0.81343 0.82617 0.26332 0.0
O218 O 0.71884 0.77331 0.16454 0.0
O219 O 0.8135 0.73683 0.18399 0.0
O220 O 0.77909 0.68445 0.22394 0.0
O221 O 0.78052 0.82124 0.15009 0.0
O222 O 0.73566 0.70879 0.17948 0.0
O223 O 0.69927 0.69023 0.23991 0.0
C224 C 0.72988 0.79674 0.29407 0.0
C225 C 0.7945 0.65245 0.35162 0.0
C226 C 0.82816 0.61854 0.38441 0.0
C227 C 0.78984 0.59855 0.40489 0.0
C228 C 0.75655 0.63216 0.37241 0.0
C229 C 0.7542 0.60507 0.39853 0.0
C230 C 0.8304 0.64568 0.35781 0.0
C231 C 0.8262 0.81048 0.28961 0.0
C232 C 0.79523 0.67595 0.31903 0.0
C233 C 0.62151 0.65235 0.40043 0.0
C234 C 0.65055 0.691 0.43411 0.0
C235 C 0.80747 0.70112 0.19557 0.0
C236 C 0.72349 0.83946 0.15313 0.0
C237 C 0.675 0.86495 0.13154 0.0
C238 C 0.70217 0.90839 0.16017 0.0
C239 C 0.7493 0.88303 0.18246 0.0
C240 C 0.68562 0.8302 0.12826 0.0
C241 C 0.73867 0.91712 0.18575 0.0
C242 C 0.69923 0.69094 0.19761 0.0
C243 C 0.73848 0.80536 0.1459 0.0
H244 H 0.78722 0.57707 0.42495 0.0
H245 H 0.7283 0.6361 0.36732 0.0
H246 H 0.72442 0.58864 0.41354 0.0
H247 H 0.85936 0.66008 0.34069 0.0
H248 H 0.69451 0.93548 0.16342 0.0
H249 H 0.77823 0.89097 0.20237 0.0
H250 H 0.66503 0.79659 0.1061 0.0
H251 H 0.75874 0.95042 0.2084 0.0
Eu252 Eu 0.21792 0.78169 0.23609 0.0
C253 C 0.29799 0.6965 0.34023 0.0
N254 N 0.32036 0.73164 0.32355 0.0
C255 C 0.37452 0.76841 0.38772 0.0
C256 C 0.31182 0.69732 0.3829 0.0
C257 C 0.35945 0.76622 0.34546 0.0
C258 C 0.34999 0.73442 0.40714 0.0
C259 C 0.2419 0.61954 0.32765 0.0
C260 C 0.26375 0.65786 0.31269 0.0
C261 C 0.2537 0.62135 0.37132 0.0
C262 C 0.28866 0.66013 0.39886 0.0
Eu263 Eu 0.29299 0.72463 0.25106 0.0
N264 N 0.25379 0.65663 0.27012 0.0
C265 C 0.20971 0.57999 0.29777 0.0
C266 C 0.22373 0.61735 0.24021 0.0
C267 C 0.20091 0.57881 0.25369 0.0
H268 H 0.37912 0.79227 0.33023 0.0
H269 H 0.17632 0.54829 0.2301 0.0
H270 H 0.15736 0.73218 0.13636 0.0
H271 H 0.2756 0.96004 0.33113 0.0
H272 H 0.21584 0.61581 0.20638 0.0
H273 H 0.19205 0.55001 0.3081 0.0
H274 H 0.24258 0.87902 0.322 0.0
H275 H 0.40518 0.7962 0.40516 0.0
H276 H 0.2369 0.59244 0.38352 0.0
H277 H 0.2985 0.66043 0.43177 0.0
H278 H 0.15037 0.75046 0.06639 0.0
H279 H 0.36185 0.73614 0.43981 0.0
H280 H 0.2902 0.98632 0.26318 0.0
N281 N 0.20692 0.79785 0.17027 0.0
C282 C 0.22806 0.84113 0.17073 0.0
C283 C 0.17327 0.77605 0.09505 0.0
C284 C 0.22534 0.85326 0.13174 0.0
C285 C 0.17754 0.76577 0.13448 0.0
C286 C 0.1986 0.81969 0.093 0.0
N287 N 0.24297 0.85996 0.24983 0.0
C288 C 0.24989 0.89008 0.29212 0.0
C289 C 0.26408 0.91927 0.21557 0.0
C290 C 0.24683 0.8735 0.21212 0.0
C291 C 0.2765 0.9508 0.25898 0.0
C292 C 0.26803 0.93601 0.29742 0.0
H293 H 0.1951 0.82763 0.06254 0.0
H294 H 0.24548 0.90872 0.10415 0.0
H295 H 0.27982 0.96681 0.17781 0.0
O296 O 0.16285 0.79544 0.24336 0.0
O297 O 0.26505 0.77792 0.18422 0.0
O298 O 0.32034 0.78939 0.23124 0.0
O299 O 0.15252 0.72831 0.23594 0.0
O300 O 0.26927 0.82501 0.29931 0.0
O301 O 0.31267 0.79142 0.30298 0.0
O302 O 0.32617 0.71719 0.19065 0.0
O303 O 0.22127 0.69698 0.25529 0.0
O304 O 0.21373 0.75637 0.29709 0.0
O305 O 0.34599 0.70741 0.25125 0.0
O306 O 0.24877 0.68374 0.18596 0.0
O307 O 0.2103 0.72033 0.17627 0.0
C308 C 0.30639 0.79206 0.19383 0.0
C309 C 0.11554 0.757 0.28956 0.0
C310 C 0.12184 0.78987 0.37244 0.0
C311 C 0.07678 0.75937 0.37089 0.0
C312 C 0.07144 0.728 0.28905 0.0
C313 C 0.05221 0.72908 0.32981 0.0
C314 C 0.14067 0.78711 0.33086 0.0
C315 C 0.30162 0.8234 0.31837 0.0
C316 C 0.1362 0.75604 0.24721 0.0
C317 C 0.24636 0.89872 0.13396 0.0
C318 C 0.26577 0.93177 0.17593 0.0
C319 C 0.20681 0.71532 0.29079 0.0
C320 C 0.38577 0.70084 0.18516 0.0
C321 C 0.40984 0.67595 0.11203 0.0
C322 C 0.44818 0.68412 0.13593 0.0
C323 C 0.42307 0.70793 0.20827 0.0
C324 C 0.37983 0.68617 0.1376 0.0
C325 C 0.4546 0.70018 0.18346 0.0
C326 C 0.22197 0.68811 0.16191 0.0
C327 C 0.35302 0.70972 0.21003 0.0
H328 H 0.05899 0.75934 0.40066 0.0
H329 H 0.052 0.70473 0.25724 0.0
H330 H 0.01783 0.70694 0.32957 0.0
H331 H 0.17462 0.80942 0.32974 0.0
H332 H 0.47299 0.67687 0.11868 0.0
H333 H 0.428 0.71993 0.24524 0.0
H334 H 0.351 0.6817 0.12083 0.0
H335 H 0.48369 0.70573 0.20105 0.0
Eu336 Eu 0.22696 0.78511 0.76939 0.0
C337 C 0.3318 0.67612 0.63283 0.0
N338 N 0.29173 0.66113 0.64812 0.0
C339 C 0.26356 0.59805 0.5801 0.0
C340 C 0.33868 0.65483 0.58885 0.0
C341 C 0.25783 0.62184 0.62303 0.0
C342 C 0.30362 0.61562 0.56209 0.0
C343 C 0.40958 0.72305 0.65097 0.0
C344 C 0.36666 0.7091 0.66347 0.0
C345 C 0.41639 0.70567 0.60565 0.0
C346 C 0.38092 0.67127 0.57462 0.0
Eu347 Eu 0.2854 0.70276 0.7219 0.0
N348 N 0.35872 0.72302 0.7072 0.0
C349 C 0.4442 0.75127 0.68512 0.0
C350 C 0.39196 0.74571 0.74119 0.0
C351 C 0.43528 0.76137 0.7307 0.0
H352 H 0.22642 0.60871 0.63635 0.0
H353 H 0.46168 0.78074 0.75773 0.0
H354 H 0.27479 0.86909 0.86586 0.0
H355 H 0.06014 0.64464 0.72989 0.0
H356 H 0.38516 0.75196 0.77649 0.0
H357 H 0.4777 0.76286 0.67702 0.0
H358 H 0.13394 0.69026 0.71275 0.0
H359 H 0.23717 0.56617 0.5609 0.0
H360 H 0.44906 0.71638 0.59517 0.0
H361 H 0.38679 0.65598 0.54061 0.0
H362 H 0.25676 0.89436 0.9441 0.0
H363 H 0.30776 0.5974 0.52861 0.0
H364 H 0.0377 0.66493 0.80732 0.0
N365 N 0.21391 0.80971 0.84544 0.0
C366 C 0.17313 0.78584 0.85636 0.0
C367 C 0.23307 0.86361 0.91996 0.0
C368 C 0.16135 0.79936 0.90069 0.0
C369 C 0.24325 0.84898 0.87569 0.0
C370 C 0.19208 0.83844 0.9327 0.0
N371 N 0.15441 0.73668 0.77984 0.0
C372 C 0.12519 0.70008 0.74665 0.0
C373 C 0.10032 0.72299 0.83393 0.0
C374 C 0.14271 0.74831 0.82291 0.0
C375 C 0.07049 0.6853 0.80006 0.0
C376 C 0.08302 0.6738 0.7563 0.0
H377 H 0.18421 0.84994 0.96704 0.0
H378 H 0.10951 0.78407 0.94528 0.0
H379 H 0.05629 0.71714 0.88686 0.0
O380 O 0.18706 0.81575 0.76306 0.0
O381 O 0.22082 0.73809 0.80845 0.0
O382 O 0.21991 0.69175 0.74181 0.0
O383 O 0.25662 0.85744 0.78204 0.0
O384 O 0.20287 0.73952 0.69573 0.0
O385 O 0.23428 0.69151 0.66973 0.0
O386 O 0.29296 0.68684 0.7828 0.0
O387 O 0.32327 0.7722 0.71423 0.0
O388 O 0.26885 0.79183 0.70959 0.0
O389 O 0.26456 0.63368 0.71927 0.0
O390 O 0.31891 0.76079 0.78643 0.0
O391 O 0.29175 0.81264 0.8073 0.0
C392 C 0.2139 0.69801 0.78488 0.0
C393 C 0.2212 0.88343 0.74486 0.0
C394 C 0.189 0.88761 0.68031 0.0
C395 C 0.20571 0.93417 0.70096 0.0
C396 C 0.23797 0.92978 0.76533 0.0
C397 C 0.23098 0.95527 0.74286 0.0
C398 C 0.19972 0.86311 0.70082 0.0
C399 C 0.20818 0.7079 0.66384 0.0
C400 C 0.22001 0.85606 0.77259 0.0
C401 C 0.11914 0.77415 0.91144 0.0
C402 C 0.08881 0.73608 0.87821 0.0
C403 C 0.30908 0.79802 0.70517 0.0
C404 C 0.30888 0.62679 0.76814 0.0
C405 C 0.36147 0.6279 0.81722 0.0
C406 C 0.36535 0.59448 0.78174 0.0
C407 C 0.31272 0.59306 0.73287 0.0
C408 C 0.33333 0.64404 0.81044 0.0
C409 C 0.341 0.57714 0.73975 0.0
C410 C 0.31916 0.79812 0.81232 0.0
C411 C 0.28016 0.64468 0.76103 0.0
H412 H 0.19788 0.95384 0.68543 0.0
H413 H 0.25479 0.94584 0.79941 0.0
H414 H 0.24305 0.99089 0.75906 0.0
H415 H 0.18751 0.82752 0.68462 0.0
H416 H 0.387 0.58158 0.78681 0.0
H417 H 0.29409 0.57909 0.69994 0.0
H418 H 0.3305 0.66979 0.8381 0.0
H419 H 0.34396 0.55127 0.71256 0.0
Eu420 Eu 0.24729 0.20843 0.79456 0.0
C421 C 0.37335 0.34466 0.66034 0.0
N422 N 0.34522 0.349 0.69172 0.0
C423 C 0.39001 0.42889 0.71733 0.0
C424 C 0.41221 0.38265 0.65806 0.0
C425 C 0.35151 0.39058 0.71781 0.0
C426 C 0.42083 0.4248 0.68793 0.0
C427 C 0.38932 0.29893 0.59308 0.0
C428 C 0.36193 0.30292 0.62795 0.0
C429 C 0.42886 0.33627 0.59238 0.0
C430 C 0.44034 0.37794 0.62482 0.0
Eu431 Eu 0.28167 0.28165 0.68912 0.0
N432 N 0.32303 0.2671 0.6284 0.0
C433 C 0.37558 0.25788 0.55876 0.0
C434 C 0.30914 0.22741 0.59379 0.0
C435 C 0.33518 0.22209 0.55893 0.0
H436 H 0.32726 0.3937 0.74001 0.0
H437 H 0.32391 0.19037 0.53208 0.0
H438 H 0.17892 0.09546 0.75412 0.0
H439 H 0.25614 0.31225 0.96709 0.0
H440 H 0.27825 0.19918 0.59276 0.0
H441 H 0.39545 0.25383 0.53137 0.0
H442 H 0.28468 0.28315 0.89645 0.0
H443 H 0.39573 0.4616 0.7393 0.0
H444 H 0.45027 0.33352 0.56603 0.0
H445 H 0.47043 0.40672 0.62291 0.0
H446 H 0.10424 0.04219 0.76471 0.0
H447 H 0.4504 0.45464 0.68724 0.0
H448 H 0.17748 0.27245 0.97573 0.0
N449 N 0.17817 0.1519 0.80348 0.0
C450 C 0.15747 0.16625 0.83827 0.0
C451 C 0.11866 0.07709 0.78527 0.0
C452 C 0.11542 0.1367 0.84645 0.0
C453 C 0.16078 0.1073 0.77928 0.0
C454 C 0.09548 0.09209 0.8183 0.0
N455 N 0.2225 0.23479 0.86325 0.0
C456 C 0.25019 0.26916 0.89877 0.0
C457 C 0.16252 0.22226 0.90952 0.0
C458 C 0.18045 0.20895 0.86921 0.0
C459 C 0.18969 0.26146 0.94398 0.0
C460 C 0.23413 0.28419 0.9392 0.0
H461 H 0.06315 0.06843 0.82338 0.0
H462 H 0.0633 0.12963 0.89057 0.0
H463 H 0.10486 0.20433 0.94618 0.0
O464 O 0.31225 0.22559 0.82201 0.0
O465 O 0.22993 0.26709 0.80578 0.0
O466 O 0.25121 0.3086 0.75178 0.0
O467 O 0.25528 0.17435 0.83906 0.0
O468 O 0.292 0.26766 0.77251 0.0
O469 O 0.33526 0.32271 0.74725 0.0
O470 O 0.22833 0.29644 0.67986 0.0
O471 O 0.29636 0.22101 0.68009 0.0
O472 O 0.27218 0.17633 0.73073 0.0
O473 O 0.26355 0.28342 0.62302 0.0
O474 O 0.2347 0.22175 0.70945 0.0
O475 O 0.19565 0.1655 0.73367 0.0
C476 C 0.23215 0.29918 0.78898 0.0
C477 C 0.31607 0.16233 0.82901 0.0
C478 C 0.36426 0.13557 0.8478 0.0
C479 C 0.34586 0.09821 0.80856 0.0
C480 C 0.29802 0.12452 0.79002 0.0
C481 C 0.3131 0.0929 0.77976 0.0
C482 C 0.34953 0.16799 0.85789 0.0
C483 C 0.32943 0.30391 0.77906 0.0
C484 C 0.29747 0.19357 0.84078 0.0
C485 C 0.09579 0.1517 0.88413 0.0
C486 C 0.1194 0.19432 0.91576 0.0
C487 C 0.29291 0.18746 0.69504 0.0
C488 C 0.24189 0.3386 0.62829 0.0
C489 C 0.21224 0.38419 0.61219 0.0
C490 C 0.25426 0.4147 0.60571 0.0
C491 C 0.28367 0.36998 0.62197 0.0
C492 C 0.20619 0.3462 0.62393 0.0
C493 C 0.28973 0.40781 0.61104 0.0
C494 C 0.19749 0.18537 0.70359 0.0
C495 C 0.23573 0.29778 0.63841 0.0
H496 H 0.35683 0.073 0.80034 0.0
H497 H 0.27176 0.11907 0.76778 0.0
H498 H 0.29914 0.06405 0.74953 0.0
H499 H 0.3633 0.19668 0.88838 0.0
H500 H 0.25957 0.4441 0.59675 0.0
H501 H 0.31171 0.36507 0.62483 0.0
H502 H 0.17385 0.32249 0.62898 0.0
H503 H 0.32202 0.43167 0.60623 0.0
Eu504 Eu 0.71647 0.27089 0.74571 0.0
C505 C 0.78724 0.16658 0.82005 0.0
N506 N 0.81018 0.20819 0.81538 0.0
C507 C 0.84671 0.23656 0.89051 0.0
C508 C 0.7919 0.15892 0.86144 0.0
C509 C 0.84143 0.24237 0.84873 0.0
C510 C 0.82126 0.19483 0.89722 0.0
C511 C 0.7405 0.0868 0.7854 0.0
C512 C 0.7615 0.13092 0.78231 0.0
C513 C 0.74303 0.0795 0.82732 0.0
C514 C 0.76858 0.11547 0.86526 0.0
Eu515 Eu 0.79622 0.21547 0.74505 0.0
N516 N 0.75969 0.13879 0.74186 0.0
C517 C 0.71896 0.05106 0.7458 0.0
C518 C 0.74077 0.10387 0.70304 0.0
C519 C 0.71962 0.05961 0.70431 0.0
H520 H 0.86198 0.27438 0.84323 0.0
H521 H 0.70423 0.03211 0.6732 0.0
H522 H 0.62759 0.2141 0.66964 0.0
H523 H 0.8009 0.45306 0.82834 0.0
H524 H 0.74294 0.10997 0.67114 0.0
H525 H 0.70278 0.0167 0.74667 0.0
H526 H 0.76868 0.37407 0.82668 0.0
H527 H 0.87066 0.26412 0.91732 0.0
H528 H 0.72649 0.04591 0.83037 0.0
H529 H 0.77138 0.10906 0.89693 0.0
H530 H 0.59484 0.22866 0.61072 0.0
H531 H 0.82575 0.19025 0.92948 0.0
H532 H 0.78677 0.47198 0.76175 0.0
N533 N 0.67823 0.28121 0.69323 0.0
C534 C 0.69587 0.32332 0.68983 0.0
C535 C 0.62409 0.25516 0.63192 0.0
C536 C 0.68047 0.33238 0.65482 0.0
C537 C 0.64209 0.24728 0.66577 0.0
C538 C 0.64442 0.29737 0.62518 0.0
N539 N 0.73772 0.34807 0.759 0.0
C540 C 0.76206 0.3817 0.79736 0.0
C541 C 0.74449 0.40269 0.72329 0.0
C542 C 0.72701 0.35797 0.72377 0.0
C543 C 0.77246 0.43717 0.76083 0.0
C544 C 0.78048 0.42664 0.79849 0.0
H545 H 0.631 0.30303 0.59827 0.0
H546 H 0.68964 0.38384 0.6246 0.0
H547 H 0.74625 0.44551 0.68448 0.0
O548 O 0.70496 0.27307 0.81564 0.0
O549 O 0.7686 0.29344 0.70009 0.0
O550 O 0.81537 0.2623 0.69972 0.0
O551 O 0.65254 0.25922 0.7678 0.0
O552 O 0.78516 0.31614 0.78121 0.0
O553 O 0.79519 0.26793 0.8068 0.0
O554 O 0.86657 0.2575 0.74658 0.0
O555 O 0.74729 0.21586 0.79411 0.0
O556 O 0.69219 0.19915 0.74575 0.0
O557 O 0.83867 0.18537 0.73457 0.0
O558 O 0.75207 0.18321 0.67729 0.0
O559 O 0.70379 0.21365 0.68155 0.0
C560 C 0.80281 0.2882 0.68718 0.0
C561 C 0.64799 0.28787 0.84587 0.0
C562 C 0.6602 0.35558 0.90532 0.0
C563 C 0.6152 0.33723 0.90959 0.0
C564 C 0.60307 0.26944 0.85003 0.0
C565 C 0.58679 0.29396 0.88235 0.0
C566 C 0.67661 0.33006 0.87493 0.0
C567 C 0.80747 0.3085 0.80688 0.0
C568 C 0.66418 0.26375 0.80951 0.0
C569 C 0.70018 0.37637 0.652 0.0
C570 C 0.73235 0.4115 0.68613 0.0
C571 C 0.70657 0.19131 0.77873 0.0
C572 C 0.9048 0.21926 0.70627 0.0
C573 C 0.91759 0.18481 0.62964 0.0
C574 C 0.95732 0.19153 0.64898 0.0
C575 C 0.94461 0.22672 0.72396 0.0
C576 C 0.89158 0.19929 0.65928 0.0
C577 C 0.9708 0.21286 0.69529 0.0
C578 C 0.72042 0.18711 0.65957 0.0
C579 C 0.8739 0.22305 0.73853 0.0
H580 H 0.60198 0.35661 0.93325 0.0
H581 H 0.58068 0.23653 0.82783 0.0
H582 H 0.5521 0.27994 0.88543 0.0
H583 H 0.71132 0.34453 0.8719 0.0
H584 H 0.97792 0.17904 0.62909 0.0
H585 H 0.95423 0.24089 0.76039 0.0
H586 H 0.86007 0.19298 0.64699 0.0
H587 H 1.00083 0.21697 0.70926 0.0
Eu588 Eu 0.72655 0.72211 0.68625 0.0
C589 C 0.85379 0.86846 0.87652 0.0
N590 N 0.86198 0.84797 0.83482 0.0
C591 C 0.92779 0.91539 0.83755 0.0
C592 C 0.88204 0.91399 0.89972 0.0
C593 C 0.89941 0.87012 0.81616 0.0
C594 C 0.91878 0.93761 0.87921 0.0
C595 C 0.81192 0.86282 0.94246 0.0
C596 C 0.81878 0.84317 0.8977 0.0
C597 C 0.83891 0.90861 0.96465 0.0
C598 C 0.87375 0.93411 0.9433 0.0
Eu599 Eu 0.8106 0.77148 0.80279 0.0
N600 N 0.79284 0.79886 0.87565 0.0
C601 C 0.77915 0.83545 0.9643 0.0
C602 C 0.76289 0.77141 0.89759 0.0
C603 C 0.75516 0.78939 0.94213 0.0
H604 H 0.9074 0.85274 0.78472 0.0
H605 H 0.73059 0.76783 0.95922 0.0
H606 H 0.63355 0.63927 0.71059 0.0
H607 H 0.79787 0.7221 0.52498 0.0
H608 H 0.74445 0.73582 0.88025 0.0
H609 H 0.77299 0.84928 -0.00126 0.0
H610 H 0.7854 0.75585 0.60324 0.0
H611 H 0.95689 0.93296 0.82218 0.0
H612 H 0.83383 0.92435 -0.00113 0.0
H613 H 0.89493 0.9691 0.96141 0.0
H614 H 0.5864 0.55866 0.67678 0.0
H615 H 0.94116 0.97259 0.89597 0.0
H616 H 0.75773 0.64015 0.48923 0.0
N617 N 0.67691 0.64452 0.65814 0.0
C618 C 0.6836 0.62325 0.61588 0.0
C619 C 0.61399 0.57629 0.65962 0.0
C620 C 0.65589 0.57718 0.59438 0.0
C621 C 0.64165 0.62213 0.67926 0.0
C622 C 0.62138 0.5536 0.61726 0.0
N623 N 0.74102 0.69299 0.61238 0.0
C624 C 0.76856 0.71981 0.58827 0.0
C625 C 0.72162 0.62771 0.54729 0.0
C626 C 0.71631 0.64819 0.5924 0.0
C627 C 0.75236 0.65459 0.52357 0.0
C628 C 0.7753 0.70093 0.54377 0.0
H629 H 0.59938 0.51823 0.60183 0.0
H630 H 0.6414 0.52105 0.53321 0.0
H631 H 0.69885 0.5653 0.49204 0.0
O632 O 0.72524 0.77322 0.66061 0.0
O633 O 0.76643 0.68484 0.68646 0.0
O634 O 0.82908 0.73486 0.73688 0.0
O635 O 0.67021 0.70654 0.64366 0.0
O636 O 0.79776 0.76588 0.68405 0.0
O637 O 0.82903 0.81444 0.75586 0.0
O638 O 0.81546 0.72652 0.83635 0.0
O639 O 0.75978 0.79727 0.81622 0.0
O640 O 0.71908 0.77392 0.74702 0.0
O641 O 0.87261 0.78693 0.83424 0.0
O642 O 0.75119 0.70339 0.78142 0.0
O643 O 0.69563 0.7057 0.74843 0.0
C644 C 0.80615 0.6971 0.70361 0.0
C645 C 0.65447 0.7661 0.65358 0.0
C646 C 0.61592 0.80338 0.63623 0.0
C647 C 0.59325 0.79793 0.67495 0.0
C648 C 0.63138 0.76107 0.69216 0.0
C649 C 0.60106 0.77701 0.70275 0.0
C650 C 0.64661 0.78726 0.62544 0.0
C651 C 0.82437 0.80515 0.71153 0.0
C652 C 0.6851 0.74739 0.64201 0.0
C653 C 0.66236 0.5564 0.55012 0.0
C654 C 0.6951 0.58158 0.52664 0.0
C655 C 0.73135 0.79861 0.79042 0.0
C656 C 0.88417 0.7267 0.83523 0.0
C657 C 0.91818 0.68716 0.85702 0.0
C658 C 0.93973 0.68745 0.81713 0.0
C659 C 0.90622 0.72655 0.79558 0.0
C660 C 0.89018 0.70681 0.86608 0.0
C661 C 0.93366 0.70692 0.7866 0.0
C662 C 0.71021 0.69419 0.77792 0.0
C663 C 0.85762 0.7504 0.84578 0.0
H664 H 0.56948 0.81002 0.68366 0.0
H665 H 0.63662 0.74454 0.71401 0.0
H666 H 0.58346 0.77304 0.73257 0.0
H667 H 0.66392 0.79094 0.59534 0.0
H668 H 0.96135 0.67254 0.80964 0.0
H669 H 0.90254 0.74197 0.77161 0.0
H670 H 0.87378 0.70712 0.89706 0.0
H671 H 0.95044 0.70696 0.75593 0.0
Cd672 Cd 0.98222 0.95674 0.5417 0.0
Cd673 Cd 0.05378 0.0315 0.44257 0.0
C674 C 0.06439 0.95933 0.58431 0.0
N675 N 0.02924 0.93287 0.55299 0.0
C676 C 0.0357 0.8677 0.54812 0.0
C677 C 0.0724 0.89409 0.57985 0.0
C678 C 0.08659 0.94036 0.59851 0.0
C679 C 1.01407 0.88789 0.53545 0.0
H680 H 0.07403 0.99459 0.59951 0.0
H681 H 0.9845 0.86764 0.51251 0.0
C682 C 0.97136 0.92036 0.42285 0.0
C683 C 0.98463 0.04573 0.3989 0.0
C684 C 0.96288 0.06721 0.38938 0.0
C685 C 0.97212 0.11012 0.41813 0.0
C686 C 1.00484 0.13164 0.45432 0.0
C687 C 0.02661 0.10926 0.4619 0.0
N688 N 0.01505 0.06664 0.43524 0.0
H689 H 0.97767 0.01258 0.37715 0.0
H690 H 0.05193 0.12548 0.48966 0.0
C691 C 0.09281 0.96763 0.40117 0.0
N692 N 0.09233 0.99526 0.4423 0.0
C693 C 0.13686 0.97741 0.47921 0.0
C694 C 0.13425 0.94548 0.43797 0.0
C695 C 0.11366 0.94186 0.39818 0.0
C696 C 0.11504 0.00213 0.4807 0.0
H697 H 0.0755 0.96447 0.37117 0.0
H698 H 0.11514 0.02571 0.51253 0.0
C699 C 0.05817 0.06777 0.56576 0.0
C700 C 0.93044 0.90946 0.60004 0.0
N701 N 0.9343 0.98202 0.53557 0.0
C702 C 0.92509 0.00152 0.57697 0.0
C703 C 0.902 0.02508 0.58001 0.0
C704 C 0.88898 0.0285 0.5399 0.0
C705 C 0.89215 0.00167 0.49746 0.0
C706 C 0.91706 0.98001 0.496 0.0
C707 C 0.1114 0.07724 0.38656 0.0
O708 O 0.97633 0.91521 0.46083 0.0
O709 O 0.99207 0.95772 0.41473 0.0
O710 O 0.06122 0.06143 0.52349 0.0
O711 O 0.03318 0.03499 0.57988 0.0
O712 O 0.91996 0.89397 0.55731 0.0
O713 O 0.96428 0.94678 0.61536 0.0
O714 O 0.12233 0.08734 0.42875 0.0
O715 O 0.07422 0.04438 0.37003 0.0
H716 H 0.93901 0.00216 0.60779 0.0
H717 H 0.92526 0.96484 0.4636 0.0
H718 H 0.02383 0.83189 0.53344 0.0
H719 H 0.11469 0.96145 0.62353 0.0
H720 H 0.93784 0.04991 0.36096 0.0
H721 H 1.01258 0.16466 0.47711 0.0
H722 H 0.15343 0.98146 0.51018 0.0
H723 H 0.11121 0.91724 0.36603 0.0
H724 H 0.89982 0.04543 0.61322 0.0
H725 H 0.88059 0.00196 0.46586 0.0
Cd726 Cd 0.45974 0.97654 0.04774 0.0
Cd727 Cd 0.56539 0.0101 0.932 0.0
C728 C 0.54093 0.96765 0.08721 0.0
N729 N 0.50648 0.94631 0.05495 0.0
C730 C 0.51717 0.88097 0.03184 0.0
C731 C 0.55278 0.90243 0.06502 0.0
C732 C 0.56496 0.94653 0.09243 0.0
C733 C 0.49485 0.90398 0.02688 0.0
H734 H 0.54897 0.00038 0.10988 0.0
H735 H 0.46708 0.88739 0.00169 0.0
C736 C 0.46769 0.93343 0.92959 0.0
C737 C 0.4905 0.02749 0.89773 0.0
C738 C 0.46734 0.0493 0.89187 0.0
C739 C 0.47502 0.09029 0.92382 0.0
C740 C 0.50511 0.10785 0.9619 0.0
C741 C 0.52704 0.08448 0.96691 0.0
N742 N 0.52007 0.04525 0.93467 0.0
H743 H 0.48617 -0.00272 0.87151 0.0
H744 H 0.55076 0.09905 -0.00428 0.0
C745 C 0.5819 0.92162 0.87889 0.0
N746 N 0.60309 0.96388 0.90873 0.0
C747 C 0.66969 0.95771 0.90468 0.0
C748 C 0.64812 0.91345 0.87495 0.0
C749 C 0.60336 0.89549 0.86263 0.0
C750 C 0.64646 0.98205 0.92169 0.0
H751 H 0.54864 0.90859 0.86613 0.0
H752 H 0.66356 0.01611 0.94422 0.0
C753 C 0.56613 0.05948 0.04931 0.0
C754 C 0.40795 0.91157 0.09007 0.0
N755 N 0.42411 0.0247 0.0775 0.0
C756 C 0.42313 0.03928 0.1237 0.0
C757 C 0.40136 0.06464 0.14327 0.0
C758 C 0.38124 0.07728 0.11569 0.0
C759 C 0.38268 0.06145 0.0681 0.0
C760 C 0.40382 0.03511 0.04972 0.0
C761 C 0.6124 0.06351 0.8759 0.0
O762 O 0.4755 0.95886 0.97017 0.0
O763 O 0.49773 0.94395 0.90333 0.0
O764 O 0.57663 0.03333 0.01847 0.0
O765 O 0.5274 0.04635 0.06091 0.0
O766 O 0.39646 0.9064 0.04915 0.0
O767 O 0.44202 0.9473 0.11077 0.0
O768 O 0.62859 0.07175 0.91571 0.0
O769 O 0.5757 0.0292 0.86177 0.0
H770 H 0.43892 0.03078 0.14574 0.0
H771 H 0.40378 0.02286 0.01309 0.0
H772 H 0.50636 0.84664 0.01064 0.0
H773 H 0.59186 0.96384 0.11889 0.0
H774 H 0.44475 0.03512 0.86169 0.0
H775 H 0.51221 0.13974 0.98695 0.0
H776 H 0.70433 0.97347 0.91442 0.0
H777 H 0.58551 0.86206 0.83889 0.0
H778 H 0.40069 0.07469 0.18 0.0
H779 H 0.36675 0.06875 0.0451 0.0
Cd780 Cd 0.97242 0.49105 0.06067 0.0
Cd781 Cd 0.07049 0.51053 0.93271 0.0
C782 C 0.03894 0.47047 0.10927 0.0
N783 N 1.01398 0.45638 0.06956 0.0
C784 C 0.02718 0.39307 0.04147 0.0
C785 C 0.05266 0.40652 0.08225 0.0
C786 C 0.05977 0.44666 0.11576 0.0
C787 C 1.00847 0.41889 0.03562 0.0
H788 H 0.04216 0.4998 0.13626 0.0
H789 H 0.98803 0.40796 0.0047 0.0
C790 C 0.9609 0.44306 0.92989 0.0
C791 C 0.02985 0.56266 0.89382 0.0
C792 C 1.00722 0.58574 0.89072 0.0
C793 C 0.98249 0.59448 0.92592 0.0
C794 C 0.98127 0.57997 0.96393 0.0
C795 C 1.00458 0.55688 0.96562 0.0
N796 N 0.02822 0.54831 0.93062 0.0
H797 H 0.04817 0.55573 0.86636 0.0
H798 H 1.00378 0.54619 -0.00483 0.0
C799 C 0.0905 0.43006 0.86973 0.0
N800 N 0.10015 0.45731 0.91387 0.0
C801 C 0.15133 0.43201 0.92568 0.0
C802 C 0.1429 0.4048 0.87976 0.0
C803 C 0.11144 0.40369 0.85205 0.0
C804 C 0.12983 0.45832 0.94197 0.0
H805 H 0.06756 0.43004 0.84744 0.0
H806 H 0.13808 0.48068 0.97663 0.0
C807 C 0.07688 0.55212 0.05375 0.0
C808 C 0.91187 0.43081 0.10666 0.0
N809 N 0.94288 0.5442 0.08214 0.0
C810 C 0.9675 0.5891 0.10336 0.0
C811 C 0.94767 0.61693 0.12 0.0
C812 C 0.90192 0.59859 0.11543 0.0
C813 C 0.87755 0.5524 0.09265 0.0
C814 C 0.89862 0.52592 0.0763 0.0
C815 C 0.12798 0.56456 0.8798 0.0
O816 O 0.96359 0.45852 0.97355 0.0
O817 O 0.9953 0.45315 0.90872 0.0
O818 O 0.06164 0.52802 0.01315 0.0
O819 O 0.0503 0.54988 0.08423 0.0
O820 O 0.90605 0.42302 0.06389 0.0
O821 O 0.9442 0.46762 0.12833 0.0
O822 O 0.12978 0.5807 0.92305 0.0
O823 O 0.1021 0.52308 0.86274 0.0
H824 H 1.00251 0.60329 0.10853 0.0
H825 H 0.87933 0.49022 0.05999 0.0
H826 H 0.02096 0.36228 0.01489 0.0
H827 H 0.07943 0.45817 0.14754 0.0
H828 H 1.00902 0.59673 0.86099 0.0
H829 H 0.96271 0.58657 0.99193 0.0
H830 H 0.17526 0.43389 0.94834 0.0
H831 H 0.10385 0.38331 0.81654 0.0
H832 H 0.96782 0.65231 0.13738 0.0
H833 H 0.84231 0.53668 0.08837 0.0
Cd834 Cd 0.4812 0.44367 0.03334 0.0
Cd835 Cd 0.54856 0.52608 0.9339 0.0
C836 C 0.56227 0.43114 0.04958 0.0
N837 N 0.52296 0.4085 0.02487 0.0
C838 C 0.52101 0.33808 0.01503 0.0
C839 C 0.56016 0.36065 0.04313 0.0
C840 C 0.5823 0.40773 0.05799 0.0
C841 C 0.50294 0.36315 0.00582 0.0
H842 H 0.57577 0.46663 0.06663 0.0
H843 H 0.47085 0.34626 0.98768 0.0
C844 C 0.4731 0.41643 0.91017 0.0
C845 C 0.4702 0.53484 0.89998 0.0
C846 C 0.44977 0.55739 0.88986 0.0
C847 C 0.46408 0.60282 0.91438 0.0
C848 C 0.49963 0.62488 0.94751 0.0
C849 C 0.52026 0.6015 0.95515 0.0
N850 N 0.5044 0.55711 0.93253 0.0
H851 H 0.46021 0.50025 0.88047 0.0
H852 H 0.54912 0.61876 0.97902 0.0
C853 C 0.59417 0.4746 0.95603 0.0
N854 N 0.60326 0.51603 0.95543 0.0
C855 C 0.6789 0.54477 0.97602 0.0
C856 C 0.6707 0.50195 0.97564 0.0
C857 C 0.62754 0.46683 0.96642 0.0
C858 C 0.64428 0.55113 0.9657 0.0
H859 H 0.56124 0.44751 0.94745 0.0
H860 H 0.65017 0.58383 0.96521 0.0
C861 C 0.56128 0.55477 0.05972 0.0
C862 C 0.42825 0.40134 0.09439 0.0
N863 N 0.43826 0.47537 0.02883 0.0
C864 C 0.43627 0.50165 0.07031 0.0
C865 C 0.4171 0.52886 0.07349 0.0
C866 C 0.40138 0.52973 0.03333 0.0
C867 C 0.40046 0.49988 0.9913 0.0
C868 C 0.41929 0.47252 0.98979 0.0
C869 C 0.60019 0.57432 0.87598 0.0
O870 O 0.47585 0.42582 0.953 0.0
O871 O 0.49606 0.44734 0.89265 0.0
O872 O 0.56428 0.55648 0.01879 0.0
O873 O 0.53744 0.51854 0.06896 0.0
O874 O 0.4225 0.38035 0.05195 0.0
O875 O 0.46011 0.44052 0.10777 0.0
O876 O 0.59737 0.5939 0.91673 0.0
O877 O 0.57996 0.53176 0.86199 0.0
H878 H 0.45243 0.50411 0.10064 0.0
H879 H 0.42098 0.45152 0.95719 0.0
H880 H 0.50287 0.30179 0.00399 0.0
H881 H 0.61224 0.42588 0.08049 0.0
H882 H 0.42272 0.53953 0.86353 0.0
H883 H 0.51159 0.65987 0.96694 0.0
H884 H 0.71162 0.57253 0.98309 0.0
H885 H 0.61992 0.43307 0.96481 0.0
H886 H 0.41897 0.55253 0.10618 0.0
H887 H 0.38857 0.50024 0.9598 0.0
Cd888 Cd 0.9686 0.48277 0.55651 0.0
Cd889 Cd 0.07755 0.52304 0.4355 0.0
C890 C 0.02852 0.4602 0.61229 0.0
N891 N 0.01997 0.46034 0.56978 0.0
C892 C 0.06941 0.43153 0.53964 0.0
C893 C 0.07845 0.43074 0.58301 0.0
C894 C 0.05722 0.44472 0.61952 0.0
C895 C 0.03933 0.44572 0.53362 0.0
H896 H 1.01311 0.47207 0.6407 0.0
H897 H 0.03193 0.44529 0.49994 0.0
C898 C 0.97547 0.44706 0.43162 0.0
C899 C 1.00612 0.53232 0.37697 0.0
C900 C 0.97631 0.54666 0.36982 0.0
C901 C 0.96258 0.56982 0.40738 0.0
C902 C 0.98011 0.57882 0.45136 0.0
C903 C 1.01118 0.56556 0.45676 0.0
N904 N 0.02337 0.54231 0.41997 0.0
H905 H 0.01476 0.51243 0.34829 0.0
H906 H 0.02545 0.57385 0.49053 0.0
C907 C 0.09756 0.44016 0.37038 0.0
N908 N 0.11189 0.47226 0.41211 0.0
C909 C 0.16818 0.45175 0.41997 0.0
C910 C 0.15415 0.41868 0.37692 0.0
C911 C 0.11789 0.41298 0.35242 0.0
C912 C 0.14676 0.47813 0.43681 0.0
H913 H 0.07074 0.43619 0.35021 0.0
H914 H 0.15896 0.504 0.46931 0.0
C915 C 0.06814 0.56089 0.55684 0.0
C916 C 0.90706 0.4102 0.58647 0.0
N917 N 0.93425 0.53262 0.58262 0.0
C918 C 0.95593 0.57318 0.61543 0.0
C919 C 0.93581 0.60048 0.63354 0.0
C920 C 0.89217 0.58581 0.61912 0.0
C921 C 0.87039 0.54376 0.58552 0.0
C922 C 0.89201 0.51786 0.56765 0.0
C923 C 0.1292 0.58905 0.39259 0.0
O924 O 0.98124 0.46644 0.47443 0.0
O925 O 1.00682 0.46185 0.40751 0.0
O926 O 0.05979 0.53468 0.51618 0.0
O927 O 0.03967 0.55017 0.58502 0.0
O928 O 0.90571 0.4068 0.54422 0.0
O929 O 0.93511 0.4472 0.61338 0.0
O930 O 0.12291 0.60034 0.43461 0.0
O931 O 0.11644 0.54758 0.37319 0.0
H932 H 0.9887 0.58416 0.62868 0.0
H933 H 0.87441 0.48528 0.5426 0.0
H934 H 0.08537 0.42117 0.51075 0.0
H935 H 0.06363 0.44464 0.65349 0.0
H936 H 0.96317 0.53873 0.33537 0.0
H937 H 0.97018 0.59635 0.48122 0.0
H938 H 0.1959 0.45754 0.44025 0.0
H939 H 0.10579 0.38811 0.3191 0.0
H940 H 0.95386 0.63234 0.65967 0.0
H941 H 0.83669 0.5308 0.5735 0.0
Cd942 Cd 0.46797 0.98543 0.56104 0.0
Cd943 Cd 0.56804 0.01145 0.43742 0.0
C944 C 0.52621 0.95394 0.6066 0.0
N945 N 0.51306 0.95168 0.56469 0.0
C946 C 0.54364 0.90289 0.52845 0.0
C947 C 0.55544 0.90301 0.57125 0.0
C948 C 0.54744 0.9297 0.61065 0.0
C949 C 0.5221 0.92733 0.52594 0.0
H950 H 0.51927 0.97366 0.63706 0.0
H951 H 0.51203 0.92591 0.49285 0.0
C952 C 0.4595 0.93353 0.43209 0.0
C953 C 0.48606 0.02777 0.40959 0.0
C954 C 0.46364 0.05086 0.40618 0.0
C955 C 0.48444 0.09765 0.42269 0.0
C956 C 0.52642 0.11996 0.44555 0.0
C957 C 0.54684 0.09505 0.45012 0.0
N958 N 0.52683 0.04951 0.43166 0.0
H959 H 0.47104 0.99283 0.39271 0.0
H960 H 0.5796 0.11238 0.46652 0.0
C961 C 0.58027 0.9225 0.37944 0.0
N962 N 0.59943 0.95972 0.41657 0.0
C963 C 0.65922 0.94366 0.42103 0.0
C964 C 0.64059 0.90561 0.38212 0.0
C965 C 0.6001 0.89494 0.36191 0.0
C966 C 0.63811 0.97024 0.43769 0.0
H967 H 0.55008 0.91483 0.36231 0.0
H968 H 0.65348 0.0002 0.46666 0.0
C969 C 0.56961 0.05198 0.55802 0.0
C970 C 0.40993 0.92598 0.60846 0.0
N971 N 0.43376 0.03536 0.57834 0.0
C972 C 0.4567 0.08084 0.59741 0.0
C973 C 0.43504 0.10709 0.61316 0.0
C974 C 0.38909 0.0867 0.61016 0.0
C975 C 0.36641 0.03995 0.58931 0.0
C976 C 0.38926 0.01505 0.57368 0.0
C977 C 0.63016 0.07526 0.39659 0.0
O978 O 0.46041 0.94994 0.47534 0.0
O979 O 0.49464 0.9466 0.41239 0.0
O980 O 0.55495 0.027 0.51742 0.0
O981 O 0.54298 0.04784 0.58849 0.0
O982 O 0.40356 0.91716 0.56562 0.0
O983 O 0.44151 0.96362 0.62964 0.0
O984 O 0.63472 0.0818 0.43946 0.0
O985 O 0.59908 0.03805 0.37325 0.0
H986 H 0.4919 0.09682 0.60193 0.0
H987 H 0.37118 0.97896 0.55925 0.0
H988 H 0.54982 0.88302 0.49738 0.0
H989 H 0.55651 0.93079 0.64424 0.0
H990 H 0.43132 0.03251 0.38813 0.0
H991 H 0.54362 0.15626 0.45861 0.0
H992 H 0.69041 0.9534 0.43772 0.0
H993 H 0.58449 0.86612 0.33185 0.0
H994 H 0.45409 0.14293 0.6291 0.0
H995 H 0.33113 0.02253 0.58633 0.0
C996 C 0.18273 0.11876 0.29533 0.0
C997 C 0.19012 0.16392 0.30905 0.0
C998 C 0.14577 0.15149 0.37312 0.0
C999 C 0.13822 0.10642 0.35939 0.0
N1000 N 0.14394 0.04459 0.30504 0.0
N1001 N 0.17288 0.22118 0.35618 0.0
C1002 C 0.15497 0.08922 0.31965 0.0
C1003 C 0.16967 0.17947 0.34629 0.0
N1004 N 0.20212 0.10416 0.25894 0.0
N1005 N 0.1307 0.16805 0.41242 0.0
H1006 H 0.19453 0.24516 0.34191 0.0
H1007 H 0.15314 0.23175 0.37748 0.0
H1008 H 0.10889 0.14816 0.43077 0.0
H1009 H 0.14143 0.20213 0.42847 0.0
H1010 H 0.20252 0.07358 0.25022 0.0
H1011 H 0.21926 0.12331 0.23769 0.0
H1012 H 0.15041 0.02846 0.27358 0.0
H1013 H 0.1262 0.02267 0.32361 0.0
C1014 C 0.86756 0.11066 0.39752 0.0
C1015 C 0.8813 0.13388 0.36507 0.0
C1016 C 0.95737 0.16287 0.39159 0.0
C1017 C 0.94305 0.12858 0.41255 0.0
N1018 N 0.88493 0.07253 0.43988 0.0
N1019 N 0.93852 0.18976 0.33646 0.0
C1020 C 0.89824 0.10448 0.41837 0.0
C1021 C 0.92604 0.16372 0.36488 0.0
N1022 N 0.82474 0.09229 0.40568 0.0
N1023 N 1.00059 0.19281 0.39543 0.0
H1024 H 0.91633 0.19223 0.31764 0.0
H1025 H 0.97072 0.20819 0.3306 0.0
H1026 H 0.02436 0.19162 0.41322 0.0
H1027 H 1.01256 0.22102 0.38436 0.0
H1028 H 0.81293 0.07736 0.43142 0.0
H1029 H 0.80197 0.09606 0.38911 0.0
H1030 H 0.85248 0.04997 0.44063 0.0
H1031 H 0.90732 0.06732 0.45477 0.0
C1032 C 0.86023 0.8619 0.36614 0.0
C1033 C 0.86546 0.84123 0.32132 0.0
C1034 C 0.94232 0.86862 0.34376 0.0
C1035 C 0.93479 0.88432 0.38971 0.0
N1036 N 0.88158 0.87888 0.44503 0.0
N1037 N 0.91085 0.82173 0.26649 0.0
C1038 C 0.89215 0.87537 0.40118 0.0
C1039 C 0.90639 0.84343 0.30971 0.0
N1040 N 0.82551 0.86994 0.37522 0.0
N1041 N 0.98369 0.87793 0.33296 0.0
H1042 H 0.886 0.80557 0.24 0.0
H1043 H 0.9385 0.81813 0.25732 0.0
H1044 H 1.00964 0.89246 0.35799 0.0
H1045 H 0.99234 0.87244 0.29962 0.0
H1046 H 0.82217 0.88799 0.4075 0.0
H1047 H 0.80338 0.86347 0.34922 0.0
H1048 H 0.84988 0.87026 0.45376 0.0
H1049 H 0.90312 0.88578 0.47172 0.0
C1050 C 0.12006 0.83681 0.44829 0.0
C1051 C 0.14641 0.82856 0.41502 0.0
C1052 C 0.18223 0.9086 0.42174 0.0
C1053 C 0.14361 0.90917 0.43798 0.0
N1054 N 0.07102 0.86783 0.45863 0.0
N1055 N 0.22215 0.8657 0.40281 0.0
C1056 C 0.11137 0.87211 0.45033 0.0
C1057 C 0.18424 0.86752 0.4116 0.0
N1058 N 0.10034 0.80863 0.47373 0.0
N1059 N 0.21522 0.94593 0.41407 0.0
H1060 H 0.22394 0.83632 0.39845 0.0
H1061 H 0.25198 0.89365 0.40416 0.0
H1062 H 0.21424 0.97633 0.42238 0.0
H1063 H 0.24282 0.94647 0.39883 0.0
H1064 H 0.08017 0.81391 0.49851 0.0
H1065 H 0.10661 0.78179 0.47067 0.0
H1066 H 0.0454 0.83716 0.45958 0.0
H1067 H 0.06238 0.89261 0.45948 0.0
C1068 C 0.17 0.88085 0.60225 0.0
C1069 C 0.1566 0.86512 0.64011 0.0
C1070 C 0.0816 0.84625 0.62022 0.0
C1071 C 0.0982 0.87478 0.59216 0.0
N1072 N 0.15739 0.91607 0.55257 0.0
N1073 N 0.09831 0.82253 0.67959 0.0
C1074 C 0.14195 0.89003 0.58089 0.0
C1075 C 0.11165 0.84306 0.64631 0.0
N1076 N 0.21059 0.88951 0.58917 0.0
N1077 N 0.03781 0.82391 0.62342 0.0
H1078 H 0.11859 0.81659 0.69707 0.0
H1079 H 0.06721 0.81156 0.69048 0.0
H1080 H 0.01484 0.82751 0.60733 0.0
H1081 H 0.02354 0.79905 0.63935 0.0
H1082 H 0.22168 0.89835 0.55974 0.0
H1083 H 0.23133 0.88334 0.60598 0.0
H1084 H 0.19011 0.93242 0.54714 0.0
H1085 H 0.13735 0.92308 0.53617 0.0
C1086 C 0.11609 0.1447 0.68032 0.0
C1087 C 0.15965 0.16629 0.66822 0.0
C1088 C 0.13064 0.13857 0.58754 0.0
C1089 C 0.08921 0.11106 0.59938 0.0
N1090 N 0.03849 0.10565 0.65595 0.0
N1091 N 0.20503 0.19377 0.61128 0.0
C1092 C 0.08068 0.11975 0.64562 0.0
C1093 C 0.16577 0.16647 0.6222 0.0
N1094 N 0.10827 0.14748 0.72481 0.0
N1095 N 0.137 0.13729 0.54306 0.0
H1096 H 0.23193 0.21217 0.63467 0.0
H1097 H 0.21052 0.2005 0.5802 0.0
H1098 H 0.11207 0.12904 0.51942 0.0
H1099 H 0.16713 0.14634 0.52993 0.0
H1100 H 0.07871 0.12685 0.73475 0.0
H1101 H 0.13152 0.16983 0.75213 0.0
H1102 H 0.02949 0.11373 0.68887 0.0
H1103 H 1.0126 0.0902 0.63056 0.0
C1104 C 0.85899 0.12212 0.56901 0.0
C1105 C 0.90194 0.15787 0.58028 0.0
C1106 C 0.93083 0.1087 0.54261 0.0
C1107 C 0.89011 0.07126 0.54331 0.0
N1108 N 0.81279 0.04142 0.54898 0.0
N1109 N 0.9704 0.18636 0.54855 0.0
C1110 C 0.85288 0.07744 0.55305 0.0
C1111 C 0.93342 0.15108 0.55372 0.0
N1112 N 0.82547 0.13124 0.567 0.0
N1113 N 0.9686 0.10619 0.53611 0.0
H1114 H 0.97463 0.21913 0.55977 0.0
H1115 H 0.97463 0.21913 0.55977 0.0
H1116 H 0.97122 0.07688 0.53002 0.0
H1117 H 0.97122 0.07688 0.53002 0.0
H1118 H 0.79471 0.10633 0.5514 0.0
H1119 H 0.83079 0.16423 0.57463 0.0
H1120 H 0.7853 0.04467 0.56003 0.0
H1121 H 0.80782 0.00846 0.53581 0.0
C1122 C 0.84377 0.86581 0.67717 0.0
C1123 C 0.85615 0.83782 0.69045 0.0
C1124 C 0.92183 0.86365 0.65102 0.0
C1125 C 0.90492 0.88481 0.63099 0.0
N1126 N 0.84758 0.90285 0.62134 0.0
N1127 N 0.90646 0.80834 0.68937 0.0
C1128 C 0.86504 0.88478 0.64275 0.0
C1129 C 0.89521 0.83638 0.67745 0.0
N1130 N 0.81341 0.87621 0.69952 0.0
N1131 N 0.96342 0.87012 0.6455 0.0
H1132 H 0.88967 0.79066 0.71176 0.0
H1133 H 0.93129 0.80129 0.67555 0.0
H1134 H 0.98356 0.88845 0.62493 0.0
H1135 H 0.97914 0.86051 0.66453 0.0
H1136 H 0.80447 0.8986 0.69328 0.0
H1137 H 0.8024 0.86727 0.72894 0.0
H1138 H 0.81636 0.89947 0.62567 0.0
H1139 H 0.86289 0.91819 0.59664 0.0
C1140 C 0.3032 0.13041 0.13194 0.0
C1141 C 0.3187 0.16393 0.17549 0.0
C1142 C 0.37944 0.14558 0.17538 0.0
C1143 C 0.3594 0.10693 0.13635 0.0
N1144 N 0.29223 0.05658 0.0871 0.0
N1145 N 0.36304 0.18664 0.24465 0.0
C1146 C 0.31815 0.09738 0.11757 0.0
C1147 C 0.35471 0.16702 0.19884 0.0
N1148 N 0.27737 0.13207 0.10207 0.0
N1149 N 0.42224 0.16307 0.18991 0.0
H1150 H 0.33956 0.19253 0.26346 0.0
H1151 H 0.38826 0.18875 0.26351 0.0
H1152 H 0.44271 0.15126 0.1718 0.0
H1153 H 0.43822 0.19278 0.21673 0.0
H1154 H 0.26716 0.10982 0.069 0.0
H1155 H 0.27387 0.16063 0.10797 0.0
H1156 H 0.26081 0.04763 0.07507 0.0
H1157 H 0.29991 0.0302 0.07855 0.0
C1158 C 0.847 0.32089 0.13552 0.0
C1159 C 0.83374 0.33624 0.17879 0.0
C1160 C 0.86568 0.41181 0.17055 0.0
C1161 C 0.88348 0.39768 0.13023 0.0
N1162 N 0.89945 0.34045 0.08053 0.0
N1163 N 0.84142 0.39965 0.24239 0.0
C1164 C 0.87642 0.35262 0.11427 0.0
C1165 C 0.84597 0.38263 0.19767 0.0
N1166 N 0.83062 0.27597 0.11398 0.0
N1167 N 0.86662 0.45272 0.18258 0.0
H1168 H 0.82945 0.37996 0.264 0.0
H1169 H 0.85406 0.43392 0.25913 0.0
H1170 H 0.8793 0.47439 0.16273 0.0
H1171 H 0.85088 0.46309 0.20971 0.0
H1172 H 0.83629 0.26284 0.08068 0.0
H1173 H 0.80769 0.25184 0.12764 0.0
H1174 H 0.89907 0.30941 0.07137 0.0
H1175 H 0.9224 0.36278 0.06498 0.0
C1176 C 0.63296 0.85588 0.0616 0.0
C1177 C 0.63442 0.85734 0.10812 0.0
C1178 C 0.57018 0.86953 0.11772 0.0
C1179 C 0.57505 0.87827 0.07522 0.0
N1180 N 0.6042 0.87145 0.00223 0.0
N1181 N 0.60177 0.85997 0.17919 0.0
C1182 C 0.60381 0.86798 0.0453 0.0
C1183 C 0.60151 0.86149 0.13541 0.0
N1184 N 0.66064 0.84474 0.03399 0.0
N1185 N 0.53505 0.86834 0.14069 0.0
H1186 H 0.62224 0.85083 0.19184 0.0
H1187 H 0.58299 0.86912 0.20332 0.0
H1188 H 0.51117 0.87327 0.12787 0.0
H1189 H 0.52722 0.85834 0.16994 0.0
H1190 H 0.6603 0.84049 -0.00083 0.0
H1191 H 0.68276 0.83689 0.04556 0.0
H1192 H 0.62294 0.86312 0.97773 0.0
H1193 H 0.58486 0.88222 0.9902 0.0
C1194 C 0.181 0.66178 0.08537 0.0
C1195 C 0.20018 0.65271 0.11736 0.0
C1196 C 0.15106 0.57291 0.08491 0.0
C1197 C 0.12356 0.58441 0.06541 0.0
N1198 N 0.11597 0.63786 0.03765 0.0
N1199 N 0.22305 0.59891 0.12053 0.0
C1200 C 0.14007 0.6281 0.06166 0.0
C1201 C 0.19143 0.6078 0.1093 0.0
N1202 N 0.20389 0.70092 0.07526 0.0
N1203 N 0.13818 0.52903 0.08054 0.0
H1204 H 0.25478 0.62426 0.13226 0.0
H1205 H 0.2196 0.5667 0.11299 0.0
H1206 H 0.11095 0.50297 0.05886 0.0
H1207 H 0.15406 0.51871 0.09846 0.0
H1208 H 0.19429 0.70702 0.0477 0.0
H1209 H 0.23476 0.72483 0.0918 0.0
H1210 H 0.12493 0.67034 0.03755 0.0
H1211 H 0.08635 0.61334 0.019 0.0
C1212 C 0.34875 0.84693 0.89367 0.0
C1213 C 0.35559 0.8282 0.84811 0.0
C1214 C 0.43103 0.85993 0.87292 0.0
C1215 C 0.42739 0.89056 0.91205 0.0
N1216 N 0.37859 0.91377 0.95865 0.0
N1217 N 0.40965 0.83693 0.79377 0.0
C1218 C 0.38497 0.8841 0.92306 0.0
C1219 C 0.39849 0.83941 0.83713 0.0
N1220 N 0.30876 0.82913 0.90913 0.0
N1221 N 0.46639 0.85281 0.8688 0.0
H1222 H 0.38733 0.82818 0.76693 0.0
H1223 H 0.44213 0.84881 0.78648 0.0
H1224 H 0.48915 0.86547 0.89681 0.0
H1225 H 0.46943 0.83045 0.83955 0.0
H1226 H 0.3036 0.84 0.94326 0.0
H1227 H 0.28211 0.80096 0.88867 0.0
H1228 H 0.34783 0.91146 0.96415 0.0
H1229 H 0.40374 0.94194 0.98077 0.0
C1230 C 0.16492 0.30537 0.81918 0.0
C1231 C 0.21032 0.32698 0.81394 0.0
C1232 C 0.21177 0.4004 0.85136 0.0
C1233 C 0.16723 0.37827 0.85984 0.0
N1234 N 0.10386 0.30913 0.85882 0.0
N1235 N 0.27799 0.39595 0.82874 0.0
C1236 C 0.14468 0.33058 0.84589 0.0
C1237 C 0.234 0.37478 0.83113 0.0
N1238 N 0.14025 0.26105 0.79571 0.0
N1239 N 0.23239 0.44601 0.86059 0.0
H1240 H 0.2951 0.37939 0.81154 0.0
H1241 H 0.29817 0.42959 0.84618 0.0
H1242 H 0.21761 0.46591 0.87537 0.0
H1243 H 0.26297 0.46401 0.85059 0.0
H1244 H 0.10638 0.24416 0.79402 0.0
H1245 H 0.15336 0.24257 0.77344 0.0
H1246 H 0.08745 0.2747 0.85399 0.0
H1247 H 0.08802 0.32628 0.87831 0.0
C1248 C 0.6766 0.17304 0.8505 0.0
C1249 C 0.67725 0.15877 0.80213 0.0
C1250 C 0.63559 0.08046 0.8017 0.0
C1251 C 0.63287 0.09547 0.8494 0.0
N1252 N 0.63534 0.15596 0.9137 0.0
N1253 N 0.64854 0.09868 0.73058 0.0
C1254 C 0.64866 0.1417 0.87219 0.0
C1255 C 0.6533 0.11243 0.77725 0.0
N1256 N 0.70293 0.21608 0.87656 0.0
N1257 N 0.62375 0.03623 0.78022 0.0
H1258 H 0.66298 0.12038 0.71107 0.0
H1259 H 0.62765 0.06593 0.71109 0.0
H1260 H 0.61379 0.01237 0.79744 0.0
H1261 H 0.62777 0.02382 0.7461 0.0
H1262 H 0.70663 0.22579 0.91215 0.0
H1263 H 0.72396 0.24129 0.86347 0.0
H1264 H 0.64285 0.1894 0.92945 0.0
H1265 H 0.61223 0.13402 0.92953 0.0
C1266 C 0.96448 0.69069 0.91914 0.0
C1267 C 0.9261 0.66585 0.88836 0.0
C1268 C 0.91664 0.59589 0.89886 0.0
C1269 C 0.95902 0.61969 0.92215 0.0
N1270 N 0.02049 0.68946 0.9621 0.0
N1271 N 0.86261 0.59618 0.85235 0.0
C1272 C 0.98178 0.66725 0.93535 0.0
C1273 C 0.9007 0.61889 0.88017 0.0
N1274 N 0.98462 0.73652 0.93156 0.0
N1275 N 0.89207 0.55129 0.89448 0.0
H1276 H 0.8494 0.61254 0.83997 0.0
H1277 H 0.84462 0.56139 0.84046 0.0
H1278 H 0.90338 0.53385 0.90758 0.0
H1279 H 0.85955 0.53237 0.8813 0.0
H1280 H 1.01235 0.75754 0.95439 0.0
H1281 H 0.97189 0.75393 0.9204 0.0
H1282 H 0.04051 0.72394 0.97161 0.0
H1283 H 0.03295 0.6729 0.9752 0.0
C1284 C 0.07316 0.33224 0.13643 0.0
C1285 C 0.09255 0.31297 0.10106 0.0
C1286 C 0.09634 0.36435 0.05997 0.0
C1287 C 0.06927 0.37693 0.09072 0.0
N1288 N 0.02663 0.36741 0.1552 0.0
N1289 N 0.12264 0.31005 0.02848 0.0
C1290 C 0.05674 0.35994 0.12858 0.0
C1291 C 0.10435 0.32903 0.06266 0.0
N1292 N 0.06983 0.32364 0.17728 0.0
N1293 N 0.1154 0.3871 0.0292 0.0
H1294 H 0.13102 0.28586 0.03064 0.0
H1295 H 0.12726 0.31647 -0.00283 0.0
H1296 H 0.11144 0.41416 0.0275 0.0
H1297 H 0.13846 0.38218 0.00858 0.0
H1298 H 0.06096 0.34118 0.20606 0.0
H1299 H 0.07931 0.3017 0.1837 0.0
H1300 H 0.0147 0.35402 0.18188 0.0
H1301 H 1.01013 0.38341 0.14817 0.0
C1302 C 0.15651 0.61996 0.78377 0.0
C1303 C 0.19485 0.66034 0.80537 0.0
C1304 C 0.19506 0.62979 0.8676 0.0
C1305 C 0.15281 0.59373 0.85059 0.0
N1306 N 0.09173 0.55627 0.79172 0.0
N1307 N 0.25052 0.7039 0.86918 0.0
C1308 C 0.1334 0.58881 0.80818 0.0
C1309 C 0.21391 0.66535 0.84778 0.0
N1310 N 0.14135 0.61057 0.73981 0.0
N1311 N 0.21839 0.62879 0.90114 0.0
H1312 H 0.2687 0.72847 0.85377 0.0
H1313 H 0.262 0.71217 0.90295 0.0
H1314 H 0.20694 0.60178 0.9142 0.0
H1315 H 0.25096 0.65181 0.91201 0.0
H1316 H 0.11835 0.57864 0.72043 0.0
H1317 H 0.15293 0.63281 0.72082 0.0
H1318 H 0.07355 0.5576 0.76698 0.0
H1319 H 0.07369 0.52882 0.80318 0.0
C1320 C 0.44061 0.1505 0.86292 0.0
C1321 C 0.39847 0.13897 0.87784 0.0
C1322 C 0.41618 0.11385 0.93634 0.0
C1323 C 0.45363 0.11558 0.91461 0.0
N1324 N 0.50663 0.14284 0.863 0.0
N1325 N 0.34625 0.1122 0.93048 0.0
C1326 C 0.46774 0.13678 0.87995 0.0
C1327 C 0.38671 0.12248 0.91587 0.0
N1328 N 0.45408 0.17424 0.8323 0.0
N1329 N 0.40897 0.10444 0.97674 0.0
H1330 H 0.32439 0.11946 0.91734 0.0
H1331 H 0.33355 0.09454 0.954 0.0
H1332 H 0.42916 0.09664 0.992 0.0
H1333 H 0.38605 0.1097 -0.00271 0.0
H1334 H 0.48502 0.18584 0.82103 0.0
H1335 H 0.43484 0.18543 0.8207 0.0
H1336 H 0.51766 0.15448 0.8351 0.0
H1337 H 0.52809 0.13551 0.87691 0.0
C1338 C 0.88223 0.375 0.82418 0.0
C1339 C 0.84414 0.34623 0.83987 0.0
C1340 C 0.88197 0.37952 0.91685 0.0
C1341 C 0.91808 0.41218 0.90177 0.0
N1342 N 0.94128 0.44982 0.84355 0.0
N1343 N 0.80395 0.33129 0.90437 0.0
C1344 C 0.91462 0.41283 0.85624 0.0
C1345 C 0.84268 0.35181 0.88735 0.0
N1346 N 0.88934 0.36515 0.77926 0.0
N1347 N 0.88539 0.37231 0.95725 0.0
H1348 H 0.77456 0.3135 0.88378 0.0
H1349 H 0.80083 0.3369 0.93927 0.0
H1350 H 0.91442 0.3882 0.97798 0.0
H1351 H 0.86051 0.3463 0.96721 0.0
H1352 H 0.9187 0.38391 0.76743 0.0
H1353 H 0.86794 0.33568 0.75511 0.0
H1354 H 0.93785 0.45186 0.811 0.0
H1355 H 0.96213 0.48011 0.86722 0.0
C1356 C 0.69929 0.83449 0.85783 0.0
C1357 C 0.70994 0.8285 0.81175 0.0
C1358 C 0.67782 0.87728 0.80646 0.0
C1359 C 0.67222 0.88686 0.85388 0.0
N1360 N 0.69031 0.88348 0.92662 0.0
N1361 N 0.71599 0.8539 0.74529 0.0
C1362 C 0.68723 0.86856 0.88014 0.0
C1363 C 0.70079 0.8524 0.78684 0.0
N1364 N 0.69648 0.80498 0.87951 0.0
N1365 N 0.66181 0.89254 0.7798 0.0
H1366 H 0.73269 0.83689 0.72896 0.0
H1367 H 0.71538 0.87528 0.72853 0.0
H1368 H 0.64905 0.91465 0.79303 0.0
H1369 H 0.65914 0.8814 0.74423 0.0
H1370 H 0.68509 0.80553 0.91163 0.0
H1371 H 0.69926 0.77629 0.8627 0.0
H1372 H 0.70616 0.87502 0.94692 0.0
H1373 H 0.68132 0.90768 0.9446 0.0
C1374 C 0.86373 0.67579 0.20219 0.0
C1375 C 0.83298 0.67649 0.1743 0.0
C1376 C 0.85227 0.63183 0.1072 0.0
C1377 C 0.87931 0.62683 0.13571 0.0
N1378 N 0.90251 0.6366 0.21245 0.0
N1379 N 0.79001 0.64413 0.10196 0.0
C1380 C 0.88286 0.6469 0.18384 0.0
C1381 C 0.82519 0.65163 0.12717 0.0
N1382 N 0.87549 0.70343 0.24621 0.0
N1383 N 0.85302 0.61858 0.0609 0.0
H1384 H 0.76793 0.65532 0.11636 0.0
H1385 H 0.78013 0.62265 0.06858 0.0
H1386 H 0.8729 0.6048 0.04502 0.0
H1387 H 0.83724 0.62543 0.03881 0.0
H1388 H 0.90088 0.70781 0.26679 0.0
H1389 H 0.86259 0.72516 0.26081 0.0
H1390 H 0.90171 0.6461 0.24778 0.0
H1391 H 0.91579 0.61475 0.20077 0.0
C1392 C 0.34752 0.80478 0.12508 0.0
C1393 C 0.33642 0.82258 0.16873 0.0
C1394 C 0.36575 0.89594 0.15598 0.0
C1395 C 0.3811 0.87956 0.11491 0.0
N1396 N 0.3928 0.82029 0.06331 0.0
N1397 N 0.33977 0.88628 0.22801 0.0
C1398 C 0.37374 0.83445 0.10017 0.0
C1399 C 0.34741 0.86865 0.18491 0.0
N1400 N 0.33169 0.75947 0.10661 0.0
N1401 N 0.36687 0.9369 0.16622 0.0
H1402 H 0.32476 0.86665 0.24924 0.0
H1403 H 0.35059 0.92042 0.24338 0.0
H1404 H 0.37703 0.95626 0.14404 0.0
H1405 H 0.35385 0.95003 0.19426 0.0
H1406 H 0.33508 0.74421 0.07311 0.0
H1407 H 0.31186 0.73674 0.12349 0.0
H1408 H 0.39291 0.7895 0.05431 0.0
H1409 H 0.41134 0.84072 0.04371 0.0
C1410 C 0.67139 0.16767 0.09973 0.0
C1411 C 0.67491 0.16355 0.14335 0.0
C1412 C 0.60335 0.10022 0.129 0.0
C1413 C 0.60136 0.09868 0.08243 0.0
N1414 N 0.63923 0.12819 0.02181 0.0
N1415 N 0.65398 0.11126 0.18639 0.0
C1416 C 0.63723 0.13154 0.06705 0.0
C1417 C 0.64395 0.12549 0.15425 0.0
N1418 N 0.7 0.20571 0.08968 0.0
N1419 N 0.56774 0.07932 0.15045 0.0
H1420 H 0.68556 0.12605 0.20159 0.0
H1421 H 0.63231 0.08133 0.19271 0.0
H1422 H 0.53564 0.06354 0.1366 0.0
H1423 H 0.57033 0.0827 0.18516 0.0
H1424 H 0.69613 0.21211 0.05973 0.0
H1425 H 0.72584 0.23222 0.11282 0.0
H1426 H 0.66657 0.14905 0.00892 0.0
H1427 H 0.61513 0.10237 -0.00324 0.0
C1428 C 0.63964 0.66137 0.81456 0.0
C1429 C 0.67791 0.65951 0.79754 0.0
C1430 C 0.6639 0.60018 0.83105 0.0
C1431 C 0.62506 0.60066 0.84598 0.0
N1432 N 0.56912 0.62145 0.84029 0.0
N1433 N 0.71296 0.61246 0.77262 0.0
C1434 C 0.61069 0.62799 0.83398 0.0
C1435 C 0.68627 0.62465 0.80083 0.0
N1436 N 0.63145 0.69557 0.81429 0.0
N1437 N 0.68005 0.57728 0.84625 0.0
H1438 H 0.72458 0.62484 0.74514 0.0
H1439 H 0.71796 0.58547 0.77223 0.0
H1440 H 0.66434 0.55855 0.86834 0.0
H1441 H 0.71088 0.58018 0.83981 0.0
H1442 H 0.60664 0.70065 0.83114 0.0
H1443 H 0.65114 0.72122 0.80082 0.0
H1444 H 0.55531 0.63696 0.82735 0.0
H1445 H 0.54698 0.59696 0.85418 0.0
C1446 C 0.36814 0.6187 0.89153 0.0
C1447 C 0.38657 0.64412 0.86153 0.0
C1448 C 0.45954 0.66113 0.8862 0.0
C1449 C 0.43973 0.62549 0.90608 0.0
N1450 N 0.3758 0.57414 0.9329 0.0
N1451 N 0.44765 0.70251 0.84183 0.0
C1452 C 0.39431 0.60656 0.91176 0.0
C1453 C 0.43195 0.67072 0.86394 0.0
N1454 N 0.32523 0.60468 0.89851 0.0
N1455 N 0.50375 0.68297 0.88535 0.0
H1456 H 0.42662 0.70914 0.82611 0.0
H1457 H 0.48044 0.72312 0.84016 0.0
H1458 H 0.52498 0.6745 0.89751 0.0
H1459 H 0.52017 0.70995 0.87264 0.0
H1460 H 0.31004 0.58857 0.92265 0.0
H1461 H 0.306 0.6134 0.88291 0.0
H1462 H 0.34238 0.5551 0.93328 0.0
H1463 H 0.39418 0.5646 0.94822 0.0
C1464 C 0.36018 0.3418 0.86119 0.0
C1465 C 0.36477 0.3219 0.81544 0.0
C1466 C 0.44341 0.355 0.83548 0.0
C1467 C 0.43739 0.37355 0.88127 0.0
N1468 N 0.38663 0.36236 0.93919 0.0
N1469 N 0.41025 0.30394 0.75971 0.0
C1470 C 0.39472 0.35932 0.89478 0.0
C1471 C 0.40628 0.32624 0.80289 0.0
N1472 N 0.32507 0.34859 0.87241 0.0
N1473 N 0.48467 0.36593 0.82328 0.0
H1474 H 0.38396 0.28381 0.73468 0.0
H1475 H 0.43875 0.30267 0.74949 0.0
H1476 H 0.51173 0.38355 0.84749 0.0
H1477 H 0.4922 0.35853 0.78964 0.0
H1478 H 0.32365 0.36843 0.90458 0.0
H1479 H 0.29837 0.33558 0.84923 0.0
H1480 H 0.35507 0.35065 0.94925 0.0
H1481 H 0.41033 0.37029 0.96421 0.0
C1482 C 0.69457 0.41814 0.97757 0.0
C1483 C 0.68924 0.40318 0.92919 0.0
C1484 C 0.71951 0.48079 0.93022 0.0
C1485 C 0.70637 0.49028 0.97437 0.0
N1486 N 0.69981 0.4745 0.0461 0.0
N1487 N 0.69978 0.42225 0.85822 0.0
C1488 C 0.70225 0.46203 0.00037 0.0
C1489 C 0.70433 0.4352 0.90482 0.0
N1490 N 0.68965 0.39047 0.00239 0.0
N1491 N 0.74158 0.51454 0.9115 0.0
H1492 H 0.68702 0.38897 0.83785 0.0
H1493 H 0.70608 0.44463 0.8398 0.0
H1494 H 0.75165 0.54796 0.93052 0.0
H1495 H 0.75342 0.50954 0.87956 0.0
H1496 H 0.68492 0.35778 0.98743 0.0
H1497 H 0.68492 0.35778 0.98743 0.0
H1498 H 0.70369 0.50634 0.06423 0.0
H1499 H 0.70369 0.50634 0.06423 0.0
C1500 C 0.63407 0.32332 0.07641 0.0
C1501 C 0.63708 0.34467 0.12403 0.0
C1502 C 0.56912 0.34655 0.11411 0.0
C1503 C 0.57351 0.33748 0.06691 0.0
N1504 N 0.59728 0.30131 0.00101 0.0
N1505 N 0.60562 0.37354 0.18959 0.0
C1506 C 0.6017 0.32011 0.04722 0.0
C1507 C 0.60321 0.35396 0.14358 0.0
N1508 N 0.66305 0.30789 0.05967 0.0
N1509 N 0.53321 0.35013 0.13025 0.0
H1510 H 0.63027 0.38016 0.21274 0.0
H1511 H 0.5845 0.38576 0.20483 0.0
H1512 H 0.50838 0.34524 0.10833 0.0
H1513 H 0.52602 0.35342 0.16403 0.0
H1514 H 0.66361 0.29269 0.02529 0.0
H1515 H 0.68616 0.30922 0.08106 0.0
H1516 H 0.61607 0.28708 0.98333 0.0
H1517 H 0.57242 0.29801 0.98045 0.0
C1518 C 0.66381 0.61581 0.13957 0.0
C1519 C 0.66125 0.65465 0.16603 0.0
C1520 C 0.59014 0.6266 0.12529 0.0
C1521 C 0.59578 0.59073 0.09539 0.0
N1522 N 0.63943 0.55296 0.07148 0.0
N1523 N 0.62205 0.69727 0.18684 0.0
C1524 C 0.63306 0.58601 0.10184 0.0
C1525 C 0.62431 0.66015 0.15972 0.0
N1526 N 0.69418 0.60583 0.15208 0.0
N1527 N 0.55168 0.62749 0.12167 0.0
H1528 H 0.64421 0.71931 0.21533 0.0
H1529 H 0.59899 0.70659 0.18097 0.0
H1530 H 0.52613 0.60269 0.09729 0.0
H1531 H 0.54384 0.65076 0.14425 0.0
H1532 H 0.69449 0.57536 0.13753 0.0
H1533 H 0.71607 0.62578 0.1808 0.0
H1534 H 0.66905 0.55239 0.07039 0.0
H1535 H 0.61634 0.52822 0.04499 0.0
C1536 C 0.43368 0.64849 0.03998 0.0
C1537 C 0.39854 0.65132 0.06192 0.0
C1538 C 0.35751 0.57 0.03744 0.0
C1539 C 0.39802 0.56959 0.03454 0.0
N1540 N 0.47668 0.61142 0.03694 0.0
N1541 N 0.32019 0.61442 0.04756 0.0
C1542 C 0.43676 0.60935 0.03528 0.0
C1543 C 0.35786 0.61188 0.04909 0.0
N1544 N 0.46839 0.68579 0.03505 0.0
N1545 N 0.31891 0.53179 0.03034 0.0
H1546 H 0.3205 0.6449 0.05124 0.0
H1547 H 0.28977 0.58586 0.03907 0.0
H1548 H 0.31644 0.49978 0.02146 0.0
H1549 H 0.31644 0.49978 0.02146 0.0
H1550 H 0.46787 0.71637 0.04233 0.0
H1551 H 0.46787 0.71637 0.04233 0.0
H1552 H 0.5053 0.64194 0.04371 0.0
H1553 H 0.48099 0.5833 0.03273 0.0
C1554 C 0.38169 0.38121 0.20415 0.0
C1555 C 0.33935 0.34714 0.18765 0.0
C1556 C 0.3512 0.36085 0.11372 0.0
C1557 C 0.39705 0.38328 0.12661 0.0
N1558 N 0.45565 0.41259 0.18639 0.0
N1559 N 0.27911 0.33161 0.14028 0.0
C1560 C 0.41236 0.3934 0.17262 0.0
C1561 C 0.32224 0.34389 0.14564 0.0
N1562 N 0.39049 0.40709 0.24846 0.0
N1563 N 0.33527 0.35703 0.07222 0.0
H1564 H 0.26096 0.32938 0.16839 0.0
H1565 H 0.26343 0.33029 0.11168 0.0
H1566 H 0.35392 0.37575 0.05124 0.0
H1567 H 0.30308 0.33534 0.05862 0.0
H1568 H 0.42005 0.43622 0.26056 0.0
H1569 H 0.36599 0.4026 0.27055 0.0
H1570 H 0.46655 0.41794 0.21963 0.0
H1571 H 0.47985 0.41822 0.164 0.0
C1572 C 0.83405 0.6421 0.70526 0.0
C1573 C 0.82798 0.66835 0.68171 0.0
C1574 C 0.86029 0.63743 0.61561 0.0
C1575 C 0.86917 0.61363 0.64037 0.0
N1576 N 0.86789 0.59677 0.71094 0.0
N1577 N 0.84391 0.69778 0.61808 0.0
C1578 C 0.85706 0.61712 0.68587 0.0
C1579 C 0.84315 0.66753 0.63768 0.0
N1580 N 0.81665 0.64 0.74588 0.0
N1581 N 0.86839 0.63148 0.57079 0.0
H1582 H 0.83409 0.72172 0.63435 0.0
H1583 H 0.85838 0.7024 0.58827 0.0
H1584 H 0.88352 0.61241 0.55424 0.0
H1585 H 0.85749 0.64294 0.54913 0.0
H1586 H 0.81501 0.61773 0.7626 0.0
H1587 H 0.80147 0.6591 0.76193 0.0
H1588 H 0.86562 0.60272 0.74592 0.0
H1589 H 0.88155 0.57556 0.69728 0.0
C1590 C 0.35141 0.81627 0.63811 0.0
C1591 C 0.33714 0.83074 0.68106 0.0
C1592 C 0.36542 0.90578 0.67287 0.0
C1593 C 0.38367 0.8927 0.63246 0.0
N1594 N 0.403 0.83798 0.58292 0.0
N1595 N 0.34271 0.89278 0.7449 0.0
C1596 C 0.37922 0.8486 0.61673 0.0
C1597 C 0.34753 0.87653 0.70004 0.0
N1598 N 0.33731 0.77164 0.61682 0.0
N1599 N 0.36387 0.94547 0.68472 0.0
H1600 H 0.33369 0.87309 0.76672 0.0
H1601 H 0.35297 0.92672 0.76149 0.0
H1602 H 0.3754 0.96723 0.66491 0.0
H1603 H 0.34701 0.95434 0.71152 0.0
H1604 H 0.34311 0.75899 0.58343 0.0
H1605 H 0.31638 0.74695 0.63096 0.0
H1606 H 0.40428 0.80776 0.57367 0.0
H1607 H 0.42506 0.86093 0.56738 0.0
C1608 C 0.17698 0.43411 0.63471 0.0
C1609 C 0.17529 0.39326 0.60686 0.0
C1610 C 0.10651 0.37396 0.56709 0.0
C1611 C 0.11169 0.41748 0.5908 0.0
N1612 N 0.15873 0.49301 0.63841 0.0
N1613 N 0.14279 0.3284 0.53979 0.0
C1614 C 0.14886 0.44875 0.62223 0.0
C1615 C 0.14117 0.36413 0.57117 0.0
N1616 N 0.20501 0.45866 0.67356 0.0
N1617 N 0.06823 0.34165 0.54167 0.0
H1618 H 0.16807 0.32056 0.54078 0.0
H1619 H 0.12122 0.30914 0.51035 0.0
H1620 H 0.04166 0.34712 0.53876 0.0
H1621 H 0.06142 0.30827 0.52722 0.0
H1622 H 0.20477 0.48671 0.69703 0.0
H1623 H 0.22523 0.44828 0.68468 0.0
H1624 H 0.18785 0.51778 0.65786 0.0
H1625 H 0.14035 0.5058 0.62822 0.0
C1626 C 0.68981 0.11165 0.59842 0.0
C1627 C 0.69616 0.15582 0.614 0.0
C1628 C 0.62728 0.13192 0.57196 0.0
C1629 C 0.6155 0.0871 0.56948 0.0
N1630 N 0.63774 0.03309 0.5747 0.0
N1631 N 0.68604 0.20886 0.5894 0.0
C1632 C 0.64767 0.07639 0.58002 0.0
C1633 C 0.66964 0.16637 0.59197 0.0
N1634 N 0.72488 0.10427 0.59583 0.0
N1635 N 0.59745 0.1416 0.55769 0.0
H1636 H 0.71754 0.23343 0.60363 0.0
H1637 H 0.67063 0.21822 0.56976 0.0
H1638 H 0.56552 0.11718 0.54532 0.0
H1639 H 0.604 0.17365 0.55857 0.0
H1640 H 0.72304 0.07284 0.58046 0.0
H1641 H 0.75618 0.13116 0.6058 0.0
H1642 H 0.65897 0.02509 0.58779 0.0
H1643 H 0.60774 0.006 0.55957 0.0
C1644 C 0.85694 0.3563 0.39423 0.0
C1645 C 0.86162 0.34209 0.34705 0.0
C1646 C 0.93913 0.3805 0.36478 0.0
C1647 C 0.93535 0.4058 0.40839 0.0
N1648 N 0.88564 0.4207 0.46145 0.0
N1649 N 0.91016 0.35805 0.28802 0.0
C1650 C 0.89284 0.39448 0.42299 0.0
C1651 C 0.90357 0.35893 0.33213 0.0
N1652 N 0.81927 0.33348 0.41167 0.0
N1653 N 0.97625 0.37723 0.35425 0.0
H1654 H 0.88485 0.34849 0.26431 0.0
H1655 H 0.94137 0.37254 0.27745 0.0
H1656 H 1.00136 0.38839 0.37929 0.0
H1657 H 0.97893 0.35839 0.32213 0.0
H1658 H 0.81611 0.34138 0.44667 0.0
H1659 H 0.79307 0.3045 0.3914 0.0
H1660 H 0.85426 0.4142 0.47015 0.0
H1661 H 0.91002 0.45078 0.48216 0.0
C1662 C 0.68805 0.84083 0.29277 0.0
C1663 C 0.70598 0.82386 0.31837 0.0
C1664 C 0.67404 0.85504 0.38536 0.0
C1665 C 0.66397 0.87825 0.36106 0.0
N1666 N 0.67321 0.9014 0.29336 0.0
N1667 N 0.72271 0.82662 0.39508 0.0
C1668 C 0.67496 0.87391 0.31547 0.0
C1669 C 0.70054 0.83396 0.36638 0.0
N1670 N 0.67926 0.82263 0.24664 0.0
N1671 N 0.65783 0.85224 0.42637 0.0
H1672 H 0.74637 0.81718 0.38424 0.0
H1673 H 0.72253 0.83662 0.43048 0.0
H1674 H 0.63818 0.86672 0.44111 0.0
H1675 H 0.6603 0.83175 0.44323 0.0
H1676 H 0.66361 0.83201 0.22731 0.0
H1677 H 0.68048 0.79335 0.22906 0.0
H1678 H 0.68454 0.90184 0.26135 0.0
H1679 H 0.66497 0.92684 0.30893 0.0
C1680 C 0.14707 0.64111 0.29515 0.0
C1681 C 0.17735 0.68626 0.31793 0.0
C1682 C 0.17701 0.66729 0.38796 0.0
C1683 C 0.14617 0.62201 0.36616 0.0
N1684 N 0.0917 0.57028 0.30152 0.0
N1685 N 0.19885 0.74315 0.39064 0.0
C1686 C 0.12817 0.61002 0.32042 0.0
C1687 C 0.18573 0.69981 0.3658 0.0
N1688 N 0.1358 0.62787 0.24928 0.0
N1689 N 0.19963 0.67948 0.4288 0.0
H1690 H 0.19969 0.76579 0.37511 0.0
H1691 H 0.20243 0.75419 0.42628 0.0
H1692 H 0.19742 0.65638 0.4447 0.0
H1693 H 0.22464 0.71194 0.44364 0.0
H1694 H 0.1197 0.59435 0.22933 0.0
H1695 H 0.1441 0.65051 0.23077 0.0
H1696 H 0.07468 0.56269 0.27078 0.0
H1697 H 0.07526 0.5464 0.31796 0.0
C1698 C 0.43424 0.14396 0.35855 0.0
C1699 C 0.43428 0.17974 0.39466 0.0
C1700 C 0.45406 0.15209 0.44966 0.0
C1701 C 0.46356 0.12317 0.41304 0.0
N1702 N 0.46704 0.09527 0.3317 0.0
N1703 N 0.4437 0.21828 0.47519 0.0
C1704 C 0.45406 0.11938 0.36713 0.0
C1705 C 0.44338 0.18346 0.44054 0.0
N1706 N 0.4163 0.13417 0.31585 0.0
N1707 N 0.4548 0.1492 0.49286 0.0
H1708 H 0.43439 0.24065 0.46943 0.0
H1709 H 0.45518 0.22619 0.50886 0.0
H1710 H 0.46187 0.12605 0.5004 0.0
H1711 H 0.44442 0.16663 0.52024 0.0
H1712 H 0.41154 0.10565 0.28921 0.0
H1713 H 0.40179 0.15179 0.30851 0.0
H1714 H 0.46486 0.09536 0.29814 0.0
H1715 H 0.48422 0.07894 0.33609 0.0
C1716 C 0.56487 0.80263 0.5816 0.0
C1717 C 0.60599 0.82562 0.60752 0.0
C1718 C 0.61901 0.89455 0.59213 0.0
C1719 C 0.57458 0.87417 0.57568 0.0
N1720 N 0.50449 0.80808 0.55356 0.0
N1721 N 0.67307 0.89386 0.63766 0.0
C1722 C 0.54743 0.82769 0.56917 0.0
C1723 C 0.63373 0.87159 0.61218 0.0
N1724 N 0.54264 0.75685 0.56914 0.0
N1725 N 0.64707 0.93559 0.58779 0.0
H1726 H 0.6854 0.87791 0.65191 0.0
H1727 H 0.69232 0.92856 0.64684 0.0
H1728 H 0.63693 0.95132 0.57077 0.0
H1729 H 0.68062 0.95116 0.59597 0.0
H1730 H 0.51448 0.73769 0.54659 0.0
H1731 H 0.55497 0.73793 0.57788 0.0
H1732 H 0.48195 0.77563 0.55291 0.0
H1733 H 0.4906 0.82514 0.54364 0.0
C1734 C 0.726 0.17074 0.36249 0.0
C1735 C 0.70397 0.17567 0.32877 0.0
C1736 C 0.63419 0.12074 0.34569 0.0
C1737 C 0.6563 0.11116 0.37495 0.0
N1738 N 0.72444 0.12332 0.40659 0.0
N1739 N 0.63757 0.14772 0.28196 0.0
C1740 C 0.70261 0.13543 0.38247 0.0
C1741 C 0.65829 0.14846 0.31861 0.0
N1742 N 0.76923 0.19965 0.37532 0.0
N1743 N 0.59011 0.10511 0.34491 0.0
H1744 H 0.6538 0.16743 0.26118 0.0
H1745 H 0.60535 0.12439 0.26961 0.0
H1746 H 0.5705 0.0851 0.36428 0.0
H1747 H 0.57353 0.11602 0.32863 0.0
H1748 H 0.78626 0.20091 0.40288 0.0
H1749 H 0.78738 0.22481 0.36044 0.0
H1750 H 0.7582 0.13685 0.40962 0.0
H1751 H 0.70874 0.09686 0.42033 0.0
C1752 C 0.85729 0.56312 0.36673 0.0
C1753 C 0.86419 0.60758 0.38812 0.0
C1754 C 0.938 0.62896 0.41718 0.0
C1755 C 0.92881 0.58315 0.40078 0.0
N1756 N 0.87504 0.50532 0.36939 0.0
N1757 N 0.90843 0.68125 0.44049 0.0
C1758 C 0.88716 0.54982 0.37805 0.0
C1759 C 0.90385 0.64015 0.41528 0.0
N1760 N 0.82255 0.53369 0.33488 0.0
N1761 N 0.97959 0.66196 0.43298 0.0
H1762 H 0.88424 0.69071 0.43983 0.0
H1763 H 0.93461 0.70438 0.46491 0.0
H1764 H 1.00581 0.6554 0.43339 0.0
H1765 H 0.98882 0.69604 0.44135 0.0
H1766 H 0.81848 0.50232 0.31492 0.0
H1767 H 0.80024 0.54235 0.32512 0.0
H1768 H 0.84355 0.47989 0.35683 0.0
H1769 H 0.89485 0.49392 0.37938 0.0
C1770 C 0.33822 0.849 0.39694 0.0
C1771 C 0.33158 0.86038 0.35835 0.0
C1772 C 0.40916 0.9067 0.36166 0.0
C1773 C 0.41669 0.9016 0.40387 0.0
N1774 N 0.38609 0.86501 0.46173 0.0
N1775 N 0.36024 0.92148 0.32704 0.0
C1776 C 0.38024 0.87262 0.42228 0.0
C1777 C 0.3668 0.89607 0.34798 0.0
N1778 N 0.30504 0.81353 0.4071 0.0
N1779 N 0.44082 0.91944 0.33303 0.0
H1780 H 0.329 0.91648 0.32086 0.0
H1781 H 0.386 0.94987 0.32138 0.0
H1782 H 0.47106 0.92103 0.33705 0.0
H1783 H 0.43418 0.9222 0.30177 0.0
H1784 H 0.30805 0.79975 0.43145 0.0
H1785 H 0.2748 0.79662 0.38846 0.0
H1786 H 0.36043 0.84852 0.47944 0.0
H1787 H 0.41682 0.87487 0.47647 0.0
C1788 C 0.17315 0.31542 0.32521 0.0
C1789 C 0.21757 0.33459 0.3155 0.0
C1790 C 0.21942 0.40919 0.34194 0.0
C1791 C 0.17707 0.39028 0.35728 0.0
N1792 N 0.11812 0.32552 0.37196 0.0
N1793 N 0.28427 0.40156 0.31876 0.0
C1794 C 0.15545 0.34346 0.35155 0.0
C1795 C 0.24109 0.38212 0.32534 0.0
N1796 N 0.14654 0.27054 0.30675 0.0
N1797 N 0.23824 0.45254 0.34113 0.0
H1798 H 0.30063 0.38283 0.30608 0.0
H1799 H 0.30449 0.43612 0.32911 0.0
H1800 H 0.22349 0.47308 0.35255 0.0
H1801 H 0.26651 0.46685 0.32552 0.0
H1802 H 0.11309 0.25535 0.3094 0.0
H1803 H 0.15702 0.24944 0.28452 0.0
H1804 H 0.10358 0.29256 0.37306 0.0
H1805 H 0.10431 0.34478 0.39167 0.0
C1806 C 0.30686 0.13445 0.62596 0.0
C1807 C 0.3176 0.16192 0.67231 0.0
C1808 C 0.37155 0.13606 0.67906 0.0
C1809 C 0.36485 0.11335 0.6313 0.0
N1810 N 0.33148 0.09948 0.55786 0.0
N1811 N 0.36731 0.19521 0.7403 0.0
C1812 C 0.33402 0.11505 0.60434 0.0
C1813 C 0.35207 0.16452 0.69798 0.0
N1814 N 0.26931 0.12459 0.60315 0.0
N1815 N 0.39493 0.12896 0.70706 0.0
H1816 H 0.35446 0.21682 0.75517 0.0
H1817 H 0.39522 0.20208 0.7587 0.0
H1818 H 0.40801 0.10695 0.6953 0.0
H1819 H 0.3975 0.14127 0.74252 0.0
H1820 H 0.25766 0.10153 0.57064 0.0
H1821 H 0.24776 0.13621 0.61869 0.0
H1822 H 0.31285 0.10397 0.53646 0.0
H1823 H 0.35137 0.08622 0.54084 0.0
C1824 C 0.83967 0.36366 0.67409 0.0
C1825 C 0.83047 0.31775 0.65956 0.0
C1826 C 0.86982 0.3305 0.592 0.0
C1827 C 0.87534 0.37504 0.60567 0.0
N1828 N 0.85141 0.4272 0.65071 0.0
N1829 N 0.82867 0.25524 0.59858 0.0
C1830 C 0.85555 0.38923 0.6437 0.0
C1831 C 0.8432 0.30036 0.61665 0.0
N1832 N 0.83576 0.38422 0.71789 0.0
N1833 N 0.891 0.31738 0.55679 0.0
H1834 H 0.8087 0.23225 0.61519 0.0
H1835 H 0.83324 0.24033 0.56544 0.0
H1836 H 0.91028 0.33821 0.53782 0.0
H1837 H 0.89177 0.28695 0.54849 0.0
H1838 H 0.84742 0.41881 0.73102 0.0
H1839 H 0.82603 0.36807 0.74253 0.0
H1840 H 0.83368 0.43677 0.67605 0.0
H1841 H 0.86123 0.44604 0.62794 0.0
C1842 C 0.138 0.68427 0.61833 0.0
C1843 C 0.17826 0.68401 0.62059 0.0
C1844 C 0.14914 0.61093 0.56285 0.0
C1845 C 0.10665 0.60583 0.57025 0.0
N1846 N 0.06081 0.64143 0.59239 0.0
N1847 N 0.22603 0.66421 0.57154 0.0
C1848 C 0.10111 0.644 0.59375 0.0
C1849 C 0.18525 0.65272 0.58501 0.0
N1850 N 0.13623 0.72354 0.63653 0.0
N1851 N 0.15526 0.5755 0.53796 0.0
H1852 H 0.25195 0.69585 0.58699 0.0
H1853 H 0.23261 0.64496 0.54227 0.0
H1854 H 0.12993 0.54328 0.52385 0.0
H1855 H 0.18588 0.57762 0.53332 0.0
H1856 H 0.10829 0.72704 0.63539 0.0
H1857 H 0.1646 0.75396 0.64792 0.0
H1858 H 0.05321 0.66591 0.61267 0.0
H1859 H 0.03461 0.61418 0.57035 0.0
loop_
_geom_bond_atom_site_label_1
_geom_bond_atom_site_label_2
_geom_bond_distance
_geom_bond_site_symmetry_2
_ccdc_geom_bond_type
Eu0 N29 2.600 . S
Eu0 N35 2.562 . S
Eu0 O44 2.462 . S
Eu0 O45 2.373 . S
Eu0 O47 2.432 . S
Eu0 O48 2.291 . S
Eu0 O52 2.335 . S
Eu0 O55 2.372 . S
Eu0 C64 2.787 . S
C1 N2 1.365 . S
C1 C4 1.405 . S
C1 C8 1.448 . S
N2 C1 1.365 . S
N2 C5 1.319 . S
N2 Eu11 2.600 . S
C3 C5 1.397 . S
C3 C6 1.367 . S
C3 H23 0.931 . S
C4 C1 1.405 . S
C4 C6 1.403 . S
C4 C10 1.439 . S
C5 N2 1.319 . S
C5 C3 1.397 . S
C5 H16 0.930 . S
C6 C3 1.367 . S
C6 C4 1.403 . S
C6 H27 0.929 . S
C7 C8 1.430 . S
C7 C9 1.387 . S
C7 C13 1.404 . S
C8 C1 1.448 . S
C8 C7 1.430 . S
C8 N12 1.351 . S
C9 C7 1.387 . S
C9 C10 1.374 . S
C9 H24 0.931 . S
C10 C4 1.439 . S
C10 C9 1.374 . S
C10 H25 0.931 . S
Eu11 N2 2.600 . S
Eu11 N12 2.562 . S
Eu11 O46 2.335 . S
Eu11 O49 2.372 . S
Eu11 O50 2.462 . S
Eu11 O51 2.373 . S
Eu11 O53 2.432 . S
Eu11 O54 2.291 . S
Eu11 C75 2.787 . S
N12 C8 1.351 . S
N12 Eu11 2.562 . S
N12 C14 1.325 . S
C13 C7 1.404 . S
C13 C15 1.366 . S
C13 H21 0.930 . S
C14 N12 1.325 . S
C14 C15 1.416 . S
C14 H20 0.929 . S
C15 C13 1.366 . S
C15 C14 1.416 . S
C15 H17 0.930 . S
H16 C5 0.930 . S
H17 C15 0.930 . S
H18 C33 0.930 . S
H19 C40 0.930 . S
H20 C14 0.929 . S
H21 C13 0.930 . S
H22 C36 0.929 . S
H23 C3 0.931 . S
H24 C9 0.931 . S
H25 C10 0.931 . S
H26 C31 0.931 . S
H27 C6 0.929 . S
H28 C39 0.930 1_556 S
N29 Eu0 2.600 . S
N29 C30 1.365 . S
N29 C33 1.319 . S
C30 N29 1.365 . S
C30 C32 1.405 . S
C30 C38 1.448 . S
C31 H26 0.931 . S
C31 C33 1.397 . S
C31 C34 1.367 . S
C32 C30 1.405 . S
C32 C34 1.403 . S
C32 C65 1.439 . S
C33 H18 0.930 . S
C33 N29 1.319 . S
C33 C31 1.397 . S
C34 C31 1.367 . S
C34 C32 1.403 . S
C34 H41 0.929 . S
N35 Eu0 2.562 . S
N35 C36 1.325 . S
N35 C38 1.351 . S
C36 H22 0.929 . S
C36 N35 1.325 . S
C36 C40 1.416 . S
C37 C38 1.430 . S
C37 C39 1.404 . S
C37 C66 1.387 . S
C38 C30 1.448 . S
C38 N35 1.351 . S
C38 C37 1.430 . S
C39 H28 0.930 1_554 S
C39 C37 1.404 . S
C39 C40 1.366 . S
C40 H19 0.930 . S
C40 C36 1.416 . S
C40 C39 1.366 . S
H41 C34 0.929 . S
H42 C65 0.931 . S
H43 C66 0.931 1_556 S
O44 Eu0 2.462 . S
O44 C64 1.252 . S
O45 Eu0 2.373 . S
O45 C56 1.249 . S
O46 Eu11 2.335 . S
O46 C56 1.264 . S
O47 Eu0 2.432 . S
O47 C64 1.268 . S
O48 Eu0 2.291 . S
O48 C63 1.255 . S
O49 Eu11 2.372 . S
O49 C63 1.257 . S
O50 Eu11 2.462 . S
O50 C75 1.252 . S
O51 Eu11 2.373 . S
O51 C67 1.249 . S
O52 Eu0 2.335 . S
O52 C67 1.264 . S
O53 Eu11 2.432 . S
O53 C75 1.268 . S
O54 Eu11 2.291 . S
O54 C74 1.255 . S
O55 Eu0 2.372 . S
O55 C74 1.257 . S
C56 O45 1.249 . S
C56 O46 1.264 . S
C57 C60 1.382 . S
C57 C62 1.390 . S
C57 C64 1.506 . S
C58 C59 1.398 . S
C58 C62 1.392 . S
C59 C58 1.398 . S
C59 C61 1.372 . S
C59 H76 0.931 . S
C60 C57 1.382 . S
C60 C61 1.390 . S
C60 H77 0.931 . S
C61 C59 1.372 . S
C61 C60 1.390 . S
C61 H78 0.929 . S
C62 C57 1.390 . S
C62 C58 1.392 . S
C62 H79 0.930 . S
C63 O48 1.255 . S
C63 O49 1.257 . S
C64 Eu0 2.787 . S
C64 O44 1.252 . S
C64 O47 1.268 . S
C64 C57 1.506 . S
C65 C32 1.439 . S
C65 H42 0.931 . S
C65 C66 1.374 . S
C66 C37 1.387 . S
C66 H43 0.931 1_554 S
C66 C65 1.374 . S
C67 O51 1.249 . S
C67 O52 1.264 . S
C68 C71 1.382 . S
C68 C72 1.390 . S
C68 C75 1.506 . S
C69 C70 1.398 . S
C69 C72 1.392 . S
C70 C69 1.398 . S
C70 C73 1.372 . S
C70 H80 0.931 . S
C71 C68 1.382 . S
C71 C73 1.390 . S
C71 H81 0.931 . S
C72 C68 1.390 . S
C72 C69 1.392 . S
C72 H82 0.930 . S
C73 C70 1.372 . S
C73 C71 1.390 . S
C73 H83 0.929 . S
C74 O54 1.255 . S
C74 O55 1.257 . S
C75 Eu11 2.787 . S
C75 O50 1.252 . S
C75 O53 1.268 . S
C75 C68 1.506 . S
H76 C59 0.931 . S
H77 C60 0.931 . S
H78 C61 0.929 . S
H79 C62 0.930 . S
H80 C70 0.931 . S
H81 C71 0.931 . S
H82 C72 0.930 . S
H83 C73 0.929 . S
Eu84 N113 2.600 . S
Eu84 N119 2.562 . S
Eu84 O128 2.462 . S
Eu84 O129 2.373 . S
Eu84 O131 2.432 . S
Eu84 O132 2.291 . S
Eu84 O136 2.335 . S
Eu84 O139 2.372 . S
Eu84 C148 2.787 . S
C85 N86 1.365 . S
C85 C88 1.405 . S
C85 C92 1.448 . S
N86 C85 1.365 . S
N86 C89 1.319 . S
N86 Eu95 2.600 . S
C87 C89 1.397 . S
C87 C90 1.367 . S
C87 H107 0.931 . S
C88 C85 1.405 . S
C88 C90 1.403 . S
C88 C94 1.439 . S
C89 N86 1.319 . S
C89 C87 1.397 . S
C89 H100 0.930 . S
C90 C87 1.367 . S
C90 C88 1.403 . S
C90 H111 0.929 . S
C91 C92 1.430 . S
C91 C93 1.387 . S
C91 C97 1.404 . S
C92 C85 1.448 . S
C92 C91 1.430 . S
C92 N96 1.351 . S
C93 C91 1.387 . S
C93 C94 1.374 . S
C93 H108 0.931 . S
C94 C88 1.439 . S
C94 C93 1.374 . S
C94 H109 0.931 . S
Eu95 N86 2.600 . S
Eu95 N96 2.562 . S
Eu95 O130 2.335 . S
Eu95 O133 2.372 . S
Eu95 O134 2.462 . S
Eu95 O135 2.373 . S
Eu95 O137 2.432 . S
Eu95 O138 2.291 . S
Eu95 C159 2.787 . S
N96 C92 1.351 . S
N96 Eu95 2.562 . S
N96 C98 1.325 . S
C97 C91 1.404 . S
C97 C99 1.366 . S
C97 H105 0.930 . S
C98 N96 1.325 . S
C98 C99 1.416 . S
C98 H104 0.929 . S
C99 C97 1.366 . S
C99 C98 1.416 . S
C99 H101 0.930 . S
H100 C89 0.930 . S
H101 C99 0.930 . S
H102 C117 0.930 . S
H103 C124 0.930 . S
H104 C98 0.929 . S
H105 C97 0.930 . S
H106 C120 0.929 . S
H107 C87 0.931 . S
H108 C93 0.931 . S
H109 C94 0.931 . S
H110 C115 0.931 . S
H111 C90 0.929 . S
H112 C123 0.930 . S
N113 Eu84 2.600 . S
N113 C114 1.365 . S
N113 C117 1.319 . S
C114 N113 1.365 . S
C114 C116 1.405 . S
C114 C122 1.448 . S
C115 H110 0.931 . S
C115 C117 1.397 . S
C115 C118 1.367 . S
C116 C114 1.405 . S
C116 C118 1.403 . S
C116 C149 1.439 . S
C117 H102 0.930 . S
C117 N113 1.319 . S
C117 C115 1.397 . S
C118 C115 1.367 . S
C118 C116 1.403 . S
C118 H125 0.929 . S
N119 Eu84 2.562 . S
N119 C120 1.325 . S
N119 C122 1.351 . S
C120 H106 0.929 . S
C120 N119 1.325 . S
C120 C124 1.416 . S
C121 C122 1.430 . S
C121 C123 1.404 . S
C121 C150 1.387 . S
C122 C114 1.448 . S
C122 N119 1.351 . S
C122 C121 1.430 . S
C123 H112 0.930 . S
C123 C121 1.404 . S
C123 C124 1.366 . S
C124 H103 0.930 . S
C124 C120 1.416 . S
C124 C123 1.366 . S
H125 C118 0.929 . S
H126 C149 0.931 . S
H127 C150 0.931 . S
O128 Eu84 2.462 . S
O128 C148 1.252 . S
O129 Eu84 2.373 . S
O129 C140 1.249 . S
O130 Eu95 2.335 . S
O130 C140 1.264 . S
O131 Eu84 2.432 . S
O131 C148 1.268 . S
O132 Eu84 2.291 . S
O132 C147 1.255 . S
O133 Eu95 2.372 . S
O133 C147 1.257 . S
O134 Eu95 2.462 . S
O134 C159 1.252 . S
O135 Eu95 2.373 . S
O135 C151 1.249 . S
O136 Eu84 2.335 . S
O136 C151 1.264 . S
O137 Eu95 2.432 . S
O137 C159 1.268 . S
O138 Eu95 2.291 . S
O138 C158 1.255 . S
O139 Eu84 2.372 . S
O139 C158 1.257 . S
C140 O129 1.249 . S
C140 O130 1.264 . S
C141 C144 1.382 . S
C141 C146 1.390 . S
C141 C148 1.506 . S
C142 C143 1.398 . S
C142 C146 1.392 . S
C143 C142 1.398 . S
C143 C145 1.372 . S
C143 H160 0.931 . S
C144 C141 1.382 . S
C144 C145 1.390 . S
C144 H161 0.931 . S
C145 C143 1.372 . S
C145 C144 1.390 . S
C145 H162 0.929 . S
C146 C141 1.390 . S
C146 C142 1.392 . S
C146 H163 0.930 . S
C147 O132 1.255 . S
C147 O133 1.257 . S
C148 Eu84 2.787 . S
C148 O128 1.252 . S
C148 O131 1.268 . S
C148 C141 1.506 . S
C149 C116 1.439 . S
C149 H126 0.931 . S
C149 C150 1.374 . S
C150 C121 1.387 . S
C150 H127 0.931 . S
C150 C149 1.374 . S
C151 O135 1.249 . S
C151 O136 1.264 . S
C152 C155 1.382 . S
C152 C156 1.390 . S
C152 C159 1.506 . S
C153 C154 1.398 . S
C153 C156 1.392 . S
C154 C153 1.398 . S
C154 C157 1.372 . S
C154 H164 0.931 . S
C155 C152 1.382 . S
C155 C157 1.390 . S
C155 H165 0.931 . S
C156 C152 1.390 . S
C156 C153 1.392 . S
C156 H166 0.930 . S
C157 C154 1.372 . S
C157 C155 1.390 . S
C157 H167 0.929 . S
C158 O138 1.255 . S
C158 O139 1.257 . S
C159 Eu95 2.787 . S
C159 O134 1.252 . S
C159 O137 1.268 . S
C159 C152 1.506 . S
H160 C143 0.931 . S
H161 C144 0.931 . S
H162 C145 0.929 . S
H163 C146 0.930 . S
H164 C154 0.931 . S
H165 C155 0.931 . S
H166 C156 0.930 . S
H167 C157 0.929 . S
Eu168 N197 2.600 . S
Eu168 N203 2.562 . S
Eu168 O212 2.462 . S
Eu168 O213 2.373 . S
Eu168 O215 2.432 . S
Eu168 O216 2.291 . S
Eu168 O220 2.335 . S
Eu168 O223 2.372 . S
Eu168 C232 2.787 . S
C169 N170 1.365 . S
C169 C172 1.405 . S
C169 C176 1.448 . S
N170 C169 1.365 . S
N170 C173 1.319 . S
N170 Eu179 2.600 . S
C171 C173 1.397 . S
C171 C174 1.367 . S
C171 H191 0.931 . S
C172 C169 1.405 . S
C172 C174 1.403 . S
C172 C178 1.439 . S
C173 N170 1.319 . S
C173 C171 1.397 . S
C173 H184 0.930 . S
C174 C171 1.367 . S
C174 C172 1.403 . S
C174 H195 0.929 . S
C175 C176 1.430 . S
C175 C177 1.387 . S
C175 C181 1.404 . S
C176 C169 1.448 . S
C176 C175 1.430 . S
C176 N180 1.351 . S
C177 C175 1.387 . S
C177 C178 1.374 . S
C177 H192 0.931 . S
C178 C172 1.439 . S
C178 C177 1.374 . S
C178 H193 0.931 . S
Eu179 N170 2.600 . S
Eu179 N180 2.562 . S
Eu179 O214 2.335 . S
Eu179 O217 2.372 . S
Eu179 O218 2.462 . S
Eu179 O219 2.373 . S
Eu179 O221 2.432 . S
Eu179 O222 2.291 . S
Eu179 C243 2.787 . S
N180 C176 1.351 . S
N180 Eu179 2.562 . S
N180 C182 1.325 . S
C181 C175 1.404 . S
C181 C183 1.366 . S
C181 H189 0.930 . S
C182 N180 1.325 . S
C182 C183 1.416 . S
C182 H188 0.929 . S
C183 C181 1.366 . S
C183 C182 1.416 . S
C183 H185 0.930 . S
H184 C173 0.930 . S
H185 C183 0.930 . S
H186 C201 0.930 . S
H187 C208 0.930 . S
H188 C182 0.929 . S
H189 C181 0.930 . S
H190 C204 0.929 . S
H191 C171 0.931 . S
H192 C177 0.931 . S
H193 C178 0.931 . S
H194 C199 0.931 . S
H195 C174 0.929 . S
H196 C207 0.930 . S
N197 Eu168 2.600 . S
N197 C198 1.365 . S
N197 C201 1.319 . S
C198 N197 1.365 . S
C198 C200 1.405 . S
C198 C206 1.448 . S
C199 H194 0.931 . S
C199 C201 1.397 . S
C199 C202 1.367 . S
C200 C198 1.405 . S
C200 C202 1.403 . S
C200 C233 1.439 . S
C201 H186 0.930 . S
C201 N197 1.319 . S
C201 C199 1.397 . S
C202 C199 1.367 . S
C202 C200 1.403 . S
C202 H209 0.929 . S
N203 Eu168 2.562 . S
N203 C204 1.325 . S
N203 C206 1.351 . S
C204 H190 0.929 . S
C204 N203 1.325 . S
C204 C208 1.416 . S
C205 C206 1.430 . S
C205 C207 1.404 . S
C205 C234 1.387 . S
C206 C198 1.448 . S
C206 N203 1.351 . S
C206 C205 1.430 . S
C207 H196 0.930 . S
C207 C205 1.404 . S
C207 C208 1.366 . S
C208 H187 0.930 . S
C208 C204 1.416 . S
C208 C207 1.366 . S
H209 C202 0.929 . S
H210 C233 0.931 . S
H211 C234 0.931 . S
O212 Eu168 2.462 . S
O212 C232 1.252 . S
O213 Eu168 2.373 . S
O213 C224 1.249 . S
O214 Eu179 2.335 . S
O214 C224 1.264 . S
O215 Eu168 2.432 . S
O215 C232 1.268 . S
O216 Eu168 2.291 . S
O216 C231 1.255 . S
O217 Eu179 2.372 . S
O217 C231 1.257 . S
O218 Eu179 2.462 . S
O218 C243 1.252 . S
O219 Eu179 2.373 . S
O219 C235 1.249 . S
O220 Eu168 2.335 . S
O220 C235 1.264 . S
O221 Eu179 2.432 . S
O221 C243 1.268 . S
O222 Eu179 2.291 . S
O222 C242 1.255 . S
O223 Eu168 2.372 . S
O223 C242 1.257 . S
C224 O213 1.249 . S
C224 O214 1.264 . S
C225 C228 1.382 . S
C225 C230 1.390 . S
C225 C232 1.506 . S
C226 C227 1.398 . S
C226 C230 1.392 . S
C227 C226 1.398 . S
C227 C229 1.372 . S
C227 H244 0.931 . S
C228 C225 1.382 . S
C228 C229 1.390 . S
C228 H245 0.931 . S
C229 C227 1.372 . S
C229 C228 1.390 . S
C229 H246 0.929 . S
C230 C225 1.390 . S
C230 C226 1.392 . S
C230 H247 0.930 . S
C231 O216 1.255 . S
C231 O217 1.257 . S
C232 Eu168 2.787 . S
C232 O212 1.252 . S
C232 O215 1.268 . S
C232 C225 1.506 . S
C233 C200 1.439 . S
C233 H210 0.931 . S
C233 C234 1.374 . S
C234 C205 1.387 . S
C234 H211 0.931 . S
C234 C233 1.374 . S
C235 O219 1.249 . S
C235 O220 1.264 . S
C236 C239 1.382 . S
C236 C240 1.390 . S
C236 C243 1.506 . S
C237 C238 1.398 . S
C237 C240 1.392 . S
C238 C237 1.398 . S
C238 C241 1.372 . S
C238 H248 0.931 . S
C239 C236 1.382 . S
C239 C241 1.390 . S
C239 H249 0.931 . S
C240 C236 1.390 . S
C240 C237 1.392 . S
C240 H250 0.930 . S
C241 C238 1.372 . S
C241 C239 1.390 . S
C241 H251 0.929 . S
C242 O222 1.255 . S
C242 O223 1.257 . S
C243 Eu179 2.787 . S
C243 O218 1.252 . S
C243 O221 1.268 . S
C243 C236 1.506 . S
H244 C227 0.931 . S
H245 C228 0.931 . S
H246 C229 0.929 . S
H247 C230 0.930 . S
H248 C238 0.931 . S
H249 C239 0.931 . S
H250 C240 0.930 . S
H251 C241 0.929 . S
Eu252 N281 2.600 . S
Eu252 N287 2.562 . S
Eu252 O296 2.462 . S
Eu252 O297 2.373 . S
Eu252 O299 2.432 . S
Eu252 O300 2.291 . S
Eu252 O304 2.335 . S
Eu252 O307 2.372 . S
Eu252 C316 2.787 . S
C253 N254 1.365 . S
C253 C256 1.405 . S
C253 C260 1.448 . S
N254 C253 1.365 . S
N254 C257 1.319 . S
N254 Eu263 2.600 . S
C255 C257 1.397 . S
C255 C258 1.367 . S
C255 H275 0.931 . S
C256 C253 1.405 . S
C256 C258 1.403 . S
C256 C262 1.439 . S
C257 N254 1.319 . S
C257 C255 1.397 . S
C257 H268 0.930 . S
C258 C255 1.367 . S
C258 C256 1.403 . S
C258 H279 0.929 . S
C259 C260 1.430 . S
C259 C261 1.387 . S
C259 C265 1.404 . S
C260 C253 1.448 . S
C260 C259 1.430 . S
C260 N264 1.351 . S
C261 C259 1.387 . S
C261 C262 1.374 . S
C261 H276 0.931 . S
C262 C256 1.439 . S
C262 C261 1.374 . S
C262 H277 0.931 . S
Eu263 N254 2.600 . S
Eu263 N264 2.562 . S
Eu263 O298 2.335 . S
Eu263 O301 2.372 . S
Eu263 O302 2.462 . S
Eu263 O303 2.373 . S
Eu263 O305 2.432 . S
Eu263 O306 2.291 . S
Eu263 C327 2.787 . S
N264 C260 1.351 . S
N264 Eu263 2.562 . S
N264 C266 1.325 . S
C265 C259 1.404 . S
C265 C267 1.366 . S
C265 H273 0.930 . S
C266 N264 1.325 . S
C266 C267 1.416 . S
C266 H272 0.929 . S
C267 C265 1.366 . S
C267 C266 1.416 . S
C267 H269 0.930 . S
H268 C257 0.930 . S
H269 C267 0.930 . S
H270 C285 0.930 . S
H271 C292 0.930 . S
H272 C266 0.929 . S
H273 C265 0.930 . S
H274 C288 0.929 . S
H275 C255 0.931 . S
H276 C261 0.931 . S
H277 C262 0.931 . S
H278 C283 0.931 . S
H279 C258 0.929 . S
H280 C291 0.930 . S
N281 Eu252 2.600 . S
N281 C282 1.365 . S
N281 C285 1.319 . S
C282 N281 1.365 . S
C282 C284 1.405 . S
C282 C290 1.448 . S
C283 H278 0.931 . S
C283 C285 1.397 . S
C283 C286 1.367 . S
C284 C282 1.405 . S
C284 C286 1.403 . S
C284 C317 1.439 . S
C285 H270 0.930 . S
C285 N281 1.319 . S
C285 C283 1.397 . S
C286 C283 1.367 . S
C286 C284 1.403 . S
C286 H293 0.929 . S
N287 Eu252 2.562 . S
N287 C288 1.325 . S
N287 C290 1.351 . S
C288 H274 0.929 . S
C288 N287 1.325 . S
C288 C292 1.416 . S
C289 C290 1.430 . S
C289 C291 1.404 . S
C289 C318 1.387 . S
C290 C282 1.448 . S
C290 N287 1.351 . S
C290 C289 1.430 . S
C291 H280 0.930 . S
C291 C289 1.404 . S
C291 C292 1.366 . S
C292 H271 0.930 . S
C292 C288 1.416 . S
C292 C291 1.366 . S
H293 C286 0.929 . S
H294 C317 0.931 . S
H295 C318 0.931 . S
O296 Eu252 2.462 . S
O296 C316 1.252 . S
O297 Eu252 2.373 . S
O297 C308 1.249 . S
O298 Eu263 2.335 . S
O298 C308 1.264 . S
O299 Eu252 2.432 . S
O299 C316 1.268 . S
O300 Eu252 2.291 . S
O300 C315 1.255 . S
O301 Eu263 2.372 . S
O301 C315 1.257 . S
O302 Eu263 2.462 . S
O302 C327 1.252 . S
O303 Eu263 2.373 . S
O303 C319 1.249 . S
O304 Eu252 2.335 . S
O304 C319 1.264 . S
O305 Eu263 2.432 . S
O305 C327 1.268 . S
O306 Eu263 2.291 . S
O306 C326 1.255 . S
O307 Eu252 2.372 . S
O307 C326 1.257 . S
C308 O297 1.249 . S
C308 O298 1.264 . S
C309 C312 1.382 . S
C309 C314 1.390 . S
C309 C316 1.506 . S
C310 C311 1.398 . S
C310 C314 1.392 . S
C311 C310 1.398 . S
C311 C313 1.372 . S
C311 H328 0.931 . S
C312 C309 1.382 . S
C312 C313 1.390 . S
C312 H329 0.931 . S
C313 C311 1.372 . S
C313 C312 1.390 . S
C313 H330 0.929 . S
C314 C309 1.390 . S
C314 C310 1.392 . S
C314 H331 0.930 . S
C315 O300 1.255 . S
C315 O301 1.257 . S
C316 Eu252 2.787 . S
C316 O296 1.252 . S
C316 O299 1.268 . S
C316 C309 1.506 . S
C317 C284 1.439 . S
C317 H294 0.931 . S
C317 C318 1.374 . S
C318 C289 1.387 . S
C318 H295 0.931 . S
C318 C317 1.374 . S
C319 O303 1.249 . S
C319 O304 1.264 . S
C320 C323 1.382 . S
C320 C324 1.390 . S
C320 C327 1.506 . S
C321 C322 1.398 . S
C321 C324 1.392 . S
C322 C321 1.398 . S
C322 C325 1.372 . S
C322 H332 0.931 . S
C323 C320 1.382 . S
C323 C325 1.390 . S
C323 H333 0.931 . S
C324 C320 1.390 . S
C324 C321 1.392 . S
C324 H334 0.930 . S
C325 C322 1.372 . S
C325 C323 1.390 . S
C325 H335 0.929 . S
C326 O306 1.255 . S
C326 O307 1.257 . S
C327 Eu263 2.787 . S
C327 O302 1.252 . S
C327 O305 1.268 . S
C327 C320 1.506 . S
H328 C311 0.931 . S
H329 C312 0.931 . S
H330 C313 0.929 . S
H331 C314 0.930 . S
H332 C322 0.931 . S
H333 C323 0.931 . S
H334 C324 0.930 . S
H335 C325 0.929 . S
Eu336 N365 2.600 . S
Eu336 N371 2.562 . S
Eu336 O380 2.462 . S
Eu336 O381 2.373 . S
Eu336 O383 2.432 . S
Eu336 O384 2.291 . S
Eu336 O388 2.335 . S
Eu336 O391 2.372 . S
Eu336 C400 2.787 . S
C337 N338 1.365 . S
C337 C340 1.405 . S
C337 C344 1.448 . S
N338 C337 1.365 . S
N338 C341 1.319 . S
N338 Eu347 2.600 . S
C339 C341 1.397 . S
C339 C342 1.367 . S
C339 H359 0.931 . S
C340 C337 1.405 . S
C340 C342 1.403 . S
C340 C346 1.439 . S
C341 N338 1.319 . S
C341 C339 1.397 . S
C341 H352 0.930 . S
C342 C339 1.367 . S
C342 C340 1.403 . S
C342 H363 0.929 . S
C343 C344 1.430 . S
C343 C345 1.387 . S
C343 C349 1.404 . S
C344 C337 1.448 . S
C344 C343 1.430 . S
C344 N348 1.351 . S
C345 C343 1.387 . S
C345 C346 1.374 . S
C345 H360 0.931 . S
C346 C340 1.439 . S
C346 C345 1.374 . S
C346 H361 0.931 . S
Eu347 N338 2.600 . S
Eu347 N348 2.562 . S
Eu347 O382 2.335 . S
Eu347 O385 2.372 . S
Eu347 O386 2.462 . S
Eu347 O387 2.373 . S
Eu347 O389 2.432 . S
Eu347 O390 2.291 . S
Eu347 C411 2.787 . S
N348 C344 1.351 . S
N348 Eu347 2.562 . S
N348 C350 1.325 . S
C349 C343 1.404 . S
C349 C351 1.366 . S
C349 H357 0.930 . S
C350 N348 1.325 . S
C350 C351 1.416 . S
C350 H356 0.929 . S
C351 C349 1.366 . S
C351 C350 1.416 . S
C351 H353 0.930 . S
H352 C341 0.930 . S
H353 C351 0.930 . S
H354 C369 0.930 . S
H355 C376 0.930 . S
H356 C350 0.929 . S
H357 C349 0.930 . S
H358 C372 0.929 . S
H359 C339 0.931 . S
H360 C345 0.931 . S
H361 C346 0.931 . S
H362 C367 0.931 . S
H363 C342 0.929 . S
H364 C375 0.930 . S
N365 Eu336 2.600 . S
N365 C366 1.365 . S
N365 C369 1.319 . S
C366 N365 1.365 . S
C366 C368 1.405 . S
C366 C374 1.448 . S
C367 H362 0.931 . S
C367 C369 1.397 . S
C367 C370 1.367 . S
C368 C366 1.405 . S
C368 C370 1.403 . S
C368 C401 1.439 . S
C369 H354 0.930 . S
C369 N365 1.319 . S
C369 C367 1.397 . S
C370 C367 1.367 . S
C370 C368 1.403 . S
C370 H377 0.929 . S
N371 Eu336 2.562 . S
N371 C372 1.325 . S
N371 C374 1.351 . S
C372 H358 0.929 . S
C372 N371 1.325 . S
C372 C376 1.416 . S
C373 C374 1.430 . S
C373 C375 1.404 . S
C373 C402 1.387 . S
C374 C366 1.448 . S
C374 N371 1.351 . S
C374 C373 1.430 . S
C375 H364 0.930 . S
C375 C373 1.404 . S
C375 C376 1.366 . S
C376 H355 0.930 . S
C376 C372 1.416 . S
C376 C375 1.366 . S
H377 C370 0.929 . S
H378 C401 0.931 . S
H379 C402 0.931 . S
O380 Eu336 2.462 . S
O380 C400 1.252 . S
O381 Eu336 2.373 . S
O381 C392 1.249 . S
O382 Eu347 2.335 . S
O382 C392 1.264 . S
O383 Eu336 2.432 . S
O383 C400 1.268 . S
O384 Eu336 2.291 . S
O384 C399 1.255 . S
O385 Eu347 2.372 . S
O385 C399 1.257 . S
O386 Eu347 2.462 . S
O386 C411 1.252 . S
O387 Eu347 2.373 . S
O387 C403 1.249 . S
O388 Eu336 2.335 . S
O388 C403 1.264 . S
O389 Eu347 2.432 . S
O389 C411 1.268 . S
O390 Eu347 2.291 . S
O390 C410 1.255 . S
O391 Eu336 2.372 . S
O391 C410 1.257 . S
C392 O381 1.249 . S
C392 O382 1.264 . S
C393 C396 1.382 . S
C393 C398 1.390 . S
C393 C400 1.506 . S
C394 C395 1.398 . S
C394 C398 1.392 . S
C395 C394 1.398 . S
C395 C397 1.372 . S
C395 H412 0.931 . S
C396 C393 1.382 . S
C396 C397 1.390 . S
C396 H413 0.931 . S
C397 C395 1.372 . S
C397 C396 1.390 . S
C397 H414 0.929 . S
C398 C393 1.390 . S
C398 C394 1.392 . S
C398 H415 0.930 . S
C399 O384 1.255 . S
C399 O385 1.257 . S
C400 Eu336 2.787 . S
C400 O380 1.252 . S
C400 O383 1.268 . S
C400 C393 1.506 . S
C401 C368 1.439 . S
C401 H378 0.931 . S
C401 C402 1.374 . S
C402 C373 1.387 . S
C402 H379 0.931 . S
C402 C401 1.374 . S
C403 O387 1.249 . S
C403 O388 1.264 . S
C404 C407 1.382 . S
C404 C408 1.390 . S
C404 C411 1.506 . S
C405 C406 1.398 . S
C405 C408 1.392 . S
C406 C405 1.398 . S
C406 C409 1.372 . S
C406 H416 0.931 . S
C407 C404 1.382 . S
C407 C409 1.390 . S
C407 H417 0.931 . S
C408 C404 1.390 . S
C408 C405 1.392 . S
C408 H418 0.930 . S
C409 C406 1.372 . S
C409 C407 1.390 . S
C409 H419 0.929 . S
C410 O390 1.255 . S
C410 O391 1.257 . S
C411 Eu347 2.787 . S
C411 O386 1.252 . S
C411 O389 1.268 . S
C411 C404 1.506 . S
H412 C395 0.931 . S
H413 C396 0.931 . S
H414 C397 0.929 . S
H415 C398 0.930 . S
H416 C406 0.931 . S
H417 C407 0.931 . S
H418 C408 0.930 . S
H419 C409 0.929 . S
Eu420 N449 2.600 . S
Eu420 N455 2.562 . S
Eu420 O464 2.462 . S
Eu420 O465 2.373 . S
Eu420 O467 2.432 . S
Eu420 O468 2.291 . S
Eu420 O472 2.335 . S
Eu420 O475 2.372 . S
Eu420 C484 2.787 . S
C421 N422 1.365 . S
C421 C424 1.405 . S
C421 C428 1.448 . S
N422 C421 1.365 . S
N422 C425 1.319 . S
N422 Eu431 2.600 . S
C423 C425 1.397 . S
C423 C426 1.367 . S
C423 H443 0.931 . S
C424 C421 1.405 . S
C424 C426 1.403 . S
C424 C430 1.439 . S
C425 N422 1.319 . S
C425 C423 1.397 . S
C425 H436 0.930 . S
C426 C423 1.367 . S
C426 C424 1.403 . S
C426 H447 0.929 . S
C427 C428 1.430 . S
C427 C429 1.387 . S
C427 C433 1.404 . S
C428 C421 1.448 . S
C428 C427 1.430 . S
C428 N432 1.351 . S
C429 C427 1.387 . S
C429 C430 1.374 . S
C429 H444 0.931 . S
C430 C424 1.439 . S
C430 C429 1.374 . S
C430 H445 0.931 . S
Eu431 N422 2.600 . S
Eu431 N432 2.562 . S
Eu431 O466 2.335 . S
Eu431 O469 2.372 . S
Eu431 O470 2.462 . S
Eu431 O471 2.373 . S
Eu431 O473 2.432 . S
Eu431 O474 2.291 . S
Eu431 C495 2.787 . S
N432 C428 1.351 . S
N432 Eu431 2.562 . S
N432 C434 1.325 . S
C433 C427 1.404 . S
C433 C435 1.366 . S
C433 H441 0.930 . S
C434 N432 1.325 . S
C434 C435 1.416 . S
C434 H440 0.929 . S
C435 C433 1.366 . S
C435 C434 1.416 . S
C435 H437 0.930 . S
H436 C425 0.930 . S
H437 C435 0.930 . S
H438 C453 0.930 . S
H439 C460 0.930 . S
H440 C434 0.929 . S
H441 C433 0.930 . S
H442 C456 0.929 . S
H443 C423 0.931 . S
H444 C429 0.931 . S
H445 C430 0.931 . S
H446 C451 0.931 . S
H447 C426 0.929 . S
H448 C459 0.930 . S
N449 Eu420 2.600 . S
N449 C450 1.365 . S
N449 C453 1.319 . S
C450 N449 1.365 . S
C450 C452 1.405 . S
C450 C458 1.448 . S
C451 H446 0.931 . S
C451 C453 1.397 . S
C451 C454 1.367 . S
C452 C450 1.405 . S
C452 C454 1.403 . S
C452 C485 1.439 . S
C453 H438 0.930 . S
C453 N449 1.319 . S
C453 C451 1.397 . S
C454 C451 1.367 . S
C454 C452 1.403 . S
C454 H461 0.929 . S
N455 Eu420 2.562 . S
N455 C456 1.325 . S
N455 C458 1.351 . S
C456 H442 0.929 . S
C456 N455 1.325 . S
C456 C460 1.416 . S
C457 C458 1.430 . S
C457 C459 1.404 . S
C457 C486 1.387 . S
C458 C450 1.448 . S
C458 N455 1.351 . S
C458 C457 1.430 . S
C459 H448 0.930 . S
C459 C457 1.404 . S
C459 C460 1.366 . S
C460 H439 0.930 . S
C460 C456 1.416 . S
C460 C459 1.366 . S
H461 C454 0.929 . S
H462 C485 0.931 . S
H463 C486 0.931 . S
O464 Eu420 2.462 . S
O464 C484 1.252 . S
O465 Eu420 2.373 . S
O465 C476 1.249 . S
O466 Eu431 2.335 . S
O466 C476 1.264 . S
O467 Eu420 2.432 . S
O467 C484 1.268 . S
O468 Eu420 2.291 . S
O468 C483 1.255 . S
O469 Eu431 2.372 . S
O469 C483 1.257 . S
O470 Eu431 2.462 . S
O470 C495 1.252 . S
O471 Eu431 2.373 . S
O471 C487 1.249 . S
O472 Eu420 2.335 . S
O472 C487 1.264 . S
O473 Eu431 2.432 . S
O473 C495 1.268 . S
O474 Eu431 2.291 . S
O474 C494 1.255 . S
O475 Eu420 2.372 . S
O475 C494 1.257 . S
C476 O465 1.249 . S
C476 O466 1.264 . S
C477 C480 1.382 . S
C477 C482 1.390 . S
C477 C484 1.506 . S
C478 C479 1.398 . S
C478 C482 1.392 . S
C479 C478 1.398 . S
C479 C481 1.372 . S
C479 H496 0.931 . S
C480 C477 1.382 . S
C480 C481 1.390 . S
C480 H497 0.931 . S
C481 C479 1.372 . S
C481 C480 1.390 . S
C481 H498 0.929 . S
C482 C477 1.390 . S
C482 C478 1.392 . S
C482 H499 0.930 . S
C483 O468 1.255 . S
C483 O469 1.257 . S
C484 Eu420 2.787 . S
C484 O464 1.252 . S
C484 O467 1.268 . S
C484 C477 1.506 . S
C485 C452 1.439 . S
C485 H462 0.931 . S
C485 C486 1.374 . S
C486 C457 1.387 . S
C486 H463 0.931 . S
C486 C485 1.374 . S
C487 O471 1.249 . S
C487 O472 1.264 . S
C488 C491 1.382 . S
C488 C492 1.390 . S
C488 C495 1.506 . S
C489 C490 1.398 . S
C489 C492 1.392 . S
C490 C489 1.398 . S
C490 C493 1.372 . S
C490 H500 0.931 . S
C491 C488 1.382 . S
C491 C493 1.390 . S
C491 H501 0.931 . S
C492 C488 1.390 . S
C492 C489 1.392 . S
C492 H502 0.930 . S
C493 C490 1.372 . S
C493 C491 1.390 . S
C493 H503 0.929 . S
C494 O474 1.255 . S
C494 O475 1.257 . S
C495 Eu431 2.787 . S
C495 O470 1.252 . S
C495 O473 1.268 . S
C495 C488 1.506 . S
H496 C479 0.931 . S
H497 C480 0.931 . S
H498 C481 0.929 . S
H499 C482 0.930 . S
H500 C490 0.931 . S
H501 C491 0.931 . S
H502 C492 0.930 . S
H503 C493 0.929 . S
Eu504 N533 2.600 . S
Eu504 N539 2.562 . S
Eu504 O548 2.462 . S
Eu504 O549 2.373 . S
Eu504 O551 2.432 . S
Eu504 O552 2.291 . S
Eu504 O556 2.335 . S
Eu504 O559 2.372 . S
Eu504 C568 2.787 . S
C505 N506 1.365 . S
C505 C508 1.405 . S
C505 C512 1.448 . S
N506 C505 1.365 . S
N506 C509 1.319 . S
N506 Eu515 2.600 . S
C507 C509 1.397 . S
C507 C510 1.367 . S
C507 H527 0.931 . S
C508 C505 1.405 . S
C508 C510 1.403 . S
C508 C514 1.439 . S
C509 N506 1.319 . S
C509 C507 1.397 . S
C509 H520 0.930 . S
C510 C507 1.367 . S
C510 C508 1.403 . S
C510 H531 0.929 . S
C511 C512 1.430 . S
C511 C513 1.387 . S
C511 C517 1.404 . S
C512 C505 1.448 . S
C512 C511 1.430 . S
C512 N516 1.351 . S
C513 C511 1.387 . S
C513 C514 1.374 . S
C513 H528 0.931 . S
C514 C508 1.439 . S
C514 C513 1.374 . S
C514 H529 0.931 . S
Eu515 N506 2.600 . S
Eu515 N516 2.562 . S
Eu515 O550 2.335 . S
Eu515 O553 2.372 . S
Eu515 O554 2.462 . S
Eu515 O555 2.373 . S
Eu515 O557 2.432 . S
Eu515 O558 2.291 . S
Eu515 C579 2.787 . S
N516 C512 1.351 . S
N516 Eu515 2.562 . S
N516 C518 1.325 . S
C517 C511 1.404 . S
C517 C519 1.366 . S
C517 H525 0.930 . S
C518 N516 1.325 . S
C518 C519 1.416 . S
C518 H524 0.929 . S
C519 C517 1.366 . S
C519 C518 1.416 . S
C519 H521 0.930 . S
H520 C509 0.930 . S
H521 C519 0.930 . S
H522 C537 0.930 . S
H523 C544 0.930 . S
H524 C518 0.929 . S
H525 C517 0.930 . S
H526 C540 0.929 . S
H527 C507 0.931 . S
H528 C513 0.931 . S
H529 C514 0.931 . S
H530 C535 0.931 . S
H531 C510 0.929 . S
H532 C543 0.930 . S
N533 Eu504 2.600 . S
N533 C534 1.365 . S
N533 C537 1.319 . S
C534 N533 1.365 . S
C534 C536 1.405 . S
C534 C542 1.448 . S
C535 H530 0.931 . S
C535 C537 1.397 . S
C535 C538 1.367 . S
C536 C534 1.405 . S
C536 C538 1.403 . S
C536 C569 1.439 . S
C537 H522 0.930 . S
C537 N533 1.319 . S
C537 C535 1.397 . S
C538 C535 1.367 . S
C538 C536 1.403 . S
C538 H545 0.929 . S
N539 Eu504 2.562 . S
N539 C540 1.325 . S
N539 C542 1.351 . S
C540 H526 0.929 . S
C540 N539 1.325 . S
C540 C544 1.416 . S
C541 C542 1.430 . S
C541 C543 1.404 . S
C541 C570 1.387 . S
C542 C534 1.448 . S
C542 N539 1.351 . S
C542 C541 1.430 . S
C543 H532 0.930 . S
C543 C541 1.404 . S
C543 C544 1.366 . S
C544 H523 0.930 . S
C544 C540 1.416 . S
C544 C543 1.366 . S
H545 C538 0.929 . S
H546 C569 0.931 . S
H547 C570 0.931 . S
O548 Eu504 2.462 . S
O548 C568 1.252 . S
O549 Eu504 2.373 . S
O549 C560 1.249 . S
O550 Eu515 2.335 . S
O550 C560 1.264 . S
O551 Eu504 2.432 . S
O551 C568 1.268 . S
O552 Eu504 2.291 . S
O552 C567 1.255 . S
O553 Eu515 2.372 . S
O553 C567 1.257 . S
O554 Eu515 2.462 . S
O554 C579 1.252 . S
O555 Eu515 2.373 . S
O555 C571 1.249 . S
O556 Eu504 2.335 . S
O556 C571 1.264 . S
O557 Eu515 2.432 . S
O557 C579 1.268 . S
O558 Eu515 2.291 . S
O558 C578 1.255 . S
O559 Eu504 2.372 . S
O559 C578 1.257 . S
C560 O549 1.249 . S
C560 O550 1.264 . S
C561 C564 1.382 . S
C561 C566 1.390 . S
C561 C568 1.506 . S
C562 C563 1.398 . S
C562 C566 1.392 . S
C563 C562 1.398 . S
C563 C565 1.372 . S
C563 H580 0.931 . S
C564 C561 1.382 . S
C564 C565 1.390 . S
C564 H581 0.931 . S
C565 C563 1.372 . S
C565 C564 1.390 . S
C565 H582 0.929 . S
C566 C561 1.390 . S
C566 C562 1.392 . S
C566 H583 0.930 . S
C567 O552 1.255 . S
C567 O553 1.257 . S
C568 Eu504 2.787 . S
C568 O548 1.252 . S
C568 O551 1.268 . S
C568 C561 1.506 . S
C569 C536 1.439 . S
C569 H546 0.931 . S
C569 C570 1.374 . S
C570 C541 1.387 . S
C570 H547 0.931 . S
C570 C569 1.374 . S
C571 O555 1.249 . S
C571 O556 1.264 . S
C572 C575 1.382 . S
C572 C576 1.390 . S
C572 C579 1.506 . S
C573 C574 1.398 . S
C573 C576 1.392 . S
C574 C573 1.398 . S
C574 C577 1.372 . S
C574 H584 0.931 . S
C575 C572 1.382 . S
C575 C577 1.390 . S
C575 H585 0.931 . S
C576 C572 1.390 . S
C576 C573 1.392 . S
C576 H586 0.930 . S
C577 C574 1.372 . S
C577 C575 1.390 . S
C577 H587 0.929 . S
C578 O558 1.255 . S
C578 O559 1.257 . S
C579 Eu515 2.787 . S
C579 O554 1.252 . S
C579 O557 1.268 . S
C579 C572 1.506 . S
H580 C563 0.931 . S
H581 C564 0.931 . S
H582 C565 0.929 . S
H583 C566 0.930 . S
H584 C574 0.931 . S
H585 C575 0.931 . S
H586 C576 0.930 . S
H587 C577 0.929 . S
Eu588 N617 2.600 . S
Eu588 N623 2.562 . S
Eu588 O632 2.462 . S
Eu588 O633 2.373 . S
Eu588 O635 2.432 . S
Eu588 O636 2.291 . S
Eu588 O640 2.335 . S
Eu588 O643 2.372 . S
Eu588 C652 2.787 . S
C589 N590 1.365 . S
C589 C592 1.405 . S
C589 C596 1.448 . S
N590 C589 1.365 . S
N590 C593 1.319 . S
N590 Eu599 2.600 . S
C591 C593 1.397 . S
C591 C594 1.367 . S
C591 H611 0.931 . S
C592 C589 1.405 . S
C592 C594 1.403 . S
C592 C598 1.439 . S
C593 N590 1.319 . S
C593 C591 1.397 . S
C593 H604 0.930 . S
C594 C591 1.367 . S
C594 C592 1.403 . S
C594 H615 0.929 . S
C595 C596 1.430 . S
C595 C597 1.387 . S
C595 C601 1.404 . S
C596 C589 1.448 . S
C596 C595 1.430 . S
C596 N600 1.351 . S
C597 C595 1.387 . S
C597 C598 1.374 . S
C597 H612 0.931 1_556 S
C598 C592 1.439 . S
C598 C597 1.374 . S
C598 H613 0.931 . S
Eu599 N590 2.600 . S
Eu599 N600 2.562 . S
Eu599 O634 2.335 . S
Eu599 O637 2.372 . S
Eu599 O638 2.462 . S
Eu599 O639 2.373 . S
Eu599 O641 2.432 . S
Eu599 O642 2.291 . S
Eu599 C663 2.787 . S
N600 C596 1.351 . S
N600 Eu599 2.562 . S
N600 C602 1.325 . S
C601 C595 1.404 . S
C601 C603 1.366 . S
C601 H609 0.930 1_556 S
C602 N600 1.325 . S
C602 C603 1.416 . S
C602 H608 0.929 . S
C603 C601 1.366 . S
C603 C602 1.416 . S
C603 H605 0.930 . S
H604 C593 0.930 . S
H605 C603 0.930 . S
H606 C621 0.930 . S
H607 C628 0.930 . S
H608 C602 0.929 . S
H609 C601 0.930 1_554 S
H610 C624 0.929 . S
H611 C591 0.931 . S
H612 C597 0.931 1_554 S
H613 C598 0.931 . S
H614 C619 0.931 . S
H615 C594 0.929 . S
H616 C627 0.930 . S
N617 Eu588 2.600 . S
N617 C618 1.365 . S
N617 C621 1.319 . S
C618 N617 1.365 . S
C618 C620 1.405 . S
C618 C626 1.448 . S
C619 H614 0.931 . S
C619 C621 1.397 . S
C619 C622 1.367 . S
C620 C618 1.405 . S
C620 C622 1.403 . S
C620 C653 1.439 . S
C621 H606 0.930 . S
C621 N617 1.319 . S
C621 C619 1.397 . S
C622 C619 1.367 . S
C622 C620 1.403 . S
C622 H629 0.929 . S
N623 Eu588 2.562 . S
N623 C624 1.325 . S
N623 C626 1.351 . S
C624 H610 0.929 . S
C624 N623 1.325 . S
C624 C628 1.416 . S
C625 C626 1.430 . S
C625 C627 1.404 . S
C625 C654 1.387 . S
C626 C618 1.448 . S
C626 N623 1.351 . S
C626 C625 1.430 . S
C627 H616 0.930 . S
C627 C625 1.404 . S
C627 C628 1.366 . S
C628 H607 0.930 . S
C628 C624 1.416 . S
C628 C627 1.366 . S
H629 C622 0.929 . S
H630 C653 0.931 . S
H631 C654 0.931 . S
O632 Eu588 2.462 . S
O632 C652 1.252 . S
O633 Eu588 2.373 . S
O633 C644 1.249 . S
O634 Eu599 2.335 . S
O634 C644 1.264 . S
O635 Eu588 2.432 . S
O635 C652 1.268 . S
O636 Eu588 2.291 . S
O636 C651 1.255 . S
O637 Eu599 2.372 . S
O637 C651 1.257 . S
O638 Eu599 2.462 . S
O638 C663 1.252 . S
O639 Eu599 2.373 . S
O639 C655 1.249 . S
O640 Eu588 2.335 . S
O640 C655 1.264 . S
O641 Eu599 2.432 . S
O641 C663 1.268 . S
O642 Eu599 2.291 . S
O642 C662 1.255 . S
O643 Eu588 2.372 . S
O643 C662 1.257 . S
C644 O633 1.249 . S
C644 O634 1.264 . S
C645 C648 1.382 . S
C645 C650 1.390 . S
C645 C652 1.506 . S
C646 C647 1.398 . S
C646 C650 1.392 . S
C647 C646 1.398 . S
C647 C649 1.372 . S
C647 H664 0.931 . S
C648 C645 1.382 . S
C648 C649 1.390 . S
C648 H665 0.931 . S
C649 C647 1.372 . S
C649 C648 1.390 . S
C649 H666 0.929 . S
C650 C645 1.390 . S
C650 C646 1.392 . S
C650 H667 0.930 . S
C651 O636 1.255 . S
C651 O637 1.257 . S
C652 Eu588 2.787 . S
C652 O632 1.252 . S
C652 O635 1.268 . S
C652 C645 1.506 . S
C653 C620 1.439 . S
C653 H630 0.931 . S
C653 C654 1.374 . S
C654 C625 1.387 . S
C654 H631 0.931 . S
C654 C653 1.374 . S
C655 O639 1.249 . S
C655 O640 1.264 . S
C656 C659 1.382 . S
C656 C660 1.390 . S
C656 C663 1.506 . S
C657 C658 1.398 . S
C657 C660 1.392 . S
C658 C657 1.398 . S
C658 C661 1.372 . S
C658 H668 0.931 . S
C659 C656 1.382 . S
C659 C661 1.390 . S
C659 H669 0.931 . S
C660 C656 1.390 . S
C660 C657 1.392 . S
C660 H670 0.930 . S
C661 C658 1.372 . S
C661 C659 1.390 . S
C661 H671 0.929 . S
C662 O642 1.255 . S
C662 O643 1.257 . S
C663 Eu599 2.787 . S
C663 O638 1.252 . S
C663 O641 1.268 . S
C663 C656 1.506 . S
H664 C647 0.931 . S
H665 C648 0.931 . S
H666 C649 0.929 . S
H667 C650 0.930 . S
H668 C658 0.931 . S
H669 C659 0.931 . S
H670 C660 0.930 . S
H671 C661 0.929 . S
Cd672 N675 2.334 1_655 S
Cd672 N701 2.304 1_565 S
Cd672 O708 2.268 . S
Cd672 O711 2.273 1_665 S
Cd672 O712 2.417 . S
Cd672 O713 2.330 . S
Cd673 N688 2.304 1_455 S
Cd673 N692 2.334 1_545 S
Cd673 O709 2.273 1_445 S
Cd673 O710 2.268 . S
Cd673 O714 2.417 . S
Cd673 O715 2.330 . S
C674 N675 1.332 . S
C674 C678 1.381 . S
C674 H680 0.931 . S
N675 Cd672 2.334 1_455 S
N675 C674 1.332 . S
N675 C679 1.328 . S
C676 C677 1.396 . S
C676 C679 1.378 . S
C676 H718 0.931 . S
C677 C676 1.396 . S
C677 C678 1.382 . S
C678 C674 1.381 . S
C678 C677 1.382 . S
C678 H719 0.930 . S
C679 N675 1.328 . S
C679 C676 1.378 . S
C679 H681 0.930 1_455 S
H680 C674 0.931 . S
H681 C679 0.930 1_655 S
C682 O708 1.238 . S
C682 O709 1.253 . S
C683 C684 1.379 . S
C683 N688 1.337 . S
C683 H689 0.929 . S
C684 C683 1.379 . S
C684 C685 1.380 . S
C684 H720 0.929 . S
C685 C684 1.380 . S
C685 C686 1.399 . S
C686 C685 1.399 . S
C686 C687 1.376 1_655 S
C686 H721 0.931 . S
C687 C686 1.376 1_455 S
C687 N688 1.338 1_455 S
C687 H690 0.930 . S
N688 Cd673 2.304 1_655 S
N688 C683 1.337 . S
N688 C687 1.338 1_655 S
H689 C683 0.929 . S
H690 C687 0.930 . S
C691 N692 1.332 . S
C691 C695 1.381 . S
C691 H697 0.931 . S
N692 Cd673 2.334 1_565 S
N692 C691 1.332 . S
N692 C696 1.328 . S
C693 C694 1.396 . S
C693 C696 1.378 . S
C693 H722 0.931 . S
C694 C693 1.396 . S
C694 C695 1.382 . S
C695 C691 1.381 . S
C695 C694 1.382 . S
C695 H723 0.930 . S
C696 N692 1.328 . S
C696 C693 1.378 . S
C696 H698 0.930 1_565 S
H697 C691 0.931 . S
H698 C696 0.930 1_545 S
C699 O710 1.238 . S
C699 O711 1.253 . S
C700 O712 1.239 . S
C700 O713 1.230 . S
N701 Cd672 2.304 1_545 S
N701 C702 1.337 . S
N701 C706 1.338 . S
C702 N701 1.337 . S
C702 C703 1.379 . S
C702 H716 0.929 . S
C703 C702 1.379 . S
C703 C704 1.380 . S
C703 H724 0.929 . S
C704 C703 1.380 . S
C704 C705 1.399 . S
C705 C704 1.399 . S
C705 C706 1.376 . S
C705 H725 0.931 . S
C706 N701 1.338 . S
C706 C705 1.376 . S
C706 H717 0.930 1_545 S
C707 O714 1.239 . S
C707 O715 1.230 . S
O708 Cd672 2.268 . S
O708 C682 1.238 . S
O709 Cd673 2.273 1_665 S
O709 C682 1.253 . S
O710 Cd673 2.268 . S
O710 C699 1.238 . S
O711 Cd672 2.273 1_445 S
O711 C699 1.253 . S
O712 Cd672 2.417 . S
O712 C700 1.239 . S
O713 Cd672 2.330 . S
O713 C700 1.230 . S
O714 Cd673 2.417 . S
O714 C707 1.239 . S
O715 Cd673 2.330 . S
O715 C707 1.230 . S
H716 C702 0.929 . S
H717 C706 0.930 1_565 S
H718 C676 0.931 . S
H719 C678 0.930 . S
H720 C684 0.929 . S
H721 C686 0.931 . S
H722 C693 0.931 . S
H723 C695 0.930 . S
H724 C703 0.929 . S
H725 C705 0.931 . S
Cd726 N729 2.334 . S
Cd726 N755 2.304 1_565 S
Cd726 O762 2.268 1_554 S
Cd726 O765 2.273 1_565 S
Cd726 O766 2.417 . S
Cd726 O767 2.330 . S
Cd727 N742 2.304 . S
Cd727 N746 2.334 1_545 S
Cd727 O763 2.273 1_545 S
Cd727 O764 2.268 1_556 S
Cd727 O768 2.417 . S
Cd727 O769 2.330 . S
C728 N729 1.332 . S
C728 C732 1.381 . S
C728 H734 0.931 . S
N729 Cd726 2.334 . S
N729 C728 1.332 . S
N729 C733 1.328 . S
C730 C731 1.396 . S
C730 C733 1.378 . S
C730 H772 0.931 1_554 S
C731 C730 1.396 . S
C731 C732 1.382 . S
C732 C728 1.381 . S
C732 C731 1.382 . S
C732 H773 0.930 . S
C733 N729 1.328 . S
C733 C730 1.378 . S
C733 H735 0.930 1_554 S
H734 C728 0.931 . S
H735 C733 0.930 1_556 S
C736 O762 1.238 . S
C736 O763 1.253 . S
C737 C738 1.379 . S
C737 N742 1.337 . S
C737 H743 0.929 . S
C738 C737 1.379 . S
C738 C739 1.380 . S
C738 H774 0.929 . S
C739 C738 1.380 . S
C739 C740 1.399 1_556 S
C740 C739 1.399 1_554 S
C740 C741 1.376 1_554 S
C740 H775 0.931 . S
C741 C740 1.376 1_556 S
C741 N742 1.338 . S
C741 H744 0.930 1_556 S
N742 Cd727 2.304 . S
N742 C737 1.337 . S
N742 C741 1.338 . S
H743 C737 0.929 . S
H744 C741 0.930 1_554 S
C745 N746 1.332 . S
C745 C749 1.381 . S
C745 H751 0.931 . S
N746 Cd727 2.334 1_565 S
N746 C745 1.332 . S
N746 C750 1.328 . S
C747 C748 1.396 . S
C747 C750 1.378 . S
C747 H776 0.931 . S
C748 C747 1.396 . S
C748 C749 1.382 . S
C749 C745 1.381 . S
C749 C748 1.382 . S
C749 H777 0.930 . S
C750 N746 1.328 . S
C750 C747 1.378 . S
C750 H752 0.930 1_566 S
H751 C745 0.931 . S
H752 C750 0.930 1_544 S
C753 O764 1.238 . S
C753 O765 1.253 . S
C754 O766 1.239 . S
C754 O767 1.230 . S
N755 Cd726 2.304 1_545 S
N755 C756 1.337 . S
N755 C760 1.338 . S
C756 N755 1.337 . S
C756 C757 1.379 . S
C756 H770 0.929 . S
C757 C756 1.379 . S
C757 C758 1.380 . S
C757 H778 0.929 . S
C758 C757 1.380 . S
C758 C759 1.399 . S
C759 C758 1.399 . S
C759 C760 1.376 . S
C759 H779 0.931 . S
C760 N755 1.338 . S
C760 C759 1.376 . S
C760 H771 0.930 1_544 S
C761 O768 1.239 . S
C761 O769 1.230 . S
O762 Cd726 2.268 1_556 S
O762 C736 1.238 . S
O763 Cd727 2.273 1_565 S
O763 C736 1.253 . S
O764 Cd727 2.268 1_554 S
O764 C753 1.238 . S
O765 Cd726 2.273 1_545 S
O765 C753 1.253 . S
O766 Cd726 2.417 . S
O766 C754 1.239 . S
O767 Cd726 2.330 . S
O767 C754 1.230 . S
O768 Cd727 2.417 . S
O768 C761 1.239 . S
O769 Cd727 2.330 . S
O769 C761 1.230 . S
H770 C756 0.929 . S
H771 C760 0.930 1_566 S
H772 C730 0.931 1_556 S
H773 C732 0.930 . S
H774 C738 0.929 . S
H775 C740 0.931 . S
H776 C747 0.931 . S
H777 C749 0.930 . S
H778 C757 0.929 . S
H779 C759 0.931 . S
Cd780 N783 2.334 1_655 S
Cd780 N809 2.304 . S
Cd780 O816 2.268 1_554 S
Cd780 O819 2.273 1_655 S
Cd780 O820 2.417 . S
Cd780 O821 2.330 . S
Cd781 N796 2.304 1_455 S
Cd781 N800 2.334 . S
Cd781 O817 2.273 1_455 S
Cd781 O818 2.268 1_556 S
Cd781 O822 2.417 . S
Cd781 O823 2.330 . S
C782 N783 1.332 . S
C782 C786 1.381 . S
C782 H788 0.931 . S
N783 Cd780 2.334 1_455 S
N783 C782 1.332 . S
N783 C787 1.328 . S
C784 C785 1.396 . S
C784 C787 1.378 . S
C784 H826 0.931 1_554 S
C785 C784 1.396 . S
C785 C786 1.382 . S
C786 C782 1.381 . S
C786 C785 1.382 . S
C786 H827 0.930 . S
C787 N783 1.328 . S
C787 C784 1.378 . S
C787 H789 0.930 1_454 S
H788 C782 0.931 . S
H789 C787 0.930 1_656 S
C790 O816 1.238 . S
C790 O817 1.253 . S
C791 C792 1.379 . S
C791 N796 1.337 . S
C791 H797 0.929 . S
C792 C791 1.379 . S
C792 C793 1.380 . S
C792 H828 0.929 . S
C793 C792 1.380 . S
C793 C794 1.399 1_556 S
C794 C793 1.399 1_554 S
C794 C795 1.376 1_654 S
C794 H829 0.931 . S
C795 C794 1.376 1_456 S
C795 N796 1.338 1_455 S
C795 H798 0.930 1_556 S
N796 Cd781 2.304 1_655 S
N796 C791 1.337 . S
N796 C795 1.338 1_655 S
H797 C791 0.929 . S
H798 C795 0.930 1_554 S
C799 N800 1.332 . S
C799 C803 1.381 . S
C799 H805 0.931 . S
N800 Cd781 2.334 . S
N800 C799 1.332 . S
N800 C804 1.328 . S
C801 C802 1.396 . S
C801 C804 1.378 . S
C801 H830 0.931 . S
C802 C801 1.396 . S
C802 C803 1.382 . S
C803 C799 1.381 . S
C803 C802 1.382 . S
C803 H831 0.930 . S
C804 N800 1.328 . S
C804 C801 1.378 . S
C804 H806 0.930 1_556 S
H805 C799 0.931 . S
H806 C804 0.930 1_554 S
C807 O818 1.238 . S
C807 O819 1.253 . S
C808 O820 1.239 . S
C808 O821 1.230 . S
N809 Cd780 2.304 . S
N809 C810 1.337 . S
N809 C814 1.338 . S
C810 N809 1.337 . S
C810 C811 1.379 . S
C810 H824 0.929 . S
C811 C810 1.379 . S
C811 C812 1.380 . S
C811 H832 0.929 . S
C812 C811 1.380 . S
C812 C813 1.399 . S
C813 C812 1.399 . S
C813 C814 1.376 . S
C813 H833 0.931 . S
C814 N809 1.338 . S
C814 C813 1.376 . S
C814 H825 0.930 1_554 S
C815 O822 1.239 . S
C815 O823 1.230 . S
O816 Cd780 2.268 1_556 S
O816 C790 1.238 . S
O817 Cd781 2.273 1_655 S
O817 C790 1.253 . S
O818 Cd781 2.268 1_554 S
O818 C807 1.238 . S
O819 Cd780 2.273 1_455 S
O819 C807 1.253 . S
O820 Cd780 2.417 . S
O820 C808 1.239 . S
O821 Cd780 2.330 . S
O821 C808 1.230 . S
O822 Cd781 2.417 . S
O822 C815 1.239 . S
O823 Cd781 2.330 . S
O823 C815 1.230 . S
H824 C810 0.929 . S
H825 C814 0.930 1_556 S
H826 C784 0.931 1_556 S
H827 C786 0.930 . S
H828 C792 0.929 . S
H829 C794 0.931 . S
H830 C801 0.931 . S
H831 C803 0.930 . S
H832 C811 0.929 . S
H833 C813 0.931 . S
Cd834 N837 2.334 . S
Cd834 N863 2.304 . S
Cd834 O870 2.268 1_554 S
Cd834 O873 2.273 . S
Cd834 O874 2.417 . S
Cd834 O875 2.330 . S
Cd835 N850 2.304 . S
Cd835 N854 2.334 . S
Cd835 O871 2.273 . S
Cd835 O872 2.268 1_556 S
Cd835 O876 2.417 . S
Cd835 O877 2.330 . S
C836 N837 1.332 . S
C836 C840 1.381 . S
C836 H842 0.931 . S
N837 Cd834 2.334 . S
N837 C836 1.332 . S
N837 C841 1.328 . S
C838 C839 1.396 . S
C838 C841 1.378 . S
C838 H880 0.931 1_554 S
C839 C838 1.396 . S
C839 C840 1.382 . S
C840 C836 1.381 . S
C840 C839 1.382 . S
C840 H881 0.930 . S
C841 N837 1.328 . S
C841 C838 1.378 . S
C841 H843 0.930 1_554 S
H842 C836 0.931 . S
H843 C841 0.930 1_556 S
C844 O870 1.238 . S
C844 O871 1.253 . S
C845 C846 1.379 . S
C845 N850 1.337 . S
C845 H851 0.929 . S
C846 C845 1.379 . S
C846 C847 1.380 . S
C846 H882 0.929 . S
C847 C846 1.380 . S
C847 C848 1.399 1_556 S
C848 C847 1.399 1_554 S
C848 C849 1.376 1_554 S
C848 H883 0.931 . S
C849 C848 1.376 1_556 S
C849 N850 1.338 . S
C849 H852 0.930 1_556 S
N850 Cd835 2.304 . S
N850 C845 1.337 . S
N850 C849 1.338 . S
H851 C845 0.929 . S
H852 C849 0.930 1_554 S
C853 N854 1.332 . S
C853 C857 1.381 . S
C853 H859 0.931 . S
N854 Cd835 2.334 . S
N854 C853 1.332 . S
N854 C858 1.328 . S
C855 C856 1.396 . S
C855 C858 1.378 . S
C855 H884 0.931 . S
C856 C855 1.396 . S
C856 C857 1.382 . S
C857 C853 1.381 . S
C857 C856 1.382 . S
C857 H885 0.930 . S
C858 N854 1.328 . S
C858 C855 1.378 . S
C858 H860 0.930 1_556 S
H859 C853 0.931 . S
H860 C858 0.930 1_554 S
C861 O872 1.238 . S
C861 O873 1.253 . S
C862 O874 1.239 . S
C862 O875 1.230 . S
N863 Cd834 2.304 . S
N863 C864 1.337 . S
N863 C868 1.338 . S
C864 N863 1.337 . S
C864 C865 1.379 . S
C864 H878 0.929 . S
C865 C864 1.379 . S
C865 C866 1.380 . S
C865 H886 0.929 . S
C866 C865 1.380 . S
C866 C867 1.399 . S
C867 C866 1.399 . S
C867 C868 1.376 . S
C867 H887 0.931 . S
C868 N863 1.338 . S
C868 C867 1.376 . S
C868 H879 0.930 1_554 S
C869 O876 1.239 . S
C869 O877 1.230 . S
O870 Cd834 2.268 1_556 S
O870 C844 1.238 . S
O871 Cd835 2.273 . S
O871 C844 1.253 . S
O872 Cd835 2.268 1_554 S
O872 C861 1.238 . S
O873 Cd834 2.273 . S
O873 C861 1.253 . S
O874 Cd834 2.417 . S
O874 C862 1.239 . S
O875 Cd834 2.330 . S
O875 C862 1.230 . S
O876 Cd835 2.417 . S
O876 C869 1.239 . S
O877 Cd835 2.330 . S
O877 C869 1.230 . S
H878 C864 0.929 . S
H879 C868 0.930 1_556 S
H880 C838 0.931 1_556 S
H881 C840 0.930 . S
H882 C846 0.929 . S
H883 C848 0.931 . S
H884 C855 0.931 . S
H885 C857 0.930 . S
H886 C865 0.929 . S
H887 C867 0.931 . S
Cd888 N891 2.334 1_655 S
Cd888 N917 2.304 . S
Cd888 O924 2.268 . S
Cd888 O927 2.273 1_655 S
Cd888 O928 2.417 . S
Cd888 O929 2.330 . S
Cd889 N904 2.304 1_455 S
Cd889 N908 2.334 . S
Cd889 O925 2.273 1_455 S
Cd889 O926 2.268 . S
Cd889 O930 2.417 . S
Cd889 O931 2.330 . S
C890 N891 1.332 . S
C890 C894 1.381 . S
C890 H896 0.931 . S
N891 Cd888 2.334 1_455 S
N891 C890 1.332 . S
N891 C895 1.328 . S
C892 C893 1.396 . S
C892 C895 1.378 . S
C892 H934 0.931 . S
C893 C892 1.396 . S
C893 C894 1.382 . S
C894 C890 1.381 . S
C894 C893 1.382 . S
C894 H935 0.930 . S
C895 N891 1.328 . S
C895 C892 1.378 . S
C895 H897 0.930 1_455 S
H896 C890 0.931 . S
H897 C895 0.930 1_655 S
C898 O924 1.238 . S
C898 O925 1.253 . S
C899 C900 1.379 . S
C899 N904 1.337 . S
C899 H905 0.929 . S
C900 C899 1.379 . S
C900 C901 1.380 . S
C900 H936 0.929 . S
C901 C900 1.380 . S
C901 C902 1.399 . S
C902 C901 1.399 . S
C902 C903 1.376 1_655 S
C902 H937 0.931 . S
C903 C902 1.376 1_455 S
C903 N904 1.338 1_455 S
C903 H906 0.930 . S
N904 Cd889 2.304 1_655 S
N904 C899 1.337 . S
N904 C903 1.338 1_655 S
H905 C899 0.929 . S
H906 C903 0.930 . S
C907 N908 1.332 . S
C907 C911 1.381 . S
C907 H913 0.931 . S
N908 Cd889 2.334 . S
N908 C907 1.332 . S
N908 C912 1.328 . S
C909 C910 1.396 . S
C909 C912 1.378 . S
C909 H938 0.931 . S
C910 C909 1.396 . S
C910 C911 1.382 . S
C911 C907 1.381 . S
C911 C910 1.382 . S
C911 H939 0.930 . S
C912 N908 1.328 . S
C912 C909 1.378 . S
C912 H914 0.930 . S
H913 C907 0.931 . S
H914 C912 0.930 . S
C915 O926 1.238 . S
C915 O927 1.253 . S
C916 O928 1.239 . S
C916 O929 1.230 . S
N917 Cd888 2.304 . S
N917 C918 1.337 . S
N917 C922 1.338 . S
C918 N917 1.337 . S
C918 C919 1.379 . S
C918 H932 0.929 . S
C919 C918 1.379 . S
C919 C920 1.380 . S
C919 H940 0.929 . S
C920 C919 1.380 . S
C920 C921 1.399 . S
C921 C920 1.399 . S
C921 C922 1.376 . S
C921 H941 0.931 . S
C922 N917 1.338 . S
C922 C921 1.376 . S
C922 H933 0.930 . S
C923 O930 1.239 . S
C923 O931 1.230 . S
O924 Cd888 2.268 . S
O924 C898 1.238 . S
O925 Cd889 2.273 1_655 S
O925 C898 1.253 . S
O926 Cd889 2.268 . S
O926 C915 1.238 . S
O927 Cd888 2.273 1_455 S
O927 C915 1.253 . S
O928 Cd888 2.417 . S
O928 C916 1.239 . S
O929 Cd888 2.330 . S
O929 C916 1.230 . S
O930 Cd889 2.417 . S
O930 C923 1.239 . S
O931 Cd889 2.330 . S
O931 C923 1.230 . S
H932 C918 0.929 . S
H933 C922 0.930 . S
H934 C892 0.931 . S
H935 C894 0.930 . S
H936 C900 0.929 . S
H937 C902 0.931 . S
H938 C909 0.931 . S
H939 C911 0.930 . S
H940 C919 0.929 . S
H941 C921 0.931 . S
Cd942 N945 2.334 . S
Cd942 N971 2.304 1_565 S
Cd942 O978 2.268 . S
Cd942 O981 2.273 1_565 S
Cd942 O982 2.417 . S
Cd942 O983 2.330 . S
Cd943 N958 2.304 . S
Cd943 N962 2.334 1_545 S
Cd943 O979 2.273 1_545 S
Cd943 O980 2.268 . S
Cd943 O984 2.417 . S
Cd943 O985 2.330 . S
C944 N945 1.332 . S
C944 C948 1.381 . S
C944 H950 0.931 . S
N945 Cd942 2.334 . S
N945 C944 1.332 . S
N945 C949 1.328 . S
C946 C947 1.396 . S
C946 C949 1.378 . S
C946 H988 0.931 . S
C947 C946 1.396 . S
C947 C948 1.382 . S
C948 C944 1.381 . S
C948 C947 1.382 . S
C948 H989 0.930 . S
C949 N945 1.328 . S
C949 C946 1.378 . S
C949 H951 0.930 . S
H950 C944 0.931 . S
H951 C949 0.930 . S
C952 O978 1.238 . S
C952 O979 1.253 . S
C953 C954 1.379 . S
C953 N958 1.337 . S
C953 H959 0.929 . S
C954 C953 1.379 . S
C954 C955 1.380 . S
C954 H990 0.929 . S
C955 C954 1.380 . S
C955 C956 1.399 . S
C956 C955 1.399 . S
C956 C957 1.376 . S
C956 H991 0.931 . S
C957 C956 1.376 . S
C957 N958 1.338 . S
C957 H960 0.930 . S
N958 Cd943 2.304 . S
N958 C953 1.337 . S
N958 C957 1.338 . S
H959 C953 0.929 . S
H960 C957 0.930 . S
C961 N962 1.332 . S
C961 C965 1.381 . S
C961 H967 0.931 . S
N962 Cd943 2.334 1_565 S
N962 C961 1.332 . S
N962 C966 1.328 . S
C963 C964 1.396 . S
C963 C966 1.378 . S
C963 H992 0.931 . S
C964 C963 1.396 . S
C964 C965 1.382 . S
C965 C961 1.381 . S
C965 C964 1.382 . S
C965 H993 0.930 . S
C966 N962 1.328 . S
C966 C963 1.378 . S
C966 H968 0.930 1_565 S
H967 C961 0.931 . S
H968 C966 0.930 1_545 S
C969 O980 1.238 . S
C969 O981 1.253 . S
C970 O982 1.239 . S
C970 O983 1.230 . S
N971 Cd942 2.304 1_545 S
N971 C972 1.337 . S
N971 C976 1.338 . S
C972 N971 1.337 . S
C972 C973 1.379 . S
C972 H986 0.929 . S
C973 C972 1.379 . S
C973 C974 1.380 . S
C973 H994 0.929 . S
C974 C973 1.380 . S
C974 C975 1.399 . S
C975 C974 1.399 . S
C975 C976 1.376 . S
C975 H995 0.931 . S
C976 N971 1.338 . S
C976 C975 1.376 . S
C976 H987 0.930 1_545 S
C977 O984 1.239 . S
C977 O985 1.230 . S
O978 Cd942 2.268 . S
O978 C952 1.238 . S
O979 Cd943 2.273 1_565 S
O979 C952 1.253 . S
O980 Cd943 2.268 . S
O980 C969 1.238 . S
O981 Cd942 2.273 1_545 S
O981 C969 1.253 . S
O982 Cd942 2.417 . S
O982 C970 1.239 . S
O983 Cd942 2.330 . S
O983 C970 1.230 . S
O984 Cd943 2.417 . S
O984 C977 1.239 . S
O985 Cd943 2.330 . S
O985 C977 1.230 . S
H986 C972 0.929 . S
H987 C976 0.930 1_565 S
H988 C946 0.931 . S
H989 C948 0.930 . S
H990 C954 0.929 . S
H991 C956 0.931 . S
H992 C963 0.931 . S
H993 C965 0.930 . S
H994 C973 0.929 . S
H995 C975 0.931 . S
C996 C997 1.363 . S
C996 C1002 1.379 . S
C996 N1004 1.356 . S
C997 C996 1.363 . S
C997 C1003 1.363 . S
C998 C999 1.363 . S
C998 C1003 1.379 . S
C998 N1005 1.356 . S
C999 C998 1.363 . S
C999 C1002 1.363 . S
N1000 C1002 1.356 . S
N1000 H1012 0.984 . S
N1000 H1013 0.985 . S
N1001 C1003 1.356 . S
N1001 H1006 0.984 . S
N1001 H1007 0.985 . S
C1002 C996 1.379 . S
C1002 C999 1.363 . S
C1002 N1000 1.356 . S
C1003 C997 1.363 . S
C1003 C998 1.379 . S
C1003 N1001 1.356 . S
N1004 C996 1.356 . S
N1004 H1010 0.984 . S
N1004 H1011 0.984 . S
N1005 C998 1.356 . S
N1005 H1008 0.984 . S
N1005 H1009 0.985 . S
H1006 N1001 0.984 . S
H1007 N1001 0.985 . S
H1008 N1005 0.984 . S
H1009 N1005 0.985 . S
H1010 N1004 0.984 . S
H1011 N1004 0.984 . S
H1012 N1000 0.984 . S
H1013 N1000 0.985 . S
C1014 C1015 1.363 . S
C1014 C1020 1.379 . S
C1014 N1022 1.356 . S
C1015 C1014 1.363 . S
C1015 C1021 1.363 . S
C1016 C1017 1.363 . S
C1016 C1021 1.379 . S
C1016 N1023 1.356 . S
C1017 C1016 1.363 . S
C1017 C1020 1.363 . S
N1018 C1020 1.356 . S
N1018 H1030 0.984 . S
N1018 H1031 0.985 . S
N1019 C1021 1.356 . S
N1019 H1024 0.984 . S
N1019 H1025 0.985 . S
C1020 C1014 1.379 . S
C1020 C1017 1.363 . S
C1020 N1018 1.356 . S
C1021 C1015 1.363 . S
C1021 C1016 1.379 . S
C1021 N1019 1.356 . S
N1022 C1014 1.356 . S
N1022 H1028 0.984 . S
N1022 H1029 0.984 . S
N1023 C1016 1.356 . S
N1023 H1026 0.984 . S
N1023 H1027 0.985 1_655 S
H1024 N1019 0.984 . S
H1025 N1019 0.985 . S
H1026 N1023 0.984 . S
H1027 N1023 0.985 1_455 S
H1028 N1022 0.984 . S
H1029 N1022 0.984 . S
H1030 N1018 0.984 . S
H1031 N1018 0.985 . S
C1032 C1033 1.363 . S
C1032 C1038 1.379 . S
C1032 N1040 1.356 . S
C1033 C1032 1.363 . S
C1033 C1039 1.363 . S
C1034 C1035 1.363 . S
C1034 C1039 1.379 . S
C1034 N1041 1.356 . S
C1035 C1034 1.363 . S
C1035 C1038 1.363 . S
N1036 C1038 1.356 . S
N1036 H1048 0.984 . S
N1036 H1049 0.985 . S
N1037 C1039 1.356 . S
N1037 H1042 0.984 . S
N1037 H1043 0.985 . S
C1038 C1032 1.379 . S
C1038 C1035 1.363 . S
C1038 N1036 1.356 . S
C1039 C1033 1.363 . S
C1039 C1034 1.379 . S
C1039 N1037 1.356 . S
N1040 C1032 1.356 . S
N1040 H1046 0.984 . S
N1040 H1047 0.984 . S
N1041 C1034 1.356 . S
N1041 H1044 0.984 . S
N1041 H1045 0.985 . S
H1042 N1037 0.984 . S
H1043 N1037 0.985 . S
H1044 N1041 0.984 . S
H1045 N1041 0.985 . S
H1046 N1040 0.984 . S
H1047 N1040 0.984 . S
H1048 N1036 0.984 . S
H1049 N1036 0.985 . S
C1050 C1051 1.363 . S
C1050 C1056 1.379 . S
C1050 N1058 1.356 . S
C1051 C1050 1.363 . S
C1051 C1057 1.363 . S
C1052 C1053 1.363 . S
C1052 C1057 1.379 . S
C1052 N1059 1.356 . S
C1053 C1052 1.363 . S
C1053 C1056 1.363 . S
N1054 C1056 1.356 . S
N1054 H1066 0.984 . S
N1054 H1067 0.985 . S
N1055 C1057 1.356 . S
N1055 H1060 0.984 . S
N1055 H1061 0.985 . S
C1056 C1050 1.379 . S
C1056 C1053 1.363 . S
C1056 N1054 1.356 . S
C1057 C1051 1.363 . S
C1057 C1052 1.379 . S
C1057 N1055 1.356 . S
N1058 C1050 1.356 . S
N1058 H1064 0.984 . S
N1058 H1065 0.984 . S
N1059 C1052 1.356 . S
N1059 H1062 0.984 . S
N1059 H1063 0.985 . S
H1060 N1055 0.984 . S
H1061 N1055 0.985 . S
H1062 N1059 0.984 . S
H1063 N1059 0.985 . S
H1064 N1058 0.984 . S
H1065 N1058 0.984 . S
H1066 N1054 0.984 . S
H1067 N1054 0.985 . S
C1068 C1069 1.363 . S
C1068 C1074 1.379 . S
C1068 N1076 1.356 . S
C1069 C1068 1.363 . S
C1069 C1075 1.363 . S
C1070 C1071 1.363 . S
C1070 C1075 1.379 . S
C1070 N1077 1.356 . S
C1071 C1070 1.363 . S
C1071 C1074 1.363 . S
N1072 C1074 1.356 . S
N1072 H1084 0.984 . S
N1072 H1085 0.985 . S
N1073 C1075 1.356 . S
N1073 H1078 0.984 . S
N1073 H1079 0.985 . S
C1074 C1068 1.379 . S
C1074 C1071 1.363 . S
C1074 N1072 1.356 . S
C1075 C1069 1.363 . S
C1075 C1070 1.379 . S
C1075 N1073 1.356 . S
N1076 C1068 1.356 . S
N1076 H1082 0.984 . S
N1076 H1083 0.984 . S
N1077 C1070 1.356 . S
N1077 H1080 0.984 . S
N1077 H1081 0.985 1_455 S
H1078 N1073 0.984 . S
H1079 N1073 0.985 . S
H1080 N1077 0.984 . S
H1081 N1077 0.985 1_655 S
H1082 N1076 0.984 . S
H1083 N1076 0.984 . S
H1084 N1072 0.984 . S
H1085 N1072 0.985 . S
C1086 C1087 1.363 . S
C1086 C1092 1.379 . S
C1086 N1094 1.356 . S
C1087 C1086 1.363 . S
C1087 C1093 1.363 . S
C1088 C1089 1.363 . S
C1088 C1093 1.379 . S
C1088 N1095 1.356 . S
C1089 C1088 1.363 . S
C1089 C1092 1.363 . S
N1090 C1092 1.356 . S
N1090 H1102 0.984 . S
N1090 H1103 0.985 . S
N1091 C1093 1.356 . S
N1091 H1096 0.984 . S
N1091 H1097 0.985 . S
C1092 C1086 1.379 . S
C1092 C1089 1.363 . S
C1092 N1090 1.356 . S
C1093 C1087 1.363 . S
C1093 C1088 1.379 . S
C1093 N1091 1.356 . S
N1094 C1086 1.356 . S
N1094 H1100 0.984 . S
N1094 H1101 0.984 . S
N1095 C1088 1.356 . S
N1095 H1098 0.984 . S
N1095 H1099 0.985 . S
H1096 N1091 0.984 . S
H1097 N1091 0.985 . S
H1098 N1095 0.984 . S
H1099 N1095 0.985 . S
H1100 N1094 0.984 . S
H1101 N1094 0.984 . S
H1102 N1090 0.984 . S
H1103 N1090 0.985 . S
C1104 C1105 1.363 . S
C1104 C1110 1.379 . S
C1104 N1112 1.356 . S
C1105 C1104 1.363 . S
C1105 C1111 1.363 . S
C1106 C1107 1.363 . S
C1106 C1111 1.379 . S
C1106 N1113 1.356 . S
C1107 C1106 1.363 . S
C1107 C1110 1.363 . S
N1108 C1110 1.356 . S
N1108 H1120 0.984 1_545 S
N1108 H1121 0.985 . S
N1109 C1111 1.356 . S
N1109 H1114 0.984 . S
N1109 H1115 0.985 . S
C1110 C1104 1.379 . S
C1110 C1107 1.363 . S
C1110 N1108 1.356 . S
C1111 C1105 1.363 . S
C1111 C1106 1.379 . S
C1111 N1109 1.356 . S
N1112 C1104 1.356 . S
N1112 H1118 0.984 . S
N1112 H1119 0.984 . S
N1113 C1106 1.356 . S
N1113 H1116 0.984 . S
N1113 H1117 0.985 . S
H1114 N1109 0.984 . S
H1115 N1109 0.985 . S
H1116 N1113 0.984 . S
H1117 N1113 0.985 . S
H1118 N1112 0.984 . S
H1119 N1112 0.984 . S
H1120 N1108 0.984 1_565 S
H1121 N1108 0.985 . S
C1122 C1123 1.363 . S
C1122 C1128 1.379 . S
C1122 N1130 1.356 . S
C1123 C1122 1.363 . S
C1123 C1129 1.363 . S
C1124 C1125 1.363 . S
C1124 C1129 1.379 . S
C1124 N1131 1.356 . S
C1125 C1124 1.363 . S
C1125 C1128 1.363 . S
N1126 C1128 1.356 . S
N1126 H1138 0.984 . S
N1126 H1139 0.985 . S
N1127 C1129 1.356 . S
N1127 H1132 0.984 . S
N1127 H1133 0.985 . S
C1128 C1122 1.379 . S
C1128 C1125 1.363 . S
C1128 N1126 1.356 . S
C1129 C1123 1.363 . S
C1129 C1124 1.379 . S
C1129 N1127 1.356 . S
N1130 C1122 1.356 . S
N1130 H1136 0.984 . S
N1130 H1137 0.984 . S
N1131 C1124 1.356 . S
N1131 H1134 0.984 . S
N1131 H1135 0.985 . S
H1132 N1127 0.984 . S
H1133 N1127 0.985 . S
H1134 N1131 0.984 . S
H1135 N1131 0.985 . S
H1136 N1130 0.984 . S
H1137 N1130 0.984 . S
H1138 N1126 0.984 . S
H1139 N1126 0.985 . S
C1140 C1141 1.363 . S
C1140 C1146 1.379 . S
C1140 N1148 1.356 . S
C1141 C1140 1.363 . S
C1141 C1147 1.363 . S
C1142 C1143 1.363 . S
C1142 C1147 1.379 . S
C1142 N1149 1.356 . S
C1143 C1142 1.363 . S
C1143 C1146 1.363 . S
N1144 C1146 1.356 . S
N1144 H1156 0.984 . S
N1144 H1157 0.985 . S
N1145 C1147 1.356 . S
N1145 H1150 0.984 . S
N1145 H1151 0.985 . S
C1146 C1140 1.379 . S
C1146 C1143 1.363 . S
C1146 N1144 1.356 . S
C1147 C1141 1.363 . S
C1147 C1142 1.379 . S
C1147 N1145 1.356 . S
N1148 C1140 1.356 . S
N1148 H1154 0.984 . S
N1148 H1155 0.984 . S
N1149 C1142 1.356 . S
N1149 H1152 0.984 . S
N1149 H1153 0.985 . S
H1150 N1145 0.984 . S
H1151 N1145 0.985 . S
H1152 N1149 0.984 . S
H1153 N1149 0.985 . S
H1154 N1148 0.984 . S
H1155 N1148 0.984 . S
H1156 N1144 0.984 . S
H1157 N1144 0.985 . S
C1158 C1159 1.363 . S
C1158 C1164 1.379 . S
C1158 N1166 1.356 . S
C1159 C1158 1.363 . S
C1159 C1165 1.363 . S
C1160 C1161 1.363 . S
C1160 C1165 1.379 . S
C1160 N1167 1.356 . S
C1161 C1160 1.363 . S
C1161 C1164 1.363 . S
N1162 C1164 1.356 . S
N1162 H1174 0.984 . S
N1162 H1175 0.985 . S
N1163 C1165 1.356 . S
N1163 H1168 0.984 . S
N1163 H1169 0.985 . S
C1164 C1158 1.379 . S
C1164 C1161 1.363 . S
C1164 N1162 1.356 . S
C1165 C1159 1.363 . S
C1165 C1160 1.379 . S
C1165 N1163 1.356 . S
N1166 C1158 1.356 . S
N1166 H1172 0.984 . S
N1166 H1173 0.984 . S
N1167 C1160 1.356 . S
N1167 H1170 0.984 . S
N1167 H1171 0.985 . S
H1168 N1163 0.984 . S
H1169 N1163 0.985 . S
H1170 N1167 0.984 . S
H1171 N1167 0.985 . S
H1172 N1166 0.984 . S
H1173 N1166 0.984 . S
H1174 N1162 0.984 . S
H1175 N1162 0.985 . S
C1176 C1177 1.363 . S
C1176 C1182 1.379 . S
C1176 N1184 1.356 . S
C1177 C1176 1.363 . S
C1177 C1183 1.363 . S
C1178 C1179 1.363 . S
C1178 C1183 1.379 . S
C1178 N1185 1.356 . S
C1179 C1178 1.363 . S
C1179 C1182 1.363 . S
N1180 C1182 1.356 1_556 S
N1180 H1192 0.984 . S
N1180 H1193 0.985 . S
N1181 C1183 1.356 . S
N1181 H1186 0.984 . S
N1181 H1187 0.985 . S
C1182 C1176 1.379 . S
C1182 C1179 1.363 . S
C1182 N1180 1.356 1_554 S
C1183 C1177 1.363 . S
C1183 C1178 1.379 . S
C1183 N1181 1.356 . S
N1184 C1176 1.356 . S
N1184 H1190 0.997 . S
N1184 H1191 0.984 . S
N1185 C1178 1.356 . S
N1185 H1188 0.984 . S
N1185 H1189 0.985 . S
H1186 N1181 0.984 . S
H1187 N1181 0.985 . S
H1188 N1185 0.984 . S
H1189 N1185 0.985 . S
H1190 N1184 0.997 . S
H1191 N1184 0.984 . S
H1192 N1180 0.984 . S
H1193 N1180 0.985 . S
C1194 C1195 1.363 . S
C1194 C1200 1.379 . S
C1194 N1202 1.356 . S
C1195 C1194 1.363 . S
C1195 C1201 1.363 . S
C1196 C1197 1.363 . S
C1196 C1201 1.379 . S
C1196 N1203 1.356 . S
C1197 C1196 1.363 . S
C1197 C1200 1.363 . S
N1198 C1200 1.356 . S
N1198 H1210 0.984 . S
N1198 H1211 0.985 . S
N1199 C1201 1.356 . S
N1199 H1204 0.984 . S
N1199 H1205 0.985 . S
C1200 C1194 1.379 . S
C1200 C1197 1.363 . S
C1200 N1198 1.356 . S
C1201 C1195 1.363 . S
C1201 C1196 1.379 . S
C1201 N1199 1.356 . S
N1202 C1194 1.356 . S
N1202 H1208 0.984 . S
N1202 H1209 0.984 . S
N1203 C1196 1.356 . S
N1203 H1206 0.984 . S
N1203 H1207 0.985 . S
H1204 N1199 0.984 . S
H1205 N1199 0.985 . S
H1206 N1203 0.984 . S
H1207 N1203 0.985 . S
H1208 N1202 0.984 . S
H1209 N1202 0.984 . S
H1210 N1198 0.984 . S
H1211 N1198 0.985 . S
C1212 C1213 1.363 . S
C1212 C1218 1.379 . S
C1212 N1220 1.356 . S
C1213 C1212 1.363 . S
C1213 C1219 1.363 . S
C1214 C1215 1.363 . S
C1214 C1219 1.379 . S
C1214 N1221 1.356 . S
C1215 C1214 1.363 . S
C1215 C1218 1.363 . S
N1216 C1218 1.356 . S
N1216 H1228 0.984 . S
N1216 H1229 0.985 . S
N1217 C1219 1.356 . S
N1217 H1222 0.984 . S
N1217 H1223 0.985 . S
C1218 C1212 1.379 . S
C1218 C1215 1.363 . S
C1218 N1216 1.356 . S
C1219 C1213 1.363 . S
C1219 C1214 1.379 . S
C1219 N1217 1.356 . S
N1220 C1212 1.356 . S
N1220 H1226 0.984 . S
N1220 H1227 0.984 . S
N1221 C1214 1.356 . S
N1221 H1224 0.984 . S
N1221 H1225 0.985 . S
H1222 N1217 0.984 . S
H1223 N1217 0.985 . S
H1224 N1221 0.984 . S
H1225 N1221 0.985 . S
H1226 N1220 0.984 . S
H1227 N1220 0.984 . S
H1228 N1216 0.984 . S
H1229 N1216 0.985 . S
C1230 C1231 1.363 . S
C1230 C1236 1.379 . S
C1230 N1238 1.356 . S
C1231 C1230 1.363 . S
C1231 C1237 1.363 . S
C1232 C1233 1.363 . S
C1232 C1237 1.379 . S
C1232 N1239 1.356 . S
C1233 C1232 1.363 . S
C1233 C1236 1.363 . S
N1234 C1236 1.356 . S
N1234 H1246 0.984 . S
N1234 H1247 0.985 . S
N1235 C1237 1.356 . S
N1235 H1240 0.984 . S
N1235 H1241 0.985 . S
C1236 C1230 1.379 . S
C1236 C1233 1.363 . S
C1236 N1234 1.356 . S
C1237 C1231 1.363 . S
C1237 C1232 1.379 . S
C1237 N1235 1.356 . S
N1238 C1230 1.356 . S
N1238 H1244 0.984 . S
N1238 H1245 0.984 . S
N1239 C1232 1.356 . S
N1239 H1242 0.984 . S
N1239 H1243 0.985 . S
H1240 N1235 0.984 . S
H1241 N1235 0.985 . S
H1242 N1239 0.984 . S
H1243 N1239 0.985 . S
H1244 N1238 0.984 . S
H1245 N1238 0.984 . S
H1246 N1234 0.984 . S
H1247 N1234 0.985 . S
C1248 C1249 1.363 . S
C1248 C1254 1.379 . S
C1248 N1256 1.356 . S
C1249 C1248 1.363 . S
C1249 C1255 1.363 . S
C1250 C1251 1.363 . S
C1250 C1255 1.379 . S
C1250 N1257 1.356 . S
C1251 C1250 1.363 . S
C1251 C1254 1.363 . S
N1252 C1254 1.356 . S
N1252 H1264 0.984 . S
N1252 H1265 0.985 . S
N1253 C1255 1.356 . S
N1253 H1258 0.984 . S
N1253 H1259 0.985 . S
C1254 C1248 1.379 . S
C1254 C1251 1.363 . S
C1254 N1252 1.356 . S
C1255 C1249 1.363 . S
C1255 C1250 1.379 . S
C1255 N1253 1.356 . S
N1256 C1248 1.356 . S
N1256 H1262 0.984 . S
N1256 H1263 0.984 . S
N1257 C1250 1.356 . S
N1257 H1260 0.984 . S
N1257 H1261 0.985 . S
H1258 N1253 0.984 . S
H1259 N1253 0.985 . S
H1260 N1257 0.984 . S
H1261 N1257 0.985 . S
H1262 N1256 0.984 . S
H1263 N1256 0.984 . S
H1264 N1252 0.984 . S
H1265 N1252 0.985 . S
C1266 C1267 1.363 . S
C1266 C1272 1.379 . S
C1266 N1274 1.356 . S
C1267 C1266 1.363 . S
C1267 C1273 1.363 . S
C1268 C1269 1.363 . S
C1268 C1273 1.379 . S
C1268 N1275 1.356 . S
C1269 C1268 1.363 . S
C1269 C1272 1.363 . S
N1270 C1272 1.356 . S
N1270 H1282 0.984 1_655 S
N1270 H1283 0.985 . S
N1271 C1273 1.356 . S
N1271 H1276 0.984 . S
N1271 H1277 0.985 . S
C1272 C1266 1.379 . S
C1272 C1269 1.363 . S
C1272 N1270 1.356 . S
C1273 C1267 1.363 . S
C1273 C1268 1.379 . S
C1273 N1271 1.356 . S
N1274 C1266 1.356 . S
N1274 H1280 0.984 . S
N1274 H1281 0.984 . S
N1275 C1268 1.356 . S
N1275 H1278 0.984 . S
N1275 H1279 0.985 . S
H1276 N1271 0.984 . S
H1277 N1271 0.985 . S
H1278 N1275 0.984 . S
H1279 N1275 0.985 . S
H1280 N1274 0.984 . S
H1281 N1274 0.984 . S
H1282 N1270 0.984 1_455 S
H1283 N1270 0.985 . S
C1284 C1285 1.363 . S
C1284 C1290 1.379 . S
C1284 N1292 1.356 . S
C1285 C1284 1.363 . S
C1285 C1291 1.363 . S
C1286 C1287 1.363 . S
C1286 C1291 1.379 . S
C1286 N1293 1.356 1_554 S
C1287 C1286 1.363 . S
C1287 C1290 1.363 . S
N1288 C1290 1.356 . S
N1288 H1300 0.984 . S
N1288 H1301 0.985 . S
N1289 C1291 1.356 . S
N1289 H1294 0.984 . S
N1289 H1295 0.985 . S
C1290 C1284 1.379 . S
C1290 C1287 1.363 . S
C1290 N1288 1.356 . S
C1291 C1285 1.363 . S
C1291 C1286 1.379 . S
C1291 N1289 1.356 . S
N1292 C1284 1.356 . S
N1292 H1298 0.984 . S
N1292 H1299 0.984 . S
N1293 C1286 1.356 1_556 S
N1293 H1296 0.984 . S
N1293 H1297 0.985 . S
H1294 N1289 0.984 . S
H1295 N1289 0.985 . S
H1296 N1293 0.984 . S
H1297 N1293 0.985 . S
H1298 N1292 0.984 . S
H1299 N1292 0.984 . S
H1300 N1288 0.984 . S
H1301 N1288 0.985 . S
C1302 C1303 1.363 . S
C1302 C1308 1.379 . S
C1302 N1310 1.356 . S
C1303 C1302 1.363 . S
C1303 C1309 1.363 . S
C1304 C1305 1.363 . S
C1304 C1309 1.379 . S
C1304 N1311 1.356 . S
C1305 C1304 1.363 . S
C1305 C1308 1.363 . S
N1306 C1308 1.356 . S
N1306 H1318 0.984 . S
N1306 H1319 0.985 . S
N1307 C1309 1.356 . S
N1307 H1312 0.984 . S
N1307 H1313 0.985 . S
C1308 C1302 1.379 . S
C1308 C1305 1.363 . S
C1308 N1306 1.356 . S
C1309 C1303 1.363 . S
C1309 C1304 1.379 . S
C1309 N1307 1.356 . S
N1310 C1302 1.356 . S
N1310 H1316 0.984 . S
N1310 H1317 0.984 . S
N1311 C1304 1.356 . S
N1311 H1314 0.984 . S
N1311 H1315 0.985 . S
H1312 N1307 0.984 . S
H1313 N1307 0.985 . S
H1314 N1311 0.984 . S
H1315 N1311 0.985 . S
H1316 N1310 0.984 . S
H1317 N1310 0.984 . S
H1318 N1306 0.984 . S
H1319 N1306 0.985 . S
C1320 C1321 1.363 . S
C1320 C1326 1.379 . S
C1320 N1328 1.356 . S
C1321 C1320 1.363 . S
C1321 C1327 1.363 . S
C1322 C1323 1.363 . S
C1322 C1327 1.379 . S
C1322 N1329 1.356 . S
C1323 C1322 1.363 . S
C1323 C1326 1.363 . S
N1324 C1326 1.356 . S
N1324 H1336 0.984 . S
N1324 H1337 0.985 . S
N1325 C1327 1.356 . S
N1325 H1330 0.984 . S
N1325 H1331 0.985 . S
C1326 C1320 1.379 . S
C1326 C1323 1.363 . S
C1326 N1324 1.356 . S
C1327 C1321 1.363 . S
C1327 C1322 1.379 . S
C1327 N1325 1.356 . S
N1328 C1320 1.356 . S
N1328 H1334 0.984 . S
N1328 H1335 0.984 . S
N1329 C1322 1.356 . S
N1329 H1332 0.984 1_556 S
N1329 H1333 0.985 1_556 S
H1330 N1325 0.984 . S
H1331 N1325 0.985 . S
H1332 N1329 0.984 1_554 S
H1333 N1329 0.985 1_554 S
H1334 N1328 0.984 . S
H1335 N1328 0.984 . S
H1336 N1324 0.984 . S
H1337 N1324 0.985 . S
C1338 C1339 1.363 . S
C1338 C1344 1.379 . S
C1338 N1346 1.356 . S
C1339 C1338 1.363 . S
C1339 C1345 1.363 . S
C1340 C1341 1.363 . S
C1340 C1345 1.379 . S
C1340 N1347 1.356 . S
C1341 C1340 1.363 . S
C1341 C1344 1.363 . S
N1342 C1344 1.356 . S
N1342 H1354 0.984 . S
N1342 H1355 0.985 . S
N1343 C1345 1.356 . S
N1343 H1348 0.984 . S
N1343 H1349 0.985 . S
C1344 C1338 1.379 . S
C1344 C1341 1.363 . S
C1344 N1342 1.356 . S
C1345 C1339 1.363 . S
C1345 C1340 1.379 . S
C1345 N1343 1.356 . S
N1346 C1338 1.356 . S
N1346 H1352 0.984 . S
N1346 H1353 0.984 . S
N1347 C1340 1.356 . S
N1347 H1350 0.984 . S
N1347 H1351 0.985 . S
H1348 N1343 0.984 . S
H1349 N1343 0.985 . S
H1350 N1347 0.984 . S
H1351 N1347 0.985 . S
H1352 N1346 0.984 . S
H1353 N1346 0.984 . S
H1354 N1342 0.984 . S
H1355 N1342 0.985 . S
C1356 C1357 1.363 . S
C1356 C1362 1.379 . S
C1356 N1364 1.356 . S
C1357 C1356 1.363 . S
C1357 C1363 1.363 . S
C1358 C1359 1.363 . S
C1358 C1363 1.379 . S
C1358 N1365 1.356 . S
C1359 C1358 1.363 . S
C1359 C1362 1.363 . S
N1360 C1362 1.356 . S
N1360 H1372 0.984 . S
N1360 H1373 0.985 . S
N1361 C1363 1.356 . S
N1361 H1366 0.984 . S
N1361 H1367 0.985 . S
C1362 C1356 1.379 . S
C1362 C1359 1.363 . S
C1362 N1360 1.356 . S
C1363 C1357 1.363 . S
C1363 C1358 1.379 . S
C1363 N1361 1.356 . S
N1364 C1356 1.356 . S
N1364 H1370 0.984 . S
N1364 H1371 0.984 . S
N1365 C1358 1.356 . S
N1365 H1368 0.984 . S
N1365 H1369 0.985 . S
H1366 N1361 0.984 . S
H1367 N1361 0.985 . S
H1368 N1365 0.984 . S
H1369 N1365 0.985 . S
H1370 N1364 0.984 . S
H1371 N1364 0.984 . S
H1372 N1360 0.984 . S
H1373 N1360 0.985 . S
C1374 C1375 1.363 . S
C1374 C1380 1.379 . S
C1374 N1382 1.356 . S
C1375 C1374 1.363 . S
C1375 C1381 1.363 . S
C1376 C1377 1.363 . S
C1376 C1381 1.379 . S
C1376 N1383 1.356 . S
C1377 C1376 1.363 . S
C1377 C1380 1.363 . S
N1378 C1380 1.356 . S
N1378 H1390 0.984 . S
N1378 H1391 0.985 . S
N1379 C1381 1.356 . S
N1379 H1384 0.984 . S
N1379 H1385 0.985 . S
C1380 C1374 1.379 . S
C1380 C1377 1.363 . S
C1380 N1378 1.356 . S
C1381 C1375 1.363 . S
C1381 C1376 1.379 . S
C1381 N1379 1.356 . S
N1382 C1374 1.356 . S
N1382 H1388 0.984 . S
N1382 H1389 0.984 . S
N1383 C1376 1.356 . S
N1383 H1386 0.984 . S
N1383 H1387 0.985 . S
H1384 N1379 0.984 . S
H1385 N1379 0.985 . S
H1386 N1383 0.984 . S
H1387 N1383 0.985 . S
H1388 N1382 0.984 . S
H1389 N1382 0.984 . S
H1390 N1378 0.984 . S
H1391 N1378 0.985 . S
C1392 C1393 1.363 . S
C1392 C1398 1.379 . S
C1392 N1400 1.356 . S
C1393 C1392 1.363 . S
C1393 C1399 1.363 . S
C1394 C1395 1.363 . S
C1394 C1399 1.379 . S
C1394 N1401 1.356 . S
C1395 C1394 1.363 . S
C1395 C1398 1.363 . S
N1396 C1398 1.356 . S
N1396 H1408 0.984 . S
N1396 H1409 0.985 . S
N1397 C1399 1.356 . S
N1397 H1402 0.984 . S
N1397 H1403 0.985 . S
C1398 C1392 1.379 . S
C1398 C1395 1.363 . S
C1398 N1396 1.356 . S
C1399 C1393 1.363 . S
C1399 C1394 1.379 . S
C1399 N1397 1.356 . S
N1400 C1392 1.356 . S
N1400 H1406 0.984 . S
N1400 H1407 0.984 . S
N1401 C1394 1.356 . S
N1401 H1404 0.984 . S
N1401 H1405 0.985 . S
H1402 N1397 0.984 . S
H1403 N1397 0.985 . S
H1404 N1401 0.984 . S
H1405 N1401 0.985 . S
H1406 N1400 0.984 . S
H1407 N1400 0.984 . S
H1408 N1396 0.984 . S
H1409 N1396 0.985 . S
C1410 C1411 1.363 . S
C1410 C1416 1.379 . S
C1410 N1418 1.356 . S
C1411 C1410 1.363 . S
C1411 C1417 1.363 . S
C1412 C1413 1.363 . S
C1412 C1417 1.379 . S
C1412 N1419 1.356 . S
C1413 C1412 1.363 . S
C1413 C1416 1.363 . S
N1414 C1416 1.356 . S
N1414 H1426 0.984 . S
N1414 H1427 0.985 . S
N1415 C1417 1.356 . S
N1415 H1420 0.984 . S
N1415 H1421 0.985 . S
C1416 C1410 1.379 . S
C1416 C1413 1.363 . S
C1416 N1414 1.356 . S
C1417 C1411 1.363 . S
C1417 C1412 1.379 . S
C1417 N1415 1.356 . S
N1418 C1410 1.356 . S
N1418 H1424 0.984 . S
N1418 H1425 0.984 . S
N1419 C1412 1.356 . S
N1419 H1422 0.984 . S
N1419 H1423 0.985 . S
H1420 N1415 0.984 . S
H1421 N1415 0.985 . S
H1422 N1419 0.984 . S
H1423 N1419 0.985 . S
H1424 N1418 0.984 . S
H1425 N1418 0.984 . S
H1426 N1414 0.984 . S
H1427 N1414 0.985 . S
C1428 C1429 1.363 . S
C1428 C1434 1.379 . S
C1428 N1436 1.356 . S
C1429 C1428 1.363 . S
C1429 C1435 1.363 . S
C1430 C1431 1.363 . S
C1430 C1435 1.379 . S
C1430 N1437 1.356 . S
C1431 C1430 1.363 . S
C1431 C1434 1.363 . S
N1432 C1434 1.356 . S
N1432 H1444 0.984 . S
N1432 H1445 0.985 . S
N1433 C1435 1.356 . S
N1433 H1438 0.984 . S
N1433 H1439 0.985 . S
C1434 C1428 1.379 . S
C1434 C1431 1.363 . S
C1434 N1432 1.356 . S
C1435 C1429 1.363 . S
C1435 C1430 1.379 . S
C1435 N1433 1.356 . S
N1436 C1428 1.356 . S
N1436 H1442 0.984 . S
N1436 H1443 0.984 . S
N1437 C1430 1.356 . S
N1437 H1440 0.984 . S
N1437 H1441 0.985 . S
H1438 N1433 0.984 . S
H1439 N1433 0.985 . S
H1440 N1437 0.984 . S
H1441 N1437 0.985 . S
H1442 N1436 0.984 . S
H1443 N1436 0.984 . S
H1444 N1432 0.984 . S
H1445 N1432 0.985 . S
C1446 C1447 1.363 . S
C1446 C1452 1.379 . S
C1446 N1454 1.356 . S
C1447 C1446 1.363 . S
C1447 C1453 1.363 . S
C1448 C1449 1.363 . S
C1448 C1453 1.379 . S
C1448 N1455 1.356 . S
C1449 C1448 1.363 . S
C1449 C1452 1.363 . S
N1450 C1452 1.356 . S
N1450 H1462 0.984 . S
N1450 H1463 0.985 . S
N1451 C1453 1.356 . S
N1451 H1456 0.984 . S
N1451 H1457 0.985 . S
C1452 C1446 1.379 . S
C1452 C1449 1.363 . S
C1452 N1450 1.356 . S
C1453 C1447 1.363 . S
C1453 C1448 1.379 . S
C1453 N1451 1.356 . S
N1454 C1446 1.356 . S
N1454 H1460 0.984 . S
N1454 H1461 0.984 . S
N1455 C1448 1.356 . S
N1455 H1458 0.984 . S
N1455 H1459 0.985 . S
H1456 N1451 0.984 . S
H1457 N1451 0.985 . S
H1458 N1455 0.984 . S
H1459 N1455 0.985 . S
H1460 N1454 0.984 . S
H1461 N1454 0.984 . S
H1462 N1450 0.984 . S
H1463 N1450 0.985 . S
C1464 C1465 1.363 . S
C1464 C1470 1.379 . S
C1464 N1472 1.356 . S
C1465 C1464 1.363 . S
C1465 C1471 1.363 . S
C1466 C1467 1.363 . S
C1466 C1471 1.379 . S
C1466 N1473 1.356 . S
C1467 C1466 1.363 . S
C1467 C1470 1.363 . S
N1468 C1470 1.356 . S
N1468 H1480 0.984 . S
N1468 H1481 0.985 . S
N1469 C1471 1.356 . S
N1469 H1474 0.984 . S
N1469 H1475 0.985 . S
C1470 C1464 1.379 . S
C1470 C1467 1.363 . S
C1470 N1468 1.356 . S
C1471 C1465 1.363 . S
C1471 C1466 1.379 . S
C1471 N1469 1.356 . S
N1472 C1464 1.356 . S
N1472 H1478 0.984 . S
N1472 H1479 0.984 . S
N1473 C1466 1.356 . S
N1473 H1476 0.984 . S
N1473 H1477 0.985 . S
H1474 N1469 0.984 . S
H1475 N1469 0.985 . S
H1476 N1473 0.984 . S
H1477 N1473 0.985 . S
H1478 N1472 0.984 . S
H1479 N1472 0.984 . S
H1480 N1468 0.984 . S
H1481 N1468 0.985 . S
C1482 C1483 1.363 . S
C1482 C1488 1.379 . S
C1482 N1490 1.356 . S
C1483 C1482 1.363 . S
C1483 C1489 1.363 . S
C1484 C1485 1.363 . S
C1484 C1489 1.379 . S
C1484 N1491 1.356 . S
C1485 C1484 1.363 . S
C1485 C1488 1.363 . S
N1486 C1488 1.356 . S
N1486 H1498 0.984 1_556 S
N1486 H1499 0.985 . S
N1487 C1489 1.356 . S
N1487 H1492 0.984 . S
N1487 H1493 0.985 . S
C1488 C1482 1.379 . S
C1488 C1485 1.363 . S
C1488 N1486 1.356 . S
C1489 C1483 1.363 . S
C1489 C1484 1.379 . S
C1489 N1487 1.356 . S
N1490 C1482 1.356 . S
N1490 H1496 0.984 1_556 S
N1490 H1497 0.984 . S
N1491 C1484 1.356 . S
N1491 H1494 0.984 . S
N1491 H1495 0.985 . S
H1492 N1487 0.984 . S
H1493 N1487 0.985 . S
H1494 N1491 0.984 . S
H1495 N1491 0.985 . S
H1496 N1490 0.984 1_554 S
H1497 N1490 0.984 . S
H1498 N1486 0.984 1_554 S
H1499 N1486 0.985 . S
C1500 C1501 1.363 . S
C1500 C1506 1.379 . S
C1500 N1508 1.356 . S
C1501 C1500 1.363 . S
C1501 C1507 1.363 . S
C1502 C1503 1.363 . S
C1502 C1507 1.379 . S
C1502 N1509 1.356 . S
C1503 C1502 1.363 . S
C1503 C1506 1.363 . S
N1504 C1506 1.356 1_556 S
N1504 H1516 0.984 . S
N1504 H1517 0.985 . S
N1505 C1507 1.356 . S
N1505 H1510 0.984 . S
N1505 H1511 0.985 . S
C1506 C1500 1.379 . S
C1506 C1503 1.363 . S
C1506 N1504 1.356 1_554 S
C1507 C1501 1.363 . S
C1507 C1502 1.379 . S
C1507 N1505 1.356 . S
N1508 C1500 1.356 . S
N1508 H1514 0.984 . S
N1508 H1515 0.984 . S
N1509 C1502 1.356 . S
N1509 H1512 0.984 . S
N1509 H1513 0.985 . S
H1510 N1505 0.984 . S
H1511 N1505 0.985 . S
H1512 N1509 0.984 . S
H1513 N1509 0.985 . S
H1514 N1508 0.984 . S
H1515 N1508 0.984 . S
H1516 N1504 0.984 . S
H1517 N1504 0.985 . S
C1518 C1519 1.363 . S
C1518 C1524 1.379 . S
C1518 N1526 1.356 . S
C1519 C1518 1.363 . S
C1519 C1525 1.363 . S
C1520 C1521 1.363 . S
C1520 C1525 1.379 . S
C1520 N1527 1.356 . S
C1521 C1520 1.363 . S
C1521 C1524 1.363 . S
N1522 C1524 1.356 . S
N1522 H1534 0.984 . S
N1522 H1535 0.985 . S
N1523 C1525 1.356 . S
N1523 H1528 0.984 . S
N1523 H1529 0.985 . S
C1524 C1518 1.379 . S
C1524 C1521 1.363 . S
C1524 N1522 1.356 . S
C1525 C1519 1.363 . S
C1525 C1520 1.379 . S
C1525 N1523 1.356 . S
N1526 C1518 1.356 . S
N1526 H1532 0.984 . S
N1526 H1533 0.984 . S
N1527 C1520 1.356 . S
N1527 H1530 0.984 . S
N1527 H1531 0.985 . S
H1528 N1523 0.984 . S
H1529 N1523 0.985 . S
H1530 N1527 0.984 . S
H1531 N1527 0.985 . S
H1532 N1526 0.984 . S
H1533 N1526 0.984 . S
H1534 N1522 0.984 . S
H1535 N1522 0.985 . S
C1536 C1537 1.363 . S
C1536 C1542 1.379 . S
C1536 N1544 1.356 . S
C1537 C1536 1.363 . S
C1537 C1543 1.363 . S
C1538 C1539 1.363 . S
C1538 C1543 1.379 . S
C1538 N1545 1.352 1_554 S
C1539 C1538 1.363 . S
C1539 C1542 1.363 . S
N1540 C1542 1.356 . S
N1540 H1552 0.984 . S
N1540 H1553 0.985 . S
N1541 C1543 1.356 . S
N1541 H1546 0.984 . S
N1541 H1547 0.985 1_554 S
C1542 C1536 1.379 . S
C1542 C1539 1.363 . S
C1542 N1540 1.356 . S
C1543 C1537 1.363 . S
C1543 C1538 1.379 . S
C1543 N1541 1.356 . S
N1544 C1536 1.356 . S
N1544 H1550 0.984 . S
N1544 H1551 0.984 . S
N1545 C1538 1.352 1_556 S
N1545 H1548 0.981 1_556 S
N1545 H1549 0.992 . S
H1546 N1541 0.984 . S
H1547 N1541 0.985 1_556 S
H1548 N1545 0.981 1_554 S
H1549 N1545 0.992 . S
H1550 N1544 0.984 . S
H1551 N1544 0.984 . S
H1552 N1540 0.984 . S
H1553 N1540 0.985 . S
C1554 C1555 1.363 . S
C1554 C1560 1.379 . S
C1554 N1562 1.356 . S
C1555 C1554 1.363 . S
C1555 C1561 1.363 . S
C1556 C1557 1.363 . S
C1556 C1561 1.379 . S
C1556 N1563 1.356 . S
C1557 C1556 1.363 . S
C1557 C1560 1.363 . S
N1558 C1560 1.356 . S
N1558 H1570 0.984 . S
N1558 H1571 0.985 . S
N1559 C1561 1.356 . S
N1559 H1564 0.984 . S
N1559 H1565 0.985 . S
C1560 C1554 1.379 . S
C1560 C1557 1.363 . S
C1560 N1558 1.356 . S
C1561 C1555 1.363 . S
C1561 C1556 1.379 . S
C1561 N1559 1.356 . S
N1562 C1554 1.356 . S
N1562 H1568 0.984 . S
N1562 H1569 0.984 . S
N1563 C1556 1.356 . S
N1563 H1566 0.984 . S
N1563 H1567 0.985 . S
H1564 N1559 0.984 . S
H1565 N1559 0.985 . S
H1566 N1563 0.984 . S
H1567 N1563 0.985 . S
H1568 N1562 0.984 . S
H1569 N1562 0.984 . S
H1570 N1558 0.984 . S
H1571 N1558 0.985 . S
C1572 C1573 1.363 . S
C1572 C1578 1.379 . S
C1572 N1580 1.356 . S
C1573 C1572 1.363 . S
C1573 C1579 1.363 . S
C1574 C1575 1.363 . S
C1574 C1579 1.379 . S
C1574 N1581 1.356 . S
C1575 C1574 1.363 . S
C1575 C1578 1.363 . S
N1576 C1578 1.356 . S
N1576 H1588 0.984 . S
N1576 H1589 0.985 . S
N1577 C1579 1.356 . S
N1577 H1582 0.984 . S
N1577 H1583 0.985 . S
C1578 C1572 1.379 . S
C1578 C1575 1.363 . S
C1578 N1576 1.356 . S
C1579 C1573 1.363 . S
C1579 C1574 1.379 . S
C1579 N1577 1.356 . S
N1580 C1572 1.356 . S
N1580 H1586 0.984 . S
N1580 H1587 0.984 . S
N1581 C1574 1.356 . S
N1581 H1584 0.984 . S
N1581 H1585 0.985 . S
H1582 N1577 0.984 . S
H1583 N1577 0.985 . S
H1584 N1581 0.984 . S
H1585 N1581 0.985 . S
H1586 N1580 0.984 . S
H1587 N1580 0.984 . S
H1588 N1576 0.984 . S
H1589 N1576 0.985 . S
C1590 C1591 1.363 . S
C1590 C1596 1.379 . S
C1590 N1598 1.356 . S
C1591 C1590 1.363 . S
C1591 C1597 1.363 . S
C1592 C1593 1.363 . S
C1592 C1597 1.379 . S
C1592 N1599 1.356 . S
C1593 C1592 1.363 . S
C1593 C1596 1.363 . S
N1594 C1596 1.356 . S
N1594 H1606 0.984 . S
N1594 H1607 0.985 . S
N1595 C1597 1.356 . S
N1595 H1600 0.984 . S
N1595 H1601 0.985 . S
C1596 C1590 1.379 . S
C1596 C1593 1.363 . S
C1596 N1594 1.356 . S
C1597 C1591 1.363 . S
C1597 C1592 1.379 . S
C1597 N1595 1.356 . S
N1598 C1590 1.356 . S
N1598 H1604 0.984 . S
N1598 H1605 0.984 . S
N1599 C1592 1.356 . S
N1599 H1602 0.984 . S
N1599 H1603 0.985 . S
H1600 N1595 0.984 . S
H1601 N1595 0.985 . S
H1602 N1599 0.984 . S
H1603 N1599 0.985 . S
H1604 N1598 0.984 . S
H1605 N1598 0.984 . S
H1606 N1594 0.984 . S
H1607 N1594 0.985 . S
C1608 C1609 1.363 . S
C1608 C1614 1.379 . S
C1608 N1616 1.356 . S
C1609 C1608 1.363 . S
C1609 C1615 1.363 . S
C1610 C1611 1.363 . S
C1610 C1615 1.379 . S
C1610 N1617 1.356 . S
C1611 C1610 1.363 . S
C1611 C1614 1.363 . S
N1612 C1614 1.356 . S
N1612 H1624 0.984 . S
N1612 H1625 0.985 . S
N1613 C1615 1.356 . S
N1613 H1618 0.984 . S
N1613 H1619 0.985 . S
C1614 C1608 1.379 . S
C1614 C1611 1.363 . S
C1614 N1612 1.356 . S
C1615 C1609 1.363 . S
C1615 C1610 1.379 . S
C1615 N1613 1.356 . S
N1616 C1608 1.356 . S
N1616 H1622 0.984 . S
N1616 H1623 0.984 . S
N1617 C1610 1.356 . S
N1617 H1620 0.984 . S
N1617 H1621 0.985 . S
H1618 N1613 0.984 . S
H1619 N1613 0.985 . S
H1620 N1617 0.984 . S
H1621 N1617 0.985 . S
H1622 N1616 0.984 . S
H1623 N1616 0.984 . S
H1624 N1612 0.984 . S
H1625 N1612 0.985 . S
C1626 C1627 1.363 . S
C1626 C1632 1.379 . S
C1626 N1634 1.356 . S
C1627 C1626 1.363 . S
C1627 C1633 1.363 . S
C1628 C1629 1.363 . S
C1628 C1633 1.379 . S
C1628 N1635 1.356 . S
C1629 C1628 1.363 . S
C1629 C1632 1.363 . S
N1630 C1632 1.356 . S
N1630 H1642 0.984 . S
N1630 H1643 0.985 . S
N1631 C1633 1.356 . S
N1631 H1636 0.984 . S
N1631 H1637 0.985 . S
C1632 C1626 1.379 . S
C1632 C1629 1.363 . S
C1632 N1630 1.356 . S
C1633 C1627 1.363 . S
C1633 C1628 1.379 . S
C1633 N1631 1.356 . S
N1634 C1626 1.356 . S
N1634 H1640 0.984 . S
N1634 H1641 0.984 . S
N1635 C1628 1.356 . S
N1635 H1638 0.984 . S
N1635 H1639 0.985 . S
H1636 N1631 0.984 . S
H1637 N1631 0.985 . S
H1638 N1635 0.984 . S
H1639 N1635 0.985 . S
H1640 N1634 0.984 . S
H1641 N1634 0.984 . S
H1642 N1630 0.984 . S
H1643 N1630 0.985 . S
C1644 C1645 1.363 . S
C1644 C1650 1.379 . S
C1644 N1652 1.356 . S
C1645 C1644 1.363 . S
C1645 C1651 1.363 . S
C1646 C1647 1.363 . S
C1646 C1651 1.379 . S
C1646 N1653 1.356 . S
C1647 C1646 1.363 . S
C1647 C1650 1.363 . S
N1648 C1650 1.356 . S
N1648 H1660 0.984 . S
N1648 H1661 0.985 . S
N1649 C1651 1.356 . S
N1649 H1654 0.984 . S
N1649 H1655 0.985 . S
C1650 C1644 1.379 . S
C1650 C1647 1.363 . S
C1650 N1648 1.356 . S
C1651 C1645 1.363 . S
C1651 C1646 1.379 . S
C1651 N1649 1.356 . S
N1652 C1644 1.356 . S
N1652 H1658 0.984 . S
N1652 H1659 0.984 . S
N1653 C1646 1.356 . S
N1653 H1656 0.984 . S
N1653 H1657 0.985 . S
H1654 N1649 0.984 . S
H1655 N1649 0.985 . S
H1656 N1653 0.984 . S
H1657 N1653 0.985 . S
H1658 N1652 0.984 . S
H1659 N1652 0.984 . S
H1660 N1648 0.984 . S
H1661 N1648 0.985 . S
C1662 C1663 1.363 . S
C1662 C1668 1.379 . S
C1662 N1670 1.356 . S
C1663 C1662 1.363 . S
C1663 C1669 1.363 . S
C1664 C1665 1.363 . S
C1664 C1669 1.379 . S
C1664 N1671 1.356 . S
C1665 C1664 1.363 . S
C1665 C1668 1.363 . S
N1666 C1668 1.356 . S
N1666 H1678 0.984 . S
N1666 H1679 0.985 . S
N1667 C1669 1.356 . S
N1667 H1672 0.984 . S
N1667 H1673 0.985 . S
C1668 C1662 1.379 . S
C1668 C1665 1.363 . S
C1668 N1666 1.356 . S
C1669 C1663 1.363 . S
C1669 C1664 1.379 . S
C1669 N1667 1.356 . S
N1670 C1662 1.356 . S
N1670 H1676 0.984 . S
N1670 H1677 0.984 . S
N1671 C1664 1.356 . S
N1671 H1674 0.984 . S
N1671 H1675 0.985 . S
H1672 N1667 0.984 . S
H1673 N1667 0.985 . S
H1674 N1671 0.984 . S
H1675 N1671 0.985 . S
H1676 N1670 0.984 . S
H1677 N1670 0.984 . S
H1678 N1666 0.984 . S
H1679 N1666 0.985 . S
C1680 C1681 1.363 . S
C1680 C1686 1.379 . S
C1680 N1688 1.356 . S
C1681 C1680 1.363 . S
C1681 C1687 1.363 . S
C1682 C1683 1.363 . S
C1682 C1687 1.379 . S
C1682 N1689 1.356 . S
C1683 C1682 1.363 . S
C1683 C1686 1.363 . S
N1684 C1686 1.356 . S
N1684 H1696 0.984 . S
N1684 H1697 0.985 . S
N1685 C1687 1.356 . S
N1685 H1690 0.984 . S
N1685 H1691 0.985 . S
C1686 C1680 1.379 . S
C1686 C1683 1.363 . S
C1686 N1684 1.356 . S
C1687 C1681 1.363 . S
C1687 C1682 1.379 . S
C1687 N1685 1.356 . S
N1688 C1680 1.356 . S
N1688 H1694 0.984 . S
N1688 H1695 0.984 . S
N1689 C1682 1.356 . S
N1689 H1692 0.984 . S
N1689 H1693 0.985 . S
H1690 N1685 0.984 . S
H1691 N1685 0.985 . S
H1692 N1689 0.984 . S
H1693 N1689 0.985 . S
H1694 N1688 0.984 . S
H1695 N1688 0.984 . S
H1696 N1684 0.984 . S
H1697 N1684 0.985 . S
C1698 C1699 1.363 . S
C1698 C1704 1.379 . S
C1698 N1706 1.356 . S
C1699 C1698 1.363 . S
C1699 C1705 1.363 . S
C1700 C1701 1.363 . S
C1700 C1705 1.379 . S
C1700 N1707 1.356 . S
C1701 C1700 1.363 . S
C1701 C1704 1.363 . S
N1702 C1704 1.356 . S
N1702 H1714 0.984 . S
N1702 H1715 0.985 . S
N1703 C1705 1.356 . S
N1703 H1708 0.984 . S
N1703 H1709 0.985 . S
C1704 C1698 1.379 . S
C1704 C1701 1.363 . S
C1704 N1702 1.356 . S
C1705 C1699 1.363 . S
C1705 C1700 1.379 . S
C1705 N1703 1.356 . S
N1706 C1698 1.356 . S
N1706 H1712 0.984 . S
N1706 H1713 0.984 . S
N1707 C1700 1.356 . S
N1707 H1710 0.984 . S
N1707 H1711 0.985 . S
H1708 N1703 0.984 . S
H1709 N1703 0.985 . S
H1710 N1707 0.984 . S
H1711 N1707 0.985 . S
H1712 N1706 0.984 . S
H1713 N1706 0.984 . S
H1714 N1702 0.984 . S
H1715 N1702 0.985 . S
C1716 C1717 1.363 . S
C1716 C1722 1.379 . S
C1716 N1724 1.356 . S
C1717 C1716 1.363 . S
C1717 C1723 1.363 . S
C1718 C1719 1.363 . S
C1718 C1723 1.379 . S
C1718 N1725 1.356 . S
C1719 C1718 1.363 . S
C1719 C1722 1.363 . S
N1720 C1722 1.356 . S
N1720 H1732 0.984 . S
N1720 H1733 0.985 . S
N1721 C1723 1.356 . S
N1721 H1726 0.984 . S
N1721 H1727 0.985 . S
C1722 C1716 1.379 . S
C1722 C1719 1.363 . S
C1722 N1720 1.356 . S
C1723 C1717 1.363 . S
C1723 C1718 1.379 . S
C1723 N1721 1.356 . S
N1724 C1716 1.356 . S
N1724 H1730 0.984 . S
N1724 H1731 0.984 . S
N1725 C1718 1.356 . S
N1725 H1728 0.984 . S
N1725 H1729 0.985 . S
H1726 N1721 0.984 . S
H1727 N1721 0.985 . S
H1728 N1725 0.984 . S
H1729 N1725 0.985 . S
H1730 N1724 0.984 . S
H1731 N1724 0.984 . S
H1732 N1720 0.984 . S
H1733 N1720 0.985 . S
C1734 C1735 1.363 . S
C1734 C1740 1.379 . S
C1734 N1742 1.356 . S
C1735 C1734 1.363 . S
C1735 C1741 1.363 . S
C1736 C1737 1.363 . S
C1736 C1741 1.379 . S
C1736 N1743 1.356 . S
C1737 C1736 1.363 . S
C1737 C1740 1.363 . S
N1738 C1740 1.356 . S
N1738 H1750 0.984 . S
N1738 H1751 0.985 . S
N1739 C1741 1.356 . S
N1739 H1744 0.984 . S
N1739 H1745 0.985 . S
C1740 C1734 1.379 . S
C1740 C1737 1.363 . S
C1740 N1738 1.356 . S
C1741 C1735 1.363 . S
C1741 C1736 1.379 . S
C1741 N1739 1.356 . S
N1742 C1734 1.356 . S
N1742 H1748 0.984 . S
N1742 H1749 0.984 . S
N1743 C1736 1.356 . S
N1743 H1746 0.984 . S
N1743 H1747 0.985 . S
H1744 N1739 0.984 . S
H1745 N1739 0.985 . S
H1746 N1743 0.984 . S
H1747 N1743 0.985 . S
H1748 N1742 0.984 . S
H1749 N1742 0.984 . S
H1750 N1738 0.984 . S
H1751 N1738 0.985 . S
C1752 C1753 1.363 . S
C1752 C1758 1.379 . S
C1752 N1760 1.356 . S
C1753 C1752 1.363 . S
C1753 C1759 1.363 . S
C1754 C1755 1.363 . S
C1754 C1759 1.379 . S
C1754 N1761 1.356 . S
C1755 C1754 1.363 . S
C1755 C1758 1.363 . S
N1756 C1758 1.356 . S
N1756 H1768 0.984 . S
N1756 H1769 0.985 . S
N1757 C1759 1.356 . S
N1757 H1762 0.984 . S
N1757 H1763 0.985 . S
C1758 C1752 1.379 . S
C1758 C1755 1.363 . S
C1758 N1756 1.356 . S
C1759 C1753 1.363 . S
C1759 C1754 1.379 . S
C1759 N1757 1.356 . S
N1760 C1752 1.356 . S
N1760 H1766 0.984 . S
N1760 H1767 0.984 . S
N1761 C1754 1.356 . S
N1761 H1764 0.984 . S
N1761 H1765 0.985 . S
H1762 N1757 0.984 . S
H1763 N1757 0.985 . S
H1764 N1761 0.984 . S
H1765 N1761 0.985 . S
H1766 N1760 0.984 . S
H1767 N1760 0.984 . S
H1768 N1756 0.984 . S
H1769 N1756 0.985 . S
C1770 C1771 1.363 . S
C1770 C1776 1.379 . S
C1770 N1778 1.356 . S
C1771 C1770 1.363 . S
C1771 C1777 1.363 . S
C1772 C1773 1.363 . S
C1772 C1777 1.379 . S
C1772 N1779 1.356 . S
C1773 C1772 1.363 . S
C1773 C1776 1.363 . S
N1774 C1776 1.356 . S
N1774 H1786 0.984 . S
N1774 H1787 0.985 . S
N1775 C1777 1.356 . S
N1775 H1780 0.984 . S
N1775 H1781 0.985 . S
C1776 C1770 1.379 . S
C1776 C1773 1.363 . S
C1776 N1774 1.356 . S
C1777 C1771 1.363 . S
C1777 C1772 1.379 . S
C1777 N1775 1.356 . S
N1778 C1770 1.356 . S
N1778 H1784 0.984 . S
N1778 H1785 0.984 . S
N1779 C1772 1.356 . S
N1779 H1782 0.984 . S
N1779 H1783 0.985 . S
H1780 N1775 0.984 . S
H1781 N1775 0.985 . S
H1782 N1779 0.984 . S
H1783 N1779 0.985 . S
H1784 N1778 0.984 . S
H1785 N1778 0.984 . S
H1786 N1774 0.984 . S
H1787 N1774 0.985 . S
C1788 C1789 1.363 . S
C1788 C1794 1.379 . S
C1788 N1796 1.356 . S
C1789 C1788 1.363 . S
C1789 C1795 1.363 . S
C1790 C1791 1.363 . S
C1790 C1795 1.379 . S
C1790 N1797 1.356 . S
C1791 C1790 1.363 . S
C1791 C1794 1.363 . S
N1792 C1794 1.356 . S
N1792 H1804 0.984 . S
N1792 H1805 0.985 . S
N1793 C1795 1.356 . S
N1793 H1798 0.984 . S
N1793 H1799 0.985 . S
C1794 C1788 1.379 . S
C1794 C1791 1.363 . S
C1794 N1792 1.356 . S
C1795 C1789 1.363 . S
C1795 C1790 1.379 . S
C1795 N1793 1.356 . S
N1796 C1788 1.356 . S
N1796 H1802 0.984 . S
N1796 H1803 0.984 . S
N1797 C1790 1.356 . S
N1797 H1800 0.984 . S
N1797 H1801 0.985 . S
H1798 N1793 0.984 . S
H1799 N1793 0.985 . S
H1800 N1797 0.984 . S
H1801 N1797 0.985 . S
H1802 N1796 0.984 . S
H1803 N1796 0.984 . S
H1804 N1792 0.984 . S
H1805 N1792 0.985 . S
C1806 C1807 1.363 . S
C1806 C1812 1.379 . S
C1806 N1814 1.356 . S
C1807 C1806 1.363 . S
C1807 C1813 1.363 . S
C1808 C1809 1.363 . S
C1808 C1813 1.379 . S
C1808 N1815 1.356 . S
C1809 C1808 1.363 . S
C1809 C1812 1.363 . S
N1810 C1812 1.356 . S
N1810 H1822 0.984 . S
N1810 H1823 0.985 . S
N1811 C1813 1.356 . S
N1811 H1816 0.984 . S
N1811 H1817 0.985 . S
C1812 C1806 1.379 . S
C1812 C1809 1.363 . S
C1812 N1810 1.356 . S
C1813 C1807 1.363 . S
C1813 C1808 1.379 . S
C1813 N1811 1.356 . S
N1814 C1806 1.356 . S
N1814 H1820 0.984 . S
N1814 H1821 0.984 . S
N1815 C1808 1.356 . S
N1815 H1818 0.984 . S
N1815 H1819 0.985 . S
H1816 N1811 0.984 . S
H1817 N1811 0.985 . S
H1818 N1815 0.984 . S
H1819 N1815 0.985 . S
H1820 N1814 0.984 . S
H1821 N1814 0.984 . S
H1822 N1810 0.984 . S
H1823 N1810 0.985 . S
C1824 C1825 1.363 . S
C1824 C1830 1.379 . S
C1824 N1832 1.356 . S
C1825 C1824 1.363 . S
C1825 C1831 1.363 . S
C1826 C1827 1.363 . S
C1826 C1831 1.379 . S
C1826 N1833 1.356 . S
C1827 C1826 1.363 . S
C1827 C1830 1.363 . S
N1828 C1830 1.356 . S
N1828 H1840 0.984 . S
N1828 H1841 0.985 . S
N1829 C1831 1.356 . S
N1829 H1834 0.984 . S
N1829 H1835 0.985 . S
C1830 C1824 1.379 . S
C1830 C1827 1.363 . S
C1830 N1828 1.356 . S
C1831 C1825 1.363 . S
C1831 C1826 1.379 . S
C1831 N1829 1.356 . S
N1832 C1824 1.356 . S
N1832 H1838 0.984 . S
N1832 H1839 0.984 . S
N1833 C1826 1.356 . S
N1833 H1836 0.984 . S
N1833 H1837 0.985 . S
H1834 N1829 0.984 . S
H1835 N1829 0.985 . S
H1836 N1833 0.984 . S
H1837 N1833 0.985 . S
H1838 N1832 0.984 . S
H1839 N1832 0.984 . S
H1840 N1828 0.984 . S
H1841 N1828 0.985 . S
C1842 C1843 1.363 . S
C1842 C1848 1.379 . S
C1842 N1850 1.356 . S
C1843 C1842 1.363 . S
C1843 C1849 1.363 . S
C1844 C1845 1.363 . S
C1844 C1849 1.379 . S
C1844 N1851 1.356 . S
C1845 C1844 1.363 . S
C1845 C1848 1.363 . S
N1846 C1848 1.356 . S
N1846 H1858 0.984 . S
N1846 H1859 0.985 . S
N1847 C1849 1.356 . S
N1847 H1852 0.984 . S
N1847 H1853 0.985 . S
C1848 C1842 1.379 . S
C1848 C1845 1.363 . S
C1848 N1846 1.356 . S
C1849 C1843 1.363 . S
C1849 C1844 1.379 . S
C1849 N1847 1.356 . S
N1850 C1842 1.356 . S
N1850 H1856 0.984 . S
N1850 H1857 0.984 . S
N1851 C1844 1.356 . S
N1851 H1854 0.984 . S
N1851 H1855 0.985 . S
H1852 N1847 0.984 . S
H1853 N1847 0.985 . S
H1854 N1851 0.984 . S
H1855 N1851 0.985 . S
H1856 N1850 0.984 . S
H1857 N1850 0.984 . S
H1858 N1846 0.984 . S
H1859 N1846 0.985 . S
C999 C707 1.513 . S
C997 C74 1.484 . S
C1017 C685 1.457 . S
C1015 C153 1.490 . S
C1035 C682 1.153 . S
C1033 C231 1.146 . S
C1051 C310 0.750 . S
C1053 C694 0.278 . S
C1069 C394 1.481 . S
C1071 C677 1.448 . S
C1089 C699 1.154 . S
C1087 C494 1.147 . S
C1105 C573 0.744 . S
C1107 C704 0.276 . S
C1123 C651 1.480 . S
C1125 C700 1.510 . S
C1143 C758 2.684 . S
C1141 C56 2.746 . S
C1159 C151 1.481 . S
C1161 C808 1.468 . S
C1179 C731 1.489 . S
C1177 C237 1.462 . S
C1197 C807 1.203 . S
C1195 C326 1.152 . S
C1213 C410 1.140 . S
C1215 C736 1.159 . S
C1233 C802 2.693 . S
C1231 C476 2.754 . S
C1249 C571 1.508 . S
C1251 C761 1.504 . S
C1267 C657 1.429 . S
C1269 C793 1.485 . S
C1285 C58 1.434 . S
C1287 C785 1.487 . S
C1303 C392 1.492 . S
C1305 C815 1.480 . S
C1323 C739 1.506 . S
C1321 C478 1.478 . S
C1341 C790 1.210 . S
C1339 C567 1.159 . S
C1357 C655 2.747 . S
C1359 C748 2.684 . S
C1375 C235 2.766 . S
C1377 C812 2.709 . S
C1395 C754 1.505 . S
C1393 C308 1.512 . S
C1411 C147 1.151 . S
C1413 C753 1.171 . S
C1429 C662 1.484 . S
C1431 C869 1.513 . S
C1447 C405 1.489 . S
C1449 C847 1.457 . S
C1467 C844 1.153 . S
C1465 C483 1.146 . S
C1485 C856 0.278 . S
C1483 C562 0.750 . S
C1501 C142 1.481 . S
C1503 C839 1.448 . S
C1521 C861 1.154 . S
C1519 C242 1.147 . S
C1537 C321 0.744 . S
C1539 C866 0.276 . S
C1555 C63 1.480 . S
C1557 C862 1.511 . S
C1573 C644 2.746 . S
C1575 C920 2.684 . S
C1593 C970 1.468 . S
C1591 C403 1.480 . S
C1609 C489 1.463 . S
C1611 C893 1.490 . S
C1627 C578 1.152 . S
C1629 C969 1.203 . S
C1647 C898 1.159 . S
C1645 C158 1.139 . S
C1663 C224 2.754 . S
C1665 C964 2.693 . S
C1683 C923 1.504 . S
C1681 C319 1.508 . S
C1701 C955 1.486 . S
C1699 C69 1.429 . S
C1719 C947 1.487 . S
C1717 C646 1.433 . S
C1735 C140 1.492 . S
C1737 C977 1.480 . S
C1753 C226 1.478 . S
C1755 C901 1.505 . S
C1773 C952 1.211 . S
C1771 C315 1.159 . S
C1789 C67 2.748 . S
C1791 C910 2.684 . S
C1807 C487 2.766 . S
C1809 C974 2.709 . S
C1827 C916 1.505 . S
C1825 C560 1.512 . S
C1845 C915 1.171 . S
C1843 C399 1.151 . S
