# Generated by pormake.
# Topology iac, (4,6)-cn, num edge types: 1
# Building blocks:
#     Node 0, Type 0, BuildingBlock: GALJAG_clean_sbu_0, # of connection points: 4
#     Node 1, Type 0, BuildingBlock: GALJAG_clean_sbu_0, # of connection points: 4
#     Node 2, Type 0, BuildingBlock: GALJAG_clean_sbu_0, # of connection points: 4
#     Node 3, Type 0, BuildingBlock: GALJAG_clean_sbu_0, # of connection points: 4
#     Node 4, Type 0, BuildingBlock: GALJAG_clean_sbu_0, # of connection points: 4
#     Node 5, Type 0, BuildingBlock: GALJAG_clean_sbu_0, # of connection points: 4
#     Node 6, Type 0, BuildingBlock: GALJAG_clean_sbu_0, # of connection points: 4
#     Node 7, Type 0, BuildingBlock: GALJAG_clean_sbu_0, # of connection points: 4
#     Node 8, Type 0, BuildingBlock: GALJAG_clean_sbu_0, # of connection points: 4
#     Node 9, Type 0, BuildingBlock: GALJAG_clean_sbu_0, # of connection points: 4
#     Node 10, Type 0, BuildingBlock: GALJAG_clean_sbu_0, # of connection points: 4
#     Node 11, Type 0, BuildingBlock: GALJAG_clean_sbu_0, # of connection points: 4
#     Node 12, Type 0, BuildingBlock: GALJAG_clean_sbu_0, # of connection points: 4
#     Node 13, Type 0, BuildingBlock: GALJAG_clean_sbu_0, # of connection points: 4
#     Node 14, Type 0, BuildingBlock: GALJAG_clean_sbu_0, # of connection points: 4
#     Node 15, Type 0, BuildingBlock: GALJAG_clean_sbu_0, # of connection points: 4
#     Node 16, Type 0, BuildingBlock: GALJAG_clean_sbu_0, # of connection points: 4
#     Node 17, Type 0, BuildingBlock: GALJAG_clean_sbu_0, # of connection points: 4
#     Node 18, Type 0, BuildingBlock: GALJAG_clean_sbu_0, # of connection points: 4
#     Node 19, Type 0, BuildingBlock: GALJAG_clean_sbu_0, # of connection points: 4
#     Node 20, Type 0, BuildingBlock: GALJAG_clean_sbu_0, # of connection points: 4
#     Node 21, Type 0, BuildingBlock: GALJAG_clean_sbu_0, # of connection points: 4
#     Node 22, Type 0, BuildingBlock: GALJAG_clean_sbu_0, # of connection points: 4
#     Node 23, Type 0, BuildingBlock: GALJAG_clean_sbu_0, # of connection points: 4
#     Node 24, Type 1, BuildingBlock: CIFDUS_clean_sbu_1, # of connection points: 6
#     Node 25, Type 1, BuildingBlock: CIFDUS_clean_sbu_1, # of connection points: 6
#     Node 26, Type 1, BuildingBlock: CIFDUS_clean_sbu_1, # of connection points: 6
#     Node 27, Type 1, BuildingBlock: CIFDUS_clean_sbu_1, # of connection points: 6
#     Node 28, Type 1, BuildingBlock: CIFDUS_clean_sbu_1, # of connection points: 6
#     Node 29, Type 1, BuildingBlock: CIFDUS_clean_sbu_1, # of connection points: 6
#     Node 30, Type 1, BuildingBlock: CIFDUS_clean_sbu_1, # of connection points: 6
#     Node 31, Type 1, BuildingBlock: CIFDUS_clean_sbu_1, # of connection points: 6
#     Node 32, Type 1, BuildingBlock: CIFDUS_clean_sbu_1, # of connection points: 6
#     Node 33, Type 1, BuildingBlock: CIFDUS_clean_sbu_1, # of connection points: 6
#     Node 34, Type 1, BuildingBlock: CIFDUS_clean_sbu_1, # of connection points: 6
#     Node 35, Type 1, BuildingBlock: CIFDUS_clean_sbu_1, # of connection points: 6
#     Node 36, Type 1, BuildingBlock: CIFDUS_clean_sbu_1, # of connection points: 6
#     Node 37, Type 1, BuildingBlock: CIFDUS_clean_sbu_1, # of connection points: 6
#     Node 38, Type 1, BuildingBlock: CIFDUS_clean_sbu_1, # of connection points: 6
#     Node 39, Type 1, BuildingBlock: CIFDUS_clean_sbu_1, # of connection points: 6
#     Edge 40, Type (0, 1), BuildingBlock: KIFKEQ_clean_linker_1, # of connection points: 2
#     Edge 41, Type (0, 1), BuildingBlock: KIFKEQ_clean_linker_1, # of connection points: 2
#     Edge 42, Type (0, 1), BuildingBlock: KIFKEQ_clean_linker_1, # of connection points: 2
#     Edge 43, Type (0, 1), BuildingBlock: KIFKEQ_clean_linker_1, # of connection points: 2
#     Edge 44, Type (0, 1), BuildingBlock: KIFKEQ_clean_linker_1, # of connection points: 2
#     Edge 45, Type (0, 1), BuildingBlock: KIFKEQ_clean_linker_1, # of connection points: 2
#     Edge 46, Type (0, 1), BuildingBlock: KIFKEQ_clean_linker_1, # of connection points: 2
#     Edge 47, Type (0, 1), BuildingBlock: KIFKEQ_clean_linker_1, # of connection points: 2
#     Edge 48, Type (0, 1), BuildingBlock: KIFKEQ_clean_linker_1, # of connection points: 2
#     Edge 49, Type (0, 1), BuildingBlock: KIFKEQ_clean_linker_1, # of connection points: 2
#     Edge 50, Type (0, 1), BuildingBlock: KIFKEQ_clean_linker_1, # of connection points: 2
#     Edge 51, Type (0, 1), BuildingBlock: KIFKEQ_clean_linker_1, # of connection points: 2
#     Edge 52, Type (0, 1), BuildingBlock: KIFKEQ_clean_linker_1, # of connection points: 2
#     Edge 53, Type (0, 1), BuildingBlock: KIFKEQ_clean_linker_1, # of connection points: 2
#     Edge 54, Type (0, 1), BuildingBlock: KIFKEQ_clean_linker_1, # of connection points: 2
#     Edge 55, Type (0, 1), BuildingBlock: KIFKEQ_clean_linker_1, # of connection points: 2
#     Edge 56, Type (0, 1), BuildingBlock: KIFKEQ_clean_linker_1, # of connection points: 2
#     Edge 57, Type (0, 1), BuildingBlock: KIFKEQ_clean_linker_1, # of connection points: 2
#     Edge 58, Type (0, 1), BuildingBlock: KIFKEQ_clean_linker_1, # of connection points: 2
#     Edge 59, Type (0, 1), BuildingBlock: KIFKEQ_clean_linker_1, # of connection points: 2
#     Edge 60, Type (0, 1), BuildingBlock: KIFKEQ_clean_linker_1, # of connection points: 2
#     Edge 61, Type (0, 1), BuildingBlock: KIFKEQ_clean_linker_1, # of connection points: 2
#     Edge 62, Type (0, 1), BuildingBlock: KIFKEQ_clean_linker_1, # of connection points: 2
#     Edge 63, Type (0, 1), BuildingBlock: KIFKEQ_clean_linker_1, # of connection points: 2
#     Edge 64, Type (0, 1), BuildingBlock: KIFKEQ_clean_linker_1, # of connection points: 2
#     Edge 65, Type (0, 1), BuildingBlock: KIFKEQ_clean_linker_1, # of connection points: 2
#     Edge 66, Type (0, 1), BuildingBlock: KIFKEQ_clean_linker_1, # of connection points: 2
#     Edge 67, Type (0, 1), BuildingBlock: KIFKEQ_clean_linker_1, # of connection points: 2
#     Edge 68, Type (0, 1), BuildingBlock: KIFKEQ_clean_linker_1, # of connection points: 2
#     Edge 69, Type (0, 1), BuildingBlock: KIFKEQ_clean_linker_1, # of connection points: 2
#     Edge 70, Type (0, 1), BuildingBlock: KIFKEQ_clean_linker_1, # of connection points: 2
#     Edge 71, Type (0, 1), BuildingBlock: KIFKEQ_clean_linker_1, # of connection points: 2
#     Edge 72, Type (0, 1), BuildingBlock: KIFKEQ_clean_linker_1, # of connection points: 2
#     Edge 73, Type (0, 1), BuildingBlock: KIFKEQ_clean_linker_1, # of connection points: 2
#     Edge 74, Type (0, 1), BuildingBlock: KIFKEQ_clean_linker_1, # of connection points: 2
#     Edge 75, Type (0, 1), BuildingBlock: KIFKEQ_clean_linker_1, # of connection points: 2
#     Edge 76, Type (0, 1), BuildingBlock: KIFKEQ_clean_linker_1, # of connection points: 2
#     Edge 77, Type (0, 1), BuildingBlock: KIFKEQ_clean_linker_1, # of connection points: 2
#     Edge 78, Type (0, 1), BuildingBlock: KIFKEQ_clean_linker_1, # of connection points: 2
#     Edge 79, Type (0, 1), BuildingBlock: KIFKEQ_clean_linker_1, # of connection points: 2
#     Edge 80, Type (0, 1), BuildingBlock: KIFKEQ_clean_linker_1, # of connection points: 2
#     Edge 81, Type (0, 1), BuildingBlock: KIFKEQ_clean_linker_1, # of connection points: 2
#     Edge 82, Type (0, 1), BuildingBlock: KIFKEQ_clean_linker_1, # of connection points: 2
#     Edge 83, Type (0, 1), BuildingBlock: KIFKEQ_clean_linker_1, # of connection points: 2
#     Edge 84, Type (0, 1), BuildingBlock: KIFKEQ_clean_linker_1, # of connection points: 2
#     Edge 85, Type (0, 1), BuildingBlock: KIFKEQ_clean_linker_1, # of connection points: 2
#     Edge 86, Type (0, 1), BuildingBlock: KIFKEQ_clean_linker_1, # of connection points: 2
#     Edge 87, Type (0, 1), BuildingBlock: KIFKEQ_clean_linker_1, # of connection points: 2
#     Edge 88, Type (0, 1), BuildingBlock: KIFKEQ_clean_linker_1, # of connection points: 2
#     Edge 89, Type (0, 1), BuildingBlock: KIFKEQ_clean_linker_1, # of connection points: 2
#     Edge 90, Type (0, 1), BuildingBlock: KIFKEQ_clean_linker_1, # of connection points: 2
#     Edge 91, Type (0, 1), BuildingBlock: KIFKEQ_clean_linker_1, # of connection points: 2
#     Edge 92, Type (0, 1), BuildingBlock: KIFKEQ_clean_linker_1, # of connection points: 2
#     Edge 93, Type (0, 1), BuildingBlock: KIFKEQ_clean_linker_1, # of connection points: 2
#     Edge 94, Type (0, 1), BuildingBlock: KIFKEQ_clean_linker_1, # of connection points: 2
#     Edge 95, Type (0, 1), BuildingBlock: KIFKEQ_clean_linker_1, # of connection points: 2
#     Edge 96, Type (0, 1), BuildingBlock: KIFKEQ_clean_linker_1, # of connection points: 2
#     Edge 97, Type (0, 1), BuildingBlock: KIFKEQ_clean_linker_1, # of connection points: 2
#     Edge 98, Type (0, 1), BuildingBlock: KIFKEQ_clean_linker_1, # of connection points: 2
#     Edge 99, Type (0, 1), BuildingBlock: KIFKEQ_clean_linker_1, # of connection points: 2
#     Edge 100, Type (0, 1), BuildingBlock: KIFKEQ_clean_linker_1, # of connection points: 2
#     Edge 101, Type (0, 1), BuildingBlock: KIFKEQ_clean_linker_1, # of connection points: 2
#     Edge 102, Type (0, 1), BuildingBlock: KIFKEQ_clean_linker_1, # of connection points: 2
#     Edge 103, Type (0, 1), BuildingBlock: KIFKEQ_clean_linker_1, # of connection points: 2
#     Edge 104, Type (0, 1), BuildingBlock: KIFKEQ_clean_linker_1, # of connection points: 2
#     Edge 105, Type (0, 1), BuildingBlock: KIFKEQ_clean_linker_1, # of connection points: 2
#     Edge 106, Type (0, 1), BuildingBlock: KIFKEQ_clean_linker_1, # of connection points: 2
#     Edge 107, Type (0, 1), BuildingBlock: KIFKEQ_clean_linker_1, # of connection points: 2
#     Edge 108, Type (0, 1), BuildingBlock: KIFKEQ_clean_linker_1, # of connection points: 2
#     Edge 109, Type (0, 1), BuildingBlock: KIFKEQ_clean_linker_1, # of connection points: 2
#     Edge 110, Type (0, 1), BuildingBlock: KIFKEQ_clean_linker_1, # of connection points: 2
#     Edge 111, Type (0, 1), BuildingBlock: KIFKEQ_clean_linker_1, # of connection points: 2
#     Edge 112, Type (0, 1), BuildingBlock: KIFKEQ_clean_linker_1, # of connection points: 2
#     Edge 113, Type (0, 1), BuildingBlock: KIFKEQ_clean_linker_1, # of connection points: 2
#     Edge 114, Type (0, 1), BuildingBlock: KIFKEQ_clean_linker_1, # of connection points: 2
#     Edge 115, Type (0, 1), BuildingBlock: KIFKEQ_clean_linker_1, # of connection points: 2
#     Edge 116, Type (0, 1), BuildingBlock: KIFKEQ_clean_linker_1, # of connection points: 2
#     Edge 117, Type (0, 1), BuildingBlock: KIFKEQ_clean_linker_1, # of connection points: 2
#     Edge 118, Type (0, 1), BuildingBlock: KIFKEQ_clean_linker_1, # of connection points: 2
#     Edge 119, Type (0, 1), BuildingBlock: KIFKEQ_clean_linker_1, # of connection points: 2
#     Edge 120, Type (0, 1), BuildingBlock: KIFKEQ_clean_linker_1, # of connection points: 2
#     Edge 121, Type (0, 1), BuildingBlock: KIFKEQ_clean_linker_1, # of connection points: 2
#     Edge 122, Type (0, 1), BuildingBlock: KIFKEQ_clean_linker_1, # of connection points: 2
#     Edge 123, Type (0, 1), BuildingBlock: KIFKEQ_clean_linker_1, # of connection points: 2
#     Edge 124, Type (0, 1), BuildingBlock: KIFKEQ_clean_linker_1, # of connection points: 2
#     Edge 125, Type (0, 1), BuildingBlock: KIFKEQ_clean_linker_1, # of connection points: 2
#     Edge 126, Type (0, 1), BuildingBlock: KIFKEQ_clean_linker_1, # of connection points: 2
#     Edge 127, Type (0, 1), BuildingBlock: KIFKEQ_clean_linker_1, # of connection points: 2
#     Edge 128, Type (0, 1), BuildingBlock: KIFKEQ_clean_linker_1, # of connection points: 2
#     Edge 129, Type (0, 1), BuildingBlock: KIFKEQ_clean_linker_1, # of connection points: 2
#     Edge 130, Type (0, 1), BuildingBlock: KIFKEQ_clean_linker_1, # of connection points: 2
#     Edge 131, Type (0, 1), BuildingBlock: KIFKEQ_clean_linker_1, # of connection points: 2
#     Edge 132, Type (0, 1), BuildingBlock: KIFKEQ_clean_linker_1, # of connection points: 2
#     Edge 133, Type (0, 1), BuildingBlock: KIFKEQ_clean_linker_1, # of connection points: 2
#     Edge 134, Type (0, 1), BuildingBlock: KIFKEQ_clean_linker_1, # of connection points: 2
#     Edge 135, Type (0, 1), BuildingBlock: KIFKEQ_clean_linker_1, # of connection points: 2
# Relax obj value: 0.123
# Max RMSD: 0.166
# Mean RMSD: 0.133
data_MOF--net-iac--node1-GALJAG_clean_sbu_0--node2-CIFDUS_clean_sbu_1--edge1-KIFKEQ_clean_linker_1
_symmetry_space_group_name_H-M    P1
_symmetry_Int_Tables_number       1
_symmetry_cell_setting            triclinic
loop_
_symmetry_equiv_pos_as_xyz
'x, y, z'
_cell_length_a     55.28857
_cell_length_b     55.079032
_cell_length_c     55.350879
_cell_angle_alpha  89.786296
_cell_angle_beta   89.779578
_cell_angle_gamma 89.904469
loop_
_atom_site_label
_atom_site_type_symbol
_atom_site_fract_x
_atom_site_fract_y
_atom_site_fract_z
_atom_type_partial_charge
In0 In -0.00043 0.25554 0.1237 0.0
O1 O 0.01199 0.23135 0.09211 0.0
O2 O 0.99526 0.21422 0.12224 0.0
C3 C 0.9959 0.29875 0.10006 0.0
C4 C 0.95624 0.25963 0.14617 0.0
C5 C 0.04126 0.25517 0.14924 0.0
O6 O 0.98807 0.27926 0.09101 0.0
O7 O 0.00615 0.2961 0.12016 0.0
O8 O 0.0213 0.24899 0.15861 0.0
O9 O 0.04003 0.26123 0.12727 0.0
C10 C 0.00529 0.21168 0.10188 0.0
O11 O 0.97565 0.26721 0.15537 0.0
O12 O 0.95877 0.2491 0.12611 0.0
In13 In 0.00348 0.75486 0.3781 0.0
O14 O 0.02613 0.74188 0.34598 0.0
O15 O 0.04461 0.75268 0.37776 0.0
C16 C 0.9624 0.75776 0.35236 0.0
C17 C -7e-05 0.71678 0.40874 0.0
C18 C 0.00242 0.801 0.39435 0.0
O19 O 0.98286 0.76251 0.3434 0.0
O20 O 0.96272 0.75093 0.3741 0.0
O21 O 0.99416 0.78336 0.40636 0.0
O22 O 0.01198 0.7953 0.3745 0.0
C23 C 0.04615 0.74501 0.35635 0.0
O24 O 0.00791 0.7372 0.41523 0.0
O25 O 0.99419 0.71547 0.38671 0.0
In26 In 0.50147 0.75416 0.62697 0.0
O27 O 0.4913 0.77852 0.59464 0.0
O28 O 0.50789 0.79514 0.62483 0.0
C29 C 0.50741 0.70972 0.60596 0.0
C30 C 0.54377 0.75636 0.65131 0.0
C31 C 0.45736 0.75669 0.64853 0.0
O32 O 0.50929 0.72937 0.59426 0.0
O33 O 0.50215 0.71248 0.62795 0.0
O34 O 0.47686 0.75837 0.66017 0.0
O35 O 0.46012 0.75287 0.62626 0.0
C36 C 0.49855 0.79794 0.60427 0.0
O37 O 0.52392 0.75154 0.66168 0.0
O38 O 0.54219 0.75999 0.62881 0.0
In39 In 0.5039 0.25466 0.88171 0.0
O40 O 0.52699 0.24714 0.84804 0.0
O41 O 0.5451 0.25296 0.88125 0.0
C42 C 0.45998 0.25599 0.86107 0.0
C43 C 0.50074 0.21533 0.91091 0.0
C44 C 0.50358 0.30122 0.89648 0.0
O45 O 0.47917 0.2529 0.84899 0.0
O46 O 0.46295 0.25773 0.88356 0.0
O47 O 0.50203 0.28347 0.91086 0.0
O48 O 0.50623 0.29551 0.87461 0.0
C49 C 0.54691 0.2487 0.85894 0.0
O50 O 0.50749 0.23584 0.91836 0.0
O51 O 0.49615 0.2145 0.8886 0.0
In52 In 0.12763 0.00025 0.25571 0.0
O53 O 0.16087 0.97475 0.25659 0.0
O54 O 0.12616 0.95874 0.25457 0.0
C55 C 0.15019 0.04412 0.25162 0.0
C56 C 0.09875 0.00212 0.21603 0.0
C57 C 0.1102 -0.00074 0.30148 0.0
O58 O 0.1592 0.02474 0.24341 0.0
O59 O 0.13021 0.04129 0.26234 0.0
O60 O 0.09673 0.00137 0.28321 0.0
O61 O 0.13255 -0.00153 0.29673 0.0
C62 C 0.14865 0.95541 0.25616 0.0
O63 O 0.09047 -5e-05 0.23718 0.0
O64 O 0.12152 0.0029 0.21483 0.0
In65 In 0.25898 0.87834 0.49986 0.0
O66 O 0.22635 0.89941 0.48544 0.0
O67 O 0.23205 0.89987 0.5232 0.0
C68 C 0.29884 0.90624 0.49951 0.0
C69 C 0.26099 0.84481 0.53584 0.0
C70 C 0.2622 0.85791 0.45568 0.0
O71 O 0.27834 0.91444 0.49361 0.0
O72 O 0.29901 0.88428 0.506 0.0
O73 O 0.24333 0.85613 0.46851 0.0
O74 O 0.27943 0.86888 0.46559 0.0
C75 C 0.21915 0.90674 0.50575 0.0
O76 O 0.25117 0.84029 0.51579 0.0
O77 O 0.26922 0.86601 0.53763 0.0
In78 In 0.38429 0.00142 0.75539 0.0
O79 O 0.3494 0.02298 0.7488 0.0
O80 O 0.38206 0.04261 0.75338 0.0
C81 C 0.35754 0.96081 0.75829 0.0
C82 C 0.41329 0.00158 0.71622 0.0
C83 C 0.40815 0.99681 0.79746 0.0
O84 O 0.35332 0.97916 0.7712 0.0
O85 O 0.37484 0.96318 0.7436 0.0
O86 O 0.41342 0.98455 0.77902 0.0
O87 O 0.39108 0.01171 0.7946 0.0
C88 C 0.35956 0.04343 0.74987 0.0
O89 O 0.42053 0.00805 0.7368 0.0
O90 O 0.39128 0.99555 0.7153 0.0
In91 In 0.2592 0.12794 -0.00172 0.0
O92 O 0.2834 0.09561 0.98937 0.0
O93 O 0.30001 0.12659 0.00494 0.0
C94 C 0.21565 0.10503 0.99626 0.0
C95 C 0.26038 0.14795 0.04302 0.0
C96 C 0.26402 0.15171 0.9555 0.0
O97 O 0.23552 0.09395 -0.00168 0.0
O98 O 0.21753 0.12784 0.99567 0.0
O99 O 0.25824 0.16264 0.97471 0.0
O100 O 0.26655 0.12915 0.9579 0.0
C101 C 0.3027 0.10566 0.99613 0.0
O102 O 0.26006 0.16045 0.02382 0.0
O103 O 0.25974 0.12527 0.03972 0.0
In104 In 0.7542 0.37393 0.00128 0.0
O105 O 0.76646 0.33903 0.02061 0.0
O106 O 0.73929 0.36024 0.03741 0.0
C107 C 0.75488 0.35766 0.95547 0.0
C108 C 0.71283 0.39975 0.00414 0.0
C109 C 0.79674 0.39767 0.00465 0.0
O110 O 0.74864 0.34443 0.97311 0.0
O111 O 0.76006 0.37922 0.96088 0.0
O112 O 0.77675 0.40862 0.00319 0.0
O113 O 0.79513 0.37491 0.00542 0.0
C114 C 0.75251 0.34164 0.03844 0.0
O115 O 0.73103 0.40439 0.01709 0.0
O116 O 0.71548 0.38202 0.98994 0.0
In117 In 0.8789 0.50549 0.25785 0.0
O118 O 0.89292 0.49156 0.22165 0.0
O119 O 0.90287 0.52724 0.23193 0.0
C120 C 0.90713 0.50083 0.29721 0.0
C121 C 0.84692 0.54249 0.25961 0.0
C122 C 0.85488 0.46335 0.25914 0.0
O123 O 0.91468 0.51031 0.27787 0.0
O124 O 0.88543 0.49415 0.29678 0.0
O125 O 0.84534 0.48327 0.26517 0.0
O126 O 0.87651 0.46473 0.25186 0.0
C127 C 0.90451 0.51057 0.21645 0.0
O128 O 0.84578 0.52588 0.24402 0.0
O129 O 0.86452 0.54076 0.27393 0.0
In130 In 0.76084 0.62708 0.49757 0.0
O131 O 0.78487 0.59326 0.49543 0.0
O132 O 0.80211 0.62769 0.4959 0.0
C133 C 0.71635 0.60624 0.49559 0.0
C134 C 0.76212 0.64691 0.54252 0.0
C135 C 0.76358 0.64969 0.45412 0.0
O136 O 0.73567 0.59416 0.49763 0.0
O137 O 0.71938 0.62893 0.49478 0.0
O138 O 0.76238 0.66124 0.47379 0.0
O139 O 0.76273 0.62692 0.45641 0.0
C140 C 0.8045 0.60496 0.49457 0.0
O141 O 0.76106 0.6595 0.52344 0.0
O142 O 0.76229 0.6243 0.539 0.0
In143 In 0.63014 0.5012 0.75493 0.0
O144 O 0.66398 0.47807 0.76365 0.0
O145 O 0.63262 0.45998 0.75128 0.0
C146 C 0.6515 0.54539 0.74835 0.0
C147 C 0.60534 0.49982 0.7128 0.0
C148 C 0.60786 0.49965 0.79877 0.0
O149 O 0.66339 0.52576 0.74835 0.0
O150 O 0.62911 0.54269 0.7519 0.0
O151 O 0.59811 0.49185 0.77979 0.0
O152 O 0.62849 0.50884 0.79556 0.0
C153 C 0.65407 0.45805 0.75866 0.0
O154 O 0.5957 0.50637 0.73245 0.0
O155 O 0.62741 0.49405 0.71443 0.0
In156 In 0.00764 0.75488 0.87557 0.0
O157 O 0.03086 0.74735 0.84231 0.0
O158 O 0.04857 0.76075 0.87361 0.0
C159 C 0.96712 0.75056 0.84808 0.0
C160 C 0.01484 0.71396 0.90229 0.0
C161 C 0.00178 0.79825 0.89849 0.0
O162 O 0.98194 0.76769 0.84515 0.0
O163 O 0.97261 0.73599 0.86474 0.0
O164 O 0.99073 0.77923 0.90503 0.0
O165 O 0.01597 0.79523 0.88086 0.0
C166 C 0.05057 0.75303 0.85225 0.0
O167 O 0.00817 0.73371 0.91187 0.0
O168 O 0.01764 0.71508 0.87976 0.0
In169 In 0.0073 0.25431 0.62604 0.0
O170 O 0.00802 0.27125 0.58819 0.0
O171 O 0.01462 0.29414 0.61838 0.0
C172 C 0.00424 0.20707 0.61361 0.0
C173 C 0.05198 0.25532 0.64466 0.0
C174 C 0.96537 0.26176 0.65051 0.0
O175 O 0.99692 0.22384 0.59981 0.0
O176 O 0.01256 0.21416 0.63346 0.0
O177 O 0.98419 0.25397 0.66072 0.0
O178 O 0.96781 0.26603 0.62828 0.0
C179 C 0.01285 0.29235 0.59571 0.0
O180 O 0.03344 0.26104 0.65687 0.0
O181 O 0.04796 0.24981 0.62292 0.0
In182 In 0.50732 0.25259 0.37526 0.0
O183 O 0.532 0.23877 0.34482 0.0
O184 O 0.54692 0.26345 0.36992 0.0
C185 C 0.465 0.25025 0.35101 0.0
C186 C 0.51222 0.21047 0.40053 0.0
C187 C 0.49993 0.29619 0.3973 0.0
O188 O 0.48424 0.25765 0.34099 0.0
O189 O 0.46725 0.24435 0.37296 0.0
O190 O 0.50075 0.27639 0.40892 0.0
O191 O 0.503 0.29395 0.37482 0.0
C192 C 0.55048 0.25004 0.35187 0.0
O193 O 0.52175 0.23009 0.40743 0.0
O194 O 0.49967 0.21243 0.38168 0.0
In195 In 0.50494 0.75156 0.12588 0.0
O196 O 0.5111 0.7237 0.09646 0.0
O197 O 0.49995 0.71061 0.13089 0.0
C198 C 0.51026 0.7901 0.09588 0.0
C199 C 0.46136 0.75687 0.14768 0.0
C200 C 0.54656 0.75135 0.15074 0.0
O201 O 0.50104 0.77033 0.08916 0.0
O202 O 0.51635 0.79059 0.11779 0.0
O203 O 0.52761 0.76142 0.15868 0.0
O204 O 0.54456 0.74185 0.13018 0.0
C205 C 0.50638 0.70556 0.10961 0.0
O206 O 0.48066 0.75379 0.15934 0.0
O207 O 0.46403 0.75728 0.12504 0.0
In208 In 0.88472 0.00137 0.74896 0.0
O209 O 0.91614 0.00072 0.72194 0.0
O210 O 0.88058 0.00205 0.70776 0.0
C211 C 0.91158 0.00196 0.78998 0.0
C212 C 0.86249 0.04556 0.74831 0.0
C213 C 0.86351 0.95684 0.7529 0.0
O214 O 0.92077 0.00387 0.76918 0.0
O215 O 0.88882 0.00035 0.79019 0.0
O216 O 0.85163 0.97643 0.75369 0.0
O217 O 0.8859 0.95967 0.7495 0.0
C218 C 0.90299 0.0021 0.7034 0.0
O219 O 0.85094 0.02595 0.75087 0.0
O220 O 0.8851 0.04291 0.74705 0.0
In221 In 0.75712 0.13282 0.50312 0.0
O222 O 0.78124 0.10479 0.48418 0.0
O223 O 0.79648 0.12502 0.51285 0.0
C224 C 0.71579 0.10728 0.50575 0.0
C225 C 0.75403 0.14937 0.54869 0.0
C226 C 0.75436 0.1644 0.46552 0.0
O227 O 0.73593 0.09738 0.50128 0.0
O228 O 0.71651 0.12998 0.50831 0.0
O229 O 0.767 0.16864 0.48396 0.0
O230 O 0.74355 0.1443 0.46602 0.0
C231 C 0.79945 0.10868 0.49723 0.0
O232 O 0.75279 0.16326 0.53049 0.0
O233 O 0.75767 0.12729 0.54388 0.0
In234 In 0.63078 0.0031 0.2534 0.0
O235 O 0.66514 0.98272 0.2641 0.0
O236 O 0.64113 0.96546 0.23973 0.0
C237 C 0.65853 0.04298 0.25288 0.0
C238 C 0.60311 0.00619 0.21361 0.0
C239 C 0.60191 0.00263 0.29296 0.0
O240 O 0.66087 0.0261 0.23773 0.0
O241 O 0.64263 0.03942 0.26892 0.0
O242 O 0.59978 0.01816 0.27633 0.0
O243 O 0.61864 0.98736 0.2897 0.0
C244 C 0.66087 0.9645 0.25106 0.0
O245 O 0.59941 0.99045 0.22982 0.0
O246 O 0.62068 0.02009 0.2175 0.0
In247 In 0.74809 0.8801 0.00532 0.0
O248 O 0.72565 0.91474 0.0103 0.0
O249 O 0.70744 0.88078 0.01175 0.0
C250 C 0.79131 0.90336 0.00563 0.0
C251 C 0.74607 0.85529 0.04756 0.0
C252 C 0.74642 0.86076 0.96005 0.0
O253 O 0.77151 0.91428 0.00202 0.0
O254 O 0.78933 0.88073 0.00866 0.0
O255 O 0.75784 0.85082 0.97714 0.0
O256 O 0.73594 0.88023 0.96575 0.0
C257 C 0.70588 0.90357 0.01327 0.0
O258 O 0.73866 0.84634 0.02795 0.0
O259 O 0.75522 0.87614 0.04563 0.0
In260 In 0.25128 0.63288 -0.00092 0.0
O261 O 0.26041 0.65959 0.02954 0.0
O262 O 0.24661 0.62491 0.03907 0.0
C263 C 0.24654 0.66312 0.96086 0.0
C264 C 0.29327 0.60826 0.99203 0.0
C265 C 0.20643 0.61437 -0.0016 0.0
O266 O 0.25164 0.67074 0.98175 0.0
O267 O 0.244 0.6404 0.95935 0.0
O268 O 0.22486 0.60209 0.99241 0.0
O269 O 0.21063 0.63617 0.00395 0.0
C270 C 0.25386 0.64528 0.04619 0.0
O271 O 0.27406 0.5978 -0.00142 0.0
O272 O 0.29119 0.6308 0.98883 0.0
In273 In 0.12767 0.50289 0.75526 0.0
O274 O 0.14532 0.46923 0.73889 0.0
O275 O 0.1554 0.47885 0.77451 0.0
C276 C 0.15169 0.54519 0.75385 0.0
C277 C 0.10365 0.50368 0.7132 0.0
C278 C 0.09718 0.50196 0.79357 0.0
O279 O 0.16168 0.52555 0.76019 0.0
O280 O 0.12954 0.54352 0.74885 0.0
O281 O 0.09921 0.48445 0.7791 0.0
O282 O 0.11054 0.51986 0.78876 0.0
C283 C 0.15799 0.46432 0.75714 0.0
O284 O 0.09386 0.49683 0.73271 0.0
O285 O 0.12561 0.50948 0.71488 0.0
In286 In 0.2503 0.37711 0.50524 0.0
O287 O 0.25082 0.34216 0.52829 0.0
O288 O 0.24269 0.37557 0.54551 0.0
C289 C 0.24735 0.3573 0.46054 0.0
C290 C 0.20787 0.40117 0.50893 0.0
C291 C 0.29496 0.39783 0.50651 0.0
O292 O 0.24707 0.34472 0.4797 0.0
O293 O 0.24958 0.37985 0.46391 0.0
O294 O 0.27595 0.40953 0.50163 0.0
O295 O 0.29159 0.37553 0.51049 0.0
C296 C 0.24505 0.35294 0.54761 0.0
O297 O 0.22762 0.41003 0.51611 0.0
O298 O 0.20965 0.38065 0.49904 0.0
In299 In 0.38051 0.50251 0.24911 0.0
O300 O 0.41303 0.50399 0.22344 0.0
O301 O 0.37788 0.5031 0.20798 0.0
C302 C 0.40689 0.50523 0.29041 0.0
C303 C 0.35833 0.54627 0.24436 0.0
C304 C 0.35788 0.45869 0.25445 0.0
O305 O 0.41523 0.49602 0.27127 0.0
O306 O 0.3855 0.51296 0.28863 0.0
O307 O 0.34909 0.47823 0.26247 0.0
O308 O 0.37767 0.46131 0.24338 0.0
C309 C 0.40041 0.50453 0.20444 0.0
O310 O 0.34654 0.52668 0.24623 0.0
O311 O 0.38097 0.54373 0.2455 0.0
O312 O 0.03942 0.01617 -0.00168 0.0
Mn313 Mn 0.00404 0.00291 0.00391 0.0
O314 O 0.06433 0.98565 0.00894 0.0
Mn315 Mn 0.04072 0.96462 0.0202 0.0
O316 O 0.96891 0.98922 0.00964 0.0
O317 O 0.99256 0.03804 0.00657 0.0
Mn318 Mn 0.96582 0.04023 0.98925 0.0
O319 O -0.00189 0.00214 0.96627 0.0
O320 O 0.94294 0.01983 0.00288 0.0
O321 O 0.00988 0.00385 0.04165 0.0
O322 O 0.0305 0.97014 0.05141 0.0
O323 O 0.97034 0.07069 0.00108 0.0
O324 O 0.9739 0.03378 0.95756 0.0
C325 C 0.01848 0.945 0.99608 0.0
C326 C 0.0608 0.00722 0.00122 0.0
C327 C 0.94733 -0.00198 0.00919 0.0
C328 C 0.98926 0.06104 0.01098 0.0
C329 C 0.98681 0.01579 0.9511 0.0
C330 C 0.01916 0.9893 0.05736 0.0
O331 O 0.0154 0.96785 0.00116 0.0
O332 O 0.03653 0.93464 0.00685 0.0
O333 O 0.2866 0.75802 0.23582 0.0
Mn334 Mn 0.25303 0.74973 0.25125 0.0
O335 O 0.27904 0.78025 0.20251 0.0
Mn336 Mn 0.24565 0.77712 0.20357 0.0
O337 O 0.21951 0.74128 0.26681 0.0
O338 O 0.26875 0.72111 0.26797 0.0
Mn339 Mn 0.26083 0.72151 0.29876 0.0
O340 O 0.26034 0.77321 0.28011 0.0
O341 O 0.22742 0.71872 0.29987 0.0
O342 O 0.2461 0.72607 0.22257 0.0
O343 O 0.23363 0.74857 0.19116 0.0
O344 O 0.28023 0.69469 0.29504 0.0
O345 O 0.27323 0.74994 0.31093 0.0
C346 C 0.22521 0.79792 0.22853 0.0
C347 C 0.2937 0.77015 0.21721 0.0
C348 C 0.21261 0.72895 0.28539 0.0
C349 C 0.28081 0.70148 0.27265 0.0
C350 C 0.26942 0.77059 0.30131 0.0
C351 C 0.23762 0.72813 0.20111 0.0
O352 O 0.23716 0.77842 0.23433 0.0
O353 O 0.22624 0.80391 0.20591 0.0
O354 O 0.4722 0.99466 0.4992 0.0
Mn355 Mn 0.50758 0.00627 0.5052 0.0
O356 O 0.44794 0.02623 0.5082 0.0
Mn357 Mn 0.4718 0.04598 0.52069 0.0
O358 O 0.54267 0.01841 0.51125 0.0
O359 O 0.51773 0.9708 0.50822 0.0
Mn360 Mn 0.54478 0.96736 0.49149 0.0
O361 O 0.51388 0.0066 0.46768 0.0
O362 O 0.56793 0.98704 0.50535 0.0
O363 O 0.50134 0.0056 0.54264 0.0
O364 O 0.48076 0.03945 0.55207 0.0
O365 O 0.53861 0.93719 0.50367 0.0
O366 O 0.53724 0.97407 0.45978 0.0
C367 C 0.49593 0.06465 0.49736 0.0
C368 C 0.45117 0.00458 0.50073 0.0
C369 C 0.56388 0.00894 0.51145 0.0
C370 C 0.51989 0.94776 0.51304 0.0
C371 C 0.52476 0.99223 0.45291 0.0
C372 C 0.49198 0.02023 0.55814 0.0
O373 O 0.49765 0.04167 0.50246 0.0
O374 O 0.47804 0.07584 0.50761 0.0
O375 O 0.28773 0.26164 0.7716 0.0
Mn376 Mn 0.25678 0.25328 0.75158 0.0
O377 O 0.31734 0.27037 0.74504 0.0
Mn378 Mn 0.30243 0.25565 0.71922 0.0
O379 O 0.22569 0.24503 0.7317 0.0
O380 O 0.24143 0.24184 0.78262 0.0
Mn381 Mn 0.21148 0.25249 0.78443 0.0
O382 O 0.2439 0.28854 0.75709 0.0
O383 O 0.19562 0.2389 0.75855 0.0
O384 O 0.27003 0.21807 0.74588 0.0
O385 O 0.30151 0.22206 0.72014 0.0
O386 O 0.21646 0.23515 0.81242 0.0
O387 O 0.21358 0.28606 0.78423 0.0
C388 C 0.27518 0.27449 0.69954 0.0
C389 C 0.30911 0.26929 0.76653 0.0
C390 C 0.20387 0.23887 0.73703 0.0
C391 C 0.23793 0.23202 0.80357 0.0
C392 C 0.22776 0.29836 0.77071 0.0
C393 C 0.28715 0.20905 0.73284 0.0
O394 O 0.27205 0.26482 0.72059 0.0
O395 O 0.29683 0.27227 0.69088 0.0
O396 O 0.00212 0.97773 0.477 0.0
Mn397 Mn 0.00807 0.00507 0.50248 0.0
O398 O 0.99377 0.94361 0.49794 0.0
Mn399 Mn 0.00472 0.95481 0.52728 0.0
O400 O 0.0136 0.0325 0.52785 0.0
O401 O 0.0223 0.02535 0.47572 0.0
Mn402 Mn 0.0117 0.0554 0.47748 0.0
O403 O 0.97354 0.01903 0.49586 0.0
O404 O 0.02194 0.06676 0.50711 0.0
O405 O 0.04273 0.99125 0.50911 0.0
O406 O 0.03804 0.95674 0.53052 0.0
O407 O 0.03245 0.05454 0.45131 0.0
O408 O 0.97839 0.05319 0.4738 0.0
C409 C 0.9818 0.97789 0.54818 0.0
C410 C 0.99542 0.95544 0.47821 0.0
C411 C 0.01977 0.05496 0.52683 0.0
C412 C 0.03467 0.03185 0.45697 0.0
C413 C 0.96501 0.03724 0.48399 0.0
C414 C 0.05139 0.97287 0.52062 0.0
O415 O 0.99393 0.98479 0.52938 0.0
O416 O 0.98441 0.9552 0.55371 0.0
O417 O 0.26489 0.78966 0.7533 0.0
Mn418 Mn 0.25214 0.75459 0.74784 0.0
O419 O 0.23498 0.81547 0.74324 0.0
Mn420 Mn 0.21488 0.79222 0.72998 0.0
O421 O 0.23957 0.71945 0.74277 0.0
O422 O 0.28663 0.74299 0.74697 0.0
Mn423 Mn 0.2904 0.71768 0.76598 0.0
O424 O 0.24984 0.74938 0.78553 0.0
O425 O 0.26984 0.69422 0.75368 0.0
O426 O 0.25446 0.75945 0.71008 0.0
O427 O 0.22253 0.78226 0.69912 0.0
O428 O 0.32028 0.72329 0.75218 0.0
O429 O 0.283 0.72844 0.7967 0.0
C430 C 0.19464 0.76882 0.75297 0.0
C431 C 0.25607 0.81117 0.75148 0.0
C432 C 0.24864 0.69811 0.74542 0.0
C433 C 0.30918 0.74083 0.74125 0.0
C434 C 0.26376 0.74013 0.80178 0.0
C435 C 0.24097 0.76942 0.69391 0.0
O436 O 0.21751 0.76632 0.74857 0.0
O437 O 0.18442 0.78693 0.74206 0.0
O438 O 0.49322 0.99759 0.97114 0.0
Mn439 Mn 0.50355 0.00351 0.00659 0.0
O440 O 0.52426 0.00901 0.94721 0.0
Mn441 Mn 0.543 0.02277 0.97135 0.0
O442 O 0.51388 0.00935 0.04216 0.0
O443 O 0.46842 0.00272 0.01631 0.0
Mn444 Mn 0.46455 0.98345 0.04143 0.0
O445 O 0.50727 0.96583 0.01173 0.0
O446 O 0.48302 0.9969 0.06582 0.0
O447 O 0.50012 0.04122 0.00106 0.0
O448 O 0.53361 0.05337 0.98109 0.0
O449 O 0.43419 0.99495 0.03429 0.0
O450 O 0.47391 0.95301 0.0313 0.0
C451 C 0.56132 -0.00052 0.99633 0.0
C452 C 0.50317 4e-05 0.95028 0.0
C453 C 0.50394 0.00629 0.06297 0.0
C454 C 0.44538 0.00654 0.01722 0.0
C455 C 0.49368 0.94885 0.02022 0.0
C456 C 0.51384 0.05789 0.99207 0.0
O457 O 0.5385 0.00421 0.99683 0.0
O458 O 0.57304 0.01042 0.97923 0.0
O459 O 0.28708 0.24937 0.26518 0.0
Mn460 Mn 0.25154 0.2532 0.25217 0.0
O461 O 0.28348 0.2262 0.29862 0.0
Mn462 Mn 0.25034 0.22175 0.29744 0.0
O463 O 0.21582 0.25715 0.23953 0.0
O464 O 0.26163 0.2856 0.23752 0.0
Mn465 Mn 0.25054 0.28648 0.20769 0.0
O466 O 0.26069 0.23387 0.22043 0.0
O467 O 0.2172 0.28501 0.20976 0.0
O468 O 0.24241 0.27295 0.28367 0.0
O469 O 0.23264 0.24584 0.3122 0.0
O470 O 0.26589 0.31555 0.21171 0.0
O471 O 0.26517 0.26158 0.19087 0.0
C472 C 0.23407 0.19873 0.27186 0.0
C473 C 0.29609 0.2389 0.28396 0.0
C474 C 0.20545 0.27071 0.2236 0.0
C475 C 0.27001 0.30725 0.23321 0.0
C476 C 0.26623 0.2398 0.19855 0.0
C477 C 0.23403 0.26762 0.30476 0.0
O478 O 0.24169 0.22056 0.26679 0.0
O479 O 0.23739 0.19159 0.29392 0.0
O480 O 0.49433 0.47736 0.97708 0.0
Mn481 Mn 0.50373 0.50463 0.00147 0.0
O482 O 0.48716 0.44376 -0.00071 0.0
Mn483 Mn 0.49981 0.45529 0.02786 0.0
O484 O 0.51313 0.53178 0.02615 0.0
O485 O 0.51707 0.52341 0.97325 0.0
Mn486 Mn 0.5114 0.55453 0.97698 0.0
O487 O 0.4699 0.52118 0.99681 0.0
O488 O 0.52789 0.56301 0.00458 0.0
O489 O 0.53788 0.4887 0.00584 0.0
O490 O 0.53329 0.45591 0.02977 0.0
O491 O 0.52697 0.55161 0.94758 0.0
O492 O 0.47797 0.5573 0.97909 0.0
C493 C 0.4788 0.47959 0.04923 0.0
C494 C 0.48749 0.45518 0.97923 0.0
C495 C 0.52397 0.55234 0.02464 0.0
C496 C 0.52697 0.52869 0.95275 0.0
C497 C 0.46321 0.5419 0.9882 0.0
C498 C 0.54655 0.47073 0.01797 0.0
O499 O 0.49018 0.4857 0.02969 0.0
O500 O 0.48087 0.45694 0.05517 0.0
O501 O 0.76742 0.28912 0.25657 0.0
Mn502 Mn 0.7558 0.25354 0.25209 0.0
O503 O 0.73637 0.31349 0.24642 0.0
Mn504 Mn 0.7166 0.28924 0.23463 0.0
O505 O 0.74421 0.21797 0.24769 0.0
O506 O 0.79079 0.2432 0.2505 0.0
Mn507 Mn 0.79522 0.21766 0.26915 0.0
O508 O 0.75479 0.24902 0.28995 0.0
O509 O 0.77561 0.19356 0.25677 0.0
O510 O 0.75691 0.25789 0.2142 0.0
O511 O 0.72349 0.27873 0.20384 0.0
O512 O 0.82501 0.22431 0.25599 0.0
O513 O 0.78798 0.22763 0.30009 0.0
C514 C 0.69789 0.26574 0.25868 0.0
C515 C 0.75783 0.31024 0.25418 0.0
C516 C 0.75398 0.19687 0.24949 0.0
C517 C 0.81359 0.24186 0.24537 0.0
C518 C 0.76913 0.23966 0.30576 0.0
C519 C 0.74239 0.26676 0.19831 0.0
O520 O 0.72073 0.26393 0.25372 0.0
O521 O 0.68675 0.28332 0.24781 0.0
O522 O 0.99721 0.49952 0.46792 0.0
Mn523 Mn 0.00804 0.50542 0.50329 0.0
O524 O 0.02808 0.51042 0.44359 0.0
Mn525 Mn 0.0466 0.52466 0.4675 0.0
O526 O 0.01875 0.51105 0.53872 0.0
O527 O 0.97317 0.50502 0.51336 0.0
Mn528 Mn 0.96862 0.48603 0.5385 0.0
O529 O 0.01129 0.46767 0.50873 0.0
O530 O 0.98779 0.49915 0.56264 0.0
O531 O 0.00457 0.54314 0.49803 0.0
O532 O 0.0372 0.55535 0.47686 0.0
O533 O 0.93871 0.49903 0.53118 0.0
O534 O 0.97754 0.45544 0.52817 0.0
C535 C 0.06615 0.50226 0.49202 0.0
C536 C 0.00702 0.50158 0.44695 0.0
C537 C 0.00889 0.50811 0.55958 0.0
C538 C 0.95044 0.51017 0.51421 0.0
C539 C 0.99742 0.45094 0.51735 0.0
C540 C 0.01786 0.55985 0.48857 0.0
O541 O 0.0431 0.50604 0.49318 0.0
O542 O 0.07709 0.51352 0.47458 0.0
O543 O 0.79017 0.75799 0.26282 0.0
Mn544 Mn 0.75473 0.75295 0.25113 0.0
O545 O 0.81466 0.74833 0.2318 0.0
Mn546 Mn 0.79072 0.73573 0.2123 0.0
O547 O 0.71936 0.74813 0.2396 0.0
O548 O 0.74424 0.75116 0.28594 0.0
Mn549 Mn 0.71896 0.76988 0.29085 0.0
O550 O 0.74971 0.79083 0.25005 0.0
O551 O 0.69497 0.75796 0.27078 0.0
O552 O 0.75943 0.71512 0.25248 0.0
O553 O 0.78093 0.70461 0.21961 0.0
O554 O 0.72543 0.7555 0.32022 0.0
O555 O 0.72942 0.80091 0.28393 0.0
C556 C 0.76696 0.75896 0.19309 0.0
C557 C 0.81128 0.75604 0.25324 0.0
C558 C 0.69831 0.75036 0.24926 0.0
C559 C 0.74276 0.74501 0.30844 0.0
C560 C 0.7408 0.80664 0.2647 0.0
C561 C 0.76881 0.6991 0.23841 0.0
O562 O 0.76512 0.75447 0.21603 0.0
O563 O 0.78477 0.74822 0.18224 0.0
O564 O 0.78888 0.25643 0.73671 0.0
Mn565 Mn 0.75537 0.25044 0.7533 0.0
O566 O 0.78027 0.2763 0.70211 0.0
Mn567 Mn 0.74699 0.27861 0.70634 0.0
O568 O 0.7215 0.24457 0.7696 0.0
O569 O 0.76936 0.22011 0.76891 0.0
Mn570 Mn 0.76125 0.22051 0.79972 0.0
O571 O 0.76552 0.27252 0.78226 0.0
O572 O 0.72784 0.21961 0.80116 0.0
O573 O 0.74524 0.22806 0.7244 0.0
O574 O 0.72957 0.25224 0.69594 0.0
O575 O 0.77881 0.19261 0.79597 0.0
O576 O 0.77544 0.24764 0.81288 0.0
C577 C 0.73266 0.30216 0.73314 0.0
C578 C 0.79528 0.26629 0.71656 0.0
C579 C 0.71374 0.23181 0.78755 0.0
C580 C 0.78022 0.19972 0.77369 0.0
C581 C 0.77387 0.26874 0.80357 0.0
C582 C 0.73381 0.23124 0.70447 0.0
O583 O 0.7419 0.28096 0.7377 0.0
O584 O 0.73244 0.30821 0.71052 0.0
O585 O 0.78977 0.74655 0.76451 0.0
Mn586 Mn 0.75439 0.7529 0.75206 0.0
O587 O 0.78599 0.72158 0.79652 0.0
Mn588 Mn 0.75253 0.72154 0.7977 0.0
O589 O 0.71883 0.75908 0.73985 0.0
O590 O 0.76666 0.78416 0.73665 0.0
Mn591 Mn 0.75443 0.78581 0.70731 0.0
O592 O 0.76176 0.73251 0.72051 0.0
O593 O 0.72116 0.78709 0.71036 0.0
O594 O 0.74726 0.77366 0.78336 0.0
O595 O 0.73882 0.74766 0.81346 0.0
O596 O 0.77269 0.81325 0.71021 0.0
O597 O 0.76642 0.75963 0.69036 0.0
C598 C 0.73224 0.70081 0.77282 0.0
C599 C 0.79895 0.73396 0.78188 0.0
C600 C 0.70888 0.77324 0.72419 0.0
C601 C 0.7771 0.80471 0.73156 0.0
C602 C 0.76687 0.73794 0.69838 0.0
C603 C 0.74038 0.76914 0.80516 0.0
O604 O 0.74213 0.72161 0.76756 0.0
O605 O 0.73558 0.69328 0.79474 0.0
O606 O 0.53862 0.52018 0.4946 0.0
Mn607 Mn 0.50544 0.50253 0.50177 0.0
O608 O 0.567 0.49107 0.49204 0.0
Mn609 Mn 0.54786 0.46686 0.50505 0.0
O610 O 0.47222 0.48494 0.50892 0.0
O611 O 0.49191 0.53557 0.51158 0.0
Mn612 Mn 0.46339 0.53832 0.49754 0.0
O613 O 0.49523 0.50733 0.46537 0.0
O614 O 0.44375 0.51408 0.50972 0.0
O615 O 0.51588 0.49759 0.5381 0.0
O616 O 0.5438 0.46788 0.53816 0.0
O617 O 0.46696 0.56653 0.51427 0.0
O618 O 0.46828 0.53783 0.46455 0.0
C619 C 0.52284 0.44803 0.48318 0.0
C620 C 0.56049 0.51319 0.49044 0.0
C621 C 0.45021 0.49201 0.51211 0.0
C622 C 0.48747 0.55702 0.52043 0.0
C623 C 0.48144 0.52221 0.45384 0.0
C624 C 0.5304 0.48307 0.54923 0.0
O625 O 0.51891 0.46955 0.49201 0.0
O626 O 0.54352 0.43848 0.48867 0.0
O627 O 0.96859 0.49007 0.99704 0.0
Mn628 Mn 0.00048 0.50888 0.00463 0.0
O629 O 0.9395 0.51781 0.99056 0.0
Mn630 Mn 0.95619 0.54296 0.00475 0.0
O631 O 0.03243 0.52779 0.01222 0.0
O632 O 0.0147 0.47653 0.01499 0.0
Mn633 Mn 0.04475 0.47514 0.00433 0.0
O634 O 0.01219 0.50349 0.96911 0.0
O635 O 0.06138 0.50002 0.01894 0.0
O636 O 0.98859 0.51439 0.04015 0.0
O637 O 0.95828 0.54171 0.03812 0.0
O638 O 0.03974 0.44614 0.01978 0.0
O639 O 0.0429 0.47667 0.97095 0.0
C640 C 0.983 0.56252 0.98513 0.0
C641 C 0.94701 0.49595 0.99077 0.0
C642 C 0.05398 0.5219 0.01861 0.0
C643 C 0.01821 0.45473 0.02326 0.0
C644 C 0.0284 0.49013 0.95902 0.0
C645 C 0.97251 0.52803 0.05015 0.0
O646 O 0.98616 0.54101 0.99411 0.0
O647 O 0.96166 0.57158 0.98855 0.0
H648 H 0.03633 0.19957 0.06521 0.0
H649 H 0.98283 0.16906 0.11335 0.0
H650 H 0.04177 0.16004 0.04624 0.0
H651 H 0.98699 0.12991 0.09359 0.0
H652 H 0.99731 0.05894 0.05967 0.0
H653 H 0.00747 0.09421 0.08446 0.0
H654 H 0.02235 0.13544 0.0194 0.0
H655 H 0.01351 0.10003 0.99534 0.0
C656 C 0.02562 0.1844 0.07163 0.0
C657 C 0.00895 0.18752 0.09058 0.0
C658 C 0.02866 0.16165 0.06072 0.0
C659 C 0.01472 0.14148 0.06809 0.0
C660 C -0.00154 0.14464 0.08753 0.0
C661 C 0.99579 0.16727 0.09873 0.0
C662 C 0.0042 0.07516 0.05092 0.0
C663 C 0.00497 0.07669 0.02564 0.0
C664 C 0.00941 0.09566 0.06504 0.0
C665 C 0.0151 0.11816 0.05406 0.0
C666 C 0.01823 0.11869 0.0288 0.0
C667 C 0.01327 0.09822 0.01485 0.0
H668 H 0.05475 0.73757 0.30821 0.0
H669 H 0.09054 0.74323 0.37718 0.0
H670 H 0.09406 0.7318 0.2883 0.0
H671 H 0.12956 0.73733 0.35739 0.0
H672 H 0.19138 0.70047 0.31976 0.0
H673 H 0.15025 0.70286 0.33504 0.0
H674 H 0.13326 0.75734 0.28147 0.0
H675 H 0.17481 0.75516 0.26598 0.0
C676 C 0.07098 0.73743 0.3191 0.0
C677 C 0.06962 0.74076 0.34425 0.0
C678 C 0.09342 0.73428 0.30769 0.0
C679 C 0.11479 0.734 0.32133 0.0
C680 C 0.11334 0.73717 0.34648 0.0
C681 C 0.09102 0.74064 0.35779 0.0
C682 C 0.17891 0.71282 0.31096 0.0
C683 C 0.18656 0.72788 0.29181 0.0
C684 C 0.15534 0.7142 0.31981 0.0
C685 C 0.13872 0.73054 0.30968 0.0
C686 C 0.14577 0.74457 0.28959 0.0
C687 C 0.16954 0.74331 0.28074 0.0
H688 H 0.52348 0.83919 0.61459 0.0
H689 H 0.46735 0.81149 0.56843 0.0
H690 H 0.52062 0.87857 0.59491 0.0
H691 H 0.46312 0.85138 0.54962 0.0
H692 H 0.49234 0.91094 0.49797 0.0
H693 H 0.48223 0.87573 0.5222 0.0
H694 H 0.50185 0.915 0.58679 0.0
H695 H 0.51368 0.94969 0.56176 0.0
C696 C 0.51023 0.84168 0.60042 0.0
C697 C 0.49594 0.82215 0.59277 0.0
C698 C 0.50829 0.86446 0.58928 0.0
C699 C 0.49159 0.86852 0.57048 0.0
C700 C 0.47658 0.84906 0.56359 0.0
C701 C 0.47894 0.82611 0.57439 0.0
C702 C 0.49334 0.91241 0.51747 0.0
C703 C 0.5034 0.93315 0.52804 0.0
C704 C 0.48766 0.89206 0.53151 0.0
C705 C 0.49177 0.892 0.55661 0.0
C706 C 0.49914 0.91394 0.56747 0.0
C707 C 0.50522 0.93421 0.55326 0.0
H708 H 0.45019 0.25873 0.81309 0.0
H709 H 0.416 0.26026 0.88341 0.0
H710 H 0.41119 0.266 0.79412 0.0
H711 H 0.37675 0.26762 0.86428 0.0
H712 H 0.31214 0.24624 0.81015 0.0
H713 H 0.34774 0.24512 0.83627 0.0
H714 H 0.38154 0.30041 0.79216 0.0
H715 H 0.34615 0.30141 0.76611 0.0
C716 C 0.43432 0.26055 0.82448 0.0
C717 C 0.43611 0.25896 0.84969 0.0
C718 C 0.41203 0.26496 0.81365 0.0
C719 C 0.39104 0.26776 0.82779 0.0
C720 C 0.39268 0.26562 0.853 0.0
C721 C 0.4151 0.2614 0.86389 0.0
C722 C 0.32676 0.25884 0.80669 0.0
C723 C 0.32655 0.27373 0.78603 0.0
C724 C 0.34719 0.25809 0.82152 0.0
C725 C 0.36758 0.27225 0.81581 0.0
C726 C 0.36628 0.28889 0.79659 0.0
C727 C 0.34598 0.28958 0.7818 0.0
H728 H 0.0182 0.84215 0.37136 0.0
H729 H 0.98062 0.81706 0.43528 0.0
H730 H 0.01292 0.88424 0.38461 0.0
H731 H 0.97567 0.85871 0.4486 0.0
H732 H 0.02871 0.94606 0.44348 0.0
H733 H 0.02837 0.91018 0.41765 0.0
H734 H 0.95435 0.8961 0.43873 0.0
H735 H 0.95515 0.93148 0.46509 0.0
C736 C 0.00884 0.84564 0.38822 0.0
C737 C -0.00012 0.82637 0.40236 0.0
C738 C 0.00578 0.86969 0.39574 0.0
C739 C 0.99356 0.87483 0.41743 0.0
C740 C 0.98461 0.85545 0.43146 0.0
C741 C 0.98772 0.83153 0.42401 0.0
C742 C 0.01204 0.93596 0.44155 0.0
C743 C 0.99196 0.94133 0.45615 0.0
C744 C 0.01186 0.91532 0.42691 0.0
C745 C 0.99154 0.89996 0.42674 0.0
C746 C 0.97047 0.90726 0.43902 0.0
C747 C 0.97077 0.92765 0.45383 0.0
H748 H 0.41338 0.75889 0.62618 0.0
H749 H 0.44686 0.76165 0.69644 0.0
H750 H 0.37359 0.76353 0.64494 0.0
H751 H 0.40724 0.76547 0.71529 0.0
H752 H 0.33779 0.7799 0.74788 0.0
H753 H 0.37247 0.78984 0.72227 0.0
H754 H 0.34659 0.73953 0.66849 0.0
H755 H 0.31161 0.7306 0.69381 0.0
C756 C 0.41222 0.76045 0.64565 0.0
C757 C 0.43324 0.75969 0.65987 0.0
C758 C 0.38941 0.76314 0.65641 0.0
C759 C 0.38707 0.76501 0.68166 0.0
C760 C 0.40823 0.76466 0.69577 0.0
C761 C 0.43101 0.76213 0.685 0.0
C762 C 0.33885 0.77218 0.72994 0.0
C763 C 0.32195 0.7548 0.7226 0.0
C764 C 0.35899 0.7774 0.71546 0.0
C765 C 0.3628 0.76491 0.69361 0.0
C766 C 0.34437 0.74955 0.68514 0.0
C767 C 0.32414 0.74453 0.69956 0.0
H768 H 0.51119 0.21238 0.95906 0.0
H769 H 0.48445 0.17021 0.89924 0.0
H770 H 0.50867 0.1766 0.98522 0.0
H771 H 0.48223 0.13447 0.92519 0.0
H772 H 0.53941 0.09815 0.00292 0.0
H773 H 0.53186 0.13877 0.98712 0.0
H774 H 0.46258 0.11514 0.96014 0.0
H775 H 0.47061 0.07427 0.97552 0.0
C776 C 0.50464 0.19551 0.95155 0.0
C777 C 0.49826 0.19401 0.92704 0.0
C778 C 0.50317 0.17504 0.96653 0.0
C779 C 0.49517 0.15269 0.95734 0.0
C780 C 0.48806 0.15148 0.93299 0.0
C781 C 0.48961 0.17189 0.91802 0.0
C782 C 0.52213 0.10197 0.99455 0.0
C783 C 0.50545 0.08321 0.99069 0.0
C784 C 0.51778 0.12524 0.98544 0.0
C785 C 0.49677 0.1301 0.97204 0.0
C786 C 0.47907 0.11186 0.97014 0.0
C787 C 0.4834 0.08857 0.97939 0.0
H788 H 0.08419 0.27281 0.1332 0.0
H789 H 0.05053 0.23996 0.1958 0.0
H790 H 0.12198 0.27632 0.15513 0.0
H791 H 0.08887 0.24349 0.21796 0.0
H792 H 0.17512 0.23168 0.23112 0.0
H793 H 0.13369 0.22722 0.21577 0.0
H794 H 0.13524 0.30147 0.1906 0.0
H795 H 0.17618 0.30588 0.20572 0.0
C796 C 0.08486 0.26627 0.15167 0.0
C797 C 0.0643 0.25623 0.1628 0.0
C798 C 0.10652 0.26841 0.1643 0.0
C799 C 0.10831 0.26046 0.18838 0.0
C800 C 0.08798 0.24979 0.19943 0.0
C801 C 0.06607 0.24785 0.18679 0.0
C802 C 0.1663 0.24718 0.22292 0.0
C803 C 0.17903 0.26901 0.21936 0.0
C804 C 0.14264 0.24463 0.21407 0.0
C805 C 0.13145 0.26386 0.20154 0.0
C806 C 0.14358 0.28616 0.19969 0.0
C807 C 0.16703 0.28869 0.20845 0.0
H808 H 0.05059 0.99123 0.21243 0.0
H809 H 0.1116 0.01687 0.17071 0.0
H810 H 0.02542 0.99233 0.17607 0.0
H811 H 0.08643 0.01828 0.13457 0.0
H812 H 0.0333 0.03282 0.07564 0.0
H813 H 0.04928 0.03953 0.11632 0.0
H814 H 0.02691 0.96735 0.13714 0.0
H815 H 0.01129 0.96064 0.09652 0.0
C816 C 0.05855 0.99733 0.19556 0.0
C817 C 0.08312 0.00377 0.19437 0.0
C818 C 0.04413 -0.00202 0.17478 0.0
C819 C 0.05389 0.00557 0.1525 0.0
C820 C 0.07828 0.01272 0.15153 0.0
C821 C 0.09277 0.01166 0.17218 0.0
C822 C 0.03082 0.01886 0.08925 0.0
C823 C 0.0209 0.99629 0.08303 0.0
C824 C 0.04029 0.02254 0.11242 0.0
C825 C 0.0396 0.00385 0.12983 0.0
C826 C 0.02762 0.98213 0.1242 0.0
C827 C 0.01859 0.97831 0.10096 0.0
H828 H 0.22698 0.83619 0.42871 0.0
H829 H 0.30121 0.86045 0.42576 0.0
H830 H 0.23041 0.82161 0.38715 0.0
H831 H 0.30452 0.84621 0.38426 0.0
H832 H 0.30657 0.77918 0.33156 0.0
H833 H 0.30535 0.80515 0.36699 0.0
H834 H 0.23657 0.83424 0.34385 0.0
H835 H 0.23788 0.80797 0.30821 0.0
C836 C 0.24396 0.83851 0.41915 0.0
C837 C 0.26391 0.84913 0.43057 0.0
C838 C 0.24583 0.83048 0.39526 0.0
C839 C 0.26772 0.83288 0.38242 0.0
C840 C 0.28747 0.84401 0.39373 0.0
C841 C 0.28558 0.85207 0.41753 0.0
C842 C 0.29169 0.79185 0.33357 0.0
C843 C 0.27235 0.79165 0.31724 0.0
C844 C 0.29093 0.8067 0.35387 0.0
C845 C 0.27067 0.82144 0.35838 0.0
C846 C 0.25225 0.82279 0.34095 0.0
C847 C 0.25317 0.80808 0.32039 0.0
H848 H 0.45967 0.01824 0.71251 0.0
H849 H 0.40319 0.98314 0.67184 0.0
H850 H 0.4855 0.01861 0.67651 0.0
H851 H 0.42889 0.98357 0.63599 0.0
H852 H 0.49712 0.04968 0.59685 0.0
H853 H 0.48251 0.04159 0.63768 0.0
H854 H 0.4671 0.96744 0.61782 0.0
H855 H 0.48141 0.9758 0.57678 0.0
C856 C 0.45287 0.01044 0.69594 0.0
C857 C 0.42935 0.00088 0.69488 0.0
C858 C 0.46766 0.01061 0.67539 0.0
C859 C 0.45927 0.001 0.65349 0.0
C860 C 0.43603 0.99074 0.6527 0.0
C861 C 0.42119 0.99075 0.67316 0.0
C862 C 0.49147 0.03142 0.60152 0.0
C863 C 0.49053 0.01329 0.58379 0.0
C864 C 0.48313 0.02676 0.62489 0.0
C865 C 0.47339 0.00396 0.63085 0.0
C866 C 0.47432 0.98524 0.61364 0.0
C867 C 0.4829 0.98987 0.59028 0.0
H868 H 0.25517 0.19924 0.94375 0.0
H869 H 0.28156 0.13179 0.91406 0.0
H870 H 0.25859 0.21823 0.90399 0.0
H871 H 0.28566 0.15087 0.87447 0.0
H872 H 0.24395 0.18374 0.80764 0.0
H873 H 0.25726 0.16384 0.84457 0.0
H874 H 0.28382 0.23246 0.87117 0.0
H875 H 0.26978 0.2523 0.83421 0.0
C876 C 0.26204 0.1886 0.9288 0.0
C877 C 0.26772 0.16396 0.93194 0.0
C878 C 0.2643 0.19953 0.90603 0.0
C879 C 0.27243 0.18608 0.88594 0.0
C880 C 0.27909 0.16169 0.88943 0.0
C881 C 0.2767 0.15075 0.91213 0.0
C882 C 0.25393 0.19423 0.82079 0.0
C883 C 0.25615 0.21942 0.81805 0.0
C884 C 0.26139 0.1829 0.84213 0.0
C885 C 0.27108 0.19667 0.86116 0.0
C886 C 0.27592 0.22143 0.85711 0.0
C887 C 0.26837 0.23273 0.83574 0.0
H888 H 0.06295 0.00097 0.31584 0.0
H889 H 0.1355 0.99333 0.34348 0.0
H890 H 0.04702 0.00036 0.35692 0.0
H891 H 0.11953 0.99219 0.3847 0.0
H892 H 0.08188 0.03691 0.44695 0.0
H893 H 0.10198 0.02257 0.41057 0.0
H894 H 0.03993 0.97795 0.39431 0.0
H895 H 0.0197 0.9929 0.43085 0.0
C896 C 0.07548 -0.00113 0.33071 0.0
C897 C 0.10051 0.99758 0.32643 0.0
C898 C 0.06632 -0.00181 0.35429 0.0
C899 C 0.08197 0.99616 0.3742 0.0
C900 C 0.10697 0.99397 0.36982 0.0
C901 C 0.11613 0.99468 0.34621 0.0
C902 C 0.07307 0.02313 0.43619 0.0
C903 C 0.04941 0.0158 0.44173 0.0
C904 C 0.08453 0.01493 0.41524 0.0
C905 C 0.07241 -0.00056 0.39921 0.0
C906 C 0.04961 0.99021 0.40607 0.0
C907 C 0.03818 -0.00164 0.42721 0.0
H908 H 0.28563 0.85001 0.57782 0.0
H909 H 0.2396 0.79996 0.53966 0.0
H910 H 0.28488 0.82369 0.6131 0.0
H911 H 0.23906 0.77321 0.57514 0.0
H912 H 0.21086 0.76574 0.65575 0.0
H913 H 0.21962 0.77779 0.61439 0.0
H914 H 0.29528 0.78502 0.63228 0.0
H915 H 0.28623 0.77321 0.67407 0.0
C916 C 0.27564 0.83314 0.57684 0.0
C917 C 0.26237 0.82723 0.55609 0.0
C918 C 0.27546 0.81786 0.59701 0.0
C919 C 0.26191 0.79629 0.59701 0.0
C920 C 0.24955 0.78978 0.57579 0.0
C921 C 0.24984 0.80508 0.55548 0.0
C922 C 0.2295 0.76906 0.65062 0.0
C923 C 0.24784 0.76876 0.66812 0.0
C924 C 0.23457 0.7759 0.62685 0.0
C925 C 0.25809 0.7828 0.62008 0.0
C926 C 0.27689 0.78017 0.63704 0.0
C927 C 0.2718 0.77311 0.66089 0.0
H928 H 0.44655 0.96731 0.80696 0.0
H929 H 0.39853 0.01967 0.83995 0.0
H930 H 0.46867 0.96353 0.84489 0.0
H931 H 0.4208 0.01609 0.87775 0.0
H932 H 0.45453 0.9915 0.94753 0.0
H933 H 0.43046 0.98705 0.91097 0.0
H934 H 0.49544 0.99125 0.86758 0.0
H935 H 0.51956 0.99537 0.90397 0.0
C936 C 0.44069 0.97793 0.82235 0.0
C937 C 0.42097 0.99392 0.82052 0.0
C938 C 0.45335 0.97578 0.84401 0.0
C939 C 0.44643 0.9895 0.86422 0.0
C940 C 0.42633 0.00504 0.86254 0.0
C941 C 0.41373 0.00726 0.84086 0.0
C942 C 0.46374 0.99101 0.93023 0.0
C943 C 0.48895 0.99401 0.92862 0.0
C944 C 0.44993 0.98863 0.90932 0.0
C945 C 0.46109 0.98901 0.88648 0.0
C946 C 0.48638 0.99072 0.88496 0.0
C947 C 0.50017 0.99325 0.90581 0.0
H948 H 0.26354 0.19603 0.05379 0.0
H949 H 0.26168 0.12514 0.08728 0.0
H950 H 0.26788 0.21471 0.09325 0.0
H951 H 0.26639 0.14394 0.1271 0.0
H952 H 0.29757 0.24301 0.16099 0.0
H953 H 0.29792 0.21834 0.12464 0.0
H954 H 0.24498 0.17034 0.15669 0.0
H955 H 0.24513 0.19495 0.19358 0.0
C956 C 0.26411 0.18441 0.0696 0.0
C957 C 0.26233 0.1591 0.06734 0.0
C958 C 0.26682 0.19511 0.09228 0.0
C959 C 0.26786 0.18082 0.11342 0.0
C960 C 0.26565 0.15548 0.11123 0.0
C961 C 0.26301 0.14472 0.08842 0.0
C962 C 0.28651 0.22679 0.16057 0.0
C963 C 0.27122 0.22101 0.18008 0.0
C964 C 0.28648 0.21279 0.1396 0.0
C965 C 0.27094 0.19275 0.13742 0.0
C966 C 0.25711 0.1857 0.15771 0.0
C967 C 0.25729 0.19971 0.17892 0.0
H968 H 0.16986 0.12257 0.00479 0.0
H969 H 0.20864 0.05829 0.98277 0.0
H970 H 0.13177 0.09994 0.00366 0.0
H971 H 0.17085 0.03611 0.98019 0.0
H972 H 0.10762 0.99423 0.00896 0.0
H973 H 0.14343 0.01871 0.00636 0.0
H974 H 0.10084 0.07967 0.98142 0.0
H975 H 0.06407 0.05501 0.98525 0.0
C976 C 0.17017 0.10368 -0.00059 0.0
C977 C 0.19226 0.09207 0.99427 0.0
C978 C 0.14832 0.09073 -0.00144 0.0
C979 C 0.14807 0.06598 0.99218 0.0
C980 C 0.17021 0.05486 0.98595 0.0
C981 C 0.19197 0.06762 0.98729 0.0
C982 C 0.10564 0.01279 0.00271 0.0
C983 C 0.08273 0.0225 -0.00278 0.0
C984 C 0.12645 0.0269 0.00102 0.0
C985 C 0.12533 0.05123 0.99337 0.0
C986 C 0.10247 0.06105 0.98755 0.0
C987 C 0.08138 0.04685 0.98952 0.0
H988 H 0.69876 0.43132 0.0395 0.0
H989 H 0.6753 0.39942 0.97241 0.0
H990 H 0.6599 0.45247 0.04311 0.0
H991 H 0.63668 0.42078 0.97589 0.0
H992 H 0.57748 0.47843 0.98024 0.0
H993 H 0.61942 0.46445 0.97657 0.0
H994 H 0.61636 0.43668 0.04955 0.0
H995 H 0.57447 0.45049 0.05311 0.0
C996 C 0.68541 0.42903 0.02543 0.0
C997 C 0.68997 0.41362 0.00575 0.0
C998 C 0.6632 0.44109 0.02752 0.0
C999 C 0.64534 0.4383 0.00975 0.0
C1000 C 0.65022 0.42347 0.98972 0.0
C1001 C 0.67224 0.41111 0.98783 0.0
C1002 C 0.586 0.4699 0.99565 0.0
C1003 C 0.57278 0.46561 0.01695 0.0
C1004 C 0.60988 0.4617 0.99349 0.0
C1005 C 0.62108 0.44944 0.01276 0.0
C1006 C 0.60823 0.44624 0.03448 0.0
C1007 C 0.58425 0.45404 0.03647 0.0
H1008 H 0.8681 0.4194 0.2407 0.0
H1009 H 0.8124 0.4552 0.28242 0.0
H1010 H 0.84532 0.38149 0.24279 0.0
H1011 H 0.79012 0.41726 0.28533 0.0
H1012 H 0.74273 0.3573 0.25434 0.0
H1013 H 0.76723 0.39342 0.25779 0.0
H1014 H 0.83081 0.34908 0.26907 0.0
H1015 H 0.80626 0.31253 0.2648 0.0
C1016 C 0.85112 0.41906 0.25052 0.0
C1017 C 0.84181 0.44023 0.26111 0.0
C1018 C 0.83819 0.39733 0.25192 0.0
C1019 C 0.81586 0.39642 0.26413 0.0
C1020 C 0.80704 0.41749 0.27541 0.0
C1021 C 0.81981 0.4392 0.27378 0.0
C1022 C 0.76189 0.35513 0.25776 0.0
C1023 C 0.77254 0.33199 0.25914 0.0
C1024 C 0.77594 0.37592 0.25993 0.0
C1025 C 0.80097 0.37412 0.2637 0.0
C1026 C 0.81159 0.35101 0.26588 0.0
C1027 C 0.79749 0.3301 0.26364 0.0
H1028 H 0.81418 0.55646 0.49272 0.0
H1029 H 0.84873 0.62666 0.48973 0.0
H1030 H 0.85344 0.53678 0.48947 0.0
H1031 H 0.88819 0.60695 0.48583 0.0
H1032 H 0.94917 0.55841 0.52196 0.0
H1033 H 0.91483 0.58418 0.51161 0.0
H1034 H 0.88774 0.52808 0.46452 0.0
H1035 H 0.92176 0.50213 0.47578 0.0
C1036 C 0.83017 0.56769 0.49109 0.0
C1037 C 0.82837 0.59309 0.49173 0.0
C1038 C 0.85273 0.55642 0.4889 0.0
C1039 C 0.87408 0.57026 0.48717 0.0
C1040 C 0.87218 0.59573 0.48726 0.0
C1041 C 0.84957 0.60701 0.48952 0.0
C1042 C 0.93653 0.55219 0.50841 0.0
C1043 C 0.93811 0.52847 0.49947 0.0
C1044 C 0.91669 0.56686 0.50258 0.0
C1045 C 0.8981 0.55792 0.48775 0.0
C1046 C 0.90139 0.53527 0.47651 0.0
C1047 C 0.92111 0.52057 0.48253 0.0
H1048 H 0.13656 0.08704 0.27213 0.0
H1049 H 0.18999 0.05602 0.22429 0.0
H1050 H 0.15617 0.12638 0.26875 0.0
H1051 H 0.20924 0.09571 0.22003 0.0
H1052 H 0.25492 0.1593 0.25225 0.0
H1053 H 0.23349 0.12219 0.24239 0.0
H1054 H 0.1656 0.1611 0.24587 0.0
H1055 H 0.18739 0.19796 0.25694 0.0
C1056 C 0.15237 0.0887 0.26062 0.0
C1057 C 0.16184 0.0683 0.2487 0.0
C1058 C 0.16351 0.11143 0.2584 0.0
C1059 C 0.18436 0.11452 0.24398 0.0
C1060 C 0.19344 0.09413 0.23154 0.0
C1061 C 0.18238 0.07132 0.23395 0.0
C1062 C 0.23552 0.16017 0.24961 0.0
C1063 C 0.22287 0.18164 0.25485 0.0
C1064 C 0.2231 0.13876 0.24415 0.0
C1065 C 0.19763 0.13829 0.24386 0.0
C1066 C 0.18516 0.16051 0.24653 0.0
C1067 C 0.19766 0.1819 0.25219 0.0
H1068 H 0.34313 0.89459 0.51731 0.0
H1069 H 0.3051 0.94975 0.47676 0.0
H1070 H 0.38038 0.91788 0.51383 0.0
H1071 H 0.34257 0.97267 0.47237 0.0
H1072 H 0.4045 0.02041 0.49954 0.0
H1073 H 0.36819 0.99624 0.497 0.0
H1074 H 0.41151 0.93162 0.48686 0.0
H1075 H 0.44825 0.95587 0.49041 0.0
C1076 C 0.34281 0.91165 0.5075 0.0
C1077 C 0.32122 0.92054 0.49753 0.0
C1078 C 0.36421 0.92486 0.50525 0.0
C1079 C 0.36451 0.94712 0.49275 0.0
C1080 C 0.34291 0.95576 0.48242 0.0
C1081 C 0.32145 0.94267 0.48492 0.0
C1082 C 0.40641 0.00108 0.49653 0.0
C1083 C 0.42936 0.99005 0.49547 0.0
C1084 C 0.38548 0.98721 0.49487 0.0
C1085 C 0.38689 0.96195 0.49188 0.0
C1086 C 0.40982 0.95101 0.4896 0.0
C1087 C 0.43087 0.96492 0.4914 0.0
H1088 H 0.84968 0.58373 0.28647 0.0
H1089 H 0.80408 0.54626 0.23564 0.0
H1090 H 0.82265 0.61861 0.28527 0.0
H1091 H 0.7764 0.5808 0.23511 0.0
H1092 H 0.76676 0.66072 0.20825 0.0
H1093 H 0.77979 0.6197 0.21723 0.0
H1094 H 0.78437 0.63773 0.29307 0.0
H1095 H 0.77205 0.67937 0.28366 0.0
C1096 C 0.8336 0.58279 0.27539 0.0
C1097 C 0.82922 0.56253 0.26077 0.0
C1098 C 0.8179 0.60268 0.27493 0.0
C1099 C 0.79736 0.60261 0.25998 0.0
C1100 C 0.79226 0.58163 0.24651 0.0
C1101 C 0.80811 0.56186 0.24678 0.0
C1102 C 0.76978 0.65569 0.22695 0.0
C1103 C 0.76865 0.67323 0.24524 0.0
C1104 C 0.77716 0.63207 0.23217 0.0
C1105 C 0.78359 0.62547 0.25585 0.0
C1106 C 0.78 0.64238 0.27456 0.0
C1107 C 0.77257 0.66613 0.26928 0.0
H1108 H 0.63718 0.41388 0.74477 0.0
H1109 H 0.69825 0.44796 0.77904 0.0
H1110 H 0.65711 0.3747 0.74763 0.0
H1111 H 0.71806 0.40839 0.78283 0.0
H1112 H 0.7568 0.3423 0.74578 0.0
H1113 H 0.73772 0.38011 0.75786 0.0
H1114 H 0.67077 0.34172 0.77103 0.0
H1115 H 0.69002 0.30399 0.75783 0.0
C1116 C 0.6548 0.41294 0.75322 0.0
C1117 C 0.66623 0.43412 0.76142 0.0
C1118 C 0.66616 0.39032 0.75519 0.0
C1119 C 0.68927 0.38811 0.76562 0.0
C1120 C 0.70042 0.40929 0.77445 0.0
C1121 C 0.68907 0.43202 0.77229 0.0
C1122 C 0.73836 0.34177 0.75249 0.0
C1123 C 0.72495 0.32021 0.75112 0.0
C1124 C 0.72727 0.36356 0.75928 0.0
C1125 C 0.70241 0.36428 0.76483 0.0
C1126 C 0.68977 0.34206 0.76621 0.0
C1127 C 0.7009 0.32026 0.75923 0.0
H1128 H 0.02827 0.83948 0.89149 0.0
H1129 H 0.96776 0.81136 0.93224 0.0
H1130 H 0.02468 0.87808 0.9124 0.0
H1131 H 0.96335 0.85042 0.95255 0.0
H1132 H 0.9919 0.90633 0.00856 0.0
H1133 H 0.98302 0.87224 0.98253 0.0
H1134 H 0.00442 0.91489 0.92029 0.0
H1135 H 0.0142 0.94885 0.94701 0.0
C1136 C 0.01394 0.84167 0.90471 0.0
C1137 C -0.00148 0.8222 0.91043 0.0
C1138 C 0.01166 0.86401 0.91655 0.0
C1139 C 0.99369 0.86764 0.93431 0.0
C1140 C 0.97767 0.84834 0.93933 0.0
C1141 C 0.98015 0.82589 0.92765 0.0
C1142 C 0.99358 0.90879 0.98919 0.0
C1143 C 0.00346 0.9303 0.97978 0.0
C1144 C 0.98861 0.88911 0.97414 0.0
C1145 C 0.99348 0.89039 0.94919 0.0
C1146 C 0.00101 0.91292 0.93947 0.0
C1147 C 0.00608 0.93266 0.95467 0.0
H1148 H 0.92779 0.29027 0.63694 0.0
H1149 H 0.95007 0.23958 0.69219 0.0
H1150 H 0.8878 0.29267 0.65511 0.0
H1151 H 0.90942 0.2408 0.70981 0.0
H1152 H 0.8362 0.26181 0.74465 0.0
H1153 H 0.87839 0.26248 0.73079 0.0
H1154 H 0.8538 0.26802 0.65689 0.0
H1155 H 0.81233 0.26851 0.67071 0.0
C1156 C 0.92406 0.27959 0.653 0.0
C1157 C 0.94192 0.26459 0.66303 0.0
C1158 C 0.90105 0.28078 0.66335 0.0
C1159 C 0.89509 0.26649 0.68367 0.0
C1160 C 0.91332 0.25214 0.69427 0.0
C1161 C 0.93658 0.25134 0.68413 0.0
C1162 C 0.83996 0.26325 0.72548 0.0
C1163 C 0.82095 0.26552 0.70883 0.0
C1164 C 0.8641 0.26354 0.7175 0.0
C1165 C 0.86963 0.26576 0.6927 0.0
C1166 C 0.85044 0.26717 0.67616 0.0
C1167 C 0.82653 0.26727 0.68411 0.0
H1168 H 0.48681 0.16882 0.39385 0.0
H1169 H 0.54611 0.19848 0.43461 0.0
H1170 H 0.49153 0.13017 0.41449 0.0
H1171 H 0.55184 0.15928 0.4546 0.0
H1172 H 0.52372 0.10208 0.51029 0.0
H1173 H 0.53325 0.13623 0.48433 0.0
H1174 H 0.51248 0.09411 0.42197 0.0
H1175 H 0.50171 0.06026 0.44865 0.0
C1176 C 0.50111 0.16694 0.40706 0.0
C1177 C 0.51583 0.18682 0.41288 0.0
C1178 C 0.5041 0.14458 0.4187 0.0
C1179 C 0.52217 0.1413 0.4363 0.0
C1180 C 0.53747 0.16107 0.44148 0.0
C1181 C 0.53421 0.1836 0.43004 0.0
C1182 C 0.52237 0.09974 0.49091 0.0
C1183 C 0.51214 0.07854 0.48144 0.0
C1184 C 0.52772 0.11946 0.4759 0.0
C1185 C 0.52299 0.11838 0.45096 0.0
C1186 C 0.51564 0.09594 0.44116 0.0
C1187 C 0.51006 0.07623 0.45633 0.0
H1188 H 0.55611 0.77255 0.19402 0.0
H1189 H 0.58787 0.72712 0.13885 0.0
H1190 H 0.59327 0.76977 0.21739 0.0
H1191 H 0.62485 0.72376 0.16254 0.0
H1192 H 0.69546 0.7492 0.19997 0.0
H1193 H 0.65877 0.74823 0.17569 0.0
H1194 H 0.6158 0.74036 0.24064 0.0
H1195 H 0.65232 0.74198 0.26491 0.0
C1196 C 0.57102 0.7619 0.18695 0.0
C1197 C 0.56915 0.75007 0.16466 0.0
C1198 C 0.59222 0.76013 0.20041 0.0
C1199 C 0.61192 0.74636 0.19189 0.0
C1200 C 0.61006 0.73465 0.16948 0.0
C1201 C 0.58888 0.73652 0.15597 0.0
C1202 C 0.67821 0.74686 0.20902 0.0
C1203 C 0.67673 0.74593 0.23435 0.0
C1204 C 0.65719 0.74629 0.19511 0.0
C1205 C 0.63437 0.7446 0.2063 0.0
C1206 C 0.63307 0.7423 0.23155 0.0
C1207 C 0.65401 0.74306 0.24543 0.0
H1208 H 0.97764 0.1847 0.57874 0.0
H1209 H 0.03253 0.17151 0.63259 0.0
H1210 H 0.98145 0.14255 0.56513 0.0
H1211 H 0.03681 0.12965 0.61839 0.0
H1212 H 0.05597 0.08381 0.54264 0.0
H1213 H 0.05106 0.11802 0.57035 0.0
H1214 H 0.97801 0.09516 0.58586 0.0
H1215 H 0.98324 0.06042 0.55876 0.0
C1216 C 0.99028 0.17272 0.5878 0.0
C1217 C 0.00484 0.18131 0.60661 0.0
C1218 C 0.99232 0.14865 0.58018 0.0
C1219 C 0.00929 0.133 0.59093 0.0
C1220 C 0.02347 0.1414 0.61006 0.0
C1221 C 0.02102 0.1653 0.61807 0.0
C1222 C 0.03937 0.08542 0.55299 0.0
C1223 C 0.0201 0.06944 0.54895 0.0
C1224 C 0.03651 0.10498 0.5687 0.0
C1225 C 0.01412 0.10914 0.57998 0.0
C1226 C 0.99544 0.09215 0.57736 0.0
C1227 C -0.00147 0.0722 0.56212 0.0
H1228 H 0.5901 0.27878 0.35744 0.0
H1229 H 0.56556 0.21389 0.32171 0.0
H1230 H 0.62955 0.27443 0.33842 0.0
H1231 H 0.6055 0.20859 0.3036 0.0
H1232 H 0.66256 0.2348 0.24707 0.0
H1233 H 0.62815 0.22584 0.27279 0.0
H1234 H 0.66674 0.25472 0.33415 0.0
H1235 H 0.70066 0.26497 0.30758 0.0
C1236 C 0.59329 0.26338 0.34572 0.0
C1237 C 0.57464 0.24693 0.34071 0.0
C1238 C 0.61609 0.26062 0.33506 0.0
C1239 C 0.62097 0.24107 0.31941 0.0
C1240 C 0.60243 0.2241 0.31518 0.0
C1241 C 0.57948 0.22713 0.32553 0.0
C1242 C 0.6641 0.23805 0.26631 0.0
C1243 C 0.68429 0.25026 0.27546 0.0
C1244 C 0.64426 0.23305 0.28116 0.0
C1245 C 0.64423 0.24015 0.30557 0.0
C1246 C 0.66577 0.24964 0.31531 0.0
C1247 C 0.68554 0.25492 0.30028 0.0
H1248 H 0.53042 0.83389 0.10639 0.0
H1249 H 0.49692 0.79391 0.04851 0.0
H1250 H 0.53196 0.86994 0.08086 0.0
H1251 H 0.49881 0.82999 0.02272 0.0
H1252 H 0.46694 0.90894 0.01122 0.0
H1253 H 0.47601 0.86784 0.02453 0.0
H1254 H 0.548 0.89039 0.04461 0.0
H1255 H 0.53856 0.93184 0.03153 0.0
C1256 C 0.52372 0.83272 0.08807 0.0
C1257 C 0.5132 0.81121 0.07957 0.0
C1258 C 0.52488 0.85331 0.07331 0.0
C1259 C 0.5155 0.85286 0.04973 0.0
C1260 C 0.50601 0.83096 0.04086 0.0
C1261 C 0.5049 0.81033 0.05563 0.0
C1262 C 0.48502 0.90486 0.01758 0.0
C1263 C 0.50206 0.92348 0.02038 0.0
C1264 C 0.49027 0.88128 0.02519 0.0
C1265 C 0.51261 0.87591 0.03599 0.0
C1266 C 0.53051 0.89407 0.03665 0.0
C1267 C 0.52527 0.9177 0.02882 0.0
H1268 H 0.94094 0.78571 0.8245 0.0
H1269 H 0.94326 0.70874 0.83894 0.0
H1270 H 0.90168 0.7809 0.80476 0.0
H1271 H 0.90509 0.70353 0.81802 0.0
H1272 H 0.82379 0.70695 0.81469 0.0
H1273 H 0.86513 0.71104 0.82721 0.0
H1274 H 0.87665 0.76642 0.77281 0.0
H1275 H 0.83411 0.76311 0.76087 0.0
C1276 C 0.93325 0.76771 0.82299 0.0
C1277 C 0.94488 0.74765 0.83361 0.0
C1278 C 0.91082 0.76488 0.81153 0.0
C1279 C 0.89983 0.74186 0.8101 0.0
C1280 C 0.91245 0.72167 0.81941 0.0
C1281 C 0.93447 0.72459 0.8313 0.0
C1282 C 0.83502 0.71992 0.80511 0.0
C1283 C 0.82541 0.73475 0.78675 0.0
C1284 C 0.85904 0.72211 0.81221 0.0
C1285 C 0.87455 0.73896 0.80099 0.0
C1286 C 0.86523 0.75339 0.78206 0.0
C1287 C 0.8409 0.75132 0.77502 0.0
H1288 H 0.89743 0.9873 0.83498 0.0
H1289 H 0.95911 0.01454 0.79529 0.0
H1290 H 0.92144 0.98654 0.87196 0.0
H1291 H 0.98306 0.01412 0.83247 0.0
H1292 H 0.99404 0.04548 0.91268 0.0
H1293 H 0.97935 0.03899 0.87166 0.0
H1294 H 0.95901 0.96575 0.89083 0.0
H1295 H 0.97416 0.97223 0.93191 0.0
C1296 C 0.91614 0.99305 0.83415 0.0
C1297 C 0.92633 0.00114 0.81228 0.0
C1298 C 0.92997 0.99236 0.85527 0.0
C1299 C 0.95419 0.0001 0.85507 0.0
C1300 C 0.96446 0.008 0.83314 0.0
C1301 C 0.95074 0.00828 0.8119 0.0
C1302 C 0.98741 0.02766 0.90779 0.0
C1303 C 0.98548 0.00926 0.92532 0.0
C1304 C 0.9789 0.02397 0.88434 0.0
C1305 C 0.96778 0.00196 0.87812 0.0
C1306 C 0.96736 0.98295 0.8952 0.0
C1307 C 0.97635 0.98651 0.91858 0.0
H1308 H 0.74051 0.19466 0.56263 0.0
H1309 H 0.75743 0.12339 0.5908 0.0
H1310 H 0.73135 0.20863 0.60329 0.0
H1311 H 0.74812 0.13746 0.63177 0.0
H1312 H 0.76275 0.19155 0.69855 0.0
H1313 H 0.76545 0.16741 0.66169 0.0
H1314 H 0.7003 0.20151 0.63517 0.0
H1315 H 0.69783 0.22581 0.67179 0.0
C1316 C 0.74229 0.18199 0.57753 0.0
C1317 C 0.74971 0.15797 0.57355 0.0
C1318 C 0.73677 0.18988 0.6008 0.0
C1319 C 0.73861 0.17399 0.62066 0.0
C1320 C 0.74643 0.15004 0.61678 0.0
C1321 C 0.75179 0.14205 0.59338 0.0
C1322 C 0.7484 0.19303 0.68536 0.0
C1323 C 0.73026 0.21076 0.68782 0.0
C1324 C 0.75004 0.17933 0.66416 0.0
C1325 C 0.73349 0.18317 0.64529 0.0
C1326 C 0.71368 0.19869 0.64917 0.0
C1327 C 0.71211 0.21241 0.67022 0.0
H1328 H 0.56868 0.03682 0.30684 0.0
H1329 H 0.59971 0.96794 0.32792 0.0
H1330 H 0.54329 0.03646 0.34328 0.0
H1331 H 0.57453 0.96759 0.36406 0.0
H1332 H 0.51684 0.96038 0.41702 0.0
H1333 H 0.53108 0.96429 0.37546 0.0
H1334 H 0.55048 0.03896 0.38879 0.0
H1335 H 0.53589 0.035 0.43049 0.0
C1336 C 0.56997 0.02156 0.31918 0.0
C1337 C 0.58617 0.00238 0.31457 0.0
C1338 C 0.55548 0.02141 0.34 0.0
C1339 C 0.55672 0.00189 0.35635 0.0
C1340 C 0.5728 0.98267 0.35155 0.0
C1341 C 0.58739 0.98294 0.33095 0.0
C1342 C 0.52324 0.9779 0.41074 0.0
C1343 C 0.52528 0.99741 0.42684 0.0
C1344 C 0.53161 0.98007 0.38706 0.0
C1345 C 0.54242 0.00173 0.37909 0.0
C1346 C 0.54221 0.02205 0.39445 0.0
C1347 C 0.53368 0.01988 0.41825 0.0
H1348 H 0.7717 0.86373 0.08846 0.0
H1349 H 0.71411 0.8196 0.0601 0.0
H1350 H 0.76853 0.84295 0.12709 0.0
H1351 H 0.70959 0.79972 0.09931 0.0
H1352 H 0.73928 0.74532 0.15606 0.0
H1353 H 0.72883 0.77097 0.12211 0.0
H1354 H 0.74942 0.83432 0.16322 0.0
H1355 H 0.76164 0.80785 0.19658 0.0
C1356 C 0.75809 0.84975 0.09066 0.0
C1357 C 0.74347 0.84294 0.07118 0.0
C1358 C 0.75595 0.83803 0.113 0.0
C1359 C 0.73874 0.81951 0.11662 0.0
C1360 C 0.72341 0.81347 0.09724 0.0
C1361 C 0.72597 0.82485 0.07471 0.0
C1362 C 0.74048 0.76484 0.15818 0.0
C1363 C 0.75091 0.7747 0.17898 0.0
C1364 C 0.73455 0.77969 0.13861 0.0
C1365 C 0.73883 0.80486 0.13946 0.0
C1366 C 0.74655 0.81497 0.16153 0.0
C1367 C 0.75288 0.79994 0.18101 0.0
H1368 H 0.87836 0.00918 0.66119 0.0
H1369 H 0.95047 0.0011 0.6898 0.0
H1370 H 0.89505 0.01266 0.6204 0.0
H1371 H 0.96714 0.00391 0.64911 0.0
H1372 H 0.99605 0.01546 0.57653 0.0
H1373 H 0.97491 0.02814 0.6134 0.0
H1374 H 0.91325 0.98484 0.59277 0.0
H1375 H 0.93423 0.97286 0.55606 0.0
C1376 C 0.89778 0.00814 0.65876 0.0
C1377 C 0.91308 0.00454 0.67867 0.0
C1378 C 0.90736 0.0102 0.63539 0.0
C1379 C 0.93247 0.00862 0.63137 0.0
C1380 C 0.94777 0.00569 0.65146 0.0
C1381 C 0.93819 0.00372 0.67481 0.0
C1382 C 0.97747 0.00986 0.57934 0.0
C1383 C 0.9666 0.99343 0.56347 0.0
C1384 C 0.96551 0.01669 0.60066 0.0
C1385 C 0.94257 0.00704 0.60638 0.0
C1386 C 0.9308 0.99274 0.58904 0.0
C1387 C 0.94277 0.98593 0.56787 0.0
H1388 H 0.77554 0.20904 0.45986 0.0
H1389 H 0.72917 0.15761 0.42399 0.0
H1390 H 0.77475 0.23509 0.42397 0.0
H1391 H 0.72888 0.18308 0.38809 0.0
H1392 H 0.7248 0.23232 0.3264 0.0
H1393 H 0.71725 0.22011 0.36826 0.0
H1394 H 0.79265 0.23218 0.3847 0.0
H1395 H 0.79973 0.24517 0.34332 0.0
C1396 C 0.76506 0.20339 0.44438 0.0
C1397 C 0.75266 0.18115 0.44463 0.0
C1398 C 0.7646 0.21829 0.42381 0.0
C1399 C 0.75179 0.21121 0.40306 0.0
C1400 C 0.73861 0.1894 0.4038 0.0
C1401 C 0.73901 0.17459 0.42433 0.0
C1402 C 0.73937 0.23358 0.33931 0.0
C1403 C 0.76279 0.23977 0.33167 0.0
C1404 C 0.73521 0.22614 0.3632 0.0
C1405 C 0.75445 0.22468 0.37979 0.0
C1406 C 0.77735 0.23315 0.37258 0.0
C1407 C 0.78146 0.24056 0.34879 0.0
H1408 H 0.60914 0.03794 0.17632 0.0
H1409 H 0.56359 0.97937 0.20166 0.0
H1410 H 0.5846 0.0416 0.13994 0.0
H1411 H 0.53927 0.98282 0.16513 0.0
H1412 H 0.48717 0.00929 0.10923 0.0
H1413 H 0.51097 0.01168 0.14598 0.0
H1414 H 0.57635 0.01718 0.10332 0.0
H1415 H 0.55253 0.01509 0.06639 0.0
C1416 C 0.59388 0.02586 0.17409 0.0
C1417 C 0.58822 0.00836 0.19176 0.0
C1418 C 0.57992 0.02791 0.15325 0.0
C1419 C 0.56001 0.01258 0.14978 0.0
C1420 C 0.55431 0.99515 0.16753 0.0
C1421 C 0.56831 0.99304 0.18834 0.0
C1422 C 0.50659 0.01134 0.10763 0.0
C1423 C 0.518 0.01171 0.08489 0.0
C1424 C 0.5202 0.01257 0.1287 0.0
C1425 C 0.5455 0.0142 0.12747 0.0
C1426 C 0.55684 0.016 0.10477 0.0
C1427 C 0.5432 0.0148 0.08364 0.0
H1428 H 0.71201 0.86924 0.92582 0.0
H1429 H 0.77786 0.82903 0.93854 0.0
H1430 H 0.709 0.85118 0.88547 0.0
H1431 H 0.77523 0.8117 0.89785 0.0
H1432 H 0.77156 0.8064 0.81339 0.0
H1433 H 0.77308 0.83161 0.84992 0.0
H1434 H 0.70548 0.8009 0.87413 0.0
H1435 H 0.70443 0.77505 0.83821 0.0
C1436 C 0.72597 0.85677 0.91989 0.0
C1437 C 0.74512 0.85045 0.93537 0.0
C1438 C 0.72424 0.8465 0.89683 0.0
C1439 C 0.742 0.83027 0.88854 0.0
C1440 C 0.76146 0.82439 0.90375 0.0
C1441 C 0.76286 0.83416 0.92706 0.0
C1442 C 0.75664 0.80568 0.82613 0.0
C1443 C 0.73775 0.78897 0.82291 0.0
C1444 C 0.75766 0.81987 0.84711 0.0
C1445 C 0.73945 0.81805 0.86482 0.0
C1446 C 0.71967 0.80269 0.8607 0.0
C1447 C 0.71901 0.78803 0.84011 0.0
H1448 H 0.80065 0.95101 0.99571 0.0
H1449 H 0.83522 0.88464 0.01893 0.0
H1450 H 0.83902 0.97233 -0.00119 0.0
H1451 H 0.87361 0.90614 0.02292 0.0
H1452 H 0.9432 0.94901 0.00118 0.0
H1453 H 0.90587 0.9252 0.00111 0.0
H1454 H 0.86636 0.98752 0.02755 0.0
H1455 H 0.90331 0.01134 0.0267 0.0
C1456 C 0.81646 0.941 0.00161 0.0
C1457 C 0.81486 0.91615 0.00708 0.0
C1458 C 0.83849 0.95326 0.00362 0.0
C1459 C 0.85952 0.94109 0.01142 0.0
C1460 C 0.85793 0.91612 0.01668 0.0
C1461 C 0.83587 0.9038 0.01449 0.0
C1462 C 0.9266 0.95742 0.00743 0.0
C1463 C 0.92617 0.98211 0.01376 0.0
C1464 C 0.90514 0.94379 0.00734 0.0
C1465 C 0.88288 0.95454 0.01383 0.0
C1466 C 0.88292 0.9788 0.02168 0.0
C1467 C 0.9042 0.99242 0.02147 0.0
H1468 H 0.30726 0.56475 0.01184 0.0
H1469 H 0.33215 0.62334 0.96617 0.0
H1470 H 0.34782 0.54675 0.01101 0.0
H1471 H 0.37205 0.60495 0.96423 0.0
H1472 H 0.44605 0.58776 0.9905 0.0
H1473 H 0.40457 0.60147 0.9909 0.0
H1474 H 0.37998 0.52705 0.98867 0.0
H1475 H 0.42224 0.51314 0.9893 0.0
C1476 C 0.3213 0.5735 0.00126 0.0
C1477 C 0.31671 0.59561 0.98935 0.0
C1478 C 0.34451 0.56316 0.0007 0.0
C1479 C 0.36342 0.57462 0.98795 0.0
C1480 C 0.35822 0.59599 0.97491 0.0
C1481 C 0.33527 0.60648 0.97584 0.0
C1482 C 0.43187 0.57422 0.99003 0.0
C1483 C 0.43747 0.54934 0.98947 0.0
C1484 C 0.40797 0.58212 0.99008 0.0
C1485 C 0.3888 0.56544 0.98916 0.0
C1486 C 0.39429 0.54042 0.98934 0.0
C1487 C 0.41845 0.53243 0.98963 0.0
H1488 H 0.19769 0.55459 0.7683 0.0
H1489 H 0.1359 0.58734 0.73339 0.0
H1490 H 0.22025 0.59216 0.76311 0.0
H1491 H 0.15875 0.62474 0.72735 0.0
H1492 H 0.26333 0.65281 0.7328 0.0
H1493 H 0.23906 0.61602 0.73238 0.0
H1494 H 0.17525 0.65828 0.74929 0.0
H1495 H 0.19948 0.69524 0.74875 0.0
C1496 C 0.189 0.56982 0.75941 0.0
C1497 C 0.16509 0.56811 0.75129 0.0
C1498 C 0.20197 0.59128 0.7562 0.0
C1499 C 0.19138 0.61139 0.74456 0.0
C1500 C 0.16736 0.60967 0.73655 0.0
C1501 C 0.15431 0.58825 0.73997 0.0
C1502 C 0.24404 0.65426 0.73598 0.0
C1503 C 0.2333 0.67679 0.741 0.0
C1504 C 0.23017 0.63318 0.73597 0.0
C1505 C 0.20533 0.63414 0.74134 0.0
C1506 C 0.19432 0.6569 0.74498 0.0
C1507 C 0.20819 0.67808 0.74467 0.0
H1508 H 0.19676 0.43552 0.54244 0.0
H1509 H 0.16594 0.39374 0.48446 0.0
H1510 H 0.15822 0.45627 0.54831 0.0
H1511 H 0.12787 0.41545 0.48906 0.0
H1512 H 0.06015 0.45366 0.49765 0.0
H1513 H 0.09226 0.42543 0.50937 0.0
H1514 H 0.13732 0.4865 0.5287 0.0
H1515 H 0.10473 0.51397 0.51852 0.0
C1516 C 0.18172 0.43093 0.53084 0.0
C1517 C 0.18439 0.41337 0.51272 0.0
C1518 C 0.15959 0.44279 0.53418 0.0
C1519 C 0.13979 0.43782 0.51904 0.0
C1520 C 0.1424 0.41958 0.50142 0.0
C1521 C 0.16438 0.40734 0.49848 0.0
C1522 C 0.07636 0.46074 0.50596 0.0
C1523 C 0.07995 0.48583 0.5076 0.0
C1524 C 0.09506 0.44468 0.51207 0.0
C1525 C 0.1178 0.45361 0.51934 0.0
C1526 C 0.12022 0.47871 0.52334 0.0
C1527 C 0.10147 0.4946 0.51754 0.0
H1528 H 0.88612 0.91295 0.7584 0.0
H1529 H 0.8153 0.94574 0.75468 0.0
H1530 H 0.86767 0.87292 0.76239 0.0
H1531 H 0.79676 0.90575 0.75766 0.0
H1532 H 0.76439 0.83419 0.76885 0.0
H1533 H 0.7872 0.87043 0.7802 0.0
H1534 H 0.84784 0.845 0.73767 0.0
H1535 H 0.82526 0.8088 0.72727 0.0
C1536 C 0.86658 0.9116 0.75839 0.0
C1537 C 0.85219 0.93253 0.75596 0.0
C1538 C 0.85596 0.88859 0.76066 0.0
C1539 C 0.83062 0.88584 0.76031 0.0
C1540 C 0.81628 0.90697 0.75849 0.0
C1541 C 0.82692 0.92998 0.75646 0.0
C1542 C 0.78312 0.83577 0.7632 0.0
C1543 C 0.79321 0.81856 0.74748 0.0
C1544 C 0.79604 0.85683 0.76917 0.0
C1545 C 0.81922 0.86116 0.75931 0.0
C1546 C 0.83016 0.84251 0.74576 0.0
C1547 C 0.81728 0.82151 0.73992 0.0
H1548 H 0.70821 0.05969 0.49505 0.0
H1549 H 0.67263 0.12357 0.52312 0.0
H1550 H 0.67089 0.03676 0.49978 0.0
H1551 H 0.63549 0.10043 0.52883 0.0
H1552 H 0.56716 0.05802 0.50562 0.0
H1553 H 0.60389 0.08234 0.50616 0.0
H1554 H 0.64477 0.01942 0.52918 0.0
H1555 H 0.60821 0.99493 0.52761 0.0
C1556 C 0.69243 0.06875 0.50241 0.0
C1557 C 0.69324 0.09339 0.5086 0.0
C1558 C 0.67109 0.05558 0.50537 0.0
C1559 C 0.65019 0.0667 0.51487 0.0
C1560 C 0.65113 0.09137 0.52121 0.0
C1561 C 0.67242 0.1046 0.518 0.0
C1562 C 0.58393 0.04952 0.51124 0.0
C1563 C 0.58492 0.02454 0.51631 0.0
C1564 C 0.605 0.06346 0.51158 0.0
C1565 C 0.62738 0.05273 0.51731 0.0
C1566 C 0.62797 0.02809 0.52401 0.0
C1567 C 0.607 0.0141 0.52333 0.0
H1568 H 0.16613 0.43074 0.72195 0.0
H1569 H 0.18518 0.44892 0.7953 0.0
H1570 H 0.1885 0.39271 0.72551 0.0
H1571 H 0.20788 0.41099 0.79875 0.0
H1572 H 0.20619 0.32655 0.80477 0.0
H1573 H 0.19416 0.36879 0.80114 0.0
H1574 H 0.22849 0.37287 0.73099 0.0
H1575 H 0.24041 0.33016 0.73454 0.0
C1576 C 0.17542 0.42677 0.73871 0.0
C1577 C 0.17366 0.44263 0.75846 0.0
C1578 C 0.18842 0.40508 0.74067 0.0
C1579 C 0.19986 0.39879 0.76245 0.0
C1580 C 0.19901 0.41522 0.78183 0.0
C1581 C 0.18606 0.43694 0.77984 0.0
C1582 C 0.21152 0.33651 0.7887 0.0
C1583 C 0.22404 0.32494 0.76983 0.0
C1584 C 0.20478 0.36082 0.78671 0.0
C1585 C 0.21028 0.37416 0.76573 0.0
C1586 C 0.22382 0.36296 0.74728 0.0
C1587 C 0.23079 0.33859 0.74938 0.0
H1588 H 0.31047 0.55843 0.24944 0.0
H1589 H 0.38024 0.58868 0.23149 0.0
H1590 H 0.29249 0.59887 0.24725 0.0
H1591 H 0.36223 0.62895 0.22829 0.0
H1592 H 0.32875 0.69499 0.26932 0.0
H1593 H 0.34798 0.65771 0.25608 0.0
H1594 H 0.28039 0.6341 0.22501 0.0
H1595 H 0.26109 0.67155 0.23913 0.0
C1596 C 0.32188 0.57368 0.24463 0.0
C1597 C 0.34683 0.57042 0.24107 0.0
C1598 C 0.31154 0.5969 0.24308 0.0
C1599 C 0.32588 0.61739 0.23768 0.0
C1600 C 0.35065 0.61378 0.23292 0.0
C1601 C 0.361 0.59065 0.23474 0.0
C1602 C 0.31837 0.6824 0.25852 0.0
C1603 C 0.29357 0.68623 0.25499 0.0
C1604 C 0.32934 0.66082 0.25103 0.0
C1605 C 0.31566 0.64247 0.2399 0.0
C1606 C 0.29137 0.64754 0.23403 0.0
C1607 C 0.28039 0.66923 0.2416 0.0
H1608 H 0.5112 0.69838 0.55795 0.0
H1609 H 0.51177 0.66596 0.62901 0.0
H1610 H 0.51425 0.65823 0.53984 0.0
H1611 H 0.51594 0.62579 0.61107 0.0
H1612 H 0.48214 0.5613 0.56847 0.0
H1613 H 0.49205 0.59771 0.5909 0.0
H1614 H 0.53608 0.62269 0.53108 0.0
H1615 H 0.52506 0.58638 0.50838 0.0
C1616 C 0.51236 0.68266 0.56972 0.0
C1617 C 0.51092 0.68537 0.59491 0.0
C1618 C 0.5144 0.65955 0.55935 0.0
C1619 C 0.51535 0.63847 0.57389 0.0
C1620 C 0.51484 0.64139 0.59917 0.0
C1621 C 0.51251 0.66449 0.60951 0.0
C1622 C 0.49501 0.57395 0.56067 0.0
C1623 C 0.50313 0.57081 0.53684 0.0
C1624 C 0.50056 0.5951 0.57346 0.0
C1625 C 0.51443 0.61369 0.56268 0.0
C1626 C 0.5248 0.60918 0.53979 0.0
C1627 C 0.51905 0.58803 0.52695 0.0
H1628 H 0.59118 0.24569 0.8799 0.0
H1629 H 0.55609 0.24571 0.81031 0.0
H1630 H 0.63033 0.24089 0.86015 0.0
H1631 H 0.59557 0.24094 0.79044 0.0
H1632 H 0.67733 0.26095 0.76939 0.0
H1633 H 0.63589 0.2647 0.78501 0.0
H1634 H 0.65008 0.20735 0.8364 0.0
H1635 H 0.69102 0.20355 0.8211 0.0
C1636 C 0.59184 0.24466 0.86037 0.0
C1637 C 0.57056 0.24592 0.84667 0.0
C1638 C 0.61425 0.24183 0.84906 0.0
C1639 C 0.61597 0.24037 0.82376 0.0
C1640 C 0.59475 0.24208 0.80995 0.0
C1641 C 0.5722 0.24467 0.82133 0.0
C1642 C 0.67148 0.24894 0.78378 0.0
C1643 C 0.68769 0.23223 0.79421 0.0
C1644 C 0.64776 0.25107 0.79269 0.0
C1645 C 0.63994 0.2366 0.8122 0.0
C1646 C 0.65576 0.2191 0.82169 0.0
C1647 C 0.67925 0.2169 0.81281 0.0
H1648 H 0.01656 0.34098 0.11422 0.0
H1649 H 0.96801 0.31167 0.06093 0.0
H1650 H 0.01243 0.38097 0.09648 0.0
H1651 H 0.96293 0.35228 0.04346 0.0
H1652 H 0.9959 0.4183 0.00041 0.0
H1653 H 0.98443 0.38051 0.02002 0.0
H1654 H 0.98916 0.4156 0.0896 0.0
H1655 H 0.00217 0.45296 0.06964 0.0
C1656 C 0.00474 0.34316 0.0988 0.0
C1657 C 0.99283 0.32307 0.08884 0.0
C1658 C 0.00203 0.3663 0.08878 0.0
C1659 C 0.98708 0.37019 0.06859 0.0
C1660 C 0.97475 0.35008 0.05887 0.0
C1661 C 0.97767 0.32676 0.06883 0.0
C1662 C 0.99319 0.41823 0.01982 0.0
C1663 C -0.00032 0.43859 0.03351 0.0
C1664 C 0.98678 0.39643 0.03117 0.0
C1665 C 0.98663 0.3946 0.05654 0.0
C1666 C 0.98988 0.41603 0.07005 0.0
C1667 C 0.99667 0.43774 0.05863 0.0
H1668 H 0.95644 0.78012 0.30891 0.0
H1669 H 0.91745 0.74193 0.36509 0.0
H1670 H 0.91921 0.78438 0.2859 0.0
H1671 H 0.88033 0.74527 0.34166 0.0
H1672 H 0.81335 0.76818 0.30131 0.0
H1673 H 0.84959 0.7721 0.32608 0.0
H1674 H 0.89413 0.75813 0.26328 0.0
H1675 H 0.85835 0.7551 0.23857 0.0
C1676 C 0.9399 0.77253 0.31626 0.0
C1677 C 0.93982 0.76048 0.33863 0.0
C1678 C 0.91858 0.77493 0.30308 0.0
C1679 C 0.89681 0.76503 0.31186 0.0
C1680 C 0.89669 0.7534 0.33452 0.0
C1681 C 0.91799 0.75126 0.34783 0.0
C1682 C 0.83091 0.76637 0.29276 0.0
C1683 C 0.83291 0.76117 0.26798 0.0
C1684 C 0.85165 0.76842 0.30698 0.0
C1685 C 0.87476 0.7653 0.29669 0.0
C1686 C 0.87669 0.76099 0.27177 0.0
C1687 C 0.85606 0.75906 0.2576 0.0
H1688 H 0.50715 0.34295 0.86946 0.0
H1689 H 0.49214 0.31647 0.94155 0.0
H1690 H 0.49873 0.38461 0.8829 0.0
H1691 H 0.48376 0.35761 0.95476 0.0
H1692 H 0.45008 0.42476 0.97202 0.0
H1693 H 0.45146 0.38905 0.9462 0.0
H1694 H 0.51763 0.41511 0.91361 0.0
H1695 H 0.51585 0.45131 0.93916 0.0
C1696 C 0.50215 0.34604 0.88814 0.0
C1697 C 0.50026 0.3265 0.90449 0.0
C1698 C 0.49728 0.3698 0.89574 0.0
C1699 C 0.49009 0.37421 0.91968 0.0
C1700 C 0.48864 0.35466 0.93601 0.0
C1701 C 0.49372 0.33111 0.92853 0.0
C1702 C 0.46422 0.42343 0.95847 0.0
C1703 C 0.48299 0.44049 0.95767 0.0
C1704 C 0.46516 0.40292 0.94388 0.0
C1705 C 0.48506 0.39903 0.92854 0.0
C1706 C 0.50216 0.41765 0.92541 0.0
C1707 C 0.50107 0.43842 0.93991 0.0
H1708 H 0.94371 0.29402 0.17914 0.0
H1709 H 0.91481 0.23403 0.13862 0.0
H1710 H 0.90472 0.29959 0.19903 0.0
H1711 H 0.87627 0.23833 0.15956 0.0
H1712 H 0.8077 0.2463 0.19679 0.0
H1713 H 0.84002 0.25786 0.16871 0.0
H1714 H 0.88365 0.28056 0.22932 0.0
H1715 H 0.85092 0.27038 0.25658 0.0
C1716 C 0.92899 0.28192 0.17463 0.0
C1717 C 0.93236 0.26333 0.15767 0.0
C1718 C 0.90659 0.28507 0.18603 0.0
C1719 C 0.88718 0.26928 0.18124 0.0
C1720 C 0.89047 0.25119 0.16356 0.0
C1721 C 0.91272 0.24844 0.15174 0.0
C1722 C 0.82363 0.25526 0.20375 0.0
C1723 C 0.82682 0.2578 0.2287 0.0
C1724 C 0.84247 0.2613 0.18779 0.0
C1725 C 0.86491 0.26949 0.19668 0.0
C1726 C 0.86681 0.27446 0.22153 0.0
C1727 C 0.84795 0.2687 0.23731 0.0
H1728 H 0.98061 0.67232 0.39937 0.0
H1729 H 0.01397 0.71417 0.456 0.0
H1730 H 0.97965 0.63689 0.42583 0.0
H1731 H 0.01279 0.67868 0.48266 0.0
H1732 H 0.04488 0.5999 0.4961 0.0
H1733 H 0.03584 0.6406 0.48155 0.0
H1734 H 0.9635 0.61778 0.46314 0.0
H1735 H 0.97282 0.57674 0.47765 0.0
C1736 C 0.98745 0.67403 0.4176 0.0
C1737 C -0.00232 0.69592 0.4255 0.0
C1738 C 0.98663 0.6538 0.43288 0.0
C1739 C 0.99611 0.65497 0.4564 0.0
C1740 C 0.00547 0.67717 0.46461 0.0
C1741 C 0.00618 0.69747 0.44933 0.0
C1742 C 0.02673 0.60387 0.48988 0.0
C1743 C 0.00955 0.58525 0.48797 0.0
C1744 C 0.02151 0.62721 0.48153 0.0
C1745 C -0.00093 0.63233 0.47082 0.0
C1746 C 0.98107 0.61426 0.47102 0.0
C1747 C 0.98625 0.59088 0.47966 0.0
H1748 H 0.58685 0.77212 0.63345 0.0
H1749 H 0.55333 0.74492 0.69872 0.0
H1750 H 0.62503 0.77652 0.65471 0.0
H1751 H 0.5919 0.74932 0.72015 0.0
H1752 H 0.67697 0.73619 0.73483 0.0
H1753 H 0.63558 0.7319 0.71943 0.0
H1754 H 0.64007 0.80347 0.68772 0.0
H1755 H 0.68098 0.80778 0.70288 0.0
C1756 C 0.58764 0.76704 0.65236 0.0
C1757 C 0.56703 0.75829 0.66442 0.0
C1758 C 0.60951 0.76969 0.66459 0.0
C1759 C 0.61142 0.76351 0.68919 0.0
C1760 C 0.59097 0.75422 0.7012 0.0
C1761 C 0.5689 0.7518 0.68897 0.0
C1762 C 0.66885 0.75122 0.7251 0.0
C1763 C 0.68242 0.77219 0.7198 0.0
C1764 C 0.64519 0.74873 0.71623 0.0
C1765 C 0.6348 0.76715 0.7019 0.0
C1766 C 0.64778 0.78873 0.69819 0.0
C1767 C 0.67123 0.79123 0.70701 0.0
H1768 H 0.55954 0.51647 0.70293 0.0
H1769 H 0.62068 0.47993 0.67053 0.0
H1770 H 0.5372 0.51278 0.66482 0.0
H1771 H 0.59846 0.47616 0.63284 0.0
H1772 H 0.54591 0.44765 0.57957 0.0
H1773 H 0.56153 0.45241 0.62024 0.0
H1774 H 0.54007 0.52778 0.61976 0.0
H1775 H 0.52426 0.52304 0.57858 0.0
C1776 C 0.5682 0.50769 0.6877 0.0
C1777 C 0.59183 0.49837 0.68976 0.0
C1778 C 0.55544 0.50568 0.66591 0.0
C1779 C 0.56598 0.49396 0.64595 0.0
C1780 C 0.5897 0.48495 0.64802 0.0
C1781 C 0.6025 0.48722 0.66959 0.0
C1782 C 0.54406 0.46517 0.58823 0.0
C1783 C 0.53413 0.48505 0.57569 0.0
C1784 C 0.55315 0.4679 0.61151 0.0
C1785 C 0.55255 0.49058 0.62296 0.0
C1786 C 0.54085 0.51009 0.61131 0.0
C1787 C 0.53171 0.50735 0.5878 0.0
H1788 H 0.76285 0.3834 0.9138 0.0
H1789 H 0.75403 0.31049 0.94155 0.0
H1790 H 0.77139 0.36692 0.87345 0.0
H1791 H 0.76285 0.29425 0.9016 0.0
H1792 H 0.7499 0.31222 0.80514 0.0
H1793 H 0.74685 0.3382 0.84093 0.0
H1794 H 0.8033 0.29657 0.87535 0.0
H1795 H 0.80642 0.27076 0.83985 0.0
C1796 C 0.76259 0.36391 0.91124 0.0
C1797 C 0.75787 0.34817 0.93078 0.0
C1798 C 0.76749 0.35458 0.88823 0.0
C1799 C 0.76817 0.3294 0.88466 0.0
C1800 C 0.76284 0.31376 0.90407 0.0
C1801 C 0.75761 0.32304 0.92686 0.0
C1802 C 0.7624 0.30937 0.81991 0.0
C1803 C 0.7781 0.28925 0.81999 0.0
C1804 C 0.76055 0.32413 0.8404 0.0
C1805 C 0.77442 0.31885 0.86098 0.0
C1806 C 0.79212 0.30063 0.85981 0.0
C1807 C 0.79398 0.28598 0.83947 0.0
H1808 H 0.92901 0.55048 0.20035 0.0
H1809 H 0.9123 0.47626 0.1819 0.0
H1810 H 0.95085 0.55519 0.16218 0.0
H1811 H 0.93383 0.48105 0.14364 0.0
H1812 H 0.98613 0.49209 0.08182 0.0
H1813 H 0.97383 0.48793 0.12419 0.0
H1814 H 0.93751 0.55732 0.12014 0.0
H1815 H 0.94992 0.56157 0.07826 0.0
C1816 C 0.93012 0.53515 0.1882 0.0
C1817 C 0.91874 0.51309 0.19396 0.0
C1818 C 0.94261 0.53784 0.16636 0.0
C1819 C 0.94402 0.51851 0.14988 0.0
C1820 C 0.93333 0.49619 0.15607 0.0
C1821 C 0.92078 0.49353 0.17787 0.0
C1822 C 0.97596 0.50663 0.09017 0.0
C1823 C 0.96877 0.52699 0.07662 0.0
C1824 C 0.96877 0.50419 0.11435 0.0
C1825 C 0.95454 0.52222 0.12544 0.0
C1826 C 0.94862 0.5432 0.11223 0.0
C1827 C 0.95561 0.54553 0.08813 0.0
H1828 H 0.76763 0.62823 0.40984 0.0
H1829 H 0.76578 0.6983 0.44454 0.0
H1830 H 0.77101 0.64806 0.37042 0.0
H1831 H 0.76864 0.71813 0.40524 0.0
H1832 H 0.78225 0.75229 0.33598 0.0
H1833 H 0.79346 0.72641 0.37013 0.0
H1834 H 0.74419 0.67133 0.3448 0.0
H1835 H 0.7336 0.69711 0.31057 0.0
C1836 C 0.76801 0.64788 0.40905 0.0
C1837 C 0.76622 0.66172 0.43028 0.0
C1838 C 0.76997 0.65923 0.38645 0.0
C1839 C 0.77023 0.6847 0.38458 0.0
C1840 C 0.76901 0.69848 0.40595 0.0
C1841 C 0.76705 0.68713 0.42851 0.0
C1842 C 0.77498 0.73406 0.33702 0.0
C1843 C 0.75739 0.72646 0.32053 0.0
C1844 C 0.78099 0.71942 0.35683 0.0
C1845 C 0.76924 0.69705 0.36059 0.0
C1846 C 0.75365 0.68839 0.34252 0.0
C1847 C 0.74771 0.70305 0.32273 0.0
H1848 H 0.62308 0.51999 0.84083 0.0
H1849 H 0.56667 0.47504 0.81125 0.0
H1850 H 0.60346 0.51861 0.88014 0.0
H1851 H 0.54735 0.47276 0.85097 0.0
H1852 H 0.50441 0.51106 0.91359 0.0
H1853 H 0.52477 0.49831 0.87669 0.0
H1854 H 0.59285 0.49632 0.91488 0.0
H1855 H 0.57232 0.51051 0.95133 0.0
C1856 C 0.60661 0.50953 0.84283 0.0
C1857 C 0.59628 0.49787 0.82289 0.0
C1858 C 0.59546 0.50844 0.86551 0.0
C1859 C 0.57379 0.49543 0.86894 0.0
C1860 C 0.56384 0.48317 0.84904 0.0
C1861 C 0.57491 0.48446 0.82625 0.0
C1862 C 0.52352 0.50671 0.9143 0.0
C1863 C 0.53677 0.51124 0.93534 0.0
C1864 C 0.5353 0.49952 0.89309 0.0
C1865 C 0.56064 0.49679 0.89255 0.0
C1866 C 0.57342 0.49882 0.91443 0.0
C1867 C 0.56162 0.50631 0.93554 0.0
H1868 H 0.71774 0.33789 0.07294 0.0
H1869 H 0.78663 0.30784 0.05123 0.0
H1870 H 0.71785 0.31224 0.10885 0.0
H1871 H 0.78689 0.2822 0.08767 0.0
H1872 H 0.78476 0.27954 0.17633 0.0
H1873 H 0.78887 0.29228 0.13406 0.0
H1874 H 0.71632 0.26731 0.12003 0.0
H1875 H 0.71235 0.25454 0.1621 0.0
C1876 C 0.73281 0.32562 0.07576 0.0
C1877 C 0.75215 0.32485 0.05931 0.0
C1878 C 0.73281 0.31079 0.09623 0.0
C1879 C 0.7523 0.29506 0.10093 0.0
C1880 C 0.77163 0.2941 0.08441 0.0
C1881 C 0.77143 0.3087 0.0636 0.0
C1882 C 0.77028 0.27552 0.16387 0.0
C1883 C 0.7483 0.26596 0.17237 0.0
C1884 C 0.77251 0.28303 0.13973 0.0
C1885 C 0.75272 0.28118 0.12394 0.0
C1886 C 0.73172 0.26926 0.13192 0.0
C1887 C 0.72952 0.26177 0.15591 0.0
H1888 H 0.952 0.51946 0.30492 0.0
H1889 H 0.89651 0.47505 0.33785 0.0
H1890 H 0.97641 0.51565 0.34127 0.0
H1891 H 0.92127 0.47045 0.37392 0.0
H1892 H 0.95794 0.49816 0.44372 0.0
H1893 H 0.93412 0.49507 0.40701 0.0
H1894 H -0.00021 0.48785 0.36495 0.0
H1895 H 0.02363 0.49181 0.4016 0.0
C1896 C 0.94518 0.50866 0.31985 0.0
C1897 C 0.92235 0.49771 0.31871 0.0
C1898 C 0.95923 0.50627 0.34059 0.0
C1899 C 0.95079 0.49268 0.36048 0.0
C1900 C 0.92813 0.4813 0.35905 0.0
C1901 C 0.914 0.48387 0.33838 0.0
C1902 C 0.96726 0.49548 0.42669 0.0
C1903 C 0.99263 0.49554 0.42547 0.0
C1904 C 0.95361 0.49364 0.40564 0.0
C1905 C 0.96509 0.49155 0.38302 0.0
C1906 C 0.99044 0.49005 0.38204 0.0
C1907 C 0.00408 0.49216 0.40304 0.0
H1908 H 0.76573 0.69487 0.55374 0.0
H1909 H 0.76215 0.62372 0.58657 0.0
H1910 H 0.76947 0.71313 0.59352 0.0
H1911 H 0.76607 0.64212 0.62668 0.0
H1912 H 0.79953 0.7395 0.66204 0.0
H1913 H 0.79982 0.71493 0.62561 0.0
H1914 H 0.74356 0.66959 0.65573 0.0
H1915 H 0.74359 0.69423 0.69267 0.0
C1916 C 0.76576 0.6831 0.56947 0.0
C1917 C 0.76373 0.65784 0.56696 0.0
C1918 C 0.76809 0.69355 0.59231 0.0
C1919 C 0.76841 0.67906 0.61332 0.0
C1920 C 0.7659 0.65379 0.61089 0.0
C1921 C 0.76373 0.64327 0.58792 0.0
C1922 C 0.7877 0.72385 0.66119 0.0
C1923 C 0.77146 0.71885 0.68015 0.0
C1924 C 0.78767 0.70993 0.6402 0.0
C1925 C 0.77124 0.69071 0.63746 0.0
C1926 C 0.75638 0.68434 0.65724 0.0
C1927 C 0.7565 0.69832 0.67847 0.0
H1928 H 0.7062 0.5579 0.49626 0.0
H1929 H 0.67195 0.62819 0.49072 0.0
H1930 H 0.66703 0.53832 0.49242 0.0
H1931 H 0.63247 0.60847 0.48646 0.0
H1932 H 0.56534 0.55918 0.50901 0.0
H1933 H 0.60235 0.58374 0.50901 0.0
H1934 H 0.63677 0.53159 0.46192 0.0
H1935 H 0.60026 0.50706 0.46241 0.0
C1936 C 0.69028 0.56919 0.49415 0.0
C1937 C 0.69223 0.5946 0.49372 0.0
C1938 C 0.66779 0.55796 0.49174 0.0
C1939 C 0.64655 0.5718 0.48879 0.0
C1940 C 0.64842 0.59727 0.48875 0.0
C1941 C 0.67104 0.60855 0.49111 0.0
C1942 C 0.58061 0.5534 0.49813 0.0
C1943 C 0.57998 0.5311 0.48587 0.0
C1944 C 0.60187 0.56739 0.49821 0.0
C1945 C 0.62277 0.55932 0.48595 0.0
C1946 C 0.6213 0.538 0.47216 0.0
C1947 C 0.60027 0.52404 0.47223 0.0
H1948 H 0.19923 0.92335 0.54783 0.0
H1949 H 0.18857 0.92284 0.47058 0.0
H1950 H 0.16064 0.94439 0.55304 0.0
H1951 H 0.14985 0.94344 0.47578 0.0
H1952 H 0.0861 0.99239 0.49068 0.0
H1953 H 0.12877 0.9807 0.48819 0.0
H1954 H 0.11882 0.93187 0.54866 0.0
H1955 H 0.07661 0.94373 0.5514 0.0
C1956 C 0.18874 0.92791 0.53196 0.0
C1957 C 0.19681 0.92125 0.50882 0.0
C1958 C 0.1666 0.93989 0.53494 0.0
C1959 C 0.15208 0.94548 0.51484 0.0
C1960 C 0.16068 0.93967 0.49162 0.0
C1961 C 0.18279 0.92767 0.48866 0.0
C1962 C 0.09319 0.97956 0.50375 0.0
C1963 C 0.0779 0.96885 0.52112 0.0
C1964 C 0.11757 0.97272 0.5022 0.0
C1965 C 0.12717 0.95523 0.51813 0.0
C1966 C 0.11213 0.94555 0.53626 0.0
C1967 C 0.08783 0.95224 0.53771 0.0
H1968 H 0.36497 0.91869 0.73384 0.0
H1969 H 0.31885 0.95182 0.78767 0.0
H1970 H 0.34128 0.8815 0.7364 0.0
H1971 H 0.29528 0.91442 0.79044 0.0
H1972 H 0.24178 0.8581 0.75786 0.0
H1973 H 0.26737 0.89353 0.76273 0.0
H1974 H 0.33065 0.84743 0.76403 0.0
H1975 H 0.30501 0.81178 0.75884 0.0
C1976 C 0.34986 0.91795 0.74634 0.0
C1977 C 0.34358 0.93817 0.7604 0.0
C1978 C 0.33646 0.89658 0.74798 0.0
C1979 C 0.31648 0.89508 0.76366 0.0
C1980 C 0.31049 0.91517 0.77807 0.0
C1981 C 0.32396 0.93653 0.77649 0.0
C1982 C 0.26112 0.85543 0.75946 0.0
C1983 C 0.2714 0.83214 0.75767 0.0
C1984 C 0.27576 0.87575 0.76244 0.0
C1985 C 0.30099 0.87323 0.7636 0.0
C1986 C 0.31125 0.84987 0.7629 0.0
C1987 C 0.29656 0.82948 0.76007 0.0
H1988 H 0.34383 0.11438 0.02167 0.0
H1989 H 0.3156 0.07167 0.96305 0.0
H1990 H 0.38244 0.09329 0.01838 0.0
H1991 H 0.35465 0.05168 0.95842 0.0
H1992 H 0.40754 0.99466 0.98986 0.0
H1993 H 0.37502 0.02182 0.97885 0.0
H1994 H 0.41891 0.08331 -0.00045 0.0
H1995 H 0.45103 0.05534 0.01199 0.0
C1996 C 0.3461 0.10074 0.00778 0.0
C1997 C 0.32663 0.0942 0.99302 0.0
C1998 C 0.36837 0.08885 0.0056 0.0
C1999 C 0.37181 0.0705 0.98822 0.0
C2000 C 0.35261 0.06518 0.97245 0.0
C2001 C 0.33019 0.07663 0.97507 0.0
C2002 C 0.41059 0.01406 0.99099 0.0
C2003 C 0.43176 0.023 0.00151 0.0
C2004 C 0.39187 0.02979 0.9847 0.0
C2005 C 0.39395 0.05491 0.98877 0.0
C2006 C 0.41637 0.06404 0.99675 0.0
C2007 C 0.43506 0.04813 0.00332 0.0
H2008 H 0.69966 0.55722 0.74891 0.0
H2009 H 0.62871 0.58864 0.74004 0.0
H2010 H 0.71762 0.59759 0.74678 0.0
H2011 H 0.6466 0.62893 0.73681 0.0
H2012 H 0.68416 0.69449 0.77402 0.0
H2013 H 0.66369 0.65733 0.76269 0.0
H2014 H 0.72821 0.63326 0.72537 0.0
H2015 H 0.74883 0.6705 0.7377 0.0
C2016 C 0.68793 0.57274 0.74608 0.0
C2017 C 0.66273 0.56971 0.74498 0.0
C2018 C 0.69824 0.59597 0.7446 0.0
C2019 C 0.68365 0.61681 0.7417 0.0
C2020 C 0.65848 0.61353 0.73951 0.0
C2021 C 0.64818 0.59035 0.74129 0.0
C2022 C 0.69352 0.68182 0.7623 0.0
C2023 C 0.71793 0.68556 0.75642 0.0
C2024 C 0.68185 0.66027 0.75592 0.0
C2025 C 0.69436 0.6418 0.74349 0.0
C2026 C 0.71811 0.64672 0.73545 0.0
C2027 C 0.72981 0.66835 0.74197 0.0
H2028 H 0.84172 0.37728 0.00237 0.0
H2029 H 0.80461 0.44637 0.00261 0.0
H2030 H 0.88016 0.39803 0.99535 0.0
H2031 H 0.84294 0.4671 0.9962 0.0
H2032 H 0.94488 0.45122 0.01212 0.0
H2033 H 0.90914 0.42528 0.01473 0.0
H2034 H 0.87219 0.47204 0.96395 0.0
H2035 H 0.90754 0.49824 0.96195 0.0
C2036 C 0.84184 0.39692 0.00122 0.0
C2037 C 0.82019 0.41025 0.00296 0.0
C2038 C 0.86383 0.40877 -0.00281 0.0
C2039 C 0.86454 0.43415 0.99481 0.0
C2040 C 0.84293 0.44746 -0.0027 0.0
C2041 C 0.82099 0.43563 0.00126 0.0
C2042 C 0.92936 0.45549 0.00099 0.0
C2043 C 0.92877 0.47689 0.98711 0.0
C2044 C 0.90885 0.4407 0.00255 0.0
C2045 C 0.88761 0.44704 0.99008 0.0
C2046 C 0.888 0.46714 0.97439 0.0
C2047 C 0.90832 0.482 0.97303 0.0
H2048 H 0.37887 0.08819 0.74321 0.0
H2049 H 0.31052 0.05099 0.75092 0.0
H2050 H 0.35757 0.12664 0.73841 0.0
H2051 H 0.2891 0.0899 0.74637 0.0
H2052 H 0.27246 0.17507 0.76659 0.0
H2053 H 0.28743 0.13318 0.77044 0.0
H2054 H 0.32833 0.14195 0.70445 0.0
H2055 H 0.31345 0.18321 0.70036 0.0
C2056 C 0.35928 0.08824 0.74393 0.0
C2057 C 0.34634 0.06659 0.74727 0.0
C2058 C 0.3471 0.11023 0.74113 0.0
C2059 C 0.32172 0.11113 0.74189 0.0
C2060 C 0.30868 0.08961 0.74576 0.0
C2061 C 0.32092 0.06743 0.74822 0.0
C2062 C 0.28417 0.16782 0.75264 0.0
C2063 C 0.29209 0.18262 0.7334 0.0
C2064 C 0.29273 0.14391 0.75486 0.0
C2065 C 0.30934 0.13462 0.73794 0.0
C2066 C 0.31587 0.14886 0.71794 0.0
C2067 C 0.3073 0.17251 0.71564 0.0
H2068 H 0.19646 0.94248 0.2525 0.0
H2069 H 0.12534 0.91269 0.2649 0.0
H2070 H 0.21372 0.90168 0.25398 0.0
H2071 H 0.14256 0.87205 0.26749 0.0
H2072 H 0.1774 0.80573 0.22879 0.0
H2073 H 0.15816 0.84343 0.24068 0.0
H2074 H 0.22418 0.86584 0.27573 0.0
H2075 H 0.24357 0.82796 0.26288 0.0
C2076 C 0.18456 0.92722 0.25584 0.0
C2077 C 0.15949 0.93079 0.25816 0.0
C2078 C 0.19447 0.90378 0.25701 0.0
C2079 C 0.17959 0.88333 0.26081 0.0
C2080 C 0.15461 0.88716 0.26409 0.0
C2081 C 0.14469 0.91053 0.26262 0.0
C2082 C 0.18738 0.81817 0.24013 0.0
C2083 C 0.21183 0.8138 0.24521 0.0
C2084 C 0.17641 0.84001 0.24684 0.0
C2085 C 0.18969 0.85813 0.25878 0.0
C2086 C 0.21352 0.85261 0.26606 0.0
C2087 C 0.22451 0.83065 0.25924 0.0
H2088 H 0.49184 0.33997 0.37532 0.0
H2089 H 0.49972 0.30684 0.44561 0.0
H2090 H 0.48823 0.37982 0.39407 0.0
H2091 H 0.49708 0.34669 0.46442 0.0
H2092 H 0.48684 0.41784 0.49751 0.0
H2093 H 0.47474 0.38162 0.47523 0.0
H2094 H 0.51373 0.40807 0.41263 0.0
H2095 H 0.5248 0.44438 0.43477 0.0
C2096 C 0.49275 0.3412 0.39482 0.0
C2097 C 0.49629 0.32023 0.40896 0.0
C2098 C 0.49074 0.36411 0.40561 0.0
C2099 C 0.49244 0.36675 0.43085 0.0
C2100 C 0.49523 0.34556 0.44499 0.0
C2101 C 0.49701 0.32262 0.43419 0.0
C2102 C 0.49148 0.41651 0.47853 0.0
C2103 C 0.50635 0.43412 0.46771 0.0
C2104 C 0.48511 0.39544 0.46588 0.0
C2105 C 0.4938 0.3914 0.44224 0.0
C2106 C 0.50654 0.41034 0.4307 0.0
C2107 C 0.51274 0.43142 0.44332 0.0
H2108 H 0.41801 0.76535 0.12609 0.0
H2109 H 0.45091 0.75475 0.196 0.0
H2110 H 0.37862 0.76998 0.14535 0.0
H2111 H 0.41136 0.75971 0.21541 0.0
H2112 H 0.33024 0.74083 0.23411 0.0
H2113 H 0.37174 0.73855 0.21877 0.0
H2114 H 0.35747 0.7991 0.17108 0.0
H2115 H 0.31616 0.80121 0.18602 0.0
C2116 C 0.41683 0.76411 0.1456 0.0
C2117 C 0.43754 0.75974 0.15954 0.0
C2118 C 0.39428 0.76692 0.15667 0.0
C2119 C 0.3919 0.76541 0.18194 0.0
C2120 C 0.4126 0.76085 0.1959 0.0
C2121 C 0.43524 0.75812 0.1848 0.0
C2122 C 0.33611 0.75393 0.22068 0.0
C2123 C 0.31979 0.77102 0.21109 0.0
C2124 C 0.35988 0.75262 0.21189 0.0
C2125 C 0.36773 0.76838 0.1934 0.0
C2126 C 0.35179 0.78632 0.18489 0.0
C2127 C 0.32813 0.7876 0.19358 0.0
H2128 H 0.03345 0.67159 0.88516 0.0
H2129 H 0.00367 0.70398 0.94967 0.0
H2130 H 0.03536 0.63231 0.90547 0.0
H2131 H 0.00499 0.66452 0.9699 0.0
H2132 H 0.01331 0.59435 0.00611 0.0
H2133 H 0.02832 0.63121 0.98643 0.0
H2134 H 0.0054 0.60317 0.9174 0.0
H2135 H 0.99096 0.56638 0.93721 0.0
C2136 C 0.02747 0.67036 0.90379 0.0
C2137 C 0.01814 0.69085 0.91574 0.0
C2138 C 0.02854 0.6478 0.91541 0.0
C2139 C 0.02022 0.6451 0.93929 0.0
C2140 C 0.0119 0.6659 0.95161 0.0
C2141 C 0.01093 0.68853 0.93998 0.0
C2142 C 0.01283 0.59557 0.98657 0.0
C2143 C 0.00145 0.57738 0.97307 0.0
C2144 C 0.02095 0.61688 0.97533 0.0
C2145 C 0.01757 0.62047 0.95038 0.0
C2146 C 0.00846 0.60109 0.93661 0.0
C2147 C 0.00038 0.5798 0.94789 0.0
H2148 H 0.06345 0.25768 0.69226 0.0
H2149 H 0.09501 0.24728 0.62149 0.0
H2150 H 0.10266 0.2499 0.71068 0.0
H2151 H 0.13451 0.23964 0.64011 0.0
H2152 H 0.20169 0.261 0.69286 0.0
H2153 H 0.16584 0.26356 0.66709 0.0
H2154 H 0.12942 0.21161 0.71303 0.0
H2155 H 0.16514 0.20891 0.73854 0.0
C2156 C 0.07881 0.25395 0.68064 0.0
C2157 C 0.07618 0.25299 0.65548 0.0
C2158 C 0.10119 0.24928 0.69118 0.0
C2159 C 0.12144 0.24377 0.67678 0.0
C2160 C 0.1191 0.24371 0.65155 0.0
C2161 C 0.09656 0.2481 0.64097 0.0
C2162 C 0.18644 0.24933 0.69675 0.0
C2163 C 0.18608 0.23489 0.71773 0.0
C2164 C 0.16587 0.25096 0.68216 0.0
C2165 C 0.14477 0.23821 0.6885 0.0
C2166 C 0.14533 0.22199 0.70809 0.0
C2167 C 0.1658 0.22034 0.72257 0.0
H2168 H 0.52411 0.69152 0.06616 0.0
H2169 H 0.49789 0.66307 0.13423 0.0
H2170 H 0.53263 0.65061 0.05246 0.0
H2171 H 0.50661 0.62167 0.12038 0.0
H2172 H 0.49252 0.55807 0.06194 0.0
H2173 H 0.49068 0.59363 0.08804 0.0
H2174 H 0.56054 0.61659 0.06136 0.0
H2175 H 0.5621 0.58125 0.03498 0.0
C2176 C 0.52018 0.67649 0.07822 0.0
C2177 C 0.51028 0.68048 0.10123 0.0
C2178 C 0.52538 0.65304 0.0705 0.0
C2179 C 0.52075 0.63296 0.08556 0.0
C2180 C 0.51051 0.63684 0.1085 0.0
C2181 C 0.50545 0.66047 0.11634 0.0
C2182 C 0.50805 0.57 0.06266 0.0
C2183 C 0.52739 0.56709 0.0464 0.0
C2184 C 0.50691 0.5905 0.07747 0.0
C2185 C 0.52516 0.60819 0.07616 0.0
C2186 C 0.54595 0.60351 0.06225 0.0
C2187 C 0.54698 0.58319 0.04735 0.0
H2188 H 0.09278 0.77703 0.86087 0.0
H2189 H 0.06174 0.72046 0.81723 0.0
H2190 H 0.13111 0.77261 0.83947 0.0
H2191 H 0.10043 0.71458 0.79695 0.0
H2192 H 0.15558 0.74319 0.7409 0.0
H2193 H 0.12222 0.73396 0.76768 0.0
H2194 H 0.16662 0.75247 0.82917 0.0
H2195 H 0.19962 0.76325 0.80156 0.0
C2196 C 0.09435 0.76337 0.84692 0.0
C2197 C 0.07421 0.7495 0.84027 0.0
C2198 C 0.11645 0.76052 0.83483 0.0
C2199 C 0.11907 0.7433 0.8162 0.0
C2200 C 0.0991 0.72849 0.81065 0.0
C2201 C 0.07687 0.73182 0.82228 0.0
C2202 C 0.15851 0.74419 0.76022 0.0
C2203 C 0.18016 0.7536 0.76925 0.0
C2204 C 0.1393 0.73894 0.77574 0.0
C2205 C 0.14133 0.74294 0.80076 0.0
C2206 C 0.16409 0.74979 0.80998 0.0
C2207 C 0.18328 0.75534 0.79428 0.0
H2208 H 0.02913 0.33727 0.60755 0.0
H2209 H 0.00289 0.29538 0.54731 0.0
H2210 H 0.03067 0.37334 0.58213 0.0
H2211 H 0.00453 0.3317 0.52164 0.0
H2212 H 0.04094 0.43448 0.53303 0.0
H2213 H 0.04985 0.39334 0.54704 0.0
H2214 H 0.98012 0.36958 0.5214 0.0
H2215 H 0.97165 0.41056 0.50688 0.0
C2216 C 0.02398 0.33571 0.58876 0.0
C2217 C 0.01566 0.31356 0.57949 0.0
C2218 C 0.02512 0.35634 0.57408 0.0
C2219 C 0.01781 0.35539 0.5498 0.0
C2220 C 0.01022 0.33302 0.54029 0.0
C2221 C 0.00929 0.31225 0.55497 0.0
C2222 C 0.02819 0.42016 0.52911 0.0
C2223 C 0.00581 0.42557 0.51852 0.0
C2224 C 0.03305 0.39668 0.53758 0.0
C2225 C 0.01555 0.37827 0.53564 0.0
C2226 C 0.99407 0.38326 0.52304 0.0
C2227 C 0.98919 0.40673 0.51471 0.0
H2228 H 0.42596 0.22438 0.36539 0.0
H2229 H 0.45097 0.27157 0.30813 0.0
H2230 H 0.38647 0.22224 0.34669 0.0
H2231 H 0.41064 0.27029 0.28964 0.0
H2232 H 0.33715 0.24281 0.25511 0.0
H2233 H 0.37931 0.24568 0.26927 0.0
H2234 H 0.35348 0.24917 0.34297 0.0
H2235 H 0.31231 0.24536 0.32907 0.0
C2236 C 0.42295 0.23444 0.34881 0.0
C2237 C 0.44148 0.24839 0.33842 0.0
C2238 C 0.40021 0.23334 0.33811 0.0
C2239 C 0.3951 0.24655 0.3169 0.0
C2240 C 0.41391 0.25989 0.30595 0.0
C2241 C 0.43696 0.26073 0.31658 0.0
C2242 C 0.34069 0.24428 0.27428 0.0
C2243 C 0.32153 0.24323 0.29102 0.0
C2244 C 0.36475 0.24599 0.28241 0.0
C2245 C 0.36987 0.24696 0.30735 0.0
C2246 C 0.35042 0.24748 0.32374 0.0
C2247 C 0.32672 0.24542 0.31573 0.0
H2248 H 0.39381 0.52918 0.3312 0.0
H2249 H 0.45146 0.48567 0.30105 0.0
H2250 H 0.41627 0.53309 0.36864 0.0
H2251 H 0.47417 0.48964 0.33894 0.0
H2252 H 0.48583 0.48156 0.42526 0.0
H2253 H 0.47058 0.47708 0.38387 0.0
H2254 H 0.45401 0.55368 0.38165 0.0
H2255 H 0.46889 0.55809 0.42266 0.0
C2256 C 0.41134 0.52046 0.33255 0.0
C2257 C 0.42089 0.50721 0.31311 0.0
C2258 C 0.4243 0.52283 0.35399 0.0
C2259 C 0.44715 0.5119 0.35667 0.0
C2260 C 0.45663 0.49826 0.33739 0.0
C2261 C 0.44368 0.49608 0.31572 0.0
C2262 C 0.47959 0.49752 0.41562 0.0
C2263 C 0.47824 0.52012 0.42733 0.0
C2264 C 0.47078 0.49495 0.39197 0.0
C2265 C 0.46057 0.51494 0.37974 0.0
C2266 C 0.4612 0.53783 0.39081 0.0
C2267 C 0.46987 0.54037 0.41427 0.0
H2268 H 0.22632 0.62484 0.08154 0.0
H2269 H 0.27886 0.68143 0.06861 0.0
H2270 H 0.22159 0.63856 0.12336 0.0
H2271 H 0.27465 0.69453 0.11073 0.0
H2272 H 0.2735 0.69544 0.19429 0.0
H2273 H 0.27867 0.66996 0.1584 0.0
H2274 H 0.20665 0.68879 0.13514 0.0
H2275 H 0.20178 0.71494 0.17053 0.0
C2276 C 0.23721 0.63987 0.08779 0.0
C2277 C 0.2529 0.65219 0.07187 0.0
C2278 C 0.2345 0.64762 0.11165 0.0
C2279 C 0.24795 0.66734 0.12012 0.0
C2280 C 0.26436 0.67904 0.10455 0.0
C2281 C 0.26664 0.67169 0.0805 0.0
C2282 C 0.25839 0.69321 0.18209 0.0
C2283 C 0.23716 0.70691 0.18516 0.0
C2284 C 0.26146 0.67889 0.1615 0.0
C2285 C 0.24307 0.67763 0.14416 0.0
C2286 C 0.22098 0.68944 0.14844 0.0
C2287 C 0.21814 0.70425 0.16866 0.0
H2288 H 0.06861 0.46454 0.80882 0.0
H2289 H 0.09012 0.53758 0.82694 0.0
H2290 H 0.04581 0.46174 0.8466 0.0
H2291 H 0.06765 0.53467 0.86484 0.0
H2292 H 0.01616 0.52686 0.92771 0.0
H2293 H 0.02757 0.53021 0.88498 0.0
H2294 H 0.06002 0.45886 0.88839 0.0
H2295 H 0.04852 0.45545 0.9306 0.0
C2296 C 0.06824 0.48008 0.82075 0.0
C2297 C 0.08139 0.50115 0.81511 0.0
C2298 C 0.05522 0.47847 0.84237 0.0
C2299 C 0.05507 0.49793 0.85875 0.0
C2300 C 0.0672 0.51946 0.85249 0.0
C2301 C 0.08026 0.52105 0.83089 0.0
C2302 C 0.02524 0.51172 0.91911 0.0
C2303 C 0.03166 0.491 0.93253 0.0
C2304 C 0.03191 0.5137 0.89474 0.0
C2305 C 0.04479 0.49484 0.88337 0.0
C2306 C 0.0499 0.47361 0.89651 0.0
C2307 C 0.04348 0.47174 0.92079 0.0
H2308 H 0.2553 0.30568 0.55919 0.0
H2309 H 0.22646 0.37209 0.58895 0.0
H2310 H 0.25276 0.28659 0.59895 0.0
H2311 H 0.22316 0.35286 0.62854 0.0
H2312 H 0.26696 0.32238 0.69499 0.0
H2313 H 0.25226 0.34139 0.65816 0.0
H2314 H 0.22894 0.27135 0.63213 0.0
H2315 H 0.24443 0.25243 0.66899 0.0
C2316 C 0.24802 0.31604 0.57415 0.0
C2317 C 0.24148 0.34046 0.57105 0.0
C2318 C 0.24628 0.30505 0.59693 0.0
C2319 C 0.23778 0.31821 0.61706 0.0
C2320 C 0.23009 0.34229 0.61357 0.0
C2321 C 0.232 0.35331 0.59086 0.0
C2322 C 0.25741 0.31132 0.68199 0.0
C2323 C 0.25647 0.28607 0.68487 0.0
C2324 C 0.24913 0.32215 0.66071 0.0
C2325 C 0.23992 0.30781 0.64185 0.0
C2326 C 0.23644 0.28284 0.64604 0.0
C2327 C 0.24484 0.27204 0.66734 0.0
H2328 H 0.37682 0.51388 0.16219 0.0
H2329 H 0.4481 0.50204 0.19156 0.0
H2330 H 0.39414 0.51756 0.12175 0.0
H2331 H 0.4654 0.50472 0.15111 0.0
H2332 H 0.49573 0.51473 0.07894 0.0
H2333 H 0.47531 0.52791 0.11599 0.0
H2334 H 0.41062 0.49038 0.0934 0.0
H2335 H 0.43088 0.47822 0.05639 0.0
C2336 C 0.39621 0.51202 0.15998 0.0
C2337 C 0.41107 0.50733 0.18001 0.0
C2338 C 0.40616 0.51415 0.13679 0.0
C2339 C 0.43121 0.51138 0.133 0.0
C2340 C 0.44611 0.50741 0.15324 0.0
C2341 C 0.43617 0.50553 0.17646 0.0
C2342 C 0.47671 0.51066 0.08136 0.0
C2343 C 0.46468 0.49587 0.06474 0.0
C2344 C 0.46513 0.51768 0.10281 0.0
C2345 C 0.44145 0.50973 0.10805 0.0
C2346 C 0.42875 0.49703 0.0901 0.0
C2347 C 0.4403 0.49013 0.06873 0.0
H2348 H 0.25922 0.71107 0.95703 0.0
H2349 H 0.229 0.65162 0.91651 0.0
H2350 H 0.25869 0.73646 0.92058 0.0
H2351 H 0.22847 0.67683 0.8803 0.0
H2352 H 0.29122 0.74853 0.84133 0.0
H2353 H 0.28275 0.73445 0.88232 0.0
H2354 H 0.21087 0.71342 0.86051 0.0
H2355 H 0.21965 0.72719 0.81936 0.0
C2356 C 0.25217 0.70355 0.94044 0.0
C2357 C 0.24436 0.67929 0.93955 0.0
C2358 C 0.25188 0.71807 0.91959 0.0
C2359 C 0.24346 0.7087 0.89756 0.0
C2360 C 0.23471 0.68475 0.89703 0.0
C2361 C 0.23525 0.6702 0.91774 0.0
C2362 C 0.27329 0.74182 0.84559 0.0
C2363 C 0.25597 0.73923 0.82728 0.0
C2364 C 0.26841 0.73374 0.86907 0.0
C2365 C 0.24623 0.72256 0.8746 0.0
C2366 C 0.2282 0.72179 0.85673 0.0
C2367 C 0.23303 0.73009 0.83326 0.0
H2368 H 0.11853 0.52574 0.67169 0.0
H2369 H 0.05851 0.4868 0.70346 0.0
H2370 H 0.09577 0.53087 0.63439 0.0
H2371 H 0.03607 0.49102 0.66592 0.0
H2372 H 0.99231 0.51882 0.60466 0.0
H2373 H 0.01569 0.52032 0.64178 0.0
H2374 H 0.08135 0.50819 0.60083 0.0
H2375 H 0.05802 0.50767 0.56361 0.0
C2376 C 0.10054 0.51808 0.67058 0.0
C2377 C 0.09024 0.50586 0.6904 0.0
C2378 C 0.08753 0.52097 0.64921 0.0
C2379 C 0.06405 0.51149 0.64719 0.0
C2380 C 0.0539 0.49904 0.66703 0.0
C2381 C 0.06682 0.49639 0.68847 0.0
C2382 C 0.0118 0.5169 0.60358 0.0
C2383 C 0.02335 0.51296 0.58131 0.0
C2384 C 0.02517 0.51754 0.62486 0.0
C2385 C 0.05033 0.51389 0.62434 0.0
C2386 C 0.06202 0.51122 0.60188 0.0
C2387 C 0.04866 0.51092 0.58054 0.0
H2388 H 0.24002 0.30973 0.44948 0.0
H2389 H 0.24746 0.38054 0.41658 0.0
H2390 H 0.23367 0.2919 0.40987 0.0
H2391 H 0.24076 0.36265 0.37669 0.0
H2392 H 0.20185 0.26679 0.34186 0.0
H2393 H 0.20327 0.29114 0.37842 0.0
H2394 H 0.26005 0.33496 0.34701 0.0
H2395 H 0.25821 0.31075 0.31001 0.0
C2396 C 0.24026 0.32151 0.43377 0.0
C2397 C 0.24422 0.34655 0.43621 0.0
C2398 C 0.23638 0.31133 0.41103 0.0
C2399 C 0.23635 0.32589 0.39005 0.0
C2400 C 0.24068 0.35092 0.39243 0.0
C2401 C 0.24448 0.36116 0.41529 0.0
C2402 C 0.21413 0.28209 0.34246 0.0
C2403 C 0.23004 0.28673 0.32313 0.0
C2404 C 0.21516 0.29587 0.36354 0.0
C2405 C 0.23228 0.31454 0.36596 0.0
C2406 C 0.24671 0.32064 0.3458 0.0
C2407 C 0.24556 0.30687 0.32452 0.0
H2408 H 0.30537 0.44582 0.50116 0.0
H2409 H 0.33901 0.3765 0.51562 0.0
H2410 H 0.34436 0.46578 0.50512 0.0
H2411 H 0.37832 0.39665 0.51982 0.0
H2412 H 0.44647 0.44488 0.49603 0.0
H2413 H 0.40963 0.41999 0.49583 0.0
H2414 H 0.37263 0.47474 0.53772 0.0
H2415 H 0.40899 0.49947 0.53763 0.0
C2416 C 0.32111 0.43482 0.5052 0.0
C2417 C 0.31904 0.40959 0.50817 0.0
C2418 C 0.34348 0.44629 0.50765 0.0
C2419 C 0.36446 0.43286 0.51312 0.0
C2420 C 0.36254 0.40751 0.51559 0.0
C2421 C 0.34002 0.396 0.51325 0.0
C2422 C 0.43065 0.45119 0.50576 0.0
C2423 C 0.43056 0.47423 0.51665 0.0
C2424 C 0.40951 0.43702 0.50555 0.0
C2425 C 0.388 0.44567 0.51626 0.0
C2426 C 0.38865 0.46783 0.52872 0.0
C2427 C 0.40958 0.48193 0.52884 0.0
H2428 H 0.83627 0.10602 0.52962 0.0
H2429 H 0.81403 0.08014 0.45958 0.0
H2430 H 0.87439 0.08387 0.5256 0.0
H2431 H 0.85247 0.05825 0.45542 0.0
H2432 H 0.9387 0.05993 0.4491 0.0
H2433 H 0.89678 0.07367 0.4519 0.0
H2434 H 0.89008 0.03933 0.52183 0.0
H2435 H 0.93204 0.02519 0.51891 0.0
C2436 C 0.83953 0.09555 0.51339 0.0
C2437 C 0.82228 0.09491 0.49484 0.0
C2438 C 0.86123 0.0827 0.51121 0.0
C2439 C 0.86628 0.06927 0.49026 0.0
C2440 C 0.84897 0.06848 0.47176 0.0
C2441 C 0.82705 0.08099 0.47413 0.0
C2442 C 0.92811 0.05485 0.46483 0.0
C2443 C 0.93864 0.04158 0.48382 0.0
C2444 C 0.90411 0.06264 0.46639 0.0
C2445 C 0.8903 0.0577 0.48715 0.0
C2446 C 0.90044 0.04348 0.50569 0.0
C2447 C 0.92435 0.03525 0.50393 0.0
H2448 H 0.65382 0.08355 0.28059 0.0
H2449 H 0.69371 0.05387 0.2202 0.0
H2450 H 0.67582 0.12175 0.2762 0.0
H2451 H 0.71544 0.0921 0.21566 0.0
H2452 H 0.76987 0.15094 0.24088 0.0
H2453 H 0.74582 0.11407 0.23983 0.0
H2454 H 0.6805 0.1566 0.24721 0.0
H2455 H 0.70462 0.19371 0.24857 0.0
C2456 C 0.66729 0.08521 0.26641 0.0
C2457 C 0.67223 0.06575 0.25085 0.0
C2458 C 0.67965 0.10712 0.26373 0.0
C2459 C 0.69721 0.10986 0.24551 0.0
C2460 C 0.70209 0.09039 0.22994 0.0
C2461 C 0.68968 0.06854 0.23256 0.0
C2462 C 0.75035 0.15249 0.24195 0.0
C2463 C 0.73914 0.17518 0.24501 0.0
C2464 C 0.73659 0.13138 0.24122 0.0
C2465 C 0.71135 0.13251 0.24365 0.0
C2466 C 0.69999 0.15526 0.24561 0.0
C2467 C 0.71377 0.17647 0.24616 0.0
H2468 H 0.66189 0.88287 0.02228 0.0
H2469 H 0.69728 0.95234 0.01479 0.0
H2470 H 0.62302 0.90333 0.02761 0.0
H2471 H 0.65851 0.97277 0.01947 0.0
H2472 H 0.59104 0.00888 0.03362 0.0
H2473 H 0.62505 0.98303 0.04515 0.0
H2474 H 0.59597 0.92518 0.00147 0.0
H2475 H 0.56175 0.95093 0.99076 0.0
C2476 C 0.66137 0.90253 0.0219 0.0
C2477 C 0.6826 0.91602 0.01787 0.0
C2478 C 0.63909 0.91424 0.02496 0.0
C2479 C 0.63755 0.93971 0.02403 0.0
C2480 C 0.65899 0.95315 0.02079 0.0
C2481 C 0.68124 0.94145 0.0178 0.0
C2482 C 0.5913 0.99015 0.0277 0.0
C2483 C 0.57378 0.98171 0.01156 0.0
C2484 C 0.61099 0.97548 0.03389 0.0
C2485 C 0.61366 0.95228 0.02364 0.0
C2486 C 0.59457 0.94291 0.00973 0.0
C2487 C 0.5748 0.95758 0.0037 0.0
H2488 H 0.3188 0.44713 0.28291 0.0
H2489 H 0.37053 0.41568 0.23353 0.0
H2490 H 0.29903 0.40772 0.28733 0.0
H2491 H 0.35034 0.37664 0.237 0.0
H2492 H 0.31706 0.30567 0.24759 0.0
H2493 H 0.34027 0.3416 0.25908 0.0
H2494 H 0.27369 0.38245 0.26524 0.0
H2495 H 0.25093 0.3464 0.25475 0.0
C2496 C 0.32592 0.43179 0.27296 0.0
C2497 C 0.34611 0.43462 0.25769 0.0
C2498 C 0.31457 0.40913 0.27545 0.0
C2499 C 0.32293 0.38873 0.26253 0.0
C2500 C 0.34352 0.3916 0.24769 0.0
C2501 C 0.35499 0.41415 0.24542 0.0
C2502 C 0.30744 0.32198 0.25285 0.0
C2503 C 0.2822 0.32319 0.25063 0.0
C2504 C 0.32072 0.34281 0.25885 0.0
C2505 C 0.30901 0.36533 0.26242 0.0
C2506 C 0.28354 0.36564 0.26275 0.0
C2507 C 0.27035 0.34483 0.25692 0.0
H2508 H 0.16372 0.63745 0.00842 0.0
H2509 H 0.19463 0.56665 0.99488 0.0
H2510 H 0.12443 0.61855 0.01689 0.0
H2511 H 0.15562 0.54795 0.0034 0.0
H2512 H 0.09454 0.51877 0.04583 0.0
H2513 H 0.13041 0.54408 0.04203 0.0
H2514 H 0.09186 0.59263 0.99433 0.0
H2515 H 0.05576 0.56714 -0.00192 0.0
C2516 C 0.16206 0.61791 0.00705 0.0
C2517 C 0.18223 0.60347 0.00108 0.0
C2518 C 0.13963 0.60716 0.01191 0.0
C2519 C 0.13718 0.58182 0.01121 0.0
C2520 C 0.15718 0.56752 0.00455 0.0
C2521 C 0.17944 0.57823 -0.00055 0.0
C2522 C 0.09348 0.53521 0.03507 0.0
C2523 C 0.07246 0.54084 0.02201 0.0
C2524 C 0.11405 0.54958 0.03277 0.0
C2525 C 0.11402 0.56989 0.0174 0.0
C2526 C 0.09233 0.57697 0.00621 0.0
C2527 C 0.07164 0.56249 0.0085 0.0
H2528 H 0.70614 0.96027 0.2702 0.0
H2529 H 0.65354 0.92187 0.22742 0.0
H2530 H 0.73299 0.92505 0.26867 0.0
H2531 H 0.67988 0.88647 0.22651 0.0
H2532 H 0.73057 0.82624 0.22068 0.0
H2533 H 0.71675 0.8677 0.21315 0.0
H2534 H 0.73235 0.886 0.28737 0.0
H2535 H 0.74708 0.84502 0.29433 0.0
C2536 C 0.70036 0.94431 0.26042 0.0
C2537 C 0.67763 0.94367 0.24919 0.0
C2538 C 0.71574 0.92415 0.25952 0.0
C2539 C 0.70863 0.90287 0.24751 0.0
C2540 C 0.6862 0.90264 0.23557 0.0
C2541 C 0.67092 0.92284 0.23634 0.0
C2542 C 0.73235 0.83954 0.23489 0.0
C2543 C 0.74008 0.83253 0.258 0.0
C2544 C 0.72393 0.86317 0.23078 0.0
C2545 C 0.72296 0.88008 0.24978 0.0
C2546 C 0.73291 0.87359 0.27224 0.0
C2547 C 0.74134 0.85005 0.27629 0.0
H2548 H 0.88334 0.08865 0.73554 0.0
H2549 H 0.81478 0.05692 0.75552 0.0
H2550 H 0.86421 0.12843 0.73217 0.0
H2551 H 0.79572 0.09681 0.75311 0.0
H2552 H 0.76147 0.16752 0.74189 0.0
H2553 H 0.78213 0.13024 0.72951 0.0
H2554 H 0.84903 0.15826 0.75835 0.0
H2555 H 0.82841 0.19546 0.76977 0.0
C2556 C 0.86416 0.0902 0.7393 0.0
C2557 C 0.85063 0.06967 0.74608 0.0
C2558 C 0.85316 0.11305 0.73737 0.0
C2559 C 0.82835 0.11604 0.74238 0.0
C2560 C 0.81474 0.0953 0.74864 0.0
C2561 C 0.82572 0.0724 0.75035 0.0
C2562 C 0.78088 0.16619 0.74418 0.0
C2563 C 0.79346 0.18449 0.75639 0.0
C2564 C 0.79266 0.14459 0.73765 0.0
C2565 C 0.81719 0.14082 0.74351 0.0
C2566 C 0.83022 0.16033 0.75339 0.0
C2567 C 0.81846 0.18188 0.75977 0.0
loop_
_geom_bond_atom_site_label_1
_geom_bond_atom_site_label_2
_geom_bond_distance
_geom_bond_site_symmetry_2
_ccdc_geom_bond_type
In0 O1 2.294 . S
In0 O2 2.326 . S
In0 O6 2.266 . S
In0 O7 2.326 . S
In0 O8 2.266 . S
In0 O9 2.326 . S
In0 O11 2.294 1_455 S
In0 O12 2.326 1_455 S
O1 In0 2.294 . S
O1 C10 1.240 1_455 S
O2 In0 2.326 . S
O2 C10 1.252 1_455 S
C3 O6 1.252 . S
C3 O7 1.260 . S
C4 O11 1.240 . S
C4 O12 1.252 . S
C5 O8 1.252 . S
C5 O9 1.260 . S
O6 In0 2.266 . S
O6 C3 1.252 . S
O7 In0 2.326 . S
O7 C3 1.260 . S
O8 In0 2.266 . S
O8 C5 1.252 . S
O9 In0 2.326 . S
O9 C5 1.260 . S
C10 O1 1.240 1_655 S
C10 O2 1.252 1_655 S
O11 In0 2.294 1_655 S
O11 C4 1.240 . S
O12 In0 2.326 1_655 S
O12 C4 1.252 . S
In13 O14 2.294 . S
In13 O15 2.326 . S
In13 O19 2.266 1_455 S
In13 O20 2.326 1_455 S
In13 O21 2.266 . S
In13 O22 2.326 . S
In13 O24 2.294 . S
In13 O25 2.326 . S
O14 In13 2.294 . S
O14 C23 1.240 . S
O15 In13 2.326 . S
O15 C23 1.252 . S
C16 O19 1.252 . S
C16 O20 1.260 . S
C17 O24 1.240 . S
C17 O25 1.252 . S
C18 O21 1.252 . S
C18 O22 1.260 . S
O19 In13 2.266 1_655 S
O19 C16 1.252 . S
O20 In13 2.326 1_655 S
O20 C16 1.260 . S
O21 In13 2.266 . S
O21 C18 1.252 . S
O22 In13 2.326 . S
O22 C18 1.260 . S
C23 O14 1.240 . S
C23 O15 1.252 . S
O24 In13 2.294 . S
O24 C17 1.240 . S
O25 In13 2.326 . S
O25 C17 1.252 . S
In26 O27 2.294 . S
In26 O28 2.326 . S
In26 O32 2.266 . S
In26 O33 2.326 . S
In26 O34 2.266 . S
In26 O35 2.326 . S
In26 O37 2.294 . S
In26 O38 2.326 . S
O27 In26 2.294 . S
O27 C36 1.240 . S
O28 In26 2.326 . S
O28 C36 1.252 . S
C29 O32 1.252 . S
C29 O33 1.260 . S
C30 O37 1.240 . S
C30 O38 1.252 . S
C31 O34 1.252 . S
C31 O35 1.260 . S
O32 In26 2.266 . S
O32 C29 1.252 . S
O33 In26 2.326 . S
O33 C29 1.260 . S
O34 In26 2.266 . S
O34 C31 1.252 . S
O35 In26 2.326 . S
O35 C31 1.260 . S
C36 O27 1.240 . S
C36 O28 1.252 . S
O37 In26 2.294 . S
O37 C30 1.240 . S
O38 In26 2.326 . S
O38 C30 1.252 . S
In39 O40 2.294 . S
In39 O41 2.326 . S
In39 O45 2.266 . S
In39 O46 2.326 . S
In39 O47 2.266 . S
In39 O48 2.326 . S
In39 O50 2.294 . S
In39 O51 2.326 . S
O40 In39 2.294 . S
O40 C49 1.240 . S
O41 In39 2.326 . S
O41 C49 1.252 . S
C42 O45 1.252 . S
C42 O46 1.260 . S
C43 O50 1.240 . S
C43 O51 1.252 . S
C44 O47 1.252 . S
C44 O48 1.260 . S
O45 In39 2.266 . S
O45 C42 1.252 . S
O46 In39 2.326 . S
O46 C42 1.260 . S
O47 In39 2.266 . S
O47 C44 1.252 . S
O48 In39 2.326 . S
O48 C44 1.260 . S
C49 O40 1.240 . S
C49 O41 1.252 . S
O50 In39 2.294 . S
O50 C43 1.240 . S
O51 In39 2.326 . S
O51 C43 1.252 . S
In52 O53 2.294 1_545 S
In52 O54 2.326 1_545 S
In52 O58 2.266 . S
In52 O59 2.326 . S
In52 O60 2.266 . S
In52 O61 2.326 . S
In52 O63 2.294 1_545 S
In52 O64 2.326 1_545 S
O53 In52 2.294 1_565 S
O53 C62 1.240 . S
O54 In52 2.326 1_565 S
O54 C62 1.252 . S
C55 O58 1.252 . S
C55 O59 1.260 . S
C56 O63 1.240 . S
C56 O64 1.252 . S
C57 O60 1.252 . S
C57 O61 1.260 . S
O58 In52 2.266 . S
O58 C55 1.252 . S
O59 In52 2.326 . S
O59 C55 1.260 . S
O60 In52 2.266 . S
O60 C57 1.252 . S
O61 In52 2.326 . S
O61 C57 1.260 . S
C62 O53 1.240 . S
C62 O54 1.252 . S
O63 In52 2.294 1_565 S
O63 C56 1.240 . S
O64 In52 2.326 1_565 S
O64 C56 1.252 . S
In65 O66 2.294 . S
In65 O67 2.326 . S
In65 O71 2.266 . S
In65 O72 2.326 . S
In65 O73 2.266 . S
In65 O74 2.326 . S
In65 O76 2.294 . S
In65 O77 2.326 . S
O66 In65 2.294 . S
O66 C75 1.240 . S
O67 In65 2.326 . S
O67 C75 1.252 . S
C68 O71 1.252 . S
C68 O72 1.260 . S
C69 O76 1.240 . S
C69 O77 1.252 . S
C70 O73 1.252 . S
C70 O74 1.260 . S
O71 In65 2.266 . S
O71 C68 1.252 . S
O72 In65 2.326 . S
O72 C68 1.260 . S
O73 In65 2.266 . S
O73 C70 1.252 . S
O74 In65 2.326 . S
O74 C70 1.260 . S
C75 O66 1.240 . S
C75 O67 1.252 . S
O76 In65 2.294 . S
O76 C69 1.240 . S
O77 In65 2.326 . S
O77 C69 1.252 . S
In78 O79 2.294 . S
In78 O80 2.326 . S
In78 O84 2.266 1_545 S
In78 O85 2.326 1_545 S
In78 O86 2.266 . S
In78 O87 2.326 . S
In78 O89 2.294 . S
In78 O90 2.326 . S
O79 In78 2.294 . S
O79 C88 1.240 . S
O80 In78 2.326 . S
O80 C88 1.252 . S
C81 O84 1.252 . S
C81 O85 1.260 . S
C82 O89 1.240 . S
C82 O90 1.252 . S
C83 O86 1.252 . S
C83 O87 1.260 . S
O84 In78 2.266 1_565 S
O84 C81 1.252 . S
O85 In78 2.326 1_565 S
O85 C81 1.260 . S
O86 In78 2.266 . S
O86 C83 1.252 . S
O87 In78 2.326 . S
O87 C83 1.260 . S
C88 O79 1.240 . S
C88 O80 1.252 . S
O89 In78 2.294 . S
O89 C82 1.240 . S
O90 In78 2.326 . S
O90 C82 1.252 . S
In91 O92 2.294 . S
In91 O93 2.326 . S
In91 O97 2.266 . S
In91 O98 2.326 . S
In91 O99 2.266 1_554 S
In91 O100 2.326 1_554 S
In91 O102 2.294 . S
In91 O103 2.326 . S
O92 In91 2.294 . S
O92 C101 1.240 . S
O93 In91 2.326 . S
O93 C101 1.252 . S
C94 O97 1.252 . S
C94 O98 1.260 . S
C95 O102 1.240 . S
C95 O103 1.252 . S
C96 O99 1.252 . S
C96 O100 1.260 . S
O97 In91 2.266 . S
O97 C94 1.252 . S
O98 In91 2.326 . S
O98 C94 1.260 . S
O99 In91 2.266 1_556 S
O99 C96 1.252 . S
O100 In91 2.326 1_556 S
O100 C96 1.260 . S
C101 O92 1.240 . S
C101 O93 1.252 . S
O102 In91 2.294 . S
O102 C95 1.240 . S
O103 In91 2.326 . S
O103 C95 1.252 . S
In104 O105 2.294 . S
In104 O106 2.326 . S
In104 O110 2.266 1_554 S
In104 O111 2.326 1_554 S
In104 O112 2.266 1_554 S
In104 O113 2.326 . S
In104 O115 2.294 . S
In104 O116 2.326 . S
O105 In104 2.294 . S
O105 C114 1.240 . S
O106 In104 2.326 . S
O106 C114 1.252 . S
C107 O110 1.252 . S
C107 O111 1.260 . S
C108 O115 1.240 . S
C108 O116 1.252 . S
C109 O112 1.252 1_554 S
C109 O113 1.262 . S
O110 In104 2.266 1_556 S
O110 C107 1.252 . S
O111 In104 2.326 1_556 S
O111 C107 1.260 . S
O112 In104 2.266 1_556 S
O112 C109 1.252 1_556 S
O113 In104 2.326 . S
O113 C109 1.262 . S
C114 O105 1.240 . S
C114 O106 1.252 . S
O115 In104 2.294 . S
O115 C108 1.240 . S
O116 In104 2.326 . S
O116 C108 1.252 . S
In117 O118 2.294 . S
In117 O119 2.326 . S
In117 O123 2.266 . S
In117 O124 2.326 . S
In117 O125 2.266 . S
In117 O126 2.326 . S
In117 O128 2.294 . S
In117 O129 2.326 . S
O118 In117 2.294 . S
O118 C127 1.240 . S
O119 In117 2.326 . S
O119 C127 1.252 . S
C120 O123 1.252 . S
C120 O124 1.260 . S
C121 O128 1.240 . S
C121 O129 1.252 . S
C122 O125 1.252 . S
C122 O126 1.260 . S
O123 In117 2.266 . S
O123 C120 1.252 . S
O124 In117 2.326 . S
O124 C120 1.260 . S
O125 In117 2.266 . S
O125 C122 1.252 . S
O126 In117 2.326 . S
O126 C122 1.260 . S
C127 O118 1.240 . S
C127 O119 1.252 . S
O128 In117 2.294 . S
O128 C121 1.240 . S
O129 In117 2.326 . S
O129 C121 1.252 . S
In130 O131 2.294 . S
In130 O132 2.326 . S
In130 O136 2.266 . S
In130 O137 2.326 . S
In130 O138 2.266 . S
In130 O139 2.326 . S
In130 O141 2.294 . S
In130 O142 2.326 . S
O131 In130 2.294 . S
O131 C140 1.240 . S
O132 In130 2.326 . S
O132 C140 1.252 . S
C133 O136 1.252 . S
C133 O137 1.260 . S
C134 O141 1.240 . S
C134 O142 1.252 . S
C135 O138 1.252 . S
C135 O139 1.260 . S
O136 In130 2.266 . S
O136 C133 1.252 . S
O137 In130 2.326 . S
O137 C133 1.260 . S
O138 In130 2.266 . S
O138 C135 1.252 . S
O139 In130 2.326 . S
O139 C135 1.260 . S
C140 O131 1.240 . S
C140 O132 1.252 . S
O141 In130 2.294 . S
O141 C134 1.240 . S
O142 In130 2.326 . S
O142 C134 1.252 . S
In143 O144 2.294 . S
In143 O145 2.326 . S
In143 O149 2.266 . S
In143 O150 2.326 . S
In143 O151 2.266 . S
In143 O152 2.326 . S
In143 O154 2.294 . S
In143 O155 2.326 . S
O144 In143 2.294 . S
O144 C153 1.240 . S
O145 In143 2.326 . S
O145 C153 1.252 . S
C146 O149 1.252 . S
C146 O150 1.260 . S
C147 O154 1.240 . S
C147 O155 1.252 . S
C148 O151 1.252 . S
C148 O152 1.260 . S
O149 In143 2.266 . S
O149 C146 1.252 . S
O150 In143 2.326 . S
O150 C146 1.260 . S
O151 In143 2.266 . S
O151 C148 1.252 . S
O152 In143 2.326 . S
O152 C148 1.260 . S
C153 O144 1.240 . S
C153 O145 1.252 . S
O154 In143 2.294 . S
O154 C147 1.240 . S
O155 In143 2.326 . S
O155 C147 1.252 . S
In156 O157 2.294 . S
In156 O158 2.326 . S
In156 O162 2.266 1_455 S
In156 O163 2.326 1_455 S
In156 O164 2.266 . S
In156 O165 2.326 . S
In156 O167 2.294 . S
In156 O168 2.326 . S
O157 In156 2.294 . S
O157 C166 1.240 . S
O158 In156 2.326 . S
O158 C166 1.252 . S
C159 O162 1.252 . S
C159 O163 1.260 . S
C160 O167 1.240 . S
C160 O168 1.252 . S
C161 O164 1.252 . S
C161 O165 1.260 . S
O162 In156 2.266 1_655 S
O162 C159 1.252 . S
O163 In156 2.326 1_655 S
O163 C159 1.260 . S
O164 In156 2.266 . S
O164 C161 1.252 . S
O165 In156 2.326 . S
O165 C161 1.260 . S
C166 O157 1.240 . S
C166 O158 1.252 . S
O167 In156 2.294 . S
O167 C160 1.240 . S
O168 In156 2.326 . S
O168 C160 1.252 . S
In169 O170 2.294 . S
In169 O171 2.326 . S
In169 O175 2.266 . S
In169 O176 2.326 . S
In169 O177 2.266 1_455 S
In169 O178 2.326 1_455 S
In169 O180 2.294 . S
In169 O181 2.326 . S
O170 In169 2.294 . S
O170 C179 1.240 . S
O171 In169 2.326 . S
O171 C179 1.252 . S
C172 O175 1.252 . S
C172 O176 1.260 . S
C173 O180 1.240 . S
C173 O181 1.252 . S
C174 O177 1.252 . S
C174 O178 1.260 . S
O175 In169 2.266 . S
O175 C172 1.252 . S
O176 In169 2.326 . S
O176 C172 1.260 . S
O177 In169 2.266 1_655 S
O177 C174 1.252 . S
O178 In169 2.326 1_655 S
O178 C174 1.260 . S
C179 O170 1.240 . S
C179 O171 1.252 . S
O180 In169 2.294 . S
O180 C173 1.240 . S
O181 In169 2.326 . S
O181 C173 1.252 . S
In182 O183 2.294 . S
In182 O184 2.326 . S
In182 O188 2.266 . S
In182 O189 2.326 . S
In182 O190 2.266 . S
In182 O191 2.326 . S
In182 O193 2.294 . S
In182 O194 2.326 . S
O183 In182 2.294 . S
O183 C192 1.240 . S
O184 In182 2.326 . S
O184 C192 1.252 . S
C185 O188 1.252 . S
C185 O189 1.260 . S
C186 O193 1.240 . S
C186 O194 1.252 . S
C187 O190 1.252 . S
C187 O191 1.260 . S
O188 In182 2.266 . S
O188 C185 1.252 . S
O189 In182 2.326 . S
O189 C185 1.260 . S
O190 In182 2.266 . S
O190 C187 1.252 . S
O191 In182 2.326 . S
O191 C187 1.260 . S
C192 O183 1.240 . S
C192 O184 1.252 . S
O193 In182 2.294 . S
O193 C186 1.240 . S
O194 In182 2.326 . S
O194 C186 1.252 . S
In195 O196 2.294 . S
In195 O197 2.326 . S
In195 O201 2.266 . S
In195 O202 2.326 . S
In195 O203 2.266 . S
In195 O204 2.326 . S
In195 O206 2.294 . S
In195 O207 2.326 . S
O196 In195 2.294 . S
O196 C205 1.240 . S
O197 In195 2.326 . S
O197 C205 1.252 . S
C198 O201 1.252 . S
C198 O202 1.260 . S
C199 O206 1.240 . S
C199 O207 1.252 . S
C200 O203 1.252 . S
C200 O204 1.260 . S
O201 In195 2.266 . S
O201 C198 1.252 . S
O202 In195 2.326 . S
O202 C198 1.260 . S
O203 In195 2.266 . S
O203 C200 1.252 . S
O204 In195 2.326 . S
O204 C200 1.260 . S
C205 O196 1.240 . S
C205 O197 1.252 . S
O206 In195 2.294 . S
O206 C199 1.240 . S
O207 In195 2.326 . S
O207 C199 1.252 . S
In208 O209 2.294 . S
In208 O210 2.326 . S
In208 O214 2.266 1_545 S
In208 O215 2.327 . S
In208 O216 2.266 1_545 S
In208 O217 2.326 1_545 S
In208 O219 2.294 . S
In208 O220 2.326 . S
O209 In208 2.294 . S
O209 C218 1.240 . S
O210 In208 2.326 . S
O210 C218 1.252 . S
C211 O214 1.252 . S
C211 O215 1.258 1_565 S
C212 O219 1.240 . S
C212 O220 1.252 . S
C213 O216 1.252 . S
C213 O217 1.260 . S
O214 In208 2.266 1_565 S
O214 C211 1.252 . S
O215 In208 2.327 . S
O215 C211 1.258 1_545 S
O216 In208 2.266 1_565 S
O216 C213 1.252 . S
O217 In208 2.326 1_565 S
O217 C213 1.260 . S
C218 O209 1.240 . S
C218 O210 1.252 . S
O219 In208 2.294 . S
O219 C212 1.240 . S
O220 In208 2.326 . S
O220 C212 1.252 . S
In221 O222 2.294 . S
In221 O223 2.326 . S
In221 O227 2.266 . S
In221 O228 2.326 . S
In221 O229 2.266 . S
In221 O230 2.326 . S
In221 O232 2.294 . S
In221 O233 2.326 . S
O222 In221 2.294 . S
O222 C231 1.240 . S
O223 In221 2.326 . S
O223 C231 1.252 . S
C224 O227 1.252 . S
C224 O228 1.260 . S
C225 O232 1.240 . S
C225 O233 1.252 . S
C226 O229 1.252 . S
C226 O230 1.260 . S
O227 In221 2.266 . S
O227 C224 1.252 . S
O228 In221 2.326 . S
O228 C224 1.260 . S
O229 In221 2.266 . S
O229 C226 1.252 . S
O230 In221 2.326 . S
O230 C226 1.260 . S
C231 O222 1.240 . S
C231 O223 1.252 . S
O232 In221 2.294 . S
O232 C225 1.240 . S
O233 In221 2.326 . S
O233 C225 1.252 . S
In234 O235 2.294 1_545 S
In234 O236 2.326 1_545 S
In234 O240 2.266 . S
In234 O241 2.326 . S
In234 O242 2.266 . S
In234 O243 2.326 . S
In234 O245 2.298 . S
In234 O246 2.326 . S
O235 In234 2.294 1_565 S
O235 C244 1.240 . S
O236 In234 2.326 1_565 S
O236 C244 1.252 . S
C237 O240 1.252 . S
C237 O241 1.260 . S
C238 O245 1.240 . S
C238 O246 1.253 . S
C239 O242 1.252 . S
C239 O243 1.260 . S
O240 In234 2.266 . S
O240 C237 1.252 . S
O241 In234 2.326 . S
O241 C237 1.260 . S
O242 In234 2.266 . S
O242 C239 1.252 . S
O243 In234 2.326 . S
O243 C239 1.260 . S
C244 O235 1.240 . S
C244 O236 1.252 . S
O245 In234 2.298 . S
O245 C238 1.240 . S
O246 In234 2.326 . S
O246 C238 1.253 . S
In247 O248 2.294 . S
In247 O249 2.326 . S
In247 O253 2.266 . S
In247 O254 2.326 . S
In247 O255 2.266 1_554 S
In247 O256 2.326 1_554 S
In247 O258 2.294 . S
In247 O259 2.326 . S
O248 In247 2.294 . S
O248 C257 1.240 . S
O249 In247 2.326 . S
O249 C257 1.252 . S
C250 O253 1.252 . S
C250 O254 1.260 . S
C251 O258 1.240 . S
C251 O259 1.252 . S
C252 O255 1.252 . S
C252 O256 1.260 . S
O253 In247 2.266 . S
O253 C250 1.252 . S
O254 In247 2.326 . S
O254 C250 1.260 . S
O255 In247 2.266 1_556 S
O255 C252 1.252 . S
O256 In247 2.326 1_556 S
O256 C252 1.260 . S
C257 O248 1.240 . S
C257 O249 1.252 . S
O258 In247 2.294 . S
O258 C251 1.240 . S
O259 In247 2.326 . S
O259 C251 1.252 . S
In260 O261 2.294 . S
In260 O262 2.326 . S
In260 O266 2.266 1_554 S
In260 O267 2.326 1_554 S
In260 O268 2.266 1_554 S
In260 O269 2.329 . S
In260 O271 2.294 . S
In260 O272 2.326 . S
O261 In260 2.294 . S
O261 C270 1.240 . S
O262 In260 2.326 . S
O262 C270 1.252 . S
C263 O266 1.252 . S
C263 O267 1.260 . S
C264 O271 1.240 . S
C264 O272 1.252 . S
C265 O268 1.252 . S
C265 O269 1.256 1_556 S
O266 In260 2.266 1_556 S
O266 C263 1.252 . S
O267 In260 2.326 1_556 S
O267 C263 1.260 . S
O268 In260 2.266 1_556 S
O268 C265 1.252 . S
O269 In260 2.329 . S
O269 C265 1.256 1_554 S
C270 O261 1.240 . S
C270 O262 1.252 . S
O271 In260 2.294 . S
O271 C264 1.240 . S
O272 In260 2.326 . S
O272 C264 1.252 . S
In273 O274 2.294 . S
In273 O275 2.326 . S
In273 O279 2.266 . S
In273 O280 2.326 . S
In273 O281 2.266 . S
In273 O282 2.326 . S
In273 O284 2.294 . S
In273 O285 2.326 . S
O274 In273 2.294 . S
O274 C283 1.240 . S
O275 In273 2.326 . S
O275 C283 1.252 . S
C276 O279 1.252 . S
C276 O280 1.260 . S
C277 O284 1.240 . S
C277 O285 1.252 . S
C278 O281 1.252 . S
C278 O282 1.260 . S
O279 In273 2.266 . S
O279 C276 1.252 . S
O280 In273 2.326 . S
O280 C276 1.260 . S
O281 In273 2.266 . S
O281 C278 1.252 . S
O282 In273 2.326 . S
O282 C278 1.260 . S
C283 O274 1.240 . S
C283 O275 1.252 . S
O284 In273 2.294 . S
O284 C277 1.240 . S
O285 In273 2.326 . S
O285 C277 1.252 . S
In286 O287 2.294 . S
In286 O288 2.326 . S
In286 O292 2.266 . S
In286 O293 2.326 . S
In286 O294 2.266 . S
In286 O295 2.326 . S
In286 O297 2.294 . S
In286 O298 2.326 . S
O287 In286 2.294 . S
O287 C296 1.240 . S
O288 In286 2.326 . S
O288 C296 1.252 . S
C289 O292 1.252 . S
C289 O293 1.260 . S
C290 O297 1.240 . S
C290 O298 1.252 . S
C291 O294 1.252 . S
C291 O295 1.260 . S
O292 In286 2.266 . S
O292 C289 1.252 . S
O293 In286 2.326 . S
O293 C289 1.260 . S
O294 In286 2.266 . S
O294 C291 1.252 . S
O295 In286 2.326 . S
O295 C291 1.260 . S
C296 O287 1.240 . S
C296 O288 1.252 . S
O297 In286 2.294 . S
O297 C290 1.240 . S
O298 In286 2.326 . S
O298 C290 1.252 . S
In299 O300 2.294 . S
In299 O301 2.326 . S
In299 O305 2.266 . S
In299 O306 2.326 . S
In299 O307 2.266 . S
In299 O308 2.326 . S
In299 O310 2.294 . S
In299 O311 2.326 . S
O300 In299 2.294 . S
O300 C309 1.240 . S
O301 In299 2.326 . S
O301 C309 1.252 . S
C302 O305 1.252 . S
C302 O306 1.260 . S
C303 O310 1.240 . S
C303 O311 1.252 . S
C304 O307 1.252 . S
C304 O308 1.260 . S
O305 In299 2.266 . S
O305 C302 1.252 . S
O306 In299 2.326 . S
O306 C302 1.260 . S
O307 In299 2.266 . S
O307 C304 1.252 . S
O308 In299 2.326 . S
O308 C304 1.260 . S
C309 O300 1.240 . S
C309 O301 1.252 . S
O310 In299 2.294 . S
O310 C303 1.240 . S
O311 In299 2.326 . S
O311 C303 1.252 . S
O312 Mn313 2.167 1_556 S
O312 C326 1.244 . S
Mn313 O312 2.167 1_554 S
Mn313 O316 2.156 1_445 S
Mn313 O317 2.228 1_455 S
Mn313 O319 2.163 1_454 S
Mn313 O321 2.159 1_545 S
Mn313 O331 2.214 1_544 S
O314 Mn315 2.087 1_556 S
O314 C326 1.256 1_565 S
Mn315 O314 2.087 1_554 S
Mn315 O322 2.089 . S
Mn315 O331 2.290 1_554 S
Mn315 O332 2.251 1_554 S
O316 Mn313 2.156 1_665 S
O316 C327 1.239 . S
O317 Mn313 2.228 1_655 S
O317 Mn318 2.290 1_554 S
O317 C328 1.278 . S
Mn318 O317 2.290 1_556 S
Mn318 O320 2.088 1_556 S
Mn318 O323 2.251 1_556 S
Mn318 O324 2.087 . S
O319 Mn313 2.163 1_656 S
O319 C329 1.244 . S
O320 Mn318 2.088 1_554 S
O320 C327 1.260 1_545 S
O321 Mn313 2.159 1_565 S
O321 C330 1.239 . S
O322 Mn315 2.089 . S
O322 C330 1.256 . S
O323 Mn318 2.251 1_554 S
O323 C328 1.241 . S
O324 Mn318 2.087 . S
O324 C329 1.256 . S
C325 O331 1.278 . S
C325 O332 1.241 . S
C326 O312 1.244 . S
C326 O314 1.256 1_545 S
C327 O316 1.239 . S
C327 O320 1.260 1_565 S
C328 O317 1.278 . S
C328 O323 1.241 . S
C329 O319 1.244 . S
C329 O324 1.256 . S
C330 O321 1.239 . S
C330 O322 1.256 . S
O331 Mn313 2.214 1_566 S
O331 Mn315 2.290 1_556 S
O331 C325 1.278 . S
O332 Mn315 2.251 1_556 S
O332 C325 1.241 . S
O333 Mn334 2.163 . S
O333 C347 1.244 . S
Mn334 O333 2.163 . S
Mn334 O337 2.160 . S
Mn334 O338 2.221 . S
Mn334 O340 2.163 . S
Mn334 O342 2.160 . S
Mn334 O352 2.221 . S
O335 Mn336 2.087 . S
O335 C347 1.256 . S
Mn336 O335 2.087 . S
Mn336 O343 2.089 . S
Mn336 O352 2.290 . S
Mn336 O353 2.251 . S
O337 Mn334 2.160 . S
O337 C348 1.239 . S
O338 Mn334 2.221 . S
O338 Mn339 2.290 . S
O338 C349 1.278 . S
Mn339 O338 2.290 . S
Mn339 O341 2.089 . S
Mn339 O344 2.251 . S
Mn339 O345 2.087 . S
O340 Mn334 2.163 . S
O340 C350 1.244 . S
O341 Mn339 2.089 . S
O341 C348 1.256 . S
O342 Mn334 2.160 . S
O342 C351 1.239 . S
O343 Mn336 2.089 . S
O343 C351 1.256 . S
O344 Mn339 2.251 . S
O344 C349 1.241 . S
O345 Mn339 2.087 . S
O345 C350 1.256 . S
C346 O352 1.278 . S
C346 O353 1.241 . S
C347 O333 1.244 . S
C347 O335 1.256 . S
C348 O337 1.239 . S
C348 O341 1.256 . S
C349 O338 1.278 . S
C349 O344 1.241 . S
C350 O340 1.244 . S
C350 O345 1.256 . S
C351 O342 1.239 . S
C351 O343 1.256 . S
O352 Mn334 2.221 . S
O352 Mn336 2.290 . S
O352 C346 1.278 . S
O353 Mn336 2.251 . S
O353 C346 1.241 . S
O354 Mn355 2.163 1_565 S
O354 C368 1.244 . S
Mn355 O354 2.163 1_545 S
Mn355 O358 2.160 . S
Mn355 O359 2.221 1_545 S
Mn355 O361 2.163 . S
Mn355 O363 2.160 . S
Mn355 O373 2.221 . S
O356 Mn357 2.087 . S
O356 C368 1.256 1_545 S
Mn357 O356 2.087 . S
Mn357 O364 2.089 . S
Mn357 O373 2.290 . S
Mn357 O374 2.251 . S
O358 Mn355 2.160 . S
O358 C369 1.239 . S
O359 Mn355 2.221 1_565 S
O359 Mn360 2.290 . S
O359 C370 1.278 . S
Mn360 O359 2.290 . S
Mn360 O362 2.089 1_565 S
Mn360 O365 2.251 . S
Mn360 O366 2.087 . S
O361 Mn355 2.163 . S
O361 C371 1.237 1_545 S
O362 Mn360 2.089 1_545 S
O362 C369 1.256 . S
O363 Mn355 2.160 . S
O363 C372 1.239 . S
O364 Mn357 2.089 . S
O364 C372 1.256 . S
O365 Mn360 2.251 . S
O365 C370 1.241 . S
O366 Mn360 2.087 . S
O366 C371 1.267 . S
C367 O373 1.278 . S
C367 O374 1.241 . S
C368 O354 1.244 . S
C368 O356 1.256 1_565 S
C369 O358 1.239 . S
C369 O362 1.256 . S
C370 O359 1.278 . S
C370 O365 1.241 . S
C371 O361 1.237 1_565 S
C371 O366 1.267 . S
C372 O363 1.239 . S
C372 O364 1.256 . S
O373 Mn355 2.221 . S
O373 Mn357 2.290 . S
O373 C367 1.278 . S
O374 Mn357 2.251 . S
O374 C367 1.241 . S
O375 Mn376 2.163 . S
O375 C389 1.244 . S
Mn376 O375 2.163 . S
Mn376 O379 2.160 . S
Mn376 O380 2.221 . S
Mn376 O382 2.163 . S
Mn376 O384 2.160 . S
Mn376 O394 2.221 . S
O377 Mn378 2.087 . S
O377 C389 1.256 . S
Mn378 O377 2.087 . S
Mn378 O385 2.089 . S
Mn378 O394 2.290 . S
Mn378 O395 2.251 . S
O379 Mn376 2.160 . S
O379 C390 1.239 . S
O380 Mn376 2.221 . S
O380 Mn381 2.290 . S
O380 C391 1.278 . S
Mn381 O380 2.290 . S
Mn381 O383 2.089 . S
Mn381 O386 2.251 . S
Mn381 O387 2.087 . S
O382 Mn376 2.163 . S
O382 C392 1.244 . S
O383 Mn381 2.089 . S
O383 C390 1.256 . S
O384 Mn376 2.160 . S
O384 C393 1.239 . S
O385 Mn378 2.089 . S
O385 C393 1.256 . S
O386 Mn381 2.251 . S
O386 C391 1.241 . S
O387 Mn381 2.087 . S
O387 C392 1.256 . S
C388 O394 1.278 . S
C388 O395 1.241 . S
C389 O375 1.244 . S
C389 O377 1.256 . S
C390 O379 1.239 . S
C390 O383 1.256 . S
C391 O380 1.278 . S
C391 O386 1.241 . S
C392 O382 1.244 . S
C392 O387 1.256 . S
C393 O384 1.239 . S
C393 O385 1.256 . S
O394 Mn376 2.221 . S
O394 Mn378 2.290 . S
O394 C388 1.278 . S
O395 Mn378 2.251 . S
O395 C388 1.241 . S
O396 Mn397 2.163 1_565 S
O396 C410 1.244 1_455 S
Mn397 O396 2.163 1_545 S
Mn397 O400 2.160 . S
Mn397 O401 2.221 . S
Mn397 O403 2.163 1_455 S
Mn397 O405 2.150 1_545 S
Mn397 O415 2.217 1_445 S
O398 Mn399 2.087 1_655 S
O398 C410 1.256 . S
Mn399 O398 2.087 1_455 S
Mn399 O406 2.089 . S
Mn399 O415 2.284 1_455 S
Mn399 O416 2.251 1_455 S
O400 Mn397 2.160 . S
O400 C411 1.239 . S
O401 Mn397 2.221 . S
O401 Mn402 2.290 1_455 S
O401 C412 1.278 . S
Mn402 O401 2.290 1_655 S
Mn402 O404 2.089 1_655 S
Mn402 O407 2.251 1_655 S
Mn402 O408 2.087 . S
O403 Mn397 2.163 1_655 S
O403 C413 1.244 . S
O404 Mn402 2.089 1_455 S
O404 C411 1.256 . S
O405 Mn397 2.150 1_565 S
O405 C414 1.269 . S
O406 Mn399 2.089 . S
O406 C414 1.256 . S
O407 Mn402 2.251 1_455 S
O407 C412 1.241 . S
O408 Mn402 2.087 . S
O408 C413 1.256 . S
C409 O415 1.292 . S
C409 O416 1.241 . S
C410 O396 1.244 1_655 S
C410 O398 1.256 . S
C411 O400 1.239 . S
C411 O404 1.256 . S
C412 O401 1.278 . S
C412 O407 1.241 . S
C413 O403 1.244 . S
C413 O408 1.256 . S
C414 O405 1.269 . S
C414 O406 1.256 . S
O415 Mn397 2.217 1_665 S
O415 Mn399 2.284 1_655 S
O415 C409 1.292 . S
O416 Mn399 2.251 1_655 S
O416 C409 1.241 . S
O417 Mn418 2.163 . S
O417 C431 1.244 . S
Mn418 O417 2.163 . S
Mn418 O421 2.160 . S
Mn418 O422 2.221 . S
Mn418 O424 2.163 . S
Mn418 O426 2.160 . S
Mn418 O436 2.221 . S
O419 Mn420 2.087 . S
O419 C431 1.256 . S
Mn420 O419 2.087 . S
Mn420 O427 2.089 . S
Mn420 O436 2.290 . S
Mn420 O437 2.251 . S
O421 Mn418 2.160 . S
O421 C432 1.239 . S
O422 Mn418 2.221 . S
O422 Mn423 2.290 . S
O422 C433 1.278 . S
Mn423 O422 2.290 . S
Mn423 O425 2.089 . S
Mn423 O428 2.251 . S
Mn423 O429 2.087 . S
O424 Mn418 2.163 . S
O424 C434 1.244 . S
O425 Mn423 2.089 . S
O425 C432 1.256 . S
O426 Mn418 2.160 . S
O426 C435 1.239 . S
O427 Mn420 2.089 . S
O427 C435 1.256 . S
O428 Mn423 2.251 . S
O428 C433 1.241 . S
O429 Mn423 2.087 . S
O429 C434 1.256 . S
C430 O436 1.278 . S
C430 O437 1.241 . S
C431 O417 1.244 . S
C431 O419 1.256 . S
C432 O421 1.239 . S
C432 O425 1.256 . S
C433 O422 1.278 . S
C433 O428 1.241 . S
C434 O424 1.244 . S
C434 O429 1.256 . S
C435 O426 1.239 . S
C435 O427 1.256 . S
O436 Mn418 2.221 . S
O436 Mn420 2.290 . S
O436 C430 1.278 . S
O437 Mn420 2.251 . S
O437 C430 1.241 . S
O438 Mn439 2.163 1_566 S
O438 C452 1.244 . S
Mn439 O438 2.163 1_544 S
Mn439 O442 2.160 . S
Mn439 O443 2.221 . S
Mn439 O445 2.163 1_545 S
Mn439 O447 2.172 . S
Mn439 O457 2.221 1_544 S
O440 Mn441 2.087 1_565 S
O440 C452 1.256 . S
Mn441 O440 2.087 1_545 S
Mn441 O448 2.089 . S
Mn441 O457 2.290 1_545 S
Mn441 O458 2.251 1_545 S
O442 Mn439 2.160 . S
O442 C453 1.239 . S
O443 Mn439 2.221 . S
O443 Mn444 2.290 1_545 S
O443 C454 1.278 . S
Mn444 O443 2.290 1_565 S
Mn444 O446 2.092 . S
Mn444 O449 2.251 1_565 S
Mn444 O450 2.087 . S
O445 Mn439 2.163 1_565 S
O445 C455 1.244 . S
O446 Mn444 2.092 . S
O446 C453 1.246 1_565 S
O447 Mn439 2.172 . S
O447 C456 1.203 1_554 S
O448 Mn441 2.089 . S
O448 C456 1.256 . S
O449 Mn444 2.251 1_545 S
O449 C454 1.241 . S
O450 Mn444 2.087 . S
O450 C455 1.256 . S
C451 O457 1.278 . S
C451 O458 1.241 . S
C452 O438 1.244 . S
C452 O440 1.256 . S
C453 O442 1.239 . S
C453 O446 1.246 1_545 S
C454 O443 1.278 . S
C454 O449 1.241 . S
C455 O445 1.244 . S
C455 O450 1.256 . S
C456 O447 1.203 1_556 S
C456 O448 1.256 . S
O457 Mn439 2.221 1_566 S
O457 Mn441 2.290 1_565 S
O457 C451 1.278 . S
O458 Mn441 2.251 1_565 S
O458 C451 1.241 . S
O459 Mn460 2.163 . S
O459 C473 1.244 . S
Mn460 O459 2.163 . S
Mn460 O463 2.160 . S
Mn460 O464 2.221 . S
Mn460 O466 2.163 . S
Mn460 O468 2.160 . S
Mn460 O478 2.221 . S
O461 Mn462 2.087 . S
O461 C473 1.256 . S
Mn462 O461 2.087 . S
Mn462 O469 2.089 . S
Mn462 O478 2.290 . S
Mn462 O479 2.251 . S
O463 Mn460 2.160 . S
O463 C474 1.239 . S
O464 Mn460 2.221 . S
O464 Mn465 2.290 . S
O464 C475 1.278 . S
Mn465 O464 2.290 . S
Mn465 O467 2.089 . S
Mn465 O470 2.251 . S
Mn465 O471 2.087 . S
O466 Mn460 2.163 . S
O466 C476 1.244 . S
O467 Mn465 2.089 . S
O467 C474 1.256 . S
O468 Mn460 2.160 . S
O468 C477 1.239 . S
O469 Mn462 2.089 . S
O469 C477 1.256 . S
O470 Mn465 2.251 . S
O470 C475 1.241 . S
O471 Mn465 2.087 . S
O471 C476 1.256 . S
C472 O478 1.278 . S
C472 O479 1.241 . S
C473 O459 1.244 . S
C473 O461 1.256 . S
C474 O463 1.239 . S
C474 O467 1.256 . S
C475 O464 1.278 . S
C475 O470 1.241 . S
C476 O466 1.244 . S
C476 O471 1.256 . S
C477 O468 1.239 . S
C477 O469 1.256 . S
O478 Mn460 2.221 . S
O478 Mn462 2.290 . S
O478 C472 1.278 . S
O479 Mn462 2.251 . S
O479 C472 1.241 . S
O480 Mn481 2.163 1_556 S
O480 C494 1.244 . S
Mn481 O480 2.163 1_554 S
Mn481 O484 2.160 . S
Mn481 O485 2.221 1_554 S
Mn481 O487 2.163 . S
Mn481 O489 2.160 . S
Mn481 O499 2.221 . S
O482 Mn483 2.087 . S
O482 C494 1.256 1_554 S
Mn483 O482 2.087 . S
Mn483 O490 2.089 . S
Mn483 O499 2.290 . S
Mn483 O500 2.251 . S
O484 Mn481 2.160 . S
O484 C495 1.239 . S
O485 Mn481 2.221 1_556 S
O485 Mn486 2.290 . S
O485 C496 1.278 . S
Mn486 O485 2.290 . S
Mn486 O488 2.089 1_556 S
Mn486 O491 2.251 . S
Mn486 O492 2.087 . S
O487 Mn481 2.163 . S
O487 C497 1.244 1_554 S
O488 Mn486 2.089 1_554 S
O488 C495 1.256 . S
O489 Mn481 2.160 . S
O489 C498 1.239 . S
O490 Mn483 2.089 . S
O490 C498 1.256 . S
O491 Mn486 2.251 . S
O491 C496 1.241 . S
O492 Mn486 2.087 . S
O492 C497 1.256 . S
C493 O499 1.278 . S
C493 O500 1.241 . S
C494 O480 1.244 . S
C494 O482 1.256 1_556 S
C495 O484 1.239 . S
C495 O488 1.256 . S
C496 O485 1.278 . S
C496 O491 1.241 . S
C497 O487 1.244 1_556 S
C497 O492 1.256 . S
C498 O489 1.239 . S
C498 O490 1.256 . S
O499 Mn481 2.221 . S
O499 Mn483 2.290 . S
O499 C493 1.278 . S
O500 Mn483 2.251 . S
O500 C493 1.241 . S
O501 Mn502 2.163 . S
O501 C515 1.244 . S
Mn502 O501 2.163 . S
Mn502 O505 2.160 . S
Mn502 O506 2.221 . S
Mn502 O508 2.163 . S
Mn502 O510 2.160 . S
Mn502 O520 2.221 . S
O503 Mn504 2.087 . S
O503 C515 1.256 . S
Mn504 O503 2.087 . S
Mn504 O511 2.089 . S
Mn504 O520 2.290 . S
Mn504 O521 2.251 . S
O505 Mn502 2.160 . S
O505 C516 1.239 . S
O506 Mn502 2.221 . S
O506 Mn507 2.290 . S
O506 C517 1.278 . S
Mn507 O506 2.290 . S
Mn507 O509 2.089 . S
Mn507 O512 2.251 . S
Mn507 O513 2.087 . S
O508 Mn502 2.163 . S
O508 C518 1.244 . S
O509 Mn507 2.089 . S
O509 C516 1.256 . S
O510 Mn502 2.160 . S
O510 C519 1.239 . S
O511 Mn504 2.089 . S
O511 C519 1.256 . S
O512 Mn507 2.251 . S
O512 C517 1.241 . S
O513 Mn507 2.087 . S
O513 C518 1.256 . S
C514 O520 1.278 . S
C514 O521 1.241 . S
C515 O501 1.244 . S
C515 O503 1.256 . S
C516 O505 1.239 . S
C516 O509 1.256 . S
C517 O506 1.278 . S
C517 O512 1.241 . S
C518 O508 1.244 . S
C518 O513 1.256 . S
C519 O510 1.239 . S
C519 O511 1.256 . S
O520 Mn502 2.221 . S
O520 Mn504 2.290 . S
O520 C514 1.278 . S
O521 Mn504 2.251 . S
O521 C514 1.241 . S
O522 Mn523 2.163 1_655 S
O522 C536 1.244 . S
Mn523 O522 2.163 1_455 S
Mn523 O526 2.160 . S
Mn523 O527 2.221 1_455 S
Mn523 O529 2.163 . S
Mn523 O531 2.160 . S
Mn523 O541 2.221 . S
O524 Mn525 2.087 . S
O524 C536 1.256 1_455 S
Mn525 O524 2.087 . S
Mn525 O532 2.089 . S
Mn525 O541 2.290 . S
Mn525 O542 2.251 . S
O526 Mn523 2.160 . S
O526 C537 1.239 . S
O527 Mn523 2.221 1_655 S
O527 Mn528 2.290 . S
O527 C538 1.278 . S
Mn528 O527 2.290 . S
Mn528 O530 2.089 1_655 S
Mn528 O533 2.251 . S
Mn528 O534 2.087 . S
O529 Mn523 2.163 . S
O529 C539 1.244 1_455 S
O530 Mn528 2.089 1_455 S
O530 C537 1.256 . S
O531 Mn523 2.160 . S
O531 C540 1.239 . S
O532 Mn525 2.089 . S
O532 C540 1.256 . S
O533 Mn528 2.251 . S
O533 C538 1.241 . S
O534 Mn528 2.087 . S
O534 C539 1.256 . S
C535 O541 1.278 . S
C535 O542 1.241 . S
C536 O522 1.244 . S
C536 O524 1.256 1_655 S
C537 O526 1.239 . S
C537 O530 1.256 . S
C538 O527 1.278 . S
C538 O533 1.241 . S
C539 O529 1.244 1_655 S
C539 O534 1.256 . S
C540 O531 1.239 . S
C540 O532 1.256 . S
O541 Mn523 2.221 . S
O541 Mn525 2.290 . S
O541 C535 1.278 . S
O542 Mn525 2.251 . S
O542 C535 1.241 . S
O543 Mn544 2.163 . S
O543 C557 1.244 . S
Mn544 O543 2.163 . S
Mn544 O547 2.160 . S
Mn544 O548 2.221 . S
Mn544 O550 2.163 . S
Mn544 O552 2.160 . S
Mn544 O562 2.221 . S
O545 Mn546 2.087 . S
O545 C557 1.256 . S
Mn546 O545 2.087 . S
Mn546 O553 2.089 . S
Mn546 O562 2.290 . S
Mn546 O563 2.251 . S
O547 Mn544 2.160 . S
O547 C558 1.239 . S
O548 Mn544 2.221 . S
O548 Mn549 2.290 . S
O548 C559 1.278 . S
Mn549 O548 2.290 . S
Mn549 O551 2.089 . S
Mn549 O554 2.251 . S
Mn549 O555 2.087 . S
O550 Mn544 2.163 . S
O550 C560 1.244 . S
O551 Mn549 2.089 . S
O551 C558 1.256 . S
O552 Mn544 2.160 . S
O552 C561 1.239 . S
O553 Mn546 2.089 . S
O553 C561 1.256 . S
O554 Mn549 2.251 . S
O554 C559 1.241 . S
O555 Mn549 2.087 . S
O555 C560 1.256 . S
C556 O562 1.278 . S
C556 O563 1.241 . S
C557 O543 1.244 . S
C557 O545 1.256 . S
C558 O547 1.239 . S
C558 O551 1.256 . S
C559 O548 1.278 . S
C559 O554 1.241 . S
C560 O550 1.244 . S
C560 O555 1.256 . S
C561 O552 1.239 . S
C561 O553 1.256 . S
O562 Mn544 2.221 . S
O562 Mn546 2.290 . S
O562 C556 1.278 . S
O563 Mn546 2.251 . S
O563 C556 1.241 . S
O564 Mn565 2.163 . S
O564 C578 1.244 . S
Mn565 O564 2.163 . S
Mn565 O568 2.160 . S
Mn565 O569 2.221 . S
Mn565 O571 2.163 . S
Mn565 O573 2.160 . S
Mn565 O583 2.221 . S
O566 Mn567 2.087 . S
O566 C578 1.256 . S
Mn567 O566 2.087 . S
Mn567 O574 2.089 . S
Mn567 O583 2.290 . S
Mn567 O584 2.251 . S
O568 Mn565 2.160 . S
O568 C579 1.239 . S
O569 Mn565 2.221 . S
O569 Mn570 2.290 . S
O569 C580 1.278 . S
Mn570 O569 2.290 . S
Mn570 O572 2.089 . S
Mn570 O575 2.251 . S
Mn570 O576 2.087 . S
O571 Mn565 2.163 . S
O571 C581 1.244 . S
O572 Mn570 2.089 . S
O572 C579 1.256 . S
O573 Mn565 2.160 . S
O573 C582 1.239 . S
O574 Mn567 2.089 . S
O574 C582 1.256 . S
O575 Mn570 2.251 . S
O575 C580 1.241 . S
O576 Mn570 2.087 . S
O576 C581 1.256 . S
C577 O583 1.278 . S
C577 O584 1.241 . S
C578 O564 1.244 . S
C578 O566 1.256 . S
C579 O568 1.239 . S
C579 O572 1.256 . S
C580 O569 1.278 . S
C580 O575 1.241 . S
C581 O571 1.244 . S
C581 O576 1.256 . S
C582 O573 1.239 . S
C582 O574 1.256 . S
O583 Mn565 2.221 . S
O583 Mn567 2.290 . S
O583 C577 1.278 . S
O584 Mn567 2.251 . S
O584 C577 1.241 . S
O585 Mn586 2.163 . S
O585 C599 1.244 . S
Mn586 O585 2.163 . S
Mn586 O589 2.160 . S
Mn586 O590 2.221 . S
Mn586 O592 2.163 . S
Mn586 O594 2.160 . S
Mn586 O604 2.221 . S
O587 Mn588 2.087 . S
O587 C599 1.256 . S
Mn588 O587 2.087 . S
Mn588 O595 2.089 . S
Mn588 O604 2.290 . S
Mn588 O605 2.251 . S
O589 Mn586 2.160 . S
O589 C600 1.239 . S
O590 Mn586 2.221 . S
O590 Mn591 2.290 . S
O590 C601 1.278 . S
Mn591 O590 2.290 . S
Mn591 O593 2.089 . S
Mn591 O596 2.251 . S
Mn591 O597 2.087 . S
O592 Mn586 2.163 . S
O592 C602 1.244 . S
O593 Mn591 2.089 . S
O593 C600 1.256 . S
O594 Mn586 2.160 . S
O594 C603 1.239 . S
O595 Mn588 2.089 . S
O595 C603 1.256 . S
O596 Mn591 2.251 . S
O596 C601 1.241 . S
O597 Mn591 2.087 . S
O597 C602 1.256 . S
C598 O604 1.278 . S
C598 O605 1.241 . S
C599 O585 1.244 . S
C599 O587 1.256 . S
C600 O589 1.239 . S
C600 O593 1.256 . S
C601 O590 1.278 . S
C601 O596 1.241 . S
C602 O592 1.244 . S
C602 O597 1.256 . S
C603 O594 1.239 . S
C603 O595 1.256 . S
O604 Mn586 2.221 . S
O604 Mn588 2.290 . S
O604 C598 1.278 . S
O605 Mn588 2.251 . S
O605 C598 1.241 . S
O606 Mn607 2.163 . S
O606 C620 1.244 . S
Mn607 O606 2.163 . S
Mn607 O610 2.160 . S
Mn607 O611 2.221 . S
Mn607 O613 2.163 . S
Mn607 O615 2.160 . S
Mn607 O625 2.221 . S
O608 Mn609 2.087 . S
O608 C620 1.256 . S
Mn609 O608 2.087 . S
Mn609 O616 2.089 . S
Mn609 O625 2.290 . S
Mn609 O626 2.251 . S
O610 Mn607 2.160 . S
O610 C621 1.239 . S
O611 Mn607 2.221 . S
O611 Mn612 2.290 . S
O611 C622 1.278 . S
Mn612 O611 2.290 . S
Mn612 O614 2.089 . S
Mn612 O617 2.251 . S
Mn612 O618 2.087 . S
O613 Mn607 2.163 . S
O613 C623 1.244 . S
O614 Mn612 2.089 . S
O614 C621 1.256 . S
O615 Mn607 2.160 . S
O615 C624 1.239 . S
O616 Mn609 2.089 . S
O616 C624 1.256 . S
O617 Mn612 2.251 . S
O617 C622 1.241 . S
O618 Mn612 2.087 . S
O618 C623 1.256 . S
C619 O625 1.278 . S
C619 O626 1.241 . S
C620 O606 1.244 . S
C620 O608 1.256 . S
C621 O610 1.239 . S
C621 O614 1.256 . S
C622 O611 1.278 . S
C622 O617 1.241 . S
C623 O613 1.244 . S
C623 O618 1.256 . S
C624 O615 1.239 . S
C624 O616 1.256 . S
O625 Mn607 2.221 . S
O625 Mn609 2.290 . S
O625 C619 1.278 . S
O626 Mn609 2.251 . S
O626 C619 1.241 . S
O627 Mn628 2.163 1_656 S
O627 C641 1.244 . S
Mn628 O627 2.163 1_454 S
Mn628 O631 2.160 . S
Mn628 O632 2.221 . S
Mn628 O634 2.163 1_554 S
Mn628 O636 2.160 . S
Mn628 O646 2.221 1_454 S
O629 Mn630 2.087 1_556 S
O629 C641 1.256 . S
Mn630 O629 2.087 1_554 S
Mn630 O637 2.089 . S
Mn630 O646 2.290 1_554 S
Mn630 O647 2.251 1_554 S
O631 Mn628 2.160 . S
O631 C642 1.239 . S
O632 Mn628 2.221 . S
O632 Mn633 2.290 1_554 S
O632 C643 1.278 . S
Mn633 O632 2.290 1_556 S
Mn633 O635 2.089 . S
Mn633 O638 2.250 1_556 S
Mn633 O639 2.087 . S
O634 Mn628 2.163 1_556 S
O634 C644 1.244 . S
O635 Mn633 2.089 . S
O635 C642 1.256 1_556 S
O636 Mn628 2.160 . S
O636 C645 1.239 1_455 S
O637 Mn630 2.089 . S
O637 C645 1.256 . S
O638 Mn633 2.250 1_554 S
O638 C643 1.245 . S
O639 Mn633 2.087 . S
O639 C644 1.256 . S
C640 O646 1.278 . S
C640 O647 1.241 . S
C641 O627 1.244 . S
C641 O629 1.256 . S
C642 O631 1.239 . S
C642 O635 1.256 1_554 S
C643 O632 1.278 . S
C643 O638 1.245 . S
C644 O634 1.244 . S
C644 O639 1.256 . S
C645 O636 1.239 1_655 S
C645 O637 1.256 . S
O646 Mn628 2.221 1_656 S
O646 Mn630 2.290 1_556 S
O646 C640 1.278 . S
O647 Mn630 2.251 1_556 S
O647 C640 1.241 . S
H648 C656 0.950 . S
H649 C661 0.950 . S
H650 C658 0.950 . S
H651 C660 0.950 . S
H652 C662 0.950 . S
H653 C664 0.950 . S
H654 C666 0.950 . S
H655 C667 0.950 . S
C656 H648 0.950 . S
C656 C657 1.371 1_455 S
C656 C658 1.391 . S
C657 C656 1.371 1_655 S
C657 C661 1.408 . S
C658 H650 0.950 . S
C658 C656 1.391 . S
C658 C659 1.400 1_455 S
C659 C658 1.400 1_655 S
C659 C660 1.398 . S
C659 C665 1.491 . S
C660 H651 0.950 . S
C660 C659 1.398 . S
C660 C661 1.391 . S
C661 H649 0.950 . S
C661 C657 1.408 . S
C661 C660 1.391 . S
C662 H652 0.950 . S
C662 C663 1.386 . S
C662 C664 1.391 . S
C663 C662 1.386 . S
C663 C667 1.393 1_655 S
C664 H653 0.950 . S
C664 C662 1.391 . S
C664 C665 1.400 . S
C665 C659 1.491 . S
C665 C664 1.400 . S
C665 C666 1.398 1_655 S
C666 H654 0.950 . S
C666 C665 1.398 1_455 S
C666 C667 1.391 . S
C667 H655 0.950 . S
C667 C663 1.393 1_455 S
C667 C666 1.391 . S
H668 C676 0.950 . S
H669 C681 0.950 . S
H670 C678 0.950 . S
H671 C680 0.950 . S
H672 C682 0.950 . S
H673 C684 0.950 . S
H674 C686 0.950 . S
H675 C687 0.950 . S
C676 H668 0.950 . S
C676 C677 1.386 . S
C676 C678 1.391 . S
C677 C676 1.386 . S
C677 C681 1.393 . S
C678 H670 0.950 . S
C678 C676 1.391 . S
C678 C679 1.400 . S
C679 C678 1.400 . S
C679 C680 1.398 . S
C679 C685 1.491 . S
C680 H671 0.950 . S
C680 C679 1.398 . S
C680 C681 1.391 . S
C681 H669 0.950 . S
C681 C677 1.393 . S
C681 C680 1.391 . S
C682 H672 0.950 . S
C682 C683 1.386 . S
C682 C684 1.391 . S
C683 C682 1.386 . S
C683 C687 1.393 . S
C684 H673 0.950 . S
C684 C682 1.391 . S
C684 C685 1.400 . S
C685 C679 1.491 . S
C685 C684 1.400 . S
C685 C686 1.398 . S
C686 H674 0.950 . S
C686 C685 1.398 . S
C686 C687 1.391 . S
C687 H675 0.950 . S
C687 C683 1.393 . S
C687 C686 1.391 . S
H688 C696 0.950 . S
H689 C701 0.950 . S
H690 C698 0.950 . S
H691 C700 0.950 . S
H692 C702 0.950 . S
H693 C704 0.950 . S
H694 C706 0.950 . S
H695 C707 0.950 . S
C696 H688 0.950 . S
C696 C697 1.386 . S
C696 C698 1.391 . S
C697 C696 1.386 . S
C697 C701 1.393 . S
C698 H690 0.950 . S
C698 C696 1.391 . S
C698 C699 1.400 . S
C699 C698 1.400 . S
C699 C700 1.398 . S
C699 C705 1.491 . S
C700 H691 0.950 . S
C700 C699 1.398 . S
C700 C701 1.391 . S
C701 H689 0.950 . S
C701 C697 1.393 . S
C701 C700 1.391 . S
C702 H692 0.950 . S
C702 C703 1.386 . S
C702 C704 1.391 . S
C703 C702 1.386 . S
C703 C707 1.393 . S
C704 H693 0.950 . S
C704 C702 1.391 . S
C704 C705 1.400 . S
C705 C699 1.491 . S
C705 C704 1.400 . S
C705 C706 1.398 . S
C706 H694 0.950 . S
C706 C705 1.398 . S
C706 C707 1.391 . S
C707 H695 0.950 . S
C707 C703 1.393 . S
C707 C706 1.391 . S
H708 C716 0.950 . S
H709 C721 0.950 . S
H710 C718 0.950 . S
H711 C720 0.950 . S
H712 C722 0.950 . S
H713 C724 0.950 . S
H714 C726 0.950 . S
H715 C727 0.950 . S
C716 H708 0.950 . S
C716 C717 1.386 . S
C716 C718 1.391 . S
C717 C716 1.386 . S
C717 C721 1.393 . S
C718 H710 0.950 . S
C718 C716 1.391 . S
C718 C719 1.400 . S
C719 C718 1.400 . S
C719 C720 1.398 . S
C719 C725 1.491 . S
C720 H711 0.950 . S
C720 C719 1.398 . S
C720 C721 1.391 . S
C721 H709 0.950 . S
C721 C717 1.393 . S
C721 C720 1.391 . S
C722 H712 0.950 . S
C722 C723 1.386 . S
C722 C724 1.391 . S
C723 C722 1.386 . S
C723 C727 1.393 . S
C724 H713 0.950 . S
C724 C722 1.391 . S
C724 C725 1.400 . S
C725 C719 1.491 . S
C725 C724 1.400 . S
C725 C726 1.398 . S
C726 H714 0.950 . S
C726 C725 1.398 . S
C726 C727 1.391 . S
C727 H715 0.950 . S
C727 C723 1.393 . S
C727 C726 1.391 . S
H728 C736 0.950 . S
H729 C741 0.950 . S
H730 C738 0.950 . S
H731 C740 0.950 . S
H732 C742 0.950 . S
H733 C744 0.950 . S
H734 C746 0.950 . S
H735 C747 0.950 . S
C736 H728 0.950 . S
C736 C737 1.386 1_655 S
C736 C738 1.391 . S
C737 C736 1.386 1_455 S
C737 C741 1.393 . S
C738 H730 0.950 . S
C738 C736 1.391 . S
C738 C739 1.398 . S
C739 C738 1.398 . S
C739 C740 1.401 1_655 S
C739 C745 1.491 . S
C740 H731 0.950 . S
C740 C739 1.401 1_455 S
C740 C741 1.391 . S
C741 H729 0.950 . S
C741 C737 1.393 . S
C741 C740 1.391 . S
C742 H732 0.950 . S
C742 C743 1.386 1_455 S
C742 C744 1.391 . S
C743 C742 1.386 1_655 S
C743 C747 1.393 . S
C744 H733 0.950 . S
C744 C742 1.391 . S
C744 C745 1.398 1_455 S
C745 C739 1.491 . S
C745 C744 1.398 1_655 S
C745 C746 1.400 . S
C746 H734 0.950 . S
C746 C745 1.400 . S
C746 C747 1.391 . S
C747 H735 0.950 . S
C747 C743 1.393 . S
C747 C746 1.391 . S
H748 C756 0.950 . S
H749 C761 0.950 . S
H750 C758 0.950 . S
H751 C760 0.950 . S
H752 C762 0.950 . S
H753 C764 0.950 . S
H754 C766 0.950 . S
H755 C767 0.950 . S
C756 H748 0.950 . S
C756 C757 1.386 . S
C756 C758 1.391 . S
C757 C756 1.386 . S
C757 C761 1.393 . S
C758 H750 0.950 . S
C758 C756 1.391 . S
C758 C759 1.400 . S
C759 C758 1.400 . S
C759 C760 1.398 . S
C759 C765 1.491 . S
C760 H751 0.950 . S
C760 C759 1.398 . S
C760 C761 1.391 . S
C761 H749 0.950 . S
C761 C757 1.393 . S
C761 C760 1.391 . S
C762 H752 0.950 . S
C762 C763 1.386 . S
C762 C764 1.391 . S
C763 C762 1.386 . S
C763 C767 1.393 . S
C764 H753 0.950 . S
C764 C762 1.391 . S
C764 C765 1.400 . S
C765 C759 1.491 . S
C765 C764 1.400 . S
C765 C766 1.398 . S
C766 H754 0.950 . S
C766 C765 1.398 . S
C766 C767 1.391 . S
C767 H755 0.950 . S
C767 C763 1.393 . S
C767 C766 1.391 . S
H768 C776 0.950 . S
H769 C781 0.950 . S
H770 C778 0.950 . S
H771 C780 0.950 . S
H772 C782 0.950 . S
H773 C784 0.950 . S
H774 C786 0.950 . S
H775 C787 0.950 . S
C776 H768 0.950 . S
C776 C777 1.386 . S
C776 C778 1.391 . S
C777 C776 1.386 . S
C777 C781 1.393 . S
C778 H770 0.950 . S
C778 C776 1.391 . S
C778 C779 1.400 . S
C779 C778 1.400 . S
C779 C780 1.398 . S
C779 C785 1.491 . S
C780 H771 0.950 . S
C780 C779 1.398 . S
C780 C781 1.391 . S
C781 H769 0.950 . S
C781 C777 1.393 . S
C781 C780 1.391 . S
C782 H772 0.950 . S
C782 C783 1.386 . S
C782 C784 1.391 . S
C783 C782 1.386 . S
C783 C787 1.393 . S
C784 H773 0.950 . S
C784 C782 1.391 . S
C784 C785 1.400 . S
C785 C779 1.491 . S
C785 C784 1.400 . S
C785 C786 1.398 . S
C786 H774 0.950 . S
C786 C785 1.398 . S
C786 C787 1.391 . S
C787 H775 0.950 . S
C787 C783 1.393 . S
C787 C786 1.391 . S
H788 C796 0.950 . S
H789 C801 0.950 . S
H790 C798 0.950 . S
H791 C800 0.950 . S
H792 C802 0.950 . S
H793 C804 0.950 . S
H794 C806 0.950 . S
H795 C807 0.950 . S
C796 H788 0.950 . S
C796 C797 1.386 . S
C796 C798 1.391 . S
C797 C796 1.386 . S
C797 C801 1.393 . S
C798 H790 0.950 . S
C798 C796 1.391 . S
C798 C799 1.400 . S
C799 C798 1.400 . S
C799 C800 1.398 . S
C799 C805 1.491 . S
C800 H791 0.950 . S
C800 C799 1.398 . S
C800 C801 1.391 . S
C801 H789 0.950 . S
C801 C797 1.393 . S
C801 C800 1.391 . S
C802 H792 0.950 . S
C802 C803 1.386 . S
C802 C804 1.391 . S
C803 C802 1.386 . S
C803 C807 1.393 . S
C804 H793 0.950 . S
C804 C802 1.391 . S
C804 C805 1.400 . S
C805 C799 1.491 . S
C805 C804 1.400 . S
C805 C806 1.398 . S
C806 H794 0.950 . S
C806 C805 1.398 . S
C806 C807 1.391 . S
C807 H795 0.950 . S
C807 C803 1.393 . S
C807 C806 1.391 . S
H808 C816 0.950 . S
H809 C821 0.950 . S
H810 C818 0.950 . S
H811 C820 0.950 . S
H812 C822 0.950 . S
H813 C824 0.950 . S
H814 C826 0.950 . S
H815 C827 0.950 . S
C816 H808 0.950 . S
C816 C817 1.386 . S
C816 C818 1.391 . S
C817 C816 1.386 . S
C817 C821 1.393 1_565 S
C818 H810 0.950 . S
C818 C816 1.391 . S
C818 C819 1.400 . S
C819 C818 1.400 . S
C819 C820 1.398 1_565 S
C819 C825 1.491 . S
C820 H811 0.950 . S
C820 C819 1.398 1_545 S
C820 C821 1.391 . S
C821 H809 0.950 . S
C821 C817 1.393 1_545 S
C821 C820 1.391 . S
C822 H812 0.950 . S
C822 C823 1.386 1_545 S
C822 C824 1.391 . S
C823 C822 1.386 1_565 S
C823 C827 1.393 . S
C824 H813 0.950 . S
C824 C822 1.391 . S
C824 C825 1.400 1_545 S
C825 C819 1.491 . S
C825 C824 1.400 1_565 S
C825 C826 1.398 . S
C826 H814 0.950 . S
C826 C825 1.398 . S
C826 C827 1.391 . S
C827 H815 0.950 . S
C827 C823 1.393 . S
C827 C826 1.391 . S
H828 C836 0.950 . S
H829 C841 0.950 . S
H830 C838 0.950 . S
H831 C840 0.950 . S
H832 C842 0.950 . S
H833 C844 0.950 . S
H834 C846 0.950 . S
H835 C847 0.950 . S
C836 H828 0.950 . S
C836 C837 1.386 . S
C836 C838 1.391 . S
C837 C836 1.386 . S
C837 C841 1.393 . S
C838 H830 0.950 . S
C838 C836 1.391 . S
C838 C839 1.400 . S
C839 C838 1.400 . S
C839 C840 1.398 . S
C839 C845 1.491 . S
C840 H831 0.950 . S
C840 C839 1.398 . S
C840 C841 1.391 . S
C841 H829 0.950 . S
C841 C837 1.393 . S
C841 C840 1.391 . S
C842 H832 0.950 . S
C842 C843 1.386 . S
C842 C844 1.391 . S
C843 C842 1.386 . S
C843 C847 1.393 . S
C844 H833 0.950 . S
C844 C842 1.391 . S
C844 C845 1.400 . S
C845 C839 1.491 . S
C845 C844 1.400 . S
C845 C846 1.398 . S
C846 H834 0.950 . S
C846 C845 1.398 . S
C846 C847 1.391 . S
C847 H835 0.950 . S
C847 C843 1.393 . S
C847 C846 1.391 . S
H848 C856 0.950 . S
H849 C861 0.950 . S
H850 C858 0.950 . S
H851 C860 0.950 . S
H852 C862 0.950 . S
H853 C864 0.950 . S
H854 C866 0.950 . S
H855 C867 0.951 . S
C856 H848 0.950 . S
C856 C857 1.386 1_565 S
C856 C858 1.391 . S
C857 C856 1.386 1_545 S
C857 C861 1.393 . S
C858 H850 0.950 . S
C858 C856 1.391 . S
C858 C859 1.400 1_565 S
C859 C858 1.400 1_545 S
C859 C860 1.398 . S
C859 C865 1.491 . S
C860 H851 0.950 . S
C860 C859 1.398 . S
C860 C861 1.391 . S
C861 H849 0.950 . S
C861 C857 1.393 . S
C861 C860 1.391 . S
C862 H852 0.950 . S
C862 C863 1.386 . S
C862 C864 1.391 . S
C863 C862 1.386 . S
C863 C867 1.392 1_545 S
C864 H853 0.950 . S
C864 C862 1.391 . S
C864 C865 1.400 . S
C865 C859 1.491 . S
C865 C864 1.400 . S
C865 C866 1.398 1_545 S
C866 H854 0.950 . S
C866 C865 1.398 1_565 S
C866 C867 1.391 . S
C867 H855 0.951 . S
C867 C863 1.392 1_565 S
C867 C866 1.391 . S
H868 C876 0.950 . S
H869 C881 0.950 . S
H870 C878 0.950 . S
H871 C880 0.950 . S
H872 C882 0.950 . S
H873 C884 0.950 . S
H874 C886 0.950 . S
H875 C887 0.950 . S
C876 H868 0.950 . S
C876 C877 1.386 . S
C876 C878 1.391 . S
C877 C876 1.386 . S
C877 C881 1.393 . S
C878 H870 0.950 . S
C878 C876 1.391 . S
C878 C879 1.400 . S
C879 C878 1.400 . S
C879 C880 1.398 . S
C879 C885 1.491 . S
C880 H871 0.950 . S
C880 C879 1.398 . S
C880 C881 1.391 . S
C881 H869 0.950 . S
C881 C877 1.393 . S
C881 C880 1.391 . S
C882 H872 0.950 . S
C882 C883 1.386 . S
C882 C884 1.391 . S
C883 C882 1.386 . S
C883 C887 1.393 . S
C884 H873 0.950 . S
C884 C882 1.391 . S
C884 C885 1.400 . S
C885 C879 1.491 . S
C885 C884 1.400 . S
C885 C886 1.398 . S
C886 H874 0.950 . S
C886 C885 1.398 . S
C886 C887 1.391 . S
C887 H875 0.950 . S
C887 C883 1.393 . S
C887 C886 1.391 . S
H888 C896 0.950 . S
H889 C901 0.950 . S
H890 C898 0.950 . S
H891 C900 0.950 . S
H892 C902 0.950 . S
H893 C904 0.950 . S
H894 C906 0.950 . S
H895 C907 0.950 . S
C896 H888 0.950 . S
C896 C897 1.386 . S
C896 C898 1.391 . S
C897 C896 1.386 . S
C897 C901 1.393 . S
C898 H890 0.950 . S
C898 C896 1.391 . S
C898 C899 1.400 . S
C899 C898 1.400 . S
C899 C900 1.398 . S
C899 C905 1.491 . S
C900 H891 0.950 . S
C900 C899 1.398 . S
C900 C901 1.391 . S
C901 H889 0.950 . S
C901 C897 1.393 . S
C901 C900 1.391 . S
C902 H892 0.950 . S
C902 C903 1.386 . S
C902 C904 1.391 . S
C903 C902 1.386 . S
C903 C907 1.393 . S
C904 H893 0.950 . S
C904 C902 1.391 . S
C904 C905 1.400 . S
C905 C899 1.491 . S
C905 C904 1.400 . S
C905 C906 1.398 . S
C906 H894 0.950 . S
C906 C905 1.398 . S
C906 C907 1.391 . S
C907 H895 0.950 . S
C907 C903 1.393 . S
C907 C906 1.391 . S
H908 C916 0.950 . S
H909 C921 0.950 . S
H910 C918 0.950 . S
H911 C920 0.950 . S
H912 C922 0.950 . S
H913 C924 0.950 . S
H914 C926 0.950 . S
H915 C927 0.950 . S
C916 H908 0.950 . S
C916 C917 1.386 . S
C916 C918 1.391 . S
C917 C916 1.386 . S
C917 C921 1.393 . S
C918 H910 0.950 . S
C918 C916 1.391 . S
C918 C919 1.400 . S
C919 C918 1.400 . S
C919 C920 1.398 . S
C919 C925 1.491 . S
C920 H911 0.950 . S
C920 C919 1.398 . S
C920 C921 1.391 . S
C921 H909 0.950 . S
C921 C917 1.393 . S
C921 C920 1.391 . S
C922 H912 0.950 . S
C922 C923 1.386 . S
C922 C924 1.391 . S
C923 C922 1.386 . S
C923 C927 1.393 . S
C924 H913 0.950 . S
C924 C922 1.391 . S
C924 C925 1.400 . S
C925 C919 1.491 . S
C925 C924 1.400 . S
C925 C926 1.398 . S
C926 H914 0.950 . S
C926 C925 1.398 . S
C926 C927 1.391 . S
C927 H915 0.950 . S
C927 C923 1.393 . S
C927 C926 1.391 . S
H928 C936 0.950 . S
H929 C941 0.950 . S
H930 C938 0.950 . S
H931 C940 0.950 . S
H932 C942 0.950 . S
H933 C944 0.950 . S
H934 C946 0.950 . S
H935 C947 0.950 . S
C936 H928 0.950 . S
C936 C937 1.386 . S
C936 C938 1.391 . S
C937 C936 1.386 . S
C937 C941 1.393 1_545 S
C938 H930 0.950 . S
C938 C936 1.391 . S
C938 C939 1.400 1_545 S
C939 C938 1.400 1_565 S
C939 C940 1.398 . S
C939 C945 1.491 . S
C940 H931 0.950 . S
C940 C939 1.398 . S
C940 C941 1.391 . S
C941 H929 0.950 . S
C941 C937 1.393 1_565 S
C941 C940 1.391 . S
C942 H932 0.950 . S
C942 C943 1.386 . S
C942 C944 1.391 . S
C943 C942 1.386 . S
C943 C947 1.393 1_565 S
C944 H933 0.950 . S
C944 C942 1.391 . S
C944 C945 1.400 . S
C945 C939 1.491 . S
C945 C944 1.400 . S
C945 C946 1.398 1_565 S
C946 H934 0.950 . S
C946 C945 1.398 1_545 S
C946 C947 1.391 . S
C947 H935 0.950 . S
C947 C943 1.393 1_545 S
C947 C946 1.391 . S
H948 C956 0.950 . S
H949 C961 0.950 . S
H950 C958 0.950 . S
H951 C960 0.950 . S
H952 C962 0.950 . S
H953 C964 0.950 . S
H954 C966 0.950 . S
H955 C967 0.950 . S
C956 H948 0.950 . S
C956 C957 1.386 . S
C956 C958 1.391 . S
C957 C956 1.386 . S
C957 C961 1.393 . S
C958 H950 0.950 . S
C958 C956 1.391 . S
C958 C959 1.400 . S
C959 C958 1.400 . S
C959 C960 1.398 . S
C959 C965 1.491 . S
C960 H951 0.950 . S
C960 C959 1.398 . S
C960 C961 1.391 . S
C961 H949 0.950 . S
C961 C957 1.393 . S
C961 C960 1.391 . S
C962 H952 0.950 . S
C962 C963 1.386 . S
C962 C964 1.391 . S
C963 C962 1.386 . S
C963 C967 1.393 . S
C964 H953 0.950 . S
C964 C962 1.391 . S
C964 C965 1.400 . S
C965 C959 1.491 . S
C965 C964 1.400 . S
C965 C966 1.398 . S
C966 H954 0.950 . S
C966 C965 1.398 . S
C966 C967 1.391 . S
C967 H955 0.950 . S
C967 C963 1.393 . S
C967 C966 1.391 . S
H968 C976 0.950 . S
H969 C981 0.950 . S
H970 C978 0.950 . S
H971 C980 0.950 . S
H972 C982 0.950 . S
H973 C984 0.950 . S
H974 C986 0.950 . S
H975 C987 0.950 . S
C976 H968 0.950 . S
C976 C977 1.382 1_554 S
C976 C978 1.391 . S
C977 C976 1.382 1_556 S
C977 C981 1.397 . S
C978 H970 0.950 . S
C978 C976 1.391 . S
C978 C979 1.400 1_554 S
C979 C978 1.400 1_556 S
C979 C980 1.398 . S
C979 C985 1.491 . S
C980 H971 0.950 . S
C980 C979 1.398 . S
C980 C981 1.391 . S
C981 H969 0.950 . S
C981 C977 1.397 . S
C981 C980 1.391 . S
C982 H972 0.950 . S
C982 C983 1.386 . S
C982 C984 1.391 . S
C983 C982 1.386 . S
C983 C987 1.393 1_556 S
C984 H973 0.950 . S
C984 C982 1.391 . S
C984 C985 1.400 . S
C985 C979 1.491 . S
C985 C984 1.400 . S
C985 C986 1.398 1_556 S
C986 H974 0.950 . S
C986 C985 1.398 1_554 S
C986 C987 1.391 . S
C987 H975 0.950 . S
C987 C983 1.393 1_554 S
C987 C986 1.391 . S
H988 C996 0.950 . S
H989 C1001 0.950 1_556 S
H990 C998 0.950 . S
H991 C1000 0.938 1_556 S
H992 C1002 0.950 . S
H993 C1004 0.950 . S
H994 C1006 0.950 . S
H995 C1007 0.950 . S
C996 H988 0.950 . S
C996 C997 1.386 . S
C996 C998 1.391 . S
C997 C996 1.386 . S
C997 C1001 1.393 . S
C998 H990 0.950 . S
C998 C996 1.391 . S
C998 C999 1.400 . S
C999 C998 1.400 . S
C999 C1000 1.398 . S
C999 C1005 1.491 . S
C1000 H991 0.938 1_554 S
C1000 C999 1.398 . S
C1000 C1001 1.391 . S
C1001 H989 0.950 1_554 S
C1001 C997 1.393 . S
C1001 C1000 1.391 . S
C1002 H992 0.950 . S
C1002 C1003 1.386 . S
C1002 C1004 1.391 . S
C1003 C1002 1.386 . S
C1003 C1007 1.393 . S
C1004 H993 0.950 . S
C1004 C1002 1.391 . S
C1004 C1005 1.400 . S
C1005 C999 1.491 . S
C1005 C1004 1.400 . S
C1005 C1006 1.398 . S
C1006 H994 0.950 . S
C1006 C1005 1.398 . S
C1006 C1007 1.391 . S
C1007 H995 0.950 . S
C1007 C1003 1.393 . S
C1007 C1006 1.391 . S
H1008 C1016 0.950 . S
H1009 C1021 0.950 . S
H1010 C1018 0.950 . S
H1011 C1020 0.950 . S
H1012 C1022 0.950 . S
H1013 C1024 0.950 . S
H1014 C1026 0.950 . S
H1015 C1027 0.950 . S
C1016 H1008 0.950 . S
C1016 C1017 1.386 . S
C1016 C1018 1.391 . S
C1017 C1016 1.386 . S
C1017 C1021 1.393 . S
C1018 H1010 0.950 . S
C1018 C1016 1.391 . S
C1018 C1019 1.400 . S
C1019 C1018 1.400 . S
C1019 C1020 1.398 . S
C1019 C1025 1.491 . S
C1020 H1011 0.950 . S
C1020 C1019 1.398 . S
C1020 C1021 1.391 . S
C1021 H1009 0.950 . S
C1021 C1017 1.393 . S
C1021 C1020 1.391 . S
C1022 H1012 0.950 . S
C1022 C1023 1.386 . S
C1022 C1024 1.391 . S
C1023 C1022 1.386 . S
C1023 C1027 1.393 . S
C1024 H1013 0.950 . S
C1024 C1022 1.391 . S
C1024 C1025 1.400 . S
C1025 C1019 1.491 . S
C1025 C1024 1.400 . S
C1025 C1026 1.398 . S
C1026 H1014 0.950 . S
C1026 C1025 1.398 . S
C1026 C1027 1.391 . S
C1027 H1015 0.950 . S
C1027 C1023 1.393 . S
C1027 C1026 1.391 . S
H1028 C1036 0.950 . S
H1029 C1041 0.950 . S
H1030 C1038 0.950 . S
H1031 C1040 0.950 . S
H1032 C1042 0.950 . S
H1033 C1044 0.950 . S
H1034 C1046 0.950 . S
H1035 C1047 0.950 . S
C1036 H1028 0.950 . S
C1036 C1037 1.386 . S
C1036 C1038 1.391 . S
C1037 C1036 1.386 . S
C1037 C1041 1.393 . S
C1038 H1030 0.950 . S
C1038 C1036 1.391 . S
C1038 C1039 1.400 . S
C1039 C1038 1.400 . S
C1039 C1040 1.398 . S
C1039 C1045 1.491 . S
C1040 H1031 0.950 . S
C1040 C1039 1.398 . S
C1040 C1041 1.391 . S
C1041 H1029 0.950 . S
C1041 C1037 1.393 . S
C1041 C1040 1.391 . S
C1042 H1032 0.950 . S
C1042 C1043 1.386 . S
C1042 C1044 1.391 . S
C1043 C1042 1.386 . S
C1043 C1047 1.393 . S
C1044 H1033 0.950 . S
C1044 C1042 1.391 . S
C1044 C1045 1.400 . S
C1045 C1039 1.491 . S
C1045 C1044 1.400 . S
C1045 C1046 1.398 . S
C1046 H1034 0.950 . S
C1046 C1045 1.398 . S
C1046 C1047 1.391 . S
C1047 H1035 0.950 . S
C1047 C1043 1.393 . S
C1047 C1046 1.391 . S
H1048 C1056 0.950 . S
H1049 C1061 0.950 . S
H1050 C1058 0.950 . S
H1051 C1060 0.950 . S
H1052 C1062 0.950 . S
H1053 C1064 0.950 . S
H1054 C1066 0.950 . S
H1055 C1067 0.950 . S
C1056 H1048 0.950 . S
C1056 C1057 1.386 . S
C1056 C1058 1.391 . S
C1057 C1056 1.386 . S
C1057 C1061 1.393 . S
C1058 H1050 0.950 . S
C1058 C1056 1.391 . S
C1058 C1059 1.400 . S
C1059 C1058 1.400 . S
C1059 C1060 1.398 . S
C1059 C1065 1.491 . S
C1060 H1051 0.950 . S
C1060 C1059 1.398 . S
C1060 C1061 1.391 . S
C1061 H1049 0.950 . S
C1061 C1057 1.393 . S
C1061 C1060 1.391 . S
C1062 H1052 0.950 . S
C1062 C1063 1.386 . S
C1062 C1064 1.391 . S
C1063 C1062 1.386 . S
C1063 C1067 1.393 . S
C1064 H1053 0.950 . S
C1064 C1062 1.391 . S
C1064 C1065 1.400 . S
C1065 C1059 1.491 . S
C1065 C1064 1.400 . S
C1065 C1066 1.398 . S
C1066 H1054 0.950 . S
C1066 C1065 1.398 . S
C1066 C1067 1.391 . S
C1067 H1055 0.950 . S
C1067 C1063 1.393 . S
C1067 C1066 1.391 . S
H1068 C1076 0.950 . S
H1069 C1081 0.950 . S
H1070 C1078 0.950 . S
H1071 C1080 0.950 . S
H1072 C1082 0.950 1_545 S
H1073 C1084 0.950 . S
H1074 C1086 0.950 . S
H1075 C1087 0.950 . S
C1076 H1068 0.950 . S
C1076 C1077 1.386 . S
C1076 C1078 1.391 . S
C1077 C1076 1.386 . S
C1077 C1081 1.393 . S
C1078 H1070 0.950 . S
C1078 C1076 1.391 . S
C1078 C1079 1.400 . S
C1079 C1078 1.400 . S
C1079 C1080 1.398 . S
C1079 C1085 1.491 . S
C1080 H1071 0.950 . S
C1080 C1079 1.398 . S
C1080 C1081 1.391 . S
C1081 H1069 0.950 . S
C1081 C1077 1.393 . S
C1081 C1080 1.391 . S
C1082 H1072 0.950 1_565 S
C1082 C1083 1.386 . S
C1082 C1084 1.391 . S
C1083 C1082 1.386 . S
C1083 C1087 1.393 . S
C1084 H1073 0.950 . S
C1084 C1082 1.391 . S
C1084 C1085 1.400 . S
C1085 C1079 1.491 . S
C1085 C1084 1.400 . S
C1085 C1086 1.398 . S
C1086 H1074 0.950 . S
C1086 C1085 1.398 . S
C1086 C1087 1.391 . S
C1087 H1075 0.950 . S
C1087 C1083 1.393 . S
C1087 C1086 1.391 . S
H1088 C1096 0.950 . S
H1089 C1101 0.950 . S
H1090 C1098 0.950 . S
H1091 C1100 0.950 . S
H1092 C1102 0.950 . S
H1093 C1104 0.950 . S
H1094 C1106 0.950 . S
H1095 C1107 0.950 . S
C1096 H1088 0.950 . S
C1096 C1097 1.386 . S
C1096 C1098 1.391 . S
C1097 C1096 1.386 . S
C1097 C1101 1.393 . S
C1098 H1090 0.950 . S
C1098 C1096 1.391 . S
C1098 C1099 1.400 . S
C1099 C1098 1.400 . S
C1099 C1100 1.398 . S
C1099 C1105 1.491 . S
C1100 H1091 0.950 . S
C1100 C1099 1.398 . S
C1100 C1101 1.391 . S
C1101 H1089 0.950 . S
C1101 C1097 1.393 . S
C1101 C1100 1.391 . S
C1102 H1092 0.950 . S
C1102 C1103 1.386 . S
C1102 C1104 1.391 . S
C1103 C1102 1.386 . S
C1103 C1107 1.393 . S
C1104 H1093 0.950 . S
C1104 C1102 1.391 . S
C1104 C1105 1.400 . S
C1105 C1099 1.491 . S
C1105 C1104 1.400 . S
C1105 C1106 1.398 . S
C1106 H1094 0.950 . S
C1106 C1105 1.398 . S
C1106 C1107 1.391 . S
C1107 H1095 0.950 . S
C1107 C1103 1.393 . S
C1107 C1106 1.391 . S
H1108 C1116 0.950 . S
H1109 C1121 0.950 . S
H1110 C1118 0.950 . S
H1111 C1120 0.950 . S
H1112 C1122 0.950 . S
H1113 C1124 0.950 . S
H1114 C1126 0.950 . S
H1115 C1127 0.950 . S
C1116 H1108 0.950 . S
C1116 C1117 1.386 . S
C1116 C1118 1.391 . S
C1117 C1116 1.386 . S
C1117 C1121 1.393 . S
C1118 H1110 0.950 . S
C1118 C1116 1.391 . S
C1118 C1119 1.400 . S
C1119 C1118 1.400 . S
C1119 C1120 1.398 . S
C1119 C1125 1.491 . S
C1120 H1111 0.950 . S
C1120 C1119 1.398 . S
C1120 C1121 1.391 . S
C1121 H1109 0.950 . S
C1121 C1117 1.393 . S
C1121 C1120 1.391 . S
C1122 H1112 0.950 . S
C1122 C1123 1.386 . S
C1122 C1124 1.391 . S
C1123 C1122 1.386 . S
C1123 C1127 1.393 . S
C1124 H1113 0.950 . S
C1124 C1122 1.391 . S
C1124 C1125 1.400 . S
C1125 C1119 1.491 . S
C1125 C1124 1.400 . S
C1125 C1126 1.398 . S
C1126 H1114 0.950 . S
C1126 C1125 1.398 . S
C1126 C1127 1.391 . S
C1127 H1115 0.950 . S
C1127 C1123 1.393 . S
C1127 C1126 1.391 . S
H1128 C1136 0.950 . S
H1129 C1141 0.950 . S
H1130 C1138 0.950 . S
H1131 C1140 0.950 . S
H1132 C1142 0.950 . S
H1133 C1144 0.950 . S
H1134 C1146 0.950 . S
H1135 C1147 0.950 . S
C1136 H1128 0.950 . S
C1136 C1137 1.386 . S
C1136 C1138 1.391 . S
C1137 C1136 1.386 . S
C1137 C1141 1.393 1_455 S
C1138 H1130 0.950 . S
C1138 C1136 1.391 . S
C1138 C1139 1.400 . S
C1139 C1138 1.400 . S
C1139 C1140 1.398 1_455 S
C1139 C1145 1.491 . S
C1140 H1131 0.950 . S
C1140 C1139 1.398 1_655 S
C1140 C1141 1.391 . S
C1141 H1129 0.950 . S
C1141 C1137 1.393 1_655 S
C1141 C1140 1.391 . S
C1142 H1132 0.950 . S
C1142 C1143 1.386 1_655 S
C1142 C1144 1.391 . S
C1143 C1142 1.386 1_455 S
C1143 C1147 1.393 . S
C1144 H1133 0.950 . S
C1144 C1142 1.391 . S
C1144 C1145 1.400 1_655 S
C1145 C1139 1.491 . S
C1145 C1144 1.400 1_455 S
C1145 C1146 1.398 . S
C1146 H1134 0.950 . S
C1146 C1145 1.398 . S
C1146 C1147 1.391 . S
C1147 H1135 0.950 . S
C1147 C1143 1.393 . S
C1147 C1146 1.391 . S
H1148 C1156 0.950 . S
H1149 C1161 0.950 . S
H1150 C1158 0.950 . S
H1151 C1160 0.950 . S
H1152 C1162 0.950 . S
H1153 C1164 0.950 . S
H1154 C1166 0.950 . S
H1155 C1167 0.950 . S
C1156 H1148 0.950 . S
C1156 C1157 1.386 . S
C1156 C1158 1.391 . S
C1157 C1156 1.386 . S
C1157 C1161 1.393 . S
C1158 H1150 0.950 . S
C1158 C1156 1.391 . S
C1158 C1159 1.400 . S
C1159 C1158 1.400 . S
C1159 C1160 1.398 . S
C1159 C1165 1.491 . S
C1160 H1151 0.950 . S
C1160 C1159 1.398 . S
C1160 C1161 1.391 . S
C1161 H1149 0.950 . S
C1161 C1157 1.393 . S
C1161 C1160 1.391 . S
C1162 H1152 0.950 . S
C1162 C1163 1.386 . S
C1162 C1164 1.391 . S
C1163 C1162 1.386 . S
C1163 C1167 1.393 . S
C1164 H1153 0.950 . S
C1164 C1162 1.391 . S
C1164 C1165 1.400 . S
C1165 C1159 1.491 . S
C1165 C1164 1.400 . S
C1165 C1166 1.398 . S
C1166 H1154 0.950 . S
C1166 C1165 1.398 . S
C1166 C1167 1.391 . S
C1167 H1155 0.950 . S
C1167 C1163 1.393 . S
C1167 C1166 1.391 . S
H1168 C1176 0.950 . S
H1169 C1181 0.950 . S
H1170 C1178 0.950 . S
H1171 C1180 0.950 . S
H1172 C1182 0.950 . S
H1173 C1184 0.950 . S
H1174 C1186 0.950 . S
H1175 C1187 0.950 . S
C1176 H1168 0.950 . S
C1176 C1177 1.386 . S
C1176 C1178 1.391 . S
C1177 C1176 1.386 . S
C1177 C1181 1.393 . S
C1178 H1170 0.950 . S
C1178 C1176 1.391 . S
C1178 C1179 1.400 . S
C1179 C1178 1.400 . S
C1179 C1180 1.398 . S
C1179 C1185 1.491 . S
C1180 H1171 0.950 . S
C1180 C1179 1.398 . S
C1180 C1181 1.391 . S
C1181 H1169 0.950 . S
C1181 C1177 1.393 . S
C1181 C1180 1.391 . S
C1182 H1172 0.950 . S
C1182 C1183 1.386 . S
C1182 C1184 1.391 . S
C1183 C1182 1.386 . S
C1183 C1187 1.393 . S
C1184 H1173 0.950 . S
C1184 C1182 1.391 . S
C1184 C1185 1.400 . S
C1185 C1179 1.491 . S
C1185 C1184 1.400 . S
C1185 C1186 1.398 . S
C1186 H1174 0.950 . S
C1186 C1185 1.398 . S
C1186 C1187 1.391 . S
C1187 H1175 0.950 . S
C1187 C1183 1.393 . S
C1187 C1186 1.391 . S
H1188 C1196 0.950 . S
H1189 C1201 0.950 . S
H1190 C1198 0.950 . S
H1191 C1200 0.950 . S
H1192 C1202 0.950 . S
H1193 C1204 0.950 . S
H1194 C1206 0.950 . S
H1195 C1207 0.950 . S
C1196 H1188 0.950 . S
C1196 C1197 1.386 . S
C1196 C1198 1.391 . S
C1197 C1196 1.386 . S
C1197 C1201 1.393 . S
C1198 H1190 0.950 . S
C1198 C1196 1.391 . S
C1198 C1199 1.400 . S
C1199 C1198 1.400 . S
C1199 C1200 1.398 . S
C1199 C1205 1.491 . S
C1200 H1191 0.950 . S
C1200 C1199 1.398 . S
C1200 C1201 1.391 . S
C1201 H1189 0.950 . S
C1201 C1197 1.393 . S
C1201 C1200 1.391 . S
C1202 H1192 0.950 . S
C1202 C1203 1.386 . S
C1202 C1204 1.391 . S
C1203 C1202 1.386 . S
C1203 C1207 1.393 . S
C1204 H1193 0.950 . S
C1204 C1202 1.391 . S
C1204 C1205 1.400 . S
C1205 C1199 1.491 . S
C1205 C1204 1.400 . S
C1205 C1206 1.398 . S
C1206 H1194 0.950 . S
C1206 C1205 1.398 . S
C1206 C1207 1.391 . S
C1207 H1195 0.950 . S
C1207 C1203 1.393 . S
C1207 C1206 1.391 . S
H1208 C1216 0.950 . S
H1209 C1221 0.950 . S
H1210 C1218 0.950 . S
H1211 C1220 0.950 . S
H1212 C1222 0.950 . S
H1213 C1224 0.950 . S
H1214 C1226 0.950 . S
H1215 C1227 0.950 . S
C1216 H1208 0.950 . S
C1216 C1217 1.386 1_655 S
C1216 C1218 1.391 . S
C1217 C1216 1.386 1_455 S
C1217 C1221 1.393 . S
C1218 H1210 0.950 . S
C1218 C1216 1.391 . S
C1218 C1219 1.400 1_655 S
C1219 C1218 1.400 1_455 S
C1219 C1220 1.398 . S
C1219 C1225 1.491 . S
C1220 H1211 0.950 . S
C1220 C1219 1.398 . S
C1220 C1221 1.391 . S
C1221 H1209 0.950 . S
C1221 C1217 1.393 . S
C1221 C1220 1.391 . S
C1222 H1212 0.950 . S
C1222 C1223 1.386 . S
C1222 C1224 1.391 . S
C1223 C1222 1.386 . S
C1223 C1227 1.393 1_455 S
C1224 H1213 0.950 . S
C1224 C1222 1.391 . S
C1224 C1225 1.400 . S
C1225 C1219 1.491 . S
C1225 C1224 1.400 . S
C1225 C1226 1.398 1_455 S
C1226 H1214 0.950 . S
C1226 C1225 1.398 1_655 S
C1226 C1227 1.391 . S
C1227 H1215 0.950 . S
C1227 C1223 1.393 1_655 S
C1227 C1226 1.391 . S
H1228 C1236 0.950 . S
H1229 C1241 0.950 . S
H1230 C1238 0.950 . S
H1231 C1240 0.950 . S
H1232 C1242 0.950 . S
H1233 C1244 0.950 . S
H1234 C1246 0.950 . S
H1235 C1247 0.950 . S
C1236 H1228 0.950 . S
C1236 C1237 1.386 . S
C1236 C1238 1.391 . S
C1237 C1236 1.386 . S
C1237 C1241 1.393 . S
C1238 H1230 0.950 . S
C1238 C1236 1.391 . S
C1238 C1239 1.400 . S
C1239 C1238 1.400 . S
C1239 C1240 1.398 . S
C1239 C1245 1.491 . S
C1240 H1231 0.950 . S
C1240 C1239 1.398 . S
C1240 C1241 1.391 . S
C1241 H1229 0.950 . S
C1241 C1237 1.393 . S
C1241 C1240 1.391 . S
C1242 H1232 0.950 . S
C1242 C1243 1.386 . S
C1242 C1244 1.391 . S
C1243 C1242 1.386 . S
C1243 C1247 1.393 . S
C1244 H1233 0.950 . S
C1244 C1242 1.391 . S
C1244 C1245 1.400 . S
C1245 C1239 1.491 . S
C1245 C1244 1.400 . S
C1245 C1246 1.398 . S
C1246 H1234 0.950 . S
C1246 C1245 1.398 . S
C1246 C1247 1.391 . S
C1247 H1235 0.950 . S
C1247 C1243 1.393 . S
C1247 C1246 1.391 . S
H1248 C1256 0.950 . S
H1249 C1261 0.950 . S
H1250 C1258 0.950 . S
H1251 C1260 0.950 . S
H1252 C1262 0.950 . S
H1253 C1264 0.950 . S
H1254 C1266 0.950 . S
H1255 C1267 0.950 . S
C1256 H1248 0.950 . S
C1256 C1257 1.386 . S
C1256 C1258 1.391 . S
C1257 C1256 1.386 . S
C1257 C1261 1.393 . S
C1258 H1250 0.950 . S
C1258 C1256 1.391 . S
C1258 C1259 1.400 . S
C1259 C1258 1.400 . S
C1259 C1260 1.398 . S
C1259 C1265 1.491 . S
C1260 H1251 0.950 . S
C1260 C1259 1.398 . S
C1260 C1261 1.391 . S
C1261 H1249 0.950 . S
C1261 C1257 1.393 . S
C1261 C1260 1.391 . S
C1262 H1252 0.950 . S
C1262 C1263 1.386 . S
C1262 C1264 1.391 . S
C1263 C1262 1.386 . S
C1263 C1267 1.393 . S
C1264 H1253 0.950 . S
C1264 C1262 1.391 . S
C1264 C1265 1.400 . S
C1265 C1259 1.491 . S
C1265 C1264 1.400 . S
C1265 C1266 1.398 . S
C1266 H1254 0.950 . S
C1266 C1265 1.398 . S
C1266 C1267 1.391 . S
C1267 H1255 0.950 . S
C1267 C1263 1.393 . S
C1267 C1266 1.391 . S
H1268 C1276 0.950 . S
H1269 C1281 0.950 . S
H1270 C1278 0.950 . S
H1271 C1280 0.950 . S
H1272 C1282 0.950 . S
H1273 C1284 0.950 . S
H1274 C1286 0.950 . S
H1275 C1287 0.950 . S
C1276 H1268 0.950 . S
C1276 C1277 1.386 . S
C1276 C1278 1.391 . S
C1277 C1276 1.386 . S
C1277 C1281 1.393 . S
C1278 H1270 0.950 . S
C1278 C1276 1.391 . S
C1278 C1279 1.400 . S
C1279 C1278 1.400 . S
C1279 C1280 1.398 . S
C1279 C1285 1.491 . S
C1280 H1271 0.950 . S
C1280 C1279 1.398 . S
C1280 C1281 1.391 . S
C1281 H1269 0.950 . S
C1281 C1277 1.393 . S
C1281 C1280 1.391 . S
C1282 H1272 0.950 . S
C1282 C1283 1.386 . S
C1282 C1284 1.391 . S
C1283 C1282 1.386 . S
C1283 C1287 1.393 . S
C1284 H1273 0.950 . S
C1284 C1282 1.391 . S
C1284 C1285 1.400 . S
C1285 C1279 1.491 . S
C1285 C1284 1.400 . S
C1285 C1286 1.398 . S
C1286 H1274 0.950 . S
C1286 C1285 1.398 . S
C1286 C1287 1.391 . S
C1287 H1275 0.950 . S
C1287 C1283 1.393 . S
C1287 C1286 1.391 . S
H1288 C1296 0.950 . S
H1289 C1301 0.950 . S
H1290 C1298 0.950 . S
H1291 C1300 0.950 . S
H1292 C1302 0.950 . S
H1293 C1304 0.950 . S
H1294 C1306 0.950 . S
H1295 C1307 0.950 . S
C1296 H1288 0.950 . S
C1296 C1297 1.386 . S
C1296 C1298 1.391 . S
C1297 C1296 1.386 . S
C1297 C1301 1.393 1_565 S
C1298 H1290 0.950 . S
C1298 C1296 1.391 . S
C1298 C1299 1.400 1_565 S
C1299 C1298 1.400 1_545 S
C1299 C1300 1.398 . S
C1299 C1305 1.491 . S
C1300 H1291 0.950 . S
C1300 C1299 1.398 . S
C1300 C1301 1.391 . S
C1301 H1289 0.950 . S
C1301 C1297 1.393 1_545 S
C1301 C1300 1.391 . S
C1302 H1292 0.950 . S
C1302 C1303 1.386 . S
C1302 C1304 1.391 . S
C1303 C1302 1.386 . S
C1303 C1307 1.393 1_545 S
C1304 H1293 0.950 . S
C1304 C1302 1.391 . S
C1304 C1305 1.400 . S
C1305 C1299 1.491 . S
C1305 C1304 1.400 . S
C1305 C1306 1.398 1_545 S
C1306 H1294 0.950 . S
C1306 C1305 1.398 1_565 S
C1306 C1307 1.391 . S
C1307 H1295 0.950 . S
C1307 C1303 1.393 1_565 S
C1307 C1306 1.391 . S
H1308 C1316 0.950 . S
H1309 C1321 0.950 . S
H1310 C1318 0.950 . S
H1311 C1320 0.950 . S
H1312 C1322 0.950 . S
H1313 C1324 0.950 . S
H1314 C1326 0.950 . S
H1315 C1327 0.950 . S
C1316 H1308 0.950 . S
C1316 C1317 1.386 . S
C1316 C1318 1.391 . S
C1317 C1316 1.386 . S
C1317 C1321 1.393 . S
C1318 H1310 0.950 . S
C1318 C1316 1.391 . S
C1318 C1319 1.400 . S
C1319 C1318 1.400 . S
C1319 C1320 1.398 . S
C1319 C1325 1.491 . S
C1320 H1311 0.950 . S
C1320 C1319 1.398 . S
C1320 C1321 1.391 . S
C1321 H1309 0.950 . S
C1321 C1317 1.393 . S
C1321 C1320 1.391 . S
C1322 H1312 0.950 . S
C1322 C1323 1.386 . S
C1322 C1324 1.391 . S
C1323 C1322 1.386 . S
C1323 C1327 1.393 . S
C1324 H1313 0.950 . S
C1324 C1322 1.391 . S
C1324 C1325 1.400 . S
C1325 C1319 1.491 . S
C1325 C1324 1.400 . S
C1325 C1326 1.398 . S
C1326 H1314 0.950 . S
C1326 C1325 1.398 . S
C1326 C1327 1.391 . S
C1327 H1315 0.950 . S
C1327 C1323 1.393 . S
C1327 C1326 1.391 . S
H1328 C1336 0.950 . S
H1329 C1341 0.950 . S
H1330 C1338 0.950 . S
H1331 C1340 0.950 . S
H1332 C1342 0.950 . S
H1333 C1344 0.950 . S
H1334 C1346 0.950 . S
H1335 C1347 0.950 . S
C1336 H1328 0.950 . S
C1336 C1337 1.386 . S
C1336 C1338 1.391 . S
C1337 C1336 1.386 . S
C1337 C1341 1.393 1_545 S
C1338 H1330 0.950 . S
C1338 C1336 1.391 . S
C1338 C1339 1.400 . S
C1339 C1338 1.400 . S
C1339 C1340 1.398 1_545 S
C1339 C1345 1.491 . S
C1340 H1331 0.950 . S
C1340 C1339 1.398 1_565 S
C1340 C1341 1.391 . S
C1341 H1329 0.950 . S
C1341 C1337 1.393 1_565 S
C1341 C1340 1.391 . S
C1342 H1332 0.950 . S
C1342 C1343 1.386 1_565 S
C1342 C1344 1.391 . S
C1343 C1342 1.386 1_545 S
C1343 C1347 1.393 . S
C1344 H1333 0.950 . S
C1344 C1342 1.391 . S
C1344 C1345 1.400 1_565 S
C1345 C1339 1.491 . S
C1345 C1344 1.400 1_545 S
C1345 C1346 1.398 . S
C1346 H1334 0.950 . S
C1346 C1345 1.398 . S
C1346 C1347 1.391 . S
C1347 H1335 0.950 . S
C1347 C1343 1.393 . S
C1347 C1346 1.391 . S
H1348 C1356 0.950 . S
H1349 C1361 0.950 . S
H1350 C1358 0.950 . S
H1351 C1360 0.950 . S
H1352 C1362 0.950 . S
H1353 C1364 0.950 . S
H1354 C1366 0.950 . S
H1355 C1367 0.950 . S
C1356 H1348 0.950 . S
C1356 C1357 1.386 . S
C1356 C1358 1.391 . S
C1357 C1356 1.386 . S
C1357 C1361 1.393 . S
C1358 H1350 0.950 . S
C1358 C1356 1.391 . S
C1358 C1359 1.400 . S
C1359 C1358 1.400 . S
C1359 C1360 1.398 . S
C1359 C1365 1.491 . S
C1360 H1351 0.950 . S
C1360 C1359 1.398 . S
C1360 C1361 1.391 . S
C1361 H1349 0.950 . S
C1361 C1357 1.393 . S
C1361 C1360 1.391 . S
C1362 H1352 0.950 . S
C1362 C1363 1.386 . S
C1362 C1364 1.391 . S
C1363 C1362 1.386 . S
C1363 C1367 1.393 . S
C1364 H1353 0.950 . S
C1364 C1362 1.391 . S
C1364 C1365 1.400 . S
C1365 C1359 1.491 . S
C1365 C1364 1.400 . S
C1365 C1366 1.398 . S
C1366 H1354 0.950 . S
C1366 C1365 1.398 . S
C1366 C1367 1.391 . S
C1367 H1355 0.950 . S
C1367 C1363 1.393 . S
C1367 C1366 1.391 . S
H1368 C1376 0.950 . S
H1369 C1381 0.950 . S
H1370 C1378 0.950 . S
H1371 C1380 0.950 . S
H1372 C1382 0.950 . S
H1373 C1384 0.950 . S
H1374 C1386 0.950 . S
H1375 C1387 0.950 . S
C1376 H1368 0.950 . S
C1376 C1377 1.386 . S
C1376 C1378 1.391 . S
C1377 C1376 1.386 . S
C1377 C1381 1.393 1_545 S
C1378 H1370 0.950 . S
C1378 C1376 1.391 . S
C1378 C1379 1.400 . S
C1379 C1378 1.400 . S
C1379 C1380 1.398 1_545 S
C1379 C1385 1.495 . S
C1380 H1371 0.950 . S
C1380 C1379 1.398 1_565 S
C1380 C1381 1.391 . S
C1381 H1369 0.950 . S
C1381 C1377 1.393 1_565 S
C1381 C1380 1.391 . S
C1382 H1372 0.950 . S
C1382 C1383 1.386 . S
C1382 C1384 1.391 . S
C1383 C1382 1.386 . S
C1383 C1387 1.393 1_565 S
C1384 H1373 0.950 . S
C1384 C1382 1.391 . S
C1384 C1385 1.378 1_565 S
C1385 C1379 1.495 . S
C1385 C1384 1.378 1_545 S
C1385 C1386 1.417 . S
C1386 H1374 0.950 . S
C1386 C1385 1.417 . S
C1386 C1387 1.391 . S
C1387 H1375 0.950 . S
C1387 C1383 1.393 1_545 S
C1387 C1386 1.391 . S
H1388 C1396 0.950 . S
H1389 C1401 0.950 . S
H1390 C1398 0.950 . S
H1391 C1400 0.950 . S
H1392 C1402 0.950 . S
H1393 C1404 0.950 . S
H1394 C1406 0.950 . S
H1395 C1407 0.950 . S
C1396 H1388 0.950 . S
C1396 C1397 1.386 . S
C1396 C1398 1.391 . S
C1397 C1396 1.386 . S
C1397 C1401 1.393 . S
C1398 H1390 0.950 . S
C1398 C1396 1.391 . S
C1398 C1399 1.400 . S
C1399 C1398 1.400 . S
C1399 C1400 1.398 . S
C1399 C1405 1.491 . S
C1400 H1391 0.950 . S
C1400 C1399 1.398 . S
C1400 C1401 1.391 . S
C1401 H1389 0.950 . S
C1401 C1397 1.393 . S
C1401 C1400 1.391 . S
C1402 H1392 0.950 . S
C1402 C1403 1.386 . S
C1402 C1404 1.391 . S
C1403 C1402 1.386 . S
C1403 C1407 1.393 . S
C1404 H1393 0.950 . S
C1404 C1402 1.391 . S
C1404 C1405 1.400 . S
C1405 C1399 1.491 . S
C1405 C1404 1.400 . S
C1405 C1406 1.398 . S
C1406 H1394 0.950 . S
C1406 C1405 1.398 . S
C1406 C1407 1.391 . S
C1407 H1395 0.950 . S
C1407 C1403 1.393 . S
C1407 C1406 1.391 . S
H1408 C1416 0.955 . S
H1409 C1421 0.950 . S
H1410 C1418 0.950 . S
H1411 C1420 0.950 . S
H1412 C1422 0.950 . S
H1413 C1424 0.950 . S
H1414 C1426 0.950 . S
H1415 C1427 0.950 . S
C1416 H1408 0.955 . S
C1416 C1417 1.386 . S
C1416 C1418 1.388 1_565 S
C1417 C1416 1.386 . S
C1417 C1421 1.391 1_565 S
C1418 H1410 0.950 . S
C1418 C1416 1.388 1_545 S
C1418 C1419 1.400 . S
C1419 C1418 1.400 . S
C1419 C1420 1.398 . S
C1419 C1425 1.491 . S
C1420 H1411 0.950 . S
C1420 C1419 1.398 . S
C1420 C1421 1.391 . S
C1421 H1409 0.950 . S
C1421 C1417 1.391 1_545 S
C1421 C1420 1.391 . S
C1422 H1412 0.950 . S
C1422 C1423 1.386 . S
C1422 C1424 1.391 . S
C1423 C1422 1.386 . S
C1423 C1427 1.393 . S
C1424 H1413 0.950 . S
C1424 C1422 1.391 . S
C1424 C1425 1.400 . S
C1425 C1419 1.491 . S
C1425 C1424 1.400 . S
C1425 C1426 1.398 . S
C1426 H1414 0.950 . S
C1426 C1425 1.398 . S
C1426 C1427 1.391 . S
C1427 H1415 0.950 . S
C1427 C1423 1.393 . S
C1427 C1426 1.391 . S
H1428 C1436 0.950 . S
H1429 C1441 0.950 . S
H1430 C1438 0.950 . S
H1431 C1440 0.950 . S
H1432 C1442 0.950 . S
H1433 C1444 0.950 . S
H1434 C1446 0.950 . S
H1435 C1447 0.950 . S
C1436 H1428 0.950 . S
C1436 C1437 1.386 . S
C1436 C1438 1.391 . S
C1437 C1436 1.386 . S
C1437 C1441 1.393 . S
C1438 H1430 0.950 . S
C1438 C1436 1.391 . S
C1438 C1439 1.400 . S
C1439 C1438 1.400 . S
C1439 C1440 1.398 . S
C1439 C1445 1.491 . S
C1440 H1431 0.950 . S
C1440 C1439 1.398 . S
C1440 C1441 1.391 . S
C1441 H1429 0.950 . S
C1441 C1437 1.393 . S
C1441 C1440 1.391 . S
C1442 H1432 0.950 . S
C1442 C1443 1.386 . S
C1442 C1444 1.391 . S
C1443 C1442 1.386 . S
C1443 C1447 1.393 . S
C1444 H1433 0.950 . S
C1444 C1442 1.391 . S
C1444 C1445 1.400 . S
C1445 C1439 1.491 . S
C1445 C1444 1.400 . S
C1445 C1446 1.398 . S
C1446 H1434 0.950 . S
C1446 C1445 1.398 . S
C1446 C1447 1.391 . S
C1447 H1435 0.950 . S
C1447 C1443 1.393 . S
C1447 C1446 1.391 . S
H1448 C1456 0.950 . S
H1449 C1461 0.950 . S
H1450 C1458 0.950 . S
H1451 C1460 0.950 . S
H1452 C1462 0.950 . S
H1453 C1464 0.950 . S
H1454 C1466 0.950 . S
H1455 C1467 0.902 1_545 S
C1456 H1448 0.950 . S
C1456 C1457 1.386 . S
C1456 C1458 1.391 . S
C1457 C1456 1.386 . S
C1457 C1461 1.393 . S
C1458 H1450 0.950 . S
C1458 C1456 1.391 . S
C1458 C1459 1.400 . S
C1459 C1458 1.400 . S
C1459 C1460 1.398 . S
C1459 C1465 1.491 . S
C1460 H1451 0.950 . S
C1460 C1459 1.398 . S
C1460 C1461 1.391 . S
C1461 H1449 0.950 . S
C1461 C1457 1.393 . S
C1461 C1460 1.391 . S
C1462 H1452 0.950 . S
C1462 C1463 1.386 . S
C1462 C1464 1.391 . S
C1463 C1462 1.386 . S
C1463 C1467 1.393 . S
C1464 H1453 0.950 . S
C1464 C1462 1.391 . S
C1464 C1465 1.400 . S
C1465 C1459 1.491 . S
C1465 C1464 1.400 . S
C1465 C1466 1.398 . S
C1466 H1454 0.950 . S
C1466 C1465 1.398 . S
C1466 C1467 1.391 . S
C1467 H1455 0.902 1_565 S
C1467 C1463 1.393 . S
C1467 C1466 1.391 . S
H1468 C1476 0.950 . S
H1469 C1481 0.950 . S
H1470 C1478 0.950 . S
H1471 C1480 0.950 . S
H1472 C1482 0.950 . S
H1473 C1484 0.950 . S
H1474 C1486 0.950 . S
H1475 C1487 0.950 . S
C1476 H1468 0.950 . S
C1476 C1477 1.386 . S
C1476 C1478 1.391 . S
C1477 C1476 1.386 . S
C1477 C1481 1.393 1_554 S
C1478 H1470 0.950 . S
C1478 C1476 1.391 . S
C1478 C1479 1.400 . S
C1479 C1478 1.400 . S
C1479 C1480 1.398 1_554 S
C1479 C1485 1.491 . S
C1480 H1471 0.950 . S
C1480 C1479 1.398 1_556 S
C1480 C1481 1.391 . S
C1481 H1469 0.950 . S
C1481 C1477 1.393 1_556 S
C1481 C1480 1.391 . S
C1482 H1472 0.950 . S
C1482 C1483 1.386 1_556 S
C1482 C1484 1.391 . S
C1483 C1482 1.386 1_554 S
C1483 C1487 1.393 . S
C1484 H1473 0.950 . S
C1484 C1482 1.391 . S
C1484 C1485 1.400 1_556 S
C1485 C1479 1.491 . S
C1485 C1484 1.400 1_554 S
C1485 C1486 1.398 . S
C1486 H1474 0.950 . S
C1486 C1485 1.398 . S
C1486 C1487 1.391 . S
C1487 H1475 0.950 . S
C1487 C1483 1.393 . S
C1487 C1486 1.391 . S
H1488 C1496 0.950 . S
H1489 C1501 0.950 . S
H1490 C1498 0.950 . S
H1491 C1500 0.950 . S
H1492 C1502 0.950 . S
H1493 C1504 0.950 . S
H1494 C1506 0.950 . S
H1495 C1507 0.950 . S
C1496 H1488 0.950 . S
C1496 C1497 1.386 . S
C1496 C1498 1.391 . S
C1497 C1496 1.386 . S
C1497 C1501 1.393 . S
C1498 H1490 0.950 . S
C1498 C1496 1.391 . S
C1498 C1499 1.400 . S
C1499 C1498 1.400 . S
C1499 C1500 1.398 . S
C1499 C1505 1.491 . S
C1500 H1491 0.950 . S
C1500 C1499 1.398 . S
C1500 C1501 1.391 . S
C1501 H1489 0.950 . S
C1501 C1497 1.393 . S
C1501 C1500 1.391 . S
C1502 H1492 0.950 . S
C1502 C1503 1.386 . S
C1502 C1504 1.391 . S
C1503 C1502 1.386 . S
C1503 C1507 1.393 . S
C1504 H1493 0.950 . S
C1504 C1502 1.391 . S
C1504 C1505 1.400 . S
C1505 C1499 1.491 . S
C1505 C1504 1.400 . S
C1505 C1506 1.398 . S
C1506 H1494 0.950 . S
C1506 C1505 1.398 . S
C1506 C1507 1.391 . S
C1507 H1495 0.950 . S
C1507 C1503 1.393 . S
C1507 C1506 1.391 . S
H1508 C1516 0.950 . S
H1509 C1521 0.950 . S
H1510 C1518 0.950 . S
H1511 C1520 0.950 . S
H1512 C1522 0.950 . S
H1513 C1524 0.950 . S
H1514 C1526 0.950 . S
H1515 C1527 0.950 . S
C1516 H1508 0.950 . S
C1516 C1517 1.386 . S
C1516 C1518 1.391 . S
C1517 C1516 1.386 . S
C1517 C1521 1.393 . S
C1518 H1510 0.950 . S
C1518 C1516 1.391 . S
C1518 C1519 1.400 . S
C1519 C1518 1.400 . S
C1519 C1520 1.398 . S
C1519 C1525 1.491 . S
C1520 H1511 0.950 . S
C1520 C1519 1.398 . S
C1520 C1521 1.391 . S
C1521 H1509 0.950 . S
C1521 C1517 1.393 . S
C1521 C1520 1.391 . S
C1522 H1512 0.950 . S
C1522 C1523 1.386 . S
C1522 C1524 1.391 . S
C1523 C1522 1.386 . S
C1523 C1527 1.393 . S
C1524 H1513 0.950 . S
C1524 C1522 1.391 . S
C1524 C1525 1.400 . S
C1525 C1519 1.491 . S
C1525 C1524 1.400 . S
C1525 C1526 1.398 . S
C1526 H1514 0.950 . S
C1526 C1525 1.398 . S
C1526 C1527 1.391 . S
C1527 H1515 0.950 . S
C1527 C1523 1.393 . S
C1527 C1526 1.391 . S
H1528 C1536 0.950 . S
H1529 C1541 0.950 . S
H1530 C1538 0.950 . S
H1531 C1540 0.950 . S
H1532 C1542 0.950 . S
H1533 C1544 0.950 . S
H1534 C1546 0.950 . S
H1535 C1547 0.950 . S
C1536 H1528 0.950 . S
C1536 C1537 1.386 . S
C1536 C1538 1.391 . S
C1537 C1536 1.386 . S
C1537 C1541 1.393 . S
C1538 H1530 0.950 . S
C1538 C1536 1.391 . S
C1538 C1539 1.400 . S
C1539 C1538 1.400 . S
C1539 C1540 1.398 . S
C1539 C1545 1.491 . S
C1540 H1531 0.950 . S
C1540 C1539 1.398 . S
C1540 C1541 1.391 . S
C1541 H1529 0.950 . S
C1541 C1537 1.393 . S
C1541 C1540 1.391 . S
C1542 H1532 0.950 . S
C1542 C1543 1.386 . S
C1542 C1544 1.391 . S
C1543 C1542 1.386 . S
C1543 C1547 1.393 . S
C1544 H1533 0.950 . S
C1544 C1542 1.391 . S
C1544 C1545 1.400 . S
C1545 C1539 1.491 . S
C1545 C1544 1.400 . S
C1545 C1546 1.398 . S
C1546 H1534 0.950 . S
C1546 C1545 1.398 . S
C1546 C1547 1.391 . S
C1547 H1535 0.950 . S
C1547 C1543 1.393 . S
C1547 C1546 1.391 . S
H1548 C1556 0.950 . S
H1549 C1561 0.950 . S
H1550 C1558 0.950 . S
H1551 C1560 0.950 . S
H1552 C1562 0.950 . S
H1553 C1564 0.950 . S
H1554 C1566 0.950 . S
H1555 C1567 0.950 . S
C1556 H1548 0.950 . S
C1556 C1557 1.386 . S
C1556 C1558 1.391 . S
C1557 C1556 1.386 . S
C1557 C1561 1.393 . S
C1558 H1550 0.950 . S
C1558 C1556 1.391 . S
C1558 C1559 1.400 . S
C1559 C1558 1.400 . S
C1559 C1560 1.398 . S
C1559 C1565 1.491 . S
C1560 H1551 0.950 . S
C1560 C1559 1.398 . S
C1560 C1561 1.391 . S
C1561 H1549 0.950 . S
C1561 C1557 1.393 . S
C1561 C1560 1.391 . S
C1562 H1552 0.950 . S
C1562 C1563 1.386 . S
C1562 C1564 1.391 . S
C1563 C1562 1.386 . S
C1563 C1567 1.393 . S
C1564 H1553 0.950 . S
C1564 C1562 1.391 . S
C1564 C1565 1.400 . S
C1565 C1559 1.491 . S
C1565 C1564 1.400 . S
C1565 C1566 1.398 . S
C1566 H1554 0.950 . S
C1566 C1565 1.398 . S
C1566 C1567 1.391 . S
C1567 H1555 0.950 . S
C1567 C1563 1.393 . S
C1567 C1566 1.391 . S
H1568 C1576 0.950 . S
H1569 C1581 0.950 . S
H1570 C1578 0.950 . S
H1571 C1580 0.950 . S
H1572 C1582 0.950 . S
H1573 C1584 0.950 . S
H1574 C1586 0.950 . S
H1575 C1587 0.950 . S
C1576 H1568 0.950 . S
C1576 C1577 1.386 . S
C1576 C1578 1.391 . S
C1577 C1576 1.386 . S
C1577 C1581 1.393 . S
C1578 H1570 0.950 . S
C1578 C1576 1.391 . S
C1578 C1579 1.400 . S
C1579 C1578 1.400 . S
C1579 C1580 1.398 . S
C1579 C1585 1.491 . S
C1580 H1571 0.950 . S
C1580 C1579 1.398 . S
C1580 C1581 1.391 . S
C1581 H1569 0.950 . S
C1581 C1577 1.393 . S
C1581 C1580 1.391 . S
C1582 H1572 0.950 . S
C1582 C1583 1.386 . S
C1582 C1584 1.391 . S
C1583 C1582 1.386 . S
C1583 C1587 1.393 . S
C1584 H1573 0.950 . S
C1584 C1582 1.391 . S
C1584 C1585 1.400 . S
C1585 C1579 1.491 . S
C1585 C1584 1.400 . S
C1585 C1586 1.398 . S
C1586 H1574 0.950 . S
C1586 C1585 1.398 . S
C1586 C1587 1.391 . S
C1587 H1575 0.950 . S
C1587 C1583 1.393 . S
C1587 C1586 1.391 . S
H1588 C1596 0.950 . S
H1589 C1601 0.950 . S
H1590 C1598 0.950 . S
H1591 C1600 0.950 . S
H1592 C1602 0.950 . S
H1593 C1604 0.950 . S
H1594 C1606 0.950 . S
H1595 C1607 0.950 . S
C1596 H1588 0.950 . S
C1596 C1597 1.386 . S
C1596 C1598 1.391 . S
C1597 C1596 1.386 . S
C1597 C1601 1.393 . S
C1598 H1590 0.950 . S
C1598 C1596 1.391 . S
C1598 C1599 1.400 . S
C1599 C1598 1.400 . S
C1599 C1600 1.398 . S
C1599 C1605 1.491 . S
C1600 H1591 0.950 . S
C1600 C1599 1.398 . S
C1600 C1601 1.391 . S
C1601 H1589 0.950 . S
C1601 C1597 1.393 . S
C1601 C1600 1.391 . S
C1602 H1592 0.950 . S
C1602 C1603 1.386 . S
C1602 C1604 1.391 . S
C1603 C1602 1.386 . S
C1603 C1607 1.393 . S
C1604 H1593 0.950 . S
C1604 C1602 1.391 . S
C1604 C1605 1.400 . S
C1605 C1599 1.491 . S
C1605 C1604 1.400 . S
C1605 C1606 1.398 . S
C1606 H1594 0.950 . S
C1606 C1605 1.398 . S
C1606 C1607 1.391 . S
C1607 H1595 0.950 . S
C1607 C1603 1.393 . S
C1607 C1606 1.391 . S
H1608 C1616 0.950 . S
H1609 C1621 0.950 . S
H1610 C1618 0.950 . S
H1611 C1620 0.950 . S
H1612 C1622 0.950 . S
H1613 C1624 0.950 . S
H1614 C1626 0.950 . S
H1615 C1627 0.950 . S
C1616 H1608 0.950 . S
C1616 C1617 1.386 . S
C1616 C1618 1.391 . S
C1617 C1616 1.386 . S
C1617 C1621 1.393 . S
C1618 H1610 0.950 . S
C1618 C1616 1.391 . S
C1618 C1619 1.400 . S
C1619 C1618 1.400 . S
C1619 C1620 1.398 . S
C1619 C1625 1.491 . S
C1620 H1611 0.950 . S
C1620 C1619 1.398 . S
C1620 C1621 1.391 . S
C1621 H1609 0.950 . S
C1621 C1617 1.393 . S
C1621 C1620 1.391 . S
C1622 H1612 0.950 . S
C1622 C1623 1.386 . S
C1622 C1624 1.391 . S
C1623 C1622 1.386 . S
C1623 C1627 1.393 . S
C1624 H1613 0.950 . S
C1624 C1622 1.391 . S
C1624 C1625 1.400 . S
C1625 C1619 1.491 . S
C1625 C1624 1.400 . S
C1625 C1626 1.398 . S
C1626 H1614 0.950 . S
C1626 C1625 1.398 . S
C1626 C1627 1.391 . S
C1627 H1615 0.950 . S
C1627 C1623 1.393 . S
C1627 C1626 1.391 . S
H1628 C1636 0.950 . S
H1629 C1641 0.950 . S
H1630 C1638 0.950 . S
H1631 C1640 0.950 . S
H1632 C1642 0.950 . S
H1633 C1644 0.950 . S
H1634 C1646 0.950 . S
H1635 C1647 0.950 . S
C1636 H1628 0.950 . S
C1636 C1637 1.386 . S
C1636 C1638 1.391 . S
C1637 C1636 1.386 . S
C1637 C1641 1.393 . S
C1638 H1630 0.950 . S
C1638 C1636 1.391 . S
C1638 C1639 1.400 . S
C1639 C1638 1.400 . S
C1639 C1640 1.398 . S
C1639 C1645 1.491 . S
C1640 H1631 0.950 . S
C1640 C1639 1.398 . S
C1640 C1641 1.391 . S
C1641 H1629 0.950 . S
C1641 C1637 1.393 . S
C1641 C1640 1.391 . S
C1642 H1632 0.950 . S
C1642 C1643 1.386 . S
C1642 C1644 1.391 . S
C1643 C1642 1.386 . S
C1643 C1647 1.393 . S
C1644 H1633 0.950 . S
C1644 C1642 1.391 . S
C1644 C1645 1.400 . S
C1645 C1639 1.491 . S
C1645 C1644 1.400 . S
C1645 C1646 1.398 . S
C1646 H1634 0.950 . S
C1646 C1645 1.398 . S
C1646 C1647 1.391 . S
C1647 H1635 0.950 . S
C1647 C1643 1.393 . S
C1647 C1646 1.391 . S
H1648 C1656 0.950 . S
H1649 C1661 0.950 . S
H1650 C1658 0.950 . S
H1651 C1660 0.950 . S
H1652 C1662 0.950 . S
H1653 C1664 0.950 . S
H1654 C1666 0.950 . S
H1655 C1667 0.950 . S
C1656 H1648 0.950 . S
C1656 C1657 1.386 . S
C1656 C1658 1.391 . S
C1657 C1656 1.386 . S
C1657 C1661 1.393 1_455 S
C1658 H1650 0.950 . S
C1658 C1656 1.391 . S
C1658 C1659 1.400 . S
C1659 C1658 1.400 . S
C1659 C1660 1.398 1_455 S
C1659 C1665 1.491 . S
C1660 H1651 0.950 . S
C1660 C1659 1.398 1_655 S
C1660 C1661 1.391 . S
C1661 H1649 0.950 . S
C1661 C1657 1.393 1_655 S
C1661 C1660 1.391 . S
C1662 H1652 0.950 . S
C1662 C1663 1.386 1_655 S
C1662 C1664 1.391 . S
C1663 C1662 1.386 1_455 S
C1663 C1667 1.393 . S
C1664 H1653 0.950 . S
C1664 C1662 1.391 . S
C1664 C1665 1.400 1_655 S
C1665 C1659 1.491 . S
C1665 C1664 1.400 1_455 S
C1665 C1666 1.398 . S
C1666 H1654 0.950 . S
C1666 C1665 1.398 . S
C1666 C1667 1.391 . S
C1667 H1655 0.950 . S
C1667 C1663 1.393 . S
C1667 C1666 1.391 . S
H1668 C1676 0.950 . S
H1669 C1681 0.950 . S
H1670 C1678 0.950 . S
H1671 C1680 0.950 . S
H1672 C1682 0.950 . S
H1673 C1684 0.950 . S
H1674 C1686 0.950 . S
H1675 C1687 0.950 . S
C1676 H1668 0.950 . S
C1676 C1677 1.386 . S
C1676 C1678 1.391 . S
C1677 C1676 1.386 . S
C1677 C1681 1.393 . S
C1678 H1670 0.950 . S
C1678 C1676 1.391 . S
C1678 C1679 1.400 . S
C1679 C1678 1.400 . S
C1679 C1680 1.398 . S
C1679 C1685 1.491 . S
C1680 H1671 0.950 . S
C1680 C1679 1.398 . S
C1680 C1681 1.391 . S
C1681 H1669 0.950 . S
C1681 C1677 1.393 . S
C1681 C1680 1.391 . S
C1682 H1672 0.950 . S
C1682 C1683 1.386 . S
C1682 C1684 1.391 . S
C1683 C1682 1.386 . S
C1683 C1687 1.393 . S
C1684 H1673 0.950 . S
C1684 C1682 1.391 . S
C1684 C1685 1.400 . S
C1685 C1679 1.491 . S
C1685 C1684 1.400 . S
C1685 C1686 1.398 . S
C1686 H1674 0.950 . S
C1686 C1685 1.398 . S
C1686 C1687 1.391 . S
C1687 H1675 0.950 . S
C1687 C1683 1.393 . S
C1687 C1686 1.391 . S
H1688 C1696 0.950 . S
H1689 C1701 0.950 . S
H1690 C1698 0.950 . S
H1691 C1700 0.950 . S
H1692 C1702 0.950 . S
H1693 C1704 0.950 . S
H1694 C1706 0.950 . S
H1695 C1707 0.950 . S
C1696 H1688 0.950 . S
C1696 C1697 1.386 . S
C1696 C1698 1.391 . S
C1697 C1696 1.386 . S
C1697 C1701 1.393 . S
C1698 H1690 0.950 . S
C1698 C1696 1.391 . S
C1698 C1699 1.400 . S
C1699 C1698 1.400 . S
C1699 C1700 1.398 . S
C1699 C1705 1.491 . S
C1700 H1691 0.950 . S
C1700 C1699 1.398 . S
C1700 C1701 1.391 . S
C1701 H1689 0.950 . S
C1701 C1697 1.393 . S
C1701 C1700 1.391 . S
C1702 H1692 0.950 . S
C1702 C1703 1.386 . S
C1702 C1704 1.391 . S
C1703 C1702 1.386 . S
C1703 C1707 1.393 . S
C1704 H1693 0.950 . S
C1704 C1702 1.391 . S
C1704 C1705 1.400 . S
C1705 C1699 1.491 . S
C1705 C1704 1.400 . S
C1705 C1706 1.398 . S
C1706 H1694 0.950 . S
C1706 C1705 1.398 . S
C1706 C1707 1.391 . S
C1707 H1695 0.950 . S
C1707 C1703 1.393 . S
C1707 C1706 1.391 . S
H1708 C1716 0.950 . S
H1709 C1721 0.950 . S
H1710 C1718 0.950 . S
H1711 C1720 0.950 . S
H1712 C1722 0.950 . S
H1713 C1724 0.950 . S
H1714 C1726 0.950 . S
H1715 C1727 0.950 . S
C1716 H1708 0.950 . S
C1716 C1717 1.386 . S
C1716 C1718 1.391 . S
C1717 C1716 1.386 . S
C1717 C1721 1.393 . S
C1718 H1710 0.950 . S
C1718 C1716 1.391 . S
C1718 C1719 1.400 . S
C1719 C1718 1.400 . S
C1719 C1720 1.398 . S
C1719 C1725 1.491 . S
C1720 H1711 0.950 . S
C1720 C1719 1.398 . S
C1720 C1721 1.391 . S
C1721 H1709 0.950 . S
C1721 C1717 1.393 . S
C1721 C1720 1.391 . S
C1722 H1712 0.950 . S
C1722 C1723 1.386 . S
C1722 C1724 1.391 . S
C1723 C1722 1.386 . S
C1723 C1727 1.393 . S
C1724 H1713 0.950 . S
C1724 C1722 1.391 . S
C1724 C1725 1.400 . S
C1725 C1719 1.491 . S
C1725 C1724 1.400 . S
C1725 C1726 1.398 . S
C1726 H1714 0.950 . S
C1726 C1725 1.398 . S
C1726 C1727 1.391 . S
C1727 H1715 0.950 . S
C1727 C1723 1.393 . S
C1727 C1726 1.391 . S
H1728 C1736 0.950 1_655 S
H1729 C1741 0.950 . S
H1730 C1738 0.950 1_655 S
H1731 C1740 0.950 . S
H1732 C1742 0.950 . S
H1733 C1744 0.950 . S
H1734 C1746 0.950 1_655 S
H1735 C1747 0.950 1_655 S
C1736 H1728 0.950 1_455 S
C1736 C1737 1.386 . S
C1736 C1738 1.391 . S
C1737 C1736 1.386 . S
C1737 C1741 1.393 . S
C1738 H1730 0.950 1_455 S
C1738 C1736 1.391 . S
C1738 C1739 1.400 . S
C1739 C1738 1.400 . S
C1739 C1740 1.398 . S
C1739 C1745 1.491 . S
C1740 H1731 0.950 . S
C1740 C1739 1.398 . S
C1740 C1741 1.391 . S
C1741 H1729 0.950 . S
C1741 C1737 1.393 . S
C1741 C1740 1.391 . S
C1742 H1732 0.950 . S
C1742 C1743 1.386 . S
C1742 C1744 1.391 . S
C1743 C1742 1.386 . S
C1743 C1747 1.393 . S
C1744 H1733 0.950 . S
C1744 C1742 1.391 . S
C1744 C1745 1.400 . S
C1745 C1739 1.491 . S
C1745 C1744 1.400 . S
C1745 C1746 1.398 . S
C1746 H1734 0.950 1_455 S
C1746 C1745 1.398 . S
C1746 C1747 1.391 . S
C1747 H1735 0.950 1_455 S
C1747 C1743 1.393 . S
C1747 C1746 1.391 . S
H1748 C1756 0.950 . S
H1749 C1761 0.950 . S
H1750 C1758 0.950 . S
H1751 C1760 0.950 . S
H1752 C1762 0.950 . S
H1753 C1764 0.950 . S
H1754 C1766 0.950 . S
H1755 C1767 0.950 . S
C1756 H1748 0.950 . S
C1756 C1757 1.386 . S
C1756 C1758 1.391 . S
C1757 C1756 1.386 . S
C1757 C1761 1.393 . S
C1758 H1750 0.950 . S
C1758 C1756 1.391 . S
C1758 C1759 1.400 . S
C1759 C1758 1.400 . S
C1759 C1760 1.398 . S
C1759 C1765 1.491 . S
C1760 H1751 0.950 . S
C1760 C1759 1.398 . S
C1760 C1761 1.391 . S
C1761 H1749 0.950 . S
C1761 C1757 1.393 . S
C1761 C1760 1.391 . S
C1762 H1752 0.950 . S
C1762 C1763 1.386 . S
C1762 C1764 1.391 . S
C1763 C1762 1.386 . S
C1763 C1767 1.393 . S
C1764 H1753 0.950 . S
C1764 C1762 1.391 . S
C1764 C1765 1.400 . S
C1765 C1759 1.491 . S
C1765 C1764 1.400 . S
C1765 C1766 1.398 . S
C1766 H1754 0.950 . S
C1766 C1765 1.398 . S
C1766 C1767 1.391 . S
C1767 H1755 0.950 . S
C1767 C1763 1.393 . S
C1767 C1766 1.391 . S
H1768 C1776 0.950 . S
H1769 C1781 0.950 . S
H1770 C1778 0.950 . S
H1771 C1780 0.950 . S
H1772 C1782 0.950 . S
H1773 C1784 0.950 . S
H1774 C1786 0.950 . S
H1775 C1787 0.950 . S
C1776 H1768 0.950 . S
C1776 C1777 1.386 . S
C1776 C1778 1.391 . S
C1777 C1776 1.386 . S
C1777 C1781 1.393 . S
C1778 H1770 0.950 . S
C1778 C1776 1.391 . S
C1778 C1779 1.400 . S
C1779 C1778 1.400 . S
C1779 C1780 1.398 . S
C1779 C1785 1.491 . S
C1780 H1771 0.950 . S
C1780 C1779 1.398 . S
C1780 C1781 1.391 . S
C1781 H1769 0.950 . S
C1781 C1777 1.393 . S
C1781 C1780 1.391 . S
C1782 H1772 0.950 . S
C1782 C1783 1.386 . S
C1782 C1784 1.391 . S
C1783 C1782 1.386 . S
C1783 C1787 1.393 . S
C1784 H1773 0.950 . S
C1784 C1782 1.391 . S
C1784 C1785 1.400 . S
C1785 C1779 1.491 . S
C1785 C1784 1.400 . S
C1785 C1786 1.398 . S
C1786 H1774 0.950 . S
C1786 C1785 1.398 . S
C1786 C1787 1.391 . S
C1787 H1775 0.950 . S
C1787 C1783 1.393 . S
C1787 C1786 1.391 . S
H1788 C1796 0.950 . S
H1789 C1801 0.950 . S
H1790 C1798 0.950 . S
H1791 C1800 0.950 . S
H1792 C1802 0.950 . S
H1793 C1804 0.950 . S
H1794 C1806 0.950 . S
H1795 C1807 0.950 . S
C1796 H1788 0.950 . S
C1796 C1797 1.386 . S
C1796 C1798 1.391 . S
C1797 C1796 1.386 . S
C1797 C1801 1.393 . S
C1798 H1790 0.950 . S
C1798 C1796 1.391 . S
C1798 C1799 1.400 . S
C1799 C1798 1.400 . S
C1799 C1800 1.398 . S
C1799 C1805 1.491 . S
C1800 H1791 0.950 . S
C1800 C1799 1.398 . S
C1800 C1801 1.391 . S
C1801 H1789 0.950 . S
C1801 C1797 1.393 . S
C1801 C1800 1.391 . S
C1802 H1792 0.950 . S
C1802 C1803 1.386 . S
C1802 C1804 1.391 . S
C1803 C1802 1.386 . S
C1803 C1807 1.393 . S
C1804 H1793 0.950 . S
C1804 C1802 1.391 . S
C1804 C1805 1.400 . S
C1805 C1799 1.491 . S
C1805 C1804 1.400 . S
C1805 C1806 1.398 . S
C1806 H1794 0.950 . S
C1806 C1805 1.398 . S
C1806 C1807 1.391 . S
C1807 H1795 0.950 . S
C1807 C1803 1.393 . S
C1807 C1806 1.391 . S
H1808 C1816 0.950 . S
H1809 C1821 0.950 . S
H1810 C1818 0.950 . S
H1811 C1820 0.950 . S
H1812 C1822 0.950 1_455 S
H1813 C1824 0.950 . S
H1814 C1826 0.950 . S
H1815 C1827 0.950 . S
C1816 H1808 0.950 . S
C1816 C1817 1.386 . S
C1816 C1818 1.391 . S
C1817 C1816 1.386 . S
C1817 C1821 1.393 . S
C1818 H1810 0.950 . S
C1818 C1816 1.391 . S
C1818 C1819 1.400 . S
C1819 C1818 1.400 . S
C1819 C1820 1.398 . S
C1819 C1825 1.491 . S
C1820 H1811 0.950 . S
C1820 C1819 1.398 . S
C1820 C1821 1.391 . S
C1821 H1809 0.950 . S
C1821 C1817 1.393 . S
C1821 C1820 1.391 . S
C1822 H1812 0.950 1_655 S
C1822 C1823 1.386 . S
C1822 C1824 1.391 . S
C1823 C1822 1.386 . S
C1823 C1827 1.393 . S
C1824 H1813 0.950 . S
C1824 C1822 1.391 . S
C1824 C1825 1.400 . S
C1825 C1819 1.491 . S
C1825 C1824 1.400 . S
C1825 C1826 1.398 . S
C1826 H1814 0.950 . S
C1826 C1825 1.398 . S
C1826 C1827 1.391 . S
C1827 H1815 0.950 . S
C1827 C1823 1.393 . S
C1827 C1826 1.391 . S
H1828 C1836 0.950 . S
H1829 C1841 0.950 . S
H1830 C1838 0.950 . S
H1831 C1840 0.950 . S
H1832 C1842 0.950 . S
H1833 C1844 0.950 . S
H1834 C1846 0.950 . S
H1835 C1847 0.950 . S
C1836 H1828 0.950 . S
C1836 C1837 1.386 . S
C1836 C1838 1.391 . S
C1837 C1836 1.386 . S
C1837 C1841 1.393 . S
C1838 H1830 0.950 . S
C1838 C1836 1.391 . S
C1838 C1839 1.400 . S
C1839 C1838 1.400 . S
C1839 C1840 1.398 . S
C1839 C1845 1.491 . S
C1840 H1831 0.950 . S
C1840 C1839 1.398 . S
C1840 C1841 1.391 . S
C1841 H1829 0.950 . S
C1841 C1837 1.393 . S
C1841 C1840 1.391 . S
C1842 H1832 0.950 . S
C1842 C1843 1.386 . S
C1842 C1844 1.391 . S
C1843 C1842 1.386 . S
C1843 C1847 1.393 . S
C1844 H1833 0.950 . S
C1844 C1842 1.391 . S
C1844 C1845 1.400 . S
C1845 C1839 1.491 . S
C1845 C1844 1.400 . S
C1845 C1846 1.398 . S
C1846 H1834 0.950 . S
C1846 C1845 1.398 . S
C1846 C1847 1.391 . S
C1847 H1835 0.950 . S
C1847 C1843 1.393 . S
C1847 C1846 1.391 . S
H1848 C1856 0.950 . S
H1849 C1861 0.950 . S
H1850 C1858 0.950 . S
H1851 C1860 0.950 . S
H1852 C1862 0.950 . S
H1853 C1864 0.950 . S
H1854 C1866 0.950 . S
H1855 C1867 0.950 . S
C1856 H1848 0.950 . S
C1856 C1857 1.386 . S
C1856 C1858 1.391 . S
C1857 C1856 1.386 . S
C1857 C1861 1.393 . S
C1858 H1850 0.950 . S
C1858 C1856 1.391 . S
C1858 C1859 1.400 . S
C1859 C1858 1.400 . S
C1859 C1860 1.398 . S
C1859 C1865 1.491 . S
C1860 H1851 0.950 . S
C1860 C1859 1.398 . S
C1860 C1861 1.391 . S
C1861 H1849 0.950 . S
C1861 C1857 1.393 . S
C1861 C1860 1.391 . S
C1862 H1852 0.950 . S
C1862 C1863 1.386 . S
C1862 C1864 1.391 . S
C1863 C1862 1.386 . S
C1863 C1867 1.393 . S
C1864 H1853 0.950 . S
C1864 C1862 1.391 . S
C1864 C1865 1.400 . S
C1865 C1859 1.491 . S
C1865 C1864 1.400 . S
C1865 C1866 1.398 . S
C1866 H1854 0.950 . S
C1866 C1865 1.398 . S
C1866 C1867 1.391 . S
C1867 H1855 0.950 . S
C1867 C1863 1.393 . S
C1867 C1866 1.391 . S
H1868 C1876 0.950 . S
H1869 C1881 0.950 . S
H1870 C1878 0.950 . S
H1871 C1880 0.950 . S
H1872 C1882 0.950 . S
H1873 C1884 0.950 . S
H1874 C1886 0.950 . S
H1875 C1887 0.950 . S
C1876 H1868 0.950 . S
C1876 C1877 1.386 . S
C1876 C1878 1.391 . S
C1877 C1876 1.386 . S
C1877 C1881 1.393 . S
C1878 H1870 0.950 . S
C1878 C1876 1.391 . S
C1878 C1879 1.400 . S
C1879 C1878 1.400 . S
C1879 C1880 1.398 . S
C1879 C1885 1.491 . S
C1880 H1871 0.950 . S
C1880 C1879 1.398 . S
C1880 C1881 1.391 . S
C1881 H1869 0.950 . S
C1881 C1877 1.393 . S
C1881 C1880 1.391 . S
C1882 H1872 0.950 . S
C1882 C1883 1.386 . S
C1882 C1884 1.391 . S
C1883 C1882 1.386 . S
C1883 C1887 1.393 . S
C1884 H1873 0.950 . S
C1884 C1882 1.391 . S
C1884 C1885 1.400 . S
C1885 C1879 1.491 . S
C1885 C1884 1.400 . S
C1885 C1886 1.398 . S
C1886 H1874 0.950 . S
C1886 C1885 1.398 . S
C1886 C1887 1.391 . S
C1887 H1875 0.950 . S
C1887 C1883 1.393 . S
C1887 C1886 1.391 . S
H1888 C1896 0.950 . S
H1889 C1901 0.950 . S
H1890 C1898 0.950 . S
H1891 C1900 0.950 . S
H1892 C1902 0.950 . S
H1893 C1904 0.950 . S
H1894 C1906 0.950 . S
H1895 C1907 0.950 1_455 S
C1896 H1888 0.950 . S
C1896 C1897 1.386 . S
C1896 C1898 1.391 . S
C1897 C1896 1.386 . S
C1897 C1901 1.393 . S
C1898 H1890 0.950 . S
C1898 C1896 1.391 . S
C1898 C1899 1.400 . S
C1899 C1898 1.400 . S
C1899 C1900 1.398 . S
C1899 C1905 1.491 . S
C1900 H1891 0.950 . S
C1900 C1899 1.398 . S
C1900 C1901 1.391 . S
C1901 H1889 0.950 . S
C1901 C1897 1.393 . S
C1901 C1900 1.391 . S
C1902 H1892 0.950 . S
C1902 C1903 1.386 . S
C1902 C1904 1.391 . S
C1903 C1902 1.386 . S
C1903 C1907 1.393 . S
C1904 H1893 0.950 . S
C1904 C1902 1.391 . S
C1904 C1905 1.400 . S
C1905 C1899 1.491 . S
C1905 C1904 1.400 . S
C1905 C1906 1.398 . S
C1906 H1894 0.950 . S
C1906 C1905 1.398 . S
C1906 C1907 1.391 . S
C1907 H1895 0.950 1_655 S
C1907 C1903 1.393 . S
C1907 C1906 1.391 . S
H1908 C1916 0.950 . S
H1909 C1921 0.950 . S
H1910 C1918 0.950 . S
H1911 C1920 0.950 . S
H1912 C1922 0.950 . S
H1913 C1924 0.950 . S
H1914 C1926 0.950 . S
H1915 C1927 0.950 . S
C1916 H1908 0.950 . S
C1916 C1917 1.386 . S
C1916 C1918 1.391 . S
C1917 C1916 1.386 . S
C1917 C1921 1.393 . S
C1918 H1910 0.950 . S
C1918 C1916 1.391 . S
C1918 C1919 1.400 . S
C1919 C1918 1.400 . S
C1919 C1920 1.398 . S
C1919 C1925 1.491 . S
C1920 H1911 0.950 . S
C1920 C1919 1.398 . S
C1920 C1921 1.391 . S
C1921 H1909 0.950 . S
C1921 C1917 1.393 . S
C1921 C1920 1.391 . S
C1922 H1912 0.950 . S
C1922 C1923 1.386 . S
C1922 C1924 1.391 . S
C1923 C1922 1.386 . S
C1923 C1927 1.393 . S
C1924 H1913 0.950 . S
C1924 C1922 1.391 . S
C1924 C1925 1.400 . S
C1925 C1919 1.491 . S
C1925 C1924 1.400 . S
C1925 C1926 1.398 . S
C1926 H1914 0.950 . S
C1926 C1925 1.398 . S
C1926 C1927 1.391 . S
C1927 H1915 0.950 . S
C1927 C1923 1.393 . S
C1927 C1926 1.391 . S
H1928 C1936 0.950 . S
H1929 C1941 0.950 . S
H1930 C1938 0.950 . S
H1931 C1940 0.950 . S
H1932 C1942 0.950 . S
H1933 C1944 0.950 . S
H1934 C1946 0.950 . S
H1935 C1947 0.950 . S
C1936 H1928 0.950 . S
C1936 C1937 1.386 . S
C1936 C1938 1.391 . S
C1937 C1936 1.386 . S
C1937 C1941 1.393 . S
C1938 H1930 0.950 . S
C1938 C1936 1.391 . S
C1938 C1939 1.400 . S
C1939 C1938 1.400 . S
C1939 C1940 1.398 . S
C1939 C1945 1.491 . S
C1940 H1931 0.950 . S
C1940 C1939 1.398 . S
C1940 C1941 1.391 . S
C1941 H1929 0.950 . S
C1941 C1937 1.393 . S
C1941 C1940 1.391 . S
C1942 H1932 0.950 . S
C1942 C1943 1.386 . S
C1942 C1944 1.391 . S
C1943 C1942 1.386 . S
C1943 C1947 1.393 . S
C1944 H1933 0.950 . S
C1944 C1942 1.391 . S
C1944 C1945 1.400 . S
C1945 C1939 1.491 . S
C1945 C1944 1.400 . S
C1945 C1946 1.398 . S
C1946 H1934 0.950 . S
C1946 C1945 1.398 . S
C1946 C1947 1.391 . S
C1947 H1935 0.950 . S
C1947 C1943 1.393 . S
C1947 C1946 1.391 . S
H1948 C1956 0.950 . S
H1949 C1961 0.950 . S
H1950 C1958 0.950 . S
H1951 C1960 0.950 . S
H1952 C1962 0.950 1_545 S
H1953 C1964 0.950 . S
H1954 C1966 0.950 . S
H1955 C1967 0.950 . S
C1956 H1948 0.950 . S
C1956 C1957 1.386 . S
C1956 C1958 1.391 . S
C1957 C1956 1.386 . S
C1957 C1961 1.393 . S
C1958 H1950 0.950 . S
C1958 C1956 1.391 . S
C1958 C1959 1.400 . S
C1959 C1958 1.400 . S
C1959 C1960 1.398 . S
C1959 C1965 1.491 . S
C1960 H1951 0.950 . S
C1960 C1959 1.398 . S
C1960 C1961 1.391 . S
C1961 H1949 0.950 . S
C1961 C1957 1.393 . S
C1961 C1960 1.391 . S
C1962 H1952 0.950 1_565 S
C1962 C1963 1.386 . S
C1962 C1964 1.391 . S
C1963 C1962 1.386 . S
C1963 C1967 1.393 . S
C1964 H1953 0.950 . S
C1964 C1962 1.391 . S
C1964 C1965 1.400 . S
C1965 C1959 1.491 . S
C1965 C1964 1.400 . S
C1965 C1966 1.398 . S
C1966 H1954 0.950 . S
C1966 C1965 1.398 . S
C1966 C1967 1.391 . S
C1967 H1955 0.950 . S
C1967 C1963 1.393 . S
C1967 C1966 1.391 . S
H1968 C1976 0.950 . S
H1969 C1981 0.950 . S
H1970 C1978 0.950 . S
H1971 C1980 0.950 . S
H1972 C1982 0.950 . S
H1973 C1984 0.950 . S
H1974 C1986 0.950 . S
H1975 C1987 0.950 . S
C1976 H1968 0.950 . S
C1976 C1977 1.386 . S
C1976 C1978 1.391 . S
C1977 C1976 1.386 . S
C1977 C1981 1.393 . S
C1978 H1970 0.950 . S
C1978 C1976 1.391 . S
C1978 C1979 1.400 . S
C1979 C1978 1.400 . S
C1979 C1980 1.398 . S
C1979 C1985 1.491 . S
C1980 H1971 0.950 . S
C1980 C1979 1.398 . S
C1980 C1981 1.391 . S
C1981 H1969 0.950 . S
C1981 C1977 1.393 . S
C1981 C1980 1.391 . S
C1982 H1972 0.950 . S
C1982 C1983 1.386 . S
C1982 C1984 1.391 . S
C1983 C1982 1.386 . S
C1983 C1987 1.393 . S
C1984 H1973 0.950 . S
C1984 C1982 1.391 . S
C1984 C1985 1.400 . S
C1985 C1979 1.491 . S
C1985 C1984 1.400 . S
C1985 C1986 1.398 . S
C1986 H1974 0.950 . S
C1986 C1985 1.398 . S
C1986 C1987 1.391 . S
C1987 H1975 0.950 . S
C1987 C1983 1.393 . S
C1987 C1986 1.391 . S
H1988 C1996 0.950 . S
H1989 C2001 0.950 . S
H1990 C1998 0.950 . S
H1991 C2000 0.950 . S
H1992 C2002 0.950 . S
H1993 C2004 0.950 . S
H1994 C2006 0.950 . S
H1995 C2007 0.950 . S
C1996 H1988 0.950 . S
C1996 C1997 1.386 . S
C1996 C1998 1.391 . S
C1997 C1996 1.386 . S
C1997 C2001 1.393 1_554 S
C1998 H1990 0.950 . S
C1998 C1996 1.391 . S
C1998 C1999 1.400 . S
C1999 C1998 1.400 . S
C1999 C2000 1.398 1_554 S
C1999 C2005 1.491 . S
C2000 H1991 0.950 . S
C2000 C1999 1.398 1_556 S
C2000 C2001 1.391 . S
C2001 H1989 0.950 . S
C2001 C1997 1.393 1_556 S
C2001 C2000 1.391 . S
C2002 H1992 0.950 . S
C2002 C2003 1.386 1_556 S
C2002 C2004 1.391 . S
C2003 C2002 1.386 1_554 S
C2003 C2007 1.393 . S
C2004 H1993 0.950 . S
C2004 C2002 1.391 . S
C2004 C2005 1.400 1_556 S
C2005 C1999 1.491 . S
C2005 C2004 1.400 1_554 S
C2005 C2006 1.398 . S
C2006 H1994 0.950 . S
C2006 C2005 1.398 . S
C2006 C2007 1.391 . S
C2007 H1995 0.950 . S
C2007 C2003 1.393 . S
C2007 C2006 1.391 . S
H2008 C2016 0.950 . S
H2009 C2021 0.950 . S
H2010 C2018 0.950 . S
H2011 C2020 0.950 . S
H2012 C2022 0.950 . S
H2013 C2024 0.950 . S
H2014 C2026 0.950 . S
H2015 C2027 0.950 . S
C2016 H2008 0.950 . S
C2016 C2017 1.386 . S
C2016 C2018 1.391 . S
C2017 C2016 1.386 . S
C2017 C2021 1.393 . S
C2018 H2010 0.950 . S
C2018 C2016 1.391 . S
C2018 C2019 1.400 . S
C2019 C2018 1.400 . S
C2019 C2020 1.398 . S
C2019 C2025 1.491 . S
C2020 H2011 0.950 . S
C2020 C2019 1.398 . S
C2020 C2021 1.391 . S
C2021 H2009 0.950 . S
C2021 C2017 1.393 . S
C2021 C2020 1.391 . S
C2022 H2012 0.950 . S
C2022 C2023 1.386 . S
C2022 C2024 1.391 . S
C2023 C2022 1.386 . S
C2023 C2027 1.393 . S
C2024 H2013 0.950 . S
C2024 C2022 1.391 . S
C2024 C2025 1.400 . S
C2025 C2019 1.491 . S
C2025 C2024 1.400 . S
C2025 C2026 1.398 . S
C2026 H2014 0.950 . S
C2026 C2025 1.398 . S
C2026 C2027 1.391 . S
C2027 H2015 0.950 . S
C2027 C2023 1.393 . S
C2027 C2026 1.391 . S
H2028 C2036 0.950 . S
H2029 C2041 0.950 . S
H2030 C2038 0.950 . S
H2031 C2040 0.950 . S
H2032 C2042 0.950 . S
H2033 C2044 0.950 . S
H2034 C2046 0.950 . S
H2035 C2047 0.950 . S
C2036 H2028 0.950 . S
C2036 C2037 1.386 . S
C2036 C2038 1.391 . S
C2037 C2036 1.386 . S
C2037 C2041 1.393 1_556 S
C2038 H2030 0.950 . S
C2038 C2036 1.391 . S
C2038 C2039 1.400 . S
C2039 C2038 1.400 . S
C2039 C2040 1.398 1_556 S
C2039 C2045 1.491 . S
C2040 H2031 0.950 . S
C2040 C2039 1.398 1_554 S
C2040 C2041 1.391 . S
C2041 H2029 0.950 . S
C2041 C2037 1.393 1_554 S
C2041 C2040 1.391 . S
C2042 H2032 0.950 . S
C2042 C2043 1.386 1_554 S
C2042 C2044 1.391 . S
C2043 C2042 1.386 1_556 S
C2043 C2047 1.393 . S
C2044 H2033 0.950 . S
C2044 C2042 1.391 . S
C2044 C2045 1.400 1_554 S
C2045 C2039 1.491 . S
C2045 C2044 1.400 1_556 S
C2045 C2046 1.398 . S
C2046 H2034 0.950 . S
C2046 C2045 1.398 . S
C2046 C2047 1.391 . S
C2047 H2035 0.950 . S
C2047 C2043 1.393 . S
C2047 C2046 1.391 . S
H2048 C2056 0.950 . S
H2049 C2061 0.950 . S
H2050 C2058 0.950 . S
H2051 C2060 0.950 . S
H2052 C2062 0.950 . S
H2053 C2064 0.950 . S
H2054 C2066 0.950 . S
H2055 C2067 0.950 . S
C2056 H2048 0.950 . S
C2056 C2057 1.386 . S
C2056 C2058 1.391 . S
C2057 C2056 1.386 . S
C2057 C2061 1.393 . S
C2058 H2050 0.950 . S
C2058 C2056 1.391 . S
C2058 C2059 1.400 . S
C2059 C2058 1.400 . S
C2059 C2060 1.398 . S
C2059 C2065 1.491 . S
C2060 H2051 0.950 . S
C2060 C2059 1.398 . S
C2060 C2061 1.391 . S
C2061 H2049 0.950 . S
C2061 C2057 1.393 . S
C2061 C2060 1.391 . S
C2062 H2052 0.950 . S
C2062 C2063 1.386 . S
C2062 C2064 1.391 . S
C2063 C2062 1.386 . S
C2063 C2067 1.393 . S
C2064 H2053 0.950 . S
C2064 C2062 1.391 . S
C2064 C2065 1.400 . S
C2065 C2059 1.491 . S
C2065 C2064 1.400 . S
C2065 C2066 1.398 . S
C2066 H2054 0.950 . S
C2066 C2065 1.398 . S
C2066 C2067 1.391 . S
C2067 H2055 0.950 . S
C2067 C2063 1.393 . S
C2067 C2066 1.391 . S
H2068 C2076 0.950 . S
H2069 C2081 0.950 . S
H2070 C2078 0.950 . S
H2071 C2080 0.950 . S
H2072 C2082 0.950 . S
H2073 C2084 0.950 . S
H2074 C2086 0.950 . S
H2075 C2087 0.950 . S
C2076 H2068 0.950 . S
C2076 C2077 1.386 . S
C2076 C2078 1.391 . S
C2077 C2076 1.386 . S
C2077 C2081 1.393 . S
C2078 H2070 0.950 . S
C2078 C2076 1.391 . S
C2078 C2079 1.400 . S
C2079 C2078 1.400 . S
C2079 C2080 1.398 . S
C2079 C2085 1.491 . S
C2080 H2071 0.950 . S
C2080 C2079 1.398 . S
C2080 C2081 1.391 . S
C2081 H2069 0.950 . S
C2081 C2077 1.393 . S
C2081 C2080 1.391 . S
C2082 H2072 0.950 . S
C2082 C2083 1.386 . S
C2082 C2084 1.391 . S
C2083 C2082 1.386 . S
C2083 C2087 1.393 . S
C2084 H2073 0.950 . S
C2084 C2082 1.391 . S
C2084 C2085 1.400 . S
C2085 C2079 1.491 . S
C2085 C2084 1.400 . S
C2085 C2086 1.398 . S
C2086 H2074 0.950 . S
C2086 C2085 1.398 . S
C2086 C2087 1.391 . S
C2087 H2075 0.950 . S
C2087 C2083 1.393 . S
C2087 C2086 1.391 . S
H2088 C2096 0.950 . S
H2089 C2101 0.950 . S
H2090 C2098 0.950 . S
H2091 C2100 0.950 . S
H2092 C2102 0.950 . S
H2093 C2104 0.950 . S
H2094 C2106 0.950 . S
H2095 C2107 0.950 . S
C2096 H2088 0.950 . S
C2096 C2097 1.386 . S
C2096 C2098 1.391 . S
C2097 C2096 1.386 . S
C2097 C2101 1.393 . S
C2098 H2090 0.950 . S
C2098 C2096 1.391 . S
C2098 C2099 1.400 . S
C2099 C2098 1.400 . S
C2099 C2100 1.398 . S
C2099 C2105 1.491 . S
C2100 H2091 0.950 . S
C2100 C2099 1.398 . S
C2100 C2101 1.391 . S
C2101 H2089 0.950 . S
C2101 C2097 1.393 . S
C2101 C2100 1.391 . S
C2102 H2092 0.950 . S
C2102 C2103 1.386 . S
C2102 C2104 1.391 . S
C2103 C2102 1.386 . S
C2103 C2107 1.393 . S
C2104 H2093 0.950 . S
C2104 C2102 1.391 . S
C2104 C2105 1.400 . S
C2105 C2099 1.491 . S
C2105 C2104 1.400 . S
C2105 C2106 1.398 . S
C2106 H2094 0.950 . S
C2106 C2105 1.398 . S
C2106 C2107 1.391 . S
C2107 H2095 0.950 . S
C2107 C2103 1.393 . S
C2107 C2106 1.391 . S
H2108 C2116 0.950 . S
H2109 C2121 0.950 . S
H2110 C2118 0.950 . S
H2111 C2120 0.950 . S
H2112 C2122 0.950 . S
H2113 C2124 0.950 . S
H2114 C2126 0.950 . S
H2115 C2127 0.950 . S
C2116 H2108 0.950 . S
C2116 C2117 1.386 . S
C2116 C2118 1.391 . S
C2117 C2116 1.386 . S
C2117 C2121 1.393 . S
C2118 H2110 0.950 . S
C2118 C2116 1.391 . S
C2118 C2119 1.400 . S
C2119 C2118 1.400 . S
C2119 C2120 1.398 . S
C2119 C2125 1.491 . S
C2120 H2111 0.950 . S
C2120 C2119 1.398 . S
C2120 C2121 1.391 . S
C2121 H2109 0.950 . S
C2121 C2117 1.393 . S
C2121 C2120 1.391 . S
C2122 H2112 0.950 . S
C2122 C2123 1.386 . S
C2122 C2124 1.391 . S
C2123 C2122 1.386 . S
C2123 C2127 1.393 . S
C2124 H2113 0.950 . S
C2124 C2122 1.391 . S
C2124 C2125 1.400 . S
C2125 C2119 1.491 . S
C2125 C2124 1.400 . S
C2125 C2126 1.398 . S
C2126 H2114 0.950 . S
C2126 C2125 1.398 . S
C2126 C2127 1.391 . S
C2127 H2115 0.950 . S
C2127 C2123 1.393 . S
C2127 C2126 1.391 . S
H2128 C2136 0.950 . S
H2129 C2141 0.950 . S
H2130 C2138 0.950 . S
H2131 C2140 0.950 . S
H2132 C2142 0.950 . S
H2133 C2144 0.950 . S
H2134 C2146 0.950 . S
H2135 C2147 0.950 . S
C2136 H2128 0.950 . S
C2136 C2137 1.386 . S
C2136 C2138 1.391 . S
C2137 C2136 1.386 . S
C2137 C2141 1.393 1_455 S
C2138 H2130 0.950 . S
C2138 C2136 1.391 . S
C2138 C2139 1.400 . S
C2139 C2138 1.400 . S
C2139 C2140 1.398 1_455 S
C2139 C2145 1.491 . S
C2140 H2131 0.950 . S
C2140 C2139 1.398 1_655 S
C2140 C2141 1.391 . S
C2141 H2129 0.950 . S
C2141 C2137 1.393 1_655 S
C2141 C2140 1.391 . S
C2142 H2132 0.950 . S
C2142 C2143 1.385 . S
C2142 C2144 1.391 . S
C2143 C2142 1.385 . S
C2143 C2147 1.394 1_655 S
C2144 H2133 0.950 . S
C2144 C2142 1.391 . S
C2144 C2145 1.400 1_655 S
C2145 C2139 1.491 . S
C2145 C2144 1.400 1_455 S
C2145 C2146 1.398 . S
C2146 H2134 0.950 . S
C2146 C2145 1.398 . S
C2146 C2147 1.391 . S
C2147 H2135 0.950 . S
C2147 C2143 1.394 1_455 S
C2147 C2146 1.391 . S
H2148 C2156 0.950 . S
H2149 C2161 0.950 . S
H2150 C2158 0.950 . S
H2151 C2160 0.950 . S
H2152 C2162 0.950 . S
H2153 C2164 0.950 . S
H2154 C2166 0.950 . S
H2155 C2167 0.950 . S
C2156 H2148 0.950 . S
C2156 C2157 1.386 . S
C2156 C2158 1.391 . S
C2157 C2156 1.386 . S
C2157 C2161 1.393 . S
C2158 H2150 0.950 . S
C2158 C2156 1.391 . S
C2158 C2159 1.400 . S
C2159 C2158 1.400 . S
C2159 C2160 1.398 . S
C2159 C2165 1.491 . S
C2160 H2151 0.950 . S
C2160 C2159 1.398 . S
C2160 C2161 1.391 . S
C2161 H2149 0.950 . S
C2161 C2157 1.393 . S
C2161 C2160 1.391 . S
C2162 H2152 0.950 . S
C2162 C2163 1.386 . S
C2162 C2164 1.391 . S
C2163 C2162 1.386 . S
C2163 C2167 1.393 . S
C2164 H2153 0.950 . S
C2164 C2162 1.391 . S
C2164 C2165 1.400 . S
C2165 C2159 1.491 . S
C2165 C2164 1.400 . S
C2165 C2166 1.398 . S
C2166 H2154 0.950 . S
C2166 C2165 1.398 . S
C2166 C2167 1.391 . S
C2167 H2155 0.950 . S
C2167 C2163 1.393 . S
C2167 C2166 1.391 . S
H2168 C2176 0.950 . S
H2169 C2181 0.950 . S
H2170 C2178 0.950 . S
H2171 C2180 0.950 . S
H2172 C2182 0.950 . S
H2173 C2184 0.950 . S
H2174 C2186 0.950 . S
H2175 C2187 0.950 . S
C2176 H2168 0.950 . S
C2176 C2177 1.386 . S
C2176 C2178 1.391 . S
C2177 C2176 1.386 . S
C2177 C2181 1.393 . S
C2178 H2170 0.950 . S
C2178 C2176 1.391 . S
C2178 C2179 1.400 . S
C2179 C2178 1.400 . S
C2179 C2180 1.398 . S
C2179 C2185 1.491 . S
C2180 H2171 0.950 . S
C2180 C2179 1.398 . S
C2180 C2181 1.391 . S
C2181 H2169 0.950 . S
C2181 C2177 1.393 . S
C2181 C2180 1.391 . S
C2182 H2172 0.950 . S
C2182 C2183 1.386 . S
C2182 C2184 1.391 . S
C2183 C2182 1.386 . S
C2183 C2187 1.393 . S
C2184 H2173 0.950 . S
C2184 C2182 1.391 . S
C2184 C2185 1.400 . S
C2185 C2179 1.491 . S
C2185 C2184 1.400 . S
C2185 C2186 1.398 . S
C2186 H2174 0.950 . S
C2186 C2185 1.398 . S
C2186 C2187 1.391 . S
C2187 H2175 0.950 . S
C2187 C2183 1.393 . S
C2187 C2186 1.391 . S
H2188 C2196 0.950 . S
H2189 C2201 0.950 . S
H2190 C2198 0.950 . S
H2191 C2200 0.950 . S
H2192 C2202 0.950 . S
H2193 C2204 0.950 . S
H2194 C2206 0.950 . S
H2195 C2207 0.950 . S
C2196 H2188 0.950 . S
C2196 C2197 1.386 . S
C2196 C2198 1.391 . S
C2197 C2196 1.386 . S
C2197 C2201 1.393 . S
C2198 H2190 0.950 . S
C2198 C2196 1.391 . S
C2198 C2199 1.400 . S
C2199 C2198 1.400 . S
C2199 C2200 1.398 . S
C2199 C2205 1.491 . S
C2200 H2191 0.950 . S
C2200 C2199 1.398 . S
C2200 C2201 1.391 . S
C2201 H2189 0.950 . S
C2201 C2197 1.393 . S
C2201 C2200 1.391 . S
C2202 H2192 0.950 . S
C2202 C2203 1.386 . S
C2202 C2204 1.391 . S
C2203 C2202 1.386 . S
C2203 C2207 1.393 . S
C2204 H2193 0.950 . S
C2204 C2202 1.391 . S
C2204 C2205 1.400 . S
C2205 C2199 1.491 . S
C2205 C2204 1.400 . S
C2205 C2206 1.398 . S
C2206 H2194 0.950 . S
C2206 C2205 1.398 . S
C2206 C2207 1.391 . S
C2207 H2195 0.950 . S
C2207 C2203 1.393 . S
C2207 C2206 1.391 . S
H2208 C2216 0.950 . S
H2209 C2221 0.950 . S
H2210 C2218 0.950 . S
H2211 C2220 0.950 . S
H2212 C2222 0.950 . S
H2213 C2224 0.950 . S
H2214 C2226 0.950 . S
H2215 C2227 0.950 . S
C2216 H2208 0.950 . S
C2216 C2217 1.386 1_655 S
C2216 C2218 1.391 . S
C2217 C2216 1.386 1_455 S
C2217 C2221 1.393 . S
C2218 H2210 0.950 . S
C2218 C2216 1.391 . S
C2218 C2219 1.400 1_655 S
C2219 C2218 1.400 1_455 S
C2219 C2220 1.398 . S
C2219 C2225 1.491 . S
C2220 H2211 0.950 . S
C2220 C2219 1.398 . S
C2220 C2221 1.391 . S
C2221 H2209 0.950 . S
C2221 C2217 1.393 . S
C2221 C2220 1.391 . S
C2222 H2212 0.950 . S
C2222 C2223 1.386 . S
C2222 C2224 1.391 . S
C2223 C2222 1.386 . S
C2223 C2227 1.393 1_455 S
C2224 H2213 0.950 . S
C2224 C2222 1.391 . S
C2224 C2225 1.400 . S
C2225 C2219 1.491 . S
C2225 C2224 1.400 . S
C2225 C2226 1.398 1_455 S
C2226 H2214 0.950 . S
C2226 C2225 1.398 1_655 S
C2226 C2227 1.391 . S
C2227 H2215 0.950 . S
C2227 C2223 1.393 1_655 S
C2227 C2226 1.391 . S
H2228 C2236 0.950 . S
H2229 C2241 0.950 . S
H2230 C2238 0.950 . S
H2231 C2240 0.950 . S
H2232 C2242 0.950 . S
H2233 C2244 0.950 . S
H2234 C2246 0.950 . S
H2235 C2247 0.950 . S
C2236 H2228 0.950 . S
C2236 C2237 1.386 . S
C2236 C2238 1.391 . S
C2237 C2236 1.386 . S
C2237 C2241 1.393 . S
C2238 H2230 0.950 . S
C2238 C2236 1.391 . S
C2238 C2239 1.400 . S
C2239 C2238 1.400 . S
C2239 C2240 1.398 . S
C2239 C2245 1.491 . S
C2240 H2231 0.950 . S
C2240 C2239 1.398 . S
C2240 C2241 1.391 . S
C2241 H2229 0.950 . S
C2241 C2237 1.393 . S
C2241 C2240 1.391 . S
C2242 H2232 0.950 . S
C2242 C2243 1.386 . S
C2242 C2244 1.391 . S
C2243 C2242 1.386 . S
C2243 C2247 1.393 . S
C2244 H2233 0.950 . S
C2244 C2242 1.391 . S
C2244 C2245 1.400 . S
C2245 C2239 1.491 . S
C2245 C2244 1.400 . S
C2245 C2246 1.398 . S
C2246 H2234 0.950 . S
C2246 C2245 1.398 . S
C2246 C2247 1.391 . S
C2247 H2235 0.950 . S
C2247 C2243 1.393 . S
C2247 C2246 1.391 . S
H2248 C2256 0.950 . S
H2249 C2261 0.950 . S
H2250 C2258 0.950 . S
H2251 C2260 0.950 . S
H2252 C2262 0.950 . S
H2253 C2264 0.950 . S
H2254 C2266 0.950 . S
H2255 C2267 0.950 . S
C2256 H2248 0.950 . S
C2256 C2257 1.386 . S
C2256 C2258 1.391 . S
C2257 C2256 1.386 . S
C2257 C2261 1.393 . S
C2258 H2250 0.950 . S
C2258 C2256 1.391 . S
C2258 C2259 1.400 . S
C2259 C2258 1.400 . S
C2259 C2260 1.398 . S
C2259 C2265 1.491 . S
C2260 H2251 0.950 . S
C2260 C2259 1.398 . S
C2260 C2261 1.391 . S
C2261 H2249 0.950 . S
C2261 C2257 1.393 . S
C2261 C2260 1.391 . S
C2262 H2252 0.950 . S
C2262 C2263 1.386 . S
C2262 C2264 1.391 . S
C2263 C2262 1.386 . S
C2263 C2267 1.393 . S
C2264 H2253 0.950 . S
C2264 C2262 1.391 . S
C2264 C2265 1.400 . S
C2265 C2259 1.491 . S
C2265 C2264 1.400 . S
C2265 C2266 1.398 . S
C2266 H2254 0.950 . S
C2266 C2265 1.398 . S
C2266 C2267 1.391 . S
C2267 H2255 0.950 . S
C2267 C2263 1.393 . S
C2267 C2266 1.391 . S
H2268 C2276 0.950 . S
H2269 C2281 0.950 . S
H2270 C2278 0.950 . S
H2271 C2280 0.950 . S
H2272 C2282 0.950 . S
H2273 C2284 0.950 . S
H2274 C2286 0.950 . S
H2275 C2287 0.950 . S
C2276 H2268 0.950 . S
C2276 C2277 1.386 . S
C2276 C2278 1.391 . S
C2277 C2276 1.386 . S
C2277 C2281 1.393 . S
C2278 H2270 0.950 . S
C2278 C2276 1.391 . S
C2278 C2279 1.400 . S
C2279 C2278 1.400 . S
C2279 C2280 1.398 . S
C2279 C2285 1.491 . S
C2280 H2271 0.950 . S
C2280 C2279 1.398 . S
C2280 C2281 1.391 . S
C2281 H2269 0.950 . S
C2281 C2277 1.393 . S
C2281 C2280 1.391 . S
C2282 H2272 0.950 . S
C2282 C2283 1.386 . S
C2282 C2284 1.391 . S
C2283 C2282 1.386 . S
C2283 C2287 1.393 . S
C2284 H2273 0.950 . S
C2284 C2282 1.391 . S
C2284 C2285 1.400 . S
C2285 C2279 1.491 . S
C2285 C2284 1.400 . S
C2285 C2286 1.398 . S
C2286 H2274 0.950 . S
C2286 C2285 1.398 . S
C2286 C2287 1.391 . S
C2287 H2275 0.950 . S
C2287 C2283 1.393 . S
C2287 C2286 1.391 . S
H2288 C2296 0.950 . S
H2289 C2301 0.950 . S
H2290 C2298 0.950 . S
H2291 C2300 0.950 . S
H2292 C2302 0.950 . S
H2293 C2304 0.950 . S
H2294 C2306 0.950 . S
H2295 C2307 0.950 . S
C2296 H2288 0.950 . S
C2296 C2297 1.386 . S
C2296 C2298 1.391 . S
C2297 C2296 1.386 . S
C2297 C2301 1.393 . S
C2298 H2290 0.950 . S
C2298 C2296 1.391 . S
C2298 C2299 1.400 . S
C2299 C2298 1.400 . S
C2299 C2300 1.398 . S
C2299 C2305 1.491 . S
C2300 H2291 0.950 . S
C2300 C2299 1.398 . S
C2300 C2301 1.391 . S
C2301 H2289 0.950 . S
C2301 C2297 1.393 . S
C2301 C2300 1.391 . S
C2302 H2292 0.950 . S
C2302 C2303 1.386 . S
C2302 C2304 1.391 . S
C2303 C2302 1.386 . S
C2303 C2307 1.393 . S
C2304 H2293 0.950 . S
C2304 C2302 1.391 . S
C2304 C2305 1.400 . S
C2305 C2299 1.491 . S
C2305 C2304 1.400 . S
C2305 C2306 1.398 . S
C2306 H2294 0.950 . S
C2306 C2305 1.398 . S
C2306 C2307 1.391 . S
C2307 H2295 0.950 . S
C2307 C2303 1.393 . S
C2307 C2306 1.391 . S
H2308 C2316 0.950 . S
H2309 C2321 0.950 . S
H2310 C2318 0.950 . S
H2311 C2320 0.950 . S
H2312 C2322 0.950 . S
H2313 C2324 0.950 . S
H2314 C2326 0.950 . S
H2315 C2327 0.950 . S
C2316 H2308 0.950 . S
C2316 C2317 1.386 . S
C2316 C2318 1.391 . S
C2317 C2316 1.386 . S
C2317 C2321 1.393 . S
C2318 H2310 0.950 . S
C2318 C2316 1.391 . S
C2318 C2319 1.400 . S
C2319 C2318 1.400 . S
C2319 C2320 1.398 . S
C2319 C2325 1.491 . S
C2320 H2311 0.950 . S
C2320 C2319 1.398 . S
C2320 C2321 1.391 . S
C2321 H2309 0.950 . S
C2321 C2317 1.393 . S
C2321 C2320 1.391 . S
C2322 H2312 0.950 . S
C2322 C2323 1.386 . S
C2322 C2324 1.391 . S
C2323 C2322 1.386 . S
C2323 C2327 1.393 . S
C2324 H2313 0.950 . S
C2324 C2322 1.391 . S
C2324 C2325 1.400 . S
C2325 C2319 1.491 . S
C2325 C2324 1.400 . S
C2325 C2326 1.398 . S
C2326 H2314 0.950 . S
C2326 C2325 1.398 . S
C2326 C2327 1.391 . S
C2327 H2315 0.950 . S
C2327 C2323 1.393 . S
C2327 C2326 1.391 . S
H2328 C2336 0.950 . S
H2329 C2341 0.950 . S
H2330 C2338 0.950 . S
H2331 C2340 0.950 . S
H2332 C2342 0.950 . S
H2333 C2344 0.950 . S
H2334 C2346 0.950 . S
H2335 C2347 0.950 . S
C2336 H2328 0.950 . S
C2336 C2337 1.386 . S
C2336 C2338 1.391 . S
C2337 C2336 1.386 . S
C2337 C2341 1.393 . S
C2338 H2330 0.950 . S
C2338 C2336 1.391 . S
C2338 C2339 1.400 . S
C2339 C2338 1.400 . S
C2339 C2340 1.398 . S
C2339 C2345 1.491 . S
C2340 H2331 0.950 . S
C2340 C2339 1.398 . S
C2340 C2341 1.391 . S
C2341 H2329 0.950 . S
C2341 C2337 1.393 . S
C2341 C2340 1.391 . S
C2342 H2332 0.950 . S
C2342 C2343 1.386 . S
C2342 C2344 1.391 . S
C2343 C2342 1.386 . S
C2343 C2347 1.393 . S
C2344 H2333 0.950 . S
C2344 C2342 1.391 . S
C2344 C2345 1.400 . S
C2345 C2339 1.491 . S
C2345 C2344 1.400 . S
C2345 C2346 1.398 . S
C2346 H2334 0.950 . S
C2346 C2345 1.398 . S
C2346 C2347 1.391 . S
C2347 H2335 0.950 . S
C2347 C2343 1.393 . S
C2347 C2346 1.391 . S
H2348 C2356 0.950 . S
H2349 C2361 0.950 . S
H2350 C2358 0.950 . S
H2351 C2360 0.950 . S
H2352 C2362 0.950 . S
H2353 C2364 0.950 . S
H2354 C2366 0.950 . S
H2355 C2367 0.950 . S
C2356 H2348 0.950 . S
C2356 C2357 1.386 . S
C2356 C2358 1.391 . S
C2357 C2356 1.386 . S
C2357 C2361 1.393 . S
C2358 H2350 0.950 . S
C2358 C2356 1.391 . S
C2358 C2359 1.400 . S
C2359 C2358 1.400 . S
C2359 C2360 1.398 . S
C2359 C2365 1.491 . S
C2360 H2351 0.950 . S
C2360 C2359 1.398 . S
C2360 C2361 1.391 . S
C2361 H2349 0.950 . S
C2361 C2357 1.393 . S
C2361 C2360 1.391 . S
C2362 H2352 0.950 . S
C2362 C2363 1.386 . S
C2362 C2364 1.391 . S
C2363 C2362 1.386 . S
C2363 C2367 1.393 . S
C2364 H2353 0.950 . S
C2364 C2362 1.391 . S
C2364 C2365 1.400 . S
C2365 C2359 1.491 . S
C2365 C2364 1.400 . S
C2365 C2366 1.398 . S
C2366 H2354 0.950 . S
C2366 C2365 1.398 . S
C2366 C2367 1.391 . S
C2367 H2355 0.950 . S
C2367 C2363 1.393 . S
C2367 C2366 1.391 . S
H2368 C2376 0.950 . S
H2369 C2381 0.950 . S
H2370 C2378 0.950 . S
H2371 C2380 0.950 . S
H2372 C2382 0.950 . S
H2373 C2384 0.950 . S
H2374 C2386 0.950 . S
H2375 C2387 0.950 . S
C2376 H2368 0.950 . S
C2376 C2377 1.386 . S
C2376 C2378 1.391 . S
C2377 C2376 1.386 . S
C2377 C2381 1.393 . S
C2378 H2370 0.950 . S
C2378 C2376 1.391 . S
C2378 C2379 1.400 . S
C2379 C2378 1.400 . S
C2379 C2380 1.398 . S
C2379 C2385 1.491 . S
C2380 H2371 0.950 . S
C2380 C2379 1.398 . S
C2380 C2381 1.391 . S
C2381 H2369 0.950 . S
C2381 C2377 1.393 . S
C2381 C2380 1.391 . S
C2382 H2372 0.950 . S
C2382 C2383 1.386 . S
C2382 C2384 1.391 . S
C2383 C2382 1.386 . S
C2383 C2387 1.393 . S
C2384 H2373 0.950 . S
C2384 C2382 1.391 . S
C2384 C2385 1.400 . S
C2385 C2379 1.491 . S
C2385 C2384 1.400 . S
C2385 C2386 1.398 . S
C2386 H2374 0.950 . S
C2386 C2385 1.398 . S
C2386 C2387 1.391 . S
C2387 H2375 0.950 . S
C2387 C2383 1.393 . S
C2387 C2386 1.391 . S
H2388 C2396 0.950 . S
H2389 C2401 0.950 . S
H2390 C2398 0.950 . S
H2391 C2400 0.950 . S
H2392 C2402 0.950 . S
H2393 C2404 0.950 . S
H2394 C2406 0.950 . S
H2395 C2407 0.950 . S
C2396 H2388 0.950 . S
C2396 C2397 1.386 . S
C2396 C2398 1.391 . S
C2397 C2396 1.386 . S
C2397 C2401 1.393 . S
C2398 H2390 0.950 . S
C2398 C2396 1.391 . S
C2398 C2399 1.400 . S
C2399 C2398 1.400 . S
C2399 C2400 1.398 . S
C2399 C2405 1.491 . S
C2400 H2391 0.950 . S
C2400 C2399 1.398 . S
C2400 C2401 1.391 . S
C2401 H2389 0.950 . S
C2401 C2397 1.393 . S
C2401 C2400 1.391 . S
C2402 H2392 0.950 . S
C2402 C2403 1.386 . S
C2402 C2404 1.391 . S
C2403 C2402 1.386 . S
C2403 C2407 1.393 . S
C2404 H2393 0.950 . S
C2404 C2402 1.391 . S
C2404 C2405 1.400 . S
C2405 C2399 1.491 . S
C2405 C2404 1.400 . S
C2405 C2406 1.398 . S
C2406 H2394 0.950 . S
C2406 C2405 1.398 . S
C2406 C2407 1.391 . S
C2407 H2395 0.950 . S
C2407 C2403 1.393 . S
C2407 C2406 1.391 . S
H2408 C2416 0.950 . S
H2409 C2421 0.950 . S
H2410 C2418 0.950 . S
H2411 C2420 0.950 . S
H2412 C2422 0.950 . S
H2413 C2424 0.950 . S
H2414 C2426 0.950 . S
H2415 C2427 0.950 . S
C2416 H2408 0.950 . S
C2416 C2417 1.386 . S
C2416 C2418 1.391 . S
C2417 C2416 1.386 . S
C2417 C2421 1.393 . S
C2418 H2410 0.950 . S
C2418 C2416 1.391 . S
C2418 C2419 1.400 . S
C2419 C2418 1.400 . S
C2419 C2420 1.398 . S
C2419 C2425 1.491 . S
C2420 H2411 0.950 . S
C2420 C2419 1.398 . S
C2420 C2421 1.391 . S
C2421 H2409 0.950 . S
C2421 C2417 1.393 . S
C2421 C2420 1.391 . S
C2422 H2412 0.950 . S
C2422 C2423 1.386 . S
C2422 C2424 1.391 . S
C2423 C2422 1.386 . S
C2423 C2427 1.393 . S
C2424 H2413 0.950 . S
C2424 C2422 1.391 . S
C2424 C2425 1.400 . S
C2425 C2419 1.491 . S
C2425 C2424 1.400 . S
C2425 C2426 1.398 . S
C2426 H2414 0.950 . S
C2426 C2425 1.398 . S
C2426 C2427 1.391 . S
C2427 H2415 0.950 . S
C2427 C2423 1.393 . S
C2427 C2426 1.391 . S
H2428 C2436 0.950 . S
H2429 C2441 0.950 . S
H2430 C2438 0.950 . S
H2431 C2440 0.950 . S
H2432 C2442 0.950 . S
H2433 C2444 0.950 . S
H2434 C2446 0.950 . S
H2435 C2447 0.950 . S
C2436 H2428 0.950 . S
C2436 C2437 1.386 . S
C2436 C2438 1.391 . S
C2437 C2436 1.386 . S
C2437 C2441 1.393 . S
C2438 H2430 0.950 . S
C2438 C2436 1.391 . S
C2438 C2439 1.400 . S
C2439 C2438 1.400 . S
C2439 C2440 1.398 . S
C2439 C2445 1.491 . S
C2440 H2431 0.950 . S
C2440 C2439 1.398 . S
C2440 C2441 1.391 . S
C2441 H2429 0.950 . S
C2441 C2437 1.393 . S
C2441 C2440 1.391 . S
C2442 H2432 0.950 . S
C2442 C2443 1.386 . S
C2442 C2444 1.391 . S
C2443 C2442 1.386 . S
C2443 C2447 1.393 . S
C2444 H2433 0.950 . S
C2444 C2442 1.391 . S
C2444 C2445 1.400 . S
C2445 C2439 1.491 . S
C2445 C2444 1.400 . S
C2445 C2446 1.398 . S
C2446 H2434 0.950 . S
C2446 C2445 1.398 . S
C2446 C2447 1.391 . S
C2447 H2435 0.950 . S
C2447 C2443 1.393 . S
C2447 C2446 1.391 . S
H2448 C2456 0.950 . S
H2449 C2461 0.950 . S
H2450 C2458 0.950 . S
H2451 C2460 0.950 . S
H2452 C2462 0.950 . S
H2453 C2464 0.950 . S
H2454 C2466 0.950 . S
H2455 C2467 0.950 . S
C2456 H2448 0.950 . S
C2456 C2457 1.386 . S
C2456 C2458 1.391 . S
C2457 C2456 1.386 . S
C2457 C2461 1.393 . S
C2458 H2450 0.950 . S
C2458 C2456 1.391 . S
C2458 C2459 1.400 . S
C2459 C2458 1.400 . S
C2459 C2460 1.398 . S
C2459 C2465 1.491 . S
C2460 H2451 0.950 . S
C2460 C2459 1.398 . S
C2460 C2461 1.391 . S
C2461 H2449 0.950 . S
C2461 C2457 1.393 . S
C2461 C2460 1.391 . S
C2462 H2452 0.950 . S
C2462 C2463 1.386 . S
C2462 C2464 1.391 . S
C2463 C2462 1.386 . S
C2463 C2467 1.393 . S
C2464 H2453 0.950 . S
C2464 C2462 1.391 . S
C2464 C2465 1.400 . S
C2465 C2459 1.491 . S
C2465 C2464 1.400 . S
C2465 C2466 1.398 . S
C2466 H2454 0.950 . S
C2466 C2465 1.398 . S
C2466 C2467 1.391 . S
C2467 H2455 0.950 . S
C2467 C2463 1.393 . S
C2467 C2466 1.391 . S
H2468 C2476 0.950 . S
H2469 C2481 0.950 . S
H2470 C2478 0.950 . S
H2471 C2480 0.950 . S
H2472 C2482 0.950 . S
H2473 C2484 0.950 . S
H2474 C2486 0.950 . S
H2475 C2487 0.950 . S
C2476 H2468 0.950 . S
C2476 C2477 1.386 . S
C2476 C2478 1.391 . S
C2477 C2476 1.386 . S
C2477 C2481 1.393 1_554 S
C2478 H2470 0.950 . S
C2478 C2476 1.391 . S
C2478 C2479 1.400 . S
C2479 C2478 1.400 . S
C2479 C2480 1.398 1_554 S
C2479 C2485 1.491 . S
C2480 H2471 0.950 . S
C2480 C2479 1.398 1_556 S
C2480 C2481 1.391 . S
C2481 H2469 0.950 . S
C2481 C2477 1.393 1_556 S
C2481 C2480 1.391 . S
C2482 H2472 0.950 . S
C2482 C2483 1.386 . S
C2482 C2484 1.391 . S
C2483 C2482 1.386 . S
C2483 C2487 1.393 1_556 S
C2484 H2473 0.950 . S
C2484 C2482 1.391 . S
C2484 C2485 1.400 1_556 S
C2485 C2479 1.491 . S
C2485 C2484 1.400 1_554 S
C2485 C2486 1.398 . S
C2486 H2474 0.950 . S
C2486 C2485 1.398 . S
C2486 C2487 1.391 . S
C2487 H2475 0.950 . S
C2487 C2483 1.393 1_554 S
C2487 C2486 1.391 . S
H2488 C2496 0.950 . S
H2489 C2501 0.950 . S
H2490 C2498 0.950 . S
H2491 C2500 0.950 . S
H2492 C2502 0.950 . S
H2493 C2504 0.950 . S
H2494 C2506 0.950 . S
H2495 C2507 0.950 . S
C2496 H2488 0.950 . S
C2496 C2497 1.386 . S
C2496 C2498 1.391 . S
C2497 C2496 1.386 . S
C2497 C2501 1.393 . S
C2498 H2490 0.950 . S
C2498 C2496 1.391 . S
C2498 C2499 1.400 . S
C2499 C2498 1.400 . S
C2499 C2500 1.398 . S
C2499 C2505 1.491 . S
C2500 H2491 0.950 . S
C2500 C2499 1.398 . S
C2500 C2501 1.391 . S
C2501 H2489 0.950 . S
C2501 C2497 1.393 . S
C2501 C2500 1.391 . S
C2502 H2492 0.950 . S
C2502 C2503 1.386 . S
C2502 C2504 1.391 . S
C2503 C2502 1.386 . S
C2503 C2507 1.393 . S
C2504 H2493 0.950 . S
C2504 C2502 1.391 . S
C2504 C2505 1.400 . S
C2505 C2499 1.491 . S
C2505 C2504 1.400 . S
C2505 C2506 1.398 . S
C2506 H2494 0.950 . S
C2506 C2505 1.398 . S
C2506 C2507 1.391 . S
C2507 H2495 0.950 . S
C2507 C2503 1.393 . S
C2507 C2506 1.391 . S
H2508 C2516 0.950 . S
H2509 C2521 0.950 . S
H2510 C2518 0.950 . S
H2511 C2520 0.950 . S
H2512 C2522 0.950 . S
H2513 C2524 0.950 . S
H2514 C2526 0.950 . S
H2515 C2527 0.950 . S
C2516 H2508 0.950 . S
C2516 C2517 1.386 . S
C2516 C2518 1.391 . S
C2517 C2516 1.386 . S
C2517 C2521 1.393 1_556 S
C2518 H2510 0.950 . S
C2518 C2516 1.391 . S
C2518 C2519 1.400 1_556 S
C2519 C2518 1.400 1_554 S
C2519 C2520 1.398 . S
C2519 C2525 1.491 . S
C2520 H2511 0.950 . S
C2520 C2519 1.398 . S
C2520 C2521 1.391 . S
C2521 H2509 0.950 . S
C2521 C2517 1.393 1_554 S
C2521 C2520 1.391 . S
C2522 H2512 0.950 . S
C2522 C2523 1.386 . S
C2522 C2524 1.391 . S
C2523 C2522 1.386 . S
C2523 C2527 1.393 1_554 S
C2524 H2513 0.950 . S
C2524 C2522 1.391 . S
C2524 C2525 1.400 . S
C2525 C2519 1.491 . S
C2525 C2524 1.400 . S
C2525 C2526 1.398 1_554 S
C2526 H2514 0.950 . S
C2526 C2525 1.398 1_556 S
C2526 C2527 1.391 . S
C2527 H2515 0.950 . S
C2527 C2523 1.393 1_556 S
C2527 C2526 1.391 . S
H2528 C2536 0.950 . S
H2529 C2541 0.950 . S
H2530 C2538 0.950 . S
H2531 C2540 0.950 . S
H2532 C2542 0.950 . S
H2533 C2544 0.950 . S
H2534 C2546 0.950 . S
H2535 C2547 0.950 . S
C2536 H2528 0.950 . S
C2536 C2537 1.386 . S
C2536 C2538 1.391 . S
C2537 C2536 1.386 . S
C2537 C2541 1.393 . S
C2538 H2530 0.950 . S
C2538 C2536 1.391 . S
C2538 C2539 1.400 . S
C2539 C2538 1.400 . S
C2539 C2540 1.398 . S
C2539 C2545 1.491 . S
C2540 H2531 0.950 . S
C2540 C2539 1.398 . S
C2540 C2541 1.391 . S
C2541 H2529 0.950 . S
C2541 C2537 1.393 . S
C2541 C2540 1.391 . S
C2542 H2532 0.950 . S
C2542 C2543 1.386 . S
C2542 C2544 1.391 . S
C2543 C2542 1.386 . S
C2543 C2547 1.393 . S
C2544 H2533 0.950 . S
C2544 C2542 1.391 . S
C2544 C2545 1.400 . S
C2545 C2539 1.491 . S
C2545 C2544 1.400 . S
C2545 C2546 1.398 . S
C2546 H2534 0.950 . S
C2546 C2545 1.398 . S
C2546 C2547 1.391 . S
C2547 H2535 0.950 . S
C2547 C2543 1.393 . S
C2547 C2546 1.391 . S
H2548 C2556 0.950 . S
H2549 C2561 0.950 . S
H2550 C2558 0.950 . S
H2551 C2560 0.950 . S
H2552 C2562 0.950 . S
H2553 C2564 0.950 . S
H2554 C2566 0.950 . S
H2555 C2567 0.950 . S
C2556 H2548 0.950 . S
C2556 C2557 1.386 . S
C2556 C2558 1.391 . S
C2557 C2556 1.386 . S
C2557 C2561 1.393 . S
C2558 H2550 0.950 . S
C2558 C2556 1.391 . S
C2558 C2559 1.400 . S
C2559 C2558 1.400 . S
C2559 C2560 1.398 . S
C2559 C2565 1.491 . S
C2560 H2551 0.950 . S
C2560 C2559 1.398 . S
C2560 C2561 1.391 . S
C2561 H2549 0.950 . S
C2561 C2557 1.393 . S
C2561 C2560 1.391 . S
C2562 H2552 0.950 . S
C2562 C2563 1.386 . S
C2562 C2564 1.391 . S
C2563 C2562 1.386 . S
C2563 C2567 1.393 . S
C2564 H2553 0.950 . S
C2564 C2562 1.391 . S
C2564 C2565 1.400 . S
C2565 C2559 1.491 . S
C2565 C2564 1.400 . S
C2565 C2566 1.398 . S
C2566 H2554 0.950 . S
C2566 C2565 1.398 . S
C2566 C2567 1.391 . S
C2567 H2555 0.950 . S
C2567 C2563 1.393 . S
C2567 C2566 1.391 . S
C663 C328 1.374 . S
C657 C10 1.513 . S
C677 C23 1.380 . S
C683 C348 1.335 . S
C697 C36 1.489 . S
C703 C370 1.393 . S
C723 C389 1.490 . S
C717 C42 1.510 . S
C737 C18 1.491 . S
C743 C410 1.473 . S
C763 C433 1.467 . S
C757 C31 1.562 . S
C783 C456 1.324 . S
C777 C43 1.362 . S
C797 C5 1.486 . S
C803 C474 1.423 . S
C817 C56 1.477 . S
C823 C330 1.414 . S
C837 C70 1.519 . S
C843 C350 1.491 . S
C863 C372 1.345 . S
C857 C82 1.382 . S
C883 C391 1.417 . S
C877 C96 1.556 . S
C897 C57 1.563 . S
C903 C412 1.432 . S
C923 C435 1.305 . S
C917 C69 1.345 . S
C943 C452 1.483 . S
C937 C83 1.513 . S
C963 C476 1.451 . S
C957 C95 1.482 . S
C983 C326 1.450 . S
C977 C94 1.487 1_556 S
C1003 C498 1.292 . S
C997 C108 1.343 . S
C1017 C122 1.491 . S
C1023 C515 1.471 . S
C1043 C538 1.418 . S
C1037 C140 1.549 . S
C1057 C55 1.516 . S
C1063 C472 1.413 . S
C1083 C368 1.499 . S
C1077 C68 1.518 . S
C1097 C121 1.362 . S
C1103 C561 1.318 . S
C1123 C577 1.394 . S
C1117 C153 1.490 . S
C1137 C161 1.213 . S
C1143 C325 1.107 . S
C1163 C578 1.169 . S
C1157 C174 1.200 . S
C1177 C186 1.288 . S
C1183 C367 1.182 . S
C1197 C200 1.136 . S
C1203 C558 1.096 . S
C1223 C411 1.110 . S
C1217 C172 1.129 . S
C1243 C514 1.147 . S
C1237 C192 1.253 . S
C1263 C455 1.191 . S
C1257 C198 1.222 . S
C1283 C599 1.263 . S
C1277 C159 1.274 . S
C1303 C329 1.241 . S
C1297 C211 1.275 . S
C1317 C225 1.127 . S
C1323 C582 1.086 . S
C1343 C371 1.155 1_545 S
C1337 C239 1.190 . S
C1357 C251 1.227 . S
C1363 C556 1.129 . S
C1377 C218 1.254 . S
C1383 C409 1.160 . S
C1397 C226 1.221 . S
C1403 C518 1.202 . S
C1423 C453 1.112 . S
C1417 C238 1.127 1_565 S
C1437 C252 1.190 . S
C1443 C603 1.147 . S
C1457 C250 1.185 . S
C1463 C327 1.147 . S
C1477 C264 1.217 . S
C1483 C497 1.191 1_554 S
C1497 C276 1.126 . S
C1503 C432 1.108 . S
C1517 C290 1.219 . S
C1523 C535 1.169 . S
C1543 C601 1.113 . S
C1537 C213 1.211 . S
C1563 C369 1.096 . S
C1557 C224 1.133 . S
C1583 C392 1.187 . S
C1577 C283 1.206 . S
C1603 C349 1.223 . S
C1597 C303 1.284 . S
C1617 C29 1.515 . S
C1623 C622 1.382 . S
C1643 C579 1.318 . S
C1637 C49 1.374 . S
C1663 C643 1.393 . S
C1657 C3 1.496 . S
C1677 C16 1.512 . S
C1683 C557 1.480 . S
C1697 C44 1.496 . S
C1703 C494 1.460 . S
C1723 C517 1.429 . S
C1717 C4 1.560 . S
C1743 C540 1.319 . S
C1737 C17 1.361 . S
C1763 C600 1.410 . S
C1757 C30 1.476 . S
C1783 C624 1.439 . S
C1777 C147 1.485 . S
C1797 C107 1.518 . S
C1803 C581 1.505 . S
C1817 C127 1.378 . S
C1823 C645 1.327 . S
C1843 C559 1.456 . S
C1837 C135 1.558 . S
C1863 C496 1.462 . S
C1857 C148 1.558 . S
C1877 C114 1.339 . S
C1883 C519 1.283 . S
C1903 C536 1.484 . S
C1897 C120 1.509 . S
C1917 C134 1.482 . S
C1923 C602 1.445 . S
C1943 C620 1.468 . S
C1937 C133 1.483 . S
C1963 C414 1.295 . S
C1957 C75 1.343 . S
C1983 C431 1.471 . S
C1977 C81 1.493 . S
C1997 C101 1.549 . S
C2003 C454 1.447 . S
C2023 C598 1.382 . S
C2017 C146 1.513 . S
C2037 C109 1.516 1_556 S
C2043 C641 1.505 . S
C2063 C393 1.302 . S
C2057 C88 1.356 . S
C2083 C346 1.365 . S
C2077 C62 1.489 . S
C2097 C187 1.211 . S
C2103 C619 1.115 . S
C2123 C347 1.166 . S
C2117 C199 1.191 . S
C2143 C640 1.194 . S
C2137 C160 1.285 . S
C2157 C173 1.122 . S
C2163 C390 1.093 . S
C2177 C205 1.126 . S
C2183 C495 1.083 . S
C2197 C166 1.254 . S
C2203 C430 1.143 . S
C2217 C179 1.212 . S
C2223 C539 1.198 1_455 S
C2237 C185 1.283 . S
C2243 C473 1.251 . S
C2263 C623 1.255 . S
C2257 C302 1.281 . S
C2277 C270 1.139 . S
C2283 C351 1.104 . S
C2303 C644 1.181 . S
C2297 C278 1.191 . S
C2317 C296 1.226 . S
C2323 C388 1.152 . S
C2337 C309 1.257 . S
C2343 C493 1.168 . S
C2363 C434 1.193 . S
C2357 C263 1.225 . S
C2377 C277 1.133 . S
C2383 C537 1.111 . S
C2403 C477 1.164 . S
C2397 C289 1.183 . S
C2423 C621 1.144 . S
C2417 C291 1.186 . S
C2443 C413 1.181 . S
C2437 C231 1.219 . S
C2457 C237 1.130 . S
C2463 C516 1.119 . S
C2483 C451 1.151 . S
C2477 C257 1.221 . S
C2503 C475 1.143 . S
C2497 C304 1.203 . S
C2517 C265 1.138 . S
C2523 C642 1.125 . S
C2543 C560 1.195 . S
C2537 C244 1.206 . S
C2563 C580 1.193 . S
C2557 C212 1.288 . S
