# Generated by pormake.
# Topology gar, (4,6)-cn, num edge types: 1
# Building blocks:
#     Node 0, Type 0, BuildingBlock: AZAVOO_clean_sbu_0, # of connection points: 4
#     Node 1, Type 0, BuildingBlock: AZAVOO_clean_sbu_0, # of connection points: 4
#     Node 2, Type 0, BuildingBlock: AZAVOO_clean_sbu_0, # of connection points: 4
#     Node 3, Type 0, BuildingBlock: AZAVOO_clean_sbu_0, # of connection points: 4
#     Node 4, Type 0, BuildingBlock: AZAVOO_clean_sbu_0, # of connection points: 4
#     Node 5, Type 0, BuildingBlock: AZAVOO_clean_sbu_0, # of connection points: 4
#     Node 6, Type 0, BuildingBlock: AZAVOO_clean_sbu_0, # of connection points: 4
#     Node 7, Type 0, BuildingBlock: AZAVOO_clean_sbu_0, # of connection points: 4
#     Node 8, Type 0, BuildingBlock: AZAVOO_clean_sbu_0, # of connection points: 4
#     Node 9, Type 0, BuildingBlock: AZAVOO_clean_sbu_0, # of connection points: 4
#     Node 10, Type 0, BuildingBlock: AZAVOO_clean_sbu_0, # of connection points: 4
#     Node 11, Type 0, BuildingBlock: AZAVOO_clean_sbu_0, # of connection points: 4
#     Node 12, Type 0, BuildingBlock: AZAVOO_clean_sbu_0, # of connection points: 4
#     Node 13, Type 0, BuildingBlock: AZAVOO_clean_sbu_0, # of connection points: 4
#     Node 14, Type 0, BuildingBlock: AZAVOO_clean_sbu_0, # of connection points: 4
#     Node 15, Type 0, BuildingBlock: AZAVOO_clean_sbu_0, # of connection points: 4
#     Node 16, Type 0, BuildingBlock: AZAVOO_clean_sbu_0, # of connection points: 4
#     Node 17, Type 0, BuildingBlock: AZAVOO_clean_sbu_0, # of connection points: 4
#     Node 18, Type 0, BuildingBlock: AZAVOO_clean_sbu_0, # of connection points: 4
#     Node 19, Type 0, BuildingBlock: AZAVOO_clean_sbu_0, # of connection points: 4
#     Node 20, Type 0, BuildingBlock: AZAVOO_clean_sbu_0, # of connection points: 4
#     Node 21, Type 0, BuildingBlock: AZAVOO_clean_sbu_0, # of connection points: 4
#     Node 22, Type 0, BuildingBlock: AZAVOO_clean_sbu_0, # of connection points: 4
#     Node 23, Type 0, BuildingBlock: AZAVOO_clean_sbu_0, # of connection points: 4
#     Node 24, Type 1, BuildingBlock: CUKXOW_clean_sbu_0, # of connection points: 6
#     Node 25, Type 1, BuildingBlock: CUKXOW_clean_sbu_0, # of connection points: 6
#     Node 26, Type 1, BuildingBlock: CUKXOW_clean_sbu_0, # of connection points: 6
#     Node 27, Type 1, BuildingBlock: CUKXOW_clean_sbu_0, # of connection points: 6
#     Node 28, Type 1, BuildingBlock: CUKXOW_clean_sbu_0, # of connection points: 6
#     Node 29, Type 1, BuildingBlock: CUKXOW_clean_sbu_0, # of connection points: 6
#     Node 30, Type 1, BuildingBlock: CUKXOW_clean_sbu_0, # of connection points: 6
#     Node 31, Type 1, BuildingBlock: CUKXOW_clean_sbu_0, # of connection points: 6
#     Node 32, Type 1, BuildingBlock: CUKXOW_clean_sbu_0, # of connection points: 6
#     Node 33, Type 1, BuildingBlock: CUKXOW_clean_sbu_0, # of connection points: 6
#     Node 34, Type 1, BuildingBlock: CUKXOW_clean_sbu_0, # of connection points: 6
#     Node 35, Type 1, BuildingBlock: CUKXOW_clean_sbu_0, # of connection points: 6
#     Node 36, Type 1, BuildingBlock: CUKXOW_clean_sbu_0, # of connection points: 6
#     Node 37, Type 1, BuildingBlock: CUKXOW_clean_sbu_0, # of connection points: 6
#     Node 38, Type 1, BuildingBlock: CUKXOW_clean_sbu_0, # of connection points: 6
#     Node 39, Type 1, BuildingBlock: CUKXOW_clean_sbu_0, # of connection points: 6
#     Edge 40, Type (0, 1), BuildingBlock: AJUNOK_clean_linker_0, # of connection points: 2
#     Edge 41, Type (0, 1), BuildingBlock: AJUNOK_clean_linker_0, # of connection points: 2
#     Edge 42, Type (0, 1), BuildingBlock: AJUNOK_clean_linker_0, # of connection points: 2
#     Edge 43, Type (0, 1), BuildingBlock: AJUNOK_clean_linker_0, # of connection points: 2
#     Edge 44, Type (0, 1), BuildingBlock: AJUNOK_clean_linker_0, # of connection points: 2
#     Edge 45, Type (0, 1), BuildingBlock: AJUNOK_clean_linker_0, # of connection points: 2
#     Edge 46, Type (0, 1), BuildingBlock: AJUNOK_clean_linker_0, # of connection points: 2
#     Edge 47, Type (0, 1), BuildingBlock: AJUNOK_clean_linker_0, # of connection points: 2
#     Edge 48, Type (0, 1), BuildingBlock: AJUNOK_clean_linker_0, # of connection points: 2
#     Edge 49, Type (0, 1), BuildingBlock: AJUNOK_clean_linker_0, # of connection points: 2
#     Edge 50, Type (0, 1), BuildingBlock: AJUNOK_clean_linker_0, # of connection points: 2
#     Edge 51, Type (0, 1), BuildingBlock: AJUNOK_clean_linker_0, # of connection points: 2
#     Edge 52, Type (0, 1), BuildingBlock: AJUNOK_clean_linker_0, # of connection points: 2
#     Edge 53, Type (0, 1), BuildingBlock: AJUNOK_clean_linker_0, # of connection points: 2
#     Edge 54, Type (0, 1), BuildingBlock: AJUNOK_clean_linker_0, # of connection points: 2
#     Edge 55, Type (0, 1), BuildingBlock: AJUNOK_clean_linker_0, # of connection points: 2
#     Edge 56, Type (0, 1), BuildingBlock: AJUNOK_clean_linker_0, # of connection points: 2
#     Edge 57, Type (0, 1), BuildingBlock: AJUNOK_clean_linker_0, # of connection points: 2
#     Edge 58, Type (0, 1), BuildingBlock: AJUNOK_clean_linker_0, # of connection points: 2
#     Edge 59, Type (0, 1), BuildingBlock: AJUNOK_clean_linker_0, # of connection points: 2
#     Edge 60, Type (0, 1), BuildingBlock: AJUNOK_clean_linker_0, # of connection points: 2
#     Edge 61, Type (0, 1), BuildingBlock: AJUNOK_clean_linker_0, # of connection points: 2
#     Edge 62, Type (0, 1), BuildingBlock: AJUNOK_clean_linker_0, # of connection points: 2
#     Edge 63, Type (0, 1), BuildingBlock: AJUNOK_clean_linker_0, # of connection points: 2
#     Edge 64, Type (0, 1), BuildingBlock: AJUNOK_clean_linker_0, # of connection points: 2
#     Edge 65, Type (0, 1), BuildingBlock: AJUNOK_clean_linker_0, # of connection points: 2
#     Edge 66, Type (0, 1), BuildingBlock: AJUNOK_clean_linker_0, # of connection points: 2
#     Edge 67, Type (0, 1), BuildingBlock: AJUNOK_clean_linker_0, # of connection points: 2
#     Edge 68, Type (0, 1), BuildingBlock: AJUNOK_clean_linker_0, # of connection points: 2
#     Edge 69, Type (0, 1), BuildingBlock: AJUNOK_clean_linker_0, # of connection points: 2
#     Edge 70, Type (0, 1), BuildingBlock: AJUNOK_clean_linker_0, # of connection points: 2
#     Edge 71, Type (0, 1), BuildingBlock: AJUNOK_clean_linker_0, # of connection points: 2
#     Edge 72, Type (0, 1), BuildingBlock: AJUNOK_clean_linker_0, # of connection points: 2
#     Edge 73, Type (0, 1), BuildingBlock: AJUNOK_clean_linker_0, # of connection points: 2
#     Edge 74, Type (0, 1), BuildingBlock: AJUNOK_clean_linker_0, # of connection points: 2
#     Edge 75, Type (0, 1), BuildingBlock: AJUNOK_clean_linker_0, # of connection points: 2
#     Edge 76, Type (0, 1), BuildingBlock: AJUNOK_clean_linker_0, # of connection points: 2
#     Edge 77, Type (0, 1), BuildingBlock: AJUNOK_clean_linker_0, # of connection points: 2
#     Edge 78, Type (0, 1), BuildingBlock: AJUNOK_clean_linker_0, # of connection points: 2
#     Edge 79, Type (0, 1), BuildingBlock: AJUNOK_clean_linker_0, # of connection points: 2
#     Edge 80, Type (0, 1), BuildingBlock: AJUNOK_clean_linker_0, # of connection points: 2
#     Edge 81, Type (0, 1), BuildingBlock: AJUNOK_clean_linker_0, # of connection points: 2
#     Edge 82, Type (0, 1), BuildingBlock: AJUNOK_clean_linker_0, # of connection points: 2
#     Edge 83, Type (0, 1), BuildingBlock: AJUNOK_clean_linker_0, # of connection points: 2
#     Edge 84, Type (0, 1), BuildingBlock: AJUNOK_clean_linker_0, # of connection points: 2
#     Edge 85, Type (0, 1), BuildingBlock: AJUNOK_clean_linker_0, # of connection points: 2
#     Edge 86, Type (0, 1), BuildingBlock: AJUNOK_clean_linker_0, # of connection points: 2
#     Edge 87, Type (0, 1), BuildingBlock: AJUNOK_clean_linker_0, # of connection points: 2
#     Edge 88, Type (0, 1), BuildingBlock: AJUNOK_clean_linker_0, # of connection points: 2
#     Edge 89, Type (0, 1), BuildingBlock: AJUNOK_clean_linker_0, # of connection points: 2
#     Edge 90, Type (0, 1), BuildingBlock: AJUNOK_clean_linker_0, # of connection points: 2
#     Edge 91, Type (0, 1), BuildingBlock: AJUNOK_clean_linker_0, # of connection points: 2
#     Edge 92, Type (0, 1), BuildingBlock: AJUNOK_clean_linker_0, # of connection points: 2
#     Edge 93, Type (0, 1), BuildingBlock: AJUNOK_clean_linker_0, # of connection points: 2
#     Edge 94, Type (0, 1), BuildingBlock: AJUNOK_clean_linker_0, # of connection points: 2
#     Edge 95, Type (0, 1), BuildingBlock: AJUNOK_clean_linker_0, # of connection points: 2
#     Edge 96, Type (0, 1), BuildingBlock: AJUNOK_clean_linker_0, # of connection points: 2
#     Edge 97, Type (0, 1), BuildingBlock: AJUNOK_clean_linker_0, # of connection points: 2
#     Edge 98, Type (0, 1), BuildingBlock: AJUNOK_clean_linker_0, # of connection points: 2
#     Edge 99, Type (0, 1), BuildingBlock: AJUNOK_clean_linker_0, # of connection points: 2
#     Edge 100, Type (0, 1), BuildingBlock: AJUNOK_clean_linker_0, # of connection points: 2
#     Edge 101, Type (0, 1), BuildingBlock: AJUNOK_clean_linker_0, # of connection points: 2
#     Edge 102, Type (0, 1), BuildingBlock: AJUNOK_clean_linker_0, # of connection points: 2
#     Edge 103, Type (0, 1), BuildingBlock: AJUNOK_clean_linker_0, # of connection points: 2
#     Edge 104, Type (0, 1), BuildingBlock: AJUNOK_clean_linker_0, # of connection points: 2
#     Edge 105, Type (0, 1), BuildingBlock: AJUNOK_clean_linker_0, # of connection points: 2
#     Edge 106, Type (0, 1), BuildingBlock: AJUNOK_clean_linker_0, # of connection points: 2
#     Edge 107, Type (0, 1), BuildingBlock: AJUNOK_clean_linker_0, # of connection points: 2
#     Edge 108, Type (0, 1), BuildingBlock: AJUNOK_clean_linker_0, # of connection points: 2
#     Edge 109, Type (0, 1), BuildingBlock: AJUNOK_clean_linker_0, # of connection points: 2
#     Edge 110, Type (0, 1), BuildingBlock: AJUNOK_clean_linker_0, # of connection points: 2
#     Edge 111, Type (0, 1), BuildingBlock: AJUNOK_clean_linker_0, # of connection points: 2
#     Edge 112, Type (0, 1), BuildingBlock: AJUNOK_clean_linker_0, # of connection points: 2
#     Edge 113, Type (0, 1), BuildingBlock: AJUNOK_clean_linker_0, # of connection points: 2
#     Edge 114, Type (0, 1), BuildingBlock: AJUNOK_clean_linker_0, # of connection points: 2
#     Edge 115, Type (0, 1), BuildingBlock: AJUNOK_clean_linker_0, # of connection points: 2
#     Edge 116, Type (0, 1), BuildingBlock: AJUNOK_clean_linker_0, # of connection points: 2
#     Edge 117, Type (0, 1), BuildingBlock: AJUNOK_clean_linker_0, # of connection points: 2
#     Edge 118, Type (0, 1), BuildingBlock: AJUNOK_clean_linker_0, # of connection points: 2
#     Edge 119, Type (0, 1), BuildingBlock: AJUNOK_clean_linker_0, # of connection points: 2
#     Edge 120, Type (0, 1), BuildingBlock: AJUNOK_clean_linker_0, # of connection points: 2
#     Edge 121, Type (0, 1), BuildingBlock: AJUNOK_clean_linker_0, # of connection points: 2
#     Edge 122, Type (0, 1), BuildingBlock: AJUNOK_clean_linker_0, # of connection points: 2
#     Edge 123, Type (0, 1), BuildingBlock: AJUNOK_clean_linker_0, # of connection points: 2
#     Edge 124, Type (0, 1), BuildingBlock: AJUNOK_clean_linker_0, # of connection points: 2
#     Edge 125, Type (0, 1), BuildingBlock: AJUNOK_clean_linker_0, # of connection points: 2
#     Edge 126, Type (0, 1), BuildingBlock: AJUNOK_clean_linker_0, # of connection points: 2
#     Edge 127, Type (0, 1), BuildingBlock: AJUNOK_clean_linker_0, # of connection points: 2
#     Edge 128, Type (0, 1), BuildingBlock: AJUNOK_clean_linker_0, # of connection points: 2
#     Edge 129, Type (0, 1), BuildingBlock: AJUNOK_clean_linker_0, # of connection points: 2
#     Edge 130, Type (0, 1), BuildingBlock: AJUNOK_clean_linker_0, # of connection points: 2
#     Edge 131, Type (0, 1), BuildingBlock: AJUNOK_clean_linker_0, # of connection points: 2
#     Edge 132, Type (0, 1), BuildingBlock: AJUNOK_clean_linker_0, # of connection points: 2
#     Edge 133, Type (0, 1), BuildingBlock: AJUNOK_clean_linker_0, # of connection points: 2
#     Edge 134, Type (0, 1), BuildingBlock: AJUNOK_clean_linker_0, # of connection points: 2
#     Edge 135, Type (0, 1), BuildingBlock: AJUNOK_clean_linker_0, # of connection points: 2
# Relax obj value: 0.143
# Max RMSD: 0.243
# Mean RMSD: 0.170
data_MOF--net-gar--node1-AZAVOO_clean_sbu_0--node2-CUKXOW_clean_sbu_0--edge1-AJUNOK_clean_linker_0
_symmetry_space_group_name_H-M    P1
_symmetry_Int_Tables_number       1
_symmetry_cell_setting            triclinic
loop_
_symmetry_equiv_pos_as_xyz
'x, y, z'
_cell_length_a     42.023161
_cell_length_b     38.614602
_cell_length_c     39.622768
_cell_angle_alpha  97.249391
_cell_angle_beta   94.531416
_cell_angle_gamma 99.593984
loop_
_atom_site_label
_atom_site_type_symbol
_atom_site_fract_x
_atom_site_fract_y
_atom_site_fract_z
_atom_type_partial_charge
Mg0 Mg 0.02031 0.25393 0.43304 0.0
O1 O 0.02497 0.30605 0.47011 0.0
O2 O 0.97832 0.30073 0.49386 0.0
Mg3 Mg 0.9444 0.24887 0.47106 0.0
C4 C 0.00627 0.31829 0.49071 0.0
C5 C 0.07183 0.24301 0.39396 0.0
O6 O 0.04582 0.21879 0.38367 0.0
O7 O 0.02716 0.22212 0.47598 0.0
O8 O 0.97777 0.21374 0.49379 0.0
O9 O 1.00111 0.27898 0.39178 0.0
O10 O 0.97039 0.24896 0.42506 0.0
C11 C 0.00666 0.20724 0.4941 0.0
C12 C 0.97259 0.26782 0.40037 0.0
O13 O 0.07244 0.26299 0.42222 0.0
Mg14 Mg 0.00899 0.82668 0.64177 0.0
O15 O 1.00157 0.76952 0.61498 0.0
O16 O 0.95023 0.75486 0.59181 0.0
Mg17 Mg 0.92384 0.80056 0.60811 0.0
C18 C 0.97865 0.74766 0.59674 0.0
C19 C 0.07859 0.8442 0.67128 0.0
O20 O 0.06333 0.85997 0.69474 0.0
O21 O 0.00638 0.84517 0.59043 0.0
O22 O 0.95332 0.83317 0.57294 0.0
O23 O 0.99651 0.81011 0.69159 0.0
O24 O 0.96153 0.82085 0.65089 0.0
C25 C 0.98253 0.84634 0.5689 0.0
C26 C 0.96695 0.81105 0.68031 0.0
O27 O 0.06253 0.82873 0.64356 0.0
Mg28 Mg 0.54717 0.7789 0.92512 0.0
O29 O 0.5332 0.82145 0.96303 0.0
O30 O 0.48162 0.8072 0.97277 0.0
Mg31 Mg 0.46121 0.75506 0.93691 0.0
C32 C 0.50892 0.82826 0.97818 0.0
C33 C 0.62557 0.79649 0.93576 0.0
O34 O 0.65292 0.81058 0.95453 0.0
O35 O 0.54578 0.74012 0.96401 0.0
O36 O 0.49272 0.72431 0.96699 0.0
O37 O 0.5325 0.80769 0.88174 0.0
O38 O 0.49951 0.76653 0.90231 0.0
C39 C 0.52204 0.72137 0.97519 0.0
C40 C 0.50352 0.78993 0.88194 0.0
O41 O 0.59908 0.80219 0.94655 0.0
Mg42 Mg 0.50707 0.33797 0.12853 0.0
O43 O 0.50406 0.28141 0.10111 0.0
O44 O 0.45528 0.26644 0.07143 0.0
Mg45 Mg 0.4266 0.31107 0.08209 0.0
C46 C 0.48316 0.25955 0.08025 0.0
C47 C 0.56941 0.35484 0.17217 0.0
O48 O 0.54791 0.36402 0.19227 0.0
O49 O 0.51277 0.35891 0.07863 0.0
O50 O 0.4619 0.34545 0.05351 0.0
O51 O 0.48667 0.31851 0.17419 0.0
O52 O 0.45803 0.33114 0.12963 0.0
C53 C 0.49164 0.35995 0.05405 0.0
C54 C 0.45875 0.3209 0.15926 0.0
O55 O 0.56041 0.34311 0.14095 0.0
Mg56 Mg 0.98816 0.77724 0.19364 0.0
O57 O 0.98971 0.72292 0.16215 0.0
O58 O 0.9464 0.71155 0.12376 0.0
Mg59 Mg 0.91372 0.75292 0.13473 0.0
C60 C 0.97292 0.70386 0.13607 0.0
C61 C 0.0623 0.8069 0.22589 0.0
O62 O 0.05324 0.838 0.22826 0.0
O63 O 0.99953 0.80615 0.14681 0.0
O64 O 0.95127 0.79412 0.11548 0.0
O65 O 0.95802 0.7536 0.23349 0.0
O66 O 0.93723 0.77046 0.18722 0.0
C67 C 0.98072 0.8103 0.12103 0.0
C68 C 0.93244 0.75832 0.21544 0.0
O69 O 0.04188 0.7794 0.21274 0.0
Mg70 Mg 0.51308 0.78294 0.35543 0.0
O71 O 0.5083 0.83233 0.39407 0.0
O72 O 0.4607 0.81605 0.41472 0.0
Mg73 Mg 0.43425 0.76162 0.38971 0.0
C74 C 0.4868 0.83823 0.41429 0.0
C75 C 0.57535 0.80031 0.32072 0.0
O76 O 0.55164 0.79482 0.29591 0.0
O77 O 0.5238 0.75427 0.40115 0.0
O78 O 0.47437 0.74038 0.41828 0.0
O79 O 0.48505 0.80208 0.31172 0.0
O80 O 0.463 0.7681 0.34709 0.0
C81 C 0.50477 0.73987 0.4211 0.0
C82 C 0.45912 0.78491 0.32165 0.0
O83 O 0.56797 0.80046 0.3513 0.0
Mg84 Mg 0.4891 0.27633 0.68324 0.0
O85 O 0.48779 0.22201 0.65171 0.0
O86 O 0.444 0.2104 0.6137 0.0
Mg87 Mg 0.41206 0.25181 0.62864 0.0
C88 C 0.47062 0.20294 0.62593 0.0
C89 C 0.56043 0.29744 0.72362 0.0
O90 O 0.54746 0.32212 0.74058 0.0
O91 O 0.49792 0.30393 0.63552 0.0
O92 O 0.44824 0.29254 0.60713 0.0
O93 O 0.46337 0.25386 0.72532 0.0
O94 O 0.43793 0.26963 0.68062 0.0
C95 C 0.47792 0.30797 0.61075 0.0
C96 C 0.4363 0.2576 0.70942 0.0
O97 O 0.54345 0.27685 0.69863 0.0
Mg98 Mg 0.0147 0.28313 0.85552 0.0
O99 O 0.01063 0.33547 0.89077 0.0
O100 O 0.96358 0.32308 0.91372 0.0
Mg101 Mg 0.93793 0.26632 0.8955 0.0
C102 C 0.98951 0.34425 0.91033 0.0
C103 C 0.08932 0.28241 0.8494 0.0
O104 O 0.08081 0.25323 0.86278 0.0
O105 O 0.02831 0.25862 0.90376 0.0
O106 O 0.97979 0.24745 0.92371 0.0
O107 O 0.98327 0.29608 0.81052 0.0
O108 O 0.96441 0.26658 0.85057 0.0
C109 C 0.01007 0.24634 0.92555 0.0
C110 C 0.95857 0.27931 0.82292 0.0
O111 O 0.06834 0.30229 0.84516 0.0
Mg112 Mg 0.42268 0.10733 0.28377 0.0
O113 O 0.38651 0.05515 0.28399 0.0
O114 O 0.36464 0.05971 0.33364 0.0
Mg115 Mg 0.38515 0.11336 0.36492 0.0
C116 C 0.3671 0.04252 0.30454 0.0
C117 C 0.44612 0.06669 0.22004 0.0
O118 O 0.4538 0.04893 0.24474 0.0
O119 O 0.3788 0.13496 0.27165 0.0
O120 O 0.36001 0.13728 0.32298 0.0
O121 O 0.46234 0.0862 0.31208 0.0
O122 O 0.42851 0.11549 0.33782 0.0
C123 C 0.35828 0.14346 0.29207 0.0
C124 C 0.45185 0.09798 0.34032 0.0
O125 O 0.43039 0.09183 0.22685 0.0
Mg126 Mg 0.2717 0.13302 0.46888 0.0
O127 O 0.26712 0.16306 0.52113 0.0
O128 O 0.31555 0.19674 0.53943 0.0
Mg129 Mg 0.35145 0.18353 0.50121 0.0
C130 C 0.28576 0.18601 0.54313 0.0
C131 C 0.20472 0.09121 0.44427 0.0
O132 O 0.22269 0.07073 0.42871 0.0
O133 O 0.27487 0.18346 0.44594 0.0
O134 O 0.32593 0.2114 0.4614 0.0
O135 O 0.28141 0.08767 0.4934 0.0
O136 O 0.31945 0.13166 0.48398 0.0
C137 C 0.29801 0.20909 0.44508 0.0
C138 C 0.31153 0.10304 0.49751 0.0
O139 O 0.21787 0.12169 0.45946 0.0
Mg140 Mg 0.14843 0.98337 0.79514 0.0
O141 O 0.17647 0.04021 0.79858 0.0
O142 O 0.20462 0.05476 0.84977 0.0
Mg143 Mg 0.19217 0.00728 0.87939 0.0
C144 C 0.19646 0.06222 0.82016 0.0
C145 C 0.11627 0.96095 0.72175 0.0
O146 O 0.09777 0.9394 0.73827 0.0
O147 O 0.19478 0.96137 0.78982 0.0
O148 O 0.21931 0.97305 0.84303 0.0
O149 O 0.10574 1.00275 0.81543 0.0
O150 O 0.14503 0.98756 0.84771 0.0
C151 C 0.21801 0.95923 0.81172 0.0
C152 C 0.1178 0.99888 0.84554 0.0
O153 O 0.14017 0.98234 0.73834 0.0
Mg154 Mg 0.22986 0.90367 0.03562 0.0
O155 O 0.23219 0.86754 0.98179 0.0
O156 O 0.2798 0.84936 0.98929 0.0
Mg157 Mg 0.30777 0.87096 0.04163 0.0
C158 C 0.2541 0.85062 0.97032 0.0
C159 C 0.17829 0.94724 0.04521 0.0
O160 O 0.20548 0.9613 0.06433 0.0
O161 O 0.22143 0.85814 0.07059 0.0
O162 O 0.27101 0.84364 0.07378 0.0
O163 O 0.25733 0.95049 0.01484 0.0
O164 O 0.27999 0.91375 0.04281 0.0
C165 C 0.24231 0.84077 0.08279 0.0
C166 C 0.28336 0.9409 0.0271 0.0
O167 O 0.17691 0.91645 0.02806 0.0
Mg168 Mg 0.28152 0.45368 0.0737 0.0
O169 O 0.2869 0.41538 0.02638 0.0
O170 O 0.33012 0.38999 0.0364 0.0
Mg171 Mg 0.35055 0.40967 0.09121 0.0
C172 C 0.30573 0.39402 0.017 0.0
C173 C 0.20906 0.46209 0.06524 0.0
O174 O 0.21119 0.45578 0.09708 0.0
O175 O 0.25805 0.40515 0.09664 0.0
O176 O 0.30205 0.38064 0.10458 0.0
O177 O 0.31561 0.49628 0.05645 0.0
O178 O 0.33118 0.4586 0.08902 0.0
C179 C 0.27167 0.38002 0.10544 0.0
C180 C 0.33895 0.48363 0.07094 0.0
O181 O 0.23357 0.46187 0.04863 0.0
Mg182 Mg 0.81222 0.1502 0.9981 0.0
O183 O 0.81342 0.188 0.04925 0.0
O184 O 0.85857 0.22767 0.05473 0.0
Mg185 Mg 0.88452 0.21255 1.00601 0.0
C186 C 0.83219 0.21497 0.06619 0.0
C187 C 0.75005 0.12133 0.03162 0.0
O188 O 0.77263 0.11986 0.05602 0.0
O189 O 0.7988 0.19104 0.96383 0.0
O190 O 0.84618 0.22686 0.96503 0.0
O191 O 0.83778 0.11411 0.0251 0.0
O192 O 0.86494 0.15288 0.99707 0.0
C193 C 0.81627 0.217 0.95321 0.0
C194 C 0.86523 0.12682 0.01486 0.0
O195 O 0.75859 0.13239 1.0042 0.0
Mg196 Mg 0.10592 0.48332 0.30185 0.0
O197 O 0.1414 0.53547 0.30304 0.0
O198 O 0.17213 0.54699 0.35301 0.0
Mg199 Mg 0.15524 0.50352 0.38479 0.0
C200 C 0.16442 0.55475 0.32349 0.0
C201 C 0.06236 0.47763 0.23458 0.0
O202 O 0.04178 0.47196 0.25741 0.0
O203 O 0.14776 0.45251 0.29537 0.0
O204 O 0.17492 0.46377 0.34762 0.0
O205 O 0.06925 0.51171 0.3251 0.0
O206 O 0.10673 0.49143 0.35515 0.0
C207 C 0.17071 0.44814 0.31681 0.0
C208 C 0.08249 0.508 0.35473 0.0
O209 O 0.0926 0.48195 0.24423 0.0
Mg210 Mg 0.77752 0.94572 0.58371 0.0
O211 O 0.78057 0.90997 0.53378 0.0
O212 O 0.82414 0.88415 0.53967 0.0
Mg213 Mg 0.84609 0.89958 0.59474 0.0
C214 C 0.79939 0.88977 0.5218 0.0
C215 C 0.72579 0.98479 0.55609 0.0
O216 O 0.75118 0.0103 0.56369 0.0
O217 O 0.75537 0.89693 0.60631 0.0
O218 O 0.79849 0.87033 0.61077 0.0
O219 O 0.81032 0.98876 0.56579 0.0
O220 O 0.82778 0.94977 0.59547 0.0
C221 C 0.7685 0.87098 0.61366 0.0
C222 C 0.8343 0.97516 0.57739 0.0
O223 O 0.72809 0.95389 0.56268 0.0
Mg224 Mg 0.87282 0.06896 0.23873 0.0
O225 O 0.84163 0.01333 0.24234 0.0
O226 O 0.82817 0.01889 0.29592 0.0
Mg227 Mg 0.85005 0.07307 0.32603 0.0
C228 C 0.8273 1.00046 0.26662 0.0
C229 C 0.8982 0.08212 0.17442 0.0
O230 O 0.90625 0.11197 0.19557 0.0
O231 O 0.82854 0.09652 0.23594 0.0
O232 O 0.82092 0.10219 0.29139 0.0
O233 O 0.91726 0.0502 0.25661 0.0
O234 O 0.88698 0.07706 0.29061 0.0
C235 C 0.81441 0.10884 0.26107 0.0
C236 C 0.91149 0.06144 0.28723 0.0
O237 O 0.87641 0.05804 0.18198 0.0
Mg238 Mg 0.31198 0.6552 0.49002 0.0
O239 O 0.31693 0.69443 0.54111 0.0
O240 O 0.36514 0.72913 0.54567 0.0
Mg241 Mg 0.38964 0.71135 0.49713 0.0
C242 C 0.33821 0.71963 0.55764 0.0
C243 C 0.24833 0.62833 0.52287 0.0
O244 O 0.27045 0.6258 0.54736 0.0
O245 O 0.30234 0.69743 0.45513 0.0
O246 O 0.35225 0.72839 0.45776 0.0
O247 O 0.33503 0.61662 0.51681 0.0
O248 O 0.36383 0.65447 0.48934 0.0
C249 C 0.32244 0.72184 0.4452 0.0
C250 C 0.36295 0.62835 0.50702 0.0
O251 O 0.25755 0.6403 0.49606 0.0
Mg252 Mg 0.36763 0.56262 0.73967 0.0
O253 O 0.33773 0.50701 0.7444 0.0
O254 O 0.32275 0.51388 0.7973 0.0
Mg255 Mg 0.34406 0.56844 0.82688 0.0
C256 C 0.32262 0.49487 0.76848 0.0
C257 C 0.39068 0.57586 0.67407 0.0
O258 O 0.39683 0.60624 0.69454 0.0
O259 O 0.32277 0.58886 0.73635 0.0
O260 O 0.31472 0.59691 0.79181 0.0
O261 O 0.41312 0.5471 0.75891 0.0
O262 O 0.38118 0.57306 0.79149 0.0
C263 C 0.30847 0.60209 0.76096 0.0
C264 C 0.40712 0.55984 0.78903 0.0
O265 O 0.37157 0.55016 0.68295 0.0
Mg266 Mg 0.59724 0.97394 0.7977 0.0
O267 O 0.63503 0.02411 0.8004 0.0
O268 O 0.66406 0.03461 0.85149 0.0
Mg269 Mg 0.64404 0.99001 0.88165 0.0
C270 C 0.65785 0.04248 0.82159 0.0
C271 C 0.55823 0.97157 0.72809 0.0
O272 O 0.5353 0.96684 0.74863 0.0
O273 O 0.63756 0.94172 0.79038 0.0
O274 O 0.66285 0.94947 0.84343 0.0
O275 O 0.56193 0.00499 0.82027 0.0
O276 O 0.5965 0.98169 0.85113 0.0
C277 C 0.6593 0.9355 0.81202 0.0
C278 C 0.5741 1.00078 0.85018 0.0
O279 O 0.58754 0.97426 0.74036 0.0
Mg280 Mg 0.78094 0.63814 0.97157 0.0
O281 O 0.77629 0.66804 0.02366 0.0
O282 O 0.82583 0.69823 0.04427 0.0
Mg283 Mg 0.8619 0.68354 1.00716 0.0
C284 C 0.79546 0.68958 0.0464 0.0
C285 C 0.71558 0.59786 0.9457 0.0
O286 O 0.7357 0.57644 0.93696 0.0
O287 O 0.7881 0.6897 0.95099 0.0
O288 O 0.83926 0.71565 0.96909 0.0
O289 O 0.78624 0.5913 0.99552 0.0
O290 O 0.82726 0.63357 0.9891 0.0
C291 C 0.81194 0.71507 0.95221 0.0
C292 C 0.81667 0.60514 1.00196 0.0
O293 O 0.72714 0.62963 0.95865 0.0
Mg294 Mg 0.9188 0.59226 0.78114 0.0
O295 O 0.88266 0.54057 0.78201 0.0
O296 O 0.85642 0.54942 0.82833 0.0
Mg297 Mg 0.87504 0.60459 0.85668 0.0
C298 C 0.86145 0.52983 0.80159 0.0
C299 C 0.95554 0.59094 0.71866 0.0
O300 O 0.97192 0.61708 0.74107 0.0
O301 O 0.87661 0.6191 0.76285 0.0
O302 O 0.85346 0.62752 0.81144 0.0
O303 O 0.95678 0.5726 0.81258 0.0
O304 O 0.9218 0.60293 0.83503 0.0
C305 C 0.85492 0.63044 0.77988 0.0
C306 C 0.94509 0.58543 0.8397 0.0
O307 O 0.92919 0.57398 0.72656 0.0
Mg308 Mg 0.72569 0.40406 0.54255 0.0
O309 O 0.72216 0.36785 0.48791 0.0
O310 O 0.76662 0.34317 0.49165 0.0
Mg311 Mg 0.7986 0.36191 0.54243 0.0
C312 C 0.74087 0.34772 0.47466 0.0
C313 C 0.6754 0.4507 0.55358 0.0
O314 O 0.70316 0.4652 0.57139 0.0
O315 O 0.71509 0.35831 0.57735 0.0
O316 O 0.76219 0.33821 0.57708 0.0
O317 O 0.75613 0.4489 0.52116 0.0
O318 O 0.77598 0.40884 0.54675 0.0
C319 C 0.73446 0.33844 0.588 0.0
C320 C 0.78117 0.43622 0.5315 0.0
O321 O 0.67373 0.41969 0.53686 0.0
Mg322 Mg 0.64396 0.48722 0.29397 0.0
O323 O 0.67137 0.54468 0.29767 0.0
O324 O 0.69845 0.55988 0.34935 0.0
Mg325 Mg 0.6867 0.51186 0.3786 0.0
C326 C 0.6904 0.56728 0.31968 0.0
C327 C 0.61472 0.46317 0.21851 0.0
O328 O 0.59707 0.43872 0.23274 0.0
O329 O 0.69028 0.46491 0.2893 0.0
O330 O 0.71376 0.47662 0.34295 0.0
O331 O 0.60112 0.5066 0.31335 0.0
O332 O 0.63982 0.49149 0.34661 0.0
C333 C 0.71286 0.46237 0.31181 0.0
C334 C 0.61286 0.50327 0.34374 0.0
O335 O 0.63632 0.48606 0.23708 0.0
Tb336 Tb 0.03195 0.07205 0.01869 0.0
C337 C 0.03886 0.01379 0.95938 0.0
Tb338 Tb 0.00702 0.9931 0.02475 0.0
O339 O 0.08342 0.06765 0.02783 0.0
O340 O 0.04821 0.03174 0.04391 0.0
O341 O 0.03021 0.04522 0.96657 0.0
C342 C 0.00625 0.92979 0.04587 0.0
O343 O 0.03409 0.98921 0.97997 0.0
C344 C 0.96109 0.02974 0.00741 0.0
C345 C 0.99432 0.05242 0.08194 0.0
O346 O 0.99043 0.93502 0.01775 0.0
O347 O 0.02206 0.95997 0.06141 0.0
O348 O 0.95607 0.99999 0.02005 0.0
O349 O 0.99016 0.03392 0.99976 0.0
O350 O 0.99756 0.01892 0.07388 0.0
O351 O 0.0059 0.07784 0.06413 0.0
C352 C 0.03809 0.13887 1.0048 0.0
O353 O 0.01905 0.12512 0.02573 0.0
O354 O 0.05395 0.1151 0.99233 0.0
C355 C 0.07774 0.03706 0.03853 0.0
Tb356 Tb 0.27152 0.83196 0.28017 0.0
C357 C 0.32491 0.78386 0.27154 0.0
Tb358 Tb 0.2506 0.74926 0.26682 0.0
O359 O 0.29618 0.82972 0.33028 0.0
O360 O 0.25769 0.78992 0.30983 0.0
O361 O 0.31658 0.8149 0.26749 0.0
C362 C 0.23062 0.68333 0.27948 0.0
O363 O 0.30331 0.75504 0.27372 0.0
C364 C 0.25158 0.77677 0.20825 0.0
C365 C 0.19684 0.79799 0.26992 0.0
O366 O 0.25607 0.70494 0.29495 0.0
O367 O 0.21709 0.69857 0.25628 0.0
O368 O 0.24602 0.74284 0.20988 0.0
O369 O 0.25842 0.79163 0.23871 0.0
O370 O 0.20473 0.76697 0.27498 0.0
O371 O 0.21898 0.82686 0.26946 0.0
C372 C 0.28991 0.90073 0.27689 0.0
O373 O 0.27207 0.88771 0.29933 0.0
O374 O 0.2962 0.87487 0.25566 0.0
C375 C 0.28051 0.7988 0.33398 0.0
Tb376 Tb 0.54267 0.03302 0.52236 0.0
C377 C 0.52259 1.00352 0.59176 0.0
Tb378 Tb 0.47372 0.0245 0.53848 0.0
O379 O 0.54591 0.09124 0.53157 0.0
O380 O 0.51712 0.05791 0.55891 0.0
O381 O 0.54409 0.00731 0.56898 0.0
C382 C 0.4172 0.0435 0.55032 0.0
O383 O 0.49346 0.01208 0.58677 0.0
C384 C 0.48982 0.9667 0.5083 0.0
C385 C 0.49418 0.05325 0.46905 0.0
O386 O 0.42086 0.01245 0.53598 0.0
O387 O 0.44549 0.06314 0.55885 0.0
O388 O 0.46801 0.96705 0.52986 0.0
O389 O 0.49917 0.9979 0.50215 0.0
O390 O 0.47339 0.05157 0.49267 0.0
O391 O 0.52233 0.04231 0.47298 0.0
C392 C 0.60155 0.01863 0.51368 0.0
O393 O 0.59494 0.05002 0.52231 0.0
O394 O 0.57479 0.99567 0.5089 0.0
C395 C 0.52507 0.08945 0.55411 0.0
Tb396 Tb 0.27337 0.28453 0.81749 0.0
C397 C 0.27671 0.34423 0.76923 0.0
Tb398 Tb 0.24994 0.26412 0.73984 0.0
O399 O 0.32538 0.28259 0.81495 0.0
O400 O 0.29344 0.27138 0.77173 0.0
O401 O 0.27455 0.33612 0.80054 0.0
C402 C 0.24824 0.2426 0.67289 0.0
O403 O 0.27241 0.31982 0.74178 0.0
C404 C 0.20647 0.28525 0.77916 0.0
C405 C 0.24727 0.20415 0.78903 0.0
O406 O 0.26605 0.27098 0.68984 0.0
O407 O 0.23083 0.22617 0.6937 0.0
O408 O 0.20573 0.28721 0.74653 0.0
O409 O 0.22858 0.26833 0.78646 0.0
O410 O 0.24926 0.2118 0.75718 0.0
O411 O 0.25241 0.22903 0.81629 0.0
C412 C 0.27517 0.31055 0.88292 0.0
O413 O 0.28768 0.28333 0.8714 0.0
O414 O 0.26095 0.32237 0.8576 0.0
C415 C 0.32281 0.27296 0.78211 0.0
Tb416 Tb 1.00407 0.0164 0.4669 0.0
C417 C 0.96093 1.00316 0.52642 0.0
Tb418 Tb 0.03595 0.00882 0.53722 0.0
O419 O 0.97974 0.96085 0.46039 0.0
O420 O 0.02458 0.97738 0.48887 0.0
O421 O 0.96475 0.01957 0.49917 0.0
C422 C 0.06672 0.98731 0.58957 0.0
O423 O 0.98494 0.99101 0.54202 0.0
C424 C 0.02057 0.07121 0.53142 0.0
C425 C 0.08025 0.02633 0.47858 0.0
O426 O 0.04031 0.96985 0.57192 0.0
O427 O 0.07551 0.01707 0.578 0.0
O428 O 0.02212 0.05857 0.56022 0.0
O429 O 0.03039 0.05056 0.50927 0.0
O430 O 0.07825 0.01508 0.50881 0.0
O431 O 0.05477 0.03042 0.45848 0.0
C432 C 0.98285 0.03622 0.40919 0.0
O433 O 0.99834 0.01007 0.41142 0.0
O434 O 0.97952 0.05144 0.43957 0.0
C435 C 1.00221 0.95129 0.47956 0.0
Tb436 Tb 0.32687 0.80212 0.77484 0.0
C437 C 0.27275 0.80846 0.82564 0.0
Tb438 Tb 0.25705 0.79768 0.74532 0.0
O439 O 0.32921 0.85737 0.79758 0.0
O440 O 0.29942 0.83674 0.75324 0.0
O441 O 0.30023 0.79662 0.82033 0.0
C442 C 0.20336 0.81436 0.71706 0.0
O443 O 0.25366 0.8149 0.79973 0.0
C444 C 0.27042 0.73822 0.76408 0.0
C445 C 0.30975 0.78362 0.69342 0.0
O446 O 0.2215 0.83246 0.74341 0.0
O447 O 0.21508 0.78624 0.70676 0.0
O448 O 0.24174 0.74677 0.76388 0.0
O449 O 0.28854 0.76154 0.75171 0.0
O450 O 0.27979 0.78987 0.69719 0.0
O451 O 0.33182 0.78597 0.72023 0.0
C452 C 0.38549 0.79344 0.79885 0.0
O453 O 0.37992 0.81479 0.77709 0.0
O454 O 0.35811 0.7766 0.80636 0.0
C455 C 0.30703 0.86357 0.77578 0.0
Tb456 Tb 0.47727 0.03836 0.02301 0.0
C457 C 0.51571 0.97547 0.03282 0.0
Tb458 Tb 0.54879 0.056 0.0458 0.0
O459 O 0.48533 0.0499 0.97137 0.0
O460 O 0.52012 0.03099 1.00037 0.0
O461 O 0.48733 0.9861 0.03068 0.0
C462 C 0.61233 0.078 0.04399 0.0
O463 O 0.54353 0.9982 0.03469 0.0
C464 C 0.51131 0.04966 0.09564 0.0
C465 C 0.50824 0.11856 0.03767 0.0
O466 O 0.59898 0.06613 0.06974 0.0
O467 O 0.58985 0.07762 0.0195 0.0
O468 O 0.54065 0.04284 0.09704 0.0
O469 O 0.50595 0.06277 0.06867 0.0
O470 O 0.53737 0.10927 0.04123 0.0
O471 O 0.48099 0.09505 0.03403 0.0
C472 C 0.41439 0.01374 0.02323 0.0
O473 O 0.42737 0.02758 0.99825 0.0
O474 O 0.43672 0.01413 0.0478 0.0
C475 C 0.51468 0.04326 0.97296 0.0
Tb476 Tb 0.2179 0.26995 0.26727 0.0
C477 C 0.27314 0.2787 0.329 0.0
Tb478 Tb 0.28977 0.29898 0.25934 0.0
O479 O 0.22729 0.21708 0.27445 0.0
O480 O 0.25798 0.24968 0.24886 0.0
O481 O 0.24292 0.28151 0.31914 0.0
C482 C 0.34704 0.31139 0.2356 0.0
O483 O 0.29598 0.28053 0.30796 0.0
C484 C 0.25447 0.34544 0.28308 0.0
C485 C 0.236 0.28549 0.19512 0.0
O486 O 0.324 0.32945 0.23148 0.0
O487 O 0.33839 0.28702 0.25446 0.0
O488 O 0.28557 0.34936 0.29126 0.0
O489 O 0.24622 0.31838 0.26144 0.0
O490 O 0.26684 0.28673 0.2068 0.0
O491 O 0.2116 0.28101 0.21462 0.0
C492 C 0.16236 0.27153 0.2939 0.0
O493 O 0.16658 0.24795 0.26863 0.0
O494 O 0.18872 0.29481 0.30203 0.0
C495 C 0.25495 0.22128 0.26169 0.0
Tb496 Tb 0.51132 0.53966 0.96979 0.0
C497 C 0.46816 0.5184 0.02747 0.0
Tb498 Tb 0.54567 0.52876 0.03698 0.0
O499 O 0.49174 0.48319 0.95791 0.0
O500 O 0.53626 0.5008 0.98693 0.0
O501 O 0.4695 0.53231 0.9985 0.0
C502 C 0.57027 0.50207 0.08988 0.0
O503 O 0.49454 0.51294 0.04551 0.0
C504 C 0.53938 0.5944 0.03183 0.0
C505 C 0.58635 0.55124 0.97933 0.0
O506 O 0.54305 0.4886 0.07159 0.0
O507 O 0.58317 0.5308 0.07881 0.0
O508 O 0.56284 0.5865 0.05096 0.0
O509 O 0.51993 0.56657 0.02015 0.0
O510 O 0.5835 0.52945 1.00266 0.0
O511 O 0.56137 0.56433 0.96721 0.0
C512 C 0.48933 0.55838 0.9117 0.0
O513 O 0.50765 0.5349 0.91456 0.0
O514 O 0.48371 0.57201 0.94187 0.0
C515 C 0.51527 0.47378 0.97563 0.0
Tb516 Tb 0.80695 0.29219 0.28115 0.0
C517 C 0.75324 0.30478 0.32981 0.0
Tb518 Tb 0.74047 0.2943 0.24765 0.0
O519 O 0.81298 0.34785 0.30343 0.0
O520 O 0.78502 0.32981 0.25718 0.0
O521 O 0.78045 0.29209 0.32629 0.0
C522 C 0.68792 0.31666 0.2243 0.0
O523 O 0.73553 0.31166 0.30274 0.0
C524 C 0.75208 0.23063 0.25181 0.0
C525 C 0.79386 0.27376 0.19962 0.0
O526 O 0.68842 0.29402 0.24584 0.0
O527 O 0.71677 0.32616 0.2156 0.0
O528 O 0.73163 0.2373 0.2282 0.0
O529 O 0.76157 0.25808 0.27319 0.0
O530 O 0.76535 0.2845 0.20117 0.0
O531 O 0.81303 0.27265 0.22775 0.0
C532 C 0.86173 0.27881 0.30987 0.0
O533 O 0.83337 0.25938 0.30959 0.0
O534 O 0.85933 0.30487 0.2927 0.0
C535 C 0.7935 0.35633 0.28013 0.0
Tb536 Tb 0.97764 0.52803 0.52496 0.0
C537 C 0.0209 0.46899 0.53541 0.0
Tb538 Tb 0.05052 0.55094 0.54628 0.0
O539 O 0.9843 0.53874 0.47246 0.0
O540 O 0.02094 0.52409 0.50238 0.0
O541 O 0.99156 0.47761 0.53385 0.0
C542 C 0.11235 0.5782 0.53996 0.0
O543 O 0.04776 0.49311 0.53644 0.0
C544 C 0.01436 0.54351 0.59735 0.0
C545 C 0.0048 0.60974 0.54169 0.0
O546 O 0.10239 0.56195 0.56507 0.0
O547 O 0.08745 0.57944 0.51893 0.0
O548 O 0.04515 0.54175 0.59915 0.0
O549 O 0.00738 0.55396 0.56938 0.0
O550 O 0.03487 0.60261 0.54295 0.0
O551 O 0.97886 0.58434 0.53896 0.0
C552 C 0.91494 0.50071 0.52432 0.0
O553 O 0.92729 0.5187 0.50146 0.0
O554 O 0.93786 0.49829 0.54734 0.0
C555 C 0.01453 0.53511 0.47466 0.0
Tb556 Tb 0.76894 0.79027 0.3164 0.0
C557 C 0.77598 0.85015 0.26734 0.0
Tb558 Tb 0.74914 0.76945 0.23856 0.0
O559 O 0.80969 0.76119 0.31132 0.0
O560 O 0.79275 0.7849 0.2712 0.0
O561 O 0.77329 0.84228 0.29886 0.0
C562 C 0.75471 0.74306 0.1747 0.0
O563 O 0.77113 0.82538 0.23996 0.0
C564 C 0.69827 0.78323 0.26934 0.0
C565 C 0.73754 0.71135 0.29011 0.0
O566 O 0.74555 0.77309 0.18385 0.0
O567 O 0.7606 0.72801 0.20143 0.0
O568 O 0.69775 0.77476 0.23643 0.0
O569 O 0.72678 0.78362 0.28219 0.0
O570 O 0.74159 0.71799 0.25833 0.0
O571 O 0.74363 0.73667 0.3169 0.0
C572 C 0.77685 0.82019 0.38151 0.0
O573 O 0.80007 0.81511 0.36282 0.0
O574 O 0.74915 0.8081 0.36364 0.0
C575 C 0.81247 0.76551 0.27959 0.0
Tb576 Tb 0.76725 0.3166 0.78346 0.0
C577 C 0.82326 0.27063 0.77239 0.0
Tb578 Tb 0.7483 0.23484 0.76437 0.0
O579 O 0.75943 0.31143 0.83748 0.0
O580 O 0.77267 0.27105 0.80677 0.0
O581 O 0.81499 0.30263 0.7763 0.0
C582 C 0.72661 0.17159 0.78178 0.0
O583 O 0.80148 0.24052 0.76843 0.0
C584 C 0.74229 0.26596 0.70853 0.0
C585 C 0.69345 0.28306 0.76683 0.0
O586 O 0.74088 0.17668 0.75426 0.0
O587 O 0.72486 0.20192 0.79911 0.0
O588 O 0.73776 0.23165 0.70833 0.0
O589 O 0.75099 0.2797 0.73929 0.0
O590 O 0.70127 0.25163 0.77044 0.0
O591 O 0.71568 0.31206 0.76797 0.0
C592 C 0.79156 0.38479 0.78297 0.0
O593 O 0.77334 0.37246 0.80529 0.0
O594 O 0.79583 0.35871 0.76082 0.0
C595 C 0.76404 0.27882 0.83601 0.0
Tb596 Tb 0.72296 0.76363 0.77998 0.0
C597 C 0.78103 0.78595 0.84102 0.0
Tb598 Tb 0.79184 0.79969 0.76624 0.0
O599 O 0.73116 0.71261 0.75202 0.0
O600 O 0.7689 0.75047 0.77669 0.0
O601 O 0.74918 0.77766 0.83142 0.0
C602 C 0.84976 0.80026 0.74478 0.0
O603 O 0.80283 0.79373 0.81932 0.0
C604 C 0.74924 0.84194 0.77386 0.0
C605 C 0.73498 0.78073 0.70754 0.0
O606 O 0.84355 0.82282 0.7698 0.0
O607 O 0.82345 0.77864 0.732 0.0
O608 O 0.7746 0.8491 0.75731 0.0
O609 O 0.75151 0.81494 0.78783 0.0
O610 O 0.7656 0.77918 0.7165 0.0
O611 O 0.71298 0.77941 0.72976 0.0
C612 C 0.66839 0.74983 0.81012 0.0
O613 O 0.67579 0.77566 0.79245 0.0
O614 O 0.69111 0.73085 0.8089 0.0
C615 C 0.76266 0.72128 0.75778 0.0
Tb616 Tb 0.52899 0.57374 0.52108 0.0
C617 C 0.53618 0.51885 0.459 0.0
Tb618 Tb 0.50318 0.49446 0.52261 0.0
O619 O 0.58 0.56802 0.5313 0.0
O620 O 0.54338 0.53221 0.5458 0.0
O621 O 0.52849 0.55035 0.46817 0.0
C622 C 0.50254 0.42941 0.53913 0.0
O623 O 0.53101 0.49297 0.47812 0.0
C624 C 0.45848 0.53167 0.50432 0.0
C625 C 0.4875 0.55155 0.58079 0.0
O626 O 0.48581 0.43669 0.51255 0.0
O627 O 0.5194 0.45861 0.55569 0.0
O628 O 0.45243 0.50137 0.5159 0.0
O629 O 0.48804 0.53631 0.49831 0.0
O630 O 0.48906 0.51769 0.57103 0.0
O631 O 0.50201 0.57783 0.56569 0.0
C632 C 0.5359 0.64125 0.50968 0.0
O633 O 0.51305 0.62514 0.52532 0.0
O634 O 0.55537 0.61954 0.50173 0.0
C635 C 0.57311 0.53723 0.54134 0.0
Tb636 Tb 0.03898 0.52946 0.02816 0.0
C637 C 0.01924 0.50538 0.09818 0.0
Tb638 Tb 0.96865 0.52338 0.04234 0.0
O639 O 0.05144 0.57709 0.06771 0.0
O640 O 0.00672 0.56477 0.03903 0.0
O641 O 0.04095 0.50688 0.07571 0.0
C642 C 0.91393 0.54097 0.06285 0.0
O643 O 0.98971 0.51236 0.09131 0.0
C644 C 0.98142 0.46911 1.00306 0.0
C645 C 0.9884 0.54775 0.97225 0.0
O646 O 0.91668 0.51055 0.04622 0.0
O647 O 0.94258 0.56034 0.06951 0.0
O648 O 0.95326 0.47881 1.00202 0.0
O649 O 0.99978 0.48709 0.02841 0.0
O650 O 0.96741 0.54748 0.99562 0.0
O651 O 0.01768 0.53931 0.97827 0.0
C652 C 0.09554 0.51206 0.01199 0.0
O653 O 0.06718 0.49216 1.00489 0.0
O654 O 0.09145 0.54308 0.02603 0.0
C655 C 0.02291 0.58562 0.06352 0.0
C656 C 0.04803 0.20735 0.94444 0.0
C657 C 0.02268 0.22596 0.95133 0.0
C658 C 0.05457 0.18081 0.96373 0.0
C659 C 0.03614 0.17215 0.99065 0.0
H660 H 0.0613 0.21139 0.92249 0.0
H661 H 0.07286 0.16551 0.9561 0.0
S662 S 0.97148 0.21781 0.02325 0.0
N663 N 0.98241 0.23755 0.9903 0.0
N664 N 0.99471 0.18758 0.02626 0.0
C665 C 0.01291 0.19284 0.99987 0.0
C666 C 0.0062 0.2198 0.98027 0.0
C667 C 0.12001 0.83462 0.24765 0.0
C668 C 0.09605 0.80392 0.23858 0.0
C669 C 0.15219 0.83255 0.25872 0.0
C670 C 0.16184 0.7997 0.2616 0.0
H671 H 0.1141 0.86058 0.24562 0.0
H672 H 0.16971 0.85699 0.26457 0.0
S673 S 0.1081 0.71122 0.24226 0.0
N674 N 0.0841 0.73956 0.23418 0.0
N675 N 0.14414 0.73559 0.25509 0.0
C676 C 0.13787 0.76879 0.25338 0.0
C677 C 0.10518 0.7709 0.24183 0.0
C678 C 0.50503 0.90422 0.43119 0.0
C679 C 0.49223 0.87077 0.43974 0.0
C680 C 0.50569 0.93544 0.45412 0.0
C681 C 0.49372 0.93402 0.48628 0.0
H682 H 0.5131 0.9064 0.40613 0.0
H683 H 0.51432 0.96081 0.44604 0.0
S684 S 0.46321 0.85255 0.52295 0.0
N685 N 0.47122 0.83795 0.48413 0.0
N686 N 0.47264 0.89621 0.52695 0.0
C687 C 0.48305 0.90059 0.49587 0.0
C688 C 0.48224 0.86906 0.47266 0.0
C689 C 0.40954 0.27169 0.76211 0.0
C690 C 0.40652 0.25692 0.72747 0.0
C691 C 0.38221 0.27639 0.77912 0.0
C692 C 0.35052 0.26621 0.76243 0.0
H693 H 0.43334 0.28108 0.77593 0.0
H694 H 0.38609 0.28879 0.80556 0.0
S695 S 0.32931 0.22031 0.67351 0.0
N696 N 0.36936 0.22884 0.67793 0.0
N697 N 0.3178 0.23626 0.71041 0.0
C698 C 0.34705 0.2496 0.7283 0.0
C699 C 0.37507 0.24535 0.71071 0.0
C700 C 0.96184 0.87662 0.52198 0.0
C701 C 0.98837 0.86738 0.54065 0.0
C702 C 0.96656 0.90225 0.50008 0.0
C703 C 0.99791 0.9194 0.49623 0.0
H704 H 0.93714 0.86562 0.52574 0.0
H705 H 0.94549 0.91027 0.48792 0.0
S706 S 0.07557 0.90017 0.53359 0.0
N707 N 0.04731 0.87386 0.54961 0.0
N708 N 0.05589 0.92216 0.50832 0.0
C709 C 0.02466 0.90825 0.5121 0.0
C710 C 0.01997 0.88216 0.5344 0.0
C711 C 0.47417 0.79189 0.82489 0.0
C712 C 0.47534 0.79672 0.86081 0.0
C713 C 0.44513 0.79176 0.80445 0.0
C714 C 0.41657 0.79583 0.81956 0.0
H715 H 0.49534 0.78664 0.81258 0.0
H716 H 0.44469 0.78706 0.77687 0.0
S717 S 0.40877 0.81634 0.91208 0.0
N718 N 0.44689 0.81144 0.91013 0.0
N719 N 0.39222 0.80938 0.87207 0.0
C720 C 0.41803 0.80267 0.85527 0.0
C721 C 0.44751 0.80356 0.87586 0.0
C722 C 0.51956 0.21401 0.07939 0.0
C723 C 0.4913 0.22494 0.06607 0.0
C724 C 0.52634 0.18026 0.06831 0.0
C725 C 0.50507 0.15626 0.0436 0.0
H726 H 0.53605 0.23109 0.0994 0.0
H727 H 0.54739 0.17226 0.08054 0.0
S728 S 0.43054 0.17333 0.99684 0.0
N729 N 0.44388 0.21001 0.02385 0.0
N730 N 0.45668 0.1468 1.00343 0.0
C731 C 0.47789 0.16754 0.02858 0.0
C732 C 0.47097 0.2018 0.03972 0.0
C733 C 0.09544 0.22639 0.33976 0.0
C734 C 0.09593 0.25089 0.36946 0.0
C735 C 0.1157 0.23404 0.31428 0.0
C736 C 0.13713 0.26651 0.31748 0.0
H737 H 0.0793 0.20094 0.33612 0.0
H738 H 0.11519 0.21395 0.29242 0.0
S739 S 0.14691 0.34059 0.38923 0.0
N740 N 0.11909 0.30952 0.39995 0.0
N741 N 0.15701 0.32403 0.35194 0.0
C742 C 0.13748 0.2916 0.34666 0.0
C743 C 0.11703 0.2837 0.37275 0.0
C744 C 0.93814 0.10037 0.13372 0.0
C745 C 0.92112 0.07339 0.14954 0.0
C746 C 0.96278 0.09384 0.11312 0.0
C747 C 0.97185 0.06018 0.10803 0.0
H748 H 0.9323 0.1268 0.13722 0.0
H749 H 0.97435 0.11528 0.10065 0.0
S750 S 0.93603 0.98103 0.14611 0.0
N751 N 0.91576 0.01214 0.16001 0.0
N752 N 0.96232 0.9998 0.12213 0.0
C753 C 0.95544 0.03316 0.12457 0.0
C754 C 0.92999 0.03973 0.14501 0.0
C755 C 0.27964 0.73313 0.40005 0.0
C756 C 0.31158 0.74169 0.41692 0.0
C757 C 0.2696 0.75065 0.3727 0.0
C758 C 0.29095 0.77781 0.36115 0.0
H759 H 0.26214 0.7126 0.40796 0.0
H760 H 0.24481 0.7433 0.36099 0.0
S761 S 0.37745 0.80968 0.3948 0.0
N762 N 0.36462 0.77893 0.41839 0.0
N763 N 0.34589 0.81141 0.36796 0.0
C764 C 0.32293 0.7863 0.37744 0.0
C765 C 0.33318 0.76847 0.40496 0.0
C766 C 0.51745 0.9772 0.68056 0.0
C767 C 0.54992 0.97681 0.69214 0.0
C768 C 0.50887 0.98493 0.64784 0.0
C769 C 0.53234 0.99246 0.6251 0.0
H770 H 0.4984 0.97225 0.69714 0.0
H771 H 0.48359 0.9855 0.64061 0.0
S772 S 0.62073 0.99293 0.64205 0.0
N773 N 0.60562 0.98319 0.6776 0.0
N774 N 0.58953 0.99756 0.61604 0.0
C775 C 0.56484 0.99102 0.63586 0.0
C776 C 0.57361 0.98327 0.66935 0.0
C777 C 0.27666 0.38127 0.95817 0.0
C778 C 0.29784 0.37171 0.98325 0.0
C779 C 0.26856 0.36052 0.92613 0.0
C780 C 0.28116 0.32935 0.91807 0.0
H781 H 0.2666 0.40527 0.96308 0.0
H782 H 0.25279 0.3694 0.90732 0.0
S783 S 0.3356 0.29095 0.97538 0.0
N784 N 0.32986 0.3277 0.99837 0.0
N785 N 0.3145 0.2888 0.93799 0.0
C786 C 0.30157 0.31881 0.94311 0.0
C787 C 0.31001 0.34002 0.97572 0.0
C788 C 0.92874 0.07456 0.34949 0.0
C789 C 0.93139 0.05558 0.31745 0.0
C790 C 0.94653 0.06905 0.37895 0.0
C791 C 0.96742 0.04424 0.37736 0.0
H792 H 0.91267 0.09375 0.35198 0.0
H793 H 0.94325 0.08373 0.40321 0.0
S794 S 0.98438 0.98898 0.29957 0.0
N795 N 0.95757 0.01201 0.28563 0.0
N796 N 0.99103 1.00155 0.34128 0.0
C797 C 0.97108 0.02576 0.34544 0.0
C798 C 0.95303 0.03147 0.31535 0.0
C799 C 0.29957 0.73601 0.6008 0.0
C800 C 0.33163 0.73773 0.59188 0.0
C801 C 0.29278 0.75192 0.63296 0.0
C802 C 0.3177 0.76983 0.65824 0.0
H803 H 0.27939 0.72215 0.58276 0.0
H804 H 0.26768 0.74924 0.63834 0.0
S805 S 0.40589 0.78238 0.64826 0.0
N806 N 0.38862 0.75967 0.61139 0.0
N807 N 0.37594 0.78861 0.6716 0.0
C808 C 0.34985 0.77192 0.64965 0.0
C809 C 0.35675 0.75623 0.61667 0.0
C810 C 0.57169 0.00638 0.91377 0.0
C811 C 0.56164 0.01589 0.88197 0.0
C812 C 0.55741 0.0167 0.94344 0.0
C813 C 0.53241 0.03683 0.94249 0.0
H814 H 0.58994 0.98976 0.91565 0.0
H815 H 0.56522 0.00768 0.96702 0.0
S816 S 0.49991 0.07238 0.86682 0.0
N817 N 0.52707 0.04954 0.85222 0.0
N818 N 0.50029 0.06865 0.90789 0.0
C819 C 0.52333 0.04811 0.91135 0.0
C820 C 0.53789 0.03771 0.88114 0.0
C821 C 0.22852 0.35506 0.14042 0.0
C822 C 0.25291 0.34979 0.11898 0.0
C823 C 0.21797 0.32991 0.16176 0.0
C824 C 0.23171 0.29909 0.16228 0.0
H825 H 0.22002 0.38016 0.14336 0.0
H826 H 0.20225 0.33691 0.18087 0.0
S827 S 0.28891 0.26848 0.10367 0.0
N828 N 0.28465 0.30785 0.09378 0.0
N829 N 0.26518 0.26115 0.13425 0.0
C830 C 0.25217 0.29122 0.13718 0.0
C831 C 0.26289 0.31661 0.11555 0.0
C832 C 0.11873 0.95427 0.03654 0.0
C833 C 0.152 0.96925 0.04267 0.0
C834 C 0.09454 0.97593 0.0361 0.0
C835 C 0.10256 0.01337 0.04168 0.0
H836 H 0.11131 0.92571 0.03213 0.0
H837 H 0.06962 0.96313 0.02974 0.0
S838 S 0.18609 0.06589 0.05665 0.0
N839 N 0.1914 0.02427 0.05287 0.0
N840 N 0.14647 0.06409 0.05219 0.0
C841 C 0.13572 0.02842 0.04722 0.0
C842 C 0.16019 0.00666 0.04777 0.0
C843 C 0.65855 0.60644 0.94945 0.0
C844 C 0.68135 0.5836 0.94857 0.0
C845 C 0.62718 0.59517 0.95792 0.0
C846 C 0.61796 0.56102 0.9666 0.0
H847 H 0.6653 0.63354 0.9446 0.0
H848 H 0.61059 0.61387 0.95925 0.0
S849 S 0.66763 0.49016 0.96566 0.0
N850 N 0.69174 0.52437 0.95476 0.0
N851 N 0.63292 0.50358 0.97145 0.0
C852 C 0.63999 0.53744 0.96448 0.0
C853 C 0.67169 0.54863 0.95518 0.0
C854 C 0.7542 0.42613 0.32851 0.0
C855 C 0.73649 0.43883 0.30253 0.0
C856 C 0.77342 0.4004 0.32079 0.0
C857 C 0.77569 0.38613 0.28678 0.0
H858 H 0.75229 0.43503 0.3552 0.0
H859 H 0.78557 0.39063 0.34181 0.0
S860 S 0.73925 0.41474 0.20909 0.0
N861 N 0.7257 0.43796 0.24105 0.0
N862 N 0.76249 0.39004 0.22684 0.0
C863 C 0.75987 0.40003 0.26047 0.0
C864 C 0.74012 0.42623 0.26826 0.0
C865 C 0.8403 0.44466 0.54873 0.0
C866 C 0.81482 0.45254 0.52745 0.0
C867 C 0.87246 0.46047 0.54734 0.0
C868 C 0.88059 0.48452 0.52432 0.0
H869 H 0.8354 0.42659 0.56727 0.0
H870 H 0.8911 0.45373 0.56454 0.0
S871 S 0.82332 0.51349 0.46219 0.0
N872 N 0.79995 0.48571 0.48219 0.0
N873 N 0.86085 0.51514 0.47916 0.0
C874 C 0.85557 0.49235 0.50242 0.0
C875 C 0.82255 0.47648 0.50413 0.0
C876 C 0.33363 0.1845 0.25697 0.0
C877 C 0.33064 0.16006 0.28056 0.0
C878 C 0.30864 0.20362 0.24999 0.0
C879 C 0.28001 0.19896 0.26644 0.0
H880 H 0.35579 0.1898 0.24481 0.0
H881 H 0.31189 0.22242 0.23195 0.0
S882 S 0.25855 0.13464 0.32672 0.0
N883 N 0.2952 0.12954 0.3174 0.0
N884 N 0.24902 0.16572 0.30485 0.0
C885 C 0.27611 0.17321 0.28856 0.0
C886 C 0.30125 0.15377 0.29551 0.0
C887 C 0.36483 0.1097 0.53211 0.0
C888 C 0.33593 0.08786 0.51671 0.0
C889 C 0.39011 0.09514 0.5464 0.0
C890 C 0.38748 0.05821 0.54514 0.0
H891 H 0.36844 0.13809 0.53222 0.0
H892 H 0.41265 0.11283 0.55626 0.0
S893 S 0.31522 0.98997 0.51211 0.0
N894 N 0.30461 0.02784 0.50474 0.0
N895 N 0.35266 1.00045 0.53103 0.0
C896 C 0.35787 0.03631 0.53228 0.0
C897 C 0.33192 0.05117 0.51813 0.0
C898 C 0.71737 0.6311 0.33704 0.0
C899 C 0.70287 0.60342 0.31097 0.0
C900 C 0.72845 0.66557 0.32995 0.0
C901 C 0.72592 0.6741 0.29637 0.0
H902 H 0.71988 0.62632 0.36339 0.0
H903 H 0.73917 0.68569 0.35118 0.0
S904 S 0.69052 0.6113 0.21845 0.0
N905 N 0.68701 0.587 0.24983 0.0
N906 N 0.70797 0.65154 0.23658 0.0
C907 C 0.71183 0.64661 0.26991 0.0
C908 C 0.70028 0.61147 0.27717 0.0
C909 C 0.81953 0.48183 0.81646 0.0
C910 C 0.84245 0.4932 0.79418 0.0
C911 C 0.80255 0.44699 0.81192 0.0
C912 C 0.80766 0.42202 0.78493 0.0
H913 H 0.81495 0.49975 0.83811 0.0
H914 H 0.78575 0.43943 0.83022 0.0
S915 S 0.86299 0.43818 0.71787 0.0
N916 N 0.86798 0.47668 0.74285 0.0
N917 N 0.83584 0.41102 0.73443 0.0
C918 C 0.82958 0.43302 0.7617 0.0
C919 C 0.84701 0.46864 0.76631 0.0
C920 C 0.97119 0.83986 0.06901 0.0
C921 C 0.99148 0.8374 0.09853 0.0
C922 C 0.97718 0.8687 0.05063 0.0
C923 C 1.00362 0.89636 0.06108 0.0
H924 H 0.94959 0.82009 0.06074 0.0
H925 H 0.96 0.87023 0.02923 0.0
S926 S 0.06705 0.90058 0.13301 0.0
N927 N 0.04138 0.86363 0.13467 0.0
N928 N 0.0525 0.91769 0.10021 0.0
C929 C 0.02542 0.89312 0.08892 0.0
C930 C 0.01944 0.86367 0.10757 0.0
C931 C 0.91506 0.29981 0.78684 0.0
C932 C 0.92465 0.27505 0.80691 0.0
C933 C 0.88235 0.29725 0.77415 0.0
C934 C 0.8582 0.26933 0.78027 0.0
H935 H 0.93265 0.32208 0.78207 0.0
H936 H 0.87577 0.31783 0.76019 0.0
S937 S 0.87121 0.19629 0.82945 0.0
N938 N 0.9076 0.22068 0.83079 0.0
N939 N 0.84664 0.21575 0.80676 0.0
C940 C 0.86784 0.24355 0.79897 0.0
C941 C 0.9009 0.24647 0.81234 0.0
C942 C 0.48433 0.16958 0.57213 0.0
C943 C 0.48372 0.17322 0.60792 0.0
C944 C 0.49906 0.14333 0.55482 0.0
C945 C 0.5127 0.11923 0.57264 0.0
H946 H 0.47399 0.18764 0.55751 0.0
H947 H 0.49906 0.14132 0.52731 0.0
S948 S 0.51671 0.11687 0.6661 0.0
N949 N 0.49837 0.15066 0.66041 0.0
N950 N 0.52429 0.10018 0.6277 0.0
C951 C 0.51176 0.12222 0.60824 0.0
C952 C 0.49775 0.14955 0.62594 0.0
C953 C 0.61655 0.80968 0.27929 0.0
C954 C 0.60931 0.80155 0.31178 0.0
C955 C 0.64611 0.80522 0.26689 0.0
C956 C 0.66996 0.79255 0.28636 0.0
H957 H 0.59871 0.81843 0.26264 0.0
H958 H 0.64987 0.81078 0.24122 0.0
S959 S 0.66391 0.76821 0.37349 0.0
N960 N 0.62924 0.78135 0.3639 0.0
N961 N 0.68476 0.77256 0.34014 0.0
C962 C 0.66385 0.7857 0.31948 0.0
C963 C 0.63355 0.79035 0.33231 0.0
C964 C 0.99153 0.15839 0.5293 0.0
C965 C 0.01445 0.17676 0.51062 0.0
C966 C 0.99458 0.12488 0.53806 0.0
C967 C 0.02041 0.10859 0.52803 0.0
H968 H 0.97013 0.16905 0.53565 0.0
H969 H 0.97566 0.11078 0.55083 0.0
S970 S 0.08969 0.14705 0.48404 0.0
N971 N 0.06633 0.17747 0.48671 0.0
N972 N 0.0712 0.11433 0.50236 0.0
C973 C 0.04464 0.12751 0.5117 0.0
C974 C 0.04197 0.16174 0.50331 0.0
C975 C 0.60376 0.33796 0.21872 0.0
C976 C 0.6012 0.35036 0.18695 0.0
C977 C 0.63222 0.32742 0.23083 0.0
C978 C 0.65912 0.32974 0.21188 0.0
H979 H 0.58313 0.33466 0.23352 0.0
H980 H 0.633 0.31693 0.25493 0.0
S981 S 0.66564 0.36404 0.12894 0.0
N982 N 0.62832 0.36671 0.13788 0.0
N983 N 0.6824 0.34765 0.16109 0.0
C984 C 0.65749 0.34393 0.18099 0.0
C985 C 0.6283 0.35407 0.16837 0.0
C986 C 0.5409 0.88855 1.00097 0.0
C987 C 0.51178 0.86378 0.99895 0.0
C988 C 0.54272 0.92425 0.01436 0.0
C989 C 0.51555 0.93673 0.02635 0.0
H990 H 0.5621 0.88086 0.99046 0.0
H991 H 0.56509 0.94251 0.01331 0.0
S992 S 0.4355 0.88171 0.0333 0.0
N993 N 0.45652 0.85353 0.01477 0.0
N994 N 0.46007 0.92053 0.04022 0.0
C995 C 0.48717 0.91173 0.02741 0.0
C996 C 0.48529 0.87532 0.01366 0.0
C997 C 0.93798 0.82573 0.73059 0.0
C998 C 0.94 0.80287 0.70064 0.0
C999 C 0.90885 0.82405 0.74576 0.0
C1000 C 0.88124 0.79931 0.73138 0.0
H1001 H 0.95834 0.84643 0.74104 0.0
H1002 H 0.9076 0.84308 0.76797 0.0
S1003 S 0.8762 0.73054 0.65557 0.0
N1004 N 0.91365 0.75292 0.65899 0.0
N1005 N 0.85896 0.74895 0.68755 0.0
C1006 C 0.88387 0.77471 0.70274 0.0
C1007 C 0.91333 0.77674 0.68727 0.0
C1008 C 0.07451 0.02438 0.8751 0.0
C1009 C 0.09896 1.00348 0.87546 0.0
C1010 C 0.05472 0.02703 0.90195 0.0
C1011 C 0.05793 0.00807 0.92977 0.0
H1012 H 0.07071 0.03898 0.85395 0.0
H1013 H 0.03669 0.04401 0.90084 0.0
S1014 S 0.11808 0.94929 0.94283 0.0
N1015 N 0.12539 0.96366 0.90622 0.0
N1016 N 0.08767 0.9677 0.95595 0.0
C1017 C 0.08207 0.98676 0.93023 0.0
C1018 C 0.10274 0.98477 0.90333 0.0
C1019 C 0.73185 0.33774 0.65124 0.0
C1020 C 0.72839 0.31888 0.61781 0.0
C1021 C 0.73616 0.32076 0.68055 0.0
C1022 C 0.73706 0.28416 0.67765 0.0
H1023 H 0.73314 0.36624 0.65473 0.0
H1024 H 0.73944 0.33656 0.70559 0.0
S1025 S 0.72804 0.22263 0.59597 0.0
N1026 N 0.72573 0.26158 0.58385 0.0
N1027 N 0.73269 0.22954 0.6382 0.0
C1028 C 0.73243 0.26491 0.64436 0.0
C1029 C 0.72848 0.28226 0.61471 0.0
C1030 C 0.48344 0.06223 0.37458 0.0
C1031 C 0.46398 0.08859 0.37371 0.0
C1032 C 0.49381 0.0515 0.40558 0.0
C1033 C 0.48473 0.06635 0.43685 0.0
H1034 H 0.49032 0.04929 0.35109 0.0
H1035 H 0.50827 0.03072 0.40494 0.0
S1036 S 0.43757 0.13919 0.44947 0.0
N1037 N 0.43924 0.13196 0.40773 0.0
N1038 N 0.45721 0.11039 0.4655 0.0
C1039 C 0.46608 0.09331 0.43654 0.0
C1040 C 0.45612 0.10482 0.40513 0.0
C1041 C 0.77144 0.68035 0.10018 0.0
C1042 C 0.7824 0.7035 0.07731 0.0
C1043 C 0.76159 0.69342 0.13146 0.0
C1044 C 0.76157 0.72982 0.14021 0.0
H1045 H 0.77162 0.6522 0.09438 0.0
H1046 H 0.7544 0.67498 0.14911 0.0
S1047 S 0.78632 0.80076 0.08772 0.0
N1048 N 0.79204 0.764 0.06461 0.0
N1049 N 0.77195 0.78858 0.12288 0.0
C1050 C 0.77113 0.753 0.1168 0.0
C1051 C 0.78206 0.73979 0.08541 0.0
C1052 C 0.07663 0.94507 0.66949 0.0
C1053 C 0.10664 0.96397 0.68568 0.0
C1054 C 0.06463 0.95135 0.6373 0.0
C1055 C 0.08206 0.97707 0.62046 0.0
H1056 H 0.06152 0.92645 0.68234 0.0
H1057 H 0.04084 0.93723 0.62638 0.0
S1058 S 0.16405 0.02956 0.64884 0.0
N1059 N 0.15537 0.00621 0.68012 0.0
N1060 N 0.13226 0.01846 0.61993 0.0
C1061 C 0.11294 0.99447 0.63515 0.0
C1062 C 0.1254 0.98781 0.66772 0.0
C1063 C 0.72573 0.35157 0.4116 0.0
C1064 C 0.73625 0.33241 0.43722 0.0
C1065 C 0.72923 0.34146 0.3765 0.0
C1066 C 0.74368 0.31198 0.36561 0.0
H1067 H 0.71664 0.3758 0.41888 0.0
H1068 H 0.7223 0.35804 0.35811 0.0
S1069 S 0.77011 0.2495 0.42147 0.0
N1070 N 0.7578 0.27981 0.44806 0.0
N1071 N 0.76459 0.26134 0.38315 0.0
C1072 C 0.75206 0.29133 0.39071 0.0
C1073 C 0.7483 0.30137 0.4261 0.0
C1074 C 0.48476 0.04013 0.18394 0.0
C1075 C 0.45979 0.06035 0.18658 0.0
C1076 C 0.50062 0.03624 0.15418 0.0
C1077 C 0.49204 0.052 0.12553 0.0
H1078 H 0.49295 0.02797 0.20543 0.0
H1079 H 0.5202 0.02119 0.15389 0.0
S1080 S 0.42648 0.1051 0.11771 0.0
N1081 N 0.42603 0.0947 0.15687 0.0
N1082 N 0.45552 0.08692 0.10081 0.0
C1083 C 0.46623 0.07106 0.12714 0.0
C1084 C 0.45024 0.07537 0.15767 0.0
C1085 C 0.77652 0.75088 0.92474 0.0
C1086 C 0.80769 0.74288 0.93094 0.0
C1087 C 0.76901 0.769 0.8977 0.0
C1088 C 0.7923 0.77928 0.87555 0.0
H1089 H 0.75716 0.74091 0.93941 0.0
H1090 H 0.74403 0.77218 0.89255 0.0
S1091 S 0.87941 0.77154 0.88594 0.0
N1092 N 0.86343 0.75194 0.91692 0.0
N1093 N 0.84946 0.78597 0.86569 0.0
C1094 C 0.82461 0.77538 0.88418 0.0
C1095 C 0.83228 0.75706 0.912 0.0
C1096 C 0.91923 0.11087 0.99654 0.0
C1097 C 0.89265 0.10561 0.01638 0.0
C1098 C 0.9419 0.08718 0.99416 0.0
C1099 C 0.93877 0.05685 0.0111 0.0
H1100 H 0.92203 0.13283 0.98186 0.0
H1101 H 0.9614 0.0921 0.97811 0.0
S1102 S 0.87564 0.03253 0.06898 0.0
N1103 N 0.86695 0.069 0.05578 0.0
N1104 N 0.90784 0.02463 0.05023 0.0
C1105 C 0.91304 0.05219 0.03191 0.0
C1106 C 0.89058 0.07644 0.03486 0.0
C1107 C 0.37783 0.51143 0.03374 0.0
C1108 C 0.37257 0.49375 0.06225 0.0
C1109 C 0.40876 0.51934 0.02303 0.0
C1110 C 0.43595 0.51006 0.04041 0.0
H1111 H 0.35777 0.51868 0.01896 0.0
H1112 H 0.41115 0.5327 1.00068 0.0
S1113 S 0.43562 0.46526 0.1181 0.0
N1114 N 0.3974 0.46888 0.10899 0.0
N1115 N 0.45564 0.48305 0.08847 0.0
C1116 C 0.43122 0.49296 0.06948 0.0
C1117 C 0.39954 0.48499 0.08049 0.0
C1118 C 0.30335 0.65566 0.73398 0.0
C1119 C 0.29142 0.6319 0.75604 0.0
C1120 C 0.29587 0.68978 0.7365 0.0
C1121 C 0.27558 0.70117 0.76061 0.0
H1122 H 0.32064 0.649 0.71645 0.0
H1123 H 0.30682 0.70766 0.71996 0.0
S1124 S 0.23401 0.64743 0.82055 0.0
N1125 N 0.25564 0.6209 0.80041 0.0
N1126 N 0.24071 0.68495 0.80416 0.0
C1127 C 0.26128 0.67684 0.7808 0.0
C1128 C 0.26937 0.64218 0.77872 0.0
C1129 C 0.20379 0.60654 0.55779 0.0
C1130 C 0.21329 0.61642 0.52648 0.0
C1131 C 0.17115 0.59433 0.56196 0.0
C1132 C 0.1466 0.59166 0.53509 0.0
H1133 H 0.22172 0.60813 0.57939 0.0
H1134 H 0.16512 0.58698 0.58649 0.0
S1135 S 0.15816 0.61256 0.44746 0.0
N1136 N 0.19508 0.62161 0.46773 0.0
N1137 N 0.13386 0.59894 0.47575 0.0
C1138 C 0.15558 0.60134 0.50362 0.0
C1139 C 0.18885 0.61365 0.49928 0.0
C1140 C 0.68709 0.88461 0.82025 0.0
C1141 C 0.68127 0.91124 0.80069 0.0
C1142 C 0.70859 0.86188 0.81081 0.0
C1143 C 0.72576 0.86557 0.78199 0.0
H1144 H 0.67478 0.88121 0.84295 0.0
H1145 H 0.71229 0.84175 0.82671 0.0
S1146 S 0.71967 0.93181 0.72279 0.0
N1147 N 0.69407 0.94 0.7511 0.0
N1148 N 0.73577 0.89826 0.73421 0.0
C1149 C 0.72033 0.89226 0.76232 0.0
C1150 C 0.69771 0.91482 0.77143 0.0
C1151 C 0.69041 0.02806 0.54277 0.0
C1152 C 0.69481 0.99258 0.54133 0.0
C1153 C 0.66056 0.03638 0.53162 0.0
C1154 C 0.63409 0.00954 0.51848 0.0
H1155 H 0.70977 0.04965 0.55377 0.0
H1156 H 0.65786 0.06399 0.53474 0.0
S1157 S 0.63418 0.91272 0.5046 0.0
N1158 N 0.6711 0.93053 0.52237 0.0
N1159 N 0.61491 0.94627 0.50134 0.0
C1160 C 0.63865 0.97407 0.51486 0.0
C1161 C 0.66903 0.96555 0.52638 0.0
C1162 C 0.31622 0.43089 0.74115 0.0
C1163 C 0.30676 0.45678 0.76482 0.0
C1164 C 0.30524 0.39435 0.74143 0.0
C1165 C 0.28463 0.38245 0.76555 0.0
H1166 H 0.33338 0.43878 0.72332 0.0
H1167 H 0.3142 0.37535 0.72378 0.0
S1168 S 0.24834 0.43906 0.82904 0.0
N1169 N 0.27203 0.46745 0.81004 0.0
N1170 N 0.2521 0.39933 0.81078 0.0
C1171 C 0.27343 0.40801 0.78782 0.0
C1172 C 0.28429 0.44498 0.78738 0.0
C1173 C 0.17195 0.59828 0.28173 0.0
C1174 C 0.18281 0.58695 0.31234 0.0
C1175 C 0.18821 0.62893 0.27085 0.0
C1176 C 0.21613 0.64935 0.28996 0.0
H1177 H 0.15034 0.58373 0.26617 0.0
H1178 H 0.17846 0.63696 0.24752 0.0
S1179 S 0.2557 0.63094 0.37119 0.0
N1180 N 0.22415 0.59846 0.36117 0.0
N1181 N 0.25469 0.6559 0.34037 0.0
C1182 C 0.22784 0.63808 0.32014 0.0
C1183 C 0.21117 0.60696 0.33145 0.0
C1184 C 0.49784 0.7119 0.47403 0.0
C1185 C 0.51729 0.72055 0.44783 0.0
C1186 C 0.50573 0.68853 0.49623 0.0
C1187 C 0.53336 0.67288 0.49307 0.0
H1188 H 0.47542 0.72194 0.47652 0.0
H1189 H 0.48889 0.68095 0.51448 0.0
S1190 S 0.59522 0.691 0.43266 0.0
N1191 N 0.56764 0.71497 0.42292 0.0
N1192 N 0.58251 0.67093 0.46481 0.0
C1193 C 0.5546 0.68363 0.4691 0.0
C1194 C 0.54656 0.70753 0.44641 0.0
C1195 C 0.61596 0.32111 0.75434 0.0
C1196 C 0.59408 0.29283 0.73461 0.0
C1197 C 0.6478 0.31755 0.76513 0.0
C1198 C 0.6589 0.2853 0.75738 0.0
H1199 H 0.60863 0.34648 0.7611 0.0
H1200 H 0.66386 0.34032 0.77967 0.0
S1201 S 0.61116 0.20279 0.70691 0.0
N1202 N 0.58587 0.23127 0.70796 0.0
N1203 N 0.64531 0.22442 0.7287 0.0
C1204 C 0.63713 0.25661 0.73813 0.0
C1205 C 0.60489 0.26042 0.7266 0.0
C1206 C 0.97326 0.40299 0.92249 0.0
C1207 C 0.99433 0.37992 0.93051 0.0
C1208 C 0.97082 0.43282 0.94562 0.0
C1209 C 0.98905 0.44056 0.9779 0.0
H1210 H 0.95732 0.39693 0.89884 0.0
H1211 H 0.95346 0.4492 0.93865 0.0
S1212 S 0.04794 0.38832 0.01104 0.0
N1213 N 0.03437 0.367 0.97243 0.0
N1214 N 0.02942 0.4229 0.01633 0.0
C1215 C 0.01121 0.41848 0.98573 0.0
C1216 C 0.01385 0.38812 0.96194 0.0
C1217 C 0.89477 0.74224 0.26007 0.0
C1218 C 0.89983 0.75521 0.22883 0.0
C1219 C 0.86593 0.74425 0.27566 0.0
C1220 C 0.84103 0.75957 0.26083 0.0
H1221 H 0.91365 0.73146 0.2732 0.0
H1222 H 0.86364 0.73481 0.30011 0.0
S1223 S 0.84136 0.79633 0.17863 0.0
N1224 N 0.8764 0.78269 0.1831 0.0
N1225 N 0.82299 0.78676 0.21243 0.0
C1226 C 0.84528 0.77147 0.22907 0.0
C1227 C 0.87442 0.76921 0.21309 0.0
C1228 C 0.47554 0.39069 1.00576 0.0
C1229 C 0.50042 0.38313 0.02808 0.0
C1230 C 0.48125 0.41875 0.98685 0.0
C1231 C 0.51203 0.44013 0.9895 0.0
H1232 H 0.45087 0.37646 1.00447 0.0
H1233 H 0.46086 0.42505 0.97183 0.0
S1234 S 0.58727 0.42591 0.03685 0.0
N1235 N 0.55846 0.39528 0.04664 0.0
N1236 N 0.56905 0.44805 0.01046 0.0
C1237 C 0.53794 0.43054 0.00849 0.0
C1238 C 0.53218 0.40196 0.02797 0.0
C1239 C 0.91452 0.24917 0.37802 0.0
C1240 C 0.94381 0.27318 0.37959 0.0
C1241 C 0.88825 0.25058 0.3546 0.0
C1242 C 0.89044 0.27618 0.33222 0.0
H1243 H 0.91214 0.22847 0.39423 0.0
H1244 H 0.86607 0.23155 0.35411 0.0
S1245 S 0.96114 0.34654 0.32778 0.0
N1246 N 0.97305 0.32434 0.35797 0.0
N1247 N 0.92361 0.32692 0.31391 0.0
C1248 C 0.91933 0.3008 0.33402 0.0
C1249 C 0.94605 0.29938 0.35781 0.0
C1250 C 0.01625 0.70389 0.58731 0.0
C1251 C 0.98565 0.71334 0.58015 0.0
C1252 C 0.02317 0.67121 0.57293 0.0
C1253 C 0.99972 0.64662 0.55095 0.0
H1254 H 0.03488 0.72147 0.60482 0.0
H1255 H 0.0465 0.66456 0.58044 0.0
S1256 S 0.91733 0.65973 0.52049 0.0
N1257 N 0.93272 0.69627 0.54694 0.0
N1258 N 0.94582 0.63505 0.52015 0.0
C1259 C 0.96966 0.65634 0.54222 0.0
C1260 C 0.96258 0.68957 0.55678 0.0
C1261 C 0.61731 0.78982 0.87249 0.0
C1262 C 0.62663 0.77612 0.90217 0.0
C1263 C 0.62791 0.77807 0.84104 0.0
C1264 C 0.64769 0.752 0.83847 0.0
H1265 H 0.60452 0.81204 0.87419 0.0
H1266 H 0.62297 0.79167 0.81942 0.0
S1267 S 0.67265 0.70295 0.90794 0.0
N1268 N 0.65248 0.73202 0.9265 0.0
N1269 N 0.67135 0.70874 0.8673 0.0
C1270 C 0.65361 0.73513 0.86725 0.0
C1271 C 0.64344 0.74766 0.89928 0.0
C1272 C 0.4248 0.5371 0.64415 0.0
C1273 C 0.41324 0.56935 0.64812 0.0
C1274 C 0.44984 0.53223 0.62361 0.0
C1275 C 0.46426 0.55933 0.60601 0.0
H1276 H 0.41509 0.51573 0.65777 0.0
H1277 H 0.45772 0.50679 0.62135 0.0
S1278 S 0.44052 0.64796 0.60599 0.0
N1279 N 0.41687 0.62828 0.63189 0.0
N1280 N 0.46343 0.6192 0.59274 0.0
C1281 C 0.45244 0.59162 0.60945 0.0
C1282 C 0.42706 0.59656 0.63055 0.0
C1283 C 0.8227 0.25325 0.90399 0.0
C1284 C 0.80216 0.23427 0.92459 0.0
C1285 C 0.8102 0.26747 0.87559 0.0
C1286 C 0.77655 0.26403 0.86669 0.0
H1287 H 0.84879 0.25647 0.90928 0.0
H1288 H 0.8271 0.28126 0.86036 0.0
S1289 S 0.7119 0.21748 0.91164 0.0
N1290 N 0.74589 0.21308 0.93331 0.0
N1291 N 0.7229 0.24047 0.88072 0.0
C1292 C 0.75571 0.24564 0.88708 0.0
C1293 C 0.76834 0.23065 0.91572 0.0
C1294 C 0.07277 0.49188 0.17585 0.0
C1295 C 0.0505 0.48209 0.19917 0.0
C1296 C 0.06232 0.49875 0.14323 0.0
C1297 C 0.02912 0.49616 0.13239 0.0
H1298 H 0.09861 0.49496 0.18299 0.0
H1299 H 0.08064 0.50698 0.1267 0.0
S1300 S 0.96061 0.46921 0.18269 0.0
N1301 N 0.99334 0.46852 0.20834 0.0
N1302 N 0.97391 0.48146 0.14716 0.0
C1303 C 0.0065 0.48561 0.1551 0.0
C1304 C 0.01713 0.47851 0.18836 0.0
C1305 C 0.81792 0.86052 0.46903 0.0
C1306 C 0.79264 0.87231 0.48594 0.0
C1307 C 0.81249 0.84375 0.43519 0.0
C1308 C 0.78152 0.8377 0.41715 0.0
H1309 H 0.84225 0.86456 0.48189 0.0
H1310 H 0.83273 0.8353 0.42317 0.0
S1311 S 0.70694 0.86297 0.44952 0.0
N1312 N 0.73532 0.87667 0.48192 0.0
N1313 N 0.72514 0.84465 0.41827 0.0
C1314 C 0.75593 0.84912 0.43361 0.0
C1315 C 0.7615 0.86661 0.46802 0.0
C1316 C 0.42473 0.57949 0.85074 0.0
C1317 C 0.42947 0.56015 0.81954 0.0
C1318 C 0.44547 0.5805 0.88025 0.0
C1319 C 0.47155 0.56213 0.87953 0.0
H1320 H 0.40474 0.59384 0.85255 0.0
H1321 H 0.44037 0.59478 0.90397 0.0
S1322 S 0.49608 0.50983 0.80395 0.0
N1323 N 0.46334 0.52386 0.78933 0.0
N1324 N 0.50244 0.52585 0.84501 0.0
C1325 C 0.4774 0.54382 0.84834 0.0
C1326 C 0.45626 0.54276 0.81825 0.0
C1327 C 0.79016 0.22868 0.10646 0.0
C1328 C 0.82304 0.23144 0.10001 0.0
C1329 C 0.78095 0.24337 0.13804 0.0
C1330 C 0.80414 0.26067 0.16525 0.0
H1331 H 0.77122 0.21512 0.08682 0.0
H1332 H 0.75536 0.24021 0.14147 0.0
S1333 S 0.89349 0.27495 0.16223 0.0
N1334 N 0.87883 0.25352 0.12398 0.0
N1335 N 0.86171 0.27969 0.18322 0.0
C1336 C 0.83709 0.26347 0.15921 0.0
C1337 C 0.84644 0.24932 0.12677 0.0
C1338 C 0.03919 0.53328 0.38442 0.0
C1339 C 0.0682 0.51948 0.38652 0.0
C1340 C 0.02253 0.53953 0.4133 0.0
C1341 C 0.03425 0.53227 0.44539 0.0
H1342 H 0.02855 0.53814 0.36005 0.0
H1343 H 0.9998 0.54909 0.41022 0.0
S1344 S 0.11081 0.4995 0.46557 0.0
N1345 N 0.10898 0.50136 0.42418 0.0
N1346 N 0.07784 0.51293 0.47804 0.0
C1347 C 0.06396 0.52011 0.44818 0.0
C1348 C 0.0809 0.51378 0.41886 0.0
C1349 C 0.72704 0.8493 0.65189 0.0
C1350 C 0.74974 0.84199 0.62888 0.0
C1351 C 0.71686 0.82536 0.6745 0.0
C1352 C 0.72924 0.7937 0.67461 0.0
H1353 H 0.71974 0.87503 0.65491 0.0
H1354 H 0.7027 0.83381 0.69468 0.0
S1355 S 0.78082 0.75768 0.61229 0.0
N1356 N 0.77789 0.79731 0.60216 0.0
N1357 N 0.75878 0.7526 0.64461 0.0
C1358 C 0.74751 0.78375 0.64803 0.0
C1359 C 0.75802 0.80802 0.62528 0.0
C1360 C 0.61678 0.45687 0.53641 0.0
C1361 C 0.64825 0.47184 0.55214 0.0
C1362 C 0.5919 0.47745 0.53421 0.0
C1363 C 0.59746 0.51387 0.54751 0.0
H1364 H 0.61142 0.4292 0.52525 0.0
H1365 H 0.56867 0.46503 0.52066 0.0
S1366 S 0.67493 0.56631 0.59133 0.0
N1367 N 0.68284 0.52601 0.58168 0.0
N1368 N 0.63658 0.56382 0.57696 0.0
C1369 C 0.62856 0.52898 0.56339 0.0
C1370 C 0.6537 0.50825 0.56596 0.0
C1371 C 0.15151 0.05049 0.42843 0.0
C1372 C 0.17247 0.07564 0.45247 0.0
C1373 C 0.12143 0.03407 0.43692 0.0
C1374 C 0.11236 0.04132 0.47007 0.0
H1375 H 0.15827 0.04379 0.40291 0.0
H1376 H 0.10536 0.01545 0.41766 0.0
S1377 S 0.1585 0.10487 0.54217 0.0
N1378 N 0.18175 0.10734 0.51059 0.0
N1379 N 0.12601 0.07523 0.52678 0.0
C1380 C 0.13324 0.06601 0.49436 0.0
C1381 C 0.16316 0.08354 0.48549 0.0
C1382 C 0.26437 0.92862 0.82628 0.0
C1383 C 0.24299 0.93796 0.80116 0.0
C1384 C 0.28586 0.90562 0.81758 0.0
C1385 C 0.28689 0.89098 0.78343 0.0
H1386 H 0.26379 0.93807 0.85311 0.0
H1387 H 0.30085 0.89816 0.83801 0.0
S1388 S 0.23974 0.91056 0.70733 0.0
N1389 N 0.22666 0.93313 0.74003 0.0
N1390 N 0.2676 0.89034 0.72398 0.0
C1391 C 0.2672 0.90158 0.75783 0.0
C1392 C 0.24508 0.92488 0.76662 0.0
C1393 C 0.34111 0.9577 0.04936 0.0
C1394 C 0.31609 0.96033 0.02462 0.0
C1395 C 0.3726 0.9757 0.04878 0.0
C1396 C 0.38045 0.99668 0.02316 0.0
H1397 H 0.33635 0.94184 0.06971 0.0
H1398 H 0.391 0.97272 0.06843 0.0
S1399 S 0.32397 0.01216 0.95216 0.0
N1400 N 0.30106 0.98566 0.97379 0.0
N1401 N 0.36095 0.01923 0.97226 0.0
C1402 C 0.35582 0.99963 0.99811 0.0
C1403 C 0.32341 0.98156 0.99899 0.0
C1404 C 0.8419 0.68915 0.77367 0.0
C1405 C 0.83342 0.65229 0.76509 0.0
C1406 C 0.81906 0.71107 0.76919 0.0
C1407 C 0.78677 0.69717 0.75555 0.0
H1408 H 0.8658 0.70098 0.78624 0.0
H1409 H 0.82645 0.73899 0.77874 0.0
S1410 S 0.75308 0.60209 0.72675 0.0
N1411 N 0.79123 0.60246 0.74096 0.0
N1412 N 0.74818 0.64398 0.73144 0.0
C1413 C 0.77845 0.66038 0.74493 0.0
C1414 C 0.80181 0.63786 0.74999 0.0
C1415 C 0.86579 0.60967 0.04288 0.0
C1416 C 0.83808 0.58885 0.02383 0.0
C1417 C 0.88857 0.5939 0.06014 0.0
C1418 C 0.88477 0.55677 0.05797 0.0
H1419 H 0.87056 0.63816 0.04352 0.0
H1420 H 0.9106 0.61075 0.07268 0.0
S1421 S 0.8134 0.49114 0.01698 0.0
N1422 N 0.80543 0.52976 0.00845 0.0
N1423 N 0.84896 0.50009 0.04013 0.0
C1424 C 0.8556 0.536 0.04209 0.0
C1425 C 0.83211 0.55208 0.02497 0.0
C1426 C 0.2279 0.12428 0.83606 0.0
C1427 C 0.21051 0.09749 0.81071 0.0
C1428 C 0.24042 0.15808 0.82844 0.0
C1429 C 0.23644 0.16679 0.79504 0.0
H1430 H 0.23144 0.11942 0.8623 0.0
H1431 H 0.25303 0.17773 0.84923 0.0
S1432 S 0.19436 0.1059 0.71868 0.0
N1433 N 0.19109 0.08176 0.75019 0.0
N1434 N 0.21472 0.14525 0.73603 0.0
C1435 C 0.21994 0.14004 0.76915 0.0
C1436 C 0.20693 0.10552 0.77694 0.0
C1437 C 0.32125 0.9961 0.315 0.0
C1438 C 0.34609 0.00707 0.29465 0.0
C1439 C 0.30201 0.96229 0.30788 0.0
C1440 C 0.30674 0.93795 0.28014 0.0
H1441 H 0.31686 0.01351 0.33713 0.0
H1442 H 0.28399 0.95481 0.325 0.0
S1443 S 0.36659 0.95383 0.2172 0.0
N1444 N 0.37294 0.99115 0.24414 0.0
N1445 N 0.33666 0.92751 0.23084 0.0
C1446 C 0.33045 0.94885 0.25862 0.0
C1447 C 0.35014 0.98341 0.26586 0.0
C1448 C 0.5141 0.36268 0.59908 0.0
C1449 C 0.48789 0.33476 0.58792 0.0
C1450 C 0.51974 0.39226 0.58174 0.0
C1451 C 0.49957 0.395 0.55244 0.0
H1452 H 0.52924 0.36282 0.62255 0.0
H1453 H 0.5392 0.4139 0.59238 0.0
S1454 S 0.43126 0.3265 0.50913 0.0
N1455 N 0.44417 0.30972 0.54292 0.0
N1456 N 0.45494 0.36546 0.51054 0.0
C1457 C 0.475 0.3661 0.53933 0.0
C1458 C 0.46911 0.33595 0.55703 0.0
C1459 C 0.40082 0.75686 0.31015 0.0
C1460 C 0.42588 0.78444 0.30554 0.0
C1461 C 0.36868 0.7559 0.29721 0.0
C1462 C 0.35994 0.78273 0.27935 0.0
H1463 H 0.40593 0.73587 0.32434 0.0
H1464 H 0.35039 0.73463 0.30267 0.0
S1465 S 0.41666 0.86003 0.25866 0.0
N1466 N 0.44013 0.8384 0.28034 0.0
N1467 N 0.3795 0.83705 0.25632 0.0
C1468 C 0.38492 0.81 0.27359 0.0
C1469 C 0.4179 0.81072 0.28654 0.0
C1470 C 0.00901 0.65717 0.13416 0.0
C1471 C 0.98582 0.6737 0.11768 0.0
C1472 C 0.02161 0.62916 0.11651 0.0
C1473 C 0.01148 0.61668 0.08174 0.0
H1474 H 0.01728 0.66569 0.16098 0.0
H1475 H 0.03886 0.61676 0.13031 0.0
S1476 S 0.95532 0.65434 0.02562 0.0
N1477 N 0.95598 0.67751 0.0636 0.0
N1478 N 0.97939 0.62534 0.03084 0.0
C1479 C 0.98923 0.63375 0.06481 0.0
C1480 C 0.97647 0.66208 0.08263 0.0
C1481 C 0.12433 0.3037 0.80455 0.0
C1482 C 0.12122 0.28851 0.83492 0.0
C1483 C 0.15247 0.30379 0.78731 0.0
C1484 C 0.17877 0.28911 0.79997 0.0
H1485 H 0.10424 0.31394 0.79302 0.0
H1486 H 0.15316 0.31441 0.7633 0.0
S1487 S 0.18452 0.25044 0.88099 0.0
N1488 N 0.14814 0.26136 0.87848 0.0
N1489 N 0.20086 0.26208 0.84666 0.0
C1490 C 0.17671 0.2759 0.83143 0.0
C1491 C 0.14799 0.27543 0.84871 0.0
C1492 C 0.50105 0.66697 1.00011 0.0
C1493 C 0.52783 0.6922 0.9947 0.0
C1494 C 0.50526 0.63607 0.01339 0.0
C1495 C 0.53634 0.62941 0.02253 0.0
H1496 H 0.47646 0.67014 0.99261 0.0
H1497 H 0.48393 0.61676 0.0157 0.0
S1498 S 0.61457 0.68753 0.01631 0.0
N1499 N 0.58681 0.70897 1.00146 0.0
N1500 N 0.59441 0.65083 0.0273 0.0
C1501 C 0.56338 0.65499 0.0192 0.0
C1502 C 0.55919 0.68641 1.00507 0.0
C1503 C 0.13 0.85803 0.70986 0.0
C1504 C 0.11228 0.83944 0.67954 0.0
C1505 C 0.16007 0.85049 0.72112 0.0
C1506 C 0.1733 0.82381 0.70265 0.0
H1507 H 0.12017 0.8778 0.72567 0.0
H1508 H 0.17247 0.86485 0.7451 0.0
S1509 S 0.13866 0.77003 0.6198 0.0
N1510 N 0.11168 0.79524 0.62961 0.0
N1511 N 0.1682 0.78082 0.65132 0.0
C1512 C 0.15679 0.80618 0.6715 0.0
C1513 C 0.12626 0.81411 0.65974 0.0
C1514 C 0.99186 0.37003 0.52724 0.0
C1515 C 0.01471 0.35572 0.50814 0.0
C1516 C 0.99544 0.4065 0.53809 0.0
C1517 C 0.0222 0.43044 0.53071 0.0
H1518 H 0.96993 0.35326 0.53237 0.0
H1519 H 0.97619 0.41614 0.55103 0.0
S1520 S 0.09209 0.40636 0.48716 0.0
N1521 N 0.0674 0.36816 0.48634 0.0
N1522 N 0.07426 0.43678 0.50725 0.0
C1523 C 0.0468 0.41634 0.51453 0.0
C1524 C 0.04303 0.37901 0.5031 0.0
C1525 C 0.42885 0.30002 0.2071 0.0
C1526 C 0.42923 0.31597 0.17706 0.0
C1527 C 0.40208 0.29852 0.22618 0.0
C1528 C 0.3753 0.3136 0.2161 0.0
H1529 H 0.44945 0.28894 0.21612 0.0
H1530 H 0.40253 0.28597 0.24913 0.0
S1531 S 0.36369 0.35694 0.13894 0.0
N1532 N 0.39987 0.34603 0.13772 0.0
N1533 N 0.34989 0.34338 0.17368 0.0
C1534 C 0.37514 0.32907 0.18594 0.0
C1535 C 0.40204 0.33016 0.16634 0.0
C1536 C 0.59654 0.48873 0.40037 0.0
C1537 C 0.59403 0.50893 0.37341 0.0
C1538 C 0.57674 0.49102 0.42721 0.0
C1539 C 0.55408 0.51408 0.42844 0.0
H1540 H 0.61349 0.47044 0.40043 0.0
H1541 H 0.5798 0.47519 0.44755 0.0
S1542 S 0.53879 0.57359 0.36461 0.0
N1543 N 0.56732 0.55299 0.34975 0.0
N1544 N 0.53069 0.55798 0.40051 0.0
C1545 C 0.55161 0.53475 0.40182 0.0
C1546 C 0.57141 0.53199 0.37424 0.0
C1547 C 0.24408 0.78805 0.11355 0.0
C1548 C 0.23704 0.82246 0.11344 0.0
C1549 C 0.24822 0.77356 0.14422 0.0
C1550 C 0.24685 0.79331 0.17637 0.0
H1551 H 0.24754 0.77263 0.08976 0.0
H1552 H 0.25365 0.74698 0.14278 0.0
S1553 S 0.22892 0.88467 0.19039 0.0
N1554 N 0.22817 0.87563 0.14842 0.0
N1555 N 0.23687 0.84892 0.20586 0.0
C1556 C 0.23935 0.82756 0.17662 0.0
C1557 C 0.23424 0.84195 0.14528 0.0
C1558 C 0.9821 0.55805 0.87747 0.0
C1559 C 0.95695 0.57792 0.87414 0.0
C1560 C 0.99289 0.54921 0.90931 0.0
C1561 C 0.97849 0.5592 0.93903 0.0
H1562 H 0.99347 0.54892 0.85524 0.0
H1563 H 0.01201 0.5336 0.91041 0.0
S1564 S 0.91295 0.61302 0.94481 0.0
N1565 N 0.92014 0.60979 0.90437 0.0
N1566 N 0.93793 0.59057 0.96303 0.0
C1567 C 0.95355 0.57931 0.93609 0.0
C1568 C 0.94346 0.58937 0.90402 0.0
C1569 C 0.28263 0.23634 0.58781 0.0
C1570 C 0.27267 0.2004 0.57431 0.0
C1571 C 0.27266 0.2502 0.61875 0.0
C1572 C 0.25282 0.2285 0.63761 0.0
H1573 H 0.29868 0.25377 0.57462 0.0
H1574 H 0.28171 0.27785 0.62866 0.0
S1575 S 0.22048 0.13246 0.61353 0.0
N1576 N 0.2415 0.14338 0.58174 0.0
N1577 N 0.22326 0.1694 0.64045 0.0
C1578 C 0.2419 0.19273 0.62396 0.0
C1579 C 0.25177 0.17866 0.59217 0.0
C1580 C 0.57495 0.45317 0.16637 0.0
C1581 C 0.60598 0.46822 0.18285 0.0
C1582 C 0.56398 0.46298 0.13524 0.0
C1583 C 0.58366 0.48826 0.11979 0.0
H1584 H 0.55833 0.43516 0.17839 0.0
H1585 H 0.53944 0.45196 0.12409 0.0
S1586 S 0.66896 0.53016 0.14898 0.0
N1587 N 0.65785 0.50565 0.17872 0.0
N1588 N 0.637 0.52435 0.1205 0.0
C1589 C 0.61552 0.5014 0.13458 0.0
C1590 C 0.62677 0.49128 0.16607 0.0
C1591 C 0.27533 0.81308 0.92323 0.0
C1592 C 0.25337 0.83575 0.93294 0.0
C1593 C 0.28061 0.80375 0.88882 0.0
C1594 C 0.26405 0.81623 0.86185 0.0
H1595 H 0.28965 0.80324 0.94261 0.0
H1596 H 0.29848 0.78711 0.88348 0.0
S1597 S 0.20239 0.87472 0.87229 0.0
N1598 N 0.2139 0.86932 0.91184 0.0
N1599 N 0.22318 0.85134 0.84735 0.0
C1600 C 0.24084 0.83761 0.87085 0.0
C1601 C 0.23563 0.84738 0.90615 0.0
C1602 C 0.95866 0.54543 0.66815 0.0
C1603 C 0.96934 0.57973 0.6865 0.0
C1604 C 0.9734 0.53351 0.63925 0.0
C1605 C 0.9993 0.55546 0.62795 0.0
H1606 H 0.93923 0.5274 0.67653 0.0
H1607 H 0.96467 0.50696 0.62586 0.0
S1608 S 0.03419 0.64845 0.66413 0.0
N1609 N 0.006 0.63623 0.68916 0.0
N1610 N 0.03351 0.61353 0.6352 0.0
C1611 C 0.00953 0.58999 0.64522 0.0
C1612 C 0.99461 0.6022 0.67444 0.0
C1613 C 0.31816 0.24595 0.40147 0.0
C1614 C 0.29311 0.23428 0.42102 0.0
C1615 C 0.31198 0.26276 0.37298 0.0
C1616 C 0.28059 0.26877 0.36327 0.0
H1617 H 0.34215 0.2398 0.40666 0.0
H1618 H 0.33162 0.2692 0.35743 0.0
S1619 S 0.20833 0.24972 0.41083 0.0
N1620 N 0.23707 0.23434 0.43209 0.0
N1621 N 0.22538 0.26658 0.37899 0.0
C1622 C 0.25611 0.26032 0.38476 0.0
C1623 C 0.26238 0.24284 0.41351 0.0
C1624 C 0.41738 0.61241 0.4912 0.0
C1625 C 0.39013 0.60722 0.51006 0.0
C1626 C 0.44002 0.58877 0.48992 0.0
C1627 C 0.43619 0.55865 0.50709 0.0
H1628 H 0.42071 0.63421 0.47636 0.0
H1629 H 0.46003 0.5935 0.47448 0.0
S1630 S 0.37123 0.53489 0.56306 0.0
N1631 N 0.36298 0.57113 0.54899 0.0
N1632 N 0.40402 0.52677 0.54555 0.0
C1633 C 0.4098 0.5541 0.52703 0.0
C1634 C 0.3873 0.57831 0.52884 0.0
C1635 C 0.89284 0.96949 0.57807 0.0
C1636 C 0.8669 0.98474 0.56574 0.0
C1637 C 0.92313 0.97584 0.56539 0.0
C1638 C 0.92882 0.99788 0.53994 0.0
H1639 H 0.88977 0.9522 0.59748 0.0
H1640 H 0.94207 0.96291 0.57541 0.0
S1641 S 0.86964 0.04644 0.5007 0.0
N1642 N 0.8494 0.02436 0.52765 0.0
N1643 N 0.90634 0.03653 0.50413 0.0
C1644 C 0.90338 0.01416 0.52806 0.0
C1645 C 0.87248 0.00763 0.54093 0.0
C1646 C 0.78787 0.15765 0.2866 0.0
C1647 C 0.79404 0.13636 0.25699 0.0
C1648 C 0.77362 0.1876 0.2845 0.0
C1649 C 0.76409 0.19706 0.25277 0.0
H1650 H 0.79545 0.15227 0.31189 0.0
H1651 H 0.77053 0.20384 0.30799 0.0
S1652 S 0.77262 0.14986 0.16743 0.0
N1653 N 0.78823 0.12662 0.19469 0.0
N1654 N 0.76018 0.18247 0.19097 0.0
C1655 C 0.76845 0.17535 0.22288 0.0
C1656 C 0.78374 0.14511 0.22493 0.0
C1657 C 0.69138 0.11112 0.0089 0.0
C1658 C 0.7151 0.11036 0.03585 0.0
C1659 C 0.65826 0.10077 0.01194 0.0
C1660 C 0.64747 0.08931 0.04204 0.0
H1661 H 0.69835 0.11965 0.9851 0.0
H1662 H 0.641 0.10167 0.9904 0.0
S1663 S 0.69923 0.08271 0.12039 0.0
N1664 N 0.72513 0.09735 0.09396 0.0
N1665 N 0.66286 0.07803 0.09948 0.0
C1666 C 0.67073 0.08856 0.06928 0.0
C1667 C 0.70454 0.09905 0.06623 0.0
C1668 C 0.22336 0.42595 0.32454 0.0
C1669 C 0.19236 0.4228 0.30665 0.0
C1670 C 0.24353 0.40107 0.31672 0.0
C1671 C 0.23327 0.37186 0.29107 0.0
H1672 H 0.23214 0.44784 0.34481 0.0
H1673 H 0.26713 0.40453 0.3311 0.0
S1674 S 0.15401 0.35092 0.23722 0.0
N1675 N 0.1524 0.38789 0.26236 0.0
N1676 N 0.18993 0.34127 0.24778 0.0
C1677 C 0.20236 0.36849 0.27298 0.0
C1678 C 0.18201 0.39391 0.28071 0.0
C1679 C 0.18153 0.49465 0.02409 0.0
C1680 C 0.17949 0.47239 0.0498 0.0
C1681 C 0.15416 0.50717 0.01113 0.0
C1682 C 0.12387 0.49694 0.02281 0.0
H1683 H 0.20463 0.50346 0.01476 0.0
H1684 H 0.15675 0.52515 0.99223 0.0
S1685 S 0.10533 0.43854 0.08892 0.0
N1686 N 0.14449 0.44035 0.08585 0.0
N1687 N 0.09317 0.46331 0.06118 0.0
C1688 C 0.12137 0.47408 0.04782 0.0
C1689 C 0.14917 0.46189 0.06139 0.0
C1690 C 0.79291 0.95058 0.28889 0.0
C1691 C 0.81116 0.9623 0.26276 0.0
C1692 C 0.78095 0.91457 0.28934 0.0
C1693 C 0.78626 0.88827 0.26354 0.0
H1694 H 0.78845 0.96931 0.30996 0.0
H1695 H 0.76782 0.90731 0.3106 0.0
S1696 S 0.83055 0.90424 0.18788 0.0
N1697 N 0.83257 0.94428 0.20926 0.0
N1698 N 0.80963 0.87649 0.20994 0.0
C1699 C 0.80309 0.89946 0.23629 0.0
C1700 C 0.8156 0.93641 0.23593 0.0
C1701 C 0.68998 0.10397 0.83546 0.0
C1702 C 0.67748 0.0741 0.81109 0.0
C1703 C 0.7066 0.13511 0.8257 0.0
C1704 C 0.71203 0.13722 0.79137 0.0
H1705 H 0.68594 0.10374 0.86211 0.0
H1706 H 0.71493 0.15788 0.84516 0.0
S1707 S 0.68646 0.06559 0.71804 0.0
N1708 N 0.673 0.04804 0.75127 0.0
N1709 N 0.705 0.10641 0.7332 0.0
C1710 C 0.7009 0.10715 0.76694 0.0
C1711 C 0.68337 0.07563 0.77673 0.0
loop_
_geom_bond_atom_site_label_1
_geom_bond_atom_site_label_2
_geom_bond_distance
_geom_bond_site_symmetry_2
_ccdc_geom_bond_type
Mg0 O1 2.028 . S
Mg0 O7 1.986 . S
Mg0 O9 2.114 1_455 S
Mg0 O10 2.251 1_455 S
Mg0 O13 2.010 . S
O1 Mg0 2.028 . S
O1 C4 1.250 . S
O2 Mg3 2.028 . S
O2 C4 1.248 1_655 S
Mg3 O2 2.028 . S
Mg3 O8 2.032 . S
Mg3 O10 2.079 . S
C4 O1 1.250 . S
C4 O2 1.248 1_455 S
C5 O6 1.264 . S
C5 O13 1.249 . S
O6 C5 1.264 . S
O7 Mg0 1.986 . S
O7 C11 1.246 . S
O8 Mg3 2.032 . S
O8 C11 1.259 1_655 S
O9 Mg0 2.114 1_655 S
O9 C12 1.252 . S
O10 Mg0 2.251 1_655 S
O10 Mg3 2.079 . S
O10 C12 1.273 . S
C11 O7 1.246 . S
C11 O8 1.259 1_455 S
C12 O9 1.252 . S
C12 O10 1.273 . S
O13 Mg0 2.010 . S
O13 C5 1.249 . S
Mg14 O15 2.028 . S
Mg14 O21 1.986 . S
Mg14 O23 2.114 1_455 S
Mg14 O24 2.251 1_455 S
Mg14 O27 2.010 . S
O15 Mg14 2.028 . S
O15 C18 1.250 1_455 S
O16 Mg17 2.028 . S
O16 C18 1.248 . S
Mg17 O16 2.028 . S
Mg17 O22 2.032 . S
Mg17 O24 2.079 . S
C18 O15 1.250 1_655 S
C18 O16 1.248 . S
C19 O20 1.264 . S
C19 O27 1.249 . S
O20 C19 1.264 . S
O21 Mg14 1.986 . S
O21 C25 1.246 1_455 S
O22 Mg17 2.032 . S
O22 C25 1.259 . S
O23 Mg14 2.114 1_655 S
O23 C26 1.252 . S
O24 Mg14 2.251 1_655 S
O24 Mg17 2.079 . S
O24 C26 1.273 . S
C25 O21 1.246 1_655 S
C25 O22 1.259 . S
C26 O23 1.252 . S
C26 O24 1.273 . S
O27 Mg14 2.010 . S
O27 C19 1.249 . S
Mg28 O29 2.028 . S
Mg28 O35 1.986 . S
Mg28 O37 2.114 . S
Mg28 O38 2.251 . S
Mg28 O41 2.010 . S
O29 Mg28 2.028 . S
O29 C32 1.250 . S
O30 Mg31 2.028 . S
O30 C32 1.248 . S
Mg31 O30 2.028 . S
Mg31 O36 2.032 . S
Mg31 O38 2.079 . S
C32 O29 1.250 . S
C32 O30 1.248 . S
C33 O34 1.264 . S
C33 O41 1.249 . S
O34 C33 1.264 . S
O35 Mg28 1.986 . S
O35 C39 1.246 . S
O36 Mg31 2.032 . S
O36 C39 1.259 . S
O37 Mg28 2.114 . S
O37 C40 1.252 . S
O38 Mg28 2.251 . S
O38 Mg31 2.079 . S
O38 C40 1.273 . S
C39 O35 1.246 . S
C39 O36 1.259 . S
C40 O37 1.252 . S
C40 O38 1.273 . S
O41 Mg28 2.010 . S
O41 C33 1.249 . S
Mg42 O43 2.028 . S
Mg42 O49 1.986 . S
Mg42 O51 2.114 . S
Mg42 O52 2.251 . S
Mg42 O55 2.010 . S
O43 Mg42 2.028 . S
O43 C46 1.250 . S
O44 Mg45 2.028 . S
O44 C46 1.248 . S
Mg45 O44 2.028 . S
Mg45 O50 2.032 . S
Mg45 O52 2.079 . S
C46 O43 1.250 . S
C46 O44 1.248 . S
C47 O48 1.264 . S
C47 O55 1.249 . S
O48 C47 1.264 . S
O49 Mg42 1.986 . S
O49 C53 1.246 . S
O50 Mg45 2.032 . S
O50 C53 1.259 . S
O51 Mg42 2.114 . S
O51 C54 1.252 . S
O52 Mg42 2.251 . S
O52 Mg45 2.079 . S
O52 C54 1.273 . S
C53 O49 1.246 . S
C53 O50 1.259 . S
C54 O51 1.252 . S
C54 O52 1.273 . S
O55 Mg42 2.010 . S
O55 C47 1.249 . S
Mg56 O57 2.028 . S
Mg56 O63 1.986 . S
Mg56 O65 2.114 1_455 S
Mg56 O66 2.251 1_455 S
Mg56 O69 2.010 . S
O57 Mg56 2.028 . S
O57 C60 1.250 1_455 S
O58 Mg59 2.028 . S
O58 C60 1.248 . S
Mg59 O58 2.028 . S
Mg59 O64 2.032 . S
Mg59 O66 2.079 . S
C60 O57 1.250 1_655 S
C60 O58 1.248 . S
C61 O62 1.264 . S
C61 O69 1.249 . S
O62 C61 1.264 . S
O63 Mg56 1.986 . S
O63 C67 1.246 . S
O64 Mg59 2.032 . S
O64 C67 1.259 1_655 S
O65 Mg56 2.114 1_655 S
O65 C68 1.252 . S
O66 Mg56 2.251 1_655 S
O66 Mg59 2.079 . S
O66 C68 1.273 . S
C67 O63 1.246 . S
C67 O64 1.259 1_455 S
C68 O65 1.252 . S
C68 O66 1.273 . S
O69 Mg56 2.010 . S
O69 C61 1.249 . S
Mg70 O71 2.028 . S
Mg70 O77 1.986 . S
Mg70 O79 2.114 . S
Mg70 O80 2.251 . S
Mg70 O83 2.010 . S
O71 Mg70 2.028 . S
O71 C74 1.250 . S
O72 Mg73 2.028 . S
O72 C74 1.248 . S
Mg73 O72 2.028 . S
Mg73 O78 2.032 . S
Mg73 O80 2.079 . S
C74 O71 1.250 . S
C74 O72 1.248 . S
C75 O76 1.264 . S
C75 O83 1.249 . S
O76 C75 1.264 . S
O77 Mg70 1.986 . S
O77 C81 1.246 . S
O78 Mg73 2.032 . S
O78 C81 1.259 . S
O79 Mg70 2.114 . S
O79 C82 1.252 . S
O80 Mg70 2.251 . S
O80 Mg73 2.079 . S
O80 C82 1.273 . S
C81 O77 1.246 . S
C81 O78 1.259 . S
C82 O79 1.252 . S
C82 O80 1.273 . S
O83 Mg70 2.010 . S
O83 C75 1.249 . S
Mg84 O85 2.028 . S
Mg84 O91 1.986 . S
Mg84 O93 2.114 . S
Mg84 O94 2.251 . S
Mg84 O97 2.010 . S
O85 Mg84 2.028 . S
O85 C88 1.250 . S
O86 Mg87 2.028 . S
O86 C88 1.248 . S
Mg87 O86 2.028 . S
Mg87 O92 2.032 . S
Mg87 O94 2.079 . S
C88 O85 1.250 . S
C88 O86 1.248 . S
C89 O90 1.264 . S
C89 O97 1.249 . S
O90 C89 1.264 . S
O91 Mg84 1.986 . S
O91 C95 1.246 . S
O92 Mg87 2.032 . S
O92 C95 1.259 . S
O93 Mg84 2.114 . S
O93 C96 1.252 . S
O94 Mg84 2.251 . S
O94 Mg87 2.079 . S
O94 C96 1.273 . S
C95 O91 1.246 . S
C95 O92 1.259 . S
C96 O93 1.252 . S
C96 O94 1.273 . S
O97 Mg84 2.010 . S
O97 C89 1.249 . S
Mg98 O99 2.028 . S
Mg98 O105 1.986 . S
Mg98 O107 2.114 1_455 S
Mg98 O108 2.251 1_455 S
Mg98 O111 2.010 . S
O99 Mg98 2.028 . S
O99 C102 1.250 . S
O100 Mg101 2.028 . S
O100 C102 1.248 1_655 S
Mg101 O100 2.028 . S
Mg101 O106 2.032 . S
Mg101 O108 2.079 . S
C102 O99 1.250 . S
C102 O100 1.248 1_455 S
C103 O104 1.264 . S
C103 O111 1.249 . S
O104 C103 1.264 . S
O105 Mg98 1.986 . S
O105 C109 1.246 . S
O106 Mg101 2.032 . S
O106 C109 1.259 1_655 S
O107 Mg98 2.114 1_655 S
O107 C110 1.252 . S
O108 Mg98 2.251 1_655 S
O108 Mg101 2.079 . S
O108 C110 1.273 . S
C109 O105 1.246 . S
C109 O106 1.259 1_455 S
C110 O107 1.252 . S
C110 O108 1.273 . S
O111 Mg98 2.010 . S
O111 C103 1.249 . S
Mg112 O113 2.028 . S
Mg112 O119 1.986 . S
Mg112 O121 2.114 . S
Mg112 O122 2.251 . S
Mg112 O125 2.010 . S
O113 Mg112 2.028 . S
O113 C116 1.250 . S
O114 Mg115 2.028 . S
O114 C116 1.248 . S
Mg115 O114 2.028 . S
Mg115 O120 2.032 . S
Mg115 O122 2.079 . S
C116 O113 1.250 . S
C116 O114 1.248 . S
C117 O118 1.264 . S
C117 O125 1.249 . S
O118 C117 1.264 . S
O119 Mg112 1.986 . S
O119 C123 1.246 . S
O120 Mg115 2.032 . S
O120 C123 1.259 . S
O121 Mg112 2.114 . S
O121 C124 1.252 . S
O122 Mg112 2.251 . S
O122 Mg115 2.079 . S
O122 C124 1.273 . S
C123 O119 1.246 . S
C123 O120 1.259 . S
C124 O121 1.252 . S
C124 O122 1.273 . S
O125 Mg112 2.010 . S
O125 C117 1.249 . S
Mg126 O127 2.028 . S
Mg126 O133 1.986 . S
Mg126 O135 2.114 . S
Mg126 O136 2.251 . S
Mg126 O139 2.010 . S
O127 Mg126 2.028 . S
O127 C130 1.250 . S
O128 Mg129 2.028 . S
O128 C130 1.248 . S
Mg129 O128 2.028 . S
Mg129 O134 2.032 . S
Mg129 O136 2.079 . S
C130 O127 1.250 . S
C130 O128 1.248 . S
C131 O132 1.264 . S
C131 O139 1.249 . S
O132 C131 1.264 . S
O133 Mg126 1.986 . S
O133 C137 1.246 . S
O134 Mg129 2.032 . S
O134 C137 1.259 . S
O135 Mg126 2.114 . S
O135 C138 1.252 . S
O136 Mg126 2.251 . S
O136 Mg129 2.079 . S
O136 C138 1.273 . S
C137 O133 1.246 . S
C137 O134 1.259 . S
C138 O135 1.252 . S
C138 O136 1.273 . S
O139 Mg126 2.010 . S
O139 C131 1.249 . S
Mg140 O141 2.028 1_565 S
Mg140 O147 1.986 . S
Mg140 O149 2.114 1_565 S
Mg140 O150 2.251 . S
Mg140 O153 2.010 . S
O141 Mg140 2.028 1_545 S
O141 C144 1.250 . S
O142 Mg143 2.028 . S
O142 C144 1.248 . S
Mg143 O142 2.028 . S
Mg143 O148 2.032 1_545 S
Mg143 O150 2.079 1_545 S
C144 O141 1.250 . S
C144 O142 1.248 . S
C145 O146 1.264 . S
C145 O153 1.249 . S
O146 C145 1.264 . S
O147 Mg140 1.986 . S
O147 C151 1.246 . S
O148 Mg143 2.032 1_565 S
O148 C151 1.259 . S
O149 Mg140 2.114 1_545 S
O149 C152 1.252 . S
O150 Mg140 2.251 . S
O150 Mg143 2.079 1_565 S
O150 C152 1.273 1_565 S
C151 O147 1.246 . S
C151 O148 1.259 . S
C152 O149 1.252 . S
C152 O150 1.273 1_545 S
O153 Mg140 2.010 . S
O153 C145 1.249 . S
Mg154 O155 2.028 . S
Mg154 O161 1.986 . S
Mg154 O163 2.114 . S
Mg154 O164 2.251 . S
Mg154 O167 2.010 . S
O155 Mg154 2.028 . S
O155 C158 1.250 1_554 S
O156 Mg157 2.028 1_556 S
O156 C158 1.248 . S
Mg157 O156 2.028 1_554 S
Mg157 O162 2.032 . S
Mg157 O164 2.079 . S
C158 O155 1.250 1_556 S
C158 O156 1.248 . S
C159 O160 1.264 . S
C159 O167 1.249 . S
O160 C159 1.264 . S
O161 Mg154 1.986 . S
O161 C165 1.246 . S
O162 Mg157 2.032 . S
O162 C165 1.259 . S
O163 Mg154 2.114 . S
O163 C166 1.252 . S
O164 Mg154 2.251 . S
O164 Mg157 2.079 . S
O164 C166 1.273 . S
C165 O161 1.246 . S
C165 O162 1.259 . S
C166 O163 1.252 . S
C166 O164 1.273 . S
O167 Mg154 2.010 . S
O167 C159 1.249 . S
Mg168 O169 2.028 . S
Mg168 O175 1.986 . S
Mg168 O177 2.114 . S
Mg168 O178 2.251 . S
Mg168 O181 2.010 . S
O169 Mg168 2.028 . S
O169 C172 1.250 1_554 S
O170 Mg171 2.028 1_556 S
O170 C172 1.248 . S
Mg171 O170 2.028 1_554 S
Mg171 O176 2.032 . S
Mg171 O178 2.079 . S
C172 O169 1.250 1_556 S
C172 O170 1.248 . S
C173 O174 1.264 . S
C173 O181 1.249 . S
O174 C173 1.264 . S
O175 Mg168 1.986 . S
O175 C179 1.246 . S
O176 Mg171 2.032 . S
O176 C179 1.259 . S
O177 Mg168 2.114 . S
O177 C180 1.252 . S
O178 Mg168 2.251 . S
O178 Mg171 2.079 . S
O178 C180 1.273 . S
C179 O175 1.246 . S
C179 O176 1.259 . S
C180 O177 1.252 . S
C180 O178 1.273 . S
O181 Mg168 2.010 . S
O181 C173 1.249 . S
Mg182 O183 2.028 1_556 S
Mg182 O189 1.986 . S
Mg182 O191 2.114 1_556 S
Mg182 O192 2.251 . S
Mg182 O195 2.010 . S
O183 Mg182 2.028 1_554 S
O183 C186 1.250 . S
O184 Mg185 2.028 . S
O184 C186 1.248 . S
Mg185 O184 2.028 . S
Mg185 O190 2.032 1_554 S
Mg185 O192 2.079 1_554 S
C186 O183 1.250 . S
C186 O184 1.248 . S
C187 O188 1.264 . S
C187 O195 1.249 . S
O188 C187 1.264 . S
O189 Mg182 1.986 . S
O189 C193 1.246 . S
O190 Mg185 2.032 1_556 S
O190 C193 1.259 . S
O191 Mg182 2.114 1_554 S
O191 C194 1.252 . S
O192 Mg182 2.251 . S
O192 Mg185 2.079 1_556 S
O192 C194 1.273 1_556 S
C193 O189 1.246 . S
C193 O190 1.259 . S
C194 O191 1.252 . S
C194 O192 1.273 1_554 S
O195 Mg182 2.010 . S
O195 C187 1.249 . S
Mg196 O197 2.028 . S
Mg196 O203 1.986 . S
Mg196 O205 2.114 . S
Mg196 O206 2.251 . S
Mg196 O209 2.010 . S
O197 Mg196 2.028 . S
O197 C200 1.250 . S
O198 Mg199 2.028 . S
O198 C200 1.248 . S
Mg199 O198 2.028 . S
Mg199 O204 2.032 . S
Mg199 O206 2.079 . S
C200 O197 1.250 . S
C200 O198 1.248 . S
C201 O202 1.264 . S
C201 O209 1.249 . S
O202 C201 1.264 . S
O203 Mg196 1.986 . S
O203 C207 1.246 . S
O204 Mg199 2.032 . S
O204 C207 1.259 . S
O205 Mg196 2.114 . S
O205 C208 1.252 . S
O206 Mg196 2.251 . S
O206 Mg199 2.079 . S
O206 C208 1.273 . S
C207 O203 1.246 . S
C207 O204 1.259 . S
C208 O205 1.252 . S
C208 O206 1.273 . S
O209 Mg196 2.010 . S
O209 C201 1.249 . S
Mg210 O211 2.028 . S
Mg210 O217 1.986 . S
Mg210 O219 2.114 . S
Mg210 O220 2.251 . S
Mg210 O223 2.010 . S
O211 Mg210 2.028 . S
O211 C214 1.250 . S
O212 Mg213 2.028 . S
O212 C214 1.248 . S
Mg213 O212 2.028 . S
Mg213 O218 2.032 . S
Mg213 O220 2.079 . S
C214 O211 1.250 . S
C214 O212 1.248 . S
C215 O216 1.264 . S
C215 O223 1.249 . S
O216 C215 1.264 . S
O217 Mg210 1.986 . S
O217 C221 1.246 . S
O218 Mg213 2.032 . S
O218 C221 1.259 . S
O219 Mg210 2.114 . S
O219 C222 1.252 . S
O220 Mg210 2.251 . S
O220 Mg213 2.079 . S
O220 C222 1.273 . S
C221 O217 1.246 . S
C221 O218 1.259 . S
C222 O219 1.252 . S
C222 O220 1.273 . S
O223 Mg210 2.010 . S
O223 C215 1.249 . S
Mg224 O225 2.028 . S
Mg224 O231 1.986 . S
Mg224 O233 2.114 . S
Mg224 O234 2.251 . S
Mg224 O237 2.010 . S
O225 Mg224 2.028 . S
O225 C228 1.250 . S
O226 Mg227 2.028 . S
O226 C228 1.248 . S
Mg227 O226 2.028 . S
Mg227 O232 2.032 . S
Mg227 O234 2.079 . S
C228 O225 1.250 . S
C228 O226 1.248 . S
C229 O230 1.264 . S
C229 O237 1.249 . S
O230 C229 1.264 . S
O231 Mg224 1.986 . S
O231 C235 1.246 . S
O232 Mg227 2.032 . S
O232 C235 1.259 . S
O233 Mg224 2.114 . S
O233 C236 1.252 . S
O234 Mg224 2.251 . S
O234 Mg227 2.079 . S
O234 C236 1.273 . S
C235 O231 1.246 . S
C235 O232 1.259 . S
C236 O233 1.252 . S
C236 O234 1.273 . S
O237 Mg224 2.010 . S
O237 C229 1.249 . S
Mg238 O239 2.028 . S
Mg238 O245 1.986 . S
Mg238 O247 2.114 . S
Mg238 O248 2.251 . S
Mg238 O251 2.010 . S
O239 Mg238 2.028 . S
O239 C242 1.250 . S
O240 Mg241 2.028 . S
O240 C242 1.248 . S
Mg241 O240 2.028 . S
Mg241 O246 2.032 . S
Mg241 O248 2.079 . S
C242 O239 1.250 . S
C242 O240 1.248 . S
C243 O244 1.264 . S
C243 O251 1.249 . S
O244 C243 1.264 . S
O245 Mg238 1.986 . S
O245 C249 1.246 . S
O246 Mg241 2.032 . S
O246 C249 1.259 . S
O247 Mg238 2.114 . S
O247 C250 1.252 . S
O248 Mg238 2.251 . S
O248 Mg241 2.079 . S
O248 C250 1.273 . S
C249 O245 1.246 . S
C249 O246 1.259 . S
C250 O247 1.252 . S
C250 O248 1.273 . S
O251 Mg238 2.010 . S
O251 C243 1.249 . S
Mg252 O253 2.028 . S
Mg252 O259 1.986 . S
Mg252 O261 2.114 . S
Mg252 O262 2.251 . S
Mg252 O265 2.010 . S
O253 Mg252 2.028 . S
O253 C256 1.250 . S
O254 Mg255 2.028 . S
O254 C256 1.248 . S
Mg255 O254 2.028 . S
Mg255 O260 2.032 . S
Mg255 O262 2.079 . S
C256 O253 1.250 . S
C256 O254 1.248 . S
C257 O258 1.264 . S
C257 O265 1.249 . S
O258 C257 1.264 . S
O259 Mg252 1.986 . S
O259 C263 1.246 . S
O260 Mg255 2.032 . S
O260 C263 1.259 . S
O261 Mg252 2.114 . S
O261 C264 1.252 . S
O262 Mg252 2.251 . S
O262 Mg255 2.079 . S
O262 C264 1.273 . S
C263 O259 1.246 . S
C263 O260 1.259 . S
C264 O261 1.252 . S
C264 O262 1.273 . S
O265 Mg252 2.010 . S
O265 C257 1.249 . S
Mg266 O267 2.028 1_565 S
Mg266 O273 1.986 . S
Mg266 O275 2.114 1_565 S
Mg266 O276 2.251 1_565 S
Mg266 O279 2.010 . S
O267 Mg266 2.028 1_545 S
O267 C270 1.250 . S
O268 Mg269 2.028 . S
O268 C270 1.248 . S
Mg269 O268 2.028 . S
Mg269 O274 2.032 1_545 S
Mg269 O276 2.079 . S
C270 O267 1.250 . S
C270 O268 1.248 . S
C271 O272 1.264 . S
C271 O279 1.249 . S
O272 C271 1.264 . S
O273 Mg266 1.986 . S
O273 C277 1.246 . S
O274 Mg269 2.032 1_565 S
O274 C277 1.259 . S
O275 Mg266 2.114 1_545 S
O275 C278 1.252 . S
O276 Mg266 2.251 1_545 S
O276 Mg269 2.079 . S
O276 C278 1.273 . S
C277 O273 1.246 . S
C277 O274 1.259 . S
C278 O275 1.252 . S
C278 O276 1.273 . S
O279 Mg266 2.010 . S
O279 C271 1.249 . S
Mg280 O281 2.028 1_556 S
Mg280 O287 1.986 . S
Mg280 O289 2.114 1_556 S
Mg280 O290 2.251 . S
Mg280 O293 2.010 . S
O281 Mg280 2.028 1_554 S
O281 C284 1.250 . S
O282 Mg283 2.028 . S
O282 C284 1.248 . S
Mg283 O282 2.028 . S
Mg283 O288 2.032 1_554 S
Mg283 O290 2.079 1_554 S
C284 O281 1.250 . S
C284 O282 1.248 . S
C285 O286 1.264 . S
C285 O293 1.249 . S
O286 C285 1.264 . S
O287 Mg280 1.986 . S
O287 C291 1.246 . S
O288 Mg283 2.032 1_556 S
O288 C291 1.259 . S
O289 Mg280 2.114 1_554 S
O289 C292 1.252 . S
O290 Mg280 2.251 . S
O290 Mg283 2.079 1_556 S
O290 C292 1.273 1_556 S
C291 O287 1.246 . S
C291 O288 1.259 . S
C292 O289 1.252 . S
C292 O290 1.273 1_554 S
O293 Mg280 2.010 . S
O293 C285 1.249 . S
Mg294 O295 2.028 . S
Mg294 O301 1.986 . S
Mg294 O303 2.114 . S
Mg294 O304 2.251 . S
Mg294 O307 2.010 . S
O295 Mg294 2.028 . S
O295 C298 1.250 . S
O296 Mg297 2.028 . S
O296 C298 1.248 . S
Mg297 O296 2.028 . S
Mg297 O302 2.032 . S
Mg297 O304 2.079 . S
C298 O295 1.250 . S
C298 O296 1.248 . S
C299 O300 1.264 . S
C299 O307 1.249 . S
O300 C299 1.264 . S
O301 Mg294 1.986 . S
O301 C305 1.246 . S
O302 Mg297 2.032 . S
O302 C305 1.259 . S
O303 Mg294 2.114 . S
O303 C306 1.252 . S
O304 Mg294 2.251 . S
O304 Mg297 2.079 . S
O304 C306 1.273 . S
C305 O301 1.246 . S
C305 O302 1.259 . S
C306 O303 1.252 . S
C306 O304 1.273 . S
O307 Mg294 2.010 . S
O307 C299 1.249 . S
Mg308 O309 2.028 . S
Mg308 O315 1.986 . S
Mg308 O317 2.114 . S
Mg308 O318 2.251 . S
Mg308 O321 2.010 . S
O309 Mg308 2.028 . S
O309 C312 1.250 . S
O310 Mg311 2.028 . S
O310 C312 1.248 . S
Mg311 O310 2.028 . S
Mg311 O316 2.032 . S
Mg311 O318 2.079 . S
C312 O309 1.250 . S
C312 O310 1.248 . S
C313 O314 1.264 . S
C313 O321 1.249 . S
O314 C313 1.264 . S
O315 Mg308 1.986 . S
O315 C319 1.246 . S
O316 Mg311 2.032 . S
O316 C319 1.259 . S
O317 Mg308 2.114 . S
O317 C320 1.252 . S
O318 Mg308 2.251 . S
O318 Mg311 2.079 . S
O318 C320 1.273 . S
C319 O315 1.246 . S
C319 O316 1.259 . S
C320 O317 1.252 . S
C320 O318 1.273 . S
O321 Mg308 2.010 . S
O321 C313 1.249 . S
Mg322 O323 2.028 . S
Mg322 O329 1.986 . S
Mg322 O331 2.114 . S
Mg322 O332 2.251 . S
Mg322 O335 2.010 . S
O323 Mg322 2.028 . S
O323 C326 1.250 . S
O324 Mg325 2.028 . S
O324 C326 1.248 . S
Mg325 O324 2.028 . S
Mg325 O330 2.032 . S
Mg325 O332 2.079 . S
C326 O323 1.250 . S
C326 O324 1.248 . S
C327 O328 1.264 . S
C327 O335 1.249 . S
O328 C327 1.264 . S
O329 Mg322 1.986 . S
O329 C333 1.246 . S
O330 Mg325 2.032 . S
O330 C333 1.259 . S
O331 Mg322 2.114 . S
O331 C334 1.252 . S
O332 Mg322 2.251 . S
O332 Mg325 2.079 . S
O332 C334 1.273 . S
C333 O329 1.246 . S
C333 O330 1.259 . S
C334 O331 1.252 . S
C334 O332 1.273 . S
O335 Mg322 2.010 . S
O335 C327 1.249 . S
Tb336 O339 2.453 . S
Tb336 O340 2.596 . S
Tb336 O341 2.374 1_554 S
Tb336 O349 2.343 1_455 S
Tb336 O351 2.353 . S
Tb336 O353 2.427 . S
Tb336 O354 2.513 1_554 S
C337 O341 1.251 . S
C337 O343 1.263 1_445 S
Tb338 O340 2.343 1_665 S
Tb338 O343 2.353 1_554 S
Tb338 O346 2.429 . S
Tb338 O347 2.513 . S
Tb338 O348 2.453 1_564 S
Tb338 O349 2.596 1_565 S
Tb338 O350 2.374 1_565 S
O339 Tb336 2.453 . S
O339 C355 1.245 . S
O340 Tb336 2.596 . S
O340 Tb338 2.343 1_445 S
O340 C355 1.259 . S
O341 Tb336 2.374 1_556 S
O341 C337 1.251 . S
C342 O346 1.300 1_455 S
C342 O347 1.231 1_455 S
O343 C337 1.263 1_665 S
O343 Tb338 2.353 1_556 S
C344 O348 1.245 . S
C344 O349 1.259 1_556 S
C345 O350 1.250 . S
C345 O351 1.263 1_655 S
O346 Tb338 2.429 . S
O346 C342 1.300 1_655 S
O347 Tb338 2.513 . S
O347 C342 1.231 1_655 S
O348 Tb338 2.453 1_546 S
O348 C344 1.245 . S
O349 Tb336 2.343 1_655 S
O349 Tb338 2.596 1_545 S
O349 C344 1.259 1_554 S
O350 Tb338 2.374 1_545 S
O350 C345 1.250 . S
O351 Tb336 2.353 . S
O351 C345 1.263 1_455 S
C352 O353 1.275 1_556 S
C352 O354 1.246 . S
O353 Tb336 2.427 . S
O353 C352 1.275 1_554 S
O354 Tb336 2.513 1_556 S
O354 C352 1.246 . S
C355 O339 1.245 . S
C355 O340 1.259 . S
Tb356 O359 2.453 . S
Tb356 O360 2.596 . S
Tb356 O361 2.374 . S
Tb356 O369 2.343 . S
Tb356 O371 2.353 . S
Tb356 O373 2.427 . S
Tb356 O374 2.513 . S
C357 O361 1.251 . S
C357 O363 1.263 . S
Tb358 O360 2.343 . S
Tb358 O363 2.353 . S
Tb358 O366 2.427 . S
Tb358 O367 2.513 . S
Tb358 O368 2.453 . S
Tb358 O369 2.596 . S
Tb358 O370 2.374 . S
O359 Tb356 2.453 . S
O359 C375 1.245 . S
O360 Tb356 2.596 . S
O360 Tb358 2.343 . S
O360 C375 1.259 . S
O361 Tb356 2.374 . S
O361 C357 1.251 . S
C362 O366 1.275 . S
C362 O367 1.246 . S
O363 C357 1.263 . S
O363 Tb358 2.353 . S
C364 O368 1.245 . S
C364 O369 1.259 . S
C365 O370 1.250 . S
C365 O371 1.263 . S
O366 Tb358 2.427 . S
O366 C362 1.275 . S
O367 Tb358 2.513 . S
O367 C362 1.246 . S
O368 Tb358 2.453 . S
O368 C364 1.245 . S
O369 Tb356 2.343 . S
O369 Tb358 2.596 . S
O369 C364 1.259 . S
O370 Tb358 2.374 . S
O370 C365 1.250 . S
O371 Tb356 2.353 . S
O371 C365 1.263 . S
C372 O373 1.275 . S
C372 O374 1.246 . S
O373 Tb356 2.427 . S
O373 C372 1.275 . S
O374 Tb356 2.513 . S
O374 C372 1.246 . S
C375 O359 1.245 . S
C375 O360 1.259 . S
Tb376 O379 2.453 . S
Tb376 O380 2.596 . S
Tb376 O381 2.374 . S
Tb376 O389 2.343 1_545 S
Tb376 O391 2.353 . S
Tb376 O393 2.427 . S
Tb376 O394 2.513 1_545 S
C377 O381 1.251 . S
C377 O383 1.263 . S
Tb378 O380 2.343 . S
Tb378 O383 2.353 . S
Tb378 O386 2.427 . S
Tb378 O387 2.513 . S
Tb378 O388 2.453 1_545 S
Tb378 O389 2.596 1_545 S
Tb378 O390 2.374 . S
O379 Tb376 2.453 . S
O379 C395 1.245 . S
O380 Tb376 2.596 . S
O380 Tb378 2.343 . S
O380 C395 1.259 . S
O381 Tb376 2.374 . S
O381 C377 1.251 . S
C382 O386 1.275 . S
C382 O387 1.246 . S
O383 C377 1.263 . S
O383 Tb378 2.353 . S
C384 O388 1.245 . S
C384 O389 1.259 . S
C385 O390 1.250 . S
C385 O391 1.263 . S
O386 Tb378 2.427 . S
O386 C382 1.275 . S
O387 Tb378 2.513 . S
O387 C382 1.246 . S
O388 Tb378 2.453 1_565 S
O388 C384 1.245 . S
O389 Tb376 2.343 1_565 S
O389 Tb378 2.596 1_565 S
O389 C384 1.259 . S
O390 Tb378 2.374 . S
O390 C385 1.250 . S
O391 Tb376 2.353 . S
O391 C385 1.263 . S
C392 O393 1.275 1_565 S
C392 O394 1.246 . S
O393 Tb376 2.427 . S
O393 C392 1.275 1_545 S
O394 Tb376 2.513 1_565 S
O394 C392 1.246 . S
C395 O379 1.245 . S
C395 O380 1.259 . S
Tb396 O399 2.453 . S
Tb396 O400 2.596 . S
Tb396 O401 2.374 . S
Tb396 O409 2.343 . S
Tb396 O411 2.353 . S
Tb396 O413 2.427 . S
Tb396 O414 2.513 . S
C397 O401 1.251 . S
C397 O403 1.263 . S
Tb398 O400 2.343 . S
Tb398 O403 2.353 . S
Tb398 O406 2.427 . S
Tb398 O407 2.513 . S
Tb398 O408 2.453 . S
Tb398 O409 2.596 . S
Tb398 O410 2.374 . S
O399 Tb396 2.453 . S
O399 C415 1.245 . S
O400 Tb396 2.596 . S
O400 Tb398 2.343 . S
O400 C415 1.259 . S
O401 Tb396 2.374 . S
O401 C397 1.251 . S
C402 O406 1.275 . S
C402 O407 1.246 . S
O403 C397 1.263 . S
O403 Tb398 2.353 . S
C404 O408 1.245 . S
C404 O409 1.259 . S
C405 O410 1.250 . S
C405 O411 1.263 . S
O406 Tb398 2.427 . S
O406 C402 1.275 . S
O407 Tb398 2.513 . S
O407 C402 1.246 . S
O408 Tb398 2.453 . S
O408 C404 1.245 . S
O409 Tb396 2.343 . S
O409 Tb398 2.596 . S
O409 C404 1.259 . S
O410 Tb398 2.374 . S
O410 C405 1.250 . S
O411 Tb396 2.353 . S
O411 C405 1.263 . S
C412 O413 1.275 . S
C412 O414 1.246 . S
O413 Tb396 2.427 . S
O413 C412 1.275 . S
O414 Tb396 2.513 . S
O414 C412 1.246 . S
C415 O399 1.245 . S
C415 O400 1.259 . S
Tb416 O419 2.437 1_645 S
Tb416 O420 2.593 1_655 S
Tb416 O421 2.375 1_545 S
Tb416 O429 2.360 . S
Tb416 O431 2.358 1_655 S
Tb416 O433 2.436 1_655 S
Tb416 O434 2.522 . S
C417 O421 1.251 1_545 S
C417 O423 1.263 . S
Tb418 O420 2.346 . S
Tb418 O423 2.353 1_455 S
Tb418 O426 2.427 . S
Tb418 O427 2.513 . S
Tb418 O428 2.453 1_455 S
Tb418 O429 2.596 1_455 S
Tb418 O430 2.374 . S
O419 Tb416 2.437 1_465 S
O419 C435 1.245 . S
O420 Tb416 2.593 1_455 S
O420 Tb418 2.346 . S
O420 C435 1.256 1_545 S
O421 Tb416 2.375 1_565 S
O421 C417 1.251 1_565 S
C422 O426 1.275 . S
C422 O427 1.246 . S
O423 C417 1.263 . S
O423 Tb418 2.353 1_655 S
C424 O428 1.252 . S
C424 O429 1.254 . S
C425 O430 1.250 . S
C425 O431 1.263 . S
O426 Tb418 2.427 . S
O426 C422 1.275 . S
O427 Tb418 2.513 . S
O427 C422 1.246 . S
O428 Tb418 2.453 1_655 S
O428 C424 1.252 . S
O429 Tb416 2.360 . S
O429 Tb418 2.596 1_655 S
O429 C424 1.254 . S
O430 Tb418 2.374 . S
O430 C425 1.250 . S
O431 Tb416 2.358 1_455 S
O431 C425 1.263 . S
C432 O433 1.275 1_655 S
C432 O434 1.246 . S
O433 Tb416 2.436 1_455 S
O433 C432 1.275 1_455 S
O434 Tb416 2.522 . S
O434 C432 1.246 . S
C435 O419 1.245 . S
C435 O420 1.256 1_565 S
Tb436 O439 2.453 . S
Tb436 O440 2.596 . S
Tb436 O441 2.374 . S
Tb436 O449 2.343 . S
Tb436 O451 2.353 . S
Tb436 O453 2.427 . S
Tb436 O454 2.513 . S
C437 O441 1.251 . S
C437 O443 1.263 . S
Tb438 O440 2.343 . S
Tb438 O443 2.353 . S
Tb438 O446 2.427 . S
Tb438 O447 2.513 . S
Tb438 O448 2.453 . S
Tb438 O449 2.596 . S
Tb438 O450 2.374 . S
O439 Tb436 2.453 . S
O439 C455 1.245 . S
O440 Tb436 2.596 . S
O440 Tb438 2.343 . S
O440 C455 1.259 . S
O441 Tb436 2.374 . S
O441 C437 1.251 . S
C442 O446 1.275 . S
C442 O447 1.246 . S
O443 C437 1.263 . S
O443 Tb438 2.353 . S
C444 O448 1.245 . S
C444 O449 1.259 . S
C445 O450 1.250 . S
C445 O451 1.263 . S
O446 Tb438 2.427 . S
O446 C442 1.275 . S
O447 Tb438 2.513 . S
O447 C442 1.246 . S
O448 Tb438 2.453 . S
O448 C444 1.245 . S
O449 Tb436 2.343 . S
O449 Tb438 2.596 . S
O449 C444 1.259 . S
O450 Tb438 2.374 . S
O450 C445 1.250 . S
O451 Tb436 2.353 . S
O451 C445 1.263 . S
C452 O453 1.275 . S
C452 O454 1.246 . S
O453 Tb436 2.427 . S
O453 C452 1.275 . S
O454 Tb436 2.513 . S
O454 C452 1.246 . S
C455 O439 1.245 . S
C455 O440 1.259 . S
Tb456 O459 2.453 . S
Tb456 O460 2.596 . S
Tb456 O461 2.374 1_545 S
Tb456 O469 2.343 1_556 S
Tb456 O471 2.353 1_556 S
Tb456 O473 2.427 1_556 S
Tb456 O474 2.513 1_546 S
C457 O461 1.251 . S
C457 O463 1.263 1_556 S
Tb458 O460 2.343 1_554 S
Tb458 O463 2.353 1_545 S
Tb458 O466 2.427 . S
Tb458 O467 2.513 . S
Tb458 O468 2.453 . S
Tb458 O469 2.596 . S
Tb458 O470 2.374 . S
O459 Tb456 2.453 . S
O459 C475 1.245 . S
O460 Tb456 2.596 . S
O460 Tb458 2.343 1_556 S
O460 C475 1.259 . S
O461 Tb456 2.374 1_565 S
O461 C457 1.251 . S
C462 O466 1.275 . S
C462 O467 1.246 . S
O463 C457 1.263 1_554 S
O463 Tb458 2.353 1_565 S
C464 O468 1.245 . S
C464 O469 1.259 . S
C465 O470 1.250 . S
C465 O471 1.263 . S
O466 Tb458 2.427 . S
O466 C462 1.275 . S
O467 Tb458 2.513 . S
O467 C462 1.246 . S
O468 Tb458 2.453 . S
O468 C464 1.245 . S
O469 Tb456 2.343 1_554 S
O469 Tb458 2.596 . S
O469 C464 1.259 . S
O470 Tb458 2.374 . S
O470 C465 1.250 . S
O471 Tb456 2.353 1_554 S
O471 C465 1.263 . S
C472 O473 1.275 1_565 S
C472 O474 1.246 . S
O473 Tb456 2.427 1_554 S
O473 C472 1.275 1_545 S
O474 Tb456 2.513 1_564 S
O474 C472 1.246 . S
C475 O459 1.245 . S
C475 O460 1.259 . S
Tb476 O479 2.453 . S
Tb476 O480 2.596 . S
Tb476 O481 2.374 . S
Tb476 O489 2.343 . S
Tb476 O491 2.353 . S
Tb476 O493 2.427 . S
Tb476 O494 2.513 . S
C477 O481 1.251 . S
C477 O483 1.263 . S
Tb478 O480 2.343 . S
Tb478 O483 2.353 . S
Tb478 O486 2.427 . S
Tb478 O487 2.513 . S
Tb478 O488 2.453 . S
Tb478 O489 2.596 . S
Tb478 O490 2.374 . S
O479 Tb476 2.453 . S
O479 C495 1.245 . S
O480 Tb476 2.596 . S
O480 Tb478 2.343 . S
O480 C495 1.259 . S
O481 Tb476 2.374 . S
O481 C477 1.251 . S
C482 O486 1.275 . S
C482 O487 1.246 . S
O483 C477 1.263 . S
O483 Tb478 2.353 . S
C484 O488 1.245 . S
C484 O489 1.259 . S
C485 O490 1.250 . S
C485 O491 1.263 . S
O486 Tb478 2.427 . S
O486 C482 1.275 . S
O487 Tb478 2.513 . S
O487 C482 1.246 . S
O488 Tb478 2.453 . S
O488 C484 1.245 . S
O489 Tb476 2.343 . S
O489 Tb478 2.596 . S
O489 C484 1.259 . S
O490 Tb478 2.374 . S
O490 C485 1.250 . S
O491 Tb476 2.353 . S
O491 C485 1.263 . S
C492 O493 1.275 . S
C492 O494 1.246 . S
O493 Tb476 2.427 . S
O493 C492 1.275 . S
O494 Tb476 2.513 . S
O494 C492 1.246 . S
C495 O479 1.245 . S
C495 O480 1.259 . S
Tb496 O499 2.453 1_556 S
Tb496 O500 2.596 1_556 S
Tb496 O501 2.374 . S
Tb496 O509 2.343 . S
Tb496 O511 2.353 . S
Tb496 O513 2.427 . S
Tb496 O514 2.513 . S
C497 O501 1.251 1_554 S
C497 O503 1.263 . S
Tb498 O500 2.343 . S
Tb498 O503 2.353 . S
Tb498 O506 2.427 . S
Tb498 O507 2.513 . S
Tb498 O508 2.453 . S
Tb498 O509 2.596 1_554 S
Tb498 O510 2.374 . S
O499 Tb496 2.453 1_554 S
O499 C515 1.245 . S
O500 Tb496 2.596 1_554 S
O500 Tb498 2.343 . S
O500 C515 1.259 . S
O501 Tb496 2.374 . S
O501 C497 1.251 1_556 S
C502 O506 1.275 . S
C502 O507 1.246 . S
O503 C497 1.263 . S
O503 Tb498 2.353 . S
C504 O508 1.245 . S
C504 O509 1.259 1_554 S
C505 O510 1.250 . S
C505 O511 1.263 1_554 S
O506 Tb498 2.427 . S
O506 C502 1.275 . S
O507 Tb498 2.513 . S
O507 C502 1.246 . S
O508 Tb498 2.453 . S
O508 C504 1.245 . S
O509 Tb496 2.343 . S
O509 Tb498 2.596 1_556 S
O509 C504 1.259 1_556 S
O510 Tb498 2.374 . S
O510 C505 1.250 . S
O511 Tb496 2.353 . S
O511 C505 1.263 1_556 S
C512 O513 1.275 . S
C512 O514 1.246 . S
O513 Tb496 2.427 . S
O513 C512 1.275 . S
O514 Tb496 2.513 . S
O514 C512 1.246 . S
C515 O499 1.245 . S
C515 O500 1.259 . S
Tb516 O519 2.453 . S
Tb516 O520 2.596 . S
Tb516 O521 2.374 . S
Tb516 O529 2.343 . S
Tb516 O531 2.353 . S
Tb516 O533 2.427 . S
Tb516 O534 2.513 . S
C517 O521 1.251 . S
C517 O523 1.263 . S
Tb518 O520 2.343 . S
Tb518 O523 2.353 . S
Tb518 O526 2.427 . S
Tb518 O527 2.513 . S
Tb518 O528 2.453 . S
Tb518 O529 2.596 . S
Tb518 O530 2.374 . S
O519 Tb516 2.453 . S
O519 C535 1.245 . S
O520 Tb516 2.596 . S
O520 Tb518 2.343 . S
O520 C535 1.259 . S
O521 Tb516 2.374 . S
O521 C517 1.251 . S
C522 O526 1.275 . S
C522 O527 1.246 . S
O523 C517 1.263 . S
O523 Tb518 2.353 . S
C524 O528 1.245 . S
C524 O529 1.259 . S
C525 O530 1.250 . S
C525 O531 1.263 . S
O526 Tb518 2.427 . S
O526 C522 1.275 . S
O527 Tb518 2.513 . S
O527 C522 1.246 . S
O528 Tb518 2.453 . S
O528 C524 1.245 . S
O529 Tb516 2.343 . S
O529 Tb518 2.596 . S
O529 C524 1.259 . S
O530 Tb518 2.374 . S
O530 C525 1.250 . S
O531 Tb516 2.353 . S
O531 C525 1.263 . S
C532 O533 1.275 . S
C532 O534 1.246 . S
O533 Tb516 2.427 . S
O533 C532 1.275 . S
O534 Tb516 2.513 . S
O534 C532 1.246 . S
C535 O519 1.245 . S
C535 O520 1.259 . S
Tb536 O539 2.453 . S
Tb536 O540 2.596 1_655 S
Tb536 O541 2.374 . S
Tb536 O549 2.343 . S
Tb536 O551 2.353 . S
Tb536 O553 2.427 . S
Tb536 O554 2.513 . S
C537 O541 1.251 1_455 S
C537 O543 1.263 . S
Tb538 O540 2.343 . S
Tb538 O543 2.353 . S
Tb538 O546 2.427 . S
Tb538 O547 2.513 . S
Tb538 O548 2.453 . S
Tb538 O549 2.596 1_455 S
Tb538 O550 2.374 . S
O539 Tb536 2.453 . S
O539 C555 1.245 1_655 S
O540 Tb536 2.596 1_455 S
O540 Tb538 2.343 . S
O540 C555 1.259 . S
O541 Tb536 2.374 . S
O541 C537 1.251 1_655 S
C542 O546 1.275 . S
C542 O547 1.246 . S
O543 C537 1.263 . S
O543 Tb538 2.353 . S
C544 O548 1.245 1_655 S
C544 O549 1.259 . S
C545 O550 1.250 . S
C545 O551 1.263 1_455 S
O546 Tb538 2.427 . S
O546 C542 1.275 . S
O547 Tb538 2.513 . S
O547 C542 1.246 . S
O548 Tb538 2.453 . S
O548 C544 1.245 1_455 S
O549 Tb536 2.343 . S
O549 Tb538 2.596 1_655 S
O549 C544 1.259 . S
O550 Tb538 2.374 . S
O550 C545 1.250 . S
O551 Tb536 2.353 . S
O551 C545 1.263 1_655 S
C552 O553 1.275 . S
C552 O554 1.246 . S
O553 Tb536 2.427 . S
O553 C552 1.275 . S
O554 Tb536 2.513 . S
O554 C552 1.246 . S
C555 O539 1.245 1_455 S
C555 O540 1.259 . S
Tb556 O559 2.453 . S
Tb556 O560 2.596 . S
Tb556 O561 2.374 . S
Tb556 O569 2.343 . S
Tb556 O571 2.353 . S
Tb556 O573 2.427 . S
Tb556 O574 2.513 . S
C557 O561 1.251 . S
C557 O563 1.263 . S
Tb558 O560 2.343 . S
Tb558 O563 2.353 . S
Tb558 O566 2.427 . S
Tb558 O567 2.513 . S
Tb558 O568 2.453 . S
Tb558 O569 2.596 . S
Tb558 O570 2.374 . S
O559 Tb556 2.453 . S
O559 C575 1.245 . S
O560 Tb556 2.596 . S
O560 Tb558 2.343 . S
O560 C575 1.259 . S
O561 Tb556 2.374 . S
O561 C557 1.251 . S
C562 O566 1.275 . S
C562 O567 1.246 . S
O563 C557 1.263 . S
O563 Tb558 2.353 . S
C564 O568 1.245 . S
C564 O569 1.259 . S
C565 O570 1.250 . S
C565 O571 1.263 . S
O566 Tb558 2.427 . S
O566 C562 1.275 . S
O567 Tb558 2.513 . S
O567 C562 1.246 . S
O568 Tb558 2.453 . S
O568 C564 1.245 . S
O569 Tb556 2.343 . S
O569 Tb558 2.596 . S
O569 C564 1.259 . S
O570 Tb558 2.374 . S
O570 C565 1.250 . S
O571 Tb556 2.353 . S
O571 C565 1.263 . S
C572 O573 1.275 . S
C572 O574 1.246 . S
O573 Tb556 2.427 . S
O573 C572 1.275 . S
O574 Tb556 2.513 . S
O574 C572 1.246 . S
C575 O559 1.245 . S
C575 O560 1.259 . S
Tb576 O579 2.453 . S
Tb576 O580 2.596 . S
Tb576 O581 2.374 . S
Tb576 O589 2.343 . S
Tb576 O591 2.353 . S
Tb576 O593 2.427 . S
Tb576 O594 2.513 . S
C577 O581 1.251 . S
C577 O583 1.263 . S
Tb578 O580 2.343 . S
Tb578 O583 2.353 . S
Tb578 O586 2.427 . S
Tb578 O587 2.513 . S
Tb578 O588 2.453 . S
Tb578 O589 2.596 . S
Tb578 O590 2.374 . S
O579 Tb576 2.453 . S
O579 C595 1.245 . S
O580 Tb576 2.596 . S
O580 Tb578 2.343 . S
O580 C595 1.259 . S
O581 Tb576 2.374 . S
O581 C577 1.251 . S
C582 O586 1.275 . S
C582 O587 1.246 . S
O583 C577 1.263 . S
O583 Tb578 2.353 . S
C584 O588 1.245 . S
C584 O589 1.259 . S
C585 O590 1.250 . S
C585 O591 1.263 . S
O586 Tb578 2.427 . S
O586 C582 1.275 . S
O587 Tb578 2.513 . S
O587 C582 1.246 . S
O588 Tb578 2.453 . S
O588 C584 1.245 . S
O589 Tb576 2.343 . S
O589 Tb578 2.596 . S
O589 C584 1.259 . S
O590 Tb578 2.374 . S
O590 C585 1.250 . S
O591 Tb576 2.353 . S
O591 C585 1.263 . S
C592 O593 1.275 . S
C592 O594 1.246 . S
O593 Tb576 2.427 . S
O593 C592 1.275 . S
O594 Tb576 2.513 . S
O594 C592 1.246 . S
C595 O579 1.245 . S
C595 O580 1.259 . S
Tb596 O599 2.453 . S
Tb596 O600 2.596 . S
Tb596 O601 2.374 . S
Tb596 O609 2.343 . S
Tb596 O611 2.353 . S
Tb596 O613 2.427 . S
Tb596 O614 2.513 . S
C597 O601 1.251 . S
C597 O603 1.263 . S
Tb598 O600 2.343 . S
Tb598 O603 2.353 . S
Tb598 O606 2.427 . S
Tb598 O607 2.513 . S
Tb598 O608 2.453 . S
Tb598 O609 2.596 . S
Tb598 O610 2.374 . S
O599 Tb596 2.453 . S
O599 C615 1.245 . S
O600 Tb596 2.596 . S
O600 Tb598 2.343 . S
O600 C615 1.259 . S
O601 Tb596 2.374 . S
O601 C597 1.251 . S
C602 O606 1.275 . S
C602 O607 1.246 . S
O603 C597 1.263 . S
O603 Tb598 2.353 . S
C604 O608 1.245 . S
C604 O609 1.259 . S
C605 O610 1.250 . S
C605 O611 1.263 . S
O606 Tb598 2.427 . S
O606 C602 1.275 . S
O607 Tb598 2.513 . S
O607 C602 1.246 . S
O608 Tb598 2.453 . S
O608 C604 1.245 . S
O609 Tb596 2.343 . S
O609 Tb598 2.596 . S
O609 C604 1.259 . S
O610 Tb598 2.374 . S
O610 C605 1.250 . S
O611 Tb596 2.353 . S
O611 C605 1.263 . S
C612 O613 1.275 . S
C612 O614 1.246 . S
O613 Tb596 2.427 . S
O613 C612 1.275 . S
O614 Tb596 2.513 . S
O614 C612 1.246 . S
C615 O599 1.245 . S
C615 O600 1.259 . S
Tb616 O619 2.453 . S
Tb616 O620 2.596 . S
Tb616 O621 2.374 . S
Tb616 O629 2.343 . S
Tb616 O631 2.353 . S
Tb616 O633 2.427 . S
Tb616 O634 2.513 . S
C617 O621 1.251 . S
C617 O623 1.263 . S
Tb618 O620 2.343 . S
Tb618 O623 2.353 . S
Tb618 O626 2.427 . S
Tb618 O627 2.513 . S
Tb618 O628 2.453 . S
Tb618 O629 2.596 . S
Tb618 O630 2.374 . S
O619 Tb616 2.453 . S
O619 C635 1.245 . S
O620 Tb616 2.596 . S
O620 Tb618 2.343 . S
O620 C635 1.259 . S
O621 Tb616 2.374 . S
O621 C617 1.251 . S
C622 O626 1.275 . S
C622 O627 1.246 . S
O623 C617 1.263 . S
O623 Tb618 2.353 . S
C624 O628 1.245 . S
C624 O629 1.259 . S
C625 O630 1.250 . S
C625 O631 1.263 . S
O626 Tb618 2.427 . S
O626 C622 1.275 . S
O627 Tb618 2.513 . S
O627 C622 1.246 . S
O628 Tb618 2.453 . S
O628 C624 1.245 . S
O629 Tb616 2.343 . S
O629 Tb618 2.596 . S
O629 C624 1.259 . S
O630 Tb618 2.374 . S
O630 C625 1.250 . S
O631 Tb616 2.353 . S
O631 C625 1.263 . S
C632 O633 1.275 . S
C632 O634 1.246 . S
O633 Tb616 2.427 . S
O633 C632 1.275 . S
O634 Tb616 2.513 . S
O634 C632 1.246 . S
C635 O619 1.245 . S
C635 O620 1.259 . S
Tb636 O639 2.453 . S
Tb636 O640 2.621 . S
Tb636 O641 2.374 . S
Tb636 O649 2.343 . S
Tb636 O651 2.353 1_554 S
Tb636 O653 2.427 1_554 S
Tb636 O654 2.513 . S
C637 O641 1.251 . S
C637 O643 1.263 1_455 S
Tb638 O640 2.327 1_655 S
Tb638 O643 2.353 . S
Tb638 O646 2.427 . S
Tb638 O647 2.513 . S
Tb638 O648 2.453 1_554 S
Tb638 O649 2.596 1_655 S
Tb638 O650 2.374 1_554 S
O639 Tb636 2.453 . S
O639 C655 1.245 . S
O640 Tb636 2.621 . S
O640 Tb638 2.327 1_455 S
O640 C655 1.269 . S
O641 Tb636 2.374 . S
O641 C637 1.251 . S
C642 O646 1.275 . S
C642 O647 1.246 . S
O643 C637 1.263 1_655 S
O643 Tb638 2.353 . S
C644 O648 1.245 . S
C644 O649 1.259 1_656 S
C645 O650 1.250 . S
C645 O651 1.263 1_655 S
O646 Tb638 2.427 . S
O646 C642 1.275 . S
O647 Tb638 2.513 . S
O647 C642 1.246 . S
O648 Tb638 2.453 1_556 S
O648 C644 1.245 . S
O649 Tb636 2.343 . S
O649 Tb638 2.596 1_455 S
O649 C644 1.259 1_454 S
O650 Tb638 2.374 1_556 S
O650 C645 1.250 . S
O651 Tb636 2.353 1_556 S
O651 C645 1.263 1_455 S
C652 O653 1.275 . S
C652 O654 1.246 1_556 S
O653 Tb636 2.427 1_556 S
O653 C652 1.275 . S
O654 Tb636 2.513 . S
O654 C652 1.246 1_554 S
C655 O639 1.245 . S
C655 O640 1.269 . S
C656 C657 1.369 . S
C656 C658 1.419 . S
C656 H660 0.930 . S
C657 C656 1.369 . S
C657 C666 1.429 1_455 S
C658 C656 1.419 . S
C658 C659 1.363 . S
C658 H661 0.929 . S
C659 C658 1.363 . S
C659 C665 1.428 1_455 S
H660 C656 0.930 . S
H661 C658 0.929 . S
S662 N663 1.613 1_554 S
S662 N664 1.610 . S
N663 S662 1.613 1_556 S
N663 C666 1.350 . S
N664 S662 1.610 . S
N664 C665 1.351 1_554 S
C665 C659 1.428 1_655 S
C665 N664 1.351 1_556 S
C665 C666 1.434 . S
C666 C657 1.429 1_655 S
C666 N663 1.350 . S
C666 C665 1.434 . S
C667 C668 1.369 . S
C667 C669 1.419 . S
C667 H671 0.930 . S
C668 C667 1.369 . S
C668 C677 1.429 . S
C669 C667 1.419 . S
C669 C670 1.363 . S
C669 H672 0.929 . S
C670 C669 1.363 . S
C670 C676 1.428 . S
H671 C667 0.930 . S
H672 C669 0.929 . S
S673 N674 1.613 . S
S673 N675 1.610 . S
N674 S673 1.613 . S
N674 C677 1.350 . S
N675 S673 1.610 . S
N675 C676 1.351 . S
C676 C670 1.428 . S
C676 N675 1.351 . S
C676 C677 1.434 . S
C677 C668 1.429 . S
C677 N674 1.350 . S
C677 C676 1.434 . S
C678 C679 1.369 . S
C678 C680 1.419 . S
C678 H682 0.930 . S
C679 C678 1.369 . S
C679 C688 1.429 . S
C680 C678 1.419 . S
C680 C681 1.363 . S
C680 H683 0.929 . S
C681 C680 1.363 . S
C681 C687 1.428 . S
H682 C678 0.930 . S
H683 C680 0.929 . S
S684 N685 1.613 . S
S684 N686 1.610 . S
N685 S684 1.613 . S
N685 C688 1.350 . S
N686 S684 1.610 . S
N686 C687 1.351 . S
C687 C681 1.428 . S
C687 N686 1.351 . S
C687 C688 1.434 . S
C688 C679 1.429 . S
C688 N685 1.350 . S
C688 C687 1.434 . S
C689 C690 1.369 . S
C689 C691 1.419 . S
C689 H693 0.930 . S
C690 C689 1.369 . S
C690 C699 1.429 . S
C691 C689 1.419 . S
C691 C692 1.363 . S
C691 H694 0.929 . S
C692 C691 1.363 . S
C692 C698 1.428 . S
H693 C689 0.930 . S
H694 C691 0.929 . S
S695 N696 1.613 . S
S695 N697 1.610 . S
N696 S695 1.613 . S
N696 C699 1.350 . S
N697 S695 1.610 . S
N697 C698 1.351 . S
C698 C692 1.428 . S
C698 N697 1.351 . S
C698 C699 1.434 . S
C699 C690 1.429 . S
C699 N696 1.350 . S
C699 C698 1.434 . S
C700 C701 1.369 . S
C700 C702 1.419 . S
C700 H704 0.930 . S
C701 C700 1.369 . S
C701 C710 1.429 1_455 S
C702 C700 1.419 . S
C702 C703 1.363 . S
C702 H705 0.929 . S
C703 C702 1.363 . S
C703 C709 1.428 . S
H704 C700 0.930 . S
H705 C702 0.929 . S
S706 N707 1.613 . S
S706 N708 1.610 . S
N707 S706 1.613 . S
N707 C710 1.350 . S
N708 S706 1.610 . S
N708 C709 1.351 1_655 S
C709 C703 1.428 . S
C709 N708 1.351 1_455 S
C709 C710 1.434 1_455 S
C710 C701 1.429 1_655 S
C710 N707 1.350 . S
C710 C709 1.434 1_655 S
C711 C712 1.369 . S
C711 C713 1.419 . S
C711 H715 0.930 . S
C712 C711 1.369 . S
C712 C721 1.429 . S
C713 C711 1.419 . S
C713 C714 1.363 . S
C713 H716 0.929 . S
C714 C713 1.363 . S
C714 C720 1.428 . S
H715 C711 0.930 . S
H716 C713 0.929 . S
S717 N718 1.613 . S
S717 N719 1.610 . S
N718 S717 1.613 . S
N718 C721 1.350 . S
N719 S717 1.610 . S
N719 C720 1.351 . S
C720 C714 1.428 . S
C720 N719 1.351 . S
C720 C721 1.434 . S
C721 C712 1.429 . S
C721 N718 1.350 . S
C721 C720 1.434 . S
C722 C723 1.369 . S
C722 C724 1.419 . S
C722 H726 0.930 . S
C723 C722 1.369 . S
C723 C732 1.429 . S
C724 C722 1.419 . S
C724 C725 1.363 . S
C724 H727 0.929 . S
C725 C724 1.363 . S
C725 C731 1.428 . S
H726 C722 0.930 . S
H727 C724 0.929 . S
S728 N729 1.613 . S
S728 N730 1.610 . S
N729 S728 1.613 . S
N729 C732 1.350 . S
N730 S728 1.610 . S
N730 C731 1.351 . S
C731 C725 1.428 . S
C731 N730 1.351 . S
C731 C732 1.434 . S
C732 C723 1.429 . S
C732 N729 1.350 . S
C732 C731 1.434 . S
C733 C734 1.369 . S
C733 C735 1.419 . S
C733 H737 0.930 . S
C734 C733 1.369 . S
C734 C743 1.429 . S
C735 C733 1.419 . S
C735 C736 1.363 . S
C735 H738 0.929 . S
C736 C735 1.363 . S
C736 C742 1.428 . S
H737 C733 0.930 . S
H738 C735 0.929 . S
S739 N740 1.613 . S
S739 N741 1.610 . S
N740 S739 1.613 . S
N740 C743 1.350 . S
N741 S739 1.610 . S
N741 C742 1.351 . S
C742 C736 1.428 . S
C742 N741 1.351 . S
C742 C743 1.434 . S
C743 C734 1.429 . S
C743 N740 1.350 . S
C743 C742 1.434 . S
C744 C745 1.369 . S
C744 C746 1.419 . S
C744 H748 0.930 . S
C745 C744 1.369 . S
C745 C754 1.429 . S
C746 C744 1.419 . S
C746 C747 1.363 . S
C746 H749 0.929 1_655 S
C747 C746 1.363 . S
C747 C753 1.428 . S
H748 C744 0.930 . S
H749 C746 0.929 1_455 S
S750 N751 1.613 . S
S750 N752 1.610 . S
N751 S750 1.613 . S
N751 C754 1.350 . S
N752 S750 1.610 . S
N752 C753 1.351 . S
C753 C747 1.428 . S
C753 N752 1.351 . S
C753 C754 1.434 . S
C754 C745 1.429 . S
C754 N751 1.350 . S
C754 C753 1.434 . S
C755 C756 1.369 . S
C755 C757 1.419 . S
C755 H759 0.930 . S
C756 C755 1.369 . S
C756 C765 1.429 . S
C757 C755 1.419 . S
C757 C758 1.363 . S
C757 H760 0.929 . S
C758 C757 1.363 . S
C758 C764 1.428 . S
H759 C755 0.930 . S
H760 C757 0.929 . S
S761 N762 1.613 . S
S761 N763 1.610 . S
N762 S761 1.613 . S
N762 C765 1.350 . S
N763 S761 1.610 . S
N763 C764 1.351 . S
C764 C758 1.428 . S
C764 N763 1.351 . S
C764 C765 1.434 . S
C765 C756 1.429 . S
C765 N762 1.350 . S
C765 C764 1.434 . S
C766 C767 1.369 . S
C766 C768 1.419 . S
C766 H770 0.930 . S
C767 C766 1.369 . S
C767 C776 1.429 1_545 S
C768 C766 1.419 . S
C768 C769 1.363 . S
C768 H771 0.929 . S
C769 C768 1.363 . S
C769 C775 1.428 1_545 S
H770 C766 0.930 . S
H771 C768 0.929 . S
S772 N773 1.613 . S
S772 N774 1.610 . S
N773 S772 1.613 . S
N773 C776 1.350 . S
N774 S772 1.610 . S
N774 C775 1.351 . S
C775 C769 1.428 1_565 S
C775 N774 1.351 . S
C775 C776 1.434 . S
C776 C767 1.429 1_565 S
C776 N773 1.350 . S
C776 C775 1.434 . S
C777 C778 1.369 . S
C777 C779 1.419 . S
C777 H781 0.930 . S
C778 C777 1.369 . S
C778 C787 1.429 . S
C779 C777 1.419 . S
C779 C780 1.363 . S
C779 H782 0.929 . S
C780 C779 1.363 . S
C780 C786 1.428 . S
H781 C777 0.930 . S
H782 C779 0.929 . S
S783 N784 1.613 . S
S783 N785 1.610 . S
N784 S783 1.613 . S
N784 C787 1.350 . S
N785 S783 1.610 . S
N785 C786 1.351 . S
C786 C780 1.428 . S
C786 N785 1.351 . S
C786 C787 1.434 . S
C787 C778 1.429 . S
C787 N784 1.350 . S
C787 C786 1.434 . S
C788 C789 1.369 . S
C788 C790 1.419 . S
C788 H792 0.930 . S
C789 C788 1.369 . S
C789 C798 1.429 . S
C790 C788 1.419 . S
C790 C791 1.363 . S
C790 H793 0.929 . S
C791 C790 1.363 . S
C791 C797 1.428 . S
H792 C788 0.930 . S
H793 C790 0.929 . S
S794 N795 1.613 1_455 S
S794 N796 1.610 . S
N795 S794 1.613 1_655 S
N795 C798 1.350 . S
N796 S794 1.610 . S
N796 C797 1.351 1_455 S
C797 C791 1.428 . S
C797 N796 1.351 1_655 S
C797 C798 1.434 . S
C798 C789 1.429 . S
C798 N795 1.350 . S
C798 C797 1.434 . S
C799 C800 1.369 . S
C799 C801 1.419 . S
C799 H803 0.930 . S
C800 C799 1.369 . S
C800 C809 1.429 . S
C801 C799 1.419 . S
C801 C802 1.363 . S
C801 H804 0.929 . S
C802 C801 1.363 . S
C802 C808 1.428 . S
H803 C799 0.930 . S
H804 C801 0.929 . S
S805 N806 1.613 . S
S805 N807 1.610 . S
N806 S805 1.613 . S
N806 C809 1.350 . S
N807 S805 1.610 . S
N807 C808 1.351 . S
C808 C802 1.428 . S
C808 N807 1.351 . S
C808 C809 1.434 . S
C809 C800 1.429 . S
C809 N806 1.350 . S
C809 C808 1.434 . S
C810 C811 1.369 1_565 S
C810 C812 1.419 1_565 S
C810 H814 0.930 . S
C811 C810 1.369 1_545 S
C811 C820 1.429 . S
C812 C810 1.419 1_545 S
C812 C813 1.363 . S
C812 H815 0.929 1_545 S
C813 C812 1.363 . S
C813 C819 1.428 . S
H814 C810 0.930 . S
H815 C812 0.929 1_565 S
S816 N817 1.613 . S
S816 N818 1.610 . S
N817 S816 1.613 . S
N817 C820 1.350 . S
N818 S816 1.610 . S
N818 C819 1.351 . S
C819 C813 1.428 . S
C819 N818 1.351 . S
C819 C820 1.434 . S
C820 C811 1.429 . S
C820 N817 1.350 . S
C820 C819 1.434 . S
C821 C822 1.369 . S
C821 C823 1.419 . S
C821 H825 0.930 . S
C822 C821 1.369 . S
C822 C831 1.429 . S
C823 C821 1.419 . S
C823 C824 1.363 . S
C823 H826 0.929 . S
C824 C823 1.363 . S
C824 C830 1.428 . S
H825 C821 0.930 . S
H826 C823 0.929 . S
S827 N828 1.613 . S
S827 N829 1.610 . S
N828 S827 1.613 . S
N828 C831 1.350 . S
N829 S827 1.610 . S
N829 C830 1.351 . S
C830 C824 1.428 . S
C830 N829 1.351 . S
C830 C831 1.434 . S
C831 C822 1.429 . S
C831 N828 1.350 . S
C831 C830 1.434 . S
C832 C833 1.369 . S
C832 C834 1.419 . S
C832 H836 0.930 . S
C833 C832 1.369 . S
C833 C842 1.429 . S
C834 C832 1.419 . S
C834 C835 1.363 . S
C834 H837 0.929 . S
C835 C834 1.363 . S
C835 C841 1.428 1_565 S
H836 C832 0.930 . S
H837 C834 0.929 . S
S838 N839 1.613 . S
S838 N840 1.610 . S
N839 S838 1.613 . S
N839 C842 1.350 1_545 S
N840 S838 1.610 . S
N840 C841 1.351 . S
C841 C835 1.428 1_545 S
C841 N840 1.351 . S
C841 C842 1.434 1_545 S
C842 C833 1.429 . S
C842 N839 1.350 1_565 S
C842 C841 1.434 1_565 S
C843 C844 1.369 1_554 S
C843 C845 1.419 . S
C843 H847 0.930 . S
C844 C843 1.369 1_556 S
C844 C853 1.429 . S
C845 C843 1.419 . S
C845 C846 1.362 1_554 S
C845 H848 0.929 . S
C846 C845 1.362 1_556 S
C846 C852 1.432 . S
H847 C843 0.930 . S
H848 C845 0.929 . S
S849 N850 1.613 . S
S849 N851 1.610 . S
N850 S849 1.613 . S
N850 C853 1.350 . S
N851 S849 1.610 . S
N851 C852 1.351 . S
C852 C846 1.432 . S
C852 N851 1.351 . S
C852 C853 1.434 . S
C853 C844 1.429 . S
C853 N850 1.350 . S
C853 C852 1.434 . S
C854 C855 1.369 . S
C854 C856 1.419 . S
C854 H858 0.930 . S
C855 C854 1.369 . S
C855 C864 1.429 . S
C856 C854 1.419 . S
C856 C857 1.363 . S
C856 H859 0.929 . S
C857 C856 1.363 . S
C857 C863 1.428 . S
H858 C854 0.930 . S
H859 C856 0.929 . S
S860 N861 1.613 . S
S860 N862 1.610 . S
N861 S860 1.613 . S
N861 C864 1.350 . S
N862 S860 1.610 . S
N862 C863 1.351 . S
C863 C857 1.428 . S
C863 N862 1.351 . S
C863 C864 1.434 . S
C864 C855 1.429 . S
C864 N861 1.350 . S
C864 C863 1.434 . S
C865 C866 1.369 . S
C865 C867 1.419 . S
C865 H869 0.930 . S
C866 C865 1.369 . S
C866 C875 1.429 . S
C867 C865 1.419 . S
C867 C868 1.363 . S
C867 H870 0.929 . S
C868 C867 1.363 . S
C868 C874 1.428 . S
H869 C865 0.930 . S
H870 C867 0.929 . S
S871 N872 1.613 . S
S871 N873 1.610 . S
N872 S871 1.613 . S
N872 C875 1.350 . S
N873 S871 1.610 . S
N873 C874 1.351 . S
C874 C868 1.428 . S
C874 N873 1.351 . S
C874 C875 1.434 . S
C875 C866 1.429 . S
C875 N872 1.350 . S
C875 C874 1.434 . S
C876 C877 1.369 . S
C876 C878 1.419 . S
C876 H880 0.930 . S
C877 C876 1.369 . S
C877 C886 1.429 . S
C878 C876 1.419 . S
C878 C879 1.363 . S
C878 H881 0.929 . S
C879 C878 1.363 . S
C879 C885 1.428 . S
H880 C876 0.930 . S
H881 C878 0.929 . S
S882 N883 1.613 . S
S882 N884 1.610 . S
N883 S882 1.613 . S
N883 C886 1.350 . S
N884 S882 1.610 . S
N884 C885 1.351 . S
C885 C879 1.428 . S
C885 N884 1.351 . S
C885 C886 1.434 . S
C886 C877 1.429 . S
C886 N883 1.350 . S
C886 C885 1.434 . S
C887 C888 1.369 . S
C887 C889 1.419 . S
C887 H891 0.930 . S
C888 C887 1.369 . S
C888 C897 1.429 . S
C889 C887 1.419 . S
C889 C890 1.363 . S
C889 H892 0.929 . S
C890 C889 1.363 . S
C890 C896 1.428 . S
H891 C887 0.930 . S
H892 C889 0.929 . S
S893 N894 1.613 . S
S893 N895 1.610 . S
N894 S893 1.613 . S
N894 C897 1.350 . S
N895 S893 1.610 . S
N895 C896 1.351 . S
C896 C890 1.428 . S
C896 N895 1.351 . S
C896 C897 1.434 . S
C897 C888 1.429 . S
C897 N894 1.350 . S
C897 C896 1.434 . S
C898 C899 1.369 . S
C898 C900 1.419 . S
C898 H902 0.930 . S
C899 C898 1.369 . S
C899 C908 1.429 . S
C900 C898 1.419 . S
C900 C901 1.363 . S
C900 H903 0.929 . S
C901 C900 1.363 . S
C901 C907 1.428 . S
H902 C898 0.930 . S
H903 C900 0.929 . S
S904 N905 1.613 . S
S904 N906 1.610 . S
N905 S904 1.613 . S
N905 C908 1.350 . S
N906 S904 1.610 . S
N906 C907 1.351 . S
C907 C901 1.428 . S
C907 N906 1.351 . S
C907 C908 1.434 . S
C908 C899 1.429 . S
C908 N905 1.350 . S
C908 C907 1.434 . S
C909 C910 1.369 . S
C909 C911 1.419 . S
C909 H913 0.930 . S
C910 C909 1.369 . S
C910 C919 1.429 . S
C911 C909 1.419 . S
C911 C912 1.363 . S
C911 H914 0.929 . S
C912 C911 1.363 . S
C912 C918 1.428 . S
H913 C909 0.930 . S
H914 C911 0.929 . S
S915 N916 1.613 . S
S915 N917 1.610 . S
N916 S915 1.613 . S
N916 C919 1.350 . S
N917 S915 1.610 . S
N917 C918 1.351 . S
C918 C912 1.428 . S
C918 N917 1.351 . S
C918 C919 1.434 . S
C919 C910 1.429 . S
C919 N916 1.350 . S
C919 C918 1.434 . S
C920 C921 1.369 . S
C920 C922 1.419 . S
C920 H924 0.930 . S
C921 C920 1.369 . S
C921 C930 1.429 1_455 S
C922 C920 1.419 . S
C922 C923 1.363 . S
C922 H925 0.929 . S
C923 C922 1.363 . S
C923 C929 1.428 1_455 S
H924 C920 0.930 . S
H925 C922 0.929 . S
S926 N927 1.613 . S
S926 N928 1.610 . S
N927 S926 1.613 . S
N927 C930 1.350 . S
N928 S926 1.610 . S
N928 C929 1.351 . S
C929 C923 1.428 1_655 S
C929 N928 1.351 . S
C929 C930 1.434 . S
C930 C921 1.429 1_655 S
C930 N927 1.350 . S
C930 C929 1.434 . S
C931 C932 1.369 . S
C931 C933 1.419 . S
C931 H935 0.930 . S
C932 C931 1.369 . S
C932 C941 1.429 . S
C933 C931 1.419 . S
C933 C934 1.363 . S
C933 H936 0.929 . S
C934 C933 1.363 . S
C934 C940 1.428 . S
H935 C931 0.930 . S
H936 C933 0.929 . S
S937 N938 1.613 . S
S937 N939 1.610 . S
N938 S937 1.613 . S
N938 C941 1.350 . S
N939 S937 1.610 . S
N939 C940 1.351 . S
C940 C934 1.428 . S
C940 N939 1.351 . S
C940 C941 1.434 . S
C941 C932 1.429 . S
C941 N938 1.350 . S
C941 C940 1.434 . S
C942 C943 1.369 . S
C942 C944 1.419 . S
C942 H946 0.930 . S
C943 C942 1.369 . S
C943 C952 1.429 . S
C944 C942 1.419 . S
C944 C945 1.363 . S
C944 H947 0.929 . S
C945 C944 1.363 . S
C945 C951 1.428 . S
H946 C942 0.930 . S
H947 C944 0.929 . S
S948 N949 1.613 . S
S948 N950 1.610 . S
N949 S948 1.613 . S
N949 C952 1.350 . S
N950 S948 1.610 . S
N950 C951 1.351 . S
C951 C945 1.428 . S
C951 N950 1.351 . S
C951 C952 1.434 . S
C952 C943 1.429 . S
C952 N949 1.350 . S
C952 C951 1.434 . S
C953 C954 1.369 . S
C953 C955 1.419 . S
C953 H957 0.930 . S
C954 C953 1.369 . S
C954 C963 1.429 . S
C955 C953 1.419 . S
C955 C956 1.363 . S
C955 H958 0.929 . S
C956 C955 1.363 . S
C956 C962 1.428 . S
H957 C953 0.930 . S
H958 C955 0.929 . S
S959 N960 1.613 . S
S959 N961 1.610 . S
N960 S959 1.613 . S
N960 C963 1.350 . S
N961 S959 1.610 . S
N961 C962 1.351 . S
C962 C956 1.428 . S
C962 N961 1.351 . S
C962 C963 1.434 . S
C963 C954 1.429 . S
C963 N960 1.350 . S
C963 C962 1.434 . S
C964 C965 1.369 1_655 S
C964 C966 1.419 . S
C964 H968 0.930 . S
C965 C964 1.369 1_455 S
C965 C974 1.429 . S
C966 C964 1.419 . S
C966 C967 1.363 1_655 S
C966 H969 0.929 . S
C967 C966 1.363 1_455 S
C967 C973 1.428 . S
H968 C964 0.930 . S
H969 C966 0.929 . S
S970 N971 1.613 . S
S970 N972 1.610 . S
N971 S970 1.613 . S
N971 C974 1.350 . S
N972 S970 1.610 . S
N972 C973 1.351 . S
C973 C967 1.428 . S
C973 N972 1.351 . S
C973 C974 1.434 . S
C974 C965 1.429 . S
C974 N971 1.350 . S
C974 C973 1.434 . S
C975 C976 1.369 . S
C975 C977 1.419 . S
C975 H979 0.930 . S
C976 C975 1.369 . S
C976 C985 1.429 . S
C977 C975 1.419 . S
C977 C978 1.363 . S
C977 H980 0.929 . S
C978 C977 1.363 . S
C978 C984 1.428 . S
H979 C975 0.930 . S
H980 C977 0.929 . S
S981 N982 1.613 . S
S981 N983 1.610 . S
N982 S981 1.613 . S
N982 C985 1.350 . S
N983 S981 1.610 . S
N983 C984 1.351 . S
C984 C978 1.428 . S
C984 N983 1.351 . S
C984 C985 1.434 . S
C985 C976 1.429 . S
C985 N982 1.350 . S
C985 C984 1.434 . S
C986 C987 1.369 . S
C986 C988 1.419 . S
C986 H990 0.930 . S
C987 C986 1.369 . S
C987 C996 1.429 . S
C988 C986 1.419 . S
C988 C989 1.363 . S
C988 H991 0.929 . S
C989 C988 1.363 . S
C989 C995 1.428 . S
H990 C986 0.930 . S
H991 C988 0.929 . S
S992 N993 1.613 . S
S992 N994 1.610 . S
N993 S992 1.613 . S
N993 C996 1.350 1_554 S
N994 S992 1.610 . S
N994 C995 1.351 1_554 S
C995 C989 1.428 . S
C995 N994 1.351 1_556 S
C995 C996 1.434 . S
C996 C987 1.429 . S
C996 N993 1.350 1_556 S
C996 C995 1.434 . S
C997 C998 1.369 . S
C997 C999 1.419 . S
C997 H1001 0.930 . S
C998 C997 1.369 . S
C998 C1007 1.429 . S
C999 C997 1.419 . S
C999 C1000 1.363 . S
C999 H1002 0.929 . S
C1000 C999 1.363 . S
C1000 C1006 1.428 . S
H1001 C997 0.930 . S
H1002 C999 0.929 . S
S1003 N1004 1.613 . S
S1003 N1005 1.610 . S
N1004 S1003 1.613 . S
N1004 C1007 1.350 . S
N1005 S1003 1.610 . S
N1005 C1006 1.351 . S
C1006 C1000 1.428 . S
C1006 N1005 1.351 . S
C1006 C1007 1.434 . S
C1007 C998 1.429 . S
C1007 N1004 1.350 . S
C1007 C1006 1.434 . S
C1008 C1009 1.369 . S
C1008 C1010 1.419 . S
C1008 H1012 0.930 . S
C1009 C1008 1.369 . S
C1009 C1018 1.429 1_545 S
C1010 C1008 1.419 . S
C1010 C1011 1.363 1_545 S
C1010 H1013 0.929 . S
C1011 C1010 1.363 1_565 S
C1011 C1017 1.428 . S
H1012 C1008 0.930 . S
H1013 C1010 0.929 . S
S1014 N1015 1.613 . S
S1014 N1016 1.610 . S
N1015 S1014 1.613 . S
N1015 C1018 1.350 . S
N1016 S1014 1.610 . S
N1016 C1017 1.351 . S
C1017 C1011 1.428 . S
C1017 N1016 1.351 . S
C1017 C1018 1.434 . S
C1018 C1009 1.429 1_565 S
C1018 N1015 1.350 . S
C1018 C1017 1.434 . S
C1019 C1020 1.369 . S
C1019 C1021 1.419 . S
C1019 H1023 0.930 . S
C1020 C1019 1.369 . S
C1020 C1029 1.429 . S
C1021 C1019 1.419 . S
C1021 C1022 1.363 . S
C1021 H1024 0.929 . S
C1022 C1021 1.363 . S
C1022 C1028 1.428 . S
H1023 C1019 0.930 . S
H1024 C1021 0.929 . S
S1025 N1026 1.613 . S
S1025 N1027 1.610 . S
N1026 S1025 1.613 . S
N1026 C1029 1.350 . S
N1027 S1025 1.610 . S
N1027 C1028 1.351 . S
C1028 C1022 1.428 . S
C1028 N1027 1.351 . S
C1028 C1029 1.434 . S
C1029 C1020 1.429 . S
C1029 N1026 1.350 . S
C1029 C1028 1.434 . S
C1030 C1031 1.369 . S
C1030 C1032 1.419 . S
C1030 H1034 0.930 . S
C1031 C1030 1.369 . S
C1031 C1040 1.429 . S
C1032 C1030 1.419 . S
C1032 C1033 1.363 . S
C1032 H1035 0.929 1_545 S
C1033 C1032 1.363 . S
C1033 C1039 1.428 . S
H1034 C1030 0.930 . S
H1035 C1032 0.929 1_565 S
S1036 N1037 1.613 . S
S1036 N1038 1.610 . S
N1037 S1036 1.613 . S
N1037 C1040 1.350 . S
N1038 S1036 1.610 . S
N1038 C1039 1.351 . S
C1039 C1033 1.428 . S
C1039 N1038 1.351 . S
C1039 C1040 1.434 . S
C1040 C1031 1.429 . S
C1040 N1037 1.350 . S
C1040 C1039 1.434 . S
C1041 C1042 1.369 . S
C1041 C1043 1.419 . S
C1041 H1045 0.930 . S
C1042 C1041 1.369 . S
C1042 C1051 1.429 . S
C1043 C1041 1.419 . S
C1043 C1044 1.363 . S
C1043 H1046 0.929 . S
C1044 C1043 1.363 . S
C1044 C1050 1.428 . S
H1045 C1041 0.930 . S
H1046 C1043 0.929 . S
S1047 N1048 1.613 . S
S1047 N1049 1.610 . S
N1048 S1047 1.613 . S
N1048 C1051 1.350 . S
N1049 S1047 1.610 . S
N1049 C1050 1.351 . S
C1050 C1044 1.428 . S
C1050 N1049 1.351 . S
C1050 C1051 1.434 . S
C1051 C1042 1.429 . S
C1051 N1048 1.350 . S
C1051 C1050 1.434 . S
C1052 C1053 1.369 1_545 S
C1052 C1054 1.419 . S
C1052 H1056 0.930 . S
C1053 C1052 1.369 1_565 S
C1053 C1062 1.429 . S
C1054 C1052 1.419 . S
C1054 C1055 1.363 . S
C1054 H1057 0.929 . S
C1055 C1054 1.363 . S
C1055 C1061 1.428 1_545 S
H1056 C1052 0.930 . S
H1057 C1054 0.929 . S
S1058 N1059 1.613 . S
S1058 N1060 1.610 . S
N1059 S1058 1.613 . S
N1059 C1062 1.350 . S
N1060 S1058 1.610 . S
N1060 C1061 1.351 . S
C1061 C1055 1.428 1_565 S
C1061 N1060 1.351 . S
C1061 C1062 1.434 . S
C1062 C1053 1.429 . S
C1062 N1059 1.350 . S
C1062 C1061 1.434 . S
C1063 C1064 1.369 . S
C1063 C1065 1.419 . S
C1063 H1067 0.930 . S
C1064 C1063 1.369 . S
C1064 C1073 1.429 . S
C1065 C1063 1.419 . S
C1065 C1066 1.363 . S
C1065 H1068 0.929 . S
C1066 C1065 1.363 . S
C1066 C1072 1.428 . S
H1067 C1063 0.930 . S
H1068 C1065 0.929 . S
S1069 N1070 1.613 . S
S1069 N1071 1.610 . S
N1070 S1069 1.613 . S
N1070 C1073 1.350 . S
N1071 S1069 1.610 . S
N1071 C1072 1.351 . S
C1072 C1066 1.428 . S
C1072 N1071 1.351 . S
C1072 C1073 1.434 . S
C1073 C1064 1.429 . S
C1073 N1070 1.350 . S
C1073 C1072 1.434 . S
C1074 C1075 1.369 . S
C1074 C1076 1.419 . S
C1074 H1078 0.930 . S
C1075 C1074 1.369 . S
C1075 C1084 1.429 . S
C1076 C1074 1.419 . S
C1076 C1077 1.363 . S
C1076 H1079 0.929 1_545 S
C1077 C1076 1.363 . S
C1077 C1083 1.428 . S
H1078 C1074 0.930 . S
H1079 C1076 0.929 1_565 S
S1080 N1081 1.613 . S
S1080 N1082 1.610 . S
N1081 S1080 1.613 . S
N1081 C1084 1.350 . S
N1082 S1080 1.610 . S
N1082 C1083 1.351 . S
C1083 C1077 1.428 . S
C1083 N1082 1.351 . S
C1083 C1084 1.434 . S
C1084 C1075 1.429 . S
C1084 N1081 1.350 . S
C1084 C1083 1.434 . S
C1085 C1086 1.369 . S
C1085 C1087 1.419 . S
C1085 H1089 0.930 . S
C1086 C1085 1.369 . S
C1086 C1095 1.429 . S
C1087 C1085 1.419 . S
C1087 C1088 1.363 . S
C1087 H1090 0.929 . S
C1088 C1087 1.363 . S
C1088 C1094 1.428 . S
H1089 C1085 0.930 . S
H1090 C1087 0.929 . S
S1091 N1092 1.613 . S
S1091 N1093 1.610 . S
N1092 S1091 1.613 . S
N1092 C1095 1.350 . S
N1093 S1091 1.610 . S
N1093 C1094 1.351 . S
C1094 C1088 1.428 . S
C1094 N1093 1.351 . S
C1094 C1095 1.434 . S
C1095 C1086 1.429 . S
C1095 N1092 1.350 . S
C1095 C1094 1.434 . S
C1096 C1097 1.369 . S
C1096 C1098 1.419 . S
C1096 H1100 0.930 . S
C1097 C1096 1.369 . S
C1097 C1106 1.429 1_554 S
C1098 C1096 1.419 . S
C1098 C1099 1.363 1_554 S
C1098 H1101 0.929 . S
C1099 C1098 1.363 1_556 S
C1099 C1105 1.428 . S
H1100 C1096 0.930 . S
H1101 C1098 0.929 . S
S1102 N1103 1.613 . S
S1102 N1104 1.610 . S
N1103 S1102 1.613 . S
N1103 C1106 1.350 . S
N1104 S1102 1.610 . S
N1104 C1105 1.351 . S
C1105 C1099 1.428 . S
C1105 N1104 1.351 . S
C1105 C1106 1.434 . S
C1106 C1097 1.429 1_556 S
C1106 N1103 1.350 . S
C1106 C1105 1.434 . S
C1107 C1108 1.369 . S
C1107 C1109 1.419 . S
C1107 H1111 0.930 . S
C1108 C1107 1.369 . S
C1108 C1117 1.429 . S
C1109 C1107 1.419 . S
C1109 C1110 1.363 . S
C1109 H1112 0.929 . S
C1110 C1109 1.363 . S
C1110 C1116 1.428 . S
H1111 C1107 0.930 . S
H1112 C1109 0.929 . S
S1113 N1114 1.613 . S
S1113 N1115 1.610 . S
N1114 S1113 1.613 . S
N1114 C1117 1.350 . S
N1115 S1113 1.610 . S
N1115 C1116 1.351 . S
C1116 C1110 1.428 . S
C1116 N1115 1.351 . S
C1116 C1117 1.434 . S
C1117 C1108 1.429 . S
C1117 N1114 1.350 . S
C1117 C1116 1.434 . S
C1118 C1119 1.369 . S
C1118 C1120 1.419 . S
C1118 H1122 0.930 . S
C1119 C1118 1.369 . S
C1119 C1128 1.429 . S
C1120 C1118 1.419 . S
C1120 C1121 1.363 . S
C1120 H1123 0.929 . S
C1121 C1120 1.363 . S
C1121 C1127 1.428 . S
H1122 C1118 0.930 . S
H1123 C1120 0.929 . S
S1124 N1125 1.613 . S
S1124 N1126 1.610 . S
N1125 S1124 1.613 . S
N1125 C1128 1.350 . S
N1126 S1124 1.610 . S
N1126 C1127 1.351 . S
C1127 C1121 1.428 . S
C1127 N1126 1.351 . S
C1127 C1128 1.434 . S
C1128 C1119 1.429 . S
C1128 N1125 1.350 . S
C1128 C1127 1.434 . S
C1129 C1130 1.369 . S
C1129 C1131 1.419 . S
C1129 H1133 0.930 . S
C1130 C1129 1.369 . S
C1130 C1139 1.429 . S
C1131 C1129 1.419 . S
C1131 C1132 1.363 . S
C1131 H1134 0.929 . S
C1132 C1131 1.363 . S
C1132 C1138 1.428 . S
H1133 C1129 0.930 . S
H1134 C1131 0.929 . S
S1135 N1136 1.613 . S
S1135 N1137 1.610 . S
N1136 S1135 1.613 . S
N1136 C1139 1.350 . S
N1137 S1135 1.610 . S
N1137 C1138 1.351 . S
C1138 C1132 1.428 . S
C1138 N1137 1.351 . S
C1138 C1139 1.434 . S
C1139 C1130 1.429 . S
C1139 N1136 1.350 . S
C1139 C1138 1.434 . S
C1140 C1141 1.369 . S
C1140 C1142 1.419 . S
C1140 H1144 0.930 . S
C1141 C1140 1.369 . S
C1141 C1150 1.429 . S
C1142 C1140 1.419 . S
C1142 C1143 1.363 . S
C1142 H1145 0.929 . S
C1143 C1142 1.363 . S
C1143 C1149 1.428 . S
H1144 C1140 0.930 . S
H1145 C1142 0.929 . S
S1146 N1147 1.613 . S
S1146 N1148 1.610 . S
N1147 S1146 1.613 . S
N1147 C1150 1.350 . S
N1148 S1146 1.610 . S
N1148 C1149 1.351 . S
C1149 C1143 1.428 . S
C1149 N1148 1.351 . S
C1149 C1150 1.434 . S
C1150 C1141 1.429 . S
C1150 N1147 1.350 . S
C1150 C1149 1.434 . S
C1151 C1152 1.369 . S
C1151 C1153 1.419 . S
C1151 H1155 0.930 . S
C1152 C1151 1.369 . S
C1152 C1161 1.429 . S
C1153 C1151 1.419 . S
C1153 C1154 1.363 . S
C1153 H1156 0.929 . S
C1154 C1153 1.363 . S
C1154 C1160 1.428 . S
H1155 C1151 0.930 . S
H1156 C1153 0.929 . S
S1157 N1158 1.613 . S
S1157 N1159 1.610 . S
N1158 S1157 1.613 . S
N1158 C1161 1.350 . S
N1159 S1157 1.610 . S
N1159 C1160 1.351 . S
C1160 C1154 1.428 . S
C1160 N1159 1.351 . S
C1160 C1161 1.434 . S
C1161 C1152 1.429 . S
C1161 N1158 1.350 . S
C1161 C1160 1.434 . S
C1162 C1163 1.369 . S
C1162 C1164 1.419 . S
C1162 H1166 0.930 . S
C1163 C1162 1.369 . S
C1163 C1172 1.429 . S
C1164 C1162 1.419 . S
C1164 C1165 1.363 . S
C1164 H1167 0.929 . S
C1165 C1164 1.363 . S
C1165 C1171 1.428 . S
H1166 C1162 0.930 . S
H1167 C1164 0.929 . S
S1168 N1169 1.613 . S
S1168 N1170 1.610 . S
N1169 S1168 1.613 . S
N1169 C1172 1.350 . S
N1170 S1168 1.610 . S
N1170 C1171 1.351 . S
C1171 C1165 1.428 . S
C1171 N1170 1.351 . S
C1171 C1172 1.434 . S
C1172 C1163 1.429 . S
C1172 N1169 1.350 . S
C1172 C1171 1.434 . S
C1173 C1174 1.369 . S
C1173 C1175 1.419 . S
C1173 H1177 0.930 . S
C1174 C1173 1.369 . S
C1174 C1183 1.429 . S
C1175 C1173 1.419 . S
C1175 C1176 1.363 . S
C1175 H1178 0.929 . S
C1176 C1175 1.363 . S
C1176 C1182 1.428 . S
H1177 C1173 0.930 . S
H1178 C1175 0.929 . S
S1179 N1180 1.613 . S
S1179 N1181 1.610 . S
N1180 S1179 1.613 . S
N1180 C1183 1.350 . S
N1181 S1179 1.610 . S
N1181 C1182 1.351 . S
C1182 C1176 1.428 . S
C1182 N1181 1.351 . S
C1182 C1183 1.434 . S
C1183 C1174 1.429 . S
C1183 N1180 1.350 . S
C1183 C1182 1.434 . S
C1184 C1185 1.369 . S
C1184 C1186 1.419 . S
C1184 H1188 0.930 . S
C1185 C1184 1.369 . S
C1185 C1194 1.429 . S
C1186 C1184 1.419 . S
C1186 C1187 1.363 . S
C1186 H1189 0.929 . S
C1187 C1186 1.363 . S
C1187 C1193 1.428 . S
H1188 C1184 0.930 . S
H1189 C1186 0.929 . S
S1190 N1191 1.613 . S
S1190 N1192 1.610 . S
N1191 S1190 1.613 . S
N1191 C1194 1.350 . S
N1192 S1190 1.610 . S
N1192 C1193 1.351 . S
C1193 C1187 1.428 . S
C1193 N1192 1.351 . S
C1193 C1194 1.434 . S
C1194 C1185 1.429 . S
C1194 N1191 1.350 . S
C1194 C1193 1.434 . S
C1195 C1196 1.369 . S
C1195 C1197 1.419 . S
C1195 H1199 0.930 . S
C1196 C1195 1.369 . S
C1196 C1205 1.429 . S
C1197 C1195 1.419 . S
C1197 C1198 1.363 . S
C1197 H1200 0.929 . S
C1198 C1197 1.363 . S
C1198 C1204 1.428 . S
H1199 C1195 0.930 . S
H1200 C1197 0.929 . S
S1201 N1202 1.613 . S
S1201 N1203 1.610 . S
N1202 S1201 1.613 . S
N1202 C1205 1.350 . S
N1203 S1201 1.610 . S
N1203 C1204 1.351 . S
C1204 C1198 1.428 . S
C1204 N1203 1.351 . S
C1204 C1205 1.434 . S
C1205 C1196 1.429 . S
C1205 N1202 1.350 . S
C1205 C1204 1.434 . S
C1206 C1207 1.369 . S
C1206 C1208 1.419 . S
C1206 H1210 0.930 . S
C1207 C1206 1.369 . S
C1207 C1216 1.429 . S
C1208 C1206 1.419 . S
C1208 C1209 1.363 . S
C1208 H1211 0.929 1_455 S
C1209 C1208 1.363 . S
C1209 C1215 1.428 . S
H1210 C1206 0.930 . S
H1211 C1208 0.929 1_655 S
S1212 N1213 1.613 1_554 S
S1212 N1214 1.610 . S
N1213 S1212 1.613 1_556 S
N1213 C1216 1.350 . S
N1214 S1212 1.610 . S
N1214 C1215 1.351 1_554 S
C1215 C1209 1.428 . S
C1215 N1214 1.351 1_556 S
C1215 C1216 1.434 . S
C1216 C1207 1.429 . S
C1216 N1213 1.350 . S
C1216 C1215 1.434 . S
C1217 C1218 1.369 . S
C1217 C1219 1.419 . S
C1217 H1221 0.930 . S
C1218 C1217 1.369 . S
C1218 C1227 1.429 . S
C1219 C1217 1.419 . S
C1219 C1220 1.363 . S
C1219 H1222 0.929 . S
C1220 C1219 1.363 . S
C1220 C1226 1.428 . S
H1221 C1217 0.930 . S
H1222 C1219 0.929 . S
S1223 N1224 1.613 . S
S1223 N1225 1.610 . S
N1224 S1223 1.613 . S
N1224 C1227 1.350 . S
N1225 S1223 1.610 . S
N1225 C1226 1.351 . S
C1226 C1220 1.428 . S
C1226 N1225 1.351 . S
C1226 C1227 1.434 . S
C1227 C1218 1.429 . S
C1227 N1224 1.350 . S
C1227 C1226 1.434 . S
C1228 C1229 1.369 . S
C1228 C1230 1.419 . S
C1228 H1232 0.930 . S
C1229 C1228 1.369 . S
C1229 C1238 1.429 . S
C1230 C1228 1.419 . S
C1230 C1231 1.363 . S
C1230 H1233 0.929 . S
C1231 C1230 1.363 . S
C1231 C1237 1.428 . S
H1232 C1228 0.930 . S
H1233 C1230 0.929 . S
S1234 N1235 1.613 . S
S1234 N1236 1.610 . S
N1235 S1234 1.613 . S
N1235 C1238 1.350 . S
N1236 S1234 1.610 . S
N1236 C1237 1.351 . S
C1237 C1231 1.428 . S
C1237 N1236 1.351 . S
C1237 C1238 1.434 . S
C1238 C1229 1.429 . S
C1238 N1235 1.350 . S
C1238 C1237 1.434 . S
C1239 C1240 1.369 . S
C1239 C1241 1.419 . S
C1239 H1243 0.930 . S
C1240 C1239 1.369 . S
C1240 C1249 1.429 . S
C1241 C1239 1.419 . S
C1241 C1242 1.363 . S
C1241 H1244 0.929 . S
C1242 C1241 1.363 . S
C1242 C1248 1.428 . S
H1243 C1239 0.930 . S
H1244 C1241 0.929 . S
S1245 N1246 1.613 . S
S1245 N1247 1.610 . S
N1246 S1245 1.613 . S
N1246 C1249 1.350 . S
N1247 S1245 1.610 . S
N1247 C1248 1.351 . S
C1248 C1242 1.428 . S
C1248 N1247 1.351 . S
C1248 C1249 1.434 . S
C1249 C1240 1.429 . S
C1249 N1246 1.350 . S
C1249 C1248 1.434 . S
C1250 C1251 1.369 1_455 S
C1250 C1252 1.419 . S
C1250 H1254 0.930 . S
C1251 C1250 1.369 1_655 S
C1251 C1260 1.429 . S
C1252 C1250 1.419 . S
C1252 C1253 1.363 1_455 S
C1252 H1255 0.929 . S
C1253 C1252 1.363 1_655 S
C1253 C1259 1.428 . S
H1254 C1250 0.930 . S
H1255 C1252 0.929 . S
S1256 N1257 1.613 . S
S1256 N1258 1.610 . S
N1257 S1256 1.613 . S
N1257 C1260 1.350 . S
N1258 S1256 1.610 . S
N1258 C1259 1.351 . S
C1259 C1253 1.428 . S
C1259 N1258 1.351 . S
C1259 C1260 1.434 . S
C1260 C1251 1.429 . S
C1260 N1257 1.350 . S
C1260 C1259 1.434 . S
C1261 C1262 1.369 . S
C1261 C1263 1.419 . S
C1261 H1265 0.930 . S
C1262 C1261 1.369 . S
C1262 C1271 1.429 . S
C1263 C1261 1.419 . S
C1263 C1264 1.363 . S
C1263 H1266 0.929 . S
C1264 C1263 1.363 . S
C1264 C1270 1.428 . S
H1265 C1261 0.930 . S
H1266 C1263 0.929 . S
S1267 N1268 1.613 . S
S1267 N1269 1.610 . S
N1268 S1267 1.613 . S
N1268 C1271 1.350 . S
N1269 S1267 1.610 . S
N1269 C1270 1.351 . S
C1270 C1264 1.428 . S
C1270 N1269 1.351 . S
C1270 C1271 1.434 . S
C1271 C1262 1.429 . S
C1271 N1268 1.350 . S
C1271 C1270 1.434 . S
C1272 C1273 1.369 . S
C1272 C1274 1.419 . S
C1272 H1276 0.930 . S
C1273 C1272 1.369 . S
C1273 C1282 1.429 . S
C1274 C1272 1.419 . S
C1274 C1275 1.363 . S
C1274 H1277 0.929 . S
C1275 C1274 1.363 . S
C1275 C1281 1.428 . S
H1276 C1272 0.930 . S
H1277 C1274 0.929 . S
S1278 N1279 1.613 . S
S1278 N1280 1.610 . S
N1279 S1278 1.613 . S
N1279 C1282 1.350 . S
N1280 S1278 1.610 . S
N1280 C1281 1.351 . S
C1281 C1275 1.428 . S
C1281 N1280 1.351 . S
C1281 C1282 1.434 . S
C1282 C1273 1.429 . S
C1282 N1279 1.350 . S
C1282 C1281 1.434 . S
C1283 C1284 1.369 . S
C1283 C1285 1.419 . S
C1283 H1287 0.930 . S
C1284 C1283 1.369 . S
C1284 C1293 1.429 . S
C1285 C1283 1.419 . S
C1285 C1286 1.363 . S
C1285 H1288 0.929 . S
C1286 C1285 1.363 . S
C1286 C1292 1.428 . S
H1287 C1283 0.930 . S
H1288 C1285 0.929 . S
S1289 N1290 1.613 . S
S1289 N1291 1.610 . S
N1290 S1289 1.613 . S
N1290 C1293 1.350 . S
N1291 S1289 1.610 . S
N1291 C1292 1.351 . S
C1292 C1286 1.428 . S
C1292 N1291 1.351 . S
C1292 C1293 1.434 . S
C1293 C1284 1.429 . S
C1293 N1290 1.350 . S
C1293 C1292 1.434 . S
C1294 C1295 1.369 . S
C1294 C1296 1.419 . S
C1294 H1298 0.930 . S
C1295 C1294 1.369 . S
C1295 C1304 1.429 . S
C1296 C1294 1.419 . S
C1296 C1297 1.363 . S
C1296 H1299 0.929 . S
C1297 C1296 1.363 . S
C1297 C1303 1.428 . S
H1298 C1294 0.930 . S
H1299 C1296 0.929 . S
S1300 N1301 1.613 . S
S1300 N1302 1.610 . S
N1301 S1300 1.613 . S
N1301 C1304 1.350 . S
N1302 S1300 1.610 . S
N1302 C1303 1.351 . S
C1303 C1297 1.428 . S
C1303 N1302 1.351 . S
C1303 C1304 1.434 . S
C1304 C1295 1.429 . S
C1304 N1301 1.350 . S
C1304 C1303 1.434 . S
C1305 C1306 1.369 . S
C1305 C1307 1.419 . S
C1305 H1309 0.930 . S
C1306 C1305 1.369 . S
C1306 C1315 1.429 . S
C1307 C1305 1.419 . S
C1307 C1308 1.363 . S
C1307 H1310 0.929 . S
C1308 C1307 1.363 . S
C1308 C1314 1.428 . S
H1309 C1305 0.930 . S
H1310 C1307 0.929 . S
S1311 N1312 1.613 . S
S1311 N1313 1.610 . S
N1312 S1311 1.613 . S
N1312 C1315 1.350 . S
N1313 S1311 1.610 . S
N1313 C1314 1.351 . S
C1314 C1308 1.428 . S
C1314 N1313 1.351 . S
C1314 C1315 1.434 . S
C1315 C1306 1.429 . S
C1315 N1312 1.350 . S
C1315 C1314 1.434 . S
C1316 C1317 1.369 . S
C1316 C1318 1.419 . S
C1316 H1320 0.930 . S
C1317 C1316 1.369 . S
C1317 C1326 1.429 . S
C1318 C1316 1.419 . S
C1318 C1319 1.363 . S
C1318 H1321 0.929 . S
C1319 C1318 1.363 . S
C1319 C1325 1.428 . S
H1320 C1316 0.930 . S
H1321 C1318 0.929 . S
S1322 N1323 1.613 . S
S1322 N1324 1.610 . S
N1323 S1322 1.613 . S
N1323 C1326 1.350 . S
N1324 S1322 1.610 . S
N1324 C1325 1.351 . S
C1325 C1319 1.428 . S
C1325 N1324 1.351 . S
C1325 C1326 1.434 . S
C1326 C1317 1.429 . S
C1326 N1323 1.350 . S
C1326 C1325 1.434 . S
C1327 C1328 1.369 . S
C1327 C1329 1.419 . S
C1327 H1331 0.930 . S
C1328 C1327 1.369 . S
C1328 C1337 1.429 . S
C1329 C1327 1.419 . S
C1329 C1330 1.363 . S
C1329 H1332 0.929 . S
C1330 C1329 1.363 . S
C1330 C1336 1.428 . S
H1331 C1327 0.930 . S
H1332 C1329 0.929 . S
S1333 N1334 1.613 . S
S1333 N1335 1.610 . S
N1334 S1333 1.613 . S
N1334 C1337 1.350 . S
N1335 S1333 1.610 . S
N1335 C1336 1.351 . S
C1336 C1330 1.428 . S
C1336 N1335 1.351 . S
C1336 C1337 1.434 . S
C1337 C1328 1.429 . S
C1337 N1334 1.350 . S
C1337 C1336 1.434 . S
C1338 C1339 1.369 . S
C1338 C1340 1.419 . S
C1338 H1342 0.930 . S
C1339 C1338 1.369 . S
C1339 C1348 1.429 . S
C1340 C1338 1.419 . S
C1340 C1341 1.363 . S
C1340 H1343 0.929 . S
C1341 C1340 1.363 . S
C1341 C1347 1.428 . S
H1342 C1338 0.930 . S
H1343 C1340 0.929 . S
S1344 N1345 1.613 . S
S1344 N1346 1.610 . S
N1345 S1344 1.613 . S
N1345 C1348 1.350 . S
N1346 S1344 1.610 . S
N1346 C1347 1.351 . S
C1347 C1341 1.428 . S
C1347 N1346 1.351 . S
C1347 C1348 1.434 . S
C1348 C1339 1.429 . S
C1348 N1345 1.350 . S
C1348 C1347 1.434 . S
C1349 C1350 1.369 . S
C1349 C1351 1.419 . S
C1349 H1353 0.930 . S
C1350 C1349 1.369 . S
C1350 C1359 1.429 . S
C1351 C1349 1.419 . S
C1351 C1352 1.363 . S
C1351 H1354 0.929 . S
C1352 C1351 1.363 . S
C1352 C1358 1.428 . S
H1353 C1349 0.930 . S
H1354 C1351 0.929 . S
S1355 N1356 1.613 . S
S1355 N1357 1.610 . S
N1356 S1355 1.613 . S
N1356 C1359 1.350 . S
N1357 S1355 1.610 . S
N1357 C1358 1.351 . S
C1358 C1352 1.428 . S
C1358 N1357 1.351 . S
C1358 C1359 1.434 . S
C1359 C1350 1.429 . S
C1359 N1356 1.350 . S
C1359 C1358 1.434 . S
C1360 C1361 1.369 . S
C1360 C1362 1.419 . S
C1360 H1364 0.930 . S
C1361 C1360 1.369 . S
C1361 C1370 1.429 . S
C1362 C1360 1.419 . S
C1362 C1363 1.363 . S
C1362 H1365 0.929 . S
C1363 C1362 1.363 . S
C1363 C1369 1.428 . S
H1364 C1360 0.930 . S
H1365 C1362 0.929 . S
S1366 N1367 1.613 . S
S1366 N1368 1.610 . S
N1367 S1366 1.613 . S
N1367 C1370 1.350 . S
N1368 S1366 1.610 . S
N1368 C1369 1.351 . S
C1369 C1363 1.428 . S
C1369 N1368 1.351 . S
C1369 C1370 1.434 . S
C1370 C1361 1.429 . S
C1370 N1367 1.350 . S
C1370 C1369 1.434 . S
C1371 C1372 1.369 . S
C1371 C1373 1.419 . S
C1371 H1375 0.930 . S
C1372 C1371 1.369 . S
C1372 C1381 1.429 . S
C1373 C1371 1.419 . S
C1373 C1374 1.363 . S
C1373 H1376 0.929 . S
C1374 C1373 1.363 . S
C1374 C1380 1.428 . S
H1375 C1371 0.930 . S
H1376 C1373 0.929 . S
S1377 N1378 1.613 . S
S1377 N1379 1.610 . S
N1378 S1377 1.613 . S
N1378 C1381 1.350 . S
N1379 S1377 1.610 . S
N1379 C1380 1.351 . S
C1380 C1374 1.428 . S
C1380 N1379 1.351 . S
C1380 C1381 1.434 . S
C1381 C1372 1.429 . S
C1381 N1378 1.350 . S
C1381 C1380 1.434 . S
C1382 C1383 1.369 . S
C1382 C1384 1.419 . S
C1382 H1386 0.930 . S
C1383 C1382 1.369 . S
C1383 C1392 1.429 . S
C1384 C1382 1.419 . S
C1384 C1385 1.363 . S
C1384 H1387 0.929 . S
C1385 C1384 1.363 . S
C1385 C1391 1.428 . S
H1386 C1382 0.930 . S
H1387 C1384 0.929 . S
S1388 N1389 1.613 . S
S1388 N1390 1.610 . S
N1389 S1388 1.613 . S
N1389 C1392 1.350 . S
N1390 S1388 1.610 . S
N1390 C1391 1.351 . S
C1391 C1385 1.428 . S
C1391 N1390 1.351 . S
C1391 C1392 1.434 . S
C1392 C1383 1.429 . S
C1392 N1389 1.350 . S
C1392 C1391 1.434 . S
C1393 C1394 1.369 . S
C1393 C1395 1.419 . S
C1393 H1397 0.930 . S
C1394 C1393 1.369 . S
C1394 C1403 1.429 . S
C1395 C1393 1.419 . S
C1395 C1396 1.363 . S
C1395 H1398 0.929 . S
C1396 C1395 1.363 . S
C1396 C1402 1.415 1_554 S
H1397 C1393 0.930 . S
H1398 C1395 0.929 . S
S1399 N1400 1.613 . S
S1399 N1401 1.610 . S
N1400 S1399 1.613 . S
N1400 C1403 1.350 1_556 S
N1401 S1399 1.610 . S
N1401 C1402 1.370 . S
C1402 C1396 1.415 1_556 S
C1402 N1401 1.370 . S
C1402 C1403 1.429 1_556 S
C1403 C1394 1.429 . S
C1403 N1400 1.350 1_554 S
C1403 C1402 1.429 1_554 S
C1404 C1405 1.369 . S
C1404 C1406 1.419 . S
C1404 H1408 0.930 . S
C1405 C1404 1.369 . S
C1405 C1414 1.429 . S
C1406 C1404 1.419 . S
C1406 C1407 1.363 . S
C1406 H1409 0.929 . S
C1407 C1406 1.363 . S
C1407 C1413 1.428 . S
H1408 C1404 0.930 . S
H1409 C1406 0.929 . S
S1410 N1411 1.613 . S
S1410 N1412 1.610 . S
N1411 S1410 1.613 . S
N1411 C1414 1.350 . S
N1412 S1410 1.610 . S
N1412 C1413 1.351 . S
C1413 C1407 1.428 . S
C1413 N1412 1.351 . S
C1413 C1414 1.434 . S
C1414 C1405 1.429 . S
C1414 N1411 1.350 . S
C1414 C1413 1.434 . S
C1415 C1416 1.369 . S
C1415 C1417 1.419 . S
C1415 H1419 0.930 . S
C1416 C1415 1.369 . S
C1416 C1425 1.429 1_554 S
C1417 C1415 1.419 . S
C1417 C1418 1.363 . S
C1417 H1420 0.929 . S
C1418 C1417 1.363 . S
C1418 C1424 1.428 . S
H1419 C1415 0.930 . S
H1420 C1417 0.929 . S
S1421 N1422 1.613 . S
S1421 N1423 1.610 . S
N1422 S1421 1.613 . S
N1422 C1425 1.350 . S
N1423 S1421 1.610 . S
N1423 C1424 1.351 1_556 S
C1424 C1418 1.428 . S
C1424 N1423 1.351 1_554 S
C1424 C1425 1.434 1_554 S
C1425 C1416 1.429 1_556 S
C1425 N1422 1.350 . S
C1425 C1424 1.434 1_556 S
C1426 C1427 1.369 . S
C1426 C1428 1.419 . S
C1426 H1430 0.930 . S
C1427 C1426 1.369 . S
C1427 C1436 1.429 . S
C1428 C1426 1.419 . S
C1428 C1429 1.363 . S
C1428 H1431 0.929 . S
C1429 C1428 1.363 . S
C1429 C1435 1.428 . S
H1430 C1426 0.930 . S
H1431 C1428 0.929 . S
S1432 N1433 1.613 . S
S1432 N1434 1.610 . S
N1433 S1432 1.613 . S
N1433 C1436 1.350 . S
N1434 S1432 1.610 . S
N1434 C1435 1.351 . S
C1435 C1429 1.428 . S
C1435 N1434 1.351 . S
C1435 C1436 1.434 . S
C1436 C1427 1.429 . S
C1436 N1433 1.350 . S
C1436 C1435 1.434 . S
C1437 C1438 1.369 . S
C1437 C1439 1.419 . S
C1437 H1441 0.930 . S
C1438 C1437 1.369 . S
C1438 C1447 1.429 . S
C1439 C1437 1.419 . S
C1439 C1440 1.363 . S
C1439 H1442 0.929 . S
C1440 C1439 1.363 . S
C1440 C1446 1.428 . S
H1441 C1437 0.930 . S
H1442 C1439 0.929 . S
S1443 N1444 1.613 . S
S1443 N1445 1.610 . S
N1444 S1443 1.613 . S
N1444 C1447 1.350 . S
N1445 S1443 1.610 . S
N1445 C1446 1.351 . S
C1446 C1440 1.428 . S
C1446 N1445 1.351 . S
C1446 C1447 1.434 . S
C1447 C1438 1.429 . S
C1447 N1444 1.350 . S
C1447 C1446 1.434 . S
C1448 C1449 1.369 . S
C1448 C1450 1.419 . S
C1448 H1452 0.930 . S
C1449 C1448 1.369 . S
C1449 C1458 1.429 . S
C1450 C1448 1.419 . S
C1450 C1451 1.363 . S
C1450 H1453 0.929 . S
C1451 C1450 1.363 . S
C1451 C1457 1.428 . S
H1452 C1448 0.930 . S
H1453 C1450 0.929 . S
S1454 N1455 1.613 . S
S1454 N1456 1.610 . S
N1455 S1454 1.613 . S
N1455 C1458 1.350 . S
N1456 S1454 1.610 . S
N1456 C1457 1.351 . S
C1457 C1451 1.428 . S
C1457 N1456 1.351 . S
C1457 C1458 1.434 . S
C1458 C1449 1.429 . S
C1458 N1455 1.350 . S
C1458 C1457 1.434 . S
C1459 C1460 1.369 . S
C1459 C1461 1.419 . S
C1459 H1463 0.930 . S
C1460 C1459 1.369 . S
C1460 C1469 1.429 . S
C1461 C1459 1.419 . S
C1461 C1462 1.363 . S
C1461 H1464 0.929 . S
C1462 C1461 1.363 . S
C1462 C1468 1.428 . S
H1463 C1459 0.930 . S
H1464 C1461 0.929 . S
S1465 N1466 1.613 . S
S1465 N1467 1.610 . S
N1466 S1465 1.613 . S
N1466 C1469 1.350 . S
N1467 S1465 1.610 . S
N1467 C1468 1.351 . S
C1468 C1462 1.428 . S
C1468 N1467 1.351 . S
C1468 C1469 1.434 . S
C1469 C1460 1.429 . S
C1469 N1466 1.350 . S
C1469 C1468 1.434 . S
C1470 C1471 1.369 1_655 S
C1470 C1472 1.419 . S
C1470 H1474 0.930 . S
C1471 C1470 1.369 1_455 S
C1471 C1480 1.429 . S
C1472 C1470 1.419 . S
C1472 C1473 1.363 1_655 S
C1472 H1475 0.929 . S
C1473 C1472 1.363 1_455 S
C1473 C1479 1.428 . S
H1474 C1470 0.930 . S
H1475 C1472 0.929 . S
S1476 N1477 1.613 . S
S1476 N1478 1.610 . S
N1477 S1476 1.613 . S
N1477 C1480 1.350 . S
N1478 S1476 1.610 . S
N1478 C1479 1.351 . S
C1479 C1473 1.428 . S
C1479 N1478 1.351 . S
C1479 C1480 1.434 . S
C1480 C1471 1.429 . S
C1480 N1477 1.350 . S
C1480 C1479 1.434 . S
C1481 C1482 1.369 . S
C1481 C1483 1.419 . S
C1481 H1485 0.930 . S
C1482 C1481 1.369 . S
C1482 C1491 1.429 . S
C1483 C1481 1.419 . S
C1483 C1484 1.363 . S
C1483 H1486 0.929 . S
C1484 C1483 1.363 . S
C1484 C1490 1.428 . S
H1485 C1481 0.930 . S
H1486 C1483 0.929 . S
S1487 N1488 1.613 . S
S1487 N1489 1.610 . S
N1488 S1487 1.613 . S
N1488 C1491 1.350 . S
N1489 S1487 1.610 . S
N1489 C1490 1.351 . S
C1490 C1484 1.428 . S
C1490 N1489 1.351 . S
C1490 C1491 1.434 . S
C1491 C1482 1.429 . S
C1491 N1488 1.350 . S
C1491 C1490 1.434 . S
C1492 C1493 1.369 . S
C1492 C1494 1.419 . S
C1492 H1496 0.930 . S
C1493 C1492 1.369 . S
C1493 C1502 1.429 . S
C1494 C1492 1.419 . S
C1494 C1495 1.363 . S
C1494 H1497 0.929 . S
C1495 C1494 1.363 . S
C1495 C1501 1.428 . S
H1496 C1492 0.930 . S
H1497 C1494 0.929 . S
S1498 N1499 1.613 1_554 S
S1498 N1500 1.610 . S
N1499 S1498 1.613 1_556 S
N1499 C1502 1.350 . S
N1500 S1498 1.610 . S
N1500 C1501 1.351 1_554 S
C1501 C1495 1.428 . S
C1501 N1500 1.351 1_556 S
C1501 C1502 1.434 . S
C1502 C1493 1.429 . S
C1502 N1499 1.350 . S
C1502 C1501 1.434 . S
C1503 C1504 1.369 . S
C1503 C1505 1.419 . S
C1503 H1507 0.930 . S
C1504 C1503 1.369 . S
C1504 C1513 1.429 . S
C1505 C1503 1.419 . S
C1505 C1506 1.363 . S
C1505 H1508 0.929 . S
C1506 C1505 1.363 . S
C1506 C1512 1.428 . S
H1507 C1503 0.930 . S
H1508 C1505 0.929 . S
S1509 N1510 1.613 . S
S1509 N1511 1.610 . S
N1510 S1509 1.613 . S
N1510 C1513 1.350 . S
N1511 S1509 1.610 . S
N1511 C1512 1.351 . S
C1512 C1506 1.428 . S
C1512 N1511 1.351 . S
C1512 C1513 1.434 . S
C1513 C1504 1.429 . S
C1513 N1510 1.350 . S
C1513 C1512 1.434 . S
C1514 C1515 1.369 1_655 S
C1514 C1516 1.419 . S
C1514 H1518 0.930 . S
C1515 C1514 1.369 1_455 S
C1515 C1524 1.429 . S
C1516 C1514 1.419 . S
C1516 C1517 1.363 1_655 S
C1516 H1519 0.929 . S
C1517 C1516 1.363 1_455 S
C1517 C1523 1.428 . S
H1518 C1514 0.930 . S
H1519 C1516 0.929 . S
S1520 N1521 1.613 . S
S1520 N1522 1.610 . S
N1521 S1520 1.613 . S
N1521 C1524 1.350 . S
N1522 S1520 1.610 . S
N1522 C1523 1.351 . S
C1523 C1517 1.428 . S
C1523 N1522 1.351 . S
C1523 C1524 1.434 . S
C1524 C1515 1.429 . S
C1524 N1521 1.350 . S
C1524 C1523 1.434 . S
C1525 C1526 1.369 . S
C1525 C1527 1.419 . S
C1525 H1529 0.930 . S
C1526 C1525 1.369 . S
C1526 C1535 1.429 . S
C1527 C1525 1.419 . S
C1527 C1528 1.363 . S
C1527 H1530 0.929 . S
C1528 C1527 1.363 . S
C1528 C1534 1.428 . S
H1529 C1525 0.930 . S
H1530 C1527 0.929 . S
S1531 N1532 1.613 . S
S1531 N1533 1.610 . S
N1532 S1531 1.613 . S
N1532 C1535 1.350 . S
N1533 S1531 1.610 . S
N1533 C1534 1.351 . S
C1534 C1528 1.428 . S
C1534 N1533 1.351 . S
C1534 C1535 1.434 . S
C1535 C1526 1.429 . S
C1535 N1532 1.350 . S
C1535 C1534 1.434 . S
C1536 C1537 1.369 . S
C1536 C1538 1.419 . S
C1536 H1540 0.930 . S
C1537 C1536 1.369 . S
C1537 C1546 1.429 . S
C1538 C1536 1.419 . S
C1538 C1539 1.363 . S
C1538 H1541 0.929 . S
C1539 C1538 1.363 . S
C1539 C1545 1.428 . S
H1540 C1536 0.930 . S
H1541 C1538 0.929 . S
S1542 N1543 1.613 . S
S1542 N1544 1.610 . S
N1543 S1542 1.613 . S
N1543 C1546 1.350 . S
N1544 S1542 1.610 . S
N1544 C1545 1.351 . S
C1545 C1539 1.428 . S
C1545 N1544 1.351 . S
C1545 C1546 1.434 . S
C1546 C1537 1.429 . S
C1546 N1543 1.350 . S
C1546 C1545 1.434 . S
C1547 C1548 1.369 . S
C1547 C1549 1.419 . S
C1547 H1551 0.930 . S
C1548 C1547 1.369 . S
C1548 C1557 1.429 . S
C1549 C1547 1.419 . S
C1549 C1550 1.363 . S
C1549 H1552 0.929 . S
C1550 C1549 1.363 . S
C1550 C1556 1.428 . S
H1551 C1547 0.930 . S
H1552 C1549 0.929 . S
S1553 N1554 1.613 . S
S1553 N1555 1.610 . S
N1554 S1553 1.613 . S
N1554 C1557 1.350 . S
N1555 S1553 1.610 . S
N1555 C1556 1.351 . S
C1556 C1550 1.428 . S
C1556 N1555 1.351 . S
C1556 C1557 1.434 . S
C1557 C1548 1.429 . S
C1557 N1554 1.350 . S
C1557 C1556 1.434 . S
C1558 C1559 1.369 . S
C1558 C1560 1.419 . S
C1558 H1562 0.930 . S
C1559 C1558 1.369 . S
C1559 C1568 1.429 . S
C1560 C1558 1.419 . S
C1560 C1561 1.363 . S
C1560 H1563 0.929 . S
C1561 C1560 1.363 . S
C1561 C1567 1.428 . S
H1562 C1558 0.930 . S
H1563 C1560 0.929 . S
S1564 N1565 1.613 . S
S1564 N1566 1.610 . S
N1565 S1564 1.613 . S
N1565 C1568 1.350 . S
N1566 S1564 1.610 . S
N1566 C1567 1.351 . S
C1567 C1561 1.428 . S
C1567 N1566 1.351 . S
C1567 C1568 1.434 . S
C1568 C1559 1.429 . S
C1568 N1565 1.350 . S
C1568 C1567 1.434 . S
C1569 C1570 1.369 . S
C1569 C1571 1.419 . S
C1569 H1573 0.930 . S
C1570 C1569 1.369 . S
C1570 C1579 1.429 . S
C1571 C1569 1.419 . S
C1571 C1572 1.363 . S
C1571 H1574 0.929 . S
C1572 C1571 1.363 . S
C1572 C1578 1.428 . S
H1573 C1569 0.930 . S
H1574 C1571 0.929 . S
S1575 N1576 1.613 . S
S1575 N1577 1.610 . S
N1576 S1575 1.613 . S
N1576 C1579 1.350 . S
N1577 S1575 1.610 . S
N1577 C1578 1.351 . S
C1578 C1572 1.428 . S
C1578 N1577 1.351 . S
C1578 C1579 1.434 . S
C1579 C1570 1.429 . S
C1579 N1576 1.350 . S
C1579 C1578 1.434 . S
C1580 C1581 1.369 . S
C1580 C1582 1.419 . S
C1580 H1584 0.930 . S
C1581 C1580 1.369 . S
C1581 C1590 1.429 . S
C1582 C1580 1.419 . S
C1582 C1583 1.363 . S
C1582 H1585 0.929 . S
C1583 C1582 1.363 . S
C1583 C1589 1.428 . S
H1584 C1580 0.930 . S
H1585 C1582 0.929 . S
S1586 N1587 1.613 . S
S1586 N1588 1.610 . S
N1587 S1586 1.613 . S
N1587 C1590 1.350 . S
N1588 S1586 1.610 . S
N1588 C1589 1.351 . S
C1589 C1583 1.428 . S
C1589 N1588 1.351 . S
C1589 C1590 1.434 . S
C1590 C1581 1.429 . S
C1590 N1587 1.350 . S
C1590 C1589 1.434 . S
C1591 C1592 1.369 . S
C1591 C1593 1.419 . S
C1591 H1595 0.930 . S
C1592 C1591 1.369 . S
C1592 C1601 1.429 . S
C1593 C1591 1.419 . S
C1593 C1594 1.363 . S
C1593 H1596 0.929 . S
C1594 C1593 1.363 . S
C1594 C1600 1.428 . S
H1595 C1591 0.930 . S
H1596 C1593 0.929 . S
S1597 N1598 1.613 . S
S1597 N1599 1.610 . S
N1598 S1597 1.613 . S
N1598 C1601 1.350 . S
N1599 S1597 1.610 . S
N1599 C1600 1.351 . S
C1600 C1594 1.428 . S
C1600 N1599 1.351 . S
C1600 C1601 1.434 . S
C1601 C1592 1.429 . S
C1601 N1598 1.350 . S
C1601 C1600 1.434 . S
C1602 C1603 1.369 . S
C1602 C1604 1.419 . S
C1602 H1606 0.930 . S
C1603 C1602 1.369 . S
C1603 C1612 1.429 . S
C1604 C1602 1.419 . S
C1604 C1605 1.363 . S
C1604 H1607 0.929 . S
C1605 C1604 1.363 . S
C1605 C1611 1.428 . S
H1606 C1602 0.930 . S
H1607 C1604 0.929 . S
S1608 N1609 1.613 1_455 S
S1608 N1610 1.610 . S
N1609 S1608 1.613 1_655 S
N1609 C1612 1.350 . S
N1610 S1608 1.610 . S
N1610 C1611 1.351 1_455 S
C1611 C1605 1.428 . S
C1611 N1610 1.351 1_655 S
C1611 C1612 1.434 . S
C1612 C1603 1.429 . S
C1612 N1609 1.350 . S
C1612 C1611 1.434 . S
C1613 C1614 1.369 . S
C1613 C1615 1.419 . S
C1613 H1617 0.930 . S
C1614 C1613 1.369 . S
C1614 C1623 1.429 . S
C1615 C1613 1.419 . S
C1615 C1616 1.363 . S
C1615 H1618 0.929 . S
C1616 C1615 1.363 . S
C1616 C1622 1.428 . S
H1617 C1613 0.930 . S
H1618 C1615 0.929 . S
S1619 N1620 1.613 . S
S1619 N1621 1.610 . S
N1620 S1619 1.613 . S
N1620 C1623 1.350 . S
N1621 S1619 1.610 . S
N1621 C1622 1.351 . S
C1622 C1616 1.428 . S
C1622 N1621 1.351 . S
C1622 C1623 1.434 . S
C1623 C1614 1.429 . S
C1623 N1620 1.350 . S
C1623 C1622 1.434 . S
C1624 C1625 1.369 . S
C1624 C1626 1.419 . S
C1624 H1628 0.930 . S
C1625 C1624 1.369 . S
C1625 C1634 1.429 . S
C1626 C1624 1.419 . S
C1626 C1627 1.363 . S
C1626 H1629 0.929 . S
C1627 C1626 1.363 . S
C1627 C1633 1.428 . S
H1628 C1624 0.930 . S
H1629 C1626 0.929 . S
S1630 N1631 1.613 . S
S1630 N1632 1.610 . S
N1631 S1630 1.613 . S
N1631 C1634 1.350 . S
N1632 S1630 1.610 . S
N1632 C1633 1.351 . S
C1633 C1627 1.428 . S
C1633 N1632 1.351 . S
C1633 C1634 1.434 . S
C1634 C1625 1.429 . S
C1634 N1631 1.350 . S
C1634 C1633 1.434 . S
C1635 C1636 1.369 . S
C1635 C1637 1.419 . S
C1635 H1639 0.930 . S
C1636 C1635 1.369 . S
C1636 C1645 1.429 . S
C1637 C1635 1.419 . S
C1637 C1638 1.363 . S
C1637 H1640 0.929 . S
C1638 C1637 1.363 . S
C1638 C1644 1.428 . S
H1639 C1635 0.930 . S
H1640 C1637 0.929 . S
S1641 N1642 1.613 . S
S1641 N1643 1.610 . S
N1642 S1641 1.613 . S
N1642 C1645 1.350 . S
N1643 S1641 1.610 . S
N1643 C1644 1.351 . S
C1644 C1638 1.428 . S
C1644 N1643 1.351 . S
C1644 C1645 1.434 . S
C1645 C1636 1.429 . S
C1645 N1642 1.350 . S
C1645 C1644 1.434 . S
C1646 C1647 1.369 . S
C1646 C1648 1.419 . S
C1646 H1650 0.930 . S
C1647 C1646 1.369 . S
C1647 C1656 1.429 . S
C1648 C1646 1.419 . S
C1648 C1649 1.363 . S
C1648 H1651 0.929 . S
C1649 C1648 1.363 . S
C1649 C1655 1.428 . S
H1650 C1646 0.930 . S
H1651 C1648 0.929 . S
S1652 N1653 1.613 . S
S1652 N1654 1.610 . S
N1653 S1652 1.613 . S
N1653 C1656 1.350 . S
N1654 S1652 1.610 . S
N1654 C1655 1.351 . S
C1655 C1649 1.428 . S
C1655 N1654 1.351 . S
C1655 C1656 1.434 . S
C1656 C1647 1.429 . S
C1656 N1653 1.350 . S
C1656 C1655 1.434 . S
C1657 C1658 1.369 1_556 S
C1657 C1659 1.419 . S
C1657 H1661 0.930 . S
C1658 C1657 1.369 1_554 S
C1658 C1667 1.429 . S
C1659 C1657 1.419 . S
C1659 C1660 1.363 1_556 S
C1659 H1662 0.929 . S
C1660 C1659 1.363 1_554 S
C1660 C1666 1.428 . S
H1661 C1657 0.930 . S
H1662 C1659 0.929 . S
S1663 N1664 1.613 . S
S1663 N1665 1.610 . S
N1664 S1663 1.613 . S
N1664 C1667 1.350 . S
N1665 S1663 1.610 . S
N1665 C1666 1.351 . S
C1666 C1660 1.428 . S
C1666 N1665 1.351 . S
C1666 C1667 1.434 . S
C1667 C1658 1.429 . S
C1667 N1664 1.350 . S
C1667 C1666 1.434 . S
C1668 C1669 1.369 . S
C1668 C1670 1.419 . S
C1668 H1672 0.930 . S
C1669 C1668 1.369 . S
C1669 C1678 1.429 . S
C1670 C1668 1.419 . S
C1670 C1671 1.363 . S
C1670 H1673 0.929 . S
C1671 C1670 1.363 . S
C1671 C1677 1.428 . S
H1672 C1668 0.930 . S
H1673 C1670 0.929 . S
S1674 N1675 1.613 . S
S1674 N1676 1.610 . S
N1675 S1674 1.613 . S
N1675 C1678 1.350 . S
N1676 S1674 1.610 . S
N1676 C1677 1.351 . S
C1677 C1671 1.428 . S
C1677 N1676 1.351 . S
C1677 C1678 1.434 . S
C1678 C1669 1.429 . S
C1678 N1675 1.350 . S
C1678 C1677 1.434 . S
C1679 C1680 1.369 1_556 S
C1679 C1681 1.419 . S
C1679 H1683 0.930 . S
C1680 C1679 1.369 1_554 S
C1680 C1689 1.429 . S
C1681 C1679 1.419 . S
C1681 C1682 1.363 . S
C1681 H1684 0.929 . S
C1682 C1681 1.363 . S
C1682 C1688 1.428 1_556 S
H1683 C1679 0.930 . S
H1684 C1681 0.929 . S
S1685 N1686 1.613 . S
S1685 N1687 1.610 . S
N1686 S1685 1.613 . S
N1686 C1689 1.350 . S
N1687 S1685 1.610 . S
N1687 C1688 1.351 . S
C1688 C1682 1.428 1_554 S
C1688 N1687 1.351 . S
C1688 C1689 1.434 . S
C1689 C1680 1.429 . S
C1689 N1686 1.350 . S
C1689 C1688 1.434 . S
C1690 C1691 1.369 . S
C1690 C1692 1.419 . S
C1690 H1694 0.930 . S
C1691 C1690 1.369 . S
C1691 C1700 1.429 . S
C1692 C1690 1.419 . S
C1692 C1693 1.363 . S
C1692 H1695 0.929 . S
C1693 C1692 1.363 . S
C1693 C1699 1.428 . S
H1694 C1690 0.930 . S
H1695 C1692 0.929 . S
S1696 N1697 1.613 . S
S1696 N1698 1.610 . S
N1697 S1696 1.613 . S
N1697 C1700 1.350 . S
N1698 S1696 1.610 . S
N1698 C1699 1.351 . S
C1699 C1693 1.428 . S
C1699 N1698 1.351 . S
C1699 C1700 1.434 . S
C1700 C1691 1.429 . S
C1700 N1697 1.350 . S
C1700 C1699 1.434 . S
C1701 C1702 1.369 . S
C1701 C1703 1.419 . S
C1701 H1705 0.930 . S
C1702 C1701 1.369 . S
C1702 C1711 1.429 . S
C1703 C1701 1.419 . S
C1703 C1704 1.363 . S
C1703 H1706 0.929 . S
C1704 C1703 1.363 . S
C1704 C1710 1.428 . S
H1705 C1701 0.930 . S
H1706 C1703 0.929 . S
S1707 N1708 1.613 . S
S1707 N1709 1.610 . S
N1708 S1707 1.613 . S
N1708 C1711 1.350 . S
N1709 S1707 1.610 . S
N1709 C1710 1.351 . S
C1710 C1704 1.428 . S
C1710 N1709 1.351 . S
C1710 C1711 1.434 . S
C1711 C1702 1.429 . S
C1711 N1708 1.350 . S
C1711 C1710 1.434 . S
C657 C109 1.229 . S
C659 C352 1.204 . S
C668 C61 1.209 . S
C670 C365 1.370 . S
C679 C74 1.355 . S
C681 C384 1.419 . S
C692 C415 1.854 . S
C690 C96 1.913 . S
C701 C25 1.611 1_455 S
C703 C435 1.579 . S
C714 C452 0.958 . S
C712 C40 0.962 . S
C725 C465 1.493 . S
C723 C46 1.495 . S
C734 C5 0.910 . S
C736 C492 1.052 . S
C747 C345 1.163 . S
C745 C229 1.014 . S
C756 C249 1.596 . S
C758 C375 1.523 . S
C769 C377 1.584 . S
C767 C271 1.498 1_545 S
C780 C412 1.068 . S
C778 C172 1.024 . S
C789 C236 1.180 . S
C791 C432 1.189 . S
C802 C445 1.889 . S
C800 C242 1.897 . S
C813 C475 1.310 . S
C811 C278 1.348 . S
C824 C485 1.287 . S
C822 C179 1.321 . S
C835 C355 1.604 1_565 S
C833 C159 1.338 . S
C844 C285 1.456 . S
C846 C505 1.621 1_556 S
C857 C535 1.508 . S
C855 C333 1.541 . S
C868 C552 1.242 . S
C866 C320 1.256 . S
C877 C123 1.763 . S
C879 C495 1.739 . S
C888 C138 1.347 . S
C890 C382 1.274 . S
C899 C326 1.915 . S
C901 C565 1.903 . S
C912 C592 1.135 . S
C910 C298 1.116 . S
C923 C342 1.223 . S
C921 C67 1.240 . S
C934 C577 1.348 . S
C932 C110 1.378 . S
C943 C88 1.426 . S
C945 C395 1.410 . S
C954 C75 1.562 . S
C956 C564 1.799 . S
C967 C424 1.547 1_455 S
C965 C11 1.574 . S
C976 C47 0.915 . S
C978 C522 0.973 . S
C989 C457 1.442 . S
C987 C32 1.393 . S
C1000 C602 1.116 . S
C998 C26 1.161 . S
C1011 C337 1.272 1_565 S
C1009 C152 1.301 . S
C1022 C584 1.519 . S
C1020 C319 1.512 . S
C1031 C124 1.635 . S
C1033 C385 1.586 . S
C1042 C284 1.082 . S
C1044 C562 1.076 . S
C1053 C145 1.083 . S
C1055 C422 1.165 . S
C1066 C517 1.813 . S
C1064 C312 1.726 . S
C1075 C117 1.134 . S
C1077 C464 1.202 . S
C1086 C291 1.245 . S
C1088 C597 1.221 . S
C1097 C194 1.666 . S
C1099 C344 1.638 . S
C1108 C180 1.634 . S
C1110 C497 1.618 . S
C1119 C263 1.398 . S
C1121 C444 1.406 . S
C1130 C243 1.081 . S
C1132 C542 1.182 . S
C1143 C604 1.788 . S
C1141 C277 1.785 . S
C1152 C215 1.203 . S
C1154 C392 1.237 . S
C1165 C397 1.829 . S
C1163 C256 1.770 . S
C1176 C362 1.200 . S
C1174 C200 1.219 . S
C1185 C81 1.232 . S
C1187 C632 1.200 . S
C1198 C585 1.368 . S
C1196 C89 1.209 . S
C1207 C102 1.358 . S
C1209 C644 1.419 1_455 S
C1218 C68 1.912 . S
C1220 C575 1.853 . S
C1229 C53 1.611 . S
C1231 C515 1.579 . S
C1242 C532 0.958 . S
C1240 C12 0.961 . S
C1253 C545 1.495 1_655 S
C1251 C18 1.495 . S
C1264 C612 1.052 . S
C1262 C33 0.882 . S
C1275 C625 1.168 . S
C1273 C257 0.999 . S
C1284 C193 1.595 . S
C1286 C595 1.525 . S
C1297 C637 1.584 . S
C1295 C201 1.491 . S
C1308 C572 1.069 . S
C1306 C214 1.025 . S
C1319 C512 1.190 . S
C1317 C264 1.181 . S
C1328 C186 1.897 . S
C1330 C525 1.889 . S
C1341 C555 1.314 . S
C1339 C208 1.348 . S
C1350 C221 1.323 . S
C1352 C605 1.292 . S
C1363 C635 1.604 . S
C1361 C313 1.338 . S
C1372 C131 1.465 . S
C1374 C425 1.627 . S
C1385 C455 1.506 . S
C1383 C151 1.544 . S
C1396 C472 1.242 . S
C1394 C166 1.257 . S
C1407 C615 1.739 . S
C1405 C305 1.765 . S
C1416 C292 1.351 . S
C1418 C642 1.268 . S
C1429 C405 1.902 . S
C1427 C144 1.913 . S
C1440 C372 1.132 . S
C1438 C116 1.110 1_565 S
C1449 C95 1.238 . S
C1451 C622 1.215 . S
C1462 C357 1.350 . S
C1460 C82 1.374 . S
C1471 C60 1.424 1_455 S
C1473 C655 1.407 . S
C1482 C103 1.555 . S
C1484 C404 1.798 . S
C1493 C39 1.575 . S
C1495 C504 1.545 1_556 S
C1506 C442 0.973 . S
C1504 C19 0.912 . S
C1515 C4 1.399 . S
C1517 C537 1.444 . S
C1526 C54 1.154 . S
C1528 C482 1.116 . S
C1539 C617 1.268 . S
C1537 C334 1.300 . S
C1548 C165 1.510 . S
C1550 C364 1.521 . S
C1561 C645 1.586 . S
C1559 C306 1.635 . S
C1570 C130 1.083 . S
C1572 C402 1.073 . S
C1581 C327 1.087 . S
C1583 C502 1.166 . S
C1594 C437 1.815 . S
C1592 C158 1.733 . S
C1603 C299 1.127 . S
C1605 C544 1.198 . S
C1616 C477 1.217 . S
C1614 C137 1.249 . S
C1627 C624 1.638 . S
C1625 C250 1.666 . S
C1638 C417 1.614 1_565 S
C1636 C222 1.633 . S
C1647 C235 1.402 . S
C1649 C524 1.409 . S
C1660 C462 1.185 . S
C1658 C187 1.070 1_554 S
C1669 C207 1.785 . S
C1671 C484 1.791 . S
C1680 C173 1.197 . S
C1682 C652 1.230 . S
C1693 C557 1.832 . S
C1691 C228 1.777 1_565 S
C1704 C582 1.191 . S
C1702 C270 1.227 . S
