# Generated by pormake.
# Topology anh, (6,3)-cn, num edge types: 1
# Building blocks:
#     Node 0, Type 0, BuildingBlock: CUWYAW_clean_sbu_0, # of connection points: 6
#     Node 1, Type 0, BuildingBlock: CUWYAW_clean_sbu_0, # of connection points: 6
#     Node 2, Type 0, BuildingBlock: CUWYAW_clean_sbu_0, # of connection points: 6
#     Node 3, Type 1, BuildingBlock: OLANEW_clean_sbu_2, # of connection points: 3
#     Node 4, Type 1, BuildingBlock: OLANEW_clean_sbu_2, # of connection points: 3
#     Node 5, Type 1, BuildingBlock: OLANEW_clean_sbu_2, # of connection points: 3
#     Node 6, Type 1, BuildingBlock: OLANEW_clean_sbu_2, # of connection points: 3
#     Node 7, Type 1, BuildingBlock: OLANEW_clean_sbu_2, # of connection points: 3
#     Node 8, Type 1, BuildingBlock: OLANEW_clean_sbu_2, # of connection points: 3
#     Edge 9, Type (0, 1), BuildingBlock: EZIPEK_clean_linker_0, # of connection points: 2
#     Edge 10, Type (0, 1), BuildingBlock: EZIPEK_clean_linker_0, # of connection points: 2
#     Edge 11, Type (0, 1), BuildingBlock: EZIPEK_clean_linker_0, # of connection points: 2
#     Edge 12, Type (0, 1), BuildingBlock: EZIPEK_clean_linker_0, # of connection points: 2
#     Edge 13, Type (0, 1), BuildingBlock: EZIPEK_clean_linker_0, # of connection points: 2
#     Edge 14, Type (0, 1), BuildingBlock: EZIPEK_clean_linker_0, # of connection points: 2
#     Edge 15, Type (0, 1), BuildingBlock: EZIPEK_clean_linker_0, # of connection points: 2
#     Edge 16, Type (0, 1), BuildingBlock: EZIPEK_clean_linker_0, # of connection points: 2
#     Edge 17, Type (0, 1), BuildingBlock: EZIPEK_clean_linker_0, # of connection points: 2
#     Edge 18, Type (0, 1), BuildingBlock: EZIPEK_clean_linker_0, # of connection points: 2
#     Edge 19, Type (0, 1), BuildingBlock: EZIPEK_clean_linker_0, # of connection points: 2
#     Edge 20, Type (0, 1), BuildingBlock: EZIPEK_clean_linker_0, # of connection points: 2
#     Edge 21, Type (0, 1), BuildingBlock: EZIPEK_clean_linker_0, # of connection points: 2
#     Edge 22, Type (0, 1), BuildingBlock: EZIPEK_clean_linker_0, # of connection points: 2
#     Edge 23, Type (0, 1), BuildingBlock: EZIPEK_clean_linker_0, # of connection points: 2
#     Edge 24, Type (0, 1), BuildingBlock: EZIPEK_clean_linker_0, # of connection points: 2
#     Edge 25, Type (0, 1), BuildingBlock: EZIPEK_clean_linker_0, # of connection points: 2
#     Edge 26, Type (0, 1), BuildingBlock: EZIPEK_clean_linker_0, # of connection points: 2
# Relax obj value: 0.341
# Max RMSD: 0.141
# Mean RMSD: 0.121
data_MOF--net-anh--node1-CUWYAW_clean_sbu_0--node2-OLANEW_clean_sbu_2--edge1-EZIPEK_clean_linker_0
_symmetry_space_group_name_H-M    P1
_symmetry_Int_Tables_number       1
_symmetry_cell_setting            triclinic
loop_
_symmetry_equiv_pos_as_xyz
'x, y, z'
_cell_length_a     28.559791
_cell_length_b     28.565772
_cell_length_c     36.465865
_cell_angle_alpha  89.541307
_cell_angle_beta   89.414201
_cell_angle_gamma 120.05889
loop_
_atom_site_label
_atom_site_type_symbol
_atom_site_fract_x
_atom_site_fract_y
_atom_site_fract_z
_atom_type_partial_charge
C0 C 0.94791 0.35169 0.15057 0.0
Eu1 Eu 1.01431 0.45251 0.16439 0.0
C2 C 0.88963 0.32752 0.1436 0.0
C3 C 0.85288 0.2849 0.1665 0.0
C4 C 0.80122 0.27726 0.17296 0.0
C5 C 0.78601 0.3122 0.15658 0.0
C6 C 0.81965 0.34948 0.12967 0.0
C7 C 0.8712 0.35686 0.12297 0.0
C8 C 0.05233 0.49138 0.23273 0.0
C9 C 0.9362 0.50556 0.16277 0.0
C10 C 0.10581 0.6709 0.18811 0.0
Eu11 Eu 0.06668 0.57072 0.16878 0.0
C12 C 0.16071 0.71331 0.1965 0.0
C13 C 0.17022 0.76384 0.2081 0.0
C14 C 0.2222 0.80329 0.21806 0.0
C15 C 0.26492 0.79233 0.2166 0.0
C16 C 0.25548 0.74188 0.20466 0.0
C17 C 0.2036 0.70262 0.19445 0.0
C18 C 0.06127 0.53707 0.09931 0.0
C19 C 0.14289 0.51759 0.15495 0.0
O20 O 0.98144 0.38569 0.12572 0.0
O21 O 0.96118 0.37003 0.18381 0.0
O22 O 0.05609 0.45255 0.21742 0.0
O23 O 1.02794 0.50707 0.21163 0.0
O24 O 0.93909 0.46106 0.16598 0.0
O25 O 0.98035 0.55368 0.16203 0.0
O26 O 0.08457 0.63017 0.21124 0.0
O27 O 0.09756 0.65547 0.15407 0.0
O28 O 0.1024 0.57941 0.11268 0.0
O29 O 1.02385 0.51476 0.12323 0.0
O30 O 0.14003 0.55773 0.171 0.0
O31 O 0.09844 0.47364 0.14482 0.0
H32 H 0.86618 0.26191 0.18273 0.0
H33 H 0.77551 0.24818 0.1938 0.0
H34 H 0.80828 0.37648 0.1167 0.0
H35 H 0.89859 0.38981 0.10495 0.0
H36 H 0.13741 0.77248 0.20994 0.0
H37 H 0.22903 0.84207 0.22746 0.0
H38 H 0.28806 0.73284 0.20365 0.0
H39 H 0.19673 0.66364 0.18557 0.0
C40 C 0.50937 0.16041 0.47854 0.0
Eu41 Eu 0.53444 0.08749 0.4965 0.0
C42 C 0.53779 0.21807 0.48731 0.0
C43 C 0.57149 0.23556 0.51785 0.0
C44 C 0.60263 0.29037 0.52512 0.0
C45 C 0.60095 0.32884 0.50194 0.0
C46 C 0.56631 0.31157 0.47175 0.0
C47 C 0.53514 0.25625 0.46427 0.0
C48 C 0.54355 0.06061 0.56675 0.0
C49 C 0.66924 0.14952 0.49736 0.0
C50 C 0.62176 0.95618 0.5244 0.0
Eu51 Eu 0.59121 1.02311 0.50201 0.0
C52 C 0.60045 0.89781 0.527 0.0
C53 C 0.54667 0.86061 0.51802 0.0
C54 C 0.52619 0.80513 0.52356 0.0
C55 C 0.55958 0.78677 0.53796 0.0
C56 C 0.61351 0.824 0.54615 0.0
C57 C 0.63379 0.8792 0.54076 0.0
C58 C 0.58553 0.05701 0.43341 0.0
C59 C 0.45858 0.95767 0.48938 0.0
O60 O 0.53609 0.14577 0.45667 0.0
O61 O 0.48753 0.12728 0.50657 0.0
O62 O 0.5032 0.06473 0.55484 0.0
O63 O 0.5795 0.07513 0.54176 0.0
O64 O 0.62505 0.15122 0.48845 0.0
O65 O 0.66497 0.10465 0.51094 0.0
O66 O 0.59785 0.97489 0.54568 0.0
O67 O 0.63271 0.97793 0.49143 0.0
O68 O 0.62668 0.05337 0.44463 0.0
O69 O 0.54853 0.03813 0.45757 0.0
O70 O 0.50289 0.95567 0.49702 0.0
O71 O 0.46071 1.00497 0.48572 0.0
H72 H 0.57437 0.20674 0.53583 0.0
H73 H 0.62843 0.30294 0.54886 0.0
H74 H 0.56403 0.34083 0.4539 0.0
H75 H 0.50963 0.24333 0.4404 0.0
H76 H 0.52047 0.87446 0.50731 0.0
H77 H 0.48447 0.77673 0.51713 0.0
H78 H 0.63967 0.81026 0.5573 0.0
H79 H 0.67526 0.90743 0.54794 0.0
C80 C 0.71948 0.59255 0.83656 0.0
Eu81 Eu 0.6148 0.54437 0.83867 0.0
C82 C 0.75439 0.56856 0.83501 0.0
C83 C 0.79997 0.58918 0.85725 0.0
C84 C 0.82709 0.56039 0.86205 0.0
C85 C 0.80883 0.51068 0.8447 0.0
C86 C 0.76478 0.49109 0.8211 0.0
C87 C 0.73766 0.51992 0.81627 0.0
C88 C 0.5549 0.50889 0.90185 0.0
C89 C 0.55268 0.41577 0.82718 0.0
C90 C 0.39197 0.44063 0.8304 0.0
Eu91 Eu 0.49684 0.49139 0.82649 0.0
C92 C 0.35467 0.46115 0.82513 0.0
C93 C 0.37195 0.50945 0.8051 0.0
C94 C 0.34087 0.53458 0.80529 0.0
C95 C 0.29234 0.51176 0.82559 0.0
C96 C 0.27364 0.4621 0.84409 0.0
C97 C 0.3048 0.4369 0.84391 0.0
C98 C 0.55824 0.52603 0.76421 0.0
C99 C 0.56119 0.62144 0.82416 0.0
O100 O 0.69066 0.58686 0.80749 0.0
O101 O 0.6915 0.58244 0.86709 0.0
O102 O 0.59643 0.50368 0.89423 0.0
O103 O 0.54622 0.53262 0.87545 0.0
O104 O 0.59961 0.46106 0.82365 0.0
O105 O 0.50799 0.41753 0.83445 0.0
O106 O 0.42261 0.45954 0.85918 0.0
O107 O 0.41891 0.44078 0.80115 0.0
O108 O 0.5135 0.52682 0.76846 0.0
O109 O 0.56522 0.50339 0.79158 0.0
O110 O 0.51285 0.57742 0.82535 0.0
O111 O 0.60571 0.61851 0.82829 0.0
H112 H 0.81295 0.62615 0.87229 0.0
H113 H 0.86113 0.57584 0.88036 0.0
H114 H 0.75031 0.4527 0.80762 0.0
H115 H 0.70224 0.50295 0.79918 0.0
H116 H 0.4107 0.5291 0.79078 0.0
H117 H 0.35599 0.57319 0.79124 0.0
H118 H 0.23641 0.44443 0.86017 0.0
H119 H 0.29129 0.40001 0.85981 0.0
O120 O 0.54678 0.22417 0.33984 0.0
Cd121 Cd 0.52641 0.27136 0.2916 0.0
O122 O 0.53318 0.1696 0.2944 0.0
Cd123 Cd 0.5248 0.09641 0.2708 0.0
O124 O 0.46977 1.01741 0.24917 0.0
C125 C 0.46207 0.97424 0.26478 0.0
O126 O 0.49139 0.97678 0.29302 0.0
C127 C 0.54513 0.18179 0.3277 0.0
C128 C 0.60822 0.30078 0.23926 0.0
O129 O 0.60919 0.33577 0.26148 0.0
O130 O 0.56644 0.25336 0.23976 0.0
O131 O 0.76899 0.61943 0.65416 0.0
Cd132 Cd 0.82112 0.62726 0.59837 0.0
O133 O 0.70232 0.58464 0.61542 0.0
Cd134 Cd 0.61652 0.5438 0.60252 0.0
O135 O 0.55622 0.56183 0.5816 0.0
C136 C 0.57471 0.61229 0.58434 0.0
O137 O 0.6222 0.64226 0.5991 0.0
C138 C 0.71865 0.59675 0.64802 0.0
C139 C 0.7543 0.53655 0.55754 0.0
O140 O 0.78629 0.53513 0.5813 0.0
O141 O 0.75569 0.58145 0.55146 0.0
O142 O 0.10311 0.64124 0.94319 0.0
Cd143 Cd 0.12628 0.67845 0.88086 0.0
O144 O 0.08892 0.56455 0.92041 0.0
Cd145 Cd 0.05617 0.47705 0.92211 0.0
O146 O 0.97843 0.43152 0.89606 0.0
C147 C 0.95036 0.45324 0.90398 0.0
O148 O 0.96788 0.49061 0.92919 0.0
C149 C 0.08932 0.59174 0.94792 0.0
C150 C 0.18371 0.63268 0.8527 0.0
O151 O 0.20821 0.67952 0.86726 0.0
O152 O 0.13237 0.60934 0.84878 0.0
O153 O 0.13084 0.59242 0.39507 0.0
Cd154 Cd 0.17155 0.64117 0.4542 0.0
O155 O 0.05188 0.52549 0.41481 0.0
Cd156 Cd 0.96929 0.45087 0.42276 0.0
O157 O 0.89627 0.38241 0.45193 0.0
C158 C 0.86377 0.33703 0.43751 0.0
O159 O 0.87254 0.32856 0.40342 0.0
C160 C 0.08515 0.55033 0.38813 0.0
C161 C 0.26519 0.7469 0.45945 0.0
O162 O 0.26949 0.70446 0.45664 0.0
O163 O 0.21741 0.74036 0.45798 0.0
O164 O 0.56414 0.97219 0.72638 0.0
Cd165 Cd 0.56814 0.92766 0.78587 0.0
O166 O 0.56471 0.04491 0.74809 0.0
Cd167 Cd 0.55892 0.12093 0.75313 0.0
O168 O 0.54305 0.18701 0.77294 0.0
C169 C 0.57958 0.23456 0.78207 0.0
O170 O 0.63059 0.24741 0.77969 0.0
C171 C 0.56341 1.01627 0.72079 0.0
C172 C 0.56517 0.82607 0.79337 0.0
O173 O 0.52152 0.82848 0.79253 0.0
O174 O 0.60994 0.87058 0.78852 0.0
O175 O 0.58709 0.49651 0.06596 0.0
Cd176 Cd 0.62409 0.48251 0.12553 0.0
O177 O 0.51347 0.49822 0.08432 0.0
Cd178 Cd 0.43644 0.50292 0.0866 0.0
O179 O 0.3579 0.50235 0.09897 0.0
C180 C 0.34848 0.52175 0.12786 0.0
O181 O 0.38652 0.54431 0.15243 0.0
C182 C 0.54505 0.49992 0.05839 0.0
C183 C 0.72762 0.49035 0.13368 0.0
O184 O 0.68697 0.4472 0.12166 0.0
O185 O 0.72081 0.53059 0.14023 0.0
C186 C 0.21991 0.50433 0.17616 0.0
C187 C 0.19689 0.52118 0.14833 0.0
C188 C 0.27531 0.54218 0.10779 0.0
C189 C 0.29522 0.51986 0.13417 0.0
N190 N 0.28026 0.47038 0.19111 0.0
N191 N 0.19977 0.5497 0.08553 0.0
C192 C 0.26588 0.4986 0.16781 0.0
C193 C 0.22372 0.53804 0.11352 0.0
N194 N 0.19831 0.49445 0.21088 0.0
N195 N 0.30691 0.57015 0.07809 0.0
H196 H 0.16391 0.55008 0.0891 0.0
H197 H 0.21337 0.55519 0.05837 0.0
H198 H 0.34529 0.57543 0.07321 0.0
H199 H 0.29743 0.59261 0.06013 0.0
H200 H 0.21653 0.48771 0.23333 0.0
H201 H 0.1647 0.49791 0.21791 0.0
H202 H 0.25733 0.44912 0.21413 0.0
H203 H 0.31215 0.46346 0.18548 0.0
C204 C 0.73291 0.25119 0.49463 0.0
C205 C 0.72455 0.19831 0.48907 0.0
C206 C 0.8166 0.24082 0.46141 0.0
C207 C 0.81883 0.29149 0.45942 0.0
N208 N 0.77673 0.34448 0.47327 0.0
N209 N 0.76081 0.14375 0.46403 0.0
C210 C 0.77662 0.29676 0.47617 0.0
C211 C 0.76743 0.19331 0.47226 0.0
N212 N 0.70048 0.25828 0.51896 0.0
N213 N 0.86213 0.23817 0.45362 0.0
H214 H 0.72628 0.1071 0.47005 0.0
H215 H 0.78806 0.13891 0.44756 0.0
H216 H 0.899 0.27219 0.44631 0.0
H217 H 0.865 0.2037 0.45848 0.0
H218 H 0.70819 0.29632 0.52713 0.0
H219 H 0.67036 0.22633 0.53447 0.0
H220 H 0.74415 0.34874 0.48176 0.0
H221 H 0.80754 0.37865 0.45995 0.0
C222 C 0.59646 0.70997 0.78769 0.0
C223 C 0.56519 0.67572 0.81771 0.0
C224 C 0.53845 0.74322 0.83394 0.0
C225 C 0.56424 0.77373 0.80144 0.0
N226 N 0.60939 0.78008 0.74394 0.0
N227 N 0.50442 0.65947 0.86896 0.0
C228 C 0.59124 0.75559 0.77754 0.0
C229 C 0.53524 0.69213 0.84045 0.0
N230 N 0.63173 0.69966 0.76872 0.0
N231 N 0.51998 0.76462 0.85992 0.0
H232 H 0.50622 0.62567 0.87793 0.0
H233 H 0.47542 0.66472 0.88292 0.0
H234 H 0.52301 0.80236 0.85699 0.0
H235 H 0.5063 0.74754 0.88592 0.0
H236 H 0.66039 0.72707 0.75003 0.0
H237 H 0.63538 0.66565 0.77308 0.0
H238 H 0.62346 0.76478 0.72345 0.0
H239 H 0.60519 0.81253 0.735 0.0
C240 C 0.84916 0.50014 0.18505 0.0
C241 C 0.88231 0.50078 0.15556 0.0
C242 C 0.81499 0.4964 0.11159 0.0
C243 C 0.78059 0.49305 0.14111 0.0
N244 N 0.76018 0.48138 0.20595 0.0
N245 N 0.89241 0.48941 0.09106 0.0
C246 C 0.79644 0.49212 0.17788 0.0
C247 C 0.86392 0.49602 0.1189 0.0
N248 N 0.86844 0.50804 0.21994 0.0
N249 N 0.80176 0.50172 0.07648 0.0
H250 H 0.92823 0.48901 0.09523 0.0
H251 H 0.87838 0.47968 0.0644 0.0
H252 H 0.76604 0.50129 0.07005 0.0
H253 H 0.82784 0.51067 0.05403 0.0
H254 H 0.8491 0.51397 0.24227 0.0
H255 H 0.90592 0.51227 0.22622 0.0
H256 H 0.76657 0.47386 0.23288 0.0
H257 H 0.72147 0.47535 0.2018 0.0
C258 C 0.39034 0.85958 0.50704 0.0
C259 C 0.40628 0.90488 0.48277 0.0
C260 C 0.32842 0.84626 0.44319 0.0
C261 C 0.31374 0.80137 0.46714 0.0
N262 N 0.32291 0.76822 0.52597 0.0
N263 N 0.39238 0.93902 0.42528 0.0
C264 C 0.34296 0.80876 0.49996 0.0
C265 C 0.37518 0.89779 0.45052 0.0
N266 N 0.42078 0.86461 0.53704 0.0
N267 N 0.29712 0.83968 0.41335 0.0
H268 H 0.42524 0.97741 0.42889 0.0
H269 H 0.37644 0.93497 0.39924 0.0
H270 H 0.26628 0.80204 0.405 0.0
H271 H 0.29939 0.87138 0.39772 0.0
H272 H 0.41778 0.83183 0.55177 0.0
H273 H 0.45112 0.90147 0.54659 0.0
H274 H 0.33761 0.77275 0.55247 0.0
H275 H 0.28801 0.7309 0.52251 0.0
C276 C 0.52171 0.33085 0.78924 0.0
C277 C 0.55092 0.36307 0.81961 0.0
C278 C 0.58773 0.30209 0.82991 0.0
C279 C 0.5656 0.27561 0.79629 0.0
N280 N 0.51722 0.27047 0.74124 0.0
N281 N 0.61329 0.37983 0.86856 0.0
C282 C 0.53345 0.29097 0.77549 0.0
C283 C 0.58439 0.34873 0.8398 0.0
N284 N 0.483 0.33836 0.77303 0.0
N285 N 0.61002 0.28121 0.85326 0.0
H286 H 0.60826 0.41099 0.8789 0.0
H287 H 0.64393 0.37627 0.88117 0.0
H288 H 0.6113 0.24611 0.84768 0.0
H289 H 0.62216 0.29518 0.87971 0.0
H290 H 0.45618 0.31187 0.75389 0.0
H291 H 0.47441 0.36833 0.78055 0.0
H292 H 0.49973 0.28512 0.72288 0.0
H293 H 0.52576 0.24232 0.72962 0.0
C294 C 0.54909 0.69816 0.5198 0.0
C295 C 0.53929 0.72884 0.54586 0.0
C296 C 0.52663 0.6633 0.59416 0.0
C297 C 0.54649 0.63924 0.56935 0.0
N298 N 0.56616 0.62554 0.50717 0.0
N299 N 0.50861 0.73677 0.60587 0.0
C300 C 0.55302 0.65321 0.53164 0.0
C301 C 0.52353 0.70931 0.58238 0.0
N302 N 0.55795 0.71283 0.48368 0.0
N303 N 0.51248 0.64262 0.62904 0.0
H304 H 0.5047 0.76952 0.59717 0.0
H305 H 0.49965 0.72743 0.63358 0.0
H306 H 0.51378 0.60822 0.63738 0.0
H307 H 0.49711 0.65715 0.64909 0.0
H308 H 0.55568 0.74548 0.47267 0.0
H309 H 0.55568 0.74548 0.47267 0.0
H310 H 0.57275 0.6358 0.4793 0.0
H311 H 0.56905 0.5918 0.51475 0.0
C312 C 0.8189 0.44681 0.88632 0.0
C313 C 0.8345 0.4782 0.85349 0.0
C314 C 0.91144 0.4638 0.84573 0.0
C315 C 0.90305 0.44409 0.88244 0.0
N316 N 0.84583 0.40857 0.93603 0.0
N317 N 0.89226 0.51384 0.79994 0.0
C318 C 0.855 0.43188 0.90188 0.0
C319 C 0.87912 0.48479 0.83211 0.0
N320 N 0.7702 0.4325 0.90272 0.0
N321 N 0.95076 0.46339 0.82433 0.0
H322 H 0.86812 0.52796 0.78867 0.0
H323 H 0.92808 0.52613 0.78524 0.0
H324 H 0.97434 0.44732 0.83328 0.0
H325 H 0.95627 0.47357 0.79653 0.0
H326 H 0.75434 0.40643 0.92529 0.0
H327 H 0.74349 0.44371 0.8919 0.0
H328 H 0.81513 0.40405 0.95387 0.0
H329 H 0.87043 0.39459 0.94678 0.0
C330 C 0.3615 0.86397 0.20391 0.0
C331 C 0.31893 0.83325 0.22946 0.0
C332 C 0.3717 0.89262 0.27896 0.0
C333 C 0.41533 0.9223 0.25383 0.0
N334 N 0.45684 0.92899 0.19468 0.0
N335 N 0.289 0.80861 0.29232 0.0
C336 C 0.41184 0.90556 0.21697 0.0
C337 C 0.32602 0.84429 0.26739 0.0
N338 N 0.35308 0.85514 0.16716 0.0
N339 N 0.37176 0.91255 0.3129 0.0
H340 H 0.25494 0.7726 0.28467 0.0
H341 H 0.29491 0.81209 0.32054 0.0
H342 H 0.40287 0.94949 0.3218 0.0
H343 H 0.33838 0.89531 0.33071 0.0
H344 H 0.38056 0.88033 0.14708 0.0
H345 H 0.31684 0.82475 0.15657 0.0
H346 H 0.45813 0.91506 0.1686 0.0
H347 H 0.49445 0.9592 0.20367 0.0
C348 C 0.68224 0.42151 0.49044 0.0
C349 C 0.63468 0.38678 0.51119 0.0
C350 C 0.66553 0.4505 0.56163 0.0
C351 C 0.71246 0.48615 0.54072 0.0
N352 N 0.76078 0.51135 0.48278 0.0
N353 N 0.57356 0.37544 0.56084 0.0
C354 C 0.71907 0.47368 0.50414 0.0
C355 C 0.62387 0.40392 0.5449 0.0
N356 N 0.69369 0.40364 0.4588 0.0
N357 N 0.66163 0.45971 0.59795 0.0
H358 H 0.54197 0.34136 0.54878 0.0
H359 H 0.56168 0.38874 0.58373 0.0
H360 H 0.69197 0.4925 0.61164 0.0
H361 H 0.63075 0.43214 0.61534 0.0
H362 H 0.73057 0.4246 0.44472 0.0
H363 H 0.66769 0.36588 0.44782 0.0
H364 H 0.76463 0.50679 0.4548 0.0
H365 H 0.78953 0.54912 0.4925 0.0
C366 C 0.23261 0.54736 0.80404 0.0
C367 C 0.26518 0.54358 0.83165 0.0
C368 C 0.2416 0.59523 0.87342 0.0
C369 C 0.21294 0.60338 0.8448 0.0
N370 N 0.1883 0.59503 0.78112 0.0
N371 N 0.31061 0.57371 0.88946 0.0
C372 C 0.2103 0.58153 0.80955 0.0
C373 C 0.27274 0.57055 0.86538 0.0
N374 N 0.22209 0.5174 0.77301 0.0
N375 N 0.23672 0.60812 0.90877 0.0
H376 H 0.33441 0.55607 0.88474 0.0
H377 H 0.32198 0.59813 0.9125 0.0
H378 H 0.21266 0.62437 0.91653 0.0
H379 H 0.25196 0.59733 0.93111 0.0
H380 H 0.19402 0.51394 0.75364 0.0
H381 H 0.23845 0.49254 0.76798 0.0
H382 H 0.19 0.58472 0.75401 0.0
H383 H 0.17253 0.62079 0.78407 0.0
C384 C 0.69039 0.29514 0.15848 0.0
C385 C 0.74235 0.3183 0.17408 0.0
C386 C 0.70811 0.33607 0.23092 0.0
C387 C 0.65567 0.31272 0.21561 0.0
N388 N 0.60066 0.28457 0.16157 0.0
N389 N 0.80284 0.37221 0.22248 0.0
C390 C 0.64792 0.29663 0.17831 0.0
C391 C 0.75198 0.34308 0.20887 0.0
N392 N 0.68116 0.26997 0.12547 0.0
N393 N 0.71665 0.34962 0.26711 0.0
H394 H 0.83808 0.38095 0.20803 0.0
H395 H 0.83808 0.38095 0.20803 0.0
H396 H 0.68594 0.3407 0.28623 0.0
H397 H 0.75498 0.36702 0.27868 0.0
H398 H 0.64275 0.24679 0.1146 0.0
H399 H 0.71184 0.26959 0.10991 0.0
H400 H 0.59435 0.27724 0.13363 0.0
H401 H 0.56972 0.28742 0.17493 0.0
C402 C 0.07549 0.51338 0.03658 0.0
C403 C 0.05182 0.53567 0.05951 0.0
C404 C 1.03528 0.57649 1.00567 0.0
C405 C 0.07105 0.56594 0.98475 0.0
N406 N 0.13015 0.52776 0.98226 0.0
N407 N 1.0112 0.5918 0.06622 0.0
C408 C 0.09178 0.53432 1.00039 0.0
C409 C 1.03142 0.56752 0.04413 0.0
N410 N 0.08308 0.47284 0.04965 0.0
N411 N 1.00447 0.5943 0.98879 0.0
H412 H 1.00718 0.58596 0.09454 0.0
H413 H 1.00171 0.62045 0.05659 0.0
H414 H 1.00468 0.59911 0.96038 0.0
H415 H 0.97439 0.59814 1.00249 0.0
H416 H 0.0965 0.45208 0.03322 0.0
H417 H 0.07042 0.45656 0.07601 0.0
H418 H 0.15036 0.50991 0.99442 0.0
H419 H 0.14558 0.54437 0.95643 0.0
C420 C 0.53399 0.06069 0.38017 0.0
C421 C 0.58294 0.08529 0.39954 0.0
C422 C 0.61194 0.16992 0.36485 0.0
C423 C 0.55864 0.14798 0.35142 0.0
N424 N 0.46741 0.07273 0.34752 0.0
N425 N 0.67265 0.16173 0.40672 0.0
C426 C 0.51938 0.09316 0.35897 0.0
C427 C 0.62347 0.13931 0.39052 0.0
N428 N 0.50253 1.00569 0.38104 0.0
N429 N 0.652 0.21907 0.35185 0.0
H430 H 0.6857 0.13854 0.4204 0.0
H431 H 0.70047 0.20303 0.40647 0.0
H432 H 0.64518 0.24229 0.33274 0.0
H433 H 0.69281 0.23512 0.35751 0.0
H434 H 0.46874 0.98462 0.36482 0.0
H435 H 0.51345 0.98095 0.39543 0.0
H436 H 0.43583 0.03504 0.35602 0.0
H437 H 0.45485 0.09521 0.33208 0.0
C438 C 0.60764 0.58962 0.71017 0.0
C439 C 0.59296 0.54126 0.73041 0.0
C440 C 0.66198 0.53056 0.69694 0.0
C441 C 0.67852 0.58015 0.67828 0.0
N442 N 0.67424 0.66153 0.6706 0.0
N443 N 0.59147 0.4562 0.7321 0.0
C444 C 0.65292 0.61071 0.68554 0.0
C445 C 0.61627 0.50914 0.72085 0.0
N446 N 0.5773 0.61425 0.71303 0.0
N447 N 0.69082 0.50452 0.69253 0.0
H448 H 0.55429 0.43757 0.74593 0.0
H449 H 0.60337 0.42895 0.72364 0.0
H450 H 0.72433 0.51865 0.67492 0.0
H451 H 0.68467 0.47164 0.7087 0.0
H452 H 0.58213 0.6455 0.69564 0.0
H453 H 0.54431 0.60132 0.73077 0.0
H454 H 0.66198 0.68888 0.67813 0.0
H455 H 0.70766 0.67821 0.65273 0.0
C456 C 0.50563 1.00633 0.62549 0.0
C457 C 0.54954 0.05061 0.60648 0.0
C458 C 0.60277 0.07371 0.66314 0.0
C459 C 0.55782 0.03131 0.68237 0.0
N460 N 0.46321 0.96416 0.68388 0.0
N461 N 0.63493 0.13415 0.6101 0.0
C462 C 0.50832 0.99968 0.66407 0.0
C463 C 0.59691 0.08639 0.62605 0.0
N464 N 0.46189 0.96917 0.60648 0.0
N465 N 0.6516 0.10106 0.68 0.0
H466 H 0.63123 0.14642 0.58385 0.0
H467 H 0.66742 0.16429 0.62423 0.0
H468 H 0.65702 0.09405 0.70733 0.0
H469 H 0.68745 0.12782 0.6662 0.0
H470 H 0.43202 0.93253 0.61779 0.0
H471 H 0.45734 0.97256 0.57848 0.0
H472 H 0.42446 0.94431 0.67312 0.0
H473 H 0.46362 0.95828 0.71213 0.0
C474 C 0.50397 0.4606 0.95965 0.0
C475 C 0.53951 0.50999 0.94105 0.0
C476 C 0.56797 0.55598 1.00034 0.0
C477 C 0.53477 0.50594 0.01895 0.0
N478 N 0.46172 0.41395 0.01727 0.0
N479 N 0.59542 0.60704 0.94278 0.0
C480 C 0.49934 0.45939 0.9988 0.0
C481 C 0.56798 0.55855 0.96117 0.0
N482 N 0.4764 0.41444 0.93982 0.0
N483 N 0.60123 0.60056 0.02026 0.0
H484 H 0.59721 0.61037 0.91427 0.0
H485 H 0.61288 0.64439 0.95552 0.0
H486 H 0.59972 0.60062 0.04887 0.0
H487 H 0.63159 0.63675 1.00882 0.0
H488 H 0.45473 0.37582 0.95143 0.0
H489 H 0.47686 0.41468 0.9112 0.0
H490 H 0.43155 0.37981 1.00455 0.0
H491 H 0.45796 0.41204 0.04581 0.0
C492 C 1.03318 0.46386 0.30058 0.0
C493 C 0.06065 0.50432 0.27289 0.0
C494 C 0.09264 0.57309 0.32048 0.0
C495 C 0.07254 0.53281 0.34877 0.0
N496 N 1.03461 0.43769 0.36376 0.0
N497 N 0.13296 0.59502 0.26007 0.0
C498 C 0.04555 0.47739 0.33838 0.0
C499 C 0.09511 0.55826 0.28384 0.0
N500 N 0.99457 0.41286 0.29117 0.0
N501 N 0.10766 0.6255 0.32796 0.0
H502 H 0.13867 0.5845 0.23388 0.0
H503 H 0.16215 0.63377 0.26798 0.0
H504 H 0.10167 0.63767 0.35362 0.0
H505 H 0.11924 0.65504 0.30739 0.0
H506 H 0.96988 0.3835 0.31053 0.0
H507 H 0.98368 0.40154 0.2641 0.0
H508 H 1.01927 0.39734 0.35678 0.0
H509 H 0.04664 0.44569 0.39093 0.0
loop_
_geom_bond_atom_site_label_1
_geom_bond_atom_site_label_2
_geom_bond_distance
_geom_bond_site_symmetry_2
_ccdc_geom_bond_type
C0 Eu1 2.835 . S
C0 C2 1.500 . S
C0 O20 1.257 . S
C0 O21 1.260 . S
Eu1 C0 2.835 . S
Eu1 O20 2.473 . S
Eu1 O21 2.480 . S
Eu1 O22 2.430 . S
Eu1 O23 2.670 1_655 S
Eu1 O24 2.394 . S
Eu1 O29 2.355 1_655 S
Eu1 O31 2.374 1_655 S
C2 C0 1.500 . S
C2 C3 1.377 . S
C2 C7 1.377 . S
C3 C2 1.377 . S
C3 C4 1.395 . S
C3 H32 0.931 . S
C4 C3 1.395 . S
C4 C5 1.383 . S
C4 H33 0.931 . S
C5 C4 1.383 . S
C5 C6 1.394 . S
C6 C5 1.394 . S
C6 C7 1.378 . S
C6 H34 0.931 . S
C7 C2 1.377 . S
C7 C6 1.378 . S
C7 H35 0.931 . S
C8 O22 1.259 1_455 S
C8 O23 1.270 . S
C9 O24 1.251 . S
C9 O25 1.251 . S
C10 Eu11 2.835 . S
C10 C12 1.500 . S
C10 O26 1.257 . S
C10 O27 1.260 . S
Eu11 C10 2.835 . S
Eu11 O23 2.355 . S
Eu11 O25 2.374 1_455 S
Eu11 O26 2.473 . S
Eu11 O27 2.480 . S
Eu11 O28 2.430 . S
Eu11 O29 2.670 . S
Eu11 O30 2.394 . S
C12 C10 1.500 . S
C12 C13 1.377 . S
C12 C17 1.377 . S
C13 C12 1.377 . S
C13 C14 1.395 . S
C13 H36 0.931 . S
C14 C13 1.395 . S
C14 C15 1.383 . S
C14 H37 0.931 . S
C15 C14 1.383 . S
C15 C16 1.394 . S
C16 C15 1.394 . S
C16 C17 1.378 . S
C16 H38 0.931 . S
C17 C12 1.377 . S
C17 C16 1.378 . S
C17 H39 0.931 . S
C18 O28 1.259 . S
C18 O29 1.270 . S
C19 O30 1.251 . S
C19 O31 1.251 . S
O20 C0 1.257 . S
O20 Eu1 2.473 . S
O21 C0 1.260 . S
O21 Eu1 2.480 . S
O22 Eu1 2.430 . S
O22 C8 1.259 1_655 S
O23 Eu1 2.670 1_455 S
O23 C8 1.270 . S
O23 Eu11 2.355 . S
O24 Eu1 2.394 . S
O24 C9 1.251 . S
O25 C9 1.251 . S
O25 Eu11 2.374 1_655 S
O26 C10 1.257 . S
O26 Eu11 2.473 . S
O27 C10 1.260 . S
O27 Eu11 2.480 . S
O28 Eu11 2.430 . S
O28 C18 1.259 . S
O29 Eu1 2.355 1_455 S
O29 Eu11 2.670 . S
O29 C18 1.270 . S
O30 Eu11 2.394 . S
O30 C19 1.251 . S
O31 Eu1 2.374 1_455 S
O31 C19 1.251 . S
H32 C3 0.931 . S
H33 C4 0.931 . S
H34 C6 0.931 . S
H35 C7 0.931 . S
H36 C13 0.931 . S
H37 C14 0.931 . S
H38 C16 0.931 . S
H39 C17 0.931 . S
C40 Eu41 2.835 . S
C40 C42 1.500 . S
C40 O60 1.257 . S
C40 O61 1.260 . S
Eu41 C40 2.835 . S
Eu41 O60 2.473 . S
Eu41 O61 2.480 . S
Eu41 O62 2.430 . S
Eu41 O63 2.670 . S
Eu41 O64 2.394 . S
Eu41 O69 2.355 . S
Eu41 O71 2.374 1_545 S
C42 C40 1.500 . S
C42 C43 1.377 . S
C42 C47 1.377 . S
C43 C42 1.377 . S
C43 C44 1.395 . S
C43 H72 0.931 . S
C44 C43 1.395 . S
C44 C45 1.383 . S
C44 H73 0.931 . S
C45 C44 1.383 . S
C45 C46 1.394 . S
C46 C45 1.394 . S
C46 C47 1.378 . S
C46 H74 0.931 . S
C47 C42 1.377 . S
C47 C46 1.378 . S
C47 H75 0.931 . S
C48 O62 1.259 . S
C48 O63 1.270 . S
C49 O64 1.251 . S
C49 O65 1.251 . S
C50 Eu51 2.835 . S
C50 C52 1.500 . S
C50 O66 1.257 . S
C50 O67 1.260 . S
Eu51 C50 2.835 . S
Eu51 O63 2.355 1_565 S
Eu51 O65 2.374 1_565 S
Eu51 O66 2.473 . S
Eu51 O67 2.480 . S
Eu51 O68 2.430 . S
Eu51 O69 2.670 1_565 S
Eu51 O70 2.394 . S
C52 C50 1.500 . S
C52 C53 1.377 . S
C52 C57 1.377 . S
C53 C52 1.377 . S
C53 C54 1.395 . S
C53 H76 0.931 . S
C54 C53 1.395 . S
C54 C55 1.383 . S
C54 H77 0.931 . S
C55 C54 1.383 . S
C55 C56 1.394 . S
C56 C55 1.394 . S
C56 C57 1.378 . S
C56 H78 0.931 . S
C57 C52 1.377 . S
C57 C56 1.378 . S
C57 H79 0.931 . S
C58 O68 1.259 1_545 S
C58 O69 1.270 . S
C59 O70 1.251 . S
C59 O71 1.251 . S
O60 C40 1.257 . S
O60 Eu41 2.473 . S
O61 C40 1.260 . S
O61 Eu41 2.480 . S
O62 Eu41 2.430 . S
O62 C48 1.259 . S
O63 Eu41 2.670 . S
O63 C48 1.270 . S
O63 Eu51 2.355 1_545 S
O64 Eu41 2.394 . S
O64 C49 1.251 . S
O65 C49 1.251 . S
O65 Eu51 2.374 1_545 S
O66 C50 1.257 . S
O66 Eu51 2.473 . S
O67 C50 1.260 . S
O67 Eu51 2.480 . S
O68 Eu51 2.430 . S
O68 C58 1.259 1_565 S
O69 Eu41 2.355 . S
O69 Eu51 2.670 1_545 S
O69 C58 1.270 . S
O70 Eu51 2.394 . S
O70 C59 1.251 . S
O71 Eu41 2.374 1_565 S
O71 C59 1.251 . S
H72 C43 0.931 . S
H73 C44 0.931 . S
H74 C46 0.931 . S
H75 C47 0.931 . S
H76 C53 0.931 . S
H77 C54 0.931 . S
H78 C56 0.931 . S
H79 C57 0.931 . S
C80 Eu81 2.835 . S
C80 C82 1.500 . S
C80 O100 1.257 . S
C80 O101 1.260 . S
Eu81 C80 2.835 . S
Eu81 O100 2.473 . S
Eu81 O101 2.480 . S
Eu81 O102 2.430 . S
Eu81 O103 2.670 . S
Eu81 O104 2.394 . S
Eu81 O109 2.355 . S
Eu81 O111 2.374 . S
C82 C80 1.500 . S
C82 C83 1.377 . S
C82 C87 1.377 . S
C83 C82 1.377 . S
C83 C84 1.395 . S
C83 H112 0.931 . S
C84 C83 1.395 . S
C84 C85 1.383 . S
C84 H113 0.931 . S
C85 C84 1.383 . S
C85 C86 1.394 . S
C86 C85 1.394 . S
C86 C87 1.378 . S
C86 H114 0.931 . S
C87 C82 1.377 . S
C87 C86 1.378 . S
C87 H115 0.931 . S
C88 O102 1.259 . S
C88 O103 1.270 . S
C89 O104 1.251 . S
C89 O105 1.251 . S
C90 Eu91 2.835 . S
C90 C92 1.500 . S
C90 O106 1.257 . S
C90 O107 1.260 . S
Eu91 C90 2.835 . S
Eu91 O103 2.355 . S
Eu91 O105 2.374 . S
Eu91 O106 2.473 . S
Eu91 O107 2.480 . S
Eu91 O108 2.430 . S
Eu91 O109 2.670 . S
Eu91 O110 2.394 . S
C92 C90 1.500 . S
C92 C93 1.377 . S
C92 C97 1.377 . S
C93 C92 1.377 . S
C93 C94 1.395 . S
C93 H116 0.931 . S
C94 C93 1.395 . S
C94 C95 1.383 . S
C94 H117 0.931 . S
C95 C94 1.383 . S
C95 C96 1.394 . S
C96 C95 1.394 . S
C96 C97 1.378 . S
C96 H118 0.931 . S
C97 C92 1.377 . S
C97 C96 1.378 . S
C97 H119 0.931 . S
C98 O108 1.259 . S
C98 O109 1.270 . S
C99 O110 1.251 . S
C99 O111 1.251 . S
O100 C80 1.257 . S
O100 Eu81 2.473 . S
O101 C80 1.260 . S
O101 Eu81 2.480 . S
O102 Eu81 2.430 . S
O102 C88 1.259 . S
O103 Eu81 2.670 . S
O103 C88 1.270 . S
O103 Eu91 2.355 . S
O104 Eu81 2.394 . S
O104 C89 1.251 . S
O105 C89 1.251 . S
O105 Eu91 2.374 . S
O106 C90 1.257 . S
O106 Eu91 2.473 . S
O107 C90 1.260 . S
O107 Eu91 2.480 . S
O108 Eu91 2.430 . S
O108 C98 1.259 . S
O109 Eu81 2.355 . S
O109 Eu91 2.670 . S
O109 C98 1.270 . S
O110 Eu91 2.394 . S
O110 C99 1.251 . S
O111 Eu81 2.374 . S
O111 C99 1.251 . S
H112 C83 0.931 . S
H113 C84 0.931 . S
H114 C86 0.931 . S
H115 C87 0.931 . S
H116 C93 0.931 . S
H117 C94 0.931 . S
H118 C96 0.931 . S
H119 C97 0.931 . S
O120 Cd121 2.300 . S
O120 C127 1.275 . S
Cd121 O120 2.300 . S
Cd121 O129 2.381 . S
Cd121 O130 2.378 . S
O122 Cd123 2.385 1_545 S
O122 C127 1.255 . S
Cd123 O122 2.385 1_565 S
Cd123 O124 2.317 . S
O124 Cd123 2.317 . S
O124 C125 1.232 . S
C125 O124 1.232 . S
C125 O126 1.218 . S
O126 C125 1.218 . S
C127 O120 1.275 . S
C127 O122 1.255 . S
C128 O129 1.258 . S
C128 O130 1.256 . S
O129 Cd121 2.381 . S
O129 C128 1.258 . S
O130 Cd121 2.378 . S
O130 C128 1.256 . S
O131 Cd132 2.300 . S
O131 C138 1.275 . S
Cd132 O131 2.300 . S
Cd132 O140 2.381 . S
Cd132 O141 2.378 . S
O133 Cd134 2.385 . S
O133 C138 1.255 . S
Cd134 O133 2.385 . S
Cd134 O135 2.317 . S
O135 Cd134 2.317 . S
O135 C136 1.232 . S
C136 O135 1.232 . S
C136 O137 1.218 . S
O137 C136 1.218 . S
C138 O131 1.275 . S
C138 O133 1.255 . S
C139 O140 1.258 . S
C139 O141 1.256 . S
O140 Cd132 2.381 . S
O140 C139 1.258 . S
O141 Cd132 2.378 . S
O141 C139 1.256 . S
O142 Cd143 2.300 . S
O142 C149 1.275 1_455 S
Cd143 O142 2.300 . S
Cd143 O151 2.381 . S
Cd143 O152 2.378 . S
O144 Cd145 2.385 . S
O144 C149 1.255 . S
Cd145 O144 2.385 . S
Cd145 O146 2.317 . S
O146 Cd145 2.317 . S
O146 C147 1.232 . S
C147 O146 1.232 . S
C147 O148 1.218 . S
O148 C147 1.218 . S
C149 O142 1.275 1_655 S
C149 O144 1.255 . S
C150 O151 1.258 . S
C150 O152 1.256 . S
O151 Cd143 2.381 . S
O151 C150 1.258 . S
O152 Cd143 2.378 . S
O152 C150 1.256 . S
O153 Cd154 2.300 . S
O153 C160 1.275 . S
Cd154 O153 2.300 . S
Cd154 O162 2.381 . S
Cd154 O163 2.378 . S
O155 Cd156 2.385 . S
O155 C160 1.255 1_655 S
Cd156 O155 2.385 . S
Cd156 O157 2.317 . S
O157 Cd156 2.317 . S
O157 C158 1.232 . S
C158 O157 1.232 . S
C158 O159 1.218 . S
O159 C158 1.218 . S
C160 O153 1.275 . S
C160 O155 1.255 1_455 S
C161 O162 1.258 . S
C161 O163 1.256 . S
O162 Cd154 2.381 . S
O162 C161 1.258 . S
O163 Cd154 2.378 . S
O163 C161 1.256 . S
O164 Cd165 2.300 . S
O164 C171 1.275 1_565 S
Cd165 O164 2.300 . S
Cd165 O173 2.381 . S
Cd165 O174 2.378 . S
O166 Cd167 2.385 . S
O166 C171 1.255 . S
Cd167 O166 2.385 . S
Cd167 O168 2.317 . S
O168 Cd167 2.317 . S
O168 C169 1.232 . S
C169 O168 1.232 . S
C169 O170 1.218 . S
O170 C169 1.218 . S
C171 O164 1.275 1_545 S
C171 O166 1.255 . S
C172 O173 1.258 . S
C172 O174 1.256 . S
O173 Cd165 2.381 . S
O173 C172 1.258 . S
O174 Cd165 2.378 . S
O174 C172 1.256 . S
O175 Cd176 2.300 . S
O175 C182 1.275 . S
Cd176 O175 2.300 . S
Cd176 O184 2.381 . S
Cd176 O185 2.378 . S
O177 Cd178 2.385 . S
O177 C182 1.255 . S
Cd178 O177 2.385 . S
Cd178 O179 2.317 . S
O179 Cd178 2.317 . S
O179 C180 1.232 . S
C180 O179 1.232 . S
C180 O181 1.218 . S
O181 C180 1.218 . S
C182 O175 1.275 . S
C182 O177 1.255 . S
C183 O184 1.258 . S
C183 O185 1.256 . S
O184 Cd176 2.381 . S
O184 C183 1.258 . S
O185 Cd176 2.378 . S
O185 C183 1.256 . S
C186 C187 1.363 . S
C186 C192 1.379 . S
C186 N194 1.356 . S
C187 C186 1.363 . S
C187 C193 1.363 . S
C188 C189 1.363 . S
C188 C193 1.379 . S
C188 N195 1.356 . S
C189 C188 1.363 . S
C189 C192 1.363 . S
N190 C192 1.356 . S
N190 H202 0.984 . S
N190 H203 0.985 . S
N191 C193 1.356 . S
N191 H196 0.984 . S
N191 H197 0.985 . S
C192 C186 1.379 . S
C192 C189 1.363 . S
C192 N190 1.356 . S
C193 C187 1.363 . S
C193 C188 1.379 . S
C193 N191 1.356 . S
N194 C186 1.356 . S
N194 H200 0.984 . S
N194 H201 0.984 . S
N195 C188 1.356 . S
N195 H198 0.984 . S
N195 H199 0.985 . S
H196 N191 0.984 . S
H197 N191 0.985 . S
H198 N195 0.984 . S
H199 N195 0.985 . S
H200 N194 0.984 . S
H201 N194 0.984 . S
H202 N190 0.984 . S
H203 N190 0.985 . S
C204 C205 1.363 . S
C204 C210 1.379 . S
C204 N212 1.356 . S
C205 C204 1.363 . S
C205 C211 1.363 . S
C206 C207 1.363 . S
C206 C211 1.379 . S
C206 N213 1.356 . S
C207 C206 1.363 . S
C207 C210 1.363 . S
N208 C210 1.356 . S
N208 H220 0.984 . S
N208 H221 0.985 . S
N209 C211 1.356 . S
N209 H214 0.984 . S
N209 H215 0.985 . S
C210 C204 1.379 . S
C210 C207 1.363 . S
C210 N208 1.356 . S
C211 C205 1.363 . S
C211 C206 1.379 . S
C211 N209 1.356 . S
N212 C204 1.356 . S
N212 H218 0.984 . S
N212 H219 0.984 . S
N213 C206 1.356 . S
N213 H216 0.984 . S
N213 H217 0.985 . S
H214 N209 0.984 . S
H215 N209 0.985 . S
H216 N213 0.984 . S
H217 N213 0.985 . S
H218 N212 0.984 . S
H219 N212 0.984 . S
H220 N208 0.984 . S
H221 N208 0.985 . S
C222 C223 1.363 . S
C222 C228 1.379 . S
C222 N230 1.356 . S
C223 C222 1.363 . S
C223 C229 1.363 . S
C224 C225 1.363 . S
C224 C229 1.379 . S
C224 N231 1.356 . S
C225 C224 1.363 . S
C225 C228 1.363 . S
N226 C228 1.356 . S
N226 H238 0.984 . S
N226 H239 0.985 . S
N227 C229 1.356 . S
N227 H232 0.984 . S
N227 H233 0.985 . S
C228 C222 1.379 . S
C228 C225 1.363 . S
C228 N226 1.356 . S
C229 C223 1.363 . S
C229 C224 1.379 . S
C229 N227 1.356 . S
N230 C222 1.356 . S
N230 H236 0.984 . S
N230 H237 0.984 . S
N231 C224 1.356 . S
N231 H234 0.984 . S
N231 H235 0.985 . S
H232 N227 0.984 . S
H233 N227 0.985 . S
H234 N231 0.984 . S
H235 N231 0.985 . S
H236 N230 0.984 . S
H237 N230 0.984 . S
H238 N226 0.984 . S
H239 N226 0.985 . S
C240 C241 1.363 . S
C240 C246 1.379 . S
C240 N248 1.356 . S
C241 C240 1.363 . S
C241 C247 1.363 . S
C242 C243 1.363 . S
C242 C247 1.379 . S
C242 N249 1.356 . S
C243 C242 1.363 . S
C243 C246 1.363 . S
N244 C246 1.356 . S
N244 H256 0.984 . S
N244 H257 0.985 . S
N245 C247 1.356 . S
N245 H250 0.984 . S
N245 H251 0.985 . S
C246 C240 1.379 . S
C246 C243 1.363 . S
C246 N244 1.356 . S
C247 C241 1.363 . S
C247 C242 1.379 . S
C247 N245 1.356 . S
N248 C240 1.356 . S
N248 H254 0.984 . S
N248 H255 0.984 . S
N249 C242 1.356 . S
N249 H252 0.984 . S
N249 H253 0.985 . S
H250 N245 0.984 . S
H251 N245 0.985 . S
H252 N249 0.984 . S
H253 N249 0.985 . S
H254 N248 0.984 . S
H255 N248 0.984 . S
H256 N244 0.984 . S
H257 N244 0.985 . S
C258 C259 1.363 . S
C258 C264 1.379 . S
C258 N266 1.356 . S
C259 C258 1.363 . S
C259 C265 1.363 . S
C260 C261 1.363 . S
C260 C265 1.379 . S
C260 N267 1.356 . S
C261 C260 1.363 . S
C261 C264 1.363 . S
N262 C264 1.356 . S
N262 H274 0.984 . S
N262 H275 0.985 . S
N263 C265 1.356 . S
N263 H268 0.984 . S
N263 H269 0.985 . S
C264 C258 1.379 . S
C264 C261 1.363 . S
C264 N262 1.356 . S
C265 C259 1.363 . S
C265 C260 1.379 . S
C265 N263 1.356 . S
N266 C258 1.356 . S
N266 H272 0.984 . S
N266 H273 0.984 . S
N267 C260 1.356 . S
N267 H270 0.984 . S
N267 H271 0.985 . S
H268 N263 0.984 . S
H269 N263 0.985 . S
H270 N267 0.984 . S
H271 N267 0.985 . S
H272 N266 0.984 . S
H273 N266 0.984 . S
H274 N262 0.984 . S
H275 N262 0.985 . S
C276 C277 1.363 . S
C276 C282 1.379 . S
C276 N284 1.356 . S
C277 C276 1.363 . S
C277 C283 1.363 . S
C278 C279 1.363 . S
C278 C283 1.379 . S
C278 N285 1.356 . S
C279 C278 1.363 . S
C279 C282 1.363 . S
N280 C282 1.356 . S
N280 H292 0.984 . S
N280 H293 0.985 . S
N281 C283 1.356 . S
N281 H286 0.984 . S
N281 H287 0.985 . S
C282 C276 1.379 . S
C282 C279 1.363 . S
C282 N280 1.356 . S
C283 C277 1.363 . S
C283 C278 1.379 . S
C283 N281 1.356 . S
N284 C276 1.356 . S
N284 H290 0.984 . S
N284 H291 0.984 . S
N285 C278 1.356 . S
N285 H288 0.984 . S
N285 H289 0.985 . S
H286 N281 0.984 . S
H287 N281 0.985 . S
H288 N285 0.984 . S
H289 N285 0.985 . S
H290 N284 0.984 . S
H291 N284 0.984 . S
H292 N280 0.984 . S
H293 N280 0.985 . S
C294 C295 1.363 . S
C294 C300 1.379 . S
C294 N302 1.356 . S
C295 C294 1.363 . S
C295 C301 1.363 . S
C296 C297 1.363 . S
C296 C301 1.379 . S
C296 N303 1.356 . S
C297 C296 1.363 . S
C297 C300 1.363 . S
N298 C300 1.356 . S
N298 H310 0.984 . S
N298 H311 0.985 . S
N299 C301 1.356 . S
N299 H304 0.984 . S
N299 H305 0.985 . S
C300 C294 1.379 . S
C300 C297 1.363 . S
C300 N298 1.356 . S
C301 C295 1.363 . S
C301 C296 1.379 . S
C301 N299 1.356 . S
N302 C294 1.356 . S
N302 H308 0.984 . S
N302 H309 0.984 . S
N303 C296 1.356 . S
N303 H306 0.984 . S
N303 H307 0.985 . S
H304 N299 0.984 . S
H305 N299 0.985 . S
H306 N303 0.984 . S
H307 N303 0.985 . S
H308 N302 0.984 . S
H309 N302 0.984 . S
H310 N298 0.984 . S
H311 N298 0.985 . S
C312 C313 1.363 . S
C312 C318 1.379 . S
C312 N320 1.356 . S
C313 C312 1.363 . S
C313 C319 1.363 . S
C314 C315 1.363 . S
C314 C319 1.379 . S
C314 N321 1.356 . S
C315 C314 1.363 . S
C315 C318 1.363 . S
N316 C318 1.356 . S
N316 H328 0.984 . S
N316 H329 0.985 . S
N317 C319 1.356 . S
N317 H322 0.984 . S
N317 H323 0.985 . S
C318 C312 1.379 . S
C318 C315 1.363 . S
C318 N316 1.356 . S
C319 C313 1.363 . S
C319 C314 1.379 . S
C319 N317 1.356 . S
N320 C312 1.356 . S
N320 H326 0.984 . S
N320 H327 0.984 . S
N321 C314 1.356 . S
N321 H324 0.984 . S
N321 H325 0.985 . S
H322 N317 0.984 . S
H323 N317 0.985 . S
H324 N321 0.984 . S
H325 N321 0.985 . S
H326 N320 0.984 . S
H327 N320 0.984 . S
H328 N316 0.984 . S
H329 N316 0.985 . S
C330 C331 1.363 . S
C330 C336 1.379 . S
C330 N338 1.356 . S
C331 C330 1.363 . S
C331 C337 1.363 . S
C332 C333 1.363 . S
C332 C337 1.379 . S
C332 N339 1.356 . S
C333 C332 1.363 . S
C333 C336 1.363 . S
N334 C336 1.356 . S
N334 H346 0.984 . S
N334 H347 0.990 . S
N335 C337 1.356 . S
N335 H340 0.984 . S
N335 H341 0.985 . S
C336 C330 1.379 . S
C336 C333 1.363 . S
C336 N334 1.356 . S
C337 C331 1.363 . S
C337 C332 1.379 . S
C337 N335 1.356 . S
N338 C330 1.356 . S
N338 H344 0.984 . S
N338 H345 0.984 . S
N339 C332 1.356 . S
N339 H342 0.984 . S
N339 H343 0.985 . S
H340 N335 0.984 . S
H341 N335 0.985 . S
H342 N339 0.984 . S
H343 N339 0.985 . S
H344 N338 0.984 . S
H345 N338 0.984 . S
H346 N334 0.984 . S
H347 N334 0.990 . S
C348 C349 1.363 . S
C348 C354 1.379 . S
C348 N356 1.356 . S
C349 C348 1.363 . S
C349 C355 1.363 . S
C350 C351 1.363 . S
C350 C355 1.379 . S
C350 N357 1.356 . S
C351 C350 1.363 . S
C351 C354 1.363 . S
N352 C354 1.356 . S
N352 H364 0.984 . S
N352 H365 0.985 . S
N353 C355 1.356 . S
N353 H358 0.984 . S
N353 H359 0.985 . S
C354 C348 1.379 . S
C354 C351 1.363 . S
C354 N352 1.356 . S
C355 C349 1.363 . S
C355 C350 1.379 . S
C355 N353 1.356 . S
N356 C348 1.356 . S
N356 H362 0.984 . S
N356 H363 0.984 . S
N357 C350 1.356 . S
N357 H360 0.984 . S
N357 H361 0.985 . S
H358 N353 0.984 . S
H359 N353 0.985 . S
H360 N357 0.984 . S
H361 N357 0.985 . S
H362 N356 0.984 . S
H363 N356 0.984 . S
H364 N352 0.984 . S
H365 N352 0.985 . S
C366 C367 1.363 . S
C366 C372 1.379 . S
C366 N374 1.356 . S
C367 C366 1.363 . S
C367 C373 1.363 . S
C368 C369 1.363 . S
C368 C373 1.379 . S
C368 N375 1.356 . S
C369 C368 1.363 . S
C369 C372 1.363 . S
N370 C372 1.356 . S
N370 H382 0.984 . S
N370 H383 0.985 . S
N371 C373 1.356 . S
N371 H376 0.984 . S
N371 H377 0.985 . S
C372 C366 1.379 . S
C372 C369 1.363 . S
C372 N370 1.356 . S
C373 C367 1.363 . S
C373 C368 1.379 . S
C373 N371 1.356 . S
N374 C366 1.356 . S
N374 H380 0.984 . S
N374 H381 0.984 . S
N375 C368 1.356 . S
N375 H378 0.984 . S
N375 H379 0.985 . S
H376 N371 0.984 . S
H377 N371 0.985 . S
H378 N375 0.984 . S
H379 N375 0.985 . S
H380 N374 0.984 . S
H381 N374 0.984 . S
H382 N370 0.984 . S
H383 N370 0.985 . S
C384 C385 1.363 . S
C384 C390 1.379 . S
C384 N392 1.356 . S
C385 C384 1.363 . S
C385 C391 1.363 . S
C386 C387 1.363 . S
C386 C391 1.379 . S
C386 N393 1.356 . S
C387 C386 1.363 . S
C387 C390 1.363 . S
N388 C390 1.356 . S
N388 H400 0.984 . S
N388 H401 0.985 . S
N389 C391 1.356 . S
N389 H394 0.984 . S
N389 H395 0.985 . S
C390 C384 1.379 . S
C390 C387 1.363 . S
C390 N388 1.356 . S
C391 C385 1.363 . S
C391 C386 1.379 . S
C391 N389 1.356 . S
N392 C384 1.356 . S
N392 H398 0.984 . S
N392 H399 0.984 . S
N393 C386 1.356 . S
N393 H396 0.984 . S
N393 H397 0.985 . S
H394 N389 0.984 . S
H395 N389 0.985 . S
H396 N393 0.984 . S
H397 N393 0.985 . S
H398 N392 0.984 . S
H399 N392 0.984 . S
H400 N388 0.984 . S
H401 N388 0.985 . S
C402 C403 1.363 . S
C402 C408 1.379 . S
C402 N410 1.356 . S
C403 C402 1.363 . S
C403 C409 1.363 1_455 S
C404 C405 1.363 . S
C404 C409 1.379 1_556 S
C404 N411 1.356 . S
C405 C404 1.363 . S
C405 C408 1.363 1_656 S
N406 C408 1.356 1_556 S
N406 H418 0.984 . S
N406 H419 0.987 . S
N407 C409 1.356 . S
N407 H412 0.984 1_655 S
N407 H413 0.985 . S
C408 C402 1.379 . S
C408 C405 1.363 1_454 S
C408 N406 1.356 1_554 S
C409 C403 1.363 1_655 S
C409 C404 1.379 1_554 S
C409 N407 1.356 . S
N410 C402 1.356 . S
N410 H416 0.984 . S
N410 H417 0.984 . S
N411 C404 1.356 . S
N411 H414 0.984 . S
N411 H415 0.985 . S
H412 N407 0.984 1_455 S
H413 N407 0.985 . S
H414 N411 0.984 . S
H415 N411 0.985 . S
H416 N410 0.984 . S
H417 N410 0.984 . S
H418 N406 0.984 . S
H419 N406 0.987 . S
C420 C421 1.363 1_565 S
C420 C426 1.379 . S
C420 N428 1.356 . S
C421 C420 1.363 1_545 S
C421 C427 1.363 . S
C422 C423 1.363 . S
C422 C427 1.379 . S
C422 N429 1.356 . S
C423 C422 1.363 . S
C423 C426 1.363 1_545 S
N424 C426 1.356 . S
N424 H436 0.984 . S
N424 H437 0.985 . S
N425 C427 1.356 . S
N425 H430 0.984 . S
N425 H431 0.985 . S
C426 C420 1.379 . S
C426 C423 1.363 1_565 S
C426 N424 1.356 . S
C427 C421 1.363 . S
C427 C422 1.379 . S
C427 N425 1.356 . S
N428 C420 1.356 . S
N428 H434 0.984 . S
N428 H435 0.984 . S
N429 C422 1.356 . S
N429 H432 0.984 . S
N429 H433 0.985 . S
H430 N425 0.984 . S
H431 N425 0.985 . S
H432 N429 0.984 . S
H433 N429 0.985 . S
H434 N428 0.984 . S
H435 N428 0.984 . S
H436 N424 0.984 . S
H437 N424 0.985 . S
C438 C439 1.363 . S
C438 C444 1.379 . S
C438 N446 1.356 . S
C439 C438 1.363 . S
C439 C445 1.363 . S
C440 C441 1.363 . S
C440 C445 1.379 . S
C440 N447 1.356 . S
C441 C440 1.363 . S
C441 C444 1.363 . S
N442 C444 1.356 . S
N442 H454 0.984 . S
N442 H455 0.985 . S
N443 C445 1.356 . S
N443 H448 0.984 . S
N443 H449 0.985 . S
C444 C438 1.379 . S
C444 C441 1.363 . S
C444 N442 1.356 . S
C445 C439 1.363 . S
C445 C440 1.379 . S
C445 N443 1.356 . S
N446 C438 1.356 . S
N446 H452 0.984 . S
N446 H453 0.984 . S
N447 C440 1.356 . S
N447 H450 0.984 . S
N447 H451 0.985 . S
H448 N443 0.984 . S
H449 N443 0.985 . S
H450 N447 0.984 . S
H451 N447 0.985 . S
H452 N446 0.984 . S
H453 N446 0.984 . S
H454 N442 0.984 . S
H455 N442 0.985 . S
C456 C457 1.363 1_565 S
C456 C462 1.379 . S
C456 N464 1.356 . S
C457 C456 1.363 1_545 S
C457 C463 1.363 . S
C458 C459 1.363 . S
C458 C463 1.379 . S
C458 N465 1.356 . S
C459 C458 1.363 . S
C459 C462 1.363 1_545 S
N460 C462 1.356 . S
N460 H472 0.984 . S
N460 H473 0.985 . S
N461 C463 1.356 . S
N461 H466 0.984 . S
N461 H467 0.985 . S
C462 C456 1.379 . S
C462 C459 1.363 1_565 S
C462 N460 1.356 . S
C463 C457 1.363 . S
C463 C458 1.379 . S
C463 N461 1.356 . S
N464 C456 1.356 . S
N464 H470 0.984 . S
N464 H471 0.984 . S
N465 C458 1.356 . S
N465 H468 0.984 . S
N465 H469 0.985 . S
H466 N461 0.984 . S
H467 N461 0.985 . S
H468 N465 0.984 . S
H469 N465 0.985 . S
H470 N464 0.984 . S
H471 N464 0.984 . S
H472 N460 0.984 . S
H473 N460 0.985 . S
C474 C475 1.363 . S
C474 C480 1.379 . S
C474 N482 1.356 . S
C475 C474 1.363 . S
C475 C481 1.363 . S
C476 C477 1.363 1_556 S
C476 C481 1.379 . S
C476 N483 1.356 1_556 S
C477 C476 1.363 1_554 S
C477 C480 1.363 1_554 S
N478 C480 1.356 1_554 S
N478 H490 0.984 . S
N478 H491 0.985 . S
N479 C481 1.356 . S
N479 H484 0.984 . S
N479 H485 0.985 . S
C480 C474 1.379 . S
C480 C477 1.363 1_556 S
C480 N478 1.356 1_556 S
C481 C475 1.363 . S
C481 C476 1.379 . S
C481 N479 1.356 . S
N482 C474 1.356 . S
N482 H488 0.984 . S
N482 H489 0.984 . S
N483 C476 1.356 1_554 S
N483 H486 0.984 . S
N483 H487 0.985 . S
H484 N479 0.984 . S
H485 N479 0.985 . S
H486 N483 0.984 . S
H487 N483 0.985 . S
H488 N482 0.984 . S
H489 N482 0.984 . S
H490 N478 0.984 . S
H491 N478 0.985 . S
C492 C493 1.363 1_655 S
C492 C498 1.379 . S
C492 N500 1.356 . S
C493 C492 1.363 1_455 S
C493 C499 1.363 . S
C494 C495 1.363 . S
C494 C499 1.379 . S
C494 N501 1.356 . S
C495 C494 1.363 . S
C495 C498 1.363 1_455 S
N496 C498 1.356 . S
N496 H508 0.984 . S
N496 H509 0.985 . S
N497 C499 1.356 . S
N497 H502 0.984 . S
N497 H503 0.985 . S
C498 C492 1.379 . S
C498 C495 1.363 1_655 S
C498 N496 1.356 . S
C499 C493 1.363 . S
C499 C494 1.379 . S
C499 N497 1.356 . S
N500 C492 1.356 . S
N500 H506 0.984 . S
N500 H507 0.984 . S
N501 C494 1.356 . S
N501 H504 0.984 . S
N501 H505 0.985 . S
H502 N497 0.984 . S
H503 N497 0.985 . S
H504 N501 0.984 . S
H505 N501 0.985 . S
H506 N500 0.984 . S
H507 N500 0.984 . S
H508 N496 0.984 . S
H509 N496 0.985 . S
C187 C19 3.174 . S
C189 C180 2.830 . S
C205 C49 3.241 . S
C207 C158 2.892 . S
C223 C99 2.973 . S
C225 C172 2.893 . S
C241 C9 3.018 . S
C243 C183 2.940 . S
C261 C161 2.892 . S
C259 C59 2.972 . S
C279 C169 2.891 . S
C277 C89 3.240 . S
C295 C55 0.700 . S
C297 C136 0.746 . S
C313 C85 0.725 . S
C315 C147 0.714 . S
C331 C15 0.687 . S
C333 C125 0.745 . S
C351 C139 0.523 . S
C349 C45 0.621 . S
C369 C150 0.432 . S
C367 C95 0.526 . S
C385 C5 0.622 . S
C387 C128 0.519 . S
C405 C149 1.099 . S
C403 C18 1.116 . S
C421 C58 1.149 . S
C423 C127 1.080 . S
C439 C98 1.146 . S
C441 C138 1.078 . S
C459 C171 1.701 . S
C457 C48 1.687 . S
C477 C182 1.714 . S
C475 C88 1.737 . S
C493 C8 1.689 . S
C495 C160 1.705 . S
