# Generated by pormake.
# Topology nia, (6,6)-cn, num edge types: 1
# Building blocks:
#     Node 0, Type 0, BuildingBlock: CIFDUS_clean_sbu_1, # of connection points: 6
#     Node 1, Type 0, BuildingBlock: CIFDUS_clean_sbu_1, # of connection points: 6
#     Node 2, Type 1, BuildingBlock: MIDCAF_clean_sbu_0, # of connection points: 6
#     Node 3, Type 1, BuildingBlock: MIDCAF_clean_sbu_0, # of connection points: 6
#     Edge 4, Type (0, 1), BuildingBlock: ZUJKAS_clean_linker_0, # of connection points: 2
#     Edge 5, Type (0, 1), BuildingBlock: ZUJKAS_clean_linker_0, # of connection points: 2
#     Edge 6, Type (0, 1), BuildingBlock: ZUJKAS_clean_linker_0, # of connection points: 2
#     Edge 7, Type (0, 1), BuildingBlock: ZUJKAS_clean_linker_0, # of connection points: 2
#     Edge 8, Type (0, 1), BuildingBlock: ZUJKAS_clean_linker_0, # of connection points: 2
#     Edge 9, Type (0, 1), BuildingBlock: ZUJKAS_clean_linker_0, # of connection points: 2
#     Edge 10, Type (0, 1), BuildingBlock: ZUJKAS_clean_linker_0, # of connection points: 2
#     Edge 11, Type (0, 1), BuildingBlock: ZUJKAS_clean_linker_0, # of connection points: 2
#     Edge 12, Type (0, 1), BuildingBlock: ZUJKAS_clean_linker_0, # of connection points: 2
#     Edge 13, Type (0, 1), BuildingBlock: ZUJKAS_clean_linker_0, # of connection points: 2
#     Edge 14, Type (0, 1), BuildingBlock: ZUJKAS_clean_linker_0, # of connection points: 2
#     Edge 15, Type (0, 1), BuildingBlock: ZUJKAS_clean_linker_0, # of connection points: 2
# Relax obj value: 0.123
# Max RMSD: 0.237
# Mean RMSD: 0.158
data_MOF--net-nia--node1-CIFDUS_clean_sbu_1--node2-MIDCAF_clean_sbu_0--edge1-ZUJKAS_clean_linker_0
_symmetry_space_group_name_H-M    P1
_symmetry_Int_Tables_number       1
_symmetry_cell_setting            triclinic
loop_
_symmetry_equiv_pos_as_xyz
'x, y, z'
_cell_length_a     30.955572
_cell_length_b     30.98628
_cell_length_c     40.328853
_cell_angle_alpha  88.955642
_cell_angle_beta   89.094778
_cell_angle_gamma 127.95061
loop_
_atom_site_label
_atom_site_type_symbol
_atom_site_fract_x
_atom_site_fract_y
_atom_site_fract_z
_atom_type_partial_charge
O0 O 0.96367 0.94797 1.01186 0.0
Mn1 Mn -0.01627 0.00549 0.04822 0.0
O2 O 0.88789 0.86651 1.03103 0.0
Mn3 Mn 0.89226 0.88749 0.07416 0.0
O4 O 0.00386 0.06297 0.08471 0.0
O5 O 0.05737 0.0574 1.0247 0.0
Mn6 Mn 0.07599 0.12376 1.02299 0.0
O7 O 0.9511 0.03452 1.01812 0.0
O8 O 0.08118 0.14379 0.06637 0.0
O9 O 0.01679 0.97689 0.07838 0.0
O10 O 0.94515 0.89461 0.10002 0.0
O11 O 0.1326 0.12962 1.00186 0.0
O12 O 0.02277 0.11822 0.99838 0.0
C13 C 0.86418 0.93277 0.08779 0.0
C14 C 0.92372 0.89694 1.00815 0.0
C15 C 0.04461 0.11359 0.08894 0.0
C16 C 0.10251 0.07742 1.00821 0.0
C17 C 0.97164 0.07798 0.99975 0.0
C18 C -0.00379 0.93469 0.09792 0.0
O19 O 0.90978 0.95344 0.07162 0.0
O20 O 0.83475 0.88071 0.09448 0.0
O21 O 0.02777 0.01349 0.58995 0.0
Mn22 Mn -0.0261 -0.00394 0.55148 0.0
O23 O 0.10899 0.09392 0.57611 0.0
Mn24 Mn 0.09411 0.09081 0.53175 0.0
O25 O 0.91941 0.97788 0.5132 0.0
O26 O 0.92062 0.92104 0.57286 0.0
Mn27 Mn 0.8539 0.90165 0.57328 0.0
O28 O 0.94164 0.02596 0.58093 0.0
O29 O 0.83731 0.89974 0.52935 0.0
O30 O 0.00647 0.96647 0.52203 0.0
O31 O 0.09271 0.03967 0.5074 0.0
O32 O 0.84786 0.84422 0.59351 0.0
O33 O 0.85737 0.95283 0.59889 0.0
C34 C 0.04895 0.11724 0.51406 0.0
C35 C 0.07693 0.05468 0.59686 0.0
C36 C 0.86913 0.93745 0.50765 0.0
C37 C 0.90044 0.87524 0.58846 0.0
C38 C 0.89722 0.00404 0.59856 0.0
C39 C 0.0525 0.9887 0.50618 0.0
O40 O 0.02737 0.07128 0.53001 0.0
O41 O 0.10174 0.14808 0.51021 0.0
Zn42 Zn 0.29141 0.68287 0.23596 0.0
Zn43 Zn 0.29742 0.68675 0.36398 0.0
Zn44 Zn 0.29361 0.6859 0.30011 0.0
C45 C 0.40419 0.73935 0.34267 0.0
C46 C 0.2248 0.57724 0.34902 0.0
O47 O 0.25419 0.72294 0.28303 0.0
O48 O 0.24251 0.70312 0.22996 0.0
C49 C 0.40131 0.75639 0.25063 0.0
O50 O 0.38157 0.73424 0.31483 0.0
O51 O 0.37503 0.7176 0.36899 0.0
O52 O 0.23969 0.60746 0.37363 0.0
O53 O 0.2432 0.59892 0.31953 0.0
O54 O 0.37054 0.74126 0.22624 0.0
O55 O 0.38033 0.73762 0.2802 0.0
O56 O 0.24627 0.59864 0.28488 0.0
O57 O 0.261 0.6055 0.23048 0.0
C58 C 0.24044 0.57631 0.25687 0.0
O59 O 0.25527 0.72337 0.31819 0.0
O60 O 0.27666 0.73497 0.37103 0.0
C61 C 0.2359 0.72334 0.25458 0.0
C62 C 0.25529 0.74115 0.34687 0.0
Zn63 Zn 0.659 0.31535 0.86467 0.0
Zn64 Zn 0.66066 0.31627 0.73474 0.0
Zn65 Zn 0.66204 0.31527 0.79967 0.0
C66 C 0.71644 0.42425 0.75232 0.0
C67 C 0.55195 0.24684 0.75551 0.0
O68 O 0.6962 0.27364 0.8171 0.0
O69 O 0.67754 0.26471 0.87113 0.0
C70 C 0.73046 0.42457 0.844 0.0
O71 O 0.71125 0.40203 0.78099 0.0
O72 O 0.69305 0.39467 0.72764 0.0
O73 O 0.58059 0.25883 0.72929 0.0
O74 O 0.57533 0.26623 0.7834 0.0
O75 O 0.71695 0.39518 0.87008 0.0
O76 O 0.71184 0.40202 0.81582 0.0
O77 O 0.57515 0.26632 0.81816 0.0
O78 O 0.58062 0.2835 0.87157 0.0
C79 C 0.55191 0.26053 0.84651 0.0
O80 O 0.70314 0.28036 0.78256 0.0
O81 O 0.71078 0.29716 0.72834 0.0
C82 C 0.69522 0.25506 0.8462 0.0
C83 C 0.72092 0.28023 0.75346 0.0
H84 H -0.01783 0.91544 0.1641 0.0
H85 H 0.0306 0.89548 0.20053 0.0
H86 H 0.13495 0.92137 0.11756 0.0
H87 H 0.08833 0.94473 0.08153 0.0
H88 H 0.02785 0.81275 0.19764 0.0
H89 H 0.24655 -0.00834 0.18639 0.0
H90 H 0.19337 -0.00607 0.17131 0.0
H91 H 0.2199 0.96691 0.14617 0.0
C92 C 0.01659 0.91845 0.15394 0.0
C93 C 0.03181 0.9318 0.12014 0.0
C94 C 0.04415 0.90685 0.17472 0.0
C95 C 0.08685 0.90712 0.16204 0.0
C96 C 0.1033 0.92229 0.12834 0.0
H97 H 0.15524 0.69079 0.21213 0.0
H98 H 0.11877 0.73843 0.19589 0.0
C99 C 0.07648 0.93533 0.10765 0.0
C100 C 0.10903 0.88508 0.18306 0.0
H101 H 0.22686 0.90579 0.20437 0.0
C102 C 0.07148 0.83385 0.19953 0.0
C103 C 0.1659 0.91255 0.18632 0.0
C104 C 0.20865 0.96958 0.17189 0.0
C105 C 0.08898 0.80826 0.21751 0.0
C106 C 0.14555 0.8335 0.21822 0.0
C107 C 0.18338 0.88605 0.20347 0.0
C108 C 0.16546 0.80328 0.23063 0.0
C109 C 0.04648 0.75386 0.23515 0.0
C110 C 0.20435 0.82403 0.25551 0.0
C111 C 0.22571 0.79675 0.26477 0.0
C112 C 0.20852 0.74853 0.24918 0.0
C113 C 0.16888 0.72755 0.22483 0.0
C114 C 0.14775 0.75463 0.21562 0.0
H115 H 0.00927 0.7498 0.24225 0.0
H116 H 0.03387 0.72034 0.21825 0.0
H117 H 0.06283 0.74849 0.25784 0.0
H118 H 0.21891 0.86176 0.26725 0.0
H119 H 0.2572 0.81453 0.28302 0.0
H120 H 0.07983 0.97555 0.62486 0.0
H121 H 0.14571 -0.00881 0.66592 0.0
H122 H 0.19675 0.15394 0.67972 0.0
H123 H 0.13231 0.13904 0.63828 0.0
H124 H 0.26688 0.10371 0.64554 0.0
H125 H 0.19304 0.07798 0.77655 0.0
H126 H 0.14707 0.03542 0.74421 0.0
H127 H 0.174 0.10565 0.74547 0.0
C128 C 0.10327 0.01361 0.63784 0.0
C129 C 0.10096 0.05606 0.62855 0.0
C130 C 0.14101 0.02261 0.66119 0.0
C131 C 0.17582 0.07363 0.67602 0.0
C132 C 0.16976 0.11406 0.66896 0.0
H133 H 0.48193 0.26687 0.77743 0.0
H134 H 0.38609 0.21786 0.76187 0.0
C135 C 0.13294 0.1055 0.64528 0.0
C136 C 0.22587 0.08939 0.69262 0.0
H137 H 0.28671 0.11774 0.76754 0.0
C138 C 0.27108 0.10599 0.67225 0.0
C139 C 0.23142 0.09376 0.72734 0.0
C140 C 0.18393 0.07721 0.74993 0.0
C141 C 0.32223 0.12813 0.68549 0.0
C142 C 0.32794 0.13162 0.7204 0.0
C143 C 0.28235 0.1145 0.74089 0.0
C144 C 0.38168 0.15505 0.73546 0.0
C145 C 0.37022 0.15014 0.66161 0.0
C146 C 0.41008 0.13441 0.72755 0.0
C147 C 0.46492 0.16304 0.73567 0.0
C148 C 0.49178 0.21162 0.75309 0.0
C149 C 0.46197 0.22945 0.76396 0.0
C150 C 0.40727 0.20145 0.75509 0.0
H151 H 0.36268 0.15926 0.63654 0.0
H152 H 0.40836 0.18816 0.67063 0.0
H153 H 0.3768 0.11897 0.65894 0.0
H154 H 0.39074 0.09769 0.71346 0.0
H155 H 0.48699 0.14825 0.72731 0.0
H156 H 0.96299 0.09591 0.13063 0.0
H157 H -0.0246 0.15489 0.17575 0.0
H158 H 0.15084 0.25237 0.16152 0.0
H159 H 0.13876 0.19372 0.11741 0.0
H160 H 0.11907 0.23866 0.22798 0.0
H161 H 0.02168 0.3073 0.1513 0.0
H162 H -0.01856 0.23552 0.16223 0.0
H163 H 0.04008 0.26689 0.13442 0.0
C164 C 0.00406 0.129 0.13787 0.0
C165 C 0.04989 0.14052 0.12029 0.0
C166 C 0.01115 0.16305 0.16337 0.0
C167 C 0.06413 0.20881 0.17161 0.0
C168 C 0.1096 0.2176 0.15561 0.0
H169 H 0.27776 0.52579 0.22933 0.0
H170 H 0.22538 0.42864 0.21767 0.0
C171 C 0.1026 0.18405 0.13026 0.0
C172 C 0.07387 0.25108 0.19442 0.0
H173 H 0.07136 0.35981 0.19647 0.0
C174 C 0.10744 0.26434 0.22159 0.0
C175 C 0.05874 0.28472 0.18616 0.0
C176 C 0.02376 0.27339 0.15688 0.0
C177 C 0.12918 0.31211 0.2392 0.0
C178 C 0.11739 0.34775 0.22931 0.0
C179 C 0.08033 0.33235 0.20397 0.0
C180 C 0.14973 0.40471 0.24091 0.0
C181 C 0.16672 0.32552 0.26731 0.0
C182 C 0.12467 0.42359 0.25803 0.0
C183 C 0.15491 0.47929 0.26504 0.0
C184 C 0.21029 0.51674 0.25459 0.0
C185 C 0.23532 0.49753 0.23801 0.0
C186 C 0.20548 0.44205 0.23146 0.0
H187 H 0.15935 0.28813 0.27803 0.0
H188 H 0.20991 0.35371 0.25783 0.0
H189 H 0.16126 0.34617 0.28726 0.0
H190 H 0.08154 0.39555 0.26521 0.0
H191 H 0.1346 0.49344 0.27742 0.0
H192 H 0.95496 0.11595 0.59439 0.0
H193 H 0.93877 0.17081 0.62758 0.0
H194 H 0.80927 0.02534 0.68343 0.0
H195 H 0.82486 0.97052 0.65068 0.0
H196 H 0.8346 0.15 0.63077 0.0
H197 H 0.89852 0.13773 0.75617 0.0
H198 H 0.92161 0.12496 0.71885 0.0
H199 H 0.85412 0.07327 0.73642 0.0
C200 C 0.92359 0.09583 0.61405 0.0
C201 C 0.891 0.03878 0.6197 0.0
C202 C 0.91444 0.1272 0.63301 0.0
C203 C 0.87336 0.10223 0.65831 0.0
C204 C 0.84188 0.04564 0.66452 0.0
H205 H 0.69777 0.18396 0.77645 0.0
H206 H 0.74071 0.14343 0.75619 0.0
C207 C 0.85054 0.01427 0.64546 0.0
C208 C 0.85909 0.13379 0.67593 0.0
H209 H 0.84545 0.16965 0.75288 0.0
C210 C 0.83771 0.15502 0.6574 0.0
C211 C 0.86221 0.13928 0.71076 0.0
C212 C 0.88576 0.11802 0.73177 0.0
C213 C 0.81801 0.18036 0.67275 0.0
C214 C 0.82139 0.18629 0.70761 0.0
C215 C 0.84314 0.16536 0.7262 0.0
C216 C 0.80193 0.2138 0.72477 0.0
C217 C 0.79179 0.19864 0.65152 0.0
C218 C 0.82405 0.26773 0.71535 0.0
C219 C 0.79936 0.29042 0.72656 0.0
C220 C 0.75303 0.26024 0.74814 0.0
C221 C 0.73372 0.2081 0.75998 0.0
C222 C 0.75808 0.18495 0.74833 0.0
H223 H 0.77852 0.17748 0.62759 0.0
H224 H 0.75561 0.19079 0.6646 0.0
H225 H 0.82201 0.24326 0.64578 0.0
H226 H 0.85874 0.29129 0.69792 0.0
H227 H 0.81513 0.33086 0.71724 0.0
H228 H 0.89455 0.9845 0.14568 0.0
H229 H 0.82929 0.98223 0.1823 0.0
H230 H 0.72415 0.93964 0.10003 0.0
H231 H 0.78907 0.9414 0.06356 0.0
H232 H 0.74236 0.01397 0.17715 0.0
H233 H 0.66943 0.79921 0.17054 0.0
H234 H 0.74049 0.85736 0.16325 0.0
H235 H 0.69149 0.83921 0.13226 0.0
C236 C 0.8595 0.97869 0.13493 0.0
C237 C 0.84687 0.96345 0.1018 0.0
C238 C 0.82193 0.97685 0.15598 0.0
C239 C 0.77165 0.96008 0.14391 0.0
C240 C 0.76286 0.95289 0.10975 0.0
H241 H 0.45489 0.8444 0.20826 0.0
H242 H 0.55083 0.90081 0.18951 0.0
C243 C 0.80028 0.95446 0.08881 0.0
C244 C 0.72398 0.93638 0.16717 0.0
H245 H 0.61073 0.81254 0.19726 0.0
C246 C 0.71375 0.97005 0.1819 0.0
C247 C 0.68748 0.87918 0.17389 0.0
C248 C 0.6976 0.84138 0.1594 0.0
C249 C 0.66632 0.94744 0.20211 0.0
C250 C 0.62798 0.88977 0.20709 0.0
C251 C 0.63993 0.85665 0.19356 0.0
C252 C 0.57266 0.86204 0.22295 0.0
C253 C 0.65766 0.98549 0.21778 0.0
C254 C 0.55242 0.82092 0.24795 0.0
C255 C 0.49702 0.78787 0.25835 0.0
C256 C 0.46115 0.79567 0.24406 0.0
C257 C 0.48188 0.83797 0.21996 0.0
C258 C 0.53695 0.87073 0.2095 0.0
H259 H 0.69743 0.02593 0.22216 0.0
H260 H 0.63459 -0.00751 0.20071 0.0
H261 H 0.634 0.96802 0.24173 0.0
H262 H 0.57896 0.81287 0.2584 0.0
H263 H 0.48171 0.75455 0.27626 0.0
H264 H 0.96033 0.91695 0.64348 0.0
H265 H 0.96625 0.86083 0.68386 0.0
H266 H 0.90943 0.73808 0.61072 0.0
H267 H 0.90348 0.79392 0.57077 0.0
H268 H 0.86656 0.76561 0.70039 0.0
H269 H 0.00384 0.71615 0.66491 0.0
H270 H 0.01408 0.77687 0.64895 0.0
H271 H 0.96672 0.71201 0.62986 0.0
C272 C 0.95286 0.87977 0.63543 0.0
C273 C 0.9319 0.85981 0.604 0.0
C274 C 0.95564 0.84738 0.65864 0.0
C275 C 0.93808 0.795 0.65046 0.0
C276 C 0.92417 0.77859 0.6176 0.0
H277 H 0.6962 0.4809 0.71276 0.0
H278 H 0.75839 0.57831 0.69707 0.0
C279 C 0.92097 0.81071 0.59459 0.0
C280 C 0.92067 0.75262 0.67692 0.0
H281 H 0.91691 0.64187 0.69362 0.0
C282 C 0.87904 0.7397 0.69967 0.0
C283 C 0.93674 0.71865 0.67627 0.0
C284 C -0.01676 0.73204 0.65387 0.0
C285 C 0.84949 0.69105 0.71921 0.0
C286 C 0.86187 0.65436 0.71601 0.0
C287 C 0.90704 0.66979 0.69583 0.0
C288 C 0.82321 0.59679 0.72877 0.0
C289 C 0.80269 0.67768 0.74134 0.0
C290 C 0.83883 0.57488 0.75208 0.0
C291 C 0.8029 0.51896 0.76133 0.0
C292 C 0.75128 0.48432 0.74707 0.0
C293 C 0.73555 0.50676 0.72432 0.0
C294 C 0.77101 0.5624 0.71539 0.0
H295 H 0.81214 0.71549 0.75175 0.0
H296 H 0.76559 0.65864 0.72639 0.0
H297 H 0.79316 0.64869 0.76207 0.0
H298 H 0.87908 0.60072 0.76254 0.0
H299 H 0.81638 0.5024 0.77844 0.0
H300 H -0.01713 0.87647 0.4992 0.0
H301 H -0.00096 0.82256 0.46491 0.0
H302 H 0.15553 0.9706 0.43126 0.0
H303 H 0.13981 0.02444 0.46468 0.0
H304 H 0.09595 0.89722 0.37991 0.0
H305 H 0.10939 0.79593 0.49051 0.0
H306 H 0.04745 0.78873 0.48676 0.0
H307 H 0.11085 0.85477 0.4939 0.0
C308 C 0.02059 0.89752 0.48437 0.0
C309 C 0.06022 0.95485 0.48506 0.0
C310 C 0.02979 0.86664 0.46482 0.0
C311 C 0.07871 0.89256 0.44569 0.0
C312 C 0.11744 0.94971 0.44571 0.0
H313 H 0.28992 0.82444 0.38729 0.0
H314 H 0.2391 0.85616 0.40676 0.0
C315 C 0.10844 0.98043 0.46514 0.0
C316 C 0.09216 0.86102 0.42706 0.0
H317 H 0.13275 0.78152 0.43873 0.0
C318 C 0.10302 0.87102 0.39261 0.0
C319 C 0.10167 0.82716 0.44373 0.0
C320 C 0.09215 0.81606 0.48078 0.0
C321 C 0.12548 0.85006 0.3747 0.0
C322 C 0.13719 0.81829 0.39174 0.0
C323 C 0.12369 0.80598 0.42579 0.0
C324 C 0.16956 0.80301 0.37605 0.0
C325 C 0.13947 0.86449 0.33817 0.0
C326 C 0.14802 0.76367 0.35148 0.0
C327 C 0.17737 0.74556 0.34012 0.0
C328 C 0.22849 0.76664 0.35323 0.0
C329 C 0.2507 0.80762 0.37669 0.0
C330 C 0.22163 0.82564 0.38791 0.0
H331 H 0.13294 0.89419 0.32933 0.0
H332 H 0.18289 0.88215 0.33284 0.0
H333 H 0.11344 0.8268 0.32378 0.0
H334 H 0.10765 0.74529 0.34222 0.0
H335 H 0.15891 0.71319 0.32247 0.0
H336 H 0.05983 0.01384 0.95469 0.0
H337 H 0.11538 0.00606 0.91504 0.0
H338 H 0.24153 0.07102 0.98697 0.0
H339 H 0.18594 0.07805 1.02627 0.0
H340 H 0.20643 0.1005 0.89341 0.0
H341 H 0.26603 0.97614 0.93862 0.0
H342 H 0.20604 0.96671 0.95523 0.0
H343 H 0.27272 0.01775 0.9715 0.0
C344 C 0.09771 0.0227 0.96273 0.0
C345 C 0.11849 0.04593 0.9936 0.0
C346 C 0.12982 0.01894 0.9399 0.0
C347 C 0.18291 0.03809 0.94784 0.0
C348 C 0.20046 0.05484 0.98027 0.0
H349 H 0.49233 0.27961 0.88395 0.0
H350 H 0.39448 0.21558 0.89873 0.0
C351 C 0.16849 0.05871 1.00293 0.0
C352 C 0.22446 0.05338 0.92122 0.0
H353 H 0.33916 0.06262 0.90782 0.0
C354 C 0.23428 0.09055 0.89588 0.0
C355 C 0.26078 0.04028 0.92387 0.0
C356 C 0.25036 -0.00248 0.94861 0.0
C357 C 0.28229 0.1192 0.87571 0.0
C358 C 0.32166 0.11092 0.88123 0.0
C359 C 0.30925 0.06959 0.90399 0.0
C360 C 0.37892 0.15089 0.86826 0.0
C361 C 0.29234 0.16079 0.85008 0.0
C362 C 0.40243 0.13596 0.84582 0.0
C363 C 0.45846 0.17297 0.83698 0.0
C364 C 0.49165 0.2249 0.85093 0.0
C365 C 0.46757 0.24001 0.87268 0.0
C366 C 0.41171 0.20352 0.88108 0.0
H367 H 0.25323 0.15121 0.84199 0.0
H368 H 0.31705 0.20185 0.86101 0.0
H369 H 0.31547 0.16268 0.82802 0.0
H370 H 0.37782 0.09536 0.83587 0.0
H371 H 0.47634 0.16003 0.82062 0.0
H372 H 0.00232 0.08452 0.45451 0.0
H373 H 0.00429 0.14687 0.41506 0.0
H374 H 0.03794 0.25365 0.49454 0.0
H375 H 0.03675 0.19185 0.5338 0.0
H376 H 0.96765 0.23643 0.4213 0.0
H377 H 0.18157 0.3044 0.42184 0.0
H378 H 0.12324 0.23283 0.42538 0.0
H379 H 0.13976 0.27617 0.45956 0.0
C380 C 0.00623 0.11929 0.46389 0.0
C381 C 0.01899 0.13332 0.49717 0.0
C382 C 0.00787 0.15518 0.44126 0.0
C383 C 0.02181 0.20507 0.45189 0.0
C384 C 0.0268 0.21518 0.48592 0.0
H385 H 0.13857 0.52228 0.39277 0.0
H386 H 0.08239 0.42585 0.41005 0.0
C387 C 0.02558 0.17956 0.50843 0.0
C388 C 0.04472 0.25162 0.42782 0.0
H389 H 0.16795 0.36285 0.39551 0.0
C390 C 0.01126 0.26375 0.41517 0.0
C391 C 0.10146 0.2866 0.41945 0.0
C392 C 0.13893 0.27467 0.43207 0.0
C393 C 0.03374 0.31156 0.3954 0.0
C394 C 0.09125 0.3487 0.38904 0.0
C395 C 0.12397 0.33467 0.4003 0.0
C396 C 0.11946 0.40495 0.37447 0.0
C397 C -0.00433 0.32194 0.3818 0.0
C398 C 0.15992 0.42611 0.34893 0.0
C399 C 0.19304 0.48189 0.33944 0.0
C400 C 0.18594 0.51727 0.35516 0.0
C401 C 0.14448 0.49574 0.37995 0.0
C402 C 0.11177 0.44034 0.38956 0.0
H403 H 0.9548 0.28278 0.37721 0.0
H404 H -0.01042 0.34398 0.40031 0.0
H405 H 0.01247 0.34703 0.3583 0.0
H406 H 0.16738 0.39994 0.33729 0.0
H407 H 0.22588 0.49776 0.32109 0.0
H408 H 0.00277 0.15267 0.94943 0.0
H409 H 0.94572 0.16663 0.91787 0.0
H410 H 0.80147 0.02903 0.97054 0.0
H411 H 0.85869 0.01479 1.00285 0.0
H412 H 0.85457 0.09742 0.87653 0.0
H413 H 0.80142 0.16002 0.98885 0.0
H414 H 0.8562 0.15459 0.98795 0.0
H415 H 0.78615 0.09391 0.99153 0.0
C416 C 0.95888 0.12506 0.95439 0.0
C417 C 0.93544 0.08298 0.97911 0.0
C418 C 0.92629 0.13296 0.93606 0.0
C419 C 0.86948 0.09929 0.94204 0.0
C420 C 0.84541 0.05589 0.96579 0.0
H421 H 0.64381 0.16137 0.88306 0.0
H422 H 0.68125 0.11527 0.90148 0.0
C423 C 0.87812 0.04771 0.98417 0.0
C424 C 0.8367 0.11257 0.92484 0.0
H425 H 0.76707 0.16355 0.93847 0.0
C426 C 0.83486 0.11135 0.89002 0.0
C427 C 0.81154 0.13121 0.94247 0.0
C428 C 0.81407 0.13555 0.97973 0.0
C429 C 0.80837 0.12822 0.87238 0.0
C430 C 0.78409 0.14785 0.89005 0.0
C431 C 0.78539 0.14825 0.92488 0.0
C432 C 0.75803 0.16951 0.87344 0.0
C433 C 0.80638 0.12448 0.83511 0.0
C434 C 0.78784 0.21432 0.85051 0.0
C435 C 0.76592 0.24023 0.83948 0.0
C436 C 0.71434 0.22218 0.85166 0.0
C437 C 0.68369 0.17597 0.8733 0.0
C438 C 0.7051 0.14968 0.88388 0.0
H439 H 0.81068 0.09331 0.82667 0.0
H440 H 0.76749 0.11408 0.82588 0.0
H441 H 0.84093 0.16461 0.82365 0.0
H442 H 0.82922 0.23126 0.84262 0.0
H443 H 0.79062 0.27635 0.82319 0.0
H444 H 0.79796 0.84551 0.47462 0.0
H445 H 0.73932 0.83284 0.43028 0.0
H446 H 0.82242 0.00682 0.42443 0.0
H447 H 0.8816 0.01965 0.46969 0.0
H448 H 0.71236 0.9482 0.43293 0.0
H449 H 0.74935 0.85697 0.33163 0.0
H450 H 0.73957 0.82163 0.37005 0.0
H451 H 0.79736 0.89312 0.36427 0.0
C452 C 0.80499 0.88139 0.46322 0.0
C453 C 0.8444 0.93358 0.4756 0.0
C454 C 0.7716 0.87412 0.43761 0.0
C455 C 0.77669 0.91886 0.42353 0.0
C456 C 0.81804 0.97169 0.43464 0.0
H457 H 0.48696 0.84351 0.31886 0.0
H458 H 0.58522 0.89788 0.33079 0.0
C459 C 0.85209 0.97909 0.46031 0.0
C460 C 0.73345 0.90821 0.4011 0.0
H461 H 0.65492 0.82635 0.33786 0.0
C462 C 0.70086 0.92318 0.41141 0.0
C463 C 0.71827 0.8756 0.37291 0.0
C464 C 0.75346 0.86148 0.35891 0.0
C465 C 0.65109 0.90225 0.39631 0.0
C466 C 0.63359 0.86564 0.37013 0.0
C467 C 0.66817 0.85412 0.3581 0.0
C468 C 0.57631 0.83249 0.35889 0.0
C469 C 0.61533 0.91586 0.41009 0.0
C470 C 0.53924 0.77758 0.36999 0.0
C471 C 0.48364 0.74689 0.36335 0.0
C472 C 0.46401 0.77012 0.34495 0.0
C473 C 0.50132 0.8245 0.33268 0.0
C474 C 0.55723 0.85556 0.33962 0.0
H475 H 0.63395 0.94346 0.43134 0.0
H476 H 0.60822 0.93608 0.39035 0.0
H477 H 0.57478 0.87766 0.4184 0.0
H478 H 0.55303 0.75908 0.38501 0.0
H479 H 0.45561 0.70522 0.37333 0.0
H480 H 0.83153 0.82793 0.97456 0.0
H481 H 0.81585 0.7629 0.9336 0.0
H482 H -0.01258 0.83536 0.93246 0.0
H483 H 0.00356 0.9015 0.97346 0.0
H484 H 0.90186 0.78211 0.86391 0.0
H485 H 0.85784 0.658 0.9795 0.0
H486 H 0.83581 0.69996 0.97807 0.0
H487 H 0.90756 0.73174 0.978 0.0
C488 C 0.86633 0.83143 0.96461 0.0
C489 C 0.91876 0.86972 0.97712 0.0
C490 C 0.85731 0.79431 0.94117 0.0
C491 C 0.9004 0.7943 0.93004 0.0
C492 C 0.95375 0.83516 0.94051 0.0
H493 H 0.82504 0.48571 0.87669 0.0
H494 H 0.87648 0.58141 0.89136 0.0
C495 C 0.96297 0.87299 0.96382 0.0
C496 C 0.8871 0.74574 0.91283 0.0
H497 H 0.83435 0.61307 0.92923 0.0
C498 C 0.88792 0.74528 0.87803 0.0
C499 C 0.86888 0.69787 0.93135 0.0
C500 C 0.86747 0.69646 0.96882 0.0
C501 C 0.86995 0.6975 0.86128 0.0
C502 C 0.84951 0.64879 0.87992 0.0
C503 C 0.85011 0.65015 0.91475 0.0
C504 C 0.82553 0.59511 0.86462 0.0
C505 C 0.87283 0.69983 0.82388 0.0
C506 C 0.78089 0.57111 0.84348 0.0
C507 C 0.75202 0.51639 0.83452 0.0
C508 C 0.76682 0.48466 0.847 0.0
C509 C 0.81291 0.50939 0.86671 0.0
C510 C 0.84225 0.56409 0.87513 0.0
H511 H 0.90656 0.74175 0.81405 0.0
H512 H 0.87889 0.67071 0.81382 0.0
H513 H 0.83387 0.68916 0.81472 0.0
H514 H 0.76624 0.59347 0.83553 0.0
H515 H 0.71614 0.49794 0.81964 0.0
loop_
_geom_bond_atom_site_label_1
_geom_bond_atom_site_label_2
_geom_bond_distance
_geom_bond_site_symmetry_2
_ccdc_geom_bond_type
O0 Mn1 2.163 1_666 S
O0 C14 1.244 . S
Mn1 O0 2.163 1_444 S
Mn1 O4 2.160 . S
Mn1 O5 2.221 1_554 S
Mn1 O7 2.163 1_454 S
Mn1 O9 2.160 1_545 S
Mn1 O19 2.221 1_445 S
O2 Mn3 2.087 1_556 S
O2 C14 1.256 . S
Mn3 O2 2.087 1_554 S
Mn3 O10 2.112 . S
Mn3 O19 2.290 . S
Mn3 O20 2.251 . S
O4 Mn1 2.160 . S
O4 C15 1.239 . S
O5 Mn1 2.221 1_556 S
O5 Mn6 2.290 . S
O5 C16 1.278 . S
Mn6 O5 2.290 . S
Mn6 O8 2.089 1_556 S
Mn6 O11 2.251 . S
Mn6 O12 2.087 . S
O7 Mn1 2.163 1_656 S
O7 C17 1.244 . S
O8 Mn6 2.089 1_554 S
O8 C15 1.256 . S
O9 Mn1 2.160 1_565 S
O9 C18 1.239 . S
O10 Mn3 2.112 . S
O10 C18 1.246 1_655 S
O11 Mn6 2.251 . S
O11 C16 1.241 . S
O12 Mn6 2.087 . S
O12 C17 1.256 1_455 S
C13 O19 1.278 . S
C13 O20 1.241 . S
C14 O0 1.244 . S
C14 O2 1.256 . S
C15 O4 1.239 . S
C15 O8 1.256 . S
C16 O5 1.278 . S
C16 O11 1.241 . S
C17 O7 1.244 . S
C17 O12 1.256 1_655 S
C18 O9 1.239 . S
C18 O10 1.246 1_455 S
O19 Mn1 2.221 1_665 S
O19 Mn3 2.290 . S
O19 C13 1.278 . S
O20 Mn3 2.251 . S
O20 C13 1.241 . S
O21 Mn22 2.181 . S
O21 C35 1.244 . S
Mn22 O21 2.181 . S
Mn22 O25 2.142 1_445 S
Mn22 O26 2.218 1_445 S
Mn22 O28 2.145 1_455 S
Mn22 O30 2.178 1_545 S
Mn22 O40 2.225 . S
O23 Mn24 2.087 . S
O23 C35 1.256 . S
Mn24 O23 2.087 . S
Mn24 O31 2.089 . S
Mn24 O40 2.290 . S
Mn24 O41 2.251 . S
O25 Mn22 2.142 1_665 S
O25 C36 1.239 . S
O26 Mn22 2.218 1_665 S
O26 Mn27 2.290 . S
O26 C37 1.278 . S
Mn27 O26 2.290 . S
Mn27 O29 2.089 . S
Mn27 O32 2.251 . S
Mn27 O33 2.087 . S
O28 Mn22 2.145 1_655 S
O28 C38 1.244 . S
O29 Mn27 2.089 . S
O29 C36 1.256 . S
O30 Mn22 2.178 1_565 S
O30 C39 1.239 . S
O31 Mn24 2.089 . S
O31 C39 1.256 1_545 S
O32 Mn27 2.251 . S
O32 C37 1.241 . S
O33 Mn27 2.087 . S
O33 C38 1.256 1_565 S
C34 O40 1.278 . S
C34 O41 1.241 . S
C35 O21 1.244 . S
C35 O23 1.256 . S
C36 O25 1.239 . S
C36 O29 1.256 . S
C37 O26 1.278 . S
C37 O32 1.241 . S
C38 O28 1.244 . S
C38 O33 1.256 1_545 S
C39 O30 1.239 . S
C39 O31 1.256 1_565 S
O40 Mn22 2.225 . S
O40 Mn24 2.290 . S
O40 C34 1.278 . S
O41 Mn24 2.251 . S
O41 C34 1.241 . S
Zn42 O48 1.920 . S
Zn42 O54 1.898 . S
Zn42 O57 1.905 . S
Zn43 O51 1.905 . S
Zn43 O52 1.898 . S
Zn43 O60 1.920 . S
Zn44 O47 2.080 . S
Zn44 O50 2.114 . S
Zn44 O53 2.120 . S
Zn44 O55 2.120 . S
Zn44 O56 2.114 . S
Zn44 O59 2.080 . S
C45 O50 1.166 . S
C45 O51 1.182 . S
C46 O52 1.167 . S
C46 O53 1.299 . S
O47 Zn44 2.080 . S
O47 C61 1.305 . S
O48 Zn42 1.920 . S
O48 C61 1.234 . S
C49 O54 1.167 . S
C49 O55 1.299 . S
O50 Zn44 2.114 . S
O50 C45 1.166 . S
O51 Zn43 1.905 . S
O51 C45 1.182 . S
O52 Zn43 1.898 . S
O52 C46 1.167 . S
O53 Zn44 2.120 . S
O53 C46 1.299 . S
O54 Zn42 1.898 . S
O54 C49 1.167 . S
O55 Zn44 2.120 . S
O55 C49 1.299 . S
O56 Zn44 2.114 . S
O56 C58 1.166 . S
O57 Zn42 1.905 . S
O57 C58 1.182 . S
C58 O56 1.166 . S
C58 O57 1.182 . S
O59 Zn44 2.080 . S
O59 C62 1.305 . S
O60 Zn43 1.920 . S
O60 C62 1.234 . S
C61 O47 1.305 . S
C61 O48 1.234 . S
C62 O59 1.305 . S
C62 O60 1.234 . S
Zn63 O69 1.920 . S
Zn63 O75 1.898 . S
Zn63 O78 1.905 . S
Zn64 O72 1.905 . S
Zn64 O73 1.898 . S
Zn64 O81 1.920 . S
Zn65 O68 2.080 . S
Zn65 O71 2.114 . S
Zn65 O74 2.120 . S
Zn65 O76 2.120 . S
Zn65 O77 2.114 . S
Zn65 O80 2.080 . S
C66 O71 1.166 . S
C66 O72 1.182 . S
C67 O73 1.167 . S
C67 O74 1.299 . S
O68 Zn65 2.080 . S
O68 C82 1.305 . S
O69 Zn63 1.920 . S
O69 C82 1.234 . S
C70 O75 1.167 . S
C70 O76 1.299 . S
O71 Zn65 2.114 . S
O71 C66 1.166 . S
O72 Zn64 1.905 . S
O72 C66 1.182 . S
O73 Zn64 1.898 . S
O73 C67 1.167 . S
O74 Zn65 2.120 . S
O74 C67 1.299 . S
O75 Zn63 1.898 . S
O75 C70 1.167 . S
O76 Zn65 2.120 . S
O76 C70 1.299 . S
O77 Zn65 2.114 . S
O77 C79 1.166 . S
O78 Zn63 1.905 . S
O78 C79 1.182 . S
C79 O77 1.166 . S
C79 O78 1.182 . S
O80 Zn65 2.080 . S
O80 C83 1.305 . S
O81 Zn64 1.920 . S
O81 C83 1.234 . S
C82 O68 1.305 . S
C82 O69 1.234 . S
C83 O80 1.305 . S
C83 O81 1.234 . S
H84 C92 0.929 . S
H85 C94 0.930 . S
H86 C96 0.930 . S
H87 C99 0.929 . S
H88 C102 0.930 . S
H89 C104 0.960 . S
H90 C104 0.960 . S
H91 C104 0.960 . S
C92 H84 0.929 . S
C92 C93 1.377 . S
C92 C94 1.384 . S
C93 C92 1.377 . S
C93 C99 1.390 . S
C94 H85 0.930 . S
C94 C92 1.384 . S
C94 C95 1.372 . S
C95 C94 1.372 . S
C95 C96 1.400 . S
C95 C100 1.490 . S
C96 H86 0.930 . S
C96 C95 1.400 . S
C96 C99 1.386 . S
H97 C113 0.930 . S
H98 C114 0.931 . S
C99 H87 0.929 . S
C99 C93 1.390 . S
C99 C96 1.386 . S
C100 C95 1.490 . S
C100 C102 1.395 . S
C100 C103 1.403 . S
H101 C107 0.930 . S
C102 H88 0.930 . S
C102 C100 1.395 . S
C102 C105 1.403 . S
C103 C100 1.403 . S
C103 C104 1.524 . S
C103 C107 1.400 . S
C104 H89 0.960 . S
C104 H90 0.960 . S
C104 H91 0.960 . S
C104 C103 1.524 . S
C105 C102 1.403 . S
C105 C106 1.392 . S
C105 C109 1.495 . S
C106 C105 1.392 . S
C106 C107 1.385 . S
C106 C108 1.478 . S
C107 H101 0.930 . S
C107 C103 1.400 . S
C107 C106 1.385 . S
C108 C106 1.478 . S
C108 C110 1.381 . S
C108 C114 1.383 . S
C109 C105 1.495 . S
C109 H115 0.959 . S
C109 H116 0.961 . S
C109 H117 0.960 . S
C110 C108 1.381 . S
C110 C111 1.394 . S
C110 H118 0.930 . S
C111 C110 1.394 . S
C111 C112 1.383 . S
C111 H119 0.929 . S
C112 C111 1.383 . S
C112 C113 1.377 . S
C113 H97 0.930 . S
C113 C112 1.377 . S
C113 C114 1.379 . S
C114 H98 0.931 . S
C114 C108 1.383 . S
C114 C113 1.379 . S
H115 C109 0.959 . S
H116 C109 0.961 . S
H117 C109 0.960 . S
H118 C110 0.930 . S
H119 C111 0.929 . S
H120 C128 0.929 1_565 S
H121 C130 0.930 . S
H122 C132 0.930 . S
H123 C135 0.929 . S
H124 C138 0.930 . S
H125 C140 0.960 . S
H126 C140 0.960 . S
H127 C140 0.960 . S
C128 H120 0.929 1_545 S
C128 C129 1.377 . S
C128 C130 1.384 . S
C129 C128 1.377 . S
C129 C135 1.390 . S
C130 H121 0.930 . S
C130 C128 1.384 . S
C130 C131 1.372 . S
C131 C130 1.372 . S
C131 C132 1.400 . S
C131 C136 1.490 . S
C132 H122 0.930 . S
C132 C131 1.400 . S
C132 C135 1.386 . S
H133 C149 0.930 . S
H134 C150 0.931 . S
C135 H123 0.929 . S
C135 C129 1.390 . S
C135 C132 1.386 . S
C136 C131 1.490 . S
C136 C138 1.395 . S
C136 C139 1.403 . S
H137 C143 0.930 . S
C138 H124 0.930 . S
C138 C136 1.395 . S
C138 C141 1.403 . S
C139 C136 1.403 . S
C139 C140 1.524 . S
C139 C143 1.400 . S
C140 H125 0.960 . S
C140 H126 0.960 . S
C140 H127 0.960 . S
C140 C139 1.524 . S
C141 C138 1.403 . S
C141 C142 1.392 . S
C141 C145 1.495 . S
C142 C141 1.392 . S
C142 C143 1.385 . S
C142 C144 1.478 . S
C143 H137 0.930 . S
C143 C139 1.400 . S
C143 C142 1.385 . S
C144 C142 1.478 . S
C144 C146 1.381 . S
C144 C150 1.383 . S
C145 C141 1.495 . S
C145 H151 0.959 . S
C145 H152 0.961 . S
C145 H153 0.960 . S
C146 C144 1.381 . S
C146 C147 1.394 . S
C146 H154 0.930 . S
C147 C146 1.394 . S
C147 C148 1.383 . S
C147 H155 0.929 . S
C148 C147 1.383 . S
C148 C149 1.377 . S
C149 H133 0.930 . S
C149 C148 1.377 . S
C149 C150 1.379 . S
C150 H134 0.931 . S
C150 C144 1.383 . S
C150 C149 1.379 . S
H151 C145 0.959 . S
H152 C145 0.961 . S
H153 C145 0.960 . S
H154 C146 0.930 . S
H155 C147 0.929 . S
H156 C164 0.929 . S
H157 C166 0.930 . S
H158 C168 0.930 . S
H159 C171 0.929 . S
H160 C174 0.930 . S
H161 C176 0.960 . S
H162 C176 0.960 . S
H163 C176 0.960 . S
C164 H156 0.929 . S
C164 C165 1.377 . S
C164 C166 1.384 . S
C165 C164 1.377 . S
C165 C171 1.390 . S
C166 H157 0.930 . S
C166 C164 1.384 . S
C166 C167 1.372 . S
C167 C166 1.372 . S
C167 C168 1.400 . S
C167 C172 1.490 . S
C168 H158 0.930 . S
C168 C167 1.400 . S
C168 C171 1.386 . S
H169 C185 0.930 . S
H170 C186 0.931 . S
C171 H159 0.929 . S
C171 C165 1.390 . S
C171 C168 1.386 . S
C172 C167 1.490 . S
C172 C174 1.395 . S
C172 C175 1.403 . S
H173 C179 0.930 . S
C174 H160 0.930 . S
C174 C172 1.395 . S
C174 C177 1.403 . S
C175 C172 1.403 . S
C175 C176 1.524 . S
C175 C179 1.400 . S
C176 H161 0.960 . S
C176 H162 0.960 . S
C176 H163 0.960 . S
C176 C175 1.524 . S
C177 C174 1.403 . S
C177 C178 1.392 . S
C177 C181 1.495 . S
C178 C177 1.392 . S
C178 C179 1.385 . S
C178 C180 1.478 . S
C179 H173 0.930 . S
C179 C175 1.400 . S
C179 C178 1.385 . S
C180 C178 1.478 . S
C180 C182 1.381 . S
C180 C186 1.383 . S
C181 C177 1.495 . S
C181 H187 0.959 . S
C181 H188 0.961 . S
C181 H189 0.960 . S
C182 C180 1.381 . S
C182 C183 1.394 . S
C182 H190 0.930 . S
C183 C182 1.394 . S
C183 C184 1.383 . S
C183 H191 0.929 . S
C184 C183 1.383 . S
C184 C185 1.377 . S
C185 H169 0.930 . S
C185 C184 1.377 . S
C185 C186 1.379 . S
C186 H170 0.931 . S
C186 C180 1.383 . S
C186 C185 1.379 . S
H187 C181 0.959 . S
H188 C181 0.961 . S
H189 C181 0.960 . S
H190 C182 0.930 . S
H191 C183 0.929 . S
H192 C200 0.929 . S
H193 C202 0.930 . S
H194 C204 0.930 . S
H195 C207 0.929 . S
H196 C210 0.930 . S
H197 C212 0.960 . S
H198 C212 0.960 . S
H199 C212 0.960 . S
C200 H192 0.929 . S
C200 C201 1.377 . S
C200 C202 1.384 . S
C201 C200 1.377 . S
C201 C207 1.390 . S
C202 H193 0.930 . S
C202 C200 1.384 . S
C202 C203 1.372 . S
C203 C202 1.372 . S
C203 C204 1.400 . S
C203 C208 1.490 . S
C204 H194 0.930 . S
C204 C203 1.400 . S
C204 C207 1.386 . S
H205 C221 0.930 . S
H206 C222 0.931 . S
C207 H195 0.929 . S
C207 C201 1.390 . S
C207 C204 1.386 . S
C208 C203 1.490 . S
C208 C210 1.395 . S
C208 C211 1.403 . S
H209 C215 0.930 . S
C210 H196 0.930 . S
C210 C208 1.395 . S
C210 C213 1.403 . S
C211 C208 1.403 . S
C211 C212 1.524 . S
C211 C215 1.400 . S
C212 H197 0.960 . S
C212 H198 0.960 . S
C212 H199 0.960 . S
C212 C211 1.524 . S
C213 C210 1.403 . S
C213 C214 1.392 . S
C213 C217 1.495 . S
C214 C213 1.392 . S
C214 C215 1.385 . S
C214 C216 1.478 . S
C215 H209 0.930 . S
C215 C211 1.400 . S
C215 C214 1.385 . S
C216 C214 1.478 . S
C216 C218 1.381 . S
C216 C222 1.383 . S
C217 C213 1.495 . S
C217 H223 0.959 . S
C217 H224 0.961 . S
C217 H225 0.960 . S
C218 C216 1.381 . S
C218 C219 1.394 . S
C218 H226 0.930 . S
C219 C218 1.394 . S
C219 C220 1.383 . S
C219 H227 0.929 . S
C220 C219 1.383 . S
C220 C221 1.377 . S
C221 H205 0.930 . S
C221 C220 1.377 . S
C221 C222 1.379 . S
C222 H206 0.931 . S
C222 C216 1.383 . S
C222 C221 1.379 . S
H223 C217 0.959 . S
H224 C217 0.961 . S
H225 C217 0.960 . S
H226 C218 0.930 . S
H227 C219 0.929 . S
H228 C236 0.929 . S
H229 C238 0.930 . S
H230 C240 0.930 . S
H231 C243 0.929 . S
H232 C246 0.930 . S
H233 C248 0.960 . S
H234 C248 0.960 . S
H235 C248 0.960 . S
C236 H228 0.929 . S
C236 C237 1.377 . S
C236 C238 1.384 . S
C237 C236 1.377 . S
C237 C243 1.390 . S
C238 H229 0.930 . S
C238 C236 1.384 . S
C238 C239 1.372 . S
C239 C238 1.372 . S
C239 C240 1.400 . S
C239 C244 1.490 . S
C240 H230 0.930 . S
C240 C239 1.400 . S
C240 C243 1.386 . S
H241 C257 0.930 . S
H242 C258 0.931 . S
C243 H231 0.929 . S
C243 C237 1.390 . S
C243 C240 1.386 . S
C244 C239 1.490 . S
C244 C246 1.395 . S
C244 C247 1.403 . S
H245 C251 0.930 . S
C246 H232 0.930 . S
C246 C244 1.395 . S
C246 C249 1.403 . S
C247 C244 1.403 . S
C247 C248 1.524 . S
C247 C251 1.400 . S
C248 H233 0.960 . S
C248 H234 0.960 . S
C248 H235 0.960 . S
C248 C247 1.524 . S
C249 C246 1.403 . S
C249 C250 1.392 . S
C249 C253 1.495 . S
C250 C249 1.392 . S
C250 C251 1.385 . S
C250 C252 1.478 . S
C251 H245 0.930 . S
C251 C247 1.400 . S
C251 C250 1.385 . S
C252 C250 1.478 . S
C252 C254 1.381 . S
C252 C258 1.383 . S
C253 C249 1.495 . S
C253 H259 0.959 . S
C253 H260 0.961 . S
C253 H261 0.960 . S
C254 C252 1.381 . S
C254 C255 1.394 . S
C254 H262 0.930 . S
C255 C254 1.394 . S
C255 C256 1.383 . S
C255 H263 0.929 . S
C256 C255 1.383 . S
C256 C257 1.377 . S
C257 H241 0.930 . S
C257 C256 1.377 . S
C257 C258 1.379 . S
C258 H242 0.931 . S
C258 C252 1.383 . S
C258 C257 1.379 . S
H259 C253 0.959 . S
H260 C253 0.961 . S
H261 C253 0.960 . S
H262 C254 0.930 . S
H263 C255 0.929 . S
H264 C272 0.929 1_455 S
H265 C274 0.930 . S
H266 C276 0.930 . S
H267 C279 0.929 . S
H268 C282 0.930 . S
H269 C284 0.960 . S
H270 C284 0.960 . S
H271 C284 0.960 . S
C272 H264 0.929 1_655 S
C272 C273 1.377 . S
C272 C274 1.384 . S
C273 C272 1.377 . S
C273 C279 1.390 . S
C274 H265 0.930 . S
C274 C272 1.384 . S
C274 C275 1.372 . S
C275 C274 1.372 . S
C275 C276 1.400 . S
C275 C280 1.490 . S
C276 H266 0.930 . S
C276 C275 1.400 . S
C276 C279 1.386 . S
H277 C293 0.930 . S
H278 C294 0.931 . S
C279 H267 0.929 . S
C279 C273 1.390 . S
C279 C276 1.386 . S
C280 C275 1.490 . S
C280 C282 1.395 . S
C280 C283 1.403 . S
H281 C287 0.930 . S
C282 H268 0.930 . S
C282 C280 1.395 . S
C282 C285 1.403 . S
C283 C280 1.403 . S
C283 C284 1.524 . S
C283 C287 1.400 . S
C284 H269 0.960 . S
C284 H270 0.960 . S
C284 H271 0.960 . S
C284 C283 1.524 . S
C285 C282 1.403 . S
C285 C286 1.392 . S
C285 C289 1.495 . S
C286 C285 1.392 . S
C286 C287 1.385 . S
C286 C288 1.478 . S
C287 H281 0.930 . S
C287 C283 1.400 . S
C287 C286 1.385 . S
C288 C286 1.478 . S
C288 C290 1.381 . S
C288 C294 1.383 . S
C289 C285 1.495 . S
C289 H295 0.959 . S
C289 H296 0.961 . S
C289 H297 0.960 . S
C290 C288 1.381 . S
C290 C291 1.394 . S
C290 H298 0.930 . S
C291 C290 1.394 . S
C291 C292 1.383 . S
C291 H299 0.929 . S
C292 C291 1.383 . S
C292 C293 1.377 . S
C293 H277 0.930 . S
C293 C292 1.377 . S
C293 C294 1.379 . S
C294 H278 0.931 . S
C294 C288 1.383 . S
C294 C293 1.379 . S
H295 C289 0.959 . S
H296 C289 0.961 . S
H297 C289 0.960 . S
H298 C290 0.930 . S
H299 C291 0.929 . S
H300 C308 0.929 . S
H301 C310 0.930 . S
H302 C312 0.930 . S
H303 C315 0.929 1_545 S
H304 C318 0.930 . S
H305 C320 0.960 . S
H306 C320 0.960 . S
H307 C320 0.960 . S
C308 H300 0.929 . S
C308 C309 1.377 . S
C308 C310 1.384 . S
C309 C308 1.377 . S
C309 C315 1.390 . S
C310 H301 0.930 . S
C310 C308 1.384 . S
C310 C311 1.372 . S
C311 C310 1.372 . S
C311 C312 1.400 . S
C311 C316 1.490 . S
C312 H302 0.930 . S
C312 C311 1.400 . S
C312 C315 1.386 . S
H313 C329 0.930 . S
H314 C330 0.931 . S
C315 H303 0.929 1_565 S
C315 C309 1.390 . S
C315 C312 1.386 . S
C316 C311 1.490 . S
C316 C318 1.395 . S
C316 C319 1.403 . S
H317 C323 0.930 . S
C318 H304 0.930 . S
C318 C316 1.395 . S
C318 C321 1.403 . S
C319 C316 1.403 . S
C319 C320 1.524 . S
C319 C323 1.400 . S
C320 H305 0.960 . S
C320 H306 0.960 . S
C320 H307 0.960 . S
C320 C319 1.524 . S
C321 C318 1.403 . S
C321 C322 1.392 . S
C321 C325 1.495 . S
C322 C321 1.392 . S
C322 C323 1.385 . S
C322 C324 1.478 . S
C323 H317 0.930 . S
C323 C319 1.400 . S
C323 C322 1.385 . S
C324 C322 1.478 . S
C324 C326 1.381 . S
C324 C330 1.383 . S
C325 C321 1.495 . S
C325 H331 0.959 . S
C325 H332 0.961 . S
C325 H333 0.960 . S
C326 C324 1.381 . S
C326 C327 1.394 . S
C326 H334 0.930 . S
C327 C326 1.394 . S
C327 C328 1.383 . S
C327 H335 0.929 . S
C328 C327 1.383 . S
C328 C329 1.377 . S
C329 H313 0.930 . S
C329 C328 1.377 . S
C329 C330 1.379 . S
C330 H314 0.931 . S
C330 C324 1.383 . S
C330 C329 1.379 . S
H331 C325 0.959 . S
H332 C325 0.961 . S
H333 C325 0.960 . S
H334 C326 0.930 . S
H335 C327 0.929 . S
H336 C344 0.929 . S
H337 C346 0.930 . S
H338 C348 0.930 . S
H339 C351 0.929 . S
H340 C354 0.930 . S
H341 C356 0.960 . S
H342 C356 0.960 . S
H343 C356 0.960 . S
C344 H336 0.929 . S
C344 C345 1.377 . S
C344 C346 1.384 . S
C345 C344 1.377 . S
C345 C351 1.390 . S
C346 H337 0.930 . S
C346 C344 1.384 . S
C346 C347 1.372 . S
C347 C346 1.372 . S
C347 C348 1.400 . S
C347 C352 1.490 . S
C348 H338 0.930 . S
C348 C347 1.400 . S
C348 C351 1.386 . S
H349 C365 0.930 . S
H350 C366 0.931 . S
C351 H339 0.929 . S
C351 C345 1.390 . S
C351 C348 1.386 . S
C352 C347 1.490 . S
C352 C354 1.395 . S
C352 C355 1.403 . S
H353 C359 0.930 . S
C354 H340 0.930 . S
C354 C352 1.395 . S
C354 C357 1.403 . S
C355 C352 1.403 . S
C355 C356 1.524 . S
C355 C359 1.400 . S
C356 H341 0.960 . S
C356 H342 0.960 . S
C356 H343 0.960 . S
C356 C355 1.524 . S
C357 C354 1.403 . S
C357 C358 1.392 . S
C357 C361 1.495 . S
C358 C357 1.392 . S
C358 C359 1.385 . S
C358 C360 1.478 . S
C359 H353 0.930 . S
C359 C355 1.400 . S
C359 C358 1.385 . S
C360 C358 1.478 . S
C360 C362 1.381 . S
C360 C366 1.383 . S
C361 C357 1.495 . S
C361 H367 0.959 . S
C361 H368 0.961 . S
C361 H369 0.960 . S
C362 C360 1.381 . S
C362 C363 1.394 . S
C362 H370 0.930 . S
C363 C362 1.394 . S
C363 C364 1.383 . S
C363 H371 0.929 . S
C364 C363 1.383 . S
C364 C365 1.377 . S
C365 H349 0.930 . S
C365 C364 1.377 . S
C365 C366 1.379 . S
C366 H350 0.931 . S
C366 C360 1.383 . S
C366 C365 1.379 . S
H367 C361 0.959 . S
H368 C361 0.961 . S
H369 C361 0.960 . S
H370 C362 0.930 . S
H371 C363 0.929 . S
H372 C380 0.929 . S
H373 C382 0.930 . S
H374 C384 0.930 . S
H375 C387 0.929 . S
H376 C390 0.930 . S
H377 C392 0.960 . S
H378 C392 0.960 . S
H379 C392 0.960 . S
C380 H372 0.929 . S
C380 C381 1.377 . S
C380 C382 1.384 . S
C381 C380 1.377 . S
C381 C387 1.390 . S
C382 H373 0.930 . S
C382 C380 1.384 . S
C382 C383 1.372 . S
C383 C382 1.372 . S
C383 C384 1.400 . S
C383 C388 1.490 . S
C384 H374 0.930 . S
C384 C383 1.400 . S
C384 C387 1.386 . S
H385 C401 0.930 . S
H386 C402 0.931 . S
C387 H375 0.929 . S
C387 C381 1.390 . S
C387 C384 1.386 . S
C388 C383 1.490 . S
C388 C390 1.395 . S
C388 C391 1.403 . S
H389 C395 0.930 . S
C390 H376 0.930 . S
C390 C388 1.395 . S
C390 C393 1.403 . S
C391 C388 1.403 . S
C391 C392 1.524 . S
C391 C395 1.400 . S
C392 H377 0.960 . S
C392 H378 0.960 . S
C392 H379 0.960 . S
C392 C391 1.524 . S
C393 C390 1.403 . S
C393 C394 1.392 . S
C393 C397 1.495 . S
C394 C393 1.392 . S
C394 C395 1.385 . S
C394 C396 1.478 . S
C395 H389 0.930 . S
C395 C391 1.400 . S
C395 C394 1.385 . S
C396 C394 1.478 . S
C396 C398 1.381 . S
C396 C402 1.383 . S
C397 C393 1.495 . S
C397 H403 0.959 . S
C397 H404 0.961 . S
C397 H405 0.960 . S
C398 C396 1.381 . S
C398 C399 1.394 . S
C398 H406 0.930 . S
C399 C398 1.394 . S
C399 C400 1.383 . S
C399 H407 0.929 . S
C400 C399 1.383 . S
C400 C401 1.377 . S
C401 H385 0.930 . S
C401 C400 1.377 . S
C401 C402 1.379 . S
C402 H386 0.931 . S
C402 C396 1.383 . S
C402 C401 1.379 . S
H403 C397 0.959 . S
H404 C397 0.961 . S
H405 C397 0.960 . S
H406 C398 0.930 . S
H407 C399 0.929 . S
H408 C416 0.929 1_455 S
H409 C418 0.930 . S
H410 C420 0.930 . S
H411 C423 0.929 . S
H412 C426 0.930 . S
H413 C428 0.960 . S
H414 C428 0.960 . S
H415 C428 0.960 . S
C416 H408 0.929 1_655 S
C416 C417 1.377 . S
C416 C418 1.384 . S
C417 C416 1.377 . S
C417 C423 1.390 . S
C418 H409 0.930 . S
C418 C416 1.384 . S
C418 C419 1.372 . S
C419 C418 1.372 . S
C419 C420 1.400 . S
C419 C424 1.490 . S
C420 H410 0.930 . S
C420 C419 1.400 . S
C420 C423 1.386 . S
H421 C437 0.930 . S
H422 C438 0.931 . S
C423 H411 0.929 . S
C423 C417 1.390 . S
C423 C420 1.386 . S
C424 C419 1.490 . S
C424 C426 1.395 . S
C424 C427 1.403 . S
H425 C431 0.930 . S
C426 H412 0.930 . S
C426 C424 1.395 . S
C426 C429 1.403 . S
C427 C424 1.403 . S
C427 C428 1.524 . S
C427 C431 1.400 . S
C428 H413 0.960 . S
C428 H414 0.960 . S
C428 H415 0.960 . S
C428 C427 1.524 . S
C429 C426 1.403 . S
C429 C430 1.392 . S
C429 C433 1.495 . S
C430 C429 1.392 . S
C430 C431 1.385 . S
C430 C432 1.478 . S
C431 H425 0.930 . S
C431 C427 1.400 . S
C431 C430 1.385 . S
C432 C430 1.478 . S
C432 C434 1.381 . S
C432 C438 1.383 . S
C433 C429 1.495 . S
C433 H439 0.959 . S
C433 H440 0.961 . S
C433 H441 0.960 . S
C434 C432 1.381 . S
C434 C435 1.394 . S
C434 H442 0.930 . S
C435 C434 1.394 . S
C435 C436 1.383 . S
C435 H443 0.929 . S
C436 C435 1.383 . S
C436 C437 1.377 . S
C437 H421 0.930 . S
C437 C436 1.377 . S
C437 C438 1.379 . S
C438 H422 0.931 . S
C438 C432 1.383 . S
C438 C437 1.379 . S
H439 C433 0.959 . S
H440 C433 0.961 . S
H441 C433 0.960 . S
H442 C434 0.930 . S
H443 C435 0.929 . S
H444 C452 0.929 . S
H445 C454 0.930 . S
H446 C456 0.930 . S
H447 C459 0.929 1_545 S
H448 C462 0.930 . S
H449 C464 0.960 . S
H450 C464 0.960 . S
H451 C464 0.960 . S
C452 H444 0.929 . S
C452 C453 1.377 . S
C452 C454 1.384 . S
C453 C452 1.377 . S
C453 C459 1.390 . S
C454 H445 0.930 . S
C454 C452 1.384 . S
C454 C455 1.372 . S
C455 C454 1.372 . S
C455 C456 1.400 . S
C455 C460 1.490 . S
C456 H446 0.930 . S
C456 C455 1.400 . S
C456 C459 1.386 . S
H457 C473 0.930 . S
H458 C474 0.931 . S
C459 H447 0.929 1_565 S
C459 C453 1.390 . S
C459 C456 1.386 . S
C460 C455 1.490 . S
C460 C462 1.395 . S
C460 C463 1.403 . S
H461 C467 0.930 . S
C462 H448 0.930 . S
C462 C460 1.395 . S
C462 C465 1.403 . S
C463 C460 1.403 . S
C463 C464 1.524 . S
C463 C467 1.400 . S
C464 H449 0.960 . S
C464 H450 0.960 . S
C464 H451 0.960 . S
C464 C463 1.524 . S
C465 C462 1.403 . S
C465 C466 1.392 . S
C465 C469 1.495 . S
C466 C465 1.392 . S
C466 C467 1.385 . S
C466 C468 1.478 . S
C467 H461 0.930 . S
C467 C463 1.400 . S
C467 C466 1.385 . S
C468 C466 1.478 . S
C468 C470 1.381 . S
C468 C474 1.383 . S
C469 C465 1.495 . S
C469 H475 0.959 . S
C469 H476 0.961 . S
C469 H477 0.960 . S
C470 C468 1.381 . S
C470 C471 1.394 . S
C470 H478 0.930 . S
C471 C470 1.394 . S
C471 C472 1.383 . S
C471 H479 0.929 . S
C472 C471 1.383 . S
C472 C473 1.377 . S
C473 H457 0.930 . S
C473 C472 1.377 . S
C473 C474 1.379 . S
C474 H458 0.931 . S
C474 C468 1.383 . S
C474 C473 1.379 . S
H475 C469 0.959 . S
H476 C469 0.961 . S
H477 C469 0.960 . S
H478 C470 0.930 . S
H479 C471 0.929 . S
H480 C488 0.929 . S
H481 C490 0.930 . S
H482 C492 0.930 . S
H483 C495 0.929 1_455 S
H484 C498 0.930 . S
H485 C500 0.960 . S
H486 C500 0.960 . S
H487 C500 0.960 . S
C488 H480 0.929 . S
C488 C489 1.377 . S
C488 C490 1.384 . S
C489 C488 1.377 . S
C489 C495 1.390 . S
C490 H481 0.930 . S
C490 C488 1.384 . S
C490 C491 1.372 . S
C491 C490 1.372 . S
C491 C492 1.400 . S
C491 C496 1.490 . S
C492 H482 0.930 . S
C492 C491 1.400 . S
C492 C495 1.386 . S
H493 C509 0.930 . S
H494 C510 0.931 . S
C495 H483 0.929 1_655 S
C495 C489 1.390 . S
C495 C492 1.386 . S
C496 C491 1.490 . S
C496 C498 1.395 . S
C496 C499 1.403 . S
H497 C503 0.930 . S
C498 H484 0.930 . S
C498 C496 1.395 . S
C498 C501 1.403 . S
C499 C496 1.403 . S
C499 C500 1.524 . S
C499 C503 1.400 . S
C500 H485 0.960 . S
C500 H486 0.960 . S
C500 H487 0.960 . S
C500 C499 1.524 . S
C501 C498 1.403 . S
C501 C502 1.392 . S
C501 C505 1.495 . S
C502 C501 1.392 . S
C502 C503 1.385 . S
C502 C504 1.478 . S
C503 H497 0.930 . S
C503 C499 1.400 . S
C503 C502 1.385 . S
C504 C502 1.478 . S
C504 C506 1.381 . S
C504 C510 1.383 . S
C505 C501 1.495 . S
C505 H511 0.959 . S
C505 H512 0.961 . S
C505 H513 0.960 . S
C506 C504 1.381 . S
C506 C507 1.394 . S
C506 H514 0.930 . S
C507 C506 1.394 . S
C507 C508 1.383 . S
C507 H515 0.929 . S
C508 C507 1.383 . S
C508 C509 1.377 . S
C509 H493 0.930 . S
C509 C508 1.377 . S
C509 C510 1.379 . S
C510 H494 0.931 . S
C510 C504 1.383 . S
C510 C509 1.379 . S
H511 C505 0.959 . S
H512 C505 0.961 . S
H513 C505 0.960 . S
H514 C506 0.930 . S
H515 C507 0.929 . S
C93 C18 1.352 . S
C112 C61 1.296 . S
C129 C35 1.490 . S
C148 C67 1.340 . S
C165 C15 1.306 . S
C184 C58 1.278 . S
C201 C38 1.523 . S
C220 C83 1.361 . S
C237 C13 1.334 . S
C256 C49 1.398 . S
C292 C66 1.399 . S
C273 C37 1.267 . S
C309 C39 1.353 . S
C328 C62 1.299 . S
C364 C79 1.372 . S
C345 C16 1.263 . S
C400 C46 1.379 . S
C381 C34 1.338 . S
C436 C82 1.434 . S
C417 C17 1.519 . S
C472 C45 1.192 . S
C453 C36 1.308 . S
C508 C70 1.407 . S
C489 C14 1.480 . S
