# Generated by pormake.
# Topology ocu, (6,8)-cn, num edge types: 1
# Building blocks:
#     Node 0, Type 0, BuildingBlock: KUMBOL_clean_sbu_0, # of connection points: 6
#     Node 1, Type 0, BuildingBlock: KUMBOL_clean_sbu_0, # of connection points: 6
#     Node 2, Type 0, BuildingBlock: KUMBOL_clean_sbu_0, # of connection points: 6
#     Node 3, Type 0, BuildingBlock: KUMBOL_clean_sbu_0, # of connection points: 6
#     Node 4, Type 0, BuildingBlock: KUMBOL_clean_sbu_0, # of connection points: 6
#     Node 5, Type 0, BuildingBlock: KUMBOL_clean_sbu_0, # of connection points: 6
#     Node 6, Type 0, BuildingBlock: KUMBOL_clean_sbu_0, # of connection points: 6
#     Node 7, Type 0, BuildingBlock: KUMBOL_clean_sbu_0, # of connection points: 6
#     Node 8, Type 1, BuildingBlock: VETTIZ_charged_sbu_0, # of connection points: 8
#     Node 9, Type 1, BuildingBlock: VETTIZ_charged_sbu_0, # of connection points: 8
#     Node 10, Type 1, BuildingBlock: VETTIZ_charged_sbu_0, # of connection points: 8
#     Node 11, Type 1, BuildingBlock: VETTIZ_charged_sbu_0, # of connection points: 8
#     Node 12, Type 1, BuildingBlock: VETTIZ_charged_sbu_0, # of connection points: 8
#     Node 13, Type 1, BuildingBlock: VETTIZ_charged_sbu_0, # of connection points: 8
#     Edge 14, Type (0, 1), BuildingBlock: OJICUG_clean_linker_0, # of connection points: 2
#     Edge 15, Type (0, 1), BuildingBlock: OJICUG_clean_linker_0, # of connection points: 2
#     Edge 16, Type (0, 1), BuildingBlock: OJICUG_clean_linker_0, # of connection points: 2
#     Edge 17, Type (0, 1), BuildingBlock: OJICUG_clean_linker_0, # of connection points: 2
#     Edge 18, Type (0, 1), BuildingBlock: OJICUG_clean_linker_0, # of connection points: 2
#     Edge 19, Type (0, 1), BuildingBlock: OJICUG_clean_linker_0, # of connection points: 2
#     Edge 20, Type (0, 1), BuildingBlock: OJICUG_clean_linker_0, # of connection points: 2
#     Edge 21, Type (0, 1), BuildingBlock: OJICUG_clean_linker_0, # of connection points: 2
#     Edge 22, Type (0, 1), BuildingBlock: OJICUG_clean_linker_0, # of connection points: 2
#     Edge 23, Type (0, 1), BuildingBlock: OJICUG_clean_linker_0, # of connection points: 2
#     Edge 24, Type (0, 1), BuildingBlock: OJICUG_clean_linker_0, # of connection points: 2
#     Edge 25, Type (0, 1), BuildingBlock: OJICUG_clean_linker_0, # of connection points: 2
#     Edge 26, Type (0, 1), BuildingBlock: OJICUG_clean_linker_0, # of connection points: 2
#     Edge 27, Type (0, 1), BuildingBlock: OJICUG_clean_linker_0, # of connection points: 2
#     Edge 28, Type (0, 1), BuildingBlock: OJICUG_clean_linker_0, # of connection points: 2
#     Edge 29, Type (0, 1), BuildingBlock: OJICUG_clean_linker_0, # of connection points: 2
#     Edge 30, Type (0, 1), BuildingBlock: OJICUG_clean_linker_0, # of connection points: 2
#     Edge 31, Type (0, 1), BuildingBlock: OJICUG_clean_linker_0, # of connection points: 2
#     Edge 32, Type (0, 1), BuildingBlock: OJICUG_clean_linker_0, # of connection points: 2
#     Edge 33, Type (0, 1), BuildingBlock: OJICUG_clean_linker_0, # of connection points: 2
#     Edge 34, Type (0, 1), BuildingBlock: OJICUG_clean_linker_0, # of connection points: 2
#     Edge 35, Type (0, 1), BuildingBlock: OJICUG_clean_linker_0, # of connection points: 2
#     Edge 36, Type (0, 1), BuildingBlock: OJICUG_clean_linker_0, # of connection points: 2
#     Edge 37, Type (0, 1), BuildingBlock: OJICUG_clean_linker_0, # of connection points: 2
#     Edge 38, Type (0, 1), BuildingBlock: OJICUG_clean_linker_0, # of connection points: 2
#     Edge 39, Type (0, 1), BuildingBlock: OJICUG_clean_linker_0, # of connection points: 2
#     Edge 40, Type (0, 1), BuildingBlock: OJICUG_clean_linker_0, # of connection points: 2
#     Edge 41, Type (0, 1), BuildingBlock: OJICUG_clean_linker_0, # of connection points: 2
#     Edge 42, Type (0, 1), BuildingBlock: OJICUG_clean_linker_0, # of connection points: 2
#     Edge 43, Type (0, 1), BuildingBlock: OJICUG_clean_linker_0, # of connection points: 2
#     Edge 44, Type (0, 1), BuildingBlock: OJICUG_clean_linker_0, # of connection points: 2
#     Edge 45, Type (0, 1), BuildingBlock: OJICUG_clean_linker_0, # of connection points: 2
#     Edge 46, Type (0, 1), BuildingBlock: OJICUG_clean_linker_0, # of connection points: 2
#     Edge 47, Type (0, 1), BuildingBlock: OJICUG_clean_linker_0, # of connection points: 2
#     Edge 48, Type (0, 1), BuildingBlock: OJICUG_clean_linker_0, # of connection points: 2
#     Edge 49, Type (0, 1), BuildingBlock: OJICUG_clean_linker_0, # of connection points: 2
#     Edge 50, Type (0, 1), BuildingBlock: OJICUG_clean_linker_0, # of connection points: 2
#     Edge 51, Type (0, 1), BuildingBlock: OJICUG_clean_linker_0, # of connection points: 2
#     Edge 52, Type (0, 1), BuildingBlock: OJICUG_clean_linker_0, # of connection points: 2
#     Edge 53, Type (0, 1), BuildingBlock: OJICUG_clean_linker_0, # of connection points: 2
#     Edge 54, Type (0, 1), BuildingBlock: OJICUG_clean_linker_0, # of connection points: 2
#     Edge 55, Type (0, 1), BuildingBlock: OJICUG_clean_linker_0, # of connection points: 2
#     Edge 56, Type (0, 1), BuildingBlock: OJICUG_clean_linker_0, # of connection points: 2
#     Edge 57, Type (0, 1), BuildingBlock: OJICUG_clean_linker_0, # of connection points: 2
#     Edge 58, Type (0, 1), BuildingBlock: OJICUG_clean_linker_0, # of connection points: 2
#     Edge 59, Type (0, 1), BuildingBlock: OJICUG_clean_linker_0, # of connection points: 2
#     Edge 60, Type (0, 1), BuildingBlock: OJICUG_clean_linker_0, # of connection points: 2
#     Edge 61, Type (0, 1), BuildingBlock: OJICUG_clean_linker_0, # of connection points: 2
# Relax obj value: 0.152
# Max RMSD: 0.262
# Mean RMSD: 0.165
data_MOF--net-ocu--node1-KUMBOL_clean_sbu_0--node2-VETTIZ_charged_sbu_0--edge1-OJICUG_clean_linker_0
_symmetry_space_group_name_H-M    P1
_symmetry_Int_Tables_number       1
_symmetry_cell_setting            triclinic
loop_
_symmetry_equiv_pos_as_xyz
'x, y, z'
_cell_length_a     30.834
_cell_length_b     29.591768
_cell_length_c     32.410234
_cell_angle_alpha  83.329666
_cell_angle_beta   95.206773
_cell_angle_gamma 107.71933
loop_
_atom_site_label
_atom_site_type_symbol
_atom_site_fract_x
_atom_site_fract_y
_atom_site_fract_z
_atom_type_partial_charge
Gd0 Gd 0.31471 0.32265 0.3148 0.0
Gd1 Gd 0.29518 0.23759 0.25439 0.0
C2 C 0.37598 0.26216 0.13672 0.0
C3 C 0.33508 0.30527 0.08784 0.0
C4 C 0.3092 0.27839 0.1579 0.0
C5 C 0.34463 0.25866 0.16703 0.0
C6 C 0.30277 0.29966 0.11734 0.0
C7 C 0.37191 0.287 0.09768 0.0
C8 C 0.40997 0.23974 0.14611 0.0
C9 C 0.41136 0.21334 0.18436 0.0
N10 N 0.3481 0.23541 0.20547 0.0
C11 C 0.38013 0.21135 0.21369 0.0
H12 H 0.38305 0.19117 0.24299 0.0
C13 C 0.23772 0.28096 0.17557 0.0
N14 N 0.27884 0.2732 0.18735 0.0
C15 C 0.22951 0.30146 0.13567 0.0
C16 C 0.26286 0.31238 0.10686 0.0
H17 H 0.21084 0.27114 0.19702 0.0
H18 H 0.39599 0.29051 0.07428 0.0
H19 H 0.2848 0.24192 0.39773 0.0
H20 H 0.4347 0.24175 0.12372 0.0
H21 H 0.4369 0.19488 0.19153 0.0
H22 H 0.33106 0.32228 0.05686 0.0
H23 H 0.39614 0.42802 0.28872 0.0
H24 H 0.40588 0.22698 0.465 0.0
H25 H 0.32177 0.20308 0.45538 0.0
H26 H 0.52444 0.35101 0.39908 0.0
H27 H 0.19721 0.30824 0.12692 0.0
H28 H 0.25639 0.3282 0.07595 0.0
H29 H 0.48136 0.2814 0.443 0.0
H30 H 0.4795 0.46195 0.29815 0.0
N31 N 0.34691 0.28447 0.37209 0.0
C32 C 0.38973 0.24376 0.43916 0.0
C33 C 0.34228 0.23002 0.43372 0.0
C34 C 0.41571 0.28038 0.41222 0.0
C35 C 0.39303 0.30114 0.37901 0.0
C36 C 0.32133 0.25158 0.40043 0.0
N37 N 0.39398 0.3627 0.32515 0.0
C38 C 0.41731 0.34053 0.35415 0.0
C39 C 0.46265 0.42734 0.31351 0.0
C40 C 0.48769 0.40274 0.34004 0.0
C41 C 0.4155 0.40748 0.30754 0.0
C42 C 0.46489 0.35977 0.36201 0.0
H43 H 0.52416 0.41851 0.3451 0.0
O44 O 0.33259 0.39013 0.34185 0.0
O45 O 0.2681 0.30749 0.25348 0.0
O46 O 0.36541 0.28918 0.24359 0.0
O47 O 0.34949 0.35575 0.25647 0.0
O48 O 0.27286 0.36905 0.27586 0.0
O49 O 0.27562 0.33123 0.36386 0.0
O50 O 0.28041 0.16474 0.24036 0.0
O51 O 0.33918 0.25071 0.31675 0.0
O52 O 0.24552 0.2756 0.33044 0.0
O53 O 0.25125 0.20734 0.30971 0.0
O54 O 0.33428 0.18893 0.29278 0.0
O55 O 0.22651 0.19761 0.23209 0.0
C56 C 0.24918 0.34487 0.24589 0.0
C57 C 0.48788 0.33708 0.39309 0.0
C58 C 0.46333 0.29754 0.41821 0.0
C59 C 0.30164 0.37421 0.36895 0.0
C60 C 0.31424 0.3852 0.412 0.0
C61 C 0.35929 0.39649 0.42921 0.0
C62 C 0.27926 0.38618 0.43583 0.0
C63 C 0.28857 0.40009 0.47616 0.0
C64 C 0.36882 0.40996 0.46988 0.0
C65 C 0.33368 0.41264 0.49315 0.0
C66 C 0.37452 0.33563 0.2391 0.0
C67 C 0.35686 0.21256 0.32319 0.0
C68 C 0.2408 0.16339 0.22211 0.0
C69 C 0.23544 0.1542 0.17764 0.0
C70 C 0.19923 0.1624 0.15143 0.0
C71 C 0.27089 0.14402 0.15989 0.0
C72 C 0.2727 0.14573 0.1167 0.0
C73 C 0.19976 0.16228 0.10826 0.0
C74 C 0.23672 0.15491 0.09081 0.0
C75 C 0.23128 0.22941 0.33117 0.0
H76 H 0.38692 0.39572 0.41121 0.0
H77 H 0.24459 0.3781 0.42212 0.0
H78 H 0.40359 0.4193 0.48304 0.0
H79 H 0.3417 0.42476 0.52397 0.0
H80 H 0.17151 0.17063 0.16413 0.0
H81 H 0.29934 0.13822 0.17964 0.0
H82 H 0.17213 0.16942 0.08817 0.0
H83 H 0.23729 0.15657 0.05729 0.0
Gd84 Gd 0.75515 0.33925 0.30135 0.0
Gd85 Gd 0.8121 0.25506 0.28079 0.0
C86 C 0.96381 0.27489 0.27166 0.0
C87 C 0.97587 0.30664 0.19978 0.0
C88 C 0.89981 0.28507 0.22601 0.0
C89 C 0.91714 0.27201 0.26506 0.0
C90 C 0.92905 0.30126 0.1927 0.0
C91 C 0.9932 0.29342 0.23915 0.0
C92 C 0.97944 0.25778 0.31043 0.0
C93 C 0.94866 0.23722 0.34117 0.0
N94 N 0.88803 0.2539 0.29596 0.0
C95 C 0.90283 0.23512 0.33327 0.0
H96 H 0.87976 0.22049 0.35782 0.0
C97 C 0.83557 0.28462 0.18025 0.0
N98 N 0.85421 0.27936 0.21993 0.0
C99 C 0.86326 0.30077 0.1465 0.0
C100 C 0.91027 0.31008 0.15284 0.0
H101 H 0.7996 0.27847 0.17367 0.0
H102 H 1.02919 0.29644 0.24383 0.0
H103 H 0.68052 0.36839 0.22871 0.0
H104 H 1.01497 0.25934 0.31662 0.0
H105 H 0.96023 0.22329 0.37109 0.0
H106 H 0.99876 0.31963 0.17467 0.0
H107 H 0.77611 0.31948 0.40687 0.0
H108 H 0.54808 0.32168 0.27741 0.0
H109 H 0.59808 0.35958 0.2197 0.0
H110 H 0.57731 0.26908 0.41929 0.0
H111 H 0.84823 0.30632 0.11555 0.0
H112 H 0.93158 0.32265 0.12657 0.0
H113 H 0.54067 0.2872 0.35154 0.0
H114 H 0.73274 0.29186 0.46879 0.0
N115 N 0.67702 0.33383 0.29026 0.0
C116 C 0.58421 0.32514 0.2814 0.0
C117 C 0.61229 0.34664 0.24881 0.0
C118 C 0.60338 0.31028 0.31938 0.0
C119 C 0.65068 0.31564 0.3231 0.0
C120 C 0.65894 0.35159 0.25406 0.0
N121 N 0.71764 0.31403 0.36452 0.0
C122 C 0.67157 0.3058 0.36136 0.0
C123 C 0.71505 0.29538 0.43874 0.0
C124 C 0.66766 0.28385 0.43554 0.0
C125 C 0.73966 0.3113 0.40299 0.0
C126 C 0.64536 0.28991 0.39674 0.0
H127 H 0.64875 0.27154 0.46333 0.0
O128 O 0.80706 0.40655 0.31119 0.0
O129 O 0.81108 0.32972 0.26828 0.0
O130 O 0.86005 0.30196 0.32879 0.0
O131 O 0.81716 0.34787 0.34859 0.0
O132 O 0.76996 0.36638 0.23463 0.0
O133 O 0.73613 0.4032 0.30654 0.0
O134 O 0.75506 0.19048 0.27572 0.0
O135 O 0.75744 0.26449 0.31623 0.0
O136 O 0.71077 0.29644 0.24841 0.0
O137 O 0.75552 0.25256 0.22907 0.0
O138 O 0.80168 0.2305 0.34852 0.0
O139 O 0.82363 0.18864 0.27023 0.0
C140 C 0.80611 0.35302 0.23396 0.0
C141 C 0.59794 0.28185 0.39258 0.0
C142 C 0.57703 0.29208 0.354 0.0
C143 C 0.778 0.4307 0.30759 0.0
C144 C 0.78849 0.47359 0.27792 0.0
C145 C 0.82472 0.5137 0.28718 0.0
C146 C 0.76255 0.47471 0.2402 0.0
C147 C 0.77075 0.5163 0.21263 0.0
C148 C 0.83369 0.55508 0.25976 0.0
C149 C 0.80667 0.55662 0.22291 0.0
C150 C 0.85479 0.33409 0.35208 0.0
C151 C 0.76524 0.24271 0.35097 0.0
C152 C 0.78104 0.16373 0.27376 0.0
C153 C 0.77209 0.12052 0.30302 0.0
C154 C 0.73541 0.08008 0.29558 0.0
C155 C 0.80111 0.11937 0.3384 0.0
C156 C 0.79635 0.07767 0.36515 0.0
C157 C 0.72911 0.03862 0.32292 0.0
C158 C 0.75958 0.03714 0.35756 0.0
C159 C 0.71813 0.26662 0.2238 0.0
H160 H 0.84578 0.5131 0.31575 0.0
H161 H 0.73577 0.44311 0.23242 0.0
H162 H 0.86125 0.58627 0.26736 0.0
H163 H 0.81332 0.58963 0.203 0.0
H164 H 0.71218 0.0804 0.26848 0.0
H165 H 0.8284 0.15102 0.34465 0.0
H166 H 0.70112 1.00734 0.31668 0.0
H167 H 0.75512 1.00427 0.37755 0.0
Gd168 Gd 0.78218 0.74361 0.31134 0.0
Gd169 Gd 0.80247 0.84531 0.25258 0.0
C170 C 0.84535 0.82446 0.12641 0.0
C171 C 0.92577 0.83261 0.14092 0.0
C172 C 0.87962 0.8385 0.19627 0.0
C173 C 0.84128 0.83111 0.16831 0.0
C174 C 0.92221 0.83979 0.18234 0.0
C175 C 0.88745 0.82461 0.11318 0.0
C176 C 0.80724 0.81887 0.09846 0.0
C177 C 0.76682 0.82235 0.1117 0.0
N178 N 0.80057 0.83147 0.18148 0.0
C179 C 0.76444 0.83003 0.15299 0.0
H180 H 0.73358 0.83571 0.16156 0.0
C181 C 0.91252 0.85017 0.26471 0.0
N182 N 0.87518 0.84279 0.23717 0.0
C183 C 0.95532 0.85325 0.25169 0.0
C184 C 0.96021 0.84777 0.21051 0.0
H185 H 0.91045 0.85423 0.29682 0.0
H186 H 0.8909 0.81932 0.08124 0.0
H187 H 0.74519 0.77872 0.39148 0.0
H188 H 0.80912 0.81351 0.06622 0.0
H189 H 0.73768 0.82012 0.08988 0.0
H190 H 0.95811 0.83303 0.13004 0.0
H191 H 0.76283 0.63888 0.26763 0.0
H192 H 0.59963 0.72061 0.3911 0.0
H193 H 0.67197 0.76925 0.423 0.0
H194 H 0.5678 0.60582 0.29165 0.0
H195 H 0.98468 0.86026 0.27348 0.0
H196 H 0.99346 0.84951 0.20084 0.0
H197 H 0.56051 0.66059 0.34041 0.0
H198 H 0.69749 0.57424 0.24387 0.0
N199 N 0.71373 0.73691 0.34197 0.0
C200 C 0.63142 0.72467 0.37721 0.0
C201 C 0.67226 0.75238 0.39519 0.0
C202 C 0.63267 0.69904 0.34394 0.0
C203 C 0.6752 0.70484 0.32775 0.0
C204 C 0.71345 0.75769 0.37735 0.0
N205 N 0.72225 0.67514 0.29249 0.0
C206 C 0.67957 0.67286 0.30187 0.0
C207 C 0.6919 0.6019 0.25994 0.0
C208 C 0.64768 0.60103 0.26701 0.0
C209 C 0.72899 0.63878 0.27362 0.0
C210 C 0.64113 0.63591 0.28933 0.0
H211 H 0.61903 0.57218 0.2567 0.0
O212 O 0.76618 0.68775 0.36155 0.0
O213 O 0.82448 0.77383 0.25248 0.0
O214 O 0.73218 0.79977 0.23039 0.0
O215 O 0.7494 0.7308 0.24847 0.0
O216 O 0.82593 0.70901 0.27542 0.0
O217 O 0.83689 0.72598 0.35099 0.0
O218 O 0.84891 0.91762 0.24936 0.0
O219 O 0.75925 0.81525 0.31135 0.0
O220 O 0.82601 0.79855 0.3532 0.0
O221 O 0.84373 0.86925 0.31194 0.0
O222 O 0.75539 0.87849 0.28462 0.0
O223 O 0.78859 0.89946 0.20764 0.0
C224 C 0.84143 0.73845 0.2433 0.0
C225 C 0.59783 0.6335 0.30145 0.0
C226 C 0.59363 0.66485 0.32903 0.0
C227 C 0.80854 0.69015 0.37136 0.0
C228 C 0.81913 0.64459 0.37711 0.0
C229 C 0.78863 0.60292 0.36246 0.0
C230 C 0.85904 0.64213 0.40019 0.0
C231 C 0.86866 0.5985 0.4087 0.0
C232 C 0.79863 0.55975 0.36986 0.0
C233 C 0.83851 0.55745 0.39273 0.0
C234 C 0.72503 0.75443 0.22593 0.0
C235 C 0.74115 0.85082 0.318 0.0
C236 C 0.82321 0.93339 0.22075 0.0
C237 C 0.81471 0.97876 0.22597 0.0
C238 C 0.84978 0.01681 0.24126 0.0
C239 C 0.77289 0.98601 0.21139 0.0
C240 C 0.76659 0.03106 0.20992 0.0
C241 C 0.84343 0.06173 0.24051 0.0
C242 C 0.80247 0.06918 0.22386 0.0
C243 C 0.84701 0.84454 0.34794 0.0
H244 H 0.7566 0.60322 0.34621 0.0
H245 H 0.88159 0.67385 0.41295 0.0
H246 H 0.77504 0.52786 0.35841 0.0
H247 H 0.8455 0.52346 0.39831 0.0
H248 H 0.88248 0.01222 0.25253 0.0
H249 H 0.74585 0.95726 0.1987 0.0
H250 H 0.87081 0.09118 0.25162 0.0
H251 H 0.79893 0.10464 0.22142 0.0
Gd252 Gd 0.25361 0.84497 0.30096 0.0
Gd253 Gd 0.30261 0.7535 0.28464 0.0
C254 C 0.2095 0.60232 0.31989 0.0
C255 C 0.23657 0.58592 0.39093 0.0
C256 C 0.27122 0.6625 0.3521 0.0
C257 C 0.24166 0.6483 0.31794 0.0
C258 C 0.26927 0.63087 0.38872 0.0
C259 C 0.20665 0.57176 0.35667 0.0
C260 C 0.18184 0.58764 0.28445 0.0
C261 C 0.18841 0.61708 0.24748 0.0
N262 N 0.24543 0.67828 0.28241 0.0
C263 C 0.22138 0.66155 0.24667 0.0
H264 H 0.2282 0.68099 0.21656 0.0
C265 C 0.3342 0.71924 0.38172 0.0
N266 N 0.30195 0.70681 0.34969 0.0
C267 C 0.33335 0.68925 0.41843 0.0
C268 C 0.30044 0.64509 0.42217 0.0
H269 H 0.36217 0.75126 0.37946 0.0
H270 H 0.18196 0.53666 0.35866 0.0
H271 H 0.28063 0.90643 0.38573 0.0
H272 H 0.15676 0.5528 0.28482 0.0
H273 H 0.16901 0.605 0.21921 0.0
H274 H 0.23439 0.56164 0.41894 0.0
H275 H 0.22528 0.86078 0.19854 0.0
H276 H 0.36672 0.04646 0.35 0.0
H277 H 0.32852 0.9856 0.40475 0.0
H278 H 0.35224 0.0555 0.20202 0.0
H279 H 0.35872 0.69997 0.44361 0.0
H280 H 0.29995 0.62188 0.45068 0.0
H281 H 0.37602 0.07213 0.27426 0.0
H282 H 0.24362 0.92326 0.14056 0.0
N283 N 0.29553 0.9209 0.3218 0.0
C284 C 0.34645 0.01158 0.34184 0.0
C285 C 0.32487 0.97737 0.3727 0.0
C286 C 0.33892 1.00149 0.3003 0.0
C287 C 0.31241 0.95535 0.29108 0.0
C288 C 0.29808 0.93255 0.36183 0.0
N289 N 0.27098 0.90211 0.2429 0.0
C290 C 0.29883 0.94603 0.25039 0.0
C291 C 0.25977 0.93006 0.17121 0.0
C292 C 0.29157 0.97393 0.17771 0.0
C293 C 0.24975 0.89443 0.20428 0.0
C294 C 0.31089 0.98282 0.21782 0.0
H295 H 0.30009 1.00083 0.15173 0.0
O296 O 0.19285 0.85922 0.2716 0.0
O297 O 0.24479 0.76577 0.31499 0.0
O298 O 0.25246 0.75832 0.23117 0.0
O299 O 0.20632 0.79493 0.2584 0.0
O300 O 0.23682 0.80223 0.36331 0.0
O301 O 0.20839 0.866 0.33757 0.0
O302 O 0.37225 0.75017 0.29061 0.0
O303 O 0.31104 0.83247 0.2686 0.0
O304 O 0.31231 0.85218 0.34859 0.0
O305 O 0.35235 0.80539 0.32618 0.0
O306 O 0.3201 0.79448 0.22181 0.0
O307 O 0.3216 0.70352 0.25144 0.0
C308 C 0.23528 0.7607 0.3533 0.0
C309 C 0.34078 0.02745 0.22658 0.0
C310 C 0.35476 0.03681 0.26779 0.0
C311 C 0.17989 0.8685 0.30581 0.0
C312 C 0.13122 0.85007 0.31265 0.0
C313 C 0.10372 0.80599 0.30022 0.0
C314 C 0.11203 0.87867 0.33162 0.0
C315 C 0.0657 0.86352 0.33966 0.0
C316 C 0.05724 0.79072 0.30757 0.0
C317 C 0.03835 0.81897 0.32778 0.0
C318 C 0.21561 0.77205 0.22976 0.0
C319 C 0.32159 0.83656 0.23034 0.0
C320 C 0.36442 0.71861 0.26374 0.0
C321 C 0.39719 0.72666 0.23143 0.0
C322 C 0.4296 0.77119 0.22328 0.0
C323 C 0.39608 0.68866 0.20861 0.0
C324 C 0.42742 0.69463 0.17802 0.0
C325 C 0.46104 0.77736 0.19328 0.0
C326 C 0.4603 0.73945 0.17104 0.0
C327 C 0.348 0.83619 0.35098 0.0
H328 H 0.1181 0.78348 0.28519 0.0
H329 H 0.13405 0.91209 0.34195 0.0
H330 H 0.03601 0.75658 0.29829 0.0
H331 H 1.00266 0.80586 0.33454 0.0
H332 H 0.43085 0.8011 0.2402 0.0
H333 H 0.37043 0.65461 0.21454 0.0
H334 H 0.48635 0.81159 0.18742 0.0
H335 H 0.48601 0.74525 0.14875 0.0
Gd336 Gd 0.28747 0.83777 0.78652 0.0
Gd337 Gd 0.33729 0.75229 0.81815 0.0
C338 C 0.485 0.7649 0.86197 0.0
C339 C 0.52044 0.77023 0.79702 0.0
C340 C 0.43874 0.75891 0.797 0.0
C341 C 0.44246 0.76 0.83984 0.0
C342 C 0.47756 0.76183 0.77549 0.0
C343 C 0.52417 0.77222 0.84012 0.0
C344 C 0.4867 0.76059 0.90548 0.0
C345 C 0.44639 0.74981 0.92591 0.0
N346 N 0.404 0.75283 0.86018 0.0
C347 C 0.40508 0.74563 0.90271 0.0
H348 H 0.37442 0.73786 0.91909 0.0
C349 C 0.39104 0.74126 0.73613 0.0
N350 N 0.39679 0.75119 0.7769 0.0
C351 C 0.42839 0.74323 0.71379 0.0
C352 C 0.47198 0.75462 0.73326 0.0
H353 H 0.35816 0.73233 0.71974 0.0
H354 H 0.55732 0.77803 0.8564 0.0
H355 H 0.26372 0.86023 0.68017 0.0
H356 H 0.51868 0.7639 0.92354 0.0
H357 H 0.44714 0.7451 0.95956 0.0
H358 H 0.55072 0.7738 0.78081 0.0
H359 H 0.25116 0.8408 0.88171 0.0
H360 H 0.12228 0.84467 0.66107 0.0
H361 H 0.19782 0.85979 0.63356 0.0
H362 H 0.06979 0.82223 0.79797 0.0
H363 H 0.42351 0.73637 0.68135 0.0
H364 H 0.50088 0.75643 0.71575 0.0
H365 H 0.07486 0.8298 0.72224 0.0
H366 H 0.17998 0.83383 0.91295 0.0
N367 N 0.22718 0.8423 0.73615 0.0
C368 C 0.1513 0.84385 0.68236 0.0
C369 C 0.19385 0.85229 0.66673 0.0
C370 C 0.14695 0.83609 0.7253 0.0
C371 C 0.18592 0.83579 0.75188 0.0
C372 C 0.23152 0.85176 0.69396 0.0
N373 N 0.22116 0.83326 0.81985 0.0
C374 C 0.18286 0.83102 0.79479 0.0
C375 C 0.18017 0.83255 0.87972 0.0
C376 C 0.14001 0.8271 0.85483 0.0
C377 C 0.22067 0.83613 0.86164 0.0
C378 C 0.1411 0.82725 0.81179 0.0
H379 H 0.10867 0.82435 0.86897 0.0
O380 O 0.34328 0.90414 0.78086 0.0
O381 O 0.35377 0.82114 0.77384 0.0
O382 O 0.37693 0.81591 0.85378 0.0
O383 O 0.31959 0.85016 0.85089 0.0
O384 O 0.3183 0.84229 0.72356 0.0
O385 O 0.2766 0.90509 0.79452 0.0
O386 O 0.28117 0.68775 0.81115 0.0
O387 O 0.27171 0.76825 0.83115 0.0
O388 O 0.24234 0.7726 0.75712 0.0
O389 O 0.30099 0.74138 0.75479 0.0
O390 O 0.30817 0.74887 0.88166 0.0
O391 O 0.34668 0.6825 0.83562 0.0
C392 C 0.35579 0.83175 0.73335 0.0
C393 C 0.10212 0.82558 0.78537 0.0
C394 C 0.10503 0.82997 0.74226 0.0
C395 C 0.31769 0.93055 0.78555 0.0
C396 C 0.32123 0.97174 0.75474 0.0
C397 C 0.35897 0.01268 0.75556 0.0
C398 C 0.28604 0.97025 0.72437 0.0
C399 C 0.28697 0.00923 0.69532 0.0
C400 C 0.36083 0.0517 0.72603 0.0
C401 C 0.32494 0.05011 0.69586 0.0
C402 C 0.36 0.84798 0.86554 0.0
C403 C 0.2695 0.75687 0.87148 0.0
C404 C 0.30297 0.66085 0.83216 0.0
C405 C 0.28107 0.63482 0.87011 0.0
C406 C 0.23348 0.62163 0.87313 0.0
C407 C 0.30853 0.62918 0.9056 0.0
C408 C 0.29001 0.61279 0.94434 0.0
C409 C 0.21443 0.60393 0.91155 0.0
C410 C 0.24259 0.59958 0.94722 0.0
C411 C 0.25858 0.74072 0.74436 0.0
H412 H 0.3867 0.01449 0.77896 0.0
H413 H 0.25728 0.93847 0.72359 0.0
H414 H 0.38988 0.08335 0.72682 0.0
H415 H 0.32647 0.08081 0.67367 0.0
H416 H 0.21122 0.62614 0.84615 0.0
H417 H 0.34496 0.63736 0.90296 0.0
H418 H 0.17784 0.59401 0.91375 0.0
H419 H 0.22752 0.58554 0.9767 0.0
Gd420 Gd 0.31535 0.2665 0.75859 0.0
Gd421 Gd 0.22687 0.26022 0.8257 0.0
C422 C 0.19627 0.12574 0.91715 0.0
C423 C 0.1215 0.07989 0.89073 0.0
C424 C 0.15855 0.15893 0.85794 0.0
C425 C 0.19619 0.16251 0.88523 0.0
C426 C 0.12004 0.11833 0.86137 0.0
C427 C 0.15959 0.08362 0.91866 0.0
C428 C 0.2318 0.13355 0.94804 0.0
C429 C 0.26447 0.1781 0.94789 0.0
N430 N 0.23039 0.20419 0.88346 0.0
C431 C 0.26268 0.21345 0.91567 0.0
H432 H 0.28818 0.24743 0.91629 0.0
C433 C 0.11777 0.19947 0.80985 0.0
N434 N 0.15782 0.19731 0.83091 0.0
C435 C 0.07895 0.15979 0.8116 0.0
C436 C 0.08041 0.11862 0.8368 0.0
H437 H 0.11608 0.23119 0.7905 0.0
H438 H 0.15939 0.0547 0.94251 0.0
H439 H 0.31313 0.17625 0.70339 0.0
H440 H 0.2331 0.10632 0.97314 0.0
H441 H 0.29118 0.18524 0.97248 0.0
H442 H 0.09251 0.04811 0.89341 0.0
H443 H 0.33499 0.38574 0.75461 0.0
H444 H 0.28366 0.21611 0.57497 0.0
H445 H 0.29913 0.15684 0.63018 0.0
H446 H 0.28752 0.37938 0.57463 0.0
H447 H 0.04796 0.16112 0.79363 0.0
H448 H 0.05025 0.08805 0.83857 0.0
H449 H 0.2787 0.29921 0.55447 0.0
H450 H 0.33069 0.45182 0.70265 0.0
N451 N 0.30411 0.24508 0.68966 0.0
C452 C 0.28995 0.22481 0.60697 0.0
C453 C 0.29876 0.19129 0.63801 0.0
C454 C 0.29124 0.26986 0.61734 0.0
C455 C 0.29955 0.27939 0.65945 0.0
C456 C 0.30688 0.20245 0.67931 0.0
N457 N 0.31635 0.33333 0.71105 0.0
C458 C 0.30564 0.3248 0.67053 0.0
C459 C 0.3236 0.41627 0.69318 0.0
C460 C 0.31098 0.40771 0.65171 0.0
C461 C 0.32632 0.37856 0.72258 0.0
C462 C 0.30234 0.36169 0.63983 0.0
H463 H 0.30862 0.43695 0.62904 0.0
O464 O 0.38725 0.30325 0.74877 0.0
O465 O 0.29252 0.24134 0.82397 0.0
O466 O 0.29528 0.30069 0.85509 0.0
O467 O 0.34729 0.32321 0.80349 0.0
O468 O 0.3063 0.19234 0.79285 0.0
O469 O 0.36511 0.227 0.76131 0.0
O470 O 0.22836 0.3324 0.83588 0.0
O471 O 0.26044 0.3018 0.76796 0.0
O472 O 0.25217 0.21908 0.72904 0.0
O473 O 0.19561 0.20695 0.77571 0.0
O474 O 0.18988 0.28187 0.76771 0.0
O475 O 0.18584 0.2738 0.87216 0.0
C476 C 0.29867 0.20012 0.82947 0.0
C477 C 0.29115 0.35167 0.59826 0.0
C478 C 0.28588 0.30595 0.58692 0.0
C479 C 0.3989 0.26408 0.75129 0.0
C480 C 0.43116 0.25941 0.72116 0.0
C481 C 0.4607 0.30117 0.70221 0.0
C482 C 0.43669 0.21461 0.71448 0.0
C483 C 0.47203 0.21251 0.69006 0.0
C484 C 0.49489 0.29908 0.67782 0.0
C485 C 0.50073 0.25541 0.67203 0.0
C486 C 0.33478 0.32734 0.84057 0.0
C487 C 0.22383 0.30426 0.74558 0.0
C488 C 0.19888 0.31977 0.86429 0.0
C489 C 0.16338 0.34497 0.86106 0.0
C490 C 0.13476 0.34381 0.82483 0.0
C491 C 0.1588 0.37161 0.89343 0.0
C492 C 0.1256 0.39669 0.88945 0.0
C493 C 0.10256 0.36869 0.82041 0.0
C494 C 0.0981 0.3949 0.85208 0.0
C495 C 0.21043 0.19893 0.74062 0.0
H496 H 0.45807 0.33587 0.70692 0.0
H497 H 0.41467 0.18186 0.72901 0.0
H498 H 0.51742 0.33168 0.66362 0.0
H499 H 0.52764 0.25513 0.65284 0.0
H500 H 0.13761 0.32403 0.79966 0.0
H501 H 0.18068 0.37237 0.92161 0.0
H502 H 0.08101 0.36792 0.79203 0.0
H503 H 0.07325 0.4144 0.84685 0.0
Gd504 Gd 0.77245 0.32492 0.78136 0.0
Gd505 Gd 0.82275 0.23374 0.82171 0.0
C506 C 0.7684 0.13658 0.93696 0.0
C507 C 0.83472 0.15343 0.98568 0.0
C508 C 0.83977 0.19247 0.91518 0.0
C509 C 0.79414 0.16908 0.90647 0.0
C510 C 0.86088 0.18376 0.9545 0.0
C511 C 0.78851 0.12998 0.97696 0.0
C512 C 0.72369 0.11044 0.92591 0.0
C513 C 0.70686 0.1143 0.88459 0.0
N514 N 0.77579 0.17559 0.86735 0.0
C515 C 0.73401 0.14646 0.85528 0.0
H516 H 0.72063 0.1495 0.82347 0.0
C517 C 0.91063 0.23883 0.8894 0.0
N518 N 0.86422 0.22122 0.88429 0.0
C519 C 0.93306 0.23134 0.92789 0.0
C520 C 0.90798 0.20442 0.96083 0.0
H521 H 0.93047 0.2593 0.8641 0.0
H522 H 0.76906 0.10551 1.00088 0.0
H523 H 0.86933 0.41383 0.76891 0.0
H524 H 0.70252 0.08633 0.94884 0.0
H525 H 0.67285 0.09296 0.8754 0.0
H526 H 0.85023 0.14674 0.01623 0.0
H527 H 0.66113 0.29089 0.74639 0.0
H528 H 0.87566 0.46257 0.63908 0.0
H529 H 0.91112 0.46665 0.71101 0.0
H530 H 0.7249 0.38932 0.58406 0.0
H531 H 0.96969 0.24629 0.9321 0.0
H532 H 0.92548 0.19853 0.99056 0.0
H533 H 0.80613 0.43457 0.5921 0.0
H534 H 0.61573 0.29584 0.68069 0.0
N535 N 0.81288 0.37958 0.72953 0.0
C536 C 0.85756 0.44015 0.66453 0.0
C537 C 0.87753 0.44232 0.70498 0.0
C538 C 0.81316 0.41076 0.65752 0.0
C539 C 0.79115 0.38082 0.69124 0.0
C540 C 0.85396 0.4123 0.73755 0.0
N541 N 0.72481 0.32912 0.72054 0.0
C542 C 0.74554 0.35533 0.68666 0.0
C543 C 0.65229 0.31231 0.68181 0.0
C544 C 0.67362 0.33659 0.64607 0.0
C545 C 0.67838 0.30935 0.71908 0.0
C546 C 0.72068 0.35911 0.64832 0.0
H547 H 0.6533 0.33883 0.61725 0.0
O548 O 0.72171 0.34381 0.81194 0.0
O549 O 0.76957 0.26658 0.83189 0.0
O550 O 0.76626 0.20443 0.76824 0.0
O551 O 0.75067 0.27043 0.73149 0.0
O552 O 0.70862 0.26896 0.80189 0.0
O553 O 0.78263 0.39871 0.79245 0.0
O554 O 0.86902 0.21977 0.78152 0.0
O555 O 0.82896 0.29516 0.77353 0.0
O556 O 0.82722 0.35328 0.83591 0.0
O557 O 0.84663 0.28838 0.87187 0.0
O558 O 0.88803 0.29154 0.80789 0.0
O559 O 0.82144 0.16103 0.81536 0.0
C560 C 0.7268 0.24745 0.83211 0.0
C561 C 0.74324 0.38651 0.61393 0.0
C562 C 0.7895 0.41218 0.61849 0.0
C563 C 0.74368 0.38902 0.80923 0.0
C564 C 0.71583 0.42103 0.79704 0.0
C565 C 0.69768 0.42651 0.75614 0.0
C566 C 0.70357 0.44273 0.82834 0.0
C567 C 0.67154 0.46788 0.81956 0.0
C568 C 0.66578 0.45174 0.74719 0.0
C569 C 0.65192 0.47148 0.77895 0.0
C570 C 0.74767 0.22415 0.7343 0.0
C571 C 0.87183 0.31545 0.77781 0.0
C572 C 0.85465 0.17401 0.79038 0.0
C573 C 0.88937 0.14894 0.79609 0.0
C574 C 0.90075 0.12758 0.83481 0.0
C575 C 0.91022 0.145 0.76069 0.0
C576 C 0.94195 0.11932 0.7631 0.0
C577 C 0.93226 0.10173 0.83756 0.0
C578 C 0.95241 0.09712 0.80187 0.0
C579 C 0.84728 0.33421 0.86936 0.0
H580 H 0.70731 0.41061 0.73146 0.0
H581 H 0.71739 0.43822 0.86004 0.0
H582 H 0.65116 0.45524 0.71577 0.0
H583 H 0.6263 0.48989 0.77181 0.0
H584 H 0.88498 0.13033 0.86258 0.0
H585 H 0.90042 0.16082 0.73079 0.0
H586 H 0.94074 0.0848 0.86732 0.0
H587 H 0.97616 0.07639 0.80458 0.0
Gd588 Gd 0.79679 0.84261 0.83354 0.0
Gd589 Gd 0.79303 0.75123 0.77116 0.0
C590 C 0.69816 0.74133 0.65429 0.0
C591 C 0.64587 0.66151 0.66599 0.0
C592 C 0.70688 0.69198 0.71782 0.0
C593 C 0.72057 0.73518 0.69355 0.0
C594 C 0.67004 0.65435 0.70379 0.0
C595 C 0.65999 0.70484 0.64123 0.0
C596 C 0.71576 0.78331 0.62865 0.0
C597 C 0.75538 0.81735 0.64193 0.0
N598 N 0.75793 0.76968 0.70675 0.0
C599 C 0.7763 0.80968 0.68112 0.0
H600 H 0.8069 0.83586 0.691 0.0
C601 C 0.72422 0.64135 0.77483 0.0
N602 N 0.73193 0.68543 0.75345 0.0
C603 C 0.6875 0.60339 0.76264 0.0
C604 C 0.65987 0.60999 0.72727 0.0
H605 H 0.74557 0.63587 0.80209 0.0
H606 H 0.64201 0.70923 0.61144 0.0
H607 H 0.74488 0.76055 0.91037 0.0
H608 H 0.6996 0.78933 0.59826 0.0
H609 H 0.76976 0.84956 0.62207 0.0
H610 H 0.61723 0.63316 0.65491 0.0
H611 H 0.88894 0.93904 0.81027 0.0
H612 H 0.84236 0.75984 0.01207 0.0
H613 H 0.76457 0.72898 0.98011 0.0
H614 H 0.97625 0.88082 0.96803 0.0
H615 H 0.68064 0.56924 0.78066 0.0
H616 H 0.63175 0.58024 0.71766 0.0
H617 H 0.92103 0.8159 1.00704 0.0
H618 H 0.96666 0.97375 0.83863 0.0
N619 N 0.81152 0.80854 0.90081 0.0
C620 C 0.83407 0.77389 0.98097 0.0
C621 C 0.79018 0.75634 0.96302 0.0
C622 C 0.8666 0.80981 0.95885 0.0
C623 C 0.85422 0.82691 0.91829 0.0
C624 C 0.77927 0.7744 0.92297 0.0
N625 N 0.87243 0.8808 0.85776 0.0
C626 C 0.88559 0.86347 0.89602 0.0
C627 C 0.94458 0.94217 0.85471 0.0
C628 C 0.9596 0.92284 0.89252 0.0
C629 C 0.90047 0.92135 0.83819 0.0
C630 C 0.92976 0.88383 0.91417 0.0
H631 H 0.99367 0.93942 0.90546 0.0
O632 O 0.80393 0.91503 0.84528 0.0
O633 O 0.76621 0.81703 0.76997 0.0
O634 O 0.85883 0.8105 0.77213 0.0
O635 O 0.83783 0.87634 0.77774 0.0
O636 O 0.7574 0.87869 0.78547 0.0
O637 O 0.74893 0.85721 0.87225 0.0
O638 O 0.8247 0.69498 0.76766 0.0
O639 O 0.8295 0.78073 0.83211 0.0
O640 O 0.72946 0.7862 0.84141 0.0
O641 O 0.72515 0.72549 0.80034 0.0
O642 O 0.80091 0.70788 0.83269 0.0
O643 O 0.83666 0.75398 0.7207 0.0
C644 C 0.74603 0.85033 0.75647 0.0
C645 C 0.94241 0.86581 0.95389 0.0
C646 C 0.91091 0.82899 0.97618 0.0
C647 C 0.76846 0.90319 0.86781 0.0
C648 C 0.77078 0.9313 0.90318 0.0
C649 C 0.81249 0.95054 0.92513 0.0
C650 C 0.73157 0.94249 0.91275 0.0
C651 C 0.73407 0.97283 0.94406 0.0
C652 C 0.81541 0.98118 0.95554 0.0
C653 C 0.7768 0.99251 0.96476 0.0
C654 C 0.8626 0.85531 0.76088 0.0
C655 C 0.82677 0.74032 0.85513 0.0
C656 C 0.84468 0.71372 0.73342 0.0
C657 C 0.84319 0.68076 0.7014 0.0
C658 C 0.80302 0.66379 0.67674 0.0
C659 C 0.8817 0.66577 0.69529 0.0
C660 C 0.87944 0.63355 0.66514 0.0
C661 C 0.80052 0.63243 0.6471 0.0
C662 C 0.83812 0.61746 0.64131 0.0
C663 C 0.70767 0.74525 0.82641 0.0
H664 H 0.843 0.94268 0.91816 0.0
H665 H 0.69925 0.92735 0.89601 0.0
H666 H 0.84786 0.99649 0.97192 0.0
H667 H 0.78049 0.01685 0.98825 0.0
H668 H 0.7735 0.67495 0.68018 0.0
H669 H 0.91295 0.67869 0.7142 0.0
H670 H 0.76921 0.6198 0.62822 0.0
H671 H 0.83494 0.59384 0.61733 0.0
Fe672 Fe 0.0382 0.13905 0.52265 0.0
O673 O 1.02968 0.07124 0.5155 0.0
Fe674 Fe 0.0851 0.04455 0.52866 0.0
Fe675 Fe 0.98339 0.018 0.54578 0.0
O676 O 0.03409 0.07292 0.51572 0.0
O677 O 0.03951 0.99309 0.56122 0.0
O678 O 0.03513 0.99157 0.56145 0.0
Fe679 Fe 0.03165 0.92524 0.55767 0.0
C680 C 0.99634 0.09267 0.60407 0.0
O681 O 0.97745 0.12252 0.48727 0.0
O682 O 0.9352 0.05356 0.52379 0.0
O683 O 0.06896 0.93852 0.50666 0.0
O684 O 0.06463 1.00798 0.4758 0.0
O685 O 0.12595 0.10162 0.49126 0.0
O686 O 0.08221 0.15269 0.474 0.0
O687 O 0.96492 0.98128 0.49273 0.0
O688 O 0.97187 0.9105 0.51872 0.0
C689 C 0.11614 0.13686 0.46841 0.0
O690 O 0.09397 0.94424 0.59076 0.0
O691 O 0.13293 1.00854 0.54755 0.0
O692 O 0.99879 0.12491 0.57392 0.0
O693 O 0.99948 0.05211 0.59879 0.0
C694 C 0.93978 0.08842 0.49431 0.0
C695 C 0.95613 0.9365 0.49064 0.0
C696 C 0.9555 0.92961 0.6097 0.0
O697 O 0.94262 0.96041 0.58312 0.0
O698 O 0.99073 0.91522 0.60642 0.0
C699 C 0.0622 0.96441 0.47425 0.0
O700 O 0.1064 0.0797 0.58233 0.0
O701 O 0.09492 0.15051 0.56488 0.0
C702 C 0.13088 0.97725 0.57951 0.0
C703 C 0.1106 0.1221 0.59031 0.0
Fe704 Fe 0.51282 0.97987 0.07448 0.0
O705 O 0.51496 0.04709 0.06469 0.0
Fe706 Fe 0.45855 0.06673 0.03314 0.0
Fe707 Fe 0.56752 0.09624 0.03782 0.0
O708 O 0.50961 0.04589 0.06479 0.0
O709 O 0.51131 0.11684 1.00554 0.0
O710 O 0.51754 0.11946 1.007 0.0
Fe711 Fe 0.52058 0.18755 1.00352 0.0
C712 C 0.60562 0.03799 0.10877 0.0
O713 O 0.5627 0.98666 0.03419 0.0
O714 O 0.56757 0.05249 0.99194 0.0
O715 O 0.46524 0.16903 0.9593 0.0
O716 O 0.41435 0.10109 0.99071 0.0
O717 O 0.45259 0.01957 0.98847 0.0
O718 O 0.46384 0.95571 0.02724 0.0
O719 O 0.61647 0.15059 1.00344 0.0
O720 O 0.57333 0.19382 0.96549 0.0
C721 C 0.44994 0.97522 0.99345 0.0
O722 O 0.4687 0.18078 0.04169 0.0
O723 O 0.46205 0.11146 0.0776 0.0
O724 O 0.56683 1.00639 0.11697 0.0
O725 O 0.61254 0.06722 0.07524 0.0
C726 C 0.57719 0.01335 1.00156 0.0
C727 C 0.6096 0.17978 0.9719 0.0
C728 C 0.58556 0.18281 0.08514 0.0
O729 O 0.57365 0.13772 0.08647 0.0
O730 O 0.57214 0.20671 0.05352 0.0
C731 C 0.42433 0.1387 0.9623 0.0
O732 O 0.41231 0.01013 0.07326 0.0
O733 O 0.46056 0.97264 0.1124 0.0
C734 C 0.4493 0.14844 0.069 0.0
C735 C 0.42185 0.98161 0.1054 0.0
Fe736 Fe 0.0325 0.64547 0.05443 0.0
O737 O 0.99497 0.57418 0.05091 0.0
Fe738 Fe 0.13449 0.57696 0.08556 0.0
Fe739 Fe 0.92507 0.55348 0.05062 0.0
O740 O 0.0656 0.58785 0.08641 0.0
O741 O 0.0679 0.55585 0.09785 0.0
O742 O 0.99257 0.55749 0.05088 0.0
Fe743 Fe 1.02403 0.50139 0.0732 0.0
C744 C 0.94587 0.64343 0.11463 0.0
O745 O 0.98282 0.67074 1.00924 0.0
O746 O 0.92359 0.60519 0.99868 0.0
O747 O 0.05686 0.51476 0.01851 0.0
O748 O 0.12743 0.52778 0.04256 0.0
O749 O 0.14127 0.63121 0.03292 0.0
O750 O 0.08031 0.6541 1.00326 0.0
O751 O 0.9222 0.49747 0.01128 0.0
O752 O 0.9704 0.45237 0.03637 0.0
C753 C 0.12361 0.65489 1.00306 0.0
O754 O 0.07507 0.4565 0.10762 0.0
O755 O 0.13516 0.5155 0.13241 0.0
O756 O 0.99031 0.65556 0.10774 0.0
O757 O 0.92092 0.60755 0.09405 0.0
C758 C 0.94342 0.65028 0.98968 0.0
C759 C 0.93753 0.46069 1.00995 0.0
C760 C 0.94148 0.47954 0.1264 0.0
O761 O 0.92178 0.50384 0.10042 0.0
O762 O 0.98366 0.48133 0.12514 0.0
C763 C 0.09605 0.51072 0.01581 0.0
O764 O 0.14819 0.62837 0.12735 0.0
O765 O 0.08626 0.63664 0.09485 0.0
C766 C 0.11611 0.469 0.13115 0.0
C767 C 0.1204 0.6531 0.12038 0.0
Fe768 Fe 0.52519 0.54243 0.98221 0.0
O769 O 0.56668 0.58699 0.02071 0.0
Fe770 Fe 0.45012 0.46208 0.04861 0.0
Fe771 Fe 0.63021 0.62324 0.01102 0.0
O772 O 0.51225 0.49755 0.03375 0.0
O773 O 0.51405 0.49709 0.03793 0.0
O774 O 0.56862 0.58624 0.0242 0.0
Fe775 Fe 0.55246 0.54376 0.07618 0.0
C776 C 0.61412 0.53931 0.95646 0.0
O777 O 0.54711 0.59571 0.93258 0.0
O778 O 0.59813 0.65761 0.96506 0.0
O779 O 0.50116 0.57206 0.07937 0.0
O780 O 0.44388 0.50644 0.09298 0.0
O781 O 0.42125 0.50013 1.00468 0.0
O782 O 0.47294 0.56994 0.99219 0.0
O783 O 0.62499 0.66069 0.05979 0.0
O784 O 0.59462 0.59935 0.10955 0.0
C785 C 0.43212 0.54503 0.9993 0.0
O786 O 0.52805 0.49269 0.12669 0.0
O787 O 0.4818 0.42807 0.09493 0.0
O788 O 0.57629 0.5155 0.97149 0.0
O789 O 0.63558 0.58155 0.96552 0.0
C790 C 0.57427 0.63933 0.93271 0.0
C791 C 0.61559 0.64376 0.09782 0.0
C792 C 0.64745 0.54228 0.07419 0.0
O793 O 0.66009 0.58406 0.05532 0.0
O794 O 0.60586 0.51696 0.07387 0.0
C795 C 0.46252 0.55138 0.09354 0.0
O796 O 0.45415 0.42543 0.99925 0.0
O797 O 0.47944 0.48785 0.94874 0.0
C798 C 0.50366 0.44799 0.12725 0.0
C799 C 0.45813 0.44332 0.96055 0.0
Fe800 Fe 0.04081 0.38955 0.56956 0.0
O801 O 0.04867 0.45775 0.56972 0.0
Fe802 Fe 0.07512 0.50553 0.517 0.0
Fe803 Fe 0.07863 0.49772 0.61641 0.0
O804 O 0.04831 0.4584 0.56494 0.0
O805 O 0.10942 0.54401 0.56322 0.0
O806 O 0.11091 0.54294 0.56918 0.0
Fe807 Fe 0.113 0.61185 0.5621 0.0
C808 C 1.00209 0.4064 0.64998 0.0
O809 O 0.09062 0.38786 0.61792 0.0
O810 O 0.13081 0.46257 0.62948 0.0
O811 O 0.15564 0.61919 0.51464 0.0
O812 O 0.11081 0.56431 0.47194 0.0
O813 O 0.12679 0.47604 0.51724 0.0
O814 O 0.09109 0.39774 0.5286 0.0
O815 O 0.11652 0.5502 0.65715 0.0
O816 O 0.15839 0.61197 0.61231 0.0
C817 C 0.12657 0.43269 0.52042 0.0
O818 O 0.06161 0.60951 0.51538 0.0
O819 O 1.02287 0.53296 0.51796 0.0
O820 O 0.99592 0.38502 0.61587 0.0
O821 O 0.03613 0.44444 0.65766 0.0
C822 C 0.12604 0.41725 0.63391 0.0
C823 C 0.14885 0.59047 0.64909 0.0
C824 C 1.03002 0.57305 0.61489 0.0
O825 O 1.02579 0.52958 0.61006 0.0
O826 O 0.06634 0.60575 0.60591 0.0
C827 C 0.1439 0.60418 0.47804 0.0
O828 O 0.03138 0.45733 0.4746 0.0
O829 O 0.99508 0.39066 0.51695 0.0
C830 C 1.02492 0.57617 0.50931 0.0
C831 C 0.99918 0.41661 0.48126 0.0
Fe832 Fe 0.57641 0.90855 0.53212 0.0
O833 O 0.59167 0.97993 0.5313 0.0
Fe834 Fe 0.56353 0.01739 0.4677 0.0
Fe835 Fe 0.57453 0.01032 0.57945 0.0
O836 O 0.59036 0.98166 0.51985 0.0
O837 O 0.54686 0.04596 0.5174 0.0
O838 O 0.54901 0.04575 0.52756 0.0
Fe839 Fe 0.55649 0.11602 0.52226 0.0
C840 C 0.50357 0.91434 0.59994 0.0
O841 O 0.62719 0.91588 0.58227 0.0
O842 O 0.60882 0.96467 0.62413 0.0
O843 O 0.60272 0.13616 0.47548 0.0
O844 O 0.62376 0.07286 0.46271 0.0
O845 O 0.59857 0.97104 0.4297 0.0
O846 O 0.62031 0.91701 0.47875 0.0
O847 O 0.63717 0.06642 0.58587 0.0
O848 O 0.61065 0.12871 0.57016 0.0
C849 C 0.62145 0.93687 0.43973 0.0
O850 O 0.50301 0.11228 0.47276 0.0
O851 O 0.52016 0.06783 0.42644 0.0
O852 O 0.52785 0.89269 0.58337 0.0
O853 O 0.50996 0.95837 0.5873 0.0
C854 C 0.62983 0.93238 0.61844 0.0
C855 C 0.63887 0.10959 0.59171 0.0
C856 C 0.52229 0.07715 0.60913 0.0
O857 O 0.54867 0.04928 0.61877 0.0
O858 O 0.51431 0.09523 0.57173 0.0
C859 C 0.62862 0.11763 0.45898 0.0
O860 O 0.50289 0.96385 0.46988 0.0
O861 O 0.5232 0.89722 0.48641 0.0
C862 C 0.49735 0.09969 0.43478 0.0
C863 C 0.49619 0.91952 0.46837 0.0
C864 C 0.19779 0.15733 0.38114 0.0
C865 C 0.19819 0.20298 0.36295 0.0
H866 H 0.17252 0.10109 0.42901 0.0
C867 C 0.17079 0.22615 0.37932 0.0
H868 H 0.21899 0.13876 0.36982 0.0
C869 C 0.14421 0.2047 0.4132 0.0
C870 C 0.14473 0.15965 0.4323 0.0
H871 H 0.17046 0.26148 0.36635 0.0
H872 H 0.12389 0.22396 0.42493 0.0
C873 C 0.17163 0.13607 0.41555 0.0
C874 C 0.82163 0.05623 0.43928 0.0
C875 C 0.83214 0.07726 0.39882 0.0
H876 H 0.84771 0.0436 0.50199 0.0
C877 C 0.87785 0.10088 0.39049 0.0
H878 H 0.78667 0.03778 0.44653 0.0
C879 C 0.91198 0.10562 0.422 0.0
C880 C 0.90177 0.08562 0.46267 0.0
H881 H 0.88743 0.11611 0.35938 0.0
H882 H 0.94673 0.12412 0.41404 0.0
C883 C 0.85637 0.06007 0.47101 0.0
C884 C 0.88571 0.84158 0.4201 0.0
C885 C 0.87503 0.86874 0.38414 0.0
H886 H 0.91916 0.84102 0.48104 0.0
C887 C 0.8911 0.91881 0.38368 0.0
H888 H 0.87428 0.80302 0.42187 0.0
C889 C 0.91672 0.94085 0.41819 0.0
C890 C 0.92755 0.91354 0.45408 0.0
H891 H 0.88361 0.94109 0.35674 0.0
H892 H 0.92841 0.9794 0.41654 0.0
C893 C 0.91163 0.86352 0.45428 0.0
C894 C 0.06527 0.94122 0.363 0.0
C895 C 0.04952 0.89095 0.36693 0.0
H896 H 0.08205 1.00479 0.3947 0.0
C897 C 1.02857 0.86712 0.4031 0.0
H898 H 0.08083 0.96045 0.33494 0.0
C899 C 1.02979 0.89226 0.43699 0.0
C900 C 0.05128 0.9417 0.4351 0.0
H901 H 1.01594 0.82858 0.40707 0.0
H902 H 1.01682 0.87235 0.46577 0.0
C903 C 0.06615 0.96659 0.39706 0.0
C904 C 0.20328 0.98327 0.67909 0.0
C905 C 0.24737 1.0055 0.66532 0.0
H906 H 0.1325 0.95504 0.66261 0.0
C907 C 0.25306 0.01891 0.62274 0.0
H908 H 0.1977 0.97352 0.71189 0.0
C909 C 0.21523 1.00881 0.59433 0.0
C910 C 0.17152 0.98458 0.60819 0.0
H911 H 0.2867 0.03583 0.61136 0.0
H912 H 0.2202 0.01949 0.56156 0.0
C913 C 0.16593 0.97224 0.65084 0.0
C914 C 0.19056 0.13749 0.68893 0.0
C915 C 0.17845 0.17192 0.70819 0.0
H916 H 0.17876 0.09442 0.63753 0.0
C917 C 0.14242 0.18823 0.68919 0.0
H918 H 0.2188 0.12488 0.70216 0.0
C919 C 0.12066 0.17226 0.65105 0.0
C920 C 0.13359 0.13868 0.63122 0.0
H921 H 0.13293 0.21558 0.70247 0.0
H922 H 0.09389 0.18661 0.63683 0.0
C923 C 0.16797 0.12047 0.65149 0.0
C924 C 0.96427 0.06934 0.71636 0.0
C925 C 0.96156 0.11395 0.72443 0.0
H926 H 0.97747 0.02772 0.67218 0.0
C927 C 0.9739 0.15253 0.69366 0.0
H928 H 0.95472 0.03884 0.73924 0.0
C929 C 0.98616 0.14603 0.65482 0.0
C930 C 0.98672 0.10088 0.64605 0.0
H931 H 0.97307 0.18762 0.69929 0.0
H932 H 0.99441 0.17619 0.63148 0.0
C933 C 0.97687 0.06293 0.67766 0.0
C934 C 0.91943 0.85657 0.71101 0.0
C935 C 0.88999 0.87875 0.725 0.0
H936 H 0.96155 0.85394 0.6635 0.0
C937 C 0.88209 0.91846 0.70082 0.0
H938 H 0.92622 0.82587 0.7288 0.0
C939 C 0.90217 0.9345 0.66257 0.0
C940 C 0.9308 0.91136 0.64821 0.0
H941 H 0.85905 0.93588 0.71062 0.0
H942 H 0.89555 0.9651 0.64448 0.0
C943 C 0.93941 0.87251 0.67319 0.0
C944 C 0.33641 0.10964 0.11969 0.0
C945 C 0.31477 0.14248 0.10002 0.0
H946 H 0.39618 0.08647 0.12668 0.0
C947 C 0.33692 0.1762 0.06875 0.0
H948 H 0.31938 0.08279 0.14312 0.0
C949 C 0.38103 0.1788 0.05932 0.0
C950 C 0.4037 0.14741 0.08077 0.0
H951 H 0.32114 0.20206 0.05304 0.0
H952 H 0.39742 0.20568 0.03538 0.0
C953 C 0.3804 0.11209 0.11043 0.0
C954 C 0.83061 0.39822 0.16709 0.0
C955 C 0.84321 0.38089 0.2068 0.0
H956 H 0.85122 0.44082 0.1111 0.0
C957 C 0.88984 0.39427 0.22038 0.0
H958 H 0.79512 0.38854 0.15574 0.0
C959 C 0.92307 0.42526 0.19442 0.0
C960 C 0.90978 0.44378 0.15497 0.0
H961 H 0.90038 0.38176 0.25127 0.0
H962 H 0.95854 0.43577 0.20563 0.0
C963 C 0.86315 0.42866 0.1416 0.0
C964 C 0.68171 1.00561 0.19846 0.0
C965 C 0.72424 0.03825 0.1892 0.0
H966 H 0.61066 0.97984 0.18043 0.0
C967 C 0.7267 0.07346 0.15591 0.0
H968 H 0.67905 0.97831 0.22427 0.0
C969 C 0.68785 0.07404 0.13053 0.0
C970 C 0.64559 0.03972 0.13823 0.0
H971 H 0.75913 0.09877 0.14795 0.0
H972 H 0.69142 0.10061 0.10409 0.0
C973 C 0.64267 1.0064 0.17327 0.0
C974 C 0.13779 0.7286 0.20474 0.0
C975 C 0.18192 0.75715 0.1959 0.0
H976 H 0.08088 0.6718 0.18458 0.0
C977 C 0.19697 0.76197 0.15573 0.0
H978 H 0.12593 0.72457 0.23581 0.0
C979 C 0.17102 0.73271 0.12644 0.0
C980 C 0.13048 0.69827 0.13768 0.0
H981 H 0.23089 0.78432 0.14854 0.0
H982 H 0.18576 0.73224 0.09742 0.0
C983 C 0.11194 0.69882 0.17544 0.0
C984 C 0.3725 0.92266 0.90116 0.0
C985 C 0.38479 0.88115 0.89739 0.0
H986 H 0.38373 0.98515 0.93338 0.0
C987 C 0.42013 0.87218 0.92445 0.0
H988 H 0.34575 0.9312 0.88069 0.0
C989 C 0.44129 0.90278 0.95536 0.0
C990 C 0.42866 0.94402 0.95932 0.0
H991 H 0.43095 0.84113 0.92233 0.0
H992 H 0.4678 0.8942 0.97616 0.0
C993 C 0.39445 0.9539 0.9313 0.0
C994 C 0.15549 0.45176 0.94781 0.0
C995 C 0.11871 0.42492 0.92316 0.0
H996 H 0.17758 0.49986 0.99573 0.0
C997 C 0.07464 0.42696 0.92963 0.0
H998 H 0.18997 0.45175 0.94378 0.0
C999 C 0.06765 0.45534 0.95876 0.0
C1000 C 0.10434 0.48247 0.98313 0.0
H1001 H 0.04504 0.4062 0.9123 0.0
H1002 H 0.03312 0.45539 0.96256 0.0
C1003 C 0.1484 0.47994 0.97738 0.0
C1004 C 0.65219 0.20663 0.86301 0.0
C1005 C 0.69959 0.22644 0.86948 0.0
H1006 H 0.58754 0.17696 0.88984 0.0
C1007 C 0.7182 0.22927 0.91088 0.0
H1008 H 0.63657 0.20395 0.83171 0.0
C1009 C 0.68973 0.21242 0.94477 0.0
C1010 C 0.64205 0.19417 0.93776 0.0
H1011 H 0.75445 0.2452 0.91703 0.0
H1012 H 0.70473 0.21531 0.97624 0.0
C1013 C 0.62397 0.19119 0.89644 0.0
C1014 C 0.84266 0.67731 0.91344 0.0
C1015 C 0.85907 0.72354 0.89182 0.0
H1016 H 0.85296 0.62034 0.95756 0.0
C1017 C 0.90603 0.74654 0.9036 0.0
H1018 H 0.80777 0.65646 0.90651 0.0
C1019 C 0.93328 0.72494 0.93481 0.0
C1020 C 0.91624 0.678 0.95589 0.0
H1021 H 0.9224 0.78127 0.88824 0.0
H1022 H 0.96837 0.7451 0.9417 0.0
C1023 C 0.8696 0.65577 0.9436 0.0
C1024 C 0.16881 0.35222 0.18926 0.0
C1025 C 0.21334 0.37137 0.21229 0.0
H1026 H 0.10742 0.35894 0.14978 0.0
C1027 C 0.2204 0.42313 0.20662 0.0
H1028 H 0.15531 0.31385 0.19074 0.0
C1029 C 0.19081 0.45061 0.18228 0.0
C1030 C 0.14698 0.43236 0.15878 0.0
H1031 H 0.25103 0.44456 0.22216 0.0
H1032 H 0.20355 0.48895 0.18241 0.0
C1033 C 0.13875 0.38007 0.16452 0.0
C1034 C 0.17978 0.72067 0.89321 0.0
C1035 C 0.2283 0.73297 0.90231 0.0
H1036 H 0.1102 0.6896 0.91439 0.0
C1037 C 0.23916 0.71895 0.94478 0.0
H1038 H 0.16747 0.72879 0.86174 0.0
C1039 C 0.20598 0.69518 0.97508 0.0
C1040 C 0.15769 0.68314 0.9669 0.0
H1041 H 0.27475 0.7259 0.9552 0.0
H1042 H 0.21902 0.68606 1.00605 0.0
C1043 C 0.14596 0.69738 0.92432 0.0
C1044 C 0.36299 0.216 0.88763 0.0
C1045 C 0.32688 0.18331 0.86676 0.0
H1046 H 0.41983 0.2282 0.93285 0.0
C1047 C 0.32149 0.13434 0.87951 0.0
H1048 H 0.36963 0.25376 0.87896 0.0
C1049 C 0.3507 0.11908 0.91158 0.0
C1050 C 0.38762 0.15214 0.93161 0.0
H1051 H 0.29476 0.10753 0.86428 0.0
H1052 H 0.3454 0.0813 0.91942 0.0
C1053 C 0.39238 0.20092 0.91888 0.0
C1054 C 0.8995 0.35188 0.93887 0.0
C1055 C 0.87146 0.3661 0.90551 0.0
H1056 H 0.942 0.36819 0.99591 0.0
C1057 C 0.86624 0.41177 0.90787 0.0
H1058 H 0.90514 0.31747 0.93955 0.0
C1059 C 0.88698 0.44087 0.94106 0.0
C1060 C 0.91522 0.42706 0.97438 0.0
H1061 H 0.84537 0.42533 0.88391 0.0
H1062 H 0.88083 0.47509 0.94024 0.0
C1063 C 0.92101 0.3815 0.97191 0.0
C1064 C 0.65865 0.9925 0.92812 0.0
C1065 C 0.69267 0.98286 0.95701 0.0
H1066 H 0.59577 0.01155 0.91905 0.0
C1067 C 0.68778 0.98402 0.9995 0.0
H1068 H 0.66145 0.99221 0.8951 0.0
C1069 C 0.65076 0.99488 0.01287 0.0
C1070 C 0.61708 1.0052 0.98438 0.0
H1071 H 0.71249 0.97595 0.02282 0.0
H1072 H 0.64849 0.9951 0.04602 0.0
C1073 C 0.62138 1.00417 0.94169 0.0
C1074 C 0.91847 0.72461 0.20736 0.0
C1075 C 0.8698 0.72168 0.20617 0.0
H1076 H 0.97842 0.70967 0.18529 0.0
C1077 C 0.84874 0.68983 0.17361 0.0
H1078 H 0.94005 0.74448 0.2314 0.0
C1079 C 0.87193 0.66698 0.14639 0.0
C1080 C 0.92067 0.67095 0.14672 0.0
H1081 H 0.81203 0.68084 0.16909 0.0
H1082 H 0.84985 0.64471 0.12406 0.0
C1083 C 0.94193 0.70245 0.17956 0.0
C1084 C 0.33061 0.87644 0.15644 0.0
C1085 C 0.34182 0.87968 0.19965 0.0
H1086 H 0.34386 0.90686 0.09328 0.0
C1087 C 0.37678 0.9204 0.21083 0.0
H1088 H 0.30523 0.84503 0.14609 0.0
C1089 C 0.39917 0.95618 0.18005 0.0
C1090 C 0.38756 0.9531 0.13679 0.0
H1091 H 0.38813 0.92375 0.24325 0.0
H1092 H 0.42757 0.9854 0.1901 0.0
C1093 C 0.35237 0.91253 0.12581 0.0
C1094 C 0.65466 0.27196 0.16579 0.0
C1095 C 0.68312 0.24675 0.18839 0.0
H1096 H 0.60314 0.27348 0.11561 0.0
C1097 C 0.67838 0.20112 0.17617 0.0
H1098 H 0.65694 0.30724 0.17351 0.0
C1099 C 0.6467 0.18132 0.14377 0.0
C1100 C 0.6187 0.20638 0.1205 0.0
H1101 H 0.69899 0.17994 0.19222 0.0
H1102 H 0.6446 0.14594 0.13655 0.0
C1103 C 0.62366 0.25252 0.13214 0.0
C1104 C 0.64312 0.66981 0.84016 0.0
C1105 C 0.6625 0.71906 0.8429 0.0
H1106 H 0.59689 0.60498 0.86601 0.0
C1107 C 0.6412 0.74229 0.86651 0.0
H1108 H 0.65812 0.65082 0.82193 0.0
C1109 C 0.6058 0.71607 0.89143 0.0
C1110 C 0.59075 0.66616 0.89312 0.0
H1111 H 0.65428 0.78039 0.86855 0.0
H1112 H 0.59382 0.73438 0.91299 0.0
C1113 C 0.60732 0.64351 0.865 0.0
C1114 C 0.3656 0.63392 0.98231 0.0
C1115 C 0.32112 0.60234 0.97867 0.0
H1116 H 0.43685 0.64 0.98738 0.0
C1117 C 0.31327 0.55469 0.99422 0.0
H1118 H 0.37197 0.67134 0.97201 0.0
C1119 C 0.35013 0.53697 1.00434 0.0
C1120 C 0.39499 0.56673 0.99857 0.0
H1121 H 0.27926 0.52975 0.99273 0.0
H1122 H 0.34303 0.49902 0.01275 0.0
C1123 C 0.40267 0.61594 0.99042 0.0
C1124 C 0.40824 0.39217 0.85732 0.0
C1125 C 0.36813 0.35722 0.87017 0.0
H1126 H 0.46843 0.44752 0.87569 0.0
C1127 C 0.35956 0.35038 0.91266 0.0
H1128 H 0.41589 0.39849 0.82482 0.0
C1129 C 0.38988 0.37703 0.94152 0.0
C1130 C 0.42948 0.41262 0.92897 0.0
H1131 H 0.32908 0.32448 0.92408 0.0
H1132 H 0.38119 0.37062 0.97377 0.0
C1133 C 0.43836 0.42013 0.88642 0.0
C1134 C 0.61168 0.46977 0.86519 0.0
C1135 C 0.65688 0.4875 0.85372 0.0
H1136 H 0.56305 0.47135 0.90744 0.0
C1137 C 0.68858 0.52161 0.87671 0.0
H1138 H 0.58689 0.44311 0.84801 0.0
C1139 C 0.67504 0.53819 0.9106 0.0
C1140 C 0.62984 0.51996 0.92257 0.0
H1141 H 0.72371 0.53555 0.86825 0.0
H1142 H 0.69989 0.56509 0.92747 0.0
C1143 C 0.59835 0.48552 0.89952 0.0
C1144 C 0.69323 0.49384 0.17548 0.0
C1145 C 0.74017 0.51813 0.17462 0.0
H1146 H 0.62748 0.48107 0.14393 0.0
C1147 C 0.75696 0.54559 0.13786 0.0
H1148 H 0.6787 0.47301 0.20334 0.0
C1149 C 0.72713 0.55102 0.10381 0.0
C1150 C 0.68002 0.52837 0.10555 0.0
H1151 H 0.793 0.56376 0.13568 0.0
H1152 H 0.74074 0.5743 0.07668 0.0
C1153 C 0.66364 0.49845 0.14123 0.0
C1154 C 0.65779 0.74125 0.17195 0.0
C1155 C 0.69616 0.72953 0.19132 0.0
H1156 H 0.60118 0.72272 0.12627 0.0
C1157 C 0.70728 0.69071 0.1785 0.0
H1158 H 0.6486 0.77111 0.18089 0.0
C1159 C 0.67992 0.66272 0.14911 0.0
C1160 C 0.64132 0.67349 0.13036 0.0
H1161 H 0.73742 0.68145 0.19134 0.0
H1162 H 0.68947 0.63286 0.14047 0.0
C1163 C 0.63062 0.71347 0.14116 0.0
C1164 C 0.41717 0.60708 0.17243 0.0
C1165 C 0.42691 0.65443 0.1539 0.0
H1166 H 0.41863 0.53587 0.16692 0.0
C1167 C 0.43953 0.66393 0.11252 0.0
H1168 H 0.40721 0.59824 0.20424 0.0
C1169 C 0.44734 0.62869 0.09197 0.0
C1170 C 0.44112 0.58241 0.11145 0.0
H1171 H 0.44567 0.69932 0.09651 0.0
H1172 H 0.46122 0.63858 0.0616 0.0
C1173 C 0.42373 0.57116 0.15111 0.0
C1174 C 0.42087 0.4152 0.20819 0.0
C1175 C 0.41432 0.36595 0.21628 0.0
H1176 H 0.45933 0.48108 0.17755 0.0
C1177 C 0.44564 0.3464 0.20171 0.0
H1178 H 0.39711 0.43161 0.21806 0.0
C1179 C 0.47967 0.37461 0.17588 0.0
C1180 C 0.48453 0.42338 0.1664 0.0
H1181 H 0.4425 0.30897 0.20847 0.0
H1182 H 0.50017 0.35782 0.16119 0.0
C1183 C 0.45673 0.44382 0.18499 0.0
C1184 C 0.91244 0.56985 0.64695 0.0
C1185 C 0.91935 0.61693 0.65683 0.0
H1186 H 0.94144 0.51944 0.6259 0.0
C1187 C 0.96383 0.64849 0.65498 0.0
H1188 H 0.8789 0.54424 0.64843 0.0
C1189 C 0.99959 0.63398 0.6421 0.0
C1190 C 0.99221 0.58729 0.63093 0.0
H1191 H 0.97073 0.68503 0.66191 0.0
H1192 H 0.03306 0.65982 0.6403 0.0
C1193 C 0.94824 0.55535 0.63423 0.0
C1194 C 0.38566 0.86316 0.65808 0.0
C1195 C 0.39623 0.85003 0.70105 0.0
H1196 H 0.40679 0.89185 0.59556 0.0
C1197 C 0.44432 0.85799 0.70945 0.0
H1198 H 0.35034 0.85937 0.64817 0.0
C1199 C 0.47788 0.87599 0.6775 0.0
C1200 C 0.46671 0.88899 0.63449 0.0
H1201 H 0.45658 0.85081 0.74111 0.0
H1202 H 0.51344 0.88104 0.68715 0.0
C1203 C 0.41898 0.88218 0.62671 0.0
C1204 C 0.2118 0.38595 0.72155 0.0
C1205 C 0.21483 0.34151 0.71158 0.0
H1206 H 0.18357 0.4451 0.70571 0.0
C1207 C 0.1919 0.32592 0.6737 0.0
H1208 H 0.22653 0.39862 0.75123 0.0
C1209 C 0.1661 0.35197 0.64804 0.0
C1210 C 0.16137 0.39535 0.65864 0.0
H1211 H 0.19135 0.29147 0.66506 0.0
H1212 H 0.14791 0.33667 0.62035 0.0
C1213 C 0.18631 0.4126 0.69543 0.0
C1214 C 0.71597 0.14413 0.69628 0.0
C1215 C 0.72143 0.19364 0.69763 0.0
H1216 H 0.68815 0.07976 0.66401 0.0
C1217 C 0.70109 0.21425 0.66218 0.0
H1218 H 0.73051 0.12551 0.72193 0.0
C1219 C 0.67629 0.18767 0.62868 0.0
C1220 C 0.67045 0.13825 0.62716 0.0
H1221 H 0.70411 0.25173 0.6601 0.0
H1222 H 0.66121 0.20647 0.60356 0.0
C1223 C 0.69148 0.11742 0.66222 0.0
C1224 C 0.90426 0.40442 0.3918 0.0
C1225 C 0.89289 0.35586 0.38414 0.0
H1226 H 0.94685 0.46196 0.42639 0.0
C1227 C 0.9183 0.32852 0.40793 0.0
H1228 H 0.88589 0.42706 0.37442 0.0
C1229 C 0.95254 0.34835 0.43865 0.0
C1230 C 0.96432 0.39695 0.44606 0.0
H1231 H 0.91079 0.29112 0.40373 0.0
H1232 H 0.97005 0.32535 0.45678 0.0
C1233 C 0.93971 0.42472 0.42159 0.0
C1234 C 0.67793 0.89798 0.33615 0.0
C1235 C 0.70823 0.86842 0.35055 0.0
H1236 H 0.63069 0.9393 0.3449 0.0
C1237 C 0.70925 0.86617 0.39602 0.0
H1238 H 0.67405 0.90567 0.30278 0.0
C1239 C 0.68266 0.88686 0.42179 0.0
C1240 C 0.65165 0.91555 0.40733 0.0
H1241 H 0.73225 0.84862 0.41319 0.0
H1242 H 0.68771 0.88041 0.45517 0.0
C1243 C 0.6517 0.9192 0.3619 0.0
C1244 C 0.22975 0.71368 0.42364 0.0
C1245 C 0.21372 0.71589 0.38168 0.0
H1246 H 0.22326 0.67717 0.48458 0.0
C1247 C 0.17432 0.67873 0.37043 0.0
H1248 H 0.25912 0.74165 0.43413 0.0
C1249 C 0.15239 0.64083 0.40031 0.0
C1250 C 0.16892 0.63891 0.44258 0.0
H1251 H 0.15972 0.67962 0.33879 0.0
H1252 H 0.12168 0.61405 0.39055 0.0
C1253 C 0.20863 0.67608 0.45292 0.0
C1254 C 0.3813 0.14174 0.38017 0.0
C1255 C 0.39419 0.18815 0.35534 0.0
H1256 H 0.3956 0.08207 0.42121 0.0
C1257 C 0.4442 0.20098 0.3554 0.0
H1258 H 0.34508 0.12492 0.38271 0.0
C1259 C 0.47524 0.17345 0.37766 0.0
C1260 C 0.46207 0.12685 0.40248 0.0
H1261 H 0.4607 0.23375 0.33714 0.0
H1262 H 0.51148 0.1901 0.37509 0.0
C1263 C 0.41225 0.11468 0.40281 0.0
C1264 C 0.67892 0.83929 0.69475 0.0
C1265 C 0.71823 0.86731 0.71671 0.0
H1266 H 0.6228 0.83593 0.64787 0.0
C1267 C 0.72544 0.91756 0.70662 0.0
H1268 H 0.66851 0.80106 0.70197 0.0
C1269 C 0.69699 0.93822 0.67724 0.0
C1270 C 0.65855 0.91046 0.65451 0.0
H1271 H 0.75364 0.9421 0.7226 0.0
H1272 H 0.70592 0.97666 0.67187 0.0
C1273 C 0.65124 0.86004 0.66392 0.0
C1274 C 0.68287 0.20159 0.3673 0.0
C1275 C 0.72965 0.21228 0.37906 0.0
H1276 H 0.61433 0.16457 0.38422 0.0
C1277 C 0.74291 0.19007 0.4169 0.0
H1278 H 0.67153 0.21644 0.33766 0.0
C1279 C 0.71028 0.1588 0.44269 0.0
C1280 C 0.66359 0.14957 0.43153 0.0
H1281 H 0.77872 0.19669 0.42646 0.0
H1282 H 0.72151 0.14227 0.47158 0.0
C1283 C 0.65018 0.17144 0.3937 0.0
C1284 C 0.95113 0.63034 0.43251 0.0
C1285 C 0.90865 0.59523 0.43621 0.0
H1286 H 1.0218 0.65221 0.45347 0.0
C1287 C 0.9042 0.55676 0.4668 0.0
H1288 H 0.95542 0.66041 0.40913 0.0
C1289 C 0.94184 0.55218 0.49192 0.0
C1290 C 0.98472 0.58606 0.4871 0.0
H1291 H 0.87163 0.52993 0.47118 0.0
H1292 H 0.93756 0.52141 0.51458 0.0
C1293 C 0.98898 0.62585 0.45794 0.0
C1294 C 0.37916 0.88196 0.41338 0.0
C1295 C 0.38542 0.85464 0.38287 0.0
H1296 H 0.40928 0.92447 0.46376 0.0
C1297 C 0.42769 0.84547 0.38337 0.0
H1298 H 0.34671 0.88794 0.41561 0.0
C1299 C 0.46303 0.86451 0.41271 0.0
C1300 C 0.45716 0.89395 0.4415 0.0
H1301 H 0.4338 0.82426 0.36071 0.0
H1302 H 0.4956 0.85793 0.41169 0.0
C1303 C 0.41481 0.90223 0.44168 0.0
C1304 C 0.21058 0.3681 0.50174 0.0
C1305 C 0.25075 0.4062 0.49713 0.0
H1306 H 0.13948 0.34652 0.51257 0.0
C1307 C 0.25094 0.45211 0.50384 0.0
H1308 H 0.2099 0.33241 0.49638 0.0
C1309 C 0.21062 0.46047 0.51211 0.0
C1310 C 0.16954 0.42291 0.51405 0.0
H1311 H 0.28148 0.482 0.49985 0.0
H1312 H 0.21146 0.49666 0.51574 0.0
C1313 C 0.17029 0.37633 0.51042 0.0
C1314 C 0.44751 0.1349 0.65678 0.0
C1315 C 0.47987 0.16692 0.68117 0.0
H1316 H 0.4354 0.07999 0.61546 0.0
C1317 C 0.52366 0.16077 0.68884 0.0
H1318 H 0.41382 0.13901 0.64966 0.0
C1319 C 0.53589 0.12626 0.66983 0.0
C1320 C 0.50485 0.09744 0.64209 0.0
H1321 H 0.54964 0.18523 0.70705 0.0
H1322 H 0.57101 0.1257 0.67341 0.0
C1323 C 0.45994 0.1009 0.63726 0.0
C1324 C 0.89177 0.33349 0.702 0.0
C1325 C 0.90288 0.34148 0.74411 0.0
H1326 H 0.91396 0.34749 0.6396 0.0
C1327 C 0.94659 0.37158 0.7549 0.0
H1328 H 0.85874 0.31004 0.69266 0.0
C1329 C 0.9782 0.39356 0.72451 0.0
C1330 C 0.9676 0.38507 0.6824 0.0
H1331 H 0.95644 0.37799 0.78714 0.0
H1332 H 1.01145 0.41624 0.73427 0.0
C1333 C 0.92372 0.35483 0.67164 0.0
C1334 C 0.18123 0.6914 0.71684 0.0
C1335 C 0.22866 0.69956 0.72272 0.0
H1336 H 0.11789 0.64806 0.69027 0.0
C1337 C 0.24751 0.66594 0.70994 0.0
H1338 H 0.16545 0.71611 0.72671 0.0
C1339 C 0.22022 0.62674 0.68993 0.0
C1340 C 0.17322 0.61947 0.6828 0.0
H1341 H 0.28374 0.67043 0.71437 0.0
H1342 H 0.2363 0.60353 0.67788 0.0
C1343 C 0.15382 0.65176 0.69699 0.0
loop_
_geom_bond_atom_site_label_1
_geom_bond_atom_site_label_2
_geom_bond_distance
_geom_bond_site_symmetry_2
_ccdc_geom_bond_type
Gd0 N31 2.661 . S
Gd0 N37 2.601 . S
Gd0 O44 2.545 . S
Gd0 O45 2.606 . S
Gd0 O47 2.429 . S
Gd0 O48 2.545 . S
Gd0 O49 2.412 . S
Gd0 O51 2.362 . S
Gd0 O52 2.324 . S
Gd0 C59 2.828 . S
Gd1 N10 2.661 . S
Gd1 N14 2.601 . S
Gd1 O45 2.362 . S
Gd1 O46 2.324 . S
Gd1 O50 2.545 . S
Gd1 O51 2.606 . S
Gd1 O53 2.429 . S
Gd1 O54 2.545 . S
Gd1 O55 2.412 . S
Gd1 C68 2.828 . S
C2 C5 1.417 . S
C2 C7 1.431 . S
C2 C8 1.412 . S
C3 C6 1.437 . S
C3 C7 1.317 . S
C3 H22 0.929 . S
C4 C5 1.426 . S
C4 C6 1.413 . S
C4 N14 1.359 . S
C5 C2 1.417 . S
C5 C4 1.426 . S
C5 N10 1.350 . S
C6 C3 1.437 . S
C6 C4 1.413 . S
C6 C16 1.391 . S
C7 C2 1.431 . S
C7 C3 1.317 . S
C7 H18 0.930 . S
C8 C2 1.412 . S
C8 C9 1.355 . S
C8 H20 0.930 . S
C9 C8 1.355 . S
C9 C11 1.402 . S
C9 H21 0.930 . S
N10 Gd1 2.661 . S
N10 C5 1.350 . S
N10 C11 1.307 . S
C11 C9 1.402 . S
C11 N10 1.307 . S
C11 H12 0.930 . S
H12 C11 0.930 . S
C13 N14 1.334 . S
C13 C15 1.394 . S
C13 H17 0.930 . S
N14 Gd1 2.601 . S
N14 C4 1.359 . S
N14 C13 1.334 . S
C15 C13 1.394 . S
C15 C16 1.359 . S
C15 H27 0.930 . S
C16 C6 1.391 . S
C16 C15 1.359 . S
C16 H28 0.929 . S
H17 C13 0.930 . S
H18 C7 0.930 . S
H19 C36 0.930 . S
H20 C8 0.930 . S
H21 C9 0.930 . S
H22 C3 0.929 . S
H23 C41 0.930 . S
H24 C32 0.930 . S
H25 C33 0.930 . S
H26 C57 0.929 . S
H27 C15 0.930 . S
H28 C16 0.929 . S
H29 C58 0.930 . S
H30 C39 0.930 . S
N31 Gd0 2.661 . S
N31 C35 1.350 . S
N31 C36 1.307 . S
C32 H24 0.930 . S
C32 C33 1.355 . S
C32 C34 1.412 . S
C33 H25 0.930 . S
C33 C32 1.355 . S
C33 C36 1.402 . S
C34 C32 1.412 . S
C34 C35 1.417 . S
C34 C58 1.431 . S
C35 N31 1.350 . S
C35 C34 1.417 . S
C35 C38 1.426 . S
C36 H19 0.930 . S
C36 N31 1.307 . S
C36 C33 1.402 . S
N37 Gd0 2.601 . S
N37 C38 1.359 . S
N37 C41 1.334 . S
C38 C35 1.426 . S
C38 N37 1.359 . S
C38 C42 1.413 . S
C39 H30 0.930 . S
C39 C40 1.359 . S
C39 C41 1.394 . S
C40 C39 1.359 . S
C40 C42 1.391 . S
C40 H43 0.929 . S
C41 H23 0.930 . S
C41 N37 1.334 . S
C41 C39 1.394 . S
C42 C38 1.413 . S
C42 C40 1.391 . S
C42 C57 1.437 . S
H43 C40 0.929 . S
O44 Gd0 2.545 . S
O44 C59 1.258 . S
O45 Gd0 2.606 . S
O45 Gd1 2.362 . S
O45 C56 1.284 . S
O46 Gd1 2.324 . S
O46 C66 1.254 . S
O47 Gd0 2.429 . S
O47 C66 1.268 . S
O48 Gd0 2.545 . S
O48 C56 1.250 . S
O49 Gd0 2.412 . S
O49 C59 1.252 . S
O50 Gd1 2.545 . S
O50 C68 1.258 . S
O51 Gd0 2.362 . S
O51 Gd1 2.606 . S
O51 C67 1.284 . S
O52 Gd0 2.324 . S
O52 C75 1.254 . S
O53 Gd1 2.429 . S
O53 C75 1.268 . S
O54 Gd1 2.545 . S
O54 C67 1.250 . S
O55 Gd1 2.412 . S
O55 C68 1.252 . S
C56 O45 1.284 . S
C56 O48 1.250 . S
C57 H26 0.929 . S
C57 C42 1.437 . S
C57 C58 1.317 . S
C58 H29 0.930 . S
C58 C34 1.431 . S
C58 C57 1.317 . S
C59 Gd0 2.828 . S
C59 O44 1.258 . S
C59 O49 1.252 . S
C59 C60 1.497 . S
C60 C59 1.497 . S
C60 C61 1.395 . S
C60 C62 1.380 . S
C61 C60 1.395 . S
C61 C64 1.398 . S
C61 H76 0.930 . S
C62 C60 1.380 . S
C62 C63 1.391 . S
C62 H77 0.930 . S
C63 C62 1.391 . S
C63 C65 1.387 . S
C64 C61 1.398 . S
C64 C65 1.380 . S
C64 H78 0.930 . S
C65 C63 1.387 . S
C65 C64 1.380 . S
C65 H79 0.930 . S
C66 O46 1.254 . S
C66 O47 1.268 . S
C67 O51 1.284 . S
C67 O54 1.250 . S
C68 Gd1 2.828 . S
C68 O50 1.258 . S
C68 O55 1.252 . S
C68 C69 1.497 . S
C69 C68 1.497 . S
C69 C70 1.395 . S
C69 C71 1.380 . S
C70 C69 1.395 . S
C70 C73 1.398 . S
C70 H80 0.930 . S
C71 C69 1.380 . S
C71 C72 1.391 . S
C71 H81 0.930 . S
C72 C71 1.391 . S
C72 C74 1.387 . S
C73 C70 1.398 . S
C73 C74 1.380 . S
C73 H82 0.930 . S
C74 C72 1.387 . S
C74 C73 1.380 . S
C74 H83 0.930 . S
C75 O52 1.254 . S
C75 O53 1.268 . S
H76 C61 0.930 . S
H77 C62 0.930 . S
H78 C64 0.930 . S
H79 C65 0.930 . S
H80 C70 0.930 . S
H81 C71 0.930 . S
H82 C73 0.930 . S
H83 C74 0.930 . S
Gd84 N115 2.661 . S
Gd84 N121 2.601 . S
Gd84 O128 2.545 . S
Gd84 O129 2.606 . S
Gd84 O131 2.429 . S
Gd84 O132 2.545 . S
Gd84 O133 2.412 . S
Gd84 O135 2.362 . S
Gd84 O136 2.324 . S
Gd84 C143 2.828 . S
Gd85 N94 2.661 . S
Gd85 N98 2.601 . S
Gd85 O129 2.362 . S
Gd85 O130 2.324 . S
Gd85 O134 2.545 . S
Gd85 O135 2.606 . S
Gd85 O137 2.429 . S
Gd85 O138 2.545 . S
Gd85 O139 2.412 . S
Gd85 C152 2.828 . S
C86 C89 1.417 . S
C86 C91 1.431 . S
C86 C92 1.412 . S
C87 C90 1.437 . S
C87 C91 1.317 . S
C87 H106 0.929 . S
C88 C89 1.426 . S
C88 C90 1.413 . S
C88 N98 1.359 . S
C89 C86 1.417 . S
C89 C88 1.426 . S
C89 N94 1.350 . S
C90 C87 1.437 . S
C90 C88 1.413 . S
C90 C100 1.391 . S
C91 C86 1.431 . S
C91 C87 1.317 . S
C91 H102 0.930 . S
C92 C86 1.412 . S
C92 C93 1.355 . S
C92 H104 0.930 . S
C93 C92 1.355 . S
C93 C95 1.402 . S
C93 H105 0.930 . S
N94 Gd85 2.661 . S
N94 C89 1.350 . S
N94 C95 1.307 . S
C95 C93 1.402 . S
C95 N94 1.307 . S
C95 H96 0.930 . S
H96 C95 0.930 . S
C97 N98 1.334 . S
C97 C99 1.394 . S
C97 H101 0.930 . S
N98 Gd85 2.601 . S
N98 C88 1.359 . S
N98 C97 1.334 . S
C99 C97 1.394 . S
C99 C100 1.359 . S
C99 H111 0.930 . S
C100 C90 1.391 . S
C100 C99 1.359 . S
C100 H112 0.929 . S
H101 C97 0.930 . S
H102 C91 0.930 . S
H103 C120 0.930 . S
H104 C92 0.930 . S
H105 C93 0.930 . S
H106 C87 0.929 . S
H107 C125 0.930 . S
H108 C116 0.930 . S
H109 C117 0.930 . S
H110 C141 0.929 . S
H111 C99 0.930 . S
H112 C100 0.929 . S
H113 C142 0.930 . S
H114 C123 0.930 . S
N115 Gd84 2.661 . S
N115 C119 1.350 . S
N115 C120 1.307 . S
C116 H108 0.930 . S
C116 C117 1.355 . S
C116 C118 1.412 . S
C117 H109 0.930 . S
C117 C116 1.355 . S
C117 C120 1.402 . S
C118 C116 1.412 . S
C118 C119 1.417 . S
C118 C142 1.431 . S
C119 N115 1.350 . S
C119 C118 1.417 . S
C119 C122 1.426 . S
C120 H103 0.930 . S
C120 N115 1.307 . S
C120 C117 1.402 . S
N121 Gd84 2.601 . S
N121 C122 1.359 . S
N121 C125 1.334 . S
C122 C119 1.426 . S
C122 N121 1.359 . S
C122 C126 1.413 . S
C123 H114 0.930 . S
C123 C124 1.359 . S
C123 C125 1.394 . S
C124 C123 1.359 . S
C124 C126 1.391 . S
C124 H127 0.929 . S
C125 H107 0.930 . S
C125 N121 1.334 . S
C125 C123 1.394 . S
C126 C122 1.413 . S
C126 C124 1.391 . S
C126 C141 1.437 . S
H127 C124 0.929 . S
O128 Gd84 2.545 . S
O128 C143 1.258 . S
O129 Gd84 2.606 . S
O129 Gd85 2.362 . S
O129 C140 1.284 . S
O130 Gd85 2.324 . S
O130 C150 1.254 . S
O131 Gd84 2.429 . S
O131 C150 1.268 . S
O132 Gd84 2.545 . S
O132 C140 1.250 . S
O133 Gd84 2.412 . S
O133 C143 1.252 . S
O134 Gd85 2.545 . S
O134 C152 1.258 . S
O135 Gd84 2.362 . S
O135 Gd85 2.606 . S
O135 C151 1.284 . S
O136 Gd84 2.324 . S
O136 C159 1.254 . S
O137 Gd85 2.429 . S
O137 C159 1.268 . S
O138 Gd85 2.545 . S
O138 C151 1.250 . S
O139 Gd85 2.412 . S
O139 C152 1.252 . S
C140 O129 1.284 . S
C140 O132 1.250 . S
C141 H110 0.929 . S
C141 C126 1.437 . S
C141 C142 1.317 . S
C142 H113 0.930 . S
C142 C118 1.431 . S
C142 C141 1.317 . S
C143 Gd84 2.828 . S
C143 O128 1.258 . S
C143 O133 1.252 . S
C143 C144 1.497 . S
C144 C143 1.497 . S
C144 C145 1.395 . S
C144 C146 1.380 . S
C145 C144 1.395 . S
C145 C148 1.398 . S
C145 H160 0.930 . S
C146 C144 1.380 . S
C146 C147 1.391 . S
C146 H161 0.930 . S
C147 C146 1.391 . S
C147 C149 1.387 . S
C148 C145 1.398 . S
C148 C149 1.380 . S
C148 H162 0.930 . S
C149 C147 1.387 . S
C149 C148 1.380 . S
C149 H163 0.930 . S
C150 O130 1.254 . S
C150 O131 1.268 . S
C151 O135 1.284 . S
C151 O138 1.250 . S
C152 Gd85 2.828 . S
C152 O134 1.258 . S
C152 O139 1.252 . S
C152 C153 1.497 . S
C153 C152 1.497 . S
C153 C154 1.395 . S
C153 C155 1.380 . S
C154 C153 1.395 . S
C154 C157 1.398 . S
C154 H164 0.930 . S
C155 C153 1.380 . S
C155 C156 1.391 . S
C155 H165 0.930 . S
C156 C155 1.391 . S
C156 C158 1.387 . S
C157 C154 1.398 . S
C157 C158 1.380 . S
C157 H166 0.930 . S
C158 C156 1.387 . S
C158 C157 1.380 . S
C158 H167 0.930 . S
C159 O136 1.254 . S
C159 O137 1.268 . S
H160 C145 0.930 . S
H161 C146 0.930 . S
H162 C148 0.930 . S
H163 C149 0.930 . S
H164 C154 0.930 . S
H165 C155 0.930 . S
H166 C157 0.930 . S
H167 C158 0.930 . S
Gd168 N199 2.661 . S
Gd168 N205 2.601 . S
Gd168 O212 2.545 . S
Gd168 O213 2.606 . S
Gd168 O215 2.429 . S
Gd168 O216 2.545 . S
Gd168 O217 2.412 . S
Gd168 O219 2.362 . S
Gd168 O220 2.324 . S
Gd168 C227 2.828 . S
Gd169 N178 2.661 . S
Gd169 N182 2.601 . S
Gd169 O213 2.362 . S
Gd169 O214 2.324 . S
Gd169 O218 2.545 . S
Gd169 O219 2.606 . S
Gd169 O221 2.429 . S
Gd169 O222 2.545 . S
Gd169 O223 2.412 . S
Gd169 C236 2.828 . S
C170 C173 1.417 . S
C170 C175 1.431 . S
C170 C176 1.412 . S
C171 C174 1.437 . S
C171 C175 1.317 . S
C171 H190 0.929 . S
C172 C173 1.426 . S
C172 C174 1.413 . S
C172 N182 1.359 . S
C173 C170 1.417 . S
C173 C172 1.426 . S
C173 N178 1.350 . S
C174 C171 1.437 . S
C174 C172 1.413 . S
C174 C184 1.391 . S
C175 C170 1.431 . S
C175 C171 1.317 . S
C175 H186 0.930 . S
C176 C170 1.412 . S
C176 C177 1.355 . S
C176 H188 0.930 . S
C177 C176 1.355 . S
C177 C179 1.402 . S
C177 H189 0.930 . S
N178 Gd169 2.661 . S
N178 C173 1.350 . S
N178 C179 1.307 . S
C179 C177 1.402 . S
C179 N178 1.307 . S
C179 H180 0.930 . S
H180 C179 0.930 . S
C181 N182 1.334 . S
C181 C183 1.394 . S
C181 H185 0.930 . S
N182 Gd169 2.601 . S
N182 C172 1.359 . S
N182 C181 1.334 . S
C183 C181 1.394 . S
C183 C184 1.359 . S
C183 H195 0.930 . S
C184 C174 1.391 . S
C184 C183 1.359 . S
C184 H196 0.929 . S
H185 C181 0.930 . S
H186 C175 0.930 . S
H187 C204 0.930 . S
H188 C176 0.930 . S
H189 C177 0.930 . S
H190 C171 0.929 . S
H191 C209 0.930 . S
H192 C200 0.930 . S
H193 C201 0.930 . S
H194 C225 0.929 . S
H195 C183 0.930 . S
H196 C184 0.929 . S
H197 C226 0.930 . S
H198 C207 0.930 . S
N199 Gd168 2.661 . S
N199 C203 1.350 . S
N199 C204 1.307 . S
C200 H192 0.930 . S
C200 C201 1.355 . S
C200 C202 1.412 . S
C201 H193 0.930 . S
C201 C200 1.355 . S
C201 C204 1.402 . S
C202 C200 1.412 . S
C202 C203 1.417 . S
C202 C226 1.431 . S
C203 N199 1.350 . S
C203 C202 1.417 . S
C203 C206 1.426 . S
C204 H187 0.930 . S
C204 N199 1.307 . S
C204 C201 1.402 . S
N205 Gd168 2.601 . S
N205 C206 1.359 . S
N205 C209 1.334 . S
C206 C203 1.426 . S
C206 N205 1.359 . S
C206 C210 1.413 . S
C207 H198 0.930 . S
C207 C208 1.359 . S
C207 C209 1.394 . S
C208 C207 1.359 . S
C208 C210 1.391 . S
C208 H211 0.929 . S
C209 H191 0.930 . S
C209 N205 1.334 . S
C209 C207 1.394 . S
C210 C206 1.413 . S
C210 C208 1.391 . S
C210 C225 1.437 . S
H211 C208 0.929 . S
O212 Gd168 2.545 . S
O212 C227 1.258 . S
O213 Gd168 2.606 . S
O213 Gd169 2.362 . S
O213 C224 1.284 . S
O214 Gd169 2.324 . S
O214 C234 1.254 . S
O215 Gd168 2.429 . S
O215 C234 1.268 . S
O216 Gd168 2.545 . S
O216 C224 1.250 . S
O217 Gd168 2.412 . S
O217 C227 1.252 . S
O218 Gd169 2.545 . S
O218 C236 1.258 . S
O219 Gd168 2.362 . S
O219 Gd169 2.606 . S
O219 C235 1.284 . S
O220 Gd168 2.324 . S
O220 C243 1.254 . S
O221 Gd169 2.429 . S
O221 C243 1.268 . S
O222 Gd169 2.545 . S
O222 C235 1.250 . S
O223 Gd169 2.412 . S
O223 C236 1.252 . S
C224 O213 1.284 . S
C224 O216 1.250 . S
C225 H194 0.929 . S
C225 C210 1.437 . S
C225 C226 1.317 . S
C226 H197 0.930 . S
C226 C202 1.431 . S
C226 C225 1.317 . S
C227 Gd168 2.828 . S
C227 O212 1.258 . S
C227 O217 1.252 . S
C227 C228 1.497 . S
C228 C227 1.497 . S
C228 C229 1.395 . S
C228 C230 1.380 . S
C229 C228 1.395 . S
C229 C232 1.398 . S
C229 H244 0.930 . S
C230 C228 1.380 . S
C230 C231 1.391 . S
C230 H245 0.930 . S
C231 C230 1.391 . S
C231 C233 1.387 . S
C232 C229 1.398 . S
C232 C233 1.380 . S
C232 H246 0.930 . S
C233 C231 1.387 . S
C233 C232 1.380 . S
C233 H247 0.930 . S
C234 O214 1.254 . S
C234 O215 1.268 . S
C235 O219 1.284 . S
C235 O222 1.250 . S
C236 Gd169 2.828 . S
C236 O218 1.258 . S
C236 O223 1.252 . S
C236 C237 1.497 . S
C237 C236 1.497 . S
C237 C238 1.395 . S
C237 C239 1.380 . S
C238 C237 1.395 . S
C238 C241 1.398 1_565 S
C238 H248 0.930 . S
C239 C237 1.380 . S
C239 C240 1.391 . S
C239 H249 0.930 . S
C240 C239 1.391 . S
C240 C242 1.387 . S
C241 C238 1.398 1_545 S
C241 C242 1.380 1_545 S
C241 H250 0.930 . S
C242 C240 1.387 . S
C242 C241 1.380 1_565 S
C242 H251 0.930 1_565 S
C243 O220 1.254 . S
C243 O221 1.268 . S
H244 C229 0.930 . S
H245 C230 0.930 . S
H246 C232 0.930 . S
H247 C233 0.930 . S
H248 C238 0.930 . S
H249 C239 0.930 . S
H250 C241 0.930 . S
H251 C242 0.930 1_545 S
Gd252 N283 2.661 . S
Gd252 N289 2.601 . S
Gd252 O296 2.545 . S
Gd252 O297 2.606 . S
Gd252 O299 2.429 . S
Gd252 O300 2.545 . S
Gd252 O301 2.412 . S
Gd252 O303 2.362 . S
Gd252 O304 2.324 . S
Gd252 C311 2.828 . S
Gd253 N262 2.661 . S
Gd253 N266 2.601 . S
Gd253 O297 2.362 . S
Gd253 O298 2.324 . S
Gd253 O302 2.545 . S
Gd253 O303 2.606 . S
Gd253 O305 2.429 . S
Gd253 O306 2.545 . S
Gd253 O307 2.412 . S
Gd253 C320 2.828 . S
C254 C257 1.417 . S
C254 C259 1.431 . S
C254 C260 1.412 . S
C255 C258 1.437 . S
C255 C259 1.317 . S
C255 H274 0.929 . S
C256 C257 1.426 . S
C256 C258 1.413 . S
C256 N266 1.359 . S
C257 C254 1.417 . S
C257 C256 1.426 . S
C257 N262 1.350 . S
C258 C255 1.437 . S
C258 C256 1.413 . S
C258 C268 1.391 . S
C259 C254 1.431 . S
C259 C255 1.317 . S
C259 H270 0.930 . S
C260 C254 1.412 . S
C260 C261 1.355 . S
C260 H272 0.930 . S
C261 C260 1.355 . S
C261 C263 1.402 . S
C261 H273 0.930 . S
N262 Gd253 2.661 . S
N262 C257 1.350 . S
N262 C263 1.307 . S
C263 C261 1.402 . S
C263 N262 1.307 . S
C263 H264 0.930 . S
H264 C263 0.930 . S
C265 N266 1.334 . S
C265 C267 1.394 . S
C265 H269 0.930 . S
N266 Gd253 2.601 . S
N266 C256 1.359 . S
N266 C265 1.334 . S
C267 C265 1.394 . S
C267 C268 1.359 . S
C267 H279 0.930 . S
C268 C258 1.391 . S
C268 C267 1.359 . S
C268 H280 0.929 . S
H269 C265 0.930 . S
H270 C259 0.930 . S
H271 C288 0.930 . S
H272 C260 0.930 . S
H273 C261 0.930 . S
H274 C255 0.929 . S
H275 C293 0.930 . S
H276 C284 0.930 1_545 S
H277 C285 0.930 . S
H278 C309 0.929 . S
H279 C267 0.930 . S
H280 C268 0.929 . S
H281 C310 0.930 1_545 S
H282 C291 0.930 . S
N283 Gd252 2.661 . S
N283 C287 1.350 . S
N283 C288 1.307 . S
C284 H276 0.930 1_565 S
C284 C285 1.355 . S
C284 C286 1.412 . S
C285 H277 0.930 . S
C285 C284 1.355 . S
C285 C288 1.402 . S
C286 C284 1.412 . S
C286 C287 1.417 . S
C286 C310 1.431 . S
C287 N283 1.350 . S
C287 C286 1.417 . S
C287 C290 1.426 . S
C288 H271 0.930 . S
C288 N283 1.307 . S
C288 C285 1.402 . S
N289 Gd252 2.601 . S
N289 C290 1.359 . S
N289 C293 1.334 . S
C290 C287 1.426 . S
C290 N289 1.359 . S
C290 C294 1.413 . S
C291 H282 0.930 . S
C291 C292 1.359 . S
C291 C293 1.394 . S
C292 C291 1.359 . S
C292 C294 1.391 . S
C292 H295 0.929 . S
C293 H275 0.930 . S
C293 N289 1.334 . S
C293 C291 1.394 . S
C294 C290 1.413 . S
C294 C292 1.391 . S
C294 C309 1.437 . S
H295 C292 0.929 . S
O296 Gd252 2.545 . S
O296 C311 1.258 . S
O297 Gd252 2.606 . S
O297 Gd253 2.362 . S
O297 C308 1.284 . S
O298 Gd253 2.324 . S
O298 C318 1.254 . S
O299 Gd252 2.429 . S
O299 C318 1.268 . S
O300 Gd252 2.545 . S
O300 C308 1.250 . S
O301 Gd252 2.412 . S
O301 C311 1.252 . S
O302 Gd253 2.545 . S
O302 C320 1.258 . S
O303 Gd252 2.362 . S
O303 Gd253 2.606 . S
O303 C319 1.284 . S
O304 Gd252 2.324 . S
O304 C327 1.254 . S
O305 Gd253 2.429 . S
O305 C327 1.268 . S
O306 Gd253 2.545 . S
O306 C319 1.250 . S
O307 Gd253 2.412 . S
O307 C320 1.252 . S
C308 O297 1.284 . S
C308 O300 1.250 . S
C309 H278 0.929 . S
C309 C294 1.437 . S
C309 C310 1.317 . S
C310 H281 0.930 1_565 S
C310 C286 1.431 . S
C310 C309 1.317 . S
C311 Gd252 2.828 . S
C311 O296 1.258 . S
C311 O301 1.252 . S
C311 C312 1.497 . S
C312 C311 1.497 . S
C312 C313 1.395 . S
C312 C314 1.380 . S
C313 C312 1.395 . S
C313 C316 1.398 . S
C313 H328 0.930 . S
C314 C312 1.380 . S
C314 C315 1.391 . S
C314 H329 0.930 . S
C315 C314 1.391 . S
C315 C317 1.387 . S
C316 C313 1.398 . S
C316 C317 1.380 . S
C316 H330 0.930 . S
C317 C315 1.387 . S
C317 C316 1.380 . S
C317 H331 0.930 . S
C318 O298 1.254 . S
C318 O299 1.268 . S
C319 O303 1.284 . S
C319 O306 1.250 . S
C320 Gd253 2.828 . S
C320 O302 1.258 . S
C320 O307 1.252 . S
C320 C321 1.497 . S
C321 C320 1.497 . S
C321 C322 1.395 . S
C321 C323 1.380 . S
C322 C321 1.395 . S
C322 C325 1.398 . S
C322 H332 0.930 . S
C323 C321 1.380 . S
C323 C324 1.391 . S
C323 H333 0.930 . S
C324 C323 1.391 . S
C324 C326 1.387 . S
C325 C322 1.398 . S
C325 C326 1.380 . S
C325 H334 0.930 . S
C326 C324 1.387 . S
C326 C325 1.380 . S
C326 H335 0.930 . S
C327 O304 1.254 . S
C327 O305 1.268 . S
H328 C313 0.930 . S
H329 C314 0.930 . S
H330 C316 0.930 . S
H331 C317 0.930 . S
H332 C322 0.930 . S
H333 C323 0.930 . S
H334 C325 0.930 . S
H335 C326 0.930 . S
Gd336 N367 2.661 . S
Gd336 N373 2.601 . S
Gd336 O380 2.545 . S
Gd336 O381 2.606 . S
Gd336 O383 2.429 . S
Gd336 O384 2.545 . S
Gd336 O385 2.412 . S
Gd336 O387 2.362 . S
Gd336 O388 2.324 . S
Gd336 C395 2.828 . S
Gd337 N346 2.661 . S
Gd337 N350 2.601 . S
Gd337 O381 2.362 . S
Gd337 O382 2.324 . S
Gd337 O386 2.545 . S
Gd337 O387 2.606 . S
Gd337 O389 2.429 . S
Gd337 O390 2.545 . S
Gd337 O391 2.412 . S
Gd337 C404 2.828 . S
C338 C341 1.417 . S
C338 C343 1.431 . S
C338 C344 1.412 . S
C339 C342 1.437 . S
C339 C343 1.317 . S
C339 H358 0.929 . S
C340 C341 1.426 . S
C340 C342 1.413 . S
C340 N350 1.359 . S
C341 C338 1.417 . S
C341 C340 1.426 . S
C341 N346 1.350 . S
C342 C339 1.437 . S
C342 C340 1.413 . S
C342 C352 1.391 . S
C343 C338 1.431 . S
C343 C339 1.317 . S
C343 H354 0.930 . S
C344 C338 1.412 . S
C344 C345 1.355 . S
C344 H356 0.930 . S
C345 C344 1.355 . S
C345 C347 1.402 . S
C345 H357 0.930 . S
N346 Gd337 2.661 . S
N346 C341 1.350 . S
N346 C347 1.307 . S
C347 C345 1.402 . S
C347 N346 1.307 . S
C347 H348 0.930 . S
H348 C347 0.930 . S
C349 N350 1.334 . S
C349 C351 1.394 . S
C349 H353 0.930 . S
N350 Gd337 2.601 . S
N350 C340 1.359 . S
N350 C349 1.334 . S
C351 C349 1.394 . S
C351 C352 1.359 . S
C351 H363 0.930 . S
C352 C342 1.391 . S
C352 C351 1.359 . S
C352 H364 0.929 . S
H353 C349 0.930 . S
H354 C343 0.930 . S
H355 C372 0.930 . S
H356 C344 0.930 . S
H357 C345 0.930 . S
H358 C339 0.929 . S
H359 C377 0.930 . S
H360 C368 0.930 . S
H361 C369 0.930 . S
H362 C393 0.929 . S
H363 C351 0.930 . S
H364 C352 0.929 . S
H365 C394 0.930 . S
H366 C375 0.930 . S
N367 Gd336 2.661 . S
N367 C371 1.350 . S
N367 C372 1.307 . S
C368 H360 0.930 . S
C368 C369 1.355 . S
C368 C370 1.412 . S
C369 H361 0.930 . S
C369 C368 1.355 . S
C369 C372 1.402 . S
C370 C368 1.412 . S
C370 C371 1.417 . S
C370 C394 1.431 . S
C371 N367 1.350 . S
C371 C370 1.417 . S
C371 C374 1.426 . S
C372 H355 0.930 . S
C372 N367 1.307 . S
C372 C369 1.402 . S
N373 Gd336 2.601 . S
N373 C374 1.359 . S
N373 C377 1.334 . S
C374 C371 1.426 . S
C374 N373 1.359 . S
C374 C378 1.413 . S
C375 H366 0.930 . S
C375 C376 1.359 . S
C375 C377 1.394 . S
C376 C375 1.359 . S
C376 C378 1.391 . S
C376 H379 0.929 . S
C377 H359 0.930 . S
C377 N373 1.334 . S
C377 C375 1.394 . S
C378 C374 1.413 . S
C378 C376 1.391 . S
C378 C393 1.437 . S
H379 C376 0.929 . S
O380 Gd336 2.545 . S
O380 C395 1.258 . S
O381 Gd336 2.606 . S
O381 Gd337 2.362 . S
O381 C392 1.284 . S
O382 Gd337 2.324 . S
O382 C402 1.254 . S
O383 Gd336 2.429 . S
O383 C402 1.268 . S
O384 Gd336 2.545 . S
O384 C392 1.250 . S
O385 Gd336 2.412 . S
O385 C395 1.252 . S
O386 Gd337 2.545 . S
O386 C404 1.258 . S
O387 Gd336 2.362 . S
O387 Gd337 2.606 . S
O387 C403 1.284 . S
O388 Gd336 2.324 . S
O388 C411 1.254 . S
O389 Gd337 2.429 . S
O389 C411 1.268 . S
O390 Gd337 2.545 . S
O390 C403 1.250 . S
O391 Gd337 2.412 . S
O391 C404 1.252 . S
C392 O381 1.284 . S
C392 O384 1.250 . S
C393 H362 0.929 . S
C393 C378 1.437 . S
C393 C394 1.317 . S
C394 H365 0.930 . S
C394 C370 1.431 . S
C394 C393 1.317 . S
C395 Gd336 2.828 . S
C395 O380 1.258 . S
C395 O385 1.252 . S
C395 C396 1.497 . S
C396 C395 1.497 . S
C396 C397 1.395 . S
C396 C398 1.380 . S
C397 C396 1.395 . S
C397 C400 1.398 . S
C397 H412 0.930 . S
C398 C396 1.380 . S
C398 C399 1.391 . S
C398 H413 0.930 . S
C399 C398 1.391 . S
C399 C401 1.387 . S
C400 C397 1.398 . S
C400 C401 1.380 . S
C400 H414 0.930 1_565 S
C401 C399 1.387 . S
C401 C400 1.380 . S
C401 H415 0.930 . S
C402 O382 1.254 . S
C402 O383 1.268 . S
C403 O387 1.284 . S
C403 O390 1.250 . S
C404 Gd337 2.828 . S
C404 O386 1.258 . S
C404 O391 1.252 . S
C404 C405 1.497 . S
C405 C404 1.497 . S
C405 C406 1.395 . S
C405 C407 1.380 . S
C406 C405 1.395 . S
C406 C409 1.398 . S
C406 H416 0.930 . S
C407 C405 1.380 . S
C407 C408 1.391 . S
C407 H417 0.930 . S
C408 C407 1.391 . S
C408 C410 1.387 . S
C409 C406 1.398 . S
C409 C410 1.380 . S
C409 H418 0.930 . S
C410 C408 1.387 . S
C410 C409 1.380 . S
C410 H419 0.930 . S
C411 O388 1.254 . S
C411 O389 1.268 . S
H412 C397 0.930 . S
H413 C398 0.930 . S
H414 C400 0.930 1_545 S
H415 C401 0.930 . S
H416 C406 0.930 . S
H417 C407 0.930 . S
H418 C409 0.930 . S
H419 C410 0.930 . S
Gd420 N451 2.661 . S
Gd420 N457 2.601 . S
Gd420 O464 2.545 . S
Gd420 O465 2.606 . S
Gd420 O467 2.429 . S
Gd420 O468 2.545 . S
Gd420 O469 2.412 . S
Gd420 O471 2.362 . S
Gd420 O472 2.324 . S
Gd420 C479 2.828 . S
Gd421 N430 2.661 . S
Gd421 N434 2.601 . S
Gd421 O465 2.362 . S
Gd421 O466 2.324 . S
Gd421 O470 2.545 . S
Gd421 O471 2.606 . S
Gd421 O473 2.429 . S
Gd421 O474 2.545 . S
Gd421 O475 2.412 . S
Gd421 C488 2.828 . S
C422 C425 1.417 . S
C422 C427 1.431 . S
C422 C428 1.412 . S
C423 C426 1.437 . S
C423 C427 1.317 . S
C423 H442 0.929 . S
C424 C425 1.426 . S
C424 C426 1.413 . S
C424 N434 1.359 . S
C425 C422 1.417 . S
C425 C424 1.426 . S
C425 N430 1.350 . S
C426 C423 1.437 . S
C426 C424 1.413 . S
C426 C436 1.391 . S
C427 C422 1.431 . S
C427 C423 1.317 . S
C427 H438 0.930 . S
C428 C422 1.412 . S
C428 C429 1.355 . S
C428 H440 0.930 . S
C429 C428 1.355 . S
C429 C431 1.402 . S
C429 H441 0.930 . S
N430 Gd421 2.661 . S
N430 C425 1.350 . S
N430 C431 1.307 . S
C431 C429 1.402 . S
C431 N430 1.307 . S
C431 H432 0.930 . S
H432 C431 0.930 . S
C433 N434 1.334 . S
C433 C435 1.394 . S
C433 H437 0.930 . S
N434 Gd421 2.601 . S
N434 C424 1.359 . S
N434 C433 1.334 . S
C435 C433 1.394 . S
C435 C436 1.359 . S
C435 H447 0.930 . S
C436 C426 1.391 . S
C436 C435 1.359 . S
C436 H448 0.929 . S
H437 C433 0.930 . S
H438 C427 0.930 . S
H439 C456 0.930 . S
H440 C428 0.930 . S
H441 C429 0.930 . S
H442 C423 0.929 . S
H443 C461 0.930 . S
H444 C452 0.930 . S
H445 C453 0.930 . S
H446 C477 0.929 . S
H447 C435 0.930 . S
H448 C436 0.929 . S
H449 C478 0.930 . S
H450 C459 0.930 . S
N451 Gd420 2.661 . S
N451 C455 1.350 . S
N451 C456 1.307 . S
C452 H444 0.930 . S
C452 C453 1.355 . S
C452 C454 1.412 . S
C453 H445 0.930 . S
C453 C452 1.355 . S
C453 C456 1.402 . S
C454 C452 1.412 . S
C454 C455 1.417 . S
C454 C478 1.431 . S
C455 N451 1.350 . S
C455 C454 1.417 . S
C455 C458 1.426 . S
C456 H439 0.930 . S
C456 N451 1.307 . S
C456 C453 1.402 . S
N457 Gd420 2.601 . S
N457 C458 1.359 . S
N457 C461 1.334 . S
C458 C455 1.426 . S
C458 N457 1.359 . S
C458 C462 1.413 . S
C459 H450 0.930 . S
C459 C460 1.359 . S
C459 C461 1.394 . S
C460 C459 1.359 . S
C460 C462 1.391 . S
C460 H463 0.929 . S
C461 H443 0.930 . S
C461 N457 1.334 . S
C461 C459 1.394 . S
C462 C458 1.413 . S
C462 C460 1.391 . S
C462 C477 1.437 . S
H463 C460 0.929 . S
O464 Gd420 2.545 . S
O464 C479 1.258 . S
O465 Gd420 2.606 . S
O465 Gd421 2.362 . S
O465 C476 1.284 . S
O466 Gd421 2.324 . S
O466 C486 1.254 . S
O467 Gd420 2.429 . S
O467 C486 1.268 . S
O468 Gd420 2.545 . S
O468 C476 1.250 . S
O469 Gd420 2.412 . S
O469 C479 1.252 . S
O470 Gd421 2.545 . S
O470 C488 1.258 . S
O471 Gd420 2.362 . S
O471 Gd421 2.606 . S
O471 C487 1.284 . S
O472 Gd420 2.324 . S
O472 C495 1.254 . S
O473 Gd421 2.429 . S
O473 C495 1.268 . S
O474 Gd421 2.545 . S
O474 C487 1.250 . S
O475 Gd421 2.412 . S
O475 C488 1.252 . S
C476 O465 1.284 . S
C476 O468 1.250 . S
C477 H446 0.929 . S
C477 C462 1.437 . S
C477 C478 1.317 . S
C478 H449 0.930 . S
C478 C454 1.431 . S
C478 C477 1.317 . S
C479 Gd420 2.828 . S
C479 O464 1.258 . S
C479 O469 1.252 . S
C479 C480 1.497 . S
C480 C479 1.497 . S
C480 C481 1.395 . S
C480 C482 1.380 . S
C481 C480 1.395 . S
C481 C484 1.398 . S
C481 H496 0.930 . S
C482 C480 1.380 . S
C482 C483 1.391 . S
C482 H497 0.930 . S
C483 C482 1.391 . S
C483 C485 1.387 . S
C484 C481 1.398 . S
C484 C485 1.380 . S
C484 H498 0.930 . S
C485 C483 1.387 . S
C485 C484 1.380 . S
C485 H499 0.930 . S
C486 O466 1.254 . S
C486 O467 1.268 . S
C487 O471 1.284 . S
C487 O474 1.250 . S
C488 Gd421 2.828 . S
C488 O470 1.258 . S
C488 O475 1.252 . S
C488 C489 1.497 . S
C489 C488 1.497 . S
C489 C490 1.395 . S
C489 C491 1.380 . S
C490 C489 1.395 . S
C490 C493 1.398 . S
C490 H500 0.930 . S
C491 C489 1.380 . S
C491 C492 1.391 . S
C491 H501 0.930 . S
C492 C491 1.391 . S
C492 C494 1.387 . S
C493 C490 1.398 . S
C493 C494 1.380 . S
C493 H502 0.930 . S
C494 C492 1.387 . S
C494 C493 1.380 . S
C494 H503 0.930 . S
C495 O472 1.254 . S
C495 O473 1.268 . S
H496 C481 0.930 . S
H497 C482 0.930 . S
H498 C484 0.930 . S
H499 C485 0.930 . S
H500 C490 0.930 . S
H501 C491 0.930 . S
H502 C493 0.930 . S
H503 C494 0.930 . S
Gd504 N535 2.661 . S
Gd504 N541 2.601 . S
Gd504 O548 2.545 . S
Gd504 O549 2.606 . S
Gd504 O551 2.429 . S
Gd504 O552 2.545 . S
Gd504 O553 2.412 . S
Gd504 O555 2.362 . S
Gd504 O556 2.324 . S
Gd504 C563 2.828 . S
Gd505 N514 2.661 . S
Gd505 N518 2.601 . S
Gd505 O549 2.362 . S
Gd505 O550 2.324 . S
Gd505 O554 2.545 . S
Gd505 O555 2.606 . S
Gd505 O557 2.429 . S
Gd505 O558 2.545 . S
Gd505 O559 2.412 . S
Gd505 C572 2.828 . S
C506 C509 1.417 . S
C506 C511 1.431 . S
C506 C512 1.412 . S
C507 C510 1.437 . S
C507 C511 1.317 . S
C507 H526 0.929 . S
C508 C509 1.426 . S
C508 C510 1.413 . S
C508 N518 1.359 . S
C509 C506 1.417 . S
C509 C508 1.426 . S
C509 N514 1.350 . S
C510 C507 1.437 . S
C510 C508 1.413 . S
C510 C520 1.391 . S
C511 C506 1.431 . S
C511 C507 1.317 . S
C511 H522 0.930 . S
C512 C506 1.412 . S
C512 C513 1.355 . S
C512 H524 0.930 . S
C513 C512 1.355 . S
C513 C515 1.402 . S
C513 H525 0.930 . S
N514 Gd505 2.661 . S
N514 C509 1.350 . S
N514 C515 1.307 . S
C515 C513 1.402 . S
C515 N514 1.307 . S
C515 H516 0.930 . S
H516 C515 0.930 . S
C517 N518 1.334 . S
C517 C519 1.394 . S
C517 H521 0.930 . S
N518 Gd505 2.601 . S
N518 C508 1.359 . S
N518 C517 1.334 . S
C519 C517 1.394 . S
C519 C520 1.359 . S
C519 H531 0.930 . S
C520 C510 1.391 . S
C520 C519 1.359 . S
C520 H532 0.929 . S
H521 C517 0.930 . S
H522 C511 0.930 . S
H523 C540 0.930 . S
H524 C512 0.930 . S
H525 C513 0.930 . S
H526 C507 0.929 . S
H527 C545 0.930 . S
H528 C536 0.930 . S
H529 C537 0.930 . S
H530 C561 0.929 . S
H531 C519 0.930 . S
H532 C520 0.929 . S
H533 C562 0.930 . S
H534 C543 0.930 . S
N535 Gd504 2.661 . S
N535 C539 1.350 . S
N535 C540 1.307 . S
C536 H528 0.930 . S
C536 C537 1.355 . S
C536 C538 1.412 . S
C537 H529 0.930 . S
C537 C536 1.355 . S
C537 C540 1.402 . S
C538 C536 1.412 . S
C538 C539 1.417 . S
C538 C562 1.431 . S
C539 N535 1.350 . S
C539 C538 1.417 . S
C539 C542 1.426 . S
C540 H523 0.930 . S
C540 N535 1.307 . S
C540 C537 1.402 . S
N541 Gd504 2.601 . S
N541 C542 1.359 . S
N541 C545 1.334 . S
C542 C539 1.426 . S
C542 N541 1.359 . S
C542 C546 1.413 . S
C543 H534 0.930 . S
C543 C544 1.359 . S
C543 C545 1.394 . S
C544 C543 1.359 . S
C544 C546 1.391 . S
C544 H547 0.929 . S
C545 H527 0.930 . S
C545 N541 1.334 . S
C545 C543 1.394 . S
C546 C542 1.413 . S
C546 C544 1.391 . S
C546 C561 1.437 . S
H547 C544 0.929 . S
O548 Gd504 2.545 . S
O548 C563 1.258 . S
O549 Gd504 2.606 . S
O549 Gd505 2.362 . S
O549 C560 1.284 . S
O550 Gd505 2.324 . S
O550 C570 1.254 . S
O551 Gd504 2.429 . S
O551 C570 1.268 . S
O552 Gd504 2.545 . S
O552 C560 1.250 . S
O553 Gd504 2.412 . S
O553 C563 1.252 . S
O554 Gd505 2.545 . S
O554 C572 1.258 . S
O555 Gd504 2.362 . S
O555 Gd505 2.606 . S
O555 C571 1.284 . S
O556 Gd504 2.324 . S
O556 C579 1.254 . S
O557 Gd505 2.429 . S
O557 C579 1.268 . S
O558 Gd505 2.545 . S
O558 C571 1.250 . S
O559 Gd505 2.412 . S
O559 C572 1.252 . S
C560 O549 1.284 . S
C560 O552 1.250 . S
C561 H530 0.929 . S
C561 C546 1.437 . S
C561 C562 1.317 . S
C562 H533 0.930 . S
C562 C538 1.431 . S
C562 C561 1.317 . S
C563 Gd504 2.828 . S
C563 O548 1.258 . S
C563 O553 1.252 . S
C563 C564 1.497 . S
C564 C563 1.497 . S
C564 C565 1.395 . S
C564 C566 1.380 . S
C565 C564 1.395 . S
C565 C568 1.398 . S
C565 H580 0.930 . S
C566 C564 1.380 . S
C566 C567 1.391 . S
C566 H581 0.930 . S
C567 C566 1.391 . S
C567 C569 1.387 . S
C568 C565 1.398 . S
C568 C569 1.380 . S
C568 H582 0.930 . S
C569 C567 1.387 . S
C569 C568 1.380 . S
C569 H583 0.930 . S
C570 O550 1.254 . S
C570 O551 1.268 . S
C571 O555 1.284 . S
C571 O558 1.250 . S
C572 Gd505 2.828 . S
C572 O554 1.258 . S
C572 O559 1.252 . S
C572 C573 1.497 . S
C573 C572 1.497 . S
C573 C574 1.395 . S
C573 C575 1.380 . S
C574 C573 1.395 . S
C574 C577 1.398 . S
C574 H584 0.930 . S
C575 C573 1.380 . S
C575 C576 1.391 . S
C575 H585 0.930 . S
C576 C575 1.391 . S
C576 C578 1.387 . S
C577 C574 1.398 . S
C577 C578 1.380 . S
C577 H586 0.930 . S
C578 C576 1.387 . S
C578 C577 1.380 . S
C578 H587 0.930 . S
C579 O556 1.254 . S
C579 O557 1.268 . S
H580 C565 0.930 . S
H581 C566 0.930 . S
H582 C568 0.930 . S
H583 C569 0.930 . S
H584 C574 0.930 . S
H585 C575 0.930 . S
H586 C577 0.930 . S
H587 C578 0.930 . S
Gd588 N619 2.661 . S
Gd588 N625 2.601 . S
Gd588 O632 2.545 . S
Gd588 O633 2.606 . S
Gd588 O635 2.429 . S
Gd588 O636 2.545 . S
Gd588 O637 2.412 . S
Gd588 O639 2.362 . S
Gd588 O640 2.324 . S
Gd588 C647 2.828 . S
Gd589 N598 2.661 . S
Gd589 N602 2.601 . S
Gd589 O633 2.362 . S
Gd589 O634 2.324 . S
Gd589 O638 2.545 . S
Gd589 O639 2.606 . S
Gd589 O641 2.429 . S
Gd589 O642 2.545 . S
Gd589 O643 2.412 . S
Gd589 C656 2.828 . S
C590 C593 1.417 . S
C590 C595 1.431 . S
C590 C596 1.412 . S
C591 C594 1.437 . S
C591 C595 1.317 . S
C591 H610 0.929 . S
C592 C593 1.426 . S
C592 C594 1.413 . S
C592 N602 1.359 . S
C593 C590 1.417 . S
C593 C592 1.426 . S
C593 N598 1.350 . S
C594 C591 1.437 . S
C594 C592 1.413 . S
C594 C604 1.391 . S
C595 C590 1.431 . S
C595 C591 1.317 . S
C595 H606 0.930 . S
C596 C590 1.412 . S
C596 C597 1.355 . S
C596 H608 0.930 . S
C597 C596 1.355 . S
C597 C599 1.402 . S
C597 H609 0.930 . S
N598 Gd589 2.661 . S
N598 C593 1.350 . S
N598 C599 1.307 . S
C599 C597 1.402 . S
C599 N598 1.307 . S
C599 H600 0.930 . S
H600 C599 0.930 . S
C601 N602 1.334 . S
C601 C603 1.394 . S
C601 H605 0.930 . S
N602 Gd589 2.601 . S
N602 C592 1.359 . S
N602 C601 1.334 . S
C603 C601 1.394 . S
C603 C604 1.359 . S
C603 H615 0.930 . S
C604 C594 1.391 . S
C604 C603 1.359 . S
C604 H616 0.929 . S
H605 C601 0.930 . S
H606 C595 0.930 . S
H607 C624 0.930 . S
H608 C596 0.930 . S
H609 C597 0.930 . S
H610 C591 0.929 . S
H611 C629 0.930 . S
H612 C620 0.930 . S
H613 C621 0.930 . S
H614 C645 0.929 . S
H615 C603 0.930 . S
H616 C604 0.929 . S
H617 C646 0.930 . S
H618 C627 0.930 . S
N619 Gd588 2.661 . S
N619 C623 1.350 . S
N619 C624 1.307 . S
C620 H612 0.930 . S
C620 C621 1.355 . S
C620 C622 1.412 . S
C621 H613 0.930 . S
C621 C620 1.355 . S
C621 C624 1.402 . S
C622 C620 1.412 . S
C622 C623 1.417 . S
C622 C646 1.431 . S
C623 N619 1.350 . S
C623 C622 1.417 . S
C623 C626 1.426 . S
C624 H607 0.930 . S
C624 N619 1.307 . S
C624 C621 1.402 . S
N625 Gd588 2.601 . S
N625 C626 1.359 . S
N625 C629 1.334 . S
C626 C623 1.426 . S
C626 N625 1.359 . S
C626 C630 1.413 . S
C627 H618 0.930 . S
C627 C628 1.359 . S
C627 C629 1.394 . S
C628 C627 1.359 . S
C628 C630 1.391 . S
C628 H631 0.929 . S
C629 H611 0.930 . S
C629 N625 1.334 . S
C629 C627 1.394 . S
C630 C626 1.413 . S
C630 C628 1.391 . S
C630 C645 1.437 . S
H631 C628 0.929 . S
O632 Gd588 2.545 . S
O632 C647 1.258 . S
O633 Gd588 2.606 . S
O633 Gd589 2.362 . S
O633 C644 1.284 . S
O634 Gd589 2.324 . S
O634 C654 1.254 . S
O635 Gd588 2.429 . S
O635 C654 1.268 . S
O636 Gd588 2.545 . S
O636 C644 1.250 . S
O637 Gd588 2.412 . S
O637 C647 1.252 . S
O638 Gd589 2.545 . S
O638 C656 1.258 . S
O639 Gd588 2.362 . S
O639 Gd589 2.606 . S
O639 C655 1.284 . S
O640 Gd588 2.324 . S
O640 C663 1.254 . S
O641 Gd589 2.429 . S
O641 C663 1.268 . S
O642 Gd589 2.545 . S
O642 C655 1.250 . S
O643 Gd589 2.412 . S
O643 C656 1.252 . S
C644 O633 1.284 . S
C644 O636 1.250 . S
C645 H614 0.929 . S
C645 C630 1.437 . S
C645 C646 1.317 . S
C646 H617 0.930 . S
C646 C622 1.431 . S
C646 C645 1.317 . S
C647 Gd588 2.828 . S
C647 O632 1.258 . S
C647 O637 1.252 . S
C647 C648 1.497 . S
C648 C647 1.497 . S
C648 C649 1.395 . S
C648 C650 1.380 . S
C649 C648 1.395 . S
C649 C652 1.398 1_565 S
C649 H664 0.930 . S
C650 C648 1.380 . S
C650 C651 1.391 . S
C650 H665 0.930 . S
C651 C650 1.391 . S
C651 C653 1.387 . S
C652 C649 1.398 1_545 S
C652 C653 1.380 1_545 S
C652 H666 0.930 . S
C653 C651 1.387 . S
C653 C652 1.380 1_565 S
C653 H667 0.930 1_565 S
C654 O634 1.254 . S
C654 O635 1.268 . S
C655 O639 1.284 . S
C655 O642 1.250 . S
C656 Gd589 2.828 . S
C656 O638 1.258 . S
C656 O643 1.252 . S
C656 C657 1.497 . S
C657 C656 1.497 . S
C657 C658 1.395 . S
C657 C659 1.380 . S
C658 C657 1.395 . S
C658 C661 1.398 . S
C658 H668 0.930 . S
C659 C657 1.380 . S
C659 C660 1.391 . S
C659 H669 0.930 . S
C660 C659 1.391 . S
C660 C662 1.387 . S
C661 C658 1.398 . S
C661 C662 1.380 . S
C661 H670 0.930 . S
C662 C660 1.387 . S
C662 C661 1.380 . S
C662 H671 0.930 . S
C663 O640 1.254 . S
C663 O641 1.268 . S
H664 C649 0.930 . S
H665 C650 0.930 . S
H666 C652 0.930 . S
H667 C653 0.930 1_545 S
H668 C658 0.930 . S
H669 C659 0.930 . S
H670 C661 0.930 . S
H671 C662 0.930 . S
Fe672 O673 1.886 1_455 S
Fe672 O676 1.715 . S
Fe672 O681 2.077 1_455 S
Fe672 O686 1.935 . S
Fe672 O692 2.077 1_455 S
Fe672 O701 1.935 . S
O673 Fe672 1.886 1_655 S
O673 Fe675 1.715 . S
Fe674 O676 1.886 . S
Fe674 O677 1.715 1_545 S
Fe674 O684 1.935 . S
Fe674 O685 2.077 . S
Fe674 O691 1.935 1_545 S
Fe674 O700 2.077 . S
Fe675 O673 1.715 . S
Fe675 O678 1.886 1_545 S
Fe675 O682 1.935 . S
Fe675 O687 2.077 1_545 S
Fe675 O693 1.935 . S
Fe675 O697 2.077 1_545 S
O676 Fe672 1.715 . S
O676 Fe674 1.886 . S
O677 Fe674 1.715 1_565 S
O677 Fe679 1.886 . S
O678 Fe675 1.886 1_565 S
O678 Fe679 1.715 1_655 S
Fe679 O677 1.886 . S
Fe679 O678 1.715 1_455 S
Fe679 O683 2.077 . S
Fe679 O688 1.935 1_455 S
Fe679 O690 2.077 . S
Fe679 O698 1.935 1_455 S
C680 O692 1.381 . S
C680 O693 1.421 . S
O681 Fe672 2.077 1_655 S
O681 C694 1.381 . S
O682 Fe675 1.935 . S
O682 C694 1.421 . S
O683 Fe679 2.077 . S
O683 C699 1.381 . S
O684 Fe674 1.935 . S
O684 C699 1.421 1_545 S
O685 Fe674 2.077 . S
O685 C689 1.381 . S
O686 Fe672 1.935 . S
O686 C689 1.421 . S
O687 Fe675 2.077 1_565 S
O687 C695 1.381 . S
O688 Fe679 1.935 1_655 S
O688 C695 1.421 . S
C689 O685 1.381 . S
C689 O686 1.421 . S
O690 Fe679 2.077 . S
O690 C702 1.381 . S
O691 Fe674 1.935 1_565 S
O691 C702 1.421 . S
O692 Fe672 2.077 1_655 S
O692 C680 1.381 . S
O693 Fe675 1.935 . S
O693 C680 1.421 . S
C694 O681 1.381 . S
C694 O682 1.421 . S
C695 O687 1.381 . S
C695 O688 1.421 . S
C696 O697 1.381 . S
C696 O698 1.421 . S
O697 Fe675 2.077 1_565 S
O697 C696 1.381 . S
O698 Fe679 1.935 1_655 S
O698 C696 1.421 . S
C699 O683 1.381 . S
C699 O684 1.421 1_565 S
O700 Fe674 2.077 . S
O700 C703 1.381 . S
O701 Fe672 1.935 . S
O701 C703 1.421 . S
C702 O690 1.381 . S
C702 O691 1.421 . S
C703 O700 1.381 . S
C703 O701 1.421 . S
Fe704 O705 1.886 1_565 S
Fe704 O708 1.715 . S
Fe704 O713 2.077 1_554 S
Fe704 O718 1.935 1_554 S
Fe704 O724 2.077 . S
Fe704 O733 1.935 . S
O705 Fe704 1.886 1_545 S
O705 Fe707 1.715 . S
Fe706 O708 1.887 1_546 S
Fe706 O709 1.715 . S
Fe706 O716 1.952 . S
Fe706 O717 2.092 1_545 S
Fe706 O723 1.917 1_556 S
Fe706 O732 2.063 1_546 S
Fe707 O705 1.715 . S
Fe707 O710 1.886 . S
Fe707 O714 1.935 1_554 S
Fe707 O719 2.077 1_554 S
Fe707 O725 1.935 . S
Fe707 O729 2.077 . S
O708 Fe704 1.715 . S
O708 Fe706 1.887 1_564 S
O709 Fe706 1.715 . S
O709 Fe711 1.886 . S
O710 Fe707 1.886 . S
O710 Fe711 1.715 1_554 S
Fe711 O709 1.886 . S
Fe711 O710 1.715 1_556 S
Fe711 O715 2.077 . S
Fe711 O720 1.935 . S
Fe711 O722 2.077 1_556 S
Fe711 O730 1.935 1_556 S
C712 O724 1.381 . S
C712 O725 1.421 1_565 S
O713 Fe704 2.077 1_556 S
O713 C726 1.381 . S
O714 Fe707 1.935 1_556 S
O714 C726 1.421 1_545 S
O715 Fe711 2.077 . S
O715 C731 1.381 . S
O716 Fe706 1.952 . S
O716 C731 1.421 . S
O717 Fe706 2.092 1_565 S
O717 C721 1.381 . S
O718 Fe704 1.935 1_556 S
O718 C721 1.421 . S
O719 Fe707 2.077 1_556 S
O719 C727 1.381 . S
O720 Fe711 1.935 . S
O720 C727 1.421 . S
C721 O717 1.381 . S
C721 O718 1.421 . S
O722 Fe711 2.077 1_554 S
O722 C734 1.381 . S
O723 Fe706 1.917 1_554 S
O723 C734 1.421 . S
O724 Fe704 2.077 . S
O724 C712 1.381 . S
O725 Fe707 1.935 . S
O725 C712 1.421 1_545 S
C726 O713 1.381 . S
C726 O714 1.421 1_565 S
C727 O719 1.381 . S
C727 O720 1.421 . S
C728 O729 1.381 . S
C728 O730 1.421 . S
O729 Fe707 2.077 . S
O729 C728 1.381 . S
O730 Fe711 1.935 1_554 S
O730 C728 1.421 . S
C731 O715 1.381 . S
C731 O716 1.421 . S
O732 Fe706 2.063 1_564 S
O732 C735 1.381 . S
O733 Fe704 1.935 . S
O733 C735 1.421 . S
C734 O722 1.381 . S
C734 O723 1.421 . S
C735 O732 1.381 . S
C735 O733 1.421 . S
Fe736 O737 1.886 1_455 S
Fe736 O740 1.715 . S
Fe736 O745 2.077 1_455 S
Fe736 O750 1.935 . S
Fe736 O756 2.077 1_455 S
Fe736 O765 1.935 . S
O737 Fe736 1.886 1_655 S
O737 Fe739 1.715 . S
Fe738 O740 1.886 . S
Fe738 O741 1.715 . S
Fe738 O748 1.935 . S
Fe738 O749 2.077 . S
Fe738 O755 1.935 . S
Fe738 O764 2.077 . S
Fe739 O737 1.715 . S
Fe739 O742 1.886 . S
Fe739 O746 1.935 . S
Fe739 O751 2.077 . S
Fe739 O757 1.935 . S
Fe739 O761 2.077 . S
O740 Fe736 1.715 . S
O740 Fe738 1.886 . S
O741 Fe738 1.715 . S
O741 Fe743 1.886 1_455 S
O742 Fe739 1.886 . S
O742 Fe743 1.715 . S
Fe743 O741 1.886 1_655 S
Fe743 O742 1.715 . S
Fe743 O747 2.077 1_655 S
Fe743 O752 1.935 . S
Fe743 O754 2.077 1_655 S
Fe743 O762 1.935 . S
C744 O756 1.381 . S
C744 O757 1.421 . S
O745 Fe736 2.077 1_655 S
O745 C758 1.381 1_554 S
O746 Fe739 1.935 . S
O746 C758 1.421 1_554 S
O747 Fe743 2.077 1_455 S
O747 C763 1.387 . S
O748 Fe738 1.935 . S
O748 C763 1.425 . S
O749 Fe738 2.077 . S
O749 C753 1.381 1_554 S
O750 Fe736 1.935 . S
O750 C753 1.421 1_554 S
O751 Fe739 2.077 . S
O751 C759 1.381 1_554 S
O752 Fe743 1.935 . S
O752 C759 1.421 1_554 S
C753 O749 1.381 1_556 S
C753 O750 1.421 1_556 S
O754 Fe743 2.077 1_455 S
O754 C766 1.381 . S
O755 Fe738 1.935 . S
O755 C766 1.421 . S
O756 Fe736 2.077 1_655 S
O756 C744 1.381 . S
O757 Fe739 1.935 . S
O757 C744 1.421 . S
C758 O745 1.381 1_556 S
C758 O746 1.421 1_556 S
C759 O751 1.381 1_556 S
C759 O752 1.421 1_556 S
C760 O761 1.381 . S
C760 O762 1.421 . S
O761 Fe739 2.077 . S
O761 C760 1.381 . S
O762 Fe743 1.935 . S
O762 C760 1.421 . S
C763 O747 1.387 . S
C763 O748 1.425 . S
O764 Fe738 2.077 . S
O764 C767 1.381 . S
O765 Fe736 1.935 . S
O765 C767 1.421 . S
C766 O754 1.381 . S
C766 O755 1.421 . S
C767 O764 1.381 . S
C767 O765 1.421 . S
Fe768 O769 1.886 . S
Fe768 O772 1.715 . S
Fe768 O777 2.077 . S
Fe768 O782 1.935 . S
Fe768 O788 2.077 . S
Fe768 O797 1.935 . S
O769 Fe768 1.886 . S
O769 Fe771 1.715 1_556 S
Fe770 O772 1.886 1_554 S
Fe770 O773 1.715 . S
Fe770 O780 1.935 . S
Fe770 O781 2.077 1_554 S
Fe770 O787 1.935 . S
Fe770 O796 2.077 1_554 S
Fe771 O769 1.715 1_554 S
Fe771 O774 1.886 . S
Fe771 O778 1.935 1_554 S
Fe771 O783 2.077 . S
Fe771 O789 1.935 . S
Fe771 O793 2.077 . S
O772 Fe768 1.715 . S
O772 Fe770 1.886 1_556 S
O773 Fe770 1.715 . S
O773 Fe775 1.886 . S
O774 Fe771 1.886 . S
O774 Fe775 1.715 . S
Fe775 O773 1.886 . S
Fe775 O774 1.715 . S
Fe775 O779 2.077 . S
Fe775 O784 1.935 . S
Fe775 O786 2.077 . S
Fe775 O794 1.935 . S
C776 O788 1.381 . S
C776 O789 1.421 1_556 S
O777 Fe768 2.077 . S
O777 C790 1.381 . S
O778 Fe771 1.935 1_556 S
O778 C790 1.421 . S
O779 Fe775 2.077 . S
O779 C795 1.381 . S
O780 Fe770 1.935 . S
O780 C795 1.421 . S
O781 Fe770 2.077 1_556 S
O781 C785 1.381 . S
O782 Fe768 1.935 . S
O782 C785 1.421 . S
O783 Fe771 2.077 . S
O783 C791 1.381 . S
O784 Fe775 1.935 . S
O784 C791 1.421 . S
C785 O781 1.381 . S
C785 O782 1.421 . S
O786 Fe775 2.077 . S
O786 C798 1.381 . S
O787 Fe770 1.935 . S
O787 C798 1.421 . S
O788 Fe768 2.077 . S
O788 C776 1.381 . S
O789 Fe771 1.935 . S
O789 C776 1.421 1_554 S
C790 O777 1.381 . S
C790 O778 1.421 . S
C791 O783 1.381 . S
C791 O784 1.421 . S
C792 O793 1.381 . S
C792 O794 1.421 . S
O793 Fe771 2.077 . S
O793 C792 1.381 . S
O794 Fe775 1.935 . S
O794 C792 1.421 . S
C795 O779 1.381 . S
C795 O780 1.421 . S
O796 Fe770 2.077 1_556 S
O796 C799 1.381 . S
O797 Fe768 1.935 . S
O797 C799 1.421 . S
C798 O786 1.381 . S
C798 O787 1.421 . S
C799 O796 1.381 . S
C799 O797 1.421 . S
Fe800 O801 1.886 . S
Fe800 O804 1.715 . S
Fe800 O809 2.077 . S
Fe800 O814 1.935 . S
Fe800 O820 2.077 1_455 S
Fe800 O829 1.935 1_455 S
O801 Fe800 1.886 . S
O801 Fe803 1.715 . S
Fe802 O804 1.886 . S
Fe802 O805 1.715 . S
Fe802 O812 1.935 . S
Fe802 O813 2.077 . S
Fe802 O819 1.935 1_455 S
Fe802 O828 2.077 1_455 S
Fe803 O801 1.715 . S
Fe803 O806 1.886 . S
Fe803 O810 1.935 . S
Fe803 O815 2.077 . S
Fe803 O821 1.935 1_455 S
Fe803 O825 2.099 . S
O804 Fe800 1.715 . S
O804 Fe802 1.886 . S
O805 Fe802 1.715 . S
O805 Fe807 1.886 . S
O806 Fe803 1.886 . S
O806 Fe807 1.715 . S
Fe807 O805 1.886 . S
Fe807 O806 1.715 . S
Fe807 O811 2.077 . S
Fe807 O816 1.935 . S
Fe807 O818 2.077 . S
Fe807 O826 1.935 . S
C808 O820 1.381 . S
C808 O821 1.421 . S
O809 Fe800 2.077 . S
O809 C822 1.381 . S
O810 Fe803 1.935 . S
O810 C822 1.421 . S
O811 Fe807 2.077 . S
O811 C827 1.381 . S
O812 Fe802 1.935 . S
O812 C827 1.421 . S
O813 Fe802 2.077 . S
O813 C817 1.381 . S
O814 Fe800 1.935 . S
O814 C817 1.421 . S
O815 Fe803 2.077 . S
O815 C823 1.381 . S
O816 Fe807 1.935 . S
O816 C823 1.421 . S
C817 O813 1.381 . S
C817 O814 1.421 . S
O818 Fe807 2.077 . S
O818 C830 1.381 1_455 S
O819 Fe802 1.935 1_655 S
O819 C830 1.421 . S
O820 Fe800 2.077 1_655 S
O820 C808 1.381 . S
O821 Fe803 1.935 1_655 S
O821 C808 1.421 . S
C822 O809 1.381 . S
C822 O810 1.421 . S
C823 O815 1.381 . S
C823 O816 1.421 . S
C824 O825 1.370 1_655 S
C824 O826 1.421 1_655 S
O825 Fe803 2.099 . S
O825 C824 1.370 1_455 S
O826 Fe807 1.935 . S
O826 C824 1.421 1_455 S
C827 O811 1.381 . S
C827 O812 1.421 . S
O828 Fe802 2.077 1_655 S
O828 C831 1.381 . S
O829 Fe800 1.935 1_655 S
O829 C831 1.421 . S
C830 O818 1.381 1_655 S
C830 O819 1.421 . S
C831 O828 1.381 . S
C831 O829 1.421 . S
Fe832 O833 1.886 . S
Fe832 O836 1.715 . S
Fe832 O841 2.077 . S
Fe832 O846 1.935 . S
Fe832 O852 2.077 . S
Fe832 O861 1.935 . S
O833 Fe832 1.886 . S
O833 Fe835 1.715 1_565 S
Fe834 O836 1.886 1_545 S
Fe834 O837 1.715 . S
Fe834 O844 1.935 . S
Fe834 O845 2.077 1_545 S
Fe834 O851 1.935 . S
Fe834 O860 2.077 1_545 S
Fe835 O833 1.715 1_545 S
Fe835 O838 1.886 . S
Fe835 O842 1.935 1_545 S
Fe835 O847 2.077 . S
Fe835 O853 1.935 1_545 S
Fe835 O857 2.077 . S
O836 Fe832 1.715 . S
O836 Fe834 1.886 1_565 S
O837 Fe834 1.715 . S
O837 Fe839 1.886 . S
O838 Fe835 1.886 . S
O838 Fe839 1.715 . S
Fe839 O837 1.886 . S
Fe839 O838 1.715 . S
Fe839 O843 2.077 . S
Fe839 O848 1.935 . S
Fe839 O850 2.077 . S
Fe839 O858 1.935 . S
C840 O852 1.381 . S
C840 O853 1.421 . S
O841 Fe832 2.077 . S
O841 C854 1.381 . S
O842 Fe835 1.935 1_565 S
O842 C854 1.421 . S
O843 Fe839 2.077 . S
O843 C859 1.381 . S
O844 Fe834 1.935 . S
O844 C859 1.421 . S
O845 Fe834 2.077 1_565 S
O845 C849 1.381 . S
O846 Fe832 1.935 . S
O846 C849 1.421 . S
O847 Fe835 2.077 . S
O847 C855 1.381 . S
O848 Fe839 1.935 . S
O848 C855 1.421 . S
C849 O845 1.381 . S
C849 O846 1.421 . S
O850 Fe839 2.077 . S
O850 C862 1.381 . S
O851 Fe834 1.935 . S
O851 C862 1.421 . S
O852 Fe832 2.077 . S
O852 C840 1.381 . S
O853 Fe835 1.935 1_565 S
O853 C840 1.421 . S
C854 O841 1.381 . S
C854 O842 1.421 . S
C855 O847 1.381 . S
C855 O848 1.421 . S
C856 O857 1.381 . S
C856 O858 1.421 . S
O857 Fe835 2.077 . S
O857 C856 1.381 . S
O858 Fe839 1.935 . S
O858 C856 1.421 . S
C859 O843 1.381 . S
C859 O844 1.421 . S
O860 Fe834 2.077 1_565 S
O860 C863 1.381 . S
O861 Fe832 1.935 . S
O861 C863 1.421 . S
C862 O850 1.381 . S
C862 O851 1.421 . S
C863 O860 1.381 . S
C863 O861 1.421 . S
C864 C865 1.387 . S
C864 H868 0.950 . S
C864 C873 1.390 . S
C865 C864 1.387 . S
C865 C867 1.387 . S
H866 C873 0.950 . S
C867 C865 1.387 . S
C867 C869 1.390 . S
C867 H871 0.950 . S
H868 C864 0.950 . S
C869 C867 1.390 . S
C869 C870 1.387 . S
C869 H872 0.950 . S
C870 C869 1.387 . S
C870 C873 1.387 . S
H871 C867 0.950 . S
H872 C869 0.950 . S
C873 C864 1.390 . S
C873 H866 0.950 . S
C873 C870 1.387 . S
C874 C875 1.387 . S
C874 H878 0.950 . S
C874 C883 1.390 . S
C875 C874 1.387 . S
C875 C877 1.387 . S
H876 C883 0.950 . S
C877 C875 1.387 . S
C877 C879 1.390 . S
C877 H881 0.950 . S
H878 C874 0.950 . S
C879 C877 1.390 . S
C879 C880 1.387 . S
C879 H882 0.950 . S
C880 C879 1.387 . S
C880 C883 1.387 . S
H881 C877 0.950 . S
H882 C879 0.950 . S
C883 C874 1.390 . S
C883 H876 0.950 . S
C883 C880 1.387 . S
C884 C885 1.387 . S
C884 H888 0.950 . S
C884 C893 1.390 . S
C885 C884 1.387 . S
C885 C887 1.387 . S
H886 C893 0.950 . S
C887 C885 1.387 . S
C887 C889 1.390 . S
C887 H891 0.950 . S
H888 C884 0.950 . S
C889 C887 1.390 . S
C889 C890 1.387 . S
C889 H892 0.950 . S
C890 C889 1.387 . S
C890 C893 1.387 . S
H891 C887 0.950 . S
H892 C889 0.950 . S
C893 C884 1.390 . S
C893 H886 0.950 . S
C893 C890 1.387 . S
C894 C895 1.387 . S
C894 H898 0.950 . S
C894 C903 1.390 . S
C895 C894 1.387 . S
C895 C897 1.387 . S
H896 C903 0.950 . S
C897 C895 1.387 . S
C897 C899 1.390 . S
C897 H901 0.950 . S
H898 C894 0.950 . S
C899 C897 1.390 . S
C899 C900 1.387 . S
C899 H902 0.950 . S
C900 C899 1.387 . S
C900 C903 1.387 . S
H901 C897 0.950 . S
H902 C899 0.950 . S
C903 C894 1.390 . S
C903 H896 0.950 . S
C903 C900 1.387 . S
C904 C905 1.387 . S
C904 H908 0.950 . S
C904 C913 1.390 . S
C905 C904 1.387 . S
C905 C907 1.387 . S
H906 C913 0.950 . S
C907 C905 1.387 . S
C907 C909 1.390 . S
C907 H911 0.950 . S
H908 C904 0.950 . S
C909 C907 1.390 . S
C909 C910 1.387 . S
C909 H912 0.950 . S
C910 C909 1.387 . S
C910 C913 1.387 . S
H911 C907 0.950 . S
H912 C909 0.950 . S
C913 C904 1.390 . S
C913 H906 0.950 . S
C913 C910 1.387 . S
C914 C915 1.387 . S
C914 H918 0.950 . S
C914 C923 1.390 . S
C915 C914 1.387 . S
C915 C917 1.387 . S
H916 C923 0.950 . S
C917 C915 1.387 . S
C917 C919 1.390 . S
C917 H921 0.950 . S
H918 C914 0.950 . S
C919 C917 1.390 . S
C919 C920 1.387 . S
C919 H922 0.950 . S
C920 C919 1.387 . S
C920 C923 1.387 . S
H921 C917 0.950 . S
H922 C919 0.950 . S
C923 C914 1.390 . S
C923 H916 0.950 . S
C923 C920 1.387 . S
C924 C925 1.387 . S
C924 H928 0.950 . S
C924 C933 1.390 . S
C925 C924 1.387 . S
C925 C927 1.387 . S
H926 C933 0.950 . S
C927 C925 1.387 . S
C927 C929 1.390 . S
C927 H931 0.950 . S
H928 C924 0.950 . S
C929 C927 1.390 . S
C929 C930 1.387 . S
C929 H932 0.950 . S
C930 C929 1.387 . S
C930 C933 1.387 . S
H931 C927 0.950 . S
H932 C929 0.950 . S
C933 C924 1.390 . S
C933 H926 0.950 . S
C933 C930 1.387 . S
C934 C935 1.387 . S
C934 H938 0.950 . S
C934 C943 1.390 . S
C935 C934 1.387 . S
C935 C937 1.387 . S
H936 C943 0.950 . S
C937 C935 1.387 . S
C937 C939 1.390 . S
C937 H941 0.950 . S
H938 C934 0.950 . S
C939 C937 1.390 . S
C939 C940 1.387 . S
C939 H942 0.950 . S
C940 C939 1.387 . S
C940 C943 1.387 . S
H941 C937 0.950 . S
H942 C939 0.950 . S
C943 C934 1.390 . S
C943 H936 0.950 . S
C943 C940 1.387 . S
C944 C945 1.387 . S
C944 H948 0.950 . S
C944 C953 1.390 . S
C945 C944 1.387 . S
C945 C947 1.387 . S
H946 C953 0.950 . S
C947 C945 1.387 . S
C947 C949 1.390 . S
C947 H951 0.950 . S
H948 C944 0.950 . S
C949 C947 1.390 . S
C949 C950 1.387 . S
C949 H952 0.950 . S
C950 C949 1.387 . S
C950 C953 1.387 . S
H951 C947 0.950 . S
H952 C949 0.950 . S
C953 C944 1.390 . S
C953 H946 0.950 . S
C953 C950 1.387 . S
C954 C955 1.387 . S
C954 H958 0.950 . S
C954 C963 1.390 . S
C955 C954 1.387 . S
C955 C957 1.387 . S
H956 C963 0.950 . S
C957 C955 1.387 . S
C957 C959 1.390 . S
C957 H961 0.950 . S
H958 C954 0.950 . S
C959 C957 1.390 . S
C959 C960 1.387 . S
C959 H962 0.950 . S
C960 C959 1.387 . S
C960 C963 1.387 . S
H961 C957 0.950 . S
H962 C959 0.950 . S
C963 C954 1.390 . S
C963 H956 0.950 . S
C963 C960 1.387 . S
C964 C965 1.387 . S
C964 H968 0.950 . S
C964 C973 1.390 . S
C965 C964 1.387 . S
C965 C967 1.387 . S
H966 C973 0.950 . S
C967 C965 1.387 . S
C967 C969 1.390 . S
C967 H971 0.950 1_565 S
H968 C964 0.950 . S
C969 C967 1.390 . S
C969 C970 1.387 . S
C969 H972 0.950 1_565 S
C970 C969 1.387 . S
C970 C973 1.387 . S
H971 C967 0.950 1_545 S
H972 C969 0.950 1_545 S
C973 C964 1.390 . S
C973 H966 0.950 . S
C973 C970 1.387 . S
C974 C975 1.387 . S
C974 H978 0.950 . S
C974 C983 1.390 . S
C975 C974 1.387 . S
C975 C977 1.387 . S
H976 C983 0.950 . S
C977 C975 1.387 . S
C977 C979 1.390 . S
C977 H981 0.950 . S
H978 C974 0.950 . S
C979 C977 1.390 . S
C979 C980 1.387 . S
C979 H982 0.950 . S
C980 C979 1.387 . S
C980 C983 1.387 . S
H981 C977 0.950 . S
H982 C979 0.950 . S
C983 C974 1.390 . S
C983 H976 0.950 . S
C983 C980 1.387 . S
C984 C985 1.387 . S
C984 H988 0.950 . S
C984 C993 1.390 . S
C985 C984 1.387 . S
C985 C987 1.387 . S
H986 C993 0.950 . S
C987 C985 1.387 . S
C987 C989 1.390 . S
C987 H991 0.950 . S
H988 C984 0.950 . S
C989 C987 1.390 . S
C989 C990 1.387 . S
C989 H992 0.950 . S
C990 C989 1.387 . S
C990 C993 1.387 . S
H991 C987 0.950 . S
H992 C989 0.950 . S
C993 C984 1.390 . S
C993 H986 0.950 . S
C993 C990 1.387 . S
C994 C995 1.387 . S
C994 H998 0.950 . S
C994 C1003 1.390 . S
C995 C994 1.387 . S
C995 C997 1.387 . S
H996 C1003 0.950 . S
C997 C995 1.387 . S
C997 C999 1.390 . S
C997 H1001 0.950 . S
H998 C994 0.950 . S
C999 C997 1.390 . S
C999 C1000 1.387 . S
C999 H1002 0.950 1_556 S
C1000 C999 1.387 . S
C1000 C1003 1.387 . S
H1001 C997 0.950 . S
H1002 C999 0.950 1_554 S
C1003 C994 1.390 . S
C1003 H996 0.950 . S
C1003 C1000 1.387 . S
C1004 C1005 1.387 . S
C1004 H1008 0.950 . S
C1004 C1013 1.390 . S
C1005 C1004 1.387 . S
C1005 C1007 1.387 . S
H1006 C1013 0.950 . S
C1007 C1005 1.387 . S
C1007 C1009 1.390 . S
C1007 H1011 0.950 . S
H1008 C1004 0.950 . S
C1009 C1007 1.390 . S
C1009 C1010 1.387 . S
C1009 H1012 0.950 . S
C1010 C1009 1.387 . S
C1010 C1013 1.387 . S
H1011 C1007 0.950 . S
H1012 C1009 0.950 . S
C1013 C1004 1.390 . S
C1013 H1006 0.950 . S
C1013 C1010 1.387 . S
C1014 C1015 1.387 . S
C1014 H1018 0.950 . S
C1014 C1023 1.390 . S
C1015 C1014 1.387 . S
C1015 C1017 1.387 . S
H1016 C1023 0.950 . S
C1017 C1015 1.387 . S
C1017 C1019 1.390 . S
C1017 H1021 0.950 . S
H1018 C1014 0.950 . S
C1019 C1017 1.390 . S
C1019 C1020 1.387 . S
C1019 H1022 0.950 . S
C1020 C1019 1.387 . S
C1020 C1023 1.387 . S
H1021 C1017 0.950 . S
H1022 C1019 0.950 . S
C1023 C1014 1.390 . S
C1023 H1016 0.950 . S
C1023 C1020 1.387 . S
C1024 C1025 1.387 . S
C1024 H1028 0.950 . S
C1024 C1033 1.390 . S
C1025 C1024 1.387 . S
C1025 C1027 1.387 . S
H1026 C1033 0.950 . S
C1027 C1025 1.387 . S
C1027 C1029 1.390 . S
C1027 H1031 0.950 . S
H1028 C1024 0.950 . S
C1029 C1027 1.390 . S
C1029 C1030 1.387 . S
C1029 H1032 0.950 . S
C1030 C1029 1.387 . S
C1030 C1033 1.387 . S
H1031 C1027 0.950 . S
H1032 C1029 0.950 . S
C1033 C1024 1.390 . S
C1033 H1026 0.950 . S
C1033 C1030 1.387 . S
C1034 C1035 1.387 . S
C1034 H1038 0.950 . S
C1034 C1043 1.390 . S
C1035 C1034 1.387 . S
C1035 C1037 1.387 . S
H1036 C1043 0.950 . S
C1037 C1035 1.387 . S
C1037 C1039 1.390 . S
C1037 H1041 0.950 . S
H1038 C1034 0.950 . S
C1039 C1037 1.390 . S
C1039 C1040 1.387 . S
C1039 H1042 0.950 . S
C1040 C1039 1.387 . S
C1040 C1043 1.387 . S
H1041 C1037 0.950 . S
H1042 C1039 0.950 . S
C1043 C1034 1.390 . S
C1043 H1036 0.950 . S
C1043 C1040 1.387 . S
C1044 C1045 1.387 . S
C1044 H1048 0.950 . S
C1044 C1053 1.390 . S
C1045 C1044 1.387 . S
C1045 C1047 1.387 . S
H1046 C1053 0.950 . S
C1047 C1045 1.387 . S
C1047 C1049 1.390 . S
C1047 H1051 0.950 . S
H1048 C1044 0.950 . S
C1049 C1047 1.390 . S
C1049 C1050 1.387 . S
C1049 H1052 0.950 . S
C1050 C1049 1.387 . S
C1050 C1053 1.387 . S
H1051 C1047 0.950 . S
H1052 C1049 0.950 . S
C1053 C1044 1.390 . S
C1053 H1046 0.950 . S
C1053 C1050 1.387 . S
C1054 C1055 1.387 . S
C1054 H1058 0.950 . S
C1054 C1063 1.390 . S
C1055 C1054 1.387 . S
C1055 C1057 1.387 . S
H1056 C1063 0.950 . S
C1057 C1055 1.387 . S
C1057 C1059 1.390 . S
C1057 H1061 0.950 . S
H1058 C1054 0.950 . S
C1059 C1057 1.390 . S
C1059 C1060 1.387 . S
C1059 H1062 0.950 . S
C1060 C1059 1.387 . S
C1060 C1063 1.387 . S
H1061 C1057 0.950 . S
H1062 C1059 0.950 . S
C1063 C1054 1.390 . S
C1063 H1056 0.950 . S
C1063 C1060 1.387 . S
C1064 C1065 1.387 . S
C1064 H1068 0.950 . S
C1064 C1073 1.390 . S
C1065 C1064 1.387 . S
C1065 C1067 1.387 . S
H1066 C1073 0.950 . S
C1067 C1065 1.387 . S
C1067 C1069 1.390 . S
C1067 H1071 0.950 . S
H1068 C1064 0.950 . S
C1069 C1067 1.390 . S
C1069 C1070 1.387 . S
C1069 H1072 0.950 1_565 S
C1070 C1069 1.387 . S
C1070 C1073 1.387 . S
H1071 C1067 0.950 . S
H1072 C1069 0.950 1_545 S
C1073 C1064 1.390 . S
C1073 H1066 0.950 . S
C1073 C1070 1.387 . S
C1074 C1075 1.387 . S
C1074 H1078 0.950 . S
C1074 C1083 1.390 . S
C1075 C1074 1.387 . S
C1075 C1077 1.387 . S
H1076 C1083 0.950 . S
C1077 C1075 1.387 . S
C1077 C1079 1.390 . S
C1077 H1081 0.950 . S
H1078 C1074 0.950 . S
C1079 C1077 1.390 . S
C1079 C1080 1.387 . S
C1079 H1082 0.950 . S
C1080 C1079 1.387 . S
C1080 C1083 1.387 . S
H1081 C1077 0.950 . S
H1082 C1079 0.950 . S
C1083 C1074 1.390 . S
C1083 H1076 0.950 . S
C1083 C1080 1.387 . S
C1084 C1085 1.387 . S
C1084 H1088 0.950 . S
C1084 C1093 1.390 . S
C1085 C1084 1.387 . S
C1085 C1087 1.387 . S
H1086 C1093 0.950 . S
C1087 C1085 1.387 . S
C1087 C1089 1.390 . S
C1087 H1091 0.950 . S
H1088 C1084 0.950 . S
C1089 C1087 1.390 . S
C1089 C1090 1.387 . S
C1089 H1092 0.950 . S
C1090 C1089 1.387 . S
C1090 C1093 1.387 . S
H1091 C1087 0.950 . S
H1092 C1089 0.950 . S
C1093 C1084 1.390 . S
C1093 H1086 0.950 . S
C1093 C1090 1.387 . S
C1094 C1095 1.387 . S
C1094 H1098 0.950 . S
C1094 C1103 1.390 . S
C1095 C1094 1.387 . S
C1095 C1097 1.387 . S
H1096 C1103 0.950 . S
C1097 C1095 1.387 . S
C1097 C1099 1.390 . S
C1097 H1101 0.950 . S
H1098 C1094 0.950 . S
C1099 C1097 1.390 . S
C1099 C1100 1.387 . S
C1099 H1102 0.950 . S
C1100 C1099 1.387 . S
C1100 C1103 1.387 . S
H1101 C1097 0.950 . S
H1102 C1099 0.950 . S
C1103 C1094 1.390 . S
C1103 H1096 0.950 . S
C1103 C1100 1.387 . S
C1104 C1105 1.387 . S
C1104 H1108 0.950 . S
C1104 C1113 1.390 . S
C1105 C1104 1.387 . S
C1105 C1107 1.387 . S
H1106 C1113 0.950 . S
C1107 C1105 1.387 . S
C1107 C1109 1.390 . S
C1107 H1111 0.950 . S
H1108 C1104 0.950 . S
C1109 C1107 1.390 . S
C1109 C1110 1.387 . S
C1109 H1112 0.950 . S
C1110 C1109 1.387 . S
C1110 C1113 1.387 . S
H1111 C1107 0.950 . S
H1112 C1109 0.950 . S
C1113 C1104 1.390 . S
C1113 H1106 0.950 . S
C1113 C1110 1.387 . S
C1114 C1115 1.387 . S
C1114 H1118 0.950 . S
C1114 C1123 1.390 . S
C1115 C1114 1.387 . S
C1115 C1117 1.387 . S
H1116 C1123 0.950 . S
C1117 C1115 1.387 . S
C1117 C1119 1.390 . S
C1117 H1121 0.950 1_556 S
H1118 C1114 0.950 . S
C1119 C1117 1.390 . S
C1119 C1120 1.387 . S
C1119 H1122 0.950 . S
C1120 C1119 1.387 . S
C1120 C1123 1.387 . S
H1121 C1117 0.950 1_554 S
H1122 C1119 0.950 . S
C1123 C1114 1.390 . S
C1123 H1116 0.950 . S
C1123 C1120 1.387 . S
C1124 C1125 1.387 . S
C1124 H1128 0.950 . S
C1124 C1133 1.390 . S
C1125 C1124 1.387 . S
C1125 C1127 1.387 . S
H1126 C1133 0.950 . S
C1127 C1125 1.387 . S
C1127 C1129 1.390 . S
C1127 H1131 0.950 . S
H1128 C1124 0.950 . S
C1129 C1127 1.390 . S
C1129 C1130 1.387 . S
C1129 H1132 0.950 . S
C1130 C1129 1.387 . S
C1130 C1133 1.387 . S
H1131 C1127 0.950 . S
H1132 C1129 0.950 . S
C1133 C1124 1.390 . S
C1133 H1126 0.950 . S
C1133 C1130 1.387 . S
C1134 C1135 1.387 . S
C1134 H1138 0.950 . S
C1134 C1143 1.390 . S
C1135 C1134 1.387 . S
C1135 C1137 1.387 . S
H1136 C1143 0.950 . S
C1137 C1135 1.387 . S
C1137 C1139 1.390 . S
C1137 H1141 0.950 . S
H1138 C1134 0.950 . S
C1139 C1137 1.390 . S
C1139 C1140 1.387 . S
C1139 H1142 0.950 . S
C1140 C1139 1.387 . S
C1140 C1143 1.387 . S
H1141 C1137 0.950 . S
H1142 C1139 0.950 . S
C1143 C1134 1.390 . S
C1143 H1136 0.950 . S
C1143 C1140 1.387 . S
C1144 C1145 1.387 . S
C1144 H1148 0.950 . S
C1144 C1153 1.390 . S
C1145 C1144 1.387 . S
C1145 C1147 1.387 . S
H1146 C1153 0.950 . S
C1147 C1145 1.387 . S
C1147 C1149 1.390 . S
C1147 H1151 0.950 . S
H1148 C1144 0.950 . S
C1149 C1147 1.390 . S
C1149 C1150 1.387 . S
C1149 H1152 0.950 . S
C1150 C1149 1.387 . S
C1150 C1153 1.387 . S
H1151 C1147 0.950 . S
H1152 C1149 0.950 . S
C1153 C1144 1.390 . S
C1153 H1146 0.950 . S
C1153 C1150 1.387 . S
C1154 C1155 1.387 . S
C1154 H1158 0.950 . S
C1154 C1163 1.390 . S
C1155 C1154 1.387 . S
C1155 C1157 1.387 . S
H1156 C1163 0.950 . S
C1157 C1155 1.387 . S
C1157 C1159 1.390 . S
C1157 H1161 0.950 . S
H1158 C1154 0.950 . S
C1159 C1157 1.390 . S
C1159 C1160 1.387 . S
C1159 H1162 0.950 . S
C1160 C1159 1.387 . S
C1160 C1163 1.387 . S
H1161 C1157 0.950 . S
H1162 C1159 0.950 . S
C1163 C1154 1.390 . S
C1163 H1156 0.950 . S
C1163 C1160 1.387 . S
C1164 C1165 1.387 . S
C1164 H1168 0.950 . S
C1164 C1173 1.390 . S
C1165 C1164 1.387 . S
C1165 C1167 1.387 . S
H1166 C1173 0.950 . S
C1167 C1165 1.387 . S
C1167 C1169 1.390 . S
C1167 H1171 0.950 . S
H1168 C1164 0.950 . S
C1169 C1167 1.390 . S
C1169 C1170 1.387 . S
C1169 H1172 0.950 . S
C1170 C1169 1.387 . S
C1170 C1173 1.387 . S
H1171 C1167 0.950 . S
H1172 C1169 0.950 . S
C1173 C1164 1.390 . S
C1173 H1166 0.950 . S
C1173 C1170 1.387 . S
C1174 C1175 1.387 . S
C1174 H1178 0.950 . S
C1174 C1183 1.390 . S
C1175 C1174 1.387 . S
C1175 C1177 1.387 . S
H1176 C1183 0.950 . S
C1177 C1175 1.387 . S
C1177 C1179 1.390 . S
C1177 H1181 0.950 . S
H1178 C1174 0.950 . S
C1179 C1177 1.390 . S
C1179 C1180 1.387 . S
C1179 H1182 0.950 . S
C1180 C1179 1.387 . S
C1180 C1183 1.387 . S
H1181 C1177 0.950 . S
H1182 C1179 0.950 . S
C1183 C1174 1.390 . S
C1183 H1176 0.950 . S
C1183 C1180 1.387 . S
C1184 C1185 1.387 . S
C1184 H1188 0.950 . S
C1184 C1193 1.390 . S
C1185 C1184 1.387 . S
C1185 C1187 1.387 . S
H1186 C1193 0.950 . S
C1187 C1185 1.387 . S
C1187 C1189 1.390 . S
C1187 H1191 0.950 . S
H1188 C1184 0.950 . S
C1189 C1187 1.390 . S
C1189 C1190 1.387 . S
C1189 H1192 0.950 . S
C1190 C1189 1.387 . S
C1190 C1193 1.387 . S
H1191 C1187 0.950 . S
H1192 C1189 0.950 . S
C1193 C1184 1.390 . S
C1193 H1186 0.950 . S
C1193 C1190 1.387 . S
C1194 C1195 1.387 . S
C1194 H1198 0.950 . S
C1194 C1203 1.390 . S
C1195 C1194 1.387 . S
C1195 C1197 1.387 . S
H1196 C1203 0.950 . S
C1197 C1195 1.387 . S
C1197 C1199 1.390 . S
C1197 H1201 0.950 . S
H1198 C1194 0.950 . S
C1199 C1197 1.390 . S
C1199 C1200 1.387 . S
C1199 H1202 0.950 . S
C1200 C1199 1.387 . S
C1200 C1203 1.387 . S
H1201 C1197 0.950 . S
H1202 C1199 0.950 . S
C1203 C1194 1.390 . S
C1203 H1196 0.950 . S
C1203 C1200 1.387 . S
C1204 C1205 1.387 . S
C1204 H1208 0.950 . S
C1204 C1213 1.390 . S
C1205 C1204 1.387 . S
C1205 C1207 1.387 . S
H1206 C1213 0.950 . S
C1207 C1205 1.387 . S
C1207 C1209 1.390 . S
C1207 H1211 0.950 . S
H1208 C1204 0.950 . S
C1209 C1207 1.390 . S
C1209 C1210 1.387 . S
C1209 H1212 0.950 . S
C1210 C1209 1.387 . S
C1210 C1213 1.387 . S
H1211 C1207 0.950 . S
H1212 C1209 0.950 . S
C1213 C1204 1.390 . S
C1213 H1206 0.950 . S
C1213 C1210 1.387 . S
C1214 C1215 1.387 . S
C1214 H1218 0.950 . S
C1214 C1223 1.390 . S
C1215 C1214 1.387 . S
C1215 C1217 1.387 . S
H1216 C1223 0.950 . S
C1217 C1215 1.387 . S
C1217 C1219 1.390 . S
C1217 H1221 0.950 . S
H1218 C1214 0.950 . S
C1219 C1217 1.390 . S
C1219 C1220 1.387 . S
C1219 H1222 0.950 . S
C1220 C1219 1.387 . S
C1220 C1223 1.387 . S
H1221 C1217 0.950 . S
H1222 C1219 0.950 . S
C1223 C1214 1.390 . S
C1223 H1216 0.950 . S
C1223 C1220 1.387 . S
C1224 C1225 1.387 . S
C1224 H1228 0.950 . S
C1224 C1233 1.390 . S
C1225 C1224 1.387 . S
C1225 C1227 1.387 . S
H1226 C1233 0.950 . S
C1227 C1225 1.387 . S
C1227 C1229 1.390 . S
C1227 H1231 0.950 . S
H1228 C1224 0.950 . S
C1229 C1227 1.390 . S
C1229 C1230 1.387 . S
C1229 H1232 0.950 . S
C1230 C1229 1.387 . S
C1230 C1233 1.387 . S
H1231 C1227 0.950 . S
H1232 C1229 0.950 . S
C1233 C1224 1.390 . S
C1233 H1226 0.950 . S
C1233 C1230 1.387 . S
C1234 C1235 1.387 . S
C1234 H1238 0.950 . S
C1234 C1243 1.390 . S
C1235 C1234 1.387 . S
C1235 C1237 1.387 . S
H1236 C1243 0.950 . S
C1237 C1235 1.387 . S
C1237 C1239 1.390 . S
C1237 H1241 0.950 . S
H1238 C1234 0.950 . S
C1239 C1237 1.390 . S
C1239 C1240 1.387 . S
C1239 H1242 0.950 . S
C1240 C1239 1.387 . S
C1240 C1243 1.387 . S
H1241 C1237 0.950 . S
H1242 C1239 0.950 . S
C1243 C1234 1.390 . S
C1243 H1236 0.950 . S
C1243 C1240 1.387 . S
C1244 C1245 1.387 . S
C1244 H1248 0.950 . S
C1244 C1253 1.390 . S
C1245 C1244 1.387 . S
C1245 C1247 1.387 . S
H1246 C1253 0.950 . S
C1247 C1245 1.387 . S
C1247 C1249 1.390 . S
C1247 H1251 0.950 . S
H1248 C1244 0.950 . S
C1249 C1247 1.390 . S
C1249 C1250 1.387 . S
C1249 H1252 0.950 . S
C1250 C1249 1.387 . S
C1250 C1253 1.387 . S
H1251 C1247 0.950 . S
H1252 C1249 0.950 . S
C1253 C1244 1.390 . S
C1253 H1246 0.950 . S
C1253 C1250 1.387 . S
C1254 C1255 1.387 . S
C1254 H1258 0.950 . S
C1254 C1263 1.390 . S
C1255 C1254 1.387 . S
C1255 C1257 1.387 . S
H1256 C1263 0.950 . S
C1257 C1255 1.387 . S
C1257 C1259 1.390 . S
C1257 H1261 0.950 . S
H1258 C1254 0.950 . S
C1259 C1257 1.390 . S
C1259 C1260 1.387 . S
C1259 H1262 0.950 . S
C1260 C1259 1.387 . S
C1260 C1263 1.387 . S
H1261 C1257 0.950 . S
H1262 C1259 0.950 . S
C1263 C1254 1.390 . S
C1263 H1256 0.950 . S
C1263 C1260 1.387 . S
C1264 C1265 1.387 . S
C1264 H1268 0.950 . S
C1264 C1273 1.390 . S
C1265 C1264 1.387 . S
C1265 C1267 1.387 . S
H1266 C1273 0.950 . S
C1267 C1265 1.387 . S
C1267 C1269 1.390 . S
C1267 H1271 0.950 . S
H1268 C1264 0.950 . S
C1269 C1267 1.390 . S
C1269 C1270 1.387 . S
C1269 H1272 0.950 . S
C1270 C1269 1.387 . S
C1270 C1273 1.387 . S
H1271 C1267 0.950 . S
H1272 C1269 0.950 . S
C1273 C1264 1.390 . S
C1273 H1266 0.950 . S
C1273 C1270 1.387 . S
C1274 C1275 1.387 . S
C1274 H1278 0.950 . S
C1274 C1283 1.390 . S
C1275 C1274 1.387 . S
C1275 C1277 1.387 . S
H1276 C1283 0.950 . S
C1277 C1275 1.387 . S
C1277 C1279 1.390 . S
C1277 H1281 0.950 . S
H1278 C1274 0.950 . S
C1279 C1277 1.390 . S
C1279 C1280 1.387 . S
C1279 H1282 0.950 . S
C1280 C1279 1.387 . S
C1280 C1283 1.387 . S
H1281 C1277 0.950 . S
H1282 C1279 0.950 . S
C1283 C1274 1.390 . S
C1283 H1276 0.950 . S
C1283 C1280 1.387 . S
C1284 C1285 1.387 . S
C1284 H1288 0.950 . S
C1284 C1293 1.390 . S
C1285 C1284 1.387 . S
C1285 C1287 1.387 . S
H1286 C1293 0.950 . S
C1287 C1285 1.387 . S
C1287 C1289 1.390 . S
C1287 H1291 0.950 . S
H1288 C1284 0.950 . S
C1289 C1287 1.390 . S
C1289 C1290 1.387 . S
C1289 H1292 0.950 . S
C1290 C1289 1.387 . S
C1290 C1293 1.387 . S
H1291 C1287 0.950 . S
H1292 C1289 0.950 . S
C1293 C1284 1.390 . S
C1293 H1286 0.950 . S
C1293 C1290 1.387 . S
C1294 C1295 1.387 . S
C1294 H1298 0.950 . S
C1294 C1303 1.390 . S
C1295 C1294 1.387 . S
C1295 C1297 1.387 . S
H1296 C1303 0.950 . S
C1297 C1295 1.387 . S
C1297 C1299 1.390 . S
C1297 H1301 0.950 . S
H1298 C1294 0.950 . S
C1299 C1297 1.390 . S
C1299 C1300 1.387 . S
C1299 H1302 0.950 . S
C1300 C1299 1.387 . S
C1300 C1303 1.387 . S
H1301 C1297 0.950 . S
H1302 C1299 0.950 . S
C1303 C1294 1.390 . S
C1303 H1296 0.950 . S
C1303 C1300 1.387 . S
C1304 C1305 1.387 . S
C1304 H1308 0.950 . S
C1304 C1313 1.390 . S
C1305 C1304 1.387 . S
C1305 C1307 1.387 . S
H1306 C1313 0.950 . S
C1307 C1305 1.387 . S
C1307 C1309 1.390 . S
C1307 H1311 0.950 . S
H1308 C1304 0.950 . S
C1309 C1307 1.390 . S
C1309 C1310 1.387 . S
C1309 H1312 0.950 . S
C1310 C1309 1.387 . S
C1310 C1313 1.387 . S
H1311 C1307 0.950 . S
H1312 C1309 0.950 . S
C1313 C1304 1.390 . S
C1313 H1306 0.950 . S
C1313 C1310 1.387 . S
C1314 C1315 1.387 . S
C1314 H1318 0.950 . S
C1314 C1323 1.390 . S
C1315 C1314 1.387 . S
C1315 C1317 1.387 . S
H1316 C1323 0.950 . S
C1317 C1315 1.387 . S
C1317 C1319 1.390 . S
C1317 H1321 0.950 . S
H1318 C1314 0.950 . S
C1319 C1317 1.390 . S
C1319 C1320 1.387 . S
C1319 H1322 0.950 . S
C1320 C1319 1.387 . S
C1320 C1323 1.387 . S
H1321 C1317 0.950 . S
H1322 C1319 0.950 . S
C1323 C1314 1.390 . S
C1323 H1316 0.950 . S
C1323 C1320 1.387 . S
C1324 C1325 1.387 . S
C1324 H1328 0.950 . S
C1324 C1333 1.390 . S
C1325 C1324 1.387 . S
C1325 C1327 1.387 . S
H1326 C1333 0.950 . S
C1327 C1325 1.387 . S
C1327 C1329 1.390 . S
C1327 H1331 0.950 . S
H1328 C1324 0.950 . S
C1329 C1327 1.390 . S
C1329 C1330 1.387 . S
C1329 H1332 0.950 . S
C1330 C1329 1.387 . S
C1330 C1333 1.387 . S
H1331 C1327 0.950 . S
H1332 C1329 0.950 . S
C1333 C1324 1.390 . S
C1333 H1326 0.950 . S
C1333 C1330 1.387 . S
C1334 C1335 1.387 . S
C1334 H1338 0.950 . S
C1334 C1343 1.390 . S
C1335 C1334 1.387 . S
C1335 C1337 1.387 . S
H1336 C1343 0.950 . S
C1337 C1335 1.387 . S
C1337 C1339 1.390 . S
C1337 H1341 0.950 . S
H1338 C1334 0.950 . S
C1339 C1337 1.390 . S
C1339 C1340 1.387 . S
C1339 H1342 0.950 . S
C1340 C1339 1.387 . S
C1340 C1343 1.387 . S
H1341 C1337 0.950 . S
H1342 C1339 0.950 . S
C1343 C1334 1.390 . S
C1343 H1336 0.950 . S
C1343 C1340 1.387 . S
C870 C689 1.672 . S
C865 C75 1.509 . S
C880 C694 0.646 . S
C875 C156 0.698 . S
C890 C695 1.714 . S
C885 C243 1.529 . S
C895 C315 0.763 . S
C900 C699 0.769 . S
C905 C399 0.956 . S
C910 C702 0.798 . S
C920 C703 1.679 . S
C915 C495 1.515 . S
C925 C576 1.069 . S
C930 C680 1.131 . S
C935 C654 1.508 . S
C940 C696 1.659 . S
C950 C734 0.874 . S
C945 C72 0.875 . S
C955 C140 1.371 . S
C960 C760 1.390 . S
C970 C712 0.910 . S
C965 C240 0.929 . S
C980 C767 1.159 . S
C975 C318 1.134 . S
C985 C402 1.132 . S
C990 C721 1.144 . S
C1000 C763 1.461 1_556 S
C995 C492 1.445 . S
C1005 C560 1.360 . S
C1010 C727 1.440 . S
C1015 C655 2.629 . S
C1020 C758 2.751 . S
C1025 C56 2.924 . S
C1030 C766 2.999 . S
C1035 C403 1.869 . S
C1040 C753 1.879 . S
C1050 C731 2.202 . S
C1045 C476 2.112 . S
C1060 C759 1.888 . S
C1055 C579 1.857 . S
C1065 C651 1.192 . S
C1070 C726 1.134 . S
C1075 C224 2.951 . S
C1080 C744 3.068 . S
C1090 C735 1.861 . S
C1085 C319 1.804 . S
C1095 C159 1.912 . S
C1100 C728 1.955 . S
C1105 C663 1.482 . S
C1110 C790 1.512 . S
C1115 C408 0.965 . S
C1120 C785 0.528 . S
C1130 C799 1.507 . S
C1125 C486 1.489 . S
C1140 C776 1.106 . S
C1135 C567 1.049 . S
C1145 C147 0.705 . S
C1150 C792 0.589 . S
C1160 C791 1.569 . S
C1155 C234 1.504 . S
C1165 C324 0.744 . S
C1170 C795 0.747 . S
C1175 C66 1.486 . S
C1180 C798 1.575 . S
C1185 C660 1.202 . S
C1190 C824 1.249 . S
C1200 C840 1.840 . S
C1195 C392 1.874 . S
C1205 C487 2.120 . S
C1210 C822 2.294 . S
C1215 C570 1.853 . S
C1220 C855 1.809 . S
C1230 C831 1.905 . S
C1225 C150 1.897 . S
C1235 C235 2.980 . S
C1240 C849 3.081 . S
C1250 C827 1.740 . S
C1245 C308 1.777 . S
C1260 C862 3.080 . S
C1255 C67 2.954 . S
C1270 C854 2.737 . S
C1265 C644 2.657 . S
C1275 C151 1.380 . S
C1280 C859 1.414 . S
C1285 C231 0.934 . S
C1290 C830 0.961 . S
C1300 C863 1.168 . S
C1295 C327 1.135 . S
C1305 C63 0.883 . S
C1310 C817 0.898 . S
C1315 C483 1.462 . S
C1320 C856 1.471 . S
C1330 C808 1.479 . S
C1325 C571 1.345 . S
C1340 C823 1.092 . S
C1335 C411 1.109 . S
