# Generated by pormake.
# Topology pts, (4,4)-cn, num edge types: 1
# Building blocks:
#     Node 0, Type 0, BuildingBlock: MUDLON_clean_sbu_0, # of connection points: 4
#     Node 1, Type 0, BuildingBlock: MUDLON_clean_sbu_0, # of connection points: 4
#     Node 2, Type 1, BuildingBlock: UXUYUI_clean_sbu_0, # of connection points: 4
#     Node 3, Type 1, BuildingBlock: UXUYUI_clean_sbu_0, # of connection points: 4
#     Edge 4, Type (0, 1), BuildingBlock: XUDNAN_clean_linker_2, # of connection points: 2
#     Edge 5, Type (0, 1), BuildingBlock: XUDNAN_clean_linker_2, # of connection points: 2
#     Edge 6, Type (0, 1), BuildingBlock: XUDNAN_clean_linker_2, # of connection points: 2
#     Edge 7, Type (0, 1), BuildingBlock: XUDNAN_clean_linker_2, # of connection points: 2
#     Edge 8, Type (0, 1), BuildingBlock: XUDNAN_clean_linker_2, # of connection points: 2
#     Edge 9, Type (0, 1), BuildingBlock: XUDNAN_clean_linker_2, # of connection points: 2
#     Edge 10, Type (0, 1), BuildingBlock: XUDNAN_clean_linker_2, # of connection points: 2
#     Edge 11, Type (0, 1), BuildingBlock: XUDNAN_clean_linker_2, # of connection points: 2
# Relax obj value: 0.040
# Max RMSD: 0.092
# Mean RMSD: 0.080
data_MOF--net-pts--node1-MUDLON_clean_sbu_0--node2-UXUYUI_clean_sbu_0--edge1-XUDNAN_clean_linker_2
_symmetry_space_group_name_H-M    P1
_symmetry_Int_Tables_number       1
_symmetry_cell_setting            triclinic
loop_
_symmetry_equiv_pos_as_xyz
'x, y, z'
_cell_length_a     28.473623
_cell_length_b     28.502491
_cell_length_c     47.807012
_cell_angle_alpha  89.885387
_cell_angle_beta   90.196329
_cell_angle_gamma 90.033231
loop_
_atom_site_label
_atom_site_type_symbol
_atom_site_fract_x
_atom_site_fract_y
_atom_site_fract_z
_atom_type_partial_charge
Mg0 Mg 0.51031 0.01046 0.05623 0.0
C1 C 0.43068 1.00019 0.01989 0.0
O2 O 0.44224 0.04484 0.02051 0.0
C3 C 0.58824 0.94456 0.07959 0.0
O4 O 0.59052 0.92788 0.05404 0.0
C5 C 0.45229 0.03432 0.10303 0.0
O6 O 0.46535 0.99042 0.10625 0.0
O7 O 0.46863 0.05719 0.08231 0.0
O8 O 0.45481 0.97162 0.0346 0.0
O9 O 0.55488 0.03904 0.02304 0.0
C10 C 0.55821 0.01093 1.00246 0.0
O11 O 0.5353 0.97098 1.00348 0.0
O12 O 0.55731 0.97507 0.08549 0.0
Mg13 Mg 0.01491 0.50708 0.55216 0.0
C14 C 1.00395 0.58415 0.59049 0.0
O15 O 0.0486 0.58252 0.58367 0.0
C16 C 1.00114 0.44234 0.50598 0.0
O17 O 0.04565 0.45454 0.5053 0.0
C18 C 0.02319 0.58332 0.51239 0.0
O19 O 0.97851 0.58044 0.51901 0.0
O20 O 0.0517 0.55464 0.52382 0.0
O21 O 0.97626 0.55402 0.57972 0.0
O22 O 0.05696 0.46423 0.58096 0.0
C23 C 0.05248 0.41975 0.58099 0.0
O24 O 0.02685 0.39995 0.56143 0.0
O25 O 0.9751 0.46047 0.52467 0.0
Li26 Li 0.99517 0.04782 0.31906 0.0
Li27 Li 0.01855 0.96721 0.31577 0.0
Li28 Li 0.04976 0.02243 0.28215 0.0
Li29 Li 0.96482 0.99612 0.28014 0.0
C30 C 0.09106 0.05513 0.33193 0.0
N31 N 0.15274 0.12393 0.3496 0.0
C32 C 0.12008 0.04726 0.35511 0.0
C33 C 0.09351 0.09791 0.31772 0.0
C34 C 0.15099 0.0825 0.36373 0.0
C35 C 0.1249 0.13226 0.32696 0.0
C36 C 0.93773 0.98604 0.34796 0.0
C37 C 0.87447 0.97421 0.38063 0.0
N38 N 0.9058 0.97598 0.40215 0.0
C39 C 0.96931 0.98768 0.37039 0.0
C40 C 0.88994 0.97918 0.35308 0.0
C41 C 0.95248 0.98254 0.39763 0.0
C42 C 0.94649 0.13079 0.33647 0.0
N43 N 0.97955 0.09852 0.34379 0.0
C44 C 0.99589 0.13989 0.38618 0.0
C45 C 1.00332 0.10192 0.36842 0.0
C46 C 0.9632 0.17463 0.37879 0.0
C47 C 0.93759 0.16934 0.35381 0.0
H48 H 0.9277 0.1271 0.31689 0.0
H49 H 0.02857 0.0754 0.37425 0.0
C50 C 0.07484 0.90731 0.35013 0.0
N51 N 0.03226 0.91229 0.33752 0.0
C52 C 0.08359 0.86899 0.36773 0.0
C53 C 1.00493 0.84112 0.35839 0.0
C54 C 0.99769 0.87997 0.34108 0.0
C55 C 0.04812 0.83554 0.37239 0.0
H56 H 0.1017 0.93359 0.34691 0.0
H57 H 0.96417 0.88479 0.33075 0.0
C58 C 0.98662 0.0967 0.25968 0.0
N59 N 0.97651 0.16885 0.22138 0.0
C60 C 0.97129 0.08727 0.23245 0.0
C61 C 0.9961 0.14301 0.26752 0.0
C62 C 0.96663 0.12416 0.21337 0.0
C63 C 0.99097 0.17894 0.24784 0.0
C64 C 0.03869 0.9146 0.27326 0.0
C65 C 0.08656 0.90493 0.27616 0.0
C66 C 1.00667 0.87776 0.27036 0.0
C67 C 0.10163 0.85829 0.2763 0.0
C68 C 0.02314 0.83159 0.27059 0.0
N69 N 0.06987 0.8229 0.27355 0.0
C70 C 0.14682 0.03307 0.2695 0.0
C71 C 0.09552 0.05488 0.23265 0.0
C72 C 0.18594 0.04384 0.2531 0.0
N73 N 0.10264 0.03906 0.25918 0.0
C74 C 0.13361 0.06613 0.21552 0.0
C75 C 0.17965 0.06052 0.22564 0.0
H76 H 0.15179 0.01945 0.29042 0.0
H77 H 0.06032 0.05786 0.22449 0.0
C78 C 0.86889 0.98894 0.26225 0.0
N79 N 0.91445 0.98082 0.25536 0.0
C80 C 0.83273 0.9765 0.24375 0.0
C81 C 0.89119 0.94788 0.21149 0.0
C82 C 0.92607 0.96061 0.23062 0.0
C83 C 0.84365 0.95556 0.21792 0.0
H84 H 0.86064 1.00485 0.28216 0.0
H85 H 0.96262 0.95468 0.22566 0.0
O86 O 0.06011 0.02113 0.32356 0.0
O87 O 0.9533 0.99084 0.32106 0.0
O88 O 0.9907 0.06102 0.27877 0.0
O89 O 0.02315 0.95992 0.27391 0.0
H90 H 0.11845 0.0144 0.36645 0.0
H91 H 0.07178 0.10431 0.29961 0.0
H92 H 0.17354 0.07694 0.38169 0.0
H93 H 0.12717 0.16552 0.3161 0.0
H94 H 0.83756 0.96891 0.38491 0.0
H95 H 1.00645 0.99271 0.36684 0.0
H96 H 0.86506 0.97772 0.33592 0.0
H97 H 0.97654 0.98374 0.41517 0.0
H98 H 0.01573 0.14215 0.40551 0.0
H99 H 0.91209 0.19542 0.34736 0.0
H100 H 0.11725 0.86644 0.37822 0.0
H101 H 0.97683 0.81586 0.3609 0.0
H102 H 0.96365 0.05178 0.22599 0.0
H103 H 1.00705 0.1513 0.28862 0.0
H104 H 0.95515 0.11726 0.19217 0.0
H105 H 0.99834 0.21488 0.25362 0.0
H106 H 0.11171 0.93312 0.27859 0.0
H107 H 0.96945 0.88474 0.26831 0.0
H108 H 0.13854 0.85022 0.27868 0.0
H109 H 0.99876 0.80268 0.26853 0.0
H110 H 0.22075 0.03906 0.26184 0.0
H111 H 0.12701 0.07776 0.19429 0.0
H112 H 0.79666 0.98267 0.24979 0.0
H113 H 0.90155 0.93277 0.1917 0.0
Li114 Li 0.95865 0.02171 0.81781 0.0
Li115 Li 0.04409 1.00033 0.82349 0.0
Li116 Li 0.01718 0.0523 0.78419 0.0
Li117 Li 0.99661 0.97054 0.78525 0.0
C118 C 0.01137 0.09172 0.84803 0.0
N119 N 1.00657 0.14823 0.89483 0.0
C120 C 0.01611 0.0722 0.87472 0.0
C121 C 1.0048 0.14009 0.84511 0.0
C122 C 0.01339 0.10132 0.89813 0.0
C123 C 1.0023 0.16804 0.86903 0.0
C124 C 0.97235 0.91512 0.82581 0.0
C125 C 0.98837 0.83209 0.82639 0.0
N126 N 0.94184 0.82332 0.8225 0.0
C127 C 0.92467 0.90536 0.82193 0.0
C128 C 1.0045 0.8783 0.82815 0.0
C129 C 0.90995 0.85867 0.82028 0.0
C130 C 0.85974 0.03815 0.82499 0.0
N131 N 0.90119 0.03175 0.83872 0.0
C132 C 0.86069 0.02992 0.88268 0.0
C133 C 0.90222 0.02747 0.8671 0.0
C134 C 0.81746 0.03642 0.86893 0.0
C135 C 0.81769 0.0415 0.83969 0.0
H136 H 0.85851 0.039 0.80252 0.0
H137 H 0.935 0.02014 0.87762 0.0
C138 C 0.13537 0.01112 0.84564 0.0
N139 N 0.09383 0.98854 0.8494 0.0
C140 C 0.1725 1.00409 0.86439 0.0
C141 C 0.12355 0.95034 0.89042 0.0
C142 C 0.08733 0.95845 0.87116 0.0
C143 C 0.16684 0.9735 0.88727 0.0
H144 H 0.13956 0.03474 0.82807 0.0
H145 H 0.05378 0.9412 0.87376 0.0
C146 C 0.92446 0.05785 0.76698 0.0
N147 N 0.86447 0.1275 0.74838 0.0
C148 C 0.89485 0.04974 0.74412 0.0
C149 C 0.92373 0.10149 0.78028 0.0
C150 C 0.86471 0.08537 0.73506 0.0
C151 C 0.89311 0.13621 0.7706 0.0
C152 C 0.08058 0.9945 0.75724 0.0
C153 C 0.05216 0.9956 0.73335 0.0
C154 C 0.12925 0.99072 0.75444 0.0
C155 C 0.07298 0.99295 0.70699 0.0
C156 C 0.14875 0.98815 0.72771 0.0
N157 N 0.12044 0.98931 0.70474 0.0
C158 C 0.06693 0.13642 0.77034 0.0
C159 C 0.01525 0.10863 0.73521 0.0
C160 C 0.07944 0.17482 0.75358 0.0
N161 N 0.03511 0.10445 0.76099 0.0
C162 C 0.02607 0.14669 0.71803 0.0
C163 C 0.05866 0.18064 0.72701 0.0
H164 H 0.08257 0.1321 0.79084 0.0
H165 H 0.99055 0.08258 0.72794 0.0
C166 C 0.94464 0.9101 0.74956 0.0
N167 N 0.98692 0.91633 0.76233 0.0
C168 C 0.93722 0.87169 0.73194 0.0
C169 C 0.01676 0.84647 0.74133 0.0
C170 C 0.02265 0.88539 0.7587 0.0
C171 C 0.97371 0.83939 0.72741 0.0
H172 H 0.91681 0.93525 0.7529 0.0
H173 H 0.05584 0.8911 0.76924 0.0
O174 O 0.01459 0.06396 0.82481 0.0
O175 O 0.98758 0.96057 0.82661 0.0
O176 O 0.95476 0.02352 0.77569 0.0
O177 O 0.06113 0.9972 0.78332 0.0
H178 H 0.0214 0.0349 0.87736 0.0
H179 H 1.00188 0.15593 0.82459 0.0
H180 H 0.01671 0.08661 0.91892 0.0
H181 H 0.9971 0.2055 0.86709 0.0
H182 H 0.01287 0.80321 0.82799 0.0
H183 H 0.89942 0.93354 0.81989 0.0
H184 H 0.04159 0.88536 0.8309 0.0
H185 H 0.8732 0.85055 0.81712 0.0
H186 H 0.86232 0.02471 0.90511 0.0
H187 H 0.78546 0.04692 0.82805 0.0
H188 H 0.20539 0.02223 0.86088 0.0
H189 H 0.11733 0.92697 0.9079 0.0
H190 H 0.89528 0.01631 0.73343 0.0
H191 H 0.94638 0.1084 0.79792 0.0
H192 H 0.84158 0.07957 0.71741 0.0
H193 H 0.89213 0.17008 0.78074 0.0
H194 H 0.01442 0.99846 0.73508 0.0
H195 H 0.15171 0.98985 0.77276 0.0
H196 H 0.0514 0.99379 0.68833 0.0
H197 H 0.18638 0.98524 0.72522 0.0
H198 H 0.10529 0.19945 0.76137 0.0
H199 H 1.00818 0.14972 0.6981 0.0
H200 H 0.90364 0.868 0.72148 0.0
H201 H 0.04564 0.82214 0.73889 0.0
H202 H 0.41946 0.99524 0.15102 0.0
H203 H 0.39981 0.11509 0.09614 0.0
H204 H 0.33055 0.1391 0.12401 0.0
H205 H 0.30212 0.96591 0.15722 0.0
H206 H 0.30567 0.94793 0.19334 0.0
H207 H 0.35666 0.94404 0.17139 0.0
H208 H 0.40384 0.99536 0.2063 0.0
H209 H 0.35299 0.99915 0.22852 0.0
H210 H 0.38125 0.05194 0.21633 0.0
H211 H 0.25824 0.14459 0.15542 0.0
H212 H 0.1919 0.13281 0.18799 0.0
H213 H 0.25993 0.0082 0.22102 0.0
C214 C 0.40127 0.02712 0.1451 0.0
C215 C 0.41513 0.05339 0.12142 0.0
C216 C 0.39007 0.09467 0.11435 0.0
C217 C 0.35065 0.10846 0.13003 0.0
C218 C 0.33715 0.08081 0.15279 0.0
C219 C 0.36214 0.04124 0.16042 0.0
C220 C 0.33914 0.01565 0.18451 0.0
C221 C 0.32507 0.96543 0.1761 0.0
C222 C 0.37122 0.01554 0.21045 0.0
C223 C 0.29652 0.04625 0.18893 0.0
C224 C 0.296 0.08388 0.17063 0.0
C225 C 0.25866 0.11551 0.17001 0.0
C226 C 0.22096 0.10833 0.18845 0.0
C227 C 0.22074 0.0697 0.20722 0.0
C228 C 0.25938 0.03865 0.20744 0.0
H229 H 0.0572 0.3242 0.58434 0.0
H230 H 0.08145 0.45059 0.63272 0.0
H231 H 0.09393 0.40225 0.67511 0.0
H232 H 0.99146 0.26574 0.63315 0.0
H233 H 0.01473 0.20811 0.62633 0.0
H234 H 0.01472 0.25178 0.59914 0.0
H235 H 0.1046 0.24214 0.59311 0.0
H236 H 0.10485 0.19786 0.62009 0.0
H237 H 0.14272 0.24832 0.62307 0.0
H238 H 0.09134 0.3406 0.71338 0.0
H239 H 0.07928 0.27128 0.74342 0.0
H240 H 0.06182 0.18487 0.66932 0.0
C241 C 0.06639 0.34172 0.60368 0.0
C242 C 0.06843 0.3912 0.60518 0.0
C243 C 0.08012 0.41273 0.63098 0.0
C244 C 0.08714 0.38554 0.6552 0.0
C245 C 0.08315 0.33686 0.65318 0.0
C246 C 0.0739 0.31514 0.62792 0.0
C247 C 0.06843 0.26262 0.63154 0.0
C248 C 0.01943 0.24613 0.62198 0.0
C249 C 0.10749 0.23618 0.61604 0.0
C250 C 0.07419 0.25832 0.66292 0.0
C251 C 0.08293 0.3014 0.67506 0.0
C252 C 0.08567 0.30652 0.70402 0.0
C253 C 0.07896 0.26672 0.72095 0.0
C254 C 0.06968 0.22213 0.70895 0.0
C255 C 0.06831 0.2182 0.67943 0.0
H256 H 0.61147 0.99428 0.12657 0.0
H257 H 0.65018 0.87078 0.079 0.0
H258 H 0.71655 0.85671 0.11152 0.0
H259 H 0.72648 0.03417 0.13751 0.0
H260 H 0.71603 0.05647 0.17219 0.0
H261 H 0.66859 0.0536 0.1473 0.0
H262 H 0.6198 1.00373 0.18206 0.0
H263 H 0.6671 1.00658 0.20714 0.0
H264 H 0.64443 0.95045 0.19621 0.0
H265 H 0.78123 0.85883 0.14781 0.0
H266 H 0.84045 0.87803 0.18377 0.0
H267 H 0.7616 1.00295 0.20572 0.0
C268 C 0.63323 0.96364 0.12331 0.0
C269 C 0.6253 0.93327 0.1004 0.0
C270 C 0.6554 0.89431 0.0965 0.0
C271 C 0.69312 0.88602 0.11489 0.0
C272 C 0.70042 0.91718 0.13696 0.0
C273 C 0.67133 0.95526 0.14119 0.0
C274 C 0.68878 0.98553 0.16511 0.0
C275 C 0.70068 0.03538 0.1549 0.0
C276 C 0.65289 0.98661 0.18905 0.0
C277 C 0.73261 0.95886 0.1735 0.0
C278 C 0.73842 0.91927 0.15724 0.0
C279 C 0.77698 0.88974 0.16067 0.0
C280 C 0.81068 0.90122 0.18103 0.0
C281 C 0.80606 0.94223 0.19758 0.0
C282 C 0.76605 0.97101 0.19381 0.0
H283 H 0.05485 0.65708 0.61128 0.0
H284 H 0.91692 0.59263 0.61543 0.0
H285 H 0.89294 0.65175 0.65064 0.0
H286 H 0.06684 0.68266 0.68335 0.0
H287 H 0.09647 0.73776 0.67771 0.0
H288 H 0.10166 0.69146 0.65235 0.0
H289 H 0.07133 0.74735 0.61344 0.0
H290 H 0.0663 0.79393 0.63865 0.0
H291 H 0.01602 0.77709 0.61797 0.0
H292 H 0.88585 0.71741 0.68698 0.0
H293 H 0.89551 0.78358 0.71993 0.0
H294 H 0.03788 0.80446 0.69021 0.0
C295 C 0.01946 0.65531 0.61945 0.0
C296 C 0.98775 0.6201 0.61064 0.0
C297 C 0.94177 0.61933 0.62184 0.0
C298 C 0.92791 0.65272 0.64186 0.0
C299 C 0.96039 0.68669 0.65026 0.0
C300 C 1.00513 0.68824 0.63922 0.0
C301 C 0.03378 0.72776 0.65167 0.0
C302 C 0.07724 0.70876 0.66719 0.0
C303 C 0.04765 0.76366 0.62909 0.0
C304 C 0.99846 0.7481 0.67179 0.0
C305 C 0.95626 0.72414 0.67072 0.0
C306 C 0.91867 0.73653 0.6878 0.0
C307 C 0.92444 0.77433 0.70637 0.0
C308 C 0.9675 0.79931 0.70776 0.0
C309 C 1.00474 0.78581 0.69006 0.0
H310 H 0.37827 0.05507 0.98517 0.0
H311 H 0.39381 0.91102 1.01327 0.0
H312 H 0.32768 0.88763 0.9823 0.0
H313 H 0.25297 0.05626 0.98119 0.0
H314 H 0.25162 0.09291 0.95043 0.0
H315 H 0.2998 0.09745 0.97476 0.0
H316 H 0.35862 0.08154 0.93461 0.0
H317 H 0.31063 0.07684 0.91015 0.0
H318 H 0.35208 0.02941 0.91366 0.0
H319 H 0.2587 0.88107 0.94775 0.0
H320 H 0.19487 0.89147 0.91302 0.0
H321 H 0.22616 0.04032 0.9087 0.0
C322 C 0.36792 0.01851 0.98495 0.0
C323 C 0.39123 0.98484 1.00173 0.0
C324 C 0.37645 0.93742 1.00062 0.0
C325 C 0.33895 0.92387 0.9831 0.0
C326 C 0.3168 0.95817 0.96682 0.0
C327 C 0.33093 1.00451 0.96766 0.0
C328 C 0.30187 0.03486 0.94822 0.0
C329 C 0.27497 0.07258 0.96464 0.0
C330 C 0.33264 0.05695 0.9253 0.0
C331 C 0.26891 0.99849 0.93622 0.0
C332 C 0.27788 0.95443 0.94715 0.0
C333 C 0.25146 0.91546 0.93913 0.0
C334 C 0.2151 0.92177 0.91949 0.0
C335 C 0.20548 0.96671 0.90801 0.0
C336 C 0.23294 1.00538 0.91666 0.0
H337 H 0.05429 0.38335 0.47465 0.0
H338 H 0.90952 0.41645 0.49455 0.0
H339 H 0.88288 0.35292 0.46274 0.0
H340 H 0.0374 0.35496 0.40212 0.0
H341 H 0.07946 0.30774 0.4029 0.0
H342 H 0.08621 0.35684 0.42621 0.0
H343 H 0.08768 0.30012 0.46868 0.0
H344 H 0.08092 0.25085 0.44551 0.0
H345 H 0.03982 0.25952 0.47362 0.0
H346 H 0.87306 0.28464 0.42803 0.0
H347 H 0.88115 0.21611 0.39644 0.0
H348 H 0.03271 0.22831 0.40152 0.0
C349 C 0.01689 0.37767 0.47221 0.0
C350 C 0.98393 0.40515 0.4869 0.0
C351 C 0.93538 0.3959 0.48341 0.0
C352 C 0.91998 0.35998 0.46537 0.0
C353 C 0.95362 0.3335 0.45122 0.0
C354 C 1.00109 0.34188 0.45467 0.0
C355 C 0.03052 0.30767 0.43815 0.0
C356 C 0.06013 0.33335 0.41603 0.0
C357 C 0.06155 0.27778 0.45766 0.0
C358 C 0.99232 0.27854 0.42473 0.0
C359 C 0.94812 0.29401 0.43224 0.0
C360 C 0.90754 0.27228 0.4221 0.0
C361 C 0.91243 0.23356 0.40411 0.0
C362 C 0.95753 0.21674 0.39673 0.0
C363 C 0.99777 0.23994 0.40709 0.0
H364 H 0.64296 0.05841 1.00017 0.0
H365 H 0.5413 0.98296 0.94956 0.0
H366 H 0.59452 0.98701 0.9092 0.0
H367 H 0.6899 0.13442 0.94242 0.0
H368 H 0.74933 0.13057 0.95532 0.0
H369 H 0.70079 0.1278 0.97938 0.0
H370 H 0.73213 0.04864 0.99844 0.0
H371 H 0.78038 0.05085 0.97425 0.0
H372 H 0.74174 1.00074 0.97456 0.0
H373 H 0.66054 0.9903 0.87635 0.0
H374 H 0.73549 0.99566 0.85145 0.0
H375 H 0.79662 0.0703 0.92195 0.0
C376 C 0.6315 0.04415 0.98031 0.0
C377 C 0.58786 0.02074 0.97785 0.0
C378 C 0.57451 1.00117 0.95182 0.0
C379 C 0.60446 1.00334 0.92876 0.0
C380 C 0.64782 0.02519 0.932 0.0
C381 C 0.66139 0.04563 0.95696 0.0
C382 C 0.71155 0.06368 0.9551 0.0
C383 C 0.71296 0.11731 0.95824 0.0
C384 C 0.74331 0.03952 0.97688 0.0
C385 C 0.72419 0.04891 0.92554 0.0
C386 C 0.6866 0.02719 0.91263 0.0
C387 C 0.68997 0.00821 0.88594 0.0
C388 C 0.73281 0.01173 0.87188 0.0
C389 C 0.77204 0.03426 0.88438 0.0
C390 C 0.76743 0.05304 0.91168 0.0
H391 H 0.97051 0.65406 0.49034 0.0
H392 H 0.11019 0.59344 0.48761 0.0
H393 H 0.13298 0.65212 0.4517 0.0
H394 H 0.95873 0.67729 0.41786 0.0
H395 H 0.92758 0.73169 0.42272 0.0
H396 H 0.92331 0.68595 0.4486 0.0
H397 H 0.95166 0.74371 0.48695 0.0
H398 H 0.95577 0.78972 0.4612 0.0
H399 H 1.00622 0.77483 0.48229 0.0
H400 H 0.13881 0.71706 0.41457 0.0
H401 H 0.1278 0.78216 0.38084 0.0
H402 H 0.98454 0.79967 0.40972 0.0
C403 C 1.00603 0.65303 0.48233 0.0
C404 C 0.03857 0.61903 0.49175 0.0
C405 C 0.08469 0.61922 0.48074 0.0
C406 C 0.09789 0.65236 0.46032 0.0
C407 C 0.06461 0.68514 0.45133 0.0
C408 C 0.01971 0.68575 0.46218 0.0
C409 C 0.99019 0.72413 0.44912 0.0
C410 C 0.94744 0.70351 0.43366 0.0
C411 C 0.97509 0.76023 0.47121 0.0
C412 C 0.02521 0.74489 0.4289 0.0
C413 C 0.06801 0.72215 0.43043 0.0
C414 C 0.10549 0.7352 0.41338 0.0
C415 C 0.09895 0.77238 0.39435 0.0
C416 C 0.05524 0.79607 0.39248 0.0
C417 C 0.01816 0.78196 0.41019 0.0
loop_
_geom_bond_atom_site_label_1
_geom_bond_atom_site_label_2
_geom_bond_distance
_geom_bond_site_symmetry_2
_ccdc_geom_bond_type
Mg0 O7 2.141 . S
Mg0 O8 2.048 . S
Mg0 O9 2.048 . S
Mg0 O12 2.141 . S
C1 O2 1.313 . S
C1 O8 1.195 1_566 S
O2 C1 1.313 . S
C3 O4 1.245 . S
C3 O12 1.289 1_565 S
O4 C3 1.245 . S
C5 O6 1.245 . S
C5 O7 1.289 1_565 S
O6 C5 1.245 . S
O7 Mg0 2.141 . S
O7 C5 1.289 1_545 S
O8 Mg0 2.048 . S
O8 C1 1.195 1_544 S
O9 Mg0 2.048 . S
O9 C10 1.195 1_544 S
C10 O9 1.195 1_566 S
C10 O11 1.313 . S
O11 C10 1.313 . S
O12 Mg0 2.141 . S
O12 C3 1.289 1_545 S
Mg13 O20 2.141 . S
Mg13 O21 2.048 . S
Mg13 O22 2.048 . S
Mg13 O25 2.141 . S
C14 O15 1.313 . S
C14 O21 1.195 1_455 S
O15 C14 1.313 . S
C16 O17 1.245 . S
C16 O25 1.289 1_455 S
O17 C16 1.245 . S
C18 O19 1.245 . S
C18 O20 1.289 1_455 S
O19 C18 1.245 . S
O20 Mg13 2.141 . S
O20 C18 1.289 1_655 S
O21 Mg13 2.048 . S
O21 C14 1.195 1_655 S
O22 Mg13 2.048 . S
O22 C23 1.195 1_655 S
C23 O22 1.195 1_455 S
C23 O24 1.313 . S
O24 C23 1.313 . S
O25 Mg13 2.141 . S
O25 C16 1.289 1_655 S
Li26 N43 1.990 . S
Li26 O86 1.956 1_545 S
Li26 O87 1.970 1_455 S
Li26 O88 1.961 1_455 S
Li27 N51 1.990 . S
Li27 O86 1.970 1_655 S
Li27 O87 1.956 1_565 S
Li27 O89 1.961 1_655 S
Li28 N73 1.990 . S
Li28 O86 1.961 1_545 S
Li28 O88 1.956 1_455 S
Li28 O89 1.970 1_545 S
Li29 N79 1.990 . S
Li29 O87 1.961 1_565 S
Li29 O88 1.970 1_565 S
Li29 O89 1.956 1_655 S
C30 C32 1.348 1_545 S
C30 C33 1.356 . S
C30 O86 1.325 1_545 S
N31 C34 1.314 1_545 S
N31 C35 1.279 . S
C32 C30 1.348 1_565 S
C32 C34 1.353 . S
C32 H90 0.929 . S
C33 C30 1.356 . S
C33 C35 1.358 . S
C33 H91 0.930 . S
C34 N31 1.314 1_565 S
C34 C32 1.353 . S
C34 H92 0.930 . S
C35 N31 1.279 . S
C35 C33 1.358 . S
C35 H93 0.930 . S
C36 C39 1.348 . S
C36 C40 1.356 1_545 S
C36 O87 1.325 . S
C37 N38 1.279 . S
C37 C40 1.358 . S
C37 H94 0.930 . S
N38 C37 1.279 . S
N38 C41 1.314 1_565 S
C39 C36 1.348 . S
C39 C41 1.353 . S
C39 H95 0.929 . S
C40 C36 1.356 1_565 S
C40 C37 1.358 . S
C40 H96 0.930 . S
C41 N38 1.314 1_545 S
C41 C39 1.353 . S
C41 H97 0.930 . S
C42 N43 1.314 1_655 S
C42 C47 1.353 . S
C42 H48 0.930 . S
N43 Li26 1.990 . S
N43 C42 1.314 1_455 S
N43 C45 1.279 . S
C44 C45 1.358 . S
C44 C46 1.356 . S
C44 H98 0.930 . S
C45 N43 1.279 . S
C45 C44 1.358 . S
C45 H49 0.930 . S
C46 C44 1.356 . S
C46 C47 1.348 1_455 S
C47 C42 1.353 . S
C47 C46 1.348 1_655 S
C47 H99 0.929 . S
H48 C42 0.930 . S
H49 C45 0.930 . S
C50 N51 1.314 1_455 S
C50 C52 1.353 . S
C50 H56 0.930 . S
N51 Li27 1.990 . S
N51 C50 1.314 1_655 S
N51 C54 1.279 . S
C52 C50 1.353 . S
C52 C55 1.348 . S
C52 H100 0.929 . S
C53 C54 1.358 . S
C53 C55 1.356 1_655 S
C53 H101 0.930 . S
C54 N51 1.279 . S
C54 C53 1.358 . S
C54 H57 0.930 . S
C55 C52 1.348 . S
C55 C53 1.356 1_455 S
H56 C50 0.930 . S
H57 C54 0.930 . S
C58 C60 1.348 1_455 S
C58 C61 1.356 . S
C58 O88 1.325 1_455 S
N59 C62 1.314 1_455 S
N59 C63 1.279 . S
C60 C58 1.348 1_655 S
C60 C62 1.353 . S
C60 H102 0.929 . S
C61 C58 1.356 . S
C61 C63 1.358 . S
C61 H103 0.930 . S
C62 N59 1.314 1_655 S
C62 C60 1.353 . S
C62 H104 0.930 . S
C63 N59 1.279 . S
C63 C61 1.358 . S
C63 H105 0.930 . S
C64 C65 1.348 . S
C64 C66 1.356 1_455 S
C64 O89 1.325 . S
C65 C64 1.348 . S
C65 C67 1.353 . S
C65 H106 0.929 . S
C66 C64 1.356 1_655 S
C66 C68 1.358 . S
C66 H107 0.930 . S
C67 C65 1.353 . S
C67 N69 1.314 1_455 S
C67 H108 0.930 . S
C68 C66 1.358 . S
C68 N69 1.279 . S
C68 H109 0.930 . S
N69 C67 1.314 1_655 S
N69 C68 1.279 . S
C70 C72 1.353 . S
C70 N73 1.314 1_565 S
C70 H76 0.930 . S
C71 N73 1.279 . S
C71 C74 1.358 . S
C71 H77 0.930 . S
C72 C70 1.353 . S
C72 C75 1.348 1_565 S
C72 H110 0.929 . S
N73 Li28 1.990 . S
N73 C70 1.314 1_545 S
N73 C71 1.279 . S
C74 C71 1.358 . S
C74 C75 1.356 . S
C74 H111 0.930 . S
C75 C72 1.348 1_545 S
C75 C74 1.356 . S
H76 C70 0.930 . S
H77 C71 0.930 . S
C78 N79 1.314 1_545 S
C78 C80 1.353 . S
C78 H84 0.930 . S
N79 Li29 1.990 . S
N79 C78 1.314 1_565 S
N79 C82 1.279 . S
C80 C78 1.353 . S
C80 C83 1.348 . S
C80 H112 0.929 . S
C81 C82 1.358 . S
C81 C83 1.356 1_565 S
C81 H113 0.930 . S
C82 N79 1.279 . S
C82 C81 1.358 . S
C82 H85 0.930 . S
C83 C80 1.348 . S
C83 C81 1.356 1_545 S
H84 C78 0.930 . S
H85 C82 0.930 . S
O86 Li26 1.956 1_565 S
O86 Li27 1.970 1_455 S
O86 Li28 1.961 1_565 S
O86 C30 1.325 1_565 S
O87 Li26 1.970 1_655 S
O87 Li27 1.956 1_545 S
O87 Li29 1.961 1_545 S
O87 C36 1.325 . S
O88 Li26 1.961 1_655 S
O88 Li28 1.956 1_655 S
O88 Li29 1.970 1_545 S
O88 C58 1.325 1_655 S
O89 Li27 1.961 1_455 S
O89 Li28 1.970 1_565 S
O89 Li29 1.956 1_455 S
O89 C64 1.325 . S
H90 C32 0.929 . S
H91 C33 0.930 . S
H92 C34 0.930 . S
H93 C35 0.930 . S
H94 C37 0.930 . S
H95 C39 0.929 . S
H96 C40 0.930 . S
H97 C41 0.930 . S
H98 C44 0.930 . S
H99 C47 0.929 . S
H100 C52 0.929 . S
H101 C53 0.930 . S
H102 C60 0.929 . S
H103 C61 0.930 . S
H104 C62 0.930 . S
H105 C63 0.930 . S
H106 C65 0.929 . S
H107 C66 0.930 . S
H108 C67 0.930 . S
H109 C68 0.930 . S
H110 C72 0.929 . S
H111 C74 0.930 . S
H112 C80 0.929 . S
H113 C81 0.930 . S
Li114 N131 1.990 . S
Li114 O174 1.956 1_655 S
Li114 O175 1.970 1_545 S
Li114 O176 1.961 1_545 S
Li115 N139 1.990 . S
Li115 O174 1.970 1_565 S
Li115 O175 1.956 1_455 S
Li115 O177 1.961 1_565 S
Li116 N161 1.990 . S
Li116 O174 1.961 1_655 S
Li116 O176 1.956 1_545 S
Li116 O177 1.970 1_655 S
Li117 N167 1.990 . S
Li117 O175 1.961 1_455 S
Li117 O176 1.970 1_455 S
Li117 O177 1.956 1_565 S
C118 C120 1.348 . S
C118 C121 1.355 1_455 S
C118 O174 1.325 . S
N119 C122 1.314 1_655 S
N119 C123 1.279 . S
C120 C118 1.348 . S
C120 C122 1.353 . S
C120 H178 0.929 . S
C121 C118 1.355 1_655 S
C121 C123 1.358 . S
C121 H179 0.930 . S
C122 N119 1.314 1_455 S
C122 C120 1.353 . S
C122 H180 0.930 . S
C123 N119 1.279 . S
C123 C121 1.358 . S
C123 H181 0.930 . S
C124 C127 1.348 1_455 S
C124 C128 1.355 . S
C124 O175 1.325 1_455 S
C125 N126 1.279 . S
C125 C128 1.358 . S
C125 H182 0.930 . S
N126 C125 1.279 . S
N126 C129 1.314 1_455 S
C127 C124 1.348 1_655 S
C127 C129 1.353 . S
C127 H183 0.929 . S
C128 C124 1.355 . S
C128 C125 1.358 . S
C128 H184 0.930 . S
C129 N126 1.314 1_655 S
C129 C127 1.353 . S
C129 H185 0.930 . S
C130 N131 1.314 1_565 S
C130 C135 1.353 . S
C130 H136 0.930 . S
N131 Li114 1.990 . S
N131 C130 1.314 1_545 S
N131 C133 1.279 . S
C132 C133 1.358 . S
C132 C134 1.355 . S
C132 H186 0.930 . S
C133 N131 1.279 . S
C133 C132 1.358 . S
C133 H137 0.930 . S
C134 C132 1.355 . S
C134 C135 1.348 1_545 S
C135 C130 1.353 . S
C135 C134 1.348 1_565 S
C135 H187 0.929 . S
H136 C130 0.930 . S
H137 C133 0.930 . S
C138 N139 1.314 1_545 S
C138 C140 1.353 . S
C138 H144 0.930 . S
N139 Li115 1.990 . S
N139 C138 1.314 1_565 S
N139 C142 1.279 . S
C140 C138 1.353 . S
C140 C143 1.348 . S
C140 H188 0.929 . S
C141 C142 1.358 . S
C141 C143 1.355 1_565 S
C141 H189 0.930 . S
C142 N139 1.279 . S
C142 C141 1.358 . S
C142 H145 0.930 . S
C143 C140 1.348 . S
C143 C141 1.355 1_545 S
H144 C138 0.930 . S
H145 C142 0.930 . S
C146 C148 1.348 1_545 S
C146 C149 1.355 . S
C146 O176 1.325 1_545 S
N147 C150 1.314 1_545 S
N147 C151 1.279 . S
C148 C146 1.348 1_565 S
C148 C150 1.353 . S
C148 H190 0.929 . S
C149 C146 1.355 . S
C149 C151 1.358 . S
C149 H191 0.930 . S
C150 N147 1.314 1_565 S
C150 C148 1.353 . S
C150 H192 0.930 . S
C151 N147 1.279 . S
C151 C149 1.358 . S
C151 H193 0.930 . S
C152 C153 1.348 . S
C152 C154 1.355 1_545 S
C152 O177 1.325 . S
C153 C152 1.348 . S
C153 C155 1.353 . S
C153 H194 0.929 . S
C154 C152 1.355 1_565 S
C154 C156 1.358 . S
C154 H195 0.930 . S
C155 C153 1.353 . S
C155 N157 1.314 1_545 S
C155 H196 0.930 . S
C156 C154 1.358 . S
C156 N157 1.279 . S
C156 H197 0.930 . S
N157 C155 1.314 1_565 S
N157 C156 1.279 . S
C158 C160 1.353 . S
C158 N161 1.314 1_455 S
C158 H164 0.930 . S
C159 N161 1.279 . S
C159 C162 1.358 . S
C159 H165 0.930 . S
C160 C158 1.353 . S
C160 C163 1.348 . S
C160 H198 0.929 . S
N161 Li116 1.990 . S
N161 C158 1.314 1_655 S
N161 C159 1.279 . S
C162 C159 1.358 . S
C162 C163 1.355 1_655 S
C162 H199 0.930 . S
C163 C160 1.348 . S
C163 C162 1.355 1_455 S
H164 C158 0.930 . S
H165 C159 0.930 . S
C166 N167 1.314 1_655 S
C166 C168 1.353 . S
C166 H172 0.930 . S
N167 Li117 1.990 . S
N167 C166 1.314 1_455 S
N167 C170 1.279 . S
C168 C166 1.353 . S
C168 C171 1.348 1_655 S
C168 H200 0.929 . S
C169 C170 1.358 . S
C169 C171 1.355 . S
C169 H201 0.930 . S
C170 N167 1.279 . S
C170 C169 1.358 . S
C170 H173 0.930 . S
C171 C168 1.348 1_455 S
C171 C169 1.355 . S
H172 C166 0.930 . S
H173 C170 0.930 . S
O174 Li114 1.956 1_455 S
O174 Li115 1.970 1_545 S
O174 Li116 1.961 1_455 S
O174 C118 1.325 . S
O175 Li114 1.970 1_565 S
O175 Li115 1.956 1_655 S
O175 Li117 1.961 1_655 S
O175 C124 1.325 1_655 S
O176 Li114 1.961 1_565 S
O176 Li116 1.956 1_565 S
O176 Li117 1.970 1_655 S
O176 C146 1.325 1_565 S
O177 Li115 1.961 1_545 S
O177 Li116 1.970 1_455 S
O177 Li117 1.956 1_545 S
O177 C152 1.325 . S
H178 C120 0.929 . S
H179 C121 0.930 . S
H180 C122 0.930 . S
H181 C123 0.930 . S
H182 C125 0.930 . S
H183 C127 0.929 . S
H184 C128 0.930 . S
H185 C129 0.930 . S
H186 C132 0.930 . S
H187 C135 0.929 . S
H188 C140 0.929 . S
H189 C141 0.930 . S
H190 C148 0.929 . S
H191 C149 0.930 . S
H192 C150 0.930 . S
H193 C151 0.930 . S
H194 C153 0.929 . S
H195 C154 0.930 . S
H196 C155 0.930 . S
H197 C156 0.930 . S
H198 C160 0.929 . S
H199 C162 0.930 . S
H200 C168 0.929 . S
H201 C169 0.930 . S
H202 C214 0.930 . S
H203 C216 0.930 . S
H204 C217 0.930 . S
H205 C221 0.959 . S
H206 C221 0.959 . S
H207 C221 0.961 . S
H208 C222 0.960 . S
H209 C222 0.961 . S
H210 C222 0.959 . S
H211 C225 0.929 . S
H212 C226 0.931 . S
H213 C228 0.930 . S
C214 H202 0.930 . S
C214 C215 1.399 1_565 S
C214 C219 1.399 . S
C215 C214 1.399 1_545 S
C215 C216 1.376 . S
C216 H203 0.930 . S
C216 C215 1.376 . S
C216 C217 1.388 . S
C217 H204 0.930 . S
C217 C216 1.388 . S
C217 C218 1.390 . S
C218 C217 1.390 . S
C218 C219 1.394 1_545 S
C218 C224 1.465 . S
C219 C214 1.399 . S
C219 C218 1.394 1_565 S
C219 C220 1.516 . S
C220 C219 1.516 . S
C220 C221 1.502 . S
C220 C222 1.561 . S
C220 C223 1.526 . S
C221 H205 0.959 . S
C221 H206 0.959 . S
C221 H207 0.961 . S
C221 C220 1.502 . S
C222 H208 0.960 . S
C222 H209 0.961 . S
C222 H210 0.959 . S
C222 C220 1.561 . S
C223 C220 1.526 . S
C223 C224 1.396 1_565 S
C223 C228 1.390 . S
C224 C218 1.465 . S
C224 C223 1.396 1_545 S
C224 C225 1.399 . S
C225 H211 0.929 . S
C225 C224 1.399 . S
C225 C226 1.385 . S
C226 H212 0.931 . S
C226 C225 1.385 . S
C226 C227 1.389 . S
C227 C226 1.389 . S
C227 C228 1.387 1_545 S
C228 H213 0.930 . S
C228 C223 1.390 . S
C228 C227 1.387 1_565 S
H229 C241 0.930 . S
H230 C243 0.930 . S
H231 C244 0.930 . S
H232 C248 0.959 . S
H233 C248 0.959 . S
H234 C248 0.961 . S
H235 C249 0.960 . S
H236 C249 0.961 . S
H237 C249 0.959 . S
H238 C252 0.929 . S
H239 C253 0.931 . S
H240 C255 0.930 . S
C241 H229 0.930 . S
C241 C242 1.399 1_655 S
C241 C246 1.397 1_655 S
C242 C241 1.399 1_455 S
C242 C243 1.376 . S
C243 H230 0.930 . S
C243 C242 1.376 . S
C243 C244 1.388 . S
C244 H231 0.930 . S
C244 C243 1.388 . S
C244 C245 1.390 . S
C245 C244 1.390 . S
C245 C246 1.398 . S
C245 C251 1.465 . S
C246 C241 1.397 1_455 S
C246 C245 1.398 . S
C246 C247 1.515 1_455 S
C247 C246 1.515 1_655 S
C247 C248 1.502 . S
C247 C249 1.561 1_655 S
C247 C250 1.526 1_655 S
C248 H232 0.959 . S
C248 H233 0.959 . S
C248 H234 0.961 . S
C248 C247 1.502 . S
C249 H235 0.960 . S
C249 H236 0.961 . S
C249 H237 0.959 . S
C249 C247 1.561 1_455 S
C250 C247 1.526 1_455 S
C250 C251 1.396 . S
C250 C255 1.390 1_455 S
C251 C245 1.465 . S
C251 C250 1.396 . S
C251 C252 1.399 . S
C252 H238 0.929 . S
C252 C251 1.399 . S
C252 C253 1.385 . S
C253 H239 0.931 . S
C253 C252 1.385 . S
C253 C254 1.389 . S
C254 C253 1.389 . S
C254 C255 1.387 1_455 S
C255 H240 0.930 . S
C255 C250 1.390 1_655 S
C255 C254 1.387 1_655 S
H256 C268 0.930 . S
H257 C270 0.930 . S
H258 C271 0.930 . S
H259 C275 0.959 . S
H260 C275 0.959 . S
H261 C275 0.961 . S
H262 C276 0.960 . S
H263 C276 0.961 . S
H264 C276 0.959 . S
H265 C279 0.929 . S
H266 C280 0.931 . S
H267 C282 0.930 . S
C268 H256 0.930 . S
C268 C269 1.399 1_545 S
C268 C273 1.399 . S
C269 C268 1.399 1_565 S
C269 C270 1.376 . S
C270 H257 0.930 . S
C270 C269 1.376 . S
C270 C271 1.388 . S
C271 H258 0.930 . S
C271 C270 1.388 . S
C271 C272 1.390 . S
C272 C271 1.390 . S
C272 C273 1.394 1_565 S
C272 C278 1.465 . S
C273 C268 1.399 . S
C273 C272 1.394 1_545 S
C273 C274 1.516 . S
C274 C273 1.516 . S
C274 C275 1.502 . S
C274 C276 1.561 . S
C274 C277 1.526 . S
C275 H259 0.959 . S
C275 H260 0.959 . S
C275 H261 0.961 . S
C275 C274 1.502 . S
C276 H262 0.960 . S
C276 H263 0.961 . S
C276 H264 0.959 . S
C276 C274 1.561 . S
C277 C274 1.526 . S
C277 C278 1.396 1_545 S
C277 C282 1.390 . S
C278 C272 1.465 . S
C278 C277 1.396 1_565 S
C278 C279 1.399 . S
C279 H265 0.929 . S
C279 C278 1.399 . S
C279 C280 1.385 . S
C280 H266 0.931 . S
C280 C279 1.385 . S
C280 C281 1.389 . S
C281 C280 1.389 . S
C281 C282 1.387 1_565 S
C282 H267 0.930 . S
C282 C277 1.390 . S
C282 C281 1.387 1_545 S
H283 C295 0.930 . S
H284 C297 0.930 . S
H285 C298 0.930 . S
H286 C302 0.959 . S
H287 C302 0.959 . S
H288 C302 0.961 . S
H289 C303 0.960 . S
H290 C303 0.961 . S
H291 C303 0.959 1_655 S
H292 C306 0.929 . S
H293 C307 0.931 . S
H294 C309 0.930 . S
C295 H283 0.930 . S
C295 C296 1.399 1_455 S
C295 C300 1.399 . S
C296 C295 1.399 1_655 S
C296 C297 1.376 . S
C297 H284 0.930 . S
C297 C296 1.376 . S
C297 C298 1.388 . S
C298 H285 0.930 . S
C298 C297 1.388 . S
C298 C299 1.390 . S
C299 C298 1.390 . S
C299 C300 1.394 1_655 S
C299 C305 1.465 . S
C300 C295 1.399 . S
C300 C299 1.394 1_455 S
C300 C301 1.516 . S
C301 C300 1.516 . S
C301 C302 1.502 . S
C301 C303 1.561 . S
C301 C304 1.526 . S
C302 H286 0.959 . S
C302 H287 0.959 . S
C302 H288 0.961 . S
C302 C301 1.502 . S
C303 H289 0.960 . S
C303 H290 0.961 . S
C303 H291 0.959 1_455 S
C303 C301 1.561 . S
C304 C301 1.526 . S
C304 C305 1.396 1_455 S
C304 C309 1.390 . S
C305 C299 1.465 . S
C305 C304 1.396 1_655 S
C305 C306 1.399 . S
C306 H292 0.929 . S
C306 C305 1.399 . S
C306 C307 1.385 . S
C307 H293 0.931 . S
C307 C306 1.385 . S
C307 C308 1.389 . S
C308 C307 1.389 . S
C308 C309 1.387 1_655 S
C309 H294 0.930 . S
C309 C304 1.390 . S
C309 C308 1.387 1_455 S
H310 C322 0.930 . S
H311 C324 0.930 . S
H312 C325 0.930 . S
H313 C329 0.959 . S
H314 C329 0.959 . S
H315 C329 0.961 . S
H316 C330 0.960 . S
H317 C330 0.961 . S
H318 C330 0.959 . S
H319 C333 0.929 . S
H320 C334 0.931 . S
H321 C336 0.930 . S
C322 H310 0.930 . S
C322 C323 1.399 1_545 S
C322 C327 1.399 . S
C323 C322 1.399 1_565 S
C323 C324 1.376 . S
C324 H311 0.930 . S
C324 C323 1.376 . S
C324 C325 1.388 . S
C325 H312 0.930 . S
C325 C324 1.388 . S
C325 C326 1.390 . S
C326 C325 1.390 . S
C326 C327 1.394 1_565 S
C326 C332 1.465 . S
C327 C322 1.399 . S
C327 C326 1.394 1_545 S
C327 C328 1.516 . S
C328 C327 1.516 . S
C328 C329 1.502 . S
C328 C330 1.561 . S
C328 C331 1.526 . S
C329 H313 0.959 . S
C329 H314 0.959 . S
C329 H315 0.961 . S
C329 C328 1.502 . S
C330 H316 0.960 . S
C330 H317 0.961 . S
C330 H318 0.959 . S
C330 C328 1.561 . S
C331 C328 1.526 . S
C331 C332 1.396 1_545 S
C331 C336 1.390 . S
C332 C326 1.465 . S
C332 C331 1.396 1_565 S
C332 C333 1.399 . S
C333 H319 0.929 . S
C333 C332 1.399 . S
C333 C334 1.385 . S
C334 H320 0.931 . S
C334 C333 1.385 . S
C334 C335 1.389 . S
C335 C334 1.389 . S
C335 C336 1.387 1_565 S
C336 H321 0.930 . S
C336 C331 1.390 . S
C336 C335 1.387 1_545 S
H337 C349 0.930 . S
H338 C351 0.930 . S
H339 C352 0.930 . S
H340 C356 0.959 . S
H341 C356 0.959 . S
H342 C356 0.961 . S
H343 C357 0.960 . S
H344 C357 0.961 . S
H345 C357 0.959 . S
H346 C360 0.929 . S
H347 C361 0.931 . S
H348 C363 0.930 . S
C349 H337 0.930 . S
C349 C350 1.399 1_455 S
C349 C354 1.399 . S
C350 C349 1.399 1_655 S
C350 C351 1.376 . S
C351 H338 0.930 . S
C351 C350 1.376 . S
C351 C352 1.388 . S
C352 H339 0.930 . S
C352 C351 1.388 . S
C352 C353 1.390 . S
C353 C352 1.390 . S
C353 C354 1.394 1_655 S
C353 C359 1.465 . S
C354 C349 1.399 . S
C354 C353 1.394 1_455 S
C354 C355 1.516 . S
C355 C354 1.516 . S
C355 C356 1.502 . S
C355 C357 1.561 . S
C355 C358 1.526 . S
C356 H340 0.959 . S
C356 H341 0.959 . S
C356 H342 0.961 . S
C356 C355 1.502 . S
C357 H343 0.960 . S
C357 H344 0.961 . S
C357 H345 0.959 . S
C357 C355 1.561 . S
C358 C355 1.526 . S
C358 C359 1.396 1_455 S
C358 C363 1.390 . S
C359 C353 1.465 . S
C359 C358 1.396 1_655 S
C359 C360 1.399 . S
C360 H346 0.929 . S
C360 C359 1.399 . S
C360 C361 1.385 . S
C361 H347 0.931 . S
C361 C360 1.385 . S
C361 C362 1.389 . S
C362 C361 1.389 . S
C362 C363 1.387 1_655 S
C363 H348 0.930 . S
C363 C358 1.390 . S
C363 C362 1.387 1_455 S
H364 C376 0.930 . S
H365 C378 0.930 . S
H366 C379 0.930 . S
H367 C383 0.959 . S
H368 C383 0.959 . S
H369 C383 0.961 . S
H370 C384 0.960 . S
H371 C384 0.961 . S
H372 C384 0.959 . S
H373 C387 0.929 . S
H374 C388 0.931 . S
H375 C390 0.930 . S
C376 H364 0.930 . S
C376 C377 1.399 1_545 S
C376 C381 1.399 . S
C377 C376 1.399 1_565 S
C377 C378 1.376 . S
C378 H365 0.930 . S
C378 C377 1.376 . S
C378 C379 1.388 . S
C379 H366 0.930 . S
C379 C378 1.388 . S
C379 C380 1.390 . S
C380 C379 1.390 . S
C380 C381 1.394 1_565 S
C380 C386 1.465 . S
C381 C376 1.399 . S
C381 C380 1.394 1_545 S
C381 C382 1.516 . S
C382 C381 1.516 . S
C382 C383 1.502 . S
C382 C384 1.561 . S
C382 C385 1.526 . S
C383 H367 0.959 . S
C383 H368 0.959 . S
C383 H369 0.961 . S
C383 C382 1.502 . S
C384 H370 0.960 . S
C384 H371 0.961 . S
C384 H372 0.959 . S
C384 C382 1.561 . S
C385 C382 1.526 . S
C385 C386 1.396 1_545 S
C385 C390 1.390 . S
C386 C380 1.465 . S
C386 C385 1.396 1_565 S
C386 C387 1.399 . S
C387 H373 0.929 . S
C387 C386 1.399 . S
C387 C388 1.385 . S
C388 H374 0.931 . S
C388 C387 1.385 . S
C388 C389 1.389 . S
C389 C388 1.389 . S
C389 C390 1.387 1_565 S
C390 H375 0.930 . S
C390 C385 1.390 . S
C390 C389 1.387 1_545 S
H391 C403 0.930 . S
H392 C405 0.930 . S
H393 C406 0.930 . S
H394 C410 0.959 . S
H395 C410 0.959 . S
H396 C410 0.961 . S
H397 C411 0.960 . S
H398 C411 0.961 . S
H399 C411 0.959 1_455 S
H400 C414 0.929 . S
H401 C415 0.931 . S
H402 C417 0.930 . S
C403 H391 0.930 . S
C403 C404 1.399 1_655 S
C403 C408 1.399 . S
C404 C403 1.399 1_455 S
C404 C405 1.376 . S
C405 H392 0.930 . S
C405 C404 1.376 . S
C405 C406 1.388 . S
C406 H393 0.930 . S
C406 C405 1.388 . S
C406 C407 1.390 . S
C407 C406 1.390 . S
C407 C408 1.394 1_455 S
C407 C413 1.465 . S
C408 C403 1.399 . S
C408 C407 1.394 1_655 S
C408 C409 1.516 . S
C409 C408 1.516 . S
C409 C410 1.502 . S
C409 C411 1.561 . S
C409 C412 1.526 . S
C410 H394 0.959 . S
C410 H395 0.959 . S
C410 H396 0.961 . S
C410 C409 1.502 . S
C411 H397 0.960 . S
C411 H398 0.961 . S
C411 H399 0.959 1_655 S
C411 C409 1.561 . S
C412 C409 1.526 . S
C412 C413 1.396 1_655 S
C412 C417 1.390 . S
C413 C407 1.465 . S
C413 C412 1.396 1_455 S
C413 C414 1.399 . S
C414 H400 0.929 . S
C414 C413 1.399 . S
C414 C415 1.385 . S
C415 H401 0.931 . S
C415 C414 1.385 . S
C415 C416 1.389 . S
C416 C415 1.389 . S
C416 C417 1.387 1_455 S
C417 H402 0.930 . S
C417 C412 1.390 . S
C417 C416 1.387 1_655 S
C227 C75 1.400 . S
C215 C5 1.402 1_545 S
C254 C163 1.482 . S
C242 C23 1.457 . S
C281 C83 1.401 1_565 S
C269 C3 1.380 . S
C308 C171 1.480 1_655 S
C296 C14 1.482 1_655 S
C335 C143 1.473 1_565 S
C323 C1 1.456 . S
C362 C46 1.407 1_655 S
C350 C16 1.408 1_655 S
C389 C134 1.471 1_565 S
C377 C10 1.461 . S
C404 C18 1.374 . S
C416 C55 1.411 . S
