# Generated by pormake.
# Topology iac, (4,6)-cn, num edge types: 1
# Building blocks:
#     Node 0, Type 0, BuildingBlock: NAHDIM_clean_sbu_0, # of connection points: 4
#     Node 1, Type 0, BuildingBlock: NAHDIM_clean_sbu_0, # of connection points: 4
#     Node 2, Type 0, BuildingBlock: NAHDIM_clean_sbu_0, # of connection points: 4
#     Node 3, Type 0, BuildingBlock: NAHDIM_clean_sbu_0, # of connection points: 4
#     Node 4, Type 0, BuildingBlock: NAHDIM_clean_sbu_0, # of connection points: 4
#     Node 5, Type 0, BuildingBlock: NAHDIM_clean_sbu_0, # of connection points: 4
#     Node 6, Type 0, BuildingBlock: NAHDIM_clean_sbu_0, # of connection points: 4
#     Node 7, Type 0, BuildingBlock: NAHDIM_clean_sbu_0, # of connection points: 4
#     Node 8, Type 0, BuildingBlock: NAHDIM_clean_sbu_0, # of connection points: 4
#     Node 9, Type 0, BuildingBlock: NAHDIM_clean_sbu_0, # of connection points: 4
#     Node 10, Type 0, BuildingBlock: NAHDIM_clean_sbu_0, # of connection points: 4
#     Node 11, Type 0, BuildingBlock: NAHDIM_clean_sbu_0, # of connection points: 4
#     Node 12, Type 0, BuildingBlock: NAHDIM_clean_sbu_0, # of connection points: 4
#     Node 13, Type 0, BuildingBlock: NAHDIM_clean_sbu_0, # of connection points: 4
#     Node 14, Type 0, BuildingBlock: NAHDIM_clean_sbu_0, # of connection points: 4
#     Node 15, Type 0, BuildingBlock: NAHDIM_clean_sbu_0, # of connection points: 4
#     Node 16, Type 0, BuildingBlock: NAHDIM_clean_sbu_0, # of connection points: 4
#     Node 17, Type 0, BuildingBlock: NAHDIM_clean_sbu_0, # of connection points: 4
#     Node 18, Type 0, BuildingBlock: NAHDIM_clean_sbu_0, # of connection points: 4
#     Node 19, Type 0, BuildingBlock: NAHDIM_clean_sbu_0, # of connection points: 4
#     Node 20, Type 0, BuildingBlock: NAHDIM_clean_sbu_0, # of connection points: 4
#     Node 21, Type 0, BuildingBlock: NAHDIM_clean_sbu_0, # of connection points: 4
#     Node 22, Type 0, BuildingBlock: NAHDIM_clean_sbu_0, # of connection points: 4
#     Node 23, Type 0, BuildingBlock: NAHDIM_clean_sbu_0, # of connection points: 4
#     Node 24, Type 1, BuildingBlock: FUNLAD_clean_sbu_0, # of connection points: 6
#     Node 25, Type 1, BuildingBlock: FUNLAD_clean_sbu_0, # of connection points: 6
#     Node 26, Type 1, BuildingBlock: FUNLAD_clean_sbu_0, # of connection points: 6
#     Node 27, Type 1, BuildingBlock: FUNLAD_clean_sbu_0, # of connection points: 6
#     Node 28, Type 1, BuildingBlock: FUNLAD_clean_sbu_0, # of connection points: 6
#     Node 29, Type 1, BuildingBlock: FUNLAD_clean_sbu_0, # of connection points: 6
#     Node 30, Type 1, BuildingBlock: FUNLAD_clean_sbu_0, # of connection points: 6
#     Node 31, Type 1, BuildingBlock: FUNLAD_clean_sbu_0, # of connection points: 6
#     Node 32, Type 1, BuildingBlock: FUNLAD_clean_sbu_0, # of connection points: 6
#     Node 33, Type 1, BuildingBlock: FUNLAD_clean_sbu_0, # of connection points: 6
#     Node 34, Type 1, BuildingBlock: FUNLAD_clean_sbu_0, # of connection points: 6
#     Node 35, Type 1, BuildingBlock: FUNLAD_clean_sbu_0, # of connection points: 6
#     Node 36, Type 1, BuildingBlock: FUNLAD_clean_sbu_0, # of connection points: 6
#     Node 37, Type 1, BuildingBlock: FUNLAD_clean_sbu_0, # of connection points: 6
#     Node 38, Type 1, BuildingBlock: FUNLAD_clean_sbu_0, # of connection points: 6
#     Node 39, Type 1, BuildingBlock: FUNLAD_clean_sbu_0, # of connection points: 6
#     Edge 40, Type (0, 1), BuildingBlock: AJUNOK_clean_linker_0, # of connection points: 2
#     Edge 41, Type (0, 1), BuildingBlock: AJUNOK_clean_linker_0, # of connection points: 2
#     Edge 42, Type (0, 1), BuildingBlock: AJUNOK_clean_linker_0, # of connection points: 2
#     Edge 43, Type (0, 1), BuildingBlock: AJUNOK_clean_linker_0, # of connection points: 2
#     Edge 44, Type (0, 1), BuildingBlock: AJUNOK_clean_linker_0, # of connection points: 2
#     Edge 45, Type (0, 1), BuildingBlock: AJUNOK_clean_linker_0, # of connection points: 2
#     Edge 46, Type (0, 1), BuildingBlock: AJUNOK_clean_linker_0, # of connection points: 2
#     Edge 47, Type (0, 1), BuildingBlock: AJUNOK_clean_linker_0, # of connection points: 2
#     Edge 48, Type (0, 1), BuildingBlock: AJUNOK_clean_linker_0, # of connection points: 2
#     Edge 49, Type (0, 1), BuildingBlock: AJUNOK_clean_linker_0, # of connection points: 2
#     Edge 50, Type (0, 1), BuildingBlock: AJUNOK_clean_linker_0, # of connection points: 2
#     Edge 51, Type (0, 1), BuildingBlock: AJUNOK_clean_linker_0, # of connection points: 2
#     Edge 52, Type (0, 1), BuildingBlock: AJUNOK_clean_linker_0, # of connection points: 2
#     Edge 53, Type (0, 1), BuildingBlock: AJUNOK_clean_linker_0, # of connection points: 2
#     Edge 54, Type (0, 1), BuildingBlock: AJUNOK_clean_linker_0, # of connection points: 2
#     Edge 55, Type (0, 1), BuildingBlock: AJUNOK_clean_linker_0, # of connection points: 2
#     Edge 56, Type (0, 1), BuildingBlock: AJUNOK_clean_linker_0, # of connection points: 2
#     Edge 57, Type (0, 1), BuildingBlock: AJUNOK_clean_linker_0, # of connection points: 2
#     Edge 58, Type (0, 1), BuildingBlock: AJUNOK_clean_linker_0, # of connection points: 2
#     Edge 59, Type (0, 1), BuildingBlock: AJUNOK_clean_linker_0, # of connection points: 2
#     Edge 60, Type (0, 1), BuildingBlock: AJUNOK_clean_linker_0, # of connection points: 2
#     Edge 61, Type (0, 1), BuildingBlock: AJUNOK_clean_linker_0, # of connection points: 2
#     Edge 62, Type (0, 1), BuildingBlock: AJUNOK_clean_linker_0, # of connection points: 2
#     Edge 63, Type (0, 1), BuildingBlock: AJUNOK_clean_linker_0, # of connection points: 2
#     Edge 64, Type (0, 1), BuildingBlock: AJUNOK_clean_linker_0, # of connection points: 2
#     Edge 65, Type (0, 1), BuildingBlock: AJUNOK_clean_linker_0, # of connection points: 2
#     Edge 66, Type (0, 1), BuildingBlock: AJUNOK_clean_linker_0, # of connection points: 2
#     Edge 67, Type (0, 1), BuildingBlock: AJUNOK_clean_linker_0, # of connection points: 2
#     Edge 68, Type (0, 1), BuildingBlock: AJUNOK_clean_linker_0, # of connection points: 2
#     Edge 69, Type (0, 1), BuildingBlock: AJUNOK_clean_linker_0, # of connection points: 2
#     Edge 70, Type (0, 1), BuildingBlock: AJUNOK_clean_linker_0, # of connection points: 2
#     Edge 71, Type (0, 1), BuildingBlock: AJUNOK_clean_linker_0, # of connection points: 2
#     Edge 72, Type (0, 1), BuildingBlock: AJUNOK_clean_linker_0, # of connection points: 2
#     Edge 73, Type (0, 1), BuildingBlock: AJUNOK_clean_linker_0, # of connection points: 2
#     Edge 74, Type (0, 1), BuildingBlock: AJUNOK_clean_linker_0, # of connection points: 2
#     Edge 75, Type (0, 1), BuildingBlock: AJUNOK_clean_linker_0, # of connection points: 2
#     Edge 76, Type (0, 1), BuildingBlock: AJUNOK_clean_linker_0, # of connection points: 2
#     Edge 77, Type (0, 1), BuildingBlock: AJUNOK_clean_linker_0, # of connection points: 2
#     Edge 78, Type (0, 1), BuildingBlock: AJUNOK_clean_linker_0, # of connection points: 2
#     Edge 79, Type (0, 1), BuildingBlock: AJUNOK_clean_linker_0, # of connection points: 2
#     Edge 80, Type (0, 1), BuildingBlock: AJUNOK_clean_linker_0, # of connection points: 2
#     Edge 81, Type (0, 1), BuildingBlock: AJUNOK_clean_linker_0, # of connection points: 2
#     Edge 82, Type (0, 1), BuildingBlock: AJUNOK_clean_linker_0, # of connection points: 2
#     Edge 83, Type (0, 1), BuildingBlock: AJUNOK_clean_linker_0, # of connection points: 2
#     Edge 84, Type (0, 1), BuildingBlock: AJUNOK_clean_linker_0, # of connection points: 2
#     Edge 85, Type (0, 1), BuildingBlock: AJUNOK_clean_linker_0, # of connection points: 2
#     Edge 86, Type (0, 1), BuildingBlock: AJUNOK_clean_linker_0, # of connection points: 2
#     Edge 87, Type (0, 1), BuildingBlock: AJUNOK_clean_linker_0, # of connection points: 2
#     Edge 88, Type (0, 1), BuildingBlock: AJUNOK_clean_linker_0, # of connection points: 2
#     Edge 89, Type (0, 1), BuildingBlock: AJUNOK_clean_linker_0, # of connection points: 2
#     Edge 90, Type (0, 1), BuildingBlock: AJUNOK_clean_linker_0, # of connection points: 2
#     Edge 91, Type (0, 1), BuildingBlock: AJUNOK_clean_linker_0, # of connection points: 2
#     Edge 92, Type (0, 1), BuildingBlock: AJUNOK_clean_linker_0, # of connection points: 2
#     Edge 93, Type (0, 1), BuildingBlock: AJUNOK_clean_linker_0, # of connection points: 2
#     Edge 94, Type (0, 1), BuildingBlock: AJUNOK_clean_linker_0, # of connection points: 2
#     Edge 95, Type (0, 1), BuildingBlock: AJUNOK_clean_linker_0, # of connection points: 2
#     Edge 96, Type (0, 1), BuildingBlock: AJUNOK_clean_linker_0, # of connection points: 2
#     Edge 97, Type (0, 1), BuildingBlock: AJUNOK_clean_linker_0, # of connection points: 2
#     Edge 98, Type (0, 1), BuildingBlock: AJUNOK_clean_linker_0, # of connection points: 2
#     Edge 99, Type (0, 1), BuildingBlock: AJUNOK_clean_linker_0, # of connection points: 2
#     Edge 100, Type (0, 1), BuildingBlock: AJUNOK_clean_linker_0, # of connection points: 2
#     Edge 101, Type (0, 1), BuildingBlock: AJUNOK_clean_linker_0, # of connection points: 2
#     Edge 102, Type (0, 1), BuildingBlock: AJUNOK_clean_linker_0, # of connection points: 2
#     Edge 103, Type (0, 1), BuildingBlock: AJUNOK_clean_linker_0, # of connection points: 2
#     Edge 104, Type (0, 1), BuildingBlock: AJUNOK_clean_linker_0, # of connection points: 2
#     Edge 105, Type (0, 1), BuildingBlock: AJUNOK_clean_linker_0, # of connection points: 2
#     Edge 106, Type (0, 1), BuildingBlock: AJUNOK_clean_linker_0, # of connection points: 2
#     Edge 107, Type (0, 1), BuildingBlock: AJUNOK_clean_linker_0, # of connection points: 2
#     Edge 108, Type (0, 1), BuildingBlock: AJUNOK_clean_linker_0, # of connection points: 2
#     Edge 109, Type (0, 1), BuildingBlock: AJUNOK_clean_linker_0, # of connection points: 2
#     Edge 110, Type (0, 1), BuildingBlock: AJUNOK_clean_linker_0, # of connection points: 2
#     Edge 111, Type (0, 1), BuildingBlock: AJUNOK_clean_linker_0, # of connection points: 2
#     Edge 112, Type (0, 1), BuildingBlock: AJUNOK_clean_linker_0, # of connection points: 2
#     Edge 113, Type (0, 1), BuildingBlock: AJUNOK_clean_linker_0, # of connection points: 2
#     Edge 114, Type (0, 1), BuildingBlock: AJUNOK_clean_linker_0, # of connection points: 2
#     Edge 115, Type (0, 1), BuildingBlock: AJUNOK_clean_linker_0, # of connection points: 2
#     Edge 116, Type (0, 1), BuildingBlock: AJUNOK_clean_linker_0, # of connection points: 2
#     Edge 117, Type (0, 1), BuildingBlock: AJUNOK_clean_linker_0, # of connection points: 2
#     Edge 118, Type (0, 1), BuildingBlock: AJUNOK_clean_linker_0, # of connection points: 2
#     Edge 119, Type (0, 1), BuildingBlock: AJUNOK_clean_linker_0, # of connection points: 2
#     Edge 120, Type (0, 1), BuildingBlock: AJUNOK_clean_linker_0, # of connection points: 2
#     Edge 121, Type (0, 1), BuildingBlock: AJUNOK_clean_linker_0, # of connection points: 2
#     Edge 122, Type (0, 1), BuildingBlock: AJUNOK_clean_linker_0, # of connection points: 2
#     Edge 123, Type (0, 1), BuildingBlock: AJUNOK_clean_linker_0, # of connection points: 2
#     Edge 124, Type (0, 1), BuildingBlock: AJUNOK_clean_linker_0, # of connection points: 2
#     Edge 125, Type (0, 1), BuildingBlock: AJUNOK_clean_linker_0, # of connection points: 2
#     Edge 126, Type (0, 1), BuildingBlock: AJUNOK_clean_linker_0, # of connection points: 2
#     Edge 127, Type (0, 1), BuildingBlock: AJUNOK_clean_linker_0, # of connection points: 2
#     Edge 128, Type (0, 1), BuildingBlock: AJUNOK_clean_linker_0, # of connection points: 2
#     Edge 129, Type (0, 1), BuildingBlock: AJUNOK_clean_linker_0, # of connection points: 2
#     Edge 130, Type (0, 1), BuildingBlock: AJUNOK_clean_linker_0, # of connection points: 2
#     Edge 131, Type (0, 1), BuildingBlock: AJUNOK_clean_linker_0, # of connection points: 2
#     Edge 132, Type (0, 1), BuildingBlock: AJUNOK_clean_linker_0, # of connection points: 2
#     Edge 133, Type (0, 1), BuildingBlock: AJUNOK_clean_linker_0, # of connection points: 2
#     Edge 134, Type (0, 1), BuildingBlock: AJUNOK_clean_linker_0, # of connection points: 2
#     Edge 135, Type (0, 1), BuildingBlock: AJUNOK_clean_linker_0, # of connection points: 2
# Relax obj value: 0.381
# Max RMSD: 0.309
# Mean RMSD: 0.173
data_MOF--net-iac--node1-NAHDIM_clean_sbu_0--node2-FUNLAD_clean_sbu_0--edge1-AJUNOK_clean_linker_0
_symmetry_space_group_name_H-M    P1
_symmetry_Int_Tables_number       1
_symmetry_cell_setting            triclinic
loop_
_symmetry_equiv_pos_as_xyz
'x, y, z'
_cell_length_a     41.979388
_cell_length_b     39.281218
_cell_length_c     43.847491
_cell_angle_alpha  89.636646
_cell_angle_beta   92.949719
_cell_angle_gamma 90.171917
loop_
_atom_site_label
_atom_site_type_symbol
_atom_site_fract_x
_atom_site_fract_y
_atom_site_fract_z
_atom_type_partial_charge
C0 C 0.01735 0.1508 0.16547 0.0
O1 O 0.01716 0.15425 0.13562 0.0
O2 O 0.08473 0.17021 0.12059 0.0
Zn3 Zn 0.07232 0.19067 0.15973 0.0
O4 O 0.05232 0.23543 0.15 0.0
C5 C 0.13112 0.22049 0.17182 0.0
O6 O 0.12521 0.22928 0.14316 0.0
O7 O 0.04095 0.16242 0.18145 0.0
C8 C 0.05747 0.26027 0.16791 0.0
O9 O 0.07106 0.25482 0.19514 0.0
C10 C 0.08437 0.18676 0.09552 0.0
O11 O 0.0741 0.2183 0.09429 0.0
O12 O 0.1117 0.201 0.18486 0.0
C13 C 0.12032 0.76331 0.3808 0.0
O14 O 0.12527 0.76591 0.41054 0.0
O15 O 0.05362 0.71632 0.4239 0.0
Zn16 Zn 0.05262 0.76169 0.39891 0.0
O17 O 0.05567 0.80519 0.42626 0.0
C18 C 0.9829 0.75393 0.38366 0.0
O19 O 0.98354 0.74275 0.41199 0.0
O20 O 0.09142 0.76136 0.3701 0.0
C21 C 0.04036 0.81126 0.45012 0.0
O22 O 0.02111 0.7877 0.46004 0.0
C23 C 0.06441 0.7106 0.45124 0.0
O24 O 0.07656 0.73606 0.4673 0.0
O25 O 0.00926 0.76339 0.37278 0.0
C26 C 0.54434 0.72744 0.71236 0.0
O27 O 0.55546 0.75526 0.69994 0.0
O28 O 0.58068 0.69074 0.64214 0.0
Zn29 Zn 0.59718 0.69718 0.68482 0.0
O30 O 0.62002 0.74192 0.68237 0.0
C31 C 0.64932 0.65942 0.71365 0.0
O32 O 0.66731 0.63266 0.71952 0.0
O33 O 0.55951 0.69977 0.71032 0.0
C34 C 0.63738 0.74652 0.65979 0.0
O35 O 0.64505 0.71998 0.64363 0.0
C36 C 0.56812 0.71458 0.62589 0.0
O37 O 0.56334 0.74476 0.63741 0.0
O38 O 0.62344 0.65623 0.69779 0.0
C39 C 0.60235 0.25301 0.84416 0.0
O40 O 0.57777 0.2395 0.82888 0.0
O41 O 0.55723 0.21 0.92002 0.0
Zn42 Zn 0.5564 0.25685 0.89648 0.0
O43 O 0.55494 0.29629 0.92802 0.0
C44 C 0.48714 0.25803 0.8804 0.0
O45 O 0.48688 0.25342 0.9101 0.0
O46 O 0.59869 0.26197 0.87184 0.0
C47 C 0.54554 0.32597 0.91968 0.0
O48 O 0.53739 0.33102 0.89067 0.0
C49 C 0.55116 0.20651 0.94819 0.0
O50 O 0.54394 0.23383 0.9635 0.0
O51 O 0.51427 0.25997 0.86839 0.0
C52 C 0.22145 0.96206 0.24489 0.0
O53 O 0.22484 0.9803 0.22004 0.0
O54 O 0.15058 0.01104 0.21552 0.0
Zn55 Zn 0.17468 0.01181 0.25612 0.0
O56 O 0.14615 0.01683 0.29096 0.0
C57 C 0.19983 0.07865 0.24704 0.0
O58 O 0.17345 0.08326 0.23009 0.0
O59 O 0.2001 0.96987 0.26301 0.0
C60 C 0.13735 0.04581 0.3001 0.0
O61 O 0.14467 0.0732 0.28472 0.0
C62 C 0.122 0.02138 0.21159 0.0
O63 O 0.10717 0.0328 0.23507 0.0
O64 O 0.20576 0.04977 0.25888 0.0
C65 C 0.24181 0.93633 0.58063 0.0
O66 O 0.24224 0.90801 0.59671 0.0
O67 O 0.3029 0.88383 0.60952 0.0
Zn68 Zn 0.30593 0.91361 0.57141 0.0
O69 O 0.30414 0.88594 0.53287 0.0
C70 C 0.37416 0.92371 0.5819 0.0
O71 O 0.37085 0.89628 0.59873 0.0
O72 O 0.2672 0.94552 0.56802 0.0
C73 C 0.32646 0.86587 0.52631 0.0
O74 O 0.34972 0.85966 0.54671 0.0
C75 C 0.29851 0.85173 0.60955 0.0
O76 O 0.29677 0.83524 0.58358 0.0
O77 O 0.34911 0.93798 0.57023 0.0
C78 C 0.38546 0.07797 0.73786 0.0
O79 O 0.39126 0.0671 0.71043 0.0
O80 O 0.4478 0.01626 0.72103 0.0
Zn81 Zn 0.42311 0.01881 0.75953 0.0
O82 O 0.45354 0.01668 0.79625 0.0
C83 C 0.39876 0.94951 0.75421 0.0
O84 O 0.42291 0.94517 0.73672 0.0
O85 O 0.39697 0.0618 0.7611 0.0
C86 C 0.47068 0.99036 0.80101 0.0
O87 O 0.46922 0.96574 0.78088 0.0
C88 C 0.47769 0.02202 0.72088 0.0
O89 O 0.49338 0.03029 0.74645 0.0
O90 O 0.39348 0.97896 0.76453 0.0
C91 C 0.37306 0.08454 0.96943 0.0
O92 O 0.38045 0.0948 0.9421 0.0
O93 O 0.34514 0.11129 0.05775 0.0
Zn94 Zn 0.3259 0.08899 0.01967 0.0
O95 O 0.285 0.11364 0.00922 0.0
C96 C 0.2973 0.03151 0.04599 0.0
O97 O 0.2963 0.05273 0.06897 0.0
O98 O 0.34905 0.09772 0.98118 0.0
C99 C 0.26534 0.10055 0.98965 0.0
O100 O 0.26842 0.06822 0.98303 0.0
C101 C 0.34317 0.14358 0.05789 0.0
O102 O 0.33158 0.15932 0.03324 0.0
O103 O 0.3142 0.03966 0.02391 0.0
C104 C 0.73678 0.42858 0.06833 0.0
O105 O 0.73643 0.39952 0.0833 0.0
O106 O 0.79829 0.37446 0.09767 0.0
Zn107 Zn 0.80148 0.40704 0.06101 0.0
O108 O 0.80088 0.38008 0.02221 0.0
C109 C 0.8691 0.42428 0.07263 0.0
O110 O 0.86965 0.39546 0.08804 0.0
O111 O 0.76254 0.43813 0.0568 0.0
C112 C 0.82621 0.36868 0.01133 0.0
O113 O 0.85361 0.37298 0.02658 0.0
C114 C 0.80296 0.34243 0.09607 0.0
O115 O 0.81182 0.32953 0.07031 0.0
O116 O 0.84247 0.43515 0.06137 0.0
C117 C 0.87927 0.55654 0.23485 0.0
O118 O 0.8934 0.55562 0.20882 0.0
O119 O 0.93947 0.49913 0.21004 0.0
Zn120 Zn 0.91366 0.49263 0.24794 0.0
O121 O 0.94372 0.49143 0.28479 0.0
C122 C 0.89631 0.41997 0.23932 0.0
O123 O 0.92172 0.41798 0.22312 0.0
O124 O 0.88412 0.53243 0.25397 0.0
C125 C 0.96121 0.46594 0.29182 0.0
O126 O 0.95965 0.43874 0.27458 0.0
C127 C 0.96929 0.5056 0.21263 0.0
O128 O 0.98352 0.50788 0.23988 0.0
O129 O 0.88826 0.44875 0.2495 0.0
C130 C 0.8683 0.55316 0.55009 0.0
O131 O 0.8477 0.53415 0.56403 0.0
O132 O 0.82672 0.6512 0.57349 0.0
Zn133 Zn 0.82145 0.60342 0.55882 0.0
O134 O 0.7907 0.60493 0.52212 0.0
C135 C 0.78057 0.56458 0.59933 0.0
O136 O 0.77471 0.54906 0.62505 0.0
O137 O 0.86247 0.58451 0.54537 0.0
C138 C 0.77011 0.62856 0.51919 0.0
O139 O 0.76625 0.64883 0.54241 0.0
C140 C 0.8516 0.66481 0.58577 0.0
O141 O 0.87821 0.64725 0.58799 0.0
O142 O 0.8082 0.57626 0.59539 0.0
C143 C 0.72035 0.47947 0.73091 0.0
O144 O 0.71072 0.48852 0.70306 0.0
O145 O 0.65838 0.53953 0.70884 0.0
Zn146 Zn 0.68407 0.5387 0.74919 0.0
O147 O 0.65615 0.53739 0.78468 0.0
C148 C 0.72022 0.59151 0.77984 0.0
O149 O 0.71428 0.57299 0.80395 0.0
O150 O 0.71223 0.49737 0.75322 0.0
C151 C 0.63927 0.56215 0.79288 0.0
O152 O 0.63672 0.58955 0.7756 0.0
C153 C 0.62826 0.53601 0.70569 0.0
O154 O 0.61181 0.53113 0.73003 0.0
O155 O 0.71049 0.58124 0.75352 0.0
C156 C 0.06157 0.85398 0.89017 0.0
O157 O 0.06063 0.86088 0.91937 0.0
O158 O 0.00551 0.77882 0.91279 0.0
Zn159 Zn 0.99971 0.82708 0.89991 0.0
O160 O 0.99716 0.85362 0.93841 0.0
C161 C 0.93619 0.81282 0.88239 0.0
O162 O 0.94066 0.79069 0.90474 0.0
O163 O 0.03719 0.84103 0.87633 0.0
C164 C 0.98059 0.84504 0.96073 0.0
O165 O 0.96196 0.8182 0.95914 0.0
C166 C 0.0231 0.77372 0.93672 0.0
O167 O 0.03915 0.79914 0.94935 0.0
O168 O 0.95911 0.83187 0.87522 0.0
C169 C 0.97433 0.27127 0.68154 0.0
O170 O 0.97494 0.27531 0.65181 0.0
O171 O 0.04547 0.21548 0.64925 0.0
Zn172 Zn 0.04336 0.262 0.67211 0.0
O173 O 0.0443 0.3044 0.64336 0.0
C174 C 0.11204 0.26196 0.68872 0.0
O175 O 0.11227 0.25936 0.65889 0.0
O176 O 1.00087 0.26514 0.6963 0.0
C177 C 0.05787 0.30797 0.61811 0.0
O178 O 0.07344 0.28213 0.60732 0.0
C179 C 0.03751 0.20827 0.6215 0.0
O180 O 0.02494 0.23218 0.60364 0.0
O181 O 0.08496 0.26373 0.70081 0.0
C182 C 0.56351 0.33974 0.36292 0.0
O183 O 0.55716 0.37006 0.37348 0.0
O184 O 0.5248 0.27249 0.43037 0.0
Zn185 Zn 0.51767 0.31407 0.40518 0.0
O186 O 0.52341 0.35509 0.43112 0.0
C187 C 0.45253 0.29295 0.39784 0.0
O188 O 0.45595 0.28563 0.42706 0.0
O189 O 0.54963 0.31378 0.37342 0.0
C190 C 0.50242 0.36804 0.44723 0.0
O191 O 0.47329 0.35565 0.44567 0.0
C192 C 0.51963 0.27064 0.45858 0.0
O193 O 0.51189 0.29823 0.47317 0.0
O194 O 0.47468 0.30838 0.38464 0.0
C195 C 0.47335 0.76073 0.18628 0.0
O196 O 0.4712 0.76264 0.15632 0.0
O197 O 0.53946 0.70734 0.14791 0.0
Zn198 Zn 0.54145 0.7529 0.17232 0.0
O199 O 0.5421 0.79439 0.14214 0.0
C200 C 0.61122 0.75207 0.18743 0.0
O201 O 0.61161 0.75591 0.15767 0.0
O202 O 0.50116 0.75673 0.19917 0.0
C203 C 0.53384 0.82426 0.14995 0.0
O204 O 0.52499 0.82862 0.17797 0.0
C205 C 0.55185 0.70423 0.12205 0.0
O206 O 0.56495 0.73125 0.11007 0.0
O207 O 0.5841 0.75111 0.19949 0.0
C208 C 0.87108 0.08075 0.78052 0.0
O209 O 0.88003 0.06528 0.75593 0.0
O210 O 0.91795 0.00458 0.77664 0.0
Zn211 Zn 0.89294 0.0193 0.81179 0.0
O212 O 0.9208 0.01695 0.85029 0.0
C213 C 0.83693 0.98868 0.78832 0.0
O214 O 0.84515 0.00712 0.76493 0.0
O215 O 0.87618 0.06677 0.80647 0.0
C216 C 0.94564 0.99855 0.8537 0.0
O217 O 0.95298 0.97792 0.8317 0.0
C218 C 0.94349 0.01943 0.76981 0.0
O219 O 0.95327 0.04625 0.78546 0.0
O220 O 0.85463 0.98898 0.81276 0.0
C221 C 0.8636 0.08082 0.49191 0.0
O222 O 0.86476 0.1086 0.47516 0.0
O223 O 0.80485 0.13917 0.52847 0.0
Zn224 Zn 0.79994 0.10459 0.49508 0.0
O225 O 0.8028 0.12773 0.45337 0.0
C226 C 0.73509 0.0986 0.51269 0.0
O227 O 0.73954 0.13148 0.5158 0.0
O228 O 0.83715 0.07223 0.50262 0.0
C229 C 0.7812 0.14591 0.44004 0.0
O230 O 0.75369 0.1491 0.45271 0.0
C231 C 0.7996 0.17096 0.52656 0.0
O232 O 0.79237 0.18484 0.4998 0.0
O233 O 0.75736 0.08082 0.50213 0.0
C234 C 0.71139 0.93476 0.33327 0.0
O235 O 0.70331 0.9394 0.36149 0.0
O236 O 0.63737 0.99413 0.2846 0.0
Zn237 Zn 0.6702 0.9939 0.31982 0.0
O238 O 0.64946 0.98683 0.36071 0.0
C239 C 0.67941 0.06469 0.30327 0.0
O240 O 0.64829 0.06302 0.29895 0.0
O241 O 0.70041 0.95485 0.31246 0.0
C242 C 0.6326 0.00897 0.37339 0.0
O243 O 0.62903 0.03907 0.36046 0.0
C244 C 0.60794 0.00176 0.2846 0.0
O245 O 0.59467 0.00648 0.31068 0.0
O246 O 0.69424 0.0389 0.31469 0.0
C247 C 0.72327 0.95773 0.11479 0.0
O248 O 0.72125 0.95538 0.14452 0.0
O249 O 0.80144 0.91152 0.06887 0.0
Zn250 Zn 0.7642 0.94251 0.06031 0.0
O251 O 0.73627 0.92065 0.02662 0.0
C252 C 0.78807 0.01145 0.06708 0.0
O253 O 0.7759 0.00923 0.09401 0.0
O254 O 0.74691 0.9442 0.10267 0.0
C255 C 0.73189 0.93351 8e-05 0.0
O256 O 0.74332 0.96405 0.99483 0.0
C257 C 0.80148 0.88061 0.06062 0.0
O258 O 0.77931 0.87003 0.04064 0.0
O259 O 0.78304 0.98734 0.0482 0.0
C260 C 0.35277 0.56945 0.01957 0.0
O261 O 0.34081 0.57228 0.04655 0.0
O262 O 0.30156 0.6372 0.03934 0.0
Zn263 Zn 0.29792 0.61137 -0.00027 0.0
O264 O 0.29895 0.6441 0.96376 0.0
C265 C 0.23327 0.60011 0.0145 0.0
O266 O 0.23726 0.63233 0.02151 0.0
O267 O 0.33749 0.58213 0.99646 0.0
C268 C 0.27858 0.66576 0.95355 0.0
O269 O 0.25102 0.66799 0.96628 0.0
C270 C 0.29856 0.66928 0.04115 0.0
O271 O 0.29786 0.68777 0.01611 0.0
O272 O 0.25603 0.58452 0.00235 0.0
C273 C 0.22255 0.45249 0.84444 0.0
O274 O 0.20755 0.45255 0.87001 0.0
O275 O 0.15869 0.51414 0.79075 0.0
Zn276 Zn 0.18523 0.51401 0.82999 0.0
O277 O 0.15821 0.50415 0.86617 0.0
C278 C 0.19363 0.58556 0.81819 0.0
O279 O 0.16354 0.58263 0.80886 0.0
O280 O 0.21737 0.47651 0.82529 0.0
C281 C 0.13818 0.52479 0.87645 0.0
O282 O 0.13524 0.55522 0.86405 0.0
C283 C 0.12897 0.51934 0.78633 0.0
O284 O 0.11109 0.52257 0.80981 0.0
O285 O 0.20769 0.55992 0.83069 0.0
C286 C 0.2646 0.51404 0.52513 0.0
O287 O 0.27632 0.54355 0.53412 0.0
O288 O 0.29593 0.41395 0.54184 0.0
Zn289 Zn 0.27671 0.44119 0.50647 0.0
O290 O 0.23139 0.42666 0.49666 0.0
C291 C 0.32509 0.44014 0.45971 0.0
O292 O 0.33667 0.42924 0.43431 0.0
O293 O 0.28349 0.49103 0.51693 0.0
C294 C 0.22512 0.39514 0.49939 0.0
O295 O 0.24005 0.37806 0.52162 0.0
C296 C 0.29082 0.42454 0.56847 0.0
O297 O 0.27318 0.45179 0.57117 0.0
O298 O 0.29827 0.42926 0.46767 0.0
C299 C 0.36146 0.56662 0.3159 0.0
O300 O 0.36192 0.55181 0.34288 0.0
O301 O 0.4329 0.5019 0.27399 0.0
Zn302 Zn 0.40377 0.51386 0.30637 0.0
O303 O 0.42777 0.52107 0.3458 0.0
C304 C 0.3857 0.44626 0.30511 0.0
O305 O 0.41672 0.44345 0.30331 0.0
O306 O 0.37862 0.55488 0.29548 0.0
C307 C 0.44947 0.54352 0.34894 0.0
O308 O 0.45751 0.56136 0.32508 0.0
C309 C 0.4434 0.52224 0.25442 0.0
O310 O 0.43653 0.55479 0.25584 0.0
O311 O 0.3737 0.47535 0.30899 0.0
C312 C 0.02038 0.01178 0.96811 0.0
N313 N 0.97634 0.04393 0.04599 0.0
C314 C 0.96053 0.06598 0.02652 0.0
C315 C 0.92865 0.074 0.03067 0.0
C316 C 0.91328 0.05956 0.05532 0.0
C317 C 0.93092 0.03894 0.07624 0.0
C318 C 0.96251 0.03127 0.07103 0.0
Zn319 Zn 0.01948 0.02485 0.0356 0.0
C320 C 0.0195 0.95001 0.03523 0.0
N321 N 0.10929 0.98516 0.01212 0.0
C322 C 0.12778 0.00114 0.99183 0.0
C323 C 0.12187 0.9617 0.0323 0.0
C324 C 0.15474 0.95646 0.03499 0.0
C325 C 0.17472 0.97538 0.01661 0.0
C326 C 0.16081 0.99654 0.99365 0.0
Zn327 Zn 0.06539 0.00437 0.02064 0.0
O328 O 1.00419 0.02263 0.98967 0.0
C329 C 0.06503 0.07921 0.02069 0.0
O330 O 0.04896 0.00193 0.97379 0.0
H331 H 0.10684 0.94947 0.04843 0.0
H332 H 0.97206 0.07585 0.00681 0.0
H333 H 0.11734 0.01989 0.97618 0.0
O334 O 0.03701 0.07383 0.02925 0.0
O335 O 0.08269 0.0542 0.01478 0.0
H336 H 0.97535 0.01352 0.08602 0.0
O337 O 0.0807 0.00692 0.06729 0.0
O338 O 0.0354 0.0269 0.08178 0.0
O339 O 0.04761 0.95547 0.02692 0.0
O340 O 1.002 0.97507 0.04136 0.0
C341 C 0.06375 0.01741 0.08842 0.0
H342 H 0.91566 0.08975 0.01394 0.0
H343 H 0.9197 0.02657 0.09508 0.0
H344 H 0.16464 0.94001 0.05298 0.0
H345 H 0.17545 0.01202 0.97935 0.0
C346 C 0.35568 0.77009 0.25534 0.0
N347 N 0.26551 0.74709 0.21721 0.0
C348 C 0.27547 0.76802 0.19471 0.0
C349 C 0.27504 0.75702 0.16467 0.0
C350 C 0.26431 0.72411 0.15756 0.0
C351 C 0.25183 0.70388 0.18068 0.0
C352 C 0.25256 0.71602 0.21063 0.0
Zn353 Zn 0.28225 0.75928 0.26029 0.0
C354 C 0.30723 0.69938 0.29417 0.0
N355 N 0.32658 0.78654 0.34574 0.0
C356 C 0.3417 0.81686 0.35067 0.0
C357 C 0.3176 0.76673 0.36943 0.0
C358 C 0.32195 0.77813 0.39936 0.0
C359 C 0.33509 0.81041 0.40481 0.0
C360 C 0.34604 0.82949 0.38029 0.0
Zn361 Zn 0.30884 0.77392 0.30318 0.0
O362 O 0.32898 0.76283 0.24185 0.0
C363 C 0.28348 0.8339 0.26911 0.0
O364 O 0.35588 0.77733 0.28368 0.0
H365 H 0.30499 0.74309 0.36508 0.0
H366 H 0.28679 0.79206 0.20027 0.0
H367 H 0.34853 0.83225 0.33153 0.0
O368 O 0.2735 0.81078 0.25101 0.0
O369 O 0.29969 0.82584 0.29327 0.0
H370 H 0.24514 0.69959 0.22884 0.0
O371 O 0.26181 0.76999 0.32191 0.0
O372 O 0.2356 0.7555 0.27949 0.0
O373 O 0.31744 0.7222 0.31255 0.0
O374 O 0.29112 0.70785 0.2701 0.0
C375 C 0.23538 0.76231 0.30791 0.0
H376 H 0.28565 0.77306 0.14773 0.0
H377 H 0.24335 0.67829 0.17595 0.0
H378 H 0.31304 0.76296 0.41783 0.0
H379 H 0.3564 0.85453 0.3839 0.0
C380 C 0.54599 0.01489 0.60911 0.0
N381 N 0.59352 0.93413 0.57126 0.0
C382 C 0.61587 0.93682 0.59475 0.0
C383 C 0.62895 0.90779 0.60874 0.0
C384 C 0.61859 0.87562 0.5988 0.0
C385 C 0.5965 0.87344 0.57367 0.0
C386 C 0.58414 0.90325 0.56014 0.0
Zn387 Zn 0.57208 0.97816 0.55655 0.0
C388 C 0.50009 0.97052 0.54744 0.0
N389 N 0.52782 0.07061 0.53072 0.0
C390 C 0.53744 0.09751 0.54832 0.0
C391 C 0.50944 0.07485 0.50455 0.0
C392 C 0.5018 0.10758 0.49416 0.0
C393 C 0.51317 0.13574 0.51106 0.0
C394 C 0.53032 0.13048 0.53887 0.0
Zn395 Zn 0.54708 0.02531 0.54248 0.0
O396 O 0.56331 0.98944 0.60351 0.0
C397 C 0.61834 0.03422 0.55164 0.0
O398 O 0.53759 0.03506 0.58764 0.0
H399 H 0.50223 0.053 0.49096 0.0
H400 H 0.6228 0.96158 0.60347 0.0
H401 H 0.55245 0.09357 0.56879 0.0
O402 O 0.61749 0.00282 0.55845 0.0
O403 O 0.59224 0.04974 0.54603 0.0
H404 H 0.56623 0.90174 0.54156 0.0
O405 O 0.55604 0.01537 0.49689 0.0
O406 O 0.58052 0.96763 0.50918 0.0
O407 O 0.50212 0.00134 0.53876 0.0
O408 O 0.52569 0.95415 0.55437 0.0
C409 C 0.57196 0.98976 0.48896 0.0
H410 H 0.64633 0.91049 0.62771 0.0
H411 H 0.58784 0.84899 0.56545 0.0
H412 H 0.4886 0.11094 0.47246 0.0
H413 H 0.54016 0.1516 0.55208 0.0
C414 C 0.31635 0.20229 0.7619 0.0
N415 N 0.27216 0.22939 0.84177 0.0
C416 C 0.24893 0.20542 0.83741 0.0
C417 C 0.2372 0.1879 0.8622 0.0
C418 C 0.2502 0.19425 0.89176 0.0
C419 C 0.27369 0.21971 0.89563 0.0
C420 C 0.28402 0.23738 0.87027 0.0
Zn421 Zn 0.28966 0.25296 0.80465 0.0
C422 C 0.36128 0.26764 0.81359 0.0
N423 N 0.3246 0.30093 0.72598 0.0
C424 C 0.31411 0.28816 0.69848 0.0
C425 C 0.33931 0.33179 0.72815 0.0
C426 C 0.34132 0.35242 0.70224 0.0
C427 C 0.32783 0.34113 0.6741 0.0
C428 C 0.31555 0.30793 0.6721 0.0
Zn429 Zn 0.30959 0.27711 0.76408 0.0
O430 O 0.30174 0.20485 0.7865 0.0
C431 C 0.23807 0.26226 0.7551 0.0
O432 O 0.32221 0.22908 0.74679 0.0
H433 H 0.34746 0.34141 0.75026 0.0
H434 H 0.23996 0.19912 0.8146 0.0
H435 H 0.30231 0.26366 0.69731 0.0
O436 O 0.24252 0.25128 0.78228 0.0
O437 O 0.26209 0.2737 0.74167 0.0
H438 H 0.30229 0.25669 0.87328 0.0
O439 O 0.29684 0.3251 0.78224 0.0
O440 O 0.27827 0.30079 0.82273 0.0
O441 O 0.35692 0.28007 0.78674 0.0
O442 O 0.33724 0.25525 0.82653 0.0
C443 C 0.28364 0.32767 0.80756 0.0
H444 H 0.21907 0.16857 0.85811 0.0
H445 H 0.28529 0.2248 0.91775 0.0
H446 H 0.35157 0.37767 0.70453 0.0
H447 H 0.30485 0.29832 0.65084 0.0
C448 C 0.11508 0.99438 0.55628 0.0
N449 N 0.06913 0.03767 0.4787 0.0
C450 C 0.0957 0.05647 0.47397 0.0
C451 C 0.10452 0.06305 0.44421 0.0
C452 C 0.0856 0.05019 0.41954 0.0
C453 C 0.05746 0.03265 0.42515 0.0
C454 C 0.04974 0.02645 0.45503 0.0
Zn455 Zn 0.05864 0.02018 0.52041 0.0
C456 C 0.04642 0.94281 0.51477 0.0
N457 N 0.03164 0.97857 0.60448 0.0
C458 C 0.05104 0.98868 0.62857 0.0
C459 C 1.00223 0.96525 0.60869 0.0
C460 C 0.99005 0.96507 0.63775 0.0
C461 C 0.00861 0.97822 0.66255 0.0
C462 C 0.04005 0.98842 0.65797 0.0
Zn463 Zn 0.04332 0.99545 0.56245 0.0
O464 O 0.10772 0.01098 0.53199 0.0
C465 C 0.05489 0.07309 0.56742 0.0
O466 O 0.09289 0.98504 0.57324 0.0
H467 H 0.98711 0.95754 0.58923 0.0
H468 H 0.11082 0.06487 0.4932 0.0
H469 H 0.07405 -0.0001 0.62479 0.0
O470 O 0.06174 0.07038 0.53958 0.0
O471 O 0.0477 0.04617 0.58189 0.0
H472 H 0.02901 0.01108 0.45919 0.0
O473 O 0.99397 0.00605 0.55071 0.0
O474 O 0.01003 0.02956 0.50901 0.0
O475 O 0.03858 0.94511 0.54241 0.0
O476 O 0.05518 0.96975 0.50129 0.0
C477 C 0.98739 0.02154 0.52569 0.0
H478 H 0.12671 0.07624 0.44059 0.0
H479 H 0.04239 0.02238 0.4066 0.0
H480 H 0.9655 0.95744 0.64018 0.0
H481 H 0.05516 0.99851 0.67656 0.0
C482 C 0.28482 0.7857 0.72707 0.0
N483 N 0.3571 0.73161 0.77554 0.0
C484 C 0.36082 0.7167 0.74803 0.0
C485 C 0.39136 0.71029 0.7384 0.0
C486 C 0.41786 0.71876 0.75762 0.0
C487 C 0.4133 0.73087 0.78697 0.0
C488 C 0.38246 0.73747 0.79545 0.0
Zn489 Zn 0.3156 0.75515 0.78405 0.0
C490 C 0.32886 0.82958 0.79187 0.0
N491 N 0.23215 0.81034 0.80308 0.0
C492 C 0.20303 0.79958 0.79194 0.0
C493 C 0.235 0.8358 0.82397 0.0
C494 C 0.20797 0.85028 0.8356 0.0
C495 C 0.17773 0.8375 0.82662 0.0
C496 C 0.17534 0.81272 0.80363 0.0
Zn497 Zn 0.27239 0.78478 0.79287 0.0
O498 O 0.30779 0.76701 0.73695 0.0
C499 C 0.2606 0.70954 0.78537 0.0
O500 O 0.26461 0.79598 0.74559 0.0
H501 H 0.25827 0.84385 0.83288 0.0
H502 H 0.34033 0.71224 0.7326 0.0
H503 H 0.20125 0.77952 0.77516 0.0
O504 O 0.29003 0.70951 0.77995 0.0
O505 O 0.24658 0.73771 0.78948 0.0
H506 H 0.37912 0.74999 0.81691 0.0
O507 O 0.28008 0.7732 0.84018 0.0
O508 O 0.32221 0.74328 0.83079 0.0
O509 O 0.2992 0.83077 0.796 0.0
O510 O 0.34172 0.80084 0.7883 0.0
C511 C 0.30216 0.75304 0.84952 0.0
H512 H 0.39435 0.70092 0.71553 0.0
H513 H 0.43342 0.73793 0.80211 0.0
H514 H 0.21084 0.87014 0.85254 0.0
H515 H 0.15246 0.80216 0.796 0.0
C516 C 0.53625 0.94645 0.07095 0.0
N517 N 0.53509 0.04508 0.10583 0.0
C518 C 0.51479 0.02951 0.12477 0.0
C519 C 0.52153 0.02944 0.15626 0.0
C520 C 0.54917 0.04586 0.16803 0.0
C521 C 0.56693 0.06585 0.14832 0.0
C522 C 0.55939 0.06512 0.11699 0.0
Zn523 Zn 0.5385 0.0248 0.06347 0.0
C524 C 0.60739 0.00564 0.05501 0.0
N525 N 0.55058 0.97526 0.9797 0.0
C526 C 0.52725 0.95343 0.96947 0.0
C527 C 0.57055 0.99045 0.96026 0.0
C528 C 0.56453 0.98777 0.92884 0.0
C529 C 0.53806 0.96894 0.91778 0.0
C530 C 0.52057 0.94979 0.93819 0.0
Zn531 Zn 0.5472 0.99618 0.0215 0.0
O532 O 0.53313 0.97501 0.08398 0.0
C533 C 0.47834 0.01599 0.02927 0.0
O534 O 0.54193 0.94648 0.0427 0.0
H535 H 0.58889 0.00773 0.96898 0.0
H536 H 0.49574 0.01354 0.11537 0.0
H537 H 0.51154 0.9419 0.9854 0.0
O538 O 0.48899 0.0288 0.0543 0.0
O539 O 0.49743 0.00044 0.01273 0.0
H540 H 0.57525 0.07717 0.1015 0.0
O541 O 0.5525 0.04641 0.00067 0.0
O542 O 0.5441 0.07421 0.04252 0.0
O543 O 0.59651 0.99242 0.03029 0.0
O544 O 0.5884 0.02064 0.07207 0.0
C545 C 0.54969 0.07476 0.01421 0.0
H546 H 0.5074 0.01353 0.17066 0.0
H547 H 0.58828 0.07906 0.15671 0.0
H548 H 0.57839 0.00286 0.91351 0.0
H549 H 0.49982 0.93526 0.93024 0.0
C550 C 0.26842 0.19582 0.29131 0.0
N551 N 0.32922 0.23921 0.2298 0.0
C552 C 0.34011 0.20664 0.22887 0.0
C553 C 0.34902 0.19271 0.20136 0.0
C554 C 0.34786 0.21284 0.17471 0.0
C555 C 0.33959 0.24736 0.17714 0.0
C556 C 0.32981 0.25991 0.20485 0.0
Zn557 Zn 0.30432 0.2545 0.2664 0.0
C558 C 0.23748 0.27023 0.2462 0.0
N559 N 0.24815 0.28367 0.34064 0.0
C560 C 0.25404 0.27023 0.36902 0.0
C561 C 0.22821 0.3107 0.33608 0.0
C562 C 0.21468 0.32637 0.36077 0.0
C563 C 0.22222 0.31465 0.39059 0.0
C564 C 0.24152 0.28557 0.39445 0.0
Zn565 Zn 0.27391 0.26773 0.30488 0.0
O566 O 0.28834 0.2049 0.27211 0.0
C567 C 0.34141 0.25187 0.32451 0.0
O568 O 0.2582 0.2173 0.30999 0.0
H569 H 0.22411 0.32139 0.31345 0.0
H570 H 0.33976 0.19056 0.24895 0.0
H571 H 0.27 0.2488 0.37222 0.0
O572 O 0.34348 0.24616 0.29622 0.0
O573 O 0.31456 0.25984 0.33456 0.0
H574 H 0.32079 0.2856 0.20582 0.0
O575 O 0.28956 0.31798 0.29909 0.0
O576 O 0.31977 0.30448 0.26168 0.0
O577 O 0.23456 0.27512 0.27449 0.0
O578 O 0.26462 0.26297 0.23664 0.0
C579 C 0.30976 0.32654 0.27989 0.0
H580 H 0.35444 0.16582 0.20075 0.0
H581 H 0.3388 0.26405 0.15737 0.0
H582 H 0.19984 0.34862 0.35668 0.0
H583 H 0.24877 0.27607 0.41697 0.0
C584 C 0.61283 0.49236 0.04394 0.0
N585 N 0.56545 0.54254 0.96913 0.0
C586 C 0.5931 0.56033 0.96703 0.0
C587 C 0.6039 0.56903 0.93846 0.0
C588 C 0.58584 0.55954 0.91208 0.0
C589 C 0.55628 0.54359 0.91491 0.0
C590 C 0.54652 0.53507 0.94391 0.0
Zn591 Zn 0.55499 0.52139 0.00977 0.0
C592 C 0.5428 0.44516 0.00035 0.0
N593 N 0.53267 0.47461 0.093 0.0
C594 C 0.55216 0.48518 0.11688 0.0
C595 C 0.50381 0.46011 0.09752 0.0
C596 C 0.49194 0.45981 0.12669 0.0
C597 C 0.51026 0.47429 0.15099 0.0
C598 C 0.54143 0.48499 0.14628 0.0
Zn599 Zn 0.54275 0.49417 0.05165 0.0
O600 O 0.60542 0.50891 0.01951 0.0
C601 C 0.55472 0.5714 0.05979 0.0
O602 O 0.59082 0.48405 0.06117 0.0
H603 H 0.48865 0.45208 0.0782 0.0
H604 H 0.60767 0.56606 0.98741 0.0
H605 H 0.57465 0.49741 0.1129 0.0
O606 O 0.56092 0.56936 0.0318 0.0
O607 O 0.54694 0.54421 0.07358 0.0
H608 H 0.52475 0.52069 0.94615 0.0
O609 O 0.49426 0.50402 0.04219 0.0
O610 O 0.50467 0.53312 0.00121 0.0
O611 O 0.53852 0.44485 0.02898 0.0
O612 O 0.54888 0.47343 0.98757 0.0
C613 C 0.48441 0.522 0.01956 0.0
H614 H 0.62689 0.58136 0.93689 0.0
H615 H 0.542 0.53567 0.8949 0.0
H616 H 0.46762 0.45159 0.12954 0.0
H617 H 0.55616 0.49622 0.16461 0.0
C618 C 0.78292 0.25861 0.20394 0.0
N619 N 0.84843 0.19297 0.24833 0.0
C620 C 0.84409 0.16998 0.22539 0.0
C621 C 0.87007 0.15271 0.21442 0.0
C622 C 0.9009 0.15962 0.22679 0.0
C623 C 0.90445 0.18234 0.25141 0.0
C624 C 0.87772 0.19858 0.26205 0.0
Zn625 Zn 0.81086 0.22216 0.25939 0.0
C626 C 0.82928 0.29504 0.27017 0.0
N627 N 0.73175 0.2827 0.27969 0.0
C628 C 0.70536 0.28137 0.2604 0.0
C629 C 0.7319 0.30028 0.30631 0.0
C630 C 0.70394 0.31529 0.3155 0.0
C631 C 0.67582 0.31225 0.29696 0.0
C632 C 0.67706 0.29645 0.26847 0.0
Zn633 Zn 0.76996 0.2543 0.26981 0.0
O634 O 0.80323 0.23592 0.21212 0.0
C635 C 0.75077 0.18183 0.26024 0.0
O636 O 0.76425 0.26955 0.2235 0.0
H637 H 0.75328 0.30119 0.32114 0.0
H638 H 0.82061 0.1661 0.21464 0.0
H639 H 0.70581 0.26725 0.23935 0.0
O640 O 0.78032 0.17879 0.25592 0.0
O641 O 0.73951 0.21143 0.2638 0.0
H642 H 0.88059 0.21696 0.28024 0.0
O643 O 0.77636 0.23905 0.31621 0.0
O644 O 0.81845 0.20896 0.30656 0.0
O645 O 0.80008 0.2968 0.27623 0.0
O646 O 0.84084 0.26628 0.26346 0.0
C647 C 0.79837 0.21872 0.32542 0.0
H648 H 0.86626 0.13539 0.19544 0.0
H649 H 0.92779 0.18926 0.26112 0.0
H650 H 0.70386 0.32725 0.33769 0.0
H651 H 0.65597 0.29424 0.2533 0.0
C652 C 0.06019 0.4415 0.5569 0.0
N653 N 0.06995 0.53592 0.59903 0.0
C654 C 0.05012 0.52173 0.61921 0.0
C655 C 0.05638 0.52534 0.65045 0.0
C656 C 0.08332 0.54369 0.66103 0.0
C657 C 0.10211 0.56019 0.6398 0.0
C658 C 0.09492 0.55597 0.6086 0.0
Zn659 Zn 0.06518 0.51905 0.55538 0.0
C660 C 0.12769 0.50299 0.53004 0.0
N661 N 0.05409 0.47823 0.46658 0.0
C662 C 0.03033 0.45544 0.45999 0.0
C663 C 0.07083 0.49297 0.44424 0.0
C664 C 0.06189 0.48731 0.41367 0.0
C665 C 0.03552 0.4664 0.40633 0.0
C666 C 0.02063 0.44901 0.42973 0.0
Zn667 Zn 0.05973 0.49617 0.50957 0.0
O668 O 0.06326 0.46791 0.57339 0.0
C669 C 0.9976 0.51307 0.53468 0.0
O670 O 0.05818 0.44526 0.52802 0.0
H671 H 0.0897 0.51094 0.4501 0.0
H672 H 0.03073 0.50539 0.61122 0.0
H673 H 0.01737 0.44411 0.47819 0.0
O674 O 0.01573 0.5228 0.5569 0.0
O675 O 0.00947 0.50058 0.51122 0.0
H676 H 0.11043 0.56685 0.59214 0.0
O677 O 0.06106 0.5472 0.4916 0.0
O678 O 0.06681 0.57037 0.53679 0.0
O679 O 0.10976 0.49259 0.50781 0.0
O680 O 0.11512 0.5151 0.55337 0.0
C681 C 0.06399 0.57387 0.50783 0.0
H682 H 0.04175 0.5116 0.66606 0.0
H683 H 0.12315 0.57453 0.64725 0.0
H684 H 0.07408 0.50079 0.39604 0.0
H685 H 1.00012 0.43279 0.42479 0.0
C686 C 0.81543 0.68162 0.26805 0.0
N687 N 0.76962 0.71489 0.34482 0.0
C688 C 0.75371 0.68461 0.34399 0.0
C689 C 0.7452 0.66883 0.37106 0.0
C690 C 0.75261 0.68476 0.39907 0.0
C691 C 0.76776 0.71666 0.39915 0.0
C692 C 0.77625 0.73126 0.37165 0.0
Zn693 Zn 0.78666 0.73484 0.30573 0.0
C694 C 0.85762 0.75369 0.31534 0.0
N695 N 0.8237 0.77616 0.22436 0.0
C696 C 0.82219 0.75529 0.19962 0.0
C697 C 0.83282 0.80927 0.22167 0.0
C698 C 0.83836 0.82311 0.19297 0.0
C699 C 0.83557 0.80237 0.16689 0.0
C700 C 0.82887 0.76768 0.17085 0.0
Zn701 Zn 0.80721 0.75757 0.26458 0.0
O702 O 0.79987 0.6849 0.29192 0.0
C703 C 0.73627 0.73998 0.25494 0.0
O704 O 0.82148 0.70799 0.25256 0.0
H705 H 0.83405 0.82556 0.24147 0.0
H706 H 0.74859 0.67208 0.32239 0.0
H707 H 0.81416 0.72931 0.20159 0.0
O708 O 0.73992 0.73011 0.28264 0.0
O709 O 0.76067 0.75088 0.2417 0.0
H710 H 0.7892 0.7551 0.37184 0.0
O711 O 0.79242 0.80693 0.27778 0.0
O712 O 0.77365 0.78465 0.31913 0.0
O713 O 0.85342 0.76441 0.28792 0.0
O714 O 0.83385 0.74058 0.32823 0.0
C715 C 0.77816 0.81063 0.30243 0.0
H716 H 0.73377 0.64407 0.37021 0.0
H717 H 0.77454 0.72933 0.42039 0.0
H718 H 0.84258 0.85021 0.19116 0.0
H719 H 0.82673 0.75062 0.15154 0.0
C720 C 0.85025 0.28355 0.74004 0.0
N721 N 0.7624 0.25956 0.69714 0.0
C722 C 0.7729 0.28062 0.67497 0.0
C723 C 0.77456 0.26908 0.64514 0.0
C724 C 0.76566 0.23554 0.63839 0.0
C725 C 0.75185 0.21551 0.66082 0.0
C726 C 0.75025 0.22823 0.69033 0.0
Zn727 Zn 0.77727 0.2706 0.74085 0.0
C728 C 0.80407 0.2096 0.77275 0.0
N729 N 0.81585 0.29397 0.82895 0.0
C730 C 0.83223 0.32313 0.83563 0.0
C731 C 0.80559 0.27309 0.85131 0.0
C732 C 0.80998 0.28224 0.8818 0.0
C733 C 0.82483 0.31325 0.88922 0.0
C734 C 0.83712 0.33331 0.86597 0.0
Zn735 Zn 0.80001 0.28325 0.78574 0.0
O736 O 0.8246 0.27713 0.72438 0.0
C737 C 0.77433 0.3448 0.7528 0.0
O738 O 0.84811 0.2892 0.76849 0.0
H739 H 0.79241 0.25017 0.84547 0.0
H740 H 0.78311 0.30514 0.6809 0.0
H741 H 0.84 0.33934 0.8174 0.0
O742 O 0.76646 0.32232 0.73316 0.0
O743 O 0.78932 0.33576 0.77743 0.0
H744 H 0.74211 0.21189 0.7083 0.0
O745 O 0.7518 0.27627 0.80275 0.0
O746 O 0.73011 0.26306 0.75799 0.0
O747 O 0.81093 0.23137 0.79331 0.0
O748 O 0.78865 0.21909 0.74859 0.0
C749 C 0.72699 0.26788 0.78645 0.0
H750 H 0.78548 0.28503 0.62832 0.0
H751 H 0.74458 0.18949 0.65612 0.0
H752 H 0.80062 0.266 0.89931 0.0
H753 H 0.84872 0.35743 0.87106 0.0
C754 C 0.758 0.7329 0.79145 0.0
N755 N 0.79719 0.79223 0.72382 0.0
C756 C 0.82122 0.76915 0.7272 0.0
C757 C 0.83578 0.75668 0.70179 0.0
C758 C 0.82583 0.7683 0.67252 0.0
C759 C 0.80248 0.79389 0.66982 0.0
C760 C 0.78829 0.80551 0.69596 0.0
Zn761 Zn 0.77191 0.8013 0.76134 0.0
C762 C 0.70398 0.78824 0.74859 0.0
N763 N 0.721 0.81312 0.84213 0.0
C764 C 0.73355 0.801 0.86929 0.0
C765 C 0.69908 0.83863 0.84108 0.0
C766 C 0.69174 0.85551 0.86779 0.0
C767 C 0.70692 0.84582 0.89579 0.0
C768 C 0.72682 0.81709 0.89654 0.0
Zn769 Zn 0.7448 0.8032 0.80344 0.0
O770 O 0.77108 0.74834 0.76986 0.0
C771 C 0.81438 0.81045 0.81578 0.0
O772 O 0.74525 0.75022 0.81196 0.0
H773 H 0.68961 0.84809 0.81925 0.0
H774 H 0.8278 0.75871 0.7495 0.0
H775 H 0.75127 0.78105 0.86962 0.0
O776 O 0.81432 0.80709 0.78711 0.0
O777 O 0.78831 0.80933 0.82912 0.0
H778 H 0.76907 0.82378 0.69383 0.0
O779 O 0.74529 0.85648 0.79443 0.0
O780 O 0.77223 0.85309 0.75309 0.0
O781 O 0.702 0.79463 0.77688 0.0
O782 O 0.72965 0.79521 0.7358 0.0
C783 C 0.75951 0.87106 0.77304 0.0
H784 H 0.85291 0.73625 0.705 0.0
H785 H 0.79407 0.80342 0.64762 0.0
H786 H 0.67617 0.87746 0.86628 0.0
H787 H 0.73946 0.80909 0.9175 0.0
C788 C 0.51333 0.5638 0.46783 0.0
N789 N 0.46711 0.55449 0.54908 0.0
C790 C 0.44681 0.57227 0.5299 0.0
C791 C 0.41702 0.55875 0.52149 0.0
C792 C 0.40725 0.52796 0.53474 0.0
C793 C 0.42606 0.5148 0.55964 0.0
C794 C 0.4566 0.52798 0.56591 0.0
Zn795 Zn 0.51357 0.55596 0.53794 0.0
C796 C 0.53283 0.48836 0.51707 0.0
N797 N 0.6066 0.55809 0.50482 0.0
C798 C 0.62116 0.58756 0.49661 0.0
C799 C 0.62397 0.5305 0.51449 0.0
C800 C 0.65676 0.53315 0.51976 0.0
C801 C 0.67165 0.56466 0.5158 0.0
C802 C 0.65403 0.59157 0.50227 0.0
Zn803 Zn 0.55984 0.55802 0.51579 0.0
O804 O 0.49782 0.56055 0.49172 0.0
C805 C 0.53858 0.62588 0.53526 0.0
O806 O 0.54352 0.56611 0.47027 0.0
H807 H 0.6123 0.50755 0.52175 0.0
H808 H 0.45554 0.5937 0.51714 0.0
H809 H 0.60706 0.60914 0.48868 0.0
O810 O 0.51452 0.60875 0.54279 0.0
O811 O 0.56158 0.61064 0.52361 0.0
H812 H 0.47311 0.5143 0.58124 0.0
O813 O 0.57646 0.54942 0.56193 0.0
O814 O 0.53078 0.55032 0.58385 0.0
O815 O 0.55603 0.50557 0.50771 0.0
O816 O 0.51203 0.50294 0.53232 0.0
C817 C 0.56101 0.54778 0.58607 0.0
H818 H 0.40431 0.57018 0.50202 0.0
H819 H 0.419 0.49203 0.57162 0.0
H820 H 0.66958 0.51196 0.53048 0.0
H821 H 0.66498 0.61621 0.49878 0.0
C822 C 0.03849 0.52257 0.1026 0.0
N823 N 0.07908 0.43966 0.06233 0.0
C824 C 0.0949 0.4382 0.09015 0.0
C825 C 0.09449 0.40836 0.10734 0.0
C826 C 0.07831 0.37978 0.0953 0.0
C827 C 0.06635 0.38067 0.06478 0.0
C828 C 0.06656 0.41133 0.04869 0.0
Zn829 Zn 0.06298 0.48562 0.04826 0.0
C830 C 0.99081 0.48263 0.0389 0.0
N831 N 0.02441 0.5811 0.02455 0.0
C832 C 0.0379 0.6084 0.0391 0.0
C833 C 1.00418 0.58476 -0.00045 0.0
C834 C 0.99842 0.61699 0.98706 0.0
C835 C 0.01405 0.64536 0.00026 0.0
C836 C 0.03335 0.6409 0.02707 0.0
Zn837 Zn 0.04061 0.5348 0.03717 0.0
O838 O 0.05378 0.49661 0.09454 0.0
C839 C 0.113 0.53721 0.04634 0.0
O840 O 0.03095 0.5452 0.08283 0.0
H841 H 0.99392 0.56255 0.98835 0.0
H842 H 0.10482 0.46111 0.10042 0.0
H843 H 0.05391 0.60475 0.05896 0.0
O844 O 0.10974 0.50575 0.05211 0.0
O845 O 0.08817 0.55535 0.04161 0.0
H846 H 0.05411 0.41323 0.02653 0.0
O847 O 0.04989 0.52455 0.99121 0.0
O848 O 0.07197 0.47523 0.00212 0.0
O849 O 0.99383 0.51407 0.0327 0.0
O850 O 0.01582 0.465 0.04431 0.0
C851 C 0.06492 0.49854 0.98269 0.0
H852 H 0.10437 0.40862 0.13065 0.0
H853 H 0.05497 0.35861 0.05423 0.0
H854 H 0.98319 0.6195 0.96647 0.0
H855 H 0.04652 0.66187 0.03756 0.0
C856 C 0.06351 0.16868 0.04459 0.0
C857 C 0.08818 0.16773 0.06742 0.0
C858 C 0.05886 0.1413 0.02461 0.0
C859 C 0.07904 0.1128 0.0269 0.0
H860 H 0.04538 0.18825 0.04472 0.0
H861 H 0.03712 0.14045 0.01018 0.0
S862 S 0.15266 0.10393 0.07663 0.0
N863 N 0.13697 0.14041 0.08675 0.0
N864 N 0.12892 0.08932 0.04845 0.0
C865 C 0.10703 0.11476 0.0458 0.0
C866 C 0.11133 0.1422 0.06657 0.0
C867 C 0.17958 0.76773 0.37429 0.0
C868 C 0.14864 0.7628 0.36084 0.0
C869 C 0.20695 0.76736 0.35702 0.0
C870 C 0.20515 0.76191 0.3252 0.0
H871 H 0.18293 0.77205 0.39861 0.0
H872 H 0.22986 0.77142 0.36898 0.0
S873 S 0.13008 0.7475 0.27826 0.0
N874 N 0.118 0.75222 0.31325 0.0
N875 N 0.16932 0.75139 0.28087 0.0
C876 C 0.17439 0.75683 0.31129 0.0
C877 C 0.1463 0.75734 0.32899 0.0
C878 C 0.64502 0.78492 0.61523 0.0
C879 C 0.63983 0.78111 0.64656 0.0
C880 C 0.63934 0.81599 0.60012 0.0
C881 C 0.62882 0.84453 0.61588 0.0
H882 H 0.6516 0.76328 0.60176 0.0
H883 H 0.64218 0.81741 0.57572 0.0
S884 S 0.61585 0.84922 0.69887 0.0
N885 N 0.62692 0.80953 0.69346 0.0
N886 N 0.61606 0.86789 0.66504 0.0
C887 C 0.62585 0.84179 0.64763 0.0
C888 C 0.63149 0.8101 0.66299 0.0
C889 C 0.42709 0.25378 0.87634 0.0
C890 C 0.4558 0.26088 0.86208 0.0
C891 C 0.39709 0.25632 0.86059 0.0
C892 C 0.39393 0.26638 0.82967 0.0
H893 H 0.42762 0.24593 0.90008 0.0
H894 H 0.3761 0.25027 0.87297 0.0
S895 S 0.46137 0.28823 0.78126 0.0
N896 N 0.47889 0.27859 0.8148 0.0
N897 N 0.42267 0.28361 0.78527 0.0
C898 C 0.4224 0.27379 0.81501 0.0
C899 C 0.45315 0.27095 0.83111 0.0
C900 C 0.03019 0.84892 0.49522 0.0
C901 C 0.04321 0.84487 0.46639 0.0
C902 C 0.03155 0.88029 0.51077 0.0
C903 C 0.04572 0.90936 0.49814 0.0
H904 H 0.01873 0.82761 0.50604 0.0
H905 H 0.02107 0.88179 0.53278 0.0
S906 S 0.08366 0.91276 0.42326 0.0
N907 N 0.07114 0.87304 0.42604 0.0
N908 N 0.07347 0.93167 0.45481 0.0
C909 C 0.05898 0.90565 0.46933 0.0
C910 C 0.05782 0.87361 0.45364 0.0
C911 C 0.50525 0.70242 0.74707 0.0
C912 C 0.51246 0.72682 0.72477 0.0
C913 C 0.47442 0.69964 0.75764 0.0
C914 C 0.44981 0.72058 0.7456 0.0
H915 H 0.52358 0.68542 0.75645 0.0
H916 H 0.46972 0.68091 0.7751 0.0
S917 S 0.45607 0.78849 0.68719 0.0
N918 N 0.4924 0.77256 0.69139 0.0
N919 N 0.43435 0.7668 0.71097 0.0
C920 C 0.45663 0.74508 0.72345 0.0
C921 C 0.48805 0.74837 0.7131 0.0
C922 C 0.54493 0.1702 0.99533 0.0
C923 C 0.55182 0.17236 0.96416 0.0
C924 C 0.5448 0.13889 0.01122 0.0
C925 C 0.55148 0.10792 0.99686 0.0
H926 H 0.53938 0.19297 0.00777 0.0
H927 H 0.53903 0.13906 0.03502 0.0
S928 S 0.57206 0.09901 0.91575 0.0
N929 N 0.56625 0.14027 0.91973 0.0
N930 N 0.56593 0.08168 0.94935 0.0
C931 C 0.55874 0.10963 0.96573 0.0
C932 C 0.55893 0.14164 0.94952 0.0
C933 C 0.15543 0.24025 0.22133 0.0
C934 C 0.1576 0.23645 0.18969 0.0
C935 C 0.18051 0.25434 0.23917 0.0
C936 C 0.2089 0.26459 0.22605 0.0
H937 H 0.13437 0.23179 0.23255 0.0
H938 H 0.17828 0.25523 0.26366 0.0
S939 S 0.22531 0.26286 0.14375 0.0
N940 N 0.18914 0.24652 0.14548 0.0
N941 N 0.23682 0.27249 0.17923 0.0
C942 C 0.21074 0.26256 0.1942 0.0
C943 C 0.18496 0.24857 0.17594 0.0
C944 C 0.12243 0.00725 0.15628 0.0
C945 C 0.10606 0.02071 0.18066 0.0
C946 C 0.10843 0.00627 0.12672 0.0
C947 C 0.07741 0.01869 0.12019 0.0
H948 H 0.14637 0.9973 0.15993 0.0
H949 H 0.1222 0.99563 0.10886 0.0
S950 S 0.0243 0.05699 0.17575 0.0
N951 N 0.05708 0.04708 0.19626 0.0
N952 N 0.0307 0.04521 0.14053 0.0
C953 C 0.06067 0.03231 0.14428 0.0
C954 C 0.075 0.03333 0.17453 0.0
C955 C 0.34639 0.82275 0.49029 0.0
C956 C 0.32777 0.85178 0.49522 0.0
C957 C 0.349 0.80959 0.46089 0.0
C958 C 0.3337 0.8255 0.43541 0.0
H959 H 0.35884 0.80992 0.5093 0.0
H960 H 0.36315 0.78691 0.45801 0.0
S961 S 0.28214 0.90188 0.43568 0.0
N962 N 0.29359 0.89582 0.4719 0.0
N963 N 0.29899 0.87119 0.41669 0.0
C964 C 0.31515 0.85451 0.4399 0.0
C965 C 0.31203 0.86762 0.46982 0.0
C966 C 0.52832 0.01587 0.69328 0.0
C967 C 0.49483 0.01973 0.69221 0.0
C968 C 0.54512 0.01388 0.6664 0.0
C969 C 0.52904 0.01667 0.63767 0.0
H970 H 0.54166 0.01405 0.71503 0.0
H971 H 0.57078 0.0107 0.66811 0.0
S972 S 0.44163 0.02526 0.62206 0.0
N973 N 0.44632 0.02476 0.65967 0.0
N974 N 0.47785 0.02186 0.60947 0.0
C975 C 0.49563 0.02021 0.63626 0.0
C976 C 0.47853 0.02154 0.66345 0.0
C977 C 0.24561 0.11226 0.93637 0.0
C978 C 0.24975 0.12353 0.9667 0.0
C979 C 0.24286 0.1355 0.91216 0.0
C980 C 0.24344 0.17083 0.9174 0.0
H981 H 0.24786 0.08555 0.93092 0.0
H982 H 0.24327 0.12554 0.88921 0.0
S983 S 0.24296 0.21259 0.99303 0.0
N984 N 0.24705 0.17165 0.00106 0.0
N985 N 0.24037 0.21547 0.95538 0.0
C986 C 0.24271 0.18213 0.94775 0.0
C987 C 0.24608 0.15842 0.97246 0.0
C988 C 0.11089 0.01886 0.3435 0.0
C989 C 0.12178 0.04859 0.32934 0.0
C990 C 0.09872 0.01994 0.37245 0.0
C991 C 0.097 0.05076 0.38836 0.0
H992 H 0.11229 0.99438 0.33243 0.0
H993 H 0.09135 0.99625 0.38281 0.0
S994 S 0.12062 0.13609 0.36104 0.0
N995 N 0.12887 0.11013 0.33305 0.0
N996 N 0.10571 0.11186 0.38775 0.0
C997 C 0.10703 0.08082 0.37437 0.0
C998 C 0.11936 0.07983 0.34471 0.0
C999 C 0.27813 0.84974 0.66211 0.0
C1000 C 0.29364 0.83343 0.63859 0.0
C1001 C 0.27356 0.8332 0.69 0.0
C1002 C 0.28499 0.79998 0.69571 0.0
H1003 H 0.26949 0.87556 0.65898 0.0
H1004 H 0.26222 0.84716 0.70769 0.0
S1005 S 0.32681 0.74599 0.6414 0.0
N1006 N 0.31958 0.78183 0.62243 0.0
N1007 N 0.31194 0.75113 0.67521 0.0
C1008 C 0.30013 0.78321 0.67219 0.0
C1009 C 0.30419 0.79982 0.64355 0.0
C1010 C 0.50377 0.95432 0.8375 0.0
C1011 C 0.49044 0.98633 0.82971 0.0
C1012 C 0.52018 0.94887 0.86574 0.0
C1013 C 0.52431 0.97542 0.88677 0.0
H1014 H 0.50068 0.93295 0.82213 0.0
H1015 H 0.52917 0.92366 0.87141 0.0
S1016 S 0.49463 0.06387 0.87781 0.0
N1017 N 0.48307 0.04502 0.84555 0.0
N1018 N 0.514 0.03457 0.89848 0.0
C1019 C 0.51185 0.00765 0.87912 0.0
C1020 C 0.49492 0.01319 0.85059 0.0
C1021 C 0.32763 0.19027 0.0919 0.0
C1022 C 0.34771 0.1626 0.08672 0.0
C1023 C 0.32869 0.20687 0.12003 0.0
C1024 C 0.3504 0.19705 0.14405 0.0
H1025 H 0.30984 0.19825 0.07456 0.0
H1026 H 0.3113 0.22666 0.12325 0.0
S1027 S 0.41131 0.12895 0.14029 0.0
N1028 N 0.39154 0.12748 0.10676 0.0
N1029 N 0.39488 0.15991 0.15934 0.0
C1030 C 0.37185 0.17048 0.13853 0.0
C1031 C 0.37021 0.153 0.10997 0.0
C1032 C 0.24799 0.00318 0.06299 0.0
C1033 C 0.27079 0.00671 0.04074 0.0
C1034 C 0.21768 0.98976 0.05558 0.0
C1035 C 0.20904 0.97934 0.02564 0.0
H1036 H 0.25254 0.01342 0.08569 0.0
H1037 H 0.20007 0.9904 0.07278 0.0
S1038 S 0.26235 0.97469 0.96111 0.0
N1039 N 0.28464 0.9919 0.98911 0.0
N1040 N 0.2272 0.96746 0.97518 0.0
C1041 C 0.23265 0.97893 0.00416 0.0
C1042 C 0.26374 0.99221 0.01177 0.0
C1043 C 0.70014 0.4673 0.03671 0.0
C1044 C 0.7069 0.44856 0.06379 0.0
C1045 C 0.67011 0.48266 0.03074 0.0
C1046 C 0.64593 0.48014 0.0518 0.0
H1047 H 0.71764 0.46885 0.01944 0.0
H1048 H 0.6655 0.49557 0.00906 0.0
S1049 S 0.6537 0.43794 0.12813 0.0
N1050 N 0.68824 0.43112 0.11297 0.0
N1051 N 0.63251 0.46023 0.10241 0.0
C1052 C 0.65334 0.46313 0.07977 0.0
C1053 C 0.68359 0.44727 0.08557 0.0
C1054 C 0.89095 0.35629 0.24063 0.0
C1055 C 0.87921 0.38848 0.24839 0.0
C1056 C 0.87567 0.32615 0.24923 0.0
C1057 C 0.84786 0.32687 0.26587 0.0
H1058 H 0.91206 0.35422 0.22756 0.0
H1059 H 0.88522 0.30215 0.24186 0.0
S1060 S 0.8082 0.4044 0.29351 0.0
N1061 N 0.83864 0.41906 0.27495 0.0
N1062 N 0.81002 0.36257 0.29103 0.0
C1063 C 0.83632 0.35884 0.27452 0.0
C1064 C 0.8519 0.38955 0.26579 0.0
C1065 C 0.91611 0.51931 0.56586 0.0
C1066 C 0.89966 0.53942 0.54366 0.0
C1067 C 0.9477 0.50962 0.56219 0.0
C1068 C 0.96327 0.51872 0.53576 0.0
H1069 H 0.9051 0.51256 0.58689 0.0
H1070 H 0.9603 0.49565 0.58046 0.0
S1071 S 0.92961 0.56861 0.46986 0.0
N1072 N 0.90052 0.56675 0.49382 0.0
N1073 N 0.95967 0.54712 0.48633 0.0
C1074 C 0.94652 0.53713 0.51264 0.0
C1075 C 0.91469 0.5479 0.51677 0.0
C1076 C 0.20165 0.1367 0.26872 0.0
C1077 C 0.21798 0.10788 0.25907 0.0
C1078 C 0.21826 0.16407 0.2822 0.0
C1079 C 0.2517 0.16363 0.28582 0.0
H1080 H 0.17589 0.13808 0.26594 0.0
H1081 H 0.20498 0.18649 0.28814 0.0
S1082 S 0.30528 0.09373 0.26494 0.0
N1083 N 0.26905 0.07968 0.25523 0.0
N1084 N 0.30051 0.13204 0.27933 0.0
C1085 C 0.26821 0.1347 0.27679 0.0
C1086 C 0.25126 0.10654 0.26371 0.0
C1087 C 0.41008 0.96349 0.55409 0.0
C1088 C 0.40658 0.93502 0.57333 0.0
C1089 C 0.44018 0.97387 0.5448 0.0
C1090 C 0.46821 0.95611 0.55411 0.0
H1091 H 0.3894 0.97811 0.54618 0.0
H1092 H 0.44149 0.9964 0.53055 0.0
S1093 S 0.47242 0.8796 0.6044 0.0
N1094 N 0.43412 0.88904 0.60126 0.0
N1095 N 0.49035 0.90839 0.5837 0.0
C1096 C 0.46505 0.9273 0.57301 0.0
C1097 C 0.43441 0.91687 0.58268 0.0
C1098 C 0.85937 0.61552 0.22348 0.0
C1099 C 0.86014 0.58678 0.24282 0.0
C1100 C 0.84397 0.64552 0.23144 0.0
C1101 C 0.82846 0.64817 0.25907 0.0
H1102 H 0.8715 0.61528 0.20226 0.0
H1103 H 0.84487 0.66708 0.21597 0.0
S1104 S 0.82106 0.57938 0.31677 0.0
N1105 N 0.84221 0.56222 0.29015 0.0
N1106 N 0.81322 0.61862 0.30504 0.0
C1107 C 0.82786 0.61921 0.27811 0.0
C1108 C 0.84371 0.58857 0.27003 0.0
C1109 C 0.73882 0.42293 0.71289 0.0
C1110 C 0.7375 0.44682 0.73655 0.0
C1111 C 0.75175 0.39049 0.71822 0.0
C1112 C 0.76417 0.3806 0.74738 0.0
H1113 H 0.72883 0.42883 0.69021 0.0
H1114 H 0.75133 0.37277 0.69937 0.0
S1115 S 0.7693 0.43475 0.81656 0.0
N1116 N 0.75184 0.45915 0.78988 0.0
N1117 N 0.77627 0.3982 0.79982 0.0
C1118 C 0.76443 0.40476 0.77095 0.0
C1119 C 0.75104 0.43781 0.76557 0.0
C1120 C 0.01673 0.8635 0.00316 0.0
C1121 C 0.98587 0.86322 0.9894 0.0
C1122 C 0.02627 0.88935 0.02328 0.0
C1123 C 0.00542 0.91618 0.02928 0.0
H1124 H 0.03445 0.84556 0.99613 0.0
H1125 H 0.05121 0.89062 0.03095 0.0
S1126 S 0.91948 0.92101 0.00519 0.0
N1127 N 0.93252 0.88682 0.98801 0.0
N1128 N 0.95041 0.93622 0.02565 0.0
C1129 C 0.97306 0.91296 0.01948 0.0
C1130 C 0.96332 0.88631 -0.00083 0.0
C1131 C 0.94113 0.28011 0.72839 0.0
C1132 C 0.94284 0.2741 0.69677 0.0
C1133 C 0.91145 0.28394 0.7422 0.0
C1134 C 0.882 0.28173 0.72511 0.0
H1135 H 0.96291 0.28218 0.74262 0.0
H1136 H 0.91164 0.28832 0.76657 0.0
S1137 S 0.8729 0.26471 0.64164 0.0
N1138 N 0.91182 0.26515 0.64906 0.0
N1139 N 0.85702 0.27223 0.67453 0.0
C1140 C 0.88352 0.27547 0.6935 0.0
C1141 C 0.91353 0.27169 0.67953 0.0
C1142 C 0.52668 0.20799 0.45662 0.0
C1143 C 0.51782 0.2368 0.47309 0.0
C1144 C 0.52376 0.1753 0.46867 0.0
C1145 C 0.51192 0.17015 0.49768 0.0
H1146 H 0.53612 0.21058 0.43418 0.0
H1147 H 0.53173 0.15396 0.45553 0.0
S1148 S 0.4842 0.23643 0.54981 0.0
N1149 N 0.49588 0.25782 0.5198 0.0
N1150 N 0.49041 0.1959 0.54241 0.0
C1151 C 0.50264 0.19848 0.51438 0.0
C1152 C 0.50561 0.23193 0.50211 0.0
C1153 C 0.67136 0.7531 0.19133 0.0
C1154 C 0.64238 0.74838 0.20582 0.0
C1155 C 0.70119 0.74971 0.20722 0.0
C1156 C 0.70385 0.74115 0.23852 0.0
H1157 H 0.67118 0.75977 0.16732 0.0
H1158 H 0.72243 0.75408 0.19471 0.0
S1159 S 0.63555 0.72542 0.28755 0.0
N1160 N 0.6185 0.73427 0.25365 0.0
N1161 N 0.67439 0.72774 0.28346 0.0
C1162 C 0.67511 0.73598 0.25337 0.0
C1163 C 0.64456 0.73966 0.23712 0.0
C1164 C 0.04486 0.16924 0.57694 0.0
C1165 C 0.04325 0.17354 0.60876 0.0
C1166 C 0.04972 0.13704 0.564 0.0
C1167 C 0.05267 0.10737 0.58215 0.0
H1168 H 0.04238 0.19103 0.56175 0.0
H1169 H 0.05035 0.13536 0.53939 0.0
S1170 S 0.05058 0.10432 0.6668 0.0
N1171 N 0.04571 0.14504 0.65819 0.0
N1172 N 0.0541 0.08466 0.63397 0.0
C1173 C 0.05137 0.11128 0.61406 0.0
C1174 C 0.0469 0.14421 0.6273 0.0
C1175 C 0.61368 0.35939 0.33989 0.0
C1176 C 0.58938 0.33484 0.34182 0.0
C1177 C 0.64108 0.35265 0.32401 0.0
C1178 C 0.64486 0.32134 0.30926 0.0
H1179 H 0.61232 0.38326 0.35198 0.0
H1180 H 0.65989 0.37159 0.3241 0.0
S1181 S 0.58674 0.2499 0.30502 0.0
N1182 N 0.56963 0.27919 0.3254 0.0
N1183 N 0.62131 0.26632 0.29619 0.0
C1184 C 0.61994 0.29738 0.3096 0.0
C1185 C 0.59214 0.30419 0.32572 0.0
C1186 C 0.52561 0.88671 0.13894 0.0
C1187 C 0.53409 0.85428 0.12841 0.0
C1188 C 0.52591 0.91577 0.12007 0.0
C1189 C 0.53459 0.91414 0.08947 0.0
H1190 H 0.51882 0.88996 0.16224 0.0
H1191 H 0.51942 0.93989 0.12983 0.0
S1192 S 0.55847 0.83547 0.04999 0.0
N1193 N 0.55116 0.82234 0.08482 0.0
N1194 N 0.55165 0.87687 0.04936 0.0
C1195 C 0.54279 0.88183 0.07836 0.0
C1196 C 0.54258 0.85205 0.09774 0.0
C1197 C 0.87822 0.79975 0.87843 0.0
C1198 C 0.90495 0.81493 0.86574 0.0
C1199 C 0.84852 0.79963 0.86258 0.0
C1200 C 0.84475 0.81419 0.83335 0.0
H1201 H 0.88026 0.78751 0.90065 0.0
H1202 H 0.82868 0.78698 0.87283 0.0
S1203 S 0.90627 0.85984 0.79104 0.0
N1204 N 0.92511 0.84707 0.82305 0.0
N1205 N 0.86916 0.84633 0.79307 0.0
C1206 C 0.87089 0.83048 0.82077 0.0
C1207 C 0.90106 0.83101 0.83705 0.0
C1208 C 0.9597 0.02707 0.90315 0.0
C1209 C 0.96658 0.00188 0.88183 0.0
C1210 C 0.97819 0.03079 0.93027 0.0
C1211 C 0.00451 0.0096 0.93734 0.0
H1212 H 0.93957 0.044 0.89912 0.0
H1213 H 0.97141 0.05022 0.94612 0.0
S1214 S 0.03344 0.9401 0.8892 0.0
N1215 N 1.00224 0.9557 0.86938 0.0
N1216 N 0.03708 0.96285 0.92074 0.0
C1217 C 0.01236 0.98484 0.91602 0.0
C1218 C 0.99335 0.9809 0.88822 0.0
C1219 C 0.7738 0.21813 0.55424 0.0
C1220 C 0.79436 0.18982 0.55489 0.0
C1221 C 0.76458 0.23308 0.58136 0.0
C1222 C 0.77545 0.22 0.60987 0.0
H1223 H 0.76382 0.22807 0.53273 0.0
H1224 H 0.74829 0.25445 0.58007 0.0
S1225 S 0.83333 0.14992 0.62406 0.0
N1226 N 0.82792 0.1518 0.58653 0.0
N1227 N 0.81046 0.17994 0.63735 0.0
C1228 C 0.79718 0.19291 0.61085 0.0
C1229 C 0.80669 0.17781 0.58337 0.0
C1230 C 0.59027 0.02132 0.40981 0.0
C1231 C 0.61584 0.0008 0.4017 0.0
C1232 C 0.57489 0.01582 0.43702 0.0
C1233 C 0.58453 0.98975 0.45772 0.0
H1234 H 0.58223 0.04227 0.39522 0.0
H1235 H 0.55597 0.03318 0.44233 0.0
S1236 S 0.64902 0.92726 0.44641 0.0
N1237 N 0.64897 0.95186 0.41571 0.0
N1238 N 0.62041 0.94188 0.46722 0.0
C1239 C 0.60922 0.96803 0.44933 0.0
C1240 C 0.62479 0.97349 0.42131 0.0
C1241 C 0.80155 0.82531 0.08801 0.0
C1242 C 0.8174 0.85588 0.08173 0.0
C1243 C 0.80929 0.80677 0.11462 0.0
C1244 C 0.83367 0.81766 0.1357 0.0
H1245 H 0.78095 0.81727 0.07394 0.0
H1246 H 0.79416 0.78534 0.11975 0.0
S1247 S 0.88814 0.89087 0.12504 0.0
N1248 N 0.86224 0.89297 0.09543 0.0
N1249 N 0.87794 0.85706 0.14496 0.0
C1250 C 0.8523 0.84585 0.12764 0.0
C1251 C 0.84397 0.86514 0.10072 0.0
C1252 C 0.98255 0.02934 0.72978 0.0
C1253 C 0.96137 0.00724 0.74388 0.0
C1254 C 0.99835 0.01924 0.70406 0.0
C1255 C 0.99388 0.98651 0.6916 0.0
H1256 H 0.98626 0.05505 0.73807 0.0
H1257 H 0.01339 0.03771 0.69325 0.0
S1258 S 0.94371 0.91765 0.72205 0.0
N1259 N 0.9384 0.95023 0.74485 0.0
N1260 N 0.96869 0.93113 0.69667 0.0
C1261 C 0.97369 0.96369 0.70612 0.0
C1262 C 0.95735 0.97405 0.73224 0.0
C1263 C 0.76581 0.19029 0.40076 0.0
C1264 C 0.78752 0.16522 0.41158 0.0
C1265 C 0.77054 0.20863 0.37384 0.0
C1266 C 0.7971 0.20262 0.35624 0.0
H1267 H 0.74468 0.19572 0.41303 0.0
H1268 H 0.75254 0.22698 0.36633 0.0
S1269 S 0.86214 0.14094 0.37525 0.0
N1270 N 0.83755 0.1364 0.4032 0.0
N1271 N 0.84627 0.17063 0.35244 0.0
C1272 C 0.81956 0.1783 0.36721 0.0
C1273 C 0.81481 0.15968 0.39483 0.0
C1274 C 0.60816 0.01151 0.22838 0.0
C1275 C 0.59118 0.01172 0.25526 0.0
C1276 C 0.59449 0.02348 0.20069 0.0
C1277 C 0.56316 0.0361 0.19852 0.0
H1278 H 0.63248 0.00233 0.22862 0.0
H1279 H 0.60847 0.02225 0.18063 0.0
S1280 S 0.508 0.04196 0.26157 0.0
N1281 N 0.54091 0.02547 0.27771 0.0
N1282 N 0.51521 0.04786 0.22523 0.0
C1283 C 0.54561 0.03615 0.22493 0.0
C1284 C 0.55961 0.02404 0.25337 0.0
C1285 C 0.7203 0.92471 0.94409 0.0
C1286 C 0.71945 0.91211 0.97418 0.0
C1287 C 0.71411 0.9035 0.91888 0.0
C1288 C 0.70681 0.86878 0.92265 0.0
H1289 H 0.72732 0.95079 0.93981 0.0
H1290 H 0.71693 0.914 0.89627 0.0
S1291 S 0.69621 0.82432 0.99628 0.0
N1292 N 0.70674 0.86343 0.00613 0.0
N1293 N 0.69524 0.8237 0.95859 0.0
C1294 C 0.70365 0.85637 0.95247 0.0
C1295 C 0.70985 0.87799 0.97824 0.0
C1296 C 0.82901 0.03503 0.03359 0.0
C1297 C 0.81492 0.0351 0.06206 0.0
C1298 C 0.86011 0.04703 0.03066 0.0
C1299 C 0.87811 0.05962 0.05606 0.0
H1300 H 0.81712 0.02282 0.01404 0.0
H1301 H 0.87111 0.04319 0.00913 0.0
S1302 S 0.8492 0.07475 0.13319 0.0
N1303 N 0.81896 0.05594 0.11441 0.0
N1304 N 0.8776 0.07836 0.10866 0.0
C1305 C 0.86284 0.06427 0.08345 0.0
C1306 C 0.83109 0.05214 0.08649 0.0
C1307 C 0.39877 0.53513 0.04107 0.0
C1308 C 0.3852 0.55481 0.01691 0.0
C1309 C 0.43034 0.52372 0.04095 0.0
C1310 C 0.45007 0.53176 0.01681 0.0
H1311 H 0.38507 0.5289 0.06063 0.0
H1312 H 0.43955 0.50924 0.06057 0.0
S1313 S 0.42567 0.58113 0.94706 0.0
N1314 N 0.39353 0.58058 0.96727 0.0
N1315 N 0.45308 0.55942 0.96727 0.0
C1316 C 0.43656 0.55056 0.99197 0.0
C1317 C 0.40413 0.56195 0.99195 0.0
C1318 C 0.19493 0.64484 0.79683 0.0
C1319 C 0.21141 0.61711 0.81079 0.0
C1320 C 0.21102 0.67435 0.78796 0.0
C1321 C 0.2443 0.67711 0.79217 0.0
H1322 H 0.16929 0.64387 0.79267 0.0
H1323 H 0.19728 0.69516 0.77774 0.0
S1324 S 0.29864 0.61304 0.82942 0.0
N1325 N 0.26298 0.59523 0.82961 0.0
N1326 N 0.29317 0.65046 0.81269 0.0
C1327 C 0.26113 0.64978 0.8063 0.0
C1328 C 0.24471 0.61989 0.8157 0.0
C1329 C 0.21525 0.51304 0.55365 0.0
C1330 C 0.23029 0.50778 0.52627 0.0
C1331 C 0.18211 0.51033 0.5548 0.0
C1332 C 0.16283 0.50265 0.52849 0.0
H1333 H 0.2292 0.51967 0.57425 0.0
H1334 H 0.17153 0.51495 0.57642 0.0
S1335 S 0.19132 0.48819 0.45078 0.0
N1336 N 0.22412 0.49568 0.47214 0.0
N1337 N 0.16166 0.4901 0.47403 0.0
C1338 C 0.17784 0.49701 0.50093 0.0
C1339 C 0.21165 0.49984 0.49987 0.0
C1340 C 0.80179 0.95202 0.75499 0.0
C1341 C 0.81049 0.96409 0.7844 0.0
C1342 C 0.78176 0.92375 0.75097 0.0
C1343 C 0.76939 0.90695 0.77618 0.0
H1344 H 0.81242 0.96274 0.73507 0.0
H1345 H 0.77799 0.9134 0.72822 0.0
S1346 S 0.77916 0.9337 0.85727 0.0
N1347 N 0.80117 0.96089 0.83858 0.0
N1348 N 0.76287 0.90809 0.83112 0.0
C1349 C 0.7748 0.92139 0.80535 0.0
C1350 C 0.79568 0.94982 0.80947 0.0
C1351 C 0.7034 0.04714 0.52766 0.0
C1352 C 0.7054 0.08264 0.52343 0.0
C1353 C 0.6758 0.0318 0.53844 0.0
C1354 C 0.64896 0.05131 0.5452 0.0
H1355 H 0.72327 0.03099 0.52254 0.0
H1356 H 0.67516 0.00432 0.54049 0.0
S1357 S 0.64211 0.14535 0.53903 0.0
N1358 N 0.67813 0.13695 0.52771 0.0
N1359 N 0.62656 0.10816 0.54779 0.0
C1360 C 0.65087 0.08687 0.54165 0.0
C1361 C 0.67895 0.10249 0.53081 0.0
C1362 C 0.24195 0.39312 0.85475 0.0
C1363 C 0.24193 0.42257 0.83629 0.0
C1364 C 0.25664 0.36304 0.84584 0.0
C1365 C 0.27206 0.3611 0.81814 0.0
H1366 H 0.22956 0.3928 0.87581 0.0
H1367 H 0.25498 0.34084 0.86047 0.0
S1368 S 0.28201 0.43216 0.76306 0.0
N1369 N 0.26106 0.44871 0.79012 0.0
N1370 N 0.28866 0.39225 0.77343 0.0
C1371 C 0.27372 0.39088 0.8002 0.0
C1372 C 0.25867 0.42155 0.80925 0.0
C1373 C 0.33888 0.62052 0.33461 0.0
C1374 C 0.34374 0.5984 0.31025 0.0
C1375 C 0.32581 0.65283 0.32931 0.0
C1376 C 0.31662 0.66375 0.29957 0.0
H1377 H 0.34657 0.6135 0.35776 0.0
H1378 H 0.32366 0.66967 0.34857 0.0
S1379 S 0.32119 0.61372 0.22841 0.0
N1380 N 0.3362 0.58839 0.25566 0.0
N1381 N 0.31108 0.649 0.24569 0.0
C1382 C 0.31961 0.64107 0.27522 0.0
C1383 C 0.33338 0.60839 0.28057 0.0
C1384 C 0.52639 0.6974 0.58801 0.0
C1385 C 0.55814 0.70698 0.59446 0.0
C1386 C 0.51879 0.67463 0.56438 0.0
C1387 C 0.54299 0.66065 0.5472 0.0
H1388 H 0.50815 0.70398 0.60356 0.0
H1389 H 0.49468 0.66467 0.56234 0.0
S1390 S 0.62781 0.68777 0.54933 0.0
N1391 N 0.61224 0.70836 0.57769 0.0
N1392 N 0.59815 0.66589 0.53274 0.0
C1393 C 0.57365 0.67526 0.54995 0.0
C1394 C 0.58129 0.69827 0.57408 0.0
C1395 C 0.66176 0.26812 0.84567 0.0
C1396 C 0.63392 0.25712 0.82907 0.0
C1397 C 0.69145 0.27142 0.83188 0.0
C1398 C 0.69496 0.26405 0.80067 0.0
H1399 H 0.66073 0.27409 0.86968 0.0
H1400 H 0.71188 0.27989 0.84595 0.0
S1401 S 0.62968 0.23475 0.7465 0.0
N1402 N 0.61226 0.23915 0.77913 0.0
N1403 N 0.66737 0.2454 0.75363 0.0
C1404 C 0.6673 0.25322 0.78378 0.0
C1405 C 0.63713 0.24976 0.79779 0.0
C1406 C 0.08992 0.31021 0.15499 0.0
C1407 C 0.06013 0.29378 0.15367 0.0
C1408 C 0.09565 0.33802 0.136 0.0
C1409 C 0.07163 0.35051 0.11538 0.0
H1410 H 0.10949 0.30032 0.16949 0.0
H1411 H 0.11933 0.34911 0.13682 0.0
S1412 S 0.98816 0.31885 0.10679 0.0
N1413 N 0.0058 0.29289 0.13212 0.0
N1414 N 0.01571 0.34667 0.09761 0.0
C1415 C 0.04114 0.33536 0.11524 0.0
C1416 C 0.0356 0.3066 0.13413 0.0
C1417 C 0.9235 0.74344 0.37861 0.0
C1418 C 0.95152 0.755 0.36528 0.0
C1419 C 0.89361 0.74353 0.36248 0.0
C1420 C 0.88992 0.75523 0.33204 0.0
H1421 H 0.92452 0.73398 0.40189 0.0
H1422 H 0.87318 0.73409 0.3741 0.0
S1423 S 0.95539 0.78871 0.28618 0.0
N1424 N 0.97331 0.77887 0.31948 0.0
N1425 N 0.91735 0.7791 0.28921 0.0
C1426 C 0.91766 0.76714 0.31837 0.0
C1427 C 0.94826 0.767 0.33488 0.0
C1428 C 0.53919 0.38835 0.93 0.0
C1429 C 0.54417 0.35514 0.94161 0.0
C1430 C 0.5382 0.41671 0.94925 0.0
C1431 C 0.54176 0.41352 0.98129 0.0
H1432 H 0.53643 0.39277 0.9056 0.0
H1433 H 0.53473 0.44154 0.93872 0.0
S1434 S 0.55446 0.33228 0.02389 0.0
N1435 N 0.55216 0.32071 0.98768 0.0
N1436 N 0.54995 0.37405 0.02388 0.0
C1437 C 0.54614 0.38043 0.99344 0.0
C1438 C 0.54749 0.35135 0.97366 0.0
C1439 C 0.95809 0.14872 0.16397 0.0
C1440 C 0.98732 0.14325 0.18035 0.0
C1441 C 0.92967 0.15128 0.17904 0.0
C1442 C 0.92935 0.14798 0.21102 0.0
H1443 H 0.95737 0.15389 0.13964 0.0
H1444 H 0.90831 0.15855 0.1657 0.0
S1445 S 0.99814 0.12406 0.26316 0.0
N1446 N 0.01344 0.12827 0.22938 0.0
N1447 N 0.95965 0.13201 0.25768 0.0
C1448 C 0.95779 0.13847 0.22715 0.0
C1449 C 0.98687 0.13628 0.21182 0.0
C1450 C 0.07126 0.67052 0.49651 0.0
C1451 C 0.06369 0.67546 0.46503 0.0
C1452 C 0.07115 0.63789 0.51013 0.0
C1453 C 0.06376 0.60846 0.49291 0.0
H1454 H 0.07727 0.69211 0.51094 0.0
H1455 H 0.07714 0.63576 0.53439 0.0
S1456 S 0.04224 0.60701 0.40954 0.0
N1457 N 0.04846 0.64767 0.41708 0.0
N1458 N 0.04845 0.58671 0.44235 0.0
C1459 C 0.05613 0.61301 0.46137 0.0
C1460 C 0.05603 0.64628 0.44757 0.0
C1461 C 0.68763 0.70618 0.70733 0.0
C1462 C 0.66104 0.69345 0.72157 0.0
C1463 C 0.69892 0.73897 0.71357 0.0
C1464 C 0.68476 0.75982 0.73528 0.0
H1465 H 0.69973 0.69072 0.69115 0.0
H1466 H 0.72027 0.74696 0.7026 0.0
S1467 S 0.61257 0.73832 0.77685 0.0
N1468 N 0.61898 0.70421 0.75619 0.0
N1469 N 0.64111 0.7657 0.76927 0.0
C1470 C 0.65727 0.74759 0.74881 0.0
C1471 C 0.64534 0.71431 0.74182 0.0
C1472 C 0.57817 0.54 0.67202 0.0
C1473 C 0.61171 0.53816 0.67491 0.0
C1474 C 0.56195 0.54283 0.6433 0.0
C1475 C 0.57857 0.54381 0.61625 0.0
H1476 H 0.56421 0.53963 0.69212 0.0
H1477 H 0.53616 0.54448 0.64239 0.0
S1478 S 0.66664 0.53834 0.61113 0.0
N1479 N 0.66097 0.53654 0.64804 0.0
N1480 N 0.63074 0.54181 0.59428 0.0
C1481 C 0.61217 0.54154 0.6188 0.0
C1482 C 0.62865 0.53874 0.64803 0.0
C1483 C 0.85382 0.34888 0.96567 0.0
C1484 C 0.8253 0.35281 0.98087 0.0
C1485 C 0.8536 0.3359 0.93601 0.0
C1486 C 0.82492 0.32596 0.92076 0.0
H1487 H 0.87649 0.35651 0.97646 0.0
H1488 H 0.87597 0.33362 0.92492 0.0
S1489 S 0.74382 0.33067 0.95021 0.0
N1490 N 0.7676 0.34531 0.97832 0.0
N1491 N 0.76733 0.32091 0.92254 0.0
C1492 C 0.7963 0.3293 0.93571 0.0
C1493 C 0.79645 0.34273 0.96579 0.0
C1494 C 0.97482 0.52942 0.16018 0.0
C1495 C 0.98801 0.5112 0.18542 0.0
C1496 C 0.99239 0.53519 0.13427 0.0
C1497 C 0.02349 0.52221 0.13239 0.0
H1498 H 0.95075 0.53928 0.16046 0.0
H1499 H 0.98089 0.54849 0.115 0.0
S1500 S 0.06873 0.47283 0.19243 0.0
N1501 N 0.03423 0.48092 0.20734 0.0
N1502 N 0.06676 0.49062 0.15816 0.0
C1503 C 0.03703 0.50428 0.15763 0.0
C1504 C 0.01942 0.49908 0.18428 0.0
C1505 C 0.76806 0.62099 0.4626 0.0
C1506 C 0.75732 0.63826 0.48818 0.0
C1507 C 0.76396 0.63492 0.43318 0.0
C1508 C 0.74891 0.66653 0.42832 0.0
H1509 H 0.78181 0.59779 0.46543 0.0
H1510 H 0.77483 0.62213 0.41454 0.0
S1511 S 0.70925 0.71754 0.4861 0.0
N1512 N 0.72544 0.68535 0.50567 0.0
N1513 N 0.7182 0.71163 0.45028 0.0
C1514 C 0.73499 0.68215 0.45305 0.0
C1515 C 0.73895 0.66789 0.48302 0.0
C1516 C 0.59876 0.58111 0.82915 0.0
C1517 C 0.62568 0.56138 0.82327 0.0
C1518 C 0.58582 0.58067 0.85805 0.0
C1519 C 0.59998 0.56122 0.88205 0.0
H1520 H 0.58737 0.59659 0.81121 0.0
H1521 H 0.56476 0.59568 0.86171 0.0
S1522 S 0.67096 0.50579 0.87889 0.0
N1523 N 0.6661 0.52206 0.84417 0.0
N1524 N 0.64199 0.52184 0.89837 0.0
C1525 C 0.62699 0.54174 0.8766 0.0
C1526 C 0.63982 0.54167 0.84722 0.0
C1527 C 0.77698 0.33034 0.1453 0.0
C1528 C 0.79698 0.31962 0.12248 0.0
C1529 C 0.77103 0.30947 0.1705 0.0
C1530 C 0.78518 0.27707 0.17429 0.0
H1531 H 0.76586 0.35519 0.1438 0.0
H1532 H 0.75609 0.3195 0.18774 0.0
S1533 S 0.83877 0.23644 0.12052 0.0
N1534 N 0.83015 0.2738 0.10476 0.0
N1535 N 0.81942 0.23491 0.15234 0.0
C1536 C 0.80469 0.26569 0.15127 0.0
C1537 C 0.81047 0.28684 0.12538 0.0
C1538 C 0.9942 0.43615 0.33272 0.0
C1539 C 0.98275 0.46677 0.31945 0.0
C1540 C 0.01245 0.43615 0.36036 0.0
C1541 C 0.0203 0.46679 0.37529 0.0
H1542 H 0.98811 0.41192 0.32228 0.0
H1543 H 0.01989 0.41203 0.37049 0.0
S1544 S 0.9977 0.55389 0.34936 0.0
N1545 N 0.98188 0.52863 0.3227 0.0
N1546 N 0.01605 0.5285 0.37468 0.0
C1547 C 0.01001 0.49762 0.36176 0.0
C1548 C 0.99125 0.49764 0.33381 0.0
C1549 C 0.81773 0.71205 0.60341 0.0
C1550 C 0.84813 0.69701 0.60277 0.0
C1551 C 0.81144 0.73745 0.62439 0.0
C1552 C 0.83534 0.74914 0.6454 0.0
H1553 H 0.79793 0.70263 0.58901 0.0
H1554 H 0.78702 0.74599 0.62564 0.0
S1555 S 0.92064 0.72432 0.64827 0.0
N1556 N 0.90368 0.69987 0.62153 0.0
N1557 N 0.89185 0.74837 0.66063 0.0
C1558 C 0.86662 0.73709 0.6428 0.0
C1559 C 0.87303 0.71091 0.62151 0.0
C1560 C 0.75406 0.54726 0.5501 0.0
C1561 C 0.75514 0.56863 0.57565 0.0
C1562 C 0.728 0.54817 0.52885 0.0
C1563 C 0.70249 0.57066 0.53253 0.0
H1564 H 0.77286 0.52891 0.54718 0.0
H1565 H 0.72696 0.53003 0.51031 0.0
S1566 S 0.69537 0.63286 0.59515 0.0
N1567 N 0.72978 0.61363 0.60309 0.0
N1568 N 0.68073 0.61572 0.56309 0.0
C1569 C 0.70425 0.59332 0.55729 0.0
C1570 C 0.73056 0.59203 0.57905 0.0
C1571 C 0.18578 0.94762 0.59448 0.0
C1572 C 0.21113 0.95509 0.57567 0.0
C1573 C 0.15534 0.96155 0.58871 0.0
C1574 C 0.14866 0.98347 0.56369 0.0
H1575 H 0.18921 0.93018 0.6136 0.0
H1576 H 0.13666 0.95414 0.60358 0.0
S1577 S 0.20719 0.01321 0.50848 0.0
N1578 N 0.22794 0.98754 0.53187 0.0
N1579 N 0.1707 0.01364 0.52085 0.0
C1580 C 0.1741 0.99232 0.54532 0.0
C1581 C 0.20529 0.9782 0.55136 0.0
C1582 C 0.39314 0.88688 0.76212 0.0
C1583 C 0.38047 0.91973 0.76482 0.0
C1584 C 0.37702 0.85819 0.77251 0.0
C1585 C 0.34726 0.861 0.78576 0.0
H1586 H 0.41582 0.88314 0.75191 0.0
H1587 H 0.38767 0.83348 0.76921 0.0
S1588 S 0.30406 0.94143 0.79909 0.0
N1589 N 0.33677 0.95364 0.78268 0.0
N1590 N 0.30619 0.89955 0.80184 0.0
C1591 C 0.33453 0.89377 0.78917 0.0
C1592 C 0.35115 0.92313 0.77878 0.0
C1593 C 0.4015 0.06496 0.01762 0.0
C1594 C 0.39404 0.0602 0.98637 0.0
C1595 C 0.42715 0.04778 0.03244 0.0
C1596 C 0.44616 0.02525 0.0164 0.0
H1597 H 0.38935 0.08419 0.03007 0.0
H1598 H 0.43352 0.05426 0.05595 0.0
S1599 S 0.43202 0.99907 0.93548 0.0
N1600 N 0.40436 0.02788 0.94091 0.0
N1601 N 0.45225 0.9951 0.96858 0.0
C1602 C 0.43666 0.01762 0.98589 0.0
C1603 C 0.41075 0.03537 0.97084 0.0
C1604 C 0.73142 0.64344 0.81129 0.0
C1605 C 0.73412 0.62597 0.78361 0.0
C1606 C 0.74065 0.67765 0.81422 0.0
C1607 C 0.75339 0.6955 0.78973 0.0
H1608 H 0.72075 0.63112 0.83046 0.0
H1609 H 0.73679 0.69045 0.83552 0.0
S1610 S 0.76855 0.65999 0.71335 0.0
N1611 N 0.75251 0.62816 0.73199 0.0
N1612 N 0.77045 0.69208 0.73746 0.0
C1613 C 0.75788 0.67764 0.76244 0.0
C1614 C 0.74805 0.643 0.75937 0.0
C1615 C 0.92836 0.4222 0.06837 0.0
C1616 C 0.89957 0.44026 0.06376 0.0
C1617 C 0.95731 0.4355 0.05897 0.0
C1618 C 0.95899 0.46768 0.04473 0.0
H1619 H 0.92865 0.39733 0.07921 0.0
H1620 H 0.97871 0.42058 0.06362 0.0
S1621 S 0.89048 0.52535 0.02692 0.0
N1622 N 0.87451 0.49199 0.04347 0.0
N1623 N 0.92899 0.51717 0.02614 0.0
C1624 C 0.93035 0.48598 0.03971 0.0
C1625 C 0.90072 0.47227 0.04914 0.0
C1626 C 0.35196 0.11398 0.77033 0.0
C1627 C 0.3656 0.10865 0.74209 0.0
C1628 C 0.33454 0.14347 0.77583 0.0
C1629 C 0.33037 0.16919 0.75349 0.0
H1630 H 0.35507 0.09539 0.78859 0.0
H1631 H 0.32538 0.14665 0.79829 0.0
S1632 S 0.35941 0.16681 0.67497 0.0
N1633 N 0.37215 0.13077 0.69083 0.0
N1634 N 0.33981 0.18649 0.70135 0.0
C1635 C 0.34294 0.16372 0.72477 0.0
C1636 C 0.36042 0.13341 0.71902 0.0
C1637 C 0.25019 0.91114 0.22731 0.0
C1638 C 0.24132 0.9319 0.25136 0.0
C1639 C 0.26543 0.88 0.23326 0.0
C1640 C 0.27297 0.86912 0.2634 0.0
H1641 H 0.24385 0.91812 0.20384 0.0
H1642 H 0.27043 0.86383 0.21416 0.0
S1643 S 0.25832 0.91652 0.33417 0.0
N1644 N 0.24346 0.94107 0.30625 0.0
N1645 N 0.27286 0.88284 0.31742 0.0
C1646 C 0.26618 0.89078 0.28755 0.0
C1647 C 0.25007 0.92213 0.28153 0.0
C1648 C 0.48742 0.4139 0.48292 0.0
C1649 C 0.51125 0.39615 0.46826 0.0
C1650 C 0.49498 0.44235 0.50093 0.0
C1651 C 0.52664 0.45406 0.50481 0.0
H1652 H 0.46258 0.40664 0.47958 0.0
H1653 H 0.4756 0.45638 0.51031 0.0
S1654 S 0.59845 0.4135 0.47543 0.0
N1655 N 0.56836 0.38998 0.46192 0.0
N1656 N 0.58234 0.44362 0.49563 0.0
C1657 C 0.55092 0.43523 0.49205 0.0
C1658 C 0.54329 0.40625 0.47375 0.0
C1659 C 0.44466 0.76829 0.23599 0.0
C1660 C 0.44347 0.76315 0.20406 0.0
C1661 C 0.4165 0.77112 0.25243 0.0
C1662 C 0.38578 0.76868 0.23778 0.0
H1663 H 0.46753 0.77035 0.24843 0.0
H1664 H 0.41889 0.77491 0.27688 0.0
S1665 S 0.36912 0.7546 0.15455 0.0
N1666 N 0.40838 0.75538 0.15869 0.0
N1667 N 0.35639 0.76056 0.18904 0.0
C1668 C 0.38439 0.76347 0.20587 0.0
C1669 C 0.41286 0.76075 0.18923 0.0
C1670 C 0.02109 0.71068 0.93724 0.0
C1671 C 0.02056 0.74146 0.95317 0.0
C1672 C 0.01807 0.67965 0.95259 0.0
C1673 C 0.01363 0.67854 0.98421 0.0
H1674 H 0.02456 0.71059 0.91292 0.0
H1675 H 0.02012 0.65639 0.93971 0.0
S1676 S 0.0059 0.75287 0.03508 0.0
N1677 N 0.0129 0.76958 0.00143 0.0
N1678 N 0.00564 0.71122 0.03017 0.0
C1679 C 0.01159 0.7094 4e-05 0.0
C1680 C 0.01545 0.74091 0.98453 0.0
C1681 C 0.1718 0.26885 0.69195 0.0
C1682 C 0.14338 0.26272 0.70702 0.0
C1683 C 0.20192 0.26878 0.70763 0.0
C1684 C 0.20539 0.26216 0.73923 0.0
H1685 H 0.17091 0.27389 0.6676 0.0
H1686 H 0.22275 0.27372 0.69466 0.0
S1687 S 0.13876 0.24466 0.78989 0.0
N1688 N 0.12086 0.25015 0.75578 0.0
N1689 N 0.1773 0.24956 0.78521 0.0
C1690 C 0.17719 0.25603 0.75473 0.0
C1691 C 0.14634 0.25648 0.73871 0.0
C1692 C 0.54235 0.6403 0.11997 0.0
C1693 C 0.55265 0.67052 0.10589 0.0
C1694 C 0.54358 0.60846 0.10525 0.0
C1695 C 0.55502 0.60527 0.07567 0.0
H1696 H 0.53332 0.64115 0.14265 0.0
H1697 H 0.53516 0.58618 0.11714 0.0
S1698 S 0.58508 0.67636 0.02859 0.0
N1699 N 0.57489 0.69478 0.06035 0.0
N1700 N 0.57711 0.63554 0.03302 0.0
C1701 C 0.56548 0.63528 0.06139 0.0
C1702 C 0.56431 0.66762 0.07636 0.0
C1703 C 0.09168 0.85667 0.84261 0.0
C1704 C 0.09196 0.85558 0.87469 0.0
C1705 C 0.1198 0.85264 0.82717 0.0
C1706 C 0.14919 0.84703 0.84326 0.0
H1707 H 0.0694 0.85965 0.82927 0.0
H1708 H 0.11837 0.85288 0.80244 0.0
S1709 S 0.16279 0.84261 0.92762 0.0
N1710 N 0.12424 0.84994 0.92212 0.0
N1711 N 0.17686 0.84108 0.89322 0.0
C1712 C 0.14995 0.84714 0.87543 0.0
C1713 C 0.12139 0.85175 0.89112 0.0
C1714 C 0.05087 0.37179 0.61716 0.0
C1715 C 0.05741 0.34152 0.60161 0.0
C1716 C 0.05185 0.40378 0.60255 0.0
C1717 C 0.05888 0.407 0.57153 0.0
H1718 H 0.04552 0.3709 0.64106 0.0
H1719 H 0.04695 0.42621 0.61575 0.0
S1720 S 0.0768 0.33565 0.52002 0.0
N1721 N 0.07068 0.31697 0.55306 0.0
N1722 N 0.07197 0.37679 0.52564 0.0
C1723 C 0.06489 0.37691 0.55553 0.0
C1724 C 0.06433 0.34434 0.57053 0.0
C1725 C 0.39517 0.27659 0.39255 0.0
C1726 C 0.42496 0.27963 0.37965 0.0
C1727 C 0.36841 0.26528 0.37506 0.0
C1728 C 0.37073 0.25611 0.34424 0.0
H1729 H 0.39226 0.28418 0.41595 0.0
H1730 H 0.34556 0.26503 0.38548 0.0
S1731 S 0.44498 0.25421 0.30159 0.0
N1732 N 0.45628 0.26904 0.33558 0.0
N1733 N 0.4063 0.24715 0.30278 0.0
C1734 C 0.40102 0.25674 0.33183 0.0
C1735 C 0.42806 0.26878 0.3495 0.0
C1736 C 0.49435 0.56705 0.38231 0.0
C1737 C 0.46493 0.54976 0.37939 0.0
C1738 C 0.50985 0.57206 0.41104 0.0
C1739 C 0.49616 0.56044 0.43778 0.0
H1740 H 0.5058 0.57621 0.36224 0.0
H1741 H 0.53273 0.58495 0.4123 0.0
S1742 S 0.4191 0.51413 0.4425 0.0
N1743 N 0.42244 0.52156 0.40576 0.0
N1744 N 0.45141 0.53075 0.45948 0.0
C1745 C 0.46647 0.54356 0.43515 0.0
C1746 C 0.4509 0.53827 0.40601 0.0
C1747 C 0.29642 0.66612 0.09786 0.0
C1748 C 0.29016 0.68435 0.07049 0.0
C1749 C 0.28692 0.67862 0.12578 0.0
C1750 C 0.27058 0.70969 0.12736 0.0
H1751 H 0.30897 0.64206 0.09779 0.0
H1752 H 0.29316 0.66423 0.14639 0.0
S1753 S 0.24613 0.76606 0.06222 0.0
N1754 N 0.26527 0.73448 0.04663 0.0
N1755 N 0.24706 0.75761 0.09918 0.0
C1756 C 0.2636 0.72789 0.10017 0.0
C1757 C 0.2735 0.71533 0.07173 0.0
C1758 C 0.09061 0.53397 0.9074 0.0
C1759 C 0.11773 0.51456 0.90165 0.0
C1760 C 0.07204 0.52666 0.93227 0.0
C1761 C 0.07987 0.49976 0.95268 0.0
H1762 H 0.08399 0.55557 0.89299 0.0
H1763 H 0.0522 0.54336 0.93629 0.0
S1764 S 0.14715 0.43939 0.94642 0.0
N1765 N 0.15027 0.46567 0.91719 0.0
N1766 N 0.11557 0.45212 0.96413 0.0
C1767 C 0.10593 0.47893 0.94624 0.0
C1768 C 0.12484 0.48633 0.92076 0.0
C1769 C 0.31959 0.37467 0.59274 0.0
C1770 C 0.303 0.40546 0.59596 0.0
C1771 C 0.32897 0.35471 0.61824 0.0
C1772 C 0.32237 0.36489 0.64794 0.0
H1773 H 0.32464 0.36536 0.5703 0.0
H1774 H 0.3408 0.3307 0.61465 0.0
S1775 S 0.28072 0.44384 0.66913 0.0
N1776 N 0.28161 0.44579 0.63158 0.0
N1777 N 0.29883 0.408 0.67926 0.0
C1778 C 0.30681 0.39613 0.65161 0.0
C1779 C 0.29722 0.41646 0.62569 0.0
C1780 C 0.47957 0.53117 0.21186 0.0
C1781 C 0.46168 0.50879 0.22932 0.0
C1782 C 0.49605 0.51935 0.18719 0.0
C1783 C 0.49505 0.48478 0.17895 0.0
H1784 H 0.48068 0.55808 0.21709 0.0
H1785 H 0.50893 0.53765 0.17388 0.0
S1786 S 0.45221 0.41555 0.21736 0.0
N1787 N 0.44436 0.45007 0.23687 0.0
N1788 N 0.47545 0.42818 0.19019 0.0
C1789 C 0.47763 0.46201 0.1963 0.0
C1790 C 0.46099 0.47393 0.22163 0.0
C1791 C 0.26597 0.71658 0.92016 0.0
C1792 C 0.28678 0.68974 0.92871 0.0
C1793 C 0.27243 0.73872 0.89601 0.0
C1794 C 0.29993 0.73492 0.87924 0.0
H1795 H 0.24408 0.72018 0.93177 0.0
H1796 H 0.25488 0.75798 0.88959 0.0
S1797 S 0.36369 0.6706 0.8941 0.0
N1798 N 0.33728 0.6621 0.91971 0.0
N1799 N 0.34939 0.70364 0.87449 0.0
C1800 C 0.32177 0.70924 0.88854 0.0
C1801 C 0.31518 0.68666 0.91313 0.0
C1802 C 0.13631 0.52202 0.7304 0.0
C1803 C 0.11609 0.52591 0.75479 0.0
C1804 C 0.12576 0.52923 0.70037 0.0
C1805 C 0.09454 0.54056 0.69341 0.0
H1806 H 0.16057 0.51313 0.73438 0.0
H1807 H 0.14196 0.52487 0.68233 0.0
S1808 S 0.03237 0.55655 0.7486 0.0
N1809 N 0.06343 0.54296 0.76988 0.0
N1810 N 0.04368 0.55653 0.71308 0.0
C1811 C 0.07408 0.54504 0.71743 0.0
C1812 C 0.08483 0.5377 0.74818 0.0
C1813 C 0.21976 0.39101 0.44259 0.0
C1814 C 0.21505 0.3762 0.47135 0.0
C1815 C 0.21978 0.37116 0.41623 0.0
C1816 C 0.21463 0.33574 0.41739 0.0
H1817 H 0.22621 0.41762 0.44061 0.0
H1818 H 0.22629 0.38342 0.39524 0.0
S1819 S 0.19318 0.28619 0.48573 0.0
N1820 N 0.19981 0.32513 0.49863 0.0
N1821 N 0.19879 0.28788 0.44874 0.0
C1822 C 0.20644 0.32129 0.4454 0.0
C1823 C 0.2068 0.34151 0.47241 0.0
C1824 C 0.36892 0.44933 0.49849 0.0
C1825 C 0.34414 0.46281 0.4797 0.0
C1826 C 0.38805 0.47049 0.51728 0.0
C1827 C 0.38271 0.50599 0.51852 0.0
H1828 H 0.37403 0.42231 0.49813 0.0
H1829 H 0.40807 0.45879 0.52979 0.0
S1830 S 0.31924 0.5529 0.47334 0.0
N1831 N 0.31512 0.513 0.46215 0.0
N1832 N 0.34869 0.55284 0.49981 0.0
C1833 C 0.35693 0.51941 0.50025 0.0
C1834 C 0.33834 0.49783 0.48018 0.0
C1835 C 0.91962 0.06626 0.48133 0.0
C1836 C 0.89344 0.06176 0.49968 0.0
C1837 C 0.94934 0.05193 0.48943 0.0
C1838 C 0.95442 0.0327 0.51648 0.0
H1839 H 0.91737 0.08158 0.4607 0.0
H1840 H 0.96873 0.05694 0.47464 0.0
S1841 S 0.8931 0.01163 0.57175 0.0
N1842 N 0.87394 0.03516 0.54542 0.0
N1843 N 0.93007 0.00843 0.5609 0.0
C1844 C 0.92813 0.02688 0.53456 0.0
C1845 C 0.89761 0.04132 0.5261 0.0
C1846 C 0.72982 0.09264 0.28701 0.0
C1847 C 0.69697 0.09476 0.2917 0.0
C1848 C 0.7466 0.12024 0.27502 0.0
C1849 C 0.73133 0.15131 0.26743 0.0
H1850 H 0.74279 0.06944 0.29263 0.0
H1851 H 0.77202 0.11747 0.27268 0.0
S1852 S 0.64535 0.16996 0.27454 0.0
N1853 N 0.64958 0.13042 0.28702 0.0
N1854 N 0.68108 0.18213 0.26475 0.0
C1855 C 0.69834 0.15357 0.27145 0.0
C1856 C 0.68121 0.12541 0.28353 0.0
C1857 C 0.68503 0.95906 0.06972 0.0
C1858 C 0.6977 0.97462 0.09636 0.0
C1859 C 0.65706 0.97118 0.05476 0.0
C1860 C 0.64047 0.99891 0.06643 0.0
H1861 H 0.69525 0.93571 0.06186 0.0
H1862 H 0.64718 0.95709 0.03532 0.0
S1863 S 0.66613 0.05087 0.13379 0.0
N1864 N 0.6936 0.021 0.1323 0.0
N1865 N 0.64067 0.04376 0.10455 0.0
C1866 C 0.65407 0.016 0.09205 0.0
C1867 C 0.68268 0.00374 0.10708 0.0
C1868 C 0.37575 0.39129 0.27905 0.0
C1869 C 0.3649 0.41701 0.29798 0.0
C1870 C 0.35663 0.36322 0.27147 0.0
C1871 C 0.32614 0.35958 0.28297 0.0
H1872 H 0.39927 0.39273 0.27004 0.0
H1873 H 0.36651 0.34353 0.25759 0.0
S1874 S 0.28608 0.42097 0.33229 0.0
N1875 N 0.32129 0.43823 0.32691 0.0
N1876 N 0.28529 0.38493 0.31308 0.0
C1877 C 0.31456 0.38572 0.30117 0.0
C1878 C 0.33398 0.41457 0.30861 0.0
C1879 C 0.17824 0.60221 0.03392 0.0
C1880 C 0.20319 0.5827 0.02263 0.0
C1881 C 0.14969 0.58717 0.04249 0.0
C1882 C 0.14488 0.55182 0.04062 0.0
H1883 H 0.18052 0.62959 0.03595 0.0
H1884 H 0.13109 0.60348 0.05039 0.0
S1885 S 0.20212 0.489 0.01212 0.0
N1886 N 0.22083 0.52589 0.00978 0.0
N1887 N 0.16727 0.49755 0.02608 0.0
C1888 C 0.16964 0.53182 0.02964 0.0
C1889 C 0.1987 0.54725 0.02056 0.0
C1890 C 0.73581 0.87819 0.34688 0.0
C1891 C 0.73107 0.90485 0.32554 0.0
C1892 C 0.75199 0.8484 0.33952 0.0
C1893 C 0.76444 0.84405 0.31058 0.0
H1894 H 0.72615 0.8798 0.36926 0.0
H1895 H 0.75415 0.82831 0.35654 0.0
S1896 S 0.76085 0.9074 0.24721 0.0
N1897 N 0.74186 0.92578 0.27472 0.0
N1898 N 0.77242 0.86997 0.26096 0.0
C1899 C 0.76105 0.8711 0.28941 0.0
C1900 C 0.74431 0.90139 0.29684 0.0
C1901 C 0.85239 0.13455 0.80347 0.0
C1902 C 0.85289 0.11284 0.77814 0.0
C1903 C 0.83538 0.16513 0.80193 0.0
C1904 C 0.81789 0.17501 0.7751 0.0
H1905 H 0.8658 0.12823 0.82451 0.0
H1906 H 0.83655 0.18146 0.82178 0.0
S1907 S 0.8088 0.1252 0.70338 0.0
N1908 N 0.83268 0.10197 0.72613 0.0
N1909 N 0.80043 0.15931 0.72318 0.0
C1910 C 0.81714 0.15279 0.74996 0.0
C1911 C 0.83479 0.1218 0.75146 0.0
loop_
_geom_bond_atom_site_label_1
_geom_bond_atom_site_label_2
_geom_bond_distance
_geom_bond_site_symmetry_2
_ccdc_geom_bond_type
C0 O1 1.160 . S
C0 O7 1.185 . S
O1 C0 1.160 . S
O2 Zn3 1.899 . S
O2 C10 1.284 . S
Zn3 O2 1.899 . S
Zn3 O4 2.032 . S
Zn3 O7 2.086 . S
Zn3 O12 1.977 . S
O4 Zn3 2.032 . S
O4 C8 1.278 . S
C5 O6 1.203 . S
C5 O12 1.267 . S
O6 C5 1.203 . S
O7 C0 1.185 . S
O7 Zn3 2.086 . S
C8 O4 1.278 . S
C8 O9 1.211 . S
O9 C8 1.211 . S
C10 O2 1.284 . S
C10 O11 1.273 . S
O11 C10 1.273 . S
O12 Zn3 1.977 . S
O12 C5 1.267 . S
C13 O14 1.160 . S
C13 O20 1.185 . S
O14 C13 1.160 . S
O15 Zn16 1.899 . S
O15 C23 1.284 . S
Zn16 O15 1.899 . S
Zn16 O17 2.032 . S
Zn16 O20 2.086 . S
Zn16 O25 1.977 . S
O17 Zn16 2.032 . S
O17 C21 1.278 . S
C18 O19 1.203 . S
C18 O25 1.267 1_655 S
O19 C18 1.203 . S
O20 C13 1.185 . S
O20 Zn16 2.086 . S
C21 O17 1.278 . S
C21 O22 1.211 . S
O22 C21 1.211 . S
C23 O15 1.284 . S
C23 O24 1.273 . S
O24 C23 1.273 . S
O25 Zn16 1.977 . S
O25 C18 1.267 1_455 S
C26 O27 1.160 . S
C26 O33 1.185 . S
O27 C26 1.160 . S
O28 Zn29 1.899 . S
O28 C36 1.284 . S
Zn29 O28 1.899 . S
Zn29 O30 2.032 . S
Zn29 O33 2.086 . S
Zn29 O38 1.977 . S
O30 Zn29 2.032 . S
O30 C34 1.278 . S
C31 O32 1.203 . S
C31 O38 1.267 . S
O32 C31 1.203 . S
O33 C26 1.185 . S
O33 Zn29 2.086 . S
C34 O30 1.278 . S
C34 O35 1.211 . S
O35 C34 1.211 . S
C36 O28 1.284 . S
C36 O37 1.273 . S
O37 C36 1.273 . S
O38 Zn29 1.977 . S
O38 C31 1.267 . S
C39 O40 1.160 . S
C39 O46 1.185 . S
O40 C39 1.160 . S
O41 Zn42 1.899 . S
O41 C49 1.284 . S
Zn42 O41 1.899 . S
Zn42 O43 2.032 . S
Zn42 O46 2.086 . S
Zn42 O51 1.977 . S
O43 Zn42 2.032 . S
O43 C47 1.278 . S
C44 O45 1.203 . S
C44 O51 1.267 . S
O45 C44 1.203 . S
O46 C39 1.185 . S
O46 Zn42 2.086 . S
C47 O43 1.278 . S
C47 O48 1.211 . S
O48 C47 1.211 . S
C49 O41 1.284 . S
C49 O50 1.273 . S
O50 C49 1.273 . S
O51 Zn42 1.977 . S
O51 C44 1.267 . S
C52 O53 1.160 . S
C52 O59 1.185 . S
O53 C52 1.160 . S
O54 Zn55 1.899 . S
O54 C62 1.284 . S
Zn55 O54 1.899 . S
Zn55 O56 2.032 . S
Zn55 O59 2.086 1_545 S
Zn55 O64 1.977 . S
O56 Zn55 2.032 . S
O56 C60 1.278 . S
C57 O58 1.203 . S
C57 O64 1.267 . S
O58 C57 1.203 . S
O59 C52 1.185 . S
O59 Zn55 2.086 1_565 S
C60 O56 1.278 . S
C60 O61 1.211 . S
O61 C60 1.211 . S
C62 O54 1.284 . S
C62 O63 1.273 . S
O63 C62 1.273 . S
O64 Zn55 1.977 . S
O64 C57 1.267 . S
C65 O66 1.160 . S
C65 O72 1.185 . S
O66 C65 1.160 . S
O67 Zn68 1.899 . S
O67 C75 1.284 . S
Zn68 O67 1.899 . S
Zn68 O69 2.032 . S
Zn68 O72 2.086 . S
Zn68 O77 1.977 . S
O69 Zn68 2.032 . S
O69 C73 1.278 . S
C70 O71 1.203 . S
C70 O77 1.267 . S
O71 C70 1.203 . S
O72 C65 1.185 . S
O72 Zn68 2.086 . S
C73 O69 1.278 . S
C73 O74 1.211 . S
O74 C73 1.211 . S
C75 O67 1.284 . S
C75 O76 1.273 . S
O76 C75 1.273 . S
O77 Zn68 1.977 . S
O77 C70 1.267 . S
C78 O79 1.160 . S
C78 O85 1.185 . S
O79 C78 1.160 . S
O80 Zn81 1.899 . S
O80 C88 1.284 . S
Zn81 O80 1.899 . S
Zn81 O82 2.032 . S
Zn81 O85 2.086 . S
Zn81 O90 1.977 1_545 S
O82 Zn81 2.032 . S
O82 C86 1.278 . S
C83 O84 1.203 . S
C83 O90 1.267 . S
O84 C83 1.203 . S
O85 C78 1.185 . S
O85 Zn81 2.086 . S
C86 O82 1.278 . S
C86 O87 1.211 1_545 S
O87 C86 1.211 1_565 S
C88 O80 1.284 . S
C88 O89 1.263 1_545 S
O89 C88 1.263 1_565 S
O90 Zn81 1.977 1_565 S
O90 C83 1.267 . S
C91 O92 1.160 . S
C91 O98 1.185 . S
O92 C91 1.160 . S
O93 Zn94 1.899 . S
O93 C101 1.284 . S
Zn94 O93 1.899 . S
Zn94 O95 2.032 . S
Zn94 O98 2.086 . S
Zn94 O103 1.977 . S
O95 Zn94 2.032 . S
O95 C99 1.278 1_554 S
C96 O97 1.203 . S
C96 O103 1.267 . S
O97 C96 1.203 . S
O98 C91 1.185 . S
O98 Zn94 2.086 . S
C99 O95 1.278 1_556 S
C99 O100 1.211 . S
O100 C99 1.211 . S
C101 O93 1.284 . S
C101 O102 1.273 . S
O102 C101 1.273 . S
O103 Zn94 1.977 . S
O103 C96 1.267 . S
C104 O105 1.160 . S
C104 O111 1.185 . S
O105 C104 1.160 . S
O106 Zn107 1.899 . S
O106 C114 1.284 . S
Zn107 O106 1.899 . S
Zn107 O108 2.032 . S
Zn107 O111 2.086 . S
Zn107 O116 1.977 . S
O108 Zn107 2.032 . S
O108 C112 1.278 . S
C109 O110 1.203 . S
C109 O116 1.267 . S
O110 C109 1.203 . S
O111 C104 1.185 . S
O111 Zn107 2.086 . S
C112 O108 1.278 . S
C112 O113 1.211 . S
O113 C112 1.211 . S
C114 O106 1.284 . S
C114 O115 1.273 . S
O115 C114 1.273 . S
O116 Zn107 1.977 . S
O116 C109 1.267 . S
C117 O118 1.160 . S
C117 O124 1.185 . S
O118 C117 1.160 . S
O119 Zn120 1.899 . S
O119 C127 1.284 . S
Zn120 O119 1.899 . S
Zn120 O121 2.032 . S
Zn120 O124 2.086 . S
Zn120 O129 1.977 . S
O121 Zn120 2.032 . S
O121 C125 1.278 . S
C122 O123 1.203 . S
C122 O129 1.267 . S
O123 C122 1.203 . S
O124 C117 1.185 . S
O124 Zn120 2.086 . S
C125 O121 1.278 . S
C125 O126 1.211 . S
O126 C125 1.211 . S
C127 O119 1.284 . S
C127 O128 1.273 . S
O128 C127 1.273 . S
O129 Zn120 1.977 . S
O129 C122 1.267 . S
C130 O131 1.160 . S
C130 O137 1.185 . S
O131 C130 1.160 . S
O132 Zn133 1.899 . S
O132 C140 1.284 . S
Zn133 O132 1.899 . S
Zn133 O134 2.032 . S
Zn133 O137 2.086 . S
Zn133 O142 1.977 . S
O134 Zn133 2.032 . S
O134 C138 1.278 . S
C135 O136 1.203 . S
C135 O142 1.267 . S
O136 C135 1.203 . S
O137 C130 1.185 . S
O137 Zn133 2.086 . S
C138 O134 1.278 . S
C138 O139 1.211 . S
O139 C138 1.211 . S
C140 O132 1.284 . S
C140 O141 1.273 . S
O141 C140 1.273 . S
O142 Zn133 1.977 . S
O142 C135 1.267 . S
C143 O144 1.160 . S
C143 O150 1.185 . S
O144 C143 1.160 . S
O145 Zn146 1.899 . S
O145 C153 1.284 . S
Zn146 O145 1.899 . S
Zn146 O147 2.032 . S
Zn146 O150 2.086 . S
Zn146 O155 1.977 . S
O147 Zn146 2.032 . S
O147 C151 1.278 . S
C148 O149 1.203 . S
C148 O155 1.267 . S
O149 C148 1.203 . S
O150 C143 1.185 . S
O150 Zn146 2.086 . S
C151 O147 1.278 . S
C151 O152 1.211 . S
O152 C151 1.211 . S
C153 O145 1.284 . S
C153 O154 1.273 . S
O154 C153 1.273 . S
O155 Zn146 1.977 . S
O155 C148 1.267 . S
C156 O157 1.160 . S
C156 O163 1.185 . S
O157 C156 1.160 . S
O158 Zn159 1.899 . S
O158 C166 1.284 1_455 S
Zn159 O158 1.899 . S
Zn159 O160 2.032 . S
Zn159 O163 2.086 . S
Zn159 O168 1.977 1_455 S
O160 Zn159 2.032 . S
O160 C164 1.278 1_455 S
C161 O162 1.203 . S
C161 O168 1.267 . S
O162 C161 1.203 . S
O163 C156 1.185 . S
O163 Zn159 2.086 . S
C164 O160 1.278 1_655 S
C164 O165 1.211 . S
O165 C164 1.211 . S
C166 O158 1.284 1_655 S
C166 O167 1.273 . S
O167 C166 1.273 . S
O168 Zn159 1.977 1_655 S
O168 C161 1.267 . S
C169 O170 1.160 . S
C169 O176 1.185 1_655 S
O170 C169 1.160 . S
O171 Zn172 1.899 . S
O171 C179 1.284 . S
Zn172 O171 1.899 . S
Zn172 O173 2.032 . S
Zn172 O176 2.086 . S
Zn172 O181 1.977 . S
O173 Zn172 2.032 . S
O173 C177 1.278 . S
C174 O175 1.203 . S
C174 O181 1.267 . S
O175 C174 1.203 . S
O176 C169 1.185 1_455 S
O176 Zn172 2.086 . S
C177 O173 1.278 . S
C177 O178 1.211 . S
O178 C177 1.211 . S
C179 O171 1.284 . S
C179 O180 1.273 . S
O180 C179 1.273 . S
O181 Zn172 1.977 . S
O181 C174 1.267 . S
C182 O183 1.160 . S
C182 O189 1.185 . S
O183 C182 1.160 . S
O184 Zn185 1.899 . S
O184 C192 1.284 . S
Zn185 O184 1.899 . S
Zn185 O186 2.032 . S
Zn185 O189 2.086 . S
Zn185 O194 1.977 . S
O186 Zn185 2.032 . S
O186 C190 1.278 . S
C187 O188 1.203 . S
C187 O194 1.267 . S
O188 C187 1.203 . S
O189 C182 1.185 . S
O189 Zn185 2.086 . S
C190 O186 1.278 . S
C190 O191 1.211 . S
O191 C190 1.211 . S
C192 O184 1.284 . S
C192 O193 1.273 . S
O193 C192 1.273 . S
O194 Zn185 1.977 . S
O194 C187 1.267 . S
C195 O196 1.160 . S
C195 O202 1.185 . S
O196 C195 1.160 . S
O197 Zn198 1.899 . S
O197 C205 1.284 . S
Zn198 O197 1.899 . S
Zn198 O199 2.032 . S
Zn198 O202 2.086 . S
Zn198 O207 1.977 . S
O199 Zn198 2.032 . S
O199 C203 1.278 . S
C200 O201 1.203 . S
C200 O207 1.267 . S
O201 C200 1.203 . S
O202 C195 1.185 . S
O202 Zn198 2.086 . S
C203 O199 1.278 . S
C203 O204 1.211 . S
O204 C203 1.211 . S
C205 O197 1.284 . S
C205 O206 1.273 . S
O206 C205 1.273 . S
O207 Zn198 1.977 . S
O207 C200 1.267 . S
C208 O209 1.160 . S
C208 O215 1.185 . S
O209 C208 1.160 . S
O210 Zn211 1.899 . S
O210 C218 1.284 . S
Zn211 O210 1.899 . S
Zn211 O212 2.032 . S
Zn211 O215 2.086 . S
Zn211 O220 1.977 1_545 S
O212 Zn211 2.032 . S
O212 C216 1.277 1_545 S
C213 O214 1.203 . S
C213 O220 1.267 . S
O214 C213 1.203 . S
O215 C208 1.185 . S
O215 Zn211 2.086 . S
C216 O212 1.277 1_565 S
C216 O217 1.212 . S
O217 C216 1.212 . S
C218 O210 1.284 . S
C218 O219 1.273 1_545 S
O219 C218 1.273 1_565 S
O220 Zn211 1.977 1_565 S
O220 C213 1.267 . S
C221 O222 1.160 . S
C221 O228 1.185 . S
O222 C221 1.160 . S
O223 Zn224 1.899 . S
O223 C231 1.284 . S
Zn224 O223 1.899 . S
Zn224 O225 2.032 . S
Zn224 O228 2.086 . S
Zn224 O233 1.977 . S
O225 Zn224 2.032 . S
O225 C229 1.278 . S
C226 O227 1.203 . S
C226 O233 1.267 . S
O227 C226 1.203 . S
O228 C221 1.185 . S
O228 Zn224 2.086 . S
C229 O225 1.278 . S
C229 O230 1.211 . S
O230 C229 1.211 . S
C231 O223 1.284 . S
C231 O232 1.273 . S
O232 C231 1.273 . S
O233 Zn224 1.977 . S
O233 C226 1.267 . S
C234 O235 1.160 . S
C234 O241 1.185 . S
O235 C234 1.160 . S
O236 Zn237 1.899 . S
O236 C244 1.284 . S
Zn237 O236 1.899 . S
Zn237 O238 2.040 . S
Zn237 O241 2.086 1_545 S
Zn237 O246 1.977 . S
O238 Zn237 2.040 . S
O238 C242 1.300 . S
C239 O240 1.203 . S
C239 O246 1.267 . S
O240 C239 1.203 . S
O241 C234 1.185 . S
O241 Zn237 2.086 1_565 S
C242 O238 1.300 . S
C242 O243 1.211 . S
O243 C242 1.211 . S
C244 O236 1.284 . S
C244 O245 1.273 . S
O245 C244 1.273 . S
O246 Zn237 1.977 . S
O246 C239 1.267 . S
C247 O248 1.160 . S
C247 O254 1.185 . S
O248 C247 1.160 . S
O249 Zn250 1.899 . S
O249 C257 1.284 . S
Zn250 O249 1.899 . S
Zn250 O251 2.032 1_554 S
Zn250 O254 2.086 . S
Zn250 O259 1.977 . S
O251 Zn250 2.032 1_556 S
O251 C255 1.278 . S
C252 O253 1.203 . S
C252 O259 1.267 . S
O253 C252 1.203 . S
O254 C247 1.185 . S
O254 Zn250 2.086 . S
C255 O251 1.278 . S
C255 O256 1.211 . S
O256 C255 1.211 . S
C257 O249 1.284 . S
C257 O258 1.273 . S
O258 C257 1.273 . S
O259 Zn250 1.977 . S
O259 C252 1.267 . S
C260 O261 1.160 . S
C260 O267 1.185 1_554 S
O261 C260 1.160 . S
O262 Zn263 1.899 . S
O262 C270 1.284 . S
Zn263 O262 1.899 . S
Zn263 O264 2.032 1_554 S
Zn263 O267 2.086 1_554 S
Zn263 O272 1.977 1_554 S
O264 Zn263 2.032 1_556 S
O264 C268 1.278 . S
C265 O266 1.203 . S
C265 O272 1.267 1_554 S
O266 C265 1.203 . S
O267 C260 1.185 1_556 S
O267 Zn263 2.086 1_556 S
C268 O264 1.278 . S
C268 O269 1.211 . S
O269 C268 1.211 . S
C270 O262 1.284 . S
C270 O271 1.273 . S
O271 C270 1.273 . S
O272 Zn263 1.977 1_556 S
O272 C265 1.267 1_556 S
C273 O274 1.160 . S
C273 O280 1.185 . S
O274 C273 1.160 . S
O275 Zn276 1.899 . S
O275 C283 1.284 . S
Zn276 O275 1.899 . S
Zn276 O277 2.032 . S
Zn276 O280 2.086 . S
Zn276 O285 1.977 . S
O277 Zn276 2.032 . S
O277 C281 1.278 . S
C278 O279 1.203 . S
C278 O285 1.267 . S
O279 C278 1.203 . S
O280 C273 1.185 . S
O280 Zn276 2.086 . S
C281 O277 1.278 . S
C281 O282 1.211 . S
O282 C281 1.211 . S
C283 O275 1.284 . S
C283 O284 1.273 . S
O284 C283 1.273 . S
O285 Zn276 1.977 . S
O285 C278 1.267 . S
C286 O287 1.160 . S
C286 O293 1.185 . S
O287 C286 1.160 . S
O288 Zn289 1.899 . S
O288 C296 1.284 . S
Zn289 O288 1.899 . S
Zn289 O290 2.032 . S
Zn289 O293 2.086 . S
Zn289 O298 1.977 . S
O290 Zn289 2.032 . S
O290 C294 1.278 . S
C291 O292 1.203 . S
C291 O298 1.267 . S
O292 C291 1.203 . S
O293 C286 1.185 . S
O293 Zn289 2.086 . S
C294 O290 1.278 . S
C294 O295 1.211 . S
O295 C294 1.211 . S
C296 O288 1.284 . S
C296 O297 1.273 . S
O297 C296 1.273 . S
O298 Zn289 1.977 . S
O298 C291 1.267 . S
C299 O300 1.160 . S
C299 O306 1.185 . S
O300 C299 1.160 . S
O301 Zn302 1.899 . S
O301 C309 1.284 . S
Zn302 O301 1.899 . S
Zn302 O303 2.032 . S
Zn302 O306 2.086 . S
Zn302 O311 1.977 . S
O303 Zn302 2.032 . S
O303 C307 1.278 . S
C304 O305 1.203 . S
C304 O311 1.267 . S
O305 C304 1.203 . S
O306 C299 1.185 . S
O306 Zn302 2.086 . S
C307 O303 1.278 . S
C307 O308 1.211 . S
O308 C307 1.211 . S
C309 O301 1.284 . S
C309 O310 1.273 . S
O310 C309 1.273 . S
O311 Zn302 1.977 . S
O311 C304 1.267 . S
C312 O328 1.237 1_456 S
C312 O330 1.254 . S
N313 C314 1.333 1_565 S
N313 C318 1.307 . S
N313 Zn319 2.020 1_665 S
C314 N313 1.333 1_545 S
C314 C315 1.379 . S
C314 H332 0.952 . S
C315 C314 1.379 . S
C315 C316 1.390 1_545 S
C315 H342 0.949 . S
C316 C315 1.390 1_565 S
C316 C317 1.357 . S
C317 C316 1.357 . S
C317 C318 1.370 . S
C317 H343 0.950 . S
C318 N313 1.307 . S
C318 C317 1.370 . S
C318 H336 0.948 . S
Zn319 N313 2.020 1_445 S
Zn319 O328 2.036 1_455 S
Zn319 O334 2.034 . S
Zn319 O338 2.025 1_545 S
Zn319 O340 2.024 1_545 S
C320 O339 1.246 . S
C320 O340 1.249 . S
N321 C322 1.307 1_554 S
N321 C323 1.333 . S
N321 Zn327 2.020 . S
C322 N321 1.307 1_556 S
C322 C326 1.370 . S
C322 H333 0.948 . S
C323 N321 1.333 . S
C323 C324 1.379 . S
C323 H331 0.952 . S
C324 C323 1.379 . S
C324 C325 1.390 . S
C324 H344 0.949 . S
C325 C324 1.390 . S
C325 C326 1.357 1_554 S
C326 C322 1.370 . S
C326 C325 1.357 1_556 S
C326 H345 0.950 . S
Zn327 N321 2.020 . S
Zn327 O330 2.025 1_554 S
Zn327 O335 2.024 . S
Zn327 O337 2.039 . S
Zn327 O339 2.034 1_545 S
O328 C312 1.237 1_654 S
O328 Zn319 2.036 1_655 S
C329 O334 1.246 . S
C329 O335 1.249 . S
O330 C312 1.254 . S
O330 Zn327 2.025 1_556 S
H331 C323 0.952 . S
H332 C314 0.952 . S
H333 C322 0.948 . S
O334 Zn319 2.034 . S
O334 C329 1.246 . S
O335 Zn327 2.024 . S
O335 C329 1.249 . S
H336 C318 0.948 . S
O337 Zn327 2.039 . S
O337 C341 1.251 1_545 S
O338 Zn319 2.025 1_565 S
O338 C341 1.254 . S
O339 C320 1.246 . S
O339 Zn327 2.034 1_565 S
O340 Zn319 2.024 1_565 S
O340 C320 1.249 . S
C341 O337 1.251 1_565 S
C341 O338 1.254 . S
H342 C315 0.949 . S
H343 C317 0.950 . S
H344 C324 0.949 . S
H345 C326 0.950 . S
C346 O362 1.251 . S
C346 O364 1.254 . S
N347 C348 1.333 . S
N347 C352 1.307 . S
N347 Zn353 2.020 . S
C348 N347 1.333 . S
C348 C349 1.379 . S
C348 H366 0.952 . S
C349 C348 1.379 . S
C349 C350 1.390 . S
C349 H376 0.949 . S
C350 C349 1.390 . S
C350 C351 1.357 . S
C351 C350 1.357 . S
C351 C352 1.370 . S
C351 H377 0.950 . S
C352 N347 1.307 . S
C352 C351 1.370 . S
C352 H370 0.948 . S
Zn353 N347 2.020 . S
Zn353 O362 2.039 . S
Zn353 O368 2.034 . S
Zn353 O372 2.025 . S
Zn353 O374 2.024 . S
C354 O373 1.246 . S
C354 O374 1.249 . S
N355 C356 1.307 . S
N355 C357 1.333 . S
N355 Zn361 2.020 . S
C356 N355 1.307 . S
C356 C360 1.370 . S
C356 H367 0.948 . S
C357 N355 1.333 . S
C357 C358 1.379 . S
C357 H365 0.952 . S
C358 C357 1.379 . S
C358 C359 1.390 . S
C358 H378 0.949 . S
C359 C358 1.390 . S
C359 C360 1.357 . S
C360 C356 1.370 . S
C360 C359 1.357 . S
C360 H379 0.950 . S
Zn361 N355 2.020 . S
Zn361 O364 2.025 . S
Zn361 O369 2.024 . S
Zn361 O371 2.039 . S
Zn361 O373 2.034 . S
O362 C346 1.251 . S
O362 Zn353 2.039 . S
C363 O368 1.246 . S
C363 O369 1.249 . S
O364 C346 1.254 . S
O364 Zn361 2.025 . S
H365 C357 0.952 . S
H366 C348 0.952 . S
H367 C356 0.948 . S
O368 Zn353 2.034 . S
O368 C363 1.246 . S
O369 Zn361 2.024 . S
O369 C363 1.249 . S
H370 C352 0.948 . S
O371 Zn361 2.039 . S
O371 C375 1.251 . S
O372 Zn353 2.025 . S
O372 C375 1.254 . S
O373 C354 1.246 . S
O373 Zn361 2.034 . S
O374 Zn353 2.024 . S
O374 C354 1.249 . S
C375 O371 1.251 . S
C375 O372 1.254 . S
H376 C349 0.949 . S
H377 C351 0.950 . S
H378 C358 0.949 . S
H379 C360 0.950 . S
C380 O396 1.237 1_545 S
C380 O398 1.254 . S
N381 C382 1.333 . S
N381 C386 1.307 . S
N381 Zn387 2.020 . S
C382 N381 1.333 . S
C382 C383 1.379 . S
C382 H400 0.952 . S
C383 C382 1.379 . S
C383 C384 1.390 . S
C383 H410 0.949 . S
C384 C383 1.390 . S
C384 C385 1.357 . S
C385 C384 1.357 . S
C385 C386 1.370 . S
C385 H411 0.950 . S
C386 N381 1.307 . S
C386 C385 1.370 . S
C386 H404 0.948 . S
Zn387 N381 2.020 . S
Zn387 O396 2.045 . S
Zn387 O402 2.034 1_565 S
Zn387 O406 2.025 . S
Zn387 O408 2.024 . S
C388 O407 1.246 1_565 S
C388 O408 1.249 . S
N389 C390 1.307 . S
N389 C391 1.333 . S
N389 Zn395 2.020 . S
C390 N389 1.307 . S
C390 C394 1.370 . S
C390 H401 0.948 . S
C391 N389 1.333 . S
C391 C392 1.379 . S
C391 H399 0.952 . S
C392 C391 1.379 . S
C392 C393 1.390 . S
C392 H412 0.949 . S
C393 C392 1.390 . S
C393 C394 1.357 . S
C394 C390 1.370 . S
C394 C393 1.357 . S
C394 H413 0.950 . S
Zn395 N389 2.020 . S
Zn395 O398 2.025 . S
Zn395 O403 2.024 . S
Zn395 O405 2.039 . S
Zn395 O407 2.034 . S
O396 C380 1.237 1_565 S
O396 Zn387 2.045 . S
C397 O402 1.246 . S
C397 O403 1.249 . S
O398 C380 1.254 . S
O398 Zn395 2.025 . S
H399 C391 0.952 . S
H400 C382 0.952 . S
H401 C390 0.948 . S
O402 Zn387 2.034 1_545 S
O402 C397 1.246 . S
O403 Zn395 2.024 . S
O403 C397 1.249 . S
H404 C386 0.948 . S
O405 Zn395 2.039 . S
O405 C409 1.254 1_545 S
O406 Zn387 2.025 . S
O406 C409 1.251 . S
O407 C388 1.246 1_545 S
O407 Zn395 2.034 . S
O408 Zn387 2.024 . S
O408 C388 1.249 . S
C409 O405 1.254 1_565 S
C409 O406 1.251 . S
H410 C383 0.949 . S
H411 C385 0.950 . S
H412 C392 0.949 . S
H413 C394 0.950 . S
C414 O430 1.251 . S
C414 O432 1.254 . S
N415 C416 1.333 . S
N415 C420 1.307 . S
N415 Zn421 2.020 . S
C416 N415 1.333 . S
C416 C417 1.379 . S
C416 H434 0.952 . S
C417 C416 1.379 . S
C417 C418 1.390 . S
C417 H444 0.949 . S
C418 C417 1.390 . S
C418 C419 1.357 . S
C419 C418 1.357 . S
C419 C420 1.370 . S
C419 H445 0.950 . S
C420 N415 1.307 . S
C420 C419 1.370 . S
C420 H438 0.948 . S
Zn421 N415 2.020 . S
Zn421 O430 2.039 . S
Zn421 O436 2.034 . S
Zn421 O440 2.025 . S
Zn421 O442 2.024 . S
C422 O441 1.246 . S
C422 O442 1.249 . S
N423 C424 1.307 . S
N423 C425 1.333 . S
N423 Zn429 2.020 . S
C424 N423 1.307 . S
C424 C428 1.370 . S
C424 H435 0.948 . S
C425 N423 1.333 . S
C425 C426 1.379 . S
C425 H433 0.952 . S
C426 C425 1.379 . S
C426 C427 1.390 . S
C426 H446 0.949 . S
C427 C426 1.390 . S
C427 C428 1.357 . S
C428 C424 1.370 . S
C428 C427 1.357 . S
C428 H447 0.950 . S
Zn429 N423 2.020 . S
Zn429 O432 2.025 . S
Zn429 O437 2.024 . S
Zn429 O439 2.039 . S
Zn429 O441 2.034 . S
O430 C414 1.251 . S
O430 Zn421 2.039 . S
C431 O436 1.246 . S
C431 O437 1.249 . S
O432 C414 1.254 . S
O432 Zn429 2.025 . S
H433 C425 0.952 . S
H434 C416 0.952 . S
H435 C424 0.948 . S
O436 Zn421 2.034 . S
O436 C431 1.246 . S
O437 Zn429 2.024 . S
O437 C431 1.249 . S
H438 C420 0.948 . S
O439 Zn429 2.039 . S
O439 C443 1.251 . S
O440 Zn421 2.025 . S
O440 C443 1.254 . S
O441 C422 1.246 . S
O441 Zn429 2.034 . S
O442 Zn421 2.024 . S
O442 C422 1.249 . S
C443 O439 1.251 . S
C443 O440 1.254 . S
H444 C417 0.949 . S
H445 C419 0.950 . S
H446 C426 0.949 . S
H447 C428 0.950 . S
C448 O464 1.251 1_565 S
C448 O466 1.254 . S
N449 C450 1.333 . S
N449 C454 1.307 . S
N449 Zn455 2.020 . S
C450 N449 1.333 . S
C450 C451 1.379 . S
C450 H468 0.952 . S
C451 C450 1.379 . S
C451 C452 1.390 . S
C451 H478 0.949 . S
C452 C451 1.390 . S
C452 C453 1.357 . S
C453 C452 1.357 . S
C453 C454 1.370 . S
C453 H479 0.950 . S
C454 N449 1.307 . S
C454 C453 1.370 . S
C454 H472 0.948 . S
Zn455 N449 2.020 . S
Zn455 O464 2.039 . S
Zn455 O470 2.034 . S
Zn455 O474 2.025 . S
Zn455 O476 2.024 1_545 S
C456 O475 1.246 . S
C456 O476 1.249 . S
N457 C458 1.307 . S
N457 C459 1.333 1_455 S
N457 Zn463 2.020 1_565 S
C458 N457 1.307 . S
C458 C462 1.370 . S
C458 H469 0.948 . S
C459 N457 1.333 1_655 S
C459 C460 1.379 . S
C459 H467 0.952 . S
C460 C459 1.379 . S
C460 C461 1.390 . S
C460 H480 0.949 . S
C461 C460 1.390 . S
C461 C462 1.357 1_655 S
C462 C458 1.370 . S
C462 C461 1.357 1_455 S
C462 H481 0.950 . S
Zn463 N457 2.020 1_545 S
Zn463 O466 2.025 1_545 S
Zn463 O471 2.024 . S
Zn463 O473 2.039 1_455 S
Zn463 O475 2.034 1_545 S
O464 C448 1.251 1_545 S
O464 Zn455 2.039 . S
C465 O470 1.246 . S
C465 O471 1.249 . S
O466 C448 1.254 . S
O466 Zn463 2.025 1_565 S
H467 C459 0.952 . S
H468 C450 0.952 . S
H469 C458 0.948 . S
O470 Zn455 2.034 . S
O470 C465 1.246 . S
O471 Zn463 2.024 . S
O471 C465 1.249 . S
H472 C454 0.948 . S
O473 Zn463 2.039 1_655 S
O473 C477 1.251 . S
O474 Zn455 2.025 . S
O474 C477 1.254 1_455 S
O475 C456 1.246 . S
O475 Zn463 2.034 1_565 S
O476 Zn455 2.024 1_565 S
O476 C456 1.249 . S
C477 O473 1.251 . S
C477 O474 1.254 1_655 S
H478 C451 0.949 . S
H479 C453 0.950 . S
H480 C460 0.949 . S
H481 C462 0.950 . S
C482 O498 1.251 . S
C482 O500 1.254 . S
N483 C484 1.333 . S
N483 C488 1.307 . S
N483 Zn489 2.020 . S
C484 N483 1.333 . S
C484 C485 1.379 . S
C484 H502 0.952 . S
C485 C484 1.379 . S
C485 C486 1.390 . S
C485 H512 0.949 . S
C486 C485 1.390 . S
C486 C487 1.357 . S
C487 C486 1.357 . S
C487 C488 1.370 . S
C487 H513 0.950 . S
C488 N483 1.307 . S
C488 C487 1.370 . S
C488 H506 0.948 . S
Zn489 N483 2.020 . S
Zn489 O498 2.039 . S
Zn489 O504 2.034 . S
Zn489 O508 2.025 . S
Zn489 O510 2.024 . S
C490 O509 1.246 . S
C490 O510 1.249 . S
N491 C492 1.307 . S
N491 C493 1.333 . S
N491 Zn497 2.020 . S
C492 N491 1.307 . S
C492 C496 1.370 . S
C492 H503 0.948 . S
C493 N491 1.333 . S
C493 C494 1.379 . S
C493 H501 0.952 . S
C494 C493 1.379 . S
C494 C495 1.390 . S
C494 H514 0.949 . S
C495 C494 1.390 . S
C495 C496 1.357 . S
C496 C492 1.370 . S
C496 C495 1.357 . S
C496 H515 0.950 . S
Zn497 N491 2.020 . S
Zn497 O500 2.025 . S
Zn497 O505 2.024 . S
Zn497 O507 2.039 . S
Zn497 O509 2.034 . S
O498 C482 1.251 . S
O498 Zn489 2.039 . S
C499 O504 1.246 . S
C499 O505 1.249 . S
O500 C482 1.254 . S
O500 Zn497 2.025 . S
H501 C493 0.952 . S
H502 C484 0.952 . S
H503 C492 0.948 . S
O504 Zn489 2.034 . S
O504 C499 1.246 . S
O505 Zn497 2.024 . S
O505 C499 1.249 . S
H506 C488 0.948 . S
O507 Zn497 2.039 . S
O507 C511 1.251 . S
O508 Zn489 2.025 . S
O508 C511 1.254 . S
O509 C490 1.246 . S
O509 Zn497 2.034 . S
O510 Zn489 2.024 . S
O510 C490 1.249 . S
C511 O507 1.251 . S
C511 O508 1.254 . S
H512 C485 0.949 . S
H513 C487 0.950 . S
H514 C494 0.949 . S
H515 C496 0.950 . S
C516 O532 1.251 . S
C516 O534 1.254 . S
N517 C518 1.333 . S
N517 C522 1.307 . S
N517 Zn523 2.020 . S
C518 N517 1.333 . S
C518 C519 1.379 . S
C518 H536 0.952 . S
C519 C518 1.379 . S
C519 C520 1.390 . S
C519 H546 0.949 . S
C520 C519 1.390 . S
C520 C521 1.357 . S
C521 C520 1.357 . S
C521 C522 1.370 . S
C521 H547 0.950 . S
C522 N517 1.307 . S
C522 C521 1.370 . S
C522 H540 0.948 . S
Zn523 N517 2.020 . S
Zn523 O532 2.039 1_545 S
Zn523 O538 2.034 . S
Zn523 O542 2.025 . S
Zn523 O544 2.024 . S
C524 O543 1.246 . S
C524 O544 1.249 1_565 S
N525 C526 1.307 . S
N525 C527 1.333 1_565 S
N525 Zn531 2.020 1_566 S
C526 N525 1.307 . S
C526 C530 1.370 . S
C526 H537 0.948 . S
C527 N525 1.333 1_545 S
C527 C528 1.379 . S
C527 H535 0.952 . S
C528 C527 1.379 . S
C528 C529 1.390 1_545 S
C528 H548 0.949 . S
C529 C528 1.390 1_565 S
C529 C530 1.357 . S
C530 C526 1.370 . S
C530 C529 1.357 . S
C530 H549 0.950 . S
Zn531 N525 2.020 1_544 S
Zn531 O534 2.025 1_545 S
Zn531 O539 2.024 . S
Zn531 O541 2.039 1_554 S
Zn531 O543 2.034 1_545 S
O532 C516 1.251 . S
O532 Zn523 2.039 1_565 S
C533 O538 1.246 . S
C533 O539 1.249 . S
O534 C516 1.254 . S
O534 Zn531 2.025 1_565 S
H535 C527 0.952 . S
H536 C518 0.952 . S
H537 C526 0.948 . S
O538 Zn523 2.034 . S
O538 C533 1.246 . S
O539 Zn531 2.024 . S
O539 C533 1.249 . S
H540 C522 0.948 . S
O541 Zn531 2.039 1_556 S
O541 C545 1.251 1_556 S
O542 Zn523 2.025 . S
O542 C545 1.254 . S
O543 C524 1.246 . S
O543 Zn531 2.034 1_565 S
O544 Zn523 2.024 . S
O544 C524 1.249 1_545 S
C545 O541 1.251 1_554 S
C545 O542 1.254 . S
H546 C519 0.949 . S
H547 C521 0.950 . S
H548 C528 0.949 . S
H549 C530 0.950 . S
C550 O566 1.251 . S
C550 O568 1.254 . S
N551 C552 1.333 . S
N551 C556 1.307 . S
N551 Zn557 2.020 . S
C552 N551 1.333 . S
C552 C553 1.379 . S
C552 H570 0.952 . S
C553 C552 1.379 . S
C553 C554 1.390 . S
C553 H580 0.949 . S
C554 C553 1.390 . S
C554 C555 1.357 . S
C555 C554 1.357 . S
C555 C556 1.370 . S
C555 H581 0.950 . S
C556 N551 1.307 . S
C556 C555 1.370 . S
C556 H574 0.948 . S
Zn557 N551 2.020 . S
Zn557 O566 2.039 . S
Zn557 O572 2.034 . S
Zn557 O576 2.025 . S
Zn557 O578 2.024 . S
C558 O577 1.246 . S
C558 O578 1.249 . S
N559 C560 1.307 . S
N559 C561 1.333 . S
N559 Zn565 2.020 . S
C560 N559 1.307 . S
C560 C564 1.370 . S
C560 H571 0.948 . S
C561 N559 1.333 . S
C561 C562 1.379 . S
C561 H569 0.952 . S
C562 C561 1.379 . S
C562 C563 1.390 . S
C562 H582 0.949 . S
C563 C562 1.390 . S
C563 C564 1.357 . S
C564 C560 1.370 . S
C564 C563 1.357 . S
C564 H583 0.950 . S
Zn565 N559 2.020 . S
Zn565 O568 2.025 . S
Zn565 O573 2.024 . S
Zn565 O575 2.039 . S
Zn565 O577 2.034 . S
O566 C550 1.251 . S
O566 Zn557 2.039 . S
C567 O572 1.246 . S
C567 O573 1.249 . S
O568 C550 1.254 . S
O568 Zn565 2.025 . S
H569 C561 0.952 . S
H570 C552 0.952 . S
H571 C560 0.948 . S
O572 Zn557 2.034 . S
O572 C567 1.246 . S
O573 Zn565 2.024 . S
O573 C567 1.249 . S
H574 C556 0.948 . S
O575 Zn565 2.039 . S
O575 C579 1.251 . S
O576 Zn557 2.025 . S
O576 C579 1.254 . S
O577 C558 1.246 . S
O577 Zn565 2.034 . S
O578 Zn557 2.024 . S
O578 C558 1.249 . S
C579 O575 1.251 . S
C579 O576 1.254 . S
H580 C553 0.949 . S
H581 C555 0.950 . S
H582 C562 0.949 . S
H583 C564 0.950 . S
C584 O600 1.251 . S
C584 O602 1.254 . S
N585 C586 1.333 . S
N585 C590 1.307 . S
N585 Zn591 2.020 1_556 S
C586 N585 1.333 . S
C586 C587 1.379 . S
C586 H604 0.952 . S
C587 C586 1.379 . S
C587 C588 1.390 . S
C587 H614 0.949 . S
C588 C587 1.390 . S
C588 C589 1.357 . S
C589 C588 1.357 . S
C589 C590 1.370 . S
C589 H615 0.950 . S
C590 N585 1.307 . S
C590 C589 1.370 . S
C590 H608 0.948 . S
Zn591 N585 2.020 1_554 S
Zn591 O600 2.039 . S
Zn591 O606 2.034 . S
Zn591 O610 2.025 1_554 S
Zn591 O612 2.024 1_554 S
C592 O611 1.246 . S
C592 O612 1.249 1_554 S
N593 C594 1.307 . S
N593 C595 1.333 . S
N593 Zn599 2.020 . S
C594 N593 1.307 . S
C594 C598 1.370 . S
C594 H605 0.948 . S
C595 N593 1.333 . S
C595 C596 1.379 . S
C595 H603 0.952 . S
C596 C595 1.379 . S
C596 C597 1.390 . S
C596 H616 0.949 . S
C597 C596 1.390 . S
C597 C598 1.357 . S
C598 C594 1.370 . S
C598 C597 1.357 . S
C598 H617 0.950 . S
Zn599 N593 2.020 . S
Zn599 O602 2.025 . S
Zn599 O607 2.024 . S
Zn599 O609 2.039 . S
Zn599 O611 2.034 . S
O600 C584 1.251 . S
O600 Zn591 2.039 . S
C601 O606 1.246 . S
C601 O607 1.249 . S
O602 C584 1.254 . S
O602 Zn599 2.025 . S
H603 C595 0.952 . S
H604 C586 0.952 . S
H605 C594 0.948 . S
O606 Zn591 2.034 . S
O606 C601 1.246 . S
O607 Zn599 2.024 . S
O607 C601 1.249 . S
H608 C590 0.948 . S
O609 Zn599 2.039 . S
O609 C613 1.251 . S
O610 Zn591 2.025 1_556 S
O610 C613 1.254 1_556 S
O611 C592 1.246 . S
O611 Zn599 2.034 . S
O612 Zn591 2.024 1_556 S
O612 C592 1.249 1_556 S
C613 O609 1.251 . S
C613 O610 1.254 1_554 S
H614 C587 0.949 . S
H615 C589 0.950 . S
H616 C596 0.949 . S
H617 C598 0.950 . S
C618 O634 1.251 . S
C618 O636 1.254 . S
N619 C620 1.333 . S
N619 C624 1.307 . S
N619 Zn625 2.020 . S
C620 N619 1.333 . S
C620 C621 1.379 . S
C620 H638 0.952 . S
C621 C620 1.379 . S
C621 C622 1.390 . S
C621 H648 0.949 . S
C622 C621 1.390 . S
C622 C623 1.357 . S
C623 C622 1.357 . S
C623 C624 1.370 . S
C623 H649 0.950 . S
C624 N619 1.307 . S
C624 C623 1.370 . S
C624 H642 0.948 . S
Zn625 N619 2.020 . S
Zn625 O634 2.039 . S
Zn625 O640 2.034 . S
Zn625 O644 2.025 . S
Zn625 O646 2.024 . S
C626 O645 1.246 . S
C626 O646 1.249 . S
N627 C628 1.307 . S
N627 C629 1.333 . S
N627 Zn633 2.020 . S
C628 N627 1.307 . S
C628 C632 1.370 . S
C628 H639 0.948 . S
C629 N627 1.333 . S
C629 C630 1.379 . S
C629 H637 0.952 . S
C630 C629 1.379 . S
C630 C631 1.390 . S
C630 H650 0.949 . S
C631 C630 1.390 . S
C631 C632 1.357 . S
C632 C628 1.370 . S
C632 C631 1.357 . S
C632 H651 0.950 . S
Zn633 N627 2.020 . S
Zn633 O636 2.025 . S
Zn633 O641 2.024 . S
Zn633 O643 2.039 . S
Zn633 O645 2.034 . S
O634 C618 1.251 . S
O634 Zn625 2.039 . S
C635 O640 1.246 . S
C635 O641 1.249 . S
O636 C618 1.254 . S
O636 Zn633 2.025 . S
H637 C629 0.952 . S
H638 C620 0.952 . S
H639 C628 0.948 . S
O640 Zn625 2.034 . S
O640 C635 1.246 . S
O641 Zn633 2.024 . S
O641 C635 1.249 . S
H642 C624 0.948 . S
O643 Zn633 2.039 . S
O643 C647 1.251 . S
O644 Zn625 2.025 . S
O644 C647 1.254 . S
O645 C626 1.246 . S
O645 Zn633 2.034 . S
O646 Zn625 2.024 . S
O646 C626 1.249 . S
C647 O643 1.251 . S
C647 O644 1.254 . S
H648 C621 0.949 . S
H649 C623 0.950 . S
H650 C630 0.949 . S
H651 C632 0.950 . S
C652 O668 1.251 . S
C652 O670 1.254 . S
N653 C654 1.333 . S
N653 C658 1.307 . S
N653 Zn659 2.020 . S
C654 N653 1.333 . S
C654 C655 1.379 . S
C654 H672 0.952 . S
C655 C654 1.379 . S
C655 C656 1.390 . S
C655 H682 0.949 . S
C656 C655 1.390 . S
C656 C657 1.357 . S
C657 C656 1.357 . S
C657 C658 1.370 . S
C657 H683 0.950 . S
C658 N653 1.307 . S
C658 C657 1.370 . S
C658 H676 0.948 . S
Zn659 N653 2.020 . S
Zn659 O668 2.039 . S
Zn659 O674 2.034 . S
Zn659 O678 2.025 . S
Zn659 O680 2.024 . S
C660 O679 1.246 . S
C660 O680 1.249 . S
N661 C662 1.307 1_455 S
N661 C663 1.333 . S
N661 Zn667 2.020 . S
C662 N661 1.307 1_655 S
C662 C666 1.370 . S
C662 H673 0.948 . S
C663 N661 1.333 . S
C663 C664 1.379 . S
C663 H671 0.952 . S
C664 C663 1.379 . S
C664 C665 1.390 1_455 S
C664 H684 0.949 . S
C665 C664 1.390 1_655 S
C665 C666 1.357 . S
C666 C662 1.370 . S
C666 C665 1.357 . S
C666 H685 0.950 . S
Zn667 N661 2.020 . S
Zn667 O670 2.025 . S
Zn667 O675 2.024 1_455 S
Zn667 O677 2.039 . S
Zn667 O679 2.034 . S
O668 C652 1.251 . S
O668 Zn659 2.039 . S
C669 O674 1.246 1_655 S
C669 O675 1.249 . S
O670 C652 1.254 . S
O670 Zn667 2.025 . S
H671 C663 0.952 . S
H672 C654 0.952 . S
H673 C662 0.948 . S
O674 Zn659 2.034 . S
O674 C669 1.246 1_455 S
O675 Zn667 2.024 1_655 S
O675 C669 1.249 . S
H676 C658 0.948 . S
O677 Zn667 2.039 . S
O677 C681 1.251 . S
O678 Zn659 2.025 . S
O678 C681 1.254 . S
O679 C660 1.246 . S
O679 Zn667 2.034 . S
O680 Zn659 2.024 . S
O680 C660 1.249 . S
C681 O677 1.251 . S
C681 O678 1.254 . S
H682 C655 0.949 . S
H683 C657 0.950 . S
H684 C664 0.949 . S
H685 C666 0.950 . S
C686 O702 1.251 . S
C686 O704 1.254 . S
N687 C688 1.333 . S
N687 C692 1.307 . S
N687 Zn693 2.020 . S
C688 N687 1.333 . S
C688 C689 1.379 . S
C688 H706 0.952 . S
C689 C688 1.379 . S
C689 C690 1.390 . S
C689 H716 0.949 . S
C690 C689 1.390 . S
C690 C691 1.357 . S
C691 C690 1.357 . S
C691 C692 1.370 . S
C691 H717 0.950 . S
C692 N687 1.307 . S
C692 C691 1.370 . S
C692 H710 0.948 . S
Zn693 N687 2.020 . S
Zn693 O702 2.039 . S
Zn693 O708 2.034 . S
Zn693 O712 2.025 . S
Zn693 O714 2.024 . S
C694 O713 1.246 . S
C694 O714 1.249 . S
N695 C696 1.307 . S
N695 C697 1.333 . S
N695 Zn701 2.020 . S
C696 N695 1.307 . S
C696 C700 1.370 . S
C696 H707 0.948 . S
C697 N695 1.333 . S
C697 C698 1.379 . S
C697 H705 0.952 . S
C698 C697 1.379 . S
C698 C699 1.390 . S
C698 H718 0.949 . S
C699 C698 1.390 . S
C699 C700 1.357 . S
C700 C696 1.370 . S
C700 C699 1.357 . S
C700 H719 0.950 . S
Zn701 N695 2.020 . S
Zn701 O704 2.025 . S
Zn701 O709 2.024 . S
Zn701 O711 2.039 . S
Zn701 O713 2.034 . S
O702 C686 1.251 . S
O702 Zn693 2.039 . S
C703 O708 1.246 . S
C703 O709 1.249 . S
O704 C686 1.254 . S
O704 Zn701 2.025 . S
H705 C697 0.952 . S
H706 C688 0.952 . S
H707 C696 0.948 . S
O708 Zn693 2.034 . S
O708 C703 1.246 . S
O709 Zn701 2.024 . S
O709 C703 1.249 . S
H710 C692 0.948 . S
O711 Zn701 2.039 . S
O711 C715 1.251 . S
O712 Zn693 2.025 . S
O712 C715 1.254 . S
O713 C694 1.246 . S
O713 Zn701 2.034 . S
O714 Zn693 2.024 . S
O714 C694 1.249 . S
C715 O711 1.251 . S
C715 O712 1.254 . S
H716 C689 0.949 . S
H717 C691 0.950 . S
H718 C698 0.949 . S
H719 C700 0.950 . S
C720 O736 1.251 . S
C720 O738 1.254 . S
N721 C722 1.333 . S
N721 C726 1.307 . S
N721 Zn727 2.020 . S
C722 N721 1.333 . S
C722 C723 1.379 . S
C722 H740 0.952 . S
C723 C722 1.379 . S
C723 C724 1.390 . S
C723 H750 0.949 . S
C724 C723 1.390 . S
C724 C725 1.357 . S
C725 C724 1.357 . S
C725 C726 1.370 . S
C725 H751 0.950 . S
C726 N721 1.307 . S
C726 C725 1.370 . S
C726 H744 0.948 . S
Zn727 N721 2.020 . S
Zn727 O736 2.039 . S
Zn727 O742 2.034 . S
Zn727 O746 2.025 . S
Zn727 O748 2.024 . S
C728 O747 1.246 . S
C728 O748 1.249 . S
N729 C730 1.307 . S
N729 C731 1.333 . S
N729 Zn735 2.020 . S
C730 N729 1.307 . S
C730 C734 1.370 . S
C730 H741 0.948 . S
C731 N729 1.333 . S
C731 C732 1.379 . S
C731 H739 0.952 . S
C732 C731 1.379 . S
C732 C733 1.390 . S
C732 H752 0.949 . S
C733 C732 1.390 . S
C733 C734 1.357 . S
C734 C730 1.370 . S
C734 C733 1.357 . S
C734 H753 0.950 . S
Zn735 N729 2.020 . S
Zn735 O738 2.025 . S
Zn735 O743 2.024 . S
Zn735 O745 2.039 . S
Zn735 O747 2.034 . S
O736 C720 1.251 . S
O736 Zn727 2.039 . S
C737 O742 1.246 . S
C737 O743 1.249 . S
O738 C720 1.254 . S
O738 Zn735 2.025 . S
H739 C731 0.952 . S
H740 C722 0.952 . S
H741 C730 0.948 . S
O742 Zn727 2.034 . S
O742 C737 1.246 . S
O743 Zn735 2.024 . S
O743 C737 1.249 . S
H744 C726 0.948 . S
O745 Zn735 2.039 . S
O745 C749 1.251 . S
O746 Zn727 2.025 . S
O746 C749 1.254 . S
O747 C728 1.246 . S
O747 Zn735 2.034 . S
O748 Zn727 2.024 . S
O748 C728 1.249 . S
C749 O745 1.251 . S
C749 O746 1.254 . S
H750 C723 0.949 . S
H751 C725 0.950 . S
H752 C732 0.949 . S
H753 C734 0.950 . S
C754 O770 1.251 . S
C754 O772 1.254 . S
N755 C756 1.333 . S
N755 C760 1.307 . S
N755 Zn761 2.020 . S
C756 N755 1.333 . S
C756 C757 1.379 . S
C756 H774 0.952 . S
C757 C756 1.379 . S
C757 C758 1.390 . S
C757 H784 0.949 . S
C758 C757 1.390 . S
C758 C759 1.357 . S
C759 C758 1.357 . S
C759 C760 1.370 . S
C759 H785 0.950 . S
C760 N755 1.307 . S
C760 C759 1.370 . S
C760 H778 0.948 . S
Zn761 N755 2.020 . S
Zn761 O770 2.039 . S
Zn761 O776 2.034 . S
Zn761 O780 2.025 . S
Zn761 O782 2.024 . S
C762 O781 1.246 . S
C762 O782 1.249 . S
N763 C764 1.307 . S
N763 C765 1.333 . S
N763 Zn769 2.020 . S
C764 N763 1.307 . S
C764 C768 1.370 . S
C764 H775 0.948 . S
C765 N763 1.333 . S
C765 C766 1.379 . S
C765 H773 0.952 . S
C766 C765 1.379 . S
C766 C767 1.390 . S
C766 H786 0.949 . S
C767 C766 1.390 . S
C767 C768 1.357 . S
C768 C764 1.370 . S
C768 C767 1.357 . S
C768 H787 0.950 . S
Zn769 N763 2.020 . S
Zn769 O772 2.025 . S
Zn769 O777 2.024 . S
Zn769 O779 2.039 . S
Zn769 O781 2.034 . S
O770 C754 1.251 . S
O770 Zn761 2.039 . S
C771 O776 1.246 . S
C771 O777 1.249 . S
O772 C754 1.254 . S
O772 Zn769 2.025 . S
H773 C765 0.952 . S
H774 C756 0.952 . S
H775 C764 0.948 . S
O776 Zn761 2.034 . S
O776 C771 1.246 . S
O777 Zn769 2.024 . S
O777 C771 1.249 . S
H778 C760 0.948 . S
O779 Zn769 2.039 . S
O779 C783 1.251 . S
O780 Zn761 2.025 . S
O780 C783 1.254 . S
O781 C762 1.246 . S
O781 Zn769 2.034 . S
O782 Zn761 2.024 . S
O782 C762 1.249 . S
C783 O779 1.251 . S
C783 O780 1.254 . S
H784 C757 0.949 . S
H785 C759 0.950 . S
H786 C766 0.949 . S
H787 C768 0.950 . S
C788 O804 1.251 . S
C788 O806 1.254 . S
N789 C790 1.333 . S
N789 C794 1.307 . S
N789 Zn795 2.020 . S
C790 N789 1.333 . S
C790 C791 1.379 . S
C790 H808 0.952 . S
C791 C790 1.379 . S
C791 C792 1.390 . S
C791 H818 0.949 . S
C792 C791 1.390 . S
C792 C793 1.357 . S
C793 C792 1.357 . S
C793 C794 1.370 . S
C793 H819 0.950 . S
C794 N789 1.307 . S
C794 C793 1.370 . S
C794 H812 0.948 . S
Zn795 N789 2.020 . S
Zn795 O804 2.039 . S
Zn795 O810 2.034 . S
Zn795 O814 2.025 . S
Zn795 O816 2.024 . S
C796 O815 1.246 . S
C796 O816 1.249 . S
N797 C798 1.307 . S
N797 C799 1.333 . S
N797 Zn803 2.020 . S
C798 N797 1.307 . S
C798 C802 1.370 . S
C798 H809 0.948 . S
C799 N797 1.333 . S
C799 C800 1.379 . S
C799 H807 0.952 . S
C800 C799 1.379 . S
C800 C801 1.390 . S
C800 H820 0.949 . S
C801 C800 1.390 . S
C801 C802 1.357 . S
C802 C798 1.370 . S
C802 C801 1.357 . S
C802 H821 0.950 . S
Zn803 N797 2.020 . S
Zn803 O806 2.025 . S
Zn803 O811 2.024 . S
Zn803 O813 2.039 . S
Zn803 O815 2.034 . S
O804 C788 1.251 . S
O804 Zn795 2.039 . S
C805 O810 1.246 . S
C805 O811 1.249 . S
O806 C788 1.254 . S
O806 Zn803 2.025 . S
H807 C799 0.952 . S
H808 C790 0.952 . S
H809 C798 0.948 . S
O810 Zn795 2.034 . S
O810 C805 1.246 . S
O811 Zn803 2.024 . S
O811 C805 1.249 . S
H812 C794 0.948 . S
O813 Zn803 2.039 . S
O813 C817 1.251 . S
O814 Zn795 2.025 . S
O814 C817 1.254 . S
O815 C796 1.246 . S
O815 Zn803 2.034 . S
O816 Zn795 2.024 . S
O816 C796 1.249 . S
C817 O813 1.251 . S
C817 O814 1.254 . S
H818 C791 0.949 . S
H819 C793 0.950 . S
H820 C800 0.949 . S
H821 C802 0.950 . S
C822 O838 1.251 . S
C822 O840 1.254 . S
N823 C824 1.333 . S
N823 C828 1.307 . S
N823 Zn829 2.020 . S
C824 N823 1.333 . S
C824 C825 1.379 . S
C824 H842 0.952 . S
C825 C824 1.379 . S
C825 C826 1.390 . S
C825 H852 0.949 . S
C826 C825 1.390 . S
C826 C827 1.357 . S
C827 C826 1.357 . S
C827 C828 1.370 . S
C827 H853 0.950 . S
C828 N823 1.307 . S
C828 C827 1.370 . S
C828 H846 0.948 . S
Zn829 N823 2.020 . S
Zn829 O838 2.039 . S
Zn829 O844 2.034 . S
Zn829 O848 2.025 . S
Zn829 O850 2.024 . S
C830 O849 1.246 . S
C830 O850 1.249 1_655 S
N831 C832 1.307 . S
N831 C833 1.333 1_554 S
N831 Zn837 2.020 . S
C832 N831 1.307 . S
C832 C836 1.370 . S
C832 H843 0.948 . S
C833 N831 1.333 1_556 S
C833 C834 1.375 1_455 S
C833 H841 0.952 . S
C834 C833 1.375 1_655 S
C834 C835 1.392 . S
C834 H854 0.952 . S
C835 C834 1.392 . S
C835 C836 1.357 1_656 S
C836 C832 1.370 . S
C836 C835 1.357 1_454 S
C836 H855 0.950 . S
Zn837 N831 2.020 . S
Zn837 O840 2.025 . S
Zn837 O845 2.024 . S
Zn837 O847 2.039 1_554 S
Zn837 O849 2.034 1_455 S
O838 C822 1.251 . S
O838 Zn829 2.039 . S
C839 O844 1.246 . S
C839 O845 1.249 . S
O840 C822 1.254 . S
O840 Zn837 2.025 . S
H841 C833 0.952 . S
H842 C824 0.952 . S
H843 C832 0.948 . S
O844 Zn829 2.034 . S
O844 C839 1.246 . S
O845 Zn837 2.024 . S
O845 C839 1.249 . S
H846 C828 0.948 . S
O847 Zn837 2.039 1_556 S
O847 C851 1.251 . S
O848 Zn829 2.025 . S
O848 C851 1.254 1_554 S
O849 C830 1.246 . S
O849 Zn837 2.034 1_655 S
O850 Zn829 2.024 . S
O850 C830 1.249 1_455 S
C851 O847 1.251 . S
C851 O848 1.254 1_556 S
H852 C825 0.949 . S
H853 C827 0.950 . S
H854 C834 0.952 . S
H855 C836 0.950 . S
C856 C857 1.369 . S
C856 C858 1.419 . S
C856 H860 0.930 . S
C857 C856 1.369 . S
C857 C866 1.429 . S
C858 C856 1.419 . S
C858 C859 1.363 . S
C858 H861 0.929 . S
C859 C858 1.363 . S
C859 C865 1.428 . S
H860 C856 0.930 . S
H861 C858 0.929 . S
S862 N863 1.613 . S
S862 N864 1.610 . S
N863 S862 1.613 . S
N863 C866 1.350 . S
N864 S862 1.610 . S
N864 C865 1.351 . S
C865 C859 1.428 . S
C865 N864 1.351 . S
C865 C866 1.434 . S
C866 C857 1.429 . S
C866 N863 1.350 . S
C866 C865 1.434 . S
C867 C868 1.369 . S
C867 C869 1.419 . S
C867 H871 0.930 . S
C868 C867 1.369 . S
C868 C877 1.429 . S
C869 C867 1.419 . S
C869 C870 1.363 . S
C869 H872 0.929 . S
C870 C869 1.363 . S
C870 C876 1.428 . S
H871 C867 0.930 . S
H872 C869 0.929 . S
S873 N874 1.613 . S
S873 N875 1.610 . S
N874 S873 1.613 . S
N874 C877 1.350 . S
N875 S873 1.610 . S
N875 C876 1.351 . S
C876 C870 1.428 . S
C876 N875 1.351 . S
C876 C877 1.434 . S
C877 C868 1.429 . S
C877 N874 1.350 . S
C877 C876 1.434 . S
C878 C879 1.369 . S
C878 C880 1.419 . S
C878 H882 0.930 . S
C879 C878 1.369 . S
C879 C888 1.429 . S
C880 C878 1.419 . S
C880 C881 1.363 . S
C880 H883 0.929 . S
C881 C880 1.363 . S
C881 C887 1.428 . S
H882 C878 0.930 . S
H883 C880 0.929 . S
S884 N885 1.613 . S
S884 N886 1.610 . S
N885 S884 1.613 . S
N885 C888 1.350 . S
N886 S884 1.610 . S
N886 C887 1.351 . S
C887 C881 1.428 . S
C887 N886 1.351 . S
C887 C888 1.434 . S
C888 C879 1.429 . S
C888 N885 1.350 . S
C888 C887 1.434 . S
C889 C890 1.369 . S
C889 C891 1.419 . S
C889 H893 0.930 . S
C890 C889 1.369 . S
C890 C899 1.429 . S
C891 C889 1.419 . S
C891 C892 1.363 . S
C891 H894 0.929 . S
C892 C891 1.363 . S
C892 C898 1.428 . S
H893 C889 0.930 . S
H894 C891 0.929 . S
S895 N896 1.613 . S
S895 N897 1.610 . S
N896 S895 1.613 . S
N896 C899 1.350 . S
N897 S895 1.610 . S
N897 C898 1.351 . S
C898 C892 1.428 . S
C898 N897 1.351 . S
C898 C899 1.434 . S
C899 C890 1.429 . S
C899 N896 1.350 . S
C899 C898 1.434 . S
C900 C901 1.369 . S
C900 C902 1.419 . S
C900 H904 0.930 1_455 S
C901 C900 1.369 . S
C901 C910 1.429 . S
C902 C900 1.419 . S
C902 C903 1.363 . S
C902 H905 0.929 1_455 S
C903 C902 1.363 . S
C903 C909 1.428 . S
H904 C900 0.930 1_655 S
H905 C902 0.929 1_655 S
S906 N907 1.613 . S
S906 N908 1.610 . S
N907 S906 1.613 . S
N907 C910 1.350 . S
N908 S906 1.610 . S
N908 C909 1.351 . S
C909 C903 1.428 . S
C909 N908 1.351 . S
C909 C910 1.434 . S
C910 C901 1.429 . S
C910 N907 1.350 . S
C910 C909 1.434 . S
C911 C912 1.369 . S
C911 C913 1.419 . S
C911 H915 0.930 . S
C912 C911 1.369 . S
C912 C921 1.429 . S
C913 C911 1.419 . S
C913 C914 1.363 . S
C913 H916 0.929 . S
C914 C913 1.363 . S
C914 C920 1.428 . S
H915 C911 0.930 . S
H916 C913 0.929 . S
S917 N918 1.613 . S
S917 N919 1.610 . S
N918 S917 1.613 . S
N918 C921 1.350 . S
N919 S917 1.610 . S
N919 C920 1.351 . S
C920 C914 1.428 . S
C920 N919 1.351 . S
C920 C921 1.434 . S
C921 C912 1.429 . S
C921 N918 1.350 . S
C921 C920 1.434 . S
C922 C923 1.369 . S
C922 C924 1.419 . S
C922 H926 0.930 . S
C923 C922 1.369 . S
C923 C932 1.429 . S
C924 C922 1.419 . S
C924 C925 1.363 . S
C924 H927 0.929 1_556 S
C925 C924 1.363 . S
C925 C931 1.428 . S
H926 C922 0.930 . S
H927 C924 0.929 1_554 S
S928 N929 1.613 . S
S928 N930 1.610 . S
N929 S928 1.613 . S
N929 C932 1.350 . S
N930 S928 1.610 . S
N930 C931 1.351 . S
C931 C925 1.428 . S
C931 N930 1.351 . S
C931 C932 1.434 . S
C932 C923 1.429 . S
C932 N929 1.350 . S
C932 C931 1.434 . S
C933 C934 1.369 . S
C933 C935 1.419 . S
C933 H937 0.930 . S
C934 C933 1.369 . S
C934 C943 1.429 . S
C935 C933 1.419 . S
C935 C936 1.363 . S
C935 H938 0.929 . S
C936 C935 1.363 . S
C936 C942 1.428 . S
H937 C933 0.930 . S
H938 C935 0.929 . S
S939 N940 1.613 . S
S939 N941 1.610 . S
N940 S939 1.613 . S
N940 C943 1.350 . S
N941 S939 1.610 . S
N941 C942 1.351 . S
C942 C936 1.428 . S
C942 N941 1.351 . S
C942 C943 1.434 . S
C943 C934 1.429 . S
C943 N940 1.350 . S
C943 C942 1.434 . S
C944 C945 1.369 . S
C944 C946 1.419 1_545 S
C944 H948 0.930 . S
C945 C944 1.369 . S
C945 C954 1.429 . S
C946 C944 1.419 1_565 S
C946 C947 1.363 . S
C946 H949 0.929 . S
C947 C946 1.363 . S
C947 C953 1.428 1_565 S
H948 C944 0.930 . S
H949 C946 0.929 . S
S950 N951 1.613 . S
S950 N952 1.610 . S
N951 S950 1.613 . S
N951 C954 1.350 . S
N952 S950 1.610 . S
N952 C953 1.351 . S
C953 C947 1.428 1_545 S
C953 N952 1.351 . S
C953 C954 1.434 . S
C954 C945 1.429 . S
C954 N951 1.350 . S
C954 C953 1.434 . S
C955 C956 1.369 . S
C955 C957 1.419 . S
C955 H959 0.930 . S
C956 C955 1.369 . S
C956 C965 1.429 . S
C957 C955 1.419 . S
C957 C958 1.363 . S
C957 H960 0.929 . S
C958 C957 1.363 . S
C958 C964 1.428 . S
H959 C955 0.930 . S
H960 C957 0.929 . S
S961 N962 1.613 . S
S961 N963 1.610 . S
N962 S961 1.613 . S
N962 C965 1.350 . S
N963 S961 1.610 . S
N963 C964 1.351 . S
C964 C958 1.428 . S
C964 N963 1.351 . S
C964 C965 1.434 . S
C965 C956 1.429 . S
C965 N962 1.350 . S
C965 C964 1.434 . S
C966 C967 1.369 . S
C966 C968 1.419 . S
C966 H970 0.930 . S
C967 C966 1.369 . S
C967 C976 1.429 . S
C968 C966 1.419 . S
C968 C969 1.363 . S
C968 H971 0.929 . S
C969 C968 1.363 . S
C969 C975 1.428 . S
H970 C966 0.930 . S
H971 C968 0.929 . S
S972 N973 1.613 . S
S972 N974 1.610 1_565 S
N973 S972 1.613 . S
N973 C976 1.350 1_565 S
N974 S972 1.610 1_545 S
N974 C975 1.351 . S
C975 C969 1.428 . S
C975 N974 1.351 . S
C975 C976 1.434 . S
C976 C967 1.429 . S
C976 N973 1.350 1_545 S
C976 C975 1.434 . S
C977 C978 1.369 . S
C977 C979 1.419 . S
C977 H981 0.930 . S
C978 C977 1.369 . S
C978 C987 1.429 . S
C979 C977 1.419 . S
C979 C980 1.363 . S
C979 H982 0.929 . S
C980 C979 1.363 . S
C980 C986 1.428 . S
H981 C977 0.930 . S
H982 C979 0.929 . S
S983 N984 1.613 1_556 S
S983 N985 1.610 . S
N984 S983 1.613 1_554 S
N984 C987 1.350 1_554 S
N985 S983 1.610 . S
N985 C986 1.351 . S
C986 C980 1.428 . S
C986 N985 1.351 . S
C986 C987 1.434 . S
C987 C978 1.429 . S
C987 N984 1.350 1_556 S
C987 C986 1.434 . S
C988 C989 1.369 . S
C988 C990 1.419 . S
C988 H992 0.930 1_545 S
C989 C988 1.369 . S
C989 C998 1.429 . S
C990 C988 1.419 . S
C990 C991 1.363 . S
C990 H993 0.929 . S
C991 C990 1.363 . S
C991 C997 1.428 . S
H992 C988 0.930 1_565 S
H993 C990 0.929 . S
S994 N995 1.613 . S
S994 N996 1.610 . S
N995 S994 1.613 . S
N995 C998 1.350 . S
N996 S994 1.610 . S
N996 C997 1.351 . S
C997 C991 1.428 . S
C997 N996 1.351 . S
C997 C998 1.434 . S
C998 C989 1.429 . S
C998 N995 1.350 . S
C998 C997 1.434 . S
C999 C1000 1.369 . S
C999 C1001 1.419 . S
C999 H1003 0.930 . S
C1000 C999 1.369 . S
C1000 C1009 1.429 . S
C1001 C999 1.419 . S
C1001 C1002 1.363 . S
C1001 H1004 0.929 . S
C1002 C1001 1.363 . S
C1002 C1008 1.428 . S
H1003 C999 0.930 . S
H1004 C1001 0.929 . S
S1005 N1006 1.613 . S
S1005 N1007 1.610 . S
N1006 S1005 1.613 . S
N1006 C1009 1.350 . S
N1007 S1005 1.610 . S
N1007 C1008 1.351 . S
C1008 C1002 1.428 . S
C1008 N1007 1.351 . S
C1008 C1009 1.434 . S
C1009 C1000 1.429 . S
C1009 N1006 1.350 . S
C1009 C1008 1.434 . S
C1010 C1011 1.369 1_565 S
C1010 C1012 1.419 . S
C1010 H1014 0.930 . S
C1011 C1010 1.369 1_545 S
C1011 C1020 1.429 . S
C1012 C1010 1.419 . S
C1012 C1013 1.363 . S
C1012 H1015 0.929 . S
C1013 C1012 1.363 . S
C1013 C1019 1.428 1_565 S
H1014 C1010 0.930 . S
H1015 C1012 0.929 . S
S1016 N1017 1.613 . S
S1016 N1018 1.610 . S
N1017 S1016 1.613 . S
N1017 C1020 1.350 . S
N1018 S1016 1.610 . S
N1018 C1019 1.351 . S
C1019 C1013 1.428 1_545 S
C1019 N1018 1.351 . S
C1019 C1020 1.434 . S
C1020 C1011 1.429 . S
C1020 N1017 1.350 . S
C1020 C1019 1.434 . S
C1021 C1022 1.369 . S
C1021 C1023 1.419 . S
C1021 H1025 0.930 . S
C1022 C1021 1.369 . S
C1022 C1031 1.429 . S
C1023 C1021 1.419 . S
C1023 C1024 1.363 . S
C1023 H1026 0.929 . S
C1024 C1023 1.363 . S
C1024 C1030 1.428 . S
H1025 C1021 0.930 . S
H1026 C1023 0.929 . S
S1027 N1028 1.613 . S
S1027 N1029 1.610 . S
N1028 S1027 1.613 . S
N1028 C1031 1.350 . S
N1029 S1027 1.610 . S
N1029 C1030 1.351 . S
C1030 C1024 1.428 . S
C1030 N1029 1.351 . S
C1030 C1031 1.434 . S
C1031 C1022 1.429 . S
C1031 N1028 1.350 . S
C1031 C1030 1.434 . S
C1032 C1033 1.369 . S
C1032 C1034 1.411 1_554 S
C1032 H1036 0.930 . S
C1033 C1032 1.369 . S
C1033 C1042 1.429 . S
C1034 C1032 1.411 1_556 S
C1034 C1035 1.360 1_556 S
C1034 H1037 0.939 . S
C1035 C1034 1.360 1_554 S
C1035 C1041 1.448 . S
H1036 C1032 0.930 . S
H1037 C1034 0.939 . S
S1038 N1039 1.613 . S
S1038 N1040 1.610 . S
N1039 S1038 1.613 . S
N1039 C1042 1.350 1_565 S
N1040 S1038 1.610 . S
N1040 C1041 1.351 1_565 S
C1041 C1035 1.448 . S
C1041 N1040 1.351 1_545 S
C1041 C1042 1.434 . S
C1042 C1033 1.429 . S
C1042 N1039 1.350 1_545 S
C1042 C1041 1.434 . S
C1043 C1044 1.369 . S
C1043 C1045 1.419 . S
C1043 H1047 0.930 . S
C1044 C1043 1.369 . S
C1044 C1053 1.429 . S
C1045 C1043 1.419 . S
C1045 C1046 1.363 . S
C1045 H1048 0.929 . S
C1046 C1045 1.363 . S
C1046 C1052 1.428 . S
H1047 C1043 0.930 . S
H1048 C1045 0.929 . S
S1049 N1050 1.613 . S
S1049 N1051 1.610 . S
N1050 S1049 1.613 . S
N1050 C1053 1.350 . S
N1051 S1049 1.610 . S
N1051 C1052 1.351 . S
C1052 C1046 1.428 . S
C1052 N1051 1.351 . S
C1052 C1053 1.434 . S
C1053 C1044 1.429 . S
C1053 N1050 1.350 . S
C1053 C1052 1.434 . S
C1054 C1055 1.369 . S
C1054 C1056 1.419 . S
C1054 H1058 0.930 . S
C1055 C1054 1.369 . S
C1055 C1064 1.429 . S
C1056 C1054 1.419 . S
C1056 C1057 1.363 . S
C1056 H1059 0.929 . S
C1057 C1056 1.363 . S
C1057 C1063 1.428 . S
H1058 C1054 0.930 . S
H1059 C1056 0.929 . S
S1060 N1061 1.613 . S
S1060 N1062 1.610 . S
N1061 S1060 1.613 . S
N1061 C1064 1.350 . S
N1062 S1060 1.610 . S
N1062 C1063 1.351 . S
C1063 C1057 1.428 . S
C1063 N1062 1.351 . S
C1063 C1064 1.434 . S
C1064 C1055 1.429 . S
C1064 N1061 1.350 . S
C1064 C1063 1.434 . S
C1065 C1066 1.369 . S
C1065 C1067 1.419 . S
C1065 H1069 0.930 . S
C1066 C1065 1.369 . S
C1066 C1075 1.429 . S
C1067 C1065 1.419 . S
C1067 C1068 1.363 . S
C1067 H1070 0.929 . S
C1068 C1067 1.363 . S
C1068 C1074 1.428 . S
H1069 C1065 0.930 . S
H1070 C1067 0.929 . S
S1071 N1072 1.613 . S
S1071 N1073 1.610 . S
N1072 S1071 1.613 . S
N1072 C1075 1.350 . S
N1073 S1071 1.610 . S
N1073 C1074 1.351 . S
C1074 C1068 1.428 . S
C1074 N1073 1.351 . S
C1074 C1075 1.434 . S
C1075 C1066 1.429 . S
C1075 N1072 1.350 . S
C1075 C1074 1.434 . S
C1076 C1077 1.369 . S
C1076 C1078 1.419 . S
C1076 H1080 0.930 . S
C1077 C1076 1.369 . S
C1077 C1086 1.429 . S
C1078 C1076 1.419 . S
C1078 C1079 1.363 . S
C1078 H1081 0.929 . S
C1079 C1078 1.363 . S
C1079 C1085 1.428 . S
H1080 C1076 0.930 . S
H1081 C1078 0.929 . S
S1082 N1083 1.613 . S
S1082 N1084 1.610 . S
N1083 S1082 1.613 . S
N1083 C1086 1.350 . S
N1084 S1082 1.610 . S
N1084 C1085 1.351 . S
C1085 C1079 1.428 . S
C1085 N1084 1.351 . S
C1085 C1086 1.434 . S
C1086 C1077 1.429 . S
C1086 N1083 1.350 . S
C1086 C1085 1.434 . S
C1087 C1088 1.369 . S
C1087 C1089 1.419 . S
C1087 H1091 0.944 . S
C1088 C1087 1.369 . S
C1088 C1097 1.429 . S
C1089 C1087 1.419 . S
C1089 C1090 1.363 . S
C1089 H1092 0.929 1_565 S
C1090 C1089 1.363 . S
C1090 C1096 1.428 . S
H1091 C1087 0.944 . S
H1092 C1089 0.929 1_545 S
S1093 N1094 1.613 . S
S1093 N1095 1.610 . S
N1094 S1093 1.613 . S
N1094 C1097 1.350 . S
N1095 S1093 1.610 . S
N1095 C1096 1.351 . S
C1096 C1090 1.428 . S
C1096 N1095 1.351 . S
C1096 C1097 1.434 . S
C1097 C1088 1.429 . S
C1097 N1094 1.350 . S
C1097 C1096 1.434 . S
C1098 C1099 1.369 . S
C1098 C1100 1.419 . S
C1098 H1102 0.930 . S
C1099 C1098 1.369 . S
C1099 C1108 1.429 . S
C1100 C1098 1.419 . S
C1100 C1101 1.363 . S
C1100 H1103 0.929 . S
C1101 C1100 1.363 . S
C1101 C1107 1.428 . S
H1102 C1098 0.930 . S
H1103 C1100 0.929 . S
S1104 N1105 1.613 . S
S1104 N1106 1.610 . S
N1105 S1104 1.613 . S
N1105 C1108 1.350 . S
N1106 S1104 1.610 . S
N1106 C1107 1.351 . S
C1107 C1101 1.428 . S
C1107 N1106 1.351 . S
C1107 C1108 1.434 . S
C1108 C1099 1.429 . S
C1108 N1105 1.350 . S
C1108 C1107 1.434 . S
C1109 C1110 1.369 . S
C1109 C1111 1.419 . S
C1109 H1113 0.930 . S
C1110 C1109 1.369 . S
C1110 C1119 1.429 . S
C1111 C1109 1.419 . S
C1111 C1112 1.363 . S
C1111 H1114 0.929 . S
C1112 C1111 1.363 . S
C1112 C1118 1.428 . S
H1113 C1109 0.930 . S
H1114 C1111 0.929 . S
S1115 N1116 1.613 . S
S1115 N1117 1.610 . S
N1116 S1115 1.613 . S
N1116 C1119 1.350 . S
N1117 S1115 1.610 . S
N1117 C1118 1.351 . S
C1118 C1112 1.428 . S
C1118 N1117 1.351 . S
C1118 C1119 1.434 . S
C1119 C1110 1.429 . S
C1119 N1116 1.350 . S
C1119 C1118 1.434 . S
C1120 C1121 1.369 . S
C1120 C1122 1.419 . S
C1120 H1124 0.930 . S
C1121 C1120 1.369 . S
C1121 C1130 1.425 1_455 S
C1122 C1120 1.419 . S
C1122 C1123 1.363 . S
C1122 H1125 0.929 . S
C1123 C1122 1.363 . S
C1123 C1129 1.428 1_556 S
H1124 C1120 0.930 . S
H1125 C1122 0.929 . S
S1126 N1127 1.613 1_554 S
S1126 N1128 1.610 1_655 S
N1127 S1126 1.613 1_556 S
N1127 C1130 1.358 . S
N1128 S1126 1.610 1_455 S
N1128 C1129 1.351 . S
C1129 C1123 1.428 1_554 S
C1129 N1128 1.351 . S
C1129 C1130 1.430 1_454 S
C1130 C1121 1.425 1_655 S
C1130 N1127 1.358 . S
C1130 C1129 1.430 1_656 S
C1131 C1132 1.369 . S
C1131 C1133 1.419 . S
C1131 H1135 0.930 . S
C1132 C1131 1.369 . S
C1132 C1141 1.429 . S
C1133 C1131 1.419 . S
C1133 C1134 1.363 . S
C1133 H1136 0.929 . S
C1134 C1133 1.363 . S
C1134 C1140 1.428 . S
H1135 C1131 0.930 . S
H1136 C1133 0.929 . S
S1137 N1138 1.613 . S
S1137 N1139 1.610 . S
N1138 S1137 1.613 . S
N1138 C1141 1.350 . S
N1139 S1137 1.610 . S
N1139 C1140 1.351 . S
C1140 C1134 1.428 . S
C1140 N1139 1.351 . S
C1140 C1141 1.434 . S
C1141 C1132 1.429 . S
C1141 N1138 1.350 . S
C1141 C1140 1.434 . S
C1142 C1143 1.369 . S
C1142 C1144 1.419 . S
C1142 H1146 0.930 . S
C1143 C1142 1.369 . S
C1143 C1152 1.429 . S
C1144 C1142 1.419 . S
C1144 C1145 1.363 . S
C1144 H1147 0.929 . S
C1145 C1144 1.363 . S
C1145 C1151 1.428 . S
H1146 C1142 0.930 . S
H1147 C1144 0.929 . S
S1148 N1149 1.613 . S
S1148 N1150 1.610 . S
N1149 S1148 1.613 . S
N1149 C1152 1.350 . S
N1150 S1148 1.610 . S
N1150 C1151 1.351 . S
C1151 C1145 1.428 . S
C1151 N1150 1.351 . S
C1151 C1152 1.434 . S
C1152 C1143 1.429 . S
C1152 N1149 1.350 . S
C1152 C1151 1.434 . S
C1153 C1154 1.369 . S
C1153 C1155 1.419 . S
C1153 H1157 0.930 . S
C1154 C1153 1.369 . S
C1154 C1163 1.429 . S
C1155 C1153 1.419 . S
C1155 C1156 1.363 . S
C1155 H1158 0.929 . S
C1156 C1155 1.363 . S
C1156 C1162 1.428 . S
H1157 C1153 0.930 . S
H1158 C1155 0.929 . S
S1159 N1160 1.613 . S
S1159 N1161 1.610 . S
N1160 S1159 1.613 . S
N1160 C1163 1.350 . S
N1161 S1159 1.610 . S
N1161 C1162 1.351 . S
C1162 C1156 1.428 . S
C1162 N1161 1.351 . S
C1162 C1163 1.434 . S
C1163 C1154 1.429 . S
C1163 N1160 1.350 . S
C1163 C1162 1.434 . S
C1164 C1165 1.369 . S
C1164 C1166 1.419 . S
C1164 H1168 0.930 . S
C1165 C1164 1.369 . S
C1165 C1174 1.429 . S
C1166 C1164 1.419 . S
C1166 C1167 1.363 . S
C1166 H1169 0.929 . S
C1167 C1166 1.363 . S
C1167 C1173 1.428 . S
H1168 C1164 0.930 . S
H1169 C1166 0.929 . S
S1170 N1171 1.613 . S
S1170 N1172 1.610 . S
N1171 S1170 1.613 . S
N1171 C1174 1.350 1_655 S
N1172 S1170 1.610 . S
N1172 C1173 1.351 1_655 S
C1173 C1167 1.428 . S
C1173 N1172 1.351 1_455 S
C1173 C1174 1.434 . S
C1174 C1165 1.429 . S
C1174 N1171 1.350 1_455 S
C1174 C1173 1.434 . S
C1175 C1176 1.369 . S
C1175 C1177 1.419 . S
C1175 H1179 0.930 . S
C1176 C1175 1.369 . S
C1176 C1185 1.429 . S
C1177 C1175 1.419 . S
C1177 C1178 1.363 . S
C1177 H1180 0.929 . S
C1178 C1177 1.363 . S
C1178 C1184 1.428 . S
H1179 C1175 0.930 . S
H1180 C1177 0.929 . S
S1181 N1182 1.613 . S
S1181 N1183 1.610 . S
N1182 S1181 1.613 . S
N1182 C1185 1.350 . S
N1183 S1181 1.610 . S
N1183 C1184 1.351 . S
C1184 C1178 1.428 . S
C1184 N1183 1.351 . S
C1184 C1185 1.434 . S
C1185 C1176 1.429 . S
C1185 N1182 1.350 . S
C1185 C1184 1.434 . S
C1186 C1187 1.369 . S
C1186 C1188 1.419 . S
C1186 H1190 0.930 . S
C1187 C1186 1.369 . S
C1187 C1196 1.429 . S
C1188 C1186 1.419 . S
C1188 C1189 1.363 . S
C1188 H1191 0.929 . S
C1189 C1188 1.363 . S
C1189 C1195 1.428 . S
H1190 C1186 0.930 . S
H1191 C1188 0.929 . S
S1192 N1193 1.613 . S
S1192 N1194 1.610 . S
N1193 S1192 1.613 . S
N1193 C1196 1.350 . S
N1194 S1192 1.610 . S
N1194 C1195 1.351 . S
C1195 C1189 1.428 . S
C1195 N1194 1.351 . S
C1195 C1196 1.434 . S
C1196 C1187 1.429 . S
C1196 N1193 1.350 . S
C1196 C1195 1.434 . S
C1197 C1198 1.369 . S
C1197 C1199 1.419 . S
C1197 H1201 0.930 . S
C1198 C1197 1.369 . S
C1198 C1207 1.429 . S
C1199 C1197 1.419 . S
C1199 C1200 1.363 . S
C1199 H1202 0.929 . S
C1200 C1199 1.363 . S
C1200 C1206 1.428 . S
H1201 C1197 0.930 . S
H1202 C1199 0.929 . S
S1203 N1204 1.613 . S
S1203 N1205 1.610 . S
N1204 S1203 1.613 . S
N1204 C1207 1.350 . S
N1205 S1203 1.610 . S
N1205 C1206 1.351 . S
C1206 C1200 1.428 . S
C1206 N1205 1.351 . S
C1206 C1207 1.434 . S
C1207 C1198 1.429 . S
C1207 N1204 1.350 . S
C1207 C1206 1.434 . S
C1208 C1209 1.369 . S
C1208 C1210 1.419 1_655 S
C1208 H1212 0.930 . S
C1209 C1208 1.369 . S
C1209 C1218 1.429 1_545 S
C1210 C1208 1.419 1_455 S
C1210 C1211 1.363 . S
C1210 H1213 0.929 . S
C1211 C1210 1.363 . S
C1211 C1217 1.428 1_455 S
H1212 C1208 0.930 . S
H1213 C1210 0.929 . S
S1214 N1215 1.613 . S
S1214 N1216 1.610 . S
N1215 S1214 1.613 . S
N1215 C1218 1.350 . S
N1216 S1214 1.610 . S
N1216 C1217 1.351 1_565 S
C1217 C1211 1.428 1_655 S
C1217 N1216 1.351 1_545 S
C1217 C1218 1.434 1_545 S
C1218 C1209 1.429 1_565 S
C1218 N1215 1.350 . S
C1218 C1217 1.434 1_565 S
C1219 C1220 1.369 . S
C1219 C1221 1.419 . S
C1219 H1223 0.930 . S
C1220 C1219 1.369 . S
C1220 C1229 1.429 . S
C1221 C1219 1.419 . S
C1221 C1222 1.363 . S
C1221 H1224 0.929 . S
C1222 C1221 1.363 . S
C1222 C1228 1.428 . S
H1223 C1219 0.930 . S
H1224 C1221 0.929 . S
S1225 N1226 1.613 . S
S1225 N1227 1.610 . S
N1226 S1225 1.613 . S
N1226 C1229 1.350 . S
N1227 S1225 1.610 . S
N1227 C1228 1.351 . S
C1228 C1222 1.428 . S
C1228 N1227 1.351 . S
C1228 C1229 1.434 . S
C1229 C1220 1.429 . S
C1229 N1226 1.350 . S
C1229 C1228 1.434 . S
C1230 C1231 1.369 1_565 S
C1230 C1232 1.419 . S
C1230 H1234 0.930 . S
C1231 C1230 1.369 1_545 S
C1231 C1240 1.429 . S
C1232 C1230 1.419 . S
C1232 C1233 1.351 1_565 S
C1232 H1235 0.929 . S
C1233 C1232 1.351 1_545 S
C1233 C1239 1.445 . S
H1234 C1230 0.930 . S
H1235 C1232 0.929 . S
S1236 N1237 1.613 . S
S1236 N1238 1.610 . S
N1237 S1236 1.613 . S
N1237 C1240 1.350 . S
N1238 S1236 1.610 . S
N1238 C1239 1.351 . S
C1239 C1233 1.445 . S
C1239 N1238 1.351 . S
C1239 C1240 1.434 . S
C1240 C1231 1.429 . S
C1240 N1237 1.350 . S
C1240 C1239 1.434 . S
C1241 C1242 1.369 . S
C1241 C1243 1.419 . S
C1241 H1245 0.930 . S
C1242 C1241 1.369 . S
C1242 C1251 1.429 . S
C1243 C1241 1.419 . S
C1243 C1244 1.363 . S
C1243 H1246 0.929 . S
C1244 C1243 1.363 . S
C1244 C1250 1.428 . S
H1245 C1241 0.930 . S
H1246 C1243 0.929 . S
S1247 N1248 1.613 . S
S1247 N1249 1.610 . S
N1248 S1247 1.613 . S
N1248 C1251 1.350 . S
N1249 S1247 1.610 . S
N1249 C1250 1.351 . S
C1250 C1244 1.428 . S
C1250 N1249 1.351 . S
C1250 C1251 1.434 . S
C1251 C1242 1.429 . S
C1251 N1248 1.350 . S
C1251 C1250 1.434 . S
C1252 C1253 1.369 1_545 S
C1252 C1254 1.425 . S
C1252 H1256 0.930 . S
C1253 C1252 1.369 1_565 S
C1253 C1262 1.429 . S
C1254 C1252 1.425 . S
C1254 C1255 1.348 1_545 S
C1254 H1257 0.939 1_655 S
C1255 C1254 1.348 1_565 S
C1255 C1261 1.428 . S
H1256 C1252 0.930 . S
H1257 C1254 0.939 1_455 S
S1258 N1259 1.613 . S
S1258 N1260 1.610 . S
N1259 S1258 1.613 . S
N1259 C1262 1.350 . S
N1260 S1258 1.610 . S
N1260 C1261 1.351 . S
C1261 C1255 1.428 . S
C1261 N1260 1.351 . S
C1261 C1262 1.434 . S
C1262 C1253 1.429 . S
C1262 N1259 1.350 . S
C1262 C1261 1.434 . S
C1263 C1264 1.369 . S
C1263 C1265 1.419 . S
C1263 H1267 0.930 . S
C1264 C1263 1.369 . S
C1264 C1273 1.429 . S
C1265 C1263 1.419 . S
C1265 C1266 1.363 . S
C1265 H1268 0.929 . S
C1266 C1265 1.363 . S
C1266 C1272 1.428 . S
H1267 C1263 0.930 . S
H1268 C1265 0.929 . S
S1269 N1270 1.613 . S
S1269 N1271 1.610 . S
N1270 S1269 1.613 . S
N1270 C1273 1.350 . S
N1271 S1269 1.610 . S
N1271 C1272 1.351 . S
C1272 C1266 1.428 . S
C1272 N1271 1.351 . S
C1272 C1273 1.434 . S
C1273 C1264 1.429 . S
C1273 N1270 1.350 . S
C1273 C1272 1.434 . S
C1274 C1275 1.369 . S
C1274 C1276 1.419 . S
C1274 H1278 0.930 . S
C1275 C1274 1.369 . S
C1275 C1284 1.429 . S
C1276 C1274 1.419 . S
C1276 C1277 1.363 . S
C1276 H1279 0.929 . S
C1277 C1276 1.363 . S
C1277 C1283 1.428 . S
H1278 C1274 0.930 . S
H1279 C1276 0.929 . S
S1280 N1281 1.613 . S
S1280 N1282 1.610 1_565 S
N1281 S1280 1.613 . S
N1281 C1284 1.350 1_565 S
N1282 S1280 1.610 1_545 S
N1282 C1283 1.351 . S
C1283 C1277 1.428 . S
C1283 N1282 1.351 . S
C1283 C1284 1.434 . S
C1284 C1275 1.429 . S
C1284 N1281 1.350 1_545 S
C1284 C1283 1.434 . S
C1285 C1286 1.369 . S
C1285 C1287 1.419 . S
C1285 H1289 0.930 . S
C1286 C1285 1.369 . S
C1286 C1295 1.429 . S
C1287 C1285 1.419 . S
C1287 C1288 1.363 . S
C1287 H1290 0.929 . S
C1288 C1287 1.363 . S
C1288 C1294 1.428 . S
H1289 C1285 0.930 . S
H1290 C1287 0.929 . S
S1291 N1292 1.613 . S
S1291 N1293 1.610 . S
N1292 S1291 1.613 . S
N1292 C1295 1.350 . S
N1293 S1291 1.610 . S
N1293 C1294 1.351 . S
C1294 C1288 1.428 . S
C1294 N1293 1.351 . S
C1294 C1295 1.434 . S
C1295 C1286 1.429 . S
C1295 N1292 1.350 . S
C1295 C1294 1.434 . S
C1296 C1297 1.369 . S
C1296 C1298 1.419 . S
C1296 H1300 0.930 . S
C1297 C1296 1.369 . S
C1297 C1306 1.429 1_565 S
C1298 C1296 1.419 . S
C1298 C1299 1.363 . S
C1298 H1301 0.929 . S
C1299 C1298 1.363 . S
C1299 C1305 1.428 1_565 S
H1300 C1296 0.930 . S
H1301 C1298 0.929 . S
S1302 N1303 1.613 . S
S1302 N1304 1.610 . S
N1303 S1302 1.613 . S
N1303 C1306 1.350 . S
N1304 S1302 1.610 . S
N1304 C1305 1.351 . S
C1305 C1299 1.428 1_545 S
C1305 N1304 1.351 . S
C1305 C1306 1.434 . S
C1306 C1297 1.429 1_545 S
C1306 N1303 1.350 . S
C1306 C1305 1.434 . S
C1307 C1308 1.369 . S
C1307 C1309 1.419 . S
C1307 H1311 0.930 . S
C1308 C1307 1.369 . S
C1308 C1317 1.429 1_554 S
C1309 C1307 1.419 . S
C1309 C1310 1.363 . S
C1309 H1312 0.929 . S
C1310 C1309 1.363 . S
C1310 C1316 1.428 1_554 S
H1311 C1307 0.930 . S
H1312 C1309 0.929 . S
S1313 N1314 1.613 . S
S1313 N1315 1.610 . S
N1314 S1313 1.613 . S
N1314 C1317 1.350 . S
N1315 S1313 1.610 . S
N1315 C1316 1.351 . S
C1316 C1310 1.428 1_556 S
C1316 N1315 1.351 . S
C1316 C1317 1.434 . S
C1317 C1308 1.429 1_556 S
C1317 N1314 1.350 . S
C1317 C1316 1.434 . S
C1318 C1319 1.369 . S
C1318 C1320 1.419 . S
C1318 H1322 0.930 . S
C1319 C1318 1.369 . S
C1319 C1328 1.429 . S
C1320 C1318 1.419 . S
C1320 C1321 1.363 . S
C1320 H1323 0.929 . S
C1321 C1320 1.363 . S
C1321 C1327 1.428 . S
H1322 C1318 0.930 . S
H1323 C1320 0.929 . S
S1324 N1325 1.613 . S
S1324 N1326 1.610 . S
N1325 S1324 1.613 . S
N1325 C1328 1.350 . S
N1326 S1324 1.610 . S
N1326 C1327 1.351 . S
C1327 C1321 1.428 . S
C1327 N1326 1.351 . S
C1327 C1328 1.434 . S
C1328 C1319 1.429 . S
C1328 N1325 1.350 . S
C1328 C1327 1.434 . S
C1329 C1330 1.369 . S
C1329 C1331 1.419 . S
C1329 H1333 0.930 . S
C1330 C1329 1.369 . S
C1330 C1339 1.429 . S
C1331 C1329 1.419 . S
C1331 C1332 1.363 . S
C1331 H1334 0.929 . S
C1332 C1331 1.363 . S
C1332 C1338 1.428 . S
H1333 C1329 0.930 . S
H1334 C1331 0.929 . S
S1335 N1336 1.613 . S
S1335 N1337 1.610 . S
N1336 S1335 1.613 . S
N1336 C1339 1.350 . S
N1337 S1335 1.610 . S
N1337 C1338 1.351 . S
C1338 C1332 1.428 . S
C1338 N1337 1.351 . S
C1338 C1339 1.434 . S
C1339 C1330 1.429 . S
C1339 N1336 1.350 . S
C1339 C1338 1.434 . S
C1340 C1341 1.369 . S
C1340 C1342 1.419 . S
C1340 H1344 0.930 . S
C1341 C1340 1.369 . S
C1341 C1350 1.429 . S
C1342 C1340 1.419 . S
C1342 C1343 1.363 . S
C1342 H1345 0.929 . S
C1343 C1342 1.363 . S
C1343 C1349 1.428 . S
H1344 C1340 0.930 . S
H1345 C1342 0.929 . S
S1346 N1347 1.613 . S
S1346 N1348 1.610 . S
N1347 S1346 1.613 . S
N1347 C1350 1.350 . S
N1348 S1346 1.610 . S
N1348 C1349 1.351 . S
C1349 C1343 1.428 . S
C1349 N1348 1.351 . S
C1349 C1350 1.434 . S
C1350 C1341 1.429 . S
C1350 N1347 1.350 . S
C1350 C1349 1.434 . S
C1351 C1352 1.369 . S
C1351 C1353 1.419 . S
C1351 H1355 0.930 . S
C1352 C1351 1.369 . S
C1352 C1361 1.429 . S
C1353 C1351 1.419 . S
C1353 C1354 1.363 . S
C1353 H1356 0.929 . S
C1354 C1353 1.363 . S
C1354 C1360 1.428 . S
H1355 C1351 0.930 . S
H1356 C1353 0.929 . S
S1357 N1358 1.613 . S
S1357 N1359 1.610 . S
N1358 S1357 1.613 . S
N1358 C1361 1.350 . S
N1359 S1357 1.610 . S
N1359 C1360 1.351 . S
C1360 C1354 1.428 . S
C1360 N1359 1.351 . S
C1360 C1361 1.434 . S
C1361 C1352 1.429 . S
C1361 N1358 1.350 . S
C1361 C1360 1.434 . S
C1362 C1363 1.369 . S
C1362 C1364 1.419 . S
C1362 H1366 0.930 . S
C1363 C1362 1.369 . S
C1363 C1372 1.429 . S
C1364 C1362 1.419 . S
C1364 C1365 1.363 . S
C1364 H1367 0.929 . S
C1365 C1364 1.363 . S
C1365 C1371 1.428 . S
H1366 C1362 0.930 . S
H1367 C1364 0.929 . S
S1368 N1369 1.613 . S
S1368 N1370 1.610 . S
N1369 S1368 1.613 . S
N1369 C1372 1.350 . S
N1370 S1368 1.610 . S
N1370 C1371 1.351 . S
C1371 C1365 1.428 . S
C1371 N1370 1.351 . S
C1371 C1372 1.434 . S
C1372 C1363 1.429 . S
C1372 N1369 1.350 . S
C1372 C1371 1.434 . S
C1373 C1374 1.369 . S
C1373 C1375 1.419 . S
C1373 H1377 0.930 . S
C1374 C1373 1.369 . S
C1374 C1383 1.429 . S
C1375 C1373 1.419 . S
C1375 C1376 1.363 . S
C1375 H1378 0.929 . S
C1376 C1375 1.363 . S
C1376 C1382 1.428 . S
H1377 C1373 0.930 . S
H1378 C1375 0.929 . S
S1379 N1380 1.613 . S
S1379 N1381 1.610 . S
N1380 S1379 1.613 . S
N1380 C1383 1.350 . S
N1381 S1379 1.610 . S
N1381 C1382 1.351 . S
C1382 C1376 1.428 . S
C1382 N1381 1.351 . S
C1382 C1383 1.434 . S
C1383 C1374 1.429 . S
C1383 N1380 1.350 . S
C1383 C1382 1.434 . S
C1384 C1385 1.369 . S
C1384 C1386 1.419 . S
C1384 H1388 0.930 . S
C1385 C1384 1.369 . S
C1385 C1394 1.429 . S
C1386 C1384 1.419 . S
C1386 C1387 1.363 . S
C1386 H1389 0.929 . S
C1387 C1386 1.363 . S
C1387 C1393 1.428 . S
H1388 C1384 0.930 . S
H1389 C1386 0.929 . S
S1390 N1391 1.613 . S
S1390 N1392 1.610 . S
N1391 S1390 1.613 . S
N1391 C1394 1.350 . S
N1392 S1390 1.610 . S
N1392 C1393 1.351 . S
C1393 C1387 1.428 . S
C1393 N1392 1.351 . S
C1393 C1394 1.434 . S
C1394 C1385 1.429 . S
C1394 N1391 1.350 . S
C1394 C1393 1.434 . S
C1395 C1396 1.369 . S
C1395 C1397 1.419 . S
C1395 H1399 0.930 . S
C1396 C1395 1.369 . S
C1396 C1405 1.429 . S
C1397 C1395 1.419 . S
C1397 C1398 1.363 . S
C1397 H1400 0.929 . S
C1398 C1397 1.363 . S
C1398 C1404 1.428 . S
H1399 C1395 0.930 . S
H1400 C1397 0.929 . S
S1401 N1402 1.613 . S
S1401 N1403 1.610 . S
N1402 S1401 1.613 . S
N1402 C1405 1.350 . S
N1403 S1401 1.610 . S
N1403 C1404 1.351 . S
C1404 C1398 1.428 . S
C1404 N1403 1.351 . S
C1404 C1405 1.434 . S
C1405 C1396 1.429 . S
C1405 N1402 1.350 . S
C1405 C1404 1.434 . S
C1406 C1407 1.369 . S
C1406 C1408 1.419 . S
C1406 H1410 0.930 . S
C1407 C1406 1.369 . S
C1407 C1416 1.429 . S
C1408 C1406 1.419 . S
C1408 C1409 1.363 . S
C1408 H1411 0.929 . S
C1409 C1408 1.363 . S
C1409 C1415 1.428 . S
H1410 C1406 0.930 . S
H1411 C1408 0.929 . S
S1412 N1413 1.613 . S
S1412 N1414 1.610 . S
N1413 S1412 1.613 . S
N1413 C1416 1.350 . S
N1414 S1412 1.610 . S
N1414 C1415 1.351 . S
C1415 C1409 1.428 . S
C1415 N1414 1.351 . S
C1415 C1416 1.434 . S
C1416 C1407 1.429 . S
C1416 N1413 1.350 . S
C1416 C1415 1.434 . S
C1417 C1418 1.369 . S
C1417 C1419 1.419 . S
C1417 H1421 0.930 . S
C1418 C1417 1.369 . S
C1418 C1427 1.429 . S
C1419 C1417 1.419 . S
C1419 C1420 1.363 . S
C1419 H1422 0.929 . S
C1420 C1419 1.363 . S
C1420 C1426 1.428 . S
H1421 C1417 0.930 . S
H1422 C1419 0.929 . S
S1423 N1424 1.613 . S
S1423 N1425 1.610 . S
N1424 S1423 1.613 . S
N1424 C1427 1.350 . S
N1425 S1423 1.610 . S
N1425 C1426 1.351 . S
C1426 C1420 1.428 . S
C1426 N1425 1.351 . S
C1426 C1427 1.434 . S
C1427 C1418 1.429 . S
C1427 N1424 1.350 . S
C1427 C1426 1.434 . S
C1428 C1429 1.369 . S
C1428 C1430 1.419 . S
C1428 H1432 0.930 . S
C1429 C1428 1.369 . S
C1429 C1438 1.429 . S
C1430 C1428 1.419 . S
C1430 C1431 1.363 . S
C1430 H1433 0.929 . S
C1431 C1430 1.363 . S
C1431 C1437 1.428 1_556 S
H1432 C1428 0.930 . S
H1433 C1430 0.929 . S
S1434 N1435 1.613 . S
S1434 N1436 1.610 . S
N1435 S1434 1.613 . S
N1435 C1438 1.350 1_554 S
N1436 S1434 1.610 . S
N1436 C1437 1.351 . S
C1437 C1431 1.428 1_554 S
C1437 N1436 1.351 . S
C1437 C1438 1.434 1_554 S
C1438 C1429 1.429 . S
C1438 N1435 1.350 1_556 S
C1438 C1437 1.434 1_556 S
C1439 C1440 1.369 1_655 S
C1439 C1441 1.419 . S
C1439 H1443 0.930 . S
C1440 C1439 1.369 1_455 S
C1440 C1449 1.429 1_455 S
C1441 C1439 1.419 . S
C1441 C1442 1.363 . S
C1441 H1444 0.929 . S
C1442 C1441 1.363 . S
C1442 C1448 1.428 . S
H1443 C1439 0.930 . S
H1444 C1441 0.929 . S
S1445 N1446 1.613 1_655 S
S1445 N1447 1.610 . S
N1446 S1445 1.613 1_455 S
N1446 C1449 1.350 1_455 S
N1447 S1445 1.610 . S
N1447 C1448 1.351 . S
C1448 C1442 1.428 . S
C1448 N1447 1.351 . S
C1448 C1449 1.434 . S
C1449 C1440 1.429 1_655 S
C1449 N1446 1.350 1_655 S
C1449 C1448 1.434 . S
C1450 C1451 1.369 . S
C1450 C1452 1.419 . S
C1450 H1454 0.930 . S
C1451 C1450 1.369 . S
C1451 C1460 1.429 . S
C1452 C1450 1.419 . S
C1452 C1453 1.363 . S
C1452 H1455 0.929 . S
C1453 C1452 1.363 . S
C1453 C1459 1.428 . S
H1454 C1450 0.930 . S
H1455 C1452 0.929 . S
S1456 N1457 1.613 . S
S1456 N1458 1.610 . S
N1457 S1456 1.613 . S
N1457 C1460 1.350 1_655 S
N1458 S1456 1.610 . S
N1458 C1459 1.351 1_655 S
C1459 C1453 1.428 . S
C1459 N1458 1.351 1_455 S
C1459 C1460 1.434 . S
C1460 C1451 1.429 . S
C1460 N1457 1.350 1_455 S
C1460 C1459 1.434 . S
C1461 C1462 1.369 . S
C1461 C1463 1.419 . S
C1461 H1465 0.930 . S
C1462 C1461 1.369 . S
C1462 C1471 1.429 . S
C1463 C1461 1.419 . S
C1463 C1464 1.363 . S
C1463 H1466 0.929 . S
C1464 C1463 1.363 . S
C1464 C1470 1.428 . S
H1465 C1461 0.930 . S
H1466 C1463 0.929 . S
S1467 N1468 1.613 . S
S1467 N1469 1.610 . S
N1468 S1467 1.613 . S
N1468 C1471 1.350 . S
N1469 S1467 1.610 . S
N1469 C1470 1.351 . S
C1470 C1464 1.428 . S
C1470 N1469 1.351 . S
C1470 C1471 1.434 . S
C1471 C1462 1.429 . S
C1471 N1468 1.350 . S
C1471 C1470 1.434 . S
C1472 C1473 1.369 . S
C1472 C1474 1.419 . S
C1472 H1476 0.930 . S
C1473 C1472 1.369 . S
C1473 C1482 1.429 . S
C1474 C1472 1.419 . S
C1474 C1475 1.363 . S
C1474 H1477 0.929 . S
C1475 C1474 1.363 . S
C1475 C1481 1.428 . S
H1476 C1472 0.930 . S
H1477 C1474 0.929 . S
S1478 N1479 1.613 . S
S1478 N1480 1.610 . S
N1479 S1478 1.613 . S
N1479 C1482 1.350 . S
N1480 S1478 1.610 . S
N1480 C1481 1.351 . S
C1481 C1475 1.428 . S
C1481 N1480 1.351 . S
C1481 C1482 1.434 . S
C1482 C1473 1.429 . S
C1482 N1479 1.350 . S
C1482 C1481 1.434 . S
C1483 C1484 1.369 . S
C1483 C1485 1.419 . S
C1483 H1487 0.930 . S
C1484 C1483 1.369 . S
C1484 C1493 1.429 . S
C1485 C1483 1.419 . S
C1485 C1486 1.363 . S
C1485 H1488 0.929 . S
C1486 C1485 1.363 . S
C1486 C1492 1.428 . S
H1487 C1483 0.930 . S
H1488 C1485 0.929 . S
S1489 N1490 1.613 . S
S1489 N1491 1.610 . S
N1490 S1489 1.613 . S
N1490 C1493 1.350 . S
N1491 S1489 1.610 . S
N1491 C1492 1.351 . S
C1492 C1486 1.428 . S
C1492 N1491 1.351 . S
C1492 C1493 1.434 . S
C1493 C1484 1.429 . S
C1493 N1490 1.350 . S
C1493 C1492 1.434 . S
C1494 C1495 1.369 . S
C1494 C1496 1.419 . S
C1494 H1498 0.930 . S
C1495 C1494 1.369 . S
C1495 C1504 1.429 . S
C1496 C1494 1.419 . S
C1496 C1497 1.385 . S
C1496 H1499 0.929 . S
C1497 C1496 1.385 . S
C1497 C1503 1.426 1_655 S
H1498 C1494 0.930 . S
H1499 C1496 0.929 . S
S1500 N1501 1.613 1_455 S
S1500 N1502 1.610 . S
N1501 S1500 1.613 1_655 S
N1501 C1504 1.350 . S
N1502 S1500 1.610 . S
N1502 C1503 1.351 . S
C1503 C1497 1.426 1_455 S
C1503 N1502 1.351 . S
C1503 C1504 1.434 1_455 S
C1504 C1495 1.429 . S
C1504 N1501 1.350 . S
C1504 C1503 1.434 1_655 S
C1505 C1506 1.369 . S
C1505 C1507 1.419 . S
C1505 H1509 0.930 . S
C1506 C1505 1.369 . S
C1506 C1515 1.429 . S
C1507 C1505 1.419 . S
C1507 C1508 1.363 . S
C1507 H1510 0.929 . S
C1508 C1507 1.363 . S
C1508 C1514 1.428 . S
H1509 C1505 0.930 . S
H1510 C1507 0.929 . S
S1511 N1512 1.613 . S
S1511 N1513 1.610 . S
N1512 S1511 1.613 . S
N1512 C1515 1.350 . S
N1513 S1511 1.610 . S
N1513 C1514 1.351 . S
C1514 C1508 1.428 . S
C1514 N1513 1.351 . S
C1514 C1515 1.434 . S
C1515 C1506 1.429 . S
C1515 N1512 1.350 . S
C1515 C1514 1.434 . S
C1516 C1517 1.369 . S
C1516 C1518 1.419 . S
C1516 H1520 0.930 . S
C1517 C1516 1.369 . S
C1517 C1526 1.429 . S
C1518 C1516 1.419 . S
C1518 C1519 1.363 . S
C1518 H1521 0.929 . S
C1519 C1518 1.363 . S
C1519 C1525 1.428 . S
H1520 C1516 0.930 . S
H1521 C1518 0.929 . S
S1522 N1523 1.613 . S
S1522 N1524 1.610 . S
N1523 S1522 1.613 . S
N1523 C1526 1.350 . S
N1524 S1522 1.610 . S
N1524 C1525 1.351 . S
C1525 C1519 1.428 . S
C1525 N1524 1.351 . S
C1525 C1526 1.434 . S
C1526 C1517 1.429 . S
C1526 N1523 1.350 . S
C1526 C1525 1.434 . S
C1527 C1528 1.369 . S
C1527 C1529 1.419 . S
C1527 H1531 0.930 . S
C1528 C1527 1.369 . S
C1528 C1537 1.429 . S
C1529 C1527 1.419 . S
C1529 C1530 1.363 . S
C1529 H1532 0.929 . S
C1530 C1529 1.363 . S
C1530 C1536 1.428 . S
H1531 C1527 0.930 . S
H1532 C1529 0.929 . S
S1533 N1534 1.613 . S
S1533 N1535 1.610 . S
N1534 S1533 1.613 . S
N1534 C1537 1.350 . S
N1535 S1533 1.610 . S
N1535 C1536 1.351 . S
C1536 C1530 1.428 . S
C1536 N1535 1.351 . S
C1536 C1537 1.434 . S
C1537 C1528 1.429 . S
C1537 N1534 1.350 . S
C1537 C1536 1.434 . S
C1538 C1539 1.369 . S
C1538 C1540 1.419 . S
C1538 H1542 0.930 . S
C1539 C1538 1.369 . S
C1539 C1548 1.429 . S
C1540 C1538 1.419 . S
C1540 C1541 1.363 . S
C1540 H1543 0.929 . S
C1541 C1540 1.363 . S
C1541 C1547 1.428 . S
H1542 C1538 0.930 . S
H1543 C1540 0.929 . S
S1544 N1545 1.613 1_455 S
S1544 N1546 1.610 . S
N1545 S1544 1.613 1_655 S
N1545 C1548 1.350 . S
N1546 S1544 1.610 . S
N1546 C1547 1.351 1_455 S
C1547 C1541 1.428 . S
C1547 N1546 1.351 1_655 S
C1547 C1548 1.434 . S
C1548 C1539 1.429 . S
C1548 N1545 1.350 . S
C1548 C1547 1.434 . S
C1549 C1550 1.369 . S
C1549 C1551 1.419 . S
C1549 H1553 0.930 . S
C1550 C1549 1.369 . S
C1550 C1559 1.429 . S
C1551 C1549 1.419 . S
C1551 C1552 1.363 . S
C1551 H1554 0.929 . S
C1552 C1551 1.363 . S
C1552 C1558 1.428 . S
H1553 C1549 0.930 . S
H1554 C1551 0.929 . S
S1555 N1556 1.613 . S
S1555 N1557 1.610 . S
N1556 S1555 1.613 . S
N1556 C1559 1.350 . S
N1557 S1555 1.610 . S
N1557 C1558 1.351 . S
C1558 C1552 1.428 . S
C1558 N1557 1.351 . S
C1558 C1559 1.434 . S
C1559 C1550 1.429 . S
C1559 N1556 1.350 . S
C1559 C1558 1.434 . S
C1560 C1561 1.369 . S
C1560 C1562 1.419 . S
C1560 H1564 0.930 . S
C1561 C1560 1.369 . S
C1561 C1570 1.429 . S
C1562 C1560 1.419 . S
C1562 C1563 1.363 . S
C1562 H1565 0.929 . S
C1563 C1562 1.363 . S
C1563 C1569 1.428 . S
H1564 C1560 0.930 . S
H1565 C1562 0.929 . S
S1566 N1567 1.613 . S
S1566 N1568 1.610 . S
N1567 S1566 1.613 . S
N1567 C1570 1.350 . S
N1568 S1566 1.610 . S
N1568 C1569 1.351 . S
C1569 C1563 1.428 . S
C1569 N1568 1.351 . S
C1569 C1570 1.434 . S
C1570 C1561 1.429 . S
C1570 N1567 1.350 . S
C1570 C1569 1.434 . S
C1571 C1572 1.369 . S
C1571 C1573 1.419 . S
C1571 H1575 0.930 . S
C1572 C1571 1.369 . S
C1572 C1581 1.429 1_565 S
C1573 C1571 1.419 . S
C1573 C1574 1.363 . S
C1573 H1576 0.929 . S
C1574 C1573 1.363 . S
C1574 C1580 1.428 1_565 S
H1575 C1571 0.930 . S
H1576 C1573 0.929 . S
S1577 N1578 1.613 . S
S1577 N1579 1.610 . S
N1578 S1577 1.613 . S
N1578 C1581 1.350 . S
N1579 S1577 1.610 . S
N1579 C1580 1.351 . S
C1580 C1574 1.428 1_545 S
C1580 N1579 1.351 . S
C1580 C1581 1.434 . S
C1581 C1572 1.429 1_545 S
C1581 N1578 1.350 . S
C1581 C1580 1.434 . S
C1582 C1583 1.369 . S
C1582 C1584 1.419 . S
C1582 H1586 0.930 . S
C1583 C1582 1.369 . S
C1583 C1592 1.429 . S
C1584 C1582 1.419 . S
C1584 C1585 1.363 . S
C1584 H1587 0.929 . S
C1585 C1584 1.363 . S
C1585 C1591 1.428 . S
H1586 C1582 0.930 . S
H1587 C1584 0.929 . S
S1588 N1589 1.613 . S
S1588 N1590 1.610 . S
N1589 S1588 1.613 . S
N1589 C1592 1.350 . S
N1590 S1588 1.610 . S
N1590 C1591 1.351 . S
C1591 C1585 1.428 . S
C1591 N1590 1.351 . S
C1591 C1592 1.434 . S
C1592 C1583 1.429 . S
C1592 N1589 1.350 . S
C1592 C1591 1.434 . S
C1593 C1594 1.369 . S
C1593 C1595 1.419 . S
C1593 H1597 0.930 . S
C1594 C1593 1.369 . S
C1594 C1603 1.429 . S
C1595 C1593 1.419 . S
C1595 C1596 1.363 . S
C1595 H1598 0.929 . S
C1596 C1595 1.363 . S
C1596 C1602 1.428 . S
H1597 C1593 0.930 . S
H1598 C1595 0.929 . S
S1599 N1600 1.613 1_565 S
S1599 N1601 1.610 1_566 S
N1600 S1599 1.613 1_545 S
N1600 C1603 1.350 1_556 S
N1601 S1599 1.610 1_544 S
N1601 C1602 1.351 . S
C1602 C1596 1.428 . S
C1602 N1601 1.351 . S
C1602 C1603 1.434 . S
C1603 C1594 1.429 . S
C1603 N1600 1.350 1_554 S
C1603 C1602 1.434 . S
C1604 C1605 1.369 . S
C1604 C1606 1.419 . S
C1604 H1608 0.930 . S
C1605 C1604 1.369 . S
C1605 C1614 1.429 . S
C1606 C1604 1.419 . S
C1606 C1607 1.363 . S
C1606 H1609 0.929 . S
C1607 C1606 1.363 . S
C1607 C1613 1.428 . S
H1608 C1604 0.930 . S
H1609 C1606 0.929 . S
S1610 N1611 1.613 . S
S1610 N1612 1.610 . S
N1611 S1610 1.613 . S
N1611 C1614 1.350 . S
N1612 S1610 1.610 . S
N1612 C1613 1.351 . S
C1613 C1607 1.428 . S
C1613 N1612 1.351 . S
C1613 C1614 1.434 . S
C1614 C1605 1.429 . S
C1614 N1611 1.350 . S
C1614 C1613 1.434 . S
C1615 C1616 1.369 . S
C1615 C1617 1.419 . S
C1615 H1619 0.930 . S
C1616 C1615 1.369 . S
C1616 C1625 1.429 . S
C1617 C1615 1.419 . S
C1617 C1618 1.363 . S
C1617 H1620 0.929 . S
C1618 C1617 1.363 . S
C1618 C1624 1.428 . S
H1619 C1615 0.930 . S
H1620 C1617 0.929 . S
S1621 N1622 1.613 1_556 S
S1621 N1623 1.610 . S
N1622 S1621 1.613 1_554 S
N1622 C1625 1.350 . S
N1623 S1621 1.610 . S
N1623 C1624 1.351 1_556 S
C1624 C1618 1.428 . S
C1624 N1623 1.351 1_554 S
C1624 C1625 1.434 . S
C1625 C1616 1.429 . S
C1625 N1622 1.350 . S
C1625 C1624 1.434 . S
C1626 C1627 1.369 . S
C1626 C1628 1.419 . S
C1626 H1630 0.930 . S
C1627 C1626 1.369 . S
C1627 C1636 1.429 . S
C1628 C1626 1.419 . S
C1628 C1629 1.363 . S
C1628 H1631 0.929 . S
C1629 C1628 1.363 . S
C1629 C1635 1.428 . S
H1630 C1626 0.930 . S
H1631 C1628 0.929 . S
S1632 N1633 1.613 . S
S1632 N1634 1.610 . S
N1633 S1632 1.613 . S
N1633 C1636 1.350 . S
N1634 S1632 1.610 . S
N1634 C1635 1.351 . S
C1635 C1629 1.428 . S
C1635 N1634 1.351 . S
C1635 C1636 1.434 . S
C1636 C1627 1.429 . S
C1636 N1633 1.350 . S
C1636 C1635 1.434 . S
C1637 C1638 1.369 . S
C1637 C1639 1.419 . S
C1637 H1641 0.930 . S
C1638 C1637 1.369 . S
C1638 C1647 1.429 . S
C1639 C1637 1.419 . S
C1639 C1640 1.363 . S
C1639 H1642 0.929 . S
C1640 C1639 1.363 . S
C1640 C1646 1.428 . S
H1641 C1637 0.930 . S
H1642 C1639 0.929 . S
S1643 N1644 1.613 . S
S1643 N1645 1.610 . S
N1644 S1643 1.613 . S
N1644 C1647 1.350 . S
N1645 S1643 1.610 . S
N1645 C1646 1.351 . S
C1646 C1640 1.428 . S
C1646 N1645 1.351 . S
C1646 C1647 1.434 . S
C1647 C1638 1.429 . S
C1647 N1644 1.350 . S
C1647 C1646 1.434 . S
C1648 C1649 1.369 . S
C1648 C1650 1.419 . S
C1648 H1652 0.930 . S
C1649 C1648 1.369 . S
C1649 C1658 1.429 . S
C1650 C1648 1.419 . S
C1650 C1651 1.363 . S
C1650 H1653 0.929 . S
C1651 C1650 1.363 . S
C1651 C1657 1.428 . S
H1652 C1648 0.930 . S
H1653 C1650 0.929 . S
S1654 N1655 1.613 . S
S1654 N1656 1.610 . S
N1655 S1654 1.613 . S
N1655 C1658 1.350 . S
N1656 S1654 1.610 . S
N1656 C1657 1.351 . S
C1657 C1651 1.428 . S
C1657 N1656 1.351 . S
C1657 C1658 1.434 . S
C1658 C1649 1.429 . S
C1658 N1655 1.350 . S
C1658 C1657 1.434 . S
C1659 C1660 1.369 . S
C1659 C1661 1.419 . S
C1659 H1663 0.930 . S
C1660 C1659 1.369 . S
C1660 C1669 1.429 . S
C1661 C1659 1.419 . S
C1661 C1662 1.363 . S
C1661 H1664 0.929 . S
C1662 C1661 1.363 . S
C1662 C1668 1.428 . S
H1663 C1659 0.930 . S
H1664 C1661 0.929 . S
S1665 N1666 1.613 . S
S1665 N1667 1.610 . S
N1666 S1665 1.613 . S
N1666 C1669 1.350 . S
N1667 S1665 1.610 . S
N1667 C1668 1.351 . S
C1668 C1662 1.428 . S
C1668 N1667 1.351 . S
C1668 C1669 1.434 . S
C1669 C1660 1.429 . S
C1669 N1666 1.350 . S
C1669 C1668 1.434 . S
C1670 C1671 1.369 . S
C1670 C1672 1.419 . S
C1670 H1674 0.930 . S
C1671 C1670 1.369 . S
C1671 C1680 1.429 . S
C1672 C1670 1.419 . S
C1672 C1673 1.363 . S
C1672 H1675 0.929 . S
C1673 C1672 1.363 . S
C1673 C1679 1.428 . S
H1674 C1670 0.930 . S
H1675 C1672 0.929 . S
S1676 N1677 1.613 1_554 S
S1676 N1678 1.610 . S
N1677 S1676 1.613 1_556 S
N1677 C1680 1.350 . S
N1678 S1676 1.610 . S
N1678 C1679 1.351 1_554 S
C1679 C1673 1.428 . S
C1679 N1678 1.351 1_556 S
C1679 C1680 1.434 . S
C1680 C1671 1.429 . S
C1680 N1677 1.350 . S
C1680 C1679 1.434 . S
C1681 C1682 1.369 . S
C1681 C1683 1.419 . S
C1681 H1685 0.930 . S
C1682 C1681 1.369 . S
C1682 C1691 1.429 . S
C1683 C1681 1.419 . S
C1683 C1684 1.363 . S
C1683 H1686 0.929 . S
C1684 C1683 1.363 . S
C1684 C1690 1.428 . S
H1685 C1681 0.930 . S
H1686 C1683 0.929 . S
S1687 N1688 1.613 . S
S1687 N1689 1.610 . S
N1688 S1687 1.613 . S
N1688 C1691 1.350 . S
N1689 S1687 1.610 . S
N1689 C1690 1.351 . S
C1690 C1684 1.428 . S
C1690 N1689 1.351 . S
C1690 C1691 1.434 . S
C1691 C1682 1.429 . S
C1691 N1688 1.350 . S
C1691 C1690 1.434 . S
C1692 C1693 1.369 . S
C1692 C1694 1.419 . S
C1692 H1696 0.930 . S
C1693 C1692 1.369 . S
C1693 C1702 1.429 . S
C1694 C1692 1.419 . S
C1694 C1695 1.363 . S
C1694 H1697 0.929 . S
C1695 C1694 1.363 . S
C1695 C1701 1.428 . S
H1696 C1692 0.930 . S
H1697 C1694 0.929 . S
S1698 N1699 1.613 . S
S1698 N1700 1.610 . S
N1699 S1698 1.613 . S
N1699 C1702 1.350 . S
N1700 S1698 1.610 . S
N1700 C1701 1.351 . S
C1701 C1695 1.428 . S
C1701 N1700 1.351 . S
C1701 C1702 1.434 . S
C1702 C1693 1.429 . S
C1702 N1699 1.350 . S
C1702 C1701 1.434 . S
C1703 C1704 1.369 . S
C1703 C1705 1.419 . S
C1703 H1707 0.930 . S
C1704 C1703 1.369 . S
C1704 C1713 1.429 . S
C1705 C1703 1.419 . S
C1705 C1706 1.363 . S
C1705 H1708 0.929 . S
C1706 C1705 1.363 . S
C1706 C1712 1.428 . S
H1707 C1703 0.930 . S
H1708 C1705 0.929 . S
S1709 N1710 1.613 . S
S1709 N1711 1.610 . S
N1710 S1709 1.613 . S
N1710 C1713 1.350 . S
N1711 S1709 1.610 . S
N1711 C1712 1.351 . S
C1712 C1706 1.428 . S
C1712 N1711 1.351 . S
C1712 C1713 1.434 . S
C1713 C1704 1.429 . S
C1713 N1710 1.350 . S
C1713 C1712 1.434 . S
C1714 C1715 1.369 . S
C1714 C1716 1.419 . S
C1714 H1718 0.930 . S
C1715 C1714 1.369 . S
C1715 C1724 1.429 . S
C1716 C1714 1.419 . S
C1716 C1717 1.363 . S
C1716 H1719 0.929 . S
C1717 C1716 1.363 . S
C1717 C1723 1.428 . S
H1718 C1714 0.930 . S
H1719 C1716 0.929 . S
S1720 N1721 1.613 . S
S1720 N1722 1.610 . S
N1721 S1720 1.613 . S
N1721 C1724 1.350 . S
N1722 S1720 1.610 . S
N1722 C1723 1.351 . S
C1723 C1717 1.428 . S
C1723 N1722 1.351 . S
C1723 C1724 1.434 . S
C1724 C1715 1.429 . S
C1724 N1721 1.350 . S
C1724 C1723 1.434 . S
C1725 C1726 1.369 . S
C1725 C1727 1.419 . S
C1725 H1729 0.930 . S
C1726 C1725 1.369 . S
C1726 C1735 1.429 . S
C1727 C1725 1.419 . S
C1727 C1728 1.363 . S
C1727 H1730 0.929 . S
C1728 C1727 1.363 . S
C1728 C1734 1.428 . S
H1729 C1725 0.930 . S
H1730 C1727 0.929 . S
S1731 N1732 1.613 . S
S1731 N1733 1.610 . S
N1732 S1731 1.613 . S
N1732 C1735 1.350 . S
N1733 S1731 1.610 . S
N1733 C1734 1.351 . S
C1734 C1728 1.428 . S
C1734 N1733 1.351 . S
C1734 C1735 1.434 . S
C1735 C1726 1.429 . S
C1735 N1732 1.350 . S
C1735 C1734 1.434 . S
C1736 C1737 1.369 . S
C1736 C1738 1.419 . S
C1736 H1740 0.930 . S
C1737 C1736 1.369 . S
C1737 C1746 1.429 . S
C1738 C1736 1.419 . S
C1738 C1739 1.363 . S
C1738 H1741 0.929 . S
C1739 C1738 1.363 . S
C1739 C1745 1.428 . S
H1740 C1736 0.930 . S
H1741 C1738 0.929 . S
S1742 N1743 1.613 . S
S1742 N1744 1.610 . S
N1743 S1742 1.613 . S
N1743 C1746 1.350 . S
N1744 S1742 1.610 . S
N1744 C1745 1.351 . S
C1745 C1739 1.428 . S
C1745 N1744 1.351 . S
C1745 C1746 1.434 . S
C1746 C1737 1.429 . S
C1746 N1743 1.350 . S
C1746 C1745 1.434 . S
C1747 C1748 1.369 . S
C1747 C1749 1.419 . S
C1747 H1751 0.930 . S
C1748 C1747 1.369 . S
C1748 C1757 1.429 . S
C1749 C1747 1.419 . S
C1749 C1750 1.363 . S
C1749 H1752 0.929 . S
C1750 C1749 1.363 . S
C1750 C1756 1.428 . S
H1751 C1747 0.930 . S
H1752 C1749 0.929 . S
S1753 N1754 1.613 . S
S1753 N1755 1.610 . S
N1754 S1753 1.613 . S
N1754 C1757 1.350 . S
N1755 S1753 1.610 . S
N1755 C1756 1.351 . S
C1756 C1750 1.428 . S
C1756 N1755 1.351 . S
C1756 C1757 1.434 . S
C1757 C1748 1.429 . S
C1757 N1754 1.350 . S
C1757 C1756 1.434 . S
C1758 C1759 1.369 . S
C1758 C1760 1.419 . S
C1758 H1762 0.930 . S
C1759 C1758 1.369 . S
C1759 C1768 1.429 . S
C1760 C1758 1.419 . S
C1760 C1761 1.363 . S
C1760 H1763 0.929 . S
C1761 C1760 1.363 . S
C1761 C1767 1.428 . S
H1762 C1758 0.930 . S
H1763 C1760 0.929 . S
S1764 N1765 1.613 . S
S1764 N1766 1.610 . S
N1765 S1764 1.613 . S
N1765 C1768 1.350 . S
N1766 S1764 1.610 . S
N1766 C1767 1.351 . S
C1767 C1761 1.428 . S
C1767 N1766 1.351 . S
C1767 C1768 1.434 . S
C1768 C1759 1.429 . S
C1768 N1765 1.350 . S
C1768 C1767 1.434 . S
C1769 C1770 1.369 . S
C1769 C1771 1.419 . S
C1769 H1773 0.930 . S
C1770 C1769 1.369 . S
C1770 C1779 1.429 . S
C1771 C1769 1.419 . S
C1771 C1772 1.363 . S
C1771 H1774 0.929 . S
C1772 C1771 1.363 . S
C1772 C1778 1.428 . S
H1773 C1769 0.930 . S
H1774 C1771 0.929 . S
S1775 N1776 1.613 . S
S1775 N1777 1.610 . S
N1776 S1775 1.613 . S
N1776 C1779 1.350 . S
N1777 S1775 1.610 . S
N1777 C1778 1.351 . S
C1778 C1772 1.428 . S
C1778 N1777 1.351 . S
C1778 C1779 1.434 . S
C1779 C1770 1.429 . S
C1779 N1776 1.350 . S
C1779 C1778 1.434 . S
C1780 C1781 1.369 . S
C1780 C1782 1.419 . S
C1780 H1784 0.930 . S
C1781 C1780 1.369 . S
C1781 C1790 1.429 . S
C1782 C1780 1.419 . S
C1782 C1783 1.363 . S
C1782 H1785 0.929 . S
C1783 C1782 1.363 . S
C1783 C1789 1.428 . S
H1784 C1780 0.930 . S
H1785 C1782 0.929 . S
S1786 N1787 1.613 . S
S1786 N1788 1.610 . S
N1787 S1786 1.613 . S
N1787 C1790 1.350 . S
N1788 S1786 1.610 . S
N1788 C1789 1.351 . S
C1789 C1783 1.428 . S
C1789 N1788 1.351 . S
C1789 C1790 1.434 . S
C1790 C1781 1.429 . S
C1790 N1787 1.350 . S
C1790 C1789 1.434 . S
C1791 C1792 1.369 . S
C1791 C1793 1.419 . S
C1791 H1795 0.930 . S
C1792 C1791 1.369 . S
C1792 C1801 1.429 . S
C1793 C1791 1.419 . S
C1793 C1794 1.363 . S
C1793 H1796 0.929 . S
C1794 C1793 1.363 . S
C1794 C1800 1.428 . S
H1795 C1791 0.930 . S
H1796 C1793 0.929 . S
S1797 N1798 1.613 . S
S1797 N1799 1.610 . S
N1798 S1797 1.613 . S
N1798 C1801 1.350 . S
N1799 S1797 1.610 . S
N1799 C1800 1.351 . S
C1800 C1794 1.428 . S
C1800 N1799 1.351 . S
C1800 C1801 1.434 . S
C1801 C1792 1.429 . S
C1801 N1798 1.350 . S
C1801 C1800 1.434 . S
C1802 C1803 1.369 . S
C1802 C1804 1.419 . S
C1802 H1806 0.930 . S
C1803 C1802 1.369 . S
C1803 C1812 1.429 . S
C1804 C1802 1.419 . S
C1804 C1805 1.363 . S
C1804 H1807 0.929 . S
C1805 C1804 1.363 . S
C1805 C1811 1.428 . S
H1806 C1802 0.930 . S
H1807 C1804 0.929 . S
S1808 N1809 1.613 . S
S1808 N1810 1.610 . S
N1809 S1808 1.613 . S
N1809 C1812 1.350 . S
N1810 S1808 1.610 . S
N1810 C1811 1.351 . S
C1811 C1805 1.428 . S
C1811 N1810 1.351 . S
C1811 C1812 1.434 . S
C1812 C1803 1.429 . S
C1812 N1809 1.350 . S
C1812 C1811 1.434 . S
C1813 C1814 1.369 . S
C1813 C1815 1.419 . S
C1813 H1817 0.930 . S
C1814 C1813 1.369 . S
C1814 C1823 1.429 . S
C1815 C1813 1.419 . S
C1815 C1816 1.363 . S
C1815 H1818 0.929 . S
C1816 C1815 1.363 . S
C1816 C1822 1.428 . S
H1817 C1813 0.930 . S
H1818 C1815 0.929 . S
S1819 N1820 1.613 . S
S1819 N1821 1.610 . S
N1820 S1819 1.613 . S
N1820 C1823 1.350 . S
N1821 S1819 1.610 . S
N1821 C1822 1.351 . S
C1822 C1816 1.428 . S
C1822 N1821 1.351 . S
C1822 C1823 1.434 . S
C1823 C1814 1.429 . S
C1823 N1820 1.350 . S
C1823 C1822 1.434 . S
C1824 C1825 1.369 . S
C1824 C1826 1.419 . S
C1824 H1828 0.930 . S
C1825 C1824 1.369 . S
C1825 C1834 1.429 . S
C1826 C1824 1.419 . S
C1826 C1827 1.363 . S
C1826 H1829 0.929 . S
C1827 C1826 1.363 . S
C1827 C1833 1.428 . S
H1828 C1824 0.930 . S
H1829 C1826 0.929 . S
S1830 N1831 1.613 . S
S1830 N1832 1.610 . S
N1831 S1830 1.613 . S
N1831 C1834 1.350 . S
N1832 S1830 1.610 . S
N1832 C1833 1.351 . S
C1833 C1827 1.428 . S
C1833 N1832 1.351 . S
C1833 C1834 1.434 . S
C1834 C1825 1.429 . S
C1834 N1831 1.350 . S
C1834 C1833 1.434 . S
C1835 C1836 1.369 . S
C1835 C1837 1.419 . S
C1835 H1839 0.930 . S
C1836 C1835 1.369 . S
C1836 C1845 1.429 . S
C1837 C1835 1.419 . S
C1837 C1838 1.363 . S
C1837 H1840 0.929 . S
C1838 C1837 1.363 . S
C1838 C1844 1.428 . S
H1839 C1835 0.930 . S
H1840 C1837 0.929 . S
S1841 N1842 1.613 1_565 S
S1841 N1843 1.610 . S
N1842 S1841 1.613 1_545 S
N1842 C1845 1.350 . S
N1843 S1841 1.610 . S
N1843 C1844 1.351 1_565 S
C1844 C1838 1.428 . S
C1844 N1843 1.351 1_545 S
C1844 C1845 1.434 . S
C1845 C1836 1.429 . S
C1845 N1842 1.350 . S
C1845 C1844 1.434 . S
C1846 C1847 1.369 . S
C1846 C1848 1.419 . S
C1846 H1850 0.930 . S
C1847 C1846 1.369 . S
C1847 C1856 1.429 . S
C1848 C1846 1.419 . S
C1848 C1849 1.363 . S
C1848 H1851 0.929 . S
C1849 C1848 1.363 . S
C1849 C1855 1.428 . S
H1850 C1846 0.930 . S
H1851 C1848 0.929 . S
S1852 N1853 1.613 . S
S1852 N1854 1.610 . S
N1853 S1852 1.613 . S
N1853 C1856 1.350 . S
N1854 S1852 1.610 . S
N1854 C1855 1.351 . S
C1855 C1849 1.428 . S
C1855 N1854 1.351 . S
C1855 C1856 1.434 . S
C1856 C1847 1.429 . S
C1856 N1853 1.350 . S
C1856 C1855 1.434 . S
C1857 C1858 1.369 . S
C1857 C1859 1.419 1_554 S
C1857 H1861 0.930 1_554 S
C1858 C1857 1.369 . S
C1858 C1867 1.437 . S
C1859 C1857 1.419 1_556 S
C1859 C1860 1.363 1_556 S
C1859 H1862 0.929 . S
C1860 C1859 1.363 1_554 S
C1860 C1866 1.428 1_565 S
H1861 C1857 0.930 1_556 S
H1862 C1859 0.929 . S
S1863 N1864 1.613 . S
S1863 N1865 1.610 . S
N1864 S1863 1.613 . S
N1864 C1867 1.343 1_545 S
N1865 S1863 1.610 . S
N1865 C1866 1.351 . S
C1866 C1860 1.428 1_545 S
C1866 N1865 1.351 . S
C1866 C1867 1.432 1_545 S
C1867 C1858 1.437 . S
C1867 N1864 1.343 1_565 S
C1867 C1866 1.432 1_565 S
C1868 C1869 1.369 . S
C1868 C1870 1.419 . S
C1868 H1872 0.930 . S
C1869 C1868 1.369 . S
C1869 C1878 1.429 . S
C1870 C1868 1.419 . S
C1870 C1871 1.363 . S
C1870 H1873 0.929 . S
C1871 C1870 1.363 . S
C1871 C1877 1.428 . S
H1872 C1868 0.930 . S
H1873 C1870 0.929 . S
S1874 N1875 1.613 . S
S1874 N1876 1.610 . S
N1875 S1874 1.613 . S
N1875 C1878 1.350 . S
N1876 S1874 1.610 . S
N1876 C1877 1.351 . S
C1877 C1871 1.428 . S
C1877 N1876 1.351 . S
C1877 C1878 1.434 . S
C1878 C1869 1.429 . S
C1878 N1875 1.350 . S
C1878 C1877 1.434 . S
C1879 C1880 1.369 1_556 S
C1879 C1881 1.419 1_556 S
C1879 H1883 0.930 . S
C1880 C1879 1.369 1_554 S
C1880 C1889 1.429 . S
C1881 C1879 1.419 1_554 S
C1881 C1882 1.363 . S
C1881 H1884 0.929 1_554 S
C1882 C1881 1.363 . S
C1882 C1888 1.428 . S
H1883 C1879 0.930 . S
H1884 C1881 0.929 1_556 S
S1885 N1886 1.613 . S
S1885 N1887 1.610 . S
N1886 S1885 1.613 . S
N1886 C1889 1.350 . S
N1887 S1885 1.610 . S
N1887 C1888 1.351 . S
C1888 C1882 1.428 . S
C1888 N1887 1.351 . S
C1888 C1889 1.434 . S
C1889 C1880 1.429 . S
C1889 N1886 1.350 . S
C1889 C1888 1.434 . S
C1890 C1891 1.369 . S
C1890 C1892 1.419 . S
C1890 H1894 0.930 . S
C1891 C1890 1.369 . S
C1891 C1900 1.429 . S
C1892 C1890 1.419 . S
C1892 C1893 1.363 . S
C1892 H1895 0.929 . S
C1893 C1892 1.363 . S
C1893 C1899 1.428 . S
H1894 C1890 0.930 . S
H1895 C1892 0.929 . S
S1896 N1897 1.613 . S
S1896 N1898 1.610 . S
N1897 S1896 1.613 . S
N1897 C1900 1.350 . S
N1898 S1896 1.610 . S
N1898 C1899 1.351 . S
C1899 C1893 1.428 . S
C1899 N1898 1.351 . S
C1899 C1900 1.434 . S
C1900 C1891 1.429 . S
C1900 N1897 1.350 . S
C1900 C1899 1.434 . S
C1901 C1902 1.369 . S
C1901 C1903 1.419 . S
C1901 H1905 0.930 . S
C1902 C1901 1.369 . S
C1902 C1911 1.429 . S
C1903 C1901 1.419 . S
C1903 C1904 1.363 . S
C1903 H1906 0.929 . S
C1904 C1903 1.363 . S
C1904 C1910 1.428 . S
H1905 C1901 0.930 . S
H1906 C1903 0.929 . S
S1907 N1908 1.613 . S
S1907 N1909 1.610 . S
N1908 S1907 1.613 . S
N1908 C1911 1.350 . S
N1909 S1907 1.610 . S
N1909 C1910 1.351 . S
C1910 C1904 1.428 . S
C1910 N1909 1.351 . S
C1910 C1911 1.434 . S
C1911 C1902 1.429 . S
C1911 N1908 1.350 . S
C1911 C1910 1.434 . S
C859 C329 1.170 . S
C857 C10 1.163 . S
C868 C13 1.797 . S
C870 C375 1.848 . S
C879 C34 0.972 . S
C881 C384 0.983 . S
C892 C422 1.662 . S
C890 C44 1.677 . S
C901 C21 1.629 . S
C903 C456 1.655 . S
C914 C486 0.876 . S
C912 C26 0.864 . S
C925 C545 1.660 1_556 S
C923 C49 1.665 . S
C934 C5 1.151 . S
C936 C558 1.138 . S
C945 C62 1.442 . S
C947 C341 1.407 . S
C956 C73 1.179 . S
C958 C359 1.242 . S
C969 C380 1.690 . S
C967 C88 1.712 . S
C980 C418 1.076 . S
C978 C99 0.982 . S
C989 C60 1.272 . S
C991 C452 1.332 . S
C1002 C482 1.612 . S
C1000 C75 1.620 . S
C1013 C529 1.314 . S
C1011 C86 1.273 . S
C1024 C554 0.838 . S
C1022 C101 0.850 . S
C1035 C325 0.902 . S
C1033 C96 0.894 . S
C1046 C584 1.660 . S
C1044 C104 1.591 . S
C1055 C122 1.526 . S
C1057 C626 1.510 . S
C1068 C669 0.535 . S
C1066 C130 0.609 . S
C1077 C57 1.430 . S
C1079 C550 1.377 . S
C1090 C388 1.636 . S
C1088 C70 1.619 . S
C1099 C117 1.318 . S
C1101 C686 1.342 . S
C1112 C737 1.540 . S
C1110 C143 1.520 . S
C1121 C164 1.275 1_455 S
C1123 C320 1.213 1_556 S
C1134 C720 1.912 . S
C1132 C169 1.904 . S
C1143 C192 1.001 . S
C1145 C393 0.997 . S
C1154 C200 1.747 . S
C1156 C703 1.746 . S
C1167 C465 1.715 . S
C1165 C179 1.733 . S
C1178 C631 0.902 . S
C1176 C182 0.890 . S
C1189 C516 1.742 . S
C1187 C203 1.735 . S
C1200 C771 1.169 . S
C1198 C161 1.142 . S
C1211 C312 1.462 . S
C1209 C216 1.519 1_545 S
C1220 C231 1.285 . S
C1222 C724 1.266 . S
C1233 C409 1.766 1_545 S
C1231 C242 1.815 . S
C1242 C257 1.096 . S
C1244 C699 1.086 . S
C1253 C218 1.408 1_565 S
C1255 C461 1.369 . S
C1264 C229 1.728 . S
C1266 C647 1.678 . S
C1277 C520 1.339 . S
C1275 C244 1.371 . S
C1286 C255 0.886 . S
C1288 C767 0.878 . S
C1297 C252 0.880 . S
C1299 C316 0.910 . S
C1308 C260 1.620 . S
C1310 C613 1.710 . S
C1319 C278 1.502 . S
C1321 C499 1.557 . S
C1330 C286 0.592 . S
C1332 C660 0.560 . S
C1343 C783 1.416 . S
C1341 C213 1.429 . S
C1354 C397 1.683 . S
C1352 C226 1.597 . S
C1365 C443 1.397 . S
C1363 C273 1.310 . S
C1376 C354 1.596 . S
C1374 C299 1.548 . S
C1385 C36 1.151 . S
C1387 C805 1.177 . S
C1398 C749 1.847 . S
C1396 C39 1.794 . S
C1409 C826 0.982 . S
C1407 C8 0.976 . S
C1418 C18 1.680 . S
C1420 C694 1.662 . S
C1429 C47 1.626 . S
C1431 C592 1.656 1_556 S
C1442 C622 0.879 . S
C1440 C0 0.864 . S
C1453 C681 1.659 . S
C1451 C23 1.665 . S
C1464 C762 1.142 . S
C1462 C31 1.152 . S
C1475 C817 1.402 . S
C1473 C153 1.446 . S
C1484 C112 1.186 1_556 S
C1486 C733 1.241 . S
C1495 C127 1.706 . S
C1497 C822 1.678 1_655 S
C1508 C690 1.070 . S
C1506 C138 0.993 . S
C1519 C588 1.325 . S
C1517 C151 1.285 . S
C1528 C114 1.625 . S
C1530 C618 1.607 . S
C1541 C665 1.315 . S
C1539 C125 1.272 . S
C1550 C140 0.848 . S
C1552 C758 0.842 . S
C1563 C801 0.899 . S
C1561 C135 0.876 . S
C1574 C448 1.658 . S
C1572 C65 1.598 . S
C1585 C490 1.516 . S
C1583 C83 1.517 . S
C1594 C91 0.620 . S
C1596 C533 0.528 . S
C1607 C754 1.375 . S
C1605 C148 1.431 . S
C1616 C109 1.615 . S
C1618 C830 1.643 . S
C1629 C414 1.342 . S
C1627 C78 1.314 . S
C1640 C363 1.540 . S
C1638 C52 1.520 . S
C1649 C190 1.274 . S
C1651 C796 1.220 . S
C1662 C346 1.910 . S
C1660 C195 1.902 . S
C1673 C835 0.995 . S
C1671 C166 1.002 . S
C1682 C174 1.747 . S
C1684 C431 1.746 . S
C1693 C205 1.730 . S
C1695 C601 1.719 . S
C1704 C156 0.888 . S
C1706 C495 0.902 . S
C1715 C177 1.734 . S
C1717 C652 1.742 . S
C1726 C187 1.130 . S
C1728 C567 1.177 . S
C1739 C788 1.465 . S
C1737 C307 1.520 . S
C1748 C270 1.281 . S
C1750 C350 1.267 . S
C1761 C851 1.770 . S
C1759 C281 1.817 . S
C1770 C296 1.113 . S
C1772 C427 1.072 . S
C1781 C309 1.409 . S
C1783 C597 1.368 . S
C1794 C511 1.680 . S
C1792 C268 1.730 . S
C1803 C283 1.368 . S
C1805 C656 1.342 . S
C1816 C563 0.877 . S
C1814 C294 0.884 . S
C1827 C792 0.916 . S
C1825 C291 0.870 . S
C1838 C477 1.710 . S
C1836 C221 1.617 . S
C1847 C239 1.495 . S
C1849 C635 1.557 . S
C1860 C524 0.552 . S
C1858 C247 0.576 . S
C1871 C579 1.420 . S
C1869 C304 1.427 . S
C1880 C265 1.597 . S
C1882 C839 1.687 . S
C1893 C715 1.397 . S
C1891 C234 1.306 . S
C1904 C728 1.597 . S
C1902 C208 1.543 . S
