# Generated by pormake.
# Topology ssa, (4,4)-cn, num edge types: 1
# Building blocks:
#     Node 0, Type 0, BuildingBlock: NAWXER_clean_sbu_0, # of connection points: 4
#     Node 1, Type 0, BuildingBlock: NAWXER_clean_sbu_0, # of connection points: 4
#     Node 2, Type 0, BuildingBlock: NAWXER_clean_sbu_0, # of connection points: 4
#     Node 3, Type 0, BuildingBlock: NAWXER_clean_sbu_0, # of connection points: 4
#     Node 4, Type 0, BuildingBlock: NAWXER_clean_sbu_0, # of connection points: 4
#     Node 5, Type 0, BuildingBlock: NAWXER_clean_sbu_0, # of connection points: 4
#     Node 6, Type 1, BuildingBlock: ESEHIV_clean_sbu_0, # of connection points: 4
#     Node 7, Type 1, BuildingBlock: ESEHIV_clean_sbu_0, # of connection points: 4
#     Node 8, Type 1, BuildingBlock: ESEHIV_clean_sbu_0, # of connection points: 4
#     Node 9, Type 1, BuildingBlock: ESEHIV_clean_sbu_0, # of connection points: 4
#     Node 10, Type 1, BuildingBlock: ESEHIV_clean_sbu_0, # of connection points: 4
#     Node 11, Type 1, BuildingBlock: ESEHIV_clean_sbu_0, # of connection points: 4
#     Edge 12, Type (0, 1), BuildingBlock: UVAHIK_clean_linker_0, # of connection points: 2
#     Edge 13, Type (0, 1), BuildingBlock: UVAHIK_clean_linker_0, # of connection points: 2
#     Edge 14, Type (0, 1), BuildingBlock: UVAHIK_clean_linker_0, # of connection points: 2
#     Edge 15, Type (0, 1), BuildingBlock: UVAHIK_clean_linker_0, # of connection points: 2
#     Edge 16, Type (0, 1), BuildingBlock: UVAHIK_clean_linker_0, # of connection points: 2
#     Edge 17, Type (0, 1), BuildingBlock: UVAHIK_clean_linker_0, # of connection points: 2
#     Edge 18, Type (0, 1), BuildingBlock: UVAHIK_clean_linker_0, # of connection points: 2
#     Edge 19, Type (0, 1), BuildingBlock: UVAHIK_clean_linker_0, # of connection points: 2
#     Edge 20, Type (0, 1), BuildingBlock: UVAHIK_clean_linker_0, # of connection points: 2
#     Edge 21, Type (0, 1), BuildingBlock: UVAHIK_clean_linker_0, # of connection points: 2
#     Edge 22, Type (0, 1), BuildingBlock: UVAHIK_clean_linker_0, # of connection points: 2
#     Edge 23, Type (0, 1), BuildingBlock: UVAHIK_clean_linker_0, # of connection points: 2
#     Edge 24, Type (0, 1), BuildingBlock: UVAHIK_clean_linker_0, # of connection points: 2
#     Edge 25, Type (0, 1), BuildingBlock: UVAHIK_clean_linker_0, # of connection points: 2
#     Edge 26, Type (0, 1), BuildingBlock: UVAHIK_clean_linker_0, # of connection points: 2
#     Edge 27, Type (0, 1), BuildingBlock: UVAHIK_clean_linker_0, # of connection points: 2
#     Edge 28, Type (0, 1), BuildingBlock: UVAHIK_clean_linker_0, # of connection points: 2
#     Edge 29, Type (0, 1), BuildingBlock: UVAHIK_clean_linker_0, # of connection points: 2
#     Edge 30, Type (0, 1), BuildingBlock: UVAHIK_clean_linker_0, # of connection points: 2
#     Edge 31, Type (0, 1), BuildingBlock: UVAHIK_clean_linker_0, # of connection points: 2
#     Edge 32, Type (0, 1), BuildingBlock: UVAHIK_clean_linker_0, # of connection points: 2
#     Edge 33, Type (0, 1), BuildingBlock: UVAHIK_clean_linker_0, # of connection points: 2
#     Edge 34, Type (0, 1), BuildingBlock: UVAHIK_clean_linker_0, # of connection points: 2
#     Edge 35, Type (0, 1), BuildingBlock: UVAHIK_clean_linker_0, # of connection points: 2
# Relax obj value: 0.027
# Max RMSD: 0.097
# Mean RMSD: 0.065
data_MOF--net-ssa--node1-NAWXER_clean_sbu_0--node2-ESEHIV_clean_sbu_0--edge1-UVAHIK_clean_linker_0
_symmetry_space_group_name_H-M    P1
_symmetry_Int_Tables_number       1
_symmetry_cell_setting            triclinic
loop_
_symmetry_equiv_pos_as_xyz
'x, y, z'
_cell_length_a     61.88349
_cell_length_b     61.904053
_cell_length_c     45.367438
_cell_angle_alpha  89.947452
_cell_angle_beta   89.988181
_cell_angle_gamma 120.02708
loop_
_atom_site_label
_atom_site_type_symbol
_atom_site_fract_x
_atom_site_fract_y
_atom_site_fract_z
_atom_type_partial_charge
C0 C 0.04838 0.56657 0.99829 0.0
C1 C 0.01451 0.48241 0.9588 0.0
O2 O 0.03057 0.54985 0.01391 0.0
Zn3 Zn 1.0059 0.5103 0.01361 0.0
O4 O 0.05492 0.56027 0.97473 0.0
Zn5 Zn 0.03144 0.5248 0.9775 0.0
O6 O 0.99606 0.52229 0.96966 0.0
O7 O 0.97295 0.50724 0.00955 0.0
O8 O 0.03163 0.5026 0.94759 0.0
O9 O 1.00397 0.48306 0.98287 0.0
O10 O 0.0158 0.50055 0.05003 0.0
O11 O 0.04511 0.51496 0.01591 0.0
C12 C 0.97541 0.51529 0.98323 0.0
C13 C 0.03772 0.50622 0.04193 0.0
C14 C 0.50488 0.03448 0.5531 0.0
C15 C 0.51735 0.97647 0.49029 0.0
O16 O 0.49972 0.01237 0.55946 0.0
Zn17 Zn 0.51048 1.00469 0.52239 0.0
O18 O 0.51395 0.04341 0.52761 0.0
Zn19 Zn 0.52507 0.03204 0.4883 0.0
O20 O 0.50332 0.03281 0.45834 0.0
O21 O 0.48349 1.0029 0.49117 0.0
O22 O 0.52406 0.99764 0.47821 0.0
O23 O 0.50851 0.97239 0.51634 0.0
O24 O 0.55001 0.03007 0.52401 0.0
O25 O 0.56038 0.05615 0.48652 0.0
C26 C 0.48315 0.01441 0.46779 0.0
C27 C 0.56669 0.04875 0.50939 0.0
C28 C 0.50618 0.47069 0.98754 0.0
C29 C 0.51346 0.53808 0.05252 0.0
O30 O 0.49871 0.48462 0.97564 0.0
Zn31 Zn 0.49485 0.51622 0.98701 0.0
O32 O 0.51377 0.47475 0.01411 0.0
Zn33 Zn 0.50988 0.50383 0.02124 0.0
O34 O 0.47025 0.48802 0.02224 0.0
O35 O 0.45916 0.50357 0.98522 0.0
O36 O 0.51972 0.52188 0.0587 0.0
O37 O 0.50436 0.53771 0.02701 0.0
O38 O 0.5168 0.5405 0.95819 0.0
O39 O 0.53667 0.53102 0.99167 0.0
C40 C 0.45325 0.48948 0.00774 0.0
C41 C 0.53711 0.54339 0.96877 0.0
C42 C 0.04959 0.55283 0.49715 0.0
C43 C 0.99181 0.48271 0.56098 0.0
O44 O 0.05408 0.54811 0.52302 0.0
Zn45 Zn 0.02133 0.51843 0.53056 0.0
O46 O 0.02788 0.53893 0.48603 0.0
Zn47 Zn 0.99314 0.50663 0.49725 0.0
O48 O 0.96982 0.51892 0.49786 0.0
O49 O 0.9966 0.53302 0.53474 0.0
O50 O 0.98258 0.48362 0.53601 0.0
O51 O 0.01407 0.49937 0.56732 0.0
O52 O 0.02085 0.49257 0.49873 0.0
O53 O 0.9905 0.48348 0.46688 0.0
C54 C 0.97777 0.53176 0.52132 0.0
C55 C 1.00852 0.48079 0.47574 0.0
C56 C 0.56137 0.01592 0.06901 0.0
C57 C 0.51101 0.04937 0.02836 0.0
O58 O 0.55938 0.03402 0.07907 0.0
Zn59 Zn 0.5371 0.03373 0.04888 0.0
O60 O 0.54972 1.0048 0.04542 0.0
Zn61 Zn 0.52438 0.00642 0.01451 0.0
O62 O 0.54288 0.0149 0.97735 0.0
O63 O 0.5598 0.04533 0.00989 0.0
O64 O 0.50915 0.03073 0.0139 0.0
O65 O 0.52556 0.0577 0.05045 0.0
O66 O 0.50385 0.99908 0.05868 0.0
O67 O 0.49445 0.97378 0.02066 0.0
C68 C 0.56 0.03679 0.98421 0.0
C69 C 0.48959 0.97783 0.04668 0.0
C70 C 0.5326 0.50999 0.55858 0.0
C71 C 0.46192 0.50162 0.49874 0.0
O72 O 0.51749 0.51742 0.56586 0.0
Zn73 Zn 0.49679 0.50592 0.53031 0.0
O74 O 0.52979 0.49905 0.53369 0.0
Zn75 Zn 0.50518 0.48733 0.49616 0.0
O76 O 0.52768 0.50627 0.46434 0.0
O77 O 0.52283 0.52967 0.49753 0.0
O78 O 0.47417 0.49232 0.48671 0.0
O79 O 0.46815 0.51104 0.52439 0.0
O80 O 0.48027 0.46651 0.53575 0.0
O81 O 0.49071 0.45134 0.49788 0.0
C82 C 0.53294 0.5277 0.47377 0.0
C83 C 0.47947 0.44788 0.5224 0.0
Cu84 Cu 0.22955 0.45526 0.26851 0.0
N85 N 0.23661 0.4354 0.24395 0.0
N86 N 0.25416 0.42524 0.20753 0.0
C87 C 0.25265 0.44383 0.22114 0.0
C88 C 0.23839 0.40428 0.22242 0.0
C89 C 0.22752 0.4106 0.24483 0.0
O90 O 0.26004 0.47578 0.29129 0.0
C91 C 0.19951 0.45829 0.2263 0.0
O92 O 0.19197 0.43432 0.22685 0.0
H93 H 0.26338 0.46334 0.21508 0.0
H94 H 0.21394 0.39799 0.26058 0.0
N95 N 0.20349 0.43556 0.29422 0.0
N96 N 0.16878 0.42327 0.32065 0.0
C97 C 0.18406 0.43895 0.29969 0.0
C98 C 0.20054 0.41704 0.31232 0.0
C99 C 0.17902 0.40932 0.3286 0.0
C100 C 0.26021 0.48098 0.31853 0.0
O101 O 0.23914 0.47581 0.33139 0.0
H102 H 0.18144 0.45299 0.28869 0.0
H103 H 0.21348 0.41018 0.31416 0.0
O104 O 0.21736 0.47273 0.24338 0.0
H105 H 0.23483 0.38569 0.21738 0.0
H106 H 0.17204 0.39524 0.34571 0.0
Cu107 Cu 0.79986 0.2313 0.76102 0.0
N108 N 0.79318 0.20715 0.73241 0.0
N109 N 0.77623 0.18364 0.69238 0.0
C110 C 0.78095 0.20455 0.70698 0.0
C111 C 0.78645 0.17298 0.70905 0.0
C112 C 0.79686 0.18752 0.73377 0.0
O113 O 0.77078 0.21905 0.7872 0.0
C114 C 0.81905 0.28394 0.75173 0.0
O115 O 0.81918 0.28581 0.78059 0.0
H116 H 0.77474 0.21728 0.70001 0.0
H117 H 0.80551 0.18348 0.75204 0.0
N118 N 0.82676 0.2356 0.78404 0.0
N119 N 0.86208 0.25477 0.81023 0.0
C120 C 0.84861 0.25684 0.78812 0.0
C121 C 0.8266 0.21929 0.80375 0.0
C122 C 0.84834 0.23103 0.81994 0.0
C123 C 0.74841 0.20491 0.77849 0.0
O124 O 0.74396 0.20109 0.75013 0.0
H125 H 0.8538 0.274 0.77653 0.0
H126 H 0.81111 0.20062 0.80723 0.0
O127 O 0.80957 0.26241 0.74001 0.0
H128 H 0.7852 0.15522 0.70463 0.0
H129 H 0.85305 0.22303 0.83834 0.0
Cu130 Cu 0.57878 0.78543 0.27728 0.0
N131 N 0.59847 0.812 0.25209 0.0
N132 N 0.61073 0.8461 0.22452 0.0
C133 C 0.59315 0.82952 0.24302 0.0
C134 C 0.62778 0.83871 0.22186 0.0
C135 C 0.62023 0.81773 0.23903 0.0
O136 O 0.5604 0.79631 0.30285 0.0
C137 C 0.57134 0.74645 0.24127 0.0
O138 O 0.59573 0.75871 0.24404 0.0
H139 H 0.57644 0.8298 0.24944 0.0
H140 H 0.62994 0.80741 0.24178 0.0
N141 N 0.59884 0.77806 0.30122 0.0
N142 N 0.61052 0.75461 0.32636 0.0
C143 C 0.59185 0.75519 0.31179 0.0
C144 C 0.6228 0.79256 0.30951 0.0
C145 C 0.63001 0.77813 0.32531 0.0
C146 C 0.57438 0.81513 0.31894 0.0
O147 O 0.59865 0.82476 0.31682 0.0
H148 H 0.57348 0.73917 0.30838 0.0
H149 H 0.63438 0.81206 0.30386 0.0
O150 O 0.55879 0.75529 0.25347 0.0
H151 H 0.64458 0.84792 0.20864 0.0
H152 H 0.64834 0.78423 0.33444 0.0
Cu153 Cu 0.77929 0.56488 0.76959 0.0
N154 N 0.79951 0.58195 0.73757 0.0
N155 N 0.82554 0.59103 0.69955 0.0
C156 C 0.8169 0.57801 0.72488 0.0
C157 C 0.81322 0.60372 0.69629 0.0
C158 C 0.79721 0.59813 0.71987 0.0
O159 O 0.79438 0.54826 0.79099 0.0
C160 C 0.74052 0.53509 0.72874 0.0
O161 O 0.75872 0.53704 0.71196 0.0
H162 H 0.82202 0.56477 0.73313 0.0
H163 H 0.78402 0.60452 0.72326 0.0
N164 N 0.77728 0.58773 0.79436 0.0
N165 N 0.75976 0.60505 0.82127 0.0
C166 C 0.75604 0.58753 0.8011 0.0
C167 C 0.79522 0.60609 0.81065 0.0
C168 C 0.78441 0.61678 0.82744 0.0
C169 C 0.79068 0.54304 0.81837 0.0
O170 O 0.77407 0.5465 0.83236 0.0
H171 H 0.73799 0.57397 0.79238 0.0
H172 H 0.81458 0.61083 0.81091 0.0
O173 O 0.74538 0.54338 0.75502 0.0
H174 H 0.81523 0.61571 0.67786 0.0
H175 H 0.79385 0.63168 0.84329 0.0
Cu176 Cu 0.23873 0.7869 0.26196 0.0
N177 N 0.21324 0.78003 0.23501 0.0
N178 N 0.1876 0.7627 0.1967 0.0
C179 C 0.20598 0.76314 0.21319 0.0
C180 C 0.18322 0.78012 0.20868 0.0
C181 C 0.19909 0.79079 0.23232 0.0
O182 O 0.22826 0.75715 0.28678 0.0
C183 C 0.27319 0.81607 0.22065 0.0
O184 O 0.25741 0.82443 0.2207 0.0
H185 H 0.21442 0.75175 0.20929 0.0
H186 H 0.20029 0.80541 0.24645 0.0
N187 N 0.24397 0.81312 0.28674 0.0
N188 N 0.26437 0.84792 0.31343 0.0
C189 C 0.26618 0.83344 0.29251 0.0
C190 C 0.22749 0.81478 0.3046 0.0
C191 C 0.24006 0.83624 0.32119 0.0
C192 C 0.20531 0.74531 0.2945 0.0
O193 O 0.19047 0.75329 0.28509 0.0
H194 H 0.28353 0.83692 0.28255 0.0
H195 H 0.20787 0.80101 0.30604 0.0
O196 O 0.26919 0.7984 0.23839 0.0
H197 H 0.16936 0.78465 0.20117 0.0
H198 H 0.23203 0.84255 0.33794 0.0
Cu199 Cu 0.45841 0.22478 0.77903 0.0
N200 N 0.43932 0.22801 0.74923 0.0
N201 N 0.42815 0.24396 0.7119 0.0
C202 C 0.441 0.24882 0.73745 0.0
C203 C 0.41773 0.21917 0.7077 0.0
C204 C 0.42471 0.20945 0.73064 0.0
O205 O 0.47589 0.25516 0.8028 0.0
C206 C 0.48162 0.19527 0.76643 0.0
O207 O 0.47389 0.18561 0.7927 0.0
H208 H 0.45276 0.26734 0.74617 0.0
H209 H 0.42079 0.19041 0.73262 0.0
N210 N 0.43712 0.20012 0.80552 0.0
N211 N 0.42536 0.17512 0.84502 0.0
C212 C 0.44393 0.19566 0.83198 0.0
C213 C 0.41311 0.18231 0.80203 0.0
C214 C 0.40583 0.16679 0.8263 0.0
C215 C 0.48986 0.27764 0.79447 0.0
O216 O 0.49617 0.28243 0.76657 0.0
H217 H 0.46278 0.20627 0.84039 0.0
H218 H 0.40189 0.1802 0.78283 0.0
O219 O 0.4791 0.21365 0.75833 0.0
H220 H 0.40682 0.20898 0.68871 0.0
H221 H 0.38781 0.1502 0.82938 0.0
C222 C 0.07952 0.51066 0.05245 0.0
C223 C 0.05519 0.5034 0.06206 0.0
C224 C 0.09628 0.50817 0.0708 0.0
C225 C 0.10932 0.49968 0.14861 0.0
H226 H 0.14958 0.47515 0.11216 0.0
C227 C 0.1867 0.48986 0.2117 0.0
C228 C 0.18615 0.46714 0.20691 0.0
C229 C 0.17197 0.49641 0.19437 0.0
C230 C 0.1385 0.48201 0.12275 0.0
H231 H 0.02965 0.48811 0.09899 0.0
H232 H 0.05895 0.48344 0.13106 0.0
H233 H 0.12064 0.48147 0.08223 0.0
H234 H 0.17012 0.43385 0.17972 0.0
H235 H 0.14492 0.44522 0.14984 0.0
H236 H 0.12694 0.49953 0.18938 0.0
C237 C 0.06506 0.49133 0.10927 0.0
C238 C 0.12201 0.48586 0.1055 0.0
C239 C 0.04819 0.49383 0.09081 0.0
C240 C 0.17106 0.4515 0.18409 0.0
C241 C 0.15664 0.45809 0.16676 0.0
C242 C 0.12597 0.4959 0.16593 0.0
C243 C 0.08928 0.49828 0.09937 0.0
C244 C 0.10705 0.4946 0.11815 0.0
C245 C 0.15671 0.48052 0.1717 0.0
C246 C 0.14055 0.48672 0.15324 0.0
H247 H 0.08575 0.51833 0.03059 0.0
H248 H 0.11486 0.51415 0.06255 0.0
H249 H 0.0983 0.50667 0.15905 0.0
H250 H 0.198 0.50223 0.22922 0.0
H251 H 0.17255 0.5139 0.19864 0.0
C252 C 0.599 0.05363 0.54594 0.0
C253 C 0.59267 0.06226 0.52054 0.0
C254 C 0.62266 0.06735 0.55846 0.0
C255 C 0.67486 0.13164 0.56381 0.0
H256 H 0.70544 0.09943 0.60625 0.0
C257 C 0.74083 0.17798 0.66159 0.0
C258 C 0.76022 0.17292 0.6671 0.0
C259 C 0.724 0.1661 0.63862 0.0
C260 C 0.69749 0.10885 0.59412 0.0
H261 H 0.60668 0.09163 0.48762 0.0
H262 H 0.64828 0.11555 0.5094 0.0
H263 H 0.66997 0.0748 0.57416 0.0
H264 H 0.7777 0.15213 0.65195 0.0
H265 H 0.74835 0.13143 0.61154 0.0
H266 H 0.70236 0.16569 0.58382 0.0
C267 C 0.63471 0.09828 0.51984 0.0
C268 C 0.67691 0.09465 0.57598 0.0
C269 C 0.61093 0.08451 0.50727 0.0
C270 C 0.76279 0.15619 0.64849 0.0
C271 C 0.74596 0.14434 0.62537 0.0
C272 C 0.69553 0.14588 0.58183 0.0
C273 C 0.64071 0.09005 0.54588 0.0
C274 C 0.66487 0.10572 0.56132 0.0
C275 C 0.72613 0.14888 0.62043 0.0
C276 C 0.70662 0.13453 0.59792 0.0
H277 H 0.58544 0.03657 0.55677 0.0
H278 H 0.62641 0.06059 0.57875 0.0
H279 H 0.66602 0.1408 0.55298 0.0
H280 H 0.73796 0.19037 0.67576 0.0
H281 H 0.70869 0.16969 0.63593 0.0
C282 C 0.50387 0.57088 0.06954 0.0
C283 C 0.51618 0.55726 0.07429 0.0
C284 C 0.50653 0.58936 0.08933 0.0
C285 C 0.52867 0.61407 0.16532 0.0
H286 H 0.53154 0.67365 0.13353 0.0
C287 C 0.57125 0.70754 0.22771 0.0
C288 C 0.55954 0.72197 0.2261 0.0
C289 C 0.56242 0.68563 0.21137 0.0
C290 C 0.53037 0.65697 0.14283 0.0
H291 H 0.54089 0.55241 0.10387 0.0
H292 H 0.54625 0.58524 0.13802 0.0
H293 H 0.52419 0.63959 0.10059 0.0
H294 H 0.52891 0.7244 0.20663 0.0
H295 H 0.51358 0.68601 0.17723 0.0
H296 H 0.53593 0.63212 0.20743 0.0
C297 C 0.534 0.58124 0.11928 0.0
C298 C 0.52614 0.63734 0.12393 0.0
C299 C 0.53108 0.56248 0.09958 0.0
C300 C 0.53823 0.71358 0.20836 0.0
C301 C 0.5296 0.69175 0.19143 0.0
C302 C 0.53317 0.63383 0.18415 0.0
C303 C 0.52185 0.59507 0.11437 0.0
C304 C 0.52546 0.61566 0.13482 0.0
C305 C 0.54181 0.67768 0.19256 0.0
C306 C 0.53433 0.65563 0.1731 0.0
H307 H 0.49198 0.56719 0.05048 0.0
H308 H 0.49638 0.59907 0.085 0.0
H309 H 0.52775 0.59756 0.17475 0.0
H310 H 0.58764 0.71343 0.24134 0.0
H311 H 0.57239 0.67542 0.2126 0.0
C312 C 0.97101 0.5537 0.56334 0.0
C313 C 0.96438 0.54349 0.53489 0.0
C314 C 0.9571 0.56254 0.57783 0.0
C315 C 0.89429 0.55598 0.57797 0.0
H316 H 0.92492 0.60881 0.63607 0.0
C317 C 0.8386 0.58983 0.6484 0.0
C318 C 0.8424 0.58953 0.67891 0.0
C319 C 0.85417 0.58695 0.62838 0.0
C320 C 0.91615 0.59405 0.61988 0.0
H321 H 0.9385 0.53557 0.49883 0.0
H322 H 0.91456 0.55178 0.52383 0.0
H323 H 0.95124 0.60001 0.60407 0.0
H324 H 0.86577 0.58671 0.7124 0.0
H325 H 0.89336 0.58218 0.67739 0.0
H326 H 0.85918 0.55032 0.59384 0.0
C327 C 0.9302 0.55235 0.53524 0.0
C328 C 0.93118 0.58889 0.60161 0.0
C329 C 0.94402 0.54322 0.5208 0.0
C330 C 0.8624 0.58689 0.68901 0.0
C331 C 0.87824 0.58447 0.669 0.0
C332 C 0.87928 0.56144 0.59595 0.0
C333 C 0.93632 0.56174 0.56418 0.0
C334 C 0.92045 0.56934 0.58092 0.0
C335 C 0.8741 0.5842 0.63851 0.0
C336 C 0.89006 0.58013 0.61752 0.0
H337 H 0.98649 0.55411 0.57498 0.0
H338 H 0.96219 0.56914 0.60024 0.0
H339 H 0.88528 0.54059 0.56264 0.0
H340 H 0.82317 0.59159 0.64005 0.0
H341 H 0.85063 0.58685 0.60498 0.0
C342 C 0.46298 0.96436 0.092 0.0
C343 C 0.46788 0.95856 0.06369 0.0
C344 C 0.44258 0.9469 0.10838 0.0
C345 C 0.39654 0.87991 0.11717 0.0
H346 H 0.35795 0.90553 0.15548 0.0
C347 C 0.31607 0.82505 0.20382 0.0
C348 C 0.29514 0.8281 0.20061 0.0
C349 C 0.33735 0.83878 0.18603 0.0
C350 C 0.36843 0.89799 0.14487 0.0
H351 H 0.45525 0.92936 0.03076 0.0
H352 H 0.41925 0.89867 0.05956 0.0
H353 H 0.39425 0.9334 0.12627 0.0
H354 H 0.27967 0.84679 0.17492 0.0
H355 H 0.31621 0.87024 0.14435 0.0
H356 H 0.37024 0.84428 0.13588 0.0
C357 C 0.43146 0.91687 0.06899 0.0
C358 C 0.38941 0.91405 0.12829 0.0
C359 C 0.45197 0.93451 0.05242 0.0
C360 C 0.29555 0.84422 0.17846 0.0
C361 C 0.31659 0.85779 0.16088 0.0
C362 C 0.37549 0.86375 0.13407 0.0
C363 C 0.42637 0.92302 0.09704 0.0
C364 C 0.40378 0.9053 0.1142 0.0
C365 C 0.338 0.85578 0.16485 0.0
C366 C 0.36108 0.87262 0.14791 0.0
H367 H 0.47486 0.98257 0.10162 0.0
H368 H 0.43949 0.95215 0.13007 0.0
H369 H 0.40732 0.87262 0.10676 0.0
H370 H 0.31632 0.81274 0.22062 0.0
H371 H 0.35359 0.83682 0.1896 0.0
C372 C 0.46788 0.40267 0.52482 0.0
C373 C 0.4678 0.42333 0.53749 0.0
C374 C 0.45963 0.38062 0.54104 0.0
C375 C 0.42626 0.34842 0.61063 0.0
H376 H 0.46628 0.31649 0.60418 0.0
C377 C 0.43065 0.28426 0.70066 0.0
C378 C 0.42903 0.26194 0.69101 0.0
C379 C 0.43253 0.3021 0.68026 0.0
C380 C 0.45477 0.32506 0.60601 0.0
H381 H 0.45806 0.43663 0.57678 0.0
H382 H 0.44449 0.39887 0.60501 0.0
H383 H 0.47396 0.35041 0.5707 0.0
H384 H 0.42835 0.24094 0.65243 0.0
H385 H 0.43187 0.27218 0.6169 0.0
H386 H 0.40787 0.32364 0.64688 0.0
C387 C 0.45037 0.39926 0.58244 0.0
C388 C 0.45905 0.34442 0.58669 0.0
C389 C 0.45837 0.4211 0.56622 0.0
C390 C 0.42923 0.25779 0.66055 0.0
C391 C 0.43147 0.27576 0.64021 0.0
C392 C 0.42224 0.32929 0.63019 0.0
C393 C 0.45128 0.37884 0.57032 0.0
C394 C 0.44506 0.3566 0.58897 0.0
C395 C 0.43323 0.29812 0.64984 0.0
C396 C 0.43663 0.3176 0.62826 0.0
H397 H 0.47494 0.40373 0.5027 0.0
H398 H 0.46019 0.36512 0.53076 0.0
H399 H 0.41474 0.35694 0.6127 0.0
H400 H 0.43047 0.28787 0.72397 0.0
H401 H 0.43405 0.31928 0.68829 0.0
C402 C 0.52968 0.96266 0.44458 0.0
C403 C 0.51998 0.95727 0.4734 0.0
C404 C 0.53288 0.94527 0.4284 0.0
C405 C 0.51449 0.87853 0.4224 0.0
H406 H 0.57712 0.90547 0.37996 0.0
C407 C 0.53985 0.82252 0.33746 0.0
C408 C 0.56456 0.82725 0.33899 0.0
C409 C 0.53219 0.83631 0.35492 0.0
C410 C 0.55955 0.89755 0.39175 0.0
H411 H 0.50542 0.92886 0.50745 0.0
H412 H 0.51124 0.89838 0.47908 0.0
H413 H 0.56814 0.93321 0.40849 0.0
H414 H 0.60005 0.84912 0.36139 0.0
H415 H 0.58677 0.87264 0.39147 0.0
H416 H 0.50623 0.84267 0.40564 0.0
C417 C 0.51622 0.91616 0.46905 0.0
C418 C 0.55429 0.91354 0.40792 0.0
C419 C 0.51305 0.93369 0.48538 0.0
C420 C 0.58098 0.84518 0.35919 0.0
C421 C 0.5734 0.85881 0.37646 0.0
C422 C 0.51973 0.86244 0.40595 0.0
C423 C 0.52651 0.92191 0.44047 0.0
C424 C 0.53173 0.90432 0.42352 0.0
C425 C 0.54914 0.85506 0.37411 0.0
C426 C 0.54247 0.87178 0.39064 0.0
H427 H 0.53503 0.98047 0.4344 0.0
H428 H 0.54042 0.95021 0.40629 0.0
H429 H 0.49685 0.87084 0.43398 0.0
H430 H 0.52672 0.80882 0.32217 0.0
H431 H 0.51334 0.83297 0.3526 0.0
C432 C 0.56295 0.56239 0.92341 0.0
C433 C 0.5613 0.55948 0.95416 0.0
C434 C 0.58629 0.57382 0.90946 0.0
C435 C 0.64983 0.58483 0.92352 0.0
H436 H 0.6654 0.62048 0.84919 0.0
C437 C 0.74298 0.61538 0.86514 0.0
C438 C 0.74062 0.6081 0.83546 0.0
C439 C 0.72298 0.61504 0.87994 0.0
C440 C 0.66129 0.61058 0.86998 0.0
H441 H 0.58259 0.56812 0.99465 0.0
H442 H 0.62316 0.58893 0.9706 0.0
H443 H 0.62661 0.61012 0.87487 0.0
H444 H 0.71615 0.59657 0.79745 0.0
H445 H 0.6812 0.59574 0.82329 0.0
H446 H 0.68417 0.58488 0.91849 0.0
C447 C 0.60658 0.58156 0.95702 0.0
C448 C 0.63905 0.60457 0.88464 0.0
C449 C 0.58333 0.5698 0.97084 0.0
C450 C 0.71838 0.6019 0.82044 0.0
C451 C 0.69846 0.6017 0.83517 0.0
C452 C 0.67205 0.59099 0.90902 0.0
C453 C 0.60837 0.58282 0.92609 0.0
C454 C 0.63288 0.59131 0.91143 0.0
C455 C 0.70029 0.60759 0.86529 0.0
C456 C 0.6779 0.60361 0.88189 0.0
H457 H 0.54622 0.55449 0.91003 0.0
H458 H 0.5869 0.57431 0.88561 0.0
H459 H 0.64554 0.5741 0.94369 0.0
H460 H 0.75981 0.62017 0.87735 0.0
H461 H 0.72503 0.61995 0.90309 0.0
C462 C 0.09418 0.58736 0.48807 0.0
C463 C 0.06917 0.57324 0.47878 0.0
C464 C 0.11249 0.60532 0.46928 0.0
C465 C 0.12401 0.62175 0.38972 0.0
H466 H 0.17301 0.68804 0.41617 0.0
C467 C 0.16928 0.70525 0.31143 0.0
C468 C 0.19468 0.72319 0.31419 0.0
C469 C 0.15761 0.68579 0.33171 0.0
C470 C 0.15975 0.66945 0.40853 0.0
H471 H 0.04386 0.56766 0.44268 0.0
H472 H 0.07533 0.59872 0.41055 0.0
H473 H 0.14543 0.65671 0.45217 0.0
H474 H 0.22794 0.73456 0.34032 0.0
H475 H 0.20726 0.70038 0.37645 0.0
H476 H 0.13763 0.63456 0.34612 0.0
C477 C 0.08106 0.5957 0.43199 0.0
C478 C 0.14391 0.65151 0.42916 0.0
C479 C 0.0629 0.57794 0.45063 0.0
C480 C 0.20839 0.72085 0.33747 0.0
C481 C 0.19651 0.70146 0.35826 0.0
C482 C 0.13971 0.6396 0.36922 0.0
C483 C 0.10618 0.6094 0.44078 0.0
C484 C 0.12531 0.62765 0.41986 0.0
C485 C 0.17089 0.68381 0.35568 0.0
C486 C 0.15729 0.6639 0.37821 0.0
H487 H 0.0997 0.58423 0.50958 0.0
H488 H 0.13166 0.61555 0.47678 0.0
H489 H 0.1104 0.60339 0.38181 0.0
H490 H 0.15818 0.70653 0.29377 0.0
H491 H 0.13783 0.67277 0.32918 0.0
C492 C 0.4754 0.04762 1.00088 0.0
C493 C 0.49698 0.06142 0.01792 0.0
C494 C 0.46377 0.05929 0.98726 0.0
C495 C 0.46167 0.11831 0.9824 0.0
H496 H 0.44269 0.09643 0.90169 0.0
C497 C 0.44633 0.17557 0.89168 0.0
C498 C 0.42781 0.16239 0.87036 0.0
C499 C 0.45134 0.16285 0.91369 0.0
C500 C 0.44744 0.10251 0.92433 0.0
H501 H 0.5226 0.09806 0.03539 0.0
H502 H 0.50266 0.11879 0.01079 0.0
H503 H 0.45794 0.07515 0.93284 0.0
H504 H 0.399 0.12545 0.85677 0.0
H505 H 0.40743 0.1034 0.89535 0.0
H506 H 0.45181 0.14632 0.97318 0.0
C507 C 0.49448 0.0988 0.00835 0.0
C508 C 0.4562 0.09027 0.94228 0.0
C509 C 0.50596 0.08697 0.02239 0.0
C510 C 0.41335 0.13628 0.87275 0.0
C511 C 0.41837 0.12358 0.89472 0.0
C512 C 0.45297 0.1307 0.96429 0.0
C513 C 0.47367 0.08519 0.9899 0.0
C514 C 0.46346 0.09798 0.97155 0.0
C515 C 0.43794 0.13666 0.91485 0.0
C516 C 0.4458 0.12293 0.93502 0.0
H517 H 0.46781 0.02779 0.99743 0.0
H518 H 0.44736 0.04808 0.97395 0.0
H519 H 0.46692 0.12462 1.00489 0.0
H520 H 0.45751 0.19571 0.89081 0.0
H521 H 0.46656 0.17348 0.92884 0.0
C522 C 0.42528 0.50906 0.49482 0.0
C523 C 0.44146 0.502 0.48181 0.0
C524 C 0.40631 0.50945 0.47814 0.0
C525 C 0.38842 0.51312 0.40097 0.0
H526 H 0.32094 0.48277 0.43134 0.0
C527 C 0.3038 0.48828 0.32519 0.0
C528 C 0.28304 0.48896 0.33672 0.0
C529 C 0.32392 0.49264 0.34337 0.0
C530 C 0.33974 0.49175 0.42259 0.0
H531 H 0.45032 0.48998 0.44085 0.0
H532 H 0.41765 0.49081 0.4121 0.0
H533 H 0.35422 0.4853 0.46258 0.0
H534 H 0.26782 0.4959 0.3763 0.0
H535 H 0.3031 0.5042 0.40771 0.0
H536 H 0.37414 0.51966 0.36106 0.0
C537 C 0.41958 0.49614 0.4351 0.0
C538 C 0.35884 0.49314 0.44058 0.0
C539 C 0.43825 0.49548 0.45175 0.0
C540 C 0.28341 0.4951 0.36664 0.0
C541 C 0.3036 0.49963 0.38478 0.0
C542 C 0.36939 0.51192 0.38308 0.0
C543 C 0.40336 0.50314 0.44799 0.0
C544 C 0.38336 0.50347 0.42983 0.0
C545 C 0.32397 0.498 0.37358 0.0
C546 C 0.34465 0.50087 0.39342 0.0
H547 H 0.42721 0.51421 0.51788 0.0
H548 H 0.39419 0.51503 0.48873 0.0
H549 H 0.40717 0.52159 0.39213 0.0
H550 H 0.30413 0.48344 0.30233 0.0
H551 H 0.339 0.49088 0.33387 0.0
C552 C 1.00799 0.45688 0.91319 0.0
C553 C 1.0055 0.45819 0.94382 0.0
C554 C 0.99633 0.43374 0.89882 0.0
C555 C 0.94319 0.36991 0.91005 0.0
H556 H 0.96841 0.35439 0.83975 0.0
C557 C 0.88742 0.27453 0.85477 0.0
C558 C 0.88349 0.27515 0.82432 0.0
C559 C 0.90569 0.29571 0.8693 0.0
C560 C 0.96115 0.35852 0.85935 0.0
H561 H 0.99052 0.43635 0.98368 0.0
H562 H 0.97106 0.39617 0.95894 0.0
H563 H 0.99451 0.3938 0.8656 0.0
H564 H 0.89712 0.29802 0.78497 0.0
H565 H 0.92883 0.33513 0.81045 0.0
H566 H 0.90985 0.33491 0.90379 0.0
C567 C 0.98115 0.4129 0.94574 0.0
C568 C 0.97605 0.3811 0.87411 0.0
C569 C 0.99245 0.43595 0.95998 0.0
C570 C 0.89938 0.29703 0.8085 0.0
C571 C 0.91772 0.31822 0.82305 0.0
C572 C 0.92846 0.34738 0.89548 0.0
C573 C 0.98222 0.4115 0.91488 0.0
C574 C 0.96718 0.38712 0.8996 0.0
C575 C 0.92054 0.31801 0.85376 0.0
C576 C 0.93717 0.34144 0.8699 0.0
H577 H 0.0179 0.47375 0.90017 0.0
H578 H 0.99745 0.43342 0.87502 0.0
H579 H 0.9354 0.3741 0.9291 0.0
H580 H 0.87555 0.25813 0.86776 0.0
H581 H 0.90768 0.29487 0.89293 0.0
C582 C 0.95711 0.5224 0.93743 0.0
C583 C 0.95471 0.51623 0.96759 0.0
C584 C 0.93786 0.5231 0.92214 0.0
C585 C 0.88251 0.53009 0.93217 0.0
H586 H 0.86684 0.50378 0.85265 0.0
C587 C 0.80254 0.52981 0.86526 0.0
C588 C 0.80688 0.5359 0.83513 0.0
C589 C 0.81899 0.52524 0.88178 0.0
C590 C 0.87111 0.51148 0.87469 0.0
H591 H 0.92995 0.50604 1.00527 0.0
H592 H 0.89624 0.50742 0.9785 0.0
H593 H 0.89831 0.50014 0.881 0.0
H594 H 0.83185 0.54149 0.7987 0.0
H595 H 0.86065 0.53392 0.82746 0.0
H596 H 0.85571 0.54191 0.9257 0.0
C597 C 0.91319 0.51177 0.96676 0.0
C598 C 0.88916 0.50933 0.89102 0.0
C599 C 0.93247 0.51088 0.98209 0.0
C600 C 0.8278 0.53672 0.82179 0.0
C601 C 0.84432 0.53226 0.83834 0.0
C602 C 0.86453 0.53237 0.91578 0.0
C603 C 0.91561 0.51778 0.93652 0.0
C604 C 0.8953 0.51882 0.91987 0.0
C605 C 0.84033 0.52674 0.86868 0.0
C606 C 0.8587 0.52329 0.88668 0.0
H607 H 0.97393 0.52665 0.92545 0.0
H608 H 0.94058 0.52817 0.89902 0.0
H609 H 0.88694 0.53787 0.95418 0.0
H610 H 0.78658 0.5289 0.87628 0.0
H611 H 0.81497 0.52059 0.90489 0.0
C612 C 0.46009 0.00984 0.42064 0.0
C613 C 0.45967 1.00466 0.45087 0.0
C614 C 0.43824 0.99756 0.40384 0.0
C615 C 0.36943 0.96026 0.40794 0.0
H616 H 0.3754 0.92551 0.34017 0.0
C617 C 0.28452 0.87462 0.3568 0.0
C618 C 0.28472 0.86982 0.32659 0.0
C619 C 0.30528 0.8946 0.37008 0.0
C620 C 0.37334 0.93545 0.35858 0.0
H621 H 0.43582 0.9838 0.48756 0.0
H622 H 0.39772 0.96272 0.45837 0.0
H623 H 0.4127 0.95526 0.36658 0.0
H624 H 0.30614 0.88295 0.28626 0.0
H625 H 0.34212 0.9183 0.30912 0.0
H626 H 0.33005 0.94039 0.40011 0.0
C627 C 0.4149 0.97613 0.4476 0.0
C628 C 0.3948 0.95251 0.37376 0.0
C629 C 0.43676 0.9881 0.46428 0.0
C630 C 0.30568 0.88601 0.30969 0.0
C631 C 0.32631 0.9062 0.32286 0.0
C632 C 0.34795 0.94341 0.39253 0.0
C633 C 0.41553 0.98021 0.41708 0.0
C634 C 0.39303 0.96469 0.39895 0.0
C635 C 0.32662 0.91047 0.35337 0.0
C636 C 0.34956 0.93036 0.36801 0.0
H637 H 0.47747 0.02247 0.40967 0.0
H638 H 0.43919 1.00116 0.38037 0.0
H639 H 0.36756 0.96959 0.42715 0.0
H640 H 0.26873 0.86228 0.37042 0.0
H641 H 0.3049 0.89697 0.39368 0.0
C642 C 0.50821 0.43102 0.98277 0.0
C643 C 0.50664 0.45078 0.96961 0.0
C644 C 0.50836 0.41234 0.96532 0.0
C645 C 0.523 0.40009 0.89051 0.0
H646 H 0.47666 0.33046 0.90736 0.0
C647 C 0.50327 0.32244 0.80566 0.0
C648 C 0.49618 0.2983 0.81571 0.0
C649 C 0.50656 0.34119 0.82551 0.0
C650 C 0.49013 0.34975 0.90252 0.0
H651 H 0.50446 0.46655 0.92773 0.0
H652 H 0.50521 0.4344 0.89755 0.0
H653 H 0.47898 0.36259 0.9404 0.0
H654 H 0.48805 0.27531 0.85477 0.0
H655 H 0.49481 0.30813 0.88942 0.0
H656 H 0.53456 0.38751 0.853 0.0
C657 C 0.50617 0.43322 0.9213 0.0
C658 C 0.49134 0.36819 0.92151 0.0
C659 C 0.50557 0.45157 0.93866 0.0
C660 C 0.49336 0.29365 0.84622 0.0
C661 C 0.497 0.3125 0.86612 0.0
C662 C 0.52208 0.38166 0.87177 0.0
C663 C 0.50747 0.41332 0.93435 0.0
C664 C 0.50752 0.3936 0.91549 0.0
C665 C 0.50321 0.33648 0.85609 0.0
C666 C 0.50535 0.35617 0.87718 0.0
H667 H 0.50905 0.42985 1.00652 0.0
H668 H 0.50946 0.39727 0.97602 0.0
H669 H 0.5359 0.4195 0.88547 0.0
H670 H 0.50537 0.32663 0.7823 0.0
H671 H 0.51092 0.35917 0.81666 0.0
C672 C 0.03503 0.46113 0.47092 0.0
C673 C 0.01665 0.46558 0.45901 0.0
C674 C 0.04525 0.44958 0.45417 0.0
C675 C 0.06003 0.41826 0.41786 0.0
H676 H 0.08005 0.44603 0.33939 0.0
C677 C 0.12813 0.40146 0.34679 0.0
C678 C 0.14726 0.42304 0.33326 0.0
C679 C 0.10755 0.40162 0.35945 0.0
C680 C 0.07455 0.43803 0.36123 0.0
H681 H 0.99355 0.46007 0.42066 0.0
H682 H 0.0114 0.43966 0.39128 0.0
H683 H 0.05152 0.45432 0.36755 0.0
H684 H 0.15981 0.46181 0.32294 0.0
H685 H 0.12431 0.46208 0.34489 0.0
H686 H 0.08435 0.40332 0.41221 0.0
C687 C 0.01808 0.44545 0.41356 0.0
C688 C 0.0579 0.44251 0.37724 0.0
C689 C 1.00777 0.45701 0.43042 0.0
C690 C 0.14524 0.44467 0.33254 0.0
C691 C 0.12478 0.44482 0.34513 0.0
C692 C 0.07676 0.41386 0.40187 0.0
C693 C 0.03736 0.44213 0.42504 0.0
C694 C 0.05111 0.43339 0.40614 0.0
C695 C 0.1057 0.42335 0.35882 0.0
C696 C 0.08487 0.42443 0.37376 0.0
H697 H 0.04222 0.46735 0.49294 0.0
H698 H 0.06027 0.44767 0.46365 0.0
H699 H 0.05483 0.41061 0.43988 0.0
H700 H 0.12897 0.38443 0.34746 0.0
H701 H 0.09309 0.38472 0.36969 0.0
C702 C 0.57709 0.0478 0.93241 0.0
C703 C 0.57973 0.05304 0.96279 0.0
C704 C 0.59511 0.0643 0.91235 0.0
C705 C 0.66098 0.11478 0.90697 0.0
H706 H 0.63944 0.13418 0.83657 0.0
C707 C 0.73226 0.19314 0.83054 0.0
C708 C 0.72812 0.18993 0.79998 0.0
C709 C 0.7138 0.1772 0.85052 0.0
C710 C 0.64588 0.12877 0.85588 0.0
H711 H 0.60375 0.07948 0.99585 0.0
H712 H 0.63515 0.10785 0.96106 0.0
H713 H 0.60841 0.10377 0.8703 0.0
H714 H 0.70096 0.1676 0.7666 0.0
H715 H 0.66925 0.13967 0.80111 0.0
H716 H 0.69839 0.13928 0.89246 0.0
C717 C 0.61917 0.09108 0.95268 0.0
C718 C 0.62801 0.1113 0.87526 0.0
C719 C 0.60107 0.07482 0.97263 0.0
C720 C 0.70482 0.17079 0.78996 0.0
C721 C 0.68649 0.15475 0.80987 0.0
C722 C 0.67885 0.13204 0.88746 0.0
C723 C 0.61634 0.08619 0.92226 0.0
C724 C 0.63534 0.10415 0.9011 0.0
C725 C 0.69077 0.15748 0.84048 0.0
C726 C 0.6716 0.13938 0.86162 0.0
H727 H 0.56086 0.03125 0.92407 0.0
H728 H 0.59248 0.05988 0.88907 0.0
H729 H 0.66727 0.10947 0.92651 0.0
H730 H 0.74993 0.20772 0.83907 0.0
H731 H 0.71769 0.18031 0.87388 0.0
C732 C 0.56479 0.57274 0.47264 0.0
C733 C 0.54961 0.55058 0.45722 0.0
C734 C 0.5776 0.59543 0.45771 0.0
C735 C 0.59332 0.62472 0.38263 0.0
H736 H 0.59096 0.67839 0.42384 0.0
C737 C 0.59551 0.70947 0.32602 0.0
C738 C 0.60972 0.733 0.33925 0.0
C739 C 0.5932 0.68813 0.33948 0.0
C740 C 0.59215 0.66375 0.4122 0.0
H741 H 0.53667 0.53439 0.41406 0.0
H742 H 0.55809 0.57421 0.38787 0.0
H743 H 0.57779 0.63917 0.449 0.0
H744 H 0.6333 0.75282 0.37637 0.0
H745 H 0.62893 0.71531 0.40034 0.0
H746 H 0.60637 0.64926 0.34521 0.0
C747 C 0.56079 0.57412 0.41143 0.0
C748 C 0.5847 0.6412 0.42666 0.0
C749 C 0.54842 0.55127 0.42639 0.0
C750 C 0.62227 0.7349 0.36574 0.0
C751 C 0.61968 0.71348 0.37946 0.0
C752 C 0.60046 0.64725 0.36802 0.0
C753 C 0.57493 0.59661 0.42704 0.0
C754 C 0.58493 0.62125 0.41203 0.0
C755 C 0.60483 0.68985 0.36664 0.0
C756 C 0.5997 0.66687 0.38261 0.0
H757 H 0.56624 0.57261 0.49644 0.0
H758 H 0.58894 0.61217 0.47042 0.0
H759 H 0.59414 0.60998 0.37077 0.0
H760 H 0.58595 0.70756 0.30536 0.0
H761 H 0.5815 0.67016 0.32922 0.0
C762 C 0.49674 0.04364 0.60489 0.0
C763 C 0.50171 0.05057 0.57505 0.0
C764 C 0.49545 0.0598 0.62562 0.0
C765 C 0.486 0.11428 0.63233 0.0
H766 H 0.51894 0.12382 0.70777 0.0
C767 C 0.49291 0.1888 0.71496 0.0
C768 C 0.48891 0.18189 0.74488 0.0
C769 C 0.49628 0.17394 0.69419 0.0
C770 C 0.5094 0.12123 0.68696 0.0
H771 H 0.50873 0.07984 0.54362 0.0
H772 H 0.50632 0.10774 0.57955 0.0
H773 H 0.51963 0.09466 0.6722 0.0
H774 H 0.48629 0.15428 0.77641 0.0
H775 H 0.49177 0.12842 0.74045 0.0
H776 H 0.47541 0.1405 0.64713 0.0
C777 C 0.50335 0.08983 0.58701 0.0
C778 C 0.50979 0.10444 0.66654 0.0
C779 C 0.50484 0.07382 0.56639 0.0
C780 C 0.48936 0.16029 0.7536 0.0
C781 C 0.49263 0.14543 0.73289 0.0
C782 C 0.48548 0.13095 0.6528 0.0
C783 C 0.49886 0.08316 0.61694 0.0
C784 C 0.49809 0.10073 0.63895 0.0
C785 C 0.49568 0.15174 0.70278 0.0
C786 C 0.49714 0.13468 0.68046 0.0
H787 H 0.49428 0.02593 0.61236 0.0
H788 H 0.49168 0.05394 0.64844 0.0
H789 H 0.47653 0.11168 0.61145 0.0
H790 H 0.4927 0.20529 0.70741 0.0
H791 H 0.49905 0.17971 0.67132 0.0
C792 C 0.41221 0.4873 0.01648 0.0
C793 C 0.42757 0.47674 0.0196 0.0
C794 C 0.39015 0.47804 0.0329 0.0
C795 C 0.36365 0.44369 0.10254 0.0
H796 H 0.30474 0.44613 0.07875 0.0
C797 C 0.27929 0.41107 0.17999 0.0
C798 C 0.27011 0.42761 0.18308 0.0
C799 C 0.29604 0.41436 0.15739 0.0
C800 C 0.32112 0.44541 0.08568 0.0
H801 H 0.4309 0.44695 0.04016 0.0
H802 H 0.39203 0.43012 0.06769 0.0
H803 H 0.33789 0.45583 0.04285 0.0
H804 H 0.2704 0.45988 0.16399 0.0
H805 H 0.29978 0.46573 0.12465 0.0
H806 H 0.34703 0.43345 0.14531 0.0
C807 C 0.39738 0.44616 0.0536 0.0
C808 C 0.34013 0.45101 0.06515 0.0
C809 C 0.41955 0.45564 0.03761 0.0
C810 C 0.27741 0.44703 0.16246 0.0
C811 C 0.29401 0.45021 0.13972 0.0
C812 C 0.34461 0.43792 0.1229 0.0
C813 C 0.38291 0.45786 0.05245 0.0
C814 C 0.36175 0.45039 0.07339 0.0
C815 C 0.30383 0.43415 0.13723 0.0
C816 C 0.32323 0.4389 0.11481 0.0
H817 H 0.41804 0.5037 1.00288 0.0
H818 H 0.37958 0.48763 0.03151 0.0
H819 H 0.38023 0.44363 0.11001 0.0
H820 H 0.27416 0.39602 0.19557 0.0
H821 H 0.30311 0.40154 0.15587 0.0
C822 C 0.98125 0.46435 0.61234 0.0
C823 C 0.9759 0.46247 0.58201 0.0
C824 C 0.96489 0.44571 0.63195 0.0
C825 C 0.91496 0.37952 0.6346 0.0
H826 H 0.89334 0.39764 0.70593 0.0
C827 C 0.83284 0.30487 0.7024 0.0
C828 C 0.83456 0.30636 0.73329 0.0
C829 C 0.84983 0.32475 0.68481 0.0
C830 C 0.89938 0.39219 0.68631 0.0
H831 H 0.94942 0.43921 0.54851 0.0
H832 H 0.92136 0.40684 0.58241 0.0
H833 H 0.92484 0.43029 0.67441 0.0
H834 H 0.85519 0.33037 0.7699 0.0
H835 H 0.88507 0.36482 0.7393 0.0
H836 H 0.88996 0.34155 0.6464 0.0
C837 C 0.93809 0.42265 0.59116 0.0
C838 C 0.91747 0.41095 0.66825 0.0
C839 C 0.95417 0.44132 0.57172 0.0
C840 C 0.85315 0.32864 0.74617 0.0
C841 C 0.87034 0.34846 0.72856 0.0
C842 C 0.89709 0.36081 0.65271 0.0
C843 C 0.94309 0.42465 0.62154 0.0
C844 C 0.92525 0.40484 0.64199 0.0
C845 C 0.86926 0.3466 0.69759 0.0
C846 C 0.88875 0.36682 0.67867 0.0
H847 H 0.99777 0.48045 0.621 0.0
H848 H 0.96934 0.44771 0.65524 0.0
H849 H 0.92082 0.37415 0.61476 0.0
H850 H 0.81867 0.28806 0.69173 0.0
H851 H 0.8479 0.32279 0.66109 0.0
C852 C 0.57491 1.00567 0.11644 0.0
C853 C 0.57481 1.0057 0.08551 0.0
C854 C 0.58324 0.99162 0.13191 0.0
C855 C 0.5916 0.9369 0.11982 0.0
H856 H 0.61942 0.9522 0.19866 0.0
C857 C 0.62061 0.8739 0.1814 0.0
C858 C 0.61069 0.86676 0.20992 0.0
C859 C 0.61932 0.89303 0.16658 0.0
C860 C 0.61163 0.94773 0.17664 0.0
H861 H 0.5852 0.99289 0.04648 0.0
H862 H 0.60098 0.9696 0.07327 0.0
H863 H 0.6131 0.98285 0.17176 0.0
H864 H 0.59258 0.87471 0.24575 0.0
H865 H 0.59048 0.90833 0.21991 0.0
H866 H 0.59034 0.9019 0.12467 0.0
C867 C 0.59362 0.97938 0.08576 0.0
C868 C 0.60791 0.96522 0.16125 0.0
C869 C 0.58483 0.99296 0.07036 0.0
C870 C 0.60012 0.87965 0.22366 0.0
C871 C 0.59914 0.89902 0.209 0.0
C872 C 0.59564 0.91963 0.13503 0.0
C873 C 0.59202 0.97767 0.11671 0.0
C874 C 0.59763 0.95995 0.13268 0.0
C875 C 0.6084 0.90566 0.18015 0.0
C876 C 0.60548 0.92475 0.16367 0.0
H877 H 0.56708 0.01517 0.12865 0.0
H878 H 0.58152 0.99068 0.15568 0.0
H879 H 0.58302 0.93176 0.09826 0.0
H880 H 0.62871 0.8642 0.17021 0.0
H881 H 0.62671 0.89785 0.1444 0.0
C882 C 0.55501 0.52133 0.60775 0.0
C883 C 0.55297 0.51286 0.57855 0.0
C884 C 0.57364 0.5225 0.62653 0.0
C885 C 0.61637 0.49669 0.63459 0.0
H886 H 0.6534 0.55243 0.68746 0.0
C887 C 0.71036 0.51847 0.68647 0.0
C888 C 0.7158 0.52773 0.71544 0.0
C889 C 0.68864 0.5147 0.67232 0.0
C890 C 0.64299 0.53653 0.67315 0.0
H891 H 0.56954 0.49971 0.54611 0.0
H892 H 0.60186 0.50212 0.57837 0.0
H893 H 0.6194 0.55044 0.65799 0.0
H894 H 0.70209 0.53953 0.75254 0.0
H895 H 0.66411 0.53279 0.72786 0.0
H896 H 0.64018 0.483 0.64928 0.0
C897 C 0.58881 0.50731 0.58714 0.0
C898 C 0.62348 0.5354 0.65621 0.0
C899 C 0.5703 0.50611 0.5685 0.0
C900 C 0.6985 0.5323 0.73026 0.0
C901 C 0.67682 0.52868 0.71601 0.0
C902 C 0.63587 0.49786 0.65141 0.0
C903 C 0.59061 0.5152 0.61653 0.0
C904 C 0.61017 0.51567 0.63632 0.0
C905 C 0.6718 0.52018 0.68669 0.0
C906 C 0.64971 0.51797 0.67059 0.0
H907 H 0.54196 0.52663 0.61624 0.0
H908 H 0.57439 0.52859 0.64906 0.0
H909 H 0.60618 0.48089 0.62007 0.0
H910 H 0.72327 0.51482 0.67433 0.0
H911 H 0.68554 0.50836 0.64966 0.0
C912 C 0.0527 0.59954 0.03328 0.0
C913 C 0.06243 0.59241 0.00963 0.0
C914 C 0.06723 0.62234 0.04744 0.0
C915 C 0.09914 0.67526 0.0694 0.0
H916 H 0.16513 0.68757 0.09019 0.0
C917 C 0.1636 0.7538 0.15017 0.0
C918 C 0.17525 0.74679 0.17175 0.0
C919 C 0.15147 0.73819 0.12617 0.0
C920 C 0.14676 0.68442 0.08454 0.0
H921 H 0.09457 0.60429 0.98115 0.0
H922 H 0.12006 0.64434 1.00596 0.0
H923 H 0.14021 0.65513 0.05455 0.0
H924 H 0.1829 0.7176 0.18506 0.0
H925 H 0.16188 0.69053 0.14343 0.0
H926 H 0.10524 0.70372 0.10054 0.0
C927 C 0.10121 0.63208 0.01367 0.0
C928 C 0.1326 0.66604 0.0638 0.0
C929 C 0.08656 0.60924 0.99933 0.0
C930 C 0.17457 0.72387 0.16865 0.0
C931 C 0.16252 0.70832 0.14469 0.0
C932 C 0.11333 0.69367 0.09013 0.0
C933 C 0.0919 0.63857 0.03837 0.0
C934 C 0.10836 0.66078 0.05658 0.0
C935 C 0.15078 0.71524 0.12319 0.0
C936 C 0.13703 0.69798 0.09853 0.0
H937 H 0.03412 0.58707 0.04167 0.0
H938 H 0.05953 0.62659 0.06654 0.0
H939 H 0.08064 0.67184 0.06405 0.0
H940 H 0.16403 0.77146 0.15162 0.0
H941 H 0.14278 0.74415 0.10984 0.0
loop_
_geom_bond_atom_site_label_1
_geom_bond_atom_site_label_2
_geom_bond_distance
_geom_bond_site_symmetry_2
_ccdc_geom_bond_type
C0 O2 1.247 . S
C0 O4 1.258 . S
C1 O8 1.247 1_655 S
C1 O9 1.262 . S
O2 C0 1.247 . S
O2 Zn3 2.028 1_455 S
Zn3 O2 2.028 1_655 S
Zn3 O7 2.032 1_554 S
Zn3 O9 2.032 1_554 S
Zn3 O10 2.028 1_655 S
O4 C0 1.258 . S
O4 Zn5 2.035 1_554 S
Zn5 O4 2.035 1_556 S
Zn5 O6 2.028 . S
Zn5 O8 2.028 . S
Zn5 O11 2.035 1_556 S
O6 Zn5 2.028 . S
O6 C12 1.247 1_455 S
O7 Zn3 2.032 1_556 S
O7 C12 1.262 . S
O8 C1 1.247 1_455 S
O8 Zn5 2.028 . S
O9 C1 1.262 . S
O9 Zn3 2.032 1_556 S
O10 Zn3 2.028 1_455 S
O10 C13 1.247 . S
O11 Zn5 2.035 1_554 S
O11 C13 1.258 . S
C12 O6 1.247 1_655 S
C12 O7 1.262 . S
C13 O10 1.247 . S
C13 O11 1.258 . S
C14 O16 1.247 . S
C14 O18 1.258 . S
C15 O22 1.247 1_565 S
C15 O23 1.258 . S
O16 C14 1.247 . S
O16 Zn17 2.028 1_545 S
Zn17 O16 2.028 1_565 S
Zn17 O21 2.035 . S
Zn17 O23 2.035 . S
Zn17 O24 2.028 1_565 S
O18 C14 1.258 . S
O18 Zn19 2.035 . S
Zn19 O18 2.035 . S
Zn19 O20 2.028 . S
Zn19 O22 2.028 . S
Zn19 O25 2.035 . S
O20 Zn19 2.028 . S
O20 C26 1.247 1_545 S
O21 Zn17 2.035 . S
O21 C26 1.258 . S
O22 C15 1.247 1_545 S
O22 Zn19 2.028 . S
O23 C15 1.258 . S
O23 Zn17 2.035 . S
O24 Zn17 2.028 1_545 S
O24 C27 1.247 . S
O25 Zn19 2.035 . S
O25 C27 1.258 . S
C26 O20 1.247 1_565 S
C26 O21 1.258 . S
C27 O24 1.247 . S
C27 O25 1.258 . S
C28 O30 1.247 . S
C28 O32 1.262 . S
C29 O36 1.247 . S
C29 O37 1.258 . S
O30 C28 1.247 . S
O30 Zn31 2.028 . S
Zn31 O30 2.028 . S
Zn31 O35 2.035 1_556 S
Zn31 O37 2.035 1_556 S
Zn31 O38 2.028 . S
O32 C28 1.262 . S
O32 Zn33 2.033 1_556 S
Zn33 O32 2.033 1_554 S
Zn33 O34 2.028 . S
Zn33 O36 2.028 . S
Zn33 O39 2.033 1_554 S
O34 Zn33 2.028 . S
O34 C40 1.247 . S
O35 Zn31 2.035 1_554 S
O35 C40 1.258 . S
O36 C29 1.247 . S
O36 Zn33 2.028 . S
O37 C29 1.258 . S
O37 Zn31 2.035 1_554 S
O38 Zn31 2.028 . S
O38 C41 1.247 . S
O39 Zn33 2.033 1_556 S
O39 C41 1.262 . S
C40 O34 1.247 . S
C40 O35 1.258 . S
C41 O38 1.247 . S
C41 O39 1.262 . S
C42 O44 1.247 . S
C42 O46 1.258 . S
C43 O50 1.247 . S
C43 O51 1.280 . S
O44 C42 1.247 . S
O44 Zn45 2.028 . S
Zn45 O44 2.028 . S
Zn45 O49 2.006 1_455 S
Zn45 O51 2.029 1_455 S
Zn45 O52 2.028 . S
O46 C42 1.258 . S
O46 Zn47 2.035 1_455 S
Zn47 O46 2.035 1_655 S
Zn47 O48 2.028 . S
Zn47 O50 2.028 . S
Zn47 O53 2.035 1_655 S
O48 Zn47 2.028 . S
O48 C54 1.247 . S
O49 Zn45 2.006 1_655 S
O49 C54 1.289 . S
O50 C43 1.247 . S
O50 Zn47 2.028 . S
O51 C43 1.280 . S
O51 Zn45 2.029 1_655 S
O52 Zn45 2.028 . S
O52 C55 1.247 . S
O53 Zn47 2.035 1_455 S
O53 C55 1.258 . S
C54 O48 1.247 . S
C54 O49 1.289 . S
C55 O52 1.247 . S
C55 O53 1.258 . S
C56 O58 1.272 . S
C56 O60 1.258 . S
C57 O64 1.247 . S
C57 O65 1.263 . S
O58 C56 1.272 . S
O58 Zn59 2.004 1_565 S
Zn59 O58 2.004 1_545 S
Zn59 O63 2.032 1_554 S
Zn59 O65 2.032 1_554 S
Zn59 O66 2.023 1_545 S
O60 C56 1.258 . S
O60 Zn61 2.035 1_554 S
Zn61 O60 2.035 1_556 S
Zn61 O62 2.028 1_565 S
Zn61 O64 2.028 1_565 S
Zn61 O67 2.035 1_556 S
O62 Zn61 2.028 1_545 S
O62 C68 1.247 . S
O63 Zn59 2.032 1_556 S
O63 C68 1.263 . S
O64 C57 1.247 . S
O64 Zn61 2.028 1_545 S
O65 C57 1.263 . S
O65 Zn59 2.032 1_556 S
O66 Zn59 2.023 1_565 S
O66 C69 1.265 . S
O67 Zn61 2.035 1_554 S
O67 C69 1.258 . S
C68 O62 1.247 . S
C68 O63 1.263 . S
C69 O66 1.265 . S
C69 O67 1.258 . S
C70 O72 1.247 . S
C70 O74 1.258 . S
C71 O78 1.247 . S
C71 O79 1.258 . S
O72 C70 1.247 . S
O72 Zn73 2.028 . S
Zn73 O72 2.028 . S
Zn73 O77 2.035 . S
Zn73 O79 2.035 . S
Zn73 O80 2.028 . S
O74 C70 1.258 . S
O74 Zn75 2.035 . S
Zn75 O74 2.035 . S
Zn75 O76 2.028 . S
Zn75 O78 2.028 . S
Zn75 O81 2.035 . S
O76 Zn75 2.028 . S
O76 C82 1.247 . S
O77 Zn73 2.035 . S
O77 C82 1.258 . S
O78 C71 1.247 . S
O78 Zn75 2.028 . S
O79 C71 1.258 . S
O79 Zn73 2.035 . S
O80 Zn73 2.028 . S
O80 C83 1.247 . S
O81 Zn75 2.035 . S
O81 C83 1.258 . S
C82 O76 1.247 . S
C82 O77 1.258 . S
C83 O80 1.247 . S
C83 O81 1.258 . S
Cu84 N85 1.999 . S
Cu84 O90 1.974 . S
Cu84 N95 1.985 . S
Cu84 O104 1.959 . S
N85 Cu84 1.999 . S
N85 C87 1.263 . S
N85 C89 1.389 . S
N86 C87 1.358 . S
N86 C88 1.400 . S
C87 N85 1.263 . S
C87 N86 1.358 . S
C87 H93 0.930 . S
C88 N86 1.400 . S
C88 C89 1.351 . S
C88 H105 0.930 . S
C89 N85 1.389 . S
C89 C88 1.351 . S
C89 H94 0.930 . S
O90 Cu84 1.974 . S
O90 C100 1.282 . S
C91 O92 1.261 . S
C91 O104 1.251 . S
O92 C91 1.261 . S
H93 C87 0.930 . S
H94 C89 0.930 . S
N95 Cu84 1.985 . S
N95 C97 1.335 . S
N95 C98 1.390 . S
N96 C97 1.345 . S
N96 C99 1.336 . S
C97 N95 1.335 . S
C97 N96 1.345 . S
C97 H102 0.930 . S
C98 N95 1.390 . S
C98 C99 1.346 . S
C98 H103 0.930 . S
C99 N96 1.336 . S
C99 C98 1.346 . S
C99 H106 0.929 . S
C100 O90 1.282 . S
C100 O101 1.216 . S
O101 C100 1.216 . S
H102 C97 0.930 . S
H103 C98 0.930 . S
O104 Cu84 1.959 . S
O104 C91 1.251 . S
H105 C88 0.930 . S
H106 C99 0.929 . S
Cu107 N108 1.999 . S
Cu107 O113 1.974 . S
Cu107 N118 1.985 . S
Cu107 O127 1.959 . S
N108 Cu107 1.999 . S
N108 C110 1.263 . S
N108 C112 1.389 . S
N109 C110 1.358 . S
N109 C111 1.400 . S
C110 N108 1.263 . S
C110 N109 1.358 . S
C110 H116 0.930 . S
C111 N109 1.400 . S
C111 C112 1.351 . S
C111 H128 0.930 . S
C112 N108 1.389 . S
C112 C111 1.351 . S
C112 H117 0.930 . S
O113 Cu107 1.974 . S
O113 C123 1.282 . S
C114 O115 1.261 . S
C114 O127 1.251 . S
O115 C114 1.261 . S
H116 C110 0.930 . S
H117 C112 0.930 . S
N118 Cu107 1.985 . S
N118 C120 1.335 . S
N118 C121 1.390 . S
N119 C120 1.345 . S
N119 C122 1.336 . S
C120 N118 1.335 . S
C120 N119 1.345 . S
C120 H125 0.930 . S
C121 N118 1.390 . S
C121 C122 1.346 . S
C121 H126 0.930 . S
C122 N119 1.336 . S
C122 C121 1.346 . S
C122 H129 0.929 . S
C123 O113 1.282 . S
C123 O124 1.216 . S
O124 C123 1.216 . S
H125 C120 0.930 . S
H126 C121 0.930 . S
O127 Cu107 1.959 . S
O127 C114 1.251 . S
H128 C111 0.930 . S
H129 C122 0.929 . S
Cu130 N131 1.999 . S
Cu130 O136 1.974 . S
Cu130 N141 1.985 . S
Cu130 O150 1.959 . S
N131 Cu130 1.999 . S
N131 C133 1.263 . S
N131 C135 1.389 . S
N132 C133 1.358 . S
N132 C134 1.400 . S
C133 N131 1.263 . S
C133 N132 1.358 . S
C133 H139 0.930 . S
C134 N132 1.400 . S
C134 C135 1.351 . S
C134 H151 0.930 . S
C135 N131 1.389 . S
C135 C134 1.351 . S
C135 H140 0.930 . S
O136 Cu130 1.974 . S
O136 C146 1.282 . S
C137 O138 1.261 . S
C137 O150 1.251 . S
O138 C137 1.261 . S
H139 C133 0.930 . S
H140 C135 0.930 . S
N141 Cu130 1.985 . S
N141 C143 1.335 . S
N141 C144 1.390 . S
N142 C143 1.345 . S
N142 C145 1.336 . S
C143 N141 1.335 . S
C143 N142 1.345 . S
C143 H148 0.930 . S
C144 N141 1.390 . S
C144 C145 1.346 . S
C144 H149 0.930 . S
C145 N142 1.336 . S
C145 C144 1.346 . S
C145 H152 0.929 . S
C146 O136 1.282 . S
C146 O147 1.216 . S
O147 C146 1.216 . S
H148 C143 0.930 . S
H149 C144 0.930 . S
O150 Cu130 1.959 . S
O150 C137 1.251 . S
H151 C134 0.930 . S
H152 C145 0.929 . S
Cu153 N154 1.999 . S
Cu153 O159 1.974 . S
Cu153 N164 1.985 . S
Cu153 O173 1.959 . S
N154 Cu153 1.999 . S
N154 C156 1.263 . S
N154 C158 1.389 . S
N155 C156 1.358 . S
N155 C157 1.400 . S
C156 N154 1.263 . S
C156 N155 1.358 . S
C156 H162 0.930 . S
C157 N155 1.400 . S
C157 C158 1.351 . S
C157 H174 0.930 . S
C158 N154 1.389 . S
C158 C157 1.351 . S
C158 H163 0.930 . S
O159 Cu153 1.974 . S
O159 C169 1.282 . S
C160 O161 1.261 . S
C160 O173 1.251 . S
O161 C160 1.261 . S
H162 C156 0.930 . S
H163 C158 0.930 . S
N164 Cu153 1.985 . S
N164 C166 1.335 . S
N164 C167 1.390 . S
N165 C166 1.345 . S
N165 C168 1.336 . S
C166 N164 1.335 . S
C166 N165 1.345 . S
C166 H171 0.930 . S
C167 N164 1.390 . S
C167 C168 1.346 . S
C167 H172 0.930 . S
C168 N165 1.336 . S
C168 C167 1.346 . S
C168 H175 0.929 . S
C169 O159 1.282 . S
C169 O170 1.216 . S
O170 C169 1.216 . S
H171 C166 0.930 . S
H172 C167 0.930 . S
O173 Cu153 1.959 . S
O173 C160 1.251 . S
H174 C157 0.930 . S
H175 C168 0.929 . S
Cu176 N177 1.999 . S
Cu176 O182 1.974 . S
Cu176 N187 1.985 . S
Cu176 O196 1.959 . S
N177 Cu176 1.999 . S
N177 C179 1.263 . S
N177 C181 1.389 . S
N178 C179 1.358 . S
N178 C180 1.400 . S
C179 N177 1.263 . S
C179 N178 1.358 . S
C179 H185 0.930 . S
C180 N178 1.400 . S
C180 C181 1.351 . S
C180 H197 0.930 . S
C181 N177 1.389 . S
C181 C180 1.351 . S
C181 H186 0.930 . S
O182 Cu176 1.974 . S
O182 C192 1.282 . S
C183 O184 1.261 . S
C183 O196 1.251 . S
O184 C183 1.261 . S
H185 C179 0.930 . S
H186 C181 0.930 . S
N187 Cu176 1.985 . S
N187 C189 1.335 . S
N187 C190 1.390 . S
N188 C189 1.345 . S
N188 C191 1.336 . S
C189 N187 1.335 . S
C189 N188 1.345 . S
C189 H194 0.930 . S
C190 N187 1.390 . S
C190 C191 1.346 . S
C190 H195 0.930 . S
C191 N188 1.336 . S
C191 C190 1.346 . S
C191 H198 0.929 . S
C192 O182 1.282 . S
C192 O193 1.216 . S
O193 C192 1.216 . S
H194 C189 0.930 . S
H195 C190 0.930 . S
O196 Cu176 1.959 . S
O196 C183 1.251 . S
H197 C180 0.930 . S
H198 C191 0.929 . S
Cu199 N200 1.999 . S
Cu199 O205 1.974 . S
Cu199 N210 1.985 . S
Cu199 O219 1.959 . S
N200 Cu199 1.999 . S
N200 C202 1.263 . S
N200 C204 1.389 . S
N201 C202 1.358 . S
N201 C203 1.400 . S
C202 N200 1.263 . S
C202 N201 1.358 . S
C202 H208 0.930 . S
C203 N201 1.400 . S
C203 C204 1.351 . S
C203 H220 0.930 . S
C204 N200 1.389 . S
C204 C203 1.351 . S
C204 H209 0.930 . S
O205 Cu199 1.974 . S
O205 C215 1.282 . S
C206 O207 1.261 . S
C206 O219 1.251 . S
O207 C206 1.261 . S
H208 C202 0.930 . S
H209 C204 0.930 . S
N210 Cu199 1.985 . S
N210 C212 1.335 . S
N210 C213 1.390 . S
N211 C212 1.345 . S
N211 C214 1.336 . S
C212 N210 1.335 . S
C212 N211 1.345 . S
C212 H217 0.930 . S
C213 N210 1.390 . S
C213 C214 1.346 . S
C213 H218 0.930 . S
C214 N211 1.336 . S
C214 C213 1.346 . S
C214 H221 0.929 . S
C215 O205 1.282 . S
C215 O216 1.216 . S
O216 C215 1.216 . S
H217 C212 0.930 . S
H218 C213 0.930 . S
O219 Cu199 1.959 . S
O219 C206 1.251 . S
H220 C203 0.930 . S
H221 C214 0.929 . S
C222 C223 1.349 . S
C222 C224 1.327 . S
C222 H247 0.950 . S
C223 C222 1.349 . S
C223 C239 1.349 . S
C224 C222 1.327 . S
C224 C243 1.429 . S
C224 H248 0.950 . S
C225 C242 1.574 . S
C225 C244 1.368 . S
C225 H249 0.949 . S
H226 C230 0.949 . S
C227 C228 1.349 . S
C227 C229 1.327 . S
C227 H250 0.950 . S
C228 C227 1.349 . S
C228 C240 1.349 . S
C229 C227 1.327 . S
C229 C245 1.429 . S
C229 H251 0.950 . S
C230 H226 0.949 . S
C230 C238 1.574 . S
C230 C246 1.368 . S
H231 C239 0.950 . S
H232 C237 0.950 . S
H233 C238 0.949 . S
H234 C240 0.950 . S
H235 C241 0.950 . S
H236 C242 0.949 . S
C237 H232 0.950 . S
C237 C239 1.327 . S
C237 C243 1.429 . S
C238 C230 1.574 . S
C238 H233 0.949 . S
C238 C244 1.368 . S
C239 C223 1.349 . S
C239 H231 0.950 . S
C239 C237 1.327 . S
C240 C228 1.349 . S
C240 H234 0.950 . S
C240 C241 1.327 . S
C241 H235 0.950 . S
C241 C240 1.327 . S
C241 C245 1.429 . S
C242 C225 1.574 . S
C242 H236 0.949 . S
C242 C246 1.368 . S
C243 C224 1.429 . S
C243 C237 1.429 . S
C243 C244 1.523 . S
C244 C225 1.368 . S
C244 C238 1.368 . S
C244 C243 1.523 . S
C245 C229 1.429 . S
C245 C241 1.429 . S
C245 C246 1.523 . S
C246 C230 1.368 . S
C246 C242 1.368 . S
C246 C245 1.523 . S
H247 C222 0.950 . S
H248 C224 0.950 . S
H249 C225 0.949 . S
H250 C227 0.950 . S
H251 C229 0.950 . S
C252 C253 1.349 . S
C252 C254 1.327 . S
C252 H277 0.950 . S
C253 C252 1.349 . S
C253 C269 1.349 . S
C254 C252 1.327 . S
C254 C273 1.429 . S
C254 H278 0.950 . S
C255 C272 1.574 . S
C255 C274 1.368 . S
C255 H279 0.949 . S
H256 C260 0.949 . S
C257 C258 1.349 . S
C257 C259 1.327 . S
C257 H280 0.950 . S
C258 C257 1.349 . S
C258 C270 1.349 . S
C259 C257 1.327 . S
C259 C275 1.429 . S
C259 H281 0.950 . S
C260 H256 0.949 . S
C260 C268 1.574 . S
C260 C276 1.368 . S
H261 C269 0.950 . S
H262 C267 0.950 . S
H263 C268 0.949 . S
H264 C270 0.950 . S
H265 C271 0.950 . S
H266 C272 0.949 . S
C267 H262 0.950 . S
C267 C269 1.327 . S
C267 C273 1.429 . S
C268 C260 1.574 . S
C268 H263 0.949 . S
C268 C274 1.368 . S
C269 C253 1.349 . S
C269 H261 0.950 . S
C269 C267 1.327 . S
C270 C258 1.349 . S
C270 H264 0.950 . S
C270 C271 1.327 . S
C271 H265 0.950 . S
C271 C270 1.327 . S
C271 C275 1.429 . S
C272 C255 1.574 . S
C272 H266 0.949 . S
C272 C276 1.368 . S
C273 C254 1.429 . S
C273 C267 1.429 . S
C273 C274 1.523 . S
C274 C255 1.368 . S
C274 C268 1.368 . S
C274 C273 1.523 . S
C275 C259 1.429 . S
C275 C271 1.429 . S
C275 C276 1.523 . S
C276 C260 1.368 . S
C276 C272 1.368 . S
C276 C275 1.523 . S
H277 C252 0.950 . S
H278 C254 0.950 . S
H279 C255 0.949 . S
H280 C257 0.950 . S
H281 C259 0.950 . S
C282 C283 1.349 . S
C282 C284 1.327 . S
C282 H307 0.950 . S
C283 C282 1.349 . S
C283 C299 1.349 . S
C284 C282 1.327 . S
C284 C303 1.429 . S
C284 H308 0.950 . S
C285 C302 1.574 . S
C285 C304 1.368 . S
C285 H309 0.949 . S
H286 C290 0.949 . S
C287 C288 1.349 . S
C287 C289 1.327 . S
C287 H310 0.950 . S
C288 C287 1.349 . S
C288 C300 1.349 . S
C289 C287 1.327 . S
C289 C305 1.429 . S
C289 H311 0.950 . S
C290 H286 0.949 . S
C290 C298 1.574 . S
C290 C306 1.368 . S
H291 C299 0.950 . S
H292 C297 0.950 . S
H293 C298 0.949 . S
H294 C300 0.950 . S
H295 C301 0.950 . S
H296 C302 0.949 . S
C297 H292 0.950 . S
C297 C299 1.327 . S
C297 C303 1.429 . S
C298 C290 1.574 . S
C298 H293 0.949 . S
C298 C304 1.368 . S
C299 C283 1.349 . S
C299 H291 0.950 . S
C299 C297 1.327 . S
C300 C288 1.349 . S
C300 H294 0.950 . S
C300 C301 1.327 . S
C301 H295 0.950 . S
C301 C300 1.327 . S
C301 C305 1.429 . S
C302 C285 1.574 . S
C302 H296 0.949 . S
C302 C306 1.368 . S
C303 C284 1.429 . S
C303 C297 1.429 . S
C303 C304 1.523 . S
C304 C285 1.368 . S
C304 C298 1.368 . S
C304 C303 1.523 . S
C305 C289 1.429 . S
C305 C301 1.429 . S
C305 C306 1.523 . S
C306 C290 1.368 . S
C306 C302 1.368 . S
C306 C305 1.523 . S
H307 C282 0.950 . S
H308 C284 0.950 . S
H309 C285 0.949 . S
H310 C287 0.950 . S
H311 C289 0.950 . S
C312 C313 1.349 . S
C312 C314 1.327 . S
C312 H337 0.950 . S
C313 C312 1.349 . S
C313 C329 1.349 . S
C314 C312 1.327 . S
C314 C333 1.429 . S
C314 H338 0.950 . S
C315 C332 1.574 . S
C315 C334 1.368 . S
C315 H339 0.949 . S
H316 C320 0.949 . S
C317 C318 1.349 . S
C317 C319 1.327 . S
C317 H340 0.950 . S
C318 C317 1.349 . S
C318 C330 1.349 . S
C319 C317 1.327 . S
C319 C335 1.429 . S
C319 H341 0.950 . S
C320 H316 0.949 . S
C320 C328 1.574 . S
C320 C336 1.368 . S
H321 C329 0.950 . S
H322 C327 0.950 . S
H323 C328 0.949 . S
H324 C330 0.950 . S
H325 C331 0.950 . S
H326 C332 0.949 . S
C327 H322 0.950 . S
C327 C329 1.327 . S
C327 C333 1.429 . S
C328 C320 1.574 . S
C328 H323 0.949 . S
C328 C334 1.368 . S
C329 C313 1.349 . S
C329 H321 0.950 . S
C329 C327 1.327 . S
C330 C318 1.349 . S
C330 H324 0.950 . S
C330 C331 1.327 . S
C331 H325 0.950 . S
C331 C330 1.327 . S
C331 C335 1.429 . S
C332 C315 1.574 . S
C332 H326 0.949 . S
C332 C336 1.368 . S
C333 C314 1.429 . S
C333 C327 1.429 . S
C333 C334 1.523 . S
C334 C315 1.368 . S
C334 C328 1.368 . S
C334 C333 1.523 . S
C335 C319 1.429 . S
C335 C331 1.429 . S
C335 C336 1.523 . S
C336 C320 1.368 . S
C336 C332 1.368 . S
C336 C335 1.523 . S
H337 C312 0.950 . S
H338 C314 0.950 . S
H339 C315 0.949 . S
H340 C317 0.950 . S
H341 C319 0.950 . S
C342 C343 1.349 . S
C342 C344 1.327 . S
C342 H367 0.950 . S
C343 C342 1.349 . S
C343 C359 1.349 . S
C344 C342 1.327 . S
C344 C363 1.429 . S
C344 H368 0.950 . S
C345 C362 1.574 . S
C345 C364 1.368 . S
C345 H369 0.949 . S
H346 C350 0.949 . S
C347 C348 1.349 . S
C347 C349 1.327 . S
C347 H370 0.950 . S
C348 C347 1.349 . S
C348 C360 1.349 . S
C349 C347 1.327 . S
C349 C365 1.429 . S
C349 H371 0.950 . S
C350 H346 0.949 . S
C350 C358 1.574 . S
C350 C366 1.368 . S
H351 C359 0.950 . S
H352 C357 0.950 . S
H353 C358 0.949 . S
H354 C360 0.950 . S
H355 C361 0.950 . S
H356 C362 0.949 . S
C357 H352 0.950 . S
C357 C359 1.327 . S
C357 C363 1.429 . S
C358 C350 1.574 . S
C358 H353 0.949 . S
C358 C364 1.368 . S
C359 C343 1.349 . S
C359 H351 0.950 . S
C359 C357 1.327 . S
C360 C348 1.349 . S
C360 H354 0.950 . S
C360 C361 1.327 . S
C361 H355 0.950 . S
C361 C360 1.327 . S
C361 C365 1.429 . S
C362 C345 1.574 . S
C362 H356 0.949 . S
C362 C366 1.368 . S
C363 C344 1.429 . S
C363 C357 1.429 . S
C363 C364 1.523 . S
C364 C345 1.368 . S
C364 C358 1.368 . S
C364 C363 1.523 . S
C365 C349 1.429 . S
C365 C361 1.429 . S
C365 C366 1.523 . S
C366 C350 1.368 . S
C366 C362 1.368 . S
C366 C365 1.523 . S
H367 C342 0.950 . S
H368 C344 0.950 . S
H369 C345 0.949 . S
H370 C347 0.950 . S
H371 C349 0.950 . S
C372 C373 1.349 . S
C372 C374 1.327 . S
C372 H397 0.950 . S
C373 C372 1.349 . S
C373 C389 1.349 . S
C374 C372 1.327 . S
C374 C393 1.429 . S
C374 H398 0.950 . S
C375 C392 1.574 . S
C375 C394 1.368 . S
C375 H399 0.949 . S
H376 C380 0.949 . S
C377 C378 1.349 . S
C377 C379 1.327 . S
C377 H400 0.950 . S
C378 C377 1.349 . S
C378 C390 1.349 . S
C379 C377 1.327 . S
C379 C395 1.429 . S
C379 H401 0.950 . S
C380 H376 0.949 . S
C380 C388 1.574 . S
C380 C396 1.368 . S
H381 C389 0.950 . S
H382 C387 0.950 . S
H383 C388 0.949 . S
H384 C390 0.950 . S
H385 C391 0.950 . S
H386 C392 0.949 . S
C387 H382 0.950 . S
C387 C389 1.327 . S
C387 C393 1.429 . S
C388 C380 1.574 . S
C388 H383 0.949 . S
C388 C394 1.368 . S
C389 C373 1.349 . S
C389 H381 0.950 . S
C389 C387 1.327 . S
C390 C378 1.349 . S
C390 H384 0.950 . S
C390 C391 1.327 . S
C391 H385 0.950 . S
C391 C390 1.327 . S
C391 C395 1.429 . S
C392 C375 1.574 . S
C392 H386 0.949 . S
C392 C396 1.368 . S
C393 C374 1.429 . S
C393 C387 1.429 . S
C393 C394 1.523 . S
C394 C375 1.368 . S
C394 C388 1.368 . S
C394 C393 1.523 . S
C395 C379 1.429 . S
C395 C391 1.429 . S
C395 C396 1.523 . S
C396 C380 1.368 . S
C396 C392 1.368 . S
C396 C395 1.523 . S
H397 C372 0.950 . S
H398 C374 0.950 . S
H399 C375 0.949 . S
H400 C377 0.950 . S
H401 C379 0.950 . S
C402 C403 1.349 . S
C402 C404 1.327 . S
C402 H427 0.950 . S
C403 C402 1.349 . S
C403 C419 1.349 . S
C404 C402 1.327 . S
C404 C423 1.429 . S
C404 H428 0.950 . S
C405 C422 1.574 . S
C405 C424 1.368 . S
C405 H429 0.949 . S
H406 C410 0.949 . S
C407 C408 1.349 . S
C407 C409 1.327 . S
C407 H430 0.950 . S
C408 C407 1.349 . S
C408 C420 1.349 . S
C409 C407 1.327 . S
C409 C425 1.429 . S
C409 H431 0.950 . S
C410 H406 0.949 . S
C410 C418 1.574 . S
C410 C426 1.368 . S
H411 C419 0.950 . S
H412 C417 0.950 . S
H413 C418 0.949 . S
H414 C420 0.950 . S
H415 C421 0.950 . S
H416 C422 0.949 . S
C417 H412 0.950 . S
C417 C419 1.327 . S
C417 C423 1.429 . S
C418 C410 1.574 . S
C418 H413 0.949 . S
C418 C424 1.368 . S
C419 C403 1.349 . S
C419 H411 0.950 . S
C419 C417 1.327 . S
C420 C408 1.349 . S
C420 H414 0.950 . S
C420 C421 1.327 . S
C421 H415 0.950 . S
C421 C420 1.327 . S
C421 C425 1.429 . S
C422 C405 1.574 . S
C422 H416 0.949 . S
C422 C426 1.368 . S
C423 C404 1.429 . S
C423 C417 1.429 . S
C423 C424 1.523 . S
C424 C405 1.368 . S
C424 C418 1.368 . S
C424 C423 1.523 . S
C425 C409 1.429 . S
C425 C421 1.429 . S
C425 C426 1.523 . S
C426 C410 1.368 . S
C426 C422 1.368 . S
C426 C425 1.523 . S
H427 C402 0.950 . S
H428 C404 0.950 . S
H429 C405 0.949 . S
H430 C407 0.950 . S
H431 C409 0.950 . S
C432 C433 1.349 . S
C432 C434 1.327 . S
C432 H457 0.950 . S
C433 C432 1.349 . S
C433 C449 1.349 . S
C434 C432 1.327 . S
C434 C453 1.429 . S
C434 H458 0.950 . S
C435 C452 1.574 . S
C435 C454 1.368 . S
C435 H459 0.949 . S
H436 C440 0.949 . S
C437 C438 1.349 . S
C437 C439 1.327 . S
C437 H460 0.950 . S
C438 C437 1.349 . S
C438 C450 1.349 . S
C439 C437 1.327 . S
C439 C455 1.429 . S
C439 H461 0.950 . S
C440 H436 0.949 . S
C440 C448 1.574 . S
C440 C456 1.368 . S
H441 C449 0.950 . S
H442 C447 0.950 . S
H443 C448 0.949 . S
H444 C450 0.950 . S
H445 C451 0.950 . S
H446 C452 0.949 . S
C447 H442 0.950 . S
C447 C449 1.327 . S
C447 C453 1.429 . S
C448 C440 1.574 . S
C448 H443 0.949 . S
C448 C454 1.368 . S
C449 C433 1.349 . S
C449 H441 0.950 . S
C449 C447 1.327 . S
C450 C438 1.349 . S
C450 H444 0.950 . S
C450 C451 1.327 . S
C451 H445 0.950 . S
C451 C450 1.327 . S
C451 C455 1.429 . S
C452 C435 1.574 . S
C452 H446 0.949 . S
C452 C456 1.368 . S
C453 C434 1.429 . S
C453 C447 1.429 . S
C453 C454 1.523 . S
C454 C435 1.368 . S
C454 C448 1.368 . S
C454 C453 1.523 . S
C455 C439 1.429 . S
C455 C451 1.429 . S
C455 C456 1.523 . S
C456 C440 1.368 . S
C456 C452 1.368 . S
C456 C455 1.523 . S
H457 C432 0.950 . S
H458 C434 0.950 . S
H459 C435 0.949 . S
H460 C437 0.950 . S
H461 C439 0.950 . S
C462 C463 1.349 . S
C462 C464 1.327 . S
C462 H487 0.950 . S
C463 C462 1.349 . S
C463 C479 1.349 . S
C464 C462 1.327 . S
C464 C483 1.429 . S
C464 H488 0.950 . S
C465 C482 1.574 . S
C465 C484 1.368 . S
C465 H489 0.949 . S
H466 C470 0.949 . S
C467 C468 1.349 . S
C467 C469 1.327 . S
C467 H490 0.950 . S
C468 C467 1.349 . S
C468 C480 1.349 . S
C469 C467 1.327 . S
C469 C485 1.429 . S
C469 H491 0.950 . S
C470 H466 0.949 . S
C470 C478 1.574 . S
C470 C486 1.368 . S
H471 C479 0.950 . S
H472 C477 0.950 . S
H473 C478 0.949 . S
H474 C480 0.950 . S
H475 C481 0.950 . S
H476 C482 0.949 . S
C477 H472 0.950 . S
C477 C479 1.327 . S
C477 C483 1.429 . S
C478 C470 1.574 . S
C478 H473 0.949 . S
C478 C484 1.368 . S
C479 C463 1.349 . S
C479 H471 0.950 . S
C479 C477 1.327 . S
C480 C468 1.349 . S
C480 H474 0.950 . S
C480 C481 1.327 . S
C481 H475 0.950 . S
C481 C480 1.327 . S
C481 C485 1.429 . S
C482 C465 1.574 . S
C482 H476 0.949 . S
C482 C486 1.368 . S
C483 C464 1.429 . S
C483 C477 1.429 . S
C483 C484 1.523 . S
C484 C465 1.368 . S
C484 C478 1.368 . S
C484 C483 1.523 . S
C485 C469 1.429 . S
C485 C481 1.429 . S
C485 C486 1.523 . S
C486 C470 1.368 . S
C486 C482 1.368 . S
C486 C485 1.523 . S
H487 C462 0.950 . S
H488 C464 0.950 . S
H489 C465 0.949 . S
H490 C467 0.950 . S
H491 C469 0.950 . S
C492 C493 1.349 . S
C492 C494 1.327 . S
C492 H517 0.950 . S
C493 C492 1.349 . S
C493 C509 1.349 . S
C494 C492 1.327 . S
C494 C513 1.429 . S
C494 H518 0.950 . S
C495 C512 1.574 . S
C495 C514 1.368 . S
C495 H519 0.949 . S
H496 C500 0.949 . S
C497 C498 1.349 . S
C497 C499 1.327 . S
C497 H520 0.950 . S
C498 C497 1.349 . S
C498 C510 1.349 . S
C499 C497 1.327 . S
C499 C515 1.429 . S
C499 H521 0.950 . S
C500 H496 0.949 . S
C500 C508 1.574 . S
C500 C516 1.368 . S
H501 C509 0.950 . S
H502 C507 0.950 . S
H503 C508 0.949 . S
H504 C510 0.950 . S
H505 C511 0.950 . S
H506 C512 0.949 . S
C507 H502 0.950 . S
C507 C509 1.327 . S
C507 C513 1.429 . S
C508 C500 1.574 . S
C508 H503 0.949 . S
C508 C514 1.368 . S
C509 C493 1.349 . S
C509 H501 0.950 . S
C509 C507 1.327 . S
C510 C498 1.349 . S
C510 H504 0.950 . S
C510 C511 1.327 . S
C511 H505 0.950 . S
C511 C510 1.327 . S
C511 C515 1.429 . S
C512 C495 1.574 . S
C512 H506 0.949 . S
C512 C516 1.368 . S
C513 C494 1.429 . S
C513 C507 1.429 . S
C513 C514 1.523 . S
C514 C495 1.368 . S
C514 C508 1.368 . S
C514 C513 1.523 . S
C515 C499 1.429 . S
C515 C511 1.429 . S
C515 C516 1.523 . S
C516 C500 1.368 . S
C516 C512 1.368 . S
C516 C515 1.523 . S
H517 C492 0.950 . S
H518 C494 0.950 . S
H519 C495 0.949 . S
H520 C497 0.950 . S
H521 C499 0.950 . S
C522 C523 1.349 . S
C522 C524 1.327 . S
C522 H547 0.950 . S
C523 C522 1.349 . S
C523 C539 1.349 . S
C524 C522 1.327 . S
C524 C543 1.429 . S
C524 H548 0.950 . S
C525 C542 1.574 . S
C525 C544 1.368 . S
C525 H549 0.949 . S
H526 C530 0.949 . S
C527 C528 1.349 . S
C527 C529 1.327 . S
C527 H550 0.950 . S
C528 C527 1.349 . S
C528 C540 1.349 . S
C529 C527 1.327 . S
C529 C545 1.429 . S
C529 H551 0.950 . S
C530 H526 0.949 . S
C530 C538 1.574 . S
C530 C546 1.368 . S
H531 C539 0.950 . S
H532 C537 0.950 . S
H533 C538 0.949 . S
H534 C540 0.950 . S
H535 C541 0.950 . S
H536 C542 0.949 . S
C537 H532 0.950 . S
C537 C539 1.327 . S
C537 C543 1.429 . S
C538 C530 1.574 . S
C538 H533 0.949 . S
C538 C544 1.368 . S
C539 C523 1.349 . S
C539 H531 0.950 . S
C539 C537 1.327 . S
C540 C528 1.349 . S
C540 H534 0.950 . S
C540 C541 1.327 . S
C541 H535 0.950 . S
C541 C540 1.327 . S
C541 C545 1.429 . S
C542 C525 1.574 . S
C542 H536 0.949 . S
C542 C546 1.368 . S
C543 C524 1.429 . S
C543 C537 1.429 . S
C543 C544 1.523 . S
C544 C525 1.368 . S
C544 C538 1.368 . S
C544 C543 1.523 . S
C545 C529 1.429 . S
C545 C541 1.429 . S
C545 C546 1.523 . S
C546 C530 1.368 . S
C546 C542 1.368 . S
C546 C545 1.523 . S
H547 C522 0.950 . S
H548 C524 0.950 . S
H549 C525 0.949 . S
H550 C527 0.950 . S
H551 C529 0.950 . S
C552 C553 1.349 . S
C552 C554 1.327 . S
C552 H577 0.950 . S
C553 C552 1.349 . S
C553 C569 1.349 . S
C554 C552 1.327 . S
C554 C573 1.429 . S
C554 H578 0.950 . S
C555 C572 1.574 . S
C555 C574 1.368 . S
C555 H579 0.949 . S
H556 C560 0.949 . S
C557 C558 1.349 . S
C557 C559 1.327 . S
C557 H580 0.950 . S
C558 C557 1.349 . S
C558 C570 1.349 . S
C559 C557 1.327 . S
C559 C575 1.429 . S
C559 H581 0.950 . S
C560 H556 0.949 . S
C560 C568 1.574 . S
C560 C576 1.368 . S
H561 C569 0.950 . S
H562 C567 0.950 . S
H563 C568 0.949 . S
H564 C570 0.950 . S
H565 C571 0.950 . S
H566 C572 0.949 . S
C567 H562 0.950 . S
C567 C569 1.327 . S
C567 C573 1.429 . S
C568 C560 1.574 . S
C568 H563 0.949 . S
C568 C574 1.368 . S
C569 C553 1.349 . S
C569 H561 0.950 . S
C569 C567 1.327 . S
C570 C558 1.349 . S
C570 H564 0.950 . S
C570 C571 1.327 . S
C571 H565 0.950 . S
C571 C570 1.327 . S
C571 C575 1.429 . S
C572 C555 1.574 . S
C572 H566 0.949 . S
C572 C576 1.368 . S
C573 C554 1.429 . S
C573 C567 1.429 . S
C573 C574 1.523 . S
C574 C555 1.368 . S
C574 C568 1.368 . S
C574 C573 1.523 . S
C575 C559 1.429 . S
C575 C571 1.429 . S
C575 C576 1.523 . S
C576 C560 1.368 . S
C576 C572 1.368 . S
C576 C575 1.523 . S
H577 C552 0.950 . S
H578 C554 0.950 . S
H579 C555 0.949 . S
H580 C557 0.950 . S
H581 C559 0.950 . S
C582 C583 1.349 . S
C582 C584 1.327 . S
C582 H607 0.950 . S
C583 C582 1.349 . S
C583 C599 1.349 . S
C584 C582 1.327 . S
C584 C603 1.429 . S
C584 H608 0.950 . S
C585 C602 1.574 . S
C585 C604 1.368 . S
C585 H609 0.949 . S
H586 C590 0.949 . S
C587 C588 1.349 . S
C587 C589 1.327 . S
C587 H610 0.950 . S
C588 C587 1.349 . S
C588 C600 1.349 . S
C589 C587 1.327 . S
C589 C605 1.429 . S
C589 H611 0.950 . S
C590 H586 0.949 . S
C590 C598 1.574 . S
C590 C606 1.368 . S
H591 C599 0.950 . S
H592 C597 0.950 . S
H593 C598 0.949 . S
H594 C600 0.950 . S
H595 C601 0.950 . S
H596 C602 0.949 . S
C597 H592 0.950 . S
C597 C599 1.327 . S
C597 C603 1.429 . S
C598 C590 1.574 . S
C598 H593 0.949 . S
C598 C604 1.368 . S
C599 C583 1.349 . S
C599 H591 0.950 . S
C599 C597 1.327 . S
C600 C588 1.349 . S
C600 H594 0.950 . S
C600 C601 1.327 . S
C601 H595 0.950 . S
C601 C600 1.327 . S
C601 C605 1.429 . S
C602 C585 1.574 . S
C602 H596 0.949 . S
C602 C606 1.368 . S
C603 C584 1.429 . S
C603 C597 1.429 . S
C603 C604 1.523 . S
C604 C585 1.368 . S
C604 C598 1.368 . S
C604 C603 1.523 . S
C605 C589 1.429 . S
C605 C601 1.429 . S
C605 C606 1.523 . S
C606 C590 1.368 . S
C606 C602 1.368 . S
C606 C605 1.523 . S
H607 C582 0.950 . S
H608 C584 0.950 . S
H609 C585 0.949 . S
H610 C587 0.950 . S
H611 C589 0.950 . S
C612 C613 1.349 . S
C612 C614 1.327 . S
C612 H637 0.950 . S
C613 C612 1.349 . S
C613 C629 1.349 . S
C614 C612 1.327 . S
C614 C633 1.429 . S
C614 H638 0.950 . S
C615 C632 1.574 . S
C615 C634 1.368 . S
C615 H639 0.949 . S
H616 C620 0.949 . S
C617 C618 1.349 . S
C617 C619 1.327 . S
C617 H640 0.950 . S
C618 C617 1.349 . S
C618 C630 1.349 . S
C619 C617 1.327 . S
C619 C635 1.429 . S
C619 H641 0.950 . S
C620 H616 0.949 . S
C620 C628 1.574 . S
C620 C636 1.368 . S
H621 C629 0.950 . S
H622 C627 0.950 . S
H623 C628 0.949 . S
H624 C630 0.950 . S
H625 C631 0.950 . S
H626 C632 0.949 . S
C627 H622 0.950 . S
C627 C629 1.327 . S
C627 C633 1.429 . S
C628 C620 1.574 . S
C628 H623 0.949 . S
C628 C634 1.368 . S
C629 C613 1.349 . S
C629 H621 0.950 . S
C629 C627 1.327 . S
C630 C618 1.349 . S
C630 H624 0.950 . S
C630 C631 1.327 . S
C631 H625 0.950 . S
C631 C630 1.327 . S
C631 C635 1.429 . S
C632 C615 1.574 . S
C632 H626 0.949 . S
C632 C636 1.368 . S
C633 C614 1.429 . S
C633 C627 1.429 . S
C633 C634 1.523 . S
C634 C615 1.368 . S
C634 C628 1.368 . S
C634 C633 1.523 . S
C635 C619 1.429 . S
C635 C631 1.429 . S
C635 C636 1.523 . S
C636 C620 1.368 . S
C636 C632 1.368 . S
C636 C635 1.523 . S
H637 C612 0.950 . S
H638 C614 0.950 . S
H639 C615 0.949 . S
H640 C617 0.950 . S
H641 C619 0.950 . S
C642 C643 1.349 . S
C642 C644 1.327 . S
C642 H667 0.950 . S
C643 C642 1.349 . S
C643 C659 1.349 . S
C644 C642 1.327 . S
C644 C663 1.429 . S
C644 H668 0.950 . S
C645 C662 1.574 . S
C645 C664 1.368 . S
C645 H669 0.949 . S
H646 C650 0.949 . S
C647 C648 1.349 . S
C647 C649 1.327 . S
C647 H670 0.950 . S
C648 C647 1.349 . S
C648 C660 1.349 . S
C649 C647 1.327 . S
C649 C665 1.429 . S
C649 H671 0.950 . S
C650 H646 0.949 . S
C650 C658 1.574 . S
C650 C666 1.368 . S
H651 C659 0.950 . S
H652 C657 0.950 . S
H653 C658 0.949 . S
H654 C660 0.950 . S
H655 C661 0.950 . S
H656 C662 0.949 . S
C657 H652 0.950 . S
C657 C659 1.327 . S
C657 C663 1.429 . S
C658 C650 1.574 . S
C658 H653 0.949 . S
C658 C664 1.368 . S
C659 C643 1.349 . S
C659 H651 0.950 . S
C659 C657 1.327 . S
C660 C648 1.349 . S
C660 H654 0.950 . S
C660 C661 1.327 . S
C661 H655 0.950 . S
C661 C660 1.327 . S
C661 C665 1.429 . S
C662 C645 1.574 . S
C662 H656 0.949 . S
C662 C666 1.368 . S
C663 C644 1.429 . S
C663 C657 1.429 . S
C663 C664 1.523 . S
C664 C645 1.368 . S
C664 C658 1.368 . S
C664 C663 1.523 . S
C665 C649 1.429 . S
C665 C661 1.429 . S
C665 C666 1.523 . S
C666 C650 1.368 . S
C666 C662 1.368 . S
C666 C665 1.523 . S
H667 C642 0.950 . S
H668 C644 0.950 . S
H669 C645 0.949 . S
H670 C647 0.950 . S
H671 C649 0.950 . S
C672 C673 1.349 . S
C672 C674 1.327 . S
C672 H697 0.950 . S
C673 C672 1.349 . S
C673 C689 1.349 . S
C674 C672 1.327 . S
C674 C693 1.429 . S
C674 H698 0.950 . S
C675 C692 1.574 . S
C675 C694 1.368 . S
C675 H699 0.949 . S
H676 C680 0.949 . S
C677 C678 1.349 . S
C677 C679 1.327 . S
C677 H700 0.950 . S
C678 C677 1.349 . S
C678 C690 1.349 . S
C679 C677 1.327 . S
C679 C695 1.429 . S
C679 H701 0.950 . S
C680 H676 0.949 . S
C680 C688 1.574 . S
C680 C696 1.368 . S
H681 C689 0.950 . S
H682 C687 0.950 . S
H683 C688 0.949 . S
H684 C690 0.950 . S
H685 C691 0.950 . S
H686 C692 0.949 . S
C687 H682 0.950 . S
C687 C689 1.327 . S
C687 C693 1.429 . S
C688 C680 1.574 . S
C688 H683 0.949 . S
C688 C694 1.368 . S
C689 C673 1.349 . S
C689 H681 0.950 . S
C689 C687 1.327 . S
C690 C678 1.349 . S
C690 H684 0.950 . S
C690 C691 1.327 . S
C691 H685 0.950 . S
C691 C690 1.327 . S
C691 C695 1.429 . S
C692 C675 1.574 . S
C692 H686 0.949 . S
C692 C696 1.368 . S
C693 C674 1.429 . S
C693 C687 1.429 . S
C693 C694 1.523 . S
C694 C675 1.368 . S
C694 C688 1.368 . S
C694 C693 1.523 . S
C695 C679 1.429 . S
C695 C691 1.429 . S
C695 C696 1.523 . S
C696 C680 1.368 . S
C696 C692 1.368 . S
C696 C695 1.523 . S
H697 C672 0.950 . S
H698 C674 0.950 . S
H699 C675 0.949 . S
H700 C677 0.950 . S
H701 C679 0.950 . S
C702 C703 1.349 . S
C702 C704 1.327 . S
C702 H727 0.950 . S
C703 C702 1.349 . S
C703 C719 1.349 . S
C704 C702 1.327 . S
C704 C723 1.429 . S
C704 H728 0.950 . S
C705 C722 1.574 . S
C705 C724 1.368 . S
C705 H729 0.949 . S
H706 C710 0.949 . S
C707 C708 1.349 . S
C707 C709 1.327 . S
C707 H730 0.950 . S
C708 C707 1.349 . S
C708 C720 1.349 . S
C709 C707 1.327 . S
C709 C725 1.429 . S
C709 H731 0.950 . S
C710 H706 0.949 . S
C710 C718 1.574 . S
C710 C726 1.368 . S
H711 C719 0.950 . S
H712 C717 0.950 . S
H713 C718 0.949 . S
H714 C720 0.950 . S
H715 C721 0.950 . S
H716 C722 0.949 . S
C717 H712 0.950 . S
C717 C719 1.327 . S
C717 C723 1.429 . S
C718 C710 1.574 . S
C718 H713 0.949 . S
C718 C724 1.368 . S
C719 C703 1.349 . S
C719 H711 0.950 . S
C719 C717 1.327 . S
C720 C708 1.349 . S
C720 H714 0.950 . S
C720 C721 1.327 . S
C721 H715 0.950 . S
C721 C720 1.327 . S
C721 C725 1.429 . S
C722 C705 1.574 . S
C722 H716 0.949 . S
C722 C726 1.368 . S
C723 C704 1.429 . S
C723 C717 1.429 . S
C723 C724 1.523 . S
C724 C705 1.368 . S
C724 C718 1.368 . S
C724 C723 1.523 . S
C725 C709 1.429 . S
C725 C721 1.429 . S
C725 C726 1.523 . S
C726 C710 1.368 . S
C726 C722 1.368 . S
C726 C725 1.523 . S
H727 C702 0.950 . S
H728 C704 0.950 . S
H729 C705 0.949 . S
H730 C707 0.950 . S
H731 C709 0.950 . S
C732 C733 1.349 . S
C732 C734 1.327 . S
C732 H757 0.950 . S
C733 C732 1.349 . S
C733 C749 1.349 . S
C734 C732 1.327 . S
C734 C753 1.429 . S
C734 H758 0.950 . S
C735 C752 1.574 . S
C735 C754 1.368 . S
C735 H759 0.949 . S
H736 C740 0.949 . S
C737 C738 1.349 . S
C737 C739 1.327 . S
C737 H760 0.950 . S
C738 C737 1.349 . S
C738 C750 1.349 . S
C739 C737 1.327 . S
C739 C755 1.429 . S
C739 H761 0.950 . S
C740 H736 0.949 . S
C740 C748 1.574 . S
C740 C756 1.368 . S
H741 C749 0.950 . S
H742 C747 0.950 . S
H743 C748 0.949 . S
H744 C750 0.950 . S
H745 C751 0.950 . S
H746 C752 0.949 . S
C747 H742 0.950 . S
C747 C749 1.327 . S
C747 C753 1.429 . S
C748 C740 1.574 . S
C748 H743 0.949 . S
C748 C754 1.368 . S
C749 C733 1.349 . S
C749 H741 0.950 . S
C749 C747 1.327 . S
C750 C738 1.349 . S
C750 H744 0.950 . S
C750 C751 1.327 . S
C751 H745 0.950 . S
C751 C750 1.327 . S
C751 C755 1.429 . S
C752 C735 1.574 . S
C752 H746 0.949 . S
C752 C756 1.368 . S
C753 C734 1.429 . S
C753 C747 1.429 . S
C753 C754 1.523 . S
C754 C735 1.368 . S
C754 C748 1.368 . S
C754 C753 1.523 . S
C755 C739 1.429 . S
C755 C751 1.429 . S
C755 C756 1.523 . S
C756 C740 1.368 . S
C756 C752 1.368 . S
C756 C755 1.523 . S
H757 C732 0.950 . S
H758 C734 0.950 . S
H759 C735 0.949 . S
H760 C737 0.950 . S
H761 C739 0.950 . S
C762 C763 1.349 . S
C762 C764 1.327 . S
C762 H787 0.950 . S
C763 C762 1.349 . S
C763 C779 1.349 . S
C764 C762 1.327 . S
C764 C783 1.429 . S
C764 H788 0.950 . S
C765 C782 1.574 . S
C765 C784 1.368 . S
C765 H789 0.949 . S
H766 C770 0.949 . S
C767 C768 1.349 . S
C767 C769 1.327 . S
C767 H790 0.950 . S
C768 C767 1.349 . S
C768 C780 1.349 . S
C769 C767 1.327 . S
C769 C785 1.429 . S
C769 H791 0.950 . S
C770 H766 0.949 . S
C770 C778 1.574 . S
C770 C786 1.368 . S
H771 C779 0.950 . S
H772 C777 0.950 . S
H773 C778 0.949 . S
H774 C780 0.950 . S
H775 C781 0.950 . S
H776 C782 0.949 . S
C777 H772 0.950 . S
C777 C779 1.327 . S
C777 C783 1.429 . S
C778 C770 1.574 . S
C778 H773 0.949 . S
C778 C784 1.368 . S
C779 C763 1.349 . S
C779 H771 0.950 . S
C779 C777 1.327 . S
C780 C768 1.349 . S
C780 H774 0.950 . S
C780 C781 1.327 . S
C781 H775 0.950 . S
C781 C780 1.327 . S
C781 C785 1.429 . S
C782 C765 1.574 . S
C782 H776 0.949 . S
C782 C786 1.368 . S
C783 C764 1.429 . S
C783 C777 1.429 . S
C783 C784 1.523 . S
C784 C765 1.368 . S
C784 C778 1.368 . S
C784 C783 1.523 . S
C785 C769 1.429 . S
C785 C781 1.429 . S
C785 C786 1.523 . S
C786 C770 1.368 . S
C786 C782 1.368 . S
C786 C785 1.523 . S
H787 C762 0.950 . S
H788 C764 0.950 . S
H789 C765 0.949 . S
H790 C767 0.950 . S
H791 C769 0.950 . S
C792 C793 1.349 . S
C792 C794 1.327 . S
C792 H817 0.950 . S
C793 C792 1.349 . S
C793 C809 1.349 . S
C794 C792 1.327 . S
C794 C813 1.429 . S
C794 H818 0.950 . S
C795 C812 1.574 . S
C795 C814 1.368 . S
C795 H819 0.949 . S
H796 C800 0.949 . S
C797 C798 1.349 . S
C797 C799 1.327 . S
C797 H820 0.950 . S
C798 C797 1.349 . S
C798 C810 1.349 . S
C799 C797 1.327 . S
C799 C815 1.429 . S
C799 H821 0.950 . S
C800 H796 0.949 . S
C800 C808 1.574 . S
C800 C816 1.368 . S
H801 C809 0.950 . S
H802 C807 0.950 . S
H803 C808 0.949 . S
H804 C810 0.950 . S
H805 C811 0.950 . S
H806 C812 0.949 . S
C807 H802 0.950 . S
C807 C809 1.327 . S
C807 C813 1.429 . S
C808 C800 1.574 . S
C808 H803 0.949 . S
C808 C814 1.368 . S
C809 C793 1.349 . S
C809 H801 0.950 . S
C809 C807 1.327 . S
C810 C798 1.349 . S
C810 H804 0.950 . S
C810 C811 1.327 . S
C811 H805 0.950 . S
C811 C810 1.327 . S
C811 C815 1.429 . S
C812 C795 1.574 . S
C812 H806 0.949 . S
C812 C816 1.368 . S
C813 C794 1.429 . S
C813 C807 1.429 . S
C813 C814 1.523 . S
C814 C795 1.368 . S
C814 C808 1.368 . S
C814 C813 1.523 . S
C815 C799 1.429 . S
C815 C811 1.429 . S
C815 C816 1.523 . S
C816 C800 1.368 . S
C816 C812 1.368 . S
C816 C815 1.523 . S
H817 C792 0.950 . S
H818 C794 0.950 . S
H819 C795 0.949 . S
H820 C797 0.950 . S
H821 C799 0.950 . S
C822 C823 1.349 . S
C822 C824 1.327 . S
C822 H847 0.950 . S
C823 C822 1.349 . S
C823 C839 1.349 . S
C824 C822 1.327 . S
C824 C843 1.429 . S
C824 H848 0.950 . S
C825 C842 1.574 . S
C825 C844 1.368 . S
C825 H849 0.949 . S
H826 C830 0.949 . S
C827 C828 1.349 . S
C827 C829 1.327 . S
C827 H850 0.950 . S
C828 C827 1.349 . S
C828 C840 1.349 . S
C829 C827 1.327 . S
C829 C845 1.429 . S
C829 H851 0.950 . S
C830 H826 0.949 . S
C830 C838 1.574 . S
C830 C846 1.368 . S
H831 C839 0.950 . S
H832 C837 0.950 . S
H833 C838 0.949 . S
H834 C840 0.950 . S
H835 C841 0.950 . S
H836 C842 0.949 . S
C837 H832 0.950 . S
C837 C839 1.327 . S
C837 C843 1.429 . S
C838 C830 1.574 . S
C838 H833 0.949 . S
C838 C844 1.368 . S
C839 C823 1.349 . S
C839 H831 0.950 . S
C839 C837 1.327 . S
C840 C828 1.349 . S
C840 H834 0.950 . S
C840 C841 1.327 . S
C841 H835 0.950 . S
C841 C840 1.327 . S
C841 C845 1.429 . S
C842 C825 1.574 . S
C842 H836 0.949 . S
C842 C846 1.368 . S
C843 C824 1.429 . S
C843 C837 1.429 . S
C843 C844 1.523 . S
C844 C825 1.368 . S
C844 C838 1.368 . S
C844 C843 1.523 . S
C845 C829 1.429 . S
C845 C841 1.429 . S
C845 C846 1.523 . S
C846 C830 1.368 . S
C846 C842 1.368 . S
C846 C845 1.523 . S
H847 C822 0.950 . S
H848 C824 0.950 . S
H849 C825 0.949 . S
H850 C827 0.950 . S
H851 C829 0.950 . S
C852 C853 1.349 . S
C852 C854 1.327 . S
C852 H877 0.950 . S
C853 C852 1.349 . S
C853 C869 1.349 . S
C854 C852 1.327 . S
C854 C873 1.429 . S
C854 H878 0.950 . S
C855 C872 1.574 . S
C855 C874 1.368 . S
C855 H879 0.949 . S
H856 C860 0.949 . S
C857 C858 1.349 . S
C857 C859 1.327 . S
C857 H880 0.950 . S
C858 C857 1.349 . S
C858 C870 1.349 . S
C859 C857 1.327 . S
C859 C875 1.429 . S
C859 H881 0.950 . S
C860 H856 0.949 . S
C860 C868 1.574 . S
C860 C876 1.368 . S
H861 C869 0.950 . S
H862 C867 0.950 . S
H863 C868 0.949 . S
H864 C870 0.950 . S
H865 C871 0.950 . S
H866 C872 0.949 . S
C867 H862 0.950 . S
C867 C869 1.327 . S
C867 C873 1.429 . S
C868 C860 1.574 . S
C868 H863 0.949 . S
C868 C874 1.368 . S
C869 C853 1.349 . S
C869 H861 0.950 . S
C869 C867 1.327 . S
C870 C858 1.349 . S
C870 H864 0.950 . S
C870 C871 1.327 . S
C871 H865 0.950 . S
C871 C870 1.327 . S
C871 C875 1.429 . S
C872 C855 1.574 . S
C872 H866 0.949 . S
C872 C876 1.368 . S
C873 C854 1.429 . S
C873 C867 1.429 . S
C873 C874 1.523 . S
C874 C855 1.368 . S
C874 C868 1.368 . S
C874 C873 1.523 . S
C875 C859 1.429 . S
C875 C871 1.429 . S
C875 C876 1.523 . S
C876 C860 1.368 . S
C876 C872 1.368 . S
C876 C875 1.523 . S
H877 C852 0.950 . S
H878 C854 0.950 . S
H879 C855 0.949 . S
H880 C857 0.950 . S
H881 C859 0.950 . S
C882 C883 1.349 . S
C882 C884 1.327 . S
C882 H907 0.950 . S
C883 C882 1.349 . S
C883 C899 1.349 . S
C884 C882 1.327 . S
C884 C903 1.429 . S
C884 H908 0.950 . S
C885 C902 1.574 . S
C885 C904 1.368 . S
C885 H909 0.949 . S
H886 C890 0.949 . S
C887 C888 1.349 . S
C887 C889 1.327 . S
C887 H910 0.950 . S
C888 C887 1.349 . S
C888 C900 1.349 . S
C889 C887 1.327 . S
C889 C905 1.429 . S
C889 H911 0.950 . S
C890 H886 0.949 . S
C890 C898 1.574 . S
C890 C906 1.368 . S
H891 C899 0.950 . S
H892 C897 0.950 . S
H893 C898 0.949 . S
H894 C900 0.950 . S
H895 C901 0.950 . S
H896 C902 0.949 . S
C897 H892 0.950 . S
C897 C899 1.327 . S
C897 C903 1.429 . S
C898 C890 1.574 . S
C898 H893 0.949 . S
C898 C904 1.368 . S
C899 C883 1.349 . S
C899 H891 0.950 . S
C899 C897 1.327 . S
C900 C888 1.349 . S
C900 H894 0.950 . S
C900 C901 1.327 . S
C901 H895 0.950 . S
C901 C900 1.327 . S
C901 C905 1.429 . S
C902 C885 1.574 . S
C902 H896 0.949 . S
C902 C906 1.368 . S
C903 C884 1.429 . S
C903 C897 1.429 . S
C903 C904 1.523 . S
C904 C885 1.368 . S
C904 C898 1.368 . S
C904 C903 1.523 . S
C905 C889 1.429 . S
C905 C901 1.429 . S
C905 C906 1.523 . S
C906 C890 1.368 . S
C906 C902 1.368 . S
C906 C905 1.523 . S
H907 C882 0.950 . S
H908 C884 0.950 . S
H909 C885 0.949 . S
H910 C887 0.950 . S
H911 C889 0.950 . S
C912 C913 1.349 . S
C912 C914 1.327 . S
C912 H937 0.950 . S
C913 C912 1.349 . S
C913 C929 1.349 . S
C914 C912 1.327 . S
C914 C933 1.429 . S
C914 H938 0.950 . S
C915 C932 1.574 . S
C915 C934 1.368 . S
C915 H939 0.949 . S
H916 C920 0.949 . S
C917 C918 1.349 . S
C917 C919 1.327 . S
C917 H940 0.950 . S
C918 C917 1.349 . S
C918 C930 1.349 . S
C919 C917 1.327 . S
C919 C935 1.429 . S
C919 H941 0.950 . S
C920 H916 0.949 . S
C920 C928 1.574 . S
C920 C936 1.368 . S
H921 C929 0.950 . S
H922 C927 0.950 . S
H923 C928 0.949 . S
H924 C930 0.950 . S
H925 C931 0.950 . S
H926 C932 0.949 . S
C927 H922 0.950 . S
C927 C929 1.327 . S
C927 C933 1.429 . S
C928 C920 1.574 . S
C928 H923 0.949 . S
C928 C934 1.368 . S
C929 C913 1.349 . S
C929 H921 0.950 . S
C929 C927 1.327 . S
C930 C918 1.349 . S
C930 H924 0.950 . S
C930 C931 1.327 . S
C931 H925 0.950 . S
C931 C930 1.327 . S
C931 C935 1.429 . S
C932 C915 1.574 . S
C932 H926 0.949 . S
C932 C936 1.368 . S
C933 C914 1.429 . S
C933 C927 1.429 . S
C933 C934 1.523 . S
C934 C915 1.368 . S
C934 C928 1.368 . S
C934 C933 1.523 . S
C935 C919 1.429 . S
C935 C931 1.429 . S
C935 C936 1.523 . S
C936 C920 1.368 . S
C936 C932 1.368 . S
C936 C935 1.523 . S
H937 C912 0.950 . S
H938 C914 0.950 . S
H939 C915 0.949 . S
H940 C917 0.950 . S
H941 C919 0.950 . S
C223 C13 2.077 . S
C228 C91 2.046 . S
C253 C27 1.418 . S
C258 N109 1.408 . S
C288 C137 2.046 . S
C283 C29 2.077 . S
C318 N155 1.409 . S
C313 C54 1.418 . S
C348 C183 2.046 . S
C343 C69 2.077 . S
C378 N201 1.409 . S
C373 C83 1.418 . S
C403 C15 2.071 . S
C408 C146 2.065 . S
C433 C41 1.420 . S
C438 N165 1.349 . S
C468 C192 2.065 . S
C463 C42 2.070 . S
C498 N211 1.349 . S
C493 C57 1.420 . S
C523 C71 2.070 . S
C528 C100 2.065 . S
C558 N119 1.348 . S
C553 C1 1.419 . S
C588 C169 1.887 . S
C583 C12 1.945 . S
C613 C26 1.282 . S
C618 N188 1.257 . S
C648 C215 1.887 . S
C643 C28 1.945 . S
C673 C55 1.283 . S
C678 N96 1.257 . S
C703 C68 1.945 . S
C708 C123 1.887 . S
C733 C82 1.283 . S
C738 N142 1.257 . S
C763 C14 1.955 . S
C768 C206 1.933 . S
C798 N86 1.199 . S
C793 C40 1.281 . S
C823 C43 1.954 . S
C828 C114 1.932 . S
C853 C56 1.281 . S
C858 N132 1.199 . S
C883 C70 1.955 . S
C888 C160 1.932 . S
C913 C0 1.281 . S
C918 N178 1.198 . S
