# Generated by pormake.
# Topology pyr, (3,6)-cn, num edge types: 1
# Building blocks:
#     Node 0, Type 0, BuildingBlock: OLANEW_clean_sbu_2, # of connection points: 3
#     Node 1, Type 0, BuildingBlock: OLANEW_clean_sbu_2, # of connection points: 3
#     Node 2, Type 0, BuildingBlock: OLANEW_clean_sbu_2, # of connection points: 3
#     Node 3, Type 0, BuildingBlock: OLANEW_clean_sbu_2, # of connection points: 3
#     Node 4, Type 0, BuildingBlock: OLANEW_clean_sbu_2, # of connection points: 3
#     Node 5, Type 0, BuildingBlock: OLANEW_clean_sbu_2, # of connection points: 3
#     Node 6, Type 0, BuildingBlock: OLANEW_clean_sbu_2, # of connection points: 3
#     Node 7, Type 0, BuildingBlock: OLANEW_clean_sbu_2, # of connection points: 3
#     Node 8, Type 1, BuildingBlock: BETDAH_clean_sbu_0, # of connection points: 6
#     Node 9, Type 1, BuildingBlock: BETDAH_clean_sbu_0, # of connection points: 6
#     Node 10, Type 1, BuildingBlock: BETDAH_clean_sbu_0, # of connection points: 6
#     Node 11, Type 1, BuildingBlock: BETDAH_clean_sbu_0, # of connection points: 6
#     Edge 12, Type (0, 1), BuildingBlock: MIFKUJ_clean_linker_0, # of connection points: 2
#     Edge 13, Type (0, 1), BuildingBlock: MIFKUJ_clean_linker_0, # of connection points: 2
#     Edge 14, Type (0, 1), BuildingBlock: MIFKUJ_clean_linker_0, # of connection points: 2
#     Edge 15, Type (0, 1), BuildingBlock: MIFKUJ_clean_linker_0, # of connection points: 2
#     Edge 16, Type (0, 1), BuildingBlock: MIFKUJ_clean_linker_0, # of connection points: 2
#     Edge 17, Type (0, 1), BuildingBlock: MIFKUJ_clean_linker_0, # of connection points: 2
#     Edge 18, Type (0, 1), BuildingBlock: MIFKUJ_clean_linker_0, # of connection points: 2
#     Edge 19, Type (0, 1), BuildingBlock: MIFKUJ_clean_linker_0, # of connection points: 2
#     Edge 20, Type (0, 1), BuildingBlock: MIFKUJ_clean_linker_0, # of connection points: 2
#     Edge 21, Type (0, 1), BuildingBlock: MIFKUJ_clean_linker_0, # of connection points: 2
#     Edge 22, Type (0, 1), BuildingBlock: MIFKUJ_clean_linker_0, # of connection points: 2
#     Edge 23, Type (0, 1), BuildingBlock: MIFKUJ_clean_linker_0, # of connection points: 2
#     Edge 24, Type (0, 1), BuildingBlock: MIFKUJ_clean_linker_0, # of connection points: 2
#     Edge 25, Type (0, 1), BuildingBlock: MIFKUJ_clean_linker_0, # of connection points: 2
#     Edge 26, Type (0, 1), BuildingBlock: MIFKUJ_clean_linker_0, # of connection points: 2
#     Edge 27, Type (0, 1), BuildingBlock: MIFKUJ_clean_linker_0, # of connection points: 2
#     Edge 28, Type (0, 1), BuildingBlock: MIFKUJ_clean_linker_0, # of connection points: 2
#     Edge 29, Type (0, 1), BuildingBlock: MIFKUJ_clean_linker_0, # of connection points: 2
#     Edge 30, Type (0, 1), BuildingBlock: MIFKUJ_clean_linker_0, # of connection points: 2
#     Edge 31, Type (0, 1), BuildingBlock: MIFKUJ_clean_linker_0, # of connection points: 2
#     Edge 32, Type (0, 1), BuildingBlock: MIFKUJ_clean_linker_0, # of connection points: 2
#     Edge 33, Type (0, 1), BuildingBlock: MIFKUJ_clean_linker_0, # of connection points: 2
#     Edge 34, Type (0, 1), BuildingBlock: MIFKUJ_clean_linker_0, # of connection points: 2
#     Edge 35, Type (0, 1), BuildingBlock: MIFKUJ_clean_linker_0, # of connection points: 2
# Relax obj value: 0.095
# Max RMSD: 0.161
# Mean RMSD: 0.120
data_MOF--net-pyr--node1-OLANEW_clean_sbu_2--node2-BETDAH_clean_sbu_0--edge1-MIFKUJ_clean_linker_0
_symmetry_space_group_name_H-M    P1
_symmetry_Int_Tables_number       1
_symmetry_cell_setting            triclinic
loop_
_symmetry_equiv_pos_as_xyz
'x, y, z'
_cell_length_a     51.762472
_cell_length_b     56.655178
_cell_length_c     49.797138
_cell_angle_alpha  96.107652
_cell_angle_beta   87.896199
_cell_angle_gamma 102.00115
loop_
_atom_site_label
_atom_site_type_symbol
_atom_site_fract_x
_atom_site_fract_y
_atom_site_fract_z
_atom_type_partial_charge
O0 O 0.35195 0.27348 0.18708 0.0
Cd1 Cd 0.33183 0.30668 0.2085 0.0
O2 O 0.32822 0.25339 0.21749 0.0
Cd3 Cd 0.31343 0.22464 0.2433 0.0
O4 O 0.28679 0.20883 0.27441 0.0
C5 C 0.29474 0.20362 0.29645 0.0
O6 O 0.32021 0.20664 0.30044 0.0
C7 C 0.34519 0.25396 0.19834 0.0
C8 C 0.29644 0.32529 0.17984 0.0
O9 O 0.32108 0.33518 0.1805 0.0
O10 O 0.2887 0.30599 0.19173 0.0
O11 O 0.31848 0.88458 0.67072 0.0
Cd12 Cd 0.29484 0.87252 0.62817 0.0
O13 O 0.30013 0.85192 0.69022 0.0
Cd14 Cd 0.2701 0.84192 0.65964 0.0
O15 O 0.23771 0.85269 0.64116 0.0
C16 C 0.23307 0.87275 0.65197 0.0
O17 O 0.24765 0.88423 0.67228 0.0
C18 C 0.31695 0.8718 0.69048 0.0
C19 C 0.31668 0.83641 0.59924 0.0
O20 O 0.32621 0.85886 0.59688 0.0
O21 O 0.29634 0.83109 0.61456 0.0
O22 O 0.7032 0.39209 0.85998 0.0
Cd23 Cd 0.66068 0.38307 0.8338 0.0
O24 O 0.69816 0.3615 0.8856 0.0
Cd25 Cd 0.67345 0.32686 0.89919 0.0
O26 O 0.64781 0.29469 0.91693 0.0
C27 C 0.65515 0.27454 0.91725 0.0
O28 O 0.67826 0.27254 0.90653 0.0
C29 C 0.71207 0.38114 0.8778 0.0
C30 C 0.65033 0.40866 0.78996 0.0
O31 O 0.64777 0.41705 0.81465 0.0
O32 O 0.65911 0.38899 0.78575 0.0
O33 O 0.90419 0.7245 0.36462 0.0
Cd34 Cd 0.87941 0.68745 0.3392 0.0
O35 O 0.89029 0.71239 0.40423 0.0
Cd36 Cd 0.8655 0.6775 0.39025 0.0
O37 O 0.82987 0.65118 0.39933 0.0
C38 C 0.80812 0.65814 0.39867 0.0
O39 O 0.8083 0.67956 0.39073 0.0
C40 C 0.90357 0.7284 0.39029 0.0
C41 C 0.90522 0.66325 0.29766 0.0
O42 O 0.89721 0.68258 0.29394 0.0
O43 O 0.90197 0.65583 0.32124 0.0
O44 O 0.72365 0.75684 0.79414 0.0
Cd45 Cd 0.69991 0.72518 0.82061 0.0
O46 O 0.70942 0.78396 0.82227 0.0
Cd47 Cd 0.70298 0.82004 0.83769 0.0
O48 O 0.68468 0.84794 0.86012 0.0
C49 C 0.66282 0.85164 0.85242 0.0
O50 O 0.65219 0.83931 0.83028 0.0
C51 C 0.72306 0.77888 0.80152 0.0
C52 C 0.73469 0.701 0.84224 0.0
O53 O 0.72348 0.69287 0.81963 0.0
O54 O 0.7294 0.7205 0.85458 0.0
O55 O 0.68347 0.13454 0.47521 0.0
Cd56 Cd 0.7019 0.14441 0.51999 0.0
O57 O 0.71388 0.16558 0.46587 0.0
Cd58 Cd 0.73589 0.19485 0.44392 0.0
O59 O 0.72961 0.23174 0.44682 0.0
C60 C 0.70954 0.23377 0.46167 0.0
O61 O 0.69639 0.21455 0.47247 0.0
C62 C 0.69447 0.14873 0.45817 0.0
C63 C 0.74929 0.12895 0.51974 0.0
O64 O 0.72761 0.11555 0.52707 0.0
O65 O 0.74865 0.14998 0.51287 0.0
O66 O 0.40642 0.76069 0.23479 0.0
Cd67 Cd 0.39312 0.72064 0.25568 0.0
O68 O 0.37961 0.75509 0.1993 0.0
Cd69 Cd 0.34905 0.72078 0.19673 0.0
O70 O 0.31089 0.69738 0.18164 0.0
C71 C 0.30982 0.67951 0.16352 0.0
O72 O 0.33204 0.67398 0.15394 0.0
C73 C 0.39851 0.76799 0.21355 0.0
C74 C 0.41703 0.70415 0.29964 0.0
O75 O 0.42644 0.7024 0.27547 0.0
O76 O 0.39761 0.71502 0.30359 0.0
O77 O 0.17386 0.40905 0.73778 0.0
Cd78 Cd 0.19103 0.38929 0.69652 0.0
O79 O 0.14911 0.3749 0.74935 0.0
Cd80 Cd 0.15748 0.34974 0.71511 0.0
O81 O 0.14985 0.3141 0.69134 0.0
C82 C 0.12746 0.3006 0.69546 0.0
O83 O 0.1109 0.30903 0.71269 0.0
C84 C 0.15754 0.39769 0.7541 0.0
C85 C 0.23824 0.41505 0.6752 0.0
O86 O 0.21578 0.41891 0.66895 0.0
O87 O 0.23846 0.3994 0.69195 0.0
Ho88 Ho 0.0144 0.01916 0.53062 0.0
Ho89 Ho 1.00091 1.00222 0.58636 0.0
C90 C 0.03653 0.05453 0.58445 0.0
C91 C 0.02233 0.044 0.48971 0.0
C92 C 0.04448 0.06295 0.48203 0.0
C93 C 0.03953 0.08407 0.47282 0.0
C94 C 0.06047 0.10201 0.46505 0.0
C95 C 0.0867 0.09901 0.46623 0.0
C96 C 0.09154 0.07805 0.47621 0.0
C97 C 0.07067 0.06031 0.48426 0.0
C98 C 0.04824 0.99482 0.54904 0.0
C99 C 0.98142 0.96625 0.53193 0.0
C100 C 0.99256 0.97906 0.62886 0.0
C101 C 0.9698 0.96268 0.63963 0.0
C102 C 0.97242 0.95212 0.66324 0.0
C103 C 0.95045 0.93794 0.6749 0.0
C104 C 0.9254 0.93427 0.6632 0.0
C105 C 0.92299 0.94456 0.63914 0.0
C106 C 0.94506 0.95864 0.62742 0.0
C107 C 0.96686 0.02639 0.56758 0.0
O108 O 0.03067 0.05262 0.5586 0.0
O109 O 0.03061 0.03592 0.59901 0.0
O110 O 0.02719 0.02219 0.48927 0.0
O111 O 0.00863 0.04996 0.51103 0.0
O112 O 0.04257 0.99371 0.52378 0.0
O113 O 0.03759 0.01014 0.56284 0.0
O114 O 0.98808 0.96822 0.55765 0.0
O115 O 0.9851 0.98538 0.51818 0.0
O116 O 0.98962 1.00134 0.62837 0.0
O117 O 0.0034 0.9708 0.60665 0.0
O118 O 0.97194 0.02697 0.59287 0.0
O119 O 0.97775 0.01115 0.55402 0.0
H120 H 0.01946 0.0866 0.47144 0.0
H121 H 0.05607 0.11812 0.45789 0.0
H122 H 0.11141 0.07487 0.477 0.0
H123 H 0.07507 0.04435 0.49177 0.0
H124 H 0.99139 0.95516 0.6729 0.0
H125 H 0.95308 0.92992 0.69313 0.0
H126 H 0.90397 0.94229 0.62975 0.0
H127 H 0.94272 0.96683 0.60919 0.0
Ho128 Ho 0.52676 0.03781 0.08484 0.0
Ho129 Ho 0.47769 0.02426 0.05736 0.0
C130 C 0.47628 0.05881 0.10964 0.0
C131 C 0.5688 0.0591 0.1112 0.0
C132 C 0.57581 0.06905 0.13914 0.0
C133 C 0.56855 0.09045 0.15097 0.0
C134 C 0.57607 0.09967 0.17733 0.0
C135 C 0.59077 0.08753 0.19227 0.0
C136 C 0.598 0.0662 0.18037 0.0
C137 C 0.59068 0.05712 0.15405 0.0
C138 C 0.49788 0.99446 0.09768 0.0
C139 C 0.52845 1.00503 0.03058 0.0
C140 C 0.43586 1.00281 0.03093 0.0
C141 C 0.42992 0.99284 1.00283 0.0
C142 C 0.44308 0.97556 0.98938 0.0
C143 C 0.43692 0.96639 0.96272 0.0
C144 C 0.41763 0.97445 0.94899 0.0
C145 C 0.40482 0.992 0.96244 0.0
C146 C 0.41084 1.00101 0.98913 0.0
C147 C 0.50767 0.06694 0.04359 0.0
O148 O 0.50225 0.06286 0.10695 0.0
O149 O 0.4616 0.04038 0.0954 0.0
O150 O 0.56098 0.03561 0.10719 0.0
O151 O 0.55497 0.07057 0.09774 0.0
O152 O 0.52296 0.99899 0.09275 0.0
O153 O 0.48882 0.01337 0.09602 0.0
O154 O 0.50243 1.00081 0.0328 0.0
O155 O 0.54302 0.02242 0.04641 0.0
O156 O 0.44342 0.02633 0.0349 0.0
O157 O 0.4495 0.99146 0.04481 0.0
O158 O 0.48245 0.06308 0.04797 0.0
O159 O 0.51587 0.04785 0.04612 0.0
H160 H 0.55713 0.1001 0.13993 0.0
H161 H 0.5702 0.11611 0.18613 0.0
H162 H 0.60972 0.05671 0.19127 0.0
H163 H 0.59678 0.04076 0.14529 0.0
H164 H 0.45798 0.969 0.99946 0.0
H165 H 0.44694 0.95269 0.95305 0.0
H166 H 0.39022 0.99893 0.95232 0.0
H167 H 0.40062 0.01446 0.99908 0.0
Ho168 Ho 0.52838 0.52734 0.51918 0.0
Ho169 Ho 0.52152 0.56592 0.56407 0.0
C170 C 0.5472 0.52353 0.5809 0.0
C171 C 0.54605 0.49687 0.48484 0.0
C172 C 0.56076 0.47747 0.48588 0.0
C173 C 0.58271 0.48048 0.50265 0.0
C174 C 0.59653 0.46182 0.50297 0.0
C175 C 0.58843 0.43984 0.48677 0.0
C176 C 0.56636 0.43685 0.4702 0.0
C177 C 0.55269 0.45556 0.46972 0.0
C178 C 0.48023 0.52148 0.54308 0.0
C179 C 0.50513 0.57106 0.50208 0.0
C180 C 0.50257 0.5964 0.59713 0.0
C181 C 0.487 0.6146 0.59325 0.0
C182 C 0.46831 0.61053 0.57263 0.0
C183 C 0.45476 0.62856 0.5681 0.0
C184 C 0.45967 0.65094 0.58411 0.0
C185 C 0.47833 0.65487 0.60481 0.0
C186 C 0.49189 0.63683 0.60932 0.0
C187 C 0.56969 0.57173 0.54068 0.0
O188 O 0.54894 0.51668 0.55461 0.0
O189 O 0.53477 0.541 0.59003 0.0
O190 O 0.52196 0.49274 0.49472 0.0
O191 O 0.559 0.51899 0.49158 0.0
O192 O 0.48393 0.51696 0.5173 0.0
O193 O 0.50205 0.52795 0.55478 0.0
O194 O 0.50138 0.57655 0.52834 0.0
O195 O 0.51813 0.55395 0.49325 0.0
O196 O 0.52675 0.6009 0.58753 0.0
O197 O 0.49063 0.57371 0.59176 0.0
O198 O 0.56588 0.57716 0.56631 0.0
O199 O 0.54795 0.56503 0.52889 0.0
H200 H 0.58921 0.49722 0.51546 0.0
H201 H 0.61336 0.46445 0.51607 0.0
H202 H 0.55989 0.42014 0.45732 0.0
H203 H 0.53582 0.45294 0.45666 0.0
H204 H 0.46426 0.59348 0.55993 0.0
H205 H 0.4403 0.6249 0.55221 0.0
H206 H 0.4828 0.67207 0.61722 0.0
H207 H 0.50645 0.64034 0.62511 0.0
Ho208 Ho 0.01982 0.49768 0.029 0.0
Ho209 Ho 0.00919 0.54536 0.01454 0.0
C210 C 0.0638 0.548 0.04291 0.0
C211 C 0.04004 0.46029 0.0339 0.0
C212 C 0.06092 0.45327 0.04892 0.0
C213 C 0.08787 0.46277 0.04432 0.0
C214 C 0.10723 0.45399 0.05681 0.0
C215 C 0.10007 0.43559 0.07419 0.0
C216 C 0.07309 0.42674 0.07941 0.0
C217 C 0.05377 0.4354 0.0668 0.0
C218 C 0.99502 0.52229 0.06799 0.0
C219 C 0.96473 0.49548 1.00105 0.0
C220 C 0.98795 0.58186 0.00918 0.0
C221 C 0.96653 0.5862 0.99276 0.0
C222 C 0.94267 0.58959 0.00534 0.0
C223 C 0.92245 0.59435 0.9903 0.0
C224 C 0.92578 0.59596 0.96238 0.0
C225 C 0.94946 0.59217 0.9497 0.0
C226 C 0.96965 0.5873 0.96472 0.0
C227 C 0.03527 0.52182 0.97605 0.0
O228 O 0.05921 0.52402 0.03759 0.0
O229 O 0.04535 0.56034 0.03928 0.0
O230 O 0.01941 0.46486 0.04784 0.0
O231 O 0.04756 0.47515 0.01539 0.0
O232 O 0.99057 0.49881 0.06394 0.0
O233 O 0.01346 0.53109 0.05266 0.0
O234 O 0.96993 0.51943 0.00592 0.0
O235 O 0.98272 0.48273 0.0051 0.0
O236 O 0.00962 0.57839 0.99641 0.0
O237 O 0.98068 0.56721 0.02795 0.0
O238 O 0.03915 0.54524 0.98063 0.0
O239 O 0.01636 0.5122 0.99057 0.0
H240 H 0.09406 0.47654 0.03057 0.0
H241 H 0.12779 0.46106 0.05209 0.0
H242 H 0.06683 0.41291 0.09306 0.0
H243 H 0.03315 0.42774 0.07065 0.0
H244 H 0.93979 0.58883 0.02691 0.0
H245 H 0.90452 0.59751 1.00067 0.0
H246 H 0.95243 0.5931 0.92815 0.0
H247 H 0.98774 0.58464 0.95435 0.0
H248 H 0.24174 0.20215 0.29709 0.0
H249 H 0.20967 0.18953 0.3325 0.0
H250 H 0.2714 0.17436 0.37974 0.0
H251 H 0.30383 0.18695 0.3442 0.0
H252 H 0.22832 0.13785 0.37718 0.0
H253 H 0.24575 0.22278 0.3996 0.0
H254 H 0.25192 0.26603 0.39265 0.0
H255 H 0.17131 0.25493 0.36794 0.0
H256 H 0.16477 0.2115 0.3743 0.0
H257 H 0.13697 0.11432 0.48574 0.0
H258 H 0.17519 0.13704 0.46268 0.0
H259 H 0.12488 0.14682 0.39944 0.0
H260 H 0.08679 0.1232 0.4215 0.0
H261 H 0.16628 0.18879 0.41645 0.0
H262 H 0.15238 0.10228 0.38815 0.0
H263 H 0.14665 0.05941 0.39671 0.0
H264 H 0.2223 0.0748 0.43471 0.0
H265 H 0.22824 0.11789 0.42676 0.0
C266 C 0.24858 0.19616 0.315 0.0
C267 C 0.27536 0.19556 0.31785 0.0
C268 C 0.23023 0.18915 0.33532 0.0
C269 C 0.23826 0.1814 0.35891 0.0
C270 C 0.2649 0.18049 0.36175 0.0
C271 C 0.28336 0.18766 0.34145 0.0
C272 C 0.2184 0.17313 0.37983 0.0
C273 C 0.21515 0.14919 0.38622 0.0
C274 C 0.20101 0.18782 0.39136 0.0
C275 C 0.20487 0.21384 0.38716 0.0
C276 C 0.22942 0.22951 0.3924 0.0
C277 C 0.23296 0.25407 0.38862 0.0
C278 C 0.21204 0.26321 0.37979 0.0
C279 C 0.18751 0.24781 0.37474 0.0
C280 C 0.18387 0.22322 0.37844 0.0
C281 C 0.13399 0.12139 0.46698 0.0
C282 C 0.10887 0.11655 0.45522 0.0
C283 C 0.1558 0.13452 0.45401 0.0
C284 C 0.15275 0.14331 0.42932 0.0
C285 C 0.1275 0.14017 0.41856 0.0
C286 C 0.10573 0.12674 0.43129 0.0
C287 C 0.17607 0.15353 0.41323 0.0
C288 C 0.17984 0.17772 0.40772 0.0
C289 C 0.19407 0.13916 0.40263 0.0
C290 C 0.19058 0.1133 0.40722 0.0
C291 C 0.16766 0.09655 0.39857 0.0
C292 C 0.1644 0.07222 0.40327 0.0
C293 C 0.18405 0.0644 0.41634 0.0
C294 C 0.20706 0.08089 0.42466 0.0
C295 C 0.21038 0.10526 0.42007 0.0
H296 H 0.1815 0.04555 0.41996 0.0
H297 H 0.21482 0.28224 0.37691 0.0
H298 H 0.31476 0.85162 0.73814 0.0
H299 H 0.3375 0.86938 0.7798 0.0
H300 H 0.37905 0.93003 0.73917 0.0
H301 H 0.35596 0.91265 0.69744 0.0
H302 H 0.38773 0.8831 0.79632 0.0
H303 H 0.38212 0.98112 0.78269 0.0
H304 H 0.35644 1.00359 0.75775 0.0
H305 H 0.28934 0.94448 0.75793 0.0
H306 H 0.31454 0.92183 0.78317 0.0
H307 H 0.45055 0.96305 0.90735 0.0
H308 H 0.43816 0.94565 0.86136 0.0
H309 H 0.35639 0.94593 0.88117 0.0
H310 H 0.3684 0.96268 0.92721 0.0
H311 H 0.37136 0.96375 0.83293 0.0
H312 H 0.37779 0.8946 0.87902 0.0
H313 H 0.40026 0.87081 0.90569 0.0
H314 H 0.45993 0.86956 0.8436 0.0
H315 H 0.43799 0.89369 0.81676 0.0
C316 C 0.32898 0.86859 0.73792 0.0
C317 C 0.33328 0.8809 0.71457 0.0
C318 C 0.34204 0.87865 0.76174 0.0
C319 C 0.35964 0.90117 0.76262 0.0
C320 C 0.3652 0.91281 0.73896 0.0
C321 C 0.35202 0.90283 0.71514 0.0
C322 C 0.37044 0.91318 0.78882 0.0
C323 C 0.3844 0.90084 0.80422 0.0
C324 C 0.36579 0.93618 0.79924 0.0
C325 C 0.3503 0.94972 0.78448 0.0
C326 C 0.36186 0.97298 0.77746 0.0
C327 C 0.3474 0.98574 0.76328 0.0
C328 C 0.32131 0.97543 0.75617 0.0
C329 C 0.30958 0.9524 0.76336 0.0
C330 C 0.32394 0.93959 0.77758 0.0
C331 C 0.4299 0.9592 0.90198 0.0
C332 C 0.41045 0.96427 0.92095 0.0
C333 C 0.42291 0.94939 0.87569 0.0
C334 C 0.39639 0.94451 0.86798 0.0
C335 C 0.377 0.94975 0.88674 0.0
C336 C 0.38393 0.95941 0.91301 0.0
C337 C 0.38855 0.93363 0.84047 0.0
C338 C 0.37514 0.94621 0.82482 0.0
C339 C 0.39333 0.91071 0.83004 0.0
C340 C 0.40646 0.89618 0.84608 0.0
C341 C 0.39584 0.88943 0.87119 0.0
C342 C 0.40845 0.87586 0.88631 0.0
C343 C 0.43156 0.86875 0.87639 0.0
C344 C 0.44207 0.87513 0.85129 0.0
C345 C 0.42955 0.88875 0.83611 0.0
H346 H 0.4413 0.85823 0.88812 0.0
H347 H 0.31016 0.98532 0.74515 0.0
H348 H 0.64397 0.39073 0.73653 0.0
H349 H 0.62716 0.40879 0.7001 0.0
H350 H 0.62127 0.47181 0.75491 0.0
H351 H 0.63695 0.45329 0.79167 0.0
H352 H 0.57955 0.46073 0.72689 0.0
H353 H 0.67199 0.469 0.70099 0.0
H354 H 0.71278 0.45384 0.68939 0.0
H355 H 0.67345 0.40615 0.62382 0.0
H356 H 0.6324 0.421 0.63504 0.0
H357 H 0.55792 0.53931 0.63392 0.0
H358 H 0.57665 0.5195 0.66726 0.0
H359 H 0.5817 0.45956 0.60752 0.0
H360 H 0.56408 0.48008 0.5735 0.0
H361 H 0.62269 0.4668 0.63663 0.0
H362 H 0.53127 0.45823 0.66048 0.0
H363 H 0.48939 0.4716 0.67151 0.0
H364 H 0.52494 0.51706 0.74052 0.0
H365 H 0.56715 0.50421 0.72969 0.0
C366 C 0.63934 0.40854 0.74081 0.0
C367 C 0.64203 0.42056 0.76714 0.0
C368 C 0.62981 0.41898 0.71981 0.0
C369 C 0.62324 0.44201 0.72433 0.0
C370 C 0.62614 0.45409 0.75062 0.0
C371 C 0.63529 0.4435 0.7717 0.0
C372 C 0.61247 0.45323 0.70218 0.0
C373 C 0.5893 0.46236 0.70733 0.0
C374 C 0.62433 0.45461 0.67604 0.0
C375 C 0.64909 0.44597 0.66901 0.0
C376 C 0.67203 0.45523 0.68415 0.0
C377 C 0.6952 0.44673 0.6776 0.0
C378 C 0.6957 0.42905 0.65586 0.0
C379 C 0.67305 0.4199 0.64058 0.0
C380 C 0.64985 0.42838 0.64699 0.0
C381 C 0.56298 0.5219 0.62776 0.0
C382 C 0.55916 0.51124 0.60097 0.0
C383 C 0.57358 0.51042 0.64702 0.0
C384 C 0.58002 0.48754 0.64039 0.0
C385 C 0.57679 0.47707 0.61343 0.0
C386 C 0.5666 0.48881 0.59394 0.0
C387 C 0.59008 0.47475 0.66159 0.0
C388 C 0.61298 0.46521 0.65622 0.0
C389 C 0.57783 0.47273 0.68747 0.0
C390 C 0.55243 0.48039 0.69415 0.0
C391 C 0.5302 0.47118 0.67792 0.0
C392 C 0.50639 0.47866 0.68414 0.0
C393 C 0.50452 0.4952 0.70667 0.0
C394 C 0.52643 0.50426 0.72306 0.0
C395 C 0.55029 0.49687 0.71691 0.0
H396 H 0.48607 0.50097 0.71145 0.0
H397 H 0.71364 0.42246 0.65086 0.0
H398 H 0.90563 0.61491 0.29231 0.0
H399 H 0.9207 0.591 0.25346 0.0
H400 H 0.94617 0.65597 0.21328 0.0
H401 H 0.9295 0.67967 0.25152 0.0
H402 H 0.9244 0.62361 0.17845 0.0
H403 H 0.99017 0.62364 0.24325 0.0
H404 H 0.00781 0.61789 0.28689 0.0
H405 H 0.97175 0.54213 0.2764 0.0
H406 H 0.95359 0.5475 0.23287 0.0
H407 H 0.00489 0.57141 0.079 0.0
H408 H 0.98948 0.59516 0.11794 0.0
H409 H 0.94711 0.52928 0.1484 0.0
H410 H 0.96234 0.50535 0.10922 0.0
H411 H 0.97779 0.56171 0.18753 0.0
H412 H 0.91394 0.56384 0.12001 0.0
H413 H 0.90026 0.57161 0.0754 0.0
H414 H 0.93814 0.64664 0.09045 0.0
H415 H 0.95247 0.63921 0.13494 0.0
C416 C 0.91468 0.62412 0.27529 0.0
C417 C 0.9165 0.6492 0.27503 0.0
C418 C 0.92345 0.61043 0.25307 0.0
C419 C 0.93511 0.62161 0.23041 0.0
C420 C 0.93727 0.64678 0.23037 0.0
C421 C 0.92785 0.66038 0.25232 0.0
C422 C 0.94412 0.60699 0.20642 0.0
C423 C 0.93642 0.61037 0.18055 0.0
C424 C 0.95946 0.58929 0.20882 0.0
C425 C 0.97031 0.58602 0.23497 0.0
C426 C 0.98584 0.60579 0.25036 0.0
C427 C 0.99596 0.6026 0.27505 0.0
C428 C 0.99085 0.57967 0.28445 0.0
C429 C 0.97566 0.55988 0.26913 0.0
C430 C 0.96547 0.56298 0.24444 0.0
C431 C 0.9921 0.56197 0.09387 0.0
C432 C 0.98471 0.53651 0.09104 0.0
C433 C 0.98331 0.57558 0.1161 0.0
C434 C 0.96702 0.56401 0.13601 0.0
C435 C 0.95965 0.53857 0.13326 0.0
C436 C 0.96826 0.52494 0.11085 0.0
C437 C 0.95807 0.57847 0.1599 0.0
C438 C 0.96579 0.57502 0.18564 0.0
C439 C 0.94328 0.59646 0.15733 0.0
C440 C 0.93444 0.60093 0.1307 0.0
C441 C 0.91952 0.58195 0.11371 0.0
C442 C 0.91163 0.5863 0.08846 0.0
C443 C 0.91833 0.6096 0.0801 0.0
C444 C 0.93296 0.6286 0.09696 0.0
C445 C 0.94096 0.62434 0.12219 0.0
H446 H 0.91215 0.61294 0.06057 0.0
H447 H 0.9987 0.57723 0.30357 0.0
H448 H 0.32379 0.20543 0.19855 0.0
H449 H 0.34568 0.17141 0.18614 0.0
H450 H 0.41762 0.22159 0.16823 0.0
H451 H 0.39544 0.25551 0.17966 0.0
H452 H 0.41171 0.18609 0.13168 0.0
H453 H 0.40639 0.19097 0.22845 0.0
H454 H 0.38361 0.19248 0.27279 0.0
H455 H 0.3358 0.12191 0.25113 0.0
H456 H 0.35801 0.12014 0.20648 0.0
H457 H 0.49902 0.10524 0.12878 0.0
H458 H 0.47647 0.13742 0.14727 0.0
H459 H 0.40195 0.08635 0.14417 0.0
H460 H 0.42428 0.05405 0.12528 0.0
H461 H 0.40898 0.1213 0.19204 0.0
H462 H 0.41628 0.11717 0.09506 0.0
H463 H 0.43985 0.11678 0.05116 0.0
H464 H 0.48541 0.18796 0.07439 0.0
H465 H 0.46291 0.18841 0.11889 0.0
C466 C 0.34433 0.20918 0.19219 0.0
C467 C 0.35801 0.23315 0.1904 0.0
C468 C 0.35688 0.18971 0.18512 0.0
C469 C 0.38357 0.19383 0.17675 0.0
C470 C 0.39708 0.21782 0.17465 0.0
C471 C 0.38439 0.23723 0.18121 0.0
C472 C 0.39741 0.17328 0.16981 0.0
C473 C 0.4114 0.17218 0.14515 0.0
C474 C 0.39668 0.15472 0.18701 0.0
C475 C 0.38372 0.15551 0.21406 0.0
C476 C 0.39094 0.17582 0.23311 0.0
C477 C 0.37812 0.17673 0.25829 0.0
C478 C 0.35823 0.15732 0.26475 0.0
C479 C 0.35119 0.13693 0.24608 0.0
C480 C 0.3639 0.13596 0.22085 0.0
C481 C 0.47792 0.10068 0.13258 0.0
C482 C 0.46344 0.07706 0.12542 0.0
C483 C 0.46505 0.11914 0.14308 0.0
C484 C 0.43751 0.11431 0.14689 0.0
C485 C 0.42322 0.09045 0.14141 0.0
C486 C 0.43602 0.07203 0.13056 0.0
C487 C 0.42344 0.13448 0.15422 0.0
C488 C 0.40935 0.13539 0.17879 0.0
C489 C 0.42433 0.15306 0.13712 0.0
C490 C 0.43812 0.15269 0.11046 0.0
C491 C 0.43163 0.13259 0.091 0.0
C492 C 0.44483 0.13235 0.066 0.0
C493 C 0.46426 0.15229 0.06006 0.0
C494 C 0.47057 0.17245 0.07913 0.0
C495 C 0.45763 0.17269 0.10425 0.0
H496 H 0.47428 0.15218 0.04062 0.0
H497 H 0.34831 0.15807 0.28424 0.0
H498 H 0.19963 0.85413 0.61009 0.0
H499 H 0.16547 0.8724 0.59294 0.0
H500 H 0.18508 0.93344 0.65344 0.0
H501 H 0.21891 0.91522 0.67096 0.0
H502 H 0.13202 0.91789 0.64851 0.0
H503 H 0.20817 0.93731 0.58932 0.0
H504 H 0.24335 0.92741 0.55807 0.0
H505 H 0.18501 0.88428 0.50411 0.0
H506 H 0.14948 0.89368 0.53525 0.0
H507 H 0.07462 1.00536 0.59629 0.0
H508 H 0.10433 0.98251 0.61381 0.0
H509 H 0.08861 0.92904 0.54461 0.0
H510 H 0.06026 0.95281 0.52624 0.0
H511 H 0.13769 0.93787 0.55358 0.0
H512 H 0.06096 0.9206 0.61082 0.0
H513 H 0.02564 0.93067 0.64177 0.0
H514 H 0.08363 0.96856 0.69918 0.0
H515 H 0.11932 0.95911 0.66838 0.0
C516 C 0.19659 0.87139 0.61981 0.0
C517 C 0.21203 0.88329 0.6418 0.0
C518 C 0.17712 0.8818 0.60996 0.0
C519 C 0.17296 0.90433 0.62183 0.0
C520 C 0.188 0.91601 0.64407 0.0
C521 C 0.20739 0.90562 0.65395 0.0
C522 C 0.15346 0.91618 0.61071 0.0
C523 C 0.13327 0.92242 0.62781 0.0
C524 C 0.15485 0.92149 0.58353 0.0
C525 C 0.1762 0.916 0.56473 0.0
C526 C 0.20286 0.92558 0.57088 0.0
C527 C 0.22286 0.92008 0.55318 0.0
C528 C 0.21642 0.90518 0.52915 0.0
C529 C 0.18997 0.89579 0.52275 0.0
C530 C 0.16989 0.90122 0.5404 0.0
C531 C 0.07758 0.98872 0.5849 0.0
C532 C 0.06537 0.98076 0.55996 0.0
C533 C 0.09434 0.97557 0.59499 0.0
C534 C 0.0983 0.95378 0.58079 0.0
C535 C 0.08584 0.94577 0.55592 0.0
C536 C 0.06966 0.95929 0.54547 0.0
C537 C 0.1161 0.93974 0.59138 0.0
C538 C 0.13608 0.93311 0.5742 0.0
C539 C 0.11435 0.93391 0.61844 0.0
C540 C 0.09284 0.93923 0.63721 0.0
C541 C 0.06619 0.93117 0.62999 0.0
C542 C 0.0461 0.93679 0.6475 0.0
C543 C 0.0524 0.95025 0.67242 0.0
C544 C 0.07879 0.95812 0.67988 0.0
C545 C 0.09895 0.95263 0.66241 0.0
H546 H 0.03686 0.95455 0.686 0.0
H547 H 0.23193 0.90094 0.51547 0.0
H548 H 0.7517 0.35865 0.8902 0.0
H549 H 0.79491 0.37744 0.90932 0.0
H550 H 0.77367 0.44761 0.91494 0.0
H551 H 0.73164 0.429 0.89337 0.0
H552 H 0.82028 0.45636 0.90421 0.0
H553 H 0.77562 0.40855 0.97201 0.0
H554 H 0.75134 0.37164 0.99098 0.0
H555 H 0.81675 0.33677 0.97133 0.0
H556 H 0.84124 0.37337 0.95189 0.0
H557 H 0.92077 0.51474 0.997 0.0
H558 H 0.87836 0.49524 0.97697 0.0
H559 H 0.90675 0.42899 0.95753 0.0
H560 H 0.94907 0.44822 0.97852 0.0
H561 H 0.85741 0.41871 0.97527 0.0
H562 H 0.90197 0.47147 0.90926 0.0
H563 H 0.92483 0.51152 0.89647 0.0
H564 H 0.85629 0.54083 0.91997 0.0
H565 H 0.83317 0.50102 0.93321 0.0
C566 C 0.75633 0.37809 0.89551 0.0
C567 C 0.73814 0.39229 0.89038 0.0
C568 C 0.78106 0.38891 0.90678 0.0
C569 C 0.7878 0.41412 0.91457 0.0
C570 C 0.76944 0.42822 0.9093 0.0
C571 C 0.7452 0.41753 0.89706 0.0
C572 C 0.81378 0.42586 0.92794 0.0
C573 C 0.82803 0.4481 0.91998 0.0
C574 C 0.82469 0.41546 0.9485 0.0
C575 C 0.81011 0.39355 0.96028 0.0
C576 C 0.78473 0.39294 0.97161 0.0
C577 C 0.77095 0.37209 0.98244 0.0
C578 C 0.78247 0.35185 0.98229 0.0
C579 C 0.80783 0.35244 0.97138 0.0
C580 C 0.82167 0.37323 0.96047 0.0
C581 C 0.91806 0.49598 0.98853 0.0
C582 C 0.93855 0.48314 0.98934 0.0
C583 C 0.89372 0.48485 0.97684 0.0
C584 C 0.88928 0.46068 0.96503 0.0
C585 C 0.90954 0.44767 0.96629 0.0
C586 C 0.93383 0.45872 0.97831 0.0
C587 C 0.86359 0.44896 0.9515 0.0
C588 C 0.8495 0.42679 0.95944 0.0
C589 C 0.85246 0.45979 0.93155 0.0
C590 C 0.86592 0.48333 0.92232 0.0
C591 C 0.8918 0.48646 0.91167 0.0
C592 C 0.9048 0.50913 0.9044 0.0
C593 C 0.89204 0.52873 0.90747 0.0
C594 C 0.86616 0.52565 0.91763 0.0
C595 C 0.85308 0.50303 0.92496 0.0
H596 H 0.90219 0.54629 0.90197 0.0
H597 H 0.77176 0.33572 0.99069 0.0
H598 H 0.75918 0.66909 0.40151 0.0
H599 H 0.72024 0.64904 0.42553 0.0
H600 H 0.76234 0.59543 0.44604 0.0
H601 H 0.80159 0.61535 0.42181 0.0
H602 H 0.70919 0.57577 0.43347 0.0
H603 H 0.75961 0.6399 0.49151 0.0
H604 H 0.78434 0.68141 0.50461 0.0
H605 H 0.71445 0.7094 0.49585 0.0
H606 H 0.68941 0.66807 0.48225 0.0
H607 H 0.61827 0.58547 0.56336 0.0
H608 H 0.66108 0.59445 0.53986 0.0
H609 H 0.62189 0.57702 0.46312 0.0
H610 H 0.5792 0.56787 0.48647 0.0
H611 H 0.67794 0.62877 0.50812 0.0
H612 H 0.66156 0.55512 0.416 0.0
H613 H 0.63816 0.51259 0.40629 0.0
H614 H 0.64368 0.50096 0.48952 0.0
H615 H 0.6673 0.54328 0.49966 0.0
C616 C 0.76013 0.65284 0.41076 0.0
C617 C 0.78361 0.64399 0.41002 0.0
C618 C 0.73784 0.64142 0.42451 0.0
C619 C 0.7386 0.62101 0.43789 0.0
C620 C 0.76144 0.61123 0.43589 0.0
C621 C 0.78384 0.62267 0.42211 0.0
C622 C 0.71618 0.61124 0.45557 0.0
C623 C 0.70233 0.58727 0.44983 0.0
C624 C 0.70777 0.62606 0.47741 0.0
C625 C 0.72272 0.65093 0.48564 0.0
C626 C 0.74958 0.65493 0.49216 0.0
C627 C 0.76364 0.67842 0.49971 0.0
C628 C 0.75099 0.69804 0.501 0.0
C629 C 0.72423 0.6942 0.4948 0.0
C630 C 0.71009 0.67074 0.48719 0.0
C631 C 0.61888 0.58335 0.54148 0.0
C632 C 0.59552 0.57596 0.5267 0.0
C633 C 0.64329 0.58846 0.5281 0.0
C634 C 0.64469 0.58616 0.49975 0.0
C635 C 0.62133 0.57846 0.48499 0.0
C636 C 0.59695 0.57333 0.49835 0.0
C637 C 0.6703 0.5935 0.48555 0.0
C638 C 0.68481 0.6171 0.49192 0.0
C639 C 0.67955 0.57812 0.46476 0.0
C640 C 0.66599 0.55244 0.45861 0.0
C641 C 0.6579 0.54344 0.43219 0.0
C642 C 0.64453 0.51937 0.42663 0.0
C643 C 0.63929 0.5041 0.44731 0.0
C644 C 0.64757 0.51282 0.47355 0.0
C645 C 0.66091 0.53686 0.47922 0.0
H646 H 0.62887 0.4855 0.443 0.0
H647 H 0.76191 0.71621 0.50686 0.0
H648 H 0.24512 0.30512 0.1669 0.0
H649 H 0.21277 0.32473 0.14835 0.0
H650 H 0.27159 0.39074 0.14634 0.0
H651 H 0.3042 0.3712 0.16457 0.0
H652 H 0.22204 0.39718 0.17015 0.0
H653 H 0.25656 0.35916 0.08967 0.0
H654 H 0.26889 0.325 0.06077 0.0
H655 H 0.1883 0.28615 0.06141 0.0
H656 H 0.17554 0.31995 0.09069 0.0
H657 H 0.14888 0.45888 0.09342 0.0
H658 H 0.18295 0.44073 0.11077 0.0
H659 H 0.13139 0.37015 0.0998 0.0
H660 H 0.09786 0.38791 0.0811 0.0
H661 H 0.17853 0.36674 0.08247 0.0
H662 H 0.14323 0.40293 0.163 0.0
H663 H 0.12973 0.43565 0.1934 0.0
H664 H 0.20963 0.47627 0.19464 0.0
H665 H 0.22355 0.44393 0.16392 0.0
C666 C 0.25124 0.32375 0.16231 0.0
C667 C 0.27726 0.33657 0.16709 0.0
C668 C 0.23274 0.33491 0.15174 0.0
C669 C 0.23984 0.35916 0.14598 0.0
C670 C 0.26576 0.37202 0.1507 0.0
C671 C 0.28438 0.36077 0.16093 0.0
C672 C 0.2201 0.37108 0.13517 0.0
C673 C 0.21276 0.3908 0.1508 0.0
C674 C 0.20756 0.36228 0.1103 0.0
C675 C 0.21515 0.34199 0.09257 0.0
C676 C 0.2415 0.34325 0.08384 0.0
C677 C 0.24857 0.32397 0.06735 0.0
C678 C 0.2294 0.30339 0.05931 0.0
C679 C 0.20312 0.30208 0.06768 0.0
C680 C 0.19596 0.32131 0.0842 0.0
C681 C 0.14485 0.43947 0.09451 0.0
C682 C 0.12054 0.4249 0.08592 0.0
C683 C 0.16426 0.42915 0.10473 0.0
C684 C 0.15964 0.40409 0.10692 0.0
C685 C 0.1354 0.38953 0.0984 0.0
C686 C 0.1161 0.39978 0.08799 0.0
C687 C 0.18022 0.39288 0.11749 0.0
C688 C 0.18777 0.37324 0.10181 0.0
C689 C 0.1927 0.40161 0.14249 0.0
C690 C 0.18438 0.42111 0.16093 0.0
C691 C 0.15788 0.41893 0.16957 0.0
C692 C 0.15016 0.43739 0.18689 0.0
C693 C 0.1688 0.45805 0.19589 0.0
C694 C 0.19521 0.46027 0.18762 0.0
C695 C 0.20303 0.44188 0.17027 0.0
H696 H 0.16278 0.47232 0.20932 0.0
H697 H 0.2349 0.28849 0.04654 0.0
H698 H 0.66645 0.22996 0.92086 0.0
H699 H 0.64057 0.19576 0.94214 0.0
H700 H 0.57991 0.23652 0.96376 0.0
H701 H 0.60617 0.2713 0.94274 0.0
H702 H 0.58818 0.21302 0.00509 0.0
H703 H 0.57181 0.18951 0.91159 0.0
H704 H 0.58264 0.18183 0.86325 0.0
H705 H 0.62575 0.12848 0.88123 0.0
H706 H 0.61547 0.1361 0.92976 0.0
H707 H 0.4923 0.10946 0.0389 0.0
H708 H 0.5165 0.14491 0.01787 0.0
H709 H 0.58177 0.10909 0.99981 0.0
H710 H 0.55758 0.07352 0.02094 0.0
H711 H 0.56961 0.13035 0.95644 0.0
H712 H 0.5841 0.15362 0.05064 0.0
H713 H 0.57159 0.16113 0.09851 0.0
H714 H 0.53078 0.21558 0.07891 0.0
H715 H 0.54215 0.20773 0.03072 0.0
C716 C 0.64758 0.23178 0.93003 0.0
C717 C 0.63849 0.25355 0.92993 0.0
C718 C 0.63265 0.21202 0.94214 0.0
C719 C 0.60797 0.21322 0.95433 0.0
C720 C 0.59882 0.23498 0.95447 0.0
C721 C 0.61384 0.25488 0.94233 0.0
C722 C 0.59217 0.19186 0.96719 0.0
C723 C 0.58374 0.19503 0.99426 0.0
C724 C 0.58675 0.16814 0.95344 0.0
C725 C 0.59309 0.16356 0.92432 0.0
C726 C 0.58379 0.1763 0.90526 0.0
C727 C 0.58979 0.17192 0.87782 0.0
C728 C 0.60494 0.15472 0.86918 0.0
C729 C 0.61406 0.14182 0.88796 0.0
C730 C 0.60813 0.14615 0.91543 0.0
C731 C 0.51186 0.10917 0.03055 0.0
C732 C 0.52301 0.08867 0.03161 0.0
C733 C 0.52572 0.1295 0.01859 0.0
C734 C 0.5511 0.12987 0.00736 0.0
C735 C 0.56226 0.10934 0.00833 0.0
C736 C 0.54846 0.08904 0.02051 0.0
C737 C 0.56578 0.15151 0.99433 0.0
C738 C 0.57398 0.14836 0.96723 0.0
C739 C 0.57079 0.17525 0.00802 0.0
C740 C 0.5637 0.17985 0.03697 0.0
C741 C 0.57212 0.16694 0.05645 0.0
C742 C 0.56521 0.17125 0.08366 0.0
C743 C 0.55024 0.18871 0.09173 0.0
C744 C 0.54222 0.20194 0.0726 0.0
C745 C 0.54881 0.19751 0.04532 0.0
H746 H 0.54495 0.19206 0.11281 0.0
H747 H 0.60955 0.15136 0.84793 0.0
H748 H 0.92185 0.7712 0.3681 0.0
H749 H 0.93615 0.81152 0.39219 0.0
H750 H 0.92749 0.78011 0.46808 0.0
H751 H 0.9125 0.73996 0.44423 0.0
H752 H 0.90496 0.81706 0.47237 0.0
H753 H 0.98918 0.80363 0.43961 0.0
H754 H 0.02224 0.79344 0.40586 0.0
H755 H 0.015 0.85378 0.36335 0.0
H756 H 0.98162 0.86414 0.39666 0.0
H757 H 0.97006 0.92268 0.55344 0.0
H758 H 0.95755 0.88227 0.5292 0.0
H759 H 0.95781 0.91407 0.45423 0.0
H760 H 0.97054 0.95456 0.47821 0.0
H761 H 0.98489 0.87719 0.44979 0.0
H762 H 0.90015 0.89011 0.4844 0.0
H763 H 0.86885 0.90026 0.52015 0.0
H764 H 0.87924 0.84019 0.56147 0.0
H765 H 0.91088 0.82987 0.52613 0.0
C766 C 0.92343 0.77284 0.38987 0.0
C767 C 0.91598 0.75234 0.40421 0.0
C768 C 0.93163 0.79592 0.40366 0.0
C769 C 0.93298 0.79892 0.43202 0.0
C770 C 0.92646 0.77834 0.44624 0.0
C771 C 0.91802 0.75534 0.43253 0.0
C772 C 0.93989 0.82352 0.44701 0.0
C773 C 0.92266 0.83005 0.46764 0.0
C774 C 0.96269 0.84073 0.4406 0.0
C775 C 0.98271 0.83452 0.4205 0.0
C776 C 0.99448 0.81461 0.42294 0.0
C777 C 0.0133 0.80883 0.40391 0.0
C778 C 0.02067 0.82292 0.38244 0.0
C779 C 0.00926 0.84286 0.37997 0.0
C780 C 0.9904 0.84871 0.39894 0.0
C781 C 0.96718 0.92113 0.53183 0.0
C782 C 0.97125 0.9419 0.51779 0.0
C783 C 0.96002 0.89799 0.51801 0.0
C784 C 0.95668 0.89516 0.48991 0.0
C785 C 0.96034 0.91584 0.4759 0.0
C786 C 0.96745 0.93899 0.4897 0.0
C787 C 0.94996 0.8706 0.47501 0.0
C788 C 0.96722 0.86412 0.45444 0.0
C789 C 0.92736 0.85335 0.48167 0.0
C790 C 0.90803 0.85932 0.50272 0.0
C791 C 0.89587 0.87915 0.50119 0.0
C792 C 0.87805 0.88492 0.52137 0.0
C793 C 0.87209 0.8709 0.54309 0.0
C794 C 0.88388 0.85103 0.54464 0.0
C795 C 0.90173 0.8452 0.52452 0.0
H796 H 0.85831 0.87541 0.5587 0.0
H797 H 0.03527 0.81843 0.36773 0.0
H798 H 0.3625 0.84203 0.56927 0.0
H799 H 0.3878 0.81089 0.55454 0.0
H800 H 0.32677 0.75668 0.5867 0.0
H801 H 0.30124 0.78753 0.60107 0.0
H802 H 0.40775 0.78699 0.5881 0.0
H803 H 0.32698 0.7014 0.55532 0.0
H804 H 0.28564 0.69109 0.52964 0.0
H805 H 0.31068 0.75421 0.48709 0.0
H806 H 0.35234 0.76471 0.51221 0.0
H807 H 0.43851 0.68026 0.62179 0.0
H808 H 0.41605 0.71269 0.61409 0.0
H809 H 0.42563 0.69733 0.52799 0.0
H810 H 0.44847 0.66485 0.53554 0.0
H811 H 0.37589 0.70441 0.5422 0.0
H812 H 0.46453 0.7456 0.55836 0.0
H813 H 0.50694 0.756 0.58219 0.0
H814 H 0.46845 0.78314 0.65321 0.0
H815 H 0.42573 0.77251 0.62996 0.0
C816 C 0.35419 0.82338 0.57263 0.0
C817 C 0.32999 0.81727 0.58655 0.0
C818 C 0.36868 0.80563 0.56423 0.0
C819 C 0.35914 0.78147 0.56943 0.0
C820 C 0.33434 0.77513 0.58206 0.0
C821 C 0.31984 0.79284 0.59045 0.0
C822 C 0.37636 0.76352 0.56498 0.0
C823 C 0.40089 0.76904 0.57775 0.0
C824 C 0.36764 0.74022 0.55113 0.0
C825 C 0.34271 0.73392 0.5358 0.0
C826 C 0.32374 0.71301 0.54038 0.0
C827 C 0.30023 0.70714 0.52594 0.0
C828 C 0.29551 0.72201 0.50679 0.0
C829 C 0.31432 0.74275 0.502 0.0
C830 C 0.33786 0.74869 0.51636 0.0
C831 C 0.43607 0.68391 0.60122 0.0
C832 C 0.44544 0.67016 0.57928 0.0
C833 C 0.42318 0.70238 0.59685 0.0
C834 C 0.41956 0.70757 0.57049 0.0
C835 C 0.42833 0.69358 0.54847 0.0
C836 C 0.44127 0.67504 0.55283 0.0
C837 C 0.40656 0.7277 0.56628 0.0
C838 C 0.38289 0.72254 0.552 0.0
C839 C 0.41619 0.75146 0.57845 0.0
C840 C 0.44191 0.75818 0.59243 0.0
C841 C 0.46509 0.75366 0.57911 0.0
C842 C 0.48918 0.7596 0.59251 0.0
C843 C 0.49039 0.77021 0.6192 0.0
C844 C 0.4675 0.77493 0.63253 0.0
C845 C 0.44334 0.76899 0.61924 0.0
H846 H 0.50906 0.7748 0.62955 0.0
H847 H 0.27729 0.71745 0.49564 0.0
H848 H 0.75296 0.82197 0.82188 0.0
H849 H 0.78425 0.85054 0.79698 0.0
H850 H 0.75912 0.80753 0.722 0.0
H851 H 0.72933 0.77806 0.7472 0.0
H852 H 0.80794 0.81739 0.72075 0.0
H853 H 0.74469 0.86727 0.74422 0.0
H854 H 0.71555 0.88759 0.77466 0.0
H855 H 0.78283 0.92818 0.81896 0.0
H856 H 0.81236 0.90783 0.78903 0.0
H857 H 0.88401 0.90167 0.63904 0.0
H858 H 0.84568 0.87809 0.66103 0.0
H859 H 0.87563 0.91059 0.73903 0.0
H860 H 0.91335 0.93508 0.71719 0.0
H861 H 0.82276 0.90706 0.73662 0.0
H862 H 0.88485 0.85423 0.71336 0.0
H863 H 0.91303 0.83387 0.6817 0.0
H864 H 0.84518 0.79911 0.63469 0.0
H865 H 0.81664 0.81949 0.66591 0.0
C866 C 0.75381 0.81895 0.80004 0.0
C867 C 0.73869 0.798 0.78636 0.0
C868 C 0.77162 0.83534 0.78577 0.0
C869 C 0.77386 0.83148 0.75746 0.0
C870 C 0.75788 0.81094 0.74379 0.0
C871 C 0.74074 0.79419 0.75814 0.0
C872 C 0.7942 0.8477 0.74228 0.0
C873 C 0.8107 0.83699 0.72389 0.0
C874 C 0.7984 0.87334 0.74669 0.0
C875 C 0.78072 0.8859 0.76447 0.0
C876 C 0.75326 0.88044 0.76053 0.0
C877 C 0.73668 0.89197 0.7777 0.0
C878 C 0.74733 0.90914 0.79876 0.0
C879 C 0.77461 0.91487 0.80265 0.0
C880 C 0.79128 0.90337 0.78556 0.0
C881 C 0.88226 0.90408 0.66085 0.0
C882 C 0.90187 0.92012 0.67636 0.0
C883 C 0.86045 0.89045 0.67339 0.0
C884 C 0.85802 0.89238 0.70167 0.0
C885 C 0.87718 0.90879 0.71718 0.0
C886 C 0.8989 0.92253 0.70466 0.0
C887 C 0.83609 0.87663 0.71521 0.0
C888 C 0.81952 0.88744 0.73334 0.0
C889 C 0.83154 0.85107 0.71033 0.0
C890 C 0.84866 0.83853 0.69184 0.0
C891 C 0.87597 0.84233 0.6962 0.0
C892 C 0.892 0.83078 0.67834 0.0
C893 C 0.88091 0.81525 0.65617 0.0
C894 C 0.85375 0.81116 0.65186 0.0
C895 C 0.83763 0.82268 0.66964 0.0
H896 H 0.89335 0.80634 0.64236 0.0
H897 H 0.73445 0.91802 0.81204 0.0
H898 H 0.66928 0.10674 0.43125 0.0
H899 H 0.65233 0.10028 0.38546 0.0
H900 H 0.67983 0.17632 0.37625 0.0
H901 H 0.69546 0.18314 0.42271 0.0
H902 H 0.63214 0.16048 0.35558 0.0
H903 H 0.71382 0.1342 0.34642 0.0
H904 H 0.74788 0.11203 0.35677 0.0
H905 H 0.69364 0.0442 0.3384 0.0
H906 H 0.65912 0.06598 0.32831 0.0
H907 H 0.61274 0.13426 0.21121 0.0
H908 H 0.63044 0.14877 0.25637 0.0
H909 H 0.60512 0.07663 0.28088 0.0
H910 H 0.58755 0.0621 0.23596 0.0
H911 H 0.65626 0.09499 0.29155 0.0
H912 H 0.57369 0.12298 0.30312 0.0
H913 H 0.54098 0.14634 0.29199 0.0
H914 H 0.59909 0.21253 0.30438 0.0
H915 H 0.63225 0.18951 0.31518 0.0
C916 C 0.67175 0.12211 0.4195 0.0
C917 C 0.68453 0.14533 0.43032 0.0
C918 C 0.66222 0.11836 0.39326 0.0
C919 C 0.6655 0.1377 0.37721 0.0
C920 C 0.67755 0.16107 0.38817 0.0
C921 C 0.68694 0.16487 0.41457 0.0
C922 C 0.65594 0.13331 0.34913 0.0
C923 C 0.63773 0.14644 0.34139 0.0
C924 C 0.66315 0.11492 0.3307 0.0
C925 C 0.68383 0.10174 0.33682 0.0
C926 C 0.70909 0.11456 0.34479 0.0
C927 C 0.72849 0.10206 0.35058 0.0
C928 C 0.72292 0.07672 0.3483 0.0
C929 C 0.69793 0.06383 0.34018 0.0
C930 C 0.67845 0.07624 0.3344 0.0
C931 C 0.61056 0.12165 0.22643 0.0
C932 C 0.599 0.09703 0.22011 0.0
C933 C 0.62066 0.12994 0.25215 0.0
C934 C 0.61906 0.11374 0.2719 0.0
C935 C 0.60667 0.08937 0.26584 0.0
C936 C 0.59672 0.08109 0.2402 0.0
C937 C 0.63176 0.12153 0.29836 0.0
C938 C 0.65078 0.10914 0.30568 0.0
C939 C 0.62547 0.14074 0.31619 0.0
C940 C 0.60552 0.1545 0.30963 0.0
C941 C 0.57955 0.14249 0.30321 0.0
C942 C 0.56092 0.15567 0.29701 0.0
C943 C 0.56797 0.18089 0.29738 0.0
C944 C 0.59366 0.19299 0.30403 0.0
C945 C 0.61238 0.17989 0.3102 0.0
H946 H 0.55351 0.19107 0.29259 0.0
H947 H 0.73797 0.06708 0.35279 0.0
H948 H 0.39576 0.69781 0.35051 0.0
H949 H 0.41003 0.67607 0.38523 0.0
H950 H 0.47558 0.66248 0.33421 0.0
H951 H 0.46073 0.68339 0.299 0.0
H952 H 0.4558 0.62342 0.35497 0.0
H953 H 0.47933 0.70647 0.39472 0.0
H954 H 0.47145 0.74682 0.41213 0.0
H955 H 0.41479 0.71442 0.46968 0.0
H956 H 0.42201 0.67384 0.4523 0.0
H957 H 0.52478 0.57827 0.45126 0.0
H958 H 0.51071 0.6019 0.41854 0.0
H959 H 0.44943 0.61872 0.47394 0.0
H960 H 0.46484 0.59638 0.50754 0.0
H961 H 0.46587 0.65587 0.45128 0.0
H962 H 0.44031 0.57347 0.41227 0.0
H963 H 0.44667 0.53242 0.39575 0.0
H964 H 0.50437 0.56233 0.33774 0.0
H965 H 0.49857 0.60359 0.35413 0.0
C966 C 0.41339 0.69043 0.34673 0.0
C967 C 0.42713 0.69261 0.32185 0.0
C968 C 0.42167 0.67802 0.36679 0.0
C969 C 0.44428 0.66778 0.36285 0.0
C970 C 0.45813 0.67013 0.33805 0.0
C971 C 0.44966 0.68227 0.31786 0.0
C972 C 0.45299 0.65388 0.38391 0.0
C973 C 0.45834 0.63076 0.37595 0.0
C974 C 0.45547 0.66273 0.41169 0.0
C975 C 0.45099 0.68711 0.42197 0.0
C976 C 0.46501 0.70794 0.41091 0.0
C977 C 0.46068 0.73085 0.4208 0.0
C978 C 0.44256 0.73317 0.44193 0.0
C979 C 0.42876 0.71259 0.45326 0.0
C980 C 0.43296 0.68964 0.44339 0.0
C981 C 0.50822 0.58692 0.45648 0.0
C982 C 0.4958 0.58516 0.48202 0.0
C983 C 0.49996 0.60035 0.43754 0.0
C984 C 0.4783 0.6117 0.44306 0.0
C985 C 0.46605 0.61015 0.46878 0.0
C986 C 0.47482 0.59725 0.48807 0.0
C987 C 0.4688 0.62545 0.42232 0.0
C988 C 0.46328 0.64849 0.43032 0.0
C989 C 0.46579 0.61641 0.39462 0.0
C990 C 0.46915 0.59161 0.38458 0.0
C991 C 0.45444 0.57129 0.39608 0.0
C992 C 0.45794 0.54799 0.38673 0.0
C993 C 0.47595 0.54478 0.36575 0.0
C994 C 0.49044 0.56485 0.35401 0.0
C995 C 0.48703 0.58819 0.36329 0.0
H996 H 0.47865 0.52673 0.35855 0.0
H997 H 0.43926 0.75093 0.44957 0.0
H998 H 0.12959 0.3782 0.79687 0.0
H999 H 0.11058 0.39926 0.83544 0.0
H1000 H 0.14264 0.4679 0.80476 0.0
H1001 H 0.16242 0.4469 0.76629 0.0
H1002 H 0.14777 0.47161 0.85835 0.0
H1003 H 0.07654 0.43916 0.79657 0.0
H1004 H 0.04788 0.40681 0.76776 0.0
H1005 H 0.02295 0.36799 0.83685 0.0
H1006 H 0.05174 0.39996 0.86601 0.0
H1007 H 0.06939 0.54156 0.93781 0.0
H1008 H 0.09085 0.52054 0.90096 0.0
H1009 H 0.05334 0.45167 0.92832 0.0
H1010 H 0.0305 0.47274 0.96431 0.0
H1011 H 0.05151 0.44776 0.87671 0.0
H1012 H 0.12171 0.47974 0.93892 0.0
H1013 H 0.15043 0.51153 0.96831 0.0
H1014 H 0.17776 0.55031 0.89972 0.0
H1015 H 0.14889 0.51893 0.86998 0.0
C1016 C 0.13274 0.3978 0.79832 0.0
C1017 C 0.14739 0.41084 0.77831 0.0
C1018 C 0.12172 0.40983 0.82038 0.0
C1019 C 0.12467 0.43516 0.82279 0.0
C1020 C 0.13997 0.44833 0.8033 0.0
C1021 C 0.15125 0.4363 0.78129 0.0
C1022 C 0.1114 0.4478 0.84535 0.0
C1023 C 0.12667 0.4666 0.86217 0.0
C1024 C 0.08396 0.4409 0.85087 0.0
C1025 C 0.06643 0.42184 0.8334 0.0
C1026 C 0.06505 0.42365 0.80557 0.0
C1027 C 0.04878 0.40539 0.78919 0.0
C1028 C 0.03365 0.38533 0.80045 0.0
C1029 C 0.0347 0.38352 0.82814 0.0
C1030 C 0.05096 0.40172 0.84461 0.0
C1031 C 0.06573 0.52193 0.93598 0.0
C1032 C 0.04847 0.50879 0.9541 0.0
C1033 C 0.0782 0.5099 0.915 0.0
C1034 C 0.0743 0.48445 0.9121 0.0
C1035 C 0.05686 0.47129 0.93014 0.0
C1036 C 0.04394 0.48334 0.95083 0.0
C1037 C 0.08786 0.47161 0.88987 0.0
C1038 C 0.07264 0.45277 0.87304 0.0
C1039 C 0.11537 0.47838 0.88448 0.0
C1040 C 0.13299 0.49709 0.90227 0.0
C1041 C 0.13374 0.49512 0.93014 0.0
C1042 C 0.15005 0.51306 0.94685 0.0
C1043 C 0.16587 0.53295 0.9359 0.0
C1044 C 0.16548 0.53491 0.90819 0.0
C1045 C 0.14917 0.51704 0.89139 0.0
H1046 H 0.17848 0.54684 0.94888 0.0
H1047 H 0.02107 0.3712 0.78773 0.0
H1048 H 0.67691 0.87669 0.90157 0.0
H1049 H 0.65228 0.90252 0.92996 0.0
H1050 H 0.59187 0.89014 0.8697 0.0
H1051 H 0.6165 0.86439 0.84103 0.0
H1052 H 0.60291 0.93714 0.88997 0.0
H1053 H 0.58085 0.8609 0.92495 0.0
H1054 H 0.58816 0.82374 0.94238 0.0
H1055 H 0.63014 0.86639 0.00976 0.0
H1056 H 0.62347 0.90387 0.99245 0.0
H1057 H 0.50737 0.9779 0.9847 0.0
H1058 H 0.52898 0.95204 0.95241 0.0
H1059 H 0.60005 0.97188 0.99925 0.0
H1060 H 0.57887 0.99807 0.03122 0.0
H1061 H 0.58012 0.91957 0.98449 0.0
H1062 H 0.60231 0.99639 0.94605 0.0
H1063 H 0.59144 0.03204 0.9282 0.0
H1064 H 0.5444 0.98558 0.86655 0.0
H1065 H 0.55465 0.94961 0.88436 0.0
C1066 C 0.65846 0.87954 0.89425 0.0
C1067 C 0.64864 0.86837 0.86906 0.0
C1068 C 0.64433 0.89423 0.91057 0.0
C1069 C 0.62005 0.89802 0.90211 0.0
C1070 C 0.61052 0.88743 0.87667 0.0
C1071 C 0.62462 0.87266 0.86034 0.0
C1072 C 0.60455 0.91281 0.92003 0.0
C1073 C 0.59763 0.93307 0.91051 0.0
C1074 C 0.59764 0.90762 0.94687 0.0
C1075 C 0.60191 0.88519 0.95725 0.0
C1076 C 0.59188 0.86237 0.94334 0.0
C1077 C 0.59586 0.84125 0.95322 0.0
C1078 C 0.60967 0.84271 0.97713 0.0
C1079 C 0.6195 0.86529 0.99121 0.0
C1080 C 0.61561 0.88648 0.98138 0.0
C1081 C 0.52762 0.9768 0.98804 0.0
C1082 C 0.54145 0.99002 0.01047 0.0
C1083 C 0.53993 0.96208 0.96958 0.0
C1084 C 0.56607 0.96007 0.97353 0.0
C1085 C 0.57985 0.97319 0.99592 0.0
C1086 C 0.56776 0.98823 0.01406 0.0
C1087 C 0.57909 0.94406 0.95458 0.0
C1088 C 0.5854 0.92352 0.96391 0.0
C1089 C 0.58502 0.94877 0.92749 0.0
C1090 C 0.57899 0.97034 0.9167 0.0
C1091 C 0.58944 0.99378 0.92885 0.0
C1092 C 0.58344 0.01404 0.91871 0.0
C1093 C 0.56718 0.01108 0.8963 0.0
C1094 C 0.55695 0.98785 0.88394 0.0
C1095 C 0.56286 0.96752 0.89403 0.0
H1096 H 0.56256 0.02679 0.88846 0.0
H1097 H 0.61271 0.82633 0.98477 0.0
H1098 H 0.75826 0.08951 0.54164 0.0
H1099 H 0.79946 0.07521 0.54166 0.0
H1100 H 0.83783 0.13366 0.49593 0.0
H1101 H 0.79665 0.14863 0.49663 0.0
H1102 H 0.82868 0.05864 0.5033 0.0
H1103 H 0.9038 0.1484 0.51336 0.0
H1104 H 0.9066 0.1917 0.52887 0.0
H1105 H 0.84309 0.1727 0.58563 0.0
H1106 H 0.84016 0.1293 0.57065 0.0
H1107 H 0.95297 0.0258 0.51508 0.0
H1108 H 0.92129 0.04726 0.49818 0.0
H1109 H 0.90886 0.0785 0.57935 0.0
H1110 H 0.94086 0.05774 0.59608 0.0
H1111 H 0.90937 0.11097 0.54441 0.0
H1112 H 0.86811 0.02603 0.55154 0.0
H1113 H 0.86443 0.98199 0.54026 0.0
H1114 H 0.8576 0.99019 0.45621 0.0
H1115 H 0.86157 0.03434 0.46702 0.0
C1116 C 0.77544 0.09935 0.53158 0.0
C1117 C 0.77428 0.12027 0.51928 0.0
C1118 C 0.79896 0.09108 0.53148 0.0
C1119 C 0.82175 0.10341 0.51888 0.0
C1120 C 0.82057 0.12406 0.50607 0.0
C1121 C 0.79704 0.13256 0.50647 0.0
C1122 C 0.8467 0.09472 0.52011 0.0
C1123 C 0.84643 0.07018 0.51199 0.0
C1124 C 0.86993 0.10975 0.53126 0.0
C1125 C 0.87154 0.1357 0.54062 0.0
C1126 C 0.89047 0.1535 0.52917 0.0
C1127 C 0.89208 0.17804 0.53787 0.0
C1128 C 0.87496 0.18495 0.55814 0.0
C1129 C 0.85626 0.16733 0.56985 0.0
C1130 C 0.8546 0.14276 0.56125 0.0
C1131 C 0.94363 0.03749 0.52918 0.0
C1132 C 0.94901 0.03998 0.55688 0.0
C1133 C 0.92562 0.04971 0.51953 0.0
C1134 C 0.9126 0.06429 0.53757 0.0
C1135 C 0.91878 0.06743 0.56508 0.0
C1136 C 0.93687 0.0554 0.57465 0.0
C1137 C 0.89088 0.07475 0.52863 0.0
C1138 C 0.89184 0.09962 0.53507 0.0
C1139 C 0.86806 0.05993 0.51648 0.0
C1140 C 0.86542 0.03343 0.51003 0.0
C1141 C 0.86597 0.01842 0.53065 0.0
C1142 C 0.86383 0.99346 0.52434 0.0
C1143 C 0.86087 0.9833 0.49752 0.0
C1144 C 0.85996 0.99808 0.47696 0.0
C1145 C 0.86214 0.02307 0.48316 0.0
H1146 H 0.85922 0.96397 0.49268 0.0
H1147 H 0.87622 0.20396 0.56483 0.0
H1148 H 0.30114 0.63826 0.12829 0.0
H1149 H 0.25956 0.6159 0.10874 0.0
H1150 H 0.21826 0.66672 0.15311 0.0
H1151 H 0.25992 0.68889 0.17344 0.0
H1152 H 0.18932 0.62329 0.15385 0.0
H1153 H 0.23337 0.66765 0.08369 0.0
H1154 H 0.26983 0.68257 0.05258 0.0
H1155 H 0.26814 0.60971 0.01739 0.0
H1156 H 0.23191 0.5943 0.0486 0.0
H1157 H 0.07425 0.59288 0.07136 0.0
H1158 H 0.11569 0.61433 0.09242 0.0
H1159 H 0.15262 0.55477 0.06338 0.0
H1160 H 0.11095 0.53288 0.04262 0.0
H1161 H 0.18313 0.60261 0.05461 0.0
H1162 H 0.13739 0.55926 0.12595 0.0
H1163 H 0.09945 0.54633 0.15615 0.0
H1164 H 0.10284 0.62038 0.18799 0.0
H1165 H 0.14057 0.6338 0.15761 0.0
C1166 C 0.28325 0.64472 0.13401 0.0
C1167 C 0.28404 0.66553 0.1524 0.0
C1168 C 0.25939 0.63194 0.12262 0.0
C1169 C 0.23563 0.63978 0.12892 0.0
C1170 C 0.23623 0.66026 0.14775 0.0
C1171 C 0.26013 0.67299 0.15935 0.0
C1172 C 0.21032 0.6266 0.11581 0.0
C1173 C 0.18798 0.61911 0.13211 0.0
C1174 C 0.20834 0.62067 0.08743 0.0
C1175 C 0.23014 0.62981 0.06868 0.0
C1176 C 0.24094 0.65479 0.06947 0.0
C1177 C 0.26153 0.66334 0.0518 0.0
C1178 C 0.27135 0.64709 0.03308 0.0
C1179 C 0.26055 0.62226 0.03195 0.0
C1180 C 0.23998 0.61361 0.04961 0.0
C1181 C 0.09118 0.58431 0.06936 0.0
C1182 C 0.08924 0.56113 0.05524 0.0
C1183 C 0.11485 0.59659 0.08152 0.0
C1184 C 0.13728 0.58616 0.07958 0.0
C1185 C 0.13558 0.56318 0.06515 0.0
C1186 C 0.11172 0.55066 0.05336 0.0
C1187 C 0.16242 0.59929 0.09266 0.0
C1188 C 0.18463 0.60681 0.07633 0.0
C1189 C 0.16416 0.60555 0.12093 0.0
C1190 C 0.14161 0.59755 0.13931 0.0
C1191 C 0.12989 0.57281 0.13921 0.0
C1192 C 0.10845 0.56539 0.15639 0.0
C1193 C 0.09869 0.58253 0.17393 0.0
C1194 C 0.1104 0.60713 0.17436 0.0
C1195 C 0.13182 0.61465 0.15718 0.0
H1196 H 0.08209 0.57675 0.18722 0.0
H1197 H 0.28729 0.65375 0.01939 0.0
H1198 H 0.28806 0.40669 0.67948 0.0
H1199 H 0.32864 0.42642 0.65755 0.0
H1200 H 0.28547 0.47194 0.62119 0.0
H1201 H 0.24463 0.45184 0.64252 0.0
H1202 H 0.31768 0.45444 0.58513 0.0
H1203 H 0.32682 0.49332 0.67652 0.0
H1204 H 0.32814 0.49394 0.72606 0.0
H1205 H 0.39289 0.45689 0.71824 0.0
H1206 H 0.39171 0.45576 0.66865 0.0
H1207 H 0.43159 0.52962 0.53347 0.0
H1208 H 0.39008 0.51455 0.55722 0.0
H1209 H 0.43134 0.47642 0.60653 0.0
H1210 H 0.47299 0.49348 0.58455 0.0
H1211 H 0.39877 0.49177 0.6365 0.0
H1212 H 0.38899 0.4494 0.54678 0.0
H1213 H 0.38798 0.4461 0.497 0.0
H1214 H 0.32542 0.48571 0.50093 0.0
H1215 H 0.32628 0.48947 0.55072 0.0
C1216 C 0.2872 0.421 0.66695 0.0
C1217 C 0.26309 0.42775 0.66285 0.0
C1218 C 0.31046 0.43234 0.65449 0.0
C1219 C 0.31022 0.45093 0.638 0.0
C1220 C 0.28618 0.4577 0.63387 0.0
C1221 C 0.26285 0.44623 0.64616 0.0
C1222 C 0.33489 0.46292 0.62456 0.0
C1223 C 0.33534 0.46289 0.59638 0.0
C1224 C 0.35817 0.47335 0.63909 0.0
C1225 C 0.35904 0.47431 0.6689 0.0
C1226 C 0.34124 0.4852 0.68538 0.0
C1227 C 0.34197 0.48564 0.71346 0.0
C1228 C 0.36055 0.47542 0.72529 0.0
C1229 C 0.37849 0.46479 0.70906 0.0
C1230 C 0.37782 0.46426 0.68097 0.0
C1231 C 0.43162 0.51811 0.5495 0.0
C1232 C 0.45525 0.51255 0.5572 0.0
C1233 C 0.40789 0.50927 0.56291 0.0
C1234 C 0.40721 0.49368 0.58328 0.0
C1235 C 0.43109 0.48834 0.59096 0.0
C1236 C 0.45491 0.498 0.57833 0.0
C1237 C 0.38188 0.48299 0.59682 0.0
C1238 C 0.38121 0.48332 0.6251 0.0
C1239 C 0.35854 0.47238 0.5823 0.0
C1240 C 0.35787 0.46989 0.55241 0.0
C1241 C 0.37511 0.45749 0.537 0.0
C1242 C 0.37456 0.45554 0.5088 0.0
C1243 C 0.35669 0.46574 0.49581 0.0
C1244 C 0.33927 0.47784 0.511 0.0
C1245 C 0.33976 0.47987 0.5392 0.0
H1246 H 0.35631 0.46422 0.47398 0.0
H1247 H 0.36108 0.47577 0.74703 0.0
H1248 H 0.76733 0.71743 0.885 0.0
H1249 H 0.79882 0.69698 0.90336 0.0
H1250 H 0.77492 0.63515 0.84465 0.0
H1251 H 0.74401 0.6559 0.82556 0.0
H1252 H 0.79385 0.658 0.92697 0.0
H1253 H 0.82654 0.6074 0.82878 0.0
H1254 H 0.83122 0.61182 0.77997 0.0
H1255 H 0.84098 0.6891 0.79644 0.0
H1256 H 0.83672 0.68515 0.84533 0.0
H1257 H 0.87236 0.57874 0.96416 0.0
H1258 H 0.83838 0.59335 0.9415 0.0
H1259 H 0.899 0.64403 0.90358 0.0
H1260 H 0.93293 0.62936 0.9259 0.0
H1261 H 0.86098 0.62525 0.86915 0.0
H1262 H 0.86655 0.66163 0.96097 0.0
H1263 H 0.86581 0.6617 0.01053 0.0
H1264 H 0.78585 0.62116 0.008 0.0
H1265 H 0.78628 0.62054 0.95835 0.0
C1266 C 0.76881 0.6995 0.87595 0.0
C1267 C 0.75331 0.68834 0.85372 0.0
C1268 C 0.78676 0.68779 0.88652 0.0
C1269 C 0.78947 0.66463 0.87521 0.0
C1270 C 0.77358 0.65321 0.85337 0.0
C1271 C 0.75584 0.66505 0.84255 0.0
C1272 C 0.80895 0.65258 0.88638 0.0
C1273 C 0.80844 0.65076 0.91427 0.0
C1274 C 0.82821 0.64334 0.86993 0.0
C1275 C 0.83095 0.64594 0.84063 0.0
C1276 C 0.82974 0.62533 0.82195 0.0
C1277 C 0.83232 0.62775 0.79429 0.0
C1278 C 0.83628 0.65072 0.7851 0.0
C1279 C 0.83779 0.67132 0.80357 0.0
C1280 C 0.83526 0.669 0.83125 0.0
C1281 C 0.87837 0.59292 0.95088 0.0
C1282 C 0.90524 0.60306 0.94692 0.0
C1283 C 0.85899 0.60122 0.93795 0.0
C1284 C 0.86618 0.62003 0.92119 0.0
C1285 C 0.89302 0.62948 0.9164 0.0
C1286 C 0.91239 0.62107 0.92914 0.0
C1287 C 0.84586 0.63078 0.90967 0.0
C1288 C 0.84618 0.63228 0.88175 0.0
C1289 C 0.82689 0.64035 0.92618 0.0
C1290 C 0.82656 0.64078 0.95598 0.0
C1291 C 0.84889 0.65256 0.97098 0.0
C1292 C 0.84852 0.65273 0.99908 0.0
C1293 C 0.82583 0.64137 0.0124 0.0
C1294 C 0.80343 0.62989 0.99765 0.0
C1295 C 0.80373 0.62963 0.96954 0.0
H1296 H 0.82557 0.64152 0.03415 0.0
H1297 H 0.83825 0.65255 0.76368 0.0
H1298 H 0.40184 0.81335 0.24084 0.0
H1299 H 0.41731 0.85287 0.22278 0.0
H1300 H 0.43867 0.81632 0.1475 0.0
H1301 H 0.42224 0.77694 0.16503 0.0
H1302 H 0.47879 0.86002 0.17337 0.0
H1303 H 0.38799 0.83325 0.14394 0.0
H1304 H 0.34014 0.81957 0.15164 0.0
H1305 H 0.33831 0.88525 0.20274 0.0
H1306 H 0.3863 0.89912 0.19571 0.0
H1307 H 0.50809 0.94982 0.08498 0.0
H1308 H 0.4901 0.91258 0.10549 0.0
H1309 H 0.44027 0.95028 0.15785 0.0
H1310 H 0.45718 0.98746 0.1357 0.0
H1311 H 0.41447 0.90737 0.14797 0.0
H1312 H 0.50247 0.93613 0.17803 0.0
H1313 H 0.55057 0.95124 0.17429 0.0
H1314 H 0.55882 0.88457 0.12837 0.0
H1315 H 0.5107 0.86918 0.13152 0.0
C1316 C 0.41022 0.81382 0.22061 0.0
C1317 C 0.41116 0.79204 0.20448 0.0
C1318 C 0.41887 0.83639 0.21022 0.0
C1319 C 0.42914 0.83763 0.18372 0.0
C1320 C 0.43087 0.8159 0.16797 0.0
C1321 C 0.42156 0.79339 0.17805 0.0
C1322 C 0.43773 0.86142 0.17209 0.0
C1323 C 0.46473 0.87029 0.1676 0.0
C1324 C 0.41954 0.87535 0.16542 0.0
C1325 C 0.39077 0.86704 0.16963 0.0
C1326 C 0.37744 0.84463 0.15709 0.0
C1327 C 0.35029 0.83688 0.16126 0.0
C1328 C 0.33621 0.85149 0.17776 0.0
C1329 C 0.34926 0.87392 0.19003 0.0
C1330 C 0.37643 0.88173 0.18596 0.0
C1331 C 0.49303 0.95012 0.10065 0.0
C1332 C 0.48418 0.97164 0.1088 0.0
C1333 C 0.48294 0.92879 0.11269 0.0
C1334 C 0.46444 0.9285 0.13416 0.0
C1335 C 0.45471 0.94983 0.14161 0.0
C1336 C 0.46434 0.97114 0.12893 0.0
C1337 C 0.45576 0.90605 0.14874 0.0
C1338 C 0.42871 0.89736 0.15386 0.0
C1339 C 0.47401 0.89252 0.15663 0.0
C1340 C 0.50297 0.90159 0.15484 0.0
C1341 C 0.51453 0.92475 0.16701 0.0
C1342 C 0.5418 0.93336 0.165 0.0
C1343 C 0.55773 0.91889 0.15105 0.0
C1344 C 0.54645 0.89576 0.13914 0.0
C1345 C 0.51918 0.88707 0.14106 0.0
H1346 H 0.57884 0.9256 0.14951 0.0
H1347 H 0.31518 0.84546 0.18095 0.0
H1348 H 0.08184 0.2675 0.70202 0.0
H1349 H 0.07039 0.22559 0.68197 0.0
H1350 H 0.14503 0.23444 0.6389 0.0
H1351 H 0.15671 0.27673 0.65884 0.0
H1352 H 0.10227 0.20891 0.6072 0.0
H1353 H 0.13869 0.20591 0.6939 0.0
H1354 H 0.14282 0.21554 0.74322 0.0
H1355 H 0.06189 0.18021 0.75436 0.0
H1356 H 0.05717 0.17067 0.70506 0.0
H1357 H 0.08141 0.08298 0.56692 0.0
H1358 H 0.10202 0.12393 0.58592 0.0
H1359 H 0.04058 0.12104 0.64739 0.0
H1360 H 0.02165 0.07925 0.62984 0.0
H1361 H 0.08185 0.14408 0.66901 0.0
H1362 H 0.0431 0.15035 0.58331 0.0
H1363 H 0.03747 0.14041 0.53411 0.0
H1364 H 0.11983 0.1696 0.52088 0.0
H1365 H 0.12599 0.17949 0.57003 0.0
C1366 C 0.09585 0.26066 0.6882 0.0
C1367 C 0.12029 0.27547 0.68217 0.0
C1368 C 0.08926 0.23665 0.67679 0.0
C1369 C 0.10699 0.22683 0.65921 0.0
C1370 C 0.1311 0.24168 0.65248 0.0
C1371 C 0.13777 0.26579 0.66396 0.0
C1372 C 0.10043 0.20085 0.64859 0.0
C1373 C 0.09813 0.19466 0.62063 0.0
C1374 C 0.09463 0.18234 0.66615 0.0
C1375 C 0.09755 0.18771 0.69581 0.0
C1376 C 0.12174 0.20031 0.70687 0.0
C1377 C 0.12419 0.20574 0.73482 0.0
C1378 C 0.10262 0.19852 0.75191 0.0
C1379 C 0.07858 0.18579 0.7411 0.0
C1380 C 0.07601 0.18034 0.71316 0.0
C1381 C 0.07272 0.09108 0.58479 0.0
C1382 C 0.0501 0.0782 0.59706 0.0
C1383 C 0.08424 0.11457 0.59544 0.0
C1384 C 0.07244 0.12604 0.61764 0.0
C1385 C 0.05012 0.11275 0.63025 0.0
C1386 C 0.03926 0.0889 0.62025 0.0
C1387 C 0.08279 0.15195 0.62751 0.0
C1388 C 0.08597 0.1582 0.65542 0.0
C1389 C 0.08898 0.17052 0.60987 0.0
C1390 C 0.08503 0.16552 0.58031 0.0
C1391 C 0.05999 0.15465 0.56988 0.0
C1392 C 0.05672 0.149 0.54203 0.0
C1393 C 0.07829 0.15435 0.5244 0.0
C1394 C 0.10315 0.16548 0.53457 0.0
C1395 C 0.10654 0.17115 0.56241 0.0
H1396 H 0.07574 0.14991 0.50285 0.0
H1397 H 0.10456 0.20275 0.77355 0.0
H1398 H 0.66302 0.24079 0.48471 0.0
H1399 H 0.64631 0.27821 0.49043 0.0
H1400 H 0.71809 0.31645 0.45505 0.0
H1401 H 0.73506 0.27878 0.44885 0.0
H1402 H 0.69473 0.34031 0.50676 0.0
H1403 H 0.67426 0.30405 0.4151 0.0
H1404 H 0.65705 0.26948 0.38173 0.0
H1405 H 0.58094 0.26037 0.42114 0.0
H1406 H 0.59785 0.29466 0.45502 0.0
H1407 H 0.64171 0.44287 0.48275 0.0
H1408 H 0.66531 0.40943 0.48031 0.0
H1409 H 0.59131 0.35889 0.48903 0.0
H1410 H 0.56768 0.39216 0.49099 0.0
H1411 H 0.61883 0.34229 0.44953 0.0
H1412 H 0.63584 0.37597 0.54047 0.0
H1413 H 0.65051 0.4079 0.57751 0.0
H1414 H 0.72954 0.41937 0.5448 0.0
H1415 H 0.7152 0.38783 0.5072 0.0
C1416 C 0.67541 0.25715 0.4783 0.0
C1417 C 0.7003 0.25683 0.46616 0.0
C1418 C 0.66583 0.27849 0.48166 0.0
C1419 C 0.68101 0.29992 0.47314 0.0
C1420 C 0.70622 0.29999 0.46182 0.0
C1421 C 0.71576 0.27849 0.45814 0.0
C1422 C 0.66946 0.32167 0.47449 0.0
C1423 C 0.67848 0.3411 0.49395 0.0
C1424 C 0.6477 0.32205 0.45837 0.0
C1425 C 0.63737 0.30179 0.43768 0.0
C1426 C 0.65391 0.29456 0.41675 0.0
C1427 C 0.64421 0.27504 0.39773 0.0
C1428 C 0.61793 0.26271 0.39933 0.0
C1429 C 0.60129 0.26993 0.41992 0.0
C1430 C 0.61091 0.28942 0.43901 0.0
C1431 C 0.63058 0.42464 0.48446 0.0
C1432 C 0.60291 0.42 0.48696 0.0
C1433 C 0.64405 0.40558 0.48309 0.0
C1434 C 0.63006 0.3817 0.48463 0.0
C1435 C 0.60246 0.37717 0.48765 0.0
C1436 C 0.589 0.39614 0.48875 0.0
C1437 C 0.64396 0.36122 0.48195 0.0
C1438 C 0.63529 0.34186 0.46222 0.0
C1439 C 0.66568 0.36076 0.49824 0.0
C1440 C 0.67438 0.37973 0.52083 0.0
C1441 C 0.6563 0.38546 0.54102 0.0
C1442 C 0.66456 0.40347 0.56214 0.0
C1443 C 0.69093 0.4157 0.56348 0.0
C1444 C 0.7091 0.40992 0.54371 0.0
C1445 C 0.70092 0.39198 0.52248 0.0
H1446 H 0.6973 0.42961 0.57988 0.0
H1447 H 0.61046 0.24758 0.3846 0.0
loop_
_geom_bond_atom_site_label_1
_geom_bond_atom_site_label_2
_geom_bond_distance
_geom_bond_site_symmetry_2
_ccdc_geom_bond_type
O0 Cd1 2.300 . S
O0 C7 1.275 . S
Cd1 O0 2.300 . S
Cd1 O9 2.381 . S
Cd1 O10 2.378 . S
O2 Cd3 2.385 . S
O2 C7 1.255 . S
Cd3 O2 2.385 . S
Cd3 O4 2.317 . S
O4 Cd3 2.317 . S
O4 C5 1.232 . S
C5 O4 1.232 . S
C5 O6 1.218 . S
O6 C5 1.218 . S
C7 O0 1.275 . S
C7 O2 1.255 . S
C8 O9 1.258 . S
C8 O10 1.256 . S
O9 Cd1 2.381 . S
O9 C8 1.258 . S
O10 Cd1 2.378 . S
O10 C8 1.256 . S
O11 Cd12 2.300 . S
O11 C18 1.275 . S
Cd12 O11 2.300 . S
Cd12 O20 2.381 . S
Cd12 O21 2.378 . S
O13 Cd14 2.385 . S
O13 C18 1.255 . S
Cd14 O13 2.385 . S
Cd14 O15 2.317 . S
O15 Cd14 2.317 . S
O15 C16 1.232 . S
C16 O15 1.232 . S
C16 O17 1.218 . S
O17 C16 1.218 . S
C18 O11 1.275 . S
C18 O13 1.255 . S
C19 O20 1.258 . S
C19 O21 1.256 . S
O20 Cd12 2.381 . S
O20 C19 1.258 . S
O21 Cd12 2.378 . S
O21 C19 1.256 . S
O22 Cd23 2.300 . S
O22 C29 1.275 . S
Cd23 O22 2.300 . S
Cd23 O31 2.381 . S
Cd23 O32 2.378 . S
O24 Cd25 2.385 . S
O24 C29 1.255 . S
Cd25 O24 2.385 . S
Cd25 O26 2.317 . S
O26 Cd25 2.317 . S
O26 C27 1.232 . S
C27 O26 1.232 . S
C27 O28 1.218 . S
O28 C27 1.218 . S
C29 O22 1.275 . S
C29 O24 1.255 . S
C30 O31 1.258 . S
C30 O32 1.256 . S
O31 Cd23 2.381 . S
O31 C30 1.258 . S
O32 Cd23 2.378 . S
O32 C30 1.256 . S
O33 Cd34 2.300 . S
O33 C40 1.275 . S
Cd34 O33 2.300 . S
Cd34 O42 2.381 . S
Cd34 O43 2.378 . S
O35 Cd36 2.385 . S
O35 C40 1.255 . S
Cd36 O35 2.385 . S
Cd36 O37 2.317 . S
O37 Cd36 2.317 . S
O37 C38 1.232 . S
C38 O37 1.232 . S
C38 O39 1.218 . S
O39 C38 1.218 . S
C40 O33 1.275 . S
C40 O35 1.255 . S
C41 O42 1.258 . S
C41 O43 1.256 . S
O42 Cd34 2.381 . S
O42 C41 1.258 . S
O43 Cd34 2.378 . S
O43 C41 1.256 . S
O44 Cd45 2.300 . S
O44 C51 1.275 . S
Cd45 O44 2.300 . S
Cd45 O53 2.381 . S
Cd45 O54 2.378 . S
O46 Cd47 2.385 . S
O46 C51 1.255 . S
Cd47 O46 2.385 . S
Cd47 O48 2.317 . S
O48 Cd47 2.317 . S
O48 C49 1.232 . S
C49 O48 1.232 . S
C49 O50 1.218 . S
O50 C49 1.218 . S
C51 O44 1.275 . S
C51 O46 1.255 . S
C52 O53 1.258 . S
C52 O54 1.256 . S
O53 Cd45 2.381 . S
O53 C52 1.258 . S
O54 Cd45 2.378 . S
O54 C52 1.256 . S
O55 Cd56 2.300 . S
O55 C62 1.275 . S
Cd56 O55 2.300 . S
Cd56 O64 2.381 . S
Cd56 O65 2.378 . S
O57 Cd58 2.385 . S
O57 C62 1.255 . S
Cd58 O57 2.385 . S
Cd58 O59 2.317 . S
O59 Cd58 2.317 . S
O59 C60 1.232 . S
C60 O59 1.232 . S
C60 O61 1.218 . S
O61 C60 1.218 . S
C62 O55 1.275 . S
C62 O57 1.255 . S
C63 O64 1.258 . S
C63 O65 1.256 . S
O64 Cd56 2.381 . S
O64 C63 1.258 . S
O65 Cd56 2.378 . S
O65 C63 1.256 . S
O66 Cd67 2.300 . S
O66 C73 1.275 . S
Cd67 O66 2.300 . S
Cd67 O75 2.381 . S
Cd67 O76 2.378 . S
O68 Cd69 2.385 . S
O68 C73 1.255 . S
Cd69 O68 2.385 . S
Cd69 O70 2.317 . S
O70 Cd69 2.317 . S
O70 C71 1.232 . S
C71 O70 1.232 . S
C71 O72 1.218 . S
O72 C71 1.218 . S
C73 O66 1.275 . S
C73 O68 1.255 . S
C74 O75 1.258 . S
C74 O76 1.256 . S
O75 Cd67 2.381 . S
O75 C74 1.258 . S
O76 Cd67 2.378 . S
O76 C74 1.256 . S
O77 Cd78 2.300 . S
O77 C84 1.275 . S
Cd78 O77 2.300 . S
Cd78 O86 2.381 . S
Cd78 O87 2.378 . S
O79 Cd80 2.385 . S
O79 C84 1.255 . S
Cd80 O79 2.385 . S
Cd80 O81 2.317 . S
O81 Cd80 2.317 . S
O81 C82 1.232 . S
C82 O81 1.232 . S
C82 O83 1.218 . S
O83 C82 1.218 . S
C84 O77 1.275 . S
C84 O79 1.255 . S
C85 O86 1.258 . S
C85 O87 1.256 . S
O86 Cd78 2.381 . S
O86 C85 1.258 . S
O87 Cd78 2.378 . S
O87 C85 1.256 . S
Ho88 C91 2.811 . S
Ho88 O108 2.322 . S
Ho88 O110 2.378 . S
Ho88 O111 2.524 . S
Ho88 O112 2.381 1_545 S
Ho88 O113 2.669 1_545 S
Ho88 O115 2.346 1_445 S
Ho88 O119 2.305 1_455 S
Ho89 C100 2.811 1_545 S
Ho89 O109 2.346 1_655 S
Ho89 O113 2.305 1_645 S
Ho89 O114 2.322 1_545 S
Ho89 O116 2.378 1_545 S
Ho89 O117 2.524 1_545 S
Ho89 O118 2.381 . S
Ho89 O119 2.669 . S
C90 O108 1.259 . S
C90 O109 1.268 . S
C91 Ho88 2.811 . S
C91 C92 1.488 . S
C91 O110 1.215 . S
C91 O111 1.289 . S
C92 C91 1.488 . S
C92 C93 1.348 . S
C92 C97 1.413 . S
C93 C92 1.348 . S
C93 C94 1.442 . S
C93 H120 0.930 . S
C94 C93 1.442 . S
C94 C95 1.381 . S
C94 H121 0.931 . S
C95 C94 1.381 . S
C95 C96 1.321 . S
C96 C95 1.321 . S
C96 C97 1.403 . S
C96 H122 0.934 . S
C97 C92 1.413 . S
C97 C96 1.403 . S
C97 H123 0.930 . S
C98 O112 1.275 . S
C98 O113 1.256 . S
C99 O114 1.259 . S
C99 O115 1.268 . S
C100 Ho89 2.811 1_565 S
C100 C101 1.488 . S
C100 O116 1.215 . S
C100 O117 1.289 . S
C101 C100 1.488 . S
C101 C102 1.348 . S
C101 C106 1.413 . S
C102 C101 1.348 . S
C102 C103 1.442 . S
C102 H124 0.930 . S
C103 C102 1.442 . S
C103 C104 1.381 . S
C103 H125 0.931 . S
C104 C103 1.381 . S
C104 C105 1.321 . S
C105 C104 1.321 . S
C105 C106 1.403 . S
C105 H126 0.934 . S
C106 C101 1.413 . S
C106 C105 1.403 . S
C106 H127 0.930 . S
C107 O118 1.275 . S
C107 O119 1.256 . S
O108 Ho88 2.322 . S
O108 C90 1.259 . S
O109 Ho89 2.346 1_455 S
O109 C90 1.268 . S
O110 Ho88 2.378 . S
O110 C91 1.215 . S
O111 Ho88 2.524 . S
O111 C91 1.289 . S
O112 Ho88 2.381 1_565 S
O112 C98 1.275 . S
O113 Ho88 2.669 1_565 S
O113 Ho89 2.305 1_465 S
O113 C98 1.256 . S
O114 Ho89 2.322 1_565 S
O114 C99 1.259 . S
O115 Ho88 2.346 1_665 S
O115 C99 1.268 . S
O116 Ho89 2.378 1_565 S
O116 C100 1.215 . S
O117 Ho89 2.524 1_565 S
O117 C100 1.289 . S
O118 Ho89 2.381 . S
O118 C107 1.275 . S
O119 Ho88 2.305 1_655 S
O119 Ho89 2.669 . S
O119 C107 1.256 . S
H120 C93 0.930 . S
H121 C94 0.931 . S
H122 C96 0.934 . S
H123 C97 0.930 . S
H124 C102 0.930 . S
H125 C103 0.931 . S
H126 C105 0.934 . S
H127 C106 0.930 . S
Ho128 C131 2.811 . S
Ho128 O148 2.322 . S
Ho128 O150 2.378 . S
Ho128 O151 2.524 . S
Ho128 O152 2.381 1_545 S
Ho128 O153 2.669 . S
Ho128 O155 2.346 . S
Ho128 O159 2.305 . S
Ho129 C140 2.811 1_544 S
Ho129 O149 2.346 . S
Ho129 O153 2.305 . S
Ho129 O154 2.322 . S
Ho129 O156 2.378 1_554 S
Ho129 O157 2.535 1_545 S
Ho129 O158 2.381 . S
Ho129 O159 2.669 . S
C130 O148 1.259 . S
C130 O149 1.268 . S
C131 Ho128 2.811 . S
C131 C132 1.488 . S
C131 O150 1.215 . S
C131 O151 1.289 . S
C132 C131 1.488 . S
C132 C133 1.348 . S
C132 C137 1.413 . S
C133 C132 1.348 . S
C133 C134 1.442 . S
C133 H160 0.930 . S
C134 C133 1.442 . S
C134 C135 1.381 . S
C134 H161 0.931 . S
C135 C134 1.381 . S
C135 C136 1.321 . S
C136 C135 1.321 . S
C136 C137 1.403 . S
C136 H162 0.934 . S
C137 C132 1.413 . S
C137 C136 1.403 . S
C137 H163 0.930 . S
C138 O152 1.275 . S
C138 O153 1.256 1_565 S
C139 O154 1.259 1_565 S
C139 O155 1.268 1_565 S
C140 Ho129 2.811 1_566 S
C140 C141 1.488 . S
C140 O156 1.215 1_565 S
C140 O157 1.265 1_556 S
C141 C140 1.488 . S
C141 C142 1.348 . S
C141 C146 1.413 . S
C142 C141 1.348 . S
C142 C143 1.442 . S
C142 H164 0.930 . S
C143 C142 1.442 . S
C143 C144 1.381 . S
C143 H165 0.931 . S
C144 C143 1.381 . S
C144 C145 1.321 . S
C145 C144 1.321 . S
C145 C146 1.403 . S
C145 H166 0.934 . S
C146 C141 1.413 . S
C146 C145 1.403 . S
C146 H167 0.930 1_565 S
C147 O158 1.275 . S
C147 O159 1.256 . S
O148 Ho128 2.322 . S
O148 C130 1.259 . S
O149 Ho129 2.346 . S
O149 C130 1.268 . S
O150 Ho128 2.378 . S
O150 C131 1.215 . S
O151 Ho128 2.524 . S
O151 C131 1.289 . S
O152 Ho128 2.381 1_565 S
O152 C138 1.275 . S
O153 Ho128 2.669 . S
O153 Ho129 2.305 . S
O153 C138 1.256 1_545 S
O154 Ho129 2.322 . S
O154 C139 1.259 1_545 S
O155 Ho128 2.346 . S
O155 C139 1.268 1_545 S
O156 Ho129 2.378 1_556 S
O156 C140 1.215 1_545 S
O157 Ho129 2.535 1_565 S
O157 C140 1.265 1_554 S
O158 Ho129 2.381 . S
O158 C147 1.275 . S
O159 Ho128 2.305 . S
O159 Ho129 2.669 . S
O159 C147 1.256 . S
H160 C133 0.930 . S
H161 C134 0.931 . S
H162 C136 0.934 . S
H163 C137 0.930 . S
H164 C142 0.930 . S
H165 C143 0.931 . S
H166 C145 0.934 . S
H167 C146 0.930 1_545 S
Ho168 C171 2.811 . S
Ho168 O188 2.322 . S
Ho168 O190 2.378 . S
Ho168 O191 2.524 . S
Ho168 O192 2.381 . S
Ho168 O193 2.669 . S
Ho168 O195 2.346 . S
Ho168 O199 2.305 . S
Ho169 C180 2.811 . S
Ho169 O189 2.346 . S
Ho169 O193 2.305 . S
Ho169 O194 2.322 . S
Ho169 O196 2.378 . S
Ho169 O197 2.524 . S
Ho169 O198 2.381 . S
Ho169 O199 2.669 . S
C170 O188 1.259 . S
C170 O189 1.268 . S
C171 Ho168 2.811 . S
C171 C172 1.488 . S
C171 O190 1.215 . S
C171 O191 1.289 . S
C172 C171 1.488 . S
C172 C173 1.348 . S
C172 C177 1.413 . S
C173 C172 1.348 . S
C173 C174 1.442 . S
C173 H200 0.930 . S
C174 C173 1.442 . S
C174 C175 1.381 . S
C174 H201 0.931 . S
C175 C174 1.381 . S
C175 C176 1.321 . S
C176 C175 1.321 . S
C176 C177 1.403 . S
C176 H202 0.934 . S
C177 C172 1.413 . S
C177 C176 1.403 . S
C177 H203 0.930 . S
C178 O192 1.275 . S
C178 O193 1.256 . S
C179 O194 1.259 . S
C179 O195 1.268 . S
C180 Ho169 2.811 . S
C180 C181 1.488 . S
C180 O196 1.215 . S
C180 O197 1.289 . S
C181 C180 1.488 . S
C181 C182 1.348 . S
C181 C186 1.413 . S
C182 C181 1.348 . S
C182 C183 1.442 . S
C182 H204 0.930 . S
C183 C182 1.442 . S
C183 C184 1.381 . S
C183 H205 0.931 . S
C184 C183 1.381 . S
C184 C185 1.321 . S
C185 C184 1.321 . S
C185 C186 1.403 . S
C185 H206 0.934 . S
C186 C181 1.413 . S
C186 C185 1.403 . S
C186 H207 0.930 . S
C187 O198 1.275 . S
C187 O199 1.256 . S
O188 Ho168 2.322 . S
O188 C170 1.259 . S
O189 Ho169 2.346 . S
O189 C170 1.268 . S
O190 Ho168 2.378 . S
O190 C171 1.215 . S
O191 Ho168 2.524 . S
O191 C171 1.289 . S
O192 Ho168 2.381 . S
O192 C178 1.275 . S
O193 Ho168 2.669 . S
O193 Ho169 2.305 . S
O193 C178 1.256 . S
O194 Ho169 2.322 . S
O194 C179 1.259 . S
O195 Ho168 2.346 . S
O195 C179 1.268 . S
O196 Ho169 2.378 . S
O196 C180 1.215 . S
O197 Ho169 2.524 . S
O197 C180 1.289 . S
O198 Ho169 2.381 . S
O198 C187 1.275 . S
O199 Ho168 2.305 . S
O199 Ho169 2.669 . S
O199 C187 1.256 . S
H200 C173 0.930 . S
H201 C174 0.931 . S
H202 C176 0.934 . S
H203 C177 0.930 . S
H204 C182 0.930 . S
H205 C183 0.931 . S
H206 C185 0.934 . S
H207 C186 0.930 . S
Ho208 C211 2.811 . S
Ho208 O228 2.322 . S
Ho208 O230 2.378 . S
Ho208 O231 2.524 . S
Ho208 O232 2.381 . S
Ho208 O233 2.669 . S
Ho208 O235 2.346 1_455 S
Ho208 O239 2.305 1_554 S
Ho209 C220 2.811 1_455 S
Ho209 O229 2.346 1_556 S
Ho209 O233 2.305 1_556 S
Ho209 O234 2.322 1_455 S
Ho209 O236 2.364 1_455 S
Ho209 O237 2.524 1_455 S
Ho209 O238 2.381 . S
Ho209 O239 2.669 . S
C210 O228 1.259 . S
C210 O229 1.268 . S
C211 Ho208 2.811 . S
C211 C212 1.488 . S
C211 O230 1.215 . S
C211 O231 1.289 . S
C212 C211 1.488 . S
C212 C213 1.348 . S
C212 C217 1.413 . S
C213 C212 1.348 . S
C213 C214 1.442 . S
C213 H240 0.930 . S
C214 C213 1.442 . S
C214 C215 1.381 . S
C214 H241 0.931 . S
C215 C214 1.381 . S
C215 C216 1.321 . S
C216 C215 1.321 . S
C216 C217 1.403 . S
C216 H242 0.934 . S
C217 C212 1.413 . S
C217 C216 1.403 . S
C217 H243 0.930 . S
C218 O232 1.275 1_655 S
C218 O233 1.256 1_655 S
C219 O234 1.259 . S
C219 O235 1.268 1_556 S
C220 Ho209 2.811 1_655 S
C220 C221 1.488 . S
C220 O236 1.238 . S
C220 O237 1.289 . S
C221 C220 1.488 . S
C221 C222 1.348 . S
C221 C226 1.413 . S
C222 C221 1.348 . S
C222 C223 1.442 . S
C222 H244 0.930 . S
C223 C222 1.442 . S
C223 C224 1.381 . S
C223 H245 0.931 . S
C224 C223 1.381 . S
C224 C225 1.321 . S
C225 C224 1.321 . S
C225 C226 1.403 . S
C225 H246 0.934 . S
C226 C221 1.413 . S
C226 C225 1.403 . S
C226 H247 0.930 . S
C227 O238 1.275 . S
C227 O239 1.256 . S
O228 Ho208 2.322 . S
O228 C210 1.259 . S
O229 Ho209 2.346 1_554 S
O229 C210 1.268 . S
O230 Ho208 2.378 . S
O230 C211 1.215 . S
O231 Ho208 2.524 . S
O231 C211 1.289 . S
O232 Ho208 2.381 . S
O232 C218 1.275 1_455 S
O233 Ho208 2.669 . S
O233 Ho209 2.305 1_554 S
O233 C218 1.256 1_455 S
O234 Ho209 2.322 1_655 S
O234 C219 1.259 . S
O235 Ho208 2.346 1_655 S
O235 C219 1.268 1_554 S
O236 Ho209 2.364 1_655 S
O236 C220 1.238 . S
O237 Ho209 2.524 1_655 S
O237 C220 1.289 . S
O238 Ho209 2.381 . S
O238 C227 1.275 . S
O239 Ho208 2.305 1_556 S
O239 Ho209 2.669 . S
O239 C227 1.256 . S
H240 C213 0.930 . S
H241 C214 0.931 . S
H242 C216 0.934 . S
H243 C217 0.930 . S
H244 C222 0.930 . S
H245 C223 0.931 . S
H246 C225 0.934 . S
H247 C226 0.930 . S
H248 C266 0.951 . S
H249 C268 0.951 . S
H250 C270 0.950 . S
H251 C271 0.950 . S
H252 C273 0.950 . S
H253 C276 0.950 . S
H254 C277 0.950 . S
H255 C279 0.950 . S
H256 C280 0.950 . S
H257 C281 0.951 . S
H258 C283 0.951 . S
H259 C285 0.950 . S
H260 C286 0.950 . S
H261 C288 0.950 . S
H262 C291 0.950 . S
H263 C292 0.950 . S
H264 C294 0.950 . S
H265 C295 0.950 . S
C266 H248 0.951 . S
C266 C267 1.366 . S
C266 C268 1.388 . S
C267 C266 1.366 . S
C267 C271 1.385 . S
C268 H249 0.951 . S
C268 C266 1.388 . S
C268 C269 1.366 . S
C269 C268 1.366 . S
C269 C270 1.414 . S
C269 C272 1.499 . S
C270 H250 0.950 . S
C270 C269 1.414 . S
C270 C271 1.374 . S
C271 H251 0.950 . S
C271 C267 1.385 . S
C271 C270 1.374 . S
C272 C269 1.499 . S
C272 C273 1.373 . S
C272 C274 1.389 . S
C273 H252 0.950 . S
C273 C272 1.373 . S
C273 C289 1.377 . S
C274 C272 1.389 . S
C274 C275 1.524 . S
C274 C288 1.377 . S
C275 C274 1.524 . S
C275 C276 1.397 . S
C275 C280 1.363 . S
C276 H253 0.950 . S
C276 C275 1.397 . S
C276 C277 1.334 . S
C277 H254 0.950 . S
C277 C276 1.334 . S
C277 C278 1.287 . S
C278 C277 1.287 . S
C278 C279 1.524 . S
C278 H297 0.913 . S
C279 H255 0.950 . S
C279 C278 1.524 . S
C279 C280 1.415 . S
C280 H256 0.950 . S
C280 C275 1.363 . S
C280 C279 1.415 . S
C281 H257 0.951 . S
C281 C282 1.366 . S
C281 C283 1.388 . S
C282 C281 1.366 . S
C282 C286 1.385 . S
C283 H258 0.951 . S
C283 C281 1.388 . S
C283 C284 1.366 . S
C284 C283 1.366 . S
C284 C285 1.414 . S
C284 C287 1.499 . S
C285 H259 0.950 . S
C285 C284 1.414 . S
C285 C286 1.374 . S
C286 H260 0.950 . S
C286 C282 1.385 . S
C286 C285 1.374 . S
C287 C284 1.499 . S
C287 C288 1.373 . S
C287 C289 1.389 . S
C288 H261 0.950 . S
C288 C274 1.377 . S
C288 C287 1.373 . S
C289 C273 1.377 . S
C289 C287 1.389 . S
C289 C290 1.524 . S
C290 C289 1.524 . S
C290 C291 1.397 . S
C290 C295 1.363 . S
C291 H262 0.950 . S
C291 C290 1.397 . S
C291 C292 1.334 . S
C292 H263 0.950 . S
C292 C291 1.334 . S
C292 C293 1.287 . S
C293 C292 1.287 . S
C293 C294 1.524 . S
C293 H296 0.999 . S
C294 H264 0.950 . S
C294 C293 1.524 . S
C294 C295 1.415 . S
C295 H265 0.950 . S
C295 C290 1.363 . S
C295 C294 1.415 . S
H296 C293 0.999 . S
H297 C278 0.913 . S
H298 C316 0.951 . S
H299 C318 0.951 . S
H300 C320 0.950 . S
H301 C321 0.950 . S
H302 C323 0.950 . S
H303 C326 0.950 . S
H304 C327 0.950 . S
H305 C329 0.950 . S
H306 C330 0.950 . S
H307 C331 0.951 . S
H308 C333 0.951 . S
H309 C335 0.950 . S
H310 C336 0.950 . S
H311 C338 0.950 . S
H312 C341 0.950 . S
H313 C342 0.950 . S
H314 C344 0.950 . S
H315 C345 0.950 . S
C316 H298 0.951 . S
C316 C317 1.366 . S
C316 C318 1.388 . S
C317 C316 1.366 . S
C317 C321 1.385 . S
C318 H299 0.951 . S
C318 C316 1.388 . S
C318 C319 1.366 . S
C319 C318 1.366 . S
C319 C320 1.414 . S
C319 C322 1.499 . S
C320 H300 0.950 . S
C320 C319 1.414 . S
C320 C321 1.374 . S
C321 H301 0.950 . S
C321 C317 1.385 . S
C321 C320 1.374 . S
C322 C319 1.499 . S
C322 C323 1.373 . S
C322 C324 1.389 . S
C323 H302 0.950 . S
C323 C322 1.373 . S
C323 C339 1.377 . S
C324 C322 1.389 . S
C324 C325 1.524 . S
C324 C338 1.377 . S
C325 C324 1.524 . S
C325 C326 1.397 . S
C325 C330 1.363 . S
C326 H303 0.950 . S
C326 C325 1.397 . S
C326 C327 1.334 . S
C327 H304 0.950 . S
C327 C326 1.334 . S
C327 C328 1.287 . S
C328 C327 1.287 . S
C328 C329 1.524 . S
C328 H347 0.911 1_565 S
C329 H305 0.950 . S
C329 C328 1.524 . S
C329 C330 1.415 . S
C330 H306 0.950 . S
C330 C325 1.363 . S
C330 C329 1.415 . S
C331 H307 0.951 . S
C331 C332 1.366 . S
C331 C333 1.388 . S
C332 C331 1.366 . S
C332 C336 1.385 . S
C333 H308 0.951 . S
C333 C331 1.388 . S
C333 C334 1.366 . S
C334 C333 1.366 . S
C334 C335 1.414 . S
C334 C337 1.499 . S
C335 H309 0.950 . S
C335 C334 1.414 . S
C335 C336 1.374 . S
C336 H310 0.950 . S
C336 C332 1.385 . S
C336 C335 1.374 . S
C337 C334 1.499 . S
C337 C338 1.373 . S
C337 C339 1.389 . S
C338 H311 0.950 . S
C338 C324 1.377 . S
C338 C337 1.373 . S
C339 C323 1.377 . S
C339 C337 1.389 . S
C339 C340 1.524 . S
C340 C339 1.524 . S
C340 C341 1.397 . S
C340 C345 1.363 . S
C341 H312 0.950 . S
C341 C340 1.397 . S
C341 C342 1.334 . S
C342 H313 0.950 . S
C342 C341 1.334 . S
C342 C343 1.287 . S
C343 C342 1.287 . S
C343 C344 1.524 . S
C343 H346 0.999 . S
C344 H314 0.950 . S
C344 C343 1.524 . S
C344 C345 1.415 . S
C345 H315 0.950 . S
C345 C340 1.363 . S
C345 C344 1.415 . S
H346 C343 0.999 . S
H347 C328 0.911 1_545 S
H348 C366 0.951 . S
H349 C368 0.951 . S
H350 C370 0.950 . S
H351 C371 0.950 . S
H352 C373 0.950 . S
H353 C376 0.950 . S
H354 C377 0.950 . S
H355 C379 0.950 . S
H356 C380 0.950 . S
H357 C381 0.951 . S
H358 C383 0.951 . S
H359 C385 0.950 . S
H360 C386 0.950 . S
H361 C388 0.950 . S
H362 C391 0.950 . S
H363 C392 0.950 . S
H364 C394 0.950 . S
H365 C395 0.950 . S
C366 H348 0.951 . S
C366 C367 1.366 . S
C366 C368 1.388 . S
C367 C366 1.366 . S
C367 C371 1.385 . S
C368 H349 0.951 . S
C368 C366 1.388 . S
C368 C369 1.366 . S
C369 C368 1.366 . S
C369 C370 1.414 . S
C369 C372 1.499 . S
C370 H350 0.950 . S
C370 C369 1.414 . S
C370 C371 1.374 . S
C371 H351 0.950 . S
C371 C367 1.385 . S
C371 C370 1.374 . S
C372 C369 1.499 . S
C372 C373 1.373 . S
C372 C374 1.389 . S
C373 H352 0.950 . S
C373 C372 1.373 . S
C373 C389 1.377 . S
C374 C372 1.389 . S
C374 C375 1.524 . S
C374 C388 1.377 . S
C375 C374 1.524 . S
C375 C376 1.397 . S
C375 C380 1.363 . S
C376 H353 0.950 . S
C376 C375 1.397 . S
C376 C377 1.334 . S
C377 H354 0.950 . S
C377 C376 1.334 . S
C377 C378 1.287 . S
C378 C377 1.287 . S
C378 C379 1.524 . S
C378 H397 0.913 . S
C379 H355 0.950 . S
C379 C378 1.524 . S
C379 C380 1.415 . S
C380 H356 0.950 . S
C380 C375 1.363 . S
C380 C379 1.415 . S
C381 H357 0.951 . S
C381 C382 1.366 . S
C381 C383 1.388 . S
C382 C381 1.366 . S
C382 C386 1.385 . S
C383 H358 0.951 . S
C383 C381 1.388 . S
C383 C384 1.366 . S
C384 C383 1.366 . S
C384 C385 1.414 . S
C384 C387 1.499 . S
C385 H359 0.950 . S
C385 C384 1.414 . S
C385 C386 1.374 . S
C386 H360 0.950 . S
C386 C382 1.385 . S
C386 C385 1.374 . S
C387 C384 1.499 . S
C387 C388 1.373 . S
C387 C389 1.389 . S
C388 H361 0.950 . S
C388 C374 1.377 . S
C388 C387 1.373 . S
C389 C373 1.377 . S
C389 C387 1.389 . S
C389 C390 1.524 . S
C390 C389 1.524 . S
C390 C391 1.397 . S
C390 C395 1.363 . S
C391 H362 0.950 . S
C391 C390 1.397 . S
C391 C392 1.334 . S
C392 H363 0.950 . S
C392 C391 1.334 . S
C392 C393 1.287 . S
C393 C392 1.287 . S
C393 C394 1.524 . S
C393 H396 0.999 . S
C394 H364 0.950 . S
C394 C393 1.524 . S
C394 C395 1.415 . S
C395 H365 0.950 . S
C395 C390 1.363 . S
C395 C394 1.415 . S
H396 C393 0.999 . S
H397 C378 0.913 . S
H398 C416 0.951 . S
H399 C418 0.951 . S
H400 C420 0.950 . S
H401 C421 0.950 . S
H402 C423 0.950 . S
H403 C426 0.950 . S
H404 C427 0.950 . S
H405 C429 0.950 . S
H406 C430 0.950 . S
H407 C431 0.951 1_455 S
H408 C433 0.951 . S
H409 C435 0.950 . S
H410 C436 0.950 . S
H411 C438 0.950 . S
H412 C441 0.950 . S
H413 C442 0.950 . S
H414 C444 0.950 . S
H415 C445 0.950 . S
C416 H398 0.951 . S
C416 C417 1.366 . S
C416 C418 1.388 . S
C417 C416 1.366 . S
C417 C421 1.385 . S
C418 H399 0.951 . S
C418 C416 1.388 . S
C418 C419 1.366 . S
C419 C418 1.366 . S
C419 C420 1.414 . S
C419 C422 1.499 . S
C420 H400 0.950 . S
C420 C419 1.414 . S
C420 C421 1.374 . S
C421 H401 0.950 . S
C421 C417 1.385 . S
C421 C420 1.374 . S
C422 C419 1.499 . S
C422 C423 1.373 . S
C422 C424 1.389 . S
C423 H402 0.950 . S
C423 C422 1.373 . S
C423 C439 1.377 . S
C424 C422 1.389 . S
C424 C425 1.524 . S
C424 C438 1.377 . S
C425 C424 1.524 . S
C425 C426 1.397 . S
C425 C430 1.363 . S
C426 H403 0.950 . S
C426 C425 1.397 . S
C426 C427 1.334 . S
C427 H404 0.950 . S
C427 C426 1.334 . S
C427 C428 1.287 . S
C428 C427 1.287 . S
C428 C429 1.524 . S
C428 H447 0.913 . S
C429 H405 0.950 . S
C429 C428 1.524 . S
C429 C430 1.415 . S
C430 H406 0.950 . S
C430 C425 1.363 . S
C430 C429 1.415 . S
C431 H407 0.951 1_655 S
C431 C432 1.366 . S
C431 C433 1.388 . S
C432 C431 1.366 . S
C432 C436 1.385 . S
C433 H408 0.951 . S
C433 C431 1.388 . S
C433 C434 1.366 . S
C434 C433 1.366 . S
C434 C435 1.414 . S
C434 C437 1.499 . S
C435 H409 0.950 . S
C435 C434 1.414 . S
C435 C436 1.374 . S
C436 H410 0.950 . S
C436 C432 1.385 . S
C436 C435 1.374 . S
C437 C434 1.499 . S
C437 C438 1.373 . S
C437 C439 1.389 . S
C438 H411 0.950 . S
C438 C424 1.377 . S
C438 C437 1.373 . S
C439 C423 1.377 . S
C439 C437 1.389 . S
C439 C440 1.524 . S
C440 C439 1.524 . S
C440 C441 1.397 . S
C440 C445 1.363 . S
C441 H412 0.950 . S
C441 C440 1.397 . S
C441 C442 1.334 . S
C442 H413 0.950 . S
C442 C441 1.334 . S
C442 C443 1.287 . S
C443 C442 1.287 . S
C443 C444 1.524 . S
C443 H446 0.999 . S
C444 H414 0.950 . S
C444 C443 1.524 . S
C444 C445 1.415 . S
C445 H415 0.950 . S
C445 C440 1.363 . S
C445 C444 1.415 . S
H446 C443 0.999 . S
H447 C428 0.913 . S
H448 C466 0.951 . S
H449 C468 0.951 . S
H450 C470 0.950 . S
H451 C471 0.950 . S
H452 C473 0.950 . S
H453 C476 0.950 . S
H454 C477 0.950 . S
H455 C479 0.950 . S
H456 C480 0.950 . S
H457 C481 0.951 . S
H458 C483 0.951 . S
H459 C485 0.950 . S
H460 C486 0.950 . S
H461 C488 0.950 . S
H462 C491 0.950 . S
H463 C492 0.950 . S
H464 C494 0.950 . S
H465 C495 0.950 . S
C466 H448 0.951 . S
C466 C467 1.366 . S
C466 C468 1.388 . S
C467 C466 1.366 . S
C467 C471 1.385 . S
C468 H449 0.951 . S
C468 C466 1.388 . S
C468 C469 1.366 . S
C469 C468 1.366 . S
C469 C470 1.414 . S
C469 C472 1.499 . S
C470 H450 0.950 . S
C470 C469 1.414 . S
C470 C471 1.374 . S
C471 H451 0.950 . S
C471 C467 1.385 . S
C471 C470 1.374 . S
C472 C469 1.499 . S
C472 C473 1.373 . S
C472 C474 1.389 . S
C473 H452 0.950 . S
C473 C472 1.373 . S
C473 C489 1.377 . S
C474 C472 1.389 . S
C474 C475 1.524 . S
C474 C488 1.377 . S
C475 C474 1.524 . S
C475 C476 1.397 . S
C475 C480 1.363 . S
C476 H453 0.950 . S
C476 C475 1.397 . S
C476 C477 1.334 . S
C477 H454 0.950 . S
C477 C476 1.334 . S
C477 C478 1.287 . S
C478 C477 1.287 . S
C478 C479 1.524 . S
C478 H497 0.913 . S
C479 H455 0.950 . S
C479 C478 1.524 . S
C479 C480 1.415 . S
C480 H456 0.950 . S
C480 C475 1.363 . S
C480 C479 1.415 . S
C481 H457 0.951 . S
C481 C482 1.366 . S
C481 C483 1.388 . S
C482 C481 1.366 . S
C482 C486 1.385 . S
C483 H458 0.951 . S
C483 C481 1.388 . S
C483 C484 1.366 . S
C484 C483 1.366 . S
C484 C485 1.414 . S
C484 C487 1.499 . S
C485 H459 0.950 . S
C485 C484 1.414 . S
C485 C486 1.374 . S
C486 H460 0.950 . S
C486 C482 1.385 . S
C486 C485 1.374 . S
C487 C484 1.499 . S
C487 C488 1.373 . S
C487 C489 1.389 . S
C488 H461 0.950 . S
C488 C474 1.377 . S
C488 C487 1.373 . S
C489 C473 1.377 . S
C489 C487 1.389 . S
C489 C490 1.524 . S
C490 C489 1.524 . S
C490 C491 1.397 . S
C490 C495 1.363 . S
C491 H462 0.950 . S
C491 C490 1.397 . S
C491 C492 1.334 . S
C492 H463 0.950 . S
C492 C491 1.334 . S
C492 C493 1.287 . S
C493 C492 1.287 . S
C493 C494 1.524 . S
C493 H496 0.999 . S
C494 H464 0.950 . S
C494 C493 1.524 . S
C494 C495 1.415 . S
C495 H465 0.950 . S
C495 C490 1.363 . S
C495 C494 1.415 . S
H496 C493 0.999 . S
H497 C478 0.913 . S
H498 C516 0.951 . S
H499 C518 0.951 . S
H500 C520 0.950 . S
H501 C521 0.950 . S
H502 C523 0.950 . S
H503 C526 0.950 . S
H504 C527 0.950 . S
H505 C529 0.950 . S
H506 C530 0.950 . S
H507 C531 0.951 1_545 S
H508 C533 0.951 . S
H509 C535 0.950 . S
H510 C536 0.950 . S
H511 C538 0.950 . S
H512 C541 0.950 . S
H513 C542 0.950 . S
H514 C544 0.950 1_545 S
H515 C545 0.950 . S
C516 H498 0.951 . S
C516 C517 1.366 . S
C516 C518 1.388 . S
C517 C516 1.366 . S
C517 C521 1.385 . S
C518 H499 0.951 . S
C518 C516 1.388 . S
C518 C519 1.366 . S
C519 C518 1.366 . S
C519 C520 1.414 . S
C519 C522 1.499 . S
C520 H500 0.950 . S
C520 C519 1.414 . S
C520 C521 1.374 . S
C521 H501 0.950 . S
C521 C517 1.385 . S
C521 C520 1.374 . S
C522 C519 1.499 . S
C522 C523 1.373 . S
C522 C524 1.389 . S
C523 H502 0.950 . S
C523 C522 1.373 . S
C523 C539 1.377 . S
C524 C522 1.389 . S
C524 C525 1.524 . S
C524 C538 1.377 . S
C525 C524 1.524 . S
C525 C526 1.397 . S
C525 C530 1.363 . S
C526 H503 0.950 . S
C526 C525 1.397 . S
C526 C527 1.334 . S
C527 H504 0.950 . S
C527 C526 1.334 . S
C527 C528 1.287 . S
C528 C527 1.287 . S
C528 C529 1.524 . S
C528 H547 0.913 . S
C529 H505 0.950 . S
C529 C528 1.524 . S
C529 C530 1.415 . S
C530 H506 0.950 . S
C530 C525 1.363 . S
C530 C529 1.415 . S
C531 H507 0.951 1_565 S
C531 C532 1.366 . S
C531 C533 1.388 . S
C532 C531 1.366 . S
C532 C536 1.385 . S
C533 H508 0.951 . S
C533 C531 1.388 . S
C533 C534 1.366 . S
C534 C533 1.366 . S
C534 C535 1.414 . S
C534 C537 1.499 . S
C535 H509 0.950 . S
C535 C534 1.414 . S
C535 C536 1.374 . S
C536 H510 0.950 . S
C536 C532 1.385 . S
C536 C535 1.374 . S
C537 C534 1.499 . S
C537 C538 1.373 . S
C537 C539 1.389 . S
C538 H511 0.950 . S
C538 C524 1.377 . S
C538 C537 1.373 . S
C539 C523 1.377 . S
C539 C537 1.389 . S
C539 C540 1.524 . S
C540 C539 1.524 . S
C540 C541 1.397 . S
C540 C545 1.363 . S
C541 H512 0.950 . S
C541 C540 1.397 . S
C541 C542 1.334 . S
C542 H513 0.950 . S
C542 C541 1.334 . S
C542 C543 1.287 . S
C543 C542 1.287 . S
C543 C544 1.524 . S
C543 H546 0.999 . S
C544 H514 0.950 1_565 S
C544 C543 1.524 . S
C544 C545 1.415 . S
C545 H515 0.950 . S
C545 C540 1.363 . S
C545 C544 1.415 . S
H546 C543 0.999 . S
H547 C528 0.913 . S
H548 C566 0.951 . S
H549 C568 0.951 . S
H550 C570 0.950 . S
H551 C571 0.950 . S
H552 C573 0.950 . S
H553 C576 0.950 . S
H554 C577 0.950 . S
H555 C579 0.950 . S
H556 C580 0.950 . S
H557 C581 0.951 . S
H558 C583 0.951 . S
H559 C585 0.950 . S
H560 C586 0.950 . S
H561 C588 0.950 . S
H562 C591 0.950 . S
H563 C592 0.950 . S
H564 C594 0.950 . S
H565 C595 0.950 . S
C566 H548 0.951 . S
C566 C567 1.366 . S
C566 C568 1.388 . S
C567 C566 1.366 . S
C567 C571 1.385 . S
C568 H549 0.951 . S
C568 C566 1.388 . S
C568 C569 1.366 . S
C569 C568 1.366 . S
C569 C570 1.414 . S
C569 C572 1.499 . S
C570 H550 0.950 . S
C570 C569 1.414 . S
C570 C571 1.374 . S
C571 H551 0.950 . S
C571 C567 1.385 . S
C571 C570 1.374 . S
C572 C569 1.499 . S
C572 C573 1.373 . S
C572 C574 1.389 . S
C573 H552 0.950 . S
C573 C572 1.373 . S
C573 C589 1.377 . S
C574 C572 1.389 . S
C574 C575 1.524 . S
C574 C588 1.377 . S
C575 C574 1.524 . S
C575 C576 1.397 . S
C575 C580 1.363 . S
C576 H553 0.950 . S
C576 C575 1.397 . S
C576 C577 1.334 . S
C577 H554 0.950 . S
C577 C576 1.334 . S
C577 C578 1.287 . S
C578 C577 1.287 . S
C578 C579 1.524 . S
C578 H597 0.913 . S
C579 H555 0.950 . S
C579 C578 1.524 . S
C579 C580 1.415 . S
C580 H556 0.950 . S
C580 C575 1.363 . S
C580 C579 1.415 . S
C581 H557 0.951 . S
C581 C582 1.366 . S
C581 C583 1.388 . S
C582 C581 1.366 . S
C582 C586 1.385 . S
C583 H558 0.951 . S
C583 C581 1.388 . S
C583 C584 1.366 . S
C584 C583 1.366 . S
C584 C585 1.414 . S
C584 C587 1.499 . S
C585 H559 0.950 . S
C585 C584 1.414 . S
C585 C586 1.374 . S
C586 H560 0.950 . S
C586 C582 1.385 . S
C586 C585 1.374 . S
C587 C584 1.499 . S
C587 C588 1.373 . S
C587 C589 1.389 . S
C588 H561 0.950 . S
C588 C574 1.377 . S
C588 C587 1.373 . S
C589 C573 1.377 . S
C589 C587 1.389 . S
C589 C590 1.524 . S
C590 C589 1.524 . S
C590 C591 1.397 . S
C590 C595 1.363 . S
C591 H562 0.950 . S
C591 C590 1.397 . S
C591 C592 1.334 . S
C592 H563 0.950 . S
C592 C591 1.334 . S
C592 C593 1.287 . S
C593 C592 1.287 . S
C593 C594 1.524 . S
C593 H596 0.999 . S
C594 H564 0.950 . S
C594 C593 1.524 . S
C594 C595 1.415 . S
C595 H565 0.950 . S
C595 C590 1.363 . S
C595 C594 1.415 . S
H596 C593 0.999 . S
H597 C578 0.913 . S
H598 C616 0.951 . S
H599 C618 0.951 . S
H600 C620 0.950 . S
H601 C621 0.950 . S
H602 C623 0.950 . S
H603 C626 0.950 . S
H604 C627 0.950 . S
H605 C629 0.950 . S
H606 C630 0.950 . S
H607 C631 0.951 . S
H608 C633 0.951 . S
H609 C635 0.950 . S
H610 C636 0.950 . S
H611 C638 0.950 . S
H612 C641 0.950 . S
H613 C642 0.950 . S
H614 C644 0.950 . S
H615 C645 0.950 . S
C616 H598 0.951 . S
C616 C617 1.366 . S
C616 C618 1.388 . S
C617 C616 1.366 . S
C617 C621 1.385 . S
C618 H599 0.951 . S
C618 C616 1.388 . S
C618 C619 1.366 . S
C619 C618 1.366 . S
C619 C620 1.414 . S
C619 C622 1.499 . S
C620 H600 0.950 . S
C620 C619 1.414 . S
C620 C621 1.374 . S
C621 H601 0.950 . S
C621 C617 1.385 . S
C621 C620 1.374 . S
C622 C619 1.499 . S
C622 C623 1.373 . S
C622 C624 1.389 . S
C623 H602 0.950 . S
C623 C622 1.373 . S
C623 C639 1.377 . S
C624 C622 1.389 . S
C624 C625 1.524 . S
C624 C638 1.377 . S
C625 C624 1.524 . S
C625 C626 1.397 . S
C625 C630 1.363 . S
C626 H603 0.950 . S
C626 C625 1.397 . S
C626 C627 1.334 . S
C627 H604 0.950 . S
C627 C626 1.334 . S
C627 C628 1.287 . S
C628 C627 1.287 . S
C628 C629 1.524 . S
C628 H647 0.913 . S
C629 H605 0.950 . S
C629 C628 1.524 . S
C629 C630 1.415 . S
C630 H606 0.950 . S
C630 C625 1.363 . S
C630 C629 1.415 . S
C631 H607 0.951 . S
C631 C632 1.366 . S
C631 C633 1.388 . S
C632 C631 1.366 . S
C632 C636 1.385 . S
C633 H608 0.951 . S
C633 C631 1.388 . S
C633 C634 1.366 . S
C634 C633 1.366 . S
C634 C635 1.414 . S
C634 C637 1.499 . S
C635 H609 0.950 . S
C635 C634 1.414 . S
C635 C636 1.374 . S
C636 H610 0.950 . S
C636 C632 1.385 . S
C636 C635 1.374 . S
C637 C634 1.499 . S
C637 C638 1.373 . S
C637 C639 1.389 . S
C638 H611 0.950 . S
C638 C624 1.377 . S
C638 C637 1.373 . S
C639 C623 1.377 . S
C639 C637 1.389 . S
C639 C640 1.524 . S
C640 C639 1.524 . S
C640 C641 1.397 . S
C640 C645 1.363 . S
C641 H612 0.950 . S
C641 C640 1.397 . S
C641 C642 1.334 . S
C642 H613 0.950 . S
C642 C641 1.334 . S
C642 C643 1.287 . S
C643 C642 1.287 . S
C643 C644 1.524 . S
C643 H646 0.999 . S
C644 H614 0.950 . S
C644 C643 1.524 . S
C644 C645 1.415 . S
C645 H615 0.950 . S
C645 C640 1.363 . S
C645 C644 1.415 . S
H646 C643 0.999 . S
H647 C628 0.913 . S
H648 C666 0.951 . S
H649 C668 0.951 . S
H650 C670 0.950 . S
H651 C671 0.950 . S
H652 C673 0.950 . S
H653 C676 0.950 . S
H654 C677 0.950 . S
H655 C679 0.950 . S
H656 C680 0.950 . S
H657 C681 0.951 . S
H658 C683 0.951 . S
H659 C685 0.950 . S
H660 C686 0.950 . S
H661 C688 0.950 . S
H662 C691 0.950 . S
H663 C692 0.950 . S
H664 C694 0.950 . S
H665 C695 0.950 . S
C666 H648 0.951 . S
C666 C667 1.366 . S
C666 C668 1.388 . S
C667 C666 1.366 . S
C667 C671 1.385 . S
C668 H649 0.951 . S
C668 C666 1.388 . S
C668 C669 1.366 . S
C669 C668 1.366 . S
C669 C670 1.414 . S
C669 C672 1.499 . S
C670 H650 0.950 . S
C670 C669 1.414 . S
C670 C671 1.374 . S
C671 H651 0.950 . S
C671 C667 1.385 . S
C671 C670 1.374 . S
C672 C669 1.499 . S
C672 C673 1.373 . S
C672 C674 1.389 . S
C673 H652 0.950 . S
C673 C672 1.373 . S
C673 C689 1.377 . S
C674 C672 1.389 . S
C674 C675 1.524 . S
C674 C688 1.377 . S
C675 C674 1.524 . S
C675 C676 1.397 . S
C675 C680 1.363 . S
C676 H653 0.950 . S
C676 C675 1.397 . S
C676 C677 1.334 . S
C677 H654 0.950 . S
C677 C676 1.334 . S
C677 C678 1.287 . S
C678 C677 1.287 . S
C678 C679 1.524 . S
C678 H697 0.913 . S
C679 H655 0.950 . S
C679 C678 1.524 . S
C679 C680 1.415 . S
C680 H656 0.950 . S
C680 C675 1.363 . S
C680 C679 1.415 . S
C681 H657 0.951 . S
C681 C682 1.366 . S
C681 C683 1.388 . S
C682 C681 1.366 . S
C682 C686 1.385 . S
C683 H658 0.951 . S
C683 C681 1.388 . S
C683 C684 1.366 . S
C684 C683 1.366 . S
C684 C685 1.414 . S
C684 C687 1.499 . S
C685 H659 0.950 . S
C685 C684 1.414 . S
C685 C686 1.374 . S
C686 H660 0.950 . S
C686 C682 1.385 . S
C686 C685 1.374 . S
C687 C684 1.499 . S
C687 C688 1.373 . S
C687 C689 1.389 . S
C688 H661 0.950 . S
C688 C674 1.377 . S
C688 C687 1.373 . S
C689 C673 1.377 . S
C689 C687 1.389 . S
C689 C690 1.524 . S
C690 C689 1.524 . S
C690 C691 1.397 . S
C690 C695 1.363 . S
C691 H662 0.950 . S
C691 C690 1.397 . S
C691 C692 1.334 . S
C692 H663 0.950 . S
C692 C691 1.334 . S
C692 C693 1.287 . S
C693 C692 1.287 . S
C693 C694 1.524 . S
C693 H696 0.999 . S
C694 H664 0.950 . S
C694 C693 1.524 . S
C694 C695 1.415 . S
C695 H665 0.950 . S
C695 C690 1.363 . S
C695 C694 1.415 . S
H696 C693 0.999 . S
H697 C678 0.913 . S
H698 C716 0.951 . S
H699 C718 0.951 . S
H700 C720 0.950 . S
H701 C721 0.950 . S
H702 C723 0.950 . S
H703 C726 0.950 . S
H704 C727 0.950 . S
H705 C729 0.950 . S
H706 C730 0.950 . S
H707 C731 0.951 . S
H708 C733 0.951 . S
H709 C735 0.950 . S
H710 C736 0.950 . S
H711 C738 0.950 . S
H712 C741 0.950 . S
H713 C742 0.950 . S
H714 C744 0.950 . S
H715 C745 0.950 . S
C716 H698 0.951 . S
C716 C717 1.366 . S
C716 C718 1.388 . S
C717 C716 1.366 . S
C717 C721 1.385 . S
C718 H699 0.951 . S
C718 C716 1.388 . S
C718 C719 1.366 . S
C719 C718 1.366 . S
C719 C720 1.414 . S
C719 C722 1.499 . S
C720 H700 0.950 . S
C720 C719 1.414 . S
C720 C721 1.374 . S
C721 H701 0.950 . S
C721 C717 1.385 . S
C721 C720 1.374 . S
C722 C719 1.499 . S
C722 C723 1.373 . S
C722 C724 1.389 . S
C723 H702 0.950 . S
C723 C722 1.373 . S
C723 C739 1.377 . S
C724 C722 1.389 . S
C724 C725 1.524 . S
C724 C738 1.377 . S
C725 C724 1.524 . S
C725 C726 1.397 . S
C725 C730 1.363 . S
C726 H703 0.950 . S
C726 C725 1.397 . S
C726 C727 1.334 . S
C727 H704 0.950 . S
C727 C726 1.334 . S
C727 C728 1.287 . S
C728 C727 1.287 . S
C728 C729 1.524 . S
C728 H747 0.913 . S
C729 H705 0.950 . S
C729 C728 1.524 . S
C729 C730 1.415 . S
C730 H706 0.950 . S
C730 C725 1.363 . S
C730 C729 1.415 . S
C731 H707 0.951 . S
C731 C732 1.366 . S
C731 C733 1.388 . S
C732 C731 1.366 . S
C732 C736 1.385 1_554 S
C733 H708 0.951 . S
C733 C731 1.388 . S
C733 C734 1.366 1_554 S
C734 C733 1.366 1_556 S
C734 C735 1.414 . S
C734 C737 1.499 . S
C735 H709 0.950 . S
C735 C734 1.414 . S
C735 C736 1.374 . S
C736 H710 0.950 . S
C736 C732 1.385 1_556 S
C736 C735 1.374 . S
C737 C734 1.499 . S
C737 C738 1.373 . S
C737 C739 1.389 . S
C738 H711 0.950 . S
C738 C724 1.377 . S
C738 C737 1.373 . S
C739 C723 1.377 . S
C739 C737 1.389 . S
C739 C740 1.524 1_556 S
C740 C739 1.524 1_554 S
C740 C741 1.397 . S
C740 C745 1.363 . S
C741 H712 0.950 . S
C741 C740 1.397 . S
C741 C742 1.334 . S
C742 H713 0.950 . S
C742 C741 1.334 . S
C742 C743 1.287 . S
C743 C742 1.287 . S
C743 C744 1.524 . S
C743 H746 0.999 . S
C744 H714 0.950 . S
C744 C743 1.524 . S
C744 C745 1.415 . S
C745 H715 0.950 . S
C745 C740 1.363 . S
C745 C744 1.415 . S
H746 C743 0.999 . S
H747 C728 0.913 . S
H748 C766 0.951 . S
H749 C768 0.951 . S
H750 C770 0.950 . S
H751 C771 0.950 . S
H752 C773 0.950 . S
H753 C776 0.950 . S
H754 C777 0.950 . S
H755 C779 0.950 . S
H756 C780 0.950 . S
H757 C781 0.951 . S
H758 C783 0.951 . S
H759 C785 0.950 . S
H760 C786 0.950 . S
H761 C788 0.950 . S
H762 C791 0.950 . S
H763 C792 0.950 . S
H764 C794 0.950 . S
H765 C795 0.950 . S
C766 H748 0.951 . S
C766 C767 1.366 . S
C766 C768 1.388 . S
C767 C766 1.366 . S
C767 C771 1.385 . S
C768 H749 0.951 . S
C768 C766 1.388 . S
C768 C769 1.366 . S
C769 C768 1.366 . S
C769 C770 1.414 . S
C769 C772 1.499 . S
C770 H750 0.950 . S
C770 C769 1.414 . S
C770 C771 1.374 . S
C771 H751 0.950 . S
C771 C767 1.385 . S
C771 C770 1.374 . S
C772 C769 1.499 . S
C772 C773 1.373 . S
C772 C774 1.389 . S
C773 H752 0.950 . S
C773 C772 1.373 . S
C773 C789 1.377 . S
C774 C772 1.389 . S
C774 C775 1.524 . S
C774 C788 1.377 . S
C775 C774 1.524 . S
C775 C776 1.397 . S
C775 C780 1.363 . S
C776 H753 0.950 . S
C776 C775 1.397 . S
C776 C777 1.334 . S
C777 H754 0.950 . S
C777 C776 1.334 . S
C777 C778 1.287 . S
C778 C777 1.287 . S
C778 C779 1.524 . S
C778 H797 0.913 1_655 S
C779 H755 0.950 . S
C779 C778 1.524 . S
C779 C780 1.415 . S
C780 H756 0.950 . S
C780 C775 1.363 . S
C780 C779 1.415 . S
C781 H757 0.951 . S
C781 C782 1.366 . S
C781 C783 1.388 . S
C782 C781 1.366 . S
C782 C786 1.385 . S
C783 H758 0.951 . S
C783 C781 1.388 . S
C783 C784 1.366 . S
C784 C783 1.366 . S
C784 C785 1.414 . S
C784 C787 1.499 . S
C785 H759 0.950 . S
C785 C784 1.414 . S
C785 C786 1.374 . S
C786 H760 0.950 . S
C786 C782 1.385 . S
C786 C785 1.374 . S
C787 C784 1.499 . S
C787 C788 1.373 . S
C787 C789 1.389 . S
C788 H761 0.950 . S
C788 C774 1.377 . S
C788 C787 1.373 . S
C789 C773 1.377 . S
C789 C787 1.389 . S
C789 C790 1.524 . S
C790 C789 1.524 . S
C790 C791 1.397 . S
C790 C795 1.363 . S
C791 H762 0.950 . S
C791 C790 1.397 . S
C791 C792 1.334 . S
C792 H763 0.950 . S
C792 C791 1.334 . S
C792 C793 1.287 . S
C793 C792 1.287 . S
C793 C794 1.524 . S
C793 H796 0.999 . S
C794 H764 0.950 . S
C794 C793 1.524 . S
C794 C795 1.415 . S
C795 H765 0.950 . S
C795 C790 1.363 . S
C795 C794 1.415 . S
H796 C793 0.999 . S
H797 C778 0.913 1_455 S
H798 C816 0.951 . S
H799 C818 0.951 . S
H800 C820 0.950 . S
H801 C821 0.950 . S
H802 C823 0.950 . S
H803 C826 0.950 . S
H804 C827 0.950 . S
H805 C829 0.950 . S
H806 C830 0.950 . S
H807 C831 0.951 . S
H808 C833 0.951 . S
H809 C835 0.950 . S
H810 C836 0.950 . S
H811 C838 0.950 . S
H812 C841 0.950 . S
H813 C842 0.950 . S
H814 C844 0.950 . S
H815 C845 0.950 . S
C816 H798 0.951 . S
C816 C817 1.366 . S
C816 C818 1.388 . S
C817 C816 1.366 . S
C817 C821 1.385 . S
C818 H799 0.951 . S
C818 C816 1.388 . S
C818 C819 1.366 . S
C819 C818 1.366 . S
C819 C820 1.414 . S
C819 C822 1.499 . S
C820 H800 0.950 . S
C820 C819 1.414 . S
C820 C821 1.374 . S
C821 H801 0.950 . S
C821 C817 1.385 . S
C821 C820 1.374 . S
C822 C819 1.499 . S
C822 C823 1.373 . S
C822 C824 1.389 . S
C823 H802 0.950 . S
C823 C822 1.373 . S
C823 C839 1.377 . S
C824 C822 1.389 . S
C824 C825 1.524 . S
C824 C838 1.377 . S
C825 C824 1.524 . S
C825 C826 1.397 . S
C825 C830 1.363 . S
C826 H803 0.950 . S
C826 C825 1.397 . S
C826 C827 1.334 . S
C827 H804 0.950 . S
C827 C826 1.334 . S
C827 C828 1.287 . S
C828 C827 1.287 . S
C828 C829 1.524 . S
C828 H847 0.913 . S
C829 H805 0.950 . S
C829 C828 1.524 . S
C829 C830 1.415 . S
C830 H806 0.950 . S
C830 C825 1.363 . S
C830 C829 1.415 . S
C831 H807 0.951 . S
C831 C832 1.366 . S
C831 C833 1.388 . S
C832 C831 1.366 . S
C832 C836 1.385 . S
C833 H808 0.951 . S
C833 C831 1.388 . S
C833 C834 1.366 . S
C834 C833 1.366 . S
C834 C835 1.414 . S
C834 C837 1.499 . S
C835 H809 0.950 . S
C835 C834 1.414 . S
C835 C836 1.374 . S
C836 H810 0.950 . S
C836 C832 1.385 . S
C836 C835 1.374 . S
C837 C834 1.499 . S
C837 C838 1.373 . S
C837 C839 1.389 . S
C838 H811 0.950 . S
C838 C824 1.377 . S
C838 C837 1.373 . S
C839 C823 1.377 . S
C839 C837 1.389 . S
C839 C840 1.524 . S
C840 C839 1.524 . S
C840 C841 1.397 . S
C840 C845 1.363 . S
C841 H812 0.950 . S
C841 C840 1.397 . S
C841 C842 1.334 . S
C842 H813 0.950 . S
C842 C841 1.334 . S
C842 C843 1.287 . S
C843 C842 1.287 . S
C843 C844 1.524 . S
C843 H846 0.999 . S
C844 H814 0.950 . S
C844 C843 1.524 . S
C844 C845 1.415 . S
C845 H815 0.950 . S
C845 C840 1.363 . S
C845 C844 1.415 . S
H846 C843 0.999 . S
H847 C828 0.913 . S
H848 C866 0.951 . S
H849 C868 0.951 . S
H850 C870 0.950 . S
H851 C871 0.950 . S
H852 C873 0.950 . S
H853 C876 0.950 . S
H854 C877 0.950 . S
H855 C879 0.950 . S
H856 C880 0.950 . S
H857 C881 0.951 . S
H858 C883 0.951 . S
H859 C885 0.950 . S
H860 C886 0.950 . S
H861 C888 0.950 . S
H862 C891 0.950 . S
H863 C892 0.950 . S
H864 C894 0.950 . S
H865 C895 0.950 . S
C866 H848 0.951 . S
C866 C867 1.366 . S
C866 C868 1.388 . S
C867 C866 1.366 . S
C867 C871 1.385 . S
C868 H849 0.951 . S
C868 C866 1.388 . S
C868 C869 1.366 . S
C869 C868 1.366 . S
C869 C870 1.414 . S
C869 C872 1.499 . S
C870 H850 0.950 . S
C870 C869 1.414 . S
C870 C871 1.374 . S
C871 H851 0.950 . S
C871 C867 1.385 . S
C871 C870 1.374 . S
C872 C869 1.499 . S
C872 C873 1.373 . S
C872 C874 1.389 . S
C873 H852 0.950 . S
C873 C872 1.373 . S
C873 C889 1.377 . S
C874 C872 1.389 . S
C874 C875 1.524 . S
C874 C888 1.377 . S
C875 C874 1.524 . S
C875 C876 1.397 . S
C875 C880 1.363 . S
C876 H853 0.950 . S
C876 C875 1.397 . S
C876 C877 1.334 . S
C877 H854 0.950 . S
C877 C876 1.334 . S
C877 C878 1.287 . S
C878 C877 1.287 . S
C878 C879 1.524 . S
C878 H897 0.913 . S
C879 H855 0.950 . S
C879 C878 1.524 . S
C879 C880 1.415 . S
C880 H856 0.950 . S
C880 C875 1.363 . S
C880 C879 1.415 . S
C881 H857 0.951 . S
C881 C882 1.366 . S
C881 C883 1.388 . S
C882 C881 1.366 . S
C882 C886 1.385 . S
C883 H858 0.951 . S
C883 C881 1.388 . S
C883 C884 1.366 . S
C884 C883 1.366 . S
C884 C885 1.414 . S
C884 C887 1.499 . S
C885 H859 0.950 . S
C885 C884 1.414 . S
C885 C886 1.374 . S
C886 H860 0.950 . S
C886 C882 1.385 . S
C886 C885 1.374 . S
C887 C884 1.499 . S
C887 C888 1.373 . S
C887 C889 1.389 . S
C888 H861 0.950 . S
C888 C874 1.377 . S
C888 C887 1.373 . S
C889 C873 1.377 . S
C889 C887 1.389 . S
C889 C890 1.524 . S
C890 C889 1.524 . S
C890 C891 1.397 . S
C890 C895 1.363 . S
C891 H862 0.950 . S
C891 C890 1.397 . S
C891 C892 1.334 . S
C892 H863 0.950 . S
C892 C891 1.334 . S
C892 C893 1.287 . S
C893 C892 1.287 . S
C893 C894 1.524 . S
C893 H896 0.999 . S
C894 H864 0.950 . S
C894 C893 1.524 . S
C894 C895 1.415 . S
C895 H865 0.950 . S
C895 C890 1.363 . S
C895 C894 1.415 . S
H896 C893 0.999 . S
H897 C878 0.913 . S
H898 C916 0.951 . S
H899 C918 0.951 . S
H900 C920 0.950 . S
H901 C921 0.950 . S
H902 C923 0.950 . S
H903 C926 0.950 . S
H904 C927 0.950 . S
H905 C929 0.950 . S
H906 C930 0.950 . S
H907 C931 0.951 . S
H908 C933 0.951 . S
H909 C935 0.950 . S
H910 C936 0.950 . S
H911 C938 0.950 . S
H912 C941 0.950 . S
H913 C942 0.950 . S
H914 C944 0.950 . S
H915 C945 0.950 . S
C916 H898 0.951 . S
C916 C917 1.366 . S
C916 C918 1.388 . S
C917 C916 1.366 . S
C917 C921 1.385 . S
C918 H899 0.951 . S
C918 C916 1.388 . S
C918 C919 1.366 . S
C919 C918 1.366 . S
C919 C920 1.414 . S
C919 C922 1.499 . S
C920 H900 0.950 . S
C920 C919 1.414 . S
C920 C921 1.374 . S
C921 H901 0.950 . S
C921 C917 1.385 . S
C921 C920 1.374 . S
C922 C919 1.499 . S
C922 C923 1.373 . S
C922 C924 1.389 . S
C923 H902 0.950 . S
C923 C922 1.373 . S
C923 C939 1.377 . S
C924 C922 1.389 . S
C924 C925 1.524 . S
C924 C938 1.377 . S
C925 C924 1.524 . S
C925 C926 1.397 . S
C925 C930 1.363 . S
C926 H903 0.950 . S
C926 C925 1.397 . S
C926 C927 1.334 . S
C927 H904 0.950 . S
C927 C926 1.334 . S
C927 C928 1.287 . S
C928 C927 1.287 . S
C928 C929 1.524 . S
C928 H947 0.913 . S
C929 H905 0.950 . S
C929 C928 1.524 . S
C929 C930 1.415 . S
C930 H906 0.950 . S
C930 C925 1.363 . S
C930 C929 1.415 . S
C931 H907 0.951 . S
C931 C932 1.366 . S
C931 C933 1.388 . S
C932 C931 1.366 . S
C932 C936 1.385 . S
C933 H908 0.951 . S
C933 C931 1.388 . S
C933 C934 1.366 . S
C934 C933 1.366 . S
C934 C935 1.414 . S
C934 C937 1.499 . S
C935 H909 0.950 . S
C935 C934 1.414 . S
C935 C936 1.374 . S
C936 H910 0.950 . S
C936 C932 1.385 . S
C936 C935 1.374 . S
C937 C934 1.499 . S
C937 C938 1.373 . S
C937 C939 1.389 . S
C938 H911 0.950 . S
C938 C924 1.377 . S
C938 C937 1.373 . S
C939 C923 1.377 . S
C939 C937 1.389 . S
C939 C940 1.524 . S
C940 C939 1.524 . S
C940 C941 1.397 . S
C940 C945 1.363 . S
C941 H912 0.950 . S
C941 C940 1.397 . S
C941 C942 1.334 . S
C942 H913 0.950 . S
C942 C941 1.334 . S
C942 C943 1.287 . S
C943 C942 1.287 . S
C943 C944 1.524 . S
C943 H946 0.999 . S
C944 H914 0.950 . S
C944 C943 1.524 . S
C944 C945 1.415 . S
C945 H915 0.950 . S
C945 C940 1.363 . S
C945 C944 1.415 . S
H946 C943 0.999 . S
H947 C928 0.913 . S
H948 C966 0.951 . S
H949 C968 0.951 . S
H950 C970 0.950 . S
H951 C971 0.950 . S
H952 C973 0.950 . S
H953 C976 0.950 . S
H954 C977 0.950 . S
H955 C979 0.950 . S
H956 C980 0.950 . S
H957 C981 0.951 . S
H958 C983 0.951 . S
H959 C985 0.950 . S
H960 C986 0.950 . S
H961 C988 0.950 . S
H962 C991 0.950 . S
H963 C992 0.950 . S
H964 C994 0.950 . S
H965 C995 0.950 . S
C966 H948 0.951 . S
C966 C967 1.366 . S
C966 C968 1.388 . S
C967 C966 1.366 . S
C967 C971 1.385 . S
C968 H949 0.951 . S
C968 C966 1.388 . S
C968 C969 1.366 . S
C969 C968 1.366 . S
C969 C970 1.414 . S
C969 C972 1.499 . S
C970 H950 0.950 . S
C970 C969 1.414 . S
C970 C971 1.374 . S
C971 H951 0.950 . S
C971 C967 1.385 . S
C971 C970 1.374 . S
C972 C969 1.499 . S
C972 C973 1.373 . S
C972 C974 1.389 . S
C973 H952 0.950 . S
C973 C972 1.373 . S
C973 C989 1.377 . S
C974 C972 1.389 . S
C974 C975 1.524 . S
C974 C988 1.377 . S
C975 C974 1.524 . S
C975 C976 1.397 . S
C975 C980 1.363 . S
C976 H953 0.950 . S
C976 C975 1.397 . S
C976 C977 1.334 . S
C977 H954 0.950 . S
C977 C976 1.334 . S
C977 C978 1.287 . S
C978 C977 1.287 . S
C978 C979 1.524 . S
C978 H997 0.913 . S
C979 H955 0.950 . S
C979 C978 1.524 . S
C979 C980 1.415 . S
C980 H956 0.950 . S
C980 C975 1.363 . S
C980 C979 1.415 . S
C981 H957 0.951 . S
C981 C982 1.366 . S
C981 C983 1.388 . S
C982 C981 1.366 . S
C982 C986 1.385 . S
C983 H958 0.951 . S
C983 C981 1.388 . S
C983 C984 1.366 . S
C984 C983 1.366 . S
C984 C985 1.414 . S
C984 C987 1.499 . S
C985 H959 0.950 . S
C985 C984 1.414 . S
C985 C986 1.374 . S
C986 H960 0.950 . S
C986 C982 1.385 . S
C986 C985 1.374 . S
C987 C984 1.499 . S
C987 C988 1.373 . S
C987 C989 1.389 . S
C988 H961 0.950 . S
C988 C974 1.377 . S
C988 C987 1.373 . S
C989 C973 1.377 . S
C989 C987 1.389 . S
C989 C990 1.524 . S
C990 C989 1.524 . S
C990 C991 1.397 . S
C990 C995 1.363 . S
C991 H962 0.950 . S
C991 C990 1.397 . S
C991 C992 1.334 . S
C992 H963 0.950 . S
C992 C991 1.334 . S
C992 C993 1.287 . S
C993 C992 1.287 . S
C993 C994 1.524 . S
C993 H996 0.999 . S
C994 H964 0.950 . S
C994 C993 1.524 . S
C994 C995 1.415 . S
C995 H965 0.950 . S
C995 C990 1.363 . S
C995 C994 1.415 . S
H996 C993 0.999 . S
H997 C978 0.913 . S
H998 C1016 0.951 . S
H999 C1018 0.951 . S
H1000 C1020 0.950 . S
H1001 C1021 0.950 . S
H1002 C1023 0.950 . S
H1003 C1026 0.950 . S
H1004 C1027 0.950 . S
H1005 C1029 0.950 . S
H1006 C1030 0.950 . S
H1007 C1031 0.951 . S
H1008 C1033 0.951 . S
H1009 C1035 0.950 . S
H1010 C1036 0.950 . S
H1011 C1038 0.950 . S
H1012 C1041 0.950 . S
H1013 C1042 0.950 . S
H1014 C1044 0.950 . S
H1015 C1045 0.950 . S
C1016 H998 0.951 . S
C1016 C1017 1.366 . S
C1016 C1018 1.388 . S
C1017 C1016 1.366 . S
C1017 C1021 1.385 . S
C1018 H999 0.951 . S
C1018 C1016 1.388 . S
C1018 C1019 1.366 . S
C1019 C1018 1.366 . S
C1019 C1020 1.414 . S
C1019 C1022 1.499 . S
C1020 H1000 0.950 . S
C1020 C1019 1.414 . S
C1020 C1021 1.374 . S
C1021 H1001 0.950 . S
C1021 C1017 1.385 . S
C1021 C1020 1.374 . S
C1022 C1019 1.499 . S
C1022 C1023 1.373 . S
C1022 C1024 1.389 . S
C1023 H1002 0.950 . S
C1023 C1022 1.373 . S
C1023 C1039 1.377 . S
C1024 C1022 1.389 . S
C1024 C1025 1.524 . S
C1024 C1038 1.377 . S
C1025 C1024 1.524 . S
C1025 C1026 1.397 . S
C1025 C1030 1.363 . S
C1026 H1003 0.950 . S
C1026 C1025 1.397 . S
C1026 C1027 1.334 . S
C1027 H1004 0.950 . S
C1027 C1026 1.334 . S
C1027 C1028 1.287 . S
C1028 C1027 1.287 . S
C1028 C1029 1.524 . S
C1028 H1047 0.913 . S
C1029 H1005 0.950 . S
C1029 C1028 1.524 . S
C1029 C1030 1.415 . S
C1030 H1006 0.950 . S
C1030 C1025 1.363 . S
C1030 C1029 1.415 . S
C1031 H1007 0.951 . S
C1031 C1032 1.366 . S
C1031 C1033 1.388 . S
C1032 C1031 1.366 . S
C1032 C1036 1.385 . S
C1033 H1008 0.951 . S
C1033 C1031 1.388 . S
C1033 C1034 1.366 . S
C1034 C1033 1.366 . S
C1034 C1035 1.414 . S
C1034 C1037 1.499 . S
C1035 H1009 0.950 . S
C1035 C1034 1.414 . S
C1035 C1036 1.374 . S
C1036 H1010 0.950 . S
C1036 C1032 1.385 . S
C1036 C1035 1.374 . S
C1037 C1034 1.499 . S
C1037 C1038 1.373 . S
C1037 C1039 1.389 . S
C1038 H1011 0.950 . S
C1038 C1024 1.377 . S
C1038 C1037 1.373 . S
C1039 C1023 1.377 . S
C1039 C1037 1.389 . S
C1039 C1040 1.524 . S
C1040 C1039 1.524 . S
C1040 C1041 1.397 . S
C1040 C1045 1.363 . S
C1041 H1012 0.950 . S
C1041 C1040 1.397 . S
C1041 C1042 1.334 . S
C1042 H1013 0.950 . S
C1042 C1041 1.334 . S
C1042 C1043 1.287 . S
C1043 C1042 1.287 . S
C1043 C1044 1.524 . S
C1043 H1046 0.999 . S
C1044 H1014 0.950 . S
C1044 C1043 1.524 . S
C1044 C1045 1.415 . S
C1045 H1015 0.950 . S
C1045 C1040 1.363 . S
C1045 C1044 1.415 . S
H1046 C1043 0.999 . S
H1047 C1028 0.913 . S
H1048 C1066 0.951 . S
H1049 C1068 0.951 . S
H1050 C1070 0.950 . S
H1051 C1071 0.950 . S
H1052 C1073 0.950 . S
H1053 C1076 0.950 . S
H1054 C1077 0.950 . S
H1055 C1079 0.966 . S
H1056 C1080 0.950 . S
H1057 C1081 0.951 . S
H1058 C1083 0.951 . S
H1059 C1085 0.950 . S
H1060 C1086 0.950 1_554 S
H1061 C1088 0.950 . S
H1062 C1091 0.950 . S
H1063 C1092 0.950 . S
H1064 C1094 0.950 . S
H1065 C1095 0.950 . S
C1066 H1048 0.951 . S
C1066 C1067 1.366 . S
C1066 C1068 1.388 . S
C1067 C1066 1.366 . S
C1067 C1071 1.385 . S
C1068 H1049 0.951 . S
C1068 C1066 1.388 . S
C1068 C1069 1.366 . S
C1069 C1068 1.366 . S
C1069 C1070 1.414 . S
C1069 C1072 1.499 . S
C1070 H1050 0.950 . S
C1070 C1069 1.414 . S
C1070 C1071 1.374 . S
C1071 H1051 0.950 . S
C1071 C1067 1.385 . S
C1071 C1070 1.374 . S
C1072 C1069 1.499 . S
C1072 C1073 1.373 . S
C1072 C1074 1.389 . S
C1073 H1052 0.950 . S
C1073 C1072 1.373 . S
C1073 C1089 1.377 . S
C1074 C1072 1.389 . S
C1074 C1075 1.524 . S
C1074 C1088 1.377 . S
C1075 C1074 1.524 . S
C1075 C1076 1.397 . S
C1075 C1080 1.363 . S
C1076 H1053 0.950 . S
C1076 C1075 1.397 . S
C1076 C1077 1.334 . S
C1077 H1054 0.950 . S
C1077 C1076 1.334 . S
C1077 C1078 1.287 . S
C1078 C1077 1.287 . S
C1078 C1079 1.524 . S
C1078 H1097 0.913 . S
C1079 H1055 0.966 . S
C1079 C1078 1.524 . S
C1079 C1080 1.415 . S
C1080 H1056 0.950 . S
C1080 C1075 1.363 . S
C1080 C1079 1.415 . S
C1081 H1057 0.951 . S
C1081 C1082 1.366 . S
C1081 C1083 1.388 . S
C1082 C1081 1.366 . S
C1082 C1086 1.385 . S
C1083 H1058 0.951 . S
C1083 C1081 1.388 . S
C1083 C1084 1.366 . S
C1084 C1083 1.366 . S
C1084 C1085 1.414 . S
C1084 C1087 1.499 . S
C1085 H1059 0.950 . S
C1085 C1084 1.414 . S
C1085 C1086 1.374 . S
C1086 H1060 0.950 1_556 S
C1086 C1082 1.385 . S
C1086 C1085 1.374 . S
C1087 C1084 1.499 . S
C1087 C1088 1.373 . S
C1087 C1089 1.389 . S
C1088 H1061 0.950 . S
C1088 C1074 1.377 . S
C1088 C1087 1.373 . S
C1089 C1073 1.377 . S
C1089 C1087 1.389 . S
C1089 C1090 1.524 . S
C1090 C1089 1.524 . S
C1090 C1091 1.397 . S
C1090 C1095 1.363 . S
C1091 H1062 0.950 . S
C1091 C1090 1.397 . S
C1091 C1092 1.334 . S
C1092 H1063 0.950 . S
C1092 C1091 1.334 . S
C1092 C1093 1.287 . S
C1093 C1092 1.287 . S
C1093 C1094 1.524 . S
C1093 H1096 0.999 . S
C1094 H1064 0.950 . S
C1094 C1093 1.524 . S
C1094 C1095 1.415 . S
C1095 H1065 0.950 . S
C1095 C1090 1.363 . S
C1095 C1094 1.415 . S
H1096 C1093 0.999 . S
H1097 C1078 0.913 . S
H1098 C1116 0.951 . S
H1099 C1118 0.951 . S
H1100 C1120 0.950 . S
H1101 C1121 0.950 . S
H1102 C1123 0.950 . S
H1103 C1126 0.950 . S
H1104 C1127 0.950 . S
H1105 C1129 0.950 . S
H1106 C1130 0.950 . S
H1107 C1131 0.951 . S
H1108 C1133 0.951 . S
H1109 C1135 0.950 . S
H1110 C1136 0.950 . S
H1111 C1138 0.950 . S
H1112 C1141 0.950 . S
H1113 C1142 0.954 . S
H1114 C1144 0.950 1_565 S
H1115 C1145 0.950 . S
C1116 H1098 0.951 . S
C1116 C1117 1.366 . S
C1116 C1118 1.388 . S
C1117 C1116 1.366 . S
C1117 C1121 1.385 . S
C1118 H1099 0.951 . S
C1118 C1116 1.388 . S
C1118 C1119 1.366 . S
C1119 C1118 1.366 . S
C1119 C1120 1.414 . S
C1119 C1122 1.499 . S
C1120 H1100 0.950 . S
C1120 C1119 1.414 . S
C1120 C1121 1.374 . S
C1121 H1101 0.950 . S
C1121 C1117 1.385 . S
C1121 C1120 1.374 . S
C1122 C1119 1.499 . S
C1122 C1123 1.373 . S
C1122 C1124 1.389 . S
C1123 H1102 0.950 . S
C1123 C1122 1.373 . S
C1123 C1139 1.377 . S
C1124 C1122 1.389 . S
C1124 C1125 1.524 . S
C1124 C1138 1.377 . S
C1125 C1124 1.524 . S
C1125 C1126 1.397 . S
C1125 C1130 1.363 . S
C1126 H1103 0.950 . S
C1126 C1125 1.397 . S
C1126 C1127 1.334 . S
C1127 H1104 0.950 . S
C1127 C1126 1.334 . S
C1127 C1128 1.287 . S
C1128 C1127 1.287 . S
C1128 C1129 1.524 . S
C1128 H1147 0.913 . S
C1129 H1105 0.950 . S
C1129 C1128 1.524 . S
C1129 C1130 1.415 . S
C1130 H1106 0.950 . S
C1130 C1125 1.363 . S
C1130 C1129 1.415 . S
C1131 H1107 0.951 . S
C1131 C1132 1.366 . S
C1131 C1133 1.388 . S
C1132 C1131 1.366 . S
C1132 C1136 1.385 . S
C1133 H1108 0.951 . S
C1133 C1131 1.388 . S
C1133 C1134 1.366 . S
C1134 C1133 1.366 . S
C1134 C1135 1.414 . S
C1134 C1137 1.499 . S
C1135 H1109 0.950 . S
C1135 C1134 1.414 . S
C1135 C1136 1.374 . S
C1136 H1110 0.950 . S
C1136 C1132 1.385 . S
C1136 C1135 1.374 . S
C1137 C1134 1.499 . S
C1137 C1138 1.373 . S
C1137 C1139 1.389 . S
C1138 H1111 0.950 . S
C1138 C1124 1.377 . S
C1138 C1137 1.373 . S
C1139 C1123 1.377 . S
C1139 C1137 1.389 . S
C1139 C1140 1.524 . S
C1140 C1139 1.524 . S
C1140 C1141 1.397 . S
C1140 C1145 1.363 . S
C1141 H1112 0.950 . S
C1141 C1140 1.397 . S
C1141 C1142 1.328 1_545 S
C1142 H1113 0.954 . S
C1142 C1141 1.328 1_565 S
C1142 C1143 1.288 . S
C1143 C1142 1.288 . S
C1143 C1144 1.524 1_565 S
C1143 H1146 0.999 . S
C1144 H1114 0.950 1_545 S
C1144 C1143 1.524 1_545 S
C1144 C1145 1.415 . S
C1145 H1115 0.950 . S
C1145 C1140 1.363 . S
C1145 C1144 1.415 . S
H1146 C1143 0.999 . S
H1147 C1128 0.913 . S
H1148 C1166 0.951 . S
H1149 C1168 0.951 . S
H1150 C1170 0.950 . S
H1151 C1171 0.950 . S
H1152 C1173 0.950 . S
H1153 C1176 0.950 . S
H1154 C1177 0.950 . S
H1155 C1179 0.950 . S
H1156 C1180 0.950 . S
H1157 C1181 0.951 . S
H1158 C1183 0.951 . S
H1159 C1185 0.950 . S
H1160 C1186 0.950 . S
H1161 C1188 0.950 . S
H1162 C1191 0.950 . S
H1163 C1192 0.950 . S
H1164 C1194 0.950 . S
H1165 C1195 0.950 . S
C1166 H1148 0.951 . S
C1166 C1167 1.366 . S
C1166 C1168 1.388 . S
C1167 C1166 1.366 . S
C1167 C1171 1.385 . S
C1168 H1149 0.951 . S
C1168 C1166 1.388 . S
C1168 C1169 1.366 . S
C1169 C1168 1.366 . S
C1169 C1170 1.414 . S
C1169 C1172 1.499 . S
C1170 H1150 0.950 . S
C1170 C1169 1.414 . S
C1170 C1171 1.374 . S
C1171 H1151 0.950 . S
C1171 C1167 1.385 . S
C1171 C1170 1.374 . S
C1172 C1169 1.499 . S
C1172 C1173 1.373 . S
C1172 C1174 1.389 . S
C1173 H1152 0.950 . S
C1173 C1172 1.373 . S
C1173 C1189 1.377 . S
C1174 C1172 1.389 . S
C1174 C1175 1.524 . S
C1174 C1188 1.377 . S
C1175 C1174 1.524 . S
C1175 C1176 1.397 . S
C1175 C1180 1.363 . S
C1176 H1153 0.950 . S
C1176 C1175 1.397 . S
C1176 C1177 1.334 . S
C1177 H1154 0.950 . S
C1177 C1176 1.334 . S
C1177 C1178 1.287 . S
C1178 C1177 1.287 . S
C1178 C1179 1.524 . S
C1178 H1197 0.913 . S
C1179 H1155 0.950 . S
C1179 C1178 1.524 . S
C1179 C1180 1.415 . S
C1180 H1156 0.950 . S
C1180 C1175 1.363 . S
C1180 C1179 1.415 . S
C1181 H1157 0.951 . S
C1181 C1182 1.366 . S
C1181 C1183 1.388 . S
C1182 C1181 1.366 . S
C1182 C1186 1.385 . S
C1183 H1158 0.951 . S
C1183 C1181 1.388 . S
C1183 C1184 1.366 . S
C1184 C1183 1.366 . S
C1184 C1185 1.414 . S
C1184 C1187 1.499 . S
C1185 H1159 0.950 . S
C1185 C1184 1.414 . S
C1185 C1186 1.374 . S
C1186 H1160 0.950 . S
C1186 C1182 1.385 . S
C1186 C1185 1.374 . S
C1187 C1184 1.499 . S
C1187 C1188 1.373 . S
C1187 C1189 1.389 . S
C1188 H1161 0.950 . S
C1188 C1174 1.377 . S
C1188 C1187 1.373 . S
C1189 C1173 1.377 . S
C1189 C1187 1.389 . S
C1189 C1190 1.524 . S
C1190 C1189 1.524 . S
C1190 C1191 1.397 . S
C1190 C1195 1.363 . S
C1191 H1162 0.950 . S
C1191 C1190 1.397 . S
C1191 C1192 1.334 . S
C1192 H1163 0.950 . S
C1192 C1191 1.334 . S
C1192 C1193 1.287 . S
C1193 C1192 1.287 . S
C1193 C1194 1.524 . S
C1193 H1196 0.999 . S
C1194 H1164 0.950 . S
C1194 C1193 1.524 . S
C1194 C1195 1.415 . S
C1195 H1165 0.950 . S
C1195 C1190 1.363 . S
C1195 C1194 1.415 . S
H1196 C1193 0.999 . S
H1197 C1178 0.913 . S
H1198 C1216 0.951 . S
H1199 C1218 0.951 . S
H1200 C1220 0.950 . S
H1201 C1221 0.950 . S
H1202 C1223 0.950 . S
H1203 C1226 0.950 . S
H1204 C1227 0.950 . S
H1205 C1229 0.950 . S
H1206 C1230 0.950 . S
H1207 C1231 0.951 . S
H1208 C1233 0.951 . S
H1209 C1235 0.950 . S
H1210 C1236 0.950 . S
H1211 C1238 0.950 . S
H1212 C1241 0.950 . S
H1213 C1242 0.950 . S
H1214 C1244 0.950 . S
H1215 C1245 0.950 . S
C1216 H1198 0.951 . S
C1216 C1217 1.366 . S
C1216 C1218 1.388 . S
C1217 C1216 1.366 . S
C1217 C1221 1.385 . S
C1218 H1199 0.951 . S
C1218 C1216 1.388 . S
C1218 C1219 1.366 . S
C1219 C1218 1.366 . S
C1219 C1220 1.414 . S
C1219 C1222 1.499 . S
C1220 H1200 0.950 . S
C1220 C1219 1.414 . S
C1220 C1221 1.374 . S
C1221 H1201 0.950 . S
C1221 C1217 1.385 . S
C1221 C1220 1.374 . S
C1222 C1219 1.499 . S
C1222 C1223 1.373 . S
C1222 C1224 1.389 . S
C1223 H1202 0.950 . S
C1223 C1222 1.373 . S
C1223 C1239 1.377 . S
C1224 C1222 1.389 . S
C1224 C1225 1.524 . S
C1224 C1238 1.377 . S
C1225 C1224 1.524 . S
C1225 C1226 1.397 . S
C1225 C1230 1.363 . S
C1226 H1203 0.950 . S
C1226 C1225 1.397 . S
C1226 C1227 1.334 . S
C1227 H1204 0.950 . S
C1227 C1226 1.334 . S
C1227 C1228 1.287 . S
C1228 C1227 1.287 . S
C1228 C1229 1.524 . S
C1228 H1247 0.913 . S
C1229 H1205 0.950 . S
C1229 C1228 1.524 . S
C1229 C1230 1.415 . S
C1230 H1206 0.950 . S
C1230 C1225 1.363 . S
C1230 C1229 1.415 . S
C1231 H1207 0.951 . S
C1231 C1232 1.366 . S
C1231 C1233 1.388 . S
C1232 C1231 1.366 . S
C1232 C1236 1.385 . S
C1233 H1208 0.951 . S
C1233 C1231 1.388 . S
C1233 C1234 1.366 . S
C1234 C1233 1.366 . S
C1234 C1235 1.414 . S
C1234 C1237 1.499 . S
C1235 H1209 0.950 . S
C1235 C1234 1.414 . S
C1235 C1236 1.374 . S
C1236 H1210 0.950 . S
C1236 C1232 1.385 . S
C1236 C1235 1.374 . S
C1237 C1234 1.499 . S
C1237 C1238 1.373 . S
C1237 C1239 1.389 . S
C1238 H1211 0.950 . S
C1238 C1224 1.377 . S
C1238 C1237 1.373 . S
C1239 C1223 1.377 . S
C1239 C1237 1.389 . S
C1239 C1240 1.524 . S
C1240 C1239 1.524 . S
C1240 C1241 1.397 . S
C1240 C1245 1.363 . S
C1241 H1212 0.950 . S
C1241 C1240 1.397 . S
C1241 C1242 1.334 . S
C1242 H1213 0.950 . S
C1242 C1241 1.334 . S
C1242 C1243 1.287 . S
C1243 C1242 1.287 . S
C1243 C1244 1.524 . S
C1243 H1246 0.999 . S
C1244 H1214 0.950 . S
C1244 C1243 1.524 . S
C1244 C1245 1.415 . S
C1245 H1215 0.950 . S
C1245 C1240 1.363 . S
C1245 C1244 1.415 . S
H1246 C1243 0.999 . S
H1247 C1228 0.913 . S
H1248 C1266 0.951 . S
H1249 C1268 0.951 . S
H1250 C1270 0.950 . S
H1251 C1271 0.950 . S
H1252 C1273 0.950 . S
H1253 C1276 0.950 . S
H1254 C1277 0.950 . S
H1255 C1279 0.950 . S
H1256 C1280 0.950 . S
H1257 C1281 0.951 . S
H1258 C1283 0.951 . S
H1259 C1285 0.950 . S
H1260 C1286 0.950 . S
H1261 C1288 0.950 . S
H1262 C1291 0.950 . S
H1263 C1292 0.950 . S
H1264 C1294 0.950 . S
H1265 C1295 0.950 . S
C1266 H1248 0.951 . S
C1266 C1267 1.366 . S
C1266 C1268 1.388 . S
C1267 C1266 1.366 . S
C1267 C1271 1.385 . S
C1268 H1249 0.951 . S
C1268 C1266 1.388 . S
C1268 C1269 1.366 . S
C1269 C1268 1.366 . S
C1269 C1270 1.414 . S
C1269 C1272 1.499 . S
C1270 H1250 0.950 . S
C1270 C1269 1.414 . S
C1270 C1271 1.374 . S
C1271 H1251 0.950 . S
C1271 C1267 1.385 . S
C1271 C1270 1.374 . S
C1272 C1269 1.499 . S
C1272 C1273 1.373 . S
C1272 C1274 1.389 . S
C1273 H1252 0.950 . S
C1273 C1272 1.373 . S
C1273 C1289 1.377 . S
C1274 C1272 1.389 . S
C1274 C1275 1.524 . S
C1274 C1288 1.377 . S
C1275 C1274 1.524 . S
C1275 C1276 1.397 . S
C1275 C1280 1.363 . S
C1276 H1253 0.950 . S
C1276 C1275 1.397 . S
C1276 C1277 1.334 . S
C1277 H1254 0.950 . S
C1277 C1276 1.334 . S
C1277 C1278 1.287 . S
C1278 C1277 1.287 . S
C1278 C1279 1.524 . S
C1278 H1297 0.913 . S
C1279 H1255 0.950 . S
C1279 C1278 1.524 . S
C1279 C1280 1.415 . S
C1280 H1256 0.950 . S
C1280 C1275 1.363 . S
C1280 C1279 1.415 . S
C1281 H1257 0.951 . S
C1281 C1282 1.366 . S
C1281 C1283 1.388 . S
C1282 C1281 1.366 . S
C1282 C1286 1.385 . S
C1283 H1258 0.951 . S
C1283 C1281 1.388 . S
C1283 C1284 1.366 . S
C1284 C1283 1.366 . S
C1284 C1285 1.414 . S
C1284 C1287 1.499 . S
C1285 H1259 0.950 . S
C1285 C1284 1.414 . S
C1285 C1286 1.374 . S
C1286 H1260 0.950 . S
C1286 C1282 1.385 . S
C1286 C1285 1.374 . S
C1287 C1284 1.499 . S
C1287 C1288 1.373 . S
C1287 C1289 1.389 . S
C1288 H1261 0.950 . S
C1288 C1274 1.377 . S
C1288 C1287 1.373 . S
C1289 C1273 1.377 . S
C1289 C1287 1.389 . S
C1289 C1290 1.524 . S
C1290 C1289 1.524 . S
C1290 C1291 1.397 . S
C1290 C1295 1.363 . S
C1291 H1262 0.950 . S
C1291 C1290 1.397 . S
C1291 C1292 1.334 . S
C1292 H1263 0.950 . S
C1292 C1291 1.334 . S
C1292 C1293 1.287 . S
C1293 C1292 1.287 . S
C1293 C1294 1.524 . S
C1293 H1296 0.999 1_556 S
C1294 H1264 0.950 . S
C1294 C1293 1.524 . S
C1294 C1295 1.415 . S
C1295 H1265 0.950 . S
C1295 C1290 1.363 . S
C1295 C1294 1.415 . S
H1296 C1293 0.999 1_554 S
H1297 C1278 0.913 . S
H1298 C1316 0.951 . S
H1299 C1318 0.951 . S
H1300 C1320 0.950 . S
H1301 C1321 0.950 . S
H1302 C1323 0.950 . S
H1303 C1326 0.950 . S
H1304 C1327 0.950 . S
H1305 C1329 0.950 . S
H1306 C1330 0.950 . S
H1307 C1331 0.951 . S
H1308 C1333 0.951 . S
H1309 C1335 0.950 . S
H1310 C1336 0.950 . S
H1311 C1338 0.950 . S
H1312 C1341 0.950 . S
H1313 C1342 0.950 . S
H1314 C1344 0.950 . S
H1315 C1345 0.950 . S
C1316 H1298 0.951 . S
C1316 C1317 1.366 . S
C1316 C1318 1.388 . S
C1317 C1316 1.366 . S
C1317 C1321 1.385 . S
C1318 H1299 0.951 . S
C1318 C1316 1.388 . S
C1318 C1319 1.366 . S
C1319 C1318 1.366 . S
C1319 C1320 1.414 . S
C1319 C1322 1.499 . S
C1320 H1300 0.950 . S
C1320 C1319 1.414 . S
C1320 C1321 1.374 . S
C1321 H1301 0.950 . S
C1321 C1317 1.385 . S
C1321 C1320 1.374 . S
C1322 C1319 1.499 . S
C1322 C1323 1.373 . S
C1322 C1324 1.389 . S
C1323 H1302 0.950 . S
C1323 C1322 1.373 . S
C1323 C1339 1.377 . S
C1324 C1322 1.389 . S
C1324 C1325 1.524 . S
C1324 C1338 1.377 . S
C1325 C1324 1.524 . S
C1325 C1326 1.397 . S
C1325 C1330 1.363 . S
C1326 H1303 0.950 . S
C1326 C1325 1.397 . S
C1326 C1327 1.334 . S
C1327 H1304 0.950 . S
C1327 C1326 1.334 . S
C1327 C1328 1.287 . S
C1328 C1327 1.287 . S
C1328 C1329 1.524 . S
C1328 H1347 0.913 . S
C1329 H1305 0.950 . S
C1329 C1328 1.524 . S
C1329 C1330 1.415 . S
C1330 H1306 0.950 . S
C1330 C1325 1.363 . S
C1330 C1329 1.415 . S
C1331 H1307 0.951 . S
C1331 C1332 1.366 . S
C1331 C1333 1.388 . S
C1332 C1331 1.366 . S
C1332 C1336 1.385 . S
C1333 H1308 0.951 . S
C1333 C1331 1.388 . S
C1333 C1334 1.366 . S
C1334 C1333 1.366 . S
C1334 C1335 1.414 . S
C1334 C1337 1.499 . S
C1335 H1309 0.950 . S
C1335 C1334 1.414 . S
C1335 C1336 1.374 . S
C1336 H1310 0.950 . S
C1336 C1332 1.385 . S
C1336 C1335 1.374 . S
C1337 C1334 1.499 . S
C1337 C1338 1.373 . S
C1337 C1339 1.389 . S
C1338 H1311 0.950 . S
C1338 C1324 1.377 . S
C1338 C1337 1.373 . S
C1339 C1323 1.377 . S
C1339 C1337 1.389 . S
C1339 C1340 1.524 . S
C1340 C1339 1.524 . S
C1340 C1341 1.397 . S
C1340 C1345 1.363 . S
C1341 H1312 0.950 . S
C1341 C1340 1.397 . S
C1341 C1342 1.334 . S
C1342 H1313 0.950 . S
C1342 C1341 1.334 . S
C1342 C1343 1.287 . S
C1343 C1342 1.287 . S
C1343 C1344 1.524 . S
C1343 H1346 0.999 . S
C1344 H1314 0.950 . S
C1344 C1343 1.524 . S
C1344 C1345 1.415 . S
C1345 H1315 0.950 . S
C1345 C1340 1.363 . S
C1345 C1344 1.415 . S
H1346 C1343 0.999 . S
H1347 C1328 0.913 . S
H1348 C1366 0.951 . S
H1349 C1368 0.951 . S
H1350 C1370 0.950 . S
H1351 C1371 0.950 . S
H1352 C1373 0.950 . S
H1353 C1376 0.950 . S
H1354 C1377 0.950 . S
H1355 C1379 0.950 . S
H1356 C1380 0.950 . S
H1357 C1381 0.951 . S
H1358 C1383 0.951 . S
H1359 C1385 0.950 . S
H1360 C1386 0.950 . S
H1361 C1388 0.950 . S
H1362 C1391 0.950 . S
H1363 C1392 0.950 . S
H1364 C1394 0.950 . S
H1365 C1395 0.950 . S
C1366 H1348 0.951 . S
C1366 C1367 1.366 . S
C1366 C1368 1.388 . S
C1367 C1366 1.366 . S
C1367 C1371 1.385 . S
C1368 H1349 0.951 . S
C1368 C1366 1.388 . S
C1368 C1369 1.366 . S
C1369 C1368 1.366 . S
C1369 C1370 1.414 . S
C1369 C1372 1.499 . S
C1370 H1350 0.950 . S
C1370 C1369 1.414 . S
C1370 C1371 1.374 . S
C1371 H1351 0.950 . S
C1371 C1367 1.385 . S
C1371 C1370 1.374 . S
C1372 C1369 1.499 . S
C1372 C1373 1.373 . S
C1372 C1374 1.389 . S
C1373 H1352 0.950 . S
C1373 C1372 1.373 . S
C1373 C1389 1.377 . S
C1374 C1372 1.389 . S
C1374 C1375 1.524 . S
C1374 C1388 1.377 . S
C1375 C1374 1.524 . S
C1375 C1376 1.397 . S
C1375 C1380 1.363 . S
C1376 H1353 0.950 . S
C1376 C1375 1.397 . S
C1376 C1377 1.334 . S
C1377 H1354 0.950 . S
C1377 C1376 1.334 . S
C1377 C1378 1.287 . S
C1378 C1377 1.287 . S
C1378 C1379 1.524 . S
C1378 H1397 0.913 . S
C1379 H1355 0.950 . S
C1379 C1378 1.524 . S
C1379 C1380 1.415 . S
C1380 H1356 0.950 . S
C1380 C1375 1.363 . S
C1380 C1379 1.415 . S
C1381 H1357 0.951 . S
C1381 C1382 1.366 . S
C1381 C1383 1.388 . S
C1382 C1381 1.366 . S
C1382 C1386 1.385 . S
C1383 H1358 0.951 . S
C1383 C1381 1.388 . S
C1383 C1384 1.366 . S
C1384 C1383 1.366 . S
C1384 C1385 1.414 . S
C1384 C1387 1.499 . S
C1385 H1359 0.950 . S
C1385 C1384 1.414 . S
C1385 C1386 1.374 . S
C1386 H1360 0.950 . S
C1386 C1382 1.385 . S
C1386 C1385 1.374 . S
C1387 C1384 1.499 . S
C1387 C1388 1.373 . S
C1387 C1389 1.389 . S
C1388 H1361 0.950 . S
C1388 C1374 1.377 . S
C1388 C1387 1.373 . S
C1389 C1373 1.377 . S
C1389 C1387 1.389 . S
C1389 C1390 1.524 . S
C1390 C1389 1.524 . S
C1390 C1391 1.397 . S
C1390 C1395 1.363 . S
C1391 H1362 0.950 . S
C1391 C1390 1.397 . S
C1391 C1392 1.334 . S
C1392 H1363 0.950 . S
C1392 C1391 1.334 . S
C1392 C1393 1.287 . S
C1393 C1392 1.287 . S
C1393 C1394 1.524 . S
C1393 H1396 0.999 . S
C1394 H1364 0.950 . S
C1394 C1393 1.524 . S
C1394 C1395 1.415 . S
C1395 H1365 0.950 . S
C1395 C1390 1.363 . S
C1395 C1394 1.415 . S
H1396 C1393 0.999 . S
H1397 C1378 0.913 . S
H1398 C1416 0.951 . S
H1399 C1418 0.951 . S
H1400 C1420 0.950 . S
H1401 C1421 0.950 . S
H1402 C1423 0.950 . S
H1403 C1426 0.950 . S
H1404 C1427 0.950 . S
H1405 C1429 0.950 . S
H1406 C1430 0.950 . S
H1407 C1431 0.951 . S
H1408 C1433 0.951 . S
H1409 C1435 0.950 . S
H1410 C1436 0.950 . S
H1411 C1438 0.950 . S
H1412 C1441 0.950 . S
H1413 C1442 0.950 . S
H1414 C1444 0.950 . S
H1415 C1445 0.950 . S
C1416 H1398 0.951 . S
C1416 C1417 1.366 . S
C1416 C1418 1.388 . S
C1417 C1416 1.366 . S
C1417 C1421 1.385 . S
C1418 H1399 0.951 . S
C1418 C1416 1.388 . S
C1418 C1419 1.366 . S
C1419 C1418 1.366 . S
C1419 C1420 1.414 . S
C1419 C1422 1.499 . S
C1420 H1400 0.950 . S
C1420 C1419 1.414 . S
C1420 C1421 1.374 . S
C1421 H1401 0.950 . S
C1421 C1417 1.385 . S
C1421 C1420 1.374 . S
C1422 C1419 1.499 . S
C1422 C1423 1.373 . S
C1422 C1424 1.389 . S
C1423 H1402 0.950 . S
C1423 C1422 1.373 . S
C1423 C1439 1.377 . S
C1424 C1422 1.389 . S
C1424 C1425 1.524 . S
C1424 C1438 1.377 . S
C1425 C1424 1.524 . S
C1425 C1426 1.397 . S
C1425 C1430 1.363 . S
C1426 H1403 0.950 . S
C1426 C1425 1.397 . S
C1426 C1427 1.334 . S
C1427 H1404 0.950 . S
C1427 C1426 1.334 . S
C1427 C1428 1.287 . S
C1428 C1427 1.287 . S
C1428 C1429 1.524 . S
C1428 H1447 0.913 . S
C1429 H1405 0.950 . S
C1429 C1428 1.524 . S
C1429 C1430 1.415 . S
C1430 H1406 0.950 . S
C1430 C1425 1.363 . S
C1430 C1429 1.415 . S
C1431 H1407 0.951 . S
C1431 C1432 1.366 . S
C1431 C1433 1.388 . S
C1432 C1431 1.366 . S
C1432 C1436 1.385 . S
C1433 H1408 0.951 . S
C1433 C1431 1.388 . S
C1433 C1434 1.366 . S
C1434 C1433 1.366 . S
C1434 C1435 1.414 . S
C1434 C1437 1.499 . S
C1435 H1409 0.950 . S
C1435 C1434 1.414 . S
C1435 C1436 1.374 . S
C1436 H1410 0.950 . S
C1436 C1432 1.385 . S
C1436 C1435 1.374 . S
C1437 C1434 1.499 . S
C1437 C1438 1.373 . S
C1437 C1439 1.389 . S
C1438 H1411 0.950 . S
C1438 C1424 1.377 . S
C1438 C1437 1.373 . S
C1439 C1423 1.377 . S
C1439 C1437 1.389 . S
C1439 C1440 1.524 . S
C1440 C1439 1.524 . S
C1440 C1441 1.397 . S
C1440 C1445 1.363 . S
C1441 H1412 0.950 . S
C1441 C1440 1.397 . S
C1441 C1442 1.334 . S
C1442 H1413 0.950 . S
C1442 C1441 1.334 . S
C1442 C1443 1.287 . S
C1443 C1442 1.287 . S
C1443 C1444 1.524 . S
C1443 H1446 0.999 . S
C1444 H1414 0.950 . S
C1444 C1443 1.524 . S
C1444 C1445 1.415 . S
C1445 H1415 0.950 . S
C1445 C1440 1.363 . S
C1445 C1444 1.415 . S
H1446 C1443 0.999 . S
H1447 C1428 0.913 . S
C267 C5 1.025 . S
C282 C95 1.286 . S
C317 C18 1.007 . S
C332 C144 1.070 . S
C382 C170 2.267 . S
C367 C30 2.294 . S
C417 C41 1.928 . S
C432 C218 1.887 . S
C482 C130 2.477 . S
C467 C7 2.308 . S
C532 C98 1.074 . S
C517 C16 0.964 . S
C582 C219 1.903 . S
C567 C29 1.858 . S
C632 C187 1.044 . S
C617 C38 0.968 . S
C667 C8 1.599 . S
C682 C215 1.674 . S
C732 C147 2.573 . S
C717 C27 2.388 . S
C767 C40 2.416 . S
C782 C99 2.445 . S
C817 C19 0.505 . S
C832 C184 0.489 . S
C882 C104 1.120 . S
C867 C51 1.006 . S
C917 C62 1.366 . S
C932 C135 1.362 . S
C967 C74 2.385 . S
C982 C179 2.368 . S
C1017 C84 2.073 . S
C1032 C227 2.131 . S
C1067 C49 2.166 . S
C1082 C139 2.708 1_556 S
C1132 C107 1.033 . S
C1117 C63 1.046 . S
C1182 C210 1.769 . S
C1167 C71 1.627 . S
C1232 C178 1.181 . S
C1217 C85 1.186 . S
C1267 C52 1.567 . S
C1282 C224 1.648 . S
C1332 C138 2.635 . S
C1317 C73 2.665 . S
C1382 C90 1.876 . S
C1367 C82 1.606 . S
C1417 C60 0.746 . S
C1432 C175 0.738 . S
