# Generated by pormake.
# Topology pth, (4,4)-cn, num edge types: 1
# Building blocks:
#     Node 0, Type 0, BuildingBlock: NAHDIM_clean_sbu_0, # of connection points: 4
#     Node 1, Type 0, BuildingBlock: NAHDIM_clean_sbu_0, # of connection points: 4
#     Node 2, Type 0, BuildingBlock: NAHDIM_clean_sbu_0, # of connection points: 4
#     Node 3, Type 1, BuildingBlock: KOZSID_clean_sbu_0, # of connection points: 4
#     Node 4, Type 1, BuildingBlock: KOZSID_clean_sbu_0, # of connection points: 4
#     Node 5, Type 1, BuildingBlock: KOZSID_clean_sbu_0, # of connection points: 4
#     Edge 6, Type (0, 1), BuildingBlock: XIVTED_clean_linker_0, # of connection points: 2
#     Edge 7, Type (0, 1), BuildingBlock: XIVTED_clean_linker_0, # of connection points: 2
#     Edge 8, Type (0, 1), BuildingBlock: XIVTED_clean_linker_0, # of connection points: 2
#     Edge 9, Type (0, 1), BuildingBlock: XIVTED_clean_linker_0, # of connection points: 2
#     Edge 10, Type (0, 1), BuildingBlock: XIVTED_clean_linker_0, # of connection points: 2
#     Edge 11, Type (0, 1), BuildingBlock: XIVTED_clean_linker_0, # of connection points: 2
#     Edge 12, Type (0, 1), BuildingBlock: XIVTED_clean_linker_0, # of connection points: 2
#     Edge 13, Type (0, 1), BuildingBlock: XIVTED_clean_linker_0, # of connection points: 2
#     Edge 14, Type (0, 1), BuildingBlock: XIVTED_clean_linker_0, # of connection points: 2
#     Edge 15, Type (0, 1), BuildingBlock: XIVTED_clean_linker_0, # of connection points: 2
#     Edge 16, Type (0, 1), BuildingBlock: XIVTED_clean_linker_0, # of connection points: 2
#     Edge 17, Type (0, 1), BuildingBlock: XIVTED_clean_linker_0, # of connection points: 2
# Relax obj value: 0.042
# Max RMSD: 0.170
# Mean RMSD: 0.086
data_MOF--net-pth--node1-NAHDIM_clean_sbu_0--node2-KOZSID_clean_sbu_0--edge1-XIVTED_clean_linker_0
_symmetry_space_group_name_H-M    P1
_symmetry_Int_Tables_number       1
_symmetry_cell_setting            triclinic
loop_
_symmetry_equiv_pos_as_xyz
'x, y, z'
_cell_length_a     26.683957
_cell_length_b     26.847662
_cell_length_c     59.721527
_cell_angle_alpha  89.314003
_cell_angle_beta   87.334659
_cell_angle_gamma 120.68663
loop_
_atom_site_label
_atom_site_type_symbol
_atom_site_fract_x
_atom_site_fract_y
_atom_site_fract_z
_atom_type_partial_charge
C0 C 0.02759 0.98775 0.06798 0.0
O1 O 0.99049 0.0052 0.07256 0.0
O2 O 0.03591 0.11612 0.04895 0.0
Zn3 Zn 0.05668 0.06621 0.03079 0.0
O4 O 0.99414 0.01999 0.00993 0.0
C5 C 0.1733 0.16262 0.02037 0.0
O6 O 0.16949 0.17422 0.04148 0.0
O7 O 0.06302 0.00963 0.05086 0.0
C8 C 0.00647 0.99702 0.99376 0.0
O9 O 0.05967 0.00606 0.99104 0.0
C10 C 0.04123 0.16205 0.04019 0.0
O11 O 0.05855 0.17544 0.01889 0.0
O12 O 0.13139 0.11749 0.01259 0.0
C13 C 0.05461 0.18089 0.32989 0.0
O14 O 0.01351 0.12661 0.32785 0.0
O15 O 0.06039 0.05923 0.34533 0.0
Zn16 Zn 0.07185 0.12403 0.36485 0.0
O17 O -0.00102 0.10467 0.38324 0.0
C18 C 0.1214 0.09882 0.40011 0.0
O19 O 0.06785 0.05411 0.40146 0.0
O20 O 0.0902 0.19298 0.34519 0.0
C21 C 0.00486 0.13655 0.39965 0.0
O22 O 0.0575 0.1776 0.40425 0.0
C23 C 0.02068 0.00647 0.34876 0.0
O24 O 0.98247 0.99166 0.3659 0.0
O25 O 0.13544 0.13862 0.38516 0.0
C26 C 0.15823 0.00461 0.68853 0.0
O27 O 0.17009 0.02993 0.70785 0.0
O28 O 0.01713 0.02853 0.66783 0.0
Zn29 Zn 0.05778 0.01785 0.69312 0.0
O30 O 0.10717 0.09253 0.70815 0.0
C31 C 0.94585 0.95257 0.71584 0.0
O32 O 0.93645 0.98575 0.70247 0.0
O33 O 0.11086 0.99228 0.67985 0.0
C34 C 0.08918 0.1106 0.72439 0.0
O35 O 0.03399 0.0807 0.73161 0.0
C36 C 0.02869 0.07594 0.65822 0.0
O37 O 0.07308 0.12494 0.66429 0.0
O38 O 0.99624 0.9582 0.71524 0.0
C39 C 0.07074 0.67348 0.16331 0.0
C40 C 0.12321 0.71965 0.15423 0.0
C41 C 0.16665 0.71637 0.16394 0.0
C42 C 0.13849 0.66897 0.17845 0.0
N43 N 0.07955 0.64121 0.17848 0.0
Co44 Co 0.02174 0.57265 0.19818 0.0
N45 N 0.08605 0.56948 0.21307 0.0
C46 C 0.14421 0.60443 0.20849 0.0
C47 C 0.17763 0.58995 0.22055 0.0
C48 C 0.1386 0.54246 0.2335 0.0
C49 C 0.0833 0.53094 0.22867 0.0
N50 N 0.964 0.50492 0.2182 0.0
C51 C 0.97294 0.47351 0.23373 0.0
C52 C 0.92076 0.43033 0.24421 0.0
C53 C 0.87717 0.43383 0.23464 0.0
C54 C 0.90509 0.47898 0.21906 0.0
N55 N 0.95748 0.57509 0.18296 0.0
C56 C 0.89931 0.53833 0.18672 0.0
C57 C 0.86605 0.55081 0.17358 0.0
C58 C 0.90522 0.59867 0.16077 0.0
C59 C 0.96032 0.61284 0.16698 0.0
N60 N 0.0212 0.51898 0.17552 0.0
C61 C 0.02018 0.44092 0.14427 0.0
C62 C 0.96875 0.43033 0.15575 0.0
C63 C 0.97019 0.46969 0.17108 0.0
C64 C 0.07211 0.49157 0.14845 0.0
C65 C 0.07167 0.52961 0.1641 0.0
N66 N 0.02204 0.62625 0.2208 0.0
C67 C 0.96968 0.65909 0.24454 0.0
C68 C 0.02192 0.70561 0.25117 0.0
C69 C 0.07427 0.71108 0.24271 0.0
C70 C 0.07333 0.67115 0.22771 0.0
C71 C 0.97074 0.62029 0.22951 0.0
H72 H 0.11464 0.67781 0.22181 0.0
H73 H 0.92942 0.58634 0.22496 0.0
H74 H 0.92944 0.45902 0.17918 0.0
H75 H 0.11275 0.56699 0.1668 0.0
C76 C 0.1662 0.64998 0.19249 0.0
C77 C 0.01382 0.66348 0.15766 0.0
C78 C 0.02959 0.48155 0.23859 0.0
C79 C 0.8772 0.49524 0.20386 0.0
H80 H 0.12971 0.753 0.14212 0.0
H81 H 0.21323 0.74564 0.16106 0.0
H82 H 0.22475 0.61082 0.21974 0.0
H83 H 0.14984 0.51854 0.24487 0.0
H84 H 0.91482 0.39887 0.25714 0.0
H85 H 0.83063 0.40588 0.23823 0.0
H86 H 0.8189 0.52862 0.1737 0.0
H87 H 0.89448 0.62124 0.14851 0.0
H88 H 0.92733 0.39194 0.15282 0.0
H89 H 0.11317 0.50126 0.14007 0.0
H90 H 0.92797 0.65333 0.25044 0.0
H91 H 0.11591 0.74598 0.24764 0.0
C92 C 0.4783 0.0029 0.57069 0.0
C93 C 0.44234 0.94526 0.57783 0.0
C94 C 0.44811 0.91282 0.56165 0.0
C95 C 0.48742 0.95235 0.54573 0.0
N96 N 0.50761 0.00814 0.55086 0.0
Co97 Co 0.56669 0.07942 0.53288 0.0
N98 N 0.57206 0.03159 0.50837 0.0
C99 C 0.53988 0.97329 0.50705 0.0
C100 C 0.55457 0.9529 0.4885 0.0
C101 C 0.59953 0.00087 0.4775 0.0
C102 C 0.60962 0.04802 0.49004 0.0
N103 N 0.62733 0.15054 0.5152 0.0
C104 C 0.66085 0.15513 0.49666 0.0
C105 C 0.70075 0.21249 0.49033 0.0
C106 C 0.69314 0.24548 0.50579 0.0
C107 C 0.64922 0.20643 0.52058 0.0
N108 N 0.55997 0.12726 0.55711 0.0
C109 C 0.58857 0.18585 0.55746 0.0
C110 C 0.57251 0.20624 0.57567 0.0
C111 C 0.53053 0.15789 0.58751 0.0
C112 C 0.52363 0.11054 0.57586 0.0
N113 N 0.63004 0.07736 0.54807 0.0
C114 C 0.72352 0.07677 0.56781 0.0
C115 C 0.71873 0.12618 0.56778 0.0
C116 C 0.6722 0.12558 0.55786 0.0
C117 C 0.68035 0.02744 0.55792 0.0
C118 C 0.63421 0.02858 0.54834 0.0
N119 N 0.50352 0.08177 0.51749 0.0
C120 C 0.46403 0.13659 0.5014 0.0
C121 C 0.41628 0.08613 0.49423 0.0
C122 C 0.41218 0.03321 0.49935 0.0
C123 C 0.45585 0.03203 0.51095 0.0
C124 C 0.50661 0.13344 0.51292 0.0
H125 H 0.45019 0.99039 0.51428 0.0
H126 H 0.54158 0.17353 0.51788 0.0
H127 H 0.67148 0.1648 0.55825 0.0
H128 H 0.60274 0.98966 0.54106 0.0
C129 C 0.50248 0.93845 0.52503 0.0
C130 C 0.48002 0.0507 0.58259 0.0
C131 C 0.65894 0.10651 0.48537 0.0
C132 C 0.62975 0.22056 0.54028 0.0
H133 H 0.41367 0.92846 0.59289 0.0
H134 H 0.42508 0.866 0.56122 0.0
H135 H 0.53704 0.90819 0.48417 0.0
H136 H 0.62363 0.00047 0.46252 0.0
H137 H 0.73305 0.22855 0.47634 0.0
H138 H 0.71798 0.29222 0.50658 0.0
H139 H 0.58863 0.25096 0.57964 0.0
H140 H 0.50698 0.15774 0.60277 0.0
H141 H 0.75032 0.16516 0.57561 0.0
H142 H 0.68232 0.98818 0.55731 0.0
H143 H 0.46851 0.17856 0.49829 0.0
H144 H 0.37606 0.99285 0.49406 0.0
C145 C 0.62172 0.60189 0.82153 0.0
C146 C 0.65994 0.59 0.80949 0.0
C147 C 0.65759 0.54382 0.82034 0.0
C148 C 0.61792 0.52999 0.83817 0.0
N149 N 0.59392 0.56384 0.83913 0.0
Co150 Co 0.53396 0.55879 0.862 0.0
N151 N 0.53603 0.49581 0.87959 0.0
C152 C 0.57 0.47279 0.87494 0.0
C153 C 0.56262 0.43111 0.89039 0.0
C154 C 0.52113 0.42685 0.90578 0.0
C155 C 0.50532 0.46612 0.89869 0.0
N156 N 0.47335 0.5531 0.88479 0.0
C157 C 0.44755 0.51683 0.9031 0.0
C158 C 0.40597 0.52586 0.91404 0.0
C159 C 0.40537 0.56931 0.90222 0.0
C160 C 0.44623 0.58413 0.88475 0.0
N161 N 0.53298 0.62267 0.84455 0.0
C162 C 0.49922 0.64591 0.8492 0.0
C163 C 0.51134 0.69186 0.83512 0.0
C164 C 0.55622 0.69916 0.82084 0.0
C165 C 0.56864 0.65674 0.82698 0.0
N166 N 0.47103 0.49989 0.84419 0.0
C167 C 0.38366 0.41834 0.81776 0.0
C168 C 0.3803 0.4649 0.8261 0.0
C169 C 0.42409 0.50482 0.83914 0.0
C170 C 0.43079 0.41256 0.82321 0.0
C171 C 0.4734 0.45327 0.83642 0.0
N172 N 0.59667 0.61767 0.87967 0.0
C173 C 0.63597 0.70471 0.90069 0.0
C174 C 0.68674 0.70332 0.90388 0.0
C175 C 0.69166 0.65823 0.89473 0.0
C176 C 0.64646 0.61621 0.88276 0.0
C177 C 0.59186 0.6618 0.8887 0.0
H178 H 0.65281 0.58305 0.87611 0.0
H179 H 0.55448 0.66554 0.8868 0.0
H180 H 0.41898 0.53938 0.84481 0.0
H181 H 0.50776 0.44597 0.84008 0.0
C182 C 0.60646 0.48928 0.85538 0.0
C183 C 0.61672 0.65236 0.8166 0.0
C184 C 0.45923 0.47174 0.91017 0.0
C185 C 0.45977 0.62658 0.86797 0.0
H186 H 0.68809 0.61358 0.79483 0.0
H187 H 0.68339 0.52415 0.81623 0.0
H188 H 0.58412 0.40613 0.89027 0.0
H189 H 0.50374 0.39749 0.9204 0.0
H190 H 0.37832 0.50292 0.92888 0.0
H191 H 0.37792 0.58747 0.90577 0.0
H192 H 0.49149 0.71836 0.83572 0.0
H193 H 0.57828 0.73301 0.80785 0.0
H194 H 0.34465 0.47129 0.82223 0.0
H195 H 0.43462 0.37644 0.81748 0.0
H196 H 0.63043 0.73925 0.90715 0.0
H197 H 0.72988 0.65485 0.89698 0.0
H198 H 0.07022 0.27341 0.02946 0.0
H199 H 0.96323 0.32305 0.15002 0.0
H200 H 0.99369 0.14229 0.0832 0.0
H201 H 0.0759 0.46292 0.1025 0.0
H202 H 0.96356 0.25396 0.12385 0.0
H203 H 0.06197 0.3412 0.05419 0.0
C204 C 0.05125 0.25873 0.04639 0.0
C205 C 0.03285 0.20222 0.05433 0.0
C206 C 0.98815 0.29975 0.11913 0.0
C207 C 0.02339 0.27946 0.08265 0.0
C208 C 0.98772 0.33915 0.13399 0.0
C209 C 0.01966 0.39876 0.1284 0.0
C210 C 0.02045 0.32005 0.09844 0.0
C211 C 0.05122 0.41735 0.10754 0.0
C212 C 0.04682 0.29752 0.06051 0.0
C213 C 0.00873 0.18557 0.07643 0.0
N214 N 0.05076 0.37808 0.09328 0.0
N215 N 0.00476 0.22405 0.08982 0.0
H216 H 0.89132 0.07866 0.38812 0.0
H217 H 0.76324 0.13554 0.50159 0.0
H218 H 0.00129 0.18114 0.44013 0.0
H219 H 0.67358 0.09682 0.44032 0.0
H220 H 0.84873 0.14346 0.4808 0.0
H221 H 0.80739 0.07371 0.40877 0.0
C222 C 0.89772 0.09978 0.40395 0.0
C223 C 0.95329 0.13042 0.41244 0.0
C224 C 0.81045 0.13346 0.47188 0.0
C225 C 0.85774 0.1249 0.43605 0.0
C226 C 0.76197 0.12908 0.4837 0.0
C227 C 0.71167 0.11499 0.47255 0.0
C228 C 0.80807 0.12305 0.44886 0.0
C229 C 0.71163 0.10705 0.44942 0.0
C230 C 0.84995 0.09728 0.41562 0.0
C231 C 0.9592 0.15724 0.43296 0.0
N232 N 0.759 0.1106 0.43832 0.0
N233 N 0.91191 0.15367 0.44413 0.0
H234 H 0.95319 0.89414 0.75233 0.0
H235 H 0.60929 0.69079 0.77498 0.0
H236 H 0.82961 0.91296 0.71435 0.0
H237 H 0.7304 0.72086 0.82566 0.0
H238 H 0.6899 0.76606 0.75061 0.0
H239 H 0.87227 0.82307 0.77761 0.0
C240 C 0.90908 0.88324 0.7493 0.0
C241 C 0.89802 0.90943 0.73125 0.0
C242 C 0.69872 0.75658 0.76715 0.0
C243 C 0.80563 0.82829 0.75992 0.0
C244 C 0.65283 0.71402 0.78101 0.0
C245 C 0.66356 0.7007 0.80233 0.0
C246 C 0.75568 0.78487 0.77457 0.0
C247 C 0.72072 0.73062 0.80933 0.0
C248 C 0.86304 0.84298 0.76377 0.0
C249 C 0.84009 0.89394 0.72812 0.0
N250 N 0.76487 0.77117 0.79541 0.0
N251 N 0.79599 0.85411 0.74224 0.0
H252 H 0.96944 0.94245 0.10878 0.0
H253 H 0.04287 0.68876 0.11291 0.0
H254 H 0.07935 0.92446 0.05812 0.0
H255 H 0.97803 0.73752 0.17086 0.0
H256 H 0.04531 0.76765 0.09073 0.0
H257 H 0.96235 0.86085 0.13034 0.0
C258 C 0.99219 0.92143 0.10222 0.0
C259 C 0.02514 0.94032 0.08165 0.0
C260 C 0.03037 0.76101 0.10828 0.0
C261 C 0.01663 0.84667 0.10609 0.0
C262 C 0.02874 0.71601 0.12081 0.0
C263 C 0.01062 0.70745 0.14361 0.0
C264 C 0.01312 0.79706 0.11865 0.0
C265 C 0.99239 0.74327 0.15327 0.0
C266 C 0.98812 0.8749 0.11453 0.0
C267 C 0.05373 0.91151 0.07396 0.0
N268 N 0.99419 0.78675 0.14072 0.0
N269 N 0.04858 0.86592 0.08613 0.0
H270 H 0.23812 0.18023 0.40008 0.0
H271 H 0.2974 0.0133 0.49788 0.0
H272 H 0.10377 0.0215 0.43403 0.0
H273 H 0.43363 0.16547 0.46098 0.0
H274 H 0.22513 0.01829 0.47583 0.0
H275 H 0.30981 0.17899 0.42378 0.0
C276 C 0.22364 0.1453 0.41259 0.0
C277 C 0.16493 0.10077 0.41501 0.0
C278 C 0.27084 0.05067 0.47259 0.0
C279 C 0.24665 0.09896 0.44212 0.0
C280 C 0.31214 0.04763 0.48509 0.0
C281 C 0.37168 0.08896 0.48126 0.0
C282 C 0.28916 0.09534 0.45612 0.0
C283 C 0.38815 0.13309 0.46471 0.0
C284 C 0.26459 0.14454 0.42608 0.0
C285 C 0.14862 0.05661 0.4315 0.0
N286 N 0.34713 0.13503 0.45273 0.0
N287 N 0.18928 0.05674 0.44437 0.0
H288 H 0.20646 0.17911 0.71443 0.0
H289 H 0.26472 0.36883 0.82296 0.0
H290 H 0.06881 0.15797 0.7617 0.0
H291 H 0.40062 0.37284 0.77947 0.0
H292 H 0.1917 0.29847 0.79891 0.0
H293 H 0.27743 0.25761 0.73613 0.0
C294 C 0.19104 0.19124 0.7293 0.0
C295 C 0.13158 0.16158 0.73635 0.0
C296 C 0.23751 0.31487 0.79463 0.0
C297 C 0.2129 0.25143 0.76139 0.0
C298 C 0.27918 0.35516 0.80828 0.0
C299 C 0.33879 0.37641 0.80326 0.0
C300 C 0.25566 0.29598 0.77578 0.0
C301 C 0.35509 0.35689 0.78415 0.0
C302 C 0.23169 0.23603 0.74172 0.0
C303 C 0.11424 0.17946 0.7557 0.0
N304 N 0.31377 0.31777 0.77113 0.0
N305 N 0.1548 0.22308 0.76764 0.0
H306 H 0.93052 0.98192 0.64428 0.0
H307 H 0.83823 0.16465 0.56792 0.0
H308 H 0.03476 0.1683 0.6351 0.0
H309 H 0.72042 0.98818 0.59235 0.0
H310 H 0.91633 0.16457 0.58775 0.0
H311 H 0.85959 0.98138 0.62001 0.0
C312 C 0.93879 0.02281 0.63703 0.0
C313 C 0.98849 0.07537 0.64191 0.0
C314 C 0.8734 0.12587 0.58865 0.0
C315 C 0.907 0.07489 0.61409 0.0
C316 C 0.82868 0.1259 0.57745 0.0
C317 C 0.7724 0.07644 0.57858 0.0
C318 C 0.86191 0.07589 0.60092 0.0
C319 C 0.76311 0.0271 0.59076 0.0
C320 C 0.89808 0.02241 0.62321 0.0
C321 C 0.99689 0.12685 0.63189 0.0
N322 N 0.80733 0.02818 0.60149 0.0
N323 N 0.9563 0.12537 0.61851 0.0
H324 H 0.01887 0.94454 0.95665 0.0
H325 H 0.67582 0.75367 0.94198 0.0
H326 H 0.88976 0.95931 0.99763 0.0
H327 H 0.80526 0.75599 0.8951 0.0
H328 H 0.75387 0.82841 0.96276 0.0
H329 H 0.94151 0.87492 0.934 0.0
C330 C 0.9743 0.93335 0.96083 0.0
C331 C 0.9607 0.95758 0.97912 0.0
C332 C 0.76524 0.81271 0.9479 0.0
C333 C 0.872 0.87772 0.95336 0.0
C334 C 0.72066 0.77017 0.93595 0.0
C335 C 0.73395 0.7485 0.91673 0.0
C336 C 0.82368 0.83365 0.94068 0.0
C337 C 0.79295 0.77081 0.90999 0.0
C338 C 0.93016 0.89361 0.94788 0.0
C339 C 0.90223 0.94164 0.98371 0.0
N340 N 0.83565 0.81211 0.92197 0.0
N341 N 0.86 0.90247 0.97099 0.0
H342 H 0.09257 0.02374 0.31175 0.0
H343 H 0.94899 0.6865 0.28835 0.0
H344 H 0.94678 0.88846 0.35218 0.0
H345 H 0.09375 0.8235 0.24815 0.0
H346 H 0.94705 0.75929 0.31198 0.0
H347 H 0.09294 0.95046 0.28825 0.0
C348 C 0.06048 0.97858 0.31567 0.0
C349 C 0.01961 0.96221 0.33401 0.0
C350 C 0.9793 0.77339 0.29802 0.0
C351 C 0.01995 0.87787 0.30712 0.0
C352 C 0.98031 0.73189 0.28447 0.0
C353 C 0.02162 0.74895 0.26624 0.0
C354 C 0.01983 0.83239 0.29328 0.0
C355 C 0.06166 0.80831 0.2622 0.0
C356 C 0.06078 0.9367 0.30224 0.0
C357 C 0.97907 0.90302 0.33822 0.0
N358 N 0.05966 0.84785 0.27558 0.0
N359 N 0.98033 0.86293 0.32489 0.0
H360 H 0.26964 0.0382 0.69943 0.0
H361 H 0.36672 0.0084 0.57429 0.0
H362 H 0.15022 0.96107 0.64686 0.0
H363 H 0.48357 0.06353 0.62804 0.0
H364 H 0.28597 0.98758 0.60131 0.0
H365 H 0.34765 0.04324 0.67453 0.0
C366 C 0.25958 0.02157 0.68278 0.0
C367 C 0.20344 -0.0002 0.67513 0.0
C368 C 0.32914 0.00403 0.60729 0.0
C369 C 0.29257 0.00607 0.64652 0.0
C370 C 0.37505 0.01603 0.59188 0.0
C371 C 0.43145 0.03821 0.59908 0.0
C372 C 0.33989 0.01465 0.63007 0.0
C373 C 0.44051 0.04709 0.62195 0.0
C374 C 0.3042 0.02463 0.66856 0.0
C375 C 0.19293 0.97871 0.65343 0.0
N376 N 0.39515 0.03566 0.63669 0.0
N377 N 0.2372 0.98295 0.63982 0.0
H378 H 0.19481 0.15081 0.97619 0.0
H379 H 0.45197 0.48132 0.95556 0.0
H380 H 0.26082 0.27221 0.02919 0.0
H381 H 0.37801 0.36019 0.90312 0.0
H382 H 0.38665 0.40431 0.9834 0.0
H383 H 0.26737 0.22541 0.94979 0.0
C384 C 0.22493 0.19305 0.98233 0.0
C385 C 0.22145 0.20541 0.00491 0.0
C386 C 0.3847 0.39454 0.96582 0.0
C387 C 0.30443 0.29137 0.97466 0.0
C388 C 0.42168 0.43839 0.95003 0.0
C389 C 0.4195 0.42661 0.92722 0.0
C390 C 0.34571 0.33875 0.9586 0.0
C391 C 0.38034 0.37059 0.92065 0.0
C392 C 0.26629 0.23574 0.96721 0.0
C393 C 0.26184 0.26084 0.01191 0.0
N394 N 0.34486 0.32867 0.93628 0.0
N395 N 0.30144 0.30198 0.99679 0.0
H396 H 0.11403 0.2981 0.3358 0.0
H397 H 0.9956 0.37168 0.22714 0.0
H398 H 0.99683 0.16814 0.292 0.0
H399 H 0.07025 0.49017 0.28036 0.0
H400 H 0.00402 0.29849 0.24889 0.0
H401 H 0.10844 0.37212 0.31349 0.0
C402 C 0.08757 0.28524 0.32139 0.0
C403 C 0.05571 0.22691 0.31576 0.0
C404 C 0.01847 0.34043 0.25586 0.0
C405 C 0.04902 0.31105 0.29031 0.0
C406 C 0.01355 0.38192 0.2435 0.0
C407 C 0.03246 0.43656 0.25209 0.0
C408 C 0.0429 0.35407 0.27686 0.0
C409 C 0.0555 0.44832 0.27327 0.0
C410 C 0.0841 0.32738 0.30877 0.0
C411 C 0.02189 0.21257 0.29699 0.0
N412 N 0.06042 0.40742 0.28494 0.0
N413 N 0.01946 0.25435 0.28493 0.0
loop_
_geom_bond_atom_site_label_1
_geom_bond_atom_site_label_2
_geom_bond_distance
_geom_bond_site_symmetry_2
_ccdc_geom_bond_type
C0 O1 1.160 . S
C0 O7 1.185 1_565 S
O1 C0 1.160 . S
O2 Zn3 1.899 . S
O2 C10 1.284 . S
Zn3 O2 1.899 . S
Zn3 O4 2.032 . S
Zn3 O7 2.086 . S
Zn3 O12 1.977 . S
O4 Zn3 2.032 . S
O4 C8 1.278 1_455 S
C5 O6 1.203 . S
C5 O12 1.267 . S
O6 C5 1.203 . S
O7 C0 1.185 1_545 S
O7 Zn3 2.086 . S
C8 O4 1.278 1_655 S
C8 O9 1.211 1_654 S
O9 C8 1.211 1_456 S
C10 O2 1.284 . S
C10 O11 1.273 . S
O11 C10 1.273 . S
O12 Zn3 1.977 . S
O12 C5 1.267 . S
C13 O14 1.160 . S
C13 O20 1.185 . S
O14 C13 1.160 . S
O15 Zn16 1.899 . S
O15 C23 1.284 . S
Zn16 O15 1.899 . S
Zn16 O17 2.032 1_455 S
Zn16 O20 2.086 . S
Zn16 O25 1.977 . S
O17 Zn16 2.032 1_655 S
O17 C21 1.278 . S
C18 O19 1.203 . S
C18 O25 1.267 . S
O19 C18 1.203 . S
O20 C13 1.185 . S
O20 Zn16 2.086 . S
C21 O17 1.278 . S
C21 O22 1.211 . S
O22 C21 1.211 . S
C23 O15 1.284 . S
C23 O24 1.273 1_445 S
O24 C23 1.273 1_665 S
O25 Zn16 1.977 . S
O25 C18 1.267 . S
C26 O27 1.160 . S
C26 O33 1.185 1_545 S
O27 C26 1.160 . S
O28 Zn29 1.899 . S
O28 C36 1.284 1_455 S
Zn29 O28 1.899 . S
Zn29 O30 2.032 . S
Zn29 O33 2.086 1_545 S
Zn29 O38 1.977 1_545 S
O30 Zn29 2.032 . S
O30 C34 1.278 . S
C31 O32 1.203 . S
C31 O38 1.267 1_655 S
O32 C31 1.203 . S
O33 C26 1.185 1_565 S
O33 Zn29 2.086 1_565 S
C34 O30 1.278 . S
C34 O35 1.211 . S
O35 C34 1.211 . S
C36 O28 1.284 1_655 S
C36 O37 1.273 1_655 S
O37 C36 1.273 1_455 S
O38 Zn29 1.977 1_565 S
O38 C31 1.267 1_455 S
C39 C40 1.443 . S
C39 N43 1.376 . S
C39 C77 1.389 . S
C40 C39 1.443 . S
C40 C41 1.340 . S
C40 H80 0.951 . S
C41 C40 1.340 . S
C41 C42 1.439 . S
C41 H81 0.950 . S
C42 C41 1.439 . S
C42 N43 1.374 . S
C42 C76 1.395 . S
N43 C39 1.376 . S
N43 C42 1.374 . S
N43 Co44 2.008 . S
Co44 N43 2.008 . S
Co44 N45 1.995 . S
Co44 N50 2.008 1_455 S
Co44 N55 1.995 1_455 S
Co44 N60 2.282 . S
Co44 N66 2.282 . S
N45 Co44 1.995 . S
N45 C46 1.376 . S
N45 C49 1.383 . S
C46 N45 1.376 . S
C46 C47 1.446 . S
C46 C76 1.391 . S
C47 C46 1.446 . S
C47 C48 1.339 . S
C47 H82 0.949 . S
C48 C47 1.339 . S
C48 C49 1.439 . S
C48 H83 0.950 . S
C49 N45 1.383 . S
C49 C48 1.439 . S
C49 C78 1.392 . S
N50 Co44 2.008 1_655 S
N50 C51 1.376 . S
N50 C54 1.374 . S
C51 N50 1.376 . S
C51 C52 1.443 . S
C51 C78 1.389 1_655 S
C52 C51 1.443 . S
C52 C53 1.340 . S
C52 H84 0.951 . S
C53 C52 1.340 . S
C53 C54 1.439 . S
C53 H85 0.950 . S
C54 N50 1.374 . S
C54 C53 1.439 . S
C54 C79 1.395 . S
N55 Co44 1.995 1_655 S
N55 C56 1.376 . S
N55 C59 1.383 . S
C56 N55 1.376 . S
C56 C57 1.446 . S
C56 C79 1.391 . S
C57 C56 1.446 . S
C57 C58 1.339 . S
C57 H86 0.949 . S
C58 C57 1.339 . S
C58 C59 1.439 . S
C58 H87 0.950 . S
C59 N55 1.383 . S
C59 C58 1.439 . S
C59 C77 1.392 1_655 S
N60 Co44 2.282 . S
N60 C63 1.332 1_455 S
N60 C65 1.332 . S
C61 C62 1.386 1_455 S
C61 C64 1.388 . S
C62 C61 1.386 1_655 S
C62 C63 1.382 . S
C62 H88 0.950 . S
C63 N60 1.332 1_655 S
C63 C62 1.382 . S
C63 H74 0.952 . S
C64 C61 1.388 . S
C64 C65 1.382 . S
C64 H89 0.950 . S
C65 N60 1.332 . S
C65 C64 1.382 . S
C65 H75 0.948 . S
N66 Co44 2.282 . S
N66 C70 1.332 . S
N66 C71 1.332 1_455 S
C67 C68 1.388 1_655 S
C67 C71 1.382 . S
C67 H90 0.950 . S
C68 C67 1.388 1_455 S
C68 C69 1.386 . S
C69 C68 1.386 . S
C69 C70 1.382 . S
C69 H91 0.950 . S
C70 N66 1.332 . S
C70 C69 1.382 . S
C70 H72 0.952 . S
C71 N66 1.332 1_655 S
C71 C67 1.382 . S
C71 H73 0.948 . S
H72 C70 0.952 . S
H73 C71 0.948 . S
H74 C63 0.952 . S
H75 C65 0.948 . S
C76 C42 1.395 . S
C76 C46 1.391 . S
C77 C39 1.389 . S
C77 C59 1.392 1_455 S
C78 C49 1.392 . S
C78 C51 1.389 1_455 S
C79 C54 1.395 . S
C79 C56 1.391 . S
H80 C40 0.951 . S
H81 C41 0.950 . S
H82 C47 0.949 . S
H83 C48 0.950 . S
H84 C52 0.951 . S
H85 C53 0.950 . S
H86 C57 0.949 . S
H87 C58 0.950 . S
H88 C62 0.950 . S
H89 C64 0.950 . S
H90 C67 0.950 . S
H91 C69 0.950 . S
C92 C93 1.443 1_545 S
C92 N96 1.376 . S
C92 C130 1.389 . S
C93 C92 1.443 1_565 S
C93 C94 1.340 . S
C93 H133 0.951 . S
C94 C93 1.340 . S
C94 C95 1.439 . S
C94 H134 0.950 . S
C95 C94 1.439 . S
C95 N96 1.374 1_565 S
C95 C129 1.395 . S
N96 C92 1.376 . S
N96 C95 1.374 1_545 S
N96 Co97 2.008 . S
Co97 N96 2.008 . S
Co97 N98 1.995 . S
Co97 N103 2.008 . S
Co97 N108 1.995 . S
Co97 N113 2.282 . S
Co97 N119 2.282 . S
N98 Co97 1.995 . S
N98 C99 1.376 1_545 S
N98 C102 1.383 . S
C99 N98 1.376 1_565 S
C99 C100 1.446 . S
C99 C129 1.391 . S
C100 C99 1.446 . S
C100 C101 1.339 . S
C100 H135 0.949 . S
C101 C100 1.339 . S
C101 C102 1.439 1_565 S
C101 H136 0.950 . S
C102 N98 1.383 . S
C102 C101 1.439 1_545 S
C102 C131 1.392 . S
N103 Co97 2.008 . S
N103 C104 1.376 . S
N103 C107 1.374 . S
C104 N103 1.376 . S
C104 C105 1.443 . S
C104 C131 1.389 . S
C105 C104 1.443 . S
C105 C106 1.340 . S
C105 H137 0.951 . S
C106 C105 1.340 . S
C106 C107 1.439 . S
C106 H138 0.950 . S
C107 N103 1.374 . S
C107 C106 1.439 . S
C107 C132 1.395 . S
N108 Co97 1.995 . S
N108 C109 1.376 . S
N108 C112 1.383 . S
C109 N108 1.376 . S
C109 C110 1.446 . S
C109 C132 1.391 . S
C110 C109 1.446 . S
C110 C111 1.339 . S
C110 H139 0.949 . S
C111 C110 1.339 . S
C111 C112 1.439 . S
C111 H140 0.950 . S
C112 N108 1.383 . S
C112 C111 1.439 . S
C112 C130 1.392 . S
N113 Co97 2.282 . S
N113 C116 1.332 . S
N113 C118 1.332 . S
C114 C115 1.386 . S
C114 C117 1.388 . S
C115 C114 1.386 . S
C115 C116 1.382 . S
C115 H141 0.950 . S
C116 N113 1.332 . S
C116 C115 1.382 . S
C116 H127 0.952 . S
C117 C114 1.388 . S
C117 C118 1.382 . S
C117 H142 0.950 1_545 S
C118 N113 1.332 . S
C118 C117 1.382 . S
C118 H128 0.948 1_545 S
N119 Co97 2.282 . S
N119 C123 1.332 . S
N119 C124 1.332 . S
C120 C121 1.388 . S
C120 C124 1.382 . S
C120 H143 0.950 . S
C121 C120 1.388 . S
C121 C122 1.386 . S
C122 C121 1.386 . S
C122 C123 1.382 . S
C122 H144 0.950 . S
C123 N119 1.332 . S
C123 C122 1.382 . S
C123 H125 0.952 . S
C124 N119 1.332 . S
C124 C120 1.382 . S
C124 H126 0.948 . S
H125 C123 0.952 . S
H126 C124 0.948 . S
H127 C116 0.952 . S
H128 C118 0.948 1_565 S
C129 C95 1.395 . S
C129 C99 1.391 . S
C130 C92 1.389 . S
C130 C112 1.392 . S
C131 C102 1.392 . S
C131 C104 1.389 . S
C132 C107 1.395 . S
C132 C109 1.391 . S
H133 C93 0.951 . S
H134 C94 0.950 . S
H135 C100 0.949 . S
H136 C101 0.950 . S
H137 C105 0.951 . S
H138 C106 0.950 . S
H139 C110 0.949 . S
H140 C111 0.950 . S
H141 C115 0.950 . S
H142 C117 0.950 1_565 S
H143 C120 0.950 . S
H144 C122 0.950 . S
C145 C146 1.443 . S
C145 N149 1.376 . S
C145 C183 1.389 . S
C146 C145 1.443 . S
C146 C147 1.340 . S
C146 H186 0.951 . S
C147 C146 1.340 . S
C147 C148 1.439 . S
C147 H187 0.950 . S
C148 C147 1.439 . S
C148 N149 1.374 . S
C148 C182 1.395 . S
N149 C145 1.376 . S
N149 C148 1.374 . S
N149 Co150 2.008 . S
Co150 N149 2.008 . S
Co150 N151 1.995 . S
Co150 N156 2.008 . S
Co150 N161 1.995 . S
Co150 N166 2.282 . S
Co150 N172 2.282 . S
N151 Co150 1.995 . S
N151 C152 1.376 . S
N151 C155 1.383 . S
C152 N151 1.376 . S
C152 C153 1.446 . S
C152 C182 1.391 . S
C153 C152 1.446 . S
C153 C154 1.339 . S
C153 H188 0.949 . S
C154 C153 1.339 . S
C154 C155 1.439 . S
C154 H189 0.950 . S
C155 N151 1.383 . S
C155 C154 1.439 . S
C155 C184 1.392 . S
N156 Co150 2.008 . S
N156 C157 1.376 . S
N156 C160 1.374 . S
C157 N156 1.376 . S
C157 C158 1.443 . S
C157 C184 1.389 . S
C158 C157 1.443 . S
C158 C159 1.340 . S
C158 H190 0.951 . S
C159 C158 1.340 . S
C159 C160 1.439 . S
C159 H191 0.950 . S
C160 N156 1.374 . S
C160 C159 1.439 . S
C160 C185 1.395 . S
N161 Co150 1.995 . S
N161 C162 1.376 . S
N161 C165 1.383 . S
C162 N161 1.376 . S
C162 C163 1.446 . S
C162 C185 1.391 . S
C163 C162 1.446 . S
C163 C164 1.339 . S
C163 H192 0.949 . S
C164 C163 1.339 . S
C164 C165 1.439 . S
C164 H193 0.950 . S
C165 N161 1.383 . S
C165 C164 1.439 . S
C165 C183 1.392 . S
N166 Co150 2.282 . S
N166 C169 1.332 . S
N166 C171 1.332 . S
C167 C168 1.386 . S
C167 C170 1.388 . S
C168 C167 1.386 . S
C168 C169 1.382 . S
C168 H194 0.950 . S
C169 N166 1.332 . S
C169 C168 1.382 . S
C169 H180 0.952 . S
C170 C167 1.388 . S
C170 C171 1.382 . S
C170 H195 0.950 . S
C171 N166 1.332 . S
C171 C170 1.382 . S
C171 H181 0.948 . S
N172 Co150 2.282 . S
N172 C176 1.332 . S
N172 C177 1.332 . S
C173 C174 1.388 . S
C173 C177 1.382 . S
C173 H196 0.950 . S
C174 C173 1.388 . S
C174 C175 1.386 . S
C175 C174 1.386 . S
C175 C176 1.382 . S
C175 H197 0.950 . S
C176 N172 1.332 . S
C176 C175 1.382 . S
C176 H178 0.952 . S
C177 N172 1.332 . S
C177 C173 1.382 . S
C177 H179 0.948 . S
H178 C176 0.952 . S
H179 C177 0.948 . S
H180 C169 0.952 . S
H181 C171 0.948 . S
C182 C148 1.395 . S
C182 C152 1.391 . S
C183 C145 1.389 . S
C183 C165 1.392 . S
C184 C155 1.392 . S
C184 C157 1.389 . S
C185 C160 1.395 . S
C185 C162 1.391 . S
H186 C146 0.951 . S
H187 C147 0.950 . S
H188 C153 0.949 . S
H189 C154 0.950 . S
H190 C158 0.951 . S
H191 C159 0.950 . S
H192 C163 0.949 . S
H193 C164 0.950 . S
H194 C168 0.950 . S
H195 C170 0.950 . S
H196 C173 0.950 . S
H197 C175 0.950 . S
H198 C204 0.930 . S
H199 C208 0.928 1_655 S
H200 C213 0.929 1_655 S
H201 C211 0.929 . S
H202 C206 0.929 1_655 S
H203 C212 0.929 . S
C204 H198 0.930 . S
C204 C205 1.367 . S
C204 C212 1.378 . S
C205 C204 1.367 . S
C205 C213 1.433 . S
C206 H202 0.929 1_455 S
C206 C208 1.382 . S
C206 C210 1.350 . S
C207 C210 1.463 . S
C207 C212 1.350 . S
C207 N215 1.427 . S
C208 H199 0.928 1_455 S
C208 C206 1.382 . S
C208 C209 1.365 . S
C209 C208 1.365 . S
C209 C211 1.433 . S
C210 C206 1.350 . S
C210 C207 1.463 . S
C210 N214 1.427 . S
C211 H201 0.929 . S
C211 C209 1.433 . S
C211 N214 1.384 . S
C212 H203 0.929 . S
C212 C204 1.378 . S
C212 C207 1.350 . S
C213 H200 0.929 1_455 S
C213 C205 1.433 . S
C213 N215 1.384 . S
N214 C210 1.427 . S
N214 C211 1.384 . S
N215 C207 1.427 . S
N215 C213 1.384 . S
H216 C222 0.930 . S
H217 C226 0.930 . S
H218 C231 0.929 . S
H219 C229 0.929 . S
H220 C224 0.929 . S
H221 C230 0.929 . S
C222 H216 0.930 . S
C222 C223 1.367 . S
C222 C230 1.378 . S
C223 C222 1.367 . S
C223 C231 1.433 . S
C224 H220 0.929 . S
C224 C226 1.378 . S
C224 C228 1.350 . S
C225 C228 1.463 . S
C225 C230 1.350 . S
C225 N233 1.427 . S
C226 H217 0.930 . S
C226 C224 1.378 . S
C226 C227 1.367 . S
C227 C226 1.367 . S
C227 C229 1.433 . S
C228 C224 1.350 . S
C228 C225 1.463 . S
C228 N232 1.427 . S
C229 H219 0.929 . S
C229 C227 1.433 . S
C229 N232 1.384 . S
C230 H221 0.929 . S
C230 C222 1.378 . S
C230 C225 1.350 . S
C231 H218 0.929 . S
C231 C223 1.433 . S
C231 N233 1.384 . S
N232 C228 1.427 . S
N232 C229 1.384 . S
N233 C225 1.427 . S
N233 C231 1.384 . S
H234 C240 0.930 . S
H235 C244 0.930 . S
H236 C249 0.929 . S
H237 C247 0.929 . S
H238 C242 0.929 . S
H239 C248 0.929 . S
C240 H234 0.930 . S
C240 C241 1.367 . S
C240 C248 1.378 . S
C241 C240 1.367 . S
C241 C249 1.433 . S
C242 H238 0.929 . S
C242 C244 1.378 . S
C242 C246 1.350 . S
C243 C246 1.463 . S
C243 C248 1.350 . S
C243 N251 1.427 . S
C244 H235 0.930 . S
C244 C242 1.378 . S
C244 C245 1.367 . S
C245 C244 1.367 . S
C245 C247 1.433 . S
C246 C242 1.350 . S
C246 C243 1.463 . S
C246 N250 1.427 . S
C247 H237 0.929 . S
C247 C245 1.433 . S
C247 N250 1.384 . S
C248 H239 0.929 . S
C248 C240 1.378 . S
C248 C243 1.350 . S
C249 H236 0.929 . S
C249 C241 1.433 . S
C249 N251 1.384 . S
N250 C246 1.427 . S
N250 C247 1.384 . S
N251 C243 1.427 . S
N251 C249 1.384 . S
H252 C258 0.930 . S
H253 C262 0.930 . S
H254 C267 0.929 . S
H255 C265 0.929 . S
H256 C260 0.929 . S
H257 C266 0.929 . S
C258 H252 0.930 . S
C258 C259 1.367 . S
C258 C266 1.378 . S
C259 C258 1.367 . S
C259 C267 1.433 . S
C260 H256 0.929 . S
C260 C262 1.378 . S
C260 C264 1.350 . S
C261 C264 1.463 . S
C261 C266 1.350 . S
C261 N269 1.427 . S
C262 H253 0.930 . S
C262 C260 1.378 . S
C262 C263 1.367 . S
C263 C262 1.367 . S
C263 C265 1.433 . S
C264 C260 1.350 . S
C264 C261 1.463 . S
C264 N268 1.427 . S
C265 H255 0.929 . S
C265 C263 1.433 . S
C265 N268 1.384 . S
C266 H257 0.929 . S
C266 C258 1.378 . S
C266 C261 1.350 . S
C267 H254 0.929 . S
C267 C259 1.433 . S
C267 N269 1.384 . S
N268 C264 1.427 . S
N268 C265 1.384 . S
N269 C261 1.427 . S
N269 C267 1.384 . S
H270 C276 0.930 . S
H271 C280 0.930 . S
H272 C285 0.929 . S
H273 C283 0.929 . S
H274 C278 0.929 . S
H275 C284 0.929 . S
C276 H270 0.930 . S
C276 C277 1.367 . S
C276 C284 1.378 . S
C277 C276 1.367 . S
C277 C285 1.433 . S
C278 H274 0.929 . S
C278 C280 1.378 . S
C278 C282 1.350 . S
C279 C282 1.463 . S
C279 C284 1.350 . S
C279 N287 1.427 . S
C280 H271 0.930 . S
C280 C278 1.378 . S
C280 C281 1.367 . S
C281 C280 1.367 . S
C281 C283 1.433 . S
C282 C278 1.350 . S
C282 C279 1.463 . S
C282 N286 1.427 . S
C283 H273 0.929 . S
C283 C281 1.433 . S
C283 N286 1.384 . S
C284 H275 0.929 . S
C284 C276 1.378 . S
C284 C279 1.350 . S
C285 H272 0.929 . S
C285 C277 1.433 . S
C285 N287 1.384 . S
N286 C282 1.427 . S
N286 C283 1.384 . S
N287 C279 1.427 . S
N287 C285 1.384 . S
H288 C294 0.930 . S
H289 C298 0.930 . S
H290 C303 0.929 . S
H291 C301 0.929 . S
H292 C296 0.929 . S
H293 C302 0.929 . S
C294 H288 0.930 . S
C294 C295 1.367 . S
C294 C302 1.378 . S
C295 C294 1.367 . S
C295 C303 1.433 . S
C296 H292 0.929 . S
C296 C298 1.378 . S
C296 C300 1.350 . S
C297 C300 1.463 . S
C297 C302 1.350 . S
C297 N305 1.427 . S
C298 H289 0.930 . S
C298 C296 1.378 . S
C298 C299 1.367 . S
C299 C298 1.367 . S
C299 C301 1.433 . S
C300 C296 1.350 . S
C300 C297 1.463 . S
C300 N304 1.427 . S
C301 H291 0.929 . S
C301 C299 1.433 . S
C301 N304 1.384 . S
C302 H293 0.929 . S
C302 C294 1.378 . S
C302 C297 1.350 . S
C303 H290 0.929 . S
C303 C295 1.433 . S
C303 N305 1.384 . S
N304 C300 1.427 . S
N304 C301 1.384 . S
N305 C297 1.427 . S
N305 C303 1.384 . S
H306 C312 0.930 . S
H307 C316 0.930 . S
H308 C321 0.929 1_455 S
H309 C319 0.929 . S
H310 C314 0.929 . S
H311 C320 0.929 . S
C312 H306 0.930 . S
C312 C313 1.367 . S
C312 C320 1.378 . S
C313 C312 1.367 . S
C313 C321 1.433 . S
C314 H310 0.929 . S
C314 C316 1.378 . S
C314 C318 1.350 . S
C315 C318 1.463 . S
C315 C320 1.350 . S
C315 N323 1.427 . S
C316 H307 0.930 . S
C316 C314 1.378 . S
C316 C317 1.367 . S
C317 C316 1.367 . S
C317 C319 1.433 . S
C318 C314 1.350 . S
C318 C315 1.463 . S
C318 N322 1.427 . S
C319 H309 0.929 . S
C319 C317 1.433 . S
C319 N322 1.384 . S
C320 H311 0.929 . S
C320 C312 1.378 . S
C320 C315 1.350 . S
C321 H308 0.929 1_655 S
C321 C313 1.433 . S
C321 N323 1.384 . S
N322 C318 1.427 . S
N322 C319 1.384 . S
N323 C315 1.427 . S
N323 C321 1.384 . S
H324 C330 0.930 . S
H325 C334 0.930 . S
H326 C339 0.929 . S
H327 C337 0.929 . S
H328 C332 0.929 . S
H329 C338 0.929 . S
C330 H324 0.930 . S
C330 C331 1.367 . S
C330 C338 1.378 . S
C331 C330 1.367 . S
C331 C339 1.433 1_556 S
C332 H328 0.929 . S
C332 C334 1.378 . S
C332 C336 1.350 . S
C333 C336 1.463 . S
C333 C338 1.350 . S
C333 N341 1.427 . S
C334 H325 0.930 . S
C334 C332 1.378 . S
C334 C335 1.367 . S
C335 C334 1.367 . S
C335 C337 1.433 . S
C336 C332 1.350 . S
C336 C333 1.463 . S
C336 N340 1.427 . S
C337 H327 0.929 . S
C337 C335 1.433 . S
C337 N340 1.384 . S
C338 H329 0.929 . S
C338 C330 1.378 . S
C338 C333 1.350 . S
C339 H326 0.929 . S
C339 C331 1.433 1_554 S
C339 N341 1.384 1_554 S
N340 C336 1.427 . S
N340 C337 1.384 . S
N341 C333 1.427 . S
N341 C339 1.384 1_556 S
H342 C348 0.930 1_545 S
H343 C352 0.930 . S
H344 C357 0.929 . S
H345 C355 0.929 . S
H346 C350 0.929 . S
H347 C356 0.929 . S
C348 H342 0.930 1_565 S
C348 C349 1.367 . S
C348 C356 1.378 . S
C349 C348 1.367 . S
C349 C357 1.433 1_455 S
C350 H346 0.929 . S
C350 C352 1.378 . S
C350 C354 1.350 1_655 S
C351 C354 1.463 . S
C351 C356 1.350 . S
C351 N359 1.427 1_455 S
C352 H343 0.930 . S
C352 C350 1.378 . S
C352 C353 1.367 1_655 S
C353 C352 1.367 1_455 S
C353 C355 1.433 . S
C354 C350 1.350 1_455 S
C354 C351 1.463 . S
C354 N358 1.427 . S
C355 H345 0.929 . S
C355 C353 1.433 . S
C355 N358 1.384 . S
C356 H347 0.929 . S
C356 C348 1.378 . S
C356 C351 1.350 . S
C357 H344 0.929 . S
C357 C349 1.433 1_655 S
C357 N359 1.384 . S
N358 C354 1.427 . S
N358 C355 1.384 . S
N359 C351 1.427 1_655 S
N359 C357 1.384 . S
H360 C366 0.930 . S
H361 C370 0.930 . S
H362 C375 0.929 . S
H363 C373 0.929 . S
H364 C368 0.929 1_565 S
H365 C374 0.929 . S
C366 H360 0.930 . S
C366 C367 1.367 . S
C366 C374 1.378 . S
C367 C366 1.367 . S
C367 C375 1.433 1_545 S
C368 H364 0.929 1_545 S
C368 C370 1.378 . S
C368 C372 1.350 . S
C369 C372 1.463 . S
C369 C374 1.350 . S
C369 N377 1.427 1_545 S
C370 H361 0.930 . S
C370 C368 1.378 . S
C370 C371 1.367 . S
C371 C370 1.367 . S
C371 C373 1.433 . S
C372 C368 1.350 . S
C372 C369 1.463 . S
C372 N376 1.427 . S
C373 H363 0.929 . S
C373 C371 1.433 . S
C373 N376 1.384 . S
C374 H365 0.929 . S
C374 C366 1.378 . S
C374 C369 1.350 . S
C375 H362 0.929 . S
C375 C367 1.433 1_565 S
C375 N377 1.384 . S
N376 C372 1.427 . S
N376 C373 1.384 . S
N377 C369 1.427 1_565 S
N377 C375 1.384 . S
H378 C384 0.930 . S
H379 C388 0.930 . S
H380 C393 0.929 1_554 S
H381 C391 0.929 . S
H382 C386 0.929 . S
H383 C392 0.929 . S
C384 H378 0.930 . S
C384 C385 1.367 . S
C384 C392 1.378 . S
C385 C384 1.367 . S
C385 C393 1.433 . S
C386 H382 0.929 . S
C386 C388 1.378 . S
C386 C390 1.350 . S
C387 C390 1.463 . S
C387 C392 1.350 . S
C387 N395 1.427 . S
C388 H379 0.930 . S
C388 C386 1.378 . S
C388 C389 1.367 . S
C389 C388 1.367 . S
C389 C391 1.433 . S
C390 C386 1.350 . S
C390 C387 1.463 . S
C390 N394 1.427 . S
C391 H381 0.929 . S
C391 C389 1.433 . S
C391 N394 1.384 . S
C392 H383 0.929 . S
C392 C384 1.378 . S
C392 C387 1.350 . S
C393 H380 0.929 1_556 S
C393 C385 1.433 . S
C393 N395 1.384 . S
N394 C390 1.427 . S
N394 C391 1.384 . S
N395 C387 1.427 . S
N395 C393 1.384 . S
H396 C402 0.930 . S
H397 C406 0.930 . S
H398 C411 0.929 1_655 S
H399 C409 0.929 . S
H400 C404 0.929 . S
H401 C410 0.929 . S
C402 H396 0.930 . S
C402 C403 1.367 . S
C402 C410 1.378 . S
C403 C402 1.367 . S
C403 C411 1.433 . S
C404 H400 0.929 . S
C404 C406 1.378 . S
C404 C408 1.350 1_655 S
C405 C408 1.463 . S
C405 C410 1.350 . S
C405 N413 1.427 . S
C406 H397 0.930 . S
C406 C404 1.378 . S
C406 C407 1.367 1_655 S
C407 C406 1.367 1_455 S
C407 C409 1.433 . S
C408 C404 1.350 1_455 S
C408 C405 1.463 . S
C408 N412 1.427 . S
C409 H399 0.929 . S
C409 C407 1.433 . S
C409 N412 1.384 . S
C410 H401 0.929 . S
C410 C402 1.378 . S
C410 C405 1.350 . S
C411 H398 0.929 1_455 S
C411 C403 1.433 . S
C411 N413 1.384 . S
N412 C408 1.427 . S
N412 C409 1.384 . S
N413 C405 1.427 . S
N413 C411 1.384 . S
C209 C61 1.421 . S
C205 C10 1.418 . S
C223 C21 1.438 . S
C227 C131 1.465 . S
C241 C31 1.387 . S
C245 C183 1.453 . S
C259 C0 1.388 . S
C263 C77 1.440 . S
C281 C121 1.445 . S
C277 C18 1.391 . S
C295 C34 1.410 . S
C299 C167 1.432 . S
C317 C114 1.403 . S
C313 C36 1.401 . S
C331 C8 1.399 1_566 S
C335 C174 1.432 . S
C353 C68 1.422 . S
C349 C23 1.422 1_565 S
C371 C130 1.384 . S
C367 C26 1.340 . S
C389 C184 1.456 . S
C385 C5 1.385 1_556 S
C403 C13 1.400 . S
C407 C78 1.443 . S
