# Generated by pormake.
# Topology ocu, (6,8)-cn, num edge types: 1
# Building blocks:
#     Node 0, Type 0, BuildingBlock: BETDEL_clean_sbu_0, # of connection points: 6
#     Node 1, Type 0, BuildingBlock: BETDEL_clean_sbu_0, # of connection points: 6
#     Node 2, Type 0, BuildingBlock: BETDEL_clean_sbu_0, # of connection points: 6
#     Node 3, Type 0, BuildingBlock: BETDEL_clean_sbu_0, # of connection points: 6
#     Node 4, Type 0, BuildingBlock: BETDEL_clean_sbu_0, # of connection points: 6
#     Node 5, Type 0, BuildingBlock: BETDEL_clean_sbu_0, # of connection points: 6
#     Node 6, Type 0, BuildingBlock: BETDEL_clean_sbu_0, # of connection points: 6
#     Node 7, Type 0, BuildingBlock: BETDEL_clean_sbu_0, # of connection points: 6
#     Node 8, Type 1, BuildingBlock: VETTIZ_charged_sbu_0, # of connection points: 8
#     Node 9, Type 1, BuildingBlock: VETTIZ_charged_sbu_0, # of connection points: 8
#     Node 10, Type 1, BuildingBlock: VETTIZ_charged_sbu_0, # of connection points: 8
#     Node 11, Type 1, BuildingBlock: VETTIZ_charged_sbu_0, # of connection points: 8
#     Node 12, Type 1, BuildingBlock: VETTIZ_charged_sbu_0, # of connection points: 8
#     Node 13, Type 1, BuildingBlock: VETTIZ_charged_sbu_0, # of connection points: 8
#     Edge 14, Type (0, 1), BuildingBlock: ZUJKAS_clean_linker_0, # of connection points: 2
#     Edge 15, Type (0, 1), BuildingBlock: ZUJKAS_clean_linker_0, # of connection points: 2
#     Edge 16, Type (0, 1), BuildingBlock: ZUJKAS_clean_linker_0, # of connection points: 2
#     Edge 17, Type (0, 1), BuildingBlock: ZUJKAS_clean_linker_0, # of connection points: 2
#     Edge 18, Type (0, 1), BuildingBlock: ZUJKAS_clean_linker_0, # of connection points: 2
#     Edge 19, Type (0, 1), BuildingBlock: ZUJKAS_clean_linker_0, # of connection points: 2
#     Edge 20, Type (0, 1), BuildingBlock: ZUJKAS_clean_linker_0, # of connection points: 2
#     Edge 21, Type (0, 1), BuildingBlock: ZUJKAS_clean_linker_0, # of connection points: 2
#     Edge 22, Type (0, 1), BuildingBlock: ZUJKAS_clean_linker_0, # of connection points: 2
#     Edge 23, Type (0, 1), BuildingBlock: ZUJKAS_clean_linker_0, # of connection points: 2
#     Edge 24, Type (0, 1), BuildingBlock: ZUJKAS_clean_linker_0, # of connection points: 2
#     Edge 25, Type (0, 1), BuildingBlock: ZUJKAS_clean_linker_0, # of connection points: 2
#     Edge 26, Type (0, 1), BuildingBlock: ZUJKAS_clean_linker_0, # of connection points: 2
#     Edge 27, Type (0, 1), BuildingBlock: ZUJKAS_clean_linker_0, # of connection points: 2
#     Edge 28, Type (0, 1), BuildingBlock: ZUJKAS_clean_linker_0, # of connection points: 2
#     Edge 29, Type (0, 1), BuildingBlock: ZUJKAS_clean_linker_0, # of connection points: 2
#     Edge 30, Type (0, 1), BuildingBlock: ZUJKAS_clean_linker_0, # of connection points: 2
#     Edge 31, Type (0, 1), BuildingBlock: ZUJKAS_clean_linker_0, # of connection points: 2
#     Edge 32, Type (0, 1), BuildingBlock: ZUJKAS_clean_linker_0, # of connection points: 2
#     Edge 33, Type (0, 1), BuildingBlock: ZUJKAS_clean_linker_0, # of connection points: 2
#     Edge 34, Type (0, 1), BuildingBlock: ZUJKAS_clean_linker_0, # of connection points: 2
#     Edge 35, Type (0, 1), BuildingBlock: ZUJKAS_clean_linker_0, # of connection points: 2
#     Edge 36, Type (0, 1), BuildingBlock: ZUJKAS_clean_linker_0, # of connection points: 2
#     Edge 37, Type (0, 1), BuildingBlock: ZUJKAS_clean_linker_0, # of connection points: 2
#     Edge 38, Type (0, 1), BuildingBlock: ZUJKAS_clean_linker_0, # of connection points: 2
#     Edge 39, Type (0, 1), BuildingBlock: ZUJKAS_clean_linker_0, # of connection points: 2
#     Edge 40, Type (0, 1), BuildingBlock: ZUJKAS_clean_linker_0, # of connection points: 2
#     Edge 41, Type (0, 1), BuildingBlock: ZUJKAS_clean_linker_0, # of connection points: 2
#     Edge 42, Type (0, 1), BuildingBlock: ZUJKAS_clean_linker_0, # of connection points: 2
#     Edge 43, Type (0, 1), BuildingBlock: ZUJKAS_clean_linker_0, # of connection points: 2
#     Edge 44, Type (0, 1), BuildingBlock: ZUJKAS_clean_linker_0, # of connection points: 2
#     Edge 45, Type (0, 1), BuildingBlock: ZUJKAS_clean_linker_0, # of connection points: 2
#     Edge 46, Type (0, 1), BuildingBlock: ZUJKAS_clean_linker_0, # of connection points: 2
#     Edge 47, Type (0, 1), BuildingBlock: ZUJKAS_clean_linker_0, # of connection points: 2
#     Edge 48, Type (0, 1), BuildingBlock: ZUJKAS_clean_linker_0, # of connection points: 2
#     Edge 49, Type (0, 1), BuildingBlock: ZUJKAS_clean_linker_0, # of connection points: 2
#     Edge 50, Type (0, 1), BuildingBlock: ZUJKAS_clean_linker_0, # of connection points: 2
#     Edge 51, Type (0, 1), BuildingBlock: ZUJKAS_clean_linker_0, # of connection points: 2
#     Edge 52, Type (0, 1), BuildingBlock: ZUJKAS_clean_linker_0, # of connection points: 2
#     Edge 53, Type (0, 1), BuildingBlock: ZUJKAS_clean_linker_0, # of connection points: 2
#     Edge 54, Type (0, 1), BuildingBlock: ZUJKAS_clean_linker_0, # of connection points: 2
#     Edge 55, Type (0, 1), BuildingBlock: ZUJKAS_clean_linker_0, # of connection points: 2
#     Edge 56, Type (0, 1), BuildingBlock: ZUJKAS_clean_linker_0, # of connection points: 2
#     Edge 57, Type (0, 1), BuildingBlock: ZUJKAS_clean_linker_0, # of connection points: 2
#     Edge 58, Type (0, 1), BuildingBlock: ZUJKAS_clean_linker_0, # of connection points: 2
#     Edge 59, Type (0, 1), BuildingBlock: ZUJKAS_clean_linker_0, # of connection points: 2
#     Edge 60, Type (0, 1), BuildingBlock: ZUJKAS_clean_linker_0, # of connection points: 2
#     Edge 61, Type (0, 1), BuildingBlock: ZUJKAS_clean_linker_0, # of connection points: 2
# Relax obj value: 0.087
# Max RMSD: 0.223
# Mean RMSD: 0.134
data_MOF--net-ocu--node1-BETDEL_clean_sbu_0--node2-VETTIZ_charged_sbu_0--edge1-ZUJKAS_clean_linker_0
_symmetry_space_group_name_H-M    P1
_symmetry_Int_Tables_number       1
_symmetry_cell_setting            triclinic
loop_
_symmetry_equiv_pos_as_xyz
'x, y, z'
_cell_length_a     47.731186
_cell_length_b     48.740246
_cell_length_c     47.438792
_cell_angle_alpha  91.485842
_cell_angle_beta   90.957907
_cell_angle_gamma 95.2325
loop_
_atom_site_label
_atom_site_type_symbol
_atom_site_fract_x
_atom_site_fract_y
_atom_site_fract_z
_atom_type_partial_charge
Dy0 Dy 0.27179 0.24875 0.27347 0.0
C1 C 0.217 0.28549 0.17783 0.0
C2 C 0.29049 0.21828 0.31566 0.0
Dy3 Dy 0.23868 0.25845 0.22105 0.0
O4 O 0.30155 0.2428 0.30964 0.0
O5 O 0.26915 0.21096 0.29905 0.0
O6 O 0.2973 0.28949 0.27099 0.0
O7 O 0.2826 0.2679 0.23375 0.0
C8 C 0.29485 0.29029 0.24361 0.0
C9 C 0.2151 0.21837 0.25343 0.0
O10 O 0.27012 0.2328 0.20026 0.0
O11 O 0.28868 0.21782 0.24185 0.0
O12 O 0.21082 0.25948 0.18246 0.0
O13 O 0.23503 0.29642 0.19657 0.0
O14 O 0.21233 0.21774 0.22607 0.0
O15 O 0.22801 0.24092 0.26133 0.0
O16 O 0.24229 0.27751 0.29349 0.0
O17 O 0.2228 0.29054 0.25134 0.0
C18 C 0.28666 0.21672 0.21371 0.0
C19 C 0.22569 0.29319 0.27932 0.0
Dy20 Dy 0.77989 0.23885 0.2659 0.0
C21 C 0.69053 0.29329 0.21837 0.0
C22 C 0.82298 0.2138 0.289 0.0
Dy23 Dy 0.73258 0.27261 0.2483 0.0
O24 O 0.81363 0.21004 0.26329 0.0
O25 O 0.80864 0.23123 0.30246 0.0
O26 O 0.76982 0.21076 0.2278 0.0
O27 O 0.7377 0.22902 0.24828 0.0
C28 C 0.74329 0.21439 0.22741 0.0
C29 C 0.76673 0.2965 0.28869 0.0
O30 O 0.71031 0.2474 0.28119 0.0
O31 O 0.75006 0.23141 0.30174 0.0
O32 O 0.70338 0.30533 0.24032 0.0
O33 O 0.70051 0.26989 0.2129 0.0
O34 O 0.74014 0.30021 0.28662 0.0
O35 O 0.77414 0.28261 0.26775 0.0
O36 O 0.80306 0.26708 0.23666 0.0
O37 O 0.76366 0.27962 0.21309 0.0
C38 C 0.72277 0.23484 0.30182 0.0
C39 C 0.79123 0.27793 0.21474 0.0
Dy40 Dy 0.74954 0.76469 0.27542 0.0
C41 C 0.81596 0.74053 0.18188 0.0
C42 C 0.71609 0.78542 0.31532 0.0
Dy43 Dy 0.78581 0.75852 0.22564 0.0
O44 O 0.70747 0.76889 0.29452 0.0
O45 O 0.74334 0.7896 0.31515 0.0
O46 O 0.73306 0.72065 0.27113 0.0
O47 O 0.74253 0.74307 0.23453 0.0
C48 C 0.73431 0.71961 0.24379 0.0
C49 C 0.80032 0.80371 0.25767 0.0
O50 O 0.75222 0.77986 0.20386 0.0
O51 O 0.73638 0.7976 0.24554 0.0
O52 O 0.8196 0.76489 0.19365 0.0
O53 O 0.79565 0.72592 0.19389 0.0
O54 O 0.8042 0.8025 0.23071 0.0
O55 O 0.79212 0.7802 0.26636 0.0
O56 O 0.78088 0.73926 0.29677 0.0
O57 O 0.80385 0.72878 0.25567 0.0
C58 C 0.73714 0.79726 0.21748 0.0
C59 C 0.79979 0.72564 0.28314 0.0
Dy60 Dy 0.2722 0.73764 0.24264 0.0
C61 C 0.19568 0.80307 0.29429 0.0
C62 C 0.30517 0.70582 0.21218 0.0
Dy63 Dy 0.22858 0.77467 0.26017 0.0
O64 O 0.31331 0.72004 0.2348 0.0
O65 O 0.27899 0.70872 0.20638 0.0
O66 O 0.29489 0.74576 0.28385 0.0
O67 O 0.27426 0.77749 0.26549 0.0
C68 C 0.28785 0.77078 0.28698 0.0
C69 C 0.21257 0.73976 0.21703 0.0
O70 O 0.25293 0.80468 0.23333 0.0
O71 O 0.27632 0.77122 0.21048 0.0
O72 O 0.19123 0.7989 0.26735 0.0
O73 O 0.21853 0.79273 0.30211 0.0
O74 O 0.20379 0.76412 0.21982 0.0
O75 O 0.22688 0.73471 0.23844 0.0
O76 O 0.24894 0.70807 0.27133 0.0
O77 O 0.22361 0.74127 0.29194 0.0
C78 C 0.26886 0.79679 0.21261 0.0
C79 C 0.23195 0.71609 0.29113 0.0
Dy80 Dy 0.28469 0.74219 0.75894 0.0
C81 C 0.19634 0.80251 0.71609 0.0
C82 C 0.3254 0.72077 0.79016 0.0
Dy83 Dy 0.2384 0.77685 0.7405 0.0
O84 O 0.31807 0.71298 0.76448 0.0
O85 O 0.31064 0.74036 0.79866 0.0
O86 O 0.27695 0.71362 0.72151 0.0
O87 O 0.2432 0.7328 0.73899 0.0
C88 C 0.25069 0.71822 0.71857 0.0
C89 C 0.27504 0.80082 0.77941 0.0
O90 O 0.21407 0.75026 0.77029 0.0
O91 O 0.25243 0.73422 0.79297 0.0
O92 O 0.20548 0.80667 0.74183 0.0
O93 O 0.21036 0.78436 0.70332 0.0
O94 O 0.24868 0.80513 0.77846 0.0
O95 O 0.28048 0.78594 0.75869 0.0
O96 O 0.30799 0.7683 0.72722 0.0
O97 O 0.26872 0.78336 0.705 0.0
C98 C 0.22524 0.73798 0.79167 0.0
C99 C 0.29606 0.78027 0.70584 0.0
Dy100 Dy 0.23315 0.25255 0.7767 0.0
C101 C 0.2982 0.22225 0.68565 0.0
C102 C 0.20204 0.26951 0.82019 0.0
Dy103 Dy 0.2692 0.24676 0.7269 0.0
O104 O 0.19819 0.24566 0.80734 0.0
O105 O 0.2231 0.28416 0.80942 0.0
O106 O 0.21429 0.20886 0.76865 0.0
O107 O 0.22588 0.23391 0.73486 0.0
C108 C 0.21662 0.21008 0.74151 0.0
C109 C 0.28613 0.29041 0.75969 0.0
O110 O 0.23821 0.27321 0.70625 0.0
O111 O 0.21687 0.28449 0.74802 0.0
O112 O 0.30689 0.24495 0.69931 0.0
O113 O 0.27312 0.21375 0.69366 0.0
O114 O 0.28768 0.29002 0.73233 0.0
O115 O 0.27699 0.26692 0.76834 0.0
O116 O 0.26507 0.2296 0.79888 0.0
O117 O 0.28526 0.21573 0.75765 0.0
C118 C 0.22038 0.2877 0.72047 0.0
C119 C 0.28229 0.21417 0.78549 0.0
Dy120 Dy 0.78941 0.23336 0.74412 0.0
C121 C 0.7114 0.30255 0.78707 0.0
C122 C 0.8286 0.20488 0.71806 0.0
Dy123 Dy 0.74482 0.26969 0.75836 0.0
O124 O 0.83028 0.21391 0.74401 0.0
O125 O 0.80499 0.21053 0.70661 0.0
O126 O 0.80931 0.24315 0.78695 0.0
O127 O 0.78983 0.2735 0.76562 0.0
C128 C 0.802 0.26811 0.78826 0.0
C129 C 0.7318 0.23688 0.71306 0.0
O130 O 0.76903 0.2989 0.73027 0.0
O131 O 0.79553 0.26579 0.71134 0.0
O132 O 0.70319 0.28672 0.76553 0.0
O133 O 0.73779 0.30057 0.79273 0.0
O134 O 0.72474 0.26194 0.71588 0.0
O135 O 0.74405 0.22994 0.73532 0.0
O136 O 0.76327 0.20284 0.76877 0.0
O137 O 0.73875 0.23611 0.79033 0.0
C138 C 0.78693 0.29088 0.71142 0.0
C139 C 0.74609 0.21049 0.78848 0.0
Dy140 Dy 0.7775 0.75451 0.7876 0.0
C141 C 0.72994 0.8027 0.69653 0.0
C142 C 0.79859 0.72737 0.83109 0.0
Dy143 Dy 0.74528 0.76654 0.7349 0.0
O144 O 0.80725 0.75239 0.82447 0.0
O145 O 0.77845 0.71737 0.81406 0.0
O146 O 0.80455 0.79505 0.78359 0.0
O147 O 0.78882 0.77261 0.74783 0.0
C148 C 0.80216 0.79476 0.75621 0.0
C149 C 0.72075 0.72477 0.76335 0.0
O150 O 0.77485 0.73796 0.71451 0.0
O151 O 0.79219 0.72228 0.75656 0.0
O152 O 0.71989 0.77687 0.69675 0.0
O153 O 0.74854 0.80807 0.71655 0.0
O154 O 0.71784 0.72671 0.73607 0.0
O155 O 0.73374 0.74655 0.77379 0.0
O156 O 0.74687 0.78081 0.8089 0.0
O157 O 0.72745 0.79576 0.76767 0.0
C158 C 0.79021 0.72093 0.72843 0.0
C159 C 0.72993 0.79677 0.79579 0.0
Fe160 Fe 0.01324 0.0365 0.49699 0.0
O161 O 0.98497 0.01364 0.51925 0.0
Fe162 Fe 0.06497 0.99261 0.48409 0.0
Fe163 Fe 0.94456 0.01856 0.51912 0.0
O164 O 0.02543 1.00045 0.484 0.0
O165 O 0.02479 0.99796 0.4847 0.0
O166 O 0.98434 0.01118 0.51995 0.0
Fe167 Fe 0.99702 0.97508 0.50744 0.0
C168 C 0.97797 0.07372 0.5335 0.0
O169 O 0.98654 0.03585 0.4629 0.0
O170 O 0.94606 0.04229 0.48377 0.0
O171 O 0.01359 0.93998 0.49041 0.0
O172 O 0.04925 0.95765 0.46162 0.0
O173 O 0.06677 0.02028 0.45174 0.0
O174 O 0.04447 0.05608 0.47112 0.0
O175 O 0.93106 0.98457 0.49371 0.0
O176 O 0.96994 0.97266 0.47348 0.0
C177 C 0.06071 0.04575 0.45244 0.0
O178 O 0.02428 0.97627 0.5413 0.0
O179 O 0.06337 0.96805 0.51878 0.0
O180 O 0.99697 0.07155 0.51437 0.0
O181 O 0.95915 0.05432 0.54076 0.0
C182 C 0.96172 0.04317 0.46228 0.0
C183 C 0.94344 0.9732 0.47357 0.0
C184 C 0.94975 0.96636 0.55227 0.0
O185 O 0.94303 0.99164 0.55213 0.0
O186 O 0.9661 0.95576 0.53386 0.0
C187 C 0.03085 0.93817 0.46961 0.0
O188 O 0.07898 0.02588 0.51039 0.0
O189 O 0.04026 0.03808 0.53094 0.0
C190 C 0.04877 0.96805 0.54101 0.0
C191 C 0.06675 0.03722 0.5307 0.0
Fe192 Fe 0.50228 0.94515 0.02109 0.0
O193 O 0.50692 0.98533 0.02117 0.0
Fe194 Fe 0.47428 0.00673 1.00202 0.0
Fe195 Fe 0.54102 0.00643 0.00625 0.0
O196 O 0.50346 0.98605 0.02178 0.0
O197 O 0.50832 0.0279 0.98718 0.0
O198 O 0.51175 0.02713 0.9865 0.0
Fe199 Fe 0.51222 0.06798 0.98686 0.0
C200 C 0.55948 0.96168 0.04875 0.0
O201 O 0.53463 0.93968 0.99279 0.0
O202 O 0.54366 0.97941 0.97143 0.0
O203 O 0.48116 0.06179 0.95582 0.0
O204 O 0.44859 0.03163 0.97724 0.0
O205 O 0.47413 0.98034 0.9674 0.0
O206 O 0.47341 0.93996 0.98843 0.0
O207 O 0.57233 0.03258 0.98685 0.0
O208 O 0.54699 0.06318 0.96255 0.0
C209 C 0.46832 0.95435 0.96729 0.0
O210 O 0.47929 0.07312 0.0145 0.0
O211 O 0.47146 0.0338 0.0368 0.0
O212 O 0.53386 0.95069 0.05143 0.0
O213 O 0.5667 0.98113 0.03082 0.0
C214 C 0.54617 0.95356 0.97293 0.0
C215 C 0.56991 0.05169 0.96832 0.0
C216 C 0.54692 0.0592 0.04073 0.0
O217 O 0.54164 0.0331 0.04084 0.0
O218 O 0.54046 0.07353 0.01996 0.0
C219 C 0.45579 0.05003 0.95827 0.0
O220 O 0.44287 0.9806 0.02134 0.0
O221 O 0.46821 0.95057 0.04625 0.0
C222 C 0.46836 0.05949 0.03482 0.0
C223 C 0.44547 0.96253 0.04091 0.0
Fe224 Fe 0.01252 0.53646 1.00101 0.0
O225 O 0.99318 0.50615 0.02295 0.0
Fe226 Fe 0.06593 0.50544 0.96738 0.0
Fe227 Fe 0.95341 0.5046 0.03299 0.0
O228 O 0.02639 0.50645 0.97737 0.0
O229 O 0.02619 0.50415 0.97743 0.0
O230 O 0.99306 0.50377 0.02311 0.0
Fe231 Fe 1.00644 0.47381 0.99902 0.0
C232 C 0.98133 0.56086 0.0515 0.0
O233 O 0.97866 0.53721 0.97417 0.0
O234 O 0.94395 0.53408 0.00511 0.0
O235 O 0.02278 0.44629 0.9708 0.0
O236 O 0.05043 0.47307 0.94058 0.0
O237 O 0.05702 0.53816 0.9432 0.0
O238 O 0.0347 0.56489 0.97507 0.0
O239 O 0.93845 0.47418 0.00351 0.0
O240 O 0.97245 0.47411 0.97211 0.0
C241 C 0.04828 0.56136 0.95183 0.0
O242 O 0.04053 0.47204 0.02566 0.0
O243 O 0.07471 0.47493 0.99413 0.0
O244 O 0.9956 0.5642 0.02852 0.0
O245 O 0.96837 0.53762 0.05916 0.0
C246 C 0.95387 0.54136 0.98143 0.0
C247 C 0.94706 0.46826 0.97898 0.0
C248 C 0.97088 0.44904 0.04842 0.0
O249 O 0.96297 0.47243 0.05761 0.0
O250 O 0.98387 0.44541 0.02481 0.0
C251 C 0.03697 0.44988 0.94778 0.0
O252 O 0.08118 0.53512 0.99774 0.0
O253 O 0.04628 0.53701 0.02804 0.0
C254 C 0.0647 0.4667 0.01743 0.0
C255 C 0.07192 0.54214 0.02174 0.0
Fe256 Fe 0.51137 0.50542 0.96968 0.0
O257 O 0.53292 0.52277 0.00296 0.0
Fe258 Fe 0.44605 0.48528 0.9979 0.0
Fe259 Fe 0.574 0.52396 0.00681 0.0
O260 O 0.48724 0.48667 0.99878 0.0
O261 O 0.48708 0.4866 1.00153 0.0
O262 O 0.53283 0.52257 0.00574 0.0
Fe263 Fe 0.50876 0.50369 0.03479 0.0
C264 C 0.56189 0.47408 0.96636 0.0
O265 O 0.53994 0.52827 0.9435 0.0
O266 O 0.57187 0.55159 0.97478 0.0
O267 O 0.48498 0.53643 0.03581 0.0
O268 O 0.44218 0.51463 0.02927 0.0
O269 O 0.44452 0.5158 0.96869 0.0
O270 O 0.48741 0.53812 0.96908 0.0
O271 O 0.56879 0.55018 0.04057 0.0
O272 O 0.53507 0.52492 0.06607 0.0
C273 C 0.46113 0.5371 0.96399 0.0
O274 O 0.4802 0.4809 0.06109 0.0
O275 O 0.44822 0.45765 0.02988 0.0
O276 O 0.53537 0.47273 0.96881 0.0
O277 O 0.57798 0.49488 0.97525 0.0
C278 C 0.56002 0.54762 0.94994 0.0
C279 C 0.55496 0.54488 0.06344 0.0
C280 C 0.55872 0.4719 0.04037 0.0
O281 O 0.57537 0.49329 0.03608 0.0
O282 O 0.53255 0.47095 0.03479 0.0
C283 C 0.45842 0.53556 0.03755 0.0
O284 O 0.45126 0.45902 0.96425 0.0
O285 O 0.48522 0.48378 0.93854 0.0
C286 C 0.45998 0.46167 0.05473 0.0
C287 C 0.46529 0.46386 0.94139 0.0
Fe288 Fe 0.02297 0.44629 0.50442 0.0
O289 O 0.02498 0.48683 0.50616 0.0
Fe290 Fe 1.0086 0.50639 0.47041 0.0
Fe291 Fe 0.00885 0.5083 0.53784 0.0
O292 O 0.02489 0.48667 0.50267 0.0
O293 O 0.99222 0.52786 0.50205 0.0
O294 O 0.99232 0.52804 0.50564 0.0
Fe295 Fe 0.99479 0.56854 0.50359 0.0
C296 C 0.97192 0.45564 0.54128 0.0
O297 O 0.05127 0.45288 0.53759 0.0
O298 O 0.03043 0.48326 0.56709 0.0
O299 O 0.02546 0.57303 0.47315 0.0
O300 O 0.04428 0.533 0.4706 0.0
O301 O 0.03037 0.48005 0.44188 0.0
O302 O 0.05121 0.45119 0.47215 0.0
O303 O 0.04465 0.53513 0.53913 0.0
O304 O 0.0259 0.57495 0.53419 0.0
C305 C 0.04861 0.46204 0.44765 0.0
O306 O 0.96621 0.56192 0.47065 0.0
O307 O 0.98717 0.53157 0.44115 0.0
O308 O 0.992 0.44143 0.53435 0.0
O309 O 0.97318 0.48152 0.5381 0.0
C310 C 0.04854 0.46491 0.56196 0.0
C311 C 0.04596 0.56122 0.54192 0.0
C312 C 0.9704 0.55397 0.56118 0.0
O313 O 0.98768 0.53495 0.56638 0.0
O314 O 0.9671 0.56459 0.53663 0.0
C315 C 0.04556 0.55871 0.46664 0.0
O316 O 0.97294 0.47939 0.46872 0.0
O317 O 0.99223 0.4398 0.47336 0.0
C318 C 0.96902 0.54992 0.44625 0.0
C319 C 0.97198 0.45333 0.46566 0.0
Fe320 Fe 0.53261 0.94779 0.49468 0.0
O321 O 0.52851 0.98734 0.49876 0.0
Fe322 Fe 0.50566 1.00554 0.4675 0.0
Fe323 Fe 0.51201 1.00449 0.53256 0.0
O324 O 0.52811 0.98724 0.49604 0.0
O325 O 0.48879 0.02237 0.50128 0.0
O326 O 0.48915 0.02243 0.50408 0.0
Fe327 Fe 0.48455 0.0619 0.50526 0.0
C328 C 0.48373 0.9472 0.53564 0.0
O329 O 0.56248 0.95791 0.52566 0.0
O330 O 0.5391 0.98346 0.55785 0.0
O331 O 0.51153 0.07288 0.47312 0.0
O332 O 0.53696 0.03724 0.4666 0.0
O333 O 0.52714 0.98544 0.43569 0.0
O334 O 0.5565 0.95921 0.46062 0.0
O335 O 0.54337 0.03624 0.53246 0.0
O336 O 0.51744 0.07195 0.53383 0.0
C337 C 0.54888 0.97122 0.43802 0.0
O338 O 0.45464 0.05154 0.47423 0.0
O339 O 0.47912 0.02695 0.44207 0.0
O340 O 0.50557 0.93677 0.52677 0.0
O341 O 0.4808 0.97278 0.5342 0.0
C342 C 0.55998 0.96957 0.55031 0.0
C343 C 0.54054 0.06141 0.53836 0.0
C344 C 0.46902 0.03905 0.56223 0.0
O345 O 0.49087 0.02495 0.56442 0.0
O346 O 0.46088 0.05057 0.53951 0.0
C347 C 0.53381 0.06277 0.46503 0.0
O348 O 0.47416 0.97387 0.46695 0.0
O349 O 0.49983 0.93796 0.46602 0.0
C350 C 0.4579 0.04033 0.44951 0.0
C351 C 0.47685 0.94862 0.46131 0.0
H352 H 0.17913 0.1722 0.24047 0.0
H353 H 0.15125 0.14321 0.27342 0.0
H354 H 0.18629 0.19428 0.34324 0.0
H355 H 0.21406 0.22308 0.31064 0.0
H356 H 0.18666 0.13881 0.35308 0.0
H357 H 0.0809 0.16251 0.31574 0.0
H358 H 0.10283 0.14997 0.28875 0.0
H359 H 0.11281 0.18264 0.30621 0.0
C360 C 0.18086 0.17718 0.26285 0.0
C361 C 0.19882 0.19992 0.27292 0.0
C362 C 0.16477 0.16074 0.28165 0.0
C363 C 0.16631 0.16679 0.31085 0.0
C364 C 0.18459 0.18923 0.32086 0.0
H365 H 0.05665 0.10146 0.44515 0.0
H366 H 0.08155 0.13133 0.41092 0.0
C367 C 0.20054 0.20566 0.30215 0.0
C368 C 0.1495 0.14953 0.3312 0.0
H369 H 0.08227 0.12793 0.34999 0.0
C370 C 0.16384 0.13646 0.35238 0.0
C371 C 0.11968 0.14679 0.33064 0.0
C372 C 0.10305 0.16139 0.3093 0.0
C373 C 0.14929 0.1204 0.37261 0.0
C374 C 0.1195 0.11696 0.37154 0.0
C375 C 0.10509 0.13042 0.35071 0.0
C376 C 0.10316 0.09882 0.39147 0.0
C377 C 0.16597 0.1075 0.39521 0.0
C378 C 0.10648 0.07054 0.39151 0.0
C379 C 0.09236 0.05348 0.41094 0.0
C380 C 0.07437 0.06417 0.43092 0.0
C381 C 0.07041 0.09246 0.43029 0.0
C382 C 0.0846 0.10957 0.41069 0.0
H383 H 0.18764 0.11784 0.39765 0.0
H384 H 0.15542 0.10838 0.41586 0.0
H385 H 0.16766 0.08553 0.38937 0.0
H386 H 0.12023 0.06163 0.37656 0.0
H387 H 0.09589 0.03184 0.4104 0.0
H388 H 0.8407 0.21446 0.34392 0.0
H389 H 0.87356 0.18465 0.36485 0.0
H390 H 0.88777 0.14919 0.2826 0.0
H391 H 0.85463 0.1786 0.26166 0.0
H392 H 0.87208 0.11059 0.32097 0.0
H393 H 0.95871 0.18286 0.36521 0.0
H394 H 0.92491 0.19246 0.37561 0.0
H395 H 0.93401 0.19281 0.33893 0.0
C396 C 0.85127 0.20067 0.3303 0.0
C397 C 0.84512 0.19862 0.30129 0.0
C398 C 0.87017 0.18383 0.3422 0.0
C399 C 0.88332 0.165 0.32516 0.0
C400 C 0.87795 0.16373 0.29601 0.0
H401 H 0.99285 0.06228 0.41776 0.0
H402 H 0.9767 0.08847 0.37826 0.0
C403 C 0.85902 0.18047 0.28414 0.0
C404 C 0.89987 0.14446 0.33827 0.0
H405 H 0.95238 0.13812 0.38649 0.0
C406 C 0.89005 0.11653 0.33482 0.0
C407 C 0.92355 0.15222 0.3559 0.0
C408 C 0.9361 0.18172 0.3589 0.0
C409 C 0.90202 0.09632 0.35023 0.0
C410 C 0.92403 0.10442 0.36977 0.0
C411 C 0.93527 0.13205 0.37164 0.0
C412 C 0.93323 0.08542 0.39095 0.0
C413 C 0.89037 0.06662 0.34622 0.0
C414 C 0.914 0.07489 0.41083 0.0
C415 C 0.92308 0.06009 0.43341 0.0
C416 C 0.95163 0.05569 0.43653 0.0
C417 C 0.97069 0.06528 0.41588 0.0
C418 C 0.96156 0.08025 0.39335 0.0
H419 H 0.88077 0.06265 0.32484 0.0
H420 H 0.907 0.05241 0.34939 0.0
H421 H 0.87369 0.06189 0.36185 0.0
H422 H 0.89213 0.07914 0.40959 0.0
H423 H 0.90789 0.05286 0.44888 0.0
H424 H 0.77429 0.8295 0.29959 0.0
H425 H 0.79572 0.8634 0.3344 0.0
H426 H 0.87511 0.86272 0.29223 0.0
H427 H 0.85343 0.82888 0.25734 0.0
H428 H 0.83786 0.85479 0.3704 0.0
H429 H 0.87062 0.94429 0.30517 0.0
H430 H 0.8463 0.91602 0.29229 0.0
H431 H 0.88361 0.91304 0.29225 0.0
C432 C 0.79628 0.83658 0.29792 0.0
C433 C 0.81241 0.82633 0.27635 0.0
C434 C 0.80844 0.85614 0.31755 0.0
C435 C 0.83697 0.86576 0.31581 0.0
C436 C 0.85292 0.85608 0.29363 0.0
H437 H 0.96283 0.94825 0.42642 0.0
H438 H 0.9352 0.92396 0.38819 0.0
C439 C 0.84062 0.83668 0.27383 0.0
C440 C 0.85056 0.88391 0.3386 0.0
H441 H 0.89142 0.94429 0.35157 0.0
C442 C 0.84925 0.87454 0.36633 0.0
C443 C 0.86544 0.90964 0.33322 0.0
C444 C 0.86637 0.92149 0.30415 0.0
C445 C 0.86316 0.88976 0.38871 0.0
C446 C 0.87858 0.91512 0.38321 0.0
C447 C 0.87956 0.92478 0.35561 0.0
C448 C 0.89492 0.9312 0.40572 0.0
C449 C 0.86208 0.8782 0.41792 0.0
C450 C 0.88131 0.9436 0.42801 0.0
C451 C 0.89702 0.95754 0.44998 0.0
C452 C 0.9266 0.95925 0.44998 0.0
C453 C 0.94009 0.94723 0.42722 0.0
C454 C 0.92437 0.93341 0.40527 0.0
H455 H 0.85338 0.85626 0.41771 0.0
H456 H 0.88342 0.87987 0.42786 0.0
H457 H 0.8485 0.89027 0.43128 0.0
H458 H 0.85854 0.9423 0.4285 0.0
H459 H 0.88597 0.9667 0.46706 0.0
H460 H 0.14971 0.83053 0.28254 0.0
H461 H 0.11417 0.84352 0.31602 0.0
H462 H 0.15877 0.80708 0.38331 0.0
H463 H 0.19485 0.79545 0.35043 0.0
H464 H 0.07852 0.81281 0.34932 0.0
H465 H 0.15253 0.88269 0.41565 0.0
H466 H 0.16219 0.86899 0.38192 0.0
H467 H 0.16268 0.84824 0.41274 0.0
C468 C 0.15205 0.82577 0.30458 0.0
C469 C 0.17517 0.81256 0.31411 0.0
C470 C 0.13169 0.83291 0.32358 0.0
C471 C 0.13411 0.82659 0.3522 0.0
C472 C 0.15691 0.81279 0.3615 0.0
H473 H 0.04282 0.88975 0.49161 0.0
H474 H 0.06082 0.85176 0.4645 0.0
C475 C 0.1775 0.8062 0.3427 0.0
C476 C 0.11313 0.83497 0.37246 0.0
H477 H 0.1063 0.87474 0.43159 0.0
C478 C 0.08457 0.82621 0.36743 0.0
C479 C 0.12114 0.85235 0.39613 0.0
C480 C 0.15125 0.86384 0.40183 0.0
C481 C 0.06369 0.83508 0.38508 0.0
C482 C 0.07173 0.85289 0.40829 0.0
C483 C 0.10032 0.8606 0.41402 0.0
C484 C 0.05142 0.86819 0.42382 0.0
C485 C 0.0332 0.82605 0.37844 0.0
C486 C 0.03891 0.88906 0.4098 0.0
C487 C 0.02916 0.91084 0.42518 0.0
C488 C 0.03144 0.91168 0.45467 0.0
C489 C 0.04067 0.88919 0.46882 0.0
C490 C 0.05087 0.86754 0.45339 0.0
H491 H 0.03086 0.80659 0.36554 0.0
H492 H 0.02108 0.82309 0.39808 0.0
H493 H 0.02396 0.84224 0.36622 0.0
H494 H 0.03962 0.8902 0.38704 0.0
H495 H 0.02218 0.92818 0.41401 0.0
H496 H 0.18036 0.80207 0.66067 0.0
H497 H 0.14753 0.83144 0.63881 0.0
H498 H 0.13007 0.86592 0.72065 0.0
H499 H 0.16329 0.8371 0.74251 0.0
H500 H 0.09007 0.8387 0.64719 0.0
H501 H 0.16049 0.933 0.6763 0.0
H502 H 0.17175 0.89881 0.67886 0.0
H503 H 0.149 0.9116 0.70493 0.0
C504 C 0.16929 0.81573 0.67395 0.0
C505 C 0.17453 0.81769 0.70313 0.0
C506 C 0.15053 0.8324 0.66152 0.0
C507 C 0.1368 0.8511 0.67815 0.0
C508 C 0.14089 0.85196 0.70748 0.0
H509 H 0.0197 0.94998 0.58749 0.0
H510 H 0.03762 0.92376 0.6263 0.0
C511 C 0.15978 0.83548 0.71988 0.0
C512 C 0.11977 0.8709 0.66441 0.0
H513 H 0.12015 0.93892 0.64911 0.0
C514 C 0.0963 0.86068 0.64789 0.0
C515 C 0.12818 0.89951 0.66544 0.0
C516 C 0.15383 0.91149 0.68214 0.0
C517 C 0.08169 0.87823 0.63127 0.0
C518 C 0.09067 0.90669 0.63162 0.0
C519 C 0.11327 0.91708 0.6492 0.0
C520 C 0.08002 0.92513 0.61061 0.0
C521 C 0.05792 0.86599 0.61216 0.0
C522 C 0.09826 0.9354 0.58976 0.0
C523 C 0.08824 0.95036 0.5678 0.0
C524 C 0.05975 0.95538 0.5663 0.0
C525 C 0.04176 0.94634 0.58805 0.0
C526 C 0.05187 0.93124 0.6101 0.0
H527 H 0.05604 0.84309 0.61179 0.0
H528 H 0.03777 0.873 0.61961 0.0
H529 H 0.06103 0.87308 0.59028 0.0
H530 H 0.1201 0.93095 0.58991 0.0
H531 H 0.10271 0.95733 0.55156 0.0
H532 H 0.18994 0.15933 0.75188 0.0
H533 H 0.16669 0.12623 0.71708 0.0
H534 H 0.19314 0.18034 0.65007 0.0
H535 H 0.21566 0.21359 0.68459 0.0
H536 H 0.13654 0.16411 0.64819 0.0
H537 H 0.19868 0.07385 0.65915 0.0
H538 H 0.18534 0.08687 0.69158 0.0
H539 H 0.21108 0.1079 0.67257 0.0
C540 C 0.19102 0.16393 0.72969 0.0
C541 C 0.20457 0.18896 0.72089 0.0
C542 C 0.17793 0.14497 0.70984 0.0
C543 C 0.17847 0.15074 0.68099 0.0
C544 C 0.19258 0.17546 0.67223 0.0
H545 H 0.12409 0.04865 0.53426 0.0
H546 H 0.15132 0.07499 0.57176 0.0
C547 C 0.20549 0.1944 0.69197 0.0
C548 C 0.16254 0.13224 0.65996 0.0
H549 H 0.15733 0.06737 0.63024 0.0
C550 C 0.1411 0.14296 0.64424 0.0
C551 C 0.16876 0.10478 0.65471 0.0
C552 C 0.19237 0.09265 0.67018 0.0
C553 C 0.12559 0.12695 0.62344 0.0
C554 C 0.13129 0.09926 0.61865 0.0
C555 C 0.15288 0.08854 0.63419 0.0
C556 C 0.11519 0.08138 0.59724 0.0
C557 C 0.10363 0.14005 0.60638 0.0
C558 C 0.08602 0.07568 0.5996 0.0
C559 C 0.07041 0.06089 0.5782 0.0
C560 C 0.08374 0.05125 0.55412 0.0
C561 C 0.11317 0.05592 0.55243 0.0
C562 C 0.12877 0.07089 0.57384 0.0
H563 H 0.10697 0.16291 0.60754 0.0
H564 H 0.10374 0.13316 0.58389 0.0
H565 H 0.0825 0.13388 0.6148 0.0
H566 H 0.07524 0.0831 0.6178 0.0
H567 H 0.04783 0.05731 0.58041 0.0
H568 H 0.88105 0.19767 0.73842 0.0
H569 H 0.92207 0.18727 0.71089 0.0
H570 H 0.87044 0.18076 0.63506 0.0
H571 H 0.8296 0.19132 0.6623 0.0
H572 H 0.92922 0.14117 0.67735 0.0
H573 H 0.93734 0.23424 0.61323 0.0
H574 H 0.91767 0.23198 0.64547 0.0
H575 H 0.90201 0.21814 0.61269 0.0
C576 C 0.8785 0.19381 0.71589 0.0
C577 C 0.85227 0.19529 0.70238 0.0
C578 C 0.90193 0.18813 0.70023 0.0
C579 C 0.89941 0.18415 0.67089 0.0
C580 C 0.87298 0.18468 0.65758 0.0
H581 H 0.93445 0.10471 0.53416 0.0
H582 H 0.92656 0.14053 0.5692 0.0
C583 C 0.8496 0.1903 0.67319 0.0
C584 C 0.92372 0.1776 0.654 0.0
H585 H 0.95449 0.19302 0.59138 0.0
C586 C 0.93563 0.15293 0.65907 0.0
C587 C 0.93233 0.19332 0.63053 0.0
C588 C 0.92187 0.22106 0.62535 0.0
C589 C 0.95325 0.14181 0.63931 0.0
C590 C 0.95916 0.156 0.61412 0.0
C591 C 0.94983 0.18218 0.61067 0.0
C592 C 0.96788 0.14097 0.58888 0.0
C593 C 0.96289 0.1136 0.64407 0.0
C594 C 0.99434 0.1306 0.58739 0.0
C595 C 0.99893 0.11023 0.56707 0.0
C596 C 0.977 0.10016 0.54844 0.0
C597 C 0.95158 0.11237 0.54837 0.0
C598 C 0.94713 0.13282 0.56831 0.0
H599 H 0.95558 0.105 0.66441 0.0
H600 H 0.95489 0.0991 0.62672 0.0
H601 H 0.98622 0.11483 0.64409 0.0
H602 H 0.01059 0.13678 0.60308 0.0
H603 H 0.0186 0.10076 0.56749 0.0
H604 H 0.83881 0.84048 0.76952 0.0
H605 H 0.86543 0.87057 0.73642 0.0
H606 H 0.82794 0.82142 0.66639 0.0
H607 H 0.80154 0.79157 0.69901 0.0
H608 H 0.90451 0.85583 0.69365 0.0
H609 H 0.81197 0.90069 0.64745 0.0
H610 H 0.81061 0.88301 0.68044 0.0
H611 H 0.80873 0.8637 0.64757 0.0
C612 C 0.83618 0.83626 0.74706 0.0
C613 C 0.8179 0.8138 0.7369 0.0
C614 C 0.85144 0.85337 0.72819 0.0
C615 C 0.84843 0.84844 0.69888 0.0
C616 C 0.83029 0.82593 0.68883 0.0
H617 H 0.95364 0.91076 0.56036 0.0
H618 H 0.93052 0.88198 0.59647 0.0
C619 C 0.81523 0.80884 0.70757 0.0
C620 C 0.86425 0.86652 0.67858 0.0
H621 H 0.85512 0.90879 0.62345 0.0
C622 C 0.89377 0.86756 0.6784 0.0
C623 C 0.85023 0.88192 0.65876 0.0
C624 C 0.81866 0.88255 0.65862 0.0
C625 C 0.90957 0.8832 0.65861 0.0
C626 C 0.89547 0.89797 0.63825 0.0
C627 C 0.86597 0.89726 0.63881 0.0
C628 C 0.91076 0.91527 0.61688 0.0
C629 C 0.94124 0.88413 0.65994 0.0
C630 C 0.90717 0.94347 0.61603 0.0
C631 C 0.92014 0.95988 0.59537 0.0
C632 C 0.93703 0.94855 0.57477 0.0
C633 C 0.94088 0.92028 0.57582 0.0
C634 C 0.92779 0.9038 0.5966 0.0
H635 H 0.94895 0.87739 0.68064 0.0
H636 H 0.94839 0.87008 0.64331 0.0
H637 H 0.95101 0.90524 0.65618 0.0
H638 H 0.89416 0.95285 0.63137 0.0
H639 H 0.91663 0.98152 0.59553 0.0
H640 H 0.29792 0.21797 0.15682 0.0
H641 H 0.3286 0.19015 0.12936 0.0
H642 H 0.34795 0.1464 0.20383 0.0
H643 H 0.31758 0.17454 0.23167 0.0
H644 H 0.39047 0.18382 0.14195 0.0
H645 H 0.32319 0.08449 0.14038 0.0
H646 H 0.3088 0.11721 0.14586 0.0
H647 H 0.32864 0.10321 0.17356 0.0
C648 C 0.30851 0.20236 0.1675 0.0
C649 C 0.30491 0.19868 0.19671 0.0
C650 C 0.32623 0.1864 0.15164 0.0
C651 C 0.34068 0.16578 0.1642 0.0
C652 C 0.337 0.16185 0.19332 0.0
H653 H 0.44644 0.04271 0.08668 0.0
H654 H 0.41708 0.06784 0.1188 0.0
C655 C 0.31957 0.17812 0.20933 0.0
C656 C 0.36005 0.14911 0.14697 0.0
H657 H 0.36673 0.08476 0.11776 0.0
C658 C 0.38521 0.16216 0.13671 0.0
C659 C 0.35377 0.12065 0.14024 0.0
C660 C 0.3271 0.10538 0.15037 0.0
C661 C 0.40404 0.14779 0.12027 0.0
C662 C 0.3973 0.11947 0.1125 0.0
C663 C 0.37226 0.10633 0.12322 0.0
C664 C 0.41546 0.10358 0.0928 0.0
C665 C 0.43148 0.1632 0.11224 0.0
C666 C 0.42432 0.11447 0.06684 0.0
C667 C 0.4415 0.10031 0.04869 0.0
C668 C 0.45016 0.07421 0.05524 0.0
C669 C 0.44061 0.06277 0.08079 0.0
C670 C 0.42362 0.07722 0.09925 0.0
H671 H 0.43802 0.18012 0.12778 0.0
H672 H 0.44864 0.14934 0.11082 0.0
H673 H 0.42877 0.1727 0.09149 0.0
H674 H 0.41771 0.13401 0.06029 0.0
H675 H 0.44769 0.10984 0.0291 0.0
H676 H 0.77604 0.29769 0.16353 0.0
H677 H 0.8074 0.31907 0.12829 0.0
H678 H 0.87924 0.30743 0.1816 0.0
H679 H 0.84843 0.28552 0.21627 0.0
H680 H 0.84034 0.36515 0.13505 0.0
H681 H 0.90751 0.28266 0.10713 0.0
H682 H 0.87512 0.27603 0.12593 0.0
H683 H 0.90728 0.28809 0.14462 0.0
C684 C 0.79855 0.29938 0.16753 0.0
C685 C 0.80972 0.28992 0.1927 0.0
C686 C 0.81643 0.31148 0.14735 0.0
C687 C 0.84572 0.3143 0.15203 0.0
C688 C 0.85683 0.30466 0.17705 0.0
H689 H 0.96192 0.44567 0.10467 0.0
H690 H 0.93277 0.40952 0.12796 0.0
C691 C 0.83908 0.2924 0.19705 0.0
C692 C 0.86459 0.33001 0.13251 0.0
H693 H 0.92774 0.32953 0.09969 0.0
C694 C 0.85916 0.35714 0.1269 0.0
C695 C 0.88898 0.31948 0.1215 0.0
C696 C 0.89487 0.28985 0.12486 0.0
C697 C 0.87823 0.37453 0.112 0.0
C698 C 0.90375 0.36474 0.10315 0.0
C699 C 0.90846 0.33713 0.10717 0.0
C700 C 0.92589 0.3834 0.09045 0.0
C701 C 0.87103 0.40342 0.10624 0.0
C702 C 0.93332 0.37959 0.06223 0.0
C703 C 0.9504 0.40005 0.04896 0.0
C704 C 0.96001 0.42456 0.0638 0.0
C705 C 0.95454 0.42711 0.0927 0.0
C706 C 0.93778 0.40658 0.10596 0.0
H707 H 0.84798 0.40503 0.107 0.0
H708 H 0.8813 0.41784 0.12259 0.0
H709 H 0.87861 0.41013 0.08529 0.0
H710 H 0.92449 0.36167 0.05003 0.0
H711 H 0.95418 0.39763 0.02662 0.0
H712 H 0.71258 0.84321 0.23672 0.0
H713 H 0.68652 0.87496 0.20961 0.0
H714 H 0.69788 0.82713 0.13363 0.0
H715 H 0.72497 0.79604 0.16045 0.0
H716 H 0.70364 0.87908 0.12108 0.0
H717 H 0.6071 0.86455 0.18396 0.0
H718 H 0.63712 0.8777 0.20497 0.0
H719 H 0.63605 0.84377 0.18872 0.0
C720 C 0.7095 0.83935 0.21424 0.0
C721 C 0.72085 0.81675 0.20097 0.0
C722 C 0.69432 0.85754 0.19866 0.0
C723 C 0.68937 0.8534 0.16938 0.0
C724 C 0.70109 0.83103 0.15608 0.0
H725 H 0.55357 0.91134 0.07263 0.0
H726 H 0.58648 0.88846 0.10082 0.0
C727 C 0.7166 0.81308 0.17157 0.0
C728 C 0.67203 0.87207 0.1526 0.0
H729 H 0.60823 0.89918 0.14999 0.0
C730 C 0.68276 0.88343 0.12748 0.0
C731 C 0.64453 0.87785 0.16044 0.0
C732 C 0.63038 0.86512 0.18581 0.0
C733 C 0.66694 0.89986 0.11014 0.0
C734 C 0.63963 0.90596 0.11825 0.0
C735 C 0.62915 0.89495 0.14359 0.0
C736 C 0.62026 0.9211 0.09976 0.0
C737 C 0.67928 0.90956 0.08268 0.0
C738 C 0.62778 0.94755 0.08901 0.0
C739 C 0.60862 0.96099 0.07216 0.0
C740 C 0.58127 0.94854 0.06607 0.0
C741 C 0.5741 0.92214 0.07693 0.0
C742 C 0.59311 0.90877 0.09327 0.0
H743 H 0.69698 0.89764 0.07622 0.0
H744 H 0.66307 0.90775 0.0655 0.0
H745 H 0.6875 0.93153 0.08519 0.0
H746 H 0.64828 0.95806 0.09398 0.0
H747 H 0.61505 0.98124 0.06437 0.0
H748 H 0.22568 0.68661 0.21223 0.0
H749 H 0.20805 0.65146 0.17703 0.0
H750 H 0.15716 0.70968 0.13879 0.0
H751 H 0.17584 0.74531 0.17321 0.0
H752 H 0.15685 0.62889 0.16861 0.0
H753 H 0.19091 0.67838 0.06986 0.0
H754 H 0.20383 0.69135 0.10407 0.0
H755 H 0.1704 0.70014 0.09054 0.0
C756 C 0.21118 0.69208 0.19595 0.0
C757 C 0.20237 0.71879 0.19525 0.0
C758 C 0.201 0.67191 0.17591 0.0
C759 C 0.18163 0.67797 0.15486 0.0
C760 C 0.17271 0.70467 0.15424 0.0
H761 H 0.05689 0.56681 0.0708 0.0
H762 H 0.08597 0.59767 0.10258 0.0
C763 C 0.18318 0.72496 0.1741 0.0
C764 C 0.16934 0.65587 0.13486 0.0
H765 H 0.15451 0.6409 0.06512 0.0
C766 C 0.15667 0.63143 0.14596 0.0
C767 C 0.16954 0.65879 0.10523 0.0
C768 C 0.18469 0.68346 0.09172 0.0
C769 C 0.14325 0.61041 0.12842 0.0
C770 C 0.14166 0.61422 0.09896 0.0
C771 C 0.15537 0.6381 0.08772 0.0
C772 C 0.12447 0.59449 0.07976 0.0
C773 C 0.13094 0.58432 0.14171 0.0
C774 C 0.13619 0.58285 0.05576 0.0
C775 C 0.1194 0.56529 0.03712 0.0
C776 C 0.09057 0.5591 0.04215 0.0
C777 C 0.07905 0.57072 0.06634 0.0
C778 C 0.09573 0.58834 0.08473 0.0
H779 H 0.14219 0.58056 0.16174 0.0
H780 H 0.1086 0.58638 0.14677 0.0
H781 H 0.13187 0.56611 0.12732 0.0
H782 H 0.15829 0.58747 0.05136 0.0
H783 H 0.12893 0.55685 0.01864 0.0
H784 H 0.26878 0.82979 0.82843 0.0
H785 H 0.3052 0.85901 0.85487 0.0
H786 H 0.36602 0.84116 0.79217 0.0
H787 H 0.33018 0.81081 0.76674 0.0
H788 H 0.38846 0.8379 0.84068 0.0
H789 H 0.33761 0.93513 0.84087 0.0
H790 H 0.31505 0.90848 0.85637 0.0
H791 H 0.32417 0.90536 0.81975 0.0
C792 C 0.28995 0.83218 0.82042 0.0
C793 C 0.29673 0.81815 0.79565 0.0
C794 C 0.31066 0.84912 0.83528 0.0
C795 C 0.33822 0.85291 0.82511 0.0
C796 C 0.34491 0.83874 0.80035 0.0
H797 H 0.45617 0.97558 0.91571 0.0
H798 H 0.42811 0.95211 0.87687 0.0
C799 C 0.32442 0.82135 0.78587 0.0
C800 C 0.36049 0.87028 0.84112 0.0
H801 H 0.37447 0.93225 0.87601 0.0
C802 C 0.38553 0.8587 0.84799 0.0
C803 C 0.35717 0.89773 0.85003 0.0
C804 C 0.33217 0.91247 0.84106 0.0
C805 C 0.40659 0.87321 0.86478 0.0
C806 C 0.402 0.89957 0.87599 0.0
C807 C 0.37777 0.91183 0.8678 0.0
C808 C 0.42066 0.91349 0.89826 0.0
C809 C 0.43342 0.85997 0.8705 0.0
C810 C 0.42559 0.89963 0.92312 0.0
C811 C 0.44175 0.91275 0.94503 0.0
C812 C 0.45291 0.94032 0.94289 0.0
C813 C 0.44796 0.9543 0.91797 0.0
C814 C 0.43193 0.94095 0.8958 0.0
H815 H 0.43826 0.84613 0.85259 0.0
H816 H 0.45161 0.87562 0.87419 0.0
H817 H 0.43081 0.84719 0.88945 0.0
H818 H 0.41634 0.87877 0.92592 0.0
H819 H 0.4448 0.90139 0.964 0.0
H820 H 0.15336 0.24296 0.83825 0.0
H821 H 0.11618 0.26362 0.86418 0.0
H822 H 0.16863 0.34041 0.87215 0.0
H823 H 0.20584 0.31996 0.84628 0.0
H824 H 0.13504 0.32234 0.92224 0.0
H825 H 0.07487 0.32373 0.82046 0.0
H826 H 0.08698 0.2917 0.83152 0.0
H827 H 0.112 0.31926 0.82156 0.0
C828 C 0.15715 0.26406 0.84611 0.0
C829 C 0.18223 0.28007 0.8401 0.0
C830 C 0.13593 0.27577 0.8608 0.0
C831 C 0.1397 0.30351 0.86963 0.0
C832 C 0.16547 0.31893 0.86537 0.0
H833 H 0.06692 0.44635 0.89926 0.0
H834 H 0.08457 0.40484 0.8793 0.0
C835 C 0.18664 0.30728 0.85062 0.0
C836 C 0.11613 0.31761 0.88075 0.0
H837 H 0.05909 0.34921 0.85868 0.0
C838 C 0.11796 0.32769 0.90868 0.0
C839 C 0.09415 0.32455 0.86268 0.0
C840 C 0.09173 0.31442 0.83232 0.0
C841 C 0.09914 0.34591 0.91868 0.0
C842 C 0.07802 0.35395 0.90017 0.0
C843 C 0.07524 0.34269 0.87271 0.0
C844 C 0.06187 0.37722 0.90771 0.0
C845 C 0.10317 0.35797 0.94829 0.0
C846 C 0.04208 0.37498 0.92914 0.0
C847 C 0.03193 0.39865 0.94064 0.0
C848 C 0.04166 0.42486 0.93095 0.0
C849 C 0.05931 0.42659 0.90753 0.0
C850 C 0.06936 0.40289 0.89601 0.0
H851 H 0.12229 0.35148 0.95896 0.0
H852 H 0.10484 0.38083 0.94795 0.0
H853 H 0.08464 0.35119 0.96102 0.0
H854 H 0.03592 0.35518 0.93812 0.0
H855 H 0.01799 0.39646 0.95839 0.0
H856 H 0.7566 0.15623 0.7924 0.0
H857 H 0.7335 0.12155 0.82301 0.0
H858 H 0.68409 0.18287 0.85899 0.0
H859 H 0.70695 0.21766 0.82877 0.0
H860 H 0.72415 0.12938 0.8919 0.0
H861 H 0.63131 0.11188 0.81894 0.0
H862 H 0.66607 0.12327 0.80685 0.0
H863 H 0.64574 0.147 0.8252 0.0
C864 C 0.74098 0.16242 0.80699 0.0
C865 C 0.73353 0.18973 0.80801 0.0
C866 C 0.72791 0.14258 0.82449 0.0
C867 C 0.70716 0.14975 0.84314 0.0
C868 C 0.70013 0.17704 0.84469 0.0
H869 H 0.58194 0.10424 0.95308 0.0
H870 H 0.61936 0.12268 0.92289 0.0
C871 C 0.7132 0.19687 0.82735 0.0
C872 C 0.69143 0.12869 0.86005 0.0
H873 H 0.62602 0.09497 0.86517 0.0
C874 C 0.70293 0.12124 0.88587 0.0
C875 C 0.66386 0.11816 0.85194 0.0
C876 C 0.65092 0.12525 0.82414 0.0
C877 C 0.68671 0.10484 0.90467 0.0
C878 C 0.65854 0.09577 0.89725 0.0
C879 C 0.64772 0.10187 0.87069 0.0
C880 C 0.63842 0.0843 0.91821 0.0
C881 C 0.69897 0.0988 0.93307 0.0
C882 C 0.63719 0.05663 0.92617 0.0
C883 C 0.61564 0.0459 0.94372 0.0
C884 C 0.59504 0.06273 0.95305 0.0
C885 C 0.59724 0.09064 0.94588 0.0
C886 C 0.61866 0.10127 0.9287 0.0
H887 H 0.72143 0.10689 0.93546 0.0
H888 H 0.68681 0.10817 0.94997 0.0
H889 H 0.69721 0.0762 0.93608 0.0
H890 H 0.65226 0.04322 0.9181 0.0
H891 H 0.61434 0.02431 0.94888 0.0
H892 H 0.84687 0.74215 0.86128 0.0
H893 H 0.87401 0.71149 0.88886 0.0
H894 H 0.80871 0.64519 0.87427 0.0
H895 H 0.78167 0.67552 0.84653 0.0
H896 H 0.86027 0.67681 0.93687 0.0
H897 H 0.88121 0.61854 0.83838 0.0
H898 H 0.86824 0.6522 0.83832 0.0
H899 H 0.84464 0.62215 0.84442 0.0
C900 C 0.83813 0.72118 0.86446 0.0
C901 C 0.81245 0.71097 0.8516 0.0
C902 C 0.8536 0.70377 0.88012 0.0
C903 C 0.84347 0.67609 0.88297 0.0
C904 C 0.81696 0.66643 0.87178 0.0
H905 H 0.89858 0.54983 0.98663 0.0
H906 H 0.87292 0.58327 0.96195 0.0
C907 C 0.80155 0.68376 0.85609 0.0
C908 C 0.86132 0.65674 0.89599 0.0
H909 H 0.89443 0.59908 0.88149 0.0
C910 C 0.8679 0.65988 0.92483 0.0
C911 C 0.8716 0.63512 0.87991 0.0
C912 C 0.86633 0.63186 0.84848 0.0
C913 C 0.88381 0.64117 0.93836 0.0
C914 C 0.89284 0.61872 0.92253 0.0
C915 C 0.8871 0.61618 0.8935 0.0
C916 C 0.90784 0.59732 0.93589 0.0
C917 C 0.89088 0.64557 0.96938 0.0
C918 C 0.93543 0.59333 0.92824 0.0
C919 C 0.95013 0.57404 0.9421 0.0
C920 C 0.93732 0.55855 0.96376 0.0
C921 C 0.90914 0.56168 0.97027 0.0
C922 C 0.8945 0.58088 0.95637 0.0
H923 H 0.88897 0.66721 0.97651 0.0
H924 H 0.87606 0.63197 0.98174 0.0
H925 H 0.91258 0.64034 0.97423 0.0
H926 H 0.94585 0.60571 0.91217 0.0
H927 H 0.97182 0.5721 0.93661 0.0
H928 H 0.17844 0.26635 0.13717 0.0
H929 H 0.1529 0.29423 0.10484 0.0
H930 H 0.19834 0.36814 0.14019 0.0
H931 H 0.22437 0.34053 0.17163 0.0
H932 H 0.11823 0.33268 0.11923 0.0
H933 H 0.20569 0.38082 0.05734 0.0
H934 H 0.20969 0.3517 0.07929 0.0
H935 H 0.21251 0.38616 0.09442 0.0
C936 C 0.18327 0.28851 0.13755 0.0
C937 C 0.20336 0.30138 0.15667 0.0
C938 C 0.16868 0.30436 0.11922 0.0
C939 C 0.1741 0.33317 0.11988 0.0
C940 C 0.19441 0.34591 0.13881 0.0
H941 H 0.06392 0.4565 0.07395 0.0
H942 H 0.08958 0.42241 0.09842 0.0
C943 C 0.20912 0.33012 0.15687 0.0
C944 C 0.15728 0.35031 0.10234 0.0
H945 H 0.16332 0.4041 0.05784 0.0
C946 C 0.12798 0.34804 0.10543 0.0
C947 C 0.17008 0.37005 0.08417 0.0
C948 C 0.20119 0.37212 0.07838 0.0
C949 C 0.11116 0.36573 0.09151 0.0
C950 C 0.12421 0.38667 0.07483 0.0
C951 C 0.15341 0.3883 0.07104 0.0
C952 C 0.10811 0.40684 0.0605 0.0
C953 C 0.07965 0.36165 0.09465 0.0
C954 C 0.11075 0.40985 0.03136 0.0
C955 C 0.09692 0.42969 0.01765 0.0
C956 C 0.07991 0.44672 0.03277 0.0
C957 C 0.07694 0.44357 0.06191 0.0
C958 C 0.09131 0.42397 0.07578 0.0
H959 H 0.07269 0.34025 0.10065 0.0
H960 H 0.07329 0.3758 0.11159 0.0
H961 H 0.0685 0.36616 0.07481 0.0
H962 H 0.12356 0.39681 0.01919 0.0
H963 H 0.09919 0.43132 0.99505 0.0
H964 H 0.17418 0.75454 0.80473 0.0
H965 H 0.13995 0.73328 0.83701 0.0
H966 H 0.19793 0.67397 0.85902 0.0
H967 H 0.23274 0.6958 0.82733 0.0
H968 H 0.1154 0.68319 0.83132 0.0
H969 H 0.16944 0.69331 0.93545 0.0
H970 H 0.18213 0.71259 0.90551 0.0
H971 H 0.19056 0.67763 0.9098 0.0
C972 C 0.17984 0.73722 0.81679 0.0
C973 C 0.20607 0.72669 0.81342 0.0
C974 C 0.16026 0.72515 0.83527 0.0
C975 C 0.16643 0.70221 0.85065 0.0
C976 C 0.19295 0.69209 0.84792 0.0
H977 H 0.06616 0.56222 0.89763 0.0
H978 H 0.0901 0.60092 0.87382 0.0
C979 C 0.21276 0.70444 0.82967 0.0
C980 C 0.14411 0.68718 0.86711 0.0
H981 H 0.13112 0.65732 0.93035 0.0
C982 C 0.11866 0.67798 0.85315 0.0
C983 C 0.14804 0.68085 0.89574 0.0
C984 C 0.17392 0.69189 0.91257 0.0
C985 C 0.09778 0.66122 0.86651 0.0
C986 C 0.10279 0.6529 0.89431 0.0
C987 C 0.12743 0.6635 0.9089 0.0
C988 C 0.08453 0.63077 0.90738 0.0
C989 C 0.07082 0.65212 0.85048 0.0
C990 C 0.07323 0.6347 0.93416 0.0
C991 C 0.05959 0.61242 0.94803 0.0
C992 C 0.05745 0.58584 0.93542 0.0
C993 C 0.06755 0.58237 0.90801 0.0
C994 C 0.08106 0.60457 0.89422 0.0
H995 H 0.06586 0.66758 0.83477 0.0
H996 H 0.0733 0.6325 0.8388 0.0
H997 H 0.05279 0.64877 0.86487 0.0
H998 H 0.07585 0.65478 0.94471 0.0
H999 H 0.05217 0.61576 0.96918 0.0
H1000 H 0.2758 0.1998 0.8409 0.0
H1001 H 0.30304 0.16962 0.8688 0.0
H1002 H 0.354 0.15499 0.79684 0.0
H1003 H 0.32664 0.18506 0.76861 0.0
H1004 H 0.31326 0.11167 0.8586 0.0
H1005 H 0.41196 0.18154 0.86114 0.0
H1006 H 0.37818 0.19328 0.8523 0.0
H1007 H 0.39615 0.17375 0.82685 0.0
C1008 C 0.29278 0.19022 0.83086 0.0
C1009 C 0.29893 0.19517 0.80233 0.0
C1010 C 0.30836 0.1728 0.84694 0.0
C1011 C 0.33089 0.16004 0.83521 0.0
C1012 C 0.33699 0.16472 0.80666 0.0
H1013 H 0.46245 0.06599 0.90396 0.0
H1014 H 0.43091 0.09023 0.87454 0.0
C1015 C 0.32119 0.18193 0.79043 0.0
C1016 C 0.34805 0.14215 0.85291 0.0
H1017 H 0.41394 0.1382 0.88149 0.0
C1018 C 0.33529 0.11748 0.86362 0.0
C1019 C 0.37684 0.14951 0.85963 0.0
C1020 C 0.39168 0.17604 0.84963 0.0
C1021 C 0.35054 0.09982 0.88009 0.0
C1022 C 0.37938 0.10726 0.88702 0.0
C1023 C 0.39198 0.13211 0.87639 0.0
C1024 C 0.39723 0.08963 0.90456 0.0
C1025 C 0.33569 0.07288 0.88901 0.0
C1026 C 0.38905 0.08021 0.93141 0.0
C1027 C 0.40708 0.0656 0.94824 0.0
C1028 C 0.43405 0.06049 0.93895 0.0
C1029 C 0.44186 0.06938 0.9119 0.0
C1030 C 0.42379 0.08352 0.89501 0.0
H1031 H 0.31731 0.06631 0.87497 0.0
H1032 H 0.3501 0.05624 0.88892 0.0
H1033 H 0.32779 0.07547 0.91069 0.0
H1034 H 0.36916 0.08507 0.93995 0.0
H1035 H 0.40053 0.05969 0.96915 0.0
H1036 H 0.79911 0.32369 0.78678 0.0
H1037 H 0.82101 0.35895 0.81993 0.0
H1038 H 0.85071 0.29543 0.87132 0.0
H1039 H 0.82952 0.26012 0.83777 0.0
H1040 H 0.81505 0.37052 0.87559 0.0
H1041 H 0.923 0.34192 0.85626 0.0
H1042 H 0.89313 0.32851 0.83471 0.0
H1043 H 0.8998 0.31379 0.86831 0.0
C1044 C 0.81022 0.31726 0.80522 0.0
C1045 C 0.81297 0.2892 0.80955 0.0
C1046 C 0.82269 0.33742 0.82416 0.0
C1047 C 0.83805 0.32988 0.84779 0.0
C1048 C 0.83963 0.30178 0.85283 0.0
H1049 H 0.89792 0.43728 0.99034 0.0
H1050 H 0.87006 0.40502 0.9583 0.0
C1051 C 0.82738 0.28161 0.83376 0.0
C1052 C 0.85301 0.35144 0.86667 0.0
H1053 H 0.91798 0.3742 0.89367 0.0
C1054 C 0.83757 0.37139 0.87951 0.0
C1055 C 0.88248 0.3529 0.87136 0.0
C1056 C 0.90064 0.33333 0.85672 0.0
C1057 C 0.85074 0.3925 0.89722 0.0
C1058 C 0.88006 0.39329 0.90274 0.0
C1059 C 0.89549 0.37351 0.88963 0.0
C1060 C 0.89543 0.41449 0.92178 0.0
C1061 C 0.83322 0.41405 0.90928 0.0
C1062 C 0.91916 0.43041 0.91209 0.0
C1063 C 0.93537 0.44855 0.93046 0.0
C1064 C 0.92813 0.45128 0.95895 0.0
C1065 C 0.90388 0.43594 0.96845 0.0
C1066 C 0.88783 0.41754 0.9501 0.0
H1067 H 0.81368 0.41544 0.89654 0.0
H1068 H 0.82696 0.4084 0.93095 0.0
H1069 H 0.84523 0.43468 0.91039 0.0
H1070 H 0.92548 0.42841 0.89036 0.0
H1071 H 0.95389 0.46007 0.92243 0.0
H1072 H 0.69824 0.83857 0.7784 0.0
H1073 H 0.66859 0.86684 0.80674 0.0
H1074 H 0.68877 0.8225 0.88068 0.0
H1075 H 0.71924 0.79518 0.85279 0.0
H1076 H 0.62285 0.85883 0.83461 0.0
H1077 H 0.70286 0.89652 0.9151 0.0
H1078 H 0.71189 0.87789 0.88375 0.0
H1079 H 0.69836 0.85964 0.91399 0.0
C1080 C 0.69666 0.835 0.80078 0.0
C1081 C 0.71173 0.81459 0.81312 0.0
C1082 C 0.67948 0.85125 0.81711 0.0
C1083 C 0.67656 0.84772 0.84643 0.0
C1084 C 0.69112 0.82684 0.85856 0.0
H1085 H 0.56259 0.90096 0.9755 0.0
H1086 H 0.59352 0.87736 0.94437 0.0
C1087 C 0.70856 0.81088 0.84235 0.0
C1088 C 0.65787 0.86514 0.86402 0.0
H1089 H 0.65502 0.90232 0.92655 0.0
C1090 C 0.6302 0.86853 0.85452 0.0
C1091 C 0.66688 0.87836 0.89021 0.0
C1092 C 0.6967 0.87819 0.9012 0.0
C1093 C 0.61155 0.88363 0.8705 0.0
C1094 C 0.62031 0.89587 0.89702 0.0
C1095 C 0.64797 0.8929 0.9064 0.0
C1096 C 0.60077 0.91086 0.91571 0.0
C1097 C 0.58216 0.88594 0.85929 0.0
C1098 C 0.59418 0.93794 0.91042 0.0
C1099 C 0.57645 0.95185 0.92856 0.0
C1100 C 0.56445 0.93899 0.95245 0.0
C1101 C 0.57101 0.91177 0.9574 0.0
C1102 C 0.58892 0.8981 0.93953 0.0
H1103 H 0.57774 0.87397 0.83921 0.0
H1104 H 0.56656 0.87848 0.87512 0.0
H1105 H 0.57924 0.90791 0.85563 0.0
H1106 H 0.60302 0.94851 0.89236 0.0
H1107 H 0.57224 0.97273 0.9239 0.0
H1108 H 0.81216 0.68937 0.15732 0.0
H1109 H 0.84859 0.66892 0.13027 0.0
H1110 H 0.89983 0.74658 0.1342 0.0
H1111 H 0.86341 0.76725 0.16125 0.0
H1112 H 0.87988 0.68697 0.07795 0.0
H1113 H 0.94388 0.68767 0.17757 0.0
H1114 H 0.90657 0.69125 0.17786 0.0
H1115 H 0.93049 0.71921 0.16674 0.0
C1116 C 0.83091 0.70222 0.15186 0.0
C1117 C 0.83522 0.72972 0.16153 0.0
C1118 C 0.85162 0.69057 0.13643 0.0
C1119 C 0.87685 0.70628 0.13063 0.0
C1120 C 0.88048 0.73422 0.13871 0.0
H1121 H 0.99778 0.6144 0.03889 0.0
H1122 H 0.97892 0.65544 0.05868 0.0
C1123 C 0.8597 0.74593 0.15407 0.0
C1124 C 0.90019 0.69235 0.11877 0.0
H1125 H 0.95855 0.66188 0.13904 0.0
C1126 C 0.89753 0.682 0.09096 0.0
C1127 C 0.92294 0.68594 0.1361 0.0
C1128 C 0.9263 0.69643 0.16629 0.0
C1129 C 0.91633 0.66402 0.08039 0.0
C1130 C 0.93823 0.65646 0.09823 0.0
C1131 C 0.94179 0.668 0.12553 0.0
C1132 C 0.95459 0.63342 0.09031 0.0
C1133 C 0.91152 0.65174 0.05095 0.0
C1134 C 0.94829 0.6079 0.10278 0.0
C1135 C 0.9589 0.58435 0.09157 0.0
C1136 C 0.97595 0.58607 0.06769 0.0
C1137 C 0.98439 0.61222 0.05705 0.0
C1138 C 0.97365 0.63574 0.06825 0.0
H1139 H 0.89191 0.65782 0.04089 0.0
H1140 H 0.92949 0.65874 0.03757 0.0
H1141 H 0.9103 0.62889 0.05142 0.0
H1142 H 0.93367 0.6059 0.11999 0.0
H1143 H 0.95228 0.56465 0.10053 0.0
H1144 H 0.25527 0.8499 0.20694 0.0
H1145 H 0.27522 0.88417 0.17427 0.0
H1146 H 0.32803 0.82479 0.13996 0.0
H1147 H 0.30777 0.79032 0.17188 0.0
H1148 H 0.32776 0.90598 0.17157 0.0
H1149 H 0.29902 0.8552 0.06862 0.0
H1150 H 0.28324 0.84349 0.10102 0.0
H1151 H 0.31668 0.83251 0.09048 0.0
C1152 C 0.27088 0.84402 0.19219 0.0
C1153 C 0.27987 0.81731 0.19202 0.0
C1154 C 0.28223 0.86365 0.17349 0.0
C1155 C 0.30274 0.85695 0.15423 0.0
C1156 C 0.31162 0.83026 0.15397 0.0
H1157 H 0.44636 0.9411 0.09308 0.0
H1158 H 0.40701 0.9209 0.11959 0.0
C1159 C 0.30017 0.81059 0.17248 0.0
C1160 C 0.31674 0.87834 0.13609 0.0
H1161 H 0.34016 0.8887 0.06923 0.0
C1162 C 0.32993 0.90245 0.14907 0.0
C1163 C 0.31908 0.87424 0.10658 0.0
C1164 C 0.30345 0.85008 0.09085 0.0
C1165 C 0.3472 0.92138 0.13381 0.0
C1166 C 0.35191 0.91574 0.10495 0.0
C1167 C 0.3369 0.89284 0.09145 0.0
C1168 C 0.37507 0.93092 0.08962 0.0
C1169 C 0.36095 0.94681 0.14899 0.0
C1170 C 0.37034 0.94319 0.06367 0.0
C1171 C 0.39307 0.95479 0.04818 0.0
C1172 C 0.42084 0.95378 0.05824 0.0
C1173 C 0.42528 0.94212 0.08458 0.0
C1174 C 0.40272 0.93078 0.09998 0.0
H1175 H 0.34772 0.9534 0.16653 0.0
H1176 H 0.3814 0.9421 0.15829 0.0
H1177 H 0.36484 0.96418 0.13445 0.0
H1178 H 0.34915 0.94327 0.05516 0.0
H1179 H 0.38898 0.96347 0.02789 0.0
H1180 H 0.7503 0.18608 0.17811 0.0
H1181 H 0.714 0.15803 0.15018 0.0
H1182 H 0.65212 0.17547 0.21189 0.0
H1183 H 0.68785 0.20457 0.23889 0.0
H1184 H 0.68192 0.11269 0.16138 0.0
H1185 H 0.61301 0.19612 0.14208 0.0
H1186 H 0.64784 0.20282 0.15736 0.0
H1187 H 0.61872 0.19087 0.17889 0.0
C1188 C 0.72886 0.18407 0.18546 0.0
C1189 C 0.72173 0.19767 0.21038 0.0
C1190 C 0.7082 0.168 0.16963 0.0
C1191 C 0.68021 0.16505 0.17869 0.0
C1192 C 0.67332 0.1781 0.20402 0.0
H1193 H 0.55907 0.0401 0.09342 0.0
H1194 H 0.5892 0.06428 0.13041 0.0
C1195 C 0.6938 0.19461 0.2195 0.0
C1196 C 0.6583 0.14829 0.16163 0.0
H1197 H 0.59484 0.15094 0.12817 0.0
C1198 C 0.66287 0.12103 0.15406 0.0
C1199 C 0.63351 0.15927 0.15204 0.0
C1200 C 0.62808 0.18894 0.15776 0.0
C1201 C 0.64368 0.10464 0.13657 0.0
C1202 C 0.61876 0.11554 0.12726 0.0
C1203 C 0.61383 0.14252 0.13556 0.0
C1204 C 0.59917 0.10084 0.10616 0.0
C1205 C 0.65097 0.07636 0.12723 0.0
C1206 C 0.59389 0.11375 0.08082 0.0
C1207 C 0.5763 0.10039 0.06014 0.0
C1208 C 0.56371 0.07357 0.0641 0.0
C1209 C 0.56858 0.06069 0.08969 0.0
C1210 C 0.58597 0.07438 0.11072 0.0
H1211 H 0.67361 0.07374 0.13092 0.0
H1212 H 0.6385 0.06056 0.13939 0.0
H1213 H 0.64593 0.0724 0.10447 0.0
H1214 H 0.60384 0.13411 0.07676 0.0
H1215 H 0.57322 0.11095 0.04067 0.0
H1216 H 0.68579 0.68039 0.74419 0.0
H1217 H 0.65481 0.64912 0.77215 0.0
H1218 H 0.68607 0.69229 0.8484 0.0
H1219 H 0.71685 0.72368 0.82064 0.0
H1220 H 0.66738 0.614 0.81669 0.0
H1221 H 0.60018 0.69453 0.85261 0.0
H1222 H 0.62396 0.69931 0.82358 0.0
H1223 H 0.63707 0.70336 0.85934 0.0
C1224 C 0.68611 0.68313 0.76693 0.0
C1225 C 0.70356 0.70462 0.78022 0.0
C1226 C 0.66841 0.66526 0.78286 0.0
C1227 C 0.66772 0.6687 0.81231 0.0
C1228 C 0.6858 0.68961 0.82566 0.0
H1229 H 0.59371 0.59572 0.95676 0.0
H1230 H 0.61684 0.62362 0.92071 0.0
C1231 C 0.70352 0.70743 0.80978 0.0
C1232 C 0.64812 0.65053 0.8292 0.0
H1233 H 0.59494 0.65191 0.87639 0.0
C1234 C 0.65129 0.62217 0.82949 0.0
C1235 C 0.627 0.66122 0.84571 0.0
C1236 C 0.62159 0.69122 0.84516 0.0
C1237 C 0.63487 0.60447 0.84698 0.0
C1238 C 0.61441 0.61537 0.86425 0.0
C1239 C 0.61061 0.64356 0.86317 0.0
C1240 C 0.59869 0.59856 0.88557 0.0
C1241 C 0.64046 0.57453 0.84785 0.0
C1242 C 0.58013 0.5754 0.87785 0.0
C1243 C 0.56669 0.55918 0.89861 0.0
C1244 C 0.57166 0.56586 0.92743 0.0
C1245 C 0.58953 0.58965 0.93486 0.0
C1246 C 0.60278 0.60577 0.91423 0.0
H1247 H 0.66031 0.57052 0.83722 0.0
H1248 H 0.6417 0.56778 0.86998 0.0
H1249 H 0.62289 0.56174 0.83699 0.0
H1250 H 0.57623 0.56973 0.85582 0.0
H1251 H 0.55304 0.54108 0.89209 0.0
H1252 H 0.35987 0.68187 0.7743 0.0
H1253 H 0.38744 0.65472 0.80531 0.0
H1254 H 0.36107 0.70049 0.87771 0.0
H1255 H 0.33423 0.72828 0.84671 0.0
H1256 H 0.41613 0.68908 0.88271 0.0
H1257 H 0.34717 0.59497 0.85151 0.0
H1258 H 0.36446 0.61144 0.82232 0.0
H1259 H 0.33919 0.629 0.84194 0.0
C1260 C 0.36033 0.68637 0.79679 0.0
C1261 C 0.34473 0.70688 0.80822 0.0
C1262 C 0.37593 0.67078 0.81447 0.0
C1263 C 0.37569 0.67516 0.84383 0.0
C1264 C 0.36136 0.69668 0.85512 0.0
H1265 H 0.4068 0.54999 0.963 0.0
H1266 H 0.38705 0.58606 0.93627 0.0
C1267 C 0.34603 0.71249 0.83742 0.0
C1268 C 0.38885 0.65627 0.86288 0.0
H1269 H 0.38673 0.58876 0.88054 0.0
C1270 C 0.40973 0.66714 0.88232 0.0
C1271 C 0.37999 0.62776 0.86269 0.0
C1272 C 0.35628 0.6151 0.84371 0.0
C1273 C 0.42228 0.65013 0.90135 0.0
C1274 C 0.41412 0.62147 0.90041 0.0
C1275 C 0.39307 0.61072 0.88113 0.0
C1276 C 0.42686 0.602 0.91916 0.0
C1277 C 0.44367 0.6631 0.92265 0.0
C1278 C 0.45588 0.59927 0.91876 0.0
C1279 C 0.46727 0.57885 0.93429 0.0
C1280 C 0.44972 0.56048 0.95 0.0
C1281 C 0.4208 0.56369 0.95089 0.0
C1282 C 0.4095 0.58431 0.93568 0.0
H1283 H 0.44131 0.68538 0.92621 0.0
H1284 H 0.44181 0.6527 0.94317 0.0
H1285 H 0.46513 0.66117 0.91463 0.0
H1286 H 0.46957 0.61224 0.90565 0.0
H1287 H 0.48962 0.57674 0.93303 0.0
H1288 H 0.30893 0.34044 0.74359 0.0
H1289 H 0.34365 0.3719 0.76962 0.0
H1290 H 0.33794 0.31841 0.8407 0.0
H1291 H 0.30319 0.28673 0.81472 0.0
H1292 H 0.34091 0.39928 0.8239 0.0
H1293 H 0.42287 0.32552 0.81972 0.0
H1294 H 0.39177 0.3219 0.7972 0.0
H1295 H 0.38973 0.31176 0.83331 0.0
C1296 C 0.31484 0.33555 0.7649 0.0
C1297 C 0.30361 0.31106 0.77709 0.0
C1298 C 0.33468 0.3535 0.77968 0.0
C1299 C 0.34374 0.34712 0.80677 0.0
C1300 C 0.33155 0.32336 0.81955 0.0
H1301 H 0.44622 0.41001 0.94204 0.0
H1302 H 0.42075 0.38291 0.90442 0.0
C1303 C 0.31157 0.30544 0.80483 0.0
C1304 C 0.36631 0.36508 0.82149 0.0
H1305 H 0.43246 0.36518 0.8499 0.0
C1306 C 0.36109 0.39204 0.82933 0.0
C1307 C 0.39266 0.35555 0.82813 0.0
C1308 C 0.39981 0.32719 0.81896 0.0
C1309 C 0.38098 0.40926 0.84519 0.0
C1310 C 0.40697 0.39935 0.85281 0.0
C1311 C 0.4126 0.37277 0.84388 0.0
C1312 C 0.42661 0.41459 0.8734 0.0
C1313 C 0.3734 0.43731 0.85501 0.0
C1314 C 0.43958 0.44096 0.86801 0.0
C1315 C 0.4543 0.45662 0.88965 0.0
C1316 C 0.45601 0.44601 0.91682 0.0
C1317 C 0.44489 0.41882 0.92137 0.0
C1318 C 0.4304 0.40327 0.89987 0.0
H1319 H 0.35082 0.44 0.85108 0.0
H1320 H 0.37811 0.44064 0.87792 0.0
H1321 H 0.38615 0.45346 0.84356 0.0
H1322 H 0.43729 0.44983 0.8475 0.0
H1323 H 0.4627 0.47752 0.88562 0.0
H1324 H 0.72745 0.33794 0.83053 0.0
H1325 H 0.69731 0.36478 0.8595 0.0
H1326 H 0.62461 0.33163 0.81034 0.0
H1327 H 0.65473 0.30465 0.7811 0.0
H1328 H 0.65826 0.4042 0.83739 0.0
H1329 H 0.60673 0.31654 0.89651 0.0
H1330 H 0.64008 0.3145 0.87946 0.0
H1331 H 0.60826 0.31313 0.85867 0.0
C1332 C 0.70505 0.33642 0.82587 0.0
C1333 C 0.6933 0.31928 0.80369 0.0
C1334 C 0.68792 0.3517 0.8424 0.0
C1335 C 0.65884 0.34985 0.83712 0.0
C1336 C 0.64703 0.33298 0.81481 0.0
H1337 H 0.53465 0.43387 0.93185 0.0
H1338 H 0.55635 0.40221 0.89972 0.0
C1339 C 0.66421 0.31776 0.79813 0.0
C1340 C 0.64114 0.3661 0.85489 0.0
H1341 H 0.59485 0.36108 0.90893 0.0
C1342 C 0.64421 0.39483 0.8529 0.0
C1343 C 0.62278 0.35361 0.87485 0.0
C1344 C 0.6192 0.32275 0.87777 0.0
C1345 C 0.62973 0.41158 0.87085 0.0
C1346 C 0.6123 0.39919 0.89167 0.0
C1347 C 0.60842 0.37039 0.89302 0.0
C1348 C 0.599 0.41604 0.91294 0.0
C1349 C 0.63333 0.44241 0.86748 0.0
C1350 C 0.61588 0.43336 0.93166 0.0
C1351 C 0.60366 0.45145 0.9499 0.0
C1352 C 0.57432 0.45234 0.94988 0.0
C1353 C 0.55734 0.43373 0.93229 0.0
C1354 C 0.56964 0.41568 0.9139 0.0
H1355 H 0.64079 0.44793 0.84612 0.0
H1356 H 0.61328 0.4517 0.87122 0.0
H1357 H 0.64924 0.45166 0.88312 0.0
H1358 H 0.63858 0.43339 0.93159 0.0
H1359 H 0.61729 0.46523 0.96349 0.0
H1360 H 0.67138 0.34373 0.22542 0.0
H1361 H 0.64219 0.36691 0.19245 0.0
H1362 H 0.63476 0.29448 0.1376 0.0
H1363 H 0.66438 0.27128 0.17043 0.0
H1364 H 0.65236 0.34125 0.11014 0.0
H1365 H 0.5587 0.35889 0.17278 0.0
H1366 H 0.59075 0.37054 0.19145 0.0
H1367 H 0.58312 0.33444 0.18266 0.0
C1368 C 0.66307 0.33258 0.20659 0.0
C1369 C 0.67011 0.3058 0.20037 0.0
C1370 C 0.64626 0.34576 0.18787 0.0
C1371 C 0.63602 0.33226 0.16278 0.0
C1372 C 0.64232 0.30515 0.15695 0.0
H1373 H 0.52967 0.42293 0.05332 0.0
H1374 H 0.54704 0.38528 0.07958 0.0
C1375 C 0.65919 0.29196 0.17569 0.0
C1376 C 0.62125 0.34757 0.1415 0.0
H1377 H 0.56787 0.38884 0.13359 0.0
C1378 C 0.63358 0.35126 0.11505 0.0
C1379 C 0.59655 0.36027 0.14779 0.0
C1380 C 0.58134 0.3556 0.17512 0.0
C1381 C 0.62278 0.36864 0.09532 0.0
C1382 C 0.59939 0.38303 0.10252 0.0
C1383 C 0.58606 0.37806 0.12828 0.0
C1384 C 0.58952 0.40463 0.08452 0.0
C1385 C 0.63678 0.37175 0.06716 0.0
C1386 C 0.6077 0.42794 0.07858 0.0
C1387 C 0.59792 0.44947 0.06353 0.0
C1388 C 0.56964 0.44822 0.05441 0.0
C1389 C 0.55158 0.42459 0.06003 0.0
C1390 C 0.56143 0.40304 0.07503 0.0
H1391 H 0.64778 0.35332 0.06143 0.0
H1392 H 0.62128 0.37506 0.05015 0.0
H1393 H 0.65272 0.38981 0.06833 0.0
H1394 H 0.6293 0.42985 0.08629 0.0
H1395 H 0.61237 0.46738 0.05969 0.0
H1396 H 0.72236 0.71874 0.18714 0.0
H1397 H 0.68918 0.68554 0.16091 0.0
H1398 H 0.67504 0.63894 0.23614 0.0
H1399 H 0.70818 0.6718 0.26247 0.0
H1400 H 0.68788 0.61546 0.16538 0.0
H1401 H 0.59669 0.67213 0.19771 0.0
H1402 H 0.63082 0.69032 0.19239 0.0
H1403 H 0.62553 0.66863 0.22208 0.0
C1404 C 0.71252 0.70117 0.19794 0.0
C1405 C 0.71765 0.69793 0.22686 0.0
C1406 C 0.69359 0.68232 0.18299 0.0
C1407 C 0.67962 0.66006 0.19677 0.0
C1408 C 0.68561 0.65611 0.22528 0.0
H1409 H 0.56515 0.52778 0.11678 0.0
H1410 H 0.59285 0.55465 0.15399 0.0
C1411 C 0.70454 0.67487 0.24022 0.0
C1412 C 0.65776 0.64168 0.18169 0.0
H1413 H 0.58729 0.63396 0.16637 0.0
C1414 C 0.66584 0.61922 0.1658 0.0
C1415 C 0.62913 0.64683 0.18247 0.0
C1416 C 0.61976 0.67076 0.19953 0.0
C1417 C 0.64593 0.60204 0.14992 0.0
C1418 C 0.61732 0.60751 0.15019 0.0
C1419 C 0.6092 0.6297 0.16655 0.0
C1420 C 0.5964 0.59244 0.13083 0.0
C1421 C 0.65567 0.57884 0.132 0.0
C1422 C 0.58834 0.60523 0.10627 0.0
C1423 C 0.57281 0.59001 0.08514 0.0
C1424 C 0.56478 0.56184 0.08839 0.0
C1425 C 0.57087 0.54954 0.11396 0.0
C1426 C 0.58682 0.56477 0.13505 0.0
H1427 H 0.67895 0.57885 0.13228 0.0
H1428 H 0.64647 0.55882 0.13989 0.0
H1429 H 0.64823 0.58041 0.10984 0.0
H1430 H 0.59553 0.62657 0.10271 0.0
H1431 H 0.56832 0.59992 0.06559 0.0
H1432 H 0.28959 0.67313 0.16644 0.0
H1433 H 0.32022 0.64836 0.13594 0.0
H1434 H 0.39236 0.67972 0.18699 0.0
H1435 H 0.3617 0.704 0.21799 0.0
H1436 H 0.36514 0.66994 0.10458 0.0
H1437 H 0.39925 0.59702 0.18381 0.0
H1438 H 0.36994 0.61729 0.18939 0.0
H1439 H 0.40538 0.63281 0.19409 0.0
C1440 C 0.31196 0.67451 0.17125 0.0
C1441 C 0.32338 0.69022 0.19456 0.0
C1442 C 0.32939 0.66049 0.15381 0.0
C1443 C 0.35844 0.66205 0.15944 0.0
C1444 C 0.36991 0.67789 0.18266 0.0
H1445 H 0.48529 0.57613 0.07164 0.0
H1446 H 0.46353 0.61119 0.09943 0.0
C1447 C 0.35244 0.69175 0.20025 0.0
C1448 C 0.37662 0.64723 0.14074 0.0
H1449 H 0.41953 0.59505 0.13892 0.0
C1450 C 0.37717 0.65365 0.11207 0.0
C1451 C 0.3923 0.6261 0.15072 0.0
C1452 C 0.39159 0.61767 0.18112 0.0
C1453 C 0.39266 0.63908 0.09293 0.0
C1454 C 0.40776 0.61759 0.10282 0.0
C1455 C 0.40798 0.61174 0.13159 0.0
C1456 C 0.42139 0.59915 0.08343 0.0
C1457 C 0.39254 0.64651 0.06226 0.0
C1458 C 0.40477 0.58111 0.06518 0.0
C1459 C 0.41701 0.56097 0.04949 0.0
C1460 C 0.44606 0.5586 0.05187 0.0
C1461 C 0.46284 0.57748 0.06935 0.0
C1462 C 0.45051 0.59749 0.08522 0.0
H1463 H 0.38606 0.66759 0.05932 0.0
H1464 H 0.41366 0.64522 0.05309 0.0
H1465 H 0.37739 0.63173 0.05034 0.0
H1466 H 0.38218 0.58191 0.06391 0.0
H1467 H 0.4036 0.54685 0.03605 0.0
H1468 H 0.29834 0.29064 0.18622 0.0
H1469 H 0.3285 0.32207 0.15783 0.0
H1470 H 0.35933 0.36682 0.23337 0.0
H1471 H 0.32942 0.33524 0.26192 0.0
H1472 H 0.33012 0.37918 0.15335 0.0
H1473 H 0.43211 0.34904 0.19509 0.0
H1474 H 0.39911 0.32889 0.20063 0.0
H1475 H 0.40835 0.35996 0.22121 0.0
C1476 C 0.3115 0.30721 0.19678 0.0
C1477 C 0.31168 0.31036 0.22632 0.0
C1478 C 0.32875 0.32514 0.18053 0.0
C1479 C 0.3466 0.3465 0.19349 0.0
C1480 C 0.34624 0.35013 0.22294 0.0
H1481 H 0.46356 0.47049 0.11255 0.0
H1482 H 0.43721 0.44379 0.14843 0.0
C1483 C 0.32897 0.33219 0.23921 0.0
C1484 C 0.36527 0.36505 0.17599 0.0
H1485 H 0.43426 0.38476 0.16221 0.0
C1486 C 0.35287 0.38045 0.15538 0.0
C1487 C 0.395 0.36686 0.17875 0.0
C1488 C 0.40954 0.35017 0.19994 0.0
C1489 C 0.36933 0.39734 0.13728 0.0
C1490 C 0.39904 0.39856 0.13948 0.0
C1491 C 0.4115 0.3838 0.16059 0.0
C1492 C 0.41721 0.41348 0.11863 0.0
C1493 C 0.35475 0.4137 0.11581 0.0
C1494 C 0.41556 0.40467 0.09026 0.0
C1495 C 0.43052 0.41971 0.06988 0.0
C1496 C 0.44766 0.44397 0.07733 0.0
C1497 C 0.45056 0.45196 0.10605 0.0
C1498 C 0.43545 0.43679 0.12656 0.0
H1499 H 0.33275 0.41649 0.12176 0.0
H1500 H 0.36627 0.43431 0.11328 0.0
H1501 H 0.35409 0.40252 0.0951 0.0
H1502 H 0.40213 0.3864 0.08375 0.0
H1503 H 0.42804 0.4126 0.04808 0.0
H1504 H 0.79433 0.71207 0.67054 0.0
H1505 H 0.8241 0.68158 0.64518 0.0
H1506 H 0.8558 0.6545 0.72429 0.0
H1507 H 0.82637 0.68505 0.74971 0.0
H1508 H 0.89861 0.6645 0.689 0.0
H1509 H 0.81506 0.59939 0.63033 0.0
H1510 H 0.81406 0.63546 0.62415 0.0
H1511 H 0.80742 0.6226 0.65886 0.0
C1512 C 0.8074 0.69947 0.68265 0.0
C1513 C 0.80752 0.70121 0.71242 0.0
C1514 C 0.82445 0.68176 0.668 0.0
C1515 C 0.84224 0.66503 0.68253 0.0
C1516 C 0.84241 0.66685 0.71224 0.0
H1517 H 0.93147 0.53109 0.59955 0.0
H1518 H 0.90085 0.55631 0.63065 0.0
C1519 C 0.82534 0.68445 0.72688 0.0
C1520 C 0.86132 0.64649 0.66703 0.0
H1521 H 0.86222 0.59475 0.61631 0.0
C1522 C 0.89046 0.64921 0.67322 0.0
C1523 C 0.85119 0.62593 0.64657 0.0
C1524 C 0.8202 0.6204 0.63973 0.0
C1525 C 0.90945 0.63292 0.65924 0.0
C1526 C 0.89948 0.61316 0.63797 0.0
C1527 C 0.87025 0.60982 0.63235 0.0
C1528 C 0.91918 0.59707 0.62044 0.0
C1529 C 0.94018 0.63694 0.66768 0.0
C1530 C 0.94005 0.61109 0.60423 0.0
C1531 C 0.95747 0.59672 0.58659 0.0
C1532 C 0.95503 0.56765 0.58447 0.0
C1533 C 0.93458 0.55337 0.6011 0.0
C1534 C 0.91678 0.5679 0.61867 0.0
H1535 H 0.94322 0.64592 0.6894 0.0
H1536 H 0.95001 0.61717 0.66657 0.0
H1537 H 0.95135 0.65143 0.65308 0.0
H1538 H 0.94231 0.6334 0.60442 0.0
H1539 H 0.97251 0.60854 0.57378 0.0
H1540 H 0.3535 0.78374 0.70344 0.0
H1541 H 0.38345 0.81052 0.67089 0.0
H1542 H 0.30992 0.83439 0.62723 0.0
H1543 H 0.27968 0.80749 0.65948 0.0
H1544 H 0.35478 0.81981 0.59128 0.0
H1545 H 0.39035 0.89614 0.67645 0.0
H1546 H 0.39492 0.86094 0.68431 0.0
H1547 H 0.36007 0.87149 0.67977 0.0
C1548 C 0.34363 0.79439 0.68673 0.0
C1549 C 0.31417 0.79373 0.68427 0.0
C1550 C 0.3608 0.80977 0.66824 0.0
C1551 C 0.34882 0.82475 0.64705 0.0
C1552 C 0.3195 0.82306 0.64361 0.0
H1553 H 0.43636 0.96205 0.56172 0.0
H1554 H 0.40151 0.93216 0.58647 0.0
C1555 C 0.30228 0.80771 0.6621 0.0
C1556 C 0.36687 0.84323 0.62935 0.0
H1557 H 0.41327 0.90079 0.63269 0.0
C1558 C 0.36754 0.83757 0.60024 0.0
C1559 C 0.38301 0.86662 0.64114 0.0
C1560 C 0.38196 0.8744 0.67209 0.0
C1561 C 0.38462 0.85439 0.58263 0.0
C1562 C 0.40157 0.87719 0.59462 0.0
C1563 C 0.40033 0.88319 0.62362 0.0
C1564 C 0.42135 0.89477 0.5777 0.0
C1565 C 0.38423 0.84779 0.55138 0.0
C1566 C 0.44399 0.88357 0.56461 0.0
C1567 C 0.46396 0.90054 0.55049 0.0
C1568 C 0.46174 0.92909 0.54937 0.0
C1569 C 0.43873 0.94017 0.56217 0.0
C1570 C 0.41879 0.92315 0.57631 0.0
H1571 H 0.36492 0.83463 0.54465 0.0
H1572 H 0.38555 0.86691 0.53905 0.0
H1573 H 0.40267 0.83641 0.5462 0.0
H1574 H 0.44663 0.8618 0.56593 0.0
H1575 H 0.48138 0.8913 0.54086 0.0
H1576 H 0.22372 0.3058 0.66538 0.0
H1577 H 0.19521 0.33845 0.6421 0.0
H1578 H 0.14791 0.34649 0.71797 0.0
H1579 H 0.17674 0.31481 0.74146 0.0
H1580 H 0.14185 0.33812 0.62808 0.0
H1581 H 0.16349 0.42593 0.70374 0.0
H1582 H 0.18269 0.39579 0.7049 0.0
H1583 H 0.14857 0.3957 0.72064 0.0
C1584 C 0.2074 0.31466 0.67722 0.0
C1585 C 0.20297 0.3076 0.70556 0.0
C1586 C 0.19096 0.33344 0.66381 0.0
C1587 C 0.1695 0.34585 0.67823 0.0
C1588 C 0.16475 0.33831 0.70634 0.0
H1589 H 0.0359 0.44793 0.61648 0.0
H1590 H 0.0646 0.42008 0.6465 0.0
C1591 C 0.18128 0.31979 0.71979 0.0
C1592 C 0.15161 0.36579 0.66371 0.0
H1593 H 0.12636 0.42962 0.67016 0.0
C1594 C 0.13869 0.35813 0.63739 0.0
C1595 C 0.14704 0.39219 0.67544 0.0
C1596 C 0.16141 0.40303 0.70258 0.0
C1597 C 0.12148 0.37558 0.62293 0.0
C1598 C 0.11682 0.4018 0.63474 0.0
C1599 C 0.1295 0.40951 0.66108 0.0
C1600 C 0.10038 0.42188 0.61894 0.0
C1601 C 0.10818 0.36574 0.59498 0.0
C1602 C 0.11114 0.43342 0.5941 0.0
C1603 C 0.09501 0.44958 0.57727 0.0
C1604 C 0.06743 0.45495 0.58457 0.0
C1605 C 0.05717 0.44483 0.61038 0.0
C1606 C 0.07352 0.42856 0.62741 0.0
H1607 H 0.10863 0.34315 0.59156 0.0
H1608 H 0.08602 0.37088 0.59356 0.0
H1609 H 0.1199 0.37627 0.57772 0.0
H1610 H 0.1318 0.42907 0.58709 0.0
H1611 H 0.10368 0.45677 0.55753 0.0
H1612 H 0.73323 0.18067 0.70971 0.0
H1613 H 0.705 0.14808 0.6777 0.0
H1614 H 0.67046 0.21602 0.6373 0.0
H1615 H 0.69854 0.24854 0.66884 0.0
H1616 H 0.63068 0.17061 0.6625 0.0
H1617 H 0.70893 0.13472 0.58727 0.0
H1618 H 0.7179 0.13759 0.62438 0.0
H1619 H 0.71404 0.16812 0.60501 0.0
C1620 C 0.71999 0.18861 0.69365 0.0
C1621 C 0.71792 0.21712 0.69188 0.0
C1622 C 0.70394 0.17002 0.6754 0.0
C1623 C 0.68572 0.17972 0.65516 0.0
C1624 C 0.68445 0.20817 0.65275 0.0
H1625 H 0.54629 0.11736 0.54679 0.0
H1626 H 0.58264 0.145 0.57454 0.0
C1627 C 0.70051 0.2267 0.6708 0.0
C1628 C 0.66606 0.16044 0.63809 0.0
H1629 H 0.66168 0.11666 0.58047 0.0
C1630 C 0.63743 0.15871 0.64462 0.0
C1631 C 0.67505 0.14483 0.615 0.0
C1632 C 0.70563 0.14629 0.60724 0.0
C1633 C 0.61741 0.14191 0.62851 0.0
C1634 C 0.62617 0.12702 0.60469 0.0
C1635 C 0.65497 0.12824 0.59856 0.0
C1636 C 0.60558 0.11045 0.58582 0.0
C1637 C 0.58709 0.14003 0.63741 0.0
C1638 C 0.60713 0.082 0.58175 0.0
C1639 C 0.58652 0.06612 0.56555 0.0
C1640 C 0.56393 0.07844 0.55316 0.0
C1641 C 0.56314 0.10713 0.55634 0.0
C1642 C 0.58384 0.12296 0.57233 0.0
H1643 H 0.58527 0.14575 0.66009 0.0
H1644 H 0.57558 0.15455 0.625 0.0
H1645 H 0.57667 0.11891 0.63362 0.0
H1646 H 0.62384 0.07194 0.59178 0.0
H1647 H 0.58783 0.04409 0.56351 0.0
H1648 H 0.82377 0.29575 0.29202 0.0
H1649 H 0.85649 0.32267 0.32475 0.0
H1650 H 0.78681 0.35842 0.3637 0.0
H1651 H 0.75401 0.33138 0.33129 0.0
H1652 H 0.86347 0.38057 0.33077 0.0
H1653 H 0.83126 0.33164 0.43109 0.0
H1654 H 0.8219 0.31588 0.39695 0.0
H1655 H 0.80299 0.34342 0.41052 0.0
C1656 C 0.81545 0.30918 0.30773 0.0
C1657 C 0.78641 0.31154 0.30916 0.0
C1658 C 0.83413 0.32455 0.32635 0.0
C1659 C 0.82401 0.34232 0.34679 0.0
C1660 C 0.79498 0.34448 0.3484 0.0
H1661 H 0.92863 0.47451 0.43702 0.0
H1662 H 0.89078 0.44872 0.40916 0.0
C1663 C 0.77631 0.32914 0.32979 0.0
C1664 C 0.84395 0.35943 0.36565 0.0
H1665 H 0.86354 0.37157 0.43471 0.0
C1666 C 0.86351 0.37866 0.3535 0.0
C1667 C 0.84395 0.35672 0.39525 0.0
C1668 C 0.82408 0.33565 0.4093 0.0
C1669 C 0.88318 0.39528 0.37019 0.0
C1670 C 0.88295 0.39284 0.39983 0.0
C1671 C 0.86338 0.3736 0.41199 0.0
C1672 C 0.90422 0.40863 0.41836 0.0
C1673 C 0.90455 0.41475 0.35594 0.0
C1674 C 0.92362 0.39456 0.4335 0.0
C1675 C 0.94511 0.40914 0.44946 0.0
C1676 C 0.9476 0.43815 0.4507 0.0
C1677 C 0.92741 0.4522 0.4364 0.0
C1678 C 0.90588 0.43753 0.42036 0.0
H1679 H 0.90552 0.41008 0.33294 0.0
H1680 H 0.89874 0.43616 0.35879 0.0
H1681 H 0.92584 0.41377 0.36547 0.0
H1682 H 0.92259 0.37226 0.43234 0.0
H1683 H 0.9601 0.39761 0.46041 0.0
H1684 H 0.73146 0.82943 0.3507 0.0
H1685 H 0.70109 0.86431 0.36711 0.0
H1686 H 0.62912 0.81733 0.328 0.0
H1687 H 0.65914 0.78224 0.31222 0.0
H1688 H 0.67055 0.89524 0.33182 0.0
H1689 H 0.59954 0.83646 0.40471 0.0
H1690 H 0.63205 0.82422 0.39295 0.0
H1691 H 0.6011 0.82014 0.37052 0.0
C1692 C 0.70902 0.82617 0.34643 0.0
C1693 C 0.69756 0.80311 0.33038 0.0
C1694 C 0.69176 0.84619 0.35554 0.0
C1695 C 0.66286 0.84334 0.34883 0.0
C1696 C 0.65127 0.81972 0.33382 0.0
H1697 H 0.5285 0.94429 0.39032 0.0
H1698 H 0.55638 0.9162 0.35994 0.0
C1699 C 0.66845 0.79968 0.32483 0.0
C1700 C 0.64511 0.86581 0.35589 0.0
H1701 H 0.5867 0.88026 0.39172 0.0
C1702 C 0.65222 0.89201 0.34495 0.0
C1703 C 0.6211 0.86145 0.37279 0.0
C1704 C 0.6131 0.83413 0.38615 0.0
C1705 C 0.63597 0.91404 0.35063 0.0
C1706 C 0.61213 0.90969 0.36771 0.0
C1707 C 0.60475 0.88338 0.37819 0.0
C1708 C 0.59649 0.93255 0.37823 0.0
C1709 C 0.64445 0.94178 0.33846 0.0
C1710 C 0.60998 0.95213 0.39729 0.0
C1711 C 0.59412 0.96805 0.41457 0.0
C1712 C 0.56463 0.96469 0.41288 0.0
C1713 C 0.55126 0.94756 0.39155 0.0
C1714 C 0.56714 0.93136 0.3744 0.0
H1715 H 0.6576 0.93986 0.31953 0.0
H1716 H 0.62568 0.95245 0.33266 0.0
H1717 H 0.65699 0.95481 0.3545 0.0
H1718 H 0.63252 0.95306 0.40093 0.0
H1719 H 0.60476 0.98088 0.43122 0.0
H1720 H 0.23674 0.6602 0.29375 0.0
H1721 H 0.21274 0.62787 0.32632 0.0
H1722 H 0.17531 0.69518 0.36737 0.0
H1723 H 0.19944 0.72741 0.33577 0.0
H1724 H 0.19388 0.65898 0.40526 0.0
H1725 H 0.12884 0.60344 0.31939 0.0
H1726 H 0.16632 0.6042 0.31588 0.0
H1727 H 0.14954 0.63563 0.31385 0.0
C1728 C 0.22362 0.6681 0.30992 0.0
C1729 C 0.2198 0.69636 0.31191 0.0
C1730 C 0.20978 0.64959 0.32838 0.0
C1731 C 0.19183 0.65907 0.34896 0.0
C1732 C 0.18895 0.68737 0.35162 0.0
H1733 H 0.0601 0.61385 0.46062 0.0
H1734 H 0.09909 0.63548 0.43387 0.0
C1735 C 0.20274 0.70578 0.33336 0.0
C1736 C 0.17493 0.63989 0.36723 0.0
H1737 H 0.11903 0.59079 0.36581 0.0
C1738 C 0.17775 0.64381 0.39663 0.0
C1739 C 0.15387 0.62011 0.35596 0.0
C1740 C 0.14919 0.61561 0.32457 0.0
C1741 C 0.1595 0.62918 0.41499 0.0
C1742 C 0.13774 0.61031 0.40364 0.0
C1743 C 0.13575 0.60535 0.37438 0.0
C1744 C 0.1155 0.5971 0.42153 0.0
C1745 C 0.16329 0.63438 0.44636 0.0
C1746 C 0.11171 0.56833 0.42329 0.0
C1747 C 0.08944 0.55587 0.43861 0.0
C1748 C 0.07029 0.57198 0.45208 0.0
C1749 C 0.0744 0.60084 0.45049 0.0
C1750 C 0.09679 0.61325 0.43537 0.0
H1751 H 0.18495 0.64339 0.45196 0.0
H1752 H 0.14837 0.64918 0.4535 0.0
H1753 H 0.15881 0.61503 0.45799 0.0
H1754 H 0.12581 0.55552 0.41257 0.0
H1755 H 0.08686 0.53359 0.43928 0.0
H1756 H 0.26907 0.16684 0.32806 0.0
H1757 H 0.29411 0.13117 0.35009 0.0
H1758 H 0.36652 0.18978 0.36489 0.0
H1759 H 0.34152 0.22569 0.34283 0.0
H1760 H 0.34694 0.11525 0.32832 0.0
H1761 H 0.35351 0.15006 0.44103 0.0
H1762 H 0.32805 0.16157 0.41644 0.0
H1763 H 0.36404 0.17595 0.41603 0.0
C1764 C 0.29011 0.17227 0.33658 0.0
C1765 C 0.30349 0.19891 0.33377 0.0
C1766 C 0.30437 0.15188 0.34898 0.0
C1767 C 0.33207 0.15794 0.35894 0.0
C1768 C 0.34501 0.18488 0.35746 0.0
H1769 H 0.46689 0.06096 0.39744 0.0
H1770 H 0.43272 0.08477 0.37033 0.0
C1771 C 0.33075 0.20534 0.34498 0.0
C1772 C 0.34799 0.13566 0.36924 0.0
H1773 H 0.38073 0.11378 0.42762 0.0
C1774 C 0.3542 0.11471 0.35007 0.0
C1775 C 0.35716 0.13513 0.3976 0.0
C1776 C 0.35022 0.15673 0.4191 0.0
C1777 C 0.36997 0.09335 0.35854 0.0
C1778 C 0.37971 0.09322 0.38675 0.0
C1779 C 0.37307 0.11396 0.40597 0.0
C1780 C 0.3977 0.07251 0.3971 0.0
C1781 C 0.37607 0.07114 0.3374 0.0
C1782 C 0.38891 0.05678 0.42018 0.0
C1783 C 0.40836 0.04356 0.43573 0.0
C1784 C 0.43676 0.04574 0.42822 0.0
C1785 C 0.44498 0.05882 0.40332 0.0
C1786 C 0.4255 0.07239 0.38787 0.0
H1787 H 0.36171 0.07056 0.31868 0.0
H1788 H 0.39799 0.07523 0.3301 0.0
H1789 H 0.37413 0.0506 0.34715 0.0
H1790 H 0.36753 0.05669 0.42754 0.0
H1791 H 0.40169 0.03349 0.45492 0.0
H1792 H 0.69161 0.797 0.65278 0.0
H1793 H 0.66701 0.83394 0.63208 0.0
H1794 H 0.71469 0.89373 0.68696 0.0
H1795 H 0.74039 0.85745 0.70614 0.0
H1796 H 0.63354 0.86473 0.65853 0.0
H1797 H 0.72036 0.93392 0.61591 0.0
H1798 H 0.72549 0.89981 0.62758 0.0
H1799 H 0.72509 0.92809 0.65275 0.0
C1800 C 0.69732 0.81816 0.65971 0.0
C1801 C 0.71788 0.82447 0.68086 0.0
C1802 C 0.6832 0.83919 0.6481 0.0
C1803 C 0.68921 0.86665 0.65782 0.0
C1804 C 0.71022 0.8729 0.67854 0.0
H1805 H 0.55757 0.9725 0.60833 0.0
H1806 H 0.59128 0.95483 0.64146 0.0
C1807 C 0.72477 0.85206 0.68961 0.0
C1808 C 0.67204 0.88833 0.64782 0.0
H1809 H 0.67553 0.95105 0.61723 0.0
C1810 C 0.64269 0.88361 0.64943 0.0
C1811 C 0.68413 0.91312 0.63641 0.0
C1812 C 0.71547 0.91894 0.63281 0.0
C1813 C 0.62494 0.90218 0.63843 0.0
C1814 C 0.637 0.9268 0.62663 0.0
C1815 C 0.66639 0.93232 0.62663 0.0
C1816 C 0.62001 0.94387 0.60903 0.0
C1817 C 0.59358 0.89424 0.63786 0.0
C1818 C 0.62629 0.94571 0.58038 0.0
C1819 C 0.60758 0.95619 0.56173 0.0
C1820 C 0.58198 0.96476 0.57127 0.0
C1821 C 0.57693 0.96557 0.60037 0.0
C1822 C 0.59602 0.95529 0.61923 0.0
H1823 H 0.58831 0.87243 0.64354 0.0
H1824 H 0.58337 0.90747 0.65324 0.0
H1825 H 0.58444 0.89721 0.6166 0.0
H1826 H 0.6448 0.93731 0.57202 0.0
H1827 H 0.61251 0.95604 0.53951 0.0
H1828 H 0.66572 0.23362 0.30667 0.0
H1829 H 0.63597 0.20641 0.33895 0.0
H1830 H 0.70955 0.1775 0.3781 0.0
H1831 H 0.73964 0.2048 0.34604 0.0
H1832 H 0.63598 0.14825 0.34089 0.0
H1833 H 0.66109 0.19956 0.44551 0.0
H1834 H 0.66831 0.21657 0.41268 0.0
H1835 H 0.6908 0.19166 0.42498 0.0
C1836 C 0.67568 0.22188 0.32243 0.0
C1837 C 0.70508 0.22127 0.32365 0.0
C1838 C 0.65862 0.20633 0.34084 0.0
C1839 C 0.67061 0.1901 0.36092 0.0
C1840 C 0.69995 0.19022 0.36297 0.0
H1841 H 0.58143 0.04847 0.43893 0.0
H1842 H 0.61651 0.07901 0.41513 0.0
C1843 C 0.71709 0.20575 0.34452 0.0
C1844 C 0.65224 0.17123 0.37792 0.0
H1845 H 0.63212 0.15735 0.44514 0.0
C1846 C 0.63512 0.15019 0.36369 0.0
C1847 C 0.65122 0.17398 0.40759 0.0
C1848 C 0.66864 0.19677 0.42369 0.0
C1849 C 0.61686 0.13178 0.37838 0.0
C1850 C 0.61603 0.13431 0.40809 0.0
C1851 C 0.63311 0.15537 0.42236 0.0
C1852 C 0.59636 0.11611 0.42444 0.0
C1853 C 0.59811 0.11017 0.36196 0.0
C1854 C 0.57396 0.12708 0.43815 0.0
C1855 C 0.55391 0.10977 0.45174 0.0
C1856 C 0.55599 0.08116 0.45194 0.0
C1857 C 0.57908 0.07037 0.439 0.0
C1858 C 0.59911 0.08774 0.42535 0.0
H1859 H 0.59731 0.11449 0.33909 0.0
H1860 H 0.60631 0.08976 0.36442 0.0
H1861 H 0.57636 0.10885 0.37009 0.0
H1862 H 0.57159 0.14896 0.4377 0.0
H1863 H 0.53656 0.11881 0.46174 0.0
H1864 H 0.79387 0.70575 0.33733 0.0
H1865 H 0.82245 0.67359 0.36144 0.0
H1866 H 0.87427 0.66923 0.28834 0.0
H1867 H 0.8459 0.70104 0.26413 0.0
H1868 H 0.83379 0.61788 0.34405 0.0
H1869 H 0.93271 0.68706 0.3533 0.0
H1870 H 0.89897 0.69979 0.34632 0.0
H1871 H 0.91693 0.68327 0.31858 0.0
C1872 C 0.81141 0.69809 0.32637 0.0
C1873 C 0.81739 0.70632 0.29864 0.0
C1874 C 0.82779 0.67955 0.34022 0.0
C1875 C 0.85096 0.669 0.32702 0.0
C1876 C 0.85694 0.67721 0.29938 0.0
H1877 H 0.98138 0.56467 0.39096 0.0
H1878 H 0.95271 0.59114 0.35957 0.0
C1879 C 0.84045 0.69544 0.28543 0.0
C1880 C 0.86848 0.64907 0.34177 0.0
H1881 H 0.93496 0.6412 0.36741 0.0
C1882 C 0.85589 0.62308 0.34919 0.0
C1883 C 0.89756 0.65532 0.34824 0.0
C1884 C 0.91242 0.68292 0.34144 0.0
C1885 C 0.87132 0.60342 0.36258 0.0
C1886 C 0.90027 0.60994 0.36986 0.0
C1887 C 0.91295 0.63581 0.36201 0.0
C1888 C 0.91705 0.59116 0.38726 0.0
C1889 C 0.85639 0.57552 0.36815 0.0
C1890 C 0.90686 0.58168 0.41324 0.0
C1891 C 0.92301 0.56628 0.43085 0.0
C1892 C 0.95025 0.55985 0.42351 0.0
C1893 C 0.96031 0.56851 0.39712 0.0
C1894 C 0.94398 0.58407 0.37931 0.0
H1895 H 0.83903 0.5701 0.35253 0.0
H1896 H 0.87101 0.55907 0.36741 0.0
H1897 H 0.84691 0.576 0.38933 0.0
H1898 H 0.88676 0.58723 0.42067 0.0
H1899 H 0.91458 0.56047 0.45114 0.0
H1900 H 0.28491 0.82673 0.29108 0.0
H1901 H 0.31285 0.85967 0.32297 0.0
H1902 H 0.35026 0.79243 0.36173 0.0
H1903 H 0.32254 0.75956 0.33023 0.0
H1904 H 0.3206 0.85847 0.38972 0.0
H1905 H 0.41531 0.84735 0.32503 0.0
H1906 H 0.37994 0.83996 0.31096 0.0
H1907 H 0.39471 0.81605 0.33379 0.0
C1908 C 0.29881 0.81901 0.30669 0.0
C1909 C 0.3018 0.79063 0.308 0.0
C1910 C 0.31468 0.8378 0.32486 0.0
C1911 C 0.33373 0.82841 0.34447 0.0
C1912 C 0.33577 0.80004 0.34661 0.0
H1913 H 0.47224 0.89291 0.45118 0.0
H1914 H 0.43554 0.86515 0.42411 0.0
C1915 C 0.31993 0.78131 0.32858 0.0
C1916 C 0.35303 0.84806 0.36148 0.0
H1917 H 0.42229 0.87197 0.36845 0.0
C1918 C 0.3428 0.86171 0.38502 0.0
C1919 C 0.38192 0.85207 0.35523 0.0
C1920 C 0.39376 0.83828 0.32979 0.0
C1921 C 0.36103 0.87867 0.4031 0.0
C1922 C 0.39007 0.88233 0.39707 0.0
C1923 C 0.40007 0.86907 0.37313 0.0
C1924 C 0.41081 0.89916 0.41556 0.0
C1925 C 0.34926 0.89168 0.429 0.0
C1926 C 0.40901 0.92753 0.42001 0.0
C1927 C 0.42998 0.94353 0.43564 0.0
C1928 C 0.45331 0.93147 0.44684 0.0
C1929 C 0.45469 0.90294 0.44278 0.0
C1930 C 0.43369 0.887 0.4273 0.0
H1931 H 0.32826 0.88155 0.43424 0.0
H1932 H 0.36366 0.89064 0.44748 0.0
H1933 H 0.34689 0.91371 0.42512 0.0
H1934 H 0.39185 0.93748 0.4107 0.0
H1935 H 0.42831 0.96547 0.4382 0.0
H1936 H 0.18385 0.32294 0.25822 0.0
H1937 H 0.15455 0.35388 0.28336 0.0
H1938 H 0.19758 0.3393 0.36129 0.0
H1939 H 0.22699 0.30817 0.33627 0.0
H1940 H 0.11701 0.34424 0.32825 0.0
H1941 H 0.20249 0.42385 0.36077 0.0
H1942 H 0.20702 0.39777 0.33393 0.0
H1943 H 0.20859 0.38952 0.3706 0.0
C1944 C 0.18733 0.32633 0.28071 0.0
C1945 C 0.2082 0.3129 0.29498 0.0
C1946 C 0.17033 0.3441 0.29517 0.0
C1947 C 0.17377 0.3495 0.32439 0.0
C1948 C 0.19456 0.3361 0.33874 0.0
H1949 H 0.10038 0.44445 0.45654 0.0
H1950 H 0.12869 0.41896 0.42503 0.0
C1951 C 0.21142 0.31809 0.32432 0.0
C1952 C 0.15544 0.36872 0.33977 0.0
H1953 H 0.15791 0.42797 0.38086 0.0
C1954 C 0.12599 0.36264 0.3396 0.0
C1955 C 0.16676 0.39296 0.35465 0.0
C1956 C 0.19791 0.40166 0.35488 0.0
C1957 C 0.10794 0.37922 0.35463 0.0
C1958 C 0.1193 0.40337 0.36984 0.0
C1959 C 0.14875 0.40969 0.36941 0.0
C1960 C 0.10167 0.421 0.38825 0.0
C1961 C 0.07696 0.36985 0.35504 0.0
C1962 C 0.07691 0.43204 0.37848 0.0
C1963 C 0.06018 0.4469 0.39691 0.0
C1964 C 0.06784 0.4513 0.42564 0.0
C1965 C 0.09337 0.44147 0.43475 0.0
C1966 C 0.10983 0.42673 0.41655 0.0
H1967 H 0.07271 0.34772 0.3488 0.0
H1968 H 0.06826 0.37307 0.37631 0.0
H1969 H 0.06559 0.38196 0.33983 0.0
H1970 H 0.07023 0.42891 0.35664 0.0
H1971 H 0.04076 0.45392 0.38895 0.0
H1972 H 0.35508 0.23024 0.68151 0.0
H1973 H 0.38649 0.19626 0.66586 0.0
H1974 H 0.31471 0.14012 0.64082 0.0
H1975 H 0.28315 0.17375 0.6574 0.0
H1976 H 0.35122 0.11549 0.67354 0.0
H1977 H 0.40946 0.17145 0.58911 0.0
H1978 H 0.41103 0.19039 0.6221 0.0
H1979 H 0.37778 0.18294 0.60375 0.0
C1980 C 0.34602 0.21094 0.67197 0.0
C1981 C 0.31673 0.20462 0.67052 0.0
C1982 C 0.364 0.19153 0.66304 0.0
C1983 C 0.35296 0.16571 0.65201 0.0
C1984 C 0.32366 0.1599 0.64932 0.0
H1985 H 0.41367 0.02809 0.57172 0.0
H1986 H 0.38617 0.05631 0.60202 0.0
C1987 C 0.30568 0.17919 0.65854 0.0
C1988 C 0.37184 0.14413 0.64492 0.0
H1989 H 0.42713 0.13019 0.60397 0.0
C1990 C 0.36782 0.1187 0.65831 0.0
C1991 C 0.39358 0.1484 0.62518 0.0
C1992 C 0.39809 0.17466 0.609 0.0
C1993 C 0.38482 0.09734 0.65227 0.0
C1994 C 0.40639 0.10162 0.63247 0.0
C1995 C 0.41081 0.12719 0.61954 0.0
C1996 C 0.42251 0.0791 0.62202 0.0
C1997 C 0.37955 0.0703 0.66686 0.0
C1998 C 0.452 0.08156 0.62442 0.0
C1999 C 0.46773 0.06506 0.60744 0.0
C2000 C 0.45404 0.04639 0.58761 0.0
C2001 C 0.42457 0.04206 0.58727 0.0
C2002 C 0.40888 0.05823 0.6045 0.0
H2003 H 0.3671 0.07243 0.68625 0.0
H2004 H 0.36758 0.05513 0.65233 0.0
H2005 H 0.39973 0.06195 0.67253 0.0
H2006 H 0.46284 0.09776 0.63765 0.0
H2007 H 0.49044 0.06914 0.60753 0.0
H2008 H 0.78116 0.34637 0.70855 0.0
H2009 H 0.80461 0.37906 0.6761 0.0
H2010 H 0.84436 0.31279 0.63586 0.0
H2011 H 0.82094 0.28013 0.66766 0.0
H2012 H 0.86208 0.3902 0.67118 0.0
H2013 H 0.81533 0.35225 0.56849 0.0
H2014 H 0.79982 0.34263 0.6017 0.0
H2015 H 0.82854 0.32507 0.58811 0.0
C2016 C 0.79455 0.33871 0.69249 0.0
C2017 C 0.79917 0.31062 0.69073 0.0
C2018 C 0.80793 0.35741 0.674 0.0
C2019 C 0.82586 0.34828 0.65326 0.0
C2020 C 0.83009 0.32021 0.65121 0.0
H2021 H 0.9591 0.40033 0.54735 0.0
H2022 H 0.92041 0.37755 0.57349 0.0
C2023 C 0.81683 0.30157 0.66964 0.0
C2024 C 0.84217 0.3681 0.63524 0.0
H2025 H 0.8603 0.37924 0.56687 0.0
C2026 C 0.86129 0.38826 0.64834 0.0
C2027 C 0.84107 0.36552 0.60546 0.0
C2028 C 0.81986 0.34537 0.59011 0.0
C2029 C 0.88059 0.4047 0.63254 0.0
C2030 C 0.88045 0.40107 0.60285 0.0
C2031 C 0.86043 0.38185 0.58966 0.0
C2032 C 0.90249 0.41525 0.58545 0.0
C2033 C 0.90201 0.42472 0.64779 0.0
C2034 C 0.90486 0.44399 0.58302 0.0
C2035 C 0.92702 0.45716 0.56807 0.0
C2036 C 0.9472 0.44175 0.55532 0.0
C2037 C 0.94413 0.41287 0.55708 0.0
C2038 C 0.92196 0.39978 0.57193 0.0
H2039 H 0.90216 0.42183 0.67095 0.0
H2040 H 0.92344 0.4224 0.63983 0.0
H2041 H 0.89704 0.4461 0.64384 0.0
H2042 H 0.8898 0.45625 0.593 0.0
H2043 H 0.92866 0.47942 0.56705 0.0
H2044 H 0.26376 0.6831 0.67644 0.0
H2045 H 0.23126 0.65589 0.64389 0.0
H2046 H 0.16122 0.69193 0.6818 0.0
H2047 H 0.19366 0.71914 0.71463 0.0
H2048 H 0.15514 0.63322 0.67623 0.0
H2049 H 0.18675 0.68294 0.57606 0.0
H2050 H 0.21509 0.67186 0.59707 0.0
H2051 H 0.19535 0.69895 0.61025 0.0
C2052 C 0.24145 0.68537 0.67769 0.0
C2053 C 0.23116 0.70313 0.69805 0.0
C2054 C 0.22296 0.66992 0.65901 0.0
C2055 C 0.19393 0.67212 0.66032 0.0
C2056 C 0.18361 0.69005 0.68046 0.0
H2057 H 0.05796 0.61688 0.54738 0.0
H2058 H 0.09574 0.64202 0.57521 0.0
C2059 C 0.20211 0.70557 0.69913 0.0
C2060 C 0.17422 0.65486 0.64143 0.0
H2061 H 0.15461 0.64297 0.57237 0.0
C2062 C 0.155 0.63528 0.65351 0.0
C2063 C 0.17415 0.65776 0.61186 0.0
C2064 C 0.19376 0.67914 0.59795 0.0
C2065 C 0.13551 0.61852 0.63676 0.0
C2066 C 0.1356 0.62122 0.60715 0.0
C2067 C 0.15489 0.64076 0.59506 0.0
C2068 C 0.11428 0.60554 0.58862 0.0
C2069 C 0.11446 0.59866 0.65094 0.0
C2070 C 0.11265 0.57666 0.58636 0.0
C2071 C 0.09094 0.56209 0.57047 0.0
C2072 C 0.07057 0.57626 0.55658 0.0
C2073 C 0.07308 0.60526 0.55801 0.0
C2074 C 0.09473 0.61972 0.57384 0.0
H2075 H 0.1136 0.60303 0.674 0.0
H2076 H 0.09308 0.5995 0.64159 0.0
H2077 H 0.12051 0.57736 0.64777 0.0
H2078 H 0.12789 0.56539 0.59726 0.0
H2079 H 0.08972 0.53978 0.56967 0.0
loop_
_geom_bond_atom_site_label_1
_geom_bond_atom_site_label_2
_geom_bond_distance
_geom_bond_site_symmetry_2
_ccdc_geom_bond_type
Dy0 O4 2.398 . S
Dy0 O5 2.491 . S
Dy0 O6 2.403 . S
Dy0 O7 2.664 . S
Dy0 O11 2.326 . S
Dy0 O15 2.310 . S
Dy0 O16 2.351 . S
C1 O12 1.185 . S
C1 O13 1.355 . S
C2 O4 1.185 . S
C2 O5 1.355 . S
Dy3 O7 2.310 . S
Dy3 O10 2.351 . S
Dy3 O12 2.398 . S
Dy3 O13 2.491 . S
Dy3 O14 2.403 . S
Dy3 O15 2.664 . S
Dy3 O17 2.326 . S
O4 Dy0 2.398 . S
O4 C2 1.185 . S
O5 Dy0 2.491 . S
O5 C2 1.355 . S
O6 Dy0 2.403 . S
O6 C8 1.254 . S
O7 Dy0 2.664 . S
O7 Dy3 2.310 . S
O7 C8 1.268 . S
C8 O6 1.254 . S
C8 O7 1.268 . S
C9 O14 1.254 . S
C9 O15 1.268 . S
O10 Dy3 2.351 . S
O10 C18 1.249 . S
O11 Dy0 2.326 . S
O11 C18 1.267 . S
O12 C1 1.185 . S
O12 Dy3 2.398 . S
O13 C1 1.355 . S
O13 Dy3 2.491 . S
O14 Dy3 2.403 . S
O14 C9 1.254 . S
O15 Dy0 2.310 . S
O15 Dy3 2.664 . S
O15 C9 1.268 . S
O16 Dy0 2.351 . S
O16 C19 1.249 . S
O17 Dy3 2.326 . S
O17 C19 1.267 . S
C18 O10 1.249 . S
C18 O11 1.267 . S
C19 O16 1.249 . S
C19 O17 1.267 . S
Dy20 O24 2.398 . S
Dy20 O25 2.491 . S
Dy20 O26 2.403 . S
Dy20 O27 2.664 . S
Dy20 O31 2.326 . S
Dy20 O35 2.310 . S
Dy20 O36 2.351 . S
C21 O32 1.185 . S
C21 O33 1.355 . S
C22 O24 1.185 . S
C22 O25 1.355 . S
Dy23 O27 2.310 . S
Dy23 O30 2.351 . S
Dy23 O32 2.398 . S
Dy23 O33 2.491 . S
Dy23 O34 2.403 . S
Dy23 O35 2.664 . S
Dy23 O37 2.326 . S
O24 Dy20 2.398 . S
O24 C22 1.185 . S
O25 Dy20 2.491 . S
O25 C22 1.355 . S
O26 Dy20 2.403 . S
O26 C28 1.254 . S
O27 Dy20 2.664 . S
O27 Dy23 2.310 . S
O27 C28 1.268 . S
C28 O26 1.254 . S
C28 O27 1.268 . S
C29 O34 1.254 . S
C29 O35 1.268 . S
O30 Dy23 2.351 . S
O30 C38 1.249 . S
O31 Dy20 2.326 . S
O31 C38 1.267 . S
O32 C21 1.185 . S
O32 Dy23 2.398 . S
O33 C21 1.355 . S
O33 Dy23 2.491 . S
O34 Dy23 2.403 . S
O34 C29 1.254 . S
O35 Dy20 2.310 . S
O35 Dy23 2.664 . S
O35 C29 1.268 . S
O36 Dy20 2.351 . S
O36 C39 1.249 . S
O37 Dy23 2.326 . S
O37 C39 1.267 . S
C38 O30 1.249 . S
C38 O31 1.267 . S
C39 O36 1.249 . S
C39 O37 1.267 . S
Dy40 O44 2.398 . S
Dy40 O45 2.491 . S
Dy40 O46 2.403 . S
Dy40 O47 2.664 . S
Dy40 O51 2.326 . S
Dy40 O55 2.310 . S
Dy40 O56 2.351 . S
C41 O52 1.185 . S
C41 O53 1.355 . S
C42 O44 1.185 . S
C42 O45 1.355 . S
Dy43 O47 2.310 . S
Dy43 O50 2.351 . S
Dy43 O52 2.398 . S
Dy43 O53 2.491 . S
Dy43 O54 2.403 . S
Dy43 O55 2.664 . S
Dy43 O57 2.326 . S
O44 Dy40 2.398 . S
O44 C42 1.185 . S
O45 Dy40 2.491 . S
O45 C42 1.355 . S
O46 Dy40 2.403 . S
O46 C48 1.254 . S
O47 Dy40 2.664 . S
O47 Dy43 2.310 . S
O47 C48 1.268 . S
C48 O46 1.254 . S
C48 O47 1.268 . S
C49 O54 1.254 . S
C49 O55 1.268 . S
O50 Dy43 2.351 . S
O50 C58 1.249 . S
O51 Dy40 2.326 . S
O51 C58 1.267 . S
O52 C41 1.185 . S
O52 Dy43 2.398 . S
O53 C41 1.355 . S
O53 Dy43 2.491 . S
O54 Dy43 2.403 . S
O54 C49 1.254 . S
O55 Dy40 2.310 . S
O55 Dy43 2.664 . S
O55 C49 1.268 . S
O56 Dy40 2.351 . S
O56 C59 1.249 . S
O57 Dy43 2.326 . S
O57 C59 1.267 . S
C58 O50 1.249 . S
C58 O51 1.267 . S
C59 O56 1.249 . S
C59 O57 1.267 . S
Dy60 O64 2.398 . S
Dy60 O65 2.491 . S
Dy60 O66 2.403 . S
Dy60 O67 2.664 . S
Dy60 O71 2.326 . S
Dy60 O75 2.310 . S
Dy60 O76 2.351 . S
C61 O72 1.185 . S
C61 O73 1.355 . S
C62 O64 1.185 . S
C62 O65 1.355 . S
Dy63 O67 2.310 . S
Dy63 O70 2.351 . S
Dy63 O72 2.398 . S
Dy63 O73 2.491 . S
Dy63 O74 2.403 . S
Dy63 O75 2.664 . S
Dy63 O77 2.326 . S
O64 Dy60 2.398 . S
O64 C62 1.185 . S
O65 Dy60 2.491 . S
O65 C62 1.355 . S
O66 Dy60 2.403 . S
O66 C68 1.254 . S
O67 Dy60 2.664 . S
O67 Dy63 2.310 . S
O67 C68 1.268 . S
C68 O66 1.254 . S
C68 O67 1.268 . S
C69 O74 1.254 . S
C69 O75 1.268 . S
O70 Dy63 2.351 . S
O70 C78 1.249 . S
O71 Dy60 2.326 . S
O71 C78 1.267 . S
O72 C61 1.185 . S
O72 Dy63 2.398 . S
O73 C61 1.355 . S
O73 Dy63 2.491 . S
O74 Dy63 2.403 . S
O74 C69 1.254 . S
O75 Dy60 2.310 . S
O75 Dy63 2.664 . S
O75 C69 1.268 . S
O76 Dy60 2.351 . S
O76 C79 1.249 . S
O77 Dy63 2.326 . S
O77 C79 1.267 . S
C78 O70 1.249 . S
C78 O71 1.267 . S
C79 O76 1.249 . S
C79 O77 1.267 . S
Dy80 O84 2.398 . S
Dy80 O85 2.491 . S
Dy80 O86 2.403 . S
Dy80 O87 2.664 . S
Dy80 O91 2.326 . S
Dy80 O95 2.310 . S
Dy80 O96 2.351 . S
C81 O92 1.185 . S
C81 O93 1.355 . S
C82 O84 1.185 . S
C82 O85 1.355 . S
Dy83 O87 2.310 . S
Dy83 O90 2.351 . S
Dy83 O92 2.398 . S
Dy83 O93 2.491 . S
Dy83 O94 2.403 . S
Dy83 O95 2.664 . S
Dy83 O97 2.326 . S
O84 Dy80 2.398 . S
O84 C82 1.185 . S
O85 Dy80 2.491 . S
O85 C82 1.355 . S
O86 Dy80 2.403 . S
O86 C88 1.254 . S
O87 Dy80 2.664 . S
O87 Dy83 2.310 . S
O87 C88 1.268 . S
C88 O86 1.254 . S
C88 O87 1.268 . S
C89 O94 1.254 . S
C89 O95 1.268 . S
O90 Dy83 2.351 . S
O90 C98 1.249 . S
O91 Dy80 2.326 . S
O91 C98 1.267 . S
O92 C81 1.185 . S
O92 Dy83 2.398 . S
O93 C81 1.355 . S
O93 Dy83 2.491 . S
O94 Dy83 2.403 . S
O94 C89 1.254 . S
O95 Dy80 2.310 . S
O95 Dy83 2.664 . S
O95 C89 1.268 . S
O96 Dy80 2.351 . S
O96 C99 1.249 . S
O97 Dy83 2.326 . S
O97 C99 1.267 . S
C98 O90 1.249 . S
C98 O91 1.267 . S
C99 O96 1.249 . S
C99 O97 1.267 . S
Dy100 O104 2.398 . S
Dy100 O105 2.491 . S
Dy100 O106 2.403 . S
Dy100 O107 2.664 . S
Dy100 O111 2.326 . S
Dy100 O115 2.310 . S
Dy100 O116 2.351 . S
C101 O112 1.185 . S
C101 O113 1.355 . S
C102 O104 1.185 . S
C102 O105 1.355 . S
Dy103 O107 2.310 . S
Dy103 O110 2.351 . S
Dy103 O112 2.398 . S
Dy103 O113 2.491 . S
Dy103 O114 2.403 . S
Dy103 O115 2.664 . S
Dy103 O117 2.326 . S
O104 Dy100 2.398 . S
O104 C102 1.185 . S
O105 Dy100 2.491 . S
O105 C102 1.355 . S
O106 Dy100 2.403 . S
O106 C108 1.254 . S
O107 Dy100 2.664 . S
O107 Dy103 2.310 . S
O107 C108 1.268 . S
C108 O106 1.254 . S
C108 O107 1.268 . S
C109 O114 1.254 . S
C109 O115 1.268 . S
O110 Dy103 2.351 . S
O110 C118 1.249 . S
O111 Dy100 2.326 . S
O111 C118 1.267 . S
O112 C101 1.185 . S
O112 Dy103 2.398 . S
O113 C101 1.355 . S
O113 Dy103 2.491 . S
O114 Dy103 2.403 . S
O114 C109 1.254 . S
O115 Dy100 2.310 . S
O115 Dy103 2.664 . S
O115 C109 1.268 . S
O116 Dy100 2.351 . S
O116 C119 1.249 . S
O117 Dy103 2.326 . S
O117 C119 1.267 . S
C118 O110 1.249 . S
C118 O111 1.267 . S
C119 O116 1.249 . S
C119 O117 1.267 . S
Dy120 O124 2.398 . S
Dy120 O125 2.491 . S
Dy120 O126 2.403 . S
Dy120 O127 2.664 . S
Dy120 O131 2.326 . S
Dy120 O135 2.310 . S
Dy120 O136 2.351 . S
C121 O132 1.185 . S
C121 O133 1.355 . S
C122 O124 1.185 . S
C122 O125 1.355 . S
Dy123 O127 2.310 . S
Dy123 O130 2.351 . S
Dy123 O132 2.398 . S
Dy123 O133 2.491 . S
Dy123 O134 2.403 . S
Dy123 O135 2.664 . S
Dy123 O137 2.326 . S
O124 Dy120 2.398 . S
O124 C122 1.185 . S
O125 Dy120 2.491 . S
O125 C122 1.355 . S
O126 Dy120 2.403 . S
O126 C128 1.254 . S
O127 Dy120 2.664 . S
O127 Dy123 2.310 . S
O127 C128 1.268 . S
C128 O126 1.254 . S
C128 O127 1.268 . S
C129 O134 1.254 . S
C129 O135 1.268 . S
O130 Dy123 2.351 . S
O130 C138 1.249 . S
O131 Dy120 2.326 . S
O131 C138 1.267 . S
O132 C121 1.185 . S
O132 Dy123 2.398 . S
O133 C121 1.355 . S
O133 Dy123 2.491 . S
O134 Dy123 2.403 . S
O134 C129 1.254 . S
O135 Dy120 2.310 . S
O135 Dy123 2.664 . S
O135 C129 1.268 . S
O136 Dy120 2.351 . S
O136 C139 1.249 . S
O137 Dy123 2.326 . S
O137 C139 1.267 . S
C138 O130 1.249 . S
C138 O131 1.267 . S
C139 O136 1.249 . S
C139 O137 1.267 . S
Dy140 O144 2.398 . S
Dy140 O145 2.491 . S
Dy140 O146 2.403 . S
Dy140 O147 2.664 . S
Dy140 O151 2.326 . S
Dy140 O155 2.310 . S
Dy140 O156 2.351 . S
C141 O152 1.185 . S
C141 O153 1.355 . S
C142 O144 1.185 . S
C142 O145 1.355 . S
Dy143 O147 2.310 . S
Dy143 O150 2.351 . S
Dy143 O152 2.398 . S
Dy143 O153 2.491 . S
Dy143 O154 2.403 . S
Dy143 O155 2.664 . S
Dy143 O157 2.326 . S
O144 Dy140 2.398 . S
O144 C142 1.185 . S
O145 Dy140 2.491 . S
O145 C142 1.355 . S
O146 Dy140 2.403 . S
O146 C148 1.254 . S
O147 Dy140 2.664 . S
O147 Dy143 2.310 . S
O147 C148 1.268 . S
C148 O146 1.254 . S
C148 O147 1.268 . S
C149 O154 1.254 . S
C149 O155 1.268 . S
O150 Dy143 2.351 . S
O150 C158 1.249 . S
O151 Dy140 2.326 . S
O151 C158 1.267 . S
O152 C141 1.185 . S
O152 Dy143 2.398 . S
O153 C141 1.355 . S
O153 Dy143 2.491 . S
O154 Dy143 2.403 . S
O154 C149 1.254 . S
O155 Dy140 2.310 . S
O155 Dy143 2.664 . S
O155 C149 1.268 . S
O156 Dy140 2.351 . S
O156 C159 1.249 . S
O157 Dy143 2.326 . S
O157 C159 1.267 . S
C158 O150 1.249 . S
C158 O151 1.267 . S
C159 O156 1.249 . S
C159 O157 1.267 . S
Fe160 O161 1.886 1_455 S
Fe160 O164 1.715 . S
Fe160 O169 2.077 1_455 S
Fe160 O174 1.935 . S
Fe160 O180 2.077 1_455 S
Fe160 O189 1.935 . S
O161 Fe160 1.886 1_655 S
O161 Fe163 1.715 1_545 S
Fe162 O164 1.886 . S
Fe162 O165 1.715 1_545 S
Fe162 O172 1.935 1_545 S
Fe162 O173 2.077 . S
Fe162 O179 1.935 1_545 S
Fe162 O188 2.077 . S
Fe163 O161 1.715 1_565 S
Fe163 O166 1.886 . S
Fe163 O170 1.935 1_565 S
Fe163 O175 2.077 . S
Fe163 O181 1.935 1_565 S
Fe163 O185 2.077 . S
O164 Fe160 1.715 . S
O164 Fe162 1.886 . S
O165 Fe162 1.715 1_565 S
O165 Fe167 1.886 1_455 S
O166 Fe163 1.886 . S
O166 Fe167 1.715 . S
Fe167 O165 1.886 1_655 S
Fe167 O166 1.715 . S
Fe167 O171 2.077 1_655 S
Fe167 O176 1.935 . S
Fe167 O178 2.077 1_655 S
Fe167 O186 1.935 . S
C168 O180 1.381 . S
C168 O181 1.421 . S
O169 Fe160 2.077 1_655 S
O169 C182 1.381 . S
O170 Fe163 1.935 1_545 S
O170 C182 1.421 . S
O171 Fe167 2.077 1_455 S
O171 C187 1.381 . S
O172 Fe162 1.935 1_565 S
O172 C187 1.421 . S
O173 Fe162 2.077 . S
O173 C177 1.381 . S
O174 Fe160 1.935 . S
O174 C177 1.421 . S
O175 Fe163 2.077 . S
O175 C183 1.381 . S
O176 Fe167 1.935 . S
O176 C183 1.421 . S
C177 O173 1.381 . S
C177 O174 1.421 . S
O178 Fe167 2.077 1_455 S
O178 C190 1.381 . S
O179 Fe162 1.935 1_565 S
O179 C190 1.421 . S
O180 Fe160 2.077 1_655 S
O180 C168 1.381 . S
O181 Fe163 1.935 1_545 S
O181 C168 1.421 . S
C182 O169 1.381 . S
C182 O170 1.421 . S
C183 O175 1.381 . S
C183 O176 1.421 . S
C184 O185 1.381 . S
C184 O186 1.421 . S
O185 Fe163 2.077 . S
O185 C184 1.381 . S
O186 Fe167 1.935 . S
O186 C184 1.421 . S
C187 O171 1.381 . S
C187 O172 1.421 . S
O188 Fe162 2.077 . S
O188 C191 1.381 . S
O189 Fe160 1.935 . S
O189 C191 1.421 . S
C190 O178 1.381 . S
C190 O179 1.421 . S
C191 O188 1.381 . S
C191 O189 1.421 . S
Fe192 O193 1.886 1_556 S
Fe192 O196 1.715 . S
Fe192 O201 2.097 . S
Fe192 O206 1.958 . S
Fe192 O212 2.058 1_556 S
Fe192 O221 1.912 1_556 S
O193 Fe192 1.886 1_554 S
O193 Fe195 1.716 1_565 S
Fe194 O196 1.886 . S
Fe194 O197 1.716 1_566 S
Fe194 O204 1.960 1_565 S
Fe194 O205 2.098 . S
Fe194 O211 1.911 1_566 S
Fe194 O220 2.056 1_556 S
Fe195 O193 1.716 1_545 S
Fe195 O198 1.886 . S
Fe195 O202 1.903 1_544 S
Fe195 O207 2.049 1_554 S
Fe195 O213 1.968 1_545 S
Fe195 O217 2.105 . S
O196 Fe192 1.715 . S
O196 Fe194 1.886 . S
O197 Fe194 1.716 1_544 S
O197 Fe199 1.887 . S
O198 Fe195 1.886 . S
O198 Fe199 1.715 . S
Fe199 O197 1.887 . S
Fe199 O198 1.715 . S
Fe199 O203 2.051 1_554 S
Fe199 O208 1.905 1_554 S
Fe199 O210 2.104 . S
Fe199 O218 1.965 . S
C200 O212 1.381 . S
C200 O213 1.421 . S
O201 Fe192 2.097 . S
O201 C214 1.381 . S
O202 Fe195 1.903 1_566 S
O202 C214 1.421 . S
O203 Fe199 2.051 1_556 S
O203 C219 1.381 . S
O204 Fe194 1.960 1_545 S
O204 C219 1.421 . S
O205 Fe194 2.098 . S
O205 C209 1.381 . S
O206 Fe192 1.958 . S
O206 C209 1.421 . S
O207 Fe195 2.049 1_556 S
O207 C215 1.381 . S
O208 Fe199 1.905 1_556 S
O208 C215 1.421 . S
C209 O205 1.381 . S
C209 O206 1.421 . S
O210 Fe199 2.104 . S
O210 C222 1.381 . S
O211 Fe194 1.911 1_544 S
O211 C222 1.421 . S
O212 Fe192 2.058 1_554 S
O212 C200 1.381 . S
O213 Fe195 1.968 1_565 S
O213 C200 1.421 . S
C214 O201 1.381 . S
C214 O202 1.421 . S
C215 O207 1.381 . S
C215 O208 1.421 . S
C216 O217 1.381 . S
C216 O218 1.421 . S
O217 Fe195 2.105 . S
O217 C216 1.381 . S
O218 Fe199 1.965 . S
O218 C216 1.421 . S
C219 O203 1.381 . S
C219 O204 1.421 . S
O220 Fe194 2.056 1_554 S
O220 C223 1.381 . S
O221 Fe192 1.912 1_554 S
O221 C223 1.421 . S
C222 O210 1.381 . S
C222 O211 1.421 . S
C223 O220 1.381 . S
C223 O221 1.421 . S
Fe224 O225 1.887 1_455 S
Fe224 O228 1.715 . S
Fe224 O233 2.051 1_454 S
Fe224 O238 1.905 1_554 S
Fe224 O244 2.104 1_455 S
Fe224 O253 1.965 . S
O225 Fe224 1.887 1_655 S
O225 Fe227 1.716 1_554 S
Fe226 O228 1.886 . S
Fe226 O229 1.716 . S
Fe226 O236 1.903 1_554 S
Fe226 O237 2.049 1_554 S
Fe226 O243 1.968 . S
Fe226 O252 2.104 . S
Fe227 O225 1.716 1_556 S
Fe227 O230 1.886 . S
Fe227 O234 1.960 . S
Fe227 O239 2.098 . S
Fe227 O245 1.911 1_556 S
Fe227 O249 2.056 1_556 S
O228 Fe224 1.715 . S
O228 Fe226 1.886 . S
O229 Fe226 1.716 . S
O229 Fe231 1.886 1_454 S
O230 Fe227 1.886 . S
O230 Fe231 1.715 . S
Fe231 O229 1.886 1_656 S
Fe231 O230 1.715 . S
Fe231 O235 2.097 1_655 S
Fe231 O240 1.957 . S
Fe231 O242 2.058 1_656 S
Fe231 O250 1.912 1_556 S
C232 O244 1.381 . S
C232 O245 1.421 . S
O233 Fe224 2.051 1_656 S
O233 C246 1.381 . S
O234 Fe227 1.960 . S
O234 C246 1.421 . S
O235 Fe231 2.097 1_455 S
O235 C251 1.381 . S
O236 Fe226 1.903 1_556 S
O236 C251 1.421 . S
O237 Fe226 2.049 1_556 S
O237 C241 1.381 . S
O238 Fe224 1.905 1_556 S
O238 C241 1.421 . S
O239 Fe227 2.098 . S
O239 C247 1.381 . S
O240 Fe231 1.957 . S
O240 C247 1.421 . S
C241 O237 1.381 . S
C241 O238 1.421 . S
O242 Fe231 2.058 1_454 S
O242 C254 1.381 . S
O243 Fe226 1.968 . S
O243 C254 1.421 . S
O244 Fe224 2.104 1_655 S
O244 C232 1.381 . S
O245 Fe227 1.911 1_554 S
O245 C232 1.421 . S
C246 O233 1.381 . S
C246 O234 1.421 . S
C247 O239 1.381 . S
C247 O240 1.421 . S
C248 O249 1.381 . S
C248 O250 1.421 . S
O249 Fe227 2.056 1_554 S
O249 C248 1.381 . S
O250 Fe231 1.912 1_554 S
O250 C248 1.421 . S
C251 O235 1.381 . S
C251 O236 1.421 . S
O252 Fe226 2.104 . S
O252 C255 1.381 . S
O253 Fe224 1.965 . S
O253 C255 1.421 . S
C254 O242 1.381 . S
C254 O243 1.421 . S
C255 O252 1.381 . S
C255 O253 1.421 . S
Fe256 O257 1.886 . S
Fe256 O260 1.715 . S
Fe256 O265 2.077 . S
Fe256 O270 1.935 . S
Fe256 O276 2.077 . S
Fe256 O285 1.935 . S
O257 Fe256 1.886 . S
O257 Fe259 1.715 1_556 S
Fe258 O260 1.886 . S
Fe258 O261 1.715 1_556 S
Fe258 O268 1.935 1_556 S
Fe258 O269 2.077 . S
Fe258 O275 1.935 1_556 S
Fe258 O284 2.077 . S
Fe259 O257 1.715 1_554 S
Fe259 O262 1.886 . S
Fe259 O266 1.935 1_554 S
Fe259 O271 2.077 . S
Fe259 O277 1.935 1_554 S
Fe259 O281 2.077 . S
O260 Fe256 1.715 . S
O260 Fe258 1.886 . S
O261 Fe258 1.715 1_554 S
O261 Fe263 1.886 . S
O262 Fe259 1.886 . S
O262 Fe263 1.715 . S
Fe263 O261 1.886 . S
Fe263 O262 1.715 . S
Fe263 O267 2.077 . S
Fe263 O272 1.935 . S
Fe263 O274 2.077 . S
Fe263 O282 1.935 . S
C264 O276 1.381 . S
C264 O277 1.421 . S
O265 Fe256 2.077 . S
O265 C278 1.381 . S
O266 Fe259 1.935 1_556 S
O266 C278 1.421 . S
O267 Fe263 2.077 . S
O267 C283 1.381 . S
O268 Fe258 1.935 1_554 S
O268 C283 1.421 . S
O269 Fe258 2.077 . S
O269 C273 1.381 . S
O270 Fe256 1.935 . S
O270 C273 1.421 . S
O271 Fe259 2.077 . S
O271 C279 1.381 . S
O272 Fe263 1.935 . S
O272 C279 1.421 . S
C273 O269 1.381 . S
C273 O270 1.421 . S
O274 Fe263 2.077 . S
O274 C286 1.381 . S
O275 Fe258 1.935 1_554 S
O275 C286 1.421 . S
O276 Fe256 2.077 . S
O276 C264 1.381 . S
O277 Fe259 1.935 1_556 S
O277 C264 1.421 . S
C278 O265 1.381 . S
C278 O266 1.421 . S
C279 O271 1.381 . S
C279 O272 1.421 . S
C280 O281 1.381 . S
C280 O282 1.421 . S
O281 Fe259 2.077 . S
O281 C280 1.381 . S
O282 Fe263 1.935 . S
O282 C280 1.421 . S
C283 O267 1.381 . S
C283 O268 1.421 . S
O284 Fe258 2.077 . S
O284 C287 1.381 . S
O285 Fe256 1.935 . S
O285 C287 1.421 . S
C286 O274 1.381 . S
C286 O275 1.421 . S
C287 O284 1.381 . S
C287 O285 1.421 . S
Fe288 O289 1.886 . S
Fe288 O292 1.715 . S
Fe288 O297 2.077 1_655 S
Fe288 O302 1.935 1_655 S
Fe288 O308 2.077 . S
Fe288 O317 1.935 . S
O289 Fe288 1.886 . S
O289 Fe291 1.718 1_655 S
Fe290 O292 1.885 . S
Fe290 O293 1.717 1_655 S
Fe290 O300 1.910 1_655 S
Fe290 O301 2.053 1_655 S
Fe290 O307 1.963 . S
Fe290 O316 2.098 . S
Fe291 O289 1.718 1_455 S
Fe291 O294 1.884 . S
Fe291 O298 1.971 . S
Fe291 O303 2.105 . S
Fe291 O309 1.902 1_455 S
Fe291 O313 2.046 1_455 S
O292 Fe288 1.715 . S
O292 Fe290 1.885 . S
O293 Fe290 1.717 1_455 S
O293 Fe295 1.886 . S
O294 Fe291 1.884 . S
O294 Fe295 1.715 . S
Fe295 O293 1.886 . S
Fe295 O294 1.715 . S
Fe295 O299 2.077 . S
Fe295 O304 1.935 . S
Fe295 O306 2.077 1_455 S
Fe295 O314 1.935 1_455 S
C296 O308 1.381 . S
C296 O309 1.421 . S
O297 Fe288 2.077 1_455 S
O297 C310 1.381 . S
O298 Fe291 1.971 . S
O298 C310 1.421 . S
O299 Fe295 2.077 . S
O299 C315 1.381 . S
O300 Fe290 1.910 1_455 S
O300 C315 1.421 . S
O301 Fe290 2.053 1_455 S
O301 C305 1.381 . S
O302 Fe288 1.935 1_455 S
O302 C305 1.421 . S
O303 Fe291 2.105 . S
O303 C311 1.381 . S
O304 Fe295 1.935 . S
O304 C311 1.421 . S
C305 O301 1.381 . S
C305 O302 1.421 . S
O306 Fe295 2.077 1_655 S
O306 C318 1.381 . S
O307 Fe290 1.963 . S
O307 C318 1.421 . S
O308 Fe288 2.077 . S
O308 C296 1.381 . S
O309 Fe291 1.902 1_655 S
O309 C296 1.421 . S
C310 O297 1.381 . S
C310 O298 1.421 . S
C311 O303 1.381 . S
C311 O304 1.421 . S
C312 O313 1.381 . S
C312 O314 1.421 . S
O313 Fe291 2.046 1_655 S
O313 C312 1.381 . S
O314 Fe295 1.935 1_655 S
O314 C312 1.421 . S
C315 O299 1.381 . S
C315 O300 1.421 . S
O316 Fe290 2.098 . S
O316 C319 1.381 . S
O317 Fe288 1.935 . S
O317 C319 1.421 . S
C318 O306 1.381 . S
C318 O307 1.421 . S
C319 O316 1.381 . S
C319 O317 1.421 . S
Fe320 O321 1.886 . S
Fe320 O324 1.715 . S
Fe320 O329 2.077 . S
Fe320 O334 1.935 . S
Fe320 O340 2.077 . S
Fe320 O349 1.935 . S
O321 Fe320 1.886 . S
O321 Fe323 1.715 1_565 S
Fe322 O324 1.886 . S
Fe322 O325 1.715 1_565 S
Fe322 O332 1.935 1_565 S
Fe322 O333 2.077 . S
Fe322 O339 1.935 1_565 S
Fe322 O348 2.077 . S
Fe323 O321 1.715 1_545 S
Fe323 O326 1.886 . S
Fe323 O330 1.935 1_545 S
Fe323 O335 2.077 . S
Fe323 O341 1.935 1_545 S
Fe323 O345 2.077 . S
O324 Fe320 1.715 . S
O324 Fe322 1.886 . S
O325 Fe322 1.715 1_545 S
O325 Fe327 1.886 . S
O326 Fe323 1.886 . S
O326 Fe327 1.715 . S
Fe327 O325 1.886 . S
Fe327 O326 1.715 . S
Fe327 O331 2.077 . S
Fe327 O336 1.935 . S
Fe327 O338 2.077 . S
Fe327 O346 1.935 . S
C328 O340 1.381 . S
C328 O341 1.421 . S
O329 Fe320 2.077 . S
O329 C342 1.381 . S
O330 Fe323 1.935 1_565 S
O330 C342 1.421 . S
O331 Fe327 2.077 . S
O331 C347 1.381 . S
O332 Fe322 1.935 1_545 S
O332 C347 1.421 . S
O333 Fe322 2.077 . S
O333 C337 1.381 . S
O334 Fe320 1.935 . S
O334 C337 1.421 . S
O335 Fe323 2.077 . S
O335 C343 1.381 . S
O336 Fe327 1.935 . S
O336 C343 1.421 . S
C337 O333 1.381 . S
C337 O334 1.421 . S
O338 Fe327 2.077 . S
O338 C350 1.381 . S
O339 Fe322 1.935 1_545 S
O339 C350 1.421 . S
O340 Fe320 2.077 . S
O340 C328 1.381 . S
O341 Fe323 1.935 1_565 S
O341 C328 1.421 . S
C342 O329 1.381 . S
C342 O330 1.421 . S
C343 O335 1.381 . S
C343 O336 1.421 . S
C344 O345 1.381 . S
C344 O346 1.421 . S
O345 Fe323 2.077 . S
O345 C344 1.381 . S
O346 Fe327 1.935 . S
O346 C344 1.421 . S
C347 O331 1.381 . S
C347 O332 1.421 . S
O348 Fe322 2.077 . S
O348 C351 1.381 . S
O349 Fe320 1.935 . S
O349 C351 1.421 . S
C350 O338 1.381 . S
C350 O339 1.421 . S
C351 O348 1.381 . S
C351 O349 1.421 . S
H352 C360 0.929 . S
H353 C362 0.930 . S
H354 C364 0.930 . S
H355 C367 0.929 . S
H356 C370 0.930 . S
H357 C372 0.960 . S
H358 C372 0.960 . S
H359 C372 0.960 . S
C360 H352 0.929 . S
C360 C361 1.377 . S
C360 C362 1.384 . S
C361 C360 1.377 . S
C361 C367 1.390 . S
C362 H353 0.930 . S
C362 C360 1.384 . S
C362 C363 1.372 . S
C363 C362 1.372 . S
C363 C364 1.400 . S
C363 C368 1.490 . S
C364 H354 0.930 . S
C364 C363 1.400 . S
C364 C367 1.386 . S
H365 C381 0.930 . S
H366 C382 0.931 . S
C367 H355 0.929 . S
C367 C361 1.390 . S
C367 C364 1.386 . S
C368 C363 1.490 . S
C368 C370 1.395 . S
C368 C371 1.403 . S
H369 C375 0.930 . S
C370 H356 0.930 . S
C370 C368 1.395 . S
C370 C373 1.403 . S
C371 C368 1.403 . S
C371 C372 1.524 . S
C371 C375 1.400 . S
C372 H357 0.960 . S
C372 H358 0.960 . S
C372 H359 0.960 . S
C372 C371 1.524 . S
C373 C370 1.403 . S
C373 C374 1.392 . S
C373 C377 1.495 . S
C374 C373 1.392 . S
C374 C375 1.385 . S
C374 C376 1.478 . S
C375 H369 0.930 . S
C375 C371 1.400 . S
C375 C374 1.385 . S
C376 C374 1.478 . S
C376 C378 1.381 . S
C376 C382 1.383 . S
C377 C373 1.495 . S
C377 H383 0.959 . S
C377 H384 0.961 . S
C377 H385 0.960 . S
C378 C376 1.381 . S
C378 C379 1.394 . S
C378 H386 0.930 . S
C379 C378 1.394 . S
C379 C380 1.383 . S
C379 H387 0.929 . S
C380 C379 1.383 . S
C380 C381 1.377 . S
C381 H365 0.930 . S
C381 C380 1.377 . S
C381 C382 1.379 . S
C382 H366 0.931 . S
C382 C376 1.383 . S
C382 C381 1.379 . S
H383 C377 0.959 . S
H384 C377 0.961 . S
H385 C377 0.960 . S
H386 C378 0.930 . S
H387 C379 0.929 . S
H388 C396 0.929 . S
H389 C398 0.930 . S
H390 C400 0.930 . S
H391 C403 0.929 . S
H392 C406 0.930 . S
H393 C408 0.960 . S
H394 C408 0.960 . S
H395 C408 0.960 . S
C396 H388 0.929 . S
C396 C397 1.377 . S
C396 C398 1.384 . S
C397 C396 1.377 . S
C397 C403 1.390 . S
C398 H389 0.930 . S
C398 C396 1.384 . S
C398 C399 1.372 . S
C399 C398 1.372 . S
C399 C400 1.400 . S
C399 C404 1.490 . S
C400 H390 0.930 . S
C400 C399 1.400 . S
C400 C403 1.386 . S
H401 C417 0.930 . S
H402 C418 0.931 . S
C403 H391 0.929 . S
C403 C397 1.390 . S
C403 C400 1.386 . S
C404 C399 1.490 . S
C404 C406 1.395 . S
C404 C407 1.403 . S
H405 C411 0.930 . S
C406 H392 0.930 . S
C406 C404 1.395 . S
C406 C409 1.403 . S
C407 C404 1.403 . S
C407 C408 1.524 . S
C407 C411 1.400 . S
C408 H393 0.960 . S
C408 H394 0.960 . S
C408 H395 0.960 . S
C408 C407 1.524 . S
C409 C406 1.403 . S
C409 C410 1.392 . S
C409 C413 1.495 . S
C410 C409 1.392 . S
C410 C411 1.385 . S
C410 C412 1.478 . S
C411 H405 0.930 . S
C411 C407 1.400 . S
C411 C410 1.385 . S
C412 C410 1.478 . S
C412 C414 1.381 . S
C412 C418 1.383 . S
C413 C409 1.495 . S
C413 H419 0.959 . S
C413 H420 0.961 . S
C413 H421 0.960 . S
C414 C412 1.381 . S
C414 C415 1.394 . S
C414 H422 0.930 . S
C415 C414 1.394 . S
C415 C416 1.383 . S
C415 H423 0.929 . S
C416 C415 1.383 . S
C416 C417 1.377 . S
C417 H401 0.930 . S
C417 C416 1.377 . S
C417 C418 1.379 . S
C418 H402 0.931 . S
C418 C412 1.383 . S
C418 C417 1.379 . S
H419 C413 0.959 . S
H420 C413 0.961 . S
H421 C413 0.960 . S
H422 C414 0.930 . S
H423 C415 0.929 . S
H424 C432 0.929 . S
H425 C434 0.930 . S
H426 C436 0.930 . S
H427 C439 0.929 . S
H428 C442 0.930 . S
H429 C444 0.960 . S
H430 C444 0.960 . S
H431 C444 0.960 . S
C432 H424 0.929 . S
C432 C433 1.377 . S
C432 C434 1.384 . S
C433 C432 1.377 . S
C433 C439 1.390 . S
C434 H425 0.930 . S
C434 C432 1.384 . S
C434 C435 1.372 . S
C435 C434 1.372 . S
C435 C436 1.400 . S
C435 C440 1.490 . S
C436 H426 0.930 . S
C436 C435 1.400 . S
C436 C439 1.386 . S
H437 C453 0.930 . S
H438 C454 0.931 . S
C439 H427 0.929 . S
C439 C433 1.390 . S
C439 C436 1.386 . S
C440 C435 1.490 . S
C440 C442 1.395 . S
C440 C443 1.403 . S
H441 C447 0.930 . S
C442 H428 0.930 . S
C442 C440 1.395 . S
C442 C445 1.403 . S
C443 C440 1.403 . S
C443 C444 1.524 . S
C443 C447 1.400 . S
C444 H429 0.960 . S
C444 H430 0.960 . S
C444 H431 0.960 . S
C444 C443 1.524 . S
C445 C442 1.403 . S
C445 C446 1.392 . S
C445 C449 1.495 . S
C446 C445 1.392 . S
C446 C447 1.385 . S
C446 C448 1.478 . S
C447 H441 0.930 . S
C447 C443 1.400 . S
C447 C446 1.385 . S
C448 C446 1.478 . S
C448 C450 1.381 . S
C448 C454 1.383 . S
C449 C445 1.495 . S
C449 H455 0.959 . S
C449 H456 0.961 . S
C449 H457 0.960 . S
C450 C448 1.381 . S
C450 C451 1.394 . S
C450 H458 0.930 . S
C451 C450 1.394 . S
C451 C452 1.383 . S
C451 H459 0.929 . S
C452 C451 1.383 . S
C452 C453 1.377 . S
C453 H437 0.930 . S
C453 C452 1.377 . S
C453 C454 1.379 . S
C454 H438 0.931 . S
C454 C448 1.383 . S
C454 C453 1.379 . S
H455 C449 0.959 . S
H456 C449 0.961 . S
H457 C449 0.960 . S
H458 C450 0.930 . S
H459 C451 0.929 . S
H460 C468 0.929 . S
H461 C470 0.930 . S
H462 C472 0.930 . S
H463 C475 0.929 . S
H464 C478 0.930 . S
H465 C480 0.960 . S
H466 C480 0.960 . S
H467 C480 0.960 . S
C468 H460 0.929 . S
C468 C469 1.377 . S
C468 C470 1.384 . S
C469 C468 1.377 . S
C469 C475 1.390 . S
C470 H461 0.930 . S
C470 C468 1.384 . S
C470 C471 1.372 . S
C471 C470 1.372 . S
C471 C472 1.400 . S
C471 C476 1.490 . S
C472 H462 0.930 . S
C472 C471 1.400 . S
C472 C475 1.386 . S
H473 C489 0.930 . S
H474 C490 0.931 . S
C475 H463 0.929 . S
C475 C469 1.390 . S
C475 C472 1.386 . S
C476 C471 1.490 . S
C476 C478 1.395 . S
C476 C479 1.403 . S
H477 C483 0.930 . S
C478 H464 0.930 . S
C478 C476 1.395 . S
C478 C481 1.403 . S
C479 C476 1.403 . S
C479 C480 1.524 . S
C479 C483 1.400 . S
C480 H465 0.960 . S
C480 H466 0.960 . S
C480 H467 0.960 . S
C480 C479 1.524 . S
C481 C478 1.403 . S
C481 C482 1.392 . S
C481 C485 1.495 . S
C482 C481 1.392 . S
C482 C483 1.385 . S
C482 C484 1.478 . S
C483 H477 0.930 . S
C483 C479 1.400 . S
C483 C482 1.385 . S
C484 C482 1.478 . S
C484 C486 1.381 . S
C484 C490 1.383 . S
C485 C481 1.495 . S
C485 H491 0.959 . S
C485 H492 0.961 . S
C485 H493 0.960 . S
C486 C484 1.381 . S
C486 C487 1.394 . S
C486 H494 0.930 . S
C487 C486 1.394 . S
C487 C488 1.383 . S
C487 H495 0.929 . S
C488 C487 1.383 . S
C488 C489 1.377 . S
C489 H473 0.930 . S
C489 C488 1.377 . S
C489 C490 1.379 . S
C490 H474 0.931 . S
C490 C484 1.383 . S
C490 C489 1.379 . S
H491 C485 0.959 . S
H492 C485 0.961 . S
H493 C485 0.960 . S
H494 C486 0.930 . S
H495 C487 0.929 . S
H496 C504 0.929 . S
H497 C506 0.930 . S
H498 C508 0.930 . S
H499 C511 0.929 . S
H500 C514 0.930 . S
H501 C516 0.960 . S
H502 C516 0.960 . S
H503 C516 0.960 . S
C504 H496 0.929 . S
C504 C505 1.377 . S
C504 C506 1.384 . S
C505 C504 1.377 . S
C505 C511 1.390 . S
C506 H497 0.930 . S
C506 C504 1.384 . S
C506 C507 1.372 . S
C507 C506 1.372 . S
C507 C508 1.400 . S
C507 C512 1.490 . S
C508 H498 0.930 . S
C508 C507 1.400 . S
C508 C511 1.386 . S
H509 C525 0.930 . S
H510 C526 0.931 . S
C511 H499 0.929 . S
C511 C505 1.390 . S
C511 C508 1.386 . S
C512 C507 1.490 . S
C512 C514 1.395 . S
C512 C515 1.403 . S
H513 C519 0.930 . S
C514 H500 0.930 . S
C514 C512 1.395 . S
C514 C517 1.403 . S
C515 C512 1.403 . S
C515 C516 1.524 . S
C515 C519 1.400 . S
C516 H501 0.960 . S
C516 H502 0.960 . S
C516 H503 0.960 . S
C516 C515 1.524 . S
C517 C514 1.403 . S
C517 C518 1.392 . S
C517 C521 1.495 . S
C518 C517 1.392 . S
C518 C519 1.385 . S
C518 C520 1.478 . S
C519 H513 0.930 . S
C519 C515 1.400 . S
C519 C518 1.385 . S
C520 C518 1.478 . S
C520 C522 1.381 . S
C520 C526 1.383 . S
C521 C517 1.495 . S
C521 H527 0.959 . S
C521 H528 0.961 . S
C521 H529 0.960 . S
C522 C520 1.381 . S
C522 C523 1.394 . S
C522 H530 0.930 . S
C523 C522 1.394 . S
C523 C524 1.383 . S
C523 H531 0.929 . S
C524 C523 1.383 . S
C524 C525 1.377 . S
C525 H509 0.930 . S
C525 C524 1.377 . S
C525 C526 1.379 . S
C526 H510 0.931 . S
C526 C520 1.383 . S
C526 C525 1.379 . S
H527 C521 0.959 . S
H528 C521 0.961 . S
H529 C521 0.960 . S
H530 C522 0.930 . S
H531 C523 0.929 . S
H532 C540 0.929 . S
H533 C542 0.930 . S
H534 C544 0.930 . S
H535 C547 0.929 . S
H536 C550 0.930 . S
H537 C552 0.960 . S
H538 C552 0.960 . S
H539 C552 0.960 . S
C540 H532 0.929 . S
C540 C541 1.377 . S
C540 C542 1.384 . S
C541 C540 1.377 . S
C541 C547 1.390 . S
C542 H533 0.930 . S
C542 C540 1.384 . S
C542 C543 1.372 . S
C543 C542 1.372 . S
C543 C544 1.400 . S
C543 C548 1.490 . S
C544 H534 0.930 . S
C544 C543 1.400 . S
C544 C547 1.386 . S
H545 C561 0.930 . S
H546 C562 0.931 . S
C547 H535 0.929 . S
C547 C541 1.390 . S
C547 C544 1.386 . S
C548 C543 1.490 . S
C548 C550 1.395 . S
C548 C551 1.403 . S
H549 C555 0.930 . S
C550 H536 0.930 . S
C550 C548 1.395 . S
C550 C553 1.403 . S
C551 C548 1.403 . S
C551 C552 1.524 . S
C551 C555 1.400 . S
C552 H537 0.960 . S
C552 H538 0.960 . S
C552 H539 0.960 . S
C552 C551 1.524 . S
C553 C550 1.403 . S
C553 C554 1.392 . S
C553 C557 1.495 . S
C554 C553 1.392 . S
C554 C555 1.385 . S
C554 C556 1.478 . S
C555 H549 0.930 . S
C555 C551 1.400 . S
C555 C554 1.385 . S
C556 C554 1.478 . S
C556 C558 1.381 . S
C556 C562 1.383 . S
C557 C553 1.495 . S
C557 H563 0.959 . S
C557 H564 0.961 . S
C557 H565 0.960 . S
C558 C556 1.381 . S
C558 C559 1.394 . S
C558 H566 0.930 . S
C559 C558 1.394 . S
C559 C560 1.383 . S
C559 H567 0.929 . S
C560 C559 1.383 . S
C560 C561 1.377 . S
C561 H545 0.930 . S
C561 C560 1.377 . S
C561 C562 1.379 . S
C562 H546 0.931 . S
C562 C556 1.383 . S
C562 C561 1.379 . S
H563 C557 0.959 . S
H564 C557 0.961 . S
H565 C557 0.960 . S
H566 C558 0.930 . S
H567 C559 0.929 . S
H568 C576 0.929 . S
H569 C578 0.930 . S
H570 C580 0.930 . S
H571 C583 0.929 . S
H572 C586 0.930 . S
H573 C588 0.960 . S
H574 C588 0.960 . S
H575 C588 0.960 . S
C576 H568 0.929 . S
C576 C577 1.377 . S
C576 C578 1.384 . S
C577 C576 1.377 . S
C577 C583 1.390 . S
C578 H569 0.930 . S
C578 C576 1.384 . S
C578 C579 1.372 . S
C579 C578 1.372 . S
C579 C580 1.400 . S
C579 C584 1.490 . S
C580 H570 0.930 . S
C580 C579 1.400 . S
C580 C583 1.386 . S
H581 C597 0.930 . S
H582 C598 0.931 . S
C583 H571 0.929 . S
C583 C577 1.390 . S
C583 C580 1.386 . S
C584 C579 1.490 . S
C584 C586 1.395 . S
C584 C587 1.403 . S
H585 C591 0.930 . S
C586 H572 0.930 . S
C586 C584 1.395 . S
C586 C589 1.403 . S
C587 C584 1.403 . S
C587 C588 1.524 . S
C587 C591 1.400 . S
C588 H573 0.960 . S
C588 H574 0.960 . S
C588 H575 0.960 . S
C588 C587 1.524 . S
C589 C586 1.403 . S
C589 C590 1.392 . S
C589 C593 1.495 . S
C590 C589 1.392 . S
C590 C591 1.385 . S
C590 C592 1.478 . S
C591 H585 0.930 . S
C591 C587 1.400 . S
C591 C590 1.385 . S
C592 C590 1.478 . S
C592 C594 1.381 . S
C592 C598 1.383 . S
C593 C589 1.495 . S
C593 H599 0.959 . S
C593 H600 0.961 . S
C593 H601 0.960 . S
C594 C592 1.381 . S
C594 C595 1.394 . S
C594 H602 0.930 . S
C595 C594 1.394 . S
C595 C596 1.383 . S
C595 H603 0.929 . S
C596 C595 1.383 . S
C596 C597 1.377 . S
C597 H581 0.930 . S
C597 C596 1.377 . S
C597 C598 1.379 . S
C598 H582 0.931 . S
C598 C592 1.383 . S
C598 C597 1.379 . S
H599 C593 0.959 . S
H600 C593 0.961 . S
H601 C593 0.960 . S
H602 C594 0.930 . S
H603 C595 0.929 . S
H604 C612 0.929 . S
H605 C614 0.930 . S
H606 C616 0.930 . S
H607 C619 0.929 . S
H608 C622 0.930 . S
H609 C624 0.960 . S
H610 C624 0.960 . S
H611 C624 0.960 . S
C612 H604 0.929 . S
C612 C613 1.377 . S
C612 C614 1.384 . S
C613 C612 1.377 . S
C613 C619 1.390 . S
C614 H605 0.930 . S
C614 C612 1.384 . S
C614 C615 1.372 . S
C615 C614 1.372 . S
C615 C616 1.400 . S
C615 C620 1.490 . S
C616 H606 0.930 . S
C616 C615 1.400 . S
C616 C619 1.386 . S
H617 C633 0.930 . S
H618 C634 0.931 . S
C619 H607 0.929 . S
C619 C613 1.390 . S
C619 C616 1.386 . S
C620 C615 1.490 . S
C620 C622 1.395 . S
C620 C623 1.403 . S
H621 C627 0.930 . S
C622 H608 0.930 . S
C622 C620 1.395 . S
C622 C625 1.403 . S
C623 C620 1.403 . S
C623 C624 1.524 . S
C623 C627 1.400 . S
C624 H609 0.960 . S
C624 H610 0.960 . S
C624 H611 0.960 . S
C624 C623 1.524 . S
C625 C622 1.403 . S
C625 C626 1.392 . S
C625 C629 1.495 . S
C626 C625 1.392 . S
C626 C627 1.385 . S
C626 C628 1.478 . S
C627 H621 0.930 . S
C627 C623 1.400 . S
C627 C626 1.385 . S
C628 C626 1.478 . S
C628 C630 1.381 . S
C628 C634 1.383 . S
C629 C625 1.495 . S
C629 H635 0.959 . S
C629 H636 0.961 . S
C629 H637 0.960 . S
C630 C628 1.381 . S
C630 C631 1.394 . S
C630 H638 0.930 . S
C631 C630 1.394 . S
C631 C632 1.383 . S
C631 H639 0.929 . S
C632 C631 1.383 . S
C632 C633 1.377 . S
C633 H617 0.930 . S
C633 C632 1.377 . S
C633 C634 1.379 . S
C634 H618 0.931 . S
C634 C628 1.383 . S
C634 C633 1.379 . S
H635 C629 0.959 . S
H636 C629 0.961 . S
H637 C629 0.960 . S
H638 C630 0.930 . S
H639 C631 0.929 . S
H640 C648 0.929 . S
H641 C650 0.930 . S
H642 C652 0.930 . S
H643 C655 0.929 . S
H644 C658 0.930 . S
H645 C660 0.960 . S
H646 C660 0.960 . S
H647 C660 0.960 . S
C648 H640 0.929 . S
C648 C649 1.377 . S
C648 C650 1.384 . S
C649 C648 1.377 . S
C649 C655 1.390 . S
C650 H641 0.930 . S
C650 C648 1.384 . S
C650 C651 1.372 . S
C651 C650 1.372 . S
C651 C652 1.400 . S
C651 C656 1.490 . S
C652 H642 0.930 . S
C652 C651 1.400 . S
C652 C655 1.386 . S
H653 C669 0.930 . S
H654 C670 0.931 . S
C655 H643 0.929 . S
C655 C649 1.390 . S
C655 C652 1.386 . S
C656 C651 1.490 . S
C656 C658 1.395 . S
C656 C659 1.403 . S
H657 C663 0.930 . S
C658 H644 0.930 . S
C658 C656 1.395 . S
C658 C661 1.403 . S
C659 C656 1.403 . S
C659 C660 1.524 . S
C659 C663 1.400 . S
C660 H645 0.960 . S
C660 H646 0.960 . S
C660 H647 0.960 . S
C660 C659 1.524 . S
C661 C658 1.403 . S
C661 C662 1.392 . S
C661 C665 1.495 . S
C662 C661 1.392 . S
C662 C663 1.385 . S
C662 C664 1.478 . S
C663 H657 0.930 . S
C663 C659 1.400 . S
C663 C662 1.385 . S
C664 C662 1.478 . S
C664 C666 1.381 . S
C664 C670 1.383 . S
C665 C661 1.495 . S
C665 H671 0.959 . S
C665 H672 0.961 . S
C665 H673 0.960 . S
C666 C664 1.381 . S
C666 C667 1.394 . S
C666 H674 0.930 . S
C667 C666 1.394 . S
C667 C668 1.383 . S
C667 H675 0.929 . S
C668 C667 1.383 . S
C668 C669 1.377 . S
C669 H653 0.930 . S
C669 C668 1.377 . S
C669 C670 1.379 . S
C670 H654 0.931 . S
C670 C664 1.383 . S
C670 C669 1.379 . S
H671 C665 0.959 . S
H672 C665 0.961 . S
H673 C665 0.960 . S
H674 C666 0.930 . S
H675 C667 0.929 . S
H676 C684 0.929 . S
H677 C686 0.930 . S
H678 C688 0.930 . S
H679 C691 0.929 . S
H680 C694 0.930 . S
H681 C696 0.960 . S
H682 C696 0.960 . S
H683 C696 0.960 . S
C684 H676 0.929 . S
C684 C685 1.377 . S
C684 C686 1.384 . S
C685 C684 1.377 . S
C685 C691 1.390 . S
C686 H677 0.930 . S
C686 C684 1.384 . S
C686 C687 1.372 . S
C687 C686 1.372 . S
C687 C688 1.400 . S
C687 C692 1.490 . S
C688 H678 0.930 . S
C688 C687 1.400 . S
C688 C691 1.386 . S
H689 C705 0.930 . S
H690 C706 0.931 . S
C691 H679 0.929 . S
C691 C685 1.390 . S
C691 C688 1.386 . S
C692 C687 1.490 . S
C692 C694 1.395 . S
C692 C695 1.403 . S
H693 C699 0.930 . S
C694 H680 0.930 . S
C694 C692 1.395 . S
C694 C697 1.403 . S
C695 C692 1.403 . S
C695 C696 1.524 . S
C695 C699 1.400 . S
C696 H681 0.960 . S
C696 H682 0.960 . S
C696 H683 0.960 . S
C696 C695 1.524 . S
C697 C694 1.403 . S
C697 C698 1.392 . S
C697 C701 1.495 . S
C698 C697 1.392 . S
C698 C699 1.385 . S
C698 C700 1.478 . S
C699 H693 0.930 . S
C699 C695 1.400 . S
C699 C698 1.385 . S
C700 C698 1.478 . S
C700 C702 1.381 . S
C700 C706 1.383 . S
C701 C697 1.495 . S
C701 H707 0.959 . S
C701 H708 0.961 . S
C701 H709 0.960 . S
C702 C700 1.381 . S
C702 C703 1.394 . S
C702 H710 0.930 . S
C703 C702 1.394 . S
C703 C704 1.383 . S
C703 H711 0.929 . S
C704 C703 1.383 . S
C704 C705 1.377 . S
C705 H689 0.930 . S
C705 C704 1.377 . S
C705 C706 1.379 . S
C706 H690 0.931 . S
C706 C700 1.383 . S
C706 C705 1.379 . S
H707 C701 0.959 . S
H708 C701 0.961 . S
H709 C701 0.960 . S
H710 C702 0.930 . S
H711 C703 0.929 . S
H712 C720 0.929 . S
H713 C722 0.930 . S
H714 C724 0.930 . S
H715 C727 0.929 . S
H716 C730 0.930 . S
H717 C732 0.960 . S
H718 C732 0.960 . S
H719 C732 0.960 . S
C720 H712 0.929 . S
C720 C721 1.377 . S
C720 C722 1.384 . S
C721 C720 1.377 . S
C721 C727 1.390 . S
C722 H713 0.930 . S
C722 C720 1.384 . S
C722 C723 1.372 . S
C723 C722 1.372 . S
C723 C724 1.400 . S
C723 C728 1.490 . S
C724 H714 0.930 . S
C724 C723 1.400 . S
C724 C727 1.386 . S
H725 C741 0.930 . S
H726 C742 0.931 . S
C727 H715 0.929 . S
C727 C721 1.390 . S
C727 C724 1.386 . S
C728 C723 1.490 . S
C728 C730 1.395 . S
C728 C731 1.403 . S
H729 C735 0.930 . S
C730 H716 0.930 . S
C730 C728 1.395 . S
C730 C733 1.403 . S
C731 C728 1.403 . S
C731 C732 1.524 . S
C731 C735 1.400 . S
C732 H717 0.960 . S
C732 H718 0.960 . S
C732 H719 0.960 . S
C732 C731 1.524 . S
C733 C730 1.403 . S
C733 C734 1.392 . S
C733 C737 1.495 . S
C734 C733 1.392 . S
C734 C735 1.385 . S
C734 C736 1.478 . S
C735 H729 0.930 . S
C735 C731 1.400 . S
C735 C734 1.385 . S
C736 C734 1.478 . S
C736 C738 1.381 . S
C736 C742 1.383 . S
C737 C733 1.495 . S
C737 H743 0.959 . S
C737 H744 0.961 . S
C737 H745 0.960 . S
C738 C736 1.381 . S
C738 C739 1.394 . S
C738 H746 0.930 . S
C739 C738 1.394 . S
C739 C740 1.383 . S
C739 H747 0.929 . S
C740 C739 1.383 . S
C740 C741 1.377 . S
C741 H725 0.930 . S
C741 C740 1.377 . S
C741 C742 1.379 . S
C742 H726 0.931 . S
C742 C736 1.383 . S
C742 C741 1.379 . S
H743 C737 0.959 . S
H744 C737 0.961 . S
H745 C737 0.960 . S
H746 C738 0.930 . S
H747 C739 0.929 . S
H748 C756 0.929 . S
H749 C758 0.930 . S
H750 C760 0.930 . S
H751 C763 0.929 . S
H752 C766 0.930 . S
H753 C768 0.960 . S
H754 C768 0.960 . S
H755 C768 0.960 . S
C756 H748 0.929 . S
C756 C757 1.377 . S
C756 C758 1.384 . S
C757 C756 1.377 . S
C757 C763 1.390 . S
C758 H749 0.930 . S
C758 C756 1.384 . S
C758 C759 1.372 . S
C759 C758 1.372 . S
C759 C760 1.400 . S
C759 C764 1.490 . S
C760 H750 0.930 . S
C760 C759 1.400 . S
C760 C763 1.386 . S
H761 C777 0.930 . S
H762 C778 0.931 . S
C763 H751 0.929 . S
C763 C757 1.390 . S
C763 C760 1.386 . S
C764 C759 1.490 . S
C764 C766 1.395 . S
C764 C767 1.403 . S
H765 C771 0.930 . S
C766 H752 0.930 . S
C766 C764 1.395 . S
C766 C769 1.403 . S
C767 C764 1.403 . S
C767 C768 1.524 . S
C767 C771 1.400 . S
C768 H753 0.960 . S
C768 H754 0.960 . S
C768 H755 0.960 . S
C768 C767 1.524 . S
C769 C766 1.403 . S
C769 C770 1.392 . S
C769 C773 1.495 . S
C770 C769 1.392 . S
C770 C771 1.385 . S
C770 C772 1.478 . S
C771 H765 0.930 . S
C771 C767 1.400 . S
C771 C770 1.385 . S
C772 C770 1.478 . S
C772 C774 1.381 . S
C772 C778 1.383 . S
C773 C769 1.495 . S
C773 H779 0.959 . S
C773 H780 0.961 . S
C773 H781 0.960 . S
C774 C772 1.381 . S
C774 C775 1.394 . S
C774 H782 0.930 . S
C775 C774 1.394 . S
C775 C776 1.383 . S
C775 H783 0.929 . S
C776 C775 1.383 . S
C776 C777 1.377 . S
C777 H761 0.930 . S
C777 C776 1.377 . S
C777 C778 1.379 . S
C778 H762 0.931 . S
C778 C772 1.383 . S
C778 C777 1.379 . S
H779 C773 0.959 . S
H780 C773 0.961 . S
H781 C773 0.960 . S
H782 C774 0.930 . S
H783 C775 0.929 . S
H784 C792 0.929 . S
H785 C794 0.930 . S
H786 C796 0.930 . S
H787 C799 0.929 . S
H788 C802 0.930 . S
H789 C804 0.960 . S
H790 C804 0.960 . S
H791 C804 0.960 . S
C792 H784 0.929 . S
C792 C793 1.377 . S
C792 C794 1.384 . S
C793 C792 1.377 . S
C793 C799 1.390 . S
C794 H785 0.930 . S
C794 C792 1.384 . S
C794 C795 1.372 . S
C795 C794 1.372 . S
C795 C796 1.400 . S
C795 C800 1.490 . S
C796 H786 0.930 . S
C796 C795 1.400 . S
C796 C799 1.386 . S
H797 C813 0.930 . S
H798 C814 0.931 . S
C799 H787 0.929 . S
C799 C793 1.390 . S
C799 C796 1.386 . S
C800 C795 1.490 . S
C800 C802 1.395 . S
C800 C803 1.403 . S
H801 C807 0.930 . S
C802 H788 0.930 . S
C802 C800 1.395 . S
C802 C805 1.403 . S
C803 C800 1.403 . S
C803 C804 1.524 . S
C803 C807 1.400 . S
C804 H789 0.960 . S
C804 H790 0.960 . S
C804 H791 0.960 . S
C804 C803 1.524 . S
C805 C802 1.403 . S
C805 C806 1.392 . S
C805 C809 1.495 . S
C806 C805 1.392 . S
C806 C807 1.385 . S
C806 C808 1.478 . S
C807 H801 0.930 . S
C807 C803 1.400 . S
C807 C806 1.385 . S
C808 C806 1.478 . S
C808 C810 1.381 . S
C808 C814 1.383 . S
C809 C805 1.495 . S
C809 H815 0.959 . S
C809 H816 0.961 . S
C809 H817 0.960 . S
C810 C808 1.381 . S
C810 C811 1.394 . S
C810 H818 0.930 . S
C811 C810 1.394 . S
C811 C812 1.383 . S
C811 H819 0.929 . S
C812 C811 1.383 . S
C812 C813 1.377 . S
C813 H797 0.930 . S
C813 C812 1.377 . S
C813 C814 1.379 . S
C814 H798 0.931 . S
C814 C808 1.383 . S
C814 C813 1.379 . S
H815 C809 0.959 . S
H816 C809 0.961 . S
H817 C809 0.960 . S
H818 C810 0.930 . S
H819 C811 0.929 . S
H820 C828 0.929 . S
H821 C830 0.930 . S
H822 C832 0.930 . S
H823 C835 0.929 . S
H824 C838 0.930 . S
H825 C840 0.960 . S
H826 C840 0.960 . S
H827 C840 0.960 . S
C828 H820 0.929 . S
C828 C829 1.377 . S
C828 C830 1.384 . S
C829 C828 1.377 . S
C829 C835 1.390 . S
C830 H821 0.930 . S
C830 C828 1.384 . S
C830 C831 1.372 . S
C831 C830 1.372 . S
C831 C832 1.400 . S
C831 C836 1.490 . S
C832 H822 0.930 . S
C832 C831 1.400 . S
C832 C835 1.386 . S
H833 C849 0.930 . S
H834 C850 0.931 . S
C835 H823 0.929 . S
C835 C829 1.390 . S
C835 C832 1.386 . S
C836 C831 1.490 . S
C836 C838 1.395 . S
C836 C839 1.403 . S
H837 C843 0.930 . S
C838 H824 0.930 . S
C838 C836 1.395 . S
C838 C841 1.403 . S
C839 C836 1.403 . S
C839 C840 1.524 . S
C839 C843 1.400 . S
C840 H825 0.960 . S
C840 H826 0.960 . S
C840 H827 0.960 . S
C840 C839 1.524 . S
C841 C838 1.403 . S
C841 C842 1.392 . S
C841 C845 1.495 . S
C842 C841 1.392 . S
C842 C843 1.385 . S
C842 C844 1.478 . S
C843 H837 0.930 . S
C843 C839 1.400 . S
C843 C842 1.385 . S
C844 C842 1.478 . S
C844 C846 1.381 . S
C844 C850 1.383 . S
C845 C841 1.495 . S
C845 H851 0.959 . S
C845 H852 0.961 . S
C845 H853 0.960 . S
C846 C844 1.381 . S
C846 C847 1.394 . S
C846 H854 0.930 . S
C847 C846 1.394 . S
C847 C848 1.383 . S
C847 H855 0.929 . S
C848 C847 1.383 . S
C848 C849 1.377 . S
C849 H833 0.930 . S
C849 C848 1.377 . S
C849 C850 1.379 . S
C850 H834 0.931 . S
C850 C844 1.383 . S
C850 C849 1.379 . S
H851 C845 0.959 . S
H852 C845 0.961 . S
H853 C845 0.960 . S
H854 C846 0.930 . S
H855 C847 0.929 . S
H856 C864 0.929 . S
H857 C866 0.930 . S
H858 C868 0.930 . S
H859 C871 0.929 . S
H860 C874 0.930 . S
H861 C876 0.960 . S
H862 C876 0.960 . S
H863 C876 0.960 . S
C864 H856 0.929 . S
C864 C865 1.377 . S
C864 C866 1.384 . S
C865 C864 1.377 . S
C865 C871 1.390 . S
C866 H857 0.930 . S
C866 C864 1.384 . S
C866 C867 1.372 . S
C867 C866 1.372 . S
C867 C868 1.400 . S
C867 C872 1.490 . S
C868 H858 0.930 . S
C868 C867 1.400 . S
C868 C871 1.386 . S
H869 C885 0.930 . S
H870 C886 0.931 . S
C871 H859 0.929 . S
C871 C865 1.390 . S
C871 C868 1.386 . S
C872 C867 1.490 . S
C872 C874 1.395 . S
C872 C875 1.403 . S
H873 C879 0.930 . S
C874 H860 0.930 . S
C874 C872 1.395 . S
C874 C877 1.403 . S
C875 C872 1.403 . S
C875 C876 1.524 . S
C875 C879 1.400 . S
C876 H861 0.960 . S
C876 H862 0.960 . S
C876 H863 0.960 . S
C876 C875 1.524 . S
C877 C874 1.403 . S
C877 C878 1.392 . S
C877 C881 1.495 . S
C878 C877 1.392 . S
C878 C879 1.385 . S
C878 C880 1.478 . S
C879 H873 0.930 . S
C879 C875 1.400 . S
C879 C878 1.385 . S
C880 C878 1.478 . S
C880 C882 1.381 . S
C880 C886 1.383 . S
C881 C877 1.495 . S
C881 H887 0.959 . S
C881 H888 0.961 . S
C881 H889 0.960 . S
C882 C880 1.381 . S
C882 C883 1.394 . S
C882 H890 0.930 . S
C883 C882 1.394 . S
C883 C884 1.383 . S
C883 H891 0.929 . S
C884 C883 1.383 . S
C884 C885 1.377 . S
C885 H869 0.930 . S
C885 C884 1.377 . S
C885 C886 1.379 . S
C886 H870 0.931 . S
C886 C880 1.383 . S
C886 C885 1.379 . S
H887 C881 0.959 . S
H888 C881 0.961 . S
H889 C881 0.960 . S
H890 C882 0.930 . S
H891 C883 0.929 . S
H892 C900 0.929 . S
H893 C902 0.930 . S
H894 C904 0.930 . S
H895 C907 0.929 . S
H896 C910 0.930 . S
H897 C912 0.960 . S
H898 C912 0.960 . S
H899 C912 0.960 . S
C900 H892 0.929 . S
C900 C901 1.377 . S
C900 C902 1.384 . S
C901 C900 1.377 . S
C901 C907 1.390 . S
C902 H893 0.930 . S
C902 C900 1.384 . S
C902 C903 1.372 . S
C903 C902 1.372 . S
C903 C904 1.400 . S
C903 C908 1.490 . S
C904 H894 0.930 . S
C904 C903 1.400 . S
C904 C907 1.386 . S
H905 C921 0.930 . S
H906 C922 0.931 . S
C907 H895 0.929 . S
C907 C901 1.390 . S
C907 C904 1.386 . S
C908 C903 1.490 . S
C908 C910 1.395 . S
C908 C911 1.403 . S
H909 C915 0.930 . S
C910 H896 0.930 . S
C910 C908 1.395 . S
C910 C913 1.403 . S
C911 C908 1.403 . S
C911 C912 1.524 . S
C911 C915 1.400 . S
C912 H897 0.960 . S
C912 H898 0.960 . S
C912 H899 0.960 . S
C912 C911 1.524 . S
C913 C910 1.403 . S
C913 C914 1.392 . S
C913 C917 1.495 . S
C914 C913 1.392 . S
C914 C915 1.385 . S
C914 C916 1.478 . S
C915 H909 0.930 . S
C915 C911 1.400 . S
C915 C914 1.385 . S
C916 C914 1.478 . S
C916 C918 1.381 . S
C916 C922 1.383 . S
C917 C913 1.495 . S
C917 H923 0.959 . S
C917 H924 0.961 . S
C917 H925 0.960 . S
C918 C916 1.381 . S
C918 C919 1.394 . S
C918 H926 0.930 . S
C919 C918 1.394 . S
C919 C920 1.383 . S
C919 H927 0.929 . S
C920 C919 1.383 . S
C920 C921 1.377 . S
C921 H905 0.930 . S
C921 C920 1.377 . S
C921 C922 1.379 . S
C922 H906 0.931 . S
C922 C916 1.383 . S
C922 C921 1.379 . S
H923 C917 0.959 . S
H924 C917 0.961 . S
H925 C917 0.960 . S
H926 C918 0.930 . S
H927 C919 0.929 . S
H928 C936 0.929 . S
H929 C938 0.930 . S
H930 C940 0.930 . S
H931 C943 0.929 . S
H932 C946 0.930 . S
H933 C948 0.960 . S
H934 C948 0.960 . S
H935 C948 0.960 . S
C936 H928 0.929 . S
C936 C937 1.377 . S
C936 C938 1.384 . S
C937 C936 1.377 . S
C937 C943 1.390 . S
C938 H929 0.930 . S
C938 C936 1.384 . S
C938 C939 1.372 . S
C939 C938 1.372 . S
C939 C940 1.400 . S
C939 C944 1.490 . S
C940 H930 0.930 . S
C940 C939 1.400 . S
C940 C943 1.386 . S
H941 C957 0.930 . S
H942 C958 0.931 . S
C943 H931 0.929 . S
C943 C937 1.390 . S
C943 C940 1.386 . S
C944 C939 1.490 . S
C944 C946 1.395 . S
C944 C947 1.403 . S
H945 C951 0.930 . S
C946 H932 0.930 . S
C946 C944 1.395 . S
C946 C949 1.403 . S
C947 C944 1.403 . S
C947 C948 1.524 . S
C947 C951 1.400 . S
C948 H933 0.960 . S
C948 H934 0.960 . S
C948 H935 0.960 . S
C948 C947 1.524 . S
C949 C946 1.403 . S
C949 C950 1.392 . S
C949 C953 1.495 . S
C950 C949 1.392 . S
C950 C951 1.385 . S
C950 C952 1.478 . S
C951 H945 0.930 . S
C951 C947 1.400 . S
C951 C950 1.385 . S
C952 C950 1.478 . S
C952 C954 1.381 . S
C952 C958 1.383 . S
C953 C949 1.495 . S
C953 H959 0.959 . S
C953 H960 0.961 . S
C953 H961 0.960 . S
C954 C952 1.381 . S
C954 C955 1.394 . S
C954 H962 0.930 . S
C955 C954 1.394 . S
C955 C956 1.383 . S
C955 H963 0.929 . S
C956 C955 1.383 . S
C956 C957 1.377 . S
C957 H941 0.930 . S
C957 C956 1.377 . S
C957 C958 1.379 . S
C958 H942 0.931 . S
C958 C952 1.383 . S
C958 C957 1.379 . S
H959 C953 0.959 . S
H960 C953 0.961 . S
H961 C953 0.960 . S
H962 C954 0.930 . S
H963 C955 0.929 . S
H964 C972 0.929 . S
H965 C974 0.930 . S
H966 C976 0.930 . S
H967 C979 0.929 . S
H968 C982 0.930 . S
H969 C984 0.960 . S
H970 C984 0.960 . S
H971 C984 0.960 . S
C972 H964 0.929 . S
C972 C973 1.377 . S
C972 C974 1.384 . S
C973 C972 1.377 . S
C973 C979 1.390 . S
C974 H965 0.930 . S
C974 C972 1.384 . S
C974 C975 1.372 . S
C975 C974 1.372 . S
C975 C976 1.400 . S
C975 C980 1.490 . S
C976 H966 0.930 . S
C976 C975 1.400 . S
C976 C979 1.386 . S
H977 C993 0.930 . S
H978 C994 0.931 . S
C979 H967 0.929 . S
C979 C973 1.390 . S
C979 C976 1.386 . S
C980 C975 1.490 . S
C980 C982 1.395 . S
C980 C983 1.403 . S
H981 C987 0.930 . S
C982 H968 0.930 . S
C982 C980 1.395 . S
C982 C985 1.403 . S
C983 C980 1.403 . S
C983 C984 1.524 . S
C983 C987 1.400 . S
C984 H969 0.960 . S
C984 H970 0.960 . S
C984 H971 0.960 . S
C984 C983 1.524 . S
C985 C982 1.403 . S
C985 C986 1.392 . S
C985 C989 1.495 . S
C986 C985 1.392 . S
C986 C987 1.385 . S
C986 C988 1.478 . S
C987 H981 0.930 . S
C987 C983 1.400 . S
C987 C986 1.385 . S
C988 C986 1.478 . S
C988 C990 1.381 . S
C988 C994 1.383 . S
C989 C985 1.495 . S
C989 H995 0.959 . S
C989 H996 0.961 . S
C989 H997 0.960 . S
C990 C988 1.381 . S
C990 C991 1.394 . S
C990 H998 0.930 . S
C991 C990 1.394 . S
C991 C992 1.383 . S
C991 H999 0.929 . S
C992 C991 1.383 . S
C992 C993 1.377 . S
C993 H977 0.930 . S
C993 C992 1.377 . S
C993 C994 1.379 . S
C994 H978 0.931 . S
C994 C988 1.383 . S
C994 C993 1.379 . S
H995 C989 0.959 . S
H996 C989 0.961 . S
H997 C989 0.960 . S
H998 C990 0.930 . S
H999 C991 0.929 . S
H1000 C1008 0.929 . S
H1001 C1010 0.930 . S
H1002 C1012 0.930 . S
H1003 C1015 0.929 . S
H1004 C1018 0.930 . S
H1005 C1020 0.960 . S
H1006 C1020 0.960 . S
H1007 C1020 0.960 . S
C1008 H1000 0.929 . S
C1008 C1009 1.377 . S
C1008 C1010 1.384 . S
C1009 C1008 1.377 . S
C1009 C1015 1.390 . S
C1010 H1001 0.930 . S
C1010 C1008 1.384 . S
C1010 C1011 1.372 . S
C1011 C1010 1.372 . S
C1011 C1012 1.400 . S
C1011 C1016 1.490 . S
C1012 H1002 0.930 . S
C1012 C1011 1.400 . S
C1012 C1015 1.386 . S
H1013 C1029 0.930 . S
H1014 C1030 0.931 . S
C1015 H1003 0.929 . S
C1015 C1009 1.390 . S
C1015 C1012 1.386 . S
C1016 C1011 1.490 . S
C1016 C1018 1.395 . S
C1016 C1019 1.403 . S
H1017 C1023 0.930 . S
C1018 H1004 0.930 . S
C1018 C1016 1.395 . S
C1018 C1021 1.403 . S
C1019 C1016 1.403 . S
C1019 C1020 1.524 . S
C1019 C1023 1.400 . S
C1020 H1005 0.960 . S
C1020 H1006 0.960 . S
C1020 H1007 0.960 . S
C1020 C1019 1.524 . S
C1021 C1018 1.403 . S
C1021 C1022 1.392 . S
C1021 C1025 1.495 . S
C1022 C1021 1.392 . S
C1022 C1023 1.385 . S
C1022 C1024 1.478 . S
C1023 H1017 0.930 . S
C1023 C1019 1.400 . S
C1023 C1022 1.385 . S
C1024 C1022 1.478 . S
C1024 C1026 1.381 . S
C1024 C1030 1.383 . S
C1025 C1021 1.495 . S
C1025 H1031 0.959 . S
C1025 H1032 0.961 . S
C1025 H1033 0.960 . S
C1026 C1024 1.381 . S
C1026 C1027 1.394 . S
C1026 H1034 0.930 . S
C1027 C1026 1.394 . S
C1027 C1028 1.383 . S
C1027 H1035 0.929 . S
C1028 C1027 1.383 . S
C1028 C1029 1.377 . S
C1029 H1013 0.930 . S
C1029 C1028 1.377 . S
C1029 C1030 1.379 . S
C1030 H1014 0.931 . S
C1030 C1024 1.383 . S
C1030 C1029 1.379 . S
H1031 C1025 0.959 . S
H1032 C1025 0.961 . S
H1033 C1025 0.960 . S
H1034 C1026 0.930 . S
H1035 C1027 0.929 . S
H1036 C1044 0.929 . S
H1037 C1046 0.930 . S
H1038 C1048 0.930 . S
H1039 C1051 0.929 . S
H1040 C1054 0.930 . S
H1041 C1056 0.960 . S
H1042 C1056 0.960 . S
H1043 C1056 0.960 . S
C1044 H1036 0.929 . S
C1044 C1045 1.377 . S
C1044 C1046 1.384 . S
C1045 C1044 1.377 . S
C1045 C1051 1.390 . S
C1046 H1037 0.930 . S
C1046 C1044 1.384 . S
C1046 C1047 1.372 . S
C1047 C1046 1.372 . S
C1047 C1048 1.400 . S
C1047 C1052 1.490 . S
C1048 H1038 0.930 . S
C1048 C1047 1.400 . S
C1048 C1051 1.386 . S
H1049 C1065 0.930 . S
H1050 C1066 0.931 . S
C1051 H1039 0.929 . S
C1051 C1045 1.390 . S
C1051 C1048 1.386 . S
C1052 C1047 1.490 . S
C1052 C1054 1.395 . S
C1052 C1055 1.403 . S
H1053 C1059 0.930 . S
C1054 H1040 0.930 . S
C1054 C1052 1.395 . S
C1054 C1057 1.403 . S
C1055 C1052 1.403 . S
C1055 C1056 1.524 . S
C1055 C1059 1.400 . S
C1056 H1041 0.960 . S
C1056 H1042 0.960 . S
C1056 H1043 0.960 . S
C1056 C1055 1.524 . S
C1057 C1054 1.403 . S
C1057 C1058 1.392 . S
C1057 C1061 1.495 . S
C1058 C1057 1.392 . S
C1058 C1059 1.385 . S
C1058 C1060 1.478 . S
C1059 H1053 0.930 . S
C1059 C1055 1.400 . S
C1059 C1058 1.385 . S
C1060 C1058 1.478 . S
C1060 C1062 1.381 . S
C1060 C1066 1.383 . S
C1061 C1057 1.495 . S
C1061 H1067 0.959 . S
C1061 H1068 0.961 . S
C1061 H1069 0.960 . S
C1062 C1060 1.381 . S
C1062 C1063 1.394 . S
C1062 H1070 0.930 . S
C1063 C1062 1.394 . S
C1063 C1064 1.383 . S
C1063 H1071 0.929 . S
C1064 C1063 1.383 . S
C1064 C1065 1.377 . S
C1065 H1049 0.930 . S
C1065 C1064 1.377 . S
C1065 C1066 1.379 . S
C1066 H1050 0.931 . S
C1066 C1060 1.383 . S
C1066 C1065 1.379 . S
H1067 C1061 0.959 . S
H1068 C1061 0.961 . S
H1069 C1061 0.960 . S
H1070 C1062 0.930 . S
H1071 C1063 0.929 . S
H1072 C1080 0.929 . S
H1073 C1082 0.930 . S
H1074 C1084 0.930 . S
H1075 C1087 0.929 . S
H1076 C1090 0.930 . S
H1077 C1092 0.960 . S
H1078 C1092 0.960 . S
H1079 C1092 0.960 . S
C1080 H1072 0.929 . S
C1080 C1081 1.377 . S
C1080 C1082 1.384 . S
C1081 C1080 1.377 . S
C1081 C1087 1.390 . S
C1082 H1073 0.930 . S
C1082 C1080 1.384 . S
C1082 C1083 1.372 . S
C1083 C1082 1.372 . S
C1083 C1084 1.400 . S
C1083 C1088 1.490 . S
C1084 H1074 0.930 . S
C1084 C1083 1.400 . S
C1084 C1087 1.386 . S
H1085 C1101 0.930 . S
H1086 C1102 0.931 . S
C1087 H1075 0.929 . S
C1087 C1081 1.390 . S
C1087 C1084 1.386 . S
C1088 C1083 1.490 . S
C1088 C1090 1.395 . S
C1088 C1091 1.403 . S
H1089 C1095 0.930 . S
C1090 H1076 0.930 . S
C1090 C1088 1.395 . S
C1090 C1093 1.403 . S
C1091 C1088 1.403 . S
C1091 C1092 1.524 . S
C1091 C1095 1.400 . S
C1092 H1077 0.960 . S
C1092 H1078 0.960 . S
C1092 H1079 0.960 . S
C1092 C1091 1.524 . S
C1093 C1090 1.403 . S
C1093 C1094 1.392 . S
C1093 C1097 1.495 . S
C1094 C1093 1.392 . S
C1094 C1095 1.385 . S
C1094 C1096 1.478 . S
C1095 H1089 0.930 . S
C1095 C1091 1.400 . S
C1095 C1094 1.385 . S
C1096 C1094 1.478 . S
C1096 C1098 1.381 . S
C1096 C1102 1.383 . S
C1097 C1093 1.495 . S
C1097 H1103 0.959 . S
C1097 H1104 0.961 . S
C1097 H1105 0.960 . S
C1098 C1096 1.381 . S
C1098 C1099 1.394 . S
C1098 H1106 0.930 . S
C1099 C1098 1.394 . S
C1099 C1100 1.383 . S
C1099 H1107 0.929 . S
C1100 C1099 1.383 . S
C1100 C1101 1.377 . S
C1101 H1085 0.930 . S
C1101 C1100 1.377 . S
C1101 C1102 1.379 . S
C1102 H1086 0.931 . S
C1102 C1096 1.383 . S
C1102 C1101 1.379 . S
H1103 C1097 0.959 . S
H1104 C1097 0.961 . S
H1105 C1097 0.960 . S
H1106 C1098 0.930 . S
H1107 C1099 0.929 . S
H1108 C1116 0.929 . S
H1109 C1118 0.930 . S
H1110 C1120 0.930 . S
H1111 C1123 0.929 . S
H1112 C1126 0.930 . S
H1113 C1128 0.960 . S
H1114 C1128 0.960 . S
H1115 C1128 0.960 . S
C1116 H1108 0.929 . S
C1116 C1117 1.377 . S
C1116 C1118 1.384 . S
C1117 C1116 1.377 . S
C1117 C1123 1.390 . S
C1118 H1109 0.930 . S
C1118 C1116 1.384 . S
C1118 C1119 1.372 . S
C1119 C1118 1.372 . S
C1119 C1120 1.400 . S
C1119 C1124 1.490 . S
C1120 H1110 0.930 . S
C1120 C1119 1.400 . S
C1120 C1123 1.386 . S
H1121 C1137 0.930 . S
H1122 C1138 0.931 . S
C1123 H1111 0.929 . S
C1123 C1117 1.390 . S
C1123 C1120 1.386 . S
C1124 C1119 1.490 . S
C1124 C1126 1.395 . S
C1124 C1127 1.403 . S
H1125 C1131 0.930 . S
C1126 H1112 0.930 . S
C1126 C1124 1.395 . S
C1126 C1129 1.403 . S
C1127 C1124 1.403 . S
C1127 C1128 1.524 . S
C1127 C1131 1.400 . S
C1128 H1113 0.960 . S
C1128 H1114 0.960 . S
C1128 H1115 0.960 . S
C1128 C1127 1.524 . S
C1129 C1126 1.403 . S
C1129 C1130 1.392 . S
C1129 C1133 1.495 . S
C1130 C1129 1.392 . S
C1130 C1131 1.385 . S
C1130 C1132 1.478 . S
C1131 H1125 0.930 . S
C1131 C1127 1.400 . S
C1131 C1130 1.385 . S
C1132 C1130 1.478 . S
C1132 C1134 1.381 . S
C1132 C1138 1.383 . S
C1133 C1129 1.495 . S
C1133 H1139 0.959 . S
C1133 H1140 0.961 . S
C1133 H1141 0.960 . S
C1134 C1132 1.381 . S
C1134 C1135 1.394 . S
C1134 H1142 0.930 . S
C1135 C1134 1.394 . S
C1135 C1136 1.383 . S
C1135 H1143 0.929 . S
C1136 C1135 1.383 . S
C1136 C1137 1.377 . S
C1137 H1121 0.930 . S
C1137 C1136 1.377 . S
C1137 C1138 1.379 . S
C1138 H1122 0.931 . S
C1138 C1132 1.383 . S
C1138 C1137 1.379 . S
H1139 C1133 0.959 . S
H1140 C1133 0.961 . S
H1141 C1133 0.960 . S
H1142 C1134 0.930 . S
H1143 C1135 0.929 . S
H1144 C1152 0.929 . S
H1145 C1154 0.930 . S
H1146 C1156 0.930 . S
H1147 C1159 0.929 . S
H1148 C1162 0.930 . S
H1149 C1164 0.960 . S
H1150 C1164 0.960 . S
H1151 C1164 0.960 . S
C1152 H1144 0.929 . S
C1152 C1153 1.377 . S
C1152 C1154 1.384 . S
C1153 C1152 1.377 . S
C1153 C1159 1.390 . S
C1154 H1145 0.930 . S
C1154 C1152 1.384 . S
C1154 C1155 1.372 . S
C1155 C1154 1.372 . S
C1155 C1156 1.400 . S
C1155 C1160 1.490 . S
C1156 H1146 0.930 . S
C1156 C1155 1.400 . S
C1156 C1159 1.386 . S
H1157 C1173 0.930 . S
H1158 C1174 0.931 . S
C1159 H1147 0.929 . S
C1159 C1153 1.390 . S
C1159 C1156 1.386 . S
C1160 C1155 1.490 . S
C1160 C1162 1.395 . S
C1160 C1163 1.403 . S
H1161 C1167 0.930 . S
C1162 H1148 0.930 . S
C1162 C1160 1.395 . S
C1162 C1165 1.403 . S
C1163 C1160 1.403 . S
C1163 C1164 1.524 . S
C1163 C1167 1.400 . S
C1164 H1149 0.960 . S
C1164 H1150 0.960 . S
C1164 H1151 0.960 . S
C1164 C1163 1.524 . S
C1165 C1162 1.403 . S
C1165 C1166 1.392 . S
C1165 C1169 1.495 . S
C1166 C1165 1.392 . S
C1166 C1167 1.385 . S
C1166 C1168 1.478 . S
C1167 H1161 0.930 . S
C1167 C1163 1.400 . S
C1167 C1166 1.385 . S
C1168 C1166 1.478 . S
C1168 C1170 1.381 . S
C1168 C1174 1.383 . S
C1169 C1165 1.495 . S
C1169 H1175 0.959 . S
C1169 H1176 0.961 . S
C1169 H1177 0.960 . S
C1170 C1168 1.381 . S
C1170 C1171 1.394 . S
C1170 H1178 0.930 . S
C1171 C1170 1.394 . S
C1171 C1172 1.383 . S
C1171 H1179 0.929 . S
C1172 C1171 1.383 . S
C1172 C1173 1.377 . S
C1173 H1157 0.930 . S
C1173 C1172 1.377 . S
C1173 C1174 1.379 . S
C1174 H1158 0.931 . S
C1174 C1168 1.383 . S
C1174 C1173 1.379 . S
H1175 C1169 0.959 . S
H1176 C1169 0.961 . S
H1177 C1169 0.960 . S
H1178 C1170 0.930 . S
H1179 C1171 0.929 . S
H1180 C1188 0.929 . S
H1181 C1190 0.930 . S
H1182 C1192 0.930 . S
H1183 C1195 0.929 . S
H1184 C1198 0.930 . S
H1185 C1200 0.960 . S
H1186 C1200 0.960 . S
H1187 C1200 0.960 . S
C1188 H1180 0.929 . S
C1188 C1189 1.377 . S
C1188 C1190 1.384 . S
C1189 C1188 1.377 . S
C1189 C1195 1.390 . S
C1190 H1181 0.930 . S
C1190 C1188 1.384 . S
C1190 C1191 1.372 . S
C1191 C1190 1.372 . S
C1191 C1192 1.400 . S
C1191 C1196 1.490 . S
C1192 H1182 0.930 . S
C1192 C1191 1.400 . S
C1192 C1195 1.386 . S
H1193 C1209 0.930 . S
H1194 C1210 0.931 . S
C1195 H1183 0.929 . S
C1195 C1189 1.390 . S
C1195 C1192 1.386 . S
C1196 C1191 1.490 . S
C1196 C1198 1.395 . S
C1196 C1199 1.403 . S
H1197 C1203 0.930 . S
C1198 H1184 0.930 . S
C1198 C1196 1.395 . S
C1198 C1201 1.403 . S
C1199 C1196 1.403 . S
C1199 C1200 1.524 . S
C1199 C1203 1.400 . S
C1200 H1185 0.960 . S
C1200 H1186 0.960 . S
C1200 H1187 0.960 . S
C1200 C1199 1.524 . S
C1201 C1198 1.403 . S
C1201 C1202 1.392 . S
C1201 C1205 1.495 . S
C1202 C1201 1.392 . S
C1202 C1203 1.385 . S
C1202 C1204 1.478 . S
C1203 H1197 0.930 . S
C1203 C1199 1.400 . S
C1203 C1202 1.385 . S
C1204 C1202 1.478 . S
C1204 C1206 1.381 . S
C1204 C1210 1.383 . S
C1205 C1201 1.495 . S
C1205 H1211 0.959 . S
C1205 H1212 0.961 . S
C1205 H1213 0.960 . S
C1206 C1204 1.381 . S
C1206 C1207 1.394 . S
C1206 H1214 0.930 . S
C1207 C1206 1.394 . S
C1207 C1208 1.383 . S
C1207 H1215 0.929 . S
C1208 C1207 1.383 . S
C1208 C1209 1.377 . S
C1209 H1193 0.930 . S
C1209 C1208 1.377 . S
C1209 C1210 1.379 . S
C1210 H1194 0.931 . S
C1210 C1204 1.383 . S
C1210 C1209 1.379 . S
H1211 C1205 0.959 . S
H1212 C1205 0.961 . S
H1213 C1205 0.960 . S
H1214 C1206 0.930 . S
H1215 C1207 0.929 . S
H1216 C1224 0.929 . S
H1217 C1226 0.930 . S
H1218 C1228 0.930 . S
H1219 C1231 0.929 . S
H1220 C1234 0.930 . S
H1221 C1236 0.960 . S
H1222 C1236 0.960 . S
H1223 C1236 0.960 . S
C1224 H1216 0.929 . S
C1224 C1225 1.377 . S
C1224 C1226 1.384 . S
C1225 C1224 1.377 . S
C1225 C1231 1.390 . S
C1226 H1217 0.930 . S
C1226 C1224 1.384 . S
C1226 C1227 1.372 . S
C1227 C1226 1.372 . S
C1227 C1228 1.400 . S
C1227 C1232 1.490 . S
C1228 H1218 0.930 . S
C1228 C1227 1.400 . S
C1228 C1231 1.386 . S
H1229 C1245 0.930 . S
H1230 C1246 0.931 . S
C1231 H1219 0.929 . S
C1231 C1225 1.390 . S
C1231 C1228 1.386 . S
C1232 C1227 1.490 . S
C1232 C1234 1.395 . S
C1232 C1235 1.403 . S
H1233 C1239 0.930 . S
C1234 H1220 0.930 . S
C1234 C1232 1.395 . S
C1234 C1237 1.403 . S
C1235 C1232 1.403 . S
C1235 C1236 1.524 . S
C1235 C1239 1.400 . S
C1236 H1221 0.960 . S
C1236 H1222 0.960 . S
C1236 H1223 0.960 . S
C1236 C1235 1.524 . S
C1237 C1234 1.403 . S
C1237 C1238 1.392 . S
C1237 C1241 1.495 . S
C1238 C1237 1.392 . S
C1238 C1239 1.385 . S
C1238 C1240 1.478 . S
C1239 H1233 0.930 . S
C1239 C1235 1.400 . S
C1239 C1238 1.385 . S
C1240 C1238 1.478 . S
C1240 C1242 1.381 . S
C1240 C1246 1.383 . S
C1241 C1237 1.495 . S
C1241 H1247 0.959 . S
C1241 H1248 0.961 . S
C1241 H1249 0.960 . S
C1242 C1240 1.381 . S
C1242 C1243 1.394 . S
C1242 H1250 0.930 . S
C1243 C1242 1.394 . S
C1243 C1244 1.383 . S
C1243 H1251 0.929 . S
C1244 C1243 1.383 . S
C1244 C1245 1.377 . S
C1245 H1229 0.930 . S
C1245 C1244 1.377 . S
C1245 C1246 1.379 . S
C1246 H1230 0.931 . S
C1246 C1240 1.383 . S
C1246 C1245 1.379 . S
H1247 C1241 0.959 . S
H1248 C1241 0.961 . S
H1249 C1241 0.960 . S
H1250 C1242 0.930 . S
H1251 C1243 0.929 . S
H1252 C1260 0.929 . S
H1253 C1262 0.930 . S
H1254 C1264 0.930 . S
H1255 C1267 0.929 . S
H1256 C1270 0.930 . S
H1257 C1272 0.960 . S
H1258 C1272 0.960 . S
H1259 C1272 0.960 . S
C1260 H1252 0.929 . S
C1260 C1261 1.377 . S
C1260 C1262 1.384 . S
C1261 C1260 1.377 . S
C1261 C1267 1.390 . S
C1262 H1253 0.930 . S
C1262 C1260 1.384 . S
C1262 C1263 1.372 . S
C1263 C1262 1.372 . S
C1263 C1264 1.400 . S
C1263 C1268 1.490 . S
C1264 H1254 0.930 . S
C1264 C1263 1.400 . S
C1264 C1267 1.386 . S
H1265 C1281 0.930 . S
H1266 C1282 0.931 . S
C1267 H1255 0.929 . S
C1267 C1261 1.390 . S
C1267 C1264 1.386 . S
C1268 C1263 1.490 . S
C1268 C1270 1.395 . S
C1268 C1271 1.403 . S
H1269 C1275 0.930 . S
C1270 H1256 0.930 . S
C1270 C1268 1.395 . S
C1270 C1273 1.403 . S
C1271 C1268 1.403 . S
C1271 C1272 1.524 . S
C1271 C1275 1.400 . S
C1272 H1257 0.960 . S
C1272 H1258 0.960 . S
C1272 H1259 0.960 . S
C1272 C1271 1.524 . S
C1273 C1270 1.403 . S
C1273 C1274 1.392 . S
C1273 C1277 1.495 . S
C1274 C1273 1.392 . S
C1274 C1275 1.385 . S
C1274 C1276 1.478 . S
C1275 H1269 0.930 . S
C1275 C1271 1.400 . S
C1275 C1274 1.385 . S
C1276 C1274 1.478 . S
C1276 C1278 1.381 . S
C1276 C1282 1.383 . S
C1277 C1273 1.495 . S
C1277 H1283 0.959 . S
C1277 H1284 0.961 . S
C1277 H1285 0.960 . S
C1278 C1276 1.381 . S
C1278 C1279 1.394 . S
C1278 H1286 0.930 . S
C1279 C1278 1.394 . S
C1279 C1280 1.383 . S
C1279 H1287 0.929 . S
C1280 C1279 1.383 . S
C1280 C1281 1.377 . S
C1281 H1265 0.930 . S
C1281 C1280 1.377 . S
C1281 C1282 1.379 . S
C1282 H1266 0.931 . S
C1282 C1276 1.383 . S
C1282 C1281 1.379 . S
H1283 C1277 0.959 . S
H1284 C1277 0.961 . S
H1285 C1277 0.960 . S
H1286 C1278 0.930 . S
H1287 C1279 0.929 . S
H1288 C1296 0.929 . S
H1289 C1298 0.930 . S
H1290 C1300 0.930 . S
H1291 C1303 0.929 . S
H1292 C1306 0.930 . S
H1293 C1308 0.960 . S
H1294 C1308 0.960 . S
H1295 C1308 0.960 . S
C1296 H1288 0.929 . S
C1296 C1297 1.377 . S
C1296 C1298 1.384 . S
C1297 C1296 1.377 . S
C1297 C1303 1.390 . S
C1298 H1289 0.930 . S
C1298 C1296 1.384 . S
C1298 C1299 1.372 . S
C1299 C1298 1.372 . S
C1299 C1300 1.400 . S
C1299 C1304 1.490 . S
C1300 H1290 0.930 . S
C1300 C1299 1.400 . S
C1300 C1303 1.386 . S
H1301 C1317 0.930 . S
H1302 C1318 0.931 . S
C1303 H1291 0.929 . S
C1303 C1297 1.390 . S
C1303 C1300 1.386 . S
C1304 C1299 1.490 . S
C1304 C1306 1.395 . S
C1304 C1307 1.403 . S
H1305 C1311 0.930 . S
C1306 H1292 0.930 . S
C1306 C1304 1.395 . S
C1306 C1309 1.403 . S
C1307 C1304 1.403 . S
C1307 C1308 1.524 . S
C1307 C1311 1.400 . S
C1308 H1293 0.960 . S
C1308 H1294 0.960 . S
C1308 H1295 0.960 . S
C1308 C1307 1.524 . S
C1309 C1306 1.403 . S
C1309 C1310 1.392 . S
C1309 C1313 1.495 . S
C1310 C1309 1.392 . S
C1310 C1311 1.385 . S
C1310 C1312 1.478 . S
C1311 H1305 0.930 . S
C1311 C1307 1.400 . S
C1311 C1310 1.385 . S
C1312 C1310 1.478 . S
C1312 C1314 1.381 . S
C1312 C1318 1.383 . S
C1313 C1309 1.495 . S
C1313 H1319 0.959 . S
C1313 H1320 0.961 . S
C1313 H1321 0.960 . S
C1314 C1312 1.381 . S
C1314 C1315 1.394 . S
C1314 H1322 0.930 . S
C1315 C1314 1.394 . S
C1315 C1316 1.383 . S
C1315 H1323 0.929 . S
C1316 C1315 1.383 . S
C1316 C1317 1.377 . S
C1317 H1301 0.930 . S
C1317 C1316 1.377 . S
C1317 C1318 1.379 . S
C1318 H1302 0.931 . S
C1318 C1312 1.383 . S
C1318 C1317 1.379 . S
H1319 C1313 0.959 . S
H1320 C1313 0.961 . S
H1321 C1313 0.960 . S
H1322 C1314 0.930 . S
H1323 C1315 0.929 . S
H1324 C1332 0.929 . S
H1325 C1334 0.930 . S
H1326 C1336 0.930 . S
H1327 C1339 0.929 . S
H1328 C1342 0.930 . S
H1329 C1344 0.960 . S
H1330 C1344 0.960 . S
H1331 C1344 0.960 . S
C1332 H1324 0.929 . S
C1332 C1333 1.377 . S
C1332 C1334 1.384 . S
C1333 C1332 1.377 . S
C1333 C1339 1.390 . S
C1334 H1325 0.930 . S
C1334 C1332 1.384 . S
C1334 C1335 1.372 . S
C1335 C1334 1.372 . S
C1335 C1336 1.400 . S
C1335 C1340 1.490 . S
C1336 H1326 0.930 . S
C1336 C1335 1.400 . S
C1336 C1339 1.386 . S
H1337 C1353 0.930 . S
H1338 C1354 0.931 . S
C1339 H1327 0.929 . S
C1339 C1333 1.390 . S
C1339 C1336 1.386 . S
C1340 C1335 1.490 . S
C1340 C1342 1.395 . S
C1340 C1343 1.403 . S
H1341 C1347 0.930 . S
C1342 H1328 0.930 . S
C1342 C1340 1.395 . S
C1342 C1345 1.403 . S
C1343 C1340 1.403 . S
C1343 C1344 1.524 . S
C1343 C1347 1.400 . S
C1344 H1329 0.960 . S
C1344 H1330 0.960 . S
C1344 H1331 0.960 . S
C1344 C1343 1.524 . S
C1345 C1342 1.403 . S
C1345 C1346 1.392 . S
C1345 C1349 1.495 . S
C1346 C1345 1.392 . S
C1346 C1347 1.385 . S
C1346 C1348 1.478 . S
C1347 H1341 0.930 . S
C1347 C1343 1.400 . S
C1347 C1346 1.385 . S
C1348 C1346 1.478 . S
C1348 C1350 1.381 . S
C1348 C1354 1.383 . S
C1349 C1345 1.495 . S
C1349 H1355 0.959 . S
C1349 H1356 0.961 . S
C1349 H1357 0.960 . S
C1350 C1348 1.381 . S
C1350 C1351 1.394 . S
C1350 H1358 0.930 . S
C1351 C1350 1.394 . S
C1351 C1352 1.383 . S
C1351 H1359 0.929 . S
C1352 C1351 1.383 . S
C1352 C1353 1.377 . S
C1353 H1337 0.930 . S
C1353 C1352 1.377 . S
C1353 C1354 1.379 . S
C1354 H1338 0.931 . S
C1354 C1348 1.383 . S
C1354 C1353 1.379 . S
H1355 C1349 0.959 . S
H1356 C1349 0.961 . S
H1357 C1349 0.960 . S
H1358 C1350 0.930 . S
H1359 C1351 0.929 . S
H1360 C1368 0.929 . S
H1361 C1370 0.930 . S
H1362 C1372 0.930 . S
H1363 C1375 0.929 . S
H1364 C1378 0.930 . S
H1365 C1380 0.960 . S
H1366 C1380 0.960 . S
H1367 C1380 0.960 . S
C1368 H1360 0.929 . S
C1368 C1369 1.377 . S
C1368 C1370 1.384 . S
C1369 C1368 1.377 . S
C1369 C1375 1.390 . S
C1370 H1361 0.930 . S
C1370 C1368 1.384 . S
C1370 C1371 1.372 . S
C1371 C1370 1.372 . S
C1371 C1372 1.400 . S
C1371 C1376 1.490 . S
C1372 H1362 0.930 . S
C1372 C1371 1.400 . S
C1372 C1375 1.386 . S
H1373 C1389 0.930 . S
H1374 C1390 0.931 . S
C1375 H1363 0.929 . S
C1375 C1369 1.390 . S
C1375 C1372 1.386 . S
C1376 C1371 1.490 . S
C1376 C1378 1.395 . S
C1376 C1379 1.403 . S
H1377 C1383 0.930 . S
C1378 H1364 0.930 . S
C1378 C1376 1.395 . S
C1378 C1381 1.403 . S
C1379 C1376 1.403 . S
C1379 C1380 1.524 . S
C1379 C1383 1.400 . S
C1380 H1365 0.960 . S
C1380 H1366 0.960 . S
C1380 H1367 0.960 . S
C1380 C1379 1.524 . S
C1381 C1378 1.403 . S
C1381 C1382 1.392 . S
C1381 C1385 1.495 . S
C1382 C1381 1.392 . S
C1382 C1383 1.385 . S
C1382 C1384 1.478 . S
C1383 H1377 0.930 . S
C1383 C1379 1.400 . S
C1383 C1382 1.385 . S
C1384 C1382 1.478 . S
C1384 C1386 1.381 . S
C1384 C1390 1.383 . S
C1385 C1381 1.495 . S
C1385 H1391 0.959 . S
C1385 H1392 0.961 . S
C1385 H1393 0.960 . S
C1386 C1384 1.381 . S
C1386 C1387 1.394 . S
C1386 H1394 0.930 . S
C1387 C1386 1.394 . S
C1387 C1388 1.383 . S
C1387 H1395 0.929 . S
C1388 C1387 1.383 . S
C1388 C1389 1.377 . S
C1389 H1373 0.930 . S
C1389 C1388 1.377 . S
C1389 C1390 1.379 . S
C1390 H1374 0.931 . S
C1390 C1384 1.383 . S
C1390 C1389 1.379 . S
H1391 C1385 0.959 . S
H1392 C1385 0.961 . S
H1393 C1385 0.960 . S
H1394 C1386 0.930 . S
H1395 C1387 0.929 . S
H1396 C1404 0.929 . S
H1397 C1406 0.930 . S
H1398 C1408 0.930 . S
H1399 C1411 0.929 . S
H1400 C1414 0.930 . S
H1401 C1416 0.960 . S
H1402 C1416 0.960 . S
H1403 C1416 0.960 . S
C1404 H1396 0.929 . S
C1404 C1405 1.377 . S
C1404 C1406 1.384 . S
C1405 C1404 1.377 . S
C1405 C1411 1.390 . S
C1406 H1397 0.930 . S
C1406 C1404 1.384 . S
C1406 C1407 1.372 . S
C1407 C1406 1.372 . S
C1407 C1408 1.400 . S
C1407 C1412 1.490 . S
C1408 H1398 0.930 . S
C1408 C1407 1.400 . S
C1408 C1411 1.386 . S
H1409 C1425 0.930 . S
H1410 C1426 0.931 . S
C1411 H1399 0.929 . S
C1411 C1405 1.390 . S
C1411 C1408 1.386 . S
C1412 C1407 1.490 . S
C1412 C1414 1.395 . S
C1412 C1415 1.403 . S
H1413 C1419 0.930 . S
C1414 H1400 0.930 . S
C1414 C1412 1.395 . S
C1414 C1417 1.403 . S
C1415 C1412 1.403 . S
C1415 C1416 1.524 . S
C1415 C1419 1.400 . S
C1416 H1401 0.960 . S
C1416 H1402 0.960 . S
C1416 H1403 0.960 . S
C1416 C1415 1.524 . S
C1417 C1414 1.403 . S
C1417 C1418 1.392 . S
C1417 C1421 1.495 . S
C1418 C1417 1.392 . S
C1418 C1419 1.385 . S
C1418 C1420 1.478 . S
C1419 H1413 0.930 . S
C1419 C1415 1.400 . S
C1419 C1418 1.385 . S
C1420 C1418 1.478 . S
C1420 C1422 1.381 . S
C1420 C1426 1.383 . S
C1421 C1417 1.495 . S
C1421 H1427 0.959 . S
C1421 H1428 0.961 . S
C1421 H1429 0.960 . S
C1422 C1420 1.381 . S
C1422 C1423 1.394 . S
C1422 H1430 0.930 . S
C1423 C1422 1.394 . S
C1423 C1424 1.383 . S
C1423 H1431 0.929 . S
C1424 C1423 1.383 . S
C1424 C1425 1.377 . S
C1425 H1409 0.930 . S
C1425 C1424 1.377 . S
C1425 C1426 1.379 . S
C1426 H1410 0.931 . S
C1426 C1420 1.383 . S
C1426 C1425 1.379 . S
H1427 C1421 0.959 . S
H1428 C1421 0.961 . S
H1429 C1421 0.960 . S
H1430 C1422 0.930 . S
H1431 C1423 0.929 . S
H1432 C1440 0.929 . S
H1433 C1442 0.930 . S
H1434 C1444 0.930 . S
H1435 C1447 0.929 . S
H1436 C1450 0.930 . S
H1437 C1452 0.960 . S
H1438 C1452 0.960 . S
H1439 C1452 0.960 . S
C1440 H1432 0.929 . S
C1440 C1441 1.377 . S
C1440 C1442 1.384 . S
C1441 C1440 1.377 . S
C1441 C1447 1.390 . S
C1442 H1433 0.930 . S
C1442 C1440 1.384 . S
C1442 C1443 1.372 . S
C1443 C1442 1.372 . S
C1443 C1444 1.400 . S
C1443 C1448 1.490 . S
C1444 H1434 0.930 . S
C1444 C1443 1.400 . S
C1444 C1447 1.386 . S
H1445 C1461 0.930 . S
H1446 C1462 0.931 . S
C1447 H1435 0.929 . S
C1447 C1441 1.390 . S
C1447 C1444 1.386 . S
C1448 C1443 1.490 . S
C1448 C1450 1.395 . S
C1448 C1451 1.403 . S
H1449 C1455 0.930 . S
C1450 H1436 0.930 . S
C1450 C1448 1.395 . S
C1450 C1453 1.403 . S
C1451 C1448 1.403 . S
C1451 C1452 1.524 . S
C1451 C1455 1.400 . S
C1452 H1437 0.960 . S
C1452 H1438 0.960 . S
C1452 H1439 0.960 . S
C1452 C1451 1.524 . S
C1453 C1450 1.403 . S
C1453 C1454 1.392 . S
C1453 C1457 1.495 . S
C1454 C1453 1.392 . S
C1454 C1455 1.385 . S
C1454 C1456 1.478 . S
C1455 H1449 0.930 . S
C1455 C1451 1.400 . S
C1455 C1454 1.385 . S
C1456 C1454 1.478 . S
C1456 C1458 1.381 . S
C1456 C1462 1.383 . S
C1457 C1453 1.495 . S
C1457 H1463 0.959 . S
C1457 H1464 0.961 . S
C1457 H1465 0.960 . S
C1458 C1456 1.381 . S
C1458 C1459 1.394 . S
C1458 H1466 0.930 . S
C1459 C1458 1.394 . S
C1459 C1460 1.383 . S
C1459 H1467 0.929 . S
C1460 C1459 1.383 . S
C1460 C1461 1.377 . S
C1461 H1445 0.930 . S
C1461 C1460 1.377 . S
C1461 C1462 1.379 . S
C1462 H1446 0.931 . S
C1462 C1456 1.383 . S
C1462 C1461 1.379 . S
H1463 C1457 0.959 . S
H1464 C1457 0.961 . S
H1465 C1457 0.960 . S
H1466 C1458 0.930 . S
H1467 C1459 0.929 . S
H1468 C1476 0.929 . S
H1469 C1478 0.930 . S
H1470 C1480 0.930 . S
H1471 C1483 0.929 . S
H1472 C1486 0.930 . S
H1473 C1488 0.960 . S
H1474 C1488 0.960 . S
H1475 C1488 0.960 . S
C1476 H1468 0.929 . S
C1476 C1477 1.377 . S
C1476 C1478 1.384 . S
C1477 C1476 1.377 . S
C1477 C1483 1.390 . S
C1478 H1469 0.930 . S
C1478 C1476 1.384 . S
C1478 C1479 1.372 . S
C1479 C1478 1.372 . S
C1479 C1480 1.400 . S
C1479 C1484 1.490 . S
C1480 H1470 0.930 . S
C1480 C1479 1.400 . S
C1480 C1483 1.386 . S
H1481 C1497 0.930 . S
H1482 C1498 0.931 . S
C1483 H1471 0.929 . S
C1483 C1477 1.390 . S
C1483 C1480 1.386 . S
C1484 C1479 1.490 . S
C1484 C1486 1.395 . S
C1484 C1487 1.403 . S
H1485 C1491 0.930 . S
C1486 H1472 0.930 . S
C1486 C1484 1.395 . S
C1486 C1489 1.403 . S
C1487 C1484 1.403 . S
C1487 C1488 1.524 . S
C1487 C1491 1.400 . S
C1488 H1473 0.960 . S
C1488 H1474 0.960 . S
C1488 H1475 0.960 . S
C1488 C1487 1.524 . S
C1489 C1486 1.403 . S
C1489 C1490 1.392 . S
C1489 C1493 1.495 . S
C1490 C1489 1.392 . S
C1490 C1491 1.385 . S
C1490 C1492 1.478 . S
C1491 H1485 0.930 . S
C1491 C1487 1.400 . S
C1491 C1490 1.385 . S
C1492 C1490 1.478 . S
C1492 C1494 1.381 . S
C1492 C1498 1.383 . S
C1493 C1489 1.495 . S
C1493 H1499 0.959 . S
C1493 H1500 0.961 . S
C1493 H1501 0.960 . S
C1494 C1492 1.381 . S
C1494 C1495 1.394 . S
C1494 H1502 0.930 . S
C1495 C1494 1.394 . S
C1495 C1496 1.383 . S
C1495 H1503 0.929 . S
C1496 C1495 1.383 . S
C1496 C1497 1.377 . S
C1497 H1481 0.930 . S
C1497 C1496 1.377 . S
C1497 C1498 1.379 . S
C1498 H1482 0.931 . S
C1498 C1492 1.383 . S
C1498 C1497 1.379 . S
H1499 C1493 0.959 . S
H1500 C1493 0.961 . S
H1501 C1493 0.960 . S
H1502 C1494 0.930 . S
H1503 C1495 0.929 . S
H1504 C1512 0.929 . S
H1505 C1514 0.930 . S
H1506 C1516 0.930 . S
H1507 C1519 0.929 . S
H1508 C1522 0.930 . S
H1509 C1524 0.960 . S
H1510 C1524 0.960 . S
H1511 C1524 0.960 . S
C1512 H1504 0.929 . S
C1512 C1513 1.377 . S
C1512 C1514 1.384 . S
C1513 C1512 1.377 . S
C1513 C1519 1.390 . S
C1514 H1505 0.930 . S
C1514 C1512 1.384 . S
C1514 C1515 1.372 . S
C1515 C1514 1.372 . S
C1515 C1516 1.400 . S
C1515 C1520 1.490 . S
C1516 H1506 0.930 . S
C1516 C1515 1.400 . S
C1516 C1519 1.386 . S
H1517 C1533 0.930 . S
H1518 C1534 0.931 . S
C1519 H1507 0.929 . S
C1519 C1513 1.390 . S
C1519 C1516 1.386 . S
C1520 C1515 1.490 . S
C1520 C1522 1.395 . S
C1520 C1523 1.403 . S
H1521 C1527 0.930 . S
C1522 H1508 0.930 . S
C1522 C1520 1.395 . S
C1522 C1525 1.403 . S
C1523 C1520 1.403 . S
C1523 C1524 1.524 . S
C1523 C1527 1.400 . S
C1524 H1509 0.960 . S
C1524 H1510 0.960 . S
C1524 H1511 0.960 . S
C1524 C1523 1.524 . S
C1525 C1522 1.403 . S
C1525 C1526 1.392 . S
C1525 C1529 1.495 . S
C1526 C1525 1.392 . S
C1526 C1527 1.385 . S
C1526 C1528 1.478 . S
C1527 H1521 0.930 . S
C1527 C1523 1.400 . S
C1527 C1526 1.385 . S
C1528 C1526 1.478 . S
C1528 C1530 1.381 . S
C1528 C1534 1.383 . S
C1529 C1525 1.495 . S
C1529 H1535 0.959 . S
C1529 H1536 0.961 . S
C1529 H1537 0.960 . S
C1530 C1528 1.381 . S
C1530 C1531 1.394 . S
C1530 H1538 0.930 . S
C1531 C1530 1.394 . S
C1531 C1532 1.383 . S
C1531 H1539 0.929 . S
C1532 C1531 1.383 . S
C1532 C1533 1.377 . S
C1533 H1517 0.930 . S
C1533 C1532 1.377 . S
C1533 C1534 1.379 . S
C1534 H1518 0.931 . S
C1534 C1528 1.383 . S
C1534 C1533 1.379 . S
H1535 C1529 0.959 . S
H1536 C1529 0.961 . S
H1537 C1529 0.960 . S
H1538 C1530 0.930 . S
H1539 C1531 0.929 . S
H1540 C1548 0.929 . S
H1541 C1550 0.930 . S
H1542 C1552 0.930 . S
H1543 C1555 0.929 . S
H1544 C1558 0.930 . S
H1545 C1560 0.960 . S
H1546 C1560 0.960 . S
H1547 C1560 0.960 . S
C1548 H1540 0.929 . S
C1548 C1549 1.377 . S
C1548 C1550 1.384 . S
C1549 C1548 1.377 . S
C1549 C1555 1.390 . S
C1550 H1541 0.930 . S
C1550 C1548 1.384 . S
C1550 C1551 1.372 . S
C1551 C1550 1.372 . S
C1551 C1552 1.400 . S
C1551 C1556 1.490 . S
C1552 H1542 0.930 . S
C1552 C1551 1.400 . S
C1552 C1555 1.386 . S
H1553 C1569 0.930 . S
H1554 C1570 0.931 . S
C1555 H1543 0.929 . S
C1555 C1549 1.390 . S
C1555 C1552 1.386 . S
C1556 C1551 1.490 . S
C1556 C1558 1.395 . S
C1556 C1559 1.403 . S
H1557 C1563 0.930 . S
C1558 H1544 0.930 . S
C1558 C1556 1.395 . S
C1558 C1561 1.403 . S
C1559 C1556 1.403 . S
C1559 C1560 1.524 . S
C1559 C1563 1.400 . S
C1560 H1545 0.960 . S
C1560 H1546 0.960 . S
C1560 H1547 0.960 . S
C1560 C1559 1.524 . S
C1561 C1558 1.403 . S
C1561 C1562 1.392 . S
C1561 C1565 1.495 . S
C1562 C1561 1.392 . S
C1562 C1563 1.385 . S
C1562 C1564 1.478 . S
C1563 H1557 0.930 . S
C1563 C1559 1.400 . S
C1563 C1562 1.385 . S
C1564 C1562 1.478 . S
C1564 C1566 1.381 . S
C1564 C1570 1.383 . S
C1565 C1561 1.495 . S
C1565 H1571 0.959 . S
C1565 H1572 0.961 . S
C1565 H1573 0.960 . S
C1566 C1564 1.381 . S
C1566 C1567 1.394 . S
C1566 H1574 0.930 . S
C1567 C1566 1.394 . S
C1567 C1568 1.383 . S
C1567 H1575 0.929 . S
C1568 C1567 1.383 . S
C1568 C1569 1.377 . S
C1569 H1553 0.930 . S
C1569 C1568 1.377 . S
C1569 C1570 1.379 . S
C1570 H1554 0.931 . S
C1570 C1564 1.383 . S
C1570 C1569 1.379 . S
H1571 C1565 0.959 . S
H1572 C1565 0.961 . S
H1573 C1565 0.960 . S
H1574 C1566 0.930 . S
H1575 C1567 0.929 . S
H1576 C1584 0.929 . S
H1577 C1586 0.930 . S
H1578 C1588 0.930 . S
H1579 C1591 0.929 . S
H1580 C1594 0.930 . S
H1581 C1596 0.960 . S
H1582 C1596 0.960 . S
H1583 C1596 0.960 . S
C1584 H1576 0.929 . S
C1584 C1585 1.377 . S
C1584 C1586 1.384 . S
C1585 C1584 1.377 . S
C1585 C1591 1.390 . S
C1586 H1577 0.930 . S
C1586 C1584 1.384 . S
C1586 C1587 1.372 . S
C1587 C1586 1.372 . S
C1587 C1588 1.400 . S
C1587 C1592 1.490 . S
C1588 H1578 0.930 . S
C1588 C1587 1.400 . S
C1588 C1591 1.386 . S
H1589 C1605 0.930 . S
H1590 C1606 0.931 . S
C1591 H1579 0.929 . S
C1591 C1585 1.390 . S
C1591 C1588 1.386 . S
C1592 C1587 1.490 . S
C1592 C1594 1.395 . S
C1592 C1595 1.403 . S
H1593 C1599 0.930 . S
C1594 H1580 0.930 . S
C1594 C1592 1.395 . S
C1594 C1597 1.403 . S
C1595 C1592 1.403 . S
C1595 C1596 1.524 . S
C1595 C1599 1.400 . S
C1596 H1581 0.960 . S
C1596 H1582 0.960 . S
C1596 H1583 0.960 . S
C1596 C1595 1.524 . S
C1597 C1594 1.403 . S
C1597 C1598 1.392 . S
C1597 C1601 1.495 . S
C1598 C1597 1.392 . S
C1598 C1599 1.385 . S
C1598 C1600 1.478 . S
C1599 H1593 0.930 . S
C1599 C1595 1.400 . S
C1599 C1598 1.385 . S
C1600 C1598 1.478 . S
C1600 C1602 1.381 . S
C1600 C1606 1.383 . S
C1601 C1597 1.495 . S
C1601 H1607 0.959 . S
C1601 H1608 0.961 . S
C1601 H1609 0.960 . S
C1602 C1600 1.381 . S
C1602 C1603 1.394 . S
C1602 H1610 0.930 . S
C1603 C1602 1.394 . S
C1603 C1604 1.383 . S
C1603 H1611 0.929 . S
C1604 C1603 1.383 . S
C1604 C1605 1.377 . S
C1605 H1589 0.930 . S
C1605 C1604 1.377 . S
C1605 C1606 1.379 . S
C1606 H1590 0.931 . S
C1606 C1600 1.383 . S
C1606 C1605 1.379 . S
H1607 C1601 0.959 . S
H1608 C1601 0.961 . S
H1609 C1601 0.960 . S
H1610 C1602 0.930 . S
H1611 C1603 0.929 . S
H1612 C1620 0.929 . S
H1613 C1622 0.930 . S
H1614 C1624 0.930 . S
H1615 C1627 0.929 . S
H1616 C1630 0.930 . S
H1617 C1632 0.960 . S
H1618 C1632 0.960 . S
H1619 C1632 0.960 . S
C1620 H1612 0.929 . S
C1620 C1621 1.377 . S
C1620 C1622 1.384 . S
C1621 C1620 1.377 . S
C1621 C1627 1.390 . S
C1622 H1613 0.930 . S
C1622 C1620 1.384 . S
C1622 C1623 1.372 . S
C1623 C1622 1.372 . S
C1623 C1624 1.400 . S
C1623 C1628 1.490 . S
C1624 H1614 0.930 . S
C1624 C1623 1.400 . S
C1624 C1627 1.386 . S
H1625 C1641 0.930 . S
H1626 C1642 0.931 . S
C1627 H1615 0.929 . S
C1627 C1621 1.390 . S
C1627 C1624 1.386 . S
C1628 C1623 1.490 . S
C1628 C1630 1.395 . S
C1628 C1631 1.403 . S
H1629 C1635 0.930 . S
C1630 H1616 0.930 . S
C1630 C1628 1.395 . S
C1630 C1633 1.403 . S
C1631 C1628 1.403 . S
C1631 C1632 1.524 . S
C1631 C1635 1.400 . S
C1632 H1617 0.960 . S
C1632 H1618 0.960 . S
C1632 H1619 0.960 . S
C1632 C1631 1.524 . S
C1633 C1630 1.403 . S
C1633 C1634 1.392 . S
C1633 C1637 1.495 . S
C1634 C1633 1.392 . S
C1634 C1635 1.385 . S
C1634 C1636 1.478 . S
C1635 H1629 0.930 . S
C1635 C1631 1.400 . S
C1635 C1634 1.385 . S
C1636 C1634 1.478 . S
C1636 C1638 1.381 . S
C1636 C1642 1.383 . S
C1637 C1633 1.495 . S
C1637 H1643 0.959 . S
C1637 H1644 0.961 . S
C1637 H1645 0.960 . S
C1638 C1636 1.381 . S
C1638 C1639 1.394 . S
C1638 H1646 0.930 . S
C1639 C1638 1.394 . S
C1639 C1640 1.383 . S
C1639 H1647 0.929 . S
C1640 C1639 1.383 . S
C1640 C1641 1.377 . S
C1641 H1625 0.930 . S
C1641 C1640 1.377 . S
C1641 C1642 1.379 . S
C1642 H1626 0.931 . S
C1642 C1636 1.383 . S
C1642 C1641 1.379 . S
H1643 C1637 0.959 . S
H1644 C1637 0.961 . S
H1645 C1637 0.960 . S
H1646 C1638 0.930 . S
H1647 C1639 0.929 . S
H1648 C1656 0.929 . S
H1649 C1658 0.930 . S
H1650 C1660 0.930 . S
H1651 C1663 0.929 . S
H1652 C1666 0.930 . S
H1653 C1668 0.960 . S
H1654 C1668 0.960 . S
H1655 C1668 0.960 . S
C1656 H1648 0.929 . S
C1656 C1657 1.377 . S
C1656 C1658 1.384 . S
C1657 C1656 1.377 . S
C1657 C1663 1.390 . S
C1658 H1649 0.930 . S
C1658 C1656 1.384 . S
C1658 C1659 1.372 . S
C1659 C1658 1.372 . S
C1659 C1660 1.400 . S
C1659 C1664 1.490 . S
C1660 H1650 0.930 . S
C1660 C1659 1.400 . S
C1660 C1663 1.386 . S
H1661 C1677 0.930 . S
H1662 C1678 0.931 . S
C1663 H1651 0.929 . S
C1663 C1657 1.390 . S
C1663 C1660 1.386 . S
C1664 C1659 1.490 . S
C1664 C1666 1.395 . S
C1664 C1667 1.403 . S
H1665 C1671 0.930 . S
C1666 H1652 0.930 . S
C1666 C1664 1.395 . S
C1666 C1669 1.403 . S
C1667 C1664 1.403 . S
C1667 C1668 1.524 . S
C1667 C1671 1.400 . S
C1668 H1653 0.960 . S
C1668 H1654 0.960 . S
C1668 H1655 0.960 . S
C1668 C1667 1.524 . S
C1669 C1666 1.403 . S
C1669 C1670 1.392 . S
C1669 C1673 1.495 . S
C1670 C1669 1.392 . S
C1670 C1671 1.385 . S
C1670 C1672 1.478 . S
C1671 H1665 0.930 . S
C1671 C1667 1.400 . S
C1671 C1670 1.385 . S
C1672 C1670 1.478 . S
C1672 C1674 1.381 . S
C1672 C1678 1.383 . S
C1673 C1669 1.495 . S
C1673 H1679 0.959 . S
C1673 H1680 0.961 . S
C1673 H1681 0.960 . S
C1674 C1672 1.381 . S
C1674 C1675 1.394 . S
C1674 H1682 0.930 . S
C1675 C1674 1.394 . S
C1675 C1676 1.383 . S
C1675 H1683 0.929 . S
C1676 C1675 1.383 . S
C1676 C1677 1.377 . S
C1677 H1661 0.930 . S
C1677 C1676 1.377 . S
C1677 C1678 1.379 . S
C1678 H1662 0.931 . S
C1678 C1672 1.383 . S
C1678 C1677 1.379 . S
H1679 C1673 0.959 . S
H1680 C1673 0.961 . S
H1681 C1673 0.960 . S
H1682 C1674 0.930 . S
H1683 C1675 0.929 . S
H1684 C1692 0.929 . S
H1685 C1694 0.930 . S
H1686 C1696 0.930 . S
H1687 C1699 0.929 . S
H1688 C1702 0.930 . S
H1689 C1704 0.960 . S
H1690 C1704 0.960 . S
H1691 C1704 0.960 . S
C1692 H1684 0.929 . S
C1692 C1693 1.377 . S
C1692 C1694 1.384 . S
C1693 C1692 1.377 . S
C1693 C1699 1.390 . S
C1694 H1685 0.930 . S
C1694 C1692 1.384 . S
C1694 C1695 1.372 . S
C1695 C1694 1.372 . S
C1695 C1696 1.400 . S
C1695 C1700 1.490 . S
C1696 H1686 0.930 . S
C1696 C1695 1.400 . S
C1696 C1699 1.386 . S
H1697 C1713 0.930 . S
H1698 C1714 0.931 . S
C1699 H1687 0.929 . S
C1699 C1693 1.390 . S
C1699 C1696 1.386 . S
C1700 C1695 1.490 . S
C1700 C1702 1.395 . S
C1700 C1703 1.403 . S
H1701 C1707 0.930 . S
C1702 H1688 0.930 . S
C1702 C1700 1.395 . S
C1702 C1705 1.403 . S
C1703 C1700 1.403 . S
C1703 C1704 1.524 . S
C1703 C1707 1.400 . S
C1704 H1689 0.960 . S
C1704 H1690 0.960 . S
C1704 H1691 0.960 . S
C1704 C1703 1.524 . S
C1705 C1702 1.403 . S
C1705 C1706 1.392 . S
C1705 C1709 1.495 . S
C1706 C1705 1.392 . S
C1706 C1707 1.385 . S
C1706 C1708 1.478 . S
C1707 H1701 0.930 . S
C1707 C1703 1.400 . S
C1707 C1706 1.385 . S
C1708 C1706 1.478 . S
C1708 C1710 1.381 . S
C1708 C1714 1.383 . S
C1709 C1705 1.495 . S
C1709 H1715 0.959 . S
C1709 H1716 0.961 . S
C1709 H1717 0.960 . S
C1710 C1708 1.381 . S
C1710 C1711 1.394 . S
C1710 H1718 0.930 . S
C1711 C1710 1.394 . S
C1711 C1712 1.383 . S
C1711 H1719 0.929 . S
C1712 C1711 1.383 . S
C1712 C1713 1.377 . S
C1713 H1697 0.930 . S
C1713 C1712 1.377 . S
C1713 C1714 1.379 . S
C1714 H1698 0.931 . S
C1714 C1708 1.383 . S
C1714 C1713 1.379 . S
H1715 C1709 0.959 . S
H1716 C1709 0.961 . S
H1717 C1709 0.960 . S
H1718 C1710 0.930 . S
H1719 C1711 0.929 . S
H1720 C1728 0.929 . S
H1721 C1730 0.930 . S
H1722 C1732 0.930 . S
H1723 C1735 0.929 . S
H1724 C1738 0.930 . S
H1725 C1740 0.960 . S
H1726 C1740 0.960 . S
H1727 C1740 0.960 . S
C1728 H1720 0.929 . S
C1728 C1729 1.377 . S
C1728 C1730 1.384 . S
C1729 C1728 1.377 . S
C1729 C1735 1.390 . S
C1730 H1721 0.930 . S
C1730 C1728 1.384 . S
C1730 C1731 1.372 . S
C1731 C1730 1.372 . S
C1731 C1732 1.400 . S
C1731 C1736 1.490 . S
C1732 H1722 0.930 . S
C1732 C1731 1.400 . S
C1732 C1735 1.386 . S
H1733 C1749 0.930 . S
H1734 C1750 0.931 . S
C1735 H1723 0.929 . S
C1735 C1729 1.390 . S
C1735 C1732 1.386 . S
C1736 C1731 1.490 . S
C1736 C1738 1.395 . S
C1736 C1739 1.403 . S
H1737 C1743 0.930 . S
C1738 H1724 0.930 . S
C1738 C1736 1.395 . S
C1738 C1741 1.403 . S
C1739 C1736 1.403 . S
C1739 C1740 1.524 . S
C1739 C1743 1.400 . S
C1740 H1725 0.960 . S
C1740 H1726 0.960 . S
C1740 H1727 0.960 . S
C1740 C1739 1.524 . S
C1741 C1738 1.403 . S
C1741 C1742 1.392 . S
C1741 C1745 1.495 . S
C1742 C1741 1.392 . S
C1742 C1743 1.385 . S
C1742 C1744 1.478 . S
C1743 H1737 0.930 . S
C1743 C1739 1.400 . S
C1743 C1742 1.385 . S
C1744 C1742 1.478 . S
C1744 C1746 1.381 . S
C1744 C1750 1.383 . S
C1745 C1741 1.495 . S
C1745 H1751 0.959 . S
C1745 H1752 0.961 . S
C1745 H1753 0.960 . S
C1746 C1744 1.381 . S
C1746 C1747 1.394 . S
C1746 H1754 0.930 . S
C1747 C1746 1.394 . S
C1747 C1748 1.383 . S
C1747 H1755 0.929 . S
C1748 C1747 1.383 . S
C1748 C1749 1.377 . S
C1749 H1733 0.930 . S
C1749 C1748 1.377 . S
C1749 C1750 1.379 . S
C1750 H1734 0.931 . S
C1750 C1744 1.383 . S
C1750 C1749 1.379 . S
H1751 C1745 0.959 . S
H1752 C1745 0.961 . S
H1753 C1745 0.960 . S
H1754 C1746 0.930 . S
H1755 C1747 0.929 . S
H1756 C1764 0.929 . S
H1757 C1766 0.930 . S
H1758 C1768 0.930 . S
H1759 C1771 0.929 . S
H1760 C1774 0.930 . S
H1761 C1776 0.960 . S
H1762 C1776 0.960 . S
H1763 C1776 0.960 . S
C1764 H1756 0.929 . S
C1764 C1765 1.377 . S
C1764 C1766 1.384 . S
C1765 C1764 1.377 . S
C1765 C1771 1.390 . S
C1766 H1757 0.930 . S
C1766 C1764 1.384 . S
C1766 C1767 1.372 . S
C1767 C1766 1.372 . S
C1767 C1768 1.400 . S
C1767 C1772 1.490 . S
C1768 H1758 0.930 . S
C1768 C1767 1.400 . S
C1768 C1771 1.386 . S
H1769 C1785 0.930 . S
H1770 C1786 0.931 . S
C1771 H1759 0.929 . S
C1771 C1765 1.390 . S
C1771 C1768 1.386 . S
C1772 C1767 1.490 . S
C1772 C1774 1.395 . S
C1772 C1775 1.403 . S
H1773 C1779 0.930 . S
C1774 H1760 0.930 . S
C1774 C1772 1.395 . S
C1774 C1777 1.403 . S
C1775 C1772 1.403 . S
C1775 C1776 1.524 . S
C1775 C1779 1.400 . S
C1776 H1761 0.960 . S
C1776 H1762 0.960 . S
C1776 H1763 0.960 . S
C1776 C1775 1.524 . S
C1777 C1774 1.403 . S
C1777 C1778 1.392 . S
C1777 C1781 1.495 . S
C1778 C1777 1.392 . S
C1778 C1779 1.385 . S
C1778 C1780 1.478 . S
C1779 H1773 0.930 . S
C1779 C1775 1.400 . S
C1779 C1778 1.385 . S
C1780 C1778 1.478 . S
C1780 C1782 1.381 . S
C1780 C1786 1.383 . S
C1781 C1777 1.495 . S
C1781 H1787 0.959 . S
C1781 H1788 0.961 . S
C1781 H1789 0.960 . S
C1782 C1780 1.381 . S
C1782 C1783 1.394 . S
C1782 H1790 0.930 . S
C1783 C1782 1.394 . S
C1783 C1784 1.383 . S
C1783 H1791 0.929 . S
C1784 C1783 1.383 . S
C1784 C1785 1.377 . S
C1785 H1769 0.930 . S
C1785 C1784 1.377 . S
C1785 C1786 1.379 . S
C1786 H1770 0.931 . S
C1786 C1780 1.383 . S
C1786 C1785 1.379 . S
H1787 C1781 0.959 . S
H1788 C1781 0.961 . S
H1789 C1781 0.960 . S
H1790 C1782 0.930 . S
H1791 C1783 0.929 . S
H1792 C1800 0.929 . S
H1793 C1802 0.930 . S
H1794 C1804 0.930 . S
H1795 C1807 0.929 . S
H1796 C1810 0.930 . S
H1797 C1812 0.960 . S
H1798 C1812 0.960 . S
H1799 C1812 0.960 . S
C1800 H1792 0.929 . S
C1800 C1801 1.377 . S
C1800 C1802 1.384 . S
C1801 C1800 1.377 . S
C1801 C1807 1.390 . S
C1802 H1793 0.930 . S
C1802 C1800 1.384 . S
C1802 C1803 1.372 . S
C1803 C1802 1.372 . S
C1803 C1804 1.400 . S
C1803 C1808 1.490 . S
C1804 H1794 0.930 . S
C1804 C1803 1.400 . S
C1804 C1807 1.386 . S
H1805 C1821 0.930 . S
H1806 C1822 0.931 . S
C1807 H1795 0.929 . S
C1807 C1801 1.390 . S
C1807 C1804 1.386 . S
C1808 C1803 1.490 . S
C1808 C1810 1.395 . S
C1808 C1811 1.403 . S
H1809 C1815 0.930 . S
C1810 H1796 0.930 . S
C1810 C1808 1.395 . S
C1810 C1813 1.403 . S
C1811 C1808 1.403 . S
C1811 C1812 1.524 . S
C1811 C1815 1.400 . S
C1812 H1797 0.960 . S
C1812 H1798 0.960 . S
C1812 H1799 0.960 . S
C1812 C1811 1.524 . S
C1813 C1810 1.403 . S
C1813 C1814 1.392 . S
C1813 C1817 1.495 . S
C1814 C1813 1.392 . S
C1814 C1815 1.385 . S
C1814 C1816 1.478 . S
C1815 H1809 0.930 . S
C1815 C1811 1.400 . S
C1815 C1814 1.385 . S
C1816 C1814 1.478 . S
C1816 C1818 1.381 . S
C1816 C1822 1.383 . S
C1817 C1813 1.495 . S
C1817 H1823 0.959 . S
C1817 H1824 0.961 . S
C1817 H1825 0.960 . S
C1818 C1816 1.381 . S
C1818 C1819 1.394 . S
C1818 H1826 0.930 . S
C1819 C1818 1.394 . S
C1819 C1820 1.383 . S
C1819 H1827 0.929 . S
C1820 C1819 1.383 . S
C1820 C1821 1.377 . S
C1821 H1805 0.930 . S
C1821 C1820 1.377 . S
C1821 C1822 1.379 . S
C1822 H1806 0.931 . S
C1822 C1816 1.383 . S
C1822 C1821 1.379 . S
H1823 C1817 0.959 . S
H1824 C1817 0.961 . S
H1825 C1817 0.960 . S
H1826 C1818 0.930 . S
H1827 C1819 0.929 . S
H1828 C1836 0.929 . S
H1829 C1838 0.930 . S
H1830 C1840 0.930 . S
H1831 C1843 0.929 . S
H1832 C1846 0.930 . S
H1833 C1848 0.960 . S
H1834 C1848 0.960 . S
H1835 C1848 0.960 . S
C1836 H1828 0.929 . S
C1836 C1837 1.377 . S
C1836 C1838 1.384 . S
C1837 C1836 1.377 . S
C1837 C1843 1.390 . S
C1838 H1829 0.930 . S
C1838 C1836 1.384 . S
C1838 C1839 1.372 . S
C1839 C1838 1.372 . S
C1839 C1840 1.400 . S
C1839 C1844 1.490 . S
C1840 H1830 0.930 . S
C1840 C1839 1.400 . S
C1840 C1843 1.386 . S
H1841 C1857 0.930 . S
H1842 C1858 0.931 . S
C1843 H1831 0.929 . S
C1843 C1837 1.390 . S
C1843 C1840 1.386 . S
C1844 C1839 1.490 . S
C1844 C1846 1.395 . S
C1844 C1847 1.403 . S
H1845 C1851 0.930 . S
C1846 H1832 0.930 . S
C1846 C1844 1.395 . S
C1846 C1849 1.403 . S
C1847 C1844 1.403 . S
C1847 C1848 1.524 . S
C1847 C1851 1.400 . S
C1848 H1833 0.960 . S
C1848 H1834 0.960 . S
C1848 H1835 0.960 . S
C1848 C1847 1.524 . S
C1849 C1846 1.403 . S
C1849 C1850 1.392 . S
C1849 C1853 1.495 . S
C1850 C1849 1.392 . S
C1850 C1851 1.385 . S
C1850 C1852 1.478 . S
C1851 H1845 0.930 . S
C1851 C1847 1.400 . S
C1851 C1850 1.385 . S
C1852 C1850 1.478 . S
C1852 C1854 1.381 . S
C1852 C1858 1.383 . S
C1853 C1849 1.495 . S
C1853 H1859 0.959 . S
C1853 H1860 0.961 . S
C1853 H1861 0.960 . S
C1854 C1852 1.381 . S
C1854 C1855 1.394 . S
C1854 H1862 0.930 . S
C1855 C1854 1.394 . S
C1855 C1856 1.383 . S
C1855 H1863 0.929 . S
C1856 C1855 1.383 . S
C1856 C1857 1.377 . S
C1857 H1841 0.930 . S
C1857 C1856 1.377 . S
C1857 C1858 1.379 . S
C1858 H1842 0.931 . S
C1858 C1852 1.383 . S
C1858 C1857 1.379 . S
H1859 C1853 0.959 . S
H1860 C1853 0.961 . S
H1861 C1853 0.960 . S
H1862 C1854 0.930 . S
H1863 C1855 0.929 . S
H1864 C1872 0.929 . S
H1865 C1874 0.930 . S
H1866 C1876 0.930 . S
H1867 C1879 0.929 . S
H1868 C1882 0.930 . S
H1869 C1884 0.960 . S
H1870 C1884 0.960 . S
H1871 C1884 0.960 . S
C1872 H1864 0.929 . S
C1872 C1873 1.377 . S
C1872 C1874 1.384 . S
C1873 C1872 1.377 . S
C1873 C1879 1.390 . S
C1874 H1865 0.930 . S
C1874 C1872 1.384 . S
C1874 C1875 1.372 . S
C1875 C1874 1.372 . S
C1875 C1876 1.400 . S
C1875 C1880 1.490 . S
C1876 H1866 0.930 . S
C1876 C1875 1.400 . S
C1876 C1879 1.386 . S
H1877 C1893 0.930 . S
H1878 C1894 0.931 . S
C1879 H1867 0.929 . S
C1879 C1873 1.390 . S
C1879 C1876 1.386 . S
C1880 C1875 1.490 . S
C1880 C1882 1.395 . S
C1880 C1883 1.403 . S
H1881 C1887 0.930 . S
C1882 H1868 0.930 . S
C1882 C1880 1.395 . S
C1882 C1885 1.403 . S
C1883 C1880 1.403 . S
C1883 C1884 1.524 . S
C1883 C1887 1.400 . S
C1884 H1869 0.960 . S
C1884 H1870 0.960 . S
C1884 H1871 0.960 . S
C1884 C1883 1.524 . S
C1885 C1882 1.403 . S
C1885 C1886 1.392 . S
C1885 C1889 1.495 . S
C1886 C1885 1.392 . S
C1886 C1887 1.385 . S
C1886 C1888 1.478 . S
C1887 H1881 0.930 . S
C1887 C1883 1.400 . S
C1887 C1886 1.385 . S
C1888 C1886 1.478 . S
C1888 C1890 1.381 . S
C1888 C1894 1.383 . S
C1889 C1885 1.495 . S
C1889 H1895 0.959 . S
C1889 H1896 0.961 . S
C1889 H1897 0.960 . S
C1890 C1888 1.381 . S
C1890 C1891 1.394 . S
C1890 H1898 0.930 . S
C1891 C1890 1.394 . S
C1891 C1892 1.383 . S
C1891 H1899 0.929 . S
C1892 C1891 1.383 . S
C1892 C1893 1.377 . S
C1893 H1877 0.930 . S
C1893 C1892 1.377 . S
C1893 C1894 1.379 . S
C1894 H1878 0.931 . S
C1894 C1888 1.383 . S
C1894 C1893 1.379 . S
H1895 C1889 0.959 . S
H1896 C1889 0.961 . S
H1897 C1889 0.960 . S
H1898 C1890 0.930 . S
H1899 C1891 0.929 . S
H1900 C1908 0.929 . S
H1901 C1910 0.930 . S
H1902 C1912 0.930 . S
H1903 C1915 0.929 . S
H1904 C1918 0.930 . S
H1905 C1920 0.960 . S
H1906 C1920 0.960 . S
H1907 C1920 0.960 . S
C1908 H1900 0.929 . S
C1908 C1909 1.377 . S
C1908 C1910 1.384 . S
C1909 C1908 1.377 . S
C1909 C1915 1.390 . S
C1910 H1901 0.930 . S
C1910 C1908 1.384 . S
C1910 C1911 1.372 . S
C1911 C1910 1.372 . S
C1911 C1912 1.400 . S
C1911 C1916 1.490 . S
C1912 H1902 0.930 . S
C1912 C1911 1.400 . S
C1912 C1915 1.386 . S
H1913 C1929 0.930 . S
H1914 C1930 0.931 . S
C1915 H1903 0.929 . S
C1915 C1909 1.390 . S
C1915 C1912 1.386 . S
C1916 C1911 1.490 . S
C1916 C1918 1.395 . S
C1916 C1919 1.403 . S
H1917 C1923 0.930 . S
C1918 H1904 0.930 . S
C1918 C1916 1.395 . S
C1918 C1921 1.403 . S
C1919 C1916 1.403 . S
C1919 C1920 1.524 . S
C1919 C1923 1.400 . S
C1920 H1905 0.960 . S
C1920 H1906 0.960 . S
C1920 H1907 0.960 . S
C1920 C1919 1.524 . S
C1921 C1918 1.403 . S
C1921 C1922 1.392 . S
C1921 C1925 1.495 . S
C1922 C1921 1.392 . S
C1922 C1923 1.385 . S
C1922 C1924 1.478 . S
C1923 H1917 0.930 . S
C1923 C1919 1.400 . S
C1923 C1922 1.385 . S
C1924 C1922 1.478 . S
C1924 C1926 1.381 . S
C1924 C1930 1.383 . S
C1925 C1921 1.495 . S
C1925 H1931 0.959 . S
C1925 H1932 0.961 . S
C1925 H1933 0.960 . S
C1926 C1924 1.381 . S
C1926 C1927 1.394 . S
C1926 H1934 0.930 . S
C1927 C1926 1.394 . S
C1927 C1928 1.383 . S
C1927 H1935 0.929 . S
C1928 C1927 1.383 . S
C1928 C1929 1.377 . S
C1929 H1913 0.930 . S
C1929 C1928 1.377 . S
C1929 C1930 1.379 . S
C1930 H1914 0.931 . S
C1930 C1924 1.383 . S
C1930 C1929 1.379 . S
H1931 C1925 0.959 . S
H1932 C1925 0.961 . S
H1933 C1925 0.960 . S
H1934 C1926 0.930 . S
H1935 C1927 0.929 . S
H1936 C1944 0.929 . S
H1937 C1946 0.930 . S
H1938 C1948 0.930 . S
H1939 C1951 0.929 . S
H1940 C1954 0.930 . S
H1941 C1956 0.960 . S
H1942 C1956 0.960 . S
H1943 C1956 0.960 . S
C1944 H1936 0.929 . S
C1944 C1945 1.377 . S
C1944 C1946 1.384 . S
C1945 C1944 1.377 . S
C1945 C1951 1.390 . S
C1946 H1937 0.930 . S
C1946 C1944 1.384 . S
C1946 C1947 1.372 . S
C1947 C1946 1.372 . S
C1947 C1948 1.400 . S
C1947 C1952 1.490 . S
C1948 H1938 0.930 . S
C1948 C1947 1.400 . S
C1948 C1951 1.386 . S
H1949 C1965 0.930 . S
H1950 C1966 0.931 . S
C1951 H1939 0.929 . S
C1951 C1945 1.390 . S
C1951 C1948 1.386 . S
C1952 C1947 1.490 . S
C1952 C1954 1.395 . S
C1952 C1955 1.403 . S
H1953 C1959 0.930 . S
C1954 H1940 0.930 . S
C1954 C1952 1.395 . S
C1954 C1957 1.403 . S
C1955 C1952 1.403 . S
C1955 C1956 1.524 . S
C1955 C1959 1.400 . S
C1956 H1941 0.960 . S
C1956 H1942 0.960 . S
C1956 H1943 0.960 . S
C1956 C1955 1.524 . S
C1957 C1954 1.403 . S
C1957 C1958 1.392 . S
C1957 C1961 1.495 . S
C1958 C1957 1.392 . S
C1958 C1959 1.385 . S
C1958 C1960 1.478 . S
C1959 H1953 0.930 . S
C1959 C1955 1.400 . S
C1959 C1958 1.385 . S
C1960 C1958 1.478 . S
C1960 C1962 1.381 . S
C1960 C1966 1.383 . S
C1961 C1957 1.495 . S
C1961 H1967 0.959 . S
C1961 H1968 0.961 . S
C1961 H1969 0.960 . S
C1962 C1960 1.381 . S
C1962 C1963 1.394 . S
C1962 H1970 0.930 . S
C1963 C1962 1.394 . S
C1963 C1964 1.383 . S
C1963 H1971 0.929 . S
C1964 C1963 1.383 . S
C1964 C1965 1.377 . S
C1965 H1949 0.930 . S
C1965 C1964 1.377 . S
C1965 C1966 1.379 . S
C1966 H1950 0.931 . S
C1966 C1960 1.383 . S
C1966 C1965 1.379 . S
H1967 C1961 0.959 . S
H1968 C1961 0.961 . S
H1969 C1961 0.960 . S
H1970 C1962 0.930 . S
H1971 C1963 0.929 . S
H1972 C1980 0.929 . S
H1973 C1982 0.930 . S
H1974 C1984 0.930 . S
H1975 C1987 0.929 . S
H1976 C1990 0.930 . S
H1977 C1992 0.960 . S
H1978 C1992 0.960 . S
H1979 C1992 0.960 . S
C1980 H1972 0.929 . S
C1980 C1981 1.377 . S
C1980 C1982 1.384 . S
C1981 C1980 1.377 . S
C1981 C1987 1.390 . S
C1982 H1973 0.930 . S
C1982 C1980 1.384 . S
C1982 C1983 1.372 . S
C1983 C1982 1.372 . S
C1983 C1984 1.400 . S
C1983 C1988 1.490 . S
C1984 H1974 0.930 . S
C1984 C1983 1.400 . S
C1984 C1987 1.386 . S
H1985 C2001 0.930 . S
H1986 C2002 0.931 . S
C1987 H1975 0.929 . S
C1987 C1981 1.390 . S
C1987 C1984 1.386 . S
C1988 C1983 1.490 . S
C1988 C1990 1.395 . S
C1988 C1991 1.403 . S
H1989 C1995 0.930 . S
C1990 H1976 0.930 . S
C1990 C1988 1.395 . S
C1990 C1993 1.403 . S
C1991 C1988 1.403 . S
C1991 C1992 1.524 . S
C1991 C1995 1.400 . S
C1992 H1977 0.960 . S
C1992 H1978 0.960 . S
C1992 H1979 0.960 . S
C1992 C1991 1.524 . S
C1993 C1990 1.403 . S
C1993 C1994 1.392 . S
C1993 C1997 1.495 . S
C1994 C1993 1.392 . S
C1994 C1995 1.385 . S
C1994 C1996 1.478 . S
C1995 H1989 0.930 . S
C1995 C1991 1.400 . S
C1995 C1994 1.385 . S
C1996 C1994 1.478 . S
C1996 C1998 1.381 . S
C1996 C2002 1.383 . S
C1997 C1993 1.495 . S
C1997 H2003 0.959 . S
C1997 H2004 0.961 . S
C1997 H2005 0.960 . S
C1998 C1996 1.381 . S
C1998 C1999 1.394 . S
C1998 H2006 0.930 . S
C1999 C1998 1.394 . S
C1999 C2000 1.383 . S
C1999 H2007 0.929 . S
C2000 C1999 1.383 . S
C2000 C2001 1.377 . S
C2001 H1985 0.930 . S
C2001 C2000 1.377 . S
C2001 C2002 1.379 . S
C2002 H1986 0.931 . S
C2002 C1996 1.383 . S
C2002 C2001 1.379 . S
H2003 C1997 0.959 . S
H2004 C1997 0.961 . S
H2005 C1997 0.960 . S
H2006 C1998 0.930 . S
H2007 C1999 0.929 . S
H2008 C2016 0.929 . S
H2009 C2018 0.930 . S
H2010 C2020 0.930 . S
H2011 C2023 0.929 . S
H2012 C2026 0.930 . S
H2013 C2028 0.960 . S
H2014 C2028 0.960 . S
H2015 C2028 0.960 . S
C2016 H2008 0.929 . S
C2016 C2017 1.377 . S
C2016 C2018 1.384 . S
C2017 C2016 1.377 . S
C2017 C2023 1.390 . S
C2018 H2009 0.930 . S
C2018 C2016 1.384 . S
C2018 C2019 1.372 . S
C2019 C2018 1.372 . S
C2019 C2020 1.400 . S
C2019 C2024 1.490 . S
C2020 H2010 0.930 . S
C2020 C2019 1.400 . S
C2020 C2023 1.386 . S
H2021 C2037 0.930 . S
H2022 C2038 0.931 . S
C2023 H2011 0.929 . S
C2023 C2017 1.390 . S
C2023 C2020 1.386 . S
C2024 C2019 1.490 . S
C2024 C2026 1.395 . S
C2024 C2027 1.403 . S
H2025 C2031 0.930 . S
C2026 H2012 0.930 . S
C2026 C2024 1.395 . S
C2026 C2029 1.403 . S
C2027 C2024 1.403 . S
C2027 C2028 1.524 . S
C2027 C2031 1.400 . S
C2028 H2013 0.960 . S
C2028 H2014 0.960 . S
C2028 H2015 0.960 . S
C2028 C2027 1.524 . S
C2029 C2026 1.403 . S
C2029 C2030 1.392 . S
C2029 C2033 1.495 . S
C2030 C2029 1.392 . S
C2030 C2031 1.385 . S
C2030 C2032 1.478 . S
C2031 H2025 0.930 . S
C2031 C2027 1.400 . S
C2031 C2030 1.385 . S
C2032 C2030 1.478 . S
C2032 C2034 1.381 . S
C2032 C2038 1.383 . S
C2033 C2029 1.495 . S
C2033 H2039 0.959 . S
C2033 H2040 0.961 . S
C2033 H2041 0.960 . S
C2034 C2032 1.381 . S
C2034 C2035 1.394 . S
C2034 H2042 0.930 . S
C2035 C2034 1.394 . S
C2035 C2036 1.383 . S
C2035 H2043 0.929 . S
C2036 C2035 1.383 . S
C2036 C2037 1.377 . S
C2037 H2021 0.930 . S
C2037 C2036 1.377 . S
C2037 C2038 1.379 . S
C2038 H2022 0.931 . S
C2038 C2032 1.383 . S
C2038 C2037 1.379 . S
H2039 C2033 0.959 . S
H2040 C2033 0.961 . S
H2041 C2033 0.960 . S
H2042 C2034 0.930 . S
H2043 C2035 0.929 . S
H2044 C2052 0.929 . S
H2045 C2054 0.930 . S
H2046 C2056 0.930 . S
H2047 C2059 0.929 . S
H2048 C2062 0.930 . S
H2049 C2064 0.960 . S
H2050 C2064 0.960 . S
H2051 C2064 0.960 . S
C2052 H2044 0.929 . S
C2052 C2053 1.377 . S
C2052 C2054 1.384 . S
C2053 C2052 1.377 . S
C2053 C2059 1.390 . S
C2054 H2045 0.930 . S
C2054 C2052 1.384 . S
C2054 C2055 1.372 . S
C2055 C2054 1.372 . S
C2055 C2056 1.400 . S
C2055 C2060 1.490 . S
C2056 H2046 0.930 . S
C2056 C2055 1.400 . S
C2056 C2059 1.386 . S
H2057 C2073 0.930 . S
H2058 C2074 0.931 . S
C2059 H2047 0.929 . S
C2059 C2053 1.390 . S
C2059 C2056 1.386 . S
C2060 C2055 1.490 . S
C2060 C2062 1.395 . S
C2060 C2063 1.403 . S
H2061 C2067 0.930 . S
C2062 H2048 0.930 . S
C2062 C2060 1.395 . S
C2062 C2065 1.403 . S
C2063 C2060 1.403 . S
C2063 C2064 1.524 . S
C2063 C2067 1.400 . S
C2064 H2049 0.960 . S
C2064 H2050 0.960 . S
C2064 H2051 0.960 . S
C2064 C2063 1.524 . S
C2065 C2062 1.403 . S
C2065 C2066 1.392 . S
C2065 C2069 1.495 . S
C2066 C2065 1.392 . S
C2066 C2067 1.385 . S
C2066 C2068 1.478 . S
C2067 H2061 0.930 . S
C2067 C2063 1.400 . S
C2067 C2066 1.385 . S
C2068 C2066 1.478 . S
C2068 C2070 1.381 . S
C2068 C2074 1.383 . S
C2069 C2065 1.495 . S
C2069 H2075 0.959 . S
C2069 H2076 0.961 . S
C2069 H2077 0.960 . S
C2070 C2068 1.381 . S
C2070 C2071 1.394 . S
C2070 H2078 0.930 . S
C2071 C2070 1.394 . S
C2071 C2072 1.383 . S
C2071 H2079 0.929 . S
C2072 C2071 1.383 . S
C2072 C2073 1.377 . S
C2073 H2057 0.930 . S
C2073 C2072 1.377 . S
C2073 C2074 1.379 . S
C2074 H2058 0.931 . S
C2074 C2068 1.383 . S
C2074 C2073 1.379 . S
H2075 C2069 0.959 . S
H2076 C2069 0.961 . S
H2077 C2069 0.960 . S
H2078 C2070 0.930 . S
H2079 C2071 0.929 . S
C380 C177 1.470 . S
C361 C9 1.501 . S
C416 C182 1.170 . S
C397 C22 1.216 . S
C452 C183 1.050 . S
C433 C49 1.100 . S
C469 C61 1.226 . S
C488 C187 1.222 . S
C505 C81 1.224 . S
C524 C190 1.211 . S
C560 C191 1.080 . S
C541 C108 1.090 . S
C577 C122 1.235 . S
C596 C168 1.240 . S
C613 C148 1.507 . S
C632 C184 1.501 . S
C668 C222 2.062 . S
C649 C18 2.061 . S
C685 C39 1.348 . S
C704 C248 1.339 . S
C740 C200 2.032 . S
C721 C58 2.066 . S
C776 C255 1.070 . S
C757 C69 1.058 . S
C793 C89 1.067 . S
C812 C209 1.041 . S
C848 C251 1.159 . S
C829 C102 1.207 . S
C865 C139 1.354 . S
C884 C215 1.342 . S
C901 C142 1.229 . S
C920 C246 1.180 . S
C937 C1 1.221 . S
C956 C254 1.193 . S
C973 C98 1.344 . S
C992 C241 1.364 . S
C1028 C219 2.039 . S
C1009 C119 2.060 . S
C1064 C247 1.037 . S
C1045 C128 1.060 . S
C1081 C159 2.069 . S
C1100 C214 2.077 . S
C1117 C41 1.212 . S
C1136 C232 1.155 . S
C1172 C223 1.376 . S
C1153 C78 1.363 . S
C1189 C28 1.074 . S
C1208 C216 1.027 . S
C1225 C149 1.471 . S
C1244 C278 1.415 . S
C1261 C82 1.192 . S
C1280 C273 1.198 . S
C1316 C287 1.003 . S
C1297 C109 1.061 . S
C1352 C264 1.173 . S
C1333 C121 1.208 . S
C1369 C21 1.186 . S
C1388 C280 1.144 . S
C1424 C279 1.043 . S
C1405 C48 1.056 . S
C1441 C62 1.197 . S
C1460 C283 1.216 . S
C1477 C8 1.470 . S
C1496 C286 1.441 . S
C1513 C158 2.073 . S
C1532 C312 2.074 . S
C1568 C328 1.364 . S
C1549 C99 1.364 . S
C1585 C118 2.073 . S
C1604 C310 2.082 . S
C1621 C129 1.086 . S
C1640 C343 1.020 . S
C1676 C319 1.026 . S
C1657 C29 1.072 . S
C1693 C42 1.232 . S
C1712 C337 1.237 . S
C1748 C315 1.361 . S
C1729 C79 1.350 . S
C1784 C350 1.250 . S
C1765 C2 1.246 . S
C1820 C342 1.196 . S
C1801 C141 1.251 . S
C1837 C38 1.368 . S
C1856 C347 1.352 . S
C1873 C59 2.066 . S
C1892 C318 2.088 . S
C1928 C351 1.094 . S
C1909 C68 1.087 . S
C1945 C19 2.078 . S
C1964 C305 2.068 . S
C1981 C101 1.238 . S
C2000 C344 1.220 . S
C2036 C296 1.325 . S
C2017 C138 1.355 . S
C2072 C311 1.079 . S
C2053 C88 1.066 . S
