# Generated by pormake.
# Topology pth, (4,4)-cn, num edge types: 1
# Building blocks:
#     Node 0, Type 0, BuildingBlock: QUQFOY_clean_sbu_1, # of connection points: 4
#     Node 1, Type 0, BuildingBlock: QUQFOY_clean_sbu_1, # of connection points: 4
#     Node 2, Type 0, BuildingBlock: QUQFOY_clean_sbu_1, # of connection points: 4
#     Node 3, Type 1, BuildingBlock: KOZSID_clean_sbu_0, # of connection points: 4
#     Node 4, Type 1, BuildingBlock: KOZSID_clean_sbu_0, # of connection points: 4
#     Node 5, Type 1, BuildingBlock: KOZSID_clean_sbu_0, # of connection points: 4
#     Edge 6, Type (0, 1), BuildingBlock: EZIPEK_clean_linker_0, # of connection points: 2
#     Edge 7, Type (0, 1), BuildingBlock: EZIPEK_clean_linker_0, # of connection points: 2
#     Edge 8, Type (0, 1), BuildingBlock: EZIPEK_clean_linker_0, # of connection points: 2
#     Edge 9, Type (0, 1), BuildingBlock: EZIPEK_clean_linker_0, # of connection points: 2
#     Edge 10, Type (0, 1), BuildingBlock: EZIPEK_clean_linker_0, # of connection points: 2
#     Edge 11, Type (0, 1), BuildingBlock: EZIPEK_clean_linker_0, # of connection points: 2
#     Edge 12, Type (0, 1), BuildingBlock: EZIPEK_clean_linker_0, # of connection points: 2
#     Edge 13, Type (0, 1), BuildingBlock: EZIPEK_clean_linker_0, # of connection points: 2
#     Edge 14, Type (0, 1), BuildingBlock: EZIPEK_clean_linker_0, # of connection points: 2
#     Edge 15, Type (0, 1), BuildingBlock: EZIPEK_clean_linker_0, # of connection points: 2
#     Edge 16, Type (0, 1), BuildingBlock: EZIPEK_clean_linker_0, # of connection points: 2
#     Edge 17, Type (0, 1), BuildingBlock: EZIPEK_clean_linker_0, # of connection points: 2
# Relax obj value: 0.024
# Max RMSD: 0.127
# Mean RMSD: 0.072
data_MOF--net-pth--node1-QUQFOY_clean_sbu_1--node2-KOZSID_clean_sbu_0--edge1-EZIPEK_clean_linker_0
_symmetry_space_group_name_H-M    P1
_symmetry_Int_Tables_number       1
_symmetry_cell_setting            triclinic
loop_
_symmetry_equiv_pos_as_xyz
'x, y, z'
_cell_length_a     19.404598
_cell_length_b     21.370363
_cell_length_c     47.501068
_cell_angle_alpha  86.762466
_cell_angle_beta   86.303638
_cell_angle_gamma 120.05779
loop_
_atom_site_label
_atom_site_type_symbol
_atom_site_fract_x
_atom_site_fract_y
_atom_site_fract_z
_atom_type_partial_charge
O0 O 0.14157 0.16231 0.00736 0.0
Cd1 Cd 0.04482 0.09724 0.03693 0.0
Cd2 Cd 0.12465 0.02952 0.04026 0.0
O3 O 0.22301 0.13178 0.02613 0.0
O4 O 1.00189 0.16207 0.04707 0.0
O5 O 0.06254 0.12699 0.07669 0.0
C6 C 0.03235 0.16754 0.07084 0.0
C7 C 0.11225 0.94955 0.07914 0.0
C8 C 0.21188 0.1741 0.00949 0.0
C9 C 0.98067 0.96238 0.00951 0.0
O10 O 0.05279 0.97728 0.00907 0.0
O11 O 0.95743 0.99781 0.02429 0.0
O12 O 0.15613 0.95917 0.05589 0.0
O13 O 0.07913 0.98887 0.08126 0.0
O14 O 0.99111 0.11982 0.39621 0.0
Cd15 Cd 0.09644 0.1655 0.37005 0.0
Cd16 Cd 0.04551 0.01375 0.37357 0.0
O17 O 0.94248 1.00138 0.39594 0.0
O18 O 0.11122 0.26433 0.36044 0.0
O19 O 0.09967 0.19109 0.32801 0.0
C20 C 0.10506 0.25133 0.33429 0.0
C21 C 0.04563 0.93536 0.34048 0.0
C22 C 0.93655 0.05469 0.40385 0.0
C23 C 0.19804 0.11929 0.39896 0.0
O24 O 0.14491 0.05506 0.3953 0.0
O25 O 0.19413 0.17413 0.38921 0.0
O26 O 0.03083 0.91587 0.36738 0.0
O27 O 0.05517 0.99806 0.33207 0.0
O28 O 0.98663 0.02133 0.68172 0.0
Cd29 Cd 0.05458 1.0002 0.7077 0.0
Cd30 Cd 0.13662 0.14689 0.70509 0.0
O31 O 0.03577 0.13735 0.68778 0.0
O32 O 0.98227 0.89527 0.72175 0.0
O33 O 0.01707 0.98382 0.74955 0.0
C34 C 0.97372 0.91567 0.74614 0.0
C35 C 0.20067 0.21638 0.74164 0.0
C36 C 0.9851 0.0798 0.67764 0.0
C37 C 0.21605 0.07601 0.67478 0.0
O38 O 0.21398 0.13375 0.67771 0.0
O39 O 0.16162 0.01531 0.68766 0.0
O40 O 0.20445 0.24667 0.71686 0.0
O41 O 0.15506 0.14661 0.74648 0.0
C42 C 0.1484 0.70541 0.15505 0.0
C43 C 0.22112 0.75873 0.14078 0.0
C44 C 0.27878 0.74874 0.15148 0.0
C45 C 0.23811 0.68984 0.17139 0.0
N46 N 0.15776 0.66026 0.17362 0.0
Co47 Co 0.07655 0.5753 0.20052 0.0
N48 N 0.16242 0.56651 0.21874 0.0
C49 C 0.2424 0.60812 0.2115 0.0
C50 C 0.28659 0.58584 0.22582 0.0
C51 C 0.23174 0.52594 0.24314 0.0
C52 C 0.15677 0.51554 0.23864 0.0
N53 N 0.99551 0.49099 0.22772 0.0
C54 C 0.00558 0.44982 0.2481 0.0
C55 C 0.93279 0.39706 0.26248 0.0
C56 C 0.87469 0.40389 0.25033 0.0
C57 C 0.91501 0.46058 0.22944 0.0
N58 N 0.99108 0.58434 0.182 0.0
C59 C 0.91086 0.54038 0.18801 0.0
C60 C 0.86732 0.56456 0.17425 0.0
C61 C 0.9228 0.62828 0.15891 0.0
C62 C 0.99754 0.6392 0.16393 0.0
N63 N 0.07218 0.50551 0.1732 0.0
C64 C 0.06388 0.39705 0.1395 0.0
C65 C 0.9946 0.39421 0.15126 0.0
C66 C 1.00003 0.44828 0.16785 0.0
C67 C 0.13766 0.45624 0.14413 0.0
C68 C 0.14042 0.50979 0.16068 0.0
N69 N 0.07951 0.64384 0.22795 0.0
C70 C 0.00861 0.69005 0.25559 0.0
C71 C 0.07934 0.74359 0.2647 0.0
C72 C 0.15082 0.74618 0.25524 0.0
C73 C 0.14974 0.69682 0.23656 0.0
C74 C 0.00979 0.64035 0.23813 0.0
H75 H 0.20608 0.70242 0.22926 0.0
H76 H 0.953 0.59969 0.23314 0.0
H77 H 0.94467 0.44168 0.17639 0.0
H78 H 0.19843 0.55361 0.16331 0.0
C79 C 0.27393 0.66429 0.18961 0.0
C80 C 0.07309 0.70354 0.15177 0.0
C81 C 0.08216 0.45603 0.25361 0.0
C82 C 0.87901 0.48461 0.21036 0.0
H83 H 0.2317 0.80202 0.125 0.0
H84 H 0.34293 0.78205 0.14612 0.0
H85 H 0.35089 0.60894 0.22325 0.0
H86 H 0.24572 0.49302 0.25709 0.0
H87 H 0.92262 0.35669 0.27956 0.0
H88 H 0.81057 0.37057 0.25573 0.0
H89 H 0.80298 0.54117 0.17656 0.0
H90 H 0.90952 0.66381 0.14623 0.0
H91 H 0.93618 0.34976 0.14792 0.0
H92 H 0.19296 0.46103 0.13505 0.0
H93 H 0.95181 0.68557 0.26245 0.0
H94 H 0.20718 0.7866 0.26194 0.0
C95 C 0.44258 0.01682 0.58505 0.0
C96 C 0.38009 0.95163 0.59857 0.0
C97 C 0.38186 0.89757 0.58527 0.0
C98 C 0.44505 0.93265 0.56454 0.0
N99 N 0.48378 0.00595 0.56364 0.0
Co100 Co 0.58124 0.07747 0.53763 0.0
N101 N 0.58283 0.99733 0.51801 0.0
C102 C 0.52853 0.92547 0.52273 0.0
C103 C 0.54383 0.8836 0.50551 0.0
C104 C 0.61216 0.93148 0.4887 0.0
C105 C 0.63469 1.00001 0.49679 0.0
N106 N 0.68099 0.14841 0.51242 0.0
C107 C 0.72595 0.13647 0.49273 0.0
C108 C 0.7929 0.20092 0.48097 0.0
C109 C 0.79037 0.25557 0.49371 0.0
C110 C 0.72247 0.22154 0.51255 0.0
N111 N 0.57739 0.15751 0.55654 0.0
C112 C 0.62696 0.22985 0.54985 0.0
C113 C 0.60824 0.2715 0.56604 0.0
C114 C 0.54255 0.22291 0.58403 0.0
C115 C 0.52507 0.15417 0.57781 0.0
N116 N 0.64978 0.07218 0.56591 0.0
C117 C 0.75098 0.06845 0.60495 0.0
C118 C 0.75788 0.13389 0.59498 0.0
C119 C 0.70729 0.13456 0.57564 0.0
C120 C 0.69204 1.00429 0.59552 0.0
C121 C 0.64197 0.00733 0.57612 0.0
N122 N 0.51311 0.08429 0.50933 0.0
C123 C 0.48819 0.15796 0.4755 0.0
C124 C 0.41413 0.09891 0.4718 0.0
C125 C 0.39051 0.03172 0.48661 0.0
C126 C 0.44084 0.02554 0.50511 0.0
C127 C 0.53633 0.14952 0.4941 0.0
H128 H 0.41982 0.97304 0.51594 0.0
H129 H 0.59168 0.19713 0.49591 0.0
H130 H 0.71675 0.1866 0.56869 0.0
H131 H 0.59792 0.95692 0.56945 0.0
C132 C 0.46712 0.89841 0.54482 0.0
C133 C 0.4583 0.08742 0.59277 0.0
C134 C 0.70751 0.06538 0.48437 0.0
C135 C 0.69405 0.25665 0.52979 0.0
H136 H 0.33709 0.94393 0.61606 0.0
H137 H 0.34133 0.83963 0.58992 0.0
H138 H 0.51025 0.82507 0.50559 0.0
H139 H 0.64274 0.91745 0.47261 0.0
H140 H 0.8386 0.20763 0.46477 0.0
H141 H 0.83276 0.31329 0.48961 0.0
H142 H 0.63948 0.33018 0.56521 0.0
H143 H 0.51135 0.23639 0.60009 0.0
H144 H 0.80332 0.18467 0.60172 0.0
H145 H 0.68546 0.95244 0.6028 0.0
H146 H 0.50849 0.21083 0.46429 0.0
H147 H 0.33327 0.98452 0.48411 0.0
C148 C 0.73037 0.63395 0.83687 0.0
C149 C 0.79105 0.62501 0.82427 0.0
C150 C 0.7852 0.56506 0.83852 0.0
C151 C 0.72117 0.54056 0.85874 0.0
N152 N 0.68521 0.58079 0.85812 0.0
Co153 Co 0.58847 0.56249 0.88329 0.0
N154 N 0.58571 0.47927 0.90611 0.0
C155 C 0.64049 0.45798 0.90362 0.0
C156 C 0.6239 0.40022 0.9226 0.0
C157 C 0.55398 0.38325 0.93807 0.0
C158 C 0.53178 0.43165 0.92744 0.0
N159 N 0.48843 0.54069 0.90727 0.0
C160 C 0.44089 0.48445 0.92726 0.0
C161 C 0.37344 0.4867 0.9372 0.0
C162 C 0.3782 0.5462 0.92285 0.0
C163 C 0.44774 0.57648 0.90491 0.0
N164 N 0.59476 0.64881 0.86157 0.0
C165 C 0.5462 0.67622 0.86661 0.0
C166 C 0.5695 0.73995 0.85028 0.0
C167 C 0.63795 0.75494 0.8342 0.0
C168 C 0.65221 0.69901 0.84155 0.0
N169 N 0.51898 0.49599 0.85644 0.0
C170 C 0.41445 0.39897 0.82047 0.0
C171 C 0.41108 0.4604 0.82664 0.0
C172 C 0.46345 0.50782 0.84448 0.0
C173 C 0.47134 0.38689 0.83234 0.0
C174 C 0.52291 0.4359 0.8501 0.0
N175 N 0.65752 0.62983 0.91011 0.0
C176 C 0.68143 0.7203 0.94272 0.0
C177 C 0.7607 0.73752 0.94322 0.0
C178 C 0.78685 0.69816 0.92776 0.0
C179 C 0.73434 0.64413 0.91186 0.0
C180 C 0.63149 0.66718 0.92604 0.0
H181 H 0.75767 0.61531 0.9009 0.0
H182 H 0.57241 0.65836 0.9262 0.0
H183 H 0.45751 0.55357 0.84837 0.0
H184 H 0.56529 0.42403 0.85855 0.0
C185 C 0.70026 0.48656 0.88087 0.0
C186 C 0.7218 0.69655 0.82923 0.0
C187 C 0.45664 0.42733 0.93719 0.0
C188 C 0.47842 0.63996 0.88644 0.0
H189 H 0.83662 0.65977 0.80722 0.0
H190 H 0.82507 0.54382 0.83536 0.0
H191 H 0.65684 0.37183 0.92419 0.0
H192 H 0.52165 0.33889 0.95469 0.0
H193 H 0.3257 0.44905 0.95312 0.0
H194 H 0.33593 0.56505 0.92518 0.0
H195 H 0.54058 0.77207 0.85026 0.0
H196 H 0.67375 0.80203 0.81897 0.0
H197 H 0.36817 0.47185 0.81764 0.0
H198 H 0.47607 0.33997 0.82784 0.0
H199 H 0.65851 0.74875 0.9548 0.0
H200 H 0.84766 0.70906 0.92801 0.0
C201 C 0.01205 0.20899 0.11814 0.0
C202 C 0.04176 0.2258 0.08896 0.0
C203 C 0.08225 0.35394 0.09259 0.0
C204 C 0.05841 0.33839 0.12222 0.0
N205 N 0.01509 0.25361 0.16421 0.0
N206 N 0.12465 0.31804 0.05052 0.0
C207 C 0.02745 0.26652 0.1353 0.0
C208 C 0.08235 0.29937 0.07676 0.0
N209 N 0.96655 0.13802 0.12926 0.0
N210 N 0.10218 0.42008 0.07925 0.0
H211 H 0.12946 0.28065 0.03859 0.0
H212 H 0.1622 0.37174 0.04192 0.0
H213 H 0.10212 0.46138 0.08992 0.0
H214 H 0.11147 0.43151 0.05727 0.0
H215 H 0.93605 0.12207 0.14958 0.0
H216 H 0.95352 0.09465 0.11733 0.0
H217 H 1.00048 0.20418 0.17513 0.0
H218 H 0.0267 0.29439 0.17743 0.0
C219 C 0.87871 0.04062 0.45396 0.0
C220 C 0.8698 0.04335 0.42455 0.0
C221 C 0.75574 0.06186 0.43417 0.0
C222 C 0.76415 0.0584 0.46361 0.0
N223 N 0.82436 0.03379 0.50232 0.0
N224 N 0.79396 0.04442 0.3867 0.0
C225 C 0.82284 0.04436 0.47374 0.0
C226 C 0.80621 0.05012 0.4147 0.0
N227 N 0.94274 0.0375 0.4628 0.0
N228 N 0.70073 0.07815 0.42489 0.0
H229 H 0.83008 0.03558 0.37215 0.0
H230 H 0.74496 0.04261 0.37823 0.0
H231 H 0.66166 0.08534 0.43863 0.0
H232 H 0.69653 0.08887 0.40363 0.0
H233 H 0.95916 0.04486 0.48331 0.0
H234 H 0.98227 0.03075 0.44913 0.0
H235 H 0.85945 0.01545 0.51125 0.0
H236 H 0.78663 0.03914 0.51742 0.0
C237 C 0.92506 0.85419 0.79646 0.0
C238 C 0.90879 0.86326 0.76826 0.0
C239 C 0.76986 0.76333 0.78002 0.0
C240 C 0.78462 0.75742 0.80858 0.0
N241 N 0.87103 0.80623 0.84546 0.0
N242 N 0.8095 0.84033 0.73581 0.0
C243 C 0.86068 0.80592 0.81727 0.0
C244 C 0.82937 0.82174 0.76076 0.0
N245 N 1.00225 0.88876 0.80308 0.0
N246 N 0.69981 0.71201 0.771 0.0
H247 H 0.8499 0.88508 0.7217 0.0
H248 H 0.75084 0.81644 0.73062 0.0
H249 H 0.65419 0.66884 0.78451 0.0
H250 H 0.68976 0.70898 0.74971 0.0
H251 H 0.01869 0.87838 0.82246 0.0
H252 H 0.05102 0.92326 0.78833 0.0
H253 H 0.92252 0.845 0.85346 0.0
H254 H 0.8252 0.77147 0.86116 0.0
C255 C 0.12754 0.89844 0.12653 0.0
C256 C 0.09196 0.88771 0.10077 0.0
C257 C 0.04342 0.75739 0.10845 0.0
C258 C 0.07471 0.76645 0.13503 0.0
N259 N 0.13085 0.8436 0.17233 0.0
N260 N 0.98903 0.804 0.07437 0.0
C261 C 0.11174 0.83652 0.14507 0.0
C262 C 0.04171 0.81618 0.09388 0.0
N263 N 0.17781 0.96739 0.13289 0.0
N264 N 0.01789 0.69378 0.09649 0.0
H265 H 0.98063 0.84554 0.06594 0.0
H266 H 0.94667 0.75203 0.06995 0.0
H267 H 0.02043 0.64989 0.106 0.0
H268 H 1.00125 0.6875 0.07594 0.0
H269 H 0.21239 0.9789 0.14983 0.0
H270 H 0.1883 0.01329 0.1201 0.0
H271 H 0.15157 0.89199 0.18163 0.0
H272 H 0.11914 0.79933 0.18644 0.0
C273 C 0.24318 0.12046 0.44714 0.0
C274 C 0.26049 0.12753 0.41724 0.0
C275 C 0.3774 0.11422 0.42303 0.0
C276 C 0.36115 0.10875 0.45295 0.0
N277 N 0.28859 0.12027 0.49357 0.0
N278 N 0.35012 0.14429 0.37645 0.0
C279 C 0.29693 0.11595 0.46504 0.0
C280 C 0.32982 0.12875 0.40512 0.0
N281 N 0.17377 0.11559 0.45839 0.0
N282 N 0.43634 0.10268 0.41183 0.0
H283 H 0.31595 0.15481 0.36294 0.0
H284 H 0.40373 0.15284 0.36629 0.0
H285 H 0.47238 0.09206 0.42429 0.0
H286 H 0.44608 0.09841 0.3904 0.0
H287 H 0.15203 0.10074 0.47977 0.0
H288 H 0.13532 0.12285 0.44601 0.0
H289 H 0.24845 0.13327 0.50332 0.0
H290 H 0.32611 0.11621 0.50741 0.0
C291 C 0.33886 0.30013 0.7547 0.0
C292 C 0.25476 0.26001 0.76265 0.0
C293 C 0.27716 0.30197 0.81016 0.0
C294 C 0.35984 0.34896 0.80091 0.0
N295 N 0.46749 0.40118 0.76291 0.0
N296 N 0.14246 0.22896 0.7969 0.0
C297 C 0.39019 0.35031 0.77277 0.0
C298 C 0.22345 0.26222 0.79019 0.0
N299 N 0.37032 0.2879 0.73045 0.0
N300 N 0.25035 0.29411 0.83818 0.0
H301 H 0.10149 0.19988 0.7828 0.0
H302 H 0.11596 0.2351 0.8155 0.0
H303 H 0.28793 0.32234 0.85332 0.0
H304 H 0.19264 0.25522 0.84686 0.0
H305 H 0.43156 0.30985 0.72515 0.0
H306 H 0.33541 0.2498 0.71706 0.0
H307 H 0.49009 0.41022 0.74165 0.0
H308 H 0.50729 0.43879 0.77543 0.0
C309 C 0.93415 0.06945 0.62988 0.0
C310 C 0.92698 0.08071 0.65892 0.0
C311 C 0.7995 0.07598 0.65319 0.0
C312 C 0.80933 0.06893 0.62387 0.0
N313 N 0.89088 0.07011 0.58313 0.0
N314 N 0.85797 0.10195 0.69788 0.0
C315 C 0.87791 0.06852 0.6119 0.0
C316 C 0.86127 0.08649 0.67045 0.0
N317 N 0.99449 0.05887 0.61947 0.0
N318 N 0.72985 0.07038 0.66461 0.0
H319 H 0.89998 0.10654 0.71149 0.0
H320 H 0.8167 0.11472 0.70677 0.0
H321 H 0.68379 0.06302 0.65252 0.0
H322 H 0.71475 0.06769 0.68623 0.0
H323 H 0.99692 0.04064 0.59977 0.0
H324 H 0.04032 0.06431 0.63119 0.0
H325 H 0.94428 0.07904 0.57264 0.0
H326 H 0.85031 0.06775 0.56925 0.0
C327 C 0.88632 0.92301 0.97113 0.0
C328 C 0.9253 0.90546 0.99195 0.0
C329 C 0.84878 0.77723 0.98281 0.0
C330 C 0.81577 0.79557 0.96029 0.0
N331 N 0.81579 0.8887 0.92914 0.0
N332 N 0.96054 0.8178 0.01029 0.0
C333 C 0.83762 0.86926 0.95344 0.0
C334 C 0.91184 0.83332 0.9956 0.0
N335 N 0.89748 0.99151 0.96753 0.0
N336 N 0.8183 0.70602 0.99274 0.0
H337 H 0.01003 0.85643 0.01909 0.0
H338 H 0.95732 0.76755 0.01088 0.0
H339 H 0.77053 0.66315 0.9845 0.0
H340 H 0.83468 0.69019 0.01111 0.0
H341 H 0.86263 1.00466 0.95551 0.0
H342 H 0.93922 0.03481 0.97752 0.0
H343 H 0.83692 0.94241 0.92134 0.0
H344 H 0.78243 0.85151 0.91521 0.0
C345 C 0.1162 0.91724 0.2972 0.0
C346 C 0.05434 0.8876 0.32028 0.0
C347 C 0.02367 0.76539 0.31019 0.0
C348 C 0.07597 0.79443 0.28459 0.0
N349 N 0.15915 0.89951 0.25086 0.0
N350 N 0.93525 0.78094 0.34339 0.0
C351 C 0.11861 0.87085 0.27722 0.0
C352 C 1.00407 0.81088 0.32528 0.0
N353 N 0.17555 0.9885 0.29501 0.0
N354 N 0.99407 0.6947 0.32059 0.0
H355 H 0.91489 0.81201 0.35318 0.0
H356 H 0.89353 0.72541 0.34581 0.0
H357 H 0.01008 0.6605 0.31092 0.0
H358 H 0.96119 0.67293 0.34043 0.0
H359 H 0.22543 0.01031 0.27995 0.0
H360 H 0.18046 0.02358 0.31012 0.0
H361 H 0.18434 0.95429 0.24364 0.0
H362 H 0.16066 0.8677 0.23527 0.0
C363 C 0.34206 0.07134 0.66347 0.0
C364 C 0.27883 0.07949 0.65397 0.0
C365 C 0.33445 0.09468 0.60439 0.0
C366 C 0.39966 0.09022 0.61396 0.0
N367 N 0.47293 0.08425 0.65198 0.0
N368 N 0.22032 0.10929 0.61579 0.0
C369 C 0.40563 0.08149 0.64338 0.0
C370 C 0.27689 0.09449 0.62453 0.0
N371 N 0.34094 0.05346 0.69166 0.0
N372 N 0.32593 0.09629 0.57602 0.0
H373 H 0.17438 0.10592 0.62954 0.0
H374 H 0.2217 0.12958 0.59518 0.0
H375 H 0.36808 0.09881 0.56051 0.0
H376 H 0.27468 0.09017 0.56782 0.0
H377 H 0.38019 0.03902 0.69974 0.0
H378 H 0.29737 0.04888 0.70705 0.0
H379 H 0.48522 0.08525 0.673 0.0
H380 H 0.51995 0.09096 0.63774 0.0
C381 C 0.32784 0.30264 1.00369 0.0
C382 C 0.27969 0.23686 0.99172 0.0
C383 C 0.34288 0.29749 0.94401 0.0
C384 C 0.39435 0.362 0.95612 0.0
N385 N 0.44481 0.42409 0.99739 0.0
N386 N 0.2489 0.1675 0.95143 0.0
C387 C 0.38949 0.36398 0.98598 0.0
C388 C 0.28948 0.23314 0.96211 0.0
N389 N 0.31244 0.30729 0.03175 0.0
N390 N 0.34367 0.29841 0.91516 0.0
H391 H 0.20941 0.11938 0.96412 0.0
H392 H 0.25916 0.15937 0.93054 0.0
H393 H 0.38268 0.34424 0.90125 0.0
H394 H 0.30186 0.25576 0.90497 0.0
H395 H 0.33866 0.35587 0.04106 0.0
H396 H 0.26908 0.26309 0.04548 0.0
H397 H 0.4502 0.42616 0.01902 0.0
H398 H 0.48935 0.47063 0.98502 0.0
C399 C 0.05064 0.27753 0.29033 0.0
C400 C 0.10067 0.3031 0.31271 0.0
C401 C 0.12363 0.42539 0.29944 0.0
C402 C 0.08507 0.40206 0.2746 0.0
N403 N 0.02684 0.30753 0.24337 0.0
N404 N 0.20345 0.40793 0.3324 0.0
C405 C 0.05344 0.32864 0.26903 0.0
C406 C 0.14241 0.37897 0.3156 0.0
N407 N 0.99626 0.20531 0.29017 0.0
N408 N 0.14272 0.49194 0.30763 0.0
H409 H 0.22518 0.37755 0.34231 0.0
H410 H 0.23937 0.46373 0.33331 0.0
H411 H 0.12906 0.52709 0.29644 0.0
H412 H 0.16485 0.50874 0.32693 0.0
H413 H 0.95446 0.18575 0.27547 0.0
H414 H 0.98529 0.16611 0.30661 0.0
H415 H 0.01038 0.25606 0.2374 0.0
H416 H 0.02839 0.34339 0.22716 0.0
loop_
_geom_bond_atom_site_label_1
_geom_bond_atom_site_label_2
_geom_bond_distance
_geom_bond_site_symmetry_2
_ccdc_geom_bond_type
O0 Cd1 2.223 1_556 S
O0 C8 1.315 . S
Cd1 O0 2.223 1_554 S
Cd1 O4 2.297 . S
Cd1 O5 2.439 . S
Cd1 O11 2.240 1_545 S
Cd2 O3 2.240 . S
Cd2 O10 2.223 1_544 S
Cd2 O12 2.297 1_545 S
Cd2 O13 2.439 1_545 S
O3 Cd2 2.240 . S
O3 C8 1.279 1_554 S
O4 Cd1 2.297 . S
O4 C6 1.247 . S
O5 Cd1 2.439 . S
O5 C6 1.208 . S
C6 O4 1.247 . S
C6 O5 1.208 . S
C7 O12 1.247 . S
C7 O13 1.208 . S
C8 O0 1.315 . S
C8 O3 1.279 1_556 S
C9 O10 1.315 1_554 S
C9 O11 1.280 . S
O10 Cd2 2.223 1_566 S
O10 C9 1.315 1_556 S
O11 Cd1 2.240 1_565 S
O11 C9 1.280 . S
O12 Cd2 2.297 1_565 S
O12 C7 1.247 . S
O13 Cd2 2.439 1_565 S
O13 C7 1.208 . S
O14 Cd15 2.223 . S
O14 C22 1.315 1_455 S
Cd15 O14 2.223 . S
Cd15 O18 2.297 . S
Cd15 O19 2.439 . S
Cd15 O25 2.240 . S
Cd16 O17 2.240 1_565 S
Cd16 O24 2.223 1_665 S
Cd16 O26 2.297 1_655 S
Cd16 O27 2.439 1_665 S
O17 Cd16 2.240 1_545 S
O17 C22 1.279 . S
O18 Cd15 2.297 . S
O18 C20 1.247 . S
O19 Cd15 2.439 . S
O19 C20 1.208 . S
C20 O18 1.247 . S
C20 O19 1.208 . S
C21 O26 1.247 . S
C21 O27 1.208 1_565 S
C22 O14 1.315 1_655 S
C22 O17 1.279 . S
C23 O24 1.315 . S
C23 O25 1.279 . S
O24 Cd16 2.223 1_445 S
O24 C23 1.315 . S
O25 Cd15 2.240 . S
O25 C23 1.279 . S
O26 Cd16 2.297 1_455 S
O26 C21 1.247 . S
O27 Cd16 2.439 1_445 S
O27 C21 1.208 1_545 S
O28 Cd29 2.223 1_655 S
O28 C36 1.315 1_565 S
Cd29 O28 2.223 1_455 S
Cd29 O32 2.297 1_455 S
Cd29 O33 2.439 1_455 S
Cd29 O39 2.240 1_565 S
Cd30 O31 2.240 . S
Cd30 O38 2.223 . S
Cd30 O40 2.297 . S
Cd30 O41 2.439 . S
O31 Cd30 2.240 . S
O31 C36 1.279 1_455 S
O32 Cd29 2.297 1_655 S
O32 C34 1.247 . S
O33 Cd29 2.439 1_655 S
O33 C34 1.208 . S
C34 O32 1.247 . S
C34 O33 1.208 . S
C35 O40 1.247 . S
C35 O41 1.208 . S
C36 O28 1.315 1_545 S
C36 O31 1.279 1_655 S
C37 O38 1.315 . S
C37 O39 1.279 . S
O38 Cd30 2.223 . S
O38 C37 1.315 . S
O39 Cd29 2.240 1_545 S
O39 C37 1.279 . S
O40 Cd30 2.297 . S
O40 C35 1.247 . S
O41 Cd30 2.439 . S
O41 C35 1.208 . S
C42 C43 1.443 . S
C42 N46 1.376 . S
C42 C80 1.389 . S
C43 C42 1.443 . S
C43 C44 1.340 . S
C43 H83 0.951 . S
C44 C43 1.340 . S
C44 C45 1.439 . S
C44 H84 0.950 . S
C45 C44 1.439 . S
C45 N46 1.374 . S
C45 C79 1.395 . S
N46 C42 1.376 . S
N46 C45 1.374 . S
N46 Co47 2.008 . S
Co47 N46 2.008 . S
Co47 N48 1.995 . S
Co47 N53 2.008 1_455 S
Co47 N58 1.995 1_455 S
Co47 N63 2.282 . S
Co47 N69 2.282 . S
N48 Co47 1.995 . S
N48 C49 1.376 . S
N48 C52 1.383 . S
C49 N48 1.376 . S
C49 C50 1.446 . S
C49 C79 1.391 . S
C50 C49 1.446 . S
C50 C51 1.339 . S
C50 H85 0.949 . S
C51 C50 1.339 . S
C51 C52 1.439 . S
C51 H86 0.950 . S
C52 N48 1.383 . S
C52 C51 1.439 . S
C52 C81 1.392 . S
N53 Co47 2.008 1_655 S
N53 C54 1.376 . S
N53 C57 1.374 . S
C54 N53 1.376 . S
C54 C55 1.443 . S
C54 C81 1.389 1_655 S
C55 C54 1.443 . S
C55 C56 1.340 . S
C55 H87 0.951 . S
C56 C55 1.340 . S
C56 C57 1.439 . S
C56 H88 0.950 . S
C57 N53 1.374 . S
C57 C56 1.439 . S
C57 C82 1.395 . S
N58 Co47 1.995 1_655 S
N58 C59 1.376 . S
N58 C62 1.383 . S
C59 N58 1.376 . S
C59 C60 1.446 . S
C59 C82 1.391 . S
C60 C59 1.446 . S
C60 C61 1.339 . S
C60 H89 0.949 . S
C61 C60 1.339 . S
C61 C62 1.439 . S
C61 H90 0.950 . S
C62 N58 1.383 . S
C62 C61 1.439 . S
C62 C80 1.392 1_655 S
N63 Co47 2.282 . S
N63 C66 1.332 . S
N63 C68 1.332 . S
C64 C65 1.386 1_455 S
C64 C67 1.388 . S
C65 C64 1.386 1_655 S
C65 C66 1.382 1_655 S
C65 H91 0.950 . S
C66 N63 1.332 . S
C66 C65 1.382 1_455 S
C66 H77 0.952 1_455 S
C67 C64 1.388 . S
C67 C68 1.382 . S
C67 H92 0.950 . S
C68 N63 1.332 . S
C68 C67 1.382 . S
C68 H78 0.948 . S
N69 Co47 2.282 . S
N69 C73 1.332 . S
N69 C74 1.332 1_455 S
C70 C71 1.388 1_655 S
C70 C74 1.382 . S
C70 H93 0.950 . S
C71 C70 1.388 1_455 S
C71 C72 1.386 . S
C72 C71 1.386 . S
C72 C73 1.382 . S
C72 H94 0.950 . S
C73 N69 1.332 . S
C73 C72 1.382 . S
C73 H75 0.952 . S
C74 N69 1.332 1_655 S
C74 C70 1.382 . S
C74 H76 0.948 . S
H75 C73 0.952 . S
H76 C74 0.948 . S
H77 C66 0.952 1_655 S
H78 C68 0.948 . S
C79 C45 1.395 . S
C79 C49 1.391 . S
C80 C42 1.389 . S
C80 C62 1.392 1_455 S
C81 C52 1.392 . S
C81 C54 1.389 1_455 S
C82 C57 1.395 . S
C82 C59 1.391 . S
H83 C43 0.951 . S
H84 C44 0.950 . S
H85 C50 0.949 . S
H86 C51 0.950 . S
H87 C55 0.951 . S
H88 C56 0.950 . S
H89 C60 0.949 . S
H90 C61 0.950 . S
H91 C65 0.950 . S
H92 C67 0.950 . S
H93 C70 0.950 . S
H94 C72 0.950 . S
C95 C96 1.443 1_545 S
C95 N99 1.376 . S
C95 C133 1.389 . S
C96 C95 1.443 1_565 S
C96 C97 1.340 . S
C96 H136 0.951 . S
C97 C96 1.340 . S
C97 C98 1.439 . S
C97 H137 0.950 . S
C98 C97 1.439 . S
C98 N99 1.374 1_565 S
C98 C132 1.395 . S
N99 C95 1.376 . S
N99 C98 1.374 1_545 S
N99 Co100 2.008 . S
Co100 N99 2.008 . S
Co100 N101 1.995 . S
Co100 N106 2.008 . S
Co100 N111 1.995 . S
Co100 N116 2.282 . S
Co100 N122 2.282 . S
N101 Co100 1.995 . S
N101 C102 1.376 1_545 S
N101 C105 1.383 . S
C102 N101 1.376 1_565 S
C102 C103 1.446 . S
C102 C132 1.391 . S
C103 C102 1.446 . S
C103 C104 1.339 . S
C103 H138 0.949 . S
C104 C103 1.339 . S
C104 C105 1.439 1_565 S
C104 H139 0.950 . S
C105 N101 1.383 . S
C105 C104 1.439 1_545 S
C105 C134 1.392 . S
N106 Co100 2.008 . S
N106 C107 1.376 . S
N106 C110 1.374 . S
C107 N106 1.376 . S
C107 C108 1.443 . S
C107 C134 1.389 . S
C108 C107 1.443 . S
C108 C109 1.340 . S
C108 H140 0.951 . S
C109 C108 1.340 . S
C109 C110 1.439 . S
C109 H141 0.950 . S
C110 N106 1.374 . S
C110 C109 1.439 . S
C110 C135 1.395 . S
N111 Co100 1.995 . S
N111 C112 1.376 . S
N111 C115 1.383 . S
C112 N111 1.376 . S
C112 C113 1.446 . S
C112 C135 1.391 . S
C113 C112 1.446 . S
C113 C114 1.339 . S
C113 H142 0.949 . S
C114 C113 1.339 . S
C114 C115 1.439 . S
C114 H143 0.950 . S
C115 N111 1.383 . S
C115 C114 1.439 . S
C115 C133 1.392 . S
N116 Co100 2.282 . S
N116 C119 1.332 . S
N116 C121 1.332 . S
C117 C118 1.386 . S
C117 C120 1.388 . S
C118 C117 1.386 . S
C118 C119 1.382 . S
C118 H144 0.950 . S
C119 N116 1.332 . S
C119 C118 1.382 . S
C119 H130 0.952 . S
C120 C117 1.388 . S
C120 C121 1.382 . S
C120 H145 0.950 1_545 S
C121 N116 1.332 . S
C121 C120 1.382 . S
C121 H131 0.948 1_545 S
N122 Co100 2.282 . S
N122 C126 1.332 . S
N122 C127 1.332 . S
C123 C124 1.388 . S
C123 C127 1.382 . S
C123 H146 0.950 . S
C124 C123 1.388 . S
C124 C125 1.386 . S
C125 C124 1.386 . S
C125 C126 1.382 . S
C125 H147 0.950 1_545 S
C126 N122 1.332 . S
C126 C125 1.382 . S
C126 H128 0.952 1_545 S
C127 N122 1.332 . S
C127 C123 1.382 . S
C127 H129 0.948 . S
H128 C126 0.952 1_565 S
H129 C127 0.948 . S
H130 C119 0.952 . S
H131 C121 0.948 1_565 S
C132 C98 1.395 . S
C132 C102 1.391 . S
C133 C95 1.389 . S
C133 C115 1.392 . S
C134 C105 1.392 . S
C134 C107 1.389 . S
C135 C110 1.395 . S
C135 C112 1.391 . S
H136 C96 0.951 . S
H137 C97 0.950 . S
H138 C103 0.949 . S
H139 C104 0.950 . S
H140 C108 0.951 . S
H141 C109 0.950 . S
H142 C113 0.949 . S
H143 C114 0.950 . S
H144 C118 0.950 . S
H145 C120 0.950 1_565 S
H146 C123 0.950 . S
H147 C125 0.950 1_565 S
C148 C149 1.443 . S
C148 N152 1.376 . S
C148 C186 1.389 . S
C149 C148 1.443 . S
C149 C150 1.340 . S
C149 H189 0.951 . S
C150 C149 1.340 . S
C150 C151 1.439 . S
C150 H190 0.950 . S
C151 C150 1.439 . S
C151 N152 1.374 . S
C151 C185 1.395 . S
N152 C148 1.376 . S
N152 C151 1.374 . S
N152 Co153 2.008 . S
Co153 N152 2.008 . S
Co153 N154 1.995 . S
Co153 N159 2.008 . S
Co153 N164 1.995 . S
Co153 N169 2.282 . S
Co153 N175 2.282 . S
N154 Co153 1.995 . S
N154 C155 1.376 . S
N154 C158 1.383 . S
C155 N154 1.376 . S
C155 C156 1.446 . S
C155 C185 1.391 . S
C156 C155 1.446 . S
C156 C157 1.339 . S
C156 H191 0.949 . S
C157 C156 1.339 . S
C157 C158 1.439 . S
C157 H192 0.950 . S
C158 N154 1.383 . S
C158 C157 1.439 . S
C158 C187 1.392 . S
N159 Co153 2.008 . S
N159 C160 1.376 . S
N159 C163 1.374 . S
C160 N159 1.376 . S
C160 C161 1.443 . S
C160 C187 1.389 . S
C161 C160 1.443 . S
C161 C162 1.340 . S
C161 H193 0.951 . S
C162 C161 1.340 . S
C162 C163 1.439 . S
C162 H194 0.950 . S
C163 N159 1.374 . S
C163 C162 1.439 . S
C163 C188 1.395 . S
N164 Co153 1.995 . S
N164 C165 1.376 . S
N164 C168 1.383 . S
C165 N164 1.376 . S
C165 C166 1.446 . S
C165 C188 1.391 . S
C166 C165 1.446 . S
C166 C167 1.339 . S
C166 H195 0.949 . S
C167 C166 1.339 . S
C167 C168 1.439 . S
C167 H196 0.950 . S
C168 N164 1.383 . S
C168 C167 1.439 . S
C168 C186 1.392 . S
N169 Co153 2.282 . S
N169 C172 1.332 . S
N169 C174 1.332 . S
C170 C171 1.386 . S
C170 C173 1.388 . S
C171 C170 1.386 . S
C171 C172 1.382 . S
C171 H197 0.950 . S
C172 N169 1.332 . S
C172 C171 1.382 . S
C172 H183 0.952 . S
C173 C170 1.388 . S
C173 C174 1.382 . S
C173 H198 0.950 . S
C174 N169 1.332 . S
C174 C173 1.382 . S
C174 H184 0.948 . S
N175 Co153 2.282 . S
N175 C179 1.332 . S
N175 C180 1.332 . S
C176 C177 1.388 . S
C176 C180 1.382 . S
C176 H199 0.950 . S
C177 C176 1.388 . S
C177 C178 1.386 . S
C178 C177 1.386 . S
C178 C179 1.382 . S
C178 H200 0.950 . S
C179 N175 1.332 . S
C179 C178 1.382 . S
C179 H181 0.952 . S
C180 N175 1.332 . S
C180 C176 1.382 . S
C180 H182 0.948 . S
H181 C179 0.952 . S
H182 C180 0.948 . S
H183 C172 0.952 . S
H184 C174 0.948 . S
C185 C151 1.395 . S
C185 C155 1.391 . S
C186 C148 1.389 . S
C186 C168 1.392 . S
C187 C158 1.392 . S
C187 C160 1.389 . S
C188 C163 1.395 . S
C188 C165 1.391 . S
H189 C149 0.951 . S
H190 C150 0.950 . S
H191 C156 0.949 . S
H192 C157 0.950 . S
H193 C161 0.951 . S
H194 C162 0.950 . S
H195 C166 0.949 . S
H196 C167 0.950 . S
H197 C171 0.950 . S
H198 C173 0.950 . S
H199 C176 0.950 . S
H200 C178 0.950 . S
C201 C202 1.363 . S
C201 C207 1.379 . S
C201 N209 1.356 . S
C202 C201 1.363 . S
C202 C208 1.363 . S
C203 C204 1.363 . S
C203 C208 1.379 . S
C203 N210 1.356 . S
C204 C203 1.363 . S
C204 C207 1.363 . S
N205 C207 1.356 . S
N205 H217 0.984 . S
N205 H218 0.985 . S
N206 C208 1.356 . S
N206 H211 0.984 . S
N206 H212 0.985 . S
C207 C201 1.379 . S
C207 C204 1.363 . S
C207 N205 1.356 . S
C208 C202 1.363 . S
C208 C203 1.379 . S
C208 N206 1.356 . S
N209 C201 1.356 . S
N209 H215 0.984 . S
N209 H216 0.984 . S
N210 C203 1.356 . S
N210 H213 0.984 . S
N210 H214 0.985 . S
H211 N206 0.984 . S
H212 N206 0.985 . S
H213 N210 0.984 . S
H214 N210 0.985 . S
H215 N209 0.984 . S
H216 N209 0.984 . S
H217 N205 0.984 . S
H218 N205 0.985 . S
C219 C220 1.363 . S
C219 C225 1.379 . S
C219 N227 1.356 1_655 S
C220 C219 1.363 . S
C220 C226 1.363 . S
C221 C222 1.363 . S
C221 C226 1.379 . S
C221 N228 1.356 . S
C222 C221 1.363 . S
C222 C225 1.363 . S
N223 C225 1.356 . S
N223 H235 0.984 . S
N223 H236 0.985 . S
N224 C226 1.356 . S
N224 H229 0.984 . S
N224 H230 0.985 1_545 S
C225 C219 1.379 . S
C225 C222 1.363 . S
C225 N223 1.356 . S
C226 C220 1.363 . S
C226 C221 1.379 . S
C226 N224 1.356 . S
N227 C219 1.356 1_455 S
N227 H233 0.984 . S
N227 H234 0.984 . S
N228 C221 1.356 . S
N228 H231 0.984 . S
N228 H232 0.985 1_545 S
H229 N224 0.984 . S
H230 N224 0.985 1_565 S
H231 N228 0.984 . S
H232 N228 0.985 1_565 S
H233 N227 0.984 . S
H234 N227 0.984 . S
H235 N223 0.984 . S
H236 N223 0.985 . S
C237 C238 1.363 . S
C237 C243 1.379 . S
C237 N245 1.356 . S
C238 C237 1.363 . S
C238 C244 1.363 . S
C239 C240 1.363 . S
C239 C244 1.379 . S
C239 N246 1.356 . S
C240 C239 1.363 . S
C240 C243 1.363 . S
N241 C243 1.356 . S
N241 H253 0.984 . S
N241 H254 0.985 . S
N242 C244 1.356 . S
N242 H247 0.984 . S
N242 H248 0.985 . S
C243 C237 1.379 . S
C243 C240 1.363 . S
C243 N241 1.356 . S
C244 C238 1.363 . S
C244 C239 1.379 . S
C244 N242 1.356 . S
N245 C237 1.356 . S
N245 H251 0.984 1_655 S
N245 H252 0.984 1_655 S
N246 C239 1.356 . S
N246 H249 0.984 . S
N246 H250 0.985 . S
H247 N242 0.984 . S
H248 N242 0.985 . S
H249 N246 0.984 . S
H250 N246 0.985 . S
H251 N245 0.984 1_455 S
H252 N245 0.984 1_455 S
H253 N241 0.984 . S
H254 N241 0.985 . S
C255 C256 1.363 . S
C255 C261 1.379 . S
C255 N263 1.356 . S
C256 C255 1.363 . S
C256 C262 1.363 . S
C257 C258 1.363 . S
C257 C262 1.379 . S
C257 N264 1.356 . S
C258 C257 1.363 . S
C258 C261 1.363 . S
N259 C261 1.356 . S
N259 H271 0.984 . S
N259 H272 0.985 . S
N260 C262 1.356 . S
N260 H265 0.984 . S
N260 H266 0.985 1_455 S
C261 C255 1.379 . S
C261 C258 1.363 . S
C261 N259 1.356 . S
C262 C256 1.363 . S
C262 C257 1.379 . S
C262 N260 1.356 . S
N263 C255 1.356 . S
N263 H269 0.984 . S
N263 H270 0.984 . S
N264 C257 1.356 . S
N264 H267 0.984 . S
N264 H268 0.985 1_455 S
H265 N260 0.984 . S
H266 N260 0.985 1_655 S
H267 N264 0.984 . S
H268 N264 0.985 1_655 S
H269 N263 0.984 . S
H270 N263 0.984 . S
H271 N259 0.984 . S
H272 N259 0.985 . S
C273 C274 1.363 . S
C273 C279 1.379 . S
C273 N281 1.356 1_545 S
C274 C273 1.363 . S
C274 C280 1.363 . S
C275 C276 1.363 . S
C275 C280 1.379 . S
C275 N282 1.356 . S
C276 C275 1.363 . S
C276 C279 1.363 . S
N277 C279 1.356 1_565 S
N277 H289 0.984 . S
N277 H290 0.985 1_565 S
N278 C280 1.356 . S
N278 H283 0.984 . S
N278 H284 0.985 . S
C279 C273 1.379 . S
C279 C276 1.363 . S
C279 N277 1.356 1_545 S
C280 C274 1.363 . S
C280 C275 1.379 . S
C280 N278 1.356 . S
N281 C273 1.356 1_565 S
N281 H287 0.984 . S
N281 H288 0.984 1_565 S
N282 C275 1.356 . S
N282 H285 0.984 . S
N282 H286 0.985 . S
H283 N278 0.984 . S
H284 N278 0.985 . S
H285 N282 0.984 . S
H286 N282 0.985 . S
H287 N281 0.984 . S
H288 N281 0.984 1_545 S
H289 N277 0.984 . S
H290 N277 0.985 1_545 S
C291 C292 1.363 . S
C291 C297 1.379 . S
C291 N299 1.356 . S
C292 C291 1.363 . S
C292 C298 1.363 . S
C293 C294 1.363 . S
C293 C298 1.379 . S
C293 N300 1.356 . S
C294 C293 1.363 . S
C294 C297 1.363 . S
N295 C297 1.356 . S
N295 H307 0.984 . S
N295 H308 0.985 . S
N296 C298 1.356 . S
N296 H301 0.984 . S
N296 H302 0.985 . S
C297 C291 1.379 . S
C297 C294 1.363 . S
C297 N295 1.356 . S
C298 C292 1.363 . S
C298 C293 1.379 . S
C298 N296 1.356 . S
N299 C291 1.356 . S
N299 H305 0.984 . S
N299 H306 0.984 . S
N300 C293 1.356 . S
N300 H303 0.984 . S
N300 H304 0.985 . S
H301 N296 0.984 . S
H302 N296 0.985 . S
H303 N300 0.984 . S
H304 N300 0.985 . S
H305 N299 0.984 . S
H306 N299 0.984 . S
H307 N295 0.984 . S
H308 N295 0.985 . S
C309 C310 1.363 . S
C309 C315 1.379 . S
C309 N317 1.356 1_545 S
C310 C309 1.363 . S
C310 C316 1.363 . S
C311 C312 1.363 . S
C311 C316 1.379 . S
C311 N318 1.356 . S
C312 C311 1.363 . S
C312 C315 1.363 . S
N313 C315 1.356 1_565 S
N313 H325 0.984 . S
N313 H326 0.985 1_565 S
N314 C316 1.356 . S
N314 H319 0.984 1_655 S
N314 H320 0.985 . S
C315 C309 1.379 . S
C315 C312 1.363 . S
C315 N313 1.356 1_545 S
C316 C310 1.363 . S
C316 C311 1.379 . S
C316 N314 1.356 . S
N317 C309 1.356 1_565 S
N317 H323 0.984 . S
N317 H324 0.984 . S
N318 C311 1.356 . S
N318 H321 0.984 . S
N318 H322 0.985 . S
H319 N314 0.984 1_455 S
H320 N314 0.985 . S
H321 N318 0.984 . S
H322 N318 0.985 . S
H323 N317 0.984 . S
H324 N317 0.984 . S
H325 N313 0.984 . S
H326 N313 0.985 1_545 S
C327 C328 1.363 . S
C327 C333 1.379 . S
C327 N335 1.356 . S
C328 C327 1.363 . S
C328 C334 1.363 . S
C329 C330 1.363 . S
C329 C334 1.379 . S
C329 N336 1.356 . S
C330 C329 1.363 . S
C330 C333 1.363 . S
N331 C333 1.356 . S
N331 H343 0.984 . S
N331 H344 0.985 . S
N332 C334 1.356 1_454 S
N332 H337 0.984 . S
N332 H338 0.985 . S
C333 C327 1.379 . S
C333 C330 1.363 . S
C333 N331 1.356 . S
C334 C328 1.363 . S
C334 C329 1.379 . S
C334 N332 1.356 1_656 S
N335 C327 1.356 . S
N335 H341 0.984 1_565 S
N335 H342 0.984 1_565 S
N336 C329 1.356 . S
N336 H339 0.984 . S
N336 H340 0.985 . S
H337 N332 0.984 . S
H338 N332 0.985 . S
H339 N336 0.984 . S
H340 N336 0.985 . S
H341 N335 0.984 1_545 S
H342 N335 0.984 1_545 S
H343 N331 0.984 . S
H344 N331 0.985 . S
C345 C346 1.363 . S
C345 C351 1.379 . S
C345 N353 1.361 . S
C346 C345 1.363 . S
C346 C352 1.363 . S
C347 C348 1.363 . S
C347 C352 1.379 . S
C347 N354 1.356 1_455 S
C348 C347 1.363 . S
C348 C351 1.363 . S
N349 C351 1.356 . S
N349 H361 0.984 . S
N349 H362 0.985 . S
N350 C352 1.356 1_655 S
N350 H355 0.984 . S
N350 H356 0.985 . S
C351 C345 1.379 . S
C351 C348 1.363 . S
C351 N349 1.356 . S
C352 C346 1.363 . S
C352 C347 1.379 . S
C352 N350 1.356 1_455 S
N353 C345 1.361 . S
N353 H359 0.983 1_565 S
N353 H360 0.981 1_565 S
N354 C347 1.356 1_655 S
N354 H357 0.984 . S
N354 H358 0.985 . S
H355 N350 0.984 . S
H356 N350 0.985 . S
H357 N354 0.984 . S
H358 N354 0.985 . S
H359 N353 0.983 1_545 S
H360 N353 0.981 1_545 S
H361 N349 0.984 . S
H362 N349 0.985 . S
C363 C364 1.363 . S
C363 C369 1.379 . S
C363 N371 1.356 1_545 S
C364 C363 1.363 . S
C364 C370 1.363 . S
C365 C366 1.363 . S
C365 C370 1.379 . S
C365 N372 1.356 . S
C366 C365 1.363 . S
C366 C369 1.363 . S
N367 C369 1.356 1_565 S
N367 H379 0.984 . S
N367 H380 0.985 1_565 S
N368 C370 1.356 . S
N368 H373 0.984 . S
N368 H374 0.985 . S
C369 C363 1.379 . S
C369 C366 1.363 . S
C369 N367 1.356 1_545 S
C370 C364 1.363 . S
C370 C365 1.379 . S
C370 N368 1.356 . S
N371 C363 1.356 1_565 S
N371 H377 0.984 . S
N371 H378 0.980 1_565 S
N372 C365 1.356 . S
N372 H375 0.984 . S
N372 H376 0.985 . S
H373 N368 0.984 . S
H374 N368 0.985 . S
H375 N372 0.984 . S
H376 N372 0.985 . S
H377 N371 0.984 . S
H378 N371 0.980 1_545 S
H379 N367 0.984 . S
H380 N367 0.985 1_545 S
C381 C382 1.363 . S
C381 C387 1.379 . S
C381 N389 1.356 1_556 S
C382 C381 1.363 . S
C382 C388 1.363 . S
C383 C384 1.363 . S
C383 C388 1.379 . S
C383 N390 1.356 . S
C384 C383 1.363 . S
C384 C387 1.363 . S
N385 C387 1.356 . S
N385 H397 0.984 . S
N385 H398 0.985 . S
N386 C388 1.356 . S
N386 H391 0.984 . S
N386 H392 0.985 . S
C387 C381 1.379 . S
C387 C384 1.363 . S
C387 N385 1.356 . S
C388 C382 1.363 . S
C388 C383 1.379 . S
C388 N386 1.356 . S
N389 C381 1.356 1_554 S
N389 H395 0.984 . S
N389 H396 0.984 . S
N390 C383 1.356 . S
N390 H393 0.984 . S
N390 H394 0.985 . S
H391 N386 0.984 . S
H392 N386 0.985 . S
H393 N390 0.984 . S
H394 N390 0.985 . S
H395 N389 0.984 . S
H396 N389 0.984 . S
H397 N385 0.984 . S
H398 N385 0.985 . S
C399 C400 1.363 1_655 S
C399 C405 1.379 . S
C399 N407 1.356 . S
C400 C399 1.363 1_455 S
C400 C406 1.363 . S
C401 C402 1.363 . S
C401 C406 1.379 . S
C401 N408 1.356 . S
C402 C401 1.363 . S
C402 C405 1.363 1_455 S
N403 C405 1.356 . S
N403 H415 0.984 . S
N403 H416 0.985 . S
N404 C406 1.356 . S
N404 H409 0.984 . S
N404 H410 0.985 . S
C405 C399 1.379 . S
C405 C402 1.363 1_655 S
C405 N403 1.356 . S
C406 C400 1.363 . S
C406 C401 1.379 . S
C406 N404 1.356 . S
N407 C399 1.356 . S
N407 H413 0.984 . S
N407 H414 0.984 . S
N408 C401 1.356 . S
N408 H411 0.984 . S
N408 H412 0.985 . S
H409 N404 0.984 . S
H410 N404 0.985 . S
H411 N408 0.984 . S
H412 N408 0.985 . S
H413 N407 0.984 . S
H414 N407 0.984 . S
H415 N403 0.984 . S
H416 N403 0.985 . S
C204 C64 1.484 . S
C202 C6 1.467 . S
C220 C22 1.562 . S
C222 C134 1.588 . S
C238 C34 1.300 . S
C240 C186 1.322 . S
C256 C7 1.468 . S
C258 C80 1.484 . S
C276 C124 1.580 . S
C274 C23 1.561 . S
C292 C35 1.315 . S
C294 C170 1.326 . S
C312 C117 1.581 . S
C310 C36 1.569 . S
C328 C9 1.719 1_656 S
C330 C177 1.766 . S
C348 C71 1.484 . S
C346 C21 1.460 . S
C366 C133 1.589 . S
C364 C37 1.572 . S
C384 C187 1.798 . S
C382 C8 1.760 . S
C400 C20 1.458 . S
C402 C81 1.480 . S
