# Generated by pormake.
# Topology the, (3,8)-cn, num edge types: 1
# Building blocks:
#     Node 0, Type 0, BuildingBlock: WUSLED_clean_sbu_0, # of connection points: 3
#     Node 1, Type 0, BuildingBlock: WUSLED_clean_sbu_0, # of connection points: 3
#     Node 2, Type 0, BuildingBlock: WUSLED_clean_sbu_0, # of connection points: 3
#     Node 3, Type 0, BuildingBlock: WUSLED_clean_sbu_0, # of connection points: 3
#     Node 4, Type 0, BuildingBlock: WUSLED_clean_sbu_0, # of connection points: 3
#     Node 5, Type 0, BuildingBlock: WUSLED_clean_sbu_0, # of connection points: 3
#     Node 6, Type 0, BuildingBlock: WUSLED_clean_sbu_0, # of connection points: 3
#     Node 7, Type 0, BuildingBlock: WUSLED_clean_sbu_0, # of connection points: 3
#     Node 8, Type 1, BuildingBlock: GIZVER_clean_sbu_0, # of connection points: 8
#     Node 9, Type 1, BuildingBlock: GIZVER_clean_sbu_0, # of connection points: 8
#     Node 10, Type 1, BuildingBlock: GIZVER_clean_sbu_0, # of connection points: 8
#     Edge 11, Type (0, 1), BuildingBlock: AJUNOK_clean_linker_0, # of connection points: 2
#     Edge 12, Type (0, 1), BuildingBlock: AJUNOK_clean_linker_0, # of connection points: 2
#     Edge 13, Type (0, 1), BuildingBlock: AJUNOK_clean_linker_0, # of connection points: 2
#     Edge 14, Type (0, 1), BuildingBlock: AJUNOK_clean_linker_0, # of connection points: 2
#     Edge 15, Type (0, 1), BuildingBlock: AJUNOK_clean_linker_0, # of connection points: 2
#     Edge 16, Type (0, 1), BuildingBlock: AJUNOK_clean_linker_0, # of connection points: 2
#     Edge 17, Type (0, 1), BuildingBlock: AJUNOK_clean_linker_0, # of connection points: 2
#     Edge 18, Type (0, 1), BuildingBlock: AJUNOK_clean_linker_0, # of connection points: 2
#     Edge 19, Type (0, 1), BuildingBlock: AJUNOK_clean_linker_0, # of connection points: 2
#     Edge 20, Type (0, 1), BuildingBlock: AJUNOK_clean_linker_0, # of connection points: 2
#     Edge 21, Type (0, 1), BuildingBlock: AJUNOK_clean_linker_0, # of connection points: 2
#     Edge 22, Type (0, 1), BuildingBlock: AJUNOK_clean_linker_0, # of connection points: 2
#     Edge 23, Type (0, 1), BuildingBlock: AJUNOK_clean_linker_0, # of connection points: 2
#     Edge 24, Type (0, 1), BuildingBlock: AJUNOK_clean_linker_0, # of connection points: 2
#     Edge 25, Type (0, 1), BuildingBlock: AJUNOK_clean_linker_0, # of connection points: 2
#     Edge 26, Type (0, 1), BuildingBlock: AJUNOK_clean_linker_0, # of connection points: 2
#     Edge 27, Type (0, 1), BuildingBlock: AJUNOK_clean_linker_0, # of connection points: 2
#     Edge 28, Type (0, 1), BuildingBlock: AJUNOK_clean_linker_0, # of connection points: 2
#     Edge 29, Type (0, 1), BuildingBlock: AJUNOK_clean_linker_0, # of connection points: 2
#     Edge 30, Type (0, 1), BuildingBlock: AJUNOK_clean_linker_0, # of connection points: 2
#     Edge 31, Type (0, 1), BuildingBlock: AJUNOK_clean_linker_0, # of connection points: 2
#     Edge 32, Type (0, 1), BuildingBlock: AJUNOK_clean_linker_0, # of connection points: 2
#     Edge 33, Type (0, 1), BuildingBlock: AJUNOK_clean_linker_0, # of connection points: 2
#     Edge 34, Type (0, 1), BuildingBlock: AJUNOK_clean_linker_0, # of connection points: 2
# Relax obj value: 0.045
# Max RMSD: 0.138
# Mean RMSD: 0.067
data_MOF--net-the--node1-WUSLED_clean_sbu_0--node2-GIZVER_clean_sbu_0--edge1-AJUNOK_clean_linker_0
_symmetry_space_group_name_H-M    P1
_symmetry_Int_Tables_number       1
_symmetry_cell_setting            triclinic
loop_
_symmetry_equiv_pos_as_xyz
'x, y, z'
_cell_length_a     41.905431
_cell_length_b     39.568467
_cell_length_c     36.894551
_cell_angle_alpha  85.986574
_cell_angle_beta   95.170998
_cell_angle_gamma 103.46133
loop_
_atom_site_label
_atom_site_type_symbol
_atom_site_fract_x
_atom_site_fract_y
_atom_site_fract_z
_atom_type_partial_charge
C0 C 0.36519 0.28562 0.48562 0.0
C1 C 0.39419 0.28612 0.46915 0.0
C2 C 0.3963 0.22969 0.49842 0.0
C3 C 0.4097 0.25846 0.47564 0.0
C4 C 0.36776 0.22967 0.51577 0.0
C5 C 0.35225 0.2575 0.50934 0.0
U6 U 0.35274 0.35979 0.42127 0.0
O7 O 0.30801 0.37382 0.39552 0.0
O8 O 0.34311 0.41086 0.42982 0.0
C9 C 0.31436 0.40378 0.4111 0.0
C10 C 0.34731 0.31309 0.47567 0.0
C11 C 0.287 0.41137 0.42856 0.0
C12 C 0.2431 0.39535 0.46955 0.0
C13 C 0.26993 0.38785 0.45434 0.0
C14 C 0.25076 0.45002 0.43369 0.0
C15 C 0.23339 0.42656 0.45936 0.0
C16 C 0.2774 0.44248 0.41849 0.0
C17 C 0.40535 0.3842 0.34148 0.0
C18 C 0.39258 0.42567 0.29381 0.0
C19 C 0.44157 0.40316 0.29277 0.0
C20 C 0.43381 0.38319 0.32486 0.0
C21 C 0.42087 0.4243 0.27675 0.0
C22 C 0.3849 0.40578 0.32602 0.0
C23 C 0.39691 0.36243 0.37462 0.0
O24 O 0.36499 0.34508 0.47855 0.0
O25 O 0.32874 0.30864 0.44493 0.0
O26 O 0.36779 0.34096 0.37236 0.0
O27 O 0.40335 0.37886 0.40511 0.0
H28 H 0.40434 0.30749 0.45047 0.0
H29 H 0.43154 0.25897 0.46176 0.0
H30 H 0.35723 0.20793 0.53381 0.0
H31 H 0.32981 0.25672 0.52216 0.0
H32 H 0.22997 0.37687 0.48921 0.0
H33 H 0.27715 0.36366 0.46237 0.0
H34 H 0.2433 0.47389 0.4248 0.0
H35 H 0.29025 0.46077 0.39847 0.0
H36 H 0.3765 0.44212 0.28227 0.0
H37 H 0.46344 0.40155 0.28003 0.0
H38 H 0.44985 0.36672 0.33651 0.0
H39 H 0.36291 0.40701 0.33875 0.0
C40 C 0.66337 0.36991 0.24827 0.0
C41 C 0.66133 0.40461 0.25115 0.0
C42 C 0.63169 0.40467 0.19088 0.0
C43 C 0.64568 0.4218 0.22274 0.0
C44 C 0.63471 0.37037 0.1877 0.0
C45 C 0.65036 0.35327 0.216 0.0
U46 U 0.72322 0.34605 0.32984 0.0
O47 O 0.70915 0.32102 0.383 0.0
O48 O 0.73095 0.2935 0.34577 0.0
C49 C 0.71649 0.29163 0.37625 0.0
C50 C 0.67486 0.34892 0.27961 0.0
C51 C 0.69152 0.25914 0.38395 0.0
C52 C 0.63544 0.22848 0.39523 0.0
C53 C 0.65812 0.25914 0.38556 0.0
C54 C 0.67885 0.19703 0.40101 0.0
C55 C 0.64548 0.19699 0.40313 0.0
C56 C 0.70156 0.22774 0.39153 0.0
C57 C 0.80829 0.40566 0.35717 0.0
C58 C 0.84372 0.39636 0.41129 0.0
C59 C 0.86031 0.44709 0.37088 0.0
C60 C 0.8315 0.43621 0.34825 0.0
C61 C 0.86653 0.4277 0.4031 0.0
C62 C 0.81483 0.3855 0.38861 0.0
C63 C 0.77702 0.39637 0.3341 0.0
O64 O 0.69911 0.33409 0.27496 0.0
O65 O 0.67639 0.36062 0.31237 0.0
O66 O 0.75016 0.39683 0.34973 0.0
O67 O 0.77339 0.36957 0.31373 0.0
H68 H 0.67078 0.41808 0.2758 0.0
H69 H 0.64329 0.44799 0.2264 0.0
H70 H 0.62432 0.35647 0.16355 0.0
H71 H 0.65126 0.32644 0.21316 0.0
H72 H 0.61016 0.22972 0.39752 0.0
H73 H 0.6496 0.28294 0.38001 0.0
H74 H 0.68745 0.1733 0.40686 0.0
H75 H 0.72718 0.22706 0.39061 0.0
H76 H 0.84799 0.38046 0.43553 0.0
H77 H 0.87715 0.47141 0.36384 0.0
H78 H 0.82697 0.45218 0.32413 0.0
H79 H 0.79735 0.36173 0.39593 0.0
C80 C 0.66558 0.71371 0.26139 0.0
C81 C 0.63764 0.68644 0.26523 0.0
C82 C 0.63975 0.66935 0.20344 0.0
C83 C 0.62503 0.66447 0.23676 0.0
C84 C 0.66733 0.69697 0.19916 0.0
C85 C 0.68013 0.71895 0.22785 0.0
U86 U 0.72774 0.74384 0.34259 0.0
O87 O 0.74843 0.7961 0.36297 0.0
O88 O 0.71924 0.75558 0.39785 0.0
C89 C 0.73441 0.7885 0.39392 0.0
C90 C 0.67838 0.73667 0.29224 0.0
C91 C 0.71634 0.81351 0.40476 0.0
C92 C 0.6704 0.84177 0.39561 0.0
C93 C 0.68841 0.8195 0.38376 0.0
C94 C 0.70845 0.85296 0.44916 0.0
C95 C 0.67989 0.85826 0.42878 0.0
C96 C 0.72643 0.83064 0.4373 0.0
C97 C 0.79874 0.69569 0.36279 0.0
C98 C 0.82996 0.68675 0.42021 0.0
C99 C 0.84625 0.6702 0.36388 0.0
C100 C 0.82047 0.6821 0.34452 0.0
C101 C 0.85089 0.67172 0.40199 0.0
C102 C 0.80402 0.69866 0.40073 0.0
C103 C 0.76945 0.70357 0.34187 0.0
O104 O 0.67602 0.72144 0.32504 0.0
O105 O 0.70644 0.75956 0.28895 0.0
O106 O 0.77332 0.73409 0.32417 0.0
O107 O 0.74166 0.69427 0.35773 0.0
H108 H 0.62547 0.682 0.2904 0.0
H109 H 0.60351 0.64366 0.24074 0.0
H110 H 0.67932 0.70121 0.1739 0.0
H111 H 0.70149 0.7399 0.22374 0.0
H112 H 0.64881 0.84584 0.37902 0.0
H113 H 0.68028 0.80655 0.35852 0.0
H114 H 0.7163 0.86523 0.47482 0.0
H115 H 0.74792 0.82627 0.45391 0.0
H116 H 0.8327 0.68782 0.44961 0.0
H117 H 0.86207 0.65887 0.34915 0.0
H118 H 0.81681 0.67956 0.31529 0.0
H119 H 0.78746 0.70904 0.41539 0.0
C120 C 0.25312 0.64826 0.36557 0.0
C121 C 0.23561 0.67068 0.37851 0.0
C122 C 0.19136 0.62104 0.39439 0.0
C123 C 0.20501 0.65713 0.39294 0.0
C124 C 0.20945 0.59881 0.38218 0.0
C125 C 0.23987 0.61229 0.36786 0.0
U126 U 0.33679 0.71345 0.35083 0.0
O127 O 0.38432 0.70105 0.34371 0.0
O128 O 0.36078 0.72875 0.29939 0.0
C129 C 0.38507 0.71354 0.30975 0.0
C130 C 0.28471 0.6612 0.34873 0.0
C131 C 0.39384 0.69161 0.28299 0.0
C132 C 0.39242 0.63516 0.25922 0.0
C133 C 0.38148 0.65535 0.28328 0.0
C134 C 0.42745 0.68727 0.23378 0.0
C135 C 0.41591 0.65089 0.2345 0.0
C136 C 0.41651 0.70734 0.25768 0.0
C137 C 0.36244 0.79685 0.40729 0.0
C138 C 0.41294 0.84227 0.40546 0.0
C139 C 0.37506 0.84203 0.45133 0.0
C140 C 0.35406 0.8123 0.43705 0.0
C141 C 0.40502 0.85704 0.43616 0.0
C142 C 0.39187 0.81226 0.39121 0.0
C143 C 0.34034 0.76419 0.39478 0.0
O144 O 0.28737 0.68927 0.32688 0.0
O145 O 0.31153 0.66079 0.36997 0.0
O146 O 0.34979 0.73531 0.40492 0.0
O147 O 0.3274 0.76445 0.36098 0.0
H148 H 0.24544 0.69855 0.3772 0.0
H149 H 0.19178 0.67487 0.40242 0.0
H150 H 0.20015 0.57086 0.38391 0.0
H151 H 0.25305 0.5945 0.35832 0.0
H152 H 0.38339 0.60717 0.26084 0.0
H153 H 0.36397 0.64259 0.30262 0.0
H154 H 0.44538 0.70022 0.21497 0.0
H155 H 0.42636 0.73523 0.25691 0.0
H156 H 0.43596 0.85319 0.39336 0.0
H157 H 0.36816 0.85297 0.47476 0.0
H158 H 0.33143 0.80094 0.44978 0.0
H159 H 0.39881 0.80075 0.3682 0.0
C160 C 0.26628 0.66026 0.71369 0.0
C161 C 0.26246 0.6765 0.679 0.0
C162 C 0.20787 0.63824 0.66807 0.0
C163 C 0.23357 0.66554 0.6564 0.0
C164 C 0.21153 0.62281 0.70328 0.0
C165 C 0.24039 0.63375 0.7258 0.0
U166 U 0.3516 0.71873 0.74207 0.0
O167 O 0.37613 0.72814 0.79725 0.0
O168 O 0.39852 0.70379 0.75763 0.0
C169 C 0.40012 0.71339 0.79128 0.0
C170 C 0.29762 0.66881 0.73674 0.0
C171 C 0.41124 0.69026 0.821 0.0
C172 C 0.43922 0.64364 0.84048 0.0
C173 C 0.42279 0.66108 0.81315 0.0
C174 C 0.43144 0.68276 0.88468 0.0
C175 C 0.44462 0.65495 0.8763 0.0
C176 C 0.41513 0.70036 0.85728 0.0
C177 C 0.38327 0.80668 0.68946 0.0
C178 C 0.4392 0.83704 0.67725 0.0
C179 C 0.39595 0.86871 0.67206 0.0
C180 C 0.37328 0.83812 0.68198 0.0
C181 C 0.4292 0.86856 0.66942 0.0
C182 C 0.41656 0.80651 0.68734 0.0
C183 C 0.35826 0.77427 0.69719 0.0
O184 O 0.32441 0.6687 0.7208 0.0
O185 O 0.30143 0.69491 0.75812 0.0
O186 O 0.34452 0.77189 0.72821 0.0
O187 O 0.3651 0.74496 0.68928 0.0
H188 H 0.28211 0.69703 0.66905 0.0
H189 H 0.23158 0.67797 0.62945 0.0
H190 H 0.1927 0.60121 0.71288 0.0
H191 H 0.24289 0.6207 0.75237 0.0
H192 H 0.4488 0.62201 0.83333 0.0
H193 H 0.42048 0.65257 0.78558 0.0
H194 H 0.43534 0.69212 0.91199 0.0
H195 H 0.40696 0.72297 0.86419 0.0
H196 H 0.46439 0.8357 0.67458 0.0
H197 H 0.38742 0.89248 0.66625 0.0
H198 H 0.34774 0.83892 0.68325 0.0
H199 H 0.425 0.78264 0.69275 0.0
C200 C 0.27798 0.34655 0.65787 0.0
C201 C 0.27202 0.37144 0.68008 0.0
C202 C 0.23012 0.38485 0.63469 0.0
C203 C 0.24824 0.39036 0.66863 0.0
C204 C 0.23568 0.35934 0.61289 0.0
C205 C 0.25951 0.34043 0.62437 0.0
U206 U 0.34929 0.33028 0.72348 0.0
O207 O 0.36291 0.28115 0.74288 0.0
O208 O 0.39708 0.32105 0.71214 0.0
C209 C 0.39083 0.28933 0.7272 0.0
C210 C 0.30395 0.32759 0.66892 0.0
C211 C 0.39844 0.26212 0.70624 0.0
C212 C 0.39842 0.23415 0.6494 0.0
C213 C 0.3884 0.25857 0.66902 0.0
C214 C 0.42767 0.21606 0.70423 0.0
C215 C 0.41862 0.21301 0.66676 0.0
C216 C 0.41766 0.24031 0.72372 0.0
C217 C 0.37256 0.38793 0.80734 0.0
C218 C 0.42154 0.39282 0.84934 0.0
C219 C 0.38179 0.42684 0.85736 0.0
C220 C 0.36237 0.41199 0.82714 0.0
C221 C 0.41179 0.41779 0.86857 0.0
C222 C 0.40208 0.37803 0.81888 0.0
C223 C 0.35278 0.37536 0.77377 0.0
O224 O 0.33423 0.34618 0.66739 0.0
O225 O 0.29974 0.30753 0.69886 0.0
O226 O 0.33442 0.34355 0.77559 0.0
O227 O 0.36763 0.38294 0.74337 0.0
H228 H 0.28599 0.37645 0.70609 0.0
H229 H 0.24411 0.40944 0.68626 0.0
H230 H 0.22219 0.35467 0.58659 0.0
H231 H 0.26382 0.32134 0.60685 0.0
H232 H 0.39144 0.23272 0.62046 0.0
H233 H 0.37356 0.27522 0.655 0.0
H234 H 0.44308 0.20005 0.71837 0.0
H235 H 0.42561 0.24259 0.7524 0.0
H236 H 0.44481 0.38579 0.85694 0.0
H237 H 0.37366 0.44599 0.87159 0.0
H238 H 0.33968 0.41999 0.81866 0.0
H239 H 0.41045 0.3596 0.80383 0.0
C240 C 0.67515 0.26951 0.69331 0.0
C241 C 0.67135 0.27137 0.65499 0.0
C242 C 0.6472 0.20888 0.65422 0.0
C243 C 0.65741 0.24148 0.63573 0.0
C244 C 0.65157 0.20701 0.69252 0.0
C245 C 0.66532 0.23695 0.71179 0.0
U246 U 0.73867 0.35365 0.72032 0.0
O247 O 0.73057 0.40516 0.73011 0.0
O248 O 0.75269 0.37592 0.77419 0.0
C249 C 0.74159 0.40396 0.76456 0.0
C250 C 0.68692 0.30125 0.71453 0.0
C251 C 0.7219 0.41519 0.79068 0.0
C252 C 0.67154 0.40893 0.82121 0.0
C253 C 0.68984 0.39671 0.79704 0.0
C254 C 0.71719 0.45804 0.83295 0.0
C255 C 0.68504 0.43975 0.83952 0.0
C256 C 0.73539 0.44583 0.80888 0.0
C257 C 0.82049 0.3798 0.67305 0.0
C258 C 0.87373 0.41601 0.69333 0.0
C259 C 0.85994 0.40689 0.62912 0.0
C260 C 0.82934 0.38591 0.63701 0.0
C261 C 0.88254 0.42233 0.65709 0.0
C262 C 0.84296 0.39505 0.70124 0.0
C263 C 0.78818 0.35663 0.68018 0.0
O264 O 0.71185 0.30127 0.7389 0.0
O265 O 0.68882 0.33142 0.69645 0.0
O266 O 0.76215 0.36864 0.66863 0.0
O267 O 0.78556 0.34014 0.71237 0.0
H268 H 0.67839 0.29604 0.63981 0.0
H269 H 0.65363 0.24419 0.60635 0.0
H270 H 0.64401 0.18239 0.70765 0.0
H271 H 0.66772 0.23475 0.7413 0.0
H272 H 0.64684 0.39426 0.82565 0.0
H273 H 0.67892 0.37305 0.78314 0.0
H274 H 0.72805 0.48228 0.84579 0.0
H275 H 0.76 0.46063 0.8041 0.0
H276 H 0.89075 0.42695 0.71562 0.0
H277 H 0.86577 0.41134 0.60095 0.0
H278 H 0.81251 0.37435 0.61483 0.0
H279 H 0.83685 0.39064 0.72935 0.0
C280 C 0.71628 0.78593 0.59141 0.0
C281 C 0.71417 0.80614 0.62057 0.0
C282 C 0.6866 0.84308 0.57996 0.0
C283 C 0.69966 0.83455 0.61482 0.0
C284 C 0.68823 0.82271 0.5508 0.0
C285 C 0.70325 0.79443 0.55646 0.0
U286 U 0.72505 0.706 0.64955 0.0
O287 O 0.73027 0.65436 0.6357 0.0
O288 O 0.76846 0.68702 0.67106 0.0
C289 C 0.75971 0.65852 0.65289 0.0
C290 C 0.73077 0.75527 0.59774 0.0
C291 C 0.7856 0.65138 0.63246 0.0
C292 C 0.82933 0.67074 0.5916 0.0
C293 C 0.80212 0.67642 0.60758 0.0
C294 C 0.82275 0.61445 0.6242 0.0
C295 C 0.84024 0.63996 0.60038 0.0
C296 C 0.79567 0.62018 0.64017 0.0
C297 C 0.67773 0.68482 0.73494 0.0
C298 C 0.66296 0.629 0.76864 0.0
C299 C 0.67082 0.6826 0.79975 0.0
C300 C 0.67787 0.70178 0.76708 0.0
C301 C 0.66337 0.64607 0.80084 0.0
C302 C 0.67035 0.64823 0.73594 0.0
C303 C 0.68594 0.70594 0.7011 0.0
O304 O 0.75196 0.756 0.6264 0.0
O305 O 0.70986 0.72499 0.59453 0.0
O306 O 0.67587 0.69061 0.67026 0.0
O307 O 0.71614 0.72504 0.70146 0.0
H308 H 0.72345 0.79983 0.64796 0.0
H309 H 0.69804 0.84949 0.63783 0.0
H310 H 0.67798 0.82873 0.52376 0.0
H311 H 0.70437 0.77899 0.53368 0.0
H312 H 0.84212 0.69055 0.5729 0.0
H313 H 0.79453 0.70069 0.60134 0.0
H314 H 0.83077 0.59058 0.63156 0.0
H315 H 0.78324 0.60068 0.65944 0.0
H316 H 0.65717 0.60084 0.76886 0.0
H317 H 0.67067 0.69634 0.8241 0.0
H318 H 0.68345 0.72994 0.7669 0.0
H319 H 0.67031 0.63448 0.71155 0.0
Co320 Co 0.10517 0.49943 0.55888 0.0
Co321 Co 0.07069 0.48239 0.49646 0.0
Co322 Co 0.03798 0.53294 0.53425 0.0
O323 O 0.05911 0.49213 0.54215 0.0
H324 H 0.04533 0.472 0.5537 0.0
O325 O 1.01714 0.57388 0.52638 0.0
Co326 Co 0.97197 0.56725 0.50709 0.0
Co327 Co 1.00345 0.58365 0.5708 0.0
H328 H 1.03145 0.59413 0.51561 0.0
O329 O 0.08638 0.44288 0.48738 0.0
O330 O 0.11566 0.4928 0.50944 0.0
O331 O 0.06547 0.51563 0.45658 0.0
O332 O 0.06863 0.55657 0.49546 0.0
O333 O 1.00538 0.50652 0.49614 0.0
O334 O 0.93139 0.5649 0.48757 0.0
O335 O 0.97357 0.61205 0.4911 0.0
O336 O 0.96425 0.5197 0.52032 0.0
O337 O 1.00738 0.50907 0.57286 0.0
O338 O 1.00441 0.5493 0.6105 0.0
O339 O 0.95914 0.57598 0.55479 0.0
O340 O 0.98979 0.62466 0.57832 0.0
C341 C 0.13615 0.46883 0.58154 0.0
C342 C 0.10125 0.56467 0.56965 0.0
C343 C 0.07456 0.54724 0.46467 0.0
C344 C 0.1147 0.46291 0.49668 0.0
C345 C 0.9431 0.59785 0.48035 0.0
C346 C 0.97447 0.50098 0.49962 0.0
C347 C 0.99818 0.51768 0.6024 0.0
C348 C 0.96122 0.60639 0.56698 0.0
O349 O 0.14654 0.50216 0.5755 0.0
O350 O 0.10525 0.45439 0.57278 0.0
O351 O 0.07028 0.55918 0.57254 0.0
O352 O 0.11155 0.54726 0.54763 0.0
Co353 Co 0.57076 0.96675 0.5127 0.0
Co354 Co 0.58754 0.99125 0.57766 0.0
Co355 Co 0.53721 0.03231 0.53562 0.0
O356 O 0.576 1.01143 0.53257 0.0
H357 H 0.59475 0.02821 0.52391 0.0
O358 O 0.49882 0.05398 0.53894 0.0
Co359 Co 0.50616 0.09924 0.55937 0.0
Co360 Co 0.48728 0.07516 0.49433 0.0
H361 H 0.47994 0.03759 0.54801 0.0
O362 O 0.62948 0.98326 0.58861 0.0
O363 O 0.58594 0.94798 0.56047 0.0
O364 O 0.55582 0.98256 0.61364 0.0
O365 O 0.51679 0.99795 0.57565 0.0
O366 O 0.56448 0.06445 0.57265 0.0
O367 O 0.50982 0.13935 0.57956 0.0
O368 O 0.4656 0.09441 0.57627 0.0
O369 O 0.54973 0.11032 0.54581 0.0
O370 O 0.55753 0.06668 0.49547 0.0
O371 O 0.51858 0.08288 0.45789 0.0
O372 O 0.491 0.11872 0.51219 0.0
O373 O 0.4459 0.08544 0.48459 0.0
C374 C 0.59929 0.94127 0.48683 0.0
C375 C 0.50568 0.96632 0.5051 0.0
C376 C 0.52577 0.98231 0.60507 0.0
C377 C 0.61635 0.95384 0.57404 0.0
C378 C 0.47977 0.12547 0.58724 0.0
C379 C 0.5696 0.09744 0.56732 0.0
C380 C 0.54856 0.08264 0.46619 0.0
C381 C 0.46047 0.11435 0.49942 0.0
O382 O 0.56905 0.92678 0.49325 0.0
O383 O 0.61187 0.97298 0.49696 0.0
O384 O 0.50964 0.99929 0.4991 0.0
O385 O 0.52703 0.95431 0.52535 0.0
Co386 Co 0.50525 0.55148 0.11121 0.0
Co387 Co 0.48621 0.48859 0.08825 0.0
Co388 Co 0.53849 0.53348 0.0358 0.0
O389 O 0.49899 0.53189 0.06377 0.0
H390 H 0.48088 0.53787 0.04867 0.0
O391 O 0.57812 0.53488 1.00868 0.0
Co392 Co 0.57473 0.51579 0.96174 0.0
Co393 Co 0.5917 0.5782 0.9856 0.0
H394 H 0.5961 0.52931 1.02444 0.0
O395 O 0.44512 0.473 0.10726 0.0
O396 O 0.491 0.50487 0.13499 0.0
O397 O 0.51617 0.45783 0.09015 0.0
O398 O 0.55725 0.50002 0.07156 0.0
O399 O 0.51176 0.49399 1.00634 0.0
O400 O 0.57539 0.49708 0.91925 0.0
O401 O 0.61637 0.5095 0.96333 0.0
O402 O 0.53028 0.51855 0.95422 0.0
O403 O 0.51987 0.5668 0.99946 0.0
O404 O 0.56222 0.60897 0.98375 0.0
O405 O 0.58856 0.56304 0.93858 0.0
O406 O 0.63333 0.59451 0.96887 0.0
C407 C 0.47806 0.57328 0.14316 0.0
C408 C 0.56884 0.57 0.09952 0.0
C409 C 0.54674 0.47052 0.08816 0.0
C410 C 0.46114 0.48634 0.13658 0.0
C411 C 0.60539 0.49666 0.93168 0.0
C412 C 0.50884 0.49694 0.9715 0.0
C413 C 0.53149 0.59628 0.98329 0.0
C414 C 0.61837 0.58218 0.93861 0.0
O415 O 0.50796 0.57096 0.15371 0.0
O416 O 0.46439 0.56004 0.11244 0.0
O417 O 0.56524 0.57334 0.06481 0.0
O418 O 0.54876 0.54633 0.11605 0.0
C419 C 0.17365 0.41057 0.4704 0.0
C420 C 0.20428 0.43435 0.47387 0.0
C421 C 0.14487 0.41961 0.4789 0.0
C422 C 0.14576 0.45274 0.49119 0.0
H423 H 0.17171 0.38537 0.45953 0.0
H424 H 0.12169 0.4008 0.47482 0.0
S425 S 0.22091 0.52279 0.50883 0.0
N426 N 0.23454 0.49088 0.49372 0.0
N427 N 0.18065 0.50851 0.50881 0.0
C428 C 0.17665 0.47611 0.49644 0.0
C429 C 0.20585 0.46675 0.48799 0.0
C430 C 0.6301 0.14446 0.44617 0.0
C431 C 0.6216 0.16475 0.4155 0.0
C432 C 0.60697 0.11629 0.46074 0.0
C433 C 0.5742 0.10732 0.44556 0.0
H434 H 0.65443 0.15129 0.46007 0.0
H435 H 0.61456 0.1025 0.4852 0.0
S436 S 0.54109 0.14828 0.36108 0.0
N437 N 0.57943 0.1708 0.36739 0.0
N438 N 0.53583 0.11855 0.39504 0.0
C439 C 0.56605 0.12595 0.41335 0.0
C440 C 0.5897 0.1545 0.3984 0.0
C441 C 0.87481 0.61971 0.41546 0.0
C442 C 0.87535 0.65433 0.42248 0.0
C443 C 0.89704 0.60202 0.43422 0.0
C444 C 0.92115 0.61835 0.46036 0.0
H445 H 0.85666 0.60593 0.39562 0.0
H446 H 0.89537 0.57526 0.42803 0.0
S447 S 0.93274 0.70846 0.48954 0.0
N448 N 0.90162 0.70418 0.45802 0.0
N449 N 0.94401 0.67096 0.49289 0.0
C450 C 0.92219 0.653 0.46766 0.0
C451 C 0.89906 0.67093 0.44891 0.0
C452 C 0.44177 0.91777 0.43507 0.0
C453 C 0.42893 0.88616 0.45432 0.0
C454 C 0.46516 0.94482 0.45211 0.0
C455 C 0.47702 0.94081 0.48874 0.0
H456 H 0.43384 0.92149 0.4066 0.0
H457 H 0.47506 0.96832 0.4361 0.0
S458 S 0.45092 0.86332 0.55114 0.0
N459 N 0.42935 0.85295 0.5122 0.0
N460 N 0.47345 0.90296 0.54376 0.0
C461 C 0.4639 0.90951 0.50827 0.0
C462 C 0.43987 0.88242 0.49121 0.0
C463 C 0.18466 0.61556 0.60718 0.0
C464 C 0.17909 0.62343 0.64232 0.0
C465 C 0.15896 0.59809 0.58358 0.0
C466 C 0.12632 0.58772 0.59382 0.0
H467 H 0.20939 0.62162 0.59829 0.0
H468 H 0.16502 0.59178 0.55731 0.0
S469 S 0.09784 0.60518 0.6815 0.0
N470 N 0.13792 0.62191 0.68524 0.0
N471 N 0.08955 0.58888 0.64079 0.0
C472 C 0.12001 0.5969 0.62819 0.0
C473 C 0.14638 0.61463 0.65246 0.0
C474 C 0.46694 0.19239 0.6497 0.0
C475 C 0.43279 0.18988 0.64581 0.0
C476 C 0.48149 0.17114 0.63089 0.0
C477 C 0.46255 0.14598 0.60771 0.0
H478 H 0.4827 0.21135 0.66716 0.0
H479 H 0.50796 0.17444 0.63473 0.0
S480 S 0.37204 0.12893 0.58776 0.0
N481 N 0.38029 0.16052 0.61659 0.0
N482 N 0.40768 0.11986 0.58171 0.0
C483 C 0.4283 0.14292 0.60363 0.0
C484 C 0.41345 0.16513 0.62242 0.0
C485 C 0.9333 0.43519 0.62226 0.0
C486 C 0.91479 0.44531 0.64786 0.0
C487 C 0.96164 0.45785 0.60976 0.0
C488 C 0.97278 0.49182 0.62218 0.0
H489 H 0.9253 0.40976 0.61098 0.0
H490 H 0.97399 0.44909 0.58891 0.0
S491 S 0.9342 0.53034 0.69115 0.0
N492 N 0.91046 0.49105 0.68649 0.0
N493 N 0.96387 0.53344 0.66371 0.0
C494 C 0.95545 0.50158 0.64934 0.0
C495 C 0.92647 0.47845 0.66195 0.0
C496 C 0.63694 0.86684 0.562 0.0
C497 C 0.67021 0.87252 0.57487 0.0
C498 C 0.61981 0.89337 0.56159 0.0
C499 C 0.6355 0.9267 0.57347 0.0
H500 H 0.62374 0.84135 0.55352 0.0
H501 H 0.59392 0.88741 0.55246 0.0
S502 S 0.72365 0.95537 0.60596 0.0
N503 N 0.71895 0.91404 0.5974 0.0
N504 N 0.68719 0.96429 0.59597 0.0
C505 C 0.66926 0.93298 0.58492 0.0
C506 C 0.68651 0.90582 0.58571 0.0
C507 C 0.44538 0.2038 0.51083 0.0
C508 C 0.41137 0.19919 0.50205 0.0
C509 C 0.46086 0.17608 0.51048 0.0
C510 C 0.44296 0.14269 0.50106 0.0
H511 H 0.46022 0.22922 0.51747 0.0
H512 H 0.48721 0.18114 0.51696 0.0
S513 S 0.35286 0.11686 0.47743 0.0
N514 N 0.35998 0.15873 0.48476 0.0
N515 N 0.38891 0.1064 0.48431 0.0
C516 C 0.40872 0.13757 0.4931 0.0
C517 C 0.39296 0.16584 0.49366 0.0
C518 C 0.927 0.45548 0.4167 0.0
C519 C 0.89541 0.44175 0.42913 0.0
C520 C 0.95349 0.47246 0.44017 0.0
C521 C 0.94923 0.47677 0.47684 0.0
H522 H 0.93105 0.45386 0.38836 0.0
H523 H 0.97686 0.48391 0.42903 0.0
S524 S 0.87218 0.44426 0.52348 0.0
N525 N 0.86213 0.43267 0.48111 0.0
N526 N 0.91153 0.46402 0.52495 0.0
C527 C 0.9182 0.46184 0.4899 0.0
C528 C 0.89142 0.44451 0.46618 0.0
C529 C 0.67307 0.91311 0.45509 0.0
C530 C 0.65913 0.87951 0.44292 0.0
C531 C 0.65359 0.93327 0.46858 0.0
C532 C 0.61945 0.92048 0.47069 0.0
H533 H 0.69921 0.92398 0.45394 0.0
H534 H 0.66547 0.95887 0.4778 0.0
S535 S 0.57156 0.83283 0.44461 0.0
N536 N 0.6096 0.83366 0.43563 0.0
N537 N 0.57292 0.87118 0.46037 0.0
C538 C 0.60539 0.88664 0.45895 0.0
C539 C 0.62521 0.86629 0.44525 0.0
C540 C 0.15211 0.61522 0.44357 0.0
C541 C 0.15876 0.60609 0.4093 0.0
C542 C 0.12345 0.59784 0.46022 0.0
C543 C 0.1003 0.57059 0.44326 0.0
H544 H 0.16997 0.63468 0.4585 0.0
H545 H 0.1205 0.60451 0.48751 0.0
S546 S 0.10358 0.54098 0.35063 0.0
N547 N 0.13781 0.57124 0.35696 0.0
N548 N 0.08431 0.53844 0.38818 0.0
C549 C 0.10564 0.563 0.40787 0.0
C550 C 0.13474 0.5807 0.39096 0.0
C551 C 0.44438 0.92054 0.62571 0.0
C552 C 0.45299 0.90062 0.65661 0.0
C553 C 0.46744 0.9485 0.61071 0.0
C554 C 0.50024 0.95769 0.62585 0.0
H555 H 0.42002 0.91346 0.61186 0.0
H556 H 0.45984 0.96173 0.58588 0.0
S557 S 0.53366 0.91755 0.71066 0.0
N558 N 0.49532 0.89497 0.70465 0.0
N559 N 0.53878 0.94698 0.67641 0.0
C560 C 0.50849 0.93941 0.65823 0.0
C561 C 0.48494 0.91101 0.67353 0.0
C562 C 0.17395 0.39087 0.60856 0.0
C563 C 0.2063 0.40649 0.62154 0.0
C564 C 0.15121 0.41107 0.5962 0.0
C565 C 0.16005 0.44767 0.59603 0.0
H566 H 0.16608 0.3628 0.60824 0.0
H567 H 0.12665 0.39786 0.58637 0.0
S568 S 0.24255 0.50118 0.62541 0.0
N569 N 0.24644 0.46062 0.63209 0.0
N570 N 0.20409 0.49859 0.6093 0.0
C571 C 0.19255 0.46353 0.60862 0.0
C572 C 0.21554 0.44297 0.62127 0.0
C573 C 0.60075 0.15595 0.64585 0.0
C574 C 0.63009 0.17748 0.63381 0.0
C575 C 0.58232 0.12841 0.62528 0.0
C576 C 0.59259 0.12121 0.59202 0.0
H577 H 0.59111 0.16138 0.67054 0.0
H578 H 0.55908 0.11369 0.63461 0.0
S579 S 0.66866 0.16716 0.54969 0.0
N580 N 0.66964 0.18749 0.58754 0.0
N581 N 0.63445 0.13633 0.54874 0.0
C582 C 0.6223 0.1415 0.58028 0.0
C583 C 0.6412 0.16944 0.60121 0.0
C584 C 0.87066 0.60295 0.57174 0.0
C585 C 0.87077 0.63466 0.58665 0.0
C586 C 0.89996 0.59486 0.5639 0.0
C587 C 0.93062 0.61806 0.57096 0.0
H588 H 0.84779 0.58375 0.56716 0.0
H589 H 0.8985 0.56956 0.55354 0.0
S590 S 0.94381 0.70613 0.6065 0.0
N591 N 0.90363 0.69055 0.60574 0.0
N592 N 0.9589 0.67551 0.59077 0.0
C593 C 0.93089 0.65074 0.58396 0.0
C594 C 0.90092 0.65902 0.59181 0.0
C595 C 0.46054 0.46478 0.23812 0.0
C596 C 0.42876 0.44409 0.24184 0.0
C597 C 0.47006 0.48022 0.2043 0.0
C598 C 0.44829 0.47511 0.17273 0.0
H599 H 0.4785 0.46829 0.26139 0.0
H600 H 0.49523 0.49487 0.20274 0.0
S601 S 0.36108 0.42613 0.16886 0.0
N602 N 0.37462 0.42152 0.21194 0.0
N603 N 0.39243 0.45054 0.1482 0.0
C604 C 0.4158 0.45612 0.17652 0.0
C605 C 0.40605 0.4406 0.21112 0.0
C606 C 0.45615 0.62623 0.93809 0.0
C607 C 0.46669 0.64006 0.90376 0.0
C608 C 0.47707 0.61212 0.96396 0.0
C609 C 0.50961 0.61239 0.95685 0.0
H610 H 0.4314 0.62584 0.94472 0.0
H611 H 0.46783 0.60116 0.98974 0.0
S612 S 0.54899 0.64553 0.87101 0.0
N613 N 0.51167 0.65288 0.86414 0.0
N614 N 0.55093 0.62716 0.91246 0.0
C615 C 0.52038 0.62642 0.92268 0.0
C616 C 0.49898 0.64006 0.89627 0.0
C617 C 0.44226 0.47363 0.89539 0.0
C618 C 0.43412 0.43701 0.89787 0.0
C619 C 0.46526 0.49275 0.92061 0.0
C620 C 0.48055 0.47613 0.94983 0.0
H621 H 0.43177 0.48764 0.87288 0.0
H622 H 0.47181 0.52085 0.91664 0.0
S623 S 0.46654 0.381 0.97001 0.0
N624 N 0.44228 0.38487 0.93281 0.0
N625 N 0.48518 0.42105 0.98067 0.0
C626 C 0.47171 0.43965 0.95364 0.0
C627 C 0.44865 0.42003 0.92748 0.0
C628 C 0.63283 0.45591 0.85265 0.0
C629 C 0.66521 0.45362 0.86416 0.0
C630 C 0.61397 0.46993 0.87461 0.0
C631 C 0.62653 0.48221 0.90923 0.0
H632 H 0.6221 0.44733 0.82609 0.0
H633 H 0.58927 0.4712 0.86411 0.0
S634 S 0.70959 0.4806 0.95292 0.0
N635 N 0.70873 0.46369 0.91308 0.0
N636 N 0.67347 0.49028 0.95423 0.0
C637 C 0.65885 0.4798 0.92125 0.0
C638 C 0.67809 0.4655 0.89879 0.0
C639 C 0.62433 0.60199 0.83704 0.0
C640 C 0.65468 0.62611 0.83541 0.0
C641 C 0.61357 0.58641 0.87042 0.0
C642 C 0.6328 0.59439 0.9034 0.0
H643 H 0.6081 0.59637 0.81257 0.0
H644 H 0.58935 0.56917 0.8704 0.0
S645 S 0.71673 0.65167 0.91256 0.0
N646 N 0.70553 0.65417 0.86858 0.0
N647 N 0.68557 0.62493 0.93143 0.0
C648 C 0.66424 0.61669 0.90168 0.0
C649 C 0.67508 0.6326 0.86767 0.0
C650 C 0.61978 0.60879 0.18258 0.0
C651 C 0.62628 0.6448 0.174 0.0
C652 C 0.60312 0.58486 0.15721 0.0
C653 C 0.59224 0.59581 0.12208 0.0
H654 H 0.62675 0.59903 0.20959 0.0
H655 H 0.59761 0.55747 0.16572 0.0
S656 S 0.60482 0.6871 0.08509 0.0
N657 N 0.62205 0.69029 0.12718 0.0
N658 N 0.59078 0.64506 0.07928 0.0
C659 C 0.60017 0.6316 0.11231 0.0
C660 C 0.61716 0.65615 0.13834 0.0
C661 C 0.46484 0.63596 0.21082 0.0
C662 C 0.43042 0.62974 0.21122 0.0
C663 C 0.47966 0.6173 0.189 0.0
C664 C 0.46078 0.5918 0.1661 0.0
H665 H 0.4806 0.65536 0.22779 0.0
H666 H 0.50628 0.62336 0.18977 0.0
S667 S 0.36964 0.56474 0.15751 0.0
N668 N 0.37772 0.59558 0.1872 0.0
N669 N 0.40566 0.56066 0.14583 0.0
C670 C 0.4263 0.58506 0.16628 0.0
C671 C 0.41113 0.60387 0.18898 0.0
C672 C 0.58024 0.40306 0.14962 0.0
C673 C 0.61184 0.42135 0.16226 0.0
C674 C 0.55998 0.41867 0.12464 0.0
C675 C 0.57048 0.45322 0.11077 0.0
H676 H 0.57058 0.37672 0.16006 0.0
H677 H 0.53554 0.40366 0.11676 0.0
S678 S 0.65215 0.51177 0.13329 0.0
N679 N 0.65339 0.47536 0.15758 0.0
N680 N 0.61558 0.50477 0.11067 0.0
C681 C 0.60257 0.47143 0.12221 0.0
C682 C 0.62309 0.45556 0.14797 0.0
loop_
_geom_bond_atom_site_label_1
_geom_bond_atom_site_label_2
_geom_bond_distance
_geom_bond_site_symmetry_2
_ccdc_geom_bond_type
C0 C1 1.264 . S
C0 C5 1.479 . S
C0 C10 1.465 . S
C1 C0 1.264 . S
C1 C3 1.339 . S
C1 H28 0.931 . S
C2 C3 1.395 . S
C2 C4 1.320 . S
C3 C1 1.339 . S
C3 C2 1.395 . S
C3 H29 0.929 . S
C4 C2 1.320 . S
C4 C5 1.405 . S
C4 H30 0.930 . S
C5 C0 1.479 . S
C5 C4 1.405 . S
C5 H31 0.931 . S
U6 O7 2.454 . S
U6 O8 2.458 . S
U6 C9 2.984 . S
U6 C10 2.847 . S
U6 C23 2.882 . S
U6 O24 2.441 . S
U6 O25 2.420 . S
U6 O26 2.455 . S
U6 O27 2.449 . S
O7 U6 2.454 . S
O7 C9 1.353 . S
O8 U6 2.458 . S
O8 C9 1.286 . S
C9 U6 2.984 . S
C9 O7 1.353 . S
C9 O8 1.286 . S
C9 C11 1.363 . S
C10 C0 1.465 . S
C10 U6 2.847 . S
C10 O24 1.249 . S
C10 O25 1.202 . S
C11 C9 1.363 . S
C11 C13 1.408 . S
C11 C16 1.342 . S
C12 C13 1.310 . S
C12 C15 1.461 . S
C12 H32 0.932 . S
C13 C11 1.408 . S
C13 C12 1.310 . S
C13 H33 0.930 . S
C14 C15 1.474 . S
C14 C16 1.285 . S
C14 H34 0.929 . S
C15 C12 1.461 . S
C15 C14 1.474 . S
C16 C11 1.342 . S
C16 C14 1.285 . S
C16 H35 0.930 . S
C17 C20 1.424 . S
C17 C22 1.245 . S
C17 C23 1.428 . S
C18 C21 1.260 . S
C18 C22 1.477 . S
C18 H36 0.932 . S
C19 C20 1.384 . S
C19 C21 1.479 . S
C19 H37 0.929 . S
C20 C17 1.424 . S
C20 C19 1.384 . S
C20 H38 0.928 . S
C21 C18 1.260 . S
C21 C19 1.479 . S
C22 C17 1.245 . S
C22 C18 1.477 . S
C22 H39 0.932 . S
C23 U6 2.882 . S
C23 C17 1.428 . S
C23 O26 1.301 . S
C23 O27 1.282 . S
O24 U6 2.441 . S
O24 C10 1.249 . S
O25 U6 2.420 . S
O25 C10 1.202 . S
O26 U6 2.455 . S
O26 C23 1.301 . S
O27 U6 2.449 . S
O27 C23 1.282 . S
H28 C1 0.931 . S
H29 C3 0.929 . S
H30 C4 0.930 . S
H31 C5 0.931 . S
H32 C12 0.932 . S
H33 C13 0.930 . S
H34 C14 0.929 . S
H35 C16 0.930 . S
H36 C18 0.932 . S
H37 C19 0.929 . S
H38 C20 0.928 . S
H39 C22 0.932 . S
C40 C41 1.264 . S
C40 C45 1.479 . S
C40 C50 1.465 . S
C41 C40 1.264 . S
C41 C43 1.339 . S
C41 H68 0.931 . S
C42 C43 1.395 . S
C42 C44 1.320 . S
C43 C41 1.339 . S
C43 C42 1.395 . S
C43 H69 0.929 . S
C44 C42 1.320 . S
C44 C45 1.405 . S
C44 H70 0.930 . S
C45 C40 1.479 . S
C45 C44 1.405 . S
C45 H71 0.931 . S
U46 O47 2.454 . S
U46 O48 2.458 . S
U46 C49 2.984 . S
U46 C50 2.847 . S
U46 C63 2.882 . S
U46 O64 2.441 . S
U46 O65 2.420 . S
U46 O66 2.455 . S
U46 O67 2.449 . S
O47 U46 2.454 . S
O47 C49 1.353 . S
O48 U46 2.458 . S
O48 C49 1.286 . S
C49 U46 2.984 . S
C49 O47 1.353 . S
C49 O48 1.286 . S
C49 C51 1.363 . S
C50 C40 1.465 . S
C50 U46 2.847 . S
C50 O64 1.249 . S
C50 O65 1.202 . S
C51 C49 1.363 . S
C51 C53 1.408 . S
C51 C56 1.342 . S
C52 C53 1.310 . S
C52 C55 1.461 . S
C52 H72 0.932 . S
C53 C51 1.408 . S
C53 C52 1.310 . S
C53 H73 0.930 . S
C54 C55 1.474 . S
C54 C56 1.285 . S
C54 H74 0.929 . S
C55 C52 1.461 . S
C55 C54 1.474 . S
C56 C51 1.342 . S
C56 C54 1.285 . S
C56 H75 0.930 . S
C57 C60 1.424 . S
C57 C62 1.245 . S
C57 C63 1.428 . S
C58 C61 1.260 . S
C58 C62 1.477 . S
C58 H76 0.932 . S
C59 C60 1.384 . S
C59 C61 1.479 . S
C59 H77 0.929 . S
C60 C57 1.424 . S
C60 C59 1.384 . S
C60 H78 0.928 . S
C61 C58 1.260 . S
C61 C59 1.479 . S
C62 C57 1.245 . S
C62 C58 1.477 . S
C62 H79 0.932 . S
C63 U46 2.882 . S
C63 C57 1.428 . S
C63 O66 1.301 . S
C63 O67 1.282 . S
O64 U46 2.441 . S
O64 C50 1.249 . S
O65 U46 2.420 . S
O65 C50 1.202 . S
O66 U46 2.455 . S
O66 C63 1.301 . S
O67 U46 2.449 . S
O67 C63 1.282 . S
H68 C41 0.931 . S
H69 C43 0.929 . S
H70 C44 0.930 . S
H71 C45 0.931 . S
H72 C52 0.932 . S
H73 C53 0.930 . S
H74 C54 0.929 . S
H75 C56 0.930 . S
H76 C58 0.932 . S
H77 C59 0.929 . S
H78 C60 0.928 . S
H79 C62 0.932 . S
C80 C81 1.264 . S
C80 C85 1.479 . S
C80 C90 1.465 . S
C81 C80 1.264 . S
C81 C83 1.339 . S
C81 H108 0.931 . S
C82 C83 1.395 . S
C82 C84 1.320 . S
C83 C81 1.339 . S
C83 C82 1.395 . S
C83 H109 0.929 . S
C84 C82 1.320 . S
C84 C85 1.405 . S
C84 H110 0.930 . S
C85 C80 1.479 . S
C85 C84 1.405 . S
C85 H111 0.931 . S
U86 O87 2.454 . S
U86 O88 2.458 . S
U86 C89 2.984 . S
U86 C90 2.847 . S
U86 C103 2.882 . S
U86 O104 2.441 . S
U86 O105 2.420 . S
U86 O106 2.455 . S
U86 O107 2.449 . S
O87 U86 2.454 . S
O87 C89 1.353 . S
O88 U86 2.458 . S
O88 C89 1.286 . S
C89 U86 2.984 . S
C89 O87 1.353 . S
C89 O88 1.286 . S
C89 C91 1.363 . S
C90 C80 1.465 . S
C90 U86 2.847 . S
C90 O104 1.249 . S
C90 O105 1.202 . S
C91 C89 1.363 . S
C91 C93 1.408 . S
C91 C96 1.342 . S
C92 C93 1.310 . S
C92 C95 1.461 . S
C92 H112 0.932 . S
C93 C91 1.408 . S
C93 C92 1.310 . S
C93 H113 0.930 . S
C94 C95 1.474 . S
C94 C96 1.285 . S
C94 H114 0.929 . S
C95 C92 1.461 . S
C95 C94 1.474 . S
C96 C91 1.342 . S
C96 C94 1.285 . S
C96 H115 0.930 . S
C97 C100 1.424 . S
C97 C102 1.245 . S
C97 C103 1.428 . S
C98 C101 1.260 . S
C98 C102 1.477 . S
C98 H116 0.932 . S
C99 C100 1.384 . S
C99 C101 1.479 . S
C99 H117 0.929 . S
C100 C97 1.424 . S
C100 C99 1.384 . S
C100 H118 0.928 . S
C101 C98 1.260 . S
C101 C99 1.479 . S
C102 C97 1.245 . S
C102 C98 1.477 . S
C102 H119 0.932 . S
C103 U86 2.882 . S
C103 C97 1.428 . S
C103 O106 1.301 . S
C103 O107 1.282 . S
O104 U86 2.441 . S
O104 C90 1.249 . S
O105 U86 2.420 . S
O105 C90 1.202 . S
O106 U86 2.455 . S
O106 C103 1.301 . S
O107 U86 2.449 . S
O107 C103 1.282 . S
H108 C81 0.931 . S
H109 C83 0.929 . S
H110 C84 0.930 . S
H111 C85 0.931 . S
H112 C92 0.932 . S
H113 C93 0.930 . S
H114 C94 0.929 . S
H115 C96 0.930 . S
H116 C98 0.932 . S
H117 C99 0.929 . S
H118 C100 0.928 . S
H119 C102 0.932 . S
C120 C121 1.264 . S
C120 C125 1.479 . S
C120 C130 1.465 . S
C121 C120 1.264 . S
C121 C123 1.339 . S
C121 H148 0.931 . S
C122 C123 1.395 . S
C122 C124 1.320 . S
C123 C121 1.339 . S
C123 C122 1.395 . S
C123 H149 0.929 . S
C124 C122 1.320 . S
C124 C125 1.405 . S
C124 H150 0.930 . S
C125 C120 1.479 . S
C125 C124 1.405 . S
C125 H151 0.931 . S
U126 O127 2.454 . S
U126 O128 2.458 . S
U126 C129 2.984 . S
U126 C130 2.847 . S
U126 C143 2.882 . S
U126 O144 2.441 . S
U126 O145 2.420 . S
U126 O146 2.455 . S
U126 O147 2.449 . S
O127 U126 2.454 . S
O127 C129 1.353 . S
O128 U126 2.458 . S
O128 C129 1.286 . S
C129 U126 2.984 . S
C129 O127 1.353 . S
C129 O128 1.286 . S
C129 C131 1.363 . S
C130 C120 1.465 . S
C130 U126 2.847 . S
C130 O144 1.249 . S
C130 O145 1.202 . S
C131 C129 1.363 . S
C131 C133 1.408 . S
C131 C136 1.342 . S
C132 C133 1.310 . S
C132 C135 1.461 . S
C132 H152 0.932 . S
C133 C131 1.408 . S
C133 C132 1.310 . S
C133 H153 0.930 . S
C134 C135 1.474 . S
C134 C136 1.285 . S
C134 H154 0.929 . S
C135 C132 1.461 . S
C135 C134 1.474 . S
C136 C131 1.342 . S
C136 C134 1.285 . S
C136 H155 0.930 . S
C137 C140 1.424 . S
C137 C142 1.245 . S
C137 C143 1.428 . S
C138 C141 1.260 . S
C138 C142 1.477 . S
C138 H156 0.932 . S
C139 C140 1.384 . S
C139 C141 1.479 . S
C139 H157 0.929 . S
C140 C137 1.424 . S
C140 C139 1.384 . S
C140 H158 0.928 . S
C141 C138 1.260 . S
C141 C139 1.479 . S
C142 C137 1.245 . S
C142 C138 1.477 . S
C142 H159 0.932 . S
C143 U126 2.882 . S
C143 C137 1.428 . S
C143 O146 1.301 . S
C143 O147 1.282 . S
O144 U126 2.441 . S
O144 C130 1.249 . S
O145 U126 2.420 . S
O145 C130 1.202 . S
O146 U126 2.455 . S
O146 C143 1.301 . S
O147 U126 2.449 . S
O147 C143 1.282 . S
H148 C121 0.931 . S
H149 C123 0.929 . S
H150 C124 0.930 . S
H151 C125 0.931 . S
H152 C132 0.932 . S
H153 C133 0.930 . S
H154 C134 0.929 . S
H155 C136 0.930 . S
H156 C138 0.932 . S
H157 C139 0.929 . S
H158 C140 0.928 . S
H159 C142 0.932 . S
C160 C161 1.264 . S
C160 C165 1.479 . S
C160 C170 1.465 . S
C161 C160 1.264 . S
C161 C163 1.339 . S
C161 H188 0.931 . S
C162 C163 1.395 . S
C162 C164 1.320 . S
C163 C161 1.339 . S
C163 C162 1.395 . S
C163 H189 0.929 . S
C164 C162 1.320 . S
C164 C165 1.405 . S
C164 H190 0.930 . S
C165 C160 1.479 . S
C165 C164 1.405 . S
C165 H191 0.931 . S
U166 O167 2.454 . S
U166 O168 2.458 . S
U166 C169 2.984 . S
U166 C170 2.847 . S
U166 C183 2.882 . S
U166 O184 2.441 . S
U166 O185 2.420 . S
U166 O186 2.455 . S
U166 O187 2.449 . S
O167 U166 2.454 . S
O167 C169 1.353 . S
O168 U166 2.458 . S
O168 C169 1.286 . S
C169 U166 2.984 . S
C169 O167 1.353 . S
C169 O168 1.286 . S
C169 C171 1.363 . S
C170 C160 1.465 . S
C170 U166 2.847 . S
C170 O184 1.249 . S
C170 O185 1.202 . S
C171 C169 1.363 . S
C171 C173 1.408 . S
C171 C176 1.342 . S
C172 C173 1.310 . S
C172 C175 1.461 . S
C172 H192 0.932 . S
C173 C171 1.408 . S
C173 C172 1.310 . S
C173 H193 0.930 . S
C174 C175 1.474 . S
C174 C176 1.285 . S
C174 H194 0.929 . S
C175 C172 1.461 . S
C175 C174 1.474 . S
C176 C171 1.342 . S
C176 C174 1.285 . S
C176 H195 0.930 . S
C177 C180 1.424 . S
C177 C182 1.245 . S
C177 C183 1.428 . S
C178 C181 1.260 . S
C178 C182 1.477 . S
C178 H196 0.932 . S
C179 C180 1.384 . S
C179 C181 1.479 . S
C179 H197 0.929 . S
C180 C177 1.424 . S
C180 C179 1.384 . S
C180 H198 0.928 . S
C181 C178 1.260 . S
C181 C179 1.479 . S
C182 C177 1.245 . S
C182 C178 1.477 . S
C182 H199 0.932 . S
C183 U166 2.882 . S
C183 C177 1.428 . S
C183 O186 1.301 . S
C183 O187 1.282 . S
O184 U166 2.441 . S
O184 C170 1.249 . S
O185 U166 2.420 . S
O185 C170 1.202 . S
O186 U166 2.455 . S
O186 C183 1.301 . S
O187 U166 2.449 . S
O187 C183 1.282 . S
H188 C161 0.931 . S
H189 C163 0.929 . S
H190 C164 0.930 . S
H191 C165 0.931 . S
H192 C172 0.932 . S
H193 C173 0.930 . S
H194 C174 0.929 . S
H195 C176 0.930 . S
H196 C178 0.932 . S
H197 C179 0.929 . S
H198 C180 0.928 . S
H199 C182 0.932 . S
C200 C201 1.264 . S
C200 C205 1.479 . S
C200 C210 1.465 . S
C201 C200 1.264 . S
C201 C203 1.339 . S
C201 H228 0.931 . S
C202 C203 1.395 . S
C202 C204 1.320 . S
C203 C201 1.339 . S
C203 C202 1.395 . S
C203 H229 0.929 . S
C204 C202 1.320 . S
C204 C205 1.405 . S
C204 H230 0.930 . S
C205 C200 1.479 . S
C205 C204 1.405 . S
C205 H231 0.931 . S
U206 O207 2.454 . S
U206 O208 2.458 . S
U206 C209 2.984 . S
U206 C210 2.847 . S
U206 C223 2.882 . S
U206 O224 2.441 . S
U206 O225 2.420 . S
U206 O226 2.455 . S
U206 O227 2.449 . S
O207 U206 2.454 . S
O207 C209 1.353 . S
O208 U206 2.458 . S
O208 C209 1.286 . S
C209 U206 2.984 . S
C209 O207 1.353 . S
C209 O208 1.286 . S
C209 C211 1.363 . S
C210 C200 1.465 . S
C210 U206 2.847 . S
C210 O224 1.249 . S
C210 O225 1.202 . S
C211 C209 1.363 . S
C211 C213 1.408 . S
C211 C216 1.342 . S
C212 C213 1.310 . S
C212 C215 1.461 . S
C212 H232 0.932 . S
C213 C211 1.408 . S
C213 C212 1.310 . S
C213 H233 0.930 . S
C214 C215 1.474 . S
C214 C216 1.285 . S
C214 H234 0.929 . S
C215 C212 1.461 . S
C215 C214 1.474 . S
C216 C211 1.342 . S
C216 C214 1.285 . S
C216 H235 0.930 . S
C217 C220 1.424 . S
C217 C222 1.245 . S
C217 C223 1.428 . S
C218 C221 1.260 . S
C218 C222 1.477 . S
C218 H236 0.932 . S
C219 C220 1.384 . S
C219 C221 1.479 . S
C219 H237 0.929 . S
C220 C217 1.424 . S
C220 C219 1.384 . S
C220 H238 0.928 . S
C221 C218 1.260 . S
C221 C219 1.479 . S
C222 C217 1.245 . S
C222 C218 1.477 . S
C222 H239 0.932 . S
C223 U206 2.882 . S
C223 C217 1.428 . S
C223 O226 1.301 . S
C223 O227 1.282 . S
O224 U206 2.441 . S
O224 C210 1.249 . S
O225 U206 2.420 . S
O225 C210 1.202 . S
O226 U206 2.455 . S
O226 C223 1.301 . S
O227 U206 2.449 . S
O227 C223 1.282 . S
H228 C201 0.931 . S
H229 C203 0.929 . S
H230 C204 0.930 . S
H231 C205 0.931 . S
H232 C212 0.932 . S
H233 C213 0.930 . S
H234 C214 0.929 . S
H235 C216 0.930 . S
H236 C218 0.932 . S
H237 C219 0.929 . S
H238 C220 0.928 . S
H239 C222 0.932 . S
C240 C241 1.264 . S
C240 C245 1.479 . S
C240 C250 1.465 . S
C241 C240 1.264 . S
C241 C243 1.339 . S
C241 H268 0.931 . S
C242 C243 1.395 . S
C242 C244 1.320 . S
C243 C241 1.339 . S
C243 C242 1.395 . S
C243 H269 0.929 . S
C244 C242 1.320 . S
C244 C245 1.405 . S
C244 H270 0.930 . S
C245 C240 1.479 . S
C245 C244 1.405 . S
C245 H271 0.931 . S
U246 O247 2.454 . S
U246 O248 2.458 . S
U246 C249 2.984 . S
U246 C250 2.847 . S
U246 C263 2.882 . S
U246 O264 2.441 . S
U246 O265 2.420 . S
U246 O266 2.455 . S
U246 O267 2.449 . S
O247 U246 2.454 . S
O247 C249 1.353 . S
O248 U246 2.458 . S
O248 C249 1.286 . S
C249 U246 2.984 . S
C249 O247 1.353 . S
C249 O248 1.286 . S
C249 C251 1.363 . S
C250 C240 1.465 . S
C250 U246 2.847 . S
C250 O264 1.249 . S
C250 O265 1.202 . S
C251 C249 1.363 . S
C251 C253 1.408 . S
C251 C256 1.342 . S
C252 C253 1.310 . S
C252 C255 1.461 . S
C252 H272 0.932 . S
C253 C251 1.408 . S
C253 C252 1.310 . S
C253 H273 0.930 . S
C254 C255 1.474 . S
C254 C256 1.285 . S
C254 H274 0.929 . S
C255 C252 1.461 . S
C255 C254 1.474 . S
C256 C251 1.342 . S
C256 C254 1.285 . S
C256 H275 0.930 . S
C257 C260 1.424 . S
C257 C262 1.245 . S
C257 C263 1.428 . S
C258 C261 1.260 . S
C258 C262 1.477 . S
C258 H276 0.932 . S
C259 C260 1.384 . S
C259 C261 1.479 . S
C259 H277 0.929 . S
C260 C257 1.424 . S
C260 C259 1.384 . S
C260 H278 0.928 . S
C261 C258 1.260 . S
C261 C259 1.479 . S
C262 C257 1.245 . S
C262 C258 1.477 . S
C262 H279 0.932 . S
C263 U246 2.882 . S
C263 C257 1.428 . S
C263 O266 1.301 . S
C263 O267 1.282 . S
O264 U246 2.441 . S
O264 C250 1.249 . S
O265 U246 2.420 . S
O265 C250 1.202 . S
O266 U246 2.455 . S
O266 C263 1.301 . S
O267 U246 2.449 . S
O267 C263 1.282 . S
H268 C241 0.931 . S
H269 C243 0.929 . S
H270 C244 0.930 . S
H271 C245 0.931 . S
H272 C252 0.932 . S
H273 C253 0.930 . S
H274 C254 0.929 . S
H275 C256 0.930 . S
H276 C258 0.932 . S
H277 C259 0.929 . S
H278 C260 0.928 . S
H279 C262 0.932 . S
C280 C281 1.264 . S
C280 C285 1.479 . S
C280 C290 1.465 . S
C281 C280 1.264 . S
C281 C283 1.339 . S
C281 H308 0.931 . S
C282 C283 1.395 . S
C282 C284 1.320 . S
C283 C281 1.339 . S
C283 C282 1.395 . S
C283 H309 0.929 . S
C284 C282 1.320 . S
C284 C285 1.405 . S
C284 H310 0.930 . S
C285 C280 1.479 . S
C285 C284 1.405 . S
C285 H311 0.931 . S
U286 O287 2.454 . S
U286 O288 2.458 . S
U286 C289 2.984 . S
U286 C290 2.847 . S
U286 C303 2.882 . S
U286 O304 2.441 . S
U286 O305 2.420 . S
U286 O306 2.455 . S
U286 O307 2.449 . S
O287 U286 2.454 . S
O287 C289 1.353 . S
O288 U286 2.458 . S
O288 C289 1.286 . S
C289 U286 2.984 . S
C289 O287 1.353 . S
C289 O288 1.286 . S
C289 C291 1.363 . S
C290 C280 1.465 . S
C290 U286 2.847 . S
C290 O304 1.249 . S
C290 O305 1.202 . S
C291 C289 1.363 . S
C291 C293 1.408 . S
C291 C296 1.342 . S
C292 C293 1.310 . S
C292 C295 1.461 . S
C292 H312 0.932 . S
C293 C291 1.408 . S
C293 C292 1.310 . S
C293 H313 0.930 . S
C294 C295 1.474 . S
C294 C296 1.285 . S
C294 H314 0.929 . S
C295 C292 1.461 . S
C295 C294 1.474 . S
C296 C291 1.342 . S
C296 C294 1.285 . S
C296 H315 0.930 . S
C297 C300 1.424 . S
C297 C302 1.245 . S
C297 C303 1.428 . S
C298 C301 1.260 . S
C298 C302 1.477 . S
C298 H316 0.932 . S
C299 C300 1.384 . S
C299 C301 1.479 . S
C299 H317 0.929 . S
C300 C297 1.424 . S
C300 C299 1.384 . S
C300 H318 0.928 . S
C301 C298 1.260 . S
C301 C299 1.479 . S
C302 C297 1.245 . S
C302 C298 1.477 . S
C302 H319 0.932 . S
C303 U286 2.882 . S
C303 C297 1.428 . S
C303 O306 1.301 . S
C303 O307 1.282 . S
O304 U286 2.441 . S
O304 C290 1.249 . S
O305 U286 2.420 . S
O305 C290 1.202 . S
O306 U286 2.455 . S
O306 C303 1.301 . S
O307 U286 2.449 . S
O307 C303 1.282 . S
H308 C281 0.931 . S
H309 C283 0.929 . S
H310 C284 0.930 . S
H311 C285 0.931 . S
H312 C292 0.932 . S
H313 C293 0.930 . S
H314 C294 0.929 . S
H315 C296 0.930 . S
H316 C298 0.932 . S
H317 C299 0.929 . S
H318 C300 0.928 . S
H319 C302 0.932 . S
Co320 O323 2.042 . S
Co320 O330 2.264 . S
Co320 O349 2.286 . S
Co320 O350 2.069 . S
Co320 O352 2.015 . S
Co321 O323 2.122 . S
Co321 O329 2.073 . S
Co321 O330 2.327 . S
Co321 O331 1.976 . S
Co322 O323 2.087 . S
Co322 O325 2.087 1_455 S
Co322 O332 2.111 . S
Co322 O333 2.143 1_455 S
Co322 O337 2.111 1_455 S
Co322 O351 2.143 . S
O323 Co320 2.042 . S
O323 Co321 2.122 . S
O323 Co322 2.087 . S
O323 H324 0.980 . S
H324 O323 0.980 . S
O325 Co322 2.087 1_655 S
O325 Co326 2.042 . S
O325 Co327 2.122 . S
O325 H328 0.980 . S
Co326 O325 2.042 . S
Co326 O334 2.286 . S
Co326 O335 2.069 . S
Co326 O336 2.015 . S
Co326 O339 2.264 . S
Co327 O325 2.122 . S
Co327 O338 1.976 . S
Co327 O339 2.327 . S
Co327 O340 2.073 . S
H328 O325 0.980 . S
O329 Co321 2.073 . S
O329 C344 1.245 . S
O330 Co320 2.264 . S
O330 Co321 2.327 . S
O330 C344 1.257 . S
O331 Co321 1.976 . S
O331 C343 1.251 . S
O332 Co322 2.111 . S
O332 C343 1.274 . S
O333 Co322 2.143 1_655 S
O333 C346 1.246 . S
O334 Co326 2.286 . S
O334 C345 1.259 . S
O335 Co326 2.069 . S
O335 C345 1.289 . S
O336 Co326 2.015 . S
O336 C346 1.257 . S
O337 Co322 2.111 1_655 S
O337 C347 1.274 . S
O338 Co327 1.976 . S
O338 C347 1.251 . S
O339 Co326 2.264 . S
O339 Co327 2.327 . S
O339 C348 1.257 . S
O340 Co327 2.073 . S
O340 C348 1.245 . S
C341 O349 1.259 . S
C341 O350 1.289 . S
C342 O351 1.246 . S
C342 O352 1.257 . S
C343 O331 1.251 . S
C343 O332 1.274 . S
C344 O329 1.245 . S
C344 O330 1.257 . S
C345 O334 1.259 . S
C345 O335 1.289 . S
C346 O333 1.246 . S
C346 O336 1.257 . S
C347 O337 1.274 . S
C347 O338 1.251 . S
C348 O339 1.257 . S
C348 O340 1.245 . S
O349 Co320 2.286 . S
O349 C341 1.259 . S
O350 Co320 2.069 . S
O350 C341 1.289 . S
O351 Co322 2.143 . S
O351 C342 1.246 . S
O352 Co320 2.015 . S
O352 C342 1.257 . S
Co353 O356 2.042 . S
Co353 O363 2.264 . S
Co353 O382 2.286 . S
Co353 O383 2.069 . S
Co353 O385 2.015 . S
Co354 O356 2.122 . S
Co354 O362 2.073 . S
Co354 O363 2.327 . S
Co354 O364 1.976 . S
Co355 O356 2.087 1_545 S
Co355 O358 2.087 . S
Co355 O365 2.111 1_545 S
Co355 O366 2.143 . S
Co355 O370 2.111 . S
Co355 O384 2.143 1_545 S
O356 Co353 2.042 . S
O356 Co354 2.122 . S
O356 Co355 2.087 1_565 S
O356 H357 0.980 . S
H357 O356 0.980 . S
O358 Co355 2.087 . S
O358 Co359 2.042 . S
O358 Co360 2.122 . S
O358 H361 0.980 . S
Co359 O358 2.042 . S
Co359 O367 2.286 . S
Co359 O368 2.069 . S
Co359 O369 2.015 . S
Co359 O372 2.264 . S
Co360 O358 2.122 . S
Co360 O371 1.976 . S
Co360 O372 2.327 . S
Co360 O373 2.073 . S
H361 O358 0.980 . S
O362 Co354 2.073 . S
O362 C377 1.245 . S
O363 Co353 2.264 . S
O363 Co354 2.327 . S
O363 C377 1.257 . S
O364 Co354 1.976 . S
O364 C376 1.251 . S
O365 Co355 2.111 1_565 S
O365 C376 1.274 . S
O366 Co355 2.143 . S
O366 C379 1.246 . S
O367 Co359 2.286 . S
O367 C378 1.259 . S
O368 Co359 2.069 . S
O368 C378 1.289 . S
O369 Co359 2.015 . S
O369 C379 1.257 . S
O370 Co355 2.111 . S
O370 C380 1.274 . S
O371 Co360 1.976 . S
O371 C380 1.251 . S
O372 Co359 2.264 . S
O372 Co360 2.327 . S
O372 C381 1.257 . S
O373 Co360 2.073 . S
O373 C381 1.245 . S
C374 O382 1.259 . S
C374 O383 1.289 . S
C375 O384 1.246 . S
C375 O385 1.257 . S
C376 O364 1.251 . S
C376 O365 1.274 . S
C377 O362 1.245 . S
C377 O363 1.257 . S
C378 O367 1.259 . S
C378 O368 1.289 . S
C379 O366 1.246 . S
C379 O369 1.257 . S
C380 O370 1.274 . S
C380 O371 1.251 . S
C381 O372 1.257 . S
C381 O373 1.245 . S
O382 Co353 2.286 . S
O382 C374 1.259 . S
O383 Co353 2.069 . S
O383 C374 1.289 . S
O384 Co355 2.143 1_565 S
O384 C375 1.246 . S
O385 Co353 2.015 . S
O385 C375 1.257 . S
Co386 O389 2.042 . S
Co386 O396 2.264 . S
Co386 O415 2.286 . S
Co386 O416 2.069 . S
Co386 O418 2.015 . S
Co387 O389 2.122 . S
Co387 O395 2.073 . S
Co387 O396 2.327 . S
Co387 O397 1.976 . S
Co388 O389 2.087 . S
Co388 O391 2.087 1_554 S
Co388 O398 2.111 . S
Co388 O399 2.143 1_554 S
Co388 O403 2.111 1_554 S
Co388 O417 2.143 . S
O389 Co386 2.042 . S
O389 Co387 2.122 . S
O389 Co388 2.087 . S
O389 H390 0.980 . S
H390 O389 0.980 . S
O391 Co388 2.087 1_556 S
O391 Co392 2.042 . S
O391 Co393 2.122 . S
O391 H394 0.980 . S
Co392 O391 2.042 . S
Co392 O400 2.286 . S
Co392 O401 2.069 . S
Co392 O402 2.015 . S
Co392 O405 2.264 . S
Co393 O391 2.122 . S
Co393 O404 1.976 . S
Co393 O405 2.327 . S
Co393 O406 2.073 . S
H394 O391 0.980 . S
O395 Co387 2.073 . S
O395 C410 1.245 . S
O396 Co386 2.264 . S
O396 Co387 2.327 . S
O396 C410 1.257 . S
O397 Co387 1.976 . S
O397 C409 1.251 . S
O398 Co388 2.111 . S
O398 C409 1.274 . S
O399 Co388 2.143 1_556 S
O399 C412 1.246 . S
O400 Co392 2.286 . S
O400 C411 1.259 . S
O401 Co392 2.069 . S
O401 C411 1.289 . S
O402 Co392 2.015 . S
O402 C412 1.257 . S
O403 Co388 2.111 1_556 S
O403 C413 1.274 . S
O404 Co393 1.976 . S
O404 C413 1.251 . S
O405 Co392 2.264 . S
O405 Co393 2.327 . S
O405 C414 1.257 . S
O406 Co393 2.073 . S
O406 C414 1.245 . S
C407 O415 1.259 . S
C407 O416 1.289 . S
C408 O417 1.246 . S
C408 O418 1.257 . S
C409 O397 1.251 . S
C409 O398 1.274 . S
C410 O395 1.245 . S
C410 O396 1.257 . S
C411 O400 1.259 . S
C411 O401 1.289 . S
C412 O399 1.246 . S
C412 O402 1.257 . S
C413 O403 1.274 . S
C413 O404 1.251 . S
C414 O405 1.257 . S
C414 O406 1.245 . S
O415 Co386 2.286 . S
O415 C407 1.259 . S
O416 Co386 2.069 . S
O416 C407 1.289 . S
O417 Co388 2.143 . S
O417 C408 1.246 . S
O418 Co386 2.015 . S
O418 C408 1.257 . S
C419 C420 1.369 . S
C419 C421 1.419 . S
C419 H423 0.930 . S
C420 C419 1.369 . S
C420 C429 1.429 . S
C421 C419 1.419 . S
C421 C422 1.363 . S
C421 H424 0.929 . S
C422 C421 1.363 . S
C422 C428 1.428 . S
H423 C419 0.930 . S
H424 C421 0.929 . S
S425 N426 1.613 . S
S425 N427 1.610 . S
N426 S425 1.613 . S
N426 C429 1.350 . S
N427 S425 1.610 . S
N427 C428 1.351 . S
C428 C422 1.428 . S
C428 N427 1.351 . S
C428 C429 1.434 . S
C429 C420 1.429 . S
C429 N426 1.350 . S
C429 C428 1.434 . S
C430 C431 1.369 . S
C430 C432 1.419 . S
C430 H434 0.930 . S
C431 C430 1.369 . S
C431 C440 1.429 . S
C432 C430 1.419 . S
C432 C433 1.363 . S
C432 H435 0.929 . S
C433 C432 1.363 . S
C433 C439 1.428 . S
H434 C430 0.930 . S
H435 C432 0.929 . S
S436 N437 1.613 . S
S436 N438 1.610 . S
N437 S436 1.613 . S
N437 C440 1.350 . S
N438 S436 1.610 . S
N438 C439 1.351 . S
C439 C433 1.428 . S
C439 N438 1.351 . S
C439 C440 1.434 . S
C440 C431 1.429 . S
C440 N437 1.350 . S
C440 C439 1.434 . S
C441 C442 1.369 . S
C441 C443 1.419 . S
C441 H445 0.930 . S
C442 C441 1.369 . S
C442 C451 1.429 . S
C443 C441 1.419 . S
C443 C444 1.363 . S
C443 H446 0.929 . S
C444 C443 1.363 . S
C444 C450 1.428 . S
H445 C441 0.930 . S
H446 C443 0.929 . S
S447 N448 1.613 . S
S447 N449 1.610 . S
N448 S447 1.613 . S
N448 C451 1.350 . S
N449 S447 1.610 . S
N449 C450 1.351 . S
C450 C444 1.428 . S
C450 N449 1.351 . S
C450 C451 1.434 . S
C451 C442 1.429 . S
C451 N448 1.350 . S
C451 C450 1.434 . S
C452 C453 1.369 . S
C452 C454 1.419 . S
C452 H456 0.930 . S
C453 C452 1.369 . S
C453 C462 1.429 . S
C454 C452 1.419 . S
C454 C455 1.363 . S
C454 H457 0.929 . S
C455 C454 1.363 . S
C455 C461 1.428 . S
H456 C452 0.930 . S
H457 C454 0.929 . S
S458 N459 1.613 . S
S458 N460 1.610 . S
N459 S458 1.613 . S
N459 C462 1.350 . S
N460 S458 1.610 . S
N460 C461 1.351 . S
C461 C455 1.428 . S
C461 N460 1.351 . S
C461 C462 1.434 . S
C462 C453 1.429 . S
C462 N459 1.350 . S
C462 C461 1.434 . S
C463 C464 1.369 . S
C463 C465 1.419 . S
C463 H467 0.930 . S
C464 C463 1.369 . S
C464 C473 1.429 . S
C465 C463 1.419 . S
C465 C466 1.363 . S
C465 H468 0.929 . S
C466 C465 1.363 . S
C466 C472 1.428 . S
H467 C463 0.930 . S
H468 C465 0.929 . S
S469 N470 1.613 . S
S469 N471 1.610 . S
N470 S469 1.613 . S
N470 C473 1.350 . S
N471 S469 1.610 . S
N471 C472 1.351 . S
C472 C466 1.428 . S
C472 N471 1.351 . S
C472 C473 1.434 . S
C473 C464 1.429 . S
C473 N470 1.350 . S
C473 C472 1.434 . S
C474 C475 1.369 . S
C474 C476 1.419 . S
C474 H478 0.930 . S
C475 C474 1.369 . S
C475 C484 1.429 . S
C476 C474 1.419 . S
C476 C477 1.363 . S
C476 H479 0.929 . S
C477 C476 1.363 . S
C477 C483 1.428 . S
H478 C474 0.930 . S
H479 C476 0.929 . S
S480 N481 1.613 . S
S480 N482 1.610 . S
N481 S480 1.613 . S
N481 C484 1.350 . S
N482 S480 1.610 . S
N482 C483 1.351 . S
C483 C477 1.428 . S
C483 N482 1.351 . S
C483 C484 1.434 . S
C484 C475 1.429 . S
C484 N481 1.350 . S
C484 C483 1.434 . S
C485 C486 1.369 . S
C485 C487 1.419 . S
C485 H489 0.930 . S
C486 C485 1.369 . S
C486 C495 1.429 . S
C487 C485 1.419 . S
C487 C488 1.363 . S
C487 H490 0.929 . S
C488 C487 1.363 . S
C488 C494 1.428 . S
H489 C485 0.930 . S
H490 C487 0.929 . S
S491 N492 1.613 . S
S491 N493 1.610 . S
N492 S491 1.613 . S
N492 C495 1.350 . S
N493 S491 1.610 . S
N493 C494 1.351 . S
C494 C488 1.428 . S
C494 N493 1.351 . S
C494 C495 1.434 . S
C495 C486 1.429 . S
C495 N492 1.350 . S
C495 C494 1.434 . S
C496 C497 1.369 . S
C496 C498 1.419 . S
C496 H500 0.930 . S
C497 C496 1.369 . S
C497 C506 1.429 . S
C498 C496 1.419 . S
C498 C499 1.363 . S
C498 H501 0.929 . S
C499 C498 1.363 . S
C499 C505 1.428 . S
H500 C496 0.930 . S
H501 C498 0.929 . S
S502 N503 1.613 . S
S502 N504 1.610 . S
N503 S502 1.613 . S
N503 C506 1.350 . S
N504 S502 1.610 . S
N504 C505 1.351 . S
C505 C499 1.428 . S
C505 N504 1.351 . S
C505 C506 1.434 . S
C506 C497 1.429 . S
C506 N503 1.350 . S
C506 C505 1.434 . S
C507 C508 1.369 . S
C507 C509 1.419 . S
C507 H511 0.930 . S
C508 C507 1.369 . S
C508 C517 1.429 . S
C509 C507 1.419 . S
C509 C510 1.363 . S
C509 H512 0.929 . S
C510 C509 1.363 . S
C510 C516 1.428 . S
H511 C507 0.930 . S
H512 C509 0.929 . S
S513 N514 1.613 . S
S513 N515 1.610 . S
N514 S513 1.613 . S
N514 C517 1.350 . S
N515 S513 1.610 . S
N515 C516 1.351 . S
C516 C510 1.428 . S
C516 N515 1.351 . S
C516 C517 1.434 . S
C517 C508 1.429 . S
C517 N514 1.350 . S
C517 C516 1.434 . S
C518 C519 1.369 . S
C518 C520 1.419 . S
C518 H522 0.930 . S
C519 C518 1.369 . S
C519 C528 1.429 . S
C520 C518 1.419 . S
C520 C521 1.363 . S
C520 H523 0.929 . S
C521 C520 1.363 . S
C521 C527 1.428 . S
H522 C518 0.930 . S
H523 C520 0.929 . S
S524 N525 1.613 . S
S524 N526 1.610 . S
N525 S524 1.613 . S
N525 C528 1.350 . S
N526 S524 1.610 . S
N526 C527 1.351 . S
C527 C521 1.428 . S
C527 N526 1.351 . S
C527 C528 1.434 . S
C528 C519 1.429 . S
C528 N525 1.350 . S
C528 C527 1.434 . S
C529 C530 1.369 . S
C529 C531 1.419 . S
C529 H533 0.930 . S
C530 C529 1.369 . S
C530 C539 1.429 . S
C531 C529 1.419 . S
C531 C532 1.363 . S
C531 H534 0.929 . S
C532 C531 1.363 . S
C532 C538 1.428 . S
H533 C529 0.930 . S
H534 C531 0.929 . S
S535 N536 1.613 . S
S535 N537 1.610 . S
N536 S535 1.613 . S
N536 C539 1.350 . S
N537 S535 1.610 . S
N537 C538 1.351 . S
C538 C532 1.428 . S
C538 N537 1.351 . S
C538 C539 1.434 . S
C539 C530 1.429 . S
C539 N536 1.350 . S
C539 C538 1.434 . S
C540 C541 1.369 . S
C540 C542 1.419 . S
C540 H544 0.930 . S
C541 C540 1.369 . S
C541 C550 1.429 . S
C542 C540 1.419 . S
C542 C543 1.363 . S
C542 H545 0.929 . S
C543 C542 1.363 . S
C543 C549 1.428 . S
H544 C540 0.930 . S
H545 C542 0.929 . S
S546 N547 1.613 . S
S546 N548 1.610 . S
N547 S546 1.613 . S
N547 C550 1.350 . S
N548 S546 1.610 . S
N548 C549 1.351 . S
C549 C543 1.428 . S
C549 N548 1.351 . S
C549 C550 1.434 . S
C550 C541 1.429 . S
C550 N547 1.350 . S
C550 C549 1.434 . S
C551 C552 1.369 . S
C551 C553 1.419 . S
C551 H555 0.930 . S
C552 C551 1.369 . S
C552 C561 1.429 . S
C553 C551 1.419 . S
C553 C554 1.363 . S
C553 H556 0.929 . S
C554 C553 1.363 . S
C554 C560 1.428 . S
H555 C551 0.930 . S
H556 C553 0.929 . S
S557 N558 1.613 . S
S557 N559 1.610 . S
N558 S557 1.613 . S
N558 C561 1.350 . S
N559 S557 1.610 . S
N559 C560 1.351 . S
C560 C554 1.428 . S
C560 N559 1.351 . S
C560 C561 1.434 . S
C561 C552 1.429 . S
C561 N558 1.350 . S
C561 C560 1.434 . S
C562 C563 1.369 . S
C562 C564 1.419 . S
C562 H566 0.930 . S
C563 C562 1.369 . S
C563 C572 1.429 . S
C564 C562 1.419 . S
C564 C565 1.363 . S
C564 H567 0.929 . S
C565 C564 1.363 . S
C565 C571 1.428 . S
H566 C562 0.930 . S
H567 C564 0.929 . S
S568 N569 1.613 . S
S568 N570 1.610 . S
N569 S568 1.613 . S
N569 C572 1.350 . S
N570 S568 1.610 . S
N570 C571 1.351 . S
C571 C565 1.428 . S
C571 N570 1.351 . S
C571 C572 1.434 . S
C572 C563 1.429 . S
C572 N569 1.350 . S
C572 C571 1.434 . S
C573 C574 1.369 . S
C573 C575 1.419 . S
C573 H577 0.930 . S
C574 C573 1.369 . S
C574 C583 1.429 . S
C575 C573 1.419 . S
C575 C576 1.363 . S
C575 H578 0.929 . S
C576 C575 1.363 . S
C576 C582 1.428 . S
H577 C573 0.930 . S
H578 C575 0.929 . S
S579 N580 1.613 . S
S579 N581 1.610 . S
N580 S579 1.613 . S
N580 C583 1.350 . S
N581 S579 1.610 . S
N581 C582 1.351 . S
C582 C576 1.428 . S
C582 N581 1.351 . S
C582 C583 1.434 . S
C583 C574 1.429 . S
C583 N580 1.350 . S
C583 C582 1.434 . S
C584 C585 1.369 . S
C584 C586 1.419 . S
C584 H588 0.930 . S
C585 C584 1.369 . S
C585 C594 1.429 . S
C586 C584 1.419 . S
C586 C587 1.363 . S
C586 H589 0.929 . S
C587 C586 1.363 . S
C587 C593 1.428 . S
H588 C584 0.930 . S
H589 C586 0.929 . S
S590 N591 1.613 . S
S590 N592 1.610 . S
N591 S590 1.613 . S
N591 C594 1.350 . S
N592 S590 1.610 . S
N592 C593 1.351 . S
C593 C587 1.428 . S
C593 N592 1.351 . S
C593 C594 1.434 . S
C594 C585 1.429 . S
C594 N591 1.350 . S
C594 C593 1.434 . S
C595 C596 1.369 . S
C595 C597 1.419 . S
C595 H599 0.930 . S
C596 C595 1.369 . S
C596 C605 1.429 . S
C597 C595 1.419 . S
C597 C598 1.363 . S
C597 H600 0.929 . S
C598 C597 1.363 . S
C598 C604 1.428 . S
H599 C595 0.930 . S
H600 C597 0.929 . S
S601 N602 1.613 . S
S601 N603 1.610 . S
N602 S601 1.613 . S
N602 C605 1.350 . S
N603 S601 1.610 . S
N603 C604 1.351 . S
C604 C598 1.428 . S
C604 N603 1.351 . S
C604 C605 1.434 . S
C605 C596 1.429 . S
C605 N602 1.350 . S
C605 C604 1.434 . S
C606 C607 1.369 . S
C606 C608 1.419 . S
C606 H610 0.930 . S
C607 C606 1.369 . S
C607 C616 1.429 . S
C608 C606 1.419 . S
C608 C609 1.363 . S
C608 H611 0.929 . S
C609 C608 1.363 . S
C609 C615 1.428 . S
H610 C606 0.930 . S
H611 C608 0.929 . S
S612 N613 1.613 . S
S612 N614 1.610 . S
N613 S612 1.613 . S
N613 C616 1.350 . S
N614 S612 1.610 . S
N614 C615 1.351 . S
C615 C609 1.428 . S
C615 N614 1.351 . S
C615 C616 1.434 . S
C616 C607 1.429 . S
C616 N613 1.350 . S
C616 C615 1.434 . S
C617 C618 1.369 . S
C617 C619 1.419 . S
C617 H621 0.930 . S
C618 C617 1.369 . S
C618 C627 1.429 . S
C619 C617 1.419 . S
C619 C620 1.363 . S
C619 H622 0.929 . S
C620 C619 1.363 . S
C620 C626 1.428 . S
H621 C617 0.930 . S
H622 C619 0.929 . S
S623 N624 1.613 . S
S623 N625 1.610 . S
N624 S623 1.613 . S
N624 C627 1.350 . S
N625 S623 1.610 . S
N625 C626 1.351 . S
C626 C620 1.428 . S
C626 N625 1.351 . S
C626 C627 1.434 . S
C627 C618 1.429 . S
C627 N624 1.350 . S
C627 C626 1.434 . S
C628 C629 1.369 . S
C628 C630 1.419 . S
C628 H632 0.930 . S
C629 C628 1.369 . S
C629 C638 1.429 . S
C630 C628 1.419 . S
C630 C631 1.363 . S
C630 H633 0.929 . S
C631 C630 1.363 . S
C631 C637 1.428 . S
H632 C628 0.930 . S
H633 C630 0.929 . S
S634 N635 1.613 . S
S634 N636 1.610 . S
N635 S634 1.613 . S
N635 C638 1.350 . S
N636 S634 1.610 . S
N636 C637 1.351 . S
C637 C631 1.428 . S
C637 N636 1.351 . S
C637 C638 1.434 . S
C638 C629 1.429 . S
C638 N635 1.350 . S
C638 C637 1.434 . S
C639 C640 1.369 . S
C639 C641 1.419 . S
C639 H643 0.930 . S
C640 C639 1.369 . S
C640 C649 1.429 . S
C641 C639 1.419 . S
C641 C642 1.363 . S
C641 H644 0.929 . S
C642 C641 1.363 . S
C642 C648 1.428 . S
H643 C639 0.930 . S
H644 C641 0.929 . S
S645 N646 1.613 . S
S645 N647 1.610 . S
N646 S645 1.613 . S
N646 C649 1.350 . S
N647 S645 1.610 . S
N647 C648 1.351 . S
C648 C642 1.428 . S
C648 N647 1.351 . S
C648 C649 1.434 . S
C649 C640 1.429 . S
C649 N646 1.350 . S
C649 C648 1.434 . S
C650 C651 1.369 . S
C650 C652 1.419 . S
C650 H654 0.930 . S
C651 C650 1.369 . S
C651 C660 1.429 . S
C652 C650 1.419 . S
C652 C653 1.363 . S
C652 H655 0.929 . S
C653 C652 1.363 . S
C653 C659 1.428 . S
H654 C650 0.930 . S
H655 C652 0.929 . S
S656 N657 1.613 . S
S656 N658 1.610 . S
N657 S656 1.613 . S
N657 C660 1.350 . S
N658 S656 1.610 . S
N658 C659 1.351 . S
C659 C653 1.428 . S
C659 N658 1.351 . S
C659 C660 1.434 . S
C660 C651 1.429 . S
C660 N657 1.350 . S
C660 C659 1.434 . S
C661 C662 1.369 . S
C661 C663 1.419 . S
C661 H665 0.930 . S
C662 C661 1.369 . S
C662 C671 1.429 . S
C663 C661 1.419 . S
C663 C664 1.363 . S
C663 H666 0.929 . S
C664 C663 1.363 . S
C664 C670 1.428 . S
H665 C661 0.930 . S
H666 C663 0.929 . S
S667 N668 1.613 . S
S667 N669 1.610 . S
N668 S667 1.613 . S
N668 C671 1.350 . S
N669 S667 1.610 . S
N669 C670 1.351 . S
C670 C664 1.428 . S
C670 N669 1.351 . S
C670 C671 1.434 . S
C671 C662 1.429 . S
C671 N668 1.350 . S
C671 C670 1.434 . S
C672 C673 1.369 . S
C672 C674 1.419 . S
C672 H676 0.930 . S
C673 C672 1.369 . S
C673 C682 1.429 . S
C674 C672 1.419 . S
C674 C675 1.363 . S
C674 H677 0.929 . S
C675 C674 1.363 . S
C675 C681 1.428 . S
H676 C672 0.930 . S
H677 C674 0.929 . S
S678 N679 1.613 . S
S678 N680 1.610 . S
N679 S678 1.613 . S
N679 C682 1.350 . S
N680 S678 1.610 . S
N680 C681 1.351 . S
C681 C675 1.428 . S
C681 N680 1.351 . S
C681 C682 1.434 . S
C682 C673 1.429 . S
C682 N679 1.350 . S
C682 C681 1.434 . S
C422 C344 1.199 . S
C420 C15 1.238 . S
C433 C380 1.655 . S
C431 C55 1.728 . S
C444 C345 1.526 . S
C442 C101 1.525 . S
C455 C375 1.650 . S
C453 C141 1.590 . S
C466 C342 1.537 . S
C464 C162 1.595 . S
C475 C215 1.762 . S
C477 C378 1.801 . S
C486 C261 1.270 . S
C488 C347 1.208 . S
C499 C377 1.562 . S
C497 C282 1.520 . S
C510 C381 1.598 . S
C508 C2 1.598 . S
C521 C346 1.568 . S
C519 C61 1.537 . S
C532 C374 1.811 . S
C530 C95 1.756 . S
C543 C343 1.178 . S
C541 C122 1.248 . S
C554 C376 1.697 . S
C552 C181 1.811 . S
C563 C202 1.524 . S
C565 C341 1.525 . S
C574 C242 1.551 . S
C576 C379 1.631 . S
C587 C348 1.153 . S
C585 C295 1.186 . S
C598 C410 1.678 . S
C596 C21 1.796 . S
C607 C175 1.988 . S
C609 C413 1.893 . S
C620 C412 1.861 . S
C618 C221 1.912 . S
C629 C255 2.053 . S
C631 C411 2.065 . S
C642 C414 1.641 . S
C640 C301 1.717 . S
C651 C82 1.819 . S
C653 C408 1.778 . S
C664 C407 2.086 . S
C662 C135 2.071 . S
C673 C42 1.952 . S
C675 C409 1.941 . S
