# Generated by pormake.
# Topology csq, (4,8)-cn, num edge types: 1
# Building blocks:
#     Node 0, Type 0, BuildingBlock: KOZSID_clean_sbu_0, # of connection points: 4
#     Node 1, Type 0, BuildingBlock: KOZSID_clean_sbu_0, # of connection points: 4
#     Node 2, Type 0, BuildingBlock: KOZSID_clean_sbu_0, # of connection points: 4
#     Node 3, Type 0, BuildingBlock: KOZSID_clean_sbu_0, # of connection points: 4
#     Node 4, Type 0, BuildingBlock: KOZSID_clean_sbu_0, # of connection points: 4
#     Node 5, Type 0, BuildingBlock: KOZSID_clean_sbu_0, # of connection points: 4
#     Node 6, Type 1, BuildingBlock: TAGTUT_clean_sbu_1, # of connection points: 8
#     Node 7, Type 1, BuildingBlock: TAGTUT_clean_sbu_1, # of connection points: 8
#     Node 8, Type 1, BuildingBlock: TAGTUT_clean_sbu_1, # of connection points: 8
#     Edge 9, Type (0, 1), BuildingBlock: EZIPEK_clean_linker_0, # of connection points: 2
#     Edge 10, Type (0, 1), BuildingBlock: EZIPEK_clean_linker_0, # of connection points: 2
#     Edge 11, Type (0, 1), BuildingBlock: EZIPEK_clean_linker_0, # of connection points: 2
#     Edge 12, Type (0, 1), BuildingBlock: EZIPEK_clean_linker_0, # of connection points: 2
#     Edge 13, Type (0, 1), BuildingBlock: EZIPEK_clean_linker_0, # of connection points: 2
#     Edge 14, Type (0, 1), BuildingBlock: EZIPEK_clean_linker_0, # of connection points: 2
#     Edge 15, Type (0, 1), BuildingBlock: EZIPEK_clean_linker_0, # of connection points: 2
#     Edge 16, Type (0, 1), BuildingBlock: EZIPEK_clean_linker_0, # of connection points: 2
#     Edge 17, Type (0, 1), BuildingBlock: EZIPEK_clean_linker_0, # of connection points: 2
#     Edge 18, Type (0, 1), BuildingBlock: EZIPEK_clean_linker_0, # of connection points: 2
#     Edge 19, Type (0, 1), BuildingBlock: EZIPEK_clean_linker_0, # of connection points: 2
#     Edge 20, Type (0, 1), BuildingBlock: EZIPEK_clean_linker_0, # of connection points: 2
#     Edge 21, Type (0, 1), BuildingBlock: EZIPEK_clean_linker_0, # of connection points: 2
#     Edge 22, Type (0, 1), BuildingBlock: EZIPEK_clean_linker_0, # of connection points: 2
#     Edge 23, Type (0, 1), BuildingBlock: EZIPEK_clean_linker_0, # of connection points: 2
#     Edge 24, Type (0, 1), BuildingBlock: EZIPEK_clean_linker_0, # of connection points: 2
#     Edge 25, Type (0, 1), BuildingBlock: EZIPEK_clean_linker_0, # of connection points: 2
#     Edge 26, Type (0, 1), BuildingBlock: EZIPEK_clean_linker_0, # of connection points: 2
#     Edge 27, Type (0, 1), BuildingBlock: EZIPEK_clean_linker_0, # of connection points: 2
#     Edge 28, Type (0, 1), BuildingBlock: EZIPEK_clean_linker_0, # of connection points: 2
#     Edge 29, Type (0, 1), BuildingBlock: EZIPEK_clean_linker_0, # of connection points: 2
#     Edge 30, Type (0, 1), BuildingBlock: EZIPEK_clean_linker_0, # of connection points: 2
#     Edge 31, Type (0, 1), BuildingBlock: EZIPEK_clean_linker_0, # of connection points: 2
#     Edge 32, Type (0, 1), BuildingBlock: EZIPEK_clean_linker_0, # of connection points: 2
# Relax obj value: 0.038
# Max RMSD: 0.132
# Mean RMSD: 0.041
data_MOF--net-csq--node1-KOZSID_clean_sbu_0--node2-TAGTUT_clean_sbu_1--edge1-EZIPEK_clean_linker_0
_symmetry_space_group_name_H-M    P1
_symmetry_Int_Tables_number       1
_symmetry_cell_setting            triclinic
loop_
_symmetry_equiv_pos_as_xyz
'x, y, z'
_cell_length_a     43.802229
_cell_length_b     43.331816
_cell_length_c     16.142521
_cell_angle_alpha  86.821638
_cell_angle_beta   99.011882
_cell_angle_gamma 120.17751
loop_
_atom_site_label
_atom_site_type_symbol
_atom_site_fract_x
_atom_site_fract_y
_atom_site_fract_z
_atom_type_partial_charge
C0 C 0.31046 0.5273 0.37764 0.0
C1 C 0.33649 0.55954 0.41702 0.0
C2 C 0.33749 0.58578 0.36478 0.0
C3 C 0.31208 0.56804 0.297 0.0
N4 N 0.29465 0.53211 0.30319 0.0
Co5 Co 0.25301 0.49594 0.22459 0.0
N6 N 0.25317 0.53427 0.14943 0.0
C7 C 0.27562 0.56991 0.15991 0.0
C8 C 0.27313 0.58898 0.0912 0.0
C9 C 0.24726 0.56413 0.03378 0.0
C10 C 0.23511 0.53121 0.07145 0.0
N11 N 0.21158 0.45965 0.1457 0.0
C12 C 0.19345 0.46428 0.0749 0.0
C13 C 0.16405 0.43194 0.04338 0.0
C14 C 0.16464 0.406 0.09389 0.0
C15 C 0.19372 0.42378 0.154 0.0
N16 N 0.25297 0.45766 0.30031 0.0
C17 C 0.22975 0.42218 0.2919 0.0
C18 C 0.23728 0.40246 0.35214 0.0
C19 C 0.26718 0.42681 0.40226 0.0
C20 C 0.27589 0.46011 0.36987 0.0
N21 N 0.21938 0.49917 0.29169 0.0
C22 C 0.17381 0.50276 0.39503 0.0
C23 C 0.16304 0.4719 0.3477 0.0
C24 C 0.18621 0.4704 0.29878 0.0
C25 C 0.20784 0.53178 0.38911 0.0
C26 C 0.22922 0.52993 0.33537 0.0
N27 N 0.28628 0.49271 0.15707 0.0
C28 C 0.30186 0.45745 0.07873 0.0
C29 C 0.32982 0.48819 0.04978 0.0
C30 C 0.33603 0.52119 0.07703 0.0
C31 C 0.31427 0.52285 0.13014 0.0
C32 C 0.2807 0.46026 0.13196 0.0
H33 H 0.32087 0.5489 0.14942 0.0
H34 H 0.25982 0.43583 0.15193 0.0
H35 H 0.17642 0.44549 0.26745 0.0
H36 H 0.25353 0.55401 0.33027 0.0
C37 C 0.30203 0.58422 0.22975 0.0
C38 C 0.30677 0.49322 0.40525 0.0
C39 C 0.20361 0.49854 0.03487 0.0
C40 C 0.20293 0.40792 0.22319 0.0
H41 H 0.3539 0.56343 0.47581 0.0
H42 H 0.35464 0.61434 0.37499 0.0
H43 H 0.28918 0.6174 0.0827 0.0
H44 H 0.2379 0.56965 0.97175 0.0
H45 H 0.14382 0.42715 0.99002 0.0
H46 H 0.14555 0.37765 0.08877 0.0
H47 H 0.22329 0.37372 0.35755 0.0
H48 H 0.28109 0.42053 0.45574 0.0
H49 H 0.13683 0.44873 0.34906 0.0
H50 H 0.21753 0.55647 0.42379 0.0
H51 H 0.2964 0.43128 0.06047 0.0
H52 H 0.35783 0.54572 0.0578 0.0
C53 C 0.85495 0.26253 0.09902 0.0
C54 C 0.88505 0.25899 0.10565 0.0
C55 C 0.87601 0.22616 0.13802 0.0
C56 C 0.84133 0.21176 0.15155 0.0
N57 N 0.82795 0.23355 0.12982 0.0
Co58 Co 0.78172 0.22656 0.15441 0.0
N59 N 0.77628 0.1885 0.23646 0.0
C60 C 0.79554 0.17182 0.24594 0.0
C61 C 0.78751 0.14809 0.30989 0.0
C62 C 0.76099 0.1492 0.34193 0.0
C63 C 0.7539 0.17328 0.29471 0.0
N64 N 0.7357 0.22008 0.18074 0.0
C65 C 0.71522 0.20032 0.24023 0.0
C66 C 0.68364 0.20128 0.23043 0.0
C67 C 0.68403 0.22165 0.16216 0.0
C68 C 0.71566 0.23201 0.13378 0.0
N69 N 0.78699 0.26397 0.07158 0.0
C70 C 0.76057 0.26958 0.03426 0.0
C71 C 0.77159 0.29617 0.97674 0.0
C72 C 0.8072 0.30801 0.97802 0.0
C73 C 0.81598 0.28807 0.03694 0.0
N74 N 0.75552 0.19065 0.06268 0.0
C75 C 0.71182 0.14701 0.92288 0.0
C76 C 0.70004 0.14077 0.00064 0.0
C77 C 0.72223 0.16277 0.06931 0.0
C78 C 0.74672 0.17413 0.91674 0.0
C79 C 0.7682 0.19575 0.98764 0.0
N80 N 0.80818 0.26339 0.24307 0.0
C81 C 0.82714 0.32285 0.29051 0.0
C82 C 0.85662 0.32417 0.34176 0.0
C83 C 0.8601 0.29376 0.34737 0.0
C84 C 0.83556 0.26359 0.29746 0.0
C85 C 0.80288 0.29194 0.24265 0.0
H86 H 0.83992 0.24123 0.29986 0.0
H87 H 0.78092 0.29192 0.20192 0.0
H88 H 0.71143 0.15856 0.12616 0.0
H89 H 0.79431 0.21769 0.9804 0.0
C90 C 0.82447 0.18298 0.20298 0.0
C91 C 0.85184 0.2922 0.05718 0.0
C92 C 0.72192 0.17596 0.298 0.0
C93 C 0.72795 0.25367 0.06507 0.0
H94 H 0.91103 0.27809 0.08964 0.0
H95 H 0.89352 0.21527 0.15541 0.0
H96 H 0.8 0.13243 0.33189 0.0
H97 H 0.74738 0.13301 0.3921 0.0
H98 H 0.66182 0.18738 0.26643 0.0
H99 H 0.66339 0.22766 0.1356 0.0
H100 H 0.75603 0.30671 0.9407 0.0
H101 H 0.82473 0.3291 0.94049 0.0
H102 H 0.67318 0.11987 0.0075 0.0
H103 H 0.75667 0.17947 0.85719 0.0
H104 H 0.82341 0.34581 0.28612 0.0
H105 H 0.88235 0.29382 0.38776 0.0
C106 C 0.54884 0.72472 0.17822 0.0
C107 C 0.58007 0.73237 0.2315 0.0
C108 C 0.60372 0.76777 0.22345 0.0
C109 C 0.5858 0.77962 0.16545 0.0
N110 N 0.55195 0.75415 0.13705 0.0
Co111 Co 0.51842 0.75887 0.04402 0.0
N112 N 0.55579 0.80828 0.01839 0.0
C113 C 0.58816 0.82813 0.06492 0.0
C114 C 0.60749 0.86197 0.03645 0.0
C115 C 0.58589 0.86421 0.96861 0.0
C116 C 0.55437 0.83152 0.95976 0.0
N117 N 0.48572 0.76228 0.94601 0.0
C118 C 0.49099 0.78936 0.89243 0.0
C119 C 0.46026 0.78085 0.83621 0.0
C120 C 0.43466 0.74756 0.8555 0.0
C121 C 0.45107 0.73751 0.92207 0.0
N122 N 0.48067 0.71041 0.07312 0.0
C123 C 0.44562 0.69425 0.04164 0.0
C124 C 0.42603 0.66089 0.07279 0.0
C125 C 0.45018 0.65538 0.12657 0.0
C126 C 0.48327 0.68572 0.12489 0.0
N127 N 0.50309 0.78082 0.1205 0.0
C128 C 0.50112 0.83642 0.19092 0.0
C129 C 0.47518 0.81617 0.12467 0.0
C130 C 0.47584 0.78757 0.09242 0.0
C131 C 0.52359 0.82448 0.2316 0.0
C132 C 0.5236 0.79597 0.19611 0.0
N133 N 0.53386 0.7374 0.96916 0.0
C134 C 0.51911 0.68553 0.88966 0.0
C135 C 0.55519 0.69627 0.89678 0.0
C136 C 0.58078 0.72937 0.93364 0.0
C137 C 0.56945 0.74971 0.96929 0.0
C138 C 0.50905 0.70672 0.92519 0.0
H139 H 0.58965 0.77448 0.99986 0.0
H140 H 0.48106 0.69707 0.92014 0.0
H141 H 0.45528 0.77298 0.04181 0.0
H142 H 0.54165 0.78806 0.22874 0.0
C143 C 0.6005 0.81358 0.13194 0.0
C144 C 0.51664 0.68933 0.17046 0.0
C145 C 0.52339 0.82464 0.89717 0.0
C146 C 0.43368 0.70774 0.97119 0.0
H147 H 0.58532 0.71418 0.27157 0.0
H148 H 0.63108 0.78278 0.25422 0.0
H149 H 0.63413 0.88257 0.06199 0.0
H150 H 0.59241 0.88754 0.93084 0.0
H151 H 0.45629 0.79761 0.78864 0.0
H152 H 0.40689 0.73323 0.82726 0.0
H153 H 0.39797 0.64187 0.05447 0.0
H154 H 0.44437 0.63127 0.16066 0.0
H155 H 0.45595 0.82364 0.09493 0.0
H156 H 0.54261 0.83859 0.28667 0.0
H157 H 0.49878 0.66046 0.85838 0.0
H158 H 0.60902 0.73883 0.93682 0.0
C159 C 0.82908 0.56156 0.24888 0.0
C160 C 0.85679 0.59513 0.27774 0.0
C161 C 0.85435 0.61912 0.2228 0.0
C162 C 0.82572 0.59897 0.1632 0.0
N163 N 0.80973 0.56347 0.17644 0.0
Co164 Co 0.76881 0.52451 0.10169 0.0
N165 N 0.76453 0.56003 0.02286 0.0
C166 C 0.78463 0.59604 0.02961 0.0
C167 C 0.77636 0.61322 0.96377 0.0
C168 C 0.74885 0.5866 0.91263 0.0
C169 C 0.74187 0.55464 0.9507 0.0
N170 N 0.72848 0.48551 0.0258 0.0
C171 C 0.7072 0.48744 0.9574 0.0
C172 C 0.68113 0.45372 0.92533 0.0
C173 C 0.6865 0.4297 0.97428 0.0
C174 C 0.71517 0.44994 0.03376 0.0
N175 N 0.77224 0.48903 0.18211 0.0
C176 C 0.75177 0.45302 0.17549 0.0
C177 C 0.75699 0.43585 0.24535 0.0
C178 C 0.78235 0.46245 0.29995 0.0
C179 C 0.79162 0.49445 0.25947 0.0
N180 N 0.7345 0.52555 0.16713 0.0
C181 C 0.68924 0.52534 0.27388 0.0
C182 C 0.68466 0.49349 0.24388 0.0
C183 C 0.7068 0.49421 0.18969 0.0
C184 C 0.71631 0.5575 0.24771 0.0
C185 C 0.73876 0.55701 0.19511 0.0
N186 N 0.8033 0.52329 0.0361 0.0
C187 C 0.82758 0.49115 0.97822 0.0
C188 C 0.85075 0.5217 0.93874 0.0
C189 C 0.84969 0.55289 0.94809 0.0
C190 C 0.82655 0.55328 0.99785 0.0
C191 C 0.80407 0.49245 0.02579 0.0
H192 H 0.82844 0.5784 0.00481 0.0
H193 H 0.78705 0.46823 0.05404 0.0
H194 H 0.70121 0.46895 0.16764 0.0
H195 H 0.7595 0.58226 0.17818 0.0
C196 C 0.81275 0.61268 0.09537 0.0
C197 C 0.8218 0.52876 0.29322 0.0
C198 C 0.71029 0.52053 0.92243 0.0
C199 C 0.7266 0.43627 0.10446 0.0
H200 H 0.87656 0.60176 0.33318 0.0
H201 H 0.87133 0.64788 0.22617 0.0
H202 H 0.78886 0.64168 0.95409 0.0
H203 H 0.73464 0.59021 0.85522 0.0
H204 H 0.65992 0.44693 0.87312 0.0
H205 H 0.67035 0.40088 0.96948 0.0
H206 H 0.74363 0.40741 0.25573 0.0
H207 H 0.79342 0.45869 0.36191 0.0
H208 H 0.66372 0.46797 0.26175 0.0
H209 H 0.72041 0.58279 0.26875 0.0
H210 H 0.8279 0.46649 0.97313 0.0
H211 H 0.86762 0.57728 0.91933 0.0
C212 C 0.2833 0.83753 0.22403 0.0
C213 C 0.27915 0.86729 0.22397 0.0
C214 C 0.25717 0.86511 0.15144 0.0
C215 C 0.24827 0.83382 0.11207 0.0
N216 N 0.26263 0.81567 0.15629 0.0
Co217 Co 0.25242 0.76695 0.12635 0.0
N218 N 0.21054 0.75815 0.04097 0.0
C219 C 0.20324 0.78325 0.00733 0.0
C220 C 0.17228 0.76935 0.95087 0.0
C221 C 0.15931 0.73323 0.94855 0.0
C222 C 0.1832 0.72706 0.00386 0.0
N223 N 0.2422 0.71828 0.09608 0.0
C224 C 0.21233 0.69054 0.05407 0.0
C225 C 0.21679 0.66129 0.04748 0.0
C226 C 0.25066 0.67118 0.08635 0.0
C227 C 0.26495 0.70576 0.11431 0.0
N228 N 0.29443 0.77562 0.21177 0.0
C229 C 0.31134 0.75665 0.21637 0.0
C230 C 0.34188 0.77045 0.27388 0.0
C231 C 0.34485 0.80031 0.30725 0.0
C232 C 0.31563 0.80305 0.26866 0.0
N233 N 0.22059 0.74663 0.21047 0.0
C234 C 0.16433 0.70782 0.30094 0.0
C235 C 0.19049 0.69827 0.30099 0.0
C236 C 0.21887 0.71849 0.25635 0.0
C237 C 0.16838 0.73869 0.26096 0.0
C238 C 0.19645 0.75746 0.21523 0.0
N239 N 0.28355 0.78717 0.04024 0.0
C240 C 0.33586 0.83544 0.99287 0.0
C241 C 0.32374 0.82053 0.91172 0.0
C242 C 0.29232 0.78762 0.8966 0.0
C243 C 0.27258 0.77141 0.96195 0.0
C244 C 0.31547 0.81818 0.05632 0.0
H245 H 0.24794 0.74668 0.94863 0.0
H246 H 0.3251 0.83041 0.11773 0.0
H247 H 0.23834 0.71033 0.25542 0.0
H248 H 0.19725 0.77957 0.18022 0.0
C249 C 0.22207 0.81798 0.04184 0.0
C250 C 0.31149 0.83427 0.28093 0.0
C251 C 0.18043 0.69179 0.01446 0.0
C252 C 0.29692 0.72516 0.16856 0.0
H253 H 0.29185 0.88909 0.26983 0.0
H254 H 0.24795 0.88365 0.13113 0.0
H255 H 0.15974 0.78353 0.91809 0.0
H256 H 0.13512 0.71368 0.91037 0.0
H257 H 0.19764 0.6356 0.01744 0.0
H258 H 0.26288 0.65468 0.0958 0.0
H259 H 0.36007 0.76025 0.28915 0.0
H260 H 0.36688 0.81861 0.35255 0.0
H261 H 0.18847 0.6749 0.33349 0.0
H262 H 0.14896 0.74714 0.26156 0.0
H263 H 0.36045 0.8607 0.00658 0.0
H264 H 0.28256 0.77527 0.83436 0.0
C265 C 0.52094 0.21011 0.35589 0.0
C266 C 0.55299 0.21522 0.40065 0.0
C267 C 0.57927 0.24695 0.37642 0.0
C268 C 0.56196 0.25923 0.3179 0.0
N269 N 0.52604 0.23767 0.30475 0.0
Co270 Co 0.49113 0.24191 0.2152 0.0
N271 N 0.5303 0.28547 0.16975 0.0
C272 C 0.56575 0.30139 0.19801 0.0
C273 C 0.58557 0.33333 0.16151 0.0
C274 C 0.56127 0.33869 0.10843 0.0
C275 C 0.52793 0.30941 0.11519 0.0
N276 N 0.45628 0.24563 0.12454 0.0
C277 C 0.46155 0.27205 0.06972 0.0
C278 C 0.43017 0.26491 0.01798 0.0
C279 C 0.40383 0.23333 0.04306 0.0
C280 C 0.42063 0.22301 0.10813 0.0
N281 N 0.45176 0.19904 0.26157 0.0
C282 C 0.41626 0.18382 0.23481 0.0
C283 C 0.39597 0.15457 0.27938 0.0
C284 C 0.42002 0.15035 0.33656 0.0
C285 C 0.45367 0.17726 0.32297 0.0
N286 N 0.48604 0.27358 0.28961 0.0
C287 C 0.47962 0.32291 0.38071 0.0
C288 C 0.44946 0.29399 0.33802 0.0
C289 C 0.45321 0.26963 0.29355 0.0
C290 C 0.51287 0.32611 0.38051 0.0
C291 C 0.51546 0.30123 0.33497 0.0
N292 N 0.4963 0.20995 0.14148 0.0
C293 C 0.46955 0.15397 0.06362 0.0
C294 C 0.503 0.15778 0.0626 0.0
C295 C 0.53323 0.18893 0.09712 0.0
C296 C 0.52929 0.2147 0.13527 0.0
C297 C 0.46681 0.18029 0.10262 0.0
H298 H 0.5533 0.23787 0.16069 0.0
H299 H 0.44049 0.17545 0.10284 0.0
H300 H 0.42929 0.24854 0.26069 0.0
H301 H 0.54158 0.30522 0.3364 0.0
C302 C 0.57895 0.28825 0.26679 0.0
C303 C 0.4865 0.17786 0.36034 0.0
C304 C 0.49451 0.30637 0.07266 0.0
C305 C 0.4032 0.19528 0.1622 0.0
H306 H 0.55726 0.19734 0.44397 0.0
H307 H 0.60777 0.25861 0.3955 0.0
H308 H 0.61403 0.35162 0.17566 0.0
H309 H 0.56737 0.36217 0.07158 0.0
H310 H 0.42644 0.28186 0.97055 0.0
H311 H 0.3755 0.22062 0.02014 0.0
H312 H 0.36727 0.13725 0.26861 0.0
H313 H 0.41369 0.1287 0.37984 0.0
H314 H 0.42316 0.29045 0.33815 0.0
H315 H 0.53676 0.34795 0.41453 0.0
H316 H 0.44554 0.13052 0.0353 0.0
H317 H 0.55969 0.19324 0.095 0.0
C318 C 0.97033 0.40758 0.90627 0.0
C319 C 0.08107 0.47564 0.82471 0.0
C320 C 0.05638 0.57992 0.80828 0.0
Mg321 Mg 0.00394 0.43018 0.73966 0.0
O322 O 0.99759 0.46862 0.75963 0.0
Mg323 Mg 0.0209 0.49577 0.8691 0.0
Mg324 Mg 0.01266 0.50886 0.68167 0.0
O325 O 0.02593 0.54904 0.6043 0.0
Mg326 Mg 0.01307 0.58297 0.62953 0.0
Mg327 Mg 0.00138 0.52087 0.49587 0.0
C328 C 0.96745 0.43714 0.5583 0.0
C329 C 0.06745 0.50792 0.56068 0.0
O330 O 0.98839 0.44039 0.93285 0.0
O331 O 0.97288 0.39827 0.83478 0.0
O332 O 0.06809 0.48867 0.86809 0.0
O333 O 0.0613 0.45223 0.76673 0.0
O334 O 0.97637 0.41881 0.61131 0.0
O335 O 0.97609 0.46954 0.57403 0.0
C336 C 0.95798 0.51214 0.79658 0.0
O337 O 0.96677 0.51513 0.7229 0.0
O338 O 0.97443 0.50482 0.85996 0.0
O339 O 0.03201 0.57638 0.43817 0.0
O340 O 0.03974 0.61735 0.53248 0.0
O341 O 0.95344 0.52677 0.49534 0.0
C342 C 0.04519 0.60885 0.46364 0.0
O343 O 0.95516 0.56078 0.59467 0.0
O344 O 0.04395 0.5964 0.75757 0.0
C345 C 0.93793 0.53894 0.53218 0.0
O346 O 0.04912 0.54797 0.7915 0.0
O347 O 0.05997 0.50404 0.63636 0.0
O348 O 0.0489 0.51417 0.50048 0.0
C349 C 0.48373 0.03948 0.87511 0.0
C350 C 0.42041 0.9317 0.73874 0.0
C351 C 0.53825 0.94528 0.68777 0.0
Mg352 Mg 0.45176 0.01016 0.69163 0.0
O353 O 0.49711 0.01481 0.70344 0.0
Mg354 Mg 0.50907 0.98723 0.79298 0.0
Mg355 Mg 0.50959 1.00051 0.60596 0.0
O356 O 0.52308 0.98734 0.50895 0.0
Mg357 Mg 0.56684 0.9884 0.52158 0.0
Mg358 Mg 0.51388 0.01801 0.42259 0.0
C359 C 0.47921 0.05287 0.52635 0.0
C360 C 0.43707 0.95328 0.47061 0.0
O361 O 0.50088 0.02224 0.88389 0.0
O362 O 0.46244 0.0371 0.80843 0.0
O363 O 0.45103 0.94144 0.78194 0.0
O364 O 0.41444 0.95388 0.69424 0.0
O365 O 0.45693 0.04189 0.57914 0.0
O366 O 0.50288 0.04338 0.52925 0.0
C367 C 0.5832 0.04836 0.73361 0.0
O368 O 0.5681 0.04137 0.65712 0.0
O369 O 0.56653 0.03194 0.79449 0.0
O370 O 0.52229 0.98709 0.32706 0.0
O371 O 0.55246 0.96241 0.40114 0.0
O372 O 0.57415 0.0617 0.43093 0.0
C373 C 0.53482 0.96586 0.33351 0.0
O374 O 0.60849 0.04377 0.51161 0.0
O375 O 0.55981 0.95438 0.63342 0.0
C376 C 0.60492 0.06707 0.46526 0.0
O377 O 0.51761 0.95854 0.6869 0.0
O378 O 0.44985 0.95876 0.54926 0.0
O379 O 0.4564 0.9726 0.41599 0.0
C380 C 0.53429 0.58417 0.38337 0.0
C381 C 0.59132 0.52466 0.47666 0.0
C382 C 0.46462 0.42486 0.56227 0.0
Mg383 Mg 0.57063 0.57306 0.55677 0.0
O384 O 0.52321 0.53617 0.55388 0.0
Mg385 Mg 0.50342 0.50004 0.45999 0.0
Mg386 Mg 0.50842 0.5045 0.65116 0.0
O387 O 0.49253 0.47241 0.74686 0.0
Mg388 Mg 0.44512 0.43479 0.74064 0.0
Mg389 Mg 0.51288 0.50671 0.84359 0.0
C390 C 0.55472 0.58213 0.74144 0.0
C391 C 0.58043 0.51394 0.76596 0.0
O392 O 0.51454 0.5499 0.37295 0.0
O393 O 0.55775 0.59873 0.44876 0.0
O394 O 0.55798 0.50637 0.44972 0.0
O395 O 0.60316 0.55202 0.52452 0.0
O396 O 0.57482 0.59217 0.68352 0.0
O397 O 0.52594 0.55154 0.7397 0.0
C398 C 0.43729 0.49512 0.53482 0.0
O399 O 0.45318 0.49926 0.61043 0.0
O400 O 0.45103 0.49329 0.4727 0.0
O401 O 0.50139 0.45608 0.92452 0.0
O402 O 0.45902 0.40865 0.84275 0.0
O403 O 0.45774 0.49979 0.86379 0.0
C404 C 0.48178 0.42214 0.90928 0.0
O405 O 0.4123 0.45304 0.78927 0.0
O406 O 0.44247 0.41346 0.61601 0.0
C407 C 0.42411 0.47922 0.84138 0.0
O408 O 0.49127 0.45694 0.56508 0.0
O409 O 0.56505 0.51183 0.69054 0.0
O410 O 0.56515 0.51218 0.82846 0.0
C411 C 0.13155 0.47851 0.50562 0.0
C412 C 0.14915 0.5053 0.44711 0.0
C413 C 0.12254 0.53845 0.49321 0.0
C414 C 0.09979 0.50869 0.53825 0.0
N415 N 0.07876 0.44727 0.57404 0.0
N416 N 0.15298 0.55685 0.37204 0.0
C417 C 0.10337 0.47788 0.54154 0.0
C418 C 0.14263 0.53445 0.43776 0.0
N419 N 0.14224 0.45425 0.52895 0.0
N420 N 0.12439 0.57053 0.50215 0.0
H421 H 0.16454 0.55305 0.32472 0.0
H422 H 0.14598 0.57651 0.35886 0.0
H423 H 0.11045 0.5744 0.54354 0.0
H424 H 0.14256 0.59386 0.47571 0.0
H425 H 0.13217 0.43615 0.57637 0.0
H426 H 0.16385 0.45492 0.50768 0.0
H427 H 0.07793 0.42295 0.56943 0.0
H428 H 0.05768 0.44572 0.59993 0.0
C429 C 0.67453 0.11123 0.3186 0.0
C430 C 0.69253 0.14797 0.34431 0.0
C431 C 0.65275 0.13192 0.452 0.0
C432 C 0.63666 0.09526 0.42912 0.0
N433 N 0.63655 0.04944 0.3501 0.0
N434 N 0.70242 0.19242 0.44459 0.0
C435 C 0.64896 0.08486 0.36554 0.0
C436 C 0.68261 0.15805 0.41375 0.0
N437 N 0.68069 0.10118 0.24714 0.0
N438 N 0.63924 0.14172 0.50966 0.0
H439 H 0.72426 0.21204 0.41824 0.0
H440 H 0.69901 0.20092 0.49971 0.0
H441 H 0.61856 0.12309 0.54092 0.0
H442 H 0.64701 0.16811 0.52305 0.0
H443 H 0.66407 0.07622 0.21748 0.0
H444 H 0.70124 0.11803 0.21438 0.0
H445 H 0.64854 0.04046 0.31437 0.0
H446 H 0.61597 0.02869 0.37756 0.0
C447 C 0.52022 0.63245 0.18563 0.0
C448 C 0.51662 0.65927 0.22242 0.0
C449 C 0.51685 0.63165 0.3595 0.0
C450 C 0.52609 0.60829 0.32546 0.0
N451 N 0.53862 0.5878 0.2062 0.0
N452 N 0.51206 0.68514 0.3449 0.0
C453 C 0.52786 0.60871 0.2382 0.0
C454 C 0.5149 0.65891 0.30947 0.0
N455 N 0.51584 0.62938 0.10028 0.0
N456 N 0.50825 0.62677 0.43886 0.0
H457 H 0.50802 0.70407 0.30982 0.0
H458 H 0.5158 0.68948 0.40942 0.0
H459 H 0.50881 0.60698 0.47756 0.0
H460 H 0.4971 0.63986 0.46352 0.0
H461 H 0.51378 0.60787 0.06905 0.0
H462 H 0.51126 0.64687 0.06038 0.0
H463 H 0.54406 0.58952 0.14508 0.0
H464 H 0.54469 0.57043 0.24273 0.0
C465 C 0.86582 0.5096 0.35316 0.0
C466 C 0.84869 0.52907 0.36365 0.0
C467 C 0.88345 0.54851 0.50524 0.0
C468 C 0.90064 0.52909 0.49203 0.0
N469 N 0.88952 0.4748 0.42681 0.0
N470 N 0.83334 0.55832 0.4589 0.0
C471 C 0.88552 0.5041 0.42371 0.0
C472 C 0.85501 0.54588 0.44285 0.0
N473 N 0.86424 0.49705 0.27591 0.0
N474 N 0.89352 0.56872 0.57676 0.0
H475 H 0.81225 0.55633 0.41475 0.0
H476 H 0.83445 0.56797 0.51757 0.0
H477 H 0.90891 0.56607 0.62968 0.0
H478 H 0.8858 0.58744 0.5841 0.0
H479 H 0.87862 0.48466 0.26625 0.0
H480 H 0.85183 0.50233 0.22087 0.0
H481 H 0.87709 0.45487 0.37975 0.0
H482 H 0.90139 0.46859 0.48129 0.0
C483 C 0.3495 0.86172 0.42379 0.0
C484 C 0.34071 0.86582 0.33653 0.0
C485 C 0.38422 0.92954 0.3575 0.0
C486 C 0.3997 0.92397 0.43671 0.0
N487 N 0.39687 0.88082 0.54255 0.0
N488 N 0.35885 0.90471 0.21807 0.0
C489 C 0.3821 0.88904 0.47013 0.0
C490 C 0.36067 0.90005 0.30258 0.0
N491 N 0.32697 0.83177 0.46239 0.0
N492 N 0.39166 0.96311 0.33471 0.0
H493 H 0.34386 0.88378 0.17438 0.0
H494 H 0.37536 0.92906 0.1922 0.0
H495 H 0.40607 0.98482 0.37701 0.0
H496 H 0.37941 0.96806 0.27885 0.0
H497 H 0.33049 0.82883 0.52714 0.0
H498 H 0.30303 0.81157 0.43049 0.0
H499 H 0.38664 0.85481 0.56386 0.0
H500 H 0.42071 0.89904 0.57813 0.0
C501 C 0.47712 0.37943 0.38636 0.0
C502 C 0.47616 0.34924 0.42745 0.0
C503 C 0.47109 0.37059 0.55864 0.0
C504 C 0.46637 0.39767 0.51443 0.0
N505 N 0.459 0.42392 0.38276 0.0
N506 N 0.46726 0.31313 0.55029 0.0
C507 C 0.46768 0.40097 0.42712 0.0
C508 C 0.47135 0.34377 0.51275 0.0
N509 N 0.48844 0.38838 0.31001 0.0
N510 N 0.47803 0.3718 0.64443 0.0
H511 H 0.46865 0.29339 0.51965 0.0
H512 H 0.45972 0.30613 0.60968 0.0
H513 H 0.48085 0.39226 0.6815 0.0
H514 H 0.48519 0.35471 0.67868 0.0
H515 H 0.49259 0.41188 0.28046 0.0
H516 H 0.49764 0.37437 0.28107 0.0
H517 H 0.45659 0.4252 0.31758 0.0
H518 H 0.4505 0.43885 0.41056 0.0
C519 C 0.52512 0.88417 0.87756 0.0
C520 C 0.52442 0.85449 0.84204 0.0
C521 C 0.52593 0.88168 0.70393 0.0
C522 C 0.53283 0.91396 0.74187 0.0
N523 N 0.54585 0.94744 0.86944 0.0
N524 N 0.52963 0.82768 0.72206 0.0
C525 C 0.53403 0.91555 0.83002 0.0
C526 C 0.52644 0.85405 0.75535 0.0
N527 N 0.51691 0.88225 0.95648 0.0
N528 N 0.51703 0.87645 0.61883 0.0
H529 H 0.52989 0.80689 0.7574 0.0
H530 H 0.53504 0.8282 0.66123 0.0
H531 H 0.51406 0.89482 0.57888 0.0
H532 H 0.5085 0.85215 0.58894 0.0
H533 H 0.51381 0.90176 0.98275 0.0
H534 H 0.50973 0.85945 0.99207 0.0
H535 H 0.55021 0.95077 0.93448 0.0
H536 H 0.55534 0.97122 0.83731 0.0
C537 C 0.66424 0.50551 0.79096 0.0
C538 C 0.67848 0.52075 0.87353 0.0
C539 C 0.6385 0.54474 0.85674 0.0
C540 C 0.61792 0.52169 0.78644 0.0
N541 N 0.61119 0.47826 0.68643 0.0
N542 N 0.67304 0.54917 0.99114 0.0
C543 C 0.6309 0.50176 0.75228 0.0
C544 C 0.66388 0.53881 0.90836 0.0
N545 N 0.68255 0.49508 0.74953 0.0
N546 N 0.63373 0.57236 0.87384 0.0
H547 H 0.68975 0.54308 0.03326 0.0
H548 H 0.66072 0.56022 0.01935 0.0
H549 H 0.61712 0.57881 0.83227 0.0
H550 H 0.64959 0.59107 0.92242 0.0
H551 H 0.6748 0.48674 0.68661 0.0
H552 H 0.7071 0.4978 0.77628 0.0
H553 H 0.61812 0.46059 0.66557 0.0
H554 H 0.58693 0.47492 0.65578 0.0
C555 C 0.12064 0.6339 0.00372 0.0
C556 C 0.14993 0.65967 0.96474 0.0
C557 C 0.12136 0.62518 0.83165 0.0
C558 C 0.08962 0.60336 0.86677 0.0
N559 N 0.05881 0.58532 0.9866 0.0
N560 N 0.17826 0.68002 0.84048 0.0
C561 C 0.08929 0.60703 0.95328 0.0
C562 C 0.15042 0.65514 0.87851 0.0
N563 N 0.12324 0.63467 0.08907 0.0
N564 N 0.12405 0.61661 0.75384 0.0
H565 H 0.20093 0.70121 0.87313 0.0
H566 H 0.17797 0.68096 0.77579 0.0
H567 H 0.10347 0.59469 0.71787 0.0
H568 H 0.14778 0.62883 0.72848 0.0
H569 H 0.10447 0.61481 0.12244 0.0
H570 H 0.14578 0.65393 0.12725 0.0
H571 H 0.05507 0.58914 0.0465 0.0
H572 H 0.03662 0.56402 0.95237 0.0
C573 C 0.5118 0.13351 0.93638 0.0
C574 C 0.50591 0.12982 0.02094 0.0
C575 C 0.49089 0.06713 0.01647 0.0
C576 C 0.49595 0.07072 0.93131 0.0
N577 N 0.52502 0.11039 0.82249 0.0
N578 N 0.50351 0.0981 0.149 0.0
C579 C 0.51085 0.10497 0.89516 0.0
C580 C 0.49971 0.0981 0.06358 0.0
N581 N 0.51702 0.16365 0.89436 0.0
N582 N 0.47658 0.03426 0.05133 0.0
H583 H 0.51203 0.1212 0.18442 0.0
H584 H 0.50242 0.07676 0.18413 0.0
H585 H 0.47045 0.0113 0.01847 0.0
H586 H 0.46888 0.02961 0.11075 0.0
H587 H 0.51725 0.16584 0.82981 0.0
H588 H 0.51875 0.18559 0.92294 0.0
H589 H 0.53943 0.1356 0.79802 0.0
H590 H 0.52603 0.0903 0.79233 0.0
C591 C 0.35141 0.49427 0.90821 0.0
C592 C 0.35361 0.48584 0.99484 0.0
C593 C 0.3985 0.46936 0.9765 0.0
C594 C 0.39888 0.48097 0.89221 0.0
N595 N 0.37862 0.50832 0.78032 0.0
N596 N 0.38418 0.47147 0.11457 0.0
C597 C 0.37604 0.49444 0.85866 0.0
C598 C 0.37854 0.47507 0.02973 0.0
N599 N 0.32505 0.5011 0.87265 0.0
N600 N 0.41622 0.45149 0.00509 0.0
H601 H 0.37026 0.47542 0.15579 0.0
H602 H 0.40485 0.46778 0.14498 0.0
H603 H 0.43067 0.4463 0.968 0.0
H604 H 0.41375 0.4388 0.06238 0.0
H605 H 0.31947 0.5038 0.80844 0.0
H606 H 0.3068 0.50131 0.90677 0.0
H607 H 0.36551 0.5219 0.75486 0.0
H608 H 0.39607 0.50849 0.74288 0.0
C609 C 0.90005 0.31549 0.96329 0.0
C610 C 0.88286 0.32254 0.02094 0.0
C611 C 0.92097 0.38667 0.99891 0.0
C612 C 0.94254 0.37937 0.95432 0.0
N613 N 0.95691 0.33495 0.91936 0.0
N614 N 0.88133 0.36633 0.10376 0.0
C615 C 0.93344 0.34318 0.94442 0.0
C616 C 0.89496 0.35862 0.04264 0.0
N617 N 0.88416 0.28278 0.92413 0.0
N618 N 0.92256 0.41902 0.99415 0.0
H619 H 0.86187 0.34664 0.13613 0.0
H620 H 0.89182 0.3922 0.12734 0.0
H621 H 0.93771 0.43935 0.95582 0.0
H622 H 0.90497 0.42397 0.01976 0.0
H623 H 0.89488 0.27754 0.877 0.0
H624 H 0.85866 0.26236 0.93245 0.0
H625 H 0.95185 0.30876 0.91659 0.0
H626 H 0.98299 0.35433 0.91231 0.0
C627 C 0.91477 0.54352 0.92528 0.0
C628 C 0.87802 0.522 0.89325 0.0
C629 C 0.8937 0.49797 0.78253 0.0
C630 C 0.93038 0.52022 0.81419 0.0
N631 N 0.97529 0.57281 0.89486 0.0
N632 N 0.83288 0.48551 0.77951 0.0
C633 C 0.94063 0.54591 0.87866 0.0
C634 C 0.86755 0.50132 0.81789 0.0
N635 N 0.92516 0.56006 0.00256 0.0
N636 N 0.88377 0.47268 0.72163 0.0
H637 H 0.81325 0.4877 0.80348 0.0
H638 H 0.82431 0.47297 0.72047 0.0
H639 H 0.90225 0.47046 0.69268 0.0
H640 H 0.85741 0.45287 0.70291 0.0
H641 H 0.9516 0.57302 0.03203 0.0
H642 H 0.90718 0.55779 0.04116 0.0
H643 H 0.9839 0.59409 0.93662 0.0
H644 H 0.99438 0.57587 0.8589 0.0
C645 C 0.3764 0.84245 0.83632 0.0
C646 C 0.34362 0.84062 0.84289 0.0
C647 C 0.35501 0.8862 0.73689 0.0
C648 C 0.39101 0.89445 0.74839 0.0
N649 N 0.42974 0.86955 0.76882 0.0
N650 N 0.30015 0.85913 0.79655 0.0
C651 C 0.39977 0.86891 0.78539 0.0
C652 C 0.33201 0.86139 0.79075 0.0
N653 N 0.38571 0.82013 0.88202 0.0
N654 N 0.34243 0.90036 0.6721 0.0
H655 H 0.28219 0.84093 0.83436 0.0
H656 H 0.29257 0.87686 0.76775 0.0
H657 H 0.3576 0.91473 0.62539 0.0
H658 H 0.31566 0.8933 0.65749 0.0
H659 H 0.41082 0.82254 0.88777 0.0
H660 H 0.36824 0.79946 0.91663 0.0
H661 H 0.43714 0.85078 0.78987 0.0
H662 H 0.44536 0.88717 0.7261 0.0
C663 C 0.47765 0.35433 0.07259 0.0
C664 C 0.49372 0.33835 0.0344 0.0
C665 C 0.50779 0.38237 0.92357 0.0
C666 C 0.49038 0.39725 0.95981 0.0
N667 N 0.46511 0.40293 0.07553 0.0
N668 N 0.51792 0.33261 0.9157 0.0
C669 C 0.47708 0.38479 0.03635 0.0
C670 C 0.50739 0.35132 0.95798 0.0
N671 N 0.46141 0.33926 0.14128 0.0
N672 N 0.52564 0.39877 0.85748 0.0
H673 H 0.51762 0.30946 0.93841 0.0
H674 H 0.52419 0.33818 0.85506 0.0
H675 H 0.52689 0.42191 0.83152 0.0
H676 H 0.54197 0.39162 0.83333 0.0
H677 H 0.4443 0.34561 0.16436 0.0
H678 H 0.46373 0.31893 0.17346 0.0
H679 H 0.45731 0.39716 0.13469 0.0
H680 H 0.46582 0.42604 0.05134 0.0
C681 C 0.16309 0.52137 0.96757 0.0
C682 C 0.17923 0.50044 0.96207 0.0
C683 C 0.13767 0.4705 0.83461 0.0
C684 C 0.12034 0.48994 0.84571 0.0
N685 N 0.13277 0.54861 0.88466 0.0
N686 N 0.19213 0.46749 0.8711 0.0
C687 C 0.13925 0.52095 0.89828 0.0
C688 C 0.17026 0.47949 0.88809 0.0
N689 N 0.16768 0.53909 0.03995 0.0
N690 N 0.12305 0.44317 0.77681 0.0
H691 H 0.21608 0.47398 0.91003 0.0
H692 H 0.18813 0.45413 0.81523 0.0
H693 H 0.10154 0.4381 0.73087 0.0
H694 H 0.13247 0.42545 0.77493 0.0
H695 H 0.15394 0.55256 0.04572 0.0
H696 H 0.18188 0.53716 0.0962 0.0
H697 H 0.14717 0.57227 0.92076 0.0
H698 H 0.1159 0.54887 0.83151 0.0
C699 C 0.66357 0.13789 0.80479 0.0
C700 C 0.68602 0.12572 0.84894 0.0
C701 C 0.64659 0.0661 0.78426 0.0
C702 C 0.621 0.07648 0.75447 0.0
N703 N 0.6049 0.12208 0.72874 0.0
N704 N 0.70173 0.07997 0.87612 0.0
C705 C 0.62979 0.11261 0.76054 0.0
C706 C 0.67872 0.09045 0.83573 0.0
N707 N 0.67437 0.17345 0.8072 0.0
N708 N 0.63968 0.0328 0.76364 0.0
H709 H 0.72621 0.09787 0.91086 0.0
H710 H 0.69634 0.05368 0.87747 0.0
H711 H 0.6163 0.01485 0.72539 0.0
H712 H 0.65798 0.02398 0.77815 0.0
H713 H 0.66075 0.18474 0.77146 0.0
H714 H 0.69877 0.19233 0.84033 0.0
H715 H 0.60765 0.14687 0.73939 0.0
H716 H 0.58051 0.10438 0.69343 0.0
C717 C 0.57049 0.64779 0.91218 0.0
C718 C 0.5649 0.67266 0.86067 0.0
C719 C 0.55015 0.63653 0.73596 0.0
C720 C 0.55665 0.6118 0.78587 0.0
N721 N 0.57334 0.59298 0.91985 0.0
N722 N 0.56016 0.69662 0.72461 0.0
C723 C 0.56723 0.61726 0.8738 0.0
C724 C 0.55859 0.66902 0.7727 0.0
N725 N 0.57787 0.65314 0.99732 0.0
N726 N 0.53353 0.62784 0.6547 0.0
H727 H 0.56645 0.72098 0.75087 0.0
H728 H 0.55896 0.69668 0.65963 0.0
H729 H 0.52465 0.60315 0.62621 0.0
H730 H 0.52484 0.64344 0.61876 0.0
H731 H 0.58014 0.63523 0.03983 0.0
H732 H 0.58145 0.6759 0.02622 0.0
H733 H 0.58383 0.59634 0.98321 0.0
H734 H 0.56817 0.56911 0.89356 0.0
C735 C 0.49394 0.14586 0.48977 0.0
C736 C 0.48489 0.14537 0.40156 0.0
C737 C 0.47333 0.08375 0.39244 0.0
C738 C 0.48406 0.08518 0.48022 0.0
N739 N 0.51317 0.12026 0.60886 0.0
N740 N 0.46193 0.11309 0.26869 0.0
C741 C 0.4968 0.11702 0.52783 0.0
C742 C 0.47356 0.11407 0.35265 0.0
N743 N 0.49818 0.17319 0.5377 0.0
N744 N 0.46423 0.05386 0.34725 0.0
H745 H 0.46479 0.13557 0.23622 0.0
H746 H 0.44844 0.09003 0.23095 0.0
H747 H 0.46495 0.03204 0.37527 0.0
H748 H 0.45776 0.05094 0.28237 0.0
H749 H 0.5008 0.17298 0.60295 0.0
H750 H 0.49572 0.19463 0.51216 0.0
H751 H 0.52659 0.14422 0.64354 0.0
H752 H 0.51674 0.10005 0.63849 0.0
C753 C 0.36907 0.5085 0.39837 0.0
C754 C 0.33979 0.49315 0.4434 0.0
C755 C 0.37426 0.47786 0.55423 0.0
C756 C 0.40471 0.49764 0.51344 0.0
N757 N 0.43284 0.54354 0.41355 0.0
N758 N 0.31786 0.47158 0.57522 0.0
C759 C 0.40272 0.51698 0.44116 0.0
C760 C 0.34342 0.48063 0.52538 0.0
N761 N 0.36474 0.51395 0.31434 0.0
N762 N 0.37363 0.45471 0.61548 0.0
H763 H 0.2951 0.47363 0.55553 0.0
H764 H 0.32092 0.46487 0.63781 0.0
H765 H 0.39468 0.44977 0.63257 0.0
H766 H 0.35081 0.43784 0.64232 0.0
H767 H 0.3855 0.52314 0.27879 0.0
H768 H 0.33967 0.50497 0.27916 0.0
H769 H 0.43202 0.55963 0.3637 0.0
H770 H 0.45825 0.55203 0.44682 0.0
C771 C 0.87606 0.36822 0.46033 0.0
C772 C 0.88413 0.35742 0.38928 0.0
C773 C 0.9466 0.4057 0.41849 0.0
C774 C 0.93851 0.41619 0.48966 0.0
N775 N 0.89507 0.41267 0.57058 0.0
N776 N 0.92478 0.36894 0.29123 0.0
C777 C 0.90291 0.39935 0.50723 0.0
C778 C 0.91872 0.3773 0.36514 0.0
N779 N 0.84356 0.3473 0.4864 0.0
N780 N 0.98128 0.42188 0.40455 0.0
H781 H 0.90543 0.34738 0.25244 0.0
H782 H 0.94811 0.38457 0.26541 0.0
H783 H 0.00181 0.44384 0.4406 0.0
H784 H 0.99003 0.41288 0.36004 0.0
H785 H 0.83739 0.35129 0.54309 0.0
H786 H 0.82325 0.32401 0.45451 0.0
H787 H 0.8692 0.40416 0.58119 0.0
H788 H 0.91433 0.43473 0.60809 0.0
C789 C 0.53871 0.90274 0.19454 0.0
C790 C 0.50699 0.87168 0.21212 0.0
C791 C 0.48718 0.90864 0.26733 0.0
C792 C 0.52204 0.93833 0.26785 0.0
N793 N 0.57995 0.96585 0.22537 0.0
N794 N 0.45144 0.84431 0.26875 0.0
C795 C 0.54735 0.93613 0.22807 0.0
C796 C 0.48094 0.87437 0.24811 0.0
N797 N 0.56023 0.90021 0.1456 0.0
N798 N 0.46037 0.91315 0.28664 0.0
H799 H 0.44624 0.81854 0.25731 0.0
H800 H 0.43364 0.84487 0.3037 0.0
H801 H 0.46382 0.93815 0.29833 0.0
H802 H 0.4338 0.89277 0.2811 0.0
H803 H 0.58191 0.92225 0.12448 0.0
H804 H 0.55472 0.87607 0.11997 0.0
H805 H 0.6015 0.96549 0.20688 0.0
H806 H 0.58537 0.99101 0.244 0.0
C807 C 0.62763 0.50548 0.30393 0.0
C808 C 0.66496 0.52417 0.33112 0.0
C809 C 0.65416 0.53577 0.46854 0.0
C810 C 0.61673 0.51743 0.43919 0.0
N811 N 0.5709 0.4674 0.34992 0.0
N812 N 0.71324 0.54871 0.44709 0.0
C813 C 0.6042 0.49685 0.36327 0.0
C814 C 0.67822 0.53706 0.41586 0.0
N815 N 0.61426 0.49636 0.22112 0.0
N816 N 0.66657 0.55062 0.54768 0.0
H817 H 0.73127 0.54913 0.4112 0.0
H818 H 0.72393 0.55526 0.51006 0.0
H819 H 0.64989 0.54419 0.59298 0.0
H820 H 0.6933 0.56873 0.56875 0.0
H821 H 0.58709 0.48507 0.19834 0.0
H822 H 0.6305 0.50353 0.17448 0.0
H823 H 0.56183 0.45065 0.29697 0.0
H824 H 0.55514 0.45644 0.39749 0.0
C825 C 0.09814 0.6658 0.29486 0.0
C826 C 0.1327 0.6854 0.34287 0.0
C827 C 0.10953 0.65495 0.46916 0.0
C828 C 0.0745 0.63695 0.42272 0.0
N829 N 0.03419 0.62969 0.29587 0.0
N830 N 0.16921 0.70583 0.47821 0.0
C831 C 0.06839 0.64376 0.33677 0.0
C832 C 0.1377 0.68229 0.4309 0.0
N833 N 0.09392 0.66708 0.20926 0.0
N834 N 0.11658 0.64445 0.5479 0.0
H835 H 0.19042 0.72663 0.45226 0.0
H836 H 0.1729 0.70699 0.54357 0.0
H837 H 0.09734 0.62342 0.57803 0.0
H838 H 0.14239 0.6541 0.57992 0.0
H839 H 0.07023 0.65021 0.1707 0.0
H840 H 0.11483 0.68319 0.17595 0.0
H841 H 0.0278 0.6365 0.23539 0.0
H842 H 0.01193 0.6135 0.32531 0.0
loop_
_geom_bond_atom_site_label_1
_geom_bond_atom_site_label_2
_geom_bond_distance
_geom_bond_site_symmetry_2
_ccdc_geom_bond_type
C0 C1 1.443 . S
C0 N4 1.376 . S
C0 C38 1.389 . S
C1 C0 1.443 . S
C1 C2 1.340 . S
C1 H41 0.951 . S
C2 C1 1.340 . S
C2 C3 1.439 . S
C2 H42 0.950 . S
C3 C2 1.439 . S
C3 N4 1.374 . S
C3 C37 1.395 . S
N4 C0 1.376 . S
N4 C3 1.374 . S
N4 Co5 2.008 . S
Co5 N4 2.008 . S
Co5 N6 1.995 . S
Co5 N11 2.008 . S
Co5 N16 1.995 . S
Co5 N21 2.282 . S
Co5 N27 2.282 . S
N6 Co5 1.995 . S
N6 C7 1.376 . S
N6 C10 1.383 . S
C7 N6 1.376 . S
C7 C8 1.446 . S
C7 C37 1.391 . S
C8 C7 1.446 . S
C8 C9 1.339 . S
C8 H43 0.949 . S
C9 C8 1.339 . S
C9 C10 1.439 . S
C9 H44 0.950 . S
C10 N6 1.383 . S
C10 C9 1.439 . S
C10 C39 1.392 . S
N11 Co5 2.008 . S
N11 C12 1.376 . S
N11 C15 1.374 . S
C12 N11 1.376 . S
C12 C13 1.443 . S
C12 C39 1.389 . S
C13 C12 1.443 . S
C13 C14 1.340 . S
C13 H45 0.951 . S
C14 C13 1.340 . S
C14 C15 1.439 . S
C14 H46 0.950 . S
C15 N11 1.374 . S
C15 C14 1.439 . S
C15 C40 1.395 . S
N16 Co5 1.995 . S
N16 C17 1.376 . S
N16 C20 1.383 . S
C17 N16 1.376 . S
C17 C18 1.446 . S
C17 C40 1.391 . S
C18 C17 1.446 . S
C18 C19 1.339 . S
C18 H47 0.949 . S
C19 C18 1.339 . S
C19 C20 1.439 . S
C19 H48 0.950 . S
C20 N16 1.383 . S
C20 C19 1.439 . S
C20 C38 1.392 . S
N21 Co5 2.282 . S
N21 C24 1.332 . S
N21 C26 1.332 . S
C22 C23 1.386 . S
C22 C25 1.388 . S
C23 C22 1.386 . S
C23 C24 1.382 . S
C23 H49 0.950 . S
C24 N21 1.332 . S
C24 C23 1.382 . S
C24 H35 0.952 . S
C25 C22 1.388 . S
C25 C26 1.382 . S
C25 H50 0.950 . S
C26 N21 1.332 . S
C26 C25 1.382 . S
C26 H36 0.948 . S
N27 Co5 2.282 . S
N27 C31 1.332 . S
N27 C32 1.332 . S
C28 C29 1.388 . S
C28 C32 1.382 . S
C28 H51 0.950 . S
C29 C28 1.388 . S
C29 C30 1.386 . S
C30 C29 1.386 . S
C30 C31 1.382 . S
C30 H52 0.950 . S
C31 N27 1.332 . S
C31 C30 1.382 . S
C31 H33 0.952 . S
C32 N27 1.332 . S
C32 C28 1.382 . S
C32 H34 0.948 . S
H33 C31 0.952 . S
H34 C32 0.948 . S
H35 C24 0.952 . S
H36 C26 0.948 . S
C37 C3 1.395 . S
C37 C7 1.391 . S
C38 C0 1.389 . S
C38 C20 1.392 . S
C39 C10 1.392 . S
C39 C12 1.389 . S
C40 C15 1.395 . S
C40 C17 1.391 . S
H41 C1 0.951 . S
H42 C2 0.950 . S
H43 C8 0.949 . S
H44 C9 0.950 . S
H45 C13 0.951 . S
H46 C14 0.950 . S
H47 C18 0.949 . S
H48 C19 0.950 . S
H49 C23 0.950 . S
H50 C25 0.950 . S
H51 C28 0.950 . S
H52 C30 0.950 . S
C53 C54 1.443 . S
C53 N57 1.376 . S
C53 C91 1.389 . S
C54 C53 1.443 . S
C54 C55 1.340 . S
C54 H94 0.951 . S
C55 C54 1.340 . S
C55 C56 1.439 . S
C55 H95 0.950 . S
C56 C55 1.439 . S
C56 N57 1.374 . S
C56 C90 1.395 . S
N57 C53 1.376 . S
N57 C56 1.374 . S
N57 Co58 2.008 . S
Co58 N57 2.008 . S
Co58 N59 1.995 . S
Co58 N64 2.008 . S
Co58 N69 1.995 . S
Co58 N74 2.282 . S
Co58 N80 2.282 . S
N59 Co58 1.995 . S
N59 C60 1.376 . S
N59 C63 1.383 . S
C60 N59 1.376 . S
C60 C61 1.446 . S
C60 C90 1.391 . S
C61 C60 1.446 . S
C61 C62 1.339 . S
C61 H96 0.949 . S
C62 C61 1.339 . S
C62 C63 1.439 . S
C62 H97 0.950 . S
C63 N59 1.383 . S
C63 C62 1.439 . S
C63 C92 1.392 . S
N64 Co58 2.008 . S
N64 C65 1.376 . S
N64 C68 1.374 . S
C65 N64 1.376 . S
C65 C66 1.443 . S
C65 C92 1.389 . S
C66 C65 1.443 . S
C66 C67 1.340 . S
C66 H98 0.951 . S
C67 C66 1.340 . S
C67 C68 1.439 . S
C67 H99 0.950 . S
C68 N64 1.374 . S
C68 C67 1.439 . S
C68 C93 1.395 . S
N69 Co58 1.995 . S
N69 C70 1.376 . S
N69 C73 1.383 . S
C70 N69 1.376 . S
C70 C71 1.446 . S
C70 C93 1.391 . S
C71 C70 1.446 . S
C71 C72 1.339 . S
C71 H100 0.949 . S
C72 C71 1.339 . S
C72 C73 1.439 . S
C72 H101 0.950 . S
C73 N69 1.383 . S
C73 C72 1.439 . S
C73 C91 1.392 . S
N74 Co58 2.282 . S
N74 C77 1.332 . S
N74 C79 1.332 . S
C75 C76 1.386 . S
C75 C78 1.388 1_556 S
C76 C75 1.386 . S
C76 C77 1.382 1_556 S
C76 H102 0.950 . S
C77 N74 1.332 . S
C77 C76 1.382 1_554 S
C77 H88 0.952 . S
C78 C75 1.388 1_554 S
C78 C79 1.382 . S
C78 H103 0.950 . S
C79 N74 1.332 . S
C79 C78 1.382 . S
C79 H89 0.948 . S
N80 Co58 2.282 . S
N80 C84 1.332 . S
N80 C85 1.332 . S
C81 C82 1.388 . S
C81 C85 1.382 . S
C81 H104 0.950 . S
C82 C81 1.388 . S
C82 C83 1.386 . S
C83 C82 1.386 . S
C83 C84 1.382 . S
C83 H105 0.950 . S
C84 N80 1.332 . S
C84 C83 1.382 . S
C84 H86 0.952 . S
C85 N80 1.332 . S
C85 C81 1.382 . S
C85 H87 0.948 . S
H86 C84 0.952 . S
H87 C85 0.948 . S
H88 C77 0.952 . S
H89 C79 0.948 . S
C90 C56 1.395 . S
C90 C60 1.391 . S
C91 C53 1.389 . S
C91 C73 1.392 . S
C92 C63 1.392 . S
C92 C65 1.389 . S
C93 C68 1.395 . S
C93 C70 1.391 . S
H94 C54 0.951 . S
H95 C55 0.950 . S
H96 C61 0.949 . S
H97 C62 0.950 . S
H98 C66 0.951 . S
H99 C67 0.950 . S
H100 C71 0.949 . S
H101 C72 0.950 . S
H102 C76 0.950 . S
H103 C78 0.950 . S
H104 C81 0.950 . S
H105 C83 0.950 . S
C106 C107 1.443 . S
C106 N110 1.376 . S
C106 C144 1.389 . S
C107 C106 1.443 . S
C107 C108 1.340 . S
C107 H147 0.951 . S
C108 C107 1.340 . S
C108 C109 1.439 . S
C108 H148 0.950 . S
C109 C108 1.439 . S
C109 N110 1.374 . S
C109 C143 1.395 . S
N110 C106 1.376 . S
N110 C109 1.374 . S
N110 Co111 2.008 . S
Co111 N110 2.008 . S
Co111 N112 1.995 1_554 S
Co111 N117 2.008 1_554 S
Co111 N122 1.995 . S
Co111 N127 2.282 . S
Co111 N133 2.282 1_554 S
N112 Co111 1.995 1_556 S
N112 C113 1.376 . S
N112 C116 1.383 . S
C113 N112 1.376 . S
C113 C114 1.446 . S
C113 C143 1.391 1_556 S
C114 C113 1.446 . S
C114 C115 1.339 . S
C114 H149 0.949 . S
C115 C114 1.339 . S
C115 C116 1.439 . S
C115 H150 0.950 . S
C116 N112 1.383 . S
C116 C115 1.439 . S
C116 C145 1.392 . S
N117 Co111 2.008 1_556 S
N117 C118 1.376 . S
N117 C121 1.374 . S
C118 N117 1.376 . S
C118 C119 1.443 . S
C118 C145 1.389 . S
C119 C118 1.443 . S
C119 C120 1.340 . S
C119 H151 0.951 . S
C120 C119 1.340 . S
C120 C121 1.439 . S
C120 H152 0.950 . S
C121 N117 1.374 . S
C121 C120 1.439 . S
C121 C146 1.395 1_556 S
N122 Co111 1.995 . S
N122 C123 1.376 . S
N122 C126 1.383 . S
C123 N122 1.376 . S
C123 C124 1.446 . S
C123 C146 1.391 . S
C124 C123 1.446 . S
C124 C125 1.339 . S
C124 H153 0.949 . S
C125 C124 1.339 . S
C125 C126 1.439 . S
C125 H154 0.950 . S
C126 N122 1.383 . S
C126 C125 1.439 . S
C126 C144 1.392 . S
N127 Co111 2.282 . S
N127 C130 1.332 . S
N127 C132 1.332 . S
C128 C129 1.386 . S
C128 C131 1.388 . S
C129 C128 1.386 . S
C129 C130 1.382 . S
C129 H155 0.950 . S
C130 N127 1.332 . S
C130 C129 1.382 . S
C130 H141 0.952 . S
C131 C128 1.388 . S
C131 C132 1.382 . S
C131 H156 0.950 . S
C132 N127 1.332 . S
C132 C131 1.382 . S
C132 H142 0.948 . S
N133 Co111 2.282 1_556 S
N133 C137 1.332 . S
N133 C138 1.332 . S
C134 C135 1.388 . S
C134 C138 1.382 . S
C134 H157 0.950 . S
C135 C134 1.388 . S
C135 C136 1.386 . S
C136 C135 1.386 . S
C136 C137 1.382 . S
C136 H158 0.950 . S
C137 N133 1.332 . S
C137 C136 1.382 . S
C137 H139 0.952 . S
C138 N133 1.332 . S
C138 C134 1.382 . S
C138 H140 0.948 . S
H139 C137 0.952 . S
H140 C138 0.948 . S
H141 C130 0.952 . S
H142 C132 0.948 . S
C143 C109 1.395 . S
C143 C113 1.391 1_554 S
C144 C106 1.389 . S
C144 C126 1.392 . S
C145 C116 1.392 . S
C145 C118 1.389 . S
C146 C121 1.395 1_554 S
C146 C123 1.391 . S
H147 C107 0.951 . S
H148 C108 0.950 . S
H149 C114 0.949 . S
H150 C115 0.950 . S
H151 C119 0.951 . S
H152 C120 0.950 . S
H153 C124 0.949 . S
H154 C125 0.950 . S
H155 C129 0.950 . S
H156 C131 0.950 . S
H157 C134 0.950 . S
H158 C136 0.950 . S
C159 C160 1.443 . S
C159 N163 1.376 . S
C159 C197 1.389 . S
C160 C159 1.443 . S
C160 C161 1.340 . S
C160 H200 0.951 . S
C161 C160 1.340 . S
C161 C162 1.439 . S
C161 H201 0.950 . S
C162 C161 1.439 . S
C162 N163 1.374 . S
C162 C196 1.395 . S
N163 C159 1.376 . S
N163 C162 1.374 . S
N163 Co164 2.008 . S
Co164 N163 2.008 . S
Co164 N165 1.995 . S
Co164 N170 2.008 . S
Co164 N175 1.995 . S
Co164 N180 2.282 . S
Co164 N186 2.282 . S
N165 Co164 1.995 . S
N165 C166 1.376 . S
N165 C169 1.383 1_554 S
C166 N165 1.376 . S
C166 C167 1.446 1_554 S
C166 C196 1.391 . S
C167 C166 1.446 1_556 S
C167 C168 1.339 . S
C167 H202 0.949 . S
C168 C167 1.339 . S
C168 C169 1.439 . S
C168 H203 0.950 . S
C169 N165 1.383 1_556 S
C169 C168 1.439 . S
C169 C198 1.392 . S
N170 Co164 2.008 . S
N170 C171 1.376 1_554 S
N170 C174 1.374 . S
C171 N170 1.376 1_556 S
C171 C172 1.443 . S
C171 C198 1.389 . S
C172 C171 1.443 . S
C172 C173 1.334 1_556 S
C172 H204 0.951 . S
C173 C172 1.334 1_554 S
C173 C174 1.444 . S
C173 H205 0.951 1_554 S
C174 N170 1.374 . S
C174 C173 1.444 . S
C174 C199 1.395 . S
N175 Co164 1.995 . S
N175 C176 1.376 . S
N175 C179 1.383 . S
C176 N175 1.376 . S
C176 C177 1.446 . S
C176 C199 1.391 . S
C177 C176 1.446 . S
C177 C178 1.339 . S
C177 H206 0.949 . S
C178 C177 1.339 . S
C178 C179 1.439 . S
C178 H207 0.950 . S
C179 N175 1.383 . S
C179 C178 1.439 . S
C179 C197 1.392 . S
N180 Co164 2.282 . S
N180 C183 1.332 . S
N180 C185 1.332 . S
C181 C182 1.386 . S
C181 C184 1.388 . S
C182 C181 1.386 . S
C182 C183 1.382 . S
C182 H208 0.950 . S
C183 N180 1.332 . S
C183 C182 1.382 . S
C183 H194 0.952 . S
C184 C181 1.388 . S
C184 C185 1.382 . S
C184 H209 0.950 . S
C185 N180 1.332 . S
C185 C184 1.382 . S
C185 H195 0.948 . S
N186 Co164 2.282 . S
N186 C190 1.332 1_554 S
N186 C191 1.332 1_554 S
C187 C188 1.388 . S
C187 C191 1.382 . S
C187 H210 0.950 . S
C188 C187 1.388 . S
C188 C189 1.386 . S
C189 C188 1.386 . S
C189 C190 1.382 . S
C189 H211 0.950 . S
C190 N186 1.332 1_556 S
C190 C189 1.382 . S
C190 H192 0.952 . S
C191 N186 1.332 1_556 S
C191 C187 1.382 . S
C191 H193 0.948 1_556 S
H192 C190 0.952 . S
H193 C191 0.948 1_554 S
H194 C183 0.952 . S
H195 C185 0.948 . S
C196 C162 1.395 . S
C196 C166 1.391 . S
C197 C159 1.389 . S
C197 C179 1.392 . S
C198 C169 1.392 . S
C198 C171 1.389 . S
C199 C174 1.395 . S
C199 C176 1.391 . S
H200 C160 0.951 . S
H201 C161 0.950 . S
H202 C167 0.949 . S
H203 C168 0.950 . S
H204 C172 0.951 . S
H205 C173 0.951 1_556 S
H206 C177 0.949 . S
H207 C178 0.950 . S
H208 C182 0.950 . S
H209 C184 0.950 . S
H210 C187 0.950 . S
H211 C189 0.950 . S
C212 C213 1.443 . S
C212 N216 1.376 . S
C212 C250 1.389 . S
C213 C212 1.443 . S
C213 C214 1.340 . S
C213 H253 0.951 . S
C214 C213 1.340 . S
C214 C215 1.439 . S
C214 H254 0.950 . S
C215 C214 1.439 . S
C215 N216 1.374 . S
C215 C249 1.395 . S
N216 C212 1.376 . S
N216 C215 1.374 . S
N216 Co217 2.008 . S
Co217 N216 2.008 . S
Co217 N218 1.995 . S
Co217 N223 2.008 . S
Co217 N228 1.995 . S
Co217 N233 2.282 . S
Co217 N239 2.282 . S
N218 Co217 1.995 . S
N218 C219 1.376 . S
N218 C222 1.383 1_554 S
C219 N218 1.376 . S
C219 C220 1.446 1_554 S
C219 C249 1.391 . S
C220 C219 1.446 1_556 S
C220 C221 1.339 . S
C220 H255 0.949 . S
C221 C220 1.339 . S
C221 C222 1.439 . S
C221 H256 0.950 . S
C222 N218 1.383 1_556 S
C222 C221 1.439 . S
C222 C251 1.392 . S
N223 Co217 2.008 . S
N223 C224 1.376 . S
N223 C227 1.374 . S
C224 N223 1.376 . S
C224 C225 1.443 . S
C224 C251 1.389 1_554 S
C225 C224 1.443 . S
C225 C226 1.340 . S
C225 H257 0.951 1_554 S
C226 C225 1.340 . S
C226 C227 1.439 . S
C226 H258 0.950 . S
C227 N223 1.374 . S
C227 C226 1.439 . S
C227 C252 1.395 . S
N228 Co217 1.995 . S
N228 C229 1.376 . S
N228 C232 1.383 . S
C229 N228 1.376 . S
C229 C230 1.446 . S
C229 C252 1.391 . S
C230 C229 1.446 . S
C230 C231 1.339 . S
C230 H259 0.949 . S
C231 C230 1.339 . S
C231 C232 1.439 . S
C231 H260 0.950 . S
C232 N228 1.383 . S
C232 C231 1.439 . S
C232 C250 1.392 . S
N233 Co217 2.282 . S
N233 C236 1.332 . S
N233 C238 1.332 . S
C234 C235 1.386 . S
C234 C237 1.388 . S
C235 C234 1.386 . S
C235 C236 1.382 . S
C235 H261 0.950 . S
C236 N233 1.332 . S
C236 C235 1.382 . S
C236 H247 0.952 . S
C237 C234 1.388 . S
C237 C238 1.382 . S
C237 H262 0.950 . S
C238 N233 1.332 . S
C238 C237 1.382 . S
C238 H248 0.948 . S
N239 Co217 2.282 . S
N239 C243 1.332 1_554 S
N239 C244 1.332 . S
C240 C241 1.388 . S
C240 C244 1.382 1_556 S
C240 H263 0.950 . S
C241 C240 1.388 . S
C241 C242 1.386 . S
C242 C241 1.386 . S
C242 C243 1.382 . S
C242 H264 0.950 . S
C243 N239 1.332 1_556 S
C243 C242 1.382 . S
C243 H245 0.952 . S
C244 N239 1.332 . S
C244 C240 1.382 1_554 S
C244 H246 0.948 . S
H245 C243 0.952 . S
H246 C244 0.948 . S
H247 C236 0.952 . S
H248 C238 0.948 . S
C249 C215 1.395 . S
C249 C219 1.391 . S
C250 C212 1.389 . S
C250 C232 1.392 . S
C251 C222 1.392 . S
C251 C224 1.389 1_556 S
C252 C227 1.395 . S
C252 C229 1.391 . S
H253 C213 0.951 . S
H254 C214 0.950 . S
H255 C220 0.949 . S
H256 C221 0.950 . S
H257 C225 0.951 1_556 S
H258 C226 0.950 . S
H259 C230 0.949 . S
H260 C231 0.950 . S
H261 C235 0.950 . S
H262 C237 0.950 . S
H263 C240 0.950 . S
H264 C242 0.950 . S
C265 C266 1.443 . S
C265 N269 1.376 . S
C265 C303 1.389 . S
C266 C265 1.443 . S
C266 C267 1.340 . S
C266 H306 0.951 . S
C267 C266 1.340 . S
C267 C268 1.439 . S
C267 H307 0.950 . S
C268 C267 1.439 . S
C268 N269 1.374 . S
C268 C302 1.395 . S
N269 C265 1.376 . S
N269 C268 1.374 . S
N269 Co270 2.008 . S
Co270 N269 2.008 . S
Co270 N271 1.995 . S
Co270 N276 2.008 . S
Co270 N281 1.995 . S
Co270 N286 2.282 . S
Co270 N292 2.282 . S
N271 Co270 1.995 . S
N271 C272 1.376 . S
N271 C275 1.383 . S
C272 N271 1.376 . S
C272 C273 1.446 . S
C272 C302 1.391 . S
C273 C272 1.446 . S
C273 C274 1.339 . S
C273 H308 0.949 . S
C274 C273 1.339 . S
C274 C275 1.439 . S
C274 H309 0.950 . S
C275 N271 1.383 . S
C275 C274 1.439 . S
C275 C304 1.392 . S
N276 Co270 2.008 . S
N276 C277 1.376 . S
N276 C280 1.374 . S
C277 N276 1.376 . S
C277 C278 1.443 . S
C277 C304 1.389 . S
C278 C277 1.443 . S
C278 C279 1.340 . S
C278 H310 0.951 . S
C279 C278 1.340 . S
C279 C280 1.439 . S
C279 H311 0.950 . S
C280 N276 1.374 . S
C280 C279 1.439 . S
C280 C305 1.395 . S
N281 Co270 1.995 . S
N281 C282 1.376 . S
N281 C285 1.383 . S
C282 N281 1.376 . S
C282 C283 1.446 . S
C282 C305 1.391 . S
C283 C282 1.446 . S
C283 C284 1.339 . S
C283 H312 0.949 . S
C284 C283 1.339 . S
C284 C285 1.439 . S
C284 H313 0.950 . S
C285 N281 1.383 . S
C285 C284 1.439 . S
C285 C303 1.392 . S
N286 Co270 2.282 . S
N286 C289 1.332 . S
N286 C291 1.332 . S
C287 C288 1.386 . S
C287 C290 1.388 . S
C288 C287 1.386 . S
C288 C289 1.382 . S
C288 H314 0.950 . S
C289 N286 1.332 . S
C289 C288 1.382 . S
C289 H300 0.952 . S
C290 C287 1.388 . S
C290 C291 1.382 . S
C290 H315 0.950 . S
C291 N286 1.332 . S
C291 C290 1.382 . S
C291 H301 0.948 . S
N292 Co270 2.282 . S
N292 C296 1.332 . S
N292 C297 1.332 . S
C293 C294 1.388 . S
C293 C297 1.382 . S
C293 H316 0.950 . S
C294 C293 1.388 . S
C294 C295 1.386 . S
C295 C294 1.386 . S
C295 C296 1.382 . S
C295 H317 0.950 . S
C296 N292 1.332 . S
C296 C295 1.382 . S
C296 H298 0.952 . S
C297 N292 1.332 . S
C297 C293 1.382 . S
C297 H299 0.948 . S
H298 C296 0.952 . S
H299 C297 0.948 . S
H300 C289 0.952 . S
H301 C291 0.948 . S
C302 C268 1.395 . S
C302 C272 1.391 . S
C303 C265 1.389 . S
C303 C285 1.392 . S
C304 C275 1.392 . S
C304 C277 1.389 . S
C305 C280 1.395 . S
C305 C282 1.391 . S
H306 C266 0.951 . S
H307 C267 0.950 . S
H308 C273 0.949 . S
H309 C274 0.950 . S
H310 C278 0.951 . S
H311 C279 0.950 . S
H312 C283 0.949 . S
H313 C284 0.950 . S
H314 C288 0.950 . S
H315 C290 0.950 . S
H316 C293 0.950 . S
H317 C295 0.950 . S
C318 O330 1.241 . S
C318 O331 1.280 . S
C319 O332 1.277 . S
C319 O333 1.245 . S
C320 O344 1.247 . S
C320 O346 1.289 . S
Mg321 O322 1.933 1_655 S
Mg321 O331 1.993 . S
Mg321 O333 1.977 1_655 S
Mg321 O334 2.067 . S
O322 Mg321 1.933 1_455 S
O322 Mg323 1.986 . S
O322 Mg324 1.917 . S
Mg323 O322 1.986 . S
Mg323 O330 2.042 1_455 S
Mg323 O332 2.041 . S
Mg323 O338 2.038 1_455 S
Mg323 O346 2.238 . S
Mg324 O322 1.917 . S
Mg324 O325 1.917 . S
Mg324 O335 2.106 1_455 S
Mg324 O337 2.079 1_455 S
Mg324 O346 2.106 . S
Mg324 O347 2.079 . S
O325 Mg324 1.917 . S
O325 Mg326 1.926 . S
O325 Mg327 1.986 . S
Mg326 O325 1.926 . S
Mg326 O340 1.984 . S
Mg326 O343 1.988 1_455 S
Mg326 O344 2.061 . S
Mg327 O325 1.986 . S
Mg327 O335 2.238 1_455 S
Mg327 O339 2.042 . S
Mg327 O341 2.041 1_455 S
Mg327 O348 2.038 . S
C328 O334 1.247 . S
C328 O335 1.289 . S
C329 O347 1.245 . S
C329 O348 1.274 . S
O330 C318 1.241 . S
O330 Mg323 2.042 1_655 S
O331 C318 1.280 . S
O331 Mg321 1.993 . S
O332 C319 1.277 . S
O332 Mg323 2.041 . S
O333 C319 1.245 . S
O333 Mg321 1.977 1_455 S
O334 Mg321 2.067 . S
O334 C328 1.247 . S
O335 Mg324 2.106 1_655 S
O335 Mg327 2.238 1_655 S
O335 C328 1.289 . S
C336 O337 1.245 . S
C336 O338 1.274 . S
O337 Mg324 2.079 1_655 S
O337 C336 1.245 . S
O338 Mg323 2.038 1_655 S
O338 C336 1.274 . S
O339 Mg327 2.042 . S
O339 C342 1.241 . S
O340 Mg326 1.984 . S
O340 C342 1.280 . S
O341 Mg327 2.041 1_655 S
O341 C345 1.277 . S
C342 O339 1.241 . S
C342 O340 1.280 . S
O343 Mg326 1.988 1_655 S
O343 C345 1.245 . S
O344 C320 1.247 . S
O344 Mg326 2.061 . S
C345 O341 1.277 . S
C345 O343 1.245 . S
O346 C320 1.289 . S
O346 Mg323 2.238 . S
O346 Mg324 2.106 . S
O347 Mg324 2.079 . S
O347 C329 1.245 . S
O348 Mg327 2.038 . S
O348 C329 1.274 . S
C349 O361 1.241 . S
C349 O362 1.280 . S
C350 O363 1.277 . S
C350 O364 1.245 . S
C351 O375 1.247 . S
C351 O377 1.289 . S
Mg352 O353 1.926 . S
Mg352 O362 1.984 . S
Mg352 O364 1.988 1_545 S
Mg352 O365 2.061 . S
O353 Mg352 1.926 . S
O353 Mg354 1.980 1_545 S
O353 Mg355 1.917 . S
Mg354 O353 1.980 1_565 S
Mg354 O361 2.029 1_565 S
Mg354 O363 2.046 . S
Mg354 O369 2.034 1_565 S
Mg354 O377 2.249 . S
Mg355 O353 1.917 . S
Mg355 O356 1.917 1_545 S
Mg355 O366 2.106 . S
Mg355 O368 2.079 . S
Mg355 O377 2.106 1_545 S
Mg355 O378 2.079 1_545 S
O356 Mg355 1.917 1_565 S
O356 Mg357 1.926 . S
O356 Mg358 1.986 1_565 S
Mg357 O356 1.926 . S
Mg357 O371 1.984 . S
Mg357 O374 1.988 1_565 S
Mg357 O375 2.061 . S
Mg358 O356 1.986 1_545 S
Mg358 O366 2.238 . S
Mg358 O370 2.042 1_545 S
Mg358 O372 2.041 . S
Mg358 O379 2.038 1_545 S
C359 O365 1.247 . S
C359 O366 1.289 . S
C360 O378 1.245 . S
C360 O379 1.274 . S
O361 C349 1.241 . S
O361 Mg354 2.029 1_545 S
O362 C349 1.280 . S
O362 Mg352 1.984 . S
O363 C350 1.277 . S
O363 Mg354 2.046 . S
O364 C350 1.245 . S
O364 Mg352 1.988 1_565 S
O365 Mg352 2.061 . S
O365 C359 1.247 . S
O366 Mg355 2.106 . S
O366 Mg358 2.238 . S
O366 C359 1.289 . S
C367 O368 1.245 . S
C367 O369 1.274 . S
O368 Mg355 2.079 . S
O368 C367 1.245 . S
O369 Mg354 2.034 1_545 S
O369 C367 1.274 . S
O370 Mg358 2.042 1_565 S
O370 C373 1.241 . S
O371 Mg357 1.984 . S
O371 C373 1.280 . S
O372 Mg358 2.041 . S
O372 C376 1.277 . S
C373 O370 1.241 . S
C373 O371 1.280 . S
O374 Mg357 1.988 1_545 S
O374 C376 1.245 . S
O375 C351 1.247 . S
O375 Mg357 2.061 . S
C376 O372 1.277 . S
C376 O374 1.245 . S
O377 C351 1.289 . S
O377 Mg354 2.249 . S
O377 Mg355 2.106 1_565 S
O378 Mg355 2.079 1_565 S
O378 C360 1.245 . S
O379 Mg358 2.038 1_565 S
O379 C360 1.274 . S
C380 O392 1.241 . S
C380 O393 1.280 . S
C381 O394 1.277 . S
C381 O395 1.245 . S
C382 O406 1.247 . S
C382 O408 1.289 . S
Mg383 O384 1.926 . S
Mg383 O393 1.984 . S
Mg383 O395 1.988 . S
Mg383 O396 2.061 . S
O384 Mg383 1.926 . S
O384 Mg385 1.986 . S
O384 Mg386 1.917 . S
Mg385 O384 1.986 . S
Mg385 O392 2.042 . S
Mg385 O394 2.041 . S
Mg385 O400 2.038 . S
Mg385 O408 2.238 . S
Mg386 O384 1.917 . S
Mg386 O387 1.917 . S
Mg386 O397 2.106 . S
Mg386 O399 2.079 . S
Mg386 O408 2.106 . S
Mg386 O409 2.079 . S
O387 Mg386 1.917 . S
O387 Mg388 1.926 . S
O387 Mg389 1.986 . S
Mg388 O387 1.926 . S
Mg388 O402 1.984 . S
Mg388 O405 1.988 . S
Mg388 O406 2.061 . S
Mg389 O387 1.986 . S
Mg389 O397 2.238 . S
Mg389 O401 2.042 . S
Mg389 O403 2.041 . S
Mg389 O410 2.038 . S
C390 O396 1.247 . S
C390 O397 1.289 . S
C391 O409 1.245 . S
C391 O410 1.274 . S
O392 C380 1.241 . S
O392 Mg385 2.042 . S
O393 C380 1.280 . S
O393 Mg383 1.984 . S
O394 C381 1.277 . S
O394 Mg385 2.041 . S
O395 C381 1.245 . S
O395 Mg383 1.988 . S
O396 Mg383 2.061 . S
O396 C390 1.247 . S
O397 Mg386 2.106 . S
O397 Mg389 2.238 . S
O397 C390 1.289 . S
C398 O399 1.245 . S
C398 O400 1.274 . S
O399 Mg386 2.079 . S
O399 C398 1.245 . S
O400 Mg385 2.038 . S
O400 C398 1.274 . S
O401 Mg389 2.042 . S
O401 C404 1.241 . S
O402 Mg388 1.984 . S
O402 C404 1.280 . S
O403 Mg389 2.041 . S
O403 C407 1.277 . S
C404 O401 1.241 . S
C404 O402 1.280 . S
O405 Mg388 1.988 . S
O405 C407 1.245 . S
O406 C382 1.247 . S
O406 Mg388 2.061 . S
C407 O403 1.277 . S
C407 O405 1.245 . S
O408 C382 1.289 . S
O408 Mg385 2.238 . S
O408 Mg386 2.106 . S
O409 Mg386 2.079 . S
O409 C391 1.245 . S
O410 Mg389 2.038 . S
O410 C391 1.274 . S
C411 C412 1.363 . S
C411 C417 1.379 . S
C411 N419 1.356 . S
C412 C411 1.363 . S
C412 C418 1.363 . S
C413 C414 1.363 . S
C413 C418 1.379 . S
C413 N420 1.356 . S
C414 C413 1.363 . S
C414 C417 1.363 . S
N415 C417 1.356 . S
N415 H427 0.984 . S
N415 H428 0.985 . S
N416 C418 1.356 . S
N416 H421 0.984 . S
N416 H422 0.985 . S
C417 C411 1.379 . S
C417 C414 1.363 . S
C417 N415 1.356 . S
C418 C412 1.363 . S
C418 C413 1.379 . S
C418 N416 1.356 . S
N419 C411 1.356 . S
N419 H425 0.984 . S
N419 H426 0.984 . S
N420 C413 1.356 . S
N420 H423 0.984 . S
N420 H424 0.985 . S
H421 N416 0.984 . S
H422 N416 0.985 . S
H423 N420 0.984 . S
H424 N420 0.985 . S
H425 N419 0.984 . S
H426 N419 0.984 . S
H427 N415 0.984 . S
H428 N415 0.985 . S
C429 C430 1.363 . S
C429 C435 1.379 . S
C429 N437 1.356 . S
C430 C429 1.363 . S
C430 C436 1.363 . S
C431 C432 1.363 . S
C431 C436 1.379 . S
C431 N438 1.356 . S
C432 C431 1.363 . S
C432 C435 1.363 . S
N433 C435 1.356 . S
N433 H445 0.984 . S
N433 H446 0.985 . S
N434 C436 1.356 . S
N434 H439 0.984 . S
N434 H440 0.985 . S
C435 C429 1.379 . S
C435 C432 1.363 . S
C435 N433 1.356 . S
C436 C430 1.363 . S
C436 C431 1.379 . S
C436 N434 1.356 . S
N437 C429 1.356 . S
N437 H443 0.984 . S
N437 H444 0.984 . S
N438 C431 1.356 . S
N438 H441 0.984 . S
N438 H442 0.985 . S
H439 N434 0.984 . S
H440 N434 0.985 . S
H441 N438 0.984 . S
H442 N438 0.985 . S
H443 N437 0.984 . S
H444 N437 0.984 . S
H445 N433 0.984 . S
H446 N433 0.985 . S
C447 C448 1.363 . S
C447 C453 1.379 . S
C447 N455 1.356 . S
C448 C447 1.363 . S
C448 C454 1.363 . S
C449 C450 1.363 . S
C449 C454 1.379 . S
C449 N456 1.356 . S
C450 C449 1.363 . S
C450 C453 1.363 . S
N451 C453 1.356 . S
N451 H463 0.984 . S
N451 H464 0.985 . S
N452 C454 1.356 . S
N452 H457 0.984 . S
N452 H458 0.985 . S
C453 C447 1.379 . S
C453 C450 1.363 . S
C453 N451 1.356 . S
C454 C448 1.363 . S
C454 C449 1.379 . S
C454 N452 1.356 . S
N455 C447 1.356 . S
N455 H461 0.984 . S
N455 H462 0.984 . S
N456 C449 1.356 . S
N456 H459 0.984 . S
N456 H460 0.985 . S
H457 N452 0.984 . S
H458 N452 0.985 . S
H459 N456 0.984 . S
H460 N456 0.985 . S
H461 N455 0.984 . S
H462 N455 0.984 . S
H463 N451 0.984 . S
H464 N451 0.985 . S
C465 C466 1.363 . S
C465 C471 1.379 . S
C465 N473 1.356 . S
C466 C465 1.363 . S
C466 C472 1.363 . S
C467 C468 1.363 . S
C467 C472 1.379 . S
C467 N474 1.356 . S
C468 C467 1.363 . S
C468 C471 1.363 . S
N469 C471 1.356 . S
N469 H481 0.984 . S
N469 H482 0.985 . S
N470 C472 1.356 . S
N470 H475 0.984 . S
N470 H476 0.985 . S
C471 C465 1.379 . S
C471 C468 1.363 . S
C471 N469 1.356 . S
C472 C466 1.363 . S
C472 C467 1.379 . S
C472 N470 1.356 . S
N473 C465 1.356 . S
N473 H479 0.984 . S
N473 H480 0.984 . S
N474 C467 1.356 . S
N474 H477 0.984 . S
N474 H478 0.985 . S
H475 N470 0.984 . S
H476 N470 0.985 . S
H477 N474 0.984 . S
H478 N474 0.985 . S
H479 N473 0.984 . S
H480 N473 0.984 . S
H481 N469 0.984 . S
H482 N469 0.985 . S
C483 C484 1.363 . S
C483 C489 1.379 . S
C483 N491 1.356 . S
C484 C483 1.363 . S
C484 C490 1.363 . S
C485 C486 1.363 . S
C485 C490 1.379 . S
C485 N492 1.356 . S
C486 C485 1.363 . S
C486 C489 1.363 . S
N487 C489 1.356 . S
N487 H499 0.984 . S
N487 H500 0.985 . S
N488 C490 1.356 . S
N488 H493 0.984 . S
N488 H494 0.985 . S
C489 C483 1.379 . S
C489 C486 1.363 . S
C489 N487 1.356 . S
C490 C484 1.363 . S
C490 C485 1.379 . S
C490 N488 1.356 . S
N491 C483 1.356 . S
N491 H497 0.984 . S
N491 H498 0.984 . S
N492 C485 1.356 . S
N492 H495 0.984 . S
N492 H496 0.985 . S
H493 N488 0.984 . S
H494 N488 0.985 . S
H495 N492 0.984 . S
H496 N492 0.985 . S
H497 N491 0.984 . S
H498 N491 0.984 . S
H499 N487 0.984 . S
H500 N487 0.985 . S
C501 C502 1.363 . S
C501 C507 1.379 . S
C501 N509 1.356 . S
C502 C501 1.363 . S
C502 C508 1.363 . S
C503 C504 1.363 . S
C503 C508 1.379 . S
C503 N510 1.356 . S
C504 C503 1.363 . S
C504 C507 1.363 . S
N505 C507 1.356 . S
N505 H517 0.984 . S
N505 H518 0.985 . S
N506 C508 1.356 . S
N506 H511 0.984 . S
N506 H512 0.985 . S
C507 C501 1.379 . S
C507 C504 1.363 . S
C507 N505 1.356 . S
C508 C502 1.363 . S
C508 C503 1.379 . S
C508 N506 1.356 . S
N509 C501 1.356 . S
N509 H515 0.984 . S
N509 H516 0.984 . S
N510 C503 1.356 . S
N510 H513 0.984 . S
N510 H514 0.985 . S
H511 N506 0.984 . S
H512 N506 0.985 . S
H513 N510 0.984 . S
H514 N510 0.985 . S
H515 N509 0.984 . S
H516 N509 0.984 . S
H517 N505 0.984 . S
H518 N505 0.985 . S
C519 C520 1.363 . S
C519 C525 1.379 . S
C519 N527 1.356 . S
C520 C519 1.363 . S
C520 C526 1.363 . S
C521 C522 1.363 . S
C521 C526 1.379 . S
C521 N528 1.356 . S
C522 C521 1.363 . S
C522 C525 1.363 . S
N523 C525 1.356 . S
N523 H535 0.984 . S
N523 H536 0.985 . S
N524 C526 1.356 . S
N524 H529 0.984 . S
N524 H530 0.985 . S
C525 C519 1.379 . S
C525 C522 1.363 . S
C525 N523 1.356 . S
C526 C520 1.363 . S
C526 C521 1.379 . S
C526 N524 1.356 . S
N527 C519 1.356 . S
N527 H533 0.984 . S
N527 H534 0.984 . S
N528 C521 1.356 . S
N528 H531 0.984 . S
N528 H532 0.985 . S
H529 N524 0.984 . S
H530 N524 0.985 . S
H531 N528 0.984 . S
H532 N528 0.985 . S
H533 N527 0.984 . S
H534 N527 0.984 . S
H535 N523 0.984 . S
H536 N523 0.985 . S
C537 C538 1.363 . S
C537 C543 1.379 . S
C537 N545 1.356 . S
C538 C537 1.363 . S
C538 C544 1.363 . S
C539 C540 1.363 . S
C539 C544 1.379 . S
C539 N546 1.356 . S
C540 C539 1.363 . S
C540 C543 1.363 . S
N541 C543 1.356 . S
N541 H553 0.984 . S
N541 H554 0.985 . S
N542 C544 1.356 . S
N542 H547 0.984 1_556 S
N542 H548 0.985 1_556 S
C543 C537 1.379 . S
C543 C540 1.363 . S
C543 N541 1.356 . S
C544 C538 1.363 . S
C544 C539 1.379 . S
C544 N542 1.356 . S
N545 C537 1.356 . S
N545 H551 0.984 . S
N545 H552 0.984 . S
N546 C539 1.356 . S
N546 H549 0.984 . S
N546 H550 0.985 . S
H547 N542 0.984 1_554 S
H548 N542 0.985 1_554 S
H549 N546 0.984 . S
H550 N546 0.985 . S
H551 N545 0.984 . S
H552 N545 0.984 . S
H553 N541 0.984 . S
H554 N541 0.985 . S
C555 C556 1.363 . S
C555 C561 1.379 . S
C555 N563 1.356 1_556 S
C556 C555 1.363 . S
C556 C562 1.363 . S
C557 C558 1.363 . S
C557 C562 1.379 . S
C557 N564 1.356 . S
C558 C557 1.363 . S
C558 C561 1.363 . S
N559 C561 1.356 . S
N559 H571 0.984 . S
N559 H572 0.985 . S
N560 C562 1.356 . S
N560 H565 0.984 . S
N560 H566 0.985 . S
C561 C555 1.379 . S
C561 C558 1.363 . S
C561 N559 1.356 . S
C562 C556 1.363 . S
C562 C557 1.379 . S
C562 N560 1.356 . S
N563 C555 1.356 1_554 S
N563 H569 0.984 . S
N563 H570 0.984 . S
N564 C557 1.356 . S
N564 H567 0.984 . S
N564 H568 0.985 . S
H565 N560 0.984 . S
H566 N560 0.985 . S
H567 N564 0.984 . S
H568 N564 0.985 . S
H569 N563 0.984 . S
H570 N563 0.984 . S
H571 N559 0.984 . S
H572 N559 0.985 . S
C573 C574 1.363 . S
C573 C579 1.379 . S
C573 N581 1.356 . S
C574 C573 1.363 . S
C574 C580 1.363 . S
C575 C576 1.363 . S
C575 C580 1.379 . S
C575 N582 1.356 . S
C576 C575 1.363 . S
C576 C579 1.363 . S
N577 C579 1.356 . S
N577 H589 0.984 . S
N577 H590 0.985 . S
N578 C580 1.356 1_554 S
N578 H583 0.984 . S
N578 H584 0.985 . S
C579 C573 1.379 . S
C579 C576 1.363 . S
C579 N577 1.356 . S
C580 C574 1.363 . S
C580 C575 1.379 . S
C580 N578 1.356 1_556 S
N581 C573 1.356 . S
N581 H587 0.984 . S
N581 H588 0.984 . S
N582 C575 1.356 . S
N582 H585 0.984 . S
N582 H586 0.985 . S
H583 N578 0.984 . S
H584 N578 0.985 . S
H585 N582 0.984 . S
H586 N582 0.985 . S
H587 N581 0.984 . S
H588 N581 0.984 . S
H589 N577 0.984 . S
H590 N577 0.985 . S
C591 C592 1.363 . S
C591 C597 1.379 . S
C591 N599 1.356 . S
C592 C591 1.363 . S
C592 C598 1.363 . S
C593 C594 1.363 . S
C593 C598 1.379 . S
C593 N600 1.356 . S
C594 C593 1.363 . S
C594 C597 1.363 . S
N595 C597 1.356 . S
N595 H607 0.984 . S
N595 H608 0.985 . S
N596 C598 1.356 1_554 S
N596 H601 0.984 . S
N596 H602 0.985 . S
C597 C591 1.379 . S
C597 C594 1.363 . S
C597 N595 1.356 . S
C598 C592 1.363 . S
C598 C593 1.379 . S
C598 N596 1.356 1_556 S
N599 C591 1.356 . S
N599 H605 0.984 . S
N599 H606 0.984 . S
N600 C593 1.356 . S
N600 H603 0.984 . S
N600 H604 0.985 . S
H601 N596 0.984 . S
H602 N596 0.985 . S
H603 N600 0.984 . S
H604 N600 0.985 . S
H605 N599 0.984 . S
H606 N599 0.984 . S
H607 N595 0.984 . S
H608 N595 0.985 . S
C609 C610 1.363 1_556 S
C609 C615 1.379 . S
C609 N617 1.356 . S
C610 C609 1.363 1_554 S
C610 C616 1.363 . S
C611 C612 1.363 1_554 S
C611 C616 1.379 . S
C611 N618 1.356 . S
C612 C611 1.363 1_556 S
C612 C615 1.363 . S
N613 C615 1.356 . S
N613 H625 0.984 . S
N613 H626 0.985 . S
N614 C616 1.356 . S
N614 H619 0.984 . S
N614 H620 0.985 . S
C615 C609 1.379 . S
C615 C612 1.363 . S
C615 N613 1.356 . S
C616 C610 1.363 . S
C616 C611 1.379 . S
C616 N614 1.356 . S
N617 C609 1.356 . S
N617 H623 0.984 . S
N617 H624 0.984 . S
N618 C611 1.356 . S
N618 H621 0.984 1_554 S
N618 H622 0.985 . S
H619 N614 0.984 . S
H620 N614 0.985 . S
H621 N618 0.984 1_556 S
H622 N618 0.985 . S
H623 N617 0.984 . S
H624 N617 0.984 . S
H625 N613 0.984 . S
H626 N613 0.985 . S
C627 C628 1.363 . S
C627 C633 1.379 . S
C627 N635 1.356 . S
C628 C627 1.363 . S
C628 C634 1.363 . S
C629 C630 1.363 . S
C629 C634 1.379 . S
C629 N636 1.356 . S
C630 C629 1.363 . S
C630 C633 1.363 . S
N631 C633 1.356 . S
N631 H643 0.984 1_655 S
N631 H644 0.985 . S
N632 C634 1.356 . S
N632 H637 0.984 . S
N632 H638 0.985 . S
C633 C627 1.379 . S
C633 C630 1.363 . S
C633 N631 1.356 . S
C634 C628 1.363 . S
C634 C629 1.379 . S
C634 N632 1.356 . S
N635 C627 1.356 . S
N635 H641 0.984 . S
N635 H642 0.984 . S
N636 C629 1.356 . S
N636 H639 0.984 . S
N636 H640 0.985 . S
H637 N632 0.984 . S
H638 N632 0.985 . S
H639 N636 0.984 . S
H640 N636 0.985 . S
H641 N635 0.984 . S
H642 N635 0.984 . S
H643 N631 0.984 1_455 S
H644 N631 0.985 . S
C645 C646 1.363 . S
C645 C651 1.379 . S
C645 N653 1.356 . S
C646 C645 1.363 . S
C646 C652 1.363 . S
C647 C648 1.363 . S
C647 C652 1.379 . S
C647 N654 1.356 . S
C648 C647 1.363 . S
C648 C651 1.363 . S
N649 C651 1.356 . S
N649 H661 0.984 . S
N649 H662 0.985 . S
N650 C652 1.356 . S
N650 H655 0.984 . S
N650 H656 0.985 . S
C651 C645 1.379 . S
C651 C648 1.363 . S
C651 N649 1.356 . S
C652 C646 1.363 . S
C652 C647 1.379 . S
C652 N650 1.356 . S
N653 C645 1.356 . S
N653 H659 0.984 . S
N653 H660 0.984 . S
N654 C647 1.356 . S
N654 H657 0.984 . S
N654 H658 0.985 . S
H655 N650 0.984 . S
H656 N650 0.985 . S
H657 N654 0.984 . S
H658 N654 0.985 . S
H659 N653 0.984 . S
H660 N653 0.984 . S
H661 N649 0.984 . S
H662 N649 0.985 . S
C663 C664 1.363 . S
C663 C669 1.379 . S
C663 N671 1.356 . S
C664 C663 1.363 . S
C664 C670 1.363 1_554 S
C665 C666 1.363 . S
C665 C670 1.379 . S
C665 N672 1.356 . S
C666 C665 1.363 . S
C666 C669 1.363 1_556 S
N667 C669 1.356 . S
N667 H679 0.984 . S
N667 H680 0.985 1_554 S
N668 C670 1.356 . S
N668 H673 0.984 1_556 S
N668 H674 0.985 . S
C669 C663 1.379 . S
C669 C666 1.363 1_554 S
C669 N667 1.356 . S
C670 C664 1.363 1_556 S
C670 C665 1.379 . S
C670 N668 1.356 . S
N671 C663 1.356 . S
N671 H677 0.984 . S
N671 H678 0.984 . S
N672 C665 1.356 . S
N672 H675 0.984 . S
N672 H676 0.985 . S
H673 N668 0.984 1_554 S
H674 N668 0.985 . S
H675 N672 0.984 . S
H676 N672 0.985 . S
H677 N671 0.984 . S
H678 N671 0.984 . S
H679 N667 0.984 . S
H680 N667 0.985 1_556 S
C681 C682 1.363 . S
C681 C687 1.379 1_554 S
C681 N689 1.356 . S
C682 C681 1.363 . S
C682 C688 1.363 1_554 S
C683 C684 1.363 . S
C683 C688 1.379 . S
C683 N690 1.356 . S
C684 C683 1.363 . S
C684 C687 1.363 . S
N685 C687 1.356 . S
N685 H697 0.984 1_556 S
N685 H698 0.985 . S
N686 C688 1.356 . S
N686 H691 0.984 1_556 S
N686 H692 0.985 . S
C687 C681 1.379 1_556 S
C687 C684 1.363 . S
C687 N685 1.356 . S
C688 C682 1.363 1_556 S
C688 C683 1.379 . S
C688 N686 1.356 . S
N689 C681 1.356 . S
N689 H695 0.984 . S
N689 H696 0.984 . S
N690 C683 1.356 . S
N690 H693 0.984 . S
N690 H694 0.985 . S
H691 N686 0.984 1_554 S
H692 N686 0.985 . S
H693 N690 0.984 . S
H694 N690 0.985 . S
H695 N689 0.984 . S
H696 N689 0.984 . S
H697 N685 0.984 1_554 S
H698 N685 0.985 . S
C699 C700 1.363 . S
C699 C705 1.379 . S
C699 N707 1.356 . S
C700 C699 1.363 . S
C700 C706 1.363 . S
C701 C702 1.363 . S
C701 C706 1.379 . S
C701 N708 1.356 . S
C702 C701 1.363 . S
C702 C705 1.363 . S
N703 C705 1.356 . S
N703 H715 0.984 . S
N703 H716 0.985 . S
N704 C706 1.356 . S
N704 H709 0.984 . S
N704 H710 0.985 . S
C705 C699 1.379 . S
C705 C702 1.363 . S
C705 N703 1.356 . S
C706 C700 1.363 . S
C706 C701 1.379 . S
C706 N704 1.356 . S
N707 C699 1.356 . S
N707 H713 0.984 . S
N707 H714 0.984 . S
N708 C701 1.356 . S
N708 H711 0.984 . S
N708 H712 0.985 . S
H709 N704 0.984 . S
H710 N704 0.985 . S
H711 N708 0.984 . S
H712 N708 0.985 . S
H713 N707 0.984 . S
H714 N707 0.984 . S
H715 N703 0.984 . S
H716 N703 0.985 . S
C717 C718 1.363 . S
C717 C723 1.379 . S
C717 N725 1.356 . S
C718 C717 1.363 . S
C718 C724 1.363 . S
C719 C720 1.363 . S
C719 C724 1.379 . S
C719 N726 1.356 . S
C720 C719 1.363 . S
C720 C723 1.363 . S
N721 C723 1.356 . S
N721 H733 0.984 . S
N721 H734 0.985 . S
N722 C724 1.356 . S
N722 H727 0.984 . S
N722 H728 0.985 . S
C723 C717 1.379 . S
C723 C720 1.363 . S
C723 N721 1.356 . S
C724 C718 1.363 . S
C724 C719 1.379 . S
C724 N722 1.356 . S
N725 C717 1.356 . S
N725 H731 0.984 . S
N725 H732 0.984 . S
N726 C719 1.356 . S
N726 H729 0.984 . S
N726 H730 0.985 . S
H727 N722 0.984 . S
H728 N722 0.985 . S
H729 N726 0.984 . S
H730 N726 0.985 . S
H731 N725 0.984 . S
H732 N725 0.984 . S
H733 N721 0.984 . S
H734 N721 0.985 . S
C735 C736 1.363 . S
C735 C741 1.379 . S
C735 N743 1.356 . S
C736 C735 1.363 . S
C736 C742 1.363 . S
C737 C738 1.363 . S
C737 C742 1.379 . S
C737 N744 1.356 . S
C738 C737 1.363 . S
C738 C741 1.363 . S
N739 C741 1.356 . S
N739 H751 0.984 . S
N739 H752 0.985 . S
N740 C742 1.356 . S
N740 H745 0.984 . S
N740 H746 0.985 . S
C741 C735 1.379 . S
C741 C738 1.363 . S
C741 N739 1.356 . S
C742 C736 1.363 . S
C742 C737 1.379 . S
C742 N740 1.356 . S
N743 C735 1.356 . S
N743 H749 0.984 . S
N743 H750 0.984 . S
N744 C737 1.356 . S
N744 H747 0.984 . S
N744 H748 0.985 . S
H745 N740 0.984 . S
H746 N740 0.985 . S
H747 N744 0.984 . S
H748 N744 0.985 . S
H749 N743 0.984 . S
H750 N743 0.984 . S
H751 N739 0.984 . S
H752 N739 0.985 . S
C753 C754 1.363 . S
C753 C759 1.379 . S
C753 N761 1.356 . S
C754 C753 1.363 . S
C754 C760 1.363 . S
C755 C756 1.363 . S
C755 C760 1.379 . S
C755 N762 1.356 . S
C756 C755 1.363 . S
C756 C759 1.363 . S
N757 C759 1.356 . S
N757 H769 0.984 . S
N757 H770 0.985 . S
N758 C760 1.356 . S
N758 H763 0.984 . S
N758 H764 0.985 . S
C759 C753 1.379 . S
C759 C756 1.363 . S
C759 N757 1.356 . S
C760 C754 1.363 . S
C760 C755 1.379 . S
C760 N758 1.356 . S
N761 C753 1.356 . S
N761 H767 0.984 . S
N761 H768 0.984 . S
N762 C755 1.356 . S
N762 H765 0.984 . S
N762 H766 0.985 . S
H763 N758 0.984 . S
H764 N758 0.985 . S
H765 N762 0.984 . S
H766 N762 0.985 . S
H767 N761 0.984 . S
H768 N761 0.984 . S
H769 N757 0.984 . S
H770 N757 0.985 . S
C771 C772 1.363 . S
C771 C777 1.379 . S
C771 N779 1.356 . S
C772 C771 1.363 . S
C772 C778 1.363 . S
C773 C774 1.363 . S
C773 C778 1.379 . S
C773 N780 1.356 . S
C774 C773 1.363 . S
C774 C777 1.363 . S
N775 C777 1.356 . S
N775 H787 0.984 . S
N775 H788 0.985 . S
N776 C778 1.356 . S
N776 H781 0.984 . S
N776 H782 0.985 . S
C777 C771 1.379 . S
C777 C774 1.363 . S
C777 N775 1.356 . S
C778 C772 1.363 . S
C778 C773 1.379 . S
C778 N776 1.356 . S
N779 C771 1.356 . S
N779 H785 0.984 . S
N779 H786 0.984 . S
N780 C773 1.356 . S
N780 H783 0.984 . S
N780 H784 0.985 1_655 S
H781 N776 0.984 . S
H782 N776 0.985 . S
H783 N780 0.984 . S
H784 N780 0.985 1_455 S
H785 N779 0.984 . S
H786 N779 0.984 . S
H787 N775 0.984 . S
H788 N775 0.985 . S
C789 C790 1.363 . S
C789 C795 1.379 . S
C789 N797 1.356 . S
C790 C789 1.363 . S
C790 C796 1.363 . S
C791 C792 1.363 . S
C791 C796 1.379 . S
C791 N798 1.356 . S
C792 C791 1.363 . S
C792 C795 1.363 . S
N793 C795 1.356 . S
N793 H805 0.984 . S
N793 H806 0.985 . S
N794 C796 1.356 . S
N794 H799 0.984 . S
N794 H800 0.985 . S
C795 C789 1.379 . S
C795 C792 1.363 . S
C795 N793 1.356 . S
C796 C790 1.363 . S
C796 C791 1.379 . S
C796 N794 1.356 . S
N797 C789 1.356 . S
N797 H803 0.984 . S
N797 H804 0.984 . S
N798 C791 1.356 . S
N798 H801 0.984 . S
N798 H802 0.985 . S
H799 N794 0.984 . S
H800 N794 0.985 . S
H801 N798 0.984 . S
H802 N798 0.985 . S
H803 N797 0.984 . S
H804 N797 0.984 . S
H805 N793 0.984 . S
H806 N793 0.985 . S
C807 C808 1.363 . S
C807 C813 1.379 . S
C807 N815 1.356 . S
C808 C807 1.363 . S
C808 C814 1.363 . S
C809 C810 1.363 . S
C809 C814 1.379 . S
C809 N816 1.356 . S
C810 C809 1.363 . S
C810 C813 1.363 . S
N811 C813 1.356 . S
N811 H823 0.984 . S
N811 H824 0.985 . S
N812 C814 1.356 . S
N812 H817 0.984 . S
N812 H818 0.985 . S
C813 C807 1.379 . S
C813 C810 1.363 . S
C813 N811 1.356 . S
C814 C808 1.363 . S
C814 C809 1.379 . S
C814 N812 1.356 . S
N815 C807 1.356 . S
N815 H821 0.984 . S
N815 H822 0.984 . S
N816 C809 1.356 . S
N816 H819 0.984 . S
N816 H820 0.985 . S
H817 N812 0.984 . S
H818 N812 0.985 . S
H819 N816 0.984 . S
H820 N816 0.985 . S
H821 N815 0.984 . S
H822 N815 0.984 . S
H823 N811 0.984 . S
H824 N811 0.985 . S
C825 C826 1.363 . S
C825 C831 1.379 . S
C825 N833 1.356 . S
C826 C825 1.363 . S
C826 C832 1.363 . S
C827 C828 1.363 . S
C827 C832 1.379 . S
C827 N834 1.356 . S
C828 C827 1.363 . S
C828 C831 1.363 . S
N829 C831 1.356 . S
N829 H841 0.984 . S
N829 H842 0.985 . S
N830 C832 1.356 . S
N830 H835 0.984 . S
N830 H836 0.985 . S
C831 C825 1.379 . S
C831 C828 1.363 . S
C831 N829 1.356 . S
C832 C826 1.363 . S
C832 C827 1.379 . S
C832 N830 1.356 . S
N833 C825 1.356 . S
N833 H839 0.984 . S
N833 H840 0.984 . S
N834 C827 1.356 . S
N834 H837 0.984 . S
N834 H838 0.985 . S
H835 N830 0.984 . S
H836 N830 0.985 . S
H837 N834 0.984 . S
H838 N834 0.985 . S
H839 N833 0.984 . S
H840 N833 0.984 . S
H841 N829 0.984 . S
H842 N829 0.985 . S
C412 C22 1.899 . S
C414 C329 1.819 . S
C430 C92 1.795 . S
C432 C376 1.764 . S
C450 C380 1.840 . S
C448 C144 1.924 . S
C468 C345 1.608 . S
C466 C197 1.651 . S
C484 C250 2.017 . S
C486 C360 1.952 . S
C504 C382 1.227 . S
C502 C287 1.275 . S
C522 C351 1.666 . S
C520 C145 1.737 . S
C538 C198 1.622 . S
C540 C391 1.575 . S
C558 C320 1.617 . S
C556 C251 1.711 . S
C574 C294 1.439 1_556 S
C576 C349 1.382 . S
C592 C29 1.854 1_556 S
C594 C407 1.791 . S
C612 C318 1.724 . S
C610 C91 1.766 . S
C630 C336 1.658 . S
C628 C188 1.717 . S
C648 C350 1.301 . S
C646 C241 1.342 . S
C666 C404 1.685 . S
C664 C304 1.768 . S
C684 C319 1.438 . S
C682 C39 1.470 . S
C702 C367 1.502 . S
C700 C75 1.590 . S
C718 C135 1.095 . S
C720 C390 1.053 . S
C738 C359 1.473 . S
C736 C303 1.545 . S
C756 C398 1.407 . S
C754 C38 1.432 . S
C774 C328 1.223 . S
C772 C82 1.298 . S
C792 C373 1.229 . S
C790 C128 1.278 . S
C808 C181 1.676 . S
C810 C381 1.625 . S
C826 C234 1.299 . S
C828 C342 1.257 . S
