# Generated by pormake.
# Topology gar, (4,6)-cn, num edge types: 1
# Building blocks:
#     Node 0, Type 0, BuildingBlock: QUQFOY_clean_sbu_1, # of connection points: 4
#     Node 1, Type 0, BuildingBlock: QUQFOY_clean_sbu_1, # of connection points: 4
#     Node 2, Type 0, BuildingBlock: QUQFOY_clean_sbu_1, # of connection points: 4
#     Node 3, Type 0, BuildingBlock: QUQFOY_clean_sbu_1, # of connection points: 4
#     Node 4, Type 0, BuildingBlock: QUQFOY_clean_sbu_1, # of connection points: 4
#     Node 5, Type 0, BuildingBlock: QUQFOY_clean_sbu_1, # of connection points: 4
#     Node 6, Type 0, BuildingBlock: QUQFOY_clean_sbu_1, # of connection points: 4
#     Node 7, Type 0, BuildingBlock: QUQFOY_clean_sbu_1, # of connection points: 4
#     Node 8, Type 0, BuildingBlock: QUQFOY_clean_sbu_1, # of connection points: 4
#     Node 9, Type 0, BuildingBlock: QUQFOY_clean_sbu_1, # of connection points: 4
#     Node 10, Type 0, BuildingBlock: QUQFOY_clean_sbu_1, # of connection points: 4
#     Node 11, Type 0, BuildingBlock: QUQFOY_clean_sbu_1, # of connection points: 4
#     Node 12, Type 0, BuildingBlock: QUQFOY_clean_sbu_1, # of connection points: 4
#     Node 13, Type 0, BuildingBlock: QUQFOY_clean_sbu_1, # of connection points: 4
#     Node 14, Type 0, BuildingBlock: QUQFOY_clean_sbu_1, # of connection points: 4
#     Node 15, Type 0, BuildingBlock: QUQFOY_clean_sbu_1, # of connection points: 4
#     Node 16, Type 0, BuildingBlock: QUQFOY_clean_sbu_1, # of connection points: 4
#     Node 17, Type 0, BuildingBlock: QUQFOY_clean_sbu_1, # of connection points: 4
#     Node 18, Type 0, BuildingBlock: QUQFOY_clean_sbu_1, # of connection points: 4
#     Node 19, Type 0, BuildingBlock: QUQFOY_clean_sbu_1, # of connection points: 4
#     Node 20, Type 0, BuildingBlock: QUQFOY_clean_sbu_1, # of connection points: 4
#     Node 21, Type 0, BuildingBlock: QUQFOY_clean_sbu_1, # of connection points: 4
#     Node 22, Type 0, BuildingBlock: QUQFOY_clean_sbu_1, # of connection points: 4
#     Node 23, Type 0, BuildingBlock: QUQFOY_clean_sbu_1, # of connection points: 4
#     Node 24, Type 1, BuildingBlock: BETGAK_clean_sbu_0, # of connection points: 6
#     Node 25, Type 1, BuildingBlock: BETGAK_clean_sbu_0, # of connection points: 6
#     Node 26, Type 1, BuildingBlock: BETGAK_clean_sbu_0, # of connection points: 6
#     Node 27, Type 1, BuildingBlock: BETGAK_clean_sbu_0, # of connection points: 6
#     Node 28, Type 1, BuildingBlock: BETGAK_clean_sbu_0, # of connection points: 6
#     Node 29, Type 1, BuildingBlock: BETGAK_clean_sbu_0, # of connection points: 6
#     Node 30, Type 1, BuildingBlock: BETGAK_clean_sbu_0, # of connection points: 6
#     Node 31, Type 1, BuildingBlock: BETGAK_clean_sbu_0, # of connection points: 6
#     Node 32, Type 1, BuildingBlock: BETGAK_clean_sbu_0, # of connection points: 6
#     Node 33, Type 1, BuildingBlock: BETGAK_clean_sbu_0, # of connection points: 6
#     Node 34, Type 1, BuildingBlock: BETGAK_clean_sbu_0, # of connection points: 6
#     Node 35, Type 1, BuildingBlock: BETGAK_clean_sbu_0, # of connection points: 6
#     Node 36, Type 1, BuildingBlock: BETGAK_clean_sbu_0, # of connection points: 6
#     Node 37, Type 1, BuildingBlock: BETGAK_clean_sbu_0, # of connection points: 6
#     Node 38, Type 1, BuildingBlock: BETGAK_clean_sbu_0, # of connection points: 6
#     Node 39, Type 1, BuildingBlock: BETGAK_clean_sbu_0, # of connection points: 6
#     Edge 40, Type (0, 1), None
#     Edge 41, Type (0, 1), None
#     Edge 42, Type (0, 1), None
#     Edge 43, Type (0, 1), None
#     Edge 44, Type (0, 1), None
#     Edge 45, Type (0, 1), None
#     Edge 46, Type (0, 1), None
#     Edge 47, Type (0, 1), None
#     Edge 48, Type (0, 1), None
#     Edge 49, Type (0, 1), None
#     Edge 50, Type (0, 1), None
#     Edge 51, Type (0, 1), None
#     Edge 52, Type (0, 1), None
#     Edge 53, Type (0, 1), None
#     Edge 54, Type (0, 1), None
#     Edge 55, Type (0, 1), None
#     Edge 56, Type (0, 1), None
#     Edge 57, Type (0, 1), None
#     Edge 58, Type (0, 1), None
#     Edge 59, Type (0, 1), None
#     Edge 60, Type (0, 1), None
#     Edge 61, Type (0, 1), None
#     Edge 62, Type (0, 1), None
#     Edge 63, Type (0, 1), None
#     Edge 64, Type (0, 1), None
#     Edge 65, Type (0, 1), None
#     Edge 66, Type (0, 1), None
#     Edge 67, Type (0, 1), None
#     Edge 68, Type (0, 1), None
#     Edge 69, Type (0, 1), None
#     Edge 70, Type (0, 1), None
#     Edge 71, Type (0, 1), None
#     Edge 72, Type (0, 1), None
#     Edge 73, Type (0, 1), None
#     Edge 74, Type (0, 1), None
#     Edge 75, Type (0, 1), None
#     Edge 76, Type (0, 1), None
#     Edge 77, Type (0, 1), None
#     Edge 78, Type (0, 1), None
#     Edge 79, Type (0, 1), None
#     Edge 80, Type (0, 1), None
#     Edge 81, Type (0, 1), None
#     Edge 82, Type (0, 1), None
#     Edge 83, Type (0, 1), None
#     Edge 84, Type (0, 1), None
#     Edge 85, Type (0, 1), None
#     Edge 86, Type (0, 1), None
#     Edge 87, Type (0, 1), None
#     Edge 88, Type (0, 1), None
#     Edge 89, Type (0, 1), None
#     Edge 90, Type (0, 1), None
#     Edge 91, Type (0, 1), None
#     Edge 92, Type (0, 1), None
#     Edge 93, Type (0, 1), None
#     Edge 94, Type (0, 1), None
#     Edge 95, Type (0, 1), None
#     Edge 96, Type (0, 1), None
#     Edge 97, Type (0, 1), None
#     Edge 98, Type (0, 1), None
#     Edge 99, Type (0, 1), None
#     Edge 100, Type (0, 1), None
#     Edge 101, Type (0, 1), None
#     Edge 102, Type (0, 1), None
#     Edge 103, Type (0, 1), None
#     Edge 104, Type (0, 1), None
#     Edge 105, Type (0, 1), None
#     Edge 106, Type (0, 1), None
#     Edge 107, Type (0, 1), None
#     Edge 108, Type (0, 1), None
#     Edge 109, Type (0, 1), None
#     Edge 110, Type (0, 1), None
#     Edge 111, Type (0, 1), None
#     Edge 112, Type (0, 1), None
#     Edge 113, Type (0, 1), None
#     Edge 114, Type (0, 1), None
#     Edge 115, Type (0, 1), None
#     Edge 116, Type (0, 1), None
#     Edge 117, Type (0, 1), None
#     Edge 118, Type (0, 1), None
#     Edge 119, Type (0, 1), None
#     Edge 120, Type (0, 1), None
#     Edge 121, Type (0, 1), None
#     Edge 122, Type (0, 1), None
#     Edge 123, Type (0, 1), None
#     Edge 124, Type (0, 1), None
#     Edge 125, Type (0, 1), None
#     Edge 126, Type (0, 1), None
#     Edge 127, Type (0, 1), None
#     Edge 128, Type (0, 1), None
#     Edge 129, Type (0, 1), None
#     Edge 130, Type (0, 1), None
#     Edge 131, Type (0, 1), None
#     Edge 132, Type (0, 1), None
#     Edge 133, Type (0, 1), None
#     Edge 134, Type (0, 1), None
#     Edge 135, Type (0, 1), None
# Relax obj value: 0.429
# Max RMSD: 0.444
# Mean RMSD: 0.225
data_MOF--net-gar--node1-QUQFOY_clean_sbu_1--node2-BETGAK_clean_sbu_0--edge1-none
_symmetry_space_group_name_H-M    P1
_symmetry_Int_Tables_number       1
_symmetry_cell_setting            triclinic
loop_
_symmetry_equiv_pos_as_xyz
'x, y, z'
_cell_length_a     33.267709
_cell_length_b     26.96956
_cell_length_c     26.547075
_cell_angle_alpha  101.11633
_cell_angle_beta   96.163308
_cell_angle_gamma 103.63007
loop_
_atom_site_label
_atom_site_type_symbol
_atom_site_fract_x
_atom_site_fract_y
_atom_site_fract_z
_atom_type_partial_charge
O0 O 0.25847 0.38169 0.46804 0.0
Cd1 Cd 0.26579 0.41428 0.40479 0.0
Cd2 Cd 0.23072 0.49857 0.46892 0.0
O3 O 0.21996 0.43293 0.50025 0.0
O4 O 0.28591 0.36603 0.35396 0.0
O5 O 0.32215 0.44806 0.38899 0.0
C6 C 0.31888 0.40369 0.35772 0.0
C7 C 0.2135 0.56336 0.52597 0.0
C8 C 0.23444 0.39334 0.49997 0.0
C9 C 0.20259 0.45738 0.36042 0.0
O10 O 0.2242 0.49954 0.39103 0.0
O11 O 0.21149 0.41507 0.36378 0.0
O12 O 0.1849 0.52887 0.49221 0.0
O13 O 0.25225 0.56378 0.52445 0.0
O14 O 0.09637 0.71942 0.75372 0.0
Cd15 Cd 0.07204 0.7743 0.80376 0.0
Cd16 Cd 0.07648 0.80154 0.70835 0.0
O17 O 1.05332 0.72279 0.689 0.0
O18 O 1.02309 0.77012 0.84464 0.0
O19 O 1.03099 0.81372 0.78205 0.0
C20 C 1.01108 0.80201 0.81924 0.0
C21 C 0.08263 0.83733 0.63615 0.0
C22 C 0.08318 0.70542 0.70527 0.0
C23 C 0.14865 0.83989 0.80625 0.0
O24 O 0.13326 0.83028 0.75824 0.0
O25 O 0.12541 0.82771 0.83929 0.0
O26 O 0.10102 0.80237 0.64416 0.0
O27 O 0.0582 0.85039 0.66791 0.0
O28 O 0.79677 0.93004 0.91055 0.0
Cd29 Cd 0.75647 0.94944 0.96495 0.0
Cd30 Cd 0.76664 1.02204 0.90309 0.0
O31 O 0.82364 1.00514 0.89054 0.0
O32 O 0.76859 0.93438 1.03543 0.0
O33 O 0.72303 0.88033 0.96883 0.0
C34 C 0.7396 0.89135 1.01712 0.0
C35 C 0.70695 0.97536 0.84414 0.0
C36 C 0.82322 0.95738 0.88846 0.0
C37 C 0.71496 1.04067 0.97879 0.0
O38 O 0.74696 0.06854 0.96546 0.0
O39 O 0.71044 0.9916 0.97087 0.0
O40 O 0.72841 1.02009 0.83866 0.0
O41 O 0.72268 0.95451 0.87829 0.0
O42 O 0.592 0.17952 0.22241 0.0
Cd43 Cd 0.56948 0.22885 0.28251 0.0
Cd44 Cd 0.58664 0.28095 0.20635 0.0
O45 O 0.5585 0.20672 0.16454 0.0
O46 O 0.51459 0.22454 0.31102 0.0
O47 O 0.54373 0.28933 0.27614 0.0
C48 C 0.51534 0.2701 0.30169 0.0
C49 C 0.60688 0.33262 0.14975 0.0
C50 C 0.58161 0.17778 0.17459 0.0
C51 C 0.64665 0.2934 0.31316 0.0
O52 O 0.63618 0.29898 0.2674 0.0
O53 O 0.62076 0.26502 0.33435 0.0
O54 O 0.62265 0.29456 0.15463 0.0
O55 O 0.57822 0.34133 0.17676 0.0
O56 O 0.23963 0.82223 0.19269 0.0
Cd57 Cd 0.2341 0.89107 0.23394 0.0
Cd58 Cd 0.24299 0.9315 0.15122 0.0
O59 O 0.21803 0.8436 0.12054 0.0
O60 O 0.19966 0.86581 0.28404 0.0
O61 O 0.17862 0.90798 0.22652 0.0
C62 C 0.17047 0.8823 0.26216 0.0
C63 C 0.20889 1.00105 0.12109 0.0
C64 C 0.22526 0.80821 0.1448 0.0
C65 C 0.3177 0.94983 0.24849 0.0
O66 O 0.30743 0.94959 0.19982 0.0
O67 O 0.28881 0.93736 0.27466 0.0
O68 O 0.23753 0.9839 0.09934 0.0
O69 O 0.19917 0.98009 0.15958 0.0
O70 O 0.6608 0.83762 0.46991 0.0
Cd71 Cd 0.63828 0.84356 0.53927 0.0
Cd72 Cd 0.57336 0.88463 0.46022 0.0
O73 O 0.62143 0.86945 0.41723 0.0
O74 O 0.67738 0.81207 0.58271 0.0
O75 O 0.61083 0.77291 0.55925 0.0
C76 C 0.64708 0.77156 0.58089 0.0
C77 C 0.50104 0.87402 0.41578 0.0
C78 C 0.65362 0.85237 0.42779 0.0
C79 C 0.63457 0.96208 0.55741 0.0
O80 O 0.60251 0.95025 0.52155 0.0
O81 O 0.65091 0.92675 0.57089 0.0
O82 O 0.53264 0.91129 0.41338 0.0
O83 O 0.50953 0.84167 0.44267 0.0
O84 O 0.73882 0.30808 0.69667 0.0
Cd85 Cd 0.74391 0.37927 0.74295 0.0
Cd86 Cd 0.75925 0.42299 0.66179 0.0
O87 O 0.73203 0.33729 0.62497 0.0
O88 O 0.70677 0.35873 0.7923 0.0
O89 O 0.69267 0.40698 0.73755 0.0
C90 C 0.68073 0.38004 0.77104 0.0
C91 C 0.72495 0.49191 0.62965 0.0
C92 C 0.73015 0.29849 0.64773 0.0
C93 C 0.83224 0.42901 0.76148 0.0
O94 O 0.82304 0.43676 0.71492 0.0
O95 O 0.80229 0.41224 0.78471 0.0
O96 O 0.75566 0.47707 0.61081 0.0
O97 O 0.71419 0.47025 0.66733 0.0
O98 O 0.10486 0.24857 0.98866 0.0
Cd99 Cd 0.09651 0.29816 0.93921 0.0
Cd100 Cd 0.09619 0.37545 1.02656 0.0
O101 O 0.11912 0.31243 0.05903 0.0
O102 O 0.13398 0.28856 0.88503 0.0
O103 O 0.14552 0.36003 0.94721 0.0
C104 C 0.15759 0.33441 0.9081 0.0
C105 C 0.13528 0.4684 0.06064 0.0
C106 C 0.1189 0.26486 1.03709 0.0
C107 C 1.01826 0.33814 0.92992 0.0
O108 O 1.03493 0.36723 0.97553 0.0
O109 O 1.03769 0.30616 0.90867 0.0
O110 O 0.10548 0.44508 0.08205 0.0
O111 O 0.14435 0.43959 1.02121 0.0
O112 O 0.53887 0.07373 0.31597 0.0
Cd113 Cd 0.4925 0.09209 0.35559 0.0
Cd114 Cd 0.56152 1.05057 0.43858 0.0
O115 O 0.56587 1.0239 0.36195 0.0
O116 O 0.43411 0.06424 0.31799 0.0
O117 O 0.46611 0.14883 0.34797 0.0
C118 C 0.43271 0.11223 0.32582 0.0
C119 C 0.62384 0.09662 0.48614 0.0
C120 C 0.56187 1.04261 0.32177 0.0
C121 C 0.48368 1.04112 0.43796 0.0
O122 O 0.50721 1.0238 0.46653 0.0
O123 O 0.50007 0.08446 0.42793 0.0
O124 O 0.61237 1.04612 0.47779 0.0
O125 O 0.59809 0.12179 0.47055 0.0
O126 O 0.35506 0.27391 0.66168 0.0
Cd127 Cd 0.36465 0.22282 0.60119 0.0
Cd128 Cd 0.35806 0.28746 0.54089 0.0
O129 O 0.38524 0.33439 0.62328 0.0
O130 O 0.39998 0.18778 0.63675 0.0
O131 O 0.42029 0.23224 0.57752 0.0
C132 C 0.42869 0.20578 0.61113 0.0
C133 C 0.39048 0.31031 0.46098 0.0
C134 C 0.37481 0.32065 0.66537 0.0
C135 C 0.2848 0.18458 0.54709 0.0
O136 O 0.29467 0.23008 0.5352 0.0
O137 O 0.31332 0.16741 0.56686 0.0
O138 O 0.36395 0.3326 0.48195 0.0
O139 O 0.39949 0.27562 0.48455 0.0
O140 O 0.27082 0.08348 0.74088 0.0
Cd141 Cd 0.32596 0.08482 0.79672 0.0
Cd142 Cd 0.25801 0.15153 0.8686 0.0
O143 O 0.23042 0.12793 0.78483 0.0
O144 O 0.36903 1.03896 0.76724 0.0
O145 O 0.33357 1.01537 0.82523 0.0
C146 C 0.36065 1.00516 0.7959 0.0
C147 C 0.21485 0.13125 0.94543 0.0
C148 C 0.23946 0.10483 0.74131 0.0
C149 C 0.34932 0.21634 0.84318 0.0
O150 O 0.31622 0.21612 0.86603 0.0
O151 O 0.35652 0.17172 0.82227 0.0
O152 O 0.21665 0.17166 0.92507 0.0
O153 O 0.23741 0.10235 0.92437 0.0
O154 O 0.48857 0.09921 0.10892 0.0
Cd155 Cd 0.47262 0.12752 0.04734 0.0
Cd156 Cd 0.44982 1.01765 1.01028 0.0
O157 O 0.43289 1.03244 0.08163 0.0
O158 O 0.44921 0.18988 0.07233 0.0
O159 O 0.4096 0.11124 1.03114 0.0
C160 C 0.41207 0.15795 0.05774 0.0
C161 C 0.42618 0.94369 0.94612 0.0
C162 C 0.4634 0.0595 0.11666 0.0
C163 C 0.53479 0.07927 1.00366 0.0
O164 O 0.51117 1.03884 1.012 0.0
O165 O 0.52133 0.12016 1.00298 0.0
O166 O 0.44212 0.94043 0.99128 0.0
O167 O 0.41855 0.98718 0.93995 0.0
O168 O 0.47259 0.45679 0.21779 0.0
Cd169 Cd 0.48737 0.51135 0.17255 0.0
Cd170 Cd 0.48975 0.43149 0.08974 0.0
O171 O 0.46389 0.39022 0.15161 0.0
O172 O 0.45313 0.56282 0.18823 0.0
O173 O 0.44346 0.50579 0.11294 0.0
C174 C 0.43247 0.54275 0.14188 0.0
C175 C 0.45731 0.40505 0.99718 0.0
C176 C 0.46029 0.40777 0.19974 0.0
C177 C 0.56879 0.53201 0.13031 0.0
O178 O 0.55205 0.48752 0.09848 0.0
O179 O 0.54858 0.54813 0.16543 0.0
O180 O 0.48361 0.38272 1.01665 0.0
O181 O 0.44687 0.43975 1.02989 0.0
O182 O 0.8987 0.2438 0.19561 0.0
Cd183 Cd 0.86989 0.17327 0.14444 0.0
Cd184 Cd 0.82119 0.26639 0.14775 0.0
O185 O 0.88245 0.28877 0.14099 0.0
O186 O 0.90253 0.11906 0.14452 0.0
O187 O 0.89983 0.16393 0.08306 0.0
C188 C 0.91504 0.13059 0.10271 0.0
C189 C 0.79019 0.29013 0.08432 0.0
C190 C 0.90369 0.28739 0.18215 0.0
C191 C 0.78065 0.16933 0.15988 0.0
O192 O 0.79599 0.21451 0.18878 0.0
O193 O 0.80418 0.14737 0.13335 0.0
O194 O 0.79441 0.31907 0.13059 0.0
O195 O 0.79339 0.24251 0.07804 0.0
O196 O 0.26868 0.60136 0.22116 0.0
Cd197 Cd 0.32276 0.63883 0.27622 0.0
Cd198 Cd 0.25659 0.72443 0.28046 0.0
O199 O 0.24734 0.64913 0.2805 0.0
O200 O 0.36861 0.60524 0.26595 0.0
O201 O 0.34079 0.61191 0.33855 0.0
C202 C 0.36896 0.59858 0.31288 0.0
C203 C 0.24036 0.76407 0.3552 0.0
C204 C 0.24002 0.62163 0.23513 0.0
C205 C 0.34126 0.75578 0.26652 0.0
O206 O 0.30486 0.75394 0.2448 0.0
O207 O 0.34851 0.71887 0.28655 0.0
O208 O 0.21629 0.7593 0.31196 0.0
O209 O 0.27623 0.75391 0.35398 0.0
O210 O 0.98052 0.97055 0.73453 0.0
Cd211 Cd 0.99328 1.02338 0.68737 0.0
Cd212 Cd 0.98343 0.94245 0.59892 0.0
O213 O 0.94952 0.91147 0.66377 0.0
O214 O 0.95823 0.07479 0.69853 0.0
O215 O 0.94772 1.01134 0.62798 0.0
C216 C 0.93671 1.04999 0.6536 0.0
C217 C 0.95085 0.91209 0.50619 0.0
C218 C 0.95394 0.92732 0.71434 0.0
C219 C 0.06803 1.04112 0.63472 0.0
O220 O 1.04686 0.99788 0.60306 0.0
O221 O 1.05277 0.05788 0.67454 0.0
O222 O 0.975 0.88858 0.52811 0.0
O223 O 0.94257 0.95043 0.53658 0.0
O224 O 0.06508 0.1429 0.22724 0.0
Cd225 Cd 1.01159 0.14546 0.28049 0.0
Cd226 Cd 0.07719 0.08628 0.33878 0.0
O227 O 0.10608 0.10422 0.2693 0.0
O228 O 0.96733 0.19076 0.26072 0.0
O229 O 1.01329 0.22332 0.32911 0.0
C230 C 0.98203 0.23008 0.30016 0.0
C231 C 0.11618 0.10253 0.42827 0.0
C232 C 0.09879 0.12515 0.23009 0.0
C233 C 0.98164 1.02508 0.31687 0.0
O234 O 1.01987 1.02435 0.32861 0.0
O235 O 0.97476 0.06666 0.30156 0.0
O236 O 0.11717 0.06463 0.39082 0.0
O237 O 0.09559 0.13441 0.41528 0.0
O238 O 0.40532 0.74814 0.68774 0.0
Cd239 Cd 0.37469 0.68211 0.63077 0.0
Cd240 Cd 0.34354 0.77429 0.6301 0.0
O241 O 0.4055 0.79624 0.63123 0.0
O242 O 0.40271 0.62286 0.63101 0.0
O243 O 0.40858 0.67141 0.5725 0.0
C244 C 0.41989 0.63547 0.59216 0.0
C245 C 0.30852 0.8001 0.57022 0.0
C246 C 0.41707 0.79252 0.67641 0.0
C247 C 0.29256 0.6951 0.65545 0.0
O248 O 0.31616 0.73781 0.6814 0.0
O249 O 0.30784 0.66626 0.62249 0.0
O250 O 0.31924 0.82982 0.61653 0.0
O251 O 0.31344 0.75309 0.56095 0.0
O252 O 0.56486 0.65276 0.73847 0.0
Cd253 Cd 0.51101 0.65153 0.78834 0.0
Cd254 Cd 0.58308 0.58939 0.83919 0.0
O255 O 0.61089 0.61275 0.76938 0.0
O256 O 0.46505 0.69351 0.76568 0.0
O257 O 0.50928 0.72836 0.83543 0.0
C258 C 0.47815 0.73337 0.80485 0.0
C259 C 0.62063 0.60303 0.93041 0.0
C260 C 0.59905 0.63661 0.73438 0.0
C261 C 0.48634 0.52792 0.81632 0.0
O262 O 0.52496 0.52752 0.82594 0.0
O263 O 0.47785 0.57044 0.80533 0.0
O264 O 0.62353 0.56742 0.89174 0.0
O265 O 0.59912 0.63424 0.91792 0.0
O266 O 0.7647 0.09397 0.71558 0.0
Cd267 Cd 0.82123 0.13156 0.7657 0.0
Cd268 Cd 0.7629 0.23112 0.76584 0.0
O269 O 0.75417 0.15694 0.77009 0.0
O270 O 0.87021 0.10481 0.75678 0.0
O271 O 0.83802 0.10475 0.82654 0.0
C272 C 0.86962 0.09858 0.80382 0.0
C273 C 0.74951 0.26939 0.84489 0.0
C274 C 0.74094 0.1227 0.72886 0.0
C275 C 0.84933 0.2489 0.76691 0.0
O276 O 0.8185 0.25827 0.74108 0.0
O277 O 0.84311 0.21163 0.79029 0.0
O278 O 0.72481 0.26759 0.80336 0.0
O279 O 0.78357 0.25616 0.84 0.0
O280 O 0.85643 0.7763 0.16801 0.0
Cd281 Cd 0.86643 0.72903 0.10521 0.0
Cd282 Cd 0.85414 0.7993 0.05144 0.0
O283 O 0.88066 0.84269 0.13344 0.0
O284 O 0.8998 0.69121 0.14038 0.0
O285 O 0.92357 0.73885 0.08519 0.0
C286 C 0.93013 0.71058 0.11775 0.0
C287 C 0.88551 0.83215 0.97573 0.0
C288 C 0.87276 0.82446 0.17399 0.0
C289 C 0.78486 0.69151 0.054 0.0
O290 O 0.79268 0.73837 0.04512 0.0
O291 O 0.81486 0.67424 0.06956 0.0
O292 O 0.85703 0.84954 0.99754 0.0
O293 O 0.89649 0.79625 0.99571 0.0
O294 O 0.9993 0.54992 0.81602 0.0
Cd295 Cd 0.95404 0.56082 0.85895 0.0
Cd296 Cd 1.05574 0.59578 0.95687 0.0
O297 O 1.03379 0.60668 0.88619 0.0
O298 O 0.89563 0.55503 0.83095 0.0
O299 O 0.94702 0.62917 0.8562 0.0
C300 C 0.908 0.6054 0.84014 0.0
C301 C 0.12341 0.62223 0.99114 0.0
C302 C 1.03376 0.57259 0.84595 0.0
C303 C 0.98156 0.53242 0.95195 0.0
O304 O 1.01521 0.53993 0.98268 0.0
O305 O 0.9746 0.57107 0.9359 0.0
O306 O 0.10973 0.57957 0.95545 0.0
O307 O 0.09835 0.65024 1.00607 0.0
O308 O 0.99763 0.58896 0.65195 0.0
Cd309 Cd 0.99337 0.62678 0.59373 0.0
Cd310 Cd 0.97882 0.47885 0.53455 0.0
O311 O 0.95736 0.52743 0.58773 0.0
O312 O 0.96606 0.68846 0.60948 0.0
O313 O 0.9303 0.60765 0.57443 0.0
C314 C 0.9301 0.65454 0.59563 0.0
C315 C 0.94828 0.42368 0.45848 0.0
C316 C 0.97835 0.54115 0.63337 0.0
C317 C 1.04605 0.55975 0.54205 0.0
O318 O 1.03917 0.51082 0.53782 0.0
O319 O 1.0153 0.58025 0.53423 0.0
O320 O 0.95536 0.40523 0.49918 0.0
O321 O 0.95526 0.4736 0.46265 0.0
O322 O 0.77127 0.58044 0.24821 0.0
Cd323 Cd 0.82578 0.58192 0.30586 0.0
Cd324 Cd 0.75842 0.64754 0.37653 0.0
O325 O 0.73012 0.62383 0.29179 0.0
O326 O 0.86895 0.53469 0.278 0.0
O327 O 0.83248 0.51126 0.33483 0.0
C328 C 0.85983 0.50046 0.30615 0.0
C329 C 0.7207 0.62607 0.45721 0.0
C330 C 0.73968 0.60148 0.24808 0.0
C331 C 0.84739 0.71509 0.35139 0.0
O332 O 0.8144 0.71394 0.37428 0.0
O333 O 0.85544 0.6706 0.33097 0.0
O334 O 0.71932 0.66578 0.43675 0.0
O335 O 0.74293 0.59825 0.4336 0.0
La336 La 0.13234 0.10775 0.06473 0.0
La337 La 0.1896 0.16068 0.10732 0.0
C338 C 1.05576 0.06098 1.0304 0.0
C339 C 1.0177 0.07659 0.0452 0.0
C340 C 0.98904 1.04495 0.06881 0.0
C341 C 0.95514 0.06177 0.08682 0.0
C342 C 0.94878 0.1102 0.08074 0.0
C343 C 0.97695 0.14127 0.05635 0.0
C344 C 1.01105 0.12492 1.03918 0.0
C345 C 0.18957 0.12038 0.992 0.0
C346 C 0.13407 0.22577 0.06522 0.0
C347 C 0.26571 0.20271 0.14773 0.0
C348 C 0.30348 0.19272 0.12365 0.0
C349 C 0.33641 0.2337 0.11703 0.0
C350 C 0.37155 0.22318 0.09515 0.0
C351 C 0.374 0.17125 0.07722 0.0
C352 C 0.34082 0.13067 0.08301 0.0
C353 C 0.307 0.14118 0.10656 0.0
C354 C 0.1318 0.12451 0.18897 0.0
C355 C 0.18983 1.04477 0.10462 0.0
O356 O 0.07956 0.09088 1.00644 0.0
O357 O 0.0784 1.04816 0.06624 0.0
O358 O 0.1688 0.0765 1.00154 0.0
O359 O 0.17941 0.15384 1.02481 0.0
O360 O 0.10944 0.1783 0.0588 0.0
O361 O 0.17375 0.23043 0.08354 0.0
O362 O 0.24197 0.16335 0.1615 0.0
O363 O 0.2424 0.22731 0.12492 0.0
O364 O 0.13498 0.14984 0.15115 0.0
O365 O 0.13646 0.14921 0.15037 0.0
O366 O 0.21202 0.08705 0.09359 0.0
O367 O 0.15048 1.04546 0.10183 0.0
H368 H 0.99336 1.00765 0.07428 0.0
H369 H 0.93405 1.03706 0.10573 0.0
H370 H 0.97317 0.17895 0.05139 0.0
H371 H 1.03189 0.15029 1.02067 0.0
H372 H 0.33551 0.27398 0.12995 0.0
H373 H 0.39681 0.25573 0.09239 0.0
H374 H 0.34184 0.09024 0.07153 0.0
H375 H 0.2847 0.10812 0.11323 0.0
La376 La 0.43585 0.90607 0.30329 0.0
La377 La 0.37844 0.91355 0.35867 0.0
C378 C 0.48791 0.92278 0.24244 0.0
C379 C 0.48949 0.96382 0.21459 0.0
C380 C 0.51178 0.96767 0.17327 0.0
C381 C 0.50622 1.00335 0.14325 0.0
C382 C 0.47802 1.03392 0.1547 0.0
C383 C 0.45769 1.03162 0.19727 0.0
C384 C 0.46299 0.99618 0.22662 0.0
C385 C 0.45898 0.86552 0.38242 0.0
C386 C 0.45134 1.00187 0.3998 0.0
C387 C 0.31701 0.90554 0.40694 0.0
C388 C 0.31074 0.87731 0.44747 0.0
C389 C 0.28299 0.88565 0.48238 0.0
C390 C 0.28101 0.85974 0.5232 0.0
C391 C 0.30575 0.82469 0.52708 0.0
C392 C 0.33328 0.81695 0.49203 0.0
C393 C 0.33629 0.84378 0.45322 0.0
C394 C 0.36167 0.95535 0.27552 0.0
C395 C 0.36825 0.80733 0.28904 0.0
O396 O 0.49689 0.93975 0.2925 0.0
O397 O 0.4528 0.88662 0.2294 0.0
O398 O 0.45685 0.8454 0.33382 0.0
O399 O 0.44106 0.9027 0.38474 0.0
O400 O 0.45598 0.98849 0.3504 0.0
O401 O 0.4243 0.9691 0.41716 0.0
O402 O 0.34985 0.94541 0.41916 0.0
O403 O 0.31635 0.87569 0.36182 0.0
O404 O 0.36945 0.97886 0.32385 0.0
O405 O 0.37375 0.91418 0.27659 0.0
O406 O 0.36671 0.82937 0.33671 0.0
O407 O 0.39037 0.83468 0.26151 0.0
H408 H 0.53129 0.94161 0.16272 0.0
H409 H 0.52146 1.00452 0.10927 0.0
H410 H 0.43562 1.05453 0.2054 0.0
H411 H 0.44399 0.99103 0.25647 0.0
H412 H 0.26386 0.91255 0.47869 0.0
H413 H 0.26039 0.86663 0.55119 0.0
H414 H 0.35389 0.79168 0.49587 0.0
H415 H 0.35944 0.83908 0.4284 0.0
La416 La 0.72642 0.12334 0.58302 0.0
La417 La 0.64811 0.13646 0.62241 0.0
C418 C 0.80229 0.12766 0.57809 0.0
C419 C 0.83413 0.10124 0.59206 0.0
C420 C 0.87264 0.11379 0.57441 0.0
C421 C 0.90594 0.09591 0.59372 0.0
C422 C 0.90101 0.0658 0.63119 0.0
C423 C 0.86172 1.05021 0.64625 0.0
C424 C 0.82831 0.06795 0.62679 0.0
C425 C 0.66637 0.12356 0.51078 0.0
C426 C 0.65504 1.01957 0.57884 0.0
C427 C 0.57392 0.13136 0.63559 0.0
C428 C 0.54155 0.15931 0.63219 0.0
C429 C 0.51632 0.16012 0.67099 0.0
C430 C 0.48056 0.1778 0.665 0.0
C431 C 0.46957 0.19488 0.62002 0.0
C432 C 0.49651 0.19782 0.58286 0.0
C433 C 0.53243 0.17985 0.58882 0.0
C434 C 0.70825 0.12898 0.69149 0.0
C435 C 0.71321 0.24115 0.62127 0.0
O436 O 0.77168 0.10155 0.54022 0.0
O437 O 0.78921 0.1533 0.61733 0.0
O438 O 0.69576 0.10045 0.50265 0.0
O439 O 0.67515 0.15095 0.55641 0.0
O440 O 0.69638 1.03953 0.58245 0.0
O441 O 0.63042 1.05132 0.58771 0.0
O442 O 0.60602 0.1526 0.67278 0.0
O443 O 0.58441 0.1108 0.59175 0.0
O444 O 0.68353 0.15872 0.7017 0.0
O445 O 0.69778 0.10357 0.64573 0.0
O446 O 0.67283 0.21916 0.61978 0.0
O447 O 0.73952 0.21069 0.61405 0.0
H448 H 0.8774 0.13893 0.54709 0.0
H449 H 0.93585 0.10687 0.58061 0.0
H450 H 0.85716 1.02526 0.67376 0.0
H451 H 0.79841 1.05689 0.63972 0.0
H452 H 0.52319 0.14473 0.70481 0.0
H453 H 0.46072 0.17625 0.69479 0.0
H454 H 0.48878 0.21138 0.54813 0.0
H455 H 0.5519 0.17987 0.55863 0.0
La456 La 0.38622 0.39975 0.83678 0.0
La457 La 0.44552 0.34764 0.82278 0.0
C458 C 0.31777 0.42224 0.85099 0.0
C459 C 0.27692 0.39872 0.86501 0.0
C460 C 0.25525 0.43166 0.89133 0.0
C461 C 0.21635 0.41075 0.90493 0.0
C462 C 0.19805 0.35642 0.89182 0.0
C463 C 0.2197 0.32339 0.8652 0.0
C464 C 0.25898 0.34433 0.85223 0.0
C465 C 0.45079 0.47892 0.82163 0.0
C466 C 0.44229 0.3939 0.93932 0.0
C467 C 0.51271 0.32214 0.81218 0.0
C468 C 0.55377 0.33718 0.79655 0.0
C469 C 0.57917 0.30286 0.79825 0.0
C470 C 0.62042 0.31757 0.79016 0.0
C471 C 0.63693 0.36673 0.77958 0.0
C472 C 0.61088 0.40037 0.77532 0.0
C473 C 0.5694 0.38587 0.78447 0.0
C474 C 0.38199 0.26822 0.83833 0.0
C475 C 0.39199 0.35148 0.72045 0.0
O476 O 0.35044 0.43392 0.88723 0.0
O477 O 0.32572 0.40117 0.80585 0.0
O478 O 0.41353 0.48101 0.82849 0.0
O479 O 0.45148 0.4309 0.82177 0.0
O480 O 0.40792 0.40484 0.9203 0.0
O481 O 0.46477 0.37461 0.90703 0.0
O482 O 0.47977 0.30688 0.77583 0.0
O483 O 0.50684 0.35177 0.85437 0.0
O484 O 0.41751 0.26592 0.825 0.0
O485 O 0.37995 0.31616 0.83906 0.0
O486 O 0.42963 0.35107 0.74079 0.0
O487 O 0.36601 0.36065 0.75318 0.0
H488 H 0.26851 0.47372 0.9015 0.0
H489 H 0.20049 0.43719 0.9255 0.0
H490 H 0.20668 0.28131 0.85532 0.0
H491 H 0.2753 0.3181 0.83231 0.0
H492 H 0.56738 0.26503 0.80719 0.0
H493 H 0.63938 0.29015 0.79201 0.0
H494 H 0.62284 0.43809 0.76634 0.0
H495 H 0.54992 0.41275 0.78312 0.0
La496 La 0.16741 0.15562 0.60797 0.0
La497 La 0.18659 0.06765 0.5644 0.0
C498 C 0.1675 0.25095 0.62503 0.0
C499 C 0.18459 0.2885 0.59427 0.0
C500 C 0.18481 0.34134 0.60822 0.0
C501 C 0.20215 0.37606 0.57837 0.0
C502 C 0.21991 0.35836 0.53462 0.0
C503 C 0.22067 0.30575 0.52196 0.0
C504 C 0.20298 0.27127 0.5513 0.0
C505 C 0.10985 0.07534 0.62686 0.0
C506 C 0.136 0.10567 0.4837 0.0
C507 C 0.18928 0.9747 0.54371 0.0
C508 C 0.16005 0.93757 0.56413 0.0
C509 C 0.14848 0.88433 0.54153 0.0
C510 C 0.11808 0.8507 0.56058 0.0
C511 C 0.09952 0.87077 0.60241 0.0
C512 C 0.10888 0.92467 0.62191 0.0
C513 C 0.13922 0.95759 0.60325 0.0
C514 C 0.2408 0.15279 0.54569 0.0
C515 C 0.21546 0.10712 0.6887 0.0
O516 O 0.13485 0.21295 0.60123 0.0
O517 O 0.19569 0.2332 0.64844 0.0
O518 O 0.12555 0.12119 0.65728 0.0
O519 O 0.12565 0.07572 0.58483 0.0
O520 O 0.14421 0.14805 0.52234 0.0
O521 O 0.14608 0.06417 0.49359 0.0
O522 O 0.21696 1.01044 0.57897 0.0
O523 O 0.17052 0.99512 0.51081 0.0
O524 O 0.22748 0.10683 0.51529 0.0
O525 O 0.22627 0.14691 0.58713 0.0
O526 O 0.21167 0.06978 0.64679 0.0
O527 O 0.2012 0.14809 0.68287 0.0
H528 H 0.17146 0.35562 0.64181 0.0
H529 H 0.20141 0.41663 0.58929 0.0
H530 H 0.23384 0.29078 0.48847 0.0
H531 H 0.2036 0.2309 0.54022 0.0
H532 H 0.16374 0.86961 0.51038 0.0
H533 H 0.11041 0.809 0.54472 0.0
H534 H 0.0957 0.94112 0.65479 0.0
H535 H 0.14719 0.99874 0.6206 0.0
La536 La 0.46093 0.9059 0.80361 0.0
La537 La 0.38016 0.83736 0.81482 0.0
C538 C 0.53485 0.96079 0.82477 0.0
C539 C 0.57657 0.95317 0.81963 0.0
C540 C 0.60088 0.98072 0.78882 0.0
C541 C 0.64326 0.9825 0.79119 0.0
C542 C 0.66175 0.95692 0.82467 0.0
C543 C 0.63616 0.92403 0.85046 0.0
C544 C 0.59388 0.92253 0.84834 0.0
C545 C 0.42303 0.83851 0.71789 0.0
C546 C 0.4583 0.78205 0.81334 0.0
C547 C 0.30401 0.79258 0.79693 0.0
C548 C 0.26762 0.8134 0.80628 0.0
C549 C 0.2446 0.80019 0.84524 0.0
C550 C 0.2081 0.81628 0.85115 0.0
C551 C 0.1938 0.845 0.81747 0.0
C552 C 0.21912 0.86263 0.7821 0.0
C553 C 0.25551 0.84669 0.77626 0.0
C554 C 0.42043 0.90112 0.90114 0.0
C555 C 0.38191 0.95814 0.7966 0.0
O556 O 0.51033 0.95607 0.78108 0.0
O557 O 0.51506 0.9395 0.85884 0.0
O558 O 0.44692 0.88419 0.71815 0.0
O559 O 0.42325 0.83331 0.7633 0.0
O560 O 0.48148 0.83176 0.81673 0.0
O561 O 0.41633 0.7745 0.80834 0.0
O562 O 0.32863 0.79078 0.83836 0.0
O563 O 0.32502 0.81018 0.76205 0.0
O564 O 0.39874 0.85375 0.89911 0.0
O565 O 0.4179 0.91021 0.8566 0.0
O566 O 0.36003 0.91094 0.80184 0.0
O567 O 0.42322 0.96527 0.79672 0.0
H568 H 0.58781 1.0038 0.76561 0.0
H569 H 0.66219 1.00764 0.77052 0.0
H570 H 0.64944 0.90356 0.8765 0.0
H571 H 0.57563 0.90008 0.87174 0.0
H572 H 0.25366 0.77531 0.86944 0.0
H573 H 0.18901 0.80158 0.87838 0.0
H574 H 0.20871 0.88455 0.75544 0.0
H575 H 0.2729 0.85854 0.74642 0.0
La576 La 0.65144 0.0727 0.09524 0.0
La577 La 0.65969 0.16272 0.06297 0.0
C578 C 0.64195 1.00312 0.14726 0.0
C579 C 0.63028 1.01224 0.19887 0.0
C580 C 0.61415 0.97133 0.22252 0.0
C581 C 0.59374 0.98137 0.26541 0.0
C582 C 0.58793 1.03163 0.28244 0.0
C583 C 0.60733 0.0728 0.26141 0.0
C584 C 0.62896 0.06334 0.22061 0.0
C585 C 0.68294 0.06184 1.00564 0.0
C586 C 0.57899 0.08322 1.02026 0.0
C587 C 0.6721 0.23818 1.01874 0.0
C588 C 0.69752 0.25553 0.98145 0.0
C589 C 0.68441 0.28728 0.9505 0.0
C590 C 0.70316 0.29536 0.90722 0.0
C591 C 0.73491 0.27135 0.89483 0.0
C592 C 0.7482 0.24022 0.92657 0.0
C593 C 0.72897 0.23144 0.96888 0.0
C594 C 0.60591 0.16035 0.1328 0.0
C595 C 0.73605 0.15514 0.13863 0.0
O596 O 0.61321 1.00519 0.11093 0.0
O597 O 0.67839 1.03208 0.14395 0.0
O598 O 0.65291 1.0286 1.01771 0.0
O599 O 0.69216 0.10229 1.04216 0.0
O600 O 0.58783 0.06704 0.06257 0.0
O601 O 0.60929 0.11245 1.00351 0.0
O602 O 0.69063 0.24133 0.06579 0.0
O603 O 0.64527 0.19312 0.9994 0.0
O604 O 0.60457 0.1795 0.09245 0.0
O605 O 0.63954 0.14533 0.13592 0.0
O606 O 0.72196 0.18404 0.10977 0.0
O607 O 0.71275 0.10966 0.14115 0.0
H608 H 0.61534 0.93172 0.20636 0.0
H609 H 0.58019 0.94945 0.28279 0.0
H610 H 0.60509 0.11224 0.27606 0.0
H611 H 0.64261 0.09565 0.20404 0.0
H612 H 0.65799 0.30305 0.95788 0.0
H613 H 0.69165 0.31813 0.88235 0.0
H614 H 0.77169 0.21971 0.91693 0.0
H615 H 0.7375 0.20426 0.99053 0.0
La616 La 0.45002 0.39514 0.35899 0.0
La617 La 0.39486 0.30632 0.28614 0.0
C618 C 0.48365 0.49092 0.39101 0.0
C619 C 0.46191 0.52808 0.37281 0.0
C620 C 0.44771 0.56436 0.40736 0.0
C621 C 0.41714 0.58778 0.38863 0.0
C622 C 0.40075 0.57532 0.33513 0.0
C623 C 0.41573 0.54026 0.30118 0.0
C624 C 0.44518 0.51683 0.32 0.0
C625 C 0.41641 0.33269 0.42099 0.0
C626 C 0.35452 0.39198 0.33514 0.0
C627 C 0.34074 0.22197 0.24721 0.0
C628 C 0.33916 0.1767 0.27042 0.0
C629 C 0.34448 0.13113 0.23931 0.0
C630 C 0.37184 0.10509 0.25934 0.0
C631 C 0.39401 0.12541 0.30999 0.0
C632 C 0.38212 0.16399 0.34364 0.0
C633 C 0.35332 0.18819 0.32432 0.0
C634 C 0.4412 0.37195 0.23524 0.0
C635 C 0.48396 0.2988 0.31767 0.0
O636 O 0.4628 0.46308 0.41928 0.0
O637 O 0.49796 0.46126 0.35576 0.0
O638 O 0.44821 0.37346 0.43498 0.0
O639 O 0.40845 0.32294 0.37079 0.0
O640 O 0.39208 0.41896 0.35854 0.0
O641 O 0.34809 0.34784 0.30102 0.0
O642 O 0.37549 0.23638 0.22894 0.0
O643 O 0.33193 0.26198 0.27568 0.0
O644 O 0.42789 0.32174 0.22014 0.0
O645 O 0.42499 0.38417 0.27643 0.0
O646 O 0.44448 0.27255 0.312 0.0
O647 O 0.49464 0.35066 0.33258 0.0
H648 H 0.4585 0.57237 0.44877 0.0
H649 H 0.40613 0.61502 0.41579 0.0
H650 H 0.40312 0.52875 0.26005 0.0
H651 H 0.45219 0.4862 0.2937 0.0
H652 H 0.33313 0.12061 0.19804 0.0
H653 H 0.37903 0.0733 0.23357 0.0
H654 H 0.39776 0.17856 0.38361 0.0
H655 H 0.34854 0.22208 0.34989 0.0
La656 La 0.66696 0.65166 0.11332 0.0
La657 La 0.69089 0.56834 0.06876 0.0
C658 C 0.66487 0.74611 0.13335 0.0
C659 C 0.68263 0.78497 0.10443 0.0
C660 C 0.69365 0.83891 0.12657 0.0
C661 C 0.71443 0.87436 0.09942 0.0
C662 C 0.7238 0.85579 0.04994 0.0
C663 C 0.71331 0.80204 1.02864 0.0
C664 C 0.69364 0.76714 0.05596 0.0
C665 C 0.61104 0.56793 0.12728 0.0
C666 C 0.64012 0.60504 0.98626 0.0
C667 C 0.69857 0.47742 0.04811 0.0
C668 C 0.67601 0.43928 0.07364 0.0
C669 C 0.67336 0.38635 0.05776 0.0
C670 C 0.64795 0.35091 0.08036 0.0
C671 C 0.62557 0.36827 0.11899 0.0
C672 C 0.62712 0.42118 0.13343 0.0
C673 C 0.65238 0.45637 0.11095 0.0
C674 C 0.74174 0.65704 0.05238 0.0
C675 C 0.71613 0.60414 0.19464 0.0
O676 O 0.63302 0.70782 0.10777 0.0
O677 O 0.69304 0.72854 0.15694 0.0
O678 O 0.62458 0.61307 0.1595 0.0
O679 O 0.62827 0.57091 0.08661 0.0
O680 O 0.64124 0.64293 1.02754 0.0
O681 O 0.65655 0.56703 0.99388 0.0
O682 O 0.72739 0.51598 0.07897 0.0
O683 O 0.67338 0.49405 1.01856 0.0
O684 O 0.7303 0.61144 1.02108 0.0
O685 O 0.72742 0.64903 0.09352 0.0
O686 O 0.7163 0.57008 0.15149 0.0
O687 O 0.69845 0.64263 0.1894 0.0
H688 H 0.68652 0.85342 0.16464 0.0
H689 H 0.72193 0.91601 0.11618 0.0
H690 H 0.72045 0.78691 0.99071 0.0
H691 H 0.68785 0.72609 1.03919 0.0
H692 H 0.6908 0.37298 1.02836 0.0
H693 H 0.64597 0.30999 0.0687 0.0
H694 H 0.61042 0.43562 0.16349 0.0
H695 H 0.65345 0.49705 0.12283 0.0
La696 La 0.96089 0.4024 0.3055 0.0
La697 La 0.88371 0.33236 0.32436 0.0
C698 C 1.03327 0.46235 0.32075 0.0
C699 C 0.07589 0.45723 0.32201 0.0
C700 C 0.10752 0.49864 0.31483 0.0
C701 C 0.14934 0.49747 0.32386 0.0
C702 C 0.15947 0.45448 0.33937 0.0
C703 C 0.12733 0.4115 0.34291 0.0
C704 C 0.08583 0.41303 0.33458 0.0
C705 C 0.91595 0.33442 0.22335 0.0
C706 C 0.96247 0.27888 0.31179 0.0
C707 C 0.81029 0.27986 0.31705 0.0
C708 C 0.77187 0.29421 0.32764 0.0
C709 C 0.74683 0.26816 0.35866 0.0
C710 C 0.70682 0.27478 0.36166 0.0
C711 C 0.69155 0.3067 0.33266 0.0
C712 C 0.71906 0.33869 0.30822 0.0
C713 C 0.75895 0.33215 0.30532 0.0
C714 C 0.93163 0.38847 0.40839 0.0
C715 C 0.88143 0.45319 0.30718 0.0
O716 O 1.00933 0.44645 0.27519 0.0
O717 O 1.01414 0.44695 0.35798 0.0
O718 O 0.93812 0.38013 0.22046 0.0
O719 O 0.92207 0.3299 0.26859 0.0
O720 O 0.9846 0.32895 0.31427 0.0
O721 O 0.92078 0.27083 0.31073 0.0
O722 O 0.83855 0.28727 0.35805 0.0
O723 O 0.82618 0.29488 0.27748 0.0
O724 O 0.91071 0.34046 0.40406 0.0
O725 O 0.92432 0.40386 0.36718 0.0
O726 O 0.86122 0.40633 0.31573 0.0
O727 O 0.92161 0.45987 0.30116 0.0
H728 H 0.10003 0.53284 0.30472 0.0
H729 H 0.17375 0.53092 0.32099 0.0
H730 H 0.13427 0.3782 0.35575 0.0
H731 H 0.06182 0.38089 0.34062 0.0
H732 H 0.75702 0.24 0.37753 0.0
H733 H 0.6864 0.25019 0.38138 0.0
H734 H 0.70819 0.36432 0.28627 0.0
H735 H 0.77832 0.35409 0.28254 0.0
La736 La 0.1662 0.61379 0.65516 0.0
La737 La 0.15887 0.68417 0.59177 0.0
C738 C 0.16043 0.56249 0.72498 0.0
C739 C 0.13492 0.56833 0.76551 0.0
C740 C 0.12363 0.5302 0.79414 0.0
C741 C 0.09177 0.53273 0.82415 0.0
C742 C 0.07235 0.57379 0.82555 0.0
C743 C 0.08686 0.61427 0.80126 0.0
C744 C 0.118 0.6115 0.77136 0.0
C745 C 0.20202 0.59225 0.57183 0.0
C746 C 0.08642 0.59079 0.56942 0.0
C747 C 0.16248 0.74808 0.53374 0.0
C748 C 0.18486 0.75772 0.49108 0.0
C749 C 0.16828 0.78012 0.45297 0.0
C750 C 0.1881 0.78615 0.41005 0.0
C751 C 0.22349 0.76739 0.40385 0.0
C752 C 0.23853 0.74239 0.44079 0.0
C753 C 0.21937 0.73768 0.48412 0.0
C754 C 0.11083 0.69114 0.66668 0.0
C755 C 0.24733 0.69013 0.65066 0.0
O756 O 0.13928 0.54446 0.67793 0.0
O757 O 0.19013 0.60462 0.72795 0.0
O758 O 0.21278 0.58346 0.61651 0.0
O759 O 0.16888 0.60704 0.57284 0.0
O760 O 0.10046 0.58507 0.61603 0.0
O761 O 0.11024 0.62086 0.54531 0.0
O762 O 0.18465 0.75961 0.58037 0.0
O763 O 0.13586 0.70219 0.52336 0.0
O764 O 0.10259 0.69661 0.62029 0.0
O765 O 0.14839 0.68669 0.67308 0.0
O766 O 0.22716 0.69703 0.60828 0.0
O767 O 0.22636 0.66967 0.68383 0.0
H768 H 0.13708 0.49705 0.79036 0.0
H769 H 0.08101 0.5017 0.8439 0.0
H770 H 0.07211 0.64619 0.80273 0.0
H771 H 0.12745 0.64159 0.75031 0.0
H772 H 0.13919 0.79116 0.45538 0.0
H773 H 0.17486 0.80336 0.38086 0.0
H774 H 0.26439 0.7249 0.43556 0.0
H775 H 0.2308 0.71713 0.51143 0.0
La776 La 0.87996 0.89982 0.34367 0.0
La777 La 0.94163 0.84861 0.33218 0.0
C778 C 0.80932 0.91934 0.35249 0.0
C779 C 0.76742 0.89597 0.36469 0.0
C780 C 0.73399 0.91779 0.3534 0.0
C781 C 0.69523 0.90022 0.36946 0.0
C782 C 0.68913 0.8605 0.39752 0.0
C783 C 0.72202 0.83657 0.40587 0.0
C784 C 0.76067 0.85408 0.38965 0.0
C785 C 0.94521 0.97784 0.32505 0.0
C786 C 0.93603 0.89821 0.44803 0.0
C787 C 1.00938 0.82459 0.32258 0.0
C788 C 1.04874 0.83907 0.30311 0.0
C789 C 0.07572 0.80668 0.30522 0.0
C790 C 0.11519 0.82102 0.29143 0.0
C791 C 0.12815 0.8679 0.27504 0.0
C792 C 0.10034 0.89934 0.2706 0.0
C793 C 0.06071 0.88514 0.28506 0.0
C794 C 0.87901 0.76817 0.34682 0.0
C795 C 0.88859 0.85339 0.2293 0.0
O796 O 0.84116 0.93288 0.39022 0.0
O797 O 0.81905 0.89706 0.30908 0.0
O798 O 0.90817 0.9809 0.33286 0.0
O799 O 0.94481 0.93005 0.32753 0.0
O800 O 0.90197 0.90909 0.42781 0.0
O801 O 0.95853 0.87698 0.41689 0.0
O802 O 0.97545 0.80512 0.28791 0.0
O803 O 1.00414 0.8575 0.36292 0.0
O804 O 0.91511 0.76704 0.33498 0.0
O805 O 0.8759 0.8159 0.34681 0.0
O806 O 0.926 0.85265 0.25038 0.0
O807 O 0.86156 0.86116 0.26065 0.0
H808 H 0.7384 0.95005 0.33395 0.0
H809 H 0.67112 0.9202 0.36295 0.0
H810 H 0.71868 0.80602 0.4275 0.0
H811 H 0.78579 0.83626 0.39843 0.0
H812 H 0.06655 0.77068 0.31851 0.0
H813 H 0.13558 0.79526 0.29348 0.0
H814 H 0.10962 0.9353 0.25735 0.0
H815 H 1.03983 0.9103 0.28308 0.0
La816 La 0.95255 0.39001 0.82203 0.0
La817 La 0.89901 0.39106 0.87252 0.0
C818 C 1.00653 0.41101 0.76429 0.0
C819 C 1.00078 0.43083 0.71793 0.0
C820 C 1.0349 0.46397 0.70438 0.0
C821 C 1.02803 0.50025 0.67581 0.0
C822 C 0.98691 0.50114 0.6588 0.0
C823 C 0.9529 0.46393 0.66733 0.0
C824 C 0.95977 0.42919 0.69733 0.0
C825 C 0.97937 0.34402 0.89626 0.0
C826 C 0.96469 0.48126 0.918 0.0
C827 C 0.83618 0.38288 0.9187 0.0
C828 C 0.82537 0.36262 0.96316 0.0
C829 C 0.7954 0.37873 0.99096 0.0
C830 C 0.78367 0.35589 1.03185 0.0
C831 C 0.80091 0.31592 1.04289 0.0
C832 C 0.83229 0.30199 1.0163 0.0
C833 C 0.84475 0.32558 0.97705 0.0
C834 C 0.87653 0.43427 0.79006 0.0
C835 C 0.88278 0.2939 0.79415 0.0
O836 O 1.00308 0.44342 0.80561 0.0
O837 O 0.98425 0.36379 0.76187 0.0
O838 O 0.97467 0.32689 0.84682 0.0
O839 O 0.96206 0.38203 0.90342 0.0
O840 O 0.96635 0.47166 0.86787 0.0
O841 O 0.943 0.44385 0.9352 0.0
O842 O 0.86734 0.42454 0.92881 0.0
O843 O 0.84013 0.34795 0.87966 0.0
O844 O 0.88467 0.45559 0.83903 0.0
O845 O 0.89047 0.39418 0.78974 0.0
O846 O 0.88724 0.30762 0.8446 0.0
O847 O 0.90129 0.32937 0.77117 0.0
H848 H 0.06652 0.46414 0.7189 0.0
H849 H 1.05447 0.52832 0.66835 0.0
H850 H 0.92102 0.46423 0.65398 0.0
H851 H 0.93303 0.40415 0.70799 0.0
H852 H 0.78089 0.40816 0.98065 0.0
H853 H 0.7607 0.36812 0.05371 0.0
H854 H 0.84746 0.27282 1.02592 0.0
H855 H 0.86876 0.31392 0.95665 0.0
La856 La 0.94974 0.92809 0.88346 0.0
La857 La 0.88397 0.83609 0.80831 0.0
C858 C 0.98838 1.02165 0.91132 0.0
C859 C 0.97073 1.05644 0.88372 0.0
C860 C 0.95317 0.09438 0.91014 0.0
C861 C 0.92054 0.10924 0.88412 0.0
C862 C 0.90525 0.08633 0.83125 0.0
C863 C 0.9247 1.05174 0.80412 0.0
C864 C 0.95687 1.03735 0.83034 0.0
C865 C 0.91159 0.86151 0.94018 0.0
C866 C 0.85477 0.93313 0.86431 0.0
C867 C 0.83204 0.74832 0.78155 0.0
C868 C 0.83541 0.70604 0.8073 0.0
C869 C 0.82384 0.65398 0.77903 0.0
C870 C 0.84531 0.61874 0.79209 0.0
C871 C 0.87853 0.63606 0.83351 0.0
C872 C 0.88614 0.68564 0.86623 0.0
C873 C 0.86393 0.72009 0.85372 0.0
C874 C 0.92618 0.8982 0.74953 0.0
C875 C 0.97863 0.82908 0.835 0.0
O876 O 0.96269 0.99924 0.9391 0.0
O877 O 1.0042 0.98741 0.88314 0.0
O878 O 0.94372 0.90174 0.95786 0.0
O879 O 0.9059 0.85838 0.89092 0.0
O880 O 0.89454 0.95936 0.87489 0.0
O881 O 0.84296 0.88367 0.83854 0.0
O882 O 0.86391 0.76213 0.75782 0.0
O883 O 0.82406 0.78896 0.81027 0.0
O884 O 0.8937 0.85837 0.73222 0.0
O885 O 0.9296 0.90391 0.79944 0.0
O886 O 0.93831 0.80331 0.82173 0.0
O887 O 0.99123 0.87973 0.85791 0.0
H888 H 0.96163 0.1088 0.95142 0.0
H889 H 0.90634 0.13711 0.90564 0.0
H890 H 0.91291 1.03267 0.76365 0.0
H891 H 0.96696 1.00556 0.81087 0.0
H892 H 0.80146 0.64129 0.74435 0.0
H893 H 0.83862 0.57995 0.76708 0.0
H894 H 0.91117 0.69902 0.89935 0.0
H895 H 0.87307 0.75975 0.8766 0.0
La896 La 0.64342 0.59945 0.57889 0.0
La897 La 0.70302 0.6487 0.62537 0.0
C898 C 0.56523 0.55981 0.54275 0.0
C899 C 0.52673 0.57799 0.55194 0.0
C900 C 0.4926 0.54543 0.56704 0.0
C901 C 0.45735 0.56327 0.57878 0.0
C902 C 0.4549 0.61381 0.57468 0.0
C903 C 0.48835 0.64564 0.55781 0.0
C904 C 0.52379 0.62818 0.54691 0.0
C905 C 0.69889 0.61408 0.50611 0.0
C906 C 0.65537 0.72323 0.59643 0.0
C907 C 0.77756 0.68861 0.67116 0.0
C908 C 0.81695 0.68157 0.65091 0.0
C909 C 0.84718 0.72353 0.64109 0.0
C910 C 0.88408 0.71561 0.62267 0.0
C911 C 0.89069 0.66516 0.61175 0.0
C912 C 0.86013 0.62343 0.62076 0.0
C913 C 0.82447 0.63156 0.64069 0.0
C914 C 0.62705 0.65157 0.6906 0.0
C915 C 0.70511 0.5345 0.6117 0.0
O916 O 0.5919 0.58675 0.51956 0.0
O917 O 0.58503 0.54738 0.58128 0.0
O918 O 0.67642 0.56951 0.51234 0.0
O919 O 0.69187 0.64721 0.54285 0.0
O920 O 0.62791 0.67693 0.58244 0.0
O921 O 0.69275 0.7237 0.61722 0.0
O922 O 0.75268 0.64666 0.67876 0.0
O923 O 0.75583 0.7155 0.64947 0.0
O924 O 0.65043 0.62264 0.66896 0.0
O925 O 0.65121 0.62464 0.6677 0.0
O926 O 0.72779 0.57847 0.60433 0.0
O927 O 0.66495 0.5337 0.60761 0.0
H928 H 0.49353 0.5064 0.57073 0.0
H929 H 0.43213 0.53763 0.59148 0.0
H930 H 0.48785 0.68499 0.5548 0.0
H931 H 0.5491 0.65448 0.53511 0.0
H932 H 0.84263 0.76258 0.64855 0.0
H933 H 0.90727 0.74878 0.61687 0.0
H934 H 0.86441 0.58422 0.61417 0.0
H935 H 0.80306 0.59811 0.64864 0.0
La936 La 0.22649 0.63215 0.08634 0.0
La937 La 0.14908 0.64257 0.13052 0.0
C938 C 0.30245 0.63607 0.08222 0.0
C939 C 0.33237 0.60526 0.09208 0.0
C940 C 0.36745 0.60952 0.06666 0.0
C941 C 0.39948 0.58711 0.08141 0.0
C942 C 0.39711 0.56139 0.12257 0.0
C943 C 0.361 0.55446 0.1459 0.0
C944 C 0.32851 0.57554 0.13011 0.0
C945 C 0.16544 0.63557 1.01875 0.0
C946 C 0.15527 0.52669 0.07775 0.0
C947 C 0.07575 0.63716 0.14807 0.0
C948 C 1.04279 0.66421 0.14404 0.0
C949 C 1.01469 0.66071 0.17953 0.0
C950 C 0.97891 0.6782 0.17207 0.0
C951 C 0.97073 0.69931 0.12883 0.0
C952 C 1.00051 0.70652 0.09546 0.0
C953 C 1.03649 0.68895 0.10303 0.0
C954 C 0.21073 0.63338 0.19668 0.0
C955 C 0.21021 0.74945 0.12376 0.0
O956 O 0.27266 0.61601 1.04195 0.0
O957 O 0.28881 0.65777 0.12322 0.0
O958 O 0.19323 0.61077 1.00648 0.0
O959 O 0.17513 0.66043 0.06503 0.0
O960 O 0.19565 0.54705 0.07588 0.0
O961 O 0.13154 0.55737 0.09523 0.0
O962 O 0.10902 0.66115 0.18294 0.0
O963 O 0.08472 0.614 0.10421 0.0
O964 O 0.18541 0.66186 0.20867 0.0
O965 O 0.19995 0.60951 0.15011 0.0
O966 O 0.17094 0.72567 0.12644 0.0
O967 O 0.23752 0.72041 0.11435 0.0
H968 H 0.37071 0.63164 1.03665 0.0
H969 H 0.42686 0.59184 0.06228 0.0
H970 H 0.35804 0.53299 0.17643 0.0
H971 H 0.30088 0.56967 0.14832 0.0
H972 H 1.01949 0.64233 0.21177 0.0
H973 H 0.95693 0.67346 0.19921 0.0
H974 H 0.99514 0.72345 0.06232 0.0
H975 H 0.05839 0.6928 0.07583 0.0
loop_
_geom_bond_atom_site_label_1
_geom_bond_atom_site_label_2
_geom_bond_distance
_geom_bond_site_symmetry_2
_ccdc_geom_bond_type
O0 Cd1 2.223 . S
O0 C8 1.315 . S
Cd1 O0 2.223 . S
Cd1 O4 2.297 . S
Cd1 O5 2.439 . S
Cd1 O11 2.240 . S
Cd2 O3 2.240 . S
Cd2 O10 2.223 . S
Cd2 O12 2.297 . S
Cd2 O13 2.439 . S
O3 Cd2 2.240 . S
O3 C8 1.279 . S
O4 Cd1 2.297 . S
O4 C6 1.247 . S
O5 Cd1 2.439 . S
O5 C6 1.208 . S
C6 O4 1.247 . S
C6 O5 1.208 . S
C7 O12 1.247 . S
C7 O13 1.208 . S
C8 O0 1.315 . S
C8 O3 1.279 . S
C9 O10 1.315 . S
C9 O11 1.279 . S
O10 Cd2 2.223 . S
O10 C9 1.315 . S
O11 Cd1 2.240 . S
O11 C9 1.279 . S
O12 Cd2 2.297 . S
O12 C7 1.247 . S
O13 Cd2 2.439 . S
O13 C7 1.208 . S
O14 Cd15 2.223 . S
O14 C22 1.315 . S
Cd15 O14 2.223 . S
Cd15 O18 2.297 . S
Cd15 O19 2.439 . S
Cd15 O25 2.240 1_655 S
Cd16 O17 2.240 1_455 S
Cd16 O24 2.223 . S
Cd16 O26 2.297 . S
Cd16 O27 2.438 . S
O17 Cd16 2.240 1_655 S
O17 C22 1.279 . S
O18 Cd15 2.297 . S
O18 C20 1.247 . S
O19 Cd15 2.439 . S
O19 C20 1.208 . S
C20 O18 1.247 . S
C20 O19 1.208 . S
C21 O26 1.247 . S
C21 O27 1.208 . S
C22 O14 1.315 . S
C22 O17 1.279 . S
C23 O24 1.315 . S
C23 O25 1.279 . S
O24 Cd16 2.223 . S
O24 C23 1.315 . S
O25 Cd15 2.240 1_455 S
O25 C23 1.279 . S
O26 Cd16 2.297 . S
O26 C21 1.247 . S
O27 Cd16 2.438 . S
O27 C21 1.208 . S
O28 Cd29 2.223 1_556 S
O28 C36 1.315 . S
Cd29 O28 2.223 1_554 S
Cd29 O32 2.297 . S
Cd29 O33 2.439 1_554 S
Cd29 O39 2.240 1_554 S
Cd30 O31 2.240 . S
Cd30 O38 2.223 1_565 S
Cd30 O40 2.297 . S
Cd30 O41 2.439 . S
O31 Cd30 2.240 . S
O31 C36 1.279 . S
O32 Cd29 2.297 . S
O32 C34 1.247 1_554 S
O33 Cd29 2.439 1_556 S
O33 C34 1.208 . S
C34 O32 1.247 1_556 S
C34 O33 1.208 . S
C35 O40 1.247 . S
C35 O41 1.208 . S
C36 O28 1.315 . S
C36 O31 1.279 . S
C37 O38 1.315 . S
C37 O39 1.279 1_545 S
O38 Cd30 2.223 1_545 S
O38 C37 1.315 . S
O39 Cd29 2.240 1_556 S
O39 C37 1.279 1_565 S
O40 Cd30 2.297 . S
O40 C35 1.247 . S
O41 Cd30 2.439 . S
O41 C35 1.208 . S
O42 Cd43 2.223 . S
O42 C50 1.315 . S
Cd43 O42 2.223 . S
Cd43 O46 2.297 . S
Cd43 O47 2.439 . S
Cd43 O53 2.240 . S
Cd44 O45 2.240 . S
Cd44 O52 2.223 . S
Cd44 O54 2.297 . S
Cd44 O55 2.439 . S
O45 Cd44 2.240 . S
O45 C50 1.279 . S
O46 Cd43 2.297 . S
O46 C48 1.247 . S
O47 Cd43 2.439 . S
O47 C48 1.208 . S
C48 O46 1.247 . S
C48 O47 1.208 . S
C49 O54 1.247 . S
C49 O55 1.208 . S
C50 O42 1.315 . S
C50 O45 1.279 . S
C51 O52 1.315 . S
C51 O53 1.279 . S
O52 Cd44 2.223 . S
O52 C51 1.315 . S
O53 Cd43 2.240 . S
O53 C51 1.279 . S
O54 Cd44 2.297 . S
O54 C49 1.247 . S
O55 Cd44 2.439 . S
O55 C49 1.208 . S
O56 Cd57 2.223 . S
O56 C64 1.315 . S
Cd57 O56 2.223 . S
Cd57 O60 2.297 . S
Cd57 O61 2.439 . S
Cd57 O67 2.240 . S
Cd58 O59 2.240 . S
Cd58 O66 2.223 . S
Cd58 O68 2.297 . S
Cd58 O69 2.439 . S
O59 Cd58 2.240 . S
O59 C64 1.279 . S
O60 Cd57 2.297 . S
O60 C62 1.247 . S
O61 Cd57 2.439 . S
O61 C62 1.208 . S
C62 O60 1.247 . S
C62 O61 1.208 . S
C63 O68 1.247 . S
C63 O69 1.208 . S
C64 O56 1.315 . S
C64 O59 1.279 . S
C65 O66 1.315 . S
C65 O67 1.279 . S
O66 Cd58 2.223 . S
O66 C65 1.315 . S
O67 Cd57 2.240 . S
O67 C65 1.279 . S
O68 Cd58 2.297 . S
O68 C63 1.247 . S
O69 Cd58 2.439 . S
O69 C63 1.208 . S
O70 Cd71 2.223 . S
O70 C78 1.315 . S
Cd71 O70 2.223 . S
Cd71 O74 2.297 . S
Cd71 O75 2.439 . S
Cd71 O81 2.240 . S
Cd72 O73 2.240 . S
Cd72 O80 2.223 . S
Cd72 O82 2.297 . S
Cd72 O83 2.439 . S
O73 Cd72 2.240 . S
O73 C78 1.279 . S
O74 Cd71 2.297 . S
O74 C76 1.247 . S
O75 Cd71 2.439 . S
O75 C76 1.208 . S
C76 O74 1.247 . S
C76 O75 1.208 . S
C77 O82 1.247 . S
C77 O83 1.208 . S
C78 O70 1.315 . S
C78 O73 1.279 . S
C79 O80 1.315 . S
C79 O81 1.279 . S
O80 Cd72 2.223 . S
O80 C79 1.315 . S
O81 Cd71 2.240 . S
O81 C79 1.279 . S
O82 Cd72 2.297 . S
O82 C77 1.247 . S
O83 Cd72 2.439 . S
O83 C77 1.208 . S
O84 Cd85 2.223 . S
O84 C92 1.315 . S
Cd85 O84 2.223 . S
Cd85 O88 2.297 . S
Cd85 O89 2.439 . S
Cd85 O95 2.240 . S
Cd86 O87 2.240 . S
Cd86 O94 2.223 . S
Cd86 O96 2.297 . S
Cd86 O97 2.439 . S
O87 Cd86 2.240 . S
O87 C92 1.279 . S
O88 Cd85 2.297 . S
O88 C90 1.247 . S
O89 Cd85 2.439 . S
O89 C90 1.208 . S
C90 O88 1.247 . S
C90 O89 1.208 . S
C91 O96 1.247 . S
C91 O97 1.208 . S
C92 O84 1.315 . S
C92 O87 1.279 . S
C93 O94 1.315 . S
C93 O95 1.279 . S
O94 Cd86 2.223 . S
O94 C93 1.315 . S
O95 Cd85 2.240 . S
O95 C93 1.279 . S
O96 Cd86 2.297 . S
O96 C91 1.247 . S
O97 Cd86 2.439 . S
O97 C91 1.208 . S
O98 Cd99 2.223 . S
O98 C106 1.315 . S
Cd99 O98 2.223 . S
Cd99 O102 2.297 . S
Cd99 O103 2.439 . S
Cd99 O109 2.240 . S
Cd100 O101 2.240 1_554 S
Cd100 O108 2.223 1_454 S
Cd100 O110 2.297 . S
Cd100 O111 2.439 . S
O101 Cd100 2.240 1_556 S
O101 C106 1.279 . S
O102 Cd99 2.297 . S
O102 C104 1.247 . S
O103 Cd99 2.439 . S
O103 C104 1.208 . S
C104 O102 1.247 . S
C104 O103 1.208 . S
C105 O110 1.247 . S
C105 O111 1.208 . S
C106 O98 1.315 . S
C106 O101 1.279 . S
C107 O108 1.315 . S
C107 O109 1.279 1_655 S
O108 Cd100 2.223 1_656 S
O108 C107 1.315 . S
O109 Cd99 2.240 . S
O109 C107 1.279 1_455 S
O110 Cd100 2.297 . S
O110 C105 1.247 . S
O111 Cd100 2.439 . S
O111 C105 1.208 . S
O112 Cd113 2.223 . S
O112 C120 1.315 . S
Cd113 O112 2.223 . S
Cd113 O116 2.297 1_565 S
Cd113 O117 2.439 1_565 S
Cd113 O123 2.240 . S
Cd114 O115 2.240 1_565 S
Cd114 O122 2.223 . S
Cd114 O124 2.297 . S
Cd114 O125 2.439 1_565 S
O115 Cd114 2.240 1_545 S
O115 C120 1.279 1_545 S
O116 Cd113 2.297 1_545 S
O116 C118 1.247 . S
O117 Cd113 2.439 1_545 S
O117 C118 1.208 . S
C118 O116 1.247 . S
C118 O117 1.208 . S
C119 O124 1.247 1_545 S
C119 O125 1.208 . S
C120 O112 1.315 . S
C120 O115 1.279 1_565 S
C121 O122 1.315 . S
C121 O123 1.279 . S
O122 Cd114 2.223 . S
O122 C121 1.315 . S
O123 Cd113 2.240 . S
O123 C121 1.279 . S
O124 Cd114 2.297 . S
O124 C119 1.247 1_565 S
O125 Cd114 2.439 1_545 S
O125 C119 1.208 . S
O126 Cd127 2.223 . S
O126 C134 1.315 . S
Cd127 O126 2.223 . S
Cd127 O130 2.297 . S
Cd127 O131 2.439 . S
Cd127 O137 2.240 . S
Cd128 O129 2.240 . S
Cd128 O136 2.223 . S
Cd128 O138 2.297 . S
Cd128 O139 2.439 . S
O129 Cd128 2.240 . S
O129 C134 1.279 . S
O130 Cd127 2.297 . S
O130 C132 1.247 . S
O131 Cd127 2.439 . S
O131 C132 1.208 . S
C132 O130 1.247 . S
C132 O131 1.208 . S
C133 O138 1.247 . S
C133 O139 1.208 . S
C134 O126 1.315 . S
C134 O129 1.279 . S
C135 O136 1.315 . S
C135 O137 1.279 . S
O136 Cd128 2.223 . S
O136 C135 1.315 . S
O137 Cd127 2.240 . S
O137 C135 1.279 . S
O138 Cd128 2.297 . S
O138 C133 1.247 . S
O139 Cd128 2.439 . S
O139 C133 1.208 . S
O140 Cd141 2.223 . S
O140 C148 1.315 . S
Cd141 O140 2.223 . S
Cd141 O144 2.297 1_545 S
Cd141 O145 2.439 1_545 S
Cd141 O151 2.240 . S
Cd142 O143 2.240 . S
Cd142 O150 2.223 . S
Cd142 O152 2.297 . S
Cd142 O153 2.439 . S
O143 Cd142 2.240 . S
O143 C148 1.279 . S
O144 Cd141 2.297 1_565 S
O144 C146 1.247 . S
O145 Cd141 2.439 1_565 S
O145 C146 1.208 . S
C146 O144 1.247 . S
C146 O145 1.208 . S
C147 O152 1.247 . S
C147 O153 1.208 . S
C148 O140 1.315 . S
C148 O143 1.279 . S
C149 O150 1.315 . S
C149 O151 1.279 . S
O150 Cd142 2.223 . S
O150 C149 1.315 . S
O151 Cd141 2.240 . S
O151 C149 1.279 . S
O152 Cd142 2.297 . S
O152 C147 1.247 . S
O153 Cd142 2.439 . S
O153 C147 1.208 . S
O154 Cd155 2.223 . S
O154 C162 1.315 1_545 S
Cd155 O154 2.223 . S
Cd155 O158 2.297 . S
Cd155 O159 2.439 1_554 S
Cd155 O165 2.240 . S
Cd156 O157 2.240 1_556 S
Cd156 O164 2.223 1_556 S
Cd156 O166 2.297 . S
Cd156 O167 2.439 . S
O157 Cd156 2.240 1_554 S
O157 C162 1.279 . S
O158 Cd155 2.297 . S
O158 C160 1.247 . S
O159 Cd155 2.439 1_556 S
O159 C160 1.208 1_556 S
C160 O158 1.247 . S
C160 O159 1.208 1_554 S
C161 O166 1.247 . S
C161 O167 1.208 . S
C162 O154 1.315 1_565 S
C162 O157 1.279 . S
C163 O164 1.315 1_545 S
C163 O165 1.279 . S
O164 Cd156 2.223 1_554 S
O164 C163 1.315 1_565 S
O165 Cd155 2.240 . S
O165 C163 1.279 . S
O166 Cd156 2.297 . S
O166 C161 1.247 . S
O167 Cd156 2.439 . S
O167 C161 1.208 . S
O168 Cd169 2.223 . S
O168 C176 1.315 . S
Cd169 O168 2.223 . S
Cd169 O172 2.297 . S
Cd169 O173 2.439 . S
Cd169 O179 2.240 . S
Cd170 O171 2.240 . S
Cd170 O178 2.223 . S
Cd170 O180 2.297 1_554 S
Cd170 O181 2.439 1_554 S
O171 Cd170 2.240 . S
O171 C176 1.279 . S
O172 Cd169 2.297 . S
O172 C174 1.247 . S
O173 Cd169 2.439 . S
O173 C174 1.208 . S
C174 O172 1.247 . S
C174 O173 1.208 . S
C175 O180 1.247 . S
C175 O181 1.208 . S
C176 O168 1.315 . S
C176 O171 1.279 . S
C177 O178 1.315 . S
C177 O179 1.279 . S
O178 Cd170 2.223 . S
O178 C177 1.315 . S
O179 Cd169 2.240 . S
O179 C177 1.279 . S
O180 Cd170 2.297 1_556 S
O180 C175 1.247 . S
O181 Cd170 2.439 1_556 S
O181 C175 1.208 . S
O182 Cd183 2.223 . S
O182 C190 1.315 . S
Cd183 O182 2.223 . S
Cd183 O186 2.297 . S
Cd183 O187 2.439 . S
Cd183 O193 2.240 . S
Cd184 O185 2.240 . S
Cd184 O192 2.223 . S
Cd184 O194 2.297 . S
Cd184 O195 2.439 1_554 S
O185 Cd184 2.240 . S
O185 C190 1.279 . S
O186 Cd183 2.297 . S
O186 C188 1.247 . S
O187 Cd183 2.439 . S
O187 C188 1.208 . S
C188 O186 1.247 . S
C188 O187 1.208 . S
C189 O194 1.247 1_556 S
C189 O195 1.208 . S
C190 O182 1.315 . S
C190 O185 1.279 . S
C191 O192 1.315 . S
C191 O193 1.279 . S
O192 Cd184 2.223 . S
O192 C191 1.315 . S
O193 Cd183 2.240 . S
O193 C191 1.279 . S
O194 Cd184 2.297 . S
O194 C189 1.247 1_554 S
O195 Cd184 2.439 1_556 S
O195 C189 1.208 . S
O196 Cd197 2.223 . S
O196 C204 1.315 . S
Cd197 O196 2.223 . S
Cd197 O200 2.297 . S
Cd197 O201 2.439 . S
Cd197 O207 2.240 . S
Cd198 O199 2.240 . S
Cd198 O206 2.223 . S
Cd198 O208 2.297 . S
Cd198 O209 2.439 . S
O199 Cd198 2.240 . S
O199 C204 1.279 . S
O200 Cd197 2.297 . S
O200 C202 1.247 . S
O201 Cd197 2.439 . S
O201 C202 1.208 . S
C202 O200 1.247 . S
C202 O201 1.208 . S
C203 O208 1.247 . S
C203 O209 1.208 . S
C204 O196 1.315 . S
C204 O199 1.279 . S
C205 O206 1.315 . S
C205 O207 1.279 . S
O206 Cd198 2.223 . S
O206 C205 1.315 . S
O207 Cd197 2.240 . S
O207 C205 1.279 . S
O208 Cd198 2.297 . S
O208 C203 1.247 . S
O209 Cd198 2.439 . S
O209 C203 1.208 . S
O210 Cd211 2.223 . S
O210 C218 1.315 . S
Cd211 O210 2.223 . S
Cd211 O214 2.297 . S
Cd211 O215 2.439 . S
Cd211 O221 2.240 . S
Cd212 O213 2.240 . S
Cd212 O220 2.223 . S
Cd212 O222 2.297 . S
Cd212 O223 2.439 . S
O213 Cd212 2.240 . S
O213 C218 1.279 . S
O214 Cd211 2.297 . S
O214 C216 1.247 . S
O215 Cd211 2.439 . S
O215 C216 1.208 . S
C216 O214 1.247 . S
C216 O215 1.208 . S
C217 O222 1.247 . S
C217 O223 1.208 . S
C218 O210 1.315 . S
C218 O213 1.279 . S
C219 O220 1.315 . S
C219 O221 1.279 . S
O220 Cd212 2.223 . S
O220 C219 1.315 . S
O221 Cd211 2.240 . S
O221 C219 1.279 . S
O222 Cd212 2.297 . S
O222 C217 1.247 . S
O223 Cd212 2.439 . S
O223 C217 1.208 . S
O224 Cd225 2.223 . S
O224 C232 1.315 1_655 S
Cd225 O224 2.223 . S
Cd225 O228 2.297 . S
Cd225 O229 2.439 . S
Cd225 O235 2.240 . S
Cd226 O227 2.240 . S
Cd226 O234 2.223 1_545 S
Cd226 O236 2.297 . S
Cd226 O237 2.439 . S
O227 Cd226 2.240 . S
O227 C232 1.279 . S
O228 Cd225 2.297 . S
O228 C230 1.247 . S
O229 Cd225 2.439 . S
O229 C230 1.208 . S
C230 O228 1.247 . S
C230 O229 1.208 . S
C231 O236 1.247 . S
C231 O237 1.208 . S
C232 O224 1.315 1_455 S
C232 O227 1.279 . S
C233 O234 1.315 1_655 S
C233 O235 1.279 1_565 S
O234 Cd226 2.223 1_565 S
O234 C233 1.315 1_455 S
O235 Cd225 2.240 . S
O235 C233 1.279 1_545 S
O236 Cd226 2.297 . S
O236 C231 1.247 . S
O237 Cd226 2.439 . S
O237 C231 1.208 . S
O238 Cd239 2.223 . S
O238 C246 1.315 . S
Cd239 O238 2.223 . S
Cd239 O242 2.297 . S
Cd239 O243 2.439 . S
Cd239 O249 2.240 . S
Cd240 O241 2.240 . S
Cd240 O248 2.223 . S
Cd240 O250 2.297 . S
Cd240 O251 2.439 . S
O241 Cd240 2.240 . S
O241 C246 1.279 . S
O242 Cd239 2.297 . S
O242 C244 1.247 . S
O243 Cd239 2.439 . S
O243 C244 1.208 . S
C244 O242 1.247 . S
C244 O243 1.208 . S
C245 O250 1.247 . S
C245 O251 1.208 . S
C246 O238 1.315 . S
C246 O241 1.279 . S
C247 O248 1.315 . S
C247 O249 1.279 . S
O248 Cd240 2.223 . S
O248 C247 1.315 . S
O249 Cd239 2.240 . S
O249 C247 1.279 . S
O250 Cd240 2.297 . S
O250 C245 1.247 . S
O251 Cd240 2.439 . S
O251 C245 1.208 . S
O252 Cd253 2.223 . S
O252 C260 1.315 . S
Cd253 O252 2.223 . S
Cd253 O256 2.297 . S
Cd253 O257 2.439 . S
Cd253 O263 2.240 . S
Cd254 O255 2.240 . S
Cd254 O262 2.223 . S
Cd254 O264 2.297 . S
Cd254 O265 2.439 . S
O255 Cd254 2.240 . S
O255 C260 1.279 . S
O256 Cd253 2.297 . S
O256 C258 1.247 . S
O257 Cd253 2.439 . S
O257 C258 1.208 . S
C258 O256 1.247 . S
C258 O257 1.208 . S
C259 O264 1.247 . S
C259 O265 1.208 . S
C260 O252 1.315 . S
C260 O255 1.279 . S
C261 O262 1.315 . S
C261 O263 1.279 . S
O262 Cd254 2.223 . S
O262 C261 1.315 . S
O263 Cd253 2.240 . S
O263 C261 1.279 . S
O264 Cd254 2.297 . S
O264 C259 1.247 . S
O265 Cd254 2.439 . S
O265 C259 1.208 . S
O266 Cd267 2.223 . S
O266 C274 1.315 . S
Cd267 O266 2.223 . S
Cd267 O270 2.297 . S
Cd267 O271 2.439 . S
Cd267 O277 2.240 . S
Cd268 O269 2.240 . S
Cd268 O276 2.223 . S
Cd268 O278 2.297 . S
Cd268 O279 2.439 . S
O269 Cd268 2.240 . S
O269 C274 1.279 . S
O270 Cd267 2.297 . S
O270 C272 1.247 . S
O271 Cd267 2.439 . S
O271 C272 1.208 . S
C272 O270 1.247 . S
C272 O271 1.208 . S
C273 O278 1.247 . S
C273 O279 1.208 . S
C274 O266 1.315 . S
C274 O269 1.279 . S
C275 O276 1.315 . S
C275 O277 1.279 . S
O276 Cd268 2.223 . S
O276 C275 1.315 . S
O277 Cd267 2.240 . S
O277 C275 1.279 . S
O278 Cd268 2.297 . S
O278 C273 1.247 . S
O279 Cd268 2.439 . S
O279 C273 1.208 . S
O280 Cd281 2.223 . S
O280 C288 1.315 . S
Cd281 O280 2.223 . S
Cd281 O284 2.297 . S
Cd281 O285 2.439 . S
Cd281 O291 2.240 . S
Cd282 O283 2.240 . S
Cd282 O290 2.223 . S
Cd282 O292 2.297 1_554 S
Cd282 O293 2.439 1_554 S
O283 Cd282 2.240 . S
O283 C288 1.279 . S
O284 Cd281 2.297 . S
O284 C286 1.247 . S
O285 Cd281 2.439 . S
O285 C286 1.208 . S
C286 O284 1.247 . S
C286 O285 1.208 . S
C287 O292 1.247 . S
C287 O293 1.208 . S
C288 O280 1.315 . S
C288 O283 1.279 . S
C289 O290 1.315 . S
C289 O291 1.279 . S
O290 Cd282 2.223 . S
O290 C289 1.315 . S
O291 Cd281 2.240 . S
O291 C289 1.279 . S
O292 Cd282 2.297 1_556 S
O292 C287 1.247 . S
O293 Cd282 2.439 1_556 S
O293 C287 1.208 . S
O294 Cd295 2.223 . S
O294 C302 1.315 1_655 S
Cd295 O294 2.223 . S
Cd295 O298 2.297 . S
Cd295 O299 2.439 . S
Cd295 O305 2.240 . S
Cd296 O297 2.240 . S
Cd296 O304 2.223 . S
Cd296 O306 2.297 . S
Cd296 O307 2.439 . S
O297 Cd296 2.240 . S
O297 C302 1.279 . S
O298 Cd295 2.297 . S
O298 C300 1.247 . S
O299 Cd295 2.439 . S
O299 C300 1.208 . S
C300 O298 1.247 . S
C300 O299 1.208 . S
C301 O306 1.247 . S
C301 O307 1.208 . S
C302 O294 1.315 1_455 S
C302 O297 1.279 . S
C303 O304 1.315 1_655 S
C303 O305 1.279 . S
O304 Cd296 2.223 . S
O304 C303 1.315 1_455 S
O305 Cd295 2.240 . S
O305 C303 1.279 . S
O306 Cd296 2.297 . S
O306 C301 1.247 . S
O307 Cd296 2.439 . S
O307 C301 1.208 . S
O308 Cd309 2.223 . S
O308 C316 1.315 . S
Cd309 O308 2.223 . S
Cd309 O312 2.297 . S
Cd309 O313 2.439 . S
Cd309 O319 2.240 . S
Cd310 O311 2.240 . S
Cd310 O318 2.223 1_655 S
Cd310 O320 2.297 . S
Cd310 O321 2.439 . S
O311 Cd310 2.240 . S
O311 C316 1.279 . S
O312 Cd309 2.297 . S
O312 C314 1.247 . S
O313 Cd309 2.439 . S
O313 C314 1.208 . S
C314 O312 1.247 . S
C314 O313 1.208 . S
C315 O320 1.247 . S
C315 O321 1.208 . S
C316 O308 1.315 . S
C316 O311 1.279 . S
C317 O318 1.315 . S
C317 O319 1.279 1_455 S
O318 Cd310 2.223 1_455 S
O318 C317 1.315 . S
O319 Cd309 2.240 . S
O319 C317 1.279 1_655 S
O320 Cd310 2.297 . S
O320 C315 1.247 . S
O321 Cd310 2.439 . S
O321 C315 1.208 . S
O322 Cd323 2.223 . S
O322 C330 1.315 . S
Cd323 O322 2.223 . S
Cd323 O326 2.297 . S
Cd323 O327 2.439 . S
Cd323 O333 2.240 . S
Cd324 O325 2.240 . S
Cd324 O332 2.223 . S
Cd324 O334 2.297 . S
Cd324 O335 2.439 . S
O325 Cd324 2.240 . S
O325 C330 1.279 . S
O326 Cd323 2.297 . S
O326 C328 1.247 . S
O327 Cd323 2.439 . S
O327 C328 1.208 . S
C328 O326 1.247 . S
C328 O327 1.208 . S
C329 O334 1.247 . S
C329 O335 1.208 . S
C330 O322 1.315 . S
C330 O325 1.279 . S
C331 O332 1.315 . S
C331 O333 1.279 . S
O332 Cd324 2.223 . S
O332 C331 1.315 . S
O333 Cd323 2.240 . S
O333 C331 1.279 . S
O334 Cd324 2.297 . S
O334 C329 1.247 . S
O335 Cd324 2.439 . S
O335 C329 1.208 . S
La336 C338 2.928 1_454 S
La336 O356 2.521 1_454 S
La336 O357 2.628 1_455 S
La336 O358 2.554 1_554 S
La336 O359 2.763 . S
La336 O360 2.470 . S
La336 O365 2.482 . S
La336 O367 2.503 1_545 S
La337 C347 2.928 . S
La337 O359 2.493 . S
La337 O361 2.503 . S
La337 O362 2.521 . S
La337 O363 2.628 . S
La337 O364 2.554 . S
La337 O365 2.757 . S
La337 O366 2.470 . S
C338 La336 2.928 1_656 S
C338 C339 1.503 . S
C338 O356 1.261 . S
C338 O357 1.243 1_556 S
C339 C338 1.503 . S
C339 C340 1.394 . S
C339 C344 1.373 1_556 S
C340 C339 1.394 . S
C340 C341 1.380 . S
C340 H368 0.930 . S
C341 C340 1.380 . S
C341 C342 1.376 . S
C341 H369 0.930 . S
C342 C341 1.376 . S
C342 C343 1.370 1_556 S
C343 C342 1.370 1_554 S
C343 C344 1.396 . S
C343 H370 0.929 . S
C344 C339 1.373 1_554 S
C344 C343 1.396 . S
C344 H371 0.929 . S
C345 O358 1.240 . S
C345 O359 1.275 1_556 S
C346 O360 1.258 . S
C346 O361 1.256 . S
C347 La337 2.928 . S
C347 C348 1.503 . S
C347 O362 1.261 . S
C347 O363 1.243 . S
C348 C347 1.503 . S
C348 C349 1.394 . S
C348 C353 1.373 . S
C349 C348 1.394 . S
C349 C350 1.380 . S
C349 H372 0.930 . S
C350 C349 1.380 . S
C350 C351 1.376 . S
C350 H373 0.930 . S
C351 C350 1.376 . S
C351 C352 1.370 . S
C352 C351 1.370 . S
C352 C353 1.396 . S
C352 H374 0.929 . S
C353 C348 1.373 . S
C353 C352 1.396 . S
C353 H375 0.929 . S
C354 O364 1.240 . S
C354 O365 1.289 . S
C355 O366 1.258 1_565 S
C355 O367 1.256 . S
O356 La336 2.521 1_656 S
O356 C338 1.261 . S
O357 La336 2.628 1_655 S
O357 C338 1.243 1_554 S
O358 La336 2.554 1_556 S
O358 C345 1.240 . S
O359 La336 2.763 . S
O359 La337 2.493 . S
O359 C345 1.275 1_554 S
O360 La336 2.470 . S
O360 C346 1.258 . S
O361 La337 2.503 . S
O361 C346 1.256 . S
O362 La337 2.521 . S
O362 C347 1.261 . S
O363 La337 2.628 . S
O363 C347 1.243 . S
O364 La337 2.554 . S
O364 C354 1.240 . S
O365 La336 2.482 . S
O365 La337 2.757 . S
O365 C354 1.289 . S
O366 La337 2.470 . S
O366 C355 1.258 1_545 S
O367 La336 2.503 1_565 S
O367 C355 1.256 . S
H368 C340 0.930 . S
H369 C341 0.930 . S
H370 C343 0.929 . S
H371 C344 0.929 . S
H372 C349 0.930 . S
H373 C350 0.930 . S
H374 C352 0.929 . S
H375 C353 0.929 . S
La376 C378 2.928 . S
La376 O396 2.521 . S
La376 O397 2.628 . S
La376 O398 2.554 . S
La376 O399 2.757 . S
La376 O400 2.470 . S
La376 O405 2.482 . S
La376 O407 2.503 . S
La377 C387 2.928 . S
La377 O399 2.482 . S
La377 O401 2.503 . S
La377 O402 2.521 . S
La377 O403 2.628 . S
La377 O404 2.554 . S
La377 O405 2.757 . S
La377 O406 2.470 . S
C378 La376 2.928 . S
C378 C379 1.503 . S
C378 O396 1.261 . S
C378 O397 1.243 . S
C379 C378 1.503 . S
C379 C380 1.394 . S
C379 C384 1.373 . S
C380 C379 1.394 . S
C380 C381 1.380 . S
C380 H408 0.930 . S
C381 C380 1.380 . S
C381 C382 1.376 . S
C381 H409 0.930 . S
C382 C381 1.376 . S
C382 C383 1.370 . S
C383 C382 1.370 . S
C383 C384 1.396 . S
C383 H410 0.929 . S
C384 C379 1.373 . S
C384 C383 1.396 . S
C384 H411 0.929 . S
C385 O398 1.240 . S
C385 O399 1.289 . S
C386 O400 1.258 . S
C386 O401 1.256 . S
C387 La377 2.928 . S
C387 C388 1.503 . S
C387 O402 1.261 . S
C387 O403 1.243 . S
C388 C387 1.503 . S
C388 C389 1.394 . S
C388 C393 1.373 . S
C389 C388 1.394 . S
C389 C390 1.380 . S
C389 H412 0.930 . S
C390 C389 1.380 . S
C390 C391 1.376 . S
C390 H413 0.930 . S
C391 C390 1.376 . S
C391 C392 1.370 . S
C392 C391 1.370 . S
C392 C393 1.396 . S
C392 H414 0.929 . S
C393 C388 1.373 . S
C393 C392 1.396 . S
C393 H415 0.929 . S
C394 O404 1.240 . S
C394 O405 1.289 . S
C395 O406 1.258 . S
C395 O407 1.256 . S
O396 La376 2.521 . S
O396 C378 1.261 . S
O397 La376 2.628 . S
O397 C378 1.243 . S
O398 La376 2.554 . S
O398 C385 1.240 . S
O399 La376 2.757 . S
O399 La377 2.482 . S
O399 C385 1.289 . S
O400 La376 2.470 . S
O400 C386 1.258 . S
O401 La377 2.503 . S
O401 C386 1.256 . S
O402 La377 2.521 . S
O402 C387 1.261 . S
O403 La377 2.628 . S
O403 C387 1.243 . S
O404 La377 2.554 . S
O404 C394 1.240 . S
O405 La376 2.482 . S
O405 La377 2.757 . S
O405 C394 1.289 . S
O406 La377 2.470 . S
O406 C395 1.258 . S
O407 La376 2.503 . S
O407 C395 1.256 . S
H408 C380 0.930 . S
H409 C381 0.930 . S
H410 C383 0.929 . S
H411 C384 0.929 . S
H412 C389 0.930 . S
H413 C390 0.930 . S
H414 C392 0.929 . S
H415 C393 0.929 . S
La416 C418 2.928 . S
La416 O436 2.521 . S
La416 O437 2.628 . S
La416 O438 2.554 . S
La416 O439 2.757 . S
La416 O440 2.470 1_545 S
La416 O445 2.482 . S
La416 O447 2.503 . S
La417 C427 2.928 . S
La417 O439 2.482 . S
La417 O441 2.503 1_545 S
La417 O442 2.521 . S
La417 O443 2.628 . S
La417 O444 2.554 . S
La417 O445 2.757 . S
La417 O446 2.470 . S
C418 La416 2.928 . S
C418 C419 1.503 1_545 S
C418 O436 1.261 . S
C418 O437 1.243 . S
C419 C418 1.503 1_565 S
C419 C420 1.394 . S
C419 C424 1.373 . S
C420 C419 1.394 . S
C420 C421 1.380 . S
C420 H448 0.928 . S
C421 C420 1.380 . S
C421 C422 1.376 . S
C421 H449 0.930 . S
C422 C421 1.376 . S
C422 C423 1.370 . S
C423 C422 1.370 . S
C423 C424 1.396 . S
C423 H450 0.929 . S
C424 C419 1.373 . S
C424 C423 1.396 . S
C424 H451 0.929 . S
C425 O438 1.240 . S
C425 O439 1.289 . S
C426 O440 1.258 . S
C426 O441 1.256 . S
C427 La417 2.928 . S
C427 C428 1.503 . S
C427 O442 1.261 . S
C427 O443 1.243 . S
C428 C427 1.503 . S
C428 C429 1.394 . S
C428 C433 1.373 . S
C429 C428 1.394 . S
C429 C430 1.380 . S
C429 H452 0.930 . S
C430 C429 1.380 . S
C430 C431 1.376 . S
C430 H453 0.930 . S
C431 C430 1.376 . S
C431 C432 1.370 . S
C432 C431 1.370 . S
C432 C433 1.396 . S
C432 H454 0.929 . S
C433 C428 1.373 . S
C433 C432 1.396 . S
C433 H455 0.929 . S
C434 O444 1.240 . S
C434 O445 1.289 . S
C435 O446 1.258 . S
C435 O447 1.256 . S
O436 La416 2.521 . S
O436 C418 1.261 . S
O437 La416 2.628 . S
O437 C418 1.243 . S
O438 La416 2.554 . S
O438 C425 1.240 . S
O439 La416 2.757 . S
O439 La417 2.482 . S
O439 C425 1.289 . S
O440 La416 2.470 1_565 S
O440 C426 1.258 . S
O441 La417 2.503 1_565 S
O441 C426 1.256 . S
O442 La417 2.521 . S
O442 C427 1.261 . S
O443 La417 2.628 . S
O443 C427 1.243 . S
O444 La417 2.554 . S
O444 C434 1.240 . S
O445 La416 2.482 . S
O445 La417 2.757 . S
O445 C434 1.289 . S
O446 La417 2.470 . S
O446 C435 1.258 . S
O447 La416 2.503 . S
O447 C435 1.256 . S
H448 C420 0.928 . S
H449 C421 0.930 . S
H450 C423 0.929 . S
H451 C424 0.929 . S
H452 C429 0.930 . S
H453 C430 0.930 . S
H454 C432 0.929 . S
H455 C433 0.929 . S
La456 C458 2.928 . S
La456 O476 2.521 . S
La456 O477 2.628 . S
La456 O478 2.554 . S
La456 O479 2.757 . S
La456 O480 2.470 . S
La456 O485 2.482 . S
La456 O487 2.503 . S
La457 C467 2.928 . S
La457 O479 2.482 . S
La457 O481 2.503 . S
La457 O482 2.521 . S
La457 O483 2.628 . S
La457 O484 2.554 . S
La457 O485 2.757 . S
La457 O486 2.470 . S
C458 La456 2.928 . S
C458 C459 1.503 . S
C458 O476 1.261 . S
C458 O477 1.243 . S
C459 C458 1.503 . S
C459 C460 1.394 . S
C459 C464 1.373 . S
C460 C459 1.394 . S
C460 C461 1.380 . S
C460 H488 0.930 . S
C461 C460 1.380 . S
C461 C462 1.376 . S
C461 H489 0.930 . S
C462 C461 1.376 . S
C462 C463 1.370 . S
C463 C462 1.370 . S
C463 C464 1.396 . S
C463 H490 0.929 . S
C464 C459 1.373 . S
C464 C463 1.396 . S
C464 H491 0.929 . S
C465 O478 1.240 . S
C465 O479 1.289 . S
C466 O480 1.258 . S
C466 O481 1.256 . S
C467 La457 2.928 . S
C467 C468 1.503 . S
C467 O482 1.261 . S
C467 O483 1.243 . S
C468 C467 1.503 . S
C468 C469 1.394 . S
C468 C473 1.373 . S
C469 C468 1.394 . S
C469 C470 1.380 . S
C469 H492 0.930 . S
C470 C469 1.380 . S
C470 C471 1.376 . S
C470 H493 0.930 . S
C471 C470 1.376 . S
C471 C472 1.370 . S
C472 C471 1.370 . S
C472 C473 1.396 . S
C472 H494 0.929 . S
C473 C468 1.373 . S
C473 C472 1.396 . S
C473 H495 0.929 . S
C474 O484 1.240 . S
C474 O485 1.289 . S
C475 O486 1.258 . S
C475 O487 1.256 . S
O476 La456 2.521 . S
O476 C458 1.261 . S
O477 La456 2.628 . S
O477 C458 1.243 . S
O478 La456 2.554 . S
O478 C465 1.240 . S
O479 La456 2.757 . S
O479 La457 2.482 . S
O479 C465 1.289 . S
O480 La456 2.470 . S
O480 C466 1.258 . S
O481 La457 2.503 . S
O481 C466 1.256 . S
O482 La457 2.521 . S
O482 C467 1.261 . S
O483 La457 2.628 . S
O483 C467 1.243 . S
O484 La457 2.554 . S
O484 C474 1.240 . S
O485 La456 2.482 . S
O485 La457 2.757 . S
O485 C474 1.289 . S
O486 La457 2.470 . S
O486 C475 1.258 . S
O487 La456 2.503 . S
O487 C475 1.256 . S
H488 C460 0.930 . S
H489 C461 0.930 . S
H490 C463 0.929 . S
H491 C464 0.929 . S
H492 C469 0.930 . S
H493 C470 0.930 . S
H494 C472 0.929 . S
H495 C473 0.929 . S
La496 C498 2.928 . S
La496 O516 2.521 . S
La496 O517 2.628 . S
La496 O518 2.554 . S
La496 O519 2.757 . S
La496 O520 2.470 . S
La496 O525 2.482 . S
La496 O527 2.503 . S
La497 C507 2.928 . S
La497 O519 2.482 1_565 S
La497 O521 2.503 1_565 S
La497 O522 2.521 . S
La497 O523 2.628 . S
La497 O524 2.554 1_565 S
La497 O525 2.757 1_565 S
La497 O526 2.470 1_565 S
C498 La496 2.928 . S
C498 C499 1.503 . S
C498 O516 1.261 . S
C498 O517 1.243 . S
C499 C498 1.503 . S
C499 C500 1.394 . S
C499 C504 1.373 . S
C500 C499 1.394 . S
C500 C501 1.380 . S
C500 H528 0.930 . S
C501 C500 1.380 . S
C501 C502 1.376 . S
C501 H529 0.930 . S
C502 C501 1.376 . S
C502 C503 1.370 . S
C503 C502 1.370 . S
C503 C504 1.396 . S
C503 H530 0.929 . S
C504 C499 1.373 . S
C504 C503 1.396 . S
C504 H531 0.929 . S
C505 O518 1.240 . S
C505 O519 1.289 . S
C506 O520 1.258 . S
C506 O521 1.256 . S
C507 La497 2.928 . S
C507 C508 1.503 . S
C507 O522 1.261 . S
C507 O523 1.243 . S
C508 C507 1.503 . S
C508 C509 1.394 . S
C508 C513 1.373 . S
C509 C508 1.394 . S
C509 C510 1.380 . S
C509 H532 0.930 . S
C510 C509 1.380 . S
C510 C511 1.376 . S
C510 H533 0.930 . S
C511 C510 1.376 . S
C511 C512 1.370 . S
C512 C511 1.370 . S
C512 C513 1.396 . S
C512 H534 0.929 . S
C513 C508 1.373 . S
C513 C512 1.396 . S
C513 H535 0.929 . S
C514 O524 1.240 . S
C514 O525 1.289 . S
C515 O526 1.258 . S
C515 O527 1.256 . S
O516 La496 2.521 . S
O516 C498 1.261 . S
O517 La496 2.628 . S
O517 C498 1.243 . S
O518 La496 2.554 . S
O518 C505 1.240 . S
O519 La496 2.757 . S
O519 La497 2.482 1_545 S
O519 C505 1.289 . S
O520 La496 2.470 . S
O520 C506 1.258 . S
O521 La497 2.503 1_545 S
O521 C506 1.256 . S
O522 La497 2.521 . S
O522 C507 1.261 . S
O523 La497 2.628 . S
O523 C507 1.243 . S
O524 La497 2.554 1_545 S
O524 C514 1.240 . S
O525 La496 2.482 . S
O525 La497 2.757 1_545 S
O525 C514 1.289 . S
O526 La497 2.470 1_545 S
O526 C515 1.258 . S
O527 La496 2.503 . S
O527 C515 1.256 . S
H528 C500 0.930 . S
H529 C501 0.930 . S
H530 C503 0.929 . S
H531 C504 0.929 . S
H532 C509 0.930 . S
H533 C510 0.930 . S
H534 C512 0.929 . S
H535 C513 0.929 . S
La536 C538 2.928 . S
La536 O556 2.521 . S
La536 O557 2.628 . S
La536 O558 2.554 . S
La536 O559 2.757 . S
La536 O560 2.470 . S
La536 O565 2.482 . S
La536 O567 2.503 . S
La537 C547 2.928 . S
La537 O559 2.482 . S
La537 O561 2.503 . S
La537 O562 2.521 . S
La537 O563 2.628 . S
La537 O564 2.554 . S
La537 O565 2.757 . S
La537 O566 2.470 . S
C538 La536 2.928 . S
C538 C539 1.503 . S
C538 O556 1.261 . S
C538 O557 1.243 . S
C539 C538 1.503 . S
C539 C540 1.394 . S
C539 C544 1.373 . S
C540 C539 1.394 . S
C540 C541 1.380 . S
C540 H568 0.930 . S
C541 C540 1.380 . S
C541 C542 1.376 . S
C541 H569 0.930 . S
C542 C541 1.376 . S
C542 C543 1.370 . S
C543 C542 1.370 . S
C543 C544 1.396 . S
C543 H570 0.929 . S
C544 C539 1.373 . S
C544 C543 1.396 . S
C544 H571 0.929 . S
C545 O558 1.240 . S
C545 O559 1.289 . S
C546 O560 1.258 . S
C546 O561 1.256 . S
C547 La537 2.928 . S
C547 C548 1.503 . S
C547 O562 1.261 . S
C547 O563 1.243 . S
C548 C547 1.503 . S
C548 C549 1.394 . S
C548 C553 1.373 . S
C549 C548 1.394 . S
C549 C550 1.380 . S
C549 H572 0.930 . S
C550 C549 1.380 . S
C550 C551 1.376 . S
C550 H573 0.930 . S
C551 C550 1.376 . S
C551 C552 1.370 . S
C552 C551 1.370 . S
C552 C553 1.396 . S
C552 H574 0.929 . S
C553 C548 1.373 . S
C553 C552 1.396 . S
C553 H575 0.929 . S
C554 O564 1.240 . S
C554 O565 1.289 . S
C555 O566 1.258 . S
C555 O567 1.256 . S
O556 La536 2.521 . S
O556 C538 1.261 . S
O557 La536 2.628 . S
O557 C538 1.243 . S
O558 La536 2.554 . S
O558 C545 1.240 . S
O559 La536 2.757 . S
O559 La537 2.482 . S
O559 C545 1.289 . S
O560 La536 2.470 . S
O560 C546 1.258 . S
O561 La537 2.503 . S
O561 C546 1.256 . S
O562 La537 2.521 . S
O562 C547 1.261 . S
O563 La537 2.628 . S
O563 C547 1.243 . S
O564 La537 2.554 . S
O564 C554 1.240 . S
O565 La536 2.482 . S
O565 La537 2.757 . S
O565 C554 1.289 . S
O566 La537 2.470 . S
O566 C555 1.258 . S
O567 La536 2.503 . S
O567 C555 1.256 . S
H568 C540 0.930 . S
H569 C541 0.930 . S
H570 C543 0.929 . S
H571 C544 0.929 . S
H572 C549 0.930 . S
H573 C550 0.930 . S
H574 C552 0.929 . S
H575 C553 0.929 . S
La576 C578 2.928 . S
La576 O596 2.521 . S
La576 O597 2.628 . S
La576 O598 2.554 1_545 S
La576 O599 2.757 . S
La576 O600 2.470 . S
La576 O605 2.482 . S
La576 O607 2.503 . S
La577 C587 2.928 1_554 S
La577 O599 2.482 . S
La577 O601 2.503 . S
La577 O602 2.521 1_554 S
La577 O603 2.628 1_554 S
La577 O604 2.554 . S
La577 O605 2.757 . S
La577 O606 2.470 . S
C578 La576 2.928 . S
C578 C579 1.503 . S
C578 O596 1.261 . S
C578 O597 1.243 . S
C579 C578 1.503 . S
C579 C580 1.394 1_545 S
C579 C584 1.373 . S
C580 C579 1.394 1_565 S
C580 C581 1.380 . S
C580 H608 0.930 . S
C581 C580 1.380 . S
C581 C582 1.376 . S
C581 H609 0.930 . S
C582 C581 1.376 . S
C582 C583 1.370 1_565 S
C583 C582 1.370 1_545 S
C583 C584 1.396 . S
C583 H610 0.929 . S
C584 C579 1.373 . S
C584 C583 1.396 . S
C584 H611 0.929 . S
C585 O598 1.240 1_545 S
C585 O599 1.289 . S
C586 O600 1.258 . S
C586 O601 1.256 . S
C587 La577 2.928 1_556 S
C587 C588 1.503 . S
C587 O602 1.261 . S
C587 O603 1.243 . S
C588 C587 1.503 . S
C588 C589 1.394 . S
C588 C593 1.373 . S
C589 C588 1.394 . S
C589 C590 1.380 . S
C589 H612 0.930 . S
C590 C589 1.380 . S
C590 C591 1.376 . S
C590 H613 0.930 . S
C591 C590 1.376 . S
C591 C592 1.370 . S
C592 C591 1.370 . S
C592 C593 1.396 . S
C592 H614 0.929 . S
C593 C588 1.373 . S
C593 C592 1.396 . S
C593 H615 0.929 . S
C594 O604 1.240 . S
C594 O605 1.289 . S
C595 O606 1.258 . S
C595 O607 1.256 . S
O596 La576 2.521 . S
O596 C578 1.261 . S
O597 La576 2.628 . S
O597 C578 1.243 . S
O598 La576 2.554 1_565 S
O598 C585 1.240 1_565 S
O599 La576 2.757 . S
O599 La577 2.482 . S
O599 C585 1.289 . S
O600 La576 2.470 . S
O600 C586 1.258 . S
O601 La577 2.503 . S
O601 C586 1.256 . S
O602 La577 2.521 1_556 S
O602 C587 1.261 . S
O603 La577 2.628 1_556 S
O603 C587 1.243 . S
O604 La577 2.554 . S
O604 C594 1.240 . S
O605 La576 2.482 . S
O605 La577 2.757 . S
O605 C594 1.289 . S
O606 La577 2.470 . S
O606 C595 1.258 . S
O607 La576 2.503 . S
O607 C595 1.256 . S
H608 C580 0.930 . S
H609 C581 0.930 . S
H610 C583 0.929 . S
H611 C584 0.929 . S
H612 C589 0.930 . S
H613 C590 0.930 . S
H614 C592 0.929 . S
H615 C593 0.929 . S
La616 C618 2.928 . S
La616 O636 2.521 . S
La616 O637 2.628 . S
La616 O638 2.554 . S
La616 O639 2.757 . S
La616 O640 2.470 . S
La616 O645 2.482 . S
La616 O647 2.503 . S
La617 C627 2.928 . S
La617 O639 2.482 . S
La617 O641 2.503 . S
La617 O642 2.521 . S
La617 O643 2.628 . S
La617 O644 2.554 . S
La617 O645 2.757 . S
La617 O646 2.470 . S
C618 La616 2.928 . S
C618 C619 1.503 . S
C618 O636 1.261 . S
C618 O637 1.243 . S
C619 C618 1.503 . S
C619 C620 1.394 . S
C619 C624 1.373 . S
C620 C619 1.394 . S
C620 C621 1.380 . S
C620 H648 0.930 . S
C621 C620 1.380 . S
C621 C622 1.376 . S
C621 H649 0.930 . S
C622 C621 1.376 . S
C622 C623 1.370 . S
C623 C622 1.370 . S
C623 C624 1.396 . S
C623 H650 0.929 . S
C624 C619 1.373 . S
C624 C623 1.396 . S
C624 H651 0.929 . S
C625 O638 1.240 . S
C625 O639 1.289 . S
C626 O640 1.258 . S
C626 O641 1.256 . S
C627 La617 2.928 . S
C627 C628 1.503 . S
C627 O642 1.261 . S
C627 O643 1.243 . S
C628 C627 1.503 . S
C628 C629 1.394 . S
C628 C633 1.373 . S
C629 C628 1.394 . S
C629 C630 1.380 . S
C629 H652 0.930 . S
C630 C629 1.380 . S
C630 C631 1.376 . S
C630 H653 0.930 1_545 S
C631 C630 1.376 . S
C631 C632 1.370 . S
C632 C631 1.370 . S
C632 C633 1.396 . S
C632 H654 0.929 . S
C633 C628 1.373 . S
C633 C632 1.396 . S
C633 H655 0.929 . S
C634 O644 1.240 . S
C634 O645 1.289 . S
C635 O646 1.258 . S
C635 O647 1.256 . S
O636 La616 2.521 . S
O636 C618 1.261 . S
O637 La616 2.628 . S
O637 C618 1.243 . S
O638 La616 2.554 . S
O638 C625 1.240 . S
O639 La616 2.757 . S
O639 La617 2.482 . S
O639 C625 1.289 . S
O640 La616 2.470 . S
O640 C626 1.258 . S
O641 La617 2.503 . S
O641 C626 1.256 . S
O642 La617 2.521 . S
O642 C627 1.261 . S
O643 La617 2.628 . S
O643 C627 1.243 . S
O644 La617 2.554 . S
O644 C634 1.240 . S
O645 La616 2.482 . S
O645 La617 2.757 . S
O645 C634 1.289 . S
O646 La617 2.470 . S
O646 C635 1.258 . S
O647 La616 2.503 . S
O647 C635 1.256 . S
H648 C620 0.930 . S
H649 C621 0.930 . S
H650 C623 0.929 . S
H651 C624 0.929 . S
H652 C629 0.930 . S
H653 C630 0.930 1_565 S
H654 C632 0.929 . S
H655 C633 0.929 . S
La656 C658 2.928 . S
La656 O676 2.521 . S
La656 O677 2.628 . S
La656 O678 2.554 . S
La656 O679 2.757 . S
La656 O680 2.470 1_554 S
La656 O685 2.482 . S
La656 O687 2.503 . S
La657 C667 2.928 . S
La657 O679 2.482 . S
La657 O681 2.503 1_554 S
La657 O682 2.521 . S
La657 O683 2.628 . S
La657 O684 2.554 . S
La657 O685 2.757 . S
La657 O686 2.470 . S
C658 La656 2.928 . S
C658 C659 1.503 . S
C658 O676 1.261 . S
C658 O677 1.243 . S
C659 C658 1.503 . S
C659 C660 1.394 . S
C659 C664 1.373 . S
C660 C659 1.394 . S
C660 C661 1.380 . S
C660 H688 0.930 . S
C661 C660 1.380 . S
C661 C662 1.376 . S
C661 H689 0.930 . S
C662 C661 1.376 . S
C662 C663 1.370 1_554 S
C663 C662 1.370 1_556 S
C663 C664 1.396 1_556 S
C663 H690 0.929 . S
C664 C659 1.373 . S
C664 C663 1.396 1_554 S
C664 H691 0.929 1_554 S
C665 O678 1.240 . S
C665 O679 1.289 . S
C666 O680 1.258 . S
C666 O681 1.256 . S
C667 La657 2.928 . S
C667 C668 1.503 . S
C667 O682 1.261 . S
C667 O683 1.243 . S
C668 C667 1.503 . S
C668 C669 1.394 . S
C668 C673 1.373 . S
C669 C668 1.394 . S
C669 C670 1.380 . S
C669 H692 0.930 . S
C670 C669 1.380 . S
C670 C671 1.376 . S
C670 H693 0.930 . S
C671 C670 1.376 . S
C671 C672 1.370 . S
C672 C671 1.370 . S
C672 C673 1.396 . S
C672 H694 0.929 . S
C673 C668 1.373 . S
C673 C672 1.396 . S
C673 H695 0.929 . S
C674 O684 1.240 . S
C674 O685 1.289 . S
C675 O686 1.258 . S
C675 O687 1.256 . S
O676 La656 2.521 . S
O676 C658 1.261 . S
O677 La656 2.628 . S
O677 C658 1.243 . S
O678 La656 2.554 . S
O678 C665 1.240 . S
O679 La656 2.757 . S
O679 La657 2.482 . S
O679 C665 1.289 . S
O680 La656 2.470 1_556 S
O680 C666 1.258 . S
O681 La657 2.503 1_556 S
O681 C666 1.256 . S
O682 La657 2.521 . S
O682 C667 1.261 . S
O683 La657 2.628 . S
O683 C667 1.243 . S
O684 La657 2.554 . S
O684 C674 1.240 . S
O685 La656 2.482 . S
O685 La657 2.757 . S
O685 C674 1.289 . S
O686 La657 2.470 . S
O686 C675 1.258 . S
O687 La656 2.503 . S
O687 C675 1.256 . S
H688 C660 0.930 . S
H689 C661 0.930 . S
H690 C663 0.929 . S
H691 C664 0.929 1_556 S
H692 C669 0.930 . S
H693 C670 0.930 . S
H694 C672 0.929 . S
H695 C673 0.929 . S
La696 C698 2.942 . S
La696 O716 2.521 . S
La696 O717 2.628 . S
La696 O718 2.554 . S
La696 O719 2.757 . S
La696 O720 2.470 . S
La696 O725 2.482 . S
La696 O727 2.503 . S
La697 C707 2.928 . S
La697 O719 2.482 . S
La697 O721 2.503 . S
La697 O722 2.521 . S
La697 O723 2.628 . S
La697 O724 2.554 . S
La697 O725 2.757 . S
La697 O726 2.470 . S
C698 La696 2.942 . S
C698 C699 1.489 1_655 S
C698 O716 1.266 . S
C698 O717 1.252 . S
C699 C698 1.489 1_455 S
C699 C700 1.394 . S
C699 C704 1.373 . S
C700 C699 1.394 . S
C700 C701 1.380 . S
C700 H728 0.930 . S
C701 C700 1.380 . S
C701 C702 1.376 . S
C701 H729 0.930 . S
C702 C701 1.376 . S
C702 C703 1.370 . S
C703 C702 1.370 . S
C703 C704 1.396 . S
C703 H730 0.929 . S
C704 C699 1.373 . S
C704 C703 1.396 . S
C704 H731 0.929 . S
C705 O718 1.240 . S
C705 O719 1.289 . S
C706 O720 1.258 . S
C706 O721 1.256 . S
C707 La697 2.928 . S
C707 C708 1.503 . S
C707 O722 1.261 . S
C707 O723 1.243 . S
C708 C707 1.503 . S
C708 C709 1.394 . S
C708 C713 1.373 . S
C709 C708 1.394 . S
C709 C710 1.380 . S
C709 H732 0.930 . S
C710 C709 1.380 . S
C710 C711 1.376 . S
C710 H733 0.930 . S
C711 C710 1.376 . S
C711 C712 1.370 . S
C712 C711 1.370 . S
C712 C713 1.396 . S
C712 H734 0.929 . S
C713 C708 1.373 . S
C713 C712 1.396 . S
C713 H735 0.929 . S
C714 O724 1.240 . S
C714 O725 1.289 . S
C715 O726 1.258 . S
C715 O727 1.256 . S
O716 La696 2.521 . S
O716 C698 1.266 . S
O717 La696 2.628 . S
O717 C698 1.252 . S
O718 La696 2.554 . S
O718 C705 1.240 . S
O719 La696 2.757 . S
O719 La697 2.482 . S
O719 C705 1.289 . S
O720 La696 2.470 . S
O720 C706 1.258 . S
O721 La697 2.503 . S
O721 C706 1.256 . S
O722 La697 2.521 . S
O722 C707 1.261 . S
O723 La697 2.628 . S
O723 C707 1.243 . S
O724 La697 2.554 . S
O724 C714 1.240 . S
O725 La696 2.482 . S
O725 La697 2.757 . S
O725 C714 1.289 . S
O726 La697 2.470 . S
O726 C715 1.258 . S
O727 La696 2.503 . S
O727 C715 1.256 . S
H728 C700 0.930 . S
H729 C701 0.930 . S
H730 C703 0.929 . S
H731 C704 0.929 . S
H732 C709 0.930 . S
H733 C710 0.930 . S
H734 C712 0.929 . S
H735 C713 0.929 . S
La736 C738 2.928 . S
La736 O756 2.521 . S
La736 O757 2.628 . S
La736 O758 2.554 . S
La736 O759 2.757 . S
La736 O760 2.470 . S
La736 O765 2.482 . S
La736 O767 2.503 . S
La737 C747 2.928 . S
La737 O759 2.482 . S
La737 O761 2.503 . S
La737 O762 2.521 . S
La737 O763 2.628 . S
La737 O764 2.554 . S
La737 O765 2.757 . S
La737 O766 2.470 . S
C738 La736 2.928 . S
C738 C739 1.503 . S
C738 O756 1.261 . S
C738 O757 1.243 . S
C739 C738 1.503 . S
C739 C740 1.394 . S
C739 C744 1.373 . S
C740 C739 1.394 . S
C740 C741 1.380 . S
C740 H768 0.930 . S
C741 C740 1.380 . S
C741 C742 1.376 . S
C741 H769 0.930 . S
C742 C741 1.376 . S
C742 C743 1.370 . S
C743 C742 1.370 . S
C743 C744 1.396 . S
C743 H770 0.929 1_455 S
C744 C739 1.373 . S
C744 C743 1.396 . S
C744 H771 0.929 . S
C745 O758 1.240 . S
C745 O759 1.289 . S
C746 O760 1.258 . S
C746 O761 1.256 . S
C747 La737 2.928 . S
C747 C748 1.503 . S
C747 O762 1.261 . S
C747 O763 1.243 . S
C748 C747 1.503 . S
C748 C749 1.394 . S
C748 C753 1.373 . S
C749 C748 1.394 . S
C749 C750 1.380 . S
C749 H772 0.930 . S
C750 C749 1.380 . S
C750 C751 1.376 . S
C750 H773 0.930 . S
C751 C750 1.376 . S
C751 C752 1.370 . S
C752 C751 1.370 . S
C752 C753 1.396 . S
C752 H774 0.929 . S
C753 C748 1.373 . S
C753 C752 1.396 . S
C753 H775 0.929 . S
C754 O764 1.240 . S
C754 O765 1.289 . S
C755 O766 1.258 . S
C755 O767 1.256 . S
O756 La736 2.521 . S
O756 C738 1.261 . S
O757 La736 2.628 . S
O757 C738 1.243 . S
O758 La736 2.554 . S
O758 C745 1.240 . S
O759 La736 2.757 . S
O759 La737 2.482 . S
O759 C745 1.289 . S
O760 La736 2.470 . S
O760 C746 1.258 . S
O761 La737 2.503 . S
O761 C746 1.256 . S
O762 La737 2.521 . S
O762 C747 1.261 . S
O763 La737 2.628 . S
O763 C747 1.243 . S
O764 La737 2.554 . S
O764 C754 1.240 . S
O765 La736 2.482 . S
O765 La737 2.757 . S
O765 C754 1.289 . S
O766 La737 2.470 . S
O766 C755 1.258 . S
O767 La736 2.503 . S
O767 C755 1.256 . S
H768 C740 0.930 . S
H769 C741 0.930 . S
H770 C743 0.929 1_655 S
H771 C744 0.929 . S
H772 C749 0.930 . S
H773 C750 0.930 . S
H774 C752 0.929 . S
H775 C753 0.929 . S
La776 C778 2.928 . S
La776 O796 2.521 . S
La776 O797 2.628 . S
La776 O798 2.554 . S
La776 O799 2.757 . S
La776 O800 2.470 . S
La776 O805 2.482 . S
La776 O807 2.503 . S
La777 C787 2.928 . S
La777 O799 2.482 . S
La777 O801 2.503 . S
La777 O802 2.521 . S
La777 O803 2.628 . S
La777 O804 2.554 . S
La777 O805 2.757 . S
La777 O806 2.470 . S
C778 La776 2.928 . S
C778 C779 1.503 . S
C778 O796 1.261 . S
C778 O797 1.243 . S
C779 C778 1.503 . S
C779 C780 1.394 . S
C779 C784 1.373 . S
C780 C779 1.394 . S
C780 C781 1.380 . S
C780 H808 0.930 . S
C781 C780 1.380 . S
C781 C782 1.376 . S
C781 H809 0.930 . S
C782 C781 1.376 . S
C782 C783 1.370 . S
C783 C782 1.370 . S
C783 C784 1.396 . S
C783 H810 0.929 . S
C784 C779 1.373 . S
C784 C783 1.396 . S
C784 H811 0.929 . S
C785 O798 1.240 . S
C785 O799 1.289 . S
C786 O800 1.258 . S
C786 O801 1.256 . S
C787 La777 2.928 . S
C787 C788 1.503 . S
C787 O802 1.261 . S
C787 O803 1.243 . S
C788 C787 1.503 . S
C788 C789 1.379 1_655 S
C788 C793 1.373 1_655 S
C789 C788 1.379 1_455 S
C789 C790 1.400 . S
C789 H812 0.926 1_455 S
C790 C789 1.400 . S
C790 C791 1.376 . S
C790 H813 0.930 . S
C791 C790 1.376 . S
C791 C792 1.370 . S
C792 C791 1.370 . S
C792 C793 1.396 . S
C792 H814 0.929 . S
C793 C788 1.373 1_455 S
C793 C792 1.396 . S
C793 H815 0.929 1_455 S
C794 O804 1.240 . S
C794 O805 1.289 . S
C795 O806 1.258 . S
C795 O807 1.256 . S
O796 La776 2.521 . S
O796 C778 1.261 . S
O797 La776 2.628 . S
O797 C778 1.243 . S
O798 La776 2.554 . S
O798 C785 1.240 . S
O799 La776 2.757 . S
O799 La777 2.482 . S
O799 C785 1.289 . S
O800 La776 2.470 . S
O800 C786 1.258 . S
O801 La777 2.503 . S
O801 C786 1.256 . S
O802 La777 2.521 . S
O802 C787 1.261 . S
O803 La777 2.628 . S
O803 C787 1.243 . S
O804 La777 2.554 . S
O804 C794 1.240 . S
O805 La776 2.482 . S
O805 La777 2.757 . S
O805 C794 1.289 . S
O806 La777 2.470 . S
O806 C795 1.258 . S
O807 La776 2.503 . S
O807 C795 1.256 . S
H808 C780 0.930 . S
H809 C781 0.930 . S
H810 C783 0.929 . S
H811 C784 0.929 . S
H812 C789 0.926 1_655 S
H813 C790 0.930 . S
H814 C792 0.929 . S
H815 C793 0.929 1_655 S
La816 C818 2.928 . S
La816 O836 2.521 . S
La816 O837 2.628 . S
La816 O838 2.554 . S
La816 O839 2.757 . S
La816 O840 2.470 . S
La816 O845 2.482 . S
La816 O847 2.503 . S
La817 C827 2.928 . S
La817 O839 2.482 . S
La817 O841 2.503 . S
La817 O842 2.521 . S
La817 O843 2.628 . S
La817 O844 2.554 . S
La817 O845 2.757 . S
La817 O846 2.470 . S
C818 La816 2.928 . S
C818 C819 1.503 . S
C818 O836 1.261 . S
C818 O837 1.243 . S
C819 C818 1.503 . S
C819 C820 1.394 . S
C819 C824 1.373 . S
C820 C819 1.394 . S
C820 C821 1.380 . S
C820 H848 0.930 . S
C821 C820 1.380 . S
C821 C822 1.376 . S
C821 H849 0.930 1_655 S
C822 C821 1.376 . S
C822 C823 1.370 . S
C823 C822 1.370 . S
C823 C824 1.396 . S
C823 H850 0.929 . S
C824 C819 1.373 . S
C824 C823 1.396 . S
C824 H851 0.929 . S
C825 O838 1.240 . S
C825 O839 1.289 . S
C826 O840 1.258 . S
C826 O841 1.256 . S
C827 La817 2.928 . S
C827 C828 1.503 . S
C827 O842 1.261 . S
C827 O843 1.243 . S
C828 C827 1.503 . S
C828 C829 1.394 . S
C828 C833 1.373 . S
C829 C828 1.394 . S
C829 C830 1.380 . S
C829 H852 0.930 . S
C830 C829 1.380 . S
C830 C831 1.376 . S
C830 H853 0.930 . S
C831 C830 1.376 . S
C831 C832 1.370 . S
C832 C831 1.370 . S
C832 C833 1.396 . S
C832 H854 0.929 . S
C833 C828 1.373 . S
C833 C832 1.396 . S
C833 H855 0.929 . S
C834 O844 1.240 . S
C834 O845 1.289 . S
C835 O846 1.258 . S
C835 O847 1.256 . S
O836 La816 2.521 . S
O836 C818 1.261 . S
O837 La816 2.628 . S
O837 C818 1.243 . S
O838 La816 2.554 . S
O838 C825 1.240 . S
O839 La816 2.757 . S
O839 La817 2.482 . S
O839 C825 1.289 . S
O840 La816 2.470 . S
O840 C826 1.258 . S
O841 La817 2.503 . S
O841 C826 1.256 . S
O842 La817 2.521 . S
O842 C827 1.261 . S
O843 La817 2.628 . S
O843 C827 1.243 . S
O844 La817 2.554 . S
O844 C834 1.240 . S
O845 La816 2.482 . S
O845 La817 2.757 . S
O845 C834 1.289 . S
O846 La817 2.470 . S
O846 C835 1.258 . S
O847 La816 2.503 . S
O847 C835 1.256 . S
H848 C820 0.930 . S
H849 C821 0.930 1_455 S
H850 C823 0.929 . S
H851 C824 0.929 . S
H852 C829 0.930 . S
H853 C830 0.930 . S
H854 C832 0.929 . S
H855 C833 0.929 . S
La856 C858 2.928 . S
La856 O876 2.521 . S
La856 O877 2.628 . S
La856 O878 2.554 . S
La856 O879 2.757 . S
La856 O880 2.470 . S
La856 O885 2.482 . S
La856 O887 2.503 . S
La857 C867 2.928 . S
La857 O879 2.482 . S
La857 O881 2.503 . S
La857 O882 2.521 . S
La857 O883 2.628 . S
La857 O884 2.554 . S
La857 O885 2.757 . S
La857 O886 2.470 . S
C858 La856 2.928 . S
C858 C859 1.503 1_565 S
C858 O876 1.261 . S
C858 O877 1.243 . S
C859 C858 1.503 1_545 S
C859 C860 1.394 . S
C859 C864 1.373 . S
C860 C859 1.394 . S
C860 C861 1.380 . S
C860 H888 0.930 . S
C861 C860 1.380 . S
C861 C862 1.376 . S
C861 H889 0.930 . S
C862 C861 1.376 . S
C862 C863 1.370 . S
C863 C862 1.370 . S
C863 C864 1.396 . S
C863 H890 0.929 . S
C864 C859 1.373 . S
C864 C863 1.396 . S
C864 H891 0.929 . S
C865 O878 1.240 . S
C865 O879 1.289 . S
C866 O880 1.258 . S
C866 O881 1.256 . S
C867 La857 2.928 . S
C867 C868 1.503 . S
C867 O882 1.261 . S
C867 O883 1.243 . S
C868 C867 1.503 . S
C868 C869 1.394 . S
C868 C873 1.373 . S
C869 C868 1.394 . S
C869 C870 1.380 . S
C869 H892 0.930 . S
C870 C869 1.380 . S
C870 C871 1.376 . S
C870 H893 0.930 . S
C871 C870 1.376 . S
C871 C872 1.370 . S
C872 C871 1.370 . S
C872 C873 1.396 . S
C872 H894 0.929 . S
C873 C868 1.373 . S
C873 C872 1.396 . S
C873 H895 0.929 . S
C874 O884 1.240 . S
C874 O885 1.289 . S
C875 O886 1.258 . S
C875 O887 1.256 . S
O876 La856 2.521 . S
O876 C858 1.261 . S
O877 La856 2.628 . S
O877 C858 1.243 . S
O878 La856 2.554 . S
O878 C865 1.240 . S
O879 La856 2.757 . S
O879 La857 2.482 . S
O879 C865 1.289 . S
O880 La856 2.470 . S
O880 C866 1.258 . S
O881 La857 2.503 . S
O881 C866 1.256 . S
O882 La857 2.521 . S
O882 C867 1.261 . S
O883 La857 2.628 . S
O883 C867 1.243 . S
O884 La857 2.554 . S
O884 C874 1.240 . S
O885 La856 2.482 . S
O885 La857 2.757 . S
O885 C874 1.289 . S
O886 La857 2.470 . S
O886 C875 1.258 . S
O887 La856 2.503 . S
O887 C875 1.256 . S
H888 C860 0.930 . S
H889 C861 0.930 . S
H890 C863 0.929 . S
H891 C864 0.929 . S
H892 C869 0.930 . S
H893 C870 0.930 . S
H894 C872 0.929 . S
H895 C873 0.929 . S
La896 C898 2.928 . S
La896 O916 2.521 . S
La896 O917 2.628 . S
La896 O918 2.554 . S
La896 O919 2.757 . S
La896 O920 2.470 . S
La896 O925 2.482 . S
La896 O927 2.503 . S
La897 C907 2.928 . S
La897 O919 2.482 . S
La897 O921 2.503 . S
La897 O922 2.521 . S
La897 O923 2.628 . S
La897 O924 2.554 . S
La897 O925 2.757 . S
La897 O926 2.470 . S
C898 La896 2.928 . S
C898 C899 1.503 . S
C898 O916 1.261 . S
C898 O917 1.243 . S
C899 C898 1.503 . S
C899 C900 1.394 . S
C899 C904 1.373 . S
C900 C899 1.394 . S
C900 C901 1.380 . S
C900 H928 0.930 . S
C901 C900 1.380 . S
C901 C902 1.376 . S
C901 H929 0.930 . S
C902 C901 1.376 . S
C902 C903 1.370 . S
C903 C902 1.370 . S
C903 C904 1.396 . S
C903 H930 0.929 . S
C904 C899 1.373 . S
C904 C903 1.396 . S
C904 H931 0.929 . S
C905 O918 1.240 . S
C905 O919 1.289 . S
C906 O920 1.258 . S
C906 O921 1.256 . S
C907 La897 2.928 . S
C907 C908 1.503 . S
C907 O922 1.261 . S
C907 O923 1.243 . S
C908 C907 1.503 . S
C908 C909 1.394 . S
C908 C913 1.373 . S
C909 C908 1.394 . S
C909 C910 1.380 . S
C909 H932 0.930 . S
C910 C909 1.380 . S
C910 C911 1.376 . S
C910 H933 0.930 . S
C911 C910 1.376 . S
C911 C912 1.370 . S
C912 C911 1.370 . S
C912 C913 1.396 . S
C912 H934 0.929 . S
C913 C908 1.373 . S
C913 C912 1.396 . S
C913 H935 0.929 . S
C914 O924 1.240 . S
C914 O925 1.289 . S
C915 O926 1.258 . S
C915 O927 1.256 . S
O916 La896 2.521 . S
O916 C898 1.261 . S
O917 La896 2.628 . S
O917 C898 1.243 . S
O918 La896 2.554 . S
O918 C905 1.240 . S
O919 La896 2.757 . S
O919 La897 2.482 . S
O919 C905 1.289 . S
O920 La896 2.470 . S
O920 C906 1.258 . S
O921 La897 2.503 . S
O921 C906 1.256 . S
O922 La897 2.521 . S
O922 C907 1.261 . S
O923 La897 2.628 . S
O923 C907 1.243 . S
O924 La897 2.554 . S
O924 C914 1.240 . S
O925 La896 2.482 . S
O925 La897 2.757 . S
O925 C914 1.289 . S
O926 La897 2.470 . S
O926 C915 1.258 . S
O927 La896 2.503 . S
O927 C915 1.256 . S
H928 C900 0.930 . S
H929 C901 0.930 . S
H930 C903 0.929 . S
H931 C904 0.929 . S
H932 C909 0.930 . S
H933 C910 0.930 . S
H934 C912 0.929 . S
H935 C913 0.929 . S
La936 C938 2.928 . S
La936 O956 2.521 . S
La936 O957 2.628 . S
La936 O958 2.554 1_554 S
La936 O959 2.757 . S
La936 O960 2.470 . S
La936 O965 2.482 . S
La936 O967 2.503 . S
La937 C947 2.928 . S
La937 O959 2.482 . S
La937 O961 2.503 . S
La937 O962 2.521 . S
La937 O963 2.628 . S
La937 O964 2.554 . S
La937 O965 2.757 . S
La937 O966 2.470 . S
C938 La936 2.928 . S
C938 C939 1.503 . S
C938 O956 1.261 . S
C938 O957 1.243 . S
C939 C938 1.503 . S
C939 C940 1.394 1_554 S
C939 C944 1.373 . S
C940 C939 1.394 1_556 S
C940 C941 1.380 . S
C940 H968 0.930 . S
C941 C940 1.380 . S
C941 C942 1.376 1_556 S
C941 H969 0.930 . S
C942 C941 1.376 1_554 S
C942 C943 1.370 . S
C943 C942 1.370 . S
C943 C944 1.396 . S
C943 H970 0.929 . S
C944 C939 1.373 . S
C944 C943 1.396 . S
C944 H971 0.929 . S
C945 O958 1.240 . S
C945 O959 1.289 1_556 S
C946 O960 1.258 . S
C946 O961 1.256 . S
C947 La937 2.928 . S
C947 C948 1.503 1_455 S
C947 O962 1.261 . S
C947 O963 1.243 . S
C948 C947 1.503 1_655 S
C948 C949 1.394 . S
C948 C953 1.373 . S
C949 C948 1.394 . S
C949 C950 1.380 . S
C949 H972 0.930 . S
C950 C949 1.380 . S
C950 C951 1.376 . S
C950 H973 0.930 . S
C951 C950 1.376 . S
C951 C952 1.370 . S
C952 C951 1.370 . S
C952 C953 1.396 . S
C952 H974 0.929 . S
C953 C948 1.373 . S
C953 C952 1.396 . S
C953 H975 0.929 . S
C954 O964 1.240 . S
C954 O965 1.289 . S
C955 O966 1.258 . S
C955 O967 1.256 . S
O956 La936 2.521 . S
O956 C938 1.261 . S
O957 La936 2.628 . S
O957 C938 1.243 . S
O958 La936 2.554 1_556 S
O958 C945 1.240 . S
O959 La936 2.757 . S
O959 La937 2.482 . S
O959 C945 1.289 1_554 S
O960 La936 2.470 . S
O960 C946 1.258 . S
O961 La937 2.503 . S
O961 C946 1.256 . S
O962 La937 2.521 . S
O962 C947 1.261 . S
O963 La937 2.628 . S
O963 C947 1.243 . S
O964 La937 2.554 . S
O964 C954 1.240 . S
O965 La936 2.482 . S
O965 La937 2.757 . S
O965 C954 1.289 . S
O966 La937 2.470 . S
O966 C955 1.258 . S
O967 La936 2.503 . S
O967 C955 1.256 . S
H968 C940 0.930 . S
H969 C941 0.930 . S
H970 C943 0.929 . S
H971 C944 0.929 . S
H972 C949 0.930 . S
H973 C950 0.930 . S
H974 C952 0.929 . S
H975 C953 0.929 . S
C106 C346 4.176 1_556 S
C65 C394 3.687 . S
C79 C426 2.147 . S
C471 C90 1.649 . S
C21 C511 3.168 . S
C542 C35 2.392 . S
C594 C50 4.088 . S
C6 C626 3.814 . S
C354 C232 4.431 . S
C245 C391 1.980 . S
C434 C274 2.317 . S
C466 C175 2.072 . S
C231 C506 2.250 . S
C545 C246 2.927 . S
C591 C273 1.131 . S
C634 C176 4.065 . S
C351 C160 3.331 . S
C289 C674 3.243 . S
C715 C328 3.959 . S
C746 C317 0.870 . S
C118 C631 5.006 . S
C132 C431 2.913 . S
C331 C794 3.320 . S
C826 C303 2.237 . S
C355 C63 3.693 . S
C825 C107 4.247 . S
C92 C435 1.807 . S
C78 C782 1.610 . S
C502 C8 3.465 . S
C51 C711 1.753 . S
C585 C37 4.419 1_554 S
C875 C20 3.924 . S
C345 C147 3.735 . S
C822 C316 1.648 . S
C119 C425 1.492 . S
C288 C795 2.037 . S
C148 C515 3.234 . S
C714 C315 2.405 . S
C120 C582 0.532 . S
C287 C865 3.593 . S
C188 C342 3.751 1_554 S
C177 C665 3.349 . S
C258 C546 4.055 . S
C247 C755 2.323 . S
C862 C272 4.890 . S
C216 C422 2.770 . S
C465 C261 3.588 . S
C395 C205 1.388 . S
C76 C906 3.274 . S
C834 C93 3.890 . S
C105 C946 1.526 . S
C62 C791 1.560 . S
C49 C671 3.350 . S
C702 C9 2.831 . S
C754 C22 4.339 1_455 S
C866 C36 4.728 . S
C914 C260 4.410 . S
C189 C831 1.668 . S
C954 C204 2.380 . S
C786 C217 2.030 . S
C666 C259 2.869 . S
C190 C705 2.767 . S
C751 C203 1.268 . S
C218 C874 4.230 . S
C911 C314 3.333 . S
C135 C514 3.103 . S
C555 C146 3.866 . S
C586 C163 0.880 . S
C871 C300 5.079 . S
C286 C951 3.068 . S
C474 C149 3.310 . S
C386 C121 2.574 . S
C91 C915 3.748 . S
C385 C77 3.138 . S
C64 C955 1.827 . S
C104 C462 1.828 . S
C34 C662 3.722 1_556 S
C551 C23 1.224 . S
C7 C745 3.444 . S
C48 C635 3.874 . S
C905 C329 3.561 . S
C162 C382 1.524 . S
C945 C301 1.222 . S
C134 C475 2.030 . S
C330 C675 3.080 . S
C554 C161 2.154 . S
C302 C742 0.310 . S
C625 C133 3.427 . S
C902 C244 3.621 . S
C505 C219 3.452 1_445 S
C230 C706 3.678 . S
C595 C191 1.563 . S
C202 C622 4.879 . S
C174 C942 2.537 . S
C785 C233 3.704 . S
C835 C275 1.683 . S
