# Generated by pormake.
# Topology gar, (4,6)-cn, num edge types: 1
# Building blocks:
#     Node 0, Type 0, BuildingBlock: TATPOV_clean_sbu_0, # of connection points: 4
#     Node 1, Type 0, BuildingBlock: TATPOV_clean_sbu_0, # of connection points: 4
#     Node 2, Type 0, BuildingBlock: TATPOV_clean_sbu_0, # of connection points: 4
#     Node 3, Type 0, BuildingBlock: TATPOV_clean_sbu_0, # of connection points: 4
#     Node 4, Type 0, BuildingBlock: TATPOV_clean_sbu_0, # of connection points: 4
#     Node 5, Type 0, BuildingBlock: TATPOV_clean_sbu_0, # of connection points: 4
#     Node 6, Type 0, BuildingBlock: TATPOV_clean_sbu_0, # of connection points: 4
#     Node 7, Type 0, BuildingBlock: TATPOV_clean_sbu_0, # of connection points: 4
#     Node 8, Type 0, BuildingBlock: TATPOV_clean_sbu_0, # of connection points: 4
#     Node 9, Type 0, BuildingBlock: TATPOV_clean_sbu_0, # of connection points: 4
#     Node 10, Type 0, BuildingBlock: TATPOV_clean_sbu_0, # of connection points: 4
#     Node 11, Type 0, BuildingBlock: TATPOV_clean_sbu_0, # of connection points: 4
#     Node 12, Type 0, BuildingBlock: TATPOV_clean_sbu_0, # of connection points: 4
#     Node 13, Type 0, BuildingBlock: TATPOV_clean_sbu_0, # of connection points: 4
#     Node 14, Type 0, BuildingBlock: TATPOV_clean_sbu_0, # of connection points: 4
#     Node 15, Type 0, BuildingBlock: TATPOV_clean_sbu_0, # of connection points: 4
#     Node 16, Type 0, BuildingBlock: TATPOV_clean_sbu_0, # of connection points: 4
#     Node 17, Type 0, BuildingBlock: TATPOV_clean_sbu_0, # of connection points: 4
#     Node 18, Type 0, BuildingBlock: TATPOV_clean_sbu_0, # of connection points: 4
#     Node 19, Type 0, BuildingBlock: TATPOV_clean_sbu_0, # of connection points: 4
#     Node 20, Type 0, BuildingBlock: TATPOV_clean_sbu_0, # of connection points: 4
#     Node 21, Type 0, BuildingBlock: TATPOV_clean_sbu_0, # of connection points: 4
#     Node 22, Type 0, BuildingBlock: TATPOV_clean_sbu_0, # of connection points: 4
#     Node 23, Type 0, BuildingBlock: TATPOV_clean_sbu_0, # of connection points: 4
#     Node 24, Type 1, BuildingBlock: KUMJIN_clean_sbu_0, # of connection points: 6
#     Node 25, Type 1, BuildingBlock: KUMJIN_clean_sbu_0, # of connection points: 6
#     Node 26, Type 1, BuildingBlock: KUMJIN_clean_sbu_0, # of connection points: 6
#     Node 27, Type 1, BuildingBlock: KUMJIN_clean_sbu_0, # of connection points: 6
#     Node 28, Type 1, BuildingBlock: KUMJIN_clean_sbu_0, # of connection points: 6
#     Node 29, Type 1, BuildingBlock: KUMJIN_clean_sbu_0, # of connection points: 6
#     Node 30, Type 1, BuildingBlock: KUMJIN_clean_sbu_0, # of connection points: 6
#     Node 31, Type 1, BuildingBlock: KUMJIN_clean_sbu_0, # of connection points: 6
#     Node 32, Type 1, BuildingBlock: KUMJIN_clean_sbu_0, # of connection points: 6
#     Node 33, Type 1, BuildingBlock: KUMJIN_clean_sbu_0, # of connection points: 6
#     Node 34, Type 1, BuildingBlock: KUMJIN_clean_sbu_0, # of connection points: 6
#     Node 35, Type 1, BuildingBlock: KUMJIN_clean_sbu_0, # of connection points: 6
#     Node 36, Type 1, BuildingBlock: KUMJIN_clean_sbu_0, # of connection points: 6
#     Node 37, Type 1, BuildingBlock: KUMJIN_clean_sbu_0, # of connection points: 6
#     Node 38, Type 1, BuildingBlock: KUMJIN_clean_sbu_0, # of connection points: 6
#     Node 39, Type 1, BuildingBlock: KUMJIN_clean_sbu_0, # of connection points: 6
#     Edge 40, Type (0, 1), BuildingBlock: XIVTED_clean_linker_0, # of connection points: 2
#     Edge 41, Type (0, 1), BuildingBlock: XIVTED_clean_linker_0, # of connection points: 2
#     Edge 42, Type (0, 1), BuildingBlock: XIVTED_clean_linker_0, # of connection points: 2
#     Edge 43, Type (0, 1), BuildingBlock: XIVTED_clean_linker_0, # of connection points: 2
#     Edge 44, Type (0, 1), BuildingBlock: XIVTED_clean_linker_0, # of connection points: 2
#     Edge 45, Type (0, 1), BuildingBlock: XIVTED_clean_linker_0, # of connection points: 2
#     Edge 46, Type (0, 1), BuildingBlock: XIVTED_clean_linker_0, # of connection points: 2
#     Edge 47, Type (0, 1), BuildingBlock: XIVTED_clean_linker_0, # of connection points: 2
#     Edge 48, Type (0, 1), BuildingBlock: XIVTED_clean_linker_0, # of connection points: 2
#     Edge 49, Type (0, 1), BuildingBlock: XIVTED_clean_linker_0, # of connection points: 2
#     Edge 50, Type (0, 1), BuildingBlock: XIVTED_clean_linker_0, # of connection points: 2
#     Edge 51, Type (0, 1), BuildingBlock: XIVTED_clean_linker_0, # of connection points: 2
#     Edge 52, Type (0, 1), BuildingBlock: XIVTED_clean_linker_0, # of connection points: 2
#     Edge 53, Type (0, 1), BuildingBlock: XIVTED_clean_linker_0, # of connection points: 2
#     Edge 54, Type (0, 1), BuildingBlock: XIVTED_clean_linker_0, # of connection points: 2
#     Edge 55, Type (0, 1), BuildingBlock: XIVTED_clean_linker_0, # of connection points: 2
#     Edge 56, Type (0, 1), BuildingBlock: XIVTED_clean_linker_0, # of connection points: 2
#     Edge 57, Type (0, 1), BuildingBlock: XIVTED_clean_linker_0, # of connection points: 2
#     Edge 58, Type (0, 1), BuildingBlock: XIVTED_clean_linker_0, # of connection points: 2
#     Edge 59, Type (0, 1), BuildingBlock: XIVTED_clean_linker_0, # of connection points: 2
#     Edge 60, Type (0, 1), BuildingBlock: XIVTED_clean_linker_0, # of connection points: 2
#     Edge 61, Type (0, 1), BuildingBlock: XIVTED_clean_linker_0, # of connection points: 2
#     Edge 62, Type (0, 1), BuildingBlock: XIVTED_clean_linker_0, # of connection points: 2
#     Edge 63, Type (0, 1), BuildingBlock: XIVTED_clean_linker_0, # of connection points: 2
#     Edge 64, Type (0, 1), BuildingBlock: XIVTED_clean_linker_0, # of connection points: 2
#     Edge 65, Type (0, 1), BuildingBlock: XIVTED_clean_linker_0, # of connection points: 2
#     Edge 66, Type (0, 1), BuildingBlock: XIVTED_clean_linker_0, # of connection points: 2
#     Edge 67, Type (0, 1), BuildingBlock: XIVTED_clean_linker_0, # of connection points: 2
#     Edge 68, Type (0, 1), BuildingBlock: XIVTED_clean_linker_0, # of connection points: 2
#     Edge 69, Type (0, 1), BuildingBlock: XIVTED_clean_linker_0, # of connection points: 2
#     Edge 70, Type (0, 1), BuildingBlock: XIVTED_clean_linker_0, # of connection points: 2
#     Edge 71, Type (0, 1), BuildingBlock: XIVTED_clean_linker_0, # of connection points: 2
#     Edge 72, Type (0, 1), BuildingBlock: XIVTED_clean_linker_0, # of connection points: 2
#     Edge 73, Type (0, 1), BuildingBlock: XIVTED_clean_linker_0, # of connection points: 2
#     Edge 74, Type (0, 1), BuildingBlock: XIVTED_clean_linker_0, # of connection points: 2
#     Edge 75, Type (0, 1), BuildingBlock: XIVTED_clean_linker_0, # of connection points: 2
#     Edge 76, Type (0, 1), BuildingBlock: XIVTED_clean_linker_0, # of connection points: 2
#     Edge 77, Type (0, 1), BuildingBlock: XIVTED_clean_linker_0, # of connection points: 2
#     Edge 78, Type (0, 1), BuildingBlock: XIVTED_clean_linker_0, # of connection points: 2
#     Edge 79, Type (0, 1), BuildingBlock: XIVTED_clean_linker_0, # of connection points: 2
#     Edge 80, Type (0, 1), BuildingBlock: XIVTED_clean_linker_0, # of connection points: 2
#     Edge 81, Type (0, 1), BuildingBlock: XIVTED_clean_linker_0, # of connection points: 2
#     Edge 82, Type (0, 1), BuildingBlock: XIVTED_clean_linker_0, # of connection points: 2
#     Edge 83, Type (0, 1), BuildingBlock: XIVTED_clean_linker_0, # of connection points: 2
#     Edge 84, Type (0, 1), BuildingBlock: XIVTED_clean_linker_0, # of connection points: 2
#     Edge 85, Type (0, 1), BuildingBlock: XIVTED_clean_linker_0, # of connection points: 2
#     Edge 86, Type (0, 1), BuildingBlock: XIVTED_clean_linker_0, # of connection points: 2
#     Edge 87, Type (0, 1), BuildingBlock: XIVTED_clean_linker_0, # of connection points: 2
#     Edge 88, Type (0, 1), BuildingBlock: XIVTED_clean_linker_0, # of connection points: 2
#     Edge 89, Type (0, 1), BuildingBlock: XIVTED_clean_linker_0, # of connection points: 2
#     Edge 90, Type (0, 1), BuildingBlock: XIVTED_clean_linker_0, # of connection points: 2
#     Edge 91, Type (0, 1), BuildingBlock: XIVTED_clean_linker_0, # of connection points: 2
#     Edge 92, Type (0, 1), BuildingBlock: XIVTED_clean_linker_0, # of connection points: 2
#     Edge 93, Type (0, 1), BuildingBlock: XIVTED_clean_linker_0, # of connection points: 2
#     Edge 94, Type (0, 1), BuildingBlock: XIVTED_clean_linker_0, # of connection points: 2
#     Edge 95, Type (0, 1), BuildingBlock: XIVTED_clean_linker_0, # of connection points: 2
#     Edge 96, Type (0, 1), BuildingBlock: XIVTED_clean_linker_0, # of connection points: 2
#     Edge 97, Type (0, 1), BuildingBlock: XIVTED_clean_linker_0, # of connection points: 2
#     Edge 98, Type (0, 1), BuildingBlock: XIVTED_clean_linker_0, # of connection points: 2
#     Edge 99, Type (0, 1), BuildingBlock: XIVTED_clean_linker_0, # of connection points: 2
#     Edge 100, Type (0, 1), BuildingBlock: XIVTED_clean_linker_0, # of connection points: 2
#     Edge 101, Type (0, 1), BuildingBlock: XIVTED_clean_linker_0, # of connection points: 2
#     Edge 102, Type (0, 1), BuildingBlock: XIVTED_clean_linker_0, # of connection points: 2
#     Edge 103, Type (0, 1), BuildingBlock: XIVTED_clean_linker_0, # of connection points: 2
#     Edge 104, Type (0, 1), BuildingBlock: XIVTED_clean_linker_0, # of connection points: 2
#     Edge 105, Type (0, 1), BuildingBlock: XIVTED_clean_linker_0, # of connection points: 2
#     Edge 106, Type (0, 1), BuildingBlock: XIVTED_clean_linker_0, # of connection points: 2
#     Edge 107, Type (0, 1), BuildingBlock: XIVTED_clean_linker_0, # of connection points: 2
#     Edge 108, Type (0, 1), BuildingBlock: XIVTED_clean_linker_0, # of connection points: 2
#     Edge 109, Type (0, 1), BuildingBlock: XIVTED_clean_linker_0, # of connection points: 2
#     Edge 110, Type (0, 1), BuildingBlock: XIVTED_clean_linker_0, # of connection points: 2
#     Edge 111, Type (0, 1), BuildingBlock: XIVTED_clean_linker_0, # of connection points: 2
#     Edge 112, Type (0, 1), BuildingBlock: XIVTED_clean_linker_0, # of connection points: 2
#     Edge 113, Type (0, 1), BuildingBlock: XIVTED_clean_linker_0, # of connection points: 2
#     Edge 114, Type (0, 1), BuildingBlock: XIVTED_clean_linker_0, # of connection points: 2
#     Edge 115, Type (0, 1), BuildingBlock: XIVTED_clean_linker_0, # of connection points: 2
#     Edge 116, Type (0, 1), BuildingBlock: XIVTED_clean_linker_0, # of connection points: 2
#     Edge 117, Type (0, 1), BuildingBlock: XIVTED_clean_linker_0, # of connection points: 2
#     Edge 118, Type (0, 1), BuildingBlock: XIVTED_clean_linker_0, # of connection points: 2
#     Edge 119, Type (0, 1), BuildingBlock: XIVTED_clean_linker_0, # of connection points: 2
#     Edge 120, Type (0, 1), BuildingBlock: XIVTED_clean_linker_0, # of connection points: 2
#     Edge 121, Type (0, 1), BuildingBlock: XIVTED_clean_linker_0, # of connection points: 2
#     Edge 122, Type (0, 1), BuildingBlock: XIVTED_clean_linker_0, # of connection points: 2
#     Edge 123, Type (0, 1), BuildingBlock: XIVTED_clean_linker_0, # of connection points: 2
#     Edge 124, Type (0, 1), BuildingBlock: XIVTED_clean_linker_0, # of connection points: 2
#     Edge 125, Type (0, 1), BuildingBlock: XIVTED_clean_linker_0, # of connection points: 2
#     Edge 126, Type (0, 1), BuildingBlock: XIVTED_clean_linker_0, # of connection points: 2
#     Edge 127, Type (0, 1), BuildingBlock: XIVTED_clean_linker_0, # of connection points: 2
#     Edge 128, Type (0, 1), BuildingBlock: XIVTED_clean_linker_0, # of connection points: 2
#     Edge 129, Type (0, 1), BuildingBlock: XIVTED_clean_linker_0, # of connection points: 2
#     Edge 130, Type (0, 1), BuildingBlock: XIVTED_clean_linker_0, # of connection points: 2
#     Edge 131, Type (0, 1), BuildingBlock: XIVTED_clean_linker_0, # of connection points: 2
#     Edge 132, Type (0, 1), BuildingBlock: XIVTED_clean_linker_0, # of connection points: 2
#     Edge 133, Type (0, 1), BuildingBlock: XIVTED_clean_linker_0, # of connection points: 2
#     Edge 134, Type (0, 1), BuildingBlock: XIVTED_clean_linker_0, # of connection points: 2
#     Edge 135, Type (0, 1), BuildingBlock: XIVTED_clean_linker_0, # of connection points: 2
# Relax obj value: 0.137
# Max RMSD: 0.331
# Mean RMSD: 0.171
data_MOF--net-gar--node1-TATPOV_clean_sbu_0--node2-KUMJIN_clean_sbu_0--edge1-XIVTED_clean_linker_0
_symmetry_space_group_name_H-M    P1
_symmetry_Int_Tables_number       1
_symmetry_cell_setting            triclinic
loop_
_symmetry_equiv_pos_as_xyz
'x, y, z'
_cell_length_a     61.649308
_cell_length_b     56.282322
_cell_length_c     56.819703
_cell_angle_alpha  100.75165
_cell_angle_beta   94.413691
_cell_angle_gamma 104.21569
loop_
_atom_site_label
_atom_site_type_symbol
_atom_site_fract_x
_atom_site_fract_y
_atom_site_fract_z
_atom_type_partial_charge
Zn0 Zn 0.10363 0.34149 0.42563 0.0
Zn1 Zn 0.12611 0.33824 0.39198 0.0
O2 O 0.14358 0.37298 0.41042 0.0
O3 O 0.11541 0.37855 0.43026 0.0
O4 O 0.14241 0.33192 0.36449 0.0
O5 O 0.11947 0.32222 0.44363 0.0
O6 O 0.12444 0.30752 0.40653 0.0
C7 C 0.13415 0.38732 0.42331 0.0
C8 C 0.07729 0.32963 0.3816 0.0
O9 O 0.09655 0.33908 0.37605 0.0
O10 O 0.07546 0.32376 0.40191 0.0
C11 C 0.15328 0.34944 0.35546 0.0
O12 O 0.15421 0.3729 0.36475 0.0
C13 C 0.12382 0.30529 0.4283 0.0
Zn14 Zn 0.99477 0.71954 0.68564 0.0
Zn15 Zn 0.0014 0.75518 0.65868 0.0
O16 O 0.97921 0.76349 0.68102 0.0
O17 O 0.97592 0.7366 0.70514 0.0
O18 O 0.00694 0.78295 0.64121 0.0
O19 O 0.02783 0.72963 0.69569 0.0
O20 O 0.0331 0.75819 0.67344 0.0
C21 C 0.97112 0.75518 0.69869 0.0
C22 C 0.98055 0.70106 0.63443 0.0
O23 O 0.98854 0.72375 0.63306 0.0
O24 O 0.98089 0.69479 0.65471 0.0
C25 C 0.99402 0.78405 0.62322 0.0
O26 O 0.97547 0.76596 0.61522 0.0
C27 C 0.04082 0.74676 0.68795 0.0
Zn28 Zn 0.60656 0.86204 0.9301 0.0
Zn29 Zn 0.63098 0.84345 0.90072 0.0
O30 O 0.64927 0.87802 0.91957 0.0
O31 O 0.61846 0.88634 0.90819 0.0
O32 O 0.64946 0.83363 0.87648 0.0
O33 O 0.5957 0.82385 0.92866 0.0
O34 O 0.62753 0.81631 0.91948 0.0
C35 C 0.63941 0.894 0.91465 0.0
C36 C 0.58098 0.83544 0.88741 0.0
O37 O 0.60052 0.84078 0.88061 0.0
O38 O 0.5793 0.83651 0.90974 0.0
C39 C 0.65357 0.8435 0.85847 0.0
O40 O 0.64593 0.86275 0.8556 0.0
C41 C 0.60876 0.80952 0.92716 0.0
Zn42 Zn 0.49752 0.21899 0.19094 0.0
Zn43 Zn 0.49979 0.25396 0.16195 0.0
O44 O 0.47946 0.26139 0.18642 0.0
O45 O 0.47904 0.2361 0.21181 0.0
O46 O 0.50253 0.28133 0.14354 0.0
O47 O 0.5314 0.22976 0.19547 0.0
O48 O 0.53226 0.25884 0.17406 0.0
C49 C 0.47274 0.25372 0.20492 0.0
C50 C 0.48001 0.19842 0.14066 0.0
O51 O 0.48681 0.22094 0.13814 0.0
O52 O 0.48186 0.19323 0.16136 0.0
C53 C 0.49394 0.27851 0.12186 0.0
O54 O 0.48127 0.25643 0.11032 0.0
C55 C 0.54226 0.24742 0.18661 0.0
Zn56 Zn 0.13001 0.82063 0.08223 0.0
Zn57 Zn 0.10036 0.81941 0.11462 0.0
O58 O 0.09725 0.84881 0.09739 0.0
O59 O 0.12037 0.84951 0.06987 0.0
O60 O 0.07536 0.81829 0.13669 0.0
O61 O 0.11522 0.78356 0.0663 0.0
O62 O 0.09207 0.78287 0.09392 0.0
C63 C 0.10563 0.85828 0.08024 0.0
C64 C 0.15068 0.82673 0.13275 0.0
O65 O 0.13045 0.82502 0.1375 0.0
O66 O 0.15487 0.8265 0.11114 0.0
C67 C 0.0561 0.82094 0.12956 0.0
O68 O 0.05235 0.82469 0.10765 0.0
C69 C 0.09945 0.77138 0.07595 0.0
Zn70 Zn 0.49089 0.76468 0.46426 0.0
Zn71 Zn 0.52143 0.76887 0.43348 0.0
O72 O 0.52943 0.80535 0.4543 0.0
O73 O 0.50309 0.80243 0.47854 0.0
O74 O 0.54784 0.76833 0.41326 0.0
O75 O 0.50109 0.73734 0.47837 0.0
O76 O 0.52388 0.73929 0.45061 0.0
C77 C 0.5197 0.81563 0.47085 0.0
C78 C 0.47064 0.75909 0.41453 0.0
O79 O 0.49126 0.76403 0.41033 0.0
O80 O 0.46614 0.75619 0.43542 0.0
C81 C 0.55738 0.78546 0.40276 0.0
O82 O 0.54944 0.80516 0.40336 0.0
C83 C 0.5159 0.72919 0.46758 0.0
Zn84 Zn 0.62926 0.31949 0.58063 0.0
Zn85 Zn 0.60066 0.31855 0.61407 0.0
O86 O 0.59777 0.34831 0.59733 0.0
O87 O 0.61992 0.34882 0.56887 0.0
O88 O 0.57557 0.31668 0.63611 0.0
O89 O 0.61422 0.28272 0.56419 0.0
O90 O 0.5926 0.28195 0.59323 0.0
C91 C 0.60572 0.35785 0.58002 0.0
C92 C 0.65065 0.32517 0.63121 0.0
O93 O 0.6308 0.32431 0.6368 0.0
O94 O 0.65413 0.32436 0.60931 0.0
C95 C 0.55805 0.32447 0.63249 0.0
O96 O 0.55582 0.33504 0.61402 0.0
C97 C 0.5992 0.27049 0.57465 0.0
Zn98 Zn 0.99116 0.26602 0.96518 0.0
Zn99 Zn 0.02077 0.26828 0.93211 0.0
O100 O 0.02761 0.30473 0.95222 0.0
O101 O 0.00542 0.30353 0.9808 0.0
O102 O 0.04681 0.26849 0.91116 0.0
O103 O 0.00112 0.23762 0.97779 0.0
O104 O 0.02334 0.23885 0.94941 0.0
C105 C 0.02031 0.31598 0.97033 0.0
C106 C 0.97063 0.26018 0.91449 0.0
O107 O 0.99095 0.26335 0.90965 0.0
O108 O 0.96631 0.25896 0.93584 0.0
C109 C 0.05978 0.28867 0.9078 0.0
O110 O 0.05529 0.31005 0.91628 0.0
C111 C 0.01552 0.22903 0.96662 0.0
Zn112 Zn 0.45299 1.00648 0.30828 0.0
Zn113 Zn 0.4365 0.0478 0.30202 0.0
O114 O 0.44688 0.05096 0.33633 0.0
O115 O 0.43204 0.0114 0.33471 0.0
O116 O 0.42138 0.07449 0.30358 0.0
O117 O 0.45572 0.01295 0.27443 0.0
O118 O 0.45961 0.05351 0.28059 0.0
C119 C 0.43827 0.0337 0.34688 0.0
C120 C 0.40513 0.99719 0.29327 0.0
O121 O 0.41071 0.01749 0.28598 0.0
O122 O 0.41879 0.99157 0.30797 0.0
C123 C 0.40355 0.06964 0.31352 0.0
O124 O 0.39853 0.04964 0.3229 0.0
C125 C 0.45976 0.03316 0.26682 0.0
Zn126 Zn 0.27892 0.2321 0.51211 0.0
Zn127 Zn 0.30282 0.20028 0.5086 0.0
O128 O 0.31013 0.21788 0.4798 0.0
O129 O 0.28892 0.24422 0.48319 0.0
O130 O 0.32486 0.1791 0.50997 0.0
O131 O 0.29198 0.25181 0.54518 0.0
O132 O 0.30839 0.22118 0.54423 0.0
C133 C 0.30281 0.23473 0.47211 0.0
C134 C 0.25267 0.17988 0.50423 0.0
O135 O 0.27149 0.17467 0.50208 0.0
O136 O 0.2519 0.20255 0.50884 0.0
C137 C 0.34041 0.17697 0.49686 0.0
O138 O 0.34323 0.18914 0.47924 0.0
C139 C 0.3037 0.24061 0.55597 0.0
Zn140 Zn 0.15077 0.03411 0.77294 0.0
Zn141 Zn 0.17843 1.0075 0.76856 0.0
O142 O 0.16126 1.00638 0.80377 0.0
O143 O 0.13505 0.02653 0.80165 0.0
O144 O 0.19868 0.97734 0.76508 0.0
O145 O 0.13374 0.02678 0.73982 0.0
O146 O 0.15822 1.00498 0.731 0.0
C147 C 0.14504 0.01442 0.81333 0.0
C148 C 0.19714 0.06581 0.77657 0.0
O149 O 0.20247 0.04472 0.77356 0.0
O150 O 0.17666 0.06552 0.77795 0.0
C151 C 0.20686 0.96821 0.78225 0.0
O152 O 0.20308 0.97703 0.8042 0.0
C153 C 0.14215 0.01447 0.72372 0.0
Zn154 Zn 0.38517 0.92665 0.01054 0.0
Zn155 Zn 0.32649 0.94436 0.00841 0.0
O156 O 0.32539 0.92696 0.97338 0.0
O157 O 0.35832 0.93204 0.99185 0.0
O158 O 0.29633 0.94753 0.01214 0.0
O159 O 0.3678 0.90858 0.03414 0.0
O160 O 0.33629 0.92238 0.03059 0.0
C161 C 0.34432 0.92224 0.97312 0.0
C162 C 0.36654 0.97551 0.01999 0.0
O163 O 0.34768 0.98029 0.01747 0.0
O164 O 0.36647 0.95266 0.01387 0.0
C165 C 0.2923 0.96121 0.99793 0.0
O166 O 0.30722 0.9686 0.98368 0.0
C167 C 0.34837 0.91011 0.03996 0.0
Zn168 Zn 0.34596 0.35745 0.03437 0.0
Zn169 Zn 0.31756 0.38676 0.03626 0.0
O170 O 0.31282 0.3674 1.00081 0.0
O171 O 0.33294 0.33995 1.00005 0.0
O172 O 0.29309 0.4046 0.03775 0.0
O173 O 0.33397 0.34283 0.06189 0.0
O174 O 0.31087 0.36709 0.06279 0.0
C175 C 0.31947 0.34935 0.98931 0.0
C176 C 0.36729 0.41194 0.04359 0.0
O177 O 0.34731 0.41445 0.04322 0.0
O178 O 0.37073 0.39031 0.04012 0.0
C179 C 0.29022 0.41594 0.02097 0.0
O180 O 0.3036 0.41593 0.00405 0.0
C181 C 0.31828 0.35067 0.071 0.0
Zn182 Zn 0.74302 0.14021 0.03233 0.0
Zn183 Zn 0.78378 0.13855 0.03514 0.0
O184 O 0.7864 0.16024 0.01121 0.0
O185 O 0.75027 0.14435 0.99823 0.0
O186 O 0.8135 0.13221 0.04069 0.0
O187 O 0.74977 0.1719 0.05624 0.0
O188 O 0.77886 0.15821 0.06687 0.0
C189 C 0.76979 0.15642 0.99515 0.0
C190 C 0.74771 0.09503 0.02995 0.0
O191 O 0.76328 0.10439 0.01864 0.0
O192 O 0.74359 0.1098 0.04747 0.0
C193 C 0.82008 0.12465 0.02079 0.0
O194 O 0.80715 0.12221 1.00052 0.0
C195 C 0.76656 0.1733 0.07113 0.0
Zn196 Zn 0.17026 0.58958 0.25507 0.0
Zn197 Zn 0.19493 0.539 0.23314 0.0
O198 O 0.20551 0.54233 0.26906 0.0
O199 O 0.19608 0.57482 0.26268 0.0
O200 O 0.1998 0.50719 0.21588 0.0
O201 O 0.14588 0.56753 0.22767 0.0
O202 O 0.16217 0.53866 0.23407 0.0
C203 C 0.19961 0.56185 0.27763 0.0
C204 C 0.21344 0.59228 0.22583 0.0
O205 O 0.21329 0.56917 0.22157 0.0
O206 O 0.19961 0.60074 0.23859 0.0
C207 C 0.21918 0.50865 0.20921 0.0
O208 O 0.23202 0.5308 0.20842 0.0
C209 C 0.14911 0.54605 0.22053 0.0
Zn210 Zn 0.84446 0.85834 0.53304 0.0
Zn211 Zn 0.81697 0.8877 0.53611 0.0
O212 O 0.81128 0.86784 0.50048 0.0
O213 O 0.83083 0.83989 0.49954 0.0
O214 O 0.79271 0.90584 0.53823 0.0
O215 O 0.83442 0.84457 0.56141 0.0
O216 O 0.81068 0.86808 0.56288 0.0
C217 C 0.81746 0.84943 0.48887 0.0
C218 C 0.86652 0.9121 0.54106 0.0
O219 O 0.84689 0.91528 0.54253 0.0
O220 O 0.86935 0.89023 0.53683 0.0
C221 C 0.78942 0.9173 0.52167 0.0
O222 O 0.80269 0.91791 0.50464 0.0
C223 C 0.81878 0.85203 0.57098 0.0
Zn224 Zn 0.96743 0.04933 0.26707 0.0
Zn225 Zn 0.94245 0.07932 0.27268 0.0
O226 O 0.9627 0.08188 0.30997 0.0
O227 O 0.98451 0.05701 0.30006 0.0
O228 O 0.92445 0.11122 0.27291 0.0
O229 O 0.98364 0.05617 0.2386 0.0
O230 O 0.9604 0.08016 0.2383 0.0
C231 C 0.97781 0.0708 0.31656 0.0
C232 C 0.92083 0.02065 0.2647 0.0
O233 O 0.91714 0.04265 0.2681 0.0
O234 O 0.94074 0.01896 0.2626 0.0
C235 C 0.91079 0.12051 0.28609 0.0
O236 O 0.90516 0.11048 0.30458 0.0
C237 C 0.97556 0.07062 0.22817 0.0
Zn238 Zn 0.24712 0.65021 0.52654 0.0
Zn239 Zn 0.28083 0.63625 0.53557 0.0
O240 O 0.28407 0.65052 0.5047 0.0
O241 O 0.25886 0.67214 0.5049 0.0
O242 O 0.31011 0.62858 0.54158 0.0
O243 O 0.24477 0.66507 0.56039 0.0
O244 O 0.27891 0.66001 0.56613 0.0
C245 C 0.27499 0.66539 0.49584 0.0
C246 C 0.23883 0.59732 0.51759 0.0
O247 O 0.25767 0.60253 0.53068 0.0
O248 O 0.23169 0.61469 0.51124 0.0
C249 C 0.3151 0.61698 0.52233 0.0
O250 O 0.30057 0.6104 0.50258 0.0
C251 C 0.263 0.66867 0.57392 0.0
Zn252 Zn 0.46648 0.54868 0.76613 0.0
Zn253 Zn 0.44211 0.57978 0.77305 0.0
O254 O 0.46245 0.58266 0.81008 0.0
O255 O 0.48259 0.55593 0.79981 0.0
O256 O 0.42198 0.60992 0.77296 0.0
O257 O 0.4828 0.55617 0.73789 0.0
O258 O 0.46047 0.58133 0.73888 0.0
C259 C 0.47681 0.57059 0.8164 0.0
C260 C 0.42026 0.52032 0.76308 0.0
O261 O 0.41726 0.5426 0.7686 0.0
O262 O 0.43977 0.51825 0.75948 0.0
C263 C 0.41964 0.62892 0.7888 0.0
O264 O 0.43054 0.63292 0.81056 0.0
C265 C 0.47528 0.57151 0.72826 0.0
Zn266 Zn 0.67062 0.09471 0.75495 0.0
Zn267 Zn 0.69904 0.04051 0.73288 0.0
O268 O 0.7064 0.04556 0.76957 0.0
O269 O 0.69538 0.07762 0.76358 0.0
O270 O 0.70189 1.00682 0.71862 0.0
O271 O 0.64899 0.07216 0.72509 0.0
O272 O 0.666 0.04307 0.73084 0.0
C273 C 0.69704 0.06266 0.77736 0.0
C274 C 0.71442 0.08776 0.72615 0.0
O275 O 0.72079 0.06799 0.7207 0.0
O276 O 0.69709 0.08629 0.7371 0.0
C277 C 0.72053 1.00536 0.71129 0.0
O278 O 0.7351 0.02598 0.70915 0.0
C279 C 0.65366 0.05142 0.71725 0.0
Zn280 Zn 0.77833 0.73266 0.01071 0.0
Zn281 Zn 0.80348 0.70023 0.01117 0.0
O282 O 0.8113 0.71638 0.98215 0.0
O283 O 0.79141 0.744 0.9821 0.0
O284 O 0.82663 0.68068 0.01453 0.0
O285 O 0.79021 0.75191 0.04456 0.0
O286 O 0.80802 0.72265 0.04561 0.0
C287 C 0.80558 0.73332 0.97309 0.0
C288 C 0.7533 0.67905 0.00386 0.0
O289 O 0.77246 0.67425 0.00435 0.0
O290 O 0.75201 0.70153 0.00634 0.0
C291 C 0.83894 0.67428 0.99881 0.0
O292 O 0.83653 0.67955 0.97736 0.0
C293 C 0.80238 0.74187 0.0563 0.0
Zn294 Zn 0.93965 0.50032 0.8106 0.0
Zn295 Zn 0.92915 0.54801 0.80987 0.0
O296 O 0.93698 0.54841 0.84371 0.0
O297 O 0.92209 0.50832 0.8397 0.0
O298 O 0.91983 0.57834 0.80974 0.0
O299 O 0.94767 0.51154 0.77899 0.0
O300 O 0.95463 0.55228 0.79149 0.0
C301 C 0.92965 0.52993 0.8532 0.0
C302 C 0.89336 0.50044 0.79863 0.0
O303 O 0.90174 0.52067 0.79199 0.0
O304 O 0.90538 0.49179 0.81232 0.0
C305 C 0.90344 0.58202 0.82063 0.0
O306 O 0.89625 0.56856 0.83641 0.0
C307 C 0.95546 0.53358 0.77581 0.0
Zn308 Zn 0.86642 0.43071 0.51321 0.0
Zn309 Zn 0.83324 0.44561 0.51284 0.0
O310 O 0.82818 0.42248 0.48072 0.0
O311 O 0.86419 0.43049 0.4777 0.0
O312 O 0.80523 0.45549 0.51445 0.0
O313 O 0.85223 0.40038 0.52618 0.0
O314 O 0.83392 0.42798 0.53971 0.0
C315 C 0.84398 0.42162 0.46797 0.0
C316 C 0.87596 0.48136 0.53256 0.0
O317 O 0.85822 0.47819 0.51814 0.0
O318 O 0.88143 0.4624 0.53732 0.0
C319 C 0.80286 0.47109 0.50178 0.0
O320 O 0.81871 0.47915 0.48877 0.0
C321 C 0.84017 0.40841 0.54114 0.0
Zn322 Zn 0.65198 0.53754 0.2709 0.0
Zn323 Zn 0.67822 0.50803 0.26835 0.0
O324 O 0.6599 0.50719 0.30303 0.0
O325 O 0.63648 0.5305 0.29981 0.0
O326 O 0.69877 0.47803 0.26521 0.0
O327 O 0.63512 0.52905 0.2371 0.0
O328 O 0.6588 0.50561 0.23065 0.0
C329 C 0.64444 0.51719 0.31199 0.0
C330 C 0.69904 0.56671 0.27683 0.0
O331 O 0.70289 0.54483 0.27365 0.0
O332 O 0.67888 0.56815 0.27723 0.0
C333 C 0.70118 0.46269 0.2793 0.0
O334 O 0.69037 0.46386 0.29835 0.0
C335 C 0.6432 0.51506 0.22214 0.0
Eu336 Eu 0.03463 0.02635 0.00734 0.0
C337 C 0.11118 0.12032 0.06243 0.0
C338 C 0.1208 0.14317 0.0309 0.0
C339 C 0.13086 0.16482 0.07292 0.0
C340 C 0.11102 0.12062 0.03817 0.0
C341 C 0.12144 0.14236 0.08009 0.0
C342 C 0.13047 0.16523 0.04837 0.0
C343 C 0.11421 0.11804 0.11075 0.0
N344 N 0.10243 0.09826 0.06885 0.0
C345 C 0.1045 0.0967 0.09263 0.0
C346 C 0.12262 0.14103 0.10447 0.0
Eu347 Eu 0.08914 0.06179 0.03754 0.0
N348 N 0.10222 0.09877 0.02172 0.0
C349 C 0.10324 0.09845 0.99761 0.0
C350 C 0.12114 0.14283 0.00631 0.0
C351 C 0.11236 0.12034 0.98961 0.0
H352 H 0.09888 0.07876 0.09761 0.0
H353 H 0.11261 0.1198 0.97049 0.0
H354 H 0.13809 0.18262 0.04308 0.0
H355 H 0.11559 0.11663 0.12952 0.0
H356 H 0.09637 0.0817 0.98394 0.0
H357 H 0.0106 0.96776 0.07376 0.0
H358 H 0.12842 0.15973 1.00004 0.0
H359 H 0.02391 0.01025 0.94738 0.0
H360 H 0.02724 1.00589 0.06062 0.0
H361 H 0.00657 0.97279 0.91518 0.0
H362 H 0.13882 0.18187 0.08622 0.0
H363 H 0.99438 0.92809 0.04396 0.0
H364 H 0.98436 0.90561 1.00079 0.0
H365 H 0.13047 0.15749 0.11852 0.0
H366 H 0.98333 0.90687 0.95773 0.0
N367 N 0.02126 0.98914 0.02275 0.0
C368 C 0.0202 0.98929 0.04683 0.0
C369 C 0.00184 0.94502 0.03782 0.0
C370 C 0.00211 0.9449 0.01326 0.0
C371 C 0.01085 0.96736 0.05466 0.0
C372 C 0.01209 0.96749 0.00617 0.0
H373 H 0.99156 0.93171 0.92572 0.0
N374 N 0.02038 0.99029 0.9758 0.0
C375 C 0.00807 0.97112 0.93386 0.0
C376 C 0.01163 0.96811 0.98198 0.0
C377 C 0.01809 0.99223 0.95215 0.0
C378 C 0.99962 0.948 0.93989 0.0
C379 C 0.00104 0.94631 0.96418 0.0
O380 O 0.00983 0.03611 0.98441 0.0
O381 O 0.05676 0.06548 0.02069 0.0
O382 O 0.06507 0.07053 0.06553 0.0
O383 O 0.03108 0.04232 0.04743 0.0
O384 O 0.04359 0.05507 0.98442 0.0
O385 O 0.00307 0.03074 0.02028 0.0
O386 O 0.1129 0.05187 0.06162 0.0
O387 O 0.06713 0.02247 0.02404 0.0
O388 O 0.0585 0.01847 0.97872 0.0
O389 O 0.09305 0.04533 0.99741 0.0
O390 O 0.08004 0.03299 0.06036 0.0
O391 O 0.12223 0.05994 0.02724 0.0
C392 C 0.05451 0.0736 1.0015 0.0
C393 C 0.97188 0.02668 0.99144 0.0
C394 C 0.93547 0.0353 0.99142 0.0
C395 C 0.95773 0.04036 0.00179 0.0
C396 C 0.92698 0.01593 0.97097 0.0
C397 C 0.96344 1.00698 0.9712 0.0
C398 C 0.94091 1.00155 0.9611 0.0
C399 C 0.04361 0.05894 0.06648 0.0
C400 C 0.9958 0.0361 1.00032 0.0
C401 C 0.99154 0.92375 0.97114 0.0
C402 C 0.99212 0.92304 0.99564 0.0
C403 C 0.06923 0.01441 0.04331 0.0
C404 C 0.15171 0.06469 0.05855 0.0
C405 C 0.16759 0.05432 0.04768 0.0
C406 C 0.18949 0.05969 0.05934 0.0
C407 C 0.19605 0.07698 0.08149 0.0
C408 C 0.15802 0.08174 0.08093 0.0
C409 C 0.18028 0.0881 0.09219 0.0
C410 C 0.08021 0.02945 0.97798 0.0
C411 C 0.12841 0.05409 0.04739 0.0
H412 H 0.96445 0.05609 0.01698 0.0
H413 H 0.90983 0.01235 0.96244 0.0
H414 H 0.97431 0.99641 0.96282 0.0
H415 H 0.93445 0.98674 0.94519 0.0
H416 H 0.16254 0.04082 0.03057 0.0
H417 H 0.21298 0.08111 0.09082 0.0
H418 H 0.14582 0.08959 0.08997 0.0
H419 H 0.18511 0.101 0.10956 0.0
Eu420 Eu 0.32143 0.79035 0.25706 0.0
C421 C 0.29138 0.86297 0.33201 0.0
C422 C 0.32521 0.88409 0.36021 0.0
C423 C 0.29514 0.90451 0.35682 0.0
C424 C 0.3125 0.86292 0.34258 0.0
C425 C 0.28241 0.88364 0.33952 0.0
C426 C 0.31648 0.90475 0.3671 0.0
C427 C 0.24722 0.86028 0.31534 0.0
N428 N 0.27883 0.84224 0.31591 0.0
C429 C 0.25655 0.84018 0.30892 0.0
C430 C 0.26031 0.88229 0.33045 0.0
Eu431 Eu 0.29331 0.80653 0.31006 0.0
N432 N 0.32042 0.84226 0.3362 0.0
C433 C 0.34174 0.84294 0.34604 0.0
C434 C 0.34633 0.88397 0.37078 0.0
C435 C 0.35469 0.86343 0.36348 0.0
H436 H 0.24536 0.82251 0.29952 0.0
H437 H 0.37137 0.86346 0.37105 0.0
H438 H 0.326 0.92092 0.38068 0.0
H439 H 0.22965 0.85838 0.30942 0.0
H440 H 0.34993 0.82858 0.34052 0.0
H441 H 0.2458 0.72947 0.19778 0.0
H442 H 0.35647 0.8998 0.38434 0.0
H443 H 0.37239 0.78023 0.26649 0.0
H444 H 0.26687 0.765 0.22902 0.0
H445 H 0.39217 0.74814 0.25307 0.0
H446 H 0.28841 0.92036 0.36281 0.0
H447 H 0.26344 0.69599 0.18161 0.0
H448 H 0.29708 0.67878 0.18208 0.0
H449 H 0.25285 0.89765 0.33598 0.0
H450 H 0.33645 0.6833 0.19783 0.0
N451 N 0.29737 0.75349 0.23072 0.0
C452 C 0.27549 0.75144 0.22204 0.0
C453 C 0.27309 0.71198 0.19532 0.0
C454 C 0.29529 0.71379 0.20435 0.0
C455 C 0.26313 0.73085 0.20431 0.0
C456 C 0.30715 0.73499 0.2223 0.0
H457 H 0.37182 0.70879 0.22444 0.0
N458 N 0.34022 0.75812 0.24833 0.0
C459 C 0.37433 0.74458 0.24721 0.0
C460 C 0.32914 0.7373 0.23149 0.0
C461 C 0.36288 0.7625 0.25522 0.0
C462 C 0.36281 0.72247 0.23098 0.0
C463 C 0.34008 0.71878 0.22256 0.0
O464 O 0.35276 0.80838 0.24482 0.0
O465 O 0.31292 0.82074 0.28267 0.0
O466 O 0.27141 0.80875 0.27563 0.0
O467 O 0.29264 0.8051 0.24348 0.0
O468 O 0.34634 0.82596 0.27833 0.0
O469 O 0.32039 0.79878 0.22125 0.0
O470 O 0.25875 0.78771 0.31462 0.0
O471 O 0.29396 0.77744 0.27808 0.0
O472 O 0.34023 0.78169 0.28918 0.0
O473 O 0.3234 0.79308 0.32391 0.0
O474 O 0.29057 0.7656 0.31054 0.0
O475 O 0.28231 0.81119 0.34544 0.0
C476 C 0.33176 0.83633 0.28787 0.0
C477 C 0.35392 0.81828 0.20551 0.0
C478 C 0.35299 0.83824 0.17182 0.0
C479 C 0.34203 0.8274 0.18909 0.0
C480 C 0.3759 0.83982 0.17049 0.0
C481 C 0.3769 0.81974 0.20445 0.0
C482 C 0.38783 0.83044 0.18681 0.0
C483 C 0.27449 0.80937 0.25273 0.0
C484 C 0.34222 0.80822 0.22409 0.0
C485 C 0.3283 0.69764 0.20489 0.0
C486 C 0.30593 0.69512 0.19584 0.0
C487 C 0.29217 0.75893 0.28789 0.0
C488 C 0.25206 0.78143 0.35377 0.0
C489 C 0.26281 0.76424 0.36079 0.0
C490 C 0.25446 0.7512 0.37816 0.0
C491 C 0.23555 0.75549 0.38875 0.0
C492 C 0.23317 0.78574 0.36432 0.0
C493 C 0.22496 0.77279 0.38183 0.0
C494 C 0.33934 0.78486 0.31277 0.0
C495 C 0.26185 0.79725 0.33778 0.0
H496 H 0.3243 0.82648 0.18991 0.0
H497 H 0.38439 0.84808 0.15679 0.0
H498 H 0.38629 0.81263 0.21715 0.0
H499 H 0.4055 0.83151 0.18582 0.0
H500 H 0.27778 0.76136 0.35317 0.0
H501 H 0.22921 0.74569 0.40256 0.0
H502 H 0.22515 0.79954 0.35942 0.0
H503 H 0.21058 0.77636 0.39024 0.0
Eu504 Eu 0.58744 0.04727 0.51246 0.0
C505 C 0.50368 0.99398 0.55746 0.0
C506 C 0.4822 0.96037 0.52465 0.0
C507 C 0.47962 0.95622 0.5662 0.0
C508 C 0.49767 0.98419 0.53293 0.0
C509 C 0.49434 0.98031 0.57436 0.0
C510 C 0.47359 0.94626 0.54139 0.0
C511 C 0.51329 0.01611 0.60615 0.0
N512 N 0.51777 0.01738 0.56484 0.0
C513 C 0.52213 0.02892 0.58871 0.0
C514 C 0.49956 0.99158 0.59897 0.0
Eu515 Eu 0.5317 0.03804 0.53446 0.0
N516 N 0.50595 0.99848 0.51721 0.0
C517 C 0.49834 0.99062 0.49305 0.0
C518 C 0.47525 0.95178 0.49983 0.0
C519 C 0.48311 0.96715 0.48401 0.0
H520 H 0.53273 0.04791 0.59423 0.0
H521 H 0.47747 0.96094 0.46482 0.0
H522 H 0.46181 0.92789 0.53535 0.0
H523 H 0.51707 0.02515 0.6251 0.0
H524 H 0.50402 1.00211 0.48042 0.0
H525 H 0.63762 0.13025 0.57809 0.0
H526 H 0.46338 0.93363 0.49278 0.0
H527 H 0.58724 0.03261 0.45246 0.0
H528 H 0.61287 0.08747 0.56473 0.0
H529 H 0.60256 0.0529 0.41997 0.0
H530 H 0.4724 0.94537 0.57892 0.0
H531 H 0.65156 0.15485 0.54796 0.0
H532 H 0.65407 0.15671 0.50446 0.0
H533 H 0.49267 0.98172 0.61251 0.0
H534 H 0.6447 0.13567 0.46155 0.0
N535 N 0.61175 0.08798 0.52724 0.0
C536 C 0.61858 0.09795 0.55129 0.0
C537 C 0.6405 0.13608 0.54194 0.0
C538 C 0.63447 0.12525 0.51731 0.0
C539 C 0.63271 0.12225 0.559 0.0
C540 C 0.61991 0.10079 0.5104 0.0
H541 H 0.62574 0.09695 0.42994 0.0
N542 N 0.60098 0.0652 0.48021 0.0
C543 C 0.60589 0.06332 0.4385 0.0
C544 C 0.61445 0.08903 0.4862 0.0
C545 C 0.59723 0.05191 0.45687 0.0
C546 C 0.61895 0.0882 0.4442 0.0
C547 C 0.62364 0.10128 0.46831 0.0
O548 O 0.60116 0.01562 0.50021 0.0
O549 O 0.55627 0.0198 0.51724 0.0
O550 O 0.55301 0.02139 0.55743 0.0
O551 O 0.5877 0.04602 0.55208 0.0
O552 O 0.56877 0.01129 0.48523 0.0
O553 O 0.62079 0.04654 0.52817 0.0
O554 O 0.51828 0.06828 0.55148 0.0
O555 O 0.56246 0.06609 0.5289 0.0
O556 O 0.56672 0.0609 0.48678 0.0
O557 O 0.5311 0.04055 0.49519 0.0
O558 O 0.55127 0.07269 0.56219 0.0
O559 O 0.49964 0.04287 0.51888 0.0
C560 C 0.55324 1.00323 0.49809 0.0
C561 C 0.64026 0.02299 0.50293 0.0
C562 C 0.66962 1.00147 0.49625 0.0
C563 C 0.65201 1.00614 0.50903 0.0
C564 C 0.67553 0.01404 0.47753 0.0
C565 C 0.64659 0.03573 0.48452 0.0
C566 C 0.66415 0.03119 0.47184 0.0
C567 C 0.57522 0.02936 0.56251 0.0
C568 C 0.62015 0.0251 0.5143 0.0
C569 C 0.63761 0.1259 0.47506 0.0
C570 C 0.64296 0.13788 0.49949 0.0
C571 C 0.56546 0.08208 0.54855 0.0
C572 C 0.47919 0.06354 0.54617 0.0
C573 C 0.46425 0.07474 0.5352 0.0
C574 C 0.44579 0.07972 0.54655 0.0
C575 C 0.44269 0.07319 0.56908 0.0
C576 C 0.47528 0.0566 0.56824 0.0
C577 C 0.45715 0.06147 0.57962 0.0
C578 C 0.54474 0.05215 0.48158 0.0
C579 C 0.50015 0.0621 0.53596 0.0
H580 H 0.64699 0.99611 0.52312 0.0
H581 H 0.68914 0.01078 0.46748 0.0
H582 H 0.63783 0.04886 0.47971 0.0
H583 H 0.66884 0.04085 0.45746 0.0
H584 H 0.46729 0.07987 0.51805 0.0
H585 H 0.42931 0.07754 0.57892 0.0
H586 H 0.48664 0.04816 0.57709 0.0
H587 H 0.45456 0.05663 0.59694 0.0
Eu588 Eu 0.28314 0.29974 0.77044 0.0
C589 C 0.36206 0.27098 0.82105 0.0
C590 C 0.37818 0.30857 0.85204 0.0
C591 C 0.3807 0.26817 0.85941 0.0
C592 C 0.36623 0.29665 0.82892 0.0
C593 C 0.3699 0.25658 0.83596 0.0
C594 C 0.38479 0.29412 0.86745 0.0
C595 C 0.35836 0.22088 0.80247 0.0
N596 N 0.35193 0.26035 0.79818 0.0
C597 C 0.35096 0.23592 0.78839 0.0
C598 C 0.36752 0.23114 0.82651 0.0
Eu599 Eu 0.33931 0.28689 0.77545 0.0
N600 N 0.36004 0.31018 0.8134 0.0
C601 C 0.36689 0.33586 0.81935 0.0
C602 C 0.38397 0.33475 0.85864 0.0
C603 C 0.37866 0.34844 0.84204 0.0
H604 H 0.34396 0.22796 0.7697 0.0
H605 H 0.38354 0.36874 0.84673 0.0
H606 H 0.39379 0.30294 0.88532 0.0
H607 H 0.35703 0.20141 0.79474 0.0
H608 H 0.36301 0.34709 0.8071 0.0
H609 H 0.24132 0.21936 0.69649 0.0
H610 H 0.39314 0.34457 0.87619 0.0
H611 H 0.27682 0.35776 0.77828 0.0
H612 H 0.26109 0.24008 0.73659 0.0
H613 H 0.26347 0.38516 0.75444 0.0
H614 H 0.38662 0.25736 0.87119 0.0
H615 H 0.23093 0.24434 0.66819 0.0
H616 H 0.22904 0.28631 0.66074 0.0
H617 H 0.37339 0.21949 0.83736 0.0
H618 H 0.23509 0.33154 0.67647 0.0
N619 N 0.26282 0.27732 0.73188 0.0
C620 C 0.25675 0.25167 0.72497 0.0
C621 C 0.23975 0.25375 0.686 0.0
C622 C 0.24471 0.27981 0.69356 0.0
C623 C 0.24549 0.2396 0.70194 0.0
C624 C 0.25628 0.29117 0.71695 0.0
H625 H 0.24758 0.36847 0.71148 0.0
N626 N 0.26967 0.32644 0.74873 0.0
C627 C 0.26252 0.36596 0.74604 0.0
C628 C 0.25984 0.31656 0.72566 0.0
C629 C 0.27007 0.35045 0.75945 0.0
C630 C 0.25362 0.35649 0.7218 0.0
C631 C 0.25174 0.33136 0.71145 0.0
O632 O 0.26519 0.31547 0.79862 0.0
O633 O 0.31196 0.29719 0.79532 0.0
O634 O 0.31477 0.25196 0.78364 0.0
O635 O 0.27964 0.25917 0.77484 0.0
O636 O 0.30031 0.32913 0.80325 0.0
O637 O 0.25088 0.27782 0.77862 0.0
O638 O 0.35523 0.27186 0.7451 0.0
O639 O 0.31075 0.28995 0.75053 0.0
O640 O 0.3075 0.33535 0.764 0.0
O641 O 0.34288 0.32733 0.76955 0.0
O642 O 0.32171 0.25742 0.7429 0.0
O643 O 0.3741 0.30532 0.77004 0.0
C644 C 0.31408 0.31733 0.81063 0.0
C645 C 0.22561 0.30016 0.79543 0.0
C646 C 0.19117 0.30005 0.81443 0.0
C647 C 0.21201 0.29387 0.81353 0.0
C648 C 0.18419 0.31241 0.79714 0.0
C649 C 0.21796 0.31212 0.77819 0.0
C650 C 0.19742 0.31826 0.77912 0.0
C651 C 0.2923 0.24444 0.78026 0.0
C652 C 0.24827 0.29569 0.79541 0.0
C653 C 0.24122 0.32042 0.68775 0.0
C654 C 0.23776 0.29468 0.67881 0.0
C655 C 0.30855 0.26979 0.73515 0.0
C656 C 0.3949 0.27998 0.74771 0.0
C657 C 0.41225 0.292 0.73557 0.0
C658 C 0.43088 0.28195 0.73111 0.0
C659 C 0.43145 0.25957 0.73853 0.0
C660 C 0.39637 0.25793 0.75504 0.0
C661 C 0.41442 0.2478 0.75044 0.0
C662 C 0.3299 0.34239 0.76571 0.0
C663 C 0.37433 0.28893 0.75066 0.0
H664 H 0.21783 0.28482 0.82708 0.0
H665 H 0.16839 0.31758 0.79763 0.0
H666 H 0.22799 0.31699 0.76415 0.0
H667 H 0.19181 0.32778 0.76592 0.0
H668 H 0.41122 0.30893 0.72961 0.0
H669 H 0.44498 0.25082 0.73479 0.0
H670 H 0.38328 0.24808 0.76379 0.0
H671 H 0.41507 0.23052 0.75587 0.0
Eu672 Eu 0.05478 0.07038 0.53346 0.0
C673 C 0.0737 0.98799 0.45328 0.0
C674 C 0.038 0.97241 0.42721 0.0
C675 C 0.07201 0.96497 0.41208 0.0
C676 C 0.0507 0.98529 0.44977 0.0
C677 C 0.08456 0.97761 0.43452 0.0
C678 C 0.04878 0.96239 0.40843 0.0
C679 C 0.11927 0.99139 0.46194 0.0
N680 N 0.08539 0.99998 0.47523 0.0
C681 C 0.10773 1.00103 0.48004 0.0
C682 C 0.10766 0.97973 0.43902 0.0
Eu683 Eu 0.06458 0.01347 0.50599 0.0
N684 N 0.04068 0.99496 0.46838 0.0
C685 C 0.01778 0.99195 0.46538 0.0
C686 C 0.01475 0.96971 0.42419 0.0
C687 C 0.00464 0.97955 0.44336 0.0
H688 H 0.11665 0.00951 0.49795 0.0
H689 H 0.98664 0.97759 0.44124 0.0
H690 H 0.03927 0.95241 0.39107 0.0
H691 H 0.13704 0.99268 0.46576 0.0
H692 H 0.00918 0.99946 0.4795 0.0
H693 H 0.13476 0.11017 0.59439 0.0
H694 H 0.00447 0.95998 0.40717 0.0
H695 H 0.00263 0.07215 0.54381 0.0
H696 H 0.11088 0.08527 0.55777 0.0
H697 H 0.98328 0.09002 0.57645 0.0
H698 H 0.08006 0.95687 0.3975 0.0
H699 H 0.11815 0.13006 0.62837 0.0
H700 H 0.08388 0.13787 0.64563 0.0
H701 H 0.11657 0.972 0.42508 0.0
H702 H 0.04281 0.13183 0.64111 0.0
N703 N 0.07993 0.09073 0.56974 0.0
C704 C 0.10283 0.09384 0.57188 0.0
C705 C 0.1073 0.11909 0.61208 0.0
C706 C 0.08398 0.11587 0.61003 0.0
C707 C 0.11673 0.10794 0.59295 0.0
C708 C 0.07053 0.10143 0.58838 0.0
H709 H 0.00525 0.11381 0.61563 0.0
N710 N 0.0349 0.08418 0.56492 0.0
C711 C 0.00128 0.0922 0.57945 0.0
C712 C 0.04737 0.09786 0.58596 0.0
C713 C 0.01224 0.08195 0.56112 0.0
C714 C 0.01374 0.10564 0.60151 0.0
C715 C 0.03709 0.10889 0.6049 0.0
O716 O 0.0357 0.09344 0.51956 0.0
O717 O 0.05428 0.0468 0.49615 0.0
O718 O 0.09254 0.04189 0.4947 0.0
O719 O 0.08929 0.07718 0.52103 0.0
O720 O 0.02511 0.05644 0.50367 0.0
O721 O 0.07216 0.108 0.52927 0.0
O722 O 0.0815 0.98902 0.52074 0.0
O723 O 0.06521 0.03719 0.54332 0.0
O724 O 0.02831 0.04163 0.54604 0.0
O725 O 0.02941 1.00743 0.51699 0.0
O726 O 0.09407 0.02696 0.53622 0.0
O727 O 0.0455 0.97576 0.5085 0.0
C728 C 0.03498 0.04738 0.48626 0.0
C729 C 0.05058 0.13713 0.52479 0.0
C730 C 0.05769 0.17617 0.51114 0.0
C731 C 0.06274 0.15352 0.51197 0.0
C732 C 0.04068 0.18286 0.5238 0.0
C733 C 0.0338 0.14389 0.53784 0.0
C734 C 0.029 0.16686 0.53744 0.0
C735 C 0.10024 0.06573 0.50553 0.0
C736 C 0.05345 0.11186 0.52048 0.0
C737 C 0.05041 0.1232 0.62641 0.0
C738 C 0.07379 0.12669 0.62895 0.0
C739 C 0.08445 0.03673 0.55352 0.0
C740 C 0.06574 0.9454 0.51274 0.0
C741 C 0.05484 0.92866 0.52606 0.0
C742 C 0.05967 0.90555 0.52488 0.0
C743 C 0.0752 0.89887 0.50991 0.0
C744 C 0.08107 0.93864 0.49745 0.0
C745 C 0.08568 0.91533 0.49601 0.0
C746 C 0.01934 0.01852 0.53374 0.0
C747 C 0.06327 0.97087 0.51833 0.0
H748 H 0.07537 0.148 0.50144 0.0
H749 H 0.03655 0.20038 0.52318 0.0
H750 H 0.02402 0.1312 0.54763 0.0
H751 H 0.01588 0.17199 0.54723 0.0
H752 H 0.04337 0.93409 0.53831 0.0
H753 H 0.07926 0.8811 0.50912 0.0
H754 H 0.08989 0.95154 0.48727 0.0
H755 H 0.09775 0.91024 0.48453 0.0
Eu756 Eu 0.341 0.81789 0.77078 0.0
C757 C 0.27851 0.73618 0.81229 0.0
C758 C 0.2819 0.69754 0.78758 0.0
C759 C 0.27082 0.69781 0.8277 0.0
C760 C 0.28348 0.72345 0.79096 0.0
C761 C 0.27163 0.72336 0.83067 0.0
C762 C 0.27599 0.68495 0.80622 0.0
C763 C 0.265 0.76143 0.85276 0.0
N764 N 0.27926 0.76081 0.81461 0.0
C765 C 0.27195 0.77334 0.83407 0.0
C766 C 0.26512 0.73641 0.8512 0.0
Eu767 Eu 0.29018 0.77956 0.78203 0.0
N768 N 0.28869 0.73603 0.77308 0.0
C769 C 0.29136 0.72331 0.75092 0.0
C770 C 0.28566 0.68483 0.76532 0.0
C771 C 0.29016 0.69774 0.74684 0.0
H772 H 0.27182 0.7927 0.83528 0.0
H773 H 0.29269 0.68801 0.72937 0.0
H774 H 0.27483 0.66511 0.80397 0.0
H775 H 0.25957 0.77154 0.86834 0.0
H776 H 0.29486 0.73257 0.73617 0.0
H777 H 0.33618 0.91019 0.81826 0.0
H778 H 0.2846 0.66497 0.76203 0.0
H779 H 0.35891 0.80172 0.71746 0.0
H780 H 0.33555 0.86592 0.81407 0.0
H781 H 0.36918 0.82035 0.6824 0.0
H782 H 0.26574 0.6877 0.8417 0.0
H783 H 0.34327 0.93095 0.78386 0.0
H784 H 0.35272 0.9285 0.74154 0.0
H785 H 0.25967 0.72719 0.86567 0.0
H786 H 0.36164 0.90416 0.70466 0.0
N787 N 0.34121 0.86076 0.77708 0.0
C788 C 0.33843 0.8744 0.79869 0.0
C789 C 0.34276 0.91128 0.78175 0.0
C790 C 0.34662 0.89757 0.76001 0.0
C791 C 0.33882 0.89966 0.80122 0.0
C792 C 0.3457 0.87197 0.75814 0.0
H793 H 0.36784 0.86394 0.68249 0.0
N794 N 0.35051 0.83389 0.73633 0.0
C795 C 0.3638 0.83112 0.69761 0.0
C796 C 0.35055 0.8582 0.73723 0.0
C797 C 0.35788 0.82058 0.71738 0.0
C798 C 0.363 0.85572 0.69773 0.0
C799 C 0.35669 0.86973 0.71784 0.0
O800 O 0.37345 0.80953 0.76872 0.0
O801 O 0.3269 0.78004 0.78037 0.0
O802 O 0.31319 0.78779 0.81692 0.0
O803 O 0.33733 0.82381 0.81041 0.0
O804 O 0.34537 0.77985 0.75195 0.0
O805 O 0.37123 0.84248 0.79407 0.0
O806 O 0.25777 0.78712 0.78665 0.0
O807 O 0.30409 0.81738 0.77258 0.0
O808 O 0.31831 0.81035 0.73629 0.0
O809 O 0.29443 0.77411 0.74244 0.0
O810 O 0.28638 0.8175 0.80159 0.0
O811 O 0.26071 0.75957 0.75549 0.0
C812 C 0.33553 0.76578 0.76565 0.0
C813 C 0.40646 0.84224 0.77979 0.0
C814 C 0.4471 0.8489 0.78674 0.0
C815 C 0.42551 0.83955 0.79285 0.0
C816 C 0.44949 0.86107 0.76728 0.0
C817 C 0.40899 0.85482 0.76065 0.0
C818 C 0.43047 0.86417 0.75443 0.0
C819 C 0.32971 0.80838 0.82451 0.0
C820 C 0.38435 0.82918 0.78499 0.0
C821 C 0.35703 0.89501 0.71941 0.0
C822 C 0.35196 0.90888 0.74042 0.0
C823 C 0.29535 0.83145 0.78737 0.0
C824 C 0.22484 0.75574 0.76881 0.0
C825 C 0.20899 0.74993 0.74832 0.0
C826 C 0.18625 0.73942 0.74962 0.0
C827 C 0.17955 0.73375 0.77152 0.0
C828 C 0.2181 0.75012 0.79064 0.0
C829 C 0.19548 0.73895 0.79187 0.0
C830 C 0.30269 0.7893 0.7284 0.0
C831 C 0.24739 0.7707 0.76732 0.0
H832 H 0.42343 0.82937 0.80734 0.0
H833 H 0.46602 0.86844 0.76226 0.0
H834 H 0.3945 0.85705 0.7503 0.0
H835 H 0.43236 0.87364 0.7395 0.0
H836 H 0.21419 0.75487 0.73165 0.0
H837 H 0.1619 0.7264 0.77321 0.0
H838 H 0.23007 0.75499 0.80681 0.0
H839 H 0.19016 0.73514 0.80882 0.0
Eu840 Eu 0.56507 0.04839 0.04066 0.0
C841 C 0.49821 0.05815 0.95734 0.0
C842 C 0.47779 0.01498 0.93974 0.0
C843 C 0.4601 0.04843 0.93627 0.0
C844 C 0.49761 0.0328 0.95225 0.0
C845 C 0.47965 0.06616 0.94872 0.0
C846 C 0.4591 0.02292 0.93197 0.0
C847 C 0.50158 0.10898 0.96334 0.0
N848 N 0.51708 0.07509 0.9699 0.0
C849 C 0.5194 0.10025 0.97166 0.0
C850 C 0.48146 0.09186 0.95215 0.0
Eu851 Eu 0.54808 0.05904 0.97922 0.0
N852 N 0.51611 0.02552 0.95959 0.0
C853 C 0.51536 1.00051 0.95536 0.0
C854 C 0.47721 0.98958 0.93531 0.0
C855 C 0.49602 0.98234 0.94324 0.0
H856 H 0.53501 0.11385 0.97998 0.0
H857 H 0.49561 0.96266 0.94014 0.0
H858 H 0.44386 0.00945 0.9223 0.0
H859 H 0.50348 0.12892 0.96541 0.0
H860 H 0.52916 0.99388 0.96161 0.0
H861 H 0.62828 0.13666 0.08471 0.0
H862 H 0.46228 0.9754 0.92589 0.0
H863 H 0.56593 0.9898 0.04278 0.0
H864 H 0.59312 0.11146 0.06103 0.0
H865 H 0.59196 0.96706 0.05722 0.0
H866 H 0.44573 0.0543 0.92966 0.0
H867 H 0.65679 0.11667 0.09872 0.0
H868 H 0.66831 0.0776 0.10086 0.0
H869 H 0.46767 0.09868 0.9456 0.0
H870 H 0.65886 0.0316 0.09267 0.0
N871 N 0.60024 0.07598 0.06121 0.0
C872 C 0.60476 0.10165 0.06676 0.0
C873 C 0.64109 0.10511 0.08818 0.0
C874 C 0.63659 0.079 0.08263 0.0
C875 C 0.62505 0.11644 0.08031 0.0
C876 C 0.6157 0.0647 0.06914 0.0
H877 H 0.63054 0.99035 0.07654 0.0
N878 N 0.5901 0.02537 0.05194 0.0
C879 C 0.59756 0.98717 0.05899 0.0
C880 C 0.61051 0.03873 0.06431 0.0
C881 C 0.58296 1.00011 0.05063 0.0
C882 C 0.61928 1.00038 0.06991 0.0
C883 C 0.62585 0.02651 0.0732 0.0
O884 O 0.54411 0.0225 0.05837 0.0
O885 O 0.53987 0.03752 0.00725 0.0
O886 O 0.53616 0.08418 0.0085 0.0
O887 O 0.55903 0.08651 0.04381 0.0
O888 O 0.52736 0.03825 0.04012 0.0
O889 O 0.56004 0.06131 0.07817 0.0
O890 O 0.56291 0.09233 0.96582 0.0
O891 O 0.57371 0.06982 0.01234 0.0
O892 O 0.57059 0.01731 0.01145 0.0
O893 O 0.5621 0.02557 0.97289 0.0
O894 O 0.58592 0.06917 0.9794 0.0
O895 O 0.54927 0.05563 0.94071 0.0
C896 C 0.52226 0.03435 0.01725 0.0
C897 C 0.54343 0.03052 0.10013 0.0
C898 C 0.51678 0.01999 0.12779 0.0
C899 C 0.52429 0.03338 0.11047 0.0
C900 C 0.52919 1.00442 0.13569 0.0
C901 C 0.55598 0.01512 0.10786 0.0
C902 C 0.54894 1.00228 0.12592 0.0
C903 C 0.54327 0.09324 0.03171 0.0
C904 C 0.54628 0.03947 0.07808 0.0
C905 C 0.64685 0.0407 0.08589 0.0
C906 C 0.6522 0.06688 0.09061 0.0
C907 C 0.59142 0.07326 0.00234 0.0
C908 C 0.57178 0.08907 0.92556 0.0
C909 C 0.58426 0.07478 0.91247 0.0
C910 C 0.59495 0.08341 0.89368 0.0
C911 C 0.59341 0.10633 0.88824 0.0
C912 C 0.57053 0.11209 0.92024 0.0
C913 C 0.58135 0.12069 0.90164 0.0
C914 C 0.56982 0.01275 0.98745 0.0
C915 C 0.55812 0.07986 0.94337 0.0
H916 H 0.51433 0.04485 0.1039 0.0
H917 H 0.5237 0.99415 0.14945 0.0
H918 H 0.57061 0.0124 0.09946 0.0
H919 H 0.55844 0.99021 0.13191 0.0
H920 H 0.58516 0.05688 0.91639 0.0
H921 H 0.60153 0.11305 0.87361 0.0
H922 H 0.56073 0.12313 0.93015 0.0
H923 H 0.58012 0.13832 0.8974 0.0
Eu924 Eu 0.31815 0.32184 0.27931 0.0
C925 C 0.2355 0.23012 0.23417 0.0
C926 C 0.21462 0.22702 0.26836 0.0
C927 C 0.19526 0.20939 0.22765 0.0
C928 C 0.23503 0.23489 0.25882 0.0
C929 C 0.21569 0.21684 0.21829 0.0
C930 C 0.19471 0.21453 0.25264 0.0
C931 C 0.2382 0.21664 0.18536 0.0
N932 N 0.2556 0.23695 0.22578 0.0
C933 C 0.25736 0.22943 0.20188 0.0
C934 C 0.2172 0.21053 0.19357 0.0
Eu935 Eu 0.28805 0.25526 0.25474 0.0
N936 N 0.25472 0.24614 0.27353 0.0
C937 C 0.25517 0.24957 0.29802 0.0
C938 C 0.21494 0.23126 0.29345 0.0
C939 C 0.23534 0.24253 0.30833 0.0
H940 H 0.27375 0.23288 0.19571 0.0
H941 H 0.23584 0.24566 0.32777 0.0
H942 H 0.17892 0.20828 0.25965 0.0
H943 H 0.23972 0.21101 0.16641 0.0
H944 H 0.27068 0.2581 0.30984 0.0
H945 H 0.36201 0.35449 0.2051 0.0
H946 H 0.19964 0.22551 0.30148 0.0
H947 H 0.34207 0.33111 0.33712 0.0
H948 H 0.32994 0.34293 0.22637 0.0
H949 H 0.37918 0.34019 0.36009 0.0
H950 H 0.17989 0.19916 0.21574 0.0
H951 H 0.40036 0.35808 0.2239 0.0
H952 H 0.42554 0.35791 0.26005 0.0
H953 H 0.20241 0.20021 0.18082 0.0
H954 H 0.4303 0.35403 0.30225 0.0
N955 N 0.3485 0.33533 0.25648 0.0
C956 C 0.34592 0.3422 0.23468 0.0
C957 C 0.38602 0.35176 0.2332 0.0
C958 C 0.389 0.34703 0.25631 0.0
C959 C 0.36442 0.34969 0.22253 0.0
C960 C 0.36974 0.33869 0.26772 0.0
H961 H 0.41328 0.34768 0.33958 0.0
N962 N 0.35393 0.32887 0.30252 0.0
C963 C 0.37762 0.33813 0.34065 0.0
C964 C 0.37251 0.33554 0.29134 0.0
C965 C 0.35637 0.3321 0.32723 0.0
C966 C 0.39677 0.34247 0.32903 0.0
C967 C 0.39445 0.34193 0.30427 0.0
O968 O 0.3115 0.34479 0.31226 0.0
O969 O 0.28698 0.2913 0.27799 0.0
O970 O 0.27902 0.27632 0.22687 0.0
O971 O 0.3025 0.3175 0.24048 0.0
O972 O 0.28302 0.32501 0.27045 0.0
O973 O 0.32831 0.36235 0.2852 0.0
O974 O 0.3029 0.22779 0.23497 0.0
O975 O 0.32125 0.28418 0.26366 0.0
O976 O 0.3159 0.30004 0.30904 0.0
O977 O 0.30622 0.25746 0.29161 0.0
O978 O 0.31293 0.26277 0.22834 0.0
O979 O 0.28504 0.21903 0.26505 0.0
C980 C 0.2727 0.30281 0.27299 0.0
C981 C 0.31276 0.38758 0.31336 0.0
C982 C 0.29563 0.41889 0.30232 0.0
C983 C 0.30019 0.39553 0.29635 0.0
C984 C 0.30314 0.43407 0.32545 0.0
C985 C 0.31997 0.4026 0.33663 0.0
C986 C 0.31508 0.42576 0.34267 0.0
C987 C 0.28817 0.29935 0.22402 0.0
C988 C 0.32136 0.36571 0.30636 0.0
C989 C 0.41343 0.34922 0.29259 0.0
C990 C 0.41071 0.35154 0.26861 0.0
C991 C 0.32815 0.2798 0.24348 0.0
C992 C 0.28926 0.18502 0.23535 0.0
C993 C 0.2975 0.1689 0.24699 0.0
C994 C 0.29855 0.1456 0.23416 0.0
C995 C 0.28835 0.13693 0.21012 0.0
C996 C 0.27947 0.17674 0.21111 0.0
C997 C 0.27845 0.15241 0.19877 0.0
C998 C 0.31393 0.27644 0.31023 0.0
C999 C 0.29601 0.21132 0.2478 0.0
H1000 H 0.29489 0.38417 0.2782 0.0
H1001 H 0.29988 0.45233 0.33007 0.0
H1002 H 0.33003 0.39678 0.34984 0.0
H1003 H 0.321 0.4375 0.3605 0.0
H1004 H 0.3053 0.17561 0.26565 0.0
H1005 H 0.28906 0.11892 0.19987 0.0
H1006 H 0.2735 0.18917 0.20148 0.0
H1007 H 0.27113 0.1461 0.18002 0.0
Eu1008 Eu 0.55439 0.56924 0.03202 0.0
C1009 C 0.57418 0.48529 0.95399 0.0
C1010 C 0.53831 0.46827 0.92838 0.0
C1011 C 0.57245 0.46145 0.91311 0.0
C1012 C 0.55112 0.48206 0.95063 0.0
C1013 C 0.58507 0.47484 0.93531 0.0
C1014 C 0.54911 0.45813 0.90968 0.0
C1015 C 0.62 0.49008 0.96234 0.0
N1016 N 0.58593 0.49804 0.9757 0.0
C1017 C 0.60842 0.49977 0.98038 0.0
C1018 C 0.6083 0.47769 0.93963 0.0
Eu1019 Eu 0.56531 0.5124 0.00632 0.0
N1020 N 0.54118 0.49234 0.969 0.0
C1021 C 0.51827 0.48931 0.96591 0.0
C1022 C 0.51499 0.46505 0.92548 0.0
C1023 C 0.50496 0.47568 0.94433 0.0
H1024 H 0.61747 0.50887 0.99811 0.0
H1025 H 0.48695 0.47362 0.94219 0.0
H1026 H 0.53954 0.44759 0.89251 0.0
H1027 H 0.63789 0.49194 0.96605 0.0
H1028 H 0.50977 0.49798 0.97944 0.0
H1029 H 0.63318 0.6135 0.09391 0.0
H1030 H 0.50462 0.45458 0.90872 0.0
H1031 H 0.50157 0.56987 0.04082 0.0
H1032 H 0.61049 0.58877 0.05658 0.0
H1033 H 0.48099 0.58577 0.07325 0.0
H1034 H 0.58054 0.45334 0.89858 0.0
H1035 H 0.61501 0.62921 0.12854 0.0
H1036 H 0.57974 0.63327 0.1457 0.0
H1037 H 0.61727 0.46998 0.92574 0.0
H1038 H 0.53851 0.62549 0.14029 0.0
N1039 N 0.57864 0.58995 0.06881 0.0
C1040 C 0.60173 0.59543 0.07097 0.0
C1041 C 0.60466 0.61821 0.11195 0.0
C1042 C 0.58115 0.61299 0.10973 0.0
C1043 C 0.61497 0.60948 0.09244 0.0
C1044 C 0.56839 0.59867 0.08766 0.0
H1045 H 0.50168 0.60787 0.11349 0.0
N1046 N 0.5333 0.58147 0.06297 0.0
C1047 C 0.49898 0.58812 0.07678 0.0
C1048 C 0.54511 0.59427 0.08466 0.0
C1049 C 0.51065 0.57905 0.05853 0.0
C1050 C 0.51072 0.60056 0.09945 0.0
C1051 C 0.53408 0.60411 0.10354 0.0
O1052 O 0.53502 0.59177 0.01791 0.0
O1053 O 0.55491 0.54535 0.99514 0.0
O1054 O 0.5934 0.54082 0.99505 0.0
O1055 O 0.58901 0.57661 0.01964 0.0
O1056 O 0.52544 0.5546 1.00132 0.0
O1057 O 0.57122 0.6074 0.02881 0.0
O1058 O 0.58311 0.48897 0.02186 0.0
O1059 O 0.56556 0.53708 0.04278 0.0
O1060 O 0.52851 0.54041 0.04514 0.0
O1061 O 0.52975 0.50586 0.01671 0.0
O1062 O 0.59499 0.52768 0.03659 0.0
O1063 O 0.54683 0.47578 0.01205 0.0
C1064 C 0.53581 0.54559 0.98434 0.0
C1065 C 0.54863 0.63567 0.02532 0.0
C1066 C 0.55632 0.67682 0.01574 0.0
C1067 C 0.56169 0.65404 0.01511 0.0
C1068 C 0.53796 0.68137 0.02744 0.0
C1069 C 0.53041 0.64029 0.03707 0.0
C1070 C 0.52521 0.66322 0.03822 0.0
C1071 C 0.60057 0.56495 0.00504 0.0
C1072 C 0.55241 0.61085 0.01974 0.0
C1073 C 0.5467 0.61782 0.12562 0.0
C1074 C 0.57018 0.62226 0.1287 0.0
C1075 C 0.58505 0.53799 0.05323 0.0
C1076 C 0.56696 0.44548 0.01618 0.0
C1077 C 0.55622 0.42907 0.03 0.0
C1078 C 0.55887 0.40473 0.027 0.0
C1079 C 0.57256 0.39695 0.01012 0.0
C1080 C 0.58065 0.43762 0.99939 0.0
C1081 C 0.58346 0.4134 0.99646 0.0
C1082 C 0.51958 0.51719 0.0332 0.0
C1083 C 0.56497 0.47119 0.02136 0.0
H1084 H 0.57564 0.65019 0.0059 0.0
H1085 H 0.53312 0.69865 0.02774 0.0
H1086 H 0.51983 0.62604 0.04465 0.0
H1087 H 0.51092 0.66666 0.04689 0.0
H1088 H 0.54577 0.43526 0.0431 0.0
H1089 H 0.57499 0.37827 0.00771 0.0
H1090 H 0.58935 0.45021 0.98884 0.0
H1091 H 0.59419 0.40741 0.98367 0.0
Eu1092 Eu 0.83855 0.31672 0.26801 0.0
C1093 C 0.77924 0.23527 0.31339 0.0
C1094 C 0.7825 0.19612 0.28958 0.0
C1095 C 0.77179 0.1976 0.32996 0.0
C1096 C 0.78388 0.22193 0.29222 0.0
C1097 C 0.77277 0.22314 0.33234 0.0
C1098 C 0.77671 0.18414 0.30865 0.0
C1099 C 0.76715 0.26194 0.354 0.0
N1100 N 0.78017 0.25987 0.31515 0.0
C1101 C 0.7736 0.27312 0.33472 0.0
C1102 C 0.76693 0.2369 0.35291 0.0
Eu1103 Eu 0.79 0.2773 0.2815 0.0
N1104 N 0.789 0.23392 0.27391 0.0
C1105 C 0.79212 0.22076 0.25217 0.0
C1106 C 0.78654 0.18294 0.26769 0.0
C1107 C 0.79124 0.19531 0.24887 0.0
H1108 H 0.77373 0.2925 0.33563 0.0
H1109 H 0.79413 0.18523 0.23173 0.0
H1110 H 0.77559 0.16437 0.30693 0.0
H1111 H 0.76235 0.27264 0.36968 0.0
H1112 H 0.79569 0.22957 0.23716 0.0
H1113 H 0.83641 0.40725 0.32257 0.0
H1114 H 0.78571 0.16315 0.265 0.0
H1115 H 0.84994 0.3025 0.21134 0.0
H1116 H 0.83367 0.36233 0.31463 0.0
H1117 H 0.85863 0.32359 0.17736 0.0
H1118 H 0.76693 0.188 0.34435 0.0
H1119 H 0.84446 0.43106 0.29043 0.0
H1120 H 0.85275 0.43147 0.24805 0.0
H1121 H 0.76185 0.22824 0.36783 0.0
H1122 H 0.85854 0.40883 0.20866 0.0
N1123 N 0.83962 0.35987 0.2778 0.0
C1124 C 0.83712 0.37212 0.3002 0.0
C1125 C 0.84316 0.41113 0.28668 0.0
C1126 C 0.84612 0.39868 0.26393 0.0
C1127 C 0.83864 0.39777 0.30487 0.0
C1128 C 0.84418 0.37267 0.25992 0.0
H1129 H 0.86054 0.36869 0.18211 0.0
N1130 N 0.84561 0.33494 0.23429 0.0
C1131 C 0.85534 0.33397 0.19413 0.0
C1132 C 0.84726 0.35986 0.23759 0.0
C1133 C 0.85027 0.32205 0.21328 0.0
C1134 C 0.85641 0.35942 0.1969 0.0
C1135 C 0.85262 0.37277 0.21889 0.0
O1136 O 0.87037 0.31073 0.25869 0.0
O1137 O 0.82655 0.27888 0.2782 0.0
O1138 O 0.81461 0.28516 0.31506 0.0
O1139 O 0.83801 0.32144 0.30811 0.0
O1140 O 0.84416 0.27921 0.24932 0.0
O1141 O 0.86968 0.33802 0.29145 0.0
O1142 O 0.75737 0.28374 0.28681 0.0
O1143 O 0.8018 0.31535 0.27133 0.0
O1144 O 0.81271 0.3093 0.23597 0.0
O1145 O 0.79425 0.27077 0.24193 0.0
O1146 O 0.78623 0.31507 0.30157 0.0
O1147 O 0.76057 0.25662 0.25527 0.0
C1148 C 0.83558 0.26508 0.26357 0.0
C1149 C 0.90428 0.34119 0.2749 0.0
C1150 C 0.94391 0.3514 0.28957 0.0
C1151 C 0.92145 0.34267 0.29289 0.0
C1152 C 0.94925 0.35999 0.26851 0.0
C1153 C 0.90946 0.34943 0.25364 0.0
C1154 C 0.932 0.35909 0.25064 0.0
C1155 C 0.8314 0.30558 0.32214 0.0
C1156 C 0.88191 0.32701 0.27763 0.0
C1157 C 0.85442 0.3986 0.22281 0.0
C1158 C 0.85116 0.4115 0.24525 0.0
C1159 C 0.79337 0.32916 0.28671 0.0
C1160 C 0.7245 0.25326 0.26798 0.0
C1161 C 0.70812 0.25454 0.25044 0.0
C1162 C 0.68548 0.24412 0.25167 0.0
C1163 C 0.67906 0.23167 0.27026 0.0
C1164 C 0.71837 0.24112 0.28686 0.0
C1165 C 0.69556 0.23018 0.28786 0.0
C1166 C 0.79958 0.28671 0.22777 0.0
C1167 C 0.74725 0.26769 0.26718 0.0
H1168 H 0.91735 0.33559 0.30899 0.0
H1169 H 0.96667 0.36637 0.2655 0.0
H1170 H 0.89626 0.34772 0.23923 0.0
H1171 H 0.93614 0.36507 0.23413 0.0
H1172 H 0.71292 0.26451 0.23621 0.0
H1173 H 0.6614 0.2238 0.27149 0.0
H1174 H 0.73101 0.24057 0.30093 0.0
H1175 H 0.69064 0.22104 0.30251 0.0
Eu1176 Eu 0.06369 0.54042 0.54226 0.0
C1177 C 0.00515 0.56284 0.45481 0.0
C1178 C 0.98241 0.52116 0.43534 0.0
C1179 C 0.96977 0.55757 0.42973 0.0
C1180 C 0.00195 0.53712 0.45011 0.0
C1181 C 0.98916 0.57337 0.44455 0.0
C1182 C 0.96639 0.53152 0.42516 0.0
C1183 C 0.01321 0.61445 0.46336 0.0
N1184 N 0.02396 0.57761 0.46931 0.0
C1185 C 0.02865 0.60313 0.47289 0.0
C1186 C 0.99329 0.5995 0.44923 0.0
Eu1187 Eu 0.05047 0.55766 0.48323 0.0
N1188 N 0.01774 0.52772 0.46032 0.0
C1189 C 0.015 0.50233 0.45608 0.0
C1190 C 0.97951 0.49523 0.43123 0.0
C1191 C 0.99586 0.4858 0.4417 0.0
H1192 H 0.0444 0.6147 0.48319 0.0
H1193 H 0.99378 0.46575 0.43866 0.0
H1194 H 0.95135 0.51955 0.41369 0.0
H1195 H 0.01681 0.63469 0.46666 0.0
H1196 H 0.02724 0.49436 0.4639 0.0
H1197 H 0.10894 0.63148 0.59993 0.0
H1198 H 0.96473 0.48236 0.42003 0.0
H1199 H 0.07582 0.48511 0.53702 0.0
H1200 H 0.07803 0.60197 0.57136 0.0
H1201 H 0.10663 0.46803 0.55107 0.0
H1202 H 0.95734 0.56532 0.42164 0.0
H1203 H 0.14237 0.61819 0.61321 0.0
H1204 H 0.16219 0.58424 0.61196 0.0
H1205 H 0.98142 0.60831 0.44169 0.0
H1206 H 0.1618 0.54004 0.59834 0.0
N1207 N 0.09335 0.57155 0.56816 0.0
C1208 C 0.09225 0.59552 0.5769 0.0
C1209 C 0.12872 0.60494 0.60064 0.0
C1210 C 0.12964 0.5803 0.592 0.0
C1211 C 0.10986 0.6125 0.59323 0.0
C1212 C 0.1114 0.56373 0.57566 0.0
H1213 H 0.14109 0.49661 0.57601 0.0
N1214 N 0.09323 0.52301 0.55292 0.0
C1215 C 0.10831 0.488 0.55567 0.0
C1216 C 0.11137 0.53883 0.56775 0.0
C1217 C 0.09095 0.4977 0.54775 0.0
C1218 C 0.12773 0.50421 0.56971 0.0
C1219 C 0.12931 0.52988 0.57627 0.0
O1220 O 0.04755 0.5088 0.55708 0.0
O1221 O 0.03822 0.5394 0.51257 0.0
O1222 O 0.03577 0.58123 0.51033 0.0
O1223 O 0.04665 0.57248 0.54792 0.0
O1224 O 0.03501 0.50661 0.52351 0.0
O1225 O 0.05204 0.5477 0.57755 0.0
O1226 O 0.07175 0.58343 0.46535 0.0
O1227 O 0.07492 0.56097 0.51449 0.0
O1228 O 0.08397 0.5248 0.51537 0.0
O1229 O 0.06249 0.52203 0.47891 0.0
O1230 O 0.07981 0.59181 0.50047 0.0
O1231 O 0.06161 0.54345 0.4491 0.0
C1232 C 0.02466 0.5185 0.51107 0.0
C1233 C 0.03401 0.51338 0.59576 0.0
C1234 C 0.01246 0.51794 0.62907 0.0
C1235 C 0.02404 0.52815 0.61172 0.0
C1236 C 0.01117 0.49314 0.63097 0.0
C1237 C 0.03277 0.48853 0.59759 0.0
C1238 C 0.02144 0.4785 0.61529 0.0
C1239 C 0.03689 0.58463 0.53411 0.0
C1240 C 0.04467 0.52354 0.57654 0.0
C1241 C 0.1478 0.54655 0.59178 0.0
C1242 C 0.14799 0.57171 0.59959 0.0
C1243 C 0.08865 0.58187 0.5162 0.0
C1244 C 0.0697 0.57208 0.42337 0.0
C1245 C 0.08571 0.56804 0.40826 0.0
C1246 C 0.0868 0.5775 0.38727 0.0
C1247 C 0.07129 0.59052 0.38096 0.0
C1248 C 0.05381 0.58461 0.41689 0.0
C1249 C 0.05458 0.5937 0.39562 0.0
C1250 C 0.0785 0.51631 0.49187 0.0
C1251 C 0.07218 0.56592 0.44698 0.0
H1252 H 0.0248 0.5473 0.61034 0.0
H1253 H 0.00235 0.48524 0.64467 0.0
H1254 H 0.04047 0.47687 0.58533 0.0
H1255 H 0.02051 0.45939 0.61677 0.0
H1256 H 0.09827 0.55882 0.41359 0.0
H1257 H 0.07221 0.59827 0.36488 0.0
H1258 H 0.04133 0.58797 0.42845 0.0
H1259 H 0.0426 0.60375 0.39083 0.0
Eu1260 Eu 0.78323 0.79937 0.26952 0.0
C1261 C 0.86203 0.76967 0.32127 0.0
C1262 C 0.87734 0.80634 0.35352 0.0
C1263 C 0.88064 0.76562 0.35914 0.0
C1264 C 0.86578 0.79514 0.33009 0.0
C1265 C 0.86992 0.75473 0.33552 0.0
C1266 C 0.8843 0.79137 0.36814 0.0
C1267 C 0.85824 0.71986 0.30122 0.0
N1268 N 0.85198 0.75975 0.29824 0.0
C1269 C 0.85092 0.73546 0.28775 0.0
C1270 C 0.86754 0.72946 0.32532 0.0
Eu1271 Eu 0.83966 0.78725 0.27646 0.0
N1272 N 0.85923 0.80918 0.31535 0.0
C1273 C 0.86511 0.83479 0.32254 0.0
C1274 C 0.88222 0.83237 0.36132 0.0
C1275 C 0.87632 0.84667 0.34562 0.0
H1276 H 0.8441 0.72811 0.26894 0.0
H1277 H 0.88034 0.86688 0.3513 0.0
H1278 H 0.89308 0.79964 0.38619 0.0
H1279 H 0.85689 0.70053 0.29294 0.0
H1280 H 0.86055 0.8464 0.31107 0.0
H1281 H 0.74285 0.71812 0.19599 0.0
H1282 H 0.89101 0.84164 0.37917 0.0
H1283 H 0.77884 0.85829 0.27606 0.0
H1284 H 0.76267 0.73932 0.23602 0.0
H1285 H 0.76461 0.88484 0.25184 0.0
H1286 H 0.88668 0.75441 0.37038 0.0
H1287 H 0.73124 0.74254 0.1678 0.0
H1288 H 0.72815 0.78403 0.16024 0.0
H1289 H 0.87343 0.71741 0.33566 0.0
H1290 H 0.73392 0.82927 0.1754 0.0
N1291 N 0.76331 0.77629 0.23118 0.0
C1292 C 0.75784 0.75065 0.22436 0.0
C1293 C 0.74009 0.75218 0.18554 0.0
C1294 C 0.7445 0.7782 0.19302 0.0
C1295 C 0.74654 0.73833 0.20142 0.0
C1296 C 0.7562 0.7899 0.21629 0.0
H1297 H 0.74715 0.86686 0.20954 0.0
N1298 N 0.77014 0.82599 0.24748 0.0
C1299 C 0.76326 0.86541 0.24391 0.0
C1300 C 0.75967 0.81545 0.22471 0.0
C1301 C 0.77129 0.85038 0.25754 0.0
C1302 C 0.75346 0.8552 0.22005 0.0
C1303 C 0.75126 0.82987 0.21025 0.0
O1304 O 0.76734 0.81234 0.30078 0.0
O1305 O 0.81174 0.79762 0.29528 0.0
O1306 O 0.81504 0.75206 0.28348 0.0
O1307 O 0.77963 0.75898 0.27491 0.0
O1308 O 0.80028 0.82991 0.3015 0.0
O1309 O 0.74795 0.78112 0.27365 0.0
O1310 O 0.8566 0.77409 0.24612 0.0
O1311 O 0.81125 0.78923 0.25077 0.0
O1312 O 0.80758 0.8335 0.25985 0.0
O1313 O 0.84283 0.82801 0.272 0.0
O1314 O 0.82324 0.75744 0.24367 0.0
O1315 O 0.87444 0.80693 0.27237 0.0
C1316 C 0.81358 0.81811 0.31005 0.0
C1317 C 0.72781 0.80545 0.29846 0.0
C1318 C 0.69201 0.80333 0.31545 0.0
C1319 C 0.71019 0.79283 0.31001 0.0
C1320 C 0.692 0.82653 0.30964 0.0
C1321 C 0.72708 0.82855 0.293 0.0
C1322 C 0.70938 0.83899 0.29857 0.0
C1323 C 0.79261 0.74451 0.28027 0.0
C1324 C 0.74796 0.79595 0.29419 0.0
C1325 C 0.74033 0.81845 0.18681 0.0
C1326 C 0.73703 0.79269 0.17818 0.0
C1327 C 0.80965 0.76913 0.23555 0.0
C1328 C 0.8963 0.78315 0.25 0.0
C1329 C 0.91255 0.79395 0.23602 0.0
C1330 C 0.93177 0.78479 0.23254 0.0
C1331 C 0.93401 0.76434 0.24256 0.0
C1332 C 0.89937 0.7631 0.26003 0.0
C1333 C 0.91794 0.75362 0.25613 0.0
C1334 C 0.83 0.84185 0.26467 0.0
C1335 C 0.8754 0.79147 0.2526 0.0
H1336 H 0.7106 0.77512 0.31465 0.0
H1337 H 0.67845 0.83513 0.31382 0.0
H1338 H 0.74047 0.8389 0.28491 0.0
H1339 H 0.7092 0.85695 0.29442 0.0
H1340 H 0.91036 0.80942 0.22809 0.0
H1341 H 0.94824 0.75652 0.23976 0.0
H1342 H 0.88729 0.75449 0.27064 0.0
H1343 H 0.91988 0.73785 0.26367 0.0
Eu1344 Eu 0.8204 0.28543 0.75503 0.0
C1345 C 0.79103 0.36453 0.83324 0.0
C1346 C 0.82682 0.38888 0.85637 0.0
C1347 C 0.79338 0.40386 0.86117 0.0
C1348 C 0.81377 0.36716 0.83981 0.0
C1349 C 0.78065 0.38296 0.84382 0.0
C1350 C 0.81642 0.40687 0.86736 0.0
C1351 C 0.74547 0.35833 0.8202 0.0
N1352 N 0.77898 0.34389 0.81673 0.0
C1353 C 0.75633 0.34043 0.81051 0.0
C1354 C 0.75765 0.37966 0.83702 0.0
Eu1355 Eu 0.79644 0.31056 0.80845 0.0
N1356 N 0.82324 0.34894 0.82953 0.0
C1357 C 0.84624 0.35318 0.83292 0.0
C1358 C 0.85003 0.39213 0.8612 0.0
C1359 C 0.85984 0.37453 0.84891 0.0
H1360 H 0.74613 0.32314 0.79911 0.0
H1361 H 0.87794 0.37736 0.85176 0.0
H1362 H 0.82612 0.42334 0.88048 0.0
H1363 H 0.72752 0.35522 0.81527 0.0
H1364 H 0.85456 0.34054 0.82313 0.0
H1365 H 0.74131 0.22327 0.70409 0.0
H1366 H 0.8606 0.40854 0.87376 0.0
H1367 H 0.87008 0.27216 0.76837 0.0
H1368 H 0.76404 0.25951 0.73415 0.0
H1369 H 0.88866 0.23942 0.75404 0.0
H1370 H 0.78559 0.41794 0.86975 0.0
H1371 H 0.75843 0.19005 0.68578 0.0
H1372 H 0.79231 0.17314 0.68336 0.0
H1373 H 0.74907 0.39327 0.84489 0.0
H1374 H 0.83197 0.17713 0.69753 0.0
N1375 N 0.79444 0.24786 0.73295 0.0
C1376 C 0.77212 0.24566 0.72624 0.0
C1377 C 0.76865 0.2061 0.69905 0.0
C1378 C 0.79127 0.208 0.70648 0.0
C1379 C 0.75895 0.22483 0.70928 0.0
C1380 C 0.80382 0.2292 0.72397 0.0
H1381 H 0.86767 0.20129 0.7242 0.0
N1382 N 0.83751 0.25154 0.74961 0.0
C1383 C 0.87089 0.23653 0.74823 0.0
C1384 C 0.82597 0.23108 0.73255 0.0
C1385 C 0.86 0.25478 0.75687 0.0
C1386 C 0.85904 0.21516 0.73127 0.0
C1387 C 0.83639 0.21228 0.72307 0.0
O1388 O 0.85121 0.29519 0.7392 0.0
O1389 O 0.81402 0.31924 0.77741 0.0
O1390 O 0.77462 0.31344 0.77433 0.0
O1391 O 0.79104 0.29913 0.74038 0.0
O1392 O 0.84642 0.32246 0.76938 0.0
O1393 O 0.81898 0.288 0.71706 0.0
O1394 O 0.76244 0.29201 0.81473 0.0
O1395 O 0.79458 0.27765 0.77912 0.0
O1396 O 0.83909 0.27912 0.7889 0.0
O1397 O 0.829 0.30244 0.82316 0.0
O1398 O 0.79414 0.27097 0.81375 0.0
O1399 O 0.78785 0.31382 0.84499 0.0
C1400 C 0.83279 0.3345 0.77861 0.0
C1401 C 0.85192 0.31346 0.70584 0.0
C1402 C 0.85037 0.3445 0.68231 0.0
C1403 C 0.83962 0.3273 0.69519 0.0
C1404 C 0.87353 0.34836 0.68048 0.0
C1405 C 0.87502 0.31707 0.70373 0.0
C1406 C 0.88581 0.33464 0.69122 0.0
C1407 C 0.7751 0.30824 0.75044 0.0
C1408 C 0.84099 0.29411 0.71803 0.0
C1409 C 0.82414 0.19156 0.70519 0.0
C1410 C 0.8016 0.18935 0.69702 0.0
C1411 C 0.79348 0.26111 0.79131 0.0
C1412 C 0.75673 0.28469 0.85385 0.0
C1413 C 0.76769 0.26845 0.86262 0.0
C1414 C 0.75774 0.25447 0.87872 0.0
C1415 C 0.73716 0.25703 0.88638 0.0
C1416 C 0.73616 0.28717 0.86152 0.0
C1417 C 0.72645 0.27342 0.87783 0.0
C1418 C 0.84195 0.28905 0.81241 0.0
C1419 C 0.76697 0.30063 0.83807 0.0
H1420 H 0.82163 0.32409 0.696 0.0
H1421 H 0.8818 0.36105 0.66973 0.0
H1422 H 0.88463 0.30604 0.7115 0.0
H1423 H 0.90351 0.33713 0.68928 0.0
H1424 H 0.78377 0.26674 0.85711 0.0
H1425 H 0.7295 0.24645 0.8991 0.0
H1426 H 0.72779 0.30004 0.85514 0.0
H1427 H 0.71069 0.27552 0.88392 0.0
Eu1428 Eu 0.82074 0.8186 0.77999 0.0
C1429 C 0.73214 0.73643 0.7362 0.0
C1430 C 0.712 0.72644 0.76967 0.0
C1431 C 0.69173 0.71577 0.72925 0.0
C1432 C 0.73236 0.73638 0.76069 0.0
C1433 C 0.71179 0.72557 0.72024 0.0
C1434 C 0.69182 0.71633 0.75389 0.0
C1435 C 0.73273 0.73128 0.68681 0.0
N1436 N 0.75192 0.74511 0.72763 0.0
C1437 C 0.75242 0.74137 0.70308 0.0
C1438 C 0.71227 0.72354 0.69542 0.0
Eu1439 Eu 0.78536 0.75396 0.75554 0.0
N1440 N 0.75239 0.74479 0.7755 0.0
C1441 C 0.75271 0.74425 0.79956 0.0
C1442 C 0.7125 0.72616 0.7942 0.0
C1443 C 0.73291 0.73529 0.8092 0.0
H1444 H 0.76815 0.74495 0.69562 0.0
H1445 H 0.73347 0.73525 0.82828 0.0
H1446 H 0.67621 0.70836 0.76051 0.0
H1447 H 0.73353 0.72861 0.66756 0.0
H1448 H 0.76787 0.75136 0.81206 0.0
H1449 H 0.86767 0.82594 0.70105 0.0
H1450 H 0.69725 0.71876 0.80169 0.0
H1451 H 0.84162 0.83259 0.83837 0.0
H1452 H 0.83493 0.81281 0.72084 0.0
H1453 H 0.8779 0.84899 0.8642 0.0
H1454 H 0.67612 0.7072 0.7172 0.0
H1455 H 0.90515 0.84468 0.72488 0.0
H1456 H 0.92876 0.85821 0.76491 0.0
H1457 H 0.69709 0.71503 0.6827 0.0
H1458 H 0.93174 0.86318 0.80894 0.0
N1459 N 0.85214 0.82521 0.75691 0.0
C1460 C 0.85045 0.82185 0.73223 0.0
C1461 C 0.89051 0.83921 0.73402 0.0
C1462 C 0.89256 0.84194 0.75905 0.0
C1463 C 0.86939 0.82884 0.72056 0.0
C1464 C 0.87294 0.83436 0.77015 0.0
H1465 H 0.91313 0.85924 0.84588 0.0
N1466 N 0.85581 0.82895 0.80528 0.0
C1467 C 0.87743 0.84486 0.84475 0.0
C1468 C 0.8748 0.83624 0.79493 0.0
C1469 C 0.85684 0.83465 0.82992 0.0
C1470 C 0.8972 0.85078 0.83435 0.0
C1471 C 0.89606 0.84701 0.80923 0.0
O1472 O 0.81394 0.84302 0.81166 0.0
O1473 O 0.78737 0.79084 0.77906 0.0
O1474 O 0.78615 0.77879 0.72809 0.0
O1475 O 0.8064 0.82083 0.7431 0.0
O1476 O 0.78688 0.82597 0.77236 0.0
O1477 O 0.83329 0.859 0.7851 0.0
O1478 O 0.79199 0.7293 0.72385 0.0
O1479 O 0.81842 0.78163 0.75692 0.0
O1480 O 0.82167 0.79424 0.80841 0.0
O1481 O 0.7991 0.75317 0.79291 0.0
O1482 O 0.81931 0.74635 0.76235 0.0
O1483 O 0.7743 0.7136 0.75188 0.0
C1484 C 0.77482 0.80432 0.7742 0.0
C1485 C 0.81793 0.88599 0.81182 0.0
C1486 C 0.79846 0.91537 0.80061 0.0
C1487 C 0.80465 0.89292 0.79468 0.0
C1488 C 0.80559 0.93091 0.82368 0.0
C1489 C 0.8252 0.9016 0.83481 0.0
C1490 C 0.81904 0.92403 0.8407 0.0
C1491 C 0.79364 0.80232 0.72593 0.0
C1492 C 0.82554 0.86334 0.80582 0.0
C1493 C 0.91539 0.85477 0.79821 0.0
C1494 C 0.91367 0.8521 0.77318 0.0
C1495 C 0.83121 0.76831 0.76124 0.0
C1496 C 0.78478 0.68508 0.72123 0.0
C1497 C 0.7978 0.67461 0.73536 0.0
C1498 C 0.80004 0.65045 0.72659 0.0
C1499 C 0.78908 0.63696 0.70361 0.0
C1500 C 0.77418 0.67167 0.69824 0.0
C1501 C 0.77631 0.64764 0.68948 0.0
C1502 C 0.81266 0.77069 0.81031 0.0
C1503 C 0.78077 0.70928 0.73046 0.0
H1504 H 0.79916 0.88095 0.77683 0.0
H1505 H 0.801 0.94843 0.82834 0.0
H1506 H 0.83582 0.89653 0.84809 0.0
H1507 H 0.82479 0.93614 0.85839 0.0
H1508 H 0.80627 0.68537 0.75294 0.0
H1509 H 0.79029 0.61813 0.6966 0.0
H1510 H 0.76394 0.67966 0.68724 0.0
H1511 H 0.76793 0.63721 0.6718 0.0
Eu1512 Eu 0.53463 0.52652 0.50729 0.0
C1513 C 0.61164 0.61966 0.56257 0.0
C1514 C 0.6214 0.64249 0.53105 0.0
C1515 C 0.63127 0.66417 0.57307 0.0
C1516 C 0.61158 0.61995 0.53831 0.0
C1517 C 0.62182 0.64172 0.58024 0.0
C1518 C 0.631 0.66457 0.54853 0.0
C1519 C 0.6143 0.61746 0.61092 0.0
N1520 N 0.6028 0.59762 0.56899 0.0
C1521 C 0.60462 0.59611 0.5928 0.0
C1522 C 0.62283 0.64042 0.60462 0.0
Eu1523 Eu 0.58935 0.5612 0.53763 0.0
N1524 N 0.60279 0.59811 0.52186 0.0
C1525 C 0.6039 0.59774 0.49777 0.0
C1526 C 0.62184 0.64212 0.50646 0.0
C1527 C 0.61309 0.61962 0.48977 0.0
H1528 H 0.59872 0.57822 0.59782 0.0
H1529 H 0.61341 0.61906 0.47065 0.0
H1530 H 0.63864 0.68195 0.54324 0.0
H1531 H 0.61548 0.6161 0.6297 0.0
H1532 H 0.59702 0.58098 0.48412 0.0
H1533 H 0.51117 0.46662 0.57278 0.0
H1534 H 0.62915 0.65901 0.50019 0.0
H1535 H 0.52387 0.51121 0.44724 0.0
H1536 H 0.5277 0.50507 0.56013 0.0
H1537 H 0.50616 0.4742 0.41472 0.0
H1538 H 0.63916 0.68124 0.58638 0.0
H1539 H 0.49453 0.42735 0.54256 0.0
H1540 H 0.48398 0.40557 0.49923 0.0
H1541 H 0.63062 0.6569 0.61868 0.0
H1542 H 0.48264 0.40753 0.45632 0.0
N1543 N 0.52133 0.4889 0.52213 0.0
C1544 C 0.5205 0.48865 0.54617 0.0
C1545 C 0.50196 0.44443 0.53665 0.0
C1546 C 0.50198 0.44472 0.51213 0.0
C1547 C 0.51121 0.46653 0.55372 0.0
C1548 C 0.51196 0.46747 0.50533 0.0
H1549 H 0.49085 0.43292 0.42473 0.0
N1550 N 0.52022 0.49081 0.47535 0.0
C1551 C 0.50771 0.47224 0.43332 0.0
C1552 C 0.51136 0.46849 0.48123 0.0
C1553 C 0.51795 0.4931 0.45179 0.0
C1554 C 0.49908 0.449 0.43904 0.0
C1555 C 0.50058 0.44693 0.46322 0.0
O1556 O 0.50979 0.53691 0.48501 0.0
O1557 O 0.55711 0.5654 0.52094 0.0
O1558 O 0.56523 0.57035 0.56566 0.0
O1559 O 0.53141 0.54187 0.54754 0.0
O1560 O 0.54375 0.55555 0.48473 0.0
O1561 O 0.50325 0.53103 0.52074 0.0
O1562 O 0.61278 0.55073 0.56164 0.0
O1563 O 0.56702 0.52209 0.52383 0.0
O1564 O 0.55814 0.51982 0.47813 0.0
O1565 O 0.59337 0.54438 0.49753 0.0
O1566 O 0.57977 0.53243 0.56026 0.0
O1567 O 0.6224 0.55888 0.52741 0.0
C1568 C 0.55495 0.57381 0.5019 0.0
C1569 C 0.47195 0.5275 0.49223 0.0
C1570 C 0.43557 0.5363 0.49205 0.0
C1571 C 0.45785 0.54136 0.50243 0.0
C1572 C 0.42705 0.51677 0.47172 0.0
C1573 C 0.46344 0.50765 0.47212 0.0
C1574 C 0.44092 0.50224 0.462 0.0
C1575 C 0.5438 0.55855 0.56662 0.0
C1576 C 0.49589 0.53679 0.50105 0.0
C1577 C 0.49101 0.42423 0.46989 0.0
C1578 C 0.49176 0.42311 0.4943 0.0
C1579 C 0.56906 0.51392 0.54307 0.0
C1580 C 0.65166 0.56241 0.55859 0.0
C1581 C 0.66746 0.55176 0.54768 0.0
C1582 C 0.68951 0.55731 0.55912 0.0
C1583 C 0.69602 0.57455 0.58135 0.0
C1584 C 0.65808 0.57948 0.58093 0.0
C1585 C 0.68031 0.58566 0.59215 0.0
C1586 C 0.58012 0.5296 0.47779 0.0
C1587 C 0.62829 0.55254 0.54739 0.0
H1588 H 0.46459 0.55715 0.51756 0.0
H1589 H 0.40987 0.5131 0.46324 0.0
H1590 H 0.47426 0.49691 0.46389 0.0
H1591 H 0.43441 0.48728 0.44622 0.0
H1592 H 0.66233 0.53842 0.53049 0.0
H1593 H 0.713 0.57888 0.59061 0.0
H1594 H 0.64597 0.58757 0.58992 0.0
H1595 H 0.68522 0.59861 0.60949 0.0
Eu1596 Eu 0.08815 0.54768 0.01332 0.0
C1597 C 0.00435 0.49415 0.05755 0.0
C1598 C 0.98292 0.46136 0.02406 0.0
C1599 C 0.97978 0.45616 0.06526 0.0
C1600 C 0.99843 0.48504 0.03292 0.0
C1601 C 0.99471 0.48004 0.074 0.0
C1602 C 0.97396 0.4468 0.04034 0.0
C1603 C 0.01388 0.51501 0.10652 0.0
N1604 N 0.01864 0.51735 0.06548 0.0
C1605 C 0.02296 0.52829 0.0895 0.0
C1606 C 0.99987 0.49066 0.09875 0.0
Eu1607 Eu 0.03272 0.53908 0.03586 0.0
N1608 N 0.007 0.49979 0.01768 0.0
C1609 C 0.99981 0.49245 0.99341 0.0
C1610 C 0.9764 0.45328 0.99913 0.0
C1611 C 0.98471 0.46903 0.98378 0.0
H1612 H 0.03372 0.54718 0.09545 0.0
H1613 H 0.97947 0.46317 0.9645 0.0
H1614 H 0.96211 0.42855 0.03386 0.0
H1615 H 0.01763 0.52356 0.12558 0.0
H1616 H 0.00592 0.50426 0.98114 0.0
H1617 H 0.13942 0.63081 0.07821 0.0
H1618 H 0.96458 0.4352 0.99162 0.0
H1619 H 0.08606 0.53321 0.95259 0.0
H1620 H 0.1142 0.5884 0.06546 0.0
H1621 H 0.10116 0.55333 0.92002 0.0
H1622 H 0.97231 0.44498 0.07763 0.0
H1623 H 0.15357 0.65474 0.04772 0.0
H1624 H 0.15583 0.65612 0.00418 0.0
H1625 H 0.99276 0.48045 0.11196 0.0
H1626 H 0.1457 0.63505 0.96137 0.0
N1627 N 0.11301 0.58818 0.02777 0.0
C1628 C 0.11996 0.59845 0.05176 0.0
C1629 C 0.14232 0.63604 0.04191 0.0
C1630 C 0.13609 0.62498 0.01735 0.0
C1631 C 0.13439 0.6226 0.05917 0.0
C1632 C 0.12128 0.60063 0.0107 0.0
H1633 H 0.12561 0.59678 0.92993 0.0
N1634 N 0.1015 0.56515 0.9806 0.0
C1635 C 0.1052 0.56354 0.93861 0.0
C1636 C 0.11546 0.58877 0.9865 0.0
C1637 C 0.09668 0.55222 0.95707 0.0
C1638 C 0.119 0.58807 0.94429 0.0
C1639 C 0.12443 0.60094 0.96844 0.0
O1640 O 0.09974 0.51387 0.00458 0.0
O1641 O 0.05682 0.52031 0.01828 0.0
O1642 O 0.05469 0.52295 0.05884 0.0
O1643 O 0.08873 0.54821 0.05311 0.0
O1644 O 0.06856 0.51271 0.9855 0.0
O1645 O 0.12263 0.54741 0.0261 0.0
O1646 O 0.01758 0.56666 0.05536 0.0
O1647 O 0.06352 0.56682 0.03021 0.0
O1648 O 0.06775 0.56175 0.98781 0.0
O1649 O 0.03175 0.5437 0.99704 0.0
O1650 O 0.05204 0.57429 0.06314 0.0
O1651 O 0.00211 0.54596 0.01944 0.0
C1652 C 0.05335 0.50431 0.99862 0.0
C1653 C 0.13793 0.51862 1.00132 0.0
C1654 C 0.1706 0.50196 0.99771 0.0
C1655 C 0.15419 0.50858 0.01145 0.0
C1656 C 0.17034 0.50507 0.97371 0.0
C1657 C 0.13794 0.52158 0.97735 0.0
C1658 C 0.15406 0.51482 0.96362 0.0
C1659 C 0.0769 0.5314 0.06374 0.0
C1660 C 0.12011 0.52423 0.01524 0.0
C1661 C 0.13876 0.62538 0.975 0.0
C1662 C 0.14453 0.63738 0.99939 0.0
C1663 C 0.06638 0.58327 0.04948 0.0
C1664 C 0.97861 0.56162 0.04609 0.0
C1665 C 0.96605 0.57711 0.03834 0.0
C1666 C 0.9457 0.57841 0.04746 0.0
C1667 C 0.93794 0.56367 0.06411 0.0
C1668 C 0.9705 0.54692 0.06255 0.0
C1669 C 0.95022 0.54797 0.07148 0.0
C1670 C 0.04564 0.55498 0.98343 0.0
C1671 C 0.00091 0.56263 0.03828 0.0
H1672 H 0.15413 0.50604 0.02991 0.0
H1673 H 0.18263 0.49971 0.96266 0.0
H1674 H 0.12525 0.5286 0.9691 0.0
H1675 H 0.15385 0.51697 0.94507 0.0
H1676 H 0.9725 0.58875 0.02589 0.0
H1677 H 0.92225 0.56416 0.07132 0.0
H1678 H 0.97998 0.53498 0.06879 0.0
H1679 H 0.9441 0.53675 0.08433 0.0
H1680 H 0.03707 0.19826 0.93995 0.0
H1681 H 0.0485 0.11246 0.0368 0.0
H1682 H 0.01131 0.21022 0.00838 0.0
H1683 H 0.05659 0.0931 0.9616 0.0
H1684 H 0.03996 0.15152 0.02972 0.0
H1685 H 0.04893 0.16274 0.95026 0.0
C1686 C 0.03401 0.19356 0.95725 0.0
C1687 C 0.0231 0.20743 0.97323 0.0
C1688 C 0.04387 0.13881 0.01487 0.0
C1689 C 0.03697 0.16641 0.98542 0.0
C1690 C 0.04898 0.11666 0.01898 0.0
C1691 C 0.05339 0.0995 0.99977 0.0
C1692 C 0.04344 0.14392 0.99146 0.0
C1693 C 0.05335 0.10575 0.97695 0.0
C1694 C 0.04078 0.17315 0.96315 0.0
C1695 C 0.01955 0.20009 0.99537 0.0
N1696 N 0.04849 0.12725 0.97348 0.0
N1697 N 0.0265 0.1802 1.00084 0.0
H1698 H 0.14912 0.82702 0.18152 0.0
H1699 H 0.27544 0.81277 0.20513 0.0
H1700 H 0.19438 0.82543 0.12737 0.0
H1701 H 0.2315 0.81461 0.26056 0.0
H1702 H 0.24597 0.81799 0.17695 0.0
H1703 H 0.17895 0.82371 0.2111 0.0
C1704 C 0.16533 0.82619 0.17583 0.0
C1705 C 0.16908 0.82667 0.15176 0.0
C1706 C 0.24279 0.81751 0.19536 0.0
C1707 C 0.20347 0.82254 0.18571 0.0
C1708 C 0.25973 0.81453 0.21163 0.0
C1709 C 0.2564 0.81358 0.23574 0.0
C1710 C 0.22204 0.81966 0.20296 0.0
C1711 C 0.23533 0.81572 0.24256 0.0
C1712 C 0.18238 0.82421 0.19277 0.0
C1713 C 0.19054 0.82533 0.14563 0.0
N1714 N 0.21908 0.81866 0.22637 0.0
N1715 N 0.20673 0.82326 0.16234 0.0
H1716 H 0.49216 0.8424 0.45715 0.0
H1717 H 0.56009 0.97702 0.53285 0.0
H1718 H 0.55658 0.85169 0.49803 0.0
H1719 H 0.52954 0.96704 0.45969 0.0
H1720 H 0.55196 0.93114 0.52773 0.0
H1721 H 0.49865 0.88818 0.4653 0.0
C1722 C 0.50763 0.85414 0.46799 0.0
C1723 C 0.52392 0.84333 0.47683 0.0
C1724 C 0.54671 0.93905 0.51298 0.0
C1725 C 0.53121 0.89565 0.48664 0.0
C1726 C 0.55105 0.96519 0.51598 0.0
C1727 C 0.54498 0.97584 0.49681 0.0
C1728 C 0.53573 0.92347 0.49088 0.0
C1729 C 0.53415 0.95958 0.47501 0.0
C1730 C 0.51132 0.8802 0.47257 0.0
C1731 C 0.54368 0.85935 0.4908 0.0
N1732 N 0.52959 0.93424 0.47273 0.0
N1733 N 0.54673 0.88478 0.49545 0.0
H1734 H 0.55549 0.30069 0.67054 0.0
H1735 H 0.42914 0.3028 0.6906 0.0
H1736 H 0.51885 0.33967 0.63039 0.0
H1737 H 0.47598 0.28785 0.74268 0.0
H1738 H 0.46045 0.31572 0.66725 0.0
H1739 H 0.52497 0.29371 0.69548 0.0
C1740 C 0.54111 0.30795 0.66705 0.0
C1741 C 0.53985 0.32083 0.64831 0.0
C1742 C 0.46383 0.30979 0.68391 0.0
C1743 C 0.50458 0.31281 0.67693 0.0
C1744 C 0.44599 0.30259 0.69734 0.0
C1745 C 0.44979 0.29377 0.71847 0.0
C1746 C 0.48552 0.30797 0.69162 0.0
C1747 C 0.47204 0.29385 0.72622 0.0
C1748 C 0.52365 0.30399 0.68135 0.0
C1749 C 0.52058 0.3296 0.6446 0.0
N1750 N 0.48887 0.30047 0.71271 0.0
N1751 N 0.50367 0.32533 0.65868 0.0
H1752 H 0.97361 0.79028 0.58103 0.0
H1753 H 0.07811 0.90096 0.56804 0.0
H1754 H 0.03058 0.82461 0.63639 0.0
H1755 H 0.01739 0.87452 0.51727 0.0
H1756 H 0.06012 0.87419 0.59435 0.0
H1757 H 0.98817 0.82235 0.55833 0.0
C1758 C 0.98904 0.80469 0.58851 0.0
C1759 C 0.00107 0.80458 0.61043 0.0
C1760 C 0.05069 0.87419 0.57746 0.0
C1761 C 0.01786 0.8411 0.58457 0.0
C1762 C 0.06102 0.88925 0.56246 0.0
C1763 C 0.04925 0.8892 0.54042 0.0
C1764 C 0.02854 0.85892 0.57013 0.0
C1765 C 0.027 0.87447 0.53403 0.0
C1766 C 0.99735 0.82297 0.57556 0.0
C1767 C 0.0209 0.82377 0.61938 0.0
N1768 N 0.01737 0.85965 0.54876 0.0
N1769 N 0.02879 0.84111 0.6063 0.0
H1770 H 0.577 0.8313 0.83816 0.0
H1771 H 0.45651 0.85809 0.83556 0.0
H1772 H 0.53845 0.83227 0.89853 0.0
H1773 H 0.48239 0.8322 0.76989 0.0
H1774 H 0.48829 0.85114 0.85894 0.0
H1775 H 0.54369 0.83252 0.81229 0.0
C1776 C 0.56148 0.83139 0.84587 0.0
C1777 C 0.56053 0.83189 0.87056 0.0
C1778 C 0.48699 0.8468 0.83941 0.0
C1779 C 0.52282 0.8338 0.84137 0.0
C1780 C 0.46889 0.85082 0.82609 0.0
C1781 C 0.46689 0.84567 0.80082 0.0
C1782 C 0.50328 0.83763 0.82739 0.0
C1783 C 0.48355 0.83666 0.7894 0.0
C1784 C 0.54255 0.83214 0.83115 0.0
C1785 C 0.54002 0.83195 0.87964 0.0
N1786 N 0.50115 0.83292 0.80281 0.0
N1787 N 0.52209 0.83325 0.86512 0.0
H1788 H 0.4791 0.20159 0.09307 0.0
H1789 H 0.54088 0.09983 0.07996 0.0
H1790 H 0.47087 0.14821 0.13954 0.0
H1791 H 0.51555 0.11988 0.01557 0.0
H1792 H 0.51515 0.11897 0.10202 0.0
H1793 H 0.48864 0.17097 0.0621 0.0
C1794 C 0.47845 0.18313 0.09645 0.0
C1795 C 0.47536 0.17784 0.11932 0.0
C1796 C 0.51499 0.11878 0.0829 0.0
C1797 C 0.48667 0.14333 0.08445 0.0
C1798 C 0.53003 0.10836 0.0704 0.0
C1799 C 0.53037 0.10818 0.04574 0.0
C1800 C 0.50048 0.1295 0.07077 0.0
C1801 C 0.51578 0.11941 0.03438 0.0
C1802 C 0.48397 0.16571 0.07879 0.0
C1803 C 0.47408 0.15341 0.12247 0.0
N1804 N 0.50148 0.12985 0.04704 0.0
N1805 N 0.48063 0.13728 0.10552 0.0
H1806 H 0.19711 0.37383 0.35687 0.0
H1807 H 0.23032 0.291 0.24908 0.0
H1808 H 0.14422 0.31018 0.31743 0.0
H1809 H 0.26869 0.31017 0.31984 0.0
H1810 H 0.19782 0.30068 0.26777 0.0
H1811 H 0.22473 0.35664 0.33549 0.0
C1812 C 0.19131 0.35669 0.34313 0.0
C1813 C 0.1686 0.34327 0.33866 0.0
C1814 C 0.21323 0.30207 0.27909 0.0
C1815 C 0.19962 0.32361 0.31486 0.0
C1816 C 0.23151 0.29645 0.26855 0.0
C1817 C 0.25177 0.29991 0.28317 0.0
C1818 C 0.21607 0.3121 0.30396 0.0
C1819 C 0.25308 0.30729 0.30821 0.0
C1820 C 0.20698 0.34672 0.33135 0.0
C1821 C 0.16175 0.32089 0.32113 0.0
N1822 N 0.23552 0.31378 0.31789 0.0
N1823 N 0.17732 0.31159 0.3097 0.0
H1824 H 0.95187 0.06073 0.18155 0.0
H1825 H 0.06402 0.08599 0.11285 0.0
H1826 H 0.01941 0.08709 0.21894 0.0
H1827 H 0.99888 0.04246 0.07563 0.0
H1828 H 0.04743 0.09107 0.15081 0.0
H1829 H 0.96763 0.05887 0.14264 0.0
C1830 C 0.96997 0.06696 0.18177 0.0
C1831 C 0.9841 0.0748 0.20412 0.0
C1832 C 0.03664 0.08048 0.13438 0.0
C1833 C 0.00269 0.07211 0.15874 0.0
C1834 C 0.04621 0.07756 0.11237 0.0
C1835 C 0.03317 0.06367 0.09028 0.0
C1836 C 0.01345 0.06979 0.13495 0.0
C1837 C 0.00997 0.05337 0.09175 0.0
C1838 C 0.97906 0.06553 0.15934 0.0
C1839 C 0.00759 0.08146 0.20254 0.0
N1840 N 0.00103 0.05666 0.11332 0.0
N1841 N 0.01595 0.0801 0.18067 0.0
H1842 H 0.24458 0.64861 0.45674 0.0
H1843 H 0.29439 0.76189 0.40682 0.0
H1844 H 0.31338 0.69157 0.48109 0.0
H1845 H 0.23945 0.70079 0.36742 0.0
H1846 H 0.30702 0.73294 0.42847 0.0
H1847 H 0.24667 0.66231 0.41883 0.0
C1848 C 0.26036 0.66052 0.45366 0.0
C1849 C 0.27869 0.66954 0.47187 0.0
C1850 C 0.29275 0.72561 0.41441 0.0
C1851 C 0.28119 0.68585 0.42895 0.0
C1852 C 0.28554 0.74213 0.40219 0.0
C1853 C 0.26566 0.73349 0.38596 0.0
C1854 C 0.27962 0.70066 0.41044 0.0
C1855 C 0.25464 0.70796 0.38029 0.0
C1856 C 0.26166 0.66824 0.43199 0.0
C1857 C 0.29885 0.6847 0.46733 0.0
N1858 N 0.26153 0.69242 0.39289 0.0
N1859 N 0.2994 0.69308 0.44639 0.0
H1860 H 0.67148 0.06325 0.67792 0.0
H1861 H 0.55752 1.00709 0.59852 0.0
H1862 H 0.618 0.0111 0.70099 0.0
H1863 H 0.61965 0.03165 0.56908 0.0
H1864 H 0.57938 1.00224 0.63427 0.0
H1865 H 0.65394 0.04685 0.63615 0.0
C1866 C 0.6563 0.04783 0.67391 0.0
C1867 C 0.64591 0.0384 0.69243 0.0
C1868 C 0.58813 0.00812 0.61966 0.0
C1869 C 0.62547 0.02006 0.6453 0.0
C1870 C 0.57567 0.01113 0.59942 0.0
C1871 C 0.58693 0.02116 0.58158 0.0
C1872 C 0.61182 0.01523 0.62175 0.0
C1873 C 0.61038 0.02506 0.58303 0.0
C1874 C 0.64631 0.03839 0.65018 0.0
C1875 C 0.62625 0.01867 0.68683 0.0
N1876 N 0.62213 0.02259 0.60305 0.0
N1877 N 0.61626 0.01042 0.66363 0.0
H1878 H 0.31029 0.3027 0.95977 0.0
H1879 H 0.32928 0.36114 0.84254 0.0
H1880 H 0.32045 0.38105 0.9588 0.0
H1881 H 0.30958 0.28134 0.83814 0.0
H1882 H 0.32959 0.36815 0.88618 0.0
H1883 H 0.31055 0.29354 0.91572 0.0
C1884 C 0.31228 0.31787 0.95018 0.0
C1885 C 0.31525 0.34262 0.96276 0.0
C1886 C 0.32535 0.34905 0.87582 0.0
C1887 C 0.31659 0.33255 0.91292 0.0
C1888 C 0.32547 0.34508 0.85096 0.0
C1889 C 0.31964 0.32069 0.83689 0.0
C1890 C 0.31885 0.32845 0.88676 0.0
C1891 C 0.31455 0.30045 0.84851 0.0
C1892 C 0.31261 0.31269 0.92516 0.0
C1893 C 0.31779 0.36167 0.94968 0.0
N1894 N 0.31404 0.30478 0.87286 0.0
N1895 N 0.31869 0.35627 0.92555 0.0
H1896 H 0.97646 0.10147 0.36296 0.0
H1897 H 0.0484 0.03068 0.44021 0.0
H1898 H 1.00023 0.03842 0.33107 0.0
H1899 H 0.00807 0.07677 0.47341 0.0
H1900 H 0.03471 0.03712 0.40048 0.0
H1901 H 0.99165 0.09723 0.40338 0.0
C1902 C 0.98472 0.08676 0.36416 0.0
C1903 C 0.9868 0.07043 0.34277 0.0
C1904 C 0.0289 0.04595 0.41649 0.0
C1905 C 0.00456 0.06533 0.38988 0.0
C1906 C 0.03669 0.04204 0.43943 0.0
C1907 C 0.02907 0.05232 0.46087 0.0
C1908 C 0.01389 0.0612 0.41447 0.0
C1909 C 0.01432 0.06775 0.45784 0.0
C1910 C 0.99348 0.0843 0.38746 0.0
C1911 C 0.99809 0.05189 0.3464 0.0
N1912 N 0.00746 0.07171 0.43557 0.0
N1913 N 0.00632 0.04995 0.36893 0.0
H1914 H 0.29376 0.67104 0.61157 0.0
H1915 H 0.26899 0.78899 0.69465 0.0
H1916 H 0.24166 0.7045 0.58955 0.0
H1917 H 0.32821 0.76282 0.70623 0.0
H1918 H 0.25835 0.75922 0.65545 0.0
H1919 H 0.30486 0.70381 0.64807 0.0
C1920 C 0.28459 0.68525 0.61457 0.0
C1921 C 0.26704 0.68543 0.59756 0.0
C1922 C 0.27392 0.76043 0.66639 0.0
C1923 C 0.27989 0.72315 0.6387 0.0
C1924 C 0.28005 0.77754 0.68842 0.0
C1925 C 0.29955 0.77829 0.70304 0.0
C1926 C 0.28722 0.74387 0.65976 0.0
C1927 C 0.31328 0.76295 0.69497 0.0
C1928 C 0.29103 0.70405 0.63524 0.0
C1929 C 0.25536 0.70388 0.60234 0.0
N1930 N 0.30669 0.74604 0.6739 0.0
N1931 N 0.26216 0.72229 0.6225 0.0
H1932 H 0.65277 0.0614 0.77079 0.0
H1933 H 0.63692 0.07862 0.90553 0.0
H1934 H 0.7038 0.05258 0.82225 0.0
H1935 H 0.58127 0.05604 0.84833 0.0
H1936 H 0.66112 0.06443 0.87665 0.0
H1937 H 0.62588 0.05597 0.79926 0.0
C1938 C 0.65838 0.05842 0.78819 0.0
C1939 C 0.6807 0.05817 0.79449 0.0
C1940 C 0.64343 0.06174 0.87061 0.0
C1941 C 0.64978 0.05165 0.82738 0.0
C1942 C 0.62969 0.06978 0.88704 0.0
C1943 C 0.60737 0.06861 0.87896 0.0
C1944 C 0.63463 0.05301 0.8461 0.0
C1945 C 0.59856 0.05734 0.85497 0.0
C1946 C 0.64285 0.05488 0.80439 0.0
C1947 C 0.68676 0.05331 0.81702 0.0
N1948 N 0.61236 0.05035 0.83921 0.0
N1949 N 0.67144 0.05077 0.83301 0.0
H1950 H 0.29355 0.37154 0.10284 0.0
H1951 H 0.28872 0.26799 0.18203 0.0
H1952 H 0.32205 0.30846 0.0861 0.0
H1953 H 0.28259 0.3421 0.21114 0.0
H1954 H 0.2912 0.27834 0.14251 0.0
H1955 H 0.28067 0.35692 0.13865 0.0
C1956 C 0.29688 0.35449 0.10655 0.0
C1957 C 0.30905 0.34128 0.09164 0.0
C1958 C 0.28879 0.29217 0.15739 0.0
C1959 C 0.29422 0.32449 0.13222 0.0
C1960 C 0.28694 0.28611 0.17987 0.0
C1961 C 0.28501 0.30408 0.19969 0.0
C1962 C 0.28873 0.31642 0.15475 0.0
C1963 C 0.28395 0.32775 0.19616 0.0
C1964 C 0.28957 0.34624 0.12697 0.0
C1965 C 0.31293 0.31934 0.09727 0.0
N1966 N 0.28596 0.33334 0.17404 0.0
N1967 N 0.30557 0.31165 0.11717 0.0
H1968 H 0.25231 0.94278 0.01359 0.0
H1969 H 0.23219 0.07721 0.04905 0.0
H1970 H 0.2921 1.00738 0.99133 0.0
H1971 H 0.17992 0.00927 0.0458 0.0
H1972 H 0.25556 0.05185 0.02944 0.0
H1973 H 0.22536 0.96659 0.02602 0.0
C1974 C 0.25507 0.96183 0.01097 0.0
C1975 C 0.27423 0.9733 1.00151 0.0
C1976 C 0.23889 0.04259 0.0329 0.0
C1977 C 0.24427 1.00059 0.01615 0.0
C1978 C 0.2258 0.05697 0.0443 0.0
C1979 C 0.20437 0.04515 0.04899 0.0
C1980 C 0.23041 0.01637 0.02661 0.0
C1981 C 0.19646 0.01895 0.04235 0.0
C1982 C 0.23981 0.97538 0.01804 0.0
C1983 C 0.27733 0.99793 0.99841 0.0
N1984 N 0.20957 1.00535 0.03153 0.0
N1985 N 0.26262 0.011 0.00612 0.0
H1986 H 0.73901 0.63039 0.97608 0.0
H1987 H 0.6172 0.61536 0.01948 0.0
H1988 H 0.71992 0.68299 0.03056 0.0
H1989 H 0.6353 0.55006 0.98245 0.0
H1990 H 0.6545 0.64065 0.01836 0.0
H1991 H 0.70158 0.60049 0.97418 0.0
C1992 C 0.72708 0.63548 0.98778 0.0
C1993 C 0.73232 0.6593 0.00324 0.0
C1994 C 0.65052 0.62079 0.01045 0.0
C1995 C 0.69 0.62562 1.00119 0.0
C1996 C 0.62898 0.60618 0.01097 0.0
C1997 C 0.62296 0.58026 1.00138 0.0
C1998 C 0.66659 0.60975 1.00015 0.0
C1999 C 0.6392 0.56989 0.9903 0.0
C2000 C 0.7058 0.61851 0.98665 0.0
C2001 C 0.71639 0.66507 0.01801 0.0
N2002 N 0.66041 0.58468 0.99006 0.0
N2003 N 0.69608 0.64847 0.01656 0.0
H2004 H 0.73723 0.45657 0.25041 0.0
H2005 H 0.75992 0.34264 0.31094 0.0
H2006 H 0.69825 0.42225 0.30076 0.0
H2007 H 0.79633 0.36238 0.25268 0.0
H2008 H 0.73876 0.37306 0.3065 0.0
H2009 H 0.75974 0.4252 0.24989 0.0
C2010 C 0.73307 0.44254 0.26121 0.0
C2011 C 0.7153 0.44285 0.27578 0.0
C2012 C 0.75146 0.37118 0.29465 0.0
C2013 C 0.74182 0.40609 0.27539 0.0
C2014 C 0.76386 0.35346 0.29721 0.0
C2015 C 0.78075 0.34938 0.28254 0.0
C2016 C 0.75553 0.38627 0.27738 0.0
C2017 C 0.78404 0.36454 0.26492 0.0
C2018 C 0.74616 0.42446 0.26096 0.0
C2019 C 0.71154 0.42368 0.2893 0.0
N2020 N 0.77189 0.38216 0.26304 0.0
N2021 N 0.72436 0.40674 0.28879 0.0
H2022 H 0.90436 0.50112 0.57411 0.0
H2023 H 0.99992 0.54859 0.4968 0.0
H2024 H 0.88849 0.51397 0.50315 0.0
H2025 H 0.99703 0.49064 0.53725 0.0
H2026 H 0.96404 0.55342 0.50863 0.0
H2027 H 0.94419 0.52014 0.57272 0.0
C2028 C 0.90913 0.50938 0.55887 0.0
C2029 C 0.89354 0.50501 0.53822 0.0
C2030 C 0.97134 0.53967 0.51484 0.0
C2031 C 0.93849 0.52607 0.53639 0.0
C2032 C 0.99149 0.53626 0.5074 0.0
C2033 C 0.00115 0.51828 0.51478 0.0
C2034 C 0.96109 0.52555 0.5306 0.0
C2035 C 0.98999 0.50417 0.53032 0.0
C2036 C 0.93184 0.51985 0.55795 0.0
C2037 C 0.90027 0.51639 0.51912 0.0
N2038 N 0.97055 0.50817 0.53777 0.0
N2039 N 0.92261 0.52562 0.51817 0.0
H2040 H 0.40765 0.11915 0.31788 0.0
H2041 H 0.29014 0.09565 0.23567 0.0
H2042 H 0.36059 0.04611 0.29434 0.0
H2043 H 0.34057 0.16671 0.25776 0.0
H2044 H 0.31436 0.07669 0.25848 0.0
H2045 H 0.38049 0.13756 0.29957 0.0
C2046 C 0.39133 0.10718 0.30923 0.0
C2047 C 0.38603 0.08134 0.30761 0.0
C2048 C 0.31992 0.09648 0.25841 0.0
C2049 C 0.3555 0.10168 0.28575 0.0
C2050 C 0.30627 0.10714 0.24526 0.0
C2051 C 0.31321 0.13276 0.24538 0.0
C2052 C 0.34044 0.11173 0.27158 0.0
C2053 C 0.33431 0.14698 0.25781 0.0
C2054 C 0.37593 0.11752 0.2986 0.0
C2055 C 0.36491 0.06628 0.29616 0.0
N2056 N 0.34707 0.1363 0.27056 0.0
N2057 N 0.35042 0.07666 0.28524 0.0
H2058 H 0.33872 0.14965 0.53186 0.0
H2059 H 0.45503 0.1159 0.51885 0.0
H2060 H 0.37702 0.16918 0.47448 0.0
H2061 H 0.40041 0.07226 0.54896 0.0
H2062 H 0.4291 0.1383 0.50427 0.0
H2063 H 0.36415 0.12499 0.54156 0.0
C2064 C 0.35241 0.14866 0.52117 0.0
C2065 C 0.35565 0.16147 0.50225 0.0
C2066 C 0.4229 0.12372 0.514 0.0
C2067 C 0.38497 0.13317 0.5134 0.0
C2068 C 0.43763 0.11077 0.52224 0.0
C2069 C 0.43011 0.09232 0.53563 0.0
C2070 C 0.40066 0.11846 0.51954 0.0
C2071 C 0.40734 0.08682 0.53952 0.0
C2072 C 0.3669 0.13448 0.5267 0.0
C2073 C 0.37386 0.15958 0.4892 0.0
N2074 N 0.39358 0.10002 0.53182 0.0
N2075 N 0.38797 0.14576 0.4951 0.0
H2076 H 0.73734 0.57923 0.25303 0.0
H2077 H 0.75501 0.72802 0.30188 0.0
H2078 H 0.70079 0.61121 0.30646 0.0
H2079 H 0.8028 0.7 0.26104 0.0
H2080 H 0.73478 0.6848 0.30239 0.0
H2081 H 0.76136 0.62197 0.25435 0.0
C2082 C 0.73471 0.59502 0.2655 0.0
C2083 C 0.71702 0.59127 0.27989 0.0
C2084 C 0.74973 0.68794 0.29334 0.0
C2085 C 0.74426 0.64064 0.28111 0.0
C2086 C 0.76135 0.71278 0.29307 0.0
C2087 C 0.78094 0.71794 0.28173 0.0
C2088 C 0.75719 0.66757 0.28159 0.0
C2089 C 0.7881 0.69711 0.27047 0.0
C2090 C 0.74832 0.61955 0.26608 0.0
C2091 C 0.71415 0.61287 0.29508 0.0
N2092 N 0.7762 0.673 0.27049 0.0
N2093 N 0.72737 0.63626 0.29519 0.0
H2094 H 0.884 0.47763 0.75168 0.0
H2095 H 0.80197 0.36174 0.78634 0.0
H2096 H 0.8557 0.48377 0.81883 0.0
H2097 H 0.86691 0.36497 0.76211 0.0
H2098 H 0.80616 0.40531 0.78278 0.0
H2099 H 0.85901 0.43526 0.73798 0.0
C2100 C 0.87144 0.47066 0.76285 0.0
C2101 C 0.87198 0.48365 0.78651 0.0
C2102 C 0.81922 0.39617 0.77788 0.0
C2103 C 0.84396 0.43579 0.77126 0.0
C2104 C 0.81721 0.37173 0.78072 0.0
C2105 C 0.83481 0.36045 0.77627 0.0
C2106 C 0.83842 0.4087 0.76918 0.0
C2107 C 0.85339 0.37338 0.76685 0.0
C2108 C 0.85737 0.44649 0.75512 0.0
C2109 C 0.85578 0.47391 0.80056 0.0
N2110 N 0.85476 0.39693 0.7637 0.0
N2111 N 0.84266 0.4501 0.79294 0.0
H2112 H 0.11288 0.87723 0.03897 0.0
H2113 H 0.06492 0.99537 0.0833 0.0
H2114 H 0.08141 0.88829 0.10388 0.0
H2115 H 0.07638 0.97491 0.00932 0.0
H2116 H 0.07182 0.95645 0.09074 0.0
H2117 H 0.10119 0.91279 0.02756 0.0
C2118 C 0.10352 0.88706 0.05086 0.0
C2119 C 0.09826 0.87962 0.07257 0.0
C2120 C 0.0726 0.96014 0.07275 0.0
C2121 C 0.0849 0.92068 0.05954 0.0
C2122 C 0.06857 0.98242 0.06844 0.0
C2123 C 0.06977 0.98842 0.04558 0.0
C2124 C 0.07862 0.94361 0.05427 0.0
C2125 C 0.0749 0.97095 0.02714 0.0
C2126 C 0.09676 0.90734 0.04422 0.0
C2127 C 0.08594 0.89315 0.08702 0.0
N2128 N 0.07942 0.9495 0.03196 0.0
N2129 N 0.07992 0.91298 0.08038 0.0
H2130 H 0.97236 0.296 0.88783 0.0
H2131 H 0.84834 0.24339 0.81601 0.0
H2132 H 0.92726 0.22972 0.90143 0.0
H2133 H 0.87816 0.32259 0.84239 0.0
H2134 H 0.87982 0.23486 0.83953 0.0
H2135 H 0.94096 0.30284 0.86286 0.0
C2136 C 0.95598 0.28253 0.88506 0.0
C2137 C 0.9525 0.26208 0.89652 0.0
C2138 C 0.87938 0.25409 0.84018 0.0
C2139 C 0.91649 0.26975 0.86781 0.0
C2140 C 0.86144 0.25897 0.82681 0.0
C2141 C 0.86035 0.28374 0.82751 0.0
C2142 C 0.89687 0.27414 0.85367 0.0
C2143 C 0.87798 0.30322 0.84158 0.0
C2144 C 0.93803 0.28661 0.87103 0.0
C2145 C 0.93073 0.24561 0.89279 0.0
N2146 N 0.89559 0.29803 0.85384 0.0
N2147 N 0.91362 0.24964 0.8786 0.0
H2148 H 0.60717 0.23929 0.5343 0.0
H2149 H 0.57101 0.11733 0.58955 0.0
H2150 H 0.57497 0.2374 0.59897 0.0
H2151 H 0.57482 0.11023 0.51322 0.0
H2152 H 0.57758 0.16256 0.59402 0.0
H2153 H 0.59936 0.19327 0.52637 0.0
C2154 C 0.59821 0.22926 0.54668 0.0
C2155 C 0.59179 0.24245 0.56744 0.0
C2156 C 0.57716 0.15121 0.57628 0.0
C2157 C 0.58332 0.18975 0.55868 0.0
C2158 C 0.57358 0.12534 0.57374 0.0
C2159 C 0.57261 0.10987 0.55105 0.0
C2160 C 0.58007 0.16209 0.55603 0.0
C2161 C 0.57584 0.12142 0.53115 0.0
C2162 C 0.59383 0.20297 0.54213 0.0
C2163 C 0.58027 0.22827 0.58277 0.0
N2164 N 0.57954 0.14686 0.53411 0.0
N2165 N 0.5767 0.20289 0.57824 0.0
H2166 H 0.58992 0.76079 0.41167 0.0
H2167 H 0.64831 0.78786 0.29561 0.0
H2168 H 0.57015 0.80561 0.36442 0.0
H2169 H 0.69075 0.79236 0.36103 0.0
H2170 H 0.61517 0.77925 0.31685 0.0
H2171 H 0.62319 0.75948 0.3902 0.0
C2172 C 0.59244 0.77013 0.39669 0.0
C2173 C 0.57718 0.78335 0.3898 0.0
C2174 C 0.63168 0.7816 0.32647 0.0
C2175 C 0.61473 0.78139 0.365 0.0
C2176 C 0.65058 0.78627 0.3143 0.0
C2177 C 0.67233 0.79089 0.32656 0.0
C2178 C 0.63434 0.78146 0.35117 0.0
C2179 C 0.67426 0.78875 0.35088 0.0
C2180 C 0.61144 0.76945 0.38457 0.0
C2181 C 0.58141 0.79527 0.37041 0.0
N2182 N 0.6555 0.78446 0.36254 0.0
N2183 N 0.59957 0.79381 0.35863 0.0
H2184 H 0.09479 0.26217 0.40392 0.0
H2185 H 0.10261 0.19756 0.51643 0.0
H2186 H 0.14432 0.29387 0.46694 0.0
H2187 H 0.04052 0.18918 0.47137 0.0
H2188 H 0.12315 0.22364 0.49097 0.0
H2189 H 0.08041 0.22534 0.42097 0.0
C2190 C 0.10332 0.26074 0.42081 0.0
C2191 C 0.12081 0.28073 0.43414 0.0
C2192 C 0.10506 0.21594 0.48661 0.0
C2193 C 0.1044 0.23934 0.45366 0.0
C2194 C 0.0934 0.20134 0.50115 0.0
C2195 C 0.06992 0.19209 0.49623 0.0
C2196 C 0.09312 0.22088 0.4669 0.0
C2197 C 0.0586 0.19677 0.476 0.0
C2198 C 0.09492 0.23998 0.43063 0.0
C2199 C 0.13089 0.2786 0.45622 0.0
N2200 N 0.07034 0.21104 0.46203 0.0
N2201 N 0.12239 0.25826 0.46546 0.0
H2202 H 0.56323 0.21459 0.16546 0.0
H2203 H 0.67744 0.28833 0.24719 0.0
H2204 H 0.57551 0.28951 0.20811 0.0
H2205 H 0.65686 0.20901 0.21635 0.0
H2206 H 0.6466 0.29407 0.22073 0.0
H2207 H 0.60363 0.21825 0.17069 0.0
C2208 C 0.57465 0.23191 0.17576 0.0
C2209 C 0.56642 0.25147 0.18715 0.0
C2210 C 0.64913 0.27551 0.21942 0.0
C2211 C 0.61213 0.25561 0.19371 0.0
C2212 C 0.66647 0.27222 0.23457 0.0
C2213 C 0.66874 0.24803 0.23435 0.0
C2214 C 0.63423 0.25439 0.20414 0.0
C2215 C 0.65487 0.22776 0.21747 0.0
C2216 C 0.59761 0.23409 0.17861 0.0
C2217 C 0.58152 0.27387 0.19967 0.0
N2218 N 0.63792 0.23135 0.20316 0.0
N2219 N 0.60383 0.27514 0.20323 0.0
H2220 H 0.64105 0.93364 0.89393 0.0
H2221 H 0.58416 0.97681 0.00646 0.0
H2222 H 0.65337 0.9135 0.96221 0.0
H2223 H 0.58463 0.00928 0.94336 0.0
H2224 H 0.61259 0.95638 0.99208 0.0
H2225 H 0.62714 0.96787 0.91414 0.0
C2226 C 0.64219 0.93749 0.91347 0.0
C2227 C 0.64758 0.9204 0.92639 0.0
C2228 C 0.60661 0.9682 0.98153 0.0
C2229 C 0.63063 0.95834 0.9494 0.0
C2230 C 0.59026 0.97976 0.9897 0.0
C2231 C 0.58238 0.99534 0.97653 0.0
C2232 C 0.61476 0.97187 0.95972 0.0
C2233 C 0.5902 0.99753 0.95428 0.0
C2234 C 0.63367 0.95663 0.92497 0.0
C2235 C 0.64884 0.92609 0.95161 0.0
N2236 N 0.60598 0.98597 0.94662 0.0
N2237 N 0.63937 0.94399 0.96229 0.0
H2238 H 0.96422 0.75953 0.74547 0.0
H2239 H 0.83937 0.76329 0.71547 0.0
H2240 H 0.93885 0.77187 0.6771 0.0
H2241 H 0.87168 0.77909 0.78876 0.0
H2242 H 0.87606 0.76675 0.70098 0.0
H2243 H 0.93113 0.76832 0.76236 0.0
C2244 C 0.95185 0.76468 0.73425 0.0
C2245 C 0.95402 0.7651 0.71003 0.0
C2246 C 0.87524 0.76989 0.72024 0.0
C2247 C 0.91625 0.77447 0.7288 0.0
C2248 C 0.85442 0.76774 0.72841 0.0
C2249 C 0.85307 0.77136 0.75317 0.0
C2250 C 0.89453 0.7751 0.73708 0.0
C2251 C 0.87249 0.7765 0.76951 0.0
C2252 C 0.93306 0.76969 0.74383 0.0
C2253 C 0.93771 0.77168 0.69599 0.0
N2254 N 0.89267 0.77823 0.76112 0.0
N2255 N 0.91915 0.7757 0.70551 0.0
H2256 H 0.16983 0.02885 0.85994 0.0
H2257 H 0.05963 1.00138 0.93198 0.0
H2258 H 0.10201 0.99623 0.82443 0.0
H2259 H 0.12461 0.04716 0.9676 0.0
H2260 H 0.0756 0.996 0.89363 0.0
H2261 H 0.15501 0.03199 0.89943 0.0
C2262 C 0.15192 0.02151 0.86028 0.0
C2263 C 0.13745 0.01146 0.8382 0.0
C2264 C 0.08652 1.00717 0.90978 0.0
C2265 C 0.11986 0.01565 0.88439 0.0
C2266 C 0.07729 0.01028 0.93204 0.0
C2267 C 0.09045 0.0248 0.95388 0.0
C2268 C 0.1095 0.01839 0.90857 0.0
C2269 C 0.11343 0.03568 0.95177 0.0
C2270 C 0.14333 0.02368 0.88306 0.0
C2271 C 0.11416 1.00355 0.84055 0.0
N2272 N 0.12203 0.03224 0.92995 0.0
N2273 N 0.10631 1.00566 0.86275 0.0
H2274 H 0.83651 0.35996 0.54566 0.0
H2275 H 0.85361 0.39349 0.6832 0.0
H2276 H 0.83397 0.43292 0.58411 0.0
H2277 H 0.81823 0.31835 0.64559 0.0
H2278 H 0.84355 0.40905 0.64774 0.0
H2279 H 0.82915 0.34377 0.58238 0.0
C2280 C 0.83413 0.37237 0.56172 0.0
C2281 C 0.83551 0.39758 0.56203 0.0
C2282 C 0.83723 0.38926 0.64754 0.0
C2283 C 0.82711 0.37957 0.60331 0.0
C2284 C 0.84286 0.38053 0.66777 0.0
C2285 C 0.83703 0.35477 0.66676 0.0
C2286 C 0.82637 0.37187 0.62634 0.0
C2287 C 0.82315 0.3384 0.64662 0.0
C2288 C 0.82966 0.36316 0.58242 0.0
C2289 C 0.83257 0.41319 0.58313 0.0
N2290 N 0.81888 0.34715 0.62664 0.0
N2291 N 0.82873 0.40396 0.60308 0.0
H2292 H 0.43587 0.99867 0.37465 0.0
H2293 H 0.53616 0.09267 0.46814 0.0
H2294 H 0.4534 0.07862 0.3787 0.0
H2295 H 0.52711 0.01305 0.44532 0.0
H2296 H 0.50313 0.08949 0.43954 0.0
H2297 H 0.46315 1.00534 0.41002 0.0
C2298 C 0.44485 0.01773 0.38351 0.0
C2299 C 0.44371 0.03804 0.37298 0.0
C2300 C 0.50864 0.07282 0.44057 0.0
C2301 C 0.47495 0.04562 0.41256 0.0
C2302 C 0.52773 0.07478 0.45625 0.0
C2303 C 0.53399 0.05309 0.45863 0.0
C2304 C 0.49599 0.04897 0.42787 0.0
C2305 C 0.52258 0.03013 0.44357 0.0
C2306 C 0.4607 0.02148 0.40341 0.0
C2307 C 0.45485 0.06238 0.38572 0.0
N2308 N 0.50373 0.02854 0.42902 0.0
N2309 N 0.47083 0.06554 0.40451 0.0
H2310 H 0.79368 0.78259 0.08517 0.0
H2311 H 0.80432 0.72666 0.20241 0.0
H2312 H 0.8206 0.71913 0.08838 0.0
H2313 H 0.80624 0.80473 0.20871 0.0
H2314 H 0.80467 0.72221 0.159 0.0
H2315 H 0.79463 0.7907 0.12924 0.0
C2316 C 0.80013 0.7706 0.09513 0.0
C2317 C 0.80686 0.74996 0.08298 0.0
C2318 C 0.80485 0.7403 0.16979 0.0
C2319 C 0.80748 0.75887 0.13319 0.0
C2320 C 0.80441 0.74279 0.19452 0.0
C2321 C 0.80516 0.76604 0.20911 0.0
C2322 C 0.80589 0.76119 0.15937 0.0
C2323 C 0.80539 0.78639 0.19801 0.0
C2324 C 0.80058 0.77523 0.12025 0.0
C2325 C 0.81511 0.73515 0.09686 0.0
N2326 N 0.80575 0.7835 0.17367 0.0
N2327 N 0.81488 0.73969 0.12115 0.0
H2328 H 0.13658 0.97912 0.6783 0.0
H2329 H 0.07726 0.06003 0.60057 0.0
H2330 H 0.12888 0.05235 0.70797 0.0
H2331 H 0.10446 1.00102 0.56605 0.0
H2332 H 0.09192 0.05437 0.6401 0.0
H2333 H 0.12111 0.98316 0.63787 0.0
C2334 C 0.13202 0.99615 0.67653 0.0
C2335 C 0.1344 0.0154 0.69731 0.0
C2336 C 0.09461 0.0425 0.62388 0.0
C2337 C 0.11606 0.02012 0.65023 0.0
C2338 C 0.08627 0.04595 0.60095 0.0
C2339 C 0.09001 0.03181 0.57906 0.0
C2340 C 0.10618 0.02387 0.62563 0.0
C2341 C 0.10128 0.01303 0.58188 0.0
C2342 C 0.12297 0.99843 0.65325 0.0
C2343 C 0.12744 0.03671 0.69307 0.0
N2344 N 0.10869 0.00962 0.60424 0.0
N2345 N 0.11877 0.03839 0.67059 0.0
H2346 H 0.81581 0.37508 0.45847 0.0
H2347 H 0.87101 0.34002 0.34093 0.0
H2348 H 0.86466 0.42613 0.42839 0.0
H2349 H 0.81463 0.28912 0.36132 0.0
H2350 H 0.87726 0.36628 0.38106 0.0
H2351 H 0.81975 0.34018 0.4279 0.0
C2352 C 0.82673 0.37896 0.44482 0.0
C2353 C 0.83993 0.40328 0.44558 0.0
C2354 C 0.86369 0.34915 0.37691 0.0
C2355 C 0.84517 0.36381 0.41169 0.0
C2356 C 0.8602 0.33405 0.35407 0.0
C2357 C 0.84102 0.31365 0.34743 0.0
C2358 C 0.84763 0.34374 0.39264 0.0
C2359 C 0.82848 0.30585 0.36536 0.0
C2360 C 0.82943 0.35905 0.42789 0.0
C2361 C 0.85425 0.4075 0.42812 0.0
N2362 N 0.83139 0.32157 0.38716 0.0
N2363 N 0.85658 0.38784 0.41183 0.0
H2364 H 0.45044 0.99082 0.23189 0.0
H2365 H 0.50662 0.06339 0.14648 0.0
H2366 H 0.46414 0.07144 0.24256 0.0
H2367 H 0.47964 0.98304 0.13031 0.0
H2368 H 0.47742 0.06738 0.17222 0.0
H2369 H 0.44773 0.9877 0.18883 0.0
C2370 C 0.45304 1.00796 0.22514 0.0
C2371 C 0.45868 0.03155 0.24082 0.0
C2372 C 0.47733 0.04886 0.16248 0.0
C2373 C 0.45577 0.02812 0.19132 0.0
C2374 C 0.49412 0.04661 0.14794 0.0
C2375 C 0.49619 0.02275 0.1378 0.0
C2376 C 0.46338 0.02705 0.16739 0.0
C2377 C 0.47926 1.00166 0.13926 0.0
C2378 C 0.45103 1.00614 0.20044 0.0
C2379 C 0.46083 0.05296 0.23105 0.0
N2380 N 0.46374 1.00424 0.15441 0.0
N2381 N 0.45991 0.05079 0.20684 0.0
H2382 H 0.83859 0.77094 0.96273 0.0
H2383 H 0.79639 0.72481 0.82112 0.0
H2384 H 0.78566 0.70448 0.93022 0.0
H2385 H 0.83841 0.79908 0.85321 0.0
H2386 H 0.79869 0.714 0.86038 0.0
H2387 H 0.84478 0.7786 0.92211 0.0
C2388 C 0.82855 0.75786 0.94696 0.0
C2389 C 0.81174 0.737 0.94947 0.0
C2390 C 0.80752 0.73269 0.8588 0.0
C2391 C 0.81831 0.74567 0.90354 0.0
C2392 C 0.80626 0.73896 0.83629 0.0
C2393 C 0.81673 0.76332 0.83369 0.0
C2394 C 0.81942 0.75083 0.87903 0.0
C2395 C 0.82958 0.78043 0.85417 0.0
C2396 C 0.83198 0.76222 0.92391 0.0
C2397 C 0.79896 0.72058 0.92878 0.0
N2398 N 0.83038 0.77398 0.87604 0.0
N2399 N 0.80239 0.72535 0.90667 0.0
H2400 H 0.84426 0.12184 0.98333 0.0
H2401 H 0.9133 0.03753 0.03112 0.0
H2402 H 0.84369 0.11114 0.05661 0.0
H2403 H 0.92945 0.0732 0.97154 0.0
H2404 H 0.88946 0.06586 0.04304 0.0
H2405 H 0.8771 0.1056 0.98021 0.0
C2406 C 0.85127 0.11629 0.99887 0.0
C2407 C 0.84126 0.11752 0.02013 0.0
C2408 C 0.89851 0.06771 0.02759 0.0
C2409 C 0.87868 0.09871 0.01669 0.0
C2410 C 0.9118 0.05146 0.02072 0.0
C2411 C 0.92234 0.05271 0.99989 0.0
C2412 C 0.89598 0.08499 0.01336 0.0
C2413 C 0.92076 0.07131 0.98722 0.0
C2414 C 0.87011 0.10718 0.99717 0.0
C2415 C 0.85102 0.11033 0.03985 0.0
N2416 N 0.90753 0.08661 0.994 0.0
N2417 N 0.86909 0.10071 0.03752 0.0
H2418 H 0.39347 0.4469 0.08221 0.0
H2419 H 0.49328 0.47303 0.00571 0.0
H2420 H 0.38497 0.42446 0.00462 0.0
H2421 H 0.49289 0.52991 0.06818 0.0
H2422 H 0.45452 0.45232 0.00839 0.0
H2423 H 0.4302 0.47631 0.08067 0.0
C2424 C 0.3991 0.44873 0.06488 0.0
C2425 C 0.3864 0.43341 0.04347 0.0
C2426 C 0.46281 0.46946 0.02143 0.0
C2427 C 0.42814 0.466 0.04164 0.0
C2428 C 0.48509 0.48136 0.01998 0.0
C2429 C 0.49642 0.50369 0.03643 0.0
C2430 C 0.45168 0.47936 0.03988 0.0
C2431 C 0.48476 0.51298 0.05487 0.0
C2432 C 0.41998 0.46536 0.06401 0.0
C2433 C 0.39439 0.43602 0.02147 0.0
N2434 N 0.463 0.50065 0.05625 0.0
N2435 N 0.41489 0.45169 0.02113 0.0
H2436 H 0.41073 0.66708 0.82186 0.0
H2437 H 0.34375 0.72863 0.73114 0.0
H2438 H 0.39495 0.63464 0.74571 0.0
H2439 H 0.34887 0.7504 0.80841 0.0
H2440 H 0.36211 0.69514 0.7356 0.0
H2441 H 0.3894 0.6975 0.81678 0.0
C2442 C 0.40281 0.66603 0.80389 0.0
C2443 C 0.40517 0.6474 0.78429 0.0
C2444 C 0.35917 0.707 0.75169 0.0
C2445 C 0.37978 0.68393 0.77824 0.0
C2446 C 0.34845 0.72631 0.74917 0.0
C2447 C 0.3441 0.74274 0.76933 0.0
C2448 C 0.36661 0.7038 0.77474 0.0
C2449 C 0.3512 0.73836 0.79212 0.0
C2450 C 0.39039 0.68378 0.80107 0.0
C2451 C 0.39402 0.64809 0.76165 0.0
N2452 N 0.36209 0.71982 0.79409 0.0
N2453 N 0.38216 0.66581 0.75934 0.0
H2454 H 0.21463 0.56522 0.47712 0.0
H2455 H 0.12596 0.60749 0.54962 0.0
H2456 H 0.22269 0.57801 0.55466 0.0
H2457 H 0.10567 0.55793 0.47986 0.0
H2458 H 0.16253 0.59737 0.55113 0.0
H2459 H 0.17395 0.557 0.47675 0.0
C2460 C 0.20769 0.56454 0.49402 0.0
C2461 C 0.22182 0.57386 0.51604 0.0
C2462 C 0.14978 0.58822 0.53576 0.0
C2463 C 0.17595 0.56559 0.51593 0.0
C2464 C 0.12903 0.59402 0.535 0.0
C2465 C 0.11233 0.58187 0.5156 0.0
C2466 C 0.15387 0.57097 0.51641 0.0
C2467 C 0.11782 0.56658 0.49576 0.0
C2468 C 0.18449 0.5606 0.49386 0.0
C2469 C 0.21216 0.57203 0.53734 0.0
N2470 N 0.1381 0.56138 0.49669 0.0
N2471 N 0.18971 0.56968 0.53699 0.0
H2472 H 0.76116 0.99694 0.70195 0.0
H2473 H 0.75666 0.92184 0.80335 0.0
H2474 H 0.69851 0.96401 0.72691 0.0
H2475 H 0.80922 0.92497 0.75729 0.0
H2476 H 0.73438 0.93583 0.77386 0.0
H2477 H 0.77839 0.96806 0.7187 0.0
C2478 C 0.75082 0.98313 0.71027 0.0
C2479 C 0.72856 0.98331 0.71363 0.0
C2480 C 0.75062 0.93308 0.76998 0.0
C2481 C 0.74823 0.95075 0.73315 0.0
C2482 C 0.76333 0.92539 0.78687 0.0
C2483 C 0.78466 0.92262 0.78259 0.0
C2484 C 0.75964 0.9385 0.74902 0.0
C2485 C 0.79276 0.9271 0.76104 0.0
C2486 C 0.76069 0.9667 0.71988 0.0
C2487 C 0.71587 0.96485 0.72432 0.0
N2488 N 0.78034 0.93528 0.74511 0.0
N2489 N 0.72609 0.94973 0.73431 0.0
H2490 H 0.76315 0.92828 0.55721 0.0
H2491 H 0.67758 0.96266 0.46519 0.0
H2492 H 0.77057 0.92939 0.48244 0.0
H2493 H 0.68962 0.9996 0.54046 0.0
H2494 H 0.704 0.93829 0.47327 0.0
H2495 H 0.72977 0.94467 0.55292 0.0
C2496 C 0.75777 0.93193 0.53994 0.0
C2497 C 0.76971 0.92765 0.52014 0.0
C2498 C 0.70068 0.95155 0.48807 0.0
C2499 C 0.73157 0.94551 0.51509 0.0
C2500 C 0.68565 0.96539 0.48348 0.0
C2501 C 0.682 0.98354 0.50208 0.0
C2502 C 0.71223 0.956 0.51137 0.0
C2503 C 0.69232 0.98593 0.52562 0.0
C2504 C 0.73879 0.94119 0.53756 0.0
C2505 C 0.76203 0.93259 0.4982 0.0
N2506 N 0.70738 0.97257 0.52961 0.0
N2507 N 0.74341 0.94113 0.49626 0.0
H2508 H 0.38623 0.5078 0.79252 0.0
H2509 H 0.36452 0.35887 0.73982 0.0
H2510 H 0.41453 0.47607 0.73114 0.0
H2511 H 0.32221 0.38705 0.78863 0.0
H2512 H 0.3838 0.40217 0.73822 0.0
H2513 H 0.36328 0.46507 0.79312 0.0
C2514 C 0.38718 0.49209 0.77873 0.0
C2515 C 0.40226 0.49595 0.76148 0.0
C2516 C 0.3703 0.39904 0.74932 0.0
C2517 C 0.37635 0.44647 0.7625 0.0
C2518 C 0.35925 0.37416 0.75023 0.0
C2519 C 0.34142 0.36903 0.76413 0.0
C2520 C 0.36412 0.41947 0.76294 0.0
C2521 C 0.33555 0.38993 0.7773 0.0
C2522 C 0.37422 0.46754 0.77925 0.0
C2523 C 0.40315 0.47438 0.74471 0.0
N2524 N 0.34691 0.41405 0.77657 0.0
N2525 N 0.39067 0.45096 0.74573 0.0
H2526 H 0.25602 0.60144 0.2473 0.0
H2527 H 0.25129 0.73602 0.26425 0.0
H2528 H 0.21465 0.62614 0.1975 0.0
H2529 H 0.31613 0.72364 0.2827 0.0
H2530 H 0.23852 0.69361 0.23985 0.0
H2531 H 0.28187 0.64359 0.25765 0.0
C2532 C 0.2532 0.61537 0.23743 0.0
C2533 C 0.23314 0.61077 0.22188 0.0
C2534 C 0.25568 0.70016 0.24889 0.0
C2535 C 0.26189 0.65858 0.23404 0.0
C2536 C 0.26279 0.72416 0.263 0.0
C2537 C 0.28477 0.73306 0.27477 0.0
C2538 C 0.27054 0.68479 0.24706 0.0
C2539 C 0.29908 0.71714 0.27336 0.0
C2540 C 0.26783 0.63944 0.2435 0.0
C2541 C 0.22987 0.62929 0.20982 0.0
N2542 N 0.29166 0.69343 0.25966 0.0
N2543 N 0.24384 0.65272 0.21662 0.0
H2544 H 0.5406 0.70095 0.44265 0.0
H2545 H 0.54727 0.61158 0.53709 0.0
H2546 H 0.50906 0.70825 0.50783 0.0
H2547 H 0.55897 0.59455 0.4628 0.0
H2548 H 0.53876 0.6507 0.53021 0.0
H2549 H 0.55261 0.66552 0.45302 0.0
C2550 C 0.53628 0.69524 0.45924 0.0
C2551 C 0.52371 0.70777 0.47429 0.0
C2552 C 0.5435 0.63852 0.51555 0.0
C2553 C 0.53773 0.66687 0.48653 0.0
C2554 C 0.54862 0.61636 0.51956 0.0
C2555 C 0.55406 0.59985 0.50053 0.0
C2556 C 0.54416 0.64435 0.49246 0.0
C2557 C 0.555 0.60675 0.47803 0.0
C2558 C 0.54314 0.67489 0.46517 0.0
C2559 C 0.51864 0.69921 0.49557 0.0
N2560 N 0.55017 0.6283 0.47467 0.0
N2561 N 0.52567 0.6794 0.50106 0.0
H2562 H 0.68952 0.31178 0.62258 0.0
H2563 H 0.74074 0.33119 0.76132 0.0
H2564 H 0.65451 0.3361 0.68152 0.0
H2565 H 0.76718 0.29455 0.70084 0.0
H2566 H 0.71048 0.33572 0.73334 0.0
H2567 H 0.71917 0.30814 0.65155 0.0
C2568 C 0.68814 0.3167 0.64167 0.0
C2569 C 0.66939 0.3245 0.64945 0.0
C2570 C 0.72289 0.32665 0.72622 0.0
C2571 C 0.7038 0.32029 0.68319 0.0
C2572 C 0.74026 0.32396 0.74229 0.0
C2573 C 0.75674 0.31227 0.73374 0.0
C2574 C 0.72193 0.3178 0.70122 0.0
C2575 C 0.7551 0.30376 0.70856 0.0
C2576 C 0.70513 0.31444 0.65828 0.0
C2577 C 0.6686 0.3301 0.67456 0.0
N2578 N 0.73817 0.3067 0.69336 0.0
N2579 N 0.68555 0.32801 0.69048 0.0
H2580 H 0.01918 0.34533 0.93796 0.0
H2581 H 0.05049 0.47669 0.03434 0.0
H2582 H 0.03187 0.34988 0.0145 0.0
H2583 H 0.03752 0.46893 0.95733 0.0
H2584 H 0.04193 0.43081 0.02853 0.0
H2585 H 0.02433 0.39061 0.9456 0.0
C2586 C 0.02353 0.35601 0.95641 0.0
C2587 C 0.02548 0.34385 0.97557 0.0
C2588 C 0.04064 0.43911 0.01293 0.0
C2589 C 0.03144 0.39615 0.98461 0.0
C2590 C 0.04533 0.46535 0.01625 0.0
C2591 C 0.04453 0.47671 0.99626 0.0
C2592 C 0.0351 0.42409 0.98943 0.0
C2593 C 0.03829 0.46099 0.97323 0.0
C2594 C 0.0263 0.38191 0.96081 0.0
C2595 C 0.03037 0.35856 0.99919 0.0
N2596 N 0.03387 0.43564 0.97047 0.0
N2597 N 0.03339 0.38397 0.00305 0.0
H2598 H 0.01238 0.82279 0.11862 0.0
H2599 H 0.97695 0.79997 0.24715 0.0
H2600 H 0.05783 0.81485 0.17653 0.0
H2601 H 0.92808 0.79436 0.18653 0.0
H2602 H 0.00725 0.81172 0.2229 0.0
H2603 H 0.98205 0.81794 0.14424 0.0
C2604 C 0.01605 0.82011 0.13674 0.0
C2605 C 0.03776 0.81905 0.14532 0.0
C2606 C 0.98995 0.80812 0.21485 0.0
C2607 C 0.00297 0.81361 0.17484 0.0
C2608 C 0.97262 0.80149 0.22874 0.0
C2609 C 0.94992 0.79598 0.21882 0.0
C2610 C 0.98472 0.80919 0.19065 0.0
C2611 C 0.94533 0.79852 0.19493 0.0
C2612 C 0.99867 0.81734 0.15135 0.0
C2613 C 0.04141 0.81567 0.16903 0.0
N2614 N 0.96257 0.80469 0.18157 0.0
N2615 N 0.02424 0.81303 0.18286 0.0
H2616 H 0.52067 0.32613 0.14021 0.0
H2617 H 0.53119 0.35799 0.01018 0.0
H2618 H 0.48207 0.27812 0.07439 0.0
H2619 H 0.55969 0.41248 0.07612 0.0
H2620 H 0.51241 0.32886 0.03385 0.0
H2621 H 0.53434 0.3586 0.11771 0.0
C2622 C 0.51487 0.3225 0.12107 0.0
C2623 C 0.50035 0.29925 0.10909 0.0
C2624 C 0.52269 0.3472 0.04321 0.0
C2625 C 0.51607 0.33627 0.08327 0.0
C2626 C 0.5335 0.3637 0.0297 0.0
C2627 C 0.54713 0.38741 0.04129 0.0
C2628 C 0.52583 0.35432 0.06853 0.0
C2629 C 0.54932 0.39425 0.06658 0.0
C2630 C 0.52269 0.34107 0.10826 0.0
C2631 C 0.49335 0.29566 0.08433 0.0
N2632 N 0.53895 0.37764 0.07943 0.0
N2633 N 0.50145 0.31388 0.07221 0.0
H2634 H 0.07367 0.36865 0.36243 0.0
H2635 H 0.94593 0.30939 0.30566 0.0
H2636 H 0.03612 0.29544 0.36977 0.0
H2637 H 0.98148 0.38712 0.31247 0.0
H2638 H 0.97773 0.3036 0.33029 0.0
H2639 H 0.03949 0.37505 0.34358 0.0
C2640 C 0.05818 0.35372 0.35957 0.0
C2641 C 0.05744 0.33148 0.36742 0.0
C2642 C 0.97845 0.32198 0.32665 0.0
C2643 C 0.01837 0.33865 0.34614 0.0
C2644 C 0.96036 0.32531 0.31271 0.0
C2645 C 0.96155 0.34866 0.30677 0.0
C2646 C 0.9977 0.34214 0.33445 0.0
C2647 C 0.98036 0.36872 0.31625 0.0
C2648 C 0.03864 0.3575 0.34915 0.0
C2649 C 0.03707 0.31286 0.3639 0.0
N2650 N 0.99787 0.36494 0.32952 0.0
N2651 N 0.01816 0.31679 0.35328 0.0
H2652 H 0.96115 0.65106 0.63011 0.0
H2653 H 0.03037 0.62682 0.52183 0.0
H2654 H 0.9881 0.7059 0.58858 0.0
H2655 H 0.0117 0.57704 0.57047 0.0
H2656 H 0.00483 0.65074 0.5379 0.0
H2657 H 0.96695 0.61825 0.59866 0.0
C2658 C 0.96764 0.6561 0.61402 0.0
C2659 C 0.97526 0.68129 0.61243 0.0
C2660 C 0.00613 0.63444 0.54491 0.0
C2661 C 0.98234 0.64416 0.57692 0.0
C2662 C 0.0208 0.62095 0.53587 0.0
C2663 C 0.02334 0.60036 0.54523 0.0
C2664 C 0.99408 0.62732 0.56354 0.0
C2665 C 0.01066 0.59336 0.56338 0.0
C2666 C 0.97104 0.63738 0.59614 0.0
C2667 C 0.98278 0.68675 0.5909 0.0
N2668 N 0.99664 0.60701 0.57213 0.0
N2669 N 0.98684 0.66834 0.57423 0.0
H2670 H 0.66913 0.80277 0.85967 0.0
H2671 H 0.73911 0.81225 0.74877 0.0
H2672 H 0.66821 0.85956 0.81802 0.0
H2673 H 0.76114 0.79431 0.81547 0.0
H2674 H 0.70413 0.81747 0.76501 0.0
H2675 H 0.69349 0.78642 0.83336 0.0
C2676 C 0.67387 0.81172 0.84484 0.0
C2677 C 0.66694 0.83285 0.84123 0.0
C2678 C 0.71632 0.81141 0.77555 0.0
C2679 C 0.69477 0.81399 0.81107 0.0
C2680 C 0.73601 0.80829 0.76634 0.0
C2681 C 0.75217 0.80155 0.78049 0.0
C2682 C 0.71318 0.8076 0.79887 0.0
C2683 C 0.74828 0.7978 0.80351 0.0
C2684 C 0.68768 0.80223 0.82979 0.0
C2685 C 0.67345 0.84341 0.82153 0.0
N2686 N 0.72908 0.80076 0.81199 0.0
N2687 N 0.68737 0.83401 0.80722 0.0
H2688 H 0.5113 0.60708 0.7169 0.0
H2689 H 0.5021 0.53336 0.57714 0.0
H2690 H 0.45856 0.54118 0.68326 0.0
H2691 H 0.56023 0.59336 0.61121 0.0
H2692 H 0.48515 0.53848 0.61475 0.0
H2693 H 0.52783 0.6054 0.67844 0.0
C2694 C 0.50266 0.59271 0.70129 0.0
C2695 C 0.48268 0.57491 0.70356 0.0
C2696 C 0.50159 0.55068 0.61416 0.0
C2697 C 0.50252 0.57207 0.65882 0.0
C2698 C 0.51144 0.54779 0.59238 0.0
C2699 C 0.53298 0.56285 0.59026 0.0
C2700 C 0.51291 0.56903 0.63477 0.0
C2701 C 0.54374 0.58109 0.61139 0.0
C2702 C 0.51241 0.59152 0.67924 0.0
C2703 C 0.47332 0.55602 0.68256 0.0
N2704 N 0.53372 0.58363 0.63238 0.0
N2705 N 0.48313 0.55517 0.66152 0.0
H2706 H 0.73973 0.14605 0.95475 0.0
H2707 H 0.79474 0.26574 0.91221 0.0
H2708 H 0.80711 0.18971 0.98597 0.0
H2709 H 0.74411 0.20408 0.86676 0.0
H2710 H 0.80388 0.23693 0.93654 0.0
H2711 H 0.74367 0.16565 0.92023 0.0
C2712 C 0.75548 0.15956 0.95417 0.0
C2713 C 0.77299 0.16651 0.97331 0.0
C2714 C 0.79136 0.22953 0.92071 0.0
C2715 C 0.77767 0.18909 0.93384 0.0
C2716 C 0.78624 0.24591 0.90687 0.0
C2717 C 0.76845 0.23704 0.88794 0.0
C2718 C 0.77823 0.2045 0.91556 0.0
C2719 C 0.75773 0.21142 0.88153 0.0
C2720 C 0.75784 0.17059 0.93433 0.0
C2721 C 0.79312 0.18402 0.9716 0.0
N2722 N 0.76247 0.19605 0.89567 0.0
N2723 N 0.79478 0.19514 0.95233 0.0
H2724 H 0.1682 0.56515 0.18468 0.0
H2725 H 0.05997 0.50394 0.09674 0.0
H2726 H 0.11855 0.50246 0.19863 0.0
H2727 H 0.12225 0.54076 0.07351 0.0
H2728 H 0.0819 0.498 0.13196 0.0
H2729 H 0.15373 0.55202 0.14181 0.0
C2730 C 0.15459 0.54819 0.17844 0.0
C2731 C 0.1442 0.53494 0.19483 0.0
C2732 C 0.09072 0.50688 0.11881 0.0
C2733 C 0.12713 0.52023 0.14635 0.0
C2734 C 0.0782 0.5105 0.09889 0.0
C2735 C 0.08926 0.52388 0.08289 0.0
C2736 C 0.11427 0.51692 0.12256 0.0
C2737 C 0.11294 0.53123 0.08596 0.0
C2738 C 0.14634 0.54063 0.15405 0.0
C2739 C 0.1267 0.51314 0.18625 0.0
N2740 N 0.12464 0.52811 0.10572 0.0
N2741 N 0.11822 0.50674 0.1625 0.0
H2742 H 0.8037 0.87591 0.4576 0.0
H2743 H 0.81468 0.78241 0.33722 0.0
H2744 H 0.82067 0.80625 0.45955 0.0
H2745 H 0.81987 0.86115 0.34288 0.0
H2746 H 0.81337 0.7882 0.38107 0.0
H2747 H 0.80352 0.86728 0.41383 0.0
C2748 C 0.80691 0.85854 0.44877 0.0
C2749 C 0.81243 0.8419 0.46226 0.0
C2750 C 0.81502 0.80421 0.37268 0.0
C2751 C 0.81265 0.8321 0.41223 0.0
C2752 C 0.81603 0.80097 0.34777 0.0
C2753 C 0.81748 0.8214 0.33654 0.0
C2754 C 0.81506 0.82789 0.38614 0.0
C2755 C 0.81875 0.84495 0.3509 0.0
C2756 C 0.8071 0.85376 0.42382 0.0
C2757 C 0.81657 0.81971 0.44983 0.0
N2758 N 0.8173 0.8475 0.37487 0.0
N2759 N 0.81672 0.8155 0.42549 0.0
H2760 H 0.48452 0.53003 0.83166 0.0
H2761 H 0.52251 0.58662 0.97371 0.0
H2762 H 0.4892 0.60758 0.86146 0.0
H2763 H 0.53828 0.52047 0.9362 0.0
H2764 H 0.50959 0.59472 0.93496 0.0
H2765 H 0.50084 0.52574 0.87055 0.0
C2766 C 0.48895 0.5464 0.84633 0.0
C2767 C 0.48518 0.56931 0.84244 0.0
C2768 C 0.51572 0.57828 0.93509 0.0
C2769 C 0.50467 0.5642 0.88868 0.0
C2770 C 0.52337 0.57352 0.95755 0.0
C2771 C 0.53136 0.55218 0.9593 0.0
C2772 C 0.51504 0.56125 0.91335 0.0
C2773 C 0.53186 0.53663 0.93677 0.0
C2774 C 0.49848 0.5438 0.86882 0.0
C2775 C 0.4913 0.58938 0.86301 0.0
N2776 N 0.52351 0.54115 0.91521 0.0
N2777 N 0.50062 0.58634 0.88495 0.0
H2778 H 0.74507 0.20953 0.08594 0.0
H2779 H 0.82251 0.25488 0.20963 0.0
H2780 H 0.80366 0.18391 0.1039 0.0
H2781 H 0.77472 0.29441 0.18949 0.0
H2782 H 0.81902 0.23307 0.16835 0.0
H2783 H 0.7575 0.24397 0.12134 0.0
C2784 C 0.76053 0.21118 0.09731 0.0
C2785 C 0.77318 0.19367 0.09236 0.0
C2786 C 0.80944 0.24672 0.17263 0.0
C2787 C 0.78753 0.23291 0.13216 0.0
C2788 C 0.81148 0.25917 0.19625 0.0
C2789 C 0.79872 0.2761 0.20258 0.0
C2790 C 0.79371 0.25044 0.1555 0.0
C2791 C 0.78459 0.28113 0.18487 0.0
C2792 C 0.76772 0.23096 0.11725 0.0
C2793 C 0.7932 0.19676 0.10729 0.0
N2794 N 0.782 0.26777 0.16188 0.0
N2795 N 0.79968 0.21596 0.12662 0.0
H2796 H 0.18019 0.52451 0.30036 0.0
H2797 H 0.11993 0.61561 0.37963 0.0
H2798 H 0.19453 0.6043 0.30458 0.0
H2799 H 0.09681 0.53495 0.36565 0.0
H2800 H 0.15274 0.61217 0.35894 0.0
H2801 H 0.15538 0.5285 0.33177 0.0
C2802 C 0.17859 0.54293 0.3084 0.0
C2803 C 0.18909 0.56411 0.29984 0.0
C2804 C 0.14044 0.59519 0.36027 0.0
C2805 C 0.16079 0.56873 0.33516 0.0
C2806 C 0.12169 0.5972 0.37177 0.0
C2807 C 0.10556 0.57553 0.37349 0.0
C2808 C 0.14283 0.57133 0.35027 0.0
C2809 C 0.10883 0.55202 0.36407 0.0
C2810 C 0.16433 0.54517 0.32611 0.0
C2811 C 0.18645 0.58752 0.31062 0.0
N2812 N 0.12705 0.5505 0.35255 0.0
N2813 N 0.17233 0.58918 0.32755 0.0
H2814 H 0.78891 0.8675 0.59982 0.0
H2815 H 0.79913 0.77256 0.68523 0.0
H2816 H 0.8298 0.81495 0.58993 0.0
H2817 H 0.78408 0.84294 0.71165 0.0
H2818 H 0.80026 0.78202 0.64525 0.0
H2819 H 0.77774 0.85298 0.63636 0.0
C2820 C 0.7954 0.85283 0.6052 0.0
C2821 C 0.81049 0.84257 0.59198 0.0
C2822 C 0.79626 0.7952 0.65964 0.0
C2823 C 0.79766 0.82594 0.63328 0.0
C2824 C 0.79526 0.78965 0.68235 0.0
C2825 C 0.7911 0.80686 0.7015 0.0
C2826 C 0.79316 0.81817 0.6561 0.0
C2827 C 0.78729 0.82926 0.69717 0.0
C2828 C 0.78905 0.84464 0.626 0.0
C2829 C 0.81828 0.82352 0.59964 0.0
N2830 N 0.78848 0.83439 0.67478 0.0
N2831 N 0.81181 0.81588 0.61984 0.0
H2832 H 0.80413 0.51931 0.5014 0.0
H2833 H 0.68118 0.50728 0.54027 0.0
H2834 H 0.76055 0.4497 0.51042 0.0
H2835 H 0.73305 0.57721 0.55272 0.0
H2836 H 0.70726 0.48547 0.52161 0.0
H2837 H 0.77502 0.54039 0.51242 0.0
C2838 C 0.78817 0.50842 0.50514 0.0
C2839 C 0.78449 0.48289 0.50497 0.0
C2840 C 0.71288 0.50558 0.52841 0.0
C2841 C 0.75147 0.50664 0.51768 0.0
C2842 C 0.69806 0.51803 0.53896 0.0
C2843 C 0.70516 0.54403 0.54811 0.0
C2844 C 0.73485 0.51931 0.52702 0.0
C2845 C 0.72714 0.5571 0.54617 0.0
C2846 C 0.7717 0.52042 0.51162 0.0
C2847 C 0.76385 0.46952 0.51044 0.0
N2848 N 0.74129 0.54454 0.53581 0.0
N2849 N 0.74801 0.48162 0.51665 0.0
H2850 H 0.23912 0.13047 0.47805 0.0
H2851 H 0.11651 0.11611 0.51941 0.0
H2852 H 0.21827 0.18473 0.5292 0.0
H2853 H 0.13498 0.05079 0.48305 0.0
H2854 H 0.15364 0.14152 0.51816 0.0
H2855 H 0.2017 0.10056 0.47608 0.0
C2856 C 0.22679 0.13597 0.48895 0.0
C2857 C 0.23158 0.16024 0.50348 0.0
C2858 C 0.1498 0.12163 0.51041 0.0
C2859 C 0.18929 0.12655 0.50133 0.0
C2860 C 0.12835 0.10695 0.51103 0.0
C2861 C 0.12249 0.08101 0.50166 0.0
C2862 C 0.16596 0.11061 0.5003 0.0
C2863 C 0.13878 0.07064 0.4907 0.0
C2864 C 0.20553 0.119 0.48778 0.0
C2865 C 0.21517 0.16647 0.51731 0.0
N2866 N 0.15994 0.0855 0.49043 0.0
N2867 N 0.19491 0.14985 0.51582 0.0
H2868 H 0.2271 0.95169 0.81843 0.0
H2869 H 0.28287 0.84771 0.74427 0.0
H2870 H 0.21945 0.93761 0.74069 0.0
H2871 H 0.28249 0.86502 0.82116 0.0
H2872 H 0.26194 0.87984 0.74052 0.0
H2873 H 0.24846 0.92079 0.81761 0.0
C2874 C 0.22976 0.94224 0.80091 0.0
C2875 C 0.22083 0.94818 0.77963 0.0
C2876 C 0.26662 0.87683 0.75827 0.0
C2877 C 0.24664 0.91084 0.77865 0.0
C2878 C 0.27889 0.85843 0.76047 0.0
C2879 C 0.28512 0.85332 0.78325 0.0
C2880 C 0.26031 0.89074 0.77896 0.0
C2881 C 0.27856 0.86792 0.80319 0.0
C2882 C 0.24227 0.92418 0.80054 0.0
C2883 C 0.22565 0.93437 0.75782 0.0
N2884 N 0.2669 0.88545 0.80057 0.0
N2885 N 0.23801 0.91663 0.75793 0.0
H2886 H 0.37832 0.01793 0.00226 0.0
H2887 H 0.49489 0.98879 0.9995 0.0
H2888 H 0.40323 0.97392 0.0471 0.0
H2889 H 0.49696 0.0673 0.01474 0.0
H2890 H 0.45393 0.97865 0.99896 0.0
H2891 H 0.41723 0.03512 0.99431 0.0
C2892 C 0.39211 0.01287 0.01129 0.0
C2893 C 0.38793 0.99433 0.02495 0.0
C2894 C 0.46342 0.99808 1.00133 0.0
C2895 C 0.431 0.01225 0.01489 0.0
C2896 C 0.48658 1.0038 1.00129 0.0
C2897 C 0.4991 0.02885 0.00655 0.0
C2898 C 0.45314 0.01765 0.00714 0.0
C2899 C 0.48785 0.04781 0.01004 0.0
C2900 C 0.414 0.02215 0.00631 0.0
C2901 C 0.40603 0.98801 0.0362 0.0
N2902 N 0.46531 0.04184 0.01057 0.0
N2903 N 0.42687 0.99642 0.03031 0.0
H2904 H 0.87653 0.61046 0.84079 0.0
H2905 H 0.82938 0.62416 0.71049 0.0
H2906 H 0.89502 0.57766 0.77288 0.0
H2907 H 0.80364 0.65268 0.77548 0.0
H2908 H 0.85381 0.60731 0.7342 0.0
H2909 H 0.85001 0.62726 0.81831 0.0
C2910 C 0.87501 0.60696 0.82125 0.0
C2911 C 0.88816 0.59329 0.8086 0.0
C2912 C 0.8428 0.61718 0.74338 0.0
C2913 C 0.85805 0.61152 0.7831 0.0
C2914 C 0.82871 0.62663 0.72977 0.0
C2915 C 0.81441 0.63968 0.74103 0.0
C2916 C 0.84275 0.62096 0.7685 0.0
C2917 C 0.81462 0.64289 0.76617 0.0
C2918 C 0.85995 0.61637 0.80848 0.0
C2919 C 0.88562 0.58879 0.78334 0.0
N2920 N 0.82868 0.63359 0.77917 0.0
N2921 N 0.87083 0.59785 0.77146 0.0
H2922 H 0.86668 0.65473 0.96942 0.0
H2923 H 0.92728 0.61021 0.07664 0.0
H2924 H 0.85092 0.6651 0.04277 0.0
H2925 H 0.9347 0.58547 0.00185 0.0
H2926 H 0.9031 0.63534 0.06453 0.0
H2927 H 0.89501 0.63357 0.98091 0.0
C2928 C 0.86916 0.65259 0.9879 0.0
C2929 C 0.85626 0.66155 0.00512 0.0
C2930 C 0.91 0.62445 0.05071 0.0
C2931 C 0.88869 0.63763 0.01836 0.0
C2932 C 0.92377 0.61006 0.05763 0.0
C2933 C 0.93267 0.59539 0.0402 0.0
C2934 C 0.90496 0.62421 0.02613 0.0
C2935 C 0.92809 0.59646 0.01586 0.0
C2936 C 0.88532 0.64053 0.99443 0.0
C2937 C 0.8603 0.65837 0.02882 0.0
N2938 N 0.91436 0.61046 0.00949 0.0
N2939 N 0.8761 0.64669 0.03469 0.0
H2940 H 0.18589 0.10713 0.76726 0.0
H2941 H 0.30931 0.20455 0.78964 0.0
H2942 H 0.2452 0.08334 0.7857 0.0
H2943 H 0.24651 0.22211 0.77252 0.0
H2944 H 0.2881 0.16095 0.78841 0.0
H2945 H 0.20928 0.14875 0.76859 0.0
C2946 C 0.20394 0.11054 0.77176 0.0
C2947 C 0.21325 0.09116 0.77668 0.0
C2948 C 0.279 0.17438 0.78493 0.0
C2949 C 0.24095 0.14041 0.77825 0.0
C2950 C 0.29117 0.19949 0.78565 0.0
C2951 C 0.28001 0.21762 0.7811 0.0
C2952 C 0.25529 0.16701 0.77958 0.0
C2953 C 0.25626 0.20932 0.77614 0.0
C2954 C 0.21743 0.13467 0.77246 0.0
C2955 C 0.23702 0.09739 0.78185 0.0
N2956 N 0.24495 0.185 0.77549 0.0
N2957 N 0.24997 0.1214 0.78264 0.0
H2958 H 0.37345 0.99161 0.32308 0.0
H2959 H 0.31242 0.85425 0.25296 0.0
H2960 H 0.38587 0.96632 0.25027 0.0
H2961 H 0.35741 0.87753 0.31973 0.0
H2962 H 0.31886 0.89849 0.2501 0.0
H2963 H 0.34265 0.95357 0.31855 0.0
C2964 C 0.36886 0.97855 0.30575 0.0
C2965 C 0.38222 0.98137 0.28719 0.0
C2966 C 0.32628 0.89375 0.26591 0.0
C2967 C 0.34792 0.93824 0.2822 0.0
C2968 C 0.32274 0.86873 0.26759 0.0
C2969 C 0.33363 0.86253 0.28733 0.0
C2970 C 0.34009 0.91234 0.28456 0.0
C2971 C 0.3478 0.88163 0.30507 0.0
C2972 C 0.35133 0.95702 0.30314 0.0
C2973 C 0.3759 0.96426 0.26502 0.0
N2974 N 0.35044 0.90578 0.30341 0.0
N2975 N 0.35948 0.94273 0.26331 0.0
H2976 H 0.58618 0.39057 0.60713 0.0
H2977 H 0.57336 0.47366 0.50791 0.0
H2978 H 0.60861 0.37492 0.53727 0.0
H2979 H 0.56806 0.4956 0.5836 0.0
H2980 H 0.58121 0.43443 0.51555 0.0
H2981 H 0.57493 0.42628 0.59637 0.0
C2982 C 0.58863 0.39451 0.58943 0.0
C2983 C 0.59848 0.37958 0.57319 0.0
C2984 C 0.57811 0.44778 0.5304 0.0
C2985 C 0.58524 0.42077 0.56045 0.0
C2986 C 0.57341 0.47005 0.52598 0.0
C2987 C 0.56998 0.488 0.54514 0.0
C2988 C 0.57916 0.44336 0.55408 0.0
C2989 C 0.57059 0.48239 0.56825 0.0
C2990 C 0.58221 0.41502 0.58326 0.0
C2991 C 0.60126 0.38593 0.5505 0.0
N2992 N 0.57507 0.46081 0.57201 0.0
N2993 N 0.59464 0.40591 0.54479 0.0
H2994 H 0.47265 0.78154 0.37497 0.0
H2995 H 0.33788 0.76116 0.35124 0.0
H2996 H 0.42523 0.73895 0.4135 0.0
H2997 H 0.38424 0.79795 0.30807 0.0
H2998 H 0.36975 0.75284 0.37418 0.0
H2999 H 0.44082 0.78722 0.34975 0.0
C3000 C 0.45559 0.77293 0.37784 0.0
C3001 C 0.45176 0.75962 0.39643 0.0
C3002 C 0.37298 0.76269 0.35964 0.0
C3003 C 0.41503 0.76641 0.36775 0.0
C3004 C 0.35476 0.76751 0.34662 0.0
C3005 C 0.3583 0.77994 0.32747 0.0
C3006 C 0.39507 0.77075 0.35382 0.0
C3007 C 0.3806 0.78773 0.32227 0.0
C3008 C 0.43737 0.77636 0.36354 0.0
C3009 C 0.42914 0.74938 0.39948 0.0
N3010 N 0.39806 0.78313 0.33535 0.0
N3011 N 0.41179 0.75305 0.38546 0.0
H3012 H 0.07168 0.73858 0.09783 0.0
H3013 H 0.07692 0.6102 0.01349 0.0
H3014 H 0.11042 0.73993 0.03775 0.0
H3015 H 0.07083 0.6195 0.08952 0.0
H3016 H 0.08423 0.65601 0.01767 0.0
H3017 H 0.0642 0.69297 0.08977 0.0
C3018 C 0.07838 0.72934 0.08271 0.0
C3019 C 0.0919 0.74336 0.06863 0.0
C3020 C 0.08147 0.64795 0.03342 0.0
C3021 C 0.08343 0.69071 0.05936 0.0
C3022 C 0.07754 0.62184 0.03112 0.0
C3023 C 0.07367 0.61095 0.05132 0.0
C3024 C 0.08072 0.6631 0.05589 0.0
C3025 C 0.07392 0.62699 0.07351 0.0
C3026 C 0.07424 0.70323 0.07824 0.0
C3027 C 0.10002 0.73001 0.04922 0.0
N3028 N 0.07713 0.65205 0.07513 0.0
N3029 N 0.09572 0.70447 0.04518 0.0
H3030 H 0.09077 0.32907 0.89973 0.0
H3031 H 0.16249 0.2555 0.81859 0.0
H3032 H 0.07652 0.24851 0.88881 0.0
H3033 H 0.18549 0.33388 0.85256 0.0
H3034 H 0.13152 0.25086 0.84389 0.0
H3035 H 0.12508 0.32998 0.88121 0.0
C3036 C 0.09482 0.31148 0.89345 0.0
C3037 C 0.08053 0.28867 0.89583 0.0
C3038 C 0.14366 0.26893 0.8462 0.0
C3039 C 0.12034 0.28962 0.87437 0.0
C3040 C 0.16142 0.27152 0.83192 0.0
C3041 C 0.17658 0.29511 0.8336 0.0
C3042 C 0.14091 0.2902 0.86188 0.0
C3043 C 0.17421 0.31538 0.85077 0.0
C3044 C 0.11461 0.31205 0.88296 0.0
C3045 C 0.0869 0.26654 0.88723 0.0
N3046 N 0.1566 0.31254 0.86396 0.0
N3047 N 0.10626 0.26753 0.87672 0.0
H3048 H 0.62946 0.77081 0.92403 0.0
H3049 H 0.57061 0.72737 0.03152 0.0
H3050 H 0.57415 0.79641 0.95243 0.0
H3051 H 0.57142 0.66798 0.97144 0.0
H3052 H 0.58736 0.75804 0.00841 0.0
H3053 H 0.62074 0.73603 0.94572 0.0
C3054 C 0.6155 0.76905 0.93463 0.0
C3055 C 0.60273 0.78672 0.93685 0.0
C3056 C 0.5842 0.73822 1.00057 0.0
C3057 C 0.59337 0.74815 0.96165 0.0
C3058 C 0.57449 0.72081 0.01359 0.0
C3059 C 0.56913 0.69522 0.00315 0.0
C3060 C 0.58855 0.72999 0.97703 0.0
C3061 C 0.57519 0.68764 0.98007 0.0
C3062 C 0.61063 0.74936 0.94688 0.0
C3063 C 0.58464 0.78349 0.95044 0.0
N3064 N 0.58435 0.70507 0.96748 0.0
N3065 N 0.58075 0.76483 0.96263 0.0
H3066 H 0.06189 0.74216 0.72937 0.0
H3067 H 0.18429 0.7753 0.72366 0.0
H3068 H 0.0745 0.76118 0.66056 0.0
H3069 H 0.14921 0.70087 0.73037 0.0
H3070 H 0.14996 0.77848 0.70121 0.0
H3071 H 0.10044 0.73892 0.73587 0.0
C3072 C 0.07293 0.746 0.7158 0.0
C3073 C 0.06507 0.75131 0.69419 0.0
C3074 C 0.15021 0.76111 0.70672 0.0
C3075 C 0.10862 0.74718 0.7013 0.0
C3076 C 0.16968 0.75922 0.71953 0.0
C3077 C 0.16914 0.73808 0.72958 0.0
C3078 C 0.13043 0.7419 0.70449 0.0
C3079 C 0.14995 0.71778 0.72362 0.0
C3080 C 0.09471 0.74391 0.7194 0.0
C3081 C 0.08012 0.75677 0.67736 0.0
N3082 N 0.13101 0.72048 0.71202 0.0
N3083 N 0.10143 0.75427 0.68112 0.0
H3084 H 0.12439 0.41506 0.39252 0.0
H3085 H 0.11804 0.50965 0.51067 0.0
H3086 H 0.15905 0.41999 0.46269 0.0
H3087 H 0.07325 0.49348 0.44396 0.0
H3088 H 0.14237 0.48742 0.48984 0.0
H3089 H 0.11723 0.45572 0.407 0.0
C3090 C 0.13175 0.42554 0.41056 0.0
C3091 C 0.14204 0.41435 0.42669 0.0
C3092 C 0.12733 0.48891 0.47969 0.0
C3093 C 0.1332 0.45987 0.44353 0.0
C3094 C 0.11314 0.50121 0.49166 0.0
C3095 C 0.09312 0.50267 0.4792 0.0
C3096 C 0.12143 0.4778 0.45509 0.0
C3097 C 0.08828 0.49232 0.45436 0.0
C3098 C 0.1273 0.44849 0.41894 0.0
C3099 C 0.15094 0.42818 0.4499 0.0
N3100 N 0.10222 0.47997 0.44315 0.0
N3101 N 0.14577 0.45007 0.45792 0.0
H3102 H 0.44675 0.2342 0.23703 0.0
H3103 H 0.3486 0.28902 0.20456 0.0
H3104 H 0.45771 0.29339 0.19692 0.0
H3105 H 0.36011 0.27532 0.2761 0.0
H3106 H 0.38737 0.2877 0.19863 0.0
H3107 H 0.41291 0.24549 0.24936 0.0
C3108 C 0.44242 0.25 0.2314 0.0
C3109 C 0.45501 0.26299 0.21604 0.0
C3110 C 0.38145 0.2855 0.21576 0.0
C3111 C 0.41655 0.27557 0.22973 0.0
C3112 C 0.35953 0.28617 0.21906 0.0
C3113 C 0.3517 0.28263 0.24088 0.0
C3114 C 0.39492 0.28025 0.23411 0.0
C3115 C 0.36596 0.27853 0.25918 0.0
C3116 C 0.42316 0.25636 0.23839 0.0
C3117 C 0.44839 0.28292 0.20877 0.0
N3118 N 0.38696 0.27706 0.25525 0.0
N3119 N 0.4293 0.28841 0.21542 0.0
H3120 H 0.65752 0.49591 0.35164 0.0
H3121 H 0.56387 0.53686 0.43363 0.0
H3122 H 0.61048 0.5358 0.33047 0.0
H3123 H 0.619 0.51421 0.46542 0.0
H3124 H 0.57946 0.53264 0.39496 0.0
H3125 H 0.64271 0.4978 0.39134 0.0
C3126 C 0.64411 0.50493 0.35498 0.0
C3127 C 0.63554 0.51563 0.3368 0.0
C3128 C 0.5882 0.5283 0.4102 0.0
C3129 C 0.61821 0.51803 0.38329 0.0
C3130 C 0.57913 0.53065 0.43254 0.0
C3131 C 0.58981 0.52584 0.45339 0.0
C3132 C 0.60817 0.5204 0.40771 0.0
C3133 C 0.60995 0.51827 0.45023 0.0
C3134 C 0.63565 0.50614 0.37796 0.0
C3135 C 0.61801 0.52707 0.34318 0.0
N3136 N 0.61821 0.51561 0.42813 0.0
N3137 N 0.61019 0.52788 0.36527 0.0
H3138 H 0.33074 0.93061 0.07813 0.0
H3139 H 0.32533 0.81039 0.13212 0.0
H3140 H 0.34608 0.86257 0.04398 0.0
H3141 H 0.35119 0.88601 0.17368 0.0
H3142 H 0.31079 0.82673 0.09887 0.0
H3143 H 0.31843 0.91087 0.11164 0.0
C3144 C 0.33097 0.91132 0.07755 0.0
C3145 C 0.3396 0.89805 0.05881 0.0
C3146 C 0.31893 0.83961 0.11563 0.0
C3147 C 0.3249 0.87551 0.09585 0.0
C3148 C 0.32735 0.83039 0.13431 0.0
C3149 C 0.34017 0.84722 0.1547 0.0
C3150 C 0.32379 0.86563 0.11766 0.0
C3151 C 0.34203 0.87281 0.15752 0.0
C3152 C 0.32378 0.90012 0.09637 0.0
C3153 C 0.3398 0.87331 0.05849 0.0
N3154 N 0.33432 0.88146 0.13877 0.0
N3155 N 0.33262 0.86277 0.07696 0.0
H3156 H 0.93973 0.57117 0.8895 0.0
H3157 H 0.0393 0.52198 0.94157 0.0
H3158 H 0.9432 0.49428 0.87204 0.0
H3159 H 0.02629 0.59113 0.97604 0.0
H3160 H 0.00724 0.51513 0.91075 0.0
H3161 H 0.97215 0.58069 0.92038 0.0
C3162 C 0.94673 0.55608 0.89294 0.0
C3163 C 0.93934 0.53214 0.8779 0.0
C3164 C 0.0117 0.5321 0.92474 0.0
C3165 C 0.97652 0.54298 0.91209 0.0
C3166 C 0.03026 0.53629 0.94181 0.0
C3167 C 0.03513 0.55717 0.96085 0.0
C3168 C 0.99817 0.54894 0.92718 0.0
C3169 C 0.02286 0.57496 0.96121 0.0
C3170 C 0.96547 0.56162 0.91013 0.0
C3171 C 0.94868 0.51311 0.88305 0.0
N3172 N 0.00453 0.57027 0.94469 0.0
N3173 N 0.96734 0.51912 0.89936 0.0
H3174 H 0.31473 0.21225 0.58679 0.0
H3175 H 0.30812 0.30631 0.70871 0.0
H3176 H 0.30187 0.28413 0.58604 0.0
H3177 H 0.29994 0.2269 0.70171 0.0
H3178 H 0.30853 0.30084 0.6647 0.0
H3179 H 0.31448 0.22027 0.63045 0.0
C3180 C 0.31232 0.22996 0.59585 0.0
C3181 C 0.30819 0.24747 0.58269 0.0
C3182 C 0.30638 0.28461 0.67283 0.0
C3183 C 0.30747 0.25662 0.63274 0.0
C3184 C 0.3059 0.28769 0.69785 0.0
C3185 C 0.30393 0.26697 0.70875 0.0
C3186 C 0.30526 0.26076 0.65892 0.0
C3187 C 0.30152 0.24333 0.69397 0.0
C3188 C 0.31187 0.2344 0.62077 0.0
C3189 C 0.30498 0.27003 0.59548 0.0
N3190 N 0.30246 0.24092 0.66992 0.0
N3191 N 0.30459 0.27394 0.6198 0.0
H3192 H 0.66133 0.54961 0.19581 0.0
H3193 H 0.56101 0.50806 0.08241 0.0
H3194 H 0.60768 0.48233 0.18774 0.0
H3195 H 0.62513 0.56022 0.0833 0.0
H3196 H 0.57514 0.50014 0.12156 0.0
H3197 H 0.64639 0.55549 0.15654 0.0
C3198 C 0.64687 0.53542 0.18544 0.0
C3199 C 0.63673 0.51466 0.19521 0.0
C3200 C 0.58599 0.51379 0.11352 0.0
C3201 C 0.61824 0.52216 0.14939 0.0
C3202 C 0.57774 0.51863 0.09112 0.0
C3203 C 0.59134 0.53588 0.07948 0.0
C3204 C 0.60814 0.52642 0.12507 0.0
C3205 C 0.61342 0.54764 0.09158 0.0
C3206 C 0.63805 0.53904 0.1629 0.0
C3207 C 0.61692 0.49809 0.18099 0.0
N3208 N 0.62082 0.54302 0.11337 0.0
N3209 N 0.60849 0.50214 0.15916 0.0
H3210 H 0.37298 0.92641 0.93991 0.0
H3211 H 0.31074 0.79354 0.86348 0.0
H3212 H 0.32357 0.87303 0.96674 0.0
H3213 H 0.36929 0.84213 0.8441 0.0
H3214 H 0.32007 0.8178 0.90485 0.0
H3215 H 0.37627 0.89266 0.90759 0.0
C3216 C 0.36315 0.90736 0.93905 0.0
C3217 C 0.34773 0.90212 0.95527 0.0
C3218 C 0.33117 0.8228 0.89165 0.0
C3219 C 0.35142 0.86365 0.91908 0.0
C3220 C 0.32573 0.809 0.86799 0.0
C3221 C 0.33845 0.81686 0.85017 0.0
C3222 C 0.34945 0.84437 0.89716 0.0
C3223 C 0.35839 0.83624 0.85717 0.0
C3224 C 0.36508 0.8881 0.92084 0.0
C3225 C 0.33526 0.87748 0.95392 0.0
N3226 N 0.36301 0.84978 0.88008 0.0
N3227 N 0.33718 0.85901 0.93583 0.0
H3228 H 0.96289 0.49878 0.73956 0.0
H3229 H 0.96814 0.5159 0.62746 0.0
H3230 H 0.96314 0.57694 0.75894 0.0
H3231 H 0.03325 0.55335 0.66853 0.0
H3232 H 0.95013 0.52948 0.66274 0.0
H3233 H 0.97275 0.50512 0.69998 0.0
C3234 C 0.96495 0.51721 0.73548 0.0
C3235 C 0.96248 0.53743 0.75253 0.0
C3236 C 0.9683 0.53582 0.66349 0.0
C3237 C 0.97315 0.54446 0.70757 0.0
C3238 C 0.9785 0.52796 0.64361 0.0
C3239 C 0.00199 0.53313 0.64575 0.0
C3240 C 0.98191 0.5483 0.68531 0.0
C3241 C 0.015 0.54884 0.66667 0.0
C3242 C 0.97026 0.52068 0.71294 0.0
C3243 C 0.96532 0.56099 0.74633 0.0
N3244 N 0.00472 0.55531 0.68616 0.0
N3245 N 0.9709 0.56404 0.72425 0.0
H3246 H 0.29301 0.27314 0.45491 0.0
H3247 H 0.32312 0.23454 0.32277 0.0
H3248 H 0.32606 0.21389 0.43754 0.0
H3249 H 0.31116 0.30582 0.35284 0.0
H3250 H 0.32441 0.22519 0.36347 0.0
H3251 H 0.29912 0.28383 0.41632 0.0
C3252 C 0.30184 0.2625 0.44308 0.0
C3253 C 0.30899 0.24251 0.44953 0.0
C3254 C 0.32188 0.243 0.36107 0.0
C3255 C 0.31607 0.25479 0.40481 0.0
C3256 C 0.32105 0.2483 0.33793 0.0
C3257 C 0.3171 0.27102 0.33446 0.0
C3258 C 0.31831 0.26041 0.38056 0.0
C3259 C 0.31458 0.28823 0.35463 0.0
C3260 C 0.30538 0.2687 0.42095 0.0
C3261 C 0.32029 0.22945 0.43326 0.0
N3262 N 0.31502 0.28246 0.37668 0.0
N3263 N 0.32331 0.23566 0.41143 0.0
H3264 H 0.33833 0.61493 0.48419 0.0
H3265 H 0.41509 0.53907 0.53287 0.0
H3266 H 0.34166 0.60763 0.55855 0.0
H3267 H 0.42714 0.57289 0.47141 0.0
H3268 H 0.39028 0.56617 0.54498 0.0
H3269 H 0.37291 0.60202 0.48087 0.0
C3270 C 0.34653 0.61072 0.49988 0.0
C3271 C 0.33709 0.61179 0.52149 0.0
C3272 C 0.39869 0.56796 0.52911 0.0
C3273 C 0.37648 0.59677 0.51786 0.0
C3274 C 0.41255 0.55241 0.52214 0.0
C3275 C 0.42221 0.5534 0.50074 0.0
C3276 C 0.39468 0.58432 0.51442 0.0
C3277 C 0.4192 0.57119 0.48758 0.0
C3278 C 0.36637 0.60357 0.49808 0.0
C3279 C 0.34847 0.60669 0.5415 0.0
N3280 N 0.40541 0.58581 0.49448 0.0
N3281 N 0.36746 0.59879 0.53906 0.0
H3282 H 0.88724 0.95467 0.5761 0.0
H3283 H 0.99546 0.97253 0.50827 0.0
H3284 H 0.88977 0.91622 0.50372 0.0
H3285 H 0.99029 0.03238 0.56568 0.0
H3286 H 0.95695 0.95077 0.50968 0.0
H3287 H 0.92434 0.98383 0.57513 0.0
C3288 C 0.89537 0.95282 0.55988 0.0
C3289 C 0.8858 0.93301 0.54003 0.0
C3290 C 0.96405 0.96876 0.52192 0.0
C3291 C 0.92774 0.96551 0.53893 0.0
C3292 C 0.98626 0.98127 0.52123 0.0
C3293 C 0.99623 1.00469 0.53661 0.0
C3294 C 0.95143 0.97932 0.53838 0.0
C3295 C 0.98324 0.01456 0.55325 0.0
C3296 C 0.91647 0.96929 0.55936 0.0
C3297 C 0.89684 0.93112 0.51947 0.0
N3298 N 0.96142 1.00176 0.55377 0.0
N3299 N 0.91726 0.94696 0.51954 0.0
H3300 H 0.91513 0.15002 0.24963 0.0
H3301 H 0.83383 0.23824 0.30189 0.0
H3302 H 0.88177 0.14194 0.31264 0.0
H3303 H 0.86126 0.24101 0.23479 0.0
H3304 H 0.85164 0.20413 0.3067 0.0
H3305 H 0.89701 0.18389 0.24464 0.0
C3306 C 0.9041 0.15511 0.26249 0.0
C3307 C 0.90035 0.14229 0.28166 0.0
C3308 C 0.85379 0.21211 0.29084 0.0
C3309 C 0.87895 0.18219 0.27591 0.0
C3310 C 0.84336 0.23173 0.288 0.0
C3311 C 0.84542 0.24292 0.26763 0.0
C3312 C 0.86701 0.20331 0.27348 0.0
C3313 C 0.8587 0.23331 0.25076 0.0
C3314 C 0.8936 0.1747 0.25959 0.0
C3315 C 0.88559 0.15065 0.29748 0.0
N3316 N 0.86878 0.21458 0.25405 0.0
N3317 N 0.87573 0.16958 0.2943 0.0
H3318 H 0.72241 0.05363 0.04251 0.0
H3319 H 0.6269 0.11392 0.01202 0.0
H3320 H 0.7265 0.09737 0.98755 0.0
H3321 H 0.60872 0.03515 0.01238 0.0
H3322 H 0.66667 0.1129 0.01407 0.0
H3323 H 0.68134 0.04689 0.03773 0.0
C3324 C 0.71453 0.06063 0.02852 0.0
C3325 C 0.72773 0.07689 0.01612 0.0
C3326 C 0.65369 0.09596 0.01403 0.0
C3327 C 0.68185 0.07092 0.01194 0.0
C3328 C 0.63122 0.09663 0.01333 0.0
C3329 C 0.61433 0.07459 0.01227 0.0
C3330 C 0.65897 0.07304 0.01365 0.0
C3331 C 0.62071 0.05253 0.01332 0.0
C3332 C 0.69131 0.05745 0.02635 0.0
C3333 C 0.71685 0.08537 0.99802 0.0
N3334 N 0.64256 0.05225 0.01403 0.0
N3335 N 0.6945 0.08348 0.99735 0.0
H3336 H 0.26342 0.50898 0.20728 0.0
H3337 H 0.25092 0.40542 0.2866 0.0
H3338 H 0.19945 0.46279 0.21836 0.0
H3339 H 0.31461 0.45218 0.27622 0.0
H3340 H 0.23178 0.42148 0.2561 0.0
H3341 H 0.28254 0.48238 0.22524 0.0
C3342 C 0.25332 0.49281 0.21282 0.0
C3343 C 0.22985 0.48848 0.21193 0.0
C3344 C 0.24997 0.42803 0.26024 0.0
C3345 C 0.25162 0.45834 0.23289 0.0
C3346 C 0.26076 0.419 0.27767 0.0
C3347 C 0.28411 0.42792 0.28385 0.0
C3348 C 0.26277 0.44597 0.249 0.0
C3349 C 0.29644 0.44529 0.27195 0.0
C3350 C 0.26428 0.47775 0.22328 0.0
C3351 C 0.21763 0.4671 0.21913 0.0
N3352 N 0.28558 0.45393 0.25511 0.0
N3353 N 0.22872 0.45312 0.22983 0.0
H3354 H 0.28336 0.44578 0.99042 0.0
H3355 H 0.16581 0.46275 0.02127 0.0
H3356 H 0.25625 0.41604 0.05001 0.0
H3357 H 0.21547 0.51841 0.99714 0.0
H3358 H 0.19547 0.44217 0.03081 0.0
H3359 H 0.25441 0.46809 0.98932 0.0
C3360 C 0.27135 0.44399 0.00336 0.0
C3361 C 0.27237 0.4292 0.02044 0.0
C3362 C 0.19981 0.45916 0.02387 0.0
C3363 C 0.23907 0.45484 0.01928 0.0
C3364 C 0.18302 0.47089 0.0185 0.0
C3365 C 0.18828 0.49193 0.00795 0.0
C3366 C 0.22168 0.46861 0.01835 0.0
C3367 C 0.21069 0.50186 0.0047 0.0
C3368 C 0.25489 0.45686 0.00281 0.0
C3369 C 0.25613 0.42744 0.03663 0.0
N3370 N 0.22648 0.4899 0.00953 0.0
N3371 N 0.23995 0.44006 0.0356 0.0
H3372 H 0.92715 0.98863 0.29277 0.0
H3373 H 0.81331 0.87702 0.24489 0.0
H3374 H 0.87658 0.99669 0.24045 0.0
H3375 H 0.87411 0.86887 0.28143 0.0
H3376 H 0.83294 0.92108 0.24544 0.0
H3377 H 0.90457 0.94643 0.29236 0.0
C3378 C 0.91105 0.98168 0.28137 0.0
C3379 C 0.90392 0.99672 0.26677 0.0
C3380 C 0.84192 0.90964 0.25341 0.0
C3381 C 0.87757 0.94702 0.26578 0.0
C3382 C 0.83065 0.88434 0.25319 0.0
C3383 C 0.84171 0.86875 0.26346 0.0
C3384 C 0.86449 0.91986 0.26427 0.0
C3385 C 0.86446 0.87971 0.27349 0.0
C3386 C 0.89815 0.95728 0.28101 0.0
C3387 C 0.88278 0.98619 0.25234 0.0
N3388 N 0.87482 0.90426 0.27378 0.0
N3389 N 0.87046 0.96206 0.25212 0.0
H3390 H 0.69951 0.12689 0.71754 0.0
H3391 H 0.81469 0.22374 0.78301 0.0
H3392 H 0.76022 0.10417 0.73203 0.0
H3393 H 0.74986 0.23957 0.77635 0.0
H3394 H 0.79744 0.18103 0.75903 0.0
H3395 H 0.72112 0.17061 0.72983 0.0
C3396 C 0.71758 0.13124 0.72264 0.0
C3397 C 0.72815 0.11223 0.72439 0.0
C3398 C 0.78701 0.19383 0.76299 0.0
C3399 C 0.75262 0.16175 0.73969 0.0
C3400 C 0.79677 0.21792 0.77679 0.0
C3401 C 0.78352 0.23475 0.78116 0.0
C3402 C 0.76399 0.18699 0.75385 0.0
C3403 C 0.76047 0.22685 0.77304 0.0
C3404 C 0.72987 0.15611 0.72995 0.0
C3405 C 0.75156 0.11854 0.73077 0.0
N3406 N 0.75141 0.2035 0.75958 0.0
N3407 N 0.76305 0.14297 0.73892 0.0
loop_
_geom_bond_atom_site_label_1
_geom_bond_atom_site_label_2
_geom_bond_distance
_geom_bond_site_symmetry_2
_ccdc_geom_bond_type
Zn0 O3 2.031 . S
Zn0 O5 2.049 . S
Zn0 O10 2.067 . S
Zn1 O2 1.962 . S
Zn1 O4 1.986 . S
Zn1 O6 1.996 . S
Zn1 O9 1.943 . S
O2 Zn1 1.962 . S
O2 C7 1.254 . S
O3 Zn0 2.031 . S
O3 C7 1.269 . S
O4 Zn1 1.986 . S
O4 C11 1.262 . S
O5 Zn0 2.049 . S
O5 C13 1.260 . S
O6 Zn1 1.996 . S
O6 C13 1.257 . S
C7 O2 1.254 . S
C7 O3 1.269 . S
C8 O9 1.249 . S
C8 O10 1.270 . S
O9 Zn1 1.943 . S
O9 C8 1.249 . S
O10 Zn0 2.067 . S
O10 C8 1.270 . S
C11 O4 1.262 . S
C11 O12 1.232 . S
O12 C11 1.232 . S
C13 O5 1.260 . S
C13 O6 1.257 . S
Zn14 O17 2.031 1_455 S
Zn14 O19 2.049 . S
Zn14 O24 2.067 . S
Zn15 O16 1.932 1_455 S
Zn15 O18 1.998 . S
Zn15 O20 2.020 . S
Zn15 O23 1.949 1_455 S
O16 Zn15 1.932 1_655 S
O16 C21 1.254 . S
O17 Zn14 2.031 1_655 S
O17 C21 1.269 . S
O18 Zn15 1.998 . S
O18 C25 1.262 . S
O19 Zn14 2.049 . S
O19 C27 1.260 . S
O20 Zn15 2.020 . S
O20 C27 1.257 . S
C21 O16 1.254 . S
C21 O17 1.269 . S
C22 O23 1.249 . S
C22 O24 1.270 1_655 S
O23 Zn15 1.949 1_655 S
O23 C22 1.249 . S
O24 Zn14 2.067 . S
O24 C22 1.270 1_455 S
C25 O18 1.262 . S
C25 O26 1.232 1_455 S
O26 C25 1.232 1_655 S
C27 O19 1.260 . S
C27 O20 1.257 . S
Zn28 O31 2.031 . S
Zn28 O33 2.049 . S
Zn28 O38 2.067 . S
Zn29 O30 1.962 . S
Zn29 O32 1.986 . S
Zn29 O34 1.996 . S
Zn29 O37 1.943 . S
O30 Zn29 1.962 . S
O30 C35 1.254 . S
O31 Zn28 2.031 . S
O31 C35 1.269 . S
O32 Zn29 1.986 . S
O32 C39 1.262 . S
O33 Zn28 2.049 . S
O33 C41 1.260 . S
O34 Zn29 1.996 . S
O34 C41 1.257 . S
C35 O30 1.254 . S
C35 O31 1.269 . S
C36 O37 1.249 . S
C36 O38 1.270 . S
O37 Zn29 1.943 . S
O37 C36 1.249 . S
O38 Zn28 2.067 . S
O38 C36 1.270 . S
C39 O32 1.262 . S
C39 O40 1.232 . S
O40 C39 1.232 . S
C41 O33 1.260 . S
C41 O34 1.257 . S
Zn42 O45 2.031 . S
Zn42 O47 2.049 . S
Zn42 O52 2.067 . S
Zn43 O44 1.962 . S
Zn43 O46 1.986 . S
Zn43 O48 1.996 . S
Zn43 O51 1.943 . S
O44 Zn43 1.962 . S
O44 C49 1.254 . S
O45 Zn42 2.031 . S
O45 C49 1.269 . S
O46 Zn43 1.986 . S
O46 C53 1.262 . S
O47 Zn42 2.049 . S
O47 C55 1.260 . S
O48 Zn43 1.996 . S
O48 C55 1.257 . S
C49 O44 1.254 . S
C49 O45 1.269 . S
C50 O51 1.249 . S
C50 O52 1.270 . S
O51 Zn43 1.943 . S
O51 C50 1.249 . S
O52 Zn42 2.067 . S
O52 C50 1.270 . S
C53 O46 1.262 . S
C53 O54 1.232 . S
O54 C53 1.232 . S
C55 O47 1.260 . S
C55 O48 1.257 . S
Zn56 O59 2.031 . S
Zn56 O61 2.049 . S
Zn56 O66 2.067 . S
Zn57 O58 1.962 . S
Zn57 O60 1.986 . S
Zn57 O62 1.996 . S
Zn57 O65 1.943 . S
O58 Zn57 1.962 . S
O58 C63 1.254 . S
O59 Zn56 2.031 . S
O59 C63 1.269 . S
O60 Zn57 1.986 . S
O60 C67 1.262 . S
O61 Zn56 2.049 . S
O61 C69 1.260 . S
O62 Zn57 1.996 . S
O62 C69 1.257 . S
C63 O58 1.254 . S
C63 O59 1.269 . S
C64 O65 1.249 . S
C64 O66 1.270 . S
O65 Zn57 1.943 . S
O65 C64 1.249 . S
O66 Zn56 2.067 . S
O66 C64 1.270 . S
C67 O60 1.262 . S
C67 O68 1.232 . S
O68 C67 1.232 . S
C69 O61 1.260 . S
C69 O62 1.257 . S
Zn70 O73 2.031 . S
Zn70 O75 2.049 . S
Zn70 O80 2.067 . S
Zn71 O72 1.962 . S
Zn71 O74 1.986 . S
Zn71 O76 1.996 . S
Zn71 O79 1.943 . S
O72 Zn71 1.962 . S
O72 C77 1.254 . S
O73 Zn70 2.031 . S
O73 C77 1.269 . S
O74 Zn71 1.986 . S
O74 C81 1.262 . S
O75 Zn70 2.049 . S
O75 C83 1.260 . S
O76 Zn71 1.996 . S
O76 C83 1.257 . S
C77 O72 1.254 . S
C77 O73 1.269 . S
C78 O79 1.249 . S
C78 O80 1.270 . S
O79 Zn71 1.943 . S
O79 C78 1.249 . S
O80 Zn70 2.067 . S
O80 C78 1.270 . S
C81 O74 1.262 . S
C81 O82 1.232 . S
O82 C81 1.232 . S
C83 O75 1.260 . S
C83 O76 1.257 . S
Zn84 O87 2.031 . S
Zn84 O89 2.049 . S
Zn84 O94 2.067 . S
Zn85 O86 1.962 . S
Zn85 O88 1.986 . S
Zn85 O90 1.996 . S
Zn85 O93 1.943 . S
O86 Zn85 1.962 . S
O86 C91 1.254 . S
O87 Zn84 2.031 . S
O87 C91 1.269 . S
O88 Zn85 1.986 . S
O88 C95 1.262 . S
O89 Zn84 2.049 . S
O89 C97 1.260 . S
O90 Zn85 1.996 . S
O90 C97 1.257 . S
C91 O86 1.254 . S
C91 O87 1.269 . S
C92 O93 1.249 . S
C92 O94 1.270 . S
O93 Zn85 1.943 . S
O93 C92 1.249 . S
O94 Zn84 2.067 . S
O94 C92 1.270 . S
C95 O88 1.262 . S
C95 O96 1.232 . S
O96 C95 1.232 . S
C97 O89 1.260 . S
C97 O90 1.257 . S
Zn98 O101 2.031 1_655 S
Zn98 O103 2.049 . S
Zn98 O108 2.067 . S
Zn99 O100 1.962 . S
Zn99 O102 1.986 . S
Zn99 O104 1.996 . S
Zn99 O107 1.943 . S
O100 Zn99 1.962 . S
O100 C105 1.254 . S
O101 Zn98 2.031 1_455 S
O101 C105 1.269 . S
O102 Zn99 1.986 . S
O102 C109 1.262 . S
O103 Zn98 2.049 . S
O103 C111 1.260 1_655 S
O104 Zn99 1.996 . S
O104 C111 1.257 . S
C105 O100 1.254 . S
C105 O101 1.269 . S
C106 O107 1.249 1_655 S
C106 O108 1.270 . S
O107 Zn99 1.943 . S
O107 C106 1.249 1_455 S
O108 Zn98 2.067 . S
O108 C106 1.270 . S
C109 O102 1.262 . S
C109 O110 1.232 . S
O110 C109 1.232 . S
C111 O103 1.260 1_455 S
C111 O104 1.257 . S
Zn112 O115 2.031 1_565 S
Zn112 O117 2.049 . S
Zn112 O122 2.067 . S
Zn113 O114 1.962 . S
Zn113 O116 1.986 . S
Zn113 O118 1.996 . S
Zn113 O121 1.915 1_545 S
O114 Zn113 1.962 . S
O114 C119 1.254 . S
O115 Zn112 2.031 1_545 S
O115 C119 1.269 . S
O116 Zn113 1.986 . S
O116 C123 1.262 . S
O117 Zn112 2.049 . S
O117 C125 1.260 1_565 S
O118 Zn113 1.996 . S
O118 C125 1.257 . S
C119 O114 1.254 . S
C119 O115 1.269 . S
C120 O121 1.287 . S
C120 O122 1.270 . S
O121 Zn113 1.915 1_565 S
O121 C120 1.287 . S
O122 Zn112 2.067 . S
O122 C120 1.270 . S
C123 O116 1.262 . S
C123 O124 1.232 . S
O124 C123 1.232 . S
C125 O117 1.260 1_545 S
C125 O118 1.257 . S
Zn126 O129 2.031 . S
Zn126 O131 2.049 . S
Zn126 O136 2.067 . S
Zn127 O128 1.962 . S
Zn127 O130 1.986 . S
Zn127 O132 1.996 . S
Zn127 O135 1.943 . S
O128 Zn127 1.962 . S
O128 C133 1.254 . S
O129 Zn126 2.031 . S
O129 C133 1.269 . S
O130 Zn127 1.986 . S
O130 C137 1.262 . S
O131 Zn126 2.049 . S
O131 C139 1.260 . S
O132 Zn127 1.996 . S
O132 C139 1.257 . S
C133 O128 1.254 . S
C133 O129 1.269 . S
C134 O135 1.249 . S
C134 O136 1.270 . S
O135 Zn127 1.943 . S
O135 C134 1.249 . S
O136 Zn126 2.067 . S
O136 C134 1.270 . S
C137 O130 1.262 . S
C137 O138 1.232 . S
O138 C137 1.232 . S
C139 O131 1.260 . S
C139 O132 1.257 . S
Zn140 O143 2.031 . S
Zn140 O145 2.049 . S
Zn140 O150 2.067 . S
Zn141 O142 1.962 . S
Zn141 O144 1.986 . S
Zn141 O146 1.996 . S
Zn141 O149 1.943 1_565 S
O142 Zn141 1.962 . S
O142 C147 1.254 1_565 S
O143 Zn140 2.031 . S
O143 C147 1.269 . S
O144 Zn141 1.986 . S
O144 C151 1.262 . S
O145 Zn140 2.049 . S
O145 C153 1.260 1_545 S
O146 Zn141 1.996 . S
O146 C153 1.257 . S
C147 O142 1.254 1_545 S
C147 O143 1.269 . S
C148 O149 1.249 . S
C148 O150 1.270 . S
O149 Zn141 1.943 1_545 S
O149 C148 1.249 . S
O150 Zn140 2.067 . S
O150 C148 1.270 . S
C151 O144 1.262 . S
C151 O152 1.232 . S
O152 C151 1.232 . S
C153 O145 1.260 1_565 S
C153 O146 1.257 . S
Zn154 O157 2.031 1_554 S
Zn154 O159 2.049 . S
Zn154 O164 2.067 . S
Zn155 O156 1.962 1_554 S
Zn155 O158 1.986 . S
Zn155 O160 1.996 . S
Zn155 O163 1.943 . S
O156 Zn155 1.962 1_556 S
O156 C161 1.254 . S
O157 Zn154 2.031 1_556 S
O157 C161 1.269 . S
O158 Zn155 1.986 . S
O158 C165 1.262 . S
O159 Zn154 2.049 . S
O159 C167 1.260 . S
O160 Zn155 1.996 . S
O160 C167 1.257 . S
C161 O156 1.254 . S
C161 O157 1.269 . S
C162 O163 1.249 . S
C162 O164 1.270 . S
O163 Zn155 1.943 . S
O163 C162 1.249 . S
O164 Zn154 2.067 . S
O164 C162 1.270 . S
C165 O158 1.262 . S
C165 O166 1.232 1_554 S
O166 C165 1.232 1_556 S
C167 O159 1.260 . S
C167 O160 1.257 . S
Zn168 O171 2.031 . S
Zn168 O173 2.049 . S
Zn168 O178 2.067 . S
Zn169 O170 1.962 . S
Zn169 O172 1.986 . S
Zn169 O174 1.996 . S
Zn169 O177 1.943 . S
O170 Zn169 1.962 . S
O170 C175 1.254 1_554 S
O171 Zn168 2.031 . S
O171 C175 1.269 1_554 S
O172 Zn169 1.986 . S
O172 C179 1.262 . S
O173 Zn168 2.049 . S
O173 C181 1.260 . S
O174 Zn169 1.996 . S
O174 C181 1.257 . S
C175 O170 1.254 1_556 S
C175 O171 1.269 1_556 S
C176 O177 1.249 . S
C176 O178 1.270 . S
O177 Zn169 1.943 . S
O177 C176 1.249 . S
O178 Zn168 2.067 . S
O178 C176 1.270 . S
C179 O172 1.262 . S
C179 O180 1.232 . S
O180 C179 1.232 . S
C181 O173 1.260 . S
C181 O174 1.257 . S
Zn182 O185 2.031 . S
Zn182 O187 2.049 . S
Zn182 O192 2.067 . S
Zn183 O184 1.962 . S
Zn183 O186 1.986 . S
Zn183 O188 1.996 . S
Zn183 O191 1.943 . S
O184 Zn183 1.962 . S
O184 C189 1.254 1_554 S
O185 Zn182 2.031 . S
O185 C189 1.269 1_554 S
O186 Zn183 1.986 . S
O186 C193 1.262 . S
O187 Zn182 2.049 . S
O187 C195 1.260 . S
O188 Zn183 1.996 . S
O188 C195 1.257 . S
C189 O184 1.254 1_556 S
C189 O185 1.269 1_556 S
C190 O191 1.249 . S
C190 O192 1.270 . S
O191 Zn183 1.943 . S
O191 C190 1.249 . S
O192 Zn182 2.067 . S
O192 C190 1.270 . S
C193 O186 1.262 . S
C193 O194 1.232 . S
O194 C193 1.232 . S
C195 O187 1.260 . S
C195 O188 1.257 . S
Zn196 O199 2.031 . S
Zn196 O201 2.049 . S
Zn196 O206 2.067 . S
Zn197 O198 1.962 . S
Zn197 O200 1.986 . S
Zn197 O202 1.996 . S
Zn197 O205 1.943 . S
O198 Zn197 1.962 . S
O198 C203 1.254 . S
O199 Zn196 2.031 . S
O199 C203 1.269 . S
O200 Zn197 1.986 . S
O200 C207 1.262 . S
O201 Zn196 2.049 . S
O201 C209 1.260 . S
O202 Zn197 1.996 . S
O202 C209 1.257 . S
C203 O198 1.254 . S
C203 O199 1.269 . S
C204 O205 1.249 . S
C204 O206 1.270 . S
O205 Zn197 1.943 . S
O205 C204 1.249 . S
O206 Zn196 2.067 . S
O206 C204 1.270 . S
C207 O200 1.262 . S
C207 O208 1.232 . S
O208 C207 1.232 . S
C209 O201 1.260 . S
C209 O202 1.257 . S
Zn210 O213 2.031 . S
Zn210 O215 2.049 . S
Zn210 O220 2.067 . S
Zn211 O212 1.962 . S
Zn211 O214 1.986 . S
Zn211 O216 1.996 . S
Zn211 O219 1.943 . S
O212 Zn211 1.962 . S
O212 C217 1.254 . S
O213 Zn210 2.031 . S
O213 C217 1.269 . S
O214 Zn211 1.986 . S
O214 C221 1.262 . S
O215 Zn210 2.049 . S
O215 C223 1.260 . S
O216 Zn211 1.996 . S
O216 C223 1.257 . S
C217 O212 1.254 . S
C217 O213 1.269 . S
C218 O219 1.249 . S
C218 O220 1.270 . S
O219 Zn211 1.943 . S
O219 C218 1.249 . S
O220 Zn210 2.067 . S
O220 C218 1.270 . S
C221 O214 1.262 . S
C221 O222 1.232 . S
O222 C221 1.232 . S
C223 O215 1.260 . S
C223 O216 1.257 . S
Zn224 O227 2.031 . S
Zn224 O229 2.049 . S
Zn224 O234 2.067 . S
Zn225 O226 1.962 . S
Zn225 O228 1.986 . S
Zn225 O230 1.996 . S
Zn225 O233 1.943 . S
O226 Zn225 1.962 . S
O226 C231 1.254 . S
O227 Zn224 2.031 . S
O227 C231 1.269 . S
O228 Zn225 1.986 . S
O228 C235 1.262 . S
O229 Zn224 2.049 . S
O229 C237 1.260 . S
O230 Zn225 1.996 . S
O230 C237 1.257 . S
C231 O226 1.254 . S
C231 O227 1.269 . S
C232 O233 1.249 . S
C232 O234 1.270 . S
O233 Zn225 1.943 . S
O233 C232 1.249 . S
O234 Zn224 2.067 . S
O234 C232 1.270 . S
C235 O228 1.262 . S
C235 O236 1.232 . S
O236 C235 1.232 . S
C237 O229 1.260 . S
C237 O230 1.257 . S
Zn238 O241 2.031 . S
Zn238 O243 2.049 . S
Zn238 O248 2.067 . S
Zn239 O240 1.962 . S
Zn239 O242 1.986 . S
Zn239 O244 1.996 . S
Zn239 O247 1.943 . S
O240 Zn239 1.962 . S
O240 C245 1.254 . S
O241 Zn238 2.031 . S
O241 C245 1.269 . S
O242 Zn239 1.986 . S
O242 C249 1.262 . S
O243 Zn238 2.049 . S
O243 C251 1.260 . S
O244 Zn239 1.996 . S
O244 C251 1.257 . S
C245 O240 1.254 . S
C245 O241 1.269 . S
C246 O247 1.249 . S
C246 O248 1.270 . S
O247 Zn239 1.943 . S
O247 C246 1.249 . S
O248 Zn238 2.067 . S
O248 C246 1.270 . S
C249 O242 1.262 . S
C249 O250 1.232 . S
O250 C249 1.232 . S
C251 O243 1.260 . S
C251 O244 1.257 . S
Zn252 O255 2.031 . S
Zn252 O257 2.049 . S
Zn252 O262 2.067 . S
Zn253 O254 1.962 . S
Zn253 O256 1.986 . S
Zn253 O258 1.996 . S
Zn253 O261 1.943 . S
O254 Zn253 1.962 . S
O254 C259 1.254 . S
O255 Zn252 2.031 . S
O255 C259 1.269 . S
O256 Zn253 1.986 . S
O256 C263 1.262 . S
O257 Zn252 2.049 . S
O257 C265 1.260 . S
O258 Zn253 1.996 . S
O258 C265 1.257 . S
C259 O254 1.254 . S
C259 O255 1.269 . S
C260 O261 1.249 . S
C260 O262 1.270 . S
O261 Zn253 1.943 . S
O261 C260 1.249 . S
O262 Zn252 2.067 . S
O262 C260 1.270 . S
C263 O256 1.262 . S
C263 O264 1.232 . S
O264 C263 1.232 . S
C265 O257 1.260 . S
C265 O258 1.257 . S
Zn266 O269 2.031 . S
Zn266 O271 2.049 . S
Zn266 O276 2.067 . S
Zn267 O268 1.962 . S
Zn267 O270 1.986 . S
Zn267 O272 1.996 . S
Zn267 O275 1.943 . S
O268 Zn267 1.962 . S
O268 C273 1.254 . S
O269 Zn266 2.031 . S
O269 C273 1.269 . S
O270 Zn267 1.986 . S
O270 C277 1.262 . S
O271 Zn266 2.049 . S
O271 C279 1.260 . S
O272 Zn267 1.996 . S
O272 C279 1.257 . S
C273 O268 1.254 . S
C273 O269 1.269 . S
C274 O275 1.249 . S
C274 O276 1.270 . S
O275 Zn267 1.943 . S
O275 C274 1.249 . S
O276 Zn266 2.067 . S
O276 C274 1.270 . S
C277 O270 1.262 . S
C277 O278 1.232 . S
O278 C277 1.232 . S
C279 O271 1.260 . S
C279 O272 1.257 . S
Zn280 O283 2.031 1_554 S
Zn280 O285 2.049 . S
Zn280 O290 2.067 . S
Zn281 O282 1.989 . S
Zn281 O284 1.972 1_556 S
Zn281 O286 1.976 1_556 S
Zn281 O289 1.940 . S
O282 Zn281 1.989 . S
O282 C287 1.254 . S
O283 Zn280 2.031 1_556 S
O283 C287 1.269 . S
O284 Zn281 1.972 1_554 S
O284 C291 1.262 1_554 S
O285 Zn280 2.049 . S
O285 C293 1.260 . S
O286 Zn281 1.976 1_554 S
O286 C293 1.257 . S
C287 O282 1.254 . S
C287 O283 1.269 . S
C288 O289 1.249 . S
C288 O290 1.270 1_556 S
O289 Zn281 1.940 . S
O289 C288 1.249 . S
O290 Zn280 2.067 . S
O290 C288 1.270 1_554 S
C291 O284 1.262 1_556 S
C291 O292 1.232 . S
O292 C291 1.232 . S
C293 O285 1.260 . S
C293 O286 1.257 . S
Zn294 O297 2.031 . S
Zn294 O299 2.049 . S
Zn294 O304 2.067 . S
Zn295 O296 1.962 . S
Zn295 O298 1.986 . S
Zn295 O300 1.996 . S
Zn295 O303 1.943 . S
O296 Zn295 1.962 . S
O296 C301 1.254 . S
O297 Zn294 2.031 . S
O297 C301 1.269 . S
O298 Zn295 1.986 . S
O298 C305 1.262 . S
O299 Zn294 2.049 . S
O299 C307 1.260 . S
O300 Zn295 1.996 . S
O300 C307 1.257 . S
C301 O296 1.254 . S
C301 O297 1.269 . S
C302 O303 1.249 . S
C302 O304 1.270 . S
O303 Zn295 1.943 . S
O303 C302 1.249 . S
O304 Zn294 2.067 . S
O304 C302 1.270 . S
C305 O298 1.262 . S
C305 O306 1.232 . S
O306 C305 1.232 . S
C307 O299 1.260 . S
C307 O300 1.257 . S
Zn308 O311 2.031 . S
Zn308 O313 2.049 . S
Zn308 O318 2.067 . S
Zn309 O310 1.962 . S
Zn309 O312 1.986 . S
Zn309 O314 1.996 . S
Zn309 O317 1.943 . S
O310 Zn309 1.962 . S
O310 C315 1.254 . S
O311 Zn308 2.031 . S
O311 C315 1.269 . S
O312 Zn309 1.986 . S
O312 C319 1.262 . S
O313 Zn308 2.049 . S
O313 C321 1.260 . S
O314 Zn309 1.996 . S
O314 C321 1.257 . S
C315 O310 1.254 . S
C315 O311 1.269 . S
C316 O317 1.249 . S
C316 O318 1.270 . S
O317 Zn309 1.943 . S
O317 C316 1.249 . S
O318 Zn308 2.067 . S
O318 C316 1.270 . S
C319 O312 1.262 . S
C319 O320 1.232 . S
O320 C319 1.232 . S
C321 O313 1.260 . S
C321 O314 1.257 . S
Zn322 O325 2.031 . S
Zn322 O327 2.049 . S
Zn322 O332 2.067 . S
Zn323 O324 1.962 . S
Zn323 O326 1.986 . S
Zn323 O328 1.996 . S
Zn323 O331 1.943 . S
O324 Zn323 1.962 . S
O324 C329 1.254 . S
O325 Zn322 2.031 . S
O325 C329 1.269 . S
O326 Zn323 1.986 . S
O326 C333 1.262 . S
O327 Zn322 2.049 . S
O327 C335 1.260 . S
O328 Zn323 1.996 . S
O328 C335 1.257 . S
C329 O324 1.254 . S
C329 O325 1.269 . S
C330 O331 1.249 . S
C330 O332 1.270 . S
O331 Zn323 1.943 . S
O331 C330 1.249 . S
O332 Zn322 2.067 . S
O332 C330 1.270 . S
C333 O326 1.262 . S
C333 O334 1.232 . S
O334 C333 1.232 . S
C335 O327 1.260 . S
C335 O328 1.257 . S
Eu336 N367 2.657 1_545 S
Eu336 N374 2.609 1_544 S
Eu336 O380 2.558 1_454 S
Eu336 O381 2.612 . S
Eu336 O383 2.339 . S
Eu336 O384 2.563 . S
Eu336 O385 2.419 1_455 S
Eu336 O387 2.380 . S
Eu336 O388 2.432 1_554 S
Eu336 C400 2.848 1_454 S
C337 C340 1.429 . S
C337 C341 1.411 . S
C337 N344 1.377 . S
C338 C340 1.420 . S
C338 C342 1.423 . S
C338 C350 1.392 . S
C339 C341 1.420 . S
C339 C342 1.351 . S
C339 H362 0.931 . S
C340 C337 1.429 . S
C340 C338 1.420 . S
C340 N348 1.362 . S
C341 C337 1.411 . S
C341 C339 1.420 . S
C341 C346 1.395 . S
C342 C338 1.423 . S
C342 C339 1.351 . S
C342 H354 0.930 . S
C343 C345 1.400 . S
C343 C346 1.386 . S
C343 H355 0.930 . S
N344 C337 1.377 . S
N344 C345 1.321 . S
N344 Eu347 2.609 . S
C345 C343 1.400 . S
C345 N344 1.321 . S
C345 H352 0.930 . S
C346 C341 1.395 . S
C346 C343 1.386 . S
C346 H365 0.930 . S
Eu347 N344 2.609 . S
Eu347 N348 2.657 . S
Eu347 O381 2.380 . S
Eu347 O382 2.432 . S
Eu347 O386 2.558 . S
Eu347 O387 2.612 . S
Eu347 O389 2.339 1_554 S
Eu347 O390 2.563 . S
Eu347 O391 2.419 . S
Eu347 C411 2.848 . S
N348 C340 1.362 . S
N348 Eu347 2.657 . S
N348 C349 1.334 1_554 S
C349 N348 1.334 1_556 S
C349 C351 1.413 . S
C349 H356 0.929 . S
C350 C338 1.392 . S
C350 C351 1.367 1_554 S
C350 H358 0.930 1_554 S
C351 C349 1.413 . S
C351 C350 1.367 1_556 S
C351 H353 0.930 . S
H352 C345 0.930 . S
H353 C351 0.930 . S
H354 C342 0.930 . S
H355 C343 0.930 . S
H356 C349 0.929 . S
H357 C371 0.930 . S
H358 C350 0.930 1_556 S
H359 C377 0.930 . S
H360 C368 0.919 1_545 S
H361 C375 0.929 1_655 S
H362 C339 0.931 . S
H363 C369 0.930 . S
H364 C402 0.930 . S
H365 C346 0.930 . S
H366 C401 0.931 . S
N367 Eu336 2.657 1_565 S
N367 C368 1.334 . S
N367 C372 1.362 . S
C368 H360 0.919 1_565 S
C368 N367 1.334 . S
C368 C371 1.413 . S
C369 H363 0.930 . S
C369 C370 1.392 . S
C369 C371 1.367 1_655 S
C370 C369 1.392 . S
C370 C372 1.420 1_655 S
C370 C402 1.423 . S
C371 H357 0.930 . S
C371 C368 1.413 . S
C371 C369 1.367 1_455 S
C372 N367 1.362 . S
C372 C370 1.420 1_455 S
C372 C376 1.429 1_554 S
H373 C378 0.930 . S
N374 Eu336 2.609 1_566 S
N374 C376 1.377 . S
N374 C377 1.321 . S
C375 H361 0.929 1_455 S
C375 C377 1.398 . S
C375 C378 1.387 1_455 S
C376 C372 1.429 1_556 S
C376 N374 1.377 . S
C376 C379 1.411 1_455 S
C377 H359 0.930 . S
C377 N374 1.321 . S
C377 C375 1.398 . S
C378 H373 0.930 . S
C378 C375 1.387 1_655 S
C378 C379 1.395 . S
C379 C376 1.411 1_655 S
C379 C378 1.395 . S
C379 C401 1.420 . S
O380 Eu336 2.558 1_656 S
O380 C400 1.257 . S
O381 Eu336 2.612 . S
O381 Eu347 2.380 . S
O381 C392 1.276 . S
O382 Eu347 2.432 . S
O382 C399 1.264 . S
O383 Eu336 2.339 . S
O383 C399 1.254 . S
O384 Eu336 2.563 . S
O384 C392 1.235 . S
O385 Eu336 2.419 1_655 S
O385 C400 1.249 1_554 S
O386 Eu347 2.558 . S
O386 C411 1.257 . S
O387 Eu336 2.380 . S
O387 Eu347 2.612 . S
O387 C403 1.276 1_545 S
O388 Eu336 2.432 1_556 S
O388 C410 1.264 . S
O389 Eu347 2.339 1_556 S
O389 C410 1.254 . S
O390 Eu347 2.563 . S
O390 C403 1.235 1_545 S
O391 Eu347 2.419 . S
O391 C411 1.249 . S
C392 O381 1.276 . S
C392 O384 1.235 . S
C393 C395 1.393 1_556 S
C393 C397 1.395 . S
C393 C400 1.492 . S
C394 C395 1.393 1_556 S
C394 C396 1.384 . S
C395 C393 1.393 1_554 S
C395 C394 1.393 1_554 S
C395 H412 0.930 . S
C396 C394 1.384 . S
C396 C398 1.395 . S
C396 H413 0.930 . S
C397 C393 1.395 . S
C397 C398 1.379 . S
C397 H414 0.930 . S
C398 C396 1.395 . S
C398 C397 1.379 . S
C398 H415 0.930 . S
C399 O382 1.264 . S
C399 O383 1.254 . S
C400 Eu336 2.848 1_656 S
C400 O380 1.257 . S
C400 O385 1.249 1_556 S
C400 C393 1.492 . S
C401 H366 0.931 . S
C401 C379 1.420 . S
C401 C402 1.350 1_556 S
C402 H364 0.930 . S
C402 C370 1.423 . S
C402 C401 1.350 1_554 S
C403 O387 1.276 1_565 S
C403 O390 1.235 1_565 S
C404 C405 1.393 . S
C404 C408 1.395 . S
C404 C411 1.492 . S
C405 C404 1.393 . S
C405 C406 1.392 . S
C405 H416 0.930 . S
C406 C405 1.392 . S
C406 C407 1.386 . S
C407 C406 1.386 . S
C407 C409 1.395 . S
C407 H417 0.930 . S
C408 C404 1.395 . S
C408 C409 1.379 . S
C408 H418 0.930 . S
C409 C407 1.395 . S
C409 C408 1.379 . S
C409 H419 0.930 . S
C410 O388 1.264 . S
C410 O389 1.254 . S
C411 Eu347 2.848 . S
C411 O386 1.257 . S
C411 O391 1.249 . S
C411 C404 1.492 . S
H412 C395 0.930 . S
H413 C396 0.930 . S
H414 C397 0.930 . S
H415 C398 0.930 . S
H416 C405 0.930 . S
H417 C407 0.930 . S
H418 C408 0.930 . S
H419 C409 0.930 . S
Eu420 N451 2.657 . S
Eu420 N458 2.609 . S
Eu420 O464 2.558 . S
Eu420 O465 2.612 . S
Eu420 O467 2.339 . S
Eu420 O468 2.563 . S
Eu420 O469 2.419 . S
Eu420 O471 2.380 . S
Eu420 O472 2.432 . S
Eu420 C484 2.848 . S
C421 C424 1.429 . S
C421 C425 1.411 . S
C421 N428 1.377 . S
C422 C424 1.420 . S
C422 C426 1.423 . S
C422 C434 1.392 . S
C423 C425 1.420 . S
C423 C426 1.351 . S
C423 H446 0.931 . S
C424 C421 1.429 . S
C424 C422 1.420 . S
C424 N432 1.362 . S
C425 C421 1.411 . S
C425 C423 1.420 . S
C425 C430 1.395 . S
C426 C422 1.423 . S
C426 C423 1.351 . S
C426 H438 0.930 . S
C427 C429 1.400 . S
C427 C430 1.386 . S
C427 H439 0.930 . S
N428 C421 1.377 . S
N428 C429 1.321 . S
N428 Eu431 2.609 . S
C429 C427 1.400 . S
C429 N428 1.321 . S
C429 H436 0.930 . S
C430 C425 1.395 . S
C430 C427 1.386 . S
C430 H449 0.930 . S
Eu431 N428 2.609 . S
Eu431 N432 2.657 . S
Eu431 O465 2.380 . S
Eu431 O466 2.432 . S
Eu431 O470 2.558 . S
Eu431 O471 2.612 . S
Eu431 O473 2.339 . S
Eu431 O474 2.563 . S
Eu431 O475 2.419 . S
Eu431 C495 2.848 . S
N432 C424 1.362 . S
N432 Eu431 2.657 . S
N432 C433 1.334 . S
C433 N432 1.334 . S
C433 C435 1.413 . S
C433 H440 0.929 . S
C434 C422 1.392 . S
C434 C435 1.367 . S
C434 H442 0.930 . S
C435 C433 1.413 . S
C435 C434 1.367 . S
C435 H437 0.930 . S
H436 C429 0.930 . S
H437 C435 0.930 . S
H438 C426 0.930 . S
H439 C427 0.930 . S
H440 C433 0.929 . S
H441 C455 0.930 . S
H442 C434 0.930 . S
H443 C461 0.930 . S
H444 C452 0.929 . S
H445 C459 0.930 . S
H446 C423 0.931 . S
H447 C453 0.930 . S
H448 C486 0.930 . S
H449 C430 0.930 . S
H450 C485 0.931 . S
N451 Eu420 2.657 . S
N451 C452 1.334 . S
N451 C456 1.362 . S
C452 H444 0.929 . S
C452 N451 1.334 . S
C452 C455 1.413 . S
C453 H447 0.930 . S
C453 C454 1.392 . S
C453 C455 1.367 . S
C454 C453 1.392 . S
C454 C456 1.420 . S
C454 C486 1.423 . S
C455 H441 0.930 . S
C455 C452 1.413 . S
C455 C453 1.367 . S
C456 N451 1.362 . S
C456 C454 1.420 . S
C456 C460 1.429 . S
H457 C462 0.930 . S
N458 Eu420 2.609 . S
N458 C460 1.377 . S
N458 C461 1.321 . S
C459 H445 0.930 . S
C459 C461 1.400 . S
C459 C462 1.386 . S
C460 C456 1.429 . S
C460 N458 1.377 . S
C460 C463 1.411 . S
C461 H443 0.930 . S
C461 N458 1.321 . S
C461 C459 1.400 . S
C462 H457 0.930 . S
C462 C459 1.386 . S
C462 C463 1.395 . S
C463 C460 1.411 . S
C463 C462 1.395 . S
C463 C485 1.420 . S
O464 Eu420 2.558 . S
O464 C484 1.257 . S
O465 Eu420 2.612 . S
O465 Eu431 2.380 . S
O465 C476 1.276 . S
O466 Eu431 2.432 . S
O466 C483 1.264 . S
O467 Eu420 2.339 . S
O467 C483 1.254 . S
O468 Eu420 2.563 . S
O468 C476 1.235 . S
O469 Eu420 2.419 . S
O469 C484 1.249 . S
O470 Eu431 2.558 . S
O470 C495 1.257 . S
O471 Eu420 2.380 . S
O471 Eu431 2.612 . S
O471 C487 1.276 . S
O472 Eu420 2.432 . S
O472 C494 1.264 . S
O473 Eu431 2.339 . S
O473 C494 1.254 . S
O474 Eu431 2.563 . S
O474 C487 1.235 . S
O475 Eu431 2.419 . S
O475 C495 1.249 . S
C476 O465 1.276 . S
C476 O468 1.235 . S
C477 C479 1.393 . S
C477 C481 1.395 . S
C477 C484 1.492 . S
C478 C479 1.392 . S
C478 C480 1.386 . S
C479 C477 1.393 . S
C479 C478 1.392 . S
C479 H496 0.930 . S
C480 C478 1.386 . S
C480 C482 1.395 . S
C480 H497 0.930 . S
C481 C477 1.395 . S
C481 C482 1.379 . S
C481 H498 0.930 . S
C482 C480 1.395 . S
C482 C481 1.379 . S
C482 H499 0.930 . S
C483 O466 1.264 . S
C483 O467 1.254 . S
C484 Eu420 2.848 . S
C484 O464 1.257 . S
C484 O469 1.249 . S
C484 C477 1.492 . S
C485 H450 0.931 . S
C485 C463 1.420 . S
C485 C486 1.351 . S
C486 H448 0.930 . S
C486 C454 1.423 . S
C486 C485 1.351 . S
C487 O471 1.276 . S
C487 O474 1.235 . S
C488 C489 1.393 . S
C488 C492 1.395 . S
C488 C495 1.492 . S
C489 C488 1.393 . S
C489 C490 1.392 . S
C489 H500 0.930 . S
C490 C489 1.392 . S
C490 C491 1.386 . S
C491 C490 1.386 . S
C491 C493 1.395 . S
C491 H501 0.930 . S
C492 C488 1.395 . S
C492 C493 1.379 . S
C492 H502 0.930 . S
C493 C491 1.395 . S
C493 C492 1.379 . S
C493 H503 0.930 . S
C494 O472 1.264 . S
C494 O473 1.254 . S
C495 Eu431 2.848 . S
C495 O470 1.257 . S
C495 O475 1.249 . S
C495 C488 1.492 . S
H496 C479 0.930 . S
H497 C480 0.930 . S
H498 C481 0.930 . S
H499 C482 0.930 . S
H500 C489 0.930 . S
H501 C491 0.930 . S
H502 C492 0.930 . S
H503 C493 0.930 . S
Eu504 N535 2.657 . S
Eu504 N542 2.609 . S
Eu504 O548 2.558 . S
Eu504 O549 2.612 . S
Eu504 O551 2.339 . S
Eu504 O552 2.563 1_545 S
Eu504 O553 2.419 . S
Eu504 O555 2.380 . S
Eu504 O556 2.432 . S
Eu504 C568 2.848 . S
C505 C508 1.429 . S
C505 C509 1.411 . S
C505 N512 1.377 1_565 S
C506 C508 1.420 . S
C506 C510 1.423 . S
C506 C518 1.392 . S
C507 C509 1.420 . S
C507 C510 1.351 . S
C507 H530 0.931 . S
C508 C505 1.429 . S
C508 C506 1.420 . S
C508 N516 1.362 . S
C509 C505 1.411 . S
C509 C507 1.420 . S
C509 C514 1.395 . S
C510 C506 1.423 . S
C510 C507 1.351 . S
C510 H522 0.930 . S
C511 C513 1.400 1_565 S
C511 C514 1.386 . S
C511 H523 0.930 1_565 S
N512 C505 1.377 1_545 S
N512 C513 1.321 . S
N512 Eu515 2.609 . S
C513 C511 1.400 1_545 S
C513 N512 1.321 . S
C513 H520 0.930 . S
C514 C509 1.395 . S
C514 C511 1.386 . S
C514 H533 0.930 . S
Eu515 N512 2.609 . S
Eu515 N516 2.657 1_545 S
Eu515 O549 2.380 . S
Eu515 O550 2.432 . S
Eu515 O554 2.558 . S
Eu515 O555 2.612 . S
Eu515 O557 2.339 . S
Eu515 O558 2.563 . S
Eu515 O559 2.419 . S
Eu515 C579 2.848 . S
N516 C508 1.362 . S
N516 Eu515 2.657 1_565 S
N516 C517 1.334 . S
C517 N516 1.334 . S
C517 C519 1.413 . S
C517 H524 0.929 . S
C518 C506 1.392 . S
C518 C519 1.367 . S
C518 H526 0.930 . S
C519 C517 1.413 . S
C519 C518 1.367 . S
C519 H521 0.930 . S
H520 C513 0.930 . S
H521 C519 0.930 . S
H522 C510 0.930 . S
H523 C511 0.930 1_545 S
H524 C517 0.929 . S
H525 C539 0.930 . S
H526 C518 0.930 . S
H527 C545 0.930 . S
H528 C536 0.929 . S
H529 C543 0.930 . S
H530 C507 0.931 . S
H531 C537 0.930 . S
H532 C570 0.930 . S
H533 C514 0.930 . S
H534 C569 0.931 . S
N535 Eu504 2.657 . S
N535 C536 1.334 . S
N535 C540 1.362 . S
C536 H528 0.929 . S
C536 N535 1.334 . S
C536 C539 1.413 . S
C537 H531 0.930 . S
C537 C538 1.392 . S
C537 C539 1.367 . S
C538 C537 1.392 . S
C538 C540 1.420 . S
C538 C570 1.423 . S
C539 H525 0.930 . S
C539 C536 1.413 . S
C539 C537 1.367 . S
C540 N535 1.362 . S
C540 C538 1.420 . S
C540 C544 1.429 . S
H541 C546 0.930 . S
N542 Eu504 2.609 . S
N542 C544 1.377 . S
N542 C545 1.321 . S
C543 H529 0.930 . S
C543 C545 1.400 . S
C543 C546 1.386 . S
C544 C540 1.429 . S
C544 N542 1.377 . S
C544 C547 1.411 . S
C545 H527 0.930 . S
C545 N542 1.321 . S
C545 C543 1.400 . S
C546 H541 0.930 . S
C546 C543 1.386 . S
C546 C547 1.395 . S
C547 C544 1.411 . S
C547 C546 1.395 . S
C547 C569 1.420 . S
O548 Eu504 2.558 . S
O548 C568 1.257 . S
O549 Eu504 2.612 . S
O549 Eu515 2.380 . S
O549 C560 1.276 1_545 S
O550 Eu515 2.432 . S
O550 C567 1.264 . S
O551 Eu504 2.339 . S
O551 C567 1.254 . S
O552 Eu504 2.563 1_565 S
O552 C560 1.235 . S
O553 Eu504 2.419 . S
O553 C568 1.249 . S
O554 Eu515 2.558 . S
O554 C579 1.257 . S
O555 Eu504 2.380 . S
O555 Eu515 2.612 . S
O555 C571 1.276 . S
O556 Eu504 2.432 . S
O556 C578 1.264 . S
O557 Eu515 2.339 . S
O557 C578 1.254 . S
O558 Eu515 2.563 . S
O558 C571 1.235 . S
O559 Eu515 2.419 . S
O559 C579 1.249 . S
C560 O549 1.276 1_565 S
C560 O552 1.235 . S
C561 C563 1.393 1_545 S
C561 C565 1.395 . S
C561 C568 1.492 . S
C562 C563 1.392 . S
C562 C564 1.386 . S
C563 C561 1.393 1_565 S
C563 C562 1.392 . S
C563 H580 0.930 . S
C564 C562 1.386 . S
C564 C566 1.395 . S
C564 H581 0.930 . S
C565 C561 1.395 . S
C565 C566 1.379 1_545 S
C565 H582 0.930 . S
C566 C564 1.395 . S
C566 C565 1.379 1_565 S
C566 H583 0.930 . S
C567 O550 1.264 . S
C567 O551 1.254 . S
C568 Eu504 2.848 . S
C568 O548 1.257 . S
C568 O553 1.249 . S
C568 C561 1.492 . S
C569 H534 0.931 . S
C569 C547 1.420 . S
C569 C570 1.351 . S
C570 H532 0.930 . S
C570 C538 1.423 . S
C570 C569 1.351 . S
C571 O555 1.276 . S
C571 O558 1.235 . S
C572 C573 1.393 . S
C572 C576 1.395 . S
C572 C579 1.492 . S
C573 C572 1.393 . S
C573 C574 1.392 . S
C573 H584 0.930 . S
C574 C573 1.392 . S
C574 C575 1.386 . S
C575 C574 1.386 . S
C575 C577 1.395 . S
C575 H585 0.930 . S
C576 C572 1.395 . S
C576 C577 1.379 . S
C576 H586 0.930 . S
C577 C575 1.395 . S
C577 C576 1.379 . S
C577 H587 0.930 . S
C578 O556 1.264 . S
C578 O557 1.254 . S
C579 Eu515 2.848 . S
C579 O554 1.257 . S
C579 O559 1.249 . S
C579 C572 1.492 . S
H580 C563 0.930 . S
H581 C564 0.930 . S
H582 C565 0.930 . S
H583 C566 0.930 . S
H584 C573 0.930 . S
H585 C575 0.930 . S
H586 C576 0.930 . S
H587 C577 0.930 . S
Eu588 N619 2.657 . S
Eu588 N626 2.609 . S
Eu588 O632 2.558 . S
Eu588 O633 2.612 . S
Eu588 O635 2.339 . S
Eu588 O636 2.563 . S
Eu588 O637 2.419 . S
Eu588 O639 2.380 . S
Eu588 O640 2.432 . S
Eu588 C652 2.848 . S
C589 C592 1.429 . S
C589 C593 1.411 . S
C589 N596 1.377 . S
C590 C592 1.420 . S
C590 C594 1.423 . S
C590 C602 1.392 . S
C591 C593 1.420 . S
C591 C594 1.351 . S
C591 H614 0.931 . S
C592 C589 1.429 . S
C592 C590 1.420 . S
C592 N600 1.362 . S
C593 C589 1.411 . S
C593 C591 1.420 . S
C593 C598 1.395 . S
C594 C590 1.423 . S
C594 C591 1.351 . S
C594 H606 0.930 . S
C595 C597 1.400 . S
C595 C598 1.386 . S
C595 H607 0.930 . S
N596 C589 1.377 . S
N596 C597 1.321 . S
N596 Eu599 2.609 . S
C597 C595 1.400 . S
C597 N596 1.321 . S
C597 H604 0.930 . S
C598 C593 1.395 . S
C598 C595 1.386 . S
C598 H617 0.930 . S
Eu599 N596 2.609 . S
Eu599 N600 2.657 . S
Eu599 O633 2.380 . S
Eu599 O634 2.432 . S
Eu599 O638 2.558 . S
Eu599 O639 2.612 . S
Eu599 O641 2.339 . S
Eu599 O642 2.563 . S
Eu599 O643 2.419 . S
Eu599 C663 2.848 . S
N600 C592 1.362 . S
N600 Eu599 2.657 . S
N600 C601 1.334 . S
C601 N600 1.334 . S
C601 C603 1.413 . S
C601 H608 0.929 . S
C602 C590 1.392 . S
C602 C603 1.367 . S
C602 H610 0.930 . S
C603 C601 1.413 . S
C603 C602 1.367 . S
C603 H605 0.930 . S
H604 C597 0.930 . S
H605 C603 0.930 . S
H606 C594 0.930 . S
H607 C595 0.930 . S
H608 C601 0.929 . S
H609 C623 0.930 . S
H610 C602 0.930 . S
H611 C629 0.930 . S
H612 C620 0.929 . S
H613 C627 0.930 . S
H614 C591 0.931 . S
H615 C621 0.930 . S
H616 C654 0.930 . S
H617 C598 0.930 . S
H618 C653 0.931 . S
N619 Eu588 2.657 . S
N619 C620 1.334 . S
N619 C624 1.362 . S
C620 H612 0.929 . S
C620 N619 1.334 . S
C620 C623 1.413 . S
C621 H615 0.930 . S
C621 C622 1.392 . S
C621 C623 1.367 . S
C622 C621 1.392 . S
C622 C624 1.420 . S
C622 C654 1.423 . S
C623 H609 0.930 . S
C623 C620 1.413 . S
C623 C621 1.367 . S
C624 N619 1.362 . S
C624 C622 1.420 . S
C624 C628 1.429 . S
H625 C630 0.930 . S
N626 Eu588 2.609 . S
N626 C628 1.377 . S
N626 C629 1.321 . S
C627 H613 0.930 . S
C627 C629 1.400 . S
C627 C630 1.386 . S
C628 C624 1.429 . S
C628 N626 1.377 . S
C628 C631 1.411 . S
C629 H611 0.930 . S
C629 N626 1.321 . S
C629 C627 1.400 . S
C630 H625 0.930 . S
C630 C627 1.386 . S
C630 C631 1.395 . S
C631 C628 1.411 . S
C631 C630 1.395 . S
C631 C653 1.420 . S
O632 Eu588 2.558 . S
O632 C652 1.257 . S
O633 Eu588 2.612 . S
O633 Eu599 2.380 . S
O633 C644 1.276 . S
O634 Eu599 2.432 . S
O634 C651 1.264 . S
O635 Eu588 2.339 . S
O635 C651 1.254 . S
O636 Eu588 2.563 . S
O636 C644 1.235 . S
O637 Eu588 2.419 . S
O637 C652 1.249 . S
O638 Eu599 2.558 . S
O638 C663 1.257 . S
O639 Eu588 2.380 . S
O639 Eu599 2.612 . S
O639 C655 1.276 . S
O640 Eu588 2.432 . S
O640 C662 1.264 . S
O641 Eu599 2.339 . S
O641 C662 1.254 . S
O642 Eu599 2.563 . S
O642 C655 1.235 . S
O643 Eu599 2.419 . S
O643 C663 1.249 . S
C644 O633 1.276 . S
C644 O636 1.235 . S
C645 C647 1.393 . S
C645 C649 1.395 . S
C645 C652 1.492 . S
C646 C647 1.392 . S
C646 C648 1.386 . S
C647 C645 1.393 . S
C647 C646 1.392 . S
C647 H664 0.930 . S
C648 C646 1.386 . S
C648 C650 1.395 . S
C648 H665 0.930 . S
C649 C645 1.395 . S
C649 C650 1.379 . S
C649 H666 0.930 . S
C650 C648 1.395 . S
C650 C649 1.379 . S
C650 H667 0.930 . S
C651 O634 1.264 . S
C651 O635 1.254 . S
C652 Eu588 2.848 . S
C652 O632 1.257 . S
C652 O637 1.249 . S
C652 C645 1.492 . S
C653 H618 0.931 . S
C653 C631 1.420 . S
C653 C654 1.351 . S
C654 H616 0.930 . S
C654 C622 1.423 . S
C654 C653 1.351 . S
C655 O639 1.276 . S
C655 O642 1.235 . S
C656 C657 1.393 . S
C656 C660 1.395 . S
C656 C663 1.492 . S
C657 C656 1.393 . S
C657 C658 1.392 . S
C657 H668 0.930 . S
C658 C657 1.392 . S
C658 C659 1.386 . S
C659 C658 1.386 . S
C659 C661 1.395 . S
C659 H669 0.930 . S
C660 C656 1.395 . S
C660 C661 1.379 . S
C660 H670 0.930 . S
C661 C659 1.395 . S
C661 C660 1.379 . S
C661 H671 0.930 . S
C662 O640 1.264 . S
C662 O641 1.254 . S
C663 Eu599 2.848 . S
C663 O638 1.257 . S
C663 O643 1.249 . S
C663 C656 1.492 . S
H664 C647 0.930 . S
H665 C648 0.930 . S
H666 C649 0.930 . S
H667 C650 0.930 . S
H668 C657 0.930 . S
H669 C659 0.930 . S
H670 C660 0.930 . S
H671 C661 0.930 . S
Eu672 N703 2.657 . S
Eu672 N710 2.609 . S
Eu672 O716 2.558 . S
Eu672 O717 2.612 . S
Eu672 O719 2.339 . S
Eu672 O720 2.563 . S
Eu672 O721 2.419 . S
Eu672 O723 2.380 . S
Eu672 O724 2.432 . S
Eu672 C736 2.848 . S
C673 C676 1.429 . S
C673 C677 1.411 . S
C673 N680 1.377 . S
C674 C676 1.420 . S
C674 C678 1.423 . S
C674 C686 1.392 . S
C675 C677 1.420 . S
C675 C678 1.351 . S
C675 H698 0.931 . S
C676 C673 1.429 . S
C676 C674 1.420 . S
C676 N684 1.362 . S
C677 C673 1.411 . S
C677 C675 1.420 . S
C677 C682 1.395 . S
C678 C674 1.423 . S
C678 C675 1.351 . S
C678 H690 0.930 . S
C679 C681 1.400 . S
C679 C682 1.386 . S
C679 H691 0.930 . S
N680 C673 1.377 . S
N680 C681 1.321 . S
N680 Eu683 2.609 1_565 S
C681 C679 1.400 . S
C681 N680 1.321 . S
C681 H688 0.930 . S
C682 C677 1.395 . S
C682 C679 1.386 . S
C682 H701 0.930 . S
Eu683 N680 2.609 1_545 S
Eu683 N684 2.657 1_545 S
Eu683 O717 2.380 . S
Eu683 O718 2.432 . S
Eu683 O722 2.558 1_545 S
Eu683 O723 2.612 . S
Eu683 O725 2.332 . S
Eu683 O726 2.563 . S
Eu683 O727 2.419 1_545 S
Eu683 C747 2.848 1_545 S
N684 C676 1.362 . S
N684 Eu683 2.657 1_565 S
N684 C685 1.334 . S
C685 N684 1.334 . S
C685 C687 1.402 1_455 S
C685 H692 0.929 . S
C686 C674 1.392 . S
C686 C687 1.354 1_455 S
C686 H694 0.930 1_455 S
C687 C685 1.402 1_655 S
C687 C686 1.354 1_655 S
C687 H689 0.955 . S
H688 C681 0.930 . S
H689 C687 0.955 . S
H690 C678 0.930 . S
H691 C679 0.930 . S
H692 C685 0.929 . S
H693 C707 0.930 . S
H694 C686 0.930 1_655 S
H695 C713 0.930 . S
H696 C704 0.929 . S
H697 C711 0.930 1_655 S
H698 C675 0.931 . S
H699 C705 0.930 . S
H700 C738 0.930 . S
H701 C682 0.930 . S
H702 C737 0.931 . S
N703 Eu672 2.657 . S
N703 C704 1.334 . S
N703 C708 1.362 . S
C704 H696 0.929 . S
C704 N703 1.334 . S
C704 C707 1.413 . S
C705 H699 0.930 . S
C705 C706 1.392 . S
C705 C707 1.367 . S
C706 C705 1.392 . S
C706 C708 1.420 . S
C706 C738 1.423 . S
C707 H693 0.930 . S
C707 C704 1.413 . S
C707 C705 1.367 . S
C708 N703 1.362 . S
C708 C706 1.420 . S
C708 C712 1.429 . S
H709 C714 0.930 . S
N710 Eu672 2.609 . S
N710 C712 1.377 . S
N710 C713 1.321 . S
C711 H697 0.930 1_455 S
C711 C713 1.400 . S
C711 C714 1.386 . S
C712 C708 1.429 . S
C712 N710 1.377 . S
C712 C715 1.411 . S
C713 H695 0.930 . S
C713 N710 1.321 . S
C713 C711 1.400 . S
C714 H709 0.930 . S
C714 C711 1.386 . S
C714 C715 1.395 . S
C715 C712 1.411 . S
C715 C714 1.395 . S
C715 C737 1.420 . S
O716 Eu672 2.558 . S
O716 C736 1.257 . S
O717 Eu672 2.612 . S
O717 Eu683 2.380 . S
O717 C728 1.276 . S
O718 Eu683 2.432 . S
O718 C735 1.264 . S
O719 Eu672 2.339 . S
O719 C735 1.254 . S
O720 Eu672 2.563 . S
O720 C728 1.235 . S
O721 Eu672 2.419 . S
O721 C736 1.249 . S
O722 Eu683 2.558 1_565 S
O722 C747 1.257 . S
O723 Eu672 2.380 . S
O723 Eu683 2.612 . S
O723 C739 1.276 . S
O724 Eu672 2.432 . S
O724 C746 1.264 . S
O725 Eu683 2.332 . S
O725 C746 1.277 . S
O726 Eu683 2.563 . S
O726 C739 1.235 . S
O727 Eu683 2.419 1_565 S
O727 C747 1.249 . S
C728 O717 1.276 . S
C728 O720 1.235 . S
C729 C731 1.393 . S
C729 C733 1.395 . S
C729 C736 1.492 . S
C730 C731 1.392 . S
C730 C732 1.386 . S
C731 C729 1.393 . S
C731 C730 1.392 . S
C731 H748 0.930 . S
C732 C730 1.386 . S
C732 C734 1.395 . S
C732 H749 0.930 . S
C733 C729 1.395 . S
C733 C734 1.379 . S
C733 H750 0.930 . S
C734 C732 1.395 . S
C734 C733 1.379 . S
C734 H751 0.930 . S
C735 O718 1.264 . S
C735 O719 1.254 . S
C736 Eu672 2.848 . S
C736 O716 1.257 . S
C736 O721 1.249 . S
C736 C729 1.492 . S
C737 H702 0.931 . S
C737 C715 1.420 . S
C737 C738 1.351 . S
C738 H700 0.930 . S
C738 C706 1.423 . S
C738 C737 1.351 . S
C739 O723 1.276 . S
C739 O726 1.235 . S
C740 C741 1.393 . S
C740 C744 1.395 . S
C740 C747 1.492 . S
C741 C740 1.393 . S
C741 C742 1.392 . S
C741 H752 0.930 . S
C742 C741 1.392 . S
C742 C743 1.386 . S
C743 C742 1.386 . S
C743 C745 1.395 . S
C743 H753 0.930 . S
C744 C740 1.395 . S
C744 C745 1.379 . S
C744 H754 0.930 . S
C745 C743 1.395 . S
C745 C744 1.379 . S
C745 H755 0.930 . S
C746 O724 1.264 . S
C746 O725 1.277 . S
C747 Eu683 2.848 1_565 S
C747 O722 1.257 . S
C747 O727 1.249 . S
C747 C740 1.492 . S
H748 C731 0.930 . S
H749 C732 0.930 . S
H750 C733 0.930 . S
H751 C734 0.930 . S
H752 C741 0.930 . S
H753 C743 0.930 . S
H754 C744 0.930 . S
H755 C745 0.930 . S
Eu756 N787 2.657 . S
Eu756 N794 2.609 . S
Eu756 O800 2.558 . S
Eu756 O801 2.612 . S
Eu756 O803 2.339 . S
Eu756 O804 2.563 . S
Eu756 O805 2.419 . S
Eu756 O807 2.380 . S
Eu756 O808 2.432 . S
Eu756 C820 2.848 . S
C757 C760 1.429 . S
C757 C761 1.411 . S
C757 N764 1.377 . S
C758 C760 1.420 . S
C758 C762 1.423 . S
C758 C770 1.392 . S
C759 C761 1.420 . S
C759 C762 1.351 . S
C759 H782 0.931 . S
C760 C757 1.429 . S
C760 C758 1.420 . S
C760 N768 1.362 . S
C761 C757 1.411 . S
C761 C759 1.420 . S
C761 C766 1.395 . S
C762 C758 1.423 . S
C762 C759 1.351 . S
C762 H774 0.930 . S
C763 C765 1.400 . S
C763 C766 1.386 . S
C763 H775 0.930 . S
N764 C757 1.377 . S
N764 C765 1.321 . S
N764 Eu767 2.609 . S
C765 C763 1.400 . S
C765 N764 1.321 . S
C765 H772 0.930 . S
C766 C761 1.395 . S
C766 C763 1.386 . S
C766 H785 0.930 . S
Eu767 N764 2.609 . S
Eu767 N768 2.657 . S
Eu767 O801 2.380 . S
Eu767 O802 2.432 . S
Eu767 O806 2.558 . S
Eu767 O807 2.612 . S
Eu767 O809 2.339 . S
Eu767 O810 2.563 . S
Eu767 O811 2.419 . S
Eu767 C831 2.848 . S
N768 C760 1.362 . S
N768 Eu767 2.657 . S
N768 C769 1.334 . S
C769 N768 1.334 . S
C769 C771 1.413 . S
C769 H776 0.929 . S
C770 C758 1.392 . S
C770 C771 1.367 . S
C770 H778 0.930 . S
C771 C769 1.413 . S
C771 C770 1.367 . S
C771 H773 0.930 . S
H772 C765 0.930 . S
H773 C771 0.930 . S
H774 C762 0.930 . S
H775 C763 0.930 . S
H776 C769 0.929 . S
H777 C791 0.930 . S
H778 C770 0.930 . S
H779 C797 0.930 . S
H780 C788 0.929 . S
H781 C795 0.930 . S
H782 C759 0.931 . S
H783 C789 0.930 . S
H784 C822 0.930 . S
H785 C766 0.930 . S
H786 C821 0.931 . S
N787 Eu756 2.657 . S
N787 C788 1.334 . S
N787 C792 1.362 . S
C788 H780 0.929 . S
C788 N787 1.334 . S
C788 C791 1.413 . S
C789 H783 0.930 . S
C789 C790 1.392 . S
C789 C791 1.367 . S
C790 C789 1.392 . S
C790 C792 1.420 . S
C790 C822 1.423 . S
C791 H777 0.930 . S
C791 C788 1.413 . S
C791 C789 1.367 . S
C792 N787 1.362 . S
C792 C790 1.420 . S
C792 C796 1.429 . S
H793 C798 0.930 . S
N794 Eu756 2.609 . S
N794 C796 1.377 . S
N794 C797 1.321 . S
C795 H781 0.930 . S
C795 C797 1.400 . S
C795 C798 1.386 . S
C796 C792 1.429 . S
C796 N794 1.377 . S
C796 C799 1.411 . S
C797 H779 0.930 . S
C797 N794 1.321 . S
C797 C795 1.400 . S
C798 H793 0.930 . S
C798 C795 1.386 . S
C798 C799 1.395 . S
C799 C796 1.411 . S
C799 C798 1.395 . S
C799 C821 1.420 . S
O800 Eu756 2.558 . S
O800 C820 1.257 . S
O801 Eu756 2.612 . S
O801 Eu767 2.380 . S
O801 C812 1.276 . S
O802 Eu767 2.432 . S
O802 C819 1.264 . S
O803 Eu756 2.339 . S
O803 C819 1.254 . S
O804 Eu756 2.563 . S
O804 C812 1.235 . S
O805 Eu756 2.419 . S
O805 C820 1.249 . S
O806 Eu767 2.558 . S
O806 C831 1.257 . S
O807 Eu756 2.380 . S
O807 Eu767 2.612 . S
O807 C823 1.276 . S
O808 Eu756 2.432 . S
O808 C830 1.264 . S
O809 Eu767 2.339 . S
O809 C830 1.254 . S
O810 Eu767 2.563 . S
O810 C823 1.235 . S
O811 Eu767 2.419 . S
O811 C831 1.249 . S
C812 O801 1.276 . S
C812 O804 1.235 . S
C813 C815 1.393 . S
C813 C817 1.395 . S
C813 C820 1.492 . S
C814 C815 1.392 . S
C814 C816 1.386 . S
C815 C813 1.393 . S
C815 C814 1.392 . S
C815 H832 0.930 . S
C816 C814 1.386 . S
C816 C818 1.395 . S
C816 H833 0.930 . S
C817 C813 1.395 . S
C817 C818 1.379 . S
C817 H834 0.930 . S
C818 C816 1.395 . S
C818 C817 1.379 . S
C818 H835 0.930 . S
C819 O802 1.264 . S
C819 O803 1.254 . S
C820 Eu756 2.848 . S
C820 O800 1.257 . S
C820 O805 1.249 . S
C820 C813 1.492 . S
C821 H786 0.931 . S
C821 C799 1.420 . S
C821 C822 1.351 . S
C822 H784 0.930 . S
C822 C790 1.423 . S
C822 C821 1.351 . S
C823 O807 1.276 . S
C823 O810 1.235 . S
C824 C825 1.393 . S
C824 C828 1.395 . S
C824 C831 1.492 . S
C825 C824 1.393 . S
C825 C826 1.392 . S
C825 H836 0.930 . S
C826 C825 1.392 . S
C826 C827 1.386 . S
C827 C826 1.386 . S
C827 C829 1.395 . S
C827 H837 0.930 . S
C828 C824 1.395 . S
C828 C829 1.379 . S
C828 H838 0.930 . S
C829 C827 1.395 . S
C829 C828 1.379 . S
C829 H839 0.930 . S
C830 O808 1.264 . S
C830 O809 1.254 . S
C831 Eu767 2.848 . S
C831 O806 1.257 . S
C831 O811 1.249 . S
C831 C824 1.492 . S
H832 C815 0.930 . S
H833 C816 0.930 . S
H834 C817 0.930 . S
H835 C818 0.930 . S
H836 C825 0.930 . S
H837 C827 0.930 . S
H838 C828 0.930 . S
H839 C829 0.930 . S
Eu840 N871 2.657 . S
Eu840 N878 2.609 . S
Eu840 O884 2.567 . S
Eu840 O885 2.612 . S
Eu840 O887 2.339 . S
Eu840 O888 2.563 . S
Eu840 O889 2.419 . S
Eu840 O891 2.380 . S
Eu840 O892 2.432 1_545 S
Eu840 C904 2.848 . S
C841 C844 1.429 . S
C841 C845 1.411 . S
C841 N848 1.377 . S
C842 C844 1.420 . S
C842 C846 1.423 . S
C842 C854 1.392 1_545 S
C843 C845 1.420 . S
C843 C846 1.351 . S
C843 H866 0.931 . S
C844 C841 1.429 . S
C844 C842 1.420 . S
C844 N852 1.362 . S
C845 C841 1.411 . S
C845 C843 1.420 . S
C845 C850 1.395 . S
C846 C842 1.423 . S
C846 C843 1.351 . S
C846 H858 0.930 . S
C847 C849 1.400 . S
C847 C850 1.386 . S
C847 H859 0.930 . S
N848 C841 1.377 . S
N848 C849 1.321 . S
N848 Eu851 2.609 . S
C849 C847 1.400 . S
C849 N848 1.321 . S
C849 H856 0.930 . S
C850 C845 1.395 . S
C850 C847 1.386 . S
C850 H869 0.930 . S
Eu851 N848 2.609 . S
Eu851 N852 2.657 . S
Eu851 O885 2.380 1_556 S
Eu851 O886 2.432 1_556 S
Eu851 O890 2.558 . S
Eu851 O891 2.612 1_556 S
Eu851 O893 2.339 . S
Eu851 O894 2.563 . S
Eu851 O895 2.419 . S
Eu851 C915 2.848 . S
N852 C844 1.362 . S
N852 Eu851 2.657 . S
N852 C853 1.334 1_545 S
C853 N852 1.334 1_565 S
C853 C855 1.413 . S
C853 H860 0.929 . S
C854 C842 1.392 1_565 S
C854 C855 1.367 . S
C854 H862 0.930 . S
C855 C853 1.413 . S
C855 C854 1.367 . S
C855 H857 0.930 . S
H856 C849 0.930 . S
H857 C855 0.930 . S
H858 C846 0.930 . S
H859 C847 0.930 . S
H860 C853 0.929 . S
H861 C875 0.930 . S
H862 C854 0.930 . S
H863 C881 0.930 . S
H864 C872 0.929 . S
H865 C879 0.930 . S
H866 C843 0.931 . S
H867 C873 0.930 . S
H868 C906 0.930 . S
H869 C850 0.930 . S
H870 C905 0.931 . S
N871 Eu840 2.657 . S
N871 C872 1.334 . S
N871 C876 1.362 . S
C872 H864 0.929 . S
C872 N871 1.334 . S
C872 C875 1.413 . S
C873 H867 0.930 . S
C873 C874 1.392 . S
C873 C875 1.367 . S
C874 C873 1.392 . S
C874 C876 1.420 . S
C874 C906 1.423 . S
C875 H861 0.930 . S
C875 C872 1.413 . S
C875 C873 1.367 . S
C876 N871 1.362 . S
C876 C874 1.420 . S
C876 C880 1.429 . S
H877 C882 0.930 . S
N878 Eu840 2.609 . S
N878 C880 1.377 . S
N878 C881 1.321 1_545 S
C879 H865 0.930 . S
C879 C881 1.400 . S
C879 C882 1.386 . S
C880 C876 1.429 . S
C880 N878 1.377 . S
C880 C883 1.411 . S
C881 H863 0.930 . S
C881 N878 1.321 1_565 S
C881 C879 1.400 . S
C882 H877 0.930 . S
C882 C879 1.386 . S
C882 C883 1.395 1_565 S
C883 C880 1.411 . S
C883 C882 1.395 1_545 S
C883 C905 1.420 . S
O884 Eu840 2.567 . S
O884 C904 1.265 . S
O885 Eu840 2.612 . S
O885 Eu851 2.380 1_554 S
O885 C896 1.276 . S
O886 Eu851 2.432 1_554 S
O886 C903 1.264 . S
O887 Eu840 2.339 . S
O887 C903 1.254 . S
O888 Eu840 2.563 . S
O888 C896 1.235 . S
O889 Eu840 2.419 . S
O889 C904 1.249 . S
O890 Eu851 2.558 . S
O890 C915 1.257 . S
O891 Eu840 2.380 . S
O891 Eu851 2.612 1_554 S
O891 C907 1.276 . S
O892 Eu840 2.432 1_565 S
O892 C914 1.265 1_564 S
O893 Eu851 2.339 . S
O893 C914 1.250 . S
O894 Eu851 2.563 . S
O894 C907 1.235 1_556 S
O895 Eu851 2.419 . S
O895 C915 1.249 . S
C896 O885 1.276 . S
C896 O888 1.235 . S
C897 C899 1.393 . S
C897 C901 1.395 1_545 S
C897 C904 1.492 . S
C898 C899 1.392 . S
C898 C900 1.386 1_545 S
C899 C897 1.393 . S
C899 C898 1.392 . S
C899 H916 0.930 . S
C900 C898 1.386 1_565 S
C900 C902 1.395 . S
C900 H917 0.930 . S
C901 C897 1.395 1_565 S
C901 C902 1.379 . S
C901 H918 0.930 . S
C902 C900 1.395 . S
C902 C901 1.379 . S
C902 H919 0.930 . S
C903 O886 1.264 . S
C903 O887 1.254 . S
C904 Eu840 2.848 . S
C904 O884 1.265 . S
C904 O889 1.249 . S
C904 C897 1.492 . S
C905 H870 0.931 . S
C905 C883 1.420 . S
C905 C906 1.351 . S
C906 H868 0.930 . S
C906 C874 1.423 . S
C906 C905 1.351 . S
C907 O891 1.276 . S
C907 O894 1.235 1_554 S
C908 C909 1.393 . S
C908 C912 1.395 . S
C908 C915 1.492 . S
C909 C908 1.393 . S
C909 C910 1.392 . S
C909 H920 0.930 . S
C910 C909 1.392 . S
C910 C911 1.386 . S
C911 C910 1.386 . S
C911 C913 1.395 . S
C911 H921 0.930 . S
C912 C908 1.395 . S
C912 C913 1.379 . S
C912 H922 0.930 . S
C913 C911 1.395 . S
C913 C912 1.379 . S
C913 H923 0.930 . S
C914 O892 1.265 1_546 S
C914 O893 1.250 . S
C915 Eu851 2.848 . S
C915 O890 1.257 . S
C915 O895 1.249 . S
C915 C908 1.492 . S
H916 C899 0.930 . S
H917 C900 0.930 . S
H918 C901 0.930 . S
H919 C902 0.930 . S
H920 C909 0.930 . S
H921 C911 0.930 . S
H922 C912 0.930 . S
H923 C913 0.930 . S
Eu924 N955 2.657 . S
Eu924 N962 2.609 . S
Eu924 O968 2.558 . S
Eu924 O969 2.612 . S
Eu924 O971 2.339 . S
Eu924 O972 2.563 . S
Eu924 O973 2.419 . S
Eu924 O975 2.380 . S
Eu924 O976 2.432 . S
Eu924 C988 2.848 . S
C925 C928 1.429 . S
C925 C929 1.411 . S
C925 N932 1.377 . S
C926 C928 1.420 . S
C926 C930 1.423 . S
C926 C938 1.392 . S
C927 C929 1.420 . S
C927 C930 1.351 . S
C927 H950 0.931 . S
C928 C925 1.429 . S
C928 C926 1.420 . S
C928 N936 1.362 . S
C929 C925 1.411 . S
C929 C927 1.420 . S
C929 C934 1.395 . S
C930 C926 1.423 . S
C930 C927 1.351 . S
C930 H942 0.930 . S
C931 C933 1.400 . S
C931 C934 1.386 . S
C931 H943 0.930 . S
N932 C925 1.377 . S
N932 C933 1.321 . S
N932 Eu935 2.609 . S
C933 C931 1.400 . S
C933 N932 1.321 . S
C933 H940 0.930 . S
C934 C929 1.395 . S
C934 C931 1.386 . S
C934 H953 0.930 . S
Eu935 N932 2.609 . S
Eu935 N936 2.657 . S
Eu935 O969 2.380 . S
Eu935 O970 2.432 . S
Eu935 O974 2.558 . S
Eu935 O975 2.612 . S
Eu935 O977 2.339 . S
Eu935 O978 2.563 . S
Eu935 O979 2.419 . S
Eu935 C999 2.848 . S
N936 C928 1.362 . S
N936 Eu935 2.657 . S
N936 C937 1.334 . S
C937 N936 1.334 . S
C937 C939 1.413 . S
C937 H944 0.929 . S
C938 C926 1.392 . S
C938 C939 1.367 . S
C938 H946 0.930 . S
C939 C937 1.413 . S
C939 C938 1.367 . S
C939 H941 0.930 . S
H940 C933 0.930 . S
H941 C939 0.930 . S
H942 C930 0.930 . S
H943 C931 0.930 . S
H944 C937 0.929 . S
H945 C959 0.930 . S
H946 C938 0.930 . S
H947 C965 0.930 . S
H948 C956 0.929 . S
H949 C963 0.930 . S
H950 C927 0.931 . S
H951 C957 0.930 . S
H952 C990 0.930 . S
H953 C934 0.930 . S
H954 C989 0.931 . S
N955 Eu924 2.657 . S
N955 C956 1.334 . S
N955 C960 1.362 . S
C956 H948 0.929 . S
C956 N955 1.334 . S
C956 C959 1.413 . S
C957 H951 0.930 . S
C957 C958 1.392 . S
C957 C959 1.367 . S
C958 C957 1.392 . S
C958 C960 1.420 . S
C958 C990 1.423 . S
C959 H945 0.930 . S
C959 C956 1.413 . S
C959 C957 1.367 . S
C960 N955 1.362 . S
C960 C958 1.420 . S
C960 C964 1.429 . S
H961 C966 0.930 . S
N962 Eu924 2.609 . S
N962 C964 1.377 . S
N962 C965 1.321 . S
C963 H949 0.930 . S
C963 C965 1.400 . S
C963 C966 1.386 . S
C964 C960 1.429 . S
C964 N962 1.377 . S
C964 C967 1.411 . S
C965 H947 0.930 . S
C965 N962 1.321 . S
C965 C963 1.400 . S
C966 H961 0.930 . S
C966 C963 1.386 . S
C966 C967 1.395 . S
C967 C964 1.411 . S
C967 C966 1.395 . S
C967 C989 1.420 . S
O968 Eu924 2.558 . S
O968 C988 1.257 . S
O969 Eu924 2.612 . S
O969 Eu935 2.380 . S
O969 C980 1.276 . S
O970 Eu935 2.432 . S
O970 C987 1.264 . S
O971 Eu924 2.339 . S
O971 C987 1.254 . S
O972 Eu924 2.563 . S
O972 C980 1.235 . S
O973 Eu924 2.419 . S
O973 C988 1.249 . S
O974 Eu935 2.558 . S
O974 C999 1.257 . S
O975 Eu924 2.380 . S
O975 Eu935 2.612 . S
O975 C991 1.276 . S
O976 Eu924 2.432 . S
O976 C998 1.264 . S
O977 Eu935 2.339 . S
O977 C998 1.254 . S
O978 Eu935 2.563 . S
O978 C991 1.235 . S
O979 Eu935 2.419 . S
O979 C999 1.249 . S
C980 O969 1.276 . S
C980 O972 1.235 . S
C981 C983 1.393 . S
C981 C985 1.395 . S
C981 C988 1.492 . S
C982 C983 1.392 . S
C982 C984 1.386 . S
C983 C981 1.393 . S
C983 C982 1.392 . S
C983 H1000 0.930 . S
C984 C982 1.386 . S
C984 C986 1.395 . S
C984 H1001 0.930 . S
C985 C981 1.395 . S
C985 C986 1.379 . S
C985 H1002 0.930 . S
C986 C984 1.395 . S
C986 C985 1.379 . S
C986 H1003 0.930 . S
C987 O970 1.264 . S
C987 O971 1.254 . S
C988 Eu924 2.848 . S
C988 O968 1.257 . S
C988 O973 1.249 . S
C988 C981 1.492 . S
C989 H954 0.931 . S
C989 C967 1.420 . S
C989 C990 1.351 . S
C990 H952 0.930 . S
C990 C958 1.423 . S
C990 C989 1.351 . S
C991 O975 1.276 . S
C991 O978 1.235 . S
C992 C993 1.393 . S
C992 C996 1.395 . S
C992 C999 1.492 . S
C993 C992 1.393 . S
C993 C994 1.392 . S
C993 H1004 0.930 . S
C994 C993 1.392 . S
C994 C995 1.386 . S
C995 C994 1.386 . S
C995 C997 1.395 . S
C995 H1005 0.930 . S
C996 C992 1.395 . S
C996 C997 1.379 . S
C996 H1006 0.930 . S
C997 C995 1.395 . S
C997 C996 1.379 . S
C997 H1007 0.930 . S
C998 O976 1.264 . S
C998 O977 1.254 . S
C999 Eu935 2.848 . S
C999 O974 1.257 . S
C999 O979 1.249 . S
C999 C992 1.492 . S
H1000 C983 0.930 . S
H1001 C984 0.930 . S
H1002 C985 0.930 . S
H1003 C986 0.930 . S
H1004 C993 0.930 . S
H1005 C995 0.930 . S
H1006 C996 0.930 . S
H1007 C997 0.930 . S
Eu1008 N1039 2.657 . S
Eu1008 N1046 2.609 . S
Eu1008 O1052 2.558 . S
Eu1008 O1053 2.612 1_554 S
Eu1008 O1055 2.339 . S
Eu1008 O1056 2.563 1_554 S
Eu1008 O1057 2.419 . S
Eu1008 O1059 2.380 . S
Eu1008 O1060 2.432 . S
Eu1008 C1072 2.848 . S
C1009 C1012 1.429 . S
C1009 C1013 1.411 . S
C1009 N1016 1.377 . S
C1010 C1012 1.420 . S
C1010 C1014 1.423 . S
C1010 C1022 1.392 . S
C1011 C1013 1.420 . S
C1011 C1014 1.351 . S
C1011 H1034 0.931 . S
C1012 C1009 1.429 . S
C1012 C1010 1.420 . S
C1012 N1020 1.362 . S
C1013 C1009 1.411 . S
C1013 C1011 1.420 . S
C1013 C1018 1.395 . S
C1014 C1010 1.423 . S
C1014 C1011 1.351 . S
C1014 H1026 0.930 . S
C1015 C1017 1.400 . S
C1015 C1018 1.386 . S
C1015 H1027 0.930 . S
N1016 C1009 1.377 . S
N1016 C1017 1.321 . S
N1016 Eu1019 2.609 1_556 S
C1017 C1015 1.400 . S
C1017 N1016 1.321 . S
C1017 H1024 0.930 . S
C1018 C1013 1.395 . S
C1018 C1015 1.386 . S
C1018 H1037 0.930 . S
Eu1019 N1016 2.609 1_554 S
Eu1019 N1020 2.657 1_554 S
Eu1019 O1053 2.380 1_554 S
Eu1019 O1054 2.432 . S
Eu1019 O1058 2.558 . S
Eu1019 O1059 2.612 . S
Eu1019 O1061 2.339 . S
Eu1019 O1062 2.563 . S
Eu1019 O1063 2.419 . S
Eu1019 C1083 2.848 . S
N1020 C1012 1.362 . S
N1020 Eu1019 2.657 1_556 S
N1020 C1021 1.334 . S
C1021 N1020 1.334 . S
C1021 C1023 1.413 . S
C1021 H1028 0.929 . S
C1022 C1010 1.392 . S
C1022 C1023 1.367 . S
C1022 H1030 0.930 . S
C1023 C1021 1.413 . S
C1023 C1022 1.367 . S
C1023 H1025 0.930 . S
H1024 C1017 0.930 . S
H1025 C1023 0.930 . S
H1026 C1014 0.930 . S
H1027 C1015 0.930 . S
H1028 C1021 0.929 . S
H1029 C1043 0.930 . S
H1030 C1022 0.930 . S
H1031 C1049 0.930 . S
H1032 C1040 0.929 . S
H1033 C1047 0.930 . S
H1034 C1011 0.931 . S
H1035 C1041 0.930 . S
H1036 C1074 0.930 . S
H1037 C1018 0.930 . S
H1038 C1073 0.931 . S
N1039 Eu1008 2.657 . S
N1039 C1040 1.334 . S
N1039 C1044 1.362 . S
C1040 H1032 0.929 . S
C1040 N1039 1.334 . S
C1040 C1043 1.413 . S
C1041 H1035 0.930 . S
C1041 C1042 1.392 . S
C1041 C1043 1.367 . S
C1042 C1041 1.392 . S
C1042 C1044 1.420 . S
C1042 C1074 1.423 . S
C1043 H1029 0.930 . S
C1043 C1040 1.413 . S
C1043 C1041 1.367 . S
C1044 N1039 1.362 . S
C1044 C1042 1.420 . S
C1044 C1048 1.429 . S
H1045 C1050 0.930 . S
N1046 Eu1008 2.609 . S
N1046 C1048 1.377 . S
N1046 C1049 1.321 . S
C1047 H1033 0.930 . S
C1047 C1049 1.400 . S
C1047 C1050 1.386 . S
C1048 C1044 1.429 . S
C1048 N1046 1.377 . S
C1048 C1051 1.411 . S
C1049 H1031 0.930 . S
C1049 N1046 1.321 . S
C1049 C1047 1.400 . S
C1050 H1045 0.930 . S
C1050 C1047 1.386 . S
C1050 C1051 1.395 . S
C1051 C1048 1.411 . S
C1051 C1050 1.395 . S
C1051 C1073 1.420 . S
O1052 Eu1008 2.558 . S
O1052 C1072 1.257 . S
O1053 Eu1008 2.612 1_556 S
O1053 Eu1019 2.380 1_556 S
O1053 C1064 1.276 . S
O1054 Eu1019 2.432 . S
O1054 C1071 1.264 . S
O1055 Eu1008 2.339 . S
O1055 C1071 1.254 . S
O1056 Eu1008 2.563 1_556 S
O1056 C1064 1.235 . S
O1057 Eu1008 2.419 . S
O1057 C1072 1.249 . S
O1058 Eu1019 2.558 . S
O1058 C1083 1.257 . S
O1059 Eu1008 2.380 . S
O1059 Eu1019 2.612 . S
O1059 C1075 1.276 . S
O1060 Eu1008 2.432 . S
O1060 C1082 1.264 . S
O1061 Eu1019 2.339 . S
O1061 C1082 1.254 . S
O1062 Eu1019 2.563 . S
O1062 C1075 1.235 . S
O1063 Eu1019 2.419 . S
O1063 C1083 1.249 . S
C1064 O1053 1.276 . S
C1064 O1056 1.235 . S
C1065 C1067 1.393 . S
C1065 C1069 1.395 . S
C1065 C1072 1.492 . S
C1066 C1067 1.392 1_556 S
C1066 C1068 1.386 1_556 S
C1067 C1065 1.393 . S
C1067 C1066 1.392 1_554 S
C1067 H1084 0.930 1_554 S
C1068 C1066 1.386 1_554 S
C1068 C1070 1.395 . S
C1068 H1085 0.915 1_554 S
C1069 C1065 1.395 . S
C1069 C1070 1.379 . S
C1069 H1086 0.930 . S
C1070 C1068 1.395 . S
C1070 C1069 1.379 . S
C1070 H1087 0.930 . S
C1071 O1054 1.264 . S
C1071 O1055 1.254 . S
C1072 Eu1008 2.848 . S
C1072 O1052 1.257 . S
C1072 O1057 1.249 . S
C1072 C1065 1.492 . S
C1073 H1038 0.931 . S
C1073 C1051 1.420 . S
C1073 C1074 1.351 . S
C1074 H1036 0.930 . S
C1074 C1042 1.423 . S
C1074 C1073 1.351 . S
C1075 O1059 1.276 . S
C1075 O1062 1.235 . S
C1076 C1077 1.393 . S
C1076 C1080 1.395 . S
C1076 C1083 1.492 . S
C1077 C1076 1.393 . S
C1077 C1078 1.392 . S
C1077 H1088 0.930 . S
C1078 C1077 1.392 . S
C1078 C1079 1.386 . S
C1079 C1078 1.386 . S
C1079 C1081 1.395 . S
C1079 H1089 0.930 . S
C1080 C1076 1.395 . S
C1080 C1081 1.379 . S
C1080 H1090 0.962 . S
C1081 C1079 1.395 . S
C1081 C1080 1.379 . S
C1081 H1091 0.930 . S
C1082 O1060 1.264 . S
C1082 O1061 1.254 . S
C1083 Eu1019 2.848 . S
C1083 O1058 1.257 . S
C1083 O1063 1.249 . S
C1083 C1076 1.492 . S
H1084 C1067 0.930 1_556 S
H1085 C1068 0.915 1_556 S
H1086 C1069 0.930 . S
H1087 C1070 0.930 . S
H1088 C1077 0.930 . S
H1089 C1079 0.930 . S
H1090 C1080 0.962 . S
H1091 C1081 0.930 . S
Eu1092 N1123 2.657 . S
Eu1092 N1130 2.609 . S
Eu1092 O1136 2.558 . S
Eu1092 O1137 2.612 . S
Eu1092 O1139 2.339 . S
Eu1092 O1140 2.563 . S
Eu1092 O1141 2.419 . S
Eu1092 O1143 2.380 . S
Eu1092 O1144 2.432 . S
Eu1092 C1156 2.848 . S
C1093 C1096 1.429 . S
C1093 C1097 1.411 . S
C1093 N1100 1.377 . S
C1094 C1096 1.420 . S
C1094 C1098 1.423 . S
C1094 C1106 1.392 . S
C1095 C1097 1.420 . S
C1095 C1098 1.351 . S
C1095 H1118 0.931 . S
C1096 C1093 1.429 . S
C1096 C1094 1.420 . S
C1096 N1104 1.362 . S
C1097 C1093 1.411 . S
C1097 C1095 1.420 . S
C1097 C1102 1.395 . S
C1098 C1094 1.423 . S
C1098 C1095 1.351 . S
C1098 H1110 0.930 . S
C1099 C1101 1.400 . S
C1099 C1102 1.386 . S
C1099 H1111 0.930 . S
N1100 C1093 1.377 . S
N1100 C1101 1.321 . S
N1100 Eu1103 2.609 . S
C1101 C1099 1.400 . S
C1101 N1100 1.321 . S
C1101 H1108 0.930 . S
C1102 C1097 1.395 . S
C1102 C1099 1.386 . S
C1102 H1121 0.930 . S
Eu1103 N1100 2.609 . S
Eu1103 N1104 2.657 . S
Eu1103 O1137 2.380 . S
Eu1103 O1138 2.432 . S
Eu1103 O1142 2.558 . S
Eu1103 O1143 2.612 . S
Eu1103 O1145 2.339 . S
Eu1103 O1146 2.563 . S
Eu1103 O1147 2.419 . S
Eu1103 C1167 2.848 . S
N1104 C1096 1.362 . S
N1104 Eu1103 2.657 . S
N1104 C1105 1.334 . S
C1105 N1104 1.334 . S
C1105 C1107 1.413 . S
C1105 H1112 0.929 . S
C1106 C1094 1.392 . S
C1106 C1107 1.367 . S
C1106 H1114 0.930 . S
C1107 C1105 1.413 . S
C1107 C1106 1.367 . S
C1107 H1109 0.930 . S
H1108 C1101 0.930 . S
H1109 C1107 0.930 . S
H1110 C1098 0.930 . S
H1111 C1099 0.930 . S
H1112 C1105 0.929 . S
H1113 C1127 0.930 . S
H1114 C1106 0.930 . S
H1115 C1133 0.930 . S
H1116 C1124 0.929 . S
H1117 C1131 0.930 . S
H1118 C1095 0.931 . S
H1119 C1125 0.930 . S
H1120 C1158 0.930 . S
H1121 C1102 0.930 . S
H1122 C1157 0.931 . S
N1123 Eu1092 2.657 . S
N1123 C1124 1.334 . S
N1123 C1128 1.362 . S
C1124 H1116 0.929 . S
C1124 N1123 1.334 . S
C1124 C1127 1.413 . S
C1125 H1119 0.930 . S
C1125 C1126 1.392 . S
C1125 C1127 1.367 . S
C1126 C1125 1.392 . S
C1126 C1128 1.420 . S
C1126 C1158 1.423 . S
C1127 H1113 0.930 . S
C1127 C1124 1.413 . S
C1127 C1125 1.367 . S
C1128 N1123 1.362 . S
C1128 C1126 1.420 . S
C1128 C1132 1.429 . S
H1129 C1134 0.930 . S
N1130 Eu1092 2.609 . S
N1130 C1132 1.377 . S
N1130 C1133 1.321 . S
C1131 H1117 0.930 . S
C1131 C1133 1.400 . S
C1131 C1134 1.386 . S
C1132 C1128 1.429 . S
C1132 N1130 1.377 . S
C1132 C1135 1.411 . S
C1133 H1115 0.930 . S
C1133 N1130 1.321 . S
C1133 C1131 1.400 . S
C1134 H1129 0.930 . S
C1134 C1131 1.386 . S
C1134 C1135 1.395 . S
C1135 C1132 1.411 . S
C1135 C1134 1.395 . S
C1135 C1157 1.420 . S
O1136 Eu1092 2.558 . S
O1136 C1156 1.257 . S
O1137 Eu1092 2.612 . S
O1137 Eu1103 2.380 . S
O1137 C1148 1.276 . S
O1138 Eu1103 2.432 . S
O1138 C1155 1.264 . S
O1139 Eu1092 2.339 . S
O1139 C1155 1.254 . S
O1140 Eu1092 2.563 . S
O1140 C1148 1.235 . S
O1141 Eu1092 2.419 . S
O1141 C1156 1.249 . S
O1142 Eu1103 2.558 . S
O1142 C1167 1.257 . S
O1143 Eu1092 2.380 . S
O1143 Eu1103 2.612 . S
O1143 C1159 1.276 . S
O1144 Eu1092 2.432 . S
O1144 C1166 1.264 . S
O1145 Eu1103 2.339 . S
O1145 C1166 1.254 . S
O1146 Eu1103 2.563 . S
O1146 C1159 1.235 . S
O1147 Eu1103 2.419 . S
O1147 C1167 1.249 . S
C1148 O1137 1.276 . S
C1148 O1140 1.235 . S
C1149 C1151 1.393 . S
C1149 C1153 1.395 . S
C1149 C1156 1.492 . S
C1150 C1151 1.392 . S
C1150 C1152 1.386 . S
C1151 C1149 1.393 . S
C1151 C1150 1.392 . S
C1151 H1168 0.930 . S
C1152 C1150 1.386 . S
C1152 C1154 1.395 . S
C1152 H1169 0.930 . S
C1153 C1149 1.395 . S
C1153 C1154 1.379 . S
C1153 H1170 0.930 . S
C1154 C1152 1.395 . S
C1154 C1153 1.379 . S
C1154 H1171 0.930 . S
C1155 O1138 1.264 . S
C1155 O1139 1.254 . S
C1156 Eu1092 2.848 . S
C1156 O1136 1.257 . S
C1156 O1141 1.249 . S
C1156 C1149 1.492 . S
C1157 H1122 0.931 . S
C1157 C1135 1.420 . S
C1157 C1158 1.351 . S
C1158 H1120 0.930 . S
C1158 C1126 1.423 . S
C1158 C1157 1.351 . S
C1159 O1143 1.276 . S
C1159 O1146 1.235 . S
C1160 C1161 1.393 . S
C1160 C1164 1.395 . S
C1160 C1167 1.492 . S
C1161 C1160 1.393 . S
C1161 C1162 1.392 . S
C1161 H1172 0.930 . S
C1162 C1161 1.392 . S
C1162 C1163 1.386 . S
C1163 C1162 1.386 . S
C1163 C1165 1.395 . S
C1163 H1173 0.930 . S
C1164 C1160 1.395 . S
C1164 C1165 1.379 . S
C1164 H1174 0.930 . S
C1165 C1163 1.395 . S
C1165 C1164 1.379 . S
C1165 H1175 0.930 . S
C1166 O1144 1.264 . S
C1166 O1145 1.254 . S
C1167 Eu1103 2.848 . S
C1167 O1142 1.257 . S
C1167 O1147 1.249 . S
C1167 C1160 1.492 . S
H1168 C1151 0.930 . S
H1169 C1152 0.930 . S
H1170 C1153 0.930 . S
H1171 C1154 0.930 . S
H1172 C1161 0.930 . S
H1173 C1163 0.930 . S
H1174 C1164 0.930 . S
H1175 C1165 0.930 . S
Eu1176 N1207 2.657 . S
Eu1176 N1214 2.609 . S
Eu1176 O1220 2.558 . S
Eu1176 O1221 2.612 . S
Eu1176 O1223 2.339 . S
Eu1176 O1224 2.563 . S
Eu1176 O1225 2.419 . S
Eu1176 O1227 2.380 . S
Eu1176 O1228 2.432 . S
Eu1176 C1240 2.848 . S
C1177 C1180 1.429 1_455 S
C1177 C1181 1.412 1_455 S
C1177 N1184 1.376 . S
C1178 C1180 1.420 . S
C1178 C1182 1.423 . S
C1178 C1190 1.392 . S
C1179 C1181 1.420 . S
C1179 C1182 1.351 . S
C1179 H1202 0.931 . S
C1180 C1177 1.429 1_655 S
C1180 C1178 1.420 . S
C1180 N1188 1.362 1_655 S
C1181 C1177 1.412 1_655 S
C1181 C1179 1.420 . S
C1181 C1186 1.395 . S
C1182 C1178 1.423 . S
C1182 C1179 1.351 . S
C1182 H1194 0.930 . S
C1183 C1185 1.400 . S
C1183 C1186 1.386 1_455 S
C1183 H1195 0.930 . S
N1184 C1177 1.376 . S
N1184 C1185 1.321 . S
N1184 Eu1187 2.609 . S
C1185 C1183 1.400 . S
C1185 N1184 1.321 . S
C1185 H1192 0.930 . S
C1186 C1181 1.395 . S
C1186 C1183 1.386 1_655 S
C1186 H1205 0.930 . S
Eu1187 N1184 2.609 . S
Eu1187 N1188 2.657 . S
Eu1187 O1221 2.380 . S
Eu1187 O1222 2.432 . S
Eu1187 O1226 2.558 . S
Eu1187 O1227 2.612 . S
Eu1187 O1229 2.339 . S
Eu1187 O1230 2.563 . S
Eu1187 O1231 2.419 . S
Eu1187 C1251 2.848 . S
N1188 C1180 1.362 1_455 S
N1188 Eu1187 2.657 . S
N1188 C1189 1.334 . S
C1189 N1188 1.334 . S
C1189 C1191 1.413 1_455 S
C1189 H1196 0.929 . S
C1190 C1178 1.392 . S
C1190 C1191 1.367 . S
C1190 H1198 0.930 . S
C1191 C1189 1.413 1_655 S
C1191 C1190 1.367 . S
C1191 H1193 0.930 . S
H1192 C1185 0.930 . S
H1193 C1191 0.930 . S
H1194 C1182 0.930 . S
H1195 C1183 0.930 . S
H1196 C1189 0.929 . S
H1197 C1211 0.930 . S
H1198 C1190 0.930 . S
H1199 C1217 0.930 . S
H1200 C1208 0.929 . S
H1201 C1215 0.930 . S
H1202 C1179 0.931 . S
H1203 C1209 0.930 . S
H1204 C1242 0.930 . S
H1205 C1186 0.930 . S
H1206 C1241 0.931 . S
N1207 Eu1176 2.657 . S
N1207 C1208 1.334 . S
N1207 C1212 1.362 . S
C1208 H1200 0.929 . S
C1208 N1207 1.334 . S
C1208 C1211 1.413 . S
C1209 H1203 0.930 . S
C1209 C1210 1.392 . S
C1209 C1211 1.367 . S
C1210 C1209 1.392 . S
C1210 C1212 1.420 . S
C1210 C1242 1.423 . S
C1211 H1197 0.930 . S
C1211 C1208 1.413 . S
C1211 C1209 1.367 . S
C1212 N1207 1.362 . S
C1212 C1210 1.420 . S
C1212 C1216 1.429 . S
H1213 C1218 0.930 . S
N1214 Eu1176 2.609 . S
N1214 C1216 1.377 . S
N1214 C1217 1.321 . S
C1215 H1201 0.930 . S
C1215 C1217 1.400 . S
C1215 C1218 1.386 . S
C1216 C1212 1.429 . S
C1216 N1214 1.377 . S
C1216 C1219 1.411 . S
C1217 H1199 0.930 . S
C1217 N1214 1.321 . S
C1217 C1215 1.400 . S
C1218 H1213 0.930 . S
C1218 C1215 1.386 . S
C1218 C1219 1.395 . S
C1219 C1216 1.411 . S
C1219 C1218 1.395 . S
C1219 C1241 1.420 . S
O1220 Eu1176 2.558 . S
O1220 C1240 1.257 . S
O1221 Eu1176 2.612 . S
O1221 Eu1187 2.380 . S
O1221 C1232 1.276 . S
O1222 Eu1187 2.432 . S
O1222 C1239 1.264 . S
O1223 Eu1176 2.339 . S
O1223 C1239 1.254 . S
O1224 Eu1176 2.563 . S
O1224 C1232 1.235 . S
O1225 Eu1176 2.419 . S
O1225 C1240 1.249 . S
O1226 Eu1187 2.558 . S
O1226 C1251 1.257 . S
O1227 Eu1176 2.380 . S
O1227 Eu1187 2.612 . S
O1227 C1243 1.276 . S
O1228 Eu1176 2.432 . S
O1228 C1250 1.264 . S
O1229 Eu1187 2.339 . S
O1229 C1250 1.254 . S
O1230 Eu1187 2.563 . S
O1230 C1243 1.235 . S
O1231 Eu1187 2.419 . S
O1231 C1251 1.249 . S
C1232 O1221 1.276 . S
C1232 O1224 1.235 . S
C1233 C1235 1.393 . S
C1233 C1237 1.395 . S
C1233 C1240 1.492 . S
C1234 C1235 1.392 . S
C1234 C1236 1.386 . S
C1235 C1233 1.393 . S
C1235 C1234 1.392 . S
C1235 H1252 0.930 . S
C1236 C1234 1.386 . S
C1236 C1238 1.395 . S
C1236 H1253 0.930 . S
C1237 C1233 1.395 . S
C1237 C1238 1.379 . S
C1237 H1254 0.930 . S
C1238 C1236 1.395 . S
C1238 C1237 1.379 . S
C1238 H1255 0.930 . S
C1239 O1222 1.264 . S
C1239 O1223 1.254 . S
C1240 Eu1176 2.848 . S
C1240 O1220 1.257 . S
C1240 O1225 1.249 . S
C1240 C1233 1.492 . S
C1241 H1206 0.931 . S
C1241 C1219 1.420 . S
C1241 C1242 1.351 . S
C1242 H1204 0.930 . S
C1242 C1210 1.423 . S
C1242 C1241 1.351 . S
C1243 O1227 1.276 . S
C1243 O1230 1.235 . S
C1244 C1245 1.393 . S
C1244 C1248 1.395 . S
C1244 C1251 1.492 . S
C1245 C1244 1.393 . S
C1245 C1246 1.392 . S
C1245 H1256 0.930 . S
C1246 C1245 1.392 . S
C1246 C1247 1.386 . S
C1247 C1246 1.386 . S
C1247 C1249 1.395 . S
C1247 H1257 0.930 . S
C1248 C1244 1.395 . S
C1248 C1249 1.379 . S
C1248 H1258 0.930 . S
C1249 C1247 1.395 . S
C1249 C1248 1.379 . S
C1249 H1259 0.930 . S
C1250 O1228 1.264 . S
C1250 O1229 1.254 . S
C1251 Eu1187 2.848 . S
C1251 O1226 1.257 . S
C1251 O1231 1.249 . S
C1251 C1244 1.492 . S
H1252 C1235 0.930 . S
H1253 C1236 0.930 . S
H1254 C1237 0.930 . S
H1255 C1238 0.930 . S
H1256 C1245 0.930 . S
H1257 C1247 0.930 . S
H1258 C1248 0.930 . S
H1259 C1249 0.930 . S
Eu1260 N1291 2.657 . S
Eu1260 N1298 2.609 . S
Eu1260 O1304 2.558 . S
Eu1260 O1305 2.612 . S
Eu1260 O1307 2.339 . S
Eu1260 O1308 2.563 . S
Eu1260 O1309 2.419 . S
Eu1260 O1311 2.380 . S
Eu1260 O1312 2.432 . S
Eu1260 C1324 2.848 . S
C1261 C1264 1.429 . S
C1261 C1265 1.411 . S
C1261 N1268 1.377 . S
C1262 C1264 1.420 . S
C1262 C1266 1.423 . S
C1262 C1274 1.392 . S
C1263 C1265 1.420 . S
C1263 C1266 1.351 . S
C1263 H1286 0.931 . S
C1264 C1261 1.429 . S
C1264 C1262 1.420 . S
C1264 N1272 1.362 . S
C1265 C1261 1.411 . S
C1265 C1263 1.420 . S
C1265 C1270 1.395 . S
C1266 C1262 1.423 . S
C1266 C1263 1.351 . S
C1266 H1278 0.930 . S
C1267 C1269 1.400 . S
C1267 C1270 1.386 . S
C1267 H1279 0.930 . S
N1268 C1261 1.377 . S
N1268 C1269 1.321 . S
N1268 Eu1271 2.609 . S
C1269 C1267 1.400 . S
C1269 N1268 1.321 . S
C1269 H1276 0.930 . S
C1270 C1265 1.395 . S
C1270 C1267 1.386 . S
C1270 H1289 0.930 . S
Eu1271 N1268 2.609 . S
Eu1271 N1272 2.657 . S
Eu1271 O1305 2.380 . S
Eu1271 O1306 2.432 . S
Eu1271 O1310 2.558 . S
Eu1271 O1311 2.612 . S
Eu1271 O1313 2.339 . S
Eu1271 O1314 2.563 . S
Eu1271 O1315 2.419 . S
Eu1271 C1335 2.848 . S
N1272 C1264 1.362 . S
N1272 Eu1271 2.657 . S
N1272 C1273 1.334 . S
C1273 N1272 1.334 . S
C1273 C1275 1.413 . S
C1273 H1280 0.929 . S
C1274 C1262 1.392 . S
C1274 C1275 1.367 . S
C1274 H1282 0.930 . S
C1275 C1273 1.413 . S
C1275 C1274 1.367 . S
C1275 H1277 0.930 . S
H1276 C1269 0.930 . S
H1277 C1275 0.930 . S
H1278 C1266 0.930 . S
H1279 C1267 0.930 . S
H1280 C1273 0.929 . S
H1281 C1295 0.930 . S
H1282 C1274 0.930 . S
H1283 C1301 0.930 . S
H1284 C1292 0.929 . S
H1285 C1299 0.930 . S
H1286 C1263 0.931 . S
H1287 C1293 0.930 . S
H1288 C1326 0.930 . S
H1289 C1270 0.930 . S
H1290 C1325 0.931 . S
N1291 Eu1260 2.657 . S
N1291 C1292 1.334 . S
N1291 C1296 1.362 . S
C1292 H1284 0.929 . S
C1292 N1291 1.334 . S
C1292 C1295 1.413 . S
C1293 H1287 0.930 . S
C1293 C1294 1.392 . S
C1293 C1295 1.367 . S
C1294 C1293 1.392 . S
C1294 C1296 1.420 . S
C1294 C1326 1.423 . S
C1295 H1281 0.930 . S
C1295 C1292 1.413 . S
C1295 C1293 1.367 . S
C1296 N1291 1.362 . S
C1296 C1294 1.420 . S
C1296 C1300 1.429 . S
H1297 C1302 0.930 . S
N1298 Eu1260 2.609 . S
N1298 C1300 1.377 . S
N1298 C1301 1.321 . S
C1299 H1285 0.930 . S
C1299 C1301 1.400 . S
C1299 C1302 1.386 . S
C1300 C1296 1.429 . S
C1300 N1298 1.377 . S
C1300 C1303 1.411 . S
C1301 H1283 0.930 . S
C1301 N1298 1.321 . S
C1301 C1299 1.400 . S
C1302 H1297 0.930 . S
C1302 C1299 1.386 . S
C1302 C1303 1.395 . S
C1303 C1300 1.411 . S
C1303 C1302 1.395 . S
C1303 C1325 1.420 . S
O1304 Eu1260 2.558 . S
O1304 C1324 1.257 . S
O1305 Eu1260 2.612 . S
O1305 Eu1271 2.380 . S
O1305 C1316 1.276 . S
O1306 Eu1271 2.432 . S
O1306 C1323 1.264 . S
O1307 Eu1260 2.339 . S
O1307 C1323 1.254 . S
O1308 Eu1260 2.563 . S
O1308 C1316 1.235 . S
O1309 Eu1260 2.419 . S
O1309 C1324 1.249 . S
O1310 Eu1271 2.558 . S
O1310 C1335 1.257 . S
O1311 Eu1260 2.380 . S
O1311 Eu1271 2.612 . S
O1311 C1327 1.276 . S
O1312 Eu1260 2.432 . S
O1312 C1334 1.264 . S
O1313 Eu1271 2.339 . S
O1313 C1334 1.254 . S
O1314 Eu1271 2.563 . S
O1314 C1327 1.235 . S
O1315 Eu1271 2.419 . S
O1315 C1335 1.249 . S
C1316 O1305 1.276 . S
C1316 O1308 1.235 . S
C1317 C1319 1.393 . S
C1317 C1321 1.395 . S
C1317 C1324 1.492 . S
C1318 C1319 1.392 . S
C1318 C1320 1.386 . S
C1319 C1317 1.393 . S
C1319 C1318 1.392 . S
C1319 H1336 0.930 . S
C1320 C1318 1.386 . S
C1320 C1322 1.395 . S
C1320 H1337 0.930 . S
C1321 C1317 1.395 . S
C1321 C1322 1.379 . S
C1321 H1338 0.930 . S
C1322 C1320 1.395 . S
C1322 C1321 1.379 . S
C1322 H1339 0.930 . S
C1323 O1306 1.264 . S
C1323 O1307 1.254 . S
C1324 Eu1260 2.848 . S
C1324 O1304 1.257 . S
C1324 O1309 1.249 . S
C1324 C1317 1.492 . S
C1325 H1290 0.931 . S
C1325 C1303 1.420 . S
C1325 C1326 1.351 . S
C1326 H1288 0.930 . S
C1326 C1294 1.423 . S
C1326 C1325 1.351 . S
C1327 O1311 1.276 . S
C1327 O1314 1.235 . S
C1328 C1329 1.393 . S
C1328 C1332 1.395 . S
C1328 C1335 1.492 . S
C1329 C1328 1.393 . S
C1329 C1330 1.392 . S
C1329 H1340 0.930 . S
C1330 C1329 1.392 . S
C1330 C1331 1.386 . S
C1331 C1330 1.386 . S
C1331 C1333 1.395 . S
C1331 H1341 0.930 . S
C1332 C1328 1.395 . S
C1332 C1333 1.379 . S
C1332 H1342 0.930 . S
C1333 C1331 1.395 . S
C1333 C1332 1.379 . S
C1333 H1343 0.930 . S
C1334 O1312 1.264 . S
C1334 O1313 1.254 . S
C1335 Eu1271 2.848 . S
C1335 O1310 1.257 . S
C1335 O1315 1.249 . S
C1335 C1328 1.492 . S
H1336 C1319 0.930 . S
H1337 C1320 0.930 . S
H1338 C1321 0.930 . S
H1339 C1322 0.930 . S
H1340 C1329 0.930 . S
H1341 C1331 0.930 . S
H1342 C1332 0.930 . S
H1343 C1333 0.930 . S
Eu1344 N1375 2.657 . S
Eu1344 N1382 2.609 . S
Eu1344 O1388 2.558 . S
Eu1344 O1389 2.612 . S
Eu1344 O1391 2.339 . S
Eu1344 O1392 2.563 . S
Eu1344 O1393 2.419 . S
Eu1344 O1395 2.380 . S
Eu1344 O1396 2.432 . S
Eu1344 C1408 2.848 . S
C1345 C1348 1.429 . S
C1345 C1349 1.411 . S
C1345 N1352 1.377 . S
C1346 C1348 1.420 . S
C1346 C1350 1.423 . S
C1346 C1358 1.392 . S
C1347 C1349 1.420 . S
C1347 C1350 1.351 . S
C1347 H1370 0.931 . S
C1348 C1345 1.429 . S
C1348 C1346 1.420 . S
C1348 N1356 1.362 . S
C1349 C1345 1.411 . S
C1349 C1347 1.420 . S
C1349 C1354 1.395 . S
C1350 C1346 1.423 . S
C1350 C1347 1.351 . S
C1350 H1362 0.930 . S
C1351 C1353 1.400 . S
C1351 C1354 1.386 . S
C1351 H1363 0.930 . S
N1352 C1345 1.377 . S
N1352 C1353 1.321 . S
N1352 Eu1355 2.609 . S
C1353 C1351 1.400 . S
C1353 N1352 1.321 . S
C1353 H1360 0.930 . S
C1354 C1349 1.395 . S
C1354 C1351 1.386 . S
C1354 H1373 0.930 . S
Eu1355 N1352 2.609 . S
Eu1355 N1356 2.657 . S
Eu1355 O1389 2.380 . S
Eu1355 O1390 2.432 . S
Eu1355 O1394 2.558 . S
Eu1355 O1395 2.612 . S
Eu1355 O1397 2.339 . S
Eu1355 O1398 2.563 . S
Eu1355 O1399 2.419 . S
Eu1355 C1419 2.848 . S
N1356 C1348 1.362 . S
N1356 Eu1355 2.657 . S
N1356 C1357 1.334 . S
C1357 N1356 1.334 . S
C1357 C1359 1.413 . S
C1357 H1364 0.929 . S
C1358 C1346 1.392 . S
C1358 C1359 1.367 . S
C1358 H1366 0.930 . S
C1359 C1357 1.413 . S
C1359 C1358 1.367 . S
C1359 H1361 0.930 . S
H1360 C1353 0.930 . S
H1361 C1359 0.930 . S
H1362 C1350 0.930 . S
H1363 C1351 0.930 . S
H1364 C1357 0.929 . S
H1365 C1379 0.930 . S
H1366 C1358 0.930 . S
H1367 C1385 0.930 . S
H1368 C1376 0.929 . S
H1369 C1383 0.930 . S
H1370 C1347 0.931 . S
H1371 C1377 0.930 . S
H1372 C1410 0.930 . S
H1373 C1354 0.930 . S
H1374 C1409 0.931 . S
N1375 Eu1344 2.657 . S
N1375 C1376 1.334 . S
N1375 C1380 1.362 . S
C1376 H1368 0.929 . S
C1376 N1375 1.334 . S
C1376 C1379 1.413 . S
C1377 H1371 0.930 . S
C1377 C1378 1.392 . S
C1377 C1379 1.367 . S
C1378 C1377 1.392 . S
C1378 C1380 1.420 . S
C1378 C1410 1.423 . S
C1379 H1365 0.930 . S
C1379 C1376 1.413 . S
C1379 C1377 1.367 . S
C1380 N1375 1.362 . S
C1380 C1378 1.420 . S
C1380 C1384 1.429 . S
H1381 C1386 0.930 . S
N1382 Eu1344 2.609 . S
N1382 C1384 1.377 . S
N1382 C1385 1.321 . S
C1383 H1369 0.930 . S
C1383 C1385 1.400 . S
C1383 C1386 1.386 . S
C1384 C1380 1.429 . S
C1384 N1382 1.377 . S
C1384 C1387 1.411 . S
C1385 H1367 0.930 . S
C1385 N1382 1.321 . S
C1385 C1383 1.400 . S
C1386 H1381 0.930 . S
C1386 C1383 1.386 . S
C1386 C1387 1.395 . S
C1387 C1384 1.411 . S
C1387 C1386 1.395 . S
C1387 C1409 1.420 . S
O1388 Eu1344 2.558 . S
O1388 C1408 1.257 . S
O1389 Eu1344 2.612 . S
O1389 Eu1355 2.380 . S
O1389 C1400 1.276 . S
O1390 Eu1355 2.432 . S
O1390 C1407 1.264 . S
O1391 Eu1344 2.339 . S
O1391 C1407 1.254 . S
O1392 Eu1344 2.563 . S
O1392 C1400 1.235 . S
O1393 Eu1344 2.419 . S
O1393 C1408 1.249 . S
O1394 Eu1355 2.558 . S
O1394 C1419 1.257 . S
O1395 Eu1344 2.380 . S
O1395 Eu1355 2.612 . S
O1395 C1411 1.276 . S
O1396 Eu1344 2.432 . S
O1396 C1418 1.264 . S
O1397 Eu1355 2.339 . S
O1397 C1418 1.254 . S
O1398 Eu1355 2.563 . S
O1398 C1411 1.235 . S
O1399 Eu1355 2.419 . S
O1399 C1419 1.249 . S
C1400 O1389 1.276 . S
C1400 O1392 1.235 . S
C1401 C1403 1.393 . S
C1401 C1405 1.395 . S
C1401 C1408 1.492 . S
C1402 C1403 1.392 . S
C1402 C1404 1.386 . S
C1403 C1401 1.393 . S
C1403 C1402 1.392 . S
C1403 H1420 0.930 . S
C1404 C1402 1.386 . S
C1404 C1406 1.395 . S
C1404 H1421 0.930 . S
C1405 C1401 1.395 . S
C1405 C1406 1.379 . S
C1405 H1422 0.930 . S
C1406 C1404 1.395 . S
C1406 C1405 1.379 . S
C1406 H1423 0.930 . S
C1407 O1390 1.264 . S
C1407 O1391 1.254 . S
C1408 Eu1344 2.848 . S
C1408 O1388 1.257 . S
C1408 O1393 1.249 . S
C1408 C1401 1.492 . S
C1409 H1374 0.931 . S
C1409 C1387 1.420 . S
C1409 C1410 1.351 . S
C1410 H1372 0.930 . S
C1410 C1378 1.423 . S
C1410 C1409 1.351 . S
C1411 O1395 1.276 . S
C1411 O1398 1.235 . S
C1412 C1413 1.393 . S
C1412 C1416 1.395 . S
C1412 C1419 1.492 . S
C1413 C1412 1.393 . S
C1413 C1414 1.392 . S
C1413 H1424 0.930 . S
C1414 C1413 1.392 . S
C1414 C1415 1.386 . S
C1415 C1414 1.386 . S
C1415 C1417 1.395 . S
C1415 H1425 0.930 . S
C1416 C1412 1.395 . S
C1416 C1417 1.379 . S
C1416 H1426 0.930 . S
C1417 C1415 1.395 . S
C1417 C1416 1.379 . S
C1417 H1427 0.930 . S
C1418 O1396 1.264 . S
C1418 O1397 1.254 . S
C1419 Eu1355 2.848 . S
C1419 O1394 1.257 . S
C1419 O1399 1.249 . S
C1419 C1412 1.492 . S
H1420 C1403 0.930 . S
H1421 C1404 0.930 . S
H1422 C1405 0.930 . S
H1423 C1406 0.930 . S
H1424 C1413 0.930 . S
H1425 C1415 0.930 . S
H1426 C1416 0.930 . S
H1427 C1417 0.930 . S
Eu1428 N1459 2.657 . S
Eu1428 N1466 2.609 . S
Eu1428 O1472 2.558 . S
Eu1428 O1473 2.612 . S
Eu1428 O1475 2.339 . S
Eu1428 O1476 2.563 . S
Eu1428 O1477 2.419 . S
Eu1428 O1479 2.380 . S
Eu1428 O1480 2.432 . S
Eu1428 C1492 2.848 . S
C1429 C1432 1.429 . S
C1429 C1433 1.411 . S
C1429 N1436 1.377 . S
C1430 C1432 1.420 . S
C1430 C1434 1.423 . S
C1430 C1442 1.392 . S
C1431 C1433 1.420 . S
C1431 C1434 1.351 . S
C1431 H1454 0.931 . S
C1432 C1429 1.429 . S
C1432 C1430 1.420 . S
C1432 N1440 1.362 . S
C1433 C1429 1.411 . S
C1433 C1431 1.420 . S
C1433 C1438 1.395 . S
C1434 C1430 1.423 . S
C1434 C1431 1.351 . S
C1434 H1446 0.930 . S
C1435 C1437 1.400 . S
C1435 C1438 1.386 . S
C1435 H1447 0.930 . S
N1436 C1429 1.377 . S
N1436 C1437 1.321 . S
N1436 Eu1439 2.609 . S
C1437 C1435 1.400 . S
C1437 N1436 1.321 . S
C1437 H1444 0.930 . S
C1438 C1433 1.395 . S
C1438 C1435 1.386 . S
C1438 H1457 0.930 . S
Eu1439 N1436 2.609 . S
Eu1439 N1440 2.657 . S
Eu1439 O1473 2.380 . S
Eu1439 O1474 2.432 . S
Eu1439 O1478 2.558 . S
Eu1439 O1479 2.612 . S
Eu1439 O1481 2.339 . S
Eu1439 O1482 2.563 . S
Eu1439 O1483 2.419 . S
Eu1439 C1503 2.848 . S
N1440 C1432 1.362 . S
N1440 Eu1439 2.657 . S
N1440 C1441 1.334 . S
C1441 N1440 1.334 . S
C1441 C1443 1.413 . S
C1441 H1448 0.929 . S
C1442 C1430 1.392 . S
C1442 C1443 1.367 . S
C1442 H1450 0.930 . S
C1443 C1441 1.413 . S
C1443 C1442 1.367 . S
C1443 H1445 0.930 . S
H1444 C1437 0.930 . S
H1445 C1443 0.930 . S
H1446 C1434 0.930 . S
H1447 C1435 0.930 . S
H1448 C1441 0.929 . S
H1449 C1463 0.930 . S
H1450 C1442 0.930 . S
H1451 C1469 0.930 . S
H1452 C1460 0.929 . S
H1453 C1467 0.930 . S
H1454 C1431 0.931 . S
H1455 C1461 0.930 . S
H1456 C1494 0.930 . S
H1457 C1438 0.930 . S
H1458 C1493 0.931 . S
N1459 Eu1428 2.657 . S
N1459 C1460 1.334 . S
N1459 C1464 1.362 . S
C1460 H1452 0.929 . S
C1460 N1459 1.334 . S
C1460 C1463 1.413 . S
C1461 H1455 0.930 . S
C1461 C1462 1.392 . S
C1461 C1463 1.367 . S
C1462 C1461 1.392 . S
C1462 C1464 1.420 . S
C1462 C1494 1.423 . S
C1463 H1449 0.930 . S
C1463 C1460 1.413 . S
C1463 C1461 1.367 . S
C1464 N1459 1.362 . S
C1464 C1462 1.420 . S
C1464 C1468 1.429 . S
H1465 C1470 0.930 . S
N1466 Eu1428 2.609 . S
N1466 C1468 1.377 . S
N1466 C1469 1.321 . S
C1467 H1453 0.930 . S
C1467 C1469 1.400 . S
C1467 C1470 1.386 . S
C1468 C1464 1.429 . S
C1468 N1466 1.377 . S
C1468 C1471 1.411 . S
C1469 H1451 0.930 . S
C1469 N1466 1.321 . S
C1469 C1467 1.400 . S
C1470 H1465 0.930 . S
C1470 C1467 1.386 . S
C1470 C1471 1.395 . S
C1471 C1468 1.411 . S
C1471 C1470 1.395 . S
C1471 C1493 1.420 . S
O1472 Eu1428 2.558 . S
O1472 C1492 1.257 . S
O1473 Eu1428 2.612 . S
O1473 Eu1439 2.380 . S
O1473 C1484 1.276 . S
O1474 Eu1439 2.432 . S
O1474 C1491 1.264 . S
O1475 Eu1428 2.339 . S
O1475 C1491 1.254 . S
O1476 Eu1428 2.563 . S
O1476 C1484 1.235 . S
O1477 Eu1428 2.419 . S
O1477 C1492 1.249 . S
O1478 Eu1439 2.558 . S
O1478 C1503 1.257 . S
O1479 Eu1428 2.380 . S
O1479 Eu1439 2.612 . S
O1479 C1495 1.276 . S
O1480 Eu1428 2.432 . S
O1480 C1502 1.264 . S
O1481 Eu1439 2.339 . S
O1481 C1502 1.254 . S
O1482 Eu1439 2.563 . S
O1482 C1495 1.235 . S
O1483 Eu1439 2.419 . S
O1483 C1503 1.249 . S
C1484 O1473 1.276 . S
C1484 O1476 1.235 . S
C1485 C1487 1.393 . S
C1485 C1489 1.395 . S
C1485 C1492 1.492 . S
C1486 C1487 1.392 . S
C1486 C1488 1.386 . S
C1487 C1485 1.393 . S
C1487 C1486 1.392 . S
C1487 H1504 0.930 . S
C1488 C1486 1.386 . S
C1488 C1490 1.395 . S
C1488 H1505 0.930 . S
C1489 C1485 1.395 . S
C1489 C1490 1.379 . S
C1489 H1506 0.930 . S
C1490 C1488 1.395 . S
C1490 C1489 1.379 . S
C1490 H1507 0.930 . S
C1491 O1474 1.264 . S
C1491 O1475 1.254 . S
C1492 Eu1428 2.848 . S
C1492 O1472 1.257 . S
C1492 O1477 1.249 . S
C1492 C1485 1.492 . S
C1493 H1458 0.931 . S
C1493 C1471 1.420 . S
C1493 C1494 1.351 . S
C1494 H1456 0.930 . S
C1494 C1462 1.423 . S
C1494 C1493 1.351 . S
C1495 O1479 1.276 . S
C1495 O1482 1.235 . S
C1496 C1497 1.393 . S
C1496 C1500 1.395 . S
C1496 C1503 1.492 . S
C1497 C1496 1.393 . S
C1497 C1498 1.392 . S
C1497 H1508 0.930 . S
C1498 C1497 1.392 . S
C1498 C1499 1.386 . S
C1499 C1498 1.386 . S
C1499 C1501 1.395 . S
C1499 H1509 0.930 . S
C1500 C1496 1.395 . S
C1500 C1501 1.379 . S
C1500 H1510 0.930 . S
C1501 C1499 1.395 . S
C1501 C1500 1.379 . S
C1501 H1511 0.930 . S
C1502 O1480 1.264 . S
C1502 O1481 1.254 . S
C1503 Eu1439 2.848 . S
C1503 O1478 1.257 . S
C1503 O1483 1.249 . S
C1503 C1496 1.492 . S
H1504 C1487 0.930 . S
H1505 C1488 0.930 . S
H1506 C1489 0.930 . S
H1507 C1490 0.930 . S
H1508 C1497 0.930 . S
H1509 C1499 0.930 . S
H1510 C1500 0.930 . S
H1511 C1501 0.930 . S
Eu1512 N1543 2.657 . S
Eu1512 N1550 2.609 . S
Eu1512 O1556 2.558 . S
Eu1512 O1557 2.612 . S
Eu1512 O1559 2.339 . S
Eu1512 O1560 2.563 . S
Eu1512 O1561 2.419 . S
Eu1512 O1563 2.380 . S
Eu1512 O1564 2.432 . S
Eu1512 C1576 2.848 . S
C1513 C1516 1.429 . S
C1513 C1517 1.411 . S
C1513 N1520 1.377 . S
C1514 C1516 1.420 . S
C1514 C1518 1.423 . S
C1514 C1526 1.392 . S
C1515 C1517 1.420 . S
C1515 C1518 1.351 . S
C1515 H1538 0.931 . S
C1516 C1513 1.429 . S
C1516 C1514 1.420 . S
C1516 N1524 1.362 . S
C1517 C1513 1.411 . S
C1517 C1515 1.420 . S
C1517 C1522 1.395 . S
C1518 C1514 1.423 . S
C1518 C1515 1.351 . S
C1518 H1530 0.930 . S
C1519 C1521 1.400 . S
C1519 C1522 1.386 . S
C1519 H1531 0.930 . S
N1520 C1513 1.377 . S
N1520 C1521 1.321 . S
N1520 Eu1523 2.609 . S
C1521 C1519 1.400 . S
C1521 N1520 1.321 . S
C1521 H1528 0.930 . S
C1522 C1517 1.395 . S
C1522 C1519 1.386 . S
C1522 H1541 0.930 . S
Eu1523 N1520 2.609 . S
Eu1523 N1524 2.657 . S
Eu1523 O1557 2.380 . S
Eu1523 O1558 2.432 . S
Eu1523 O1562 2.558 . S
Eu1523 O1563 2.612 . S
Eu1523 O1565 2.339 . S
Eu1523 O1566 2.563 . S
Eu1523 O1567 2.419 . S
Eu1523 C1587 2.848 . S
N1524 C1516 1.362 . S
N1524 Eu1523 2.657 . S
N1524 C1525 1.334 . S
C1525 N1524 1.334 . S
C1525 C1527 1.413 . S
C1525 H1532 0.929 . S
C1526 C1514 1.392 . S
C1526 C1527 1.367 . S
C1526 H1534 0.930 . S
C1527 C1525 1.413 . S
C1527 C1526 1.367 . S
C1527 H1529 0.930 . S
H1528 C1521 0.930 . S
H1529 C1527 0.930 . S
H1530 C1518 0.930 . S
H1531 C1519 0.930 . S
H1532 C1525 0.929 . S
H1533 C1547 0.930 . S
H1534 C1526 0.930 . S
H1535 C1553 0.930 . S
H1536 C1544 0.929 . S
H1537 C1551 0.930 . S
H1538 C1515 0.931 . S
H1539 C1545 0.930 . S
H1540 C1578 0.930 . S
H1541 C1522 0.930 . S
H1542 C1577 0.931 . S
N1543 Eu1512 2.657 . S
N1543 C1544 1.334 . S
N1543 C1548 1.362 . S
C1544 H1536 0.929 . S
C1544 N1543 1.334 . S
C1544 C1547 1.413 . S
C1545 H1539 0.930 . S
C1545 C1546 1.392 . S
C1545 C1547 1.367 . S
C1546 C1545 1.392 . S
C1546 C1548 1.420 . S
C1546 C1578 1.423 . S
C1547 H1533 0.930 . S
C1547 C1544 1.413 . S
C1547 C1545 1.367 . S
C1548 N1543 1.362 . S
C1548 C1546 1.420 . S
C1548 C1552 1.429 . S
H1549 C1554 0.930 . S
N1550 Eu1512 2.609 . S
N1550 C1552 1.377 . S
N1550 C1553 1.321 . S
C1551 H1537 0.930 . S
C1551 C1553 1.400 . S
C1551 C1554 1.386 . S
C1552 C1548 1.429 . S
C1552 N1550 1.377 . S
C1552 C1555 1.411 . S
C1553 H1535 0.930 . S
C1553 N1550 1.321 . S
C1553 C1551 1.400 . S
C1554 H1549 0.930 . S
C1554 C1551 1.386 . S
C1554 C1555 1.395 . S
C1555 C1552 1.411 . S
C1555 C1554 1.395 . S
C1555 C1577 1.420 . S
O1556 Eu1512 2.558 . S
O1556 C1576 1.257 . S
O1557 Eu1512 2.612 . S
O1557 Eu1523 2.380 . S
O1557 C1568 1.276 . S
O1558 Eu1523 2.432 . S
O1558 C1575 1.264 . S
O1559 Eu1512 2.339 . S
O1559 C1575 1.254 . S
O1560 Eu1512 2.563 . S
O1560 C1568 1.235 . S
O1561 Eu1512 2.419 . S
O1561 C1576 1.249 . S
O1562 Eu1523 2.558 . S
O1562 C1587 1.257 . S
O1563 Eu1512 2.380 . S
O1563 Eu1523 2.612 . S
O1563 C1579 1.276 . S
O1564 Eu1512 2.432 . S
O1564 C1586 1.264 . S
O1565 Eu1523 2.339 . S
O1565 C1586 1.254 . S
O1566 Eu1523 2.563 . S
O1566 C1579 1.235 . S
O1567 Eu1523 2.419 . S
O1567 C1587 1.249 . S
C1568 O1557 1.276 . S
C1568 O1560 1.235 . S
C1569 C1571 1.393 . S
C1569 C1573 1.395 . S
C1569 C1576 1.492 . S
C1570 C1571 1.392 . S
C1570 C1572 1.386 . S
C1571 C1569 1.393 . S
C1571 C1570 1.392 . S
C1571 H1588 0.930 . S
C1572 C1570 1.386 . S
C1572 C1574 1.395 . S
C1572 H1589 0.930 . S
C1573 C1569 1.395 . S
C1573 C1574 1.379 . S
C1573 H1590 0.930 . S
C1574 C1572 1.395 . S
C1574 C1573 1.379 . S
C1574 H1591 0.930 . S
C1575 O1558 1.264 . S
C1575 O1559 1.254 . S
C1576 Eu1512 2.848 . S
C1576 O1556 1.257 . S
C1576 O1561 1.249 . S
C1576 C1569 1.492 . S
C1577 H1542 0.931 . S
C1577 C1555 1.420 . S
C1577 C1578 1.351 . S
C1578 H1540 0.930 . S
C1578 C1546 1.423 . S
C1578 C1577 1.351 . S
C1579 O1563 1.276 . S
C1579 O1566 1.235 . S
C1580 C1581 1.393 . S
C1580 C1584 1.395 . S
C1580 C1587 1.492 . S
C1581 C1580 1.393 . S
C1581 C1582 1.392 . S
C1581 H1592 0.930 . S
C1582 C1581 1.392 . S
C1582 C1583 1.386 . S
C1583 C1582 1.386 . S
C1583 C1585 1.395 . S
C1583 H1593 0.930 . S
C1584 C1580 1.395 . S
C1584 C1585 1.379 . S
C1584 H1594 0.930 . S
C1585 C1583 1.395 . S
C1585 C1584 1.379 . S
C1585 H1595 0.930 . S
C1586 O1564 1.264 . S
C1586 O1565 1.254 . S
C1587 Eu1523 2.848 . S
C1587 O1562 1.257 . S
C1587 O1567 1.249 . S
C1587 C1580 1.492 . S
H1588 C1571 0.930 . S
H1589 C1572 0.930 . S
H1590 C1573 0.930 . S
H1591 C1574 0.930 . S
H1592 C1581 0.930 . S
H1593 C1583 0.930 . S
H1594 C1584 0.930 . S
H1595 C1585 0.930 . S
Eu1596 N1627 2.657 . S
Eu1596 N1634 2.609 1_554 S
Eu1596 O1640 2.558 1_554 S
Eu1596 O1641 2.612 . S
Eu1596 O1643 2.339 . S
Eu1596 O1644 2.567 1_554 S
Eu1596 O1645 2.419 . S
Eu1596 O1647 2.380 . S
Eu1596 O1648 2.432 1_554 S
Eu1596 C1660 2.848 1_554 S
C1597 C1600 1.429 . S
C1597 C1601 1.411 . S
C1597 N1604 1.377 1_655 S
C1598 C1600 1.420 . S
C1598 C1602 1.423 . S
C1598 C1610 1.392 1_554 S
C1599 C1601 1.420 . S
C1599 C1602 1.351 . S
C1599 H1622 0.931 . S
C1600 C1597 1.429 . S
C1600 C1598 1.420 . S
C1600 N1608 1.362 . S
C1601 C1597 1.411 . S
C1601 C1599 1.420 . S
C1601 C1606 1.395 . S
C1602 C1598 1.423 . S
C1602 C1599 1.351 . S
C1602 H1614 0.930 . S
C1603 C1605 1.400 . S
C1603 C1606 1.386 1_455 S
C1603 H1615 0.930 . S
N1604 C1597 1.377 1_455 S
N1604 C1605 1.321 . S
N1604 Eu1607 2.609 . S
C1605 C1603 1.400 . S
C1605 N1604 1.321 . S
C1605 H1612 0.930 . S
C1606 C1601 1.395 . S
C1606 C1603 1.386 1_655 S
C1606 H1625 0.930 . S
Eu1607 N1604 2.609 . S
Eu1607 N1608 2.657 1_455 S
Eu1607 O1641 2.380 . S
Eu1607 O1642 2.432 . S
Eu1607 O1646 2.558 . S
Eu1607 O1647 2.612 . S
Eu1607 O1649 2.339 1_554 S
Eu1607 O1650 2.563 . S
Eu1607 O1651 2.419 1_455 S
Eu1607 C1671 2.848 1_455 S
N1608 C1600 1.362 . S
N1608 Eu1607 2.657 1_655 S
N1608 C1609 1.334 1_554 S
C1609 N1608 1.334 1_556 S
C1609 C1611 1.413 . S
C1609 H1616 0.929 . S
C1610 C1598 1.392 1_556 S
C1610 C1611 1.367 . S
C1610 H1618 0.930 . S
C1611 C1609 1.413 . S
C1611 C1610 1.367 . S
C1611 H1613 0.930 . S
H1612 C1605 0.930 . S
H1613 C1611 0.930 . S
H1614 C1602 0.930 . S
H1615 C1603 0.930 . S
H1616 C1609 0.929 . S
H1617 C1631 0.930 . S
H1618 C1610 0.930 . S
H1619 C1637 0.930 . S
H1620 C1628 0.929 . S
H1621 C1635 0.930 . S
H1622 C1599 0.931 . S
H1623 C1629 0.930 . S
H1624 C1662 0.930 . S
H1625 C1606 0.930 . S
H1626 C1661 0.931 . S
N1627 Eu1596 2.657 . S
N1627 C1628 1.334 . S
N1627 C1632 1.362 . S
C1628 H1620 0.929 . S
C1628 N1627 1.334 . S
C1628 C1631 1.413 . S
C1629 H1623 0.930 . S
C1629 C1630 1.392 . S
C1629 C1631 1.367 . S
C1630 C1629 1.392 . S
C1630 C1632 1.420 . S
C1630 C1662 1.423 . S
C1631 H1617 0.930 . S
C1631 C1628 1.413 . S
C1631 C1629 1.367 . S
C1632 N1627 1.362 . S
C1632 C1630 1.420 . S
C1632 C1636 1.429 1_554 S
H1633 C1638 0.930 . S
N1634 Eu1596 2.609 1_556 S
N1634 C1636 1.377 . S
N1634 C1637 1.321 . S
C1635 H1621 0.930 . S
C1635 C1637 1.400 . S
C1635 C1638 1.386 . S
C1636 C1632 1.429 1_556 S
C1636 N1634 1.377 . S
C1636 C1639 1.411 . S
C1637 H1619 0.930 . S
C1637 N1634 1.321 . S
C1637 C1635 1.400 . S
C1638 H1633 0.930 . S
C1638 C1635 1.386 . S
C1638 C1639 1.395 . S
C1639 C1636 1.411 . S
C1639 C1638 1.395 . S
C1639 C1661 1.420 . S
O1640 Eu1596 2.558 1_556 S
O1640 C1660 1.257 . S
O1641 Eu1596 2.612 . S
O1641 Eu1607 2.380 . S
O1641 C1652 1.276 . S
O1642 Eu1607 2.432 . S
O1642 C1659 1.264 . S
O1643 Eu1596 2.339 . S
O1643 C1659 1.254 . S
O1644 Eu1596 2.567 1_556 S
O1644 C1652 1.216 1_556 S
O1645 Eu1596 2.419 . S
O1645 C1660 1.249 1_554 S
O1646 Eu1607 2.558 . S
O1646 C1671 1.257 1_455 S
O1647 Eu1596 2.380 . S
O1647 Eu1607 2.612 . S
O1647 C1663 1.276 . S
O1648 Eu1596 2.432 1_556 S
O1648 C1670 1.264 . S
O1649 Eu1607 2.339 1_556 S
O1649 C1670 1.254 . S
O1650 Eu1607 2.563 . S
O1650 C1663 1.235 . S
O1651 Eu1607 2.419 1_655 S
O1651 C1671 1.249 . S
C1652 O1641 1.276 . S
C1652 O1644 1.216 1_554 S
C1653 C1655 1.393 1_556 S
C1653 C1657 1.395 . S
C1653 C1660 1.492 . S
C1654 C1655 1.392 1_556 S
C1654 C1656 1.386 . S
C1655 C1653 1.393 1_554 S
C1655 C1654 1.392 1_554 S
C1655 H1672 0.930 . S
C1656 C1654 1.386 . S
C1656 C1658 1.395 . S
C1656 H1673 0.930 . S
C1657 C1653 1.395 . S
C1657 C1658 1.379 . S
C1657 H1674 0.930 . S
C1658 C1656 1.395 . S
C1658 C1657 1.379 . S
C1658 H1675 0.930 . S
C1659 O1642 1.264 . S
C1659 O1643 1.254 . S
C1660 Eu1596 2.848 1_556 S
C1660 O1640 1.257 . S
C1660 O1645 1.249 1_556 S
C1660 C1653 1.492 . S
C1661 H1626 0.931 . S
C1661 C1639 1.420 . S
C1661 C1662 1.351 1_556 S
C1662 H1624 0.930 . S
C1662 C1630 1.423 . S
C1662 C1661 1.351 1_554 S
C1663 O1647 1.276 . S
C1663 O1650 1.235 . S
C1664 C1665 1.393 . S
C1664 C1668 1.395 . S
C1664 C1671 1.492 . S
C1665 C1664 1.393 . S
C1665 C1666 1.392 . S
C1665 H1676 0.930 . S
C1666 C1665 1.392 . S
C1666 C1667 1.386 . S
C1667 C1666 1.386 . S
C1667 C1669 1.395 . S
C1667 H1677 0.930 . S
C1668 C1664 1.395 . S
C1668 C1669 1.379 . S
C1668 H1678 0.930 . S
C1669 C1667 1.395 . S
C1669 C1668 1.379 . S
C1669 H1679 0.930 . S
C1670 O1648 1.264 . S
C1670 O1649 1.254 . S
C1671 Eu1607 2.848 1_655 S
C1671 O1646 1.257 1_655 S
C1671 O1651 1.249 . S
C1671 C1664 1.492 . S
H1672 C1655 0.930 . S
H1673 C1656 0.930 . S
H1674 C1657 0.930 . S
H1675 C1658 0.930 . S
H1676 C1665 0.930 . S
H1677 C1667 0.930 . S
H1678 C1668 0.930 . S
H1679 C1669 0.930 . S
H1680 C1686 0.930 . S
H1681 C1690 0.930 . S
H1682 C1695 0.929 1_554 S
H1683 C1693 0.929 . S
H1684 C1688 0.929 . S
H1685 C1694 0.929 . S
C1686 H1680 0.930 . S
C1686 C1687 1.367 . S
C1686 C1694 1.378 . S
C1687 C1686 1.367 . S
C1687 C1695 1.433 . S
C1688 H1684 0.929 . S
C1688 C1690 1.378 . S
C1688 C1692 1.350 1_554 S
C1689 C1692 1.463 . S
C1689 C1694 1.350 . S
C1689 N1697 1.427 1_556 S
C1690 H1681 0.930 . S
C1690 C1688 1.378 . S
C1690 C1691 1.367 . S
C1691 C1690 1.367 . S
C1691 C1693 1.433 1_554 S
C1692 C1688 1.350 1_556 S
C1692 C1689 1.463 . S
C1692 N1696 1.427 . S
C1693 H1683 0.929 . S
C1693 C1691 1.433 1_556 S
C1693 N1696 1.384 . S
C1694 H1685 0.929 . S
C1694 C1686 1.378 . S
C1694 C1689 1.350 . S
C1695 H1682 0.929 1_556 S
C1695 C1687 1.433 . S
C1695 N1697 1.384 1_556 S
N1696 C1692 1.427 . S
N1696 C1693 1.384 . S
N1697 C1689 1.427 1_554 S
N1697 C1695 1.384 1_554 S
H1698 C1704 0.930 . S
H1699 C1708 0.930 . S
H1700 C1713 0.929 . S
H1701 C1711 0.929 . S
H1702 C1706 0.929 . S
H1703 C1712 0.929 . S
C1704 H1698 0.930 . S
C1704 C1705 1.367 . S
C1704 C1712 1.378 . S
C1705 C1704 1.367 . S
C1705 C1713 1.433 . S
C1706 H1702 0.929 . S
C1706 C1708 1.378 . S
C1706 C1710 1.350 . S
C1707 C1710 1.463 . S
C1707 C1712 1.350 . S
C1707 N1715 1.427 . S
C1708 H1699 0.930 . S
C1708 C1706 1.378 . S
C1708 C1709 1.367 . S
C1709 C1708 1.367 . S
C1709 C1711 1.433 . S
C1710 C1706 1.350 . S
C1710 C1707 1.463 . S
C1710 N1714 1.427 . S
C1711 H1701 0.929 . S
C1711 C1709 1.433 . S
C1711 N1714 1.384 . S
C1712 H1703 0.929 . S
C1712 C1704 1.378 . S
C1712 C1707 1.350 . S
C1713 H1700 0.929 . S
C1713 C1705 1.433 . S
C1713 N1715 1.384 . S
N1714 C1710 1.427 . S
N1714 C1711 1.384 . S
N1715 C1707 1.427 . S
N1715 C1713 1.384 . S
H1716 C1722 0.930 . S
H1717 C1726 0.930 . S
H1718 C1731 0.929 . S
H1719 C1729 0.929 . S
H1720 C1724 0.929 . S
H1721 C1730 0.929 . S
C1722 H1716 0.930 . S
C1722 C1723 1.367 . S
C1722 C1730 1.378 . S
C1723 C1722 1.367 . S
C1723 C1731 1.433 . S
C1724 H1720 0.929 . S
C1724 C1726 1.378 . S
C1724 C1728 1.350 . S
C1725 C1728 1.463 . S
C1725 C1730 1.350 . S
C1725 N1733 1.427 . S
C1726 H1717 0.930 . S
C1726 C1724 1.378 . S
C1726 C1727 1.367 . S
C1727 C1726 1.367 . S
C1727 C1729 1.433 . S
C1728 C1724 1.350 . S
C1728 C1725 1.463 . S
C1728 N1732 1.427 . S
C1729 H1719 0.929 . S
C1729 C1727 1.433 . S
C1729 N1732 1.384 . S
C1730 H1721 0.929 . S
C1730 C1722 1.378 . S
C1730 C1725 1.350 . S
C1731 H1718 0.929 . S
C1731 C1723 1.433 . S
C1731 N1733 1.384 . S
N1732 C1728 1.427 . S
N1732 C1729 1.384 . S
N1733 C1725 1.427 . S
N1733 C1731 1.384 . S
H1734 C1740 0.930 . S
H1735 C1744 0.930 . S
H1736 C1749 0.929 . S
H1737 C1747 0.929 . S
H1738 C1742 0.929 . S
H1739 C1748 0.929 . S
C1740 H1734 0.930 . S
C1740 C1741 1.367 . S
C1740 C1748 1.378 . S
C1741 C1740 1.367 . S
C1741 C1749 1.433 . S
C1742 H1738 0.929 . S
C1742 C1744 1.378 . S
C1742 C1746 1.350 . S
C1743 C1746 1.463 . S
C1743 C1748 1.350 . S
C1743 N1751 1.427 . S
C1744 H1735 0.930 . S
C1744 C1742 1.378 . S
C1744 C1745 1.367 . S
C1745 C1744 1.367 . S
C1745 C1747 1.433 . S
C1746 C1742 1.350 . S
C1746 C1743 1.463 . S
C1746 N1750 1.427 . S
C1747 H1737 0.929 . S
C1747 C1745 1.433 . S
C1747 N1750 1.384 . S
C1748 H1739 0.929 . S
C1748 C1740 1.378 . S
C1748 C1743 1.350 . S
C1749 H1736 0.929 . S
C1749 C1741 1.433 . S
C1749 N1751 1.384 . S
N1750 C1746 1.427 . S
N1750 C1747 1.384 . S
N1751 C1743 1.427 . S
N1751 C1749 1.384 . S
H1752 C1758 0.930 . S
H1753 C1762 0.930 . S
H1754 C1767 0.929 . S
H1755 C1765 0.929 . S
H1756 C1760 0.929 . S
H1757 C1766 0.929 1_655 S
C1758 H1752 0.930 . S
C1758 C1759 1.367 1_655 S
C1758 C1766 1.378 1_655 S
C1759 C1758 1.367 1_455 S
C1759 C1767 1.433 . S
C1760 H1756 0.929 . S
C1760 C1762 1.378 . S
C1760 C1764 1.350 . S
C1761 C1764 1.463 . S
C1761 C1766 1.350 . S
C1761 N1769 1.427 . S
C1762 H1753 0.930 . S
C1762 C1760 1.378 . S
C1762 C1763 1.367 . S
C1763 C1762 1.367 . S
C1763 C1765 1.433 . S
C1764 C1760 1.350 . S
C1764 C1761 1.463 . S
C1764 N1768 1.427 . S
C1765 H1755 0.929 . S
C1765 C1763 1.433 . S
C1765 N1768 1.384 . S
C1766 H1757 0.929 1_455 S
C1766 C1758 1.378 1_455 S
C1766 C1761 1.350 . S
C1767 H1754 0.929 . S
C1767 C1759 1.433 . S
C1767 N1769 1.384 . S
N1768 C1764 1.427 . S
N1768 C1765 1.384 . S
N1769 C1761 1.427 . S
N1769 C1767 1.384 . S
H1770 C1776 0.930 . S
H1771 C1780 0.930 . S
H1772 C1785 0.929 . S
H1773 C1783 0.929 . S
H1774 C1778 0.929 . S
H1775 C1784 0.929 . S
C1776 H1770 0.930 . S
C1776 C1777 1.367 . S
C1776 C1784 1.378 . S
C1777 C1776 1.367 . S
C1777 C1785 1.433 . S
C1778 H1774 0.929 . S
C1778 C1780 1.378 . S
C1778 C1782 1.350 . S
C1779 C1782 1.463 . S
C1779 C1784 1.350 . S
C1779 N1787 1.427 . S
C1780 H1771 0.930 . S
C1780 C1778 1.378 . S
C1780 C1781 1.367 . S
C1781 C1780 1.367 . S
C1781 C1783 1.433 . S
C1782 C1778 1.350 . S
C1782 C1779 1.463 . S
C1782 N1786 1.427 . S
C1783 H1773 0.929 . S
C1783 C1781 1.433 . S
C1783 N1786 1.384 . S
C1784 H1775 0.929 . S
C1784 C1776 1.378 . S
C1784 C1779 1.350 . S
C1785 H1772 0.929 . S
C1785 C1777 1.433 . S
C1785 N1787 1.384 . S
N1786 C1782 1.427 . S
N1786 C1783 1.384 . S
N1787 C1779 1.427 . S
N1787 C1785 1.384 . S
H1788 C1794 0.930 . S
H1789 C1798 0.930 . S
H1790 C1803 0.929 . S
H1791 C1801 0.929 . S
H1792 C1796 0.929 . S
H1793 C1802 0.929 . S
C1794 H1788 0.930 . S
C1794 C1795 1.367 . S
C1794 C1802 1.378 . S
C1795 C1794 1.367 . S
C1795 C1803 1.433 . S
C1796 H1792 0.929 . S
C1796 C1798 1.378 . S
C1796 C1800 1.350 . S
C1797 C1800 1.463 . S
C1797 C1802 1.350 . S
C1797 N1805 1.427 . S
C1798 H1789 0.930 . S
C1798 C1796 1.378 . S
C1798 C1799 1.367 . S
C1799 C1798 1.367 . S
C1799 C1801 1.433 . S
C1800 C1796 1.350 . S
C1800 C1797 1.463 . S
C1800 N1804 1.427 . S
C1801 H1791 0.929 . S
C1801 C1799 1.433 . S
C1801 N1804 1.384 . S
C1802 H1793 0.929 . S
C1802 C1794 1.378 . S
C1802 C1797 1.350 . S
C1803 H1790 0.929 . S
C1803 C1795 1.433 . S
C1803 N1805 1.384 . S
N1804 C1800 1.427 . S
N1804 C1801 1.384 . S
N1805 C1797 1.427 . S
N1805 C1803 1.384 . S
H1806 C1812 0.930 . S
H1807 C1816 0.930 . S
H1808 C1821 0.929 . S
H1809 C1819 0.929 . S
H1810 C1814 0.929 . S
H1811 C1820 0.929 . S
C1812 H1806 0.930 . S
C1812 C1813 1.367 . S
C1812 C1820 1.378 . S
C1813 C1812 1.367 . S
C1813 C1821 1.433 . S
C1814 H1810 0.929 . S
C1814 C1816 1.378 . S
C1814 C1818 1.350 . S
C1815 C1818 1.463 . S
C1815 C1820 1.350 . S
C1815 N1823 1.427 . S
C1816 H1807 0.930 . S
C1816 C1814 1.378 . S
C1816 C1817 1.367 . S
C1817 C1816 1.367 . S
C1817 C1819 1.433 . S
C1818 C1814 1.350 . S
C1818 C1815 1.463 . S
C1818 N1822 1.427 . S
C1819 H1809 0.929 . S
C1819 C1817 1.433 . S
C1819 N1822 1.384 . S
C1820 H1811 0.929 . S
C1820 C1812 1.378 . S
C1820 C1815 1.350 . S
C1821 H1808 0.929 . S
C1821 C1813 1.433 . S
C1821 N1823 1.384 . S
N1822 C1818 1.427 . S
N1822 C1819 1.384 . S
N1823 C1815 1.427 . S
N1823 C1821 1.384 . S
H1824 C1830 0.930 . S
H1825 C1834 0.930 . S
H1826 C1839 0.929 . S
H1827 C1837 0.929 . S
H1828 C1832 0.929 . S
H1829 C1838 0.929 . S
C1830 H1824 0.930 . S
C1830 C1831 1.367 . S
C1830 C1838 1.378 . S
C1831 C1830 1.367 . S
C1831 C1839 1.433 1_655 S
C1832 H1828 0.929 . S
C1832 C1834 1.378 . S
C1832 C1836 1.350 . S
C1833 C1836 1.463 . S
C1833 C1838 1.350 1_455 S
C1833 N1841 1.427 . S
C1834 H1825 0.930 . S
C1834 C1832 1.378 . S
C1834 C1835 1.367 . S
C1835 C1834 1.367 . S
C1835 C1837 1.433 . S
C1836 C1832 1.350 . S
C1836 C1833 1.463 . S
C1836 N1840 1.427 . S
C1837 H1827 0.929 . S
C1837 C1835 1.433 . S
C1837 N1840 1.384 . S
C1838 H1829 0.929 . S
C1838 C1830 1.378 . S
C1838 C1833 1.350 1_655 S
C1839 H1826 0.929 . S
C1839 C1831 1.433 1_455 S
C1839 N1841 1.384 . S
N1840 C1836 1.427 . S
N1840 C1837 1.384 . S
N1841 C1833 1.427 . S
N1841 C1839 1.384 . S
H1842 C1848 0.930 . S
H1843 C1852 0.930 . S
H1844 C1857 0.929 . S
H1845 C1855 0.929 . S
H1846 C1850 0.929 . S
H1847 C1856 0.929 . S
C1848 H1842 0.930 . S
C1848 C1849 1.367 . S
C1848 C1856 1.378 . S
C1849 C1848 1.367 . S
C1849 C1857 1.433 . S
C1850 H1846 0.929 . S
C1850 C1852 1.378 . S
C1850 C1854 1.350 . S
C1851 C1854 1.463 . S
C1851 C1856 1.350 . S
C1851 N1859 1.427 . S
C1852 H1843 0.930 . S
C1852 C1850 1.378 . S
C1852 C1853 1.367 . S
C1853 C1852 1.367 . S
C1853 C1855 1.433 . S
C1854 C1850 1.350 . S
C1854 C1851 1.463 . S
C1854 N1858 1.427 . S
C1855 H1845 0.929 . S
C1855 C1853 1.433 . S
C1855 N1858 1.384 . S
C1856 H1847 0.929 . S
C1856 C1848 1.378 . S
C1856 C1851 1.350 . S
C1857 H1844 0.929 . S
C1857 C1849 1.433 . S
C1857 N1859 1.384 . S
N1858 C1854 1.427 . S
N1858 C1855 1.384 . S
N1859 C1851 1.427 . S
N1859 C1857 1.384 . S
H1860 C1866 0.930 . S
H1861 C1870 0.930 . S
H1862 C1875 0.929 . S
H1863 C1873 0.929 . S
H1864 C1868 0.929 . S
H1865 C1874 0.929 . S
C1866 H1860 0.930 . S
C1866 C1867 1.367 . S
C1866 C1874 1.378 . S
C1867 C1866 1.367 . S
C1867 C1875 1.433 . S
C1868 H1864 0.929 . S
C1868 C1870 1.378 . S
C1868 C1872 1.350 . S
C1869 C1872 1.463 . S
C1869 C1874 1.350 . S
C1869 N1877 1.427 . S
C1870 H1861 0.930 . S
C1870 C1868 1.378 . S
C1870 C1871 1.367 . S
C1871 C1870 1.367 . S
C1871 C1873 1.433 . S
C1872 C1868 1.350 . S
C1872 C1869 1.463 . S
C1872 N1876 1.427 . S
C1873 H1863 0.929 . S
C1873 C1871 1.433 . S
C1873 N1876 1.384 . S
C1874 H1865 0.929 . S
C1874 C1866 1.378 . S
C1874 C1869 1.350 . S
C1875 H1862 0.929 . S
C1875 C1867 1.433 . S
C1875 N1877 1.384 . S
N1876 C1872 1.427 . S
N1876 C1873 1.384 . S
N1877 C1869 1.427 . S
N1877 C1875 1.384 . S
H1878 C1884 0.930 . S
H1879 C1888 0.930 . S
H1880 C1893 0.929 . S
H1881 C1891 0.929 . S
H1882 C1886 0.929 . S
H1883 C1892 0.929 . S
C1884 H1878 0.930 . S
C1884 C1885 1.367 . S
C1884 C1892 1.378 . S
C1885 C1884 1.367 . S
C1885 C1893 1.433 . S
C1886 H1882 0.929 . S
C1886 C1888 1.378 . S
C1886 C1890 1.350 . S
C1887 C1890 1.463 . S
C1887 C1892 1.350 . S
C1887 N1895 1.427 . S
C1888 H1879 0.930 . S
C1888 C1886 1.378 . S
C1888 C1889 1.367 . S
C1889 C1888 1.367 . S
C1889 C1891 1.433 . S
C1890 C1886 1.350 . S
C1890 C1887 1.463 . S
C1890 N1894 1.427 . S
C1891 H1881 0.929 . S
C1891 C1889 1.433 . S
C1891 N1894 1.384 . S
C1892 H1883 0.929 . S
C1892 C1884 1.378 . S
C1892 C1887 1.350 . S
C1893 H1880 0.929 . S
C1893 C1885 1.433 . S
C1893 N1895 1.384 . S
N1894 C1890 1.427 . S
N1894 C1891 1.384 . S
N1895 C1887 1.427 . S
N1895 C1893 1.384 . S
H1896 C1902 0.930 . S
H1897 C1906 0.930 . S
H1898 C1911 0.929 . S
H1899 C1909 0.929 . S
H1900 C1904 0.929 . S
H1901 C1910 0.929 . S
C1902 H1896 0.930 . S
C1902 C1903 1.367 . S
C1902 C1910 1.378 1_655 S
C1903 C1902 1.367 . S
C1903 C1911 1.433 . S
C1904 H1900 0.929 . S
C1904 C1906 1.378 . S
C1904 C1908 1.350 . S
C1905 C1908 1.463 . S
C1905 C1910 1.350 . S
C1905 N1913 1.427 . S
C1906 H1897 0.930 . S
C1906 C1904 1.378 . S
C1906 C1907 1.367 . S
C1907 C1906 1.367 . S
C1907 C1909 1.433 . S
C1908 C1904 1.350 . S
C1908 C1905 1.463 . S
C1908 N1912 1.427 . S
C1909 H1899 0.929 . S
C1909 C1907 1.433 . S
C1909 N1912 1.384 . S
C1910 H1901 0.929 . S
C1910 C1902 1.378 1_455 S
C1910 C1905 1.350 . S
C1911 H1898 0.929 . S
C1911 C1903 1.433 . S
C1911 N1913 1.384 1_655 S
N1912 C1908 1.427 . S
N1912 C1909 1.384 . S
N1913 C1905 1.427 . S
N1913 C1911 1.384 1_455 S
H1914 C1920 0.930 . S
H1915 C1924 0.930 . S
H1916 C1929 0.929 . S
H1917 C1927 0.929 . S
H1918 C1922 0.929 . S
H1919 C1928 0.929 . S
C1920 H1914 0.930 . S
C1920 C1921 1.367 . S
C1920 C1928 1.378 . S
C1921 C1920 1.367 . S
C1921 C1929 1.433 . S
C1922 H1918 0.929 . S
C1922 C1924 1.378 . S
C1922 C1926 1.350 . S
C1923 C1926 1.463 . S
C1923 C1928 1.350 . S
C1923 N1931 1.427 . S
C1924 H1915 0.930 . S
C1924 C1922 1.378 . S
C1924 C1925 1.367 . S
C1925 C1924 1.367 . S
C1925 C1927 1.433 . S
C1926 C1922 1.350 . S
C1926 C1923 1.463 . S
C1926 N1930 1.427 . S
C1927 H1917 0.929 . S
C1927 C1925 1.433 . S
C1927 N1930 1.384 . S
C1928 H1919 0.929 . S
C1928 C1920 1.378 . S
C1928 C1923 1.350 . S
C1929 H1916 0.929 . S
C1929 C1921 1.433 . S
C1929 N1931 1.384 . S
N1930 C1926 1.427 . S
N1930 C1927 1.384 . S
N1931 C1923 1.427 . S
N1931 C1929 1.384 . S
H1932 C1938 0.930 . S
H1933 C1942 0.930 . S
H1934 C1947 0.929 . S
H1935 C1945 0.929 . S
H1936 C1940 0.929 . S
H1937 C1946 0.929 . S
C1938 H1932 0.930 . S
C1938 C1939 1.367 . S
C1938 C1946 1.378 . S
C1939 C1938 1.367 . S
C1939 C1947 1.433 . S
C1940 H1936 0.929 . S
C1940 C1942 1.378 . S
C1940 C1944 1.350 . S
C1941 C1944 1.463 . S
C1941 C1946 1.350 . S
C1941 N1949 1.427 . S
C1942 H1933 0.930 . S
C1942 C1940 1.378 . S
C1942 C1943 1.367 . S
C1943 C1942 1.367 . S
C1943 C1945 1.433 . S
C1944 C1940 1.350 . S
C1944 C1941 1.463 . S
C1944 N1948 1.427 . S
C1945 H1935 0.929 . S
C1945 C1943 1.433 . S
C1945 N1948 1.384 . S
C1946 H1937 0.929 . S
C1946 C1938 1.378 . S
C1946 C1941 1.350 . S
C1947 H1934 0.929 . S
C1947 C1939 1.433 . S
C1947 N1949 1.384 . S
N1948 C1944 1.427 . S
N1948 C1945 1.384 . S
N1949 C1941 1.427 . S
N1949 C1947 1.384 . S
H1950 C1956 0.930 . S
H1951 C1960 0.930 . S
H1952 C1965 0.929 . S
H1953 C1963 0.929 . S
H1954 C1958 0.929 . S
H1955 C1964 0.929 . S
C1956 H1950 0.930 . S
C1956 C1957 1.367 . S
C1956 C1964 1.378 . S
C1957 C1956 1.367 . S
C1957 C1965 1.433 . S
C1958 H1954 0.929 . S
C1958 C1960 1.378 . S
C1958 C1962 1.350 . S
C1959 C1962 1.463 . S
C1959 C1964 1.350 . S
C1959 N1967 1.427 . S
C1960 H1951 0.930 . S
C1960 C1958 1.378 . S
C1960 C1961 1.367 . S
C1961 C1960 1.367 . S
C1961 C1963 1.433 . S
C1962 C1958 1.350 . S
C1962 C1959 1.463 . S
C1962 N1966 1.427 . S
C1963 H1953 0.929 . S
C1963 C1961 1.433 . S
C1963 N1966 1.384 . S
C1964 H1955 0.929 . S
C1964 C1956 1.378 . S
C1964 C1959 1.350 . S
C1965 H1952 0.929 . S
C1965 C1957 1.433 . S
C1965 N1967 1.384 . S
N1966 C1962 1.427 . S
N1966 C1963 1.384 . S
N1967 C1959 1.427 . S
N1967 C1965 1.384 . S
H1968 C1974 0.930 . S
H1969 C1978 0.930 . S
H1970 C1983 0.929 1_545 S
H1971 C1981 0.929 . S
H1972 C1976 0.929 . S
H1973 C1982 0.929 . S
C1974 H1968 0.930 . S
C1974 C1975 1.367 . S
C1974 C1982 1.378 . S
C1975 C1974 1.367 . S
C1975 C1983 1.433 . S
C1976 H1972 0.929 . S
C1976 C1978 1.378 . S
C1976 C1980 1.350 1_545 S
C1977 C1980 1.463 . S
C1977 C1982 1.350 . S
C1977 N1985 1.427 1_565 S
C1978 H1969 0.930 . S
C1978 C1976 1.378 . S
C1978 C1979 1.367 . S
C1979 C1978 1.367 . S
C1979 C1981 1.433 1_545 S
C1980 C1976 1.350 1_565 S
C1980 C1977 1.463 . S
C1980 N1984 1.427 . S
C1981 H1971 0.929 . S
C1981 C1979 1.433 1_565 S
C1981 N1984 1.384 . S
C1982 H1973 0.929 . S
C1982 C1974 1.378 . S
C1982 C1977 1.350 . S
C1983 H1970 0.929 1_565 S
C1983 C1975 1.433 . S
C1983 N1985 1.384 1_565 S
N1984 C1980 1.427 . S
N1984 C1981 1.384 . S
N1985 C1977 1.427 1_545 S
N1985 C1983 1.384 1_545 S
H1986 C1992 0.930 . S
H1987 C1996 0.930 . S
H1988 C2001 0.929 . S
H1989 C1999 0.929 . S
H1990 C1994 0.929 . S
H1991 C2000 0.929 . S
C1992 H1986 0.930 . S
C1992 C1993 1.367 . S
C1992 C2000 1.378 . S
C1993 C1992 1.367 . S
C1993 C2001 1.433 1_556 S
C1994 H1990 0.929 . S
C1994 C1996 1.378 . S
C1994 C1998 1.350 1_554 S
C1995 C1998 1.463 . S
C1995 C2000 1.350 . S
C1995 N2003 1.427 1_556 S
C1996 H1987 0.930 . S
C1996 C1994 1.378 . S
C1996 C1997 1.367 1_554 S
C1997 C1996 1.367 1_556 S
C1997 C1999 1.433 . S
C1998 C1994 1.350 1_556 S
C1998 C1995 1.463 . S
C1998 N2002 1.427 . S
C1999 H1989 0.929 . S
C1999 C1997 1.433 . S
C1999 N2002 1.384 . S
C2000 H1991 0.929 . S
C2000 C1992 1.378 . S
C2000 C1995 1.350 . S
C2001 H1988 0.929 . S
C2001 C1993 1.433 1_554 S
C2001 N2003 1.384 . S
N2002 C1998 1.427 . S
N2002 C1999 1.384 . S
N2003 C1995 1.427 1_554 S
N2003 C2001 1.384 . S
H2004 C2010 0.930 . S
H2005 C2014 0.930 . S
H2006 C2019 0.929 . S
H2007 C2017 0.929 . S
H2008 C2012 0.929 . S
H2009 C2018 0.929 . S
C2010 H2004 0.930 . S
C2010 C2011 1.367 . S
C2010 C2018 1.378 . S
C2011 C2010 1.367 . S
C2011 C2019 1.433 . S
C2012 H2008 0.929 . S
C2012 C2014 1.378 . S
C2012 C2016 1.350 . S
C2013 C2016 1.463 . S
C2013 C2018 1.350 . S
C2013 N2021 1.427 . S
C2014 H2005 0.930 . S
C2014 C2012 1.378 . S
C2014 C2015 1.367 . S
C2015 C2014 1.367 . S
C2015 C2017 1.433 . S
C2016 C2012 1.350 . S
C2016 C2013 1.463 . S
C2016 N2020 1.427 . S
C2017 H2007 0.929 . S
C2017 C2015 1.433 . S
C2017 N2020 1.384 . S
C2018 H2009 0.929 . S
C2018 C2010 1.378 . S
C2018 C2013 1.350 . S
C2019 H2006 0.929 . S
C2019 C2011 1.433 . S
C2019 N2021 1.384 . S
N2020 C2016 1.427 . S
N2020 C2017 1.384 . S
N2021 C2013 1.427 . S
N2021 C2019 1.384 . S
H2022 C2028 0.930 . S
H2023 C2032 0.930 . S
H2024 C2037 0.929 . S
H2025 C2035 0.927 . S
H2026 C2030 0.929 . S
H2027 C2036 0.929 . S
C2028 H2022 0.930 . S
C2028 C2029 1.367 . S
C2028 C2036 1.378 . S
C2029 C2028 1.367 . S
C2029 C2037 1.433 . S
C2030 H2026 0.929 . S
C2030 C2032 1.378 . S
C2030 C2034 1.350 . S
C2031 C2034 1.463 . S
C2031 C2036 1.350 . S
C2031 N2039 1.427 . S
C2032 H2023 0.930 . S
C2032 C2030 1.378 . S
C2032 C2033 1.367 1_655 S
C2033 C2032 1.367 1_455 S
C2033 C2035 1.433 . S
C2034 C2030 1.350 . S
C2034 C2031 1.463 . S
C2034 N2038 1.427 . S
C2035 H2025 0.927 . S
C2035 C2033 1.433 . S
C2035 N2038 1.386 1_455 S
C2036 H2027 0.929 . S
C2036 C2028 1.378 . S
C2036 C2031 1.350 . S
C2037 H2024 0.929 . S
C2037 C2029 1.433 . S
C2037 N2039 1.384 . S
N2038 C2034 1.427 . S
N2038 C2035 1.386 1_655 S
N2039 C2031 1.427 . S
N2039 C2037 1.384 . S
H2040 C2046 0.930 . S
H2041 C2050 0.930 . S
H2042 C2055 0.929 . S
H2043 C2053 0.929 . S
H2044 C2048 0.929 . S
H2045 C2054 0.929 . S
C2046 H2040 0.930 . S
C2046 C2047 1.367 . S
C2046 C2054 1.378 . S
C2047 C2046 1.367 . S
C2047 C2055 1.433 . S
C2048 H2044 0.929 . S
C2048 C2050 1.378 . S
C2048 C2052 1.350 . S
C2049 C2052 1.463 . S
C2049 C2054 1.350 . S
C2049 N2057 1.427 . S
C2050 H2041 0.930 . S
C2050 C2048 1.378 . S
C2050 C2051 1.367 . S
C2051 C2050 1.367 . S
C2051 C2053 1.433 . S
C2052 C2048 1.350 . S
C2052 C2049 1.463 . S
C2052 N2056 1.427 . S
C2053 H2043 0.929 . S
C2053 C2051 1.433 . S
C2053 N2056 1.384 . S
C2054 H2045 0.929 . S
C2054 C2046 1.378 . S
C2054 C2049 1.350 . S
C2055 H2042 0.929 . S
C2055 C2047 1.433 . S
C2055 N2057 1.384 . S
N2056 C2052 1.427 . S
N2056 C2053 1.384 . S
N2057 C2049 1.427 . S
N2057 C2055 1.384 . S
H2058 C2064 0.930 . S
H2059 C2068 0.930 . S
H2060 C2073 0.929 . S
H2061 C2071 0.929 . S
H2062 C2066 0.929 . S
H2063 C2072 0.929 . S
C2064 H2058 0.930 . S
C2064 C2065 1.367 . S
C2064 C2072 1.378 . S
C2065 C2064 1.367 . S
C2065 C2073 1.433 . S
C2066 H2062 0.929 . S
C2066 C2068 1.378 . S
C2066 C2070 1.350 . S
C2067 C2070 1.463 . S
C2067 C2072 1.350 . S
C2067 N2075 1.427 . S
C2068 H2059 0.930 . S
C2068 C2066 1.378 . S
C2068 C2069 1.367 . S
C2069 C2068 1.367 . S
C2069 C2071 1.433 . S
C2070 C2066 1.350 . S
C2070 C2067 1.463 . S
C2070 N2074 1.427 . S
C2071 H2061 0.929 . S
C2071 C2069 1.433 . S
C2071 N2074 1.384 . S
C2072 H2063 0.929 . S
C2072 C2064 1.378 . S
C2072 C2067 1.350 . S
C2073 H2060 0.929 . S
C2073 C2065 1.433 . S
C2073 N2075 1.384 . S
N2074 C2070 1.427 . S
N2074 C2071 1.384 . S
N2075 C2067 1.427 . S
N2075 C2073 1.384 . S
H2076 C2082 0.930 . S
H2077 C2086 0.930 . S
H2078 C2091 0.929 . S
H2079 C2089 0.929 . S
H2080 C2084 0.929 . S
H2081 C2090 0.929 . S
C2082 H2076 0.930 . S
C2082 C2083 1.367 . S
C2082 C2090 1.378 . S
C2083 C2082 1.367 . S
C2083 C2091 1.433 . S
C2084 H2080 0.929 . S
C2084 C2086 1.378 . S
C2084 C2088 1.350 . S
C2085 C2088 1.463 . S
C2085 C2090 1.350 . S
C2085 N2093 1.427 . S
C2086 H2077 0.930 . S
C2086 C2084 1.378 . S
C2086 C2087 1.367 . S
C2087 C2086 1.367 . S
C2087 C2089 1.433 . S
C2088 C2084 1.350 . S
C2088 C2085 1.463 . S
C2088 N2092 1.427 . S
C2089 H2079 0.929 . S
C2089 C2087 1.433 . S
C2089 N2092 1.384 . S
C2090 H2081 0.929 . S
C2090 C2082 1.378 . S
C2090 C2085 1.350 . S
C2091 H2078 0.929 . S
C2091 C2083 1.433 . S
C2091 N2093 1.384 . S
N2092 C2088 1.427 . S
N2092 C2089 1.384 . S
N2093 C2085 1.427 . S
N2093 C2091 1.384 . S
H2094 C2100 0.930 . S
H2095 C2104 0.930 . S
H2096 C2109 0.929 . S
H2097 C2107 0.929 . S
H2098 C2102 0.929 . S
H2099 C2108 0.929 . S
C2100 H2094 0.930 . S
C2100 C2101 1.367 . S
C2100 C2108 1.378 . S
C2101 C2100 1.367 . S
C2101 C2109 1.433 . S
C2102 H2098 0.929 . S
C2102 C2104 1.378 . S
C2102 C2106 1.350 . S
C2103 C2106 1.463 . S
C2103 C2108 1.350 . S
C2103 N2111 1.427 . S
C2104 H2095 0.930 . S
C2104 C2102 1.378 . S
C2104 C2105 1.367 . S
C2105 C2104 1.367 . S
C2105 C2107 1.433 . S
C2106 C2102 1.350 . S
C2106 C2103 1.463 . S
C2106 N2110 1.427 . S
C2107 H2097 0.929 . S
C2107 C2105 1.433 . S
C2107 N2110 1.384 . S
C2108 H2099 0.929 . S
C2108 C2100 1.378 . S
C2108 C2103 1.350 . S
C2109 H2096 0.929 . S
C2109 C2101 1.433 . S
C2109 N2111 1.384 . S
N2110 C2106 1.427 . S
N2110 C2107 1.384 . S
N2111 C2103 1.427 . S
N2111 C2109 1.384 . S
H2112 C2118 0.930 . S
H2113 C2122 0.930 . S
H2114 C2127 0.929 . S
H2115 C2125 0.929 1_556 S
H2116 C2120 0.929 . S
H2117 C2126 0.929 . S
C2118 H2112 0.930 . S
C2118 C2119 1.367 . S
C2118 C2126 1.378 . S
C2119 C2118 1.367 . S
C2119 C2127 1.433 . S
C2120 H2116 0.929 . S
C2120 C2122 1.378 . S
C2120 C2124 1.350 . S
C2121 C2124 1.463 . S
C2121 C2126 1.350 . S
C2121 N2129 1.427 . S
C2122 H2113 0.930 . S
C2122 C2120 1.378 . S
C2122 C2123 1.367 . S
C2123 C2122 1.367 . S
C2123 C2125 1.433 . S
C2124 C2120 1.350 . S
C2124 C2121 1.463 . S
C2124 N2128 1.427 . S
C2125 H2115 0.929 1_554 S
C2125 C2123 1.433 . S
C2125 N2128 1.384 . S
C2126 H2117 0.929 . S
C2126 C2118 1.378 . S
C2126 C2121 1.350 . S
C2127 H2114 0.929 . S
C2127 C2119 1.433 . S
C2127 N2129 1.384 . S
N2128 C2124 1.427 . S
N2128 C2125 1.384 . S
N2129 C2121 1.427 . S
N2129 C2127 1.384 . S
H2130 C2136 0.930 . S
H2131 C2140 0.930 . S
H2132 C2145 0.929 . S
H2133 C2143 0.929 . S
H2134 C2138 0.929 . S
H2135 C2144 0.929 . S
C2136 H2130 0.930 . S
C2136 C2137 1.367 . S
C2136 C2144 1.378 . S
C2137 C2136 1.367 . S
C2137 C2145 1.433 . S
C2138 H2134 0.929 . S
C2138 C2140 1.378 . S
C2138 C2142 1.350 . S
C2139 C2142 1.463 . S
C2139 C2144 1.350 . S
C2139 N2147 1.427 . S
C2140 H2131 0.930 . S
C2140 C2138 1.378 . S
C2140 C2141 1.367 . S
C2141 C2140 1.367 . S
C2141 C2143 1.433 . S
C2142 C2138 1.350 . S
C2142 C2139 1.463 . S
C2142 N2146 1.427 . S
C2143 H2133 0.929 . S
C2143 C2141 1.433 . S
C2143 N2146 1.384 . S
C2144 H2135 0.929 . S
C2144 C2136 1.378 . S
C2144 C2139 1.350 . S
C2145 H2132 0.929 . S
C2145 C2137 1.433 . S
C2145 N2147 1.384 . S
N2146 C2142 1.427 . S
N2146 C2143 1.384 . S
N2147 C2139 1.427 . S
N2147 C2145 1.384 . S
H2148 C2154 0.930 . S
H2149 C2158 0.930 . S
H2150 C2163 0.929 . S
H2151 C2161 0.929 . S
H2152 C2156 0.929 . S
H2153 C2162 0.929 . S
C2154 H2148 0.930 . S
C2154 C2155 1.367 . S
C2154 C2162 1.378 . S
C2155 C2154 1.367 . S
C2155 C2163 1.433 . S
C2156 H2152 0.929 . S
C2156 C2158 1.378 . S
C2156 C2160 1.350 . S
C2157 C2160 1.463 . S
C2157 C2162 1.350 . S
C2157 N2165 1.427 . S
C2158 H2149 0.930 . S
C2158 C2156 1.378 . S
C2158 C2159 1.367 . S
C2159 C2158 1.367 . S
C2159 C2161 1.433 . S
C2160 C2156 1.350 . S
C2160 C2157 1.463 . S
C2160 N2164 1.427 . S
C2161 H2151 0.929 . S
C2161 C2159 1.433 . S
C2161 N2164 1.384 . S
C2162 H2153 0.929 . S
C2162 C2154 1.378 . S
C2162 C2157 1.350 . S
C2163 H2150 0.929 . S
C2163 C2155 1.433 . S
C2163 N2165 1.384 . S
N2164 C2160 1.427 . S
N2164 C2161 1.384 . S
N2165 C2157 1.427 . S
N2165 C2163 1.384 . S
H2166 C2172 0.930 . S
H2167 C2176 0.930 . S
H2168 C2181 0.929 . S
H2169 C2179 0.929 . S
H2170 C2174 0.929 . S
H2171 C2180 0.929 . S
C2172 H2166 0.930 . S
C2172 C2173 1.367 . S
C2172 C2180 1.378 . S
C2173 C2172 1.367 . S
C2173 C2181 1.433 . S
C2174 H2170 0.929 . S
C2174 C2176 1.378 . S
C2174 C2178 1.350 . S
C2175 C2178 1.463 . S
C2175 C2180 1.350 . S
C2175 N2183 1.427 . S
C2176 H2167 0.930 . S
C2176 C2174 1.378 . S
C2176 C2177 1.367 . S
C2177 C2176 1.367 . S
C2177 C2179 1.433 . S
C2178 C2174 1.350 . S
C2178 C2175 1.463 . S
C2178 N2182 1.427 . S
C2179 H2169 0.929 . S
C2179 C2177 1.433 . S
C2179 N2182 1.384 . S
C2180 H2171 0.929 . S
C2180 C2172 1.378 . S
C2180 C2175 1.350 . S
C2181 H2168 0.929 . S
C2181 C2173 1.433 . S
C2181 N2183 1.384 . S
N2182 C2178 1.427 . S
N2182 C2179 1.384 . S
N2183 C2175 1.427 . S
N2183 C2181 1.384 . S
H2184 C2190 0.930 . S
H2185 C2194 0.930 . S
H2186 C2199 0.929 . S
H2187 C2197 0.929 . S
H2188 C2192 0.929 . S
H2189 C2198 0.929 . S
C2190 H2184 0.930 . S
C2190 C2191 1.367 . S
C2190 C2198 1.378 . S
C2191 C2190 1.367 . S
C2191 C2199 1.433 . S
C2192 H2188 0.929 . S
C2192 C2194 1.378 . S
C2192 C2196 1.350 . S
C2193 C2196 1.463 . S
C2193 C2198 1.350 . S
C2193 N2201 1.427 . S
C2194 H2185 0.930 . S
C2194 C2192 1.378 . S
C2194 C2195 1.367 . S
C2195 C2194 1.367 . S
C2195 C2197 1.433 . S
C2196 C2192 1.350 . S
C2196 C2193 1.463 . S
C2196 N2200 1.427 . S
C2197 H2187 0.929 . S
C2197 C2195 1.433 . S
C2197 N2200 1.384 . S
C2198 H2189 0.929 . S
C2198 C2190 1.378 . S
C2198 C2193 1.350 . S
C2199 H2186 0.929 . S
C2199 C2191 1.433 . S
C2199 N2201 1.384 . S
N2200 C2196 1.427 . S
N2200 C2197 1.384 . S
N2201 C2193 1.427 . S
N2201 C2199 1.384 . S
H2202 C2208 0.930 . S
H2203 C2212 0.930 . S
H2204 C2217 0.929 . S
H2205 C2215 0.929 . S
H2206 C2210 0.929 . S
H2207 C2216 0.929 . S
C2208 H2202 0.930 . S
C2208 C2209 1.367 . S
C2208 C2216 1.378 . S
C2209 C2208 1.367 . S
C2209 C2217 1.433 . S
C2210 H2206 0.929 . S
C2210 C2212 1.378 . S
C2210 C2214 1.350 . S
C2211 C2214 1.463 . S
C2211 C2216 1.350 . S
C2211 N2219 1.427 . S
C2212 H2203 0.930 . S
C2212 C2210 1.378 . S
C2212 C2213 1.367 . S
C2213 C2212 1.367 . S
C2213 C2215 1.433 . S
C2214 C2210 1.350 . S
C2214 C2211 1.463 . S
C2214 N2218 1.427 . S
C2215 H2205 0.929 . S
C2215 C2213 1.433 . S
C2215 N2218 1.384 . S
C2216 H2207 0.929 . S
C2216 C2208 1.378 . S
C2216 C2211 1.350 . S
C2217 H2204 0.929 . S
C2217 C2209 1.433 . S
C2217 N2219 1.384 . S
N2218 C2214 1.427 . S
N2218 C2215 1.384 . S
N2219 C2211 1.427 . S
N2219 C2217 1.384 . S
H2220 C2226 0.930 . S
H2221 C2230 0.930 1_554 S
H2222 C2235 0.929 . S
H2223 C2233 0.905 1_545 S
H2224 C2228 0.929 . S
H2225 C2234 0.929 . S
C2226 H2220 0.930 . S
C2226 C2227 1.367 . S
C2226 C2234 1.378 . S
C2227 C2226 1.367 . S
C2227 C2235 1.433 . S
C2228 H2224 0.929 . S
C2228 C2230 1.378 . S
C2228 C2232 1.350 . S
C2229 C2232 1.463 . S
C2229 C2234 1.350 . S
C2229 N2237 1.427 . S
C2230 H2221 0.930 1_556 S
C2230 C2228 1.378 . S
C2230 C2231 1.367 . S
C2231 C2230 1.367 . S
C2231 C2233 1.433 . S
C2232 C2228 1.350 . S
C2232 C2229 1.463 . S
C2232 N2236 1.427 . S
C2233 H2223 0.905 1_565 S
C2233 C2231 1.433 . S
C2233 N2236 1.384 . S
C2234 H2225 0.929 . S
C2234 C2226 1.378 . S
C2234 C2229 1.350 . S
C2235 H2222 0.929 . S
C2235 C2227 1.433 . S
C2235 N2237 1.384 . S
N2236 C2232 1.427 . S
N2236 C2233 1.384 . S
N2237 C2229 1.427 . S
N2237 C2235 1.384 . S
H2238 C2244 0.930 . S
H2239 C2248 0.930 . S
H2240 C2253 0.929 . S
H2241 C2251 0.929 . S
H2242 C2246 0.929 . S
H2243 C2252 0.929 . S
C2244 H2238 0.930 . S
C2244 C2245 1.367 . S
C2244 C2252 1.378 . S
C2245 C2244 1.367 . S
C2245 C2253 1.433 . S
C2246 H2242 0.929 . S
C2246 C2248 1.378 . S
C2246 C2250 1.350 . S
C2247 C2250 1.463 . S
C2247 C2252 1.350 . S
C2247 N2255 1.427 . S
C2248 H2239 0.930 . S
C2248 C2246 1.378 . S
C2248 C2249 1.367 . S
C2249 C2248 1.367 . S
C2249 C2251 1.433 . S
C2250 C2246 1.350 . S
C2250 C2247 1.463 . S
C2250 N2254 1.427 . S
C2251 H2241 0.929 . S
C2251 C2249 1.433 . S
C2251 N2254 1.384 . S
C2252 H2243 0.929 . S
C2252 C2244 1.378 . S
C2252 C2247 1.350 . S
C2253 H2240 0.929 . S
C2253 C2245 1.433 . S
C2253 N2255 1.384 . S
N2254 C2250 1.427 . S
N2254 C2251 1.384 . S
N2255 C2247 1.427 . S
N2255 C2253 1.384 . S
H2256 C2262 0.930 . S
H2257 C2266 0.942 . S
H2258 C2271 0.929 . S
H2259 C2269 0.929 . S
H2260 C2264 0.929 . S
H2261 C2270 0.929 . S
C2262 H2256 0.930 . S
C2262 C2263 1.367 . S
C2262 C2270 1.378 . S
C2263 C2262 1.367 . S
C2263 C2271 1.433 1_545 S
C2264 H2260 0.929 . S
C2264 C2266 1.378 . S
C2264 C2268 1.350 1_565 S
C2265 C2268 1.463 . S
C2265 C2270 1.350 . S
C2265 N2273 1.427 1_545 S
C2266 H2257 0.942 . S
C2266 C2264 1.378 . S
C2266 C2267 1.357 1_565 S
C2267 C2266 1.357 1_545 S
C2267 C2269 1.433 . S
C2268 C2264 1.350 1_545 S
C2268 C2265 1.463 . S
C2268 N2272 1.427 . S
C2269 H2259 0.929 . S
C2269 C2267 1.433 . S
C2269 N2272 1.384 . S
C2270 H2261 0.929 . S
C2270 C2262 1.378 . S
C2270 C2265 1.350 . S
C2271 H2258 0.929 . S
C2271 C2263 1.433 1_565 S
C2271 N2273 1.384 . S
N2272 C2268 1.427 . S
N2272 C2269 1.384 . S
N2273 C2265 1.427 1_565 S
N2273 C2271 1.384 . S
H2274 C2280 0.930 . S
H2275 C2284 0.930 . S
H2276 C2289 0.929 . S
H2277 C2287 0.929 . S
H2278 C2282 0.929 . S
H2279 C2288 0.929 . S
C2280 H2274 0.930 . S
C2280 C2281 1.367 . S
C2280 C2288 1.378 . S
C2281 C2280 1.367 . S
C2281 C2289 1.433 . S
C2282 H2278 0.929 . S
C2282 C2284 1.378 . S
C2282 C2286 1.350 . S
C2283 C2286 1.463 . S
C2283 C2288 1.350 . S
C2283 N2291 1.427 . S
C2284 H2275 0.930 . S
C2284 C2282 1.378 . S
C2284 C2285 1.367 . S
C2285 C2284 1.367 . S
C2285 C2287 1.433 . S
C2286 C2282 1.350 . S
C2286 C2283 1.463 . S
C2286 N2290 1.427 . S
C2287 H2277 0.929 . S
C2287 C2285 1.433 . S
C2287 N2290 1.384 . S
C2288 H2279 0.929 . S
C2288 C2280 1.378 . S
C2288 C2283 1.350 . S
C2289 H2276 0.929 . S
C2289 C2281 1.433 . S
C2289 N2291 1.384 . S
N2290 C2286 1.427 . S
N2290 C2287 1.384 . S
N2291 C2283 1.427 . S
N2291 C2289 1.384 . S
H2292 C2298 0.930 1_565 S
H2293 C2302 0.930 . S
H2294 C2307 0.929 . S
H2295 C2305 0.929 . S
H2296 C2300 0.929 . S
H2297 C2306 0.929 1_565 S
C2298 H2292 0.930 1_545 S
C2298 C2299 1.367 . S
C2298 C2306 1.378 . S
C2299 C2298 1.367 . S
C2299 C2307 1.433 . S
C2300 H2296 0.929 . S
C2300 C2302 1.378 . S
C2300 C2304 1.350 . S
C2301 C2304 1.463 . S
C2301 C2306 1.350 . S
C2301 N2309 1.427 . S
C2302 H2293 0.930 . S
C2302 C2300 1.378 . S
C2302 C2303 1.367 . S
C2303 C2302 1.367 . S
C2303 C2305 1.433 . S
C2304 C2300 1.350 . S
C2304 C2301 1.463 . S
C2304 N2308 1.427 . S
C2305 H2295 0.929 . S
C2305 C2303 1.433 . S
C2305 N2308 1.384 . S
C2306 H2297 0.929 1_545 S
C2306 C2298 1.378 . S
C2306 C2301 1.350 . S
C2307 H2294 0.929 . S
C2307 C2299 1.433 . S
C2307 N2309 1.384 . S
N2308 C2304 1.427 . S
N2308 C2305 1.384 . S
N2309 C2301 1.427 . S
N2309 C2307 1.384 . S
H2310 C2316 0.930 . S
H2311 C2320 0.930 . S
H2312 C2325 0.929 . S
H2313 C2323 0.929 . S
H2314 C2318 0.929 . S
H2315 C2324 0.929 . S
C2316 H2310 0.930 . S
C2316 C2317 1.367 . S
C2316 C2324 1.378 . S
C2317 C2316 1.367 . S
C2317 C2325 1.433 . S
C2318 H2314 0.929 . S
C2318 C2320 1.378 . S
C2318 C2322 1.350 . S
C2319 C2322 1.463 . S
C2319 C2324 1.350 . S
C2319 N2327 1.427 . S
C2320 H2311 0.930 . S
C2320 C2318 1.378 . S
C2320 C2321 1.367 . S
C2321 C2320 1.367 . S
C2321 C2323 1.433 . S
C2322 C2318 1.350 . S
C2322 C2319 1.463 . S
C2322 N2326 1.427 . S
C2323 H2313 0.929 . S
C2323 C2321 1.433 . S
C2323 N2326 1.384 . S
C2324 H2315 0.929 . S
C2324 C2316 1.378 . S
C2324 C2319 1.350 . S
C2325 H2312 0.929 . S
C2325 C2317 1.433 . S
C2325 N2327 1.384 . S
N2326 C2322 1.427 . S
N2326 C2323 1.384 . S
N2327 C2319 1.427 . S
N2327 C2325 1.384 . S
H2328 C2334 0.930 . S
H2329 C2338 0.930 . S
H2330 C2343 0.929 . S
H2331 C2341 0.949 . S
H2332 C2336 0.929 . S
H2333 C2342 0.929 . S
C2334 H2328 0.930 . S
C2334 C2335 1.367 . S
C2334 C2342 1.378 . S
C2335 C2334 1.367 . S
C2335 C2343 1.433 1_565 S
C2336 H2332 0.929 . S
C2336 C2338 1.378 . S
C2336 C2340 1.350 . S
C2337 C2340 1.463 . S
C2337 C2342 1.350 1_545 S
C2337 N2345 1.427 . S
C2338 H2329 0.930 . S
C2338 C2336 1.378 . S
C2338 C2339 1.367 . S
C2339 C2338 1.367 . S
C2339 C2341 1.392 1_545 S
C2340 C2336 1.350 . S
C2340 C2337 1.463 . S
C2340 N2344 1.427 1_545 S
C2341 H2331 0.949 . S
C2341 C2339 1.392 1_565 S
C2341 N2344 1.405 . S
C2342 H2333 0.929 . S
C2342 C2334 1.378 . S
C2342 C2337 1.350 1_565 S
C2343 H2330 0.929 . S
C2343 C2335 1.433 1_545 S
C2343 N2345 1.384 . S
N2344 C2340 1.427 1_565 S
N2344 C2341 1.405 . S
N2345 C2337 1.427 . S
N2345 C2343 1.384 . S
H2346 C2352 0.930 . S
H2347 C2356 0.930 . S
H2348 C2361 0.929 . S
H2349 C2359 0.929 . S
H2350 C2354 0.929 . S
H2351 C2360 0.929 . S
C2352 H2346 0.930 . S
C2352 C2353 1.367 . S
C2352 C2360 1.378 . S
C2353 C2352 1.367 . S
C2353 C2361 1.433 . S
C2354 H2350 0.929 . S
C2354 C2356 1.378 . S
C2354 C2358 1.350 . S
C2355 C2358 1.463 . S
C2355 C2360 1.350 . S
C2355 N2363 1.427 . S
C2356 H2347 0.930 . S
C2356 C2354 1.378 . S
C2356 C2357 1.367 . S
C2357 C2356 1.367 . S
C2357 C2359 1.433 . S
C2358 C2354 1.350 . S
C2358 C2355 1.463 . S
C2358 N2362 1.427 . S
C2359 H2349 0.929 . S
C2359 C2357 1.433 . S
C2359 N2362 1.384 . S
C2360 H2351 0.929 . S
C2360 C2352 1.378 . S
C2360 C2355 1.350 . S
C2361 H2348 0.929 . S
C2361 C2353 1.433 . S
C2361 N2363 1.384 . S
N2362 C2358 1.427 . S
N2362 C2359 1.384 . S
N2363 C2355 1.427 . S
N2363 C2361 1.384 . S
H2364 C2370 0.930 . S
H2365 C2374 0.930 . S
H2366 C2379 0.929 . S
H2367 C2377 0.929 1_565 S
H2368 C2372 0.929 . S
H2369 C2378 0.938 . S
C2370 H2364 0.930 . S
C2370 C2371 1.367 1_565 S
C2370 C2378 1.379 . S
C2371 C2370 1.367 1_545 S
C2371 C2379 1.433 . S
C2372 H2368 0.929 . S
C2372 C2374 1.378 . S
C2372 C2376 1.350 . S
C2373 C2376 1.463 . S
C2373 C2378 1.339 1_545 S
C2373 N2381 1.427 . S
C2374 H2365 0.930 . S
C2374 C2372 1.378 . S
C2374 C2375 1.367 . S
C2375 C2374 1.367 . S
C2375 C2377 1.433 . S
C2376 C2372 1.350 . S
C2376 C2373 1.463 . S
C2376 N2380 1.427 . S
C2377 H2367 0.929 1_545 S
C2377 C2375 1.433 . S
C2377 N2380 1.384 . S
C2378 H2369 0.938 . S
C2378 C2370 1.379 . S
C2378 C2373 1.339 1_565 S
C2379 H2366 0.929 . S
C2379 C2371 1.433 . S
C2379 N2381 1.384 . S
N2380 C2376 1.427 . S
N2380 C2377 1.384 . S
N2381 C2373 1.427 . S
N2381 C2379 1.384 . S
H2382 C2388 0.930 . S
H2383 C2392 0.930 . S
H2384 C2397 0.929 . S
H2385 C2395 0.929 . S
H2386 C2390 0.929 . S
H2387 C2396 0.929 . S
C2388 H2382 0.930 . S
C2388 C2389 1.367 . S
C2388 C2396 1.378 . S
C2389 C2388 1.367 . S
C2389 C2397 1.433 . S
C2390 H2386 0.929 . S
C2390 C2392 1.378 . S
C2390 C2394 1.350 . S
C2391 C2394 1.463 . S
C2391 C2396 1.350 . S
C2391 N2399 1.427 . S
C2392 H2383 0.930 . S
C2392 C2390 1.378 . S
C2392 C2393 1.367 . S
C2393 C2392 1.367 . S
C2393 C2395 1.433 . S
C2394 C2390 1.350 . S
C2394 C2391 1.463 . S
C2394 N2398 1.427 . S
C2395 H2385 0.929 . S
C2395 C2393 1.433 . S
C2395 N2398 1.384 . S
C2396 H2387 0.929 . S
C2396 C2388 1.378 . S
C2396 C2391 1.350 . S
C2397 H2384 0.929 . S
C2397 C2389 1.433 . S
C2397 N2399 1.384 . S
N2398 C2394 1.427 . S
N2398 C2395 1.384 . S
N2399 C2391 1.427 . S
N2399 C2397 1.384 . S
H2400 C2406 0.930 1_556 S
H2401 C2410 0.930 . S
H2402 C2415 0.929 . S
H2403 C2413 0.929 . S
H2404 C2408 0.929 . S
H2405 C2414 0.929 1_556 S
C2406 H2400 0.930 1_554 S
C2406 C2407 1.367 . S
C2406 C2414 1.378 . S
C2407 C2406 1.367 . S
C2407 C2415 1.433 . S
C2408 H2404 0.929 . S
C2408 C2410 1.378 . S
C2408 C2412 1.350 . S
C2409 C2412 1.463 . S
C2409 C2414 1.350 . S
C2409 N2417 1.427 . S
C2410 H2401 0.930 . S
C2410 C2408 1.378 . S
C2410 C2411 1.367 . S
C2411 C2410 1.367 . S
C2411 C2413 1.433 1_554 S
C2412 C2408 1.350 . S
C2412 C2409 1.463 . S
C2412 N2416 1.427 1_554 S
C2413 H2403 0.929 . S
C2413 C2411 1.433 1_556 S
C2413 N2416 1.384 . S
C2414 H2405 0.929 1_554 S
C2414 C2406 1.378 . S
C2414 C2409 1.350 . S
C2415 H2402 0.929 . S
C2415 C2407 1.433 . S
C2415 N2417 1.384 . S
N2416 C2412 1.427 1_556 S
N2416 C2413 1.384 . S
N2417 C2409 1.427 . S
N2417 C2415 1.384 . S
H2418 C2424 0.930 . S
H2419 C2428 0.930 1_556 S
H2420 C2433 0.929 . S
H2421 C2431 0.929 . S
H2422 C2426 0.948 . S
H2423 C2432 0.929 . S
C2424 H2418 0.930 . S
C2424 C2425 1.367 . S
C2424 C2432 1.378 . S
C2425 C2424 1.367 . S
C2425 C2433 1.433 . S
C2426 H2422 0.948 . S
C2426 C2428 1.378 . S
C2426 C2430 1.350 . S
C2427 C2430 1.463 . S
C2427 C2432 1.350 . S
C2427 N2435 1.427 . S
C2428 H2419 0.930 1_554 S
C2428 C2426 1.378 . S
C2428 C2429 1.367 . S
C2429 C2428 1.367 . S
C2429 C2431 1.433 . S
C2430 C2426 1.350 . S
C2430 C2427 1.463 . S
C2430 N2434 1.427 . S
C2431 H2421 0.929 . S
C2431 C2429 1.433 . S
C2431 N2434 1.384 . S
C2432 H2423 0.929 . S
C2432 C2424 1.378 . S
C2432 C2427 1.350 . S
C2433 H2420 0.929 . S
C2433 C2425 1.433 . S
C2433 N2435 1.384 . S
N2434 C2430 1.427 . S
N2434 C2431 1.384 . S
N2435 C2427 1.427 . S
N2435 C2433 1.384 . S
H2436 C2442 0.930 . S
H2437 C2446 0.930 . S
H2438 C2451 0.929 . S
H2439 C2449 0.929 . S
H2440 C2444 0.929 . S
H2441 C2450 0.929 . S
C2442 H2436 0.930 . S
C2442 C2443 1.367 . S
C2442 C2450 1.378 . S
C2443 C2442 1.367 . S
C2443 C2451 1.433 . S
C2444 H2440 0.929 . S
C2444 C2446 1.378 . S
C2444 C2448 1.350 . S
C2445 C2448 1.463 . S
C2445 C2450 1.350 . S
C2445 N2453 1.427 . S
C2446 H2437 0.930 . S
C2446 C2444 1.378 . S
C2446 C2447 1.367 . S
C2447 C2446 1.367 . S
C2447 C2449 1.433 . S
C2448 C2444 1.350 . S
C2448 C2445 1.463 . S
C2448 N2452 1.427 . S
C2449 H2439 0.929 . S
C2449 C2447 1.433 . S
C2449 N2452 1.384 . S
C2450 H2441 0.929 . S
C2450 C2442 1.378 . S
C2450 C2445 1.350 . S
C2451 H2438 0.929 . S
C2451 C2443 1.433 . S
C2451 N2453 1.384 . S
N2452 C2448 1.427 . S
N2452 C2449 1.384 . S
N2453 C2445 1.427 . S
N2453 C2451 1.384 . S
H2454 C2460 0.930 . S
H2455 C2464 0.930 . S
H2456 C2469 0.929 . S
H2457 C2467 0.929 . S
H2458 C2462 0.929 . S
H2459 C2468 0.929 . S
C2460 H2454 0.930 . S
C2460 C2461 1.367 . S
C2460 C2468 1.378 . S
C2461 C2460 1.367 . S
C2461 C2469 1.433 . S
C2462 H2458 0.929 . S
C2462 C2464 1.378 . S
C2462 C2466 1.350 . S
C2463 C2466 1.463 . S
C2463 C2468 1.350 . S
C2463 N2471 1.427 . S
C2464 H2455 0.930 . S
C2464 C2462 1.378 . S
C2464 C2465 1.367 . S
C2465 C2464 1.367 . S
C2465 C2467 1.433 . S
C2466 C2462 1.350 . S
C2466 C2463 1.463 . S
C2466 N2470 1.427 . S
C2467 H2457 0.929 . S
C2467 C2465 1.433 . S
C2467 N2470 1.384 . S
C2468 H2459 0.929 . S
C2468 C2460 1.378 . S
C2468 C2463 1.350 . S
C2469 H2456 0.929 . S
C2469 C2461 1.433 . S
C2469 N2471 1.384 . S
N2470 C2466 1.427 . S
N2470 C2467 1.384 . S
N2471 C2463 1.427 . S
N2471 C2469 1.384 . S
H2472 C2478 0.930 1_545 S
H2473 C2482 0.930 . S
H2474 C2487 0.929 . S
H2475 C2485 0.929 . S
H2476 C2480 0.929 . S
H2477 C2486 0.929 . S
C2478 H2472 0.930 1_565 S
C2478 C2479 1.367 . S
C2478 C2486 1.378 . S
C2479 C2478 1.367 . S
C2479 C2487 1.433 . S
C2480 H2476 0.929 . S
C2480 C2482 1.378 . S
C2480 C2484 1.350 . S
C2481 C2484 1.463 . S
C2481 C2486 1.350 . S
C2481 N2489 1.427 . S
C2482 H2473 0.930 . S
C2482 C2480 1.378 . S
C2482 C2483 1.367 . S
C2483 C2482 1.367 . S
C2483 C2485 1.433 . S
C2484 C2480 1.350 . S
C2484 C2481 1.463 . S
C2484 N2488 1.427 . S
C2485 H2475 0.929 . S
C2485 C2483 1.433 . S
C2485 N2488 1.384 . S
C2486 H2477 0.929 . S
C2486 C2478 1.378 . S
C2486 C2481 1.350 . S
C2487 H2474 0.929 . S
C2487 C2479 1.433 . S
C2487 N2489 1.384 . S
N2488 C2484 1.427 . S
N2488 C2485 1.384 . S
N2489 C2481 1.427 . S
N2489 C2487 1.384 . S
H2490 C2496 0.930 . S
H2491 C2500 0.930 . S
H2492 C2505 0.929 . S
H2493 C2503 0.929 . S
H2494 C2498 0.929 . S
H2495 C2504 0.929 . S
C2496 H2490 0.930 . S
C2496 C2497 1.367 . S
C2496 C2504 1.378 . S
C2497 C2496 1.367 . S
C2497 C2505 1.433 . S
C2498 H2494 0.929 . S
C2498 C2500 1.378 . S
C2498 C2502 1.350 . S
C2499 C2502 1.463 . S
C2499 C2504 1.350 . S
C2499 N2507 1.427 . S
C2500 H2491 0.930 . S
C2500 C2498 1.378 . S
C2500 C2501 1.367 . S
C2501 C2500 1.367 . S
C2501 C2503 1.433 . S
C2502 C2498 1.350 . S
C2502 C2499 1.463 . S
C2502 N2506 1.427 . S
C2503 H2493 0.929 . S
C2503 C2501 1.433 . S
C2503 N2506 1.384 . S
C2504 H2495 0.929 . S
C2504 C2496 1.378 . S
C2504 C2499 1.350 . S
C2505 H2492 0.929 . S
C2505 C2497 1.433 . S
C2505 N2507 1.384 . S
N2506 C2502 1.427 . S
N2506 C2503 1.384 . S
N2507 C2499 1.427 . S
N2507 C2505 1.384 . S
H2508 C2514 0.930 . S
H2509 C2518 0.930 . S
H2510 C2523 0.929 . S
H2511 C2521 0.929 . S
H2512 C2516 0.929 . S
H2513 C2522 0.929 . S
C2514 H2508 0.930 . S
C2514 C2515 1.367 . S
C2514 C2522 1.378 . S
C2515 C2514 1.367 . S
C2515 C2523 1.433 . S
C2516 H2512 0.929 . S
C2516 C2518 1.378 . S
C2516 C2520 1.350 . S
C2517 C2520 1.463 . S
C2517 C2522 1.350 . S
C2517 N2525 1.427 . S
C2518 H2509 0.930 . S
C2518 C2516 1.378 . S
C2518 C2519 1.367 . S
C2519 C2518 1.367 . S
C2519 C2521 1.433 . S
C2520 C2516 1.350 . S
C2520 C2517 1.463 . S
C2520 N2524 1.427 . S
C2521 H2511 0.929 . S
C2521 C2519 1.433 . S
C2521 N2524 1.384 . S
C2522 H2513 0.929 . S
C2522 C2514 1.378 . S
C2522 C2517 1.350 . S
C2523 H2510 0.929 . S
C2523 C2515 1.433 . S
C2523 N2525 1.384 . S
N2524 C2520 1.427 . S
N2524 C2521 1.384 . S
N2525 C2517 1.427 . S
N2525 C2523 1.384 . S
H2526 C2532 0.930 . S
H2527 C2536 0.930 . S
H2528 C2541 0.929 . S
H2529 C2539 0.929 . S
H2530 C2534 0.929 . S
H2531 C2540 0.929 . S
C2532 H2526 0.930 . S
C2532 C2533 1.367 . S
C2532 C2540 1.378 . S
C2533 C2532 1.367 . S
C2533 C2541 1.433 . S
C2534 H2530 0.929 . S
C2534 C2536 1.378 . S
C2534 C2538 1.350 . S
C2535 C2538 1.463 . S
C2535 C2540 1.350 . S
C2535 N2543 1.427 . S
C2536 H2527 0.930 . S
C2536 C2534 1.378 . S
C2536 C2537 1.367 . S
C2537 C2536 1.367 . S
C2537 C2539 1.433 . S
C2538 C2534 1.350 . S
C2538 C2535 1.463 . S
C2538 N2542 1.427 . S
C2539 H2529 0.929 . S
C2539 C2537 1.433 . S
C2539 N2542 1.384 . S
C2540 H2531 0.929 . S
C2540 C2532 1.378 . S
C2540 C2535 1.350 . S
C2541 H2528 0.929 . S
C2541 C2533 1.433 . S
C2541 N2543 1.384 . S
N2542 C2538 1.427 . S
N2542 C2539 1.384 . S
N2543 C2535 1.427 . S
N2543 C2541 1.384 . S
H2544 C2550 0.930 . S
H2545 C2554 0.930 . S
H2546 C2559 0.929 . S
H2547 C2557 0.929 . S
H2548 C2552 0.929 . S
H2549 C2558 0.929 . S
C2550 H2544 0.930 . S
C2550 C2551 1.367 . S
C2550 C2558 1.378 . S
C2551 C2550 1.367 . S
C2551 C2559 1.433 . S
C2552 H2548 0.929 . S
C2552 C2554 1.378 . S
C2552 C2556 1.350 . S
C2553 C2556 1.463 . S
C2553 C2558 1.350 . S
C2553 N2561 1.427 . S
C2554 H2545 0.930 . S
C2554 C2552 1.378 . S
C2554 C2555 1.367 . S
C2555 C2554 1.367 . S
C2555 C2557 1.433 . S
C2556 C2552 1.350 . S
C2556 C2553 1.463 . S
C2556 N2560 1.427 . S
C2557 H2547 0.929 . S
C2557 C2555 1.433 . S
C2557 N2560 1.384 . S
C2558 H2549 0.929 . S
C2558 C2550 1.378 . S
C2558 C2553 1.350 . S
C2559 H2546 0.929 . S
C2559 C2551 1.433 . S
C2559 N2561 1.384 . S
N2560 C2556 1.427 . S
N2560 C2557 1.384 . S
N2561 C2553 1.427 . S
N2561 C2559 1.384 . S
H2562 C2568 0.930 . S
H2563 C2572 0.930 . S
H2564 C2577 0.929 . S
H2565 C2575 0.929 . S
H2566 C2570 0.929 . S
H2567 C2576 0.929 . S
C2568 H2562 0.930 . S
C2568 C2569 1.367 . S
C2568 C2576 1.378 . S
C2569 C2568 1.367 . S
C2569 C2577 1.433 . S
C2570 H2566 0.929 . S
C2570 C2572 1.378 . S
C2570 C2574 1.350 . S
C2571 C2574 1.463 . S
C2571 C2576 1.350 . S
C2571 N2579 1.427 . S
C2572 H2563 0.930 . S
C2572 C2570 1.378 . S
C2572 C2573 1.367 . S
C2573 C2572 1.367 . S
C2573 C2575 1.433 . S
C2574 C2570 1.350 . S
C2574 C2571 1.463 . S
C2574 N2578 1.427 . S
C2575 H2565 0.929 . S
C2575 C2573 1.433 . S
C2575 N2578 1.384 . S
C2576 H2567 0.929 . S
C2576 C2568 1.378 . S
C2576 C2571 1.350 . S
C2577 H2564 0.929 . S
C2577 C2569 1.433 . S
C2577 N2579 1.384 . S
N2578 C2574 1.427 . S
N2578 C2575 1.384 . S
N2579 C2571 1.427 . S
N2579 C2577 1.384 . S
H2580 C2586 0.930 . S
H2581 C2590 0.930 . S
H2582 C2595 0.929 1_554 S
H2583 C2593 0.929 . S
H2584 C2588 0.929 . S
H2585 C2594 0.929 . S
C2586 H2580 0.930 . S
C2586 C2587 1.367 . S
C2586 C2594 1.378 . S
C2587 C2586 1.367 . S
C2587 C2595 1.433 . S
C2588 H2584 0.929 . S
C2588 C2590 1.378 . S
C2588 C2592 1.350 1_554 S
C2589 C2592 1.463 . S
C2589 C2594 1.350 . S
C2589 N2597 1.427 1_556 S
C2590 H2581 0.930 . S
C2590 C2588 1.378 . S
C2590 C2591 1.367 . S
C2591 C2590 1.367 . S
C2591 C2593 1.433 1_554 S
C2592 C2588 1.350 1_556 S
C2592 C2589 1.463 . S
C2592 N2596 1.427 . S
C2593 H2583 0.929 . S
C2593 C2591 1.433 1_556 S
C2593 N2596 1.384 . S
C2594 H2585 0.929 . S
C2594 C2586 1.378 . S
C2594 C2589 1.350 . S
C2595 H2582 0.929 1_556 S
C2595 C2587 1.433 . S
C2595 N2597 1.384 1_556 S
N2596 C2592 1.427 . S
N2596 C2593 1.384 . S
N2597 C2589 1.427 1_554 S
N2597 C2595 1.384 1_554 S
H2598 C2604 0.930 . S
H2599 C2608 0.930 . S
H2600 C2613 0.929 . S
H2601 C2611 0.929 . S
H2602 C2606 0.929 . S
H2603 C2612 0.929 . S
C2604 H2598 0.930 . S
C2604 C2605 1.367 . S
C2604 C2612 1.378 1_455 S
C2605 C2604 1.367 . S
C2605 C2613 1.433 . S
C2606 H2602 0.929 . S
C2606 C2608 1.378 . S
C2606 C2610 1.350 . S
C2607 C2610 1.450 1_455 S
C2607 C2612 1.349 1_455 S
C2607 N2615 1.441 . S
C2608 H2599 0.930 . S
C2608 C2606 1.378 . S
C2608 C2609 1.367 . S
C2609 C2608 1.367 . S
C2609 C2611 1.433 . S
C2610 C2606 1.350 . S
C2610 C2607 1.450 1_655 S
C2610 N2614 1.427 . S
C2611 H2601 0.929 . S
C2611 C2609 1.433 . S
C2611 N2614 1.384 . S
C2612 H2603 0.929 . S
C2612 C2604 1.378 1_655 S
C2612 C2607 1.349 1_655 S
C2613 H2600 0.929 . S
C2613 C2605 1.433 . S
C2613 N2615 1.384 . S
N2614 C2610 1.427 . S
N2614 C2611 1.384 . S
N2615 C2607 1.441 . S
N2615 C2613 1.384 . S
H2616 C2622 0.930 . S
H2617 C2626 0.930 . S
H2618 C2631 0.929 . S
H2619 C2629 0.929 . S
H2620 C2624 0.929 . S
H2621 C2630 0.929 . S
C2622 H2616 0.930 . S
C2622 C2623 1.367 . S
C2622 C2630 1.378 . S
C2623 C2622 1.367 . S
C2623 C2631 1.433 . S
C2624 H2620 0.929 . S
C2624 C2626 1.378 . S
C2624 C2628 1.350 . S
C2625 C2628 1.463 . S
C2625 C2630 1.350 . S
C2625 N2633 1.427 . S
C2626 H2617 0.930 . S
C2626 C2624 1.378 . S
C2626 C2627 1.367 . S
C2627 C2626 1.367 . S
C2627 C2629 1.433 . S
C2628 C2624 1.350 . S
C2628 C2625 1.463 . S
C2628 N2632 1.427 . S
C2629 H2619 0.929 . S
C2629 C2627 1.433 . S
C2629 N2632 1.384 . S
C2630 H2621 0.929 . S
C2630 C2622 1.378 . S
C2630 C2625 1.350 . S
C2631 H2618 0.929 . S
C2631 C2623 1.433 . S
C2631 N2633 1.384 . S
N2632 C2628 1.427 . S
N2632 C2629 1.384 . S
N2633 C2625 1.427 . S
N2633 C2631 1.384 . S
H2634 C2640 0.930 . S
H2635 C2644 0.930 . S
H2636 C2649 0.929 . S
H2637 C2647 0.929 . S
H2638 C2642 0.929 . S
H2639 C2648 0.929 . S
C2640 H2634 0.930 . S
C2640 C2641 1.367 . S
C2640 C2648 1.378 . S
C2641 C2640 1.367 . S
C2641 C2649 1.433 . S
C2642 H2638 0.929 . S
C2642 C2644 1.378 . S
C2642 C2646 1.350 1_655 S
C2643 C2646 1.463 . S
C2643 C2648 1.350 . S
C2643 N2651 1.427 . S
C2644 H2635 0.930 . S
C2644 C2642 1.378 . S
C2644 C2645 1.367 . S
C2645 C2644 1.367 . S
C2645 C2647 1.433 . S
C2646 C2642 1.350 1_455 S
C2646 C2643 1.463 . S
C2646 N2650 1.427 1_455 S
C2647 H2637 0.929 . S
C2647 C2645 1.433 . S
C2647 N2650 1.384 . S
C2648 H2639 0.929 . S
C2648 C2640 1.378 . S
C2648 C2643 1.350 . S
C2649 H2636 0.929 . S
C2649 C2641 1.433 . S
C2649 N2651 1.384 . S
N2650 C2646 1.427 1_655 S
N2650 C2647 1.384 . S
N2651 C2643 1.427 . S
N2651 C2649 1.384 . S
H2652 C2658 0.930 . S
H2653 C2662 0.930 . S
H2654 C2667 0.929 . S
H2655 C2665 0.929 . S
H2656 C2660 0.929 . S
H2657 C2666 0.929 . S
C2658 H2652 0.930 . S
C2658 C2659 1.367 . S
C2658 C2666 1.378 1_655 S
C2659 C2658 1.367 . S
C2659 C2667 1.433 . S
C2660 H2656 0.929 . S
C2660 C2662 1.378 . S
C2660 C2664 1.350 . S
C2661 C2664 1.463 . S
C2661 C2666 1.350 . S
C2661 N2669 1.427 . S
C2662 H2653 0.930 . S
C2662 C2660 1.378 . S
C2662 C2663 1.367 . S
C2663 C2662 1.367 . S
C2663 C2665 1.433 . S
C2664 C2660 1.350 . S
C2664 C2661 1.463 . S
C2664 N2668 1.427 . S
C2665 H2655 0.929 . S
C2665 C2663 1.433 . S
C2665 N2668 1.384 . S
C2666 H2657 0.929 . S
C2666 C2658 1.378 1_455 S
C2666 C2661 1.350 . S
C2667 H2654 0.929 . S
C2667 C2659 1.433 . S
C2667 N2669 1.384 1_655 S
N2668 C2664 1.427 . S
N2668 C2665 1.384 . S
N2669 C2661 1.427 . S
N2669 C2667 1.384 1_455 S
H2670 C2676 0.930 . S
H2671 C2680 0.930 . S
H2672 C2685 0.929 . S
H2673 C2683 0.929 . S
H2674 C2678 0.929 . S
H2675 C2684 0.929 . S
C2676 H2670 0.930 . S
C2676 C2677 1.367 . S
C2676 C2684 1.378 . S
C2677 C2676 1.367 . S
C2677 C2685 1.433 . S
C2678 H2674 0.929 . S
C2678 C2680 1.378 . S
C2678 C2682 1.350 . S
C2679 C2682 1.463 . S
C2679 C2684 1.350 . S
C2679 N2687 1.427 . S
C2680 H2671 0.930 . S
C2680 C2678 1.378 . S
C2680 C2681 1.367 . S
C2681 C2680 1.367 . S
C2681 C2683 1.433 . S
C2682 C2678 1.350 . S
C2682 C2679 1.463 . S
C2682 N2686 1.427 . S
C2683 H2673 0.929 . S
C2683 C2681 1.433 . S
C2683 N2686 1.384 . S
C2684 H2675 0.929 . S
C2684 C2676 1.378 . S
C2684 C2679 1.350 . S
C2685 H2672 0.929 . S
C2685 C2677 1.433 . S
C2685 N2687 1.384 . S
N2686 C2682 1.427 . S
N2686 C2683 1.384 . S
N2687 C2679 1.427 . S
N2687 C2685 1.384 . S
H2688 C2694 0.930 . S
H2689 C2698 0.930 . S
H2690 C2703 0.929 . S
H2691 C2701 0.929 . S
H2692 C2696 0.929 . S
H2693 C2702 0.929 . S
C2694 H2688 0.930 . S
C2694 C2695 1.367 . S
C2694 C2702 1.378 . S
C2695 C2694 1.367 . S
C2695 C2703 1.433 . S
C2696 H2692 0.929 . S
C2696 C2698 1.378 . S
C2696 C2700 1.350 . S
C2697 C2700 1.463 . S
C2697 C2702 1.350 . S
C2697 N2705 1.427 . S
C2698 H2689 0.930 . S
C2698 C2696 1.378 . S
C2698 C2699 1.367 . S
C2699 C2698 1.367 . S
C2699 C2701 1.433 . S
C2700 C2696 1.350 . S
C2700 C2697 1.463 . S
C2700 N2704 1.427 . S
C2701 H2691 0.929 . S
C2701 C2699 1.433 . S
C2701 N2704 1.384 . S
C2702 H2693 0.929 . S
C2702 C2694 1.378 . S
C2702 C2697 1.350 . S
C2703 H2690 0.929 . S
C2703 C2695 1.433 . S
C2703 N2705 1.384 . S
N2704 C2700 1.427 . S
N2704 C2701 1.384 . S
N2705 C2697 1.427 . S
N2705 C2703 1.384 . S
H2706 C2712 0.930 . S
H2707 C2716 0.930 . S
H2708 C2721 0.929 . S
H2709 C2719 0.929 . S
H2710 C2714 0.929 . S
H2711 C2720 0.929 . S
C2712 H2706 0.930 . S
C2712 C2713 1.367 . S
C2712 C2720 1.378 . S
C2713 C2712 1.367 . S
C2713 C2721 1.433 . S
C2714 H2710 0.929 . S
C2714 C2716 1.378 . S
C2714 C2718 1.350 . S
C2715 C2718 1.463 . S
C2715 C2720 1.350 . S
C2715 N2723 1.427 . S
C2716 H2707 0.930 . S
C2716 C2714 1.378 . S
C2716 C2717 1.367 . S
C2717 C2716 1.367 . S
C2717 C2719 1.433 . S
C2718 C2714 1.350 . S
C2718 C2715 1.463 . S
C2718 N2722 1.427 . S
C2719 H2709 0.929 . S
C2719 C2717 1.433 . S
C2719 N2722 1.384 . S
C2720 H2711 0.929 . S
C2720 C2712 1.378 . S
C2720 C2715 1.350 . S
C2721 H2708 0.929 . S
C2721 C2713 1.433 . S
C2721 N2723 1.384 . S
N2722 C2718 1.427 . S
N2722 C2719 1.384 . S
N2723 C2715 1.427 . S
N2723 C2721 1.384 . S
H2724 C2730 0.930 . S
H2725 C2734 0.930 . S
H2726 C2739 0.929 . S
H2727 C2737 0.929 . S
H2728 C2732 0.929 . S
H2729 C2738 0.929 . S
C2730 H2724 0.930 . S
C2730 C2731 1.367 . S
C2730 C2738 1.378 . S
C2731 C2730 1.367 . S
C2731 C2739 1.433 . S
C2732 H2728 0.929 . S
C2732 C2734 1.378 . S
C2732 C2736 1.350 . S
C2733 C2736 1.463 . S
C2733 C2738 1.350 . S
C2733 N2741 1.427 . S
C2734 H2725 0.930 . S
C2734 C2732 1.378 . S
C2734 C2735 1.367 . S
C2735 C2734 1.367 . S
C2735 C2737 1.433 . S
C2736 C2732 1.350 . S
C2736 C2733 1.463 . S
C2736 N2740 1.427 . S
C2737 H2727 0.929 . S
C2737 C2735 1.433 . S
C2737 N2740 1.384 . S
C2738 H2729 0.929 . S
C2738 C2730 1.378 . S
C2738 C2733 1.350 . S
C2739 H2726 0.929 . S
C2739 C2731 1.433 . S
C2739 N2741 1.384 . S
N2740 C2736 1.427 . S
N2740 C2737 1.384 . S
N2741 C2733 1.427 . S
N2741 C2739 1.384 . S
H2742 C2748 0.930 . S
H2743 C2752 0.930 . S
H2744 C2757 0.929 . S
H2745 C2755 0.929 . S
H2746 C2750 0.929 . S
H2747 C2756 0.929 . S
C2748 H2742 0.930 . S
C2748 C2749 1.367 . S
C2748 C2756 1.378 . S
C2749 C2748 1.367 . S
C2749 C2757 1.433 . S
C2750 H2746 0.929 . S
C2750 C2752 1.378 . S
C2750 C2754 1.350 . S
C2751 C2754 1.463 . S
C2751 C2756 1.350 . S
C2751 N2759 1.427 . S
C2752 H2743 0.930 . S
C2752 C2750 1.378 . S
C2752 C2753 1.367 . S
C2753 C2752 1.367 . S
C2753 C2755 1.433 . S
C2754 C2750 1.350 . S
C2754 C2751 1.463 . S
C2754 N2758 1.427 . S
C2755 H2745 0.929 . S
C2755 C2753 1.433 . S
C2755 N2758 1.384 . S
C2756 H2747 0.929 . S
C2756 C2748 1.378 . S
C2756 C2751 1.350 . S
C2757 H2744 0.929 . S
C2757 C2749 1.433 . S
C2757 N2759 1.384 . S
N2758 C2754 1.427 . S
N2758 C2755 1.384 . S
N2759 C2751 1.427 . S
N2759 C2757 1.384 . S
H2760 C2766 0.930 . S
H2761 C2770 0.930 . S
H2762 C2775 0.929 . S
H2763 C2773 0.929 . S
H2764 C2768 0.929 . S
H2765 C2774 0.929 . S
C2766 H2760 0.930 . S
C2766 C2767 1.367 . S
C2766 C2774 1.378 . S
C2767 C2766 1.367 . S
C2767 C2775 1.433 . S
C2768 H2764 0.929 . S
C2768 C2770 1.378 . S
C2768 C2772 1.350 . S
C2769 C2772 1.463 . S
C2769 C2774 1.350 . S
C2769 N2777 1.427 . S
C2770 H2761 0.930 . S
C2770 C2768 1.378 . S
C2770 C2771 1.367 . S
C2771 C2770 1.367 . S
C2771 C2773 1.433 . S
C2772 C2768 1.350 . S
C2772 C2769 1.463 . S
C2772 N2776 1.427 . S
C2773 H2763 0.929 . S
C2773 C2771 1.433 . S
C2773 N2776 1.384 . S
C2774 H2765 0.929 . S
C2774 C2766 1.378 . S
C2774 C2769 1.350 . S
C2775 H2762 0.929 . S
C2775 C2767 1.433 . S
C2775 N2777 1.384 . S
N2776 C2772 1.427 . S
N2776 C2773 1.384 . S
N2777 C2769 1.427 . S
N2777 C2775 1.384 . S
H2778 C2784 0.930 . S
H2779 C2788 0.930 . S
H2780 C2793 0.929 . S
H2781 C2791 0.929 . S
H2782 C2786 0.929 . S
H2783 C2792 0.929 . S
C2784 H2778 0.930 . S
C2784 C2785 1.367 . S
C2784 C2792 1.378 . S
C2785 C2784 1.367 . S
C2785 C2793 1.433 . S
C2786 H2782 0.929 . S
C2786 C2788 1.378 . S
C2786 C2790 1.350 . S
C2787 C2790 1.463 . S
C2787 C2792 1.350 . S
C2787 N2795 1.427 . S
C2788 H2779 0.930 . S
C2788 C2786 1.378 . S
C2788 C2789 1.367 . S
C2789 C2788 1.367 . S
C2789 C2791 1.433 . S
C2790 C2786 1.350 . S
C2790 C2787 1.463 . S
C2790 N2794 1.427 . S
C2791 H2781 0.929 . S
C2791 C2789 1.433 . S
C2791 N2794 1.384 . S
C2792 H2783 0.929 . S
C2792 C2784 1.378 . S
C2792 C2787 1.350 . S
C2793 H2780 0.929 . S
C2793 C2785 1.433 . S
C2793 N2795 1.384 . S
N2794 C2790 1.427 . S
N2794 C2791 1.384 . S
N2795 C2787 1.427 . S
N2795 C2793 1.384 . S
H2796 C2802 0.930 . S
H2797 C2806 0.930 . S
H2798 C2811 0.929 . S
H2799 C2809 0.929 . S
H2800 C2804 0.929 . S
H2801 C2810 0.929 . S
C2802 H2796 0.930 . S
C2802 C2803 1.367 . S
C2802 C2810 1.378 . S
C2803 C2802 1.367 . S
C2803 C2811 1.433 . S
C2804 H2800 0.929 . S
C2804 C2806 1.378 . S
C2804 C2808 1.350 . S
C2805 C2808 1.463 . S
C2805 C2810 1.350 . S
C2805 N2813 1.427 . S
C2806 H2797 0.930 . S
C2806 C2804 1.378 . S
C2806 C2807 1.367 . S
C2807 C2806 1.367 . S
C2807 C2809 1.433 . S
C2808 C2804 1.350 . S
C2808 C2805 1.463 . S
C2808 N2812 1.427 . S
C2809 H2799 0.929 . S
C2809 C2807 1.433 . S
C2809 N2812 1.384 . S
C2810 H2801 0.929 . S
C2810 C2802 1.378 . S
C2810 C2805 1.350 . S
C2811 H2798 0.929 . S
C2811 C2803 1.433 . S
C2811 N2813 1.384 . S
N2812 C2808 1.427 . S
N2812 C2809 1.384 . S
N2813 C2805 1.427 . S
N2813 C2811 1.384 . S
H2814 C2820 0.930 . S
H2815 C2824 0.930 . S
H2816 C2829 0.929 . S
H2817 C2827 0.929 . S
H2818 C2822 0.929 . S
H2819 C2828 0.929 . S
C2820 H2814 0.930 . S
C2820 C2821 1.367 . S
C2820 C2828 1.378 . S
C2821 C2820 1.367 . S
C2821 C2829 1.433 . S
C2822 H2818 0.929 . S
C2822 C2824 1.378 . S
C2822 C2826 1.350 . S
C2823 C2826 1.463 . S
C2823 C2828 1.350 . S
C2823 N2831 1.427 . S
C2824 H2815 0.930 . S
C2824 C2822 1.378 . S
C2824 C2825 1.367 . S
C2825 C2824 1.367 . S
C2825 C2827 1.433 . S
C2826 C2822 1.350 . S
C2826 C2823 1.463 . S
C2826 N2830 1.427 . S
C2827 H2817 0.929 . S
C2827 C2825 1.433 . S
C2827 N2830 1.384 . S
C2828 H2819 0.929 . S
C2828 C2820 1.378 . S
C2828 C2823 1.350 . S
C2829 H2816 0.929 . S
C2829 C2821 1.433 . S
C2829 N2831 1.384 . S
N2830 C2826 1.427 . S
N2830 C2827 1.384 . S
N2831 C2823 1.427 . S
N2831 C2829 1.384 . S
H2832 C2838 0.930 . S
H2833 C2842 0.930 . S
H2834 C2847 0.929 . S
H2835 C2845 0.929 . S
H2836 C2840 0.929 . S
H2837 C2846 0.929 . S
C2838 H2832 0.930 . S
C2838 C2839 1.367 . S
C2838 C2846 1.378 . S
C2839 C2838 1.367 . S
C2839 C2847 1.433 . S
C2840 H2836 0.929 . S
C2840 C2842 1.378 . S
C2840 C2844 1.350 . S
C2841 C2844 1.463 . S
C2841 C2846 1.350 . S
C2841 N2849 1.427 . S
C2842 H2833 0.930 . S
C2842 C2840 1.378 . S
C2842 C2843 1.367 . S
C2843 C2842 1.367 . S
C2843 C2845 1.433 . S
C2844 C2840 1.350 . S
C2844 C2841 1.463 . S
C2844 N2848 1.427 . S
C2845 H2835 0.929 . S
C2845 C2843 1.433 . S
C2845 N2848 1.384 . S
C2846 H2837 0.929 . S
C2846 C2838 1.378 . S
C2846 C2841 1.350 . S
C2847 H2834 0.929 . S
C2847 C2839 1.433 . S
C2847 N2849 1.384 . S
N2848 C2844 1.427 . S
N2848 C2845 1.384 . S
N2849 C2841 1.427 . S
N2849 C2847 1.384 . S
H2850 C2856 0.930 . S
H2851 C2860 0.930 . S
H2852 C2865 0.929 . S
H2853 C2863 0.929 . S
H2854 C2858 0.929 . S
H2855 C2864 0.929 . S
C2856 H2850 0.930 . S
C2856 C2857 1.367 . S
C2856 C2864 1.378 . S
C2857 C2856 1.367 . S
C2857 C2865 1.433 . S
C2858 H2854 0.929 . S
C2858 C2860 1.378 . S
C2858 C2862 1.350 . S
C2859 C2862 1.463 . S
C2859 C2864 1.350 . S
C2859 N2867 1.427 . S
C2860 H2851 0.930 . S
C2860 C2858 1.378 . S
C2860 C2861 1.367 . S
C2861 C2860 1.367 . S
C2861 C2863 1.433 . S
C2862 C2858 1.350 . S
C2862 C2859 1.463 . S
C2862 N2866 1.427 . S
C2863 H2853 0.929 . S
C2863 C2861 1.433 . S
C2863 N2866 1.384 . S
C2864 H2855 0.929 . S
C2864 C2856 1.378 . S
C2864 C2859 1.350 . S
C2865 H2852 0.929 . S
C2865 C2857 1.433 . S
C2865 N2867 1.384 . S
N2866 C2862 1.427 . S
N2866 C2863 1.384 . S
N2867 C2859 1.427 . S
N2867 C2865 1.384 . S
H2868 C2874 0.930 . S
H2869 C2878 0.930 . S
H2870 C2883 0.929 . S
H2871 C2881 0.929 . S
H2872 C2876 0.929 . S
H2873 C2882 0.929 . S
C2874 H2868 0.930 . S
C2874 C2875 1.367 . S
C2874 C2882 1.378 . S
C2875 C2874 1.367 . S
C2875 C2883 1.433 . S
C2876 H2872 0.929 . S
C2876 C2878 1.378 . S
C2876 C2880 1.350 . S
C2877 C2880 1.463 . S
C2877 C2882 1.350 . S
C2877 N2885 1.427 . S
C2878 H2869 0.930 . S
C2878 C2876 1.378 . S
C2878 C2879 1.367 . S
C2879 C2878 1.367 . S
C2879 C2881 1.433 . S
C2880 C2876 1.350 . S
C2880 C2877 1.463 . S
C2880 N2884 1.427 . S
C2881 H2871 0.929 . S
C2881 C2879 1.433 . S
C2881 N2884 1.384 . S
C2882 H2873 0.929 . S
C2882 C2874 1.378 . S
C2882 C2877 1.350 . S
C2883 H2870 0.929 . S
C2883 C2875 1.433 . S
C2883 N2885 1.384 . S
N2884 C2880 1.427 . S
N2884 C2881 1.384 . S
N2885 C2877 1.427 . S
N2885 C2883 1.384 . S
H2886 C2892 0.949 . S
H2887 C2896 0.930 1_565 S
H2888 C2901 0.929 . S
H2889 C2899 0.929 1_556 S
H2890 C2894 0.929 . S
H2891 C2900 0.919 1_546 S
C2892 H2886 0.949 . S
C2892 C2893 1.367 . S
C2892 C2900 1.378 . S
C2893 C2892 1.367 . S
C2893 C2901 1.433 . S
C2894 H2890 0.929 . S
C2894 C2896 1.378 1_565 S
C2894 C2898 1.354 . S
C2895 C2898 1.463 . S
C2895 C2900 1.350 . S
C2895 N2903 1.427 . S
C2896 H2887 0.930 1_545 S
C2896 C2894 1.378 1_545 S
C2896 C2897 1.367 . S
C2897 C2896 1.367 . S
C2897 C2899 1.433 . S
C2898 C2894 1.354 . S
C2898 C2895 1.463 . S
C2898 N2902 1.422 1_565 S
C2899 H2889 0.929 1_554 S
C2899 C2897 1.433 . S
C2899 N2902 1.384 . S
C2900 H2891 0.919 1_564 S
C2900 C2892 1.378 . S
C2900 C2895 1.350 . S
C2901 H2888 0.929 . S
C2901 C2893 1.433 . S
C2901 N2903 1.384 . S
N2902 C2898 1.422 1_545 S
N2902 C2899 1.384 . S
N2903 C2895 1.427 . S
N2903 C2901 1.384 . S
H2904 C2910 0.930 . S
H2905 C2914 0.930 . S
H2906 C2919 0.929 . S
H2907 C2917 0.929 . S
H2908 C2912 0.929 . S
H2909 C2918 0.929 . S
C2910 H2904 0.930 . S
C2910 C2911 1.367 . S
C2910 C2918 1.378 . S
C2911 C2910 1.367 . S
C2911 C2919 1.433 . S
C2912 H2908 0.929 . S
C2912 C2914 1.378 . S
C2912 C2916 1.350 . S
C2913 C2916 1.463 . S
C2913 C2918 1.350 . S
C2913 N2921 1.427 . S
C2914 H2905 0.930 . S
C2914 C2912 1.378 . S
C2914 C2915 1.367 . S
C2915 C2914 1.367 . S
C2915 C2917 1.433 . S
C2916 C2912 1.350 . S
C2916 C2913 1.463 . S
C2916 N2920 1.427 . S
C2917 H2907 0.929 . S
C2917 C2915 1.433 . S
C2917 N2920 1.384 . S
C2918 H2909 0.929 . S
C2918 C2910 1.378 . S
C2918 C2913 1.350 . S
C2919 H2906 0.929 . S
C2919 C2911 1.433 . S
C2919 N2921 1.384 . S
N2920 C2916 1.427 . S
N2920 C2917 1.384 . S
N2921 C2913 1.427 . S
N2921 C2919 1.384 . S
H2922 C2928 0.930 . S
H2923 C2932 0.930 . S
H2924 C2937 0.929 . S
H2925 C2935 0.929 1_556 S
H2926 C2930 0.929 . S
H2927 C2936 0.929 . S
C2928 H2922 0.930 . S
C2928 C2929 1.350 1_556 S
C2928 C2936 1.378 . S
C2929 C2928 1.350 1_554 S
C2929 C2937 1.458 . S
C2930 H2926 0.929 . S
C2930 C2932 1.378 . S
C2930 C2934 1.350 . S
C2931 C2934 1.463 . S
C2931 C2936 1.350 1_554 S
C2931 N2939 1.427 . S
C2932 H2923 0.930 . S
C2932 C2930 1.378 . S
C2932 C2933 1.367 . S
C2933 C2932 1.367 . S
C2933 C2935 1.433 . S
C2934 C2930 1.350 . S
C2934 C2931 1.463 . S
C2934 N2938 1.427 . S
C2935 H2925 0.929 1_554 S
C2935 C2933 1.433 . S
C2935 N2938 1.384 . S
C2936 H2927 0.929 . S
C2936 C2928 1.378 . S
C2936 C2931 1.350 1_556 S
C2937 H2924 0.929 . S
C2937 C2929 1.458 . S
C2937 N2939 1.384 . S
N2938 C2934 1.427 . S
N2938 C2935 1.384 . S
N2939 C2931 1.427 . S
N2939 C2937 1.384 . S
H2940 C2946 0.930 . S
H2941 C2950 0.930 . S
H2942 C2955 0.929 . S
H2943 C2953 0.929 . S
H2944 C2948 0.929 . S
H2945 C2954 0.929 . S
C2946 H2940 0.930 . S
C2946 C2947 1.367 . S
C2946 C2954 1.378 . S
C2947 C2946 1.367 . S
C2947 C2955 1.433 . S
C2948 H2944 0.929 . S
C2948 C2950 1.378 . S
C2948 C2952 1.350 . S
C2949 C2952 1.463 . S
C2949 C2954 1.350 . S
C2949 N2957 1.427 . S
C2950 H2941 0.930 . S
C2950 C2948 1.378 . S
C2950 C2951 1.367 . S
C2951 C2950 1.367 . S
C2951 C2953 1.433 . S
C2952 C2948 1.350 . S
C2952 C2949 1.463 . S
C2952 N2956 1.427 . S
C2953 H2943 0.929 . S
C2953 C2951 1.433 . S
C2953 N2956 1.384 . S
C2954 H2945 0.929 . S
C2954 C2946 1.378 . S
C2954 C2949 1.350 . S
C2955 H2942 0.929 . S
C2955 C2947 1.433 . S
C2955 N2957 1.384 . S
N2956 C2952 1.427 . S
N2956 C2953 1.384 . S
N2957 C2949 1.427 . S
N2957 C2955 1.384 . S
H2958 C2964 0.930 . S
H2959 C2968 0.930 . S
H2960 C2973 0.929 . S
H2961 C2971 0.929 . S
H2962 C2966 0.929 . S
H2963 C2972 0.929 . S
C2964 H2958 0.930 . S
C2964 C2965 1.367 . S
C2964 C2972 1.378 . S
C2965 C2964 1.367 . S
C2965 C2973 1.433 . S
C2966 H2962 0.929 . S
C2966 C2968 1.378 . S
C2966 C2970 1.350 . S
C2967 C2970 1.463 . S
C2967 C2972 1.350 . S
C2967 N2975 1.427 . S
C2968 H2959 0.930 . S
C2968 C2966 1.378 . S
C2968 C2969 1.367 . S
C2969 C2968 1.367 . S
C2969 C2971 1.433 . S
C2970 C2966 1.350 . S
C2970 C2967 1.463 . S
C2970 N2974 1.427 . S
C2971 H2961 0.929 . S
C2971 C2969 1.433 . S
C2971 N2974 1.384 . S
C2972 H2963 0.929 . S
C2972 C2964 1.378 . S
C2972 C2967 1.350 . S
C2973 H2960 0.929 . S
C2973 C2965 1.433 . S
C2973 N2975 1.384 . S
N2974 C2970 1.427 . S
N2974 C2971 1.384 . S
N2975 C2967 1.427 . S
N2975 C2973 1.384 . S
H2976 C2982 0.930 . S
H2977 C2986 0.930 . S
H2978 C2991 0.929 . S
H2979 C2989 0.929 . S
H2980 C2984 0.929 . S
H2981 C2990 0.929 . S
C2982 H2976 0.930 . S
C2982 C2983 1.367 . S
C2982 C2990 1.378 . S
C2983 C2982 1.367 . S
C2983 C2991 1.433 . S
C2984 H2980 0.929 . S
C2984 C2986 1.378 . S
C2984 C2988 1.350 . S
C2985 C2988 1.463 . S
C2985 C2990 1.350 . S
C2985 N2993 1.427 . S
C2986 H2977 0.930 . S
C2986 C2984 1.378 . S
C2986 C2987 1.367 . S
C2987 C2986 1.367 . S
C2987 C2989 1.433 . S
C2988 C2984 1.350 . S
C2988 C2985 1.463 . S
C2988 N2992 1.427 . S
C2989 H2979 0.929 . S
C2989 C2987 1.433 . S
C2989 N2992 1.384 . S
C2990 H2981 0.929 . S
C2990 C2982 1.378 . S
C2990 C2985 1.350 . S
C2991 H2978 0.929 . S
C2991 C2983 1.433 . S
C2991 N2993 1.384 . S
N2992 C2988 1.427 . S
N2992 C2989 1.384 . S
N2993 C2985 1.427 . S
N2993 C2991 1.384 . S
H2994 C3000 0.930 . S
H2995 C3004 0.930 . S
H2996 C3009 0.929 . S
H2997 C3007 0.929 . S
H2998 C3002 0.929 . S
H2999 C3008 0.929 . S
C3000 H2994 0.930 . S
C3000 C3001 1.367 . S
C3000 C3008 1.378 . S
C3001 C3000 1.367 . S
C3001 C3009 1.433 . S
C3002 H2998 0.929 . S
C3002 C3004 1.378 . S
C3002 C3006 1.350 . S
C3003 C3006 1.463 . S
C3003 C3008 1.350 . S
C3003 N3011 1.427 . S
C3004 H2995 0.930 . S
C3004 C3002 1.378 . S
C3004 C3005 1.367 . S
C3005 C3004 1.367 . S
C3005 C3007 1.433 . S
C3006 C3002 1.350 . S
C3006 C3003 1.463 . S
C3006 N3010 1.427 . S
C3007 H2997 0.929 . S
C3007 C3005 1.433 . S
C3007 N3010 1.384 . S
C3008 H2999 0.929 . S
C3008 C3000 1.378 . S
C3008 C3003 1.350 . S
C3009 H2996 0.929 . S
C3009 C3001 1.433 . S
C3009 N3011 1.384 . S
N3010 C3006 1.427 . S
N3010 C3007 1.384 . S
N3011 C3003 1.427 . S
N3011 C3009 1.384 . S
H3012 C3018 0.930 . S
H3013 C3022 0.899 1_556 S
H3014 C3027 0.929 . S
H3015 C3025 0.929 . S
H3016 C3020 0.929 . S
H3017 C3026 0.929 . S
C3018 H3012 0.930 . S
C3018 C3019 1.367 . S
C3018 C3026 1.378 . S
C3019 C3018 1.367 . S
C3019 C3027 1.433 . S
C3020 H3016 0.929 . S
C3020 C3022 1.378 . S
C3020 C3024 1.350 . S
C3021 C3024 1.463 . S
C3021 C3026 1.350 . S
C3021 N3029 1.427 . S
C3022 H3013 0.899 1_554 S
C3022 C3020 1.378 . S
C3022 C3023 1.367 . S
C3023 C3022 1.367 . S
C3023 C3025 1.433 . S
C3024 C3020 1.350 . S
C3024 C3021 1.463 . S
C3024 N3028 1.427 . S
C3025 H3015 0.929 . S
C3025 C3023 1.433 . S
C3025 N3028 1.384 . S
C3026 H3017 0.929 . S
C3026 C3018 1.378 . S
C3026 C3021 1.350 . S
C3027 H3014 0.929 . S
C3027 C3019 1.433 . S
C3027 N3029 1.384 . S
N3028 C3024 1.427 . S
N3028 C3025 1.384 . S
N3029 C3021 1.427 . S
N3029 C3027 1.384 . S
H3030 C3036 0.930 . S
H3031 C3040 0.930 . S
H3032 C3045 0.929 . S
H3033 C3043 0.929 . S
H3034 C3038 0.929 . S
H3035 C3044 0.929 . S
C3036 H3030 0.930 . S
C3036 C3037 1.367 . S
C3036 C3044 1.378 . S
C3037 C3036 1.367 . S
C3037 C3045 1.433 . S
C3038 H3034 0.929 . S
C3038 C3040 1.378 . S
C3038 C3042 1.350 . S
C3039 C3042 1.463 . S
C3039 C3044 1.350 . S
C3039 N3047 1.427 . S
C3040 H3031 0.930 . S
C3040 C3038 1.378 . S
C3040 C3041 1.367 . S
C3041 C3040 1.367 . S
C3041 C3043 1.433 . S
C3042 C3038 1.350 . S
C3042 C3039 1.463 . S
C3042 N3046 1.427 . S
C3043 H3033 0.929 . S
C3043 C3041 1.433 . S
C3043 N3046 1.384 . S
C3044 H3035 0.929 . S
C3044 C3036 1.378 . S
C3044 C3039 1.350 . S
C3045 H3032 0.929 . S
C3045 C3037 1.433 . S
C3045 N3047 1.384 . S
N3046 C3042 1.427 . S
N3046 C3043 1.384 . S
N3047 C3039 1.427 . S
N3047 C3045 1.384 . S
H3048 C3054 0.930 . S
H3049 C3058 0.930 . S
H3050 C3063 0.929 . S
H3051 C3061 0.929 . S
H3052 C3056 0.929 . S
H3053 C3062 0.929 . S
C3054 H3048 0.930 . S
C3054 C3055 1.367 . S
C3054 C3062 1.378 . S
C3055 C3054 1.367 . S
C3055 C3063 1.433 . S
C3056 H3052 0.929 . S
C3056 C3058 1.378 . S
C3056 C3060 1.350 . S
C3057 C3060 1.463 . S
C3057 C3062 1.350 . S
C3057 N3065 1.427 . S
C3058 H3049 0.930 . S
C3058 C3056 1.378 . S
C3058 C3059 1.367 . S
C3059 C3058 1.367 . S
C3059 C3061 1.433 . S
C3060 C3056 1.350 . S
C3060 C3057 1.463 . S
C3060 N3064 1.427 . S
C3061 H3051 0.929 . S
C3061 C3059 1.433 . S
C3061 N3064 1.384 . S
C3062 H3053 0.929 . S
C3062 C3054 1.378 . S
C3062 C3057 1.350 . S
C3063 H3050 0.929 . S
C3063 C3055 1.433 . S
C3063 N3065 1.384 . S
N3064 C3060 1.427 . S
N3064 C3061 1.384 . S
N3065 C3057 1.427 . S
N3065 C3063 1.384 . S
H3066 C3072 0.930 . S
H3067 C3076 0.930 . S
H3068 C3081 0.929 . S
H3069 C3079 0.929 . S
H3070 C3074 0.929 . S
H3071 C3080 0.929 . S
C3072 H3066 0.930 . S
C3072 C3073 1.367 . S
C3072 C3080 1.378 . S
C3073 C3072 1.367 . S
C3073 C3081 1.433 . S
C3074 H3070 0.929 . S
C3074 C3076 1.378 . S
C3074 C3078 1.350 . S
C3075 C3078 1.463 . S
C3075 C3080 1.350 . S
C3075 N3083 1.427 . S
C3076 H3067 0.930 . S
C3076 C3074 1.378 . S
C3076 C3077 1.367 . S
C3077 C3076 1.367 . S
C3077 C3079 1.433 . S
C3078 C3074 1.350 . S
C3078 C3075 1.463 . S
C3078 N3082 1.427 . S
C3079 H3069 0.929 . S
C3079 C3077 1.433 . S
C3079 N3082 1.384 . S
C3080 H3071 0.929 . S
C3080 C3072 1.378 . S
C3080 C3075 1.350 . S
C3081 H3068 0.929 . S
C3081 C3073 1.433 . S
C3081 N3083 1.384 . S
N3082 C3078 1.427 . S
N3082 C3079 1.384 . S
N3083 C3075 1.427 . S
N3083 C3081 1.384 . S
H3084 C3090 0.930 . S
H3085 C3094 0.930 . S
H3086 C3099 0.929 . S
H3087 C3097 0.929 . S
H3088 C3092 0.929 . S
H3089 C3098 0.929 . S
C3090 H3084 0.930 . S
C3090 C3091 1.367 . S
C3090 C3098 1.378 . S
C3091 C3090 1.367 . S
C3091 C3099 1.433 . S
C3092 H3088 0.929 . S
C3092 C3094 1.378 . S
C3092 C3096 1.350 . S
C3093 C3096 1.463 . S
C3093 C3098 1.350 . S
C3093 N3101 1.427 . S
C3094 H3085 0.930 . S
C3094 C3092 1.378 . S
C3094 C3095 1.367 . S
C3095 C3094 1.367 . S
C3095 C3097 1.433 . S
C3096 C3092 1.350 . S
C3096 C3093 1.463 . S
C3096 N3100 1.427 . S
C3097 H3087 0.929 . S
C3097 C3095 1.433 . S
C3097 N3100 1.384 . S
C3098 H3089 0.929 . S
C3098 C3090 1.378 . S
C3098 C3093 1.350 . S
C3099 H3086 0.929 . S
C3099 C3091 1.433 . S
C3099 N3101 1.384 . S
N3100 C3096 1.427 . S
N3100 C3097 1.384 . S
N3101 C3093 1.427 . S
N3101 C3099 1.384 . S
H3102 C3108 0.930 . S
H3103 C3112 0.930 . S
H3104 C3117 0.929 . S
H3105 C3115 0.929 . S
H3106 C3110 0.929 . S
H3107 C3116 0.929 . S
C3108 H3102 0.930 . S
C3108 C3109 1.367 . S
C3108 C3116 1.378 . S
C3109 C3108 1.367 . S
C3109 C3117 1.433 . S
C3110 H3106 0.929 . S
C3110 C3112 1.378 . S
C3110 C3114 1.350 . S
C3111 C3114 1.463 . S
C3111 C3116 1.350 . S
C3111 N3119 1.427 . S
C3112 H3103 0.930 . S
C3112 C3110 1.378 . S
C3112 C3113 1.367 . S
C3113 C3112 1.367 . S
C3113 C3115 1.433 . S
C3114 C3110 1.350 . S
C3114 C3111 1.463 . S
C3114 N3118 1.427 . S
C3115 H3105 0.929 . S
C3115 C3113 1.433 . S
C3115 N3118 1.384 . S
C3116 H3107 0.929 . S
C3116 C3108 1.378 . S
C3116 C3111 1.350 . S
C3117 H3104 0.929 . S
C3117 C3109 1.433 . S
C3117 N3119 1.384 . S
N3118 C3114 1.427 . S
N3118 C3115 1.384 . S
N3119 C3111 1.427 . S
N3119 C3117 1.384 . S
H3120 C3126 0.930 . S
H3121 C3130 0.930 . S
H3122 C3135 0.929 . S
H3123 C3133 0.929 . S
H3124 C3128 0.929 . S
H3125 C3134 0.929 . S
C3126 H3120 0.930 . S
C3126 C3127 1.367 . S
C3126 C3134 1.378 . S
C3127 C3126 1.367 . S
C3127 C3135 1.433 . S
C3128 H3124 0.929 . S
C3128 C3130 1.378 . S
C3128 C3132 1.350 . S
C3129 C3132 1.463 . S
C3129 C3134 1.350 . S
C3129 N3137 1.427 . S
C3130 H3121 0.930 . S
C3130 C3128 1.378 . S
C3130 C3131 1.367 . S
C3131 C3130 1.367 . S
C3131 C3133 1.433 . S
C3132 C3128 1.350 . S
C3132 C3129 1.463 . S
C3132 N3136 1.427 . S
C3133 H3123 0.929 . S
C3133 C3131 1.433 . S
C3133 N3136 1.384 . S
C3134 H3125 0.929 . S
C3134 C3126 1.378 . S
C3134 C3129 1.350 . S
C3135 H3122 0.929 . S
C3135 C3127 1.433 . S
C3135 N3137 1.384 . S
N3136 C3132 1.427 . S
N3136 C3133 1.384 . S
N3137 C3129 1.427 . S
N3137 C3135 1.384 . S
H3138 C3144 0.930 . S
H3139 C3148 0.930 . S
H3140 C3153 0.929 . S
H3141 C3151 0.929 . S
H3142 C3146 0.929 . S
H3143 C3152 0.929 . S
C3144 H3138 0.930 . S
C3144 C3145 1.367 . S
C3144 C3152 1.378 . S
C3145 C3144 1.367 . S
C3145 C3153 1.433 . S
C3146 H3142 0.929 . S
C3146 C3148 1.378 . S
C3146 C3150 1.350 . S
C3147 C3150 1.463 . S
C3147 C3152 1.350 . S
C3147 N3155 1.427 . S
C3148 H3139 0.930 . S
C3148 C3146 1.378 . S
C3148 C3149 1.367 . S
C3149 C3148 1.367 . S
C3149 C3151 1.433 . S
C3150 C3146 1.350 . S
C3150 C3147 1.463 . S
C3150 N3154 1.427 . S
C3151 H3141 0.929 . S
C3151 C3149 1.433 . S
C3151 N3154 1.384 . S
C3152 H3143 0.929 . S
C3152 C3144 1.378 . S
C3152 C3147 1.350 . S
C3153 H3140 0.929 . S
C3153 C3145 1.433 . S
C3153 N3155 1.384 . S
N3154 C3150 1.427 . S
N3154 C3151 1.384 . S
N3155 C3147 1.427 . S
N3155 C3153 1.384 . S
H3156 C3162 0.930 . S
H3157 C3166 0.930 . S
H3158 C3171 0.929 . S
H3159 C3169 0.929 . S
H3160 C3164 0.929 . S
H3161 C3170 0.929 . S
C3162 H3156 0.930 . S
C3162 C3163 1.367 . S
C3162 C3170 1.378 . S
C3163 C3162 1.367 . S
C3163 C3171 1.433 . S
C3164 H3160 0.929 . S
C3164 C3166 1.378 . S
C3164 C3168 1.326 1_455 S
C3165 C3168 1.485 . S
C3165 C3170 1.350 . S
C3165 N3173 1.427 . S
C3166 H3157 0.930 . S
C3166 C3164 1.378 . S
C3166 C3167 1.367 . S
C3167 C3166 1.367 . S
C3167 C3169 1.433 . S
C3168 C3164 1.326 1_655 S
C3168 C3165 1.485 . S
C3168 N3172 1.432 1_655 S
C3169 H3159 0.929 . S
C3169 C3167 1.433 . S
C3169 N3172 1.384 . S
C3170 H3161 0.929 . S
C3170 C3162 1.378 . S
C3170 C3165 1.350 . S
C3171 H3158 0.929 . S
C3171 C3163 1.433 . S
C3171 N3173 1.384 . S
N3172 C3168 1.432 1_455 S
N3172 C3169 1.384 . S
N3173 C3165 1.427 . S
N3173 C3171 1.384 . S
H3174 C3180 0.930 . S
H3175 C3184 0.930 . S
H3176 C3189 0.929 . S
H3177 C3187 0.929 . S
H3178 C3182 0.929 . S
H3179 C3188 0.929 . S
C3180 H3174 0.930 . S
C3180 C3181 1.367 . S
C3180 C3188 1.378 . S
C3181 C3180 1.367 . S
C3181 C3189 1.433 . S
C3182 H3178 0.929 . S
C3182 C3184 1.378 . S
C3182 C3186 1.350 . S
C3183 C3186 1.463 . S
C3183 C3188 1.350 . S
C3183 N3191 1.427 . S
C3184 H3175 0.930 . S
C3184 C3182 1.378 . S
C3184 C3185 1.367 . S
C3185 C3184 1.367 . S
C3185 C3187 1.433 . S
C3186 C3182 1.350 . S
C3186 C3183 1.463 . S
C3186 N3190 1.427 . S
C3187 H3177 0.929 . S
C3187 C3185 1.433 . S
C3187 N3190 1.384 . S
C3188 H3179 0.929 . S
C3188 C3180 1.378 . S
C3188 C3183 1.350 . S
C3189 H3176 0.929 . S
C3189 C3181 1.433 . S
C3189 N3191 1.384 . S
N3190 C3186 1.427 . S
N3190 C3187 1.384 . S
N3191 C3183 1.427 . S
N3191 C3189 1.384 . S
H3192 C3198 0.930 . S
H3193 C3202 0.930 . S
H3194 C3207 0.929 . S
H3195 C3205 0.929 . S
H3196 C3200 0.929 . S
H3197 C3206 0.929 . S
C3198 H3192 0.930 . S
C3198 C3199 1.367 . S
C3198 C3206 1.378 . S
C3199 C3198 1.367 . S
C3199 C3207 1.433 . S
C3200 H3196 0.929 . S
C3200 C3202 1.378 . S
C3200 C3204 1.350 . S
C3201 C3204 1.463 . S
C3201 C3206 1.350 . S
C3201 N3209 1.427 . S
C3202 H3193 0.930 . S
C3202 C3200 1.378 . S
C3202 C3203 1.367 . S
C3203 C3202 1.367 . S
C3203 C3205 1.433 . S
C3204 C3200 1.350 . S
C3204 C3201 1.463 . S
C3204 N3208 1.427 . S
C3205 H3195 0.929 . S
C3205 C3203 1.433 . S
C3205 N3208 1.384 . S
C3206 H3197 0.929 . S
C3206 C3198 1.378 . S
C3206 C3201 1.350 . S
C3207 H3194 0.929 . S
C3207 C3199 1.433 . S
C3207 N3209 1.384 . S
N3208 C3204 1.427 . S
N3208 C3205 1.384 . S
N3209 C3201 1.427 . S
N3209 C3207 1.384 . S
H3210 C3216 0.930 . S
H3211 C3220 0.930 . S
H3212 C3225 0.929 . S
H3213 C3223 0.929 . S
H3214 C3218 0.929 . S
H3215 C3224 0.929 . S
C3216 H3210 0.930 . S
C3216 C3217 1.367 . S
C3216 C3224 1.378 . S
C3217 C3216 1.367 . S
C3217 C3225 1.433 . S
C3218 H3214 0.929 . S
C3218 C3220 1.378 . S
C3218 C3222 1.350 . S
C3219 C3222 1.463 . S
C3219 C3224 1.350 . S
C3219 N3227 1.427 . S
C3220 H3211 0.930 . S
C3220 C3218 1.378 . S
C3220 C3221 1.367 . S
C3221 C3220 1.367 . S
C3221 C3223 1.433 . S
C3222 C3218 1.350 . S
C3222 C3219 1.463 . S
C3222 N3226 1.427 . S
C3223 H3213 0.929 . S
C3223 C3221 1.433 . S
C3223 N3226 1.384 . S
C3224 H3215 0.929 . S
C3224 C3216 1.378 . S
C3224 C3219 1.350 . S
C3225 H3212 0.929 . S
C3225 C3217 1.433 . S
C3225 N3227 1.384 . S
N3226 C3222 1.427 . S
N3226 C3223 1.384 . S
N3227 C3219 1.427 . S
N3227 C3225 1.384 . S
H3228 C3234 0.930 . S
H3229 C3238 0.930 . S
H3230 C3243 0.929 . S
H3231 C3241 0.929 . S
H3232 C3236 0.929 . S
H3233 C3242 0.929 . S
C3234 H3228 0.930 . S
C3234 C3235 1.367 . S
C3234 C3242 1.378 . S
C3235 C3234 1.367 . S
C3235 C3243 1.433 . S
C3236 H3232 0.929 . S
C3236 C3238 1.378 . S
C3236 C3240 1.350 . S
C3237 C3240 1.463 . S
C3237 C3242 1.350 . S
C3237 N3245 1.427 . S
C3238 H3229 0.930 . S
C3238 C3236 1.378 . S
C3238 C3239 1.367 . S
C3239 C3238 1.367 . S
C3239 C3241 1.433 1_655 S
C3240 C3236 1.350 . S
C3240 C3237 1.463 . S
C3240 N3244 1.427 . S
C3241 H3231 0.929 . S
C3241 C3239 1.433 1_455 S
C3241 N3244 1.384 1_455 S
C3242 H3233 0.929 . S
C3242 C3234 1.378 . S
C3242 C3237 1.350 . S
C3243 H3230 0.929 . S
C3243 C3235 1.433 . S
C3243 N3245 1.384 . S
N3244 C3240 1.427 . S
N3244 C3241 1.384 1_655 S
N3245 C3237 1.427 . S
N3245 C3243 1.384 . S
H3246 C3252 0.930 . S
H3247 C3256 0.930 . S
H3248 C3261 0.929 . S
H3249 C3259 0.929 . S
H3250 C3254 0.929 . S
H3251 C3260 0.929 . S
C3252 H3246 0.930 . S
C3252 C3253 1.367 . S
C3252 C3260 1.378 . S
C3253 C3252 1.367 . S
C3253 C3261 1.433 . S
C3254 H3250 0.929 . S
C3254 C3256 1.378 . S
C3254 C3258 1.350 . S
C3255 C3258 1.463 . S
C3255 C3260 1.350 . S
C3255 N3263 1.427 . S
C3256 H3247 0.930 . S
C3256 C3254 1.378 . S
C3256 C3257 1.367 . S
C3257 C3256 1.367 . S
C3257 C3259 1.433 . S
C3258 C3254 1.350 . S
C3258 C3255 1.463 . S
C3258 N3262 1.427 . S
C3259 H3249 0.929 . S
C3259 C3257 1.433 . S
C3259 N3262 1.384 . S
C3260 H3251 0.929 . S
C3260 C3252 1.378 . S
C3260 C3255 1.350 . S
C3261 H3248 0.929 . S
C3261 C3253 1.433 . S
C3261 N3263 1.384 . S
N3262 C3258 1.427 . S
N3262 C3259 1.384 . S
N3263 C3255 1.427 . S
N3263 C3261 1.384 . S
H3264 C3270 0.930 . S
H3265 C3274 0.930 . S
H3266 C3279 0.929 . S
H3267 C3277 0.929 . S
H3268 C3272 0.929 . S
H3269 C3278 0.929 . S
C3270 H3264 0.930 . S
C3270 C3271 1.367 . S
C3270 C3278 1.378 . S
C3271 C3270 1.367 . S
C3271 C3279 1.433 . S
C3272 H3268 0.929 . S
C3272 C3274 1.378 . S
C3272 C3276 1.350 . S
C3273 C3276 1.463 . S
C3273 C3278 1.350 . S
C3273 N3281 1.427 . S
C3274 H3265 0.930 . S
C3274 C3272 1.378 . S
C3274 C3275 1.367 . S
C3275 C3274 1.367 . S
C3275 C3277 1.433 . S
C3276 C3272 1.350 . S
C3276 C3273 1.463 . S
C3276 N3280 1.427 . S
C3277 H3267 0.929 . S
C3277 C3275 1.433 . S
C3277 N3280 1.384 . S
C3278 H3269 0.929 . S
C3278 C3270 1.378 . S
C3278 C3273 1.350 . S
C3279 H3266 0.929 . S
C3279 C3271 1.433 . S
C3279 N3281 1.384 . S
N3280 C3276 1.427 . S
N3280 C3277 1.384 . S
N3281 C3273 1.427 . S
N3281 C3279 1.384 . S
H3282 C3288 0.930 . S
H3283 C3292 0.930 . S
H3284 C3297 0.929 . S
H3285 C3295 0.955 . S
H3286 C3290 0.929 . S
H3287 C3296 0.929 . S
C3288 H3282 0.930 . S
C3288 C3289 1.367 . S
C3288 C3296 1.378 . S
C3289 C3288 1.367 . S
C3289 C3297 1.433 . S
C3290 H3286 0.929 . S
C3290 C3292 1.378 . S
C3290 C3294 1.350 . S
C3291 C3294 1.463 . S
C3291 C3296 1.350 . S
C3291 N3299 1.427 . S
C3292 H3283 0.930 . S
C3292 C3290 1.378 . S
C3292 C3293 1.367 . S
C3293 C3292 1.367 . S
C3293 C3295 1.425 1_565 S
C3294 C3290 1.350 . S
C3294 C3291 1.463 . S
C3294 N3298 1.427 . S
C3295 H3285 0.955 . S
C3295 C3293 1.425 1_545 S
C3295 N3298 1.367 1_545 S
C3296 H3287 0.929 . S
C3296 C3288 1.378 . S
C3296 C3291 1.350 . S
C3297 H3284 0.929 . S
C3297 C3289 1.433 . S
C3297 N3299 1.384 . S
N3298 C3294 1.427 . S
N3298 C3295 1.367 1_565 S
N3299 C3291 1.427 . S
N3299 C3297 1.384 . S
H3300 C3306 0.930 . S
H3301 C3310 0.930 . S
H3302 C3315 0.929 . S
H3303 C3313 0.929 . S
H3304 C3308 0.929 . S
H3305 C3314 0.929 . S
C3306 H3300 0.930 . S
C3306 C3307 1.367 . S
C3306 C3314 1.378 . S
C3307 C3306 1.367 . S
C3307 C3315 1.433 . S
C3308 H3304 0.929 . S
C3308 C3310 1.378 . S
C3308 C3312 1.350 . S
C3309 C3312 1.463 . S
C3309 C3314 1.350 . S
C3309 N3317 1.427 . S
C3310 H3301 0.930 . S
C3310 C3308 1.378 . S
C3310 C3311 1.367 . S
C3311 C3310 1.367 . S
C3311 C3313 1.433 . S
C3312 C3308 1.350 . S
C3312 C3309 1.463 . S
C3312 N3316 1.427 . S
C3313 H3303 0.929 . S
C3313 C3311 1.433 . S
C3313 N3316 1.384 . S
C3314 H3305 0.929 . S
C3314 C3306 1.378 . S
C3314 C3309 1.350 . S
C3315 H3302 0.929 . S
C3315 C3307 1.433 . S
C3315 N3317 1.384 . S
N3316 C3312 1.427 . S
N3316 C3313 1.384 . S
N3317 C3309 1.427 . S
N3317 C3315 1.384 . S
H3318 C3324 0.930 . S
H3319 C3328 0.930 . S
H3320 C3333 0.929 . S
H3321 C3331 0.929 . S
H3322 C3326 0.929 . S
H3323 C3332 0.929 . S
C3324 H3318 0.930 . S
C3324 C3325 1.367 . S
C3324 C3332 1.378 . S
C3325 C3324 1.367 . S
C3325 C3333 1.433 . S
C3326 H3322 0.929 . S
C3326 C3328 1.378 . S
C3326 C3330 1.350 . S
C3327 C3330 1.463 . S
C3327 C3332 1.350 . S
C3327 N3335 1.427 . S
C3328 H3319 0.930 . S
C3328 C3326 1.378 . S
C3328 C3329 1.367 . S
C3329 C3328 1.367 . S
C3329 C3331 1.433 . S
C3330 C3326 1.350 . S
C3330 C3327 1.463 . S
C3330 N3334 1.427 . S
C3331 H3321 0.929 . S
C3331 C3329 1.433 . S
C3331 N3334 1.384 . S
C3332 H3323 0.929 . S
C3332 C3324 1.378 . S
C3332 C3327 1.350 . S
C3333 H3320 0.929 . S
C3333 C3325 1.433 . S
C3333 N3335 1.384 . S
N3334 C3330 1.427 . S
N3334 C3331 1.384 . S
N3335 C3327 1.427 . S
N3335 C3333 1.384 . S
H3336 C3342 0.930 . S
H3337 C3346 0.930 . S
H3338 C3351 0.929 . S
H3339 C3349 0.929 . S
H3340 C3344 0.929 . S
H3341 C3350 0.929 . S
C3342 H3336 0.930 . S
C3342 C3343 1.367 . S
C3342 C3350 1.378 . S
C3343 C3342 1.367 . S
C3343 C3351 1.433 . S
C3344 H3340 0.929 . S
C3344 C3346 1.378 . S
C3344 C3348 1.350 . S
C3345 C3348 1.463 . S
C3345 C3350 1.350 . S
C3345 N3353 1.427 . S
C3346 H3337 0.930 . S
C3346 C3344 1.378 . S
C3346 C3347 1.367 . S
C3347 C3346 1.367 . S
C3347 C3349 1.433 . S
C3348 C3344 1.350 . S
C3348 C3345 1.463 . S
C3348 N3352 1.427 . S
C3349 H3339 0.929 . S
C3349 C3347 1.433 . S
C3349 N3352 1.384 . S
C3350 H3341 0.929 . S
C3350 C3342 1.378 . S
C3350 C3345 1.350 . S
C3351 H3338 0.929 . S
C3351 C3343 1.433 . S
C3351 N3353 1.384 . S
N3352 C3348 1.427 . S
N3352 C3349 1.384 . S
N3353 C3345 1.427 . S
N3353 C3351 1.384 . S
H3354 C3360 0.930 . S
H3355 C3364 0.930 . S
H3356 C3369 0.929 . S
H3357 C3367 0.929 . S
H3358 C3362 0.929 . S
H3359 C3368 0.888 1_556 S
C3360 H3354 0.930 . S
C3360 C3361 1.367 . S
C3360 C3368 1.378 . S
C3361 C3360 1.367 . S
C3361 C3369 1.433 . S
C3362 H3358 0.929 . S
C3362 C3364 1.378 . S
C3362 C3366 1.350 . S
C3363 C3366 1.463 . S
C3363 C3368 1.350 . S
C3363 N3371 1.427 . S
C3364 H3355 0.930 . S
C3364 C3362 1.378 . S
C3364 C3365 1.367 . S
C3365 C3364 1.367 . S
C3365 C3367 1.433 1_554 S
C3366 C3362 1.350 . S
C3366 C3363 1.463 . S
C3366 N3370 1.460 . S
C3367 H3357 0.929 . S
C3367 C3365 1.433 1_556 S
C3367 N3370 1.373 1_556 S
C3368 H3359 0.888 1_554 S
C3368 C3360 1.378 . S
C3368 C3363 1.350 . S
C3369 H3356 0.929 . S
C3369 C3361 1.433 . S
C3369 N3371 1.384 . S
N3370 C3366 1.460 . S
N3370 C3367 1.373 1_554 S
N3371 C3363 1.427 . S
N3371 C3369 1.384 . S
H3372 C3378 0.930 . S
H3373 C3382 0.930 . S
H3374 C3387 0.929 . S
H3375 C3385 0.929 . S
H3376 C3380 0.929 . S
H3377 C3386 0.929 . S
C3378 H3372 0.930 . S
C3378 C3379 1.367 . S
C3378 C3386 1.378 . S
C3379 C3378 1.367 . S
C3379 C3387 1.433 . S
C3380 H3376 0.929 . S
C3380 C3382 1.378 . S
C3380 C3384 1.350 . S
C3381 C3384 1.463 . S
C3381 C3386 1.350 . S
C3381 N3389 1.427 . S
C3382 H3373 0.930 . S
C3382 C3380 1.378 . S
C3382 C3383 1.367 . S
C3383 C3382 1.367 . S
C3383 C3385 1.433 . S
C3384 C3380 1.350 . S
C3384 C3381 1.463 . S
C3384 N3388 1.427 . S
C3385 H3375 0.929 . S
C3385 C3383 1.433 . S
C3385 N3388 1.384 . S
C3386 H3377 0.929 . S
C3386 C3378 1.378 . S
C3386 C3381 1.350 . S
C3387 H3374 0.929 . S
C3387 C3379 1.433 . S
C3387 N3389 1.384 . S
N3388 C3384 1.427 . S
N3388 C3385 1.384 . S
N3389 C3381 1.427 . S
N3389 C3387 1.384 . S
H3390 C3396 0.930 . S
H3391 C3400 0.930 . S
H3392 C3405 0.929 . S
H3393 C3403 0.929 . S
H3394 C3398 0.929 . S
H3395 C3404 0.929 . S
C3396 H3390 0.930 . S
C3396 C3397 1.367 . S
C3396 C3404 1.378 . S
C3397 C3396 1.367 . S
C3397 C3405 1.433 . S
C3398 H3394 0.929 . S
C3398 C3400 1.378 . S
C3398 C3402 1.350 . S
C3399 C3402 1.463 . S
C3399 C3404 1.350 . S
C3399 N3407 1.427 . S
C3400 H3391 0.930 . S
C3400 C3398 1.378 . S
C3400 C3401 1.367 . S
C3401 C3400 1.367 . S
C3401 C3403 1.433 . S
C3402 C3398 1.350 . S
C3402 C3399 1.463 . S
C3402 N3406 1.427 . S
C3403 H3393 0.929 . S
C3403 C3401 1.433 . S
C3403 N3406 1.384 . S
C3404 H3395 0.929 . S
C3404 C3396 1.378 . S
C3404 C3399 1.350 . S
C3405 H3392 0.929 . S
C3405 C3397 1.433 . S
C3405 N3407 1.384 . S
N3406 C3402 1.427 . S
N3406 C3403 1.384 . S
N3407 C3399 1.427 . S
N3407 C3405 1.384 . S
C1687 C111 1.788 . S
C1691 C392 1.658 . S
C1705 C64 2.193 . S
C1709 C483 2.212 . S
C1723 C77 1.512 . S
C1727 C560 1.437 . S
C1745 C658 1.296 . S
C1741 C95 1.409 . S
C1759 C25 1.376 . S
C1763 C742 1.317 . S
C1781 C814 0.974 . S
C1777 C36 1.013 . S
C1799 C903 0.910 . S
C1795 C50 0.884 . S
C1813 C11 1.450 . S
C1817 C980 1.270 . S
C1835 C399 1.969 . S
C1831 C237 1.972 . S
C1849 C245 0.644 . S
C1853 C490 0.689 . S
C1871 C567 1.062 . S
C1867 C279 1.021 . S
C1889 C644 1.504 . S
C1885 C175 1.597 . S
C1903 C231 1.974 . S
C1907 C728 1.846 . S
C1925 C830 1.070 . S
C1921 C251 1.076 . S
C1943 C910 0.768 . S
C1939 C273 0.748 . S
C1961 C987 1.453 . S
C1957 C181 1.562 . S
C1979 C406 1.301 . S
C1975 C165 1.382 . S
C1993 C288 1.892 . S
C1997 C1071 1.876 1_556 S
C2015 C1159 2.170 . S
C2011 C333 2.356 . S
C2033 C1232 0.549 . S
C2029 C316 0.451 . S
C2047 C123 0.877 . S
C2051 C994 0.862 . S
C2065 C137 1.373 . S
C2069 C574 1.327 . S
C2083 C330 2.180 . S
C2087 C1323 2.189 . S
C2105 C1400 0.741 . S
C2101 C302 0.703 . S
C2123 C403 1.776 . S
C2119 C63 1.916 . S
C2141 C1418 2.237 . S
C2137 C106 2.287 . S
C2155 C97 1.559 . S
C2159 C571 1.518 . S
C2173 C81 1.468 . S
C2177 C1318 1.327 . S
C2195 C730 1.411 . S
C2191 C13 1.332 . S
C2209 C55 0.965 . S
C2213 C1162 0.937 . S
C2231 C914 0.974 1_565 S
C2227 C35 0.946 . S
C2249 C1495 1.435 . S
C2245 C21 1.595 . S
C2267 C410 2.083 . S
C2263 C147 2.192 . S
C2285 C1402 0.698 . S
C2281 C321 0.658 . S
C2299 C119 1.123 . S
C2303 C578 1.104 . S
C2317 C293 1.644 . S
C2321 C1327 1.620 . S
C2335 C153 1.967 . S
C2339 C739 2.013 . S
C2357 C1155 1.087 . S
C2353 C315 1.165 . S
C2371 C125 0.755 . S
C2375 C898 0.783 . S
C2389 C287 1.721 . S
C2393 C1502 1.576 . S
C2407 C193 1.413 . S
C2411 C394 1.359 1_554 S
C2425 C176 1.949 . S
C2429 C1082 1.898 . S
C2443 C263 2.312 . S
C2447 C812 2.136 . S
C2461 C246 0.667 . S
C2465 C1243 0.653 . S
C2483 C1486 0.862 . S
C2479 C277 0.866 1_565 S
C2497 C221 1.368 . S
C2501 C562 1.324 . S
C2519 C662 2.242 . S
C2515 C260 2.263 . S
C2537 C487 0.835 . S
C2533 C204 0.860 . S
C2551 C83 1.788 . S
C2555 C1568 1.656 . S
C2573 C1407 2.217 . S
C2569 C92 2.186 . S
C2587 C105 1.512 . S
C2591 C1652 1.440 . S
C2605 C67 1.406 . S
C2609 C1330 1.276 . S
C2623 C53 1.375 . S
C2627 C1078 1.318 . S
C2645 C1150 0.957 . S
C2641 C8 1.004 . S
C2663 C1239 0.914 . S
C2659 C22 0.866 . S
C2681 C1484 1.254 . S
C2677 C39 1.444 . S
C2699 C1575 1.963 . S
C2695 C265 1.972 . S
C2713 C189 0.647 . S
C2717 C1414 0.684 . S
C2735 C1659 1.064 . S
C2731 C209 1.017 . S
C2753 C1316 1.512 . S
C2749 C217 1.593 . S
C2771 C1064 1.833 . S
C2767 C259 1.965 . S
C2785 C195 1.050 . S
C2789 C1166 1.043 . S
C2807 C1246 0.736 . S
C2803 C203 0.756 . S
C2821 C223 1.562 . S
C2825 C1491 1.449 . S
C2843 C1582 1.315 . S
C2839 C319 1.388 . S
C2857 C134 1.892 . S
C2861 C735 1.879 . S
C2879 C823 2.182 . S
C2875 C151 2.359 . S
C2897 C896 0.501 . S
C2893 C162 0.488 . S
C2915 C1498 0.863 . S
C2911 C305 0.878 . S
C2929 C291 1.370 1_554 S
C2933 C1666 1.307 . S
C2951 C651 2.184 . S
C2947 C148 2.170 . S
C2969 C476 0.712 . S
C2965 C120 0.725 . S
C2983 C91 1.916 . S
C2987 C1579 1.788 . S
C3005 C494 2.236 . S
C3001 C78 2.288 . S
C3019 C69 1.567 . S
C3023 C1663 1.534 . S
C3037 C109 1.464 . S
C3041 C646 1.350 . S
C3055 C41 1.349 . S
C3059 C1066 1.399 . S
C3077 C826 0.960 . S
C3073 C27 0.965 . S
C3091 C7 0.939 . S
C3095 C1250 0.973 . S
C3109 C49 1.601 . S
C3113 C991 1.449 . S
C3131 C1586 2.076 . S
C3127 C329 2.193 . S
C3145 C167 0.693 . S
C3149 C478 0.665 . S
C3167 C1670 1.084 . S
C3163 C301 1.129 . S
C3181 C139 1.652 . S
C3185 C655 1.638 . S
C3199 C335 1.953 . S
C3203 C1075 2.004 . S
C3221 C819 1.102 . S
C3217 C161 1.171 . S
C3235 C307 0.753 . S
C3239 C1234 0.785 1_655 S
C3257 C998 1.585 . S
C3253 C133 1.723 . S
C3275 C1570 1.358 . S
C3271 C249 1.413 . S
C3293 C746 1.899 1_665 S
C3289 C218 1.950 . S
C3307 C235 2.315 . S
C3311 C1148 2.146 . S
C3329 C907 0.629 . S
C3325 C190 0.670 . S
C3343 C207 0.862 . S
C3347 C982 0.866 . S
C3361 C179 1.356 . S
C3365 C1654 1.342 1_554 S
C3383 C1334 2.241 . S
C3379 C232 2.259 1_565 S
C3401 C1411 0.849 . S
C3397 C274 0.835 . S
