# Generated by pormake.
# Topology fgl, (4,4)-cn, num edge types: 1
# Building blocks:
#     Node 0, Type 0, BuildingBlock: ESEHIV_clean_sbu_0, # of connection points: 4
#     Node 1, Type 0, BuildingBlock: ESEHIV_clean_sbu_0, # of connection points: 4
#     Node 2, Type 0, BuildingBlock: ESEHIV_clean_sbu_0, # of connection points: 4
#     Node 3, Type 0, BuildingBlock: ESEHIV_clean_sbu_0, # of connection points: 4
#     Node 4, Type 0, BuildingBlock: ESEHIV_clean_sbu_0, # of connection points: 4
#     Node 5, Type 0, BuildingBlock: ESEHIV_clean_sbu_0, # of connection points: 4
#     Node 6, Type 0, BuildingBlock: ESEHIV_clean_sbu_0, # of connection points: 4
#     Node 7, Type 0, BuildingBlock: ESEHIV_clean_sbu_0, # of connection points: 4
#     Node 8, Type 0, BuildingBlock: ESEHIV_clean_sbu_0, # of connection points: 4
#     Node 9, Type 0, BuildingBlock: ESEHIV_clean_sbu_0, # of connection points: 4
#     Node 10, Type 0, BuildingBlock: ESEHIV_clean_sbu_0, # of connection points: 4
#     Node 11, Type 0, BuildingBlock: ESEHIV_clean_sbu_0, # of connection points: 4
#     Node 12, Type 0, BuildingBlock: ESEHIV_clean_sbu_0, # of connection points: 4
#     Node 13, Type 0, BuildingBlock: ESEHIV_clean_sbu_0, # of connection points: 4
#     Node 14, Type 0, BuildingBlock: ESEHIV_clean_sbu_0, # of connection points: 4
#     Node 15, Type 0, BuildingBlock: ESEHIV_clean_sbu_0, # of connection points: 4
#     Node 16, Type 0, BuildingBlock: ESEHIV_clean_sbu_0, # of connection points: 4
#     Node 17, Type 0, BuildingBlock: ESEHIV_clean_sbu_0, # of connection points: 4
#     Node 18, Type 1, BuildingBlock: QUQFOY_clean_sbu_3, # of connection points: 4
#     Node 19, Type 1, BuildingBlock: QUQFOY_clean_sbu_3, # of connection points: 4
#     Node 20, Type 1, BuildingBlock: QUQFOY_clean_sbu_3, # of connection points: 4
#     Node 21, Type 1, BuildingBlock: QUQFOY_clean_sbu_3, # of connection points: 4
#     Node 22, Type 1, BuildingBlock: QUQFOY_clean_sbu_3, # of connection points: 4
#     Node 23, Type 1, BuildingBlock: QUQFOY_clean_sbu_3, # of connection points: 4
#     Node 24, Type 1, BuildingBlock: QUQFOY_clean_sbu_3, # of connection points: 4
#     Node 25, Type 1, BuildingBlock: QUQFOY_clean_sbu_3, # of connection points: 4
#     Node 26, Type 1, BuildingBlock: QUQFOY_clean_sbu_3, # of connection points: 4
#     Node 27, Type 1, BuildingBlock: QUQFOY_clean_sbu_3, # of connection points: 4
#     Node 28, Type 1, BuildingBlock: QUQFOY_clean_sbu_3, # of connection points: 4
#     Node 29, Type 1, BuildingBlock: QUQFOY_clean_sbu_3, # of connection points: 4
#     Node 30, Type 1, BuildingBlock: QUQFOY_clean_sbu_3, # of connection points: 4
#     Node 31, Type 1, BuildingBlock: QUQFOY_clean_sbu_3, # of connection points: 4
#     Node 32, Type 1, BuildingBlock: QUQFOY_clean_sbu_3, # of connection points: 4
#     Node 33, Type 1, BuildingBlock: QUQFOY_clean_sbu_3, # of connection points: 4
#     Node 34, Type 1, BuildingBlock: QUQFOY_clean_sbu_3, # of connection points: 4
#     Node 35, Type 1, BuildingBlock: QUQFOY_clean_sbu_3, # of connection points: 4
#     Edge 36, Type (0, 1), BuildingBlock: ZUJKAS_clean_linker_0, # of connection points: 2
#     Edge 37, Type (0, 1), BuildingBlock: ZUJKAS_clean_linker_0, # of connection points: 2
#     Edge 38, Type (0, 1), BuildingBlock: ZUJKAS_clean_linker_0, # of connection points: 2
#     Edge 39, Type (0, 1), BuildingBlock: ZUJKAS_clean_linker_0, # of connection points: 2
#     Edge 40, Type (0, 1), BuildingBlock: ZUJKAS_clean_linker_0, # of connection points: 2
#     Edge 41, Type (0, 1), BuildingBlock: ZUJKAS_clean_linker_0, # of connection points: 2
#     Edge 42, Type (0, 1), BuildingBlock: ZUJKAS_clean_linker_0, # of connection points: 2
#     Edge 43, Type (0, 1), BuildingBlock: ZUJKAS_clean_linker_0, # of connection points: 2
#     Edge 44, Type (0, 1), BuildingBlock: ZUJKAS_clean_linker_0, # of connection points: 2
#     Edge 45, Type (0, 1), BuildingBlock: ZUJKAS_clean_linker_0, # of connection points: 2
#     Edge 46, Type (0, 1), BuildingBlock: ZUJKAS_clean_linker_0, # of connection points: 2
#     Edge 47, Type (0, 1), BuildingBlock: ZUJKAS_clean_linker_0, # of connection points: 2
#     Edge 48, Type (0, 1), BuildingBlock: ZUJKAS_clean_linker_0, # of connection points: 2
#     Edge 49, Type (0, 1), BuildingBlock: ZUJKAS_clean_linker_0, # of connection points: 2
#     Edge 50, Type (0, 1), BuildingBlock: ZUJKAS_clean_linker_0, # of connection points: 2
#     Edge 51, Type (0, 1), BuildingBlock: ZUJKAS_clean_linker_0, # of connection points: 2
#     Edge 52, Type (0, 1), BuildingBlock: ZUJKAS_clean_linker_0, # of connection points: 2
#     Edge 53, Type (0, 1), BuildingBlock: ZUJKAS_clean_linker_0, # of connection points: 2
#     Edge 54, Type (0, 1), BuildingBlock: ZUJKAS_clean_linker_0, # of connection points: 2
#     Edge 55, Type (0, 1), BuildingBlock: ZUJKAS_clean_linker_0, # of connection points: 2
#     Edge 56, Type (0, 1), BuildingBlock: ZUJKAS_clean_linker_0, # of connection points: 2
#     Edge 57, Type (0, 1), BuildingBlock: ZUJKAS_clean_linker_0, # of connection points: 2
#     Edge 58, Type (0, 1), BuildingBlock: ZUJKAS_clean_linker_0, # of connection points: 2
#     Edge 59, Type (0, 1), BuildingBlock: ZUJKAS_clean_linker_0, # of connection points: 2
#     Edge 60, Type (0, 1), BuildingBlock: ZUJKAS_clean_linker_0, # of connection points: 2
#     Edge 61, Type (0, 1), BuildingBlock: ZUJKAS_clean_linker_0, # of connection points: 2
#     Edge 62, Type (0, 1), BuildingBlock: ZUJKAS_clean_linker_0, # of connection points: 2
#     Edge 63, Type (0, 1), BuildingBlock: ZUJKAS_clean_linker_0, # of connection points: 2
#     Edge 64, Type (0, 1), BuildingBlock: ZUJKAS_clean_linker_0, # of connection points: 2
#     Edge 65, Type (0, 1), BuildingBlock: ZUJKAS_clean_linker_0, # of connection points: 2
#     Edge 66, Type (0, 1), BuildingBlock: ZUJKAS_clean_linker_0, # of connection points: 2
#     Edge 67, Type (0, 1), BuildingBlock: ZUJKAS_clean_linker_0, # of connection points: 2
#     Edge 68, Type (0, 1), BuildingBlock: ZUJKAS_clean_linker_0, # of connection points: 2
#     Edge 69, Type (0, 1), BuildingBlock: ZUJKAS_clean_linker_0, # of connection points: 2
#     Edge 70, Type (0, 1), BuildingBlock: ZUJKAS_clean_linker_0, # of connection points: 2
#     Edge 71, Type (0, 1), BuildingBlock: ZUJKAS_clean_linker_0, # of connection points: 2
#     Edge 72, Type (0, 1), BuildingBlock: ZUJKAS_clean_linker_0, # of connection points: 2
#     Edge 73, Type (0, 1), BuildingBlock: ZUJKAS_clean_linker_0, # of connection points: 2
#     Edge 74, Type (0, 1), BuildingBlock: ZUJKAS_clean_linker_0, # of connection points: 2
#     Edge 75, Type (0, 1), BuildingBlock: ZUJKAS_clean_linker_0, # of connection points: 2
#     Edge 76, Type (0, 1), BuildingBlock: ZUJKAS_clean_linker_0, # of connection points: 2
#     Edge 77, Type (0, 1), BuildingBlock: ZUJKAS_clean_linker_0, # of connection points: 2
#     Edge 78, Type (0, 1), BuildingBlock: ZUJKAS_clean_linker_0, # of connection points: 2
#     Edge 79, Type (0, 1), BuildingBlock: ZUJKAS_clean_linker_0, # of connection points: 2
#     Edge 80, Type (0, 1), BuildingBlock: ZUJKAS_clean_linker_0, # of connection points: 2
#     Edge 81, Type (0, 1), BuildingBlock: ZUJKAS_clean_linker_0, # of connection points: 2
#     Edge 82, Type (0, 1), BuildingBlock: ZUJKAS_clean_linker_0, # of connection points: 2
#     Edge 83, Type (0, 1), BuildingBlock: ZUJKAS_clean_linker_0, # of connection points: 2
#     Edge 84, Type (0, 1), BuildingBlock: ZUJKAS_clean_linker_0, # of connection points: 2
#     Edge 85, Type (0, 1), BuildingBlock: ZUJKAS_clean_linker_0, # of connection points: 2
#     Edge 86, Type (0, 1), BuildingBlock: ZUJKAS_clean_linker_0, # of connection points: 2
#     Edge 87, Type (0, 1), BuildingBlock: ZUJKAS_clean_linker_0, # of connection points: 2
#     Edge 88, Type (0, 1), BuildingBlock: ZUJKAS_clean_linker_0, # of connection points: 2
#     Edge 89, Type (0, 1), BuildingBlock: ZUJKAS_clean_linker_0, # of connection points: 2
#     Edge 90, Type (0, 1), BuildingBlock: ZUJKAS_clean_linker_0, # of connection points: 2
#     Edge 91, Type (0, 1), BuildingBlock: ZUJKAS_clean_linker_0, # of connection points: 2
#     Edge 92, Type (0, 1), BuildingBlock: ZUJKAS_clean_linker_0, # of connection points: 2
#     Edge 93, Type (0, 1), BuildingBlock: ZUJKAS_clean_linker_0, # of connection points: 2
#     Edge 94, Type (0, 1), BuildingBlock: ZUJKAS_clean_linker_0, # of connection points: 2
#     Edge 95, Type (0, 1), BuildingBlock: ZUJKAS_clean_linker_0, # of connection points: 2
#     Edge 96, Type (0, 1), BuildingBlock: ZUJKAS_clean_linker_0, # of connection points: 2
#     Edge 97, Type (0, 1), BuildingBlock: ZUJKAS_clean_linker_0, # of connection points: 2
#     Edge 98, Type (0, 1), BuildingBlock: ZUJKAS_clean_linker_0, # of connection points: 2
#     Edge 99, Type (0, 1), BuildingBlock: ZUJKAS_clean_linker_0, # of connection points: 2
#     Edge 100, Type (0, 1), BuildingBlock: ZUJKAS_clean_linker_0, # of connection points: 2
#     Edge 101, Type (0, 1), BuildingBlock: ZUJKAS_clean_linker_0, # of connection points: 2
#     Edge 102, Type (0, 1), BuildingBlock: ZUJKAS_clean_linker_0, # of connection points: 2
#     Edge 103, Type (0, 1), BuildingBlock: ZUJKAS_clean_linker_0, # of connection points: 2
#     Edge 104, Type (0, 1), BuildingBlock: ZUJKAS_clean_linker_0, # of connection points: 2
#     Edge 105, Type (0, 1), BuildingBlock: ZUJKAS_clean_linker_0, # of connection points: 2
#     Edge 106, Type (0, 1), BuildingBlock: ZUJKAS_clean_linker_0, # of connection points: 2
#     Edge 107, Type (0, 1), BuildingBlock: ZUJKAS_clean_linker_0, # of connection points: 2
# Relax obj value: 0.013
# Max RMSD: 0.130
# Mean RMSD: 0.073
data_MOF--net-fgl--node1-ESEHIV_clean_sbu_0--node2-QUQFOY_clean_sbu_3--edge1-ZUJKAS_clean_linker_0
_symmetry_space_group_name_H-M    P1
_symmetry_Int_Tables_number       1
_symmetry_cell_setting            triclinic
loop_
_symmetry_equiv_pos_as_xyz
'x, y, z'
_cell_length_a     98.412825
_cell_length_b     98.310307
_cell_length_c     66.900861
_cell_angle_alpha  89.094102
_cell_angle_beta   90.738994
_cell_angle_gamma 119.94302
loop_
_atom_site_label
_atom_site_type_symbol
_atom_site_fract_x
_atom_site_fract_y
_atom_site_fract_z
_atom_type_partial_charge
Cu0 Cu 0.03199 0.54611 0.01029 0.0
N1 N 0.02398 0.54481 0.03598 0.0
N2 N 0.01964 0.55284 0.06515 0.0
C3 C 0.02641 0.55721 0.04698 0.0
C4 C 0.0127 0.53702 0.06558 0.0
C5 C 0.01538 0.5321 0.04755 0.0
O6 O 0.03622 0.56608 0.99902 0.0
C7 C 0.05863 0.54621 0.0275 0.0
O8 O 0.05613 0.55261 0.04308 0.0
H9 H 0.03335 0.56925 0.04187 0.0
H10 H 0.01143 0.52013 0.04322 0.0
N11 N 0.01791 0.52989 0.99368 0.0
N12 N 0.00961 0.51288 0.96845 0.0
C13 C 0.02209 0.52336 0.97916 0.0
C14 C 0.00219 0.52312 0.99227 0.0
C15 C 0.99706 0.51272 0.97657 0.0
C16 C 0.02446 0.56814 0.99854 0.0
O17 O 0.01082 0.55661 0.00448 0.0
H18 H 0.03413 0.52665 0.97605 0.0
H19 H 0.99499 0.52575 1.00173 0.0
O20 O 0.05046 0.54401 0.01176 0.0
H21 H 0.00604 0.5295 0.07795 0.0
H22 H 0.98506 0.50562 0.97147 0.0
Cu23 Cu 0.51578 0.55714 0.01381 0.0
N24 N 0.51618 0.56311 0.98562 0.0
N25 N 0.52406 0.57182 0.95449 0.0
C26 C 0.5286 0.57075 0.97335 0.0
C27 C 0.50826 0.56461 0.955 0.0
C28 C 0.50345 0.55929 0.97421 0.0
O29 O 0.53137 0.58003 0.02095 0.0
C30 C 0.50329 0.52543 0.99746 0.0
O31 O 0.51786 0.53097 0.99172 0.0
H32 H 0.54063 0.57505 0.97793 0.0
H33 H 0.49149 0.55287 0.97947 0.0
N34 N 0.51498 0.55103 0.04199 0.0
N35 N 0.50557 0.54078 0.07224 0.0
C36 C 0.50205 0.54318 0.05333 0.0
C37 C 0.52711 0.55369 0.05394 0.0
C38 C 0.52138 0.54746 0.07258 0.0
C39 C 0.54616 0.58553 0.02092 0.0
O40 O 0.55161 0.57634 0.01565 0.0
H41 H 0.49034 0.53916 0.04762 0.0
H42 H 0.53927 0.55971 0.04948 0.0
O43 O 0.49975 0.53433 0.007 0.0
H44 H 0.50073 0.56333 0.94239 0.0
H45 H 0.52845 0.54799 0.08537 0.0
Cu46 Cu 0.50309 0.01808 0.02867 0.0
N47 N 0.49727 0.01654 1.00176 0.0
N48 N 0.48914 0.01937 0.97156 0.0
C49 C 0.49491 0.02615 0.98943 0.0
C50 C 0.48818 0.00521 0.9726 0.0
C51 C 0.49318 0.00351 0.9912 0.0
O52 O 0.48355 0.00678 0.044 0.0
C53 C 0.52871 0.01673 0.01684 0.0
O54 O 0.52829 0.02681 0.00411 0.0
H55 H 0.49654 0.03743 0.99381 0.0
H56 H 0.49344 0.99329 0.99693 0.0
N57 N 0.51451 0.03852 0.03835 0.0
N58 N 0.53205 0.05647 0.05913 0.0
C59 C 0.52751 0.04298 0.04942 0.0
C60 C 0.51064 0.04973 0.04098 0.0
C61 C 0.52146 0.06083 0.05392 0.0
C62 C 0.47331 0.01065 0.03927 0.0
O63 O 0.47691 0.02166 0.02565 0.0
H64 H 0.53264 0.0356 0.05196 0.0
H65 H 0.50015 0.04932 0.03519 0.0
O66 O 0.51803 0.01039 0.03012 0.0
H67 H 0.48384 0.99654 0.96088 0.0
H68 H 0.52105 0.07079 0.05988 0.0
Cu69 Cu 0.52295 0.04995 0.51749 0.0
N70 N 0.53894 0.06424 0.50071 0.0
N71 N 0.55592 0.07361 0.47537 0.0
C72 C 0.54438 0.0607 0.4844 0.0
C73 C 0.55783 0.0858 0.48647 0.0
C74 C 0.54736 0.07997 0.50213 0.0
O75 O 0.5274 0.03323 0.52464 0.0
C76 C 0.50017 0.04922 0.48974 0.0
O77 O 0.51193 0.05583 0.4772 0.0
H78 H 0.53961 0.04894 0.47885 0.0
H79 H 0.54594 0.08671 0.5137 0.0
N80 N 0.52391 0.05949 0.54161 0.0
N81 N 0.51533 0.0634 0.57046 0.0
C82 C 0.51135 0.05725 0.55201 0.0
C83 C 0.53633 0.06738 0.55381 0.0
C84 C 0.53106 0.06982 0.57168 0.0
C85 C 0.52865 0.02368 0.51322 0.0
O86 O 0.52407 0.0225 0.49449 0.0
H87 H 0.49942 0.05031 0.54662 0.0
H88 H 0.54823 0.07044 0.5503 0.0
O89 O 0.50217 0.04418 0.50658 0.0
H90 H 0.56626 0.09803 0.4836 0.0
H91 H 0.53816 0.07544 0.58475 0.0
Cu92 Cu 0.04254 0.56512 0.51604 0.0
N93 N 0.0543 0.56145 0.5355 0.0
N94 N 0.0583 0.54943 0.56179 0.0
C95 C 0.04762 0.5501 0.54957 0.0
C96 C 0.07235 0.56086 0.55506 0.0
C97 C 0.06984 0.56828 0.53887 0.0
O98 O 0.0267 0.54408 0.50745 0.0
C99 C 0.0465 0.59152 0.53434 0.0
O100 O 0.06086 0.59392 0.53364 0.0
H101 H 0.03508 0.54229 0.55051 0.0
H102 H 0.07874 0.57802 0.53033 0.0
N103 N 0.05356 0.5759 0.49303 0.0
N104 N 0.05692 0.58757 0.46304 0.0
C105 C 0.04699 0.58024 0.47835 0.0
C106 C 0.06825 0.58065 0.48688 0.0
C107 C 0.07037 0.58791 0.46839 0.0
C108 C 0.03298 0.53683 0.49951 0.0
O109 O 0.04831 0.54437 0.49754 0.0
H110 H 0.03511 0.57812 0.47906 0.0
H111 H 0.07673 0.57876 0.49501 0.0
O112 O 0.03536 0.5786 0.52763 0.0
H113 H 0.08362 0.56383 0.56151 0.0
H114 H 0.08088 0.59276 0.45944 0.0
Cu115 Cu 0.51232 0.55759 0.51395 0.0
N116 N 0.53081 0.55918 0.5048 0.0
N117 N 0.55549 0.57075 0.49408 0.0
C118 C 0.54443 0.57274 0.50304 0.0
C119 C 0.54855 0.55529 0.49003 0.0
C120 C 0.53327 0.54815 0.49672 0.0
O121 O 0.51845 0.57623 0.53016 0.0
C122 C 0.49184 0.54062 0.48356 0.0
O123 O 0.49387 0.52975 0.49244 0.0
H124 H 0.54596 0.58397 0.50743 0.0
H125 H 0.52449 0.5359 0.4953 0.0
N126 N 0.50162 0.54017 0.5308 0.0
N127 N 0.48214 0.52174 0.54902 0.0
C128 C 0.48678 0.53439 0.53697 0.0
C129 C 0.50658 0.53086 0.53918 0.0
C130 C 0.49456 0.51948 0.55054 0.0
C131 C 0.52515 0.57616 0.5466 0.0
O132 O 0.52728 0.56425 0.5507 0.0
H133 H 0.47953 0.53937 0.53261 0.0
H134 H 0.51808 0.53223 0.5371 0.0
O135 O 0.49895 0.55453 0.4905 0.0
H136 H 0.55404 0.54961 0.48256 0.0
H137 H 0.49479 0.51004 0.5588 0.0
Cu138 Cu 0.71649 0.89966 0.34242 0.0
N139 N 0.72291 0.91856 0.32868 0.0
N140 N 0.72117 0.9389 0.31638 0.0
C141 C 0.71441 0.92582 0.32789 0.0
C142 C 0.7345 0.93991 0.30957 0.0
C143 C 0.73558 0.92735 0.31725 0.0
O144 O 0.70598 0.90089 0.36668 0.0
C145 C 0.71329 0.88252 0.30898 0.0
O146 O 0.72822 0.89327 0.30909 0.0
H147 H 0.70321 0.92129 0.33524 0.0
H148 H 0.74482 0.92473 0.31444 0.0
N149 N 0.7334 0.8974 0.35102 0.0
N150 N 0.74588 0.88497 0.36199 0.0
C151 C 0.73191 0.8837 0.35741 0.0
C152 C 0.74888 0.90781 0.3516 0.0
C153 C 0.75663 0.90013 0.35831 0.0
C154 C 0.71488 0.9128 0.3774 0.0
O155 O 0.72937 0.92199 0.37143 0.0
H156 H 0.72075 0.8729 0.35811 0.0
H157 H 0.75416 0.92006 0.34737 0.0
O158 O 0.7047 0.88265 0.3231 0.0
H159 H 0.74286 0.94905 0.29977 0.0
H160 H 0.76917 0.90531 0.36041 0.0
Cu161 Cu 0.19084 0.89042 0.35819 0.0
N162 N 0.1874 0.87044 0.35199 0.0
N163 N 0.17468 0.84566 0.34112 0.0
C164 C 0.17353 0.85828 0.34623 0.0
C165 C 0.18996 0.8501 0.34367 0.0
C166 C 0.19779 0.8654 0.35036 0.0
O167 O 0.17529 0.88746 0.37811 0.0
C168 C 0.19213 0.91345 0.32895 0.0
O169 O 0.19188 0.92192 0.34378 0.0
H170 H 0.16291 0.85889 0.34497 0.0
H171 H 0.21022 0.87246 0.35333 0.0
N172 N 0.21045 0.90253 0.37047 0.0
N173 N 0.23142 0.92352 0.38337 0.0
C174 C 0.21928 0.91832 0.37034 0.0
C175 C 0.21729 0.89755 0.384 0.0
C176 C 0.23023 0.91045 0.39194 0.0
C177 C 0.1605 0.8808 0.37574 0.0
O178 O 0.15455 0.8776 0.35759 0.0
H179 H 0.21636 0.92592 0.36177 0.0
H180 H 0.21276 0.88543 0.38847 0.0
O181 O 0.19064 0.90002 0.33255 0.0
H182 H 0.19516 0.84289 0.34077 0.0
H183 H 0.23791 0.91022 0.40351 0.0
Cu184 Cu 0.17993 0.38193 0.35191 0.0
N185 N 0.17935 0.39398 0.33052 0.0
N186 N 0.17165 0.39885 0.30116 0.0
C187 C 0.17077 0.38773 0.31395 0.0
C188 C 0.18133 0.4127 0.30995 0.0
C189 C 0.18602 0.40964 0.3282 0.0
O190 O 0.15813 0.36701 0.35898 0.0
C191 C 0.20625 0.38372 0.33655 0.0
O192 O 0.20934 0.39834 0.33557 0.0
H193 H 0.16386 0.37522 0.31152 0.0
H194 H 0.19353 0.41817 0.33912 0.0
N195 N 0.18966 0.39404 0.37423 0.0
N196 N 0.20356 0.40072 0.40255 0.0
C197 C 0.1992 0.39154 0.3863 0.0
C198 C 0.18784 0.40523 0.38305 0.0
C199 C 0.19642 0.40937 0.40065 0.0
C200 C 0.14902 0.37278 0.35884 0.0
O201 O 0.15485 0.38773 0.35453 0.0
H202 H 0.20223 0.38255 0.38366 0.0
H203 H 0.18046 0.4097 0.37742 0.0
O204 O 0.19309 0.3733 0.34368 0.0
H205 H 0.18435 0.42415 0.30394 0.0
H206 H 0.19714 0.41787 0.41134 0.0
Cu207 Cu 0.16622 0.34307 0.85428 0.0
N208 N 0.16437 0.33242 0.83069 0.0
N209 N 0.1703 0.32893 0.79986 0.0
C210 C 0.17347 0.33923 0.81468 0.0
C211 C 0.1587 0.31504 0.80682 0.0
C212 C 0.15499 0.31725 0.82589 0.0
O213 O 0.18766 0.35074 0.8643 0.0
C214 C 0.14632 0.35233 0.8393 0.0
O215 O 0.13867 0.33704 0.83693 0.0
H216 H 0.18262 0.35143 0.81425 0.0
H217 H 0.14624 0.30842 0.83561 0.0
N218 N 0.15211 0.32995 0.8736 0.0
N219 N 0.13469 0.3228 0.89823 0.0
C220 C 0.14395 0.33427 0.88528 0.0
C221 C 0.14798 0.31521 0.87937 0.0
C222 C 0.13722 0.31077 0.89466 0.0
C223 C 0.19209 0.34054 0.86396 0.0
O224 O 0.18209 0.32632 0.85785 0.0
H225 H 0.14511 0.3458 0.88456 0.0
H226 H 0.1525 0.30823 0.87303 0.0
O227 O 0.15994 0.35863 0.84736 0.0
H228 H 0.15333 0.30409 0.79876 0.0
H229 H 0.13168 0.29957 0.90246 0.0
Cu230 Cu 0.71259 0.89652 0.84362 0.0
N231 N 0.71918 0.88412 0.83065 0.0
N232 N 0.71857 0.86308 0.8174 0.0
C233 C 0.71052 0.86861 0.82733 0.0
C234 C 0.73298 0.87562 0.8145 0.0
C235 C 0.7333 0.88861 0.82264 0.0
O236 O 0.70264 0.88626 0.86892 0.0
C237 C 0.69399 0.89533 0.80914 0.0
O238 O 0.69149 0.88104 0.80661 0.0
H239 H 0.69852 0.86149 0.83213 0.0
H240 H 0.7431 0.90049 0.82265 0.0
N241 N 0.72998 0.91518 0.85171 0.0
N242 N 0.74246 0.93961 0.86341 0.0
C243 C 0.73073 0.92923 0.85167 0.0
C244 C 0.74172 0.91675 0.86376 0.0
C245 C 0.74942 0.93183 0.87111 0.0
C246 C 0.69064 0.87286 0.87226 0.0
O247 O 0.68165 0.86474 0.85727 0.0
H248 H 0.72182 0.93127 0.84499 0.0
H249 H 0.74362 0.90722 0.86831 0.0
O250 O 0.7012 0.90283 0.8248 0.0
H251 H 0.7425 0.87549 0.80677 0.0
H252 H 0.75862 0.93637 0.88233 0.0
Cu253 Cu 0.17411 0.89436 0.8462 0.0
N254 N 0.16308 0.89472 0.82328 0.0
N255 N 0.15046 0.88636 0.79393 0.0
C256 C 0.1571 0.88311 0.80976 0.0
C257 C 0.15239 0.90069 0.79776 0.0
C258 C 0.16019 0.90582 0.81582 0.0
O259 O 0.16083 0.87419 0.85891 0.0
C260 C 0.20239 0.91053 0.82832 0.0
O261 O 0.19671 0.92008 0.82637 0.0
H262 H 0.1581 0.87267 0.81131 0.0
H263 H 0.16381 0.917 0.8227 0.0
N264 N 0.17868 0.91014 0.86499 0.0
N265 N 0.18959 0.92492 0.89216 0.0
C266 C 0.18899 0.91365 0.88021 0.0
C267 C 0.1725 0.91951 0.86733 0.0
C268 C 0.17922 0.92865 0.88401 0.0
C269 C 0.14831 0.87263 0.86648 0.0
O270 O 0.14599 0.88468 0.86592 0.0
H271 H 0.19588 0.90794 0.88242 0.0
H272 H 0.16343 0.91942 0.85796 0.0
O273 O 0.19407 0.89739 0.83713 0.0
H274 H 0.14855 0.90712 0.78821 0.0
H275 H 0.17631 0.93704 0.88997 0.0
Cu276 Cu 0.38799 0.23679 0.69525 0.0
N277 N 0.39824 0.25727 0.68541 0.0
N278 N 0.39953 0.27834 0.67051 0.0
C279 C 0.39177 0.26255 0.67183 0.0
C280 C 0.41147 0.28321 0.68377 0.0
C281 C 0.41062 0.27015 0.69301 0.0
O282 O 0.37628 0.23727 0.71877 0.0
C283 C 0.385 0.22443 0.65806 0.0
O284 O 0.39989 0.23526 0.65914 0.0
H285 H 0.38064 0.25498 0.66457 0.0
H286 H 0.41769 0.27014 0.7055 0.0
N287 N 0.40185 0.22989 0.70277 0.0
N288 N 0.40919 0.21218 0.70918 0.0
C289 C 0.39723 0.21458 0.70435 0.0
C290 C 0.41737 0.23757 0.70663 0.0
C291 C 0.42192 0.2266 0.71084 0.0
C292 C 0.38331 0.24077 0.73573 0.0
O293 O 0.39727 0.2422 0.73717 0.0
H294 H 0.38522 0.20535 0.70211 0.0
H295 H 0.42486 0.25018 0.70633 0.0
O296 O 0.37621 0.22292 0.67285 0.0
H297 H 0.41959 0.29532 0.68748 0.0
H298 H 0.43365 0.229 0.71452 0.0
Cu299 Cu 0.84227 0.20726 0.68275 0.0
N300 N 0.85818 0.20878 0.6663 0.0
N301 N 0.87476 0.21812 0.64056 0.0
C302 C 0.86615 0.22092 0.6536 0.0
C303 C 0.8722 0.20363 0.64525 0.0
C304 C 0.862 0.19791 0.66125 0.0
O305 O 0.84733 0.22923 0.68491 0.0
C306 C 0.81883 0.17765 0.6723 0.0
O307 O 0.82865 0.17463 0.68219 0.0
H308 H 0.86472 0.23114 0.65293 0.0
H309 H 0.85711 0.18634 0.66794 0.0
N310 N 0.84262 0.19946 0.70837 0.0
N311 N 0.8335 0.18802 0.73817 0.0
C312 C 0.83003 0.19222 0.72036 0.0
C313 C 0.85457 0.19991 0.7189 0.0
C314 C 0.84898 0.19288 0.73734 0.0
C315 C 0.84989 0.23632 0.70156 0.0
O316 O 0.8449 0.22798 0.71812 0.0
H317 H 0.81858 0.19038 0.71614 0.0
H318 H 0.86648 0.20504 0.71357 0.0
O319 O 0.82223 0.19196 0.67017 0.0
H320 H 0.8769 0.19742 0.63726 0.0
H321 H 0.85576 0.19135 0.74911 0.0
Cu322 Cu 0.83988 0.68129 0.67622 0.0
N323 N 0.83353 0.66996 0.6526 0.0
N324 N 0.82232 0.66197 0.62266 0.0
C325 C 0.82199 0.66838 0.64019 0.0
C326 C 0.83442 0.65921 0.62421 0.0
C327 C 0.84126 0.66408 0.64277 0.0
O328 O 0.82428 0.68651 0.68483 0.0
C329 C 0.86589 0.7061 0.6558 0.0
O330 O 0.85607 0.70263 0.64072 0.0
H331 H 0.81424 0.6729 0.64331 0.0
H332 H 0.85173 0.66425 0.64826 0.0
N333 N 0.84148 0.66883 0.69615 0.0
N334 N 0.85109 0.66203 0.72237 0.0
C335 C 0.85381 0.67319 0.70848 0.0
C336 C 0.83054 0.65441 0.70233 0.0
C337 C 0.83644 0.65018 0.7186 0.0
C338 C 0.81955 0.69458 0.67507 0.0
O339 O 0.82629 0.70128 0.65807 0.0
H340 H 0.86435 0.68458 0.70771 0.0
H341 H 0.819 0.64763 0.69572 0.0
O342 O 0.86082 0.69917 0.67255 0.0
H343 H 0.83846 0.65469 0.61244 0.0
H344 H 0.8304 0.63929 0.72703 0.0
Cu345 Cu 0.83323 0.69191 0.16118 0.0
N346 N 0.83322 0.68301 0.13674 0.0
N347 N 0.84294 0.67998 0.1082 0.0
C348 C 0.84531 0.68935 0.12395 0.0
C349 C 0.82864 0.66725 0.11121 0.0
C350 C 0.82269 0.66915 0.12886 0.0
O351 O 0.85372 0.69817 0.1736 0.0
C352 C 0.81438 0.70314 0.14758 0.0
O353 O 0.80653 0.68823 0.14277 0.0
H354 H 0.85573 0.70058 0.12645 0.0
H355 H 0.81166 0.66085 0.13569 0.0
N356 N 0.81778 0.67748 0.17836 0.0
N357 N 0.80126 0.6694 0.20408 0.0
C358 C 0.81092 0.68164 0.19236 0.0
C359 C 0.81217 0.66198 0.18119 0.0
C360 C 0.80203 0.65698 0.19723 0.0
C361 C 0.85664 0.68691 0.17512 0.0
O362 O 0.84602 0.67305 0.16862 0.0
H363 H 0.81354 0.69361 0.1945 0.0
H364 H 0.81551 0.6549 0.17262 0.0
O365 O 0.82774 0.7083 0.15607 0.0
H366 H 0.82307 0.65704 0.10175 0.0
H367 H 0.79592 0.64524 0.20356 0.0
Cu368 Cu 0.37825 0.22595 0.19141 0.0
N369 N 0.38634 0.21377 0.18168 0.0
N370 N 0.38558 0.19208 0.1704 0.0
C371 C 0.37734 0.19832 0.17818 0.0
C372 C 0.40046 0.20416 0.16906 0.0
C373 C 0.40088 0.21757 0.17594 0.0
O374 O 0.36556 0.21371 0.2144 0.0
C375 C 0.35928 0.23565 0.1675 0.0
O376 O 0.35465 0.23888 0.18421 0.0
H377 H 0.36492 0.1918 0.1814 0.0
H378 H 0.41098 0.22926 0.17642 0.0
N379 N 0.39401 0.2457 0.20011 0.0
N380 N 0.40453 0.27038 0.21103 0.0
C381 C 0.39231 0.25842 0.20157 0.0
C382 C 0.40795 0.24981 0.20872 0.0
C383 C 0.41453 0.26508 0.21538 0.0
C384 C 0.36614 0.21954 0.23151 0.0
O385 O 0.37279 0.23483 0.23319 0.0
H386 H 0.38198 0.25868 0.19652 0.0
H387 H 0.41265 0.24202 0.21092 0.0
O388 O 0.36782 0.22929 0.16827 0.0
H389 H 0.41027 0.20346 0.16313 0.0
H390 H 0.42536 0.27144 0.22375 0.0
Cu391 Cu 0.84046 0.24197 0.18103 0.0
N392 N 0.82669 0.23949 0.16009 0.0
N393 N 0.81123 0.22809 0.13356 0.0
C394 C 0.82076 0.22723 0.14759 0.0
C395 C 0.81121 0.24154 0.13742 0.0
C396 C 0.82075 0.24854 0.15382 0.0
O397 O 0.83086 0.22163 0.19445 0.0
C398 C 0.86594 0.25792 0.15591 0.0
O399 O 0.85696 0.26323 0.14874 0.0
H400 H 0.82371 0.21801 0.14866 0.0
H401 H 0.82328 0.2595 0.16052 0.0
N402 N 0.8436 0.25771 0.19892 0.0
N403 N 0.85439 0.27399 0.22472 0.0
C404 C 0.85594 0.26462 0.2115 0.0
C405 C 0.83389 0.26297 0.20418 0.0
C406 C 0.84053 0.27303 0.22009 0.0
C407 C 0.82591 0.21933 0.21236 0.0
O408 O 0.82944 0.23141 0.22374 0.0
H409 H 0.86537 0.26196 0.21172 0.0
H410 H 0.82248 0.25917 0.1976 0.0
O411 O 0.86082 0.24782 0.17007 0.0
H412 H 0.80471 0.24599 0.12912 0.0
H413 H 0.83533 0.27881 0.22797 0.0
C414 C 0.01285 0.65576 0.30177 0.0
O415 O 0.00519 0.66224 0.30744 0.0
Cd416 Cd 0.00093 0.67989 0.2866 0.0
O417 O 0.0175 0.65739 0.28372 0.0
Cd418 Cd 0.01551 0.67024 0.25183 0.0
C419 C 0.03934 0.70541 0.27362 0.0
O420 O 0.98942 0.66786 0.25533 0.0
O421 O 0.00457 0.68441 0.23308 0.0
O422 O 0.00752 0.64574 0.23404 0.0
C423 C 0.99115 0.67732 0.24114 0.0
O424 O 0.02708 0.7028 0.28303 0.0
C425 C 0.01828 0.65156 0.221 0.0
O426 O 0.03893 0.69519 0.26171 0.0
O427 O 0.02802 0.66618 0.22231 0.0
C428 C 0.39867 0.45045 0.2293 0.0
O429 O 0.38473 0.4407 0.224 0.0
Cd430 Cd 0.3666 0.41951 0.24482 0.0
O431 O 0.40332 0.45018 0.24714 0.0
Cd432 Cd 0.39212 0.43563 0.27954 0.0
C433 C 0.38956 0.40319 0.25837 0.0
O434 O 0.36508 0.43032 0.27582 0.0
O435 O 0.36884 0.41715 0.29911 0.0
O436 O 0.40325 0.46083 0.2968 0.0
C437 C 0.35949 0.42065 0.29032 0.0
O438 O 0.37801 0.40249 0.24864 0.0
C439 C 0.41098 0.45789 0.30978 0.0
O440 O 0.39747 0.41442 0.27042 0.0
O441 O 0.41021 0.44462 0.3086 0.0
C442 C 0.62726 0.05265 0.21532 0.0
O443 O 0.63472 0.04602 0.2094 0.0
Cd444 Cd 0.65279 0.04145 0.22892 0.0
O445 O 0.62866 0.0573 0.23331 0.0
Cd446 Cd 0.64333 0.0575 0.26409 0.0
C447 C 0.67898 0.07942 0.24196 0.0
O448 O 0.64184 0.03194 0.26121 0.0
O449 O 0.6574 0.04748 0.28386 0.0
O450 O 0.6212 0.05084 0.28617 0.0
C451 C 0.65148 0.03429 0.27534 0.0
O452 O 0.67614 0.06714 0.23246 0.0
C453 C 0.6281 0.06341 0.29619 0.0
O454 O 0.66874 0.07943 0.25344 0.0
O455 O 0.64199 0.07338 0.291 0.0
C456 C 0.0463 0.40529 0.75827 0.0
O457 O 0.04532 0.40362 0.73943 0.0
Cd458 Cd 0.02912 0.40946 0.71796 0.0
O459 O 0.03793 0.40989 0.76718 0.0
Cd460 Cd 0.01788 0.41774 0.75727 0.0
C461 C 0.9915 0.38385 0.7328 0.0
O462 O 0.03325 0.43432 0.72901 0.0
O463 O 0.01038 0.43186 0.73228 0.0
O464 O 0.0275 0.43877 0.78211 0.0
C465 C 0.02347 0.43841 0.72333 0.0
O466 O 0.00186 0.38819 0.71926 0.0
C467 C 0.01544 0.43245 0.7931 0.0
O468 O 0.99442 0.39184 0.74875 0.0
O469 O 0.00438 0.41915 0.78764 0.0
C470 C 0.67174 0.66704 0.74855 0.0
O471 O 0.67049 0.66429 0.76724 0.0
Cd472 Cd 0.65058 0.66404 0.78751 0.0
O473 O 0.66121 0.66851 0.73902 0.0
Cd474 Cd 0.63523 0.66653 0.74648 0.0
C475 C 0.65538 0.70002 0.77288 0.0
O476 O 0.62568 0.64637 0.77304 0.0
O477 O 0.61428 0.66018 0.77094 0.0
O478 O 0.62363 0.65028 0.71681 0.0
C479 C 0.61489 0.64876 0.77907 0.0
O480 O 0.65662 0.6914 0.78638 0.0
C481 C 0.61826 0.65855 0.70911 0.0
O482 O 0.64869 0.6942 0.75624 0.0
O483 O 0.6209 0.67071 0.71867 0.0
C484 C 0.3846 0.06326 0.77463 0.0
O485 O 0.38318 0.06144 0.79348 0.0
Cd486 Cd 0.38776 0.04305 0.81171 0.0
O487 O 0.38818 0.05475 0.76422 0.0
Cd488 Cd 0.39465 0.03341 0.76804 0.0
C489 C 0.36018 0.00798 0.79057 0.0
O490 O 0.41112 0.0469 0.79627 0.0
O491 O 0.41023 0.02523 0.78921 0.0
O492 O 0.40996 0.04743 0.73892 0.0
C493 C 0.41581 0.0373 0.80008 0.0
O494 O 0.36528 0.01726 0.80536 0.0
C495 C 0.40895 0.03557 0.73029 0.0
O496 O 0.36809 0.01123 0.7745 0.0
O497 O 0.40086 0.02236 0.73898 0.0
C498 C 0.67211 0.97441 0.63766 0.0
O499 O 0.66324 0.98001 0.64124 0.0
Cd500 Cd 0.65847 0.99667 0.6195 0.0
O501 O 0.67877 0.97678 0.62062 0.0
Cd502 Cd 0.67795 0.98995 0.58747 0.0
C503 C 0.69608 0.02651 0.60879 0.0
O504 O 0.65027 0.98357 0.58831 0.0
O505 O 0.66474 1.00099 0.56656 0.0
O506 O 0.67382 0.96706 0.56778 0.0
C507 C 0.65116 0.99236 0.57372 0.0
O508 O 0.68296 0.02177 0.61736 0.0
C509 C 0.6852 0.97457 0.55588 0.0
O510 O 0.6981 0.01728 0.59753 0.0
O511 O 0.69375 0.98918 0.55911 0.0
C512 C 0.06376 0.78601 0.53875 0.0
O513 O 0.04944 0.77679 0.53441 0.0
Cd514 Cd 0.02979 0.75843 0.55667 0.0
O515 O 0.06883 0.78609 0.55647 0.0
Cd516 Cd 0.05708 0.77177 0.5892 0.0
C517 C 0.04548 0.73521 0.57037 0.0
O518 O 0.0323 0.77226 0.5867 0.0
O519 O 0.03373 0.75806 0.61054 0.0
O520 O 0.07327 0.79686 0.60632 0.0
C521 C 0.02611 0.76383 0.60211 0.0
O522 O 0.03471 0.73666 0.56159 0.0
C523 C 0.07845 0.79153 0.61999 0.0
O524 O 0.05606 0.74653 0.58054 0.0
O525 O 0.07438 0.77709 0.61889 0.0
C526 C 0.28267 0.36469 0.55597 0.0
O527 O 0.291 0.35901 0.55003 0.0
Cd528 Cd 0.31066 0.35797 0.57058 0.0
O529 O 0.28345 0.36887 0.57405 0.0
Cd530 Cd 0.29624 0.36904 0.60612 0.0
C531 C 0.33033 0.39673 0.58634 0.0
O532 O 0.30005 0.34647 0.60227 0.0
O533 O 0.31289 0.36258 0.62607 0.0
O534 O 0.2706 0.35595 0.62134 0.0
C535 C 0.30963 0.35015 0.61682 0.0
O536 O 0.32957 0.38552 0.57616 0.0
C537 C 0.27386 0.36596 0.635 0.0
O538 O 0.31934 0.39447 0.59823 0.0
O539 O 0.28766 0.37776 0.6351 0.0
C540 C 0.71935 0.76891 0.08887 0.0
O541 O 0.71861 0.76943 0.06993 0.0
Cd542 Cd 0.7001 0.77365 0.05127 0.0
O543 O 0.71007 0.77131 0.09956 0.0
Cd544 Cd 0.68852 0.77818 0.09399 0.0
C545 C 0.66535 0.74331 0.06987 0.0
O546 O 0.70028 0.79598 0.06495 0.0
O547 O 0.67644 0.78954 0.07101 0.0
O548 O 0.70035 0.79664 0.12194 0.0
C549 C 0.68854 0.79743 0.06037 0.0
O550 O 0.6749 0.7497 0.05546 0.0
C551 C 0.6879 0.79189 0.132 0.0
O552 O 0.66769 0.7505 0.08644 0.0
O553 O 0.6755 0.78061 0.12455 0.0
C554 C 0.3298 0.98709 0.12033 0.0
O555 O 0.32829 0.9869 0.13916 0.0
Cd556 Cd 0.30943 0.99101 0.15598 0.0
O557 O 0.3203 0.9888 0.10875 0.0
Cd558 Cd 0.29604 0.99146 0.11224 0.0
C559 C 0.31786 0.02678 0.13536 0.0
O560 O 0.2846 0.97373 0.14113 0.0
O561 O 0.27395 0.98766 0.13387 0.0
O562 O 0.28383 0.97333 0.08403 0.0
C563 C 0.27397 0.97701 0.14479 0.0
O564 O 0.3179 0.01873 0.15045 0.0
C565 C 0.2801 0.98205 0.07398 0.0
O566 O 0.31135 0.02004 0.11899 0.0
O567 O 0.28396 0.9953 0.08149 0.0
C568 C 0.06391 0.41461 0.0919 0.0
O569 O 0.06296 0.41409 0.11085 0.0
Cd570 Cd 0.06243 0.39427 0.1322 0.0
O571 O 0.0639 0.40346 0.08234 0.0
Cd572 Cd 0.06262 0.37801 0.09126 0.0
C573 C 0.02839 0.36213 0.11732 0.0
O574 O 0.08201 0.39035 0.1171 0.0
O575 O 0.07277 0.36549 0.11533 0.0
O576 O 0.07804 0.38136 0.06133 0.0
C577 C 0.08253 0.37842 0.1232 0.0
O578 O 0.03598 0.37163 0.1313 0.0
C579 C 0.06959 0.36732 0.05545 0.0
O580 O 0.03504 0.36274 0.10088 0.0
O581 O 0.05767 0.35844 0.06593 0.0
C582 C 0.3499 0.31681 0.9908 0.0
O583 O 0.34336 0.32481 0.99458 0.0
Cd584 Cd 0.33907 0.34153 0.9725 0.0
O585 O 0.35506 0.3171 0.97319 0.0
Cd586 Cd 0.35541 0.33087 0.93995 0.0
C587 C 0.37711 0.36806 0.95936 0.0
O588 O 0.32869 0.32689 0.94275 0.0
O589 O 0.34235 0.34226 0.91885 0.0
O590 O 0.35063 0.30716 0.92122 0.0
C591 C 0.32927 0.33512 0.92771 0.0
O592 O 0.36444 0.36509 0.96795 0.0
C593 C 0.36092 0.31446 0.90789 0.0
O594 O 0.37772 0.35751 0.9491 0.0
O595 O 0.36915 0.32925 0.90991 0.0
C596 C 0.72321 0.10681 0.89588 0.0
O597 O 0.7093 0.09661 0.89108 0.0
Cd598 Cd 0.69192 0.07667 0.91451 0.0
O599 O 0.72789 0.10749 0.91387 0.0
Cd600 Cd 0.71715 0.09396 0.94647 0.0
C601 C 0.71563 0.06172 0.9275 0.0
O602 O 0.6892 0.08697 0.94559 0.0
O603 O 0.69568 0.07442 0.9669 0.0
O604 O 0.72811 0.11975 0.96172 0.0
C605 C 0.6853 0.07742 0.96032 0.0
O606 O 0.70279 0.05933 0.91959 0.0
C607 C 0.73572 0.11733 0.97542 0.0
O608 O 0.72438 0.07429 0.93706 0.0
O609 O 0.735 0.10404 0.97551 0.0
C610 C 0.96063 0.68667 0.87999 0.0
O611 O 0.97036 0.68199 0.87714 0.0
Cd612 Cd 0.99045 0.68516 0.90019 0.0
O613 O 0.96079 0.69332 0.89628 0.0
Cd614 Cd 0.97497 0.70056 0.92894 0.0
C615 C 0.00951 0.7255 0.90676 0.0
O616 O 0.97834 0.67795 0.93193 0.0
O617 O 0.99153 0.6962 0.95314 0.0
O618 O 0.94915 0.69002 0.94358 0.0
C619 C 0.98782 0.68276 0.94656 0.0
O620 O 0.00926 0.71315 0.90067 0.0
C621 C 0.95264 0.70146 0.95506 0.0
O622 O 0.99797 0.72463 0.91636 0.0
O623 O 0.96663 0.7129 0.95419 0.0
C624 C 0.39596 0.10662 0.43847 0.0
O625 O 0.39527 0.10817 0.41966 0.0
Cd626 Cd 0.37765 0.11432 0.40212 0.0
O627 O 0.38749 0.10956 0.45002 0.0
Cd628 Cd 0.36779 0.11908 0.44596 0.0
C629 C 0.34342 0.08462 0.42225 0.0
O630 O 0.37897 0.13683 0.41674 0.0
O631 O 0.3552 0.1302 0.42368 0.0
O632 O 0.37989 0.13772 0.47382 0.0
C633 C 0.36712 0.13827 0.41279 0.0
O634 O 0.35213 0.0909 0.40707 0.0
C635 C 0.36745 0.13286 0.48398 0.0
O636 O 0.34675 0.09174 0.43895 0.0
O637 O 0.35512 0.12135 0.47676 0.0
C638 C 0.00539 0.34452 0.44151 0.0
O639 O 0.00563 0.34558 0.46044 0.0
Cd640 Cd 0.98543 0.34438 0.48106 0.0
O641 O 0.99361 0.34296 0.43132 0.0
Cd642 Cd 0.96714 0.34026 0.43875 0.0
C643 C 0.98158 0.37539 0.46383 0.0
O644 O 0.96307 0.32253 0.46661 0.0
O645 O 0.94367 0.32627 0.46107 0.0
O646 O 0.95681 0.32382 0.40872 0.0
C647 C 0.94945 0.31943 0.47136 0.0
O648 O 0.98585 0.36941 0.47784 0.0
C649 C 0.9503 0.33113 0.4013 0.0
O650 O 0.97515 0.36763 0.44803 0.0
O651 O 0.95179 0.34275 0.41112 0.0
C652 C 0.74985 0.74936 0.43246 0.0
O653 O 0.74895 0.74731 0.45129 0.0
Cd654 Cd 0.74439 0.72364 0.46803 0.0
O655 O 0.74836 0.73845 0.42099 0.0
Cd656 Cd 0.74371 0.7112 0.42472 0.0
C657 C 0.70889 0.6965 0.44859 0.0
O658 O 0.76094 0.71508 0.45338 0.0
O659 O 0.74506 0.69109 0.44504 0.0
O660 O 0.76179 0.71404 0.39821 0.0
C661 C 0.75636 0.70061 0.45593 0.0
O662 O 0.71673 0.70403 0.46388 0.0
C663 C 0.75139 0.7038 0.38688 0.0
O664 O 0.7157 0.69786 0.43201 0.0
O665 O 0.73733 0.69721 0.39296 0.0
H666 H 0.06731 0.53305 0.99817 0.0
H667 H 0.07474 0.51291 0.00293 0.0
H668 H 0.07626 0.51915 0.06674 0.0
H669 H 0.06924 0.53954 0.06213 0.0
H670 H 0.09844 0.51143 0.05331 0.0
H671 H 0.03866 0.47112 0.02305 0.0
H672 H 0.05179 0.48672 0.00668 0.0
H673 H 0.04505 0.49124 0.0291 0.0
C674 C 0.06969 0.53047 0.01318 0.0
C675 C 0.06734 0.53763 0.02982 0.0
C676 C 0.07385 0.5189 0.01587 0.0
C677 C 0.07554 0.51421 0.03521 0.0
C678 C 0.07484 0.5225 0.05168 0.0
H679 H 0.06686 0.44113 0.10834 0.0
H680 H 0.07188 0.46523 0.09135 0.0
C681 C 0.07084 0.53418 0.04902 0.0
C682 C 0.07592 0.4995 0.03865 0.0
H683 H 0.05249 0.45965 0.0369 0.0
C684 C 0.08853 0.50011 0.04942 0.0
C685 C 0.06293 0.48473 0.03355 0.0
C686 C 0.04877 0.4833 0.02259 0.0
C687 C 0.08821 0.48632 0.05596 0.0
C688 C 0.07486 0.47162 0.0518 0.0
C689 C 0.06269 0.47097 0.04001 0.0
C690 C 0.07235 0.45701 0.06171 0.0
C691 C 0.10194 0.4876 0.0678 0.0
C692 C 0.07042 0.44419 0.05057 0.0
C693 C 0.06746 0.43024 0.06026 0.0
C694 C 0.06618 0.42889 0.08122 0.0
C695 C 0.0678 0.44172 0.0922 0.0
C696 C 0.07085 0.4556 0.08254 0.0
H697 H 0.11287 0.49877 0.06442 0.0
H698 H 0.09952 0.48739 0.08399 0.0
H699 H 0.10385 0.47762 0.06467 0.0
H700 H 0.07131 0.44501 0.03442 0.0
H701 H 0.06626 0.42058 0.05137 0.0
H702 H 0.53911 0.60761 0.03433 0.0
H703 H 0.55744 0.63441 0.04522 0.0
H704 H 0.59639 0.6274 0.03286 0.0
H705 H 0.57821 0.60061 0.02223 0.0
H706 H 0.59941 0.64167 0.06939 0.0
H707 H 0.58489 0.67193 0.0091 0.0
H708 H 0.5685 0.65795 0.02368 0.0
H709 H 0.57878 0.65133 0.00817 0.0
C710 C 0.55158 0.61178 0.03386 0.0
C711 C 0.55716 0.60193 0.02728 0.0
C712 C 0.56206 0.62715 0.04003 0.0
C713 C 0.57834 0.63304 0.03966 0.0
C714 C 0.5839 0.62317 0.03327 0.0
H715 H 0.65704 0.72589 0.0359 0.0
H716 H 0.63521 0.69952 0.03064 0.0
C717 C 0.57346 0.60783 0.02713 0.0
C718 C 0.58967 0.64943 0.04586 0.0
H719 H 0.60331 0.68795 0.03337 0.0
C720 C 0.6002 0.6518 0.06161 0.0
C721 C 0.59078 0.66266 0.03563 0.0
C722 C 0.58025 0.66093 0.0181 0.0
C723 C 0.61192 0.66698 0.06718 0.0
C724 C 0.61306 0.6802 0.0569 0.0
C725 C 0.60236 0.67783 0.04138 0.0
C726 C 0.62615 0.69647 0.06064 0.0
C727 C 0.6234 0.6687 0.08348 0.0
C728 C 0.62833 0.70374 0.0793 0.0
C729 C 0.64096 0.71899 0.08244 0.0
C730 C 0.65161 0.72726 0.06695 0.0
C731 C 0.64918 0.71996 0.04826 0.0
C732 C 0.63663 0.70482 0.04516 0.0
H733 H 0.62284 0.65737 0.08716 0.0
H734 H 0.63558 0.67737 0.07901 0.0
H735 H 0.62066 0.67302 0.09721 0.0
H736 H 0.62026 0.69764 0.0914 0.0
H737 H 0.64241 0.72424 0.09698 0.0
H738 H 0.44758 0.00984 0.02332 0.0
H739 H 0.42245 1.00144 0.03902 0.0
H740 H 0.4377 0.98674 0.09163 0.0
H741 H 0.4633 0.99537 0.07585 0.0
H742 H 0.3992 0.97247 0.05496 0.0
H743 H 0.42606 0.01902 0.1126 0.0
H744 H 0.43663 0.01912 0.09071 0.0
H745 H 0.43356 0.00573 0.11098 0.0
C746 C 0.44563 0.00471 0.0382 0.0
C747 C 0.45754 0.00345 0.04845 0.0
C748 C 0.43118 0.99985 0.04712 0.0
C749 C 0.42824 0.99367 0.0666 0.0
C750 C 0.43981 0.99169 0.07666 0.0
H751 H 0.3499 0.98022 0.14074 0.0
H752 H 0.37281 0.97982 0.12808 0.0
C753 C 0.45437 0.99651 0.06761 0.0
C754 C 0.41334 0.99024 0.07633 0.0
H755 H 0.39863 0.00396 0.11177 0.0
C756 C 0.39905 0.97921 0.06755 0.0
C757 C 0.41315 0.99912 0.09267 0.0
C758 C 0.42813 0.0115 0.10228 0.0
C759 C 0.38462 0.97696 0.07447 0.0
C760 C 0.38448 0.98622 0.09036 0.0
C761 C 0.39873 0.9969 0.09954 0.0
C762 C 0.36977 0.98532 0.09751 0.0
C763 C 0.36969 0.96466 0.06471 0.0
C764 C 0.36031 0.9885 0.08454 0.0
C765 C 0.34706 0.98868 0.09173 0.0
C766 C 0.34313 0.98586 0.1121 0.0
C767 C 0.35255 0.98249 0.12496 0.0
C768 C 0.3657 0.98225 0.11776 0.0
H769 H 0.37138 0.95557 0.05733 0.0
H770 H 0.36009 0.95881 0.07576 0.0
H771 H 0.366 0.97033 0.05306 0.0
H772 H 0.36339 0.99127 0.06894 0.0
H773 H 0.34016 0.99142 0.08143 0.0
H774 H 0.49117 0.05691 0.45458 0.0
H775 H 0.47086 0.064 0.44945 0.0
H776 H 0.45705 0.05264 0.51108 0.0
H777 H 0.47749 0.04559 0.51643 0.0
H778 H 0.43781 0.04735 0.45531 0.0
H779 H 0.46808 0.09899 0.50525 0.0
H780 H 0.47764 0.08873 0.49613 0.0
H781 H 0.46351 0.08027 0.51584 0.0
C782 C 0.48368 0.05567 0.46701 0.0
C783 C 0.48606 0.05075 0.48595 0.0
C784 C 0.47206 0.05976 0.46405 0.0
C785 C 0.46262 0.05916 0.47996 0.0
C786 C 0.46438 0.05348 0.49866 0.0
H787 H 0.39788 0.09734 0.47715 0.0
H788 H 0.41287 0.08487 0.489 0.0
C789 C 0.47598 0.04929 0.50163 0.0
C790 C 0.45145 0.0651 0.47693 0.0
H791 H 0.44529 0.09535 0.48871 0.0
C792 C 0.43936 0.05776 0.46276 0.0
C793 C 0.4534 0.07865 0.48672 0.0
C794 C 0.4664 0.08724 0.50175 0.0
C795 C 0.42941 0.06376 0.45781 0.0
C796 C 0.4318 0.07771 0.46693 0.0
C797 C 0.44349 0.0847 0.48168 0.0
C798 C 0.42308 0.08577 0.46022 0.0
C799 C 0.41644 0.05511 0.44276 0.0
C800 C 0.42421 0.09088 0.4403 0.0
C801 C 0.41575 0.098 0.43353 0.0
C802 C 0.40596 0.10033 0.44653 0.0
C803 C 0.40526 0.09573 0.46671 0.0
C804 C 0.41379 0.08856 0.4735 0.0
H805 H 0.41302 0.04251 0.44207 0.0
H806 H 0.4059 0.05595 0.44637 0.0
H807 H 0.42059 0.06036 0.42771 0.0
H808 H 0.43162 0.08927 0.42988 0.0
H809 H 0.41674 0.1015 0.41794 0.0
H810 H 0.00132 0.51531 0.50436 0.0
H811 H 0.9878 0.48716 0.49628 0.0
H812 H 0.03117 0.49245 0.47414 0.0
H813 H 0.04444 0.5202 0.48148 0.0
H814 H 0.00739 0.47436 0.44989 0.0
H815 H 0.99149 0.45394 0.5286 0.0
H816 H 0.9839 0.46593 0.5187 0.0
H817 H 0.00467 0.47424 0.5222 0.0
C818 C 0.00789 0.51045 0.49761 0.0
C819 C 0.02399 0.52004 0.49372 0.0
C820 C 1.00019 0.49434 0.49314 0.0
C821 C 0.00852 0.48759 0.48487 0.0
C822 C 0.02445 0.4973 0.48051 0.0
H823 H 1.00028 0.39735 0.49117 0.0
H824 H 0.00469 0.42387 0.49511 0.0
C825 C 0.03206 0.51325 0.48483 0.0
C826 C 0.00115 0.47043 0.48101 0.0
H827 H 0.9857 0.43469 0.50452 0.0
C828 C 0.00246 0.46564 0.46179 0.0
C829 C 0.99487 0.45906 0.49657 0.0
C830 C 0.99372 0.46349 0.51773 0.0
C831 C 0.99838 0.45004 0.45788 0.0
C832 C 0.99229 0.4387 0.4735 0.0
C833 C 0.99034 0.44335 0.49253 0.0
C834 C 0.98915 0.42232 0.47095 0.0
C835 C 0.0015 0.44611 0.43733 0.0
C836 C 0.97886 0.41245 0.4561 0.0
C837 C 0.97649 0.39728 0.45358 0.0
C838 C 0.98414 0.39154 0.46613 0.0
C839 C 0.99418 0.40134 0.48122 0.0
C840 C 0.99669 0.41654 0.48355 0.0
H841 H 0.00976 0.4568 0.42875 0.0
H842 H 0.00647 0.43816 0.4383 0.0
H843 H 0.99033 0.4401 0.4288 0.0
H844 H 0.97258 0.41644 0.44649 0.0
H845 H 0.96854 0.38998 0.44196 0.0
H846 H 0.57215 0.5718 0.46159 0.0
H847 H 0.5978 0.59345 0.45143 0.0
H848 H 0.59948 0.619 0.50413 0.0
H849 H 0.57379 0.5975 0.51417 0.0
H850 H 0.60722 0.63725 0.47051 0.0
H851 H 0.64057 0.60541 0.47414 0.0
H852 H 0.62354 0.5964 0.45829 0.0
H853 H 0.62129 0.5975 0.48476 0.0
C854 C 0.57812 0.58193 0.47114 0.0
C855 C 0.571 0.58296 0.48869 0.0
C856 C 0.59276 0.59429 0.46533 0.0
C857 C 0.60063 0.60776 0.47715 0.0
C858 C 0.5936 0.60872 0.49478 0.0
H859 H 0.68989 0.69258 0.48022 0.0
H860 H 0.66284 0.6716 0.48526 0.0
C861 C 0.57893 0.59645 0.50049 0.0
C862 C 0.616 0.62108 0.47098 0.0
H863 H 0.65385 0.63127 0.46083 0.0
C864 C 0.61742 0.63595 0.46839 0.0
C865 C 0.62928 0.61934 0.4682 0.0
C866 C 0.62869 0.60384 0.47166 0.0
C867 C 0.63177 0.64913 0.46315 0.0
C868 C 0.64503 0.64738 0.46053 0.0
C869 C 0.64359 0.6325 0.46276 0.0
C870 C 0.66074 0.66095 0.4565 0.0
C871 C 0.63268 0.66482 0.4604 0.0
C872 C 0.66843 0.66194 0.43859 0.0
C873 C 0.68388 0.67395 0.4356 0.0
C874 C 0.69196 0.68503 0.45064 0.0
C875 C 0.68402 0.68424 0.46834 0.0
C876 C 0.66854 0.6723 0.47123 0.0
H877 H 0.62088 0.66355 0.45841 0.0
H878 H 0.63822 0.67206 0.47383 0.0
H879 H 0.64 0.67122 0.44726 0.0
H880 H 0.66259 0.65322 0.4271 0.0
H881 H 0.68966 0.67418 0.42183 0.0
H882 H 0.05079 0.59526 0.98614 0.0
H883 H 0.05284 0.62089 0.97911 0.0
H884 H 0.00377 0.60109 0.99258 0.0
H885 H 0.00158 0.57579 0.99952 0.0
H886 H 0.03485 0.62771 0.9504 0.0
H887 H 0.02567 0.64088 0.02731 0.0
H888 H 0.0321 0.62702 0.02191 0.0
H889 H 0.01158 0.62109 0.02072 0.0
C890 C 0.04048 0.59643 0.98759 0.0
C891 C 0.02604 0.58352 0.99344 0.0
C892 C 0.04169 0.61105 0.98365 0.0
C893 C 0.02854 0.6129 0.98582 0.0
C894 C 0.01414 0.59997 0.99134 0.0
H895 H 0.98251 0.65431 0.93418 0.0
H896 H 0.99693 0.64098 0.94363 0.0
C897 C 0.0129 0.58546 0.99512 0.0
C898 C 0.02917 0.62795 0.98133 0.0
H899 H 0.01643 0.65146 1.00057 0.0
C900 C 0.0313 0.63327 0.96145 0.0
C901 C 0.0249 0.63541 0.99585 0.0
C902 C 0.0236 0.6309 0.01769 0.0
C903 C 0.0276 0.64475 0.95533 0.0
C904 C 0.02135 0.65072 0.96942 0.0
C905 C 0.0209 0.64664 0.98968 0.0
C906 C 0.01331 0.65941 0.96315 0.0
C907 C 0.02975 0.64985 0.93367 0.0
C908 C 0.01731 0.67391 0.97164 0.0
C909 C 0.00889 0.68146 0.9665 0.0
C910 C 0.9963 0.67457 0.95287 0.0
C911 C 0.99221 0.65996 0.94463 0.0
C912 C 0.00058 0.65242 0.94981 0.0
H913 H 0.03968 0.64916 0.92701 0.0
H914 H 0.01899 0.64184 0.92515 0.0
H915 H 0.03194 0.66203 0.93187 0.0
H916 H 0.02694 0.67936 0.98221 0.0
H917 H 0.01231 0.69273 0.97308 0.0
H918 H 0.47214 0.51001 0.00754 0.0
H919 H 0.4521 0.48311 0.99937 0.0
H920 H 0.48651 0.47687 0.96786 0.0
H921 H 0.50667 0.50367 0.97618 0.0
H922 H 0.44164 0.46966 0.96214 0.0
H923 H 0.46688 0.43834 0.00452 0.0
H924 H 0.47338 0.45885 0.00824 0.0
H925 H 0.47998 0.45284 0.98696 0.0
C926 C 0.47549 0.50291 0.99895 0.0
C927 C 0.49107 0.50903 0.99261 0.0
C928 C 0.464 0.48751 0.99427 0.0
C929 C 0.4678 0.47783 0.98324 0.0
C930 C 0.48332 0.48395 0.97676 0.0
H931 H 0.40714 0.37971 0.94466 0.0
H932 H 0.42971 0.40631 0.94882 0.0
C933 C 0.49483 0.49934 0.98144 0.0
C934 C 0.45541 0.46153 0.97812 0.0
H935 H 0.44442 0.42278 0.9847 0.0
C936 C 0.44228 0.45942 0.96707 0.0
C937 C 0.45626 0.44813 0.98438 0.0
C938 C 0.4698 0.44957 0.99682 0.0
C939 C 0.42998 0.44436 0.96224 0.0
C940 C 0.43063 0.43096 0.96892 0.0
C941 C 0.44392 0.43304 0.97955 0.0
C942 C 0.41711 0.41476 0.96626 0.0
C943 C 0.41638 0.44295 0.94994 0.0
C944 C 0.40263 0.41056 0.97495 0.0
C945 C 0.38981 0.39547 0.97264 0.0
C946 C 0.39109 0.38405 0.96164 0.0
C947 C 0.40569 0.38818 0.95314 0.0
C948 C 0.4186 0.40338 0.95552 0.0
H949 H 0.41973 0.45381 0.94106 0.0
H950 H 0.41188 0.43287 0.93958 0.0
H951 H 0.40672 0.44102 0.96007 0.0
H952 H 0.40125 0.41898 0.98367 0.0
H953 H 0.37884 0.39278 0.97955 0.0
H954 H 0.5402 0.00947 0.98513 0.0
H955 H 0.56732 0.01588 0.98066 0.0
H956 H 0.57695 0.02865 0.04276 0.0
H957 H 0.54958 0.02213 0.04724 0.0
H958 H 0.59582 0.05267 0.01684 0.0
H959 H 0.59611 0.99874 0.99548 0.0
H960 H 0.58193 1.00136 0.98141 0.0
H961 H 0.57973 0.99825 0.00804 0.0
C962 C 0.5479 0.01288 0.99806 0.0
C963 C 0.54276 0.01505 0.01659 0.0
C964 C 0.56344 0.01659 0.99549 0.0
C965 C 0.5742 0.02265 0.01139 0.0
C966 C 0.56882 0.02384 0.03032 0.0
H967 H 0.67364 0.05502 0.98984 0.0
H968 H 0.64723 0.04178 0.00392 0.0
C969 C 0.55315 0.01995 0.03295 0.0
C970 C 0.59125 0.02995 0.00722 0.0
H971 H 0.61827 0.02327 0.98455 0.0
C972 C 0.60079 0.04618 0.01012 0.0
C973 C 0.5978 0.02151 0.99847 0.0
C974 C 0.58839 0.00397 0.99585 0.0
C975 C 0.61645 0.05429 0.00367 0.0
C976 C 0.62269 0.04601 0.99382 0.0
C977 C 0.61341 0.02967 0.99181 0.0
C978 C 0.63875 0.05416 0.98525 0.0
C979 C 0.62612 0.07171 0.00729 0.0
C980 C 0.64273 0.06541 0.96988 0.0
C981 C 0.65784 0.073 0.96175 0.0
C982 C 0.66925 0.06946 0.9688 0.0
C983 C 0.66516 0.05809 0.9841 0.0
C984 C 0.65006 0.05047 0.99216 0.0
H985 H 0.62118 0.07543 0.0195 0.0
H986 H 0.63843 0.07515 0.01117 0.0
H987 H 0.62624 0.07816 0.99347 0.0
H988 H 0.63411 0.06824 0.96406 0.0
H989 H 0.66057 0.08163 0.94993 0.0
H990 H 0.54008 0.00838 0.49094 0.0
H991 H 0.55909 1.00053 0.50154 0.0
H992 H 0.55779 0.01493 0.56169 0.0
H993 H 0.53899 0.02301 0.5512 0.0
H994 H 0.58755 0.02801 0.54769 0.0
H995 H 0.5562 0.96392 0.53422 0.0
H996 H 0.55648 0.97538 0.5129 0.0
H997 H 0.54623 0.97511 0.53509 0.0
C998 C 0.54354 0.00954 0.50653 0.0
C999 C 0.53799 0.01637 0.52019 0.0
C1000 C 0.55441 0.005 0.51259 0.0
C1001 C 0.55984 0.00704 0.53247 0.0
C1002 C 0.5538 0.01323 0.54628 0.0
H1003 H 0.62115 0.97664 0.58813 0.0
H1004 H 0.59893 0.97992 0.57793 0.0
C1005 C 0.54299 0.01781 0.54025 0.0
C1006 C 0.57277 0.00407 0.53851 0.0
H1007 H 0.58367 0.97603 0.54078 0.0
C1008 C 0.58665 0.01662 0.54625 0.0
C1009 C 0.5716 0.98918 0.5368 0.0
C1010 C 0.55678 0.97508 0.52948 0.0
C1011 C 0.59941 0.01477 0.55205 0.0
C1012 C 0.59844 1.00002 0.54974 0.0
C1013 C 0.58448 0.98738 0.54233 0.0
C1014 C 0.61176 0.99752 0.55523 0.0
C1015 C 0.61375 0.02859 0.5609 0.0
C1016 C 0.62629 0.00609 0.5456 0.0
C1017 C 0.63902 0.00426 0.55143 0.0
C1018 C 0.63747 0.99376 0.56694 0.0
C1019 C 0.62277 0.98488 0.57619 0.0
C1020 C 0.61005 0.98671 0.57035 0.0
H1021 H 0.61112 0.03763 0.5664 0.0
H1022 H 0.61861 0.02481 0.57348 0.0
H1023 H 0.62291 0.03414 0.54924 0.0
H1024 H 0.62782 0.01427 0.53364 0.0
H1025 H 0.65012 0.0112 0.54388 0.0
H1026 H 0.06644 0.61619 0.55712 0.0
H1027 H 0.06492 0.63943 0.5653 0.0
H1028 H 0.02026 0.62014 0.535 0.0
H1029 H 0.0216 0.5965 0.52698 0.0
H1030 H 0.0644 0.66005 0.53848 0.0
H1031 H 0.01162 0.63598 0.58644 0.0
H1032 H 0.02119 0.62494 0.58065 0.0
H1033 H 0.00836 0.62659 0.56265 0.0
C1034 C 0.05614 0.61672 0.55243 0.0
C1035 C 0.04413 0.60446 0.54135 0.0
C1036 C 0.05531 0.63008 0.55711 0.0
C1037 C 0.04247 0.63159 0.55087 0.0
C1038 C 0.03018 0.61917 0.54031 0.0
H1039 H 0.02355 0.70866 0.55157 0.0
H1040 H 0.02324 0.68392 0.54761 0.0
C1041 C 0.03095 0.60566 0.53569 0.0
C1042 C 0.04266 0.64665 0.55434 0.0
H1043 H 0.02284 0.66271 0.57639 0.0
C1044 C 0.05534 0.66062 0.54687 0.0
C1045 C 0.03086 0.64744 0.56527 0.0
C1046 C 0.0173 0.63297 0.57439 0.0
C1047 C 0.05643 0.67528 0.54975 0.0
C1048 C 0.04464 0.67608 0.56066 0.0
C1049 C 0.03193 0.66211 0.56811 0.0
C1050 C 0.04493 0.69121 0.56374 0.0
C1051 C 0.07001 0.68974 0.54061 0.0
C1052 C 0.05718 0.70359 0.57436 0.0
C1053 C 0.05743 0.7179 0.57668 0.0
C1054 C 0.04541 0.72008 0.56844 0.0
C1055 C 0.03308 0.70752 0.55807 0.0
C1056 C 0.03282 0.69328 0.55582 0.0
H1057 H 0.076 0.68674 0.52897 0.0
H1058 H 0.06601 0.69753 0.53381 0.0
H1059 H 0.07872 0.6964 0.55247 0.0
H1060 H 0.06653 0.70218 0.58089 0.0
H1061 H 0.06705 0.72724 0.58484 0.0
H1062 H 0.45454 0.51524 0.53208 0.0
H1063 H 0.42836 0.4971 0.54466 0.0
H1064 H 0.44867 0.48813 0.59725 0.0
H1065 H 0.47498 0.50605 0.58436 0.0
H1066 H 0.42821 0.46189 0.58106 0.0
H1067 H 0.40047 0.49851 0.58634 0.0
H1068 H 0.40846 0.5003 0.5619 0.0
H1069 H 0.42137 0.50691 0.58334 0.0
C1070 C 0.45341 0.50966 0.54652 0.0
C1071 C 0.46677 0.51203 0.55725 0.0
C1072 C 0.43843 0.49938 0.55379 0.0
C1073 C 0.43651 0.49149 0.57212 0.0
C1074 C 0.44986 0.49418 0.58314 0.0
H1075 H 0.34128 0.42131 0.61259 0.0
H1076 H 0.36701 0.44546 0.61177 0.0
C1077 C 0.46487 0.50432 0.57573 0.0
C1078 C 0.42069 0.47903 0.57842 0.0
H1079 H 0.38261 0.47043 0.58224 0.0
C1080 C 0.41833 0.46387 0.58174 0.0
C1081 C 0.40777 0.48158 0.57962 0.0
C1082 C 0.40969 0.49776 0.57783 0.0
C1083 C 0.40331 0.45106 0.58493 0.0
C1084 C 0.39025 0.4534 0.58429 0.0
C1085 C 0.39264 0.46866 0.58233 0.0
C1086 C 0.3741 0.43991 0.58401 0.0
C1087 C 0.40151 0.43504 0.58842 0.0
C1088 C 0.36943 0.42923 0.56828 0.0
C1089 C 0.35491 0.41551 0.56874 0.0
C1090 C 0.34468 0.41228 0.58485 0.0
C1091 C 0.34895 0.42348 0.60001 0.0
C1092 C 0.36361 0.43723 0.59959 0.0
H1093 H 0.41247 0.4359 0.5945 0.0
H1094 H 0.39179 0.42792 0.59894 0.0
H1095 H 0.39882 0.42876 0.57399 0.0
H1096 H 0.37724 0.43129 0.55589 0.0
H1097 H 0.35188 0.40725 0.55666 0.0
H1098 H 0.77159 0.88218 0.35561 0.0
H1099 H 0.77508 0.85994 0.36539 0.0
H1100 H 0.72969 0.83734 0.39346 0.0
H1101 H 0.72615 0.85941 0.3838 0.0
H1102 H 0.77492 0.84682 0.40276 0.0
H1103 H 0.72643 0.80388 0.35517 0.0
H1104 H 0.73453 0.82481 0.35233 0.0
H1105 H 0.72033 0.81411 0.37149 0.0
C1106 C 0.76243 0.87253 0.36401 0.0
C1107 C 0.7485 0.87246 0.3687 0.0
C1108 C 0.7644 0.85981 0.3695 0.0
C1109 C 0.75248 0.84684 0.37973 0.0
C1110 C 0.73884 0.84703 0.38506 0.0
H1111 H 0.75143 0.77418 0.45239 0.0
H1112 H 0.75401 0.79834 0.4382 0.0
C1113 C 0.73684 0.85966 0.37954 0.0
C1114 C 0.75418 0.83306 0.38501 0.0
H1115 H 0.7357 0.79321 0.38082 0.0
C1116 C 0.76647 0.83511 0.39779 0.0
C1117 C 0.74333 0.81784 0.37818 0.0
C1118 C 0.73051 0.81502 0.36337 0.0
C1119 C 0.76773 0.82222 0.40471 0.0
C1120 C 0.75623 0.80688 0.39897 0.0
C1121 C 0.74441 0.80494 0.38542 0.0
C1122 C 0.75572 0.79263 0.40756 0.0
C1123 C 0.78134 0.82515 0.41813 0.0
C1124 C 0.75549 0.78119 0.39503 0.0
C1125 C 0.75382 0.76722 0.40309 0.0
C1126 C 0.75228 0.7644 0.42386 0.0
C1127 C 0.75268 0.77597 0.43636 0.0
C1128 C 0.75429 0.78989 0.42828 0.0
H1129 H 0.79149 0.83714 0.41575 0.0
H1130 H 0.77771 0.82418 0.43397 0.0
H1131 H 0.7852 0.81646 0.41558 0.0
H1132 H 0.75646 0.78301 0.37898 0.0
H1133 H 0.75356 0.75857 0.39303 0.0
H1134 H 0.24564 0.93462 0.41924 0.0
H1135 H 0.26316 0.96204 0.42816 0.0
H1136 H 0.25951 0.97649 0.36808 0.0
H1137 H 0.24182 0.94911 0.35915 0.0
H1138 H 0.29135 0.98348 0.41418 0.0
H1139 H 0.24958 0.00479 0.3999 0.0
H1140 H 0.24349 0.98417 0.40085 0.0
H1141 H 0.25203 0.99553 0.37845 0.0
C1142 C 0.24862 0.94361 0.40788 0.0
C1143 C 0.24224 0.93965 0.38848 0.0
C1144 C 0.25858 0.95931 0.41305 0.0
C1145 C 0.2624 0.9714 0.39894 0.0
C1146 C 0.25636 0.96745 0.37942 0.0
H1147 H 0.32937 0.06913 0.38792 0.0
H1148 H 0.30894 0.04173 0.38427 0.0
C1149 C 0.2463 0.95177 0.3743 0.0
C1150 C 0.27308 0.98809 0.40445 0.0
H1151 H 0.27661 0.02452 0.40362 0.0
C1152 C 0.28804 0.9924 0.41212 0.0
C1153 C 0.26874 0.99977 0.40189 0.0
C1154 C 0.25253 0.99582 0.39502 0.0
C1155 C 0.29896 0.00811 0.41654 0.0
C1156 C 0.29479 0.01981 0.41329 0.0
C1157 C 0.27975 0.0155 0.40606 0.0
C1158 C 0.30632 0.0367 0.416 0.0
C1159 C 0.31508 0.01224 0.42399 0.0
C1160 C 0.31136 0.04306 0.43513 0.0
C1161 C 0.323 0.05884 0.43732 0.0
C1162 C 0.32988 0.06844 0.42038 0.0
C1163 C 0.32442 0.06207 0.40129 0.0
C1164 C 0.31271 0.04641 0.39915 0.0
H1165 H 0.31705 0.00205 0.42365 0.0
H1166 H 0.3242 0.02192 0.41478 0.0
H1167 H 0.31659 0.01641 0.43961 0.0
H1168 H 0.30646 0.03575 0.44832 0.0
H1169 H 0.32696 0.06335 0.45221 0.0
H1170 H 0.12543 0.37553 0.34219 0.0
H1171 H 0.09899 0.3653 0.35521 0.0
H1172 H 0.10833 0.33975 0.40114 0.0
H1173 H 0.13499 0.34991 0.38791 0.0
H1174 H 0.07234 0.33236 0.36668 0.0
H1175 H 0.10115 0.37487 0.4286 0.0
H1176 H 0.11107 0.37663 0.40537 0.0
H1177 H 0.10814 0.36155 0.42311 0.0
C1178 C 0.12172 0.36738 0.35473 0.0
C1179 C 0.13226 0.36356 0.36414 0.0
C1180 C 0.10659 0.36152 0.36211 0.0
C1181 C 0.10177 0.3519 0.37921 0.0
C1182 C 0.11188 0.34719 0.38791 0.0
H1183 H 0.02712 0.3387 0.45896 0.0
H1184 H 0.04923 0.33846 0.44349 0.0
C1185 C 0.12704 0.35291 0.38031 0.0
C1186 C 0.08705 0.34866 0.38915 0.0
H1187 H 0.07377 0.36158 0.42718 0.0
C1188 C 0.07257 0.33855 0.38006 0.0
C1189 C 0.08744 0.35689 0.40647 0.0
C1190 C 0.10274 0.36818 0.41651 0.0
C1191 C 0.05842 0.33643 0.38793 0.0
C1192 C 0.05886 0.34505 0.40495 0.0
C1193 C 0.07338 0.35497 0.41413 0.0
C1194 C 0.04452 0.34406 0.41371 0.0
C1195 C 0.04319 0.32484 0.37806 0.0
C1196 C 0.03436 0.34726 0.40217 0.0
C1197 C 0.02147 0.34722 0.411 0.0
C1198 C 0.01873 0.34432 0.43163 0.0
C1199 C 0.02893 0.34113 0.44307 0.0
C1200 C 0.0416 0.34094 0.43422 0.0
H1201 H 0.04443 0.31584 0.36969 0.0
H1202 H 0.03369 0.31878 0.3892 0.0
H1203 H 0.03965 0.33116 0.36721 0.0
H1204 H 0.03657 0.35015 0.38643 0.0
H1205 H 0.01388 0.34978 0.40179 0.0
H1206 H 0.15361 0.38255 0.84938 0.0
H1207 H 0.13843 0.3956 0.84044 0.0
H1208 H 0.10641 0.35529 0.80598 0.0
H1209 H 0.12119 0.34234 0.81476 0.0
H1210 H 0.12969 0.40273 0.80178 0.0
H1211 H 0.0775 0.36078 0.84491 0.0
H1212 H 0.0966 0.3628 0.84897 0.0
H1213 H 0.08428 0.35105 0.82876 0.0
C1214 C 0.14339 0.37657 0.8398 0.0
C1215 C 0.13852 0.36133 0.833 0.0
C1216 C 0.13471 0.38399 0.83476 0.0
C1217 C 0.12105 0.37623 0.82295 0.0
C1218 C 0.11664 0.36134 0.81555 0.0
H1219 H 0.06744 0.39784 0.74326 0.0
H1220 H 0.08641 0.39327 0.76145 0.0
C1221 C 0.12519 0.35397 0.82055 0.0
C1222 C 0.11118 0.38338 0.81794 0.0
H1223 H 0.07301 0.37489 0.81823 0.0
C1224 C 0.11737 0.39685 0.80571 0.0
C1225 C 0.09515 0.37587 0.82331 0.0
C1226 C 0.08802 0.36191 0.83739 0.0
C1227 C 0.1077 0.40233 0.79757 0.0
C1228 C 0.09139 0.39396 0.80153 0.0
C1229 C 0.08545 0.38118 0.81493 0.0
C1230 C 0.08013 0.39743 0.79067 0.0
C1231 C 0.11498 0.41684 0.78446 0.0
C1232 C 0.06988 0.40085 0.80105 0.0
C1233 C 0.05886 0.4034 0.79064 0.0
C1234 C 0.05774 0.40238 0.76965 0.0
C1235 C 0.06793 0.39878 0.75939 0.0
C1236 C 0.07895 0.39631 0.76977 0.0
H1237 H 0.12758 0.42458 0.78818 0.0
H1238 H 0.1142 0.41332 0.76862 0.0
H1239 H 0.10882 0.42363 0.78595 0.0
H1240 H 0.07044 0.40158 0.81721 0.0
H1241 H 0.05119 0.40612 0.79904 0.0
H1242 H 0.68852 0.84143 0.80858 0.0
H1243 H 0.67842 0.81398 0.80004 0.0
H1244 H 0.72522 0.82086 0.80342 0.0
H1245 H 0.73546 0.84845 0.81208 0.0
H1246 H 0.70779 0.80332 0.77004 0.0
H1247 H 0.67428 0.7803 0.84043 0.0
H1248 H 0.66982 0.79347 0.82677 0.0
H1249 H 0.68913 0.80063 0.83711 0.0
C1250 C 0.69668 0.83711 0.80768 0.0
C1251 C 0.71279 0.8471 0.8113 0.0
C1252 C 0.69088 0.82141 0.80275 0.0
C1253 C 0.70103 0.81532 0.80147 0.0
C1254 C 0.71718 0.82533 0.80443 0.0
H1255 H 0.67254 0.71658 0.80526 0.0
H1256 H 0.68409 0.74461 0.8113 0.0
C1257 C 0.72302 0.84109 0.80932 0.0
C1258 C 0.6947 0.79844 0.7973 0.0
H1259 H 0.66949 0.76167 0.81524 0.0
C1260 C 0.69946 0.79419 0.77993 0.0
C1261 C 0.68399 0.78658 0.81038 0.0
C1262 C 0.6791 0.79043 0.82982 0.0
C1263 C 0.69356 0.77835 0.7751 0.0
C1264 C 0.68243 0.76649 0.78784 0.0
C1265 C 0.67789 0.77077 0.80537 0.0
C1266 C 0.67564 0.74953 0.78365 0.0
C1267 C 0.69952 0.77447 0.75661 0.0
C1268 C 0.66691 0.74292 0.76615 0.0
C1269 C 0.6603 0.72684 0.76258 0.0
C1270 C 0.66219 0.71705 0.77656 0.0
C1271 C 0.67082 0.72373 0.79416 0.0
C1272 C 0.67746 0.73978 0.79765 0.0
H1273 H 0.71082 0.78455 0.75151 0.0
H1274 H 0.70116 0.76421 0.75932 0.0
H1275 H 0.69082 0.7715 0.74435 0.0
H1276 H 0.66505 0.75016 0.75535 0.0
H1277 H 0.65366 0.72208 0.74893 0.0
H1278 H 0.22235 0.93835 0.81055 0.0
H1279 H 0.24904 0.94782 0.79988 0.0
H1280 H 0.24564 0.90395 0.81816 0.0
H1281 H 0.21865 0.89438 0.82953 0.0
H1282 H 0.27208 0.92815 0.8316 0.0
H1283 H 0.26711 0.93921 0.75186 0.0
H1284 H 0.25865 0.94837 0.76608 0.0
H1285 H 0.25008 0.9273 0.76706 0.0
C1286 C 0.22712 0.93056 0.81215 0.0
C1287 C 0.21833 0.91557 0.82089 0.0
C1288 C 0.2424 0.93596 0.80578 0.0
C1289 C 0.24924 0.92646 0.80768 0.0
C1290 C 0.24051 0.9114 0.81629 0.0
H1291 H 0.34624 0.98316 0.76455 0.0
H1292 H 0.32026 0.95961 0.76767 0.0
C1293 C 0.22512 0.90597 0.8228 0.0
C1294 C 0.26601 0.93316 0.8024 0.0
H1295 H 0.29253 0.95722 0.76765 0.0
C1296 C 0.27655 0.93414 0.8174 0.0
C1297 C 0.27193 0.94058 0.78369 0.0
C1298 C 0.26128 0.93863 0.76622 0.0
C1299 C 0.2928 0.9437 0.81491 0.0
C1300 C 0.29858 0.95286 0.79723 0.0
C1301 C 0.28813 0.95054 0.78144 0.0
C1302 C 0.31486 0.96628 0.79588 0.0
C1303 C 0.30354 0.94429 0.83159 0.0
C1304 C 0.32038 0.97795 0.81051 0.0
C1305 C 0.33515 0.99128 0.80884 0.0
C1306 C 0.3447 0.99347 0.79227 0.0
C1307 C 0.33918 0.98183 0.77751 0.0
C1308 C 0.32436 0.96835 0.7793 0.0
H1309 H 0.29859 0.93273 0.83937 0.0
H1310 H 0.31539 0.94764 0.82598 0.0
H1311 H 0.30467 0.95301 0.84279 0.0
H1312 H 0.31308 0.97697 0.82305 0.0
H1313 H 0.33891 1.00004 0.82041 0.0
H1314 H 0.70301 0.94513 0.34018 0.0
H1315 H 0.69096 0.96102 0.33179 0.0
H1316 H 0.71298 0.97168 0.27394 0.0
H1317 H 0.72517 0.9558 0.28231 0.0
H1318 H 0.71499 0.9976 0.29194 0.0
H1319 H 0.65383 0.94806 0.29408 0.0
H1320 H 0.66453 0.94984 0.31674 0.0
H1321 H 0.67055 0.94516 0.2938 0.0
C1322 C 0.70521 0.95077 0.32562 0.0
C1323 C 0.71489 0.94906 0.31181 0.0
C1324 C 0.69829 0.95982 0.32084 0.0
C1325 C 0.70076 0.96721 0.30206 0.0
C1326 C 0.71082 0.96595 0.28845 0.0
H1327 H 0.64537 0.00784 0.25494 0.0
H1328 H 0.65739 0.99143 0.26051 0.0
C1329 C 0.71783 0.95695 0.29328 0.0
C1330 C 0.69298 0.97638 0.2968 0.0
H1331 H 0.65712 0.97382 0.29328 0.0
C1332 C 0.70234 0.99238 0.29209 0.0
C1333 C 0.67645 0.9695 0.29667 0.0
C1334 C 0.66574 0.95216 0.30039 0.0
C1335 C 0.69563 0.00181 0.28787 0.0
C1336 C 0.67914 0.99509 0.28878 0.0
C1337 C 0.66976 0.97898 0.29285 0.0
C1338 C 0.67145 0.00465 0.28582 0.0
C1339 C 0.70627 0.01884 0.28235 0.0
C1340 C 0.67503 0.01722 0.29855 0.0
C1341 C 0.66823 0.0266 0.2954 0.0
C1342 C 0.65757 0.02349 0.27956 0.0
C1343 C 0.65355 0.01054 0.26726 0.0
C1344 C 0.66042 1.00118 0.27039 0.0
H1345 H 0.71775 0.02096 0.27671 0.0
H1346 H 0.70079 0.02279 0.27075 0.0
H1347 H 0.70856 0.02615 0.29581 0.0
H1348 H 0.68319 0.01985 0.31087 0.0
H1349 H 0.67147 0.0364 0.30525 0.0
H1350 H 0.14362 0.83245 0.34868 0.0
H1351 H 0.12232 0.80845 0.33442 0.0
H1352 H 0.15581 0.80135 0.30199 0.0
H1353 H 0.17728 0.82549 0.31616 0.0
H1354 H 0.11499 0.80218 0.29372 0.0
H1355 H 0.12823 0.7585 0.3292 0.0
H1356 H 0.13667 0.77836 0.33808 0.0
H1357 H 0.1441 0.7744 0.31587 0.0
C1358 C 0.1465 0.82583 0.3385 0.0
C1359 C 0.1622 0.83097 0.33353 0.0
C1360 C 0.13429 0.81206 0.33041 0.0
C1361 C 0.13746 0.80303 0.31725 0.0
C1362 C 0.1531 0.80798 0.31239 0.0
H1363 H 0.06903 0.71426 0.2602 0.0
H1364 H 0.0936 0.73828 0.26847 0.0
C1365 C 0.16537 0.82179 0.32052 0.0
C1366 C 0.12425 0.78878 0.30819 0.0
H1367 H 0.10674 0.74878 0.30687 0.0
C1368 C 0.11323 0.79051 0.29652 0.0
C1369 C 0.12204 0.77357 0.3117 0.0
C1370 C 0.13329 0.77098 0.32451 0.0
C1371 C 0.09994 0.77745 0.28856 0.0
C1372 C 0.09742 0.7622 0.29265 0.0
C1373 C 0.10869 0.76048 0.30375 0.0
C1374 C 0.08259 0.7479 0.28689 0.0
C1375 C 0.08866 0.7801 0.27588 0.0
C1376 C 0.0683 0.7453 0.29458 0.0
C1377 C 0.05431 0.73168 0.28991 0.0
C1378 C 0.05426 0.72022 0.27749 0.0
C1379 C 0.06861 0.72286 0.2697 0.0
C1380 C 0.08267 0.73655 0.27445 0.0
H1381 H 0.09449 0.79207 0.2691 0.0
H1382 H 0.08352 0.77135 0.26373 0.0
H1383 H 0.07898 0.77892 0.2854 0.0
H1384 H 0.06798 0.75373 0.30453 0.0
H1385 H 0.04353 0.73006 0.29629 0.0
H1386 H 0.21447 0.36296 0.35317 0.0
H1387 H 0.23865 0.36219 0.34619 0.0
H1388 H 0.25009 0.39672 0.29922 0.0
H1389 H 0.22624 0.3975 0.30606 0.0
H1390 H 0.25669 0.37214 0.28993 0.0
H1391 H 0.28152 0.40047 0.36323 0.0
H1392 H 0.26313 0.3823 0.36317 0.0
H1393 H 0.26418 0.39969 0.35265 0.0
C1394 C 0.22197 0.37001 0.34101 0.0
C1395 C 0.21856 0.38033 0.33019 0.0
C1396 C 0.23582 0.3697 0.33717 0.0
C1397 C 0.24628 0.37958 0.32237 0.0
C1398 C 0.24225 0.38903 0.31073 0.0
H1399 H 0.33673 0.42487 0.27244 0.0
H1400 H 0.30896 0.41219 0.28093 0.0
C1401 C 0.22861 0.38947 0.31467 0.0
C1402 C 0.26206 0.38139 0.31973 0.0
H1403 H 0.29885 0.39969 0.34027 0.0
C1404 C 0.26586 0.37787 0.30108 0.0
C1405 C 0.27402 0.38888 0.33429 0.0
C1406 C 0.27065 0.39317 0.35446 0.0
C1407 C 0.28138 0.38224 0.29629 0.0
C1408 C 0.2935 0.39067 0.31036 0.0
C1409 C 0.28957 0.39333 0.32945 0.0
C1410 C 0.31035 0.39796 0.30502 0.0
C1411 C 0.2847 0.37807 0.27602 0.0
C1412 C 0.32052 0.39455 0.3161 0.0
C1413 C 0.3365 0.4019 0.31135 0.0
C1414 C 0.34261 0.41291 0.29554 0.0
C1415 C 0.33241 0.4164 0.28463 0.0
C1416 C 0.31648 0.40905 0.28936 0.0
H1417 H 0.27425 0.36753 0.26994 0.0
H1418 H 0.2877 0.38797 0.26545 0.0
H1419 H 0.29468 0.37582 0.27669 0.0
H1420 H 0.31609 0.38617 0.32838 0.0
H1421 H 0.34404 0.39898 0.32009 0.0
H1422 H 0.21204 0.36085 0.89276 0.0
H1423 H 0.23664 0.36269 0.90498 0.0
H1424 H 0.23259 0.32983 0.86006 0.0
H1425 H 0.20807 0.32762 0.8484 0.0
H1426 H 0.23688 0.32077 0.89597 0.0
H1427 H 0.28121 0.38359 0.88414 0.0
H1428 H 0.26457 0.38015 0.89874 0.0
H1429 H 0.26193 0.37467 0.87288 0.0
C1430 C 0.21663 0.3543 0.8853 0.0
C1431 C 0.2081 0.34403 0.86971 0.0
C1432 C 0.23069 0.35537 0.89225 0.0
C1433 C 0.23654 0.3464 0.88343 0.0
C1434 C 0.22833 0.33678 0.86724 0.0
H1435 H 0.32578 0.34914 0.89386 0.0
H1436 H 0.30344 0.35241 0.88433 0.0
C1437 C 0.21429 0.33555 0.86055 0.0
C1438 C 0.2504 0.34583 0.89171 0.0
H1439 H 0.28982 0.36777 0.90083 0.0
C1440 C 0.24845 0.33108 0.89707 0.0
C1441 C 0.26554 0.35924 0.89301 0.0
C1442 C 0.26855 0.3753 0.88674 0.0
C1443 C 0.26115 0.32928 0.90328 0.0
C1444 C 0.27627 0.34269 0.90487 0.0
C1445 C 0.27824 0.3575 0.89975 0.0
C1446 C 0.2902 0.34143 0.91119 0.0
C1447 C 0.25828 0.3129 0.90733 0.0
C1448 C 0.29036 0.33441 0.92959 0.0
C1449 C 0.30301 0.33232 0.93488 0.0
C1450 C 0.31594 0.33747 0.92209 0.0
C1451 C 0.31601 0.34498 0.90397 0.0
C1452 C 0.30325 0.3469 0.89857 0.0
H1453 H 0.24732 0.30386 0.90003 0.0
H1454 H 0.26818 0.31156 0.90196 0.0
H1455 H 0.25706 0.31052 0.92367 0.0
H1456 H 0.28066 0.33046 0.93982 0.0
H1457 H 0.30268 0.3267 0.9491 0.0
H1458 H 0.74368 0.94826 0.90168 0.0
H1459 H 0.74172 0.9707 0.91344 0.0
H1460 H 0.74334 0.98631 0.85239 0.0
H1461 H 0.74426 0.96325 0.84068 0.0
H1462 H 0.75786 1.00111 0.91226 0.0
H1463 H 0.70322 0.98268 0.86885 0.0
H1464 H 0.71234 0.97075 0.87069 0.0
H1465 H 0.71942 0.98687 0.85302 0.0
C1466 C 0.74384 0.95664 0.89086 0.0
C1467 C 0.74402 0.95408 0.87031 0.0
C1468 C 0.74269 0.96943 0.89755 0.0
C1469 C 0.74192 0.97999 0.88379 0.0
C1470 C 0.74331 0.97804 0.86328 0.0
H1471 H 0.74522 0.06699 0.92081 0.0
H1472 H 0.75254 0.04763 0.9109 0.0
C1473 C 0.74403 0.96501 0.85658 0.0
C1474 C 0.73886 0.99248 0.89092 0.0
H1475 H 0.71423 0.00729 0.8847 0.0
C1476 C 0.74828 0.00243 0.90629 0.0
C1477 C 0.72616 0.99403 0.88344 0.0
C1478 C 0.71461 0.98291 0.86826 0.0
C1479 C 0.74535 0.01384 0.91439 0.0
C1480 C 0.73304 0.01578 0.90634 0.0
C1481 C 0.72372 0.0059 0.89087 0.0
C1482 C 0.72913 0.02758 0.91393 0.0
C1483 C 0.75516 0.02324 0.93193 0.0
C1484 C 0.71351 0.02291 0.91866 0.0
C1485 C 0.70926 0.034 0.92364 0.0
C1486 C 0.72058 0.04999 0.92446 0.0
C1487 C 0.73631 0.05468 0.92058 0.0
C1488 C 0.74052 0.04359 0.91503 0.0
H1489 H 0.76029 0.01697 0.94021 0.0
H1490 H 0.765 0.03453 0.92639 0.0
H1491 H 0.74815 0.0258 0.94252 0.0
H1492 H 0.70449 0.01066 0.91801 0.0
H1493 H 0.69704 0.03009 0.92659 0.0
H1494 H 0.14535 0.84353 0.86193 0.0
H1495 H 0.12251 0.81806 0.87061 0.0
H1496 H 0.09981 0.84165 0.89576 0.0
H1497 H 0.12249 0.86702 0.88736 0.0
H1498 H 0.09668 0.81547 0.91888 0.0
H1499 H 0.08075 0.8014 0.83875 0.0
H1500 H 0.10037 0.80626 0.84564 0.0
H1501 H 0.09465 0.82093 0.84704 0.0
C1502 C 0.13559 0.84328 0.86957 0.0
C1503 C 0.13565 0.85727 0.87378 0.0
C1504 C 0.12253 0.82874 0.8744 0.0
C1505 C 0.1094 0.82803 0.88351 0.0
C1506 C 0.10979 0.84197 0.88863 0.0
H1507 H 0.01534 0.75485 0.91754 0.0
H1508 H 0.03956 0.77994 0.9123 0.0
C1509 C 0.12276 0.85646 0.88376 0.0
C1510 C 0.09491 0.81283 0.88692 0.0
H1511 H 0.06479 0.78222 0.86247 0.0
C1512 C 0.08969 0.80815 0.90659 0.0
C1513 C 0.08581 0.80344 0.8708 0.0
C1514 C 0.09055 0.80826 0.84934 0.0
C1515 C 0.0757 0.79412 0.9106 0.0
C1516 C 0.06656 0.78475 0.89446 0.0
C1517 C 0.07181 0.78946 0.8748 0.0
C1518 C 0.05178 0.76974 0.89758 0.0
C1519 C 0.07099 0.7893 0.93206 0.0
C1520 C 0.05047 0.75579 0.89051 0.0
C1521 C 0.03666 0.74153 0.89327 0.0
C1522 C 0.0238 0.74088 0.90315 0.0
C1523 C 0.02503 0.75492 0.90995 0.0
C1524 C 0.0389 0.76925 0.90712 0.0
H1525 H 0.08103 0.79564 0.9425 0.0
H1526 H 0.06176 0.79209 0.9361 0.0
H1527 H 0.06616 0.77648 0.93419 0.0
H1528 H 0.06023 0.75592 0.88302 0.0
H1529 H 0.03617 0.73099 0.88779 0.0
H1530 H 0.39049 0.18554 0.68924 0.0
H1531 H 0.38597 0.15926 0.69729 0.0
H1532 H 0.42059 0.17843 0.74443 0.0
H1533 H 0.42527 0.20486 0.73624 0.0
H1534 H 0.42194 0.15515 0.72226 0.0
H1535 H 0.36128 0.13578 0.7472 0.0
H1536 H 0.3654 0.14333 0.72205 0.0
H1537 H 0.37553 0.15613 0.74259 0.0
C1538 C 0.39718 0.18414 0.70126 0.0
C1539 C 0.40805 0.19716 0.71236 0.0
C1540 C 0.39457 0.16915 0.70585 0.0
C1541 C 0.40266 0.16689 0.72176 0.0
C1542 C 0.41415 0.17996 0.73218 0.0
H1543 H 0.37912 0.08484 0.79254 0.0
H1544 H 0.38273 0.10935 0.77806 0.0
C1545 C 0.41686 0.19502 0.72747 0.0
C1546 C 0.39866 0.15084 0.72805 0.0
H1547 H 0.36879 0.11639 0.74649 0.0
C1548 C 0.41032 0.14664 0.72751 0.0
C1549 C 0.38352 0.13987 0.73511 0.0
C1550 C 0.37073 0.144 0.73698 0.0
C1551 C 0.40726 0.1317 0.73386 0.0
C1552 C 0.39203 0.12064 0.74057 0.0
C1553 C 0.38037 0.12485 0.74109 0.0
C1554 C 0.3883 0.10503 0.74849 0.0
C1555 C 0.42046 0.12807 0.73394 0.0
C1556 C 0.38962 0.09421 0.73642 0.0
C1557 C 0.38759 0.08017 0.74466 0.0
C1558 C 0.38413 0.0767 0.76509 0.0
C1559 C 0.38187 0.08716 0.77679 0.0
C1560 C 0.38394 0.10119 0.76855 0.0
H1561 H 0.43211 0.13888 0.73262 0.0
H1562 H 0.42034 0.12169 0.74784 0.0
H1563 H 0.41899 0.12047 0.72105 0.0
H1564 H 0.39262 0.09682 0.72077 0.0
H1565 H 0.38931 0.07233 0.73518 0.0
H1566 H 0.86924 0.25615 0.67208 0.0
H1567 H 0.89196 0.28243 0.67644 0.0
H1568 H 0.8805 0.28126 0.73863 0.0
H1569 H 0.85772 0.25507 0.73442 0.0
H1570 H 0.89135 0.31121 0.71954 0.0
H1571 H 0.93106 0.2873 0.70656 0.0
H1572 H 0.91702 0.28367 0.68699 0.0
H1573 H 0.91038 0.27484 0.71123 0.0
C1574 C 0.87132 0.26159 0.68659 0.0
C1575 C 0.86167 0.25337 0.70294 0.0
C1576 C 0.88443 0.27659 0.68911 0.0
C1577 C 0.88816 0.2837 0.70798 0.0
C1578 C 0.87795 0.27598 0.72397 0.0
H1579 H 0.96691 0.36875 0.75923 0.0
H1580 H 0.94165 0.34487 0.75353 0.0
C1581 C 0.8649 0.26098 0.7215 0.0
C1582 C 0.90314 0.29866 0.71142 0.0
H1583 H 0.94297 0.3146 0.71127 0.0
C1584 C 0.90265 0.31197 0.71773 0.0
C1585 C 0.91789 0.29965 0.70918 0.0
C1586 C 0.91922 0.2856 0.70329 0.0
C1587 C 0.91649 0.32631 0.72142 0.0
C1588 C 0.93127 0.32729 0.71921 0.0
C1589 C 0.9317 0.31392 0.71296 0.0
C1590 C 0.94646 0.34206 0.72284 0.0
C1591 C 0.91515 0.34037 0.72713 0.0
C1592 C 0.95782 0.34829 0.70775 0.0
C1593 C 0.97233 0.36179 0.71105 0.0
C1594 C 0.97593 0.36948 0.72958 0.0
C1595 C 0.96454 0.36323 0.74474 0.0
C1596 C 0.95001 0.34962 0.74144 0.0
H1597 H 0.90359 0.33895 0.72273 0.0
H1598 H 0.91635 0.34177 0.74359 0.0
H1599 H 0.92452 0.35128 0.72005 0.0
H1600 H 0.95546 0.3427 0.6933 0.0
H1601 H 0.98073 0.36621 0.69897 0.0
H1602 H 0.80182 0.70451 0.6542 0.0
H1603 H 0.77686 0.70215 0.6644 0.0
H1604 H 0.77986 0.68207 0.72089 0.0
H1605 H 0.80471 0.68441 0.71094 0.0
H1606 H 0.7492 0.67355 0.67531 0.0
H1607 H 0.77004 0.71653 0.73687 0.0
H1608 H 0.78302 0.71647 0.71808 0.0
H1609 H 0.777 0.7028 0.73874 0.0
C1610 C 0.79729 0.69983 0.66892 0.0
C1611 C 0.8053 0.69469 0.68177 0.0
C1612 C 0.783 0.69843 0.67467 0.0
C1613 C 0.77659 0.69208 0.69347 0.0
C1614 C 0.78471 0.68724 0.70645 0.0
H1615 H 0.69474 0.66198 0.7637 0.0
H1616 H 0.71956 0.66834 0.74832 0.0
C1617 C 0.79891 0.68854 0.70069 0.0
C1618 C 0.76103 0.68967 0.69929 0.0
H1619 H 0.74257 0.69803 0.73591 0.0
C1620 C 0.74772 0.67906 0.68838 0.0
C1621 C 0.75917 0.69689 0.71633 0.0
C1622 C 0.77307 0.70893 0.72809 0.0
C1623 C 0.73252 0.67487 0.69467 0.0
C1624 C 0.73065 0.68169 0.71213 0.0
C1625 C 0.74401 0.69273 0.72259 0.0
C1626 C 0.71498 0.67694 0.72056 0.0
C1627 C 0.7186 0.66266 0.68311 0.0
C1628 C 0.70402 0.6795 0.70996 0.0
C1629 C 0.68968 0.67577 0.71871 0.0
C1630 C 0.68613 0.66957 0.73829 0.0
C1631 C 0.69705 0.66676 0.74863 0.0
C1632 C 0.7113 0.67043 0.73988 0.0
H1633 H 0.72195 0.65618 0.67264 0.0
H1634 H 0.70949 0.65409 0.69341 0.0
H1635 H 0.71335 0.66852 0.67421 0.0
H1636 H 0.70672 0.68475 0.69515 0.0
H1637 H 0.6816 0.67819 0.71038 0.0
H1638 H 0.82393 0.73336 0.16034 0.0
H1639 H 0.80986 0.74807 0.15551 0.0
H1640 H 0.77408 0.70965 0.12166 0.0
H1641 H 0.78777 0.69504 0.12644 0.0
H1642 H 0.80056 0.75765 0.12027 0.0
H1643 H 0.74858 0.71637 0.16406 0.0
H1644 H 0.76692 0.71638 0.16556 0.0
H1645 H 0.75328 0.70641 0.14552 0.0
C1646 C 0.8131 0.72811 0.15183 0.0
C1647 C 0.80694 0.71295 0.14395 0.0
C1648 C 0.80504 0.7365 0.14912 0.0
C1649 C 0.79068 0.7298 0.13864 0.0
C1650 C 0.78487 0.71491 0.13028 0.0
H1651 H 0.74006 0.76272 0.06993 0.0
H1652 H 0.75834 0.7555 0.08461 0.0
C1653 C 0.79283 0.70659 0.13295 0.0
C1654 C 0.78168 0.73819 0.13582 0.0
H1655 H 0.74468 0.7327 0.14004 0.0
C1656 C 0.78843 0.75236 0.12491 0.0
C1657 C 0.76593 0.7315 0.14219 0.0
C1658 C 0.7583 0.71691 0.15517 0.0
C1659 C 0.77954 0.7594 0.11907 0.0
C1660 C 0.76339 0.75193 0.12392 0.0
C1661 C 0.75697 0.73836 0.13601 0.0
C1662 C 0.75269 0.75721 0.11529 0.0
C1663 C 0.78754 0.77469 0.10751 0.0
C1664 C 0.74297 0.76018 0.12756 0.0
C1665 C 0.73226 0.76419 0.11914 0.0
C1666 C 0.73096 0.76518 0.09824 0.0
C1667 C 0.74075 0.7622 0.08607 0.0
C1668 C 0.75137 0.75819 0.09447 0.0
H1669 H 0.80024 0.78151 0.11124 0.0
H1670 H 0.78648 0.77219 0.09127 0.0
H1671 H 0.78216 0.78204 0.11056 0.0
H1672 H 0.74363 0.75933 0.14367 0.0
H1673 H 0.7249 0.76635 0.12898 0.0
H1674 H 0.35583 0.17131 0.15887 0.0
H1675 H 0.34509 0.14362 0.1512 0.0
H1676 H 0.3906 0.14825 0.16074 0.0
H1677 H 0.40149 0.17609 0.16863 0.0
H1678 H 0.37425 0.13036 0.12633 0.0
H1679 H 0.33718 0.11012 0.19425 0.0
H1680 H 0.33443 0.12369 0.17884 0.0
H1681 H 0.35299 0.13005 0.19105 0.0
C1682 C 0.36358 0.16647 0.15951 0.0
C1683 C 0.3795 0.17593 0.1647 0.0
C1684 C 0.3574 0.15062 0.15505 0.0
C1685 C 0.36697 0.1438 0.15574 0.0
C1686 C 0.38299 0.15327 0.1602 0.0
H1687 H 0.33475 0.04466 0.16703 0.0
H1688 H 0.3471 0.07299 0.17068 0.0
C1689 C 0.3892 0.16919 0.16466 0.0
C1690 C 0.3601 0.1267 0.15231 0.0
H1691 H 0.333 0.0907 0.17063 0.0
C1692 C 0.36525 0.12166 0.13601 0.0
C1693 C 0.34849 0.11537 0.1651 0.0
C1694 C 0.34302 0.12002 0.1834 0.0
C1695 C 0.35895 0.10559 0.13203 0.0
C1696 C 0.34703 0.09428 0.14453 0.0
C1697 C 0.34202 0.09936 0.16093 0.0
C1698 C 0.34 0.07709 0.14151 0.0
C1699 C 0.36532 0.10086 0.11474 0.0
C1700 C 0.33183 0.06987 0.12386 0.0
C1701 C 0.32474 0.05355 0.12166 0.0
C1702 C 0.32557 0.04414 0.13716 0.0
C1703 C 0.3338 0.05147 0.15477 0.0
C1704 C 0.3409 0.06772 0.15691 0.0
H1705 H 0.3769 0.1106 0.10979 0.0
H1706 H 0.36658 0.09055 0.11878 0.0
H1707 H 0.35706 0.09761 0.10191 0.0
H1708 H 0.33069 0.07681 0.11193 0.0
H1709 H 0.31844 0.04831 0.10795 0.0
H1710 H 0.87854 0.27577 0.12251 0.0
H1711 H 0.90621 0.29104 0.11369 0.0
H1712 H 0.91829 0.27247 0.16547 0.0
H1713 H 0.89049 0.25688 0.17425 0.0
H1714 H 0.92779 0.31392 0.13769 0.0
H1715 H 0.94575 0.26986 0.12215 0.0
H1716 H 0.92546 0.26497 0.12274 0.0
H1717 H 0.93601 0.26696 0.14566 0.0
C1718 C 0.88705 0.27468 0.13183 0.0
C1719 C 0.88236 0.26519 0.14915 0.0
C1720 C 0.90285 0.28342 0.12675 0.0
C1721 C 0.9143 0.28285 0.13886 0.0
C1722 C 0.90962 0.27287 0.15571 0.0
H1723 H 0.01056 0.35721 0.15058 0.0
H1724 H 0.98299 0.33762 0.15543 0.0
C1725 C 0.89375 0.26401 0.16075 0.0
C1726 C 0.9311 0.29395 0.13497 0.0
H1727 H 0.96631 0.2964 0.12579 0.0
C1728 C 0.93619 0.31007 0.13497 0.0
C1729 C 0.942 0.2889 0.13129 0.0
C1730 C 0.93704 0.27173 0.13026 0.0
C1731 C 0.95194 0.32132 0.13168 0.0
C1732 C 0.96294 0.3163 0.12867 0.0
C1733 C 0.95784 0.30018 0.1283 0.0
C1734 C 0.9798 0.32771 0.12594 0.0
C1735 C 0.95662 0.33847 0.13123 0.0
C1736 C 0.98722 0.32836 0.10791 0.0
C1737 C 0.00301 0.33953 0.10507 0.0
C1738 C 0.01168 0.35019 0.1203 0.0
C1739 C 0.00423 0.34928 0.13848 0.0
C1740 C 0.98846 0.33811 0.14128 0.0
H1741 H 0.94636 0.34012 0.12865 0.0
H1742 H 0.96197 0.34378 0.14582 0.0
H1743 H 0.96539 0.34491 0.11935 0.0
H1744 H 0.98072 0.32038 0.09591 0.0
H1745 H 0.00839 0.33985 0.09092 0.0
H1746 H 0.40219 0.30562 0.68332 0.0
H1747 H 0.38795 0.3183 0.67005 0.0
H1748 H 0.36893 0.28441 0.62269 0.0
H1749 H 0.38318 0.27168 0.63588 0.0
H1750 H 0.38634 0.33093 0.63168 0.0
H1751 H 0.33004 0.27825 0.65349 0.0
H1752 H 0.34881 0.28144 0.66227 0.0
H1753 H 0.34232 0.27467 0.6373 0.0
C1754 C 0.39532 0.30111 0.66979 0.0
C1755 C 0.39364 0.28753 0.66076 0.0
C1756 C 0.38712 0.30831 0.66229 0.0
C1757 C 0.37714 0.30205 0.64568 0.0
C1758 C 0.37631 0.28919 0.6358 0.0
H1759 H 0.3081 0.32528 0.59681 0.0
H1760 H 0.32467 0.3134 0.60227 0.0
C1761 C 0.38447 0.28197 0.64331 0.0
C1762 C 0.36683 0.30834 0.63959 0.0
H1763 H 0.32845 0.29905 0.63785 0.0
C1764 C 0.37368 0.32396 0.63292 0.0
C1765 C 0.35032 0.29917 0.64128 0.0
C1766 C 0.34238 0.28249 0.64912 0.0
C1767 C 0.36443 0.33071 0.62793 0.0
C1768 C 0.34796 0.32164 0.63 0.0
C1769 C 0.34108 0.30592 0.63625 0.0
C1770 C 0.33774 0.32852 0.62684 0.0
C1771 C 0.37235 0.34748 0.62048 0.0
C1772 C 0.33935 0.34061 0.63923 0.0
C1773 C 0.32991 0.34733 0.63624 0.0
C1774 C 0.31863 0.34204 0.62083 0.0
C1775 C 0.31671 0.32961 0.60878 0.0
C1776 C 0.32617 0.32285 0.61183 0.0
H1777 H 0.38425 0.35132 0.61458 0.0
H1778 H 0.36527 0.34903 0.60854 0.0
H1779 H 0.37361 0.35528 0.63304 0.0
H1780 H 0.34796 0.34488 0.6512 0.0
H1781 H 0.33162 0.35682 0.64587 0.0
H1782 H 0.80267 0.17572 0.63724 0.0
H1783 H 0.78155 0.15152 0.62212 0.0
H1784 H 0.78155 0.12501 0.67411 0.0
H1785 H 0.80264 0.14879 0.68883 0.0
H1786 H 0.78377 0.11182 0.64037 0.0
H1787 H 0.73485 0.12452 0.63312 0.0
H1788 H 0.75297 0.13861 0.62158 0.0
H1789 H 0.75199 0.13626 0.64829 0.0
C1790 C 0.79787 0.16476 0.64556 0.0
C1791 C 0.80433 0.16414 0.66419 0.0
C1792 C 0.78581 0.15092 0.63692 0.0
C1793 C 0.77991 0.13635 0.64695 0.0
C1794 C 0.78593 0.136 0.66595 0.0
H1795 H 0.69702 0.04685 0.6368 0.0
H1796 H 0.71772 0.07362 0.64321 0.0
C1797 C 0.79798 0.14966 0.6744 0.0
C1798 C 0.76818 0.12119 0.63762 0.0
H1799 H 0.73017 0.10005 0.62141 0.0
C1800 C 0.77207 0.10929 0.63607 0.0
C1801 C 0.7529 0.11783 0.63207 0.0
C1802 C 0.74781 0.1299 0.63395 0.0
C1803 C 0.76103 0.09404 0.62991 0.0
C1804 C 0.74568 0.0906 0.62453 0.0
C1805 C 0.74193 0.10265 0.62543 0.0
C1806 C 0.73297 0.07429 0.61974 0.0
C1807 C 0.76574 0.08159 0.63025 0.0
C1808 C 0.73447 0.06559 0.60426 0.0
C1809 C 0.72263 0.05003 0.6007 0.0
C1810 C 0.70892 0.04294 0.61233 0.0
C1811 C 0.70737 0.05184 0.62751 0.0
C1812 C 0.71922 0.06725 0.63117 0.0
H1813 H 0.77653 0.08517 0.63931 0.0
H1814 H 0.75622 0.07034 0.63642 0.0
H1815 H 0.76816 0.07953 0.61477 0.0
H1816 H 0.74477 0.07082 0.59489 0.0
H1817 H 0.72416 0.04362 0.58875 0.0
H1818 H 0.88099 0.72239 0.62193 0.0
H1819 H 0.90903 0.73462 0.61465 0.0
H1820 H 0.91763 0.72335 0.67428 0.0
H1821 H 0.88967 0.71115 0.68178 0.0
H1822 H 0.93775 0.75948 0.63721 0.0
H1823 H 0.93221 0.70038 0.63349 0.0
H1824 H 0.9155 0.70324 0.63112 0.0
H1825 H 0.92426 0.70445 0.65518 0.0
C1826 C 0.88886 0.72275 0.63363 0.0
C1827 C 0.88304 0.71567 0.65239 0.0
C1828 C 0.90488 0.72974 0.62943 0.0
C1829 C 0.91533 0.7297 0.64385 0.0
C1830 C 0.90971 0.72337 0.6629 0.0
H1831 H 0.01117 0.74812 0.63623 0.0
H1832 H 0.98479 0.74102 0.64712 0.0
C1833 C 0.89372 0.71646 0.66717 0.0
C1834 C 0.93188 0.73528 0.63856 0.0
H1835 H 0.9574 0.72222 0.62905 0.0
C1836 C 0.9421 0.75138 0.63543 0.0
C1837 C 0.93746 0.72465 0.6363 0.0
C1838 C 0.92682 0.70719 0.63905 0.0
C1839 C 0.95789 0.75718 0.63034 0.0
C1840 C 0.96345 0.74651 0.6278 0.0
C1841 C 0.95317 0.7304 0.63101 0.0
C1842 C 0.9798 0.75168 0.62162 0.0
C1843 C 0.96852 0.77468 0.62817 0.0
C1844 C 0.9858 0.76 0.60361 0.0
C1845 C 0.00094 0.76418 0.59743 0.0
C1846 C 0.0103 0.75992 0.60898 0.0
C1847 C 0.00427 0.75157 0.62698 0.0
C1848 C 0.98918 0.74751 0.63323 0.0
H1849 H 0.96393 0.78126 0.63641 0.0
H1850 H 0.98053 0.77836 0.63373 0.0
H1851 H 0.96928 0.77804 0.61214 0.0
H1852 H 0.97866 0.76299 0.59411 0.0
H1853 H 0.00519 0.7705 0.5834 0.0
H1854 H 0.86382 0.66389 0.18117 0.0
H1855 H 0.88819 0.66605 0.19302 0.0
H1856 H 0.90822 0.71601 0.19958 0.0
H1857 H 0.88343 0.71395 0.18761 0.0
H1858 H 0.91782 0.68412 0.17488 0.0
H1859 H 0.91764 0.70068 0.25405 0.0
H1860 H 0.90012 0.69208 0.23873 0.0
H1861 H 0.91493 0.71219 0.23487 0.0
C1862 C 0.8733 0.6754 0.18518 0.0
C1863 C 0.87161 0.68878 0.18336 0.0
C1864 C 0.88729 0.67659 0.19197 0.0
C1865 C 0.90004 0.69115 0.19726 0.0
C1866 C 0.89846 0.7046 0.19577 0.0
H1867 H 0.99238 0.69829 0.21277 0.0
H1868 H 0.97142 0.70343 0.20235 0.0
C1869 C 0.88432 0.70343 0.18889 0.0
C1870 C 0.91496 0.6919 0.2036 0.0
H1871 H 0.93823 0.6966 0.24431 0.0
C1872 C 0.92242 0.68705 0.18999 0.0
C1873 C 0.92081 0.69551 0.22338 0.0
C1874 C 0.91297 0.70032 0.23874 0.0
C1875 C 0.93529 0.68535 0.19572 0.0
C1876 C 0.94109 0.68884 0.21556 0.0
C1877 C 0.93383 0.69399 0.22909 0.0
C1878 C 0.95417 0.68646 0.22271 0.0
C1879 C 0.94212 0.67916 0.18068 0.0
C1880 C 0.95163 0.67552 0.23803 0.0
C1881 C 0.96364 0.67259 0.2441 0.0
C1882 C 0.97847 0.6806 0.23502 0.0
C1883 C 0.98107 0.6918 0.21997 0.0
C1884 C 0.96908 0.69474 0.21395 0.0
H1885 H 0.93409 0.67363 0.16776 0.0
H1886 H 0.95326 0.68902 0.17487 0.0
H1887 H 0.94471 0.67039 0.1877 0.0
H1888 H 0.94025 0.669 0.24505 0.0
H1889 H 0.96124 0.66395 0.25579 0.0
H1890 H 0.38043 0.27507 0.22003 0.0
H1891 H 0.38198 0.29955 0.23002 0.0
H1892 H 0.43243 0.32313 0.22707 0.0
H1893 H 0.43096 0.29854 0.21667 0.0
H1894 H 0.39857 0.31908 0.26408 0.0
H1895 H 0.41919 0.34976 0.19063 0.0
H1896 H 0.41016 0.32871 0.19321 0.0
H1897 H 0.42991 0.34112 0.20171 0.0
C1898 C 0.39187 0.28547 0.22125 0.0
C1899 C 0.40558 0.28488 0.21727 0.0
C1900 C 0.39274 0.29943 0.22717 0.0
C1901 C 0.4073 0.31318 0.22914 0.0
C1902 C 0.42106 0.31267 0.22546 0.0
H1903 H 0.41172 0.39859 0.27823 0.0
H1904 H 0.41821 0.37786 0.27239 0.0
C1905 C 0.42021 0.29861 0.21963 0.0
C1906 C 0.40781 0.32798 0.23479 0.0
H1907 H 0.41389 0.36298 0.2156 0.0
C1908 C 0.40215 0.32881 0.25363 0.0
C1909 C 0.41237 0.34056 0.22103 0.0
C1910 C 0.41818 0.34008 0.20044 0.0
C1911 C 0.40051 0.34171 0.25887 0.0
C1912 C 0.4047 0.35412 0.24492 0.0
C1913 C 0.41079 0.35349 0.2263 0.0
C1914 C 0.40128 0.36697 0.2485 0.0
C1915 C 0.39359 0.34166 0.27889 0.0
C1916 C 0.38977 0.36782 0.23687 0.0
C1917 C 0.38602 0.37954 0.24018 0.0
C1918 C 0.39378 0.39082 0.25513 0.0
C1919 C 0.40548 0.39008 0.26664 0.0
C1920 C 0.40918 0.37823 0.26337 0.0
H1921 H 0.38903 0.33022 0.28688 0.0
H1922 H 0.40275 0.35095 0.28838 0.0
H1923 H 0.3839 0.34427 0.27698 0.0
H1924 H 0.38354 0.35926 0.22532 0.0
H1925 H 0.37701 0.37974 0.23093 0.0
H1926 H 0.81355 0.19196 0.19129 0.0
H1927 H 0.78969 0.16725 0.19917 0.0
H1928 H 0.78606 0.18615 0.25525 0.0
H1929 H 0.8099 0.21089 0.24763 0.0
H1930 H 0.77994 0.14599 0.23701 0.0
H1931 H 0.74563 0.17579 0.21935 0.0
H1932 H 0.7654 0.18324 0.21055 0.0
H1933 H 0.76202 0.18552 0.23624 0.0
C1934 C 0.8079 0.19077 0.20551 0.0
C1935 C 0.81354 0.20348 0.21873 0.0
C1936 C 0.79427 0.17664 0.20996 0.0
C1937 C 0.78608 0.17504 0.22763 0.0
C1938 C 0.79221 0.18728 0.24145 0.0
H1939 H 0.69108 0.10655 0.26353 0.0
H1940 H 0.7174 0.1295 0.26114 0.0
C1941 C 0.80585 0.20138 0.23707 0.0
C1942 C 0.77045 0.16114 0.2308 0.0
H1943 H 0.73144 0.14934 0.22959 0.0
C1944 C 0.76931 0.14666 0.23545 0.0
C1945 C 0.75668 0.16218 0.22876 0.0
C1946 C 0.75736 0.17747 0.22333 0.0
C1947 C 0.75465 0.13312 0.23828 0.0
C1948 C 0.74083 0.13408 0.23589 0.0
C1949 C 0.74204 0.14863 0.23142 0.0
C1950 C 0.72498 0.1201 0.23748 0.0
C1951 C 0.75412 0.11797 0.24412 0.0
C1952 C 0.72042 0.10735 0.22468 0.0
C1953 C 0.70544 0.09422 0.22604 0.0
C1954 C 0.69463 0.09365 0.24007 0.0
C1955 C 0.69911 0.1066 0.25257 0.0
C1956 C 0.71415 0.11971 0.25126 0.0
H1957 H 0.76533 0.12015 0.2511 0.0
H1958 H 0.74442 0.11098 0.25472 0.0
H1959 H 0.75216 0.11087 0.23053 0.0
H1960 H 0.72843 0.10759 0.21354 0.0
H1961 H 0.70235 0.08452 0.21605 0.0
H1962 H 0.0265 0.49836 0.96394 0.0
H1963 H 0.02702 0.48401 0.93462 0.0
H1964 H 0.99442 0.49469 0.90428 0.0
H1965 H 0.99319 0.50815 0.93414 0.0
H1966 H 0.9866 0.46665 0.89626 0.0
H1967 H 0.05066 0.50121 0.88496 0.0
H1968 H 0.04616 0.49187 0.90906 0.0
H1969 H 0.04087 0.5066 0.90311 0.0
C1970 C 0.01948 0.49761 0.95096 0.0
C1971 C 0.00985 0.50439 0.95123 0.0
C1972 C 0.01988 0.48954 0.93411 0.0
C1973 C 0.0111 0.48858 0.91687 0.0
C1974 C 0.00136 0.49526 0.91727 0.0
H1975 H 0.03098 0.4638 0.80069 0.0
H1976 H 0.02912 0.47706 0.83024 0.0
C1977 C 0.00065 0.50296 0.93432 0.0
C1978 C 0.01178 0.48037 0.89859 0.0
H1979 H 0.03693 0.47759 0.86636 0.0
C1980 C 0.99763 0.46916 0.88965 0.0
C1981 C 0.02612 0.48376 0.88961 0.0
C1982 C 0.04178 0.49664 0.89706 0.0
C1983 C 0.99741 0.46123 0.87221 0.0
C1984 C 0.01175 0.46398 0.86389 0.0
C1985 C 0.02589 0.47526 0.87277 0.0
C1986 C 0.01247 0.45572 0.84568 0.0
C1987 C 0.98175 0.45043 0.86259 0.0
C1988 C 0.00382 0.43925 0.84434 0.0
C1989 C 0.00454 0.43167 0.82714 0.0
C1990 C 0.01436 0.44037 0.8112 0.0
C1991 C 0.02332 0.45678 0.81274 0.0
C1992 C 0.02228 0.46437 0.82969 0.0
H1993 H 0.97283 0.4537 0.86658 0.0
H1994 H 0.98263 0.45064 0.84606 0.0
H1995 H 0.97745 0.43825 0.86807 0.0
H1996 H 0.99661 0.43219 0.85667 0.0
H1997 H 0.99767 0.41899 0.82649 0.0
H1998 H 0.51736 0.56179 0.9164 0.0
H1999 H 0.53333 0.57423 0.88679 0.0
H2000 H 0.56852 0.61079 0.92365 0.0
H2001 H 0.55274 0.59797 0.95342 0.0
H2002 H 0.54182 0.6013 0.87023 0.0
H2003 H 0.59584 0.60034 0.89166 0.0
H2004 H 0.57788 0.58969 0.90557 0.0
H2005 H 0.59074 0.61036 0.90962 0.0
C2006 C 0.52855 0.57243 0.91818 0.0
C2007 C 0.53383 0.57889 0.93722 0.0
C2008 C 0.5377 0.57953 0.90125 0.0
C2009 C 0.55228 0.59336 0.90291 0.0
C2010 C 0.55756 0.59989 0.92196 0.0
H2011 H 0.59721 0.65687 0.80182 0.0
H2012 H 0.58215 0.64351 0.8317 0.0
C2013 C 0.54851 0.59261 0.93897 0.0
C2014 C 0.56152 0.60123 0.88458 0.0
H2015 H 0.59768 0.61621 0.86335 0.0
C2016 C 0.55402 0.60446 0.86871 0.0
C2017 C 0.57738 0.60519 0.88237 0.0
C2018 C 0.58588 0.60107 0.89812 0.0
C2019 C 0.5619 0.61163 0.85087 0.0
C2020 C 0.57796 0.61625 0.84903 0.0
C2021 C 0.58543 0.61286 0.86479 0.0
C2022 C 0.5872 0.62446 0.83084 0.0
C2023 C 0.55276 0.61376 0.83403 0.0
C2024 C 0.59556 0.61857 0.82069 0.0
C2025 C 0.60447 0.62639 0.8038 0.0
C2026 C 0.60513 0.64023 0.79662 0.0
C2027 C 0.59677 0.64612 0.80679 0.0
C2028 C 0.58806 0.63843 0.82384 0.0
H2029 H 0.54 0.60526 0.83528 0.0
H2030 H 0.55435 0.62574 0.83469 0.0
H2031 H 0.55682 0.61229 0.81923 0.0
H2032 H 0.59516 0.60786 0.8258 0.0
H2033 H 0.61081 0.62158 0.79633 0.0
H2034 H 0.50065 0.04951 0.9591 0.0
H2035 H 0.49073 0.05861 0.93091 0.0
H2036 H 0.45456 0.01086 0.92004 0.0
H2037 H 0.46425 0.00181 0.94794 0.0
H2038 H 0.48639 0.04599 0.88869 0.0
H2039 H 0.43198 0.03775 0.92384 0.0
H2040 H 0.44883 0.0405 0.93822 0.0
H2041 H 0.43555 0.02167 0.92774 0.0
C2042 C 0.49051 0.04104 0.95074 0.0
C2043 C 0.48328 0.02496 0.95556 0.0
C2044 C 0.48492 0.04622 0.93469 0.0
C2045 C 0.47187 0.03537 0.92361 0.0
C2046 C 0.46456 0.01939 0.92857 0.0
H2047 H 0.42925 0.01971 0.8107 0.0
H2048 H 0.44512 0.02263 0.84052 0.0
C2049 C 0.47021 0.01423 0.94438 0.0
C2050 C 0.46601 0.04034 0.90623 0.0
H2051 H 0.4326 0.0384 0.888 0.0
C2052 C 0.47478 0.04471 0.88857 0.0
C2053 C 0.45091 0.0387 0.90626 0.0
C2054 C 0.44129 0.03453 0.92507 0.0
C2055 C 0.46837 0.04648 0.87054 0.0
C2056 C 0.45283 0.04369 0.8703 0.0
C2057 C 0.44448 0.04038 0.88824 0.0
C2058 C 0.44452 0.04292 0.85147 0.0
C2059 C 0.47806 0.05085 0.85178 0.0
C2060 C 0.43887 0.0533 0.84793 0.0
C2061 C 0.42981 0.05166 0.83095 0.0
C2062 C 0.42609 0.03947 0.81739 0.0
C2063 C 0.43193 0.0292 0.82088 0.0
C2064 C 0.44109 0.03093 0.8378 0.0
H2065 H 0.4908 0.05667 0.85527 0.0
H2066 H 0.47484 0.04005 0.84326 0.0
H2067 H 0.47581 0.0588 0.84208 0.0
H2068 H 0.4413 0.06252 0.85844 0.0
H2069 H 0.42545 0.05974 0.82868 0.0
H2070 H 0.48744 0.06223 0.56625 0.0
H2071 H 0.46855 0.05761 0.59263 0.0
H2072 H 0.49982 0.05509 0.63639 0.0
H2073 H 0.51884 0.05998 0.61011 0.0
H2074 H 0.4532 0.03264 0.61726 0.0
H2075 H 0.48984 0.08583 0.66201 0.0
H2076 H 0.49517 0.08344 0.63716 0.0
H2077 H 0.49903 0.07426 0.65826 0.0
C2078 C 0.4903 0.06079 0.58152 0.0
C2079 C 0.50466 0.06158 0.58615 0.0
C2080 C 0.47952 0.05815 0.59657 0.0
C2081 C 0.48286 0.05622 0.61652 0.0
C2082 C 0.49716 0.05695 0.62118 0.0
H2083 H 0.41548 0.01435 0.71327 0.0
H2084 H 0.43256 0.01882 0.68467 0.0
C2085 C 0.50803 0.05975 0.60616 0.0
C2086 C 0.47118 0.05301 0.63235 0.0
H2087 H 0.46635 0.06608 0.67718 0.0
C2088 C 0.45603 0.04 0.63032 0.0
C2089 C 0.47483 0.06273 0.64925 0.0
C2090 C 0.49055 0.07743 0.65174 0.0
C2091 C 0.44449 0.03632 0.64485 0.0
C2092 C 0.44834 0.0457 0.66211 0.0
C2093 C 0.46343 0.05881 0.66401 0.0
C2094 C 0.43694 0.04235 0.67837 0.0
C2095 C 0.42824 0.02261 0.64137 0.0
C2096 C 0.43381 0.0541 0.68446 0.0
C2097 C 0.42428 0.05167 0.70095 0.0
C2098 C 0.41763 0.03739 0.71165 0.0
C2099 C 0.42034 0.02542 0.70519 0.0
C2100 C 0.43004 0.02794 0.68879 0.0
H2101 H 0.42598 0.01969 0.62525 0.0
H2102 H 0.42707 0.01213 0.64943 0.0
H2103 H 0.41913 0.02507 0.647 0.0
H2104 H 0.439 0.06531 0.67666 0.0
H2105 H 0.42238 0.0611 0.70553 0.0
H2106 H 0.07783 0.53992 0.57775 0.0
H2107 H 0.07209 0.52108 0.60522 0.0
H2108 H 0.02605 0.51561 0.61106 0.0
H2109 H 0.03169 0.53443 0.58381 0.0
H2110 H 0.06373 0.52182 0.64491 0.0
H2111 H 0.01641 0.4703 0.60572 0.0
H2112 H 0.0298 0.48825 0.59279 0.0
H2113 H 0.01347 0.4869 0.60624 0.0
C2114 C 0.06652 0.53479 0.58493 0.0
C2115 C 0.05518 0.53862 0.57835 0.0
C2116 C 0.06323 0.52396 0.6006 0.0
C2117 C 0.04853 0.51669 0.60995 0.0
C2118 C 0.03733 0.52074 0.60373 0.0
H2119 H 0.00468 0.44911 0.70724 0.0
H2120 H 0.01106 0.46837 0.68007 0.0
C2121 C 0.04059 0.53153 0.58809 0.0
C2122 C 0.04493 0.50504 0.62642 0.0
H2123 H 0.01951 0.46709 0.64046 0.0
C2124 C 0.05413 0.50983 0.64389 0.0
C2125 C 0.03237 0.48939 0.62511 0.0
C2126 C 0.02252 0.48332 0.6064 0.0
C2127 C 0.05089 0.4995 0.66024 0.0
C2128 C 0.03828 0.48388 0.65897 0.0
C2129 C 0.02913 0.47908 0.64147 0.0
C2130 C 0.03448 0.47228 0.67554 0.0
C2131 C 0.06078 0.50553 0.67892 0.0
C2132 C 0.04543 0.46791 0.68186 0.0
C2133 C 0.04182 0.45692 0.69735 0.0
C2134 C 0.02714 0.44998 0.70681 0.0
C2135 C 0.01611 0.45425 0.70032 0.0
C2136 C 0.01973 0.46525 0.68479 0.0
H2137 H 0.06712 0.51856 0.67949 0.0
H2138 H 0.05348 0.50078 0.69254 0.0
H2139 H 0.06964 0.50169 0.67917 0.0
H2140 H 0.05675 0.47291 0.67468 0.0
H2141 H 0.05057 0.45384 0.70188 0.0
H2142 H 0.52257 0.57319 0.58653 0.0
H2143 H 0.53745 0.59321 0.6113 0.0
H2144 H 0.55732 0.62826 0.56446 0.0
H2145 H 0.54221 0.60798 0.53937 0.0
H2146 H 0.57968 0.62676 0.58875 0.0
H2147 H 0.53585 0.62984 0.63615 0.0
H2148 H 0.53086 0.60987 0.63219 0.0
H2149 H 0.53131 0.62183 0.61124 0.0
C2150 C 0.5297 0.58526 0.58155 0.0
C2151 C 0.53116 0.58909 0.56108 0.0
C2152 C 0.53816 0.59673 0.59575 0.0
C2153 C 0.54839 0.6123 0.58982 0.0
C2154 C 0.54936 0.61635 0.56939 0.0
H2155 H 0.60357 0.67276 0.69028 0.0
H2156 H 0.5877 0.66445 0.65957 0.0
C2157 C 0.54066 0.60482 0.55509 0.0
C2158 C 0.55942 0.6235 0.60483 0.0
H2159 H 0.56054 0.63615 0.65242 0.0
C2160 C 0.57553 0.62915 0.60247 0.0
C2161 C 0.55409 0.62678 0.62269 0.0
C2162 C 0.53709 0.62189 0.62563 0.0
C2163 C 0.58626 0.63695 0.61804 0.0
C2164 C 0.58071 0.63896 0.63655 0.0
C2165 C 0.56479 0.63439 0.63836 0.0
C2166 C 0.59095 0.64457 0.65461 0.0
C2167 C 0.6034 0.6426 0.61468 0.0
C2168 C 0.59792 0.63608 0.66215 0.0
C2169 C 0.60693 0.64075 0.67968 0.0
C2170 C 0.60912 0.654 0.69014 0.0
C2171 C 0.60216 0.66253 0.68255 0.0
C2172 C 0.59309 0.65781 0.66501 0.0
H2173 H 0.60641 0.64486 0.59856 0.0
H2174 H 0.61098 0.6535 0.62311 0.0
H2175 H 0.60606 0.6334 0.61988 0.0
H2176 H 0.59614 0.62561 0.65468 0.0
H2177 H 0.61203 0.63385 0.68514 0.0
H2178 H 0.02245 0.58163 0.06053 0.0
H2179 H 0.02332 0.59903 0.08687 0.0
H2180 H 0.01796 0.56462 0.13149 0.0
H2181 H 0.01738 0.54725 0.10524 0.0
H2182 H 1.00024 0.59301 0.11584 0.0
H2183 H 0.05662 0.60545 0.15113 0.0
H2184 H 0.05081 0.59726 0.12644 0.0
H2185 H 0.0426 0.58497 0.14818 0.0
C2186 C 0.02164 0.57781 0.07594 0.0
C2187 C 0.01994 0.56304 0.08073 0.0
C2188 C 0.02205 0.58775 0.09099 0.0
C2189 C 0.02093 0.58323 0.11118 0.0
C2190 C 0.01911 0.56847 0.11604 0.0
H2191 H 0.99761 0.62069 0.21335 0.0
H2192 H 0.99859 0.60461 0.18651 0.0
C2193 C 0.01861 0.55847 0.10098 0.0
C2194 C 0.02122 0.5938 0.12708 0.0
H2195 H 0.04159 0.61437 0.16831 0.0
C2196 C 0.0093 0.59771 0.12728 0.0
C2197 C 0.03316 0.6001 0.14186 0.0
C2198 C 0.04662 0.59688 0.14188 0.0
C2199 C 0.00881 0.60744 0.14209 0.0
C2200 C 0.02047 0.61333 0.15724 0.0
C2201 C 0.03259 0.60974 0.15679 0.0
C2202 C 0.02013 0.62311 0.17377 0.0
C2203 C 0.99588 0.61145 0.14134 0.0
C2204 C 0.03211 0.63879 0.17582 0.0
C2205 C 0.03159 0.64806 0.19118 0.0
C2206 C 0.01915 0.64176 0.20492 0.0
C2207 C 0.00734 0.62595 0.20301 0.0
C2208 C 0.00783 0.61674 0.18761 0.0
H2209 H 0.99016 0.60916 0.12639 0.0
H2210 H 0.98682 0.60414 0.15251 0.0
H2211 H 1.00047 0.62398 0.14506 0.0
H2212 H 0.04176 0.64392 0.16536 0.0
H2213 H 0.04089 0.66016 0.19225 0.0
H2214 H 0.47456 0.53221 0.07443 0.0
H2215 H 0.45651 0.51805 0.10168 0.0
H2216 H 0.49373 0.51687 0.13479 0.0
H2217 H 0.51182 0.53056 0.10755 0.0
H2218 H 0.45078 0.48684 0.11889 0.0
H2219 H 0.47313 0.5355 0.17363 0.0
H2220 H 0.47603 0.53897 0.147 0.0
H2221 H 0.48743 0.53246 0.16099 0.0
C2222 C 0.47901 0.52891 0.08736 0.0
C2223 C 0.49482 0.53266 0.08854 0.0
C2224 C 0.46862 0.52087 0.10302 0.0
C2225 C 0.47384 0.51659 0.12031 0.0
C2226 C 0.48954 0.5203 0.12167 0.0
H2227 H 0.43079 0.46791 0.23152 0.0
H2228 H 0.4489 0.48419 0.2051 0.0
C2229 C 0.4999 0.5282 0.10599 0.0
C2230 C 0.46276 0.50767 0.13664 0.0
H2231 H 0.45372 0.51041 0.18499 0.0
C2232 C 0.45133 0.49199 0.13332 0.0
C2233 C 0.46367 0.5144 0.15546 0.0
C2234 C 0.47564 0.53129 0.15959 0.0
C2235 C 0.44092 0.48273 0.14848 0.0
C2236 C 0.44164 0.4895 0.1673 0.0
C2237 C 0.45311 0.50523 0.17058 0.0
C2238 C 0.43065 0.48041 0.18375 0.0
C2239 C 0.42958 0.46564 0.14433 0.0
C2240 C 0.41438 0.47326 0.18079 0.0
C2241 C 0.40403 0.46383 0.19576 0.0
C2242 C 0.40971 0.46158 0.2142 0.0
C2243 C 0.42602 0.46938 0.2175 0.0
C2244 C 0.43638 0.47868 0.2024 0.0
H2245 H 0.43363 0.46127 0.13183 0.0
H2246 H 0.42796 0.4582 0.15775 0.0
H2247 H 0.41803 0.46423 0.14001 0.0
H2248 H 0.40965 0.4748 0.16678 0.0
H2249 H 0.39155 0.45818 0.19279 0.0
H2250 H 0.55925 0.05622 0.06021 0.0
H2251 H 0.57595 0.06055 0.08945 0.0
H2252 H 0.54791 0.07442 0.12328 0.0
H2253 H 0.5308 0.06961 0.09404 0.0
H2254 H 0.59384 0.08547 0.11445 0.0
H2255 H 0.54375 0.03674 0.1552 0.0
H2256 H 0.54279 0.04037 0.12885 0.0
H2257 H 0.54111 0.05276 0.14694 0.0
C2258 C 0.55677 0.0604 0.0738 0.0
C2259 C 0.5436 0.06236 0.07492 0.0
C2260 C 0.56634 0.06292 0.09049 0.0
C2261 C 0.56297 0.06745 0.10868 0.0
C2262 C 0.55052 0.07059 0.10949 0.0
H2263 H 0.60772 0.06447 0.22271 0.0
H2264 H 0.5922 0.06997 0.1983 0.0
C2265 C 0.54088 0.06804 0.09271 0.0
C2266 C 0.5719 0.06772 0.12686 0.0
H2267 H 0.56848 0.04782 0.1706 0.0
C2268 C 0.58827 0.0774 0.12687 0.0
C2269 C 0.56461 0.05714 0.14306 0.0
C2270 C 0.54712 0.04606 0.14357 0.0
C2271 C 0.59758 0.07642 0.14226 0.0
C2272 C 0.59035 0.06537 0.15794 0.0
C2273 C 0.57395 0.05625 0.15851 0.0
C2274 C 0.59968 0.06214 0.17283 0.0
C2275 C 0.61514 0.08696 0.1414 0.0
C2276 C 0.60873 0.05561 0.16662 0.0
C2277 C 0.61748 0.05235 0.18047 0.0
C2278 C 0.61738 0.05556 0.20087 0.0
C2279 C 0.60811 0.06191 0.20711 0.0
C2280 C 0.59925 0.06507 0.1932 0.0
H2281 H 0.61847 0.09747 0.13178 0.0
H2282 H 0.62015 0.09088 0.15658 0.0
H2283 H 0.62046 0.08037 0.13501 0.0
H2284 H 0.60898 0.05299 0.15101 0.0
H2285 H 0.62444 0.04744 0.1751 0.0
H2286 H 0.56951 0.09753 0.4483 0.0
H2287 H 0.58245 0.09769 0.41711 0.0
H2288 H 0.57358 0.05092 0.43028 0.0
H2289 H 0.56087 0.05069 0.46151 0.0
H2290 H 0.60767 0.07878 0.41717 0.0
H2291 H 0.55633 0.06476 0.36782 0.0
H2292 H 0.56123 0.07853 0.3879 0.0
H2293 H 0.55387 0.05818 0.39358 0.0
C2294 C 0.57045 0.08735 0.44467 0.0
C2295 C 0.56406 0.07406 0.45737 0.0
C2296 C 0.57775 0.08743 0.42681 0.0
C2297 C 0.57884 0.07428 0.42144 0.0
C2298 C 0.57276 0.06114 0.43419 0.0
H2299 H 0.60027 0.04257 0.3136 0.0
H2300 H 0.58874 0.04629 0.34374 0.0
C2301 C 0.56541 0.06101 0.45196 0.0
C2302 C 0.58624 0.07409 0.40246 0.0
H2303 H 0.57888 0.06725 0.35256 0.0
C2304 C 0.60148 0.0764 0.40298 0.0
C2305 C 0.57798 0.07078 0.38414 0.0
C2306 C 0.56141 0.06786 0.38312 0.0
C2307 C 0.6087 0.07535 0.38556 0.0
C2308 C 0.60046 0.07209 0.36713 0.0
C2309 C 0.58521 0.06985 0.36666 0.0
C2310 C 0.60721 0.07025 0.34835 0.0
C2311 C 0.62485 0.0772 0.38719 0.0
C2312 C 0.62125 0.08261 0.34068 0.0
C2313 C 0.62794 0.08048 0.32353 0.0
C2314 C 0.62058 0.06602 0.3136 0.0
C2315 C 0.60624 0.05385 0.32092 0.0
C2316 C 0.59963 0.05595 0.33814 0.0
H2317 H 0.62785 0.07575 0.40285 0.0
H2318 H 0.62579 0.06852 0.37773 0.0
H2319 H 0.63366 0.08914 0.38196 0.0
H2320 H 0.62712 0.09386 0.34805 0.0
H2321 H 0.63892 0.09013 0.31817 0.0
H2322 H 0.02851 0.57746 0.44544 0.0
H2323 H 0.02266 0.58853 0.41593 0.0
H2324 H 0.07182 0.62224 0.4093 0.0
H2325 H 0.07775 0.61147 0.43931 0.0
H2326 H 0.05322 0.63579 0.40675 0.0
H2327 H 0.02969 0.58432 0.35709 0.0
H2328 H 0.02022 0.57972 0.38097 0.0
H2329 H 0.04074 0.58583 0.37953 0.0
C2330 C 0.03811 0.58725 0.43779 0.0
C2331 C 0.05362 0.59361 0.44488 0.0
C2332 C 0.03475 0.59344 0.42071 0.0
C2333 C 0.04681 0.60606 0.41018 0.0
C2334 C 0.06233 0.6124 0.41708 0.0
H2335 H 0.03141 0.6425 0.29636 0.0
H2336 H 0.04041 0.63057 0.3219 0.0
C2337 C 0.06572 0.60618 0.43419 0.0
C2338 C 0.04303 0.6132 0.39274 0.0
H2339 H 0.02398 0.60459 0.34761 0.0
C2340 C 0.04697 0.629 0.39373 0.0
C2341 C 0.03506 0.60442 0.3756 0.0
C2342 C 0.03132 0.58768 0.37309 0.0
C2343 C 0.04263 0.63609 0.37846 0.0
C2344 C 0.03387 0.62706 0.36187 0.0
C2345 C 0.03049 0.61144 0.36046 0.0
C2346 C 0.02783 0.63357 0.34613 0.0
C2347 C 0.04746 0.6532 0.38025 0.0
C2348 C 0.01741 0.6388 0.35114 0.0
C2349 C 0.01223 0.64559 0.33662 0.0
C2350 C 0.01729 0.64724 0.31669 0.0
C2351 C 0.02729 0.64146 0.31155 0.0
C2352 C 0.03248 0.63465 0.32614 0.0
H2353 H 0.05765 0.65944 0.39051 0.0
H2354 H 0.05055 0.6592 0.36543 0.0
H2355 H 0.03756 0.65416 0.38639 0.0
H2356 H 0.01337 0.63775 0.36637 0.0
H2357 H 0.00445 0.64978 0.34114 0.0
H2358 H 0.49535 0.55846 0.44975 0.0
H2359 H 0.48124 0.54885 0.41772 0.0
H2360 H 0.45228 0.50317 0.44448 0.0
H2361 H 0.46627 0.51258 0.47609 0.0
H2362 H 0.48015 0.52266 0.39686 0.0
H2363 H 0.42056 0.51176 0.41361 0.0
H2364 H 0.43764 0.52501 0.42806 0.0
H2365 H 0.4282 0.50417 0.4325 0.0
C2366 C 0.48569 0.54651 0.44886 0.0
C2367 C 0.48189 0.53626 0.46538 0.0
C2368 C 0.47771 0.54101 0.43057 0.0
C2369 C 0.46562 0.52532 0.42877 0.0
C2370 C 0.46138 0.51537 0.44557 0.0
H2371 H 0.42994 0.45559 0.33841 0.0
H2372 H 0.44399 0.47387 0.36555 0.0
C2373 C 0.46945 0.52075 0.46362 0.0
C2374 C 0.45831 0.51863 0.40911 0.0
H2375 H 0.42267 0.49744 0.38614 0.0
C2376 C 0.46763 0.5174 0.39433 0.0
C2377 C 0.44199 0.51183 0.40577 0.0
C2378 C 0.43151 0.51337 0.42074 0.0
C2379 C 0.46092 0.50881 0.3768 0.0
C2380 C 0.44446 0.50114 0.37408 0.0
C2381 C 0.43526 0.50314 0.38833 0.0
C2382 C 0.43649 0.49044 0.35704 0.0
C2383 C 0.47149 0.50781 0.36148 0.0
C2384 C 0.42741 0.49355 0.34337 0.0
C2385 C 0.41936 0.48311 0.32784 0.0
C2386 C 0.42007 0.46925 0.32578 0.0
C2387 C 0.42919 0.46618 0.33949 0.0
C2388 C 0.4373 0.47667 0.35496 0.0
H2389 H 0.48375 0.51763 0.36295 0.0
H2390 H 0.47156 0.49664 0.36371 0.0
H2391 H 0.46723 0.50796 0.34607 0.0
H2392 H 0.42652 0.50404 0.34477 0.0
H2393 H 0.4124 0.48582 0.31759 0.0
H2394 H 0.73056 0.87972 0.27978 0.0
H2395 H 0.72201 0.8615 0.25226 0.0
H2396 H 0.67423 0.84018 0.2725 0.0
H2397 H 0.68278 0.85879 0.30051 0.0
H2398 H 0.70697 0.8288 0.25381 0.0
H2399 H 0.67107 0.84949 0.21246 0.0
H2400 H 0.68485 0.86102 0.23179 0.0
H2401 H 0.66651 0.8441 0.23837 0.0
C2402 C 0.71818 0.87123 0.27853 0.0
C2403 C 0.70736 0.87083 0.29248 0.0
C2404 C 0.71332 0.86075 0.26268 0.0
C2405 C 0.69747 0.84951 0.26009 0.0
C2406 C 0.68652 0.8489 0.27398 0.0
H2407 H 0.66289 0.78566 0.15613 0.0
H2408 H 0.66347 0.79799 0.18807 0.0
C2409 C 0.69142 0.85948 0.29007 0.0
C2410 C 0.69292 0.83852 0.24288 0.0
H2411 H 0.67488 0.83033 0.197 0.0
C2412 C 0.69978 0.829 0.24152 0.0
C2413 C 0.68351 0.8387 0.22679 0.0
C2414 C 0.67609 0.84892 0.22722 0.0
C2415 C 0.69793 0.82011 0.22438 0.0
C2416 C 0.68918 0.82089 0.20788 0.0
C2417 C 0.68167 0.8298 0.20958 0.0
C2418 C 0.68862 0.81339 0.18839 0.0
C2419 C 0.70557 0.81009 0.224 0.0
C2420 C 0.70251 0.81807 0.17774 0.0
C2421 C 0.70221 0.81109 0.15952 0.0
C2422 C 0.688 0.79925 0.1514 0.0
C2423 C 0.67405 0.79468 0.16197 0.0
C2424 C 0.67435 0.80174 0.18022 0.0
H2425 H 0.70772 0.80707 0.23935 0.0
H2426 H 0.69821 0.79904 0.21572 0.0
H2427 H 0.71705 0.81668 0.21637 0.0
H2428 H 0.71363 0.82722 0.18349 0.0
H2429 H 0.71317 0.815 0.1518 0.0
H2430 H 0.19182 0.89851 0.29466 0.0
H2431 H 0.20361 0.91046 0.26255 0.0
H2432 H 0.21538 0.95601 0.2847 0.0
H2433 H 0.20369 0.94416 0.31706 0.0
H2434 H 0.19873 0.92966 0.23417 0.0
H2435 H 0.25808 0.96062 0.26903 0.0
H2436 H 0.24134 0.94498 0.28164 0.0
H2437 H 0.24363 0.96426 0.27997 0.0
C2438 C 0.19671 0.91105 0.29267 0.0
C2439 C 0.19692 0.92039 0.30856 0.0
C2440 C 0.20344 0.91786 0.27426 0.0
C2441 C 0.21062 0.93415 0.27132 0.0
C2442 C 0.21012 0.94343 0.28674 0.0
H2443 H 0.25072 0.9826 0.1571 0.0
H2444 H 0.23471 0.97256 0.18733 0.0
C2445 C 0.20332 0.93662 0.3052 0.0
C2446 C 0.21943 0.94139 0.25257 0.0
H2447 H 0.25649 0.96452 0.23447 0.0
C2448 C 0.21134 0.93739 0.23422 0.0
C2449 C 0.23592 0.95129 0.25265 0.0
C2450 C 0.24534 0.95549 0.27182 0.0
C2451 C 0.21931 0.94298 0.21595 0.0
C2452 C 0.23579 0.95291 0.21606 0.0
C2453 C 0.24385 0.95698 0.23442 0.0
C2454 C 0.24504 0.95867 0.1973 0.0
C2455 C 0.21011 0.93784 0.19666 0.0
C2456 C 0.25627 0.95433 0.19293 0.0
C2457 C 0.26542 0.96006 0.17569 0.0
C2458 C 0.26365 0.97036 0.16251 0.0
C2459 C 0.25234 0.97464 0.16687 0.0
C2460 C 0.24313 0.96886 0.18411 0.0
H2461 H 0.19811 0.92771 0.19896 0.0
H2462 H 0.209 0.94772 0.19022 0.0
H2463 H 0.21625 0.93454 0.18559 0.0
H2464 H 0.25797 0.94652 0.20291 0.0
H2465 H 0.27405 0.95655 0.17285 0.0
H2466 H 0.18067 0.41755 0.26816 0.0
H2467 H 0.16577 0.41292 0.23683 0.0
H2468 H 0.12854 0.36955 0.26113 0.0
H2469 H 0.14316 0.37417 0.29243 0.0
H2470 H 0.15226 0.38349 0.21116 0.0
H2471 H 0.1087 0.3975 0.24299 0.0
H2472 H 0.12779 0.40423 0.25417 0.0
H2473 H 0.11267 0.38413 0.25714 0.0
C2474 C 0.16929 0.40708 0.26681 0.0
C2475 C 0.16309 0.39622 0.2827 0.0
C2476 C 0.16087 0.4044 0.24892 0.0
C2477 C 0.14611 0.39092 0.24681 0.0
C2478 C 0.13993 0.38002 0.26257 0.0
H2479 H 0.08523 0.3547 0.1416 0.0
H2480 H 0.10117 0.35689 0.17127 0.0
C2481 C 0.14835 0.38264 0.28037 0.0
C2482 C 0.13688 0.38839 0.22834 0.0
H2483 H 0.10445 0.38839 0.20984 0.0
C2484 C 0.14179 0.38452 0.2108 0.0
C2485 C 0.12328 0.38979 0.22809 0.0
C2486 C 0.11778 0.39424 0.24653 0.0
C2487 C 0.13336 0.38201 0.19286 0.0
C2488 C 0.11975 0.3834 0.19264 0.0
C2489 C 0.11485 0.38724 0.2102 0.0
C2490 C 0.11095 0.38197 0.17407 0.0
C2491 C 0.13917 0.37824 0.17416 0.0
C2492 C 0.11127 0.39534 0.16599 0.0
C2493 C 0.10226 0.39415 0.14919 0.0
C2494 C 0.09266 0.37951 0.14026 0.0
C2495 C 0.09253 0.36612 0.14819 0.0
C2496 C 0.10164 0.36735 0.16504 0.0
H2497 H 0.15096 0.3795 0.1763 0.0
H2498 H 0.13084 0.36597 0.16976 0.0
H2499 H 0.1397 0.38605 0.16165 0.0
H2500 H 0.11838 0.4067 0.17284 0.0
H2501 H 0.10264 0.40469 0.14343 0.0
H2502 H 0.12643 0.30753 0.93404 0.0
H2503 H 0.11176 0.31133 0.9606 0.0
H2504 H 0.10662 0.34464 0.9232 0.0
H2505 H 0.1207 0.3405 0.89647 0.0
H2506 H 0.12115 0.33903 0.97928 0.0
H2507 H 0.06271 0.3183 0.94497 0.0
H2508 H 0.07681 0.31364 0.93485 0.0
H2509 H 0.07823 0.33229 0.92934 0.0
C2510 C 0.12184 0.31537 0.93132 0.0
C2511 C 0.12484 0.3238 0.9132 0.0
C2512 C 0.11353 0.31758 0.94653 0.0
C2513 C 0.10795 0.32814 0.94379 0.0
C2514 C 0.11054 0.33621 0.92551 0.0
H2515 H 0.09463 0.38358 0.0307 0.0
H2516 H 0.10309 0.37311 0.00366 0.0
C2517 C 0.11881 0.334 0.91034 0.0
C2518 C 0.10077 0.33192 0.96057 0.0
H2519 H 0.06914 0.33539 0.97321 0.0
C2520 C 0.10969 0.33803 0.97805 0.0
C2521 C 0.08575 0.33048 0.95903 0.0
C2522 C 0.07526 0.32317 0.94111 0.0
C2523 C 0.10427 0.34333 0.99372 0.0
C2524 C 0.08967 0.34277 0.99167 0.0
C2525 C 0.08044 0.33605 0.97457 0.0
C2526 C 0.08392 0.34927 0.00709 0.0
C2527 C 0.11423 0.34953 0.01233 0.0
C2528 C 0.07001 0.33945 0.01739 0.0
C2529 C 0.06508 0.34542 0.03276 0.0
C2530 C 0.07397 0.36133 0.038 0.0
C2531 C 0.08759 0.37126 0.02712 0.0
C2532 C 0.09248 0.36528 0.01175 0.0
H2533 H 0.12272 0.34523 0.01383 0.0
H2534 H 0.12101 0.36254 0.01151 0.0
H2535 H 0.10686 0.34604 0.02594 0.0
H2536 H 0.06319 0.32708 0.01389 0.0
H2537 H 0.05451 0.33749 0.04083 0.0
H2538 H 0.70756 0.88622 0.90639 0.0
H2539 H 0.70587 0.8735 0.93868 0.0
H2540 H 0.66697 0.83044 0.91687 0.0
H2541 H 0.66868 0.84302 0.88437 0.0
H2542 H 0.68208 0.85868 0.9668 0.0
H2543 H 0.69824 0.8168 0.9353 0.0
H2544 H 0.70038 0.83364 0.92143 0.0
H2545 H 0.68143 0.81631 0.92373 0.0
C2546 C 0.69853 0.87408 0.90845 0.0
C2547 C 0.68832 0.86564 0.89263 0.0
C2548 C 0.69759 0.86681 0.92698 0.0
C2549 C 0.68649 0.85091 0.93015 0.0
C2550 C 0.67585 0.84262 0.91469 0.0
H2551 H 0.66442 0.80126 0.04584 0.0
H2552 H 0.66367 0.81438 0.01474 0.0
C2553 C 0.67677 0.84989 0.89613 0.0
C2554 C 0.68639 0.84299 0.94944 0.0
H2555 H 0.69141 0.81355 0.9695 0.0
C2556 C 0.68408 0.84879 0.96739 0.0
C2557 C 0.68925 0.83022 0.95029 0.0
C2558 C 0.69262 0.82393 0.93171 0.0
C2559 C 0.6844 0.8421 0.98606 0.0
C2560 C 0.68693 0.82912 0.98686 0.0
C2561 C 0.68936 0.82341 0.96893 0.0
C2562 C 0.68744 0.82149 0.00612 0.0
C2563 C 0.68242 0.84925 0.0048 0.0
C2564 C 0.70095 0.82086 0.0116 0.0
C2565 C 0.7014 0.81332 0.02936 0.0
C2566 C 0.68829 0.8061 0.04202 0.0
C2567 C 0.67477 0.80677 0.03653 0.0
C2568 C 0.67434 0.81435 0.01877 0.0
H2569 H 0.68459 0.86135 1.00205 0.0
H2570 H 0.67022 0.84197 0.01025 0.0
H2571 H 0.6905 0.84962 0.01679 0.0
H2572 H 0.7112 0.82622 1.00209 0.0
H2573 H 0.71198 0.813 0.03304 0.0
H2574 H 0.20197 0.91111 0.91611 0.0
H2575 H 0.21756 0.92168 0.94648 0.0
H2576 H 0.21411 0.96354 0.9399 0.0
H2577 H 0.19857 0.95311 0.90939 0.0
H2578 H 0.24611 0.94898 0.95197 0.0
H2579 H 0.19993 0.95016 0.99746 0.0
H2580 H 0.19563 0.93956 0.9743 0.0
H2581 H 0.20368 0.96048 0.97398 0.0
C2582 C 0.20457 0.92261 0.92096 0.0
C2583 C 0.1989 0.9312 0.91017 0.0
C2584 C 0.21346 0.92862 0.93845 0.0
C2585 C 0.21684 0.94331 0.9457 0.0
C2586 C 0.21137 0.95201 0.9349 0.0
H2587 H 0.26929 0.99762 0.05008 0.0
H2588 H 0.25451 0.98871 0.01864 0.0
C2589 C 0.20246 0.94601 0.9174 0.0
C2590 C 0.22634 0.9496 0.96433 0.0
H2591 H 0.22542 0.96181 0.01165 0.0
C2592 C 0.24156 0.95175 0.96503 0.0
C2593 C 0.22045 0.95327 0.98139 0.0
C2594 C 0.20398 0.95064 0.9819 0.0
C2595 C 0.25108 0.95758 0.98219 0.0
C2596 C 0.24515 0.96113 0.9993 0.0
C2597 C 0.22999 0.95912 0.99855 0.0
C2598 C 0.25439 0.96665 0.01824 0.0
C2599 C 0.26753 0.96016 0.98171 0.0
C2600 C 0.25913 0.95717 0.02863 0.0
C2601 C 0.26757 0.96223 0.04659 0.0
C2602 C 0.27142 0.97687 0.05466 0.0
C2603 C 0.2666 0.98632 0.04427 0.0
C2604 C 0.25812 0.98123 0.02631 0.0
H2605 H 0.27173 0.96103 0.96615 0.0
H2606 H 0.27584 0.971 0.98978 0.0
H2607 H 0.26769 0.95007 0.98915 0.0
H2608 H 0.25613 0.94575 0.02296 0.0
H2609 H 0.271 0.9546 0.05423 0.0
H2610 H 0.731 0.93965 0.39852 0.0
H2611 H 0.72338 0.94752 0.42864 0.0
H2612 H 0.67922 0.90414 0.42887 0.0
H2613 H 0.68684 0.89601 0.39822 0.0
H2614 H 0.69624 0.95093 0.43386 0.0
H2615 H 0.69785 0.90745 0.48675 0.0
H2616 H 0.70761 0.91208 0.46287 0.0
H2617 H 0.68667 0.90019 0.464 0.0
C2618 C 0.71964 0.93165 0.40487 0.0
C2619 C 0.70956 0.9171 0.39585 0.0
C2620 C 0.7153 0.93624 0.42217 0.0
C2621 C 0.7008 0.92642 0.43119 0.0
C2622 C 0.69057 0.91186 0.42232 0.0
H2623 H 0.66705 0.94411 0.54367 0.0
H2624 H 0.66997 0.93197 0.51355 0.0
C2625 C 0.6949 0.90725 0.40475 0.0
C2626 C 0.69661 0.93188 0.44962 0.0
H2627 H 0.69261 0.92628 0.5003 0.0
C2628 C 0.69531 0.94546 0.44837 0.0
C2629 C 0.69539 0.92476 0.46856 0.0
C2630 C 0.69702 0.91035 0.47083 0.0
C2631 C 0.69298 0.95219 0.46548 0.0
C2632 C 0.69236 0.94544 0.48457 0.0
C2633 C 0.69321 0.93157 0.48576 0.0
C2634 C 0.69101 0.9527 0.50341 0.0
C2635 C 0.69106 0.96641 0.46284 0.0
C2636 C 0.70207 0.96831 0.50817 0.0
C2637 C 0.7004 0.97532 0.52538 0.0
C2638 C 0.68771 0.96683 0.53841 0.0
C2639 C 0.67696 0.95103 0.53399 0.0
C2640 C 0.6786 0.94405 0.51673 0.0
H2641 H 0.68698 0.96712 0.44749 0.0
H2642 H 0.68257 0.96628 0.47373 0.0
H2643 H 0.70255 0.97717 0.46526 0.0
H2644 H 0.712 0.97514 0.4985 0.0
H2645 H 0.70896 0.98746 0.52834 0.0
H2646 H 0.12862 0.86105 0.37646 0.0
H2647 H 0.11249 0.84679 0.40536 0.0
H2648 H 0.15292 0.87026 0.44397 0.0
H2649 H 0.16907 0.88469 0.41528 0.0
H2650 H 0.11757 0.82632 0.42916 0.0
H2651 H 0.1195 0.87357 0.47553 0.0
H2652 H 0.12484 0.87642 0.44944 0.0
H2653 H 0.13839 0.87691 0.46807 0.0
C2654 C 0.13402 0.86347 0.39115 0.0
C2655 C 0.15017 0.87404 0.39349 0.0
C2656 C 0.12479 0.85524 0.40766 0.0
C2657 C 0.13145 0.85751 0.42689 0.0
C2658 C 0.14743 0.86849 0.42938 0.0
H2659 H 0.09513 0.80844 0.54164 0.0
H2660 H 0.11214 0.82588 0.51495 0.0
C2661 C 0.15668 0.8767 0.41289 0.0
C2662 C 0.12202 0.84745 0.44397 0.0
H2663 H 0.10879 0.84829 0.49072 0.0
C2664 C 0.11559 0.83113 0.44256 0.0
C2665 C 0.1196 0.85373 0.4616 0.0
C2666 C 0.12582 0.8711 0.46376 0.0
C2667 C 0.10687 0.82095 0.45827 0.0
C2668 C 0.10424 0.82718 0.47578 0.0
C2669 C 0.11083 0.84352 0.47733 0.0
C2670 C 0.09404 0.81683 0.49215 0.0
C2671 C 0.10074 0.80358 0.45606 0.0
C2672 C 0.07819 0.80612 0.48829 0.0
C2673 C 0.0685 0.79618 0.50341 0.0
C2674 C 0.07437 0.79673 0.52289 0.0
C2675 C 0.09023 0.80763 0.52683 0.0
C2676 C 0.09996 0.81763 0.5116 0.0
H2677 H 0.1074 0.80121 0.44468 0.0
H2678 H 0.10135 0.79816 0.47049 0.0
H2679 H 0.08829 0.79779 0.45117 0.0
H2680 H 0.07327 0.80549 0.47353 0.0
H2681 H 0.05635 0.78805 0.49977 0.0
H2682 H 0.20111 0.40615 0.44164 0.0
H2683 H 0.21488 0.40214 0.46996 0.0
H2684 H 0.23975 0.38887 0.42918 0.0
H2685 H 0.22647 0.39331 0.40098 0.0
H2686 H 0.21345 0.37392 0.4802 0.0
H2687 H 0.27477 0.41986 0.46511 0.0
H2688 H 0.25821 0.41999 0.45336 0.0
H2689 H 0.26547 0.40783 0.44375 0.0
C2690 C 0.20979 0.40275 0.43873 0.0
C2691 C 0.21268 0.4 0.4191 0.0
C2692 C 0.21755 0.40035 0.4549 0.0
C2693 C 0.22844 0.39537 0.45163 0.0
C2694 C 0.2316 0.39299 0.43202 0.0
H2695 H 0.28035 0.36006 0.51556 0.0
H2696 H 0.2661 0.36722 0.49137 0.0
C2697 C 0.22387 0.39537 0.41593 0.0
C2698 C 0.23579 0.39158 0.46862 0.0
H2699 H 0.27123 0.39888 0.48721 0.0
C2700 C 0.22607 0.37953 0.48196 0.0
C2701 C 0.25226 0.39891 0.47082 0.0
C2702 C 0.26328 0.41247 0.45761 0.0
C2703 C 0.23243 0.37415 0.49693 0.0
C2704 C 0.24888 0.38113 0.49864 0.0
C2705 C 0.25859 0.39347 0.48569 0.0
C2706 C 0.25636 0.37566 0.51354 0.0
C2707 C 0.22154 0.36069 0.51035 0.0
C2708 C 0.25543 0.37791 0.534 0.0
C2709 C 0.26357 0.37385 0.54788 0.0
C2710 C 0.27281 0.36751 0.5415 0.0
C2711 C 0.27334 0.36489 0.52099 0.0
C2712 C 0.26524 0.369 0.50714 0.0
H2713 H 0.20926 0.35471 0.50469 0.0
H2714 H 0.22549 0.35193 0.5118 0.0
H2715 H 0.22168 0.36521 0.52548 0.0
H2716 H 0.24878 0.38322 0.53918 0.0
H2717 H 0.26292 0.37604 0.56356 0.0
H2718 H 0.18366 0.3563 0.77908 0.0
H2719 H 0.19996 0.3627 0.7493 0.0
H2720 H 0.19196 0.3154 0.7485 0.0
H2721 H 0.17583 0.30899 0.77859 0.0
H2722 H 0.2241 0.33964 0.74691 0.0
H2723 H 0.18745 0.34893 0.69059 0.0
H2724 H 0.19059 0.35931 0.71361 0.0
H2725 H 0.17958 0.33823 0.71371 0.0
C2726 C 0.1853 0.34724 0.7725 0.0
C2727 C 0.17853 0.33216 0.78121 0.0
C2728 C 0.19448 0.35087 0.75539 0.0
C2729 C 0.19702 0.33948 0.74664 0.0
C2730 C 0.19003 0.32432 0.75501 0.0
H2731 H 0.24325 0.34281 0.63658 0.0
H2732 H 0.22464 0.33719 0.6636 0.0
C2733 C 0.18076 0.32064 0.7721 0.0
C2734 C 0.20787 0.34374 0.72961 0.0
H2735 H 0.2135 0.35656 0.68109 0.0
C2736 C 0.22178 0.34329 0.73249 0.0
C2737 C 0.20474 0.34846 0.71086 0.0
C2738 C 0.18972 0.34866 0.70686 0.0
C2739 C 0.23277 0.34759 0.71711 0.0
C2740 C 0.22979 0.3526 0.69848 0.0
C2741 C 0.2158 0.35288 0.69551 0.0
C2742 C 0.24078 0.35687 0.68161 0.0
C2743 C 0.24736 0.34649 0.7208 0.0
C2744 C 0.25589 0.37003 0.68265 0.0
C2745 C 0.26658 0.37331 0.66721 0.0
C2746 C 0.26228 0.36345 0.65054 0.0
C2747 C 0.24694 0.35059 0.64928 0.0
C2748 C 0.23628 0.34737 0.66466 0.0
H2749 H 0.24639 0.3395 0.73447 0.0
H2750 H 0.24977 0.34109 0.70785 0.0
H2751 H 0.25754 0.35848 0.72272 0.0
H2752 H 0.25948 0.37761 0.69554 0.0
H2753 H 0.27829 0.38333 0.66856 0.0
H2754 H 0.67471 0.88223 0.77671 0.0
H2755 H 0.67153 0.89571 0.74753 0.0
H2756 H 0.70365 0.94044 0.77365 0.0
H2757 H 0.70631 0.92702 0.80326 0.0
H2758 H 0.68116 0.94254 0.75673 0.0
H2759 H 0.70089 0.91458 0.7021 0.0
H2760 H 0.68412 0.9002 0.71562 0.0
H2761 H 0.7023 0.91228 0.7287 0.0
C2762 C 0.68099 0.89495 0.77633 0.0
C2763 C 0.69079 0.90352 0.79236 0.0
C2764 C 0.67933 0.90266 0.75947 0.0
C2765 C 0.68774 0.91915 0.75795 0.0
C2766 C 0.69713 0.92773 0.77425 0.0
H2767 H 0.69743 0.96993 0.64405 0.0
H2768 H 0.70207 0.95709 0.67311 0.0
C2769 C 0.6986 0.92002 0.79127 0.0
C2770 C 0.68653 0.92746 0.73961 0.0
H2771 H 0.68851 0.92837 0.68848 0.0
C2772 C 0.68289 0.93947 0.74184 0.0
C2773 C 0.68915 0.92385 0.72007 0.0
C2774 C 0.69451 0.91215 0.71647 0.0
C2775 C 0.68136 0.94759 0.72524 0.0
C2776 C 0.6829 0.94323 0.70564 0.0
C2777 C 0.68703 0.93157 0.7034 0.0
C2778 C 0.67994 0.95042 0.68739 0.0
C2779 C 0.67841 0.961 0.72902 0.0
C2780 C 0.66578 0.95053 0.68526 0.0
C2781 C 0.66324 0.95803 0.6689 0.0
C2782 C 0.6746 0.9653 0.65387 0.0
C2783 C 0.68845 0.96447 0.65536 0.0
C2784 C 0.69111 0.95715 0.672 0.0
H2785 H 0.68297 0.96627 0.74391 0.0
H2786 H 0.68397 0.97036 0.71744 0.0
H2787 H 0.66559 0.95652 0.72886 0.0
H2788 H 0.65668 0.94492 0.69639 0.0
H2789 H 0.65232 0.95819 0.6681 0.0
H2790 H 0.13904 0.8549 0.79039 0.0
H2791 H 0.12823 0.83905 0.76049 0.0
H2792 H 0.13429 0.87977 0.72766 0.0
H2793 H 0.14575 0.89588 0.75724 0.0
H2794 H 0.10247 0.83245 0.73852 0.0
H2795 H 0.15501 0.86366 0.69062 0.0
H2796 H 0.15568 0.86677 0.7172 0.0
H2797 H 0.14859 0.87636 0.70044 0.0
C2798 C 0.13833 0.86061 0.77679 0.0
C2799 C 0.1435 0.87681 0.77635 0.0
C2800 C 0.13201 0.85145 0.75968 0.0
C2801 C 0.13071 0.85823 0.74164 0.0
C2802 C 0.13552 0.8743 0.74122 0.0
H2803 H 0.08972 0.82295 0.62502 0.0
H2804 H 0.10281 0.83874 0.65449 0.0
C2805 C 0.1419 0.8835 0.75831 0.0
C2806 C 0.12395 0.84838 0.72348 0.0
H2807 H 0.13134 0.84515 0.67445 0.0
C2808 C 0.10884 0.83517 0.72456 0.0
C2809 C 0.13225 0.85188 0.70522 0.0
C2810 C 0.14884 0.86534 0.70329 0.0
C2811 C 0.10168 0.82563 0.70784 0.0
C2812 C 0.1099 0.82925 0.68955 0.0
C2813 C 0.12503 0.84239 0.68846 0.0
C2814 C 0.1028 0.81975 0.67125 0.0
C2815 C 0.08519 0.81198 0.70974 0.0
C2816 C 0.0988 0.8039 0.67062 0.0
C2817 C 0.09137 0.79483 0.65372 0.0
C2818 C 0.08778 0.80144 0.63709 0.0
C2819 C 0.09227 0.81746 0.63755 0.0
C2820 C 0.09975 0.82652 0.6544 0.0
H2821 H 0.07928 0.81282 0.72333 0.0
H2822 H 0.07803 0.81131 0.69643 0.0
H2823 H 0.08556 0.8009 0.71077 0.0
H2824 H 0.10127 0.79848 0.68331 0.0
H2825 H 0.0881 0.78255 0.65388 0.0
H2826 H 0.40102 0.22822 0.62382 0.0
H2827 H 0.39443 0.21011 0.59631 0.0
H2828 H 0.35046 0.17808 0.62428 0.0
H2829 H 0.35708 0.19635 0.65242 0.0
H2830 H 0.38721 0.17706 0.60218 0.0
H2831 H 0.34017 0.18319 0.56311 0.0
H2832 H 0.35447 0.19848 0.57898 0.0
H2833 H 0.33936 0.18061 0.5899 0.0
C2834 C 0.38984 0.21741 0.62421 0.0
C2835 C 0.3796 0.21376 0.6405 0.0
C2836 C 0.38611 0.20704 0.60836 0.0
C2837 C 0.37198 0.19273 0.60816 0.0
C2838 C 0.36141 0.18913 0.62404 0.0
H2839 H 0.34272 0.12484 0.50938 0.0
H2840 H 0.34273 0.13778 0.54048 0.0
C2841 C 0.36519 0.19958 0.6401 0.0
C2842 C 0.36902 0.18151 0.59167 0.0
H2843 H 0.34906 0.16777 0.5476 0.0
C2844 C 0.37873 0.17487 0.59036 0.0
C2845 C 0.35793 0.17859 0.5763 0.0
C2846 C 0.34736 0.18558 0.57692 0.0
C2847 C 0.37791 0.16572 0.57393 0.0
C2848 C 0.36738 0.16345 0.55798 0.0
C2849 C 0.35722 0.16957 0.55968 0.0
C2850 C 0.36731 0.15543 0.53911 0.0
C2851 C 0.38838 0.15858 0.57385 0.0
C2852 C 0.38105 0.16109 0.52774 0.0
C2853 C 0.38109 0.15368 0.51003 0.0
C2854 C 0.36735 0.14049 0.50307 0.0
C2855 C 0.35354 0.13492 0.51432 0.0
C2856 C 0.35352 0.14234 0.53211 0.0
H2857 H 0.39169 0.15698 0.58929 0.0
H2858 H 0.38261 0.14703 0.56632 0.0
H2859 H 0.39934 0.16657 0.56574 0.0
H2860 H 0.39176 0.17139 0.53246 0.0
H2861 H 0.39191 0.15841 0.50171 0.0
H2862 H 0.89234 0.24968 0.63937 0.0
H2863 H 0.90458 0.26631 0.60993 0.0
H2864 H 0.8869 0.22499 0.57344 0.0
H2865 H 0.87531 0.20837 0.60313 0.0
H2866 H 0.91494 0.2448 0.56229 0.0
H2867 H 0.88329 0.27778 0.56792 0.0
H2868 H 0.89455 0.27995 0.59011 0.0
H2869 H 0.87857 0.26087 0.58348 0.0
C2870 C 0.89117 0.2442 0.62505 0.0
C2871 C 0.88288 0.22777 0.62349 0.0
C2872 C 0.89801 0.25369 0.60818 0.0
C2873 C 0.89627 0.24697 0.58927 0.0
C2874 C 0.88832 0.23051 0.5878 0.0
H2875 H 0.91796 0.30419 0.47959 0.0
H2876 H 0.90443 0.28576 0.50723 0.0
C2877 C 0.88176 0.221 0.60477 0.0
C2878 C 0.90298 0.25706 0.57111 0.0
H2879 H 0.9053 0.28864 0.54584 0.0
C2880 C 0.9127 0.2543 0.55862 0.0
C2881 C 0.89981 0.26925 0.56592 0.0
C2882 C 0.88834 0.27202 0.57745 0.0
C2883 C 0.91966 0.2636 0.54154 0.0
C2884 C 0.91739 0.27649 0.53718 0.0
C2885 C 0.9073 0.27896 0.5493 0.0
C2886 C 0.92554 0.28765 0.52034 0.0
C2887 C 0.92912 0.25926 0.52816 0.0
C2888 C 0.94193 0.29512 0.51866 0.0
C2889 C 0.94961 0.30538 0.50273 0.0
C2890 C 0.94113 0.30878 0.48838 0.0
C2891 C 0.92479 0.30177 0.4904 0.0
C2892 C 0.91706 0.29124 0.50619 0.0
H2893 H 0.92519 0.24654 0.52941 0.0
H2894 H 0.92823 0.26212 0.51225 0.0
H2895 H 0.94163 0.26584 0.53282 0.0
H2896 H 0.94884 0.29306 0.52973 0.0
H2897 H 0.96224 0.31079 0.50176 0.0
H2898 H 0.79232 0.65557 0.62063 0.0
H2899 H 0.77885 0.65844 0.59122 0.0
H2900 H 0.81978 0.67115 0.5555 0.0
H2901 H 0.83306 0.66791 0.58472 0.0
H2902 H 0.78762 0.68499 0.57178 0.0
H2903 H 0.78593 0.64192 0.51819 0.0
H2904 H 0.79045 0.64153 0.54436 0.0
H2905 H 0.80544 0.65465 0.52725 0.0
C2906 C 0.79827 0.65865 0.60638 0.0
C2907 C 0.81369 0.66147 0.60492 0.0
C2908 C 0.79059 0.66029 0.58961 0.0
C2909 C 0.79823 0.66485 0.57108 0.0
C2910 C 0.81347 0.6672 0.56947 0.0
H2911 H 0.78191 0.7181 0.47962 0.0
H2912 H 0.7917 0.70885 0.50738 0.0
C2913 C 0.82108 0.66538 0.5862 0.0
C2914 C 0.79095 0.66876 0.55407 0.0
H2915 H 0.7823 0.66262 0.5043 0.0
C2916 C 0.78629 0.67994 0.55708 0.0
C2917 C 0.78905 0.66208 0.53494 0.0
C2918 C 0.79283 0.64926 0.53104 0.0
C2919 C 0.78018 0.68493 0.54141 0.0
C2920 C 0.77915 0.67894 0.52202 0.0
C2921 C 0.78335 0.6674 0.5191 0.0
C2922 C 0.77368 0.68445 0.50462 0.0
C2923 C 0.77474 0.69646 0.54586 0.0
C2924 C 0.7607 0.67373 0.49335 0.0
C2925 C 0.75524 0.67896 0.47729 0.0
C2926 C 0.76264 0.69502 0.47226 0.0
C2927 C 0.77586 0.70569 0.48327 0.0
C2928 C 0.78141 0.70043 0.49921 0.0
H2929 H 0.77187 0.69615 0.56193 0.0
H2930 H 0.78428 0.70852 0.54223 0.0
H2931 H 0.76425 0.69403 0.53681 0.0
H2932 H 0.75463 0.66134 0.49719 0.0
H2933 H 0.74504 0.67044 0.46905 0.0
H2934 H 0.78684 0.68634 0.20814 0.0
H2935 H 0.77629 0.69043 0.23897 0.0
H2936 H 0.78797 0.65899 0.27056 0.0
H2937 H 0.79805 0.65448 0.23949 0.0
H2938 H 0.76041 0.65526 0.28307 0.0
H2939 H 0.80494 0.71855 0.28199 0.0
H2940 H 0.79284 0.7127 0.25998 0.0
H2941 H 0.80556 0.70477 0.26508 0.0
C2942 C 0.78699 0.6802 0.22165 0.0
C2943 C 0.79338 0.67023 0.22156 0.0
C2944 C 0.78106 0.68261 0.23925 0.0
C2945 C 0.78177 0.67539 0.25719 0.0
C2946 C 0.78742 0.66478 0.25692 0.0
H2947 H 0.78046 0.71092 0.37433 0.0
H2948 H 0.78731 0.70308 0.34329 0.0
C2949 C 0.79312 0.66217 0.23919 0.0
C2950 C 0.77724 0.67939 0.27634 0.0
H2951 H 0.7848 0.71028 0.30613 0.0
C2952 C 0.76576 0.66728 0.28817 0.0
C2953 C 0.78447 0.69505 0.28317 0.0
C2954 C 0.79775 0.70849 0.272 0.0
C2955 C 0.76116 0.67043 0.30652 0.0
C2956 C 0.76791 0.68617 0.3129 0.0
C2957 C 0.7795 0.69824 0.30114 0.0
C2958 C 0.76349 0.69047 0.33194 0.0
C2959 C 0.74944 0.65681 0.31909 0.0
C2960 C 0.74784 0.68613 0.33583 0.0
C2961 C 0.74387 0.69043 0.35371 0.0
C2962 C 0.75553 0.69944 0.36782 0.0
C2963 C 0.77122 0.70402 0.36372 0.0
C2964 C 0.77514 0.69953 0.346 0.0
H2965 H 0.74911 0.64571 0.31518 0.0
H2966 H 0.75219 0.65899 0.33527 0.0
H2967 H 0.73756 0.65514 0.31635 0.0
H2968 H 0.73871 0.67955 0.32497 0.0
H2969 H 0.7317 0.68683 0.3564 0.0
H2970 H 0.36063 0.1893 0.23526 0.0
H2971 H 0.3591 0.17501 0.2662 0.0
H2972 H 0.36208 0.21313 0.30064 0.0
H2973 H 0.36401 0.22763 0.2698 0.0
H2974 H 0.38252 0.20502 0.31424 0.0
H2975 H 0.32491 0.15092 0.30608 0.0
H2976 H 0.33756 0.15441 0.28522 0.0
H2977 H 0.3308 0.16798 0.29028 0.0
C2978 C 0.36059 0.1945 0.24939 0.0
C2979 C 0.36241 0.20964 0.24997 0.0
C2980 C 0.35968 0.18627 0.26714 0.0
C2981 C 0.36032 0.19288 0.28588 0.0
C2982 C 0.36156 0.20774 0.28644 0.0
H2983 H 0.34333 0.14354 0.401 0.0
H2984 H 0.34186 0.15712 0.37072 0.0
C2985 C 0.36259 0.21601 0.26874 0.0
C2986 C 0.36088 0.1849 0.30487 0.0
H2987 H 0.34185 0.15057 0.33172 0.0
C2988 C 0.37356 0.19314 0.31808 0.0
C2989 C 0.34914 0.16944 0.31012 0.0
C2990 C 0.33476 0.16022 0.29729 0.0
C2991 C 0.37494 0.18634 0.33611 0.0
C2992 C 0.36353 0.17067 0.34099 0.0
C2993 C 0.35071 0.16251 0.32795 0.0
C2994 C 0.3646 0.16259 0.35957 0.0
C2995 C 0.38849 0.19618 0.34994 0.0
C2996 C 0.37783 0.161 0.36345 0.0
C2997 C 0.37876 0.15336 0.38086 0.0
C2998 C 0.36639 0.14693 0.3947 0.0
C2999 C 0.35311 0.1484 0.39071 0.0
C3000 C 0.35222 0.15613 0.37336 0.0
H3001 H 0.39327 0.20893 0.34711 0.0
H3002 H 0.38493 0.19358 0.36585 0.0
H3003 H 0.39806 0.19355 0.34738 0.0
H3004 H 0.38738 0.16551 0.35288 0.0
H3005 H 0.38909 0.1523 0.38331 0.0
H3006 H 0.84632 0.2812 0.26009 0.0
H3007 H 0.86315 0.2926 0.2894 0.0
H3008 H 0.90212 0.29502 0.25758 0.0
H3009 H 0.8855 0.28406 0.22802 0.0
H3010 H 0.87854 0.27985 0.3108 0.0
H3011 H 0.92114 0.33893 0.28122 0.0
H3012 H 0.90265 0.32629 0.269 0.0
H3013 H 0.91895 0.32308 0.26598 0.0
C3014 C 0.85853 0.28445 0.25914 0.0
C3015 C 0.86453 0.2817 0.24162 0.0
C3016 C 0.86812 0.29086 0.27599 0.0
C3017 C 0.88394 0.29481 0.27565 0.0
C3018 C 0.89003 0.29231 0.25811 0.0
H3019 H 0.9439 0.30587 0.3781 0.0
H3020 H 0.92793 0.29725 0.34758 0.0
C3021 C 0.88045 0.28588 0.24127 0.0
C3022 C 0.89382 0.30073 0.29395 0.0
H3023 H 0.92755 0.3315 0.31245 0.0
C3024 C 0.88922 0.29118 0.31118 0.0
C3025 C 0.90769 0.31557 0.2945 0.0
C3026 C 0.91286 0.32665 0.27676 0.0
C3027 C 0.89823 0.29592 0.32883 0.0
C3028 C 0.91235 0.31053 0.32918 0.0
C3029 C 0.91681 0.32023 0.31208 0.0
C3030 C 0.92249 0.31604 0.34731 0.0
C3031 C 0.89244 0.28533 0.34704 0.0
C3032 C 0.9251 0.3297 0.35699 0.0
C3033 C 0.93426 0.33469 0.37441 0.0
C3034 C 0.94109 0.32616 0.38241 0.0
C3035 C 0.93875 0.31267 0.3724 0.0
C3036 C 0.92955 0.30767 0.35501 0.0
H3037 H 0.87975 0.27654 0.34584 0.0
H3038 H 0.899 0.2789 0.34861 0.0
H3039 H 0.89442 0.29227 0.3608 0.0
H3040 H 0.91983 0.33638 0.35126 0.0
H3041 H 0.93586 0.34516 0.38169 0.0
H3042 H 0.36348 0.25312 0.73641 0.0
H3043 H 0.35819 0.26502 0.76524 0.0
H3044 H 0.38438 0.25053 0.80343 0.0
H3045 H 0.38999 0.23908 0.77484 0.0
H3046 H 0.34448 0.25516 0.8023 0.0
H3047 H 0.40774 0.29736 0.81192 0.0
H3048 H 0.4 0.28513 0.79019 0.0
H3049 H 0.40354 0.27739 0.81301 0.0
C3050 C 0.36785 0.25223 0.75104 0.0
C3051 C 0.37728 0.24526 0.75328 0.0
C3052 C 0.3649 0.25912 0.76751 0.0
C3053 C 0.37128 0.25912 0.78648 0.0
C3054 C 0.37974 0.25117 0.7889 0.0
H3055 H 0.34737 0.28274 0.90168 0.0
H3056 H 0.34954 0.26946 0.87225 0.0
C3057 C 0.38282 0.24448 0.77252 0.0
C3058 C 0.36969 0.26782 0.80365 0.0
H3059 H 0.39115 0.29561 0.83862 0.0
C3060 C 0.35468 0.26407 0.81017 0.0
C3061 C 0.38298 0.27972 0.81377 0.0
C3062 C 0.39947 0.28527 0.80675 0.0
C3063 C 0.35262 0.27151 0.82679 0.0
C3064 C 0.36592 0.28281 0.83757 0.0
C3065 C 0.38091 0.28683 0.83067 0.0
C3066 C 0.36466 0.29083 0.85578 0.0
C3067 C 0.33618 0.2674 0.83232 0.0
C3068 C 0.37295 0.30731 0.85692 0.0
C3069 C 0.372 0.31494 0.87395 0.0
C3070 C 0.36268 0.30629 0.89032 0.0
C3071 C 0.35457 0.28979 0.88932 0.0
C3072 C 0.35567 0.28216 0.87235 0.0
H3073 H 0.32803 0.26263 0.81935 0.0
H3074 H 0.33179 0.25823 0.84422 0.0
H3075 H 0.33584 0.27778 0.83797 0.0
H3076 H 0.38007 0.31434 0.84449 0.0
H3077 H 0.37838 0.32765 0.87414 0.0
H3078 H 0.84064 0.18958 0.77777 0.0
H3079 H 0.82233 0.17681 0.80541 0.0
H3080 H 0.78381 0.15602 0.76348 0.0
H3081 H 0.802 0.16866 0.73583 0.0
H3082 H 0.77777 0.16963 0.79569 0.0
H3083 H 0.80018 0.13051 0.8217 0.0
H3084 H 0.81481 0.15094 0.8203 0.0
H3085 H 0.80541 0.14055 0.79781 0.0
C3086 C 0.82831 0.18214 0.7744 0.0
C3087 C 0.82283 0.18017 0.75453 0.0
C3088 C 0.81784 0.17484 0.79023 0.0
C3089 C 0.8017 0.16531 0.78652 0.0
C3090 C 0.7962 0.16333 0.76672 0.0
H3091 H 0.71756 0.10825 0.85584 0.0
H3092 H 0.7366 0.12336 0.8298 0.0
C3093 C 0.80663 0.17063 0.75092 0.0
C3094 C 0.79045 0.15762 0.8032 0.0
H3095 H 0.78081 0.13113 0.84164 0.0
C3096 C 0.77842 0.16119 0.80573 0.0
C3097 C 0.7913 0.14663 0.81631 0.0
C3098 C 0.80352 0.14179 0.81385 0.0
C3099 C 0.76733 0.15419 0.82108 0.0
C3100 C 0.76813 0.14312 0.8341 0.0
C3101 C 0.78023 0.13965 0.83169 0.0
C3102 C 0.75637 0.13474 0.85007 0.0
C3103 C 0.75498 0.15886 0.82343 0.0
C3104 C 0.76113 0.13602 0.87015 0.0
C3105 C 0.75027 0.12736 0.8851 0.0
C3106 C 0.73441 0.11712 0.88027 0.0
C3107 C 0.72963 0.11607 0.86015 0.0
C3108 C 0.74051 0.12476 0.84522 0.0
H3109 H 0.75845 0.17031 0.81598 0.0
H3110 H 0.74388 0.14984 0.81646 0.0
H3111 H 0.75271 0.15967 0.83946 0.0
H3112 H 0.77332 0.14359 0.87423 0.0
H3113 H 0.7544 0.12844 0.90039 0.0
H3114 H 0.88277 0.67829 0.72217 0.0
H3115 H 0.90037 0.68154 0.75005 0.0
H3116 H 0.86058 0.65186 0.78709 0.0
H3117 H 0.84288 0.64851 0.75917 0.0
H3118 H 0.90151 0.69439 0.78684 0.0
H3119 H 0.88894 0.63285 0.79505 0.0
H3120 H 0.88311 0.63976 0.77324 0.0
H3121 H 0.87199 0.63519 0.7959 0.0
C3122 C 0.87776 0.67244 0.73624 0.0
C3123 C 0.86143 0.66315 0.73848 0.0
C3124 C 0.88783 0.67427 0.75213 0.0
C3125 C 0.88179 0.66683 0.77057 0.0
C3126 C 0.8655 0.65745 0.77286 0.0
H3127 H 0.93667 0.69326 0.88151 0.0
H3128 H 0.91694 0.68837 0.85571 0.0
C3129 C 0.8554 0.65554 0.7569 0.0
C3130 C 0.89261 0.66944 0.78752 0.0
H3131 H 0.90553 0.65086 0.81946 0.0
C3132 C 0.90238 0.68488 0.79402 0.0
C3133 C 0.89377 0.65701 0.79671 0.0
C3134 C 0.884 0.64028 0.7898 0.0
C3135 C 0.91339 0.68826 0.80941 0.0
C3136 C 0.91443 0.67581 0.81876 0.0
C3137 C 0.9046 0.66036 0.81234 0.0
C3138 C 0.92618 0.67865 0.83457 0.0
C3139 C 0.92412 0.70515 0.81511 0.0
C3140 C 0.9377 0.67452 0.83137 0.0
C3141 C 0.94892 0.6772 0.84608 0.0
C3142 C 0.94881 0.68405 0.86435 0.0
C3143 C 0.93716 0.68809 0.86757 0.0
C3144 C 0.92591 0.68535 0.85282 0.0
H3145 H 0.92429 0.71344 0.8035 0.0
H3146 H 0.91998 0.70755 0.82926 0.0
H3147 H 0.9363 0.70753 0.81755 0.0
H3148 H 0.93808 0.66931 0.81738 0.0
H3149 H 0.95768 0.67391 0.8431 0.0
H3150 H 0.83634 0.66619 0.07167 0.0
H3151 H 0.85498 0.6704 0.0452 0.0
H3152 H 0.89278 0.70463 0.08149 0.0
H3153 H 0.8745 0.69998 0.1083 0.0
H3154 H 0.87452 0.69689 0.02392 0.0
H3155 H 0.90949 0.67616 0.06664 0.0
H3156 H 0.89077 0.67288 0.07519 0.0
H3157 H 0.90823 0.69154 0.07901 0.0
C3158 C 0.84863 0.67445 0.07417 0.0
C3159 C 0.85383 0.68266 0.09228 0.0
C3160 C 0.85927 0.67693 0.05894 0.0
C3161 C 0.87532 0.68763 0.0615 0.0
C3162 C 0.88051 0.69606 0.07934 0.0
H3163 H 0.95784 0.72106 0.98648 0.0
H3164 H 0.93885 0.71858 0.01176 0.0
C3165 C 0.86993 0.69352 0.09461 0.0
C3166 C 0.88664 0.69018 0.04544 0.0
H3167 H 0.9202 0.68932 0.03575 0.0
C3168 C 0.88446 0.69515 0.02648 0.0
C3169 C 0.8996 0.68788 0.04879 0.0
C3170 C 0.9021 0.68167 0.06845 0.0
C3171 C 0.89504 0.69814 0.01087 0.0
C3172 C 0.90807 0.69604 0.01434 0.0
C3173 C 0.91027 0.69107 0.03325 0.0
C3174 C 0.91925 0.6983 0.99831 0.0
C3175 C 0.89236 0.70369 0.99085 0.0
C3176 C 0.91446 0.68773 0.98242 0.0
C3177 C 0.92526 0.68904 0.96809 0.0
C3178 C 0.94105 0.70098 0.96937 0.0
C3179 C 0.94574 0.71179 0.98505 0.0
C3180 C 0.93494 0.71038 0.9995 0.0
H3181 H 0.88366 0.70773 0.99173 0.0
H3182 H 0.90352 0.71343 0.98486 0.0
H3183 H 0.88787 0.69388 0.9801 0.0
H3184 H 0.90245 0.67821 0.9814 0.0
H3185 H 0.92128 0.68052 0.95621 0.0
H3186 H 0.34506 0.25323 0.16031 0.0
H3187 H 0.34357 0.26526 0.12864 0.0
H3188 H 0.36673 0.244 0.09872 0.0
H3189 H 0.36811 0.23178 0.13021 0.0
H3190 H 0.36913 0.28653 0.10595 0.0
H3191 H 0.33022 0.23415 0.06071 0.0
H3192 H 0.33176 0.23322 0.08757 0.0
H3193 H 0.3468 0.23393 0.07191 0.0
C3194 C 0.34958 0.25086 0.14694 0.0
C3195 C 0.35667 0.24147 0.1479 0.0
C3196 C 0.34878 0.25781 0.12882 0.0
C3197 C 0.35491 0.25545 0.11118 0.0
C3198 C 0.36165 0.24579 0.11198 0.0
H3199 H 0.36354 0.29794 0.99063 0.0
H3200 H 0.36589 0.28291 0.019 0.0
C3201 C 0.36248 0.23885 0.13009 0.0
C3202 C 0.35515 0.26394 0.09234 0.0
H3203 H 0.34193 0.25877 0.04391 0.0
C3204 C 0.36316 0.28043 0.09241 0.0
C3205 C 0.34758 0.25604 0.07452 0.0
C3206 C 0.33849 0.23836 0.07361 0.0
C3207 C 0.36368 0.28919 0.07532 0.0
C3208 C 0.35572 0.28131 0.05768 0.0
C3209 C 0.34805 0.26483 0.05739 0.0
C3210 C 0.35417 0.29 0.0401 0.0
C3211 C 0.37282 0.30688 0.07633 0.0
C3212 C 0.34655 0.2987 0.04238 0.0
C3213 C 0.34521 0.30723 0.02635 0.0
C3214 C 0.35136 0.30727 0.00742 0.0
C3215 C 0.35874 0.29827 0.00497 0.0
C3216 C 0.36007 0.28965 0.02117 0.0
H3217 H 0.38196 0.31099 0.08822 0.0
H3218 H 0.37853 0.31216 0.06183 0.0
H3219 H 0.36469 0.31124 0.07987 0.0
H3220 H 0.3416 0.2989 0.05667 0.0
H3221 H 0.33932 0.31385 0.02893 0.0
H3222 H 0.80074 0.23358 0.09816 0.0
H3223 H 0.78745 0.21486 0.07122 0.0
H3224 H 0.7906 0.17901 0.10547 0.0
H3225 H 0.80323 0.19734 0.13272 0.0
H3226 H 0.79818 0.19906 0.04889 0.0
H3227 H 0.74477 0.15648 0.08985 0.0
H3228 H 0.75813 0.1758 0.09929 0.0
H3229 H 0.76253 0.16017 0.10231 0.0
C3230 C 0.79838 0.22165 0.10013 0.0
C3231 C 0.80309 0.21703 0.11771 0.0
C3232 C 0.79087 0.21098 0.08463 0.0
C3233 C 0.78782 0.19545 0.08642 0.0
C3234 C 0.79253 0.19082 0.10389 0.0
H3235 H 0.75013 0.11425 0.00912 0.0
H3236 H 0.76334 0.1336 0.03554 0.0
C3237 C 0.79997 0.20144 0.11939 0.0
C3238 C 0.7802 0.18422 0.0698 0.0
H3239 H 0.74921 0.14811 0.05857 0.0
C3240 C 0.78741 0.18798 0.05096 0.0
C3241 C 0.76614 0.16974 0.07251 0.0
C3242 C 0.75735 0.16535 0.09202 0.0
C3243 C 0.78113 0.17751 0.03492 0.0
C3244 C 0.76721 0.16296 0.03775 0.0
C3245 C 0.75995 0.15923 0.05651 0.0
C3246 C 0.75983 0.15154 0.02132 0.0
C3247 C 0.78959 0.18193 0.01518 0.0
C3248 C 0.75346 0.15521 0.00461 0.0
C3249 C 0.74587 0.14418 0.98956 0.0
C3250 C 0.7445 0.12925 0.99091 0.0
C3251 C 0.75105 0.12566 0.00758 0.0
C3252 C 0.75856 0.13668 0.02271 0.0
H3253 H 0.80182 0.19181 0.01669 0.0
H3254 H 0.78987 0.17174 0.0087 0.0
H3255 H 0.78327 0.18559 0.00451 0.0
H3256 H 0.75411 0.16652 0.0034 0.0
H3257 H 0.74092 0.1473 0.97696 0.0
loop_
_geom_bond_atom_site_label_1
_geom_bond_atom_site_label_2
_geom_bond_distance
_geom_bond_site_symmetry_2
_ccdc_geom_bond_type
Cu0 N1 1.999 . S
Cu0 O6 1.974 1_554 S
Cu0 N11 1.985 1_554 S
Cu0 O20 1.959 . S
N1 Cu0 1.999 . S
N1 C3 1.263 . S
N1 C5 1.389 . S
N2 C3 1.358 . S
N2 C4 1.400 . S
C3 N1 1.263 . S
C3 N2 1.358 . S
C3 H9 0.930 . S
C4 N2 1.400 . S
C4 C5 1.351 . S
C4 H21 0.930 . S
C5 N1 1.389 . S
C5 C4 1.351 . S
C5 H10 0.930 . S
O6 Cu0 1.974 1_556 S
O6 C16 1.282 . S
C7 O8 1.261 . S
C7 O20 1.251 . S
O8 C7 1.261 . S
H9 C3 0.930 . S
H10 C5 0.930 . S
N11 Cu0 1.985 1_556 S
N11 C13 1.335 . S
N11 C14 1.390 . S
N12 C13 1.345 . S
N12 C15 1.336 . S
C13 N11 1.335 . S
C13 N12 1.345 . S
C13 H18 0.930 . S
C14 N11 1.390 . S
C14 C15 1.346 . S
C14 H19 0.930 . S
C15 N12 1.336 . S
C15 C14 1.346 . S
C15 H22 0.929 . S
C16 O6 1.282 . S
C16 O17 1.216 . S
O17 C16 1.216 . S
H18 C13 0.930 . S
H19 C14 0.930 . S
O20 Cu0 1.959 . S
O20 C7 1.251 . S
H21 C4 0.930 . S
H22 C15 0.929 . S
Cu23 N24 1.999 1_554 S
Cu23 O29 1.974 . S
Cu23 N34 1.985 . S
Cu23 O43 1.959 1_554 S
N24 Cu23 1.999 1_556 S
N24 C26 1.263 . S
N24 C28 1.389 . S
N25 C26 1.358 . S
N25 C27 1.400 . S
C26 N24 1.263 . S
C26 N25 1.358 . S
C26 H32 0.930 . S
C27 N25 1.400 . S
C27 C28 1.351 . S
C27 H44 0.930 . S
C28 N24 1.389 . S
C28 C27 1.351 . S
C28 H33 0.930 . S
O29 Cu23 1.974 . S
O29 C39 1.282 . S
C30 O31 1.261 1_556 S
C30 O43 1.251 . S
O31 C30 1.261 1_554 S
H32 C26 0.930 . S
H33 C28 0.930 . S
N34 Cu23 1.985 . S
N34 C36 1.335 . S
N34 C37 1.390 . S
N35 C36 1.345 . S
N35 C38 1.336 . S
C36 N34 1.335 . S
C36 N35 1.345 . S
C36 H41 0.930 . S
C37 N34 1.390 . S
C37 C38 1.346 . S
C37 H42 0.930 . S
C38 N35 1.336 . S
C38 C37 1.346 . S
C38 H45 0.929 . S
C39 O29 1.282 . S
C39 O40 1.216 . S
O40 C39 1.216 . S
H41 C36 0.930 . S
H42 C37 0.930 . S
O43 Cu23 1.959 1_556 S
O43 C30 1.251 . S
H44 C27 0.930 . S
H45 C38 0.929 . S
Cu46 N47 1.999 1_554 S
Cu46 O52 1.974 . S
Cu46 N57 1.985 . S
Cu46 O66 1.959 . S
N47 Cu46 1.999 1_556 S
N47 C49 1.263 . S
N47 C51 1.439 . S
N48 C49 1.358 . S
N48 C50 1.400 . S
C49 N47 1.263 . S
C49 N48 1.358 . S
C49 H55 0.930 . S
C50 N48 1.400 . S
C50 C51 1.379 . S
C50 H67 0.930 1_545 S
C51 N47 1.439 . S
C51 C50 1.379 . S
C51 H56 0.868 1_545 S
O52 Cu46 1.974 . S
O52 C62 1.282 . S
C53 O54 1.261 . S
C53 O66 1.251 . S
O54 C53 1.261 . S
H55 C49 0.930 . S
H56 C51 0.868 1_565 S
N57 Cu46 1.985 . S
N57 C59 1.335 . S
N57 C60 1.390 . S
N58 C59 1.345 . S
N58 C61 1.336 . S
C59 N57 1.335 . S
C59 N58 1.345 . S
C59 H64 0.930 . S
C60 N57 1.390 . S
C60 C61 1.346 . S
C60 H65 0.930 . S
C61 N58 1.336 . S
C61 C60 1.346 . S
C61 H68 0.929 . S
C62 O52 1.282 . S
C62 O63 1.216 . S
O63 C62 1.216 . S
H64 C59 0.930 . S
H65 C60 0.930 . S
O66 Cu46 1.959 . S
O66 C53 1.251 . S
H67 C50 0.930 1_565 S
H68 C61 0.929 . S
Cu69 N70 1.999 . S
Cu69 O75 1.974 . S
Cu69 N80 1.985 . S
Cu69 O89 1.959 . S
N70 Cu69 1.999 . S
N70 C72 1.263 . S
N70 C74 1.389 . S
N71 C72 1.358 . S
N71 C73 1.400 . S
C72 N70 1.263 . S
C72 N71 1.358 . S
C72 H78 0.930 . S
C73 N71 1.400 . S
C73 C74 1.351 . S
C73 H90 0.930 . S
C74 N70 1.389 . S
C74 C73 1.351 . S
C74 H79 0.930 . S
O75 Cu69 1.974 . S
O75 C85 1.282 . S
C76 O77 1.261 . S
C76 O89 1.251 . S
O77 C76 1.261 . S
H78 C72 0.930 . S
H79 C74 0.930 . S
N80 Cu69 1.985 . S
N80 C82 1.335 . S
N80 C83 1.390 . S
N81 C82 1.345 . S
N81 C84 1.336 . S
C82 N80 1.335 . S
C82 N81 1.345 . S
C82 H87 0.930 . S
C83 N80 1.390 . S
C83 C84 1.346 . S
C83 H88 0.930 . S
C84 N81 1.336 . S
C84 C83 1.346 . S
C84 H91 0.929 . S
C85 O75 1.282 . S
C85 O86 1.216 1_545 S
O86 C85 1.216 1_565 S
H87 C82 0.930 . S
H88 C83 0.930 . S
O89 Cu69 1.959 . S
O89 C76 1.251 . S
H90 C73 0.930 . S
H91 C84 0.929 . S
Cu92 N93 1.999 . S
Cu92 O98 1.974 . S
Cu92 N103 1.985 . S
Cu92 O112 1.959 . S
N93 Cu92 1.999 . S
N93 C95 1.263 . S
N93 C97 1.389 . S
N94 C95 1.358 . S
N94 C96 1.400 . S
C95 N93 1.263 . S
C95 N94 1.358 . S
C95 H101 0.930 . S
C96 N94 1.400 . S
C96 C97 1.351 . S
C96 H113 0.930 . S
C97 N93 1.389 . S
C97 C96 1.351 . S
C97 H102 0.930 . S
O98 Cu92 1.974 . S
O98 C108 1.282 . S
C99 O100 1.261 . S
C99 O112 1.251 . S
O100 C99 1.261 . S
H101 C95 0.930 . S
H102 C97 0.930 . S
N103 Cu92 1.985 . S
N103 C105 1.335 . S
N103 C106 1.390 . S
N104 C105 1.345 . S
N104 C107 1.336 . S
C105 N103 1.335 . S
C105 N104 1.345 . S
C105 H110 0.930 . S
C106 N103 1.390 . S
C106 C107 1.346 . S
C106 H111 0.930 . S
C107 N104 1.336 . S
C107 C106 1.346 . S
C107 H114 0.929 . S
C108 O98 1.282 . S
C108 O109 1.216 . S
O109 C108 1.216 . S
H110 C105 0.930 . S
H111 C106 0.930 . S
O112 Cu92 1.959 . S
O112 C99 1.251 . S
H113 C96 0.930 . S
H114 C107 0.929 . S
Cu115 N116 1.999 . S
Cu115 O121 1.974 . S
Cu115 N126 1.985 . S
Cu115 O135 1.959 . S
N116 Cu115 1.999 . S
N116 C118 1.263 . S
N116 C120 1.389 . S
N117 C118 1.358 . S
N117 C119 1.400 . S
C118 N116 1.263 . S
C118 N117 1.358 . S
C118 H124 0.930 . S
C119 N117 1.400 . S
C119 C120 1.351 . S
C119 H136 0.930 . S
C120 N116 1.389 . S
C120 C119 1.351 . S
C120 H125 0.930 . S
O121 Cu115 1.974 . S
O121 C131 1.282 . S
C122 O123 1.261 . S
C122 O135 1.251 . S
O123 C122 1.261 . S
H124 C118 0.930 . S
H125 C120 0.930 . S
N126 Cu115 1.985 . S
N126 C128 1.335 . S
N126 C129 1.390 . S
N127 C128 1.345 . S
N127 C130 1.336 . S
C128 N126 1.335 . S
C128 N127 1.345 . S
C128 H133 0.930 . S
C129 N126 1.390 . S
C129 C130 1.346 . S
C129 H134 0.930 . S
C130 N127 1.336 . S
C130 C129 1.346 . S
C130 H137 0.929 . S
C131 O121 1.282 . S
C131 O132 1.216 . S
O132 C131 1.216 . S
H133 C128 0.930 . S
H134 C129 0.930 . S
O135 Cu115 1.959 . S
O135 C122 1.251 . S
H136 C119 0.930 . S
H137 C130 0.929 . S
Cu138 N139 1.999 . S
Cu138 O144 1.974 . S
Cu138 N149 1.985 . S
Cu138 O158 1.959 . S
N139 Cu138 1.999 . S
N139 C141 1.263 . S
N139 C143 1.389 . S
N140 C141 1.358 . S
N140 C142 1.400 . S
C141 N139 1.263 . S
C141 N140 1.358 . S
C141 H147 0.930 . S
C142 N140 1.400 . S
C142 C143 1.351 . S
C142 H159 0.930 . S
C143 N139 1.389 . S
C143 C142 1.351 . S
C143 H148 0.930 . S
O144 Cu138 1.974 . S
O144 C154 1.282 . S
C145 O146 1.261 . S
C145 O158 1.251 . S
O146 C145 1.261 . S
H147 C141 0.930 . S
H148 C143 0.930 . S
N149 Cu138 1.985 . S
N149 C151 1.335 . S
N149 C152 1.390 . S
N150 C151 1.345 . S
N150 C153 1.336 . S
C151 N149 1.335 . S
C151 N150 1.345 . S
C151 H156 0.930 . S
C152 N149 1.390 . S
C152 C153 1.346 . S
C152 H157 0.930 . S
C153 N150 1.336 . S
C153 C152 1.346 . S
C153 H160 0.929 . S
C154 O144 1.282 . S
C154 O155 1.216 . S
O155 C154 1.216 . S
H156 C151 0.930 . S
H157 C152 0.930 . S
O158 Cu138 1.959 . S
O158 C145 1.251 . S
H159 C142 0.930 . S
H160 C153 0.929 . S
Cu161 N162 1.999 . S
Cu161 O167 1.974 . S
Cu161 N172 1.985 . S
Cu161 O181 1.959 . S
N162 Cu161 1.999 . S
N162 C164 1.263 . S
N162 C166 1.389 . S
N163 C164 1.358 . S
N163 C165 1.400 . S
C164 N162 1.263 . S
C164 N163 1.358 . S
C164 H170 0.930 . S
C165 N163 1.400 . S
C165 C166 1.351 . S
C165 H182 0.930 . S
C166 N162 1.389 . S
C166 C165 1.351 . S
C166 H171 0.930 . S
O167 Cu161 1.974 . S
O167 C177 1.282 . S
C168 O169 1.261 . S
C168 O181 1.251 . S
O169 C168 1.261 . S
H170 C164 0.930 . S
H171 C166 0.930 . S
N172 Cu161 1.985 . S
N172 C174 1.335 . S
N172 C175 1.390 . S
N173 C174 1.345 . S
N173 C176 1.336 . S
C174 N172 1.335 . S
C174 N173 1.345 . S
C174 H179 0.930 . S
C175 N172 1.390 . S
C175 C176 1.346 . S
C175 H180 0.930 . S
C176 N173 1.336 . S
C176 C175 1.346 . S
C176 H183 0.929 . S
C177 O167 1.282 . S
C177 O178 1.216 . S
O178 C177 1.216 . S
H179 C174 0.930 . S
H180 C175 0.930 . S
O181 Cu161 1.959 . S
O181 C168 1.251 . S
H182 C165 0.930 . S
H183 C176 0.929 . S
Cu184 N185 1.999 . S
Cu184 O190 1.974 . S
Cu184 N195 1.985 . S
Cu184 O204 1.959 . S
N185 Cu184 1.999 . S
N185 C187 1.263 . S
N185 C189 1.389 . S
N186 C187 1.358 . S
N186 C188 1.400 . S
C187 N185 1.263 . S
C187 N186 1.358 . S
C187 H193 0.930 . S
C188 N186 1.400 . S
C188 C189 1.351 . S
C188 H205 0.930 . S
C189 N185 1.389 . S
C189 C188 1.351 . S
C189 H194 0.930 . S
O190 Cu184 1.974 . S
O190 C200 1.282 . S
C191 O192 1.261 . S
C191 O204 1.251 . S
O192 C191 1.261 . S
H193 C187 0.930 . S
H194 C189 0.930 . S
N195 Cu184 1.985 . S
N195 C197 1.335 . S
N195 C198 1.390 . S
N196 C197 1.345 . S
N196 C199 1.336 . S
C197 N195 1.335 . S
C197 N196 1.345 . S
C197 H202 0.930 . S
C198 N195 1.390 . S
C198 C199 1.346 . S
C198 H203 0.930 . S
C199 N196 1.336 . S
C199 C198 1.346 . S
C199 H206 0.929 . S
C200 O190 1.282 . S
C200 O201 1.216 . S
O201 C200 1.216 . S
H202 C197 0.930 . S
H203 C198 0.930 . S
O204 Cu184 1.959 . S
O204 C191 1.251 . S
H205 C188 0.930 . S
H206 C199 0.929 . S
Cu207 N208 1.999 . S
Cu207 O213 1.974 . S
Cu207 N218 1.985 . S
Cu207 O227 1.959 . S
N208 Cu207 1.999 . S
N208 C210 1.263 . S
N208 C212 1.389 . S
N209 C210 1.358 . S
N209 C211 1.400 . S
C210 N208 1.263 . S
C210 N209 1.358 . S
C210 H216 0.930 . S
C211 N209 1.400 . S
C211 C212 1.351 . S
C211 H228 0.930 . S
C212 N208 1.389 . S
C212 C211 1.351 . S
C212 H217 0.930 . S
O213 Cu207 1.974 . S
O213 C223 1.282 . S
C214 O215 1.261 . S
C214 O227 1.251 . S
O215 C214 1.261 . S
H216 C210 0.930 . S
H217 C212 0.930 . S
N218 Cu207 1.985 . S
N218 C220 1.335 . S
N218 C221 1.390 . S
N219 C220 1.345 . S
N219 C222 1.336 . S
C220 N218 1.335 . S
C220 N219 1.345 . S
C220 H225 0.930 . S
C221 N218 1.390 . S
C221 C222 1.346 . S
C221 H226 0.930 . S
C222 N219 1.336 . S
C222 C221 1.346 . S
C222 H229 0.929 . S
C223 O213 1.282 . S
C223 O224 1.216 . S
O224 C223 1.216 . S
H225 C220 0.930 . S
H226 C221 0.930 . S
O227 Cu207 1.959 . S
O227 C214 1.251 . S
H228 C211 0.930 . S
H229 C222 0.929 . S
Cu230 N231 1.999 . S
Cu230 O236 1.974 . S
Cu230 N241 1.985 . S
Cu230 O250 1.959 . S
N231 Cu230 1.999 . S
N231 C233 1.263 . S
N231 C235 1.389 . S
N232 C233 1.358 . S
N232 C234 1.400 . S
C233 N231 1.263 . S
C233 N232 1.358 . S
C233 H239 0.930 . S
C234 N232 1.400 . S
C234 C235 1.351 . S
C234 H251 0.930 . S
C235 N231 1.389 . S
C235 C234 1.351 . S
C235 H240 0.930 . S
O236 Cu230 1.974 . S
O236 C246 1.282 . S
C237 O238 1.261 . S
C237 O250 1.251 . S
O238 C237 1.261 . S
H239 C233 0.930 . S
H240 C235 0.930 . S
N241 Cu230 1.985 . S
N241 C243 1.335 . S
N241 C244 1.390 . S
N242 C243 1.345 . S
N242 C245 1.336 . S
C243 N241 1.335 . S
C243 N242 1.345 . S
C243 H248 0.930 . S
C244 N241 1.390 . S
C244 C245 1.346 . S
C244 H249 0.930 . S
C245 N242 1.336 . S
C245 C244 1.346 . S
C245 H252 0.929 . S
C246 O236 1.282 . S
C246 O247 1.216 . S
O247 C246 1.216 . S
H248 C243 0.930 . S
H249 C244 0.930 . S
O250 Cu230 1.959 . S
O250 C237 1.251 . S
H251 C234 0.930 . S
H252 C245 0.929 . S
Cu253 N254 1.999 . S
Cu253 O259 1.974 . S
Cu253 N264 1.985 . S
Cu253 O273 1.959 . S
N254 Cu253 1.999 . S
N254 C256 1.263 . S
N254 C258 1.389 . S
N255 C256 1.358 . S
N255 C257 1.400 . S
C256 N254 1.263 . S
C256 N255 1.358 . S
C256 H262 0.930 . S
C257 N255 1.400 . S
C257 C258 1.351 . S
C257 H274 0.930 . S
C258 N254 1.389 . S
C258 C257 1.351 . S
C258 H263 0.930 . S
O259 Cu253 1.974 . S
O259 C269 1.282 . S
C260 O261 1.261 . S
C260 O273 1.251 . S
O261 C260 1.261 . S
H262 C256 0.930 . S
H263 C258 0.930 . S
N264 Cu253 1.985 . S
N264 C266 1.335 . S
N264 C267 1.390 . S
N265 C266 1.345 . S
N265 C268 1.336 . S
C266 N264 1.335 . S
C266 N265 1.345 . S
C266 H271 0.930 . S
C267 N264 1.390 . S
C267 C268 1.346 . S
C267 H272 0.930 . S
C268 N265 1.336 . S
C268 C267 1.346 . S
C268 H275 0.929 . S
C269 O259 1.282 . S
C269 O270 1.216 . S
O270 C269 1.216 . S
H271 C266 0.930 . S
H272 C267 0.930 . S
O273 Cu253 1.959 . S
O273 C260 1.251 . S
H274 C257 0.930 . S
H275 C268 0.929 . S
Cu276 N277 1.999 . S
Cu276 O282 1.974 . S
Cu276 N287 1.985 . S
Cu276 O296 1.959 . S
N277 Cu276 1.999 . S
N277 C279 1.263 . S
N277 C281 1.389 . S
N278 C279 1.358 . S
N278 C280 1.400 . S
C279 N277 1.263 . S
C279 N278 1.358 . S
C279 H285 0.930 . S
C280 N278 1.400 . S
C280 C281 1.351 . S
C280 H297 0.930 . S
C281 N277 1.389 . S
C281 C280 1.351 . S
C281 H286 0.930 . S
O282 Cu276 1.974 . S
O282 C292 1.282 . S
C283 O284 1.261 . S
C283 O296 1.251 . S
O284 C283 1.261 . S
H285 C279 0.930 . S
H286 C281 0.930 . S
N287 Cu276 1.985 . S
N287 C289 1.335 . S
N287 C290 1.390 . S
N288 C289 1.345 . S
N288 C291 1.336 . S
C289 N287 1.335 . S
C289 N288 1.345 . S
C289 H294 0.930 . S
C290 N287 1.390 . S
C290 C291 1.346 . S
C290 H295 0.930 . S
C291 N288 1.336 . S
C291 C290 1.346 . S
C291 H298 0.929 . S
C292 O282 1.282 . S
C292 O293 1.216 . S
O293 C292 1.216 . S
H294 C289 0.930 . S
H295 C290 0.930 . S
O296 Cu276 1.959 . S
O296 C283 1.251 . S
H297 C280 0.930 . S
H298 C291 0.929 . S
Cu299 N300 1.999 . S
Cu299 O305 1.974 . S
Cu299 N310 1.985 . S
Cu299 O319 1.959 . S
N300 Cu299 1.999 . S
N300 C302 1.263 . S
N300 C304 1.389 . S
N301 C302 1.358 . S
N301 C303 1.400 . S
C302 N300 1.263 . S
C302 N301 1.358 . S
C302 H308 0.930 . S
C303 N301 1.400 . S
C303 C304 1.351 . S
C303 H320 0.930 . S
C304 N300 1.389 . S
C304 C303 1.351 . S
C304 H309 0.930 . S
O305 Cu299 1.974 . S
O305 C315 1.282 . S
C306 O307 1.261 . S
C306 O319 1.251 . S
O307 C306 1.261 . S
H308 C302 0.930 . S
H309 C304 0.930 . S
N310 Cu299 1.985 . S
N310 C312 1.335 . S
N310 C313 1.390 . S
N311 C312 1.345 . S
N311 C314 1.336 . S
C312 N310 1.335 . S
C312 N311 1.345 . S
C312 H317 0.930 . S
C313 N310 1.390 . S
C313 C314 1.346 . S
C313 H318 0.930 . S
C314 N311 1.336 . S
C314 C313 1.346 . S
C314 H321 0.929 . S
C315 O305 1.282 . S
C315 O316 1.216 . S
O316 C315 1.216 . S
H317 C312 0.930 . S
H318 C313 0.930 . S
O319 Cu299 1.959 . S
O319 C306 1.251 . S
H320 C303 0.930 . S
H321 C314 0.929 . S
Cu322 N323 1.999 . S
Cu322 O328 1.974 . S
Cu322 N333 1.985 . S
Cu322 O342 1.959 . S
N323 Cu322 1.999 . S
N323 C325 1.263 . S
N323 C327 1.389 . S
N324 C325 1.358 . S
N324 C326 1.400 . S
C325 N323 1.263 . S
C325 N324 1.358 . S
C325 H331 0.930 . S
C326 N324 1.400 . S
C326 C327 1.351 . S
C326 H343 0.930 . S
C327 N323 1.389 . S
C327 C326 1.351 . S
C327 H332 0.930 . S
O328 Cu322 1.974 . S
O328 C338 1.282 . S
C329 O330 1.261 . S
C329 O342 1.251 . S
O330 C329 1.261 . S
H331 C325 0.930 . S
H332 C327 0.930 . S
N333 Cu322 1.985 . S
N333 C335 1.335 . S
N333 C336 1.390 . S
N334 C335 1.345 . S
N334 C337 1.336 . S
C335 N333 1.335 . S
C335 N334 1.345 . S
C335 H340 0.930 . S
C336 N333 1.390 . S
C336 C337 1.346 . S
C336 H341 0.930 . S
C337 N334 1.336 . S
C337 C336 1.346 . S
C337 H344 0.929 . S
C338 O328 1.282 . S
C338 O339 1.216 . S
O339 C338 1.216 . S
H340 C335 0.930 . S
H341 C336 0.930 . S
O342 Cu322 1.959 . S
O342 C329 1.251 . S
H343 C326 0.930 . S
H344 C337 0.929 . S
Cu345 N346 1.999 . S
Cu345 O351 1.974 . S
Cu345 N356 1.985 . S
Cu345 O365 1.959 . S
N346 Cu345 1.999 . S
N346 C348 1.263 . S
N346 C350 1.389 . S
N347 C348 1.358 . S
N347 C349 1.400 . S
C348 N346 1.263 . S
C348 N347 1.358 . S
C348 H354 0.930 . S
C349 N347 1.400 . S
C349 C350 1.351 . S
C349 H366 0.930 . S
C350 N346 1.389 . S
C350 C349 1.351 . S
C350 H355 0.930 . S
O351 Cu345 1.974 . S
O351 C361 1.282 . S
C352 O353 1.261 . S
C352 O365 1.251 . S
O353 C352 1.261 . S
H354 C348 0.930 . S
H355 C350 0.930 . S
N356 Cu345 1.985 . S
N356 C358 1.335 . S
N356 C359 1.390 . S
N357 C358 1.345 . S
N357 C360 1.336 . S
C358 N356 1.335 . S
C358 N357 1.345 . S
C358 H363 0.930 . S
C359 N356 1.390 . S
C359 C360 1.346 . S
C359 H364 0.930 . S
C360 N357 1.336 . S
C360 C359 1.346 . S
C360 H367 0.929 . S
C361 O351 1.282 . S
C361 O362 1.216 . S
O362 C361 1.216 . S
H363 C358 0.930 . S
H364 C359 0.930 . S
O365 Cu345 1.959 . S
O365 C352 1.251 . S
H366 C349 0.930 . S
H367 C360 0.929 . S
Cu368 N369 1.999 . S
Cu368 O374 1.974 . S
Cu368 N379 1.985 . S
Cu368 O388 1.959 . S
N369 Cu368 1.999 . S
N369 C371 1.263 . S
N369 C373 1.389 . S
N370 C371 1.358 . S
N370 C372 1.400 . S
C371 N369 1.263 . S
C371 N370 1.358 . S
C371 H377 0.930 . S
C372 N370 1.400 . S
C372 C373 1.351 . S
C372 H389 0.930 . S
C373 N369 1.389 . S
C373 C372 1.351 . S
C373 H378 0.930 . S
O374 Cu368 1.974 . S
O374 C384 1.282 . S
C375 O376 1.261 . S
C375 O388 1.251 . S
O376 C375 1.261 . S
H377 C371 0.930 . S
H378 C373 0.930 . S
N379 Cu368 1.985 . S
N379 C381 1.335 . S
N379 C382 1.390 . S
N380 C381 1.345 . S
N380 C383 1.336 . S
C381 N379 1.335 . S
C381 N380 1.345 . S
C381 H386 0.930 . S
C382 N379 1.390 . S
C382 C383 1.346 . S
C382 H387 0.930 . S
C383 N380 1.336 . S
C383 C382 1.346 . S
C383 H390 0.929 . S
C384 O374 1.282 . S
C384 O385 1.216 . S
O385 C384 1.216 . S
H386 C381 0.930 . S
H387 C382 0.930 . S
O388 Cu368 1.959 . S
O388 C375 1.251 . S
H389 C372 0.930 . S
H390 C383 0.929 . S
Cu391 N392 1.999 . S
Cu391 O397 1.974 . S
Cu391 N402 1.985 . S
Cu391 O411 1.959 . S
N392 Cu391 1.999 . S
N392 C394 1.263 . S
N392 C396 1.389 . S
N393 C394 1.358 . S
N393 C395 1.400 . S
C394 N392 1.263 . S
C394 N393 1.358 . S
C394 H400 0.930 . S
C395 N393 1.400 . S
C395 C396 1.351 . S
C395 H412 0.930 . S
C396 N392 1.389 . S
C396 C395 1.351 . S
C396 H401 0.930 . S
O397 Cu391 1.974 . S
O397 C407 1.282 . S
C398 O399 1.261 . S
C398 O411 1.251 . S
O399 C398 1.261 . S
H400 C394 0.930 . S
H401 C396 0.930 . S
N402 Cu391 1.985 . S
N402 C404 1.335 . S
N402 C405 1.390 . S
N403 C404 1.345 . S
N403 C406 1.336 . S
C404 N402 1.335 . S
C404 N403 1.345 . S
C404 H409 0.930 . S
C405 N402 1.390 . S
C405 C406 1.346 . S
C405 H410 0.930 . S
C406 N403 1.336 . S
C406 C405 1.346 . S
C406 H413 0.929 . S
C407 O397 1.282 . S
C407 O408 1.216 . S
O408 C407 1.216 . S
H409 C404 0.930 . S
H410 C405 0.930 . S
O411 Cu391 1.959 . S
O411 C398 1.251 . S
H412 C395 0.930 . S
H413 C406 0.929 . S
C414 O415 1.306 . S
C414 O417 1.160 . S
O415 C414 1.306 . S
O415 Cd416 2.228 . S
Cd416 O415 2.228 . S
Cd416 O420 2.273 1_455 S
Cd416 O424 2.277 . S
O417 C414 1.160 . S
O417 Cd418 2.203 . S
Cd418 O417 2.203 . S
Cd418 O420 2.411 1_455 S
Cd418 O421 2.333 . S
Cd418 O422 2.352 . S
Cd418 O426 2.277 . S
Cd418 O427 2.356 . S
C419 O424 1.209 . S
C419 O426 1.226 . S
O420 Cd416 2.273 1_655 S
O420 Cd418 2.411 1_655 S
O420 C423 1.320 . S
O421 Cd418 2.333 . S
O421 C423 1.214 1_455 S
O422 Cd418 2.352 . S
O422 C425 1.258 . S
C423 O420 1.320 . S
C423 O421 1.214 1_655 S
O424 Cd416 2.277 . S
O424 C419 1.209 . S
C425 O422 1.258 . S
C425 O427 1.282 . S
O426 Cd418 2.277 . S
O426 C419 1.226 . S
O427 Cd418 2.356 . S
O427 C425 1.282 . S
C428 O429 1.306 . S
C428 O431 1.160 . S
O429 C428 1.306 . S
O429 Cd430 2.228 . S
Cd430 O429 2.228 . S
Cd430 O434 2.273 . S
Cd430 O438 2.277 . S
O431 C428 1.160 . S
O431 Cd432 2.203 . S
Cd432 O431 2.203 . S
Cd432 O434 2.411 . S
Cd432 O435 2.333 . S
Cd432 O436 2.352 . S
Cd432 O440 2.277 . S
Cd432 O441 2.356 . S
C433 O438 1.209 . S
C433 O440 1.226 . S
O434 Cd430 2.273 . S
O434 Cd432 2.411 . S
O434 C437 1.320 . S
O435 Cd432 2.333 . S
O435 C437 1.214 . S
O436 Cd432 2.352 . S
O436 C439 1.258 . S
C437 O434 1.320 . S
C437 O435 1.214 . S
O438 Cd430 2.277 . S
O438 C433 1.209 . S
C439 O436 1.258 . S
C439 O441 1.282 . S
O440 Cd432 2.277 . S
O440 C433 1.226 . S
O441 Cd432 2.356 . S
O441 C439 1.282 . S
C442 O443 1.306 . S
C442 O445 1.160 . S
O443 C442 1.306 . S
O443 Cd444 2.228 . S
Cd444 O443 2.228 . S
Cd444 O448 2.273 . S
Cd444 O452 2.277 . S
O445 C442 1.160 . S
O445 Cd446 2.203 . S
Cd446 O445 2.203 . S
Cd446 O448 2.411 . S
Cd446 O449 2.333 . S
Cd446 O450 2.352 . S
Cd446 O454 2.277 . S
Cd446 O455 2.356 . S
C447 O452 1.209 . S
C447 O454 1.226 . S
O448 Cd444 2.273 . S
O448 Cd446 2.411 . S
O448 C451 1.320 . S
O449 Cd446 2.333 . S
O449 C451 1.214 . S
O450 Cd446 2.352 . S
O450 C453 1.258 . S
C451 O448 1.320 . S
C451 O449 1.214 . S
O452 Cd444 2.277 . S
O452 C447 1.209 . S
C453 O450 1.258 . S
C453 O455 1.282 . S
O454 Cd446 2.277 . S
O454 C447 1.226 . S
O455 Cd446 2.356 . S
O455 C453 1.282 . S
C456 O457 1.306 . S
C456 O459 1.160 . S
O457 C456 1.306 . S
O457 Cd458 2.228 . S
Cd458 O457 2.228 . S
Cd458 O462 2.273 . S
Cd458 O466 2.277 . S
O459 C456 1.160 . S
O459 Cd460 2.203 . S
Cd460 O459 2.203 . S
Cd460 O462 2.411 . S
Cd460 O463 2.333 . S
Cd460 O464 2.352 . S
Cd460 O468 2.277 1_455 S
Cd460 O469 2.356 . S
C461 O466 1.172 1_655 S
C461 O468 1.246 . S
O462 Cd458 2.273 . S
O462 Cd460 2.411 . S
O462 C465 1.320 . S
O463 Cd460 2.333 . S
O463 C465 1.214 . S
O464 Cd460 2.352 . S
O464 C467 1.258 . S
C465 O462 1.320 . S
C465 O463 1.214 . S
O466 Cd458 2.277 . S
O466 C461 1.172 1_455 S
C467 O464 1.258 . S
C467 O469 1.282 . S
O468 Cd460 2.277 1_655 S
O468 C461 1.246 . S
O469 Cd460 2.356 . S
O469 C467 1.282 . S
C470 O471 1.306 . S
C470 O473 1.160 . S
O471 C470 1.306 . S
O471 Cd472 2.228 . S
Cd472 O471 2.228 . S
Cd472 O476 2.273 . S
Cd472 O480 2.277 . S
O473 C470 1.160 . S
O473 Cd474 2.203 . S
Cd474 O473 2.203 . S
Cd474 O476 2.411 . S
Cd474 O477 2.333 . S
Cd474 O478 2.352 . S
Cd474 O482 2.277 . S
Cd474 O483 2.356 . S
C475 O480 1.209 . S
C475 O482 1.226 . S
O476 Cd472 2.273 . S
O476 Cd474 2.411 . S
O476 C479 1.320 . S
O477 Cd474 2.333 . S
O477 C479 1.214 . S
O478 Cd474 2.352 . S
O478 C481 1.258 . S
C479 O476 1.320 . S
C479 O477 1.214 . S
O480 Cd472 2.277 . S
O480 C475 1.209 . S
C481 O478 1.258 . S
C481 O483 1.282 . S
O482 Cd474 2.277 . S
O482 C475 1.226 . S
O483 Cd474 2.356 . S
O483 C481 1.282 . S
C484 O485 1.306 . S
C484 O487 1.160 . S
O485 C484 1.306 . S
O485 Cd486 2.228 . S
Cd486 O485 2.228 . S
Cd486 O490 2.273 . S
Cd486 O494 2.277 . S
O487 C484 1.160 . S
O487 Cd488 2.203 . S
Cd488 O487 2.203 . S
Cd488 O490 2.411 . S
Cd488 O491 2.333 . S
Cd488 O492 2.352 . S
Cd488 O496 2.277 . S
Cd488 O497 2.356 . S
C489 O494 1.209 . S
C489 O496 1.226 . S
O490 Cd486 2.273 . S
O490 Cd488 2.411 . S
O490 C493 1.320 . S
O491 Cd488 2.333 . S
O491 C493 1.214 . S
O492 Cd488 2.352 . S
O492 C495 1.258 . S
C493 O490 1.320 . S
C493 O491 1.214 . S
O494 Cd486 2.277 . S
O494 C489 1.209 . S
C495 O492 1.258 . S
C495 O497 1.282 . S
O496 Cd488 2.277 . S
O496 C489 1.226 . S
O497 Cd488 2.356 . S
O497 C495 1.282 . S
C498 O499 1.306 . S
C498 O501 1.160 . S
O499 C498 1.306 . S
O499 Cd500 2.228 1_565 S
Cd500 O499 2.228 1_545 S
Cd500 O504 2.273 1_545 S
Cd500 O508 2.277 . S
O501 C498 1.160 . S
O501 Cd502 2.165 1_565 S
Cd502 O501 2.165 1_545 S
Cd502 O504 2.429 1_545 S
Cd502 O505 2.372 . S
Cd502 O506 2.302 1_545 S
Cd502 O510 2.317 . S
Cd502 O511 2.337 1_545 S
C503 O508 1.209 . S
C503 O510 1.226 . S
O504 Cd500 2.273 1_565 S
O504 Cd502 2.429 1_565 S
O504 C507 1.320 1_565 S
O505 Cd502 2.372 . S
O505 C507 1.214 . S
O506 Cd502 2.302 1_565 S
O506 C509 1.258 . S
C507 O504 1.320 1_545 S
C507 O505 1.214 . S
O508 Cd500 2.277 . S
O508 C503 1.209 . S
C509 O506 1.258 . S
C509 O511 1.282 . S
O510 Cd502 2.317 . S
O510 C503 1.226 . S
O511 Cd502 2.337 1_565 S
O511 C509 1.282 . S
C512 O513 1.306 . S
C512 O515 1.160 . S
O513 C512 1.306 . S
O513 Cd514 2.228 . S
Cd514 O513 2.228 . S
Cd514 O518 2.273 . S
Cd514 O522 2.277 . S
O515 C512 1.160 . S
O515 Cd516 2.203 . S
Cd516 O515 2.203 . S
Cd516 O518 2.411 . S
Cd516 O519 2.333 . S
Cd516 O520 2.352 . S
Cd516 O524 2.277 . S
Cd516 O525 2.356 . S
C517 O522 1.209 . S
C517 O524 1.226 . S
O518 Cd514 2.273 . S
O518 Cd516 2.411 . S
O518 C521 1.320 . S
O519 Cd516 2.333 . S
O519 C521 1.214 . S
O520 Cd516 2.352 . S
O520 C523 1.258 . S
C521 O518 1.320 . S
C521 O519 1.214 . S
O522 Cd514 2.277 . S
O522 C517 1.209 . S
C523 O520 1.258 . S
C523 O525 1.282 . S
O524 Cd516 2.277 . S
O524 C517 1.226 . S
O525 Cd516 2.356 . S
O525 C523 1.282 . S
C526 O527 1.306 . S
C526 O529 1.160 . S
O527 C526 1.306 . S
O527 Cd528 2.228 . S
Cd528 O527 2.228 . S
Cd528 O532 2.273 . S
Cd528 O536 2.277 . S
O529 C526 1.160 . S
O529 Cd530 2.203 . S
Cd530 O529 2.203 . S
Cd530 O532 2.411 . S
Cd530 O533 2.333 . S
Cd530 O534 2.352 . S
Cd530 O538 2.277 . S
Cd530 O539 2.356 . S
C531 O536 1.209 . S
C531 O538 1.226 . S
O532 Cd528 2.273 . S
O532 Cd530 2.411 . S
O532 C535 1.320 . S
O533 Cd530 2.333 . S
O533 C535 1.214 . S
O534 Cd530 2.352 . S
O534 C537 1.258 . S
C535 O532 1.320 . S
C535 O533 1.214 . S
O536 Cd528 2.277 . S
O536 C531 1.209 . S
C537 O534 1.258 . S
C537 O539 1.282 . S
O538 Cd530 2.277 . S
O538 C531 1.226 . S
O539 Cd530 2.356 . S
O539 C537 1.282 . S
C540 O541 1.306 . S
C540 O543 1.160 . S
O541 C540 1.306 . S
O541 Cd542 2.228 . S
Cd542 O541 2.228 . S
Cd542 O546 2.273 . S
Cd542 O550 2.277 . S
O543 C540 1.160 . S
O543 Cd544 2.203 . S
Cd544 O543 2.203 . S
Cd544 O546 2.411 . S
Cd544 O547 2.333 . S
Cd544 O548 2.352 . S
Cd544 O552 2.277 . S
Cd544 O553 2.356 . S
C545 O550 1.209 . S
C545 O552 1.226 . S
O546 Cd542 2.273 . S
O546 Cd544 2.411 . S
O546 C549 1.320 . S
O547 Cd544 2.333 . S
O547 C549 1.214 . S
O548 Cd544 2.352 . S
O548 C551 1.258 . S
C549 O546 1.320 . S
C549 O547 1.214 . S
O550 Cd542 2.277 . S
O550 C545 1.209 . S
C551 O548 1.258 . S
C551 O553 1.282 . S
O552 Cd544 2.277 . S
O552 C545 1.226 . S
O553 Cd544 2.356 . S
O553 C551 1.282 . S
C554 O555 1.301 1_545 S
C554 O557 1.176 . S
O555 C554 1.301 1_565 S
O555 Cd556 2.211 1_565 S
Cd556 O555 2.211 1_545 S
Cd556 O560 2.262 1_545 S
Cd556 O564 2.318 . S
O557 C554 1.176 . S
O557 Cd558 2.203 1_545 S
Cd558 O557 2.203 1_565 S
Cd558 O560 2.411 . S
Cd558 O561 2.333 . S
Cd558 O562 2.352 . S
Cd558 O566 2.277 1_565 S
Cd558 O567 2.356 . S
C559 O564 1.209 . S
C559 O566 1.226 . S
O560 Cd556 2.262 1_565 S
O560 Cd558 2.411 . S
O560 C563 1.320 . S
O561 Cd558 2.333 . S
O561 C563 1.214 . S
O562 Cd558 2.352 . S
O562 C565 1.258 . S
C563 O560 1.320 . S
C563 O561 1.214 . S
O564 Cd556 2.318 . S
O564 C559 1.209 . S
C565 O562 1.258 . S
C565 O567 1.282 . S
O566 Cd558 2.277 1_545 S
O566 C559 1.226 . S
O567 Cd558 2.356 . S
O567 C565 1.282 . S
C568 O569 1.306 . S
C568 O571 1.160 . S
O569 C568 1.306 . S
O569 Cd570 2.228 . S
Cd570 O569 2.228 . S
Cd570 O574 2.273 . S
Cd570 O578 2.277 . S
O571 C568 1.160 . S
O571 Cd572 2.203 . S
Cd572 O571 2.203 . S
Cd572 O574 2.411 . S
Cd572 O575 2.333 . S
Cd572 O576 2.352 . S
Cd572 O580 2.277 . S
Cd572 O581 2.356 . S
C573 O578 1.209 . S
C573 O580 1.226 . S
O574 Cd570 2.273 . S
O574 Cd572 2.411 . S
O574 C577 1.320 . S
O575 Cd572 2.333 . S
O575 C577 1.214 . S
O576 Cd572 2.352 . S
O576 C579 1.258 . S
C577 O574 1.320 . S
C577 O575 1.214 . S
O578 Cd570 2.277 . S
O578 C573 1.209 . S
C579 O576 1.258 . S
C579 O581 1.282 . S
O580 Cd572 2.277 . S
O580 C573 1.226 . S
O581 Cd572 2.356 . S
O581 C579 1.282 . S
C582 O583 1.306 . S
C582 O585 1.160 . S
O583 C582 1.306 . S
O583 Cd584 2.228 . S
Cd584 O583 2.228 . S
Cd584 O588 2.273 . S
Cd584 O592 2.277 . S
O585 C582 1.160 . S
O585 Cd586 2.203 . S
Cd586 O585 2.203 . S
Cd586 O588 2.411 . S
Cd586 O589 2.333 . S
Cd586 O590 2.352 . S
Cd586 O594 2.277 . S
Cd586 O595 2.356 . S
C587 O592 1.209 . S
C587 O594 1.226 . S
O588 Cd584 2.273 . S
O588 Cd586 2.411 . S
O588 C591 1.320 . S
O589 Cd586 2.333 . S
O589 C591 1.214 . S
O590 Cd586 2.352 . S
O590 C593 1.258 . S
C591 O588 1.320 . S
C591 O589 1.214 . S
O592 Cd584 2.277 . S
O592 C587 1.209 . S
C593 O590 1.258 . S
C593 O595 1.282 . S
O594 Cd586 2.277 . S
O594 C587 1.226 . S
O595 Cd586 2.356 . S
O595 C593 1.282 . S
C596 O597 1.306 . S
C596 O599 1.160 . S
O597 C596 1.306 . S
O597 Cd598 2.228 . S
Cd598 O597 2.228 . S
Cd598 O602 2.273 . S
Cd598 O606 2.277 . S
O599 C596 1.160 . S
O599 Cd600 2.203 . S
Cd600 O599 2.203 . S
Cd600 O602 2.411 . S
Cd600 O603 2.333 . S
Cd600 O604 2.352 . S
Cd600 O608 2.277 . S
Cd600 O609 2.356 . S
C601 O606 1.209 . S
C601 O608 1.226 . S
O602 Cd598 2.273 . S
O602 Cd600 2.411 . S
O602 C605 1.320 . S
O603 Cd600 2.333 . S
O603 C605 1.214 . S
O604 Cd600 2.352 . S
O604 C607 1.258 . S
C605 O602 1.320 . S
C605 O603 1.214 . S
O606 Cd598 2.277 . S
O606 C601 1.209 . S
C607 O604 1.258 . S
C607 O609 1.282 . S
O608 Cd600 2.277 . S
O608 C601 1.226 . S
O609 Cd600 2.356 . S
O609 C607 1.282 . S
C610 O611 1.306 . S
C610 O613 1.160 . S
O611 C610 1.306 . S
O611 Cd612 2.228 . S
Cd612 O611 2.228 . S
Cd612 O616 2.273 . S
Cd612 O620 2.277 . S
O613 C610 1.160 . S
O613 Cd614 2.203 . S
Cd614 O613 2.203 . S
Cd614 O616 2.411 . S
Cd614 O617 2.333 . S
Cd614 O618 2.352 . S
Cd614 O622 2.277 . S
Cd614 O623 2.356 . S
C615 O620 1.209 1_455 S
C615 O622 1.226 1_455 S
O616 Cd612 2.273 . S
O616 Cd614 2.411 . S
O616 C619 1.320 . S
O617 Cd614 2.333 . S
O617 C619 1.214 . S
O618 Cd614 2.352 . S
O618 C621 1.258 . S
C619 O616 1.320 . S
C619 O617 1.214 . S
O620 Cd612 2.277 . S
O620 C615 1.209 1_655 S
C621 O618 1.258 . S
C621 O623 1.282 . S
O622 Cd614 2.277 . S
O622 C615 1.226 1_655 S
O623 Cd614 2.356 . S
O623 C621 1.282 . S
C624 O625 1.306 . S
C624 O627 1.160 . S
O625 C624 1.306 . S
O625 Cd626 2.228 . S
Cd626 O625 2.228 . S
Cd626 O630 2.273 . S
Cd626 O634 2.277 . S
O627 C624 1.160 . S
O627 Cd628 2.203 . S
Cd628 O627 2.203 . S
Cd628 O630 2.411 . S
Cd628 O631 2.333 . S
Cd628 O632 2.352 . S
Cd628 O636 2.277 . S
Cd628 O637 2.356 . S
C629 O634 1.209 . S
C629 O636 1.226 . S
O630 Cd626 2.273 . S
O630 Cd628 2.411 . S
O630 C633 1.320 . S
O631 Cd628 2.333 . S
O631 C633 1.214 . S
O632 Cd628 2.352 . S
O632 C635 1.258 . S
C633 O630 1.320 . S
C633 O631 1.214 . S
O634 Cd626 2.277 . S
O634 C629 1.209 . S
C635 O632 1.258 . S
C635 O637 1.282 . S
O636 Cd628 2.277 . S
O636 C629 1.226 . S
O637 Cd628 2.356 . S
O637 C635 1.282 . S
C638 O639 1.306 . S
C638 O641 1.160 1_455 S
O639 C638 1.306 . S
O639 Cd640 2.228 1_455 S
Cd640 O639 2.228 1_655 S
Cd640 O644 2.273 . S
Cd640 O648 2.277 . S
O641 C638 1.160 1_655 S
O641 Cd642 2.203 . S
Cd642 O641 2.203 . S
Cd642 O644 2.411 . S
Cd642 O645 2.333 . S
Cd642 O646 2.352 . S
Cd642 O650 2.277 . S
Cd642 O651 2.356 . S
C643 O648 1.209 . S
C643 O650 1.226 . S
O644 Cd640 2.273 . S
O644 Cd642 2.411 . S
O644 C647 1.320 . S
O645 Cd642 2.333 . S
O645 C647 1.214 . S
O646 Cd642 2.352 . S
O646 C649 1.258 . S
C647 O644 1.320 . S
C647 O645 1.214 . S
O648 Cd640 2.277 . S
O648 C643 1.209 . S
C649 O646 1.258 . S
C649 O651 1.282 . S
O650 Cd642 2.277 . S
O650 C643 1.226 . S
O651 Cd642 2.356 . S
O651 C649 1.282 . S
C652 O653 1.306 . S
C652 O655 1.160 . S
O653 C652 1.306 . S
O653 Cd654 2.228 . S
Cd654 O653 2.228 . S
Cd654 O658 2.273 . S
Cd654 O662 2.277 . S
O655 C652 1.160 . S
O655 Cd656 2.203 . S
Cd656 O655 2.203 . S
Cd656 O658 2.411 . S
Cd656 O659 2.333 . S
Cd656 O660 2.352 . S
Cd656 O664 2.277 . S
Cd656 O665 2.356 . S
C657 O662 1.209 . S
C657 O664 1.226 . S
O658 Cd654 2.273 . S
O658 Cd656 2.411 . S
O658 C661 1.320 . S
O659 Cd656 2.333 . S
O659 C661 1.214 . S
O660 Cd656 2.352 . S
O660 C663 1.258 . S
C661 O658 1.320 . S
C661 O659 1.214 . S
O662 Cd654 2.277 . S
O662 C657 1.209 . S
C663 O660 1.258 . S
C663 O665 1.282 . S
O664 Cd656 2.277 . S
O664 C657 1.226 . S
O665 Cd656 2.356 . S
O665 C663 1.282 . S
H666 C674 0.929 . S
H667 C676 0.930 . S
H668 C678 0.930 . S
H669 C681 0.929 . S
H670 C684 0.930 . S
H671 C686 0.960 . S
H672 C686 0.960 . S
H673 C686 0.960 . S
C674 H666 0.929 . S
C674 C675 1.377 . S
C674 C676 1.384 . S
C675 C674 1.377 . S
C675 C681 1.390 . S
C676 H667 0.930 . S
C676 C674 1.384 . S
C676 C677 1.372 . S
C677 C676 1.372 . S
C677 C678 1.400 . S
C677 C682 1.490 . S
C678 H668 0.930 . S
C678 C677 1.400 . S
C678 C681 1.386 . S
H679 C695 0.930 . S
H680 C696 0.931 . S
C681 H669 0.929 . S
C681 C675 1.390 . S
C681 C678 1.386 . S
C682 C677 1.490 . S
C682 C684 1.395 . S
C682 C685 1.403 . S
H683 C689 0.930 . S
C684 H670 0.930 . S
C684 C682 1.395 . S
C684 C687 1.403 . S
C685 C682 1.403 . S
C685 C686 1.524 . S
C685 C689 1.400 . S
C686 H671 0.960 . S
C686 H672 0.960 . S
C686 H673 0.960 . S
C686 C685 1.524 . S
C687 C684 1.403 . S
C687 C688 1.392 . S
C687 C691 1.495 . S
C688 C687 1.392 . S
C688 C689 1.385 . S
C688 C690 1.478 . S
C689 H683 0.930 . S
C689 C685 1.400 . S
C689 C688 1.385 . S
C690 C688 1.478 . S
C690 C692 1.381 . S
C690 C696 1.383 . S
C691 C687 1.495 . S
C691 H697 0.959 . S
C691 H698 0.961 . S
C691 H699 0.960 . S
C692 C690 1.381 . S
C692 C693 1.394 . S
C692 H700 0.930 . S
C693 C692 1.394 . S
C693 C694 1.383 . S
C693 H701 0.929 . S
C694 C693 1.383 . S
C694 C695 1.377 . S
C695 H679 0.930 . S
C695 C694 1.377 . S
C695 C696 1.379 . S
C696 H680 0.931 . S
C696 C690 1.383 . S
C696 C695 1.379 . S
H697 C691 0.959 . S
H698 C691 0.961 . S
H699 C691 0.960 . S
H700 C692 0.930 . S
H701 C693 0.929 . S
H702 C710 0.929 . S
H703 C712 0.930 . S
H704 C714 0.930 . S
H705 C717 0.929 . S
H706 C720 0.930 . S
H707 C722 0.960 . S
H708 C722 0.960 . S
H709 C722 0.960 . S
C710 H702 0.929 . S
C710 C711 1.377 . S
C710 C712 1.384 . S
C711 C710 1.377 . S
C711 C717 1.390 . S
C712 H703 0.930 . S
C712 C710 1.384 . S
C712 C713 1.372 . S
C713 C712 1.372 . S
C713 C714 1.400 . S
C713 C718 1.490 . S
C714 H704 0.930 . S
C714 C713 1.400 . S
C714 C717 1.386 . S
H715 C731 0.930 . S
H716 C732 0.931 . S
C717 H705 0.929 . S
C717 C711 1.390 . S
C717 C714 1.386 . S
C718 C713 1.490 . S
C718 C720 1.395 . S
C718 C721 1.403 . S
H719 C725 0.930 . S
C720 H706 0.930 . S
C720 C718 1.395 . S
C720 C723 1.403 . S
C721 C718 1.403 . S
C721 C722 1.524 . S
C721 C725 1.400 . S
C722 H707 0.960 . S
C722 H708 0.960 . S
C722 H709 0.960 . S
C722 C721 1.524 . S
C723 C720 1.403 . S
C723 C724 1.392 . S
C723 C727 1.495 . S
C724 C723 1.392 . S
C724 C725 1.385 . S
C724 C726 1.478 . S
C725 H719 0.930 . S
C725 C721 1.400 . S
C725 C724 1.385 . S
C726 C724 1.478 . S
C726 C728 1.381 . S
C726 C732 1.383 . S
C727 C723 1.495 . S
C727 H733 0.959 . S
C727 H734 0.961 . S
C727 H735 0.960 . S
C728 C726 1.381 . S
C728 C729 1.394 . S
C728 H736 0.930 . S
C729 C728 1.394 . S
C729 C730 1.383 . S
C729 H737 0.929 . S
C730 C729 1.383 . S
C730 C731 1.377 . S
C731 H715 0.930 . S
C731 C730 1.377 . S
C731 C732 1.379 . S
C732 H716 0.931 . S
C732 C726 1.383 . S
C732 C731 1.379 . S
H733 C727 0.959 . S
H734 C727 0.961 . S
H735 C727 0.960 . S
H736 C728 0.930 . S
H737 C729 0.929 . S
H738 C746 0.929 . S
H739 C748 0.930 . S
H740 C750 0.930 . S
H741 C753 0.929 . S
H742 C756 0.930 . S
H743 C758 0.963 . S
H744 C758 0.930 1_545 S
H745 C758 1.033 . S
C746 H738 0.929 . S
C746 C747 1.377 . S
C746 C748 1.384 . S
C747 C746 1.377 . S
C747 C753 1.390 1_545 S
C748 H739 0.930 . S
C748 C746 1.384 . S
C748 C749 1.372 . S
C749 C748 1.372 . S
C749 C750 1.400 1_545 S
C749 C754 1.490 . S
C750 H740 0.930 . S
C750 C749 1.400 1_565 S
C750 C753 1.386 . S
H751 C767 0.930 . S
H752 C768 0.931 . S
C753 H741 0.929 . S
C753 C747 1.390 1_565 S
C753 C750 1.386 . S
C754 C749 1.490 . S
C754 C756 1.395 . S
C754 C757 1.403 . S
H755 C761 0.930 1_565 S
C756 H742 0.930 . S
C756 C754 1.395 . S
C756 C759 1.403 . S
C757 C754 1.403 . S
C757 C758 1.486 1_545 S
C757 C761 1.400 . S
C758 H743 0.963 . S
C758 H744 0.930 1_565 S
C758 H745 1.033 . S
C758 C757 1.486 1_565 S
C759 C756 1.403 . S
C759 C760 1.392 . S
C759 C763 1.495 . S
C760 C759 1.392 . S
C760 C761 1.385 . S
C760 C762 1.478 . S
C761 H755 0.930 1_545 S
C761 C757 1.400 . S
C761 C760 1.385 . S
C762 C760 1.478 . S
C762 C764 1.381 . S
C762 C768 1.383 1_545 S
C763 C759 1.495 . S
C763 H769 0.959 . S
C763 H770 0.961 . S
C763 H771 0.960 . S
C764 C762 1.381 . S
C764 C765 1.394 . S
C764 H772 0.930 . S
C765 C764 1.394 . S
C765 C766 1.383 . S
C765 H773 0.929 . S
C766 C765 1.383 . S
C766 C767 1.377 1_545 S
C767 H751 0.930 . S
C767 C766 1.377 1_565 S
C767 C768 1.379 . S
C768 H752 0.931 . S
C768 C762 1.383 1_565 S
C768 C767 1.379 . S
H769 C763 0.959 . S
H770 C763 0.961 . S
H771 C763 0.960 . S
H772 C764 0.930 . S
H773 C765 0.929 . S
H774 C782 0.929 . S
H775 C784 0.930 . S
H776 C786 0.930 . S
H777 C789 0.929 . S
H778 C792 0.930 . S
H779 C794 0.960 . S
H780 C794 0.960 . S
H781 C794 0.960 . S
C782 H774 0.929 . S
C782 C783 1.377 . S
C782 C784 1.384 . S
C783 C782 1.377 . S
C783 C789 1.390 . S
C784 H775 0.930 . S
C784 C782 1.384 . S
C784 C785 1.372 . S
C785 C784 1.372 . S
C785 C786 1.400 . S
C785 C790 1.490 . S
C786 H776 0.930 . S
C786 C785 1.400 . S
C786 C789 1.386 . S
H787 C803 0.930 . S
H788 C804 0.931 . S
C789 H777 0.929 . S
C789 C783 1.390 . S
C789 C786 1.386 . S
C790 C785 1.490 . S
C790 C792 1.395 . S
C790 C793 1.403 . S
H791 C797 0.930 . S
C792 H778 0.930 . S
C792 C790 1.395 . S
C792 C795 1.403 . S
C793 C790 1.403 . S
C793 C794 1.524 . S
C793 C797 1.400 . S
C794 H779 0.960 . S
C794 H780 0.960 . S
C794 H781 0.960 . S
C794 C793 1.524 . S
C795 C792 1.403 . S
C795 C796 1.392 . S
C795 C799 1.495 . S
C796 C795 1.392 . S
C796 C797 1.385 . S
C796 C798 1.478 . S
C797 H791 0.930 . S
C797 C793 1.400 . S
C797 C796 1.385 . S
C798 C796 1.478 . S
C798 C800 1.381 . S
C798 C804 1.383 . S
C799 C795 1.495 . S
C799 H805 0.959 . S
C799 H806 0.961 . S
C799 H807 0.960 . S
C800 C798 1.381 . S
C800 C801 1.394 . S
C800 H808 0.930 . S
C801 C800 1.394 . S
C801 C802 1.383 . S
C801 H809 0.929 . S
C802 C801 1.383 . S
C802 C803 1.377 . S
C803 H787 0.930 . S
C803 C802 1.377 . S
C803 C804 1.379 . S
C804 H788 0.931 . S
C804 C798 1.383 . S
C804 C803 1.379 . S
H805 C799 0.959 . S
H806 C799 0.961 . S
H807 C799 0.960 . S
H808 C800 0.930 . S
H809 C801 0.929 . S
H810 C818 0.929 . S
H811 C820 0.930 . S
H812 C822 0.930 . S
H813 C825 0.929 . S
H814 C828 0.930 . S
H815 C830 0.960 . S
H816 C830 0.960 . S
H817 C830 0.960 . S
C818 H810 0.929 . S
C818 C819 1.377 . S
C818 C820 1.384 . S
C819 C818 1.377 . S
C819 C825 1.390 . S
C820 H811 0.930 . S
C820 C818 1.384 . S
C820 C821 1.372 . S
C821 C820 1.372 . S
C821 C822 1.400 . S
C821 C826 1.490 . S
C822 H812 0.930 . S
C822 C821 1.400 . S
C822 C825 1.386 . S
H823 C839 0.930 . S
H824 C840 0.931 . S
C825 H813 0.929 . S
C825 C819 1.390 . S
C825 C822 1.386 . S
C826 C821 1.490 . S
C826 C828 1.395 . S
C826 C829 1.403 . S
H827 C833 0.930 . S
C828 H814 0.930 . S
C828 C826 1.395 . S
C828 C831 1.403 . S
C829 C826 1.403 . S
C829 C830 1.524 . S
C829 C833 1.400 . S
C830 H815 0.960 . S
C830 H816 0.960 . S
C830 H817 0.960 . S
C830 C829 1.524 . S
C831 C828 1.403 . S
C831 C832 1.392 . S
C831 C835 1.495 1_455 S
C832 C831 1.392 . S
C832 C833 1.385 . S
C832 C834 1.478 . S
C833 H827 0.930 . S
C833 C829 1.400 . S
C833 C832 1.385 . S
C834 C832 1.478 . S
C834 C836 1.381 1_455 S
C834 C840 1.383 . S
C835 C831 1.495 1_655 S
C835 H841 0.959 . S
C835 H842 0.961 1_655 S
C835 H843 0.960 . S
C836 C834 1.381 1_655 S
C836 C837 1.394 . S
C836 H844 0.930 . S
C837 C836 1.394 . S
C837 C838 1.383 . S
C837 H845 0.929 . S
C838 C837 1.383 . S
C838 C839 1.377 1_655 S
C839 H823 0.930 . S
C839 C838 1.377 1_455 S
C839 C840 1.379 . S
C840 H824 0.931 . S
C840 C834 1.383 . S
C840 C839 1.379 . S
H841 C835 0.959 . S
H842 C835 0.961 1_455 S
H843 C835 0.960 . S
H844 C836 0.930 . S
H845 C837 0.929 . S
H846 C854 0.929 . S
H847 C856 0.930 . S
H848 C858 0.930 . S
H849 C861 0.929 . S
H850 C864 0.930 . S
H851 C866 0.960 . S
H852 C866 0.960 . S
H853 C866 0.960 . S
C854 H846 0.929 . S
C854 C855 1.377 . S
C854 C856 1.384 . S
C855 C854 1.377 . S
C855 C861 1.390 . S
C856 H847 0.930 . S
C856 C854 1.384 . S
C856 C857 1.372 . S
C857 C856 1.372 . S
C857 C858 1.400 . S
C857 C862 1.490 . S
C858 H848 0.930 . S
C858 C857 1.400 . S
C858 C861 1.386 . S
H859 C875 0.930 . S
H860 C876 0.931 . S
C861 H849 0.929 . S
C861 C855 1.390 . S
C861 C858 1.386 . S
C862 C857 1.490 . S
C862 C864 1.395 . S
C862 C865 1.403 . S
H863 C869 0.930 . S
C864 H850 0.930 . S
C864 C862 1.395 . S
C864 C867 1.403 . S
C865 C862 1.403 . S
C865 C866 1.524 . S
C865 C869 1.400 . S
C866 H851 0.960 . S
C866 H852 0.960 . S
C866 H853 0.960 . S
C866 C865 1.524 . S
C867 C864 1.403 . S
C867 C868 1.392 . S
C867 C871 1.495 . S
C868 C867 1.392 . S
C868 C869 1.385 . S
C868 C870 1.478 . S
C869 H863 0.930 . S
C869 C865 1.400 . S
C869 C868 1.385 . S
C870 C868 1.478 . S
C870 C872 1.381 . S
C870 C876 1.383 . S
C871 C867 1.495 . S
C871 H877 0.959 . S
C871 H878 0.961 . S
C871 H879 0.960 . S
C872 C870 1.381 . S
C872 C873 1.394 . S
C872 H880 0.930 . S
C873 C872 1.394 . S
C873 C874 1.383 . S
C873 H881 0.929 . S
C874 C873 1.383 . S
C874 C875 1.377 . S
C875 H859 0.930 . S
C875 C874 1.377 . S
C875 C876 1.379 . S
C876 H860 0.931 . S
C876 C870 1.383 . S
C876 C875 1.379 . S
H877 C871 0.959 . S
H878 C871 0.961 . S
H879 C871 0.960 . S
H880 C872 0.930 . S
H881 C873 0.929 . S
H882 C890 0.929 . S
H883 C892 0.930 . S
H884 C894 0.930 . S
H885 C897 0.926 1_554 S
H886 C900 0.930 . S
H887 C902 0.960 . S
H888 C902 0.960 . S
H889 C902 0.960 . S
C890 H882 0.929 . S
C890 C891 1.377 . S
C890 C892 1.384 . S
C891 C890 1.377 . S
C891 C897 1.390 . S
C892 H883 0.930 . S
C892 C890 1.384 . S
C892 C893 1.372 . S
C893 C892 1.372 . S
C893 C894 1.400 . S
C893 C898 1.490 . S
C894 H884 0.930 . S
C894 C893 1.400 . S
C894 C897 1.386 . S
H895 C911 0.930 . S
H896 C912 0.931 . S
C897 H885 0.926 1_556 S
C897 C891 1.390 . S
C897 C894 1.386 . S
C898 C893 1.490 . S
C898 C900 1.395 . S
C898 C901 1.403 . S
H899 C905 0.930 . S
C900 H886 0.930 . S
C900 C898 1.395 . S
C900 C903 1.403 . S
C901 C898 1.403 . S
C901 C902 1.524 1_556 S
C901 C905 1.400 . S
C902 H887 0.960 . S
C902 H888 0.960 . S
C902 H889 0.960 . S
C902 C901 1.524 1_554 S
C903 C900 1.403 . S
C903 C904 1.392 . S
C903 C907 1.495 . S
C904 C903 1.392 . S
C904 C905 1.385 . S
C904 C906 1.538 . S
C905 H899 0.930 . S
C905 C901 1.400 . S
C905 C904 1.385 . S
C906 C904 1.538 . S
C906 C908 1.398 . S
C906 C912 1.308 1_455 S
C907 C903 1.495 . S
C907 H913 0.959 . S
C907 H914 0.961 1_455 S
C907 H915 0.960 . S
C908 C906 1.398 . S
C908 C909 1.394 . S
C908 H916 0.930 . S
C909 C908 1.394 . S
C909 C910 1.383 1_455 S
C909 H917 0.929 . S
C910 C909 1.383 1_655 S
C910 C911 1.377 . S
C911 H895 0.930 . S
C911 C910 1.377 . S
C911 C912 1.379 . S
C912 H896 0.931 . S
C912 C906 1.308 1_655 S
C912 C911 1.379 . S
H913 C907 0.959 . S
H914 C907 0.961 1_655 S
H915 C907 0.960 . S
H916 C908 0.930 . S
H917 C909 0.929 . S
H918 C926 0.929 . S
H919 C928 0.930 . S
H920 C930 0.930 . S
H921 C933 0.929 . S
H922 C936 0.930 . S
H923 C938 0.960 . S
H924 C938 0.960 . S
H925 C938 0.960 . S
C926 H918 0.929 . S
C926 C927 1.377 1_554 S
C926 C928 1.384 . S
C927 C926 1.377 1_556 S
C927 C933 1.390 . S
C928 H919 0.930 . S
C928 C926 1.384 . S
C928 C929 1.372 1_554 S
C929 C928 1.372 1_556 S
C929 C930 1.400 . S
C929 C934 1.490 . S
C930 H920 0.930 . S
C930 C929 1.400 . S
C930 C933 1.386 . S
H931 C947 0.930 . S
H932 C948 0.931 . S
C933 H921 0.929 . S
C933 C927 1.390 . S
C933 C930 1.386 . S
C934 C929 1.490 . S
C934 C936 1.395 . S
C934 C937 1.403 . S
H935 C941 0.930 . S
C936 H922 0.930 . S
C936 C934 1.395 . S
C936 C939 1.403 . S
C937 C934 1.403 . S
C937 C938 1.524 . S
C937 C941 1.400 . S
C938 H923 0.960 . S
C938 H924 0.960 . S
C938 H925 0.960 . S
C938 C937 1.524 . S
C939 C936 1.403 . S
C939 C940 1.392 . S
C939 C943 1.495 . S
C940 C939 1.392 . S
C940 C941 1.385 . S
C940 C942 1.478 . S
C941 H935 0.930 . S
C941 C937 1.400 . S
C941 C940 1.385 . S
C942 C940 1.478 . S
C942 C944 1.381 . S
C942 C948 1.383 . S
C943 C939 1.495 . S
C943 H949 0.959 . S
C943 H950 0.961 . S
C943 H951 0.960 . S
C944 C942 1.381 . S
C944 C945 1.394 . S
C944 H952 0.930 . S
C945 C944 1.394 . S
C945 C946 1.383 . S
C945 H953 0.929 . S
C946 C945 1.383 . S
C946 C947 1.377 . S
C947 H931 0.930 . S
C947 C946 1.377 . S
C947 C948 1.379 . S
C948 H932 0.931 . S
C948 C942 1.383 . S
C948 C947 1.379 . S
H949 C943 0.959 . S
H950 C943 0.961 . S
H951 C943 0.960 . S
H952 C944 0.930 . S
H953 C945 0.929 . S
H954 C962 0.929 . S
H955 C964 0.930 . S
H956 C966 0.930 . S
H957 C969 0.929 . S
H958 C972 0.930 . S
H959 C974 0.960 . S
H960 C974 0.960 . S
H961 C974 0.960 . S
C962 H954 0.929 . S
C962 C963 1.377 . S
C962 C964 1.384 . S
C963 C962 1.377 . S
C963 C969 1.390 1_556 S
C964 H955 0.930 . S
C964 C962 1.384 . S
C964 C965 1.372 . S
C965 C964 1.372 . S
C965 C966 1.400 1_556 S
C965 C970 1.490 . S
C966 H956 0.930 . S
C966 C965 1.400 1_554 S
C966 C969 1.386 . S
H967 C983 0.930 . S
H968 C984 0.931 . S
C969 H957 0.929 . S
C969 C963 1.390 1_554 S
C969 C966 1.386 . S
C970 C965 1.490 . S
C970 C972 1.395 . S
C970 C973 1.403 . S
H971 C977 0.930 . S
C972 H958 0.930 . S
C972 C970 1.395 . S
C972 C975 1.403 . S
C973 C970 1.403 . S
C973 C974 1.524 . S
C973 C977 1.400 . S
C974 H959 0.960 . S
C974 H960 0.960 . S
C974 H961 0.960 . S
C974 C973 1.524 . S
C975 C972 1.403 . S
C975 C976 1.392 . S
C975 C979 1.495 . S
C976 C975 1.392 . S
C976 C977 1.385 . S
C976 C978 1.478 . S
C977 H971 0.930 . S
C977 C973 1.400 . S
C977 C976 1.385 . S
C978 C976 1.478 . S
C978 C980 1.381 . S
C978 C984 1.383 . S
C979 C975 1.495 . S
C979 H985 0.959 . S
C979 H986 0.961 . S
C979 H987 0.960 . S
C980 C978 1.381 . S
C980 C981 1.394 . S
C980 H988 0.930 . S
C981 C980 1.394 . S
C981 C982 1.383 . S
C981 H989 0.929 . S
C982 C981 1.383 . S
C982 C983 1.377 . S
C983 H967 0.930 . S
C983 C982 1.377 . S
C983 C984 1.379 . S
C984 H968 0.931 . S
C984 C978 1.383 . S
C984 C983 1.379 . S
H985 C979 0.959 . S
H986 C979 0.961 . S
H987 C979 0.960 . S
H988 C980 0.930 . S
H989 C981 0.929 . S
H990 C998 0.929 . S
H991 C1000 0.930 . S
H992 C1002 0.930 . S
H993 C1005 0.929 . S
H994 C1008 0.930 . S
H995 C1010 0.960 . S
H996 C1010 0.960 . S
H997 C1010 0.960 . S
C998 H990 0.929 . S
C998 C999 1.377 1_565 S
C998 C1000 1.384 . S
C999 C998 1.377 1_545 S
C999 C1005 1.390 . S
C1000 H991 0.930 . S
C1000 C998 1.384 . S
C1000 C1001 1.372 1_565 S
C1001 C1000 1.372 1_545 S
C1001 C1002 1.400 . S
C1001 C1006 1.490 . S
C1002 H992 0.930 . S
C1002 C1001 1.400 . S
C1002 C1005 1.386 . S
H1003 C1019 0.930 . S
H1004 C1020 0.931 . S
C1005 H993 0.929 . S
C1005 C999 1.390 . S
C1005 C1002 1.386 . S
C1006 C1001 1.490 . S
C1006 C1008 1.395 . S
C1006 C1009 1.403 1_545 S
H1007 C1013 0.930 . S
C1008 H994 0.930 . S
C1008 C1006 1.395 . S
C1008 C1011 1.403 . S
C1009 C1006 1.403 1_565 S
C1009 C1010 1.524 . S
C1009 C1013 1.400 . S
C1010 H995 0.960 . S
C1010 H996 0.960 . S
C1010 H997 0.960 . S
C1010 C1009 1.524 . S
C1011 C1008 1.403 . S
C1011 C1012 1.392 . S
C1011 C1015 1.495 . S
C1012 C1011 1.392 . S
C1012 C1013 1.385 1_545 S
C1012 C1014 1.478 . S
C1013 H1007 0.930 . S
C1013 C1009 1.400 . S
C1013 C1012 1.385 1_565 S
C1014 C1012 1.478 . S
C1014 C1016 1.381 1_545 S
C1014 C1020 1.383 . S
C1015 C1011 1.495 . S
C1015 H1021 0.959 . S
C1015 H1022 0.961 . S
C1015 H1023 0.960 . S
C1016 C1014 1.381 1_565 S
C1016 C1017 1.394 . S
C1016 H1024 0.930 . S
C1017 C1016 1.394 . S
C1017 C1018 1.383 1_565 S
C1017 H1025 0.929 . S
C1018 C1017 1.383 1_545 S
C1018 C1019 1.377 . S
C1019 H1003 0.930 . S
C1019 C1018 1.377 . S
C1019 C1020 1.379 . S
C1020 H1004 0.931 . S
C1020 C1014 1.383 . S
C1020 C1019 1.379 . S
H1021 C1015 0.959 . S
H1022 C1015 0.961 . S
H1023 C1015 0.960 . S
H1024 C1016 0.930 . S
H1025 C1017 0.929 . S
H1026 C1034 0.929 . S
H1027 C1036 0.930 . S
H1028 C1038 0.930 . S
H1029 C1041 0.929 . S
H1030 C1044 0.930 . S
H1031 C1046 0.960 . S
H1032 C1046 0.960 . S
H1033 C1046 0.960 . S
C1034 H1026 0.929 . S
C1034 C1035 1.377 . S
C1034 C1036 1.384 . S
C1035 C1034 1.377 . S
C1035 C1041 1.390 . S
C1036 H1027 0.930 . S
C1036 C1034 1.384 . S
C1036 C1037 1.372 . S
C1037 C1036 1.372 . S
C1037 C1038 1.400 . S
C1037 C1042 1.490 . S
C1038 H1028 0.930 . S
C1038 C1037 1.400 . S
C1038 C1041 1.386 . S
H1039 C1055 0.930 . S
H1040 C1056 0.931 . S
C1041 H1029 0.929 . S
C1041 C1035 1.390 . S
C1041 C1038 1.386 . S
C1042 C1037 1.490 . S
C1042 C1044 1.395 . S
C1042 C1045 1.403 . S
H1043 C1049 0.930 . S
C1044 H1030 0.930 . S
C1044 C1042 1.395 . S
C1044 C1047 1.403 . S
C1045 C1042 1.403 . S
C1045 C1046 1.524 . S
C1045 C1049 1.400 . S
C1046 H1031 0.960 . S
C1046 H1032 0.960 . S
C1046 H1033 0.960 . S
C1046 C1045 1.524 . S
C1047 C1044 1.403 . S
C1047 C1048 1.392 . S
C1047 C1051 1.495 . S
C1048 C1047 1.392 . S
C1048 C1049 1.385 . S
C1048 C1050 1.478 . S
C1049 H1043 0.930 . S
C1049 C1045 1.400 . S
C1049 C1048 1.385 . S
C1050 C1048 1.478 . S
C1050 C1052 1.381 . S
C1050 C1056 1.383 . S
C1051 C1047 1.495 . S
C1051 H1057 0.959 . S
C1051 H1058 0.961 . S
C1051 H1059 0.960 . S
C1052 C1050 1.381 . S
C1052 C1053 1.394 . S
C1052 H1060 0.930 . S
C1053 C1052 1.394 . S
C1053 C1054 1.383 . S
C1053 H1061 0.929 . S
C1054 C1053 1.383 . S
C1054 C1055 1.377 . S
C1055 H1039 0.930 . S
C1055 C1054 1.377 . S
C1055 C1056 1.379 . S
C1056 H1040 0.931 . S
C1056 C1050 1.383 . S
C1056 C1055 1.379 . S
H1057 C1051 0.959 . S
H1058 C1051 0.961 . S
H1059 C1051 0.960 . S
H1060 C1052 0.930 . S
H1061 C1053 0.929 . S
H1062 C1070 0.929 . S
H1063 C1072 0.930 . S
H1064 C1074 0.930 . S
H1065 C1077 0.929 . S
H1066 C1080 0.930 . S
H1067 C1082 0.960 . S
H1068 C1082 0.960 . S
H1069 C1082 0.960 . S
C1070 H1062 0.929 . S
C1070 C1071 1.377 . S
C1070 C1072 1.384 . S
C1071 C1070 1.377 . S
C1071 C1077 1.390 . S
C1072 H1063 0.930 . S
C1072 C1070 1.384 . S
C1072 C1073 1.372 . S
C1073 C1072 1.372 . S
C1073 C1074 1.400 . S
C1073 C1078 1.490 . S
C1074 H1064 0.930 . S
C1074 C1073 1.400 . S
C1074 C1077 1.386 . S
H1075 C1091 0.930 . S
H1076 C1092 0.931 . S
C1077 H1065 0.929 . S
C1077 C1071 1.390 . S
C1077 C1074 1.386 . S
C1078 C1073 1.490 . S
C1078 C1080 1.395 . S
C1078 C1081 1.403 . S
H1079 C1085 0.930 . S
C1080 H1066 0.930 . S
C1080 C1078 1.395 . S
C1080 C1083 1.403 . S
C1081 C1078 1.403 . S
C1081 C1082 1.524 . S
C1081 C1085 1.400 . S
C1082 H1067 0.960 . S
C1082 H1068 0.960 . S
C1082 H1069 0.960 . S
C1082 C1081 1.524 . S
C1083 C1080 1.403 . S
C1083 C1084 1.392 . S
C1083 C1087 1.495 . S
C1084 C1083 1.392 . S
C1084 C1085 1.385 . S
C1084 C1086 1.478 . S
C1085 H1079 0.930 . S
C1085 C1081 1.400 . S
C1085 C1084 1.385 . S
C1086 C1084 1.478 . S
C1086 C1088 1.381 . S
C1086 C1092 1.383 . S
C1087 C1083 1.495 . S
C1087 H1093 0.959 . S
C1087 H1094 0.961 . S
C1087 H1095 0.960 . S
C1088 C1086 1.381 . S
C1088 C1089 1.394 . S
C1088 H1096 0.930 . S
C1089 C1088 1.394 . S
C1089 C1090 1.383 . S
C1089 H1097 0.929 . S
C1090 C1089 1.383 . S
C1090 C1091 1.377 . S
C1091 H1075 0.930 . S
C1091 C1090 1.377 . S
C1091 C1092 1.379 . S
C1092 H1076 0.931 . S
C1092 C1086 1.383 . S
C1092 C1091 1.379 . S
H1093 C1087 0.959 . S
H1094 C1087 0.961 . S
H1095 C1087 0.960 . S
H1096 C1088 0.930 . S
H1097 C1089 0.929 . S
H1098 C1106 0.929 . S
H1099 C1108 0.930 . S
H1100 C1110 0.930 . S
H1101 C1113 0.929 . S
H1102 C1116 0.930 . S
H1103 C1118 0.960 . S
H1104 C1118 0.960 . S
H1105 C1118 0.960 . S
C1106 H1098 0.929 . S
C1106 C1107 1.377 . S
C1106 C1108 1.384 . S
C1107 C1106 1.377 . S
C1107 C1113 1.390 . S
C1108 H1099 0.930 . S
C1108 C1106 1.384 . S
C1108 C1109 1.372 . S
C1109 C1108 1.372 . S
C1109 C1110 1.400 . S
C1109 C1114 1.490 . S
C1110 H1100 0.930 . S
C1110 C1109 1.400 . S
C1110 C1113 1.386 . S
H1111 C1127 0.930 . S
H1112 C1128 0.931 . S
C1113 H1101 0.929 . S
C1113 C1107 1.390 . S
C1113 C1110 1.386 . S
C1114 C1109 1.490 . S
C1114 C1116 1.395 . S
C1114 C1117 1.403 . S
H1115 C1121 0.930 . S
C1116 H1102 0.930 . S
C1116 C1114 1.395 . S
C1116 C1119 1.403 . S
C1117 C1114 1.403 . S
C1117 C1118 1.524 . S
C1117 C1121 1.400 . S
C1118 H1103 0.960 . S
C1118 H1104 0.960 . S
C1118 H1105 0.960 . S
C1118 C1117 1.524 . S
C1119 C1116 1.403 . S
C1119 C1120 1.392 . S
C1119 C1123 1.495 . S
C1120 C1119 1.392 . S
C1120 C1121 1.385 . S
C1120 C1122 1.478 . S
C1121 H1115 0.930 . S
C1121 C1117 1.400 . S
C1121 C1120 1.385 . S
C1122 C1120 1.478 . S
C1122 C1124 1.381 . S
C1122 C1128 1.383 . S
C1123 C1119 1.495 . S
C1123 H1129 0.959 . S
C1123 H1130 0.961 . S
C1123 H1131 0.960 . S
C1124 C1122 1.381 . S
C1124 C1125 1.394 . S
C1124 H1132 0.930 . S
C1125 C1124 1.394 . S
C1125 C1126 1.383 . S
C1125 H1133 0.929 . S
C1126 C1125 1.383 . S
C1126 C1127 1.377 . S
C1127 H1111 0.930 . S
C1127 C1126 1.377 . S
C1127 C1128 1.379 . S
C1128 H1112 0.931 . S
C1128 C1122 1.383 . S
C1128 C1127 1.379 . S
H1129 C1123 0.959 . S
H1130 C1123 0.961 . S
H1131 C1123 0.960 . S
H1132 C1124 0.930 . S
H1133 C1125 0.929 . S
H1134 C1142 0.929 . S
H1135 C1144 0.930 . S
H1136 C1146 0.930 . S
H1137 C1149 0.929 . S
H1138 C1152 0.930 . S
H1139 C1154 0.960 . S
H1140 C1154 0.960 . S
H1141 C1154 0.960 . S
C1142 H1134 0.929 . S
C1142 C1143 1.377 . S
C1142 C1144 1.384 . S
C1143 C1142 1.377 . S
C1143 C1149 1.390 . S
C1144 H1135 0.930 . S
C1144 C1142 1.384 . S
C1144 C1145 1.372 . S
C1145 C1144 1.372 . S
C1145 C1146 1.400 . S
C1145 C1150 1.490 . S
C1146 H1136 0.930 . S
C1146 C1145 1.400 . S
C1146 C1149 1.386 . S
H1147 C1163 0.930 . S
H1148 C1164 0.931 . S
C1149 H1137 0.929 . S
C1149 C1143 1.390 . S
C1149 C1146 1.386 . S
C1150 C1145 1.490 . S
C1150 C1152 1.395 . S
C1150 C1153 1.403 1_565 S
H1151 C1157 0.930 . S
C1152 H1138 0.930 . S
C1152 C1150 1.395 . S
C1152 C1155 1.403 1_565 S
C1153 C1150 1.403 1_545 S
C1153 C1154 1.524 . S
C1153 C1157 1.400 . S
C1154 H1139 0.960 . S
C1154 H1140 0.960 . S
C1154 H1141 0.960 . S
C1154 C1153 1.524 . S
C1155 C1152 1.403 1_545 S
C1155 C1156 1.392 . S
C1155 C1159 1.495 . S
C1156 C1155 1.392 . S
C1156 C1157 1.385 . S
C1156 C1158 1.478 . S
C1157 H1151 0.930 . S
C1157 C1153 1.400 . S
C1157 C1156 1.385 . S
C1158 C1156 1.478 . S
C1158 C1160 1.381 . S
C1158 C1164 1.383 . S
C1159 C1155 1.495 . S
C1159 H1165 0.959 1_545 S
C1159 H1166 0.961 . S
C1159 H1167 0.960 . S
C1160 C1158 1.381 . S
C1160 C1161 1.394 . S
C1160 H1168 0.930 . S
C1161 C1160 1.394 . S
C1161 C1162 1.383 . S
C1161 H1169 0.929 . S
C1162 C1161 1.383 . S
C1162 C1163 1.377 . S
C1163 H1147 0.930 . S
C1163 C1162 1.377 . S
C1163 C1164 1.379 . S
C1164 H1148 0.931 . S
C1164 C1158 1.383 . S
C1164 C1163 1.379 . S
H1165 C1159 0.959 1_565 S
H1166 C1159 0.961 . S
H1167 C1159 0.960 . S
H1168 C1160 0.930 . S
H1169 C1161 0.929 . S
H1170 C1178 0.929 . S
H1171 C1180 0.930 . S
H1172 C1182 0.930 . S
H1173 C1185 0.929 . S
H1174 C1188 0.930 . S
H1175 C1190 0.960 . S
H1176 C1190 0.960 . S
H1177 C1190 0.960 . S
C1178 H1170 0.929 . S
C1178 C1179 1.377 . S
C1178 C1180 1.384 . S
C1179 C1178 1.377 . S
C1179 C1185 1.390 . S
C1180 H1171 0.930 . S
C1180 C1178 1.384 . S
C1180 C1181 1.372 . S
C1181 C1180 1.372 . S
C1181 C1182 1.400 . S
C1181 C1186 1.490 . S
C1182 H1172 0.930 . S
C1182 C1181 1.400 . S
C1182 C1185 1.386 . S
H1183 C1199 0.930 . S
H1184 C1200 0.931 . S
C1185 H1173 0.929 . S
C1185 C1179 1.390 . S
C1185 C1182 1.386 . S
C1186 C1181 1.490 . S
C1186 C1188 1.395 . S
C1186 C1189 1.403 . S
H1187 C1193 0.930 . S
C1188 H1174 0.930 . S
C1188 C1186 1.395 . S
C1188 C1191 1.403 . S
C1189 C1186 1.403 . S
C1189 C1190 1.524 . S
C1189 C1193 1.400 . S
C1190 H1175 0.960 . S
C1190 H1176 0.960 . S
C1190 H1177 0.960 . S
C1190 C1189 1.524 . S
C1191 C1188 1.403 . S
C1191 C1192 1.392 . S
C1191 C1195 1.495 . S
C1192 C1191 1.392 . S
C1192 C1193 1.385 . S
C1192 C1194 1.478 . S
C1193 H1187 0.930 . S
C1193 C1189 1.400 . S
C1193 C1192 1.385 . S
C1194 C1192 1.478 . S
C1194 C1196 1.381 . S
C1194 C1200 1.383 . S
C1195 C1191 1.495 . S
C1195 H1201 0.959 . S
C1195 H1202 0.961 . S
C1195 H1203 0.960 . S
C1196 C1194 1.381 . S
C1196 C1197 1.394 . S
C1196 H1204 0.930 . S
C1197 C1196 1.394 . S
C1197 C1198 1.383 . S
C1197 H1205 0.929 . S
C1198 C1197 1.383 . S
C1198 C1199 1.377 . S
C1199 H1183 0.930 . S
C1199 C1198 1.377 . S
C1199 C1200 1.379 . S
C1200 H1184 0.931 . S
C1200 C1194 1.383 . S
C1200 C1199 1.379 . S
H1201 C1195 0.959 . S
H1202 C1195 0.961 . S
H1203 C1195 0.960 . S
H1204 C1196 0.930 . S
H1205 C1197 0.929 . S
H1206 C1214 0.929 . S
H1207 C1216 0.930 . S
H1208 C1218 0.930 . S
H1209 C1221 0.929 . S
H1210 C1224 0.930 . S
H1211 C1226 0.960 . S
H1212 C1226 0.960 . S
H1213 C1226 0.960 . S
C1214 H1206 0.929 . S
C1214 C1215 1.377 . S
C1214 C1216 1.384 . S
C1215 C1214 1.377 . S
C1215 C1221 1.390 . S
C1216 H1207 0.930 . S
C1216 C1214 1.384 . S
C1216 C1217 1.372 . S
C1217 C1216 1.372 . S
C1217 C1218 1.400 . S
C1217 C1222 1.490 . S
C1218 H1208 0.930 . S
C1218 C1217 1.400 . S
C1218 C1221 1.386 . S
H1219 C1235 0.930 . S
H1220 C1236 0.931 . S
C1221 H1209 0.929 . S
C1221 C1215 1.390 . S
C1221 C1218 1.386 . S
C1222 C1217 1.490 . S
C1222 C1224 1.395 . S
C1222 C1225 1.403 . S
H1223 C1229 0.930 . S
C1224 H1210 0.930 . S
C1224 C1222 1.395 . S
C1224 C1227 1.403 . S
C1225 C1222 1.403 . S
C1225 C1226 1.524 . S
C1225 C1229 1.400 . S
C1226 H1211 0.960 . S
C1226 H1212 0.960 . S
C1226 H1213 0.960 . S
C1226 C1225 1.524 . S
C1227 C1224 1.403 . S
C1227 C1228 1.392 . S
C1227 C1231 1.495 . S
C1228 C1227 1.392 . S
C1228 C1229 1.385 . S
C1228 C1230 1.478 . S
C1229 H1223 0.930 . S
C1229 C1225 1.400 . S
C1229 C1228 1.385 . S
C1230 C1228 1.478 . S
C1230 C1232 1.381 . S
C1230 C1236 1.383 . S
C1231 C1227 1.495 . S
C1231 H1237 0.959 . S
C1231 H1238 0.961 . S
C1231 H1239 0.960 . S
C1232 C1230 1.381 . S
C1232 C1233 1.394 . S
C1232 H1240 0.930 . S
C1233 C1232 1.394 . S
C1233 C1234 1.383 . S
C1233 H1241 0.929 . S
C1234 C1233 1.383 . S
C1234 C1235 1.377 . S
C1235 H1219 0.930 . S
C1235 C1234 1.377 . S
C1235 C1236 1.379 . S
C1236 H1220 0.931 . S
C1236 C1230 1.383 . S
C1236 C1235 1.379 . S
H1237 C1231 0.959 . S
H1238 C1231 0.961 . S
H1239 C1231 0.960 . S
H1240 C1232 0.930 . S
H1241 C1233 0.929 . S
H1242 C1250 0.929 . S
H1243 C1252 0.930 . S
H1244 C1254 0.930 . S
H1245 C1257 0.929 . S
H1246 C1260 0.930 . S
H1247 C1262 0.960 . S
H1248 C1262 0.960 . S
H1249 C1262 0.960 . S
C1250 H1242 0.929 . S
C1250 C1251 1.377 . S
C1250 C1252 1.384 . S
C1251 C1250 1.377 . S
C1251 C1257 1.390 . S
C1252 H1243 0.930 . S
C1252 C1250 1.384 . S
C1252 C1253 1.372 . S
C1253 C1252 1.372 . S
C1253 C1254 1.400 . S
C1253 C1258 1.490 . S
C1254 H1244 0.930 . S
C1254 C1253 1.400 . S
C1254 C1257 1.386 . S
H1255 C1271 0.930 . S
H1256 C1272 0.931 . S
C1257 H1245 0.929 . S
C1257 C1251 1.390 . S
C1257 C1254 1.386 . S
C1258 C1253 1.490 . S
C1258 C1260 1.395 . S
C1258 C1261 1.403 . S
H1259 C1265 0.930 . S
C1260 H1246 0.930 . S
C1260 C1258 1.395 . S
C1260 C1263 1.403 . S
C1261 C1258 1.403 . S
C1261 C1262 1.524 . S
C1261 C1265 1.400 . S
C1262 H1247 0.960 . S
C1262 H1248 0.960 . S
C1262 H1249 0.960 . S
C1262 C1261 1.524 . S
C1263 C1260 1.403 . S
C1263 C1264 1.392 . S
C1263 C1267 1.495 . S
C1264 C1263 1.392 . S
C1264 C1265 1.385 . S
C1264 C1266 1.478 . S
C1265 H1259 0.930 . S
C1265 C1261 1.400 . S
C1265 C1264 1.385 . S
C1266 C1264 1.478 . S
C1266 C1268 1.381 . S
C1266 C1272 1.383 . S
C1267 C1263 1.495 . S
C1267 H1273 0.959 . S
C1267 H1274 0.961 . S
C1267 H1275 0.960 . S
C1268 C1266 1.381 . S
C1268 C1269 1.394 . S
C1268 H1276 0.930 . S
C1269 C1268 1.394 . S
C1269 C1270 1.383 . S
C1269 H1277 0.929 . S
C1270 C1269 1.383 . S
C1270 C1271 1.377 . S
C1271 H1255 0.930 . S
C1271 C1270 1.377 . S
C1271 C1272 1.379 . S
C1272 H1256 0.931 . S
C1272 C1266 1.383 . S
C1272 C1271 1.379 . S
H1273 C1267 0.959 . S
H1274 C1267 0.961 . S
H1275 C1267 0.960 . S
H1276 C1268 0.930 . S
H1277 C1269 0.929 . S
H1278 C1286 0.929 . S
H1279 C1288 0.930 . S
H1280 C1290 0.930 . S
H1281 C1293 0.929 . S
H1282 C1296 0.930 . S
H1283 C1298 0.960 . S
H1284 C1298 0.960 . S
H1285 C1298 0.960 . S
C1286 H1278 0.929 . S
C1286 C1287 1.377 . S
C1286 C1288 1.384 . S
C1287 C1286 1.377 . S
C1287 C1293 1.390 . S
C1288 H1279 0.930 . S
C1288 C1286 1.384 . S
C1288 C1289 1.372 . S
C1289 C1288 1.372 . S
C1289 C1290 1.400 . S
C1289 C1294 1.490 . S
C1290 H1280 0.930 . S
C1290 C1289 1.400 . S
C1290 C1293 1.386 . S
H1291 C1307 0.930 . S
H1292 C1308 0.931 . S
C1293 H1281 0.929 . S
C1293 C1287 1.390 . S
C1293 C1290 1.386 . S
C1294 C1289 1.490 . S
C1294 C1296 1.395 . S
C1294 C1297 1.403 . S
H1295 C1301 0.930 . S
C1296 H1282 0.930 . S
C1296 C1294 1.395 . S
C1296 C1299 1.403 . S
C1297 C1294 1.403 . S
C1297 C1298 1.524 . S
C1297 C1301 1.400 . S
C1298 H1283 0.960 . S
C1298 H1284 0.960 . S
C1298 H1285 0.960 . S
C1298 C1297 1.524 . S
C1299 C1296 1.403 . S
C1299 C1300 1.392 . S
C1299 C1303 1.495 . S
C1300 C1299 1.392 . S
C1300 C1301 1.385 . S
C1300 C1302 1.478 . S
C1301 H1295 0.930 . S
C1301 C1297 1.400 . S
C1301 C1300 1.385 . S
C1302 C1300 1.478 . S
C1302 C1304 1.381 . S
C1302 C1308 1.383 . S
C1303 C1299 1.495 . S
C1303 H1309 0.959 . S
C1303 H1310 0.961 . S
C1303 H1311 0.960 . S
C1304 C1302 1.381 . S
C1304 C1305 1.394 1_565 S
C1304 H1312 0.930 . S
C1305 C1304 1.394 1_545 S
C1305 C1306 1.389 . S
C1305 H1313 0.929 . S
C1306 C1305 1.389 . S
C1306 C1307 1.369 1_545 S
C1307 H1291 0.930 . S
C1307 C1306 1.369 1_565 S
C1307 C1308 1.379 . S
C1308 H1292 0.931 . S
C1308 C1302 1.383 . S
C1308 C1307 1.379 . S
H1309 C1303 0.959 . S
H1310 C1303 0.961 . S
H1311 C1303 0.960 . S
H1312 C1304 0.930 . S
H1313 C1305 0.929 . S
H1314 C1322 0.929 . S
H1315 C1324 0.930 . S
H1316 C1326 0.930 . S
H1317 C1329 0.929 . S
H1318 C1332 0.930 . S
H1319 C1334 0.960 . S
H1320 C1334 0.960 . S
H1321 C1334 0.960 . S
C1322 H1314 0.929 . S
C1322 C1323 1.377 . S
C1322 C1324 1.384 . S
C1323 C1322 1.377 . S
C1323 C1329 1.390 . S
C1324 H1315 0.930 . S
C1324 C1322 1.384 . S
C1324 C1325 1.372 . S
C1325 C1324 1.372 . S
C1325 C1326 1.400 . S
C1325 C1330 1.490 . S
C1326 H1316 0.930 . S
C1326 C1325 1.400 . S
C1326 C1329 1.386 . S
H1327 C1343 0.930 . S
H1328 C1344 0.931 . S
C1329 H1317 0.929 . S
C1329 C1323 1.390 . S
C1329 C1326 1.386 . S
C1330 C1325 1.490 . S
C1330 C1332 1.395 . S
C1330 C1333 1.403 . S
H1331 C1337 0.930 . S
C1332 H1318 0.930 . S
C1332 C1330 1.395 . S
C1332 C1335 1.403 1_565 S
C1333 C1330 1.403 . S
C1333 C1334 1.524 . S
C1333 C1337 1.400 . S
C1334 H1319 0.960 . S
C1334 H1320 0.960 . S
C1334 H1321 0.960 . S
C1334 C1333 1.524 . S
C1335 C1332 1.403 1_545 S
C1335 C1336 1.392 1_545 S
C1335 C1339 1.495 . S
C1336 C1335 1.392 1_565 S
C1336 C1337 1.385 . S
C1336 C1338 1.478 1_565 S
C1337 H1331 0.930 . S
C1337 C1333 1.400 . S
C1337 C1336 1.385 . S
C1338 C1336 1.478 1_545 S
C1338 C1340 1.381 . S
C1338 C1344 1.383 . S
C1339 C1335 1.495 . S
C1339 H1345 0.959 . S
C1339 H1346 0.961 . S
C1339 H1347 0.960 . S
C1340 C1338 1.381 . S
C1340 C1341 1.394 . S
C1340 H1348 0.930 . S
C1341 C1340 1.394 . S
C1341 C1342 1.383 . S
C1341 H1349 0.929 . S
C1342 C1341 1.383 . S
C1342 C1343 1.377 . S
C1343 H1327 0.930 . S
C1343 C1342 1.377 . S
C1343 C1344 1.379 . S
C1344 H1328 0.931 . S
C1344 C1338 1.383 . S
C1344 C1343 1.379 . S
H1345 C1339 0.959 . S
H1346 C1339 0.961 . S
H1347 C1339 0.960 . S
H1348 C1340 0.930 . S
H1349 C1341 0.929 . S
H1350 C1358 0.929 . S
H1351 C1360 0.930 . S
H1352 C1362 0.930 . S
H1353 C1365 0.929 . S
H1354 C1368 0.930 . S
H1355 C1370 0.960 . S
H1356 C1370 0.960 . S
H1357 C1370 0.960 . S
C1358 H1350 0.929 . S
C1358 C1359 1.377 . S
C1358 C1360 1.384 . S
C1359 C1358 1.377 . S
C1359 C1365 1.390 . S
C1360 H1351 0.930 . S
C1360 C1358 1.384 . S
C1360 C1361 1.372 . S
C1361 C1360 1.372 . S
C1361 C1362 1.400 . S
C1361 C1366 1.490 . S
C1362 H1352 0.930 . S
C1362 C1361 1.400 . S
C1362 C1365 1.386 . S
H1363 C1379 0.930 . S
H1364 C1380 0.931 . S
C1365 H1353 0.929 . S
C1365 C1359 1.390 . S
C1365 C1362 1.386 . S
C1366 C1361 1.490 . S
C1366 C1368 1.395 . S
C1366 C1369 1.403 . S
H1367 C1373 0.930 . S
C1368 H1354 0.930 . S
C1368 C1366 1.395 . S
C1368 C1371 1.403 . S
C1369 C1366 1.403 . S
C1369 C1370 1.524 . S
C1369 C1373 1.400 . S
C1370 H1355 0.960 . S
C1370 H1356 0.960 . S
C1370 H1357 0.960 . S
C1370 C1369 1.524 . S
C1371 C1368 1.403 . S
C1371 C1372 1.392 . S
C1371 C1375 1.495 . S
C1372 C1371 1.392 . S
C1372 C1373 1.385 . S
C1372 C1374 1.478 . S
C1373 H1367 0.930 . S
C1373 C1369 1.400 . S
C1373 C1372 1.385 . S
C1374 C1372 1.478 . S
C1374 C1376 1.381 . S
C1374 C1380 1.383 . S
C1375 C1371 1.495 . S
C1375 H1381 0.959 . S
C1375 H1382 0.961 . S
C1375 H1383 0.960 . S
C1376 C1374 1.381 . S
C1376 C1377 1.394 . S
C1376 H1384 0.930 . S
C1377 C1376 1.394 . S
C1377 C1378 1.383 . S
C1377 H1385 0.929 . S
C1378 C1377 1.383 . S
C1378 C1379 1.377 . S
C1379 H1363 0.930 . S
C1379 C1378 1.377 . S
C1379 C1380 1.379 . S
C1380 H1364 0.931 . S
C1380 C1374 1.383 . S
C1380 C1379 1.379 . S
H1381 C1375 0.959 . S
H1382 C1375 0.961 . S
H1383 C1375 0.960 . S
H1384 C1376 0.930 . S
H1385 C1377 0.929 . S
H1386 C1394 0.929 . S
H1387 C1396 0.930 . S
H1388 C1398 0.930 . S
H1389 C1401 0.929 . S
H1390 C1404 0.930 . S
H1391 C1406 0.960 . S
H1392 C1406 0.960 . S
H1393 C1406 0.960 . S
C1394 H1386 0.929 . S
C1394 C1395 1.377 . S
C1394 C1396 1.384 . S
C1395 C1394 1.377 . S
C1395 C1401 1.390 . S
C1396 H1387 0.930 . S
C1396 C1394 1.384 . S
C1396 C1397 1.372 . S
C1397 C1396 1.372 . S
C1397 C1398 1.400 . S
C1397 C1402 1.490 . S
C1398 H1388 0.930 . S
C1398 C1397 1.400 . S
C1398 C1401 1.386 . S
H1399 C1415 0.930 . S
H1400 C1416 0.931 . S
C1401 H1389 0.929 . S
C1401 C1395 1.390 . S
C1401 C1398 1.386 . S
C1402 C1397 1.490 . S
C1402 C1404 1.395 . S
C1402 C1405 1.403 . S
H1403 C1409 0.930 . S
C1404 H1390 0.930 . S
C1404 C1402 1.395 . S
C1404 C1407 1.403 . S
C1405 C1402 1.403 . S
C1405 C1406 1.524 . S
C1405 C1409 1.400 . S
C1406 H1391 0.960 . S
C1406 H1392 0.960 . S
C1406 H1393 0.960 . S
C1406 C1405 1.524 . S
C1407 C1404 1.403 . S
C1407 C1408 1.392 . S
C1407 C1411 1.495 . S
C1408 C1407 1.392 . S
C1408 C1409 1.385 . S
C1408 C1410 1.478 . S
C1409 H1403 0.930 . S
C1409 C1405 1.400 . S
C1409 C1408 1.385 . S
C1410 C1408 1.478 . S
C1410 C1412 1.381 . S
C1410 C1416 1.383 . S
C1411 C1407 1.495 . S
C1411 H1417 0.959 . S
C1411 H1418 0.961 . S
C1411 H1419 0.960 . S
C1412 C1410 1.381 . S
C1412 C1413 1.394 . S
C1412 H1420 0.930 . S
C1413 C1412 1.394 . S
C1413 C1414 1.383 . S
C1413 H1421 0.929 . S
C1414 C1413 1.383 . S
C1414 C1415 1.377 . S
C1415 H1399 0.930 . S
C1415 C1414 1.377 . S
C1415 C1416 1.379 . S
C1416 H1400 0.931 . S
C1416 C1410 1.383 . S
C1416 C1415 1.379 . S
H1417 C1411 0.959 . S
H1418 C1411 0.961 . S
H1419 C1411 0.960 . S
H1420 C1412 0.930 . S
H1421 C1413 0.929 . S
H1422 C1430 0.929 . S
H1423 C1432 0.930 . S
H1424 C1434 0.930 . S
H1425 C1437 0.929 . S
H1426 C1440 0.930 . S
H1427 C1442 0.960 . S
H1428 C1442 0.960 . S
H1429 C1442 0.960 . S
C1430 H1422 0.929 . S
C1430 C1431 1.377 . S
C1430 C1432 1.384 . S
C1431 C1430 1.377 . S
C1431 C1437 1.390 . S
C1432 H1423 0.930 . S
C1432 C1430 1.384 . S
C1432 C1433 1.372 . S
C1433 C1432 1.372 . S
C1433 C1434 1.400 . S
C1433 C1438 1.490 . S
C1434 H1424 0.930 . S
C1434 C1433 1.400 . S
C1434 C1437 1.386 . S
H1435 C1451 0.930 . S
H1436 C1452 0.931 . S
C1437 H1425 0.929 . S
C1437 C1431 1.390 . S
C1437 C1434 1.386 . S
C1438 C1433 1.490 . S
C1438 C1440 1.395 . S
C1438 C1441 1.403 . S
H1439 C1445 0.930 . S
C1440 H1426 0.930 . S
C1440 C1438 1.395 . S
C1440 C1443 1.403 . S
C1441 C1438 1.403 . S
C1441 C1442 1.524 . S
C1441 C1445 1.400 . S
C1442 H1427 0.960 . S
C1442 H1428 0.960 . S
C1442 H1429 0.960 . S
C1442 C1441 1.524 . S
C1443 C1440 1.403 . S
C1443 C1444 1.392 . S
C1443 C1447 1.495 . S
C1444 C1443 1.392 . S
C1444 C1445 1.385 . S
C1444 C1446 1.478 . S
C1445 H1439 0.930 . S
C1445 C1441 1.400 . S
C1445 C1444 1.385 . S
C1446 C1444 1.478 . S
C1446 C1448 1.381 . S
C1446 C1452 1.383 . S
C1447 C1443 1.495 . S
C1447 H1453 0.959 . S
C1447 H1454 0.961 . S
C1447 H1455 0.960 . S
C1448 C1446 1.381 . S
C1448 C1449 1.394 . S
C1448 H1456 0.930 . S
C1449 C1448 1.394 . S
C1449 C1450 1.383 . S
C1449 H1457 0.929 . S
C1450 C1449 1.383 . S
C1450 C1451 1.377 . S
C1451 H1435 0.930 . S
C1451 C1450 1.377 . S
C1451 C1452 1.379 . S
C1452 H1436 0.931 . S
C1452 C1446 1.383 . S
C1452 C1451 1.379 . S
H1453 C1447 0.959 . S
H1454 C1447 0.961 . S
H1455 C1447 0.960 . S
H1456 C1448 0.930 . S
H1457 C1449 0.929 . S
H1458 C1466 0.929 . S
H1459 C1468 0.930 . S
H1460 C1470 0.930 . S
H1461 C1473 0.929 . S
H1462 C1476 0.930 . S
H1463 C1478 0.960 1_545 S
H1464 C1478 0.960 . S
H1465 C1478 0.960 . S
C1466 H1458 0.929 . S
C1466 C1467 1.377 . S
C1466 C1468 1.384 . S
C1467 C1466 1.377 . S
C1467 C1473 1.390 . S
C1468 H1459 0.930 . S
C1468 C1466 1.384 . S
C1468 C1469 1.372 . S
C1469 C1468 1.372 . S
C1469 C1470 1.400 . S
C1469 C1474 1.490 . S
C1470 H1460 0.930 . S
C1470 C1469 1.400 . S
C1470 C1473 1.386 . S
H1471 C1487 0.930 . S
H1472 C1488 0.931 . S
C1473 H1461 0.929 . S
C1473 C1467 1.390 . S
C1473 C1470 1.386 . S
C1474 C1469 1.490 . S
C1474 C1476 1.395 . S
C1474 C1477 1.442 . S
H1475 C1481 0.930 . S
C1476 H1462 0.930 . S
C1476 C1474 1.395 . S
C1476 C1479 1.403 1_565 S
C1477 C1474 1.442 . S
C1477 C1478 1.533 . S
C1477 C1481 1.351 1_565 S
C1478 H1463 0.960 1_565 S
C1478 H1464 0.960 . S
C1478 H1465 0.960 . S
C1478 C1477 1.533 . S
C1479 C1476 1.403 1_545 S
C1479 C1480 1.392 . S
C1479 C1483 1.495 . S
C1480 C1479 1.392 . S
C1480 C1481 1.385 . S
C1480 C1482 1.478 . S
C1481 H1475 0.930 . S
C1481 C1477 1.351 1_545 S
C1481 C1480 1.385 . S
C1482 C1480 1.478 . S
C1482 C1484 1.381 . S
C1482 C1488 1.383 . S
C1483 C1479 1.495 . S
C1483 H1489 0.959 . S
C1483 H1490 0.961 . S
C1483 H1491 0.960 . S
C1484 C1482 1.381 . S
C1484 C1485 1.394 . S
C1484 H1492 0.930 . S
C1485 C1484 1.394 . S
C1485 C1486 1.383 . S
C1485 H1493 0.929 . S
C1486 C1485 1.383 . S
C1486 C1487 1.377 . S
C1487 H1471 0.930 . S
C1487 C1486 1.377 . S
C1487 C1488 1.379 . S
C1488 H1472 0.931 . S
C1488 C1482 1.383 . S
C1488 C1487 1.379 . S
H1489 C1483 0.959 . S
H1490 C1483 0.961 . S
H1491 C1483 0.960 . S
H1492 C1484 0.930 . S
H1493 C1485 0.929 . S
H1494 C1502 0.929 . S
H1495 C1504 0.930 . S
H1496 C1506 0.930 . S
H1497 C1509 0.929 . S
H1498 C1512 0.930 . S
H1499 C1514 0.960 . S
H1500 C1514 0.960 . S
H1501 C1514 0.960 . S
C1502 H1494 0.929 . S
C1502 C1503 1.377 . S
C1502 C1504 1.384 . S
C1503 C1502 1.377 . S
C1503 C1509 1.390 . S
C1504 H1495 0.930 . S
C1504 C1502 1.384 . S
C1504 C1505 1.372 . S
C1505 C1504 1.372 . S
C1505 C1506 1.400 . S
C1505 C1510 1.490 . S
C1506 H1496 0.930 . S
C1506 C1505 1.400 . S
C1506 C1509 1.386 . S
H1507 C1523 0.930 . S
H1508 C1524 0.931 . S
C1509 H1497 0.929 . S
C1509 C1503 1.390 . S
C1509 C1506 1.386 . S
C1510 C1505 1.490 . S
C1510 C1512 1.395 . S
C1510 C1513 1.403 . S
H1511 C1517 0.930 . S
C1512 H1498 0.930 . S
C1512 C1510 1.395 . S
C1512 C1515 1.403 . S
C1513 C1510 1.403 . S
C1513 C1514 1.524 . S
C1513 C1517 1.400 . S
C1514 H1499 0.960 . S
C1514 H1500 0.960 . S
C1514 H1501 0.960 . S
C1514 C1513 1.524 . S
C1515 C1512 1.403 . S
C1515 C1516 1.392 . S
C1515 C1519 1.495 . S
C1516 C1515 1.392 . S
C1516 C1517 1.385 . S
C1516 C1518 1.478 . S
C1517 H1511 0.930 . S
C1517 C1513 1.400 . S
C1517 C1516 1.385 . S
C1518 C1516 1.478 . S
C1518 C1520 1.381 . S
C1518 C1524 1.383 . S
C1519 C1515 1.495 . S
C1519 H1525 0.959 . S
C1519 H1526 0.961 . S
C1519 H1527 0.960 . S
C1520 C1518 1.381 . S
C1520 C1521 1.394 . S
C1520 H1528 0.930 . S
C1521 C1520 1.394 . S
C1521 C1522 1.383 . S
C1521 H1529 0.929 . S
C1522 C1521 1.383 . S
C1522 C1523 1.377 . S
C1523 H1507 0.930 . S
C1523 C1522 1.377 . S
C1523 C1524 1.379 . S
C1524 H1508 0.931 . S
C1524 C1518 1.383 . S
C1524 C1523 1.379 . S
H1525 C1519 0.959 . S
H1526 C1519 0.961 . S
H1527 C1519 0.960 . S
H1528 C1520 0.930 . S
H1529 C1521 0.929 . S
H1530 C1538 0.929 . S
H1531 C1540 0.930 . S
H1532 C1542 0.930 . S
H1533 C1545 0.929 . S
H1534 C1548 0.930 . S
H1535 C1550 0.960 . S
H1536 C1550 0.960 . S
H1537 C1550 0.960 . S
C1538 H1530 0.929 . S
C1538 C1539 1.377 . S
C1538 C1540 1.384 . S
C1539 C1538 1.377 . S
C1539 C1545 1.390 . S
C1540 H1531 0.930 . S
C1540 C1538 1.384 . S
C1540 C1541 1.372 . S
C1541 C1540 1.372 . S
C1541 C1542 1.400 . S
C1541 C1546 1.490 . S
C1542 H1532 0.930 . S
C1542 C1541 1.400 . S
C1542 C1545 1.386 . S
H1543 C1559 0.930 . S
H1544 C1560 0.931 . S
C1545 H1533 0.929 . S
C1545 C1539 1.390 . S
C1545 C1542 1.386 . S
C1546 C1541 1.490 . S
C1546 C1548 1.395 . S
C1546 C1549 1.403 . S
H1547 C1553 0.930 . S
C1548 H1534 0.930 . S
C1548 C1546 1.395 . S
C1548 C1551 1.403 . S
C1549 C1546 1.403 . S
C1549 C1550 1.524 . S
C1549 C1553 1.400 . S
C1550 H1535 0.960 . S
C1550 H1536 0.960 . S
C1550 H1537 0.960 . S
C1550 C1549 1.524 . S
C1551 C1548 1.403 . S
C1551 C1552 1.392 . S
C1551 C1555 1.495 . S
C1552 C1551 1.392 . S
C1552 C1553 1.385 . S
C1552 C1554 1.478 . S
C1553 H1547 0.930 . S
C1553 C1549 1.400 . S
C1553 C1552 1.385 . S
C1554 C1552 1.478 . S
C1554 C1556 1.381 . S
C1554 C1560 1.383 . S
C1555 C1551 1.495 . S
C1555 H1561 0.959 . S
C1555 H1562 0.961 . S
C1555 H1563 0.960 . S
C1556 C1554 1.381 . S
C1556 C1557 1.394 . S
C1556 H1564 0.930 . S
C1557 C1556 1.394 . S
C1557 C1558 1.383 . S
C1557 H1565 0.929 . S
C1558 C1557 1.383 . S
C1558 C1559 1.377 . S
C1559 H1543 0.930 . S
C1559 C1558 1.377 . S
C1559 C1560 1.379 . S
C1560 H1544 0.931 . S
C1560 C1554 1.383 . S
C1560 C1559 1.379 . S
H1561 C1555 0.959 . S
H1562 C1555 0.961 . S
H1563 C1555 0.960 . S
H1564 C1556 0.930 . S
H1565 C1557 0.929 . S
H1566 C1574 0.929 . S
H1567 C1576 0.930 . S
H1568 C1578 0.930 . S
H1569 C1581 0.929 . S
H1570 C1584 0.930 . S
H1571 C1586 0.960 . S
H1572 C1586 0.960 . S
H1573 C1586 0.960 . S
C1574 H1566 0.929 . S
C1574 C1575 1.377 . S
C1574 C1576 1.384 . S
C1575 C1574 1.377 . S
C1575 C1581 1.390 . S
C1576 H1567 0.930 . S
C1576 C1574 1.384 . S
C1576 C1577 1.372 . S
C1577 C1576 1.372 . S
C1577 C1578 1.400 . S
C1577 C1582 1.490 . S
C1578 H1568 0.930 . S
C1578 C1577 1.400 . S
C1578 C1581 1.386 . S
H1579 C1595 0.930 . S
H1580 C1596 0.931 . S
C1581 H1569 0.929 . S
C1581 C1575 1.390 . S
C1581 C1578 1.386 . S
C1582 C1577 1.490 . S
C1582 C1584 1.395 . S
C1582 C1585 1.403 . S
H1583 C1589 0.930 . S
C1584 H1570 0.930 . S
C1584 C1582 1.395 . S
C1584 C1587 1.403 . S
C1585 C1582 1.403 . S
C1585 C1586 1.524 . S
C1585 C1589 1.400 . S
C1586 H1571 0.960 . S
C1586 H1572 0.960 . S
C1586 H1573 0.960 . S
C1586 C1585 1.524 . S
C1587 C1584 1.403 . S
C1587 C1588 1.392 . S
C1587 C1591 1.495 . S
C1588 C1587 1.392 . S
C1588 C1589 1.385 . S
C1588 C1590 1.478 . S
C1589 H1583 0.930 . S
C1589 C1585 1.400 . S
C1589 C1588 1.385 . S
C1590 C1588 1.478 . S
C1590 C1592 1.381 . S
C1590 C1596 1.383 . S
C1591 C1587 1.495 . S
C1591 H1597 0.959 . S
C1591 H1598 0.961 . S
C1591 H1599 0.960 . S
C1592 C1590 1.381 . S
C1592 C1593 1.394 . S
C1592 H1600 0.930 . S
C1593 C1592 1.394 . S
C1593 C1594 1.383 . S
C1593 H1601 0.929 . S
C1594 C1593 1.383 . S
C1594 C1595 1.377 . S
C1595 H1579 0.930 . S
C1595 C1594 1.377 . S
C1595 C1596 1.379 . S
C1596 H1580 0.931 . S
C1596 C1590 1.383 . S
C1596 C1595 1.379 . S
H1597 C1591 0.959 . S
H1598 C1591 0.961 . S
H1599 C1591 0.960 . S
H1600 C1592 0.930 . S
H1601 C1593 0.929 . S
H1602 C1610 0.929 . S
H1603 C1612 0.930 . S
H1604 C1614 0.930 . S
H1605 C1617 0.929 . S
H1606 C1620 0.930 . S
H1607 C1622 0.960 . S
H1608 C1622 0.960 . S
H1609 C1622 0.960 . S
C1610 H1602 0.929 . S
C1610 C1611 1.377 . S
C1610 C1612 1.384 . S
C1611 C1610 1.377 . S
C1611 C1617 1.390 . S
C1612 H1603 0.930 . S
C1612 C1610 1.384 . S
C1612 C1613 1.372 . S
C1613 C1612 1.372 . S
C1613 C1614 1.400 . S
C1613 C1618 1.490 . S
C1614 H1604 0.930 . S
C1614 C1613 1.400 . S
C1614 C1617 1.386 . S
H1615 C1631 0.930 . S
H1616 C1632 0.931 . S
C1617 H1605 0.929 . S
C1617 C1611 1.390 . S
C1617 C1614 1.386 . S
C1618 C1613 1.490 . S
C1618 C1620 1.395 . S
C1618 C1621 1.403 . S
H1619 C1625 0.930 . S
C1620 H1606 0.930 . S
C1620 C1618 1.395 . S
C1620 C1623 1.403 . S
C1621 C1618 1.403 . S
C1621 C1622 1.524 . S
C1621 C1625 1.400 . S
C1622 H1607 0.960 . S
C1622 H1608 0.960 . S
C1622 H1609 0.960 . S
C1622 C1621 1.524 . S
C1623 C1620 1.403 . S
C1623 C1624 1.392 . S
C1623 C1627 1.495 . S
C1624 C1623 1.392 . S
C1624 C1625 1.385 . S
C1624 C1626 1.478 . S
C1625 H1619 0.930 . S
C1625 C1621 1.400 . S
C1625 C1624 1.385 . S
C1626 C1624 1.478 . S
C1626 C1628 1.381 . S
C1626 C1632 1.383 . S
C1627 C1623 1.495 . S
C1627 H1633 0.959 . S
C1627 H1634 0.961 . S
C1627 H1635 0.960 . S
C1628 C1626 1.381 . S
C1628 C1629 1.394 . S
C1628 H1636 0.930 . S
C1629 C1628 1.394 . S
C1629 C1630 1.383 . S
C1629 H1637 0.929 . S
C1630 C1629 1.383 . S
C1630 C1631 1.377 . S
C1631 H1615 0.930 . S
C1631 C1630 1.377 . S
C1631 C1632 1.379 . S
C1632 H1616 0.931 . S
C1632 C1626 1.383 . S
C1632 C1631 1.379 . S
H1633 C1627 0.959 . S
H1634 C1627 0.961 . S
H1635 C1627 0.960 . S
H1636 C1628 0.930 . S
H1637 C1629 0.929 . S
H1638 C1646 0.929 . S
H1639 C1648 0.930 . S
H1640 C1650 0.930 . S
H1641 C1653 0.929 . S
H1642 C1656 0.930 . S
H1643 C1658 0.960 . S
H1644 C1658 0.960 . S
H1645 C1658 0.960 . S
C1646 H1638 0.929 . S
C1646 C1647 1.377 . S
C1646 C1648 1.384 . S
C1647 C1646 1.377 . S
C1647 C1653 1.390 . S
C1648 H1639 0.930 . S
C1648 C1646 1.384 . S
C1648 C1649 1.372 . S
C1649 C1648 1.372 . S
C1649 C1650 1.400 . S
C1649 C1654 1.490 . S
C1650 H1640 0.930 . S
C1650 C1649 1.400 . S
C1650 C1653 1.386 . S
H1651 C1667 0.930 . S
H1652 C1668 0.931 . S
C1653 H1641 0.929 . S
C1653 C1647 1.390 . S
C1653 C1650 1.386 . S
C1654 C1649 1.490 . S
C1654 C1656 1.395 . S
C1654 C1657 1.403 . S
H1655 C1661 0.930 . S
C1656 H1642 0.930 . S
C1656 C1654 1.395 . S
C1656 C1659 1.403 . S
C1657 C1654 1.403 . S
C1657 C1658 1.524 . S
C1657 C1661 1.400 . S
C1658 H1643 0.960 . S
C1658 H1644 0.960 . S
C1658 H1645 0.960 . S
C1658 C1657 1.524 . S
C1659 C1656 1.403 . S
C1659 C1660 1.392 . S
C1659 C1663 1.495 . S
C1660 C1659 1.392 . S
C1660 C1661 1.385 . S
C1660 C1662 1.478 . S
C1661 H1655 0.930 . S
C1661 C1657 1.400 . S
C1661 C1660 1.385 . S
C1662 C1660 1.478 . S
C1662 C1664 1.381 . S
C1662 C1668 1.383 . S
C1663 C1659 1.495 . S
C1663 H1669 0.959 . S
C1663 H1670 0.961 . S
C1663 H1671 0.960 . S
C1664 C1662 1.381 . S
C1664 C1665 1.394 . S
C1664 H1672 0.930 . S
C1665 C1664 1.394 . S
C1665 C1666 1.383 . S
C1665 H1673 0.929 . S
C1666 C1665 1.383 . S
C1666 C1667 1.377 . S
C1667 H1651 0.930 . S
C1667 C1666 1.377 . S
C1667 C1668 1.379 . S
C1668 H1652 0.931 . S
C1668 C1662 1.383 . S
C1668 C1667 1.379 . S
H1669 C1663 0.959 . S
H1670 C1663 0.961 . S
H1671 C1663 0.960 . S
H1672 C1664 0.930 . S
H1673 C1665 0.929 . S
H1674 C1682 0.929 . S
H1675 C1684 0.930 . S
H1676 C1686 0.930 . S
H1677 C1689 0.929 . S
H1678 C1692 0.930 . S
H1679 C1694 0.960 . S
H1680 C1694 0.960 . S
H1681 C1694 0.960 . S
C1682 H1674 0.929 . S
C1682 C1683 1.377 . S
C1682 C1684 1.384 . S
C1683 C1682 1.377 . S
C1683 C1689 1.390 . S
C1684 H1675 0.930 . S
C1684 C1682 1.384 . S
C1684 C1685 1.372 . S
C1685 C1684 1.372 . S
C1685 C1686 1.400 . S
C1685 C1690 1.490 . S
C1686 H1676 0.930 . S
C1686 C1685 1.400 . S
C1686 C1689 1.386 . S
H1687 C1703 0.930 . S
H1688 C1704 0.931 . S
C1689 H1677 0.929 . S
C1689 C1683 1.390 . S
C1689 C1686 1.386 . S
C1690 C1685 1.490 . S
C1690 C1692 1.395 . S
C1690 C1693 1.403 . S
H1691 C1697 0.930 . S
C1692 H1678 0.930 . S
C1692 C1690 1.395 . S
C1692 C1695 1.403 . S
C1693 C1690 1.403 . S
C1693 C1694 1.524 . S
C1693 C1697 1.400 . S
C1694 H1679 0.960 . S
C1694 H1680 0.960 . S
C1694 H1681 0.960 . S
C1694 C1693 1.524 . S
C1695 C1692 1.403 . S
C1695 C1696 1.392 . S
C1695 C1699 1.495 . S
C1696 C1695 1.392 . S
C1696 C1697 1.385 . S
C1696 C1698 1.478 . S
C1697 H1691 0.930 . S
C1697 C1693 1.400 . S
C1697 C1696 1.385 . S
C1698 C1696 1.478 . S
C1698 C1700 1.381 . S
C1698 C1704 1.383 . S
C1699 C1695 1.495 . S
C1699 H1705 0.959 . S
C1699 H1706 0.961 . S
C1699 H1707 0.960 . S
C1700 C1698 1.381 . S
C1700 C1701 1.394 . S
C1700 H1708 0.930 . S
C1701 C1700 1.394 . S
C1701 C1702 1.383 . S
C1701 H1709 0.929 . S
C1702 C1701 1.383 . S
C1702 C1703 1.377 . S
C1703 H1687 0.930 . S
C1703 C1702 1.377 . S
C1703 C1704 1.379 . S
C1704 H1688 0.931 . S
C1704 C1698 1.383 . S
C1704 C1703 1.379 . S
H1705 C1699 0.959 . S
H1706 C1699 0.961 . S
H1707 C1699 0.960 . S
H1708 C1700 0.930 . S
H1709 C1701 0.929 . S
H1710 C1718 0.929 . S
H1711 C1720 0.930 . S
H1712 C1722 0.930 . S
H1713 C1725 0.929 . S
H1714 C1728 0.930 . S
H1715 C1730 0.960 . S
H1716 C1730 0.960 . S
H1717 C1730 0.960 . S
C1718 H1710 0.929 . S
C1718 C1719 1.377 . S
C1718 C1720 1.384 . S
C1719 C1718 1.377 . S
C1719 C1725 1.390 . S
C1720 H1711 0.930 . S
C1720 C1718 1.384 . S
C1720 C1721 1.372 . S
C1721 C1720 1.372 . S
C1721 C1722 1.400 . S
C1721 C1726 1.490 . S
C1722 H1712 0.930 . S
C1722 C1721 1.400 . S
C1722 C1725 1.386 . S
H1723 C1739 0.930 . S
H1724 C1740 0.931 . S
C1725 H1713 0.929 . S
C1725 C1719 1.390 . S
C1725 C1722 1.386 . S
C1726 C1721 1.490 . S
C1726 C1728 1.395 . S
C1726 C1729 1.403 . S
H1727 C1733 0.930 . S
C1728 H1714 0.930 . S
C1728 C1726 1.395 . S
C1728 C1731 1.403 . S
C1729 C1726 1.403 . S
C1729 C1730 1.524 . S
C1729 C1733 1.400 . S
C1730 H1715 0.960 . S
C1730 H1716 0.960 . S
C1730 H1717 0.960 . S
C1730 C1729 1.524 . S
C1731 C1728 1.403 . S
C1731 C1732 1.392 . S
C1731 C1735 1.495 . S
C1732 C1731 1.392 . S
C1732 C1733 1.385 . S
C1732 C1734 1.478 . S
C1733 H1727 0.930 . S
C1733 C1729 1.400 . S
C1733 C1732 1.385 . S
C1734 C1732 1.478 . S
C1734 C1736 1.381 . S
C1734 C1740 1.383 . S
C1735 C1731 1.495 . S
C1735 H1741 0.959 . S
C1735 H1742 0.961 . S
C1735 H1743 0.960 . S
C1736 C1734 1.381 . S
C1736 C1737 1.394 . S
C1736 H1744 0.930 . S
C1737 C1736 1.394 . S
C1737 C1738 1.383 1_655 S
C1737 H1745 0.931 . S
C1738 C1737 1.383 1_455 S
C1738 C1739 1.377 . S
C1739 H1723 0.930 . S
C1739 C1738 1.377 . S
C1739 C1740 1.379 1_455 S
C1740 H1724 0.931 . S
C1740 C1734 1.383 . S
C1740 C1739 1.379 1_655 S
H1741 C1735 0.959 . S
H1742 C1735 0.961 . S
H1743 C1735 0.960 . S
H1744 C1736 0.930 . S
H1745 C1737 0.931 . S
H1746 C1754 0.929 . S
H1747 C1756 0.930 . S
H1748 C1758 0.930 . S
H1749 C1761 0.929 . S
H1750 C1764 0.930 . S
H1751 C1766 0.960 . S
H1752 C1766 0.960 . S
H1753 C1766 0.960 . S
C1754 H1746 0.929 . S
C1754 C1755 1.377 . S
C1754 C1756 1.384 . S
C1755 C1754 1.377 . S
C1755 C1761 1.390 . S
C1756 H1747 0.930 . S
C1756 C1754 1.384 . S
C1756 C1757 1.372 . S
C1757 C1756 1.372 . S
C1757 C1758 1.400 . S
C1757 C1762 1.490 . S
C1758 H1748 0.930 . S
C1758 C1757 1.400 . S
C1758 C1761 1.386 . S
H1759 C1775 0.930 . S
H1760 C1776 0.931 . S
C1761 H1749 0.929 . S
C1761 C1755 1.390 . S
C1761 C1758 1.386 . S
C1762 C1757 1.490 . S
C1762 C1764 1.395 . S
C1762 C1765 1.403 . S
H1763 C1769 0.930 . S
C1764 H1750 0.930 . S
C1764 C1762 1.395 . S
C1764 C1767 1.403 . S
C1765 C1762 1.403 . S
C1765 C1766 1.524 . S
C1765 C1769 1.400 . S
C1766 H1751 0.960 . S
C1766 H1752 0.960 . S
C1766 H1753 0.960 . S
C1766 C1765 1.524 . S
C1767 C1764 1.403 . S
C1767 C1768 1.392 . S
C1767 C1771 1.495 . S
C1768 C1767 1.392 . S
C1768 C1769 1.385 . S
C1768 C1770 1.478 . S
C1769 H1763 0.930 . S
C1769 C1765 1.400 . S
C1769 C1768 1.385 . S
C1770 C1768 1.478 . S
C1770 C1772 1.381 . S
C1770 C1776 1.383 . S
C1771 C1767 1.495 . S
C1771 H1777 0.959 . S
C1771 H1778 0.961 . S
C1771 H1779 0.960 . S
C1772 C1770 1.381 . S
C1772 C1773 1.394 . S
C1772 H1780 0.930 . S
C1773 C1772 1.394 . S
C1773 C1774 1.383 . S
C1773 H1781 0.929 . S
C1774 C1773 1.383 . S
C1774 C1775 1.377 . S
C1775 H1759 0.930 . S
C1775 C1774 1.377 . S
C1775 C1776 1.379 . S
C1776 H1760 0.931 . S
C1776 C1770 1.383 . S
C1776 C1775 1.379 . S
H1777 C1771 0.959 . S
H1778 C1771 0.961 . S
H1779 C1771 0.960 . S
H1780 C1772 0.930 . S
H1781 C1773 0.929 . S
H1782 C1790 0.929 . S
H1783 C1792 0.930 . S
H1784 C1794 0.930 . S
H1785 C1797 0.929 . S
H1786 C1800 0.930 . S
H1787 C1802 0.960 . S
H1788 C1802 0.960 . S
H1789 C1802 0.960 . S
C1790 H1782 0.929 . S
C1790 C1791 1.377 . S
C1790 C1792 1.384 . S
C1791 C1790 1.377 . S
C1791 C1797 1.390 . S
C1792 H1783 0.930 . S
C1792 C1790 1.384 . S
C1792 C1793 1.372 . S
C1793 C1792 1.372 . S
C1793 C1794 1.400 . S
C1793 C1798 1.490 . S
C1794 H1784 0.930 . S
C1794 C1793 1.400 . S
C1794 C1797 1.386 . S
H1795 C1811 0.930 . S
H1796 C1812 0.931 . S
C1797 H1785 0.929 . S
C1797 C1791 1.390 . S
C1797 C1794 1.386 . S
C1798 C1793 1.490 . S
C1798 C1800 1.395 . S
C1798 C1801 1.403 . S
H1799 C1805 0.930 . S
C1800 H1786 0.930 . S
C1800 C1798 1.395 . S
C1800 C1803 1.403 . S
C1801 C1798 1.403 . S
C1801 C1802 1.524 . S
C1801 C1805 1.400 . S
C1802 H1787 0.960 . S
C1802 H1788 0.960 . S
C1802 H1789 0.960 . S
C1802 C1801 1.524 . S
C1803 C1800 1.403 . S
C1803 C1804 1.392 . S
C1803 C1807 1.495 . S
C1804 C1803 1.392 . S
C1804 C1805 1.385 . S
C1804 C1806 1.478 . S
C1805 H1799 0.930 . S
C1805 C1801 1.400 . S
C1805 C1804 1.385 . S
C1806 C1804 1.478 . S
C1806 C1808 1.381 . S
C1806 C1812 1.383 . S
C1807 C1803 1.495 . S
C1807 H1813 0.959 . S
C1807 H1814 0.961 . S
C1807 H1815 0.960 . S
C1808 C1806 1.381 . S
C1808 C1809 1.394 . S
C1808 H1816 0.930 . S
C1809 C1808 1.394 . S
C1809 C1810 1.383 . S
C1809 H1817 0.929 . S
C1810 C1809 1.383 . S
C1810 C1811 1.377 . S
C1811 H1795 0.930 . S
C1811 C1810 1.377 . S
C1811 C1812 1.379 . S
C1812 H1796 0.931 . S
C1812 C1806 1.383 . S
C1812 C1811 1.379 . S
H1813 C1807 0.959 . S
H1814 C1807 0.961 . S
H1815 C1807 0.960 . S
H1816 C1808 0.930 . S
H1817 C1809 0.929 . S
H1818 C1826 0.929 . S
H1819 C1828 0.930 . S
H1820 C1830 0.930 . S
H1821 C1833 0.929 . S
H1822 C1836 0.930 . S
H1823 C1838 0.960 . S
H1824 C1838 0.960 . S
H1825 C1838 0.960 . S
C1826 H1818 0.929 . S
C1826 C1827 1.377 . S
C1826 C1828 1.384 . S
C1827 C1826 1.377 . S
C1827 C1833 1.390 . S
C1828 H1819 0.930 . S
C1828 C1826 1.384 . S
C1828 C1829 1.372 . S
C1829 C1828 1.372 . S
C1829 C1830 1.400 . S
C1829 C1834 1.490 . S
C1830 H1820 0.930 . S
C1830 C1829 1.400 . S
C1830 C1833 1.386 . S
H1831 C1847 0.930 . S
H1832 C1848 0.931 . S
C1833 H1821 0.929 . S
C1833 C1827 1.390 . S
C1833 C1830 1.386 . S
C1834 C1829 1.490 . S
C1834 C1836 1.395 . S
C1834 C1837 1.403 . S
H1835 C1841 0.930 . S
C1836 H1822 0.930 . S
C1836 C1834 1.395 . S
C1836 C1839 1.403 . S
C1837 C1834 1.403 . S
C1837 C1838 1.524 . S
C1837 C1841 1.400 . S
C1838 H1823 0.960 . S
C1838 H1824 0.960 . S
C1838 H1825 0.960 . S
C1838 C1837 1.524 . S
C1839 C1836 1.403 . S
C1839 C1840 1.392 . S
C1839 C1843 1.495 . S
C1840 C1839 1.392 . S
C1840 C1841 1.385 . S
C1840 C1842 1.478 . S
C1841 H1835 0.930 . S
C1841 C1837 1.400 . S
C1841 C1840 1.385 . S
C1842 C1840 1.478 . S
C1842 C1844 1.381 . S
C1842 C1848 1.383 . S
C1843 C1839 1.495 . S
C1843 H1849 0.959 . S
C1843 H1850 0.961 . S
C1843 H1851 0.960 . S
C1844 C1842 1.381 . S
C1844 C1845 1.394 1_655 S
C1844 H1852 0.930 . S
C1845 C1844 1.394 1_455 S
C1845 C1846 1.383 . S
C1845 H1853 0.929 . S
C1846 C1845 1.383 . S
C1846 C1847 1.377 . S
C1847 H1831 0.930 . S
C1847 C1846 1.377 . S
C1847 C1848 1.379 1_455 S
C1848 H1832 0.931 . S
C1848 C1842 1.383 . S
C1848 C1847 1.379 1_655 S
H1849 C1843 0.959 . S
H1850 C1843 0.961 . S
H1851 C1843 0.960 . S
H1852 C1844 0.930 . S
H1853 C1845 0.929 . S
H1854 C1862 0.929 . S
H1855 C1864 0.930 . S
H1856 C1866 0.930 . S
H1857 C1869 0.929 . S
H1858 C1872 0.930 . S
H1859 C1874 0.960 . S
H1860 C1874 0.960 . S
H1861 C1874 0.960 . S
C1862 H1854 0.929 . S
C1862 C1863 1.377 . S
C1862 C1864 1.384 . S
C1863 C1862 1.377 . S
C1863 C1869 1.390 . S
C1864 H1855 0.930 . S
C1864 C1862 1.384 . S
C1864 C1865 1.372 . S
C1865 C1864 1.372 . S
C1865 C1866 1.400 . S
C1865 C1870 1.490 . S
C1866 H1856 0.930 . S
C1866 C1865 1.400 . S
C1866 C1869 1.386 . S
H1867 C1883 0.930 . S
H1868 C1884 0.931 . S
C1869 H1857 0.929 . S
C1869 C1863 1.390 . S
C1869 C1866 1.386 . S
C1870 C1865 1.490 . S
C1870 C1872 1.395 . S
C1870 C1873 1.403 . S
H1871 C1877 0.930 . S
C1872 H1858 0.930 . S
C1872 C1870 1.395 . S
C1872 C1875 1.403 . S
C1873 C1870 1.403 . S
C1873 C1874 1.524 . S
C1873 C1877 1.400 . S
C1874 H1859 0.960 . S
C1874 H1860 0.960 . S
C1874 H1861 0.960 . S
C1874 C1873 1.524 . S
C1875 C1872 1.403 . S
C1875 C1876 1.392 . S
C1875 C1879 1.495 . S
C1876 C1875 1.392 . S
C1876 C1877 1.385 . S
C1876 C1878 1.478 . S
C1877 H1871 0.930 . S
C1877 C1873 1.400 . S
C1877 C1876 1.385 . S
C1878 C1876 1.478 . S
C1878 C1880 1.381 . S
C1878 C1884 1.383 . S
C1879 C1875 1.495 . S
C1879 H1885 0.959 . S
C1879 H1886 0.961 . S
C1879 H1887 0.960 . S
C1880 C1878 1.381 . S
C1880 C1881 1.394 . S
C1880 H1888 0.930 . S
C1881 C1880 1.394 . S
C1881 C1882 1.383 . S
C1881 H1889 0.929 . S
C1882 C1881 1.383 . S
C1882 C1883 1.377 . S
C1883 H1867 0.930 . S
C1883 C1882 1.377 . S
C1883 C1884 1.379 . S
C1884 H1868 0.931 . S
C1884 C1878 1.383 . S
C1884 C1883 1.379 . S
H1885 C1879 0.959 . S
H1886 C1879 0.961 . S
H1887 C1879 0.960 . S
H1888 C1880 0.930 . S
H1889 C1881 0.929 . S
H1890 C1898 0.929 . S
H1891 C1900 0.930 . S
H1892 C1902 0.930 . S
H1893 C1905 0.929 . S
H1894 C1908 0.930 . S
H1895 C1910 0.960 . S
H1896 C1910 0.960 . S
H1897 C1910 0.960 . S
C1898 H1890 0.929 . S
C1898 C1899 1.377 . S
C1898 C1900 1.384 . S
C1899 C1898 1.377 . S
C1899 C1905 1.390 . S
C1900 H1891 0.930 . S
C1900 C1898 1.384 . S
C1900 C1901 1.372 . S
C1901 C1900 1.372 . S
C1901 C1902 1.400 . S
C1901 C1906 1.490 . S
C1902 H1892 0.930 . S
C1902 C1901 1.400 . S
C1902 C1905 1.386 . S
H1903 C1919 0.930 . S
H1904 C1920 0.931 . S
C1905 H1893 0.929 . S
C1905 C1899 1.390 . S
C1905 C1902 1.386 . S
C1906 C1901 1.490 . S
C1906 C1908 1.395 . S
C1906 C1909 1.403 . S
H1907 C1913 0.930 . S
C1908 H1894 0.930 . S
C1908 C1906 1.395 . S
C1908 C1911 1.403 . S
C1909 C1906 1.403 . S
C1909 C1910 1.524 . S
C1909 C1913 1.400 . S
C1910 H1895 0.960 . S
C1910 H1896 0.960 . S
C1910 H1897 0.960 . S
C1910 C1909 1.524 . S
C1911 C1908 1.403 . S
C1911 C1912 1.392 . S
C1911 C1915 1.495 . S
C1912 C1911 1.392 . S
C1912 C1913 1.385 . S
C1912 C1914 1.478 . S
C1913 H1907 0.930 . S
C1913 C1909 1.400 . S
C1913 C1912 1.385 . S
C1914 C1912 1.478 . S
C1914 C1916 1.381 . S
C1914 C1920 1.383 . S
C1915 C1911 1.495 . S
C1915 H1921 0.959 . S
C1915 H1922 0.961 . S
C1915 H1923 0.960 . S
C1916 C1914 1.381 . S
C1916 C1917 1.394 . S
C1916 H1924 0.930 . S
C1917 C1916 1.394 . S
C1917 C1918 1.383 . S
C1917 H1925 0.929 . S
C1918 C1917 1.383 . S
C1918 C1919 1.377 . S
C1919 H1903 0.930 . S
C1919 C1918 1.377 . S
C1919 C1920 1.379 . S
C1920 H1904 0.931 . S
C1920 C1914 1.383 . S
C1920 C1919 1.379 . S
H1921 C1915 0.959 . S
H1922 C1915 0.961 . S
H1923 C1915 0.960 . S
H1924 C1916 0.930 . S
H1925 C1917 0.929 . S
H1926 C1934 0.929 . S
H1927 C1936 0.930 . S
H1928 C1938 0.930 . S
H1929 C1941 0.929 . S
H1930 C1944 0.930 . S
H1931 C1946 0.960 . S
H1932 C1946 0.960 . S
H1933 C1946 0.960 . S
C1934 H1926 0.929 . S
C1934 C1935 1.377 . S
C1934 C1936 1.384 . S
C1935 C1934 1.377 . S
C1935 C1941 1.390 . S
C1936 H1927 0.930 . S
C1936 C1934 1.384 . S
C1936 C1937 1.372 . S
C1937 C1936 1.372 . S
C1937 C1938 1.400 . S
C1937 C1942 1.490 . S
C1938 H1928 0.930 . S
C1938 C1937 1.400 . S
C1938 C1941 1.386 . S
H1939 C1955 0.930 . S
H1940 C1956 0.931 . S
C1941 H1929 0.929 . S
C1941 C1935 1.390 . S
C1941 C1938 1.386 . S
C1942 C1937 1.490 . S
C1942 C1944 1.395 . S
C1942 C1945 1.403 . S
H1943 C1949 0.930 . S
C1944 H1930 0.930 . S
C1944 C1942 1.395 . S
C1944 C1947 1.403 . S
C1945 C1942 1.403 . S
C1945 C1946 1.524 . S
C1945 C1949 1.400 . S
C1946 H1931 0.960 . S
C1946 H1932 0.960 . S
C1946 H1933 0.960 . S
C1946 C1945 1.524 . S
C1947 C1944 1.403 . S
C1947 C1948 1.392 . S
C1947 C1951 1.495 . S
C1948 C1947 1.392 . S
C1948 C1949 1.385 . S
C1948 C1950 1.478 . S
C1949 H1943 0.930 . S
C1949 C1945 1.400 . S
C1949 C1948 1.385 . S
C1950 C1948 1.478 . S
C1950 C1952 1.381 . S
C1950 C1956 1.383 . S
C1951 C1947 1.495 . S
C1951 H1957 0.959 . S
C1951 H1958 0.961 . S
C1951 H1959 0.960 . S
C1952 C1950 1.381 . S
C1952 C1953 1.394 . S
C1952 H1960 0.930 . S
C1953 C1952 1.394 . S
C1953 C1954 1.383 . S
C1953 H1961 0.929 . S
C1954 C1953 1.383 . S
C1954 C1955 1.377 . S
C1955 H1939 0.930 . S
C1955 C1954 1.377 . S
C1955 C1956 1.379 . S
C1956 H1940 0.931 . S
C1956 C1950 1.383 . S
C1956 C1955 1.379 . S
H1957 C1951 0.959 . S
H1958 C1951 0.961 . S
H1959 C1951 0.960 . S
H1960 C1952 0.930 . S
H1961 C1953 0.929 . S
H1962 C1970 0.929 . S
H1963 C1972 0.930 . S
H1964 C1974 0.930 . S
H1965 C1977 0.929 . S
H1966 C1980 0.930 . S
H1967 C1982 0.960 . S
H1968 C1982 0.960 . S
H1969 C1982 0.960 . S
C1970 H1962 0.929 . S
C1970 C1971 1.377 . S
C1970 C1972 1.384 . S
C1971 C1970 1.377 . S
C1971 C1977 1.390 . S
C1972 H1963 0.930 . S
C1972 C1970 1.384 . S
C1972 C1973 1.372 . S
C1973 C1972 1.372 . S
C1973 C1974 1.400 . S
C1973 C1978 1.490 . S
C1974 H1964 0.930 . S
C1974 C1973 1.400 . S
C1974 C1977 1.386 . S
H1975 C1991 0.930 . S
H1976 C1992 0.931 . S
C1977 H1965 0.929 . S
C1977 C1971 1.390 . S
C1977 C1974 1.386 . S
C1978 C1973 1.490 . S
C1978 C1980 1.395 . S
C1978 C1981 1.403 . S
H1979 C1985 0.930 . S
C1980 H1966 0.930 . S
C1980 C1978 1.395 . S
C1980 C1983 1.403 . S
C1981 C1978 1.403 . S
C1981 C1982 1.524 . S
C1981 C1985 1.400 . S
C1982 H1967 0.960 . S
C1982 H1968 0.960 . S
C1982 H1969 0.960 . S
C1982 C1981 1.524 . S
C1983 C1980 1.403 . S
C1983 C1984 1.392 . S
C1983 C1987 1.495 . S
C1984 C1983 1.392 . S
C1984 C1985 1.385 . S
C1984 C1986 1.478 . S
C1985 H1979 0.930 . S
C1985 C1981 1.400 . S
C1985 C1984 1.385 . S
C1986 C1984 1.478 . S
C1986 C1988 1.381 . S
C1986 C1992 1.383 . S
C1987 C1983 1.495 . S
C1987 H1993 0.896 1_455 S
C1987 H1994 0.961 . S
C1987 H1995 0.960 . S
C1988 C1986 1.381 . S
C1988 C1989 1.394 . S
C1988 H1996 0.930 . S
C1989 C1988 1.394 . S
C1989 C1990 1.383 . S
C1989 H1997 0.929 . S
C1990 C1989 1.383 . S
C1990 C1991 1.377 . S
C1991 H1975 0.930 . S
C1991 C1990 1.377 . S
C1991 C1992 1.379 . S
C1992 H1976 0.931 . S
C1992 C1986 1.383 . S
C1992 C1991 1.379 . S
H1993 C1987 0.896 1_655 S
H1994 C1987 0.961 . S
H1995 C1987 0.960 . S
H1996 C1988 0.930 . S
H1997 C1989 0.929 . S
H1998 C2006 0.929 . S
H1999 C2008 0.930 . S
H2000 C2010 0.930 . S
H2001 C2013 0.929 . S
H2002 C2016 0.930 . S
H2003 C2018 0.960 . S
H2004 C2018 0.960 . S
H2005 C2018 0.960 . S
C2006 H1998 0.929 . S
C2006 C2007 1.377 . S
C2006 C2008 1.384 . S
C2007 C2006 1.377 . S
C2007 C2013 1.390 . S
C2008 H1999 0.930 . S
C2008 C2006 1.384 . S
C2008 C2009 1.372 . S
C2009 C2008 1.372 . S
C2009 C2010 1.400 . S
C2009 C2014 1.490 . S
C2010 H2000 0.930 . S
C2010 C2009 1.400 . S
C2010 C2013 1.386 . S
H2011 C2027 0.930 . S
H2012 C2028 0.931 . S
C2013 H2001 0.929 . S
C2013 C2007 1.390 . S
C2013 C2010 1.386 . S
C2014 C2009 1.490 . S
C2014 C2016 1.395 . S
C2014 C2017 1.403 . S
H2015 C2021 0.930 . S
C2016 H2002 0.930 . S
C2016 C2014 1.395 . S
C2016 C2019 1.403 . S
C2017 C2014 1.403 . S
C2017 C2018 1.524 . S
C2017 C2021 1.400 . S
C2018 H2003 0.960 . S
C2018 H2004 0.960 . S
C2018 H2005 0.960 . S
C2018 C2017 1.524 . S
C2019 C2016 1.403 . S
C2019 C2020 1.392 . S
C2019 C2023 1.495 . S
C2020 C2019 1.392 . S
C2020 C2021 1.385 . S
C2020 C2022 1.478 . S
C2021 H2015 0.930 . S
C2021 C2017 1.400 . S
C2021 C2020 1.385 . S
C2022 C2020 1.478 . S
C2022 C2024 1.381 . S
C2022 C2028 1.383 . S
C2023 C2019 1.495 . S
C2023 H2029 0.959 . S
C2023 H2030 0.961 . S
C2023 H2031 0.960 . S
C2024 C2022 1.381 . S
C2024 C2025 1.394 . S
C2024 H2032 0.930 . S
C2025 C2024 1.394 . S
C2025 C2026 1.383 . S
C2025 H2033 0.929 . S
C2026 C2025 1.383 . S
C2026 C2027 1.377 . S
C2027 H2011 0.930 . S
C2027 C2026 1.377 . S
C2027 C2028 1.379 . S
C2028 H2012 0.931 . S
C2028 C2022 1.383 . S
C2028 C2027 1.379 . S
H2029 C2023 0.959 . S
H2030 C2023 0.961 . S
H2031 C2023 0.960 . S
H2032 C2024 0.930 . S
H2033 C2025 0.929 . S
H2034 C2042 0.929 . S
H2035 C2044 0.930 . S
H2036 C2046 0.930 1_565 S
H2037 C2049 0.875 1_565 S
H2038 C2052 0.930 . S
H2039 C2054 0.960 . S
H2040 C2054 0.960 . S
H2041 C2054 0.960 . S
C2042 H2034 0.929 . S
C2042 C2043 1.377 . S
C2042 C2044 1.384 . S
C2043 C2042 1.377 . S
C2043 C2049 1.423 . S
C2044 H2035 0.930 . S
C2044 C2042 1.384 . S
C2044 C2045 1.372 . S
C2045 C2044 1.372 . S
C2045 C2046 1.400 . S
C2045 C2050 1.490 . S
C2046 H2036 0.930 1_545 S
C2046 C2045 1.400 . S
C2046 C2049 1.409 . S
H2047 C2063 0.930 . S
H2048 C2064 0.931 . S
C2049 H2037 0.875 1_545 S
C2049 C2043 1.423 . S
C2049 C2046 1.409 . S
C2050 C2045 1.490 . S
C2050 C2052 1.395 . S
C2050 C2053 1.403 . S
H2051 C2057 0.933 1_565 S
C2052 H2038 0.930 . S
C2052 C2050 1.395 . S
C2052 C2055 1.403 . S
C2053 C2050 1.403 . S
C2053 C2054 1.524 1_545 S
C2053 C2057 1.400 . S
C2054 H2039 0.960 . S
C2054 H2040 0.960 . S
C2054 H2041 0.960 . S
C2054 C2053 1.524 1_565 S
C2055 C2052 1.403 . S
C2055 C2056 1.392 . S
C2055 C2059 1.495 . S
C2056 C2055 1.392 . S
C2056 C2057 1.385 . S
C2056 C2058 1.478 . S
C2057 H2051 0.933 1_545 S
C2057 C2053 1.400 . S
C2057 C2056 1.385 . S
C2058 C2056 1.478 . S
C2058 C2060 1.381 . S
C2058 C2064 1.383 . S
C2059 C2055 1.495 . S
C2059 H2065 0.959 . S
C2059 H2066 0.961 . S
C2059 H2067 0.960 . S
C2060 C2058 1.381 . S
C2060 C2061 1.394 . S
C2060 H2068 0.930 . S
C2061 C2060 1.394 . S
C2061 C2062 1.383 . S
C2061 H2069 0.929 . S
C2062 C2061 1.383 . S
C2062 C2063 1.377 . S
C2063 H2047 0.930 . S
C2063 C2062 1.377 . S
C2063 C2064 1.379 . S
C2064 H2048 0.931 . S
C2064 C2058 1.383 . S
C2064 C2063 1.379 . S
H2065 C2059 0.959 . S
H2066 C2059 0.961 . S
H2067 C2059 0.960 . S
H2068 C2060 0.930 . S
H2069 C2061 0.929 . S
H2070 C2078 0.929 . S
H2071 C2080 0.930 . S
H2072 C2082 0.930 . S
H2073 C2085 0.929 . S
H2074 C2088 0.930 . S
H2075 C2090 0.960 . S
H2076 C2090 0.960 . S
H2077 C2090 0.960 . S
C2078 H2070 0.929 . S
C2078 C2079 1.377 . S
C2078 C2080 1.384 . S
C2079 C2078 1.377 . S
C2079 C2085 1.390 . S
C2080 H2071 0.930 . S
C2080 C2078 1.384 . S
C2080 C2081 1.372 . S
C2081 C2080 1.372 . S
C2081 C2082 1.400 . S
C2081 C2086 1.490 . S
C2082 H2072 0.930 . S
C2082 C2081 1.400 . S
C2082 C2085 1.386 . S
H2083 C2099 0.930 . S
H2084 C2100 0.931 . S
C2085 H2073 0.929 . S
C2085 C2079 1.390 . S
C2085 C2082 1.386 . S
C2086 C2081 1.490 . S
C2086 C2088 1.395 . S
C2086 C2089 1.403 . S
H2087 C2093 0.930 . S
C2088 H2074 0.930 . S
C2088 C2086 1.395 . S
C2088 C2091 1.403 . S
C2089 C2086 1.403 . S
C2089 C2090 1.524 . S
C2089 C2093 1.400 . S
C2090 H2075 0.960 . S
C2090 H2076 0.960 . S
C2090 H2077 0.960 . S
C2090 C2089 1.524 . S
C2091 C2088 1.403 . S
C2091 C2092 1.392 . S
C2091 C2095 1.483 1_545 S
C2092 C2091 1.392 . S
C2092 C2093 1.385 . S
C2092 C2094 1.478 . S
C2093 H2087 0.930 . S
C2093 C2089 1.400 . S
C2093 C2092 1.385 . S
C2094 C2092 1.478 . S
C2094 C2096 1.381 . S
C2094 C2100 1.383 . S
C2095 C2091 1.483 1_565 S
C2095 H2101 0.993 . S
C2095 H2102 0.999 . S
C2095 H2103 0.905 1_565 S
C2096 C2094 1.381 . S
C2096 C2097 1.394 . S
C2096 H2104 0.930 . S
C2097 C2096 1.394 . S
C2097 C2098 1.383 . S
C2097 H2105 0.929 . S
C2098 C2097 1.383 . S
C2098 C2099 1.377 . S
C2099 H2083 0.930 . S
C2099 C2098 1.377 . S
C2099 C2100 1.379 . S
C2100 H2084 0.931 . S
C2100 C2094 1.383 . S
C2100 C2099 1.379 . S
H2101 C2095 0.993 . S
H2102 C2095 0.999 . S
H2103 C2095 0.905 1_545 S
H2104 C2096 0.930 . S
H2105 C2097 0.929 . S
H2106 C2114 0.929 . S
H2107 C2116 0.930 . S
H2108 C2118 0.930 . S
H2109 C2121 0.929 . S
H2110 C2124 0.930 . S
H2111 C2126 0.960 . S
H2112 C2126 0.960 . S
H2113 C2126 0.960 . S
C2114 H2106 0.929 . S
C2114 C2115 1.377 . S
C2114 C2116 1.384 . S
C2115 C2114 1.377 . S
C2115 C2121 1.390 . S
C2116 H2107 0.930 . S
C2116 C2114 1.384 . S
C2116 C2117 1.372 . S
C2117 C2116 1.372 . S
C2117 C2118 1.400 . S
C2117 C2122 1.490 . S
C2118 H2108 0.930 . S
C2118 C2117 1.400 . S
C2118 C2121 1.386 . S
H2119 C2135 0.930 . S
H2120 C2136 0.931 . S
C2121 H2109 0.929 . S
C2121 C2115 1.390 . S
C2121 C2118 1.386 . S
C2122 C2117 1.490 . S
C2122 C2124 1.395 . S
C2122 C2125 1.403 . S
H2123 C2129 0.930 . S
C2124 H2110 0.930 . S
C2124 C2122 1.395 . S
C2124 C2127 1.403 . S
C2125 C2122 1.403 . S
C2125 C2126 1.524 . S
C2125 C2129 1.400 . S
C2126 H2111 0.960 . S
C2126 H2112 0.960 . S
C2126 H2113 0.960 . S
C2126 C2125 1.524 . S
C2127 C2124 1.403 . S
C2127 C2128 1.392 . S
C2127 C2131 1.495 . S
C2128 C2127 1.392 . S
C2128 C2129 1.385 . S
C2128 C2130 1.478 . S
C2129 H2123 0.930 . S
C2129 C2125 1.400 . S
C2129 C2128 1.385 . S
C2130 C2128 1.478 . S
C2130 C2132 1.381 . S
C2130 C2136 1.383 . S
C2131 C2127 1.495 . S
C2131 H2137 0.959 . S
C2131 H2138 0.961 . S
C2131 H2139 0.960 . S
C2132 C2130 1.381 . S
C2132 C2133 1.394 . S
C2132 H2140 0.930 . S
C2133 C2132 1.394 . S
C2133 C2134 1.383 . S
C2133 H2141 0.929 . S
C2134 C2133 1.383 . S
C2134 C2135 1.377 . S
C2135 H2119 0.930 . S
C2135 C2134 1.377 . S
C2135 C2136 1.379 . S
C2136 H2120 0.931 . S
C2136 C2130 1.383 . S
C2136 C2135 1.379 . S
H2137 C2131 0.959 . S
H2138 C2131 0.961 . S
H2139 C2131 0.960 . S
H2140 C2132 0.930 . S
H2141 C2133 0.929 . S
H2142 C2150 0.929 . S
H2143 C2152 0.930 . S
H2144 C2154 0.930 . S
H2145 C2157 0.929 . S
H2146 C2160 0.930 . S
H2147 C2162 0.960 . S
H2148 C2162 0.960 . S
H2149 C2162 0.960 . S
C2150 H2142 0.929 . S
C2150 C2151 1.377 . S
C2150 C2152 1.384 . S
C2151 C2150 1.377 . S
C2151 C2157 1.390 . S
C2152 H2143 0.930 . S
C2152 C2150 1.384 . S
C2152 C2153 1.372 . S
C2153 C2152 1.372 . S
C2153 C2154 1.400 . S
C2153 C2158 1.490 . S
C2154 H2144 0.930 . S
C2154 C2153 1.400 . S
C2154 C2157 1.386 . S
H2155 C2171 0.930 . S
H2156 C2172 0.931 . S
C2157 H2145 0.929 . S
C2157 C2151 1.390 . S
C2157 C2154 1.386 . S
C2158 C2153 1.490 . S
C2158 C2160 1.395 . S
C2158 C2161 1.403 . S
H2159 C2165 0.930 . S
C2160 H2146 0.930 . S
C2160 C2158 1.395 . S
C2160 C2163 1.403 . S
C2161 C2158 1.403 . S
C2161 C2162 1.524 . S
C2161 C2165 1.400 . S
C2162 H2147 0.960 . S
C2162 H2148 0.960 . S
C2162 H2149 0.960 . S
C2162 C2161 1.524 . S
C2163 C2160 1.403 . S
C2163 C2164 1.392 . S
C2163 C2167 1.495 . S
C2164 C2163 1.392 . S
C2164 C2165 1.385 . S
C2164 C2166 1.478 . S
C2165 H2159 0.930 . S
C2165 C2161 1.400 . S
C2165 C2164 1.385 . S
C2166 C2164 1.478 . S
C2166 C2168 1.381 . S
C2166 C2172 1.383 . S
C2167 C2163 1.495 . S
C2167 H2173 0.959 . S
C2167 H2174 0.961 . S
C2167 H2175 0.960 . S
C2168 C2166 1.381 . S
C2168 C2169 1.394 . S
C2168 H2176 0.930 . S
C2169 C2168 1.394 . S
C2169 C2170 1.383 . S
C2169 H2177 0.929 . S
C2170 C2169 1.383 . S
C2170 C2171 1.377 . S
C2171 H2155 0.930 . S
C2171 C2170 1.377 . S
C2171 C2172 1.379 . S
C2172 H2156 0.931 . S
C2172 C2166 1.383 . S
C2172 C2171 1.379 . S
H2173 C2167 0.959 . S
H2174 C2167 0.961 . S
H2175 C2167 0.960 . S
H2176 C2168 0.930 . S
H2177 C2169 0.929 . S
H2178 C2186 0.929 . S
H2179 C2188 0.930 . S
H2180 C2190 0.930 . S
H2181 C2193 0.929 . S
H2182 C2196 0.930 . S
H2183 C2198 0.960 . S
H2184 C2198 0.960 . S
H2185 C2198 0.960 . S
C2186 H2178 0.929 . S
C2186 C2187 1.377 . S
C2186 C2188 1.384 . S
C2187 C2186 1.377 . S
C2187 C2193 1.390 . S
C2188 H2179 0.930 . S
C2188 C2186 1.384 . S
C2188 C2189 1.372 . S
C2189 C2188 1.372 . S
C2189 C2190 1.400 . S
C2189 C2194 1.490 . S
C2190 H2180 0.930 . S
C2190 C2189 1.400 . S
C2190 C2193 1.386 . S
H2191 C2207 0.930 . S
H2192 C2208 0.931 . S
C2193 H2181 0.929 . S
C2193 C2187 1.390 . S
C2193 C2190 1.386 . S
C2194 C2189 1.490 . S
C2194 C2196 1.395 . S
C2194 C2197 1.403 . S
H2195 C2201 0.930 . S
C2196 H2182 0.930 . S
C2196 C2194 1.395 . S
C2196 C2199 1.403 . S
C2197 C2194 1.403 . S
C2197 C2198 1.524 . S
C2197 C2201 1.400 . S
C2198 H2183 0.960 . S
C2198 H2184 0.960 . S
C2198 H2185 0.960 . S
C2198 C2197 1.524 . S
C2199 C2196 1.403 . S
C2199 C2200 1.392 . S
C2199 C2203 1.495 . S
C2200 C2199 1.392 . S
C2200 C2201 1.385 . S
C2200 C2202 1.478 . S
C2201 H2195 0.930 . S
C2201 C2197 1.400 . S
C2201 C2200 1.385 . S
C2202 C2200 1.478 . S
C2202 C2204 1.381 . S
C2202 C2208 1.383 . S
C2203 C2199 1.495 . S
C2203 H2209 0.962 1_455 S
C2203 H2210 0.938 1_455 S
C2203 H2211 0.960 . S
C2204 C2202 1.381 . S
C2204 C2205 1.394 . S
C2204 H2212 0.930 . S
C2205 C2204 1.394 . S
C2205 C2206 1.383 . S
C2205 H2213 0.929 . S
C2206 C2205 1.383 . S
C2206 C2207 1.377 . S
C2207 H2191 0.930 . S
C2207 C2206 1.377 . S
C2207 C2208 1.379 . S
C2208 H2192 0.931 . S
C2208 C2202 1.383 . S
C2208 C2207 1.379 . S
H2209 C2203 0.962 1_655 S
H2210 C2203 0.938 1_655 S
H2211 C2203 0.960 . S
H2212 C2204 0.930 . S
H2213 C2205 0.929 . S
H2214 C2222 0.929 . S
H2215 C2224 0.930 . S
H2216 C2226 0.930 . S
H2217 C2229 0.929 . S
H2218 C2232 0.930 . S
H2219 C2234 0.960 . S
H2220 C2234 0.960 . S
H2221 C2234 0.960 . S
C2222 H2214 0.929 . S
C2222 C2223 1.377 . S
C2222 C2224 1.384 . S
C2223 C2222 1.377 . S
C2223 C2229 1.390 . S
C2224 H2215 0.930 . S
C2224 C2222 1.384 . S
C2224 C2225 1.372 . S
C2225 C2224 1.372 . S
C2225 C2226 1.400 . S
C2225 C2230 1.490 . S
C2226 H2216 0.930 . S
C2226 C2225 1.400 . S
C2226 C2229 1.386 . S
H2227 C2243 0.930 . S
H2228 C2244 0.931 . S
C2229 H2217 0.929 . S
C2229 C2223 1.390 . S
C2229 C2226 1.386 . S
C2230 C2225 1.490 . S
C2230 C2232 1.395 . S
C2230 C2233 1.403 . S
H2231 C2237 0.930 . S
C2232 H2218 0.930 . S
C2232 C2230 1.395 . S
C2232 C2235 1.403 . S
C2233 C2230 1.403 . S
C2233 C2234 1.524 . S
C2233 C2237 1.400 . S
C2234 H2219 0.960 . S
C2234 H2220 0.960 . S
C2234 H2221 0.960 . S
C2234 C2233 1.524 . S
C2235 C2232 1.403 . S
C2235 C2236 1.392 . S
C2235 C2239 1.495 . S
C2236 C2235 1.392 . S
C2236 C2237 1.385 . S
C2236 C2238 1.478 . S
C2237 H2231 0.930 . S
C2237 C2233 1.400 . S
C2237 C2236 1.385 . S
C2238 C2236 1.478 . S
C2238 C2240 1.381 . S
C2238 C2244 1.383 . S
C2239 C2235 1.495 . S
C2239 H2245 0.959 . S
C2239 H2246 0.961 . S
C2239 H2247 0.960 . S
C2240 C2238 1.381 . S
C2240 C2241 1.394 . S
C2240 H2248 0.930 . S
C2241 C2240 1.394 . S
C2241 C2242 1.383 . S
C2241 H2249 0.929 . S
C2242 C2241 1.383 . S
C2242 C2243 1.377 . S
C2243 H2227 0.930 . S
C2243 C2242 1.377 . S
C2243 C2244 1.379 . S
C2244 H2228 0.931 . S
C2244 C2238 1.383 . S
C2244 C2243 1.379 . S
H2245 C2239 0.959 . S
H2246 C2239 0.961 . S
H2247 C2239 0.960 . S
H2248 C2240 0.930 . S
H2249 C2241 0.929 . S
H2250 C2258 0.927 1_565 S
H2251 C2260 0.930 . S
H2252 C2262 0.930 . S
H2253 C2265 0.929 . S
H2254 C2268 0.930 . S
H2255 C2270 0.960 . S
H2256 C2270 0.960 . S
H2257 C2270 0.960 . S
C2258 H2250 0.927 1_545 S
C2258 C2259 1.377 . S
C2258 C2260 1.384 . S
C2259 C2258 1.377 . S
C2259 C2265 1.390 . S
C2260 H2251 0.930 . S
C2260 C2258 1.384 . S
C2260 C2261 1.372 . S
C2261 C2260 1.372 . S
C2261 C2262 1.400 . S
C2261 C2266 1.490 . S
C2262 H2252 0.930 . S
C2262 C2261 1.400 . S
C2262 C2265 1.386 . S
H2263 C2279 0.930 . S
H2264 C2280 0.931 . S
C2265 H2253 0.929 . S
C2265 C2259 1.390 . S
C2265 C2262 1.386 . S
C2266 C2261 1.490 . S
C2266 C2268 1.395 . S
C2266 C2269 1.403 . S
H2267 C2273 0.930 . S
C2268 H2254 0.930 . S
C2268 C2266 1.395 . S
C2268 C2271 1.403 . S
C2269 C2266 1.403 . S
C2269 C2270 1.524 . S
C2269 C2273 1.400 . S
C2270 H2255 0.960 . S
C2270 H2256 0.960 . S
C2270 H2257 0.960 . S
C2270 C2269 1.524 . S
C2271 C2268 1.403 . S
C2271 C2272 1.392 . S
C2271 C2275 1.495 . S
C2272 C2271 1.392 . S
C2272 C2273 1.385 . S
C2272 C2274 1.478 . S
C2273 H2267 0.930 . S
C2273 C2269 1.400 . S
C2273 C2272 1.385 . S
C2274 C2272 1.478 . S
C2274 C2276 1.381 . S
C2274 C2280 1.383 . S
C2275 C2271 1.495 . S
C2275 H2281 0.959 . S
C2275 H2282 0.961 . S
C2275 H2283 0.960 . S
C2276 C2274 1.381 . S
C2276 C2277 1.394 . S
C2276 H2284 0.930 . S
C2277 C2276 1.394 . S
C2277 C2278 1.383 . S
C2277 H2285 0.929 . S
C2278 C2277 1.383 . S
C2278 C2279 1.377 . S
C2279 H2263 0.930 . S
C2279 C2278 1.377 . S
C2279 C2280 1.379 . S
C2280 H2264 0.931 . S
C2280 C2274 1.383 . S
C2280 C2279 1.379 . S
H2281 C2275 0.959 . S
H2282 C2275 0.961 . S
H2283 C2275 0.960 . S
H2284 C2276 0.930 . S
H2285 C2277 0.929 . S
H2286 C2294 0.929 . S
H2287 C2296 0.930 . S
H2288 C2298 0.930 . S
H2289 C2301 0.929 . S
H2290 C2304 0.930 . S
H2291 C2306 0.956 . S
H2292 C2306 0.960 . S
H2293 C2306 0.960 . S
C2294 H2286 0.929 . S
C2294 C2295 1.377 . S
C2294 C2296 1.384 . S
C2295 C2294 1.377 . S
C2295 C2301 1.390 . S
C2296 H2287 0.930 . S
C2296 C2294 1.384 . S
C2296 C2297 1.372 . S
C2297 C2296 1.372 . S
C2297 C2298 1.400 . S
C2297 C2302 1.490 . S
C2298 H2288 0.930 . S
C2298 C2297 1.400 . S
C2298 C2301 1.386 . S
H2299 C2315 0.930 . S
H2300 C2316 0.931 . S
C2301 H2289 0.929 . S
C2301 C2295 1.390 . S
C2301 C2298 1.386 . S
C2302 C2297 1.490 . S
C2302 C2304 1.395 . S
C2302 C2305 1.403 . S
H2303 C2309 0.930 . S
C2304 H2290 0.930 . S
C2304 C2302 1.395 . S
C2304 C2307 1.403 . S
C2305 C2302 1.403 . S
C2305 C2306 1.524 . S
C2305 C2309 1.400 . S
C2306 H2291 0.956 . S
C2306 H2292 0.960 . S
C2306 H2293 0.960 . S
C2306 C2305 1.524 . S
C2307 C2304 1.403 . S
C2307 C2308 1.392 . S
C2307 C2311 1.495 . S
C2308 C2307 1.392 . S
C2308 C2309 1.385 . S
C2308 C2310 1.478 . S
C2309 H2303 0.930 . S
C2309 C2305 1.400 . S
C2309 C2308 1.385 . S
C2310 C2308 1.478 . S
C2310 C2312 1.381 . S
C2310 C2316 1.383 . S
C2311 C2307 1.495 . S
C2311 H2317 0.959 . S
C2311 H2318 0.961 . S
C2311 H2319 0.960 . S
C2312 C2310 1.381 . S
C2312 C2313 1.394 . S
C2312 H2320 0.930 . S
C2313 C2312 1.394 . S
C2313 C2314 1.383 . S
C2313 H2321 0.929 . S
C2314 C2313 1.383 . S
C2314 C2315 1.377 . S
C2315 H2299 0.930 . S
C2315 C2314 1.377 . S
C2315 C2316 1.379 . S
C2316 H2300 0.931 . S
C2316 C2310 1.383 . S
C2316 C2315 1.379 . S
H2317 C2311 0.959 . S
H2318 C2311 0.961 . S
H2319 C2311 0.960 . S
H2320 C2312 0.930 . S
H2321 C2313 0.929 . S
H2322 C2330 0.929 . S
H2323 C2332 0.930 . S
H2324 C2334 0.930 . S
H2325 C2337 0.929 . S
H2326 C2340 0.930 . S
H2327 C2342 0.960 . S
H2328 C2342 0.960 . S
H2329 C2342 0.960 . S
C2330 H2322 0.929 . S
C2330 C2331 1.377 . S
C2330 C2332 1.384 . S
C2331 C2330 1.377 . S
C2331 C2337 1.390 . S
C2332 H2323 0.930 . S
C2332 C2330 1.384 . S
C2332 C2333 1.372 . S
C2333 C2332 1.372 . S
C2333 C2334 1.400 . S
C2333 C2338 1.490 . S
C2334 H2324 0.930 . S
C2334 C2333 1.400 . S
C2334 C2337 1.386 . S
H2335 C2351 0.930 . S
H2336 C2352 0.931 . S
C2337 H2325 0.929 . S
C2337 C2331 1.390 . S
C2337 C2334 1.386 . S
C2338 C2333 1.490 . S
C2338 C2340 1.395 . S
C2338 C2341 1.403 . S
H2339 C2345 0.930 . S
C2340 H2326 0.930 . S
C2340 C2338 1.395 . S
C2340 C2343 1.403 . S
C2341 C2338 1.403 . S
C2341 C2342 1.524 . S
C2341 C2345 1.400 . S
C2342 H2327 0.960 . S
C2342 H2328 0.960 . S
C2342 H2329 0.960 . S
C2342 C2341 1.524 . S
C2343 C2340 1.403 . S
C2343 C2344 1.392 . S
C2343 C2347 1.495 . S
C2344 C2343 1.392 . S
C2344 C2345 1.385 . S
C2344 C2346 1.478 . S
C2345 H2339 0.930 . S
C2345 C2341 1.400 . S
C2345 C2344 1.385 . S
C2346 C2344 1.478 . S
C2346 C2348 1.381 . S
C2346 C2352 1.383 . S
C2347 C2343 1.495 . S
C2347 H2353 0.959 . S
C2347 H2354 0.961 . S
C2347 H2355 0.960 . S
C2348 C2346 1.381 . S
C2348 C2349 1.394 . S
C2348 H2356 0.930 . S
C2349 C2348 1.394 . S
C2349 C2350 1.383 . S
C2349 H2357 0.929 . S
C2350 C2349 1.383 . S
C2350 C2351 1.377 . S
C2351 H2335 0.930 . S
C2351 C2350 1.377 . S
C2351 C2352 1.379 . S
C2352 H2336 0.931 . S
C2352 C2346 1.383 . S
C2352 C2351 1.379 . S
H2353 C2347 0.959 . S
H2354 C2347 0.961 . S
H2355 C2347 0.960 . S
H2356 C2348 0.930 . S
H2357 C2349 0.929 . S
H2358 C2366 0.929 . S
H2359 C2368 0.930 . S
H2360 C2370 0.930 . S
H2361 C2373 0.929 . S
H2362 C2376 0.930 . S
H2363 C2378 0.960 . S
H2364 C2378 0.960 . S
H2365 C2378 0.960 . S
C2366 H2358 0.929 . S
C2366 C2367 1.377 . S
C2366 C2368 1.384 . S
C2367 C2366 1.377 . S
C2367 C2373 1.390 . S
C2368 H2359 0.930 . S
C2368 C2366 1.384 . S
C2368 C2369 1.372 . S
C2369 C2368 1.372 . S
C2369 C2370 1.400 . S
C2369 C2374 1.490 . S
C2370 H2360 0.930 . S
C2370 C2369 1.400 . S
C2370 C2373 1.386 . S
H2371 C2387 0.930 . S
H2372 C2388 0.931 . S
C2373 H2361 0.929 . S
C2373 C2367 1.390 . S
C2373 C2370 1.386 . S
C2374 C2369 1.490 . S
C2374 C2376 1.395 . S
C2374 C2377 1.403 . S
H2375 C2381 0.930 . S
C2376 H2362 0.930 . S
C2376 C2374 1.395 . S
C2376 C2379 1.403 . S
C2377 C2374 1.403 . S
C2377 C2378 1.524 . S
C2377 C2381 1.400 . S
C2378 H2363 0.960 . S
C2378 H2364 0.960 . S
C2378 H2365 0.960 . S
C2378 C2377 1.524 . S
C2379 C2376 1.403 . S
C2379 C2380 1.392 . S
C2379 C2383 1.495 . S
C2380 C2379 1.392 . S
C2380 C2381 1.385 . S
C2380 C2382 1.478 . S
C2381 H2375 0.930 . S
C2381 C2377 1.400 . S
C2381 C2380 1.385 . S
C2382 C2380 1.478 . S
C2382 C2384 1.381 . S
C2382 C2388 1.383 . S
C2383 C2379 1.495 . S
C2383 H2389 0.959 . S
C2383 H2390 0.961 . S
C2383 H2391 0.960 . S
C2384 C2382 1.381 . S
C2384 C2385 1.394 . S
C2384 H2392 0.930 . S
C2385 C2384 1.394 . S
C2385 C2386 1.383 . S
C2385 H2393 0.929 . S
C2386 C2385 1.383 . S
C2386 C2387 1.377 . S
C2387 H2371 0.930 . S
C2387 C2386 1.377 . S
C2387 C2388 1.379 . S
C2388 H2372 0.931 . S
C2388 C2382 1.383 . S
C2388 C2387 1.379 . S
H2389 C2383 0.959 . S
H2390 C2383 0.961 . S
H2391 C2383 0.960 . S
H2392 C2384 0.930 . S
H2393 C2385 0.929 . S
H2394 C2402 0.929 . S
H2395 C2404 0.930 . S
H2396 C2406 0.930 . S
H2397 C2409 0.929 . S
H2398 C2412 0.930 . S
H2399 C2414 0.960 . S
H2400 C2414 0.960 . S
H2401 C2414 0.960 . S
C2402 H2394 0.929 . S
C2402 C2403 1.377 . S
C2402 C2404 1.384 . S
C2403 C2402 1.377 . S
C2403 C2409 1.390 . S
C2404 H2395 0.930 . S
C2404 C2402 1.384 . S
C2404 C2405 1.372 . S
C2405 C2404 1.372 . S
C2405 C2406 1.400 . S
C2405 C2410 1.490 . S
C2406 H2396 0.930 . S
C2406 C2405 1.400 . S
C2406 C2409 1.386 . S
H2407 C2423 0.930 . S
H2408 C2424 0.931 . S
C2409 H2397 0.929 . S
C2409 C2403 1.390 . S
C2409 C2406 1.386 . S
C2410 C2405 1.490 . S
C2410 C2412 1.395 . S
C2410 C2413 1.403 . S
H2411 C2417 0.930 . S
C2412 H2398 0.930 . S
C2412 C2410 1.395 . S
C2412 C2415 1.403 . S
C2413 C2410 1.403 . S
C2413 C2414 1.524 . S
C2413 C2417 1.400 . S
C2414 H2399 0.960 . S
C2414 H2400 0.960 . S
C2414 H2401 0.960 . S
C2414 C2413 1.524 . S
C2415 C2412 1.403 . S
C2415 C2416 1.392 . S
C2415 C2419 1.495 . S
C2416 C2415 1.392 . S
C2416 C2417 1.385 . S
C2416 C2418 1.478 . S
C2417 H2411 0.930 . S
C2417 C2413 1.400 . S
C2417 C2416 1.385 . S
C2418 C2416 1.478 . S
C2418 C2420 1.381 . S
C2418 C2424 1.383 . S
C2419 C2415 1.495 . S
C2419 H2425 0.959 . S
C2419 H2426 0.961 . S
C2419 H2427 0.960 . S
C2420 C2418 1.381 . S
C2420 C2421 1.394 . S
C2420 H2428 0.930 . S
C2421 C2420 1.394 . S
C2421 C2422 1.383 . S
C2421 H2429 0.929 . S
C2422 C2421 1.383 . S
C2422 C2423 1.377 . S
C2423 H2407 0.930 . S
C2423 C2422 1.377 . S
C2423 C2424 1.379 . S
C2424 H2408 0.931 . S
C2424 C2418 1.383 . S
C2424 C2423 1.379 . S
H2425 C2419 0.959 . S
H2426 C2419 0.961 . S
H2427 C2419 0.960 . S
H2428 C2420 0.930 . S
H2429 C2421 0.929 . S
H2430 C2438 0.929 . S
H2431 C2440 0.930 . S
H2432 C2442 0.930 . S
H2433 C2445 0.929 . S
H2434 C2448 0.930 . S
H2435 C2450 0.960 . S
H2436 C2450 0.960 . S
H2437 C2450 0.960 . S
C2438 H2430 0.929 . S
C2438 C2439 1.377 . S
C2438 C2440 1.384 . S
C2439 C2438 1.377 . S
C2439 C2445 1.390 . S
C2440 H2431 0.930 . S
C2440 C2438 1.384 . S
C2440 C2441 1.372 . S
C2441 C2440 1.372 . S
C2441 C2442 1.400 . S
C2441 C2446 1.490 . S
C2442 H2432 0.930 . S
C2442 C2441 1.400 . S
C2442 C2445 1.386 . S
H2443 C2459 0.930 . S
H2444 C2460 0.931 . S
C2445 H2433 0.929 . S
C2445 C2439 1.390 . S
C2445 C2442 1.386 . S
C2446 C2441 1.490 . S
C2446 C2448 1.395 . S
C2446 C2449 1.403 . S
H2447 C2453 0.930 . S
C2448 H2434 0.930 . S
C2448 C2446 1.395 . S
C2448 C2451 1.403 . S
C2449 C2446 1.403 . S
C2449 C2450 1.524 . S
C2449 C2453 1.400 . S
C2450 H2435 0.960 . S
C2450 H2436 0.960 . S
C2450 H2437 0.960 . S
C2450 C2449 1.524 . S
C2451 C2448 1.403 . S
C2451 C2452 1.392 . S
C2451 C2455 1.495 . S
C2452 C2451 1.392 . S
C2452 C2453 1.385 . S
C2452 C2454 1.478 . S
C2453 H2447 0.930 . S
C2453 C2449 1.400 . S
C2453 C2452 1.385 . S
C2454 C2452 1.478 . S
C2454 C2456 1.381 . S
C2454 C2460 1.383 . S
C2455 C2451 1.495 . S
C2455 H2461 0.959 . S
C2455 H2462 0.961 . S
C2455 H2463 0.960 . S
C2456 C2454 1.381 . S
C2456 C2457 1.394 . S
C2456 H2464 0.930 . S
C2457 C2456 1.394 . S
C2457 C2458 1.383 . S
C2457 H2465 0.929 . S
C2458 C2457 1.383 . S
C2458 C2459 1.377 . S
C2459 H2443 0.930 . S
C2459 C2458 1.377 . S
C2459 C2460 1.379 . S
C2460 H2444 0.931 . S
C2460 C2454 1.383 . S
C2460 C2459 1.379 . S
H2461 C2455 0.959 . S
H2462 C2455 0.961 . S
H2463 C2455 0.960 . S
H2464 C2456 0.930 . S
H2465 C2457 0.929 . S
H2466 C2474 0.929 . S
H2467 C2476 0.930 . S
H2468 C2478 0.930 . S
H2469 C2481 0.929 . S
H2470 C2484 0.930 . S
H2471 C2486 0.960 . S
H2472 C2486 0.960 . S
H2473 C2486 0.960 . S
C2474 H2466 0.929 . S
C2474 C2475 1.377 . S
C2474 C2476 1.384 . S
C2475 C2474 1.377 . S
C2475 C2481 1.390 . S
C2476 H2467 0.930 . S
C2476 C2474 1.384 . S
C2476 C2477 1.372 . S
C2477 C2476 1.372 . S
C2477 C2478 1.400 . S
C2477 C2482 1.490 . S
C2478 H2468 0.930 . S
C2478 C2477 1.400 . S
C2478 C2481 1.386 . S
H2479 C2495 0.930 . S
H2480 C2496 0.931 . S
C2481 H2469 0.929 . S
C2481 C2475 1.390 . S
C2481 C2478 1.386 . S
C2482 C2477 1.490 . S
C2482 C2484 1.395 . S
C2482 C2485 1.403 . S
H2483 C2489 0.930 . S
C2484 H2470 0.930 . S
C2484 C2482 1.395 . S
C2484 C2487 1.403 . S
C2485 C2482 1.403 . S
C2485 C2486 1.524 . S
C2485 C2489 1.400 . S
C2486 H2471 0.960 . S
C2486 H2472 0.960 . S
C2486 H2473 0.960 . S
C2486 C2485 1.524 . S
C2487 C2484 1.403 . S
C2487 C2488 1.392 . S
C2487 C2491 1.495 . S
C2488 C2487 1.392 . S
C2488 C2489 1.385 . S
C2488 C2490 1.478 . S
C2489 H2483 0.930 . S
C2489 C2485 1.400 . S
C2489 C2488 1.385 . S
C2490 C2488 1.478 . S
C2490 C2492 1.381 . S
C2490 C2496 1.383 . S
C2491 C2487 1.495 . S
C2491 H2497 0.959 . S
C2491 H2498 0.961 . S
C2491 H2499 0.960 . S
C2492 C2490 1.381 . S
C2492 C2493 1.394 . S
C2492 H2500 0.930 . S
C2493 C2492 1.394 . S
C2493 C2494 1.383 . S
C2493 H2501 0.929 . S
C2494 C2493 1.383 . S
C2494 C2495 1.377 . S
C2495 H2479 0.930 . S
C2495 C2494 1.377 . S
C2495 C2496 1.379 . S
C2496 H2480 0.931 . S
C2496 C2490 1.383 . S
C2496 C2495 1.379 . S
H2497 C2491 0.959 . S
H2498 C2491 0.961 . S
H2499 C2491 0.960 . S
H2500 C2492 0.930 . S
H2501 C2493 0.929 . S
H2502 C2510 0.929 . S
H2503 C2512 0.930 . S
H2504 C2514 0.930 . S
H2505 C2517 0.929 . S
H2506 C2520 0.930 . S
H2507 C2522 0.960 . S
H2508 C2522 0.960 . S
H2509 C2522 0.960 . S
C2510 H2502 0.929 . S
C2510 C2511 1.377 . S
C2510 C2512 1.384 . S
C2511 C2510 1.377 . S
C2511 C2517 1.390 . S
C2512 H2503 0.930 . S
C2512 C2510 1.384 . S
C2512 C2513 1.372 . S
C2513 C2512 1.372 . S
C2513 C2514 1.400 . S
C2513 C2518 1.490 . S
C2514 H2504 0.930 . S
C2514 C2513 1.400 . S
C2514 C2517 1.386 . S
H2515 C2531 0.930 . S
H2516 C2532 0.931 . S
C2517 H2505 0.929 . S
C2517 C2511 1.390 . S
C2517 C2514 1.386 . S
C2518 C2513 1.490 . S
C2518 C2520 1.395 . S
C2518 C2521 1.403 . S
H2519 C2525 0.930 . S
C2520 H2506 0.930 . S
C2520 C2518 1.395 . S
C2520 C2523 1.403 1_556 S
C2521 C2518 1.403 . S
C2521 C2522 1.524 . S
C2521 C2525 1.400 . S
C2522 H2507 0.960 . S
C2522 H2508 0.960 . S
C2522 H2509 0.960 . S
C2522 C2521 1.524 . S
C2523 C2520 1.403 1_554 S
C2523 C2524 1.392 . S
C2523 C2527 1.495 . S
C2524 C2523 1.392 . S
C2524 C2525 1.385 1_554 S
C2524 C2526 1.478 . S
C2525 H2519 0.930 . S
C2525 C2521 1.400 . S
C2525 C2524 1.385 1_556 S
C2526 C2524 1.478 . S
C2526 C2528 1.381 . S
C2526 C2532 1.383 . S
C2527 C2523 1.495 . S
C2527 H2533 0.959 . S
C2527 H2534 0.961 . S
C2527 H2535 0.960 . S
C2528 C2526 1.381 . S
C2528 C2529 1.394 . S
C2528 H2536 0.930 . S
C2529 C2528 1.394 . S
C2529 C2530 1.383 . S
C2529 H2537 0.929 . S
C2530 C2529 1.383 . S
C2530 C2531 1.377 . S
C2531 H2515 0.930 . S
C2531 C2530 1.377 . S
C2531 C2532 1.379 . S
C2532 H2516 0.931 . S
C2532 C2526 1.383 . S
C2532 C2531 1.379 . S
H2533 C2527 0.959 . S
H2534 C2527 0.961 . S
H2535 C2527 0.960 . S
H2536 C2528 0.930 . S
H2537 C2529 0.929 . S
H2538 C2546 0.929 . S
H2539 C2548 0.930 . S
H2540 C2550 0.930 . S
H2541 C2553 0.929 . S
H2542 C2556 0.930 . S
H2543 C2558 0.960 . S
H2544 C2558 0.960 . S
H2545 C2558 0.960 . S
C2546 H2538 0.929 . S
C2546 C2547 1.377 . S
C2546 C2548 1.384 . S
C2547 C2546 1.377 . S
C2547 C2553 1.390 . S
C2548 H2539 0.930 . S
C2548 C2546 1.384 . S
C2548 C2549 1.372 . S
C2549 C2548 1.372 . S
C2549 C2550 1.400 . S
C2549 C2554 1.490 . S
C2550 H2540 0.930 . S
C2550 C2549 1.400 . S
C2550 C2553 1.386 . S
H2551 C2567 0.930 . S
H2552 C2568 0.931 . S
C2553 H2541 0.929 . S
C2553 C2547 1.390 . S
C2553 C2550 1.386 . S
C2554 C2549 1.490 . S
C2554 C2556 1.395 . S
C2554 C2557 1.403 . S
H2555 C2561 0.930 . S
C2556 H2542 0.930 . S
C2556 C2554 1.395 . S
C2556 C2559 1.403 . S
C2557 C2554 1.403 . S
C2557 C2558 1.524 . S
C2557 C2561 1.400 . S
C2558 H2543 0.960 . S
C2558 H2544 0.960 . S
C2558 H2545 0.960 . S
C2558 C2557 1.524 . S
C2559 C2556 1.403 . S
C2559 C2560 1.392 . S
C2559 C2563 1.495 1_556 S
C2560 C2559 1.392 . S
C2560 C2561 1.385 . S
C2560 C2562 1.478 1_556 S
C2561 H2555 0.930 . S
C2561 C2557 1.400 . S
C2561 C2560 1.385 . S
C2562 C2560 1.478 1_554 S
C2562 C2564 1.381 . S
C2562 C2568 1.383 . S
C2563 C2559 1.495 1_554 S
C2563 H2569 0.945 1_554 S
C2563 H2570 0.961 . S
C2563 H2571 0.960 . S
C2564 C2562 1.381 . S
C2564 C2565 1.394 . S
C2564 H2572 0.930 . S
C2565 C2564 1.394 . S
C2565 C2566 1.383 . S
C2565 H2573 0.929 . S
C2566 C2565 1.383 . S
C2566 C2567 1.377 . S
C2567 H2551 0.930 . S
C2567 C2566 1.377 . S
C2567 C2568 1.379 . S
C2568 H2552 0.931 . S
C2568 C2562 1.383 . S
C2568 C2567 1.379 . S
H2569 C2563 0.945 1_556 S
H2570 C2563 0.961 . S
H2571 C2563 0.960 . S
H2572 C2564 0.930 . S
H2573 C2565 0.929 . S
H2574 C2582 0.929 . S
H2575 C2584 0.930 . S
H2576 C2586 0.930 . S
H2577 C2589 0.929 . S
H2578 C2592 0.930 . S
H2579 C2594 0.960 1_554 S
H2580 C2594 0.960 . S
H2581 C2594 0.960 . S
C2582 H2574 0.929 . S
C2582 C2583 1.377 . S
C2582 C2584 1.384 . S
C2583 C2582 1.377 . S
C2583 C2589 1.390 . S
C2584 H2575 0.930 . S
C2584 C2582 1.384 . S
C2584 C2585 1.372 . S
C2585 C2584 1.372 . S
C2585 C2586 1.400 . S
C2585 C2590 1.490 . S
C2586 H2576 0.930 . S
C2586 C2585 1.400 . S
C2586 C2589 1.386 . S
H2587 C2603 0.930 . S
H2588 C2604 0.931 . S
C2589 H2577 0.929 . S
C2589 C2583 1.390 . S
C2589 C2586 1.386 . S
C2590 C2585 1.490 . S
C2590 C2592 1.395 . S
C2590 C2593 1.403 . S
H2591 C2597 0.930 . S
C2592 H2578 0.930 . S
C2592 C2590 1.395 . S
C2592 C2595 1.403 . S
C2593 C2590 1.403 . S
C2593 C2594 1.524 . S
C2593 C2597 1.400 1_556 S
C2594 H2579 0.960 1_556 S
C2594 H2580 0.960 . S
C2594 H2581 0.960 . S
C2594 C2593 1.524 . S
C2595 C2592 1.403 . S
C2595 C2596 1.392 1_556 S
C2595 C2599 1.495 . S
C2596 C2595 1.392 1_554 S
C2596 C2597 1.385 . S
C2596 C2598 1.478 . S
C2597 H2591 0.930 . S
C2597 C2593 1.400 1_554 S
C2597 C2596 1.385 . S
C2598 C2596 1.478 . S
C2598 C2600 1.381 . S
C2598 C2604 1.383 . S
C2599 C2595 1.495 . S
C2599 H2605 0.959 . S
C2599 H2606 0.961 . S
C2599 H2607 0.960 . S
C2600 C2598 1.381 . S
C2600 C2601 1.394 . S
C2600 H2608 0.930 . S
C2601 C2600 1.394 . S
C2601 C2602 1.383 . S
C2601 H2609 0.929 . S
C2602 C2601 1.383 . S
C2602 C2603 1.377 . S
C2603 H2587 0.930 . S
C2603 C2602 1.377 . S
C2603 C2604 1.379 . S
C2604 H2588 0.931 . S
C2604 C2598 1.383 . S
C2604 C2603 1.379 . S
H2605 C2599 0.959 . S
H2606 C2599 0.961 . S
H2607 C2599 0.960 . S
H2608 C2600 0.930 . S
H2609 C2601 0.929 . S
H2610 C2618 0.929 . S
H2611 C2620 0.930 . S
H2612 C2622 0.930 . S
H2613 C2625 0.929 . S
H2614 C2628 0.930 . S
H2615 C2630 0.960 . S
H2616 C2630 0.960 . S
H2617 C2630 0.960 . S
C2618 H2610 0.929 . S
C2618 C2619 1.377 . S
C2618 C2620 1.384 . S
C2619 C2618 1.377 . S
C2619 C2625 1.390 . S
C2620 H2611 0.930 . S
C2620 C2618 1.384 . S
C2620 C2621 1.372 . S
C2621 C2620 1.372 . S
C2621 C2622 1.400 . S
C2621 C2626 1.490 . S
C2622 H2612 0.930 . S
C2622 C2621 1.400 . S
C2622 C2625 1.386 . S
H2623 C2639 0.930 . S
H2624 C2640 0.931 . S
C2625 H2613 0.929 . S
C2625 C2619 1.390 . S
C2625 C2622 1.386 . S
C2626 C2621 1.490 . S
C2626 C2628 1.395 . S
C2626 C2629 1.403 . S
H2627 C2633 0.930 . S
C2628 H2614 0.930 . S
C2628 C2626 1.395 . S
C2628 C2631 1.403 . S
C2629 C2626 1.403 . S
C2629 C2630 1.524 . S
C2629 C2633 1.400 . S
C2630 H2615 0.960 . S
C2630 H2616 0.960 . S
C2630 H2617 0.960 . S
C2630 C2629 1.524 . S
C2631 C2628 1.403 . S
C2631 C2632 1.392 . S
C2631 C2635 1.495 . S
C2632 C2631 1.392 . S
C2632 C2633 1.385 . S
C2632 C2634 1.478 . S
C2633 H2627 0.930 . S
C2633 C2629 1.400 . S
C2633 C2632 1.385 . S
C2634 C2632 1.478 . S
C2634 C2636 1.381 . S
C2634 C2640 1.383 . S
C2635 C2631 1.495 . S
C2635 H2641 0.959 . S
C2635 H2642 0.961 . S
C2635 H2643 0.960 . S
C2636 C2634 1.381 . S
C2636 C2637 1.394 . S
C2636 H2644 0.930 . S
C2637 C2636 1.394 . S
C2637 C2638 1.383 . S
C2637 H2645 0.929 . S
C2638 C2637 1.383 . S
C2638 C2639 1.377 . S
C2639 H2623 0.930 . S
C2639 C2638 1.377 . S
C2639 C2640 1.379 . S
C2640 H2624 0.931 . S
C2640 C2634 1.383 . S
C2640 C2639 1.379 . S
H2641 C2635 0.959 . S
H2642 C2635 0.961 . S
H2643 C2635 0.960 . S
H2644 C2636 0.930 . S
H2645 C2637 0.929 . S
H2646 C2654 0.929 . S
H2647 C2656 0.930 . S
H2648 C2658 0.930 . S
H2649 C2661 0.929 . S
H2650 C2664 0.930 . S
H2651 C2666 0.960 . S
H2652 C2666 0.960 . S
H2653 C2666 0.960 . S
C2654 H2646 0.929 . S
C2654 C2655 1.377 . S
C2654 C2656 1.384 . S
C2655 C2654 1.377 . S
C2655 C2661 1.390 . S
C2656 H2647 0.930 . S
C2656 C2654 1.384 . S
C2656 C2657 1.372 . S
C2657 C2656 1.372 . S
C2657 C2658 1.400 . S
C2657 C2662 1.490 . S
C2658 H2648 0.930 . S
C2658 C2657 1.400 . S
C2658 C2661 1.386 . S
H2659 C2675 0.930 . S
H2660 C2676 0.931 . S
C2661 H2649 0.929 . S
C2661 C2655 1.390 . S
C2661 C2658 1.386 . S
C2662 C2657 1.490 . S
C2662 C2664 1.395 . S
C2662 C2665 1.403 . S
H2663 C2669 0.930 . S
C2664 H2650 0.930 . S
C2664 C2662 1.395 . S
C2664 C2667 1.403 . S
C2665 C2662 1.403 . S
C2665 C2666 1.524 . S
C2665 C2669 1.400 . S
C2666 H2651 0.960 . S
C2666 H2652 0.960 . S
C2666 H2653 0.960 . S
C2666 C2665 1.524 . S
C2667 C2664 1.403 . S
C2667 C2668 1.392 . S
C2667 C2671 1.495 . S
C2668 C2667 1.392 . S
C2668 C2669 1.385 . S
C2668 C2670 1.478 . S
C2669 H2663 0.930 . S
C2669 C2665 1.400 . S
C2669 C2668 1.385 . S
C2670 C2668 1.478 . S
C2670 C2672 1.381 . S
C2670 C2676 1.383 . S
C2671 C2667 1.495 . S
C2671 H2677 0.959 . S
C2671 H2678 0.961 . S
C2671 H2679 0.960 . S
C2672 C2670 1.381 . S
C2672 C2673 1.394 . S
C2672 H2680 0.930 . S
C2673 C2672 1.394 . S
C2673 C2674 1.383 . S
C2673 H2681 0.929 . S
C2674 C2673 1.383 . S
C2674 C2675 1.377 . S
C2675 H2659 0.930 . S
C2675 C2674 1.377 . S
C2675 C2676 1.379 . S
C2676 H2660 0.931 . S
C2676 C2670 1.383 . S
C2676 C2675 1.379 . S
H2677 C2671 0.959 . S
H2678 C2671 0.961 . S
H2679 C2671 0.960 . S
H2680 C2672 0.930 . S
H2681 C2673 0.929 . S
H2682 C2690 0.929 . S
H2683 C2692 0.930 . S
H2684 C2694 0.930 . S
H2685 C2697 0.929 . S
H2686 C2700 0.930 . S
H2687 C2702 0.960 . S
H2688 C2702 0.960 . S
H2689 C2702 0.960 . S
C2690 H2682 0.929 . S
C2690 C2691 1.377 . S
C2690 C2692 1.384 . S
C2691 C2690 1.377 . S
C2691 C2697 1.390 . S
C2692 H2683 0.930 . S
C2692 C2690 1.384 . S
C2692 C2693 1.372 . S
C2693 C2692 1.372 . S
C2693 C2694 1.400 . S
C2693 C2698 1.490 . S
C2694 H2684 0.930 . S
C2694 C2693 1.400 . S
C2694 C2697 1.386 . S
H2695 C2711 0.930 . S
H2696 C2712 0.931 . S
C2697 H2685 0.929 . S
C2697 C2691 1.390 . S
C2697 C2694 1.386 . S
C2698 C2693 1.490 . S
C2698 C2700 1.395 . S
C2698 C2701 1.403 . S
H2699 C2705 0.930 . S
C2700 H2686 0.930 . S
C2700 C2698 1.395 . S
C2700 C2703 1.403 . S
C2701 C2698 1.403 . S
C2701 C2702 1.524 . S
C2701 C2705 1.400 . S
C2702 H2687 0.960 . S
C2702 H2688 0.960 . S
C2702 H2689 0.960 . S
C2702 C2701 1.524 . S
C2703 C2700 1.403 . S
C2703 C2704 1.392 . S
C2703 C2707 1.495 . S
C2704 C2703 1.392 . S
C2704 C2705 1.385 . S
C2704 C2706 1.478 . S
C2705 H2699 0.930 . S
C2705 C2701 1.400 . S
C2705 C2704 1.385 . S
C2706 C2704 1.478 . S
C2706 C2708 1.381 . S
C2706 C2712 1.383 . S
C2707 C2703 1.495 . S
C2707 H2713 0.959 . S
C2707 H2714 0.961 . S
C2707 H2715 0.960 . S
C2708 C2706 1.381 . S
C2708 C2709 1.394 . S
C2708 H2716 0.930 . S
C2709 C2708 1.394 . S
C2709 C2710 1.383 . S
C2709 H2717 0.929 . S
C2710 C2709 1.383 . S
C2710 C2711 1.377 . S
C2711 H2695 0.930 . S
C2711 C2710 1.377 . S
C2711 C2712 1.379 . S
C2712 H2696 0.931 . S
C2712 C2706 1.383 . S
C2712 C2711 1.379 . S
H2713 C2707 0.959 . S
H2714 C2707 0.961 . S
H2715 C2707 0.960 . S
H2716 C2708 0.930 . S
H2717 C2709 0.929 . S
H2718 C2726 0.929 . S
H2719 C2728 0.930 . S
H2720 C2730 0.930 . S
H2721 C2733 0.929 . S
H2722 C2736 0.930 . S
H2723 C2738 0.960 . S
H2724 C2738 0.960 . S
H2725 C2738 0.960 . S
C2726 H2718 0.929 . S
C2726 C2727 1.377 . S
C2726 C2728 1.384 . S
C2727 C2726 1.377 . S
C2727 C2733 1.390 . S
C2728 H2719 0.930 . S
C2728 C2726 1.384 . S
C2728 C2729 1.372 . S
C2729 C2728 1.372 . S
C2729 C2730 1.400 . S
C2729 C2734 1.490 . S
C2730 H2720 0.930 . S
C2730 C2729 1.400 . S
C2730 C2733 1.386 . S
H2731 C2747 0.930 . S
H2732 C2748 0.931 . S
C2733 H2721 0.929 . S
C2733 C2727 1.390 . S
C2733 C2730 1.386 . S
C2734 C2729 1.490 . S
C2734 C2736 1.395 . S
C2734 C2737 1.403 . S
H2735 C2741 0.930 . S
C2736 H2722 0.930 . S
C2736 C2734 1.395 . S
C2736 C2739 1.403 . S
C2737 C2734 1.403 . S
C2737 C2738 1.524 . S
C2737 C2741 1.400 . S
C2738 H2723 0.960 . S
C2738 H2724 0.960 . S
C2738 H2725 0.960 . S
C2738 C2737 1.524 . S
C2739 C2736 1.403 . S
C2739 C2740 1.392 . S
C2739 C2743 1.495 . S
C2740 C2739 1.392 . S
C2740 C2741 1.385 . S
C2740 C2742 1.478 . S
C2741 H2735 0.930 . S
C2741 C2737 1.400 . S
C2741 C2740 1.385 . S
C2742 C2740 1.478 . S
C2742 C2744 1.381 . S
C2742 C2748 1.383 . S
C2743 C2739 1.495 . S
C2743 H2749 0.959 . S
C2743 H2750 0.961 . S
C2743 H2751 0.960 . S
C2744 C2742 1.381 . S
C2744 C2745 1.394 . S
C2744 H2752 0.930 . S
C2745 C2744 1.394 . S
C2745 C2746 1.383 . S
C2745 H2753 0.929 . S
C2746 C2745 1.383 . S
C2746 C2747 1.377 . S
C2747 H2731 0.930 . S
C2747 C2746 1.377 . S
C2747 C2748 1.379 . S
C2748 H2732 0.931 . S
C2748 C2742 1.383 . S
C2748 C2747 1.379 . S
H2749 C2743 0.959 . S
H2750 C2743 0.961 . S
H2751 C2743 0.960 . S
H2752 C2744 0.930 . S
H2753 C2745 0.929 . S
H2754 C2762 0.929 . S
H2755 C2764 0.930 . S
H2756 C2766 0.930 . S
H2757 C2769 0.929 . S
H2758 C2772 0.930 . S
H2759 C2774 0.960 . S
H2760 C2774 0.960 . S
H2761 C2774 0.960 . S
C2762 H2754 0.929 . S
C2762 C2763 1.377 . S
C2762 C2764 1.384 . S
C2763 C2762 1.377 . S
C2763 C2769 1.390 . S
C2764 H2755 0.930 . S
C2764 C2762 1.384 . S
C2764 C2765 1.372 . S
C2765 C2764 1.372 . S
C2765 C2766 1.400 . S
C2765 C2770 1.490 . S
C2766 H2756 0.930 . S
C2766 C2765 1.400 . S
C2766 C2769 1.386 . S
H2767 C2783 0.930 . S
H2768 C2784 0.931 . S
C2769 H2757 0.929 . S
C2769 C2763 1.390 . S
C2769 C2766 1.386 . S
C2770 C2765 1.490 . S
C2770 C2772 1.395 . S
C2770 C2773 1.403 . S
H2771 C2777 0.930 . S
C2772 H2758 0.930 . S
C2772 C2770 1.395 . S
C2772 C2775 1.403 . S
C2773 C2770 1.403 . S
C2773 C2774 1.524 . S
C2773 C2777 1.400 . S
C2774 H2759 0.960 . S
C2774 H2760 0.960 . S
C2774 H2761 0.960 . S
C2774 C2773 1.524 . S
C2775 C2772 1.403 . S
C2775 C2776 1.392 . S
C2775 C2779 1.495 . S
C2776 C2775 1.392 . S
C2776 C2777 1.385 . S
C2776 C2778 1.478 . S
C2777 H2771 0.930 . S
C2777 C2773 1.400 . S
C2777 C2776 1.385 . S
C2778 C2776 1.478 . S
C2778 C2780 1.381 . S
C2778 C2784 1.383 . S
C2779 C2775 1.495 . S
C2779 H2785 0.959 . S
C2779 H2786 0.961 . S
C2779 H2787 0.960 . S
C2780 C2778 1.381 . S
C2780 C2781 1.394 . S
C2780 H2788 0.930 . S
C2781 C2780 1.394 . S
C2781 C2782 1.383 . S
C2781 H2789 0.929 . S
C2782 C2781 1.383 . S
C2782 C2783 1.377 . S
C2783 H2767 0.930 . S
C2783 C2782 1.377 . S
C2783 C2784 1.379 . S
C2784 H2768 0.931 . S
C2784 C2778 1.383 . S
C2784 C2783 1.379 . S
H2785 C2779 0.959 . S
H2786 C2779 0.961 . S
H2787 C2779 0.960 . S
H2788 C2780 0.930 . S
H2789 C2781 0.929 . S
H2790 C2798 0.929 . S
H2791 C2800 0.930 . S
H2792 C2802 0.930 . S
H2793 C2805 0.929 . S
H2794 C2808 0.930 . S
H2795 C2810 0.960 . S
H2796 C2810 0.960 . S
H2797 C2810 0.960 . S
C2798 H2790 0.929 . S
C2798 C2799 1.377 . S
C2798 C2800 1.384 . S
C2799 C2798 1.377 . S
C2799 C2805 1.390 . S
C2800 H2791 0.930 . S
C2800 C2798 1.384 . S
C2800 C2801 1.372 . S
C2801 C2800 1.372 . S
C2801 C2802 1.400 . S
C2801 C2806 1.490 . S
C2802 H2792 0.930 . S
C2802 C2801 1.400 . S
C2802 C2805 1.386 . S
H2803 C2819 0.930 . S
H2804 C2820 0.931 . S
C2805 H2793 0.929 . S
C2805 C2799 1.390 . S
C2805 C2802 1.386 . S
C2806 C2801 1.490 . S
C2806 C2808 1.395 . S
C2806 C2809 1.403 . S
H2807 C2813 0.930 . S
C2808 H2794 0.930 . S
C2808 C2806 1.395 . S
C2808 C2811 1.403 . S
C2809 C2806 1.403 . S
C2809 C2810 1.524 . S
C2809 C2813 1.400 . S
C2810 H2795 0.960 . S
C2810 H2796 0.960 . S
C2810 H2797 0.960 . S
C2810 C2809 1.524 . S
C2811 C2808 1.403 . S
C2811 C2812 1.392 . S
C2811 C2815 1.495 . S
C2812 C2811 1.392 . S
C2812 C2813 1.385 . S
C2812 C2814 1.478 . S
C2813 H2807 0.930 . S
C2813 C2809 1.400 . S
C2813 C2812 1.385 . S
C2814 C2812 1.478 . S
C2814 C2816 1.381 . S
C2814 C2820 1.383 . S
C2815 C2811 1.495 . S
C2815 H2821 0.959 . S
C2815 H2822 0.961 . S
C2815 H2823 0.960 . S
C2816 C2814 1.381 . S
C2816 C2817 1.394 . S
C2816 H2824 0.930 . S
C2817 C2816 1.394 . S
C2817 C2818 1.383 . S
C2817 H2825 0.929 . S
C2818 C2817 1.383 . S
C2818 C2819 1.377 . S
C2819 H2803 0.930 . S
C2819 C2818 1.377 . S
C2819 C2820 1.379 . S
C2820 H2804 0.931 . S
C2820 C2814 1.383 . S
C2820 C2819 1.379 . S
H2821 C2815 0.959 . S
H2822 C2815 0.961 . S
H2823 C2815 0.960 . S
H2824 C2816 0.930 . S
H2825 C2817 0.929 . S
H2826 C2834 0.929 . S
H2827 C2836 0.930 . S
H2828 C2838 0.930 . S
H2829 C2841 0.929 . S
H2830 C2844 0.930 . S
H2831 C2846 0.960 . S
H2832 C2846 0.960 . S
H2833 C2846 0.960 . S
C2834 H2826 0.929 . S
C2834 C2835 1.377 . S
C2834 C2836 1.384 . S
C2835 C2834 1.377 . S
C2835 C2841 1.390 . S
C2836 H2827 0.930 . S
C2836 C2834 1.384 . S
C2836 C2837 1.372 . S
C2837 C2836 1.372 . S
C2837 C2838 1.400 . S
C2837 C2842 1.490 . S
C2838 H2828 0.930 . S
C2838 C2837 1.400 . S
C2838 C2841 1.386 . S
H2839 C2855 0.930 . S
H2840 C2856 0.931 . S
C2841 H2829 0.929 . S
C2841 C2835 1.390 . S
C2841 C2838 1.386 . S
C2842 C2837 1.490 . S
C2842 C2844 1.395 . S
C2842 C2845 1.403 . S
H2843 C2849 0.930 . S
C2844 H2830 0.930 . S
C2844 C2842 1.395 . S
C2844 C2847 1.403 . S
C2845 C2842 1.403 . S
C2845 C2846 1.524 . S
C2845 C2849 1.400 . S
C2846 H2831 0.960 . S
C2846 H2832 0.960 . S
C2846 H2833 0.960 . S
C2846 C2845 1.524 . S
C2847 C2844 1.403 . S
C2847 C2848 1.392 . S
C2847 C2851 1.495 . S
C2848 C2847 1.392 . S
C2848 C2849 1.385 . S
C2848 C2850 1.478 . S
C2849 H2843 0.930 . S
C2849 C2845 1.400 . S
C2849 C2848 1.385 . S
C2850 C2848 1.478 . S
C2850 C2852 1.381 . S
C2850 C2856 1.383 . S
C2851 C2847 1.495 . S
C2851 H2857 0.959 . S
C2851 H2858 0.961 . S
C2851 H2859 0.960 . S
C2852 C2850 1.381 . S
C2852 C2853 1.394 . S
C2852 H2860 0.930 . S
C2853 C2852 1.394 . S
C2853 C2854 1.383 . S
C2853 H2861 0.929 . S
C2854 C2853 1.383 . S
C2854 C2855 1.377 . S
C2855 H2839 0.930 . S
C2855 C2854 1.377 . S
C2855 C2856 1.379 . S
C2856 H2840 0.931 . S
C2856 C2850 1.383 . S
C2856 C2855 1.379 . S
H2857 C2851 0.959 . S
H2858 C2851 0.961 . S
H2859 C2851 0.960 . S
H2860 C2852 0.930 . S
H2861 C2853 0.929 . S
H2862 C2870 0.929 . S
H2863 C2872 0.930 . S
H2864 C2874 0.930 . S
H2865 C2877 0.929 . S
H2866 C2880 0.930 . S
H2867 C2882 0.960 . S
H2868 C2882 0.960 . S
H2869 C2882 0.960 . S
C2870 H2862 0.929 . S
C2870 C2871 1.377 . S
C2870 C2872 1.384 . S
C2871 C2870 1.377 . S
C2871 C2877 1.390 . S
C2872 H2863 0.930 . S
C2872 C2870 1.384 . S
C2872 C2873 1.372 . S
C2873 C2872 1.372 . S
C2873 C2874 1.400 . S
C2873 C2878 1.490 . S
C2874 H2864 0.930 . S
C2874 C2873 1.400 . S
C2874 C2877 1.386 . S
H2875 C2891 0.930 . S
H2876 C2892 0.931 . S
C2877 H2865 0.929 . S
C2877 C2871 1.390 . S
C2877 C2874 1.386 . S
C2878 C2873 1.490 . S
C2878 C2880 1.395 . S
C2878 C2881 1.403 . S
H2879 C2885 0.930 . S
C2880 H2866 0.930 . S
C2880 C2878 1.395 . S
C2880 C2883 1.403 . S
C2881 C2878 1.403 . S
C2881 C2882 1.524 . S
C2881 C2885 1.400 . S
C2882 H2867 0.960 . S
C2882 H2868 0.960 . S
C2882 H2869 0.960 . S
C2882 C2881 1.524 . S
C2883 C2880 1.403 . S
C2883 C2884 1.392 . S
C2883 C2887 1.495 . S
C2884 C2883 1.392 . S
C2884 C2885 1.385 . S
C2884 C2886 1.478 . S
C2885 H2879 0.930 . S
C2885 C2881 1.400 . S
C2885 C2884 1.385 . S
C2886 C2884 1.478 . S
C2886 C2888 1.381 . S
C2886 C2892 1.383 . S
C2887 C2883 1.495 . S
C2887 H2893 0.959 . S
C2887 H2894 0.961 . S
C2887 H2895 0.960 . S
C2888 C2886 1.381 . S
C2888 C2889 1.394 . S
C2888 H2896 0.930 . S
C2889 C2888 1.394 . S
C2889 C2890 1.383 . S
C2889 H2897 0.929 . S
C2890 C2889 1.383 . S
C2890 C2891 1.377 . S
C2891 H2875 0.930 . S
C2891 C2890 1.377 . S
C2891 C2892 1.379 . S
C2892 H2876 0.931 . S
C2892 C2886 1.383 . S
C2892 C2891 1.379 . S
H2893 C2887 0.959 . S
H2894 C2887 0.961 . S
H2895 C2887 0.960 . S
H2896 C2888 0.930 . S
H2897 C2889 0.929 . S
H2898 C2906 0.929 . S
H2899 C2908 0.930 . S
H2900 C2910 0.930 . S
H2901 C2913 0.929 . S
H2902 C2916 0.930 . S
H2903 C2918 0.960 . S
H2904 C2918 0.960 . S
H2905 C2918 0.960 . S
C2906 H2898 0.929 . S
C2906 C2907 1.377 . S
C2906 C2908 1.384 . S
C2907 C2906 1.377 . S
C2907 C2913 1.390 . S
C2908 H2899 0.930 . S
C2908 C2906 1.384 . S
C2908 C2909 1.372 . S
C2909 C2908 1.372 . S
C2909 C2910 1.400 . S
C2909 C2914 1.490 . S
C2910 H2900 0.930 . S
C2910 C2909 1.400 . S
C2910 C2913 1.386 . S
H2911 C2927 0.930 . S
H2912 C2928 0.931 . S
C2913 H2901 0.929 . S
C2913 C2907 1.390 . S
C2913 C2910 1.386 . S
C2914 C2909 1.490 . S
C2914 C2916 1.395 . S
C2914 C2917 1.403 . S
H2915 C2921 0.930 . S
C2916 H2902 0.930 . S
C2916 C2914 1.395 . S
C2916 C2919 1.403 . S
C2917 C2914 1.403 . S
C2917 C2918 1.524 . S
C2917 C2921 1.400 . S
C2918 H2903 0.960 . S
C2918 H2904 0.960 . S
C2918 H2905 0.960 . S
C2918 C2917 1.524 . S
C2919 C2916 1.403 . S
C2919 C2920 1.392 . S
C2919 C2923 1.495 . S
C2920 C2919 1.392 . S
C2920 C2921 1.385 . S
C2920 C2922 1.478 . S
C2921 H2915 0.930 . S
C2921 C2917 1.400 . S
C2921 C2920 1.385 . S
C2922 C2920 1.478 . S
C2922 C2924 1.381 . S
C2922 C2928 1.383 . S
C2923 C2919 1.495 . S
C2923 H2929 0.959 . S
C2923 H2930 0.961 . S
C2923 H2931 0.960 . S
C2924 C2922 1.381 . S
C2924 C2925 1.394 . S
C2924 H2932 0.930 . S
C2925 C2924 1.394 . S
C2925 C2926 1.383 . S
C2925 H2933 0.929 . S
C2926 C2925 1.383 . S
C2926 C2927 1.377 . S
C2927 H2911 0.930 . S
C2927 C2926 1.377 . S
C2927 C2928 1.379 . S
C2928 H2912 0.931 . S
C2928 C2922 1.383 . S
C2928 C2927 1.379 . S
H2929 C2923 0.959 . S
H2930 C2923 0.961 . S
H2931 C2923 0.960 . S
H2932 C2924 0.930 . S
H2933 C2925 0.929 . S
H2934 C2942 0.929 . S
H2935 C2944 0.930 . S
H2936 C2946 0.930 . S
H2937 C2949 0.929 . S
H2938 C2952 0.930 . S
H2939 C2954 0.960 . S
H2940 C2954 0.960 . S
H2941 C2954 0.960 . S
C2942 H2934 0.929 . S
C2942 C2943 1.377 . S
C2942 C2944 1.384 . S
C2943 C2942 1.377 . S
C2943 C2949 1.390 . S
C2944 H2935 0.930 . S
C2944 C2942 1.384 . S
C2944 C2945 1.372 . S
C2945 C2944 1.372 . S
C2945 C2946 1.400 . S
C2945 C2950 1.490 . S
C2946 H2936 0.930 . S
C2946 C2945 1.400 . S
C2946 C2949 1.386 . S
H2947 C2963 0.930 . S
H2948 C2964 0.931 . S
C2949 H2937 0.929 . S
C2949 C2943 1.390 . S
C2949 C2946 1.386 . S
C2950 C2945 1.490 . S
C2950 C2952 1.395 . S
C2950 C2953 1.403 . S
H2951 C2957 0.930 . S
C2952 H2938 0.930 . S
C2952 C2950 1.395 . S
C2952 C2955 1.403 . S
C2953 C2950 1.403 . S
C2953 C2954 1.524 . S
C2953 C2957 1.400 . S
C2954 H2939 0.960 . S
C2954 H2940 0.960 . S
C2954 H2941 0.960 . S
C2954 C2953 1.524 . S
C2955 C2952 1.403 . S
C2955 C2956 1.392 . S
C2955 C2959 1.495 . S
C2956 C2955 1.392 . S
C2956 C2957 1.385 . S
C2956 C2958 1.478 . S
C2957 H2951 0.930 . S
C2957 C2953 1.400 . S
C2957 C2956 1.385 . S
C2958 C2956 1.478 . S
C2958 C2960 1.381 . S
C2958 C2964 1.383 . S
C2959 C2955 1.495 . S
C2959 H2965 0.959 . S
C2959 H2966 0.961 . S
C2959 H2967 0.960 . S
C2960 C2958 1.381 . S
C2960 C2961 1.394 . S
C2960 H2968 0.930 . S
C2961 C2960 1.394 . S
C2961 C2962 1.383 . S
C2961 H2969 0.929 . S
C2962 C2961 1.383 . S
C2962 C2963 1.377 . S
C2963 H2947 0.930 . S
C2963 C2962 1.377 . S
C2963 C2964 1.379 . S
C2964 H2948 0.931 . S
C2964 C2958 1.383 . S
C2964 C2963 1.379 . S
H2965 C2959 0.959 . S
H2966 C2959 0.961 . S
H2967 C2959 0.960 . S
H2968 C2960 0.930 . S
H2969 C2961 0.929 . S
H2970 C2978 0.929 . S
H2971 C2980 0.930 . S
H2972 C2982 0.930 . S
H2973 C2985 0.929 . S
H2974 C2988 0.930 . S
H2975 C2990 0.960 . S
H2976 C2990 0.960 . S
H2977 C2990 0.960 . S
C2978 H2970 0.929 . S
C2978 C2979 1.377 . S
C2978 C2980 1.384 . S
C2979 C2978 1.377 . S
C2979 C2985 1.390 . S
C2980 H2971 0.930 . S
C2980 C2978 1.384 . S
C2980 C2981 1.372 . S
C2981 C2980 1.372 . S
C2981 C2982 1.400 . S
C2981 C2986 1.490 . S
C2982 H2972 0.930 . S
C2982 C2981 1.400 . S
C2982 C2985 1.386 . S
H2983 C2999 0.930 . S
H2984 C3000 0.931 . S
C2985 H2973 0.929 . S
C2985 C2979 1.390 . S
C2985 C2982 1.386 . S
C2986 C2981 1.490 . S
C2986 C2988 1.395 . S
C2986 C2989 1.403 . S
H2987 C2993 0.930 . S
C2988 H2974 0.930 . S
C2988 C2986 1.395 . S
C2988 C2991 1.403 . S
C2989 C2986 1.403 . S
C2989 C2990 1.524 . S
C2989 C2993 1.400 . S
C2990 H2975 0.960 . S
C2990 H2976 0.960 . S
C2990 H2977 0.960 . S
C2990 C2989 1.524 . S
C2991 C2988 1.403 . S
C2991 C2992 1.392 . S
C2991 C2995 1.495 . S
C2992 C2991 1.392 . S
C2992 C2993 1.385 . S
C2992 C2994 1.478 . S
C2993 H2987 0.930 . S
C2993 C2989 1.400 . S
C2993 C2992 1.385 . S
C2994 C2992 1.478 . S
C2994 C2996 1.381 . S
C2994 C3000 1.383 . S
C2995 C2991 1.495 . S
C2995 H3001 0.959 . S
C2995 H3002 0.961 . S
C2995 H3003 0.960 . S
C2996 C2994 1.381 . S
C2996 C2997 1.394 . S
C2996 H3004 0.930 . S
C2997 C2996 1.394 . S
C2997 C2998 1.383 . S
C2997 H3005 0.929 . S
C2998 C2997 1.383 . S
C2998 C2999 1.377 . S
C2999 H2983 0.930 . S
C2999 C2998 1.377 . S
C2999 C3000 1.379 . S
C3000 H2984 0.931 . S
C3000 C2994 1.383 . S
C3000 C2999 1.379 . S
H3001 C2995 0.959 . S
H3002 C2995 0.961 . S
H3003 C2995 0.960 . S
H3004 C2996 0.930 . S
H3005 C2997 0.929 . S
H3006 C3014 0.929 . S
H3007 C3016 0.930 . S
H3008 C3018 0.930 . S
H3009 C3021 0.929 . S
H3010 C3024 0.930 . S
H3011 C3026 0.960 . S
H3012 C3026 0.960 . S
H3013 C3026 0.960 . S
C3014 H3006 0.929 . S
C3014 C3015 1.377 . S
C3014 C3016 1.384 . S
C3015 C3014 1.377 . S
C3015 C3021 1.390 . S
C3016 H3007 0.930 . S
C3016 C3014 1.384 . S
C3016 C3017 1.372 . S
C3017 C3016 1.372 . S
C3017 C3018 1.400 . S
C3017 C3022 1.490 . S
C3018 H3008 0.930 . S
C3018 C3017 1.400 . S
C3018 C3021 1.386 . S
H3019 C3035 0.930 . S
H3020 C3036 0.931 . S
C3021 H3009 0.929 . S
C3021 C3015 1.390 . S
C3021 C3018 1.386 . S
C3022 C3017 1.490 . S
C3022 C3024 1.395 . S
C3022 C3025 1.403 . S
H3023 C3029 0.930 . S
C3024 H3010 0.930 . S
C3024 C3022 1.395 . S
C3024 C3027 1.403 . S
C3025 C3022 1.403 . S
C3025 C3026 1.524 . S
C3025 C3029 1.400 . S
C3026 H3011 0.960 . S
C3026 H3012 0.960 . S
C3026 H3013 0.960 . S
C3026 C3025 1.524 . S
C3027 C3024 1.403 . S
C3027 C3028 1.392 . S
C3027 C3031 1.495 . S
C3028 C3027 1.392 . S
C3028 C3029 1.385 . S
C3028 C3030 1.478 . S
C3029 H3023 0.930 . S
C3029 C3025 1.400 . S
C3029 C3028 1.385 . S
C3030 C3028 1.478 . S
C3030 C3032 1.381 . S
C3030 C3036 1.383 . S
C3031 C3027 1.495 . S
C3031 H3037 0.959 . S
C3031 H3038 0.961 . S
C3031 H3039 0.960 . S
C3032 C3030 1.381 . S
C3032 C3033 1.394 . S
C3032 H3040 0.930 . S
C3033 C3032 1.394 . S
C3033 C3034 1.383 . S
C3033 H3041 0.929 . S
C3034 C3033 1.383 . S
C3034 C3035 1.377 . S
C3035 H3019 0.930 . S
C3035 C3034 1.377 . S
C3035 C3036 1.379 . S
C3036 H3020 0.931 . S
C3036 C3030 1.383 . S
C3036 C3035 1.379 . S
H3037 C3031 0.959 . S
H3038 C3031 0.961 . S
H3039 C3031 0.960 . S
H3040 C3032 0.930 . S
H3041 C3033 0.929 . S
H3042 C3050 0.929 . S
H3043 C3052 0.930 . S
H3044 C3054 0.930 . S
H3045 C3057 0.929 . S
H3046 C3060 0.930 . S
H3047 C3062 0.960 . S
H3048 C3062 0.960 . S
H3049 C3062 0.960 . S
C3050 H3042 0.929 . S
C3050 C3051 1.377 . S
C3050 C3052 1.384 . S
C3051 C3050 1.377 . S
C3051 C3057 1.390 . S
C3052 H3043 0.930 . S
C3052 C3050 1.384 . S
C3052 C3053 1.372 . S
C3053 C3052 1.372 . S
C3053 C3054 1.400 . S
C3053 C3058 1.490 . S
C3054 H3044 0.930 . S
C3054 C3053 1.400 . S
C3054 C3057 1.386 . S
H3055 C3071 0.930 . S
H3056 C3072 0.931 . S
C3057 H3045 0.929 . S
C3057 C3051 1.390 . S
C3057 C3054 1.386 . S
C3058 C3053 1.490 . S
C3058 C3060 1.395 . S
C3058 C3061 1.403 . S
H3059 C3065 0.930 . S
C3060 H3046 0.930 . S
C3060 C3058 1.395 . S
C3060 C3063 1.403 . S
C3061 C3058 1.403 . S
C3061 C3062 1.524 . S
C3061 C3065 1.400 . S
C3062 H3047 0.960 . S
C3062 H3048 0.960 . S
C3062 H3049 0.960 . S
C3062 C3061 1.524 . S
C3063 C3060 1.403 . S
C3063 C3064 1.392 . S
C3063 C3067 1.495 . S
C3064 C3063 1.392 . S
C3064 C3065 1.385 . S
C3064 C3066 1.478 . S
C3065 H3059 0.930 . S
C3065 C3061 1.400 . S
C3065 C3064 1.385 . S
C3066 C3064 1.478 . S
C3066 C3068 1.381 . S
C3066 C3072 1.383 . S
C3067 C3063 1.495 . S
C3067 H3073 0.959 . S
C3067 H3074 0.961 . S
C3067 H3075 0.960 . S
C3068 C3066 1.381 . S
C3068 C3069 1.394 . S
C3068 H3076 0.930 . S
C3069 C3068 1.394 . S
C3069 C3070 1.383 . S
C3069 H3077 0.929 . S
C3070 C3069 1.383 . S
C3070 C3071 1.377 . S
C3071 H3055 0.930 . S
C3071 C3070 1.377 . S
C3071 C3072 1.379 . S
C3072 H3056 0.931 . S
C3072 C3066 1.383 . S
C3072 C3071 1.379 . S
H3073 C3067 0.959 . S
H3074 C3067 0.961 . S
H3075 C3067 0.960 . S
H3076 C3068 0.930 . S
H3077 C3069 0.929 . S
H3078 C3086 0.929 . S
H3079 C3088 0.930 . S
H3080 C3090 0.930 . S
H3081 C3093 0.929 . S
H3082 C3096 0.930 . S
H3083 C3098 0.960 . S
H3084 C3098 0.960 . S
H3085 C3098 0.960 . S
C3086 H3078 0.929 . S
C3086 C3087 1.377 . S
C3086 C3088 1.384 . S
C3087 C3086 1.377 . S
C3087 C3093 1.390 . S
C3088 H3079 0.930 . S
C3088 C3086 1.384 . S
C3088 C3089 1.372 . S
C3089 C3088 1.372 . S
C3089 C3090 1.400 . S
C3089 C3094 1.490 . S
C3090 H3080 0.930 . S
C3090 C3089 1.400 . S
C3090 C3093 1.386 . S
H3091 C3107 0.930 . S
H3092 C3108 0.931 . S
C3093 H3081 0.929 . S
C3093 C3087 1.390 . S
C3093 C3090 1.386 . S
C3094 C3089 1.490 . S
C3094 C3096 1.395 . S
C3094 C3097 1.403 . S
H3095 C3101 0.930 . S
C3096 H3082 0.930 . S
C3096 C3094 1.395 . S
C3096 C3099 1.403 . S
C3097 C3094 1.403 . S
C3097 C3098 1.524 . S
C3097 C3101 1.400 . S
C3098 H3083 0.960 . S
C3098 H3084 0.960 . S
C3098 H3085 0.960 . S
C3098 C3097 1.524 . S
C3099 C3096 1.403 . S
C3099 C3100 1.392 . S
C3099 C3103 1.495 . S
C3100 C3099 1.392 . S
C3100 C3101 1.385 . S
C3100 C3102 1.478 . S
C3101 H3095 0.930 . S
C3101 C3097 1.400 . S
C3101 C3100 1.385 . S
C3102 C3100 1.478 . S
C3102 C3104 1.381 . S
C3102 C3108 1.383 . S
C3103 C3099 1.495 . S
C3103 H3109 0.959 . S
C3103 H3110 0.961 . S
C3103 H3111 0.960 . S
C3104 C3102 1.381 . S
C3104 C3105 1.394 . S
C3104 H3112 0.930 . S
C3105 C3104 1.394 . S
C3105 C3106 1.383 . S
C3105 H3113 0.929 . S
C3106 C3105 1.383 . S
C3106 C3107 1.377 . S
C3107 H3091 0.930 . S
C3107 C3106 1.377 . S
C3107 C3108 1.379 . S
C3108 H3092 0.931 . S
C3108 C3102 1.383 . S
C3108 C3107 1.379 . S
H3109 C3103 0.959 . S
H3110 C3103 0.961 . S
H3111 C3103 0.960 . S
H3112 C3104 0.930 . S
H3113 C3105 0.929 . S
H3114 C3122 0.929 . S
H3115 C3124 0.930 . S
H3116 C3126 0.930 . S
H3117 C3129 0.929 . S
H3118 C3132 0.930 . S
H3119 C3134 0.960 . S
H3120 C3134 0.960 . S
H3121 C3134 0.960 . S
C3122 H3114 0.929 . S
C3122 C3123 1.377 . S
C3122 C3124 1.384 . S
C3123 C3122 1.377 . S
C3123 C3129 1.390 . S
C3124 H3115 0.930 . S
C3124 C3122 1.384 . S
C3124 C3125 1.372 . S
C3125 C3124 1.372 . S
C3125 C3126 1.400 . S
C3125 C3130 1.490 . S
C3126 H3116 0.930 . S
C3126 C3125 1.400 . S
C3126 C3129 1.386 . S
H3127 C3143 0.930 . S
H3128 C3144 0.931 . S
C3129 H3117 0.929 . S
C3129 C3123 1.390 . S
C3129 C3126 1.386 . S
C3130 C3125 1.490 . S
C3130 C3132 1.395 . S
C3130 C3133 1.403 . S
H3131 C3137 0.930 . S
C3132 H3118 0.930 . S
C3132 C3130 1.395 . S
C3132 C3135 1.403 . S
C3133 C3130 1.403 . S
C3133 C3134 1.524 . S
C3133 C3137 1.400 . S
C3134 H3119 0.960 . S
C3134 H3120 0.960 . S
C3134 H3121 0.960 . S
C3134 C3133 1.524 . S
C3135 C3132 1.403 . S
C3135 C3136 1.392 . S
C3135 C3139 1.495 . S
C3136 C3135 1.392 . S
C3136 C3137 1.385 . S
C3136 C3138 1.478 . S
C3137 H3131 0.930 . S
C3137 C3133 1.400 . S
C3137 C3136 1.385 . S
C3138 C3136 1.478 . S
C3138 C3140 1.381 . S
C3138 C3144 1.383 . S
C3139 C3135 1.495 . S
C3139 H3145 0.959 . S
C3139 H3146 0.961 . S
C3139 H3147 0.960 . S
C3140 C3138 1.381 . S
C3140 C3141 1.394 . S
C3140 H3148 0.930 . S
C3141 C3140 1.394 . S
C3141 C3142 1.383 . S
C3141 H3149 0.929 . S
C3142 C3141 1.383 . S
C3142 C3143 1.377 . S
C3143 H3127 0.930 . S
C3143 C3142 1.377 . S
C3143 C3144 1.379 . S
C3144 H3128 0.931 . S
C3144 C3138 1.383 . S
C3144 C3143 1.379 . S
H3145 C3139 0.959 . S
H3146 C3139 0.961 . S
H3147 C3139 0.960 . S
H3148 C3140 0.930 . S
H3149 C3141 0.929 . S
H3150 C3158 0.929 . S
H3151 C3160 0.930 . S
H3152 C3162 0.930 . S
H3153 C3165 0.929 . S
H3154 C3168 0.930 . S
H3155 C3170 0.960 . S
H3156 C3170 0.960 . S
H3157 C3170 0.960 . S
C3158 H3150 0.929 . S
C3158 C3159 1.377 . S
C3158 C3160 1.384 . S
C3159 C3158 1.377 . S
C3159 C3165 1.390 . S
C3160 H3151 0.930 . S
C3160 C3158 1.384 . S
C3160 C3161 1.372 . S
C3161 C3160 1.372 . S
C3161 C3162 1.400 . S
C3161 C3166 1.490 . S
C3162 H3152 0.930 . S
C3162 C3161 1.400 . S
C3162 C3165 1.386 . S
H3163 C3179 0.930 . S
H3164 C3180 0.931 . S
C3165 H3153 0.929 . S
C3165 C3159 1.390 . S
C3165 C3162 1.386 . S
C3166 C3161 1.490 . S
C3166 C3168 1.395 . S
C3166 C3169 1.403 . S
H3167 C3173 0.930 . S
C3168 H3154 0.930 . S
C3168 C3166 1.395 . S
C3168 C3171 1.403 . S
C3169 C3166 1.403 . S
C3169 C3170 1.524 . S
C3169 C3173 1.400 . S
C3170 H3155 0.960 . S
C3170 H3156 0.960 . S
C3170 H3157 0.960 . S
C3170 C3169 1.524 . S
C3171 C3168 1.403 . S
C3171 C3172 1.392 . S
C3171 C3175 1.489 1_554 S
C3172 C3171 1.392 . S
C3172 C3173 1.385 . S
C3172 C3174 1.478 . S
C3173 H3167 0.930 . S
C3173 C3169 1.400 . S
C3173 C3172 1.385 . S
C3174 C3172 1.478 . S
C3174 C3176 1.381 1_554 S
C3174 C3180 1.383 . S
C3175 C3171 1.489 1_556 S
C3175 H3181 0.958 1_556 S
C3175 H3182 0.963 . S
C3175 H3183 0.965 . S
C3176 C3174 1.381 1_556 S
C3176 C3177 1.394 . S
C3176 H3184 0.930 . S
C3177 C3176 1.394 . S
C3177 C3178 1.383 . S
C3177 H3185 0.929 . S
C3178 C3177 1.383 . S
C3178 C3179 1.377 . S
C3179 H3163 0.930 . S
C3179 C3178 1.377 . S
C3179 C3180 1.379 1_556 S
C3180 H3164 0.931 . S
C3180 C3174 1.383 . S
C3180 C3179 1.379 1_554 S
H3181 C3175 0.958 1_554 S
H3182 C3175 0.963 . S
H3183 C3175 0.965 . S
H3184 C3176 0.930 . S
H3185 C3177 0.929 . S
H3186 C3194 0.929 . S
H3187 C3196 0.930 . S
H3188 C3198 0.930 . S
H3189 C3201 0.929 . S
H3190 C3204 0.930 . S
H3191 C3206 0.960 . S
H3192 C3206 0.960 . S
H3193 C3206 0.960 . S
C3194 H3186 0.929 . S
C3194 C3195 1.377 . S
C3194 C3196 1.384 . S
C3195 C3194 1.377 . S
C3195 C3201 1.390 . S
C3196 H3187 0.930 . S
C3196 C3194 1.384 . S
C3196 C3197 1.372 . S
C3197 C3196 1.372 . S
C3197 C3198 1.400 . S
C3197 C3202 1.490 . S
C3198 H3188 0.930 . S
C3198 C3197 1.400 . S
C3198 C3201 1.386 . S
H3199 C3215 0.930 1_556 S
H3200 C3216 0.931 . S
C3201 H3189 0.929 . S
C3201 C3195 1.390 . S
C3201 C3198 1.386 . S
C3202 C3197 1.490 . S
C3202 C3204 1.395 . S
C3202 C3205 1.403 . S
H3203 C3209 0.930 . S
C3204 H3190 0.930 . S
C3204 C3202 1.395 . S
C3204 C3207 1.403 . S
C3205 C3202 1.403 . S
C3205 C3206 1.524 . S
C3205 C3209 1.400 . S
C3206 H3191 0.960 . S
C3206 H3192 0.960 . S
C3206 H3193 0.960 . S
C3206 C3205 1.524 . S
C3207 C3204 1.403 . S
C3207 C3208 1.392 . S
C3207 C3211 1.495 . S
C3208 C3207 1.392 . S
C3208 C3209 1.385 . S
C3208 C3210 1.478 . S
C3209 H3203 0.930 . S
C3209 C3205 1.400 . S
C3209 C3208 1.385 . S
C3210 C3208 1.478 . S
C3210 C3212 1.381 . S
C3210 C3216 1.383 . S
C3211 C3207 1.495 . S
C3211 H3217 0.959 . S
C3211 H3218 0.961 . S
C3211 H3219 0.960 . S
C3212 C3210 1.381 . S
C3212 C3213 1.394 . S
C3212 H3220 0.930 . S
C3213 C3212 1.394 . S
C3213 C3214 1.383 1_554 S
C3213 H3221 0.929 1_554 S
C3214 C3213 1.383 1_556 S
C3214 C3215 1.377 1_556 S
C3215 H3199 0.930 1_554 S
C3215 C3214 1.377 1_554 S
C3215 C3216 1.379 . S
C3216 H3200 0.931 . S
C3216 C3210 1.383 . S
C3216 C3215 1.379 . S
H3217 C3211 0.959 . S
H3218 C3211 0.961 . S
H3219 C3211 0.960 . S
H3220 C3212 0.930 . S
H3221 C3213 0.929 1_556 S
H3222 C3230 0.929 . S
H3223 C3232 0.930 . S
H3224 C3234 0.930 . S
H3225 C3237 0.929 . S
H3226 C3240 0.930 . S
H3227 C3242 0.960 . S
H3228 C3242 0.960 . S
H3229 C3242 0.960 . S
C3230 H3222 0.929 . S
C3230 C3231 1.377 . S
C3230 C3232 1.384 . S
C3231 C3230 1.377 . S
C3231 C3237 1.390 . S
C3232 H3223 0.930 . S
C3232 C3230 1.384 . S
C3232 C3233 1.372 . S
C3233 C3232 1.372 . S
C3233 C3234 1.400 . S
C3233 C3238 1.490 . S
C3234 H3224 0.930 . S
C3234 C3233 1.400 . S
C3234 C3237 1.386 . S
H3235 C3251 0.930 . S
H3236 C3252 0.931 . S
C3237 H3225 0.929 . S
C3237 C3231 1.390 . S
C3237 C3234 1.386 . S
C3238 C3233 1.490 . S
C3238 C3240 1.395 . S
C3238 C3241 1.403 . S
H3239 C3245 0.930 . S
C3240 H3226 0.930 . S
C3240 C3238 1.395 . S
C3240 C3243 1.403 . S
C3241 C3238 1.403 . S
C3241 C3242 1.524 . S
C3241 C3245 1.400 . S
C3242 H3227 0.960 . S
C3242 H3228 0.960 . S
C3242 H3229 0.960 . S
C3242 C3241 1.524 . S
C3243 C3240 1.403 . S
C3243 C3244 1.392 . S
C3243 C3247 1.495 . S
C3244 C3243 1.392 . S
C3244 C3245 1.385 . S
C3244 C3246 1.478 . S
C3245 H3239 0.930 . S
C3245 C3241 1.400 . S
C3245 C3244 1.385 . S
C3246 C3244 1.478 . S
C3246 C3248 1.381 1_554 S
C3246 C3252 1.383 . S
C3247 C3243 1.495 . S
C3247 H3253 0.959 . S
C3247 H3254 0.961 . S
C3247 H3255 0.960 1_554 S
C3248 C3246 1.381 1_556 S
C3248 C3249 1.394 . S
C3248 H3256 0.930 . S
C3249 C3248 1.394 . S
C3249 C3250 1.383 . S
C3249 H3257 0.929 . S
C3250 C3249 1.383 . S
C3250 C3251 1.377 . S
C3251 H3235 0.930 . S
C3251 C3250 1.377 . S
C3251 C3252 1.379 1_556 S
C3252 H3236 0.931 . S
C3252 C3246 1.383 . S
C3252 C3251 1.379 1_554 S
H3253 C3247 0.959 . S
H3254 C3247 0.961 . S
H3255 C3247 0.960 1_556 S
H3256 C3248 0.930 . S
H3257 C3249 0.929 . S
C675 C7 1.439 . S
C694 C568 1.432 . S
C730 C545 1.812 . S
C711 C39 1.795 . S
C766 C554 1.576 . S
C747 C62 1.564 . S
C783 C76 1.829 . S
C802 C624 1.820 . S
C819 C108 1.513 . S
C838 C643 1.509 . S
C855 N117 1.371 . S
C874 C657 1.378 . S
C910 C619 1.424 . S
C891 C16 1.408 . S
C927 C30 1.839 . S
C946 C587 1.840 . S
C982 C605 1.534 . S
C963 C53 1.539 1_556 S
C999 C85 1.810 . S
C1018 C507 1.802 . S
C1054 C517 1.714 . S
C1035 C99 1.709 . S
C1071 N127 1.285 . S
C1090 C531 1.326 . S
C1107 N150 1.161 . S
C1126 C652 1.174 . S
C1162 C629 1.589 . S
C1143 N173 1.564 . S
C1198 C638 1.425 . S
C1179 C200 1.399 . S
C1215 C214 1.660 . S
C1234 C456 1.666 . S
C1251 N232 1.554 . S
C1270 C475 1.567 . S
C1287 C260 1.532 . S
C1306 C489 1.543 . S
C1342 C451 1.271 . S
C1323 N140 1.227 . S
C1359 N163 1.297 . S
C1378 C419 1.343 . S
C1414 C437 1.618 . S
C1395 C191 1.616 . S
C1450 C591 1.904 . S
C1431 C223 1.910 . S
C1486 C601 1.512 . S
C1467 N242 1.460 . S
C1522 C615 1.485 . S
C1503 C269 1.490 . S
C1539 N288 1.297 . S
C1558 C484 1.308 . S
C1575 C315 1.546 . S
C1594 C461 1.593 . S
C1611 C338 1.634 . S
C1630 C470 1.657 . S
C1647 C352 1.848 . S
C1666 C540 1.845 . S
C1702 C559 1.614 . S
C1683 N370 1.603 . S
C1738 C573 1.600 . S
C1719 C398 1.594 . S
C1774 C535 1.229 . S
C1755 N278 1.182 . S
C1791 C306 1.744 . S
C1810 C503 1.750 . S
C1827 C329 1.640 . S
C1846 C521 1.635 . S
C1882 C423 1.544 . S
C1863 C361 1.562 . S
C1899 N380 1.503 . S
C1918 C433 1.552 . S
C1954 C447 1.466 . S
C1935 C407 1.466 . S
C1990 C467 1.373 . S
C1971 N12 1.346 . S
C2007 N25 1.566 . S
C2026 C479 1.572 . S
C2062 C493 1.320 . S
C2043 N48 1.306 . S
C2098 C495 1.312 . S
C2079 N81 1.309 . S
C2134 C465 1.532 . S
C2115 N94 1.500 . S
C2170 C481 1.554 . S
C2151 C131 1.534 . S
C2206 C425 1.382 . S
C2187 N2 1.373 . S
C2223 N35 1.487 . S
C2242 C428 1.502 . S
C2259 N58 1.265 . S
C2278 C442 1.275 . S
C2314 C453 1.258 . S
C2295 N71 1.228 . S
C2350 C414 1.366 . S
C2331 N104 1.355 . S
C2386 C439 1.568 . S
C2367 C122 1.573 . S
C2403 C145 1.977 . S
C2422 C551 1.981 . S
C2439 C168 1.728 . S
C2458 C563 1.720 . S
C2475 N186 1.419 . S
C2494 C577 1.421 . S
C2530 C579 1.349 . S
C2511 N219 1.331 . S
C2566 C549 1.791 . S
C2547 C246 1.777 . S
C2602 C565 1.461 . S
C2583 N265 1.445 . S
C2638 C509 1.857 . S
C2619 C154 1.880 . S
C2655 C177 1.826 . S
C2674 C512 1.811 . S
C2691 N196 1.261 . S
C2710 C526 1.295 . S
C2727 N209 1.130 . S
C2746 C537 1.167 . S
C2763 C237 1.814 . S
C2782 C498 1.784 . S
C2818 C523 1.420 . S
C2799 N255 1.378 . S
C2835 C283 1.753 . S
C2854 C635 1.752 . S
C2871 N301 1.447 . S
C2890 C647 1.465 . S
C2907 N324 1.293 . S
C2926 C661 1.311 . S
C2962 C663 1.156 . S
C2943 N357 1.155 . S
C2998 C633 1.768 . S
C2979 C384 1.753 . S
C3015 N403 1.300 . S
C3034 C649 1.322 . S
C3051 C292 1.852 . S
C3070 C593 1.843 . S
C3106 C596 1.388 . S
C3087 N311 1.356 . S
C3123 N334 1.369 . S
C3142 C610 1.387 . S
C3159 N347 1.275 . S
C3178 C621 1.306 . S
C3214 C582 1.836 . S
C3195 C375 1.860 . S
C3231 N393 1.330 . S
C3250 C607 1.371 . S
