# Generated by pormake.
# Topology iac, (4,6)-cn, num edge types: 1
# Building blocks:
#     Node 0, Type 0, BuildingBlock: TATPOV_clean_sbu_0, # of connection points: 4
#     Node 1, Type 0, BuildingBlock: TATPOV_clean_sbu_0, # of connection points: 4
#     Node 2, Type 0, BuildingBlock: TATPOV_clean_sbu_0, # of connection points: 4
#     Node 3, Type 0, BuildingBlock: TATPOV_clean_sbu_0, # of connection points: 4
#     Node 4, Type 0, BuildingBlock: TATPOV_clean_sbu_0, # of connection points: 4
#     Node 5, Type 0, BuildingBlock: TATPOV_clean_sbu_0, # of connection points: 4
#     Node 6, Type 0, BuildingBlock: TATPOV_clean_sbu_0, # of connection points: 4
#     Node 7, Type 0, BuildingBlock: TATPOV_clean_sbu_0, # of connection points: 4
#     Node 8, Type 0, BuildingBlock: TATPOV_clean_sbu_0, # of connection points: 4
#     Node 9, Type 0, BuildingBlock: TATPOV_clean_sbu_0, # of connection points: 4
#     Node 10, Type 0, BuildingBlock: TATPOV_clean_sbu_0, # of connection points: 4
#     Node 11, Type 0, BuildingBlock: TATPOV_clean_sbu_0, # of connection points: 4
#     Node 12, Type 0, BuildingBlock: TATPOV_clean_sbu_0, # of connection points: 4
#     Node 13, Type 0, BuildingBlock: TATPOV_clean_sbu_0, # of connection points: 4
#     Node 14, Type 0, BuildingBlock: TATPOV_clean_sbu_0, # of connection points: 4
#     Node 15, Type 0, BuildingBlock: TATPOV_clean_sbu_0, # of connection points: 4
#     Node 16, Type 0, BuildingBlock: TATPOV_clean_sbu_0, # of connection points: 4
#     Node 17, Type 0, BuildingBlock: TATPOV_clean_sbu_0, # of connection points: 4
#     Node 18, Type 0, BuildingBlock: TATPOV_clean_sbu_0, # of connection points: 4
#     Node 19, Type 0, BuildingBlock: TATPOV_clean_sbu_0, # of connection points: 4
#     Node 20, Type 0, BuildingBlock: TATPOV_clean_sbu_0, # of connection points: 4
#     Node 21, Type 0, BuildingBlock: TATPOV_clean_sbu_0, # of connection points: 4
#     Node 22, Type 0, BuildingBlock: TATPOV_clean_sbu_0, # of connection points: 4
#     Node 23, Type 0, BuildingBlock: TATPOV_clean_sbu_0, # of connection points: 4
#     Node 24, Type 1, BuildingBlock: VOLQOD_clean_sbu_1, # of connection points: 6
#     Node 25, Type 1, BuildingBlock: VOLQOD_clean_sbu_1, # of connection points: 6
#     Node 26, Type 1, BuildingBlock: VOLQOD_clean_sbu_1, # of connection points: 6
#     Node 27, Type 1, BuildingBlock: VOLQOD_clean_sbu_1, # of connection points: 6
#     Node 28, Type 1, BuildingBlock: VOLQOD_clean_sbu_1, # of connection points: 6
#     Node 29, Type 1, BuildingBlock: VOLQOD_clean_sbu_1, # of connection points: 6
#     Node 30, Type 1, BuildingBlock: VOLQOD_clean_sbu_1, # of connection points: 6
#     Node 31, Type 1, BuildingBlock: VOLQOD_clean_sbu_1, # of connection points: 6
#     Node 32, Type 1, BuildingBlock: VOLQOD_clean_sbu_1, # of connection points: 6
#     Node 33, Type 1, BuildingBlock: VOLQOD_clean_sbu_1, # of connection points: 6
#     Node 34, Type 1, BuildingBlock: VOLQOD_clean_sbu_1, # of connection points: 6
#     Node 35, Type 1, BuildingBlock: VOLQOD_clean_sbu_1, # of connection points: 6
#     Node 36, Type 1, BuildingBlock: VOLQOD_clean_sbu_1, # of connection points: 6
#     Node 37, Type 1, BuildingBlock: VOLQOD_clean_sbu_1, # of connection points: 6
#     Node 38, Type 1, BuildingBlock: VOLQOD_clean_sbu_1, # of connection points: 6
#     Node 39, Type 1, BuildingBlock: VOLQOD_clean_sbu_1, # of connection points: 6
#     Edge 40, Type (0, 1), BuildingBlock: CIFDUS_clean_linker_0, # of connection points: 2
#     Edge 41, Type (0, 1), BuildingBlock: CIFDUS_clean_linker_0, # of connection points: 2
#     Edge 42, Type (0, 1), BuildingBlock: CIFDUS_clean_linker_0, # of connection points: 2
#     Edge 43, Type (0, 1), BuildingBlock: CIFDUS_clean_linker_0, # of connection points: 2
#     Edge 44, Type (0, 1), BuildingBlock: CIFDUS_clean_linker_0, # of connection points: 2
#     Edge 45, Type (0, 1), BuildingBlock: CIFDUS_clean_linker_0, # of connection points: 2
#     Edge 46, Type (0, 1), BuildingBlock: CIFDUS_clean_linker_0, # of connection points: 2
#     Edge 47, Type (0, 1), BuildingBlock: CIFDUS_clean_linker_0, # of connection points: 2
#     Edge 48, Type (0, 1), BuildingBlock: CIFDUS_clean_linker_0, # of connection points: 2
#     Edge 49, Type (0, 1), BuildingBlock: CIFDUS_clean_linker_0, # of connection points: 2
#     Edge 50, Type (0, 1), BuildingBlock: CIFDUS_clean_linker_0, # of connection points: 2
#     Edge 51, Type (0, 1), BuildingBlock: CIFDUS_clean_linker_0, # of connection points: 2
#     Edge 52, Type (0, 1), BuildingBlock: CIFDUS_clean_linker_0, # of connection points: 2
#     Edge 53, Type (0, 1), BuildingBlock: CIFDUS_clean_linker_0, # of connection points: 2
#     Edge 54, Type (0, 1), BuildingBlock: CIFDUS_clean_linker_0, # of connection points: 2
#     Edge 55, Type (0, 1), BuildingBlock: CIFDUS_clean_linker_0, # of connection points: 2
#     Edge 56, Type (0, 1), BuildingBlock: CIFDUS_clean_linker_0, # of connection points: 2
#     Edge 57, Type (0, 1), BuildingBlock: CIFDUS_clean_linker_0, # of connection points: 2
#     Edge 58, Type (0, 1), BuildingBlock: CIFDUS_clean_linker_0, # of connection points: 2
#     Edge 59, Type (0, 1), BuildingBlock: CIFDUS_clean_linker_0, # of connection points: 2
#     Edge 60, Type (0, 1), BuildingBlock: CIFDUS_clean_linker_0, # of connection points: 2
#     Edge 61, Type (0, 1), BuildingBlock: CIFDUS_clean_linker_0, # of connection points: 2
#     Edge 62, Type (0, 1), BuildingBlock: CIFDUS_clean_linker_0, # of connection points: 2
#     Edge 63, Type (0, 1), BuildingBlock: CIFDUS_clean_linker_0, # of connection points: 2
#     Edge 64, Type (0, 1), BuildingBlock: CIFDUS_clean_linker_0, # of connection points: 2
#     Edge 65, Type (0, 1), BuildingBlock: CIFDUS_clean_linker_0, # of connection points: 2
#     Edge 66, Type (0, 1), BuildingBlock: CIFDUS_clean_linker_0, # of connection points: 2
#     Edge 67, Type (0, 1), BuildingBlock: CIFDUS_clean_linker_0, # of connection points: 2
#     Edge 68, Type (0, 1), BuildingBlock: CIFDUS_clean_linker_0, # of connection points: 2
#     Edge 69, Type (0, 1), BuildingBlock: CIFDUS_clean_linker_0, # of connection points: 2
#     Edge 70, Type (0, 1), BuildingBlock: CIFDUS_clean_linker_0, # of connection points: 2
#     Edge 71, Type (0, 1), BuildingBlock: CIFDUS_clean_linker_0, # of connection points: 2
#     Edge 72, Type (0, 1), BuildingBlock: CIFDUS_clean_linker_0, # of connection points: 2
#     Edge 73, Type (0, 1), BuildingBlock: CIFDUS_clean_linker_0, # of connection points: 2
#     Edge 74, Type (0, 1), BuildingBlock: CIFDUS_clean_linker_0, # of connection points: 2
#     Edge 75, Type (0, 1), BuildingBlock: CIFDUS_clean_linker_0, # of connection points: 2
#     Edge 76, Type (0, 1), BuildingBlock: CIFDUS_clean_linker_0, # of connection points: 2
#     Edge 77, Type (0, 1), BuildingBlock: CIFDUS_clean_linker_0, # of connection points: 2
#     Edge 78, Type (0, 1), BuildingBlock: CIFDUS_clean_linker_0, # of connection points: 2
#     Edge 79, Type (0, 1), BuildingBlock: CIFDUS_clean_linker_0, # of connection points: 2
#     Edge 80, Type (0, 1), BuildingBlock: CIFDUS_clean_linker_0, # of connection points: 2
#     Edge 81, Type (0, 1), BuildingBlock: CIFDUS_clean_linker_0, # of connection points: 2
#     Edge 82, Type (0, 1), BuildingBlock: CIFDUS_clean_linker_0, # of connection points: 2
#     Edge 83, Type (0, 1), BuildingBlock: CIFDUS_clean_linker_0, # of connection points: 2
#     Edge 84, Type (0, 1), BuildingBlock: CIFDUS_clean_linker_0, # of connection points: 2
#     Edge 85, Type (0, 1), BuildingBlock: CIFDUS_clean_linker_0, # of connection points: 2
#     Edge 86, Type (0, 1), BuildingBlock: CIFDUS_clean_linker_0, # of connection points: 2
#     Edge 87, Type (0, 1), BuildingBlock: CIFDUS_clean_linker_0, # of connection points: 2
#     Edge 88, Type (0, 1), BuildingBlock: CIFDUS_clean_linker_0, # of connection points: 2
#     Edge 89, Type (0, 1), BuildingBlock: CIFDUS_clean_linker_0, # of connection points: 2
#     Edge 90, Type (0, 1), BuildingBlock: CIFDUS_clean_linker_0, # of connection points: 2
#     Edge 91, Type (0, 1), BuildingBlock: CIFDUS_clean_linker_0, # of connection points: 2
#     Edge 92, Type (0, 1), BuildingBlock: CIFDUS_clean_linker_0, # of connection points: 2
#     Edge 93, Type (0, 1), BuildingBlock: CIFDUS_clean_linker_0, # of connection points: 2
#     Edge 94, Type (0, 1), BuildingBlock: CIFDUS_clean_linker_0, # of connection points: 2
#     Edge 95, Type (0, 1), BuildingBlock: CIFDUS_clean_linker_0, # of connection points: 2
#     Edge 96, Type (0, 1), BuildingBlock: CIFDUS_clean_linker_0, # of connection points: 2
#     Edge 97, Type (0, 1), BuildingBlock: CIFDUS_clean_linker_0, # of connection points: 2
#     Edge 98, Type (0, 1), BuildingBlock: CIFDUS_clean_linker_0, # of connection points: 2
#     Edge 99, Type (0, 1), BuildingBlock: CIFDUS_clean_linker_0, # of connection points: 2
#     Edge 100, Type (0, 1), BuildingBlock: CIFDUS_clean_linker_0, # of connection points: 2
#     Edge 101, Type (0, 1), BuildingBlock: CIFDUS_clean_linker_0, # of connection points: 2
#     Edge 102, Type (0, 1), BuildingBlock: CIFDUS_clean_linker_0, # of connection points: 2
#     Edge 103, Type (0, 1), BuildingBlock: CIFDUS_clean_linker_0, # of connection points: 2
#     Edge 104, Type (0, 1), BuildingBlock: CIFDUS_clean_linker_0, # of connection points: 2
#     Edge 105, Type (0, 1), BuildingBlock: CIFDUS_clean_linker_0, # of connection points: 2
#     Edge 106, Type (0, 1), BuildingBlock: CIFDUS_clean_linker_0, # of connection points: 2
#     Edge 107, Type (0, 1), BuildingBlock: CIFDUS_clean_linker_0, # of connection points: 2
#     Edge 108, Type (0, 1), BuildingBlock: CIFDUS_clean_linker_0, # of connection points: 2
#     Edge 109, Type (0, 1), BuildingBlock: CIFDUS_clean_linker_0, # of connection points: 2
#     Edge 110, Type (0, 1), BuildingBlock: CIFDUS_clean_linker_0, # of connection points: 2
#     Edge 111, Type (0, 1), BuildingBlock: CIFDUS_clean_linker_0, # of connection points: 2
#     Edge 112, Type (0, 1), BuildingBlock: CIFDUS_clean_linker_0, # of connection points: 2
#     Edge 113, Type (0, 1), BuildingBlock: CIFDUS_clean_linker_0, # of connection points: 2
#     Edge 114, Type (0, 1), BuildingBlock: CIFDUS_clean_linker_0, # of connection points: 2
#     Edge 115, Type (0, 1), BuildingBlock: CIFDUS_clean_linker_0, # of connection points: 2
#     Edge 116, Type (0, 1), BuildingBlock: CIFDUS_clean_linker_0, # of connection points: 2
#     Edge 117, Type (0, 1), BuildingBlock: CIFDUS_clean_linker_0, # of connection points: 2
#     Edge 118, Type (0, 1), BuildingBlock: CIFDUS_clean_linker_0, # of connection points: 2
#     Edge 119, Type (0, 1), BuildingBlock: CIFDUS_clean_linker_0, # of connection points: 2
#     Edge 120, Type (0, 1), BuildingBlock: CIFDUS_clean_linker_0, # of connection points: 2
#     Edge 121, Type (0, 1), BuildingBlock: CIFDUS_clean_linker_0, # of connection points: 2
#     Edge 122, Type (0, 1), BuildingBlock: CIFDUS_clean_linker_0, # of connection points: 2
#     Edge 123, Type (0, 1), BuildingBlock: CIFDUS_clean_linker_0, # of connection points: 2
#     Edge 124, Type (0, 1), BuildingBlock: CIFDUS_clean_linker_0, # of connection points: 2
#     Edge 125, Type (0, 1), BuildingBlock: CIFDUS_clean_linker_0, # of connection points: 2
#     Edge 126, Type (0, 1), BuildingBlock: CIFDUS_clean_linker_0, # of connection points: 2
#     Edge 127, Type (0, 1), BuildingBlock: CIFDUS_clean_linker_0, # of connection points: 2
#     Edge 128, Type (0, 1), BuildingBlock: CIFDUS_clean_linker_0, # of connection points: 2
#     Edge 129, Type (0, 1), BuildingBlock: CIFDUS_clean_linker_0, # of connection points: 2
#     Edge 130, Type (0, 1), BuildingBlock: CIFDUS_clean_linker_0, # of connection points: 2
#     Edge 131, Type (0, 1), BuildingBlock: CIFDUS_clean_linker_0, # of connection points: 2
#     Edge 132, Type (0, 1), BuildingBlock: CIFDUS_clean_linker_0, # of connection points: 2
#     Edge 133, Type (0, 1), BuildingBlock: CIFDUS_clean_linker_0, # of connection points: 2
#     Edge 134, Type (0, 1), BuildingBlock: CIFDUS_clean_linker_0, # of connection points: 2
#     Edge 135, Type (0, 1), BuildingBlock: CIFDUS_clean_linker_0, # of connection points: 2
# Relax obj value: 0.317
# Max RMSD: 0.296
# Mean RMSD: 0.179
data_MOF--net-iac--node1-TATPOV_clean_sbu_0--node2-VOLQOD_clean_sbu_1--edge1-CIFDUS_clean_linker_0
_symmetry_space_group_name_H-M    P1
_symmetry_Int_Tables_number       1
_symmetry_cell_setting            triclinic
loop_
_symmetry_equiv_pos_as_xyz
'x, y, z'
_cell_length_a     47.606788
_cell_length_b     47.817865
_cell_length_c     48.282427
_cell_angle_alpha  90.442348
_cell_angle_beta   90.706122
_cell_angle_gamma 92.394967
loop_
_atom_site_label
_atom_site_type_symbol
_atom_site_fract_x
_atom_site_fract_y
_atom_site_fract_z
_atom_type_partial_charge
Zn0 Zn 0.06135 0.19949 0.10276 0.0
Zn1 Zn 0.0099 0.19767 0.11871 0.0
O2 O 0.01628 0.23882 0.10727 0.0
O3 O 0.0622 0.24162 0.10237 0.0
O4 O 0.96993 0.19661 0.13337 0.0
O5 O 0.05165 0.17769 0.06849 0.0
O6 O 0.00993 0.16841 0.08613 0.0
C7 C 0.03894 0.25341 0.10348 0.0
C8 C 0.05902 0.18227 0.15721 0.0
O9 O 0.03408 0.19032 0.1536 0.0
O10 O 0.07513 0.18025 0.13676 0.0
C11 C 0.96596 0.21141 0.15489 0.0
O12 O 0.98748 0.22583 0.16586 0.0
C13 C 0.02799 0.16469 0.06722 0.0
Zn14 Zn 0.9769 0.73984 0.43146 0.0
Zn15 Zn 0.02176 0.7501 0.3882 0.0
O16 O 0.00536 0.78858 0.39369 0.0
O17 O 0.97548 0.78204 0.42816 0.0
O18 O 0.04295 0.74879 0.35263 0.0
O19 O 0.01428 0.72631 0.44793 0.0
O20 O 0.04804 0.74139 0.41952 0.0
C21 C 0.9878 0.79804 0.41081 0.0
C22 C 0.96886 0.71926 0.38126 0.0
O23 O 0.9944 0.71794 0.38811 0.0
O24 O 0.95198 0.7192 0.40123 0.0
C25 C 0.0375 0.76391 0.33189 0.0
O26 O 0.01723 0.78166 0.33345 0.0
C27 C 0.04023 0.73012 0.44214 0.0
Zn28 Zn 0.4246 0.71313 0.68617 0.0
Zn29 Zn 0.42544 0.74838 0.64201 0.0
O30 O 0.3862 0.75476 0.65672 0.0
O31 O 0.38622 0.72825 0.69399 0.0
O32 O 0.4324 0.77527 0.61149 0.0
O33 O 0.45932 0.73369 0.70263 0.0
O34 O 0.45852 0.76124 0.66647 0.0
C35 C 0.3741 0.74525 0.67827 0.0
C36 C 0.43014 0.68587 0.63241 0.0
O37 O 0.42931 0.7108 0.62367 0.0
O38 O 0.42846 0.68096 0.65815 0.0
C39 C 0.42928 0.77178 0.58554 0.0
O40 O 0.41674 0.74882 0.57555 0.0
C41 C 0.46971 0.75423 0.68923 0.0
Zn42 Zn 0.5143 0.24635 0.98569 0.0
Zn43 Zn 0.54618 0.25454 0.93996 0.0
O44 O 0.54904 0.2914 0.96162 0.0
O45 O 0.52741 0.28413 0.00117 0.0
O46 O 0.5742 0.26001 0.90952 0.0
O47 O 0.53429 0.21108 -0.00461 0.0
O48 O 0.55864 0.21834 0.95757 0.0
C49 C 0.541 0.3003 0.98503 0.0
C50 C 0.48386 0.24904 0.9318 0.0
O51 O 0.50812 0.25148 0.9211 0.0
O52 O 0.48136 0.24614 0.9578 0.0
C53 C 0.58155 0.23982 0.89429 0.0
O54 O 0.56938 0.2149 0.89744 0.0
C55 C 0.5529 0.20358 0.97871 0.0
Zn56 Zn 0.08445 0.08172 0.21067 0.0
Zn57 Zn 0.11162 0.03225 0.21824 0.0
O58 O 0.09493 0.03688 0.25617 0.0
O59 O 0.07194 0.07575 0.2509 0.0
O60 O 0.13165 0.99635 0.21811 0.0
O61 O 0.06046 0.06445 0.17935 0.0
O62 O 0.08322 0.02615 0.18703 0.0
C63 C 0.07942 0.05556 0.26586 0.0
C64 C 0.14552 0.08564 0.20596 0.0
O65 O 0.14355 0.05997 0.21227 0.0
O66 O 0.12359 0.09952 0.20286 0.0
C67 C 0.11836 0.97304 0.21447 0.0
O68 O 0.09076 0.97228 0.21301 0.0
C69 C 0.0646 0.03905 0.17375 0.0
Zn70 Zn 0.27672 0.84918 0.53224 0.0
Zn71 Zn 0.2324 0.87944 0.51707 0.0
O72 O 0.24153 0.86018 0.48088 0.0
O73 O 0.2798 0.83804 0.49188 0.0
O74 O 0.19863 0.9023 0.50946 0.0
O75 O 0.25227 0.82521 0.55672 0.0
O76 O 0.21741 0.85232 0.5466 0.0
C77 C 0.26165 0.84489 0.47403 0.0
C78 C 0.28686 0.90803 0.53949 0.0
O79 O 0.26309 0.90883 0.52732 0.0
O80 O 0.29671 0.88483 0.54625 0.0
C81 C 0.19946 0.92548 0.4967 0.0
O82 O 0.22338 0.93504 0.48642 0.0
C83 C 0.22692 0.83153 0.55949 0.0
Zn84 Zn 0.34727 0.9352 0.74635 0.0
Zn85 Zn 0.3455 0.98985 0.75925 0.0
O86 O 0.37573 0.97481 0.78511 0.0
O87 O 0.3722 0.92893 0.77985 0.0
O88 O 0.34473 0.03099 0.76822 0.0
O89 O 0.36676 0.94644 0.71112 0.0
O90 O 0.35904 0.99083 0.71929 0.0
C91 C 0.38342 0.95045 0.79159 0.0
C92 C 0.29195 0.95232 0.75943 0.0
O93 O 0.30492 0.97515 0.76634 0.0
O94 O 0.30498 0.93249 0.74871 0.0
C95 C 0.32556 0.045 0.75707 0.0
O96 O 0.30656 0.03195 0.74115 0.0
C97 C 0.36845 0.97182 0.70383 0.0
Zn98 Zn 0.24188 0.13856 0.03249 0.0
Zn99 Zn 0.29281 0.11991 0.02759 0.0
O100 O 0.28851 0.14621 -0.00549 0.0
O101 O 0.24364 0.15576 -0.0053 0.0
O102 O 0.33107 0.10375 0.02165 0.0
O103 O 0.25519 0.1618 0.06494 0.0
O104 O 0.29599 0.14168 0.06516 0.0
C105 C 0.2675 0.15774 0.98346 0.0
C106 C 0.24006 0.08002 0.03042 0.0
O107 O 0.2659 0.08467 0.02479 0.0
O108 O 0.22484 0.09995 0.03708 0.0
C109 C 0.33911 0.08376 0.03664 0.0
O110 O 0.3228 0.07476 0.05674 0.0
C111 C 0.27919 0.15882 0.07577 0.0
Zn112 Zn 0.80604 0.35784 0.02616 0.0
Zn113 Zn 0.77837 0.40124 0.01552 0.0
O114 O 0.7899 0.38785 0.97655 0.0
O115 O 0.81963 0.35556 0.9875 0.0
O116 O 0.75384 0.43426 0.00996 0.0
O117 O 0.77217 0.33464 0.0363 0.0
O118 O 0.75045 0.37419 0.03531 0.0
C119 C 0.80775 0.37002 0.96934 0.0
C120 C 0.82993 0.40483 0.05398 0.0
O121 O 0.81225 0.41688 0.03858 0.0
O122 O 0.82967 0.37838 0.05486 0.0
C123 C 0.74064 0.44234 0.03115 0.0
O124 O 0.74543 0.4304 0.05508 0.0
C125 C 0.75033 0.34812 0.04037 0.0
Zn126 Zn 0.90273 0.46262 0.26362 0.0
Zn127 Zn 0.88381 0.50899 0.25155 0.0
O128 O 0.89355 0.51242 0.29328 0.0
O129 O 0.90129 0.46891 0.30411 0.0
O130 O 0.86916 0.54715 0.24301 0.0
O131 O 0.93924 0.47012 0.24552 0.0
O132 O 0.92087 0.50812 0.22915 0.0
C133 C 0.89962 0.49424 0.31131 0.0
C134 C 0.85135 0.45355 0.23686 0.0
O135 O 0.85097 0.48009 0.24001 0.0
O136 O 0.87288 0.44067 0.2439 0.0
C137 C 0.84665 0.55501 0.25401 0.0
O138 O 0.83242 0.53743 0.26987 0.0
C139 C 0.94135 0.49173 0.23072 0.0
Zn140 Zn 0.73417 0.72738 0.50994 0.0
Zn141 Zn 0.77033 0.69383 0.52962 0.0
O142 O 0.78671 0.70877 0.49262 0.0
O143 O 0.75853 0.74199 0.48042 0.0
O144 O 0.80085 0.6678 0.54205 0.0
O145 O 0.73234 0.74919 0.54423 0.0
O146 O 0.76553 0.72346 0.56148 0.0
C147 C 0.78039 0.72856 0.47647 0.0
C148 C 0.71203 0.67132 0.5113 0.0
O149 O 0.73541 0.66711 0.52343 0.0
O150 O 0.70689 0.69547 0.50258 0.0
C151 C 0.82654 0.67527 0.53852 0.0
O152 O 0.83257 0.70068 0.52959 0.0
C153 C 0.74901 0.74379 0.56381 0.0
Zn154 Zn 0.6031 0.54267 0.7229 0.0
Zn155 Zn 0.64017 0.50636 0.72848 0.0
O156 O 0.62385 0.51015 0.76761 0.0
O157 O 0.59888 0.54765 0.76381 0.0
O158 O 0.66619 0.47497 0.73209 0.0
O159 O 0.57661 0.51694 0.70142 0.0
O160 O 0.61353 0.49131 0.69768 0.0
C161 C 0.60916 0.52884 0.7786 0.0
C162 C 0.65765 0.56239 0.70584 0.0
O163 O 0.66515 0.54013 0.71759 0.0
O164 O 0.63174 0.56685 0.70291 0.0
C165 C 0.65468 0.45263 0.7414 0.0
O166 O 0.62803 0.45244 0.74822 0.0
C167 C 0.58844 0.49642 0.69061 0.0
Zn168 Zn 0.91722 0.71904 0.95823 0.0
Zn169 Zn 0.94439 0.7174 0.90873 0.0
O170 O 0.96276 0.74838 0.93226 0.0
O171 O 0.94186 0.75232 0.97225 0.0
O172 O 0.96045 0.72811 0.87206 0.0
O173 O 0.93319 0.67971 0.95998 0.0
O174 O 0.95746 0.67979 0.9212 0.0
C175 C 0.96096 0.7603 0.95571 0.0
C176 C 0.88006 0.72142 0.91206 0.0
O177 O 0.90285 0.71736 0.89959 0.0
O178 O 0.88004 0.72513 0.93806 0.0
C179 C 0.9548 0.75307 0.86561 0.0
O180 O 0.93896 0.76749 0.88208 0.0
C181 C 0.94965 0.66783 0.94345 0.0
Zn182 Zn 0.08013 0.29379 0.58537 0.0
Zn183 Zn 0.04032 0.27633 0.62262 0.0
O184 O 0.02716 0.31388 0.60977 0.0
O185 O 0.05533 0.32617 0.57574 0.0
O186 O 0.00802 0.26597 0.64722 0.0
O187 O 0.07444 0.25705 0.56445 0.0
O188 O 0.04044 0.24533 0.59328 0.0
C189 C 0.03412 0.33052 0.5905 0.0
C190 C 0.10032 0.28683 0.64246 0.0
O191 O 0.07522 0.27813 0.64707 0.0
O192 O 0.10713 0.29561 0.61862 0.0
C193 C 0.0086 0.26304 0.67334 0.0
O194 O 0.03282 0.2639 0.68672 0.0
C195 C 0.0551 0.23994 0.57211 0.0
Zn196 Zn 0.48139 0.27202 0.46128 0.0
Zn197 Zn 0.51694 0.25894 0.42032 0.0
O198 O 0.53334 0.29604 0.43574 0.0
O199 O 0.50697 0.30537 0.47152 0.0
O200 O 0.54428 0.25034 0.39071 0.0
O201 O 0.48829 0.23493 0.47898 0.0
O202 O 0.51818 0.22527 0.44615 0.0
C203 C 0.52789 0.31139 0.45643 0.0
C204 C 0.45546 0.26773 0.40636 0.0
O205 O 0.4799 0.26107 0.39911 0.0
O206 O 0.45087 0.27423 0.43138 0.0
C207 C 0.55061 0.26841 0.3724 0.0
O208 O 0.53855 0.29263 0.37282 0.0
C209 C 0.50547 0.21855 0.46835 0.0
Zn210 Zn 0.53044 0.74218 0.19615 0.0
Zn211 Zn 0.52861 0.78678 0.16154 0.0
O212 O 0.49406 0.79231 0.18577 0.0
O213 O 0.4944 0.75541 0.21282 0.0
O214 O 0.52707 0.81626 0.13202 0.0
O215 O 0.56781 0.75734 0.21023 0.0
O216 O 0.56756 0.79217 0.18059 0.0
C217 C 0.48317 0.7777 0.20516 0.0
C218 C 0.52819 0.72633 0.13925 0.0
O219 O 0.5259 0.7525 0.13646 0.0
O220 O 0.53099 0.7158 0.16304 0.0
C221 C 0.54562 0.81494 0.11337 0.0
O222 O 0.56576 0.79719 0.11641 0.0
C223 C 0.57996 0.77859 0.19948 0.0
Zn224 Zn 0.88577 0.92455 0.74628 0.0
Zn225 Zn 0.87929 0.98025 0.7521 0.0
O226 O 0.91434 0.9745 0.77614 0.0
O227 O 0.92083 0.92955 0.76982 0.0
O228 O 0.87084 0.02089 0.75708 0.0
O229 O 0.89026 0.93033 0.70499 0.0
O230 O 0.88835 0.97592 0.71121 0.0
C231 C 0.92888 0.95306 0.78003 0.0
C232 C 0.83238 0.93667 0.7678 0.0
O233 O 0.84164 0.96156 0.76363 0.0
O234 O 0.84766 0.91617 0.76316 0.0
C235 C 0.84834 0.02815 0.74523 0.0
O236 O 0.83412 0.00969 0.7297 0.0
C237 C 0.89192 0.95494 0.6954 0.0
Zn238 Zn 0.68209 0.1896 0.49046 0.0
Zn239 Zn 0.72283 0.15067 0.49822 0.0
O240 O 0.73078 0.16729 0.46079 0.0
O241 O 0.69973 0.19919 0.45284 0.0
O242 O 0.75354 0.12388 0.50189 0.0
O243 O 0.69762 0.20967 0.5252 0.0
O244 O 0.72766 0.17627 0.53152 0.0
C245 C 0.72089 0.18592 0.44535 0.0
C246 C 0.66196 0.13122 0.50053 0.0
O247 O 0.68795 0.12639 0.50097 0.0
O248 O 0.65391 0.15584 0.49615 0.0
C249 C 0.75939 0.10827 0.48151 0.0
O250 O 0.74436 0.10926 0.45857 0.0
C251 C 0.71667 0.19868 0.53953 0.0
Zn252 Zn 0.55639 0.99653 0.23811 0.0
Zn253 Zn 0.6087 0.9743 0.24069 0.0
O254 O 0.59161 0.96334 0.27785 0.0
O255 O 0.5491 0.97993 0.27525 0.0
O256 O 0.64731 0.95926 0.24076 0.0
O257 O 0.54789 0.97244 0.20462 0.0
O258 O 0.5904 0.95588 0.20669 0.0
C259 C 0.56749 0.96663 0.2882 0.0
C260 C 0.60257 0.0371 0.23275 0.0
O261 O 0.61717 0.01559 0.23509 0.0
O262 O 0.576 0.035 0.23412 0.0
C263 C 0.6656 0.96243 0.26006 0.0
O264 O 0.65915 0.97529 0.28312 0.0
C265 C 0.56636 0.95686 0.19504 0.0
Zn266 Zn 0.81735 0.78031 0.96359 0.0
Zn267 Zn 0.78558 0.82668 0.97453 0.0
O268 O 0.76098 0.79466 0.95993 0.0
O269 O 0.78326 0.7568 0.94967 0.0
O270 O 0.75629 0.85616 0.97506 0.0
O271 O 0.82553 0.78207 0.00469 0.0
O272 O 0.80107 0.81957 0.01299 0.0
C273 C 0.76054 0.76947 0.95149 0.0
C274 C 0.83813 0.8327 0.93912 0.0
O275 O 0.81693 0.84271 0.95082 0.0
O276 O 0.84205 0.80665 0.9401 0.0
C277 C 0.75959 0.88251 0.97236 0.0
O278 O 0.78507 0.89414 0.97202 0.0
C279 C 0.81718 0.80057 0.02128 0.0
Zn280 Zn 0.24144 0.67917 0.00649 0.0
Zn281 Zn 0.27847 0.65388 0.98802 0.0
O282 O 0.2602 0.67517 0.95542 0.0
O283 O 0.21834 0.68105 0.97241 0.0
O284 O 0.31057 0.63353 0.97151 0.0
O285 O 0.26692 0.71263 0.015 0.0
O286 O 0.29675 0.67943 0.01851 0.0
C287 C 0.23499 0.68283 0.95229 0.0
C288 C 0.23844 0.62564 0.0273 0.0
O289 O 0.25369 0.6228 0.00601 0.0
O290 O 0.23257 0.64995 0.03523 0.0
C291 C 0.3292 0.64672 0.95753 0.0
O292 O 0.3267 0.67362 0.95331 0.0
C293 C 0.28988 0.70423 0.02436 0.0
Zn294 Zn 0.05837 0.50697 0.79979 0.0
Zn295 Zn 0.10849 0.48735 0.79232 0.0
O296 O 0.08816 0.46235 0.82123 0.0
O297 O 0.04457 0.47548 0.82323 0.0
O298 O 0.1468 0.47095 0.79055 0.0
O299 O 0.05244 0.505 0.75896 0.0
O300 O 0.09303 0.48556 0.75261 0.0
C301 C 0.0633 0.45902 0.83053 0.0
C302 C 0.10179 0.54781 0.81142 0.0
O303 O 0.1168 0.52856 0.80202 0.0
O304 O 0.07585 0.54298 0.81566 0.0
C305 C 0.1599 0.46393 0.8124 0.0
O306 O 0.14846 0.46796 0.83665 0.0
C307 C 0.07033 0.49499 0.74288 0.0
Zn308 Zn 0.30076 0.33138 0.51264 0.0
Zn309 Zn 0.26065 0.36874 0.52353 0.0
O310 O 0.24151 0.33803 0.49963 0.0
O311 O 0.27219 0.30561 0.49316 0.0
O312 O 0.2288 0.3948 0.52747 0.0
O313 O 0.30679 0.32854 0.55391 0.0
O314 O 0.27322 0.35776 0.56249 0.0
C315 C 0.24769 0.31438 0.48974 0.0
C316 C 0.31369 0.38718 0.4925 0.0
O317 O 0.29084 0.39258 0.50443 0.0
O318 O 0.32201 0.36234 0.49183 0.0
C319 C 0.23075 0.41975 0.53672 0.0
O320 O 0.25499 0.4298 0.54657 0.0
C321 C 0.29237 0.34191 0.57102 0.0
Zn322 Zn 0.39292 0.47705 0.25141 0.0
Zn323 Zn 0.3604 0.51844 0.24004 0.0
O324 O 0.38652 0.53362 0.27106 0.0
O325 O 0.41869 0.50216 0.2745 0.0
O326 O 0.33795 0.5527 0.23563 0.0
O327 O 0.40171 0.47286 0.21117 0.0
O328 O 0.3808 0.51229 0.20319 0.0
C329 C 0.40969 0.5258 0.28102 0.0
C330 C 0.33539 0.46442 0.26372 0.0
O331 O 0.3317 0.48715 0.2509 0.0
O332 O 0.35992 0.45633 0.26852 0.0
C333 C 0.31135 0.55389 0.23506 0.0
O334 O 0.2956 0.53069 0.23386 0.0
C335 C 0.39577 0.49241 0.19486 0.0
O336 O 0.04226 0.02362 0.97015 0.0
Zn337 Zn 0.06114 0.99237 0.95042 0.0
O338 O 0.04698 0.95786 0.96528 0.0
Zn339 Zn 0.07246 0.94255 0.99156 0.0
Zn340 Zn 0.01061 0.96314 0.98156 0.0
Zn341 Zn 0.04496 0.93061 0.93599 0.0
O342 O 0.07057 0.90084 0.98624 0.0
O343 O 0.07299 0.90101 0.94087 0.0
O344 O 0.10315 0.99544 0.95746 0.0
O345 O 0.11102 0.96116 0.98744 0.0
O346 O 0.05859 0.94981 0.0294 0.0
O347 O 0.01314 0.95722 0.02276 0.0
O348 O 0.98099 0.93672 0.96375 0.0
O349 O 0.05039 0.99411 0.90982 0.0
O350 O 0.00713 0.91093 0.93631 0.0
O351 O 0.0474 0.94883 0.89929 0.0
C352 C 0.01736 0.02527 0.97939 0.0
C353 C 0.07177 0.88752 0.96342 0.0
C354 C 0.03423 0.95397 0.03872 0.0
C355 C 0.11973 0.98198 0.973 0.0
C356 C 0.98361 0.91621 0.94698 0.0
C357 C 0.04652 0.97434 0.89213 0.0
O358 O 0.00069 0.00375 0.98063 0.0
O359 O 0.24198 0.74376 0.18676 0.0
Zn360 Zn 0.23175 0.74822 0.22636 0.0
O361 O 0.25012 0.78267 0.24078 0.0
Zn362 Zn 0.27918 0.77375 0.26789 0.0
Zn363 Zn 0.26632 0.80602 0.21106 0.0
Zn364 Zn 0.22169 0.80315 0.2583 0.0
O365 O 0.27084 0.79018 0.30564 0.0
O366 O 0.2322 0.81317 0.29685 0.0
O367 O 0.24853 0.71508 0.24347 0.0
O368 O 0.28346 0.73176 0.27043 0.0
O369 O 0.31654 0.78987 0.25537 0.0
O370 O 0.30724 0.81624 0.21898 0.0
O371 O 0.24419 0.84113 0.20345 0.0
O372 O 0.1896 0.74434 0.23301 0.0
O373 O 0.2139 0.83716 0.23792 0.0
O374 O 0.18506 0.78232 0.2589 0.0
C375 C 0.25757 0.75793 0.1703 0.0
C376 C 0.25156 0.80614 0.31339 0.0
C377 C 0.32465 0.8066 0.23637 0.0
C378 C 0.26931 0.71119 0.25952 0.0
C379 C 0.22331 0.84987 0.21683 0.0
C380 C 0.17466 0.76018 0.24754 0.0
O381 O 0.26776 0.7822 0.17672 0.0
O382 O 0.48162 0.91789 0.50814 0.0
Zn383 Zn 0.476 0.95469 0.49005 0.0
O384 O 0.49835 0.98245 0.51014 0.0
Zn385 Zn 0.47576 0.01215 0.5238 0.0
Zn386 Zn 0.51737 0.96686 0.54139 0.0
Zn387 Zn 0.52837 0.99615 0.48728 0.0
O388 O 0.49288 0.04931 0.51265 0.0
O389 O 0.52797 0.03814 0.4851 0.0
O390 O 0.43542 0.96403 0.49188 0.0
O391 O 0.43591 0.00698 0.51012 0.0
O392 O 0.47046 0.00968 0.56501 0.0
O393 O 0.49487 0.97261 0.57516 0.0
O394 O 0.55471 0.98834 0.54651 0.0
O395 O 0.48738 0.95111 0.45017 0.0
O396 O 0.56562 0.98592 0.50254 0.0
O397 O 0.52561 0.97938 0.44988 0.0
C398 C 0.49985 0.90858 0.5249 0.0
C399 C 0.51323 0.05635 0.49686 0.0
C400 C 0.47767 0.99099 0.58199 0.0
C401 C 0.42282 0.98578 0.49932 0.0
C402 C 0.57244 0.99222 0.5273 0.0
C403 C 0.50861 0.96193 0.43788 0.0
O404 O 0.51822 0.92487 0.53699 0.0
O405 O 0.28403 0.2707 0.85072 0.0
Zn406 Zn 0.30256 0.29722 0.82488 0.0
O407 O 0.29589 0.28223 0.78827 0.0
Zn408 Zn 0.32864 0.2654 0.7728 0.0
Zn409 Zn 0.26346 0.25604 0.78746 0.0
Zn410 Zn 0.28907 0.31338 0.76541 0.0
O411 O 0.33524 0.28089 0.73415 0.0
O412 O 0.32157 0.32372 0.74201 0.0
O413 O 0.34372 0.29571 0.83416 0.0
O414 O 0.36181 0.27255 0.79869 0.0
O415 O 0.32171 0.22355 0.76913 0.0
O416 O 0.27529 0.2187 0.77319 0.0
O417 O 0.23301 0.26922 0.76133 0.0
O418 O 0.28583 0.33565 0.83067 0.0
O419 O 0.25663 0.30397 0.74037 0.0
O420 O 0.27809 0.34636 0.78682 0.0
C421 C 0.26344 0.25292 0.84934 0.0
C422 C 0.3324 0.30597 0.72614 0.0
C423 C 0.29902 0.20841 0.76845 0.0
C424 C 0.36435 0.28444 0.8224 0.0
C425 C 0.23512 0.28743 0.74217 0.0
C426 C 0.27709 0.35247 0.81239 0.0
O427 O 0.25046 0.24729 0.82655 0.0
O428 O 0.98077 0.03348 0.41403 0.0
Zn429 Zn 0.95995 0.01512 0.44542 0.0
O430 O 0.98061 0.02241 0.4805 0.0
Zn431 Zn 0.98514 0.98774 0.50057 0.0
Zn432 Zn 0.01722 0.04164 0.47407 0.0
Zn433 Zn 0.95862 0.0456 0.50342 0.0
O434 O 0.96674 0.98675 0.53813 0.0
O435 O 0.95077 0.02946 0.54025 0.0
O436 O 0.95721 0.97348 0.43737 0.0
O437 O 0.96882 0.95578 0.47829 0.0
O438 O 0.02616 0.98066 0.50527 0.0
O439 O 0.04884 0.01703 0.48607 0.0
O440 O 0.02069 0.0796 0.49436 0.0
O441 O 0.92007 0.0291 0.44621 0.0
O442 O 0.9775 0.08211 0.51062 0.0
O443 O 0.92144 0.05097 0.48687 0.0
C444 C 0.00536 0.04478 0.41208 0.0
C445 C 0.95428 0.00579 0.5511 0.0
C446 C 0.04895 0.99344 0.49823 0.0
C447 C 0.95996 0.95276 0.45346 0.0
C448 C 0.00204 0.09279 0.50731 0.0
C449 C 0.90829 0.04322 0.46495 0.0
O450 O 0.02169 0.04826 0.43307 0.0
O451 O 0.21828 0.7885 0.76067 0.0
Zn452 Zn 0.18209 0.79721 0.77881 0.0
O453 O 0.15037 0.77949 0.7595 0.0
Zn454 Zn 0.12766 0.80729 0.74124 0.0
Zn455 Zn 0.1635 0.75198 0.73301 0.0
Zn456 Zn 0.12838 0.76058 0.78714 0.0
O457 O 0.08624 0.80304 0.75154 0.0
O458 O 0.08862 0.76915 0.78278 0.0
O459 O 0.17926 0.8387 0.77869 0.0
O460 O 0.14399 0.84649 0.74944 0.0
O461 O 0.13065 0.8017 0.7002 0.0
O462 O 0.14865 0.75983 0.69503 0.0
O463 O 0.15465 0.71187 0.74489 0.0
O464 O 0.18544 0.78269 0.81715 0.0
O465 O 0.13073 0.71953 0.78307 0.0
O466 O 0.14186 0.76781 0.82602 0.0
C467 C 0.22427 0.77179 0.74123 0.0
C468 C 0.0746 0.78585 0.76834 0.0
C469 C 0.13843 0.78177 0.68481 0.0
C470 C 0.16416 0.85542 0.76524 0.0
C471 C 0.14161 0.70281 0.76614 0.0
C472 C 0.16718 0.77279 0.83378 0.0
O473 O 0.20546 0.75641 0.72898 0.0
O474 O 0.5775 0.97571 0.02006 0.0
Zn475 Zn 0.57701 0.98728 0.98039 0.0
O476 O 0.54158 0.97536 0.96359 0.0
Zn477 Zn 0.54619 0.94164 0.942 0.0
Zn478 Zn 0.51374 0.96565 0.99122 0.0
Zn479 Zn 0.52787 0.00535 0.94207 0.0
O480 O 0.52262 0.94421 0.90645 0.0
O481 O 0.51639 0.99024 0.90504 0.0
O482 O 0.60874 0.96733 0.96314 0.0
O483 O 0.58774 0.93533 0.93543 0.0
O484 O 0.53347 0.90962 0.96662 0.0
O485 O 0.49578 0.92773 0.98412 0.0
O486 O 0.48397 0.9939 -0.00517 0.0
O487 O 0.58328 0.02914 0.97697 0.0
O488 O 0.49316 0.02173 0.95931 0.0
O489 O 0.55669 0.03706 0.93982 0.0
C490 C 0.55856 0.96522 0.03569 0.0
C491 C 0.51366 0.96586 0.89426 0.0
C492 C 0.51181 0.90729 0.98179 0.0
C493 C 0.61003 0.94683 0.94627 0.0
C494 C 0.47831 0.01505 0.98025 0.0
C495 C 0.5753 0.04514 0.95767 0.0
O496 O 0.53326 0.96134 0.02735 0.0
O497 O 0.18335 0.22368 0.2778 0.0
Zn498 Zn 0.22143 0.22285 0.29602 0.0
O499 O 0.24558 0.25224 0.28081 0.0
Zn500 Zn 0.28116 0.2371 0.26937 0.0
Zn501 Zn 0.22814 0.27069 0.25011 0.0
Zn502 Zn 0.25096 0.27896 0.30986 0.0
O503 O 0.31254 0.24811 0.29705 0.0
O504 O 0.28935 0.27513 0.32588 0.0
O505 O 0.23572 0.18576 0.28615 0.0
O506 O 0.27622 0.19529 0.26529 0.0
O507 O 0.28988 0.24696 0.22972 0.0
O508 O 0.24721 0.25839 0.2155 0.0
O509 O 0.23345 0.31291 0.25282 0.0
O510 O 0.21711 0.22633 0.33732 0.0
O511 O 0.24905 0.31791 0.29606 0.0
O512 O 0.22372 0.27241 0.34051 0.0
C513 C 0.17268 0.23911 0.2594 0.0
C514 C 0.31164 0.26311 0.31904 0.0
C515 C 0.27213 0.25119 0.21034 0.0
C516 C 0.25698 0.17793 0.27296 0.0
C517 C 0.24216 0.32845 0.27298 0.0
C518 C 0.21542 0.24913 0.35081 0.0
O519 O 0.18704 0.25862 0.24757 0.0
O520 O 0.53814 0.53294 0.93606 0.0
Zn521 Zn 0.51281 0.52231 0.96723 0.0
O522 O 0.52877 0.54004 0.0005 0.0
Zn523 Zn 0.5346 0.51275 0.02931 0.0
Zn524 Zn 0.56418 0.56039 -0.00611 0.0
Zn525 Zn 0.50238 0.56634 0.01238 0.0
O526 O 0.50625 0.51637 0.05992 0.0
O527 O 0.48133 0.55166 0.04493 0.0
O528 O 0.51357 0.48028 0.97001 0.0
O529 O 0.52897 0.47434 0.01309 0.0
O530 O 0.57528 0.5135 0.04262 0.0
O531 O 0.59564 0.53807 0.00891 0.0
O532 O 0.56622 0.59783 0.0144 0.0
O533 O 0.47331 0.53559 0.95764 0.0
O534 O 0.52122 0.60175 0.02459 0.0
O535 O 0.47458 0.57446 0.98316 0.0
C536 C 0.55903 0.55004 0.9327 0.0
C537 C 0.48559 0.53238 0.06228 0.0
C538 C 0.59724 0.5218 0.02959 0.0
C539 C 0.52109 0.4644 0.98961 0.0
C540 C 0.54644 0.6114 0.02496 0.0
C541 C 0.46329 0.55904 0.96425 0.0
O542 O 0.57029 0.56426 0.95269 0.0
O543 O 0.80341 0.23427 0.22109 0.0
Zn544 Zn 0.772 0.25439 0.23939 0.0
O545 O 0.73612 0.24179 0.22377 0.0
Zn546 Zn 0.71342 0.2743 0.21572 0.0
Zn547 Zn 0.74109 0.21751 0.19166 0.0
Zn548 Zn 0.71798 0.21979 0.25145 0.0
O549 O 0.68058 0.2777 0.2421 0.0
O550 O 0.68583 0.2393 0.26668 0.0
O551 O 0.77888 0.29467 0.23012 0.0
O552 O 0.73761 0.31044 0.21671 0.0
O553 O 0.69938 0.27084 0.17641 0.0
O554 O 0.72366 0.2361 0.15897 0.0
O555 O 0.72052 0.17945 0.19511 0.0
O556 O 0.77267 0.2495 0.28132 0.0
O557 O 0.70194 0.18418 0.23668 0.0
O558 O 0.74313 0.21246 0.28332 0.0
C559 C 0.80484 0.21955 0.19902 0.0
C560 C 0.6728 0.26132 0.26152 0.0
C561 C 0.70663 0.2558 0.15598 0.0
C562 C 0.76379 0.31437 0.22184 0.0
C563 C 0.70477 0.17035 0.21447 0.0
C564 C 0.76136 0.22915 0.29464 0.0
O565 O 0.78275 0.21226 0.18503 0.0
O566 O 0.05103 0.54466 0.57523 0.0
Zn567 Zn 0.05578 0.5453 0.53415 0.0
O568 O 0.02026 0.53392 0.51609 0.0
Zn569 Zn 0.02598 0.50032 0.49511 0.0
Zn570 Zn 0.98934 0.52853 0.54221 0.0
Zn571 Zn 0.00986 0.56199 0.49048 0.0
O572 O 0.00988 0.50214 0.45713 0.0
O573 O 0.99353 0.5448 0.4554 0.0
O574 O 0.08577 0.51793 0.52633 0.0
O575 O 0.06613 0.4885 0.49541 0.0
O576 O 0.00408 0.46965 0.51246 0.0
O577 O 0.97447 0.48789 0.54222 0.0
O578 O 0.95896 0.55737 0.53736 0.0
O579 O 0.0705 0.58293 0.52041 0.0
O580 O 0.97977 0.58526 0.50651 0.0
O581 O 0.04356 0.58678 0.48264 0.0
C582 C 0.0298 0.53942 0.59042 0.0
C583 C 0.99597 0.52057 0.44485 0.0
C584 C 0.98415 0.4669 0.52958 0.0
C585 C 0.08721 0.49688 0.5102 0.0
C586 C 0.96005 0.58009 0.52359 0.0
C587 C 0.06496 0.5944 0.49737 0.0
O588 O 0.00542 0.53381 0.58025 0.0
O589 O 0.8226 0.80641 0.31951 0.0
Zn590 Zn 0.83128 0.8223 0.28245 0.0
O591 O 0.81803 0.79539 0.2539 0.0
Zn592 Zn 0.84971 0.78063 0.2342 0.0
Zn593 Zn 0.79603 0.76442 0.26975 0.0
Zn594 Zn 0.79482 0.8152 0.22889 0.0
O595 O 0.85241 0.79637 0.19546 0.0
O596 O 0.81256 0.81897 0.19257 0.0
O597 O 0.87345 0.82614 0.28302 0.0
O598 O 0.88441 0.78979 0.25698 0.0
O599 O 0.84662 0.73822 0.23138 0.0
O600 O 0.80919 0.72719 0.25657 0.0
O601 O 0.75483 0.76677 0.25959 0.0
O602 O 0.81261 0.85985 0.28117 0.0
O603 O 0.75623 0.79762 0.22545 0.0
O604 O 0.78833 0.85341 0.24216 0.0
C605 C 0.81161 0.78334 0.32782 0.0
C606 C 0.83536 0.8113 0.18213 0.0
C607 C 0.82958 0.71994 0.24167 0.0
C608 C 0.89115 0.80859 0.27499 0.0
C609 C 0.74262 0.78019 0.24049 0.0
C610 C 0.79572 0.86859 0.26285 0.0
O611 O 0.80095 0.76503 0.31106 0.0
O612 O 0.75096 0.21782 0.7179 0.0
Zn613 Zn 0.7613 0.22193 0.75822 0.0
O614 O 0.78471 0.25602 0.76401 0.0
Zn615 Zn 0.82071 0.24759 0.78192 0.0
Zn616 Zn 0.79064 0.27673 0.72944 0.0
Zn617 Zn 0.76465 0.27955 0.78793 0.0
O618 O 0.8273 0.26956 0.81817 0.0
O619 O 0.78902 0.29449 0.8179 0.0
O620 O 0.78403 0.18901 0.76719 0.0
O621 O 0.82394 0.20558 0.78668 0.0
O622 O 0.85215 0.25885 0.75639 0.0
O623 O 0.83192 0.27978 0.72082 0.0
O624 O 0.77329 0.31507 0.72897 0.0
O625 O 0.72568 0.22028 0.78156 0.0
O626 O 0.75043 0.31188 0.7685 0.0
O627 O 0.73123 0.2606 0.80418 0.0
C628 C 0.75699 0.23235 0.69662 0.0
C629 C 0.81269 0.28885 0.8283 0.0
C630 C 0.85375 0.27122 0.73315 0.0
C631 C 0.80791 0.18507 0.77834 0.0
C632 C 0.75588 0.32454 0.74614 0.0
C633 C 0.71733 0.23784 0.79934 0.0
O634 O 0.77197 0.25499 0.69829 0.0
O635 O 0.62425 0.76539 0.76875 0.0
Zn636 Zn 0.66021 0.74825 0.77651 0.0
O637 O 0.68871 0.77663 0.77771 0.0
Zn638 Zn 0.72299 0.76017 0.7676 0.0
Zn639 Zn 0.67945 0.8055 0.75286 0.0
Zn640 Zn 0.6896 0.78957 0.81509 0.0
O641 O 0.74782 0.75535 0.80087 0.0
O642 O 0.72421 0.77629 0.83407 0.0
O643 O 0.66878 0.72094 0.74686 0.0
O644 O 0.71553 0.72325 0.74789 0.0
O645 O 0.74159 0.78404 0.73906 0.0
O646 O 0.70292 0.79907 0.71863 0.0
O647 O 0.69359 0.84148 0.77111 0.0
O648 O 0.66014 0.73038 0.81363 0.0
O649 O 0.69382 0.83163 0.81611 0.0
O650 O 0.65661 0.77106 0.83445 0.0
C651 C 0.61778 0.78715 0.75554 0.0
C652 C 0.74532 0.76306 0.82601 0.0
C653 C 0.72874 0.79258 0.71764 0.0
C654 C 0.69232 0.71233 0.73891 0.0
C655 C 0.69807 0.84881 0.79634 0.0
C656 C 0.65734 0.74444 0.83582 0.0
O657 O 0.63654 0.80427 0.74587 0.0
O658 O 0.48887 0.58964 0.49179 0.0
Zn659 Zn 0.51287 0.56674 0.46684 0.0
O660 O 0.51184 0.52749 0.47744 0.0
Zn661 Zn 0.54753 0.51725 0.49392 0.0
Zn662 Zn 0.48168 0.52119 0.50363 0.0
Zn663 Zn 0.50471 0.50461 0.44483 0.0
O664 O 0.56249 0.48303 0.47579 0.0
O665 O 0.53292 0.47538 0.44047 0.0
O666 O 0.55228 0.58224 0.47155 0.0
O667 O 0.57645 0.54932 0.49224 0.0
O668 O 0.54165 0.50546 0.53308 0.0
O669 O 0.49522 0.50162 0.53745 0.0
O670 O 0.44973 0.49841 0.48671 0.0
O671 O 0.50135 0.57178 0.42679 0.0
O672 O 0.46674 0.48417 0.44659 0.0
O673 O 0.50511 0.52817 0.41133 0.0
C674 C 0.47239 0.58279 0.51141 0.0
C675 C 0.5544 0.46893 0.45451 0.0
C676 C 0.51991 0.4983 0.54685 0.0
C677 C 0.57502 0.57378 0.48212 0.0
C678 C 0.4471 0.4844 0.46426 0.0
C679 C 0.50204 0.55405 0.40703 0.0
O680 O 0.46771 0.5573 0.51782 0.0
O681 O 0.04252 0.42138 0.06017 0.0
Zn682 Zn 0.03215 0.45245 0.03622 0.0
O683 O 0.05471 0.4853 0.04682 0.0
Zn684 Zn 0.03026 0.51457 0.05731 0.0
Zn685 Zn 0.07959 0.47775 0.07806 0.0
Zn686 Zn 0.07563 0.49761 0.01509 0.0
O687 O 0.02808 0.5428 0.02807 0.0
O688 O 0.05757 0.53036 -0.00459 0.0
O689 O 0.99132 0.45741 0.04276 0.0
O690 O 0.99035 0.5001 0.06117 0.0
O691 O 0.04111 0.53193 0.09366 0.0
O692 O 0.06356 0.49655 0.11174 0.0
O693 O 0.11904 0.49424 0.07073 0.0
O694 O 0.03965 0.43938 -0.00282 0.0
O695 O 0.11475 0.50778 0.02679 0.0
O696 O 0.07769 0.46614 0.98829 0.0
C697 C 0.06155 0.41652 0.07791 0.0
C698 C 0.03866 0.54617 0.00427 0.0
C699 C 0.05011 0.51893 0.11463 0.0
C700 C 0.97809 0.47714 0.05373 0.0
C701 C 0.12935 0.50507 0.04878 0.0
C702 C 0.0611 0.44534 0.98252 0.0
O703 O 0.07955 0.43557 0.08589 0.0
H704 H 0.99086 0.11924 0.06555 0.0
H705 H 0.05444 0.16353 0.01795 0.0
H706 H 0.0538 0.1256 0.98411 0.0
H707 H 0.04025 0.07736 0.97148 0.0
H708 H 0.97759 0.03192 0.01907 0.0
H709 H 0.97247 0.07278 0.049 0.0
C710 C 0.00407 0.12082 0.04744 0.0
C711 C 0.02301 0.14396 0.04457 0.0
C712 C 0.00398 0.09858 0.02811 0.0
C713 C 0.03999 0.14573 0.02094 0.0
C714 C 0.03967 0.12404 0.00152 0.0
C715 C 0.02504 0.07658 0.98804 0.0
C716 C 0.00958 0.05156 0.99317 0.0
C717 C 0.02255 0.09994 0.00544 0.0
C718 C 0.98974 0.05096 0.01457 0.0
C719 C 0.98696 0.07427 0.03188 0.0
H720 H 0.07011 0.72218 0.31449 0.0
H721 H 0.04776 0.80661 0.29596 0.0
H722 H 0.08625 0.81097 0.26311 0.0
H723 H 0.13092 0.79373 0.24648 0.0
H724 H 0.15363 0.70953 0.26478 0.0
H725 H 0.10986 0.70172 0.29036 0.0
C726 C 0.07337 0.74132 0.30283 0.0
C727 C 0.05664 0.7643 0.30809 0.0
C728 C 0.09559 0.74369 0.28404 0.0
C729 C 0.06058 0.78875 0.29247 0.0
C730 C 0.08263 0.79129 0.27375 0.0
C731 C 0.12573 0.77337 0.25529 0.0
C732 C 0.14536 0.75229 0.25411 0.0
C733 C 0.10094 0.76933 0.27032 0.0
C734 C 0.13863 0.72594 0.26538 0.0
C735 C 0.11383 0.72165 0.28029 0.0
H736 H 0.47684 0.80224 0.59591 0.0
H737 H 0.41173 0.78762 0.53398 0.0
H738 H 0.43135 0.82673 0.50669 0.0
H739 H 0.46316 0.8684 0.50408 0.0
H740 H 0.52758 0.883 0.56702 0.0
H741 H 0.51256 0.83978 0.5899 0.0
C742 C 0.46706 0.80751 0.57631 0.0
C743 C 0.4425 0.79272 0.56718 0.0
C744 C 0.47839 0.82982 0.56096 0.0
C745 C 0.43047 0.79905 0.54146 0.0
C746 C 0.44166 0.82136 0.52595 0.0
C747 C 0.47433 0.86188 0.52249 0.0
C748 C 0.49606 0.87929 0.53417 0.0
C749 C 0.46509 0.8374 0.53598 0.0
C750 C 0.51061 0.87022 0.55772 0.0
C751 C 0.50189 0.8456 0.57097 0.0
H752 H 0.48133 0.25706 0.87595 0.0
H753 H 0.42953 0.25107 0.94873 0.0
H754 H 0.38871 0.26378 0.92146 0.0
H755 H 0.3678 0.27729 0.87743 0.0
H756 H 0.41821 0.28084 0.80385 0.0
H757 H 0.45977 0.26895 0.83116 0.0
C758 C 0.46107 0.25828 0.88582 0.0
C759 C 0.45858 0.25317 0.9144 0.0
C760 C 0.4376 0.2657 0.87003 0.0
C761 C 0.43211 0.25481 0.92679 0.0
C762 C 0.40876 0.26229 0.91126 0.0
C763 C 0.388 0.27595 0.86744 0.0
C764 C 0.39016 0.28051 0.83882 0.0
C765 C 0.41135 0.26812 0.883 0.0
C766 C 0.41621 0.27779 0.82596 0.0
C767 C 0.43986 0.27081 0.84151 0.0
H768 H 0.95023 0.82342 0.44292 0.0
H769 H 0.01077 0.84005 0.3786 0.0
H770 H 0.00335 0.89024 0.38276 0.0
H771 H 0.98417 0.92955 0.4091 0.0
H772 H 0.92709 0.91199 0.47593 0.0
H773 H 0.9281 0.86186 0.46598 0.0
C774 C 0.9617 0.83792 0.42959 0.0
C775 C 0.98147 0.82804 0.4109 0.0
C776 C 0.9578 0.86659 0.43251 0.0
C777 C 0.99573 0.84715 0.39348 0.0
C778 C 0.99148 0.87584 0.39582 0.0
C779 C 0.97134 0.91467 0.42081 0.0
C780 C 0.9554 0.92411 0.44302 0.0
C781 C 0.97316 0.88584 0.41584 0.0
C782 C 0.9393 0.90492 0.45863 0.0
C783 C 0.94008 0.87635 0.45309 0.0
H784 H 0.35375 0.75513 0.72898 0.0
H785 H 0.33056 0.75311 0.64239 0.0
H786 H 0.28159 0.76124 0.65418 0.0
H787 H 0.24506 0.76636 0.68958 0.0
H788 H 0.26943 0.77219 0.77582 0.0
H789 H 0.3184 0.76518 0.76381 0.0
C790 C 0.33795 0.75669 0.71273 0.0
C791 C 0.34546 0.75324 0.68495 0.0
C792 C 0.31015 0.76187 0.71964 0.0
C793 C 0.32509 0.75574 0.66394 0.0
C794 C 0.29715 0.76022 0.67068 0.0
C795 C 0.26121 0.76618 0.70564 0.0
C796 C 0.25383 0.7694 0.73352 0.0
C797 C 0.28938 0.76288 0.6985 0.0
C798 C 0.27479 0.76969 0.75422 0.0
C799 C 0.3027 0.76562 0.74738 0.0
H800 H 0.57678 0.17325 0.93853 0.0
H801 H 0.55578 0.17146 0.02521 0.0
H802 H 0.56757 0.12224 0.02747 0.0
H803 H 0.57568 0.07822 0.00288 0.0
H804 H 0.58985 0.07912 0.91491 0.0
H805 H 0.58961 0.13029 0.91505 0.0
C806 C 0.5754 0.1623 0.95809 0.0
C807 C 0.56511 0.17585 0.9816 0.0
C808 C 0.58089 0.13376 0.95887 0.0
C809 C 0.56336 0.16136 0.00676 0.0
C810 C 0.57006 0.13323 0.00804 0.0
C811 C 0.57971 0.08977 0.98398 0.0
C812 C 0.58294 0.07518 0.95894 0.0
C813 C 0.5777 0.11895 0.98396 0.0
C814 C 0.58746 0.09012 0.93439 0.0
C815 C 0.58708 0.11928 0.93446 0.0
H816 H 0.06186 0.22762 0.18941 0.0
H817 H 0.08825 0.14273 0.18425 0.0
H818 H 0.1232 0.15242 0.22129 0.0
H819 H 0.152 0.18722 0.24759 0.0
H820 H 0.13117 0.27404 0.24535 0.0
H821 H 0.08816 0.26167 0.21886 0.0
C822 C 0.07449 0.21098 0.19731 0.0
C823 C 0.07233 0.1844 0.18471 0.0
C824 C 0.09596 0.21737 0.21673 0.0
C825 C 0.08937 0.16316 0.19417 0.0
C826 C 0.10952 0.16881 0.21499 0.0
C827 C 0.13754 0.20326 0.24198 0.0
C828 C 0.14446 0.23145 0.24839 0.0
C829 C 0.11392 0.19618 0.22535 0.0
C830 C 0.12609 0.25223 0.24054 0.0
C831 C 0.10161 0.24515 0.22539 0.0
H832 H 0.0673 0.98457 0.15941 0.0
H833 H 0.02769 0.06072 0.13623 0.0
H834 H 0.00887 0.03786 0.09404 0.0
H835 H 0.01067 -0.00103 0.06053 0.0
H836 H 0.0552 0.92536 0.08196 0.0
H837 H 0.06448 0.94414 0.12858 0.0
C838 C 0.05422 0.99613 0.14539 0.0
C839 C 0.04939 0.02447 0.15065 0.0
C840 C 0.04429 0.98319 0.12092 0.0
C841 C 0.03201 0.03896 0.13246 0.0
C842 C 0.02127 0.02592 0.10834 0.0
C843 C 0.02145 0.98667 0.07584 0.0
C844 C 0.03216 0.96084 0.06817 0.0
C845 C 0.02818 -0.00162 0.1019 0.0
C846 C 0.04669 0.94523 0.08771 0.0
C847 C 0.05222 0.95608 0.11417 0.0
H848 H 0.22895 0.85855 0.43039 0.0
H849 H 0.29989 0.80963 0.4527 0.0
H850 H 0.30354 0.79369 0.40476 0.0
H851 H 0.2861 0.79322 0.35659 0.0
H852 H 0.21505 0.84247 0.33504 0.0
H853 H 0.21211 0.85869 0.38263 0.0
C854 C 0.24521 0.84438 0.42483 0.0
C855 C 0.26402 0.83524 0.4451 0.0
C856 C 0.24724 0.83535 0.39734 0.0
C857 C 0.28507 0.81698 0.43748 0.0
C858 C 0.28721 0.80785 0.41007 0.0
C859 C 0.27006 0.80757 0.36229 0.0
C860 C 0.25083 0.81649 0.34224 0.0
C861 C 0.26835 0.81686 0.38983 0.0
C862 C 0.23013 0.83513 0.35001 0.0
C863 C 0.22837 0.84446 0.37726 0.0
H864 H 0.41526 0.94772 0.68781 0.0
H865 H 0.36065 0.01433 0.66715 0.0
H866 H 0.39113 0.02786 0.62836 0.0
H867 H 0.43264 0.01946 0.59983 0.0
H868 H 0.48806 0.95398 0.62302 0.0
H869 H 0.45819 0.94177 0.66193 0.0
C870 C 0.40989 0.96504 0.67462 0.0
C871 C 0.38552 0.97964 0.67974 0.0
C872 C 0.42787 0.97316 0.65322 0.0
C873 C 0.37919 0.0026 0.6632 0.0
C874 C 0.39665 0.01038 0.64121 0.0
C875 C 0.43847 0.00286 0.61367 0.0
C876 C 0.46248 0.98754 0.60833 0.0
C877 C 0.42106 0.99575 0.63602 0.0
C878 C 0.46968 0.96607 0.62652 0.0
C879 C 0.45251 0.95891 0.6487 0.0
H880 H 0.22698 0.17282 0.94696 0.0
H881 H 0.31623 0.18126 0.964 0.0
H882 H 0.32213 0.21253 0.92467 0.0
H883 H 0.30213 0.23772 0.88618 0.0
H884 H 0.21371 0.22746 0.86624 0.0
H885 H 0.20712 0.1966 0.90634 0.0
C886 C 0.24771 0.18146 0.94198 0.0
C887 C 0.27114 0.17488 0.95843 0.0
C888 C 0.251 0.19918 0.91911 0.0
C889 C 0.29792 0.18593 0.9516 0.0
C890 C 0.30128 0.20392 0.92923 0.0
C891 C 0.2813 0.22902 0.89076 0.0
C892 C 0.25827 0.23525 0.87373 0.0
C893 C 0.27796 0.21082 0.91305 0.0
C894 C 0.23162 0.22314 0.87934 0.0
C895 C 0.22793 0.20549 0.90214 0.0
H896 H 0.03012 0.07169 0.28701 0.0
H897 H 0.10843 0.03515 0.30945 0.0
H898 H 0.09338 0.03126 0.35754 0.0
H899 H 0.05712 0.03625 0.39271 0.0
H900 H 0.9768 0.06785 0.36938 0.0
H901 H 0.99342 0.07596 0.32216 0.0
C902 C 0.04389 0.06306 0.30253 0.0
C903 C 0.07031 0.05377 0.29485 0.0
C904 C 0.03473 0.06005 0.32991 0.0
C905 C 0.08791 0.04228 0.31495 0.0
C906 C 0.07937 0.04013 0.34242 0.0
C907 C 0.04346 0.04528 0.37733 0.0
C908 C 0.01596 0.05177 0.38439 0.0
C909 C 0.05274 0.04871 0.35007 0.0
C910 C 0.99812 0.06283 0.36427 0.0
C911 C 0.00758 0.06739 0.33734 0.0
H912 H 0.17595 0.84498 0.5794 0.0
H913 H 0.2367 0.78038 0.58098 0.0
H914 H 0.20941 0.75503 0.61573 0.0
H915 H 0.17313 0.75521 0.65056 0.0
H916 H 0.11521 0.82226 0.65297 0.0
H917 H 0.13571 0.8419 0.61086 0.0
C918 C 0.18297 0.82515 0.58706 0.0
C919 C 0.2086 0.81489 0.5781 0.0
C920 C 0.16756 0.81101 0.60762 0.0
C921 C 0.21733 0.78904 0.58799 0.0
C922 C 0.20166 0.77443 0.60775 0.0
C923 C 0.16432 0.77363 0.64146 0.0
C924 C 0.14304 0.78756 0.65519 0.0
C925 C 0.17736 0.78576 0.61843 0.0
C926 C 0.13181 0.8113 0.64295 0.0
C927 C 0.14375 0.82273 0.61906 0.0
H928 H 0.42715 0.98716 0.79967 0.0
H929 H 0.39385 0.90645 0.82558 0.0
H930 H 0.43404 0.90191 0.85725 0.0
H931 H 0.47681 0.92291 0.88006 0.0
H932 H 0.5096 0.00353 0.85311 0.0
H933 H 0.47193 0.00569 0.81867 0.0
C934 C 0.42864 0.96863 0.81235 0.0
C935 C 0.40735 0.94747 0.81085 0.0
C936 C 0.45195 0.96596 0.82996 0.0
C937 C 0.40989 0.92318 0.82672 0.0
C938 C 0.4329 0.92053 0.8447 0.0
C939 C 0.47614 0.9405 0.86605 0.0
C940 C 0.49584 0.96307 0.86914 0.0
C941 C 0.45392 0.94196 0.84672 0.0
C942 C 0.49458 0.98594 0.85112 0.0
C943 C 0.47292 0.98733 0.83161 0.0
H944 H 0.26085 0.20964 0.08812 0.0
H945 H 0.31504 0.14649 0.11875 0.0
H946 H 0.3216 0.17266 0.16252 0.0
H947 H 0.3064 0.21019 0.19391 0.0
H948 H 0.25048 0.27174 0.16279 0.0
H949 H 0.25059 0.2498 0.11703 0.0
C950 C 0.27436 0.20171 0.10427 0.0
C951 C 0.28701 0.17593 0.10052 0.0
C952 C 0.27771 0.21664 0.12921 0.0
C953 C 0.30494 0.16621 0.1213 0.0
C954 C 0.30859 0.18113 0.1463 0.0
C955 C 0.29498 0.2193 0.17687 0.0
C956 C 0.27834 0.24251 0.18171 0.0
C957 C 0.29437 0.20595 0.15077 0.0
C958 C 0.26335 0.25387 0.15956 0.0
C959 C 0.26325 0.24122 0.13346 0.0
H960 H 0.22788 0.06017 0.97979 0.0
H961 H 0.21846 0.04154 0.06632 0.0
H962 H 0.18322 0.00422 0.05491 0.0
H963 H 0.14931 0.98348 0.02109 0.0
H964 H 0.15401 0.00777 0.93539 0.0
H965 H 0.19707 0.03596 0.94534 0.0
C966 C 0.21881 0.04712 -0.00405 0.0
C967 C 0.2259 0.05299 0.02374 0.0
C968 C 0.19735 0.02712 0.98929 0.0
C969 C 0.21353 0.03684 0.04477 0.0
C970 C 0.19321 0.01578 0.03823 0.0
C971 C 0.16028 0.99428 0.00447 0.0
C972 C 0.1486 0.99364 0.97756 0.0
C973 C 0.18408 0.01164 0.01067 0.0
C974 C 0.16264 0.00809 0.95627 0.0
C975 C 0.18717 0.02426 0.96198 0.0
H976 H 0.69992 0.45226 0.0684 0.0
H977 H 0.72955 0.47661 0.9876 0.0
H978 H 0.68907 0.50586 0.98144 0.0
H979 H 0.64354 0.52135 -0.00265 0.0
H980 H 0.61228 0.49439 0.07678 0.0
H981 H 0.65535 0.46952 0.08524 0.0
C982 C 0.69775 0.46424 0.04957 0.0
C983 C 0.71772 0.46218 0.02844 0.0
C984 C 0.67407 0.48044 0.04589 0.0
C985 C 0.71444 0.47772 0.00412 0.0
C986 C 0.69129 0.49443 0.00058 0.0
C987 C 0.64629 0.51043 0.01674 0.0
C988 C 0.62465 0.50974 0.03641 0.0
C989 C 0.67071 0.49551 0.0211 0.0
C990 C 0.62853 0.49522 0.06127 0.0
C991 C 0.65313 0.48093 0.06608 0.0
H992 H 0.85222 0.41102 0.20118 0.0
H993 H 0.79617 0.45662 0.25227 0.0
H994 H 0.76074 0.41781 0.24859 0.0
H995 H 0.75021 0.36715 0.23822 0.0
H996 H 0.80986 0.32145 0.19115 0.0
H997 H 0.83931 0.36385 0.18566 0.0
C998 C 0.83184 0.41279 0.21075 0.0
C999 C 0.82676 0.43635 0.22711 0.0
C1000 C 0.81251 0.39 0.20974 0.0
C1001 C 0.80038 0.43866 0.23939 0.0
C1002 C 0.78035 0.41628 0.23764 0.0
C1003 C 0.76935 0.36682 0.2263 0.0
C1004 C 0.7782 0.34131 0.21541 0.0
C1005 C 0.78682 0.39124 0.22406 0.0
C1006 C 0.80298 0.34087 0.20002 0.0
C1007 C 0.81978 0.36507 0.19683 0.0
H1008 H 0.8809 0.68264 0.52322 0.0
H1009 H 0.82283 0.62154 0.55858 0.0
H1010 H 0.85934 0.58691 0.55854 0.0
H1011 H 0.90738 0.57331 0.5461 0.0
H1012 H 0.9639 0.63478 0.50885 0.0
H1013 H 0.92843 0.66974 0.51204 0.0
C1014 C 0.8762 0.66184 0.5312 0.0
C1015 C 0.84909 0.65478 0.54088 0.0
C1016 C 0.89706 0.64193 0.53059 0.0
C1017 C 0.84349 0.62761 0.55098 0.0
C1018 C 0.86436 0.60775 0.5509 0.0
C1019 C 0.91197 0.5944 0.53888 0.0
C1020 C 0.93831 0.60125 0.52711 0.0
C1021 C 0.89117 0.61455 0.54039 0.0
C1022 C 0.9438 0.62873 0.51776 0.0
C1023 C 0.92352 0.64884 0.51963 0.0
H1024 H 0.18804 0.07365 0.24019 0.0
H1025 H 0.16444 0.13081 0.17613 0.0
H1026 H 0.20655 0.16046 0.18635 0.0
H1027 H 0.24263 0.17515 0.22029 0.0
H1028 H 0.25745 0.12407 0.29158 0.0
H1029 H 0.22757 0.0861 0.27125 0.0
C1030 C 0.19262 0.09216 0.2279 0.0
C1031 C 0.17329 0.10022 0.20751 0.0
C1032 C 0.21553 0.11004 0.23536 0.0
C1033 C 0.17907 0.1244 0.19199 0.0
C1034 C 0.20307 0.14129 0.19788 0.0
C1035 C 0.24037 0.15509 0.23062 0.0
C1036 C 0.25231 0.15201 0.25711 0.0
C1037 C 0.22055 0.13504 0.22045 0.0
C1038 C 0.24878 0.1265 0.27093 0.0
C1039 C 0.23124 0.10513 0.25954 0.0
H1040 H 0.30021 0.93794 0.49493 0.0
H1041 H 0.31813 0.93098 0.5822 0.0
H1042 H 0.35984 0.96234 0.57754 0.0
H1043 H 0.39591 0.9826 0.54703 0.0
H1044 H 0.38274 0.98023 0.45865 0.0
H1045 H 0.33426 0.96217 0.46492 0.0
C1046 C 0.31273 0.94425 0.51304 0.0
C1047 C 0.30622 0.93263 0.53891 0.0
C1048 C 0.33776 0.96024 0.50969 0.0
C1049 C 0.32281 0.94005 0.5622 0.0
C1050 C 0.34671 0.95771 0.55944 0.0
C1051 C 0.38194 0.97909 0.52929 0.0
C1052 C 0.39235 0.98297 0.50247 0.0
C1053 C 0.35512 0.96667 0.53306 0.0
C1054 C 0.37475 0.97764 0.47942 0.0
C1055 C 0.34723 0.96712 0.48306 0.0
H1056 H 0.87372 0.59793 0.22674 0.0
H1057 H 0.7998 0.57802 0.27487 0.0
H1058 H 0.78706 0.62686 0.27361 0.0
H1059 H 0.79833 0.67562 0.26146 0.0
H1060 H 0.87265 0.69602 0.21408 0.0
H1061 H 0.88357 0.64659 0.21226 0.0
C1062 C 0.85469 0.60421 0.23676 0.0
C1063 C 0.83787 0.58428 0.25105 0.0
C1064 C 0.84757 0.63247 0.23619 0.0
C1065 C 0.81324 0.59285 0.26383 0.0
C1066 C 0.80593 0.62083 0.26315 0.0
C1067 C 0.81681 0.66931 0.2505 0.0
C1068 C 0.83471 0.68967 0.23809 0.0
C1069 C 0.82316 0.64089 0.24979 0.0
C1070 C 0.85849 0.68092 0.2239 0.0
C1071 C 0.86482 0.65262 0.22291 0.0
H1072 H 0.7041 0.44043 0.71688 0.0
H1073 H 0.64088 0.40757 0.77272 0.0
H1074 H 0.66663 0.36505 0.77831 0.0
H1075 H 0.7067 0.33758 0.76796 0.0
H1076 H 0.7701 0.36837 0.71142 0.0
H1077 H 0.74436 0.41143 0.70512 0.0
C1078 C 0.69607 0.42396 0.73032 0.0
C1079 C 0.67072 0.42716 0.74451 0.0
C1080 C 0.71085 0.3993 0.73318 0.0
C1081 C 0.66032 0.40558 0.76157 0.0
C1082 C 0.67502 0.38128 0.7648 0.0
C1083 C 0.71506 0.35371 0.75427 0.0
C1084 C 0.74043 0.35001 0.74042 0.0
C1085 C 0.70024 0.378 0.75077 0.0
C1086 C 0.7506 0.37082 0.72234 0.0
C1087 C 0.73596 0.39542 0.71885 0.0
H1088 H 0.00644 0.77763 0.92634 0.0
H1089 H 0.96251 0.7937 0.0022 0.0
H1090 H 0.99661 0.83186 0.0136 0.0
H1091 H 0.03624 0.8628 8e-05 0.0
H1092 H 0.07818 0.84844 0.9228 0.0
H1093 H 0.04793 0.80657 0.91436 0.0
C1094 C 0.00433 0.78933 0.94549 0.0
C1095 C 0.9818 0.78294 0.96332 0.0
C1096 C 0.02388 0.81121 0.95182 0.0
C1097 C 0.97956 0.79826 0.98806 0.0
C1098 C -0.0009 0.82 -0.00537 0.0
C1099 C 0.03941 0.85006 0.98179 0.0
C1100 C 0.05957 0.85863 0.96212 0.0
C1101 C 0.02112 0.82685 0.97648 0.0
C1102 C 0.06296 0.84214 0.93831 0.0
C1103 C 0.04547 0.81842 0.93334 0.0
H1104 H 0.95815 0.27903 0.65445 0.0
H1105 H -0.00064 0.24651 0.72676 0.0
H1106 H 0.95516 0.24724 0.75214 0.0
H1107 H 0.9048 0.25666 0.75338 0.0
H1108 H 0.86443 0.29045 0.68106 0.0
H1109 H 0.90862 0.29003 0.6562 0.0
C1110 C 0.95747 0.27189 0.67571 0.0
C1111 C 0.98191 0.26241 0.68863 0.0
C1112 C 0.93225 0.27286 0.69023 0.0
C1113 C 0.98078 0.25375 0.71633 0.0
C1114 C 0.95555 0.25423 0.73085 0.0
C1115 C 0.90566 0.26412 0.73224 0.0
C1116 C 0.88122 0.27347 0.71912 0.0
C1117 C 0.93116 0.26376 0.71798 0.0
C1118 C 0.88285 0.28316 0.69174 0.0
C1119 C 0.9081 0.28281 0.67742 0.0
H1120 H 0.53787 0.17691 0.44963 0.0
H1121 H 0.4801 0.19727 0.51437 0.0
H1122 H 0.47956 0.14915 0.53044 0.0
H1123 H 0.49136 0.10055 0.52312 0.0
H1124 H 0.54853 0.07954 0.45815 0.0
H1125 H 0.55371 0.12881 0.44547 0.0
C1126 C 0.52545 0.17092 0.46748 0.0
C1127 C 0.50867 0.19057 0.48044 0.0
C1128 C 0.52492 0.14307 0.47645 0.0
C1129 C 0.49297 0.18252 0.50376 0.0
C1130 C 0.49258 0.15497 0.51297 0.0
C1131 C 0.5051 0.10671 0.50627 0.0
C1132 C 0.519 0.08633 0.4912 0.0
C1133 C 0.50777 0.13494 0.49893 0.0
C1134 C 0.53723 0.09477 0.46985 0.0
C1135 C 0.5402 0.12294 0.46256 0.0
H1136 H 0.61241 0.75108 0.23587 0.0
H1137 H 0.61481 0.82049 0.17909 0.0
H1138 H 0.66549 0.82711 0.18704 0.0
H1139 H 0.70921 0.81158 0.20819 0.0
H1140 H 0.70661 0.74156 0.26426 0.0
H1141 H 0.65567 0.73662 0.25816 0.0
C1142 C 0.62388 0.76788 0.22539 0.0
C1143 C 0.60979 0.78522 0.20682 0.0
C1144 C 0.65298 0.77118 0.22961 0.0
C1145 C 0.62509 0.80686 0.1935 0.0
C1146 C 0.65409 0.81054 0.19791 0.0
C1147 C 0.69757 0.79514 0.21903 0.0
C1148 C 0.7118 0.77678 0.23648 0.0
C1149 C 0.6683 0.79249 0.21552 0.0
C1150 C 0.69626 0.75587 0.25061 0.0
C1151 C 0.66712 0.75308 0.24719 0.0
H1152 H 0.00981 0.20465 0.57655 0.0
H1153 H 0.08795 0.21585 0.5329 0.0
H1154 H 0.07876 0.17116 0.50863 0.0
H1155 H 0.04844 0.12831 0.50048 0.0
H1156 H 0.96998 0.11926 0.54437 0.0
H1157 H 0.97952 0.16358 0.56771 0.0
C1158 C 0.0249 0.19737 0.56175 0.0
C1159 C 0.04955 0.21345 0.55667 0.0
C1160 C 0.01944 0.17194 0.54784 0.0
C1161 C 0.06873 0.20382 0.53719 0.0
C1162 C 0.06354 0.17825 0.52334 0.0
C1163 C 0.03349 0.1361 0.51512 0.0
C1164 C 0.00857 0.12035 0.52055 0.0
C1165 C 0.03896 0.16202 0.5286 0.0
C1166 C 0.98931 0.13085 0.53954 0.0
C1167 C 0.99471 0.15626 0.55306 0.0
H1168 H 0.57216 0.30356 0.33289 0.0
H1169 H 0.57794 0.22009 0.36563 0.0
H1170 H 0.61539 0.21069 0.33352 0.0
H1171 H 0.64731 0.22625 0.29765 0.0
H1172 H 0.643 0.3095 0.26428 0.0
H1173 H 0.60383 0.31882 0.29514 0.0
C1174 C 0.58152 0.28327 0.33288 0.0
C1175 C 0.57232 0.26261 0.35176 0.0
C1176 C 0.60327 0.27798 0.31437 0.0
C1177 C 0.58464 0.23642 0.35145 0.0
C1178 C 0.60609 0.23099 0.33309 0.0
C1179 C 0.63791 0.24652 0.297 0.0
C1180 C 0.64826 0.26725 0.27882 0.0
C1181 C 0.61571 0.25168 0.31471 0.0
C1182 C 0.63547 0.2932 0.27812 0.0
C1183 C 0.61314 0.29853 0.29579 0.0
H1184 H 0.50002 0.84165 0.09367 0.0
H1185 H 0.58535 0.82261 0.07385 0.0
H1186 H 0.58096 0.84617 0.02951 0.0
H1187 H 0.5538 0.87377 -0.0027 0.0
H1188 H 0.46881 0.89405 0.01713 0.0
H1189 H 0.4719 0.86761 0.0601 0.0
C1190 C 0.51769 0.84279 0.0797 0.0
C1191 C 0.54307 0.8306 0.0872 0.0
C1192 C 0.51494 0.85615 0.05402 0.0
C1193 C 0.56563 0.83193 0.06868 0.0
C1194 C 0.5631 0.84528 0.04323 0.0
C1195 C 0.53566 0.87191 0.01063 0.0
C1196 C 0.51108 0.8859 0.00388 0.0
C1197 C 0.53789 0.8575 0.03571 0.0
C1198 C 0.48796 0.88342 0.0217 0.0
C1199 C 0.48981 0.86855 0.04645 0.0
H1200 H 0.83829 0.75704 0.91957 0.0
H1201 H 0.86471 0.69029 0.86688 0.0
H1202 H 0.82423 0.69627 0.83615 0.0
H1203 H 0.78297 0.72232 0.82293 0.0
H1204 H 0.75836 0.7915 0.87382 0.0
H1205 H 0.79759 0.78417 0.90547 0.0
C1206 C 0.8349 0.74375 0.9015 0.0
C1207 C 0.85415 0.72325 0.89548 0.0
C1208 C 0.81229 0.74812 0.88336 0.0
C1209 C 0.84997 0.70619 0.87187 0.0
C1210 C 0.82694 0.70965 0.85429 0.0
C1211 C 0.78598 0.73551 0.8412 0.0
C1212 C 0.76781 0.75733 0.8461 0.0
C1213 C 0.80821 0.73082 0.85963 0.0
C1214 C 0.77192 0.77434 0.86977 0.0
C1215 C 0.79422 0.77002 0.88802 0.0
H1216 H 0.95182 -0.00137 0.80804 0.0
H1217 H 0.96699 0.91276 0.78632 0.0
H1218 H 0.01 0.91481 0.81394 0.0
H1219 H 0.03933 0.93829 0.84913 0.0
H1220 H 0.02236 0.0225 0.87479 0.0
H1221 H 0.98522 0.02435 0.83956 0.0
C1222 C 0.96466 0.98045 0.80919 0.0
C1223 C 0.95578 0.95538 0.79566 0.0
C1224 C 0.98933 0.98158 0.82553 0.0
C1225 C 0.97293 0.93216 0.797 0.0
C1226 C 0.9977 0.93334 0.81263 0.0
C1227 C 0.02802 0.95736 0.84658 0.0
C1228 C 0.03311 0.9799 0.86506 0.0
C1229 C 0.00559 0.95761 0.82764 0.0
C1230 C 0.01874 0.00469 0.86101 0.0
C1231 C 0.99714 0.0056 0.84116 0.0
H1232 H 0.72709 0.169 0.58501 0.0
H1233 H 0.72183 0.25356 0.55568 0.0
H1234 H 0.73387 0.2717 0.60222 0.0
H1235 H 0.7463 0.26309 0.65105 0.0
H1236 H 0.74764 0.17818 0.68059 0.0
H1237 H 0.73634 0.16043 0.63406 0.0
C1238 C 0.72878 0.19141 0.58883 0.0
C1239 C 0.72413 0.21003 0.56709 0.0
C1240 C 0.73474 0.2015 0.6156 0.0
C1241 C 0.72558 0.23896 0.57224 0.0
C1242 C 0.7324 0.24926 0.59875 0.0
C1243 C 0.744 0.24072 0.64725 0.0
C1244 C 0.74792 0.22192 0.66907 0.0
C1245 C 0.73705 0.23069 0.62057 0.0
C1246 C 0.74456 0.19301 0.66409 0.0
C1247 C 0.73828 0.18286 0.6375 0.0
H1248 H 0.51628 0.95472 0.30943 0.0
H1249 H 0.60485 0.95775 0.33009 0.0
H1250 H 0.59385 0.9525 0.37912 0.0
H1251 H 0.55919 0.95483 0.416 0.0
H1252 H 0.47066 0.95241 0.39571 0.0
H1253 H 0.48145 0.94928 0.34628 0.0
C1254 C 0.53315 0.95374 0.32466 0.0
C1255 C 0.56128 0.95728 0.31643 0.0
C1256 C 0.52667 0.95114 0.3527 0.0
C1257 C 0.58303 0.9553 0.33609 0.0
C1258 C 0.57676 0.95249 0.36408 0.0
C1259 C 0.54229 0.95316 0.4007 0.0
C1260 C 0.51426 0.95448 0.40909 0.0
C1261 C 0.54868 0.95163 0.37261 0.0
C1262 C 0.49239 0.95163 0.38945 0.0
C1263 C 0.49857 0.95001 0.3613 0.0
H1264 H 0.81368 0.84186 0.05957 0.0
H1265 H 0.84311 0.75844 0.04785 0.0
H1266 H 0.85694 0.75666 0.09656 0.0
H1267 H 0.85514 0.77653 0.14348 0.0
H1268 H 0.82333 0.85881 0.15535 0.0
H1269 H 0.81685 0.86374 0.10542 0.0
C1270 C 0.82321 0.82334 0.06766 0.0
C1271 C 0.8268 0.80013 0.05033 0.0
C1272 C 0.83098 0.82238 0.09564 0.0
C1273 C 0.83976 0.77649 0.0609 0.0
C1274 C 0.84777 0.77545 0.08872 0.0
C1275 C 0.84771 0.79585 0.13496 0.0
C1276 C 0.83958 0.81722 0.15277 0.0
C1277 C 0.84285 0.79801 0.10641 0.0
C1278 C 0.82962 0.84209 0.14178 0.0
C1279 C 0.82566 0.84481 0.11334 0.0
H1280 H 0.90118 0.0046 0.66972 0.0
H1281 H 0.90375 0.91533 0.65644 0.0
H1282 H 0.92395 0.9231 0.61077 0.0
H1283 H 0.94238 0.95538 0.57519 0.0
H1284 H 0.93941 0.04454 0.58901 0.0
H1285 H 0.91818 0.03657 0.63401 0.0
C1286 C 0.90589 0.98679 0.65678 0.0
C1287 C 0.90102 0.95945 0.66656 0.0
C1288 C 0.91779 0.99137 0.63074 0.0
C1289 C 0.90727 0.93664 0.64944 0.0
C1290 C 0.91897 0.94104 0.62336 0.0
C1291 C 0.93724 0.97303 0.58815 0.0
C1292 C 0.94261 0.00047 0.57883 0.0
C1293 C 0.92469 0.96833 0.61396 0.0
C1294 C 0.9355 0.02317 0.59569 0.0
C1295 C 0.9233 0.01867 0.62142 0.0
H1296 H 0.73013 0.23551 0.41886 0.0
H1297 H 0.74076 0.14665 0.41129 0.0
H1298 H 0.75952 0.15287 0.36487 0.0
H1299 H 0.76754 0.1828 0.32462 0.0
H1300 H 0.75867 0.2718 0.33191 0.0
H1301 H 0.74565 0.2666 0.3806 0.0
C1302 C 0.73672 0.21764 0.407 0.0
C1303 C 0.73355 0.19063 0.41806 0.0
C1304 C 0.74815 0.22145 0.38051 0.0
C1305 C 0.74278 0.16761 0.40296 0.0
C1306 C 0.75357 0.17114 0.37649 0.0
C1307 C 0.76374 0.20112 0.33723 0.0
C1308 C 0.764 0.22758 0.32491 0.0
C1309 C 0.75577 0.19786 0.36486 0.0
C1310 C 0.75896 0.25126 0.34119 0.0
C1311 C 0.75102 0.24821 0.36885 0.0
H1312 H 0.60556 0.95299 0.15604 0.0
H1313 H 0.51736 0.93663 0.17134 0.0
H1314 H 0.5079 0.93312 0.12151 0.0
H1315 H 0.52328 0.9445 0.07478 0.0
H1316 H 0.61068 0.96699 0.06017 0.0
H1317 H 0.62194 0.95842 0.10867 0.0
C1318 C 0.58444 0.94766 0.14845 0.0
C1319 C 0.5621 0.94534 0.16706 0.0
C1320 C 0.57894 0.94773 0.11997 0.0
C1321 C 0.53479 0.93864 0.15717 0.0
C1322 C 0.52937 0.93695 0.12876 0.0
C1323 C 0.54485 0.94731 0.0821 0.0
C1324 C 0.56596 0.95723 0.06414 0.0
C1325 C 0.55102 0.94318 0.11009 0.0
C1326 C 0.59391 0.96007 0.07379 0.0
C1327 C 0.6004 0.95504 0.10146 0.0
H1328 H 0.75259 0.72476 0.91645 0.0
H1329 H 0.7082 0.78674 0.96208 0.0
H1330 H 0.66651 0.7776 0.93337 0.0
H1331 H 0.64832 0.76196 0.88808 0.0
H1332 H 0.69339 0.70169 0.84106 0.0
H1333 H 0.72845 0.69941 0.87791 0.0
C1334 C 0.73346 0.73549 0.92074 0.0
C1335 C 0.73377 0.75714 0.94053 0.0
C1336 C 0.70969 0.7307 0.90362 0.0
C1337 C 0.70872 0.77056 0.94628 0.0
C1338 C 0.68482 0.76538 0.92988 0.0
C1339 C 0.6651 0.74737 0.88653 0.0
C1340 C 0.66884 0.73291 0.86159 0.0
C1341 C 0.68582 0.74698 0.90731 0.0
C1342 C 0.69025 0.71351 0.85992 0.0
C1343 C 0.71061 0.71243 0.88088 0.0
H1344 H 0.89175 0.81995 0.92673 0.0
H1345 H 0.83727 0.88954 0.9343 0.0
H1346 H 0.87805 0.92208 0.93613 0.0
H1347 H 0.92909 0.93006 0.94265 0.0
H1348 H 0.98351 0.86058 0.93511 0.0
H1349 H 0.94285 0.82866 0.92663 0.0
C1350 C 0.8887 0.84228 0.92798 0.0
C1351 C 0.86147 0.85221 0.93095 0.0
C1352 C 0.91228 0.86085 0.92986 0.0
C1353 C 0.85799 0.88126 0.9323 0.0
C1354 C 0.88133 0.89991 0.93365 0.0
C1355 C 0.93196 0.90796 0.93898 0.0
C1356 C 0.95908 0.89755 0.94003 0.0
C1357 C 0.90854 0.88981 0.93377 0.0
C1358 C 0.96273 0.869 0.93462 0.0
C1359 C 0.93952 0.85076 0.92972 0.0
H1360 H 0.33844 0.59075 0.956 0.0
H1361 H 0.37873 0.67187 0.94176 0.0
H1362 H 0.42399 0.65043 0.93724 0.0
H1363 H 0.45296 0.61002 0.94504 0.0
H1364 H 0.41356 0.52883 0.95949 0.0
H1365 H 0.367 0.5487 0.95548 0.0
C1366 C 0.35706 0.60365 0.95143 0.0
C1367 C 0.35531 0.63295 0.94985 0.0
C1368 C 0.38315 0.59117 0.94891 0.0
C1369 C 0.3795 0.64933 0.94339 0.0
C1370 C 0.40545 0.6371 0.94085 0.0
C1371 C 0.4341 0.59655 0.94633 0.0
C1372 C 0.43648 0.56813 0.95265 0.0
C1373 C 0.40764 0.60824 0.94463 0.0
C1374 C 0.4121 0.55074 0.95435 0.0
C1375 C 0.38554 0.5622 0.95245 0.0
H1376 H 0.13864 0.5711 0.77546 0.0
H1377 H 0.0875 0.5902 0.84572 0.0
H1378 H 0.09689 0.64027 0.8385 0.0
H1379 H 0.11532 0.67808 0.80952 0.0
H1380 H 0.16365 0.65938 0.73703 0.0
H1381 H 0.15935 0.60943 0.74765 0.0
C1382 C 0.13023 0.58624 0.78965 0.0
C1383 C 0.11262 0.57709 0.81126 0.0
C1384 C 0.13459 0.61493 0.78452 0.0
C1385 C 0.10127 0.59685 0.8291 0.0
C1386 C 0.10642 0.62542 0.8248 0.0
C1387 C 0.12504 0.66318 0.79599 0.0
C1388 C 0.13953 0.6725 0.77229 0.0
C1389 C 0.12227 0.63463 0.80206 0.0
C1390 C 0.15212 0.65279 0.75522 0.0
C1391 C 0.14978 0.62425 0.76136 0.0
H1392 H 0.18306 0.40976 0.50624 0.0
H1393 H 0.2236 0.47042 0.56185 0.0
H1394 H 0.18325 0.50021 0.55764 0.0
H1395 H 0.13615 0.50855 0.5388 0.0
H1396 H 0.09622 0.448 0.48254 0.0
H1397 H 0.13688 0.41884 0.48616 0.0
C1398 C 0.18307 0.42946 0.51755 0.0
C1399 C 0.20624 0.43774 0.53453 0.0
C1400 C 0.16 0.4466 0.51476 0.0
C1401 C 0.20602 0.4635 0.54871 0.0
C1402 C 0.18296 0.48056 0.54628 0.0
C1403 C 0.13638 0.48908 0.52714 0.0
C1404 C 0.11303 0.48052 0.51046 0.0
C1405 C 0.15982 0.47229 0.5294 0.0
C1406 C 0.11383 0.45521 0.4955 0.0
C1407 C 0.13705 0.43842 0.49765 0.0
H1408 H 0.8109 0.91329 0.8142 0.0
H1409 H 0.78783 0.94734 0.73522 0.0
H1410 H 0.73973 0.92793 0.74003 0.0
H1411 H 0.70798 0.89333 0.76239 0.0
H1412 H 0.73094 0.86029 0.84211 0.0
H1413 H 0.7747 0.88839 0.84204 0.0
C1414 C 0.79501 0.91711 0.79853 0.0
C1415 C 0.80266 0.9312 0.77424 0.0
C1416 C 0.76743 0.90607 0.80156 0.0
C1417 C 0.78215 0.93638 0.75404 0.0
C1418 C 0.75475 0.92522 0.75674 0.0
C1419 C 0.72204 0.89309 0.78023 0.0
C1420 C 0.71659 0.87399 0.80172 0.0
C1421 C 0.74757 0.90888 0.77982 0.0
C1422 C 0.73471 0.87444 0.82502 0.0
C1423 C 0.76003 0.89026 0.82486 0.0
H1424 H 0.67266 0.07632 0.50577 0.0
H1425 H 0.60575 0.13435 0.51148 0.0
H1426 H 0.57335 0.09634 0.52588 0.0
H1427 H 0.56354 0.04627 0.53425 0.0
H1428 H 0.62904 0.98783 0.52367 0.0
H1429 H 0.66308 0.02662 0.51491 0.0
C1430 C 0.65098 0.08074 0.51015 0.0
C1431 C 0.64163 0.10817 0.50745 0.0
C1432 C 0.6325 0.05882 0.51816 0.0
C1433 C 0.61345 0.11342 0.51314 0.0
C1434 C 0.59498 0.09174 0.52159 0.0
C1435 C 0.58552 0.04224 0.53092 0.0
C1436 C 0.59421 0.01453 0.5304 0.0
C1437 C 0.60428 0.06439 0.52406 0.0
C1438 C 0.62231 0.00916 0.52498 0.0
C1439 C 0.64153 0.03125 0.51951 0.0
H1440 H 0.1862 0.43436 0.85257 0.0
H1441 H 0.19335 0.46019 0.76734 0.0
H1442 H 0.23397 0.43141 0.76168 0.0
H1443 H 0.26346 0.39492 0.77894 0.0
H1444 H 0.25471 0.36583 0.86291 0.0
H1445 H 0.21936 0.40062 0.87136 0.0
C1446 C 0.19692 0.43401 0.83288 0.0
C1447 C 0.1865 0.44912 0.81028 0.0
C1448 C 0.21997 0.41686 0.82957 0.0
C1449 C 0.20067 0.44849 0.78495 0.0
C1450 C 0.22395 0.43208 0.7817 0.0
C1451 C 0.25421 0.39642 0.79929 0.0
C1452 C 0.26143 0.37747 0.82013 0.0
C1453 C 0.2332 0.41556 0.80359 0.0
C1454 C 0.24953 0.3801 0.84647 0.0
C1455 C 0.22909 0.3998 0.85121 0.0
H1456 H 0.33567 0.60035 0.25893 0.0
H1457 H 0.2581 0.56831 0.22118 0.0
H1458 H 0.23722 0.61374 0.22808 0.0
H1459 H 0.24198 0.66293 0.24266 0.0
H1460 H 0.31951 0.69474 0.28089 0.0
H1461 H 0.3392 0.64858 0.27666 0.0
C1462 C 0.31421 0.60333 0.2521 0.0
C1463 C 0.29856 0.58119 0.23911 0.0
C1464 C 0.30228 0.62927 0.25653 0.0
C1465 C 0.27061 0.58514 0.231 0.0
C1466 C 0.25867 0.61105 0.235 0.0
C1467 C 0.26308 0.65975 0.25041 0.0
C1468 C 0.27933 0.68239 0.26186 0.0
C1469 C 0.27442 0.63331 0.24752 0.0
C1470 C 0.30651 0.67774 0.27203 0.0
C1471 C 0.31789 0.6514 0.26938 0.0
H1472 H 0.44151 0.69065 0.57772 0.0
H1473 H 0.42776 0.62945 0.64201 0.0
H1474 H 0.43694 0.59188 0.60917 0.0
H1475 H 0.45183 0.57684 0.56322 0.0
H1476 H 0.46812 0.63833 0.49974 0.0
H1477 H 0.45456 0.67546 0.53132 0.0
C1478 C 0.44029 0.66909 0.58457 0.0
C1479 C 0.4341 0.66289 0.61235 0.0
C1480 C 0.44602 0.64769 0.56574 0.0
C1481 C 0.43264 0.63482 0.6208 0.0
C1482 C 0.43786 0.61333 0.60203 0.0
C1483 C 0.45201 0.59831 0.55611 0.0
C1484 C 0.461 0.60482 0.52915 0.0
C1485 C 0.44496 0.61958 0.57458 0.0
C1486 C 0.46137 0.63278 0.5204 0.0
C1487 C 0.4537 0.65401 0.53846 0.0
H1488 H 0.60688 0.20027 0.86314 0.0
H1489 H 0.60997 0.28873 0.88255 0.0
H1490 H 0.6516 0.29556 0.85429 0.0
H1491 H 0.68808 0.27654 0.82603 0.0
H1492 H 0.6862 0.18841 0.80578 0.0
H1493 H 0.6429 0.18135 0.8324 0.0
C1494 C 0.61653 0.22107 0.86099 0.0
C1495 C 0.60537 0.24393 0.87513 0.0
C1496 C 0.64071 0.22489 0.84476 0.0
C1497 C 0.61813 0.27074 0.87206 0.0
C1498 C 0.64199 0.27469 0.85593 0.0
C1499 C 0.67832 0.25569 0.8274 0.0
C1500 C 0.69058 0.23295 0.81422 0.0
C1501 C 0.65364 0.25188 0.84256 0.0
C1502 C 0.67726 0.20624 0.81583 0.0
C1503 C 0.65255 0.20222 0.83107 0.0
H1504 H 0.08312 0.29126 0.10765 0.0
H1505 H 0.9933 0.28457 0.0935 0.0
H1506 H 0.99245 0.33507 0.08698 0.0
H1507 H 0.01737 0.38029 0.08249 0.0
H1508 H 0.10705 0.38796 0.09646 0.0
H1509 H 0.10776 0.33772 0.10656 0.0
C1510 C 0.06336 0.30086 0.10315 0.0
C1511 C 0.03834 0.28412 0.10064 0.0
C1512 C 0.063 0.32996 0.09959 0.0
C1513 C 0.01284 0.29692 0.09534 0.0
C1514 C 0.01234 0.32579 0.09163 0.0
C1515 C 0.0371 0.37103 0.08795 0.0
C1516 C 0.06221 0.38764 0.08839 0.0
C1517 C 0.03732 0.34237 0.09333 0.0
C1518 C 0.08748 0.37555 0.09601 0.0
C1519 C 0.08788 0.34684 0.10154 0.0
H1520 H 0.94598 0.76983 0.38157 0.0
H1521 H 0.97652 0.70657 0.32704 0.0
H1522 H 0.96076 0.733 0.28669 0.0
H1523 H 0.93176 0.77041 0.26838 0.0
H1524 H 0.90521 0.83532 0.32383 0.0
H1525 H 0.92858 0.81317 0.36238 0.0
C1526 C 0.95001 0.76228 0.36086 0.0
C1527 C 0.96185 0.73619 0.35709 0.0
C1528 C 0.94213 0.7781 0.33804 0.0
C1529 C 0.96689 0.72645 0.33023 0.0
C1530 C 0.9581 0.74163 0.30726 0.0
C1531 C 0.93192 0.78031 0.28868 0.0
C1532 C 0.91557 0.80375 0.2934 0.0
C1533 C 0.94483 0.76706 0.31102 0.0
C1534 C 0.9169 0.81684 0.31964 0.0
C1535 C 0.92991 0.80395 0.34188 0.0
H1536 H 0.53723 0.3412 0.94753 0.0
H1537 H 0.54505 0.32691 0.03532 0.0
H1538 H 0.53925 0.37681 0.04453 0.0
H1539 H 0.52985 0.42383 0.02754 0.0
H1540 H 0.51872 0.43701 0.93973 0.0
H1541 H 0.52728 0.38787 0.93064 0.0
C1542 C 0.53826 0.34912 0.96866 0.0
C1543 C 0.54206 0.33061 0.99073 0.0
C1544 C 0.53364 0.37741 0.97378 0.0
C1545 C 0.5425 0.34093 0.01803 0.0
C1546 C 0.53894 0.36934 0.02328 0.0
C1547 C 0.52917 0.41596 0.0064 0.0
C1548 C 0.52359 0.43411 0.98435 0.0
C1549 C 0.53403 0.38766 0.00131 0.0
C1550 C 0.52271 0.42349 0.95712 0.0
C1551 C 0.52785 0.39544 0.95186 0.0
H1552 H 0.91533 0.18935 0.13513 0.0
H1553 H 0.95299 0.23767 0.2029 0.0
H1554 H 0.90695 0.2429 0.22314 0.0
H1555 H 0.85596 0.23567 0.22092 0.0
H1556 H 0.81731 0.18841 0.15299 0.0
H1557 H 0.86368 0.18071 0.13378 0.0
C1558 C 0.91346 0.20089 0.1544 0.0
C1559 C 0.93769 0.2132 0.16734 0.0
C1560 C 0.8867 0.20406 0.16597 0.0
C1561 C 0.9348 0.22808 0.19233 0.0
C1562 C 0.90842 0.23109 0.204 0.0
C1563 C 0.85756 0.22346 0.20202 0.0
C1564 C 0.83302 0.21272 0.18846 0.0
C1565 C 0.88422 0.21943 0.19088 0.0
C1566 C 0.83575 0.19699 0.16394 0.0
C1567 C 0.8623 0.19262 0.15287 0.0
H1568 H 0.07916 0.6953 0.42501 0.0
H1569 H 0.04478 0.73199 0.4982 0.0
H1570 H 0.0605 0.69308 0.52605 0.0
H1571 H 0.06833 0.64282 0.52541 0.0
H1572 H 0.09333 0.60321 0.44983 0.0
H1573 H 0.09806 0.64864 0.42722 0.0
C1574 C 0.07654 0.69541 0.44731 0.0
C1575 C 0.06051 0.71595 0.45962 0.0
C1576 C 0.0834 0.6718 0.4626 0.0
C1577 C 0.05692 0.71607 0.48842 0.0
C1578 C 0.0656 0.69366 0.50424 0.0
C1579 C 0.0763 0.64448 0.50449 0.0
C1580 C 0.08025 0.62007 0.48907 0.0
C1581 C 0.07656 0.67036 0.49105 0.0
C1582 C 0.09017 0.62199 0.4619 0.0
C1583 C 0.09252 0.64792 0.44892 0.0
H1584 H 0.49055 0.75758 0.74165 0.0
H1585 H 0.50784 0.78376 0.65807 0.0
H1586 H 0.55458 0.80178 0.67245 0.0
H1587 H 0.59301 0.80322 0.70742 0.0
H1588 H 0.57525 0.77628 0.79064 0.0
H1589 H 0.52612 0.76631 0.77803 0.0
C1590 C 0.50443 0.76758 0.72669 0.0
C1591 C 0.49606 0.76877 0.6988 0.0
C1592 C 0.53123 0.77786 0.73507 0.0
C1593 C 0.51395 0.78233 0.67969 0.0
C1594 C 0.54072 0.79261 0.68786 0.0
C1595 C 0.5781 0.79616 0.72294 0.0
C1596 C 0.58765 0.79017 0.74977 0.0
C1597 C 0.54995 0.78962 0.71532 0.0
C1598 C 0.56827 0.78081 0.76975 0.0
C1599 C 0.54025 0.77488 0.76253 0.0
H1600 H 0.53387 0.49716 0.67423 0.0
H1601 H 0.61391 0.46518 0.65143 0.0
H1602 H 0.59694 0.45761 0.60403 0.0
H1603 H 0.56377 0.47087 0.56763 0.0
H1604 H 0.48449 0.50464 0.5901 0.0
H1605 H 0.49657 0.50036 0.63913 0.0
C1606 C 0.5473 0.48776 0.65907 0.0
C1607 C 0.57538 0.4827 0.66597 0.0
C1608 C 0.53774 0.48433 0.63169 0.0
C1609 C 0.59234 0.46975 0.64646 0.0
C1610 C 0.58274 0.46564 0.61927 0.0
C1611 C 0.5489 0.47665 0.58332 0.0
C1612 C 0.52373 0.48884 0.57547 0.0
C1613 C 0.55619 0.47462 0.61136 0.0
C1614 C 0.50419 0.49555 0.59577 0.0
C1615 C 0.51114 0.49324 0.62378 0.0
H1616 H 0.84143 0.33076 0.94856 0.0
H1617 H 0.78417 0.39405 0.92384 0.0
H1618 H 0.78476 0.37662 0.87621 0.0
H1619 H 0.79574 0.33947 0.84379 0.0
H1620 H 0.84996 0.27389 0.86899 0.0
H1621 H 0.85686 0.29662 0.9144 0.0
C1622 C 0.8294 0.34108 0.93271 0.0
C1623 C 0.81229 0.36335 0.93985 0.0
C1624 C 0.82914 0.3304 0.90562 0.0
C1625 C 0.79722 0.3767 0.91897 0.0
C1626 C 0.79748 0.36668 0.89177 0.0
C1627 C 0.80936 0.33025 0.8591 0.0
C1628 C 0.82182 0.30469 0.85337 0.0
C1629 C 0.81243 0.34288 0.8852 0.0
C1630 C 0.83998 0.29342 0.87305 0.0
C1631 C 0.84375 0.30632 0.89902 0.0
H1632 H 0.95578 0.53696 0.19875 0.0
H1633 H 0.98633 0.45867 0.22844 0.0
H1634 H 0.02752 0.4642 0.1996 0.0
H1635 H 0.05065 0.48696 0.16073 0.0
H1636 H 0.01943 0.56401 0.12888 0.0
H1637 H 0.98373 0.56391 0.16467 0.0
C1638 C 0.9716 0.52128 0.1991 0.0
C1639 C 0.96752 0.4971 0.21515 0.0
C1640 C 0.99533 0.52442 0.18221 0.0
C1641 C 0.98856 0.47726 0.21586 0.0
C1642 C 0.01228 0.48042 0.19944 0.0
C1643 C 0.03666 0.50424 0.16208 0.0
C1644 C 0.03717 0.52494 0.14161 0.0
C1645 C 0.01534 0.50337 0.18181 0.0
C1646 C 0.01918 0.54745 0.14408 0.0
C1647 C 0.99849 0.54726 0.16435 0.0
H1648 H 0.79325 0.77903 0.45565 0.0
H1649 H 0.80129 0.69083 0.44048 0.0
H1650 H 0.81383 0.70031 0.39225 0.0
H1651 H 0.81513 0.7333 0.35317 0.0
H1652 H 0.80751 0.82157 0.36911 0.0
H1653 H 0.80208 0.81253 0.41848 0.0
C1654 C 0.79856 0.76202 0.44191 0.0
C1655 C 0.79613 0.73434 0.45118 0.0
C1656 C 0.80513 0.76761 0.41435 0.0
C1657 C 0.80321 0.71232 0.43359 0.0
C1658 C 0.80997 0.71772 0.406 0.0
C1659 C 0.81247 0.7505 0.36757 0.0
C1660 C 0.81099 0.77794 0.35766 0.0
C1661 C 0.80972 0.74518 0.39591 0.0
C1662 C 0.80836 0.80024 0.37638 0.0
C1663 C 0.80529 0.7951 0.40454 0.0
H1664 H 0.60223 0.57329 0.8123 0.0
H1665 H 0.60279 0.48309 0.81132 0.0
H1666 H 0.58786 0.48193 0.85963 0.0
H1667 H 0.57179 0.50651 0.90091 0.0
H1668 H 0.57429 0.59668 0.90337 0.0
H1669 H 0.59112 0.59811 0.85549 0.0
C1670 C 0.59925 0.55342 0.8228 0.0
C1671 C 0.60316 0.52828 0.80836 0.0
C1672 C 0.59116 0.55299 0.8506 0.0
C1673 C 0.59981 0.50266 0.82214 0.0
C1674 C 0.59118 0.502 0.84964 0.0
C1675 C 0.57621 0.52644 0.89091 0.0
C1676 C 0.57151 0.55147 0.90515 0.0
C1677 C 0.58633 0.527 0.86385 0.0
C1678 C 0.57774 0.57723 0.89252 0.0
C1679 C 0.58724 0.57801 0.86524 0.0
H1680 H 0.73566 0.29315 0.0396 0.0
H1681 H 0.71298 0.37208 0.07484 0.0
H1682 H 0.68805 0.3476 0.112 0.0
H1683 H 0.68597 0.30559 0.1407 0.0
H1684 H 0.71345 0.2274 0.10736 0.0
H1685 H 0.7222 0.24949 0.06284 0.0
C1686 C 0.7244 0.3049 0.05492 0.0
C1687 C 0.72697 0.33425 0.05527 0.0
C1688 C 0.71135 0.29077 0.07682 0.0
C1689 C 0.71168 0.3494 0.07454 0.0
C1690 C 0.69765 0.33541 0.09593 0.0
C1691 C 0.69287 0.29309 0.12342 0.0
C1692 C 0.70033 0.26526 0.12763 0.0
C1693 C 0.69932 0.30629 0.09836 0.0
C1694 C 0.70844 0.24914 0.10485 0.0
C1695 C 0.71361 0.26179 0.07942 0.0
H1696 H 0.92858 0.46271 0.34645 0.0
H1697 H 0.89797 0.54584 0.33683 0.0
H1698 H 0.92558 0.56175 0.37764 0.0
H1699 H 0.96085 0.55232 0.41408 0.0
H1700 H 0.99345 0.46945 0.41983 0.0
H1701 H 0.96307 0.45344 0.38177 0.0
C1702 C 0.92746 0.48425 0.35342 0.0
C1703 C 0.91115 0.50304 0.33866 0.0
C1704 C 0.94434 0.49347 0.37576 0.0
C1705 C 0.91025 0.53092 0.34796 0.0
C1706 C 0.92626 0.54007 0.37107 0.0
C1707 C 0.96147 0.53084 0.40684 0.0
C1708 C 0.97954 0.5122 0.41979 0.0
C1709 C 0.94393 0.52164 0.38471 0.0
C1710 C 0.97995 0.48436 0.41022 0.0
C1711 C 0.9624 0.47506 0.38857 0.0
H1712 H 0.77946 0.73902 0.61203 0.0
H1713 H 0.71438 0.78639 0.5736 0.0
H1714 H 0.70534 0.80922 0.61734 0.0
H1715 H 0.71102 0.81095 0.6676 0.0
H1716 H 0.77608 0.76421 0.70661 0.0
H1717 H 0.79034 0.74676 0.66165 0.0
C1718 C 0.76362 0.75463 0.61317 0.0
C1719 C 0.7472 0.76033 0.58969 0.0
C1720 C 0.75835 0.76787 0.63857 0.0
C1721 C 0.72706 0.78106 0.59143 0.0
C1722 C 0.72181 0.79426 0.61647 0.0
C1723 C 0.72872 0.79746 0.66622 0.0
C1724 C 0.74197 0.78847 0.69046 0.0
C1725 C 0.7366 0.7871 0.64036 0.0
C1726 C 0.76524 0.77133 0.68828 0.0
C1727 C 0.77333 0.7611 0.66256 0.0
H1728 H 0.66515 0.67317 0.47984 0.0
H1729 H 0.71013 0.6184 0.53365 0.0
H1730 H 0.67209 0.58245 0.52836 0.0
H1731 H 0.6249 0.5678 0.50996 0.0
H1732 H 0.58088 0.62411 0.45672 0.0
H1733 H 0.61991 0.65827 0.46037 0.0
C1734 C 0.66679 0.65338 0.49045 0.0
C1735 C 0.69033 0.64857 0.50732 0.0
C1736 C 0.64497 0.63311 0.48747 0.0
C1737 C 0.69217 0.62264 0.52059 0.0
C1738 C 0.67041 0.60214 0.51761 0.0
C1739 C 0.62396 0.58745 0.499 0.0
C1740 C 0.59986 0.59339 0.48324 0.0
C1741 C 0.64653 0.6073 0.50132 0.0
C1742 C 0.59901 0.61899 0.46917 0.0
C1743 C 0.62134 0.6386 0.47121 0.0
H1744 H 0.14922 0.91449 0.52113 0.0
H1745 H 0.19229 0.97386 0.46788 0.0
H1746 H 0.15002 0.00109 0.46484 0.0
H1747 H 0.10036 0.00731 0.47641 0.0
H1748 H 0.05779 0.9474 0.52959 0.0
H1749 H 0.10047 0.92136 0.53372 0.0
C1750 C 0.14942 0.93336 0.50881 0.0
C1751 C 0.17387 0.942 0.49462 0.0
C1752 C 0.12514 0.94894 0.50724 0.0
C1753 C 0.17374 0.96665 0.47894 0.0
C1754 C 0.14958 0.98227 0.47723 0.0
C1755 C 0.10049 0.98873 0.48914 0.0
C1756 C 0.0758 0.97936 0.5026 0.0
C1757 C 0.12511 0.97356 0.49123 0.0
C1758 C 0.07639 0.95511 0.51889 0.0
C1759 C 0.10079 0.94012 0.52125 0.0
H1760 H 0.24759 0.94519 0.72451 0.0
H1761 H 0.27141 0.94561 0.81082 0.0
H1762 H 0.22754 0.92 0.82218 0.0
H1763 H 0.1893 0.88778 0.80542 0.0
H1764 H 0.1656 0.88728 0.71895 0.0
H1765 H 0.20169 0.92364 0.70985 0.0
C1766 C 0.24246 0.94071 0.7459 0.0
C1767 C 0.2625 0.94688 0.76684 0.0
C1768 C 0.21737 0.92575 0.75215 0.0
C1769 C 0.25604 0.94104 0.7945 0.0
C1770 C 0.23111 0.9262 0.80093 0.0
C1771 C 0.19122 0.89661 0.78485 0.0
C1772 C 0.17538 0.88448 0.76278 0.0
C1773 C 0.21251 0.917 0.77967 0.0
C1774 C 0.17768 0.89621 0.73627 0.0
C1775 C 0.19863 0.91673 0.73096 0.0
H1776 H 0.3757 0.09407 -0.00575 0.0
H1777 H 0.36195 0.04121 0.06534 0.0
H1778 H 0.40386 0.01591 0.05448 0.0
H1779 H 0.44362 0.00773 0.02427 0.0
H1780 H 0.45769 0.06012 0.95292 0.0
H1781 H 0.41654 0.08659 0.9645 0.0
C1782 C 0.38195 0.07712 0.00746 0.0
C1783 C 0.36555 0.06957 0.03056 0.0
C1784 C 0.40611 0.06245 0.00102 0.0
C1785 C 0.37404 0.04751 0.04741 0.0
C1786 C 0.39804 0.03296 0.04121 0.0
C1787 C 0.4378 0.02497 0.01122 0.0
C1788 C 0.45379 0.03177 0.98766 0.0
C1789 C 0.41409 0.04008 0.01795 0.0
C1790 C 0.44583 0.05431 0.97115 0.0
C1791 C 0.42226 0.06948 0.97775 0.0
H1792 H 0.65019 0.6077 0.6743 0.0
H1793 H 0.71033 0.57056 0.72882 0.0
H1794 H 0.73224 0.61668 0.7388 0.0
H1795 H 0.72457 0.66728 0.7428 0.0
H1796 H 0.65915 0.7032 0.69378 0.0
H1797 H 0.64907 0.65825 0.67074 0.0
C1798 C 0.66872 0.60963 0.68762 0.0
C1799 C 0.67792 0.58607 0.70172 0.0
C1800 C 0.67972 0.63625 0.69486 0.0
C1801 C 0.70248 0.58855 0.71815 0.0
C1802 C 0.71477 0.61499 0.72419 0.0
C1803 C 0.70882 0.66533 0.72638 0.0
C1804 C 0.69212 0.68802 0.72028 0.0
C1805 C 0.70208 0.63904 0.71442 0.0
C1806 C 0.67179 0.68563 0.69904 0.0
C1807 C 0.66605 0.65999 0.68591 0.0
H1808 H 0.84839 0.45794 0.04183 0.0
H1809 H 0.86707 0.38691 0.09256 0.0
H1810 H 0.91496 0.40557 0.09992 0.0
H1811 H 0.95358 0.43673 0.08405 0.0
H1812 H 0.93574 0.5077 0.03341 0.0
H1813 H 0.88535 0.49448 0.0338 0.0
C1814 C 0.86264 0.44703 0.05526 0.0
C1815 C 0.85447 0.42068 0.06596 0.0
C1816 C 0.89045 0.4575 0.0588 0.0
C1817 C 0.87306 0.40696 0.0836 0.0
C1818 C 0.90052 0.4175 0.08768 0.0
C1819 C 0.93846 0.44955 0.07366 0.0
C1820 C 0.94794 0.4727 0.05831 0.0
C1821 C 0.90981 0.44183 0.07405 0.0
C1822 C 0.92856 0.48963 0.04518 0.0
C1823 C 0.89988 0.48203 0.04536 0.0
H1824 H 0.28289 0.07883 0.74477 0.0
H1825 H 0.36749 0.08012 0.77806 0.0
H1826 H 0.36728 0.13101 0.78317 0.0
H1827 H 0.34287 0.17514 0.77853 0.0
H1828 H 0.25742 0.17331 0.74748 0.0
H1829 H 0.25825 0.12265 0.74094 0.0
C1830 C 0.3013 0.09023 0.75313 0.0
C1831 C 0.32517 0.0757 0.76097 0.0
C1832 C 0.30093 0.11941 0.7563 0.0
C1833 C 0.34878 0.09078 0.77196 0.0
C1834 C 0.34873 0.11989 0.7748 0.0
C1835 C 0.32453 0.16366 0.77011 0.0
C1836 C 0.30019 0.17796 0.76333 0.0
C1837 C 0.32492 0.13443 0.76701 0.0
C1838 C 0.27642 0.16277 0.75286 0.0
C1839 C 0.27686 0.13381 0.74913 0.0
H1840 H 0.17402 0.96843 0.20377 0.0
H1841 H 0.09734 0.91949 0.2182 0.0
H1842 H 0.12314 0.87656 0.21614 0.0
H1843 H 0.16773 0.85345 0.2146 0.0
H1844 H 0.2449 0.90132 0.2007 0.0
H1845 H 0.21852 0.94435 0.19734 0.0
C1846 C 0.16297 0.94834 0.20637 0.0
C1847 C 0.13389 0.94713 0.21164 0.0
C1848 C 0.17794 0.92369 0.20501 0.0
C1849 C 0.11973 0.92098 0.21439 0.0
C1850 C 0.13444 0.89644 0.21317 0.0
C1851 C 0.1787 0.87329 0.21031 0.0
C1852 C 0.20811 0.87449 0.2081 0.0
C1853 C 0.16356 0.89764 0.20905 0.0
C1854 C 0.2222 0.90004 0.20228 0.0
C1855 C 0.20716 0.92458 0.20072 0.0
H1856 H 0.54983 0.34584 0.41763 0.0
H1857 H 0.54086 0.3365 0.50586 0.0
H1858 H 0.55782 0.38497 0.51326 0.0
H1859 H 0.56447 0.43175 0.49405 0.0
H1860 H 0.56466 0.44272 0.40556 0.0
H1861 H 0.56305 0.39192 0.39863 0.0
C1862 C 0.55243 0.35426 0.43848 0.0
C1863 C 0.54387 0.33797 0.46118 0.0
C1864 C 0.56054 0.38255 0.4424 0.0
C1865 C 0.54705 0.34895 0.48812 0.0
C1866 C 0.55671 0.3766 0.49232 0.0
C1867 C 0.56543 0.42296 0.4733 0.0
C1868 C 0.56465 0.44071 0.45032 0.0
C1869 C 0.56204 0.39395 0.46954 0.0
C1870 C 0.56534 0.42926 0.4235 0.0
C1871 C 0.56404 0.40028 0.41957 0.0
H1872 H 0.44565 0.81495 0.18604 0.0
H1873 H 0.46062 0.75792 0.25303 0.0
H1874 H 0.41406 0.76563 0.27119 0.0
H1875 H 0.36737 0.78375 0.26491 0.0
H1876 H 0.35083 0.83863 0.19653 0.0
H1877 H 0.39988 0.83711 0.18255 0.0
C1878 C 0.43889 0.80457 0.20486 0.0
C1879 C 0.45646 0.78557 0.2179 0.0
C1880 C 0.41174 0.80862 0.21493 0.0
C1881 C 0.44738 0.77235 0.24232 0.0
C1882 C 0.42075 0.77676 0.25278 0.0
C1883 C 0.37452 0.79586 0.24724 0.0
C1884 C 0.35525 0.81095 0.2316 0.0
C1885 C 0.40246 0.79415 0.23877 0.0
C1886 C 0.36509 0.82664 0.20889 0.0
C1887 C 0.39314 0.82565 0.20075 0.0
H1888 H 0.00077 0.64713 0.93091 0.0
H1889 H 0.92396 0.62837 0.97499 0.0
H1890 H 0.94452 0.5876 -0.00438 0.0
H1891 H 0.98517 0.56042 0.00492 0.0
H1892 H 0.06322 0.57838 0.96301 0.0
H1893 H 0.04127 0.61629 0.93739 0.0
C1894 C 0.98843 0.63373 0.94458 0.0
C1895 C 0.96097 0.64084 0.95164 0.0
C1896 C 0.00069 0.61054 0.957 0.0
C1897 C 0.94521 0.62346 0.96949 0.0
C1898 C 0.95695 0.6002 0.98133 0.0
C1899 C 0.99747 0.57258 0.99014 0.0
C1900 C 0.02592 0.56714 0.98627 0.0
C1901 C 0.98487 0.59413 0.97591 0.0
C1902 C 0.04133 0.58245 0.96647 0.0
C1903 C 0.02879 0.6041 0.95194 0.0
H1904 H 0.15394 0.3081 0.64126 0.0
H1905 H 0.09527 0.26248 0.69338 0.0
H1906 H 0.13183 0.25827 0.72884 0.0
H1907 H 0.18086 0.26687 0.7447 0.0
H1908 H 0.23882 0.31327 0.69237 0.0
H1909 H 0.20214 0.31767 0.65738 0.0
C1910 C 0.14908 0.29729 0.66039 0.0
C1911 C 0.12194 0.28557 0.66459 0.0
C1912 C 0.17012 0.29495 0.68066 0.0
C1913 C 0.11599 0.27176 0.68961 0.0
C1914 C 0.13691 0.26925 0.70988 0.0
C1915 C 0.18543 0.27787 0.72561 0.0
C1916 C 0.21252 0.28965 0.72118 0.0
C1917 C 0.16412 0.2806 0.70555 0.0
C1918 C 0.2181 0.30407 0.69641 0.0
C1919 C 0.19715 0.3066 0.67632 0.0
H1920 H 0.56757 0.68933 0.12744 0.0
H1921 H 0.49254 0.72533 0.09515 0.0
H1922 H 0.49421 0.6955 0.05376 0.0
H1923 H 0.51463 0.65627 0.02928 0.0
H1924 H 0.5907 0.62132 0.06044 0.0
H1925 H 0.59186 0.65456 0.09933 0.0
C1926 C 0.55164 0.6905 0.11127 0.0
C1927 C 0.52949 0.70868 0.11441 0.0
C1928 C 0.55328 0.67397 0.08727 0.0
C1929 C 0.50943 0.71097 0.09315 0.0
C1930 C 0.51049 0.6941 0.06953 0.0
C1931 C 0.5319 0.65654 0.04418 0.0
C1932 C 0.55245 0.63641 0.04223 0.0
C1933 C 0.53206 0.67522 0.06662 0.0
C1934 C 0.57482 0.63687 0.06145 0.0
C1935 C 0.57521 0.65553 0.08391 0.0
H1936 H 0.96979 0.73105 0.81646 0.0
H1937 H 0.97372 0.8073 0.86485 0.0
H1938 H 0.00742 0.82851 0.83269 0.0
H1939 H 0.04314 0.82099 0.7972 0.0
H1940 H 0.03959 0.74445 0.74955 0.0
H1941 H 0.99753 0.72816 0.77403 0.0
C1942 C 0.97756 0.75253 0.81948 0.0
C1943 C 0.96999 0.76739 0.84316 0.0
C1944 C 0.99686 0.76458 0.80091 0.0
C1945 C 0.97958 0.79539 0.84678 0.0
C1946 C 0.99888 0.80752 0.82846 0.0
C1947 C 0.03212 0.80151 0.79118 0.0
C1948 C 0.04417 0.78386 0.77178 0.0
C1949 C 0.00869 0.79181 0.80622 0.0
C1950 C 0.03028 0.75839 0.76433 0.0
C1951 C 0.00659 0.74886 0.77868 0.0
H1952 H 0.01032 0.34444 0.5421 0.0
H1953 H 0.01974 0.37034 0.62743 0.0
H1954 H 0.99681 0.41417 0.61722 0.0
H1955 H 0.98241 0.44804 0.58203 0.0
H1956 H 0.97361 0.42166 0.49673 0.0
H1957 H 0.98635 0.37442 0.50904 0.0
C1958 C 0.0069 0.35958 0.55844 0.0
C1959 C 0.01724 0.35488 0.5852 0.0
C1960 C 0.99342 0.38435 0.55247 0.0
C1961 C 0.01222 0.37402 0.60656 0.0
C1962 C -0.00092 0.39894 0.60074 0.0
C1963 C 0.98183 0.43153 0.56646 0.0
C1964 C 0.9774 0.43819 0.53852 0.0
C1965 C 0.99054 0.40477 0.57353 0.0
C1966 C 0.97699 0.41682 0.51838 0.0
C1967 C 0.98479 0.38998 0.52533 0.0
H1968 H 0.40228 0.28426 0.41386 0.0
H1969 H 0.45589 0.24833 0.3528 0.0
H1970 H 0.41629 0.24373 0.32015 0.0
H1971 H 0.36587 0.24876 0.30944 0.0
H1972 H 0.31312 0.28525 0.37107 0.0
H1973 H 0.35292 0.29066 0.40283 0.0
C1974 C 0.4054 0.27552 0.39338 0.0
C1975 C 0.432 0.26656 0.38589 0.0
C1976 C 0.38261 0.27289 0.37476 0.0
C1977 C 0.43563 0.25542 0.35916 0.0
C1978 C 0.41296 0.25269 0.34048 0.0
C1979 C 0.36312 0.25789 0.3298 0.0
C1980 C 0.33646 0.26648 0.33777 0.0
C1981 C 0.38626 0.26114 0.34814 0.0
C1982 C 0.33334 0.27847 0.36423 0.0
C1983 C 0.35612 0.28158 0.38252 0.0
H1984 H 0.46571 0.52897 0.28847 0.0
H1985 H 0.38894 0.56188 0.31898 0.0
H1986 H 0.41428 0.58187 0.3594 0.0
H1987 H 0.45558 0.57966 0.39051 0.0
H1988 H 0.53092 0.54329 0.36081 0.0
H1989 H 0.50938 0.53609 0.31506 0.0
C1990 C 0.45471 0.54108 0.3037 0.0
C1991 C 0.42552 0.54329 0.30143 0.0
C1992 C 0.46926 0.55197 0.32694 0.0
C1993 C 0.41144 0.55961 0.32069 0.0
C1994 C 0.42589 0.57095 0.34379 0.0
C1995 C 0.46764 0.57151 0.37355 0.0
C1996 C 0.49456 0.56175 0.37876 0.0
C1997 C 0.45448 0.56591 0.34784 0.0
C1998 C 0.5101 0.55087 0.35698 0.0
C1999 C 0.49765 0.5464 0.33101 0.0
H2000 H 0.29252 0.67977 0.07313 0.0
H2001 H 0.30573 0.75914 0.03284 0.0
H2002 H 0.29891 0.78372 0.07683 0.0
H2003 H 0.27988 0.78226 0.12417 0.0
H2004 H 0.25903 0.70209 0.16094 0.0
H2005 H 0.27706 0.67816 0.12073 0.0
C2006 C 0.29526 0.70242 0.07433 0.0
C2007 C 0.29992 0.71772 0.05009 0.0
C2008 C 0.28834 0.71623 0.09877 0.0
C2009 C 0.30264 0.74704 0.05152 0.0
C2010 C 0.29804 0.76104 0.07648 0.0
C2011 C 0.27935 0.75957 0.12332 0.0
C2012 C 0.26754 0.744 0.14518 0.0
C2013 C 0.28918 0.74583 0.09978 0.0
C2014 C 0.26726 0.7146 0.14402 0.0
C2015 C 0.27794 0.70085 0.12122 0.0
H2016 H 0.10141 0.43583 0.86441 0.0
H2017 H 0.01217 0.44042 0.84966 0.0
H2018 H 0.00293 0.42692 0.89737 0.0
H2019 H 0.02101 0.429 0.94518 0.0
H2020 H 0.11047 0.43112 0.96028 0.0
H2021 H 0.11892 0.42597 0.91081 0.0
C2022 C 0.0799 0.43279 0.87132 0.0
C2023 C 0.05757 0.44023 0.85402 0.0
C2024 C 0.07486 0.42676 0.89919 0.0
C2025 C 0.02978 0.43561 0.86298 0.0
C2026 C 0.02448 0.42805 0.89031 0.0
C2027 C 0.04223 0.42701 0.93765 0.0
C2028 C 0.06513 0.43111 0.95595 0.0
C2029 C 0.04694 0.4259 0.90907 0.0
C2030 C 0.09259 0.42848 0.94625 0.0
C2031 C 0.09742 0.42574 0.91799 0.0
H2032 H 0.32725 0.30597 0.59613 0.0
H2033 H 0.27213 0.37343 0.61305 0.0
H2034 H 0.28333 0.37062 0.66232 0.0
H2035 H 0.30656 0.34778 0.70038 0.0
H2036 H 0.35873 0.27776 0.6847 0.0
H2037 H 0.3516 0.28351 0.63473 0.0
C2038 C 0.31773 0.32013 0.61057 0.0
C2039 C 0.29876 0.33981 0.60092 0.0
C2040 C 0.32404 0.31822 0.63893 0.0
C2041 C 0.2866 0.35795 0.61992 0.0
C2042 C 0.29312 0.35648 0.64808 0.0
C2043 C 0.31694 0.33405 0.68613 0.0
C2044 C 0.33333 0.31243 0.69628 0.0
C2045 C 0.31164 0.3366 0.65776 0.0
C2046 C 0.34618 0.29466 0.67741 0.0
C2047 C 0.34188 0.29778 0.6489 0.0
H2048 H 0.39844 0.53626 0.15925 0.0
H2049 H 0.4251 0.45173 0.1698 0.0
H2050 H 0.45509 0.45654 0.12948 0.0
H2051 H 0.47649 0.48583 0.09332 0.0
H2052 H 0.44976 0.57025 0.08255 0.0
H2053 H 0.41724 0.56439 0.12091 0.0
C2054 C 0.41041 0.51872 0.15245 0.0
C2055 C 0.40969 0.4938 0.16769 0.0
C2056 C 0.42801 0.52173 0.12946 0.0
C2057 C 0.42538 0.47126 0.15857 0.0
C2058 C 0.44268 0.47401 0.13558 0.0
C2059 C 0.46358 0.50294 0.09941 0.0
C2060 C 0.4658 0.52851 0.08536 0.0
C2061 C 0.44471 0.49938 0.12131 0.0
C2062 C 0.44855 0.55036 0.09314 0.0
C2063 C 0.4299 0.54704 0.11505 0.0
H2064 H 0.18444 0.70484 0.94246 0.0
H2065 H 0.26629 0.69575 0.90659 0.0
H2066 H 0.25332 0.72589 0.86823 0.0
H2067 H 0.21876 0.75437 0.84503 0.0
H2068 H 0.13646 0.76211 0.88015 0.0
H2069 H 0.15009 0.73355 0.91953 0.0
C2070 C 0.19944 0.70923 0.92618 0.0
C2071 C 0.22628 0.69797 0.92733 0.0
C2072 C 0.19202 0.72681 0.90452 0.0
C2073 C 0.24543 0.70397 0.90607 0.0
C2074 C 0.23813 0.72141 0.88431 0.0
C2075 C 0.20399 0.75036 0.86161 0.0
C2076 C 0.17675 0.76058 0.85993 0.0
C2077 C 0.21159 0.7331 0.88349 0.0
C2078 C 0.15763 0.75465 0.8812 0.0
C2079 C 0.16531 0.73812 0.90351 0.0
H2080 H 0.02429 0.51367 0.71705 0.0
H2081 H 0.10756 0.48511 0.70137 0.0
H2082 H 0.10307 0.4986 0.65279 0.0
H2083 H 0.07591 0.51979 0.61537 0.0
H2084 H 0.99256 0.54766 0.6315 0.0
H2085 H 0.9971 0.53395 0.67994 0.0
C2086 C 0.04144 0.51012 0.70302 0.0
C2087 C 0.06627 0.49848 0.71283 0.0
C2088 C 0.03897 0.51845 0.6755 0.0
C2089 C 0.08816 0.49391 0.6943 0.0
C2090 C 0.08573 0.5019 0.66663 0.0
C2091 C 0.05898 0.52334 0.62966 0.0
C2092 C 0.03411 0.53509 0.62017 0.0
C2093 C 0.06142 0.51464 0.65717 0.0
C2094 C 0.01199 0.5389 0.63857 0.0
C2095 C 0.01448 0.53085 0.66611 0.0
H2096 H 0.24885 0.26032 0.47222 0.0
H2097 H 0.20264 0.33554 0.46302 0.0
H2098 H 0.18133 0.31728 0.42013 0.0
H2099 H 0.18656 0.28626 0.38 0.0
H2100 H 0.2339 0.21187 0.38829 0.0
H2101 H 0.2433 0.22293 0.43708 0.0
C2102 C 0.23344 0.2723 0.46126 0.0
C2103 C 0.22817 0.29964 0.4701 0.0
C2104 C 0.22171 0.26193 0.43628 0.0
C2105 C 0.20752 0.31465 0.45629 0.0
C2106 C 0.19542 0.30429 0.43165 0.0
C2107 C 0.19786 0.27189 0.3929 0.0
C2108 C 0.21017 0.24877 0.38067 0.0
C2109 C 0.20392 0.27889 0.42058 0.0
C2110 C 0.2244 0.22992 0.39737 0.0
C2111 C 0.23011 0.23646 0.42516 0.0
H2112 H 0.35868 0.38398 0.45854 0.0
H2113 H 0.31095 0.44259 0.50518 0.0
H2114 H 0.34704 0.47927 0.49758 0.0
H2115 H 0.39502 0.49265 0.4835 0.0
H2116 H 0.44273 0.43457 0.4364 0.0
H2117 H 0.4036 0.39983 0.43801 0.0
C2118 C 0.35595 0.40491 0.4666 0.0
C2119 C 0.33247 0.41039 0.48286 0.0
C2120 C 0.37688 0.42592 0.46229 0.0
C2121 C 0.32894 0.43774 0.49276 0.0
C2122 C 0.34965 0.45872 0.48856 0.0
C2123 C 0.39661 0.47255 0.47318 0.0
C2124 C 0.42179 0.46593 0.46028 0.0
C2125 C 0.37415 0.45273 0.47428 0.0
C2126 C 0.42353 0.44007 0.44653 0.0
C2127 C 0.40125 0.42015 0.44761 0.0
H2128 H 0.78757 0.08604 0.43833 0.0
H2129 H 0.78827 0.09369 0.52756 0.0
H2130 H 0.83344 0.07176 0.52992 0.0
H2131 H 0.87417 0.05452 0.50686 0.0
H2132 H 0.87568 0.04785 0.41773 0.0
H2133 H 0.82778 0.065 0.41506 0.0
C2134 C 0.79744 0.0825 0.45828 0.0
C2135 C 0.78478 0.09173 0.48274 0.0
C2136 C 0.82377 0.07033 0.45948 0.0
C2137 C 0.79776 0.08705 0.50845 0.0
C2138 C 0.82358 0.07453 0.50983 0.0
C2139 C 0.86407 0.05673 0.48677 0.0
C2140 C 0.87857 0.05048 0.46248 0.0
C2141 C 0.83703 0.06682 0.48548 0.0
C2142 C 0.86494 0.05274 0.4367 0.0
C2143 C 0.83765 0.06262 0.4352 0.0
H2144 H 0.65291 0.04742 0.2085 0.0
H2145 H 0.58412 0.08822 0.24712 0.0
H2146 H 0.60938 0.13351 0.24302 0.0
H2147 H 0.65205 0.16078 0.23132 0.0
H2148 H 0.72035 0.12103 0.19104 0.0
H2149 H 0.69399 0.07577 0.19248 0.0
C2150 C 0.64345 0.06628 0.21592 0.0
C2151 C 0.61692 0.06456 0.22849 0.0
C2152 C 0.65792 0.09223 0.21313 0.0
C2153 C 0.60457 0.0891 0.2375 0.0
C2154 C 0.619 0.11493 0.2352 0.0
C2155 C 0.66105 0.1422 0.22265 0.0
C2156 C 0.68814 0.14392 0.21144 0.0
C2157 C 0.64582 0.11662 0.22347 0.0
C2158 C 0.69949 0.12001 0.19977 0.0
C2159 C 0.68451 0.09422 0.20077 0.0
H2160 H 0.71033 0.86525 0.94775 0.0
H2161 H 0.75342 0.93786 0.9843 0.0
H2162 H 0.71168 0.96525 0.97669 0.0
H2163 H 0.66201 0.9675 0.96245 0.0
H2164 H 0.61955 0.89503 0.92463 0.0
H2165 H 0.66229 0.86891 0.92922 0.0
C2166 C 0.71057 0.88708 0.95408 0.0
C2167 C 0.73472 0.8994 0.96709 0.0
C2168 C 0.68673 0.90278 0.94913 0.0
C2169 C 0.73499 0.92786 0.97451 0.0
C2170 C 0.71115 0.94351 0.9701 0.0
C2171 C 0.66219 0.94613 0.95476 0.0
C2172 C 0.63739 0.93324 0.94343 0.0
C2173 C 0.68679 0.93108 0.95775 0.0
C2174 C 0.63822 0.90559 0.93339 0.0
C2175 C 0.66261 0.8905 0.93626 0.0
H2176 H 0.29453 0.4418 0.23019 0.0
H2177 H 0.32427 0.44513 0.31483 0.0
H2178 H 0.29215 0.40595 0.32659 0.0
H2179 H 0.26277 0.36607 0.31094 0.0
H2180 H 0.23736 0.35857 0.22496 0.0
H2181 H 0.25989 0.40437 0.21564 0.0
C2182 C 0.29317 0.4344 0.25134 0.0
C2183 C 0.31148 0.4461 0.27172 0.0
C2184 C 0.27575 0.41089 0.25755 0.0
C2185 C 0.31019 0.43627 0.29896 0.0
C2186 C 0.29198 0.41384 0.30561 0.0
C2187 C 0.2616 0.37461 0.29023 0.0
C2188 C 0.24894 0.35859 0.26856 0.0
C2189 C 0.27572 0.40019 0.28478 0.0
C2190 C 0.24726 0.37029 0.24199 0.0
C2191 C 0.2603 0.39642 0.2366 0.0
H2192 H 0.23344 0.57232 0.00756 0.0
H2193 H 0.21212 0.62416 0.07713 0.0
H2194 H 0.18039 0.58702 0.09422 0.0
H2195 H 0.15175 0.5441 0.084 0.0
H2196 H 0.16975 0.49484 0.01182 0.0
H2197 H 0.2102 0.52602 0.00158 0.0
C2198 C 0.2224 0.57521 0.02683 0.0
C2199 C 0.22459 0.60115 0.04067 0.0
C2200 C 0.20344 0.55415 0.03602 0.0
C2201 C 0.21033 0.60453 0.06576 0.0
C2202 C 0.19217 0.58331 0.07557 0.0
C2203 C 0.16533 0.53965 0.06676 0.0
C2204 C 0.15804 0.5174 0.04866 0.0
C2205 C 0.18751 0.55859 0.06013 0.0
C2206 C 0.17524 0.51194 0.026 0.0
C2207 C 0.19814 0.5299 0.02001 0.0
H2208 H 0.70427 0.94996 0.29999 0.0
H2209 H 0.68999 0.9496 0.21148 0.0
H2210 H 0.73346 0.92569 0.2045 0.0
H2211 H 0.77131 0.89904 0.22353 0.0
H2212 H 0.7842 0.89504 0.31193 0.0
H2213 H 0.74634 0.92748 0.31896 0.0
C2214 C 0.71096 0.94501 0.27919 0.0
C2215 C 0.69367 0.95104 0.25632 0.0
C2216 C 0.7358 0.93057 0.27531 0.0
C2217 C 0.70263 0.94468 0.22946 0.0
C2218 C 0.72756 0.93111 0.22542 0.0
C2219 C 0.76629 0.90577 0.24434 0.0
C2220 C 0.78017 0.89433 0.26718 0.0
C2221 C 0.74372 0.9231 0.24821 0.0
C2222 C 0.7738 0.90357 0.29399 0.0
C2223 C 0.75188 0.92179 0.29802 0.0
H2224 H 0.87226 0.07199 0.77529 0.0
H2225 H 0.79875 0.04707 0.72627 0.0
H2226 H 0.77901 0.09241 0.73443 0.0
H2227 H 0.7829 0.13928 0.75395 0.0
H2228 H 0.85674 0.16615 0.80144 0.0
H2229 H 0.87579 0.11966 0.79579 0.0
C2230 C 0.85193 0.07652 0.7664 0.0
C2231 C 0.83709 0.05614 0.75008 0.0
C2232 C 0.84064 0.10286 0.77105 0.0
C2233 C 0.81075 0.06234 0.73877 0.0
C2234 C 0.79934 0.08826 0.7435 0.0
C2235 C 0.80305 0.13503 0.76341 0.0
C2236 C 0.81832 0.15626 0.77815 0.0
C2237 C 0.81413 0.10867 0.75947 0.0
C2238 C 0.84447 0.15022 0.79004 0.0
C2239 C 0.85545 0.12368 0.78668 0.0
loop_
_geom_bond_atom_site_label_1
_geom_bond_atom_site_label_2
_geom_bond_distance
_geom_bond_site_symmetry_2
_ccdc_geom_bond_type
Zn0 O3 2.031 . S
Zn0 O5 2.049 . S
Zn0 O10 2.067 . S
Zn1 O2 1.962 . S
Zn1 O4 1.986 . S
Zn1 O6 1.996 1_655 S
Zn1 O9 1.943 1_655 S
O2 Zn1 1.962 . S
O2 C7 1.254 1_655 S
O3 Zn0 2.031 . S
O3 C7 1.269 . S
O4 Zn1 1.986 . S
O4 C11 1.262 . S
O5 Zn0 2.049 . S
O5 C13 1.260 . S
O6 Zn1 1.996 1_455 S
O6 C13 1.257 . S
C7 O2 1.254 1_455 S
C7 O3 1.269 . S
C8 O9 1.249 . S
C8 O10 1.270 . S
O9 Zn1 1.943 1_455 S
O9 C8 1.249 . S
O10 Zn0 2.067 . S
O10 C8 1.270 . S
C11 O4 1.262 . S
C11 O12 1.232 . S
O12 C11 1.232 . S
C13 O5 1.260 . S
C13 O6 1.257 . S
Zn14 O17 2.031 . S
Zn14 O19 2.049 . S
Zn14 O24 2.067 . S
Zn15 O16 1.962 . S
Zn15 O18 1.986 . S
Zn15 O20 1.996 . S
Zn15 O23 1.943 1_455 S
O16 Zn15 1.962 . S
O16 C21 1.254 . S
O17 Zn14 2.031 . S
O17 C21 1.269 1_655 S
O18 Zn15 1.986 . S
O18 C25 1.262 . S
O19 Zn14 2.049 . S
O19 C27 1.260 . S
O20 Zn15 1.996 . S
O20 C27 1.257 1_455 S
C21 O16 1.254 . S
C21 O17 1.269 1_455 S
C22 O23 1.249 . S
C22 O24 1.270 . S
O23 Zn15 1.943 1_655 S
O23 C22 1.249 . S
O24 Zn14 2.067 . S
O24 C22 1.270 . S
C25 O18 1.262 . S
C25 O26 1.232 . S
O26 C25 1.232 . S
C27 O19 1.260 . S
C27 O20 1.257 1_655 S
Zn28 O31 2.031 . S
Zn28 O33 2.049 . S
Zn28 O38 2.067 . S
Zn29 O30 1.962 . S
Zn29 O32 1.986 . S
Zn29 O34 1.996 . S
Zn29 O37 1.943 . S
O30 Zn29 1.962 . S
O30 C35 1.254 . S
O31 Zn28 2.031 . S
O31 C35 1.269 . S
O32 Zn29 1.986 . S
O32 C39 1.262 . S
O33 Zn28 2.049 . S
O33 C41 1.260 . S
O34 Zn29 1.996 . S
O34 C41 1.257 . S
C35 O30 1.254 . S
C35 O31 1.269 . S
C36 O37 1.249 . S
C36 O38 1.270 . S
O37 Zn29 1.943 . S
O37 C36 1.249 . S
O38 Zn28 2.067 . S
O38 C36 1.270 . S
C39 O32 1.262 . S
C39 O40 1.232 . S
O40 C39 1.232 . S
C41 O33 1.260 . S
C41 O34 1.257 . S
Zn42 O45 2.031 . S
Zn42 O47 2.049 . S
Zn42 O52 2.067 . S
Zn43 O44 1.962 . S
Zn43 O46 1.986 . S
Zn43 O48 1.996 . S
Zn43 O51 1.943 . S
O44 Zn43 1.962 . S
O44 C49 1.254 . S
O45 Zn42 2.031 . S
O45 C49 1.269 . S
O46 Zn43 1.986 . S
O46 C53 1.262 . S
O47 Zn42 2.049 . S
O47 C55 1.260 . S
O48 Zn43 1.996 . S
O48 C55 1.257 . S
C49 O44 1.254 . S
C49 O45 1.269 . S
C50 O51 1.249 . S
C50 O52 1.270 . S
O51 Zn43 1.943 . S
O51 C50 1.249 . S
O52 Zn42 2.067 . S
O52 C50 1.270 . S
C53 O46 1.262 . S
C53 O54 1.232 . S
O54 C53 1.232 . S
C55 O47 1.260 . S
C55 O48 1.257 . S
Zn56 O59 2.031 . S
Zn56 O61 2.049 . S
Zn56 O66 2.067 . S
Zn57 O58 1.962 . S
Zn57 O60 1.986 1_545 S
Zn57 O62 1.996 . S
Zn57 O65 1.943 . S
O58 Zn57 1.962 . S
O58 C63 1.254 . S
O59 Zn56 2.031 . S
O59 C63 1.269 . S
O60 Zn57 1.986 1_565 S
O60 C67 1.262 . S
O61 Zn56 2.049 . S
O61 C69 1.260 . S
O62 Zn57 1.996 . S
O62 C69 1.257 . S
C63 O58 1.254 . S
C63 O59 1.269 . S
C64 O65 1.249 . S
C64 O66 1.270 . S
O65 Zn57 1.943 . S
O65 C64 1.249 . S
O66 Zn56 2.067 . S
O66 C64 1.270 . S
C67 O60 1.262 . S
C67 O68 1.232 . S
O68 C67 1.232 . S
C69 O61 1.260 . S
C69 O62 1.257 . S
Zn70 O73 2.031 . S
Zn70 O75 2.049 . S
Zn70 O80 2.067 . S
Zn71 O72 1.962 . S
Zn71 O74 1.986 . S
Zn71 O76 1.996 . S
Zn71 O79 1.943 . S
O72 Zn71 1.962 . S
O72 C77 1.254 . S
O73 Zn70 2.031 . S
O73 C77 1.269 . S
O74 Zn71 1.986 . S
O74 C81 1.262 . S
O75 Zn70 2.049 . S
O75 C83 1.260 . S
O76 Zn71 1.996 . S
O76 C83 1.257 . S
C77 O72 1.254 . S
C77 O73 1.269 . S
C78 O79 1.249 . S
C78 O80 1.270 . S
O79 Zn71 1.943 . S
O79 C78 1.249 . S
O80 Zn70 2.067 . S
O80 C78 1.270 . S
C81 O74 1.262 . S
C81 O82 1.232 . S
O82 C81 1.232 . S
C83 O75 1.260 . S
C83 O76 1.257 . S
Zn84 O87 2.031 . S
Zn84 O89 2.049 . S
Zn84 O94 2.067 . S
Zn85 O86 1.962 . S
Zn85 O88 1.986 . S
Zn85 O90 1.996 . S
Zn85 O93 1.943 1_545 S
O86 Zn85 1.962 . S
O86 C91 1.254 1_545 S
O87 Zn84 2.031 . S
O87 C91 1.269 . S
O88 Zn85 1.986 . S
O88 C95 1.262 . S
O89 Zn84 2.049 . S
O89 C97 1.260 . S
O90 Zn85 1.996 . S
O90 C97 1.257 1_545 S
C91 O86 1.254 1_565 S
C91 O87 1.269 . S
C92 O93 1.249 . S
C92 O94 1.270 . S
O93 Zn85 1.943 1_565 S
O93 C92 1.249 . S
O94 Zn84 2.067 . S
O94 C92 1.270 . S
C95 O88 1.262 . S
C95 O96 1.232 . S
O96 C95 1.232 . S
C97 O89 1.260 . S
C97 O90 1.257 1_565 S
Zn98 O101 2.031 1_554 S
Zn98 O103 2.049 . S
Zn98 O108 2.067 . S
Zn99 O100 1.962 1_554 S
Zn99 O102 1.986 . S
Zn99 O104 1.996 . S
Zn99 O107 1.943 . S
O100 Zn99 1.962 1_556 S
O100 C105 1.254 . S
O101 Zn98 2.031 1_556 S
O101 C105 1.269 . S
O102 Zn99 1.986 . S
O102 C109 1.262 . S
O103 Zn98 2.049 . S
O103 C111 1.260 . S
O104 Zn99 1.996 . S
O104 C111 1.257 . S
C105 O100 1.254 . S
C105 O101 1.269 . S
C106 O107 1.249 . S
C106 O108 1.270 . S
O107 Zn99 1.943 . S
O107 C106 1.249 . S
O108 Zn98 2.067 . S
O108 C106 1.270 . S
C109 O102 1.262 . S
C109 O110 1.232 1_554 S
O110 C109 1.232 1_556 S
C111 O103 1.260 . S
C111 O104 1.257 . S
Zn112 O115 2.031 1_554 S
Zn112 O117 2.049 . S
Zn112 O122 2.067 . S
Zn113 O114 1.962 1_554 S
Zn113 O116 1.986 . S
Zn113 O118 1.996 . S
Zn113 O121 1.943 . S
O114 Zn113 1.962 1_556 S
O114 C119 1.254 . S
O115 Zn112 2.031 1_556 S
O115 C119 1.269 . S
O116 Zn113 1.986 . S
O116 C123 1.262 . S
O117 Zn112 2.049 . S
O117 C125 1.260 . S
O118 Zn113 1.996 . S
O118 C125 1.257 . S
C119 O114 1.254 . S
C119 O115 1.269 . S
C120 O121 1.249 . S
C120 O122 1.270 . S
O121 Zn113 1.943 . S
O121 C120 1.249 . S
O122 Zn112 2.067 . S
O122 C120 1.270 . S
C123 O116 1.262 . S
C123 O124 1.232 1_554 S
O124 C123 1.232 1_556 S
C125 O117 1.260 . S
C125 O118 1.257 . S
Zn126 O129 2.031 . S
Zn126 O131 2.049 . S
Zn126 O136 2.067 . S
Zn127 O128 1.962 . S
Zn127 O130 1.986 . S
Zn127 O132 1.996 . S
Zn127 O135 1.943 . S
O128 Zn127 1.962 . S
O128 C133 1.254 . S
O129 Zn126 2.031 . S
O129 C133 1.269 . S
O130 Zn127 1.986 . S
O130 C137 1.262 . S
O131 Zn126 2.049 . S
O131 C139 1.260 . S
O132 Zn127 1.996 . S
O132 C139 1.257 . S
C133 O128 1.254 . S
C133 O129 1.269 . S
C134 O135 1.249 . S
C134 O136 1.270 . S
O135 Zn127 1.943 . S
O135 C134 1.249 . S
O136 Zn126 2.067 . S
O136 C134 1.270 . S
C137 O130 1.262 . S
C137 O138 1.232 . S
O138 C137 1.232 . S
C139 O131 1.260 . S
C139 O132 1.257 . S
Zn140 O143 2.031 . S
Zn140 O145 2.049 . S
Zn140 O150 2.067 . S
Zn141 O142 1.962 . S
Zn141 O144 1.986 . S
Zn141 O146 1.996 . S
Zn141 O149 1.943 . S
O142 Zn141 1.962 . S
O142 C147 1.254 . S
O143 Zn140 2.031 . S
O143 C147 1.269 . S
O144 Zn141 1.986 . S
O144 C151 1.262 . S
O145 Zn140 2.049 . S
O145 C153 1.260 . S
O146 Zn141 1.996 . S
O146 C153 1.257 . S
C147 O142 1.254 . S
C147 O143 1.269 . S
C148 O149 1.249 . S
C148 O150 1.270 . S
O149 Zn141 1.943 . S
O149 C148 1.249 . S
O150 Zn140 2.067 . S
O150 C148 1.270 . S
C151 O144 1.262 . S
C151 O152 1.232 . S
O152 C151 1.232 . S
C153 O145 1.260 . S
C153 O146 1.257 . S
Zn154 O157 2.031 . S
Zn154 O159 2.049 . S
Zn154 O164 2.067 . S
Zn155 O156 1.962 . S
Zn155 O158 1.986 . S
Zn155 O160 1.996 . S
Zn155 O163 1.943 . S
O156 Zn155 1.962 . S
O156 C161 1.254 . S
O157 Zn154 2.031 . S
O157 C161 1.269 . S
O158 Zn155 1.986 . S
O158 C165 1.262 . S
O159 Zn154 2.049 . S
O159 C167 1.260 . S
O160 Zn155 1.996 . S
O160 C167 1.257 . S
C161 O156 1.254 . S
C161 O157 1.269 . S
C162 O163 1.249 . S
C162 O164 1.270 . S
O163 Zn155 1.943 . S
O163 C162 1.249 . S
O164 Zn154 2.067 . S
O164 C162 1.270 . S
C165 O158 1.262 . S
C165 O166 1.232 . S
O166 C165 1.232 . S
C167 O159 1.260 . S
C167 O160 1.257 . S
Zn168 O171 2.031 . S
Zn168 O173 2.049 . S
Zn168 O178 2.067 . S
Zn169 O170 1.962 . S
Zn169 O172 1.986 . S
Zn169 O174 1.996 . S
Zn169 O177 1.943 1_455 S
O170 Zn169 1.962 . S
O170 C175 1.254 . S
O171 Zn168 2.031 . S
O171 C175 1.269 1_655 S
O172 Zn169 1.986 . S
O172 C179 1.262 . S
O173 Zn168 2.049 . S
O173 C181 1.287 . S
O174 Zn169 1.996 . S
O174 C181 1.244 1_455 S
C175 O170 1.254 . S
C175 O171 1.269 1_455 S
C176 O177 1.249 . S
C176 O178 1.270 . S
O177 Zn169 1.943 1_655 S
O177 C176 1.249 . S
O178 Zn168 2.067 . S
O178 C176 1.270 . S
C179 O172 1.262 . S
C179 O180 1.232 . S
O180 C179 1.232 . S
C181 O173 1.287 . S
C181 O174 1.244 1_655 S
Zn182 O185 2.031 . S
Zn182 O187 2.049 . S
Zn182 O192 2.067 . S
Zn183 O184 1.962 . S
Zn183 O186 1.986 . S
Zn183 O188 1.996 1_655 S
Zn183 O191 1.943 1_655 S
O184 Zn183 1.962 . S
O184 C189 1.254 1_655 S
O185 Zn182 2.031 . S
O185 C189 1.269 . S
O186 Zn183 1.986 . S
O186 C193 1.262 . S
O187 Zn182 2.049 . S
O187 C195 1.260 . S
O188 Zn183 1.996 1_455 S
O188 C195 1.257 . S
C189 O184 1.254 1_455 S
C189 O185 1.269 . S
C190 O191 1.249 . S
C190 O192 1.270 . S
O191 Zn183 1.943 1_455 S
O191 C190 1.249 . S
O192 Zn182 2.067 . S
O192 C190 1.270 . S
C193 O186 1.262 . S
C193 O194 1.232 . S
O194 C193 1.232 . S
C195 O187 1.260 . S
C195 O188 1.257 . S
Zn196 O199 2.031 . S
Zn196 O201 2.049 . S
Zn196 O206 2.067 . S
Zn197 O198 1.962 . S
Zn197 O200 1.986 . S
Zn197 O202 1.996 . S
Zn197 O205 1.943 . S
O198 Zn197 1.962 . S
O198 C203 1.254 . S
O199 Zn196 2.031 . S
O199 C203 1.269 . S
O200 Zn197 1.986 . S
O200 C207 1.262 . S
O201 Zn196 2.049 . S
O201 C209 1.260 . S
O202 Zn197 1.996 . S
O202 C209 1.257 . S
C203 O198 1.254 . S
C203 O199 1.269 . S
C204 O205 1.249 . S
C204 O206 1.270 . S
O205 Zn197 1.943 . S
O205 C204 1.249 . S
O206 Zn196 2.067 . S
O206 C204 1.270 . S
C207 O200 1.262 . S
C207 O208 1.232 . S
O208 C207 1.232 . S
C209 O201 1.260 . S
C209 O202 1.257 . S
Zn210 O213 2.031 . S
Zn210 O215 2.049 . S
Zn210 O220 2.067 . S
Zn211 O212 1.962 . S
Zn211 O214 1.986 . S
Zn211 O216 1.996 . S
Zn211 O219 1.943 . S
O212 Zn211 1.962 . S
O212 C217 1.254 . S
O213 Zn210 2.031 . S
O213 C217 1.269 . S
O214 Zn211 1.986 . S
O214 C221 1.262 . S
O215 Zn210 2.049 . S
O215 C223 1.260 . S
O216 Zn211 1.996 . S
O216 C223 1.257 . S
C217 O212 1.254 . S
C217 O213 1.269 . S
C218 O219 1.249 . S
C218 O220 1.270 . S
O219 Zn211 1.943 . S
O219 C218 1.249 . S
O220 Zn210 2.067 . S
O220 C218 1.270 . S
C221 O214 1.262 . S
C221 O222 1.232 . S
O222 C221 1.232 . S
C223 O215 1.260 . S
C223 O216 1.257 . S
Zn224 O227 2.031 . S
Zn224 O229 2.049 . S
Zn224 O234 2.067 . S
Zn225 O226 1.962 . S
Zn225 O228 1.986 . S
Zn225 O230 1.996 . S
Zn225 O233 1.943 1_545 S
O226 Zn225 1.962 . S
O226 C231 1.254 . S
O227 Zn224 2.031 . S
O227 C231 1.269 1_565 S
O228 Zn225 1.986 . S
O228 C235 1.262 . S
O229 Zn224 2.049 . S
O229 C237 1.260 1_565 S
O230 Zn225 1.996 . S
O230 C237 1.257 . S
C231 O226 1.254 . S
C231 O227 1.269 1_545 S
C232 O233 1.249 . S
C232 O234 1.270 . S
O233 Zn225 1.943 1_565 S
O233 C232 1.249 . S
O234 Zn224 2.067 . S
O234 C232 1.270 . S
C235 O228 1.262 . S
C235 O236 1.232 . S
O236 C235 1.232 . S
C237 O229 1.260 1_545 S
C237 O230 1.257 . S
Zn238 O241 2.031 . S
Zn238 O243 2.049 . S
Zn238 O248 2.067 . S
Zn239 O240 1.962 . S
Zn239 O242 1.986 . S
Zn239 O244 1.996 . S
Zn239 O247 1.943 . S
O240 Zn239 1.962 . S
O240 C245 1.254 . S
O241 Zn238 2.031 . S
O241 C245 1.269 . S
O242 Zn239 1.986 . S
O242 C249 1.262 . S
O243 Zn238 2.049 . S
O243 C251 1.260 . S
O244 Zn239 1.996 . S
O244 C251 1.257 . S
C245 O240 1.254 . S
C245 O241 1.269 . S
C246 O247 1.249 . S
C246 O248 1.270 . S
O247 Zn239 1.943 . S
O247 C246 1.249 . S
O248 Zn238 2.067 . S
O248 C246 1.270 . S
C249 O242 1.262 . S
C249 O250 1.232 . S
O250 C249 1.232 . S
C251 O243 1.260 . S
C251 O244 1.257 . S
Zn252 O255 2.031 . S
Zn252 O257 2.049 . S
Zn252 O262 2.067 . S
Zn253 O254 1.962 . S
Zn253 O256 1.986 . S
Zn253 O258 1.996 . S
Zn253 O261 1.943 1_565 S
O254 Zn253 1.962 . S
O254 C259 1.254 1_565 S
O255 Zn252 2.031 . S
O255 C259 1.269 . S
O256 Zn253 1.986 . S
O256 C263 1.262 . S
O257 Zn252 2.049 . S
O257 C265 1.260 . S
O258 Zn253 1.996 . S
O258 C265 1.257 1_565 S
C259 O254 1.254 1_545 S
C259 O255 1.269 . S
C260 O261 1.249 . S
C260 O262 1.270 . S
O261 Zn253 1.943 1_545 S
O261 C260 1.249 . S
O262 Zn252 2.067 . S
O262 C260 1.270 . S
C263 O256 1.262 . S
C263 O264 1.232 . S
O264 C263 1.232 . S
C265 O257 1.260 . S
C265 O258 1.257 1_545 S
Zn266 O269 2.031 1_554 S
Zn266 O271 2.049 . S
Zn266 O276 2.067 . S
Zn267 O268 1.962 1_554 S
Zn267 O270 1.986 . S
Zn267 O272 1.996 . S
Zn267 O275 1.943 . S
O268 Zn267 1.962 1_556 S
O268 C273 1.254 . S
O269 Zn266 2.031 1_556 S
O269 C273 1.269 . S
O270 Zn267 1.986 . S
O270 C277 1.262 . S
O271 Zn266 2.049 . S
O271 C279 1.260 . S
O272 Zn267 1.996 . S
O272 C279 1.257 . S
C273 O268 1.254 . S
C273 O269 1.269 . S
C274 O275 1.249 . S
C274 O276 1.270 . S
O275 Zn267 1.943 . S
O275 C274 1.249 . S
O276 Zn266 2.067 . S
O276 C274 1.270 . S
C277 O270 1.262 . S
C277 O278 1.232 1_554 S
O278 C277 1.232 1_556 S
C279 O271 1.260 . S
C279 O272 1.257 . S
Zn280 O283 2.031 1_554 S
Zn280 O285 2.049 . S
Zn280 O290 2.067 . S
Zn281 O282 1.983 . S
Zn281 O284 1.975 1_556 S
Zn281 O286 1.980 1_556 S
Zn281 O289 1.941 1_556 S
O282 Zn281 1.983 . S
O282 C287 1.254 . S
O283 Zn280 2.031 1_556 S
O283 C287 1.269 . S
O284 Zn281 1.975 1_554 S
O284 C291 1.264 . S
O285 Zn280 2.049 . S
O285 C293 1.260 . S
O286 Zn281 1.980 1_554 S
O286 C293 1.257 . S
C287 O282 1.254 . S
C287 O283 1.269 . S
C288 O289 1.249 . S
C288 O290 1.270 . S
O289 Zn281 1.941 1_554 S
O289 C288 1.249 . S
O290 Zn280 2.067 . S
O290 C288 1.270 . S
C291 O284 1.264 . S
C291 O292 1.230 1_554 S
O292 C291 1.230 1_556 S
C293 O285 1.260 . S
C293 O286 1.257 . S
Zn294 O297 2.031 . S
Zn294 O299 2.049 . S
Zn294 O304 2.067 . S
Zn295 O296 1.962 . S
Zn295 O298 1.986 . S
Zn295 O300 1.996 . S
Zn295 O303 1.943 . S
O296 Zn295 1.962 . S
O296 C301 1.254 . S
O297 Zn294 2.031 . S
O297 C301 1.269 . S
O298 Zn295 1.986 . S
O298 C305 1.262 . S
O299 Zn294 2.049 . S
O299 C307 1.260 . S
O300 Zn295 1.996 . S
O300 C307 1.257 . S
C301 O296 1.254 . S
C301 O297 1.269 . S
C302 O303 1.249 . S
C302 O304 1.270 . S
O303 Zn295 1.943 . S
O303 C302 1.249 . S
O304 Zn294 2.067 . S
O304 C302 1.270 . S
C305 O298 1.262 . S
C305 O306 1.232 . S
O306 C305 1.232 . S
C307 O299 1.260 . S
C307 O300 1.257 . S
Zn308 O311 2.031 . S
Zn308 O313 2.049 . S
Zn308 O318 2.067 . S
Zn309 O310 1.962 . S
Zn309 O312 1.986 . S
Zn309 O314 1.996 . S
Zn309 O317 1.943 . S
O310 Zn309 1.962 . S
O310 C315 1.254 . S
O311 Zn308 2.031 . S
O311 C315 1.269 . S
O312 Zn309 1.986 . S
O312 C319 1.262 . S
O313 Zn308 2.049 . S
O313 C321 1.260 . S
O314 Zn309 1.996 . S
O314 C321 1.257 . S
C315 O310 1.254 . S
C315 O311 1.269 . S
C316 O317 1.249 . S
C316 O318 1.270 . S
O317 Zn309 1.943 . S
O317 C316 1.249 . S
O318 Zn308 2.067 . S
O318 C316 1.270 . S
C319 O312 1.262 . S
C319 O320 1.232 . S
O320 C319 1.232 . S
C321 O313 1.260 . S
C321 O314 1.257 . S
Zn322 O325 2.031 . S
Zn322 O327 2.049 . S
Zn322 O332 2.067 . S
Zn323 O324 1.962 . S
Zn323 O326 1.986 . S
Zn323 O328 1.996 . S
Zn323 O331 1.943 . S
O324 Zn323 1.962 . S
O324 C329 1.254 . S
O325 Zn322 2.031 . S
O325 C329 1.269 . S
O326 Zn323 1.986 . S
O326 C333 1.262 . S
O327 Zn322 2.049 . S
O327 C335 1.260 . S
O328 Zn323 1.996 . S
O328 C335 1.257 . S
C329 O324 1.254 . S
C329 O325 1.269 . S
C330 O331 1.249 . S
C330 O332 1.270 . S
O331 Zn323 1.943 . S
O331 C330 1.249 . S
O332 Zn322 2.067 . S
O332 C330 1.270 . S
C333 O326 1.262 . S
C333 O334 1.232 . S
O334 C333 1.232 . S
C335 O327 1.260 . S
C335 O328 1.257 . S
O336 Zn337 1.953 1_554 S
O336 C352 1.225 1_455 S
Zn337 O336 1.953 1_556 S
Zn337 O338 1.949 1_556 S
Zn337 O344 1.919 . S
Zn337 O349 1.924 1_455 S
O338 Zn337 1.949 1_554 S
O338 Zn339 1.923 1_545 S
O338 Zn340 1.950 1_455 S
O338 Zn341 1.945 1_444 S
Zn339 O338 1.923 1_565 S
Zn339 O342 1.933 . S
Zn339 O345 1.941 1_565 S
Zn339 O346 1.965 . S
Zn340 O338 1.950 1_655 S
Zn340 O347 1.938 . S
Zn340 O348 1.906 1_545 S
Zn340 O358 1.953 . S
Zn341 O338 1.945 1_666 S
Zn341 O343 1.932 . S
Zn341 O350 1.977 1_556 S
Zn341 O351 1.910 1_565 S
O342 Zn339 1.933 . S
O342 C353 1.226 1_554 S
O343 Zn341 1.932 . S
O343 C353 1.307 1_655 S
O344 Zn337 1.919 . S
O344 C355 1.252 1_556 S
O345 Zn339 1.941 1_545 S
O345 C355 1.286 . S
O346 Zn339 1.965 . S
O346 C354 1.303 . S
O347 Zn340 1.938 . S
O347 C354 1.247 1_645 S
O348 Zn340 1.906 1_565 S
O348 C356 1.304 . S
O349 Zn337 1.924 1_655 S
O349 C357 1.311 . S
O350 Zn341 1.977 1_554 S
O350 C356 1.272 . S
O351 Zn341 1.910 1_545 S
O351 C357 1.231 . S
C352 O336 1.225 1_655 S
C352 O358 1.298 . S
C353 O342 1.226 1_556 S
C353 O343 1.307 1_455 S
C354 O346 1.303 . S
C354 O347 1.247 1_465 S
C355 O344 1.252 1_554 S
C355 O345 1.286 . S
C356 O348 1.304 . S
C356 O350 1.272 . S
C357 O349 1.311 . S
C357 O351 1.231 . S
O358 Zn340 1.953 . S
O358 C352 1.298 . S
O359 Zn360 1.953 . S
O359 C375 1.225 . S
Zn360 O359 1.953 . S
Zn360 O361 1.949 . S
Zn360 O367 1.919 . S
Zn360 O372 1.924 . S
O361 Zn360 1.949 . S
O361 Zn362 1.923 . S
O361 Zn363 1.950 . S
O361 Zn364 1.945 . S
Zn362 O361 1.923 . S
Zn362 O365 1.933 . S
Zn362 O368 1.941 . S
Zn362 O369 1.965 . S
Zn363 O361 1.950 . S
Zn363 O370 1.938 . S
Zn363 O371 1.906 . S
Zn363 O381 1.953 . S
Zn364 O361 1.945 . S
Zn364 O366 1.932 . S
Zn364 O373 1.977 . S
Zn364 O374 1.910 . S
O365 Zn362 1.933 . S
O365 C376 1.226 . S
O366 Zn364 1.932 . S
O366 C376 1.307 . S
O367 Zn360 1.919 . S
O367 C378 1.253 . S
O368 Zn362 1.941 . S
O368 C378 1.283 . S
O369 Zn362 1.965 . S
O369 C377 1.303 . S
O370 Zn363 1.938 . S
O370 C377 1.247 . S
O371 Zn363 1.906 . S
O371 C379 1.304 . S
O372 Zn360 1.924 . S
O372 C380 1.311 . S
O373 Zn364 1.977 . S
O373 C379 1.272 . S
O374 Zn364 1.910 . S
O374 C380 1.231 . S
C375 O359 1.225 . S
C375 O381 1.298 . S
C376 O365 1.226 . S
C376 O366 1.307 . S
C377 O369 1.303 . S
C377 O370 1.247 . S
C378 O367 1.253 . S
C378 O368 1.283 . S
C379 O371 1.304 . S
C379 O373 1.272 . S
C380 O372 1.311 . S
C380 O374 1.231 . S
O381 Zn363 1.953 . S
O381 C375 1.298 . S
O382 Zn383 1.953 . S
O382 C398 1.225 . S
Zn383 O382 1.953 . S
Zn383 O384 1.949 1_565 S
Zn383 O390 1.919 . S
Zn383 O395 1.924 . S
O384 Zn383 1.949 1_545 S
O384 Zn385 1.923 . S
O384 Zn386 1.950 . S
O384 Zn387 1.945 . S
Zn385 O384 1.923 . S
Zn385 O388 1.933 . S
Zn385 O391 1.941 . S
Zn385 O392 1.965 . S
Zn386 O384 1.950 . S
Zn386 O393 1.938 . S
Zn386 O394 1.906 . S
Zn386 O404 1.953 1_545 S
Zn387 O384 1.945 . S
Zn387 O389 1.932 . S
Zn387 O396 1.977 . S
Zn387 O397 1.910 . S
O388 Zn385 1.933 . S
O388 C399 1.226 . S
O389 Zn387 1.932 . S
O389 C399 1.307 . S
O390 Zn383 1.919 . S
O390 C401 1.253 . S
O391 Zn385 1.941 . S
O391 C401 1.283 1_545 S
O392 Zn385 1.965 . S
O392 C400 1.303 . S
O393 Zn386 1.938 . S
O393 C400 1.247 . S
O394 Zn386 1.906 . S
O394 C402 1.304 . S
O395 Zn383 1.924 . S
O395 C403 1.311 . S
O396 Zn387 1.977 . S
O396 C402 1.272 . S
O397 Zn387 1.910 . S
O397 C403 1.231 1_545 S
C398 O382 1.225 . S
C398 O404 1.298 . S
C399 O388 1.226 . S
C399 O389 1.307 . S
C400 O392 1.303 . S
C400 O393 1.247 . S
C401 O390 1.253 . S
C401 O391 1.283 1_565 S
C402 O394 1.304 . S
C402 O396 1.272 . S
C403 O395 1.311 . S
C403 O397 1.231 1_565 S
O404 Zn386 1.953 1_565 S
O404 C398 1.298 . S
O405 Zn406 1.953 . S
O405 C421 1.225 . S
Zn406 O405 1.953 . S
Zn406 O407 1.949 . S
Zn406 O413 1.919 . S
Zn406 O418 1.924 . S
O407 Zn406 1.949 . S
O407 Zn408 1.923 . S
O407 Zn409 1.950 . S
O407 Zn410 1.945 . S
Zn408 O407 1.923 . S
Zn408 O411 1.933 . S
Zn408 O414 1.941 . S
Zn408 O415 1.965 . S
Zn409 O407 1.950 . S
Zn409 O416 1.938 . S
Zn409 O417 1.906 . S
Zn409 O427 1.953 . S
Zn410 O407 1.945 . S
Zn410 O412 1.932 . S
Zn410 O419 1.977 . S
Zn410 O420 1.910 . S
O411 Zn408 1.933 . S
O411 C422 1.226 . S
O412 Zn410 1.932 . S
O412 C422 1.307 . S
O413 Zn406 1.919 . S
O413 C424 1.253 . S
O414 Zn408 1.941 . S
O414 C424 1.283 . S
O415 Zn408 1.965 . S
O415 C423 1.303 . S
O416 Zn409 1.938 . S
O416 C423 1.247 . S
O417 Zn409 1.906 . S
O417 C425 1.304 . S
O418 Zn406 1.924 . S
O418 C426 1.311 . S
O419 Zn410 1.977 . S
O419 C425 1.272 . S
O420 Zn410 1.910 . S
O420 C426 1.231 . S
C421 O405 1.225 . S
C421 O427 1.298 . S
C422 O411 1.226 . S
C422 O412 1.307 . S
C423 O415 1.303 . S
C423 O416 1.247 . S
C424 O413 1.253 . S
C424 O414 1.283 . S
C425 O417 1.304 . S
C425 O419 1.272 . S
C426 O418 1.311 . S
C426 O420 1.231 . S
O427 Zn409 1.953 . S
O427 C421 1.298 . S
O428 Zn429 1.946 1_445 S
O428 C444 1.225 . S
Zn429 O428 1.946 1_665 S
Zn429 O430 1.940 1_665 S
Zn429 O436 1.946 . S
Zn429 O441 1.911 1_565 S
O430 Zn429 1.940 1_445 S
O430 Zn431 1.923 1_545 S
O430 Zn432 1.950 . S
O430 Zn433 1.945 1_455 S
Zn431 O430 1.923 1_565 S
Zn431 O434 1.933 . S
Zn431 O437 1.941 . S
Zn431 O438 1.965 . S
Zn432 O430 1.950 . S
Zn432 O439 1.938 . S
Zn432 O440 1.906 . S
Zn432 O450 1.953 . S
Zn433 O430 1.945 1_655 S
Zn433 O435 1.932 . S
Zn433 O442 1.989 . S
Zn433 O443 1.910 . S
O434 Zn431 1.933 . S
O434 C445 1.226 1_455 S
O435 Zn433 1.932 . S
O435 C445 1.307 1_545 S
O436 Zn429 1.946 . S
O436 C447 1.253 . S
O437 Zn431 1.941 . S
O437 C447 1.283 1_455 S
O438 Zn431 1.965 . S
O438 C446 1.303 . S
O439 Zn432 1.938 . S
O439 C446 1.247 1_545 S
O440 Zn432 1.906 . S
O440 C448 1.304 . S
O441 Zn429 1.911 1_545 S
O441 C449 1.311 . S
O442 Zn433 1.989 . S
O442 C448 1.241 1_655 S
O443 Zn433 1.910 . S
O443 C449 1.231 . S
C444 O428 1.225 . S
C444 O450 1.298 . S
C445 O434 1.226 1_655 S
C445 O435 1.307 1_565 S
C446 O438 1.303 . S
C446 O439 1.247 1_565 S
C447 O436 1.253 . S
C447 O437 1.283 1_655 S
C448 O440 1.304 . S
C448 O442 1.241 1_455 S
C449 O441 1.311 . S
C449 O443 1.231 . S
O450 Zn432 1.953 . S
O450 C444 1.298 . S
O451 Zn452 1.953 . S
O451 C467 1.225 . S
Zn452 O451 1.953 . S
Zn452 O453 1.949 . S
Zn452 O459 1.919 . S
Zn452 O464 1.924 . S
O453 Zn452 1.949 . S
O453 Zn454 1.923 . S
O453 Zn455 1.950 . S
O453 Zn456 1.945 . S
Zn454 O453 1.923 . S
Zn454 O457 1.933 . S
Zn454 O460 1.941 . S
Zn454 O461 1.965 . S
Zn455 O453 1.950 . S
Zn455 O462 1.938 . S
Zn455 O463 1.906 . S
Zn455 O473 1.953 . S
Zn456 O453 1.945 . S
Zn456 O458 1.932 . S
Zn456 O465 1.977 . S
Zn456 O466 1.910 . S
O457 Zn454 1.933 . S
O457 C468 1.226 . S
O458 Zn456 1.932 . S
O458 C468 1.307 . S
O459 Zn452 1.919 . S
O459 C470 1.253 . S
O460 Zn454 1.941 . S
O460 C470 1.283 . S
O461 Zn454 1.965 . S
O461 C469 1.303 . S
O462 Zn455 1.938 . S
O462 C469 1.247 . S
O463 Zn455 1.906 . S
O463 C471 1.304 . S
O464 Zn452 1.924 . S
O464 C472 1.311 . S
O465 Zn456 1.977 . S
O465 C471 1.272 . S
O466 Zn456 1.910 . S
O466 C472 1.231 . S
C467 O451 1.225 . S
C467 O473 1.298 . S
C468 O457 1.226 . S
C468 O458 1.307 . S
C469 O461 1.303 . S
C469 O462 1.247 . S
C470 O459 1.253 . S
C470 O460 1.283 . S
C471 O463 1.304 . S
C471 O465 1.272 . S
C472 O464 1.311 . S
C472 O466 1.231 . S
O473 Zn455 1.953 . S
O473 C467 1.298 . S
O474 Zn475 1.953 . S
O474 C490 1.225 . S
Zn475 O474 1.953 . S
Zn475 O476 1.949 . S
Zn475 O482 1.919 1_545 S
Zn475 O487 1.924 . S
O476 Zn475 1.949 . S
O476 Zn477 1.923 1_544 S
O476 Zn478 1.950 . S
O476 Zn479 1.945 1_554 S
Zn477 O476 1.923 1_566 S
Zn477 O480 1.933 . S
Zn477 O483 1.941 . S
Zn477 O484 1.965 1_556 S
Zn478 O476 1.950 . S
Zn478 O485 1.938 1_545 S
Zn478 O486 1.906 . S
Zn478 O496 1.953 . S
Zn479 O476 1.945 1_556 S
Zn479 O481 1.932 . S
Zn479 O488 1.977 1_556 S
Zn479 O489 1.910 . S
O480 Zn477 1.933 . S
O480 C491 1.226 . S
O481 Zn479 1.932 . S
O481 C491 1.307 1_545 S
O482 Zn475 1.919 1_565 S
O482 C493 1.253 1_554 S
O483 Zn477 1.941 . S
O483 C493 1.283 . S
O484 Zn477 1.965 1_554 S
O484 C492 1.303 . S
O485 Zn478 1.938 1_565 S
O485 C492 1.247 . S
O486 Zn478 1.906 . S
O486 C494 1.304 . S
O487 Zn475 1.924 . S
O487 C495 1.311 1_554 S
O488 Zn479 1.977 1_554 S
O488 C494 1.272 . S
O489 Zn479 1.910 . S
O489 C495 1.231 . S
C490 O474 1.225 . S
C490 O496 1.298 . S
C491 O480 1.226 . S
C491 O481 1.307 1_565 S
C492 O484 1.303 . S
C492 O485 1.247 . S
C493 O482 1.253 1_556 S
C493 O483 1.283 . S
C494 O486 1.304 . S
C494 O488 1.272 . S
C495 O487 1.311 1_556 S
C495 O489 1.231 . S
O496 Zn478 1.953 . S
O496 C490 1.298 . S
O497 Zn498 1.953 . S
O497 C513 1.225 . S
Zn498 O497 1.953 . S
Zn498 O499 1.949 . S
Zn498 O505 1.919 . S
Zn498 O510 1.924 . S
O499 Zn498 1.949 . S
O499 Zn500 1.923 . S
O499 Zn501 1.950 . S
O499 Zn502 1.945 . S
Zn500 O499 1.923 . S
Zn500 O503 1.933 . S
Zn500 O506 1.941 . S
Zn500 O507 1.965 . S
Zn501 O499 1.950 . S
Zn501 O508 1.938 . S
Zn501 O509 1.906 . S
Zn501 O519 1.953 . S
Zn502 O499 1.945 . S
Zn502 O504 1.932 . S
Zn502 O511 1.977 . S
Zn502 O512 1.910 . S
O503 Zn500 1.933 . S
O503 C514 1.226 . S
O504 Zn502 1.932 . S
O504 C514 1.307 . S
O505 Zn498 1.919 . S
O505 C516 1.253 . S
O506 Zn500 1.941 . S
O506 C516 1.283 . S
O507 Zn500 1.965 . S
O507 C515 1.303 . S
O508 Zn501 1.938 . S
O508 C515 1.247 . S
O509 Zn501 1.906 . S
O509 C517 1.304 . S
O510 Zn498 1.924 . S
O510 C518 1.311 . S
O511 Zn502 1.977 . S
O511 C517 1.272 . S
O512 Zn502 1.910 . S
O512 C518 1.231 . S
C513 O497 1.225 . S
C513 O519 1.298 . S
C514 O503 1.226 . S
C514 O504 1.307 . S
C515 O507 1.303 . S
C515 O508 1.247 . S
C516 O505 1.253 . S
C516 O506 1.283 . S
C517 O509 1.304 . S
C517 O511 1.272 . S
C518 O510 1.311 . S
C518 O512 1.231 . S
O519 Zn501 1.953 . S
O519 C513 1.298 . S
O520 Zn521 1.953 . S
O520 C536 1.225 . S
Zn521 O520 1.953 . S
Zn521 O522 1.949 1_556 S
Zn521 O528 1.919 . S
Zn521 O533 1.924 . S
O522 Zn521 1.949 1_554 S
O522 Zn523 1.923 . S
O522 Zn524 1.950 . S
O522 Zn525 1.945 . S
Zn523 O522 1.923 . S
Zn523 O526 1.933 . S
Zn523 O529 1.941 . S
Zn523 O530 1.965 . S
Zn524 O522 1.950 . S
Zn524 O531 1.938 . S
Zn524 O532 1.906 . S
Zn524 O542 1.953 1_554 S
Zn525 O522 1.945 . S
Zn525 O527 1.932 . S
Zn525 O534 1.977 . S
Zn525 O535 1.910 . S
O526 Zn523 1.933 . S
O526 C537 1.226 . S
O527 Zn525 1.932 . S
O527 C537 1.307 . S
O528 Zn521 1.919 . S
O528 C539 1.253 1_556 S
O529 Zn523 1.941 . S
O529 C539 1.283 . S
O530 Zn523 1.965 . S
O530 C538 1.303 . S
O531 Zn524 1.938 . S
O531 C538 1.247 . S
O532 Zn524 1.906 . S
O532 C540 1.304 . S
O533 Zn521 1.924 . S
O533 C541 1.311 . S
O534 Zn525 1.977 . S
O534 C540 1.272 . S
O535 Zn525 1.910 . S
O535 C541 1.231 1_554 S
C536 O520 1.225 . S
C536 O542 1.298 . S
C537 O526 1.226 . S
C537 O527 1.307 . S
C538 O530 1.303 . S
C538 O531 1.247 . S
C539 O528 1.253 1_554 S
C539 O529 1.283 . S
C540 O532 1.304 . S
C540 O534 1.272 . S
C541 O533 1.311 . S
C541 O535 1.231 1_556 S
O542 Zn524 1.953 1_556 S
O542 C536 1.298 . S
O543 Zn544 1.953 . S
O543 C559 1.225 . S
Zn544 O543 1.953 . S
Zn544 O545 1.949 . S
Zn544 O551 1.919 . S
Zn544 O556 1.924 . S
O545 Zn544 1.949 . S
O545 Zn546 1.923 . S
O545 Zn547 1.950 . S
O545 Zn548 1.945 . S
Zn546 O545 1.923 . S
Zn546 O549 1.933 . S
Zn546 O552 1.941 . S
Zn546 O553 1.965 . S
Zn547 O545 1.950 . S
Zn547 O554 1.938 . S
Zn547 O555 1.906 . S
Zn547 O565 1.953 . S
Zn548 O545 1.945 . S
Zn548 O550 1.932 . S
Zn548 O557 1.977 . S
Zn548 O558 1.910 . S
O549 Zn546 1.933 . S
O549 C560 1.226 . S
O550 Zn548 1.932 . S
O550 C560 1.307 . S
O551 Zn544 1.919 . S
O551 C562 1.253 . S
O552 Zn546 1.941 . S
O552 C562 1.283 . S
O553 Zn546 1.965 . S
O553 C561 1.303 . S
O554 Zn547 1.938 . S
O554 C561 1.247 . S
O555 Zn547 1.906 . S
O555 C563 1.304 . S
O556 Zn544 1.924 . S
O556 C564 1.311 . S
O557 Zn548 1.977 . S
O557 C563 1.272 . S
O558 Zn548 1.910 . S
O558 C564 1.231 . S
C559 O543 1.225 . S
C559 O565 1.298 . S
C560 O549 1.226 . S
C560 O550 1.307 . S
C561 O553 1.303 . S
C561 O554 1.247 . S
C562 O551 1.253 . S
C562 O552 1.283 . S
C563 O555 1.304 . S
C563 O557 1.272 . S
C564 O556 1.311 . S
C564 O558 1.231 . S
O565 Zn547 1.953 . S
O565 C559 1.298 . S
O566 Zn567 1.953 . S
O566 C582 1.225 . S
Zn567 O566 1.953 . S
Zn567 O568 1.958 . S
Zn567 O574 1.919 . S
Zn567 O579 1.924 . S
O568 Zn567 1.958 . S
O568 Zn569 1.922 . S
O568 Zn570 1.945 1_455 S
O568 Zn571 1.940 1_455 S
Zn569 O568 1.922 . S
Zn569 O572 1.923 1_455 S
Zn569 O575 1.967 . S
Zn569 O576 1.957 1_455 S
Zn570 O568 1.945 1_655 S
Zn570 O577 1.938 . S
Zn570 O578 1.906 . S
Zn570 O588 1.953 1_655 S
Zn571 O568 1.940 1_655 S
Zn571 O573 1.932 . S
Zn571 O580 1.977 . S
Zn571 O581 1.910 1_655 S
O572 Zn569 1.923 1_655 S
O572 C583 1.226 . S
O573 Zn571 1.932 . S
O573 C583 1.307 . S
O574 Zn567 1.919 . S
O574 C585 1.253 . S
O575 Zn569 1.967 . S
O575 C585 1.283 . S
O576 Zn569 1.957 1_655 S
O576 C584 1.303 . S
O577 Zn570 1.938 . S
O577 C584 1.247 . S
O578 Zn570 1.906 . S
O578 C586 1.304 . S
O579 Zn567 1.924 . S
O579 C587 1.311 . S
O580 Zn571 1.977 . S
O580 C586 1.272 . S
O581 Zn571 1.910 1_455 S
O581 C587 1.231 . S
C582 O566 1.225 . S
C582 O588 1.298 . S
C583 O572 1.226 . S
C583 O573 1.307 . S
C584 O576 1.303 . S
C584 O577 1.247 . S
C585 O574 1.253 . S
C585 O575 1.283 . S
C586 O578 1.304 . S
C586 O580 1.272 . S
C587 O579 1.311 . S
C587 O581 1.231 . S
O588 Zn570 1.953 1_455 S
O588 C582 1.298 . S
O589 Zn590 1.953 . S
O589 C605 1.225 . S
Zn590 O589 1.953 . S
Zn590 O591 1.949 . S
Zn590 O597 1.919 . S
Zn590 O602 1.924 . S
O591 Zn590 1.949 . S
O591 Zn592 1.923 . S
O591 Zn593 1.950 . S
O591 Zn594 1.945 . S
Zn592 O591 1.923 . S
Zn592 O595 1.933 . S
Zn592 O598 1.941 . S
Zn592 O599 1.965 . S
Zn593 O591 1.950 . S
Zn593 O600 1.938 . S
Zn593 O601 1.906 . S
Zn593 O611 1.953 . S
Zn594 O591 1.945 . S
Zn594 O596 1.932 . S
Zn594 O603 1.977 . S
Zn594 O604 1.910 . S
O595 Zn592 1.933 . S
O595 C606 1.226 . S
O596 Zn594 1.932 . S
O596 C606 1.307 . S
O597 Zn590 1.919 . S
O597 C608 1.253 . S
O598 Zn592 1.941 . S
O598 C608 1.283 . S
O599 Zn592 1.965 . S
O599 C607 1.303 . S
O600 Zn593 1.938 . S
O600 C607 1.247 . S
O601 Zn593 1.906 . S
O601 C609 1.304 . S
O602 Zn590 1.924 . S
O602 C610 1.311 . S
O603 Zn594 1.977 . S
O603 C609 1.272 . S
O604 Zn594 1.910 . S
O604 C610 1.231 . S
C605 O589 1.225 . S
C605 O611 1.298 . S
C606 O595 1.226 . S
C606 O596 1.307 . S
C607 O599 1.303 . S
C607 O600 1.247 . S
C608 O597 1.253 . S
C608 O598 1.283 . S
C609 O601 1.304 . S
C609 O603 1.272 . S
C610 O602 1.311 . S
C610 O604 1.231 . S
O611 Zn593 1.953 . S
O611 C605 1.298 . S
O612 Zn613 1.953 . S
O612 C628 1.225 . S
Zn613 O612 1.953 . S
Zn613 O614 1.949 . S
Zn613 O620 1.919 . S
Zn613 O625 1.924 . S
O614 Zn613 1.949 . S
O614 Zn615 1.923 . S
O614 Zn616 1.950 . S
O614 Zn617 1.945 . S
Zn615 O614 1.923 . S
Zn615 O618 1.933 . S
Zn615 O621 1.941 . S
Zn615 O622 1.965 . S
Zn616 O614 1.950 . S
Zn616 O623 1.938 . S
Zn616 O624 1.906 . S
Zn616 O634 1.953 . S
Zn617 O614 1.945 . S
Zn617 O619 1.932 . S
Zn617 O626 1.977 . S
Zn617 O627 1.910 . S
O618 Zn615 1.933 . S
O618 C629 1.226 . S
O619 Zn617 1.932 . S
O619 C629 1.307 . S
O620 Zn613 1.919 . S
O620 C631 1.253 . S
O621 Zn615 1.941 . S
O621 C631 1.283 . S
O622 Zn615 1.965 . S
O622 C630 1.303 . S
O623 Zn616 1.938 . S
O623 C630 1.247 . S
O624 Zn616 1.906 . S
O624 C632 1.304 . S
O625 Zn613 1.924 . S
O625 C633 1.311 . S
O626 Zn617 1.977 . S
O626 C632 1.272 . S
O627 Zn617 1.910 . S
O627 C633 1.231 . S
C628 O612 1.225 . S
C628 O634 1.298 . S
C629 O618 1.226 . S
C629 O619 1.307 . S
C630 O622 1.303 . S
C630 O623 1.247 . S
C631 O620 1.253 . S
C631 O621 1.283 . S
C632 O624 1.304 . S
C632 O626 1.272 . S
C633 O625 1.311 . S
C633 O627 1.231 . S
O634 Zn616 1.953 . S
O634 C628 1.298 . S
O635 Zn636 1.953 . S
O635 C651 1.225 . S
Zn636 O635 1.953 . S
Zn636 O637 1.949 . S
Zn636 O643 1.919 . S
Zn636 O648 1.924 . S
O637 Zn636 1.949 . S
O637 Zn638 1.923 . S
O637 Zn639 1.950 . S
O637 Zn640 1.945 . S
Zn638 O637 1.923 . S
Zn638 O641 1.933 . S
Zn638 O644 1.941 . S
Zn638 O645 1.965 . S
Zn639 O637 1.950 . S
Zn639 O646 1.938 . S
Zn639 O647 1.906 . S
Zn639 O657 1.953 . S
Zn640 O637 1.945 . S
Zn640 O642 1.932 . S
Zn640 O649 1.977 . S
Zn640 O650 1.910 . S
O641 Zn638 1.933 . S
O641 C652 1.226 . S
O642 Zn640 1.932 . S
O642 C652 1.307 . S
O643 Zn636 1.919 . S
O643 C654 1.253 . S
O644 Zn638 1.941 . S
O644 C654 1.283 . S
O645 Zn638 1.965 . S
O645 C653 1.303 . S
O646 Zn639 1.938 . S
O646 C653 1.247 . S
O647 Zn639 1.906 . S
O647 C655 1.304 . S
O648 Zn636 1.924 . S
O648 C656 1.311 . S
O649 Zn640 1.977 . S
O649 C655 1.272 . S
O650 Zn640 1.910 . S
O650 C656 1.231 . S
C651 O635 1.225 . S
C651 O657 1.298 . S
C652 O641 1.226 . S
C652 O642 1.307 . S
C653 O645 1.303 . S
C653 O646 1.247 . S
C654 O643 1.253 . S
C654 O644 1.283 . S
C655 O647 1.304 . S
C655 O649 1.272 . S
C656 O648 1.311 . S
C656 O650 1.231 . S
O657 Zn639 1.953 . S
O657 C651 1.298 . S
O658 Zn659 1.953 . S
O658 C674 1.225 . S
Zn659 O658 1.953 . S
Zn659 O660 1.949 . S
Zn659 O666 1.919 . S
Zn659 O671 1.924 . S
O660 Zn659 1.949 . S
O660 Zn661 1.923 . S
O660 Zn662 1.950 . S
O660 Zn663 1.945 . S
Zn661 O660 1.923 . S
Zn661 O664 1.933 . S
Zn661 O667 1.941 . S
Zn661 O668 1.965 . S
Zn662 O660 1.950 . S
Zn662 O669 1.938 . S
Zn662 O670 1.906 . S
Zn662 O680 1.953 . S
Zn663 O660 1.945 . S
Zn663 O665 1.932 . S
Zn663 O672 1.977 . S
Zn663 O673 1.910 . S
O664 Zn661 1.933 . S
O664 C675 1.226 . S
O665 Zn663 1.932 . S
O665 C675 1.307 . S
O666 Zn659 1.919 . S
O666 C677 1.253 . S
O667 Zn661 1.941 . S
O667 C677 1.283 . S
O668 Zn661 1.965 . S
O668 C676 1.303 . S
O669 Zn662 1.938 . S
O669 C676 1.247 . S
O670 Zn662 1.906 . S
O670 C678 1.304 . S
O671 Zn659 1.924 . S
O671 C679 1.311 . S
O672 Zn663 1.977 . S
O672 C678 1.272 . S
O673 Zn663 1.910 . S
O673 C679 1.231 . S
C674 O658 1.225 . S
C674 O680 1.298 . S
C675 O664 1.226 . S
C675 O665 1.307 . S
C676 O668 1.303 . S
C676 O669 1.247 . S
C677 O666 1.253 . S
C677 O667 1.283 . S
C678 O670 1.304 . S
C678 O672 1.272 . S
C679 O671 1.311 . S
C679 O673 1.231 . S
O680 Zn662 1.953 . S
O680 C674 1.298 . S
O681 Zn682 1.948 1_455 S
O681 C697 1.225 . S
Zn682 O681 1.948 1_655 S
Zn682 O683 1.943 1_655 S
Zn682 O689 1.935 1_554 S
Zn682 O694 1.916 1_654 S
O683 Zn682 1.943 1_455 S
O683 Zn684 1.923 1_455 S
O683 Zn685 1.950 . S
O683 Zn686 1.945 1_554 S
Zn684 O683 1.923 1_655 S
Zn684 O687 1.933 . S
Zn684 O690 1.941 . S
Zn684 O691 1.965 . S
Zn685 O683 1.950 . S
Zn685 O692 1.938 . S
Zn685 O693 1.906 . S
Zn685 O703 1.953 . S
Zn686 O683 1.945 1_556 S
Zn686 O688 1.932 . S
Zn686 O695 1.977 1_556 S
Zn686 O696 1.910 . S
O687 Zn684 1.933 . S
O687 C698 1.226 1_554 S
O688 Zn686 1.932 . S
O688 C698 1.307 1_455 S
O689 Zn682 1.935 1_556 S
O689 C700 1.253 1_556 S
O690 Zn684 1.941 . S
O690 C700 1.283 . S
O691 Zn684 1.965 . S
O691 C699 1.303 . S
O692 Zn685 1.938 . S
O692 C699 1.247 1_455 S
O693 Zn685 1.906 . S
O693 C701 1.304 . S
O694 Zn682 1.916 1_456 S
O694 C702 1.311 . S
O695 Zn686 1.977 1_554 S
O695 C701 1.272 . S
O696 Zn686 1.910 . S
O696 C702 1.231 . S
C697 O681 1.225 . S
C697 O703 1.298 . S
C698 O687 1.226 1_556 S
C698 O688 1.307 1_655 S
C699 O691 1.303 . S
C699 O692 1.247 1_655 S
C700 O689 1.253 1_554 S
C700 O690 1.283 . S
C701 O693 1.304 . S
C701 O695 1.272 . S
C702 O694 1.311 . S
C702 O696 1.231 . S
O703 Zn685 1.953 . S
O703 C697 1.298 . S
H704 C710 0.930 . S
H705 C713 0.930 . S
H706 C714 0.930 . S
H707 C715 0.930 . S
H708 C718 0.928 1_455 S
H709 C719 0.930 . S
C710 H704 0.930 . S
C710 C711 1.355 . S
C710 C712 1.415 . S
C711 C710 1.355 . S
C711 C713 1.419 1_455 S
C712 C710 1.415 . S
C712 C717 1.425 1_455 S
C712 C719 1.409 . S
C713 H705 0.930 . S
C713 C711 1.419 1_655 S
C713 C714 1.362 . S
C714 H706 0.930 . S
C714 C713 1.362 . S
C714 C717 1.409 . S
C715 H707 0.930 . S
C715 C716 1.355 . S
C715 C717 1.415 . S
C716 C715 1.355 . S
C716 C718 1.419 . S
C717 C712 1.425 1_655 S
C717 C714 1.409 . S
C717 C715 1.415 . S
C718 H708 0.928 1_655 S
C718 C716 1.419 . S
C718 C719 1.362 1_655 S
C719 H709 0.930 . S
C719 C712 1.409 . S
C719 C718 1.362 1_455 S
H720 C726 0.930 . S
H721 C729 0.930 . S
H722 C730 0.930 . S
H723 C731 0.930 . S
H724 C734 0.930 . S
H725 C735 0.930 . S
C726 H720 0.930 . S
C726 C727 1.355 . S
C726 C728 1.415 . S
C727 C726 1.355 . S
C727 C729 1.419 . S
C728 C726 1.415 . S
C728 C733 1.425 . S
C728 C735 1.409 . S
C729 H721 0.930 . S
C729 C727 1.419 . S
C729 C730 1.362 . S
C730 H722 0.930 . S
C730 C729 1.362 . S
C730 C733 1.409 . S
C731 H723 0.930 . S
C731 C732 1.355 . S
C731 C733 1.415 . S
C732 C731 1.355 . S
C732 C734 1.419 . S
C733 C728 1.425 . S
C733 C730 1.409 . S
C733 C731 1.415 . S
C734 H724 0.930 . S
C734 C732 1.419 . S
C734 C735 1.362 . S
C735 H725 0.930 . S
C735 C728 1.409 . S
C735 C734 1.362 . S
H736 C742 0.930 . S
H737 C745 0.930 . S
H738 C746 0.930 . S
H739 C747 0.930 . S
H740 C750 0.930 . S
H741 C751 0.930 . S
C742 H736 0.930 . S
C742 C743 1.355 . S
C742 C744 1.415 . S
C743 C742 1.355 . S
C743 C745 1.419 . S
C744 C742 1.415 . S
C744 C749 1.425 . S
C744 C751 1.409 . S
C745 H737 0.930 . S
C745 C743 1.419 . S
C745 C746 1.362 . S
C746 H738 0.930 . S
C746 C745 1.362 . S
C746 C749 1.409 . S
C747 H739 0.930 . S
C747 C748 1.355 . S
C747 C749 1.415 . S
C748 C747 1.355 . S
C748 C750 1.419 . S
C749 C744 1.425 . S
C749 C746 1.409 . S
C749 C747 1.415 . S
C750 H740 0.930 . S
C750 C748 1.419 . S
C750 C751 1.362 . S
C751 H741 0.930 . S
C751 C744 1.409 . S
C751 C750 1.362 . S
H752 C758 0.930 . S
H753 C761 0.930 . S
H754 C762 0.930 . S
H755 C763 0.930 . S
H756 C766 0.930 . S
H757 C767 0.930 . S
C758 H752 0.930 . S
C758 C759 1.355 . S
C758 C760 1.415 . S
C759 C758 1.355 . S
C759 C761 1.419 . S
C760 C758 1.415 . S
C760 C765 1.425 . S
C760 C767 1.409 . S
C761 H753 0.930 . S
C761 C759 1.419 . S
C761 C762 1.362 . S
C762 H754 0.930 . S
C762 C761 1.362 . S
C762 C765 1.409 . S
C763 H755 0.930 . S
C763 C764 1.355 . S
C763 C765 1.415 . S
C764 C763 1.355 . S
C764 C766 1.419 . S
C765 C760 1.425 . S
C765 C762 1.409 . S
C765 C763 1.415 . S
C766 H756 0.930 . S
C766 C764 1.419 . S
C766 C767 1.362 . S
C767 H757 0.930 . S
C767 C760 1.409 . S
C767 C766 1.362 . S
H768 C774 0.930 . S
H769 C777 0.930 . S
H770 C778 0.930 . S
H771 C779 0.930 . S
H772 C782 0.930 . S
H773 C783 0.930 . S
C774 H768 0.930 . S
C774 C775 1.356 . S
C774 C776 1.415 1_455 S
C775 C774 1.356 . S
C775 C777 1.415 1_455 S
C776 C774 1.415 1_655 S
C776 C781 1.425 . S
C776 C783 1.409 1_655 S
C777 H769 0.930 . S
C777 C775 1.415 1_655 S
C777 C778 1.362 . S
C778 H770 0.930 . S
C778 C777 1.362 . S
C778 C781 1.409 . S
C779 H771 0.930 . S
C779 C780 1.355 . S
C779 C781 1.415 . S
C780 C779 1.355 . S
C780 C782 1.419 . S
C781 C776 1.425 . S
C781 C778 1.409 . S
C781 C779 1.415 . S
C782 H772 0.930 . S
C782 C780 1.419 . S
C782 C783 1.362 1_655 S
C783 H773 0.930 . S
C783 C776 1.409 1_455 S
C783 C782 1.362 1_455 S
H784 C790 0.930 . S
H785 C793 0.930 . S
H786 C794 0.930 . S
H787 C795 0.930 . S
H788 C798 0.930 . S
H789 C799 0.930 . S
C790 H784 0.930 . S
C790 C791 1.355 . S
C790 C792 1.415 . S
C791 C790 1.355 . S
C791 C793 1.419 . S
C792 C790 1.415 . S
C792 C797 1.425 . S
C792 C799 1.409 . S
C793 H785 0.930 . S
C793 C791 1.419 . S
C793 C794 1.362 . S
C794 H786 0.930 . S
C794 C793 1.362 . S
C794 C797 1.409 . S
C795 H787 0.930 . S
C795 C796 1.355 . S
C795 C797 1.415 . S
C796 C795 1.355 . S
C796 C798 1.419 . S
C797 C792 1.425 . S
C797 C794 1.409 . S
C797 C795 1.415 . S
C798 H788 0.930 . S
C798 C796 1.419 . S
C798 C799 1.362 . S
C799 H789 0.930 . S
C799 C792 1.409 . S
C799 C798 1.362 . S
H800 C806 0.930 . S
H801 C809 0.930 . S
H802 C810 0.930 1_554 S
H803 C811 0.930 1_554 S
H804 C814 0.930 . S
H805 C815 0.930 . S
C806 H800 0.930 . S
C806 C807 1.355 . S
C806 C808 1.415 . S
C807 C806 1.355 . S
C807 C809 1.419 . S
C808 C806 1.415 . S
C808 C813 1.425 . S
C808 C815 1.409 . S
C809 H801 0.930 . S
C809 C807 1.419 . S
C809 C810 1.362 . S
C810 H802 0.930 1_556 S
C810 C809 1.362 . S
C810 C813 1.409 . S
C811 H803 0.930 1_556 S
C811 C812 1.355 . S
C811 C813 1.415 . S
C812 C811 1.355 . S
C812 C814 1.419 . S
C813 C808 1.425 . S
C813 C810 1.409 . S
C813 C811 1.415 . S
C814 H804 0.930 . S
C814 C812 1.419 . S
C814 C815 1.362 . S
C815 H805 0.930 . S
C815 C808 1.409 . S
C815 C814 1.362 . S
H816 C822 0.930 . S
H817 C825 0.930 . S
H818 C826 0.930 . S
H819 C827 0.930 . S
H820 C830 0.930 . S
H821 C831 0.930 . S
C822 H816 0.930 . S
C822 C823 1.355 . S
C822 C824 1.415 . S
C823 C822 1.355 . S
C823 C825 1.419 . S
C824 C822 1.415 . S
C824 C829 1.425 . S
C824 C831 1.409 . S
C825 H817 0.930 . S
C825 C823 1.419 . S
C825 C826 1.362 . S
C826 H818 0.930 . S
C826 C825 1.362 . S
C826 C829 1.409 . S
C827 H819 0.930 . S
C827 C828 1.355 . S
C827 C829 1.415 . S
C828 C827 1.355 . S
C828 C830 1.419 . S
C829 C824 1.425 . S
C829 C826 1.409 . S
C829 C827 1.415 . S
C830 H820 0.930 . S
C830 C828 1.419 . S
C830 C831 1.362 . S
C831 H821 0.930 . S
C831 C824 1.409 . S
C831 C830 1.362 . S
H832 C838 0.930 . S
H833 C841 0.930 . S
H834 C842 0.930 . S
H835 C843 0.930 . S
H836 C846 0.930 . S
H837 C847 0.930 . S
C838 H832 0.930 . S
C838 C839 1.355 . S
C838 C840 1.415 . S
C839 C838 1.355 . S
C839 C841 1.419 . S
C840 C838 1.415 . S
C840 C845 1.425 . S
C840 C847 1.409 . S
C841 H833 0.930 . S
C841 C839 1.419 . S
C841 C842 1.362 . S
C842 H834 0.930 . S
C842 C841 1.362 . S
C842 C845 1.409 . S
C843 H835 0.930 . S
C843 C844 1.355 . S
C843 C845 1.415 . S
C844 C843 1.355 . S
C844 C846 1.419 . S
C845 C840 1.425 . S
C845 C842 1.409 . S
C845 C843 1.415 . S
C846 H836 0.930 . S
C846 C844 1.419 . S
C846 C847 1.362 . S
C847 H837 0.930 . S
C847 C840 1.409 . S
C847 C846 1.362 . S
H848 C854 0.930 . S
H849 C857 0.930 . S
H850 C858 0.930 . S
H851 C859 0.930 . S
H852 C862 0.930 . S
H853 C863 0.930 . S
C854 H848 0.930 . S
C854 C855 1.355 . S
C854 C856 1.415 . S
C855 C854 1.355 . S
C855 C857 1.419 . S
C856 C854 1.415 . S
C856 C861 1.425 . S
C856 C863 1.409 . S
C857 H849 0.930 . S
C857 C855 1.419 . S
C857 C858 1.362 . S
C858 H850 0.930 . S
C858 C857 1.362 . S
C858 C861 1.409 . S
C859 H851 0.930 . S
C859 C860 1.355 . S
C859 C861 1.415 . S
C860 C859 1.355 . S
C860 C862 1.419 . S
C861 C856 1.425 . S
C861 C858 1.409 . S
C861 C859 1.415 . S
C862 H852 0.930 . S
C862 C860 1.419 . S
C862 C863 1.362 . S
C863 H853 0.930 . S
C863 C856 1.409 . S
C863 C862 1.362 . S
H864 C870 0.930 . S
H865 C873 0.930 . S
H866 C874 0.930 . S
H867 C875 0.930 . S
H868 C878 0.930 . S
H869 C879 0.930 . S
C870 H864 0.930 . S
C870 C871 1.355 . S
C870 C872 1.415 . S
C871 C870 1.355 . S
C871 C873 1.419 1_545 S
C872 C870 1.415 . S
C872 C877 1.425 . S
C872 C879 1.409 . S
C873 H865 0.930 . S
C873 C871 1.419 1_565 S
C873 C874 1.362 . S
C874 H866 0.930 . S
C874 C873 1.362 . S
C874 C877 1.409 1_565 S
C875 H867 0.930 . S
C875 C876 1.355 . S
C875 C877 1.415 . S
C876 C875 1.355 . S
C876 C878 1.419 . S
C877 C872 1.425 . S
C877 C874 1.409 1_545 S
C877 C875 1.415 . S
C878 H868 0.930 . S
C878 C876 1.419 . S
C878 C879 1.362 . S
C879 H869 0.930 . S
C879 C872 1.409 . S
C879 C878 1.362 . S
H880 C886 0.930 . S
H881 C889 0.930 . S
H882 C890 0.930 . S
H883 C891 0.930 . S
H884 C894 0.930 . S
H885 C895 0.930 . S
C886 H880 0.930 . S
C886 C887 1.355 . S
C886 C888 1.415 . S
C887 C886 1.355 . S
C887 C889 1.419 . S
C888 C886 1.415 . S
C888 C893 1.425 . S
C888 C895 1.409 . S
C889 H881 0.930 . S
C889 C887 1.419 . S
C889 C890 1.362 . S
C890 H882 0.930 . S
C890 C889 1.362 . S
C890 C893 1.409 . S
C891 H883 0.930 . S
C891 C892 1.355 . S
C891 C893 1.415 . S
C892 C891 1.355 . S
C892 C894 1.419 . S
C893 C888 1.425 . S
C893 C890 1.409 . S
C893 C891 1.415 . S
C894 H884 0.930 . S
C894 C892 1.419 . S
C894 C895 1.362 . S
C895 H885 0.930 . S
C895 C888 1.409 . S
C895 C894 1.362 . S
H896 C902 0.930 . S
H897 C905 0.930 . S
H898 C906 0.930 . S
H899 C907 0.930 . S
H900 C910 0.930 . S
H901 C911 0.930 . S
C902 H896 0.930 . S
C902 C903 1.355 . S
C902 C904 1.415 . S
C903 C902 1.355 . S
C903 C905 1.419 . S
C904 C902 1.415 . S
C904 C909 1.425 . S
C904 C911 1.409 . S
C905 H897 0.930 . S
C905 C903 1.419 . S
C905 C906 1.362 . S
C906 H898 0.930 . S
C906 C905 1.362 . S
C906 C909 1.409 . S
C907 H899 0.930 . S
C907 C908 1.355 . S
C907 C909 1.415 . S
C908 C907 1.355 . S
C908 C910 1.419 . S
C909 C904 1.425 . S
C909 C906 1.409 . S
C909 C907 1.415 . S
C910 H900 0.930 . S
C910 C908 1.419 . S
C910 C911 1.362 . S
C911 H901 0.930 . S
C911 C904 1.409 . S
C911 C910 1.362 . S
H912 C918 0.930 . S
H913 C921 0.930 . S
H914 C922 0.930 . S
H915 C923 0.930 . S
H916 C926 0.930 . S
H917 C927 0.930 . S
C918 H912 0.930 . S
C918 C919 1.355 . S
C918 C920 1.415 . S
C919 C918 1.355 . S
C919 C921 1.419 . S
C920 C918 1.415 . S
C920 C925 1.425 . S
C920 C927 1.409 . S
C921 H913 0.930 . S
C921 C919 1.419 . S
C921 C922 1.362 . S
C922 H914 0.930 . S
C922 C921 1.362 . S
C922 C925 1.409 . S
C923 H915 0.930 . S
C923 C924 1.355 . S
C923 C925 1.415 . S
C924 C923 1.355 . S
C924 C926 1.419 . S
C925 C920 1.425 . S
C925 C922 1.409 . S
C925 C923 1.415 . S
C926 H916 0.930 . S
C926 C924 1.419 . S
C926 C927 1.362 . S
C927 H917 0.930 . S
C927 C920 1.409 . S
C927 C926 1.362 . S
H928 C934 0.926 1_545 S
H929 C937 0.930 . S
H930 C938 0.930 . S
H931 C939 0.930 . S
H932 C942 0.927 1_545 S
H933 C943 0.930 . S
C934 H928 0.926 1_565 S
C934 C935 1.357 . S
C934 C936 1.416 . S
C935 C934 1.357 . S
C935 C937 1.419 . S
C936 C934 1.416 . S
C936 C941 1.425 . S
C936 C943 1.409 1_565 S
C937 H929 0.930 . S
C937 C935 1.419 . S
C937 C938 1.362 . S
C938 H930 0.930 . S
C938 C937 1.362 . S
C938 C941 1.409 . S
C939 H931 0.930 . S
C939 C940 1.355 . S
C939 C941 1.415 . S
C940 C939 1.355 . S
C940 C942 1.425 . S
C941 C936 1.425 . S
C941 C938 1.409 . S
C941 C939 1.415 . S
C942 H932 0.927 1_565 S
C942 C940 1.425 . S
C942 C943 1.360 1_565 S
C943 H933 0.930 . S
C943 C936 1.409 1_545 S
C943 C942 1.360 1_545 S
H944 C950 0.930 . S
H945 C953 0.930 . S
H946 C954 0.930 . S
H947 C955 0.930 . S
H948 C958 0.930 . S
H949 C959 0.930 . S
C950 H944 0.930 . S
C950 C951 1.355 . S
C950 C952 1.415 . S
C951 C950 1.355 . S
C951 C953 1.419 . S
C952 C950 1.415 . S
C952 C957 1.425 . S
C952 C959 1.409 . S
C953 H945 0.930 . S
C953 C951 1.419 . S
C953 C954 1.362 . S
C954 H946 0.930 . S
C954 C953 1.362 . S
C954 C957 1.409 . S
C955 H947 0.930 . S
C955 C956 1.355 . S
C955 C957 1.415 . S
C956 C955 1.355 . S
C956 C958 1.419 . S
C957 C952 1.425 . S
C957 C954 1.409 . S
C957 C955 1.415 . S
C958 H948 0.930 . S
C958 C956 1.419 . S
C958 C959 1.362 . S
C959 H949 0.930 . S
C959 C952 1.409 . S
C959 C958 1.362 . S
H960 C966 0.930 . S
H961 C969 0.930 . S
H962 C970 0.930 . S
H963 C971 0.930 . S
H964 C974 0.930 1_565 S
H965 C975 0.930 . S
C966 H960 0.930 . S
C966 C967 1.355 . S
C966 C968 1.415 . S
C967 C966 1.355 . S
C967 C969 1.419 1_554 S
C968 C966 1.415 . S
C968 C973 1.425 1_554 S
C968 C975 1.409 . S
C969 H961 0.930 . S
C969 C967 1.419 1_556 S
C969 C970 1.362 . S
C970 H962 0.930 . S
C970 C969 1.362 . S
C970 C973 1.409 . S
C971 H963 0.930 . S
C971 C972 1.355 . S
C971 C973 1.415 . S
C972 C971 1.355 . S
C972 C974 1.419 1_556 S
C973 C968 1.425 1_556 S
C973 C970 1.409 . S
C973 C971 1.415 . S
C974 H964 0.930 1_545 S
C974 C972 1.419 1_554 S
C974 C975 1.362 . S
C975 H965 0.930 . S
C975 C968 1.409 . S
C975 C974 1.362 . S
H976 C982 0.930 . S
H977 C985 0.930 1_556 S
H978 C986 0.930 1_556 S
H979 C987 0.930 . S
H980 C990 0.930 . S
H981 C991 0.930 . S
C982 H976 0.930 . S
C982 C983 1.355 . S
C982 C984 1.415 . S
C983 C982 1.355 . S
C983 C985 1.419 . S
C984 C982 1.415 . S
C984 C989 1.425 . S
C984 C991 1.409 . S
C985 H977 0.930 1_554 S
C985 C983 1.419 . S
C985 C986 1.362 . S
C986 H978 0.930 1_554 S
C986 C985 1.362 . S
C986 C989 1.409 . S
C987 H979 0.930 . S
C987 C988 1.355 . S
C987 C989 1.415 . S
C988 C987 1.355 . S
C988 C990 1.419 . S
C989 C984 1.425 . S
C989 C986 1.409 . S
C989 C987 1.415 . S
C990 H980 0.930 . S
C990 C988 1.419 . S
C990 C991 1.362 . S
C991 H981 0.930 . S
C991 C984 1.409 . S
C991 C990 1.362 . S
H992 C998 0.930 . S
H993 C1001 0.930 . S
H994 C1002 0.930 . S
H995 C1003 0.930 . S
H996 C1006 0.930 . S
H997 C1007 0.930 . S
C998 H992 0.930 . S
C998 C999 1.355 . S
C998 C1000 1.415 . S
C999 C998 1.355 . S
C999 C1001 1.419 . S
C1000 C998 1.415 . S
C1000 C1005 1.425 . S
C1000 C1007 1.409 . S
C1001 H993 0.930 . S
C1001 C999 1.419 . S
C1001 C1002 1.362 . S
C1002 H994 0.930 . S
C1002 C1001 1.362 . S
C1002 C1005 1.409 . S
C1003 H995 0.930 . S
C1003 C1004 1.355 . S
C1003 C1005 1.415 . S
C1004 C1003 1.355 . S
C1004 C1006 1.419 . S
C1005 C1000 1.425 . S
C1005 C1002 1.409 . S
C1005 C1003 1.415 . S
C1006 H996 0.930 . S
C1006 C1004 1.419 . S
C1006 C1007 1.362 . S
C1007 H997 0.930 . S
C1007 C1000 1.409 . S
C1007 C1006 1.362 . S
H1008 C1014 0.930 . S
H1009 C1017 0.930 . S
H1010 C1018 0.930 . S
H1011 C1019 0.930 . S
H1012 C1022 0.930 . S
H1013 C1023 0.930 . S
C1014 H1008 0.930 . S
C1014 C1015 1.355 . S
C1014 C1016 1.415 . S
C1015 C1014 1.355 . S
C1015 C1017 1.419 . S
C1016 C1014 1.415 . S
C1016 C1021 1.425 . S
C1016 C1023 1.409 . S
C1017 H1009 0.930 . S
C1017 C1015 1.419 . S
C1017 C1018 1.362 . S
C1018 H1010 0.930 . S
C1018 C1017 1.362 . S
C1018 C1021 1.409 . S
C1019 H1011 0.930 . S
C1019 C1020 1.355 . S
C1019 C1021 1.415 . S
C1020 C1019 1.355 . S
C1020 C1022 1.419 . S
C1021 C1016 1.425 . S
C1021 C1018 1.409 . S
C1021 C1019 1.415 . S
C1022 H1012 0.930 . S
C1022 C1020 1.419 . S
C1022 C1023 1.362 . S
C1023 H1013 0.930 . S
C1023 C1016 1.409 . S
C1023 C1022 1.362 . S
H1024 C1030 0.930 . S
H1025 C1033 0.930 . S
H1026 C1034 0.930 . S
H1027 C1035 0.930 . S
H1028 C1038 0.930 . S
H1029 C1039 0.930 . S
C1030 H1024 0.930 . S
C1030 C1031 1.355 . S
C1030 C1032 1.415 . S
C1031 C1030 1.355 . S
C1031 C1033 1.419 . S
C1032 C1030 1.415 . S
C1032 C1037 1.425 . S
C1032 C1039 1.409 . S
C1033 H1025 0.930 . S
C1033 C1031 1.419 . S
C1033 C1034 1.362 . S
C1034 H1026 0.930 . S
C1034 C1033 1.362 . S
C1034 C1037 1.409 . S
C1035 H1027 0.930 . S
C1035 C1036 1.355 . S
C1035 C1037 1.415 . S
C1036 C1035 1.355 . S
C1036 C1038 1.419 . S
C1037 C1032 1.425 . S
C1037 C1034 1.409 . S
C1037 C1035 1.415 . S
C1038 H1028 0.930 . S
C1038 C1036 1.419 . S
C1038 C1039 1.362 . S
C1039 H1029 0.930 . S
C1039 C1032 1.409 . S
C1039 C1038 1.362 . S
H1040 C1046 0.930 . S
H1041 C1049 0.930 . S
H1042 C1050 0.930 1_545 S
H1043 C1051 0.889 1_545 S
H1044 C1054 0.930 . S
H1045 C1055 0.930 . S
C1046 H1040 0.930 . S
C1046 C1047 1.355 . S
C1046 C1048 1.415 . S
C1047 C1046 1.355 . S
C1047 C1049 1.419 . S
C1048 C1046 1.415 . S
C1048 C1053 1.425 . S
C1048 C1055 1.409 . S
C1049 H1041 0.930 . S
C1049 C1047 1.419 . S
C1049 C1050 1.362 . S
C1050 H1042 0.930 1_565 S
C1050 C1049 1.362 . S
C1050 C1053 1.409 . S
C1051 H1043 0.889 1_565 S
C1051 C1052 1.367 . S
C1051 C1053 1.443 . S
C1052 C1051 1.367 . S
C1052 C1054 1.419 . S
C1053 C1048 1.425 . S
C1053 C1050 1.409 . S
C1053 C1051 1.443 . S
C1054 H1044 0.930 . S
C1054 C1052 1.419 . S
C1054 C1055 1.362 . S
C1055 H1045 0.930 . S
C1055 C1048 1.409 . S
C1055 C1054 1.362 . S
H1056 C1062 0.930 . S
H1057 C1065 0.930 . S
H1058 C1066 0.930 . S
H1059 C1067 0.930 . S
H1060 C1070 0.930 . S
H1061 C1071 0.930 . S
C1062 H1056 0.930 . S
C1062 C1063 1.355 . S
C1062 C1064 1.415 . S
C1063 C1062 1.355 . S
C1063 C1065 1.419 . S
C1064 C1062 1.415 . S
C1064 C1069 1.425 . S
C1064 C1071 1.409 . S
C1065 H1057 0.930 . S
C1065 C1063 1.419 . S
C1065 C1066 1.362 . S
C1066 H1058 0.930 . S
C1066 C1065 1.362 . S
C1066 C1069 1.409 . S
C1067 H1059 0.930 . S
C1067 C1068 1.355 . S
C1067 C1069 1.415 . S
C1068 C1067 1.355 . S
C1068 C1070 1.419 . S
C1069 C1064 1.425 . S
C1069 C1066 1.409 . S
C1069 C1067 1.415 . S
C1070 H1060 0.930 . S
C1070 C1068 1.419 . S
C1070 C1071 1.362 . S
C1071 H1061 0.930 . S
C1071 C1064 1.409 . S
C1071 C1070 1.362 . S
H1072 C1078 0.930 . S
H1073 C1081 0.930 . S
H1074 C1082 0.930 . S
H1075 C1083 0.930 . S
H1076 C1086 0.930 . S
H1077 C1087 0.930 . S
C1078 H1072 0.930 . S
C1078 C1079 1.355 . S
C1078 C1080 1.415 . S
C1079 C1078 1.355 . S
C1079 C1081 1.419 . S
C1080 C1078 1.415 . S
C1080 C1085 1.425 . S
C1080 C1087 1.409 . S
C1081 H1073 0.930 . S
C1081 C1079 1.419 . S
C1081 C1082 1.362 . S
C1082 H1074 0.930 . S
C1082 C1081 1.362 . S
C1082 C1085 1.409 . S
C1083 H1075 0.930 . S
C1083 C1084 1.355 . S
C1083 C1085 1.415 . S
C1084 C1083 1.355 . S
C1084 C1086 1.419 . S
C1085 C1080 1.425 . S
C1085 C1082 1.409 . S
C1085 C1083 1.415 . S
C1086 H1076 0.930 . S
C1086 C1084 1.419 . S
C1086 C1087 1.362 . S
C1087 H1077 0.930 . S
C1087 C1080 1.409 . S
C1087 C1086 1.362 . S
H1088 C1094 0.930 . S
H1089 C1097 0.930 . S
H1090 C1098 0.930 . S
H1091 C1099 0.930 1_554 S
H1092 C1102 0.930 . S
H1093 C1103 0.930 . S
C1094 H1088 0.930 . S
C1094 C1095 1.355 . S
C1094 C1096 1.415 . S
C1095 C1094 1.355 . S
C1095 C1097 1.419 . S
C1096 C1094 1.415 . S
C1096 C1101 1.425 . S
C1096 C1103 1.409 . S
C1097 H1089 0.930 . S
C1097 C1095 1.419 . S
C1097 C1098 1.362 . S
C1098 H1090 0.930 . S
C1098 C1097 1.362 . S
C1098 C1101 1.409 . S
C1099 H1091 0.930 1_556 S
C1099 C1100 1.355 . S
C1099 C1101 1.415 . S
C1100 C1099 1.355 . S
C1100 C1102 1.419 . S
C1101 C1096 1.425 . S
C1101 C1098 1.409 . S
C1101 C1099 1.415 . S
C1102 H1092 0.930 . S
C1102 C1100 1.419 . S
C1102 C1103 1.362 . S
C1103 H1093 0.930 . S
C1103 C1096 1.409 . S
C1103 C1102 1.362 . S
H1104 C1110 0.930 . S
H1105 C1113 0.930 . S
H1106 C1114 0.930 . S
H1107 C1115 0.930 . S
H1108 C1118 0.930 . S
H1109 C1119 0.930 . S
C1110 H1104 0.930 . S
C1110 C1111 1.355 . S
C1110 C1112 1.415 . S
C1111 C1110 1.355 . S
C1111 C1113 1.419 . S
C1112 C1110 1.415 . S
C1112 C1117 1.425 . S
C1112 C1119 1.409 . S
C1113 H1105 0.930 . S
C1113 C1111 1.419 . S
C1113 C1114 1.362 . S
C1114 H1106 0.930 . S
C1114 C1113 1.362 . S
C1114 C1117 1.409 . S
C1115 H1107 0.930 . S
C1115 C1116 1.355 . S
C1115 C1117 1.415 . S
C1116 C1115 1.355 . S
C1116 C1118 1.419 . S
C1117 C1112 1.425 . S
C1117 C1114 1.409 . S
C1117 C1115 1.415 . S
C1118 H1108 0.930 . S
C1118 C1116 1.419 . S
C1118 C1119 1.362 . S
C1119 H1109 0.930 . S
C1119 C1112 1.409 . S
C1119 C1118 1.362 . S
H1120 C1126 0.930 . S
H1121 C1129 0.930 . S
H1122 C1130 0.930 . S
H1123 C1131 0.930 . S
H1124 C1134 0.930 . S
H1125 C1135 0.930 . S
C1126 H1120 0.930 . S
C1126 C1127 1.355 . S
C1126 C1128 1.415 . S
C1127 C1126 1.355 . S
C1127 C1129 1.419 . S
C1128 C1126 1.415 . S
C1128 C1133 1.425 . S
C1128 C1135 1.409 . S
C1129 H1121 0.930 . S
C1129 C1127 1.419 . S
C1129 C1130 1.362 . S
C1130 H1122 0.930 . S
C1130 C1129 1.362 . S
C1130 C1133 1.409 . S
C1131 H1123 0.930 . S
C1131 C1132 1.355 . S
C1131 C1133 1.415 . S
C1132 C1131 1.355 . S
C1132 C1134 1.419 . S
C1133 C1128 1.425 . S
C1133 C1130 1.409 . S
C1133 C1131 1.415 . S
C1134 H1124 0.930 . S
C1134 C1132 1.419 . S
C1134 C1135 1.362 . S
C1135 H1125 0.930 . S
C1135 C1128 1.409 . S
C1135 C1134 1.362 . S
H1136 C1142 0.930 . S
H1137 C1145 0.930 . S
H1138 C1146 0.930 . S
H1139 C1147 0.930 . S
H1140 C1150 0.930 . S
H1141 C1151 0.930 . S
C1142 H1136 0.930 . S
C1142 C1143 1.355 . S
C1142 C1144 1.415 . S
C1143 C1142 1.355 . S
C1143 C1145 1.419 . S
C1144 C1142 1.415 . S
C1144 C1149 1.425 . S
C1144 C1151 1.409 . S
C1145 H1137 0.930 . S
C1145 C1143 1.419 . S
C1145 C1146 1.362 . S
C1146 H1138 0.930 . S
C1146 C1145 1.362 . S
C1146 C1149 1.409 . S
C1147 H1139 0.930 . S
C1147 C1148 1.355 . S
C1147 C1149 1.415 . S
C1148 C1147 1.355 . S
C1148 C1150 1.419 . S
C1149 C1144 1.425 . S
C1149 C1146 1.409 . S
C1149 C1147 1.415 . S
C1150 H1140 0.930 . S
C1150 C1148 1.419 . S
C1150 C1151 1.362 . S
C1151 H1141 0.930 . S
C1151 C1144 1.409 . S
C1151 C1150 1.362 . S
H1152 C1158 0.930 . S
H1153 C1161 0.930 . S
H1154 C1162 0.930 . S
H1155 C1163 0.930 . S
H1156 C1166 0.930 . S
H1157 C1167 0.930 . S
C1158 H1152 0.930 . S
C1158 C1159 1.355 1_655 S
C1158 C1160 1.415 1_655 S
C1159 C1158 1.355 1_455 S
C1159 C1161 1.419 . S
C1160 C1158 1.415 1_455 S
C1160 C1165 1.425 . S
C1160 C1167 1.409 1_455 S
C1161 H1153 0.930 . S
C1161 C1159 1.419 . S
C1161 C1162 1.362 . S
C1162 H1154 0.930 . S
C1162 C1161 1.362 . S
C1162 C1165 1.409 . S
C1163 H1155 0.930 . S
C1163 C1164 1.355 . S
C1163 C1165 1.415 . S
C1164 C1163 1.355 . S
C1164 C1166 1.419 1_455 S
C1165 C1160 1.425 . S
C1165 C1162 1.409 . S
C1165 C1163 1.415 . S
C1166 H1156 0.930 . S
C1166 C1164 1.419 1_655 S
C1166 C1167 1.362 . S
C1167 H1157 0.930 . S
C1167 C1160 1.409 1_655 S
C1167 C1166 1.362 . S
H1168 C1174 0.930 . S
H1169 C1177 0.930 . S
H1170 C1178 0.930 . S
H1171 C1179 0.930 . S
H1172 C1182 0.930 . S
H1173 C1183 0.930 . S
C1174 H1168 0.930 . S
C1174 C1175 1.355 . S
C1174 C1176 1.415 . S
C1175 C1174 1.355 . S
C1175 C1177 1.419 . S
C1176 C1174 1.415 . S
C1176 C1181 1.425 . S
C1176 C1183 1.409 . S
C1177 H1169 0.930 . S
C1177 C1175 1.419 . S
C1177 C1178 1.362 . S
C1178 H1170 0.930 . S
C1178 C1177 1.362 . S
C1178 C1181 1.409 . S
C1179 H1171 0.930 . S
C1179 C1180 1.355 . S
C1179 C1181 1.415 . S
C1180 C1179 1.355 . S
C1180 C1182 1.419 . S
C1181 C1176 1.425 . S
C1181 C1178 1.409 . S
C1181 C1179 1.415 . S
C1182 H1172 0.930 . S
C1182 C1180 1.419 . S
C1182 C1183 1.362 . S
C1183 H1173 0.930 . S
C1183 C1176 1.409 . S
C1183 C1182 1.362 . S
H1184 C1190 0.930 . S
H1185 C1193 0.930 . S
H1186 C1194 0.930 . S
H1187 C1195 0.930 . S
H1188 C1198 0.930 . S
H1189 C1199 0.930 . S
C1190 H1184 0.930 . S
C1190 C1191 1.355 . S
C1190 C1192 1.415 . S
C1191 C1190 1.355 . S
C1191 C1193 1.419 . S
C1192 C1190 1.415 . S
C1192 C1197 1.425 . S
C1192 C1199 1.409 . S
C1193 H1185 0.930 . S
C1193 C1191 1.419 . S
C1193 C1194 1.362 . S
C1194 H1186 0.930 . S
C1194 C1193 1.362 . S
C1194 C1197 1.409 . S
C1195 H1187 0.930 . S
C1195 C1196 1.355 . S
C1195 C1197 1.415 . S
C1196 C1195 1.355 . S
C1196 C1198 1.419 . S
C1197 C1192 1.425 . S
C1197 C1194 1.409 . S
C1197 C1195 1.415 . S
C1198 H1188 0.930 . S
C1198 C1196 1.419 . S
C1198 C1199 1.362 . S
C1199 H1189 0.930 . S
C1199 C1192 1.409 . S
C1199 C1198 1.362 . S
H1200 C1206 0.930 . S
H1201 C1209 0.930 . S
H1202 C1210 0.930 . S
H1203 C1211 0.930 . S
H1204 C1214 0.930 . S
H1205 C1215 0.930 . S
C1206 H1200 0.930 . S
C1206 C1207 1.355 . S
C1206 C1208 1.415 . S
C1207 C1206 1.355 . S
C1207 C1209 1.419 . S
C1208 C1206 1.415 . S
C1208 C1213 1.425 . S
C1208 C1215 1.409 . S
C1209 H1201 0.930 . S
C1209 C1207 1.419 . S
C1209 C1210 1.362 . S
C1210 H1202 0.930 . S
C1210 C1209 1.362 . S
C1210 C1213 1.409 . S
C1211 H1203 0.930 . S
C1211 C1212 1.355 . S
C1211 C1213 1.415 . S
C1212 C1211 1.355 . S
C1212 C1214 1.419 . S
C1213 C1208 1.425 . S
C1213 C1210 1.409 . S
C1213 C1211 1.415 . S
C1214 H1204 0.930 . S
C1214 C1212 1.419 . S
C1214 C1215 1.362 . S
C1215 H1205 0.930 . S
C1215 C1208 1.409 . S
C1215 C1214 1.362 . S
H1216 C1222 0.930 1_565 S
H1217 C1225 0.930 . S
H1218 C1226 0.930 . S
H1219 C1227 0.930 . S
H1220 C1230 0.930 1_565 S
H1221 C1231 0.930 . S
C1222 H1216 0.930 1_545 S
C1222 C1223 1.355 . S
C1222 C1224 1.415 . S
C1223 C1222 1.355 . S
C1223 C1225 1.419 . S
C1224 C1222 1.415 . S
C1224 C1229 1.425 . S
C1224 C1231 1.409 1_545 S
C1225 H1217 0.930 . S
C1225 C1223 1.419 . S
C1225 C1226 1.362 . S
C1226 H1218 0.930 . S
C1226 C1225 1.362 . S
C1226 C1229 1.409 . S
C1227 H1219 0.930 . S
C1227 C1228 1.355 . S
C1227 C1229 1.415 . S
C1228 C1227 1.355 . S
C1228 C1230 1.419 . S
C1229 C1224 1.425 . S
C1229 C1226 1.409 . S
C1229 C1227 1.415 . S
C1230 H1220 0.930 1_545 S
C1230 C1228 1.419 . S
C1230 C1231 1.362 1_545 S
C1231 H1221 0.930 . S
C1231 C1224 1.409 1_565 S
C1231 C1230 1.362 1_565 S
H1232 C1238 0.930 . S
H1233 C1241 0.930 . S
H1234 C1242 0.930 . S
H1235 C1243 0.930 . S
H1236 C1246 0.930 . S
H1237 C1247 0.930 . S
C1238 H1232 0.930 . S
C1238 C1239 1.355 . S
C1238 C1240 1.415 . S
C1239 C1238 1.355 . S
C1239 C1241 1.419 . S
C1240 C1238 1.415 . S
C1240 C1245 1.425 . S
C1240 C1247 1.409 . S
C1241 H1233 0.930 . S
C1241 C1239 1.419 . S
C1241 C1242 1.362 . S
C1242 H1234 0.930 . S
C1242 C1241 1.362 . S
C1242 C1245 1.409 . S
C1243 H1235 0.930 . S
C1243 C1244 1.355 . S
C1243 C1245 1.415 . S
C1244 C1243 1.355 . S
C1244 C1246 1.419 . S
C1245 C1240 1.425 . S
C1245 C1242 1.409 . S
C1245 C1243 1.415 . S
C1246 H1236 0.930 . S
C1246 C1244 1.419 . S
C1246 C1247 1.362 . S
C1247 H1237 0.930 . S
C1247 C1240 1.409 . S
C1247 C1246 1.362 . S
H1248 C1254 0.930 . S
H1249 C1257 0.930 . S
H1250 C1258 0.930 . S
H1251 C1259 0.930 . S
H1252 C1262 0.930 . S
H1253 C1263 0.930 . S
C1254 H1248 0.930 . S
C1254 C1255 1.355 1_565 S
C1254 C1256 1.415 . S
C1255 C1254 1.355 1_545 S
C1255 C1257 1.419 . S
C1256 C1254 1.415 . S
C1256 C1261 1.425 1_565 S
C1256 C1263 1.409 . S
C1257 H1249 0.930 . S
C1257 C1255 1.419 . S
C1257 C1258 1.362 . S
C1258 H1250 0.930 . S
C1258 C1257 1.362 . S
C1258 C1261 1.409 . S
C1259 H1251 0.930 . S
C1259 C1260 1.355 1_545 S
C1259 C1261 1.415 . S
C1260 C1259 1.355 1_565 S
C1260 C1262 1.419 . S
C1261 C1256 1.425 1_545 S
C1261 C1258 1.409 . S
C1261 C1259 1.415 . S
C1262 H1252 0.930 . S
C1262 C1260 1.419 . S
C1262 C1263 1.362 . S
C1263 H1253 0.930 . S
C1263 C1256 1.409 . S
C1263 C1262 1.362 . S
H1264 C1270 0.930 . S
H1265 C1273 0.930 . S
H1266 C1274 0.930 . S
H1267 C1275 0.930 . S
H1268 C1278 0.930 . S
H1269 C1279 0.930 . S
C1270 H1264 0.930 . S
C1270 C1271 1.355 . S
C1270 C1272 1.415 . S
C1271 C1270 1.355 . S
C1271 C1273 1.419 . S
C1272 C1270 1.415 . S
C1272 C1277 1.425 . S
C1272 C1279 1.409 . S
C1273 H1265 0.930 . S
C1273 C1271 1.419 . S
C1273 C1274 1.362 . S
C1274 H1266 0.930 . S
C1274 C1273 1.362 . S
C1274 C1277 1.409 . S
C1275 H1267 0.930 . S
C1275 C1276 1.355 . S
C1275 C1277 1.415 . S
C1276 C1275 1.355 . S
C1276 C1278 1.419 . S
C1277 C1272 1.425 . S
C1277 C1274 1.409 . S
C1277 C1275 1.415 . S
C1278 H1268 0.930 . S
C1278 C1276 1.419 . S
C1278 C1279 1.362 . S
C1279 H1269 0.930 . S
C1279 C1272 1.409 . S
C1279 C1278 1.362 . S
H1280 C1286 0.930 . S
H1281 C1289 0.930 . S
H1282 C1290 0.930 . S
H1283 C1291 0.930 . S
H1284 C1294 0.930 . S
H1285 C1295 0.930 . S
C1286 H1280 0.930 . S
C1286 C1287 1.355 . S
C1286 C1288 1.415 . S
C1287 C1286 1.355 . S
C1287 C1289 1.419 1_545 S
C1288 C1286 1.415 . S
C1288 C1293 1.425 1_545 S
C1288 C1295 1.409 . S
C1289 H1281 0.930 . S
C1289 C1287 1.419 1_565 S
C1289 C1290 1.362 . S
C1290 H1282 0.930 . S
C1290 C1289 1.362 . S
C1290 C1293 1.409 . S
C1291 H1283 0.930 . S
C1291 C1292 1.355 . S
C1291 C1293 1.415 . S
C1292 C1291 1.355 . S
C1292 C1294 1.419 1_565 S
C1293 C1288 1.425 1_565 S
C1293 C1290 1.409 . S
C1293 C1291 1.415 . S
C1294 H1284 0.930 . S
C1294 C1292 1.419 1_545 S
C1294 C1295 1.362 . S
C1295 H1285 0.930 . S
C1295 C1288 1.409 . S
C1295 C1294 1.362 . S
H1296 C1302 0.930 . S
H1297 C1305 0.930 . S
H1298 C1306 0.930 . S
H1299 C1307 0.930 . S
H1300 C1310 0.930 . S
H1301 C1311 0.930 . S
C1302 H1296 0.930 . S
C1302 C1303 1.355 . S
C1302 C1304 1.415 . S
C1303 C1302 1.355 . S
C1303 C1305 1.419 . S
C1304 C1302 1.415 . S
C1304 C1309 1.425 . S
C1304 C1311 1.409 . S
C1305 H1297 0.930 . S
C1305 C1303 1.419 . S
C1305 C1306 1.362 . S
C1306 H1298 0.930 . S
C1306 C1305 1.362 . S
C1306 C1309 1.409 . S
C1307 H1299 0.930 . S
C1307 C1308 1.355 . S
C1307 C1309 1.415 . S
C1308 C1307 1.355 . S
C1308 C1310 1.419 . S
C1309 C1304 1.425 . S
C1309 C1306 1.409 . S
C1309 C1307 1.415 . S
C1310 H1300 0.930 . S
C1310 C1308 1.419 . S
C1310 C1311 1.362 . S
C1311 H1301 0.930 . S
C1311 C1304 1.409 . S
C1311 C1310 1.362 . S
H1312 C1318 0.930 . S
H1313 C1321 0.930 . S
H1314 C1322 0.930 . S
H1315 C1323 0.930 . S
H1316 C1326 0.930 . S
H1317 C1327 0.930 . S
C1318 H1312 0.930 . S
C1318 C1319 1.355 1_565 S
C1318 C1320 1.428 . S
C1319 C1318 1.355 1_545 S
C1319 C1321 1.419 . S
C1320 C1318 1.428 . S
C1320 C1325 1.392 1_565 S
C1320 C1327 1.428 . S
C1321 H1313 0.930 . S
C1321 C1319 1.419 . S
C1321 C1322 1.362 . S
C1322 H1314 0.930 . S
C1322 C1321 1.362 . S
C1322 C1325 1.409 . S
C1323 H1315 0.930 . S
C1323 C1324 1.355 . S
C1323 C1325 1.415 . S
C1324 C1323 1.355 . S
C1324 C1326 1.419 1_545 S
C1325 C1320 1.392 1_545 S
C1325 C1322 1.409 . S
C1325 C1323 1.415 . S
C1326 H1316 0.930 . S
C1326 C1324 1.419 1_565 S
C1326 C1327 1.362 . S
C1327 H1317 0.930 . S
C1327 C1320 1.428 . S
C1327 C1326 1.362 . S
H1328 C1334 0.930 . S
H1329 C1337 0.930 . S
H1330 C1338 0.930 . S
H1331 C1339 0.930 . S
H1332 C1342 0.930 . S
H1333 C1343 0.930 . S
C1334 H1328 0.930 . S
C1334 C1335 1.355 . S
C1334 C1336 1.415 . S
C1335 C1334 1.355 . S
C1335 C1337 1.419 . S
C1336 C1334 1.415 . S
C1336 C1341 1.425 . S
C1336 C1343 1.409 . S
C1337 H1329 0.930 . S
C1337 C1335 1.419 . S
C1337 C1338 1.362 . S
C1338 H1330 0.930 . S
C1338 C1337 1.362 . S
C1338 C1341 1.409 . S
C1339 H1331 0.930 . S
C1339 C1340 1.355 . S
C1339 C1341 1.415 . S
C1340 C1339 1.355 . S
C1340 C1342 1.419 . S
C1341 C1336 1.425 . S
C1341 C1338 1.409 . S
C1341 C1339 1.415 . S
C1342 H1332 0.930 . S
C1342 C1340 1.419 . S
C1342 C1343 1.362 . S
C1343 H1333 0.930 . S
C1343 C1336 1.409 . S
C1343 C1342 1.362 . S
H1344 C1350 0.930 1_556 S
H1345 C1353 0.930 . S
H1346 C1354 0.930 . S
H1347 C1355 0.930 . S
H1348 C1358 0.930 . S
H1349 C1359 0.930 1_556 S
C1350 H1344 0.930 1_554 S
C1350 C1351 1.355 . S
C1350 C1352 1.415 . S
C1351 C1350 1.355 . S
C1351 C1353 1.419 . S
C1352 C1350 1.415 . S
C1352 C1357 1.425 . S
C1352 C1359 1.409 . S
C1353 H1345 0.930 . S
C1353 C1351 1.419 . S
C1353 C1354 1.362 . S
C1354 H1346 0.930 . S
C1354 C1353 1.362 . S
C1354 C1357 1.409 . S
C1355 H1347 0.930 . S
C1355 C1356 1.355 . S
C1355 C1357 1.415 . S
C1356 C1355 1.355 . S
C1356 C1358 1.419 . S
C1357 C1352 1.425 . S
C1357 C1354 1.409 . S
C1357 C1355 1.415 . S
C1358 H1348 0.930 . S
C1358 C1356 1.419 . S
C1358 C1359 1.362 . S
C1359 H1349 0.930 1_554 S
C1359 C1352 1.409 . S
C1359 C1358 1.362 . S
H1360 C1366 0.930 . S
H1361 C1369 0.930 . S
H1362 C1370 0.930 . S
H1363 C1371 0.930 . S
H1364 C1374 0.930 . S
H1365 C1375 0.930 . S
C1366 H1360 0.930 . S
C1366 C1367 1.361 . S
C1366 C1368 1.415 . S
C1367 C1366 1.361 . S
C1367 C1369 1.408 1_554 S
C1368 C1366 1.415 . S
C1368 C1373 1.425 1_554 S
C1368 C1375 1.409 . S
C1369 H1361 0.930 . S
C1369 C1367 1.408 1_556 S
C1369 C1370 1.362 . S
C1370 H1362 0.930 . S
C1370 C1369 1.362 . S
C1370 C1373 1.409 . S
C1371 H1363 0.930 . S
C1371 C1372 1.355 . S
C1371 C1373 1.415 . S
C1372 C1371 1.355 . S
C1372 C1374 1.419 1_556 S
C1373 C1368 1.425 1_556 S
C1373 C1370 1.409 . S
C1373 C1371 1.415 . S
C1374 H1364 0.930 . S
C1374 C1372 1.419 1_554 S
C1374 C1375 1.362 . S
C1375 H1365 0.930 . S
C1375 C1368 1.409 . S
C1375 C1374 1.362 . S
H1376 C1382 0.930 . S
H1377 C1385 0.930 . S
H1378 C1386 0.930 . S
H1379 C1387 0.930 . S
H1380 C1390 0.930 . S
H1381 C1391 0.930 . S
C1382 H1376 0.930 . S
C1382 C1383 1.355 . S
C1382 C1384 1.415 . S
C1383 C1382 1.355 . S
C1383 C1385 1.419 . S
C1384 C1382 1.415 . S
C1384 C1389 1.425 . S
C1384 C1391 1.409 . S
C1385 H1377 0.930 . S
C1385 C1383 1.419 . S
C1385 C1386 1.362 . S
C1386 H1378 0.930 . S
C1386 C1385 1.362 . S
C1386 C1389 1.409 . S
C1387 H1379 0.930 . S
C1387 C1388 1.355 . S
C1387 C1389 1.415 . S
C1388 C1387 1.355 . S
C1388 C1390 1.419 . S
C1389 C1384 1.425 . S
C1389 C1386 1.409 . S
C1389 C1387 1.415 . S
C1390 H1380 0.930 . S
C1390 C1388 1.419 . S
C1390 C1391 1.362 . S
C1391 H1381 0.930 . S
C1391 C1384 1.409 . S
C1391 C1390 1.362 . S
H1392 C1398 0.930 . S
H1393 C1401 0.930 . S
H1394 C1402 0.930 . S
H1395 C1403 0.930 . S
H1396 C1406 0.930 . S
H1397 C1407 0.930 . S
C1398 H1392 0.930 . S
C1398 C1399 1.355 . S
C1398 C1400 1.415 . S
C1399 C1398 1.355 . S
C1399 C1401 1.419 . S
C1400 C1398 1.415 . S
C1400 C1405 1.425 . S
C1400 C1407 1.409 . S
C1401 H1393 0.930 . S
C1401 C1399 1.419 . S
C1401 C1402 1.362 . S
C1402 H1394 0.930 . S
C1402 C1401 1.362 . S
C1402 C1405 1.409 . S
C1403 H1395 0.930 . S
C1403 C1404 1.355 . S
C1403 C1405 1.415 . S
C1404 C1403 1.355 . S
C1404 C1406 1.419 . S
C1405 C1400 1.425 . S
C1405 C1402 1.409 . S
C1405 C1403 1.415 . S
C1406 H1396 0.930 . S
C1406 C1404 1.419 . S
C1406 C1407 1.362 . S
C1407 H1397 0.930 . S
C1407 C1400 1.409 . S
C1407 C1406 1.362 . S
H1408 C1414 0.930 . S
H1409 C1417 0.930 . S
H1410 C1418 0.930 . S
H1411 C1419 0.930 . S
H1412 C1422 0.930 . S
H1413 C1423 0.930 . S
C1414 H1408 0.930 . S
C1414 C1415 1.355 . S
C1414 C1416 1.415 . S
C1415 C1414 1.355 . S
C1415 C1417 1.419 . S
C1416 C1414 1.415 . S
C1416 C1421 1.425 . S
C1416 C1423 1.409 . S
C1417 H1409 0.930 . S
C1417 C1415 1.419 . S
C1417 C1418 1.362 . S
C1418 H1410 0.930 . S
C1418 C1417 1.362 . S
C1418 C1421 1.409 . S
C1419 H1411 0.930 . S
C1419 C1420 1.355 . S
C1419 C1421 1.415 . S
C1420 C1419 1.355 . S
C1420 C1422 1.419 . S
C1421 C1416 1.425 . S
C1421 C1418 1.409 . S
C1421 C1419 1.415 . S
C1422 H1412 0.930 . S
C1422 C1420 1.419 . S
C1422 C1423 1.362 . S
C1423 H1413 0.930 . S
C1423 C1416 1.409 . S
C1423 C1422 1.362 . S
H1424 C1430 0.930 . S
H1425 C1433 0.930 . S
H1426 C1434 0.930 . S
H1427 C1435 0.930 . S
H1428 C1438 0.930 . S
H1429 C1439 0.930 . S
C1430 H1424 0.930 . S
C1430 C1431 1.355 . S
C1430 C1432 1.415 . S
C1431 C1430 1.355 . S
C1431 C1433 1.419 . S
C1432 C1430 1.415 . S
C1432 C1437 1.425 . S
C1432 C1439 1.409 . S
C1433 H1425 0.930 . S
C1433 C1431 1.419 . S
C1433 C1434 1.362 . S
C1434 H1426 0.930 . S
C1434 C1433 1.362 . S
C1434 C1437 1.409 . S
C1435 H1427 0.930 . S
C1435 C1436 1.355 . S
C1435 C1437 1.415 . S
C1436 C1435 1.355 . S
C1436 C1438 1.419 . S
C1437 C1432 1.425 . S
C1437 C1434 1.409 . S
C1437 C1435 1.415 . S
C1438 H1428 0.930 . S
C1438 C1436 1.419 . S
C1438 C1439 1.362 . S
C1439 H1429 0.930 . S
C1439 C1432 1.409 . S
C1439 C1438 1.362 . S
H1440 C1446 0.930 . S
H1441 C1449 0.930 . S
H1442 C1450 0.930 . S
H1443 C1451 0.930 . S
H1444 C1454 0.930 . S
H1445 C1455 0.930 . S
C1446 H1440 0.930 . S
C1446 C1447 1.355 . S
C1446 C1448 1.415 . S
C1447 C1446 1.355 . S
C1447 C1449 1.419 . S
C1448 C1446 1.415 . S
C1448 C1453 1.425 . S
C1448 C1455 1.409 . S
C1449 H1441 0.930 . S
C1449 C1447 1.419 . S
C1449 C1450 1.362 . S
C1450 H1442 0.930 . S
C1450 C1449 1.362 . S
C1450 C1453 1.409 . S
C1451 H1443 0.930 . S
C1451 C1452 1.355 . S
C1451 C1453 1.415 . S
C1452 C1451 1.355 . S
C1452 C1454 1.419 . S
C1453 C1448 1.425 . S
C1453 C1450 1.409 . S
C1453 C1451 1.415 . S
C1454 H1444 0.930 . S
C1454 C1452 1.419 . S
C1454 C1455 1.362 . S
C1455 H1445 0.930 . S
C1455 C1448 1.409 . S
C1455 C1454 1.362 . S
H1456 C1462 0.930 . S
H1457 C1465 0.930 . S
H1458 C1466 0.930 . S
H1459 C1467 0.930 . S
H1460 C1470 0.930 . S
H1461 C1471 0.930 . S
C1462 H1456 0.930 . S
C1462 C1463 1.355 . S
C1462 C1464 1.415 . S
C1463 C1462 1.355 . S
C1463 C1465 1.419 . S
C1464 C1462 1.415 . S
C1464 C1469 1.425 . S
C1464 C1471 1.409 . S
C1465 H1457 0.930 . S
C1465 C1463 1.419 . S
C1465 C1466 1.362 . S
C1466 H1458 0.930 . S
C1466 C1465 1.362 . S
C1466 C1469 1.409 . S
C1467 H1459 0.930 . S
C1467 C1468 1.355 . S
C1467 C1469 1.415 . S
C1468 C1467 1.355 . S
C1468 C1470 1.419 . S
C1469 C1464 1.425 . S
C1469 C1466 1.409 . S
C1469 C1467 1.415 . S
C1470 H1460 0.930 . S
C1470 C1468 1.419 . S
C1470 C1471 1.362 . S
C1471 H1461 0.930 . S
C1471 C1464 1.409 . S
C1471 C1470 1.362 . S
H1472 C1478 0.930 . S
H1473 C1481 0.930 . S
H1474 C1482 0.930 . S
H1475 C1483 0.930 . S
H1476 C1486 0.930 . S
H1477 C1487 0.930 . S
C1478 H1472 0.930 . S
C1478 C1479 1.355 . S
C1478 C1480 1.415 . S
C1479 C1478 1.355 . S
C1479 C1481 1.419 . S
C1480 C1478 1.415 . S
C1480 C1485 1.425 . S
C1480 C1487 1.409 . S
C1481 H1473 0.930 . S
C1481 C1479 1.419 . S
C1481 C1482 1.362 . S
C1482 H1474 0.930 . S
C1482 C1481 1.362 . S
C1482 C1485 1.409 . S
C1483 H1475 0.930 . S
C1483 C1484 1.355 . S
C1483 C1485 1.415 . S
C1484 C1483 1.355 . S
C1484 C1486 1.419 . S
C1485 C1480 1.425 . S
C1485 C1482 1.409 . S
C1485 C1483 1.415 . S
C1486 H1476 0.930 . S
C1486 C1484 1.419 . S
C1486 C1487 1.362 . S
C1487 H1477 0.930 . S
C1487 C1480 1.409 . S
C1487 C1486 1.362 . S
H1488 C1494 0.930 . S
H1489 C1497 0.930 . S
H1490 C1498 0.930 . S
H1491 C1499 0.930 . S
H1492 C1502 0.930 . S
H1493 C1503 0.930 . S
C1494 H1488 0.930 . S
C1494 C1495 1.355 . S
C1494 C1496 1.415 . S
C1495 C1494 1.355 . S
C1495 C1497 1.419 . S
C1496 C1494 1.415 . S
C1496 C1501 1.425 . S
C1496 C1503 1.409 . S
C1497 H1489 0.930 . S
C1497 C1495 1.419 . S
C1497 C1498 1.362 . S
C1498 H1490 0.930 . S
C1498 C1497 1.362 . S
C1498 C1501 1.409 . S
C1499 H1491 0.930 . S
C1499 C1500 1.355 . S
C1499 C1501 1.415 . S
C1500 C1499 1.355 . S
C1500 C1502 1.419 . S
C1501 C1496 1.425 . S
C1501 C1498 1.409 . S
C1501 C1499 1.415 . S
C1502 H1492 0.930 . S
C1502 C1500 1.419 . S
C1502 C1503 1.362 . S
C1503 H1493 0.930 . S
C1503 C1496 1.409 . S
C1503 C1502 1.362 . S
H1504 C1510 0.930 . S
H1505 C1513 0.930 1_655 S
H1506 C1514 0.933 . S
H1507 C1515 0.930 . S
H1508 C1518 0.930 . S
H1509 C1519 0.930 . S
C1510 H1504 0.930 . S
C1510 C1511 1.355 . S
C1510 C1512 1.415 . S
C1511 C1510 1.355 . S
C1511 C1513 1.419 . S
C1512 C1510 1.415 . S
C1512 C1517 1.425 . S
C1512 C1519 1.409 . S
C1513 H1505 0.930 1_455 S
C1513 C1511 1.419 . S
C1513 C1514 1.362 . S
C1514 H1506 0.933 . S
C1514 C1513 1.362 . S
C1514 C1517 1.409 . S
C1515 H1507 0.930 . S
C1515 C1516 1.355 . S
C1515 C1517 1.415 . S
C1516 C1515 1.355 . S
C1516 C1518 1.419 . S
C1517 C1512 1.425 . S
C1517 C1514 1.409 . S
C1517 C1515 1.415 . S
C1518 H1508 0.930 . S
C1518 C1516 1.419 . S
C1518 C1519 1.362 . S
C1519 H1509 0.930 . S
C1519 C1512 1.409 . S
C1519 C1518 1.362 . S
H1520 C1526 0.930 . S
H1521 C1529 0.930 . S
H1522 C1530 0.930 . S
H1523 C1531 0.930 . S
H1524 C1534 0.930 . S
H1525 C1535 0.930 . S
C1526 H1520 0.930 . S
C1526 C1527 1.355 . S
C1526 C1528 1.415 . S
C1527 C1526 1.355 . S
C1527 C1529 1.419 . S
C1528 C1526 1.415 . S
C1528 C1533 1.425 . S
C1528 C1535 1.409 . S
C1529 H1521 0.930 . S
C1529 C1527 1.419 . S
C1529 C1530 1.362 . S
C1530 H1522 0.930 . S
C1530 C1529 1.362 . S
C1530 C1533 1.409 . S
C1531 H1523 0.930 . S
C1531 C1532 1.355 . S
C1531 C1533 1.415 . S
C1532 C1531 1.355 . S
C1532 C1534 1.419 . S
C1533 C1528 1.425 . S
C1533 C1530 1.409 . S
C1533 C1531 1.415 . S
C1534 H1524 0.930 . S
C1534 C1532 1.419 . S
C1534 C1535 1.362 . S
C1535 H1525 0.930 . S
C1535 C1528 1.409 . S
C1535 C1534 1.362 . S
H1536 C1542 0.930 . S
H1537 C1545 0.930 . S
H1538 C1546 0.930 . S
H1539 C1547 0.930 1_554 S
H1540 C1550 0.930 . S
H1541 C1551 0.930 . S
C1542 H1536 0.930 . S
C1542 C1543 1.355 . S
C1542 C1544 1.415 . S
C1543 C1542 1.355 . S
C1543 C1545 1.419 . S
C1544 C1542 1.415 . S
C1544 C1549 1.425 . S
C1544 C1551 1.409 . S
C1545 H1537 0.930 . S
C1545 C1543 1.419 . S
C1545 C1546 1.362 . S
C1546 H1538 0.930 . S
C1546 C1545 1.362 . S
C1546 C1549 1.409 . S
C1547 H1539 0.930 1_556 S
C1547 C1548 1.355 . S
C1547 C1549 1.415 . S
C1548 C1547 1.355 . S
C1548 C1550 1.419 . S
C1549 C1544 1.425 . S
C1549 C1546 1.409 . S
C1549 C1547 1.415 . S
C1550 H1540 0.930 . S
C1550 C1548 1.419 . S
C1550 C1551 1.362 . S
C1551 H1541 0.930 . S
C1551 C1544 1.409 . S
C1551 C1550 1.362 . S
H1552 C1558 0.930 . S
H1553 C1561 0.930 . S
H1554 C1562 0.930 . S
H1555 C1563 0.930 . S
H1556 C1566 0.930 . S
H1557 C1567 0.930 . S
C1558 H1552 0.930 . S
C1558 C1559 1.355 . S
C1558 C1560 1.415 . S
C1559 C1558 1.355 . S
C1559 C1561 1.419 . S
C1560 C1558 1.415 . S
C1560 C1565 1.425 . S
C1560 C1567 1.409 . S
C1561 H1553 0.930 . S
C1561 C1559 1.419 . S
C1561 C1562 1.362 . S
C1562 H1554 0.930 . S
C1562 C1561 1.362 . S
C1562 C1565 1.409 . S
C1563 H1555 0.930 . S
C1563 C1564 1.355 . S
C1563 C1565 1.415 . S
C1564 C1563 1.355 . S
C1564 C1566 1.419 . S
C1565 C1560 1.425 . S
C1565 C1562 1.409 . S
C1565 C1563 1.415 . S
C1566 H1556 0.930 . S
C1566 C1564 1.419 . S
C1566 C1567 1.362 . S
C1567 H1557 0.930 . S
C1567 C1560 1.409 . S
C1567 C1566 1.362 . S
H1568 C1574 0.923 1_655 S
H1569 C1577 0.930 . S
H1570 C1578 0.930 . S
H1571 C1579 0.930 . S
H1572 C1582 0.930 . S
H1573 C1583 0.930 . S
C1574 H1568 0.923 1_455 S
C1574 C1575 1.355 . S
C1574 C1576 1.415 . S
C1575 C1574 1.355 . S
C1575 C1577 1.419 . S
C1576 C1574 1.415 . S
C1576 C1581 1.425 . S
C1576 C1583 1.409 . S
C1577 H1569 0.930 . S
C1577 C1575 1.419 . S
C1577 C1578 1.362 . S
C1578 H1570 0.930 . S
C1578 C1577 1.362 . S
C1578 C1581 1.409 . S
C1579 H1571 0.930 . S
C1579 C1580 1.355 . S
C1579 C1581 1.415 . S
C1580 C1579 1.355 . S
C1580 C1582 1.419 . S
C1581 C1576 1.425 . S
C1581 C1578 1.409 . S
C1581 C1579 1.415 . S
C1582 H1572 0.930 . S
C1582 C1580 1.419 . S
C1582 C1583 1.362 . S
C1583 H1573 0.930 . S
C1583 C1576 1.409 . S
C1583 C1582 1.362 . S
H1584 C1590 0.930 . S
H1585 C1593 0.930 . S
H1586 C1594 0.930 . S
H1587 C1595 0.930 . S
H1588 C1598 0.930 . S
H1589 C1599 0.930 . S
C1590 H1584 0.930 . S
C1590 C1591 1.355 . S
C1590 C1592 1.415 . S
C1591 C1590 1.355 . S
C1591 C1593 1.419 . S
C1592 C1590 1.415 . S
C1592 C1597 1.425 . S
C1592 C1599 1.409 . S
C1593 H1585 0.930 . S
C1593 C1591 1.419 . S
C1593 C1594 1.362 . S
C1594 H1586 0.930 . S
C1594 C1593 1.362 . S
C1594 C1597 1.409 . S
C1595 H1587 0.930 . S
C1595 C1596 1.355 . S
C1595 C1597 1.415 . S
C1596 C1595 1.355 . S
C1596 C1598 1.419 . S
C1597 C1592 1.425 . S
C1597 C1594 1.409 . S
C1597 C1595 1.415 . S
C1598 H1588 0.930 . S
C1598 C1596 1.419 . S
C1598 C1599 1.362 . S
C1599 H1589 0.930 . S
C1599 C1592 1.409 . S
C1599 C1598 1.362 . S
H1600 C1606 0.930 . S
H1601 C1609 0.930 . S
H1602 C1610 0.930 . S
H1603 C1611 0.930 . S
H1604 C1614 0.930 . S
H1605 C1615 0.930 . S
C1606 H1600 0.930 . S
C1606 C1607 1.355 . S
C1606 C1608 1.415 . S
C1607 C1606 1.355 . S
C1607 C1609 1.419 . S
C1608 C1606 1.415 . S
C1608 C1613 1.425 . S
C1608 C1615 1.409 . S
C1609 H1601 0.930 . S
C1609 C1607 1.419 . S
C1609 C1610 1.362 . S
C1610 H1602 0.930 . S
C1610 C1609 1.362 . S
C1610 C1613 1.409 . S
C1611 H1603 0.930 . S
C1611 C1612 1.355 . S
C1611 C1613 1.415 . S
C1612 C1611 1.355 . S
C1612 C1614 1.419 . S
C1613 C1608 1.425 . S
C1613 C1610 1.409 . S
C1613 C1611 1.415 . S
C1614 H1604 0.930 . S
C1614 C1612 1.419 . S
C1614 C1615 1.362 . S
C1615 H1605 0.930 . S
C1615 C1608 1.409 . S
C1615 C1614 1.362 . S
H1616 C1622 0.930 . S
H1617 C1625 0.930 . S
H1618 C1626 0.930 . S
H1619 C1627 0.930 . S
H1620 C1630 0.930 . S
H1621 C1631 0.930 . S
C1622 H1616 0.930 . S
C1622 C1623 1.355 . S
C1622 C1624 1.415 . S
C1623 C1622 1.355 . S
C1623 C1625 1.419 . S
C1624 C1622 1.415 . S
C1624 C1629 1.425 . S
C1624 C1631 1.409 . S
C1625 H1617 0.930 . S
C1625 C1623 1.419 . S
C1625 C1626 1.362 . S
C1626 H1618 0.930 . S
C1626 C1625 1.362 . S
C1626 C1629 1.409 . S
C1627 H1619 0.930 . S
C1627 C1628 1.355 . S
C1627 C1629 1.415 . S
C1628 C1627 1.355 . S
C1628 C1630 1.419 . S
C1629 C1624 1.425 . S
C1629 C1626 1.409 . S
C1629 C1627 1.415 . S
C1630 H1620 0.930 . S
C1630 C1628 1.419 . S
C1630 C1631 1.362 . S
C1631 H1621 0.930 . S
C1631 C1624 1.409 . S
C1631 C1630 1.362 . S
H1632 C1638 0.930 . S
H1633 C1641 0.930 . S
H1634 C1642 0.930 . S
H1635 C1643 0.930 1_455 S
H1636 C1646 0.930 . S
H1637 C1647 0.930 . S
C1638 H1632 0.930 . S
C1638 C1639 1.355 . S
C1638 C1640 1.415 . S
C1639 C1638 1.355 . S
C1639 C1641 1.419 . S
C1640 C1638 1.415 . S
C1640 C1645 1.425 . S
C1640 C1647 1.409 . S
C1641 H1633 0.930 . S
C1641 C1639 1.419 . S
C1641 C1642 1.362 . S
C1642 H1634 0.930 . S
C1642 C1641 1.362 . S
C1642 C1645 1.409 . S
C1643 H1635 0.930 1_655 S
C1643 C1644 1.355 . S
C1643 C1645 1.415 . S
C1644 C1643 1.355 . S
C1644 C1646 1.419 . S
C1645 C1640 1.425 . S
C1645 C1642 1.409 . S
C1645 C1643 1.415 . S
C1646 H1636 0.930 . S
C1646 C1644 1.419 . S
C1646 C1647 1.362 . S
C1647 H1637 0.930 . S
C1647 C1640 1.409 . S
C1647 C1646 1.362 . S
H1648 C1654 0.930 . S
H1649 C1657 0.930 . S
H1650 C1658 0.930 . S
H1651 C1659 0.930 . S
H1652 C1662 0.930 . S
H1653 C1663 0.930 . S
C1654 H1648 0.930 . S
C1654 C1655 1.355 . S
C1654 C1656 1.415 . S
C1655 C1654 1.355 . S
C1655 C1657 1.419 . S
C1656 C1654 1.415 . S
C1656 C1661 1.425 . S
C1656 C1663 1.409 . S
C1657 H1649 0.930 . S
C1657 C1655 1.419 . S
C1657 C1658 1.362 . S
C1658 H1650 0.930 . S
C1658 C1657 1.362 . S
C1658 C1661 1.409 . S
C1659 H1651 0.930 . S
C1659 C1660 1.355 . S
C1659 C1661 1.415 . S
C1660 C1659 1.355 . S
C1660 C1662 1.419 . S
C1661 C1656 1.425 . S
C1661 C1658 1.409 . S
C1661 C1659 1.415 . S
C1662 H1652 0.930 . S
C1662 C1660 1.419 . S
C1662 C1663 1.362 . S
C1663 H1653 0.930 . S
C1663 C1656 1.409 . S
C1663 C1662 1.362 . S
H1664 C1670 0.930 . S
H1665 C1673 0.930 . S
H1666 C1674 0.930 . S
H1667 C1675 0.930 . S
H1668 C1678 0.930 . S
H1669 C1679 0.930 . S
C1670 H1664 0.930 . S
C1670 C1671 1.355 . S
C1670 C1672 1.415 . S
C1671 C1670 1.355 . S
C1671 C1673 1.419 . S
C1672 C1670 1.415 . S
C1672 C1677 1.425 . S
C1672 C1679 1.409 . S
C1673 H1665 0.930 . S
C1673 C1671 1.419 . S
C1673 C1674 1.362 . S
C1674 H1666 0.930 . S
C1674 C1673 1.362 . S
C1674 C1677 1.409 . S
C1675 H1667 0.930 . S
C1675 C1676 1.355 . S
C1675 C1677 1.415 . S
C1676 C1675 1.355 . S
C1676 C1678 1.419 . S
C1677 C1672 1.425 . S
C1677 C1674 1.409 . S
C1677 C1675 1.415 . S
C1678 H1668 0.930 . S
C1678 C1676 1.419 . S
C1678 C1679 1.362 . S
C1679 H1669 0.930 . S
C1679 C1672 1.409 . S
C1679 C1678 1.362 . S
H1680 C1686 0.930 . S
H1681 C1689 0.930 . S
H1682 C1690 0.930 . S
H1683 C1691 0.930 . S
H1684 C1694 0.930 . S
H1685 C1695 0.930 . S
C1686 H1680 0.930 . S
C1686 C1687 1.355 . S
C1686 C1688 1.415 . S
C1687 C1686 1.355 . S
C1687 C1689 1.419 . S
C1688 C1686 1.415 . S
C1688 C1693 1.425 . S
C1688 C1695 1.409 . S
C1689 H1681 0.930 . S
C1689 C1687 1.419 . S
C1689 C1690 1.362 . S
C1690 H1682 0.930 . S
C1690 C1689 1.362 . S
C1690 C1693 1.409 . S
C1691 H1683 0.930 . S
C1691 C1692 1.355 . S
C1691 C1693 1.415 . S
C1692 C1691 1.355 . S
C1692 C1694 1.419 . S
C1693 C1688 1.425 . S
C1693 C1690 1.409 . S
C1693 C1691 1.415 . S
C1694 H1684 0.930 . S
C1694 C1692 1.419 . S
C1694 C1695 1.362 . S
C1695 H1685 0.930 . S
C1695 C1688 1.409 . S
C1695 C1694 1.362 . S
H1696 C1702 0.930 . S
H1697 C1705 0.930 . S
H1698 C1706 0.930 . S
H1699 C1707 0.930 . S
H1700 C1710 0.930 . S
H1701 C1711 0.930 . S
C1702 H1696 0.930 . S
C1702 C1703 1.355 . S
C1702 C1704 1.415 . S
C1703 C1702 1.355 . S
C1703 C1705 1.419 . S
C1704 C1702 1.415 . S
C1704 C1709 1.425 . S
C1704 C1711 1.409 . S
C1705 H1697 0.930 . S
C1705 C1703 1.419 . S
C1705 C1706 1.362 . S
C1706 H1698 0.930 . S
C1706 C1705 1.362 . S
C1706 C1709 1.409 . S
C1707 H1699 0.930 . S
C1707 C1708 1.355 . S
C1707 C1709 1.415 . S
C1708 C1707 1.355 . S
C1708 C1710 1.419 . S
C1709 C1704 1.425 . S
C1709 C1706 1.409 . S
C1709 C1707 1.415 . S
C1710 H1700 0.930 . S
C1710 C1708 1.419 . S
C1710 C1711 1.362 . S
C1711 H1701 0.930 . S
C1711 C1704 1.409 . S
C1711 C1710 1.362 . S
H1712 C1718 0.930 . S
H1713 C1721 0.930 . S
H1714 C1722 0.930 . S
H1715 C1723 0.930 . S
H1716 C1726 0.930 . S
H1717 C1727 0.930 . S
C1718 H1712 0.930 . S
C1718 C1719 1.355 . S
C1718 C1720 1.415 . S
C1719 C1718 1.355 . S
C1719 C1721 1.419 . S
C1720 C1718 1.415 . S
C1720 C1725 1.425 . S
C1720 C1727 1.409 . S
C1721 H1713 0.930 . S
C1721 C1719 1.419 . S
C1721 C1722 1.362 . S
C1722 H1714 0.930 . S
C1722 C1721 1.362 . S
C1722 C1725 1.409 . S
C1723 H1715 0.930 . S
C1723 C1724 1.355 . S
C1723 C1725 1.415 . S
C1724 C1723 1.355 . S
C1724 C1726 1.419 . S
C1725 C1720 1.425 . S
C1725 C1722 1.409 . S
C1725 C1723 1.415 . S
C1726 H1716 0.930 . S
C1726 C1724 1.419 . S
C1726 C1727 1.362 . S
C1727 H1717 0.930 . S
C1727 C1720 1.409 . S
C1727 C1726 1.362 . S
H1728 C1734 0.930 . S
H1729 C1737 0.930 . S
H1730 C1738 0.930 . S
H1731 C1739 0.930 . S
H1732 C1742 0.930 . S
H1733 C1743 0.930 . S
C1734 H1728 0.930 . S
C1734 C1735 1.355 . S
C1734 C1736 1.415 . S
C1735 C1734 1.355 . S
C1735 C1737 1.419 . S
C1736 C1734 1.415 . S
C1736 C1741 1.425 . S
C1736 C1743 1.409 . S
C1737 H1729 0.930 . S
C1737 C1735 1.419 . S
C1737 C1738 1.362 . S
C1738 H1730 0.930 . S
C1738 C1737 1.362 . S
C1738 C1741 1.409 . S
C1739 H1731 0.930 . S
C1739 C1740 1.355 . S
C1739 C1741 1.415 . S
C1740 C1739 1.355 . S
C1740 C1742 1.419 . S
C1741 C1736 1.425 . S
C1741 C1738 1.409 . S
C1741 C1739 1.415 . S
C1742 H1732 0.930 . S
C1742 C1740 1.419 . S
C1742 C1743 1.362 . S
C1743 H1733 0.930 . S
C1743 C1736 1.409 . S
C1743 C1742 1.362 . S
H1744 C1750 0.930 . S
H1745 C1753 0.930 . S
H1746 C1754 0.930 1_545 S
H1747 C1755 0.930 1_545 S
H1748 C1758 0.930 . S
H1749 C1759 0.930 . S
C1750 H1744 0.930 . S
C1750 C1751 1.355 . S
C1750 C1752 1.415 . S
C1751 C1750 1.355 . S
C1751 C1753 1.419 . S
C1752 C1750 1.415 . S
C1752 C1757 1.425 . S
C1752 C1759 1.409 . S
C1753 H1745 0.930 . S
C1753 C1751 1.419 . S
C1753 C1754 1.362 . S
C1754 H1746 0.930 1_565 S
C1754 C1753 1.362 . S
C1754 C1757 1.409 . S
C1755 H1747 0.930 1_565 S
C1755 C1756 1.355 . S
C1755 C1757 1.415 . S
C1756 C1755 1.355 . S
C1756 C1758 1.419 . S
C1757 C1752 1.425 . S
C1757 C1754 1.409 . S
C1757 C1755 1.415 . S
C1758 H1748 0.930 . S
C1758 C1756 1.419 . S
C1758 C1759 1.362 . S
C1759 H1749 0.930 . S
C1759 C1752 1.409 . S
C1759 C1758 1.362 . S
H1760 C1766 0.930 . S
H1761 C1769 0.930 . S
H1762 C1770 0.930 . S
H1763 C1771 0.930 . S
H1764 C1774 0.930 . S
H1765 C1775 0.930 . S
C1766 H1760 0.930 . S
C1766 C1767 1.355 . S
C1766 C1768 1.415 . S
C1767 C1766 1.355 . S
C1767 C1769 1.419 . S
C1768 C1766 1.415 . S
C1768 C1773 1.425 . S
C1768 C1775 1.409 . S
C1769 H1761 0.930 . S
C1769 C1767 1.419 . S
C1769 C1770 1.362 . S
C1770 H1762 0.930 . S
C1770 C1769 1.362 . S
C1770 C1773 1.409 . S
C1771 H1763 0.930 . S
C1771 C1772 1.355 . S
C1771 C1773 1.415 . S
C1772 C1771 1.355 . S
C1772 C1774 1.419 . S
C1773 C1768 1.425 . S
C1773 C1770 1.409 . S
C1773 C1771 1.415 . S
C1774 H1764 0.930 . S
C1774 C1772 1.419 . S
C1774 C1775 1.362 . S
C1775 H1765 0.930 . S
C1775 C1768 1.409 . S
C1775 C1774 1.362 . S
H1776 C1782 0.930 1_556 S
H1777 C1785 0.930 . S
H1778 C1786 0.930 . S
H1779 C1787 0.930 . S
H1780 C1790 0.930 . S
H1781 C1791 0.930 1_556 S
C1782 H1776 0.930 1_554 S
C1782 C1783 1.355 . S
C1782 C1784 1.415 . S
C1783 C1782 1.355 . S
C1783 C1785 1.419 . S
C1784 C1782 1.415 . S
C1784 C1789 1.425 . S
C1784 C1791 1.409 . S
C1785 H1777 0.930 . S
C1785 C1783 1.419 . S
C1785 C1786 1.362 . S
C1786 H1778 0.930 . S
C1786 C1785 1.362 . S
C1786 C1789 1.409 . S
C1787 H1779 0.930 . S
C1787 C1788 1.355 . S
C1787 C1789 1.415 . S
C1788 C1787 1.355 . S
C1788 C1790 1.419 . S
C1789 C1784 1.425 . S
C1789 C1786 1.409 . S
C1789 C1787 1.415 . S
C1790 H1780 0.930 . S
C1790 C1788 1.419 . S
C1790 C1791 1.362 . S
C1791 H1781 0.930 1_554 S
C1791 C1784 1.409 . S
C1791 C1790 1.362 . S
H1792 C1798 0.930 . S
H1793 C1801 0.930 . S
H1794 C1802 0.930 . S
H1795 C1803 0.930 . S
H1796 C1806 0.930 . S
H1797 C1807 0.930 . S
C1798 H1792 0.930 . S
C1798 C1799 1.355 . S
C1798 C1800 1.415 . S
C1799 C1798 1.355 . S
C1799 C1801 1.419 . S
C1800 C1798 1.415 . S
C1800 C1805 1.425 . S
C1800 C1807 1.409 . S
C1801 H1793 0.930 . S
C1801 C1799 1.419 . S
C1801 C1802 1.362 . S
C1802 H1794 0.930 . S
C1802 C1801 1.362 . S
C1802 C1805 1.409 . S
C1803 H1795 0.930 . S
C1803 C1804 1.355 . S
C1803 C1805 1.415 . S
C1804 C1803 1.355 . S
C1804 C1806 1.419 . S
C1805 C1800 1.425 . S
C1805 C1802 1.409 . S
C1805 C1803 1.415 . S
C1806 H1796 0.930 . S
C1806 C1804 1.419 . S
C1806 C1807 1.362 . S
C1807 H1797 0.930 . S
C1807 C1800 1.409 . S
C1807 C1806 1.362 . S
H1808 C1814 0.930 . S
H1809 C1817 0.930 . S
H1810 C1818 0.930 . S
H1811 C1819 0.930 . S
H1812 C1822 0.930 . S
H1813 C1823 0.930 . S
C1814 H1808 0.930 . S
C1814 C1815 1.355 1_556 S
C1814 C1816 1.415 . S
C1815 C1814 1.355 1_554 S
C1815 C1817 1.419 . S
C1816 C1814 1.415 . S
C1816 C1821 1.425 1_556 S
C1816 C1823 1.409 . S
C1817 H1809 0.930 . S
C1817 C1815 1.419 . S
C1817 C1818 1.362 . S
C1818 H1810 0.930 . S
C1818 C1817 1.362 . S
C1818 C1821 1.409 . S
C1819 H1811 0.930 . S
C1819 C1820 1.355 1_554 S
C1819 C1821 1.415 . S
C1820 C1819 1.355 1_556 S
C1820 C1822 1.419 . S
C1821 C1816 1.425 1_554 S
C1821 C1818 1.409 . S
C1821 C1819 1.415 . S
C1822 H1812 0.930 . S
C1822 C1820 1.419 . S
C1822 C1823 1.362 . S
C1823 H1813 0.930 . S
C1823 C1816 1.409 . S
C1823 C1822 1.362 . S
H1824 C1830 0.930 . S
H1825 C1833 0.930 . S
H1826 C1834 0.930 . S
H1827 C1835 0.930 . S
H1828 C1838 0.930 . S
H1829 C1839 0.930 . S
C1830 H1824 0.930 . S
C1830 C1831 1.355 . S
C1830 C1832 1.415 . S
C1831 C1830 1.355 . S
C1831 C1833 1.419 . S
C1832 C1830 1.415 . S
C1832 C1837 1.425 . S
C1832 C1839 1.409 . S
C1833 H1825 0.930 . S
C1833 C1831 1.419 . S
C1833 C1834 1.362 . S
C1834 H1826 0.930 . S
C1834 C1833 1.362 . S
C1834 C1837 1.409 . S
C1835 H1827 0.930 . S
C1835 C1836 1.355 . S
C1835 C1837 1.415 . S
C1836 C1835 1.355 . S
C1836 C1838 1.419 . S
C1837 C1832 1.425 . S
C1837 C1834 1.409 . S
C1837 C1835 1.415 . S
C1838 H1828 0.930 . S
C1838 C1836 1.419 . S
C1838 C1839 1.362 . S
C1839 H1829 0.930 . S
C1839 C1832 1.409 . S
C1839 C1838 1.362 . S
H1840 C1846 0.930 . S
H1841 C1849 0.930 . S
H1842 C1850 0.930 . S
H1843 C1851 0.930 . S
H1844 C1854 0.930 . S
H1845 C1855 0.930 . S
C1846 H1840 0.930 . S
C1846 C1847 1.355 . S
C1846 C1848 1.415 . S
C1847 C1846 1.355 . S
C1847 C1849 1.419 . S
C1848 C1846 1.415 . S
C1848 C1853 1.425 . S
C1848 C1855 1.409 . S
C1849 H1841 0.930 . S
C1849 C1847 1.419 . S
C1849 C1850 1.362 . S
C1850 H1842 0.930 . S
C1850 C1849 1.362 . S
C1850 C1853 1.409 . S
C1851 H1843 0.930 . S
C1851 C1852 1.355 . S
C1851 C1853 1.415 . S
C1852 C1851 1.355 . S
C1852 C1854 1.419 . S
C1853 C1848 1.425 . S
C1853 C1850 1.409 . S
C1853 C1851 1.415 . S
C1854 H1844 0.930 . S
C1854 C1852 1.419 . S
C1854 C1855 1.362 . S
C1855 H1845 0.930 . S
C1855 C1848 1.409 . S
C1855 C1854 1.362 . S
H1856 C1862 0.930 . S
H1857 C1865 0.930 . S
H1858 C1866 0.930 . S
H1859 C1867 0.930 . S
H1860 C1870 0.930 . S
H1861 C1871 0.930 . S
C1862 H1856 0.930 . S
C1862 C1863 1.355 . S
C1862 C1864 1.415 . S
C1863 C1862 1.355 . S
C1863 C1865 1.419 . S
C1864 C1862 1.415 . S
C1864 C1869 1.425 . S
C1864 C1871 1.409 . S
C1865 H1857 0.930 . S
C1865 C1863 1.419 . S
C1865 C1866 1.362 . S
C1866 H1858 0.930 . S
C1866 C1865 1.362 . S
C1866 C1869 1.409 . S
C1867 H1859 0.930 . S
C1867 C1868 1.355 . S
C1867 C1869 1.415 . S
C1868 C1867 1.355 . S
C1868 C1870 1.419 . S
C1869 C1864 1.425 . S
C1869 C1866 1.409 . S
C1869 C1867 1.415 . S
C1870 H1860 0.930 . S
C1870 C1868 1.419 . S
C1870 C1871 1.362 . S
C1871 H1861 0.930 . S
C1871 C1864 1.409 . S
C1871 C1870 1.362 . S
H1872 C1878 0.930 . S
H1873 C1881 0.930 . S
H1874 C1882 0.930 . S
H1875 C1883 0.930 . S
H1876 C1886 0.930 . S
H1877 C1887 0.930 . S
C1878 H1872 0.930 . S
C1878 C1879 1.355 . S
C1878 C1880 1.415 . S
C1879 C1878 1.355 . S
C1879 C1881 1.419 . S
C1880 C1878 1.415 . S
C1880 C1885 1.425 . S
C1880 C1887 1.409 . S
C1881 H1873 0.930 . S
C1881 C1879 1.419 . S
C1881 C1882 1.362 . S
C1882 H1874 0.930 . S
C1882 C1881 1.362 . S
C1882 C1885 1.409 . S
C1883 H1875 0.930 . S
C1883 C1884 1.355 . S
C1883 C1885 1.415 . S
C1884 C1883 1.355 . S
C1884 C1886 1.419 . S
C1885 C1880 1.425 . S
C1885 C1882 1.409 . S
C1885 C1883 1.415 . S
C1886 H1876 0.930 . S
C1886 C1884 1.419 . S
C1886 C1887 1.362 . S
C1887 H1877 0.930 . S
C1887 C1880 1.409 . S
C1887 C1886 1.362 . S
H1888 C1894 0.930 . S
H1889 C1897 0.930 . S
H1890 C1898 0.930 . S
H1891 C1899 0.930 . S
H1892 C1902 0.930 . S
H1893 C1903 0.930 . S
C1894 H1888 0.930 . S
C1894 C1895 1.355 . S
C1894 C1896 1.415 . S
C1895 C1894 1.355 . S
C1895 C1897 1.419 1_455 S
C1896 C1894 1.415 . S
C1896 C1901 1.425 1_455 S
C1896 C1903 1.409 . S
C1897 H1889 0.930 . S
C1897 C1895 1.419 1_655 S
C1897 C1898 1.362 . S
C1898 H1890 0.930 . S
C1898 C1897 1.362 . S
C1898 C1901 1.409 . S
C1899 H1891 0.930 . S
C1899 C1900 1.355 . S
C1899 C1901 1.415 . S
C1900 C1899 1.355 . S
C1900 C1902 1.419 1_655 S
C1901 C1896 1.425 1_655 S
C1901 C1898 1.409 . S
C1901 C1899 1.415 . S
C1902 H1892 0.930 . S
C1902 C1900 1.419 1_455 S
C1902 C1903 1.362 . S
C1903 H1893 0.930 . S
C1903 C1896 1.409 . S
C1903 C1902 1.362 . S
H1904 C1910 0.930 . S
H1905 C1913 0.930 . S
H1906 C1914 0.930 . S
H1907 C1915 0.930 . S
H1908 C1918 0.930 . S
H1909 C1919 0.930 . S
C1910 H1904 0.930 . S
C1910 C1911 1.355 . S
C1910 C1912 1.415 . S
C1911 C1910 1.355 . S
C1911 C1913 1.419 . S
C1912 C1910 1.415 . S
C1912 C1917 1.425 . S
C1912 C1919 1.409 . S
C1913 H1905 0.930 . S
C1913 C1911 1.419 . S
C1913 C1914 1.362 . S
C1914 H1906 0.930 . S
C1914 C1913 1.362 . S
C1914 C1917 1.409 . S
C1915 H1907 0.930 . S
C1915 C1916 1.355 . S
C1915 C1917 1.415 . S
C1916 C1915 1.355 . S
C1916 C1918 1.419 . S
C1917 C1912 1.425 . S
C1917 C1914 1.409 . S
C1917 C1915 1.415 . S
C1918 H1908 0.930 . S
C1918 C1916 1.419 . S
C1918 C1919 1.362 . S
C1919 H1909 0.930 . S
C1919 C1912 1.409 . S
C1919 C1918 1.362 . S
H1920 C1926 0.930 . S
H1921 C1929 0.930 . S
H1922 C1930 0.930 . S
H1923 C1931 0.930 . S
H1924 C1934 0.930 . S
H1925 C1935 0.930 . S
C1926 H1920 0.930 . S
C1926 C1927 1.355 . S
C1926 C1928 1.415 . S
C1927 C1926 1.355 . S
C1927 C1929 1.419 . S
C1928 C1926 1.415 . S
C1928 C1933 1.425 . S
C1928 C1935 1.409 . S
C1929 H1921 0.930 . S
C1929 C1927 1.419 . S
C1929 C1930 1.362 . S
C1930 H1922 0.930 . S
C1930 C1929 1.362 . S
C1930 C1933 1.409 . S
C1931 H1923 0.930 . S
C1931 C1932 1.355 . S
C1931 C1933 1.415 . S
C1932 C1931 1.355 . S
C1932 C1934 1.419 . S
C1933 C1928 1.425 . S
C1933 C1930 1.409 . S
C1933 C1931 1.415 . S
C1934 H1924 0.930 . S
C1934 C1932 1.419 . S
C1934 C1935 1.362 . S
C1935 H1925 0.930 . S
C1935 C1928 1.409 . S
C1935 C1934 1.362 . S
H1936 C1942 0.930 . S
H1937 C1945 0.930 . S
H1938 C1946 0.930 . S
H1939 C1947 0.930 . S
H1940 C1950 0.930 . S
H1941 C1951 0.930 . S
C1942 H1936 0.930 . S
C1942 C1943 1.355 . S
C1942 C1944 1.415 . S
C1943 C1942 1.355 . S
C1943 C1945 1.419 . S
C1944 C1942 1.415 . S
C1944 C1949 1.425 . S
C1944 C1951 1.409 . S
C1945 H1937 0.930 . S
C1945 C1943 1.419 . S
C1945 C1946 1.362 . S
C1946 H1938 0.930 . S
C1946 C1945 1.362 . S
C1946 C1949 1.409 . S
C1947 H1939 0.930 . S
C1947 C1948 1.355 . S
C1947 C1949 1.415 . S
C1948 C1947 1.355 . S
C1948 C1950 1.419 . S
C1949 C1944 1.425 . S
C1949 C1946 1.409 . S
C1949 C1947 1.415 . S
C1950 H1940 0.930 . S
C1950 C1948 1.419 . S
C1950 C1951 1.362 . S
C1951 H1941 0.930 . S
C1951 C1944 1.409 . S
C1951 C1950 1.362 . S
H1952 C1958 0.930 . S
H1953 C1961 0.930 . S
H1954 C1962 0.930 . S
H1955 C1963 0.930 . S
H1956 C1966 0.930 . S
H1957 C1967 0.930 . S
C1958 H1952 0.930 . S
C1958 C1959 1.355 . S
C1958 C1960 1.415 . S
C1959 C1958 1.355 . S
C1959 C1961 1.419 1_455 S
C1960 C1958 1.415 . S
C1960 C1965 1.425 1_455 S
C1960 C1967 1.409 . S
C1961 H1953 0.930 . S
C1961 C1959 1.419 1_655 S
C1961 C1962 1.362 . S
C1962 H1954 0.930 . S
C1962 C1961 1.362 . S
C1962 C1965 1.409 . S
C1963 H1955 0.930 . S
C1963 C1964 1.355 . S
C1963 C1965 1.415 . S
C1964 C1963 1.355 . S
C1964 C1966 1.419 1_655 S
C1965 C1960 1.425 1_655 S
C1965 C1962 1.409 . S
C1965 C1963 1.415 . S
C1966 H1956 0.930 . S
C1966 C1964 1.419 1_455 S
C1966 C1967 1.362 . S
C1967 H1957 0.930 . S
C1967 C1960 1.409 . S
C1967 C1966 1.362 . S
H1968 C1974 0.930 . S
H1969 C1977 0.930 . S
H1970 C1978 0.930 . S
H1971 C1979 0.930 . S
H1972 C1982 0.930 . S
H1973 C1983 0.930 . S
C1974 H1968 0.930 . S
C1974 C1975 1.355 . S
C1974 C1976 1.415 . S
C1975 C1974 1.355 . S
C1975 C1977 1.419 . S
C1976 C1974 1.415 . S
C1976 C1981 1.425 . S
C1976 C1983 1.409 . S
C1977 H1969 0.930 . S
C1977 C1975 1.419 . S
C1977 C1978 1.362 . S
C1978 H1970 0.930 . S
C1978 C1977 1.362 . S
C1978 C1981 1.409 . S
C1979 H1971 0.930 . S
C1979 C1980 1.355 . S
C1979 C1981 1.415 . S
C1980 C1979 1.355 . S
C1980 C1982 1.419 . S
C1981 C1976 1.425 . S
C1981 C1978 1.409 . S
C1981 C1979 1.415 . S
C1982 H1972 0.930 . S
C1982 C1980 1.419 . S
C1982 C1983 1.362 . S
C1983 H1973 0.930 . S
C1983 C1976 1.409 . S
C1983 C1982 1.362 . S
H1984 C1990 0.930 . S
H1985 C1993 0.930 . S
H1986 C1994 0.930 . S
H1987 C1995 0.930 . S
H1988 C1998 0.930 . S
H1989 C1999 0.930 . S
C1990 H1984 0.930 . S
C1990 C1991 1.355 . S
C1990 C1992 1.415 . S
C1991 C1990 1.355 . S
C1991 C1993 1.419 . S
C1992 C1990 1.415 . S
C1992 C1997 1.425 . S
C1992 C1999 1.409 . S
C1993 H1985 0.930 . S
C1993 C1991 1.419 . S
C1993 C1994 1.362 . S
C1994 H1986 0.930 . S
C1994 C1993 1.362 . S
C1994 C1997 1.409 . S
C1995 H1987 0.930 . S
C1995 C1996 1.355 . S
C1995 C1997 1.415 . S
C1996 C1995 1.355 . S
C1996 C1998 1.419 . S
C1997 C1992 1.425 . S
C1997 C1994 1.409 . S
C1997 C1995 1.415 . S
C1998 H1988 0.930 . S
C1998 C1996 1.419 . S
C1998 C1999 1.362 . S
C1999 H1989 0.930 . S
C1999 C1992 1.409 . S
C1999 C1998 1.362 . S
H2000 C2006 0.930 . S
H2001 C2009 0.930 . S
H2002 C2010 0.930 . S
H2003 C2011 0.930 . S
H2004 C2014 0.930 . S
H2005 C2015 0.930 . S
C2006 H2000 0.930 . S
C2006 C2007 1.355 . S
C2006 C2008 1.415 . S
C2007 C2006 1.355 . S
C2007 C2009 1.419 . S
C2008 C2006 1.415 . S
C2008 C2013 1.425 . S
C2008 C2015 1.409 . S
C2009 H2001 0.930 . S
C2009 C2007 1.419 . S
C2009 C2010 1.362 . S
C2010 H2002 0.930 . S
C2010 C2009 1.362 . S
C2010 C2013 1.409 . S
C2011 H2003 0.930 . S
C2011 C2012 1.355 . S
C2011 C2013 1.415 . S
C2012 C2011 1.355 . S
C2012 C2014 1.419 . S
C2013 C2008 1.425 . S
C2013 C2010 1.409 . S
C2013 C2011 1.415 . S
C2014 H2004 0.930 . S
C2014 C2012 1.419 . S
C2014 C2015 1.362 . S
C2015 H2005 0.930 . S
C2015 C2008 1.409 . S
C2015 C2014 1.362 . S
H2016 C2022 0.930 . S
H2017 C2025 0.930 . S
H2018 C2026 0.930 . S
H2019 C2027 0.930 . S
H2020 C2030 0.930 . S
H2021 C2031 0.930 . S
C2022 H2016 0.930 . S
C2022 C2023 1.355 . S
C2022 C2024 1.415 . S
C2023 C2022 1.355 . S
C2023 C2025 1.419 . S
C2024 C2022 1.415 . S
C2024 C2029 1.425 . S
C2024 C2031 1.409 . S
C2025 H2017 0.930 . S
C2025 C2023 1.419 . S
C2025 C2026 1.362 . S
C2026 H2018 0.930 . S
C2026 C2025 1.362 . S
C2026 C2029 1.409 . S
C2027 H2019 0.930 . S
C2027 C2028 1.355 . S
C2027 C2029 1.415 . S
C2028 C2027 1.355 . S
C2028 C2030 1.419 . S
C2029 C2024 1.425 . S
C2029 C2026 1.409 . S
C2029 C2027 1.415 . S
C2030 H2020 0.930 . S
C2030 C2028 1.419 . S
C2030 C2031 1.362 . S
C2031 H2021 0.930 . S
C2031 C2024 1.409 . S
C2031 C2030 1.362 . S
H2032 C2038 0.930 . S
H2033 C2041 0.930 . S
H2034 C2042 0.930 . S
H2035 C2043 0.930 . S
H2036 C2046 0.930 . S
H2037 C2047 0.930 . S
C2038 H2032 0.930 . S
C2038 C2039 1.355 . S
C2038 C2040 1.415 . S
C2039 C2038 1.355 . S
C2039 C2041 1.419 . S
C2040 C2038 1.415 . S
C2040 C2045 1.425 . S
C2040 C2047 1.409 . S
C2041 H2033 0.930 . S
C2041 C2039 1.419 . S
C2041 C2042 1.362 . S
C2042 H2034 0.930 . S
C2042 C2041 1.362 . S
C2042 C2045 1.409 . S
C2043 H2035 0.930 . S
C2043 C2044 1.355 . S
C2043 C2045 1.415 . S
C2044 C2043 1.355 . S
C2044 C2046 1.419 . S
C2045 C2040 1.425 . S
C2045 C2042 1.409 . S
C2045 C2043 1.415 . S
C2046 H2036 0.930 . S
C2046 C2044 1.419 . S
C2046 C2047 1.362 . S
C2047 H2037 0.930 . S
C2047 C2040 1.409 . S
C2047 C2046 1.362 . S
H2048 C2054 0.930 . S
H2049 C2057 0.930 . S
H2050 C2058 0.930 . S
H2051 C2059 0.930 . S
H2052 C2062 0.930 . S
H2053 C2063 0.930 . S
C2054 H2048 0.930 . S
C2054 C2055 1.355 . S
C2054 C2056 1.415 . S
C2055 C2054 1.355 . S
C2055 C2057 1.419 . S
C2056 C2054 1.415 . S
C2056 C2061 1.425 . S
C2056 C2063 1.409 . S
C2057 H2049 0.930 . S
C2057 C2055 1.419 . S
C2057 C2058 1.362 . S
C2058 H2050 0.930 . S
C2058 C2057 1.362 . S
C2058 C2061 1.409 . S
C2059 H2051 0.930 . S
C2059 C2060 1.355 . S
C2059 C2061 1.415 . S
C2060 C2059 1.355 . S
C2060 C2062 1.419 . S
C2061 C2056 1.425 . S
C2061 C2058 1.409 . S
C2061 C2059 1.415 . S
C2062 H2052 0.930 . S
C2062 C2060 1.419 . S
C2062 C2063 1.362 . S
C2063 H2053 0.930 . S
C2063 C2056 1.409 . S
C2063 C2062 1.362 . S
H2064 C2070 0.930 . S
H2065 C2073 0.930 . S
H2066 C2074 0.930 . S
H2067 C2075 0.930 . S
H2068 C2078 0.930 . S
H2069 C2079 0.930 . S
C2070 H2064 0.930 . S
C2070 C2071 1.355 . S
C2070 C2072 1.415 . S
C2071 C2070 1.355 . S
C2071 C2073 1.419 . S
C2072 C2070 1.415 . S
C2072 C2077 1.425 . S
C2072 C2079 1.409 . S
C2073 H2065 0.930 . S
C2073 C2071 1.419 . S
C2073 C2074 1.362 . S
C2074 H2066 0.930 . S
C2074 C2073 1.362 . S
C2074 C2077 1.409 . S
C2075 H2067 0.930 . S
C2075 C2076 1.355 . S
C2075 C2077 1.415 . S
C2076 C2075 1.355 . S
C2076 C2078 1.419 . S
C2077 C2072 1.425 . S
C2077 C2074 1.409 . S
C2077 C2075 1.415 . S
C2078 H2068 0.930 . S
C2078 C2076 1.419 . S
C2078 C2079 1.362 . S
C2079 H2069 0.930 . S
C2079 C2072 1.409 . S
C2079 C2078 1.362 . S
H2080 C2086 0.930 . S
H2081 C2089 0.930 . S
H2082 C2090 0.930 . S
H2083 C2091 0.930 . S
H2084 C2094 0.930 . S
H2085 C2095 0.930 . S
C2086 H2080 0.930 . S
C2086 C2087 1.355 . S
C2086 C2088 1.415 . S
C2087 C2086 1.355 . S
C2087 C2089 1.419 . S
C2088 C2086 1.415 . S
C2088 C2093 1.425 . S
C2088 C2095 1.409 . S
C2089 H2081 0.930 . S
C2089 C2087 1.419 . S
C2089 C2090 1.362 . S
C2090 H2082 0.930 . S
C2090 C2089 1.362 . S
C2090 C2093 1.409 . S
C2091 H2083 0.930 . S
C2091 C2092 1.355 . S
C2091 C2093 1.415 . S
C2092 C2091 1.355 . S
C2092 C2094 1.419 . S
C2093 C2088 1.425 . S
C2093 C2090 1.409 . S
C2093 C2091 1.415 . S
C2094 H2084 0.930 . S
C2094 C2092 1.419 . S
C2094 C2095 1.362 . S
C2095 H2085 0.930 . S
C2095 C2088 1.409 . S
C2095 C2094 1.362 . S
H2096 C2102 0.930 . S
H2097 C2105 0.930 . S
H2098 C2106 0.930 . S
H2099 C2107 0.930 . S
H2100 C2110 0.930 . S
H2101 C2111 0.930 . S
C2102 H2096 0.930 . S
C2102 C2103 1.355 . S
C2102 C2104 1.415 . S
C2103 C2102 1.355 . S
C2103 C2105 1.419 . S
C2104 C2102 1.415 . S
C2104 C2109 1.425 . S
C2104 C2111 1.409 . S
C2105 H2097 0.930 . S
C2105 C2103 1.419 . S
C2105 C2106 1.362 . S
C2106 H2098 0.930 . S
C2106 C2105 1.362 . S
C2106 C2109 1.409 . S
C2107 H2099 0.930 . S
C2107 C2108 1.355 . S
C2107 C2109 1.415 . S
C2108 C2107 1.355 . S
C2108 C2110 1.419 . S
C2109 C2104 1.425 . S
C2109 C2106 1.409 . S
C2109 C2107 1.415 . S
C2110 H2100 0.930 . S
C2110 C2108 1.419 . S
C2110 C2111 1.362 . S
C2111 H2101 0.930 . S
C2111 C2104 1.409 . S
C2111 C2110 1.362 . S
H2112 C2118 0.930 . S
H2113 C2121 0.930 . S
H2114 C2122 0.930 . S
H2115 C2123 0.930 . S
H2116 C2126 0.930 . S
H2117 C2127 0.930 . S
C2118 H2112 0.930 . S
C2118 C2119 1.355 . S
C2118 C2120 1.415 . S
C2119 C2118 1.355 . S
C2119 C2121 1.419 . S
C2120 C2118 1.415 . S
C2120 C2125 1.425 . S
C2120 C2127 1.409 . S
C2121 H2113 0.930 . S
C2121 C2119 1.419 . S
C2121 C2122 1.362 . S
C2122 H2114 0.930 . S
C2122 C2121 1.362 . S
C2122 C2125 1.409 . S
C2123 H2115 0.930 . S
C2123 C2124 1.355 . S
C2123 C2125 1.415 . S
C2124 C2123 1.355 . S
C2124 C2126 1.419 . S
C2125 C2120 1.425 . S
C2125 C2122 1.409 . S
C2125 C2123 1.415 . S
C2126 H2116 0.930 . S
C2126 C2124 1.419 . S
C2126 C2127 1.362 . S
C2127 H2117 0.930 . S
C2127 C2120 1.409 . S
C2127 C2126 1.362 . S
H2128 C2134 0.930 . S
H2129 C2137 0.930 . S
H2130 C2138 0.930 . S
H2131 C2139 0.930 . S
H2132 C2142 0.930 . S
H2133 C2143 0.930 . S
C2134 H2128 0.930 . S
C2134 C2135 1.355 . S
C2134 C2136 1.415 . S
C2135 C2134 1.355 . S
C2135 C2137 1.419 . S
C2136 C2134 1.415 . S
C2136 C2141 1.425 . S
C2136 C2143 1.409 . S
C2137 H2129 0.930 . S
C2137 C2135 1.419 . S
C2137 C2138 1.362 . S
C2138 H2130 0.930 . S
C2138 C2137 1.362 . S
C2138 C2141 1.409 . S
C2139 H2131 0.930 . S
C2139 C2140 1.355 . S
C2139 C2141 1.415 . S
C2140 C2139 1.355 . S
C2140 C2142 1.419 . S
C2141 C2136 1.425 . S
C2141 C2138 1.409 . S
C2141 C2139 1.415 . S
C2142 H2132 0.930 . S
C2142 C2140 1.419 . S
C2142 C2143 1.362 . S
C2143 H2133 0.930 . S
C2143 C2136 1.409 . S
C2143 C2142 1.362 . S
H2144 C2150 0.930 . S
H2145 C2153 0.930 . S
H2146 C2154 0.930 . S
H2147 C2155 0.930 . S
H2148 C2158 0.930 . S
H2149 C2159 0.930 . S
C2150 H2144 0.930 . S
C2150 C2151 1.355 . S
C2150 C2152 1.415 . S
C2151 C2150 1.355 . S
C2151 C2153 1.419 . S
C2152 C2150 1.415 . S
C2152 C2157 1.425 . S
C2152 C2159 1.409 . S
C2153 H2145 0.930 . S
C2153 C2151 1.419 . S
C2153 C2154 1.362 . S
C2154 H2146 0.930 . S
C2154 C2153 1.362 . S
C2154 C2157 1.409 . S
C2155 H2147 0.930 . S
C2155 C2156 1.355 . S
C2155 C2157 1.415 . S
C2156 C2155 1.355 . S
C2156 C2158 1.419 . S
C2157 C2152 1.425 . S
C2157 C2154 1.409 . S
C2157 C2155 1.415 . S
C2158 H2148 0.930 . S
C2158 C2156 1.419 . S
C2158 C2159 1.362 . S
C2159 H2149 0.930 . S
C2159 C2152 1.409 . S
C2159 C2158 1.362 . S
H2160 C2166 0.930 . S
H2161 C2169 0.930 . S
H2162 C2170 0.930 . S
H2163 C2171 0.930 . S
H2164 C2174 0.930 . S
H2165 C2175 0.930 . S
C2166 H2160 0.930 . S
C2166 C2167 1.367 . S
C2166 C2168 1.415 . S
C2167 C2166 1.367 . S
C2167 C2169 1.397 1_554 S
C2168 C2166 1.415 . S
C2168 C2173 1.425 1_554 S
C2168 C2175 1.409 . S
C2169 H2161 0.930 . S
C2169 C2167 1.397 1_556 S
C2169 C2170 1.362 . S
C2170 H2162 0.930 . S
C2170 C2169 1.362 . S
C2170 C2173 1.409 . S
C2171 H2163 0.930 . S
C2171 C2172 1.355 . S
C2171 C2173 1.415 . S
C2172 C2171 1.355 . S
C2172 C2174 1.419 1_556 S
C2173 C2168 1.425 1_556 S
C2173 C2170 1.409 . S
C2173 C2171 1.415 . S
C2174 H2164 0.930 . S
C2174 C2172 1.419 1_554 S
C2174 C2175 1.362 . S
C2175 H2165 0.930 . S
C2175 C2168 1.409 . S
C2175 C2174 1.362 . S
H2176 C2182 0.930 . S
H2177 C2185 0.930 . S
H2178 C2186 0.930 . S
H2179 C2187 0.930 . S
H2180 C2190 0.930 . S
H2181 C2191 0.930 . S
C2182 H2176 0.930 . S
C2182 C2183 1.355 . S
C2182 C2184 1.415 . S
C2183 C2182 1.355 . S
C2183 C2185 1.419 . S
C2184 C2182 1.415 . S
C2184 C2189 1.425 . S
C2184 C2191 1.409 . S
C2185 H2177 0.930 . S
C2185 C2183 1.419 . S
C2185 C2186 1.362 . S
C2186 H2178 0.930 . S
C2186 C2185 1.362 . S
C2186 C2189 1.409 . S
C2187 H2179 0.930 . S
C2187 C2188 1.355 . S
C2187 C2189 1.415 . S
C2188 C2187 1.355 . S
C2188 C2190 1.419 . S
C2189 C2184 1.425 . S
C2189 C2186 1.409 . S
C2189 C2187 1.415 . S
C2190 H2180 0.930 . S
C2190 C2188 1.419 . S
C2190 C2191 1.362 . S
C2191 H2181 0.930 . S
C2191 C2184 1.409 . S
C2191 C2190 1.362 . S
H2192 C2198 0.930 1_556 S
H2193 C2201 0.930 . S
H2194 C2202 0.930 . S
H2195 C2203 0.930 . S
H2196 C2206 0.930 . S
H2197 C2207 0.930 . S
C2198 H2192 0.930 1_554 S
C2198 C2199 1.355 . S
C2198 C2200 1.415 . S
C2199 C2198 1.355 . S
C2199 C2201 1.419 . S
C2200 C2198 1.415 . S
C2200 C2205 1.425 . S
C2200 C2207 1.409 . S
C2201 H2193 0.930 . S
C2201 C2199 1.419 . S
C2201 C2202 1.362 . S
C2202 H2194 0.930 . S
C2202 C2201 1.362 . S
C2202 C2205 1.409 . S
C2203 H2195 0.930 . S
C2203 C2204 1.355 . S
C2203 C2205 1.415 . S
C2204 C2203 1.355 . S
C2204 C2206 1.419 . S
C2205 C2200 1.425 . S
C2205 C2202 1.409 . S
C2205 C2203 1.415 . S
C2206 H2196 0.930 . S
C2206 C2204 1.419 . S
C2206 C2207 1.362 . S
C2207 H2197 0.930 . S
C2207 C2200 1.409 . S
C2207 C2206 1.362 . S
H2208 C2214 0.930 . S
H2209 C2217 0.930 . S
H2210 C2218 0.930 . S
H2211 C2219 0.930 . S
H2212 C2222 0.930 . S
H2213 C2223 0.930 . S
C2214 H2208 0.930 . S
C2214 C2215 1.355 . S
C2214 C2216 1.415 . S
C2215 C2214 1.355 . S
C2215 C2217 1.419 . S
C2216 C2214 1.415 . S
C2216 C2221 1.425 . S
C2216 C2223 1.409 . S
C2217 H2209 0.930 . S
C2217 C2215 1.419 . S
C2217 C2218 1.362 . S
C2218 H2210 0.930 . S
C2218 C2217 1.362 . S
C2218 C2221 1.409 . S
C2219 H2211 0.930 . S
C2219 C2220 1.355 . S
C2219 C2221 1.415 . S
C2220 C2219 1.355 . S
C2220 C2222 1.419 . S
C2221 C2216 1.425 . S
C2221 C2218 1.409 . S
C2221 C2219 1.415 . S
C2222 H2212 0.930 . S
C2222 C2220 1.419 . S
C2222 C2223 1.362 . S
C2223 H2213 0.930 . S
C2223 C2216 1.409 . S
C2223 C2222 1.362 . S
H2224 C2230 0.930 . S
H2225 C2233 0.930 . S
H2226 C2234 0.930 . S
H2227 C2235 0.930 . S
H2228 C2238 0.930 . S
H2229 C2239 0.930 . S
C2230 H2224 0.930 . S
C2230 C2231 1.355 . S
C2230 C2232 1.415 . S
C2231 C2230 1.355 . S
C2231 C2233 1.419 . S
C2232 C2230 1.415 . S
C2232 C2237 1.425 . S
C2232 C2239 1.409 . S
C2233 H2225 0.930 . S
C2233 C2231 1.419 . S
C2233 C2234 1.362 . S
C2234 H2226 0.930 . S
C2234 C2233 1.362 . S
C2234 C2237 1.409 . S
C2235 H2227 0.930 . S
C2235 C2236 1.355 . S
C2235 C2237 1.415 . S
C2236 C2235 1.355 . S
C2236 C2238 1.419 . S
C2237 C2232 1.425 . S
C2237 C2234 1.409 . S
C2237 C2235 1.415 . S
C2238 H2228 0.930 . S
C2238 C2236 1.419 . S
C2238 C2239 1.362 . S
C2239 H2229 0.930 . S
C2239 C2232 1.409 . S
C2239 C2238 1.362 . S
C716 C352 1.116 . S
C711 C13 1.087 . S
C727 C25 1.388 . S
C732 C380 1.261 . S
C743 C39 1.101 . S
C748 C398 1.132 . S
C764 C424 1.348 . S
C759 C50 1.573 . S
C775 C21 1.447 . S
C780 C447 1.316 . S
C796 C467 1.134 . S
C791 C35 1.162 . S
C812 C495 1.301 . S
C807 C55 1.329 . S
C823 C8 1.190 . S
C828 C513 1.235 . S
C839 C69 1.222 . S
C844 C354 1.324 1_545 S
C855 C77 1.137 . S
C860 C376 1.113 . S
C876 C400 1.381 . S
C871 C97 1.345 1_545 S
C892 C421 1.165 . S
C887 C105 1.169 . S
C903 C63 1.235 . S
C908 C444 1.213 . S
C924 C469 1.392 . S
C919 C83 1.334 . S
C940 C491 1.102 . S
C935 C91 1.122 . S
C956 C515 1.380 . S
C951 C111 1.341 . S
C972 C355 1.047 1_556 S
C967 C106 1.096 . S
C988 C538 1.193 . S
C983 C123 1.177 . S
C999 C134 1.130 . S
C1004 C562 1.068 . S
C1020 C586 1.104 . S
C1015 C151 1.155 . S
C1031 C64 1.158 . S
C1036 C516 1.018 . S
C1052 C401 1.028 . S
C1047 C78 1.156 . S
C1063 C137 1.120 . S
C1068 C607 1.131 . S
C1084 C632 1.168 . S
C1079 C165 1.135 . S
C1095 C175 1.097 . S
C1100 C353 1.075 . S
C1116 C630 1.006 . S
C1111 C193 0.958 . S
C1127 C209 0.939 . S
C1132 C399 1.016 . S
C1143 C223 0.998 . S
C1148 C609 0.944 . S
C1164 C448 0.909 . S
C1159 C195 0.906 . S
C1180 C560 1.024 . S
C1175 C207 1.005 . S
C1196 C492 1.006 . S
C1191 C221 1.019 . S
C1212 C652 1.151 . S
C1207 C176 1.161 . S
C1228 C357 0.852 . S
C1223 C231 0.978 . S
C1239 C251 1.185 . S
C1244 C628 1.269 . S
C1260 C403 1.048 . S
C1255 C259 1.063 . S
C1271 C279 1.222 . S
C1276 C606 1.315 . S
C1287 C237 1.193 . S
C1292 C445 1.276 . S
C1303 C245 1.068 . S
C1308 C564 1.040 . S
C1324 C490 1.274 . S
C1319 C265 1.190 . S
C1335 C273 1.009 . S
C1340 C656 0.974 . S
C1351 C274 1.281 . S
C1356 C356 1.299 . S
C1367 C291 1.101 . S
C1372 C541 1.024 . S
C1383 C302 1.351 . S
C1388 C471 1.369 . S
C1399 C319 1.133 . S
C1404 C585 0.997 . S
C1420 C655 1.271 . S
C1415 C232 1.244 . S
C1436 C402 1.343 . S
C1431 C246 1.316 . S
C1452 C426 1.078 . S
C1447 C305 1.136 . S
C1468 C378 1.032 . S
C1463 C333 1.146 . S
C1479 C36 1.186 . S
C1484 C674 1.187 . S
C1500 C633 1.236 . S
C1495 C53 1.357 . S
C1516 C697 1.172 . S
C1511 C7 1.188 . S
C1527 C22 1.525 . S
C1532 C608 1.358 . S
C1543 C49 1.462 . S
C1548 C539 1.286 1_556 S
C1564 C559 1.111 . S
C1559 C11 1.106 . S
C1580 C587 1.288 . S
C1575 C27 1.351 1_455 S
C1596 C651 1.121 . S
C1591 C41 1.177 . S
C1612 C676 1.371 . S
C1607 C167 1.327 . S
C1623 C119 1.132 . S
C1628 C629 1.116 . S
C1639 C139 1.284 . S
C1644 C699 1.390 . S
C1660 C605 1.170 . S
C1655 C147 1.199 . S
C1676 C536 1.182 . S
C1671 C161 1.213 . S
C1687 C125 1.305 . S
C1692 C561 1.366 . S
C1708 C583 1.132 . S
C1703 C133 1.129 . S
C1719 C153 1.256 . S
C1724 C653 1.338 . S
C1740 C677 1.010 . S
C1735 C148 1.153 . S
C1756 C446 1.172 . S
C1751 C81 1.180 . S
C1772 C470 1.127 . S
C1767 C92 1.146 . S
C1783 C109 1.133 . S
C1788 C494 1.058 . S
C1804 C654 0.948 . S
C1799 C162 1.141 . S
C1815 C120 1.132 . S
C1820 C700 1.146 1_556 S
C1836 C423 1.185 . S
C1831 C95 1.177 . S
C1852 C379 1.179 . S
C1847 C67 1.164 . S
C1863 C203 1.123 . S
C1868 C675 1.080 . S
C1884 C377 1.123 . S
C1879 C217 1.099 . S
C1900 C698 1.015 . S
C1895 C181 0.934 1_455 S
C1911 C190 1.052 . S
C1916 C425 1.069 . S
C1927 C218 1.017 . S
C1932 C540 1.041 . S
C1943 C179 1.012 . S
C1948 C468 0.986 . S
C1959 C189 1.100 . S
C1964 C584 1.091 . S
C1975 C204 1.136 . S
C1980 C514 1.128 . S
C1996 C679 0.918 . S
C1991 C329 1.041 . S
C2007 C293 1.144 . S
C2012 C375 1.218 . S
C2028 C702 1.045 . S
C2023 C301 1.087 . S
C2039 C321 1.263 . S
C2044 C422 1.299 . S
C2055 C335 1.145 . S
C2060 C537 1.226 . S
C2076 C472 0.939 . S
C2071 C287 1.072 . S
C2087 C307 1.233 . S
C2092 C582 1.283 . S
C2108 C518 0.915 . S
C2103 C315 1.035 . S
C2124 C678 1.267 . S
C2119 C316 1.252 . S
C2140 C449 1.103 . S
C2135 C249 1.184 . S
C2151 C260 1.311 . S
C2156 C563 1.330 . S
C2172 C493 1.055 . S
C2167 C277 1.207 . S
C2188 C517 1.250 . S
C2183 C330 1.220 . S
C2199 C288 1.279 . S
C2204 C701 1.308 . S
C2220 C610 1.153 . S
C2215 C263 1.217 . S
C2236 C631 1.068 . S
C2231 C235 1.209 . S
