# Generated by pormake.
# Topology ocu, (6,8)-cn, num edge types: 1
# Building blocks:
#     Node 0, Type 0, BuildingBlock: MIFKUJ_clean_sbu_0, # of connection points: 6
#     Node 1, Type 0, BuildingBlock: MIFKUJ_clean_sbu_0, # of connection points: 6
#     Node 2, Type 0, BuildingBlock: MIFKUJ_clean_sbu_0, # of connection points: 6
#     Node 3, Type 0, BuildingBlock: MIFKUJ_clean_sbu_0, # of connection points: 6
#     Node 4, Type 0, BuildingBlock: MIFKUJ_clean_sbu_0, # of connection points: 6
#     Node 5, Type 0, BuildingBlock: MIFKUJ_clean_sbu_0, # of connection points: 6
#     Node 6, Type 0, BuildingBlock: MIFKUJ_clean_sbu_0, # of connection points: 6
#     Node 7, Type 0, BuildingBlock: MIFKUJ_clean_sbu_0, # of connection points: 6
#     Node 8, Type 1, BuildingBlock: GIZVER_clean_sbu_0, # of connection points: 8
#     Node 9, Type 1, BuildingBlock: GIZVER_clean_sbu_0, # of connection points: 8
#     Node 10, Type 1, BuildingBlock: GIZVER_clean_sbu_0, # of connection points: 8
#     Node 11, Type 1, BuildingBlock: GIZVER_clean_sbu_0, # of connection points: 8
#     Node 12, Type 1, BuildingBlock: GIZVER_clean_sbu_0, # of connection points: 8
#     Node 13, Type 1, BuildingBlock: GIZVER_clean_sbu_0, # of connection points: 8
#     Edge 14, Type (0, 1), BuildingBlock: UVAHIK_clean_linker_0, # of connection points: 2
#     Edge 15, Type (0, 1), BuildingBlock: UVAHIK_clean_linker_0, # of connection points: 2
#     Edge 16, Type (0, 1), BuildingBlock: UVAHIK_clean_linker_0, # of connection points: 2
#     Edge 17, Type (0, 1), BuildingBlock: UVAHIK_clean_linker_0, # of connection points: 2
#     Edge 18, Type (0, 1), BuildingBlock: UVAHIK_clean_linker_0, # of connection points: 2
#     Edge 19, Type (0, 1), BuildingBlock: UVAHIK_clean_linker_0, # of connection points: 2
#     Edge 20, Type (0, 1), BuildingBlock: UVAHIK_clean_linker_0, # of connection points: 2
#     Edge 21, Type (0, 1), BuildingBlock: UVAHIK_clean_linker_0, # of connection points: 2
#     Edge 22, Type (0, 1), BuildingBlock: UVAHIK_clean_linker_0, # of connection points: 2
#     Edge 23, Type (0, 1), BuildingBlock: UVAHIK_clean_linker_0, # of connection points: 2
#     Edge 24, Type (0, 1), BuildingBlock: UVAHIK_clean_linker_0, # of connection points: 2
#     Edge 25, Type (0, 1), BuildingBlock: UVAHIK_clean_linker_0, # of connection points: 2
#     Edge 26, Type (0, 1), BuildingBlock: UVAHIK_clean_linker_0, # of connection points: 2
#     Edge 27, Type (0, 1), BuildingBlock: UVAHIK_clean_linker_0, # of connection points: 2
#     Edge 28, Type (0, 1), BuildingBlock: UVAHIK_clean_linker_0, # of connection points: 2
#     Edge 29, Type (0, 1), BuildingBlock: UVAHIK_clean_linker_0, # of connection points: 2
#     Edge 30, Type (0, 1), BuildingBlock: UVAHIK_clean_linker_0, # of connection points: 2
#     Edge 31, Type (0, 1), BuildingBlock: UVAHIK_clean_linker_0, # of connection points: 2
#     Edge 32, Type (0, 1), BuildingBlock: UVAHIK_clean_linker_0, # of connection points: 2
#     Edge 33, Type (0, 1), BuildingBlock: UVAHIK_clean_linker_0, # of connection points: 2
#     Edge 34, Type (0, 1), BuildingBlock: UVAHIK_clean_linker_0, # of connection points: 2
#     Edge 35, Type (0, 1), BuildingBlock: UVAHIK_clean_linker_0, # of connection points: 2
#     Edge 36, Type (0, 1), BuildingBlock: UVAHIK_clean_linker_0, # of connection points: 2
#     Edge 37, Type (0, 1), BuildingBlock: UVAHIK_clean_linker_0, # of connection points: 2
#     Edge 38, Type (0, 1), BuildingBlock: UVAHIK_clean_linker_0, # of connection points: 2
#     Edge 39, Type (0, 1), BuildingBlock: UVAHIK_clean_linker_0, # of connection points: 2
#     Edge 40, Type (0, 1), BuildingBlock: UVAHIK_clean_linker_0, # of connection points: 2
#     Edge 41, Type (0, 1), BuildingBlock: UVAHIK_clean_linker_0, # of connection points: 2
#     Edge 42, Type (0, 1), BuildingBlock: UVAHIK_clean_linker_0, # of connection points: 2
#     Edge 43, Type (0, 1), BuildingBlock: UVAHIK_clean_linker_0, # of connection points: 2
#     Edge 44, Type (0, 1), BuildingBlock: UVAHIK_clean_linker_0, # of connection points: 2
#     Edge 45, Type (0, 1), BuildingBlock: UVAHIK_clean_linker_0, # of connection points: 2
#     Edge 46, Type (0, 1), BuildingBlock: UVAHIK_clean_linker_0, # of connection points: 2
#     Edge 47, Type (0, 1), BuildingBlock: UVAHIK_clean_linker_0, # of connection points: 2
#     Edge 48, Type (0, 1), BuildingBlock: UVAHIK_clean_linker_0, # of connection points: 2
#     Edge 49, Type (0, 1), BuildingBlock: UVAHIK_clean_linker_0, # of connection points: 2
#     Edge 50, Type (0, 1), BuildingBlock: UVAHIK_clean_linker_0, # of connection points: 2
#     Edge 51, Type (0, 1), BuildingBlock: UVAHIK_clean_linker_0, # of connection points: 2
#     Edge 52, Type (0, 1), BuildingBlock: UVAHIK_clean_linker_0, # of connection points: 2
#     Edge 53, Type (0, 1), BuildingBlock: UVAHIK_clean_linker_0, # of connection points: 2
#     Edge 54, Type (0, 1), BuildingBlock: UVAHIK_clean_linker_0, # of connection points: 2
#     Edge 55, Type (0, 1), BuildingBlock: UVAHIK_clean_linker_0, # of connection points: 2
#     Edge 56, Type (0, 1), BuildingBlock: UVAHIK_clean_linker_0, # of connection points: 2
#     Edge 57, Type (0, 1), BuildingBlock: UVAHIK_clean_linker_0, # of connection points: 2
#     Edge 58, Type (0, 1), BuildingBlock: UVAHIK_clean_linker_0, # of connection points: 2
#     Edge 59, Type (0, 1), BuildingBlock: UVAHIK_clean_linker_0, # of connection points: 2
#     Edge 60, Type (0, 1), BuildingBlock: UVAHIK_clean_linker_0, # of connection points: 2
#     Edge 61, Type (0, 1), BuildingBlock: UVAHIK_clean_linker_0, # of connection points: 2
# Relax obj value: 0.108
# Max RMSD: 0.237
# Mean RMSD: 0.164
data_MOF--net-ocu--node1-MIFKUJ_clean_sbu_0--node2-GIZVER_clean_sbu_0--edge1-UVAHIK_clean_linker_0
_symmetry_space_group_name_H-M    P1
_symmetry_Int_Tables_number       1
_symmetry_cell_setting            triclinic
loop_
_symmetry_equiv_pos_as_xyz
'x, y, z'
_cell_length_a     53.090103
_cell_length_b     57.272337
_cell_length_c     37.968788
_cell_angle_alpha  91.303493
_cell_angle_beta   93.343725
_cell_angle_gamma 104.63184
loop_
_atom_site_label
_atom_site_type_symbol
_atom_site_fract_x
_atom_site_fract_y
_atom_site_fract_z
_atom_type_partial_charge
Zn0 Zn 0.22029 0.27057 0.25036 0.0
Zn1 Zn 0.2708 0.22584 0.24825 0.0
C2 C 0.20195 0.2883 0.31411 0.0
O3 O 0.18954 0.26551 0.31652 0.0
C4 C 0.30191 0.20694 0.20427 0.0
O5 O 0.3181 0.22656 0.21859 0.0
O6 O 0.19351 0.27662 0.21415 0.0
O7 O 0.25608 0.28341 0.2301 0.0
O8 O 0.28354 0.25993 0.22929 0.0
C9 C 0.1978 0.28248 0.18253 0.0
O10 O 0.22029 0.282 0.17022 0.0
O11 O 0.21749 0.29423 0.28967 0.0
C12 C 0.28906 0.20247 0.30397 0.0
O13 O 0.26702 0.18713 0.2929 0.0
O14 O 0.29567 0.22263 0.28928 0.0
O15 O 0.23379 0.21222 0.26508 0.0
O16 O 0.20677 0.23598 0.26744 0.0
O17 O 0.27809 0.20232 0.21157 0.0
C18 C 0.27801 0.27989 0.22287 0.0
C19 C 0.21178 0.21561 0.27226 0.0
Zn20 Zn 0.74302 0.2717 0.23296 0.0
Zn21 Zn 0.73738 0.21954 0.31133 0.0
C22 C 0.69386 0.28177 0.21016 0.0
O23 O 0.68675 0.25846 0.20247 0.0
C24 C 0.7836 0.2039 0.32648 0.0
O25 O 0.79417 0.2265 0.31954 0.0
O26 O 0.77655 0.28989 0.21544 0.0
O27 O 0.74811 0.2637 0.28241 0.0
O28 O 0.75721 0.25224 0.33394 0.0
C29 C 0.78547 0.31113 0.22859 0.0
O30 O 0.77243 0.31929 0.25228 0.0
O31 O 0.71645 0.29105 0.22487 0.0
C32 C 0.70216 0.20258 0.3645 0.0
O33 O 0.72372 0.2014 0.3824 0.0
O34 O 0.70328 0.20969 0.33311 0.0
O35 O 0.72975 0.21963 0.2573 0.0
O36 O 0.73042 0.23935 0.20785 0.0
O37 O 0.7589 0.19603 0.32338 0.0
C38 C 0.75957 0.26914 0.31262 0.0
C39 C 0.72496 0.21955 0.22391 0.0
Zn40 Zn 0.77641 0.72687 0.24331 0.0
Zn41 Zn 0.72071 0.77017 0.25979 0.0
C42 C 0.80884 0.71567 0.30067 0.0
O43 O 0.82376 0.7369 0.29382 0.0
C44 C 0.69037 0.78377 0.20154 0.0
O45 O 0.67593 0.76163 0.20389 0.0
O46 O 0.78732 0.71256 0.19922 0.0
O47 O 0.73786 0.72526 0.24346 0.0
O48 O 0.70104 0.73542 0.24894 0.0
C49 C 0.78136 0.68963 0.1957 0.0
O50 O 0.76631 0.6769 0.21839 0.0
O51 O 0.78692 0.70797 0.28337 0.0
C52 C 0.71544 0.80482 0.31283 0.0
O53 O 0.73152 0.81947 0.29326 0.0
O54 O 0.70953 0.78225 0.3053 0.0
O55 O 0.7585 0.7704 0.258 0.0
O56 O 0.79595 0.762 0.25189 0.0
O57 O 0.71093 0.79103 0.22185 0.0
C58 C 0.71308 0.71953 0.24136 0.0
C59 C 0.78318 0.77724 0.25966 0.0
Zn60 Zn 0.22296 0.76119 0.26037 0.0
Zn61 Zn 0.27344 0.73592 0.23149 0.0
C62 C 0.17961 0.72891 0.29017 0.0
O63 O 0.1671 0.7444 0.2779 0.0
C64 C 0.30251 0.76504 0.18095 0.0
O65 O 0.31813 0.75115 0.18874 0.0
O66 O 0.20583 0.78821 0.27032 0.0
O67 O 0.2587 0.77204 0.28384 0.0
O68 O 0.2898 0.75318 0.27745 0.0
C69 C 0.20687 0.79385 0.3031 0.0
O70 O 0.21851 0.78218 0.32552 0.0
O71 O 0.20384 0.73245 0.28606 0.0
C72 C 0.28492 0.70026 0.18612 0.0
O73 O 0.26835 0.70808 0.16543 0.0
O74 O 0.29056 0.70942 0.21737 0.0
O75 O 0.23493 0.72061 0.22863 0.0
O76 O 0.21918 0.75016 0.20938 0.0
O77 O 0.28109 0.76178 0.19569 0.0
C78 C 0.2815 0.76984 0.29182 0.0
C79 C 0.2217 0.7288 0.20525 0.0
Zn80 Zn 0.25857 0.77316 0.68489 0.0
Zn81 Zn 0.26259 0.72014 0.76127 0.0
C82 C 0.20954 0.78486 0.66587 0.0
O83 O 0.20096 0.76128 0.66209 0.0
C84 C 0.30792 0.70911 0.79289 0.0
O85 O 0.30589 0.72665 0.81449 0.0
O86 O 0.28934 0.78683 0.65753 0.0
O87 O 0.27197 0.77484 0.73783 0.0
O88 O 0.27515 0.75278 0.78468 0.0
C89 C 0.30931 0.77841 0.6591 0.0
O90 O 0.30991 0.76036 0.6796 0.0
O91 O 0.23322 0.79402 0.67671 0.0
C92 C 0.22983 0.67754 0.78493 0.0
O93 O 0.24816 0.66868 0.77239 0.0
O94 O 0.23157 0.70002 0.78335 0.0
O95 O 0.25312 0.72818 0.71338 0.0
O96 O 0.24182 0.7396 0.66273 0.0
O97 O 0.29203 0.7034 0.7658 0.0
C98 C 0.27899 0.77319 0.77034 0.0
C99 C 0.24147 0.72256 0.68333 0.0
Zn100 Zn 0.27813 0.22783 0.74149 0.0
Zn101 Zn 0.22598 0.26419 0.76588 0.0
C102 C 0.31132 0.21863 0.80159 0.0
O103 O 0.32672 0.2398 0.79552 0.0
C104 C 0.19849 0.2798 0.71005 0.0
O105 O 0.18178 0.26051 0.72035 0.0
O106 O 0.29618 0.21625 0.70153 0.0
O107 O 0.23944 0.21342 0.73367 0.0
O108 O 0.20846 0.23024 0.75087 0.0
C109 C 0.28922 0.19367 0.69412 0.0
O110 O 0.27047 0.18006 0.71118 0.0
O111 O 0.28975 0.21127 0.78343 0.0
C112 C 0.21378 0.29822 0.81101 0.0
O113 O 0.2336 0.31119 0.79508 0.0
O114 O 0.20615 0.27568 0.80354 0.0
O115 O 0.26249 0.26767 0.7865 0.0
O116 O 0.29075 0.26399 0.74824 0.0
O117 O 0.22155 0.28549 0.72477 0.0
C118 C 0.21556 0.2128 0.73683 0.0
C119 C 0.28256 0.27696 0.77022 0.0
Zn120 Zn 0.72302 0.25543 0.77482 0.0
Zn121 Zn 0.77447 0.23234 0.74545 0.0
C122 C 0.69769 0.22381 0.82571 0.0
O123 O 0.67995 0.23585 0.81967 0.0
C124 C 0.81672 0.26916 0.72774 0.0
O125 O 0.82756 0.25927 0.75342 0.0
O126 O 0.70336 0.27968 0.79042 0.0
O127 O 0.76089 0.27336 0.7775 0.0
O128 O 0.77877 0.24477 0.7959 0.0
C129 C 0.70845 0.2885 0.82189 0.0
O130 O 0.72518 0.28097 0.84268 0.0
O131 O 0.7186 0.22925 0.80973 0.0
C132 C 0.79292 0.20209 0.70236 0.0
O133 O 0.78066 0.2139 0.68096 0.0
O134 O 0.79345 0.20652 0.73546 0.0
O135 O 0.73874 0.22012 0.7223 0.0
O136 O 0.70695 0.23811 0.72883 0.0
O137 O 0.7927 0.26056 0.7187 0.0
C138 C 0.77575 0.266 0.79969 0.0
C139 C 0.71571 0.22175 0.71446 0.0
Zn140 Zn 0.72649 0.76815 0.75725 0.0
Zn141 Zn 0.77607 0.72201 0.75087 0.0
C142 C 0.70251 0.78678 0.81509 0.0
O143 O 0.68825 0.76438 0.81425 0.0
C144 C 0.80622 0.70393 0.7037 0.0
O145 O 0.82278 0.72341 0.71783 0.0
O146 O 0.70109 0.7725 0.71787 0.0
O147 O 0.76265 0.78075 0.73781 0.0
O148 O 0.78894 0.75643 0.73304 0.0
C149 C 0.70677 0.79386 0.70683 0.0
O150 O 0.72801 0.80924 0.72049 0.0
O151 O 0.72127 0.79234 0.79487 0.0
C152 C 0.79348 0.70759 0.81938 0.0
O153 O 0.76849 0.70217 0.82465 0.0
O154 O 0.80129 0.71779 0.79116 0.0
O155 O 0.73916 0.70876 0.76801 0.0
O156 O 0.71344 0.73356 0.7741 0.0
O157 O 0.78276 0.69904 0.71267 0.0
C158 C 0.7841 0.77694 0.7289 0.0
C159 C 0.7178 0.71276 0.77704 0.0
Co160 Co 0.02668 0.95161 0.47964 0.0
Co161 Co 0.02957 0.96732 0.54415 0.0
Co162 Co 0.99644 0.99551 0.49811 0.0
O163 O 0.02727 0.9819 0.50197 0.0
H164 H 0.04333 0.99398 0.49909 0.0
O165 O 0.96543 0.00918 0.49445 0.0
Co166 Co 0.96661 0.03978 0.51683 0.0
Co167 Co 0.96318 0.02374 0.452 0.0
H168 H 0.94935 -0.0028 0.49761 0.0
O169 O 0.06126 0.96536 0.5629 0.0
O170 O 0.03273 0.93788 0.5266 0.0
O171 O 0.00015 0.96136 0.57252 0.0
O172 O 0.974 0.97098 0.53046 0.0
O173 O 0.01201 0.01751 0.53886 0.0
O174 O 0.96533 0.06691 0.53794 0.0
O175 O 0.93202 0.03429 0.52426 0.0
O176 O 0.00302 0.04941 0.51437 0.0
O177 O 0.01893 0.0201 0.46578 0.0
O178 O 0.9929 0.03011 0.42392 0.0
O179 O 0.96058 0.05323 0.47002 0.0
O180 O 0.9314 0.0264 0.43375 0.0
C181 C 0.05342 0.93641 0.45828 0.0
C182 C 0.97554 0.95065 0.46054 0.0
C183 C 0.97744 0.96077 0.5596 0.0
C184 C 0.05429 0.94415 0.547 0.0
C185 C 0.94078 0.05604 0.53864 0.0
C186 C 0.01649 0.04024 0.53625 0.0
C187 C 0.0156 0.03063 0.43687 0.0
C188 C 0.93874 0.04734 0.45035 0.0
O189 O 0.02899 0.92478 0.45811 0.0
O190 O 0.06125 0.958 0.4733 0.0
O191 O 0.98099 0.97342 0.45733 0.0
O192 O 0.98975 0.94119 0.48109 0.0
Co193 Co 0.52989 0.95329 0.98592 0.0
Co194 Co 0.53016 0.97027 0.04947 0.0
Co195 Co 0.49905 -0.00192 0.99828 0.0
O196 O 0.52934 0.98392 0.00655 0.0
H197 H 0.54572 0.99578 0.00462 0.0
O198 O 0.46901 0.01263 0.9895 0.0
Co199 Co 0.46937 0.04344 0.01076 0.0
Co200 Co 0.4694 0.02755 0.94672 0.0
H201 H 0.45247 0.00094 0.99111 0.0
O202 O 0.5614 0.96896 0.07086 0.0
O203 O 0.53444 0.94076 0.0339 0.0
O204 O 0.49951 0.96572 0.07507 0.0
O205 O 0.47581 0.97688 0.03127 0.0
O206 O 0.51425 0.02219 0.03743 0.0
O207 O 0.4668 0.07066 0.03103 0.0
O208 O 0.43441 0.03761 0.01583 0.0
O209 O 0.50646 0.05361 0.01017 0.0
O210 O 0.52231 0.01901 0.96557 0.0
O211 O 0.50125 0.03395 0.92283 0.0
O212 O 0.4648 0.05665 0.96336 0.0
O213 O 0.43844 0.02956 0.9245 0.0
C214 C 0.55797 0.938 0.96745 0.0
C215 C 0.4783 0.9514 0.96463 0.0
C216 C 0.47775 0.96717 0.06091 0.0
C217 C 0.55562 0.94779 0.05486 0.0
C218 C 0.4422 0.05944 0.03013 0.0
C219 C 0.52027 0.04472 0.03206 0.0
C220 C 0.5221 0.03063 0.93742 0.0
C221 C 0.44394 0.05027 0.94177 0.0
O222 O 0.53355 0.9261 0.96585 0.0
O223 O 0.56494 0.95979 0.98191 0.0
O224 O 0.48398 0.97393 0.95921 0.0
O225 O 0.49264 0.94248 0.98575 0.0
Co226 Co 0.02881 0.45248 0.98607 0.0
Co227 Co 0.03978 0.47756 0.04565 0.0
Co228 Co -2e-05 0.49873 0.99662 0.0
O229 O 0.03122 0.48537 0.99984 0.0
H230 H 0.0462 0.49634 0.99079 0.0
O231 O 0.96848 0.51179 0.99368 0.0
Co232 Co 0.96982 0.54423 0.00827 0.0
Co233 Co 0.95908 0.51948 0.94806 0.0
H234 H 0.95366 0.50054 0.00261 0.0
O235 O 0.07278 0.47404 0.06006 0.0
O236 O 0.03892 0.44555 0.03504 0.0
O237 O 0.01403 0.47663 0.0792 0.0
O238 O 0.98405 0.48152 0.03848 0.0
O239 O 0.02037 0.52671 0.02731 0.0
O240 O 0.9675 0.57333 0.02295 0.0
O241 O 0.93618 0.53837 0.01888 0.0
O242 O 0.00547 0.55457 0.99975 0.0
O243 O 0.01569 0.51576 0.95441 0.0
O244 O 0.98485 0.52058 0.91458 0.0
O245 O 0.96096 0.55146 0.95939 0.0
O246 O 0.926 0.52443 0.93453 0.0
C247 C 0.05388 0.43423 0.96683 0.0
C248 C 0.97584 0.44936 0.97624 0.0
C249 C 0.99053 0.47545 0.06913 0.0
C250 C 0.0624 0.45166 0.05016 0.0
C251 C 0.94352 0.56147 0.027 0.0
C252 C 0.02329 0.54847 0.01825 0.0
C253 C 0.00843 0.52134 0.92376 0.0
C254 C 0.93748 0.54651 0.94476 0.0
O255 O 0.02984 0.42309 0.97172 0.0
O256 O 0.06212 0.45738 0.97435 0.0
O257 O 0.97988 0.47088 0.96587 0.0
O258 O 0.99298 0.44292 0.99572 0.0
Co259 Co 0.53195 0.45362 0.99073 0.0
Co260 Co 0.53341 0.46983 0.05438 0.0
Co261 Co 0.50089 0.49741 0.00563 0.0
O262 O 0.53195 0.48411 0.01206 0.0
H263 H 0.54806 0.49622 0.00956 0.0
O264 O 0.47 0.51082 0.99911 0.0
Co265 Co 0.47023 0.54203 0.01822 0.0
Co266 Co 0.46875 0.52357 0.95531 0.0
H267 H 0.45386 0.49891 0.00226 0.0
O268 O 0.56474 0.46808 0.07481 0.0
O269 O 0.53702 0.44027 0.03805 0.0
O270 O 0.50304 0.46335 0.08063 0.0
O271 O 0.47766 0.47345 0.03806 0.0
O272 O 0.5152 0.52045 0.04586 0.0
O273 O 0.46755 0.56978 0.03652 0.0
O274 O 0.43533 0.53637 0.02228 0.0
O275 O 0.50731 0.55198 0.01892 0.0
O276 O 0.52403 0.52131 0.97328 0.0
O277 O 0.49875 0.52807 0.92799 0.0
O278 O 0.46602 0.55388 0.96951 0.0
O279 O 0.43761 0.52541 0.93449 0.0
C280 C 0.55906 0.43834 0.97054 0.0
C281 C 0.48132 0.45184 0.96944 0.0
C282 C 0.48053 0.4628 0.06701 0.0
C283 C 0.55788 0.44662 0.0597 0.0
C284 C 0.44297 0.5585 0.03549 0.0
C285 C 0.52085 0.54308 0.04126 0.0
C286 C 0.52123 0.53001 0.94276 0.0
C287 C 0.44499 0.54727 0.94818 0.0
O288 O 0.53463 0.42667 0.96985 0.0
O289 O 0.56677 0.45992 0.98563 0.0
O290 O 0.48653 0.47448 0.96521 0.0
O291 O 0.49516 0.44311 0.99145 0.0
Co292 Co 0.04909 0.46643 0.51816 0.0
Co293 Co 0.02948 0.4642 0.4549 0.0
Co294 Co 0.00032 0.49494 0.50276 0.0
O295 O 0.01525 0.46631 0.49745 0.0
H296 H 0.00248 0.45137 0.50107 0.0
O297 O 0.98533 0.52342 0.50812 0.0
Co298 Co 0.95168 0.52375 0.48723 0.0
Co299 Co 0.97144 0.52597 0.55098 0.0
H300 H 0.99817 0.53832 0.50448 0.0
O301 O 0.03035 0.43493 0.43557 0.0
O302 O 0.06161 0.46033 0.47104 0.0
O303 O 0.03551 0.49207 0.42724 0.0
O304 O 0.0214 0.51473 0.46623 0.0
O305 O 0.97234 0.47924 0.46595 0.0
O306 O 0.92197 0.52688 0.46697 0.0
O307 O 0.95899 0.55586 0.48042 0.0
O308 O 0.93966 0.48972 0.49019 0.0
O309 O 0.97915 0.47534 0.53917 0.0
O310 O 0.96621 0.49826 0.5791 0.0
O311 O 0.93898 0.52909 0.53458 0.0
O312 O 0.96966 0.55558 0.56918 0.0
C313 C 0.06662 0.44139 0.53964 0.0
C314 C 0.05262 0.51438 0.534 0.0
C315 C 0.0328 0.51229 0.43818 0.0
C316 C 0.05386 0.44087 0.45054 0.0
C317 C 0.93488 0.54944 0.46711 0.0
C318 C 0.94799 0.47567 0.47001 0.0
C319 C 0.96837 0.47792 0.56772 0.0
C320 C 0.94628 0.54912 0.55388 0.0
O321 O 0.0791 0.464 0.53855 0.0
O322 O 0.04246 0.43437 0.52652 0.0
O323 O 0.02846 0.51059 0.53951 0.0
O324 O 0.0605 0.50029 0.51338 0.0
Co325 Co 0.54721 0.96603 0.51699 0.0
Co326 Co 0.53174 0.96944 0.4533 0.0
Co327 Co 0.49838 0.99617 0.50029 0.0
O328 O 0.51485 0.9687 0.49412 0.0
H329 H 0.502 0.95341 0.49479 0.0
O330 O 0.4818 0.02355 0.50647 0.0
Co331 Co 0.44888 0.02606 0.48488 0.0
Co332 Co 0.46602 0.02322 0.54842 0.0
H333 H 0.49457 0.03884 0.50533 0.0
O334 O 0.5314 0.94098 0.42955 0.0
O335 O 0.56165 0.962 0.47065 0.0
O336 O 0.53845 0.00028 0.43249 0.0
O337 O 0.50068 0.00481 0.44935 0.0
O338 O 0.46497 0.97214 0.4886 0.0
O339 O 0.42034 0.03176 0.46472 0.0
O340 O 0.45864 0.05847 0.48055 0.0
O341 O 0.43392 0.99201 0.48575 0.0
O342 O 0.49607 0.98746 0.55127 0.0
O343 O 0.45875 0.99237 0.56897 0.0
O344 O 0.43572 0.03023 0.53197 0.0
O345 O 0.46639 0.05182 0.57202 0.0
C346 C 0.56073 0.93828 0.53655 0.0
C347 C 0.55552 0.01962 0.51581 0.0
C348 C 0.52174 0.01266 0.43385 0.0
C349 C 0.55339 0.9437 0.44813 0.0
C350 C 0.4347 0.05389 0.46688 0.0
C351 C 0.44116 0.97245 0.48566 0.0
C352 C 0.47492 0.97954 0.56654 0.0
C353 C 0.44412 0.04877 0.55402 0.0
O354 O 0.57516 0.96037 0.53868 0.0
O355 O 0.53727 0.93363 0.52116 0.0
O356 O 0.53186 0.02034 0.51197 0.0
O357 O 0.56222 -0.00016 0.51643 0.0
C358 C 0.19701 0.17309 0.29495 0.0
C359 C 0.19204 0.19575 0.28856 0.0
C360 C 0.17897 0.1549 0.3114 0.0
C361 C 0.10857 0.1362 0.33307 0.0
H362 H 0.13234 0.09244 0.39559 0.0
C363 C 0.03472 0.05363 0.38475 0.0
C364 C 0.03827 0.04644 0.41955 0.0
C365 C 0.05424 0.07085 0.36931 0.0
C366 C 0.12523 0.10456 0.37844 0.0
H367 H 0.16353 0.21651 0.29482 0.0
H368 H 0.13244 0.18518 0.32349 0.0
H369 H 0.16414 0.12439 0.36865 0.0
H370 H 0.06601 0.05177 0.465 0.0
H371 H 0.10013 0.08201 0.43819 0.0
H372 H 0.06978 0.11695 0.34343 0.0
C373 C 0.1502 0.18124 0.31543 0.0
C374 C 0.1436 0.12283 0.36251 0.0
C375 C 0.16823 0.19942 0.29902 0.0
C376 C 0.06254 0.05658 0.43805 0.0
C377 C 0.08216 0.07404 0.42257 0.0
C378 C 0.09027 0.11801 0.34896 0.0
C379 C 0.15519 0.1586 0.32201 0.0
C380 C 0.13562 0.139 0.33942 0.0
C381 C 0.07815 0.08185 0.38809 0.0
C382 C 0.09817 0.10169 0.3718 0.0
H383 H 0.21491 0.16931 0.28723 0.0
H384 H 0.18359 0.13774 0.3153 0.0
H385 H 0.10134 0.1479 0.3153 0.0
H386 H 0.01647 0.04623 0.36939 0.0
H387 H 0.05038 0.07561 0.34247 0.0
C388 C 0.78974 0.16375 0.34443 0.0
C389 C 0.80018 0.18857 0.34053 0.0
C390 C 0.80522 0.14959 0.35929 0.0
C391 C 0.87427 0.14907 0.381 0.0
H392 H 0.84256 0.09696 0.44041 0.0
C393 C 0.93325 0.08963 0.45244 0.0
C394 C 0.92272 0.0648 0.44504 0.0
C395 C 0.91857 0.10613 0.44395 0.0
C396 C 0.85166 0.1115 0.42393 0.0
H397 H 0.83507 0.21802 0.34909 0.0
H398 H 0.86181 0.19354 0.37577 0.0
H399 H 0.81654 0.123 0.41604 0.0
H400 H 0.88812 0.03767 0.42497 0.0
H401 H 0.86255 0.06635 0.4107 0.0
H402 H 0.90944 0.13747 0.38918 0.0
C403 C 0.84186 0.18482 0.3667 0.0
C404 C 0.83673 0.1263 0.4097 0.0
C405 C 0.82646 0.1989 0.3515 0.0
C406 C 0.89688 0.05671 0.43068 0.0
C407 C 0.88215 0.07311 0.42272 0.0
C408 C 0.88927 0.13441 0.39557 0.0
C409 C 0.83141 0.16 0.37096 0.0
C410 C 0.84771 0.14502 0.38754 0.0
C411 C 0.89299 0.09799 0.42861 0.0
C412 C 0.87798 0.11523 0.41667 0.0
H413 H 0.76958 0.15523 0.33605 0.0
H414 H 0.79664 0.13045 0.36143 0.0
H415 H 0.88333 0.1631 0.36374 0.0
H416 H 0.95307 0.09637 0.46367 0.0
H417 H 0.92729 0.12524 0.44899 0.0
C418 C 0.82003 0.81347 0.25652 0.0
C419 C 0.79716 0.80173 0.27202 0.0
C420 C 0.83652 0.83425 0.27276 0.0
C421 C 0.84511 0.8792 0.34785 0.0
H422 H 0.91557 0.87103 0.35276 0.0
C423 C 0.93488 0.94584 0.42136 0.0
C424 C 0.95235 0.93531 0.44059 0.0
C425 C 0.91395 0.93146 0.40045 0.0
C426 C 0.89597 0.87349 0.35179 0.0
H427 H 0.77274 0.80275 0.31538 0.0
H428 H 0.80184 0.83884 0.34441 0.0
H429 H 0.88222 0.84455 0.31369 0.0
H430 H 0.96089 0.90141 0.45427 0.0
H431 H 0.92434 0.87633 0.41771 0.0
H432 H 0.8591 0.90781 0.38714 0.0
C433 C 0.80677 0.8325 0.31927 0.0
C434 C 0.87692 0.85859 0.32892 0.0
C435 C 0.79006 0.81188 0.30266 0.0
C436 C 0.94791 0.91008 0.43955 0.0
C437 C 0.92707 0.89573 0.41851 0.0
C438 C 0.86432 0.89424 0.37079 0.0
C439 C 0.83074 0.84323 0.30528 0.0
C440 C 0.85121 0.86108 0.3269 0.0
C441 C 0.91022 0.90632 0.39823 0.0
C442 C 0.88982 0.89121 0.37333 0.0
H443 H 0.82573 0.80593 0.23273 0.0
H444 H 0.85456 0.84248 0.26091 0.0
H445 H 0.82548 0.88157 0.34679 0.0
H446 H 0.93764 0.96525 0.4219 0.0
H447 H 0.90129 0.94007 0.38503 0.0
C448 C 0.19397 0.8164 0.35307 0.0
C449 C 0.19418 0.81219 0.31649 0.0
C450 C 0.1812 0.83287 0.36632 0.0
C451 C 0.12909 0.8625 0.34202 0.0
H452 H 0.15509 0.89995 0.42898 0.0
C453 C 0.06231 0.9015 0.42559 0.0
C454 C 0.07178 0.92466 0.44166 0.0
C455 C 0.07894 0.89025 0.40878 0.0
C456 C 0.14773 0.88989 0.40442 0.0
H457 H 0.18164 0.82244 0.26505 0.0
H458 H 0.15961 0.85163 0.28823 0.0
H459 H 0.18189 0.87678 0.40142 0.0
H460 H 0.10632 0.95403 0.45324 0.0
H461 H 0.1356 0.93428 0.42348 0.0
H462 H 0.09505 0.87575 0.34484 0.0
C463 C 0.16902 0.84184 0.30667 0.0
C464 C 0.16294 0.87637 0.38883 0.0
C465 C 0.18173 0.82521 0.29337 0.0
C466 C 0.09845 0.93621 0.44099 0.0
C467 C 0.11519 0.92488 0.42407 0.0
C468 C 0.11397 0.8761 0.3575 0.0
C469 C 0.16844 0.84571 0.34334 0.0
C470 C 0.15357 0.86211 0.35785 0.0
C471 C 0.10552 0.90185 0.4075 0.0
C472 C 0.12285 0.88952 0.38929 0.0
H473 H 0.20329 0.80664 0.37167 0.0
H474 H 0.18075 0.83501 0.39467 0.0
H475 H 0.12114 0.8516 0.31835 0.0
H476 H 0.04192 0.89194 0.42579 0.0
H477 H 0.07096 0.87228 0.39706 0.0
C478 C 0.16784 0.7904 0.63715 0.0
C479 C 0.19247 0.80053 0.65448 0.0
C480 C 0.15245 0.80517 0.62399 0.0
C481 C 0.15753 0.86785 0.59699 0.0
H482 H 0.08231 0.84997 0.60141 0.0
C483 C 0.09469 0.93487 0.57323 0.0
C484 C 0.07039 0.92688 0.55413 0.0
C485 C 0.10943 0.91868 0.5824 0.0
C486 C 0.10326 0.85502 0.59951 0.0
H487 H 0.21984 0.83415 0.67261 0.0
H488 H 0.19274 0.85991 0.65042 0.0
H489 H 0.10799 0.8235 0.62559 0.0
H490 H 0.04291 0.89564 0.52867 0.0
H491 H 0.06881 0.86716 0.54495 0.0
H492 H 0.15282 0.89958 0.57155 0.0
C493 C 0.18558 0.84054 0.6462 0.0
C494 C 0.118 0.83988 0.61343 0.0
C495 C 0.20105 0.82577 0.65919 0.0
C496 C 0.06148 0.90234 0.54355 0.0
C497 C 0.07623 0.88603 0.55301 0.0
C498 C 0.14282 0.883 0.58326 0.0
C499 C 0.16124 0.83044 0.62799 0.0
C500 C 0.14537 0.84623 0.61265 0.0
C501 C 0.10027 0.89404 0.5728 0.0
C502 C 0.11555 0.87689 0.58469 0.0
H503 H 0.16066 0.77103 0.63295 0.0
H504 H 0.13396 0.79676 0.60982 0.0
H505 H 0.17847 0.87306 0.59514 0.0
H506 H 0.10225 0.95366 0.58169 0.0
H507 H 0.12772 0.92541 0.59795 0.0
C508 C 0.20189 0.1742 0.70062 0.0
C509 C 0.19539 0.19142 0.72291 0.0
C510 C 0.18244 0.15525 0.68468 0.0
C511 C 0.11627 0.1441 0.65046 0.0
H512 H 0.1159 0.07631 0.64525 0.0
C513 C 0.03137 0.07511 0.57843 0.0
C514 C 0.03692 0.05605 0.55935 0.0
C515 C 0.05057 0.09002 0.60109 0.0
C516 C 0.11592 0.09523 0.64608 0.0
H517 H 0.16357 0.20161 0.74744 0.0
H518 H 0.12958 0.16863 0.71906 0.0
H519 H 0.15018 0.1048 0.68163 0.0
H520 H 0.06637 0.0373 0.54822 0.0
H521 H 0.10074 0.06441 0.58625 0.0
H522 H 0.08308 0.13521 0.61385 0.0
C523 C 0.14976 0.16992 0.71401 0.0
C524 C 0.13539 0.11141 0.66708 0.0
C525 C 0.16919 0.18877 0.73012 0.0
C526 C 0.06185 0.05199 0.56297 0.0
C527 C 0.08136 0.06735 0.58492 0.0
C528 C 0.09716 0.1281 0.62906 0.0
C529 C 0.15622 0.15339 0.69059 0.0
C530 C 0.1355 0.1359 0.66956 0.0
C531 C 0.07591 0.08658 0.6042 0.0
C532 C 0.0966 0.10344 0.6268 0.0
H533 H 0.22182 0.17588 0.69421 0.0
H534 H 0.18778 0.14281 0.66636 0.0
H535 H 0.11638 0.16305 0.65141 0.0
H536 H 0.01204 0.07818 0.57637 0.0
H537 H 0.04546 0.10419 0.61626 0.0
C538 C 0.81964 0.17149 0.70881 0.0
C539 C 0.80637 0.18481 0.68729 0.0
C540 C 0.83288 0.15587 0.69358 0.0
C541 C 0.86386 0.14729 0.61199 0.0
H542 H 0.86003 0.08244 0.64279 0.0
C543 C 0.93372 0.09354 0.56594 0.0
C544 C 0.92352 0.06914 0.55521 0.0
C545 C 0.91845 0.10637 0.5825 0.0
C546 C 0.86106 0.10045 0.63377 0.0
H547 H 0.79616 0.19173 0.63296 0.0
H548 H 0.81907 0.16477 0.60681 0.0
H549 H 0.83534 0.10735 0.67209 0.0
H550 H 0.88912 0.03907 0.5535 0.0
H551 H 0.86207 0.06182 0.58268 0.0
H552 H 0.88934 0.14059 0.57368 0.0
C553 C 0.81952 0.16649 0.63533 0.0
C554 C 0.84722 0.11477 0.65078 0.0
C555 C 0.80627 0.18189 0.65042 0.0
C556 C 0.8975 0.05785 0.56141 0.0
C557 C 0.88212 0.07079 0.57829 0.0
C558 C 0.87772 0.13311 0.5952 0.0
C559 C 0.83321 0.1535 0.65665 0.0
C560 C 0.84841 0.13831 0.6399 0.0
C561 C 0.89249 0.09524 0.58883 0.0
C562 C 0.87655 0.10956 0.60592 0.0
H563 H 0.82004 0.17332 0.7373 0.0
H564 H 0.8434 0.14615 0.71064 0.0
H565 H 0.8654 0.16544 0.60323 0.0
H566 H 0.95368 0.1029 0.56167 0.0
H567 H 0.92712 0.12506 0.5907 0.0
C568 C 0.82729 0.79301 0.70131 0.0
C569 C 0.80347 0.79661 0.71181 0.0
C570 C 0.84509 0.81115 0.68453 0.0
C571 C 0.85066 0.86864 0.63589 0.0
H572 H 0.9247 0.87624 0.65601 0.0
C573 C 0.93088 0.93426 0.55872 0.0
C574 C 0.95489 0.94522 0.57729 0.0
C575 C 0.91149 0.91692 0.57469 0.0
C576 C 0.90412 0.87467 0.65018 0.0
H577 H 0.78019 0.82273 0.71263 0.0
H578 H 0.8111 0.85422 0.68384 0.0
H579 H 0.89355 0.84529 0.68484 0.0
H580 H 0.97649 0.94713 0.62798 0.0
H581 H 0.9429 0.9179 0.65575 0.0
H582 H 0.86138 0.89848 0.60175 0.0
C583 C 0.81594 0.8372 0.68812 0.0
C584 C 0.88611 0.85651 0.66648 0.0
C585 C 0.79817 0.81907 0.70499 0.0
C586 C 0.95842 0.93903 0.61261 0.0
C587 C 0.93911 0.92194 0.62853 0.0
C588 C 0.86873 0.88687 0.61953 0.0
C589 C 0.83976 0.8336 0.67755 0.0
C590 C 0.85901 0.85313 0.65974 0.0
C591 C 0.91551 0.91008 0.60972 0.0
C592 C 0.89584 0.89033 0.62653 0.0
H593 H 0.8322 0.77604 0.70583 0.0
H594 H 0.86293 0.80735 0.67652 0.0
H595 H 0.83006 0.86658 0.6295 0.0
H596 H 0.9275 0.9383 0.53138 0.0
H597 H 0.89374 0.90823 0.55907 0.0
C598 C 0.29642 0.16711 0.17066 0.0
C599 C 0.3122 0.18979 0.18292 0.0
C600 C 0.30729 0.15049 0.15312 0.0
C601 C 0.37064 0.136 0.14655 0.0
H602 H 0.34119 0.10077 0.05907 0.0
C603 C 0.43343 0.09559 0.05964 0.0
C604 C 0.42376 0.07197 0.04524 0.0
C605 C 0.41711 0.10749 0.07587 0.0
C606 C 0.34941 0.11021 0.08378 0.0
H607 H 0.35155 0.21304 0.18507 0.0
H608 H 0.37022 0.18439 0.1547 0.0
H609 H 0.31725 0.12634 0.08855 0.0
H610 H 0.3889 0.04267 0.03543 0.0
H611 H 0.36007 0.06374 0.06417 0.0
H612 H 0.40287 0.1204 0.14184 0.0
C613 C 0.34959 0.17919 0.15904 0.0
C614 C 0.33575 0.12484 0.10061 0.0
C615 C 0.3388 0.19571 0.17632 0.0
C616 C 0.39699 0.0608 0.04648 0.0
C617 C 0.38049 0.07287 0.0628 0.0
C618 C 0.38418 0.12146 0.12988 0.0
C619 C 0.33414 0.15623 0.14781 0.0
C620 C 0.34664 0.13844 0.13166 0.0
C621 C 0.39057 0.09619 0.07829 0.0
C622 C 0.37414 0.10895 0.09778 0.0
H623 H 0.27585 0.16199 0.17533 0.0
H624 H 0.2949 0.13293 0.14473 0.0
H625 H 0.37926 0.14572 0.17092 0.0
H626 H 0.45384 0.10496 0.05885 0.0
H627 H 0.4254 0.12565 0.08674 0.0
C628 C 0.81794 0.32183 0.18291 0.0
C629 C 0.80898 0.3271 0.21554 0.0
C630 C 0.83887 0.33811 0.16914 0.0
C631 C 0.89663 0.3748 0.17114 0.0
H632 H 0.87957 0.43165 0.13295 0.0
C633 C 0.97532 0.45414 0.12379 0.0
C634 C 0.96951 0.46263 0.09065 0.0
C635 C 0.95583 0.43855 0.14121 0.0
C636 C 0.88459 0.41586 0.14345 0.0
H637 H 0.81551 0.35276 0.26016 0.0
H638 H 0.85214 0.38134 0.23568 0.0
H639 H 0.84581 0.40082 0.1589 0.0
H640 H 0.93844 0.46209 0.0504 0.0
H641 H 0.90472 0.43487 0.08066 0.0
H642 H 0.93535 0.38959 0.15558 0.0
C643 C 0.84274 0.3647 0.22093 0.0
C644 C 0.86537 0.39838 0.15831 0.0
C645 C 0.82185 0.34844 0.23475 0.0
C646 C 0.94361 0.45609 0.07605 0.0
C647 C 0.92421 0.44046 0.09338 0.0
C648 C 0.91596 0.39237 0.15651 0.0
C649 C 0.85104 0.35972 0.18791 0.0
C650 C 0.87135 0.37783 0.17215 0.0
C651 C 0.93025 0.43118 0.12576 0.0
C652 C 0.91008 0.41305 0.1425 0.0
H653 H 0.80826 0.30555 0.1675 0.0
H654 H 0.84506 0.33421 0.14343 0.0
H655 H 0.9014 0.35893 0.18177 0.0
H656 H 0.99507 0.45885 0.13573 0.0
H657 H 0.96086 0.43191 0.16646 0.0
C658 C 0.65849 0.7928 0.15593 0.0
C659 C 0.6812 0.80083 0.17843 0.0
C660 C 0.64817 0.80927 0.13696 0.0
C661 C 0.64597 0.87242 0.14318 0.0
H662 H 0.61354 0.86014 0.04806 0.0
C663 C 0.59767 0.94086 0.07919 0.0
C664 C 0.57301 0.93163 0.06156 0.0
C665 C 0.61348 0.92559 0.08839 0.0
C666 C 0.62236 0.86373 0.07472 0.0
H667 H 0.71157 0.83233 0.19739 0.0
H668 H 0.69357 0.86103 0.16422 0.0
H669 H 0.63691 0.83204 0.07333 0.0
H670 H 0.54622 0.89934 0.03786 0.0
H671 H 0.5736 0.87241 0.05486 0.0
H672 H 0.63087 0.90354 0.1453 0.0
C673 C 0.68361 0.84202 0.16155 0.0
C674 C 0.63579 0.84769 0.08913 0.0
C675 C 0.69398 0.82555 0.18041 0.0
C676 C 0.56503 0.90694 0.05176 0.0
C677 C 0.58081 0.89155 0.06128 0.0
C678 C 0.63248 0.88832 0.1289 0.0
C679 C 0.66029 0.83411 0.14021 0.0
C680 C 0.64759 0.85181 0.12362 0.0
C681 C 0.60494 0.90064 0.08052 0.0
C682 C 0.62037 0.88414 0.09458 0.0
H683 H 0.6482 0.77386 0.15373 0.0
H684 H 0.63008 0.80263 0.12097 0.0
H685 H 0.65437 0.87585 0.17007 0.0
H686 H 0.60468 0.9599 0.08647 0.0
H687 H 0.63225 0.93331 0.10231 0.0
C688 C 0.20607 0.6877 0.17633 0.0
C689 C 0.20565 0.71215 0.17752 0.0
C690 C 0.18933 0.67128 0.15244 0.0
C691 C 0.12593 0.66285 0.10364 0.0
H692 H 0.14322 0.60668 0.06254 0.0
C693 C 0.04986 0.59124 0.0199 0.0
C694 C 0.04728 0.56724 0.02965 0.0
C695 C 0.07141 0.6095 0.0325 0.0
C696 C 0.13815 0.62227 0.07393 0.0
H697 H 0.18842 0.73882 0.15308 0.0
H698 H 0.15926 0.7101 0.11096 0.0
H699 H 0.17757 0.63859 0.09308 0.0
H700 H 0.066 0.54344 0.05895 0.0
H701 H 0.10375 0.57557 0.08122 0.0
H702 H 0.08652 0.64645 0.08499 0.0
C703 C 0.17223 0.70358 0.12908 0.0
C704 C 0.15777 0.64052 0.09139 0.0
C705 C 0.18898 0.72005 0.1531 0.0
C706 C 0.06733 0.56177 0.05114 0.0
C707 C 0.08902 0.58012 0.06368 0.0
C708 C 0.1064 0.64472 0.08603 0.0
C709 C 0.1718 0.67891 0.12905 0.0
C710 C 0.15178 0.66084 0.10696 0.0
C711 C 0.09095 0.60423 0.05506 0.0
C712 C 0.11223 0.62409 0.07145 0.0
H713 H 0.21879 0.68101 0.19463 0.0
H714 H 0.18935 0.6524 0.15344 0.0
H715 H 0.1205 0.67798 0.11589 0.0
H716 H 0.03495 0.5961 0.00307 0.0
H717 H 0.07259 0.62787 0.025 0.0
C718 C 0.29077 0.817 0.79125 0.0
C719 C 0.296 0.79418 0.79046 0.0
C720 C 0.30697 0.83602 0.81244 0.0
C721 C 0.35841 0.84628 0.88713 0.0
H722 H 0.37609 0.9122 0.85702 0.0
C723 C 0.43791 0.91793 0.9666 0.0
C724 C 0.45401 0.93584 0.94767 0.0
C725 C 0.41489 0.90316 0.95036 0.0
C726 C 0.37166 0.89383 0.86571 0.0
H727 H 0.32307 0.77373 0.80872 0.0
H728 H 0.3516 0.80655 0.8438 0.0
H729 H 0.34373 0.8815 0.8219 0.0
H730 H 0.45889 0.95266 0.89723 0.0
H731 H 0.42008 0.92575 0.86787 0.0
H732 H 0.38759 0.85771 0.92902 0.0
C733 C 0.33442 0.80982 0.83012 0.0
C734 C 0.35266 0.87626 0.84579 0.0
C735 C 0.31811 0.79093 0.80974 0.0
C736 C 0.44669 0.93893 0.91235 0.0
C737 C 0.42418 0.92362 0.89569 0.0
C738 C 0.37777 0.8636 0.90645 0.0
C739 C 0.32885 0.8325 0.83254 0.0
C740 C 0.34635 0.85208 0.85572 0.0
C741 C 0.40798 0.90532 0.91433 0.0
C742 C 0.38517 0.88759 0.89569 0.0
H743 H 0.27388 0.81992 0.77636 0.0
H744 H 0.30208 0.85325 0.81355 0.0
H745 H 0.35349 0.82805 0.89641 0.0
H746 H 0.44296 0.91554 0.99411 0.0
H747 H 0.40269 0.88996 0.96617 0.0
C748 C 0.17358 0.2994 0.84194 0.0
C749 C 0.19943 0.31036 0.83458 0.0
C750 C 0.15921 0.31229 0.86075 0.0
C751 C 0.15774 0.37522 0.88101 0.0
H752 H 0.10622 0.34609 0.946 0.0
C753 C 0.09866 0.43098 0.95352 0.0
C754 C 0.07186 0.42022 0.95475 0.0
C755 C 0.11547 0.41741 0.94241 0.0
C756 C 0.12044 0.35444 0.92773 0.0
H757 H 0.23105 0.34278 0.84303 0.0
H758 H 0.20632 0.36495 0.87653 0.0
H759 H 0.13334 0.32218 0.92076 0.0
H760 H 0.04175 0.3867 0.94583 0.0
H761 H 0.07088 0.36329 0.92586 0.0
H762 H 0.14466 0.40732 0.88748 0.0
C763 C 0.19681 0.34672 0.86691 0.0
C764 C 0.13596 0.34073 0.91328 0.0
C765 C 0.21104 0.33396 0.84787 0.0
C766 C 0.06229 0.39559 0.94508 0.0
C767 C 0.07904 0.38207 0.93394 0.0
C768 C 0.14227 0.38889 0.89545 0.0
C769 C 0.17053 0.33629 0.87279 0.0
C770 C 0.15469 0.35094 0.88956 0.0
C771 C 0.1058 0.39283 0.93229 0.0
C772 C 0.12328 0.37862 0.91874 0.0
H773 H 0.16409 0.28126 0.83192 0.0
H774 H 0.13895 0.30377 0.86458 0.0
H775 H 0.17161 0.38355 0.86231 0.0
H776 H 0.1067 0.44984 0.96124 0.0
H777 H 0.13606 0.42616 0.94189 0.0
C778 C 0.70259 0.18283 0.84 0.0
C779 C 0.69159 0.20222 0.84688 0.0
C780 C 0.69283 0.16061 0.85506 0.0
C781 C 0.65 0.1294 0.92173 0.0
H782 H 0.61993 0.08224 0.84589 0.0
C783 C 0.54907 0.05594 0.8935 0.0
C784 C 0.54755 0.04314 0.9247 0.0
C785 C 0.57291 0.07069 0.88471 0.0
C786 C 0.62854 0.09507 0.86737 0.0
H787 H 0.66377 0.21452 0.87727 0.0
H788 H 0.64702 0.17588 0.90395 0.0
H789 H 0.65333 0.11856 0.83358 0.0
H790 H 0.57016 0.03472 0.97018 0.0
H791 H 0.61146 0.06068 0.95487 0.0
H792 H 0.62403 0.10666 0.95505 0.0
C793 C 0.66299 0.17772 0.88683 0.0
C794 C 0.64779 0.11569 0.86047 0.0
C795 C 0.67239 0.19975 0.87135 0.0
C796 C 0.57056 0.04434 0.9459 0.0
C797 C 0.59427 0.05923 0.93729 0.0
C798 C 0.63095 0.10867 0.92872 0.0
C799 C 0.67238 0.15772 0.8777 0.0
C800 C 0.65782 0.13349 0.88726 0.0
C801 C 0.5955 0.07298 0.90712 0.0
C802 C 0.61932 0.09186 0.90124 0.0
H803 H 0.71746 0.18433 0.82121 0.0
H804 H 0.70035 0.14539 0.84773 0.0
H805 H 0.6575 0.14292 0.94276 0.0
H806 H 0.53173 0.05537 0.87664 0.0
H807 H 0.57335 0.08136 0.86145 0.0
C808 C 0.8384 0.70416 0.83877 0.0
C809 C 0.81137 0.69766 0.84244 0.0
C810 C 0.85464 0.69196 0.85683 0.0
C811 C 0.85502 0.64551 0.92532 0.0
H812 H 0.90864 0.63129 0.8696 0.0
C813 C 0.89707 0.56126 0.93545 0.0
C814 C 0.92439 0.56615 0.93944 0.0
C815 C 0.88498 0.58 0.92955 0.0
C816 C 0.89391 0.63534 0.88558 0.0
H817 H 0.78037 0.67405 0.86926 0.0
H818 H 0.80821 0.65225 0.89931 0.0
H819 H 0.88495 0.66005 0.84869 0.0
H820 H 0.96047 0.59444 0.94122 0.0
H821 H 0.93927 0.62698 0.92943 0.0
H822 H 0.86314 0.61932 0.96095 0.0
C823 C 0.81723 0.66712 0.88338 0.0
C824 C 0.88043 0.65199 0.87381 0.0
C825 C 0.80113 0.67958 0.86586 0.0
C826 C 0.93936 0.59013 0.93808 0.0
C827 C 0.92731 0.60874 0.93139 0.0
C828 C 0.86817 0.62845 0.93667 0.0
C829 C 0.84413 0.67269 0.87844 0.0
C830 C 0.86049 0.65707 0.89322 0.0
C831 C 0.90006 0.60379 0.92682 0.0
C832 C 0.88747 0.62306 0.91663 0.0
H833 H 0.84691 0.71819 0.82115 0.0
H834 H 0.87533 0.69725 0.85304 0.0
H835 H 0.84028 0.6493 0.94146 0.0
H836 H 0.88508 0.54298 0.93679 0.0
H837 H 0.86391 0.57582 0.92592 0.0
C838 C 0.18562 0.30341 0.12917 0.0
C839 C 0.17977 0.29414 0.16257 0.0
C840 C 0.17099 0.31793 0.11308 0.0
C841 C 0.13404 0.36037 0.1388 0.0
H842 H 0.11144 0.35878 0.03955 0.0
C843 C 0.10076 0.43913 0.07763 0.0
C844 C 0.0766 0.43297 0.05797 0.0
C845 C 0.11334 0.42133 0.08721 0.0
C846 C 0.11762 0.35936 0.06733 0.0
H847 H 0.15283 0.29149 0.20407 0.0
H848 H 0.1275 0.31678 0.17603 0.0
H849 H 0.13168 0.32749 0.06212 0.0
H850 H 0.0472 0.40327 0.03186 0.0
H851 H 0.06949 0.37226 0.04812 0.0
H852 H 0.12027 0.39219 0.14418 0.0
C853 C 0.14357 0.31307 0.16252 0.0
C854 C 0.12927 0.34157 0.08017 0.0
C855 C 0.15803 0.29847 0.17848 0.0
C856 C 0.06579 0.40868 0.04699 0.0
C857 C 0.07858 0.3909 0.05618 0.0
C858 C 0.12274 0.37824 0.12594 0.0
C859 C 0.15038 0.32354 0.13019 0.0
C860 C 0.13748 0.34187 0.1161 0.0
C861 C 0.10219 0.39699 0.07705 0.0
C862 C 0.11443 0.37796 0.0901 0.0
H863 H 0.20218 0.30037 0.11614 0.0
H864 H 0.1767 0.32579 0.08816 0.0
H865 H 0.1405 0.36128 0.16651 0.0
H866 H 0.10973 0.45766 0.08638 0.0
H867 H 0.1317 0.42657 0.10295 0.0
C868 C 0.20778 0.63787 0.80822 0.0
C869 C 0.20692 0.66124 0.79892 0.0
C870 C 0.18583 0.62197 0.82021 0.0
C871 C 0.13323 0.58716 0.82359 0.0
H872 H 0.08678 0.61002 0.88305 0.0
C873 C 0.05343 0.52784 0.90409 0.0
C874 C 0.0289 0.53294 0.90085 0.0
C875 C 0.07444 0.5421 0.88772 0.0
C876 C 0.09951 0.60352 0.86614 0.0
H877 H 0.18261 0.68644 0.79485 0.0
H878 H 0.14395 0.65842 0.81475 0.0
H879 H 0.12581 0.63844 0.86475 0.0
H880 H 0.00673 0.55627 0.87712 0.0
H881 H 0.04374 0.58149 0.84896 0.0
H882 H 0.10723 0.55199 0.82644 0.0
C883 C 0.16173 0.65252 0.81364 0.0
C884 C 0.12179 0.61974 0.85559 0.0
C885 C 0.18382 0.66855 0.8021 0.0
C886 C 0.02537 0.55178 0.87965 0.0
C887 C 0.04651 0.56632 0.86386 0.0
C888 C 0.11116 0.57087 0.83465 0.0
C889 C 0.16246 0.629 0.82264 0.0
C890 C 0.13887 0.61176 0.8341 0.0
C891 C 0.07126 0.56188 0.86849 0.0
C892 C 0.09413 0.579 0.85582 0.0
H893 H 0.22544 0.63185 0.80631 0.0
H894 H 0.18724 0.60418 0.82768 0.0
H895 H 0.14572 0.58048 0.80654 0.0
H896 H 0.05661 0.51344 0.92043 0.0
H897 H 0.09347 0.53849 0.89168 0.0
C898 C 0.30745 0.17714 0.82384 0.0
C899 C 0.32069 0.20177 0.82497 0.0
C900 C 0.31808 0.16051 0.84185 0.0
C901 C 0.36675 0.15325 0.91136 0.0
H902 H 0.37102 0.09868 0.8518 0.0
C903 C 0.43511 0.09131 0.94685 0.0
C904 C 0.42711 0.06697 0.93507 0.0
C905 C 0.41999 0.10733 0.93762 0.0
C906 C 0.36959 0.11349 0.86917 0.0
H907 H 0.35471 0.22842 0.84772 0.0
H908 H 0.37317 0.19929 0.87956 0.0
H909 H 0.34788 0.12728 0.82918 0.0
H910 H 0.39604 0.03997 0.90657 0.0
H911 H 0.36949 0.06755 0.8914 0.0
H912 H 0.38847 0.13936 0.95145 0.0
C913 C 0.3546 0.19291 0.86455 0.0
C914 C 0.35635 0.12995 0.85608 0.0
C915 C 0.34409 0.20957 0.84619 0.0
C916 C 0.40306 0.05872 0.91552 0.0
C917 C 0.38786 0.0746 0.90663 0.0
C918 C 0.37981 0.13658 0.92467 0.0
C919 C 0.34207 0.16814 0.86172 0.0
C920 C 0.35493 0.1501 0.8769 0.0
C921 C 0.39643 0.09926 0.9167 0.0
C922 C 0.38155 0.11656 0.90362 0.0
H923 H 0.28936 0.17048 0.80783 0.0
H924 H 0.30784 0.14156 0.83954 0.0
H925 H 0.3658 0.16855 0.92805 0.0
H926 H 0.45346 0.09819 0.96221 0.0
H927 H 0.42729 0.12619 0.94575 0.0
C928 C 0.78501 0.30465 0.83533 0.0
C929 C 0.79194 0.28326 0.82657 0.0
C930 C 0.8007 0.32172 0.85933 0.0
C931 C 0.86109 0.33357 0.92097 0.0
H932 H 0.86353 0.3998 0.89903 0.0
C933 C 0.94062 0.41269 0.98739 0.0
C934 C 0.95108 0.43171 0.96557 0.0
C935 C 0.91777 0.39526 0.9763 0.0
C936 C 0.86337 0.38143 0.90535 0.0
H937 H 0.82091 0.26302 0.83598 0.0
H938 H 0.84956 0.29369 0.87545 0.0
H939 H 0.83115 0.36748 0.86843 0.0
H940 H 0.94591 0.44778 0.91549 0.0
H941 H 0.90714 0.41687 0.89516 0.0
H942 H 0.89503 0.34766 0.95546 0.0
C943 C 0.83123 0.29682 0.86548 0.0
C944 C 0.84427 0.36271 0.88824 0.0
C945 C 0.81492 0.27925 0.84247 0.0
C946 C 0.93812 0.43334 0.93287 0.0
C947 C 0.91569 0.41566 0.92141 0.0
C948 C 0.88069 0.35232 0.9374 0.0
C949 C 0.82452 0.3185 0.87389 0.0
C950 C 0.84313 0.33843 0.8952 0.0
C951 C 0.90528 0.39623 0.94281 0.0
C952 C 0.88249 0.37649 0.92911 0.0
H953 H 0.76758 0.30845 0.82325 0.0
H954 H 0.79427 0.3377 0.86577 0.0
H955 H 0.8605 0.31522 0.92792 0.0
H956 H 0.95009 0.4113 0.01304 0.0
H957 H 0.91008 0.38096 0.99389 0.0
C958 C 0.67739 0.7992 0.8629 0.0
C959 C 0.69439 0.8057 0.83568 0.0
C960 C 0.66716 0.81643 0.87973 0.0
C961 C 0.64848 0.87222 0.86229 0.0
H962 H 0.64064 0.87518 0.96316 0.0
C963 C 0.56971 0.9099 0.92408 0.0
C964 C 0.5773 0.92634 0.9531 0.0
C965 C 0.58721 0.89798 0.91065 0.0
C966 C 0.64294 0.87474 0.93501 0.0
H967 H 0.71439 0.83559 0.8053 0.0
H968 H 0.69612 0.86563 0.83437 0.0
H969 H 0.6662 0.84909 0.93905 0.0
H970 H 0.60906 0.94295 0.99128 0.0
H971 H 0.63968 0.92134 0.96831 0.0
H972 H 0.62439 0.89709 0.85806 0.0
C973 C 0.69089 0.84718 0.8428 0.0
C974 C 0.65739 0.8597 0.92119 0.0
C975 C 0.70149 0.83001 0.82633 0.0
C976 C 0.60282 0.93056 0.96862 0.0
C977 C 0.62023 0.91812 0.95565 0.0
C978 C 0.6337 0.88692 0.87603 0.0
C979 C 0.67334 0.84051 0.86937 0.0
C980 C 0.66007 0.85806 0.88461 0.0
C981 C 0.61259 0.90178 0.92639 0.0
C982 C 0.63049 0.88811 0.91247 0.0
H983 H 0.67151 0.78064 0.87071 0.0
H984 H 0.65352 0.81067 0.89987 0.0
H985 H 0.64997 0.8712 0.83399 0.0
H986 H 0.55017 0.90629 0.9116 0.0
H987 H 0.58068 0.88532 0.88835 0.0
C988 C 0.78517 0.65215 0.16376 0.0
C989 C 0.79416 0.67723 0.17015 0.0
C990 C 0.79915 0.63969 0.14366 0.0
C991 C 0.85286 0.64736 0.08256 0.0
H992 H 0.85917 0.58652 0.1201 0.0
C993 C 0.93177 0.59979 0.04339 0.0
C994 C 0.92463 0.57446 0.03927 0.0
C995 C 0.91429 0.61216 0.05576 0.0
C996 C 0.85732 0.60329 0.10893 0.0
H997 H 0.82437 0.70905 0.15923 0.0
H998 H 0.84909 0.68724 0.1247 0.0
H999 H 0.83151 0.60857 0.14768 0.0
H1000 H 0.89318 0.54232 0.04381 0.0
H1001 H 0.86265 0.56394 0.06559 0.0
H1002 H 0.87928 0.64217 0.04426 0.0
C1003 C 0.831 0.67721 0.13478 0.0
C1004 C 0.8414 0.61596 0.12472 0.0
C1005 C 0.81685 0.68974 0.15466 0.0
C1006 C 0.89938 0.56181 0.04702 0.0
C1007 C 0.88192 0.57419 0.05959 0.0
C1008 C 0.8689 0.63469 0.06682 0.0
C1009 C 0.82264 0.65193 0.12973 0.0
C1010 C 0.83898 0.63819 0.11183 0.0
C1011 C 0.88927 0.59949 0.06444 0.0
C1012 C 0.87138 0.61254 0.07994 0.0
H1013 H 0.76762 0.642 0.17502 0.0
H1014 H 0.79176 0.62032 0.1396 0.0
H1015 H 0.85124 0.66427 0.07166 0.0
H1016 H 0.951 0.61013 0.03735 0.0
H1017 H 0.92065 0.63162 0.05947 0.0
C1018 C 0.33136 0.78602 0.13623 0.0
C1019 C 0.31183 0.78615 0.15948 0.0
C1020 C 0.34439 0.80731 0.12135 0.0
C1021 C 0.34733 0.87174 0.10876 0.0
H1022 H 0.42163 0.87795 0.12451 0.0
C1023 C 0.43017 0.94651 0.05503 0.0
C1024 C 0.45372 0.95357 0.07612 0.0
C1025 C 0.40914 0.92897 0.06636 0.0
C1026 C 0.40095 0.87667 0.12035 0.0
H1027 H 0.2889 0.80802 0.18309 0.0
H1028 H 0.31228 0.84561 0.15764 0.0
H1029 H 0.39105 0.84055 0.13748 0.0
H1030 H 0.47265 0.95005 0.12719 0.0
H1031 H 0.43577 0.91991 0.14726 0.0
H1032 H 0.35766 0.90828 0.09182 0.0
C1033 C 0.31728 0.82897 0.15064 0.0
C1034 C 0.38342 0.85505 0.12717 0.0
C1035 C 0.30397 0.80751 0.16526 0.0
C1036 C 0.45492 0.94465 0.11012 0.0
C1037 C 0.43385 0.92735 0.12155 0.0
C1038 C 0.36503 0.89351 0.10171 0.0
C1039 C 0.33841 0.8292 0.12989 0.0
C1040 C 0.35646 0.85226 0.1213 0.0
C1041 C 0.4113 0.91845 0.09906 0.0
C1042 C 0.39201 0.89615 0.10766 0.0
H1043 H 0.33746 0.76967 0.13088 0.0
H1044 H 0.36017 0.80689 0.10469 0.0
H1045 H 0.32661 0.87003 0.1041 0.0
H1046 H 0.42859 0.95314 0.02871 0.0
H1047 H 0.392 0.92242 0.04847 0.0
C1048 C 0.70761 0.1972 0.1669 0.0
C1049 C 0.71023 0.19729 0.20396 0.0
C1050 C 0.68999 0.17833 0.14782 0.0
C1051 C 0.64861 0.11639 0.14966 0.0
H1052 H 0.60222 0.14066 0.08591 0.0
C1053 C 0.55257 0.05486 0.08423 0.0
C1054 C 0.54394 0.06044 0.05055 0.0
C1055 C 0.57441 0.07022 0.10238 0.0
C1056 C 0.61522 0.13342 0.10297 0.0
H1057 H 0.69778 0.17667 0.2499 0.0
H1058 H 0.66685 0.14346 0.21625 0.0
H1059 H 0.63851 0.16879 0.11828 0.0
H1060 H 0.55205 0.0857 0.00859 0.0
H1061 H 0.59078 0.11198 0.03941 0.0
H1062 H 0.62548 0.08093 0.13395 0.0
C1063 C 0.6785 0.15814 0.20213 0.0
C1064 C 0.636 0.14963 0.1217 0.0
C1065 C 0.6962 0.17715 0.22136 0.0
C1066 C 0.55802 0.08123 0.03482 0.0
C1067 C 0.58016 0.09633 0.05263 0.0
C1068 C 0.62793 0.10006 0.13049 0.0
C1069 C 0.67457 0.15904 0.16528 0.0
C1070 C 0.65292 0.14133 0.14523 0.0
C1071 C 0.58841 0.09129 0.08695 0.0
C1072 C 0.61091 0.10839 0.1069 0.0
H1073 H 0.71838 0.21226 0.15261 0.0
H1074 H 0.68774 0.17925 0.11938 0.0
H1075 H 0.66143 0.10951 0.16755 0.0
H1076 H 0.542 0.03894 0.09699 0.0
H1077 H 0.57985 0.06585 0.12887 0.0
C1078 C 0.67417 0.6967 0.80332 0.0
C1079 C 0.69808 0.69302 0.7934 0.0
C1080 C 0.6561 0.67862 0.81975 0.0
C1081 C 0.64958 0.62122 0.86866 0.0
H1082 H 0.57579 0.61403 0.84675 0.0
C1083 C 0.56776 0.5567 0.94479 0.0
C1084 C 0.54407 0.54555 0.92559 0.0
C1085 C 0.58749 0.57386 0.92911 0.0
C1086 C 0.59629 0.6155 0.85309 0.0
H1087 H 0.72134 0.66684 0.79329 0.0
H1088 H 0.68984 0.63537 0.82144 0.0
H1089 H 0.60752 0.6447 0.8183 0.0
H1090 H 0.52341 0.54318 0.87411 0.0
H1091 H 0.55755 0.57218 0.84694 0.0
H1092 H 0.63817 0.59156 0.90299 0.0
C1093 C 0.68514 0.65243 0.81693 0.0
C1094 C 0.61464 0.63349 0.837 0.0
C1095 C 0.70322 0.67052 0.80041 0.0
C1096 C 0.5412 0.55141 0.88999 0.0
C1097 C 0.56083 0.56836 0.87438 0.0
C1098 C 0.63116 0.60317 0.88484 0.0
C1099 C 0.66123 0.65614 0.82693 0.0
C1100 C 0.64164 0.63671 0.8444 0.0
C1101 C 0.58412 0.58035 0.89377 0.0
C1102 C 0.60415 0.59989 0.87719 0.0
H1103 H 0.66937 0.71369 0.79859 0.0
H1104 H 0.6382 0.68251 0.82735 0.0
H1105 H 0.6701 0.62316 0.87554 0.0
H1106 H 0.57066 0.55291 0.97234 0.0
H1107 H 0.605 0.58266 0.94514 0.0
C1108 C 0.31898 0.66917 0.79405 0.0
C1109 C 0.32544 0.69388 0.80374 0.0
C1110 C 0.33298 0.65399 0.80959 0.0
C1111 C 0.39433 0.65237 0.85859 0.0
H1112 H 0.35204 0.59501 0.89861 0.0
C1113 C 0.44021 0.58979 0.94485 0.0
C1114 C 0.43036 0.56495 0.93688 0.0
C1115 C 0.42735 0.6064 0.93081 0.0
C1116 C 0.36416 0.61082 0.88734 0.0
H1117 H 0.35246 0.72236 0.83548 0.0
H1118 H 0.37731 0.69593 0.86192 0.0
H1119 H 0.33093 0.62184 0.86607 0.0
H1120 H 0.39861 0.538 0.90945 0.0
H1121 H 0.37657 0.56673 0.88491 0.0
H1122 H 0.4276 0.64113 0.87928 0.0
C1123 C 0.36131 0.68826 0.84266 0.0
C1124 C 0.35205 0.62614 0.86863 0.0
C1125 C 0.34706 0.70336 0.82759 0.0
C1126 C 0.40687 0.55702 0.91593 0.0
C1127 C 0.39407 0.57353 0.90203 0.0
C1128 C 0.40649 0.63691 0.87707 0.0
C1129 C 0.35393 0.66333 0.8346 0.0
C1130 C 0.367 0.64697 0.85387 0.0
C1131 C 0.40434 0.59844 0.90877 0.0
C1132 C 0.39153 0.61585 0.89144 0.0
H1133 H 0.3023 0.66135 0.77592 0.0
H1134 H 0.32707 0.63484 0.80265 0.0
H1135 H 0.40631 0.6683 0.84741 0.0
H1136 H 0.45818 0.59645 0.9611 0.0
H1137 H 0.43556 0.62546 0.93694 0.0
C1138 C 0.32541 0.30799 0.77184 0.0
C1139 C 0.30084 0.29927 0.78537 0.0
C1140 C 0.34391 0.32711 0.78922 0.0
C1141 C 0.38257 0.35056 0.84998 0.0
H1142 H 0.36905 0.40971 0.8866 0.0
C1143 C 0.45128 0.411 0.95607 0.0
C1144 C 0.45871 0.43574 0.94939 0.0
C1145 C 0.43076 0.39556 0.93585 0.0
C1146 C 0.37307 0.3933 0.8764 0.0
H1147 H 0.27607 0.30459 0.82684 0.0
H1148 H 0.30814 0.33825 0.85647 0.0
H1149 H 0.33554 0.38165 0.84831 0.0
H1150 H 0.44989 0.46385 0.91711 0.0
H1151 H 0.41414 0.43673 0.88161 0.0
H1152 H 0.41988 0.36191 0.87821 0.0
C1153 C 0.31303 0.33026 0.8325 0.0
C1154 C 0.35394 0.37729 0.85465 0.0
C1155 C 0.29467 0.31097 0.81543 0.0
C1156 C 0.44468 0.44485 0.92283 0.0
C1157 C 0.42413 0.42938 0.90262 0.0
C1158 C 0.40153 0.3664 0.87195 0.0
C1159 C 0.33803 0.33801 0.82012 0.0
C1160 C 0.35858 0.3558 0.84129 0.0
C1161 C 0.41728 0.40455 0.9086 0.0
C1162 C 0.39694 0.38787 0.88546 0.0
H1163 H 0.33073 0.2995 0.74861 0.0
H1164 H 0.36305 0.33298 0.77905 0.0
H1165 H 0.38643 0.33392 0.84041 0.0
H1166 H 0.4615 0.40348 0.97663 0.0
H1167 H 0.42554 0.37652 0.94136 0.0
C1168 C 0.67221 0.30944 0.8187 0.0
C1169 C 0.69531 0.30639 0.83565 0.0
C1170 C 0.6594 0.32571 0.83282 0.0
C1171 C 0.65564 0.35985 0.91639 0.0
H1172 H 0.61714 0.39353 0.85469 0.0
C1173 C 0.60377 0.43138 0.96664 0.0
C1174 C 0.57745 0.42655 0.95425 0.0
C1175 C 0.62026 0.41865 0.95197 0.0
C1176 C 0.62788 0.38427 0.87221 0.0
H1177 H 0.72359 0.31855 0.88004 0.0
H1178 H 0.7019 0.34749 0.90389 0.0
H1179 H 0.64195 0.36768 0.82916 0.0
H1180 H 0.54787 0.40522 0.91645 0.0
H1181 H 0.57664 0.38356 0.89055 0.0
H1182 H 0.64159 0.3768 0.9594 0.0
C1183 C 0.69308 0.33681 0.88038 0.0
C1184 C 0.64193 0.36928 0.85763 0.0
C1185 C 0.70564 0.3203 0.86656 0.0
C1186 C 0.56808 0.40929 0.92657 0.0
C1187 C 0.58456 0.39698 0.91157 0.0
C1188 C 0.64185 0.37513 0.93096 0.0
C1189 C 0.66963 0.33959 0.86394 0.0
C1190 C 0.65571 0.35656 0.87949 0.0
C1191 C 0.61074 0.40136 0.92425 0.0
C1192 C 0.62753 0.38718 0.90899 0.0
H1193 H 0.6637 0.29886 0.79496 0.0
H1194 H 0.64117 0.32699 0.81968 0.0
H1195 H 0.66559 0.35009 0.93416 0.0
H1196 H 0.61138 0.44446 0.98817 0.0
H1197 H 0.64041 0.42232 0.96218 0.0
C1198 C 0.6536 0.28772 0.1777 0.0
C1199 C 0.67716 0.2975 0.19785 0.0
C1200 C 0.63917 0.30283 0.16299 0.0
C1201 C 0.63054 0.36481 0.16929 0.0
H1202 H 0.60487 0.35248 0.0711 0.0
C1203 C 0.5958 0.43631 0.09159 0.0
C1204 C 0.57238 0.42876 0.07044 0.0
C1205 C 0.6081 0.41947 0.1056 0.0
C1206 C 0.61166 0.356 0.09863 0.0
H1207 H 0.70357 0.33077 0.21931 0.0
H1208 H 0.67849 0.35707 0.19361 0.0
H1209 H 0.62609 0.32432 0.10051 0.0
H1210 H 0.54429 0.39762 0.04568 0.0
H1211 H 0.56573 0.36803 0.0706 0.0
H1212 H 0.6163 0.39649 0.16751 0.0
C1213 C 0.67106 0.33772 0.18933 0.0
C1214 C 0.62376 0.33986 0.11551 0.0
C1215 C 0.6855 0.32264 0.20397 0.0
C1216 C 0.56225 0.404 0.06206 0.0
C1217 C 0.57456 0.38706 0.07625 0.0
C1218 C 0.61846 0.38089 0.15248 0.0
C1219 C 0.64794 0.32802 0.16824 0.0
C1220 C 0.63361 0.34425 0.15092 0.0
C1221 C 0.59725 0.39463 0.09894 0.0
C1222 C 0.60919 0.37686 0.11683 0.0
H1223 H 0.64657 0.26841 0.17257 0.0
H1224 H 0.62124 0.29479 0.1473 0.0
H1225 H 0.63748 0.36847 0.19676 0.0
H1226 H 0.6044 0.45528 0.09809 0.0
H1227 H 0.62596 0.42592 0.12216 0.0
C1228 C 0.6739 0.6852 0.2421 0.0
C1229 C 0.6981 0.69537 0.22865 0.0
C1230 C 0.65712 0.66469 0.22561 0.0
C1231 C 0.64983 0.6169 0.15503 0.0
H1232 H 0.5807 0.62769 0.14156 0.0
C1233 C 0.56031 0.54896 0.0832 0.0
C1234 C 0.54384 0.55889 0.06107 0.0
C1235 C 0.5811 0.56397 0.10364 0.0
C1236 C 0.59994 0.62449 0.14488 0.0
H1237 H 0.72453 0.69165 0.18883 0.0
H1238 H 0.6949 0.656 0.15926 0.0
H1239 H 0.61355 0.6551 0.18019 0.0
H1240 H 0.53702 0.59229 0.0418 0.0
H1241 H 0.57331 0.61844 0.07746 0.0
H1242 H 0.63603 0.58651 0.1186 0.0
C1243 C 0.68908 0.66347 0.183 0.0
C1244 C 0.61868 0.63996 0.16751 0.0
C1245 C 0.70607 0.68384 0.19991 0.0
C1246 C 0.54918 0.58408 0.05881 0.0
C1247 C 0.56989 0.59905 0.07933 0.0
C1248 C 0.63093 0.60129 0.13231 0.0
C1249 C 0.66399 0.65434 0.19483 0.0
C1250 C 0.64387 0.63645 0.17276 0.0
C1251 C 0.58573 0.58916 0.10245 0.0
C1252 C 0.6059 0.60516 0.12676 0.0
H1253 H 0.66752 0.69371 0.2645 0.0
H1254 H 0.63818 0.65767 0.23588 0.0
H1255 H 0.66907 0.61374 0.1586 0.0
H1256 H 0.55686 0.52959 0.08528 0.0
H1257 H 0.59295 0.55587 0.12131 0.0
C1258 C 0.29613 0.67681 0.13557 0.0
C1259 C 0.29844 0.68275 0.17196 0.0
C1260 C 0.30989 0.66133 0.12161 0.0
C1261 C 0.36752 0.6376 0.14223 0.0
H1262 H 0.33938 0.59475 0.06092 0.0
C1263 C 0.43339 0.59547 0.06127 0.0
C1264 C 0.42431 0.57122 0.04928 0.0
C1265 C 0.41669 0.60756 0.07621 0.0
C1266 C 0.34741 0.6064 0.08387 0.0
H1267 H 0.31642 0.67648 0.22238 0.0
H1268 H 0.33989 0.64889 0.19821 0.0
H1269 H 0.31216 0.61759 0.08835 0.0
H1270 H 0.39025 0.54084 0.04264 0.0
H1271 H 0.36088 0.56203 0.06925 0.0
H1272 H 0.40254 0.62609 0.13828 0.0
C1273 C 0.32793 0.65668 0.18028 0.0
C1274 C 0.33193 0.61975 0.09935 0.0
C1275 C 0.31436 0.67239 0.1942 0.0
C1276 C 0.39785 0.5595 0.05174 0.0
C1277 C 0.38103 0.57166 0.06686 0.0
C1278 C 0.3829 0.62418 0.12692 0.0
C1279 C 0.32612 0.65117 0.14372 0.0
C1280 C 0.3419 0.63575 0.12849 0.0
C1281 C 0.39041 0.59575 0.07975 0.0
C1282 C 0.37321 0.6087 0.09722 0.0
H1283 H 0.28415 0.68457 0.11762 0.0
H1284 H 0.30832 0.65788 0.09331 0.0
H1285 H 0.37604 0.6499 0.16432 0.0
H1286 H 0.45358 0.60521 0.05946 0.0
H1287 H 0.42444 0.62627 0.08499 0.0
C1288 C 0.3244 0.30024 0.20896 0.0
C1289 C 0.29764 0.29957 0.20636 0.0
C1290 C 0.34284 0.31884 0.19398 0.0
C1291 C 0.3518 0.36362 0.1243 0.0
H1292 H 0.41311 0.39725 0.18245 0.0
C1293 C 0.43161 0.4433 0.06996 0.0
C1294 C 0.45761 0.4467 0.08355 0.0
C1295 C 0.41094 0.42661 0.08487 0.0
C1296 C 0.3965 0.38787 0.16526 0.0
H1297 H 0.26951 0.31805 0.18504 0.0
H1298 H 0.30159 0.34997 0.15794 0.0
H1299 H 0.38046 0.3653 0.20709 0.0
H1300 H 0.48177 0.43451 0.12363 0.0
H1301 H 0.44687 0.40549 0.14798 0.0
H1302 H 0.36823 0.38539 0.08194 0.0
C1303 C 0.30829 0.3362 0.17203 0.0
C1304 C 0.37754 0.36953 0.17973 0.0
C1305 C 0.28989 0.31792 0.18776 0.0
C1306 C 0.46215 0.4329 0.11242 0.0
C1307 C 0.44177 0.41613 0.12683 0.0
C1308 C 0.3711 0.38166 0.10948 0.0
C1309 C 0.33508 0.33707 0.17516 0.0
C1310 C 0.35496 0.35702 0.15949 0.0
C1311 C 0.41566 0.41258 0.1136 0.0
C1312 C 0.39402 0.39405 0.1296 0.0
H1313 H 0.3312 0.28653 0.22305 0.0
H1314 H 0.36325 0.31882 0.19681 0.0
H1315 H 0.33469 0.35433 0.10784 0.0
H1316 H 0.42721 0.45336 0.04763 0.0
H1317 H 0.39127 0.42484 0.07383 0.0
C1318 C 0.8002 0.66438 0.66916 0.0
C1319 C 0.81573 0.68746 0.67996 0.0
C1320 C 0.81044 0.64851 0.64898 0.0
C1321 C 0.86643 0.647 0.59418 0.0
H1322 H 0.85342 0.5802 0.62048 0.0
C1323 C 0.93771 0.58858 0.57129 0.0
C1324 C 0.92792 0.56431 0.55981 0.0
C1325 C 0.92082 0.60275 0.57954 0.0
C1326 C 0.85691 0.5987 0.61239 0.0
H1327 H 0.854 0.71206 0.67722 0.0
H1328 H 0.87174 0.68462 0.64286 0.0
H1329 H 0.82943 0.60659 0.64707 0.0
H1330 H 0.89262 0.53604 0.54692 0.0
H1331 H 0.86291 0.56082 0.56224 0.0
H1332 H 0.89475 0.63938 0.56076 0.0
C1333 C 0.85158 0.67871 0.64933 0.0
C1334 C 0.84313 0.61385 0.6276 0.0
C1335 C 0.84142 0.69446 0.6694 0.0
C1336 C 0.90074 0.55468 0.55581 0.0
C1337 C 0.88376 0.5688 0.5647 0.0
C1338 C 0.88032 0.63195 0.57927 0.0
C1339 C 0.83637 0.65544 0.63902 0.0
C1340 C 0.84824 0.6384 0.61941 0.0
C1341 C 0.89367 0.59295 0.57695 0.0
C1342 C 0.8762 0.6078 0.58886 0.0
H1343 H 0.78034 0.6584 0.67688 0.0
H1344 H 0.79808 0.6308 0.64128 0.0
H1345 H 0.87043 0.66561 0.58649 0.0
H1346 H 0.95853 0.59662 0.57437 0.0
H1347 H 0.92909 0.62122 0.58915 0.0
C1348 C 0.35662 0.78544 0.64745 0.0
C1349 C 0.33215 0.79007 0.63974 0.0
C1350 C 0.37872 0.79884 0.63196 0.0
C1351 C 0.3998 0.84382 0.56306 0.0
H1352 H 0.45238 0.87612 0.63552 0.0
C1353 C 0.43992 0.94365 0.57971 0.0
C1354 C 0.46641 0.95376 0.57464 0.0
C1355 C 0.43043 0.91888 0.58205 0.0
C1356 C 0.43841 0.86675 0.61469 0.0
H1357 H 0.31128 0.81103 0.60795 0.0
H1358 H 0.34952 0.83445 0.58152 0.0
H1359 H 0.4212 0.8385 0.64831 0.0
H1360 H 0.50388 0.9458 0.56918 0.0
H1361 H 0.48705 0.90189 0.57478 0.0
H1362 H 0.41521 0.87368 0.53107 0.0
C1363 C 0.35184 0.82042 0.59915 0.0
C1364 C 0.42053 0.84522 0.62194 0.0
C1365 C 0.3299 0.80719 0.61469 0.0
C1366 C 0.48341 0.93849 0.57323 0.0
C1367 C 0.47386 0.9135 0.57618 0.0
C1368 C 0.41748 0.86542 0.55602 0.0
C1369 C 0.37662 0.81688 0.60829 0.0
C1370 C 0.40007 0.83439 0.5969 0.0
C1371 C 0.4472 0.90364 0.57991 0.0
C1372 C 0.43597 0.87761 0.58243 0.0
H1373 H 0.35889 0.77223 0.66653 0.0
H1374 H 0.39755 0.79567 0.63936 0.0
H1375 H 0.38453 0.83563 0.54304 0.0
H1376 H 0.42617 0.95475 0.58053 0.0
H1377 H 0.40981 0.91152 0.58528 0.0
C1378 C 0.16494 0.28711 0.6658 0.0
C1379 C 0.18896 0.29586 0.68536 0.0
C1380 C 0.15352 0.30267 0.64647 0.0
C1381 C 0.15251 0.36659 0.6458 0.0
H1382 H 0.11193 0.34774 0.55674 0.0
C1383 C 0.10609 0.43274 0.5701 0.0
C1384 C 0.08062 0.42406 0.55454 0.0
C1385 C 0.11985 0.41693 0.58405 0.0
C1386 C 0.12295 0.35316 0.58179 0.0
H1387 H 0.22041 0.32772 0.69867 0.0
H1388 H 0.20054 0.35502 0.66455 0.0
H1389 H 0.13648 0.32094 0.58292 0.0
H1390 H 0.0498 0.39174 0.54097 0.0
H1391 H 0.07387 0.36394 0.56581 0.0
H1392 H 0.13882 0.39864 0.64498 0.0
C1393 C 0.1904 0.33607 0.66456 0.0
C1394 C 0.13711 0.33784 0.59675 0.0
C1395 C 0.20193 0.32041 0.68381 0.0
C1396 C 0.06931 0.39903 0.55298 0.0
C1397 C 0.08319 0.38311 0.56696 0.0
C1398 C 0.13837 0.38187 0.63088 0.0
C1399 C 0.16577 0.32746 0.64627 0.0
C1400 C 0.15201 0.34434 0.62902 0.0
C1401 C 0.10859 0.39193 0.58289 0.0
C1402 C 0.12338 0.37536 0.59872 0.0
H1403 H 0.15444 0.26827 0.66634 0.0
H1404 H 0.13449 0.2954 0.63301 0.0
H1405 H 0.16327 0.37197 0.67104 0.0
H1406 H 0.11556 0.45188 0.57158 0.0
H1407 H 0.1395 0.42435 0.59551 0.0
C1408 C 0.67456 0.20511 0.67519 0.0
C1409 C 0.69948 0.20377 0.68827 0.0
C1410 C 0.65939 0.18698 0.65171 0.0
C1411 C 0.65025 0.12306 0.62991 0.0
H1412 H 0.61783 0.13408 0.53976 0.0
C1413 C 0.60051 0.04282 0.53788 0.0
C1414 C 0.57534 0.04268 0.52415 0.0
C1415 C 0.61726 0.06414 0.55249 0.0
C1416 C 0.62664 0.13074 0.56498 0.0
H1417 H 0.72806 0.18247 0.68635 0.0
H1418 H 0.70173 0.15127 0.64623 0.0
H1419 H 0.64216 0.16862 0.57777 0.0
H1420 H 0.54913 0.06537 0.51134 0.0
H1421 H 0.57805 0.10227 0.53754 0.0
H1422 H 0.63456 0.08545 0.61805 0.0
C1423 C 0.69387 0.1662 0.65399 0.0
C1424 C 0.64045 0.15049 0.5867 0.0
C1425 C 0.709 0.18423 0.67695 0.0
C1426 C 0.56821 0.06472 0.5224 0.0
C1427 C 0.5849 0.08599 0.53718 0.0
C1428 C 0.63639 0.10343 0.60848 0.0
C1429 C 0.66883 0.16717 0.64148 0.0
C1430 C 0.65258 0.14675 0.61918 0.0
C1431 C 0.60915 0.08571 0.5538 0.0
C1432 C 0.62462 0.10696 0.57558 0.0
H1433 H 0.6667 0.21993 0.68337 0.0
H1434 H 0.64005 0.18805 0.64241 0.0
H1435 H 0.65911 0.1197 0.6551 0.0
H1436 H 0.60679 0.02626 0.53916 0.0
H1437 H 0.63617 0.06348 0.56414 0.0
C1438 C 0.80556 0.29322 0.31953 0.0
C1439 C 0.77897 0.29216 0.32075 0.0
C1440 C 0.82442 0.31415 0.33112 0.0
C1441 C 0.83481 0.3793 0.35577 0.0
H1442 H 0.89237 0.3686 0.41543 0.0
C1443 C 0.90223 0.45377 0.4488 0.0
C1444 C 0.92912 0.45519 0.45058 0.0
C1445 C 0.88446 0.43465 0.43008 0.0
C1446 C 0.87663 0.37194 0.39847 0.0
H1447 H 0.7509 0.31188 0.33416 0.0
H1448 H 0.78387 0.34864 0.35489 0.0
H1449 H 0.86047 0.33425 0.38682 0.0
H1450 H 0.95838 0.43757 0.43398 0.0
H1451 H 0.92734 0.40412 0.40161 0.0
H1452 H 0.85082 0.41706 0.3682 0.0
C1453 C 0.79026 0.33349 0.3445 0.0
C1454 C 0.85833 0.35223 0.38196 0.0
C1455 C 0.77138 0.31249 0.33281 0.0
C1456 C 0.93781 0.43703 0.4332 0.0
C1457 C 0.92002 0.4178 0.41475 0.0
C1458 C 0.85309 0.39905 0.37244 0.0
C1459 C 0.81703 0.33438 0.34452 0.0
C1460 C 0.83711 0.35562 0.36054 0.0
C1461 C 0.89313 0.41638 0.41297 0.0
C1462 C 0.87413 0.39557 0.39416 0.0
H1463 H 0.81175 0.27764 0.31029 0.0
H1464 H 0.84482 0.31434 0.33016 0.0
H1465 H 0.81891 0.38258 0.33907 0.0
H1466 H 0.89486 0.4675 0.46175 0.0
H1467 H 0.86386 0.43395 0.42954 0.0
C1468 C 0.7103 0.83853 0.35261 0.0
C1469 C 0.70046 0.81495 0.33814 0.0
C1470 C 0.69445 0.8497 0.3716 0.0
C1471 C 0.62724 0.85126 0.37096 0.0
H1472 H 0.64587 0.88782 0.45998 0.0
C1473 C 0.55836 0.90394 0.42534 0.0
C1474 C 0.56955 0.92653 0.44229 0.0
C1475 C 0.5737 0.88814 0.41786 0.0
C1476 C 0.64047 0.87796 0.43487 0.0
H1477 H 0.66665 0.7842 0.33344 0.0
H1478 H 0.63879 0.80399 0.36584 0.0
H1479 H 0.67458 0.86419 0.43814 0.0
H1480 H 0.60547 0.94992 0.46599 0.0
H1481 H 0.63256 0.92298 0.45142 0.0
H1482 H 0.59415 0.8659 0.36609 0.0
C1483 C 0.65885 0.81368 0.3628 0.0
C1484 C 0.65685 0.86428 0.42258 0.0
C1485 C 0.67485 0.80233 0.34446 0.0
C1486 C 0.5963 0.93268 0.45268 0.0
C1487 C 0.6118 0.91706 0.44456 0.0
C1488 C 0.61117 0.86526 0.38281 0.0
C1489 C 0.66833 0.83765 0.37583 0.0
C1490 C 0.65038 0.85086 0.39046 0.0
C1491 C 0.60079 0.89472 0.42646 0.0
C1492 C 0.61754 0.87892 0.4149 0.0
H1493 H 0.72996 0.84866 0.34817 0.0
H1494 H 0.70217 0.86823 0.38124 0.0
H1495 H 0.62203 0.84141 0.34578 0.0
H1496 H 0.53768 0.89845 0.41764 0.0
H1497 H 0.56424 0.87084 0.40499 0.0
C1498 C 0.14107 0.70627 0.32081 0.0
C1499 C 0.16545 0.70721 0.30758 0.0
C1500 C 0.12724 0.68544 0.33628 0.0
C1501 C 0.1174 0.62075 0.3329 0.0
H1502 H 0.08869 0.62248 0.42423 0.0
C1503 C 0.067 0.53382 0.39972 0.0
C1504 C 0.04605 0.53422 0.42043 0.0
C1505 C 0.08156 0.55505 0.38613 0.0
C1506 C 0.09618 0.62172 0.39843 0.0
H1507 H 0.19463 0.68727 0.30032 0.0
H1508 H 0.17007 0.6506 0.32674 0.0
H1509 H 0.1147 0.65965 0.40104 0.0
H1510 H 0.0234 0.557 0.44239 0.0
H1511 H 0.04804 0.59393 0.41722 0.0
H1512 H 0.09828 0.58315 0.32936 0.0
C1513 C 0.16185 0.66607 0.32531 0.0
C1514 C 0.11122 0.64297 0.38535 0.0
C1515 C 0.17589 0.68705 0.31037 0.0
C1516 C 0.03947 0.55616 0.4265 0.0
C1517 C 0.05379 0.57736 0.41239 0.0
C1518 C 0.10202 0.59958 0.34565 0.0
C1519 C 0.13738 0.66509 0.33822 0.0
C1520 C 0.12198 0.64261 0.35254 0.0
C1521 C 0.07525 0.57712 0.39243 0.0
C1522 C 0.09125 0.59977 0.37862 0.0
H1523 H 0.13264 0.7216 0.31914 0.0
H1524 H 0.10832 0.685 0.3459 0.0
H1525 H 0.12526 0.62013 0.30728 0.0
H1526 H 0.07284 0.51727 0.39507 0.0
H1527 H 0.09824 0.55419 0.37151 0.0
C1528 C 0.2969 0.17474 0.35013 0.0
C1529 C 0.30696 0.19447 0.32938 0.0
C1530 C 0.31357 0.1636 0.36899 0.0
C1531 C 0.37972 0.16632 0.40438 0.0
H1532 H 0.35891 0.0978 0.37918 0.0
C1533 C 0.4385 0.09604 0.44629 0.0
C1534 C 0.42306 0.07349 0.45535 0.0
C1535 C 0.42671 0.11363 0.43291 0.0
C1536 C 0.36489 0.11684 0.38682 0.0
H1537 H 0.34241 0.2193 0.31427 0.0
H1538 H 0.37184 0.19951 0.34748 0.0
H1539 H 0.33409 0.12426 0.35395 0.0
H1540 H 0.38338 0.05236 0.46024 0.0
H1541 H 0.36303 0.08291 0.43786 0.0
H1542 H 0.41042 0.15852 0.43789 0.0
C1543 C 0.35096 0.19281 0.34904 0.0
C1544 C 0.35069 0.13199 0.37229 0.0
C1545 C 0.33415 0.20409 0.33009 0.0
C1546 C 0.39581 0.06932 0.45263 0.0
C1547 C 0.38413 0.08684 0.43974 0.0
C1548 C 0.39398 0.15098 0.41926 0.0
C1549 C 0.34071 0.17187 0.36742 0.0
C1550 C 0.35754 0.15676 0.38149 0.0
C1551 C 0.39936 0.1089 0.4287 0.0
C1552 C 0.38625 0.12597 0.4112 0.0
H1553 H 0.27604 0.16714 0.35051 0.0
H1554 H 0.3052 0.14775 0.38353 0.0
H1555 H 0.38546 0.18541 0.41165 0.0
H1556 H 0.45959 0.09976 0.44839 0.0
H1557 H 0.43894 0.1305 0.42469 0.0
C1558 C 0.69642 0.82612 0.67041 0.0
C1559 C 0.68866 0.80255 0.68252 0.0
C1560 C 0.67859 0.83619 0.652 0.0
C1561 C 0.61974 0.8286 0.59784 0.0
H1562 H 0.61531 0.88708 0.64803 0.0
C1563 C 0.55721 0.89453 0.54889 0.0
C1564 C 0.57154 0.91887 0.5511 0.0
C1565 C 0.5678 0.87668 0.56399 0.0
C1566 C 0.61624 0.87075 0.63375 0.0
H1567 H 0.65654 0.77041 0.68259 0.0
H1568 H 0.62514 0.78829 0.64976 0.0
H1569 H 0.64108 0.86163 0.6746 0.0
H1570 H 0.60847 0.9434 0.56975 0.0
H1571 H 0.62663 0.91258 0.59574 0.0
H1572 H 0.59578 0.83856 0.55611 0.0
C1573 C 0.64512 0.7988 0.65493 0.0
C1574 C 0.6309 0.8562 0.64898 0.0
C1575 C 0.66304 0.78866 0.67369 0.0
C1576 C 0.59673 0.9249 0.56786 0.0
C1577 C 0.60715 0.90724 0.58294 0.0
C1578 C 0.60505 0.84335 0.58236 0.0
C1579 C 0.65265 0.82291 0.64504 0.0
C1580 C 0.63347 0.83547 0.63073 0.0
C1581 C 0.5927 0.88303 0.58171 0.0
C1582 C 0.60401 0.86501 0.59975 0.0
H1583 H 0.71606 0.83723 0.67633 0.0
H1584 H 0.68485 0.85476 0.64424 0.0
H1585 H 0.62152 0.81263 0.58339 0.0
H1586 H 0.5378 0.88933 0.53589 0.0
H1587 H 0.55633 0.85809 0.56259 0.0
C1588 C 0.65419 0.19871 0.36289 0.0
C1589 C 0.67658 0.19378 0.37934 0.0
C1590 C 0.62952 0.18783 0.37404 0.0
C1591 C 0.59513 0.14677 0.4414 0.0
H1592 H 0.55298 0.11471 0.35889 0.0
C1593 C 0.55421 0.04746 0.41168 0.0
C1594 C 0.52924 0.03806 0.42358 0.0
C1595 C 0.56371 0.07215 0.40828 0.0
C1596 C 0.56391 0.12412 0.38226 0.0
H1597 H 0.69095 0.17491 0.42178 0.0
H1598 H 0.64803 0.15516 0.44032 0.0
H1599 H 0.58781 0.15068 0.35192 0.0
H1600 H 0.4941 0.04712 0.43933 0.0
H1601 H 0.51114 0.09088 0.43339 0.0
H1602 H 0.57284 0.11814 0.47086 0.0
C1603 C 0.64935 0.16789 0.41943 0.0
C1604 C 0.58396 0.14474 0.37839 0.0
C1605 C 0.67402 0.17901 0.40855 0.0
C1606 C 0.51346 0.05388 0.43029 0.0
C1607 C 0.52312 0.07881 0.42705 0.0
C1608 C 0.5751 0.12603 0.44519 0.0
C1609 C 0.62675 0.17154 0.40153 0.0
C1610 C 0.60088 0.15533 0.40759 0.0
C1611 C 0.54847 0.08795 0.41658 0.0
C1612 C 0.56045 0.11389 0.41529 0.0
H1613 H 0.65564 0.21036 0.34061 0.0
H1614 H 0.61256 0.19133 0.36007 0.0
H1615 H 0.60748 0.15482 0.4645 0.0
H1616 H 0.56698 0.03591 0.40644 0.0
H1617 H 0.58339 0.07905 0.40023 0.0
C1618 C 0.84319 0.70832 0.34389 0.0
C1619 C 0.81899 0.69972 0.32474 0.0
C1620 C 0.85438 0.69259 0.36323 0.0
C1621 C 0.85404 0.6286 0.36322 0.0
H1622 H 0.89307 0.64529 0.45377 0.0
C1623 C 0.89604 0.55966 0.43771 0.0
C1624 C 0.92154 0.56745 0.45339 0.0
C1625 C 0.88306 0.57623 0.42449 0.0
C1626 C 0.88245 0.6405 0.42832 0.0
H1627 H 0.78692 0.66811 0.31235 0.0
H1628 H 0.80639 0.64071 0.34627 0.0
H1629 H 0.87013 0.67338 0.42748 0.0
H1630 H 0.9532 0.59889 0.46828 0.0
H1631 H 0.93052 0.62802 0.4446 0.0
H1632 H 0.86652 0.59596 0.36362 0.0
C1633 C 0.81688 0.65956 0.34591 0.0
C1634 C 0.86926 0.65653 0.41334 0.0
C1635 C 0.80565 0.67529 0.32668 0.0
C1636 C 0.93365 0.59232 0.45607 0.0
C1637 C 0.92058 0.60899 0.44279 0.0
C1638 C 0.86722 0.61265 0.37811 0.0
C1639 C 0.84164 0.66792 0.36371 0.0
C1640 C 0.85488 0.65071 0.38062 0.0
C1641 C 0.89522 0.60106 0.42653 0.0
C1642 C 0.88154 0.61837 0.41085 0.0
H1643 H 0.85393 0.72706 0.34308 0.0
H1644 H 0.87353 0.69957 0.37649 0.0
H1645 H 0.84364 0.62381 0.33762 0.0
H1646 H 0.886 0.54065 0.43546 0.0
H1647 H 0.86338 0.56955 0.41273 0.0
C1648 C 0.32172 0.78444 0.33337 0.0
C1649 C 0.29783 0.78726 0.31859 0.0
C1650 C 0.3367 0.80161 0.3583 0.0
C1651 C 0.33222 0.85311 0.4179 0.0
H1652 H 0.40666 0.87502 0.40839 0.0
C1653 C 0.39643 0.94758 0.46438 0.0
C1654 C 0.42183 0.94893 0.47853 0.0
C1655 C 0.38012 0.92537 0.45185 0.0
C1656 C 0.38594 0.86885 0.41177 0.0
H1657 H 0.27124 0.81061 0.31807 0.0
H1658 H 0.29727 0.8403 0.36028 0.0
H1659 H 0.38111 0.84026 0.37276 0.0
H1660 H 0.44909 0.92768 0.49368 0.0
H1661 H 0.42091 0.88934 0.47118 0.0
H1662 H 0.33701 0.88254 0.45575 0.0
C1663 C 0.30424 0.82461 0.35375 0.0
C1664 C 0.3713 0.84886 0.39142 0.0
C1665 C 0.28933 0.80755 0.3292 0.0
C1666 C 0.42983 0.92742 0.48225 0.0
C1667 C 0.41371 0.90539 0.46943 0.0
C1668 C 0.34682 0.87326 0.43796 0.0
C1669 C 0.32808 0.82192 0.36872 0.0
C1670 C 0.34417 0.84107 0.39366 0.0
C1671 C 0.38903 0.90423 0.45313 0.0
C1672 C 0.37375 0.88157 0.43464 0.0
H1673 H 0.3288 0.76903 0.32574 0.0
H1674 H 0.35497 0.79896 0.36946 0.0
H1675 H 0.31142 0.84727 0.42086 0.0
H1676 H 0.38965 0.96378 0.46123 0.0
H1677 H 0.36116 0.92498 0.4393 0.0
C1678 C 0.20073 0.33132 0.32559 0.0
C1679 C 0.19438 0.30712 0.33549 0.0
C1680 C 0.19001 0.34829 0.34216 0.0
C1681 C 0.15508 0.36035 0.4196 0.0
H1682 H 0.12144 0.39535 0.35339 0.0
C1683 C 0.09706 0.43031 0.45949 0.0
C1684 C 0.07242 0.42658 0.44131 0.0
C1685 C 0.11464 0.41715 0.44943 0.0
C1686 C 0.13083 0.38578 0.37221 0.0
H1687 H 0.17314 0.28216 0.37209 0.0
H1688 H 0.15464 0.31183 0.40115 0.0
H1689 H 0.14868 0.37041 0.33169 0.0
H1690 H 0.04691 0.40594 0.39852 0.0
H1691 H 0.07759 0.38352 0.3808 0.0
H1692 H 0.13656 0.37544 0.46003 0.0
C1693 C 0.16785 0.31766 0.38054 0.0
C1694 C 0.14663 0.37168 0.35984 0.0
C1695 C 0.17836 0.30063 0.36375 0.0
C1696 C 0.06569 0.40933 0.41314 0.0
C1697 C 0.08333 0.39655 0.4028 0.0
C1698 C 0.13946 0.37474 0.43206 0.0
C1699 C 0.17294 0.34149 0.36923 0.0
C1700 C 0.15857 0.35846 0.38328 0.0
C1701 C 0.10804 0.40044 0.42059 0.0
C1702 C 0.12675 0.38716 0.40834 0.0
H1703 H 0.21299 0.33695 0.30393 0.0
H1704 H 0.19449 0.3666 0.33313 0.0
H1705 H 0.16415 0.35044 0.43828 0.0
H1706 H 0.10287 0.44347 0.48127 0.0
H1707 H 0.13359 0.42048 0.46359 0.0
C1708 C 0.33027 0.19203 0.66581 0.0
C1709 C 0.30361 0.18213 0.66981 0.0
C1710 C 0.34462 0.17905 0.64709 0.0
C1711 C 0.34119 0.11573 0.61809 0.0
H1712 H 0.40328 0.14583 0.57077 0.0
C1713 C 0.40119 0.05965 0.54856 0.0
C1714 C 0.42777 0.06575 0.56003 0.0
C1715 C 0.38545 0.07503 0.55653 0.0
C1716 C 0.38593 0.13723 0.58384 0.0
H1717 H 0.27062 0.15184 0.65533 0.0
H1718 H 0.29512 0.12986 0.62114 0.0
H1719 H 0.37631 0.17079 0.5937 0.0
H1720 H 0.459 0.09339 0.58705 0.0
H1721 H 0.43151 0.12028 0.6007 0.0
H1722 H 0.35077 0.08219 0.60793 0.0
C1723 C 0.3054 0.14706 0.63369 0.0
C1724 C 0.37053 0.1515 0.5972 0.0
C1725 C 0.29124 0.15976 0.65301 0.0
C1726 C 0.43852 0.08804 0.5782 0.0
C1727 C 0.42286 0.10355 0.58575 0.0
C1728 C 0.35631 0.10148 0.60425 0.0
C1729 C 0.33247 0.15611 0.63144 0.0
C1730 C 0.34809 0.14098 0.61491 0.0
C1731 C 0.39607 0.09696 0.57565 0.0
C1732 C 0.379 0.11209 0.5874 0.0
H1733 H 0.34033 0.20918 0.67872 0.0
H1734 H 0.36543 0.18659 0.64634 0.0
H1735 H 0.32451 0.1069 0.63228 0.0
H1736 H 0.39238 0.0427 0.53425 0.0
H1737 H 0.36488 0.06964 0.54817 0.0
C1738 C 0.85853 0.29996 0.72092 0.0
C1739 C 0.83228 0.28986 0.70965 0.0
C1740 C 0.87335 0.31953 0.70389 0.0
C1741 C 0.86739 0.36988 0.64915 0.0
H1742 H 0.9394 0.37275 0.63184 0.0
C1743 C 0.93926 0.45756 0.61334 0.0
C1744 C 0.95525 0.456 0.58564 0.0
C1745 C 0.92444 0.43667 0.62747 0.0
C1746 C 0.91927 0.3721 0.63625 0.0
H1747 H 0.80096 0.29225 0.67163 0.0
H1748 H 0.827 0.32642 0.64168 0.0
H1749 H 0.91247 0.33677 0.6568 0.0
H1750 H 0.96878 0.43125 0.55169 0.0
H1751 H 0.9429 0.39482 0.57654 0.0
H1752 H 0.87413 0.40514 0.62828 0.0
C1753 C 0.83599 0.3193 0.66391 0.0
C1754 C 0.90394 0.35163 0.65082 0.0
C1755 C 0.82113 0.29971 0.68098 0.0
C1756 C 0.95672 0.43311 0.57311 0.0
C1757 C 0.94193 0.41222 0.58733 0.0
C1758 C 0.88272 0.39036 0.63461 0.0
C1759 C 0.86224 0.32938 0.67523 0.0
C1760 C 0.87796 0.35045 0.65779 0.0
C1761 C 0.92537 0.41383 0.61428 0.0
C1762 C 0.90889 0.39176 0.62843 0.0
H1763 H 0.86764 0.29285 0.74304 0.0
H1764 H 0.89342 0.32721 0.71355 0.0
H1765 H 0.84746 0.36952 0.65442 0.0
H1766 H 0.93763 0.47489 0.62356 0.0
H1767 H 0.91213 0.4384 0.64865 0.0
C1768 C 0.20716 0.68578 0.69648 0.0
C1769 C 0.22539 0.6981 0.67362 0.0
C1770 C 0.18929 0.6641 0.68522 0.0
C1771 C 0.17628 0.61355 0.62021 0.0
H1772 H 0.1033 0.61266 0.62516 0.0
C1773 C 0.09621 0.54416 0.53781 0.0
C1774 C 0.0719 0.53514 0.55184 0.0
C1775 C 0.11495 0.56316 0.55511 0.0
C1776 C 0.12353 0.61231 0.6241 0.0
H1777 H 0.23962 0.6976 0.62144 0.0
H1778 H 0.20885 0.65933 0.60194 0.0
H1779 H 0.13688 0.64629 0.65289 0.0
H1780 H 0.04813 0.53896 0.59502 0.0
H1781 H 0.08116 0.57162 0.62599 0.0
H1782 H 0.16322 0.57955 0.59194 0.0
C1783 C 0.20842 0.66633 0.62859 0.0
C1784 C 0.14276 0.63163 0.63996 0.0
C1785 C 0.22595 0.68818 0.63966 0.0
C1786 C 0.06664 0.54565 0.58346 0.0
C1787 C 0.08558 0.56444 0.60112 0.0
C1788 C 0.15709 0.59404 0.60484 0.0
C1789 C 0.18959 0.65433 0.651 0.0
C1790 C 0.16931 0.63263 0.63759 0.0
C1791 C 0.11007 0.57339 0.58726 0.0
C1792 C 0.13043 0.59338 0.60591 0.0
H1793 H 0.20572 0.6936 0.72223 0.0
H1794 H 0.1749 0.65524 0.70295 0.0
H1795 H 0.19664 0.61381 0.61833 0.0
H1796 H 0.10073 0.53662 0.51324 0.0
H1797 H 0.13322 0.56993 0.54301 0.0
loop_
_geom_bond_atom_site_label_1
_geom_bond_atom_site_label_2
_geom_bond_distance
_geom_bond_site_symmetry_2
_ccdc_geom_bond_type
Zn0 O6 1.969 . S
Zn0 O7 1.965 . S
Zn0 O11 2.024 . S
Zn0 O16 1.969 . S
Zn1 O8 1.969 . S
Zn1 O14 1.969 . S
Zn1 O15 1.965 . S
Zn1 O17 2.024 . S
C2 O3 1.229 . S
C2 O11 1.058 . S
O3 C2 1.229 . S
C4 O5 1.229 . S
C4 O17 1.058 . S
O5 C4 1.229 . S
O6 Zn0 1.969 . S
O6 C9 1.267 . S
O7 Zn0 1.965 . S
O7 C18 1.260 . S
O8 Zn1 1.969 . S
O8 C18 1.258 . S
C9 O6 1.267 . S
C9 O10 1.228 . S
O10 C9 1.228 . S
O11 Zn0 2.024 . S
O11 C2 1.058 . S
C12 O13 1.228 . S
C12 O14 1.267 . S
O13 C12 1.228 . S
O14 Zn1 1.969 . S
O14 C12 1.267 . S
O15 Zn1 1.965 . S
O15 C19 1.260 . S
O16 Zn0 1.969 . S
O16 C19 1.258 . S
O17 Zn1 2.024 . S
O17 C4 1.058 . S
C18 O7 1.260 . S
C18 O8 1.258 . S
C19 O15 1.260 . S
C19 O16 1.258 . S
Zn20 O26 1.969 . S
Zn20 O27 1.965 . S
Zn20 O31 2.024 . S
Zn20 O36 1.969 . S
Zn21 O28 1.969 . S
Zn21 O34 1.969 . S
Zn21 O35 1.965 . S
Zn21 O37 2.024 . S
C22 O23 1.229 . S
C22 O31 1.058 . S
O23 C22 1.229 . S
C24 O25 1.229 . S
C24 O37 1.058 . S
O25 C24 1.229 . S
O26 Zn20 1.969 . S
O26 C29 1.267 . S
O27 Zn20 1.965 . S
O27 C38 1.260 . S
O28 Zn21 1.969 . S
O28 C38 1.258 . S
C29 O26 1.267 . S
C29 O30 1.228 . S
O30 C29 1.228 . S
O31 Zn20 2.024 . S
O31 C22 1.058 . S
C32 O33 1.228 . S
C32 O34 1.267 . S
O33 C32 1.228 . S
O34 Zn21 1.969 . S
O34 C32 1.267 . S
O35 Zn21 1.965 . S
O35 C39 1.260 . S
O36 Zn20 1.969 . S
O36 C39 1.258 . S
O37 Zn21 2.024 . S
O37 C24 1.058 . S
C38 O27 1.260 . S
C38 O28 1.258 . S
C39 O35 1.260 . S
C39 O36 1.258 . S
Zn40 O46 1.969 . S
Zn40 O47 1.965 . S
Zn40 O51 2.024 . S
Zn40 O56 1.969 . S
Zn41 O48 1.969 . S
Zn41 O54 1.969 . S
Zn41 O55 1.965 . S
Zn41 O57 2.024 . S
C42 O43 1.229 . S
C42 O51 1.058 . S
O43 C42 1.229 . S
C44 O45 1.229 . S
C44 O57 1.058 . S
O45 C44 1.229 . S
O46 Zn40 1.969 . S
O46 C49 1.267 . S
O47 Zn40 1.965 . S
O47 C58 1.260 . S
O48 Zn41 1.969 . S
O48 C58 1.258 . S
C49 O46 1.267 . S
C49 O50 1.228 . S
O50 C49 1.228 . S
O51 Zn40 2.024 . S
O51 C42 1.058 . S
C52 O53 1.228 . S
C52 O54 1.267 . S
O53 C52 1.228 . S
O54 Zn41 1.969 . S
O54 C52 1.267 . S
O55 Zn41 1.965 . S
O55 C59 1.260 . S
O56 Zn40 1.969 . S
O56 C59 1.258 . S
O57 Zn41 2.024 . S
O57 C44 1.058 . S
C58 O47 1.260 . S
C58 O48 1.258 . S
C59 O55 1.260 . S
C59 O56 1.258 . S
Zn60 O66 1.969 . S
Zn60 O67 1.965 . S
Zn60 O71 2.024 . S
Zn60 O76 1.969 . S
Zn61 O68 1.969 . S
Zn61 O74 1.969 . S
Zn61 O75 1.965 . S
Zn61 O77 2.024 . S
C62 O63 1.229 . S
C62 O71 1.058 . S
O63 C62 1.229 . S
C64 O65 1.229 . S
C64 O77 1.058 . S
O65 C64 1.229 . S
O66 Zn60 1.969 . S
O66 C69 1.267 . S
O67 Zn60 1.965 . S
O67 C78 1.260 . S
O68 Zn61 1.969 . S
O68 C78 1.258 . S
C69 O66 1.267 . S
C69 O70 1.228 . S
O70 C69 1.228 . S
O71 Zn60 2.024 . S
O71 C62 1.058 . S
C72 O73 1.228 . S
C72 O74 1.267 . S
O73 C72 1.228 . S
O74 Zn61 1.969 . S
O74 C72 1.267 . S
O75 Zn61 1.965 . S
O75 C79 1.260 . S
O76 Zn60 1.969 . S
O76 C79 1.258 . S
O77 Zn61 2.024 . S
O77 C64 1.058 . S
C78 O67 1.260 . S
C78 O68 1.258 . S
C79 O75 1.260 . S
C79 O76 1.258 . S
Zn80 O86 1.969 . S
Zn80 O87 1.965 . S
Zn80 O91 2.024 . S
Zn80 O96 1.969 . S
Zn81 O88 1.969 . S
Zn81 O94 1.969 . S
Zn81 O95 1.965 . S
Zn81 O97 2.024 . S
C82 O83 1.229 . S
C82 O91 1.058 . S
O83 C82 1.229 . S
C84 O85 1.229 . S
C84 O97 1.058 . S
O85 C84 1.229 . S
O86 Zn80 1.969 . S
O86 C89 1.267 . S
O87 Zn80 1.965 . S
O87 C98 1.260 . S
O88 Zn81 1.969 . S
O88 C98 1.258 . S
C89 O86 1.267 . S
C89 O90 1.228 . S
O90 C89 1.228 . S
O91 Zn80 2.024 . S
O91 C82 1.058 . S
C92 O93 1.228 . S
C92 O94 1.267 . S
O93 C92 1.228 . S
O94 Zn81 1.969 . S
O94 C92 1.267 . S
O95 Zn81 1.965 . S
O95 C99 1.260 . S
O96 Zn80 1.969 . S
O96 C99 1.258 . S
O97 Zn81 2.024 . S
O97 C84 1.058 . S
C98 O87 1.260 . S
C98 O88 1.258 . S
C99 O95 1.260 . S
C99 O96 1.258 . S
Zn100 O106 1.969 . S
Zn100 O107 1.965 . S
Zn100 O111 2.024 . S
Zn100 O116 1.969 . S
Zn101 O108 1.969 . S
Zn101 O114 1.969 . S
Zn101 O115 1.965 . S
Zn101 O117 2.024 . S
C102 O103 1.229 . S
C102 O111 1.058 . S
O103 C102 1.229 . S
C104 O105 1.229 . S
C104 O117 1.058 . S
O105 C104 1.229 . S
O106 Zn100 1.969 . S
O106 C109 1.267 . S
O107 Zn100 1.965 . S
O107 C118 1.260 . S
O108 Zn101 1.969 . S
O108 C118 1.258 . S
C109 O106 1.267 . S
C109 O110 1.228 . S
O110 C109 1.228 . S
O111 Zn100 2.024 . S
O111 C102 1.058 . S
C112 O113 1.228 . S
C112 O114 1.267 . S
O113 C112 1.228 . S
O114 Zn101 1.969 . S
O114 C112 1.267 . S
O115 Zn101 1.965 . S
O115 C119 1.260 . S
O116 Zn100 1.969 . S
O116 C119 1.258 . S
O117 Zn101 2.024 . S
O117 C104 1.058 . S
C118 O107 1.260 . S
C118 O108 1.258 . S
C119 O115 1.260 . S
C119 O116 1.258 . S
Zn120 O126 1.969 . S
Zn120 O127 1.965 . S
Zn120 O131 2.024 . S
Zn120 O136 1.969 . S
Zn121 O128 1.969 . S
Zn121 O134 1.969 . S
Zn121 O135 1.965 . S
Zn121 O137 2.024 . S
C122 O123 1.229 . S
C122 O131 1.058 . S
O123 C122 1.229 . S
C124 O125 1.229 . S
C124 O137 1.058 . S
O125 C124 1.229 . S
O126 Zn120 1.969 . S
O126 C129 1.267 . S
O127 Zn120 1.965 . S
O127 C138 1.260 . S
O128 Zn121 1.969 . S
O128 C138 1.258 . S
C129 O126 1.267 . S
C129 O130 1.228 . S
O130 C129 1.228 . S
O131 Zn120 2.024 . S
O131 C122 1.058 . S
C132 O133 1.228 . S
C132 O134 1.267 . S
O133 C132 1.228 . S
O134 Zn121 1.969 . S
O134 C132 1.267 . S
O135 Zn121 1.965 . S
O135 C139 1.260 . S
O136 Zn120 1.969 . S
O136 C139 1.258 . S
O137 Zn121 2.024 . S
O137 C124 1.058 . S
C138 O127 1.260 . S
C138 O128 1.258 . S
C139 O135 1.260 . S
C139 O136 1.258 . S
Zn140 O146 1.969 . S
Zn140 O147 1.965 . S
Zn140 O151 2.024 . S
Zn140 O156 1.969 . S
Zn141 O148 1.969 . S
Zn141 O154 1.969 . S
Zn141 O155 1.965 . S
Zn141 O157 2.024 . S
C142 O143 1.229 . S
C142 O151 1.058 . S
O143 C142 1.229 . S
C144 O145 1.229 . S
C144 O157 1.058 . S
O145 C144 1.229 . S
O146 Zn140 1.969 . S
O146 C149 1.267 . S
O147 Zn140 1.965 . S
O147 C158 1.260 . S
O148 Zn141 1.969 . S
O148 C158 1.258 . S
C149 O146 1.267 . S
C149 O150 1.228 . S
O150 C149 1.228 . S
O151 Zn140 2.024 . S
O151 C142 1.058 . S
C152 O153 1.228 . S
C152 O154 1.267 . S
O153 C152 1.228 . S
O154 Zn141 1.969 . S
O154 C152 1.267 . S
O155 Zn141 1.965 . S
O155 C159 1.260 . S
O156 Zn140 1.969 . S
O156 C159 1.258 . S
O157 Zn141 2.024 . S
O157 C144 1.058 . S
C158 O147 1.260 . S
C158 O148 1.258 . S
C159 O155 1.260 . S
C159 O156 1.258 . S
Co160 O163 2.042 . S
Co160 O170 2.264 . S
Co160 O189 2.286 . S
Co160 O190 2.069 . S
Co160 O192 2.015 1_455 S
Co161 O163 2.122 . S
Co161 O169 2.073 . S
Co161 O170 2.327 . S
Co161 O171 1.976 1_455 S
Co162 O163 2.092 1_545 S
Co162 O165 2.082 1_455 S
Co162 O172 2.106 1_445 S
Co162 O173 2.147 . S
Co162 O177 2.116 . S
Co162 O191 2.140 1_445 S
O163 Co160 2.042 . S
O163 Co161 2.122 . S
O163 Co162 2.092 1_565 S
O163 H164 0.980 . S
H164 O163 0.980 . S
O165 Co162 2.082 1_655 S
O165 Co166 2.042 . S
O165 Co167 2.122 . S
O165 H168 0.980 . S
Co166 O165 2.042 . S
Co166 O174 2.286 . S
Co166 O175 2.069 . S
Co166 O176 2.015 1_655 S
Co166 O179 2.264 . S
Co167 O165 2.122 . S
Co167 O178 1.976 1_655 S
Co167 O179 2.327 . S
Co167 O180 2.073 . S
H168 O165 0.980 . S
O169 Co161 2.073 . S
O169 C184 1.245 . S
O170 Co160 2.264 . S
O170 Co161 2.327 . S
O170 C184 1.257 . S
O171 Co161 1.976 1_655 S
O171 C183 1.251 . S
O172 Co162 2.106 1_665 S
O172 C183 1.274 . S
O173 Co162 2.147 . S
O173 C186 1.246 . S
O174 Co166 2.286 . S
O174 C185 1.259 . S
O175 Co166 2.069 . S
O175 C185 1.289 . S
O176 Co166 2.015 1_455 S
O176 C186 1.257 . S
O177 Co162 2.116 . S
O177 C187 1.274 . S
O178 Co167 1.976 1_455 S
O178 C187 1.251 . S
O179 Co166 2.264 . S
O179 Co167 2.327 . S
O179 C188 1.257 . S
O180 Co167 2.073 . S
O180 C188 1.245 . S
C181 O189 1.259 . S
C181 O190 1.289 . S
C182 O191 1.246 . S
C182 O192 1.257 . S
C183 O171 1.251 . S
C183 O172 1.274 . S
C184 O169 1.245 . S
C184 O170 1.257 . S
C185 O174 1.259 . S
C185 O175 1.289 . S
C186 O173 1.246 . S
C186 O176 1.257 . S
C187 O177 1.274 . S
C187 O178 1.251 . S
C188 O179 1.257 . S
C188 O180 1.245 . S
O189 Co160 2.286 . S
O189 C181 1.259 . S
O190 Co160 2.069 . S
O190 C181 1.289 . S
O191 Co162 2.140 1_665 S
O191 C182 1.246 . S
O192 Co160 2.015 1_655 S
O192 C182 1.257 . S
Co193 O196 2.042 1_556 S
Co193 O203 2.264 1_556 S
Co193 O222 2.286 . S
Co193 O223 2.069 . S
Co193 O225 2.015 . S
Co194 O196 2.122 . S
Co194 O202 2.073 . S
Co194 O203 2.327 . S
Co194 O204 1.976 . S
Co195 O196 2.086 1_545 S
Co195 O198 2.088 1_554 S
Co195 O205 2.111 1_545 S
Co195 O206 2.144 . S
Co195 O210 2.112 1_554 S
Co195 O224 2.143 1_544 S
O196 Co193 2.042 1_554 S
O196 Co194 2.122 . S
O196 Co195 2.086 1_565 S
O196 H197 0.980 . S
H197 O196 0.980 . S
O198 Co195 2.088 1_556 S
O198 Co199 2.042 1_556 S
O198 Co200 2.122 . S
O198 H201 0.980 . S
Co199 O198 2.042 1_554 S
Co199 O207 2.286 . S
Co199 O208 2.069 . S
Co199 O209 2.015 . S
Co199 O212 2.264 1_554 S
Co200 O198 2.122 . S
Co200 O211 1.976 . S
Co200 O212 2.327 . S
Co200 O213 2.073 . S
H201 O198 0.980 . S
O202 Co194 2.073 . S
O202 C217 1.245 . S
O203 Co193 2.264 1_554 S
O203 Co194 2.327 . S
O203 C217 1.257 . S
O204 Co194 1.976 . S
O204 C216 1.251 . S
O205 Co195 2.111 1_565 S
O205 C216 1.274 . S
O206 Co195 2.144 . S
O206 C219 1.246 . S
O207 Co199 2.286 . S
O207 C218 1.259 . S
O208 Co199 2.069 . S
O208 C218 1.289 . S
O209 Co199 2.015 . S
O209 C219 1.257 . S
O210 Co195 2.112 1_556 S
O210 C220 1.274 . S
O211 Co200 1.976 . S
O211 C220 1.251 . S
O212 Co199 2.264 1_556 S
O212 Co200 2.327 . S
O212 C221 1.257 . S
O213 Co200 2.073 . S
O213 C221 1.245 . S
C214 O222 1.259 . S
C214 O223 1.289 . S
C215 O224 1.246 . S
C215 O225 1.257 . S
C216 O204 1.251 . S
C216 O205 1.274 . S
C217 O202 1.245 . S
C217 O203 1.257 . S
C218 O207 1.259 . S
C218 O208 1.289 . S
C219 O206 1.246 . S
C219 O209 1.257 . S
C220 O210 1.274 . S
C220 O211 1.251 . S
C221 O212 1.257 . S
C221 O213 1.245 . S
O222 Co193 2.286 . S
O222 C214 1.259 . S
O223 Co193 2.069 . S
O223 C214 1.289 . S
O224 Co195 2.143 1_566 S
O224 C215 1.246 . S
O225 Co193 2.015 . S
O225 C215 1.257 . S
Co226 O229 2.042 1_556 S
Co226 O236 2.264 1_556 S
Co226 O255 2.286 . S
Co226 O256 2.069 . S
Co226 O258 2.015 1_455 S
Co227 O229 2.122 . S
Co227 O235 2.073 . S
Co227 O236 2.327 . S
Co227 O237 1.976 1_455 S
Co228 O229 2.093 . S
Co228 O231 2.081 1_454 S
Co228 O238 2.107 1_455 S
Co228 O239 2.146 . S
Co228 O243 2.116 1_554 S
Co228 O257 2.141 1_454 S
O229 Co226 2.042 1_554 S
O229 Co227 2.122 . S
O229 Co228 2.093 . S
O229 H230 0.980 . S
H230 O229 0.980 . S
O231 Co228 2.081 1_656 S
O231 Co232 2.042 1_556 S
O231 Co233 2.122 . S
O231 H234 0.980 . S
Co232 O231 2.042 1_554 S
Co232 O240 2.286 . S
Co232 O241 2.069 . S
Co232 O242 2.015 1_655 S
Co232 O245 2.264 1_554 S
Co233 O231 2.122 . S
Co233 O244 1.976 1_655 S
Co233 O245 2.327 . S
Co233 O246 2.073 . S
H234 O231 0.980 . S
O235 Co227 2.073 . S
O235 C250 1.245 . S
O236 Co226 2.264 1_554 S
O236 Co227 2.327 . S
O236 C250 1.257 . S
O237 Co227 1.976 1_655 S
O237 C249 1.251 . S
O238 Co228 2.107 1_655 S
O238 C249 1.274 . S
O239 Co228 2.146 . S
O239 C252 1.246 . S
O240 Co232 2.286 . S
O240 C251 1.259 . S
O241 Co232 2.069 . S
O241 C251 1.289 . S
O242 Co232 2.015 1_455 S
O242 C252 1.257 . S
O243 Co228 2.116 1_556 S
O243 C253 1.274 . S
O244 Co233 1.976 1_455 S
O244 C253 1.251 . S
O245 Co232 2.264 1_556 S
O245 Co233 2.327 . S
O245 C254 1.257 . S
O246 Co233 2.073 . S
O246 C254 1.245 . S
C247 O255 1.259 . S
C247 O256 1.289 . S
C248 O257 1.246 . S
C248 O258 1.257 . S
C249 O237 1.251 . S
C249 O238 1.274 . S
C250 O235 1.245 . S
C250 O236 1.257 . S
C251 O240 1.259 . S
C251 O241 1.289 . S
C252 O239 1.246 . S
C252 O242 1.257 . S
C253 O243 1.274 . S
C253 O244 1.251 . S
C254 O245 1.257 . S
C254 O246 1.245 . S
O255 Co226 2.286 . S
O255 C247 1.259 . S
O256 Co226 2.069 . S
O256 C247 1.289 . S
O257 Co228 2.141 1_656 S
O257 C248 1.246 . S
O258 Co226 2.015 1_655 S
O258 C248 1.257 . S
Co259 O262 2.042 1_556 S
Co259 O269 2.264 1_556 S
Co259 O288 2.286 . S
Co259 O289 2.069 . S
Co259 O291 2.015 . S
Co260 O262 2.122 . S
Co260 O268 2.073 . S
Co260 O269 2.327 . S
Co260 O270 1.976 . S
Co261 O262 2.087 . S
Co261 O264 2.087 1_554 S
Co261 O271 2.111 . S
Co261 O272 2.143 . S
Co261 O276 2.111 1_554 S
Co261 O290 2.143 1_554 S
O262 Co259 2.042 1_554 S
O262 Co260 2.122 . S
O262 Co261 2.087 . S
O262 H263 0.980 . S
H263 O262 0.980 . S
O264 Co261 2.087 1_556 S
O264 Co265 2.042 1_556 S
O264 Co266 2.122 . S
O264 H267 0.980 . S
Co265 O264 2.042 1_554 S
Co265 O273 2.286 . S
Co265 O274 2.069 . S
Co265 O275 2.015 . S
Co265 O278 2.264 1_554 S
Co266 O264 2.122 . S
Co266 O277 1.976 . S
Co266 O278 2.327 . S
Co266 O279 2.073 . S
H267 O264 0.980 . S
O268 Co260 2.073 . S
O268 C283 1.245 . S
O269 Co259 2.264 1_554 S
O269 Co260 2.327 . S
O269 C283 1.257 . S
O270 Co260 1.976 . S
O270 C282 1.251 . S
O271 Co261 2.111 . S
O271 C282 1.274 . S
O272 Co261 2.143 . S
O272 C285 1.246 . S
O273 Co265 2.286 . S
O273 C284 1.259 . S
O274 Co265 2.069 . S
O274 C284 1.289 . S
O275 Co265 2.015 . S
O275 C285 1.257 . S
O276 Co261 2.111 1_556 S
O276 C286 1.274 . S
O277 Co266 1.976 . S
O277 C286 1.251 . S
O278 Co265 2.264 1_556 S
O278 Co266 2.327 . S
O278 C287 1.257 . S
O279 Co266 2.073 . S
O279 C287 1.245 . S
C280 O288 1.259 . S
C280 O289 1.289 . S
C281 O290 1.246 . S
C281 O291 1.257 . S
C282 O270 1.251 . S
C282 O271 1.274 . S
C283 O268 1.245 . S
C283 O269 1.257 . S
C284 O273 1.259 . S
C284 O274 1.289 . S
C285 O272 1.246 . S
C285 O275 1.257 . S
C286 O276 1.274 . S
C286 O277 1.251 . S
C287 O278 1.257 . S
C287 O279 1.245 . S
O288 Co259 2.286 . S
O288 C280 1.259 . S
O289 Co259 2.069 . S
O289 C280 1.289 . S
O290 Co261 2.143 1_556 S
O290 C281 1.246 . S
O291 Co259 2.015 . S
O291 C281 1.257 . S
Co292 O295 2.042 . S
Co292 O302 2.264 . S
Co292 O321 2.286 . S
Co292 O322 2.069 . S
Co292 O324 2.015 . S
Co293 O295 2.122 . S
Co293 O301 2.073 . S
Co293 O302 2.327 . S
Co293 O303 1.976 . S
Co294 O295 2.093 . S
Co294 O297 2.081 1_455 S
Co294 O304 2.114 . S
Co294 O305 2.139 1_455 S
Co294 O309 2.109 1_455 S
Co294 O323 2.148 . S
O295 Co292 2.042 . S
O295 Co293 2.122 . S
O295 Co294 2.093 . S
O295 H296 0.980 . S
H296 O295 0.980 . S
O297 Co294 2.081 1_655 S
O297 Co298 2.042 . S
O297 Co299 2.122 . S
O297 H300 0.980 . S
Co298 O297 2.042 . S
Co298 O306 2.286 . S
Co298 O307 2.069 . S
Co298 O308 2.015 . S
Co298 O311 2.264 . S
Co299 O297 2.122 . S
Co299 O310 1.976 . S
Co299 O311 2.327 . S
Co299 O312 2.073 . S
H300 O297 0.980 . S
O301 Co293 2.073 . S
O301 C316 1.245 . S
O302 Co292 2.264 . S
O302 Co293 2.327 . S
O302 C316 1.257 . S
O303 Co293 1.976 . S
O303 C315 1.251 . S
O304 Co294 2.114 . S
O304 C315 1.274 . S
O305 Co294 2.139 1_655 S
O305 C318 1.246 . S
O306 Co298 2.286 . S
O306 C317 1.259 . S
O307 Co298 2.069 . S
O307 C317 1.289 . S
O308 Co298 2.015 . S
O308 C318 1.257 . S
O309 Co294 2.109 1_655 S
O309 C319 1.274 . S
O310 Co299 1.976 . S
O310 C319 1.251 . S
O311 Co298 2.264 . S
O311 Co299 2.327 . S
O311 C320 1.257 . S
O312 Co299 2.073 . S
O312 C320 1.245 . S
C313 O321 1.259 . S
C313 O322 1.289 . S
C314 O323 1.246 . S
C314 O324 1.257 . S
C315 O303 1.251 . S
C315 O304 1.274 . S
C316 O301 1.245 . S
C316 O302 1.257 . S
C317 O306 1.259 . S
C317 O307 1.289 . S
C318 O305 1.246 . S
C318 O308 1.257 . S
C319 O309 1.274 . S
C319 O310 1.251 . S
C320 O311 1.257 . S
C320 O312 1.245 . S
O321 Co292 2.286 . S
O321 C313 1.259 . S
O322 Co292 2.069 . S
O322 C313 1.289 . S
O323 Co294 2.148 . S
O323 C314 1.246 . S
O324 Co292 2.015 . S
O324 C314 1.257 . S
Co325 O328 2.042 . S
Co325 O335 2.264 . S
Co325 O354 2.286 . S
Co325 O355 2.069 . S
Co325 O357 2.015 1_565 S
Co326 O328 2.122 . S
Co326 O334 2.073 . S
Co326 O335 2.327 . S
Co326 O336 1.976 1_565 S
Co327 O328 2.086 1_545 S
Co327 O330 2.088 . S
Co327 O337 2.112 . S
Co327 O338 2.143 1_545 S
Co327 O342 2.110 1_545 S
Co327 O356 2.144 . S
O328 Co325 2.042 . S
O328 Co326 2.122 . S
O328 Co327 2.086 1_565 S
O328 H329 0.980 . S
H329 O328 0.980 . S
O330 Co327 2.088 . S
O330 Co331 2.042 . S
O330 Co332 2.122 . S
O330 H333 0.980 . S
Co331 O330 2.042 . S
Co331 O339 2.286 . S
Co331 O340 2.069 . S
Co331 O341 2.015 1_545 S
Co331 O344 2.264 . S
Co332 O330 2.122 . S
Co332 O343 1.976 1_545 S
Co332 O344 2.327 . S
Co332 O345 2.073 . S
H333 O330 0.980 . S
O334 Co326 2.073 . S
O334 C349 1.245 . S
O335 Co325 2.264 . S
O335 Co326 2.327 . S
O335 C349 1.257 . S
O336 Co326 1.976 1_545 S
O336 C348 1.251 . S
O337 Co327 2.112 . S
O337 C348 1.274 . S
O338 Co327 2.143 1_565 S
O338 C351 1.246 . S
O339 Co331 2.286 . S
O339 C350 1.259 . S
O340 Co331 2.069 . S
O340 C350 1.289 . S
O341 Co331 2.015 1_565 S
O341 C351 1.257 . S
O342 Co327 2.110 1_565 S
O342 C352 1.274 . S
O343 Co332 1.976 1_565 S
O343 C352 1.251 . S
O344 Co331 2.264 . S
O344 Co332 2.327 . S
O344 C353 1.257 . S
O345 Co332 2.073 . S
O345 C353 1.245 . S
C346 O354 1.259 . S
C346 O355 1.289 . S
C347 O356 1.246 . S
C347 O357 1.257 . S
C348 O336 1.251 . S
C348 O337 1.274 . S
C349 O334 1.245 . S
C349 O335 1.257 . S
C350 O339 1.259 . S
C350 O340 1.289 . S
C351 O338 1.246 . S
C351 O341 1.257 . S
C352 O342 1.274 . S
C352 O343 1.251 . S
C353 O344 1.257 . S
C353 O345 1.245 . S
O354 Co325 2.286 . S
O354 C346 1.259 . S
O355 Co325 2.069 . S
O355 C346 1.289 . S
O356 Co327 2.144 . S
O356 C347 1.246 . S
O357 Co325 2.015 1_545 S
O357 C347 1.257 . S
C358 C359 1.349 . S
C358 C360 1.327 . S
C358 H383 0.950 . S
C359 C358 1.349 . S
C359 C375 1.349 . S
C360 C358 1.327 . S
C360 C379 1.429 . S
C360 H384 0.950 . S
C361 C378 1.574 . S
C361 C380 1.368 . S
C361 H385 0.949 . S
H362 C366 0.949 . S
C363 C364 1.349 . S
C363 C365 1.327 . S
C363 H386 0.950 . S
C364 C363 1.349 . S
C364 C376 1.349 . S
C365 C363 1.327 . S
C365 C381 1.429 . S
C365 H387 0.950 . S
C366 H362 0.949 . S
C366 C374 1.574 . S
C366 C382 1.368 . S
H367 C375 0.950 . S
H368 C373 0.950 . S
H369 C374 0.949 . S
H370 C376 0.950 . S
H371 C377 0.950 . S
H372 C378 0.949 . S
C373 H368 0.950 . S
C373 C375 1.327 . S
C373 C379 1.429 . S
C374 C366 1.574 . S
C374 H369 0.949 . S
C374 C380 1.368 . S
C375 C359 1.349 . S
C375 H367 0.950 . S
C375 C373 1.327 . S
C376 C364 1.349 . S
C376 H370 0.950 . S
C376 C377 1.327 . S
C377 H371 0.950 . S
C377 C376 1.327 . S
C377 C381 1.429 . S
C378 C361 1.574 . S
C378 H372 0.949 . S
C378 C382 1.368 . S
C379 C360 1.429 . S
C379 C373 1.429 . S
C379 C380 1.523 . S
C380 C361 1.368 . S
C380 C374 1.368 . S
C380 C379 1.523 . S
C381 C365 1.429 . S
C381 C377 1.429 . S
C381 C382 1.523 . S
C382 C366 1.368 . S
C382 C378 1.368 . S
C382 C381 1.523 . S
H383 C358 0.950 . S
H384 C360 0.950 . S
H385 C361 0.949 . S
H386 C363 0.950 . S
H387 C365 0.950 . S
C388 C389 1.349 . S
C388 C390 1.327 . S
C388 H413 0.950 . S
C389 C388 1.349 . S
C389 C405 1.349 . S
C390 C388 1.327 . S
C390 C409 1.429 . S
C390 H414 0.950 . S
C391 C408 1.574 . S
C391 C410 1.368 . S
C391 H415 0.949 . S
H392 C396 0.949 . S
C393 C394 1.349 . S
C393 C395 1.327 . S
C393 H416 0.950 . S
C394 C393 1.349 . S
C394 C406 1.349 . S
C395 C393 1.327 . S
C395 C411 1.429 . S
C395 H417 0.950 . S
C396 H392 0.949 . S
C396 C404 1.574 . S
C396 C412 1.368 . S
H397 C405 0.950 . S
H398 C403 0.950 . S
H399 C404 0.949 . S
H400 C406 0.950 . S
H401 C407 0.950 . S
H402 C408 0.949 . S
C403 H398 0.950 . S
C403 C405 1.327 . S
C403 C409 1.429 . S
C404 C396 1.574 . S
C404 H399 0.949 . S
C404 C410 1.368 . S
C405 C389 1.349 . S
C405 H397 0.950 . S
C405 C403 1.327 . S
C406 C394 1.349 . S
C406 H400 0.950 . S
C406 C407 1.327 . S
C407 H401 0.950 . S
C407 C406 1.327 . S
C407 C411 1.429 . S
C408 C391 1.574 . S
C408 H402 0.949 . S
C408 C412 1.368 . S
C409 C390 1.429 . S
C409 C403 1.429 . S
C409 C410 1.523 . S
C410 C391 1.368 . S
C410 C404 1.368 . S
C410 C409 1.523 . S
C411 C395 1.429 . S
C411 C407 1.429 . S
C411 C412 1.523 . S
C412 C396 1.368 . S
C412 C408 1.368 . S
C412 C411 1.523 . S
H413 C388 0.950 . S
H414 C390 0.950 . S
H415 C391 0.949 . S
H416 C393 0.950 . S
H417 C395 0.950 . S
C418 C419 1.349 . S
C418 C420 1.327 . S
C418 H443 0.950 . S
C419 C418 1.349 . S
C419 C435 1.349 . S
C420 C418 1.327 . S
C420 C439 1.429 . S
C420 H444 0.950 . S
C421 C438 1.574 . S
C421 C440 1.368 . S
C421 H445 0.949 . S
H422 C426 0.949 . S
C423 C424 1.349 . S
C423 C425 1.327 . S
C423 H446 0.950 . S
C424 C423 1.349 . S
C424 C436 1.349 . S
C425 C423 1.327 . S
C425 C441 1.429 . S
C425 H447 0.950 . S
C426 H422 0.949 . S
C426 C434 1.574 . S
C426 C442 1.368 . S
H427 C435 0.950 . S
H428 C433 0.950 . S
H429 C434 0.949 . S
H430 C436 0.950 . S
H431 C437 0.950 . S
H432 C438 0.949 . S
C433 H428 0.950 . S
C433 C435 1.327 . S
C433 C439 1.429 . S
C434 C426 1.574 . S
C434 H429 0.949 . S
C434 C440 1.368 . S
C435 C419 1.349 . S
C435 H427 0.950 . S
C435 C433 1.327 . S
C436 C424 1.349 . S
C436 H430 0.950 . S
C436 C437 1.327 . S
C437 H431 0.950 . S
C437 C436 1.327 . S
C437 C441 1.429 . S
C438 C421 1.574 . S
C438 H432 0.949 . S
C438 C442 1.368 . S
C439 C420 1.429 . S
C439 C433 1.429 . S
C439 C440 1.523 . S
C440 C421 1.368 . S
C440 C434 1.368 . S
C440 C439 1.523 . S
C441 C425 1.429 . S
C441 C437 1.429 . S
C441 C442 1.523 . S
C442 C426 1.368 . S
C442 C438 1.368 . S
C442 C441 1.523 . S
H443 C418 0.950 . S
H444 C420 0.950 . S
H445 C421 0.949 . S
H446 C423 0.950 . S
H447 C425 0.950 . S
C448 C449 1.349 . S
C448 C450 1.327 . S
C448 H473 0.950 . S
C449 C448 1.349 . S
C449 C465 1.349 . S
C450 C448 1.327 . S
C450 C469 1.429 . S
C450 H474 0.950 . S
C451 C468 1.574 . S
C451 C470 1.368 . S
C451 H475 0.949 . S
H452 C456 0.949 . S
C453 C454 1.349 . S
C453 C455 1.327 . S
C453 H476 0.950 . S
C454 C453 1.349 . S
C454 C466 1.349 . S
C455 C453 1.327 . S
C455 C471 1.429 . S
C455 H477 0.950 . S
C456 H452 0.949 . S
C456 C464 1.574 . S
C456 C472 1.368 . S
H457 C465 0.950 . S
H458 C463 0.950 . S
H459 C464 0.949 . S
H460 C466 0.950 . S
H461 C467 0.950 . S
H462 C468 0.949 . S
C463 H458 0.950 . S
C463 C465 1.327 . S
C463 C469 1.429 . S
C464 C456 1.574 . S
C464 H459 0.949 . S
C464 C470 1.368 . S
C465 C449 1.349 . S
C465 H457 0.950 . S
C465 C463 1.327 . S
C466 C454 1.349 . S
C466 H460 0.950 . S
C466 C467 1.327 . S
C467 H461 0.950 . S
C467 C466 1.327 . S
C467 C471 1.429 . S
C468 C451 1.574 . S
C468 H462 0.949 . S
C468 C472 1.368 . S
C469 C450 1.429 . S
C469 C463 1.429 . S
C469 C470 1.523 . S
C470 C451 1.368 . S
C470 C464 1.368 . S
C470 C469 1.523 . S
C471 C455 1.429 . S
C471 C467 1.429 . S
C471 C472 1.523 . S
C472 C456 1.368 . S
C472 C468 1.368 . S
C472 C471 1.523 . S
H473 C448 0.950 . S
H474 C450 0.950 . S
H475 C451 0.949 . S
H476 C453 0.950 . S
H477 C455 0.950 . S
C478 C479 1.349 . S
C478 C480 1.327 . S
C478 H503 0.950 . S
C479 C478 1.349 . S
C479 C495 1.349 . S
C480 C478 1.327 . S
C480 C499 1.429 . S
C480 H504 0.950 . S
C481 C498 1.574 . S
C481 C500 1.368 . S
C481 H505 0.949 . S
H482 C486 0.949 . S
C483 C484 1.349 . S
C483 C485 1.327 . S
C483 H506 0.950 . S
C484 C483 1.349 . S
C484 C496 1.349 . S
C485 C483 1.327 . S
C485 C501 1.429 . S
C485 H507 0.950 . S
C486 H482 0.949 . S
C486 C494 1.574 . S
C486 C502 1.368 . S
H487 C495 0.950 . S
H488 C493 0.950 . S
H489 C494 0.949 . S
H490 C496 0.950 . S
H491 C497 0.950 . S
H492 C498 0.949 . S
C493 H488 0.950 . S
C493 C495 1.327 . S
C493 C499 1.429 . S
C494 C486 1.574 . S
C494 H489 0.949 . S
C494 C500 1.368 . S
C495 C479 1.349 . S
C495 H487 0.950 . S
C495 C493 1.327 . S
C496 C484 1.349 . S
C496 H490 0.950 . S
C496 C497 1.327 . S
C497 H491 0.950 . S
C497 C496 1.327 . S
C497 C501 1.429 . S
C498 C481 1.574 . S
C498 H492 0.949 . S
C498 C502 1.368 . S
C499 C480 1.429 . S
C499 C493 1.429 . S
C499 C500 1.523 . S
C500 C481 1.368 . S
C500 C494 1.368 . S
C500 C499 1.523 . S
C501 C485 1.429 . S
C501 C497 1.429 . S
C501 C502 1.523 . S
C502 C486 1.368 . S
C502 C498 1.368 . S
C502 C501 1.523 . S
H503 C478 0.950 . S
H504 C480 0.950 . S
H505 C481 0.949 . S
H506 C483 0.950 . S
H507 C485 0.950 . S
C508 C509 1.349 . S
C508 C510 1.327 . S
C508 H533 0.950 . S
C509 C508 1.349 . S
C509 C525 1.349 . S
C510 C508 1.327 . S
C510 C529 1.429 . S
C510 H534 0.950 . S
C511 C528 1.574 . S
C511 C530 1.368 . S
C511 H535 0.949 . S
H512 C516 0.949 . S
C513 C514 1.349 . S
C513 C515 1.327 . S
C513 H536 0.950 . S
C514 C513 1.349 . S
C514 C526 1.349 . S
C515 C513 1.327 . S
C515 C531 1.429 . S
C515 H537 0.950 . S
C516 H512 0.949 . S
C516 C524 1.574 . S
C516 C532 1.368 . S
H517 C525 0.950 . S
H518 C523 0.950 . S
H519 C524 0.949 . S
H520 C526 0.950 . S
H521 C527 0.950 . S
H522 C528 0.949 . S
C523 H518 0.950 . S
C523 C525 1.327 . S
C523 C529 1.429 . S
C524 C516 1.574 . S
C524 H519 0.949 . S
C524 C530 1.368 . S
C525 C509 1.349 . S
C525 H517 0.950 . S
C525 C523 1.327 . S
C526 C514 1.349 . S
C526 H520 0.950 . S
C526 C527 1.327 . S
C527 H521 0.950 . S
C527 C526 1.327 . S
C527 C531 1.429 . S
C528 C511 1.574 . S
C528 H522 0.949 . S
C528 C532 1.368 . S
C529 C510 1.429 . S
C529 C523 1.429 . S
C529 C530 1.523 . S
C530 C511 1.368 . S
C530 C524 1.368 . S
C530 C529 1.523 . S
C531 C515 1.429 . S
C531 C527 1.429 . S
C531 C532 1.523 . S
C532 C516 1.368 . S
C532 C528 1.368 . S
C532 C531 1.523 . S
H533 C508 0.950 . S
H534 C510 0.950 . S
H535 C511 0.949 . S
H536 C513 0.950 . S
H537 C515 0.950 . S
C538 C539 1.349 . S
C538 C540 1.327 . S
C538 H563 0.950 . S
C539 C538 1.349 . S
C539 C555 1.349 . S
C540 C538 1.327 . S
C540 C559 1.429 . S
C540 H564 0.950 . S
C541 C558 1.574 . S
C541 C560 1.368 . S
C541 H565 0.949 . S
H542 C546 0.949 . S
C543 C544 1.349 . S
C543 C545 1.327 . S
C543 H566 0.950 . S
C544 C543 1.349 . S
C544 C556 1.349 . S
C545 C543 1.327 . S
C545 C561 1.429 . S
C545 H567 0.950 . S
C546 H542 0.949 . S
C546 C554 1.574 . S
C546 C562 1.368 . S
H547 C555 0.950 . S
H548 C553 0.950 . S
H549 C554 0.949 . S
H550 C556 0.950 . S
H551 C557 0.950 . S
H552 C558 0.949 . S
C553 H548 0.950 . S
C553 C555 1.327 . S
C553 C559 1.429 . S
C554 C546 1.574 . S
C554 H549 0.949 . S
C554 C560 1.368 . S
C555 C539 1.349 . S
C555 H547 0.950 . S
C555 C553 1.327 . S
C556 C544 1.349 . S
C556 H550 0.950 . S
C556 C557 1.327 . S
C557 H551 0.950 . S
C557 C556 1.327 . S
C557 C561 1.429 . S
C558 C541 1.574 . S
C558 H552 0.949 . S
C558 C562 1.368 . S
C559 C540 1.429 . S
C559 C553 1.429 . S
C559 C560 1.523 . S
C560 C541 1.368 . S
C560 C554 1.368 . S
C560 C559 1.523 . S
C561 C545 1.429 . S
C561 C557 1.429 . S
C561 C562 1.523 . S
C562 C546 1.368 . S
C562 C558 1.368 . S
C562 C561 1.523 . S
H563 C538 0.950 . S
H564 C540 0.950 . S
H565 C541 0.949 . S
H566 C543 0.950 . S
H567 C545 0.950 . S
C568 C569 1.349 . S
C568 C570 1.327 . S
C568 H593 0.950 . S
C569 C568 1.349 . S
C569 C585 1.349 . S
C570 C568 1.327 . S
C570 C589 1.429 . S
C570 H594 0.950 . S
C571 C588 1.574 . S
C571 C590 1.368 . S
C571 H595 0.949 . S
H572 C576 0.949 . S
C573 C574 1.349 . S
C573 C575 1.327 . S
C573 H596 0.950 . S
C574 C573 1.349 . S
C574 C586 1.349 . S
C575 C573 1.327 . S
C575 C591 1.429 . S
C575 H597 0.950 . S
C576 H572 0.949 . S
C576 C584 1.574 . S
C576 C592 1.368 . S
H577 C585 0.950 . S
H578 C583 0.950 . S
H579 C584 0.949 . S
H580 C586 0.950 . S
H581 C587 0.950 . S
H582 C588 0.949 . S
C583 H578 0.950 . S
C583 C585 1.327 . S
C583 C589 1.429 . S
C584 C576 1.574 . S
C584 H579 0.949 . S
C584 C590 1.368 . S
C585 C569 1.349 . S
C585 H577 0.950 . S
C585 C583 1.327 . S
C586 C574 1.349 . S
C586 H580 0.950 . S
C586 C587 1.327 . S
C587 H581 0.950 . S
C587 C586 1.327 . S
C587 C591 1.429 . S
C588 C571 1.574 . S
C588 H582 0.949 . S
C588 C592 1.368 . S
C589 C570 1.429 . S
C589 C583 1.429 . S
C589 C590 1.523 . S
C590 C571 1.368 . S
C590 C584 1.368 . S
C590 C589 1.523 . S
C591 C575 1.429 . S
C591 C587 1.429 . S
C591 C592 1.523 . S
C592 C576 1.368 . S
C592 C588 1.368 . S
C592 C591 1.523 . S
H593 C568 0.950 . S
H594 C570 0.950 . S
H595 C571 0.949 . S
H596 C573 0.950 . S
H597 C575 0.950 . S
C598 C599 1.349 . S
C598 C600 1.327 . S
C598 H623 0.950 . S
C599 C598 1.349 . S
C599 C615 1.349 . S
C600 C598 1.327 . S
C600 C619 1.429 . S
C600 H624 0.950 . S
C601 C618 1.574 . S
C601 C620 1.368 . S
C601 H625 0.949 . S
H602 C606 0.949 . S
C603 C604 1.349 . S
C603 C605 1.327 . S
C603 H626 0.950 . S
C604 C603 1.349 . S
C604 C616 1.349 . S
C605 C603 1.327 . S
C605 C621 1.429 . S
C605 H627 0.950 . S
C606 H602 0.949 . S
C606 C614 1.574 . S
C606 C622 1.368 . S
H607 C615 0.950 . S
H608 C613 0.950 . S
H609 C614 0.949 . S
H610 C616 0.950 . S
H611 C617 0.950 . S
H612 C618 0.949 . S
C613 H608 0.950 . S
C613 C615 1.327 . S
C613 C619 1.429 . S
C614 C606 1.574 . S
C614 H609 0.949 . S
C614 C620 1.368 . S
C615 C599 1.349 . S
C615 H607 0.950 . S
C615 C613 1.327 . S
C616 C604 1.349 . S
C616 H610 0.950 . S
C616 C617 1.327 . S
C617 H611 0.950 . S
C617 C616 1.327 . S
C617 C621 1.429 . S
C618 C601 1.574 . S
C618 H612 0.949 . S
C618 C622 1.368 . S
C619 C600 1.429 . S
C619 C613 1.429 . S
C619 C620 1.523 . S
C620 C601 1.368 . S
C620 C614 1.368 . S
C620 C619 1.523 . S
C621 C605 1.429 . S
C621 C617 1.429 . S
C621 C622 1.523 . S
C622 C606 1.368 . S
C622 C618 1.368 . S
C622 C621 1.523 . S
H623 C598 0.950 . S
H624 C600 0.950 . S
H625 C601 0.949 . S
H626 C603 0.950 . S
H627 C605 0.950 . S
C628 C629 1.349 . S
C628 C630 1.327 . S
C628 H653 0.950 . S
C629 C628 1.349 . S
C629 C645 1.349 . S
C630 C628 1.327 . S
C630 C649 1.429 . S
C630 H654 0.950 . S
C631 C648 1.574 . S
C631 C650 1.368 . S
C631 H655 0.949 . S
H632 C636 0.949 . S
C633 C634 1.349 . S
C633 C635 1.327 . S
C633 H656 0.950 . S
C634 C633 1.349 . S
C634 C646 1.349 . S
C635 C633 1.327 . S
C635 C651 1.429 . S
C635 H657 0.950 . S
C636 H632 0.949 . S
C636 C644 1.574 . S
C636 C652 1.368 . S
H637 C645 0.950 . S
H638 C643 0.950 . S
H639 C644 0.949 . S
H640 C646 0.950 . S
H641 C647 0.950 . S
H642 C648 0.949 . S
C643 H638 0.950 . S
C643 C645 1.327 . S
C643 C649 1.429 . S
C644 C636 1.574 . S
C644 H639 0.949 . S
C644 C650 1.368 . S
C645 C629 1.349 . S
C645 H637 0.950 . S
C645 C643 1.327 . S
C646 C634 1.349 . S
C646 H640 0.950 . S
C646 C647 1.327 . S
C647 H641 0.950 . S
C647 C646 1.327 . S
C647 C651 1.429 . S
C648 C631 1.574 . S
C648 H642 0.949 . S
C648 C652 1.368 . S
C649 C630 1.429 . S
C649 C643 1.429 . S
C649 C650 1.523 . S
C650 C631 1.368 . S
C650 C644 1.368 . S
C650 C649 1.523 . S
C651 C635 1.429 . S
C651 C647 1.429 . S
C651 C652 1.523 . S
C652 C636 1.368 . S
C652 C648 1.368 . S
C652 C651 1.523 . S
H653 C628 0.950 . S
H654 C630 0.950 . S
H655 C631 0.949 . S
H656 C633 0.950 . S
H657 C635 0.950 . S
C658 C659 1.349 . S
C658 C660 1.327 . S
C658 H683 0.950 . S
C659 C658 1.349 . S
C659 C675 1.349 . S
C660 C658 1.327 . S
C660 C679 1.429 . S
C660 H684 0.950 . S
C661 C678 1.574 . S
C661 C680 1.368 . S
C661 H685 0.949 . S
H662 C666 0.949 . S
C663 C664 1.349 . S
C663 C665 1.327 . S
C663 H686 0.950 . S
C664 C663 1.349 . S
C664 C676 1.349 . S
C665 C663 1.327 . S
C665 C681 1.429 . S
C665 H687 0.950 . S
C666 H662 0.949 . S
C666 C674 1.574 . S
C666 C682 1.368 . S
H667 C675 0.950 . S
H668 C673 0.950 . S
H669 C674 0.949 . S
H670 C676 0.950 . S
H671 C677 0.950 . S
H672 C678 0.949 . S
C673 H668 0.950 . S
C673 C675 1.327 . S
C673 C679 1.429 . S
C674 C666 1.574 . S
C674 H669 0.949 . S
C674 C680 1.368 . S
C675 C659 1.349 . S
C675 H667 0.950 . S
C675 C673 1.327 . S
C676 C664 1.349 . S
C676 H670 0.950 . S
C676 C677 1.327 . S
C677 H671 0.950 . S
C677 C676 1.327 . S
C677 C681 1.429 . S
C678 C661 1.574 . S
C678 H672 0.949 . S
C678 C682 1.368 . S
C679 C660 1.429 . S
C679 C673 1.429 . S
C679 C680 1.523 . S
C680 C661 1.368 . S
C680 C674 1.368 . S
C680 C679 1.523 . S
C681 C665 1.429 . S
C681 C677 1.429 . S
C681 C682 1.523 . S
C682 C666 1.368 . S
C682 C678 1.368 . S
C682 C681 1.523 . S
H683 C658 0.950 . S
H684 C660 0.950 . S
H685 C661 0.949 . S
H686 C663 0.950 . S
H687 C665 0.950 . S
C688 C689 1.349 . S
C688 C690 1.327 . S
C688 H713 0.950 . S
C689 C688 1.349 . S
C689 C705 1.349 . S
C690 C688 1.327 . S
C690 C709 1.429 . S
C690 H714 0.950 . S
C691 C708 1.574 . S
C691 C710 1.368 . S
C691 H715 0.949 . S
H692 C696 0.949 . S
C693 C694 1.349 . S
C693 C695 1.327 . S
C693 H716 0.950 . S
C694 C693 1.349 . S
C694 C706 1.349 . S
C695 C693 1.327 . S
C695 C711 1.429 . S
C695 H717 0.950 . S
C696 H692 0.949 . S
C696 C704 1.574 . S
C696 C712 1.368 . S
H697 C705 0.950 . S
H698 C703 0.950 . S
H699 C704 0.949 . S
H700 C706 0.950 . S
H701 C707 0.950 . S
H702 C708 0.949 . S
C703 H698 0.950 . S
C703 C705 1.327 . S
C703 C709 1.429 . S
C704 C696 1.574 . S
C704 H699 0.949 . S
C704 C710 1.368 . S
C705 C689 1.349 . S
C705 H697 0.950 . S
C705 C703 1.327 . S
C706 C694 1.349 . S
C706 H700 0.950 . S
C706 C707 1.327 . S
C707 H701 0.950 . S
C707 C706 1.327 . S
C707 C711 1.429 . S
C708 C691 1.574 . S
C708 H702 0.949 . S
C708 C712 1.368 . S
C709 C690 1.429 . S
C709 C703 1.429 . S
C709 C710 1.523 . S
C710 C691 1.368 . S
C710 C704 1.368 . S
C710 C709 1.523 . S
C711 C695 1.429 . S
C711 C707 1.429 . S
C711 C712 1.523 . S
C712 C696 1.368 . S
C712 C708 1.368 . S
C712 C711 1.523 . S
H713 C688 0.950 . S
H714 C690 0.950 . S
H715 C691 0.949 . S
H716 C693 0.950 . S
H717 C695 0.950 . S
C718 C719 1.349 . S
C718 C720 1.327 . S
C718 H743 0.950 . S
C719 C718 1.349 . S
C719 C735 1.349 . S
C720 C718 1.327 . S
C720 C739 1.429 . S
C720 H744 0.950 . S
C721 C738 1.574 . S
C721 C740 1.368 . S
C721 H745 0.949 . S
H722 C726 0.949 . S
C723 C724 1.349 . S
C723 C725 1.327 . S
C723 H746 0.950 . S
C724 C723 1.349 . S
C724 C736 1.349 . S
C725 C723 1.327 . S
C725 C741 1.429 . S
C725 H747 0.950 . S
C726 H722 0.949 . S
C726 C734 1.574 . S
C726 C742 1.368 . S
H727 C735 0.950 . S
H728 C733 0.950 . S
H729 C734 0.949 . S
H730 C736 0.950 . S
H731 C737 0.950 . S
H732 C738 0.949 . S
C733 H728 0.950 . S
C733 C735 1.327 . S
C733 C739 1.429 . S
C734 C726 1.574 . S
C734 H729 0.949 . S
C734 C740 1.368 . S
C735 C719 1.349 . S
C735 H727 0.950 . S
C735 C733 1.327 . S
C736 C724 1.349 . S
C736 H730 0.950 . S
C736 C737 1.327 . S
C737 H731 0.950 . S
C737 C736 1.327 . S
C737 C741 1.429 . S
C738 C721 1.574 . S
C738 H732 0.949 . S
C738 C742 1.368 . S
C739 C720 1.429 . S
C739 C733 1.429 . S
C739 C740 1.523 . S
C740 C721 1.368 . S
C740 C734 1.368 . S
C740 C739 1.523 . S
C741 C725 1.429 . S
C741 C737 1.429 . S
C741 C742 1.523 . S
C742 C726 1.368 . S
C742 C738 1.368 . S
C742 C741 1.523 . S
H743 C718 0.950 . S
H744 C720 0.950 . S
H745 C721 0.949 . S
H746 C723 0.950 . S
H747 C725 0.950 . S
C748 C749 1.349 . S
C748 C750 1.327 . S
C748 H773 0.950 . S
C749 C748 1.349 . S
C749 C765 1.349 . S
C750 C748 1.327 . S
C750 C769 1.429 . S
C750 H774 0.950 . S
C751 C768 1.574 . S
C751 C770 1.368 . S
C751 H775 0.949 . S
H752 C756 0.949 . S
C753 C754 1.349 . S
C753 C755 1.327 . S
C753 H776 0.950 . S
C754 C753 1.349 . S
C754 C766 1.349 . S
C755 C753 1.327 . S
C755 C771 1.429 . S
C755 H777 0.950 . S
C756 H752 0.949 . S
C756 C764 1.574 . S
C756 C772 1.368 . S
H757 C765 0.950 . S
H758 C763 0.950 . S
H759 C764 0.949 . S
H760 C766 0.950 . S
H761 C767 0.950 . S
H762 C768 0.949 . S
C763 H758 0.950 . S
C763 C765 1.327 . S
C763 C769 1.429 . S
C764 C756 1.574 . S
C764 H759 0.949 . S
C764 C770 1.368 . S
C765 C749 1.349 . S
C765 H757 0.950 . S
C765 C763 1.327 . S
C766 C754 1.349 . S
C766 H760 0.950 . S
C766 C767 1.327 . S
C767 H761 0.950 . S
C767 C766 1.327 . S
C767 C771 1.429 . S
C768 C751 1.574 . S
C768 H762 0.949 . S
C768 C772 1.368 . S
C769 C750 1.429 . S
C769 C763 1.429 . S
C769 C770 1.523 . S
C770 C751 1.368 . S
C770 C764 1.368 . S
C770 C769 1.523 . S
C771 C755 1.429 . S
C771 C767 1.429 . S
C771 C772 1.523 . S
C772 C756 1.368 . S
C772 C768 1.368 . S
C772 C771 1.523 . S
H773 C748 0.950 . S
H774 C750 0.950 . S
H775 C751 0.949 . S
H776 C753 0.950 . S
H777 C755 0.950 . S
C778 C779 1.349 . S
C778 C780 1.327 . S
C778 H803 0.950 . S
C779 C778 1.349 . S
C779 C795 1.349 . S
C780 C778 1.327 . S
C780 C799 1.429 . S
C780 H804 0.950 . S
C781 C798 1.574 . S
C781 C800 1.368 . S
C781 H805 0.949 . S
H782 C786 0.949 . S
C783 C784 1.349 . S
C783 C785 1.327 . S
C783 H806 0.950 . S
C784 C783 1.349 . S
C784 C796 1.349 . S
C785 C783 1.327 . S
C785 C801 1.429 . S
C785 H807 0.950 . S
C786 H782 0.949 . S
C786 C794 1.574 . S
C786 C802 1.368 . S
H787 C795 0.950 . S
H788 C793 0.950 . S
H789 C794 0.949 . S
H790 C796 0.950 . S
H791 C797 0.950 . S
H792 C798 0.949 . S
C793 H788 0.950 . S
C793 C795 1.327 . S
C793 C799 1.429 . S
C794 C786 1.574 . S
C794 H789 0.949 . S
C794 C800 1.368 . S
C795 C779 1.349 . S
C795 H787 0.950 . S
C795 C793 1.327 . S
C796 C784 1.349 . S
C796 H790 0.950 . S
C796 C797 1.327 . S
C797 H791 0.950 . S
C797 C796 1.327 . S
C797 C801 1.429 . S
C798 C781 1.574 . S
C798 H792 0.949 . S
C798 C802 1.368 . S
C799 C780 1.429 . S
C799 C793 1.429 . S
C799 C800 1.523 . S
C800 C781 1.368 . S
C800 C794 1.368 . S
C800 C799 1.523 . S
C801 C785 1.429 . S
C801 C797 1.429 . S
C801 C802 1.523 . S
C802 C786 1.368 . S
C802 C798 1.368 . S
C802 C801 1.523 . S
H803 C778 0.950 . S
H804 C780 0.950 . S
H805 C781 0.949 . S
H806 C783 0.950 . S
H807 C785 0.950 . S
C808 C809 1.349 . S
C808 C810 1.327 . S
C808 H833 0.950 . S
C809 C808 1.349 . S
C809 C825 1.349 . S
C810 C808 1.327 . S
C810 C829 1.429 . S
C810 H834 0.950 . S
C811 C828 1.574 . S
C811 C830 1.368 . S
C811 H835 0.949 . S
H812 C816 0.949 . S
C813 C814 1.349 . S
C813 C815 1.327 . S
C813 H836 0.950 . S
C814 C813 1.349 . S
C814 C826 1.349 . S
C815 C813 1.327 . S
C815 C831 1.429 . S
C815 H837 0.950 . S
C816 H812 0.949 . S
C816 C824 1.574 . S
C816 C832 1.368 . S
H817 C825 0.950 . S
H818 C823 0.950 . S
H819 C824 0.949 . S
H820 C826 0.950 . S
H821 C827 0.950 . S
H822 C828 0.949 . S
C823 H818 0.950 . S
C823 C825 1.327 . S
C823 C829 1.429 . S
C824 C816 1.574 . S
C824 H819 0.949 . S
C824 C830 1.368 . S
C825 C809 1.349 . S
C825 H817 0.950 . S
C825 C823 1.327 . S
C826 C814 1.349 . S
C826 H820 0.950 . S
C826 C827 1.327 . S
C827 H821 0.950 . S
C827 C826 1.327 . S
C827 C831 1.429 . S
C828 C811 1.574 . S
C828 H822 0.949 . S
C828 C832 1.368 . S
C829 C810 1.429 . S
C829 C823 1.429 . S
C829 C830 1.523 . S
C830 C811 1.368 . S
C830 C824 1.368 . S
C830 C829 1.523 . S
C831 C815 1.429 . S
C831 C827 1.429 . S
C831 C832 1.523 . S
C832 C816 1.368 . S
C832 C828 1.368 . S
C832 C831 1.523 . S
H833 C808 0.950 . S
H834 C810 0.950 . S
H835 C811 0.949 . S
H836 C813 0.950 . S
H837 C815 0.950 . S
C838 C839 1.349 . S
C838 C840 1.327 . S
C838 H863 0.950 . S
C839 C838 1.349 . S
C839 C855 1.349 . S
C840 C838 1.327 . S
C840 C859 1.429 . S
C840 H864 0.950 . S
C841 C858 1.574 . S
C841 C860 1.368 . S
C841 H865 0.949 . S
H842 C846 0.949 . S
C843 C844 1.349 . S
C843 C845 1.327 . S
C843 H866 0.950 . S
C844 C843 1.349 . S
C844 C856 1.349 . S
C845 C843 1.327 . S
C845 C861 1.429 . S
C845 H867 0.950 . S
C846 H842 0.949 . S
C846 C854 1.574 . S
C846 C862 1.368 . S
H847 C855 0.950 . S
H848 C853 0.950 . S
H849 C854 0.949 . S
H850 C856 0.950 . S
H851 C857 0.950 . S
H852 C858 0.949 . S
C853 H848 0.950 . S
C853 C855 1.327 . S
C853 C859 1.429 . S
C854 C846 1.574 . S
C854 H849 0.949 . S
C854 C860 1.368 . S
C855 C839 1.349 . S
C855 H847 0.950 . S
C855 C853 1.327 . S
C856 C844 1.349 . S
C856 H850 0.950 . S
C856 C857 1.327 . S
C857 H851 0.950 . S
C857 C856 1.327 . S
C857 C861 1.429 . S
C858 C841 1.574 . S
C858 H852 0.949 . S
C858 C862 1.368 . S
C859 C840 1.429 . S
C859 C853 1.429 . S
C859 C860 1.523 . S
C860 C841 1.368 . S
C860 C854 1.368 . S
C860 C859 1.523 . S
C861 C845 1.429 . S
C861 C857 1.429 . S
C861 C862 1.523 . S
C862 C846 1.368 . S
C862 C858 1.368 . S
C862 C861 1.523 . S
H863 C838 0.950 . S
H864 C840 0.950 . S
H865 C841 0.949 . S
H866 C843 0.950 . S
H867 C845 0.950 . S
C868 C869 1.349 . S
C868 C870 1.327 . S
C868 H893 0.950 . S
C869 C868 1.349 . S
C869 C885 1.349 . S
C870 C868 1.327 . S
C870 C889 1.429 . S
C870 H894 0.950 . S
C871 C888 1.574 . S
C871 C890 1.368 . S
C871 H895 0.949 . S
H872 C876 0.949 . S
C873 C874 1.349 . S
C873 C875 1.327 . S
C873 H896 0.950 . S
C874 C873 1.349 . S
C874 C886 1.349 . S
C875 C873 1.327 . S
C875 C891 1.429 . S
C875 H897 0.950 . S
C876 H872 0.949 . S
C876 C884 1.574 . S
C876 C892 1.368 . S
H877 C885 0.950 . S
H878 C883 0.950 . S
H879 C884 0.949 . S
H880 C886 0.950 . S
H881 C887 0.950 . S
H882 C888 0.949 . S
C883 H878 0.950 . S
C883 C885 1.327 . S
C883 C889 1.429 . S
C884 C876 1.574 . S
C884 H879 0.949 . S
C884 C890 1.368 . S
C885 C869 1.349 . S
C885 H877 0.950 . S
C885 C883 1.327 . S
C886 C874 1.349 . S
C886 H880 0.950 . S
C886 C887 1.327 . S
C887 H881 0.950 . S
C887 C886 1.327 . S
C887 C891 1.429 . S
C888 C871 1.574 . S
C888 H882 0.949 . S
C888 C892 1.368 . S
C889 C870 1.429 . S
C889 C883 1.429 . S
C889 C890 1.523 . S
C890 C871 1.368 . S
C890 C884 1.368 . S
C890 C889 1.523 . S
C891 C875 1.429 . S
C891 C887 1.429 . S
C891 C892 1.523 . S
C892 C876 1.368 . S
C892 C888 1.368 . S
C892 C891 1.523 . S
H893 C868 0.950 . S
H894 C870 0.950 . S
H895 C871 0.949 . S
H896 C873 0.950 . S
H897 C875 0.950 . S
C898 C899 1.349 . S
C898 C900 1.327 . S
C898 H923 0.950 . S
C899 C898 1.349 . S
C899 C915 1.349 . S
C900 C898 1.327 . S
C900 C919 1.429 . S
C900 H924 0.950 . S
C901 C918 1.574 . S
C901 C920 1.368 . S
C901 H925 0.949 . S
H902 C906 0.949 . S
C903 C904 1.349 . S
C903 C905 1.327 . S
C903 H926 0.950 . S
C904 C903 1.349 . S
C904 C916 1.349 . S
C905 C903 1.327 . S
C905 C921 1.429 . S
C905 H927 0.950 . S
C906 H902 0.949 . S
C906 C914 1.574 . S
C906 C922 1.368 . S
H907 C915 0.950 . S
H908 C913 0.950 . S
H909 C914 0.949 . S
H910 C916 0.950 . S
H911 C917 0.950 . S
H912 C918 0.949 . S
C913 H908 0.950 . S
C913 C915 1.327 . S
C913 C919 1.429 . S
C914 C906 1.574 . S
C914 H909 0.949 . S
C914 C920 1.368 . S
C915 C899 1.349 . S
C915 H907 0.950 . S
C915 C913 1.327 . S
C916 C904 1.349 . S
C916 H910 0.950 . S
C916 C917 1.327 . S
C917 H911 0.950 . S
C917 C916 1.327 . S
C917 C921 1.429 . S
C918 C901 1.574 . S
C918 H912 0.949 . S
C918 C922 1.368 . S
C919 C900 1.429 . S
C919 C913 1.429 . S
C919 C920 1.523 . S
C920 C901 1.368 . S
C920 C914 1.368 . S
C920 C919 1.523 . S
C921 C905 1.429 . S
C921 C917 1.429 . S
C921 C922 1.523 . S
C922 C906 1.368 . S
C922 C918 1.368 . S
C922 C921 1.523 . S
H923 C898 0.950 . S
H924 C900 0.950 . S
H925 C901 0.949 . S
H926 C903 0.950 . S
H927 C905 0.950 . S
C928 C929 1.349 . S
C928 C930 1.327 . S
C928 H953 0.950 . S
C929 C928 1.349 . S
C929 C945 1.349 . S
C930 C928 1.327 . S
C930 C949 1.429 . S
C930 H954 0.950 . S
C931 C948 1.574 . S
C931 C950 1.368 . S
C931 H955 0.949 . S
H932 C936 0.949 . S
C933 C934 1.349 . S
C933 C935 1.327 . S
C933 H956 0.950 . S
C934 C933 1.349 . S
C934 C946 1.349 . S
C935 C933 1.327 . S
C935 C951 1.429 . S
C935 H957 0.950 . S
C936 H932 0.949 . S
C936 C944 1.574 . S
C936 C952 1.368 . S
H937 C945 0.950 . S
H938 C943 0.950 . S
H939 C944 0.949 . S
H940 C946 0.950 . S
H941 C947 0.950 . S
H942 C948 0.949 . S
C943 H938 0.950 . S
C943 C945 1.327 . S
C943 C949 1.429 . S
C944 C936 1.574 . S
C944 H939 0.949 . S
C944 C950 1.368 . S
C945 C929 1.349 . S
C945 H937 0.950 . S
C945 C943 1.327 . S
C946 C934 1.349 . S
C946 H940 0.950 . S
C946 C947 1.327 . S
C947 H941 0.950 . S
C947 C946 1.327 . S
C947 C951 1.429 . S
C948 C931 1.574 . S
C948 H942 0.949 . S
C948 C952 1.368 . S
C949 C930 1.429 . S
C949 C943 1.429 . S
C949 C950 1.523 . S
C950 C931 1.368 . S
C950 C944 1.368 . S
C950 C949 1.523 . S
C951 C935 1.429 . S
C951 C947 1.429 . S
C951 C952 1.523 . S
C952 C936 1.368 . S
C952 C948 1.368 . S
C952 C951 1.523 . S
H953 C928 0.950 . S
H954 C930 0.950 . S
H955 C931 0.949 . S
H956 C933 0.950 . S
H957 C935 0.950 . S
C958 C959 1.349 . S
C958 C960 1.327 . S
C958 H983 0.950 . S
C959 C958 1.349 . S
C959 C975 1.349 . S
C960 C958 1.327 . S
C960 C979 1.429 . S
C960 H984 0.950 . S
C961 C978 1.574 . S
C961 C980 1.368 . S
C961 H985 0.949 . S
H962 C966 0.949 . S
C963 C964 1.349 . S
C963 C965 1.327 . S
C963 H986 0.950 . S
C964 C963 1.349 . S
C964 C976 1.349 . S
C965 C963 1.327 . S
C965 C981 1.429 . S
C965 H987 0.950 . S
C966 H962 0.949 . S
C966 C974 1.574 . S
C966 C982 1.368 . S
H967 C975 0.950 . S
H968 C973 0.950 . S
H969 C974 0.949 . S
H970 C976 0.950 . S
H971 C977 0.950 . S
H972 C978 0.949 . S
C973 H968 0.950 . S
C973 C975 1.327 . S
C973 C979 1.429 . S
C974 C966 1.574 . S
C974 H969 0.949 . S
C974 C980 1.368 . S
C975 C959 1.349 . S
C975 H967 0.950 . S
C975 C973 1.327 . S
C976 C964 1.349 . S
C976 H970 0.950 . S
C976 C977 1.327 . S
C977 H971 0.950 . S
C977 C976 1.327 . S
C977 C981 1.429 . S
C978 C961 1.574 . S
C978 H972 0.949 . S
C978 C982 1.368 . S
C979 C960 1.429 . S
C979 C973 1.429 . S
C979 C980 1.523 . S
C980 C961 1.368 . S
C980 C974 1.368 . S
C980 C979 1.523 . S
C981 C965 1.429 . S
C981 C977 1.429 . S
C981 C982 1.523 . S
C982 C966 1.368 . S
C982 C978 1.368 . S
C982 C981 1.523 . S
H983 C958 0.950 . S
H984 C960 0.950 . S
H985 C961 0.949 . S
H986 C963 0.950 . S
H987 C965 0.950 . S
C988 C989 1.349 . S
C988 C990 1.327 . S
C988 H1013 0.950 . S
C989 C988 1.349 . S
C989 C1005 1.349 . S
C990 C988 1.327 . S
C990 C1009 1.429 . S
C990 H1014 0.950 . S
C991 C1008 1.574 . S
C991 C1010 1.368 . S
C991 H1015 0.949 . S
H992 C996 0.949 . S
C993 C994 1.349 . S
C993 C995 1.327 . S
C993 H1016 0.950 . S
C994 C993 1.349 . S
C994 C1006 1.349 . S
C995 C993 1.327 . S
C995 C1011 1.429 . S
C995 H1017 0.950 . S
C996 H992 0.949 . S
C996 C1004 1.574 . S
C996 C1012 1.368 . S
H997 C1005 0.950 . S
H998 C1003 0.950 . S
H999 C1004 0.949 . S
H1000 C1006 0.950 . S
H1001 C1007 0.950 . S
H1002 C1008 0.949 . S
C1003 H998 0.950 . S
C1003 C1005 1.327 . S
C1003 C1009 1.429 . S
C1004 C996 1.574 . S
C1004 H999 0.949 . S
C1004 C1010 1.368 . S
C1005 C989 1.349 . S
C1005 H997 0.950 . S
C1005 C1003 1.327 . S
C1006 C994 1.349 . S
C1006 H1000 0.950 . S
C1006 C1007 1.327 . S
C1007 H1001 0.950 . S
C1007 C1006 1.327 . S
C1007 C1011 1.429 . S
C1008 C991 1.574 . S
C1008 H1002 0.949 . S
C1008 C1012 1.368 . S
C1009 C990 1.429 . S
C1009 C1003 1.429 . S
C1009 C1010 1.523 . S
C1010 C991 1.368 . S
C1010 C1004 1.368 . S
C1010 C1009 1.523 . S
C1011 C995 1.429 . S
C1011 C1007 1.429 . S
C1011 C1012 1.523 . S
C1012 C996 1.368 . S
C1012 C1008 1.368 . S
C1012 C1011 1.523 . S
H1013 C988 0.950 . S
H1014 C990 0.950 . S
H1015 C991 0.949 . S
H1016 C993 0.950 . S
H1017 C995 0.950 . S
C1018 C1019 1.349 . S
C1018 C1020 1.327 . S
C1018 H1043 0.950 . S
C1019 C1018 1.349 . S
C1019 C1035 1.349 . S
C1020 C1018 1.327 . S
C1020 C1039 1.429 . S
C1020 H1044 0.950 . S
C1021 C1038 1.574 . S
C1021 C1040 1.368 . S
C1021 H1045 0.949 . S
H1022 C1026 0.949 . S
C1023 C1024 1.349 . S
C1023 C1025 1.327 . S
C1023 H1046 0.950 . S
C1024 C1023 1.349 . S
C1024 C1036 1.349 . S
C1025 C1023 1.327 . S
C1025 C1041 1.429 . S
C1025 H1047 0.950 . S
C1026 H1022 0.949 . S
C1026 C1034 1.574 . S
C1026 C1042 1.368 . S
H1027 C1035 0.950 . S
H1028 C1033 0.950 . S
H1029 C1034 0.949 . S
H1030 C1036 0.950 . S
H1031 C1037 0.950 . S
H1032 C1038 0.949 . S
C1033 H1028 0.950 . S
C1033 C1035 1.327 . S
C1033 C1039 1.429 . S
C1034 C1026 1.574 . S
C1034 H1029 0.949 . S
C1034 C1040 1.368 . S
C1035 C1019 1.349 . S
C1035 H1027 0.950 . S
C1035 C1033 1.327 . S
C1036 C1024 1.349 . S
C1036 H1030 0.950 . S
C1036 C1037 1.327 . S
C1037 H1031 0.950 . S
C1037 C1036 1.327 . S
C1037 C1041 1.429 . S
C1038 C1021 1.574 . S
C1038 H1032 0.949 . S
C1038 C1042 1.368 . S
C1039 C1020 1.429 . S
C1039 C1033 1.429 . S
C1039 C1040 1.523 . S
C1040 C1021 1.368 . S
C1040 C1034 1.368 . S
C1040 C1039 1.523 . S
C1041 C1025 1.429 . S
C1041 C1037 1.429 . S
C1041 C1042 1.523 . S
C1042 C1026 1.368 . S
C1042 C1038 1.368 . S
C1042 C1041 1.523 . S
H1043 C1018 0.950 . S
H1044 C1020 0.950 . S
H1045 C1021 0.949 . S
H1046 C1023 0.950 . S
H1047 C1025 0.950 . S
C1048 C1049 1.349 . S
C1048 C1050 1.327 . S
C1048 H1073 0.950 . S
C1049 C1048 1.349 . S
C1049 C1065 1.349 . S
C1050 C1048 1.327 . S
C1050 C1069 1.429 . S
C1050 H1074 0.950 . S
C1051 C1068 1.574 . S
C1051 C1070 1.368 . S
C1051 H1075 0.949 . S
H1052 C1056 0.949 . S
C1053 C1054 1.349 . S
C1053 C1055 1.327 . S
C1053 H1076 0.950 . S
C1054 C1053 1.349 . S
C1054 C1066 1.349 . S
C1055 C1053 1.327 . S
C1055 C1071 1.429 . S
C1055 H1077 0.950 . S
C1056 H1052 0.949 . S
C1056 C1064 1.574 . S
C1056 C1072 1.368 . S
H1057 C1065 0.950 . S
H1058 C1063 0.950 . S
H1059 C1064 0.949 . S
H1060 C1066 0.950 . S
H1061 C1067 0.950 . S
H1062 C1068 0.949 . S
C1063 H1058 0.950 . S
C1063 C1065 1.327 . S
C1063 C1069 1.429 . S
C1064 C1056 1.574 . S
C1064 H1059 0.949 . S
C1064 C1070 1.368 . S
C1065 C1049 1.349 . S
C1065 H1057 0.950 . S
C1065 C1063 1.327 . S
C1066 C1054 1.349 . S
C1066 H1060 0.950 . S
C1066 C1067 1.327 . S
C1067 H1061 0.950 . S
C1067 C1066 1.327 . S
C1067 C1071 1.429 . S
C1068 C1051 1.574 . S
C1068 H1062 0.949 . S
C1068 C1072 1.368 . S
C1069 C1050 1.429 . S
C1069 C1063 1.429 . S
C1069 C1070 1.523 . S
C1070 C1051 1.368 . S
C1070 C1064 1.368 . S
C1070 C1069 1.523 . S
C1071 C1055 1.429 . S
C1071 C1067 1.429 . S
C1071 C1072 1.523 . S
C1072 C1056 1.368 . S
C1072 C1068 1.368 . S
C1072 C1071 1.523 . S
H1073 C1048 0.950 . S
H1074 C1050 0.950 . S
H1075 C1051 0.949 . S
H1076 C1053 0.950 . S
H1077 C1055 0.950 . S
C1078 C1079 1.349 . S
C1078 C1080 1.327 . S
C1078 H1103 0.950 . S
C1079 C1078 1.349 . S
C1079 C1095 1.349 . S
C1080 C1078 1.327 . S
C1080 C1099 1.429 . S
C1080 H1104 0.950 . S
C1081 C1098 1.574 . S
C1081 C1100 1.368 . S
C1081 H1105 0.949 . S
H1082 C1086 0.949 . S
C1083 C1084 1.349 . S
C1083 C1085 1.327 . S
C1083 H1106 0.950 . S
C1084 C1083 1.349 . S
C1084 C1096 1.349 . S
C1085 C1083 1.327 . S
C1085 C1101 1.429 . S
C1085 H1107 0.950 . S
C1086 H1082 0.949 . S
C1086 C1094 1.574 . S
C1086 C1102 1.368 . S
H1087 C1095 0.950 . S
H1088 C1093 0.950 . S
H1089 C1094 0.949 . S
H1090 C1096 0.950 . S
H1091 C1097 0.950 . S
H1092 C1098 0.949 . S
C1093 H1088 0.950 . S
C1093 C1095 1.327 . S
C1093 C1099 1.429 . S
C1094 C1086 1.574 . S
C1094 H1089 0.949 . S
C1094 C1100 1.368 . S
C1095 C1079 1.349 . S
C1095 H1087 0.950 . S
C1095 C1093 1.327 . S
C1096 C1084 1.349 . S
C1096 H1090 0.950 . S
C1096 C1097 1.327 . S
C1097 H1091 0.950 . S
C1097 C1096 1.327 . S
C1097 C1101 1.429 . S
C1098 C1081 1.574 . S
C1098 H1092 0.949 . S
C1098 C1102 1.368 . S
C1099 C1080 1.429 . S
C1099 C1093 1.429 . S
C1099 C1100 1.523 . S
C1100 C1081 1.368 . S
C1100 C1094 1.368 . S
C1100 C1099 1.523 . S
C1101 C1085 1.429 . S
C1101 C1097 1.429 . S
C1101 C1102 1.523 . S
C1102 C1086 1.368 . S
C1102 C1098 1.368 . S
C1102 C1101 1.523 . S
H1103 C1078 0.950 . S
H1104 C1080 0.950 . S
H1105 C1081 0.949 . S
H1106 C1083 0.950 . S
H1107 C1085 0.950 . S
C1108 C1109 1.349 . S
C1108 C1110 1.327 . S
C1108 H1133 0.950 . S
C1109 C1108 1.349 . S
C1109 C1125 1.349 . S
C1110 C1108 1.327 . S
C1110 C1129 1.429 . S
C1110 H1134 0.950 . S
C1111 C1128 1.574 . S
C1111 C1130 1.368 . S
C1111 H1135 0.949 . S
H1112 C1116 0.949 . S
C1113 C1114 1.349 . S
C1113 C1115 1.327 . S
C1113 H1136 0.950 . S
C1114 C1113 1.349 . S
C1114 C1126 1.349 . S
C1115 C1113 1.327 . S
C1115 C1131 1.429 . S
C1115 H1137 0.950 . S
C1116 H1112 0.949 . S
C1116 C1124 1.574 . S
C1116 C1132 1.368 . S
H1117 C1125 0.950 . S
H1118 C1123 0.950 . S
H1119 C1124 0.949 . S
H1120 C1126 0.950 . S
H1121 C1127 0.950 . S
H1122 C1128 0.949 . S
C1123 H1118 0.950 . S
C1123 C1125 1.327 . S
C1123 C1129 1.429 . S
C1124 C1116 1.574 . S
C1124 H1119 0.949 . S
C1124 C1130 1.368 . S
C1125 C1109 1.349 . S
C1125 H1117 0.950 . S
C1125 C1123 1.327 . S
C1126 C1114 1.349 . S
C1126 H1120 0.950 . S
C1126 C1127 1.327 . S
C1127 H1121 0.950 . S
C1127 C1126 1.327 . S
C1127 C1131 1.429 . S
C1128 C1111 1.574 . S
C1128 H1122 0.949 . S
C1128 C1132 1.368 . S
C1129 C1110 1.429 . S
C1129 C1123 1.429 . S
C1129 C1130 1.523 . S
C1130 C1111 1.368 . S
C1130 C1124 1.368 . S
C1130 C1129 1.523 . S
C1131 C1115 1.429 . S
C1131 C1127 1.429 . S
C1131 C1132 1.523 . S
C1132 C1116 1.368 . S
C1132 C1128 1.368 . S
C1132 C1131 1.523 . S
H1133 C1108 0.950 . S
H1134 C1110 0.950 . S
H1135 C1111 0.949 . S
H1136 C1113 0.950 . S
H1137 C1115 0.950 . S
C1138 C1139 1.349 . S
C1138 C1140 1.327 . S
C1138 H1163 0.950 . S
C1139 C1138 1.349 . S
C1139 C1155 1.349 . S
C1140 C1138 1.327 . S
C1140 C1159 1.429 . S
C1140 H1164 0.950 . S
C1141 C1158 1.574 . S
C1141 C1160 1.368 . S
C1141 H1165 0.949 . S
H1142 C1146 0.949 . S
C1143 C1144 1.349 . S
C1143 C1145 1.327 . S
C1143 H1166 0.950 . S
C1144 C1143 1.349 . S
C1144 C1156 1.349 . S
C1145 C1143 1.327 . S
C1145 C1161 1.429 . S
C1145 H1167 0.950 . S
C1146 H1142 0.949 . S
C1146 C1154 1.574 . S
C1146 C1162 1.368 . S
H1147 C1155 0.950 . S
H1148 C1153 0.950 . S
H1149 C1154 0.949 . S
H1150 C1156 0.950 . S
H1151 C1157 0.950 . S
H1152 C1158 0.949 . S
C1153 H1148 0.950 . S
C1153 C1155 1.327 . S
C1153 C1159 1.429 . S
C1154 C1146 1.574 . S
C1154 H1149 0.949 . S
C1154 C1160 1.368 . S
C1155 C1139 1.349 . S
C1155 H1147 0.950 . S
C1155 C1153 1.327 . S
C1156 C1144 1.349 . S
C1156 H1150 0.950 . S
C1156 C1157 1.327 . S
C1157 H1151 0.950 . S
C1157 C1156 1.327 . S
C1157 C1161 1.429 . S
C1158 C1141 1.574 . S
C1158 H1152 0.949 . S
C1158 C1162 1.368 . S
C1159 C1140 1.429 . S
C1159 C1153 1.429 . S
C1159 C1160 1.523 . S
C1160 C1141 1.368 . S
C1160 C1154 1.368 . S
C1160 C1159 1.523 . S
C1161 C1145 1.429 . S
C1161 C1157 1.429 . S
C1161 C1162 1.523 . S
C1162 C1146 1.368 . S
C1162 C1158 1.368 . S
C1162 C1161 1.523 . S
H1163 C1138 0.950 . S
H1164 C1140 0.950 . S
H1165 C1141 0.949 . S
H1166 C1143 0.950 . S
H1167 C1145 0.950 . S
C1168 C1169 1.349 . S
C1168 C1170 1.327 . S
C1168 H1193 0.950 . S
C1169 C1168 1.349 . S
C1169 C1185 1.349 . S
C1170 C1168 1.327 . S
C1170 C1189 1.429 . S
C1170 H1194 0.950 . S
C1171 C1188 1.574 . S
C1171 C1190 1.368 . S
C1171 H1195 0.949 . S
H1172 C1176 0.949 . S
C1173 C1174 1.349 . S
C1173 C1175 1.327 . S
C1173 H1196 0.950 . S
C1174 C1173 1.349 . S
C1174 C1186 1.349 . S
C1175 C1173 1.327 . S
C1175 C1191 1.429 . S
C1175 H1197 0.950 . S
C1176 H1172 0.949 . S
C1176 C1184 1.574 . S
C1176 C1192 1.368 . S
H1177 C1185 0.950 . S
H1178 C1183 0.950 . S
H1179 C1184 0.949 . S
H1180 C1186 0.950 . S
H1181 C1187 0.950 . S
H1182 C1188 0.949 . S
C1183 H1178 0.950 . S
C1183 C1185 1.327 . S
C1183 C1189 1.429 . S
C1184 C1176 1.574 . S
C1184 H1179 0.949 . S
C1184 C1190 1.368 . S
C1185 C1169 1.349 . S
C1185 H1177 0.950 . S
C1185 C1183 1.327 . S
C1186 C1174 1.349 . S
C1186 H1180 0.950 . S
C1186 C1187 1.327 . S
C1187 H1181 0.950 . S
C1187 C1186 1.327 . S
C1187 C1191 1.429 . S
C1188 C1171 1.574 . S
C1188 H1182 0.949 . S
C1188 C1192 1.368 . S
C1189 C1170 1.429 . S
C1189 C1183 1.429 . S
C1189 C1190 1.523 . S
C1190 C1171 1.368 . S
C1190 C1184 1.368 . S
C1190 C1189 1.523 . S
C1191 C1175 1.429 . S
C1191 C1187 1.429 . S
C1191 C1192 1.523 . S
C1192 C1176 1.368 . S
C1192 C1188 1.368 . S
C1192 C1191 1.523 . S
H1193 C1168 0.950 . S
H1194 C1170 0.950 . S
H1195 C1171 0.949 . S
H1196 C1173 0.950 . S
H1197 C1175 0.950 . S
C1198 C1199 1.349 . S
C1198 C1200 1.327 . S
C1198 H1223 0.950 . S
C1199 C1198 1.349 . S
C1199 C1215 1.349 . S
C1200 C1198 1.327 . S
C1200 C1219 1.429 . S
C1200 H1224 0.950 . S
C1201 C1218 1.574 . S
C1201 C1220 1.368 . S
C1201 H1225 0.949 . S
H1202 C1206 0.949 . S
C1203 C1204 1.349 . S
C1203 C1205 1.327 . S
C1203 H1226 0.950 . S
C1204 C1203 1.349 . S
C1204 C1216 1.349 . S
C1205 C1203 1.327 . S
C1205 C1221 1.429 . S
C1205 H1227 0.950 . S
C1206 H1202 0.949 . S
C1206 C1214 1.574 . S
C1206 C1222 1.368 . S
H1207 C1215 0.950 . S
H1208 C1213 0.950 . S
H1209 C1214 0.949 . S
H1210 C1216 0.950 . S
H1211 C1217 0.950 . S
H1212 C1218 0.949 . S
C1213 H1208 0.950 . S
C1213 C1215 1.327 . S
C1213 C1219 1.429 . S
C1214 C1206 1.574 . S
C1214 H1209 0.949 . S
C1214 C1220 1.368 . S
C1215 C1199 1.349 . S
C1215 H1207 0.950 . S
C1215 C1213 1.327 . S
C1216 C1204 1.349 . S
C1216 H1210 0.950 . S
C1216 C1217 1.327 . S
C1217 H1211 0.950 . S
C1217 C1216 1.327 . S
C1217 C1221 1.429 . S
C1218 C1201 1.574 . S
C1218 H1212 0.949 . S
C1218 C1222 1.368 . S
C1219 C1200 1.429 . S
C1219 C1213 1.429 . S
C1219 C1220 1.523 . S
C1220 C1201 1.368 . S
C1220 C1214 1.368 . S
C1220 C1219 1.523 . S
C1221 C1205 1.429 . S
C1221 C1217 1.429 . S
C1221 C1222 1.523 . S
C1222 C1206 1.368 . S
C1222 C1218 1.368 . S
C1222 C1221 1.523 . S
H1223 C1198 0.950 . S
H1224 C1200 0.950 . S
H1225 C1201 0.949 . S
H1226 C1203 0.950 . S
H1227 C1205 0.950 . S
C1228 C1229 1.349 . S
C1228 C1230 1.327 . S
C1228 H1253 0.950 . S
C1229 C1228 1.349 . S
C1229 C1245 1.349 . S
C1230 C1228 1.327 . S
C1230 C1249 1.429 . S
C1230 H1254 0.950 . S
C1231 C1248 1.574 . S
C1231 C1250 1.368 . S
C1231 H1255 0.949 . S
H1232 C1236 0.949 . S
C1233 C1234 1.349 . S
C1233 C1235 1.327 . S
C1233 H1256 0.950 . S
C1234 C1233 1.349 . S
C1234 C1246 1.349 . S
C1235 C1233 1.327 . S
C1235 C1251 1.429 . S
C1235 H1257 0.950 . S
C1236 H1232 0.949 . S
C1236 C1244 1.574 . S
C1236 C1252 1.368 . S
H1237 C1245 0.950 . S
H1238 C1243 0.950 . S
H1239 C1244 0.949 . S
H1240 C1246 0.950 . S
H1241 C1247 0.950 . S
H1242 C1248 0.949 . S
C1243 H1238 0.950 . S
C1243 C1245 1.327 . S
C1243 C1249 1.429 . S
C1244 C1236 1.574 . S
C1244 H1239 0.949 . S
C1244 C1250 1.368 . S
C1245 C1229 1.349 . S
C1245 H1237 0.950 . S
C1245 C1243 1.327 . S
C1246 C1234 1.349 . S
C1246 H1240 0.950 . S
C1246 C1247 1.327 . S
C1247 H1241 0.950 . S
C1247 C1246 1.327 . S
C1247 C1251 1.429 . S
C1248 C1231 1.574 . S
C1248 H1242 0.949 . S
C1248 C1252 1.368 . S
C1249 C1230 1.429 . S
C1249 C1243 1.429 . S
C1249 C1250 1.523 . S
C1250 C1231 1.368 . S
C1250 C1244 1.368 . S
C1250 C1249 1.523 . S
C1251 C1235 1.429 . S
C1251 C1247 1.429 . S
C1251 C1252 1.523 . S
C1252 C1236 1.368 . S
C1252 C1248 1.368 . S
C1252 C1251 1.523 . S
H1253 C1228 0.950 . S
H1254 C1230 0.950 . S
H1255 C1231 0.949 . S
H1256 C1233 0.950 . S
H1257 C1235 0.950 . S
C1258 C1259 1.349 . S
C1258 C1260 1.327 . S
C1258 H1283 0.950 . S
C1259 C1258 1.349 . S
C1259 C1275 1.349 . S
C1260 C1258 1.327 . S
C1260 C1279 1.429 . S
C1260 H1284 0.950 . S
C1261 C1278 1.574 . S
C1261 C1280 1.368 . S
C1261 H1285 0.949 . S
H1262 C1266 0.949 . S
C1263 C1264 1.349 . S
C1263 C1265 1.327 . S
C1263 H1286 0.950 . S
C1264 C1263 1.349 . S
C1264 C1276 1.349 . S
C1265 C1263 1.327 . S
C1265 C1281 1.429 . S
C1265 H1287 0.950 . S
C1266 H1262 0.949 . S
C1266 C1274 1.574 . S
C1266 C1282 1.368 . S
H1267 C1275 0.950 . S
H1268 C1273 0.950 . S
H1269 C1274 0.949 . S
H1270 C1276 0.950 . S
H1271 C1277 0.950 . S
H1272 C1278 0.949 . S
C1273 H1268 0.950 . S
C1273 C1275 1.327 . S
C1273 C1279 1.429 . S
C1274 C1266 1.574 . S
C1274 H1269 0.949 . S
C1274 C1280 1.368 . S
C1275 C1259 1.349 . S
C1275 H1267 0.950 . S
C1275 C1273 1.327 . S
C1276 C1264 1.349 . S
C1276 H1270 0.950 . S
C1276 C1277 1.327 . S
C1277 H1271 0.950 . S
C1277 C1276 1.327 . S
C1277 C1281 1.429 . S
C1278 C1261 1.574 . S
C1278 H1272 0.949 . S
C1278 C1282 1.368 . S
C1279 C1260 1.429 . S
C1279 C1273 1.429 . S
C1279 C1280 1.523 . S
C1280 C1261 1.368 . S
C1280 C1274 1.368 . S
C1280 C1279 1.523 . S
C1281 C1265 1.429 . S
C1281 C1277 1.429 . S
C1281 C1282 1.523 . S
C1282 C1266 1.368 . S
C1282 C1278 1.368 . S
C1282 C1281 1.523 . S
H1283 C1258 0.950 . S
H1284 C1260 0.950 . S
H1285 C1261 0.949 . S
H1286 C1263 0.950 . S
H1287 C1265 0.950 . S
C1288 C1289 1.349 . S
C1288 C1290 1.327 . S
C1288 H1313 0.950 . S
C1289 C1288 1.349 . S
C1289 C1305 1.349 . S
C1290 C1288 1.327 . S
C1290 C1309 1.429 . S
C1290 H1314 0.950 . S
C1291 C1308 1.574 . S
C1291 C1310 1.368 . S
C1291 H1315 0.949 . S
H1292 C1296 0.949 . S
C1293 C1294 1.349 . S
C1293 C1295 1.327 . S
C1293 H1316 0.950 . S
C1294 C1293 1.349 . S
C1294 C1306 1.349 . S
C1295 C1293 1.327 . S
C1295 C1311 1.429 . S
C1295 H1317 0.950 . S
C1296 H1292 0.949 . S
C1296 C1304 1.574 . S
C1296 C1312 1.368 . S
H1297 C1305 0.950 . S
H1298 C1303 0.950 . S
H1299 C1304 0.949 . S
H1300 C1306 0.950 . S
H1301 C1307 0.950 . S
H1302 C1308 0.949 . S
C1303 H1298 0.950 . S
C1303 C1305 1.327 . S
C1303 C1309 1.429 . S
C1304 C1296 1.574 . S
C1304 H1299 0.949 . S
C1304 C1310 1.368 . S
C1305 C1289 1.349 . S
C1305 H1297 0.950 . S
C1305 C1303 1.327 . S
C1306 C1294 1.349 . S
C1306 H1300 0.950 . S
C1306 C1307 1.327 . S
C1307 H1301 0.950 . S
C1307 C1306 1.327 . S
C1307 C1311 1.429 . S
C1308 C1291 1.574 . S
C1308 H1302 0.949 . S
C1308 C1312 1.368 . S
C1309 C1290 1.429 . S
C1309 C1303 1.429 . S
C1309 C1310 1.523 . S
C1310 C1291 1.368 . S
C1310 C1304 1.368 . S
C1310 C1309 1.523 . S
C1311 C1295 1.429 . S
C1311 C1307 1.429 . S
C1311 C1312 1.523 . S
C1312 C1296 1.368 . S
C1312 C1308 1.368 . S
C1312 C1311 1.523 . S
H1313 C1288 0.950 . S
H1314 C1290 0.950 . S
H1315 C1291 0.949 . S
H1316 C1293 0.950 . S
H1317 C1295 0.950 . S
C1318 C1319 1.349 . S
C1318 C1320 1.327 . S
C1318 H1343 0.950 . S
C1319 C1318 1.349 . S
C1319 C1335 1.349 . S
C1320 C1318 1.327 . S
C1320 C1339 1.429 . S
C1320 H1344 0.950 . S
C1321 C1338 1.574 . S
C1321 C1340 1.368 . S
C1321 H1345 0.949 . S
H1322 C1326 0.949 . S
C1323 C1324 1.349 . S
C1323 C1325 1.327 . S
C1323 H1346 0.950 . S
C1324 C1323 1.349 . S
C1324 C1336 1.349 . S
C1325 C1323 1.327 . S
C1325 C1341 1.429 . S
C1325 H1347 0.950 . S
C1326 H1322 0.949 . S
C1326 C1334 1.574 . S
C1326 C1342 1.368 . S
H1327 C1335 0.950 . S
H1328 C1333 0.950 . S
H1329 C1334 0.949 . S
H1330 C1336 0.950 . S
H1331 C1337 0.950 . S
H1332 C1338 0.949 . S
C1333 H1328 0.950 . S
C1333 C1335 1.327 . S
C1333 C1339 1.429 . S
C1334 C1326 1.574 . S
C1334 H1329 0.949 . S
C1334 C1340 1.368 . S
C1335 C1319 1.349 . S
C1335 H1327 0.950 . S
C1335 C1333 1.327 . S
C1336 C1324 1.349 . S
C1336 H1330 0.950 . S
C1336 C1337 1.327 . S
C1337 H1331 0.950 . S
C1337 C1336 1.327 . S
C1337 C1341 1.429 . S
C1338 C1321 1.574 . S
C1338 H1332 0.949 . S
C1338 C1342 1.368 . S
C1339 C1320 1.429 . S
C1339 C1333 1.429 . S
C1339 C1340 1.523 . S
C1340 C1321 1.368 . S
C1340 C1334 1.368 . S
C1340 C1339 1.523 . S
C1341 C1325 1.429 . S
C1341 C1337 1.429 . S
C1341 C1342 1.523 . S
C1342 C1326 1.368 . S
C1342 C1338 1.368 . S
C1342 C1341 1.523 . S
H1343 C1318 0.950 . S
H1344 C1320 0.950 . S
H1345 C1321 0.949 . S
H1346 C1323 0.950 . S
H1347 C1325 0.950 . S
C1348 C1349 1.349 . S
C1348 C1350 1.327 . S
C1348 H1373 0.950 . S
C1349 C1348 1.349 . S
C1349 C1365 1.349 . S
C1350 C1348 1.327 . S
C1350 C1369 1.429 . S
C1350 H1374 0.950 . S
C1351 C1368 1.574 . S
C1351 C1370 1.368 . S
C1351 H1375 0.949 . S
H1352 C1356 0.949 . S
C1353 C1354 1.349 . S
C1353 C1355 1.327 . S
C1353 H1376 0.950 . S
C1354 C1353 1.349 . S
C1354 C1366 1.349 . S
C1355 C1353 1.327 . S
C1355 C1371 1.429 . S
C1355 H1377 0.950 . S
C1356 H1352 0.949 . S
C1356 C1364 1.574 . S
C1356 C1372 1.368 . S
H1357 C1365 0.950 . S
H1358 C1363 0.950 . S
H1359 C1364 0.949 . S
H1360 C1366 0.950 . S
H1361 C1367 0.950 . S
H1362 C1368 0.949 . S
C1363 H1358 0.950 . S
C1363 C1365 1.327 . S
C1363 C1369 1.429 . S
C1364 C1356 1.574 . S
C1364 H1359 0.949 . S
C1364 C1370 1.368 . S
C1365 C1349 1.349 . S
C1365 H1357 0.950 . S
C1365 C1363 1.327 . S
C1366 C1354 1.349 . S
C1366 H1360 0.950 . S
C1366 C1367 1.327 . S
C1367 H1361 0.950 . S
C1367 C1366 1.327 . S
C1367 C1371 1.429 . S
C1368 C1351 1.574 . S
C1368 H1362 0.949 . S
C1368 C1372 1.368 . S
C1369 C1350 1.429 . S
C1369 C1363 1.429 . S
C1369 C1370 1.523 . S
C1370 C1351 1.368 . S
C1370 C1364 1.368 . S
C1370 C1369 1.523 . S
C1371 C1355 1.429 . S
C1371 C1367 1.429 . S
C1371 C1372 1.523 . S
C1372 C1356 1.368 . S
C1372 C1368 1.368 . S
C1372 C1371 1.523 . S
H1373 C1348 0.950 . S
H1374 C1350 0.950 . S
H1375 C1351 0.949 . S
H1376 C1353 0.950 . S
H1377 C1355 0.950 . S
C1378 C1379 1.349 . S
C1378 C1380 1.327 . S
C1378 H1403 0.950 . S
C1379 C1378 1.349 . S
C1379 C1395 1.349 . S
C1380 C1378 1.327 . S
C1380 C1399 1.429 . S
C1380 H1404 0.950 . S
C1381 C1398 1.574 . S
C1381 C1400 1.368 . S
C1381 H1405 0.949 . S
H1382 C1386 0.949 . S
C1383 C1384 1.349 . S
C1383 C1385 1.327 . S
C1383 H1406 0.950 . S
C1384 C1383 1.349 . S
C1384 C1396 1.349 . S
C1385 C1383 1.327 . S
C1385 C1401 1.429 . S
C1385 H1407 0.950 . S
C1386 H1382 0.949 . S
C1386 C1394 1.574 . S
C1386 C1402 1.368 . S
H1387 C1395 0.950 . S
H1388 C1393 0.950 . S
H1389 C1394 0.949 . S
H1390 C1396 0.950 . S
H1391 C1397 0.950 . S
H1392 C1398 0.949 . S
C1393 H1388 0.950 . S
C1393 C1395 1.327 . S
C1393 C1399 1.429 . S
C1394 C1386 1.574 . S
C1394 H1389 0.949 . S
C1394 C1400 1.368 . S
C1395 C1379 1.349 . S
C1395 H1387 0.950 . S
C1395 C1393 1.327 . S
C1396 C1384 1.349 . S
C1396 H1390 0.950 . S
C1396 C1397 1.327 . S
C1397 H1391 0.950 . S
C1397 C1396 1.327 . S
C1397 C1401 1.429 . S
C1398 C1381 1.574 . S
C1398 H1392 0.949 . S
C1398 C1402 1.368 . S
C1399 C1380 1.429 . S
C1399 C1393 1.429 . S
C1399 C1400 1.523 . S
C1400 C1381 1.368 . S
C1400 C1394 1.368 . S
C1400 C1399 1.523 . S
C1401 C1385 1.429 . S
C1401 C1397 1.429 . S
C1401 C1402 1.523 . S
C1402 C1386 1.368 . S
C1402 C1398 1.368 . S
C1402 C1401 1.523 . S
H1403 C1378 0.950 . S
H1404 C1380 0.950 . S
H1405 C1381 0.949 . S
H1406 C1383 0.950 . S
H1407 C1385 0.950 . S
C1408 C1409 1.349 . S
C1408 C1410 1.327 . S
C1408 H1433 0.950 . S
C1409 C1408 1.349 . S
C1409 C1425 1.349 . S
C1410 C1408 1.327 . S
C1410 C1429 1.429 . S
C1410 H1434 0.950 . S
C1411 C1428 1.574 . S
C1411 C1430 1.368 . S
C1411 H1435 0.949 . S
H1412 C1416 0.949 . S
C1413 C1414 1.349 . S
C1413 C1415 1.327 . S
C1413 H1436 0.950 . S
C1414 C1413 1.349 . S
C1414 C1426 1.349 . S
C1415 C1413 1.327 . S
C1415 C1431 1.429 . S
C1415 H1437 0.950 . S
C1416 H1412 0.949 . S
C1416 C1424 1.574 . S
C1416 C1432 1.368 . S
H1417 C1425 0.950 . S
H1418 C1423 0.950 . S
H1419 C1424 0.949 . S
H1420 C1426 0.950 . S
H1421 C1427 0.950 . S
H1422 C1428 0.949 . S
C1423 H1418 0.950 . S
C1423 C1425 1.327 . S
C1423 C1429 1.429 . S
C1424 C1416 1.574 . S
C1424 H1419 0.949 . S
C1424 C1430 1.368 . S
C1425 C1409 1.349 . S
C1425 H1417 0.950 . S
C1425 C1423 1.327 . S
C1426 C1414 1.349 . S
C1426 H1420 0.950 . S
C1426 C1427 1.327 . S
C1427 H1421 0.950 . S
C1427 C1426 1.327 . S
C1427 C1431 1.429 . S
C1428 C1411 1.574 . S
C1428 H1422 0.949 . S
C1428 C1432 1.368 . S
C1429 C1410 1.429 . S
C1429 C1423 1.429 . S
C1429 C1430 1.523 . S
C1430 C1411 1.368 . S
C1430 C1424 1.368 . S
C1430 C1429 1.523 . S
C1431 C1415 1.429 . S
C1431 C1427 1.429 . S
C1431 C1432 1.523 . S
C1432 C1416 1.368 . S
C1432 C1428 1.368 . S
C1432 C1431 1.523 . S
H1433 C1408 0.950 . S
H1434 C1410 0.950 . S
H1435 C1411 0.949 . S
H1436 C1413 0.950 . S
H1437 C1415 0.950 . S
C1438 C1439 1.349 . S
C1438 C1440 1.327 . S
C1438 H1463 0.950 . S
C1439 C1438 1.349 . S
C1439 C1455 1.349 . S
C1440 C1438 1.327 . S
C1440 C1459 1.429 . S
C1440 H1464 0.950 . S
C1441 C1458 1.574 . S
C1441 C1460 1.368 . S
C1441 H1465 0.949 . S
H1442 C1446 0.949 . S
C1443 C1444 1.349 . S
C1443 C1445 1.327 . S
C1443 H1466 0.950 . S
C1444 C1443 1.349 . S
C1444 C1456 1.349 . S
C1445 C1443 1.327 . S
C1445 C1461 1.429 . S
C1445 H1467 0.950 . S
C1446 H1442 0.949 . S
C1446 C1454 1.574 . S
C1446 C1462 1.368 . S
H1447 C1455 0.950 . S
H1448 C1453 0.950 . S
H1449 C1454 0.949 . S
H1450 C1456 0.950 . S
H1451 C1457 0.950 . S
H1452 C1458 0.949 . S
C1453 H1448 0.950 . S
C1453 C1455 1.327 . S
C1453 C1459 1.429 . S
C1454 C1446 1.574 . S
C1454 H1449 0.949 . S
C1454 C1460 1.368 . S
C1455 C1439 1.349 . S
C1455 H1447 0.950 . S
C1455 C1453 1.327 . S
C1456 C1444 1.349 . S
C1456 H1450 0.950 . S
C1456 C1457 1.327 . S
C1457 H1451 0.950 . S
C1457 C1456 1.327 . S
C1457 C1461 1.429 . S
C1458 C1441 1.574 . S
C1458 H1452 0.949 . S
C1458 C1462 1.368 . S
C1459 C1440 1.429 . S
C1459 C1453 1.429 . S
C1459 C1460 1.523 . S
C1460 C1441 1.368 . S
C1460 C1454 1.368 . S
C1460 C1459 1.523 . S
C1461 C1445 1.429 . S
C1461 C1457 1.429 . S
C1461 C1462 1.523 . S
C1462 C1446 1.368 . S
C1462 C1458 1.368 . S
C1462 C1461 1.523 . S
H1463 C1438 0.950 . S
H1464 C1440 0.950 . S
H1465 C1441 0.949 . S
H1466 C1443 0.950 . S
H1467 C1445 0.950 . S
C1468 C1469 1.349 . S
C1468 C1470 1.327 . S
C1468 H1493 0.950 . S
C1469 C1468 1.349 . S
C1469 C1485 1.349 . S
C1470 C1468 1.327 . S
C1470 C1489 1.429 . S
C1470 H1494 0.950 . S
C1471 C1488 1.574 . S
C1471 C1490 1.368 . S
C1471 H1495 0.949 . S
H1472 C1476 0.949 . S
C1473 C1474 1.349 . S
C1473 C1475 1.327 . S
C1473 H1496 0.950 . S
C1474 C1473 1.349 . S
C1474 C1486 1.349 . S
C1475 C1473 1.327 . S
C1475 C1491 1.429 . S
C1475 H1497 0.950 . S
C1476 H1472 0.949 . S
C1476 C1484 1.574 . S
C1476 C1492 1.368 . S
H1477 C1485 0.950 . S
H1478 C1483 0.950 . S
H1479 C1484 0.949 . S
H1480 C1486 0.950 . S
H1481 C1487 0.950 . S
H1482 C1488 0.949 . S
C1483 H1478 0.950 . S
C1483 C1485 1.327 . S
C1483 C1489 1.429 . S
C1484 C1476 1.574 . S
C1484 H1479 0.949 . S
C1484 C1490 1.368 . S
C1485 C1469 1.349 . S
C1485 H1477 0.950 . S
C1485 C1483 1.327 . S
C1486 C1474 1.349 . S
C1486 H1480 0.950 . S
C1486 C1487 1.327 . S
C1487 H1481 0.950 . S
C1487 C1486 1.327 . S
C1487 C1491 1.429 . S
C1488 C1471 1.574 . S
C1488 H1482 0.949 . S
C1488 C1492 1.368 . S
C1489 C1470 1.429 . S
C1489 C1483 1.429 . S
C1489 C1490 1.523 . S
C1490 C1471 1.368 . S
C1490 C1484 1.368 . S
C1490 C1489 1.523 . S
C1491 C1475 1.429 . S
C1491 C1487 1.429 . S
C1491 C1492 1.523 . S
C1492 C1476 1.368 . S
C1492 C1488 1.368 . S
C1492 C1491 1.523 . S
H1493 C1468 0.950 . S
H1494 C1470 0.950 . S
H1495 C1471 0.949 . S
H1496 C1473 0.950 . S
H1497 C1475 0.950 . S
C1498 C1499 1.349 . S
C1498 C1500 1.327 . S
C1498 H1523 0.950 . S
C1499 C1498 1.349 . S
C1499 C1515 1.349 . S
C1500 C1498 1.327 . S
C1500 C1519 1.429 . S
C1500 H1524 0.950 . S
C1501 C1518 1.574 . S
C1501 C1520 1.368 . S
C1501 H1525 0.949 . S
H1502 C1506 0.949 . S
C1503 C1504 1.349 . S
C1503 C1505 1.327 . S
C1503 H1526 0.950 . S
C1504 C1503 1.349 . S
C1504 C1516 1.349 . S
C1505 C1503 1.327 . S
C1505 C1521 1.429 . S
C1505 H1527 0.950 . S
C1506 H1502 0.949 . S
C1506 C1514 1.574 . S
C1506 C1522 1.368 . S
H1507 C1515 0.950 . S
H1508 C1513 0.950 . S
H1509 C1514 0.949 . S
H1510 C1516 0.950 . S
H1511 C1517 0.950 . S
H1512 C1518 0.949 . S
C1513 H1508 0.950 . S
C1513 C1515 1.327 . S
C1513 C1519 1.429 . S
C1514 C1506 1.574 . S
C1514 H1509 0.949 . S
C1514 C1520 1.368 . S
C1515 C1499 1.349 . S
C1515 H1507 0.950 . S
C1515 C1513 1.327 . S
C1516 C1504 1.349 . S
C1516 H1510 0.950 . S
C1516 C1517 1.327 . S
C1517 H1511 0.950 . S
C1517 C1516 1.327 . S
C1517 C1521 1.429 . S
C1518 C1501 1.574 . S
C1518 H1512 0.949 . S
C1518 C1522 1.368 . S
C1519 C1500 1.429 . S
C1519 C1513 1.429 . S
C1519 C1520 1.523 . S
C1520 C1501 1.368 . S
C1520 C1514 1.368 . S
C1520 C1519 1.523 . S
C1521 C1505 1.429 . S
C1521 C1517 1.429 . S
C1521 C1522 1.523 . S
C1522 C1506 1.368 . S
C1522 C1518 1.368 . S
C1522 C1521 1.523 . S
H1523 C1498 0.950 . S
H1524 C1500 0.950 . S
H1525 C1501 0.949 . S
H1526 C1503 0.950 . S
H1527 C1505 0.950 . S
C1528 C1529 1.349 . S
C1528 C1530 1.327 . S
C1528 H1553 0.950 . S
C1529 C1528 1.349 . S
C1529 C1545 1.349 . S
C1530 C1528 1.327 . S
C1530 C1549 1.429 . S
C1530 H1554 0.950 . S
C1531 C1548 1.574 . S
C1531 C1550 1.368 . S
C1531 H1555 0.949 . S
H1532 C1536 0.949 . S
C1533 C1534 1.349 . S
C1533 C1535 1.327 . S
C1533 H1556 0.950 . S
C1534 C1533 1.349 . S
C1534 C1546 1.349 . S
C1535 C1533 1.327 . S
C1535 C1551 1.429 . S
C1535 H1557 0.950 . S
C1536 H1532 0.949 . S
C1536 C1544 1.574 . S
C1536 C1552 1.368 . S
H1537 C1545 0.950 . S
H1538 C1543 0.950 . S
H1539 C1544 0.949 . S
H1540 C1546 0.950 . S
H1541 C1547 0.950 . S
H1542 C1548 0.949 . S
C1543 H1538 0.950 . S
C1543 C1545 1.327 . S
C1543 C1549 1.429 . S
C1544 C1536 1.574 . S
C1544 H1539 0.949 . S
C1544 C1550 1.368 . S
C1545 C1529 1.349 . S
C1545 H1537 0.950 . S
C1545 C1543 1.327 . S
C1546 C1534 1.349 . S
C1546 H1540 0.950 . S
C1546 C1547 1.327 . S
C1547 H1541 0.950 . S
C1547 C1546 1.327 . S
C1547 C1551 1.429 . S
C1548 C1531 1.574 . S
C1548 H1542 0.949 . S
C1548 C1552 1.368 . S
C1549 C1530 1.429 . S
C1549 C1543 1.429 . S
C1549 C1550 1.523 . S
C1550 C1531 1.368 . S
C1550 C1544 1.368 . S
C1550 C1549 1.523 . S
C1551 C1535 1.429 . S
C1551 C1547 1.429 . S
C1551 C1552 1.523 . S
C1552 C1536 1.368 . S
C1552 C1548 1.368 . S
C1552 C1551 1.523 . S
H1553 C1528 0.950 . S
H1554 C1530 0.950 . S
H1555 C1531 0.949 . S
H1556 C1533 0.950 . S
H1557 C1535 0.950 . S
C1558 C1559 1.349 . S
C1558 C1560 1.327 . S
C1558 H1583 0.950 . S
C1559 C1558 1.349 . S
C1559 C1575 1.349 . S
C1560 C1558 1.327 . S
C1560 C1579 1.429 . S
C1560 H1584 0.950 . S
C1561 C1578 1.574 . S
C1561 C1580 1.368 . S
C1561 H1585 0.949 . S
H1562 C1566 0.949 . S
C1563 C1564 1.349 . S
C1563 C1565 1.327 . S
C1563 H1586 0.950 . S
C1564 C1563 1.349 . S
C1564 C1576 1.349 . S
C1565 C1563 1.327 . S
C1565 C1581 1.429 . S
C1565 H1587 0.950 . S
C1566 H1562 0.949 . S
C1566 C1574 1.574 . S
C1566 C1582 1.368 . S
H1567 C1575 0.950 . S
H1568 C1573 0.950 . S
H1569 C1574 0.949 . S
H1570 C1576 0.950 . S
H1571 C1577 0.950 . S
H1572 C1578 0.949 . S
C1573 H1568 0.950 . S
C1573 C1575 1.327 . S
C1573 C1579 1.429 . S
C1574 C1566 1.574 . S
C1574 H1569 0.949 . S
C1574 C1580 1.368 . S
C1575 C1559 1.349 . S
C1575 H1567 0.950 . S
C1575 C1573 1.327 . S
C1576 C1564 1.349 . S
C1576 H1570 0.950 . S
C1576 C1577 1.327 . S
C1577 H1571 0.950 . S
C1577 C1576 1.327 . S
C1577 C1581 1.429 . S
C1578 C1561 1.574 . S
C1578 H1572 0.949 . S
C1578 C1582 1.368 . S
C1579 C1560 1.429 . S
C1579 C1573 1.429 . S
C1579 C1580 1.523 . S
C1580 C1561 1.368 . S
C1580 C1574 1.368 . S
C1580 C1579 1.523 . S
C1581 C1565 1.429 . S
C1581 C1577 1.429 . S
C1581 C1582 1.523 . S
C1582 C1566 1.368 . S
C1582 C1578 1.368 . S
C1582 C1581 1.523 . S
H1583 C1558 0.950 . S
H1584 C1560 0.950 . S
H1585 C1561 0.949 . S
H1586 C1563 0.950 . S
H1587 C1565 0.950 . S
C1588 C1589 1.349 . S
C1588 C1590 1.327 . S
C1588 H1613 0.950 . S
C1589 C1588 1.349 . S
C1589 C1605 1.349 . S
C1590 C1588 1.327 . S
C1590 C1609 1.429 . S
C1590 H1614 0.950 . S
C1591 C1608 1.574 . S
C1591 C1610 1.368 . S
C1591 H1615 0.949 . S
H1592 C1596 0.949 . S
C1593 C1594 1.349 . S
C1593 C1595 1.327 . S
C1593 H1616 0.950 . S
C1594 C1593 1.349 . S
C1594 C1606 1.349 . S
C1595 C1593 1.327 . S
C1595 C1611 1.429 . S
C1595 H1617 0.950 . S
C1596 H1592 0.949 . S
C1596 C1604 1.574 . S
C1596 C1612 1.368 . S
H1597 C1605 0.950 . S
H1598 C1603 0.950 . S
H1599 C1604 0.949 . S
H1600 C1606 0.950 . S
H1601 C1607 0.950 . S
H1602 C1608 0.949 . S
C1603 H1598 0.950 . S
C1603 C1605 1.327 . S
C1603 C1609 1.429 . S
C1604 C1596 1.574 . S
C1604 H1599 0.949 . S
C1604 C1610 1.368 . S
C1605 C1589 1.349 . S
C1605 H1597 0.950 . S
C1605 C1603 1.327 . S
C1606 C1594 1.349 . S
C1606 H1600 0.950 . S
C1606 C1607 1.327 . S
C1607 H1601 0.950 . S
C1607 C1606 1.327 . S
C1607 C1611 1.429 . S
C1608 C1591 1.574 . S
C1608 H1602 0.949 . S
C1608 C1612 1.368 . S
C1609 C1590 1.429 . S
C1609 C1603 1.429 . S
C1609 C1610 1.523 . S
C1610 C1591 1.368 . S
C1610 C1604 1.368 . S
C1610 C1609 1.523 . S
C1611 C1595 1.429 . S
C1611 C1607 1.429 . S
C1611 C1612 1.523 . S
C1612 C1596 1.368 . S
C1612 C1608 1.368 . S
C1612 C1611 1.523 . S
H1613 C1588 0.950 . S
H1614 C1590 0.950 . S
H1615 C1591 0.949 . S
H1616 C1593 0.950 . S
H1617 C1595 0.950 . S
C1618 C1619 1.349 . S
C1618 C1620 1.327 . S
C1618 H1643 0.950 . S
C1619 C1618 1.349 . S
C1619 C1635 1.349 . S
C1620 C1618 1.327 . S
C1620 C1639 1.429 . S
C1620 H1644 0.950 . S
C1621 C1638 1.574 . S
C1621 C1640 1.368 . S
C1621 H1645 0.949 . S
H1622 C1626 0.949 . S
C1623 C1624 1.349 . S
C1623 C1625 1.327 . S
C1623 H1646 0.950 . S
C1624 C1623 1.349 . S
C1624 C1636 1.349 . S
C1625 C1623 1.327 . S
C1625 C1641 1.429 . S
C1625 H1647 0.950 . S
C1626 H1622 0.949 . S
C1626 C1634 1.574 . S
C1626 C1642 1.368 . S
H1627 C1635 0.950 . S
H1628 C1633 0.950 . S
H1629 C1634 0.949 . S
H1630 C1636 0.950 . S
H1631 C1637 0.950 . S
H1632 C1638 0.949 . S
C1633 H1628 0.950 . S
C1633 C1635 1.327 . S
C1633 C1639 1.429 . S
C1634 C1626 1.574 . S
C1634 H1629 0.949 . S
C1634 C1640 1.368 . S
C1635 C1619 1.349 . S
C1635 H1627 0.950 . S
C1635 C1633 1.327 . S
C1636 C1624 1.349 . S
C1636 H1630 0.950 . S
C1636 C1637 1.327 . S
C1637 H1631 0.950 . S
C1637 C1636 1.327 . S
C1637 C1641 1.429 . S
C1638 C1621 1.574 . S
C1638 H1632 0.949 . S
C1638 C1642 1.368 . S
C1639 C1620 1.429 . S
C1639 C1633 1.429 . S
C1639 C1640 1.523 . S
C1640 C1621 1.368 . S
C1640 C1634 1.368 . S
C1640 C1639 1.523 . S
C1641 C1625 1.429 . S
C1641 C1637 1.429 . S
C1641 C1642 1.523 . S
C1642 C1626 1.368 . S
C1642 C1638 1.368 . S
C1642 C1641 1.523 . S
H1643 C1618 0.950 . S
H1644 C1620 0.950 . S
H1645 C1621 0.949 . S
H1646 C1623 0.950 . S
H1647 C1625 0.950 . S
C1648 C1649 1.349 . S
C1648 C1650 1.327 . S
C1648 H1673 0.950 . S
C1649 C1648 1.349 . S
C1649 C1665 1.349 . S
C1650 C1648 1.327 . S
C1650 C1669 1.429 . S
C1650 H1674 0.950 . S
C1651 C1668 1.574 . S
C1651 C1670 1.368 . S
C1651 H1675 0.949 . S
H1652 C1656 0.949 . S
C1653 C1654 1.349 . S
C1653 C1655 1.327 . S
C1653 H1676 0.950 . S
C1654 C1653 1.349 . S
C1654 C1666 1.349 . S
C1655 C1653 1.327 . S
C1655 C1671 1.429 . S
C1655 H1677 0.950 . S
C1656 H1652 0.949 . S
C1656 C1664 1.574 . S
C1656 C1672 1.368 . S
H1657 C1665 0.950 . S
H1658 C1663 0.950 . S
H1659 C1664 0.949 . S
H1660 C1666 0.950 . S
H1661 C1667 0.950 . S
H1662 C1668 0.949 . S
C1663 H1658 0.950 . S
C1663 C1665 1.327 . S
C1663 C1669 1.429 . S
C1664 C1656 1.574 . S
C1664 H1659 0.949 . S
C1664 C1670 1.368 . S
C1665 C1649 1.349 . S
C1665 H1657 0.950 . S
C1665 C1663 1.327 . S
C1666 C1654 1.349 . S
C1666 H1660 0.950 . S
C1666 C1667 1.327 . S
C1667 H1661 0.950 . S
C1667 C1666 1.327 . S
C1667 C1671 1.429 . S
C1668 C1651 1.574 . S
C1668 H1662 0.949 . S
C1668 C1672 1.368 . S
C1669 C1650 1.429 . S
C1669 C1663 1.429 . S
C1669 C1670 1.523 . S
C1670 C1651 1.368 . S
C1670 C1664 1.368 . S
C1670 C1669 1.523 . S
C1671 C1655 1.429 . S
C1671 C1667 1.429 . S
C1671 C1672 1.523 . S
C1672 C1656 1.368 . S
C1672 C1668 1.368 . S
C1672 C1671 1.523 . S
H1673 C1648 0.950 . S
H1674 C1650 0.950 . S
H1675 C1651 0.949 . S
H1676 C1653 0.950 . S
H1677 C1655 0.950 . S
C1678 C1679 1.349 . S
C1678 C1680 1.327 . S
C1678 H1703 0.950 . S
C1679 C1678 1.349 . S
C1679 C1695 1.349 . S
C1680 C1678 1.327 . S
C1680 C1699 1.429 . S
C1680 H1704 0.950 . S
C1681 C1698 1.574 . S
C1681 C1700 1.368 . S
C1681 H1705 0.949 . S
H1682 C1686 0.949 . S
C1683 C1684 1.349 . S
C1683 C1685 1.327 . S
C1683 H1706 0.950 . S
C1684 C1683 1.349 . S
C1684 C1696 1.349 . S
C1685 C1683 1.327 . S
C1685 C1701 1.429 . S
C1685 H1707 0.950 . S
C1686 H1682 0.949 . S
C1686 C1694 1.574 . S
C1686 C1702 1.368 . S
H1687 C1695 0.950 . S
H1688 C1693 0.950 . S
H1689 C1694 0.949 . S
H1690 C1696 0.950 . S
H1691 C1697 0.950 . S
H1692 C1698 0.949 . S
C1693 H1688 0.950 . S
C1693 C1695 1.327 . S
C1693 C1699 1.429 . S
C1694 C1686 1.574 . S
C1694 H1689 0.949 . S
C1694 C1700 1.368 . S
C1695 C1679 1.349 . S
C1695 H1687 0.950 . S
C1695 C1693 1.327 . S
C1696 C1684 1.349 . S
C1696 H1690 0.950 . S
C1696 C1697 1.327 . S
C1697 H1691 0.950 . S
C1697 C1696 1.327 . S
C1697 C1701 1.429 . S
C1698 C1681 1.574 . S
C1698 H1692 0.949 . S
C1698 C1702 1.368 . S
C1699 C1680 1.429 . S
C1699 C1693 1.429 . S
C1699 C1700 1.523 . S
C1700 C1681 1.368 . S
C1700 C1694 1.368 . S
C1700 C1699 1.523 . S
C1701 C1685 1.429 . S
C1701 C1697 1.429 . S
C1701 C1702 1.523 . S
C1702 C1686 1.368 . S
C1702 C1698 1.368 . S
C1702 C1701 1.523 . S
H1703 C1678 0.950 . S
H1704 C1680 0.950 . S
H1705 C1681 0.949 . S
H1706 C1683 0.950 . S
H1707 C1685 0.950 . S
C1708 C1709 1.349 . S
C1708 C1710 1.327 . S
C1708 H1733 0.950 . S
C1709 C1708 1.349 . S
C1709 C1725 1.349 . S
C1710 C1708 1.327 . S
C1710 C1729 1.429 . S
C1710 H1734 0.950 . S
C1711 C1728 1.574 . S
C1711 C1730 1.368 . S
C1711 H1735 0.949 . S
H1712 C1716 0.949 . S
C1713 C1714 1.349 . S
C1713 C1715 1.327 . S
C1713 H1736 0.950 . S
C1714 C1713 1.349 . S
C1714 C1726 1.349 . S
C1715 C1713 1.327 . S
C1715 C1731 1.429 . S
C1715 H1737 0.950 . S
C1716 H1712 0.949 . S
C1716 C1724 1.574 . S
C1716 C1732 1.368 . S
H1717 C1725 0.950 . S
H1718 C1723 0.950 . S
H1719 C1724 0.949 . S
H1720 C1726 0.950 . S
H1721 C1727 0.950 . S
H1722 C1728 0.949 . S
C1723 H1718 0.950 . S
C1723 C1725 1.327 . S
C1723 C1729 1.429 . S
C1724 C1716 1.574 . S
C1724 H1719 0.949 . S
C1724 C1730 1.368 . S
C1725 C1709 1.349 . S
C1725 H1717 0.950 . S
C1725 C1723 1.327 . S
C1726 C1714 1.349 . S
C1726 H1720 0.950 . S
C1726 C1727 1.327 . S
C1727 H1721 0.950 . S
C1727 C1726 1.327 . S
C1727 C1731 1.429 . S
C1728 C1711 1.574 . S
C1728 H1722 0.949 . S
C1728 C1732 1.368 . S
C1729 C1710 1.429 . S
C1729 C1723 1.429 . S
C1729 C1730 1.523 . S
C1730 C1711 1.368 . S
C1730 C1724 1.368 . S
C1730 C1729 1.523 . S
C1731 C1715 1.429 . S
C1731 C1727 1.429 . S
C1731 C1732 1.523 . S
C1732 C1716 1.368 . S
C1732 C1728 1.368 . S
C1732 C1731 1.523 . S
H1733 C1708 0.950 . S
H1734 C1710 0.950 . S
H1735 C1711 0.949 . S
H1736 C1713 0.950 . S
H1737 C1715 0.950 . S
C1738 C1739 1.349 . S
C1738 C1740 1.327 . S
C1738 H1763 0.950 . S
C1739 C1738 1.349 . S
C1739 C1755 1.349 . S
C1740 C1738 1.327 . S
C1740 C1759 1.429 . S
C1740 H1764 0.950 . S
C1741 C1758 1.574 . S
C1741 C1760 1.368 . S
C1741 H1765 0.949 . S
H1742 C1746 0.949 . S
C1743 C1744 1.349 . S
C1743 C1745 1.327 . S
C1743 H1766 0.950 . S
C1744 C1743 1.349 . S
C1744 C1756 1.349 . S
C1745 C1743 1.327 . S
C1745 C1761 1.429 . S
C1745 H1767 0.950 . S
C1746 H1742 0.949 . S
C1746 C1754 1.574 . S
C1746 C1762 1.368 . S
H1747 C1755 0.950 . S
H1748 C1753 0.950 . S
H1749 C1754 0.949 . S
H1750 C1756 0.950 . S
H1751 C1757 0.950 . S
H1752 C1758 0.949 . S
C1753 H1748 0.950 . S
C1753 C1755 1.327 . S
C1753 C1759 1.429 . S
C1754 C1746 1.574 . S
C1754 H1749 0.949 . S
C1754 C1760 1.368 . S
C1755 C1739 1.349 . S
C1755 H1747 0.950 . S
C1755 C1753 1.327 . S
C1756 C1744 1.349 . S
C1756 H1750 0.950 . S
C1756 C1757 1.327 . S
C1757 H1751 0.950 . S
C1757 C1756 1.327 . S
C1757 C1761 1.429 . S
C1758 C1741 1.574 . S
C1758 H1752 0.949 . S
C1758 C1762 1.368 . S
C1759 C1740 1.429 . S
C1759 C1753 1.429 . S
C1759 C1760 1.523 . S
C1760 C1741 1.368 . S
C1760 C1754 1.368 . S
C1760 C1759 1.523 . S
C1761 C1745 1.429 . S
C1761 C1757 1.429 . S
C1761 C1762 1.523 . S
C1762 C1746 1.368 . S
C1762 C1758 1.368 . S
C1762 C1761 1.523 . S
H1763 C1738 0.950 . S
H1764 C1740 0.950 . S
H1765 C1741 0.949 . S
H1766 C1743 0.950 . S
H1767 C1745 0.950 . S
C1768 C1769 1.349 . S
C1768 C1770 1.327 . S
C1768 H1793 0.950 . S
C1769 C1768 1.349 . S
C1769 C1785 1.349 . S
C1770 C1768 1.327 . S
C1770 C1789 1.429 . S
C1770 H1794 0.950 . S
C1771 C1788 1.574 . S
C1771 C1790 1.368 . S
C1771 H1795 0.949 . S
H1772 C1776 0.949 . S
C1773 C1774 1.349 . S
C1773 C1775 1.327 . S
C1773 H1796 0.950 . S
C1774 C1773 1.349 . S
C1774 C1786 1.349 . S
C1775 C1773 1.327 . S
C1775 C1791 1.429 . S
C1775 H1797 0.950 . S
C1776 H1772 0.949 . S
C1776 C1784 1.574 . S
C1776 C1792 1.368 . S
H1777 C1785 0.950 . S
H1778 C1783 0.950 . S
H1779 C1784 0.949 . S
H1780 C1786 0.950 . S
H1781 C1787 0.950 . S
H1782 C1788 0.949 . S
C1783 H1778 0.950 . S
C1783 C1785 1.327 . S
C1783 C1789 1.429 . S
C1784 C1776 1.574 . S
C1784 H1779 0.949 . S
C1784 C1790 1.368 . S
C1785 C1769 1.349 . S
C1785 H1777 0.950 . S
C1785 C1783 1.327 . S
C1786 C1774 1.349 . S
C1786 H1780 0.950 . S
C1786 C1787 1.327 . S
C1787 H1781 0.950 . S
C1787 C1786 1.327 . S
C1787 C1791 1.429 . S
C1788 C1771 1.574 . S
C1788 H1782 0.949 . S
C1788 C1792 1.368 . S
C1789 C1770 1.429 . S
C1789 C1783 1.429 . S
C1789 C1790 1.523 . S
C1790 C1771 1.368 . S
C1790 C1784 1.368 . S
C1790 C1789 1.523 . S
C1791 C1775 1.429 . S
C1791 C1787 1.429 . S
C1791 C1792 1.523 . S
C1792 C1776 1.368 . S
C1792 C1788 1.368 . S
C1792 C1791 1.523 . S
H1793 C1768 0.950 . S
H1794 C1770 0.950 . S
H1795 C1771 0.949 . S
H1796 C1773 0.950 . S
H1797 C1775 0.950 . S
C364 C187 1.849 . S
C359 C19 1.933 . S
C394 C188 1.881 . S
C389 C24 1.878 . S
C424 C182 1.144 . S
C419 C59 1.149 . S
C449 C69 1.114 . S
C454 C181 1.142 . S
C479 C82 1.878 . S
C484 C184 1.881 . S
C514 C186 1.144 . S
C509 C118 1.149 . S
C539 C132 1.114 . S
C544 C185 1.142 . S
C569 C158 1.933 . S
C574 C183 1.849 . S
C604 C218 1.827 . S
C599 C4 1.646 . S
C629 C29 0.977 . S
C634 C249 0.960 . S
C664 C217 1.526 . S
C659 C44 1.442 . S
C694 C252 1.054 . S
C689 C79 1.034 . S
C719 C98 1.332 . S
C724 C215 1.313 . S
C754 C247 1.534 . S
C749 C112 1.464 . S
C779 C122 1.001 . S
C784 C220 1.025 . S
C809 C152 1.254 . S
C814 C254 1.277 . S
C839 C9 1.254 . S
C844 C250 1.276 . S
C869 C92 0.977 . S
C874 C253 0.961 . S
C904 C221 1.526 . S
C899 C102 1.446 . S
C934 C248 1.054 . S
C929 C138 1.039 . S
C959 C142 1.648 . S
C964 C214 1.829 . S
C989 C49 1.461 . S
C994 C251 1.533 . S
C1024 C216 1.025 . S
C1019 C64 0.999 . S
C1049 C39 1.332 . S
C1054 C219 1.310 . S
C1079 C159 1.926 . S
C1084 C286 1.847 . S
C1109 C84 1.395 . S
C1114 C287 1.415 . S
C1144 C281 1.162 . S
C1139 C119 1.171 . S
C1174 C280 1.635 . S
C1169 C129 1.610 . S
C1199 C22 1.395 . S
C1204 C283 1.414 . S
C1234 C285 1.162 . S
C1229 C58 1.169 . S
C1259 C72 1.609 . S
C1264 C284 1.634 . S
C1289 C18 1.926 . S
C1294 C282 1.844 . S
C1319 C144 1.786 . S
C1324 C320 1.872 . S
C1354 C352 0.743 . S
C1349 C89 0.743 . S
C1379 C104 1.376 . S
C1384 C313 1.501 . S
C1409 C139 1.351 . S
C1414 C347 1.385 . S
C1444 C318 1.064 . S
C1439 C38 1.065 . S
C1469 C52 1.598 . S
C1474 C349 1.631 . S
C1504 C315 1.279 . S
C1499 C62 1.273 . S
C1534 C350 1.292 . S
C1529 C12 1.200 . S
C1564 C346 1.292 . S
C1559 C149 1.200 . S
C1589 C32 0.743 . S
C1594 C348 0.743 . S
C1619 C42 1.376 . S
C1624 C317 1.501 . S
C1654 C351 1.385 . S
C1649 C78 1.351 . S
C1679 C2 1.786 . S
C1684 C316 1.872 . S
C1709 C109 1.598 . S
C1714 C353 1.631 . S
C1744 C319 1.279 . S
C1739 C124 1.273 . S
C1774 C314 1.064 . S
C1769 C99 1.065 . S
