# Generated by pormake.
# Topology ocu, (6,8)-cn, num edge types: 1
# Building blocks:
#     Node 0, Type 0, BuildingBlock: UKALOJ_clean_sbu_0, # of connection points: 6
#     Node 1, Type 0, BuildingBlock: UKALOJ_clean_sbu_0, # of connection points: 6
#     Node 2, Type 0, BuildingBlock: UKALOJ_clean_sbu_0, # of connection points: 6
#     Node 3, Type 0, BuildingBlock: UKALOJ_clean_sbu_0, # of connection points: 6
#     Node 4, Type 0, BuildingBlock: UKALOJ_clean_sbu_0, # of connection points: 6
#     Node 5, Type 0, BuildingBlock: UKALOJ_clean_sbu_0, # of connection points: 6
#     Node 6, Type 0, BuildingBlock: UKALOJ_clean_sbu_0, # of connection points: 6
#     Node 7, Type 0, BuildingBlock: UKALOJ_clean_sbu_0, # of connection points: 6
#     Node 8, Type 1, BuildingBlock: LIZSOE_clean_sbu_0, # of connection points: 8
#     Node 9, Type 1, BuildingBlock: LIZSOE_clean_sbu_0, # of connection points: 8
#     Node 10, Type 1, BuildingBlock: LIZSOE_clean_sbu_0, # of connection points: 8
#     Node 11, Type 1, BuildingBlock: LIZSOE_clean_sbu_0, # of connection points: 8
#     Node 12, Type 1, BuildingBlock: LIZSOE_clean_sbu_0, # of connection points: 8
#     Node 13, Type 1, BuildingBlock: LIZSOE_clean_sbu_0, # of connection points: 8
#     Edge 14, Type (0, 1), BuildingBlock: UVAHIK_clean_linker_0, # of connection points: 2
#     Edge 15, Type (0, 1), BuildingBlock: UVAHIK_clean_linker_0, # of connection points: 2
#     Edge 16, Type (0, 1), BuildingBlock: UVAHIK_clean_linker_0, # of connection points: 2
#     Edge 17, Type (0, 1), BuildingBlock: UVAHIK_clean_linker_0, # of connection points: 2
#     Edge 18, Type (0, 1), BuildingBlock: UVAHIK_clean_linker_0, # of connection points: 2
#     Edge 19, Type (0, 1), BuildingBlock: UVAHIK_clean_linker_0, # of connection points: 2
#     Edge 20, Type (0, 1), BuildingBlock: UVAHIK_clean_linker_0, # of connection points: 2
#     Edge 21, Type (0, 1), BuildingBlock: UVAHIK_clean_linker_0, # of connection points: 2
#     Edge 22, Type (0, 1), BuildingBlock: UVAHIK_clean_linker_0, # of connection points: 2
#     Edge 23, Type (0, 1), BuildingBlock: UVAHIK_clean_linker_0, # of connection points: 2
#     Edge 24, Type (0, 1), BuildingBlock: UVAHIK_clean_linker_0, # of connection points: 2
#     Edge 25, Type (0, 1), BuildingBlock: UVAHIK_clean_linker_0, # of connection points: 2
#     Edge 26, Type (0, 1), BuildingBlock: UVAHIK_clean_linker_0, # of connection points: 2
#     Edge 27, Type (0, 1), BuildingBlock: UVAHIK_clean_linker_0, # of connection points: 2
#     Edge 28, Type (0, 1), BuildingBlock: UVAHIK_clean_linker_0, # of connection points: 2
#     Edge 29, Type (0, 1), BuildingBlock: UVAHIK_clean_linker_0, # of connection points: 2
#     Edge 30, Type (0, 1), BuildingBlock: UVAHIK_clean_linker_0, # of connection points: 2
#     Edge 31, Type (0, 1), BuildingBlock: UVAHIK_clean_linker_0, # of connection points: 2
#     Edge 32, Type (0, 1), BuildingBlock: UVAHIK_clean_linker_0, # of connection points: 2
#     Edge 33, Type (0, 1), BuildingBlock: UVAHIK_clean_linker_0, # of connection points: 2
#     Edge 34, Type (0, 1), BuildingBlock: UVAHIK_clean_linker_0, # of connection points: 2
#     Edge 35, Type (0, 1), BuildingBlock: UVAHIK_clean_linker_0, # of connection points: 2
#     Edge 36, Type (0, 1), BuildingBlock: UVAHIK_clean_linker_0, # of connection points: 2
#     Edge 37, Type (0, 1), BuildingBlock: UVAHIK_clean_linker_0, # of connection points: 2
#     Edge 38, Type (0, 1), BuildingBlock: UVAHIK_clean_linker_0, # of connection points: 2
#     Edge 39, Type (0, 1), BuildingBlock: UVAHIK_clean_linker_0, # of connection points: 2
#     Edge 40, Type (0, 1), BuildingBlock: UVAHIK_clean_linker_0, # of connection points: 2
#     Edge 41, Type (0, 1), BuildingBlock: UVAHIK_clean_linker_0, # of connection points: 2
#     Edge 42, Type (0, 1), BuildingBlock: UVAHIK_clean_linker_0, # of connection points: 2
#     Edge 43, Type (0, 1), BuildingBlock: UVAHIK_clean_linker_0, # of connection points: 2
#     Edge 44, Type (0, 1), BuildingBlock: UVAHIK_clean_linker_0, # of connection points: 2
#     Edge 45, Type (0, 1), BuildingBlock: UVAHIK_clean_linker_0, # of connection points: 2
#     Edge 46, Type (0, 1), BuildingBlock: UVAHIK_clean_linker_0, # of connection points: 2
#     Edge 47, Type (0, 1), BuildingBlock: UVAHIK_clean_linker_0, # of connection points: 2
#     Edge 48, Type (0, 1), BuildingBlock: UVAHIK_clean_linker_0, # of connection points: 2
#     Edge 49, Type (0, 1), BuildingBlock: UVAHIK_clean_linker_0, # of connection points: 2
#     Edge 50, Type (0, 1), BuildingBlock: UVAHIK_clean_linker_0, # of connection points: 2
#     Edge 51, Type (0, 1), BuildingBlock: UVAHIK_clean_linker_0, # of connection points: 2
#     Edge 52, Type (0, 1), BuildingBlock: UVAHIK_clean_linker_0, # of connection points: 2
#     Edge 53, Type (0, 1), BuildingBlock: UVAHIK_clean_linker_0, # of connection points: 2
#     Edge 54, Type (0, 1), BuildingBlock: UVAHIK_clean_linker_0, # of connection points: 2
#     Edge 55, Type (0, 1), BuildingBlock: UVAHIK_clean_linker_0, # of connection points: 2
#     Edge 56, Type (0, 1), BuildingBlock: UVAHIK_clean_linker_0, # of connection points: 2
#     Edge 57, Type (0, 1), BuildingBlock: UVAHIK_clean_linker_0, # of connection points: 2
#     Edge 58, Type (0, 1), BuildingBlock: UVAHIK_clean_linker_0, # of connection points: 2
#     Edge 59, Type (0, 1), BuildingBlock: UVAHIK_clean_linker_0, # of connection points: 2
#     Edge 60, Type (0, 1), BuildingBlock: UVAHIK_clean_linker_0, # of connection points: 2
#     Edge 61, Type (0, 1), BuildingBlock: UVAHIK_clean_linker_0, # of connection points: 2
# Relax obj value: 0.221
# Max RMSD: 0.289
# Mean RMSD: 0.208
data_MOF--net-ocu--node1-UKALOJ_clean_sbu_0--node2-LIZSOE_clean_sbu_0--edge1-UVAHIK_clean_linker_0
_symmetry_space_group_name_H-M    P1
_symmetry_Int_Tables_number       1
_symmetry_cell_setting            triclinic
loop_
_symmetry_equiv_pos_as_xyz
'x, y, z'
_cell_length_a     48.287144
_cell_length_b     48.212284
_cell_length_c     48.935226
_cell_angle_alpha  100.09693
_cell_angle_beta   79.817934
_cell_angle_gamma 95.833456
loop_
_atom_site_label
_atom_site_type_symbol
_atom_site_fract_x
_atom_site_fract_y
_atom_site_fract_z
_atom_type_partial_charge
Zn0 Zn 0.25187 0.24926 0.25982 0.0
O1 O 0.22156 0.27047 0.29192 0.0
C2 C 0.24457 0.28848 0.22259 0.0
Zn3 Zn 0.28455 0.28468 0.26279 0.0
C4 C 0.22926 0.29543 0.3026 0.0
O5 O 0.25426 0.30525 0.29481 0.0
C6 C 0.30735 0.23862 0.2201 0.0
O7 O 0.30232 0.26843 0.29308 0.0
O8 O 0.2697 0.23345 0.29008 0.0
N9 N 0.30967 0.32094 0.2673 0.0
C10 C 0.33769 0.32724 0.26195 0.0
C11 C 0.318 0.36608 0.27391 0.0
N12 N 0.29754 0.3451 0.27508 0.0
N13 N 0.34353 0.35561 0.26565 0.0
C14 C 0.19876 0.20678 0.26198 0.0
C15 C 0.21823 0.16783 0.24991 0.0
N16 N 0.2267 0.21298 0.25556 0.0
N17 N 0.2387 0.18874 0.24769 0.0
N18 N 0.19286 0.17846 0.25895 0.0
H19 H 0.18439 0.24642 0.25794 0.0
H20 H 0.17527 0.23681 0.29236 0.0
H21 H 0.15652 0.21914 0.26463 0.0
C22 C 0.17739 0.22848 0.26955 0.0
C23 C 0.35905 0.30553 0.2549 0.0
H24 H 0.35158 0.28745 0.26619 0.0
H25 H 0.37966 0.31477 0.26061 0.0
H26 H 0.36187 0.29737 0.23202 0.0
O27 O 0.31481 0.26375 0.23053 0.0
O28 O 0.28243 0.22859 0.22798 0.0
C29 C 0.29133 0.2451 0.30017 0.0
O30 O 0.23406 0.26516 0.22996 0.0
O31 O 0.26632 0.30064 0.23219 0.0
Zn32 Zn 0.76818 0.27162 0.24128 0.0
O33 O 0.7412 0.24101 0.21818 0.0
C34 C 0.72696 0.31652 0.24554 0.0
Zn35 Zn 0.73544 0.27397 0.27904 0.0
C36 C 0.7161 0.23418 0.22926 0.0
O37 O 0.70781 0.24467 0.25484 0.0
C38 C 0.7881 0.31086 0.2909 0.0
O39 O 0.75391 0.23933 0.28935 0.0
O40 O 0.78765 0.23874 0.25294 0.0
N41 N 0.70566 0.27336 0.3138 0.0
C42 C 0.70874 0.26925 0.33953 0.0
C43 C 0.66566 0.25913 0.33576 0.0
N44 N 0.67868 0.26774 0.31169 0.0
N45 N 0.68414 0.25946 0.35355 0.0
C46 C 0.79621 0.2784 0.18111 0.0
C47 C 0.83967 0.28086 0.18454 0.0
N48 N 0.79789 0.27189 0.20639 0.0
N49 N 0.82498 0.27278 0.20823 0.0
N50 N 0.82211 0.28484 0.16722 0.0
H51 H 0.75505 0.25959 0.17415 0.0
H52 H 0.77402 0.27733 0.14631 0.0
H53 H 0.75835 0.29742 0.1787 0.0
C54 C 0.76938 0.27813 0.16946 0.0
C55 C 0.73555 0.27589 0.35164 0.0
H56 H 0.73319 0.27004 0.37291 0.0
H57 H 0.74071 0.29899 0.35375 0.0
H58 H 0.75327 0.2652 0.3377 0.0
O59 O 0.7635 0.30306 0.30258 0.0
O60 O 0.79543 0.30198 0.26477 0.0
C61 C 0.77651 0.22936 0.27539 0.0
O62 O 0.74849 0.30539 0.23041 0.0
O63 O 0.7169 0.30793 0.26864 0.0
Zn64 Zn 0.78895 0.7761 0.24719 0.0
O65 O 0.77144 0.78779 0.21494 0.0
C66 C 0.74091 0.79785 0.29015 0.0
Zn67 Zn 0.75548 0.74211 0.25409 0.0
C68 C 0.74824 0.77521 0.20929 0.0
O69 O 0.73711 0.7552 0.22235 0.0
C70 C 0.79642 0.74362 0.29206 0.0
O71 O 0.77842 0.71212 0.22313 0.0
O72 O 0.81232 0.74524 0.21746 0.0
N73 N 0.72222 0.71335 0.25983 0.0
C74 C 0.72037 0.68492 0.25608 0.0
C75 C 0.67885 0.69797 0.26042 0.0
N76 N 0.69635 0.72143 0.26306 0.0
N77 N 0.69326 0.67456 0.25571 0.0
C78 C 0.82654 0.83226 0.24281 0.0
C79 C 0.86713 0.81608 0.2314 0.0
N80 N 0.82278 0.80394 0.24032 0.0
N81 N 0.848 0.79395 0.2329 0.0
N82 N 0.85437 0.84052 0.23752 0.0
H83 H 0.78482 0.84084 0.23855 0.0
H84 H 0.80975 0.87155 0.24079 0.0
H85 H 0.79538 0.85576 0.27167 0.0
C86 C 0.80281 0.85132 0.24866 0.0
C87 C 0.74476 0.66768 0.25528 0.0
H88 H 0.75699 0.66417 0.23374 0.0
H89 H 0.73721 0.64689 0.26172 0.0
H90 H 0.75918 0.67893 0.2695 0.0
O91 O 0.77395 0.72989 0.28568 0.0
O92 O 0.80669 0.76426 0.2796 0.0
C93 C 0.80294 0.71973 0.21137 0.0
O94 O 0.7647 0.8067 0.27749 0.0
O95 O 0.73281 0.77187 0.28462 0.0
Zn96 Zn 0.27573 0.76229 0.2756 0.0
O97 O 0.25517 0.79776 0.30138 0.0
C98 C 0.22648 0.72128 0.29247 0.0
Zn99 Zn 0.24585 0.75614 0.24554 0.0
C100 C 0.23309 0.80417 0.29374 0.0
O101 O 0.22514 0.78995 0.27176 0.0
C102 C 0.28814 0.7142 0.22707 0.0
O103 O 0.2716 0.78582 0.22181 0.0
O104 O 0.30243 0.79112 0.25044 0.0
N105 N 0.21608 0.75357 0.22078 0.0
C106 C 0.2168 0.74809 0.19274 0.0
C107 C 0.17473 0.75714 0.21163 0.0
N108 N 0.18999 0.7593 0.23246 0.0
N109 N 0.19104 0.75025 0.18646 0.0
C110 C 0.30527 0.77215 0.32827 0.0
C111 C 0.34658 0.76009 0.30984 0.0
N112 N 0.30556 0.76473 0.3004 0.0
N113 N 0.33117 0.7571 0.28902 0.0
N114 N 0.33082 0.76939 0.33473 0.0
H115 H 0.27774 0.80361 0.35046 0.0
H116 H 0.28124 0.77623 0.37024 0.0
H117 H 0.26031 0.7693 0.34224 0.0
C118 C 0.27965 0.78065 0.34908 0.0
C119 C 0.24295 0.74192 0.17172 0.0
H120 H 0.26197 0.75262 0.17968 0.0
H121 H 0.24159 0.74869 0.15149 0.0
H122 H 0.24538 0.71887 0.16793 0.0
O123 O 0.26692 0.72198 0.21907 0.0
O124 O 0.29576 0.72716 0.24976 0.0
C125 C 0.29486 0.79723 0.22865 0.0
O126 O 0.24914 0.73345 0.30021 0.0
O127 O 0.2198 0.72658 0.26994 0.0
Zn128 Zn 0.26957 0.76536 0.74472 0.0
O129 O 0.24338 0.73324 0.7225 0.0
C130 C 0.22774 0.8082 0.74493 0.0
Zn131 Zn 0.23637 0.76889 0.78205 0.0
C132 C 0.21798 0.727 0.73312 0.0
O133 O 0.20904 0.73861 0.75818 0.0
C134 C 0.28865 0.80688 0.79327 0.0
O135 O 0.25464 0.73527 0.79462 0.0
O136 O 0.28927 0.73459 0.7591 0.0
N137 N 0.20581 0.76945 0.81653 0.0
C138 C 0.20802 0.76493 0.84238 0.0
C139 C 0.16522 0.75518 0.83731 0.0
N140 N 0.179 0.76407 0.81364 0.0
N141 N 0.18303 0.75499 0.85565 0.0
C142 C 0.31088 0.78213 0.69407 0.0
C143 C 0.32678 0.74284 0.67327 0.0
N144 N 0.29899 0.76235 0.70957 0.0
N145 N 0.30887 0.73792 0.69668 0.0
N146 N 0.32795 0.77037 0.67115 0.0
H147 H 0.29176 0.81863 0.6892 0.0
H148 H 0.32712 0.82559 0.69633 0.0
H149 H 0.29869 0.81918 0.72432 0.0
C150 C 0.30685 0.81314 0.7017 0.0
C151 C 0.23424 0.77188 0.85552 0.0
H152 H 0.23052 0.76762 0.87748 0.0
H153 H 0.24055 0.79468 0.85597 0.0
H154 H 0.25187 0.75985 0.84317 0.0
O155 O 0.26414 0.79895 0.80514 0.0
O156 O 0.29616 0.79739 0.76727 0.0
C157 C 0.27791 0.72586 0.78178 0.0
O158 O 0.24918 0.79632 0.7305 0.0
O159 O 0.21818 0.80191 0.76919 0.0
Zn160 Zn 0.2782 0.26517 0.74869 0.0
O161 O 0.26562 0.28025 0.71533 0.0
C162 C 0.22992 0.29086 0.78803 0.0
Zn163 Zn 0.24135 0.23403 0.7523 0.0
C164 C 0.24283 0.26953 0.707 0.0
O165 O 0.22887 0.24951 0.71839 0.0
C166 C 0.27691 0.23055 0.79427 0.0
O167 O 0.2644 0.20188 0.7237 0.0
O168 O 0.30043 0.23324 0.71984 0.0
N169 N 0.20557 0.20802 0.75669 0.0
C170 C 0.18979 0.1944 0.73772 0.0
C171 C 0.16755 0.18881 0.77834 0.0
N172 N 0.1918 0.20446 0.78192 0.0
N173 N 0.16572 0.18255 0.7508 0.0
C174 C 0.31951 0.3188 0.75155 0.0
C175 C 0.35837 0.3004 0.74861 0.0
N176 N 0.31435 0.29057 0.74631 0.0
N177 N 0.3386 0.2792 0.74402 0.0
N178 N 0.34705 0.32562 0.75369 0.0
H179 H 0.28313 0.33044 0.73755 0.0
H180 H 0.30835 0.3596 0.74649 0.0
H181 H 0.28551 0.34349 0.77366 0.0
C182 C 0.29797 0.33934 0.75226 0.0
C183 C 0.19854 0.19144 0.70645 0.0
H184 H 0.18825 0.2071 0.69837 0.0
H185 H 0.19159 0.17008 0.69622 0.0
H186 H 0.22164 0.19508 0.70063 0.0
O187 O 0.25418 0.21934 0.78618 0.0
O188 O 0.29063 0.25015 0.78223 0.0
C189 C 0.28989 0.20819 0.71335 0.0
O190 O 0.25557 0.29673 0.77803 0.0
O191 O 0.21885 0.26617 0.78089 0.0
Zn192 Zn 0.78015 0.25766 0.7733 0.0
O193 O 0.75815 0.29136 0.79984 0.0
C194 C 0.73208 0.21454 0.78819 0.0
Zn195 Zn 0.75105 0.25066 0.74246 0.0
C196 C 0.73597 0.29705 0.79192 0.0
O197 O 0.72902 0.28317 0.76934 0.0
C198 C 0.79512 0.21125 0.72357 0.0
O199 O 0.77654 0.28188 0.72011 0.0
O200 O 0.80629 0.28796 0.74991 0.0
N201 N 0.72174 0.24848 0.7172 0.0
C202 C 0.72293 0.24394 0.68909 0.0
C203 C 0.68082 0.25321 0.70761 0.0
N204 N 0.69562 0.25434 0.72864 0.0
N205 N 0.69748 0.24692 0.68256 0.0
C206 C 0.80794 0.26559 0.82689 0.0
C207 C 0.85003 0.25585 0.80887 0.0
N208 N 0.80921 0.26001 0.79878 0.0
N209 N 0.83532 0.25382 0.78764 0.0
N210 N 0.83335 0.26305 0.83376 0.0
H211 H 0.77911 0.29518 0.85054 0.0
H212 H 0.78263 0.26602 0.86802 0.0
H213 H 0.76273 0.2611 0.83935 0.0
C214 C 0.78158 0.27216 0.84743 0.0
C215 C 0.74922 0.23795 0.66826 0.0
H216 H 0.76811 0.2486 0.67657 0.0
H217 H 0.74808 0.24493 0.64808 0.0
H218 H 0.75163 0.21489 0.66427 0.0
O219 O 0.7735 0.21795 0.7154 0.0
O220 O 0.80179 0.22413 0.7467 0.0
C221 C 0.79914 0.29408 0.72794 0.0
O222 O 0.75421 0.22761 0.79624 0.0
O223 O 0.72534 0.21943 0.76551 0.0
Zn224 Zn 0.77714 0.77643 0.76411 0.0
O225 O 0.79239 0.75898 0.79493 0.0
C226 C 0.80163 0.73063 0.72128 0.0
Zn227 Zn 0.74514 0.74063 0.75806 0.0
C228 C 0.78189 0.73489 0.80037 0.0
O229 O 0.76123 0.72299 0.7887 0.0
C230 C 0.74147 0.78209 0.72116 0.0
O231 O 0.71354 0.76139 0.78908 0.0
O232 O 0.74543 0.79669 0.79481 0.0
N233 N 0.71872 0.70566 0.7502 0.0
C234 C 0.70543 0.68769 0.76719 0.0
C235 C 0.70086 0.66896 0.72524 0.0
N236 N 0.71567 0.69413 0.72413 0.0
N237 N 0.69418 0.66463 0.75209 0.0
C238 C 0.83085 0.81778 0.76362 0.0
C239 C 0.81223 0.85717 0.77452 0.0
N240 N 0.80284 0.81222 0.77034 0.0
N241 N 0.79137 0.83675 0.77763 0.0
N242 N 0.83736 0.84597 0.76545 0.0
H243 H 0.84439 0.77875 0.77039 0.0
H244 H 0.87275 0.80519 0.76221 0.0
H245 H 0.85411 0.78596 0.73513 0.0
C246 C 0.85183 0.79571 0.75757 0.0
C247 C 0.70415 0.69201 0.79845 0.0
H248 H 0.70825 0.71454 0.80712 0.0
H249 H 0.72007 0.67952 0.80349 0.0
H250 H 0.68312 0.6841 0.8086 0.0
O251 O 0.73011 0.75856 0.72732 0.0
O252 O 0.76207 0.79376 0.73293 0.0
C253 C 0.72028 0.78626 0.80082 0.0
O254 O 0.80832 0.75553 0.73291 0.0
O255 O 0.77653 0.72015 0.72737 0.0
Co256 Co 0.0281 0.95269 0.52534 0.0
N257 N 0.03499 0.93442 0.55419 0.0
C258 C 0.01768 0.91318 0.56377 0.0
N259 N 0.05332 0.91844 0.58734 0.0
C260 C 0.05672 0.93716 0.56905 0.0
C261 C 0.02866 0.90359 0.58415 0.0
Co262 Co 0.96975 0.04588 0.47216 0.0
N263 N 0.96372 0.06436 0.44332 0.0
N264 N 0.94366 0.08691 0.41594 0.0
C265 C 0.96838 0.07784 0.40148 0.0
C266 C 0.98043 0.06395 0.41806 0.0
C267 C 0.94132 0.07837 0.4414 0.0
Co268 Co 1.00045 1.00047 0.49887 0.0
C269 C 0.97532 0.05761 0.51258 0.0
H270 H 0.99984 0.05345 0.41161 0.0
O271 O 0.02499 0.96901 0.49712 0.0
O272 O 0.03194 0.01859 0.47419 0.0
O273 O 0.0145 0.02231 0.53285 0.0
O274 O 0.96886 0.9824 0.52398 0.0
O275 O 0.9896 0.94888 0.53787 0.0
O276 O 1.0088 0.04935 0.45937 0.0
O277 O 0.97489 0.0312 0.50047 0.0
O278 O 0.9669 0.01163 0.44857 0.0
O279 O 0.02938 0.98747 0.54982 0.0
O280 O 0.06411 0.95823 0.51049 0.0
O281 O 0.98647 0.97855 0.46451 0.0
O282 O 0.97308 0.07689 0.49758 0.0
C283 C 0.02417 0.01313 0.5519 0.0
C284 C 0.91718 0.08366 0.46504 0.0
H285 H 0.92384 0.08328 0.48552 0.0
H286 H 0.90867 0.10425 0.4653 0.0
H287 H 0.90018 0.06664 0.46215 0.0
C288 C 0.03134 0.03844 0.46032 0.0
C289 C 0.96802 0.96167 0.53729 0.0
H290 H 0.99838 0.90473 0.55607 0.0
H291 H 0.09779 0.94977 0.54858 0.0
H292 H 0.09074 0.96384 0.58552 0.0
H293 H 0.07526 0.9783 0.56073 0.0
C294 C 0.08142 0.95861 0.56592 0.0
C295 C 0.05245 0.96822 0.49258 0.0
C296 C 0.97378 0.98655 0.44673 0.0
H297 H 0.01966 0.88635 0.5952 0.0
H298 H 0.97679 0.0803 0.37994 0.0
Co299 Co 0.54922 0.97355 0.03917 0.0
N300 N 0.56072 0.96054 0.06838 0.0
C301 C 0.55058 0.96685 0.09608 0.0
N302 N 0.58276 0.93651 0.09231 0.0
C303 C 0.58071 0.94237 0.06675 0.0
C304 C 0.5638 0.95178 0.11078 0.0
Co305 Co 0.47306 0.04625 0.98062 0.0
N306 N 0.46304 0.06009 0.95125 0.0
N307 N 0.43998 0.08267 0.92699 0.0
C308 C 0.46322 0.07312 0.9099 0.0
C309 C 0.47719 0.05894 0.92473 0.0
C310 C 0.44023 0.07436 0.9519 0.0
Co311 Co 0.51062 0.00947 0.01004 0.0
C312 C 0.48043 0.06326 0.01989 0.0
H313 H 0.49666 0.04885 0.91677 0.0
O314 O 0.53949 0.98268 0.00953 0.0
O315 O 0.53907 0.02761 0.98089 0.0
O316 O 0.52729 0.0376 0.04078 0.0
O317 O 0.48245 0.99113 0.03917 0.0
O318 O 0.51124 0.96874 0.05717 0.0
O319 O 0.51131 0.0532 0.96532 0.0
O320 O 0.48161 0.03622 0.01046 0.0
O321 O 0.47157 0.00965 0.95973 0.0
O322 O 0.55261 0.0106 0.0583 0.0
O323 O 0.54505 0.93965 0.01814 0.0
O324 O 0.4938 0.9816 0.9794 0.0
O325 O 0.47497 0.07948 0.00312 0.0
C326 C 0.54384 0.0345 0.05788 0.0
C327 C 0.41883 0.08132 0.97777 0.0
H328 H 0.42107 0.10435 0.98561 0.0
H329 H 0.39722 0.07614 0.97271 0.0
H330 H 0.42173 0.06949 0.99445 0.0
C331 C 0.53561 0.04571 0.96568 0.0
C332 C 0.48662 0.97533 0.05639 0.0
H333 H 0.53454 0.98142 0.105 0.0
H334 H 0.58721 0.90861 0.03221 0.0
H335 H 0.61923 0.92635 0.04229 0.0
H336 H 0.59858 0.94321 0.02329 0.0
C337 C 0.59755 0.92955 0.03955 0.0
C338 C 0.53989 0.95546 1.00087 0.0
C339 C 0.47906 0.98542 0.961 0.0
H340 H 0.5598 0.95193 0.13328 0.0
H341 H 0.46973 0.07648 0.88832 0.0
Co342 Co 0.05485 0.48461 0.04078 0.0
N343 N 0.06761 0.48252 0.07383 0.0
C344 C 0.06251 0.49842 0.09948 0.0
N345 N 0.08785 0.4641 0.10393 0.0
C346 C 0.08303 0.46179 0.0771 0.0
C347 C 0.07512 0.48728 0.11794 0.0
Co348 Co 0.983 0.53105 0.95722 0.0
N349 N 0.96928 0.53268 0.92467 0.0
N350 N 0.94717 0.55188 0.89659 0.0
C351 C 0.95071 0.52462 0.88537 0.0
C352 C 0.96456 0.51294 0.90249 0.0
C353 C 0.95878 0.55618 0.92037 0.0
Co354 Co 0.01935 0.50821 0.99891 0.0
C355 C 0.9653 0.53419 0.99846 0.0
H356 H 0.96996 0.4913 0.89936 0.0
O357 O 0.04628 0.48414 0.00783 0.0
O358 O 0.04611 0.51456 0.96455 0.0
O359 O 0.03675 0.54245 0.01909 0.0
O360 O 0.99248 0.5019 0.03315 0.0
O361 O 0.0171 0.48376 0.05968 0.0
O362 O 0.02037 0.53018 0.93727 0.0
O363 O 0.99238 0.53221 0.98997 0.0
O364 O 0.97786 0.49025 0.95092 0.0
O365 O 0.05831 0.52533 0.04873 0.0
O366 O 0.08917 0.48493 0.01933 0.0
O367 O 1.00189 0.47389 0.97903 0.0
O368 O 0.94918 0.53261 0.97945 0.0
C369 C 0.05125 0.54591 0.03884 0.0
C370 C 0.95839 0.58311 0.94108 0.0
H371 H 0.96442 0.57991 0.96108 0.0
H372 H 0.97383 0.59915 0.93219 0.0
H373 H 0.93716 0.59137 0.94519 0.0
C374 C 0.04387 0.52394 0.94229 0.0
C375 C 0.99403 0.49108 0.05474 0.0
H376 H 0.05 0.51656 0.10454 0.0
H377 H 0.07957 0.43433 0.03798 0.0
H378 H 0.10132 0.42149 0.05888 0.0
H379 H 0.11422 0.45057 0.04114 0.0
C380 C 0.09502 0.44055 0.05267 0.0
C381 C 0.07348 0.48293 0.99989 0.0
C382 C 0.98568 0.47001 0.96074 0.0
H383 H 0.07447 0.49523 0.14014 0.0
H384 H 0.94324 0.51376 0.86643 0.0
Co385 Co 0.53822 0.4803 0.03656 0.0
N386 N 0.54618 0.47702 0.07197 0.0
C387 C 0.53221 0.48958 0.09665 0.0
N388 N 0.56513 0.46684 0.10763 0.0
C389 C 0.56654 0.46366 0.07936 0.0
C390 C 0.54372 0.48335 0.11854 0.0
Co391 Co 0.48549 0.56382 0.98397 0.0
N392 N 0.47451 0.57884 0.95492 0.0
N393 N 0.45315 0.60059 0.92797 0.0
C394 C 0.47098 0.58282 0.91107 0.0
C395 C 0.48384 0.56955 0.92747 0.0
C396 C 0.45575 0.59791 0.9546 0.0
Co397 Co 0.51312 0.51423 0.00807 0.0
C398 C 0.46608 0.55377 0.02169 0.0
H399 H 0.49857 0.5534 0.91972 0.0
O400 O 0.53332 0.48009 1.00223 0.0
O401 O 0.5401 0.52516 0.97522 0.0
O402 O 0.53971 0.53499 0.03392 0.0
O403 O 0.48618 0.50173 0.04121 0.0
O404 O 0.50352 0.46131 0.04382 0.0
O405 O 0.52217 0.56173 0.96365 0.0
O406 O 0.4928 0.54967 0.01286 0.0
O407 O 0.47442 0.52789 0.9653 0.0
O408 O 0.57085 0.50285 0.02989 0.0
O409 O 0.55385 0.44812 0.01752 0.0
O410 O 0.48823 0.49269 0.98223 0.0
O411 O 0.4521 0.56424 0.00589 0.0
C412 C 0.56406 0.52826 0.03681 0.0
C413 C 0.44064 0.61458 0.98072 0.0
H414 H 0.45369 0.61792 0.99772 0.0
H415 H 0.43567 0.63529 0.97661 0.0
H416 H 0.42059 0.6026 0.98789 0.0
C417 C 0.5415 0.54493 0.96074 0.0
C418 C 0.48356 0.4778 0.04994 0.0
H419 H 0.51483 0.50264 0.0986 0.0
H420 H 0.58149 0.42768 0.05028 0.0
H421 H 0.60806 0.44756 0.06876 0.0
H422 H 0.59668 0.4612 0.04099 0.0
C423 C 0.58958 0.44928 0.0587 0.0
C424 C 0.54683 0.45739 0.99673 0.0
C425 C 0.47527 0.5018 0.96558 0.0
H426 H 0.53664 0.49002 0.14077 0.0
H427 H 0.47383 0.57901 0.8883 0.0
Co428 Co 0.05028 0.47485 0.53874 0.0
N429 N 0.06649 0.46581 0.56715 0.0
C430 C 0.0691 0.48114 0.59257 0.0
N431 N 0.09056 0.4422 0.58965 0.0
C432 C 0.07947 0.44205 0.5661 0.0
C433 C 0.08415 0.46681 0.60627 0.0
Co434 Co 0.96869 0.54373 0.48235 0.0
N435 N 0.95502 0.55593 0.4535 0.0
N436 N 0.94127 0.58139 0.42463 0.0
C437 C 0.9283 0.55534 0.42069 0.0
C438 C 0.93654 0.53991 0.43848 0.0
C439 C 0.95753 0.58129 0.4445 0.0
Co440 Co 1.00967 0.50947 0.51076 0.0
C441 C 0.9782 0.56235 0.52059 0.0
H442 H 0.92843 0.51864 0.44114 0.0
O443 O 0.03818 0.48222 0.5098 0.0
O444 O 0.03601 0.52746 0.48004 0.0
O445 O 0.02694 0.53904 0.53966 0.0
O446 O 0.98377 0.49147 0.54171 0.0
O447 O 0.01425 0.47202 0.56111 0.0
O448 O 1.00611 0.55043 0.46388 0.0
O449 O 0.98002 0.53536 0.51157 0.0
O450 O 0.96762 0.50668 0.46279 0.0
O451 O 0.05608 0.51344 0.55341 0.0
O452 O 0.08261 0.47776 0.51463 0.0
O453 O 0.99219 0.48022 0.4817 0.0
O454 O 0.97061 0.57757 0.50407 0.0
C455 C 0.04646 0.53698 0.55373 0.0
C456 C 0.97592 0.60636 0.45531 0.0
H457 H 0.99555 0.5997 0.46017 0.0
H458 H 0.98155 0.62097 0.43968 0.0
H459 H 0.96432 0.61796 0.4749 0.0
C460 C 0.03098 0.5438 0.46364 0.0
C461 C 0.9892 0.47766 0.56022 0.0
H462 H 0.06096 0.50159 0.60057 0.0
H463 H 0.07564 0.4258 0.52274 0.0
H464 H 0.06814 0.40031 0.54625 0.0
H465 H 0.10411 0.41269 0.53561 0.0
C466 C 0.08209 0.41903 0.54106 0.0
C467 C 0.06477 0.48132 0.49864 0.0
C468 C 0.97632 0.48303 0.46395 0.0
H469 H 0.09007 0.47391 0.62684 0.0
H470 H 0.91259 0.54854 0.40716 0.0
Co471 Co 0.56257 0.98778 0.54027 0.0
N472 N 0.57402 0.98204 0.57295 0.0
C473 C 0.56055 0.98867 0.59959 0.0
N474 N 0.5955 0.96341 0.60186 0.0
C475 C 0.59555 0.96706 0.57506 0.0
C476 C 0.57345 0.97689 0.6173 0.0
Co477 Co 0.48136 0.0346 0.46569 0.0
N478 N 0.46711 0.03847 0.43415 0.0
N479 N 0.44475 0.05983 0.40797 0.0
C480 C 0.45268 0.03484 0.39298 0.0
C481 C 0.46637 0.02171 0.40914 0.0
C482 C 0.45412 0.06154 0.43276 0.0
Co483 Co 0.52113 0.0102 0.50314 0.0
C484 C 0.46373 0.03187 0.50622 0.0
H485 H 0.47511 1.00132 0.40306 0.0
O486 O 0.55309 0.9896 0.50822 0.0
O487 O 0.54683 0.02392 0.4716 0.0
O488 O 0.53391 0.0438 0.52856 0.0
O489 O 0.49496 0.99611 0.53457 0.0
O490 O 0.52481 0.97963 0.55644 0.0
O491 O 0.51868 0.03792 0.4457 0.0
O492 O 0.49096 0.0326 0.49762 0.0
O493 O 0.47949 0.99449 0.45537 0.0
O494 O 0.56035 0.02692 0.55437 0.0
O495 O 0.56406 0.95154 0.52314 0.0
O496 O 0.50811 0.97649 0.47786 0.0
O497 O 0.44749 0.03185 0.48762 0.0
C498 C 0.54927 0.04728 0.54776 0.0
C499 C 0.45244 0.0866 0.45579 0.0
H500 H 0.46975 0.08727 0.46818 0.0
H501 H 0.45365 0.10652 0.44706 0.0
H502 H 0.43213 0.08466 0.47026 0.0
C503 C 0.54308 0.03383 0.45019 0.0
C504 C 0.49991 0.98344 0.55366 0.0
H505 H 0.54165 1.00004 0.60556 0.0
H506 H 0.60861 0.93156 0.5444 0.0
H507 H 0.63713 0.95529 0.55534 0.0
H508 H 0.61601 0.96515 0.53195 0.0
C509 C 0.61556 0.95417 0.55017 0.0
C510 C 0.55809 0.96291 0.50282 0.0
C511 C 0.4904 0.97355 0.46093 0.0
H512 H 0.56645 0.9771 0.6396 0.0
H513 H 0.44847 0.02647 0.37198 0.0
C514 C 0.15265 0.17313 0.29685 0.0
C515 C 0.1684 0.16235 0.27086 0.0
C516 C 0.13399 0.15536 0.3121 0.0
C517 C 0.13076 0.08486 0.32644 0.0
H518 H 0.06139 0.10698 0.37499 0.0
C519 C 0.06687 0.02854 0.41761 0.0
C520 C 0.05631 0.04739 0.44156 0.0
C521 C 0.08197 0.03892 0.39393 0.0
C522 C 0.08079 0.10058 0.36156 0.0
H523 H 0.17576 0.12476 0.23985 0.0
H524 H 0.14341 0.0933 0.26711 0.0
H525 H 0.0797 0.13112 0.33501 0.0
H526 H 0.05515 0.09124 0.46096 0.0
H527 H 0.08228 0.10939 0.42005 0.0
H528 H 0.13223 0.05494 0.35381 0.0
C529 C 0.14537 0.11566 0.27531 0.0
C530 C 0.09107 0.11419 0.3386 0.0
C531 C 0.16372 0.13364 0.25974 0.0
C532 C 0.06345 0.0764 0.44275 0.0
C533 C 0.07853 0.08673 0.41925 0.0
C534 C 0.12039 0.07114 0.34948 0.0
C535 C 0.13111 0.12629 0.30205 0.0
C536 C 0.1167 0.10723 0.32149 0.0
C537 C 0.0864 0.06818 0.39415 0.0
C538 C 0.09596 0.07977 0.36784 0.0
H539 H 0.15646 0.19463 0.30684 0.0
H540 H 0.12368 0.16404 0.33292 0.0
H541 H 0.15073 0.07928 0.31368 0.0
H542 H 0.06082 1.00616 0.41604 0.0
H543 H 0.08793 0.02425 0.37479 0.0
C544 C 0.77719 0.19539 0.30882 0.0
C545 C 0.79133 0.20973 0.28712 0.0
C546 C 0.79197 0.17976 0.32234 0.0
C547 C 0.86222 0.15015 0.31686 0.0
H548 H 0.83924 0.15144 0.39712 0.0
C549 C 0.93564 0.12142 0.38693 0.0
C550 C 0.9246 0.10161 0.40473 0.0
C551 C 0.91808 0.13351 0.37314 0.0
C552 C 0.84576 0.15072 0.37467 0.0
H553 H 0.83212 0.21846 0.26233 0.0
H554 H 0.85797 0.1921 0.28621 0.0
H555 H 0.81123 0.17372 0.37125 0.0
H556 H 0.88613 0.07881 0.42157 0.0
H557 H 0.85518 0.10103 0.3985 0.0
H558 H 0.8974 0.12813 0.32069 0.0
C559 C 0.83533 0.19213 0.29248 0.0
C560 C 0.82962 0.16335 0.35971 0.0
C561 C 0.82048 0.20741 0.27873 0.0
C562 C 0.89529 0.09468 0.40888 0.0
C563 C 0.87758 0.10717 0.39538 0.0
C564 C 0.87855 0.13796 0.3319 0.0
C565 C 0.82141 0.17834 0.31478 0.0
C566 C 0.83772 0.16349 0.33057 0.0
C567 C 0.88889 0.12633 0.37696 0.0
C568 C 0.87066 0.1383 0.361 0.0
H569 H 0.75469 0.19654 0.31561 0.0
H570 H 0.78025 0.16898 0.33889 0.0
H571 H 0.8689 0.14905 0.29442 0.0
H572 H 0.95808 0.12724 0.38332 0.0
H573 H 0.92739 0.14844 0.35934 0.0
C574 C 0.89729 0.87239 0.23203 0.0
C575 C 0.86914 0.86751 0.24487 0.0
C576 C 0.91532 0.89298 0.24508 0.0
C577 C 0.91868 0.95004 0.30621 0.0
H578 H 0.97149 0.90438 0.3262 0.0
C579 C 0.93942 0.96386 0.41709 0.0
C580 C 0.96737 0.96712 0.4219 0.0
C581 C 0.93343 0.95444 0.39012 0.0
C582 C 0.95739 0.91767 0.32043 0.0
H583 H 0.83742 0.88263 0.2802 0.0
H584 H 0.86803 0.91914 0.30179 0.0
H585 H 0.95049 0.8882 0.28376 0.0
H586 H 0.01099 0.96206 0.40302 0.0
H587 H 1.00036 0.94454 0.35541 0.0
H588 H 0.92407 0.9785 0.34394 0.0
C589 C 0.87633 0.90702 0.28172 0.0
C590 C 0.94553 0.90858 0.29604 0.0
C591 C 0.85853 0.88605 0.26907 0.0
C592 C 0.9892 0.95887 0.39979 0.0
C593 C 0.98318 0.94934 0.3726 0.0
C594 C 0.93053 0.95911 0.33051 0.0
C595 C 0.90525 0.90941 0.27085 0.0
C596 C 0.92483 0.92389 0.28968 0.0
C597 C 0.95535 0.94837 0.36745 0.0
C598 C 0.94865 0.94214 0.33863 0.0
H599 H 0.90599 0.85843 0.21332 0.0
H600 H 0.93753 0.89454 0.23624 0.0
H601 H 0.903 0.96232 0.30158 0.0
H602 H 0.9224 0.97057 0.43384 0.0
H603 H 0.91171 0.95312 0.38677 0.0
C604 C 0.22453 0.84509 0.33363 0.0
C605 C 0.21604 0.82741 0.31004 0.0
C606 C 0.20754 0.86638 0.34898 0.0
C607 C 0.13344 0.88327 0.36549 0.0
H608 H 0.16259 0.95895 0.3931 0.0
C609 C 0.05879 0.95658 0.44033 0.0
C610 C 0.06967 0.9694 0.46462 0.0
C611 C 0.07705 0.94615 0.41589 0.0
C612 C 0.15405 0.93789 0.38566 0.0
H613 H 0.18322 0.81875 0.28385 0.0
H614 H 0.15383 0.8554 0.31062 0.0
H615 H 0.19446 0.92558 0.36315 0.0
H616 H 0.10796 0.98467 0.48137 0.0
H617 H 0.13962 0.9663 0.43941 0.0
H618 H 0.09351 0.89459 0.38887 0.0
C619 C 0.17348 0.85282 0.31736 0.0
C620 C 0.17239 0.91877 0.36852 0.0
C621 C 0.19046 0.83181 0.30197 0.0
C622 C 0.09901 0.97485 0.4629 0.0
C623 C 0.11723 0.96419 0.43869 0.0
C624 C 0.11523 0.90217 0.38284 0.0
C625 C 0.18163 0.8702 0.34119 0.0
C626 C 0.16231 0.89114 0.3585 0.0
C627 C 0.10647 0.94802 0.4155 0.0
C628 C 0.12527 0.92968 0.39356 0.0
H629 H 0.24412 0.84232 0.34037 0.0
H630 H 0.21428 0.87933 0.3674 0.0
H631 H 0.12505 0.86204 0.35839 0.0
H632 H 0.03629 0.95193 0.44105 0.0
H633 H 0.06795 0.93475 0.39809 0.0
C634 C 0.22212 0.83215 0.70476 0.0
C635 C 0.2123 0.82654 0.73222 0.0
C636 C 0.20587 0.84623 0.69127 0.0
C637 C 0.13183 0.85865 0.69168 0.0
H638 H 0.16407 0.91213 0.64198 0.0
C639 C 0.06165 0.91007 0.63342 0.0
C640 C 0.07216 0.91324 0.60543 0.0
C641 C 0.07919 0.90267 0.65051 0.0
C642 C 0.15473 0.89703 0.65557 0.0
H643 H 0.17794 0.83237 0.76736 0.0
H644 H 0.14965 0.85701 0.74387 0.0
H645 H 0.19405 0.89409 0.66915 0.0
H646 H 0.10909 0.91054 0.57311 0.0
H647 H 0.13983 0.89742 0.60271 0.0
H648 H 0.09273 0.8609 0.67768 0.0
C649 C 0.16987 0.85025 0.73266 0.0
C650 C 0.17194 0.88674 0.67122 0.0
C651 C 0.18622 0.8363 0.74622 0.0
C652 C 0.10066 0.909 0.59485 0.0
C653 C 0.11823 0.90143 0.61187 0.0
C654 C 0.11467 0.8688 0.67595 0.0
C655 C 0.17925 0.85492 0.70482 0.0
C656 C 0.16075 0.86727 0.68936 0.0
C657 C 0.10766 0.89786 0.63988 0.0
C658 C 0.12588 0.88801 0.65751 0.0
H659 H 0.24196 0.8248 0.6932 0.0
H660 H 0.21367 0.8492 0.66976 0.0
H661 H 0.12257 0.8433 0.70503 0.0
H662 H 0.03972 0.91316 0.64199 0.0
H663 H 0.07035 0.9006 0.67205 0.0
C664 C 0.13139 0.179 0.71858 0.0
C665 C 0.14235 0.16788 0.7387 0.0
C666 C 0.11075 0.16339 0.70454 0.0
C667 C 0.08881 0.08966 0.68278 0.0
H668 H 0.03223 0.12113 0.65234 0.0
C669 C 0.0295 0.0208 0.60222 0.0
C670 C 0.02903 0.03225 0.57782 0.0
C671 C 0.03626 0.03803 0.62638 0.0
C672 C 0.04795 0.1121 0.66072 0.0
H673 H 0.1387 0.13333 0.7622 0.0
H674 H 0.10212 0.10581 0.73786 0.0
H675 H 0.05626 0.15047 0.6885 0.0
H676 H 0.03366 0.07085 0.55998 0.0
H677 H 0.04633 0.10114 0.60226 0.0
H678 H 0.08147 0.05176 0.65448 0.0
C679 C 0.11002 0.12629 0.73235 0.0
C680 C 0.06164 0.12882 0.68141 0.0
C681 C 0.13078 0.14195 0.74633 0.0
C682 C 0.03399 0.06153 0.5785 0.0
C683 C 0.04105 0.07883 0.60273 0.0
C684 C 0.07516 0.07302 0.66221 0.0
C685 C 0.10049 0.13646 0.71065 0.0
C686 C 0.08266 0.11792 0.69219 0.0
C687 C 0.04304 0.06705 0.62663 0.0
C688 C 0.05499 0.08419 0.65056 0.0
H689 H 0.13926 0.19953 0.71326 0.0
H690 H 0.10394 0.17184 0.68793 0.0
H691 H 0.10529 0.08077 0.69016 0.0
H692 H 0.02509 0.99835 0.60254 0.0
H693 H 0.03697 0.02846 0.64467 0.0
C694 C 0.81264 0.18241 0.67695 0.0
C695 C 0.81366 0.1901 0.70582 0.0
C696 C 0.83248 0.16506 0.6597 0.0
C697 C 0.89033 0.14907 0.62806 0.0
H698 H 0.91063 0.07879 0.64491 0.0
C699 C 0.97861 0.09286 0.55547 0.0
C700 C 0.96935 0.06568 0.54338 0.0
C701 C 0.96408 0.10595 0.58095 0.0
C702 C 0.9053 0.0985 0.64012 0.0
H703 H 0.83537 0.18444 0.73948 0.0
H704 H 0.86965 0.15377 0.70935 0.0
H705 H 0.87353 0.10511 0.67694 0.0
H706 H 0.93947 0.02991 0.54958 0.0
H707 H 0.91437 0.05247 0.59439 0.0
H708 H 0.9216 0.14263 0.59127 0.0
C709 C 0.85365 0.16132 0.70009 0.0
C710 C 0.88413 0.11352 0.65839 0.0
C711 C 0.83409 0.17899 0.71727 0.0
C712 C 0.94755 0.05054 0.55884 0.0
C713 C 0.93292 0.06366 0.58437 0.0
C714 C 0.91167 0.13437 0.61013 0.0
C715 C 0.85347 0.15474 0.67102 0.0
C716 C 0.87617 0.13875 0.65226 0.0
C717 C 0.93989 0.09216 0.59463 0.0
C718 C 0.91929 0.1088 0.61578 0.0
H719 H 0.79722 0.19063 0.66748 0.0
H720 H 0.8317 0.16008 0.63737 0.0
H721 H 0.8849 0.16862 0.62298 0.0
H722 H 0.99533 0.10501 0.54389 0.0
H723 H 0.9703 0.12774 0.58869 0.0
C724 C 0.86574 0.89018 0.75805 0.0
C725 C 0.86099 0.86076 0.7504 0.0
C726 C 0.88145 0.90642 0.73886 0.0
C727 C 0.92647 0.90169 0.66854 0.0
H728 H 0.87856 0.95633 0.65528 0.0
C729 C 0.93485 0.92726 0.5599 0.0
C730 C 0.94343 0.95562 0.55807 0.0
C731 C 0.92265 0.91953 0.5857 0.0
C732 C 0.8922 0.94132 0.65894 0.0
H733 H 0.8711 0.8255 0.71689 0.0
H734 H 0.89927 0.85312 0.68468 0.0
H735 H 0.86836 0.93712 0.69946 0.0
H736 H 0.94365 0.99835 0.58089 0.0
H737 H 0.92121 0.98492 0.62586 0.0
H738 H 0.94944 0.90482 0.62753 0.0
C739 C 0.89093 0.8638 0.70544 0.0
C740 C 0.88665 0.9306 0.68428 0.0
C741 C 0.87486 0.84772 0.72431 0.0
C742 C 0.9363 0.97649 0.58151 0.0
C743 C 0.92396 0.96875 0.6074 0.0
C744 C 0.93182 0.91218 0.64324 0.0
C745 C 0.89309 0.89338 0.7119 0.0
C746 C 0.90317 0.90991 0.68885 0.0
C747 C 0.91887 0.94009 0.60994 0.0
C748 C 0.91411 0.93126 0.63784 0.0
H749 H 0.85525 0.90082 0.77798 0.0
H750 H 0.88304 0.92922 0.74444 0.0
H751 H 0.93975 0.88608 0.67168 0.0
H752 H 0.94056 0.91083 0.54217 0.0
H753 H 0.91842 0.89728 0.58718 0.0
C754 C 0.32095 0.19062 0.19595 0.0
C755 C 0.32795 0.21988 0.20142 0.0
C756 C 0.34069 0.1722 0.18048 0.0
C757 C 0.4179 0.16719 0.15391 0.0
H758 H 0.391 0.10188 0.10467 0.0
C759 C 0.485 0.10361 0.05818 0.0
C760 C 0.47657 0.075 0.05015 0.0
C761 C 0.47105 0.11929 0.08261 0.0
C762 C 0.39887 0.11966 0.11876 0.0
H763 H 0.36133 0.25269 0.19445 0.0
H764 H 0.39558 0.22064 0.16635 0.0
H765 H 0.35764 0.1341 0.13272 0.0
H766 H 0.44949 0.03946 0.06314 0.0
H767 H 0.42523 0.06673 0.10602 0.0
H768 H 0.45947 0.15313 0.13852 0.0
C769 C 0.37495 0.21182 0.17473 0.0
C770 C 0.37966 0.1383 0.13489 0.0
C771 C 0.3552 0.23029 0.19059 0.0
C772 C 0.45659 0.06143 0.0689 0.0
C773 C 0.44236 0.07719 0.09322 0.0
C774 C 0.43722 0.14863 0.13744 0.0
C775 C 0.36801 0.18244 0.16955 0.0
C776 C 0.38882 0.16245 0.15265 0.0
C777 C 0.44822 0.10665 0.09933 0.0
C778 C 0.42792 0.12468 0.11957 0.0
H779 H 0.30032 0.1817 0.20427 0.0
H780 H 0.33457 0.14979 0.17759 0.0
H781 H 0.42581 0.18523 0.16764 0.0
H782 H 0.5003 0.11459 0.04401 0.0
H783 H 0.47622 0.14186 0.08671 0.0
C784 C 0.81415 0.3292 0.15282 0.0
C785 C 0.82904 0.30473 0.14802 0.0
C786 C 0.82484 0.35213 0.13953 0.0
C787 C 0.87776 0.37857 0.0853 0.0
H788 H 0.88936 0.44218 0.14403 0.0
C789 C 0.9426 0.47788 0.05889 0.0
C790 C 0.96727 0.48152 0.07115 0.0
C791 C 0.91926 0.46144 0.06966 0.0
C792 C 0.88587 0.42474 0.12745 0.0
H793 H 0.86583 0.28445 0.12461 0.0
H794 H 0.8848 0.32492 0.10103 0.0
H795 H 0.85978 0.40035 0.15593 0.0
H796 H 0.98568 0.47344 0.10606 0.0
H797 H 0.94448 0.44476 0.12512 0.0
H798 H 0.90466 0.40263 0.05699 0.0
C799 C 0.8646 0.32598 0.11481 0.0
C800 C 0.86893 0.40094 0.13414 0.0
C801 C 0.85387 0.30294 0.12822 0.0
C802 C 0.96702 0.4709 0.09614 0.0
C803 C 0.94346 0.45459 0.10707 0.0
C804 C 0.89434 0.40257 0.07852 0.0
C805 C 0.85072 0.35114 0.12141 0.0
C806 C 0.8653 0.37745 0.11322 0.0
C807 C 0.92008 0.44858 0.09297 0.0
C808 C 0.89901 0.42552 0.09969 0.0
H809 H 0.79558 0.33174 0.16873 0.0
H810 H 0.81384 0.37135 0.1449 0.0
H811 H 0.87526 0.36064 0.06892 0.0
H812 H 0.94213 0.48538 0.03941 0.0
H813 H 0.90132 0.45716 0.05862 0.0
C814 C 0.74487 0.80845 0.17621 0.0
C815 C 0.73296 0.78572 0.18994 0.0
C816 C 0.72895 0.82102 0.16115 0.0
C817 C 0.65564 0.83313 0.16127 0.0
H818 H 0.68484 0.86124 0.09143 0.0
C819 C 0.58672 0.89298 0.11029 0.0
C820 C 0.5997 0.91668 0.09897 0.0
C821 C 0.60293 0.87427 0.11819 0.0
C822 C 0.67646 0.85372 0.11106 0.0
H823 H 0.69551 0.75735 0.19732 0.0
H824 H 0.66778 0.77931 0.17099 0.0
H825 H 0.71368 0.8326 0.11017 0.0
H826 H 0.63932 0.94007 0.0873 0.0
H827 H 0.66799 0.90772 0.10161 0.0
H828 H 0.61889 0.85488 0.16285 0.0
C829 C 0.68933 0.78757 0.17216 0.0
C830 C 0.69294 0.83724 0.12171 0.0
C831 C 0.70528 0.77491 0.1871 0.0
C832 C 0.6291 0.92153 0.09557 0.0
C833 C 0.64539 0.90296 0.10367 0.0
C834 C 0.63927 0.84972 0.15075 0.0
C835 C 0.70077 0.81119 0.15962 0.0
C836 C 0.68275 0.82693 0.14703 0.0
C837 C 0.63246 0.87921 0.11531 0.0
C838 C 0.64952 0.86041 0.12562 0.0
H839 H 0.76615 0.81727 0.17796 0.0
H840 H 0.73829 0.8393 0.15187 0.0
H841 H 0.64741 0.82596 0.18111 0.0
H842 H 0.56399 0.88906 0.11303 0.0
H843 H 0.59229 0.85599 0.12666 0.0
C844 C 0.18931 0.71908 0.14107 0.0
C845 C 0.18063 0.74305 0.16021 0.0
C846 C 0.17453 0.70823 0.11911 0.0
C847 C 0.10279 0.6969 0.11398 0.0
H848 H 0.13061 0.65449 0.04101 0.0
C849 C 0.06828 0.58226 0.07636 0.0
C850 C 0.06141 0.57494 0.04924 0.0
C851 C 0.07862 0.60975 0.08558 0.0
C852 C 0.12235 0.66666 0.06107 0.0
H853 H 0.15102 0.77561 0.17029 0.0
H854 H 0.12429 0.75584 0.13235 0.0
H855 H 0.15999 0.69431 0.06172 0.0
H856 H 0.0598 0.59044 0.01046 0.0
H857 H 0.07887 0.63827 0.02644 0.0
H858 H 0.06635 0.66759 0.11452 0.0
C859 C 0.14295 0.74594 0.13405 0.0
C860 C 0.13908 0.68937 0.07283 0.0
C861 C 0.15809 0.75709 0.15575 0.0
C862 C 0.06479 0.59558 0.03158 0.0
C863 C 0.07567 0.62288 0.04061 0.0
C864 C 0.0863 0.67395 0.10243 0.0
C865 C 0.15035 0.72072 0.11635 0.0
C866 C 0.12995 0.70378 0.09995 0.0
C867 C 0.08269 0.63009 0.06762 0.0
C868 C 0.09656 0.65796 0.07651 0.0
H869 H 0.20579 0.70711 0.14442 0.0
H870 H 0.18031 0.6884 0.10612 0.0
H871 H 0.09538 0.70748 0.13506 0.0
H872 H 0.06577 0.56677 0.09036 0.0
H873 H 0.08433 0.61488 0.10642 0.0
C874 C 0.33296 0.83974 0.79659 0.0
C875 C 0.30899 0.8252 0.80995 0.0
C876 C 0.35268 0.85576 0.81222 0.0
C877 C 0.38054 0.86313 0.87955 0.0
H878 H 0.40747 0.93846 0.86528 0.0
C879 C 0.45026 0.93882 0.95241 0.0
C880 C 0.46715 0.96129 0.94179 0.0
C881 C 0.43275 0.92055 0.93573 0.0
C882 C 0.4009 0.91725 0.86936 0.0
H883 H 0.28765 0.81602 0.85054 0.0
H884 H 0.32209 0.84341 0.87756 0.0
H885 H 0.37417 0.91067 0.83769 0.0
H886 H 0.47993 0.98113 0.90475 0.0
H887 H 0.45158 0.94846 0.8752 0.0
H888 H 0.40772 0.86919 0.91066 0.0
C889 C 0.32552 0.84264 0.85497 0.0
C890 C 0.38143 0.9013 0.85347 0.0
C891 C 0.30553 0.8271 0.83943 0.0
C892 C 0.46736 0.96392 0.91357 0.0
C893 C 0.45045 0.94537 0.89674 0.0
C894 C 0.40046 0.87888 0.89514 0.0
C895 C 0.34944 0.85727 0.84165 0.0
C896 C 0.37077 0.87404 0.85837 0.0
C897 C 0.43188 0.92395 0.90772 0.0
C898 C 0.41104 0.90638 0.89048 0.0
H899 H 0.33653 0.83872 0.77397 0.0
H900 H 0.37086 0.86654 0.80112 0.0
H901 H 0.3731 0.84211 0.88381 0.0
H902 H 0.44903 0.93658 0.97425 0.0
H903 H 0.41886 0.90471 0.94545 0.0
C904 C 0.1832 0.308 0.81306 0.0
C905 C 0.21272 0.31263 0.80708 0.0
C906 C 0.16678 0.32855 0.83051 0.0
C907 C 0.16915 0.40507 0.86267 0.0
H908 H 0.10393 0.38043 0.91351 0.0
C909 C 0.11538 0.47602 0.96203 0.0
C910 C 0.0861 0.47172 0.97059 0.0
C911 C 0.12916 0.45948 0.93806 0.0
C912 C 0.12176 0.38774 0.89911 0.0
H913 H 0.2481 0.34256 0.81519 0.0
H914 H 0.21965 0.37809 0.84616 0.0
H915 H 0.13157 0.3455 0.88106 0.0
H916 H 0.0482 0.44746 0.95972 0.0
H917 H 0.07218 0.41873 0.91771 0.0
H918 H 0.15972 0.4474 0.88165 0.0
C919 C 0.209 0.35885 0.8368 0.0
C920 C 0.13772 0.36764 0.88042 0.0
C921 C 0.22542 0.33835 0.81913 0.0
C922 C 0.07065 0.45174 0.9535 0.0
C923 C 0.0845 0.43493 0.92965 0.0
C924 C 0.15328 0.4252 0.88156 0.0
C925 C 0.1794 0.35428 0.84276 0.0
C926 C 0.16182 0.37594 0.86204 0.0
C927 C 0.11408 0.43787 0.92224 0.0
C928 C 0.12949 0.4168 0.90019 0.0
H929 H 0.17264 0.28856 0.80396 0.0
H930 H 0.14409 0.32432 0.83409 0.0
H931 H 0.18718 0.41242 0.84854 0.0
H932 H 0.12791 0.49112 0.97484 0.0
H933 H 0.15193 0.46233 0.93312 0.0
C934 C 0.69172 0.17696 0.79592 0.0
C935 C 0.71416 0.19467 0.80574 0.0
C936 C 0.67476 0.15891 0.81296 0.0
C937 C 0.6514 0.15117 0.88795 0.0
H938 H 0.6261 0.07446 0.85891 0.0
C939 C 0.55772 0.08925 0.9471 0.0
C940 C 0.55986 0.06078 0.94919 0.0
C941 C 0.57851 0.10397 0.93025 0.0
C942 C 0.63317 0.09575 0.86743 0.0
H943 H 0.73616 0.20687 0.8415 0.0
H944 H 0.70659 0.17597 0.87106 0.0
H945 H 0.65788 0.10298 0.82781 0.0
H946 H 0.58602 0.02553 0.93478 0.0
H947 H 0.62249 0.0513 0.90453 0.0
H948 H 0.62631 0.1443 0.92731 0.0
C949 C 0.70202 0.17594 0.85017 0.0
C950 C 0.65118 0.11224 0.8495 0.0
C951 C 0.71915 0.19365 0.83306 0.0
C952 C 0.58379 0.04747 0.93392 0.0
C953 C 0.60453 0.06218 0.9164 0.0
C954 C 0.63312 0.13489 0.90567 0.0
C955 C 0.67946 0.15834 0.84051 0.0
C956 C 0.66052 0.14028 0.85948 0.0
C957 C 0.60213 0.09071 0.91437 0.0
C958 C 0.62356 0.10698 0.89571 0.0
H959 H 0.68716 0.17709 0.77505 0.0
H960 H 0.65749 0.14589 0.80479 0.0
H961 H 0.65785 0.17266 0.89647 0.0
H962 H 0.53964 0.10029 0.9585 0.0
H963 H 0.57567 0.12572 0.92912 0.0
C964 C 0.82148 0.73027 0.82603 0.0
C965 C 0.79605 0.71909 0.81678 0.0
C966 C 0.83724 0.7136 0.83735 0.0
C967 C 0.83402 0.64706 0.86679 0.0
H968 H 0.91424 0.64955 0.83804 0.0
C969 C 0.90411 0.56179 0.8805 0.0
C970 C 0.93105 0.57083 0.88708 0.0
C971 C 0.88763 0.58055 0.87289 0.0
C972 C 0.89196 0.64881 0.8466 0.0
H973 H 0.76681 0.68188 0.81334 0.0
H974 H 0.79408 0.65301 0.83315 0.0
H975 H 0.88499 0.68191 0.82515 0.0
H976 H 0.96258 0.60601 0.88923 0.0
H977 H 0.93369 0.6391 0.87668 0.0
H978 H 0.84096 0.61385 0.88813 0.0
C979 C 0.80182 0.67469 0.83181 0.0
C980 C 0.87517 0.66743 0.83923 0.0
C981 C 0.78613 0.6913 0.82041 0.0
C982 C 0.94159 0.59874 0.88501 0.0
C983 C 0.92514 0.61754 0.87743 0.0
C984 C 0.85083 0.62848 0.87422 0.0
C985 C 0.8279 0.6854 0.8398 0.0
C986 C 0.84595 0.66668 0.84908 0.0
C987 C 0.89781 0.60878 0.87154 0.0
C988 C 0.87999 0.62896 0.86405 0.0
H989 H 0.82981 0.75156 0.82355 0.0
H990 H 0.85703 0.72265 0.84371 0.0
H991 H 0.81166 0.64614 0.87504 0.0
H992 H 0.89558 0.54032 0.88184 0.0
H993 H 0.86692 0.57288 0.86797 0.0
C994 C 0.19973 0.30022 0.21021 0.0
C995 C 0.22931 0.30329 0.20642 0.0
C996 C 0.18466 0.31683 0.19818 0.0
C997 C 0.19363 0.38219 0.16427 0.0
H998 H 0.11771 0.35677 0.15131 0.0
C999 C 0.1232 0.45752 0.13263 0.0
C1000 C 0.10282 0.44597 0.11585 0.0
C1001 C 0.13821 0.43996 0.14375 0.0
C1002 C 0.13905 0.36426 0.15419 0.0
H1003 H 0.26642 0.32531 0.18616 0.0
H1004 H 0.24042 0.35273 0.16318 0.0
H1005 H 0.14544 0.32554 0.16665 0.0
H1006 H 0.08013 0.40723 0.09992 0.0
H1007 H 0.10788 0.3764 0.11654 0.0
H1008 H 0.18805 0.42002 0.14954 0.0
C1009 C 0.22854 0.33857 0.17659 0.0
C1010 C 0.15493 0.34634 0.16375 0.0
C1011 C 0.2436 0.32255 0.18942 0.0
C1012 C 0.0968 0.41661 0.11151 0.0
C1013 C 0.11234 0.39896 0.1218 0.0
C1014 C 0.17807 0.39977 0.15383 0.0
C1015 C 0.19874 0.33646 0.18124 0.0
C1016 C 0.18238 0.35509 0.16937 0.0
C1017 C 0.13347 0.41027 0.13804 0.0
C1018 C 0.15035 0.39127 0.14888 0.0
H1019 H 0.1881 0.28592 0.22367 0.0
H1020 H 0.16189 0.3148 0.20312 0.0
H1021 H 0.21439 0.39023 0.16868 0.0
H1022 H 0.12769 0.48019 0.13689 0.0
H1023 H 0.15341 0.44984 0.15692 0.0
C1024 C 0.19927 0.71418 0.87052 0.0
C1025 C 0.17919 0.7343 0.87413 0.0
C1026 C 0.19235 0.68896 0.88103 0.0
C1027 C 0.14254 0.6483 0.92599 0.0
H1028 H 0.14512 0.58952 0.86029 0.0
C1029 C 0.06912 0.54699 0.90205 0.0
C1030 C 0.07017 0.53444 0.92566 0.0
C1031 C 0.09095 0.56626 0.89305 0.0
C1032 C 0.14482 0.60561 0.8788 0.0
H1033 H 0.13697 0.74473 0.89359 0.0
H1034 H 0.12479 0.70038 0.91257 0.0
H1035 H 0.16701 0.6369 0.85542 0.0
H1036 H 0.09682 0.52914 0.95561 0.0
H1037 H 0.13445 0.56282 0.93998 0.0
H1038 H 0.11964 0.61722 0.94923 0.0
C1039 C 0.14596 0.70444 0.90159 0.0
C1040 C 0.15729 0.63258 0.87611 0.0
C1041 C 0.15287 0.72973 0.89082 0.0
C1042 C 0.09516 0.53842 0.93742 0.0
C1043 C 0.11674 0.55789 0.92866 0.0
C1044 C 0.13061 0.62117 0.9288 0.0
C1045 C 0.16523 0.68337 0.89543 0.0
C1046 C 0.1556 0.65425 0.89955 0.0
C1047 C 0.1139 0.57319 0.90764 0.0
C1048 C 0.13108 0.59986 0.9051 0.0
H1049 H 0.21941 0.71654 0.85722 0.0
H1050 H 0.20749 0.67296 0.87609 0.0
H1051 H 0.14094 0.66479 0.94424 0.0
H1052 H 0.05031 0.54413 0.89233 0.0
H1053 H 0.08846 0.57785 0.87666 0.0
C1054 C 0.27729 0.19432 0.8253 0.0
C1055 C 0.28888 0.21947 0.81563 0.0
C1056 C 0.29125 0.18185 0.84225 0.0
C1057 C 0.3631 0.17755 0.85363 0.0
H1058 H 0.3286 0.1411 0.91721 0.0
C1059 C 0.43106 0.12665 0.91271 0.0
C1060 C 0.42094 0.10032 0.92017 0.0
C1061 C 0.41335 0.14307 0.90373 0.0
C1062 C 0.33848 0.151 0.89934 0.0
H1063 H 0.32303 0.25235 0.81786 0.0
H1064 H 0.34715 0.23069 0.84743 0.0
H1065 H 0.29968 0.16678 0.89514 0.0
H1066 H 0.38481 0.07016 0.92435 0.0
H1067 H 0.35361 0.09856 0.90798 0.0
H1068 H 0.40159 0.16129 0.85696 0.0
C1069 C 0.3276 0.22034 0.84151 0.0
C1070 C 0.32194 0.16573 0.88679 0.0
C1071 C 0.31371 0.23278 0.82465 0.0
C1072 C 0.39273 0.0907 0.91905 0.0
C1073 C 0.37499 0.10699 0.90976 0.0
C1074 C 0.37952 0.16274 0.86597 0.0
C1075 C 0.31701 0.19433 0.84975 0.0
C1076 C 0.33417 0.17923 0.86386 0.0
C1077 C 0.38526 0.13317 0.90152 0.0
C1078 C 0.36749 0.14935 0.88902 0.0
H1079 H 0.25814 0.18361 0.81877 0.0
H1080 H 0.28265 0.16174 0.84825 0.0
H1081 H 0.37299 0.18717 0.83556 0.0
H1082 H 0.45282 0.13429 0.91356 0.0
H1083 H 0.42181 0.16336 0.89812 0.0
C1084 C 0.86538 0.25658 0.86546 0.0
C1085 C 0.84339 0.27082 0.86015 0.0
C1086 C 0.88105 0.26858 0.8865 0.0
C1087 C 0.92347 0.31701 0.90145 0.0
H1088 H 0.89963 0.36702 0.97104 0.0
C1089 C 0.96593 0.43158 0.92662 0.0
C1090 C 0.97357 0.44107 0.95317 0.0
C1091 C 0.95354 0.40429 0.92037 0.0
C1092 C 0.90675 0.35277 0.95193 0.0
H1093 H 0.81925 0.30769 0.87413 0.0
H1094 H 0.84581 0.3281 0.91119 0.0
H1095 H 0.86789 0.32686 0.95507 0.0
H1096 H 0.97433 0.42973 0.99411 0.0
H1097 H 0.95183 0.3823 0.9833 0.0
H1098 H 0.96123 0.34435 0.89702 0.0
C1099 C 0.85082 0.30752 0.89941 0.0
C1100 C 0.88867 0.32986 0.94287 0.0
C1101 C 0.83543 0.29572 0.87814 0.0
C1102 C 0.96884 0.42281 0.97332 0.0
C1103 C 0.95596 0.39577 0.96726 0.0
C1104 C 0.94131 0.34011 0.91028 0.0
C1105 C 0.8748 0.29494 0.90258 0.0
C1106 C 0.89639 0.31261 0.9169 0.0
C1107 C 0.94818 0.38637 0.94079 0.0
C1108 C 0.93251 0.35881 0.9349 0.0
H1109 H 0.87181 0.23731 0.85183 0.0
H1110 H 0.89943 0.25849 0.88862 0.0
H1111 H 0.92984 0.30424 0.88118 0.0
H1112 H 0.96951 0.44518 0.91075 0.0
H1113 H 0.94732 0.39747 0.89989 0.0
C1114 C 0.70477 0.83358 0.82509 0.0
C1115 C 0.69876 0.8042 0.81911 0.0
C1116 C 0.68426 0.85118 0.84053 0.0
C1117 C 0.60658 0.85323 0.86671 0.0
H1118 H 0.63122 0.91918 0.91661 0.0
C1119 C 0.53734 0.91426 0.96289 0.0
C1120 C 0.54447 0.94323 0.97068 0.0
C1121 C 0.55192 0.89895 0.93857 0.0
C1122 C 0.62397 0.90119 0.90236 0.0
H1123 H 0.66636 0.77028 0.82502 0.0
H1124 H 0.63081 0.80085 0.85316 0.0
H1125 H 0.66581 0.8884 0.88835 0.0
H1126 H 0.56998 0.97954 0.95737 0.0
H1127 H 0.5953 0.95291 0.91474 0.0
H1128 H 0.5644 0.86559 0.88224 0.0
C1129 C 0.65122 0.81045 0.84519 0.0
C1130 C 0.64389 0.88339 0.88608 0.0
C1131 C 0.67171 0.79281 0.8293 0.0
C1132 C 0.56382 0.95731 0.95182 0.0
C1133 C 0.57868 0.94193 0.92763 0.0
C1134 C 0.58655 0.87091 0.88337 0.0
C1135 C 0.65717 0.83995 0.85096 0.0
C1136 C 0.63558 0.85905 0.86803 0.0
C1137 C 0.57408 0.91232 0.92172 0.0
C1138 C 0.59503 0.89508 0.90146 0.0
H1139 H 0.72521 0.84321 0.81721 0.0
H1140 H 0.68965 0.87373 0.84382 0.0
H1141 H 0.59927 0.83502 0.85279 0.0
H1142 H 0.52258 0.90287 0.97714 0.0
H1143 H 0.54776 0.87622 0.93463 0.0
C1144 C 0.80967 0.6721 0.18107 0.0
C1145 C 0.82099 0.69899 0.19187 0.0
C1146 C 0.82701 0.65245 0.1633 0.0
C1147 C 0.89781 0.6473 0.11763 0.0
H1148 H 0.88136 0.56708 0.11881 0.0
C1149 C 0.96831 0.56587 0.04453 0.0
C1150 C 0.95316 0.54503 0.02798 0.0
C1151 C 0.95427 0.58235 0.06855 0.0
C1152 C 0.88627 0.58942 0.11827 0.0
H1153 H 0.85964 0.72608 0.19266 0.0
H1154 H 0.88985 0.69182 0.16247 0.0
H1155 H 0.85252 0.60092 0.1519 0.0
H1156 H 0.91188 0.52373 0.02482 0.0
H1157 H 0.88763 0.55174 0.06695 0.0
H1158 H 0.93153 0.63571 0.08397 0.0
C1159 C 0.86747 0.68597 0.16702 0.0
C1160 C 0.86958 0.60889 0.13711 0.0
C1161 C 0.8501 0.70569 0.18451 0.0
C1162 C 0.92418 0.5395 0.03725 0.0
C1163 C 0.91026 0.5556 0.06143 0.0
C1164 C 0.91465 0.62785 0.09902 0.0
C1165 C 0.85624 0.65903 0.15604 0.0
C1166 C 0.87483 0.63816 0.13683 0.0
C1167 C 0.92487 0.57807 0.07668 0.0
C1168 C 0.9089 0.59864 0.09881 0.0
H1169 H 0.78733 0.66626 0.18615 0.0
H1170 H 0.81735 0.63221 0.15495 0.0
H1171 H 0.90238 0.66951 0.11626 0.0
H1172 H 0.9905 0.57108 0.03769 0.0
H1173 H 0.96621 0.5993 0.08002 0.0
C1174 C 0.30396 0.82413 0.18745 0.0
C1175 C 0.31276 0.81728 0.21128 0.0
C1176 C 0.32061 0.84287 0.17107 0.0
C1177 C 0.3809 0.89873 0.17292 0.0
H1178 H 0.3845 0.8862 0.09195 0.0
C1179 C 0.46844 0.95426 0.10017 0.0
C1180 C 0.46281 0.96258 0.07561 0.0
C1181 C 0.44808 0.93894 0.11687 0.0
C1182 C 0.38347 0.89034 0.11457 0.0
H1183 H 0.34648 0.82498 0.23617 0.0
H1184 H 0.37557 0.85716 0.20761 0.0
H1185 H 0.35414 0.85442 0.12017 0.0
H1186 H 0.43044 0.96133 0.04984 0.0
H1187 H 0.39451 0.93435 0.07918 0.0
H1188 H 0.4105 0.93435 0.16732 0.0
C1189 C 0.3555 0.84847 0.20173 0.0
C1190 C 0.36599 0.87199 0.13088 0.0
C1191 C 0.33882 0.82975 0.21813 0.0
C1192 C 0.43556 0.95559 0.0687 0.0
C1193 C 0.41506 0.93982 0.0854 0.0
C1194 C 0.39838 0.91697 0.15665 0.0
C1195 C 0.3467 0.85545 0.1779 0.0
C1196 C 0.36463 0.87564 0.16036 0.0
C1197 C 0.42114 0.93102 0.10967 0.0
C1198 C 0.4003 0.91292 0.12714 0.0
H1199 H 0.28404 0.81507 0.1814 0.0
H1200 H 0.31271 0.84779 0.15324 0.0
H1201 H 0.38009 0.90291 0.19551 0.0
H1202 H 0.48902 0.95903 0.10633 0.0
H1203 H 0.45395 0.93242 0.13502 0.0
C1204 C 0.70565 0.20344 0.18398 0.0
C1205 C 0.69649 0.21511 0.21225 0.0
C1206 C 0.6871 0.18621 0.16781 0.0
C1207 C 0.61779 0.14265 0.17463 0.0
H1208 H 0.62565 0.1427 0.09441 0.0
C1209 C 0.56438 0.05349 0.10169 0.0
C1210 C 0.55493 0.05894 0.07761 0.0
C1211 C 0.57891 0.07452 0.11849 0.0
C1212 C 0.62284 0.14258 0.11684 0.0
H1213 H 0.66009 0.21768 0.24534 0.0
H1214 H 0.62786 0.18811 0.21733 0.0
H1215 H 0.65627 0.17501 0.12229 0.0
H1216 H 0.55292 0.09171 0.05308 0.0
H1217 H 0.57827 0.12884 0.08269 0.0
H1218 H 0.58422 0.11053 0.16933 0.0
C1219 C 0.64956 0.1918 0.20761 0.0
C1220 C 0.64079 0.16093 0.13288 0.0
C1221 C 0.66812 0.20898 0.22377 0.0
C1222 C 0.55965 0.08669 0.0715 0.0
C1223 C 0.57453 0.1079 0.08835 0.0
C1224 C 0.59991 0.12435 0.15863 0.0
C1225 C 0.65866 0.18003 0.17929 0.0
C1226 C 0.63881 0.16112 0.16208 0.0
C1227 C 0.58476 0.10202 0.11197 0.0
C1228 C 0.6023 0.12365 0.12935 0.0
H1229 H 0.72727 0.20758 0.17422 0.0
H1230 H 0.69529 0.17738 0.14635 0.0
H1231 H 0.61549 0.14172 0.19686 0.0
H1232 H 0.56125 0.03249 0.10726 0.0
H1233 H 0.58655 0.06873 0.13607 0.0
C1234 C 0.65498 0.63134 0.76678 0.0
C1235 C 0.68397 0.63862 0.76166 0.0
C1236 C 0.64464 0.60965 0.7822 0.0
C1237 C 0.62754 0.56025 0.81407 0.0
H1238 H 0.65839 0.57923 0.88361 0.0
C1239 C 0.57178 0.52345 0.91732 0.0
C1240 C 0.56524 0.54706 0.93791 0.0
C1241 C 0.59184 0.52635 0.89346 0.0
C1242 C 0.64992 0.57327 0.86415 0.0
H1243 H 0.72523 0.62824 0.76609 0.0
H1244 H 0.70734 0.58994 0.79291 0.0
H1245 H 0.68286 0.5975 0.84183 0.0
H1246 H 0.5745 0.59184 0.95054 0.0
H1247 H 0.61003 0.59695 0.90913 0.0
H1248 H 0.5935 0.53762 0.83724 0.0
C1249 C 0.69251 0.60095 0.78531 0.0
C1250 C 0.66399 0.58352 0.84015 0.0
C1251 C 0.70274 0.62266 0.76998 0.0
C1252 C 0.57956 0.57336 0.93497 0.0
C1253 C 0.59991 0.57619 0.91143 0.0
C1254 C 0.61356 0.54978 0.83809 0.0
C1255 C 0.6633 0.59513 0.7927 0.0
C1256 C 0.65226 0.5782 0.81524 0.0
C1257 C 0.60578 0.55285 0.89021 0.0
C1258 C 0.62401 0.55736 0.86361 0.0
H1259 H 0.64036 0.64376 0.7606 0.0
H1260 H 0.62202 0.60589 0.78783 0.0
H1261 H 0.6182 0.55566 0.79506 0.0
H1262 H 0.56029 0.50315 0.91892 0.0
H1263 H 0.59589 0.50817 0.87723 0.0
C1264 C 0.28071 0.69739 0.81957 0.0
C1265 C 0.29359 0.70847 0.79528 0.0
C1266 C 0.2967 0.68512 0.83495 0.0
C1267 C 0.36963 0.68797 0.84871 0.0
H1268 H 0.34501 0.62011 0.88127 0.0
C1269 C 0.44509 0.6307 0.89485 0.0
C1270 C 0.43469 0.61694 0.918 0.0
C1271 C 0.42692 0.64307 0.88203 0.0
C1272 C 0.35202 0.63936 0.87275 0.0
H1273 H 0.33325 0.71394 0.76733 0.0
H1274 H 0.36099 0.6924 0.79392 0.0
H1275 H 0.31503 0.6375 0.85357 0.0
H1276 H 0.39695 0.60535 0.94593 0.0
H1277 H 0.36503 0.6278 0.92411 0.0
H1278 H 0.40643 0.69012 0.86792 0.0
C1279 C 0.33858 0.6936 0.80138 0.0
C1280 C 0.33486 0.64925 0.85673 0.0
C1281 C 0.32258 0.70568 0.78594 0.0
C1282 C 0.40565 0.61641 0.92855 0.0
C1283 C 0.38734 0.62885 0.9157 0.0
C1284 C 0.38665 0.67824 0.86483 0.0
C1285 C 0.32599 0.6838 0.82646 0.0
C1286 C 0.34366 0.67346 0.84417 0.0
C1287 C 0.39771 0.642 0.89198 0.0
C1288 C 0.37833 0.65357 0.87676 0.0
H1289 H 0.25842 0.69893 0.82715 0.0
H1290 H 0.28629 0.67776 0.85413 0.0
H1291 H 0.37676 0.70707 0.83993 0.0
H1292 H 0.46734 0.63116 0.88615 0.0
H1293 H 0.43574 0.65254 0.8636 0.0
C1294 C 0.39 0.3546 0.76406 0.0
C1295 C 0.36037 0.35096 0.7677 0.0
C1296 C 0.40355 0.37349 0.78344 0.0
C1297 C 0.38683 0.40507 0.85822 0.0
H1298 H 0.4619 0.44237 0.84538 0.0
C1299 C 0.43633 0.48892 0.93796 0.0
C1300 C 0.46138 0.48196 0.94505 0.0
C1301 C 0.42462 0.47221 0.91608 0.0
C1302 C 0.44102 0.43176 0.84908 0.0
H1303 H 0.32205 0.36666 0.79377 0.0
H1304 H 0.34539 0.40119 0.82519 0.0
H1305 H 0.43999 0.41868 0.80513 0.0
H1306 H 0.49395 0.45231 0.93522 0.0
H1307 H 0.47357 0.42318 0.89601 0.0
H1308 H 0.38757 0.4192 0.9021 0.0
C1309 C 0.35825 0.38839 0.8082 0.0
C1310 C 0.42845 0.41827 0.82616 0.0
C1311 C 0.34473 0.36894 0.78942 0.0
C1312 C 0.47439 0.45777 0.93026 0.0
C1313 C 0.46298 0.44138 0.90781 0.0
C1314 C 0.39917 0.41896 0.88097 0.0
C1315 C 0.38767 0.38958 0.80655 0.0
C1316 C 0.4011 0.4049 0.83047 0.0
C1317 C 0.43815 0.44871 0.90055 0.0
C1318 C 0.42627 0.43237 0.87654 0.0
H1319 H 0.40266 0.34111 0.74753 0.0
H1320 H 0.42627 0.37385 0.78137 0.0
H1321 H 0.36617 0.3942 0.86252 0.0
H1322 H 0.42605 0.50758 0.94906 0.0
H1323 H 0.40544 0.47812 0.91069 0.0
C1324 C 0.72188 0.33194 0.83583 0.0
C1325 C 0.71732 0.31852 0.80893 0.0
C1326 C 0.70256 0.35039 0.85239 0.0
C1327 C 0.62764 0.36391 0.86176 0.0
H1328 H 0.64946 0.43262 0.90969 0.0
C1329 C 0.5568 0.41491 0.96108 0.0
C1330 C 0.5581 0.44443 0.968 0.0
C1331 C 0.57379 0.40186 0.93714 0.0
C1332 C 0.64301 0.41372 0.89609 0.0
H1333 H 0.68953 0.31499 0.77787 0.0
H1334 H 0.65621 0.34704 0.80658 0.0
H1335 H 0.68572 0.40608 0.87726 0.0
H1336 H 0.57772 0.48356 0.95552 0.0
H1337 H 0.60734 0.4608 0.91318 0.0
H1338 H 0.58502 0.37117 0.88098 0.0
C1339 C 0.67439 0.34303 0.8151 0.0
C1340 C 0.6638 0.39834 0.8778 0.0
C1341 C 0.69361 0.32472 0.79861 0.0
C1342 C 0.57564 0.4608 0.94994 0.0
C1343 C 0.59295 0.44775 0.92609 0.0
C1344 C 0.6069 0.37915 0.88016 0.0
C1345 C 0.67832 0.35569 0.84236 0.0
C1346 C 0.65636 0.37307 0.86069 0.0
C1347 C 0.59283 0.41811 0.91997 0.0
C1348 C 0.61437 0.404 0.89782 0.0
H1349 H 0.73991 0.32763 0.84438 0.0
H1350 H 0.70607 0.3597 0.87341 0.0
H1351 H 0.62119 0.3444 0.84904 0.0
H1352 H 0.54382 0.40191 0.97509 0.0
H1353 H 0.5734 0.37901 0.93321 0.0
C1354 C 0.72441 0.34899 0.21103 0.0
C1355 C 0.71212 0.3371 0.23504 0.0
C1356 C 0.70903 0.36576 0.19933 0.0
C1357 C 0.63578 0.37611 0.19431 0.0
H1358 H 0.66771 0.44372 0.16414 0.0
C1359 C 0.58321 0.42453 0.11817 0.0
C1360 C 0.58154 0.45392 0.12323 0.0
C1361 C 0.59908 0.41178 0.13317 0.0
C1362 C 0.65845 0.42497 0.17263 0.0
H1363 H 0.6743 0.3346 0.26617 0.0
H1364 H 0.64761 0.36378 0.2458 0.0
H1365 H 0.696 0.41961 0.18844 0.0
H1366 H 0.59483 0.49311 0.14792 0.0
H1367 H 0.62318 0.47086 0.17409 0.0
H1368 H 0.59842 0.38118 0.17825 0.0
C1369 C 0.66905 0.35989 0.23584 0.0
C1370 C 0.67472 0.41104 0.18635 0.0
C1371 C 0.68446 0.34332 0.24766 0.0
C1372 C 0.59592 0.47039 0.14369 0.0
C1373 C 0.6122 0.45768 0.15847 0.0
C1374 C 0.61969 0.3898 0.18033 0.0
C1375 C 0.68093 0.3709 0.21124 0.0
C1376 C 0.66359 0.3864 0.19733 0.0
C1377 C 0.61388 0.42817 0.15344 0.0
C1378 C 0.63083 0.41433 0.16921 0.0
H1379 H 0.74574 0.34488 0.20091 0.0
H1380 H 0.71882 0.37382 0.18033 0.0
H1381 H 0.62662 0.35704 0.20224 0.0
H1382 H 0.57204 0.41144 0.10267 0.0
H1383 H 0.60007 0.38905 0.12864 0.0
C1384 C 0.6531 0.64084 0.24613 0.0
C1385 C 0.68243 0.64759 0.24224 0.0
C1386 C 0.64091 0.6216 0.22601 0.0
C1387 C 0.65954 0.60108 0.14999 0.0
H1388 H 0.58583 0.56039 0.15659 0.0
C1389 C 0.60859 0.54247 0.05585 0.0
C1390 C 0.58006 0.5466 0.0567 0.0
C1391 C 0.62198 0.55366 0.07876 0.0
C1392 C 0.60638 0.57187 0.15459 0.0
H1393 H 0.72198 0.63566 0.21572 0.0
H1394 H 0.70112 0.60067 0.18285 0.0
H1395 H 0.60791 0.57583 0.19861 0.0
H1396 H 0.54351 0.56678 0.08147 0.0
H1397 H 0.56712 0.58648 0.12158 0.0
H1398 H 0.65799 0.59713 0.10607 0.0
C1399 C 0.68737 0.61148 0.2006 0.0
C1400 C 0.61906 0.58057 0.17854 0.0
C1401 C 0.69949 0.63133 0.22013 0.0
C1402 C 0.56564 0.56361 0.0801 0.0
C1403 C 0.57895 0.57445 0.10321 0.0
C1404 C 0.64703 0.59216 0.12612 0.0
C1405 C 0.65798 0.60822 0.202 0.0
C1406 C 0.64568 0.59555 0.17654 0.0
C1407 C 0.60695 0.56884 0.10298 0.0
C1408 C 0.62022 0.57786 0.12829 0.0
H1409 H 0.63939 0.65273 0.26311 0.0
H1410 H 0.61814 0.61943 0.22797 0.0
H1411 H 0.67966 0.6133 0.14767 0.0
H1412 H 0.62004 0.52922 0.03812 0.0
H1413 H 0.64363 0.54913 0.07813 0.0
C1414 C 0.32212 0.67698 0.22238 0.0
C1415 C 0.30449 0.69088 0.21005 0.0
C1416 C 0.33864 0.65586 0.20619 0.0
C1417 C 0.34916 0.60989 0.13534 0.0
H1418 H 0.42343 0.60485 0.153 0.0
C1419 C 0.46306 0.57405 0.07198 0.0
C1420 C 0.45278 0.55387 0.05115 0.0
C1421 C 0.44494 0.58427 0.09655 0.0
C1422 C 0.40284 0.60597 0.14759 0.0
H1423 H 0.29042 0.69352 0.17102 0.0
H1424 H 0.32002 0.65773 0.14251 0.0
H1425 H 0.39168 0.63722 0.18362 0.0
H1426 H 0.41697 0.52574 0.04102 0.0
H1427 H 0.38607 0.54147 0.08491 0.0
H1428 H 0.36097 0.58057 0.09817 0.0
C1429 C 0.3205 0.66227 0.16488 0.0
C1430 C 0.38432 0.62437 0.16549 0.0
C1431 C 0.30357 0.68302 0.1812 0.0
C1432 C 0.42535 0.54132 0.05687 0.0
C1433 C 0.40748 0.55088 0.0818 0.0
C1434 C 0.36782 0.59196 0.11719 0.0
C1435 C 0.33842 0.6484 0.17709 0.0
C1436 C 0.35737 0.62704 0.15935 0.0
C1437 C 0.41633 0.57404 0.10098 0.0
C1438 C 0.3952 0.59004 0.12269 0.0
H1439 H 0.32313 0.6824 0.24464 0.0
H1440 H 0.35158 0.64541 0.21662 0.0
H1441 H 0.32841 0.61065 0.13012 0.0
H1442 H 0.48403 0.58436 0.06782 0.0
H1443 H 0.45285 0.60202 0.11059 0.0
C1444 C 0.37182 0.401 0.26637 0.0
C1445 C 0.36832 0.37216 0.25508 0.0
C1446 C 0.38979 0.41956 0.2512 0.0
C1447 C 0.40097 0.44866 0.19899 0.0
H1448 H 0.4704 0.42927 0.14908 0.0
C1449 C 0.45429 0.44424 0.07753 0.0
C1450 C 0.46159 0.47232 0.07361 0.0
C1451 C 0.44299 0.43809 0.10412 0.0
C1452 C 0.45114 0.43513 0.16309 0.0
H1453 H 0.38281 0.3402 0.21969 0.0
H1454 H 0.41497 0.37182 0.19442 0.0
H1455 H 0.45666 0.40819 0.19177 0.0
H1456 H 0.4598 0.51616 0.09347 0.0
H1457 H 0.43918 0.50523 0.1402 0.0
H1458 H 0.39477 0.47435 0.16917 0.0
C1459 C 0.40385 0.38021 0.21498 0.0
C1460 C 0.44343 0.42326 0.18753 0.0
C1461 C 0.38546 0.36184 0.22977 0.0
C1462 C 0.45406 0.49432 0.0959 0.0
C1463 C 0.44265 0.48812 0.12268 0.0
C1464 C 0.40878 0.46065 0.17447 0.0
C1465 C 0.405 0.4094 0.22478 0.0
C1466 C 0.41755 0.42873 0.20489 0.0
C1467 C 0.43872 0.45993 0.12714 0.0
C1468 C 0.43315 0.45272 0.1557 0.0
H1469 H 0.35882 0.40953 0.28582 0.0
H1470 H 0.39042 0.442 0.25921 0.0
H1471 H 0.38078 0.45306 0.21194 0.0
H1472 H 0.45975 0.42695 0.06061 0.0
H1473 H 0.43939 0.41618 0.10708 0.0
C1474 C 0.84972 0.72426 0.69177 0.0
C1475 C 0.82324 0.71265 0.70327 0.0
C1476 C 0.87039 0.70668 0.67621 0.0
C1477 C 0.8786 0.63278 0.63843 0.0
H1478 H 0.95829 0.6535 0.63869 0.0
C1479 C 0.95832 0.56045 0.57067 0.0
C1480 C 0.9758 0.57471 0.55065 0.0
C1481 C 0.94456 0.57575 0.59552 0.0
C1482 C 0.93609 0.64735 0.6386 0.0
H1483 H 0.79799 0.67338 0.70792 0.0
H1484 H 0.83392 0.64298 0.68184 0.0
H1485 H 0.92327 0.68382 0.66832 0.0
H1486 H 0.99598 0.61531 0.54265 0.0
H1487 H 0.9727 0.64186 0.58621 0.0
H1488 H 0.89133 0.59651 0.60868 0.0
C1489 C 0.83867 0.6656 0.68386 0.0
C1490 C 0.91598 0.66487 0.65535 0.0
C1491 C 0.81797 0.68313 0.69897 0.0
C1492 C 0.9826 0.60382 0.55779 0.0
C1493 C 0.96912 0.61907 0.58273 0.0
C1494 C 0.89862 0.61517 0.62207 0.0
C1495 C 0.86519 0.67704 0.6721 0.0
C1496 C 0.8869 0.65802 0.65522 0.0
C1497 C 0.94841 0.60545 0.60085 0.0
C1498 C 0.92762 0.62236 0.62164 0.0
H1499 H 0.85444 0.74692 0.69466 0.0
H1500 H 0.8903 0.7164 0.66714 0.0
H1501 H 0.85658 0.62694 0.6371 0.0
H1502 H 0.9525 0.53807 0.56567 0.0
H1503 H 0.9291 0.5646 0.60939 0.0
C1504 C 0.331 0.79857 0.6338 0.0
C1505 C 0.34447 0.78456 0.64993 0.0
C1506 C 0.3463 0.81835 0.61834 0.0
C1507 C 0.41886 0.84922 0.59595 0.0
H1508 H 0.38159 0.91916 0.609 0.0
C1509 C 0.48178 0.9541 0.59088 0.0
C1510 C 0.47642 0.96802 0.56962 0.0
C1511 C 0.46269 0.93288 0.60028 0.0
C1512 C 0.39206 0.89968 0.60507 0.0
H1513 H 0.38412 0.77836 0.66165 0.0
H1514 H 0.41117 0.81335 0.63511 0.0
H1515 H 0.35496 0.87618 0.62177 0.0
H1516 H 0.44545 0.97282 0.54385 0.0
H1517 H 0.41167 0.93601 0.56103 0.0
H1518 H 0.45628 0.87324 0.58057 0.0
C1519 C 0.38898 0.80886 0.63373 0.0
C1520 C 0.37686 0.87501 0.61206 0.0
C1521 C 0.37366 0.78884 0.6489 0.0
C1522 C 0.45017 0.96252 0.56027 0.0
C1523 C 0.4309 0.94137 0.56993 0.0
C1524 C 0.43408 0.87393 0.58937 0.0
C1525 C 0.37522 0.82464 0.61921 0.0
C1526 C 0.39027 0.84963 0.60807 0.0
C1527 C 0.4378 0.9255 0.58887 0.0
C1528 C 0.42092 0.89939 0.59443 0.0
H1529 H 0.30836 0.79536 0.63459 0.0
H1530 H 0.33523 0.82971 0.60688 0.0
H1531 H 0.42964 0.82994 0.59213 0.0
H1532 H 0.50163 0.9581 0.59879 0.0
H1533 H 0.46806 0.92115 0.61535 0.0
C1534 C 0.20668 0.26966 0.67608 0.0
C1535 C 0.23105 0.28224 0.68652 0.0
C1536 C 0.1932 0.28362 0.66004 0.0
C1537 C 0.20084 0.34514 0.62186 0.0
H1538 H 0.11956 0.34351 0.6439 0.0
C1539 C 0.13352 0.43057 0.60426 0.0
C1540 C 0.10739 0.42181 0.59564 0.0
C1541 C 0.14963 0.41112 0.61113 0.0
C1542 C 0.14218 0.34385 0.63716 0.0
H1543 H 0.26118 0.31885 0.68712 0.0
H1544 H 0.23737 0.34349 0.65969 0.0
H1545 H 0.14641 0.3134 0.66273 0.0
H1546 H 0.07713 0.38623 0.58802 0.0
H1547 H 0.10536 0.35193 0.59986 0.0
H1548 H 0.1965 0.37646 0.59708 0.0
C1549 C 0.22885 0.3226 0.6635 0.0
C1550 C 0.15762 0.32652 0.64789 0.0
C1551 C 0.24246 0.30851 0.67936 0.0
C1552 C 0.09753 0.39328 0.59401 0.0
C1553 C 0.11353 0.3738 0.60107 0.0
C1554 C 0.18538 0.36261 0.61126 0.0
C1555 C 0.20363 0.31065 0.65426 0.0
C1556 C 0.18719 0.32721 0.64068 0.0
C1557 C 0.1397 0.38256 0.60984 0.0
C1558 C 0.15593 0.36241 0.6191 0.0
H1559 H 0.19747 0.24938 0.68098 0.0
H1560 H 0.17417 0.27352 0.65274 0.0
H1561 H 0.22352 0.34588 0.61553 0.0
H1562 H 0.14137 0.45255 0.60575 0.0
H1563 H 0.16949 0.41859 0.61822 0.0
C1564 C 0.66637 0.25611 0.65108 0.0
C1565 C 0.68753 0.24057 0.65608 0.0
C1566 C 0.65101 0.24576 0.62934 0.0
C1567 C 0.64362 0.18538 0.57123 0.0
H1568 H 0.56751 0.17639 0.61207 0.0
C1569 C 0.54801 0.09953 0.55069 0.0
C1570 C 0.55788 0.07656 0.55957 0.0
C1571 C 0.5603 0.12685 0.55722 0.0
C1572 C 0.58841 0.1793 0.60003 0.0
H1573 H 0.71046 0.20306 0.64118 0.0
H1574 H 0.68426 0.18521 0.60328 0.0
H1575 H 0.5997 0.21522 0.62916 0.0
H1576 H 0.58707 0.06467 0.58382 0.0
H1577 H 0.60843 0.11245 0.59509 0.0
H1578 H 0.63288 0.14751 0.54388 0.0
C1579 C 0.67969 0.20565 0.61562 0.0
C1580 C 0.60684 0.20159 0.60963 0.0
C1581 C 0.69488 0.21592 0.63741 0.0
C1582 C 0.57901 0.08177 0.57659 0.0
C1583 C 0.59134 0.109 0.58291 0.0
C1584 C 0.62521 0.16303 0.56176 0.0
C1585 C 0.65657 0.21964 0.61239 0.0
C1586 C 0.63517 0.20371 0.59636 0.0
C1587 C 0.58257 0.13144 0.5726 0.0
C1588 C 0.59808 0.15911 0.57704 0.0
H1589 H 0.66044 0.27523 0.66526 0.0
H1590 H 0.63345 0.25707 0.62718 0.0
H1591 H 0.6652 0.18676 0.56042 0.0
H1592 H 0.53175 0.0963 0.53755 0.0
H1593 H 0.55326 0.14411 0.54932 0.0
C1594 C 0.83396 0.34112 0.29486 0.0
C1595 C 0.80865 0.32836 0.30792 0.0
C1596 C 0.85377 0.35629 0.3109 0.0
C1597 C 0.8776 0.3638 0.38042 0.0
H1598 H 0.91171 0.4364 0.3638 0.0
C1599 C 0.94531 0.43811 0.45579 0.0
C1600 C 0.96513 0.45847 0.4449 0.0
C1601 C 0.92824 0.42024 0.43841 0.0
C1602 C 0.90304 0.4159 0.36858 0.0
H1603 H 0.78499 0.32171 0.34846 0.0
H1604 H 0.81939 0.34764 0.37616 0.0
H1605 H 0.87864 0.40997 0.33503 0.0
H1606 H 0.98322 0.47524 0.40698 0.0
H1607 H 0.95536 0.44308 0.37639 0.0
H1608 H 0.9023 0.36926 0.41358 0.0
C1609 C 0.82391 0.34602 0.35348 0.0
C1610 C 0.88375 0.40074 0.352 0.0
C1611 C 0.80393 0.33128 0.33751 0.0
C1612 C 0.9685 0.45944 0.41595 0.0
C1613 C 0.95191 0.4413 0.39849 0.0
C1614 C 0.89724 0.37874 0.39677 0.0
C1615 C 0.84919 0.35876 0.34048 0.0
C1616 C 0.87052 0.37455 0.35775 0.0
C1617 C 0.93063 0.42204 0.4095 0.0
C1618 C 0.91029 0.40523 0.39132 0.0
H1619 H 0.83854 0.33929 0.27217 0.0
H1620 H 0.87302 0.36563 0.30004 0.0
H1621 H 0.86817 0.34354 0.38535 0.0
H1622 H 0.94153 0.43741 0.47816 0.0
H1623 H 0.91211 0.40613 0.44813 0.0
C1624 C 0.72545 0.84671 0.31168 0.0
C1625 C 0.72177 0.8172 0.31025 0.0
C1626 C 0.70569 0.86426 0.32918 0.0
C1627 C 0.63141 0.86132 0.36818 0.0
H1628 H 0.65491 0.93359 0.4092 0.0
C1629 C 0.56516 0.91839 0.46856 0.0
C1630 C 0.56648 0.94807 0.47369 0.0
C1631 C 0.58087 0.90387 0.44443 0.0
C1632 C 0.64789 0.91367 0.39753 0.0
H1633 H 0.69482 0.7832 0.32695 0.0
H1634 H 0.66125 0.81347 0.35773 0.0
H1635 H 0.68989 0.90584 0.3765 0.0
H1636 H 0.58456 0.98566 0.45675 0.0
H1637 H 0.61186 0.96039 0.41451 0.0
H1638 H 0.58958 0.86875 0.39004 0.0
C1639 C 0.67877 0.82324 0.34479 0.0
C1640 C 0.66801 0.89769 0.37874 0.0
C1641 C 0.69829 0.8058 0.32726 0.0
C1642 C 0.58244 0.96283 0.45315 0.0
C1643 C 0.59855 0.94832 0.42917 0.0
C1644 C 0.61138 0.87717 0.38712 0.0
C1645 C 0.68183 0.85272 0.34577 0.0
C1646 C 0.66018 0.87099 0.36416 0.0
C1647 C 0.59876 0.91869 0.42504 0.0
C1648 C 0.61939 0.90337 0.40239 0.0
H1649 H 0.74317 0.8562 0.29874 0.0
H1650 H 0.70878 0.88682 0.32917 0.0
H1651 H 0.62429 0.84127 0.35684 0.0
H1652 H 0.55337 0.90641 0.48416 0.0
H1653 H 0.58055 0.88108 0.44207 0.0
C1654 C 0.18139 0.69042 0.30294 0.0
C1655 C 0.20793 0.70148 0.30968 0.0
C1656 C 0.16373 0.67238 0.31937 0.0
C1657 C 0.16292 0.62452 0.37219 0.0
H1658 H 0.08288 0.63495 0.38756 0.0
C1659 C 0.082 0.56277 0.44977 0.0
C1660 C 0.05416 0.55707 0.44421 0.0
C1661 C 0.10203 0.57917 0.43329 0.0
C1662 C 0.10507 0.63122 0.3832 0.0
H1663 H 0.23658 0.7016 0.33919 0.0
H1664 H 0.20593 0.6701 0.36765 0.0
H1665 H 0.11459 0.66521 0.35929 0.0
H1666 H 0.0264 0.56281 0.41561 0.0
H1667 H 0.06095 0.58994 0.38677 0.0
H1668 H 0.15325 0.59026 0.39598 0.0
C1669 C 0.19877 0.67531 0.34954 0.0
C1670 C 0.12341 0.64881 0.36691 0.0
C1671 C 0.21635 0.69358 0.33323 0.0
C1672 C 0.04745 0.56698 0.42091 0.0
C1673 C 0.06736 0.58297 0.40441 0.0
C1674 C 0.14448 0.60668 0.38839 0.0
C1675 C 0.17203 0.66456 0.34302 0.0
C1676 C 0.15264 0.64573 0.36093 0.0
C1677 C 0.09482 0.59014 0.41067 0.0
C1678 C 0.11512 0.60953 0.394 0.0
H1679 H 0.17408 0.69586 0.28501 0.0
H1680 H 0.14355 0.66435 0.31331 0.0
H1681 H 0.18523 0.62125 0.36798 0.0
H1682 H 0.08796 0.55565 0.46757 0.0
H1683 H 0.12284 0.5841 0.43898 0.0
C1684 C 0.3312 0.24022 0.32553 0.0
C1685 C 0.30519 0.22976 0.31722 0.0
C1686 C 0.34592 0.22378 0.33825 0.0
C1687 C 0.33803 0.15931 0.37246 0.0
H1688 H 0.41884 0.15886 0.34781 0.0
C1689 C 0.43595 0.08621 0.37173 0.0
C1690 C 0.42919 0.07977 0.39912 0.0
C1691 C 0.42095 0.10563 0.36313 0.0
C1692 C 0.39626 0.15853 0.35476 0.0
H1693 H 0.27384 0.19413 0.31671 0.0
H1694 H 0.2995 0.16553 0.33837 0.0
H1695 H 0.39213 0.19097 0.33128 0.0
H1696 H 0.40038 0.08743 0.43846 0.0
H1697 H 0.37499 0.12211 0.42407 0.0
H1698 H 0.34192 0.12606 0.39495 0.0
C1699 C 0.30848 0.18653 0.3355 0.0
C1700 C 0.38096 0.17731 0.34562 0.0
C1701 C 0.29377 0.20296 0.32291 0.0
C1702 C 0.4067 0.09268 0.41755 0.0
C1703 C 0.39182 0.1122 0.40906 0.0
C1704 C 0.35329 0.14043 0.38146 0.0
C1705 C 0.335 0.19647 0.34291 0.0
C1706 C 0.35159 0.17781 0.35416 0.0
C1707 C 0.39874 0.11901 0.38174 0.0
C1708 C 0.3826 0.13963 0.3726 0.0
H1709 H 0.34062 0.26077 0.32146 0.0
H1710 H 0.36605 0.23234 0.3441 0.0
H1711 H 0.31552 0.15928 0.37978 0.0
H1712 H 0.45302 0.07635 0.35705 0.0
H1713 H 0.42657 0.10987 0.34176 0.0
C1714 C 0.70232 0.78817 0.69568 0.0
C1715 C 0.72905 0.79727 0.70292 0.0
C1716 C 0.68883 0.80463 0.6819 0.0
C1717 C 0.69959 0.86278 0.64021 0.0
H1718 H 0.6226 0.87712 0.67455 0.0
C1719 C 0.64017 0.9496 0.61152 0.0
C1720 C 0.61115 0.94419 0.61132 0.0
C1721 C 0.65514 0.9309 0.62118 0.0
C1722 C 0.6439 0.87304 0.66431 0.0
H1723 H 0.76319 0.83011 0.70004 0.0
H1724 H 0.73974 0.85862 0.67566 0.0
H1725 H 0.64779 0.84484 0.69246 0.0
H1726 H 0.57487 0.91529 0.62047 0.0
H1727 H 0.60086 0.88204 0.63661 0.0
H1728 H 0.69564 0.89076 0.61184 0.0
C1729 C 0.7292 0.8388 0.68075 0.0
C1730 C 0.65836 0.85452 0.67466 0.0
C1731 C 0.74258 0.82249 0.6948 0.0
C1732 C 0.59727 0.91981 0.62069 0.0
C1733 C 0.61219 0.90095 0.63005 0.0
C1734 C 0.685 0.88111 0.62961 0.0
C1735 C 0.70189 0.83039 0.67479 0.0
C1736 C 0.68638 0.84924 0.66281 0.0
C1737 C 0.64132 0.90631 0.63066 0.0
C1738 C 0.65695 0.88656 0.64159 0.0
H1739 H 0.69129 0.76886 0.70162 0.0
H1740 H 0.66792 0.79744 0.67725 0.0
H1741 H 0.72112 0.85897 0.63053 0.0
H1742 H 0.6511 0.96851 0.60456 0.0
H1743 H 0.67741 0.93601 0.62173 0.0
C1744 C 0.65609 0.23599 0.39112 0.0
C1745 C 0.68125 0.2392 0.3723 0.0
C1746 C 0.64962 0.21134 0.403 0.0
C1747 C 0.65693 0.13918 0.37786 0.0
H1748 H 0.62386 0.12611 0.45304 0.0
C1749 C 0.59451 0.04788 0.44253 0.0
C1750 C 0.56829 0.04573 0.43318 0.0
C1751 C 0.61629 0.06655 0.43258 0.0
C1752 C 0.63357 0.12941 0.43202 0.0
H1753 H 0.72003 0.21979 0.35238 0.0
H1754 H 0.70885 0.17727 0.37325 0.0
H1755 H 0.64729 0.17246 0.44608 0.0
H1756 H 0.54583 0.05814 0.40306 0.0
H1757 H 0.58433 0.09048 0.3853 0.0
H1758 H 0.64123 0.09688 0.36356 0.0
C1759 C 0.69436 0.19387 0.37908 0.0
C1760 C 0.64674 0.15582 0.42811 0.0
C1761 C 0.70084 0.21842 0.36739 0.0
C1762 C 0.56562 0.05963 0.41094 0.0
C1763 C 0.58765 0.07804 0.4007 0.0
C1764 C 0.64324 0.11298 0.3817 0.0
C1765 C 0.66817 0.1896 0.39581 0.0
C1766 C 0.65804 0.16096 0.40095 0.0
C1767 C 0.61237 0.08278 0.41273 0.0
C1768 C 0.63107 0.10815 0.40875 0.0
H1769 H 0.6406 0.25154 0.39483 0.0
H1770 H 0.62913 0.20821 0.41572 0.0
H1771 H 0.66526 0.14295 0.35666 0.0
H1772 H 0.59749 0.03725 0.45943 0.0
H1773 H 0.63535 0.06988 0.4419 0.0
C1774 C 0.83903 0.74653 0.31526 0.0
C1775 C 0.8119 0.73424 0.31189 0.0
C1776 C 0.8552 0.73543 0.33119 0.0
C1777 C 0.8521 0.68895 0.38419 0.0
H1778 H 0.92721 0.67145 0.34572 0.0
C1779 C 0.93376 0.60258 0.38471 0.0
C1780 C 0.9341 0.60492 0.41359 0.0
C1781 C 0.9225 0.62337 0.37428 0.0
C1782 C 0.90637 0.6764 0.35679 0.0
H1783 H 0.77993 0.7016 0.32374 0.0
H1784 H 0.80815 0.68233 0.35168 0.0
H1785 H 0.89884 0.69887 0.32511 0.0
H1786 H 0.9232 0.63059 0.45433 0.0
H1787 H 0.90353 0.66721 0.43616 0.0
H1788 H 0.85926 0.6656 0.41536 0.0
C1789 C 0.81687 0.70056 0.34202 0.0
C1790 C 0.89022 0.69225 0.34513 0.0
C1791 C 0.80076 0.71151 0.32591 0.0
C1792 C 0.92375 0.62875 0.43188 0.0
C1793 C 0.91222 0.64945 0.42153 0.0
C1794 C 0.86836 0.6733 0.39597 0.0
C1795 C 0.84449 0.712 0.34427 0.0
C1796 C 0.86269 0.69815 0.35841 0.0
C1797 C 0.91096 0.64664 0.3927 0.0
C1798 C 0.89541 0.66635 0.38207 0.0
H1799 H 0.84822 0.76411 0.3048 0.0
H1800 H 0.87632 0.74483 0.33283 0.0
H1801 H 0.83103 0.69337 0.39495 0.0
H1802 H 0.94135 0.58413 0.3704 0.0
H1803 H 0.92148 0.62045 0.35201 0.0
C1804 C 0.36271 0.7641 0.3671 0.0
C1805 C 0.3418 0.77883 0.36044 0.0
C1806 C 0.37848 0.77647 0.388 0.0
C1807 C 0.38612 0.84072 0.44191 0.0
H1808 H 0.46408 0.84368 0.40469 0.0
C1809 C 0.45591 0.94103 0.43625 0.0
C1810 C 0.47895 0.94474 0.45082 0.0
C1811 C 0.44145 0.91464 0.43141 0.0
C1812 C 0.44258 0.84252 0.41575 0.0
H1813 H 0.32023 0.81747 0.37115 0.0
H1814 H 0.34713 0.83882 0.40759 0.0
H1815 H 0.43092 0.80545 0.38814 0.0
H1816 H 0.50577 0.92322 0.47033 0.0
H1817 H 0.48082 0.87661 0.46069 0.0
H1818 H 0.39741 0.87957 0.46753 0.0
C1819 C 0.35109 0.81747 0.39732 0.0
C1820 C 0.42357 0.8206 0.40645 0.0
C1821 C 0.33548 0.80518 0.37641 0.0
C1822 C 0.48825 0.92105 0.45889 0.0
C1823 C 0.47392 0.89447 0.45365 0.0
C1824 C 0.40505 0.86275 0.45098 0.0
C1825 C 0.37362 0.80383 0.40245 0.0
C1826 C 0.39479 0.82049 0.41835 0.0
C1827 C 0.44996 0.89143 0.44067 0.0
C1828 C 0.43296 0.86448 0.43696 0.0
H1829 H 0.36793 0.74375 0.35495 0.0
H1830 H 0.39559 0.76539 0.39163 0.0
H1831 H 0.36419 0.84088 0.45177 0.0
H1832 H 0.44814 0.95872 0.42973 0.0
H1833 H 0.42315 0.91244 0.42097 0.0
C1834 C 0.21869 0.34136 0.33381 0.0
C1835 C 0.20895 0.31441 0.32137 0.0
C1836 C 0.19975 0.36096 0.34851 0.0
C1837 C 0.12624 0.3683 0.38466 0.0
H1838 H 0.14457 0.44699 0.37658 0.0
C1839 C 0.05781 0.45288 0.4525 0.0
C1840 C 0.07387 0.47381 0.468 0.0
C1841 C 0.07084 0.43599 0.42828 0.0
C1842 C 0.13907 0.42512 0.37903 0.0
H1843 H 0.17144 0.28684 0.3153 0.0
H1844 H 0.13826 0.3211 0.34117 0.0
H1845 H 0.1744 0.41096 0.34853 0.0
H1846 H 0.1151 0.49594 0.46839 0.0
H1847 H 0.13767 0.46712 0.42604 0.0
H1848 H 0.09139 0.38252 0.41573 0.0
C1849 C 0.16067 0.32698 0.33958 0.0
C1850 C 0.15627 0.40444 0.36306 0.0
C1851 C 0.1797 0.30727 0.32481 0.0
C1852 C 0.1022 0.48003 0.45677 0.0
C1853 C 0.11517 0.46333 0.43251 0.0
C1854 C 0.10902 0.38899 0.40063 0.0
C1855 C 0.17047 0.35427 0.3512 0.0
C1856 C 0.15051 0.37583 0.36618 0.0
C1857 C 0.10006 0.43995 0.41901 0.0
C1858 C 0.11558 0.41777 0.39852 0.0
H1859 H 0.24106 0.34762 0.33171 0.0
H1860 H 0.20813 0.38147 0.35776 0.0
H1861 H 0.12122 0.34655 0.38778 0.0
H1862 H 0.03603 0.4473 0.46078 0.0
H1863 H 0.05844 0.41855 0.41802 0.0
C1864 C 0.29639 0.15919 0.6857 0.0
C1865 C 0.30777 0.18657 0.69491 0.0
C1866 C 0.31366 0.13889 0.66885 0.0
C1867 C 0.38869 0.12149 0.6475 0.0
H1868 H 0.3621 0.07619 0.58243 0.0
C1869 C 0.46261 0.06214 0.5533 0.0
C1870 C 0.45098 0.03903 0.53616 0.0
C1871 C 0.4458 0.07633 0.57699 0.0
C1872 C 0.36979 0.08811 0.60083 0.0
H1873 H 0.34645 0.21386 0.69364 0.0
H1874 H 0.37633 0.17867 0.66436 0.0
H1875 H 0.33118 0.10849 0.61442 0.0
H1876 H 0.41365 0.01079 0.53204 0.0
H1877 H 0.38491 0.0342 0.57413 0.0
H1878 H 0.42744 0.10127 0.63375 0.0
C1879 C 0.35412 0.17274 0.67031 0.0
C1880 C 0.35197 0.10682 0.61917 0.0
C1881 C 0.33686 0.19305 0.68692 0.0
C1882 C 0.42321 0.02853 0.5449 0.0
C1883 C 0.40657 0.04234 0.56877 0.0
C1884 C 0.4065 0.10259 0.62922 0.0
C1885 C 0.3428 0.14538 0.66099 0.0
C1886 C 0.36126 0.12407 0.64256 0.0
C1887 C 0.41706 0.06746 0.58421 0.0
C1888 C 0.39745 0.08581 0.60539 0.0
H1889 H 0.27412 0.15341 0.6915 0.0
H1890 H 0.30423 0.11798 0.66223 0.0
H1891 H 0.39643 0.13415 0.66554 0.0
H1892 H 0.48373 0.07109 0.54681 0.0
H1893 H 0.4548 0.09554 0.5882 0.0
C1894 C 0.80846 0.32241 0.68776 0.0
C1895 C 0.81693 0.31493 0.71147 0.0
C1896 C 0.82518 0.34177 0.67217 0.0
C1897 C 0.88546 0.39776 0.67598 0.0
H1898 H 0.88925 0.38751 0.59508 0.0
C1899 C 0.9722 0.45651 0.6043 0.0
C1900 C 0.96596 0.46491 0.58 0.0
C1901 C 0.95226 0.44063 0.62095 0.0
C1902 C 0.88819 0.39102 0.6177 0.0
H1903 H 0.85013 0.32223 0.737 0.0
H1904 H 0.87937 0.35539 0.70977 0.0
H1905 H 0.85894 0.35487 0.6222 0.0
H1906 H 0.93303 0.46346 0.55483 0.0
H1907 H 0.89802 0.43574 0.58402 0.0
H1908 H 0.91507 0.4336 0.67139 0.0
C1909 C 0.85948 0.34677 0.7034 0.0
C1910 C 0.8707 0.37217 0.63339 0.0
C1911 C 0.84272 0.32747 0.71903 0.0
C1912 C 0.93861 0.45765 0.57345 0.0
C1913 C 0.91863 0.44141 0.59005 0.0
C1914 C 0.903 0.41649 0.6603 0.0
C1915 C 0.85105 0.35433 0.67966 0.0
C1916 C 0.86917 0.37502 0.66282 0.0
C1917 C 0.92528 0.43229 0.61389 0.0
C1918 C 0.90491 0.41334 0.63084 0.0
H1919 H 0.78876 0.31333 0.68121 0.0
H1920 H 0.81753 0.34714 0.6544 0.0
H1921 H 0.88457 0.40131 0.69857 0.0
H1922 H 0.99299 0.46155 0.61011 0.0
H1923 H 0.9585 0.43394 0.63883 0.0
C1924 C 0.16931 0.70544 0.72465 0.0
C1925 C 0.19873 0.7079 0.71574 0.0
C1926 C 0.15121 0.6891 0.70731 0.0
C1927 C 0.14987 0.65481 0.63181 0.0
H1928 H 0.08072 0.61549 0.66321 0.0
C1929 C 0.0905 0.56455 0.56544 0.0
C1930 C 0.06082 0.56215 0.56948 0.0
C1931 C 0.10533 0.58482 0.58271 0.0
C1932 C 0.09975 0.62664 0.65404 0.0
H1933 H 0.23195 0.69417 0.68153 0.0
H1934 H 0.20095 0.66519 0.65199 0.0
H1935 H 0.11052 0.64431 0.69457 0.0
H1936 H 0.0234 0.57953 0.59513 0.0
H1937 H 0.04943 0.61512 0.62585 0.0
H1938 H 0.13951 0.63643 0.59133 0.0
C1939 C 0.19147 0.67651 0.672 0.0
C1940 C 0.11699 0.64328 0.67211 0.0
C1941 C 0.20947 0.69301 0.6892 0.0
C1942 C 0.04625 0.58112 0.59113 0.0
C1943 C 0.06121 0.60126 0.60893 0.0
C1944 C 0.13283 0.638 0.61384 0.0
C1945 C 0.16191 0.67447 0.68049 0.0
C1946 C 0.14262 0.65742 0.66134 0.0
C1947 C 0.09105 0.60321 0.6051 0.0
C1948 C 0.10765 0.62333 0.62459 0.0
H1949 H 0.16011 0.7167 0.74483 0.0
H1950 H 0.12872 0.68855 0.71478 0.0
H1951 H 0.16881 0.66583 0.62234 0.0
H1952 H 0.1024 0.55007 0.5492 0.0
H1953 H 0.12814 0.58528 0.57915 0.0
loop_
_geom_bond_atom_site_label_1
_geom_bond_atom_site_label_2
_geom_bond_distance
_geom_bond_site_symmetry_2
_ccdc_geom_bond_type
Zn0 O1 2.055 . S
Zn0 O8 2.046 . S
Zn0 N16 2.036 . S
Zn0 O28 2.053 . S
Zn0 O30 2.066 . S
O1 Zn0 2.055 . S
O1 C4 1.259 . S
C2 O30 1.256 . S
C2 O31 1.244 . S
Zn3 O5 2.046 . S
Zn3 O7 2.055 . S
Zn3 N9 2.036 . S
Zn3 O27 2.066 . S
Zn3 O31 2.053 . S
C4 O1 1.259 . S
C4 O5 1.254 . S
O5 Zn3 2.046 . S
O5 C4 1.254 . S
C6 O27 1.256 . S
C6 O28 1.244 . S
O7 Zn3 2.055 . S
O7 C29 1.259 . S
O8 Zn0 2.046 . S
O8 C29 1.254 . S
N9 Zn3 2.036 . S
N9 C10 1.298 . S
N9 N12 1.398 . S
C10 N9 1.298 . S
C10 N13 1.367 . S
C10 C23 1.481 . S
C11 N12 1.299 . S
C11 N13 1.379 . S
N12 N9 1.398 . S
N12 C11 1.299 . S
N13 C10 1.367 . S
N13 C11 1.379 . S
C14 N16 1.298 . S
C14 N18 1.367 . S
C14 C22 1.481 . S
C15 N17 1.299 . S
C15 N18 1.379 . S
N16 Zn0 2.036 . S
N16 C14 1.298 . S
N16 N17 1.398 . S
N17 C15 1.299 . S
N17 N16 1.398 . S
N18 C14 1.367 . S
N18 C15 1.379 . S
H19 C22 0.980 . S
H20 C22 0.981 . S
H21 C22 0.981 . S
C22 C14 1.481 . S
C22 H19 0.980 . S
C22 H20 0.981 . S
C22 H21 0.981 . S
C23 C10 1.481 . S
C23 H24 0.980 . S
C23 H25 0.981 . S
C23 H26 0.981 . S
H24 C23 0.980 . S
H25 C23 0.981 . S
H26 C23 0.981 . S
O27 Zn3 2.066 . S
O27 C6 1.256 . S
O28 Zn0 2.053 . S
O28 C6 1.244 . S
C29 O7 1.259 . S
C29 O8 1.254 . S
O30 Zn0 2.066 . S
O30 C2 1.256 . S
O31 C2 1.244 . S
O31 Zn3 2.053 . S
Zn32 O33 2.055 . S
Zn32 O40 2.046 . S
Zn32 N48 2.036 . S
Zn32 O60 2.053 . S
Zn32 O62 2.066 . S
O33 Zn32 2.055 . S
O33 C36 1.259 . S
C34 O62 1.256 . S
C34 O63 1.244 . S
Zn35 O37 2.046 . S
Zn35 O39 2.055 . S
Zn35 N41 2.036 . S
Zn35 O59 2.066 . S
Zn35 O63 2.053 . S
C36 O33 1.259 . S
C36 O37 1.254 . S
O37 Zn35 2.046 . S
O37 C36 1.254 . S
C38 O59 1.256 . S
C38 O60 1.244 . S
O39 Zn35 2.055 . S
O39 C61 1.259 . S
O40 Zn32 2.046 . S
O40 C61 1.254 . S
N41 Zn35 2.036 . S
N41 C42 1.298 . S
N41 N44 1.398 . S
C42 N41 1.298 . S
C42 N45 1.367 . S
C42 C55 1.481 . S
C43 N44 1.299 . S
C43 N45 1.379 . S
N44 N41 1.398 . S
N44 C43 1.299 . S
N45 C42 1.367 . S
N45 C43 1.379 . S
C46 N48 1.298 . S
C46 N50 1.367 . S
C46 C54 1.481 . S
C47 N49 1.299 . S
C47 N50 1.379 . S
N48 Zn32 2.036 . S
N48 C46 1.298 . S
N48 N49 1.398 . S
N49 C47 1.299 . S
N49 N48 1.398 . S
N50 C46 1.367 . S
N50 C47 1.379 . S
H51 C54 0.980 . S
H52 C54 0.981 . S
H53 C54 0.981 . S
C54 C46 1.481 . S
C54 H51 0.980 . S
C54 H52 0.981 . S
C54 H53 0.981 . S
C55 C42 1.481 . S
C55 H56 0.980 . S
C55 H57 0.981 . S
C55 H58 0.981 . S
H56 C55 0.980 . S
H57 C55 0.981 . S
H58 C55 0.981 . S
O59 Zn35 2.066 . S
O59 C38 1.256 . S
O60 Zn32 2.053 . S
O60 C38 1.244 . S
C61 O39 1.259 . S
C61 O40 1.254 . S
O62 Zn32 2.066 . S
O62 C34 1.256 . S
O63 C34 1.244 . S
O63 Zn35 2.053 . S
Zn64 O65 2.055 . S
Zn64 O72 2.046 . S
Zn64 N80 2.036 . S
Zn64 O92 2.053 . S
Zn64 O94 2.066 . S
O65 Zn64 2.055 . S
O65 C68 1.259 . S
C66 O94 1.256 . S
C66 O95 1.244 . S
Zn67 O69 2.046 . S
Zn67 O71 2.055 . S
Zn67 N73 2.036 . S
Zn67 O91 2.066 . S
Zn67 O95 2.053 . S
C68 O65 1.259 . S
C68 O69 1.254 . S
O69 Zn67 2.046 . S
O69 C68 1.254 . S
C70 O91 1.256 . S
C70 O92 1.244 . S
O71 Zn67 2.055 . S
O71 C93 1.259 . S
O72 Zn64 2.046 . S
O72 C93 1.254 . S
N73 Zn67 2.036 . S
N73 C74 1.298 . S
N73 N76 1.398 . S
C74 N73 1.298 . S
C74 N77 1.367 . S
C74 C87 1.481 . S
C75 N76 1.299 . S
C75 N77 1.379 . S
N76 N73 1.398 . S
N76 C75 1.299 . S
N77 C74 1.367 . S
N77 C75 1.379 . S
C78 N80 1.298 . S
C78 N82 1.367 . S
C78 C86 1.481 . S
C79 N81 1.299 . S
C79 N82 1.379 . S
N80 Zn64 2.036 . S
N80 C78 1.298 . S
N80 N81 1.398 . S
N81 C79 1.299 . S
N81 N80 1.398 . S
N82 C78 1.367 . S
N82 C79 1.379 . S
H83 C86 0.980 . S
H84 C86 0.981 . S
H85 C86 0.981 . S
C86 C78 1.481 . S
C86 H83 0.980 . S
C86 H84 0.981 . S
C86 H85 0.981 . S
C87 C74 1.481 . S
C87 H88 0.980 . S
C87 H89 0.981 . S
C87 H90 0.981 . S
H88 C87 0.980 . S
H89 C87 0.981 . S
H90 C87 0.981 . S
O91 Zn67 2.066 . S
O91 C70 1.256 . S
O92 Zn64 2.053 . S
O92 C70 1.244 . S
C93 O71 1.259 . S
C93 O72 1.254 . S
O94 Zn64 2.066 . S
O94 C66 1.256 . S
O95 C66 1.244 . S
O95 Zn67 2.053 . S
Zn96 O97 2.055 . S
Zn96 O104 2.046 . S
Zn96 N112 2.036 . S
Zn96 O124 2.053 . S
Zn96 O126 2.066 . S
O97 Zn96 2.055 . S
O97 C100 1.259 . S
C98 O126 1.256 . S
C98 O127 1.244 . S
Zn99 O101 2.046 . S
Zn99 O103 2.055 . S
Zn99 N105 2.036 . S
Zn99 O123 2.066 . S
Zn99 O127 2.053 . S
C100 O97 1.259 . S
C100 O101 1.254 . S
O101 Zn99 2.046 . S
O101 C100 1.254 . S
C102 O123 1.256 . S
C102 O124 1.244 . S
O103 Zn99 2.055 . S
O103 C125 1.259 . S
O104 Zn96 2.046 . S
O104 C125 1.254 . S
N105 Zn99 2.036 . S
N105 C106 1.298 . S
N105 N108 1.398 . S
C106 N105 1.298 . S
C106 N109 1.367 . S
C106 C119 1.481 . S
C107 N108 1.299 . S
C107 N109 1.379 . S
N108 N105 1.398 . S
N108 C107 1.299 . S
N109 C106 1.367 . S
N109 C107 1.379 . S
C110 N112 1.298 . S
C110 N114 1.367 . S
C110 C118 1.481 . S
C111 N113 1.299 . S
C111 N114 1.379 . S
N112 Zn96 2.036 . S
N112 C110 1.298 . S
N112 N113 1.398 . S
N113 C111 1.299 . S
N113 N112 1.398 . S
N114 C110 1.367 . S
N114 C111 1.379 . S
H115 C118 0.980 . S
H116 C118 0.981 . S
H117 C118 0.981 . S
C118 C110 1.481 . S
C118 H115 0.980 . S
C118 H116 0.981 . S
C118 H117 0.981 . S
C119 C106 1.481 . S
C119 H120 0.980 . S
C119 H121 0.981 . S
C119 H122 0.981 . S
H120 C119 0.980 . S
H121 C119 0.981 . S
H122 C119 0.981 . S
O123 Zn99 2.066 . S
O123 C102 1.256 . S
O124 Zn96 2.053 . S
O124 C102 1.244 . S
C125 O103 1.259 . S
C125 O104 1.254 . S
O126 Zn96 2.066 . S
O126 C98 1.256 . S
O127 C98 1.244 . S
O127 Zn99 2.053 . S
Zn128 O129 2.055 . S
Zn128 O136 2.046 . S
Zn128 N144 2.036 . S
Zn128 O156 2.053 . S
Zn128 O158 2.066 . S
O129 Zn128 2.055 . S
O129 C132 1.259 . S
C130 O158 1.256 . S
C130 O159 1.244 . S
Zn131 O133 2.046 . S
Zn131 O135 2.055 . S
Zn131 N137 2.036 . S
Zn131 O155 2.066 . S
Zn131 O159 2.053 . S
C132 O129 1.259 . S
C132 O133 1.254 . S
O133 Zn131 2.046 . S
O133 C132 1.254 . S
C134 O155 1.256 . S
C134 O156 1.244 . S
O135 Zn131 2.055 . S
O135 C157 1.259 . S
O136 Zn128 2.046 . S
O136 C157 1.254 . S
N137 Zn131 2.036 . S
N137 C138 1.298 . S
N137 N140 1.398 . S
C138 N137 1.298 . S
C138 N141 1.367 . S
C138 C151 1.481 . S
C139 N140 1.299 . S
C139 N141 1.379 . S
N140 N137 1.398 . S
N140 C139 1.299 . S
N141 C138 1.367 . S
N141 C139 1.379 . S
C142 N144 1.298 . S
C142 N146 1.367 . S
C142 C150 1.481 . S
C143 N145 1.299 . S
C143 N146 1.379 . S
N144 Zn128 2.036 . S
N144 C142 1.298 . S
N144 N145 1.398 . S
N145 C143 1.299 . S
N145 N144 1.398 . S
N146 C142 1.367 . S
N146 C143 1.379 . S
H147 C150 0.980 . S
H148 C150 0.981 . S
H149 C150 0.981 . S
C150 C142 1.481 . S
C150 H147 0.980 . S
C150 H148 0.981 . S
C150 H149 0.981 . S
C151 C138 1.481 . S
C151 H152 0.980 . S
C151 H153 0.981 . S
C151 H154 0.981 . S
H152 C151 0.980 . S
H153 C151 0.981 . S
H154 C151 0.981 . S
O155 Zn131 2.066 . S
O155 C134 1.256 . S
O156 Zn128 2.053 . S
O156 C134 1.244 . S
C157 O135 1.259 . S
C157 O136 1.254 . S
O158 Zn128 2.066 . S
O158 C130 1.256 . S
O159 C130 1.244 . S
O159 Zn131 2.053 . S
Zn160 O161 2.055 . S
Zn160 O168 2.046 . S
Zn160 N176 2.036 . S
Zn160 O188 2.053 . S
Zn160 O190 2.066 . S
O161 Zn160 2.055 . S
O161 C164 1.259 . S
C162 O190 1.256 . S
C162 O191 1.244 . S
Zn163 O165 2.046 . S
Zn163 O167 2.055 . S
Zn163 N169 2.036 . S
Zn163 O187 2.066 . S
Zn163 O191 2.053 . S
C164 O161 1.259 . S
C164 O165 1.254 . S
O165 Zn163 2.046 . S
O165 C164 1.254 . S
C166 O187 1.256 . S
C166 O188 1.244 . S
O167 Zn163 2.055 . S
O167 C189 1.259 . S
O168 Zn160 2.046 . S
O168 C189 1.254 . S
N169 Zn163 2.036 . S
N169 C170 1.298 . S
N169 N172 1.398 . S
C170 N169 1.298 . S
C170 N173 1.367 . S
C170 C183 1.481 . S
C171 N172 1.299 . S
C171 N173 1.379 . S
N172 N169 1.398 . S
N172 C171 1.299 . S
N173 C170 1.367 . S
N173 C171 1.379 . S
C174 N176 1.298 . S
C174 N178 1.367 . S
C174 C182 1.481 . S
C175 N177 1.299 . S
C175 N178 1.379 . S
N176 Zn160 2.036 . S
N176 C174 1.298 . S
N176 N177 1.398 . S
N177 C175 1.299 . S
N177 N176 1.398 . S
N178 C174 1.367 . S
N178 C175 1.379 . S
H179 C182 0.980 . S
H180 C182 0.981 . S
H181 C182 0.981 . S
C182 C174 1.481 . S
C182 H179 0.980 . S
C182 H180 0.981 . S
C182 H181 0.981 . S
C183 C170 1.481 . S
C183 H184 0.980 . S
C183 H185 0.981 . S
C183 H186 0.981 . S
H184 C183 0.980 . S
H185 C183 0.981 . S
H186 C183 0.981 . S
O187 Zn163 2.066 . S
O187 C166 1.256 . S
O188 Zn160 2.053 . S
O188 C166 1.244 . S
C189 O167 1.259 . S
C189 O168 1.254 . S
O190 Zn160 2.066 . S
O190 C162 1.256 . S
O191 C162 1.244 . S
O191 Zn163 2.053 . S
Zn192 O193 2.055 . S
Zn192 O200 2.046 . S
Zn192 N208 2.036 . S
Zn192 O220 2.053 . S
Zn192 O222 2.066 . S
O193 Zn192 2.055 . S
O193 C196 1.259 . S
C194 O222 1.256 . S
C194 O223 1.244 . S
Zn195 O197 2.046 . S
Zn195 O199 2.055 . S
Zn195 N201 2.036 . S
Zn195 O219 2.066 . S
Zn195 O223 2.053 . S
C196 O193 1.259 . S
C196 O197 1.254 . S
O197 Zn195 2.046 . S
O197 C196 1.254 . S
C198 O219 1.256 . S
C198 O220 1.244 . S
O199 Zn195 2.055 . S
O199 C221 1.259 . S
O200 Zn192 2.046 . S
O200 C221 1.254 . S
N201 Zn195 2.036 . S
N201 C202 1.298 . S
N201 N204 1.398 . S
C202 N201 1.298 . S
C202 N205 1.367 . S
C202 C215 1.481 . S
C203 N204 1.299 . S
C203 N205 1.379 . S
N204 N201 1.398 . S
N204 C203 1.299 . S
N205 C202 1.367 . S
N205 C203 1.379 . S
C206 N208 1.298 . S
C206 N210 1.367 . S
C206 C214 1.481 . S
C207 N209 1.299 . S
C207 N210 1.379 . S
N208 Zn192 2.036 . S
N208 C206 1.298 . S
N208 N209 1.398 . S
N209 C207 1.299 . S
N209 N208 1.398 . S
N210 C206 1.367 . S
N210 C207 1.379 . S
H211 C214 0.980 . S
H212 C214 0.981 . S
H213 C214 0.981 . S
C214 C206 1.481 . S
C214 H211 0.980 . S
C214 H212 0.981 . S
C214 H213 0.981 . S
C215 C202 1.481 . S
C215 H216 0.980 . S
C215 H217 0.981 . S
C215 H218 0.981 . S
H216 C215 0.980 . S
H217 C215 0.981 . S
H218 C215 0.981 . S
O219 Zn195 2.066 . S
O219 C198 1.256 . S
O220 Zn192 2.053 . S
O220 C198 1.244 . S
C221 O199 1.259 . S
C221 O200 1.254 . S
O222 Zn192 2.066 . S
O222 C194 1.256 . S
O223 C194 1.244 . S
O223 Zn195 2.053 . S
Zn224 O225 2.055 . S
Zn224 O232 2.046 . S
Zn224 N240 2.036 . S
Zn224 O252 2.053 . S
Zn224 O254 2.066 . S
O225 Zn224 2.055 . S
O225 C228 1.259 . S
C226 O254 1.256 . S
C226 O255 1.244 . S
Zn227 O229 2.046 . S
Zn227 O231 2.055 . S
Zn227 N233 2.036 . S
Zn227 O251 2.066 . S
Zn227 O255 2.053 . S
C228 O225 1.259 . S
C228 O229 1.254 . S
O229 Zn227 2.046 . S
O229 C228 1.254 . S
C230 O251 1.256 . S
C230 O252 1.244 . S
O231 Zn227 2.055 . S
O231 C253 1.259 . S
O232 Zn224 2.046 . S
O232 C253 1.254 . S
N233 Zn227 2.036 . S
N233 C234 1.298 . S
N233 N236 1.398 . S
C234 N233 1.298 . S
C234 N237 1.367 . S
C234 C247 1.481 . S
C235 N236 1.299 . S
C235 N237 1.379 . S
N236 N233 1.398 . S
N236 C235 1.299 . S
N237 C234 1.367 . S
N237 C235 1.379 . S
C238 N240 1.298 . S
C238 N242 1.367 . S
C238 C246 1.481 . S
C239 N241 1.299 . S
C239 N242 1.379 . S
N240 Zn224 2.036 . S
N240 C238 1.298 . S
N240 N241 1.398 . S
N241 C239 1.299 . S
N241 N240 1.398 . S
N242 C238 1.367 . S
N242 C239 1.379 . S
H243 C246 0.980 . S
H244 C246 0.981 . S
H245 C246 0.981 . S
C246 C238 1.481 . S
C246 H243 0.980 . S
C246 H244 0.981 . S
C246 H245 0.981 . S
C247 C234 1.481 . S
C247 H248 0.980 . S
C247 H249 0.981 . S
C247 H250 0.981 . S
H248 C247 0.980 . S
H249 C247 0.981 . S
H250 C247 0.981 . S
O251 Zn227 2.066 . S
O251 C230 1.256 . S
O252 Zn224 2.053 . S
O252 C230 1.244 . S
C253 O231 1.259 . S
C253 O232 1.254 . S
O254 Zn224 2.066 . S
O254 C226 1.256 . S
O255 C226 1.244 . S
O255 Zn227 2.053 . S
Co256 N257 2.034 . S
Co256 O271 2.262 . S
Co256 O275 1.933 1_455 S
Co256 O279 1.950 1_565 S
Co256 O280 2.057 . S
N257 Co256 2.034 . S
N257 C258 1.366 . S
N257 C260 1.332 . S
C258 N257 1.366 . S
C258 C261 1.377 . S
C258 H290 0.931 . S
N259 C260 1.346 . S
N259 C261 1.337 . S
C260 N257 1.332 . S
C260 N259 1.346 . S
C260 C294 1.361 . S
C261 C258 1.377 . S
C261 N259 1.337 . S
C261 H297 0.930 . S
Co262 N263 2.034 . S
Co262 O276 1.950 1_655 S
Co262 O277 2.262 . S
Co262 O278 1.958 1_545 S
Co262 O282 2.057 . S
N263 Co262 2.034 . S
N263 C266 1.366 . S
N263 C267 1.332 . S
N264 C265 1.337 . S
N264 C267 1.346 . S
C265 N264 1.337 . S
C265 C266 1.377 . S
C265 H298 0.930 . S
C266 N263 1.366 . S
C266 C265 1.377 . S
C266 H270 0.931 . S
C267 N263 1.332 . S
C267 N264 1.346 . S
C267 C284 1.361 . S
Co268 O271 2.091 1_545 S
Co268 O272 2.070 . S
Co268 O273 2.069 . S
Co268 O274 2.037 1_445 S
Co268 O277 2.103 1_455 S
Co268 O281 2.039 1_445 S
C269 O277 1.253 . S
C269 O282 1.263 . S
H270 C266 0.931 . S
O271 Co256 2.262 . S
O271 Co268 2.091 1_565 S
O271 C295 1.253 . S
O272 Co268 2.070 . S
O272 C288 1.221 . S
O273 Co268 2.069 . S
O273 C283 1.221 . S
O274 Co268 2.037 1_665 S
O274 C289 1.237 . S
O275 Co256 1.933 1_655 S
O275 C289 1.303 . S
O276 Co262 1.950 1_455 S
O276 C288 1.277 . S
O277 Co262 2.262 . S
O277 Co268 2.103 1_655 S
O277 C269 1.253 . S
O278 Co262 1.958 1_565 S
O278 C296 1.278 . S
O279 Co256 1.950 1_545 S
O279 C283 1.277 . S
O280 Co256 2.057 . S
O280 C295 1.263 . S
O281 Co268 2.039 1_665 S
O281 C296 1.237 . S
O282 Co262 2.057 . S
O282 C269 1.263 . S
C283 O273 1.221 . S
C283 O279 1.277 . S
C284 C267 1.361 . S
C284 H285 0.960 . S
C284 H286 0.961 . S
C284 H287 0.961 . S
H285 C284 0.960 . S
H286 C284 0.961 . S
H287 C284 0.961 . S
C288 O272 1.221 . S
C288 O276 1.277 . S
C289 O274 1.237 . S
C289 O275 1.303 . S
H290 C258 0.931 . S
H291 C294 0.961 . S
H292 C294 0.961 . S
H293 C294 0.960 . S
C294 C260 1.361 . S
C294 H291 0.961 . S
C294 H292 0.961 . S
C294 H293 0.960 . S
C295 O271 1.253 . S
C295 O280 1.263 . S
C296 O278 1.278 . S
C296 O281 1.237 . S
H297 C261 0.930 . S
H298 C265 0.930 . S
Co299 N300 2.034 . S
Co299 O314 2.262 1_554 S
Co299 O318 1.958 . S
Co299 O322 1.939 1_565 S
Co299 O323 2.061 . S
N300 Co299 2.034 . S
N300 C301 1.366 . S
N300 C303 1.332 . S
C301 N300 1.366 . S
C301 C304 1.377 . S
C301 H333 0.931 . S
N302 C303 1.346 . S
N302 C304 1.337 . S
C303 N300 1.332 . S
C303 N302 1.346 . S
C303 C337 1.361 . S
C304 C301 1.377 . S
C304 N302 1.337 . S
C304 H340 0.930 . S
Co305 N306 2.034 . S
Co305 O319 1.950 . S
Co305 O320 2.262 1_556 S
Co305 O321 1.958 1_545 S
Co305 O325 2.057 1_556 S
N306 Co305 2.034 . S
N306 C309 1.366 . S
N306 C310 1.332 . S
N307 C308 1.337 . S
N307 C310 1.346 . S
C308 N307 1.337 . S
C308 C309 1.377 . S
C308 H341 0.930 . S
C309 N306 1.366 . S
C309 C308 1.377 . S
C309 H313 0.931 . S
C310 N306 1.332 . S
C310 N307 1.346 . S
C310 C327 1.361 . S
Co311 O314 2.112 1_554 S
Co311 O315 2.053 1_564 S
Co311 O316 2.058 1_565 S
Co311 O317 2.053 . S
Co311 O320 2.082 1_565 S
Co311 O324 2.049 1_554 S
C312 O320 1.253 . S
C312 O325 1.263 . S
H313 C309 0.931 . S
O314 Co299 2.262 1_556 S
O314 Co311 2.112 1_556 S
O314 C338 1.253 . S
O315 Co311 2.053 1_546 S
O315 C331 1.221 . S
O316 Co311 2.058 1_545 S
O316 C326 1.221 . S
O317 Co311 2.053 . S
O317 C332 1.237 . S
O318 Co299 1.958 . S
O318 C332 1.278 . S
O319 Co305 1.950 . S
O319 C331 1.277 . S
O320 Co305 2.262 1_554 S
O320 Co311 2.082 1_545 S
O320 C312 1.253 . S
O321 Co305 1.958 1_565 S
O321 C339 1.278 . S
O322 Co299 1.939 1_545 S
O322 C326 1.289 . S
O323 Co299 2.061 . S
O323 C338 1.259 1_554 S
O324 Co311 2.049 1_556 S
O324 C339 1.237 . S
O325 Co305 2.057 1_554 S
O325 C312 1.263 . S
C326 O316 1.221 . S
C326 O322 1.289 . S
C327 C310 1.361 . S
C327 H328 0.960 . S
C327 H329 0.961 . S
C327 H330 0.961 . S
H328 C327 0.960 . S
H329 C327 0.961 . S
H330 C327 0.961 . S
C331 O315 1.221 . S
C331 O319 1.277 . S
C332 O317 1.237 . S
C332 O318 1.278 . S
H333 C301 0.931 . S
H334 C337 0.961 . S
H335 C337 0.961 . S
H336 C337 0.960 . S
C337 C303 1.361 . S
C337 H334 0.961 . S
C337 H335 0.961 . S
C337 H336 0.960 . S
C338 O314 1.253 . S
C338 O323 1.259 1_556 S
C339 O321 1.278 . S
C339 O324 1.237 . S
H340 C304 0.930 . S
H341 C308 0.930 . S
Co342 N343 2.034 . S
Co342 O357 2.262 1_554 S
Co342 O361 1.958 1_455 S
Co342 O365 1.950 . S
Co342 O366 2.057 . S
N343 Co342 2.034 . S
N343 C344 1.366 . S
N343 C346 1.332 . S
C344 N343 1.366 . S
C344 C347 1.377 . S
C344 H376 0.931 . S
N345 C346 1.346 . S
N345 C347 1.337 . S
C346 N343 1.332 . S
C346 N345 1.346 . S
C346 C380 1.361 . S
C347 C344 1.377 . S
C347 N345 1.337 . S
C347 H383 0.930 . S
Co348 N349 2.034 . S
Co348 O362 1.955 1_655 S
Co348 O363 2.262 1_556 S
Co348 O364 1.958 . S
Co348 O368 2.057 1_556 S
N349 Co348 2.034 . S
N349 C352 1.366 . S
N349 C353 1.332 . S
N350 C351 1.337 . S
N350 C353 1.346 . S
C351 N350 1.337 . S
C351 C352 1.377 . S
C351 H384 0.930 . S
C352 N349 1.366 . S
C352 C351 1.377 . S
C352 H356 0.931 . S
C353 N349 1.332 . S
C353 N350 1.346 . S
C353 C370 1.361 . S
Co354 O357 2.070 1_654 S
Co354 O358 2.052 1_654 S
Co354 O359 2.044 1_655 S
Co354 O360 2.056 . S
Co354 O363 2.125 . S
Co354 O367 2.063 1_554 S
C355 O363 1.253 . S
C355 O368 1.263 . S
H356 C352 0.931 . S
O357 Co342 2.262 1_556 S
O357 Co354 2.070 1_456 S
O357 C381 1.253 . S
O358 Co354 2.052 1_456 S
O358 C374 1.221 . S
O359 Co354 2.044 1_455 S
O359 C369 1.221 . S
O360 Co354 2.056 . S
O360 C375 1.237 . S
O361 Co342 1.958 1_655 S
O361 C375 1.278 . S
O362 Co348 1.955 1_455 S
O362 C374 1.273 . S
O363 Co348 2.262 1_554 S
O363 Co354 2.125 . S
O363 C355 1.253 . S
O364 Co348 1.958 . S
O364 C382 1.278 . S
O365 Co342 1.950 . S
O365 C369 1.277 . S
O366 Co342 2.057 . S
O366 C381 1.263 1_554 S
O367 Co354 2.063 1_556 S
O367 C382 1.237 . S
O368 Co348 2.057 1_554 S
O368 C355 1.263 . S
C369 O359 1.221 . S
C369 O365 1.277 . S
C370 C353 1.361 . S
C370 H371 0.960 . S
C370 H372 0.961 . S
C370 H373 0.961 . S
H371 C370 0.960 . S
H372 C370 0.961 . S
H373 C370 0.961 . S
C374 O358 1.221 . S
C374 O362 1.273 . S
C375 O360 1.237 . S
C375 O361 1.278 . S
H376 C344 0.931 . S
H377 C380 0.961 . S
H378 C380 0.961 . S
H379 C380 0.960 . S
C380 C346 1.361 . S
C380 H377 0.961 . S
C380 H378 0.961 . S
C380 H379 0.960 . S
C381 O357 1.253 . S
C381 O366 1.263 1_556 S
C382 O364 1.278 . S
C382 O367 1.237 . S
H383 C347 0.930 . S
H384 C351 0.930 . S
Co385 N386 2.034 . S
Co385 O400 2.262 1_554 S
Co385 O404 1.958 . S
Co385 O408 1.950 . S
Co385 O409 2.057 1_554 S
N386 Co385 2.034 . S
N386 C387 1.366 . S
N386 C389 1.332 . S
C387 N386 1.366 . S
C387 C390 1.377 . S
C387 H419 0.931 . S
N388 C389 1.346 . S
N388 C390 1.337 . S
C389 N386 1.332 . S
C389 N388 1.346 . S
C389 C423 1.361 . S
C390 C387 1.377 . S
C390 N388 1.337 . S
C390 H426 0.930 . S
Co391 N392 2.034 . S
Co391 O405 1.950 . S
Co391 O406 2.262 1_556 S
Co391 O407 1.958 . S
Co391 O411 2.057 1_556 S
N392 Co391 2.034 . S
N392 C395 1.366 . S
N392 C396 1.332 . S
N393 C394 1.337 . S
N393 C396 1.346 . S
C394 N393 1.337 . S
C394 C395 1.377 . S
C394 H427 0.930 . S
C395 N392 1.366 . S
C395 C394 1.377 . S
C395 H399 0.931 . S
C396 N392 1.332 . S
C396 N393 1.346 . S
C396 C413 1.361 . S
Co397 O400 2.097 1_554 S
Co397 O401 2.065 1_554 S
Co397 O402 2.065 . S
Co397 O403 2.042 . S
Co397 O406 2.097 . S
Co397 O410 2.042 1_554 S
C398 O406 1.253 . S
C398 O411 1.263 . S
H399 C395 0.931 . S
O400 Co385 2.262 1_556 S
O400 Co397 2.097 1_556 S
O400 C424 1.253 . S
O401 Co397 2.065 1_556 S
O401 C417 1.221 . S
O402 Co397 2.065 . S
O402 C412 1.221 . S
O403 Co397 2.042 . S
O403 C418 1.237 . S
O404 Co385 1.958 . S
O404 C418 1.278 . S
O405 Co391 1.950 . S
O405 C417 1.277 . S
O406 Co391 2.262 1_554 S
O406 Co397 2.097 . S
O406 C398 1.253 . S
O407 Co391 1.958 . S
O407 C425 1.278 . S
O408 Co385 1.950 . S
O408 C412 1.277 . S
O409 Co385 2.057 1_556 S
O409 C424 1.263 . S
O410 Co397 2.042 1_556 S
O410 C425 1.237 . S
O411 Co391 2.057 1_554 S
O411 C398 1.263 . S
C412 O402 1.221 . S
C412 O408 1.277 . S
C413 C396 1.361 . S
C413 H414 0.960 . S
C413 H415 0.961 . S
C413 H416 0.961 . S
H414 C413 0.960 . S
H415 C413 0.961 . S
H416 C413 0.961 . S
C417 O401 1.221 . S
C417 O405 1.277 . S
C418 O403 1.237 . S
C418 O404 1.278 . S
H419 C387 0.931 . S
H420 C423 0.961 . S
H421 C423 0.961 . S
H422 C423 0.960 . S
C423 C389 1.361 . S
C423 H420 0.961 . S
C423 H421 0.961 . S
C423 H422 0.960 . S
C424 O400 1.253 . S
C424 O409 1.263 . S
C425 O407 1.278 . S
C425 O410 1.237 . S
H426 C390 0.930 . S
H427 C394 0.930 . S
Co428 N429 2.034 . S
Co428 O443 2.262 . S
Co428 O447 1.958 1_455 S
Co428 O451 1.950 . S
Co428 O452 2.057 . S
N429 Co428 2.034 . S
N429 C430 1.366 . S
N429 C432 1.332 . S
C430 N429 1.366 . S
C430 C433 1.377 . S
C430 H462 0.931 . S
N431 C432 1.346 . S
N431 C433 1.337 . S
C432 N429 1.332 . S
C432 N431 1.346 . S
C432 C466 1.361 . S
C433 C430 1.377 . S
C433 N431 1.337 . S
C433 H469 0.930 . S
Co434 N435 2.034 . S
Co434 O448 1.942 1_655 S
Co434 O449 2.262 . S
Co434 O450 1.958 . S
Co434 O454 2.057 . S
N435 Co434 2.034 . S
N435 C438 1.366 . S
N435 C439 1.332 . S
N436 C437 1.337 . S
N436 C439 1.346 . S
C437 N436 1.337 . S
C437 C438 1.377 . S
C437 H470 0.930 . S
C438 N435 1.366 . S
C438 C437 1.377 . S
C438 H442 0.931 . S
C439 N435 1.332 . S
C439 N436 1.346 . S
C439 C456 1.361 . S
Co440 O443 2.080 1_655 S
Co440 O444 2.057 1_655 S
Co440 O445 2.052 1_655 S
Co440 O446 2.050 . S
Co440 O449 2.114 . S
Co440 O453 2.055 . S
C441 O449 1.253 . S
C441 O454 1.263 . S
H442 C438 0.931 . S
O443 Co428 2.262 . S
O443 Co440 2.080 1_455 S
O443 C467 1.253 . S
O444 Co440 2.057 1_455 S
O444 C460 1.221 . S
O445 Co440 2.052 1_455 S
O445 C455 1.221 . S
O446 Co440 2.050 . S
O446 C461 1.237 . S
O447 Co428 1.958 1_655 S
O447 C461 1.278 . S
O448 Co434 1.942 1_455 S
O448 C460 1.286 . S
O449 Co434 2.262 . S
O449 Co440 2.114 . S
O449 C441 1.253 . S
O450 Co434 1.958 . S
O450 C468 1.278 . S
O451 Co428 1.950 . S
O451 C455 1.277 . S
O452 Co428 2.057 . S
O452 C467 1.263 . S
O453 Co440 2.055 . S
O453 C468 1.237 . S
O454 Co434 2.057 . S
O454 C441 1.263 . S
C455 O445 1.221 . S
C455 O451 1.277 . S
C456 C439 1.361 . S
C456 H457 0.960 . S
C456 H458 0.961 . S
C456 H459 0.961 . S
H457 C456 0.960 . S
H458 C456 0.961 . S
H459 C456 0.961 . S
C460 O444 1.221 . S
C460 O448 1.286 . S
C461 O446 1.237 . S
C461 O447 1.278 . S
H462 C430 0.931 . S
H463 C466 0.961 . S
H464 C466 0.961 . S
H465 C466 0.960 . S
C466 C432 1.361 . S
C466 H463 0.961 . S
C466 H464 0.961 . S
C466 H465 0.960 . S
C467 O443 1.253 . S
C467 O452 1.263 . S
C468 O450 1.278 . S
C468 O453 1.237 . S
H469 C433 0.930 . S
H470 C437 0.930 . S
Co471 N472 2.034 . S
Co471 O486 2.262 . S
Co471 O490 1.958 . S
Co471 O494 1.950 1_565 S
Co471 O495 2.057 . S
N472 Co471 2.034 . S
N472 C473 1.366 . S
N472 C475 1.332 . S
C473 N472 1.366 . S
C473 C476 1.377 . S
C473 H505 0.931 . S
N474 C475 1.346 . S
N474 C476 1.337 . S
C475 N472 1.332 . S
C475 N474 1.346 . S
C475 C509 1.361 . S
C476 C473 1.377 . S
C476 N474 1.337 . S
C476 H512 0.930 . S
Co477 N478 2.034 . S
Co477 O491 1.950 . S
Co477 O492 2.262 . S
Co477 O493 1.958 1_545 S
Co477 O497 2.057 . S
N478 Co477 2.034 . S
N478 C481 1.366 . S
N478 C482 1.332 . S
N479 C480 1.337 . S
N479 C482 1.346 . S
C480 N479 1.337 . S
C480 C481 1.377 . S
C480 H513 0.930 . S
C481 N478 1.366 . S
C481 C480 1.377 . S
C481 H485 0.931 . S
C482 N478 1.332 . S
C482 N479 1.346 . S
C482 C499 1.361 . S
Co483 O486 2.082 1_545 S
Co483 O487 2.077 . S
Co483 O488 2.073 . S
Co483 O489 2.030 1_545 S
Co483 O492 2.112 . S
Co483 O496 2.034 1_545 S
C484 O492 1.253 . S
C484 O497 1.263 . S
H485 C481 0.931 . S
O486 Co471 2.262 . S
O486 Co483 2.082 1_565 S
O486 C510 1.253 . S
O487 Co483 2.077 . S
O487 C503 1.221 . S
O488 Co483 2.073 . S
O488 C498 1.221 . S
O489 Co483 2.030 1_565 S
O489 C504 1.237 . S
O490 Co471 1.958 . S
O490 C504 1.278 . S
O491 Co477 1.950 . S
O491 C503 1.277 . S
O492 Co477 2.262 . S
O492 Co483 2.112 . S
O492 C484 1.253 . S
O493 Co477 1.958 1_565 S
O493 C511 1.278 . S
O494 Co471 1.950 1_545 S
O494 C498 1.277 . S
O495 Co471 2.057 . S
O495 C510 1.263 . S
O496 Co483 2.034 1_565 S
O496 C511 1.237 . S
O497 Co477 2.057 . S
O497 C484 1.263 . S
C498 O488 1.221 . S
C498 O494 1.277 . S
C499 C482 1.361 . S
C499 H500 0.960 . S
C499 H501 0.961 . S
C499 H502 0.961 . S
H500 C499 0.960 . S
H501 C499 0.961 . S
H502 C499 0.961 . S
C503 O487 1.221 . S
C503 O491 1.277 . S
C504 O489 1.237 . S
C504 O490 1.278 . S
H505 C473 0.931 . S
H506 C509 0.961 . S
H507 C509 0.961 . S
H508 C509 0.960 . S
C509 C475 1.361 . S
C509 H506 0.961 . S
C509 H507 0.961 . S
C509 H508 0.960 . S
C510 O486 1.253 . S
C510 O495 1.263 . S
C511 O493 1.278 . S
C511 O496 1.237 . S
H512 C476 0.930 . S
H513 C480 0.930 . S
C514 C515 1.349 . S
C514 C516 1.327 . S
C514 H539 0.950 . S
C515 C514 1.349 . S
C515 C531 1.349 . S
C516 C514 1.327 . S
C516 C535 1.429 . S
C516 H540 0.950 . S
C517 C534 1.574 . S
C517 C536 1.368 . S
C517 H541 0.949 . S
H518 C522 0.949 . S
C519 C520 1.349 . S
C519 C521 1.327 . S
C519 H542 0.950 . S
C520 C519 1.349 . S
C520 C532 1.349 . S
C521 C519 1.327 . S
C521 C537 1.429 . S
C521 H543 0.950 . S
C522 H518 0.949 . S
C522 C530 1.574 . S
C522 C538 1.368 . S
H523 C531 0.950 . S
H524 C529 0.950 . S
H525 C530 0.949 . S
H526 C532 0.950 . S
H527 C533 0.950 . S
H528 C534 0.949 . S
C529 H524 0.950 . S
C529 C531 1.327 . S
C529 C535 1.429 . S
C530 C522 1.574 . S
C530 H525 0.949 . S
C530 C536 1.368 . S
C531 C515 1.349 . S
C531 H523 0.950 . S
C531 C529 1.327 . S
C532 C520 1.349 . S
C532 H526 0.950 . S
C532 C533 1.327 . S
C533 H527 0.950 . S
C533 C532 1.327 . S
C533 C537 1.429 . S
C534 C517 1.574 . S
C534 H528 0.949 . S
C534 C538 1.368 . S
C535 C516 1.429 . S
C535 C529 1.429 . S
C535 C536 1.523 . S
C536 C517 1.368 . S
C536 C530 1.368 . S
C536 C535 1.523 . S
C537 C521 1.429 . S
C537 C533 1.429 . S
C537 C538 1.523 . S
C538 C522 1.368 . S
C538 C534 1.368 . S
C538 C537 1.523 . S
H539 C514 0.950 . S
H540 C516 0.950 . S
H541 C517 0.949 . S
H542 C519 0.950 . S
H543 C521 0.950 . S
C544 C545 1.349 . S
C544 C546 1.327 . S
C544 H569 0.950 . S
C545 C544 1.349 . S
C545 C561 1.349 . S
C546 C544 1.327 . S
C546 C565 1.429 . S
C546 H570 0.950 . S
C547 C564 1.574 . S
C547 C566 1.368 . S
C547 H571 0.949 . S
H548 C552 0.949 . S
C549 C550 1.349 . S
C549 C551 1.327 . S
C549 H572 0.950 . S
C550 C549 1.349 . S
C550 C562 1.349 . S
C551 C549 1.327 . S
C551 C567 1.429 . S
C551 H573 0.950 . S
C552 H548 0.949 . S
C552 C560 1.574 . S
C552 C568 1.368 . S
H553 C561 0.950 . S
H554 C559 0.950 . S
H555 C560 0.949 . S
H556 C562 0.950 . S
H557 C563 0.950 . S
H558 C564 0.949 . S
C559 H554 0.950 . S
C559 C561 1.327 . S
C559 C565 1.429 . S
C560 C552 1.574 . S
C560 H555 0.949 . S
C560 C566 1.368 . S
C561 C545 1.349 . S
C561 H553 0.950 . S
C561 C559 1.327 . S
C562 C550 1.349 . S
C562 H556 0.950 . S
C562 C563 1.327 . S
C563 H557 0.950 . S
C563 C562 1.327 . S
C563 C567 1.429 . S
C564 C547 1.574 . S
C564 H558 0.949 . S
C564 C568 1.368 . S
C565 C546 1.429 . S
C565 C559 1.429 . S
C565 C566 1.523 . S
C566 C547 1.368 . S
C566 C560 1.368 . S
C566 C565 1.523 . S
C567 C551 1.429 . S
C567 C563 1.429 . S
C567 C568 1.523 . S
C568 C552 1.368 . S
C568 C564 1.368 . S
C568 C567 1.523 . S
H569 C544 0.950 . S
H570 C546 0.950 . S
H571 C547 0.949 . S
H572 C549 0.950 . S
H573 C551 0.950 . S
C574 C575 1.349 . S
C574 C576 1.327 . S
C574 H599 0.950 . S
C575 C574 1.349 . S
C575 C591 1.349 . S
C576 C574 1.327 . S
C576 C595 1.429 . S
C576 H600 0.950 . S
C577 C594 1.574 . S
C577 C596 1.368 . S
C577 H601 0.949 . S
H578 C582 0.949 . S
C579 C580 1.349 . S
C579 C581 1.327 . S
C579 H602 0.950 . S
C580 C579 1.349 . S
C580 C592 1.349 . S
C581 C579 1.327 . S
C581 C597 1.429 . S
C581 H603 0.950 . S
C582 H578 0.949 . S
C582 C590 1.574 . S
C582 C598 1.368 . S
H583 C591 0.950 . S
H584 C589 0.950 . S
H585 C590 0.949 . S
H586 C592 0.950 . S
H587 C593 0.950 . S
H588 C594 0.949 . S
C589 H584 0.950 . S
C589 C591 1.327 . S
C589 C595 1.429 . S
C590 C582 1.574 . S
C590 H585 0.949 . S
C590 C596 1.368 . S
C591 C575 1.349 . S
C591 H583 0.950 . S
C591 C589 1.327 . S
C592 C580 1.349 . S
C592 H586 0.950 . S
C592 C593 1.327 . S
C593 H587 0.950 . S
C593 C592 1.327 . S
C593 C597 1.429 . S
C594 C577 1.574 . S
C594 H588 0.949 . S
C594 C598 1.368 . S
C595 C576 1.429 . S
C595 C589 1.429 . S
C595 C596 1.523 . S
C596 C577 1.368 . S
C596 C590 1.368 . S
C596 C595 1.523 . S
C597 C581 1.429 . S
C597 C593 1.429 . S
C597 C598 1.523 . S
C598 C582 1.368 . S
C598 C594 1.368 . S
C598 C597 1.523 . S
H599 C574 0.950 . S
H600 C576 0.950 . S
H601 C577 0.949 . S
H602 C579 0.950 . S
H603 C581 0.950 . S
C604 C605 1.349 . S
C604 C606 1.327 . S
C604 H629 0.950 . S
C605 C604 1.349 . S
C605 C621 1.349 . S
C606 C604 1.327 . S
C606 C625 1.429 . S
C606 H630 0.950 . S
C607 C624 1.574 . S
C607 C626 1.368 . S
C607 H631 0.949 . S
H608 C612 0.949 . S
C609 C610 1.349 . S
C609 C611 1.327 . S
C609 H632 0.950 . S
C610 C609 1.349 . S
C610 C622 1.349 . S
C611 C609 1.327 . S
C611 C627 1.429 . S
C611 H633 0.950 . S
C612 H608 0.949 . S
C612 C620 1.574 . S
C612 C628 1.368 . S
H613 C621 0.950 . S
H614 C619 0.950 . S
H615 C620 0.949 . S
H616 C622 0.950 . S
H617 C623 0.950 . S
H618 C624 0.949 . S
C619 H614 0.950 . S
C619 C621 1.327 . S
C619 C625 1.429 . S
C620 C612 1.574 . S
C620 H615 0.949 . S
C620 C626 1.368 . S
C621 C605 1.349 . S
C621 H613 0.950 . S
C621 C619 1.327 . S
C622 C610 1.349 . S
C622 H616 0.950 . S
C622 C623 1.327 . S
C623 H617 0.950 . S
C623 C622 1.327 . S
C623 C627 1.429 . S
C624 C607 1.574 . S
C624 H618 0.949 . S
C624 C628 1.368 . S
C625 C606 1.429 . S
C625 C619 1.429 . S
C625 C626 1.523 . S
C626 C607 1.368 . S
C626 C620 1.368 . S
C626 C625 1.523 . S
C627 C611 1.429 . S
C627 C623 1.429 . S
C627 C628 1.523 . S
C628 C612 1.368 . S
C628 C624 1.368 . S
C628 C627 1.523 . S
H629 C604 0.950 . S
H630 C606 0.950 . S
H631 C607 0.949 . S
H632 C609 0.950 . S
H633 C611 0.950 . S
C634 C635 1.349 . S
C634 C636 1.327 . S
C634 H659 0.950 . S
C635 C634 1.349 . S
C635 C651 1.349 . S
C636 C634 1.327 . S
C636 C655 1.429 . S
C636 H660 0.950 . S
C637 C654 1.574 . S
C637 C656 1.368 . S
C637 H661 0.949 . S
H638 C642 0.949 . S
C639 C640 1.349 . S
C639 C641 1.327 . S
C639 H662 0.950 . S
C640 C639 1.349 . S
C640 C652 1.349 . S
C641 C639 1.327 . S
C641 C657 1.429 . S
C641 H663 0.950 . S
C642 H638 0.949 . S
C642 C650 1.574 . S
C642 C658 1.368 . S
H643 C651 0.950 . S
H644 C649 0.950 . S
H645 C650 0.949 . S
H646 C652 0.950 . S
H647 C653 0.950 . S
H648 C654 0.949 . S
C649 H644 0.950 . S
C649 C651 1.327 . S
C649 C655 1.429 . S
C650 C642 1.574 . S
C650 H645 0.949 . S
C650 C656 1.368 . S
C651 C635 1.349 . S
C651 H643 0.950 . S
C651 C649 1.327 . S
C652 C640 1.349 . S
C652 H646 0.950 . S
C652 C653 1.327 . S
C653 H647 0.950 . S
C653 C652 1.327 . S
C653 C657 1.429 . S
C654 C637 1.574 . S
C654 H648 0.949 . S
C654 C658 1.368 . S
C655 C636 1.429 . S
C655 C649 1.429 . S
C655 C656 1.523 . S
C656 C637 1.368 . S
C656 C650 1.368 . S
C656 C655 1.523 . S
C657 C641 1.429 . S
C657 C653 1.429 . S
C657 C658 1.523 . S
C658 C642 1.368 . S
C658 C654 1.368 . S
C658 C657 1.523 . S
H659 C634 0.950 . S
H660 C636 0.950 . S
H661 C637 0.949 . S
H662 C639 0.950 . S
H663 C641 0.950 . S
C664 C665 1.349 . S
C664 C666 1.327 . S
C664 H689 0.950 . S
C665 C664 1.349 . S
C665 C681 1.349 . S
C666 C664 1.327 . S
C666 C685 1.429 . S
C666 H690 0.950 . S
C667 C684 1.574 . S
C667 C686 1.368 . S
C667 H691 0.949 . S
H668 C672 0.949 . S
C669 C670 1.349 . S
C669 C671 1.327 . S
C669 H692 0.950 . S
C670 C669 1.349 . S
C670 C682 1.349 . S
C671 C669 1.327 . S
C671 C687 1.429 . S
C671 H693 0.950 . S
C672 H668 0.949 . S
C672 C680 1.574 . S
C672 C688 1.368 . S
H673 C681 0.950 . S
H674 C679 0.950 . S
H675 C680 0.949 . S
H676 C682 0.950 . S
H677 C683 0.950 . S
H678 C684 0.949 . S
C679 H674 0.950 . S
C679 C681 1.327 . S
C679 C685 1.429 . S
C680 C672 1.574 . S
C680 H675 0.949 . S
C680 C686 1.368 . S
C681 C665 1.349 . S
C681 H673 0.950 . S
C681 C679 1.327 . S
C682 C670 1.349 . S
C682 H676 0.950 . S
C682 C683 1.327 . S
C683 H677 0.950 . S
C683 C682 1.327 . S
C683 C687 1.429 . S
C684 C667 1.574 . S
C684 H678 0.949 . S
C684 C688 1.368 . S
C685 C666 1.429 . S
C685 C679 1.429 . S
C685 C686 1.523 . S
C686 C667 1.368 . S
C686 C680 1.368 . S
C686 C685 1.523 . S
C687 C671 1.429 . S
C687 C683 1.429 . S
C687 C688 1.523 . S
C688 C672 1.368 . S
C688 C684 1.368 . S
C688 C687 1.523 . S
H689 C664 0.950 . S
H690 C666 0.950 . S
H691 C667 0.949 . S
H692 C669 0.950 . S
H693 C671 0.950 . S
C694 C695 1.349 . S
C694 C696 1.327 . S
C694 H719 0.950 . S
C695 C694 1.349 . S
C695 C711 1.349 . S
C696 C694 1.327 . S
C696 C715 1.429 . S
C696 H720 0.950 . S
C697 C714 1.574 . S
C697 C716 1.368 . S
C697 H721 0.949 . S
H698 C702 0.949 . S
C699 C700 1.349 . S
C699 C701 1.327 . S
C699 H722 0.950 . S
C700 C699 1.349 . S
C700 C712 1.349 . S
C701 C699 1.327 . S
C701 C717 1.429 . S
C701 H723 0.950 . S
C702 H698 0.949 . S
C702 C710 1.574 . S
C702 C718 1.368 . S
H703 C711 0.950 . S
H704 C709 0.950 . S
H705 C710 0.949 . S
H706 C712 0.950 . S
H707 C713 0.950 . S
H708 C714 0.949 . S
C709 H704 0.950 . S
C709 C711 1.327 . S
C709 C715 1.429 . S
C710 C702 1.574 . S
C710 H705 0.949 . S
C710 C716 1.368 . S
C711 C695 1.349 . S
C711 H703 0.950 . S
C711 C709 1.327 . S
C712 C700 1.349 . S
C712 H706 0.950 . S
C712 C713 1.327 . S
C713 H707 0.950 . S
C713 C712 1.327 . S
C713 C717 1.429 . S
C714 C697 1.574 . S
C714 H708 0.949 . S
C714 C718 1.368 . S
C715 C696 1.429 . S
C715 C709 1.429 . S
C715 C716 1.523 . S
C716 C697 1.368 . S
C716 C710 1.368 . S
C716 C715 1.523 . S
C717 C701 1.429 . S
C717 C713 1.429 . S
C717 C718 1.523 . S
C718 C702 1.368 . S
C718 C714 1.368 . S
C718 C717 1.523 . S
H719 C694 0.950 . S
H720 C696 0.950 . S
H721 C697 0.949 . S
H722 C699 0.950 . S
H723 C701 0.950 . S
C724 C725 1.349 . S
C724 C726 1.327 . S
C724 H749 0.950 . S
C725 C724 1.349 . S
C725 C741 1.349 . S
C726 C724 1.327 . S
C726 C745 1.429 . S
C726 H750 0.950 . S
C727 C744 1.574 . S
C727 C746 1.368 . S
C727 H751 0.949 . S
H728 C732 0.949 . S
C729 C730 1.349 . S
C729 C731 1.327 . S
C729 H752 0.950 . S
C730 C729 1.349 . S
C730 C742 1.349 . S
C731 C729 1.327 . S
C731 C747 1.429 . S
C731 H753 0.950 . S
C732 H728 0.949 . S
C732 C740 1.574 . S
C732 C748 1.368 . S
H733 C741 0.950 . S
H734 C739 0.950 . S
H735 C740 0.949 . S
H736 C742 0.950 . S
H737 C743 0.950 . S
H738 C744 0.949 . S
C739 H734 0.950 . S
C739 C741 1.327 . S
C739 C745 1.429 . S
C740 C732 1.574 . S
C740 H735 0.949 . S
C740 C746 1.368 . S
C741 C725 1.349 . S
C741 H733 0.950 . S
C741 C739 1.327 . S
C742 C730 1.349 . S
C742 H736 0.950 . S
C742 C743 1.327 . S
C743 H737 0.950 . S
C743 C742 1.327 . S
C743 C747 1.429 . S
C744 C727 1.574 . S
C744 H738 0.949 . S
C744 C748 1.368 . S
C745 C726 1.429 . S
C745 C739 1.429 . S
C745 C746 1.523 . S
C746 C727 1.368 . S
C746 C740 1.368 . S
C746 C745 1.523 . S
C747 C731 1.429 . S
C747 C743 1.429 . S
C747 C748 1.523 . S
C748 C732 1.368 . S
C748 C744 1.368 . S
C748 C747 1.523 . S
H749 C724 0.950 . S
H750 C726 0.950 . S
H751 C727 0.949 . S
H752 C729 0.950 . S
H753 C731 0.950 . S
C754 C755 1.349 . S
C754 C756 1.327 . S
C754 H779 0.950 . S
C755 C754 1.349 . S
C755 C771 1.349 . S
C756 C754 1.327 . S
C756 C775 1.429 . S
C756 H780 0.950 . S
C757 C774 1.574 . S
C757 C776 1.368 . S
C757 H781 0.949 . S
H758 C762 0.949 . S
C759 C760 1.349 . S
C759 C761 1.327 . S
C759 H782 0.950 . S
C760 C759 1.349 . S
C760 C772 1.349 . S
C761 C759 1.327 . S
C761 C777 1.429 . S
C761 H783 0.950 . S
C762 H758 0.949 . S
C762 C770 1.574 . S
C762 C778 1.368 . S
H763 C771 0.950 . S
H764 C769 0.950 . S
H765 C770 0.949 . S
H766 C772 0.950 . S
H767 C773 0.950 . S
H768 C774 0.949 . S
C769 H764 0.950 . S
C769 C771 1.327 . S
C769 C775 1.429 . S
C770 C762 1.574 . S
C770 H765 0.949 . S
C770 C776 1.368 . S
C771 C755 1.349 . S
C771 H763 0.950 . S
C771 C769 1.327 . S
C772 C760 1.349 . S
C772 H766 0.950 . S
C772 C773 1.327 . S
C773 H767 0.950 . S
C773 C772 1.327 . S
C773 C777 1.429 . S
C774 C757 1.574 . S
C774 H768 0.949 . S
C774 C778 1.368 . S
C775 C756 1.429 . S
C775 C769 1.429 . S
C775 C776 1.523 . S
C776 C757 1.368 . S
C776 C770 1.368 . S
C776 C775 1.523 . S
C777 C761 1.429 . S
C777 C773 1.429 . S
C777 C778 1.523 . S
C778 C762 1.368 . S
C778 C774 1.368 . S
C778 C777 1.523 . S
H779 C754 0.950 . S
H780 C756 0.950 . S
H781 C757 0.949 . S
H782 C759 0.950 . S
H783 C761 0.950 . S
C784 C785 1.349 . S
C784 C786 1.327 . S
C784 H809 0.950 . S
C785 C784 1.349 . S
C785 C801 1.349 . S
C786 C784 1.327 . S
C786 C805 1.429 . S
C786 H810 0.950 . S
C787 C804 1.574 . S
C787 C806 1.368 . S
C787 H811 0.949 . S
H788 C792 0.949 . S
C789 C790 1.349 . S
C789 C791 1.327 . S
C789 H812 0.950 . S
C790 C789 1.349 . S
C790 C802 1.349 . S
C791 C789 1.327 . S
C791 C807 1.429 . S
C791 H813 0.950 . S
C792 H788 0.949 . S
C792 C800 1.574 . S
C792 C808 1.368 . S
H793 C801 0.950 . S
H794 C799 0.950 . S
H795 C800 0.949 . S
H796 C802 0.950 . S
H797 C803 0.950 . S
H798 C804 0.949 . S
C799 H794 0.950 . S
C799 C801 1.327 . S
C799 C805 1.429 . S
C800 C792 1.574 . S
C800 H795 0.949 . S
C800 C806 1.368 . S
C801 C785 1.349 . S
C801 H793 0.950 . S
C801 C799 1.327 . S
C802 C790 1.349 . S
C802 H796 0.950 . S
C802 C803 1.327 . S
C803 H797 0.950 . S
C803 C802 1.327 . S
C803 C807 1.429 . S
C804 C787 1.574 . S
C804 H798 0.949 . S
C804 C808 1.368 . S
C805 C786 1.429 . S
C805 C799 1.429 . S
C805 C806 1.523 . S
C806 C787 1.368 . S
C806 C800 1.368 . S
C806 C805 1.523 . S
C807 C791 1.429 . S
C807 C803 1.429 . S
C807 C808 1.523 . S
C808 C792 1.368 . S
C808 C804 1.368 . S
C808 C807 1.523 . S
H809 C784 0.950 . S
H810 C786 0.950 . S
H811 C787 0.949 . S
H812 C789 0.950 . S
H813 C791 0.950 . S
C814 C815 1.349 . S
C814 C816 1.327 . S
C814 H839 0.950 . S
C815 C814 1.349 . S
C815 C831 1.349 . S
C816 C814 1.327 . S
C816 C835 1.429 . S
C816 H840 0.950 . S
C817 C834 1.574 . S
C817 C836 1.368 . S
C817 H841 0.949 . S
H818 C822 0.949 . S
C819 C820 1.349 . S
C819 C821 1.327 . S
C819 H842 0.950 . S
C820 C819 1.349 . S
C820 C832 1.349 . S
C821 C819 1.327 . S
C821 C837 1.429 . S
C821 H843 0.950 . S
C822 H818 0.949 . S
C822 C830 1.574 . S
C822 C838 1.368 . S
H823 C831 0.950 . S
H824 C829 0.950 . S
H825 C830 0.949 . S
H826 C832 0.950 . S
H827 C833 0.950 . S
H828 C834 0.949 . S
C829 H824 0.950 . S
C829 C831 1.327 . S
C829 C835 1.429 . S
C830 C822 1.574 . S
C830 H825 0.949 . S
C830 C836 1.368 . S
C831 C815 1.349 . S
C831 H823 0.950 . S
C831 C829 1.327 . S
C832 C820 1.349 . S
C832 H826 0.950 . S
C832 C833 1.327 . S
C833 H827 0.950 . S
C833 C832 1.327 . S
C833 C837 1.429 . S
C834 C817 1.574 . S
C834 H828 0.949 . S
C834 C838 1.368 . S
C835 C816 1.429 . S
C835 C829 1.429 . S
C835 C836 1.523 . S
C836 C817 1.368 . S
C836 C830 1.368 . S
C836 C835 1.523 . S
C837 C821 1.429 . S
C837 C833 1.429 . S
C837 C838 1.523 . S
C838 C822 1.368 . S
C838 C834 1.368 . S
C838 C837 1.523 . S
H839 C814 0.950 . S
H840 C816 0.950 . S
H841 C817 0.949 . S
H842 C819 0.950 . S
H843 C821 0.950 . S
C844 C845 1.349 . S
C844 C846 1.327 . S
C844 H869 0.950 . S
C845 C844 1.349 . S
C845 C861 1.349 . S
C846 C844 1.327 . S
C846 C865 1.429 . S
C846 H870 0.950 . S
C847 C864 1.574 . S
C847 C866 1.368 . S
C847 H871 0.949 . S
H848 C852 0.949 . S
C849 C850 1.349 . S
C849 C851 1.327 . S
C849 H872 0.950 . S
C850 C849 1.349 . S
C850 C862 1.349 . S
C851 C849 1.327 . S
C851 C867 1.429 . S
C851 H873 0.950 . S
C852 H848 0.949 . S
C852 C860 1.574 . S
C852 C868 1.368 . S
H853 C861 0.950 . S
H854 C859 0.950 . S
H855 C860 0.949 . S
H856 C862 0.950 . S
H857 C863 0.950 . S
H858 C864 0.949 . S
C859 H854 0.950 . S
C859 C861 1.327 . S
C859 C865 1.429 . S
C860 C852 1.574 . S
C860 H855 0.949 . S
C860 C866 1.368 . S
C861 C845 1.349 . S
C861 H853 0.950 . S
C861 C859 1.327 . S
C862 C850 1.349 . S
C862 H856 0.950 . S
C862 C863 1.327 . S
C863 H857 0.950 . S
C863 C862 1.327 . S
C863 C867 1.429 . S
C864 C847 1.574 . S
C864 H858 0.949 . S
C864 C868 1.368 . S
C865 C846 1.429 . S
C865 C859 1.429 . S
C865 C866 1.523 . S
C866 C847 1.368 . S
C866 C860 1.368 . S
C866 C865 1.523 . S
C867 C851 1.429 . S
C867 C863 1.429 . S
C867 C868 1.523 . S
C868 C852 1.368 . S
C868 C864 1.368 . S
C868 C867 1.523 . S
H869 C844 0.950 . S
H870 C846 0.950 . S
H871 C847 0.949 . S
H872 C849 0.950 . S
H873 C851 0.950 . S
C874 C875 1.349 . S
C874 C876 1.327 . S
C874 H899 0.950 . S
C875 C874 1.349 . S
C875 C891 1.349 . S
C876 C874 1.327 . S
C876 C895 1.429 . S
C876 H900 0.950 . S
C877 C894 1.574 . S
C877 C896 1.368 . S
C877 H901 0.949 . S
H878 C882 0.949 . S
C879 C880 1.349 . S
C879 C881 1.327 . S
C879 H902 0.950 . S
C880 C879 1.349 . S
C880 C892 1.349 . S
C881 C879 1.327 . S
C881 C897 1.429 . S
C881 H903 0.950 . S
C882 H878 0.949 . S
C882 C890 1.574 . S
C882 C898 1.368 . S
H883 C891 0.950 . S
H884 C889 0.950 . S
H885 C890 0.949 . S
H886 C892 0.950 . S
H887 C893 0.950 . S
H888 C894 0.949 . S
C889 H884 0.950 . S
C889 C891 1.327 . S
C889 C895 1.429 . S
C890 C882 1.574 . S
C890 H885 0.949 . S
C890 C896 1.368 . S
C891 C875 1.349 . S
C891 H883 0.950 . S
C891 C889 1.327 . S
C892 C880 1.349 . S
C892 H886 0.950 . S
C892 C893 1.327 . S
C893 H887 0.950 . S
C893 C892 1.327 . S
C893 C897 1.429 . S
C894 C877 1.574 . S
C894 H888 0.949 . S
C894 C898 1.368 . S
C895 C876 1.429 . S
C895 C889 1.429 . S
C895 C896 1.523 . S
C896 C877 1.368 . S
C896 C890 1.368 . S
C896 C895 1.523 . S
C897 C881 1.429 . S
C897 C893 1.429 . S
C897 C898 1.523 . S
C898 C882 1.368 . S
C898 C894 1.368 . S
C898 C897 1.523 . S
H899 C874 0.950 . S
H900 C876 0.950 . S
H901 C877 0.949 . S
H902 C879 0.950 . S
H903 C881 0.950 . S
C904 C905 1.349 . S
C904 C906 1.327 . S
C904 H929 0.950 . S
C905 C904 1.349 . S
C905 C921 1.349 . S
C906 C904 1.327 . S
C906 C925 1.429 . S
C906 H930 0.950 . S
C907 C924 1.574 . S
C907 C926 1.368 . S
C907 H931 0.949 . S
H908 C912 0.949 . S
C909 C910 1.349 . S
C909 C911 1.327 . S
C909 H932 0.950 . S
C910 C909 1.349 . S
C910 C922 1.349 . S
C911 C909 1.327 . S
C911 C927 1.429 . S
C911 H933 0.950 . S
C912 H908 0.949 . S
C912 C920 1.574 . S
C912 C928 1.368 . S
H913 C921 0.950 . S
H914 C919 0.950 . S
H915 C920 0.949 . S
H916 C922 0.950 . S
H917 C923 0.950 . S
H918 C924 0.949 . S
C919 H914 0.950 . S
C919 C921 1.327 . S
C919 C925 1.429 . S
C920 C912 1.574 . S
C920 H915 0.949 . S
C920 C926 1.368 . S
C921 C905 1.349 . S
C921 H913 0.950 . S
C921 C919 1.327 . S
C922 C910 1.349 . S
C922 H916 0.950 . S
C922 C923 1.327 . S
C923 H917 0.950 . S
C923 C922 1.327 . S
C923 C927 1.429 . S
C924 C907 1.574 . S
C924 H918 0.949 . S
C924 C928 1.368 . S
C925 C906 1.429 . S
C925 C919 1.429 . S
C925 C926 1.523 . S
C926 C907 1.368 . S
C926 C920 1.368 . S
C926 C925 1.523 . S
C927 C911 1.429 . S
C927 C923 1.429 . S
C927 C928 1.523 . S
C928 C912 1.368 . S
C928 C924 1.368 . S
C928 C927 1.523 . S
H929 C904 0.950 . S
H930 C906 0.950 . S
H931 C907 0.949 . S
H932 C909 0.950 . S
H933 C911 0.950 . S
C934 C935 1.349 . S
C934 C936 1.327 . S
C934 H959 0.950 . S
C935 C934 1.349 . S
C935 C951 1.349 . S
C936 C934 1.327 . S
C936 C955 1.429 . S
C936 H960 0.950 . S
C937 C954 1.574 . S
C937 C956 1.368 . S
C937 H961 0.949 . S
H938 C942 0.949 . S
C939 C940 1.349 . S
C939 C941 1.327 . S
C939 H962 0.950 . S
C940 C939 1.349 . S
C940 C952 1.349 . S
C941 C939 1.327 . S
C941 C957 1.429 . S
C941 H963 0.950 . S
C942 H938 0.949 . S
C942 C950 1.574 . S
C942 C958 1.368 . S
H943 C951 0.950 . S
H944 C949 0.950 . S
H945 C950 0.949 . S
H946 C952 0.950 . S
H947 C953 0.950 . S
H948 C954 0.949 . S
C949 H944 0.950 . S
C949 C951 1.327 . S
C949 C955 1.429 . S
C950 C942 1.574 . S
C950 H945 0.949 . S
C950 C956 1.368 . S
C951 C935 1.349 . S
C951 H943 0.950 . S
C951 C949 1.327 . S
C952 C940 1.349 . S
C952 H946 0.950 . S
C952 C953 1.327 . S
C953 H947 0.950 . S
C953 C952 1.327 . S
C953 C957 1.429 . S
C954 C937 1.574 . S
C954 H948 0.949 . S
C954 C958 1.368 . S
C955 C936 1.429 . S
C955 C949 1.429 . S
C955 C956 1.523 . S
C956 C937 1.368 . S
C956 C950 1.368 . S
C956 C955 1.523 . S
C957 C941 1.429 . S
C957 C953 1.429 . S
C957 C958 1.523 . S
C958 C942 1.368 . S
C958 C954 1.368 . S
C958 C957 1.523 . S
H959 C934 0.950 . S
H960 C936 0.950 . S
H961 C937 0.949 . S
H962 C939 0.950 . S
H963 C941 0.950 . S
C964 C965 1.349 . S
C964 C966 1.327 . S
C964 H989 0.950 . S
C965 C964 1.349 . S
C965 C981 1.349 . S
C966 C964 1.327 . S
C966 C985 1.429 . S
C966 H990 0.950 . S
C967 C984 1.574 . S
C967 C986 1.368 . S
C967 H991 0.949 . S
H968 C972 0.949 . S
C969 C970 1.349 . S
C969 C971 1.327 . S
C969 H992 0.950 . S
C970 C969 1.349 . S
C970 C982 1.349 . S
C971 C969 1.327 . S
C971 C987 1.429 . S
C971 H993 0.950 . S
C972 H968 0.949 . S
C972 C980 1.574 . S
C972 C988 1.368 . S
H973 C981 0.950 . S
H974 C979 0.950 . S
H975 C980 0.949 . S
H976 C982 0.950 . S
H977 C983 0.950 . S
H978 C984 0.949 . S
C979 H974 0.950 . S
C979 C981 1.327 . S
C979 C985 1.429 . S
C980 C972 1.574 . S
C980 H975 0.949 . S
C980 C986 1.368 . S
C981 C965 1.349 . S
C981 H973 0.950 . S
C981 C979 1.327 . S
C982 C970 1.349 . S
C982 H976 0.950 . S
C982 C983 1.327 . S
C983 H977 0.950 . S
C983 C982 1.327 . S
C983 C987 1.429 . S
C984 C967 1.574 . S
C984 H978 0.949 . S
C984 C988 1.368 . S
C985 C966 1.429 . S
C985 C979 1.429 . S
C985 C986 1.523 . S
C986 C967 1.368 . S
C986 C980 1.368 . S
C986 C985 1.523 . S
C987 C971 1.429 . S
C987 C983 1.429 . S
C987 C988 1.523 . S
C988 C972 1.368 . S
C988 C984 1.368 . S
C988 C987 1.523 . S
H989 C964 0.950 . S
H990 C966 0.950 . S
H991 C967 0.949 . S
H992 C969 0.950 . S
H993 C971 0.950 . S
C994 C995 1.349 . S
C994 C996 1.327 . S
C994 H1019 0.950 . S
C995 C994 1.349 . S
C995 C1011 1.349 . S
C996 C994 1.327 . S
C996 C1015 1.429 . S
C996 H1020 0.950 . S
C997 C1014 1.574 . S
C997 C1016 1.368 . S
C997 H1021 0.949 . S
H998 C1002 0.949 . S
C999 C1000 1.349 . S
C999 C1001 1.327 . S
C999 H1022 0.950 . S
C1000 C999 1.349 . S
C1000 C1012 1.349 . S
C1001 C999 1.327 . S
C1001 C1017 1.429 . S
C1001 H1023 0.950 . S
C1002 H998 0.949 . S
C1002 C1010 1.574 . S
C1002 C1018 1.368 . S
H1003 C1011 0.950 . S
H1004 C1009 0.950 . S
H1005 C1010 0.949 . S
H1006 C1012 0.950 . S
H1007 C1013 0.950 . S
H1008 C1014 0.949 . S
C1009 H1004 0.950 . S
C1009 C1011 1.327 . S
C1009 C1015 1.429 . S
C1010 C1002 1.574 . S
C1010 H1005 0.949 . S
C1010 C1016 1.368 . S
C1011 C995 1.349 . S
C1011 H1003 0.950 . S
C1011 C1009 1.327 . S
C1012 C1000 1.349 . S
C1012 H1006 0.950 . S
C1012 C1013 1.327 . S
C1013 H1007 0.950 . S
C1013 C1012 1.327 . S
C1013 C1017 1.429 . S
C1014 C997 1.574 . S
C1014 H1008 0.949 . S
C1014 C1018 1.368 . S
C1015 C996 1.429 . S
C1015 C1009 1.429 . S
C1015 C1016 1.523 . S
C1016 C997 1.368 . S
C1016 C1010 1.368 . S
C1016 C1015 1.523 . S
C1017 C1001 1.429 . S
C1017 C1013 1.429 . S
C1017 C1018 1.523 . S
C1018 C1002 1.368 . S
C1018 C1014 1.368 . S
C1018 C1017 1.523 . S
H1019 C994 0.950 . S
H1020 C996 0.950 . S
H1021 C997 0.949 . S
H1022 C999 0.950 . S
H1023 C1001 0.950 . S
C1024 C1025 1.349 . S
C1024 C1026 1.327 . S
C1024 H1049 0.950 . S
C1025 C1024 1.349 . S
C1025 C1041 1.349 . S
C1026 C1024 1.327 . S
C1026 C1045 1.429 . S
C1026 H1050 0.950 . S
C1027 C1044 1.574 . S
C1027 C1046 1.368 . S
C1027 H1051 0.949 . S
H1028 C1032 0.949 . S
C1029 C1030 1.349 . S
C1029 C1031 1.327 . S
C1029 H1052 0.950 . S
C1030 C1029 1.349 . S
C1030 C1042 1.349 . S
C1031 C1029 1.327 . S
C1031 C1047 1.429 . S
C1031 H1053 0.950 . S
C1032 H1028 0.949 . S
C1032 C1040 1.574 . S
C1032 C1048 1.368 . S
H1033 C1041 0.950 . S
H1034 C1039 0.950 . S
H1035 C1040 0.949 . S
H1036 C1042 0.950 . S
H1037 C1043 0.950 . S
H1038 C1044 0.949 . S
C1039 H1034 0.950 . S
C1039 C1041 1.327 . S
C1039 C1045 1.429 . S
C1040 C1032 1.574 . S
C1040 H1035 0.949 . S
C1040 C1046 1.368 . S
C1041 C1025 1.349 . S
C1041 H1033 0.950 . S
C1041 C1039 1.327 . S
C1042 C1030 1.349 . S
C1042 H1036 0.950 . S
C1042 C1043 1.327 . S
C1043 H1037 0.950 . S
C1043 C1042 1.327 . S
C1043 C1047 1.429 . S
C1044 C1027 1.574 . S
C1044 H1038 0.949 . S
C1044 C1048 1.368 . S
C1045 C1026 1.429 . S
C1045 C1039 1.429 . S
C1045 C1046 1.523 . S
C1046 C1027 1.368 . S
C1046 C1040 1.368 . S
C1046 C1045 1.523 . S
C1047 C1031 1.429 . S
C1047 C1043 1.429 . S
C1047 C1048 1.523 . S
C1048 C1032 1.368 . S
C1048 C1044 1.368 . S
C1048 C1047 1.523 . S
H1049 C1024 0.950 . S
H1050 C1026 0.950 . S
H1051 C1027 0.949 . S
H1052 C1029 0.950 . S
H1053 C1031 0.950 . S
C1054 C1055 1.349 . S
C1054 C1056 1.327 . S
C1054 H1079 0.950 . S
C1055 C1054 1.349 . S
C1055 C1071 1.349 . S
C1056 C1054 1.327 . S
C1056 C1075 1.429 . S
C1056 H1080 0.950 . S
C1057 C1074 1.574 . S
C1057 C1076 1.368 . S
C1057 H1081 0.949 . S
H1058 C1062 0.949 . S
C1059 C1060 1.349 . S
C1059 C1061 1.327 . S
C1059 H1082 0.950 . S
C1060 C1059 1.349 . S
C1060 C1072 1.349 . S
C1061 C1059 1.327 . S
C1061 C1077 1.429 . S
C1061 H1083 0.950 . S
C1062 H1058 0.949 . S
C1062 C1070 1.574 . S
C1062 C1078 1.368 . S
H1063 C1071 0.950 . S
H1064 C1069 0.950 . S
H1065 C1070 0.949 . S
H1066 C1072 0.950 . S
H1067 C1073 0.950 . S
H1068 C1074 0.949 . S
C1069 H1064 0.950 . S
C1069 C1071 1.327 . S
C1069 C1075 1.429 . S
C1070 C1062 1.574 . S
C1070 H1065 0.949 . S
C1070 C1076 1.368 . S
C1071 C1055 1.349 . S
C1071 H1063 0.950 . S
C1071 C1069 1.327 . S
C1072 C1060 1.349 . S
C1072 H1066 0.950 . S
C1072 C1073 1.327 . S
C1073 H1067 0.950 . S
C1073 C1072 1.327 . S
C1073 C1077 1.429 . S
C1074 C1057 1.574 . S
C1074 H1068 0.949 . S
C1074 C1078 1.368 . S
C1075 C1056 1.429 . S
C1075 C1069 1.429 . S
C1075 C1076 1.523 . S
C1076 C1057 1.368 . S
C1076 C1070 1.368 . S
C1076 C1075 1.523 . S
C1077 C1061 1.429 . S
C1077 C1073 1.429 . S
C1077 C1078 1.523 . S
C1078 C1062 1.368 . S
C1078 C1074 1.368 . S
C1078 C1077 1.523 . S
H1079 C1054 0.950 . S
H1080 C1056 0.950 . S
H1081 C1057 0.949 . S
H1082 C1059 0.950 . S
H1083 C1061 0.950 . S
C1084 C1085 1.349 . S
C1084 C1086 1.327 . S
C1084 H1109 0.950 . S
C1085 C1084 1.349 . S
C1085 C1101 1.349 . S
C1086 C1084 1.327 . S
C1086 C1105 1.429 . S
C1086 H1110 0.950 . S
C1087 C1104 1.574 . S
C1087 C1106 1.368 . S
C1087 H1111 0.949 . S
H1088 C1092 0.949 . S
C1089 C1090 1.349 . S
C1089 C1091 1.327 . S
C1089 H1112 0.950 . S
C1090 C1089 1.349 . S
C1090 C1102 1.349 . S
C1091 C1089 1.327 . S
C1091 C1107 1.429 . S
C1091 H1113 0.950 . S
C1092 H1088 0.949 . S
C1092 C1100 1.574 . S
C1092 C1108 1.368 . S
H1093 C1101 0.950 . S
H1094 C1099 0.950 . S
H1095 C1100 0.949 . S
H1096 C1102 0.950 . S
H1097 C1103 0.950 . S
H1098 C1104 0.949 . S
C1099 H1094 0.950 . S
C1099 C1101 1.327 . S
C1099 C1105 1.429 . S
C1100 C1092 1.574 . S
C1100 H1095 0.949 . S
C1100 C1106 1.368 . S
C1101 C1085 1.349 . S
C1101 H1093 0.950 . S
C1101 C1099 1.327 . S
C1102 C1090 1.349 . S
C1102 H1096 0.950 . S
C1102 C1103 1.327 . S
C1103 H1097 0.950 . S
C1103 C1102 1.327 . S
C1103 C1107 1.429 . S
C1104 C1087 1.574 . S
C1104 H1098 0.949 . S
C1104 C1108 1.368 . S
C1105 C1086 1.429 . S
C1105 C1099 1.429 . S
C1105 C1106 1.523 . S
C1106 C1087 1.368 . S
C1106 C1100 1.368 . S
C1106 C1105 1.523 . S
C1107 C1091 1.429 . S
C1107 C1103 1.429 . S
C1107 C1108 1.523 . S
C1108 C1092 1.368 . S
C1108 C1104 1.368 . S
C1108 C1107 1.523 . S
H1109 C1084 0.950 . S
H1110 C1086 0.950 . S
H1111 C1087 0.949 . S
H1112 C1089 0.950 . S
H1113 C1091 0.950 . S
C1114 C1115 1.349 . S
C1114 C1116 1.327 . S
C1114 H1139 0.950 . S
C1115 C1114 1.349 . S
C1115 C1131 1.349 . S
C1116 C1114 1.327 . S
C1116 C1135 1.429 . S
C1116 H1140 0.950 . S
C1117 C1134 1.574 . S
C1117 C1136 1.368 . S
C1117 H1141 0.949 . S
H1118 C1122 0.949 . S
C1119 C1120 1.349 . S
C1119 C1121 1.327 . S
C1119 H1142 0.950 . S
C1120 C1119 1.349 . S
C1120 C1132 1.349 . S
C1121 C1119 1.327 . S
C1121 C1137 1.429 . S
C1121 H1143 0.950 . S
C1122 H1118 0.949 . S
C1122 C1130 1.574 . S
C1122 C1138 1.368 . S
H1123 C1131 0.950 . S
H1124 C1129 0.950 . S
H1125 C1130 0.949 . S
H1126 C1132 0.950 . S
H1127 C1133 0.950 . S
H1128 C1134 0.949 . S
C1129 H1124 0.950 . S
C1129 C1131 1.327 . S
C1129 C1135 1.429 . S
C1130 C1122 1.574 . S
C1130 H1125 0.949 . S
C1130 C1136 1.368 . S
C1131 C1115 1.349 . S
C1131 H1123 0.950 . S
C1131 C1129 1.327 . S
C1132 C1120 1.349 . S
C1132 H1126 0.950 . S
C1132 C1133 1.327 . S
C1133 H1127 0.950 . S
C1133 C1132 1.327 . S
C1133 C1137 1.429 . S
C1134 C1117 1.574 . S
C1134 H1128 0.949 . S
C1134 C1138 1.368 . S
C1135 C1116 1.429 . S
C1135 C1129 1.429 . S
C1135 C1136 1.523 . S
C1136 C1117 1.368 . S
C1136 C1130 1.368 . S
C1136 C1135 1.523 . S
C1137 C1121 1.429 . S
C1137 C1133 1.429 . S
C1137 C1138 1.523 . S
C1138 C1122 1.368 . S
C1138 C1134 1.368 . S
C1138 C1137 1.523 . S
H1139 C1114 0.950 . S
H1140 C1116 0.950 . S
H1141 C1117 0.949 . S
H1142 C1119 0.950 . S
H1143 C1121 0.950 . S
C1144 C1145 1.349 . S
C1144 C1146 1.327 . S
C1144 H1169 0.950 . S
C1145 C1144 1.349 . S
C1145 C1161 1.349 . S
C1146 C1144 1.327 . S
C1146 C1165 1.429 . S
C1146 H1170 0.950 . S
C1147 C1164 1.574 . S
C1147 C1166 1.368 . S
C1147 H1171 0.949 . S
H1148 C1152 0.949 . S
C1149 C1150 1.349 . S
C1149 C1151 1.327 . S
C1149 H1172 0.950 . S
C1150 C1149 1.349 . S
C1150 C1162 1.349 . S
C1151 C1149 1.327 . S
C1151 C1167 1.429 . S
C1151 H1173 0.950 . S
C1152 H1148 0.949 . S
C1152 C1160 1.574 . S
C1152 C1168 1.368 . S
H1153 C1161 0.950 . S
H1154 C1159 0.950 . S
H1155 C1160 0.949 . S
H1156 C1162 0.950 . S
H1157 C1163 0.950 . S
H1158 C1164 0.949 . S
C1159 H1154 0.950 . S
C1159 C1161 1.327 . S
C1159 C1165 1.429 . S
C1160 C1152 1.574 . S
C1160 H1155 0.949 . S
C1160 C1166 1.368 . S
C1161 C1145 1.349 . S
C1161 H1153 0.950 . S
C1161 C1159 1.327 . S
C1162 C1150 1.349 . S
C1162 H1156 0.950 . S
C1162 C1163 1.327 . S
C1163 H1157 0.950 . S
C1163 C1162 1.327 . S
C1163 C1167 1.429 . S
C1164 C1147 1.574 . S
C1164 H1158 0.949 . S
C1164 C1168 1.368 . S
C1165 C1146 1.429 . S
C1165 C1159 1.429 . S
C1165 C1166 1.523 . S
C1166 C1147 1.368 . S
C1166 C1160 1.368 . S
C1166 C1165 1.523 . S
C1167 C1151 1.429 . S
C1167 C1163 1.429 . S
C1167 C1168 1.523 . S
C1168 C1152 1.368 . S
C1168 C1164 1.368 . S
C1168 C1167 1.523 . S
H1169 C1144 0.950 . S
H1170 C1146 0.950 . S
H1171 C1147 0.949 . S
H1172 C1149 0.950 . S
H1173 C1151 0.950 . S
C1174 C1175 1.349 . S
C1174 C1176 1.327 . S
C1174 H1199 0.950 . S
C1175 C1174 1.349 . S
C1175 C1191 1.349 . S
C1176 C1174 1.327 . S
C1176 C1195 1.429 . S
C1176 H1200 0.950 . S
C1177 C1194 1.574 . S
C1177 C1196 1.368 . S
C1177 H1201 0.949 . S
H1178 C1182 0.949 . S
C1179 C1180 1.349 . S
C1179 C1181 1.327 . S
C1179 H1202 0.950 . S
C1180 C1179 1.349 . S
C1180 C1192 1.349 . S
C1181 C1179 1.327 . S
C1181 C1197 1.429 . S
C1181 H1203 0.950 . S
C1182 H1178 0.949 . S
C1182 C1190 1.574 . S
C1182 C1198 1.368 . S
H1183 C1191 0.950 . S
H1184 C1189 0.950 . S
H1185 C1190 0.949 . S
H1186 C1192 0.950 . S
H1187 C1193 0.950 . S
H1188 C1194 0.949 . S
C1189 H1184 0.950 . S
C1189 C1191 1.327 . S
C1189 C1195 1.429 . S
C1190 C1182 1.574 . S
C1190 H1185 0.949 . S
C1190 C1196 1.368 . S
C1191 C1175 1.349 . S
C1191 H1183 0.950 . S
C1191 C1189 1.327 . S
C1192 C1180 1.349 . S
C1192 H1186 0.950 . S
C1192 C1193 1.327 . S
C1193 H1187 0.950 . S
C1193 C1192 1.327 . S
C1193 C1197 1.429 . S
C1194 C1177 1.574 . S
C1194 H1188 0.949 . S
C1194 C1198 1.368 . S
C1195 C1176 1.429 . S
C1195 C1189 1.429 . S
C1195 C1196 1.523 . S
C1196 C1177 1.368 . S
C1196 C1190 1.368 . S
C1196 C1195 1.523 . S
C1197 C1181 1.429 . S
C1197 C1193 1.429 . S
C1197 C1198 1.523 . S
C1198 C1182 1.368 . S
C1198 C1194 1.368 . S
C1198 C1197 1.523 . S
H1199 C1174 0.950 . S
H1200 C1176 0.950 . S
H1201 C1177 0.949 . S
H1202 C1179 0.950 . S
H1203 C1181 0.950 . S
C1204 C1205 1.349 . S
C1204 C1206 1.327 . S
C1204 H1229 0.950 . S
C1205 C1204 1.349 . S
C1205 C1221 1.349 . S
C1206 C1204 1.327 . S
C1206 C1225 1.429 . S
C1206 H1230 0.950 . S
C1207 C1224 1.574 . S
C1207 C1226 1.368 . S
C1207 H1231 0.949 . S
H1208 C1212 0.949 . S
C1209 C1210 1.349 . S
C1209 C1211 1.327 . S
C1209 H1232 0.950 . S
C1210 C1209 1.349 . S
C1210 C1222 1.349 . S
C1211 C1209 1.327 . S
C1211 C1227 1.429 . S
C1211 H1233 0.950 . S
C1212 H1208 0.949 . S
C1212 C1220 1.574 . S
C1212 C1228 1.368 . S
H1213 C1221 0.950 . S
H1214 C1219 0.950 . S
H1215 C1220 0.949 . S
H1216 C1222 0.950 . S
H1217 C1223 0.950 . S
H1218 C1224 0.949 . S
C1219 H1214 0.950 . S
C1219 C1221 1.327 . S
C1219 C1225 1.429 . S
C1220 C1212 1.574 . S
C1220 H1215 0.949 . S
C1220 C1226 1.368 . S
C1221 C1205 1.349 . S
C1221 H1213 0.950 . S
C1221 C1219 1.327 . S
C1222 C1210 1.349 . S
C1222 H1216 0.950 . S
C1222 C1223 1.327 . S
C1223 H1217 0.950 . S
C1223 C1222 1.327 . S
C1223 C1227 1.429 . S
C1224 C1207 1.574 . S
C1224 H1218 0.949 . S
C1224 C1228 1.368 . S
C1225 C1206 1.429 . S
C1225 C1219 1.429 . S
C1225 C1226 1.523 . S
C1226 C1207 1.368 . S
C1226 C1220 1.368 . S
C1226 C1225 1.523 . S
C1227 C1211 1.429 . S
C1227 C1223 1.429 . S
C1227 C1228 1.523 . S
C1228 C1212 1.368 . S
C1228 C1224 1.368 . S
C1228 C1227 1.523 . S
H1229 C1204 0.950 . S
H1230 C1206 0.950 . S
H1231 C1207 0.949 . S
H1232 C1209 0.950 . S
H1233 C1211 0.950 . S
C1234 C1235 1.349 . S
C1234 C1236 1.327 . S
C1234 H1259 0.950 . S
C1235 C1234 1.349 . S
C1235 C1251 1.349 . S
C1236 C1234 1.327 . S
C1236 C1255 1.429 . S
C1236 H1260 0.950 . S
C1237 C1254 1.574 . S
C1237 C1256 1.368 . S
C1237 H1261 0.949 . S
H1238 C1242 0.949 . S
C1239 C1240 1.349 . S
C1239 C1241 1.327 . S
C1239 H1262 0.950 . S
C1240 C1239 1.349 . S
C1240 C1252 1.349 . S
C1241 C1239 1.327 . S
C1241 C1257 1.429 . S
C1241 H1263 0.950 . S
C1242 H1238 0.949 . S
C1242 C1250 1.574 . S
C1242 C1258 1.368 . S
H1243 C1251 0.950 . S
H1244 C1249 0.950 . S
H1245 C1250 0.949 . S
H1246 C1252 0.950 . S
H1247 C1253 0.950 . S
H1248 C1254 0.949 . S
C1249 H1244 0.950 . S
C1249 C1251 1.327 . S
C1249 C1255 1.429 . S
C1250 C1242 1.574 . S
C1250 H1245 0.949 . S
C1250 C1256 1.368 . S
C1251 C1235 1.349 . S
C1251 H1243 0.950 . S
C1251 C1249 1.327 . S
C1252 C1240 1.349 . S
C1252 H1246 0.950 . S
C1252 C1253 1.327 . S
C1253 H1247 0.950 . S
C1253 C1252 1.327 . S
C1253 C1257 1.429 . S
C1254 C1237 1.574 . S
C1254 H1248 0.949 . S
C1254 C1258 1.368 . S
C1255 C1236 1.429 . S
C1255 C1249 1.429 . S
C1255 C1256 1.523 . S
C1256 C1237 1.368 . S
C1256 C1250 1.368 . S
C1256 C1255 1.523 . S
C1257 C1241 1.429 . S
C1257 C1253 1.429 . S
C1257 C1258 1.523 . S
C1258 C1242 1.368 . S
C1258 C1254 1.368 . S
C1258 C1257 1.523 . S
H1259 C1234 0.950 . S
H1260 C1236 0.950 . S
H1261 C1237 0.949 . S
H1262 C1239 0.950 . S
H1263 C1241 0.950 . S
C1264 C1265 1.349 . S
C1264 C1266 1.327 . S
C1264 H1289 0.950 . S
C1265 C1264 1.349 . S
C1265 C1281 1.349 . S
C1266 C1264 1.327 . S
C1266 C1285 1.429 . S
C1266 H1290 0.950 . S
C1267 C1284 1.574 . S
C1267 C1286 1.368 . S
C1267 H1291 0.949 . S
H1268 C1272 0.949 . S
C1269 C1270 1.349 . S
C1269 C1271 1.327 . S
C1269 H1292 0.950 . S
C1270 C1269 1.349 . S
C1270 C1282 1.349 . S
C1271 C1269 1.327 . S
C1271 C1287 1.429 . S
C1271 H1293 0.950 . S
C1272 H1268 0.949 . S
C1272 C1280 1.574 . S
C1272 C1288 1.368 . S
H1273 C1281 0.950 . S
H1274 C1279 0.950 . S
H1275 C1280 0.949 . S
H1276 C1282 0.950 . S
H1277 C1283 0.950 . S
H1278 C1284 0.949 . S
C1279 H1274 0.950 . S
C1279 C1281 1.327 . S
C1279 C1285 1.429 . S
C1280 C1272 1.574 . S
C1280 H1275 0.949 . S
C1280 C1286 1.368 . S
C1281 C1265 1.349 . S
C1281 H1273 0.950 . S
C1281 C1279 1.327 . S
C1282 C1270 1.349 . S
C1282 H1276 0.950 . S
C1282 C1283 1.327 . S
C1283 H1277 0.950 . S
C1283 C1282 1.327 . S
C1283 C1287 1.429 . S
C1284 C1267 1.574 . S
C1284 H1278 0.949 . S
C1284 C1288 1.368 . S
C1285 C1266 1.429 . S
C1285 C1279 1.429 . S
C1285 C1286 1.523 . S
C1286 C1267 1.368 . S
C1286 C1280 1.368 . S
C1286 C1285 1.523 . S
C1287 C1271 1.429 . S
C1287 C1283 1.429 . S
C1287 C1288 1.523 . S
C1288 C1272 1.368 . S
C1288 C1284 1.368 . S
C1288 C1287 1.523 . S
H1289 C1264 0.950 . S
H1290 C1266 0.950 . S
H1291 C1267 0.949 . S
H1292 C1269 0.950 . S
H1293 C1271 0.950 . S
C1294 C1295 1.349 . S
C1294 C1296 1.327 . S
C1294 H1319 0.950 . S
C1295 C1294 1.349 . S
C1295 C1311 1.349 . S
C1296 C1294 1.327 . S
C1296 C1315 1.429 . S
C1296 H1320 0.950 . S
C1297 C1314 1.574 . S
C1297 C1316 1.368 . S
C1297 H1321 0.949 . S
H1298 C1302 0.949 . S
C1299 C1300 1.349 . S
C1299 C1301 1.327 . S
C1299 H1322 0.950 . S
C1300 C1299 1.349 . S
C1300 C1312 1.349 . S
C1301 C1299 1.327 . S
C1301 C1317 1.429 . S
C1301 H1323 0.950 . S
C1302 H1298 0.949 . S
C1302 C1310 1.574 . S
C1302 C1318 1.368 . S
H1303 C1311 0.950 . S
H1304 C1309 0.950 . S
H1305 C1310 0.949 . S
H1306 C1312 0.950 . S
H1307 C1313 0.950 . S
H1308 C1314 0.949 . S
C1309 H1304 0.950 . S
C1309 C1311 1.327 . S
C1309 C1315 1.429 . S
C1310 C1302 1.574 . S
C1310 H1305 0.949 . S
C1310 C1316 1.368 . S
C1311 C1295 1.349 . S
C1311 H1303 0.950 . S
C1311 C1309 1.327 . S
C1312 C1300 1.349 . S
C1312 H1306 0.950 . S
C1312 C1313 1.327 . S
C1313 H1307 0.950 . S
C1313 C1312 1.327 . S
C1313 C1317 1.429 . S
C1314 C1297 1.574 . S
C1314 H1308 0.949 . S
C1314 C1318 1.368 . S
C1315 C1296 1.429 . S
C1315 C1309 1.429 . S
C1315 C1316 1.523 . S
C1316 C1297 1.368 . S
C1316 C1310 1.368 . S
C1316 C1315 1.523 . S
C1317 C1301 1.429 . S
C1317 C1313 1.429 . S
C1317 C1318 1.523 . S
C1318 C1302 1.368 . S
C1318 C1314 1.368 . S
C1318 C1317 1.523 . S
H1319 C1294 0.950 . S
H1320 C1296 0.950 . S
H1321 C1297 0.949 . S
H1322 C1299 0.950 . S
H1323 C1301 0.950 . S
C1324 C1325 1.349 . S
C1324 C1326 1.327 . S
C1324 H1349 0.950 . S
C1325 C1324 1.349 . S
C1325 C1341 1.349 . S
C1326 C1324 1.327 . S
C1326 C1345 1.429 . S
C1326 H1350 0.950 . S
C1327 C1344 1.574 . S
C1327 C1346 1.368 . S
C1327 H1351 0.949 . S
H1328 C1332 0.949 . S
C1329 C1330 1.349 . S
C1329 C1331 1.327 . S
C1329 H1352 0.950 . S
C1330 C1329 1.349 . S
C1330 C1342 1.349 . S
C1331 C1329 1.327 . S
C1331 C1347 1.429 . S
C1331 H1353 0.950 . S
C1332 H1328 0.949 . S
C1332 C1340 1.574 . S
C1332 C1348 1.368 . S
H1333 C1341 0.950 . S
H1334 C1339 0.950 . S
H1335 C1340 0.949 . S
H1336 C1342 0.950 . S
H1337 C1343 0.950 . S
H1338 C1344 0.949 . S
C1339 H1334 0.950 . S
C1339 C1341 1.327 . S
C1339 C1345 1.429 . S
C1340 C1332 1.574 . S
C1340 H1335 0.949 . S
C1340 C1346 1.368 . S
C1341 C1325 1.349 . S
C1341 H1333 0.950 . S
C1341 C1339 1.327 . S
C1342 C1330 1.349 . S
C1342 H1336 0.950 . S
C1342 C1343 1.327 . S
C1343 H1337 0.950 . S
C1343 C1342 1.327 . S
C1343 C1347 1.429 . S
C1344 C1327 1.574 . S
C1344 H1338 0.949 . S
C1344 C1348 1.368 . S
C1345 C1326 1.429 . S
C1345 C1339 1.429 . S
C1345 C1346 1.523 . S
C1346 C1327 1.368 . S
C1346 C1340 1.368 . S
C1346 C1345 1.523 . S
C1347 C1331 1.429 . S
C1347 C1343 1.429 . S
C1347 C1348 1.523 . S
C1348 C1332 1.368 . S
C1348 C1344 1.368 . S
C1348 C1347 1.523 . S
H1349 C1324 0.950 . S
H1350 C1326 0.950 . S
H1351 C1327 0.949 . S
H1352 C1329 0.950 . S
H1353 C1331 0.950 . S
C1354 C1355 1.349 . S
C1354 C1356 1.327 . S
C1354 H1379 0.950 . S
C1355 C1354 1.349 . S
C1355 C1371 1.349 . S
C1356 C1354 1.327 . S
C1356 C1375 1.429 . S
C1356 H1380 0.950 . S
C1357 C1374 1.574 . S
C1357 C1376 1.368 . S
C1357 H1381 0.949 . S
H1358 C1362 0.949 . S
C1359 C1360 1.349 . S
C1359 C1361 1.327 . S
C1359 H1382 0.950 . S
C1360 C1359 1.349 . S
C1360 C1372 1.349 . S
C1361 C1359 1.327 . S
C1361 C1377 1.429 . S
C1361 H1383 0.950 . S
C1362 H1358 0.949 . S
C1362 C1370 1.574 . S
C1362 C1378 1.368 . S
H1363 C1371 0.950 . S
H1364 C1369 0.950 . S
H1365 C1370 0.949 . S
H1366 C1372 0.950 . S
H1367 C1373 0.950 . S
H1368 C1374 0.949 . S
C1369 H1364 0.950 . S
C1369 C1371 1.327 . S
C1369 C1375 1.429 . S
C1370 C1362 1.574 . S
C1370 H1365 0.949 . S
C1370 C1376 1.368 . S
C1371 C1355 1.349 . S
C1371 H1363 0.950 . S
C1371 C1369 1.327 . S
C1372 C1360 1.349 . S
C1372 H1366 0.950 . S
C1372 C1373 1.327 . S
C1373 H1367 0.950 . S
C1373 C1372 1.327 . S
C1373 C1377 1.429 . S
C1374 C1357 1.574 . S
C1374 H1368 0.949 . S
C1374 C1378 1.368 . S
C1375 C1356 1.429 . S
C1375 C1369 1.429 . S
C1375 C1376 1.523 . S
C1376 C1357 1.368 . S
C1376 C1370 1.368 . S
C1376 C1375 1.523 . S
C1377 C1361 1.429 . S
C1377 C1373 1.429 . S
C1377 C1378 1.523 . S
C1378 C1362 1.368 . S
C1378 C1374 1.368 . S
C1378 C1377 1.523 . S
H1379 C1354 0.950 . S
H1380 C1356 0.950 . S
H1381 C1357 0.949 . S
H1382 C1359 0.950 . S
H1383 C1361 0.950 . S
C1384 C1385 1.349 . S
C1384 C1386 1.327 . S
C1384 H1409 0.950 . S
C1385 C1384 1.349 . S
C1385 C1401 1.349 . S
C1386 C1384 1.327 . S
C1386 C1405 1.429 . S
C1386 H1410 0.950 . S
C1387 C1404 1.574 . S
C1387 C1406 1.368 . S
C1387 H1411 0.949 . S
H1388 C1392 0.949 . S
C1389 C1390 1.349 . S
C1389 C1391 1.327 . S
C1389 H1412 0.950 . S
C1390 C1389 1.349 . S
C1390 C1402 1.349 . S
C1391 C1389 1.327 . S
C1391 C1407 1.429 . S
C1391 H1413 0.950 . S
C1392 H1388 0.949 . S
C1392 C1400 1.574 . S
C1392 C1408 1.368 . S
H1393 C1401 0.950 . S
H1394 C1399 0.950 . S
H1395 C1400 0.949 . S
H1396 C1402 0.950 . S
H1397 C1403 0.950 . S
H1398 C1404 0.949 . S
C1399 H1394 0.950 . S
C1399 C1401 1.327 . S
C1399 C1405 1.429 . S
C1400 C1392 1.574 . S
C1400 H1395 0.949 . S
C1400 C1406 1.368 . S
C1401 C1385 1.349 . S
C1401 H1393 0.950 . S
C1401 C1399 1.327 . S
C1402 C1390 1.349 . S
C1402 H1396 0.950 . S
C1402 C1403 1.327 . S
C1403 H1397 0.950 . S
C1403 C1402 1.327 . S
C1403 C1407 1.429 . S
C1404 C1387 1.574 . S
C1404 H1398 0.949 . S
C1404 C1408 1.368 . S
C1405 C1386 1.429 . S
C1405 C1399 1.429 . S
C1405 C1406 1.523 . S
C1406 C1387 1.368 . S
C1406 C1400 1.368 . S
C1406 C1405 1.523 . S
C1407 C1391 1.429 . S
C1407 C1403 1.429 . S
C1407 C1408 1.523 . S
C1408 C1392 1.368 . S
C1408 C1404 1.368 . S
C1408 C1407 1.523 . S
H1409 C1384 0.950 . S
H1410 C1386 0.950 . S
H1411 C1387 0.949 . S
H1412 C1389 0.950 . S
H1413 C1391 0.950 . S
C1414 C1415 1.349 . S
C1414 C1416 1.327 . S
C1414 H1439 0.950 . S
C1415 C1414 1.349 . S
C1415 C1431 1.349 . S
C1416 C1414 1.327 . S
C1416 C1435 1.429 . S
C1416 H1440 0.950 . S
C1417 C1434 1.574 . S
C1417 C1436 1.368 . S
C1417 H1441 0.949 . S
H1418 C1422 0.949 . S
C1419 C1420 1.349 . S
C1419 C1421 1.327 . S
C1419 H1442 0.950 . S
C1420 C1419 1.349 . S
C1420 C1432 1.349 . S
C1421 C1419 1.327 . S
C1421 C1437 1.429 . S
C1421 H1443 0.950 . S
C1422 H1418 0.949 . S
C1422 C1430 1.574 . S
C1422 C1438 1.368 . S
H1423 C1431 0.950 . S
H1424 C1429 0.950 . S
H1425 C1430 0.949 . S
H1426 C1432 0.950 . S
H1427 C1433 0.950 . S
H1428 C1434 0.949 . S
C1429 H1424 0.950 . S
C1429 C1431 1.327 . S
C1429 C1435 1.429 . S
C1430 C1422 1.574 . S
C1430 H1425 0.949 . S
C1430 C1436 1.368 . S
C1431 C1415 1.349 . S
C1431 H1423 0.950 . S
C1431 C1429 1.327 . S
C1432 C1420 1.349 . S
C1432 H1426 0.950 . S
C1432 C1433 1.327 . S
C1433 H1427 0.950 . S
C1433 C1432 1.327 . S
C1433 C1437 1.429 . S
C1434 C1417 1.574 . S
C1434 H1428 0.949 . S
C1434 C1438 1.368 . S
C1435 C1416 1.429 . S
C1435 C1429 1.429 . S
C1435 C1436 1.523 . S
C1436 C1417 1.368 . S
C1436 C1430 1.368 . S
C1436 C1435 1.523 . S
C1437 C1421 1.429 . S
C1437 C1433 1.429 . S
C1437 C1438 1.523 . S
C1438 C1422 1.368 . S
C1438 C1434 1.368 . S
C1438 C1437 1.523 . S
H1439 C1414 0.950 . S
H1440 C1416 0.950 . S
H1441 C1417 0.949 . S
H1442 C1419 0.950 . S
H1443 C1421 0.950 . S
C1444 C1445 1.349 . S
C1444 C1446 1.327 . S
C1444 H1469 0.950 . S
C1445 C1444 1.349 . S
C1445 C1461 1.349 . S
C1446 C1444 1.327 . S
C1446 C1465 1.429 . S
C1446 H1470 0.950 . S
C1447 C1464 1.574 . S
C1447 C1466 1.368 . S
C1447 H1471 0.949 . S
H1448 C1452 0.949 . S
C1449 C1450 1.349 . S
C1449 C1451 1.327 . S
C1449 H1472 0.950 . S
C1450 C1449 1.349 . S
C1450 C1462 1.349 . S
C1451 C1449 1.327 . S
C1451 C1467 1.429 . S
C1451 H1473 0.950 . S
C1452 H1448 0.949 . S
C1452 C1460 1.574 . S
C1452 C1468 1.368 . S
H1453 C1461 0.950 . S
H1454 C1459 0.950 . S
H1455 C1460 0.949 . S
H1456 C1462 0.950 . S
H1457 C1463 0.950 . S
H1458 C1464 0.949 . S
C1459 H1454 0.950 . S
C1459 C1461 1.327 . S
C1459 C1465 1.429 . S
C1460 C1452 1.574 . S
C1460 H1455 0.949 . S
C1460 C1466 1.368 . S
C1461 C1445 1.349 . S
C1461 H1453 0.950 . S
C1461 C1459 1.327 . S
C1462 C1450 1.349 . S
C1462 H1456 0.950 . S
C1462 C1463 1.327 . S
C1463 H1457 0.950 . S
C1463 C1462 1.327 . S
C1463 C1467 1.429 . S
C1464 C1447 1.574 . S
C1464 H1458 0.949 . S
C1464 C1468 1.368 . S
C1465 C1446 1.429 . S
C1465 C1459 1.429 . S
C1465 C1466 1.523 . S
C1466 C1447 1.368 . S
C1466 C1460 1.368 . S
C1466 C1465 1.523 . S
C1467 C1451 1.429 . S
C1467 C1463 1.429 . S
C1467 C1468 1.523 . S
C1468 C1452 1.368 . S
C1468 C1464 1.368 . S
C1468 C1467 1.523 . S
H1469 C1444 0.950 . S
H1470 C1446 0.950 . S
H1471 C1447 0.949 . S
H1472 C1449 0.950 . S
H1473 C1451 0.950 . S
C1474 C1475 1.349 . S
C1474 C1476 1.327 . S
C1474 H1499 0.950 . S
C1475 C1474 1.349 . S
C1475 C1491 1.349 . S
C1476 C1474 1.327 . S
C1476 C1495 1.429 . S
C1476 H1500 0.950 . S
C1477 C1494 1.574 . S
C1477 C1496 1.368 . S
C1477 H1501 0.949 . S
H1478 C1482 0.949 . S
C1479 C1480 1.349 . S
C1479 C1481 1.327 . S
C1479 H1502 0.950 . S
C1480 C1479 1.349 . S
C1480 C1492 1.349 . S
C1481 C1479 1.327 . S
C1481 C1497 1.429 . S
C1481 H1503 0.950 . S
C1482 H1478 0.949 . S
C1482 C1490 1.574 . S
C1482 C1498 1.368 . S
H1483 C1491 0.950 . S
H1484 C1489 0.950 . S
H1485 C1490 0.949 . S
H1486 C1492 0.950 . S
H1487 C1493 0.950 . S
H1488 C1494 0.949 . S
C1489 H1484 0.950 . S
C1489 C1491 1.327 . S
C1489 C1495 1.429 . S
C1490 C1482 1.574 . S
C1490 H1485 0.949 . S
C1490 C1496 1.368 . S
C1491 C1475 1.349 . S
C1491 H1483 0.950 . S
C1491 C1489 1.327 . S
C1492 C1480 1.349 . S
C1492 H1486 0.950 . S
C1492 C1493 1.327 . S
C1493 H1487 0.950 . S
C1493 C1492 1.327 . S
C1493 C1497 1.429 . S
C1494 C1477 1.574 . S
C1494 H1488 0.949 . S
C1494 C1498 1.368 . S
C1495 C1476 1.429 . S
C1495 C1489 1.429 . S
C1495 C1496 1.523 . S
C1496 C1477 1.368 . S
C1496 C1490 1.368 . S
C1496 C1495 1.523 . S
C1497 C1481 1.429 . S
C1497 C1493 1.429 . S
C1497 C1498 1.523 . S
C1498 C1482 1.368 . S
C1498 C1494 1.368 . S
C1498 C1497 1.523 . S
H1499 C1474 0.950 . S
H1500 C1476 0.950 . S
H1501 C1477 0.949 . S
H1502 C1479 0.950 . S
H1503 C1481 0.950 . S
C1504 C1505 1.349 . S
C1504 C1506 1.327 . S
C1504 H1529 0.950 . S
C1505 C1504 1.349 . S
C1505 C1521 1.349 . S
C1506 C1504 1.327 . S
C1506 C1525 1.429 . S
C1506 H1530 0.950 . S
C1507 C1524 1.574 . S
C1507 C1526 1.368 . S
C1507 H1531 0.949 . S
H1508 C1512 0.949 . S
C1509 C1510 1.349 . S
C1509 C1511 1.327 . S
C1509 H1532 0.950 . S
C1510 C1509 1.349 . S
C1510 C1522 1.349 . S
C1511 C1509 1.327 . S
C1511 C1527 1.429 . S
C1511 H1533 0.950 . S
C1512 H1508 0.949 . S
C1512 C1520 1.574 . S
C1512 C1528 1.368 . S
H1513 C1521 0.950 . S
H1514 C1519 0.950 . S
H1515 C1520 0.949 . S
H1516 C1522 0.950 . S
H1517 C1523 0.950 . S
H1518 C1524 0.949 . S
C1519 H1514 0.950 . S
C1519 C1521 1.327 . S
C1519 C1525 1.429 . S
C1520 C1512 1.574 . S
C1520 H1515 0.949 . S
C1520 C1526 1.368 . S
C1521 C1505 1.349 . S
C1521 H1513 0.950 . S
C1521 C1519 1.327 . S
C1522 C1510 1.349 . S
C1522 H1516 0.950 . S
C1522 C1523 1.327 . S
C1523 H1517 0.950 . S
C1523 C1522 1.327 . S
C1523 C1527 1.429 . S
C1524 C1507 1.574 . S
C1524 H1518 0.949 . S
C1524 C1528 1.368 . S
C1525 C1506 1.429 . S
C1525 C1519 1.429 . S
C1525 C1526 1.523 . S
C1526 C1507 1.368 . S
C1526 C1520 1.368 . S
C1526 C1525 1.523 . S
C1527 C1511 1.429 . S
C1527 C1523 1.429 . S
C1527 C1528 1.523 . S
C1528 C1512 1.368 . S
C1528 C1524 1.368 . S
C1528 C1527 1.523 . S
H1529 C1504 0.950 . S
H1530 C1506 0.950 . S
H1531 C1507 0.949 . S
H1532 C1509 0.950 . S
H1533 C1511 0.950 . S
C1534 C1535 1.349 . S
C1534 C1536 1.327 . S
C1534 H1559 0.950 . S
C1535 C1534 1.349 . S
C1535 C1551 1.349 . S
C1536 C1534 1.327 . S
C1536 C1555 1.429 . S
C1536 H1560 0.950 . S
C1537 C1554 1.574 . S
C1537 C1556 1.368 . S
C1537 H1561 0.949 . S
H1538 C1542 0.949 . S
C1539 C1540 1.349 . S
C1539 C1541 1.327 . S
C1539 H1562 0.950 . S
C1540 C1539 1.349 . S
C1540 C1552 1.349 . S
C1541 C1539 1.327 . S
C1541 C1557 1.429 . S
C1541 H1563 0.950 . S
C1542 H1538 0.949 . S
C1542 C1550 1.574 . S
C1542 C1558 1.368 . S
H1543 C1551 0.950 . S
H1544 C1549 0.950 . S
H1545 C1550 0.949 . S
H1546 C1552 0.950 . S
H1547 C1553 0.950 . S
H1548 C1554 0.949 . S
C1549 H1544 0.950 . S
C1549 C1551 1.327 . S
C1549 C1555 1.429 . S
C1550 C1542 1.574 . S
C1550 H1545 0.949 . S
C1550 C1556 1.368 . S
C1551 C1535 1.349 . S
C1551 H1543 0.950 . S
C1551 C1549 1.327 . S
C1552 C1540 1.349 . S
C1552 H1546 0.950 . S
C1552 C1553 1.327 . S
C1553 H1547 0.950 . S
C1553 C1552 1.327 . S
C1553 C1557 1.429 . S
C1554 C1537 1.574 . S
C1554 H1548 0.949 . S
C1554 C1558 1.368 . S
C1555 C1536 1.429 . S
C1555 C1549 1.429 . S
C1555 C1556 1.523 . S
C1556 C1537 1.368 . S
C1556 C1550 1.368 . S
C1556 C1555 1.523 . S
C1557 C1541 1.429 . S
C1557 C1553 1.429 . S
C1557 C1558 1.523 . S
C1558 C1542 1.368 . S
C1558 C1554 1.368 . S
C1558 C1557 1.523 . S
H1559 C1534 0.950 . S
H1560 C1536 0.950 . S
H1561 C1537 0.949 . S
H1562 C1539 0.950 . S
H1563 C1541 0.950 . S
C1564 C1565 1.349 . S
C1564 C1566 1.327 . S
C1564 H1589 0.950 . S
C1565 C1564 1.349 . S
C1565 C1581 1.349 . S
C1566 C1564 1.327 . S
C1566 C1585 1.429 . S
C1566 H1590 0.950 . S
C1567 C1584 1.574 . S
C1567 C1586 1.368 . S
C1567 H1591 0.949 . S
H1568 C1572 0.949 . S
C1569 C1570 1.349 . S
C1569 C1571 1.327 . S
C1569 H1592 0.950 . S
C1570 C1569 1.349 . S
C1570 C1582 1.349 . S
C1571 C1569 1.327 . S
C1571 C1587 1.429 . S
C1571 H1593 0.950 . S
C1572 H1568 0.949 . S
C1572 C1580 1.574 . S
C1572 C1588 1.368 . S
H1573 C1581 0.950 . S
H1574 C1579 0.950 . S
H1575 C1580 0.949 . S
H1576 C1582 0.950 . S
H1577 C1583 0.950 . S
H1578 C1584 0.949 . S
C1579 H1574 0.950 . S
C1579 C1581 1.327 . S
C1579 C1585 1.429 . S
C1580 C1572 1.574 . S
C1580 H1575 0.949 . S
C1580 C1586 1.368 . S
C1581 C1565 1.349 . S
C1581 H1573 0.950 . S
C1581 C1579 1.327 . S
C1582 C1570 1.349 . S
C1582 H1576 0.950 . S
C1582 C1583 1.327 . S
C1583 H1577 0.950 . S
C1583 C1582 1.327 . S
C1583 C1587 1.429 . S
C1584 C1567 1.574 . S
C1584 H1578 0.949 . S
C1584 C1588 1.368 . S
C1585 C1566 1.429 . S
C1585 C1579 1.429 . S
C1585 C1586 1.523 . S
C1586 C1567 1.368 . S
C1586 C1580 1.368 . S
C1586 C1585 1.523 . S
C1587 C1571 1.429 . S
C1587 C1583 1.429 . S
C1587 C1588 1.523 . S
C1588 C1572 1.368 . S
C1588 C1584 1.368 . S
C1588 C1587 1.523 . S
H1589 C1564 0.950 . S
H1590 C1566 0.950 . S
H1591 C1567 0.949 . S
H1592 C1569 0.950 . S
H1593 C1571 0.950 . S
C1594 C1595 1.349 . S
C1594 C1596 1.327 . S
C1594 H1619 0.950 . S
C1595 C1594 1.349 . S
C1595 C1611 1.349 . S
C1596 C1594 1.327 . S
C1596 C1615 1.429 . S
C1596 H1620 0.950 . S
C1597 C1614 1.574 . S
C1597 C1616 1.368 . S
C1597 H1621 0.949 . S
H1598 C1602 0.949 . S
C1599 C1600 1.349 . S
C1599 C1601 1.327 . S
C1599 H1622 0.950 . S
C1600 C1599 1.349 . S
C1600 C1612 1.349 . S
C1601 C1599 1.327 . S
C1601 C1617 1.429 . S
C1601 H1623 0.950 . S
C1602 H1598 0.949 . S
C1602 C1610 1.574 . S
C1602 C1618 1.368 . S
H1603 C1611 0.950 . S
H1604 C1609 0.950 . S
H1605 C1610 0.949 . S
H1606 C1612 0.950 . S
H1607 C1613 0.950 . S
H1608 C1614 0.949 . S
C1609 H1604 0.950 . S
C1609 C1611 1.327 . S
C1609 C1615 1.429 . S
C1610 C1602 1.574 . S
C1610 H1605 0.949 . S
C1610 C1616 1.368 . S
C1611 C1595 1.349 . S
C1611 H1603 0.950 . S
C1611 C1609 1.327 . S
C1612 C1600 1.349 . S
C1612 H1606 0.950 . S
C1612 C1613 1.327 . S
C1613 H1607 0.950 . S
C1613 C1612 1.327 . S
C1613 C1617 1.429 . S
C1614 C1597 1.574 . S
C1614 H1608 0.949 . S
C1614 C1618 1.368 . S
C1615 C1596 1.429 . S
C1615 C1609 1.429 . S
C1615 C1616 1.523 . S
C1616 C1597 1.368 . S
C1616 C1610 1.368 . S
C1616 C1615 1.523 . S
C1617 C1601 1.429 . S
C1617 C1613 1.429 . S
C1617 C1618 1.523 . S
C1618 C1602 1.368 . S
C1618 C1614 1.368 . S
C1618 C1617 1.523 . S
H1619 C1594 0.950 . S
H1620 C1596 0.950 . S
H1621 C1597 0.949 . S
H1622 C1599 0.950 . S
H1623 C1601 0.950 . S
C1624 C1625 1.349 . S
C1624 C1626 1.327 . S
C1624 H1649 0.950 . S
C1625 C1624 1.349 . S
C1625 C1641 1.349 . S
C1626 C1624 1.327 . S
C1626 C1645 1.429 . S
C1626 H1650 0.950 . S
C1627 C1644 1.574 . S
C1627 C1646 1.368 . S
C1627 H1651 0.949 . S
H1628 C1632 0.949 . S
C1629 C1630 1.349 . S
C1629 C1631 1.327 . S
C1629 H1652 0.950 . S
C1630 C1629 1.349 . S
C1630 C1642 1.349 . S
C1631 C1629 1.327 . S
C1631 C1647 1.429 . S
C1631 H1653 0.950 . S
C1632 H1628 0.949 . S
C1632 C1640 1.574 . S
C1632 C1648 1.368 . S
H1633 C1641 0.950 . S
H1634 C1639 0.950 . S
H1635 C1640 0.949 . S
H1636 C1642 0.950 . S
H1637 C1643 0.950 . S
H1638 C1644 0.949 . S
C1639 H1634 0.950 . S
C1639 C1641 1.327 . S
C1639 C1645 1.429 . S
C1640 C1632 1.574 . S
C1640 H1635 0.949 . S
C1640 C1646 1.368 . S
C1641 C1625 1.349 . S
C1641 H1633 0.950 . S
C1641 C1639 1.327 . S
C1642 C1630 1.349 . S
C1642 H1636 0.950 . S
C1642 C1643 1.327 . S
C1643 H1637 0.950 . S
C1643 C1642 1.327 . S
C1643 C1647 1.429 . S
C1644 C1627 1.574 . S
C1644 H1638 0.949 . S
C1644 C1648 1.368 . S
C1645 C1626 1.429 . S
C1645 C1639 1.429 . S
C1645 C1646 1.523 . S
C1646 C1627 1.368 . S
C1646 C1640 1.368 . S
C1646 C1645 1.523 . S
C1647 C1631 1.429 . S
C1647 C1643 1.429 . S
C1647 C1648 1.523 . S
C1648 C1632 1.368 . S
C1648 C1644 1.368 . S
C1648 C1647 1.523 . S
H1649 C1624 0.950 . S
H1650 C1626 0.950 . S
H1651 C1627 0.949 . S
H1652 C1629 0.950 . S
H1653 C1631 0.950 . S
C1654 C1655 1.349 . S
C1654 C1656 1.327 . S
C1654 H1679 0.950 . S
C1655 C1654 1.349 . S
C1655 C1671 1.349 . S
C1656 C1654 1.327 . S
C1656 C1675 1.429 . S
C1656 H1680 0.950 . S
C1657 C1674 1.574 . S
C1657 C1676 1.368 . S
C1657 H1681 0.949 . S
H1658 C1662 0.949 . S
C1659 C1660 1.349 . S
C1659 C1661 1.327 . S
C1659 H1682 0.950 . S
C1660 C1659 1.349 . S
C1660 C1672 1.349 . S
C1661 C1659 1.327 . S
C1661 C1677 1.429 . S
C1661 H1683 0.950 . S
C1662 H1658 0.949 . S
C1662 C1670 1.574 . S
C1662 C1678 1.368 . S
H1663 C1671 0.950 . S
H1664 C1669 0.950 . S
H1665 C1670 0.949 . S
H1666 C1672 0.950 . S
H1667 C1673 0.950 . S
H1668 C1674 0.949 . S
C1669 H1664 0.950 . S
C1669 C1671 1.327 . S
C1669 C1675 1.429 . S
C1670 C1662 1.574 . S
C1670 H1665 0.949 . S
C1670 C1676 1.368 . S
C1671 C1655 1.349 . S
C1671 H1663 0.950 . S
C1671 C1669 1.327 . S
C1672 C1660 1.349 . S
C1672 H1666 0.950 . S
C1672 C1673 1.327 . S
C1673 H1667 0.950 . S
C1673 C1672 1.327 . S
C1673 C1677 1.429 . S
C1674 C1657 1.574 . S
C1674 H1668 0.949 . S
C1674 C1678 1.368 . S
C1675 C1656 1.429 . S
C1675 C1669 1.429 . S
C1675 C1676 1.523 . S
C1676 C1657 1.368 . S
C1676 C1670 1.368 . S
C1676 C1675 1.523 . S
C1677 C1661 1.429 . S
C1677 C1673 1.429 . S
C1677 C1678 1.523 . S
C1678 C1662 1.368 . S
C1678 C1674 1.368 . S
C1678 C1677 1.523 . S
H1679 C1654 0.950 . S
H1680 C1656 0.950 . S
H1681 C1657 0.949 . S
H1682 C1659 0.950 . S
H1683 C1661 0.950 . S
C1684 C1685 1.349 . S
C1684 C1686 1.327 . S
C1684 H1709 0.950 . S
C1685 C1684 1.349 . S
C1685 C1701 1.349 . S
C1686 C1684 1.327 . S
C1686 C1705 1.429 . S
C1686 H1710 0.950 . S
C1687 C1704 1.574 . S
C1687 C1706 1.368 . S
C1687 H1711 0.949 . S
H1688 C1692 0.949 . S
C1689 C1690 1.349 . S
C1689 C1691 1.327 . S
C1689 H1712 0.950 . S
C1690 C1689 1.349 . S
C1690 C1702 1.349 . S
C1691 C1689 1.327 . S
C1691 C1707 1.429 . S
C1691 H1713 0.950 . S
C1692 H1688 0.949 . S
C1692 C1700 1.574 . S
C1692 C1708 1.368 . S
H1693 C1701 0.950 . S
H1694 C1699 0.950 . S
H1695 C1700 0.949 . S
H1696 C1702 0.950 . S
H1697 C1703 0.950 . S
H1698 C1704 0.949 . S
C1699 H1694 0.950 . S
C1699 C1701 1.327 . S
C1699 C1705 1.429 . S
C1700 C1692 1.574 . S
C1700 H1695 0.949 . S
C1700 C1706 1.368 . S
C1701 C1685 1.349 . S
C1701 H1693 0.950 . S
C1701 C1699 1.327 . S
C1702 C1690 1.349 . S
C1702 H1696 0.950 . S
C1702 C1703 1.327 . S
C1703 H1697 0.950 . S
C1703 C1702 1.327 . S
C1703 C1707 1.429 . S
C1704 C1687 1.574 . S
C1704 H1698 0.949 . S
C1704 C1708 1.368 . S
C1705 C1686 1.429 . S
C1705 C1699 1.429 . S
C1705 C1706 1.523 . S
C1706 C1687 1.368 . S
C1706 C1700 1.368 . S
C1706 C1705 1.523 . S
C1707 C1691 1.429 . S
C1707 C1703 1.429 . S
C1707 C1708 1.523 . S
C1708 C1692 1.368 . S
C1708 C1704 1.368 . S
C1708 C1707 1.523 . S
H1709 C1684 0.950 . S
H1710 C1686 0.950 . S
H1711 C1687 0.949 . S
H1712 C1689 0.950 . S
H1713 C1691 0.950 . S
C1714 C1715 1.349 . S
C1714 C1716 1.327 . S
C1714 H1739 0.950 . S
C1715 C1714 1.349 . S
C1715 C1731 1.349 . S
C1716 C1714 1.327 . S
C1716 C1735 1.429 . S
C1716 H1740 0.950 . S
C1717 C1734 1.574 . S
C1717 C1736 1.368 . S
C1717 H1741 0.949 . S
H1718 C1722 0.949 . S
C1719 C1720 1.349 . S
C1719 C1721 1.327 . S
C1719 H1742 0.950 . S
C1720 C1719 1.349 . S
C1720 C1732 1.349 . S
C1721 C1719 1.327 . S
C1721 C1737 1.429 . S
C1721 H1743 0.950 . S
C1722 H1718 0.949 . S
C1722 C1730 1.574 . S
C1722 C1738 1.368 . S
H1723 C1731 0.950 . S
H1724 C1729 0.950 . S
H1725 C1730 0.949 . S
H1726 C1732 0.950 . S
H1727 C1733 0.950 . S
H1728 C1734 0.949 . S
C1729 H1724 0.950 . S
C1729 C1731 1.327 . S
C1729 C1735 1.429 . S
C1730 C1722 1.574 . S
C1730 H1725 0.949 . S
C1730 C1736 1.368 . S
C1731 C1715 1.349 . S
C1731 H1723 0.950 . S
C1731 C1729 1.327 . S
C1732 C1720 1.349 . S
C1732 H1726 0.950 . S
C1732 C1733 1.327 . S
C1733 H1727 0.950 . S
C1733 C1732 1.327 . S
C1733 C1737 1.429 . S
C1734 C1717 1.574 . S
C1734 H1728 0.949 . S
C1734 C1738 1.368 . S
C1735 C1716 1.429 . S
C1735 C1729 1.429 . S
C1735 C1736 1.523 . S
C1736 C1717 1.368 . S
C1736 C1730 1.368 . S
C1736 C1735 1.523 . S
C1737 C1721 1.429 . S
C1737 C1733 1.429 . S
C1737 C1738 1.523 . S
C1738 C1722 1.368 . S
C1738 C1734 1.368 . S
C1738 C1737 1.523 . S
H1739 C1714 0.950 . S
H1740 C1716 0.950 . S
H1741 C1717 0.949 . S
H1742 C1719 0.950 . S
H1743 C1721 0.950 . S
C1744 C1745 1.349 . S
C1744 C1746 1.327 . S
C1744 H1769 0.950 . S
C1745 C1744 1.349 . S
C1745 C1761 1.349 . S
C1746 C1744 1.327 . S
C1746 C1765 1.429 . S
C1746 H1770 0.950 . S
C1747 C1764 1.574 . S
C1747 C1766 1.368 . S
C1747 H1771 0.949 . S
H1748 C1752 0.949 . S
C1749 C1750 1.349 . S
C1749 C1751 1.327 . S
C1749 H1772 0.950 . S
C1750 C1749 1.349 . S
C1750 C1762 1.349 . S
C1751 C1749 1.327 . S
C1751 C1767 1.429 . S
C1751 H1773 0.950 . S
C1752 H1748 0.949 . S
C1752 C1760 1.574 . S
C1752 C1768 1.368 . S
H1753 C1761 0.950 . S
H1754 C1759 0.950 . S
H1755 C1760 0.949 . S
H1756 C1762 0.950 . S
H1757 C1763 0.950 . S
H1758 C1764 0.949 . S
C1759 H1754 0.950 . S
C1759 C1761 1.327 . S
C1759 C1765 1.429 . S
C1760 C1752 1.574 . S
C1760 H1755 0.949 . S
C1760 C1766 1.368 . S
C1761 C1745 1.349 . S
C1761 H1753 0.950 . S
C1761 C1759 1.327 . S
C1762 C1750 1.349 . S
C1762 H1756 0.950 . S
C1762 C1763 1.327 . S
C1763 H1757 0.950 . S
C1763 C1762 1.327 . S
C1763 C1767 1.429 . S
C1764 C1747 1.574 . S
C1764 H1758 0.949 . S
C1764 C1768 1.368 . S
C1765 C1746 1.429 . S
C1765 C1759 1.429 . S
C1765 C1766 1.523 . S
C1766 C1747 1.368 . S
C1766 C1760 1.368 . S
C1766 C1765 1.523 . S
C1767 C1751 1.429 . S
C1767 C1763 1.429 . S
C1767 C1768 1.523 . S
C1768 C1752 1.368 . S
C1768 C1764 1.368 . S
C1768 C1767 1.523 . S
H1769 C1744 0.950 . S
H1770 C1746 0.950 . S
H1771 C1747 0.949 . S
H1772 C1749 0.950 . S
H1773 C1751 0.950 . S
C1774 C1775 1.349 . S
C1774 C1776 1.327 . S
C1774 H1799 0.950 . S
C1775 C1774 1.349 . S
C1775 C1791 1.349 . S
C1776 C1774 1.327 . S
C1776 C1795 1.429 . S
C1776 H1800 0.950 . S
C1777 C1794 1.574 . S
C1777 C1796 1.368 . S
C1777 H1801 0.949 . S
H1778 C1782 0.949 . S
C1779 C1780 1.349 . S
C1779 C1781 1.327 . S
C1779 H1802 0.950 . S
C1780 C1779 1.349 . S
C1780 C1792 1.349 . S
C1781 C1779 1.327 . S
C1781 C1797 1.429 . S
C1781 H1803 0.950 . S
C1782 H1778 0.949 . S
C1782 C1790 1.574 . S
C1782 C1798 1.368 . S
H1783 C1791 0.950 . S
H1784 C1789 0.950 . S
H1785 C1790 0.949 . S
H1786 C1792 0.950 . S
H1787 C1793 0.950 . S
H1788 C1794 0.949 . S
C1789 H1784 0.950 . S
C1789 C1791 1.327 . S
C1789 C1795 1.429 . S
C1790 C1782 1.574 . S
C1790 H1785 0.949 . S
C1790 C1796 1.368 . S
C1791 C1775 1.349 . S
C1791 H1783 0.950 . S
C1791 C1789 1.327 . S
C1792 C1780 1.349 . S
C1792 H1786 0.950 . S
C1792 C1793 1.327 . S
C1793 H1787 0.950 . S
C1793 C1792 1.327 . S
C1793 C1797 1.429 . S
C1794 C1777 1.574 . S
C1794 H1788 0.949 . S
C1794 C1798 1.368 . S
C1795 C1776 1.429 . S
C1795 C1789 1.429 . S
C1795 C1796 1.523 . S
C1796 C1777 1.368 . S
C1796 C1790 1.368 . S
C1796 C1795 1.523 . S
C1797 C1781 1.429 . S
C1797 C1793 1.429 . S
C1797 C1798 1.523 . S
C1798 C1782 1.368 . S
C1798 C1794 1.368 . S
C1798 C1797 1.523 . S
H1799 C1774 0.950 . S
H1800 C1776 0.950 . S
H1801 C1777 0.949 . S
H1802 C1779 0.950 . S
H1803 C1781 0.950 . S
C1804 C1805 1.349 . S
C1804 C1806 1.327 . S
C1804 H1829 0.950 . S
C1805 C1804 1.349 . S
C1805 C1821 1.349 . S
C1806 C1804 1.327 . S
C1806 C1825 1.429 . S
C1806 H1830 0.950 . S
C1807 C1824 1.574 . S
C1807 C1826 1.368 . S
C1807 H1831 0.949 . S
H1808 C1812 0.949 . S
C1809 C1810 1.349 . S
C1809 C1811 1.327 . S
C1809 H1832 0.950 . S
C1810 C1809 1.349 . S
C1810 C1822 1.349 . S
C1811 C1809 1.327 . S
C1811 C1827 1.429 . S
C1811 H1833 0.950 . S
C1812 H1808 0.949 . S
C1812 C1820 1.574 . S
C1812 C1828 1.368 . S
H1813 C1821 0.950 . S
H1814 C1819 0.950 . S
H1815 C1820 0.949 . S
H1816 C1822 0.950 . S
H1817 C1823 0.950 . S
H1818 C1824 0.949 . S
C1819 H1814 0.950 . S
C1819 C1821 1.327 . S
C1819 C1825 1.429 . S
C1820 C1812 1.574 . S
C1820 H1815 0.949 . S
C1820 C1826 1.368 . S
C1821 C1805 1.349 . S
C1821 H1813 0.950 . S
C1821 C1819 1.327 . S
C1822 C1810 1.349 . S
C1822 H1816 0.950 . S
C1822 C1823 1.327 . S
C1823 H1817 0.950 . S
C1823 C1822 1.327 . S
C1823 C1827 1.429 . S
C1824 C1807 1.574 . S
C1824 H1818 0.949 . S
C1824 C1828 1.368 . S
C1825 C1806 1.429 . S
C1825 C1819 1.429 . S
C1825 C1826 1.523 . S
C1826 C1807 1.368 . S
C1826 C1820 1.368 . S
C1826 C1825 1.523 . S
C1827 C1811 1.429 . S
C1827 C1823 1.429 . S
C1827 C1828 1.523 . S
C1828 C1812 1.368 . S
C1828 C1824 1.368 . S
C1828 C1827 1.523 . S
H1829 C1804 0.950 . S
H1830 C1806 0.950 . S
H1831 C1807 0.949 . S
H1832 C1809 0.950 . S
H1833 C1811 0.950 . S
C1834 C1835 1.349 . S
C1834 C1836 1.327 . S
C1834 H1859 0.950 . S
C1835 C1834 1.349 . S
C1835 C1851 1.349 . S
C1836 C1834 1.327 . S
C1836 C1855 1.429 . S
C1836 H1860 0.950 . S
C1837 C1854 1.574 . S
C1837 C1856 1.368 . S
C1837 H1861 0.949 . S
H1838 C1842 0.949 . S
C1839 C1840 1.349 . S
C1839 C1841 1.327 . S
C1839 H1862 0.950 . S
C1840 C1839 1.349 . S
C1840 C1852 1.349 . S
C1841 C1839 1.327 . S
C1841 C1857 1.429 . S
C1841 H1863 0.950 . S
C1842 H1838 0.949 . S
C1842 C1850 1.574 . S
C1842 C1858 1.368 . S
H1843 C1851 0.950 . S
H1844 C1849 0.950 . S
H1845 C1850 0.949 . S
H1846 C1852 0.950 . S
H1847 C1853 0.950 . S
H1848 C1854 0.949 . S
C1849 H1844 0.950 . S
C1849 C1851 1.327 . S
C1849 C1855 1.429 . S
C1850 C1842 1.574 . S
C1850 H1845 0.949 . S
C1850 C1856 1.368 . S
C1851 C1835 1.349 . S
C1851 H1843 0.950 . S
C1851 C1849 1.327 . S
C1852 C1840 1.349 . S
C1852 H1846 0.950 . S
C1852 C1853 1.327 . S
C1853 H1847 0.950 . S
C1853 C1852 1.327 . S
C1853 C1857 1.429 . S
C1854 C1837 1.574 . S
C1854 H1848 0.949 . S
C1854 C1858 1.368 . S
C1855 C1836 1.429 . S
C1855 C1849 1.429 . S
C1855 C1856 1.523 . S
C1856 C1837 1.368 . S
C1856 C1850 1.368 . S
C1856 C1855 1.523 . S
C1857 C1841 1.429 . S
C1857 C1853 1.429 . S
C1857 C1858 1.523 . S
C1858 C1842 1.368 . S
C1858 C1854 1.368 . S
C1858 C1857 1.523 . S
H1859 C1834 0.950 . S
H1860 C1836 0.950 . S
H1861 C1837 0.949 . S
H1862 C1839 0.950 . S
H1863 C1841 0.950 . S
C1864 C1865 1.349 . S
C1864 C1866 1.327 . S
C1864 H1889 0.950 . S
C1865 C1864 1.349 . S
C1865 C1881 1.349 . S
C1866 C1864 1.327 . S
C1866 C1885 1.429 . S
C1866 H1890 0.950 . S
C1867 C1884 1.574 . S
C1867 C1886 1.368 . S
C1867 H1891 0.949 . S
H1868 C1872 0.949 . S
C1869 C1870 1.349 . S
C1869 C1871 1.327 . S
C1869 H1892 0.950 . S
C1870 C1869 1.349 . S
C1870 C1882 1.349 . S
C1871 C1869 1.327 . S
C1871 C1887 1.429 . S
C1871 H1893 0.950 . S
C1872 H1868 0.949 . S
C1872 C1880 1.574 . S
C1872 C1888 1.368 . S
H1873 C1881 0.950 . S
H1874 C1879 0.950 . S
H1875 C1880 0.949 . S
H1876 C1882 0.950 . S
H1877 C1883 0.950 . S
H1878 C1884 0.949 . S
C1879 H1874 0.950 . S
C1879 C1881 1.327 . S
C1879 C1885 1.429 . S
C1880 C1872 1.574 . S
C1880 H1875 0.949 . S
C1880 C1886 1.368 . S
C1881 C1865 1.349 . S
C1881 H1873 0.950 . S
C1881 C1879 1.327 . S
C1882 C1870 1.349 . S
C1882 H1876 0.950 . S
C1882 C1883 1.327 . S
C1883 H1877 0.950 . S
C1883 C1882 1.327 . S
C1883 C1887 1.429 . S
C1884 C1867 1.574 . S
C1884 H1878 0.949 . S
C1884 C1888 1.368 . S
C1885 C1866 1.429 . S
C1885 C1879 1.429 . S
C1885 C1886 1.523 . S
C1886 C1867 1.368 . S
C1886 C1880 1.368 . S
C1886 C1885 1.523 . S
C1887 C1871 1.429 . S
C1887 C1883 1.429 . S
C1887 C1888 1.523 . S
C1888 C1872 1.368 . S
C1888 C1884 1.368 . S
C1888 C1887 1.523 . S
H1889 C1864 0.950 . S
H1890 C1866 0.950 . S
H1891 C1867 0.949 . S
H1892 C1869 0.950 . S
H1893 C1871 0.950 . S
C1894 C1895 1.349 . S
C1894 C1896 1.327 . S
C1894 H1919 0.950 . S
C1895 C1894 1.349 . S
C1895 C1911 1.349 . S
C1896 C1894 1.327 . S
C1896 C1915 1.429 . S
C1896 H1920 0.950 . S
C1897 C1914 1.574 . S
C1897 C1916 1.368 . S
C1897 H1921 0.949 . S
H1898 C1902 0.949 . S
C1899 C1900 1.349 . S
C1899 C1901 1.327 . S
C1899 H1922 0.950 . S
C1900 C1899 1.349 . S
C1900 C1912 1.349 . S
C1901 C1899 1.327 . S
C1901 C1917 1.429 . S
C1901 H1923 0.950 . S
C1902 H1898 0.949 . S
C1902 C1910 1.574 . S
C1902 C1918 1.368 . S
H1903 C1911 0.950 . S
H1904 C1909 0.950 . S
H1905 C1910 0.949 . S
H1906 C1912 0.950 . S
H1907 C1913 0.950 . S
H1908 C1914 0.949 . S
C1909 H1904 0.950 . S
C1909 C1911 1.327 . S
C1909 C1915 1.429 . S
C1910 C1902 1.574 . S
C1910 H1905 0.949 . S
C1910 C1916 1.368 . S
C1911 C1895 1.349 . S
C1911 H1903 0.950 . S
C1911 C1909 1.327 . S
C1912 C1900 1.349 . S
C1912 H1906 0.950 . S
C1912 C1913 1.327 . S
C1913 H1907 0.950 . S
C1913 C1912 1.327 . S
C1913 C1917 1.429 . S
C1914 C1897 1.574 . S
C1914 H1908 0.949 . S
C1914 C1918 1.368 . S
C1915 C1896 1.429 . S
C1915 C1909 1.429 . S
C1915 C1916 1.523 . S
C1916 C1897 1.368 . S
C1916 C1910 1.368 . S
C1916 C1915 1.523 . S
C1917 C1901 1.429 . S
C1917 C1913 1.429 . S
C1917 C1918 1.523 . S
C1918 C1902 1.368 . S
C1918 C1914 1.368 . S
C1918 C1917 1.523 . S
H1919 C1894 0.950 . S
H1920 C1896 0.950 . S
H1921 C1897 0.949 . S
H1922 C1899 0.950 . S
H1923 C1901 0.950 . S
C1924 C1925 1.349 . S
C1924 C1926 1.327 . S
C1924 H1949 0.950 . S
C1925 C1924 1.349 . S
C1925 C1941 1.349 . S
C1926 C1924 1.327 . S
C1926 C1945 1.429 . S
C1926 H1950 0.950 . S
C1927 C1944 1.574 . S
C1927 C1946 1.368 . S
C1927 H1951 0.949 . S
H1928 C1932 0.949 . S
C1929 C1930 1.349 . S
C1929 C1931 1.327 . S
C1929 H1952 0.950 . S
C1930 C1929 1.349 . S
C1930 C1942 1.349 . S
C1931 C1929 1.327 . S
C1931 C1947 1.429 . S
C1931 H1953 0.950 . S
C1932 H1928 0.949 . S
C1932 C1940 1.574 . S
C1932 C1948 1.368 . S
H1933 C1941 0.950 . S
H1934 C1939 0.950 . S
H1935 C1940 0.949 . S
H1936 C1942 0.950 . S
H1937 C1943 0.950 . S
H1938 C1944 0.949 . S
C1939 H1934 0.950 . S
C1939 C1941 1.327 . S
C1939 C1945 1.429 . S
C1940 C1932 1.574 . S
C1940 H1935 0.949 . S
C1940 C1946 1.368 . S
C1941 C1925 1.349 . S
C1941 H1933 0.950 . S
C1941 C1939 1.327 . S
C1942 C1930 1.349 . S
C1942 H1936 0.950 . S
C1942 C1943 1.327 . S
C1943 H1937 0.950 . S
C1943 C1942 1.327 . S
C1943 C1947 1.429 . S
C1944 C1927 1.574 . S
C1944 H1938 0.949 . S
C1944 C1948 1.368 . S
C1945 C1926 1.429 . S
C1945 C1939 1.429 . S
C1945 C1946 1.523 . S
C1946 C1927 1.368 . S
C1946 C1940 1.368 . S
C1946 C1945 1.523 . S
C1947 C1931 1.429 . S
C1947 C1943 1.429 . S
C1947 C1948 1.523 . S
C1948 C1932 1.368 . S
C1948 C1944 1.368 . S
C1948 C1947 1.523 . S
H1949 C1924 0.950 . S
H1950 C1926 0.950 . S
H1951 C1927 0.949 . S
H1952 C1929 0.950 . S
H1953 C1931 0.950 . S
C520 C288 0.676 . S
C515 N18 0.692 . S
C550 N264 1.599 . S
C545 C61 1.663 . S
C580 C296 0.436 . S
C575 N82 0.503 . S
C605 C100 1.421 . S
C610 C295 1.325 . S
C635 C130 1.758 . S
C640 N259 1.704 . S
C670 C283 0.717 . S
C665 N173 0.724 . S
C695 C198 1.565 . S
C700 C269 1.458 . S
C725 N242 0.515 . S
C730 C289 0.457 . S
C760 C312 1.451 . S
C755 C6 1.574 . S
C785 N50 0.474 . S
C790 C375 0.416 . S
C820 N302 1.631 . S
C815 C68 1.658 . S
C850 C369 0.410 . S
C845 N109 0.500 . S
C875 C134 1.860 . S
C880 C339 1.837 . S
C910 C381 1.477 . S
C905 C162 1.600 . S
C935 C194 1.946 . S
C940 C331 1.934 . S
C965 C228 1.672 . S
C970 N350 1.644 . S
C995 C2 1.772 . S
C1000 N345 1.728 . S
C1025 N141 0.707 . S
C1030 C374 0.694 . S
C1060 N307 1.744 . S
C1055 C166 1.789 . S
C1090 C382 0.565 . S
C1085 N210 0.627 . S
C1115 C253 1.435 . S
C1120 C338 1.324 . S
C1145 C93 1.407 . S
C1150 C355 1.296 . S
C1180 C332 1.754 . S
C1175 C125 1.765 . S
C1205 C36 1.885 . S
C1210 C326 1.867 . S
C1235 N237 0.692 . S
C1240 C417 0.676 . S
C1265 C157 1.663 . S
C1270 N393 1.599 . S
C1300 C425 0.436 . S
C1295 N178 0.503 . S
C1330 C424 1.325 . S
C1325 C196 1.421 . S
C1355 C34 1.758 . S
C1360 N388 1.704 . S
C1390 C412 0.717 . S
C1385 N77 0.724 . S
C1415 C102 1.565 . S
C1420 C398 1.458 . S
C1445 N13 0.515 . S
C1450 C418 0.457 . S
C1475 C226 1.574 . S
C1480 C441 1.451 . S
C1510 C504 0.416 . S
C1505 N146 0.474 . S
C1535 C164 1.658 . S
C1540 N431 1.631 . S
C1565 N205 0.500 . S
C1570 C498 0.410 . S
C1600 C468 1.837 . S
C1595 C38 1.860 . S
C1625 C66 1.599 . S
C1630 C510 1.476 . S
C1660 C460 1.934 . S
C1655 C98 1.946 . S
C1690 N479 1.644 . S
C1685 C29 1.672 . S
C1720 N474 1.728 . S
C1715 C230 1.772 . S
C1745 N45 0.707 . S
C1750 C503 0.694 . S
C1775 C70 1.789 . S
C1780 N436 1.744 . S
C1810 C511 0.565 . S
C1805 N114 0.626 . S
C1835 C4 1.435 . S
C1840 C467 1.323 . S
C1865 C189 1.407 . S
C1870 C484 1.296 . S
C1900 C461 1.754 . S
C1895 C221 1.765 . S
C1930 C455 1.867 . S
C1925 C132 1.885 . S
