# Generated by pormake.
# Topology csq, (4,8)-cn, num edge types: 1
# Building blocks:
#     Node 0, Type 0, BuildingBlock: KOZSID_clean_sbu_0, # of connection points: 4
#     Node 1, Type 0, BuildingBlock: KOZSID_clean_sbu_0, # of connection points: 4
#     Node 2, Type 0, BuildingBlock: KOZSID_clean_sbu_0, # of connection points: 4
#     Node 3, Type 0, BuildingBlock: KOZSID_clean_sbu_0, # of connection points: 4
#     Node 4, Type 0, BuildingBlock: KOZSID_clean_sbu_0, # of connection points: 4
#     Node 5, Type 0, BuildingBlock: KOZSID_clean_sbu_0, # of connection points: 4
#     Node 6, Type 1, BuildingBlock: TAGTUT_clean_sbu_3, # of connection points: 8
#     Node 7, Type 1, BuildingBlock: TAGTUT_clean_sbu_3, # of connection points: 8
#     Node 8, Type 1, BuildingBlock: TAGTUT_clean_sbu_3, # of connection points: 8
#     Edge 9, Type (0, 1), BuildingBlock: KIFKEQ_clean_linker_1, # of connection points: 2
#     Edge 10, Type (0, 1), BuildingBlock: KIFKEQ_clean_linker_1, # of connection points: 2
#     Edge 11, Type (0, 1), BuildingBlock: KIFKEQ_clean_linker_1, # of connection points: 2
#     Edge 12, Type (0, 1), BuildingBlock: KIFKEQ_clean_linker_1, # of connection points: 2
#     Edge 13, Type (0, 1), BuildingBlock: KIFKEQ_clean_linker_1, # of connection points: 2
#     Edge 14, Type (0, 1), BuildingBlock: KIFKEQ_clean_linker_1, # of connection points: 2
#     Edge 15, Type (0, 1), BuildingBlock: KIFKEQ_clean_linker_1, # of connection points: 2
#     Edge 16, Type (0, 1), BuildingBlock: KIFKEQ_clean_linker_1, # of connection points: 2
#     Edge 17, Type (0, 1), BuildingBlock: KIFKEQ_clean_linker_1, # of connection points: 2
#     Edge 18, Type (0, 1), BuildingBlock: KIFKEQ_clean_linker_1, # of connection points: 2
#     Edge 19, Type (0, 1), BuildingBlock: KIFKEQ_clean_linker_1, # of connection points: 2
#     Edge 20, Type (0, 1), BuildingBlock: KIFKEQ_clean_linker_1, # of connection points: 2
#     Edge 21, Type (0, 1), BuildingBlock: KIFKEQ_clean_linker_1, # of connection points: 2
#     Edge 22, Type (0, 1), BuildingBlock: KIFKEQ_clean_linker_1, # of connection points: 2
#     Edge 23, Type (0, 1), BuildingBlock: KIFKEQ_clean_linker_1, # of connection points: 2
#     Edge 24, Type (0, 1), BuildingBlock: KIFKEQ_clean_linker_1, # of connection points: 2
#     Edge 25, Type (0, 1), BuildingBlock: KIFKEQ_clean_linker_1, # of connection points: 2
#     Edge 26, Type (0, 1), BuildingBlock: KIFKEQ_clean_linker_1, # of connection points: 2
#     Edge 27, Type (0, 1), BuildingBlock: KIFKEQ_clean_linker_1, # of connection points: 2
#     Edge 28, Type (0, 1), BuildingBlock: KIFKEQ_clean_linker_1, # of connection points: 2
#     Edge 29, Type (0, 1), BuildingBlock: KIFKEQ_clean_linker_1, # of connection points: 2
#     Edge 30, Type (0, 1), BuildingBlock: KIFKEQ_clean_linker_1, # of connection points: 2
#     Edge 31, Type (0, 1), BuildingBlock: KIFKEQ_clean_linker_1, # of connection points: 2
#     Edge 32, Type (0, 1), BuildingBlock: KIFKEQ_clean_linker_1, # of connection points: 2
# Relax obj value: 0.031
# Max RMSD: 0.125
# Mean RMSD: 0.043
data_MOF--net-csq--node1-KOZSID_clean_sbu_0--node2-TAGTUT_clean_sbu_3--edge1-KIFKEQ_clean_linker_1
_symmetry_space_group_name_H-M    P1
_symmetry_Int_Tables_number       1
_symmetry_cell_setting            triclinic
loop_
_symmetry_equiv_pos_as_xyz
'x, y, z'
_cell_length_a     57.923884
_cell_length_b     57.218039
_cell_length_c     20.637121
_cell_angle_alpha  87.812598
_cell_angle_beta   97.136533
_cell_angle_gamma 119.92196
loop_
_atom_site_label
_atom_site_type_symbol
_atom_site_fract_x
_atom_site_fract_y
_atom_site_fract_z
_atom_type_partial_charge
C0 C 0.29419 0.52587 0.28462 0.0
C1 C 0.31121 0.55359 0.29089 0.0
C2 C 0.3077 0.56416 0.2324 0.0
C3 C 0.28868 0.54242 0.19398 0.0
N4 N 0.27949 0.51882 0.22505 0.0
Co5 Co 0.25208 0.48267 0.18691 0.0
N6 N 0.2413 0.49886 0.11066 0.0
C7 C 0.25511 0.5244 0.09101 0.0
C8 C 0.24165 0.52982 0.03847 0.0
C9 C 0.21788 0.50622 0.02432 0.0
C10 C 0.21832 0.48763 0.06897 0.0
N11 N 0.22506 0.4467 0.14801 0.0
C12 C 0.2039 0.44002 0.10209 0.0
C13 C 0.18981 0.41252 0.08785 0.0
C14 C 0.20267 0.40159 0.12709 0.0
C15 C 0.2238 0.42302 0.1626 0.0
N16 N 0.26239 0.46619 0.26352 0.0
C17 C 0.25574 0.44003 0.26812 0.0
C18 C 0.26544 0.43424 0.32663 0.0
C19 C 0.27969 0.45832 0.36056 0.0
C20 C 0.27809 0.47775 0.3205 0.0
N21 N 0.22489 0.48335 0.23428 0.0
C22 C 0.18621 0.48449 0.30297 0.0
C23 C 0.18847 0.46122 0.3004 0.0
C24 C 0.20781 0.46107 0.26601 0.0
C25 C 0.20377 0.50711 0.26982 0.0
C26 C 0.2228 0.50611 0.23589 0.0
N27 N 0.27928 0.48203 0.13931 0.0
C28 C 0.32336 0.48736 0.13997 0.0
C29 C 0.31897 0.4824 0.07255 0.0
C30 C 0.29415 0.47699 0.03902 0.0
C31 C 0.27446 0.4765 0.0734 0.0
C32 C 0.30348 0.48728 0.17201 0.0
H33 H 0.25533 0.47162 0.04656 0.0
H34 H 0.30781 0.49144 0.22343 0.0
H35 H 0.20897 0.44287 0.26536 0.0
H36 H 0.23578 0.52384 0.21079 0.0
C37 C 0.27734 0.54372 0.13104 0.0
C38 C 0.29644 0.507 0.3315 0.0
C39 C 0.19718 0.45938 0.07036 0.0
C40 C 0.2388 0.4211 0.21867 0.0
H41 H 0.3256 0.56476 0.33246 0.0
H42 H 0.31783 0.58517 0.21946 0.0
H43 H 0.24761 0.54905 0.01572 0.0
H44 H 0.202 0.50334 0.98628 0.0
H45 H 0.17196 0.40155 0.05342 0.0
H46 H 0.19643 0.38041 0.13182 0.0
H47 H 0.26263 0.41485 0.34267 0.0
H48 H 0.29096 0.46109 0.40813 0.0
H49 H 0.17568 0.44327 0.3257 0.0
H50 H 0.20266 0.52546 0.26927 0.0
H51 H 0.34227 0.49171 0.16781 0.0
H52 H 0.28983 0.47271 0.98686 0.0
C53 C 0.81759 0.27164 0.02969 0.0
C54 C 0.83761 0.26928 0.00505 0.0
C55 C 0.83538 0.24545 0.0262 0.0
C56 C 0.81427 0.23463 0.06249 0.0
N57 N 0.80282 0.25013 0.06594 0.0
Co58 Co 0.77151 0.24191 0.11386 0.0
N59 N 0.7675 0.20624 0.14244 0.0
C60 C 0.78342 0.19613 0.13132 0.0
C61 C 0.77492 0.17065 0.15412 0.0
C62 C 0.75197 0.16386 0.18048 0.0
C63 C 0.74779 0.18571 0.17235 0.0
N64 N 0.73997 0.23348 0.1609 0.0
C65 C 0.72276 0.21029 0.18848 0.0
C66 C 0.70268 0.2125 0.2131 0.0
C67 C 0.70697 0.23778 0.19933 0.0
C68 C 0.72936 0.24952 0.16735 0.0
N69 N 0.77551 0.27756 0.08528 0.0
C70 C 0.76072 0.28843 0.10038 0.0
C71 C 0.76811 0.31319 0.07406 0.0
C72 C 0.78891 0.31853 0.04014 0.0
C73 C 0.79307 0.29665 0.04785 0.0
N74 N 0.74661 0.22404 0.03439 0.0
C75 C 0.7061 0.19099 0.93676 0.0
C76 C 0.70443 0.21113 0.96842 0.0
C77 C 0.72505 0.22764 0.0163 0.0
C78 C 0.72927 0.18908 0.95117 0.0
C79 C 0.74917 0.20577 0.99959 0.0
N80 N 0.79654 0.25977 0.19422 0.0
C81 C 0.81257 0.29206 0.28424 0.0
C82 C 0.83557 0.28992 0.29825 0.0
C83 C 0.83803 0.27132 0.26248 0.0
C84 C 0.81821 0.25626 0.21174 0.0
C85 C 0.79346 0.27695 0.23219 0.0
H86 H 0.82138 0.24251 0.18654 0.0
H87 H 0.77687 0.28021 0.22262 0.0
H88 H 0.72271 0.24251 0.03967 0.0
H89 H 0.76589 0.20268 0.00996 0.0
C90 C 0.80461 0.20992 0.0937 0.0
C91 C 0.81384 0.29495 0.01824 0.0
C92 C 0.72409 0.18546 0.19059 0.0
C93 C 0.73965 0.27468 0.13829 0.0
H94 H 0.85239 0.28341 0.97511 0.0
H95 H 0.84771 0.23701 0.01632 0.0
H96 H 0.78374 0.15807 0.14964 0.0
H97 H 0.73931 0.14467 0.20149 0.0
H98 H 0.68625 0.19719 0.23716 0.0
H99 H 0.69469 0.24625 0.20941 0.0
H100 H 0.75932 0.32578 0.07868 0.0
H101 H 0.79976 0.33647 0.01263 0.0
H102 H 0.68706 0.21369 0.95747 0.0
H103 H 0.73146 0.17377 0.92784 0.0
H104 H 0.81002 0.3064 0.31098 0.0
H105 H 0.85553 0.26891 0.27252 0.0
C106 C 0.55102 0.73876 0.13334 0.0
C107 C 0.57489 0.74116 0.16388 0.0
C108 C 0.59515 0.76152 0.13388 0.0
C109 C 0.58262 0.7704 0.08682 0.0
N110 N 0.55575 0.75711 0.0857 0.0
Co111 Co 0.53018 0.76329 0.02379 0.0
N112 N 0.55918 0.79901 0.99923 0.0
C113 C 0.58568 0.80774 0.00987 0.0
C114 C 0.60102 0.83293 0.98609 0.0
C115 C 0.58306 0.84042 0.95803 0.0
C116 C 0.55766 0.81926 0.96612 0.0
N117 N 0.50456 0.76933 0.9618 0.0
C118 C 0.50761 0.79216 0.93247 0.0
C119 C 0.48468 0.78708 0.89115 0.0
C120 C 0.4668 0.7601 0.8943 0.0
C121 C 0.47974 0.75023 0.93717 0.0
N122 N 0.50119 0.72746 0.04782 0.0
C123 C 0.47668 0.713 0.01396 0.0
C124 C 0.46081 0.68894 0.04192 0.0
C125 C 0.47636 0.68802 0.09651 0.0
C126 C 0.50101 0.71162 0.09863 0.0
N127 N 0.5241 0.78045 0.09437 0.0
C128 C 0.51605 0.80429 0.19839 0.0
C129 C 0.49423 0.78592 0.1552 0.0
C130 C 0.49869 0.7741 0.10367 0.0
C131 C 0.54191 0.81051 0.18829 0.0
C132 C 0.54551 0.79854 0.1359 0.0
N133 N 0.53661 0.74622 0.95347 0.0
C134 C 0.54708 0.74633 0.84404 0.0
C135 C 0.55044 0.72408 0.85777 0.0
C136 C 0.54594 0.71256 0.91906 0.0
C137 C 0.53876 0.72372 0.96589 0.0
C138 C 0.54036 0.75729 0.89296 0.0
H139 H 0.53538 0.71432 0.01256 0.0
H140 H 0.5386 0.77493 0.88198 0.0
H141 H 0.4816 0.75983 0.07142 0.0
H142 H 0.56569 0.80399 0.12903 0.0
C143 C 0.59538 0.79329 0.04931 0.0
C144 C 0.52434 0.71704 0.14614 0.0
C145 C 0.53265 0.81818 0.93726 0.0
C146 C 0.46809 0.72428 0.96195 0.0
H147 H 0.57735 0.72913 0.20294 0.0
H148 H 0.61649 0.7693 0.14602 0.0
H149 H 0.6227 0.84472 0.98999 0.0
H150 H 0.58805 0.85914 0.93357 0.0
H151 H 0.4814 0.80129 0.86094 0.0
H152 H 0.44657 0.74913 0.86944 0.0
H153 H 0.44015 0.67418 0.02566 0.0
H154 H 0.47033 0.67168 0.13042 0.0
H155 H 0.47391 0.78065 0.16138 0.0
H156 H 0.55936 0.82504 0.21974 0.0
H157 H 0.55008 0.75541 0.79656 0.0
H158 H 0.54781 0.69488 0.93053 0.0
C159 C 0.83291 0.56785 0.15148 0.0
C160 C 0.85326 0.59434 0.16415 0.0
C161 C 0.84544 0.61017 0.12775 0.0
C162 C 0.82092 0.59254 0.09488 0.0
N163 N 0.8123 0.56642 0.10937 0.0
Co164 Co 0.7789 0.53388 0.06896 0.0
N165 N 0.77015 0.55657 0.0056 0.0
C166 C 0.78503 0.58353 0.99856 0.0
C167 C 0.77364 0.59344 0.95133 0.0
C168 C 0.74981 0.57161 0.9277 0.0
C169 C 0.74794 0.5496 0.96248 0.0
N170 N 0.74516 0.50137 0.0295 0.0
C171 C 0.72484 0.49983 0.98584 0.0
C172 C 0.70383 0.47344 0.97617 0.0
C173 C 0.711 0.45782 0.01538 0.0
C174 C 0.73575 0.47544 0.04707 0.0
N175 N 0.78804 0.51112 0.13118 0.0
C176 C 0.77361 0.48409 0.13733 0.0
C177 C 0.78605 0.47399 0.18095 0.0
C178 C 0.81026 0.49577 0.20251 0.0
C179 C 0.81113 0.5179 0.17042 0.0
N180 N 0.75793 0.53818 0.13239 0.0
C181 C 0.72441 0.54326 0.21255 0.0
C182 C 0.72421 0.51887 0.20688 0.0
C183 C 0.741 0.51681 0.16704 0.0
C184 C 0.74249 0.56531 0.17943 0.0
C185 C 0.75894 0.56238 0.14026 0.0
N186 N 0.80001 0.52971 0.00599 0.0
C187 C 0.81384 0.50225 0.95376 0.0
C188 C 0.83538 0.5252 0.93109 0.0
C189 C 0.83812 0.55027 0.94482 0.0
C190 C 0.82019 0.55199 0.98086 0.0
C191 C 0.79657 0.50495 0.99089 0.0
H192 H 0.82359 0.57173 0.98928 0.0
H193 H 0.78088 0.48679 0.00787 0.0
H194 H 0.73956 0.49759 0.16419 0.0
H195 H 0.77183 0.57989 0.11565 0.0
C196 C 0.80796 0.59935 0.04211 0.0
C197 C 0.835 0.54454 0.17504 0.0
C198 C 0.72388 0.52297 0.95622 0.0
C199 C 0.74964 0.46854 0.09708 0.0
H200 H 0.87239 0.60147 0.19385 0.0
H201 H 0.85711 0.63177 0.12232 0.0
H202 H 0.78117 0.61424 0.93779 0.0
H203 H 0.73499 0.572 0.89083 0.0
H204 H 0.68484 0.4662 0.94582 0.0
H205 H 0.69907 0.43633 0.0221 0.0
H206 H 0.77892 0.45312 0.19323 0.0
H207 H 0.82595 0.49529 0.23602 0.0
H208 H 0.71096 0.50129 0.23261 0.0
H209 H 0.74335 0.58462 0.18169 0.0
H210 H 0.81027 0.48225 0.94327 0.0
H211 H 0.8545 0.56883 0.92953 0.0
C212 C 0.27231 0.82644 0.1687 0.0
C213 C 0.27092 0.84872 0.18753 0.0
C214 C 0.24564 0.84383 0.16582 0.0
C215 C 0.23316 0.81913 0.13438 0.0
N216 N 0.24882 0.80775 0.13524 0.0
Co217 Co 0.23953 0.77344 0.08861 0.0
N218 N 0.20264 0.7667 0.05476 0.0
C219 C 0.19138 0.78128 0.06975 0.0
C220 C 0.16566 0.77164 0.04005 0.0
C221 C 0.16007 0.74948 0.00425 0.0
C222 C 0.18278 0.74681 0.0143 0.0
N223 N 0.23102 0.74013 0.03862 0.0
C224 C 0.20893 0.72329 0.99779 0.0
C225 C 0.21156 0.70258 0.97293 0.0
C226 C 0.23624 0.70676 0.99793 0.0
C227 C 0.24724 0.72954 0.0367 0.0
N228 N 0.27586 0.77935 0.12511 0.0
C229 C 0.28553 0.76253 0.11845 0.0
C230 C 0.31054 0.77114 0.15148 0.0
C231 C 0.31738 0.795 0.18095 0.0
C232 C 0.29613 0.79972 0.16345 0.0
N233 N 0.22454 0.75196 0.16641 0.0
C234 C 0.2004 0.72048 0.27308 0.0
C235 C 0.21329 0.71271 0.23286 0.0
C236 C 0.22525 0.72868 0.18046 0.0
C237 C 0.20069 0.74475 0.26021 0.0
C238 C 0.21259 0.7599 0.2072 0.0
N239 N 0.25438 0.79509 0.01172 0.0
C240 C 0.28899 0.81426 0.93992 0.0
C241 C 0.28077 0.83265 0.91731 0.0
C242 C 0.25792 0.83045 0.93887 0.0
C243 C 0.24504 0.8116 0.98537 0.0
C244 C 0.27546 0.79561 0.9867 0.0
H245 H 0.22811 0.81145 1.00074 0.0
H246 H 0.28289 0.78242 0.00365 0.0
H247 H 0.23458 0.72151 0.15162 0.0
H248 H 0.21151 0.77782 0.20016 0.0
C249 C 0.20654 0.80565 0.1053 0.0
C250 C 0.29638 0.82402 0.18351 0.0
C251 C 0.1847 0.72541 0.98317 0.0
C252 C 0.27182 0.74023 0.07584 0.0
H253 H 0.28657 0.86675 0.21394 0.0
H254 H 0.23739 0.8568 0.17197 0.0
H255 H 0.15283 0.78023 0.04242 0.0
H256 H 0.14153 0.73698 0.97329 0.0
H257 H 0.19703 0.68579 0.94103 0.0
H258 H 0.2449 0.6943 0.99 0.0
H259 H 0.32264 0.76154 0.15266 0.0
H260 H 0.33607 0.80764 0.21121 0.0
H261 H 0.21354 0.694 0.24042 0.0
H262 H 0.19159 0.75208 0.29069 0.0
H263 H 0.30652 0.81509 0.92411 0.0
H264 H 0.25039 0.84378 0.9213 0.0
C265 C 0.5069 0.2223 0.25923 0.0
C266 C 0.53131 0.22895 0.29548 0.0
C267 C 0.54993 0.25292 0.27299 0.0
C268 C 0.53587 0.25953 0.22466 0.0
N269 N 0.5093 0.24141 0.21537 0.0
Co270 Co 0.48153 0.24283 0.14937 0.0
N271 N 0.50926 0.27715 0.11306 0.0
C272 C 0.53594 0.29087 0.13344 0.0
C273 C 0.55003 0.31336 0.09833 0.0
C274 C 0.53127 0.31421 0.05293 0.0
C275 C 0.50665 0.29219 0.06333 0.0
N276 N 0.45378 0.24418 0.08298 0.0
C277 C 0.45634 0.2625 0.03649 0.0
C278 C 0.43173 0.25601 0.00147 0.0
C279 C 0.41301 0.23271 0.02628 0.0
C280 C 0.42711 0.22637 0.07504 0.0
N281 N 0.4538 0.20854 0.18591 0.0
C282 C 0.42706 0.19513 0.16663 0.0
C283 C 0.41321 0.1719 0.19958 0.0
C284 C 0.43225 0.17016 0.24214 0.0
C285 C 0.45671 0.1926 0.23274 0.0
N286 N 0.47565 0.26421 0.21264 0.0
C287 C 0.46758 0.29514 0.30151 0.0
C288 C 0.44587 0.27264 0.26791 0.0
C289 C 0.45031 0.25772 0.22391 0.0
C290 C 0.49339 0.30162 0.29016 0.0
C291 C 0.49691 0.28599 0.24636 0.0
N292 N 0.48744 0.22146 0.08645 0.0
C293 C 0.47004 0.18299 0.01249 0.0
C294 C 0.49592 0.19016 1.00048 0.0
C295 C 0.51746 0.2134 0.03134 0.0
C296 C 0.51283 0.22848 0.07435 0.0
C297 C 0.46626 0.19897 0.05471 0.0
H298 H 0.53015 0.24554 0.09775 0.0
H299 H 0.44604 0.19265 0.06125 0.0
H300 H 0.43288 0.24114 0.1994 0.0
H301 H 0.51709 0.2922 0.24016 0.0
C302 C 0.54722 0.28194 0.1853 0.0
C303 C 0.48226 0.19711 0.26682 0.0
C304 C 0.4814 0.28667 0.02496 0.0
C305 C 0.41578 0.20413 0.11495 0.0
H306 H 0.53527 0.2174 0.33351 0.0
H307 H 0.57127 0.26394 0.28903 0.0
H308 H 0.57141 0.3274 0.10482 0.0
H309 H 0.53531 0.32938 0.01628 0.0
H310 H 0.42763 0.26708 0.96243 0.0
H311 H 0.3916 0.22184 0.01104 0.0
H312 H 0.3919 0.15757 0.19235 0.0
H313 H 0.42855 0.15389 0.27531 0.0
H314 H 0.42544 0.2665 0.27526 0.0
H315 H 0.51097 0.31914 0.31359 0.0
H316 H 0.45276 0.16518 0.98904 0.0
H317 H 0.53787 0.21952 0.02371 0.0
C318 C 0.05128 0.48186 0.58091 0.0
C319 C 0.03502 0.44463 0.82144 0.0
C320 C 0.95834 0.43934 0.77643 0.0
Mg321 Mg 0.02604 0.51501 0.49752 0.0
Mg322 Mg 0.01332 0.5563 0.57352 0.0
O323 O 0.00679 0.521 0.56419 0.0
Mg324 Mg 0.0154 0.50357 0.64172 0.0
O325 O 0.02363 0.4836 0.71418 0.0
Mg326 Mg 0.00363 0.44588 0.67477 0.0
Mg327 Mg 0.01527 0.48632 0.79735 0.0
C328 C 0.97852 0.52727 0.6903 0.0
O329 O 0.0457 0.54357 0.70056 0.0
O330 O 0.00241 0.52952 0.42078 0.0
O331 O 0.03703 0.53007 0.80358 0.0
O332 O 0.06163 0.55839 0.50972 0.0
O333 O 0.99534 0.55773 0.47787 0.0
O334 O 0.05567 0.58445 0.57526 0.0
O335 O 0.98517 0.46271 0.59376 0.0
O336 O 0.99147 0.47134 0.48888 0.0
C337 C 0.97983 0.45514 0.53377 0.0
C338 C 0.993 0.54558 0.42456 0.0
O339 O 0.98389 0.50793 0.69167 0.0
O340 O 0.02569 0.4351 0.76258 0.0
O341 O 0.98944 0.5479 0.65405 0.0
O342 O 0.96703 0.43113 0.73351 0.0
O343 O 0.03303 0.46403 0.84403 0.0
O344 O 0.97285 0.46271 0.80349 0.0
O345 O 0.04604 0.5011 0.58383 0.0
O346 O 0.03915 0.46045 0.61372 0.0
C347 C 0.07028 0.58084 0.53993 0.0
C348 C 0.04866 0.54857 0.7625 0.0
C349 C 0.49778 0.04116 0.46219 0.0
C350 C 0.57476 0.02798 0.39212 0.0
C351 C 0.52777 0.94697 0.47116 0.0
Mg352 Mg 0.46242 0.01571 0.58265 0.0
Mg353 Mg 0.48634 0.99744 0.71426 0.0
O354 O 0.47723 0.99262 0.62363 0.0
Mg355 Mg 0.50612 0.00125 0.56801 0.0
O356 O 0.53358 0.01082 0.5075 0.0
Mg357 Mg 0.50975 0.99373 0.42429 0.0
Mg358 Mg 0.56188 0.00369 0.52986 0.0
C359 C 0.51419 0.96358 0.68604 0.0
O360 O 0.54045 0.03028 0.64252 0.0
O361 O 0.42766 0.99208 0.64764 0.0
O362 O 0.57485 0.0241 0.62535 0.0
O363 O 0.48474 0.05012 0.66219 0.0
O364 O 0.44609 0.98035 0.73659 0.0
O365 O 0.50663 0.0391 0.74245 0.0
O366 O 0.47382 0.97294 0.48689 0.0
O367 O 0.44209 0.98271 0.50359 0.0
C368 C 0.45021 0.96986 0.47205 0.0
C369 C 0.42602 0.9805 0.703 0.0
O370 O 0.51293 0.96774 0.62392 0.0
O371 O 0.54945 0.01816 0.37346 0.0
O372 O 0.50721 0.97476 0.7264 0.0
O373 O 0.5151 0.95659 0.43513 0.0
O374 O 0.58363 0.02447 0.44956 0.0
O375 O 0.54636 0.96108 0.5165 0.0
O376 O 0.49842 0.03458 0.52225 0.0
O377 O 0.50287 0.02962 0.41859 0.0
C378 C 0.50044 0.05598 0.71579 0.0
C379 C 0.56449 0.03462 0.65763 0.0
C380 C 0.53437 0.56344 0.69756 0.0
C381 C 0.45629 0.4828 0.81617 0.0
C382 C 0.48691 0.43561 0.74101 0.0
Mg383 Mg 0.55963 0.56155 0.56815 0.0
Mg384 Mg 0.52103 0.51737 0.45115 0.0
O385 O 0.53557 0.52267 0.53929 0.0
Mg386 Mg 0.5109 0.50898 0.60902 0.0
O387 O 0.48847 0.49761 0.68292 0.0
Mg388 Mg 0.516 0.50394 0.75921 0.0
Mg389 Mg 0.45751 0.4634 0.67756 0.0
C390 C 0.48794 0.4578 0.50538 0.0
O391 O 0.47438 0.5073 0.5463 0.0
O392 O 0.58701 0.56302 0.49111 0.0
O393 O 0.44008 0.47017 0.58426 0.0
O394 O 0.53892 0.57803 0.4908 0.0
O395 O 0.5588 0.53137 0.41438 0.0
O396 O 0.50777 0.5459 0.42143 0.0
O397 O 0.54463 0.50942 0.68156 0.0
O398 O 0.57965 0.5459 0.6471 0.0
C399 C 0.56987 0.52628 0.68618 0.0
C400 C 0.58246 0.54957 0.43777 0.0
O401 O 0.49438 0.46585 0.56587 0.0
O402 O 0.48217 0.49715 0.82436 0.0
O403 O 0.49387 0.47418 0.45766 0.0
O404 O 0.5034 0.45891 0.76694 0.0
O405 O 0.44322 0.46831 0.76444 0.0
O406 O 0.46803 0.43226 0.69655 0.0
O407 O 0.52875 0.55276 0.64051 0.0
O408 O 0.52975 0.54904 0.7486 0.0
C409 C 0.52043 0.57037 0.44241 0.0
C410 C 0.44923 0.48983 0.54457 0.0
H411 H 0.13448 0.44419 0.31299 0.0
H412 H 0.19144 0.52632 0.37729 0.0
H413 H 0.10189 0.44453 0.37638 0.0
H414 H 0.15871 0.52666 0.44071 0.0
H415 H 0.08382 0.5242 0.50634 0.0
H416 H 0.11574 0.52566 0.43634 0.0
H417 H 0.0951 0.44431 0.48872 0.0
H418 H 0.06323 0.44269 0.55711 0.0
C419 C 0.14019 0.4623 0.34095 0.0
C420 C 0.16582 0.48514 0.34016 0.0
C421 C 0.12141 0.46251 0.37738 0.0
C422 C 0.12762 0.48556 0.41432 0.0
C423 C 0.15303 0.50863 0.41243 0.0
C424 C 0.17186 0.50841 0.37596 0.0
C425 C 0.08604 0.50661 0.50266 0.0
C426 C 0.07079 0.48333 0.53752 0.0
C427 C 0.10447 0.50749 0.46276 0.0
C428 C 0.108 0.48503 0.45635 0.0
C429 C 0.0927 0.46184 0.49126 0.0
C430 C 0.07445 0.461 0.5311 0.0
H431 H 0.67499 0.15144 0.12481 0.0
H432 H 0.72327 0.16367 0.31023 0.0
H433 H 0.63804 0.11061 0.16494 0.0
H434 H 0.68645 0.12351 0.35151 0.0
H435 H 0.62667 0.03973 0.39667 0.0
H436 H 0.66219 0.07573 0.34224 0.0
H437 H 0.60487 0.09571 0.23966 0.0
H438 H 0.56903 0.05894 0.29302 0.0
C439 C 0.67759 0.14524 0.17418 0.0
C440 C 0.70189 0.16037 0.21445 0.0
C441 C 0.65645 0.12201 0.19737 0.0
C442 C 0.6592 0.11351 0.26144 0.0
C443 C 0.68369 0.12895 0.30149 0.0
C444 C 0.70477 0.15206 0.27821 0.0
C445 C 0.62151 0.05148 0.36163 0.0
C446 C 0.59499 0.04653 0.34959 0.0
C447 C 0.64198 0.07236 0.33082 0.0
C448 C 0.63664 0.08914 0.28751 0.0
C449 C 0.60981 0.08321 0.27252 0.0
C450 C 0.58919 0.06207 0.30306 0.0
H451 H 0.52282 0.71643 0.2783 0.0
H452 H 0.52134 0.66957 0.11779 0.0
H453 H 0.5185 0.68049 0.35349 0.0
H454 H 0.51745 0.63382 0.19219 0.0
H455 H 0.54409 0.62441 0.47226 0.0
H456 H 0.54351 0.65954 0.40293 0.0
H457 H 0.48702 0.59901 0.25845 0.0
H458 H 0.488 0.56381 0.32729 0.0
C459 C 0.52162 0.6984 0.25937 0.0
C460 C 0.52227 0.69559 0.19251 0.0
C461 C 0.51921 0.67785 0.30225 0.0
C462 C 0.51738 0.65404 0.27901 0.0
C463 C 0.51822 0.65151 0.21183 0.0
C464 C 0.52068 0.67204 0.1692 0.0
C465 C 0.53122 0.61847 0.42611 0.0
C466 C 0.51632 0.59116 0.40524 0.0
C467 C 0.53083 0.63872 0.38632 0.0
C468 C 0.51553 0.63226 0.32446 0.0
C469 C 0.49952 0.60484 0.30511 0.0
C470 C 0.49987 0.58457 0.34496 0.0
H471 H 0.86437 0.56792 0.29106 0.0
H472 H 0.86382 0.52664 0.11999 0.0
H473 H 0.90638 0.57044 0.33832 0.0
H474 H 0.90611 0.52908 0.16703 0.0
H475 H 0.98966 0.59023 0.39318 0.0
H476 H 0.9539 0.59219 0.322 0.0
H477 H 0.92151 0.50917 0.26081 0.0
H478 H 0.95783 0.50741 0.33158 0.0
C479 C 0.8736 0.5598 0.26331 0.0
C480 C 0.8613 0.54746 0.20184 0.0
C481 C 0.89765 0.56129 0.29004 0.0
C482 C 0.90975 0.55021 0.25602 0.0
C483 C 0.8973 0.53778 0.19433 0.0
C484 C 0.87326 0.53647 0.1674 0.0
C485 C 0.97535 0.57263 0.36307 0.0
C486 C 0.9763 0.54856 0.3684 0.0
C487 C 0.95475 0.57369 0.32273 0.0
C488 C 0.9345 0.55063 0.28716 0.0
C489 C 0.93682 0.52726 0.28774 0.0
C490 C 0.95765 0.52626 0.32803 0.0
H491 H 0.30106 0.83911 0.30976 0.0
H492 H 0.34621 0.85634 0.14601 0.0
H493 H 0.34063 0.87474 0.37484 0.0
H494 H 0.38624 0.89175 0.21187 0.0
H495 H 0.45416 0.9316 0.40308 0.0
H496 H 0.41819 0.89571 0.32896 0.0
H497 H 0.36611 0.92757 0.35318 0.0
H498 H 0.40137 0.96313 0.42511 0.0
C499 C 0.31952 0.85057 0.28794 0.0
C500 C 0.32064 0.84542 0.22291 0.0
C501 C 0.34213 0.87078 0.32505 0.0
C502 C 0.36639 0.8859 0.29815 0.0
C503 C 0.36779 0.88021 0.23367 0.0
C504 C 0.34497 0.86021 0.19609 0.0
C505 C 0.43516 0.93111 0.39169 0.0
C506 C 0.43058 0.95002 0.42092 0.0
C507 C 0.41465 0.91064 0.34942 0.0
C508 C 0.38934 0.90875 0.33654 0.0
C509 C 0.38529 0.92834 0.3633 0.0
C510 C 0.40563 0.94875 0.40454 0.0
H511 H 0.49833 0.32205 0.41533 0.0
H512 H 0.42757 0.30817 0.28666 0.0
H513 H 0.49633 0.35673 0.47466 0.0
H514 H 0.42445 0.34141 0.34903 0.0
H515 H 0.46057 0.43282 0.38919 0.0
H516 H 0.44975 0.38874 0.35096 0.0
H517 H 0.47602 0.37214 0.54376 0.0
H518 H 0.48783 0.41721 0.58179 0.0
C519 C 0.48208 0.32605 0.40025 0.0
C520 C 0.46354 0.31271 0.34497 0.0
C521 C 0.48063 0.34565 0.43518 0.0
C522 C 0.46044 0.35223 0.41616 0.0
C523 C 0.44062 0.3373 0.36425 0.0
C524 C 0.44225 0.31794 0.32882 0.0
C525 C 0.46362 0.41964 0.42395 0.0
C526 C 0.4756 0.42877 0.48819 0.0
C527 C 0.45713 0.39411 0.4021 0.0
C528 C 0.4623 0.37686 0.44396 0.0
C529 C 0.47225 0.38511 0.50986 0.0
C530 C 0.47878 0.41083 0.53186 0.0
H531 H 0.54736 0.83249 0.81472 0.0
H532 H 0.51855 0.85425 0.97163 0.0
H533 H 0.54631 0.86871 0.74862 0.0
H534 H 0.51711 0.89014 0.90617 0.0
H535 H 0.5404 0.96749 0.80647 0.0
H536 H 0.5475 0.93345 0.86422 0.0
H537 H 0.51439 0.88201 0.69057 0.0
H538 H 0.50763 0.91676 0.63174 0.0
C539 C 0.54104 0.84527 0.83506 0.0
C540 C 0.53345 0.84104 0.89847 0.0
C541 C 0.5402 0.8658 0.79715 0.0
C542 C 0.53184 0.88255 0.82211 0.0
C543 C 0.52418 0.87805 0.88571 0.0
C544 C 0.52491 0.85749 0.92331 0.0
C545 C 0.53494 0.94908 0.78009 0.0
C546 C 0.52306 0.94469 0.71471 0.0
C547 C 0.53885 0.92944 0.81349 0.0
C548 C 0.53087 0.90464 0.78277 0.0
C549 C 0.52068 0.90086 0.71587 0.0
C550 C 0.51685 0.92076 0.68204 0.0
H551 H 0.69623 0.54555 0.99569 0.0
H552 H 0.69429 0.49476 0.84356 0.0
H553 H 0.65572 0.54411 0.93878 0.0
H554 H 0.65325 0.49254 0.78761 0.0
H555 H 0.56706 0.47994 0.73614 0.0
H556 H 0.60223 0.47643 0.80863 0.0
H557 H 0.64988 0.56328 0.82304 0.0
H558 H 0.61536 0.5668 0.74984 0.0
C559 C 0.68681 0.53375 0.95057 0.0
C560 C 0.69813 0.52013 0.92399 0.0
C561 C 0.6637 0.53287 0.91823 0.0
C562 C 0.6513 0.51802 0.85921 0.0
C563 C 0.6622 0.50376 0.83361 0.0
C564 C 0.68563 0.50507 0.86536 0.0
C565 C 0.58488 0.49821 0.75575 0.0
C566 C 0.58864 0.52364 0.73713 0.0
C567 C 0.60499 0.4962 0.79679 0.0
C568 C 0.62872 0.5196 0.82113 0.0
C569 C 0.63172 0.54495 0.80523 0.0
C570 C 0.61202 0.54694 0.76316 0.0
H571 H 0.17884 0.71285 0.85357 0.0
H572 H 0.13742 0.68852 0.02472 0.0
H573 H 0.14374 0.67147 0.79537 0.0
H574 H 0.10142 0.64806 0.96598 0.0
H575 H 0.06928 0.56324 0.88922 0.0
H576 H 0.09899 0.60777 0.93651 0.0
H577 H 0.09871 0.6423 0.74658 0.0
H578 H 0.0692 0.59693 0.69836 0.0
C579 C 0.16173 0.69893 0.87786 0.0
C580 C 0.16087 0.7035 0.94366 0.0
C581 C 0.14155 0.67531 0.84457 0.0
C582 C 0.11997 0.65605 0.87635 0.0
C583 C 0.11813 0.66198 0.94055 0.0
C584 C 0.13852 0.6853 0.97406 0.0
C585 C 0.07531 0.58023 0.8572 0.0
C586 C 0.06673 0.5764 0.78972 0.0
C587 C 0.09227 0.60597 0.88465 0.0
C588 C 0.10101 0.62885 0.84576 0.0
C589 C 0.09248 0.62515 0.77807 0.0
C590 C 0.07555 0.59915 0.75032 0.0
H591 H 0.47767 0.13643 0.00933 0.0
H592 H 0.52436 0.20538 0.8955 0.0
H593 H 0.4847 0.10771 0.93878 0.0
H594 H 0.53098 0.17641 0.82374 0.0
H595 H 0.49331 0.09841 0.67467 0.0
H596 H 0.49649 0.134 0.74364 0.0
H597 H 0.52685 0.10516 0.91031 0.0
H598 H 0.5242 0.06993 0.84184 0.0
C599 C 0.48939 0.14537 0.96907 0.0
C600 C 0.50042 0.17303 0.9576 0.0
C601 C 0.4936 0.12904 0.92911 0.0
C602 C 0.50852 0.13994 0.87618 0.0
C603 C 0.51946 0.16759 0.86436 0.0
C604 C 0.51572 0.18409 0.90531 0.0
C605 C 0.50132 0.10007 0.72564 0.0
C606 C 0.50806 0.08101 0.7529 0.0
C607 C 0.50317 0.12047 0.76502 0.0
C608 C 0.51148 0.12195 0.83235 0.0
C609 C 0.52004 0.10417 0.85863 0.0
C610 C 0.51861 0.08408 0.81922 0.0
H611 H 0.34033 0.51096 0.9652 0.0
H612 H 0.34593 0.45492 0.1032 0.0
H613 H 0.37656 0.51252 0.91121 0.0
H614 H 0.38164 0.45599 0.0484 0.0
H615 H 0.41357 0.44011 0.86139 0.0
H616 H 0.38181 0.44081 0.928 0.0
H617 H 0.42913 0.52761 0.94464 0.0
H618 H 0.46154 0.52682 0.87928 0.0
C619 C 0.34922 0.49889 0.98368 0.0
C620 C 0.34028 0.48276 0.03822 0.0
C621 C 0.37009 0.49999 0.95328 0.0
C622 C 0.38201 0.48451 0.97592 0.0
C623 C 0.37286 0.46817 0.03004 0.0
C624 C 0.35245 0.46755 0.06131 0.0
C625 C 0.41755 0.45929 0.88067 0.0
C626 C 0.44014 0.48339 0.86576 0.0
C627 C 0.39935 0.45969 0.91862 0.0
C628 C 0.40291 0.48426 0.94111 0.0
C629 C 0.42587 0.5084 0.92763 0.0
C630 C 0.44453 0.50794 0.89094 0.0
H631 H 0.85674 0.34308 0.06292 0.0
H632 H 0.81214 0.29734 0.88568 0.0
H633 H 0.88869 0.37912 0.99933 0.0
H634 H 0.84351 0.33358 0.82113 0.0
H635 H 0.92517 0.38596 0.74174 0.0
H636 H 0.88836 0.35233 0.79709 0.0
H637 H 0.89617 0.41461 0.92486 0.0
H638 H 0.93364 0.44829 0.87046 0.0
C639 C 0.85367 0.34103 0.01012 0.0
C640 C 0.83215 0.31758 0.97896 0.0
C641 C 0.87181 0.36171 0.97351 0.0
C642 C 0.86879 0.35939 0.9048 0.0
C643 C 0.84675 0.33599 0.87384 0.0
C644 C 0.82868 0.3153 0.91058 0.0
C645 C 0.91881 0.39264 0.78091 0.0
C646 C 0.93269 0.4199 0.80196 0.0
C647 C 0.89753 0.37326 0.81268 0.0
C648 C 0.88938 0.38057 0.86625 0.0
C649 C 0.90224 0.40808 0.88483 0.0
C650 C 0.92361 0.42748 0.85315 0.0
H651 H 0.85363 0.48869 0.94448 0.0
H652 H 0.86218 0.55763 0.83342 0.0
H653 H 0.88657 0.48682 0.88544 0.0
H654 H 0.89683 0.55758 0.78022 0.0
H655 H 0.94075 0.54029 0.64653 0.0
H656 H 0.90471 0.53675 0.70175 0.0
H657 H 0.93185 0.50621 0.8718 0.0
H658 H 0.96707 0.50808 0.81343 0.0
C659 C 0.86244 0.50345 0.90757 0.0
C660 C 0.85508 0.52336 0.89415 0.0
C661 C 0.88178 0.50268 0.87443 0.0
C662 C 0.89457 0.52201 0.82763 0.0
C663 C 0.8872 0.54189 0.81461 0.0
C664 C 0.86753 0.54229 0.84646 0.0
C665 C 0.93901 0.53283 0.69578 0.0
C666 C 0.95688 0.52478 0.72607 0.0
C667 C 0.91839 0.53095 0.72787 0.0
C668 C 0.91549 0.52176 0.7922 0.0
C669 C 0.93319 0.51321 0.82221 0.0
C670 C 0.95352 0.51443 0.78909 0.0
H671 H 0.304 0.83166 0.81009 0.0
H672 H 0.29482 0.88527 0.93285 0.0
H673 H 0.33467 0.87044 0.75032 0.0
H674 H 0.32515 0.92379 0.8729 0.0
H675 H 0.4153 0.97733 0.8278 0.0
H676 H 0.3754 0.94257 0.87227 0.0
H677 H 0.33835 0.9103 0.67745 0.0
H678 H 0.37839 0.94566 0.63265 0.0
C679 C 0.30825 0.85165 0.82365 0.0
C680 C 0.29711 0.85545 0.87623 0.0
C681 C 0.32552 0.87377 0.78905 0.0
C682 C 0.33219 0.90006 0.80703 0.0
C683 C 0.32031 0.90373 0.85807 0.0
C684 C 0.30288 0.88165 0.89214 0.0
C685 C 0.39826 0.96336 0.79437 0.0
C686 C 0.39979 0.96413 0.72695 0.0
C687 C 0.37545 0.94347 0.81974 0.0
C688 C 0.35392 0.92367 0.77825 0.0
C689 C 0.35478 0.92531 0.71037 0.0
C690 C 0.37749 0.94564 0.68479 0.0
H691 H 0.49163 0.33706 0.05333 0.0
H692 H 0.47086 0.28189 0.89152 0.0
H693 H 0.49396 0.37179 0.97723 0.0
H694 H 0.47287 0.31664 0.81461 0.0
H695 H 0.4502 0.38151 0.71916 0.0
H696 H 0.44872 0.34398 0.78357 0.0
H697 H 0.52459 0.39896 0.8934 0.0
H698 H 0.52625 0.43623 0.82965 0.0
C699 C 0.48746 0.33244 0.00131 0.0
C700 C 0.48115 0.30698 0.97801 0.0
C701 C 0.48892 0.35227 0.95775 0.0
C702 C 0.48387 0.34701 0.8899 0.0
C703 C 0.47682 0.32123 0.8666 0.0
C704 C 0.47568 0.30143 0.91037 0.0
C705 C 0.46683 0.38548 0.7561 0.0
C706 C 0.48812 0.41199 0.76986 0.0
C707 C 0.46595 0.36399 0.793 0.0
C708 C 0.48626 0.36868 0.84442 0.0
C709 C 0.50834 0.39484 0.8551 0.0
C710 C 0.50932 0.41619 0.81819 0.0
H711 H 0.18301 0.45656 0.93881 0.0
H712 H 0.15068 0.43897 0.12305 0.0
H713 H 0.13873 0.44387 0.88161 0.0
H714 H 0.10586 0.42476 0.06612 0.0
H715 H 0.05052 0.45368 0.95213 0.0
H716 H 0.08652 0.44968 0.01432 0.0
H717 H 0.09305 0.41048 0.84809 0.0
H718 H 0.05735 0.41546 0.78449 0.0
C719 C 0.16622 0.44975 0.96675 0.0
C720 C 0.17011 0.44969 0.03507 0.0
C721 C 0.14078 0.44197 0.93412 0.0
C722 C 0.11873 0.43352 0.96935 0.0
C723 C 0.1225 0.43169 0.03766 0.0
C724 C 0.14803 0.43978 0.07025 0.0
C725 C 0.05921 0.44369 0.92907 0.0
C726 C 0.05156 0.43552 0.86285 0.0
C727 C 0.07977 0.44115 0.96508 0.0
C728 C 0.09305 0.43021 0.93583 0.0
C729 C 0.0836 0.41958 0.87151 0.0
C730 C 0.06299 0.42221 0.83525 0.0
H731 H 0.70725 0.1711 0.82015 0.0
H732 H 0.65335 0.16412 0.95651 0.0
H733 H 0.67084 0.13183 0.75851 0.0
H734 H 0.61675 0.1249 0.89408 0.0
H735 H 0.61298 0.04369 0.71786 0.0
H736 H 0.64573 0.08254 0.78679 0.0
H737 H 0.58925 0.1112 0.78124 0.0
H738 H 0.55653 0.07256 0.7115 0.0
C739 C 0.68754 0.16131 0.83648 0.0
C740 C 0.68315 0.17045 0.89333 0.0
C741 C 0.66679 0.13881 0.8015 0.0
C742 C 0.64123 0.1251 0.82255 0.0
C743 C 0.63635 0.13514 0.87711 0.0
C744 C 0.6572 0.15764 0.91242 0.0
C745 C 0.60736 0.05803 0.73207 0.0
C746 C 0.58219 0.0551 0.70897 0.0
C747 C 0.62616 0.08032 0.77117 0.0
C748 C 0.6201 0.10003 0.78807 0.0
C749 C 0.59436 0.09625 0.76876 0.0
C750 C 0.57558 0.074 0.72924 0.0
H751 H 0.5961 0.72182 0.8619 0.0
H752 H 0.51995 0.69722 0.74625 0.0
H753 H 0.60118 0.68874 0.80303 0.0
H754 H 0.52439 0.66348 0.68862 0.0
H755 H 0.53309 0.5986 0.60532 0.0
H756 H 0.54596 0.64578 0.62375 0.0
H757 H 0.57378 0.64105 0.82553 0.0
H758 H 0.56131 0.59446 0.80705 0.0
C759 C 0.58101 0.71001 0.82197 0.0
C760 C 0.55752 0.71161 0.80871 0.0
C761 C 0.58381 0.69103 0.78855 0.0
C762 C 0.56287 0.67308 0.74249 0.0
C763 C 0.5409 0.67705 0.72375 0.0
C764 C 0.53826 0.69629 0.75676 0.0
C765 C 0.5426 0.60794 0.6531 0.0
C766 C 0.5458 0.59279 0.70513 0.0
C767 C 0.54992 0.63489 0.66359 0.0
C768 C 0.56083 0.64711 0.72602 0.0
C769 C 0.56579 0.63242 0.77656 0.0
C770 C 0.55829 0.60554 0.76627 0.0
H771 H 0.46627 0.1764 0.38551 0.0
H772 H 0.50221 0.16758 0.2242 0.0
H773 H 0.46767 0.13775 0.43837 0.0
H774 H 0.50426 0.12961 0.2768 0.0
H775 H 0.47687 0.04603 0.34127 0.0
H776 H 0.4718 0.08349 0.29876 0.0
H777 H 0.49909 0.1223 0.49024 0.0
H778 H 0.50369 0.08402 0.53368 0.0
C779 C 0.47456 0.16617 0.36178 0.0
C780 C 0.48388 0.17453 0.30076 0.0
C781 C 0.47551 0.14425 0.392 0.0
C782 C 0.48575 0.1304 0.3614 0.0
C783 C 0.4957 0.13944 0.30104 0.0
C784 C 0.49472 0.16123 0.27104 0.0
C785 C 0.48159 0.0624 0.37466 0.0
C786 C 0.49112 0.06229 0.44062 0.0
C787 C 0.47881 0.08397 0.35013 0.0
C788 C 0.48571 0.10621 0.39067 0.0
C789 C 0.49372 0.10548 0.4577 0.0
C790 C 0.49634 0.0836 0.48258 0.0
H791 H 0.34385 0.52731 0.28017 0.0
H792 H 0.31024 0.50602 0.46308 0.0
H793 H 0.38399 0.52709 0.33074 0.0
H794 H 0.35067 0.50574 0.51403 0.0
H795 H 0.45825 0.53413 0.47112 0.0
H796 H 0.42446 0.54574 0.42359 0.0
H797 H 0.36174 0.46911 0.48128 0.0
H798 H 0.39495 0.4572 0.52744 0.0
C799 C 0.3453 0.52317 0.33165 0.0
C800 C 0.32347 0.5154 0.36725 0.0
C801 C 0.36839 0.52323 0.36059 0.0
C802 C 0.36995 0.5156 0.42553 0.0
C803 C 0.34955 0.51109 0.46327 0.0
C804 C 0.32656 0.51136 0.43442 0.0
C805 C 0.43723 0.51954 0.47245 0.0
C806 C 0.42935 0.49482 0.50372 0.0
C807 C 0.41798 0.52634 0.44591 0.0
C808 C 0.39068 0.50867 0.451 0.0
C809 C 0.38277 0.48345 0.4788 0.0
C810 C 0.40183 0.47652 0.50446 0.0
H811 H 0.83591 0.30051 0.42658 0.0
H812 H 0.88592 0.3234 0.27118 0.0
H813 H 0.87289 0.33621 0.49748 0.0
H814 H 0.92205 0.36002 0.33896 0.0
H815 H 0.98859 0.4211 0.46748 0.0
H816 H 0.95534 0.3761 0.42424 0.0
H817 H 0.89422 0.38236 0.51119 0.0
H818 H 0.92827 0.42626 0.55898 0.0
C819 C 0.85495 0.31316 0.40801 0.0
C820 C 0.85829 0.30932 0.34388 0.0
C821 C 0.87606 0.33373 0.44821 0.0
C822 C 0.9006 0.35127 0.4242 0.0
C823 C 0.90389 0.3467 0.36027 0.0
C824 C 0.88308 0.3258 0.32093 0.0
C825 C 0.96809 0.41238 0.47827 0.0
C826 C 0.96067 0.42693 0.51552 0.0
C827 C 0.94895 0.38676 0.45311 0.0
C828 C 0.92179 0.37571 0.46247 0.0
C829 C 0.91484 0.3899 0.50315 0.0
C830 C 0.93425 0.41518 0.53018 0.0
H831 H 0.53854 0.81227 0.32583 0.0
H832 H 0.48562 0.82845 0.18981 0.0
H833 H 0.53726 0.84083 0.40874 0.0
H834 H 0.48489 0.85752 0.27117 0.0
H835 H 0.47988 0.90454 0.42283 0.0
H836 H 0.4725 0.86349 0.37081 0.0
H837 H 0.55617 0.88793 0.42523 0.0
H838 H 0.56304 0.92825 0.48001 0.0
C839 C 0.52643 0.82176 0.31401 0.0
C840 C 0.51231 0.81834 0.25138 0.0
C841 C 0.52575 0.83816 0.36134 0.0
C842 C 0.51114 0.85168 0.3467 0.0
C843 C 0.49598 0.8471 0.28488 0.0
C844 C 0.49646 0.8305 0.23792 0.0
C845 C 0.49647 0.90068 0.42519 0.0
C846 C 0.52212 0.91968 0.45445 0.0
C847 C 0.49231 0.87728 0.39497 0.0
C848 C 0.51388 0.87272 0.39216 0.0
C849 C 0.53903 0.89065 0.42652 0.0
C850 C 0.54305 0.91385 0.45788 0.0
H851 H 0.67166 0.50588 0.21778 0.0
H852 H 0.73297 0.58547 0.29069 0.0
H853 H 0.63912 0.5098 0.2734 0.0
H854 H 0.69992 0.58983 0.34432 0.0
H855 H 0.63595 0.5726 0.48584 0.0
H856 H 0.67147 0.57224 0.43341 0.0
H857 H 0.61551 0.53476 0.26017 0.0
H858 H 0.58018 0.53463 0.31252 0.0
C859 C 0.67829 0.52416 0.24611 0.0
C860 C 0.70499 0.54535 0.24964 0.0
C861 C 0.65949 0.52658 0.27726 0.0
C862 C 0.6668 0.55029 0.31263 0.0
C863 C 0.69363 0.57128 0.31758 0.0
C864 C 0.71251 0.56886 0.28632 0.0
C865 C 0.63139 0.56468 0.43622 0.0
C866 C 0.60515 0.55336 0.4037 0.0
C867 C 0.65173 0.56445 0.40618 0.0
C868 C 0.64619 0.55298 0.34304 0.0
C869 C 0.6203 0.54305 0.30949 0.0
C870 C 0.60006 0.54317 0.33943 0.0
H871 H 0.1527 0.71131 0.30857 0.0
H872 H 0.21426 0.68963 0.35704 0.0
H873 H 0.12706 0.68113 0.3903 0.0
H874 H 0.18811 0.65886 0.43873 0.0
H875 H 0.10972 0.57907 0.48436 0.0
H876 H 0.14554 0.61586 0.43256 0.0
H877 H 0.12522 0.6719 0.50755 0.0
H878 H 0.08892 0.63486 0.55885 0.0
C879 C 0.1611 0.70055 0.33759 0.0
C880 C 0.18562 0.70297 0.32599 0.0
C881 C 0.14635 0.68323 0.38473 0.0
C882 C 0.15559 0.66768 0.42138 0.0
C883 C 0.18038 0.67047 0.411 0.0
C884 C 0.19527 0.68797 0.36392 0.0
C885 C 0.11328 0.59933 0.49127 0.0
C886 C 0.09609 0.60394 0.52464 0.0
C887 C 0.13396 0.62049 0.46177 0.0
C888 C 0.13791 0.64673 0.46486 0.0
C889 C 0.12232 0.65177 0.50327 0.0
C890 C 0.10166 0.63058 0.53314 0.0
loop_
_geom_bond_atom_site_label_1
_geom_bond_atom_site_label_2
_geom_bond_distance
_geom_bond_site_symmetry_2
_ccdc_geom_bond_type
C0 C1 1.443 . S
C0 N4 1.376 . S
C0 C38 1.389 . S
C1 C0 1.443 . S
C1 C2 1.340 . S
C1 H41 0.951 . S
C2 C1 1.340 . S
C2 C3 1.439 . S
C2 H42 0.950 . S
C3 C2 1.439 . S
C3 N4 1.374 . S
C3 C37 1.395 . S
N4 C0 1.376 . S
N4 C3 1.374 . S
N4 Co5 2.008 . S
Co5 N4 2.008 . S
Co5 N6 1.995 . S
Co5 N11 2.008 . S
Co5 N16 1.995 . S
Co5 N21 2.282 . S
Co5 N27 2.282 . S
N6 Co5 1.995 . S
N6 C7 1.376 . S
N6 C10 1.383 . S
C7 N6 1.376 . S
C7 C8 1.446 . S
C7 C37 1.391 . S
C8 C7 1.446 . S
C8 C9 1.339 . S
C8 H43 0.949 . S
C9 C8 1.339 . S
C9 C10 1.439 . S
C9 H44 0.950 . S
C10 N6 1.383 . S
C10 C9 1.439 . S
C10 C39 1.392 . S
N11 Co5 2.008 . S
N11 C12 1.376 . S
N11 C15 1.374 . S
C12 N11 1.376 . S
C12 C13 1.443 . S
C12 C39 1.389 . S
C13 C12 1.443 . S
C13 C14 1.340 . S
C13 H45 0.951 . S
C14 C13 1.340 . S
C14 C15 1.439 . S
C14 H46 0.950 . S
C15 N11 1.374 . S
C15 C14 1.439 . S
C15 C40 1.395 . S
N16 Co5 1.995 . S
N16 C17 1.376 . S
N16 C20 1.383 . S
C17 N16 1.376 . S
C17 C18 1.446 . S
C17 C40 1.391 . S
C18 C17 1.446 . S
C18 C19 1.339 . S
C18 H47 0.949 . S
C19 C18 1.339 . S
C19 C20 1.439 . S
C19 H48 0.950 . S
C20 N16 1.383 . S
C20 C19 1.439 . S
C20 C38 1.392 . S
N21 Co5 2.282 . S
N21 C24 1.332 . S
N21 C26 1.332 . S
C22 C23 1.386 . S
C22 C25 1.388 . S
C23 C22 1.386 . S
C23 C24 1.382 . S
C23 H49 0.950 . S
C24 N21 1.332 . S
C24 C23 1.382 . S
C24 H35 0.952 . S
C25 C22 1.388 . S
C25 C26 1.382 . S
C25 H50 0.950 . S
C26 N21 1.332 . S
C26 C25 1.382 . S
C26 H36 0.948 . S
N27 Co5 2.282 . S
N27 C31 1.332 . S
N27 C32 1.332 . S
C28 C29 1.388 . S
C28 C32 1.382 . S
C28 H51 0.950 . S
C29 C28 1.388 . S
C29 C30 1.386 . S
C30 C29 1.386 . S
C30 C31 1.382 . S
C30 H52 0.950 . S
C31 N27 1.332 . S
C31 C30 1.382 . S
C31 H33 0.952 . S
C32 N27 1.332 . S
C32 C28 1.382 . S
C32 H34 0.948 . S
H33 C31 0.952 . S
H34 C32 0.948 . S
H35 C24 0.952 . S
H36 C26 0.948 . S
C37 C3 1.395 . S
C37 C7 1.391 . S
C38 C0 1.389 . S
C38 C20 1.392 . S
C39 C10 1.392 . S
C39 C12 1.389 . S
C40 C15 1.395 . S
C40 C17 1.391 . S
H41 C1 0.951 . S
H42 C2 0.950 . S
H43 C8 0.949 . S
H44 C9 0.950 . S
H45 C13 0.951 . S
H46 C14 0.950 . S
H47 C18 0.949 . S
H48 C19 0.950 . S
H49 C23 0.950 . S
H50 C25 0.950 . S
H51 C28 0.950 . S
H52 C30 0.950 . S
C53 C54 1.443 . S
C53 N57 1.376 . S
C53 C91 1.389 . S
C54 C53 1.443 . S
C54 C55 1.340 . S
C54 H94 0.951 . S
C55 C54 1.340 . S
C55 C56 1.439 . S
C55 H95 0.950 . S
C56 C55 1.439 . S
C56 N57 1.374 . S
C56 C90 1.395 . S
N57 C53 1.376 . S
N57 C56 1.374 . S
N57 Co58 2.008 . S
Co58 N57 2.008 . S
Co58 N59 1.995 . S
Co58 N64 2.008 . S
Co58 N69 1.995 . S
Co58 N74 2.282 . S
Co58 N80 2.282 . S
N59 Co58 1.995 . S
N59 C60 1.376 . S
N59 C63 1.383 . S
C60 N59 1.376 . S
C60 C61 1.446 . S
C60 C90 1.391 . S
C61 C60 1.446 . S
C61 C62 1.339 . S
C61 H96 0.949 . S
C62 C61 1.339 . S
C62 C63 1.439 . S
C62 H97 0.950 . S
C63 N59 1.383 . S
C63 C62 1.439 . S
C63 C92 1.392 . S
N64 Co58 2.008 . S
N64 C65 1.376 . S
N64 C68 1.374 . S
C65 N64 1.376 . S
C65 C66 1.443 . S
C65 C92 1.389 . S
C66 C65 1.443 . S
C66 C67 1.340 . S
C66 H98 0.951 . S
C67 C66 1.340 . S
C67 C68 1.439 . S
C67 H99 0.950 . S
C68 N64 1.374 . S
C68 C67 1.439 . S
C68 C93 1.395 . S
N69 Co58 1.995 . S
N69 C70 1.376 . S
N69 C73 1.383 . S
C70 N69 1.376 . S
C70 C71 1.446 . S
C70 C93 1.391 . S
C71 C70 1.446 . S
C71 C72 1.340 . S
C71 H100 0.949 . S
C72 C71 1.340 . S
C72 C73 1.440 . S
C72 H101 0.947 1_554 S
C73 N69 1.383 . S
C73 C72 1.440 . S
C73 C91 1.392 . S
N74 Co58 2.282 . S
N74 C77 1.324 1_554 S
N74 C79 1.332 . S
C75 C76 1.386 . S
C75 C78 1.388 . S
C76 C75 1.386 . S
C76 C77 1.391 . S
C76 H102 0.950 . S
C77 N74 1.324 1_556 S
C77 C76 1.391 . S
C77 H88 0.951 1_556 S
C78 C75 1.388 . S
C78 C79 1.382 1_556 S
C78 H103 0.950 . S
C79 N74 1.332 . S
C79 C78 1.382 1_554 S
C79 H89 0.948 . S
N80 Co58 2.282 . S
N80 C84 1.332 . S
N80 C85 1.332 . S
C81 C82 1.388 . S
C81 C85 1.382 . S
C81 H104 0.950 . S
C82 C81 1.388 . S
C82 C83 1.386 . S
C83 C82 1.386 . S
C83 C84 1.382 . S
C83 H105 0.950 . S
C84 N80 1.332 . S
C84 C83 1.382 . S
C84 H86 0.952 . S
C85 N80 1.332 . S
C85 C81 1.382 . S
C85 H87 0.948 . S
H86 C84 0.952 . S
H87 C85 0.948 . S
H88 C77 0.951 1_554 S
H89 C79 0.948 . S
C90 C56 1.395 . S
C90 C60 1.391 . S
C91 C53 1.389 . S
C91 C73 1.392 . S
C92 C63 1.392 . S
C92 C65 1.389 . S
C93 C68 1.395 . S
C93 C70 1.391 . S
H94 C54 0.951 . S
H95 C55 0.950 . S
H96 C61 0.949 . S
H97 C62 0.950 . S
H98 C66 0.951 . S
H99 C67 0.950 . S
H100 C71 0.949 . S
H101 C72 0.947 1_556 S
H102 C76 0.950 . S
H103 C78 0.950 . S
H104 C81 0.950 . S
H105 C83 0.950 . S
C106 C107 1.443 . S
C106 N110 1.376 . S
C106 C144 1.389 . S
C107 C106 1.443 . S
C107 C108 1.340 . S
C107 H147 0.951 . S
C108 C107 1.340 . S
C108 C109 1.439 . S
C108 H148 0.950 . S
C109 C108 1.439 . S
C109 N110 1.374 . S
C109 C143 1.395 . S
N110 C106 1.376 . S
N110 C109 1.374 . S
N110 Co111 2.008 . S
Co111 N110 2.008 . S
Co111 N112 1.995 1_554 S
Co111 N117 2.008 1_554 S
Co111 N122 1.995 . S
Co111 N127 2.282 . S
Co111 N133 2.282 1_554 S
N112 Co111 1.995 1_556 S
N112 C113 1.376 . S
N112 C116 1.383 . S
C113 N112 1.376 . S
C113 C114 1.446 . S
C113 C143 1.391 1_556 S
C114 C113 1.446 . S
C114 C115 1.339 . S
C114 H149 0.949 . S
C115 C114 1.339 . S
C115 C116 1.439 . S
C115 H150 0.950 . S
C116 N112 1.383 . S
C116 C115 1.439 . S
C116 C145 1.392 . S
N117 Co111 2.008 1_556 S
N117 C118 1.376 . S
N117 C121 1.374 . S
C118 N117 1.376 . S
C118 C119 1.443 . S
C118 C145 1.389 . S
C119 C118 1.443 . S
C119 C120 1.340 . S
C119 H151 0.951 . S
C120 C119 1.340 . S
C120 C121 1.439 . S
C120 H152 0.950 . S
C121 N117 1.374 . S
C121 C120 1.439 . S
C121 C146 1.395 1_556 S
N122 Co111 1.995 . S
N122 C123 1.376 . S
N122 C126 1.383 . S
C123 N122 1.376 . S
C123 C124 1.446 . S
C123 C146 1.391 . S
C124 C123 1.446 . S
C124 C125 1.339 . S
C124 H153 0.949 . S
C125 C124 1.339 . S
C125 C126 1.439 . S
C125 H154 0.950 . S
C126 N122 1.383 . S
C126 C125 1.439 . S
C126 C144 1.392 . S
N127 Co111 2.282 . S
N127 C130 1.332 . S
N127 C132 1.332 . S
C128 C129 1.386 . S
C128 C131 1.388 . S
C129 C128 1.386 . S
C129 C130 1.382 . S
C129 H155 0.950 . S
C130 N127 1.332 . S
C130 C129 1.382 . S
C130 H141 0.952 . S
C131 C128 1.388 . S
C131 C132 1.382 . S
C131 H156 0.950 . S
C132 N127 1.332 . S
C132 C131 1.382 . S
C132 H142 0.948 . S
N133 Co111 2.282 1_556 S
N133 C137 1.332 . S
N133 C138 1.332 . S
C134 C135 1.388 . S
C134 C138 1.382 . S
C134 H157 0.950 . S
C135 C134 1.388 . S
C135 C136 1.386 . S
C136 C135 1.386 . S
C136 C137 1.382 . S
C136 H158 0.950 . S
C137 N133 1.332 . S
C137 C136 1.382 . S
C137 H139 0.952 . S
C138 N133 1.332 . S
C138 C134 1.382 . S
C138 H140 0.948 . S
H139 C137 0.952 . S
H140 C138 0.948 . S
H141 C130 0.952 . S
H142 C132 0.948 . S
C143 C109 1.395 . S
C143 C113 1.391 1_554 S
C144 C106 1.389 . S
C144 C126 1.392 . S
C145 C116 1.392 . S
C145 C118 1.389 . S
C146 C121 1.395 1_554 S
C146 C123 1.391 . S
H147 C107 0.951 . S
H148 C108 0.950 . S
H149 C114 0.949 . S
H150 C115 0.950 . S
H151 C119 0.951 . S
H152 C120 0.950 . S
H153 C124 0.949 . S
H154 C125 0.950 . S
H155 C129 0.950 . S
H156 C131 0.950 . S
H157 C134 0.950 . S
H158 C136 0.950 . S
C159 C160 1.443 . S
C159 N163 1.376 . S
C159 C197 1.389 . S
C160 C159 1.443 . S
C160 C161 1.340 . S
C160 H200 0.951 . S
C161 C160 1.340 . S
C161 C162 1.439 . S
C161 H201 0.950 . S
C162 C161 1.439 . S
C162 N163 1.374 . S
C162 C196 1.395 . S
N163 C159 1.376 . S
N163 C162 1.374 . S
N163 Co164 2.008 . S
Co164 N163 2.008 . S
Co164 N165 1.995 1_554 S
Co164 N170 2.008 1_554 S
Co164 N175 1.995 . S
Co164 N180 2.282 . S
Co164 N186 2.282 1_554 S
N165 Co164 1.995 1_556 S
N165 C166 1.376 . S
N165 C169 1.383 . S
C166 N165 1.376 . S
C166 C167 1.446 . S
C166 C196 1.391 1_556 S
C167 C166 1.446 . S
C167 C168 1.339 . S
C167 H202 0.949 . S
C168 C167 1.339 . S
C168 C169 1.439 . S
C168 H203 0.950 . S
C169 N165 1.383 . S
C169 C168 1.439 . S
C169 C198 1.392 . S
N170 Co164 2.008 1_556 S
N170 C171 1.376 . S
N170 C174 1.374 . S
C171 N170 1.376 . S
C171 C172 1.443 . S
C171 C198 1.389 . S
C172 C171 1.443 . S
C172 C173 1.340 . S
C172 H204 0.951 . S
C173 C172 1.340 . S
C173 C174 1.439 . S
C173 H205 0.950 . S
C174 N170 1.374 . S
C174 C173 1.439 . S
C174 C199 1.395 1_556 S
N175 Co164 1.995 . S
N175 C176 1.376 . S
N175 C179 1.383 . S
C176 N175 1.376 . S
C176 C177 1.446 . S
C176 C199 1.391 . S
C177 C176 1.446 . S
C177 C178 1.339 . S
C177 H206 0.949 . S
C178 C177 1.339 . S
C178 C179 1.439 . S
C178 H207 0.950 . S
C179 N175 1.383 . S
C179 C178 1.439 . S
C179 C197 1.392 . S
N180 Co164 2.282 . S
N180 C183 1.332 . S
N180 C185 1.332 . S
C181 C182 1.386 . S
C181 C184 1.388 . S
C182 C181 1.386 . S
C182 C183 1.382 . S
C182 H208 0.950 . S
C183 N180 1.332 . S
C183 C182 1.382 . S
C183 H194 0.952 . S
C184 C181 1.388 . S
C184 C185 1.382 . S
C184 H209 0.950 . S
C185 N180 1.332 . S
C185 C184 1.382 . S
C185 H195 0.948 . S
N186 Co164 2.282 1_556 S
N186 C190 1.332 . S
N186 C191 1.332 . S
C187 C188 1.388 . S
C187 C191 1.382 . S
C187 H210 0.950 . S
C188 C187 1.388 . S
C188 C189 1.386 . S
C189 C188 1.386 . S
C189 C190 1.382 . S
C189 H211 0.950 . S
C190 N186 1.332 . S
C190 C189 1.382 . S
C190 H192 0.952 . S
C191 N186 1.332 . S
C191 C187 1.382 . S
C191 H193 0.948 . S
H192 C190 0.952 . S
H193 C191 0.948 . S
H194 C183 0.952 . S
H195 C185 0.948 . S
C196 C162 1.395 . S
C196 C166 1.391 1_554 S
C197 C159 1.389 . S
C197 C179 1.392 . S
C198 C169 1.392 . S
C198 C171 1.389 . S
C199 C174 1.395 1_554 S
C199 C176 1.391 . S
H200 C160 0.951 . S
H201 C161 0.950 . S
H202 C167 0.949 . S
H203 C168 0.950 . S
H204 C172 0.951 . S
H205 C173 0.950 . S
H206 C177 0.949 . S
H207 C178 0.950 . S
H208 C182 0.950 . S
H209 C184 0.950 . S
H210 C187 0.950 . S
H211 C189 0.950 . S
C212 C213 1.443 . S
C212 N216 1.376 . S
C212 C250 1.389 . S
C213 C212 1.443 . S
C213 C214 1.340 . S
C213 H253 0.951 . S
C214 C213 1.340 . S
C214 C215 1.439 . S
C214 H254 0.950 . S
C215 C214 1.439 . S
C215 N216 1.374 . S
C215 C249 1.395 . S
N216 C212 1.376 . S
N216 C215 1.374 . S
N216 Co217 2.008 . S
Co217 N216 2.008 . S
Co217 N218 1.995 . S
Co217 N223 2.008 . S
Co217 N228 1.995 . S
Co217 N233 2.282 . S
Co217 N239 2.282 . S
N218 Co217 1.995 . S
N218 C219 1.376 . S
N218 C222 1.383 . S
C219 N218 1.376 . S
C219 C220 1.446 1_554 S
C219 C249 1.391 . S
C220 C219 1.446 1_556 S
C220 C221 1.339 . S
C220 H255 0.949 . S
C221 C220 1.339 . S
C221 C222 1.439 1_556 S
C221 H256 0.950 . S
C222 N218 1.383 . S
C222 C221 1.439 1_554 S
C222 C251 1.392 1_554 S
N223 Co217 2.008 . S
N223 C224 1.376 . S
N223 C227 1.374 . S
C224 N223 1.376 . S
C224 C225 1.443 . S
C224 C251 1.389 1_554 S
C225 C224 1.443 . S
C225 C226 1.340 . S
C225 H257 0.951 1_554 S
C226 C225 1.340 . S
C226 C227 1.439 . S
C226 H258 0.950 . S
C227 N223 1.374 . S
C227 C226 1.439 . S
C227 C252 1.395 . S
N228 Co217 1.995 . S
N228 C229 1.376 . S
N228 C232 1.383 . S
C229 N228 1.376 . S
C229 C230 1.446 . S
C229 C252 1.391 . S
C230 C229 1.446 . S
C230 C231 1.339 . S
C230 H259 0.949 . S
C231 C230 1.339 . S
C231 C232 1.439 . S
C231 H260 0.950 . S
C232 N228 1.383 . S
C232 C231 1.439 . S
C232 C250 1.392 . S
N233 Co217 2.282 . S
N233 C236 1.332 . S
N233 C238 1.332 . S
C234 C235 1.386 . S
C234 C237 1.388 . S
C235 C234 1.386 . S
C235 C236 1.382 . S
C235 H261 0.950 . S
C236 N233 1.332 . S
C236 C235 1.382 . S
C236 H247 0.952 . S
C237 C234 1.388 . S
C237 C238 1.382 . S
C237 H262 0.950 . S
C238 N233 1.332 . S
C238 C237 1.382 . S
C238 H248 0.948 . S
N239 Co217 2.282 . S
N239 C243 1.332 1_554 S
N239 C244 1.332 . S
C240 C241 1.388 . S
C240 C244 1.382 1_556 S
C240 H263 0.950 . S
C241 C240 1.388 . S
C241 C242 1.386 . S
C242 C241 1.386 . S
C242 C243 1.382 . S
C242 H264 0.950 . S
C243 N239 1.332 1_556 S
C243 C242 1.382 . S
C243 H245 0.952 . S
C244 N239 1.332 . S
C244 C240 1.382 1_554 S
C244 H246 0.948 . S
H245 C243 0.952 . S
H246 C244 0.948 . S
H247 C236 0.952 . S
H248 C238 0.948 . S
C249 C215 1.395 . S
C249 C219 1.391 . S
C250 C212 1.389 . S
C250 C232 1.392 . S
C251 C222 1.392 1_556 S
C251 C224 1.389 1_556 S
C252 C227 1.395 . S
C252 C229 1.391 . S
H253 C213 0.951 . S
H254 C214 0.950 . S
H255 C220 0.949 . S
H256 C221 0.950 . S
H257 C225 0.951 1_556 S
H258 C226 0.950 . S
H259 C230 0.949 . S
H260 C231 0.950 . S
H261 C235 0.950 . S
H262 C237 0.950 . S
H263 C240 0.950 . S
H264 C242 0.950 . S
C265 C266 1.443 . S
C265 N269 1.376 . S
C265 C303 1.389 . S
C266 C265 1.443 . S
C266 C267 1.340 . S
C266 H306 0.951 . S
C267 C266 1.340 . S
C267 C268 1.439 . S
C267 H307 0.950 . S
C268 C267 1.439 . S
C268 N269 1.374 . S
C268 C302 1.395 . S
N269 C265 1.376 . S
N269 C268 1.374 . S
N269 Co270 2.008 . S
Co270 N269 2.008 . S
Co270 N271 1.995 . S
Co270 N276 2.008 . S
Co270 N281 1.995 . S
Co270 N286 2.282 . S
Co270 N292 2.282 . S
N271 Co270 1.995 . S
N271 C272 1.376 . S
N271 C275 1.383 . S
C272 N271 1.376 . S
C272 C273 1.446 . S
C272 C302 1.391 . S
C273 C272 1.446 . S
C273 C274 1.339 . S
C273 H308 0.949 . S
C274 C273 1.339 . S
C274 C275 1.439 . S
C274 H309 0.950 . S
C275 N271 1.383 . S
C275 C274 1.439 . S
C275 C304 1.392 . S
N276 Co270 2.008 . S
N276 C277 1.376 . S
N276 C280 1.374 . S
C277 N276 1.376 . S
C277 C278 1.443 . S
C277 C304 1.389 . S
C278 C277 1.443 . S
C278 C279 1.340 . S
C278 H310 0.951 . S
C279 C278 1.340 . S
C279 C280 1.439 . S
C279 H311 0.950 . S
C280 N276 1.374 . S
C280 C279 1.439 . S
C280 C305 1.395 . S
N281 Co270 1.995 . S
N281 C282 1.376 . S
N281 C285 1.383 . S
C282 N281 1.376 . S
C282 C283 1.446 . S
C282 C305 1.391 . S
C283 C282 1.446 . S
C283 C284 1.339 . S
C283 H312 0.949 . S
C284 C283 1.339 . S
C284 C285 1.439 . S
C284 H313 0.950 . S
C285 N281 1.383 . S
C285 C284 1.439 . S
C285 C303 1.392 . S
N286 Co270 2.282 . S
N286 C289 1.332 . S
N286 C291 1.332 . S
C287 C288 1.386 . S
C287 C290 1.388 . S
C288 C287 1.386 . S
C288 C289 1.382 . S
C288 H314 0.950 . S
C289 N286 1.332 . S
C289 C288 1.382 . S
C289 H300 0.952 . S
C290 C287 1.388 . S
C290 C291 1.382 . S
C290 H315 0.950 . S
C291 N286 1.332 . S
C291 C290 1.382 . S
C291 H301 0.948 . S
N292 Co270 2.282 . S
N292 C296 1.332 . S
N292 C297 1.332 . S
C293 C294 1.388 . S
C293 C297 1.382 . S
C293 H316 0.950 . S
C294 C293 1.388 . S
C294 C295 1.386 . S
C295 C294 1.386 . S
C295 C296 1.382 . S
C295 H317 0.950 . S
C296 N292 1.332 . S
C296 C295 1.382 . S
C296 H298 0.952 . S
C297 N292 1.332 . S
C297 C293 1.382 . S
C297 H299 0.948 . S
H298 C296 0.952 . S
H299 C297 0.948 . S
H300 C289 0.952 . S
H301 C291 0.948 . S
C302 C268 1.395 . S
C302 C272 1.391 . S
C303 C265 1.389 . S
C303 C285 1.392 . S
C304 C275 1.392 . S
C304 C277 1.389 . S
C305 C280 1.395 . S
C305 C282 1.391 . S
H306 C266 0.951 . S
H307 C267 0.950 . S
H308 C273 0.949 . S
H309 C274 0.950 . S
H310 C278 0.951 . S
H311 C279 0.950 . S
H312 C283 0.949 . S
H313 C284 0.950 . S
H314 C288 0.950 . S
H315 C290 0.950 . S
H316 C293 0.950 . S
H317 C295 0.950 . S
C318 O345 1.312 . S
C318 O346 1.208 . S
C319 O340 1.331 . S
C319 O343 1.244 . S
C320 O342 1.264 . S
C320 O344 1.273 . S
Mg321 O323 1.936 1_455 S
Mg321 O330 2.081 1_455 S
Mg321 O332 2.023 . S
Mg321 O336 2.031 1_455 S
Mg321 O345 2.291 . S
Mg322 O323 1.963 . S
Mg322 O333 1.942 . S
Mg322 O334 1.955 1_655 S
Mg322 O341 1.986 . S
O323 Mg321 1.936 1_655 S
O323 Mg322 1.963 . S
O323 Mg324 1.915 1_655 S
Mg324 O323 1.915 1_455 S
Mg324 O325 1.915 . S
Mg324 O329 2.013 . S
Mg324 O335 2.114 1_455 S
Mg324 O339 2.013 1_455 S
Mg324 O345 2.114 . S
O325 Mg324 1.915 . S
O325 Mg326 1.936 . S
O325 Mg327 1.963 . S
Mg326 O325 1.936 . S
Mg326 O335 2.291 1_455 S
Mg326 O340 2.081 . S
Mg326 O342 2.023 1_455 S
Mg326 O346 2.031 . S
Mg327 O325 1.963 . S
Mg327 O331 1.986 . S
Mg327 O343 1.942 . S
Mg327 O344 1.955 1_455 S
C328 O339 1.191 . S
C328 O341 1.307 . S
O329 Mg324 2.013 . S
O329 C348 1.191 . S
O330 Mg321 2.081 1_655 S
O330 C338 1.331 . S
O331 Mg327 1.986 . S
O331 C348 1.307 . S
O332 Mg321 2.023 . S
O332 C347 1.264 . S
O333 Mg322 1.942 . S
O333 C338 1.244 . S
O334 Mg322 1.955 1_455 S
O334 C347 1.273 . S
O335 Mg324 2.114 1_655 S
O335 Mg326 2.291 1_655 S
O335 C337 1.312 . S
O336 Mg321 2.031 1_655 S
O336 C337 1.208 . S
C337 O335 1.312 . S
C337 O336 1.208 . S
C338 O330 1.331 . S
C338 O333 1.244 . S
O339 Mg324 2.013 1_655 S
O339 C328 1.191 . S
O340 C319 1.331 . S
O340 Mg326 2.081 . S
O341 Mg322 1.986 . S
O341 C328 1.307 . S
O342 C320 1.264 . S
O342 Mg326 2.023 1_655 S
O343 C319 1.244 . S
O343 Mg327 1.942 . S
O344 C320 1.273 . S
O344 Mg327 1.955 1_655 S
O345 C318 1.312 . S
O345 Mg321 2.291 . S
O345 Mg324 2.114 . S
O346 C318 1.208 . S
O346 Mg326 2.031 . S
C347 O332 1.264 . S
C347 O334 1.273 . S
C348 O329 1.191 . S
C348 O331 1.307 . S
C349 O376 1.312 . S
C349 O377 1.208 . S
C350 O371 1.331 . S
C350 O374 1.244 . S
C351 O373 1.264 . S
C351 O375 1.273 . S
Mg352 O354 1.936 1_545 S
Mg352 O361 2.081 1_545 S
Mg352 O363 2.023 . S
Mg352 O367 2.031 1_545 S
Mg352 O376 2.291 . S
Mg353 O354 1.963 . S
Mg353 O364 1.942 . S
Mg353 O365 1.955 1_565 S
Mg353 O372 1.986 . S
O354 Mg352 1.936 1_565 S
O354 Mg353 1.963 . S
O354 Mg355 1.915 1_565 S
Mg355 O354 1.915 1_545 S
Mg355 O356 1.915 . S
Mg355 O360 2.013 . S
Mg355 O366 2.114 1_545 S
Mg355 O370 2.013 1_545 S
Mg355 O376 2.114 . S
O356 Mg355 1.915 . S
O356 Mg357 1.936 . S
O356 Mg358 1.963 . S
Mg357 O356 1.936 . S
Mg357 O366 2.291 1_545 S
Mg357 O371 2.081 . S
Mg357 O373 2.023 1_545 S
Mg357 O377 2.031 . S
Mg358 O356 1.963 . S
Mg358 O362 1.986 . S
Mg358 O374 1.942 . S
Mg358 O375 1.955 1_545 S
C359 O370 1.191 . S
C359 O372 1.307 . S
O360 Mg355 2.013 . S
O360 C379 1.191 . S
O361 Mg352 2.081 1_565 S
O361 C369 1.331 . S
O362 Mg358 1.986 . S
O362 C379 1.307 . S
O363 Mg352 2.023 . S
O363 C378 1.264 . S
O364 Mg353 1.942 . S
O364 C369 1.244 . S
O365 Mg353 1.955 1_545 S
O365 C378 1.273 . S
O366 Mg355 2.114 1_565 S
O366 Mg357 2.291 1_565 S
O366 C368 1.312 . S
O367 Mg352 2.031 1_565 S
O367 C368 1.208 . S
C368 O366 1.312 . S
C368 O367 1.208 . S
C369 O361 1.331 . S
C369 O364 1.244 . S
O370 Mg355 2.013 1_565 S
O370 C359 1.191 . S
O371 C350 1.331 . S
O371 Mg357 2.081 . S
O372 Mg353 1.986 . S
O372 C359 1.307 . S
O373 C351 1.264 . S
O373 Mg357 2.023 1_565 S
O374 C350 1.244 . S
O374 Mg358 1.942 . S
O375 C351 1.273 . S
O375 Mg358 1.955 1_565 S
O376 C349 1.312 . S
O376 Mg352 2.291 . S
O376 Mg355 2.114 . S
O377 C349 1.208 . S
O377 Mg357 2.031 . S
C378 O363 1.264 . S
C378 O365 1.273 . S
C379 O360 1.191 . S
C379 O362 1.307 . S
C380 O407 1.312 . S
C380 O408 1.208 . S
C381 O402 1.331 . S
C381 O405 1.244 . S
C382 O404 1.264 . S
C382 O406 1.273 . S
Mg383 O385 1.936 . S
Mg383 O392 2.081 . S
Mg383 O394 2.023 . S
Mg383 O398 2.031 . S
Mg383 O407 2.291 . S
Mg384 O385 1.963 . S
Mg384 O395 1.942 . S
Mg384 O396 1.955 . S
Mg384 O403 1.986 . S
O385 Mg383 1.936 . S
O385 Mg384 1.963 . S
O385 Mg386 1.915 . S
Mg386 O385 1.915 . S
Mg386 O387 1.915 . S
Mg386 O391 2.013 . S
Mg386 O397 2.114 . S
Mg386 O401 2.013 . S
Mg386 O407 2.114 . S
O387 Mg386 1.915 . S
O387 Mg388 1.936 . S
O387 Mg389 1.963 . S
Mg388 O387 1.936 . S
Mg388 O397 2.291 . S
Mg388 O402 2.081 . S
Mg388 O404 2.023 . S
Mg388 O408 2.031 . S
Mg389 O387 1.963 . S
Mg389 O393 1.986 . S
Mg389 O405 1.942 . S
Mg389 O406 1.955 . S
C390 O401 1.191 . S
C390 O403 1.307 . S
O391 Mg386 2.013 . S
O391 C410 1.191 . S
O392 Mg383 2.081 . S
O392 C400 1.331 . S
O393 Mg389 1.986 . S
O393 C410 1.307 . S
O394 Mg383 2.023 . S
O394 C409 1.264 . S
O395 Mg384 1.942 . S
O395 C400 1.244 . S
O396 Mg384 1.955 . S
O396 C409 1.273 . S
O397 Mg386 2.114 . S
O397 Mg388 2.291 . S
O397 C399 1.312 . S
O398 Mg383 2.031 . S
O398 C399 1.208 . S
C399 O397 1.312 . S
C399 O398 1.208 . S
C400 O392 1.331 . S
C400 O395 1.244 . S
O401 Mg386 2.013 . S
O401 C390 1.191 . S
O402 C381 1.331 . S
O402 Mg388 2.081 . S
O403 Mg384 1.986 . S
O403 C390 1.307 . S
O404 C382 1.264 . S
O404 Mg388 2.023 . S
O405 C381 1.244 . S
O405 Mg389 1.942 . S
O406 C382 1.273 . S
O406 Mg389 1.955 . S
O407 C380 1.312 . S
O407 Mg383 2.291 . S
O407 Mg386 2.114 . S
O408 C380 1.208 . S
O408 Mg388 2.031 . S
C409 O394 1.264 . S
C409 O396 1.273 . S
C410 O391 1.191 . S
C410 O393 1.307 . S
H411 C419 0.950 . S
H412 C424 0.950 . S
H413 C421 0.950 . S
H414 C423 0.950 . S
H415 C425 0.950 . S
H416 C427 0.950 . S
H417 C429 0.950 . S
H418 C430 0.950 . S
C419 H411 0.950 . S
C419 C420 1.386 . S
C419 C421 1.391 . S
C420 C419 1.386 . S
C420 C424 1.393 . S
C421 H413 0.950 . S
C421 C419 1.391 . S
C421 C422 1.400 . S
C422 C421 1.400 . S
C422 C423 1.398 . S
C422 C428 1.491 . S
C423 H414 0.950 . S
C423 C422 1.398 . S
C423 C424 1.391 . S
C424 H412 0.950 . S
C424 C420 1.393 . S
C424 C423 1.391 . S
C425 H415 0.950 . S
C425 C426 1.386 . S
C425 C427 1.391 . S
C426 C425 1.386 . S
C426 C430 1.393 . S
C427 H416 0.950 . S
C427 C425 1.391 . S
C427 C428 1.400 . S
C428 C422 1.491 . S
C428 C427 1.400 . S
C428 C429 1.398 . S
C429 H417 0.950 . S
C429 C428 1.398 . S
C429 C430 1.391 . S
C430 H418 0.950 . S
C430 C426 1.393 . S
C430 C429 1.391 . S
H431 C439 0.950 . S
H432 C444 0.950 . S
H433 C441 0.950 . S
H434 C443 0.950 . S
H435 C445 0.950 . S
H436 C447 0.950 . S
H437 C449 0.950 . S
H438 C450 0.950 . S
C439 H431 0.950 . S
C439 C440 1.386 . S
C439 C441 1.391 . S
C440 C439 1.386 . S
C440 C444 1.393 . S
C441 H433 0.950 . S
C441 C439 1.391 . S
C441 C442 1.400 . S
C442 C441 1.400 . S
C442 C443 1.398 . S
C442 C448 1.491 . S
C443 H434 0.950 . S
C443 C442 1.398 . S
C443 C444 1.391 . S
C444 H432 0.950 . S
C444 C440 1.393 . S
C444 C443 1.391 . S
C445 H435 0.950 . S
C445 C446 1.386 . S
C445 C447 1.391 . S
C446 C445 1.386 . S
C446 C450 1.393 . S
C447 H436 0.950 . S
C447 C445 1.391 . S
C447 C448 1.400 . S
C448 C442 1.491 . S
C448 C447 1.400 . S
C448 C449 1.398 . S
C449 H437 0.950 . S
C449 C448 1.398 . S
C449 C450 1.391 . S
C450 H438 0.950 . S
C450 C446 1.393 . S
C450 C449 1.391 . S
H451 C459 0.950 . S
H452 C464 0.950 . S
H453 C461 0.950 . S
H454 C463 0.950 . S
H455 C465 0.950 . S
H456 C467 0.950 . S
H457 C469 0.950 . S
H458 C470 0.950 . S
C459 H451 0.950 . S
C459 C460 1.386 . S
C459 C461 1.391 . S
C460 C459 1.386 . S
C460 C464 1.393 . S
C461 H453 0.950 . S
C461 C459 1.391 . S
C461 C462 1.400 . S
C462 C461 1.400 . S
C462 C463 1.398 . S
C462 C468 1.491 . S
C463 H454 0.950 . S
C463 C462 1.398 . S
C463 C464 1.391 . S
C464 H452 0.950 . S
C464 C460 1.393 . S
C464 C463 1.391 . S
C465 H455 0.950 . S
C465 C466 1.386 . S
C465 C467 1.391 . S
C466 C465 1.386 . S
C466 C470 1.393 . S
C467 H456 0.950 . S
C467 C465 1.391 . S
C467 C468 1.400 . S
C468 C462 1.491 . S
C468 C467 1.400 . S
C468 C469 1.398 . S
C469 H457 0.950 . S
C469 C468 1.398 . S
C469 C470 1.391 . S
C470 H458 0.950 . S
C470 C466 1.393 . S
C470 C469 1.391 . S
H471 C479 0.950 . S
H472 C484 0.950 . S
H473 C481 0.950 . S
H474 C483 0.950 . S
H475 C485 0.950 . S
H476 C487 0.950 . S
H477 C489 0.950 . S
H478 C490 0.950 . S
C479 H471 0.950 . S
C479 C480 1.386 . S
C479 C481 1.391 . S
C480 C479 1.386 . S
C480 C484 1.393 . S
C481 H473 0.950 . S
C481 C479 1.391 . S
C481 C482 1.400 . S
C482 C481 1.400 . S
C482 C483 1.398 . S
C482 C488 1.491 . S
C483 H474 0.950 . S
C483 C482 1.398 . S
C483 C484 1.391 . S
C484 H472 0.950 . S
C484 C480 1.393 . S
C484 C483 1.391 . S
C485 H475 0.950 . S
C485 C486 1.386 . S
C485 C487 1.391 . S
C486 C485 1.386 . S
C486 C490 1.393 . S
C487 H476 0.950 . S
C487 C485 1.391 . S
C487 C488 1.400 . S
C488 C482 1.491 . S
C488 C487 1.400 . S
C488 C489 1.398 . S
C489 H477 0.950 . S
C489 C488 1.398 . S
C489 C490 1.391 . S
C490 H478 0.950 . S
C490 C486 1.393 . S
C490 C489 1.391 . S
H491 C499 0.950 . S
H492 C504 0.950 . S
H493 C501 0.950 . S
H494 C503 0.950 . S
H495 C505 0.950 . S
H496 C507 0.950 . S
H497 C509 0.950 . S
H498 C510 0.950 . S
C499 H491 0.950 . S
C499 C500 1.386 . S
C499 C501 1.391 . S
C500 C499 1.386 . S
C500 C504 1.393 . S
C501 H493 0.950 . S
C501 C499 1.391 . S
C501 C502 1.400 . S
C502 C501 1.400 . S
C502 C503 1.398 . S
C502 C508 1.491 . S
C503 H494 0.950 . S
C503 C502 1.398 . S
C503 C504 1.391 . S
C504 H492 0.950 . S
C504 C500 1.393 . S
C504 C503 1.391 . S
C505 H495 0.950 . S
C505 C506 1.386 . S
C505 C507 1.391 . S
C506 C505 1.386 . S
C506 C510 1.393 . S
C507 H496 0.950 . S
C507 C505 1.391 . S
C507 C508 1.400 . S
C508 C502 1.491 . S
C508 C507 1.400 . S
C508 C509 1.398 . S
C509 H497 0.950 . S
C509 C508 1.398 . S
C509 C510 1.391 . S
C510 H498 0.950 . S
C510 C506 1.393 . S
C510 C509 1.391 . S
H511 C519 0.950 . S
H512 C524 0.950 . S
H513 C521 0.950 . S
H514 C523 0.950 . S
H515 C525 0.950 . S
H516 C527 0.950 . S
H517 C529 0.950 . S
H518 C530 0.950 . S
C519 H511 0.950 . S
C519 C520 1.386 . S
C519 C521 1.391 . S
C520 C519 1.386 . S
C520 C524 1.393 . S
C521 H513 0.950 . S
C521 C519 1.391 . S
C521 C522 1.400 . S
C522 C521 1.400 . S
C522 C523 1.398 . S
C522 C528 1.491 . S
C523 H514 0.950 . S
C523 C522 1.398 . S
C523 C524 1.391 . S
C524 H512 0.950 . S
C524 C520 1.393 . S
C524 C523 1.391 . S
C525 H515 0.950 . S
C525 C526 1.386 . S
C525 C527 1.391 . S
C526 C525 1.386 . S
C526 C530 1.393 . S
C527 H516 0.950 . S
C527 C525 1.391 . S
C527 C528 1.400 . S
C528 C522 1.491 . S
C528 C527 1.400 . S
C528 C529 1.398 . S
C529 H517 0.950 . S
C529 C528 1.398 . S
C529 C530 1.391 . S
C530 H518 0.950 . S
C530 C526 1.393 . S
C530 C529 1.391 . S
H531 C539 0.950 . S
H532 C544 0.950 . S
H533 C541 0.950 . S
H534 C543 0.950 . S
H535 C545 0.950 . S
H536 C547 0.950 . S
H537 C549 0.950 . S
H538 C550 0.950 . S
C539 H531 0.950 . S
C539 C540 1.386 . S
C539 C541 1.391 . S
C540 C539 1.386 . S
C540 C544 1.393 . S
C541 H533 0.950 . S
C541 C539 1.391 . S
C541 C542 1.400 . S
C542 C541 1.400 . S
C542 C543 1.398 . S
C542 C548 1.491 . S
C543 H534 0.950 . S
C543 C542 1.398 . S
C543 C544 1.391 . S
C544 H532 0.950 . S
C544 C540 1.393 . S
C544 C543 1.391 . S
C545 H535 0.950 . S
C545 C546 1.386 . S
C545 C547 1.391 . S
C546 C545 1.386 . S
C546 C550 1.393 . S
C547 H536 0.950 . S
C547 C545 1.391 . S
C547 C548 1.400 . S
C548 C542 1.491 . S
C548 C547 1.400 . S
C548 C549 1.398 . S
C549 H537 0.950 . S
C549 C548 1.398 . S
C549 C550 1.391 . S
C550 H538 0.950 . S
C550 C546 1.393 . S
C550 C549 1.391 . S
H551 C559 0.950 . S
H552 C564 0.950 . S
H553 C561 0.950 . S
H554 C563 0.950 . S
H555 C565 0.950 . S
H556 C567 0.950 . S
H557 C569 0.950 . S
H558 C570 0.950 . S
C559 H551 0.950 . S
C559 C560 1.386 . S
C559 C561 1.391 . S
C560 C559 1.386 . S
C560 C564 1.393 . S
C561 H553 0.950 . S
C561 C559 1.391 . S
C561 C562 1.400 . S
C562 C561 1.400 . S
C562 C563 1.398 . S
C562 C568 1.491 . S
C563 H554 0.950 . S
C563 C562 1.398 . S
C563 C564 1.391 . S
C564 H552 0.950 . S
C564 C560 1.393 . S
C564 C563 1.391 . S
C565 H555 0.950 . S
C565 C566 1.386 . S
C565 C567 1.391 . S
C566 C565 1.386 . S
C566 C570 1.393 . S
C567 H556 0.950 . S
C567 C565 1.391 . S
C567 C568 1.400 . S
C568 C562 1.491 . S
C568 C567 1.400 . S
C568 C569 1.398 . S
C569 H557 0.950 . S
C569 C568 1.398 . S
C569 C570 1.391 . S
C570 H558 0.950 . S
C570 C566 1.393 . S
C570 C569 1.391 . S
H571 C579 0.950 . S
H572 C584 0.950 1_554 S
H573 C581 0.950 . S
H574 C583 0.950 . S
H575 C585 0.950 . S
H576 C587 0.950 . S
H577 C589 0.950 . S
H578 C590 0.950 . S
C579 H571 0.950 . S
C579 C580 1.386 . S
C579 C581 1.391 . S
C580 C579 1.386 . S
C580 C584 1.393 . S
C581 H573 0.950 . S
C581 C579 1.391 . S
C581 C582 1.400 . S
C582 C581 1.400 . S
C582 C583 1.398 . S
C582 C588 1.491 . S
C583 H574 0.950 . S
C583 C582 1.398 . S
C583 C584 1.391 . S
C584 H572 0.950 1_556 S
C584 C580 1.393 . S
C584 C583 1.391 . S
C585 H575 0.950 . S
C585 C586 1.386 . S
C585 C587 1.391 . S
C586 C585 1.386 . S
C586 C590 1.393 . S
C587 H576 0.950 . S
C587 C585 1.391 . S
C587 C588 1.400 . S
C588 C582 1.491 . S
C588 C587 1.400 . S
C588 C589 1.398 . S
C589 H577 0.950 . S
C589 C588 1.398 . S
C589 C590 1.391 . S
C590 H578 0.950 . S
C590 C586 1.393 . S
C590 C589 1.391 . S
H591 C599 0.950 1_554 S
H592 C604 0.950 . S
H593 C601 0.950 . S
H594 C603 0.950 . S
H595 C605 0.950 . S
H596 C607 0.950 . S
H597 C609 0.950 . S
H598 C610 0.950 . S
C599 H591 0.950 1_556 S
C599 C600 1.386 . S
C599 C601 1.391 . S
C600 C599 1.386 . S
C600 C604 1.393 . S
C601 H593 0.950 . S
C601 C599 1.391 . S
C601 C602 1.400 . S
C602 C601 1.400 . S
C602 C603 1.398 . S
C602 C608 1.491 . S
C603 H594 0.950 . S
C603 C602 1.398 . S
C603 C604 1.391 . S
C604 H592 0.950 . S
C604 C600 1.393 . S
C604 C603 1.391 . S
C605 H595 0.950 . S
C605 C606 1.386 . S
C605 C607 1.391 . S
C606 C605 1.386 . S
C606 C610 1.393 . S
C607 H596 0.950 . S
C607 C605 1.391 . S
C607 C608 1.400 . S
C608 C602 1.491 . S
C608 C607 1.400 . S
C608 C609 1.398 . S
C609 H597 0.950 . S
C609 C608 1.398 . S
C609 C610 1.391 . S
C610 H598 0.950 . S
C610 C606 1.393 . S
C610 C609 1.391 . S
H611 C619 0.950 . S
H612 C624 0.950 . S
H613 C621 0.950 . S
H614 C623 0.950 . S
H615 C625 0.950 . S
H616 C627 0.950 . S
H617 C629 0.950 . S
H618 C630 0.950 . S
C619 H611 0.950 . S
C619 C620 1.386 . S
C619 C621 1.391 1_554 S
C620 C619 1.386 . S
C620 C624 1.393 . S
C621 H613 0.950 . S
C621 C619 1.391 1_556 S
C621 C622 1.400 . S
C622 C621 1.400 . S
C622 C623 1.398 . S
C622 C628 1.491 . S
C623 H614 0.950 . S
C623 C622 1.398 . S
C623 C624 1.391 1_556 S
C624 H612 0.950 . S
C624 C620 1.393 . S
C624 C623 1.391 1_554 S
C625 H615 0.950 . S
C625 C626 1.386 . S
C625 C627 1.391 . S
C626 C625 1.386 . S
C626 C630 1.393 . S
C627 H616 0.950 . S
C627 C625 1.391 . S
C627 C628 1.400 . S
C628 C622 1.491 . S
C628 C627 1.400 . S
C628 C629 1.398 . S
C629 H617 0.950 . S
C629 C628 1.398 . S
C629 C630 1.391 . S
C630 H618 0.950 . S
C630 C626 1.393 . S
C630 C629 1.391 . S
H631 C639 0.950 . S
H632 C644 0.950 . S
H633 C641 0.950 . S
H634 C643 0.950 . S
H635 C645 0.950 . S
H636 C647 0.950 . S
H637 C649 0.950 . S
H638 C650 0.950 . S
C639 H631 0.950 . S
C639 C640 1.386 1_554 S
C639 C641 1.391 1_554 S
C640 C639 1.386 1_556 S
C640 C644 1.393 . S
C641 H633 0.950 . S
C641 C639 1.391 1_556 S
C641 C642 1.400 . S
C642 C641 1.400 . S
C642 C643 1.398 . S
C642 C648 1.491 . S
C643 H634 0.950 . S
C643 C642 1.398 . S
C643 C644 1.391 . S
C644 H632 0.950 . S
C644 C640 1.393 . S
C644 C643 1.391 . S
C645 H635 0.950 . S
C645 C646 1.386 . S
C645 C647 1.391 . S
C646 C645 1.386 . S
C646 C650 1.393 . S
C647 H636 0.950 . S
C647 C645 1.391 . S
C647 C648 1.400 . S
C648 C642 1.491 . S
C648 C647 1.400 . S
C648 C649 1.398 . S
C649 H637 0.950 . S
C649 C648 1.398 . S
C649 C650 1.391 . S
C650 H638 0.950 . S
C650 C646 1.393 . S
C650 C649 1.391 . S
H651 C659 0.950 . S
H652 C664 0.950 . S
H653 C661 0.950 . S
H654 C663 0.950 . S
H655 C665 0.950 . S
H656 C667 0.950 . S
H657 C669 0.950 . S
H658 C670 0.950 . S
C659 H651 0.950 . S
C659 C660 1.386 . S
C659 C661 1.391 . S
C660 C659 1.386 . S
C660 C664 1.393 . S
C661 H653 0.950 . S
C661 C659 1.391 . S
C661 C662 1.400 . S
C662 C661 1.400 . S
C662 C663 1.398 . S
C662 C668 1.491 . S
C663 H654 0.950 . S
C663 C662 1.398 . S
C663 C664 1.391 . S
C664 H652 0.950 . S
C664 C660 1.393 . S
C664 C663 1.391 . S
C665 H655 0.950 . S
C665 C666 1.386 . S
C665 C667 1.391 . S
C666 C665 1.386 . S
C666 C670 1.393 . S
C667 H656 0.950 . S
C667 C665 1.391 . S
C667 C668 1.400 . S
C668 C662 1.491 . S
C668 C667 1.400 . S
C668 C669 1.398 . S
C669 H657 0.950 . S
C669 C668 1.398 . S
C669 C670 1.391 . S
C670 H658 0.950 . S
C670 C666 1.393 . S
C670 C669 1.391 . S
H671 C679 0.950 . S
H672 C684 0.950 . S
H673 C681 0.950 . S
H674 C683 0.950 . S
H675 C685 0.950 . S
H676 C687 0.950 . S
H677 C689 0.950 . S
H678 C690 0.950 . S
C679 H671 0.950 . S
C679 C680 1.386 . S
C679 C681 1.391 . S
C680 C679 1.386 . S
C680 C684 1.393 . S
C681 H673 0.950 . S
C681 C679 1.391 . S
C681 C682 1.400 . S
C682 C681 1.400 . S
C682 C683 1.398 . S
C682 C688 1.491 . S
C683 H674 0.950 . S
C683 C682 1.398 . S
C683 C684 1.391 . S
C684 H672 0.950 . S
C684 C680 1.393 . S
C684 C683 1.391 . S
C685 H675 0.950 . S
C685 C686 1.386 . S
C685 C687 1.391 . S
C686 C685 1.386 . S
C686 C690 1.393 . S
C687 H676 0.950 . S
C687 C685 1.391 . S
C687 C688 1.400 . S
C688 C682 1.491 . S
C688 C687 1.400 . S
C688 C689 1.398 . S
C689 H677 0.950 . S
C689 C688 1.398 . S
C689 C690 1.391 . S
C690 H678 0.950 . S
C690 C686 1.393 . S
C690 C689 1.391 . S
H691 C699 0.950 1_554 S
H692 C704 0.950 . S
H693 C701 0.950 . S
H694 C703 0.950 . S
H695 C705 0.950 . S
H696 C707 0.950 . S
H697 C709 0.950 . S
H698 C710 0.950 . S
C699 H691 0.950 1_556 S
C699 C700 1.386 . S
C699 C701 1.391 . S
C700 C699 1.386 . S
C700 C704 1.393 . S
C701 H693 0.950 . S
C701 C699 1.391 . S
C701 C702 1.400 . S
C702 C701 1.400 . S
C702 C703 1.398 . S
C702 C708 1.491 . S
C703 H694 0.950 . S
C703 C702 1.398 . S
C703 C704 1.391 . S
C704 H692 0.950 . S
C704 C700 1.393 . S
C704 C703 1.391 . S
C705 H695 0.950 . S
C705 C706 1.386 . S
C705 C707 1.391 . S
C706 C705 1.386 . S
C706 C710 1.393 . S
C707 H696 0.950 . S
C707 C705 1.391 . S
C707 C708 1.400 . S
C708 C702 1.491 . S
C708 C707 1.400 . S
C708 C709 1.398 . S
C709 H697 0.950 . S
C709 C708 1.398 . S
C709 C710 1.391 . S
C710 H698 0.950 . S
C710 C706 1.393 . S
C710 C709 1.391 . S
H711 C719 0.950 1_556 S
H712 C724 0.950 . S
H713 C721 0.950 . S
H714 C723 0.950 . S
H715 C725 0.950 . S
H716 C727 0.950 . S
H717 C729 0.950 . S
H718 C730 0.950 . S
C719 H711 0.950 1_554 S
C719 C720 1.386 . S
C719 C721 1.391 1_554 S
C720 C719 1.386 . S
C720 C724 1.393 . S
C721 H713 0.950 . S
C721 C719 1.391 1_556 S
C721 C722 1.400 . S
C722 C721 1.400 . S
C722 C723 1.398 1_556 S
C722 C728 1.491 . S
C723 H714 0.950 . S
C723 C722 1.398 1_554 S
C723 C724 1.391 . S
C724 H712 0.950 . S
C724 C720 1.393 . S
C724 C723 1.391 . S
C725 H715 0.950 . S
C725 C726 1.386 . S
C725 C727 1.391 . S
C726 C725 1.386 . S
C726 C730 1.393 . S
C727 H716 0.950 . S
C727 C725 1.391 . S
C727 C728 1.400 . S
C728 C722 1.491 . S
C728 C727 1.400 . S
C728 C729 1.398 . S
C729 H717 0.950 . S
C729 C728 1.398 . S
C729 C730 1.391 . S
C730 H718 0.950 . S
C730 C726 1.393 . S
C730 C729 1.391 . S
H731 C739 0.950 . S
H732 C744 0.950 . S
H733 C741 0.950 . S
H734 C743 0.950 . S
H735 C745 0.950 . S
H736 C747 0.950 . S
H737 C749 0.950 . S
H738 C750 0.950 . S
C739 H731 0.950 . S
C739 C740 1.386 . S
C739 C741 1.391 . S
C740 C739 1.386 . S
C740 C744 1.393 . S
C741 H733 0.950 . S
C741 C739 1.391 . S
C741 C742 1.400 . S
C742 C741 1.400 . S
C742 C743 1.398 . S
C742 C748 1.491 . S
C743 H734 0.950 . S
C743 C742 1.398 . S
C743 C744 1.391 . S
C744 H732 0.950 . S
C744 C740 1.393 . S
C744 C743 1.391 . S
C745 H735 0.950 . S
C745 C746 1.386 . S
C745 C747 1.391 . S
C746 C745 1.386 . S
C746 C750 1.393 . S
C747 H736 0.950 . S
C747 C745 1.391 . S
C747 C748 1.400 . S
C748 C742 1.491 . S
C748 C747 1.400 . S
C748 C749 1.398 . S
C749 H737 0.950 . S
C749 C748 1.398 . S
C749 C750 1.391 . S
C750 H738 0.950 . S
C750 C746 1.393 . S
C750 C749 1.391 . S
H751 C759 0.950 . S
H752 C764 0.950 . S
H753 C761 0.950 . S
H754 C763 0.950 . S
H755 C765 0.950 . S
H756 C767 0.950 . S
H757 C769 0.950 . S
H758 C770 0.950 . S
C759 H751 0.950 . S
C759 C760 1.386 . S
C759 C761 1.391 . S
C760 C759 1.386 . S
C760 C764 1.393 . S
C761 H753 0.950 . S
C761 C759 1.391 . S
C761 C762 1.400 . S
C762 C761 1.400 . S
C762 C763 1.398 . S
C762 C768 1.491 . S
C763 H754 0.950 . S
C763 C762 1.398 . S
C763 C764 1.391 . S
C764 H752 0.950 . S
C764 C760 1.393 . S
C764 C763 1.391 . S
C765 H755 0.950 . S
C765 C766 1.386 . S
C765 C767 1.391 . S
C766 C765 1.386 . S
C766 C770 1.393 . S
C767 H756 0.950 . S
C767 C765 1.391 . S
C767 C768 1.400 . S
C768 C762 1.491 . S
C768 C767 1.400 . S
C768 C769 1.398 . S
C769 H757 0.950 . S
C769 C768 1.398 . S
C769 C770 1.391 . S
C770 H758 0.950 . S
C770 C766 1.393 . S
C770 C769 1.391 . S
H771 C779 0.950 . S
H772 C784 0.950 . S
H773 C781 0.950 . S
H774 C783 0.950 . S
H775 C785 0.950 . S
H776 C787 0.950 . S
H777 C789 0.950 . S
H778 C790 0.950 . S
C779 H771 0.950 . S
C779 C780 1.386 . S
C779 C781 1.391 . S
C780 C779 1.386 . S
C780 C784 1.393 . S
C781 H773 0.950 . S
C781 C779 1.391 . S
C781 C782 1.400 . S
C782 C781 1.400 . S
C782 C783 1.398 . S
C782 C788 1.491 . S
C783 H774 0.950 . S
C783 C782 1.398 . S
C783 C784 1.391 . S
C784 H772 0.950 . S
C784 C780 1.393 . S
C784 C783 1.391 . S
C785 H775 0.950 . S
C785 C786 1.386 . S
C785 C787 1.391 . S
C786 C785 1.386 . S
C786 C790 1.393 . S
C787 H776 0.950 . S
C787 C785 1.391 . S
C787 C788 1.400 . S
C788 C782 1.491 . S
C788 C787 1.400 . S
C788 C789 1.398 . S
C789 H777 0.950 . S
C789 C788 1.398 . S
C789 C790 1.391 . S
C790 H778 0.950 . S
C790 C786 1.393 . S
C790 C789 1.391 . S
H791 C799 0.950 . S
H792 C804 0.950 . S
H793 C801 0.950 . S
H794 C803 0.950 . S
H795 C805 0.950 . S
H796 C807 0.950 . S
H797 C809 0.950 . S
H798 C810 0.950 . S
C799 H791 0.950 . S
C799 C800 1.386 . S
C799 C801 1.391 . S
C800 C799 1.386 . S
C800 C804 1.393 . S
C801 H793 0.950 . S
C801 C799 1.391 . S
C801 C802 1.400 . S
C802 C801 1.400 . S
C802 C803 1.398 . S
C802 C808 1.491 . S
C803 H794 0.950 . S
C803 C802 1.398 . S
C803 C804 1.391 . S
C804 H792 0.950 . S
C804 C800 1.393 . S
C804 C803 1.391 . S
C805 H795 0.950 . S
C805 C806 1.386 . S
C805 C807 1.391 . S
C806 C805 1.386 . S
C806 C810 1.393 . S
C807 H796 0.950 . S
C807 C805 1.391 . S
C807 C808 1.400 . S
C808 C802 1.491 . S
C808 C807 1.400 . S
C808 C809 1.398 . S
C809 H797 0.950 . S
C809 C808 1.398 . S
C809 C810 1.391 . S
C810 H798 0.950 . S
C810 C806 1.393 . S
C810 C809 1.391 . S
H811 C819 0.950 . S
H812 C824 0.950 . S
H813 C821 0.950 . S
H814 C823 0.950 . S
H815 C825 0.950 . S
H816 C827 0.950 . S
H817 C829 0.950 . S
H818 C830 0.950 . S
C819 H811 0.950 . S
C819 C820 1.386 . S
C819 C821 1.391 . S
C820 C819 1.386 . S
C820 C824 1.393 . S
C821 H813 0.950 . S
C821 C819 1.391 . S
C821 C822 1.400 . S
C822 C821 1.400 . S
C822 C823 1.398 . S
C822 C828 1.491 . S
C823 H814 0.950 . S
C823 C822 1.398 . S
C823 C824 1.391 . S
C824 H812 0.950 . S
C824 C820 1.393 . S
C824 C823 1.391 . S
C825 H815 0.950 . S
C825 C826 1.386 . S
C825 C827 1.391 . S
C826 C825 1.386 . S
C826 C830 1.393 . S
C827 H816 0.950 . S
C827 C825 1.391 . S
C827 C828 1.400 . S
C828 C822 1.491 . S
C828 C827 1.400 . S
C828 C829 1.398 . S
C829 H817 0.950 . S
C829 C828 1.398 . S
C829 C830 1.391 . S
C830 H818 0.950 . S
C830 C826 1.393 . S
C830 C829 1.391 . S
H831 C839 0.950 . S
H832 C844 0.950 . S
H833 C841 0.950 . S
H834 C843 0.950 . S
H835 C845 0.950 . S
H836 C847 0.950 . S
H837 C849 0.950 . S
H838 C850 0.950 . S
C839 H831 0.950 . S
C839 C840 1.386 . S
C839 C841 1.391 . S
C840 C839 1.386 . S
C840 C844 1.393 . S
C841 H833 0.950 . S
C841 C839 1.391 . S
C841 C842 1.400 . S
C842 C841 1.400 . S
C842 C843 1.398 . S
C842 C848 1.491 . S
C843 H834 0.950 . S
C843 C842 1.398 . S
C843 C844 1.391 . S
C844 H832 0.950 . S
C844 C840 1.393 . S
C844 C843 1.391 . S
C845 H835 0.950 . S
C845 C846 1.386 . S
C845 C847 1.391 . S
C846 C845 1.386 . S
C846 C850 1.393 . S
C847 H836 0.950 . S
C847 C845 1.391 . S
C847 C848 1.400 . S
C848 C842 1.491 . S
C848 C847 1.400 . S
C848 C849 1.398 . S
C849 H837 0.950 . S
C849 C848 1.398 . S
C849 C850 1.391 . S
C850 H838 0.950 . S
C850 C846 1.393 . S
C850 C849 1.391 . S
H851 C859 0.950 . S
H852 C864 0.950 . S
H853 C861 0.950 . S
H854 C863 0.950 . S
H855 C865 0.950 . S
H856 C867 0.950 . S
H857 C869 0.950 . S
H858 C870 0.950 . S
C859 H851 0.950 . S
C859 C860 1.386 . S
C859 C861 1.391 . S
C860 C859 1.386 . S
C860 C864 1.393 . S
C861 H853 0.950 . S
C861 C859 1.391 . S
C861 C862 1.400 . S
C862 C861 1.400 . S
C862 C863 1.398 . S
C862 C868 1.491 . S
C863 H854 0.950 . S
C863 C862 1.398 . S
C863 C864 1.391 . S
C864 H852 0.950 . S
C864 C860 1.393 . S
C864 C863 1.391 . S
C865 H855 0.950 . S
C865 C866 1.386 . S
C865 C867 1.391 . S
C866 C865 1.386 . S
C866 C870 1.393 . S
C867 H856 0.950 . S
C867 C865 1.391 . S
C867 C868 1.400 . S
C868 C862 1.491 . S
C868 C867 1.400 . S
C868 C869 1.398 . S
C869 H857 0.950 . S
C869 C868 1.398 . S
C869 C870 1.391 . S
C870 H858 0.950 . S
C870 C866 1.393 . S
C870 C869 1.391 . S
H871 C879 0.950 . S
H872 C884 0.950 . S
H873 C881 0.950 . S
H874 C883 0.950 . S
H875 C885 0.950 . S
H876 C887 0.950 . S
H877 C889 0.950 . S
H878 C890 0.950 . S
C879 H871 0.950 . S
C879 C880 1.386 . S
C879 C881 1.391 . S
C880 C879 1.386 . S
C880 C884 1.393 . S
C881 H873 0.950 . S
C881 C879 1.391 . S
C881 C882 1.400 . S
C882 C881 1.400 . S
C882 C883 1.398 . S
C882 C888 1.491 . S
C883 H874 0.950 . S
C883 C882 1.398 . S
C883 C884 1.391 . S
C884 H872 0.950 . S
C884 C880 1.393 . S
C884 C883 1.391 . S
C885 H875 0.950 . S
C885 C886 1.386 . S
C885 C887 1.391 . S
C886 C885 1.386 . S
C886 C890 1.393 . S
C887 H876 0.950 . S
C887 C885 1.391 . S
C887 C888 1.400 . S
C888 C882 1.491 . S
C888 C887 1.400 . S
C888 C889 1.398 . S
C889 H877 0.950 . S
C889 C888 1.398 . S
C889 C890 1.391 . S
C890 H878 0.950 . S
C890 C886 1.393 . S
C890 C889 1.391 . S
C420 C22 1.780 . S
C426 C318 1.694 . S
C440 C92 1.786 . S
C446 C350 1.758 . S
C466 C409 2.026 . S
C460 C144 2.078 . S
C486 C338 1.568 . S
C480 C197 1.601 . S
C500 C250 1.873 . S
C506 C368 1.781 . S
C526 C390 1.257 . S
C520 C287 1.274 . S
C546 C359 1.814 . S
C540 C145 1.835 . S
C560 C198 1.454 . S
C566 C399 1.392 . S
C586 C348 1.790 . S
C580 C251 1.813 . S
C600 C294 1.531 1_556 S
C606 C378 1.496 . S
C620 C29 1.829 . S
C626 C381 1.791 . S
C646 C320 1.849 . S
C640 C91 1.868 1_556 S
C666 C328 1.463 . S
C660 C188 1.514 . S
C686 C369 1.298 . S
C680 C241 1.321 . S
C706 C382 1.865 . S
C700 C304 1.913 1_556 S
C726 C319 1.438 . S
C720 C39 1.457 . S
C746 C379 1.344 . S
C740 C75 1.376 . S
C760 C135 1.127 . S
C766 C380 1.117 . S
C786 C349 1.565 . S
C780 C303 1.629 . S
C806 C410 1.144 . S
C800 C38 1.182 . S
C826 C337 1.322 . S
C820 C82 1.401 . S
C846 C351 1.382 . S
C840 C128 1.407 . S
C860 C181 1.672 . S
C866 C400 1.629 . S
C880 C234 1.417 . S
C886 C347 1.394 . S
