# Generated by pormake.
# Topology gar, (4,6)-cn, num edge types: 1
# Building blocks:
#     Node 0, Type 0, BuildingBlock: NAHDIM_clean_sbu_0, # of connection points: 4
#     Node 1, Type 0, BuildingBlock: NAHDIM_clean_sbu_0, # of connection points: 4
#     Node 2, Type 0, BuildingBlock: NAHDIM_clean_sbu_0, # of connection points: 4
#     Node 3, Type 0, BuildingBlock: NAHDIM_clean_sbu_0, # of connection points: 4
#     Node 4, Type 0, BuildingBlock: NAHDIM_clean_sbu_0, # of connection points: 4
#     Node 5, Type 0, BuildingBlock: NAHDIM_clean_sbu_0, # of connection points: 4
#     Node 6, Type 0, BuildingBlock: NAHDIM_clean_sbu_0, # of connection points: 4
#     Node 7, Type 0, BuildingBlock: NAHDIM_clean_sbu_0, # of connection points: 4
#     Node 8, Type 0, BuildingBlock: NAHDIM_clean_sbu_0, # of connection points: 4
#     Node 9, Type 0, BuildingBlock: NAHDIM_clean_sbu_0, # of connection points: 4
#     Node 10, Type 0, BuildingBlock: NAHDIM_clean_sbu_0, # of connection points: 4
#     Node 11, Type 0, BuildingBlock: NAHDIM_clean_sbu_0, # of connection points: 4
#     Node 12, Type 0, BuildingBlock: NAHDIM_clean_sbu_0, # of connection points: 4
#     Node 13, Type 0, BuildingBlock: NAHDIM_clean_sbu_0, # of connection points: 4
#     Node 14, Type 0, BuildingBlock: NAHDIM_clean_sbu_0, # of connection points: 4
#     Node 15, Type 0, BuildingBlock: NAHDIM_clean_sbu_0, # of connection points: 4
#     Node 16, Type 0, BuildingBlock: NAHDIM_clean_sbu_0, # of connection points: 4
#     Node 17, Type 0, BuildingBlock: NAHDIM_clean_sbu_0, # of connection points: 4
#     Node 18, Type 0, BuildingBlock: NAHDIM_clean_sbu_0, # of connection points: 4
#     Node 19, Type 0, BuildingBlock: NAHDIM_clean_sbu_0, # of connection points: 4
#     Node 20, Type 0, BuildingBlock: NAHDIM_clean_sbu_0, # of connection points: 4
#     Node 21, Type 0, BuildingBlock: NAHDIM_clean_sbu_0, # of connection points: 4
#     Node 22, Type 0, BuildingBlock: NAHDIM_clean_sbu_0, # of connection points: 4
#     Node 23, Type 0, BuildingBlock: NAHDIM_clean_sbu_0, # of connection points: 4
#     Node 24, Type 1, BuildingBlock: HISSIN_clean_sbu_0, # of connection points: 6
#     Node 25, Type 1, BuildingBlock: HISSIN_clean_sbu_0, # of connection points: 6
#     Node 26, Type 1, BuildingBlock: HISSIN_clean_sbu_0, # of connection points: 6
#     Node 27, Type 1, BuildingBlock: HISSIN_clean_sbu_0, # of connection points: 6
#     Node 28, Type 1, BuildingBlock: HISSIN_clean_sbu_0, # of connection points: 6
#     Node 29, Type 1, BuildingBlock: HISSIN_clean_sbu_0, # of connection points: 6
#     Node 30, Type 1, BuildingBlock: HISSIN_clean_sbu_0, # of connection points: 6
#     Node 31, Type 1, BuildingBlock: HISSIN_clean_sbu_0, # of connection points: 6
#     Node 32, Type 1, BuildingBlock: HISSIN_clean_sbu_0, # of connection points: 6
#     Node 33, Type 1, BuildingBlock: HISSIN_clean_sbu_0, # of connection points: 6
#     Node 34, Type 1, BuildingBlock: HISSIN_clean_sbu_0, # of connection points: 6
#     Node 35, Type 1, BuildingBlock: HISSIN_clean_sbu_0, # of connection points: 6
#     Node 36, Type 1, BuildingBlock: HISSIN_clean_sbu_0, # of connection points: 6
#     Node 37, Type 1, BuildingBlock: HISSIN_clean_sbu_0, # of connection points: 6
#     Node 38, Type 1, BuildingBlock: HISSIN_clean_sbu_0, # of connection points: 6
#     Node 39, Type 1, BuildingBlock: HISSIN_clean_sbu_0, # of connection points: 6
#     Edge 40, Type (0, 1), BuildingBlock: TEMPAE_clean_linker_10, # of connection points: 2
#     Edge 41, Type (0, 1), BuildingBlock: TEMPAE_clean_linker_10, # of connection points: 2
#     Edge 42, Type (0, 1), BuildingBlock: TEMPAE_clean_linker_10, # of connection points: 2
#     Edge 43, Type (0, 1), BuildingBlock: TEMPAE_clean_linker_10, # of connection points: 2
#     Edge 44, Type (0, 1), BuildingBlock: TEMPAE_clean_linker_10, # of connection points: 2
#     Edge 45, Type (0, 1), BuildingBlock: TEMPAE_clean_linker_10, # of connection points: 2
#     Edge 46, Type (0, 1), BuildingBlock: TEMPAE_clean_linker_10, # of connection points: 2
#     Edge 47, Type (0, 1), BuildingBlock: TEMPAE_clean_linker_10, # of connection points: 2
#     Edge 48, Type (0, 1), BuildingBlock: TEMPAE_clean_linker_10, # of connection points: 2
#     Edge 49, Type (0, 1), BuildingBlock: TEMPAE_clean_linker_10, # of connection points: 2
#     Edge 50, Type (0, 1), BuildingBlock: TEMPAE_clean_linker_10, # of connection points: 2
#     Edge 51, Type (0, 1), BuildingBlock: TEMPAE_clean_linker_10, # of connection points: 2
#     Edge 52, Type (0, 1), BuildingBlock: TEMPAE_clean_linker_10, # of connection points: 2
#     Edge 53, Type (0, 1), BuildingBlock: TEMPAE_clean_linker_10, # of connection points: 2
#     Edge 54, Type (0, 1), BuildingBlock: TEMPAE_clean_linker_10, # of connection points: 2
#     Edge 55, Type (0, 1), BuildingBlock: TEMPAE_clean_linker_10, # of connection points: 2
#     Edge 56, Type (0, 1), BuildingBlock: TEMPAE_clean_linker_10, # of connection points: 2
#     Edge 57, Type (0, 1), BuildingBlock: TEMPAE_clean_linker_10, # of connection points: 2
#     Edge 58, Type (0, 1), BuildingBlock: TEMPAE_clean_linker_10, # of connection points: 2
#     Edge 59, Type (0, 1), BuildingBlock: TEMPAE_clean_linker_10, # of connection points: 2
#     Edge 60, Type (0, 1), BuildingBlock: TEMPAE_clean_linker_10, # of connection points: 2
#     Edge 61, Type (0, 1), BuildingBlock: TEMPAE_clean_linker_10, # of connection points: 2
#     Edge 62, Type (0, 1), BuildingBlock: TEMPAE_clean_linker_10, # of connection points: 2
#     Edge 63, Type (0, 1), BuildingBlock: TEMPAE_clean_linker_10, # of connection points: 2
#     Edge 64, Type (0, 1), BuildingBlock: TEMPAE_clean_linker_10, # of connection points: 2
#     Edge 65, Type (0, 1), BuildingBlock: TEMPAE_clean_linker_10, # of connection points: 2
#     Edge 66, Type (0, 1), BuildingBlock: TEMPAE_clean_linker_10, # of connection points: 2
#     Edge 67, Type (0, 1), BuildingBlock: TEMPAE_clean_linker_10, # of connection points: 2
#     Edge 68, Type (0, 1), BuildingBlock: TEMPAE_clean_linker_10, # of connection points: 2
#     Edge 69, Type (0, 1), BuildingBlock: TEMPAE_clean_linker_10, # of connection points: 2
#     Edge 70, Type (0, 1), BuildingBlock: TEMPAE_clean_linker_10, # of connection points: 2
#     Edge 71, Type (0, 1), BuildingBlock: TEMPAE_clean_linker_10, # of connection points: 2
#     Edge 72, Type (0, 1), BuildingBlock: TEMPAE_clean_linker_10, # of connection points: 2
#     Edge 73, Type (0, 1), BuildingBlock: TEMPAE_clean_linker_10, # of connection points: 2
#     Edge 74, Type (0, 1), BuildingBlock: TEMPAE_clean_linker_10, # of connection points: 2
#     Edge 75, Type (0, 1), BuildingBlock: TEMPAE_clean_linker_10, # of connection points: 2
#     Edge 76, Type (0, 1), BuildingBlock: TEMPAE_clean_linker_10, # of connection points: 2
#     Edge 77, Type (0, 1), BuildingBlock: TEMPAE_clean_linker_10, # of connection points: 2
#     Edge 78, Type (0, 1), BuildingBlock: TEMPAE_clean_linker_10, # of connection points: 2
#     Edge 79, Type (0, 1), BuildingBlock: TEMPAE_clean_linker_10, # of connection points: 2
#     Edge 80, Type (0, 1), BuildingBlock: TEMPAE_clean_linker_10, # of connection points: 2
#     Edge 81, Type (0, 1), BuildingBlock: TEMPAE_clean_linker_10, # of connection points: 2
#     Edge 82, Type (0, 1), BuildingBlock: TEMPAE_clean_linker_10, # of connection points: 2
#     Edge 83, Type (0, 1), BuildingBlock: TEMPAE_clean_linker_10, # of connection points: 2
#     Edge 84, Type (0, 1), BuildingBlock: TEMPAE_clean_linker_10, # of connection points: 2
#     Edge 85, Type (0, 1), BuildingBlock: TEMPAE_clean_linker_10, # of connection points: 2
#     Edge 86, Type (0, 1), BuildingBlock: TEMPAE_clean_linker_10, # of connection points: 2
#     Edge 87, Type (0, 1), BuildingBlock: TEMPAE_clean_linker_10, # of connection points: 2
#     Edge 88, Type (0, 1), BuildingBlock: TEMPAE_clean_linker_10, # of connection points: 2
#     Edge 89, Type (0, 1), BuildingBlock: TEMPAE_clean_linker_10, # of connection points: 2
#     Edge 90, Type (0, 1), BuildingBlock: TEMPAE_clean_linker_10, # of connection points: 2
#     Edge 91, Type (0, 1), BuildingBlock: TEMPAE_clean_linker_10, # of connection points: 2
#     Edge 92, Type (0, 1), BuildingBlock: TEMPAE_clean_linker_10, # of connection points: 2
#     Edge 93, Type (0, 1), BuildingBlock: TEMPAE_clean_linker_10, # of connection points: 2
#     Edge 94, Type (0, 1), BuildingBlock: TEMPAE_clean_linker_10, # of connection points: 2
#     Edge 95, Type (0, 1), BuildingBlock: TEMPAE_clean_linker_10, # of connection points: 2
#     Edge 96, Type (0, 1), BuildingBlock: TEMPAE_clean_linker_10, # of connection points: 2
#     Edge 97, Type (0, 1), BuildingBlock: TEMPAE_clean_linker_10, # of connection points: 2
#     Edge 98, Type (0, 1), BuildingBlock: TEMPAE_clean_linker_10, # of connection points: 2
#     Edge 99, Type (0, 1), BuildingBlock: TEMPAE_clean_linker_10, # of connection points: 2
#     Edge 100, Type (0, 1), BuildingBlock: TEMPAE_clean_linker_10, # of connection points: 2
#     Edge 101, Type (0, 1), BuildingBlock: TEMPAE_clean_linker_10, # of connection points: 2
#     Edge 102, Type (0, 1), BuildingBlock: TEMPAE_clean_linker_10, # of connection points: 2
#     Edge 103, Type (0, 1), BuildingBlock: TEMPAE_clean_linker_10, # of connection points: 2
#     Edge 104, Type (0, 1), BuildingBlock: TEMPAE_clean_linker_10, # of connection points: 2
#     Edge 105, Type (0, 1), BuildingBlock: TEMPAE_clean_linker_10, # of connection points: 2
#     Edge 106, Type (0, 1), BuildingBlock: TEMPAE_clean_linker_10, # of connection points: 2
#     Edge 107, Type (0, 1), BuildingBlock: TEMPAE_clean_linker_10, # of connection points: 2
#     Edge 108, Type (0, 1), BuildingBlock: TEMPAE_clean_linker_10, # of connection points: 2
#     Edge 109, Type (0, 1), BuildingBlock: TEMPAE_clean_linker_10, # of connection points: 2
#     Edge 110, Type (0, 1), BuildingBlock: TEMPAE_clean_linker_10, # of connection points: 2
#     Edge 111, Type (0, 1), BuildingBlock: TEMPAE_clean_linker_10, # of connection points: 2
#     Edge 112, Type (0, 1), BuildingBlock: TEMPAE_clean_linker_10, # of connection points: 2
#     Edge 113, Type (0, 1), BuildingBlock: TEMPAE_clean_linker_10, # of connection points: 2
#     Edge 114, Type (0, 1), BuildingBlock: TEMPAE_clean_linker_10, # of connection points: 2
#     Edge 115, Type (0, 1), BuildingBlock: TEMPAE_clean_linker_10, # of connection points: 2
#     Edge 116, Type (0, 1), BuildingBlock: TEMPAE_clean_linker_10, # of connection points: 2
#     Edge 117, Type (0, 1), BuildingBlock: TEMPAE_clean_linker_10, # of connection points: 2
#     Edge 118, Type (0, 1), BuildingBlock: TEMPAE_clean_linker_10, # of connection points: 2
#     Edge 119, Type (0, 1), BuildingBlock: TEMPAE_clean_linker_10, # of connection points: 2
#     Edge 120, Type (0, 1), BuildingBlock: TEMPAE_clean_linker_10, # of connection points: 2
#     Edge 121, Type (0, 1), BuildingBlock: TEMPAE_clean_linker_10, # of connection points: 2
#     Edge 122, Type (0, 1), BuildingBlock: TEMPAE_clean_linker_10, # of connection points: 2
#     Edge 123, Type (0, 1), BuildingBlock: TEMPAE_clean_linker_10, # of connection points: 2
#     Edge 124, Type (0, 1), BuildingBlock: TEMPAE_clean_linker_10, # of connection points: 2
#     Edge 125, Type (0, 1), BuildingBlock: TEMPAE_clean_linker_10, # of connection points: 2
#     Edge 126, Type (0, 1), BuildingBlock: TEMPAE_clean_linker_10, # of connection points: 2
#     Edge 127, Type (0, 1), BuildingBlock: TEMPAE_clean_linker_10, # of connection points: 2
#     Edge 128, Type (0, 1), BuildingBlock: TEMPAE_clean_linker_10, # of connection points: 2
#     Edge 129, Type (0, 1), BuildingBlock: TEMPAE_clean_linker_10, # of connection points: 2
#     Edge 130, Type (0, 1), BuildingBlock: TEMPAE_clean_linker_10, # of connection points: 2
#     Edge 131, Type (0, 1), BuildingBlock: TEMPAE_clean_linker_10, # of connection points: 2
#     Edge 132, Type (0, 1), BuildingBlock: TEMPAE_clean_linker_10, # of connection points: 2
#     Edge 133, Type (0, 1), BuildingBlock: TEMPAE_clean_linker_10, # of connection points: 2
#     Edge 134, Type (0, 1), BuildingBlock: TEMPAE_clean_linker_10, # of connection points: 2
#     Edge 135, Type (0, 1), BuildingBlock: TEMPAE_clean_linker_10, # of connection points: 2
# Relax obj value: 0.191
# Max RMSD: 0.284
# Mean RMSD: 0.169
data_MOF--net-gar--node1-NAHDIM_clean_sbu_0--node2-HISSIN_clean_sbu_0--edge1-TEMPAE_clean_linker_10
_symmetry_space_group_name_H-M    P1
_symmetry_Int_Tables_number       1
_symmetry_cell_setting            triclinic
loop_
_symmetry_equiv_pos_as_xyz
'x, y, z'
_cell_length_a     61.317889
_cell_length_b     59.964972
_cell_length_c     57.325012
_cell_angle_alpha  100.80135
_cell_angle_beta   93.742114
_cell_angle_gamma 101.31424
loop_
_atom_site_label
_atom_site_type_symbol
_atom_site_fract_x
_atom_site_fract_y
_atom_site_fract_z
_atom_type_partial_charge
C0 C 0.14469 0.33291 0.37996 0.0
O1 O 0.14252 0.34763 0.39931 0.0
O2 O 0.09648 0.28957 0.40692 0.0
Zn3 Zn 0.09889 0.31072 0.38334 0.0
O4 O 0.0938 0.3418 0.39892 0.0
C5 C 0.0616 0.2792 0.35067 0.0
O6 O 0.05984 0.26586 0.36649 0.0
O7 O 0.1288 0.31568 0.37126 0.0
C8 C 0.07514 0.34771 0.3963 0.0
O9 O 0.05814 0.33291 0.38315 0.0
C10 C 0.08032 0.289 0.41977 0.0
O11 O 0.06584 0.30205 0.41707 0.0
O12 O 0.07652 0.29782 0.35461 0.0
C13 C 0.96469 0.76684 0.65738 0.0
O14 O 0.96456 0.77382 0.63698 0.0
O15 O 0.0216 0.74505 0.64305 0.0
Zn16 Zn 0.01348 0.77471 0.65807 0.0
O17 O 0.01537 0.79683 0.63538 0.0
C18 C 0.0529 0.803 0.6883 0.0
O19 O 0.05728 0.8119 0.66942 0.0
O20 O 0.98314 0.76659 0.6686 0.0
C21 C 0.02642 0.79375 0.61745 0.0
O22 O 0.03614 0.77592 0.61384 0.0
C23 C 1.00832 0.72973 0.62745 0.0
O24 O 0.98882 0.73362 0.6205 0.0
O25 O 0.03499 0.78793 0.68741 0.0
C26 C 0.63228 0.79492 0.87097 0.0
O27 O 0.62309 0.77365 0.8727 0.0
O28 O 0.5844 0.78233 0.90396 0.0
Zn29 Zn 0.58933 0.8039 0.88124 0.0
O30 O 0.58171 0.83391 0.89592 0.0
C31 C 0.55646 0.77196 0.84409 0.0
O32 O 0.55401 0.75761 0.85892 0.0
O33 O 0.62098 0.81059 0.87443 0.0
C34 C 0.59511 0.84789 0.91249 0.0
O35 O 0.61369 0.84221 0.91968 0.0
C36 C 0.56713 0.78149 0.91514 0.0
O37 O 0.55282 0.79431 0.91094 0.0
O38 O 0.57024 0.79136 0.85018 0.0
C39 C 0.48239 0.28807 0.17567 0.0
O40 O 0.49059 0.30863 0.17128 0.0
O41 O 0.52688 0.24634 0.14177 0.0
Zn42 Zn 0.52387 0.27692 0.16104 0.0
O43 O 0.52869 0.3017 0.14128 0.0
C44 C 0.56452 0.28014 0.19032 0.0
O45 O 0.5706 0.27076 0.16985 0.0
O46 O 0.49345 0.27222 0.17177 0.0
C47 C 0.54778 0.31488 0.1419 0.0
O48 O 0.56447 0.31292 0.15636 0.0
C49 C 0.53901 0.24435 0.12468 0.0
O50 O 0.5502 0.26313 0.11874 0.0
O51 O 0.54529 0.28496 0.19089 0.0
C52 C 0.06918 0.79991 0.15344 0.0
O53 O 0.08271 0.78589 0.15621 0.0
O54 O 0.09731 0.77611 0.10841 0.0
Zn55 Zn 0.1 0.80999 0.12117 0.0
O56 O 0.10146 0.82698 0.09423 0.0
C57 C 0.14477 0.81364 0.13927 0.0
O58 O 0.14455 0.80007 0.11836 0.0
O59 O 0.07323 0.8133 0.13878 0.0
C60 C 0.10712 0.81859 0.07402 0.0
O61 O 0.11277 0.7983 0.07056 0.0
C62 C 0.07994 0.76408 0.09532 0.0
O63 O 0.06381 0.77427 0.08967 0.0
O64 O 0.12739 0.82123 0.14433 0.0
C65 C 0.56137 0.78494 0.40747 0.0
O66 O 0.56405 0.79462 0.4303 0.0
O67 O 0.51328 0.7667 0.44164 0.0
Zn68 Zn 0.51468 0.78218 0.4133 0.0
O69 O 0.51625 0.81619 0.4239 0.0
C70 C 0.47129 0.75396 0.38803 0.0
O71 O 0.47016 0.74113 0.40432 0.0
O72 O 0.54172 0.77792 0.39678 0.0
C73 C 0.50096 0.82319 0.43528 0.0
O74 O 0.48435 0.80789 0.44022 0.0
C75 C 0.52057 0.77849 0.46252 0.0
O76 O 0.52861 0.80091 0.46541 0.0
O77 O 0.48803 0.77052 0.38925 0.0
C78 C 0.5553 0.28617 0.63469 0.0
O79 O 0.55825 0.26597 0.62344 0.0
O80 O 0.6022 0.26929 0.61185 0.0
Zn81 Zn 0.6004 0.30243 0.62345 0.0
O82 O 0.60415 0.31826 0.59585 0.0
C83 C 0.64472 0.32386 0.64746 0.0
O84 O 0.65031 0.32452 0.62582 0.0
O85 O 0.57075 0.30413 0.6363 0.0
C86 C 0.61095 0.33988 0.59721 0.0
O87 O 0.61603 0.35381 0.61831 0.0
C88 C 0.59418 0.25894 0.59074 0.0
O89 O 0.58482 0.27026 0.57678 0.0
O90 O 0.6245 0.316 0.65026 0.0
C91 C 0.06384 0.28347 0.9134 0.0
O92 O 0.06792 0.29198 0.93648 0.0
O93 O 0.01634 0.26025 0.94718 0.0
Zn94 Zn 0.01841 0.28103 0.92363 0.0
O95 O 0.02435 0.31396 0.9415 0.0
C96 C 0.97505 0.28553 0.90616 0.0
O97 O 0.97715 0.30028 0.92666 0.0
O98 O 0.0437 0.27705 0.90402 0.0
C99 C 0.02808 0.33036 0.93019 0.0
O100 O 0.02821 0.32531 0.90689 0.0
C101 C 1.00563 0.26357 0.96533 0.0
O102 O 0.99459 0.28041 0.96814 0.0
O103 O 0.99039 0.27446 0.90136 0.0
C104 C 0.36355 0.05867 0.28676 0.0
O105 O 0.3621 0.03671 0.27699 0.0
O106 O 0.41683 0.04173 0.28292 0.0
Zn107 Zn 0.39933 0.04795 0.31064 0.0
O108 O 0.42129 0.06056 0.33981 0.0
C109 C 0.37583 0.01216 0.3336 0.0
O110 O 0.38351 0.02688 0.3538 0.0
O111 O 0.37914 0.06863 0.30332 0.0
C112 C 0.43272 0.04573 0.34331 0.0
O113 O 0.42908 0.02568 0.32817 0.0
C114 C 0.42907 0.05874 0.27658 0.0
O115 O 0.42951 0.07994 0.28817 0.0
O116 O 0.38047 0.01774 0.31391 0.0
C117 C 0.33458 0.18118 0.51054 0.0
O118 O 0.3407 0.20373 0.51224 0.0
O119 O 0.29043 0.2105 0.5372 0.0
Zn120 Zn 0.28997 0.19011 0.50445 0.0
O121 O 0.29507 0.20779 0.47742 0.0
C122 C 0.24167 0.17258 0.49377 0.0
O123 O 0.24146 0.19407 0.49198 0.0
O124 O 0.3139 0.17165 0.50677 0.0
C125 C 0.28543 0.19866 0.45649 0.0
O126 O 0.27187 0.17817 0.45281 0.0
C127 C 0.30291 0.23026 0.5462 0.0
O128 O 0.31698 0.2404 0.53312 0.0
O129 O 0.26028 0.16713 0.49831 0.0
C130 C 0.21087 0.98144 0.78917 0.0
O131 O 0.20499 0.98669 0.81081 0.0
O132 O 0.16608 0.023 0.74482 0.0
Zn133 Zn 0.18854 0.02607 0.77835 0.0
O134 O 0.16797 0.02832 0.80997 0.0
C135 C 0.20726 0.08075 0.78855 0.0
O136 O 0.18856 0.08107 0.79843 0.0
O137 O 0.20628 0.99446 0.77432 0.0
C138 C 0.17405 0.03104 0.83266 0.0
O139 O 0.19535 0.03259 0.83904 0.0
C140 C 0.1706 0.03536 0.72873 0.0
O141 O 0.18994 0.05019 0.73229 0.0
O142 O 0.21149 0.06055 0.78023 0.0
C143 C 0.24947 0.98286 0.99855 0.0
O144 O 0.24898 0.96927 0.9776 0.0
O145 O 0.2992 0.95606 0.03662 0.0
Zn146 Zn 0.29473 0.97063 1.00798 0.0
O147 O 0.28807 0.94348 0.97914 0.0
C148 C 0.34137 1.00119 0.02137 0.0
O149 O 0.33559 1.0052 0.04318 0.0
O150 O 0.26717 0.98698 0.01325 0.0
C151 C 0.29303 0.94617 0.95846 0.0
O152 O 0.30064 0.96729 0.95518 0.0
C153 C 0.28499 0.93878 0.04009 0.0
O154 O 0.26671 0.93086 0.02519 0.0
O155 O 0.32663 0.98939 1.00442 0.0
C156 C 0.28527 0.41165 0.03369 0.0
O157 O 0.27931 0.38996 0.02206 0.0
O158 O 0.31682 0.37824 0.07161 0.0
Zn159 Zn 0.32478 0.39582 0.04521 0.0
O160 O 0.32039 0.37628 0.01152 0.0
C161 C 0.36472 0.42311 0.03462 0.0
O162 O 0.3516 0.42065 0.01483 0.0
O163 O 0.3045 0.41861 0.04547 0.0
C164 C 0.31624 0.35448 1.00337 0.0
O165 O 0.31418 0.34017 0.01825 0.0
C166 C 0.32949 0.36731 0.08124 0.0
O167 O 0.3486 0.36552 0.07273 0.0
O168 O 0.35692 0.41384 0.05139 0.0
C169 C 0.86715 0.10926 0.02661 0.0
O170 O 0.86563 0.12708 0.0168 0.0
O171 O 0.82537 0.14027 0.07264 0.0
Zn172 Zn 0.82261 0.11726 0.04011 0.0
O173 O 0.82254 0.13619 0.0143 0.0
C174 C 0.77443 0.10758 0.03904 0.0
O175 O 0.78021 0.13031 0.04522 0.0
O176 O 0.85073 0.10113 0.03758 0.0
C177 C 0.81322 0.12777 0.99316 0.0
O178 O 0.80412 0.10548 0.98715 0.0
C179 C 0.82265 0.16098 0.07345 0.0
O180 O 0.81971 0.16795 0.05331 0.0
O181 O 0.79003 0.09625 0.03548 0.0
C182 C 0.2434 0.50516 0.22638 0.0
O183 O 0.22676 0.49288 0.21072 0.0
O184 O 0.19354 0.52316 0.20587 0.0
Zn185 Zn 0.21738 0.54135 0.232 0.0
O186 O 0.20378 0.54757 0.26296 0.0
C187 C 0.21713 0.58374 0.21597 0.0
O188 O 0.19536 0.57596 0.21388 0.0
O189 O 0.2425 0.5255 0.23688 0.0
C190 C 0.20688 0.56729 0.27697 0.0
O191 O 0.22049 0.58516 0.27192 0.0
C192 C 0.17327 0.51796 0.21014 0.0
O193 O 0.16841 0.52226 0.23228 0.0
O194 O 0.22994 0.57157 0.22313 0.0
C195 C 0.7823 0.90713 0.53946 0.0
O196 O 0.77687 0.88434 0.53349 0.0
O197 O 0.82328 0.87945 0.57302 0.0
Zn198 Zn 0.82532 0.89649 0.54512 0.0
O199 O 0.81901 0.87585 0.512 0.0
C200 C 0.87006 0.92527 0.56472 0.0
O201 O 0.86446 0.92183 0.5857 0.0
O202 O 0.80269 0.91694 0.54598 0.0
C203 C 0.81953 0.8547 0.50409 0.0
O204 O 0.82454 0.84188 0.51905 0.0
C205 C 0.81378 0.8873 0.59099 0.0
O206 O 0.80527 0.90573 0.59078 0.0
O207 O 0.85622 0.91639 0.54627 0.0
C208 C 0.91229 0.11461 0.28503 0.0
O209 O 0.92682 0.11914 0.30408 0.0
O210 O 0.9514 0.06571 0.23923 0.0
Zn211 Zn 0.93086 0.06532 0.2708 0.0
O212 O 0.95001 0.06974 0.30665 0.0
C213 C 0.90997 0.01585 0.28124 0.0
O214 O 0.92251 0.02476 0.30157 0.0
O215 O 0.91084 0.09468 0.27036 0.0
C216 C 0.96774 0.06244 0.31255 0.0
O217 O 0.9777 0.05241 0.29518 0.0
C218 C 0.96314 0.05142 0.22927 0.0
O219 O 0.96477 0.03369 0.23921 0.0
O220 O 0.90983 0.02916 0.26579 0.0
C221 C 0.36617 0.60836 0.52767 0.0
O222 O 0.36331 0.6247 0.51612 0.0
O223 O 0.32642 0.6401 0.57625 0.0
Zn224 Zn 0.32272 0.61714 0.54386 0.0
O225 O 0.32132 0.63569 0.51762 0.0
C226 C 0.27536 0.60401 0.55134 0.0
O227 O 0.2819 0.62331 0.56746 0.0
O228 O 0.35089 0.60133 0.54053 0.0
C229 C 0.308 0.64956 0.51806 0.0
O230 O 0.29568 0.65205 0.53587 0.0
C231 C 0.33446 0.66183 0.57907 0.0
O232 O 0.34316 0.66994 0.56121 0.0
O233 O 0.29024 0.59584 0.53974 0.0
C234 C 0.41045 0.61434 0.78572 0.0
O235 O 0.42351 0.618 0.80577 0.0
O236 O 0.45058 0.5659 0.73877 0.0
Zn237 Zn 0.43018 0.56559 0.77061 0.0
O238 O 0.44946 0.56963 0.80647 0.0
C239 C 0.40926 0.51596 0.78072 0.0
O240 O 0.42231 0.52452 0.80078 0.0
O241 O 0.41023 0.59514 0.77032 0.0
C242 C 0.4676 0.56299 0.81231 0.0
O243 O 0.47812 0.55397 0.79488 0.0
C244 C 0.46265 0.55191 0.72889 0.0
O245 O 0.46484 0.53446 0.73905 0.0
O246 O 0.40889 0.52951 0.76553 0.0
C247 C 0.74087 0.9989 0.74255 0.0
O248 O 0.72624 1.00039 0.75822 0.0
O249 O 0.69691 0.02072 0.69462 0.0
Zn250 Zn 0.7188 0.03068 0.72383 0.0
O251 O 0.70153 0.03369 0.75234 0.0
C252 C 0.7332 0.07433 0.7089 0.0
O253 O 0.71733 0.06546 0.69121 0.0
O254 O 0.74012 1.00956 0.72547 0.0
C255 C 0.68612 0.04509 0.75218 0.0
O256 O 0.68211 0.05401 0.73348 0.0
C257 C 0.679 1.00534 0.69238 0.0
O258 O 0.67527 0.99292 0.70887 0.0
O259 O 0.73683 0.06239 0.72428 0.0
C260 C 0.8354 0.67795 0.01334 0.0
O261 O 0.84266 0.69978 0.01211 0.0
O262 O 0.7923 0.71129 0.03824 0.0
Zn263 Zn 0.79175 0.68919 1.00653 0.0
O264 O 0.79863 0.70437 0.97807 0.0
C265 C 0.74405 0.66889 0.98843 0.0
O266 O 0.74515 0.6861 0.97706 0.0
O267 O 0.81445 0.66974 0.01109 0.0
C268 C 0.79155 0.72167 0.97309 0.0
O269 O 0.7789 0.73169 0.98752 0.0
C270 C 0.80639 0.72995 0.04752 0.0
O271 O 0.82236 0.73798 0.03517 0.0
O272 O 0.76141 0.66716 1.00078 0.0
C273 C 0.88493 0.59505 0.81239 0.0
O274 O 0.90366 0.60172 0.80329 0.0
O275 O 0.91779 0.55617 0.78604 0.0
Zn276 Zn 0.9038 0.55565 0.81672 0.0
O277 O 0.92801 0.56404 0.84406 0.0
C278 C 0.89035 0.50595 0.80132 0.0
O279 O 0.90507 0.5094 0.78601 0.0
O280 O 0.88188 0.57636 0.82018 0.0
C281 C 0.94096 0.54985 0.84371 0.0
O282 O 0.93785 0.5318 0.82597 0.0
C283 C 0.93718 0.56812 0.7853 0.0
O284 O 0.94798 0.58191 0.80491 0.0
O285 O 0.88683 0.52323 0.81601 0.0
C286 C 0.75448 0.48885 0.52658 0.0
O287 O 0.76367 0.48526 0.54651 0.0
O288 O 0.79521 0.45443 0.53466 0.0
Zn289 Zn 0.79369 0.47085 0.50682 0.0
O290 O 0.79071 0.44613 0.47555 0.0
C291 C 0.84164 0.48158 0.5058 0.0
O292 O 0.83647 0.45883 0.50206 0.0
O293 O 0.76474 0.48556 0.50782 0.0
C294 C 0.79523 0.42618 0.47534 0.0
O295 O 0.80059 0.42063 0.49573 0.0
C296 C 0.77949 0.43874 0.53866 0.0
O297 O 0.76062 0.43303 0.52458 0.0
O298 O 0.82576 0.4926 0.50894 0.0
C299 C 0.70772 0.47601 0.26371 0.0
O300 O 0.6953 0.47297 0.24334 0.0
O301 O 0.67122 0.52319 0.2421 0.0
Zn302 Zn 0.68958 0.52583 0.2781 0.0
O303 O 0.66743 0.52908 0.30843 0.0
C304 C 0.70817 0.58049 0.28811 0.0
O305 O 0.6887 0.58085 0.2963 0.0
O306 O 0.70797 0.49515 0.27924 0.0
C307 C 0.67261 0.52893 0.33078 0.0
O308 O 0.69289 0.52634 0.33667 0.0
C309 C 0.65039 0.52166 0.23485 0.0
O310 O 0.63584 0.51962 0.25056 0.0
O311 O 0.71283 0.56029 0.28089 0.0
Eu312 Eu 0.07269 0.07309 0.03421 0.0
Eu313 Eu 0.04695 0.01949 0.01574 0.0
C314 C 0.07954 0.045 0.97972 0.0
C315 C 0.08073 0.13626 0.06067 0.0
C316 C 0.09012 0.15885 0.05841 0.0
C317 C 0.04737 0.14892 0.07342 0.0
C318 C 0.07776 0.17614 0.06244 0.0
C319 C 0.05976 0.13161 0.06931 0.0
C320 C 0.05573 0.17101 0.06866 0.0
C321 C 0.0903 0.11705 0.04911 0.0
O322 O 0.08262 0.0165 0.02713 0.0
O323 O 0.10141 0.05461 0.03484 0.0
C324 C 0.10147 0.03234 0.0314 0.0
O325 O 0.05855 0.06384 0.06848 0.0
O326 O 0.02791 0.99162 0.98735 0.0
O327 O 0.03536 0.98494 0.02263 0.0
O328 O 0.03417 0.02936 0.0527 0.0
C329 C 0.04169 0.04711 0.07084 0.0
O330 O 0.03608 0.0751 0.02917 0.0
O331 O 0.01986 0.03884 1.0076 0.0
O332 O 0.06736 0.0259 0.98438 0.0
O333 O 0.09278 0.10135 0.06152 0.0
O334 O 0.08137 0.10792 0.02726 0.0
O335 O 0.08177 0.06504 0.99512 0.0
C336 C 0.03675 0.9557 0.98986 0.0
C337 C 0.05986 0.95694 0.99231 0.0
C338 C 0.03065 0.91447 0.97326 0.0
C339 C 0.06824 0.93685 0.98673 0.0
C340 C 0.02224 0.93462 0.97934 0.0
C341 C 0.05362 0.91512 0.97822 0.0
C342 C 0.02793 0.97589 1.00029 0.0
C343 C 0.01839 0.06001 0.01771 0.0
H344 H 0.1062 0.16263 0.05154 0.0
H345 H 0.03059 0.14451 0.07847 0.0
H346 H 0.0847 0.19282 0.05831 0.0
H347 H 0.0522 0.11415 0.07103 0.0
H348 H 0.07134 0.97322 1.00005 0.0
H349 H 0.01897 0.89818 0.96612 0.0
H350 H 0.08597 0.93825 0.99104 0.0
H351 H 1.00436 0.9335 0.97693 0.0
Eu352 Eu 0.31596 0.80075 0.2565 0.0
Eu353 Eu 0.28969 0.79243 0.30377 0.0
C354 C 0.26715 0.81047 0.26102 0.0
C355 C 0.32905 0.82344 0.20057 0.0
C356 C 0.30844 0.83025 0.19901 0.0
C357 C 0.34022 0.84313 0.1685 0.0
C358 C 0.30373 0.84336 0.18229 0.0
C359 C 0.34491 0.83001 0.18527 0.0
C360 C 0.31955 0.84994 0.16678 0.0
C361 C 0.33404 0.80964 0.21818 0.0
O362 O 0.29187 0.75768 0.28283 0.0
O363 O 0.29037 0.767 0.24614 0.0
C364 C 0.28695 0.75153 0.25966 0.0
O365 O 0.33602 0.78023 0.27496 0.0
O366 O 0.26343 0.77236 0.32011 0.0
O367 O 0.28686 0.80191 0.34185 0.0
O368 O 0.32585 0.79183 0.31248 0.0
C369 C 0.33905 0.78248 0.29826 0.0
O370 O 0.33029 0.83046 0.2874 0.0
O371 O 0.29872 0.8309 0.30633 0.0
O372 O 0.26366 0.79624 0.27592 0.0
O373 O 0.34153 0.82131 0.23969 0.0
O374 O 0.31893 0.7911 0.21839 0.0
O375 O 0.28733 0.81881 0.25613 0.0
C376 C 0.27608 0.76907 0.35873 0.0
C377 C 0.29739 0.76404 0.36174 0.0
C378 C 0.26359 0.74581 0.38764 0.0
C379 C 0.30185 0.75022 0.37781 0.0
C380 C 0.25919 0.7598 0.37168 0.0
C381 C 0.285 0.74097 0.39096 0.0
C382 C 0.27135 0.78354 0.34173 0.0
C383 C 0.3183 0.84149 0.30181 0.0
H384 H 0.29594 0.8253 0.21064 0.0
H385 H 0.35289 0.84815 0.15706 0.0
H386 H 0.28756 0.84802 0.18126 0.0
H387 H 0.36094 0.82502 0.18629 0.0
H388 H 0.3106 0.77079 0.35167 0.0
H389 H 0.25035 0.73907 0.39768 0.0
H390 H 0.31841 0.74657 0.37978 0.0
H391 H 0.24263 0.7634 0.36947 0.0
Eu392 Eu 0.57745 0.03824 0.51246 0.0
Eu393 Eu 0.53118 0.03998 0.53951 0.0
C394 C 0.57232 0.02413 0.56388 0.0
C395 C 0.63169 0.02196 0.49772 0.0
C396 C 0.62698 1.00366 0.50994 0.0
C397 C 0.66974 0.01641 0.49598 0.0
C398 C 0.64356 0.99185 0.51523 0.0
C399 C 0.65312 0.02825 0.49073 0.0
C400 C 0.66518 0.99816 0.50843 0.0
C401 C 0.61465 0.03533 0.49365 0.0
O402 O 0.55607 0.07319 0.55504 0.0
O403 O 0.57644 0.07593 0.52322 0.0
C404 C 0.56954 0.0855 0.54308 0.0
O405 O 0.55089 0.0404 0.48439 0.0
O406 O 0.51327 0.05358 0.56886 0.0
O407 O 0.49501 0.02876 0.5382 0.0
O408 O 0.52919 0.05871 0.50935 0.0
C409 C 0.53508 0.05225 0.48798 0.0
O410 O 0.56118 1.00148 0.51295 0.0
O411 O 0.52516 1.00642 0.51232 0.0
O412 O 0.55044 0.02123 0.56122 0.0
O413 O 0.59508 0.02323 0.48368 0.0
O414 O 0.61309 0.05154 0.51175 0.0
O415 O 0.58535 0.03474 0.55021 0.0
C416 C 0.47826 0.05908 0.55451 0.0
C417 C 0.48385 0.07649 0.54131 0.0
C418 C 0.44217 0.06934 0.55899 0.0
C419 C 0.46861 0.09002 0.53668 0.0
C420 C 0.45741 0.05566 0.56345 0.0
C421 C 0.44753 0.08648 0.54531 0.0
C422 C 0.49364 0.04363 0.55748 0.0
C423 C 0.53963 0.99304 0.5085 0.0
H424 H 0.6105 0.99863 0.51554 0.0
H425 H 0.68629 0.02183 0.49072 0.0
H426 H 0.63942 0.97767 0.52451 0.0
H427 H 0.65708 0.0425 0.4815 0.0
H428 H 0.49992 0.0794 0.53431 0.0
H429 H 0.42598 0.06611 0.5657 0.0
H430 H 0.47332 0.10326 0.52635 0.0
H431 H 0.45278 0.04218 0.57352 0.0
Eu432 Eu 0.28524 0.3013 0.77152 0.0
Eu433 Eu 0.33411 0.28936 0.77741 0.0
C434 C 0.28948 0.24836 0.77724 0.0
C435 C 0.22574 0.3046 0.78155 0.0
C436 C 0.22694 0.29264 0.80025 0.0
C437 C 0.18792 0.3077 0.78908 0.0
C438 C 0.20882 0.2885 0.81352 0.0
C439 C 0.2061 0.3119 0.77586 0.0
C440 C 0.18919 0.29621 0.80825 0.0
C441 C 0.24536 0.31051 0.76891 0.0
O442 O 0.32275 0.27783 0.73806 0.0
O443 O 0.29614 0.29922 0.73452 0.0
C444 C 0.30943 0.28626 0.72487 0.0
O445 O 0.30924 0.33712 0.77652 0.0
O446 O 0.35602 0.26488 0.76971 0.0
O447 O 0.36917 0.29884 0.79201 0.0
O448 O 0.34183 0.32578 0.76801 0.0
C449 C 0.33026 0.34236 0.77181 0.0
O450 O 0.29034 0.29876 0.8102 0.0
O451 O 0.32847 0.30492 0.81479 0.0
O452 O 0.31068 0.25721 0.78567 0.0
O453 O 0.26266 0.32428 0.78215 0.0
O454 O 0.25083 0.29325 0.75472 0.0
O455 O 0.27768 0.2614 0.76784 0.0
C456 C 0.39282 0.28278 0.76606 0.0
C457 C 0.39524 0.29937 0.75157 0.0
C458 C 0.42553 0.27008 0.75157 0.0
C459 C 0.41278 0.30137 0.73721 0.0
C460 C 0.40805 0.2682 0.76601 0.0
C461 C 0.42806 0.28665 0.73696 0.0
C462 C 0.37387 0.27983 0.78033 0.0
C463 C 0.30935 0.30392 0.82391 0.0
H464 H 0.24208 0.28696 0.8049 0.0
H465 H 0.17291 0.31357 0.7844 0.0
H466 H 0.21045 0.27986 0.82834 0.0
H467 H 0.20496 0.32115 0.76146 0.0
H468 H 0.38348 0.31068 0.75124 0.0
H469 H 0.43678 0.25822 0.75148 0.0
H470 H 0.4144 0.31447 0.72639 0.0
H471 H 0.40624 0.25513 0.7769 0.0
Eu472 Eu 0.05158 0.06923 0.53841 0.0
Eu473 Eu 0.06283 0.02102 0.51202 0.0
C474 C 0.09685 0.06874 0.51325 0.0
C475 C 0.04871 0.1308 0.54473 0.0
C476 C 0.05929 0.12945 0.5237 0.0
C477 C 0.04527 0.17006 0.54282 0.0
C478 C 0.06249 0.14804 0.51207 0.0
C479 C 0.04186 0.15124 0.5544 0.0
C480 C 0.05529 0.16842 0.52134 0.0
C481 C 0.04421 0.11025 0.55548 0.0
O482 O 0.08184 0.02845 0.54985 0.0
O483 O 0.06379 0.05478 0.57031 0.0
C484 C 0.0778 0.04052 0.57039 0.0
O485 O 0.02029 0.04271 0.53935 0.0
O486 O 0.08526 0.99665 0.50659 0.0
O487 O 0.05276 0.98836 0.48615 0.0
O488 O 0.03478 1.00999 0.53357 0.0
C489 C 0.0186 0.02061 0.53951 0.0
O490 O 0.04457 0.06876 0.49813 0.0
O491 O 0.0392 0.02979 0.48371 0.0
O492 O 0.08766 0.04841 0.49984 0.0
O493 O 0.02882 0.09312 0.5433 0.0
O494 O 0.06189 0.1032 0.56236 0.0
O495 O 0.08765 0.07741 0.53184 0.0
C496 C 0.06479 0.95805 0.50069 0.0
C497 C 0.04369 0.95019 0.50801 0.0
C498 C 0.07728 0.9253 0.51231 0.0
C499 C 0.03948 0.9302 0.51751 0.0
C500 C 0.08146 0.94529 0.50264 0.0
C501 C 0.05631 0.91772 0.52007 0.0
C502 C 0.06994 0.98043 0.49293 0.0
C503 C 0.03706 0.05056 0.48054 0.0
H504 H 0.06484 0.11385 0.51607 0.0
H505 H 0.03955 0.18561 0.55025 0.0
H506 H 0.07056 0.14646 0.49575 0.0
H507 H 0.03364 0.15249 0.57061 0.0
H508 H 0.03055 0.9598 0.50701 0.0
H509 H 0.09051 0.9159 0.51398 0.0
H510 H 0.02328 0.925 0.52367 0.0
H511 H 0.09787 0.95111 0.49722 0.0
Eu512 Eu 0.33277 0.81166 0.77606 0.0
Eu513 Eu 0.2841 0.77871 0.7735 0.0
C514 C 0.30594 0.81722 0.82168 0.0
C515 C 0.39239 0.83028 0.76699 0.0
C516 C 0.39208 0.80668 0.75851 0.0
C517 C 0.43281 0.83871 0.77025 0.0
C518 C 0.41205 0.79895 0.75711 0.0
C519 C 0.41278 0.84638 0.77193 0.0
C520 C 0.43262 0.81478 0.76407 0.0
C521 C 0.37185 0.8372 0.77416 0.0
O522 O 0.27396 0.81315 0.76854 0.0
O523 O 0.30867 0.83701 0.77239 0.0
C524 C 0.2865 0.83426 0.77014 0.0
O525 O 0.32898 0.78575 0.74131 0.0
O526 O 0.26046 0.75866 0.7927 0.0
O527 O 0.25215 0.7586 0.75531 0.0
O528 O 0.29125 0.77166 0.73501 0.0
C529 C 0.31121 0.77303 0.72777 0.0
O530 O 0.34293 0.77698 0.77974 0.0
O531 O 0.30828 0.75373 0.77885 0.0
O532 O 0.28796 0.80529 0.80789 0.0
O533 O 0.35538 0.83316 0.75723 0.0
O534 O 0.36538 0.83067 0.79355 0.0
O535 O 0.32586 0.81761 0.81457 0.0
C536 C 0.22342 0.75942 0.77971 0.0
C537 C 0.22215 0.78292 0.78463 0.0
C538 C 0.183 0.74842 0.77523 0.0
C539 C 0.20142 0.78915 0.78357 0.0
C540 C 0.2038 0.74221 0.77594 0.0
C541 C 0.18162 0.77192 0.77778 0.0
C542 C 0.24479 0.75314 0.77479 0.0
C543 C 0.33042 0.7562 0.77971 0.0
H544 H 0.3764 0.79401 0.75458 0.0
H545 H 0.44845 0.85134 0.77526 0.0
H546 H 0.41126 0.78043 0.75246 0.0
H547 H 0.41325 0.86466 0.77843 0.0
H548 H 0.23721 0.79644 0.78768 0.0
H549 H 0.16803 0.73476 0.77129 0.0
H550 H 0.20106 0.80738 0.78546 0.0
H551 H 0.20454 0.72399 0.77221 0.0
Eu552 Eu 0.55925 0.03375 0.0407 0.0
Eu553 Eu 0.55586 0.05231 0.99052 0.0
C554 C 0.55335 0.08571 0.03997 0.0
C555 C 0.54879 0.02457 0.1022 0.0
C556 C 0.53479 0.04054 0.10334 0.0
C557 C 0.5379 0.01602 0.13997 0.0
C558 C 0.5223 0.04415 0.12263 0.0
C559 C 0.55041 0.0124 0.12061 0.0
C560 C 0.52358 0.03179 0.14104 0.0
C561 C 0.56082 0.01996 0.08123 0.0
O562 O 0.59266 0.06367 1.00558 0.0
O563 O 0.5943 0.03726 0.02948 0.0
C564 C 0.60436 0.05284 0.01812 0.0
O565 O 0.55341 1.00196 0.01137 0.0
O566 O 0.56486 0.07953 0.97019 0.0
O567 O 0.54285 0.04669 0.95321 0.0
O568 O 0.56743 0.01881 0.98138 0.0
C569 C 0.5615 1.00048 0.99067 0.0
O570 O 0.52279 0.03573 0.03484 0.0
O571 O 0.51989 0.03581 0.99468 0.0
O572 O 0.54514 0.07891 0.01755 0.0
O573 O 0.54838 1.00789 0.06199 0.0
O574 O 0.57474 0.03783 0.07702 0.0
O575 O 0.56352 0.07266 0.05094 0.0
C576 C 0.56828 0.06471 0.92994 0.0
C577 C 0.57892 0.046 0.92415 0.0
C578 C 0.58387 0.08081 0.89735 0.0
C579 C 0.59168 0.04453 0.90486 0.0
C580 C 0.57091 0.08215 0.91653 0.0
C581 C 0.59423 0.06189 0.89126 0.0
C582 C 0.55478 0.0663 0.95015 0.0
C583 C 0.51058 0.0336 0.01447 0.0
H584 H 0.53336 0.05003 0.08917 0.0
H585 H 0.53904 1.00611 0.15381 0.0
H586 H 0.51167 0.05664 0.12314 0.0
H587 H 0.56107 0.99991 0.11983 0.0
H588 H 0.57735 0.0325 0.93452 0.0
H589 H 0.58552 0.09435 0.88705 0.0
H590 H 0.59975 0.02994 0.90073 0.0
H591 H 0.5629 0.09677 0.92088 0.0
Eu592 Eu 0.32762 0.31848 0.29094 0.0
Eu593 Eu 0.2921 0.27186 0.2608 0.0
C594 C 0.30623 0.3158 0.23732 0.0
C595 C 0.35797 0.37979 0.3055 0.0
C596 C 0.35744 0.38173 0.28142 0.0
C597 C 0.35201 0.41907 0.31616 0.0
C598 C 0.35311 0.40168 0.27466 0.0
C599 C 0.35632 0.39901 0.32294 0.0
C600 C 0.34918 0.42007 0.29184 0.0
C601 C 0.35551 0.35674 0.31166 0.0
O602 O 0.3256 0.27103 0.24763 0.0
O603 O 0.34706 0.29049 0.28209 0.0
C604 C 0.34494 0.2773 0.26073 0.0
O605 O 0.31587 0.29706 0.31781 0.0
O606 O 0.27739 0.24899 0.22691 0.0
O607 O 0.26546 0.24155 0.25987 0.0
O608 O 0.30805 0.26129 0.29265 0.0
C609 C 0.31158 0.27428 0.31433 0.0
O610 O 0.29386 0.32797 0.29005 0.0
O611 O 0.27328 0.2911 0.28682 0.0
O612 O 0.28906 0.30024 0.24073 0.0
O613 O 0.33654 0.34932 0.31963 0.0
O614 O 0.36105 0.34061 0.29598 0.0
O615 O 0.32431 0.32238 0.2526 0.0
C616 C 0.26936 0.21002 0.2309 0.0
C617 C 0.29102 0.20659 0.22762 0.0
C618 C 0.25689 0.16892 0.23026 0.0
C619 C 0.29571 0.18464 0.22627 0.0
C620 C 0.25217 0.19098 0.23155 0.0
C621 C 0.27887 0.16571 0.22835 0.0
C622 C 0.2656 0.23371 0.23711 0.0
C623 C 0.27587 0.31365 0.29357 0.0
H624 H 0.35859 0.36716 0.26753 0.0
H625 H 0.3494 0.43316 0.32982 0.0
H626 H 0.35086 0.40176 0.25578 0.0
H627 H 0.35665 0.39786 0.34159 0.0
H628 H 0.30463 0.22111 0.22745 0.0
H629 H 0.24359 0.1546 0.2318 0.0
H630 H 0.3129 0.18291 0.22526 0.0
H631 H 0.2354 0.1934 0.23426 0.0
Eu632 Eu 0.55224 0.56808 0.03785 0.0
Eu633 Eu 0.5651 0.52084 0.0109 0.0
C634 C 0.59704 0.56998 0.01158 0.0
C635 C 0.5448 0.62836 0.04489 0.0
C636 C 0.55506 0.62816 0.02372 0.0
C637 C 0.53617 0.66566 0.04231 0.0
C638 C 0.55554 0.6463 0.0117 0.0
C639 C 0.53551 0.64725 0.0543 0.0
C640 C 0.54585 0.66506 0.02068 0.0
C641 C 0.54273 0.60791 0.05573 0.0
O642 O 0.58301 0.52722 0.04914 0.0
O643 O 0.56536 0.55397 0.0696 0.0
C644 C 0.57903 0.53936 0.06966 0.0
O645 O 0.52142 0.5406 0.03752 0.0
O646 O 0.59059 0.50134 1.0003 0.0
O647 O 0.55556 0.48526 0.99026 0.0
O648 O 0.53645 0.50827 0.03106 0.0
C649 C 0.51989 0.51838 0.03677 0.0
O650 O 0.54437 0.56766 0.99764 0.0
O651 O 0.54159 0.52909 0.98203 0.0
O652 O 0.58833 0.54936 0.99854 0.0
O653 O 0.52783 0.58996 0.04426 0.0
O654 O 0.56154 0.6023 0.06147 0.0
O655 O 0.58789 0.57837 0.03033 0.0
C656 C 0.57837 0.46246 1.00436 0.0
C657 C 0.56529 0.44018 0.9951 0.0
C658 C 0.5897 0.44947 0.04005 0.0
C659 C 0.56388 0.42284 1.00855 0.0
C660 C 0.59107 0.46674 0.02668 0.0
C661 C 0.57552 0.42761 0.0315 0.0
C662 C 0.5759 0.4819 0.99273 0.0
C663 C 0.53805 0.54965 0.97954 0.0
H664 H 0.56238 0.61371 0.01625 0.0
H665 H 0.52861 0.68 0.04953 0.0
H666 H 0.56342 0.64562 0.99527 0.0
H667 H 0.52744 0.64755 0.07058 0.0
H668 H 0.55522 0.43656 0.97803 0.0
H669 H 0.59916 0.45349 0.0575 0.0
H670 H 0.55274 0.40617 1.00156 0.0
H671 H 0.60127 0.48377 0.03439 0.0
Eu672 Eu 0.83274 0.31069 0.27056 0.0
Eu673 Eu 0.78606 0.27873 0.27852 0.0
C674 C 0.81224 0.31876 0.32156 0.0
C675 C 0.89304 0.32638 0.26039 0.0
C676 C 0.89311 0.30258 0.25486 0.0
C677 C 0.93349 0.33532 0.26506 0.0
C678 C 0.91328 0.29516 0.25576 0.0
C679 C 0.91328 0.34271 0.26444 0.0
C680 C 0.93362 0.3115 0.2621 0.0
C681 C 0.87241 0.33383 0.26629 0.0
O682 O 0.77636 0.314 0.27443 0.0
O683 O 0.80892 0.33568 0.26593 0.0
C684 C 0.78757 0.33384 0.2698 0.0
O685 O 0.82103 0.28972 0.23356 0.0
O686 O 0.76445 0.26046 0.30091 0.0
O687 O 0.75197 0.26112 0.2648 0.0
O688 O 0.79266 0.26205 0.2416 0.0
C689 C 0.80676 0.26975 0.22719 0.0
O690 O 0.84284 0.27614 0.2765 0.0
O691 O 0.80942 0.25286 0.2804 0.0
O692 O 0.80018 0.29758 0.31572 0.0
O693 O 0.85594 0.32847 0.24923 0.0
O694 O 0.86591 0.3294 0.28648 0.0
O695 O 0.82422 0.32792 0.3063 0.0
C696 C 0.72686 0.26299 0.29381 0.0
C697 C 0.72284 0.28476 0.29168 0.0
C698 C 0.68989 0.25267 0.3064 0.0
C699 C 0.70201 0.28989 0.29539 0.0
C700 C 0.71071 0.24738 0.30223 0.0
C701 C 0.68484 0.27342 0.30163 0.0
C702 C 0.74697 0.25593 0.28522 0.0
C703 C 0.83123 0.25554 0.27879 0.0
H704 H 0.87754 0.28975 0.25161 0.0
H705 H 0.94895 0.34828 0.26947 0.0
H706 H 0.91277 0.27672 0.25345 0.0
H707 H 0.91347 0.36114 0.26869 0.0
H708 H 0.73527 0.29719 0.28554 0.0
H709 H 0.67732 0.23985 0.31185 0.0
H710 H 0.69895 0.30599 0.29129 0.0
H711 H 0.71375 0.23066 0.30441 0.0
Eu712 Eu 0.05885 0.53133 0.54533 0.0
Eu713 Eu 0.05812 0.55507 0.49807 0.0
C714 C 0.05333 0.58336 0.54958 0.0
C715 C 0.04418 0.51709 0.60375 0.0
C716 C 0.02343 0.52307 0.59985 0.0
C717 C 0.03932 0.52009 0.64575 0.0
C718 C 1.01078 0.52771 0.61881 0.0
C719 C 0.05195 0.51536 0.6267 0.0
C720 C 0.01876 0.52667 0.64205 0.0
C721 C 0.05866 0.51522 0.58447 0.0
O722 O 0.09386 0.55069 0.50403 0.0
O723 O 0.09488 0.54925 0.54372 0.0
C724 C 0.10522 0.55193 0.52469 0.0
O725 O 0.06739 0.50488 0.51627 0.0
O726 O 0.0695 0.58528 0.48257 0.0
O727 O 0.04694 0.55504 0.4611 0.0
O728 O 0.05383 0.51682 0.48342 0.0
C729 C 0.06111 0.50126 0.49333 0.0
O730 O 0.02229 0.52235 0.53016 0.0
O731 O 0.02188 0.54934 0.50651 0.0
O732 O 0.06393 0.58387 0.53055 0.0
O733 O 0.04917 0.50282 0.56379 0.0
O734 O 0.07125 0.5349 0.58258 0.0
O735 O 0.04588 0.56375 0.55608 0.0
C736 C 0.07511 0.57542 0.44243 0.0
C737 C 0.09032 0.56067 0.44022 0.0
C738 C 0.09058 0.59275 0.41051 0.0
C739 C 0.10558 0.56193 0.42326 0.0
C740 C 0.07528 0.59145 0.42751 0.0
C741 C 0.10596 0.57806 0.40828 0.0
C742 C 0.06007 0.57502 0.46124 0.0
C743 C 1.01128 0.53372 0.5176 0.0
H744 H 0.0173 0.52476 0.58224 0.0
H745 H 0.04604 0.51942 0.66349 0.0
H746 H 0.99488 0.53241 0.61533 0.0
H747 H 0.06809 0.5111 0.63003 0.0
H748 H 0.09047 0.54828 0.45175 0.0
H749 H 0.09062 0.6055 0.39939 0.0
H750 H 0.11697 0.55015 0.42176 0.0
H751 H 0.06379 0.60313 0.42922 0.0
Eu752 Eu 0.78752 0.80075 0.27231 0.0
Eu753 Eu 0.83635 0.78918 0.27872 0.0
C754 C 0.79177 0.74796 0.27805 0.0
C755 C 0.72802 0.80417 0.28214 0.0
C756 C 0.72946 0.7934 0.30173 0.0
C757 C 0.6898 0.8064 0.28861 0.0
C758 C 0.71127 0.78947 0.31494 0.0
C759 C 0.70806 0.81043 0.27547 0.0
C760 C 0.69131 0.79617 0.30868 0.0
C761 C 0.74767 0.80995 0.26951 0.0
O762 O 0.82553 0.77764 0.23925 0.0
O763 O 0.79878 0.79884 0.23547 0.0
C764 C 0.81225 0.78602 0.22596 0.0
O765 O 0.81146 0.83662 0.27758 0.0
O766 O 0.85858 0.76497 0.27198 0.0
O767 O 0.87127 0.79914 0.29398 0.0
O768 O 0.84399 0.82535 0.26874 0.0
C769 C 0.83241 0.84192 0.27266 0.0
O770 O 0.79234 0.79769 0.31089 0.0
O771 O 0.83044 0.80581 0.31563 0.0
O772 O 0.81281 0.75702 0.28696 0.0
O773 O 0.76495 0.82378 0.2827 0.0
O774 O 0.75313 0.7926 0.25544 0.0
O775 O 0.78011 0.76084 0.26822 0.0
C776 C 0.89564 0.78309 0.26932 0.0
C777 C 0.89355 0.78816 0.24646 0.0
C778 C 0.93514 0.78443 0.26662 0.0
C779 C 0.91215 0.7912 0.23367 0.0
C780 C 0.91649 0.78128 0.27935 0.0
C781 C 0.93314 0.78937 0.24363 0.0
C782 C 0.87624 0.78005 0.2829 0.0
C783 C 0.81129 0.80393 0.32473 0.0
H784 H 0.74483 0.78852 0.30712 0.0
H785 H 0.67453 0.81143 0.28313 0.0
H786 H 0.71307 0.78181 0.33044 0.0
H787 H 0.70672 0.81872 0.26035 0.0
H788 H 0.87754 0.7898 0.23856 0.0
H789 H 0.95105 0.78267 0.27461 0.0
H790 H 0.91018 0.79524 0.21611 0.0
H791 H 0.91834 0.77742 0.29701 0.0
Eu792 Eu 0.81643 0.29484 0.74761 0.0
Eu793 Eu 0.79504 0.29081 0.79846 0.0
C794 C 0.76631 0.30025 0.75511 0.0
C795 C 0.82469 0.31478 0.68988 0.0
C796 C 0.80503 0.32341 0.69148 0.0
C797 C 0.83258 0.33294 0.65604 0.0
C798 C 0.79913 0.33666 0.67541 0.0
C799 C 0.83842 0.31962 0.6721 0.0
C800 C 0.81287 0.34165 0.6575 0.0
C801 C 0.83109 0.30126 0.70712 0.0
O802 O 0.78245 0.25655 0.77273 0.0
O803 O 0.81102 0.25705 0.74878 0.0
C804 C 0.79364 0.24578 0.75707 0.0
O805 O 0.84517 0.29635 0.77504 0.0
O806 O 0.76834 0.27785 0.81904 0.0
O807 O 0.79971 0.29896 0.83737 0.0
O808 O 0.82489 0.27461 0.79808 0.0
C809 C 0.8441 0.28363 0.79144 0.0
O810 O 0.81089 0.32992 0.764 0.0
O811 O 0.81638 0.32689 0.8029 0.0
O812 O 0.77156 0.30671 0.77828 0.0
O813 O 0.84063 0.31341 0.72785 0.0
O814 O 0.81595 0.2833 0.70914 0.0
O815 O 0.77905 0.28984 0.74119 0.0
C816 C 0.78273 0.26798 0.85397 0.0
C817 C 0.79199 0.24886 0.84511 0.0
C818 C 0.77966 0.25522 0.89161 0.0
C819 C 0.79514 0.23305 0.85944 0.0
C820 C 0.77652 0.27104 0.87724 0.0
C821 C 0.78916 0.23612 0.88294 0.0
C822 C 0.78083 0.28538 0.83942 0.0
C823 C 0.81633 0.33957 0.78658 0.0
H824 H 0.79424 0.31991 0.7052 0.0
H825 H 0.84371 0.33674 0.64273 0.0
H826 H 0.78371 0.34283 0.67688 0.0
H827 H 0.85375 0.31325 0.67075 0.0
H828 H 0.79699 0.2463 0.82718 0.0
H829 H 0.77515 0.25827 0.90971 0.0
H830 H 0.80223 0.2184 0.85209 0.0
H831 H 0.76956 0.28584 0.88442 0.0
Eu832 Eu 0.82823 0.82135 0.79517 0.0
Eu833 Eu 0.79173 0.77551 0.76457 0.0
C834 C 0.80846 0.81954 0.74037 0.0
C835 C 0.8636 0.88111 0.80986 0.0
C836 C 0.86761 0.88032 0.7859 0.0
C837 C 0.85859 0.92061 0.81319 0.0
C838 C 0.8656 0.89903 0.77531 0.0
C839 C 0.86091 0.90201 0.82388 0.0
C840 C 0.85904 0.91843 0.78839 0.0
C841 C 0.85543 0.85942 0.81789 0.0
O842 O 0.8254 0.76607 0.76264 0.0
O843 O 0.84596 0.80314 0.7672 0.0
C844 C 0.84357 0.78067 0.75995 0.0
O845 O 0.83022 0.79368 0.81653 0.0
O846 O 0.7807 0.74528 0.7355 0.0
O847 O 0.75798 0.75436 0.76123 0.0
O848 O 0.79615 0.76952 0.80216 0.0
C849 C 0.81363 0.77667 0.81829 0.0
O850 O 0.79534 0.8188 0.81056 0.0
O851 O 0.77444 0.80492 0.77502 0.0
O852 O 0.80088 0.79699 0.73718 0.0
O853 O 0.83391 0.85506 0.81915 0.0
O854 O 0.86231 0.84101 0.80781 0.0
O855 O 0.81611 0.83259 0.76167 0.0
C856 C 0.75935 0.71468 0.75001 0.0
C857 C 0.75245 0.71061 0.77207 0.0
C858 C 0.77204 0.67838 0.7438 0.0
C859 C 0.7566 0.69132 0.7805 0.0
C860 C 0.76772 0.69756 0.73529 0.0
C861 C 0.7678 0.67586 0.7671 0.0
C862 C 0.76224 0.73817 0.74461 0.0
C863 C 0.77623 0.81518 0.79747 0.0
H864 H 0.86976 0.86439 0.77467 0.0
H865 H 0.85362 0.93538 0.82378 0.0
H866 H 0.86658 0.8972 0.75629 0.0
H867 H 0.85777 0.90293 0.84239 0.0
H868 H 0.74552 0.72324 0.78373 0.0
H869 H 0.78068 0.66683 0.73295 0.0
H870 H 0.7526 0.6895 0.79827 0.0
H871 H 0.77292 0.7001 0.71809 0.0
Eu872 Eu 0.5725 0.57383 0.53344 0.0
Eu873 Eu 0.54621 0.52029 0.51475 0.0
C874 C 0.57915 0.5455 0.4788 0.0
C875 C 0.58446 0.63866 0.55801 0.0
C876 C 0.56156 0.63869 0.55673 0.0
C877 C 0.59303 0.68067 0.56861 0.0
C878 C 0.55445 0.65966 0.5597 0.0
C879 C 0.60013 0.65965 0.56524 0.0
C880 C 0.5702 0.68088 0.56418 0.0
C881 C 0.5919 0.61752 0.54778 0.0
O882 O 0.58171 0.51665 0.52561 0.0
O883 O 0.60054 0.55471 0.53633 0.0
C884 C 0.60051 0.5324 0.53177 0.0
O885 O 0.557 0.56538 0.56738 0.0
O886 O 0.52709 0.49284 0.48602 0.0
O887 O 0.53383 0.48574 0.52124 0.0
O888 O 0.53401 0.52984 0.55214 0.0
C889 C 0.54081 0.54807 0.56997 0.0
O890 O 0.5361 0.57658 0.52763 0.0
O891 O 0.5193 0.53993 0.50733 0.0
O892 O 0.56629 0.52662 0.48312 0.0
O893 O 0.59218 0.60216 0.56113 0.0
O894 O 0.58329 0.60811 0.52587 0.0
O895 O 0.5821 0.56539 0.49457 0.0
C896 C 0.53574 0.45688 0.48858 0.0
C897 C 0.55896 0.45933 0.48893 0.0
C898 C 0.53117 0.41512 0.47824 0.0
C899 C 0.56832 0.43977 0.48593 0.0
C900 C 0.52181 0.4348 0.48188 0.0
C901 C 0.55452 0.41742 0.48219 0.0
C902 C 0.52668 0.47693 0.49879 0.0
C903 C 0.51817 0.56135 0.51681 0.0
H904 H 0.54925 0.62256 0.55135 0.0
H905 H 0.60553 0.69674 0.57268 0.0
H906 H 0.53676 0.65903 0.55609 0.0
H907 H 0.61788 0.65986 0.56654 0.0
H908 H 0.56992 0.47637 0.49365 0.0
H909 H 0.52005 0.39816 0.4745 0.0
H910 H 0.58634 0.44245 0.48908 0.0
H911 H 0.5038 0.43269 0.48112 0.0
Eu912 Eu 0.08305 0.54744 0.02089 0.0
Eu913 Eu 0.03386 0.5411 0.04248 0.0
C914 C 0.07664 0.53529 0.07243 0.0
C915 C 0.14168 0.53938 0.01135 0.0
C916 C 0.14768 0.53636 0.03446 0.0
C917 C 0.16992 0.51873 0.99645 0.0
C918 C 0.16472 0.52467 0.03852 0.0
C919 C 0.15303 0.53062 0.99245 0.0
C920 C 0.1759 0.51548 0.01952 0.0
C921 C 0.12278 0.55025 1.00644 0.0
O922 O 0.05323 0.57763 0.05737 0.0
O923 O 0.075 0.58279 0.02708 0.0
C924 C 0.0653 0.59128 0.04542 0.0
O925 O 0.05771 0.54489 0.98965 0.0
O926 O 0.013 0.54999 0.07087 0.0
O927 O 0.99805 0.52635 0.03794 0.0
O928 O 0.03025 0.55727 0.01073 0.0
C929 C 0.03907 0.55257 0.99066 0.0
O930 O 0.07175 0.50957 0.02108 0.0
O931 O 0.03404 0.50757 0.01713 0.0
O932 O 0.05543 0.526 0.06574 0.0
O933 O 0.10489 0.53621 0.99454 0.0
O934 O 0.11806 0.56514 0.0241 0.0
O935 O 0.08843 0.54915 0.06048 0.0
C936 C 0.97799 0.5537 0.05457 0.0
C937 C 0.98193 0.57007 0.03992 0.0
C938 C 0.94226 0.56401 0.06161 0.0
C939 C 0.96604 0.58305 0.03583 0.0
C940 C 0.95814 0.55082 0.06552 0.0
C941 C 0.94597 0.58008 0.04649 0.0
C942 C 0.99442 0.53935 0.05761 0.0
C943 C 0.05124 0.49762 0.01468 0.0
H944 H 0.13902 0.54276 0.04934 0.0
H945 H 0.17785 0.51155 0.98131 0.0
H946 H 0.16904 0.52276 0.05656 0.0
H947 H 0.14847 0.53254 0.97445 0.0
H948 H 0.99724 0.57269 0.03147 0.0
H949 H 0.92688 0.56131 0.06997 0.0
H950 H 0.96952 0.59553 0.0244 0.0
H951 H 0.95484 0.53825 0.07686 0.0
C952 C 0.022 0.23453 0.98232 0.0
C953 C 1.00749 0.24998 0.98412 0.0
C954 C 0.02559 0.22283 1.00066 0.0
C955 C 0.01414 0.2264 0.02128 0.0
C956 C 0.99879 0.2413 0.0229 0.0
C957 C 0.99579 0.25312 1.00433 0.0
C958 C 0.04209 0.20702 0.99812 0.0
C959 C 0.98604 0.24532 0.04439 0.0
C960 C 0.01968 0.17731 0.05114 0.0
C961 C 0.04047 0.18668 0.06476 0.0
C962 C 1.00878 0.19117 0.03937 0.0
C963 C 0.01914 0.21474 0.04104 0.0
C964 C 0.03813 0.22501 0.05772 0.0
C965 C 0.04853 0.21081 0.06957 0.0
C966 C 0.98795 0.1798 0.02254 0.0
C967 C 0.04933 0.25025 0.06054 0.0
H968 H 0.03108 0.23195 0.96677 0.0
H969 H 0.98449 0.26501 1.00581 0.0
H970 H 0.05579 0.21315 0.01295 0.0
H971 H 0.03368 0.18913 0.99915 0.0
H972 H 0.04963 0.20626 0.98096 0.0
H973 H 0.97103 0.25229 0.04033 0.0
H974 H 0.9807 0.22907 0.05102 0.0
H975 H 0.99702 0.25816 0.05902 0.0
H976 H 0.01309 0.15872 0.04741 0.0
H977 H 0.0642 0.21827 0.08073 0.0
H978 H 0.99264 0.17532 1.00413 0.0
H979 H 0.97625 0.19174 0.02243 0.0
H980 H 0.97918 0.16355 0.02743 0.0
H981 H 0.059 0.25244 0.0451 0.0
H982 H 0.06103 0.25654 0.07716 0.0
H983 H 0.03675 0.26126 0.06077 0.0
C984 C 0.18106 0.80547 0.1537 0.0
C985 C 0.16376 0.81744 0.1578 0.0
C986 C 0.19784 0.80676 0.17198 0.0
C987 C 0.19737 0.8205 0.19482 0.0
C988 C 0.18053 0.83343 0.19881 0.0
C989 C 0.16384 0.83169 0.18024 0.0
C990 C 0.21562 0.79275 0.16707 0.0
C991 C 0.17978 0.84854 0.22286 0.0
C992 C 0.22686 0.80115 0.24506 0.0
C993 C 0.24815 0.81557 0.24738 0.0
C994 C 0.20974 0.80332 0.22874 0.0
C995 C 0.21407 0.82044 0.21466 0.0
C996 C 0.23507 0.83604 0.2181 0.0
C997 C 0.25188 0.8334 0.23444 0.0
C998 C 0.18751 0.78635 0.22549 0.0
C999 C 0.24023 0.85464 0.20358 0.0
H1000 H 0.18112 0.79447 0.13641 0.0
H1001 H 0.15058 0.84111 0.18349 0.0
H1002 H 0.2325 0.80424 0.17152 0.0
H1003 H 0.21447 0.77969 0.17858 0.0
H1004 H 0.21401 0.78354 0.14812 0.0
H1005 H 0.16657 0.85881 0.22252 0.0
H1006 H 0.17652 0.83752 0.23632 0.0
H1007 H 0.19616 0.86066 0.22888 0.0
H1008 H 0.2239 0.78735 0.25501 0.0
H1009 H 0.26825 0.84483 0.2364 0.0
H1010 H 0.18531 0.77472 0.20762 0.0
H1011 H 0.17359 0.79572 0.22627 0.0
H1012 H 0.18617 0.77547 0.23925 0.0
H1013 H 0.24133 0.84644 0.18478 0.0
H1014 H 0.2563 0.8671 0.21048 0.0
H1015 H 0.22664 0.86443 0.20349 0.0
C1016 C 0.49379 0.85572 0.46578 0.0
C1017 C 0.50323 0.84817 0.4449 0.0
C1018 C 0.49787 0.87939 0.47646 0.0
C1019 C 0.51127 0.89577 0.46565 0.0
C1020 C 0.5199 0.88829 0.44392 0.0
C1021 C 0.51599 0.86451 0.43395 0.0
C1022 C 0.48875 0.88673 0.49987 0.0
C1023 C 0.53387 0.90533 0.4316 0.0
C1024 C 0.5112 0.95988 0.48422 0.0
C1025 C 0.53164 0.96806 0.49859 0.0
C1026 C 0.50415 0.93627 0.47352 0.0
C1027 C 0.51767 0.92055 0.47783 0.0
C1028 C 0.53796 0.92866 0.493 0.0
C1029 C 0.54484 0.9524 0.50298 0.0
C1030 C 0.48266 0.92827 0.45703 0.0
C1031 C 0.5526 0.91232 0.49839 0.0
H1032 H 0.48402 0.84305 0.47433 0.0
H1033 H 0.52312 0.85867 0.41766 0.0
H1034 H 0.50281 0.89393 0.51418 0.0
H1035 H 0.47946 0.90067 0.49875 0.0
H1036 H 0.47745 0.87203 0.50512 0.0
H1037 H 0.53753 0.8969 0.41375 0.0
H1038 H 0.52515 0.91949 0.42943 0.0
H1039 H 0.54996 0.91345 0.44272 0.0
H1040 H 0.50106 0.97204 0.48071 0.0
H1041 H 0.56055 0.95871 0.5143 0.0
H1042 H 0.4714 0.91398 0.46291 0.0
H1043 H 0.48635 0.92129 0.43872 0.0
H1044 H 0.47367 0.94255 0.45628 0.0
H1045 H 0.54267 0.89775 0.50512 0.0
H1046 H 0.56704 0.92119 0.51184 0.0
H1047 H 0.55909 0.9047 0.48179 0.0
C1048 C 0.53226 0.30884 0.66029 0.0
C1049 C 0.53513 0.28753 0.64727 0.0
C1050 C 0.5142 0.30994 0.67398 0.0
C1051 C 0.49874 0.28924 0.6747 0.0
C1052 C 0.50111 0.26782 0.66094 0.0
C1053 C 0.51925 0.26723 0.64734 0.0
C1054 C 0.51206 0.33313 0.68827 0.0
C1055 C 0.48494 0.24538 0.66126 0.0
C1056 C 0.46778 0.28618 0.7295 0.0
C1057 C 0.44639 0.28829 0.72124 0.0
C1058 C 0.48502 0.28675 0.7146 0.0
C1059 C 0.48084 0.28971 0.69091 0.0
C1060 C 0.45944 0.29233 0.68258 0.0
C1061 C 0.44243 0.29149 0.69782 0.0
C1062 C 0.50764 0.28385 0.7241 0.0
C1063 C 0.45441 0.2956 0.65745 0.0
H1064 H 0.54439 0.32462 0.66023 0.0
H1065 H 0.52127 0.2507 0.63726 0.0
H1066 H 0.49502 0.33613 0.68442 0.0
H1067 H 0.51451 0.33316 0.70763 0.0
H1068 H 0.52448 0.34778 0.6844 0.0
H1069 H 0.4884 0.2304 0.64851 0.0
H1070 H 0.48601 0.24161 0.67948 0.0
H1071 H 0.46752 0.24698 0.65675 0.0
H1072 H 0.47106 0.2841 0.74769 0.0
H1073 H 0.42587 0.29284 0.69121 0.0
H1074 H 0.52076 0.29898 0.72258 0.0
H1075 H 0.51182 0.26817 0.71326 0.0
H1076 H 0.50825 0.2821 0.74307 0.0
H1077 H 0.46663 0.31057 0.65394 0.0
H1078 H 0.43726 0.2986 0.65415 0.0
H1079 H 0.45612 0.27998 0.64445 0.0
C1080 C 0.03992 0.80605 0.58069 0.0
C1081 C 0.02945 0.81068 0.60158 0.0
C1082 C 0.04396 0.82239 0.56604 0.0
C1083 C 0.03752 0.84392 0.57254 0.0
C1084 C 0.02658 0.84854 0.59336 0.0
C1085 C 0.02259 0.83182 0.60759 0.0
C1086 C 0.05547 0.81677 0.54384 0.0
C1087 C 0.01953 0.87137 0.60088 0.0
C1088 C 0.06793 0.896 0.55024 0.0
C1089 C 0.05222 0.8977 0.53213 0.0
C1090 C 0.06348 0.87834 0.5633 0.0
C1091 C 0.04288 0.86196 0.55801 0.0
C1092 C 0.02721 0.86321 0.5393 0.0
C1093 C 0.03205 0.88113 0.52662 0.0
C1094 C 0.08055 0.87763 0.58322 0.0
C1095 C 1.00517 0.84589 0.53299 0.0
H1096 H 0.04515 0.7897 0.57584 0.0
H1097 H 0.01451 0.83552 0.62371 0.0
H1098 H 0.04525 0.81881 0.52798 0.0
H1099 H 0.07179 0.82912 0.54541 0.0
H1100 H 0.05845 0.79881 0.54069 0.0
H1101 H 1.01065 0.87199 0.6172 0.0
H1102 H 0.03446 0.88585 0.60441 0.0
H1103 H 1.00839 0.87438 0.58628 0.0
H1104 H 0.08341 0.90896 0.55477 0.0
H1105 H 0.01996 0.8823 0.51247 0.0
H1106 H 0.08511 0.86038 0.58038 0.0
H1107 H 0.07329 0.88013 0.60051 0.0
H1108 H 0.09603 0.89122 0.58457 0.0
H1109 H 1.00807 0.82794 0.52914 0.0
H1110 H 0.99527 0.84866 0.51725 0.0
H1111 H 0.99509 0.84727 0.54838 0.0
C1112 C 0.5181 0.75656 0.82305 0.0
C1113 C 0.54013 0.76855 0.82304 0.0
C1114 C 0.50089 0.75964 0.8074 0.0
C1115 C 0.50607 0.77485 0.79144 0.0
C1116 C 0.52866 0.78401 0.78894 0.0
C1117 C 0.54549 0.78092 0.80498 0.0
C1118 C 0.47699 0.74912 0.8102 0.0
C1119 C 0.5349 0.79953 0.77147 0.0
C1120 C 0.4577 0.78654 0.7539 0.0
C1121 C 0.45314 0.80609 0.76889 0.0
C1122 C 0.47537 0.77641 0.76047 0.0
C1123 C 0.48848 0.78595 0.78264 0.0
C1124 C 0.48439 0.80613 0.7974 0.0
C1125 C 0.46682 0.8159 0.79033 0.0
C1126 C 0.47931 0.75505 0.74415 0.0
C1127 C 0.498 0.81696 0.82123 0.0
H1128 H 0.51395 0.74671 0.83678 0.0
H1129 H 0.56265 0.78972 0.80457 0.0
H1130 H 0.46937 0.76263 0.82058 0.0
H1131 H 0.46696 0.74272 0.79255 0.0
H1132 H 0.47591 0.73452 0.81978 0.0
H1133 H 0.55265 0.80083 0.76789 0.0
H1134 H 0.52403 0.79305 0.75432 0.0
H1135 H 0.53254 0.81724 0.77899 0.0
H1136 H 0.44718 0.7789 0.73726 0.0
H1137 H 0.46311 0.83064 0.8023 0.0
H1138 H 0.47129 0.73939 0.75056 0.0
H1139 H 0.49742 0.75515 0.74411 0.0
H1140 H 0.47197 0.75352 0.72553 0.0
H1141 H 0.49615 0.80428 0.83318 0.0
H1142 H 0.49283 0.83285 0.83031 0.0
H1143 H 0.51599 0.82165 0.81875 0.0
C1144 C 0.55707 0.21861 0.09612 0.0
C1145 C 0.54115 0.22105 0.11237 0.0
C1146 C 0.5595 0.19655 0.0847 0.0
C1147 C 0.54555 0.17652 0.08953 0.0
C1148 C 0.52942 0.17886 0.10586 0.0
C1149 C 0.52746 0.20111 0.11715 0.0
C1150 C 0.57696 0.19466 0.06746 0.0
C1151 C 0.51411 0.15786 0.11126 0.0
C1152 C 0.53683 0.12083 0.04299 0.0
C1153 C 0.55116 0.10873 0.05299 0.0
C1154 C 0.53474 0.14285 0.05479 0.0
C1155 C 0.54745 0.15309 0.07704 0.0
C1156 C 0.56189 0.14097 0.08732 0.0
C1157 C 0.56349 0.11884 0.07521 0.0
C1158 C 0.51895 0.15515 0.04345 0.0
C1159 C 0.57577 0.15148 0.11098 0.0
H1160 H 0.56776 0.23395 0.09243 0.0
H1161 H 0.51509 0.20285 0.12966 0.0
H1162 H 0.5886 0.18422 0.07318 0.0
H1163 H 0.56882 0.18551 0.04943 0.0
H1164 H 0.58683 0.21193 0.06611 0.0
H1165 H 0.50257 0.16268 0.12456 0.0
H1166 H 0.50401 0.14745 0.09462 0.0
H1167 H 0.52413 0.14653 0.11821 0.0
H1168 H 0.52711 0.11306 0.02591 0.0
H1169 H 0.57463 0.1096 0.08301 0.0
H1170 H 0.52835 0.17188 0.0402 0.0
H1171 H 0.50637 0.15923 0.05572 0.0
H1172 H 0.51003 0.14461 0.02621 0.0
H1173 H 0.5869 0.16815 0.10986 0.0
H1174 H 0.58621 0.13979 0.11651 0.0
H1175 H 0.56472 0.15542 0.12508 0.0
C1176 C 0.18539 0.34987 0.37993 0.0
C1177 C 0.16513 0.33642 0.36775 0.0
C1178 C 0.20522 0.35125 0.36881 0.0
C1179 C 0.20453 0.33909 0.345 0.0
C1180 C 0.18381 0.32698 0.33214 0.0
C1181 C 0.16439 0.32565 0.34373 0.0
C1182 C 0.22704 0.36433 0.38305 0.0
C1183 C 0.18231 0.314 0.3066 0.0
C1184 C 0.25297 0.3431 0.30693 0.0
C1185 C 0.25953 0.3223 0.30847 0.0
C1186 C 0.23575 0.34973 0.31985 0.0
C1187 C 0.2254 0.33535 0.33477 0.0
C1188 C 0.23325 0.31526 0.3376 0.0
C1189 C 0.25008 0.3089 0.32426 0.0
C1190 C 0.22781 0.3713 0.31648 0.0
C1191 C 0.22301 0.29965 0.35366 0.0
H1192 H 0.18596 0.35842 0.39845 0.0
H1193 H 0.14864 0.31567 0.33408 0.0
H1194 H 0.23644 0.35175 0.38842 0.0
H1195 H 0.23761 0.37458 0.37213 0.0
H1196 H 0.22436 0.37621 0.39946 0.0
H1197 H 0.16475 0.30811 0.29823 0.0
H1198 H 0.1919 0.32511 0.2957 0.0
H1199 H 0.18976 0.29851 0.30613 0.0
H1200 H 0.26053 0.35354 0.29487 0.0
H1201 H 0.25565 0.29313 0.32593 0.0
H1202 H 0.22488 0.38143 0.33383 0.0
H1203 H 0.21165 0.3662 0.30495 0.0
H1204 H 0.23997 0.38263 0.3079 0.0
H1205 H 0.22195 0.31001 0.37157 0.0
H1206 H 0.23273 0.28623 0.35587 0.0
H1207 H 0.20573 0.29071 0.34597 0.0
C1208 C 0.99153 0.04039 0.20051 0.0
C1209 C 0.97505 0.05348 0.20645 0.0
C1210 C 1.00228 0.04019 0.17912 0.0
C1211 C 0.99665 0.05314 0.16204 0.0
C1212 C 0.98012 0.06658 0.16786 0.0
C1213 C 0.96977 0.06673 0.18973 0.0
C1214 C 0.01975 0.02577 0.17475 0.0
C1215 C 0.97299 0.08059 0.15065 0.0
C1216 C 0.03869 0.06627 0.11479 0.0
C1217 C 0.0303 0.04866 0.0943 0.0
C1218 C 0.028 0.06809 0.1364 0.0
C1219 C 1.00787 0.05217 0.13829 0.0
C1220 C 0.99918 0.03454 0.11756 0.0
C1221 C 1.01033 0.03296 0.09628 0.0
C1222 C 0.03853 0.08712 0.15749 0.0
C1223 C 0.97787 0.01712 0.11782 0.0
H1224 H 0.99618 0.02999 0.21279 0.0
H1225 H 0.95712 0.07685 0.19341 0.0
H1226 H 0.01423 0.01208 0.15838 0.0
H1227 H 0.03566 0.03684 0.17175 0.0
H1228 H 0.02307 0.01733 0.1899 0.0
H1229 H 0.96033 0.0904 0.15748 0.0
H1230 H 0.98771 0.09304 0.1471 0.0
H1231 H 0.96585 0.06888 0.13333 0.0
H1232 H 0.05387 0.07878 0.11405 0.0
H1233 H 1.00315 0.01932 0.08095 0.0
H1234 H 0.04295 0.07938 0.17281 0.0
H1235 H 0.0264 0.09804 0.16316 0.0
H1236 H 0.05385 0.09843 0.15345 0.0
H1237 H 0.98024 1.0067 0.1315 0.0
H1238 H 0.97248 1.00511 0.10025 0.0
H1239 H 0.96426 0.02628 0.1228 0.0
C1240 C 0.29431 0.68075 0.50186 0.0
C1241 C 0.30623 0.66287 0.49895 0.0
C1242 C 0.29183 0.69324 0.48384 0.0
C1243 C 0.30133 0.68761 0.46223 0.0
C1244 C 0.31355 0.66971 0.4592 0.0
C1245 C 0.31596 0.65761 0.47766 0.0
C1246 C 0.27889 0.71238 0.48789 0.0
C1247 C 0.32378 0.66312 0.43633 0.0
C1248 C 0.2748 0.70591 0.40911 0.0
C1249 C 0.28982 0.72659 0.40834 0.0
C1250 C 0.27875 0.69262 0.42604 0.0
C1251 C 0.29807 0.70033 0.44276 0.0
C1252 C 0.31352 0.72096 0.44176 0.0
C1253 C 0.30925 0.73379 0.42449 0.0
C1254 C 0.262 0.67058 0.42635 0.0
C1255 C 0.33419 0.72987 0.45941 0.0
H1256 H 0.28686 0.68504 0.5183 0.0
H1257 H 0.32517 0.64379 0.47527 0.0
H1258 H 0.28945 0.72895 0.48561 0.0
H1259 H 0.26407 0.70818 0.47444 0.0
H1260 H 0.27312 0.71505 0.50598 0.0
H1261 H 0.33308 0.64906 0.43692 0.0
H1262 H 0.31047 0.65724 0.4211 0.0
H1263 H 0.3354 0.67848 0.43275 0.0
H1264 H 0.25993 0.70011 0.39642 0.0
H1265 H 0.32082 0.74987 0.42408 0.0
H1266 H 0.25409 0.67251 0.44327 0.0
H1267 H 0.27056 0.65582 0.42563 0.0
H1268 H 0.24863 0.66619 0.41118 0.0
H1269 H 0.32925 0.73446 0.47769 0.0
H1270 H 0.34517 0.74545 0.45537 0.0
H1271 H 0.34396 0.71614 0.45946 0.0
C1272 C 0.6434 0.98498 0.66662 0.0
C1273 C 0.66122 1.0043 0.67333 0.0
C1274 C 0.62621 0.98455 0.64894 0.0
C1275 C 0.62676 1.00409 0.63826 0.0
C1276 C 0.64455 0.02374 0.64532 0.0
C1277 C 0.66164 0.02349 0.66255 0.0
C1278 C 0.60773 0.96313 0.6414 0.0
C1279 C 0.64563 0.04509 0.6346 0.0
C1280 C 0.60105 1.00414 0.57697 0.0
C1281 C 0.5832 0.01491 0.58242 0.0
C1282 C 0.6141 0.9983 0.59486 0.0
C1283 C 0.60952 1.00403 0.61886 0.0
C1284 C 0.59053 0.01346 0.62425 0.0
C1285 C 0.57735 0.01857 0.60579 0.0
C1286 C 0.63388 0.98778 0.58824 0.0
C1287 C 0.5853 0.02009 0.64966 0.0
H1288 H 0.64302 0.97014 0.67497 0.0
H1289 H 0.67518 0.03864 0.66791 0.0
H1290 H 0.59121 0.96778 0.64332 0.0
H1291 H 0.60802 0.9555 0.62226 0.0
H1292 H 0.60932 0.94972 0.65203 0.0
H1293 H 0.6599 0.05941 0.64312 0.0
H1294 H 0.64734 0.04063 0.61523 0.0
H1295 H 0.62992 0.05151 0.63652 0.0
H1296 H 0.60527 1.00097 0.55874 0.0
H1297 H 0.56348 0.02689 0.60989 0.0
H1298 H 0.63567 0.97417 0.5985 0.0
H1299 H 0.64942 1.00149 0.59262 0.0
H1300 H 0.63237 0.98003 0.56887 0.0
H1301 H 0.58683 1.00618 0.65959 0.0
H1302 H 0.56821 0.02362 0.65051 0.0
H1303 H 0.59753 0.036 0.65889 0.0
C1304 C 0.31053 0.32176 0.96737 0.0
C1305 C 0.3139 0.34562 0.97709 0.0
C1306 C 0.30882 0.31348 0.94251 0.0
C1307 C 0.31049 0.32942 0.92698 0.0
C1308 C 0.31357 0.35347 0.93668 0.0
C1309 C 0.31525 0.36125 0.96153 0.0
C1310 C 0.30555 0.2877 0.93286 0.0
C1311 C 0.3154 0.37108 0.9208 0.0
C1312 C 0.32951 0.31403 0.86525 0.0
C1313 C 0.30934 0.30915 0.85034 0.0
C1314 C 0.33001 0.32001 0.8902 0.0
C1315 C 0.30985 0.3212 0.90063 0.0
C1316 C 0.28936 0.31579 0.88576 0.0
C1317 C 0.28934 0.30982 0.86081 0.0
C1318 C 0.35222 0.3256 0.90538 0.0
C1319 C 0.26751 0.31687 0.89615 0.0
H1320 H 0.30942 0.30953 0.97919 0.0
H1321 H 0.31777 0.37972 0.96876 0.0
H1322 H 0.29043 0.28157 0.91976 0.0
H1323 H 0.32002 0.28408 0.92328 0.0
H1324 H 0.30378 0.27751 0.94719 0.0
H1325 H 0.31708 0.38908 0.93108 0.0
H1326 H 0.33015 0.37042 0.91067 0.0
H1327 H 0.30041 0.36686 0.90755 0.0
H1328 H 0.34507 0.31347 0.85742 0.0
H1329 H 0.27364 0.30604 0.84952 0.0
H1330 H 0.35155 0.31476 0.91913 0.0
H1331 H 0.35587 0.34403 0.91492 0.0
H1332 H 0.36622 0.32269 0.89464 0.0
H1333 H 0.26527 0.30602 0.90986 0.0
H1334 H 0.2529 0.31088 0.88232 0.0
H1335 H 0.26771 0.33499 0.90517 0.0
C1336 C 0.96443 0.06522 0.35809 0.0
C1337 C 0.97722 0.06364 0.33846 0.0
C1338 C 0.97324 0.06383 0.38149 0.0
C1339 C 0.99568 0.0611 0.38609 0.0
C1340 C 1.00874 0.06014 0.36643 0.0
C1341 C 0.99946 0.06119 0.3433 0.0
C1342 C 0.95824 0.06468 0.40128 0.0
C1343 C 0.03271 0.0577 0.36973 0.0
C1344 C 0.02654 0.07548 0.45099 0.0
C1345 C 0.02605 0.05343 0.45661 0.0
C1346 C 0.01668 0.07825 0.42865 0.0
C1347 C 1.00544 0.05859 0.41092 0.0
C1348 C 1.0046 0.03633 0.41669 0.0
C1349 C 0.01487 0.03405 0.43899 0.0
C1350 C 0.01866 0.10241 0.42388 0.0
C1351 C 0.99284 0.01465 0.39909 0.0
H1352 H 0.94724 0.06683 0.35506 0.0
H1353 H 1.00985 0.05993 0.32873 0.0
H1354 H 0.956 0.04816 0.40779 0.0
H1355 H 0.96609 0.07886 0.4166 0.0
H1356 H 0.94152 0.06745 0.39541 0.0
H1357 H 0.04118 0.05845 0.35326 0.0
H1358 H 0.04222 0.07169 0.3844 0.0
H1359 H 0.03332 0.04089 0.3749 0.0
H1360 H 0.03499 0.09079 0.46402 0.0
H1361 H 0.01402 0.01684 0.44266 0.0
H1362 H 1.00181 0.10561 0.41948 0.0
H1363 H 0.02807 0.1041 0.40819 0.0
H1364 H 0.02732 0.11603 0.43939 0.0
H1365 H 0.97544 0.01587 0.39384 0.0
H1366 H 0.99237 0.9987 0.40643 0.0
H1367 H 1.00147 0.01293 0.38263 0.0
C1368 C 0.32524 0.67019 0.62165 0.0
C1369 C 0.33168 0.67823 0.60113 0.0
C1370 C 0.32173 0.6856 0.64216 0.0
C1371 C 0.32431 0.70961 0.64207 0.0
C1372 C 0.33072 0.71779 0.62138 0.0
C1373 C 0.33449 0.70209 0.6013 0.0
C1374 C 0.31533 0.67619 0.66399 0.0
C1375 C 0.33345 0.74316 0.62037 0.0
C1376 C 0.29633 0.74652 0.6879 0.0
C1377 C 0.31442 0.7579 0.70502 0.0
C1378 C 0.29931 0.73096 0.66722 0.0
C1379 C 0.32081 0.7263 0.66376 0.0
C1380 C 0.3391 0.73774 0.681 0.0
C1381 C 0.33574 0.75348 0.70122 0.0
C1382 C 0.27943 0.71941 0.64911 0.0
C1383 C 0.36224 0.73308 0.67831 0.0
H1384 H 0.32301 0.65181 0.62171 0.0
H1385 H 0.33925 0.70851 0.5855 0.0
H1386 H 0.32786 0.68493 0.67947 0.0
H1387 H 0.29897 0.67997 0.66866 0.0
H1388 H 0.31415 0.65714 0.66129 0.0
H1389 H 0.33797 0.74668 0.60275 0.0
H1390 H 0.31768 0.74896 0.62401 0.0
H1391 H 0.34667 0.75383 0.63438 0.0
H1392 H 0.2798 0.74972 0.69068 0.0
H1393 H 0.34983 0.76186 0.71444 0.0
H1394 H 0.27641 0.70028 0.64734 0.0
H1395 H 0.28289 0.72318 0.63133 0.0
H1396 H 0.26396 0.7253 0.65407 0.0
H1397 H 0.36182 0.71432 0.67722 0.0
H1398 H 0.37466 0.74323 0.6934 0.0
H1399 H 0.36801 0.73745 0.66145 0.0
C1400 C 0.6797 0.04271 0.79432 0.0
C1401 C 0.67286 0.04827 0.77269 0.0
C1402 C 0.66723 0.04563 0.8139 0.0
C1403 C 0.64733 0.05402 0.81166 0.0
C1404 C 0.64037 0.05971 0.7899 0.0
C1405 C 0.6533 0.05689 0.77069 0.0
C1406 C 0.67529 0.03963 0.83694 0.0
C1407 C 0.61911 0.06847 0.7868 0.0
C1408 C 0.60418 0.03921 0.85385 0.0
C1409 C 0.60759 0.06011 0.87068 0.0
C1410 C 0.61686 0.03708 0.8344 0.0
C1411 C 0.63349 0.05626 0.83191 0.0
C1412 C 0.63699 0.07744 0.84884 0.0
C1413 C 0.62387 0.07915 0.86799 0.0
C1414 C 0.61247 0.01432 0.81653 0.0
C1415 C 0.65475 0.09816 0.84688 0.0
H1416 H 0.69488 0.03618 0.79601 0.0
H1417 H 0.6479 0.06116 0.754 0.0
H1418 H 0.67724 0.05487 0.85186 0.0
H1419 H 0.66271 0.02541 0.84129 0.0
H1420 H 0.69152 0.03407 0.83601 0.0
H1421 H 0.61617 0.07236 0.7688 0.0
H1422 H 0.60459 0.0553 0.78958 0.0
H1423 H 0.61979 0.08447 0.80041 0.0
H1424 H 0.5914 0.02457 0.8558 0.0
H1425 H 0.62663 0.09525 0.88114 0.0
H1426 H 0.62778 1.00706 0.81603 0.0
H1427 H 0.60821 0.01719 0.79837 0.0
H1428 H 0.59861 1.00125 0.82081 0.0
H1429 H 0.67141 0.09354 0.84738 0.0
H1430 H 0.65528 0.11338 0.86149 0.0
H1431 H 0.65167 0.10325 0.82952 0.0
C1432 C 0.30635 0.36542 0.11567 0.0
C1433 C 0.32372 0.35861 0.10319 0.0
C1434 C 0.3018 0.35879 0.13743 0.0
C1435 C 0.31474 0.34474 0.14683 0.0
C1436 C 0.33189 0.3373 0.13401 0.0
C1437 C 0.33626 0.34442 0.11245 0.0
C1438 C 0.28356 0.36733 0.15067 0.0
C1439 C 0.34592 0.32211 0.14328 0.0
C1440 C 0.32105 0.34523 0.21342 0.0
C1441 C 0.30634 0.32451 0.21474 0.0
C1442 C 0.32332 0.35244 0.19159 0.0
C1443 C 0.31087 0.33839 0.17044 0.0
C1444 C 0.2955 0.31778 0.17177 0.0
C1445 C 0.29328 0.31119 0.19395 0.0
C1446 C 0.33954 0.37479 0.19109 0.0
C1447 C 0.28207 0.3022 0.14964 0.0
H1448 H 0.29662 0.37647 0.10876 0.0
H1449 H 0.34965 0.339 0.10293 0.0
H1450 H 0.27132 0.35244 0.15428 0.0
H1451 H 0.29088 0.3785 0.1682 0.0
H1452 H 0.2745 0.37746 0.14057 0.0
H1453 H 0.35786 0.31687 0.13064 0.0
H1454 H 0.35555 0.33151 0.16055 0.0
H1455 H 0.33498 0.3062 0.14664 0.0
H1456 H 0.33107 0.3557 0.22944 0.0
H1457 H 0.28202 0.29506 0.19479 0.0
H1458 H 0.33104 0.38616 0.18219 0.0
H1459 H 0.35339 0.37093 0.18056 0.0
H1460 H 0.3468 0.3845 0.20928 0.0
H1461 H 0.27273 0.31228 0.13983 0.0
H1462 H 0.26999 0.28746 0.15383 0.0
H1463 H 0.29353 0.29511 0.13747 0.0
C1464 C 0.22438 0.99775 0.02893 0.0
C1465 C 0.22877 0.99164 1.00506 0.0
C1466 C 0.20393 1.00397 0.03479 0.0
C1467 C 0.18743 1.00463 0.01644 0.0
C1468 C 0.19205 0.999 0.99235 0.0
C1469 C 0.21237 0.99238 0.98701 0.0
C1470 C 0.19981 1.00949 0.06069 0.0
C1471 C 0.17549 0.99998 0.97207 0.0
C1472 C 0.12534 1.00165 0.02671 0.0
C1473 C 0.12372 0.02511 0.03004 0.0
C1474 C 0.14594 0.99482 0.02301 0.0
C1475 C 0.16561 0.0117 0.02226 0.0
C1476 C 0.1641 0.03539 0.02596 0.0
C1477 C 0.14342 0.04175 0.02991 0.0
C1478 C 0.14654 0.96938 0.01942 0.0
C1479 C 0.18425 0.05409 0.0249 0.0
H1480 H 0.23668 0.99703 0.04308 0.0
H1481 H 0.21543 0.98777 0.96849 0.0
H1482 H 0.19697 0.02742 0.06541 0.0
H1483 H 0.18445 0.99756 0.06371 0.0
H1484 H 0.21401 1.00791 0.07288 0.0
H1485 H 0.18169 0.99564 0.95435 0.0
H1486 H 0.15947 0.98766 0.97225 0.0
H1487 H 0.17184 0.01762 0.97433 0.0
H1488 H 0.11041 0.98851 0.0266 0.0
H1489 H 0.14263 0.05991 0.03218 0.0
H1490 H 0.15989 0.96679 0.03203 0.0
H1491 H 0.15061 0.96314 1.00108 0.0
H1492 H 0.13035 0.95854 0.02204 0.0
H1493 H 0.19832 0.0533 0.03769 0.0
H1494 H 0.18068 0.07179 0.02904 0.0
H1495 H 0.1899 0.05119 1.00678 0.0
C1496 C 0.70278 0.65512 0.97616 0.0
C1497 C 0.72241 0.65262 0.98849 0.0
C1498 C 0.68196 0.64093 0.97767 0.0
C1499 C 0.68073 0.62387 0.99189 0.0
C1500 C 0.70057 0.62075 1.00371 0.0
C1501 C 0.72114 0.63511 1.00185 0.0
C1502 C 0.66119 0.64471 0.96471 0.0
C1503 C 0.69999 0.60278 0.01907 0.0
C1504 C 0.62729 0.60599 0.01987 0.0
C1505 C 0.61793 0.58401 1.00563 0.0
C1506 C 0.64747 0.61925 0.01528 0.0
C1507 C 0.65861 0.61043 0.99589 0.0
C1508 C 0.64905 0.58851 0.98108 0.0
C1509 C 0.62883 0.57553 0.98614 0.0
C1510 C 0.65709 0.64253 0.03154 0.0
C1511 C 0.66037 0.57861 0.96015 0.0
H1512 H 0.70358 0.66851 0.96572 0.0
H1513 H 0.73619 0.63294 0.01136 0.0
H1514 H 0.65144 0.62802 0.95382 0.0
H1515 H 0.65031 0.65137 0.97787 0.0
H1516 H 0.66515 0.65731 0.95285 0.0
H1517 H 0.71701 0.60155 0.02586 0.0
H1518 H 0.69061 0.60728 0.03458 0.0
H1519 H 0.6911 0.58545 1.0088 0.0
H1520 H 0.619 0.61281 0.0349 0.0
H1521 H 0.6217 0.55863 0.97497 0.0
H1522 H 0.65991 0.65634 0.02095 0.0
H1523 H 0.67356 0.64224 0.04059 0.0
H1524 H 0.646 0.64722 0.0454 0.0
H1525 H 0.66361 0.59115 0.94815 0.0
H1526 H 0.65022 0.56191 0.94963 0.0
H1527 H 0.67681 0.57566 0.96661 0.0
C1528 C 0.72035 0.43783 0.24719 0.0
C1529 C 0.72067 0.45635 0.26687 0.0
C1530 C 0.73108 0.41876 0.2483 0.0
C1531 C 0.74304 0.41691 0.26979 0.0
C1532 C 0.74357 0.43548 0.28989 0.0
C1533 C 0.73267 0.45463 0.28825 0.0
C1534 C 0.72953 0.40032 0.22603 0.0
C1535 C 0.75569 0.43507 0.31346 0.0
C1536 C 0.7538 0.35473 0.2754 0.0
C1537 C 0.77605 0.35506 0.26975 0.0
C1538 C 0.74329 0.37433 0.27597 0.0
C1539 C 0.75477 0.39579 0.27079 0.0
C1540 C 0.77725 0.39625 0.26519 0.0
C1541 C 0.78738 0.37642 0.26482 0.0
C1542 C 0.71954 0.37195 0.28213 0.0
C1543 C 0.7908 0.41793 0.25932 0.0
H1544 H 0.71148 0.4381 0.23031 0.0
H1545 H 0.73344 0.46815 0.30391 0.0
H1546 H 0.74655 0.39903 0.22128 0.0
H1547 H 0.72133 0.38315 0.22934 0.0
H1548 H 0.71994 0.40392 0.21055 0.0
H1549 H 0.75482 0.45026 0.32754 0.0
H1550 H 0.74838 0.41892 0.31947 0.0
H1551 H 0.77351 0.43488 0.31133 0.0
H1552 H 0.74438 0.33894 0.27951 0.0
H1553 H 0.80447 0.37776 0.26053 0.0
H1554 H 0.70862 0.37406 0.26684 0.0
H1555 H 0.71858 0.38591 0.29752 0.0
H1556 H 0.71289 0.35485 0.28664 0.0
H1557 H 0.78254 0.42185 0.24321 0.0
H1558 H 0.80811 0.41627 0.25598 0.0
H1559 H 0.79162 0.43295 0.27421 0.0
C1560 C 0.87988 0.48031 0.49354 0.0
C1561 C 0.86579 0.49303 0.50609 0.0
C1562 C 0.90315 0.48877 0.49517 0.0
C1563 C 0.91308 0.51055 0.51003 0.0
C1564 C 0.89893 0.52389 0.52229 0.0
C1565 C 0.87546 0.51507 0.52005 0.0
C1566 C 0.91721 0.47395 0.4814 0.0
C1567 C 0.90868 0.5471 0.53848 0.0
C1568 C 0.97483 0.51635 0.53194 0.0
C1569 C 0.98615 0.52893 0.51634 0.0
C1570 C 0.95124 0.51124 0.53078 0.0
C1571 C 0.93829 0.51853 0.51336 0.0
C1572 C 0.9496 0.5316 0.49784 0.0
C1573 C 0.97327 0.53675 0.4996 0.0
C1574 C 0.94015 0.49749 0.54793 0.0
C1575 C 0.93668 0.53956 0.47881 0.0
H1576 H 0.87269 0.46334 0.48253 0.0
H1577 H 0.86486 0.52499 0.52999 0.0
H1578 H 0.92781 0.48413 0.47043 0.0
H1579 H 0.92858 0.46848 0.49402 0.0
H1580 H 0.90688 0.45814 0.46944 0.0
H1581 H 0.89553 0.55608 0.5455 0.0
H1582 H 0.9193 0.54459 0.5538 0.0
H1583 H 0.91957 0.55848 0.52881 0.0
H1584 H 0.98443 0.51038 0.54516 0.0
H1585 H 0.98167 0.5465 0.48744 0.0
H1586 H 0.93086 0.4802 0.53794 0.0
H1587 H 0.92784 0.50646 0.55692 0.0
H1588 H 0.95243 0.49491 0.56177 0.0
H1589 H 0.92717 0.52422 0.46559 0.0
H1590 H 0.94778 0.55092 0.46925 0.0
H1591 H 0.92435 0.54915 0.48681 0.0
C1592 C 0.32955 0.05997 0.26106 0.0
C1593 C 0.34799 0.07169 0.27761 0.0
C1594 C 0.31525 0.07219 0.25125 0.0
C1595 C 0.31967 0.09668 0.25802 0.0
C1596 C 0.33804 0.10858 0.27501 0.0
C1597 C 0.35193 0.09591 0.28469 0.0
C1598 C 0.29564 0.05898 0.23342 0.0
C1599 C 0.34331 0.13475 0.2826 0.0
C1600 C 0.30156 0.13542 0.21914 0.0
C1601 C 0.28524 0.14395 0.23203 0.0
C1602 C 0.31196 0.11871 0.22648 0.0
C1603 C 0.30562 0.11019 0.24699 0.0
C1604 C 0.28765 0.11705 0.25866 0.0
C1605 C 0.27771 0.13397 0.25109 0.0
C1606 C 0.33099 0.11171 0.21349 0.0
C1607 C 0.2802 0.10804 0.28037 0.0
H1608 H 0.32634 0.04121 0.25562 0.0
H1609 H 0.36617 0.10504 0.29743 0.0
H1610 H 0.27992 0.06363 0.23925 0.0
H1611 H 0.29776 0.06387 0.21585 0.0
H1612 H 0.29382 0.03986 0.23104 0.0
H1613 H 0.35807 0.14128 0.2962 0.0
H1614 H 0.34666 0.1427 0.26685 0.0
H1615 H 0.32874 0.14074 0.2901 0.0
H1616 H 0.30713 0.14282 0.20414 0.0
H1617 H 0.26521 0.14057 0.26125 0.0
H1618 H 0.32921 0.09258 0.20999 0.0
H1619 H 0.34703 0.11952 0.22485 0.0
H1620 H 0.33195 0.11758 0.19625 0.0
H1621 H 0.27888 0.08899 0.27756 0.0
H1622 H 0.26381 0.11196 0.28484 0.0
H1623 H 0.29279 0.11627 0.29593 0.0
C1624 C 0.34494 0.14299 0.51178 0.0
C1625 C 0.35146 0.16716 0.51418 0.0
C1626 C 0.36058 0.12963 0.51617 0.0
C1627 C 0.38327 0.14069 0.52322 0.0
C1628 C 0.39003 0.16502 0.52534 0.0
C1629 C 0.37405 0.17796 0.52075 0.0
C1630 C 0.35275 0.1037 0.51357 0.0
C1631 C 0.41408 0.17743 0.53284 0.0
C1632 C 0.41903 0.10998 0.55751 0.0
C1633 C 0.43108 0.1004 0.53969 0.0
C1634 C 0.40351 0.12324 0.55241 0.0
C1635 C 0.39985 0.12685 0.52888 0.0
C1636 C 0.41191 0.11716 0.51079 0.0
C1637 C 0.42743 0.1041 0.51643 0.0
C1638 C 0.39108 0.13343 0.57223 0.0
C1639 C 0.40834 0.12046 0.48545 0.0
H1640 H 0.32754 0.13448 0.50665 0.0
H1641 H 0.37925 0.19661 0.52266 0.0
H1642 H 0.36242 0.09439 0.50081 0.0
H1643 H 0.35581 0.09875 0.53101 0.0
H1644 H 0.33466 0.09767 0.5072 0.0
H1645 H 0.41671 0.19635 0.53314 0.0
H1646 H 0.41935 0.17501 0.55092 0.0
H1647 H 0.42514 0.16989 0.52046 0.0
H1648 H 0.42198 0.10737 0.57556 0.0
H1649 H 0.4365 0.09647 0.50251 0.0
H1650 H 0.3728 0.12685 0.56759 0.0
H1651 H 0.39437 0.15261 0.57439 0.0
H1652 H 0.39597 0.12913 0.58959 0.0
H1653 H 0.3906 0.11332 0.47821 0.0
H1654 H 0.41912 0.11184 0.4735 0.0
H1655 H 0.41193 0.13926 0.4851 0.0
C1656 C 0.72035 0.62458 0.30214 0.0
C1657 C 0.72337 0.60402 0.28718 0.0
C1658 C 0.73222 0.64717 0.30078 0.0
C1659 C 0.74769 0.65027 0.2836 0.0
C1660 C 0.75108 0.62962 0.26852 0.0
C1661 C 0.73919 0.60702 0.27058 0.0
C1662 C 0.72791 0.66794 0.31775 0.0
C1663 C 0.76693 0.63142 0.24963 0.0
C1664 C 0.75991 0.71137 0.26623 0.0
C1665 C 0.78083 0.72273 0.2791 0.0
C1666 C 0.74948 0.68802 0.26699 0.0
C1667 C 0.75965 0.67501 0.2813 0.0
C1668 C 0.78077 0.68638 0.29435 0.0
C1669 C 0.79102 0.70964 0.29296 0.0
C1670 C 0.72728 0.67725 0.2524 0.0
C1671 C 0.79249 0.67406 0.31028 0.0
H1672 H 0.70837 0.62305 0.31514 0.0
H1673 H 0.74177 0.59173 0.25857 0.0
H1674 H 0.7439 0.67861 0.32749 0.0
H1675 H 0.72041 0.67909 0.30758 0.0
H1676 H 0.71646 0.66287 0.331 0.0
H1677 H 0.76836 0.61411 0.23961 0.0
H1678 H 0.76106 0.64129 0.23681 0.0
H1679 H 0.78379 0.64118 0.25789 0.0
H1680 H 0.75157 0.72075 0.2553 0.0
H1681 H 0.80705 0.71774 0.30315 0.0
H1682 H 0.7142 0.67343 0.26442 0.0
H1683 H 0.72822 0.6605 0.2408 0.0
H1684 H 0.72203 0.68875 0.24101 0.0
H1685 H 0.78183 0.66967 0.32439 0.0
H1686 H 0.80891 0.68474 0.31896 0.0
H1687 H 0.79516 0.65747 0.29979 0.0
C1688 C 0.8602 0.47844 0.81517 0.0
C1689 C 0.87852 0.48216 0.80187 0.0
C1690 C 0.84863 0.45586 0.81538 0.0
C1691 C 0.85573 0.43666 0.80218 0.0
C1692 C 0.8745 0.44033 0.78917 0.0
C1693 C 0.88559 0.46305 0.78907 0.0
C1694 C 0.82853 0.45254 0.82923 0.0
C1695 C 0.88266 0.42023 0.77502 0.0
C1696 C 0.8392 0.37551 0.81305 0.0
C1697 C 0.82377 0.36499 0.79305 0.0
C1698 C 0.84904 0.39927 0.81702 0.0
C1699 C 0.84297 0.41267 0.80076 0.0
C1700 C 0.82622 0.4024 0.78152 0.0
C1701 C 0.81693 0.37862 0.7778 0.0
C1702 C 0.86695 0.40964 0.83765 0.0
C1703 C 0.81903 0.41621 0.76402 0.0
H1704 H 0.85466 0.49318 0.8251 0.0
H1705 H 0.89985 0.46581 0.77894 0.0
H1706 H 0.81331 0.44405 0.81676 0.0
H1707 H 0.83051 0.44089 0.84179 0.0
H1708 H 0.82586 0.46924 0.83953 0.0
H1709 H 0.89821 0.42605 0.76691 0.0
H1710 H 0.88592 0.40817 0.78669 0.0
H1711 H 0.86958 0.41028 0.76051 0.0
H1712 H 0.84452 0.36495 0.82483 0.0
H1713 H 0.80473 0.37053 0.7625 0.0
H1714 H 0.86393 0.42626 0.84768 0.0
H1715 H 0.88345 0.41354 0.83069 0.0
H1716 H 0.86784 0.39771 0.85019 0.0
H1717 H 0.81528 0.43264 0.77364 0.0
H1718 H 0.80403 0.40632 0.75178 0.0
H1719 H 0.83286 0.42088 0.75309 0.0
C1720 C 0.10167 0.81804 0.03026 0.0
C1721 C 0.10476 0.83046 0.05397 0.0
C1722 C 0.09569 0.82838 0.01142 0.0
C1723 C 0.09288 0.85159 0.01658 0.0
C1724 C 0.0979 0.86472 0.04028 0.0
C1725 C 0.10366 0.85394 0.05869 0.0
C1726 C 0.09082 0.8139 0.98641 0.0
C1727 C 0.09561 0.88974 0.04652 0.0
C1728 C 0.08409 0.89241 0.97629 0.0
C1729 C 0.06177 0.89353 0.9795 0.0
C1730 C 0.09422 0.87661 0.98591 0.0
C1731 C 0.08154 0.86143 0.99853 0.0
C1732 C 0.05822 0.85993 0.99831 0.0
C1733 C 0.04862 0.87612 0.98894 0.0
C1734 C 0.11899 0.87818 0.98504 0.0
C1735 C 0.04391 0.84341 0.0109 0.0
H1736 H 0.10266 0.79989 0.02652 0.0
H1737 H 0.10648 0.8637 0.07695 0.0
H1738 H 0.07261 0.80636 0.98269 0.0
H1739 H 0.09559 0.82453 0.97292 0.0
H1740 H 0.09976 0.79933 0.98423 0.0
H1741 H 0.10218 0.89805 0.06531 0.0
H1742 H 0.10468 0.90001 0.03458 0.0
H1743 H 0.07771 0.89057 0.04396 0.0
H1744 H 0.09419 0.90516 0.96812 0.0
H1745 H 0.03134 0.87651 0.99144 0.0
H1746 H 0.12326 0.86088 0.98376 0.0
H1747 H 0.12812 0.88965 1.00171 0.0
H1748 H 0.12498 0.88567 0.96971 0.0
H1749 H 0.04808 0.82601 1.00704 0.0
H1750 H 0.02579 0.84151 1.00556 0.0
H1751 H 0.04717 0.85012 0.03049 0.0
C1752 C 0.94002 0.29685 0.89271 0.0
C1753 C 0.95603 0.28328 0.88807 0.0
C1754 C 0.92249 0.29578 0.87532 0.0
C1755 C 0.92092 0.28073 0.8528 0.0
C1756 C 0.9369 0.26683 0.84804 0.0
C1757 C 0.9543 0.26827 0.86576 0.0
C1758 C 0.90566 0.31082 0.88105 0.0
C1759 C 0.93563 0.25051 0.82425 0.0
C1760 C 0.8631 0.26457 0.81934 0.0
C1761 C 0.86464 0.28066 0.80429 0.0
C1762 C 0.88162 0.26368 0.83446 0.0
C1763 C 0.90217 0.27927 0.83453 0.0
C1764 C 0.9042 0.29469 0.81847 0.0
C1765 C 0.88535 0.29517 0.80345 0.0
C1766 C 0.87883 0.24689 0.85122 0.0
C1767 C 0.92592 0.31152 0.81807 0.0
H1768 H 0.94127 0.30852 0.90987 0.0
H1769 H 0.96664 0.25774 0.86203 0.0
H1770 H 0.90538 0.32233 0.86802 0.0
H1771 H 0.88865 0.29975 0.87948 0.0
H1772 H 0.90942 0.32178 0.89933 0.0
H1773 H 0.94946 0.24097 0.82336 0.0
H1774 H 0.91948 0.23768 0.82087 0.0
H1775 H 0.93627 0.26038 0.80967 0.0
H1776 H 0.84718 0.25311 0.8199 0.0
H1777 H 0.88663 0.30763 0.79186 0.0
H1778 H 0.88049 0.2567 0.86992 0.0
H1779 H 0.89215 0.23672 0.84986 0.0
H1780 H 0.8623 0.23462 0.8475 0.0
H1781 H 0.92964 0.32462 0.83505 0.0
H1782 H 0.92534 0.32074 0.80302 0.0
H1783 H 0.93994 0.30229 0.81664 0.0
C1784 C 0.60519 0.22234 0.59682 0.0
C1785 C 0.59339 0.23388 0.58291 0.0
C1786 C 0.60329 0.19825 0.59052 0.0
C1787 C 0.58907 0.18545 0.56998 0.0
C1788 C 0.57758 0.19708 0.55551 0.0
C1789 C 0.57998 0.22121 0.5621 0.0
C1790 C 0.61599 0.18641 0.60618 0.0
C1791 C 0.56214 0.18394 0.53356 0.0
C1792 C 0.5933 0.12416 0.54207 0.0
C1793 C 0.57571 0.11095 0.55128 0.0
C1794 C 0.5983 0.14848 0.54854 0.0
C1795 C 0.58517 0.15976 0.56429 0.0
C1796 C 0.56765 0.1465 0.57398 0.0
C1797 C 0.56322 0.12223 0.56747 0.0
C1798 C 0.61731 0.16211 0.53815 0.0
C1799 C 0.55314 0.15797 0.59066 0.0
H1800 H 0.61571 0.23208 0.61285 0.0
H1801 H 0.57081 0.23004 0.55128 0.0
H1802 H 0.60404 0.1748 0.61467 0.0
H1803 H 0.62571 0.1754 0.59527 0.0
H1804 H 0.62763 0.19905 0.62048 0.0
H1805 H 0.55519 0.19569 0.52368 0.0
H1806 H 0.57115 0.17325 0.5213 0.0
H1807 H 0.54803 0.17187 0.5388 0.0
H1808 H 0.60309 0.1155 0.52966 0.0
H1809 H 0.5495 0.11212 0.57452 0.0
H1810 H 0.62905 0.1743 0.55266 0.0
H1811 H 0.61068 0.17272 0.52662 0.0
H1812 H 0.62677 0.15068 0.52735 0.0
H1813 H 0.56366 0.16972 0.60635 0.0
H1814 H 0.54057 0.14512 0.59709 0.0
H1815 H 0.54421 0.16875 0.58138 0.0
C1816 C 0.6027 0.79275 0.4051 0.0
C1817 C 0.58091 0.78393 0.39379 0.0
C1818 C 0.62122 0.79355 0.39189 0.0
C1819 C 0.6178 0.7854 0.36684 0.0
C1820 C 0.59592 0.77579 0.35544 0.0
C1821 C 0.57774 0.77513 0.36907 0.0
C1822 C 0.64437 0.80377 0.40464 0.0
C1823 C 0.59163 0.76694 0.32874 0.0
C1824 C 0.66064 0.81102 0.32909 0.0
C1825 C 0.67243 0.79324 0.32353 0.0
C1826 C 0.64292 0.80871 0.3433 0.0
C1827 C 0.63693 0.78817 0.35229 0.0
C1828 C 0.64884 0.77021 0.34692 0.0
C1829 C 0.66644 0.77294 0.33254 0.0
C1830 C 0.63058 0.82825 0.34864 0.0
C1831 C 0.64289 0.74808 0.35624 0.0
H1832 H 0.6053 0.79948 0.42421 0.0
H1833 H 0.56096 0.7682 0.36019 0.0
H1834 H 0.65562 0.79156 0.40004 0.0
H1835 H 0.65152 0.82001 0.39872 0.0
H1836 H 0.64433 0.80783 0.42436 0.0
H1837 H 0.57376 0.75876 0.32283 0.0
H1838 H 0.59662 0.78154 0.31949 0.0
H1839 H 0.60191 0.75402 0.32296 0.0
H1840 H 0.66546 0.82692 0.32256 0.0
H1841 H 0.67536 0.75905 0.32812 0.0
H1842 H 0.63155 0.83458 0.36822 0.0
H1843 H 0.61262 0.82183 0.34193 0.0
H1844 H 0.63743 0.84312 0.34037 0.0
H1845 H 0.64367 0.75219 0.37601 0.0
H1846 H 0.65423 0.73608 0.351 0.0
H1847 H 0.62547 0.73898 0.34931 0.0
C1848 C 0.05767 0.27031 0.44834 0.0
C1849 C 0.07718 0.27312 0.43672 0.0
C1850 C 0.05386 0.25447 0.46354 0.0
C1851 C 0.07001 0.24125 0.46733 0.0
C1852 C 0.09003 0.24449 0.45623 0.0
C1853 C 0.09334 0.26033 0.44097 0.0
C1854 C 0.03224 0.25136 0.47495 0.0
C1855 C 0.1077 0.23079 0.46001 0.0
C1856 C 0.06779 0.21035 0.51956 0.0
C1857 C 0.0579 0.18751 0.50805 0.0
C1858 C 0.07171 0.22816 0.50657 0.0
C1859 C 0.06533 0.22293 0.48163 0.0
C1860 C 0.05478 0.19999 0.4701 0.0
C1861 C 0.05127 0.18255 0.48345 0.0
C1862 C 0.08314 0.25241 0.5194 0.0
C1863 C 0.04747 0.19377 0.44359 0.0
H1864 H 0.04511 0.28015 0.44518 0.0
H1865 H 0.10852 0.26252 0.43218 0.0
H1866 H 0.02226 0.23349 0.46811 0.0
H1867 H 0.03574 0.25353 0.49457 0.0
H1868 H 0.02199 0.26391 0.47127 0.0
H1869 H 0.12295 0.23647 0.45136 0.0
H1870 H 0.11252 0.23262 0.47938 0.0
H1871 H 0.10089 0.21206 0.45256 0.0
H1872 H 0.07304 0.21413 0.53857 0.0
H1873 H 0.04336 0.16491 0.47461 0.0
H1874 H 0.07273 0.26496 0.51624 0.0
H1875 H 0.09931 0.25767 0.51222 0.0
H1876 H 0.08639 0.25375 0.53896 0.0
H1877 H 0.03598 0.20482 0.43892 0.0
H1878 H 0.03885 0.17525 0.43754 0.0
H1879 H 0.06221 0.19716 0.43354 0.0
C1880 C 0.57094 0.28495 0.2347 0.0
C1881 C 0.57949 0.28385 0.21249 0.0
C1882 C 0.58481 0.28565 0.25543 0.0
C1883 C 0.60768 0.28543 0.25375 0.0
C1884 C 0.6166 0.28586 0.23159 0.0
C1885 C 0.60234 0.28488 0.21121 0.0
C1886 C 0.57463 0.28516 0.27863 0.0
C1887 C 0.64105 0.28614 0.22908 0.0
C1888 C 0.65617 0.2981 0.30093 0.0
C1889 C 0.66125 0.27595 0.29799 0.0
C1890 C 0.63684 0.30145 0.28878 0.0
C1891 C 0.62214 0.28209 0.27401 0.0
C1892 C 0.62512 0.25941 0.27459 0.0
C1893 C 0.64478 0.25658 0.2864 0.0
C1894 C 0.63384 0.32589 0.28927 0.0
C1895 C 0.60925 0.23821 0.25988 0.0
H1896 H 0.55322 0.28419 0.23573 0.0
H1897 H 0.60904 0.2844 0.19412 0.0
H1898 H 0.5703 0.26694 0.28104 0.0
H1899 H 0.58649 0.29535 0.29415 0.0
H1900 H 0.55906 0.29201 0.27866 0.0
H1901 H 0.6456 0.28845 0.21111 0.0
H1902 H 0.65175 0.30039 0.24267 0.0
H1903 H 0.64493 0.26953 0.23213 0.0
H1904 H 0.6683 0.31311 0.3108 0.0
H1905 H 0.64815 0.23929 0.28416 0.0
H1906 H 0.61589 0.3267 0.28844 0.0
H1907 H 0.64061 0.33182 0.27345 0.0
H1908 H 0.64292 0.33811 0.30556 0.0
H1909 H 0.59164 0.23993 0.26085 0.0
H1910 H 0.61131 0.22209 0.26588 0.0
H1911 H 0.61261 0.23638 0.24089 0.0
C1912 C 0.56932 0.87554 0.91671 0.0
C1913 C 0.58983 0.87027 0.92344 0.0
C1914 C 0.56403 0.89667 0.92698 0.0
C1915 C 0.57965 0.91289 0.94433 0.0
C1916 C 0.60042 0.90775 0.95112 0.0
C1917 C 0.60525 0.88645 0.94062 0.0
C1918 C 0.54169 0.90158 0.91937 0.0
C1919 C 0.6175 0.92471 0.96954 0.0
C1920 C 0.57525 0.97609 0.95683 0.0
C1921 C 0.56509 0.97781 0.97814 0.0
C1922 C 0.57988 0.95498 0.94547 0.0
C1923 C 0.57416 0.93515 0.95565 0.0
C1924 C 0.56354 0.93664 0.97689 0.0
C1925 C 0.55913 0.95797 0.9879 0.0
C1926 C 0.59122 0.95399 0.92279 0.0
C1927 C 0.55712 0.91578 0.98819 0.0
H1928 H 0.55731 0.86311 0.90345 0.0
H1929 H 0.62115 0.88251 0.94585 0.0
H1930 H 0.53208 0.90432 0.93502 0.0
H1931 H 0.54422 0.91778 0.91228 0.0
H1932 H 0.53151 0.88721 0.90546 0.0
H1933 H 0.63298 0.91819 0.9726 0.0
H1934 H 0.62205 0.94152 0.96376 0.0
H1935 H 0.61027 0.9282 0.98677 0.0
H1936 H 0.57991 0.99133 0.94915 0.0
H1937 H 0.55124 0.95912 1.00434 0.0
H1938 H 0.58097 0.94038 0.90825 0.0
H1939 H 0.60762 0.94918 0.92561 0.0
H1940 H 0.594 0.97083 0.91684 0.0
H1941 H 0.54603 0.90132 0.97518 0.0
H1942 H 0.54841 0.91971 1.00438 0.0
H1943 H 0.57231 0.90958 0.99325 0.0
C1944 C 0.94366 0.74907 0.68736 0.0
C1945 C 0.9439 0.76112 0.66859 0.0
C1946 C 0.92556 0.74685 0.70103 0.0
C1947 C 0.90747 0.7572 0.69595 0.0
C1948 C 0.90673 0.76758 0.67572 0.0
C1949 C 0.92499 0.76933 0.66216 0.0
C1950 C 0.92675 0.73524 0.72215 0.0
C1951 C 0.8876 0.77869 0.66968 0.0
C1952 C 0.85573 0.75136 0.72923 0.0
C1953 C 0.86082 0.77237 0.74606 0.0
C1954 C 0.87108 0.74558 0.71317 0.0
C1955 C 0.89181 0.76124 0.71413 0.0
C1956 C 0.89746 0.78178 0.73202 0.0
C1957 C 0.8819 0.78705 0.74777 0.0
C1958 C 0.86465 0.7234 0.6945 0.0
C1959 C 0.91955 0.79882 0.73388 0.0
H1960 H 0.95808 0.74221 0.69206 0.0
H1961 H 0.92502 0.77843 0.64751 0.0
H1962 H 0.93125 0.74873 0.73881 0.0
H1963 H 0.9103 0.72422 0.72357 0.0
H1964 H 0.93951 0.72434 0.72096 0.0
H1965 H 0.88792 0.78296 0.65165 0.0
H1966 H 0.87132 0.76706 0.67049 0.0
H1967 H 0.88867 0.795 0.68301 0.0
H1968 H 0.83939 0.73999 0.72782 0.0
H1969 H 0.88601 0.80317 0.76097 0.0
H1970 H 0.87875 0.7143 0.69284 0.0
H1971 H 0.86059 0.72759 0.67689 0.0
H1972 H 0.84983 0.7114 0.69864 0.0
H1973 H 0.93362 0.78989 0.73556 0.0
H1974 H 0.92162 0.81353 0.74942 0.0
H1975 H 0.92079 0.80598 0.71739 0.0
C1976 C 0.13594 0.03543 0.84958 0.0
C1977 C 0.15823 0.03258 0.85272 0.0
C1978 C 0.12233 0.03774 0.86909 0.0
C1979 C 0.13066 0.03706 0.89283 0.0
C1980 C 0.153 0.03389 0.89591 0.0
C1981 C 0.16621 0.03186 0.8763 0.0
C1982 C 0.09887 0.0411 0.86427 0.0
C1983 C 0.16316 0.03262 0.9202 0.0
C1984 C 0.10488 0.06303 0.95034 0.0
C1985 C 0.09173 0.0434 0.95679 0.0
C1986 C 0.11693 0.06133 0.92965 0.0
C1987 C 0.11637 0.03942 0.91436 0.0
C1988 C 0.103 0.0196 0.9207 0.0
C1989 C 0.09106 0.02179 0.94139 0.0
C1990 C 0.13063 0.0832 0.92432 0.0
C1991 C 0.10162 0.99571 0.90579 0.0
H1992 H 0.12914 0.03618 0.83189 0.0
H1993 H 0.18316 0.02962 0.87963 0.0
H1994 H 0.08674 0.02693 0.86931 0.0
H1995 H 0.09694 0.05768 0.87547 0.0
H1996 H 0.09457 0.04137 0.84522 0.0
H1997 H 0.18051 0.02978 0.91995 0.0
H1998 H 0.16337 0.04896 0.93313 0.0
H1999 H 0.15281 0.01826 0.92688 0.0
H2000 H 0.10598 0.07993 0.96166 0.0
H2001 H 0.08132 1.00623 0.94568 0.0
H2002 H 0.12579 0.08468 0.90577 0.0
H2003 H 0.14859 0.08244 0.92565 0.0
H2004 H 0.12856 0.09905 0.93678 0.0
H2005 H 0.09615 0.99534 0.88686 0.0
H2006 H 0.08985 0.98206 0.91208 0.0
H2007 H 0.11842 0.99143 0.90635 0.0
C2008 C 0.80411 0.43043 0.57119 0.0
C2009 C 0.78322 0.42569 0.55763 0.0
C2010 C 0.80838 0.41723 0.58811 0.0
C2011 C 0.79136 0.39885 0.59163 0.0
C2012 C 0.77006 0.39434 0.57845 0.0
C2013 C 0.76625 0.40779 0.56159 0.0
C2014 C 0.83131 0.42262 0.60183 0.0
C2015 C 0.75145 0.37496 0.58177 0.0
C2016 C 0.8099 0.35016 0.61629 0.0
C2017 C 0.80677 0.35601 0.64053 0.0
C2018 C 0.80473 0.36382 0.60017 0.0
C2019 C 0.79616 0.38381 0.60844 0.0
C2020 C 0.79267 0.38966 0.63281 0.0
C2021 C 0.79804 0.37572 0.64856 0.0
C2022 C 0.80862 0.35694 0.57431 0.0
C2023 C 0.78355 0.41083 0.64231 0.0
H2024 H 0.81733 0.44422 0.5683 0.0
H2025 H 0.75004 0.40403 0.55126 0.0
H2026 H 0.82989 0.42577 0.62131 0.0
H2027 H 0.83931 0.4075 0.59746 0.0
H2028 H 0.84243 0.43807 0.59771 0.0
H2029 H 0.73555 0.3744 0.57099 0.0
H2030 H 0.75636 0.35802 0.57653 0.0
H2031 H 0.74845 0.37704 0.60086 0.0
H2032 H 0.81627 0.33476 0.60983 0.0
H2033 H 0.79581 0.38054 0.6673 0.0
H2034 H 0.82081 0.37106 0.56926 0.0
H2035 H 0.79279 0.35441 0.56265 0.0
H2036 H 0.81508 0.34071 0.57066 0.0
H2037 H 0.79522 0.42672 0.63998 0.0
H2038 H 0.78104 0.41251 0.66153 0.0
H2039 H 0.76733 0.41001 0.63206 0.0
C2040 C 0.45257 0.03089 0.37412 0.0
C2041 C 0.44863 0.04987 0.36479 0.0
C2042 C 0.46751 0.03408 0.39454 0.0
C2043 C 0.47924 0.05678 0.40553 0.0
C2044 C 0.47555 0.07605 0.39603 0.0
C2045 C 0.45997 0.07239 0.37587 0.0
C2046 C 0.47056 0.01312 0.40447 0.0
C2047 C 0.48819 0.10041 0.40701 0.0
C2048 C 0.50095 0.06176 0.46984 0.0
C2049 C 0.52227 0.05695 0.46742 0.0
C2050 C 0.48715 0.06312 0.44996 0.0
C2051 C 0.49505 0.06 0.42718 0.0
C2052 C 0.51716 0.05685 0.42489 0.0
C2053 C 0.53045 0.05508 0.44504 0.0
C2054 C 0.46355 0.06614 0.45312 0.0
C2055 C 0.52633 0.05405 0.40095 0.0
H2056 H 0.44362 0.01349 0.36567 0.0
H2057 H 0.457 0.08704 0.3685 0.0
H2058 H 0.4882 1.01129 0.40426 0.0
H2059 H 0.46677 0.0154 0.42334 0.0
H2060 H 0.45962 0.99675 0.39417 0.0
H2061 H 0.48379 0.11343 0.39709 0.0
H2062 H 0.48461 0.10522 0.42579 0.0
H2063 H 0.50646 0.10128 0.40731 0.0
H2064 H 0.4945 0.06323 0.4871 0.0
H2065 H 0.54704 0.05167 0.44315 0.0
H2066 H 0.45161 0.04963 0.44501 0.0
H2067 H 0.45949 0.07969 0.44385 0.0
H2068 H 0.46088 0.07095 0.47225 0.0
H2069 H 0.51829 0.03679 0.38986 0.0
H2070 H 0.54472 0.05539 0.40275 0.0
H2071 H 0.52247 0.06741 0.39124 0.0
C2072 C 0.7906 0.73057 0.08686 0.0
C2073 C 0.80616 0.7409 0.07303 0.0
C2074 C 0.79139 0.73931 0.11148 0.0
C2075 C 0.80806 0.75899 0.12266 0.0
C2076 C 0.82333 0.77001 0.1087 0.0
C2077 C 0.82224 0.7608 0.08408 0.0
C2078 C 0.77482 0.72697 0.12569 0.0
C2079 C 0.84122 0.79114 0.11989 0.0
C2080 C 0.79892 0.78971 0.18465 0.0
C2081 C 0.81203 0.78018 0.19952 0.0
C2082 C 0.79791 0.78347 0.15962 0.0
C2083 C 0.81016 0.76716 0.14914 0.0
C2084 C 0.82373 0.75782 0.16405 0.0
C2085 C 0.82457 0.76449 0.18898 0.0
C2086 C 0.78342 0.794 0.14436 0.0
C2087 C 0.83699 0.74032 0.15366 0.0
H2088 H 0.77807 0.71522 0.07857 0.0
H2089 H 0.83431 0.76897 0.07359 0.0
H2090 H 0.78382 0.71975 0.13894 0.0
H2091 H 0.76589 0.73941 0.13578 0.0
H2092 H 0.76226 0.71256 0.11418 0.0
H2093 H 0.85074 0.79869 0.10636 0.0
H2094 H 0.83364 0.80466 0.13028 0.0
H2095 H 0.85312 0.78638 0.13255 0.0
H2096 H 0.78925 0.80193 0.19255 0.0
H2097 H 0.8348 0.75703 0.20022 0.0
H2098 H 0.76967 0.78021 0.13387 0.0
H2099 H 0.79337 0.80202 0.13143 0.0
H2100 H 0.77598 0.80742 0.15519 0.0
H2101 H 0.82544 0.72444 0.14325 0.0
H2102 H 0.84732 0.73529 0.16764 0.0
H2103 H 0.84817 0.74748 0.14117 0.0
C2104 C 0.16211 0.04926 0.69024 0.0
C2105 C 0.15512 0.03426 0.70596 0.0
C2106 C 0.14894 0.04949 0.66892 0.0
C2107 C 0.12764 0.03432 0.66218 0.0
C2108 C 0.12031 0.01904 0.67786 0.0
C2109 C 0.13393 0.01918 0.6993 0.0
C2110 C 0.15803 0.06623 0.65349 0.0
C2111 C 0.09793 1.0024 0.67192 0.0
C2112 C 0.08691 0.05152 0.61636 0.0
C2113 C 0.08972 0.03819 0.5941 0.0
C2114 C 0.09844 0.04998 0.63834 0.0
C2115 C 0.11349 0.03466 0.63882 0.0
C2116 C 0.11611 0.02089 0.61645 0.0
C2117 C 0.10442 0.02281 0.59474 0.0
C2118 C 0.09475 0.06522 0.66119 0.0
C2119 C 0.13171 1.00425 0.61533 0.0
H2120 H 0.17822 0.06117 0.69458 0.0
H2121 H 0.12793 1.00742 0.71083 0.0
H2122 H 0.15939 0.05651 0.63535 0.0
H2123 H 0.14636 0.0779 0.65148 0.0
H2124 H 0.17474 0.07706 0.66098 0.0
H2125 H 0.09434 0.99162 0.68557 0.0
H2126 H 0.08448 0.01219 0.67048 0.0
H2127 H 0.09741 0.99073 0.65432 0.0
H2128 H 0.07577 0.06352 0.61667 0.0
H2129 H 0.10702 0.01223 0.57807 0.0
H2130 H 0.11062 0.0776 0.66892 0.0
H2131 H 0.0897 0.05448 0.67451 0.0
H2132 H 0.08173 0.07526 0.65838 0.0
H2133 H 0.14913 0.01408 0.62107 0.0
H2134 H 0.13108 0.99369 0.59708 0.0
H2135 H 0.12741 0.99237 0.62781 0.0
C2136 C 0.78848 0.41351 0.43044 0.0
C2137 C 0.79682 0.41013 0.45261 0.0
C2138 C 0.7906 0.39849 0.40901 0.0
C2139 C 0.80164 0.3799 0.40973 0.0
C2140 C 0.81011 0.37648 0.43205 0.0
C2141 C 0.80744 0.39147 0.45313 0.0
C2142 C 0.78103 0.40252 0.38559 0.0
C2143 C 0.82228 0.35713 0.43367 0.0
C2144 C 0.79181 0.32803 0.35746 0.0
C2145 C 0.81041 0.33358 0.34496 0.0
C2146 C 0.78858 0.34308 0.37831 0.0
C2147 C 0.80454 0.36403 0.38721 0.0
C2148 C 0.82357 0.3695 0.37493 0.0
C2149 C 0.82616 0.35434 0.35387 0.0
C2150 C 0.76791 0.33672 0.39064 0.0
C2151 C 0.84121 0.39141 0.38404 0.0
H2152 H 0.78022 0.42784 0.42984 0.0
H2153 H 0.81412 0.38874 0.4701 0.0
H2154 H 0.79459 0.40611 0.37405 0.0
H2155 H 0.76898 0.38664 0.37594 0.0
H2156 H 0.77237 0.41729 0.38808 0.0
H2157 H 0.82805 0.35693 0.45239 0.0
H2158 H 0.81118 0.34009 0.42561 0.0
H2159 H 0.83702 0.35904 0.4234 0.0
H2160 H 0.77935 0.31223 0.35054 0.0
H2161 H 0.84055 0.3588 0.34431 0.0
H2162 H 0.75826 0.35065 0.39181 0.0
H2163 H 0.77273 0.33519 0.40917 0.0
H2164 H 0.75685 0.32007 0.38117 0.0
H2165 H 0.83364 0.40684 0.38472 0.0
H2166 H 0.85519 0.39297 0.37266 0.0
H2167 H 0.84811 0.39173 0.40251 0.0
C2168 C 0.44378 0.03186 0.24581 0.0
C2169 C 0.44292 0.05461 0.25672 0.0
C2170 C 0.457 0.02765 0.22711 0.0
C2171 C 0.46957 0.04664 0.21909 0.0
C2172 C 0.46876 0.06964 0.22999 0.0
C2173 C 0.45546 0.07336 0.24873 0.0
C2174 C 0.45751 1.00288 0.21591 0.0
C2175 C 0.48188 0.09031 0.22178 0.0
C2176 C 0.5189 0.03748 0.18466 0.0
C2177 C 0.5097 0.03516 0.16108 0.0
C2178 C 0.50598 0.04112 0.20376 0.0
C2179 C 0.48337 0.04245 0.19909 0.0
C2180 C 0.47394 0.03991 0.17531 0.0
C2181 C 0.48723 0.03627 0.15658 0.0
C2182 C 0.51656 0.04373 0.22894 0.0
C2183 C 0.44984 0.04112 0.16966 0.0
H2184 H 0.43418 0.01727 0.25194 0.0
H2185 H 0.45485 0.09098 0.25706 0.0
H2186 H 0.45162 0.99925 0.1966 0.0
H2187 H 0.47493 1.00027 0.21745 0.0
H2188 H 0.44691 0.99007 0.22439 0.0
H2189 H 0.47953 0.10708 0.23223 0.0
H2190 H 0.49997 0.09011 0.22342 0.0
H2191 H 0.47667 0.08932 0.20265 0.0
H2192 H 0.53633 0.03684 0.18821 0.0
H2193 H 0.47996 0.0341 0.13833 0.0
H2194 H 0.50699 0.0305 0.2377 0.0
H2195 H 0.51599 0.06104 0.23958 0.0
H2196 H 0.53424 0.04185 0.22948 0.0
H2197 H 0.43861 0.02755 0.17659 0.0
H2198 H 0.44507 0.03871 0.15018 0.0
H2199 H 0.44693 0.05819 0.17866 0.0
C2200 C 0.78594 0.74617 0.94306 0.0
C2201 C 0.79659 0.72965 0.95057 0.0
C2202 C 0.7899 0.75324 0.92138 0.0
C2203 C 0.80499 0.74369 0.90684 0.0
C2204 C 0.816 0.72721 0.91444 0.0
C2205 C 0.81167 0.72039 0.93616 0.0
C2206 C 0.7777 0.77075 0.9139 0.0
C2207 C 0.83248 0.71687 0.89971 0.0
C2208 C 0.79728 0.74672 0.84114 0.0
C2209 C 0.81332 0.76668 0.84019 0.0
C2210 C 0.79494 0.73858 0.86249 0.0
C2211 C 0.80887 0.75074 0.88352 0.0
C2212 C 0.8257 0.77033 0.88246 0.0
C2213 C 0.82776 0.77803 0.86082 0.0
C2214 C 0.77705 0.71738 0.86269 0.0
C2215 C 0.84097 0.78371 0.90442 0.0
H2216 H 0.77424 0.75341 0.95398 0.0
H2217 H 0.82011 0.70773 0.94184 0.0
H2218 H 0.78989 0.78605 0.91104 0.0
H2219 H 0.76723 0.76297 0.89667 0.0
H2220 H 0.76676 0.77679 0.92736 0.0
H2221 H 0.83752 0.70227 0.90653 0.0
H2222 H 0.8253 0.71053 0.88082 0.0
H2223 H 0.84769 0.73047 0.89997 0.0
H2224 H 0.78617 0.73765 0.82527 0.0
H2225 H 0.84019 0.79347 0.86033 0.0
H2226 H 0.76436 0.72232 0.87445 0.0
H2227 H 0.78444 0.70437 0.87008 0.0
H2228 H 0.76847 0.7091 0.84458 0.0
H2229 H 0.83104 0.79185 0.91775 0.0
H2230 H 0.85416 0.79757 0.90032 0.0
H2231 H 0.84912 0.77179 0.91283 0.0
C2232 C 0.90321 0.10649 1.00855 0.0
C2233 C 0.88823 0.09979 0.02486 0.0
C2234 C 0.92378 0.09933 1.00702 0.0
C2235 C 0.9301 0.08513 0.02232 0.0
C2236 C 0.91501 0.07805 0.03872 0.0
C2237 C 0.89429 0.08529 0.03969 0.0
C2238 C 0.93895 0.10731 0.98912 0.0
C2239 C 0.92099 0.06319 0.05563 0.0
C2240 C 0.97655 0.05201 1.00465 0.0
C2241 C 0.99585 0.06668 0.018 0.0
C2242 C 0.95519 0.05763 1.00601 0.0
C2243 C 0.95269 0.07832 0.02138 0.0
C2244 C 0.97209 0.09311 0.03499 0.0
C2245 C 0.99326 0.08724 0.03305 0.0
C2246 C 0.93524 0.04143 0.99082 0.0
C2247 C 0.97051 0.11518 0.05184 0.0
H2248 H 0.89892 0.11757 0.99685 0.0
H2249 H 0.88309 0.08006 0.05247 0.0
H2250 H 0.95483 0.11849 0.9986 0.0
H2251 H 0.94325 0.09213 0.97752 0.0
H2252 H 0.93121 0.11728 0.97763 0.0
H2253 H 0.90742 0.05865 0.06693 0.0
H2254 H 0.92462 0.04692 0.04546 0.0
H2255 H 0.9364 0.07254 0.06744 0.0
H2256 H 0.9781 0.03603 0.99305 0.0
H2257 H 1.0078 0.09871 0.04376 0.0
H2258 H 0.92759 0.05076 0.9786 0.0
H2259 H 0.92233 0.03554 1.00231 0.0
H2260 H 0.93976 0.02592 0.97999 0.0
H2261 H 0.96348 0.12676 0.04186 0.0
H2262 H 0.987 0.12478 0.06136 0.0
H2263 H 0.95894 0.11103 0.06527 0.0
C2264 C 0.40195 0.44097 0.05863 0.0
C2265 C 0.38814 0.43647 0.03704 0.0
C2266 C 0.42405 0.45392 0.06095 0.0
C2267 C 0.43253 0.46245 0.04117 0.0
C2268 C 0.41872 0.45774 0.0193 0.0
C2269 C 0.39674 0.44489 0.01752 0.0
C2270 C 0.43825 0.45866 0.08458 0.0
C2271 C 0.42713 0.46641 0.99773 0.0
C2272 C 0.4807 0.5146 0.048 0.0
C2273 C 0.49835 0.50405 0.04083 0.0
C2274 C 0.45945 0.50122 0.04933 0.0
C2275 C 0.45568 0.47668 0.04322 0.0
C2276 C 0.47367 0.4659 0.03702 0.0
C2277 C 0.4948 0.4797 0.03596 0.0
C2278 C 0.44077 0.5134 0.05623 0.0
C2279 C 0.47036 0.43978 0.03036 0.0
H2280 H 0.39546 0.43454 0.07381 0.0
H2281 H 0.38626 0.44145 1.00073 0.0
H2282 H 0.45379 0.45205 0.08213 0.0
H2283 H 0.44332 0.47767 0.09161 0.0
H2284 H 0.42932 0.45048 0.0981 0.0
H2285 H 0.41444 0.46085 0.98189 0.0
H2286 H 0.43189 0.48567 1.00188 0.0
H2287 H 0.44234 0.45989 0.99305 0.0
H2288 H 0.48328 0.53338 0.052 0.0
H2289 H 0.5083 0.47134 0.03045 0.0
H2290 H 0.43215 0.50614 0.07043 0.0
H2291 H 0.42818 0.51048 0.04056 0.0
H2292 H 0.44689 0.53242 0.06267 0.0
H2293 H 0.46192 0.43163 0.04414 0.0
H2294 H 0.48641 0.43407 0.02819 0.0
H2295 H 0.45937 0.43322 0.01329 0.0
C2296 C 0.3951 0.6506 0.80293 0.0
C2297 C 0.39684 0.63349 0.78269 0.0
C2298 C 0.38422 0.66958 0.80187 0.0
C2299 C 0.37438 0.67284 0.77986 0.0
C2300 C 0.37589 0.65564 0.75921 0.0
C2301 C 0.38677 0.63649 0.76082 0.0
C2302 C 0.38338 0.68642 0.82474 0.0
C2303 C 0.36622 0.65769 0.73507 0.0
C2304 C 0.32947 0.71263 0.78178 0.0
C2305 C 0.34163 0.7348 0.77981 0.0
C2306 C 0.33958 0.69278 0.78149 0.0
C2307 C 0.36283 0.69406 0.77884 0.0
C2308 C 0.37513 0.71633 0.77655 0.0
C2309 C 0.36466 0.73595 0.77714 0.0
C2310 C 0.32516 0.67022 0.78432 0.0
C2311 C 0.3997 0.71958 0.77346 0.0
H2312 H 0.40244 0.64927 0.82018 0.0
H2313 H 0.38774 0.62411 0.74473 0.0
H2314 H 0.39234 0.7041 0.82366 0.0
H2315 H 0.36577 0.68732 0.82733 0.0
H2316 H 0.391 0.6815 0.84062 0.0
H2317 H 0.36843 0.64339 0.72063 0.0
H2318 H 0.34811 0.65755 0.73523 0.0
H2319 H 0.37436 0.67453 0.73095 0.0
H2320 H 0.31179 0.71069 0.78373 0.0
H2321 H 0.37473 0.7524 0.77531 0.0
H2322 H 0.33171 0.66502 0.80053 0.0
H2323 H 0.32579 0.65625 0.76882 0.0
H2324 H 0.30744 0.67144 0.78582 0.0
H2325 H 0.40897 0.71678 0.78957 0.0
H2326 H 0.40693 0.73721 0.77052 0.0
H2327 H 0.40237 0.70649 0.75807 0.0
C2328 C 0.23555 0.6081 0.55343 0.0
C2329 C 0.25066 0.59407 0.54567 0.0
C2330 C 0.21224 0.60001 0.54865 0.0
C2331 C 0.20331 0.577 0.53604 0.0
C2332 C 0.21838 0.56262 0.52807 0.0
C2333 C 0.24184 0.57138 0.53275 0.0
C2334 C 0.19712 0.61626 0.55719 0.0
C2335 C 0.2097 0.53788 0.51487 0.0
C2336 C 0.14276 0.55375 0.54695 0.0
C2337 C 0.13036 0.55688 0.52674 0.0
C2338 C 0.16639 0.55909 0.54959 0.0
C2339 C 0.17823 0.56821 0.53181 0.0
C2340 C 0.16582 0.57097 0.51112 0.0
C2341 C 0.14217 0.56513 0.50877 0.0
C2342 C 0.17871 0.55552 0.5718 0.0
C2343 C 0.1775 0.58094 0.49183 0.0
H2344 H 0.24196 0.62576 0.56317 0.0
H2345 H 0.25322 0.56035 0.52663 0.0
H2346 H 0.1858 0.61778 0.54192 0.0
H2347 H 0.18646 0.60914 0.57012 0.0
H2348 H 0.20663 0.63392 0.56594 0.0
H2349 H 0.22342 0.52892 0.50972 0.0
H2350 H 0.19929 0.52803 0.52624 0.0
H2351 H 0.19881 0.53751 0.49851 0.0
H2352 H 0.13398 0.54719 0.56089 0.0
H2353 H 0.13292 0.56766 0.49305 0.0
H2354 H 0.18732 0.5726 0.58286 0.0
H2355 H 0.19174 0.5455 0.56694 0.0
H2356 H 0.16732 0.54619 0.5828 0.0
H2357 H 0.18604 0.59929 0.49905 0.0
H2358 H 0.16571 0.58036 0.47605 0.0
H2359 H 0.19053 0.57131 0.4859 0.0
C2360 C 0.77676 0.98811 0.73133 0.0
C2361 C 0.7594 0.98702 0.74615 0.0
C2362 C 0.79518 0.97822 0.7356 0.0
C2363 C 0.79615 0.96695 0.75508 0.0
C2364 C 0.77852 0.96549 0.76988 0.0
C2365 C 0.76037 0.97556 0.76524 0.0
C2366 C 0.81367 0.98001 0.71946 0.0
C2367 C 0.77881 0.95324 0.79063 0.0
C2368 C 0.82946 0.9208 0.75795 0.0
C2369 C 0.8468 0.93245 0.77584 0.0
C2370 C 0.81357 0.93223 0.74991 0.0
C2371 C 0.81519 0.95598 0.75984 0.0
C2372 C 0.83361 0.96833 0.77657 0.0
C2373 C 0.84918 0.95634 0.78451 0.0
C2374 C 0.79409 0.9184 0.7322 0.0
C2375 C 0.83591 0.99374 0.78742 0.0
H2376 H 0.77615 0.99699 0.71656 0.0
H2377 H 0.747 0.9746 0.77673 0.0
H2378 H 0.82981 0.98899 0.73011 0.0
H2379 H 0.81554 0.96238 0.71094 0.0
H2380 H 0.81049 0.98959 0.70522 0.0
H2381 H 0.7638 0.95371 0.80042 0.0
H2382 H 0.77961 0.93482 0.78413 0.0
H2383 H 0.79392 0.96144 0.80335 0.0
H2384 H 0.82715 0.90223 0.75161 0.0
H2385 H 0.86254 0.96536 0.79839 0.0
H2386 H 0.79358 0.92603 0.71603 0.0
H2387 H 0.77811 0.91912 0.74003 0.0
H2388 H 0.79507 0.89987 0.72677 0.0
H2389 H 0.83324 1.00365 0.77335 0.0
H2390 H 0.85259 1.00149 0.79756 0.0
H2391 H 0.82293 0.99574 0.7998 0.0
C2392 C 0.74292 0.90999 0.52858 0.0
C2393 C 0.76507 0.92107 0.53728 0.0
C2394 C 0.72664 0.92286 0.52501 0.0
C2395 C 0.73261 0.94743 0.53033 0.0
C2396 C 0.75479 0.95875 0.5397 0.0
C2397 C 0.77078 0.94544 0.54304 0.0
C2398 C 0.70315 0.91014 0.51501 0.0
C2399 C 0.76176 0.98492 0.5457 0.0
C2400 C 0.69702 0.97918 0.49725 0.0
C2401 C 0.68286 0.98573 0.51432 0.0
C2402 C 0.71346 0.96698 0.50237 0.0
C2403 C 0.71583 0.9612 0.52511 0.0
C2404 C 0.70177 0.968 0.54253 0.0
C2405 C 0.68543 0.98017 0.53691 0.0
C2406 C 0.72806 0.95992 0.48327 0.0
C2407 C 0.70385 0.96227 0.56702 0.0
H2408 H 0.73832 0.89118 0.52413 0.0
H2409 H 0.78783 0.95415 0.54985 0.0
H2410 H 0.69095 0.9159 0.527 0.0
H2411 H 0.69898 0.91432 0.49742 0.0
H2412 H 0.701 0.89099 0.51267 0.0
H2413 H 0.77934 0.99105 0.55397 0.0
H2414 H 0.76001 0.99192 0.52923 0.0
H2415 H 0.75065 0.99228 0.55814 0.0
H2416 H 0.69495 0.9832 0.47968 0.0
H2417 H 0.67474 0.98547 0.55029 0.0
H2418 H 0.72545 0.94071 0.47869 0.0
H2419 H 0.74595 0.96682 0.49 0.0
H2420 H 0.72448 0.96628 0.46673 0.0
H2421 H 0.70068 0.94315 0.56541 0.0
H2422 H 0.69195 0.96925 0.5787 0.0
H2423 H 0.72112 0.96947 0.57581 0.0
C2424 C 0.38432 0.47731 0.75531 0.0
C2425 C 0.396 0.4906 0.77712 0.0
C2426 C 0.37328 0.45336 0.75287 0.0
C2427 C 0.37353 0.44185 0.7726 0.0
C2428 C 0.38509 0.45533 0.79457 0.0
C2429 C 0.39596 0.47897 0.79648 0.0
C2430 C 0.36143 0.44024 0.72895 0.0
C2431 C 0.38611 0.4447 0.81639 0.0
C2432 C 0.32947 0.38588 0.77602 0.0
C2433 C 0.34114 0.36769 0.77101 0.0
C2434 C 0.33942 0.40953 0.77596 0.0
C2435 C 0.36192 0.416 0.77068 0.0
C2436 C 0.37369 0.39767 0.76525 0.0
C2437 C 0.36335 0.37414 0.76551 0.0
C2438 C 0.32581 0.42781 0.78205 0.0
C2439 C 0.39755 0.40297 0.75946 0.0
H2440 H 0.38403 0.48548 0.74 0.0
H2441 H 0.40465 0.48845 0.8136 0.0
H2442 H 0.36894 0.42511 0.72251 0.0
H2443 H 0.34359 0.43335 0.73072 0.0
H2444 H 0.36237 0.45127 0.71534 0.0
H2445 H 0.39545 0.45728 0.83231 0.0
H2446 H 0.36894 0.43807 0.82063 0.0
H2447 H 0.39433 0.42966 0.81279 0.0
H2448 H 0.31239 0.38169 0.78031 0.0
H2449 H 0.37288 0.36073 0.76152 0.0
H2450 H 0.32559 0.4379 0.7677 0.0
H2451 H 0.33364 0.44022 0.79873 0.0
H2452 H 0.3083 0.42022 0.78455 0.0
H2453 H 0.39878 0.41263 0.74471 0.0
H2454 H 0.40417 0.38699 0.7542 0.0
H2455 H 0.40834 0.41427 0.77523 0.0
C2456 C 0.21301 0.6242 0.21523 0.0
C2457 C 0.22662 0.60786 0.2141 0.0
C2458 C 0.22248 0.64797 0.21835 0.0
C2459 C 0.24602 0.65539 0.22014 0.0
C2460 C 0.25962 0.63877 0.2167 0.0
C2461 C 0.24975 0.61517 0.21384 0.0
C2462 C 0.20742 0.66518 0.22193 0.0
C2463 C 0.28477 0.64598 0.21812 0.0
C2464 C 0.27195 0.71922 0.22427 0.0
C2465 C 0.27681 0.72696 0.24908 0.0
C2466 C 0.26191 0.6959 0.21441 0.0
C2467 C 0.25655 0.68015 0.22977 0.0
C2468 C 0.26143 0.68791 0.25479 0.0
C2469 C 0.27154 0.71117 0.2641 0.0
C2470 C 0.25704 0.6881 0.18765 0.0
C2471 C 0.25593 0.67166 0.27182 0.0
H2472 H 0.1951 0.61863 0.21526 0.0
H2473 H 0.2603 0.60254 0.21256 0.0
H2474 H 0.20896 0.67343 0.24115 0.0
H2475 H 0.21244 0.6792 0.21196 0.0
H2476 H 0.18959 0.65674 0.21613 0.0
H2477 H 0.2925 0.63116 0.21105 0.0
H2478 H 0.28972 0.65993 0.20804 0.0
H2479 H 0.29168 0.653 0.23704 0.0
H2480 H 0.27598 0.73135 0.21256 0.0
H2481 H 0.27516 0.71697 0.28329 0.0
H2482 H 0.23885 0.68104 0.18276 0.0
H2483 H 0.26572 0.67388 0.18124 0.0
H2484 H 0.2624 0.70247 0.17817 0.0
H2485 H 0.23775 0.66383 0.26927 0.0
H2486 H 0.26055 0.68059 0.29081 0.0
H2487 H 0.26492 0.65724 0.26804 0.0
C2488 C 0.53101 0.77984 0.50572 0.0
C2489 C 0.52276 0.76677 0.48277 0.0
C2490 C 0.53662 0.76897 0.52423 0.0
C2491 C 0.53412 0.74456 0.51951 0.0
C2492 C 0.52409 0.73119 0.49695 0.0
C2493 C 0.51844 0.74248 0.47886 0.0
C2494 C 0.54671 0.78374 0.54823 0.0
C2495 C 0.52099 0.70505 0.49125 0.0
C2496 C 0.57611 0.71493 0.54457 0.0
C2497 C 0.56328 0.70192 0.55875 0.0
C2498 C 0.56739 0.73052 0.53331 0.0
C2499 C 0.54526 0.73317 0.53628 0.0
C2500 C 0.53306 0.72202 0.55253 0.0
C2501 C 0.54224 0.70644 0.5636 0.0
C2502 C 0.58108 0.74226 0.51629 0.0
C2503 C 0.50965 0.72494 0.55668 0.0
H2504 H 0.53402 0.79864 0.50902 0.0
H2505 H 0.51179 0.73225 0.46128 0.0
H2506 H 0.54043 0.77548 0.56295 0.0
H2507 H 0.56514 0.7856 0.54967 0.0
H2508 H 0.54302 0.8014 0.55068 0.0
H2509 H 0.51092 0.6971 0.4738 0.0
H2510 H 0.53759 0.70032 0.49066 0.0
H2511 H 0.51264 0.6974 0.50538 0.0
H2512 H 0.59228 0.71151 0.54043 0.0
H2513 H 0.53239 0.69679 0.57491 0.0
H2514 H 0.58085 0.76102 0.51945 0.0
H2515 H 0.57372 0.73443 0.49764 0.0
H2516 H 0.59876 0.74042 0.51802 0.0
H2517 H 0.50807 0.74314 0.55718 0.0
H2518 H 0.50472 0.71995 0.57361 0.0
H2519 H 0.49773 0.71365 0.54177 0.0
C2520 C 0.65639 0.32143 0.6892 0.0
C2521 C 0.66212 0.32798 0.66776 0.0
C2522 C 0.67293 0.32041 0.70675 0.0
C2523 C 0.69567 0.32642 0.70287 0.0
C2524 C 0.70158 0.33537 0.68244 0.0
C2525 C 0.68468 0.33589 0.66498 0.0
C2526 C 0.66595 0.3107 0.72825 0.0
C2527 C 0.72574 0.34254 0.67804 0.0
C2528 C 0.7411 0.32762 0.75166 0.0
C2529 C 0.74669 0.30611 0.74372 0.0
C2530 C 0.72435 0.33459 0.73866 0.0
C2531 C 0.71281 0.31942 0.71766 0.0
C2532 C 0.71785 0.29728 0.71024 0.0
C2533 C 0.73494 0.29103 0.72323 0.0
C2534 C 0.7197 0.35848 0.74678 0.0
C2535 C 0.70556 0.28036 0.68822 0.0
H2536 H 0.63897 0.31557 0.69165 0.0
H2537 H 0.6892 0.34136 0.64864 0.0
H2538 H 0.66853 0.29264 0.72601 0.0
H2539 H 0.67631 0.32096 0.74478 0.0
H2540 H 0.64806 0.31041 0.73059 0.0
H2541 H 0.7276 0.35281 0.66378 0.0
H2542 H 0.73594 0.35295 0.69461 0.0
H2543 H 0.73263 0.3268 0.6725 0.0
H2544 H 0.75054 0.3394 0.76734 0.0
H2545 H 0.73933 0.27438 0.71719 0.0
H2546 H 0.7015 0.35747 0.74744 0.0
H2547 H 0.72519 0.3694 0.73374 0.0
H2548 H 0.72857 0.36723 0.76465 0.0
H2549 H 0.68725 0.27729 0.68939 0.0
H2550 H 0.71069 0.26337 0.68574 0.0
H2551 H 0.70884 0.28778 0.67214 0.0
C2552 C 0.03079 0.35992 0.96788 0.0
C2553 C 0.0316 0.35476 0.94308 0.0
C2554 C 0.03382 0.38295 0.98034 0.0
C2555 C 0.03775 0.40121 0.96769 0.0
C2556 C 0.03862 0.39614 0.94268 0.0
C2557 C 0.03553 0.37294 0.93066 0.0
C2558 C 0.0328 0.38774 1.00703 0.0
C2559 C 0.0428 0.41522 0.92863 0.0
C2560 C 0.026 0.45975 0.99505 0.0
C2561 C 0.04759 0.47264 1.00375 0.0
C2562 C 0.02252 0.43637 0.98349 0.0
C2563 C 0.04106 0.42567 0.98062 0.0
C2564 C 0.06284 0.43845 0.98974 0.0
C2565 C 0.06585 0.46179 1.0012 0.0
C2566 C 0.99904 0.42321 0.97401 0.0
C2567 C 0.08301 0.42757 0.98706 0.0
H2568 H 0.02774 0.34595 0.97761 0.0
H2569 H 0.03616 0.36908 0.91151 0.0
H2570 H 0.04879 0.39894 0.01619 0.0
H2571 H 0.01938 0.39731 0.01155 0.0
H2572 H 0.02956 0.37155 0.01419 0.0
H2573 H 0.04294 0.40835 0.90926 0.0
H2574 H 0.02968 0.4256 0.93091 0.0
H2575 H 0.0591 0.42721 0.9355 0.0
H2576 H 1.0118 0.46799 0.99695 0.0
H2577 H 0.08259 0.4716 1.00791 0.0
H2578 H 0.99482 0.4074 0.98163 0.0
H2579 H 0.99791 0.41742 0.95433 0.0
H2580 H 0.98637 0.43389 0.97827 0.0
H2581 H 0.08077 0.41189 0.99505 0.0
H2582 H 0.09874 0.43974 0.99569 0.0
H2583 H 0.08477 0.42187 0.96784 0.0
C2584 C 0.04331 0.78222 0.18001 0.0
C2585 C 0.04925 0.79944 0.16668 0.0
C2586 C 0.02428 0.78113 0.19235 0.0
C2587 C 1.01095 0.79779 0.19152 0.0
C2588 C 0.0169 0.81533 0.17825 0.0
C2589 C 0.03596 0.8159 0.16589 0.0
C2590 C 0.01836 0.76205 0.20618 0.0
C2591 C 1.00313 0.83347 0.17712 0.0
C2592 C 0.95113 0.7814 0.20589 0.0
C2593 C 0.95286 0.79235 0.23 0.0
C2594 C 0.96984 0.78337 0.19301 0.0
C2595 C 0.99072 0.79669 0.20451 0.0
C2596 C 0.99248 0.80816 0.22871 0.0
C2597 C 0.97352 0.8058 0.24119 0.0
C2598 C 0.96738 0.77074 0.16727 0.0
C2599 C 0.01445 0.82265 0.2415 0.0
H2600 H 0.05344 0.76937 0.18063 0.0
H2601 H 0.04048 0.82928 0.15566 0.0
H2602 H 0.01794 0.76972 0.22528 0.0
H2603 H 1.00142 0.75145 0.19936 0.0
H2604 H 0.03045 0.75039 0.20494 0.0
H2605 H 1.01019 0.84612 0.16626 0.0
H2606 H 0.98579 0.82496 0.16931 0.0
H2607 H 1.00213 0.84309 0.1954 0.0
H2608 H 0.93523 0.7708 0.19726 0.0
H2609 H 0.97483 0.81453 0.25974 0.0
H2610 H 0.97793 0.75758 0.16531 0.0
H2611 H 0.9733 0.7831 0.1557 0.0
H2612 H 0.9498 0.76185 0.1607 0.0
H2613 H 0.02685 0.81151 0.24224 0.0
H2614 H 0.01277 0.83125 0.26002 0.0
H2615 H 0.02127 0.83618 0.23155 0.0
C2616 C 0.57335 0.34281 0.12348 0.0
C2617 C 0.55155 0.33131 0.12556 0.0
C2618 C 0.57737 0.35803 0.10769 0.0
C2619 C 0.55912 0.36199 0.0938 0.0
C2620 C 0.53706 0.35049 0.09584 0.0
C2621 C 0.53353 0.3352 0.11165 0.0
C2622 C 0.60114 0.36992 0.10591 0.0
C2623 C 0.51718 0.35448 0.08144 0.0
C2624 C 0.56792 0.41815 0.07114 0.0
C2625 C 0.57155 0.41063 0.04731 0.0
C2626 C 0.56372 0.40246 0.0864 0.0
C2627 C 0.56313 0.37866 0.07762 0.0
C2628 C 0.56671 0.3709 0.05356 0.0
C2629 C 0.57082 0.38701 0.03863 0.0
C2630 C 0.55984 0.41137 0.11191 0.0
C2631 C 0.56635 0.34565 0.04366 0.0
H2632 H 0.58738 0.3398 0.13407 0.0
H2633 H 0.51664 0.32637 0.11318 0.0
H2634 H 0.60513 0.36593 0.08718 0.0
H2635 H 0.60307 0.38904 0.11107 0.0
H2636 H 0.6135 0.36451 0.11752 0.0
H2637 H 0.50112 0.34402 0.08493 0.0
H2638 H 0.51644 0.37313 0.08572 0.0
H2639 H 0.51899 0.35001 0.06209 0.0
H2640 H 0.56804 0.43634 0.07779 0.0
H2641 H 0.57371 0.38118 0.02024 0.0
H2642 H 0.57248 0.40743 0.12438 0.0
H2643 H 0.54316 0.40243 0.11555 0.0
H2644 H 0.56075 0.43041 0.11588 0.0
H2645 H 0.57941 0.33989 0.05394 0.0
H2646 H 0.56926 0.34242 0.0245 0.0
H2647 H 0.55 0.33475 0.04561 0.0
C2648 C 0.0223 0.26356 0.33213 0.0
C2649 C 0.0441 0.27534 0.33059 0.0
C2650 C 1.00443 0.26515 0.31639 0.0
C2651 C 1.00866 0.27864 0.29872 0.0
C2652 C 0.03095 0.28805 0.29527 0.0
C2653 C 0.04843 0.28644 0.3114 0.0
C2654 C 0.98088 0.25468 0.32049 0.0
C2655 C 0.03619 0.30205 0.27626 0.0
C2656 C 0.95962 0.28363 0.25721 0.0
C2657 C 0.95414 0.30396 0.2696 0.0
C2658 C 0.97765 0.27523 0.26611 0.0
C2659 C 0.99019 0.28736 0.28796 0.0
C2660 C 0.98497 0.30812 0.30023 0.0
C2661 C 0.96706 0.31612 0.2909 0.0
C2662 C 0.98284 0.25312 0.25251 0.0
C2663 C 0.99791 0.32161 0.32365 0.0
H2664 H 0.01892 0.25477 0.34681 0.0
H2665 H 0.06538 0.29515 0.30987 0.0
H2666 H 0.97312 0.26859 0.32986 0.0
H2667 H 0.97048 0.24668 0.30329 0.0
H2668 H 0.98056 0.24131 0.33159 0.0
H2669 H 0.05399 0.30397 0.2727 0.0
H2670 H 0.02539 0.29388 0.25934 0.0
H2671 H 0.03288 0.31966 0.28227 0.0
H2672 H 0.94966 0.27416 0.24074 0.0
H2673 H 0.96259 0.33148 0.30092 0.0
H2674 H 0.97793 0.23894 0.26231 0.0
H2675 H 1.00105 0.25525 0.25105 0.0
H2676 H 0.97375 0.24772 0.23428 0.0
H2677 H 0.99658 0.31052 0.33719 0.0
H2678 H 0.99178 0.33754 0.33076 0.0
H2679 H 0.0159 0.3268 0.32133 0.0
C2680 C 0.03544 0.70355 0.62558 0.0
C2681 C 0.01499 0.70791 0.61718 0.0
C2682 C 0.04222 0.68311 0.61582 0.0
C2683 C 0.02824 0.66672 0.59719 0.0
C2684 C 1.00747 0.67085 0.58882 0.0
C2685 C 1.00106 0.69142 0.59895 0.0
C2686 C 0.06446 0.67921 0.62524 0.0
C2687 C 0.99217 0.6537 0.56891 0.0
C2688 C 0.05432 0.6258 0.5547 0.0
C2689 C 0.0483 0.60503 0.56285 0.0
C2690 C 0.04812 0.6461 0.56595 0.0
C2691 C 0.0357 0.64559 0.58586 0.0
C2692 C 0.03005 0.62486 0.59457 0.0
C2693 C 0.03641 0.60478 0.58293 0.0
C2694 C 0.05445 0.66795 0.5562 0.0
C2695 C 0.01693 0.62377 0.61588 0.0
H2696 H 0.04626 0.71617 0.63974 0.0
H2697 H 0.98522 0.69466 0.59242 0.0
H2698 H 0.06207 0.66242 0.63124 0.0
H2699 H 0.07562 0.67817 0.61078 0.0
H2700 H 0.07297 0.69329 0.64041 0.0
H2701 H 0.97631 0.65923 0.5649 0.0
H2702 H 1.00076 0.65163 0.55243 0.0
H2703 H 0.98809 0.63639 0.57372 0.0
H2704 H 0.0635 0.62615 0.5392 0.0
H2705 H 0.03173 0.5888 0.58936 0.0
H2706 H 0.06405 0.68233 0.57043 0.0
H2707 H 0.03911 0.67337 0.55012 0.0
H2708 H 0.06466 0.66557 0.54096 0.0
H2709 H 0.02552 0.63731 0.63143 0.0
H2710 H 0.01468 0.60655 0.621 0.0
H2711 H 1.00018 0.62739 0.61182 0.0
C2712 C 0.6634 0.8227 0.85917 0.0
C2713 C 0.65474 0.80034 0.86295 0.0
C2714 C 0.68381 0.82772 0.84963 0.0
C2715 C 0.69584 0.80996 0.84385 0.0
C2716 C 0.68763 0.78759 0.84841 0.0
C2717 C 0.66711 0.78303 0.8579 0.0
C2718 C 0.69213 0.85178 0.84504 0.0
C2719 C 0.7002 0.7683 0.84262 0.0
C2720 C 0.7349 0.81125 0.79557 0.0
C2721 C 0.75584 0.81755 0.80911 0.0
C2722 C 0.71517 0.80959 0.80671 0.0
C2723 C 0.71649 0.81437 0.83195 0.0
C2724 C 0.73755 0.82201 0.8457 0.0
C2725 C 0.75702 0.82357 0.83409 0.0
C2726 C 0.69293 0.80161 0.79148 0.0
C2727 C 0.73955 0.82733 0.87267 0.0
H2728 H 0.65397 0.83623 0.86313 0.0
H2729 H 0.66057 0.76577 0.8609 0.0
H2730 H 0.70952 0.85891 0.85351 0.0
H2731 H 0.69242 0.85089 0.82556 0.0
H2732 H 0.68147 0.86401 0.85193 0.0
H2733 H 0.69208 0.75224 0.84833 0.0
H2734 H 0.70125 0.76409 0.82309 0.0
H2735 H 0.71758 0.77398 0.85148 0.0
H2736 H 0.73388 0.80671 0.77625 0.0
H2737 H 0.77316 0.82854 0.84469 0.0
H2738 H 0.68179 0.81377 0.79678 0.0
H2739 H 0.68454 0.7843 0.79429 0.0
H2740 H 0.69477 0.80028 0.77214 0.0
H2741 H 0.72852 0.83924 0.87923 0.0
H2742 H 0.75698 0.83532 0.88063 0.0
H2743 H 0.73401 0.81104 0.87916 0.0
C2744 C 0.4686 0.56678 0.68894 0.0
C2745 C 0.47437 0.55398 0.70591 0.0
C2746 C 0.47883 0.56663 0.66699 0.0
C2747 C 0.49576 0.55366 0.6613 0.0
C2748 C 0.50186 0.54117 0.67863 0.0
C2749 C 0.49122 0.54135 0.7001 0.0
C2750 C 0.47115 0.58013 0.64954 0.0
C2751 C 0.51977 0.52728 0.67444 0.0
C2752 C 0.50976 0.53337 0.59561 0.0
C2753 C 0.52937 0.54949 0.59344 0.0
C2754 C 0.49861 0.53483 0.61691 0.0
C2755 C 0.50694 0.55277 0.6375 0.0
C2756 C 0.52672 0.5691 0.63543 0.0
C2757 C 0.53739 0.5674 0.6138 0.0
C2758 C 0.47767 0.51695 0.61734 0.0
C2759 C 0.53689 0.58846 0.65634 0.0
H2760 H 0.45565 0.57654 0.6925 0.0
H2761 H 0.49627 0.53131 0.71255 0.0
H2762 H 0.48558 0.59288 0.64586 0.0
H2763 H 0.46424 0.56814 0.63231 0.0
H2764 H 0.45818 0.58954 0.65623 0.0
H2765 H 0.52341 0.51914 0.68973 0.0
H2766 H 0.51449 0.51338 0.6582 0.0
H2767 H 0.53544 0.53864 0.6713 0.0
H2768 H 0.50285 0.51948 0.58041 0.0
H2769 H 0.55231 0.58022 0.61295 0.0
H2770 H 0.46377 0.5257 0.6222 0.0
H2771 H 0.48042 0.50681 0.63118 0.0
H2772 H 0.4725 0.50472 0.59986 0.0
H2773 H 0.52444 0.59902 0.66186 0.0
H2774 H 0.55198 0.60006 0.65219 0.0
H2775 H 0.54162 0.58106 0.67181 0.0
C2776 C 0.80112 0.13411 0.95271 0.0
C2777 C 0.81126 0.14327 0.97612 0.0
C2778 C 0.79803 0.14874 0.93684 0.0
C2779 C 0.80515 0.17311 0.94458 0.0
C2780 C 0.81575 0.18244 0.96804 0.0
C2781 C 0.81873 0.16742 0.98349 0.0
C2782 C 0.78679 0.13813 0.91192 0.0
C2783 C 0.82354 0.20834 0.97699 0.0
C2784 C 0.81302 0.21141 0.89854 0.0
C2785 C 0.79311 0.21966 0.89845 0.0
C2786 C 0.81709 0.19611 0.9133 0.0
C2787 C 0.80092 0.18893 0.92841 0.0
C2788 C 0.78076 0.1971 0.92834 0.0
C2789 C 0.77709 0.21233 0.91335 0.0
C2790 C 0.8388 0.1878 0.91288 0.0
C2791 C 0.76309 0.18984 0.94419 0.0
H2792 H 0.79535 0.11549 0.94683 0.0
H2793 H 0.82657 0.17469 1.00153 0.0
H2794 H 0.77092 0.14402 0.90929 0.0
H2795 H 0.79761 0.14403 0.89853 0.0
H2796 H 0.78303 0.11883 0.90835 0.0
H2797 H 0.8321 0.21277 0.99546 0.0
H2798 H 0.8352 0.21576 0.96505 0.0
H2799 H 0.80902 0.21682 0.97671 0.0
H2800 H 0.82563 0.21724 0.88735 0.0
H2801 H 0.76155 0.21835 0.91315 0.0
H2802 H 0.83533 0.16853 0.90843 0.0
H2803 H 0.84838 0.19339 0.93082 0.0
H2804 H 0.84941 0.19457 0.89971 0.0
H2805 H 0.75744 0.17065 0.94013 0.0
H2806 H 0.7483 0.19768 0.94196 0.0
H2807 H 0.77021 0.19505 0.96318 0.0
C2808 C 0.13465 0.51848 0.19437 0.0
C2809 C 0.15533 0.51268 0.19025 0.0
C2810 C 0.11933 0.51889 0.1753 0.0
C2811 C 0.12468 0.51284 0.15163 0.0
C2812 C 0.14452 0.50471 0.14736 0.0
C2813 C 0.15977 0.50497 0.16677 0.0
C2814 C 0.0985 0.52796 0.18062 0.0
C2815 C 0.15049 0.49748 0.12231 0.0
C2816 C 0.08089 0.50835 0.09996 0.0
C2817 C 0.08788 0.52983 0.09346 0.0
C2818 C 0.09271 0.50241 0.11888 0.0
C2819 C 0.11155 0.51859 0.13178 0.0
C2820 C 0.11824 0.54054 0.12565 0.0
C2821 C 0.10647 0.54577 0.10636 0.0
C2822 C 0.08546 0.47868 0.12462 0.0
C2823 C 0.13797 0.55849 0.13932 0.0
H2824 H 0.1311 0.52443 0.2125 0.0
H2825 H 0.17564 0.50019 0.16354 0.0
H2826 H 0.10058 0.54579 0.17706 0.0
H2827 H 0.0837 0.51703 0.16886 0.0
H2828 H 0.09514 0.52864 0.19952 0.0
H2829 H 0.16429 0.4879 0.12193 0.0
H2830 H 0.13573 0.48635 0.11058 0.0
H2831 H 0.15588 0.51314 0.11472 0.0
H2832 H 0.06664 0.49591 0.08976 0.0
H2833 H 0.1118 0.56242 0.1014 0.0
H2834 H 0.08259 0.48029 0.14371 0.0
H2835 H 0.09895 0.46886 0.12164 0.0
H2836 H 0.06994 0.46846 0.11348 0.0
H2837 H 0.13577 0.56204 0.15863 0.0
H2838 H 0.14023 0.57513 0.13299 0.0
H2839 H 0.15352 0.55177 0.1374 0.0
C2840 C 0.81185 0.8598 0.46215 0.0
C2841 C 0.81585 0.84532 0.47787 0.0
C2842 C 0.80977 0.85192 0.43729 0.0
C2843 C 0.81161 0.8289 0.42775 0.0
C2844 C 0.81493 0.81392 0.44345 0.0
C2845 C 0.81708 0.82232 0.46832 0.0
C2846 C 0.80632 0.86852 0.42124 0.0
C2847 C 0.8168 0.78921 0.43397 0.0
C2848 C 0.79118 0.80561 0.36172 0.0
C2849 C 0.81124 0.80934 0.35113 0.0
C2850 C 0.79106 0.8113 0.38668 0.0
C2851 C 0.81144 0.82112 0.4014 0.0
C2852 C 0.83174 0.82463 0.39081 0.0
C2853 C 0.8314 0.81863 0.36589 0.0
C2854 C 0.76908 0.80713 0.39727 0.0
C2855 C 0.85383 0.83524 0.40579 0.0
H2856 H 0.81077 0.87758 0.46926 0.0
H2857 H 0.82006 0.81095 0.48026 0.0
H2858 H 0.82092 0.87168 0.41093 0.0
H2859 H 0.79137 0.86081 0.40816 0.0
H2860 H 0.80416 0.88549 0.43142 0.0
H2861 H 0.81773 0.77927 0.4484 0.0
H2862 H 0.80224 0.78011 0.4208 0.0
H2863 H 0.83203 0.78916 0.42453 0.0
H2864 H 0.77552 0.79835 0.35052 0.0
H2865 H 0.84701 0.82161 0.35796 0.0
H2866 H 0.76566 0.82393 0.40634 0.0
H2867 H 0.76996 0.7964 0.41097 0.0
H2868 H 0.75486 0.79825 0.38354 0.0
H2869 H 0.85363 0.85308 0.41536 0.0
H2870 H 0.8682 0.83616 0.39491 0.0
H2871 H 0.85653 0.82496 0.41951 0.0
C2872 C 0.46405 0.56399 0.85763 0.0
C2873 C 0.47708 0.56389 0.83818 0.0
C2874 C 0.473 0.5623 0.88089 0.0
C2875 C 0.49582 0.5608 0.88558 0.0
C2876 C 0.50908 0.56135 0.86614 0.0
C2877 C 0.49968 0.56263 0.84312 0.0
C2878 C 0.45774 0.56151 0.90041 0.0
C2879 C 0.53344 0.5603 0.86954 0.0
C2880 C 0.52609 0.57471 0.95079 0.0
C2881 C 0.52684 0.5526 0.9557 0.0
C2882 C 0.51602 0.57762 0.92861 0.0
C2883 C 0.5058 0.55804 0.91027 0.0
C2884 C 0.50621 0.5357 0.9153 0.0
C2885 C 0.51668 0.5333 0.93748 0.0
C2886 C 0.51668 0.6019 0.92466 0.0
C2887 C 0.49556 0.51406 0.89705 0.0
H2888 H 0.44659 0.56463 0.85452 0.0
H2889 H 0.51027 0.56252 0.82871 0.0
H2890 H 0.4564 0.54476 0.90635 0.0
H2891 H 0.46486 0.57555 0.91612 0.0
H2892 H 0.4407 0.5634 0.89452 0.0
H2893 H 0.54199 0.56217 0.8533 0.0
H2894 H 0.54226 0.57425 0.88463 0.0
H2895 H 0.53498 0.54347 0.87413 0.0
H2896 H 0.53371 0.58998 0.96428 0.0
H2897 H 0.51678 0.51603 0.94057 0.0
H2898 H 0.49947 0.60419 0.92029 0.0
H2899 H 0.52608 0.60472 0.90919 0.0
H2900 H 0.52469 0.61541 0.94054 0.0
H2901 H 0.47791 0.51436 0.89173 0.0
H2902 H 0.49596 0.49796 0.90385 0.0
H2903 H 0.50441 0.51348 0.88075 0.0
C2904 C 0.81168 0.19641 0.09586 0.0
C2905 C 0.82061 0.17661 0.09636 0.0
C2906 C 0.80894 0.21132 0.11699 0.0
C2907 C 0.81558 0.20666 0.13938 0.0
C2908 C 0.82474 0.18679 0.1401 0.0
C2909 C 0.82697 0.17189 0.11859 0.0
C2910 C 0.79881 0.23206 0.1153 0.0
C2911 C 0.83235 0.18137 0.16359 0.0
C2912 C 0.82765 0.25812 0.19224 0.0
C2913 C 0.80822 0.25436 0.20393 0.0
C2914 C 0.83039 0.24256 0.17154 0.0
C2915 C 0.81317 0.22285 0.16193 0.0
C2916 C 0.79336 0.21912 0.17341 0.0
C2917 C 0.79121 0.23477 0.19435 0.0
C2918 C 0.85189 0.24711 0.1601 0.0
C2919 C 0.77441 0.19858 0.16355 0.0
H2920 H 0.8065 0.20019 0.07884 0.0
H2921 H 0.83388 0.15667 0.11919 0.0
H2922 H 0.78377 0.23138 0.12512 0.0
H2923 H 0.81092 0.24833 0.12379 0.0
H2924 H 0.79394 0.23293 0.09653 0.0
H2925 H 0.83929 0.16541 0.16117 0.0
H2926 H 0.84534 0.19614 0.17384 0.0
H2927 H 0.81813 0.17906 0.17454 0.0
H2928 H 0.84108 0.27296 0.19964 0.0
H2929 H 0.77619 0.23161 0.20327 0.0
H2930 H 0.84829 0.24942 0.1416 0.0
H2931 H 0.85992 0.23194 0.15897 0.0
H2932 H 0.86395 0.26281 0.17017 0.0
H2933 H 0.76847 0.1991 0.14499 0.0
H2934 H 0.76006 0.19819 0.17444 0.0
H2935 H 0.78036 0.18218 0.16285 0.0
C2936 C 0.18037 0.55082 0.30372 0.0
C2937 C 0.19405 0.57023 0.29792 0.0
C2938 C 0.16707 0.55332 0.32261 0.0
C2939 C 0.16737 0.57577 0.33598 0.0
C2940 C 0.18147 0.59541 0.33056 0.0
C2941 C 0.19471 0.5924 0.31159 0.0
C2942 C 0.15235 0.53193 0.32796 0.0
C2943 C 0.18219 0.61962 0.34445 0.0
C2944 C 0.11538 0.58121 0.367 0.0
C2945 C 0.12221 0.57927 0.39023 0.0
C2946 C 0.13019 0.58094 0.34937 0.0
C2947 C 0.15232 0.57857 0.35509 0.0
C2948 C 0.15953 0.57733 0.37868 0.0
C2949 C 0.14439 0.57773 0.39598 0.0
C2950 C 0.12191 0.58236 0.3244 0.0
C2951 C 0.18303 0.57488 0.38546 0.0
H2952 H 0.17983 0.53362 0.29332 0.0
H2953 H 0.20522 0.60749 0.30721 0.0
H2954 H 0.15602 0.53094 0.3469 0.0
H2955 H 0.13452 0.53298 0.32529 0.0
H2956 H 0.15465 0.51566 0.31641 0.0
H2957 H 0.19479 0.63295 0.33869 0.0
H2958 H 0.16552 0.62397 0.34205 0.0
H2959 H 0.18614 0.62053 0.36381 0.0
H2960 H 0.09822 0.58221 0.36239 0.0
H2961 H 0.14987 0.57665 0.41403 0.0
H2962 H 0.1218 0.56577 0.31193 0.0
H2963 H 0.13334 0.59631 0.3182 0.0
H2964 H 0.10476 0.58581 0.3233 0.0
H2965 H 0.18572 0.55804 0.37559 0.0
H2966 H 0.18642 0.57565 0.40491 0.0
H2967 H 0.19539 0.58881 0.38035 0.0
C2968 C 0.82734 0.86228 0.61707 0.0
C2969 C 0.8127 0.87656 0.61235 0.0
C2970 C 0.82703 0.85322 0.63804 0.0
C2971 C 0.81145 0.8582 0.65447 0.0
C2972 C 0.79635 0.87221 0.64949 0.0
C2973 C 0.79731 0.88137 0.62868 0.0
C2974 C 0.84355 0.83855 0.6428 0.0
C2975 C 0.7792 0.87761 0.6662 0.0
C2976 C 0.79622 0.8176 0.69735 0.0
C2977 C 0.80871 0.83015 0.71885 0.0
C2978 C 0.79695 0.82653 0.67638 0.0
C2979 C 0.81066 0.84853 0.67671 0.0
C2980 C 0.82329 0.86138 0.69832 0.0
C2981 C 0.82206 0.85211 0.71918 0.0
C2982 C 0.78301 0.81236 0.65383 0.0
C2983 C 0.83815 0.88488 0.69936 0.0
H2984 H 0.83937 0.85862 0.60463 0.0
H2985 H 0.78585 0.89228 0.62513 0.0
H2986 H 0.85399 0.84661 0.65999 0.0
H2987 H 0.83453 0.82108 0.6445 0.0
H2988 H 0.85473 0.83645 0.62842 0.0
H2989 H 0.76798 0.88787 0.65923 0.0
H2990 H 0.76884 0.86129 0.66935 0.0
H2991 H 0.78782 0.8876 0.6837 0.0
H2992 H 0.78577 0.80066 0.69684 0.0
H2993 H 0.83193 0.86184 0.73559 0.0
H2994 H 0.79398 0.80859 0.63961 0.0
H2995 H 0.77139 0.82241 0.64726 0.0
H2996 H 0.77307 0.79564 0.65658 0.0
H2997 H 0.84886 0.88418 0.68448 0.0
H2998 H 0.8491 0.89128 0.71644 0.0
H2999 H 0.82767 0.89766 0.69733 0.0
C3000 C 0.72051 0.49883 0.50567 0.0
C3001 C 0.73177 0.49513 0.52633 0.0
C3002 C 0.69892 0.50414 0.50583 0.0
C3003 C 0.68805 0.50573 0.52709 0.0
C3004 C 0.69932 0.50187 0.54788 0.0
C3005 C 0.72081 0.49673 0.54726 0.0
C3006 C 0.68775 0.50819 0.48321 0.0
C3007 C 0.68867 0.50326 0.57099 0.0
C3008 C 0.6429 0.542 0.5366 0.0
C3009 C 0.62277 0.52513 0.53177 0.0
C3010 C 0.66397 0.53595 0.53482 0.0
C3011 C 0.66539 0.51231 0.52808 0.0
C3012 C 0.64517 0.49511 0.52334 0.0
C3013 C 0.62424 0.50168 0.52517 0.0
C3014 C 0.68483 0.55501 0.54012 0.0
C3015 C 0.64563 0.46968 0.51626 0.0
H3016 H 0.72856 0.49759 0.48934 0.0
H3017 H 0.72903 0.49385 0.5634 0.0
H3018 H 0.67131 0.49595 0.4782 0.0
H3019 H 0.68453 0.52603 0.48621 0.0
H3020 H 0.69805 0.50595 0.46804 0.0
H3021 H 0.69924 0.4992 0.58544 0.0
H3022 H 0.68562 0.52097 0.577 0.0
H3023 H 0.67221 0.49097 0.56819 0.0
H3024 H 0.64227 0.56019 0.54153 0.0
H3025 H 0.60899 0.48838 0.52115 0.0
H3026 H 0.69457 0.55419 0.52445 0.0
H3027 H 0.69566 0.55255 0.5553 0.0
H3028 H 0.68101 0.57258 0.54463 0.0
H3029 H 0.65401 0.46657 0.49974 0.0
H3030 H 0.62859 0.45838 0.51312 0.0
H3031 H 0.65548 0.46445 0.53045 0.0
C3032 C 0.22049 0.13393 0.49889 0.0
C3033 C 0.22043 0.1553 0.49228 0.0
C3034 C 0.20041 0.11835 0.4999 0.0
C3035 C 0.17976 0.12416 0.49391 0.0
C3036 C 0.1796 0.14514 0.48602 0.0
C3037 C 0.19994 0.16053 0.48542 0.0
C3038 C 0.20131 0.09626 0.50862 0.0
C3039 C 0.15792 0.15184 0.47922 0.0
C3040 C 0.12637 0.07723 0.48574 0.0
C3041 C 0.1182 0.08236 0.50798 0.0
C3042 C 0.14633 0.09077 0.48072 0.0
C3043 C 0.15847 0.10961 0.49849 0.0
C3044 C 0.15038 0.11467 0.52102 0.0
C3045 C 0.13034 0.1011 0.52542 0.0
C3046 C 0.15432 0.08506 0.45641 0.0
C3047 C 0.16292 0.13443 0.54058 0.0
H3048 H 0.23623 0.12969 0.50416 0.0
H3049 H 0.19974 0.1769 0.48006 0.0
H3050 H 0.19474 0.09721 0.52629 0.0
H3051 H 0.19056 0.08108 0.49621 0.0
H3052 H 0.21859 0.09326 0.51045 0.0
H3053 H 0.16064 0.16732 0.47088 0.0
H3054 H 0.14664 0.13719 0.46661 0.0
H3055 H 0.14922 0.15578 0.49539 0.0
H3056 H 0.11701 0.06287 0.47213 0.0
H3057 H 0.12426 0.10515 0.54272 0.0
H3058 H 0.17126 0.08124 0.45822 0.0
H3059 H 0.15567 0.10028 0.44775 0.0
H3060 H 0.14293 0.06992 0.44452 0.0
H3061 H 0.18011 0.13198 0.54479 0.0
H3062 H 0.15453 0.13582 0.55723 0.0
H3063 H 0.16448 0.15111 0.53449 0.0
C3064 C 0.2291 0.94986 0.80282 0.0
C3065 C 0.22264 0.96021 0.78379 0.0
C3066 C 0.23923 0.92999 0.79972 0.0
C3067 C 0.24348 0.91886 0.77674 0.0
C3068 C 0.23714 0.92912 0.75729 0.0
C3069 C 0.22706 0.94929 0.76094 0.0
C3070 C 0.24543 0.92083 0.82147 0.0
C3071 C 0.24089 0.91857 0.7323 0.0
C3072 C 0.28813 0.8788 0.77359 0.0
C3073 C 0.27539 0.85577 0.77051 0.0
C3074 C 0.27821 0.89886 0.77508 0.0
C3075 C 0.25448 0.89688 0.77349 0.0
C3076 C 0.24152 0.87367 0.7702 0.0
C3077 C 0.25188 0.85389 0.76882 0.0
C3078 C 0.29342 0.92253 0.77884 0.0
C3079 C 0.21637 0.86961 0.76841 0.0
H3080 H 0.22622 0.95741 0.82075 0.0
H3081 H 0.22241 0.95631 0.74571 0.0
H3082 H 0.23647 0.9025 0.81952 0.0
H3083 H 0.26361 0.92105 0.82317 0.0
H3084 H 0.24137 0.93113 0.83821 0.0
H3085 H 0.23536 0.92809 0.71893 0.0
H3086 H 0.2589 0.91854 0.73136 0.0
H3087 H 0.23163 0.9002 0.72749 0.0
H3088 H 0.30619 0.88131 0.77518 0.0
H3089 H 0.24131 0.83673 0.76662 0.0
H3090 H 0.29133 0.93306 0.79633 0.0
H3091 H 0.28881 0.9318 0.76485 0.0
H3092 H 0.3113 0.92158 0.77848 0.0
H3093 H 0.2111 0.87826 0.78531 0.0
H3094 H 0.20833 0.85084 0.76482 0.0
H3095 H 0.21013 0.87745 0.75394 0.0
C3096 C 0.375 0.99315 1.00053 0.0
C3097 C 0.3656 1.00755 0.01748 0.0
C3098 C 0.39836 0.99723 0.99904 0.0
C3099 C 0.41282 0.01664 0.01433 0.0
C3100 C 0.40323 0.03178 0.03073 0.0
C3101 C 0.37995 0.02683 0.0324 0.0
C3102 C 0.40766 0.98016 0.98177 0.0
C3103 C 0.41765 0.0531 0.04687 0.0
C3104 C 0.47475 0.01662 0.03008 0.0
C3105 C 0.48556 0.02888 0.01397 0.0
C3106 C 0.45123 0.01205 0.02995 0.0
C3107 C 0.43794 0.02061 0.01389 0.0
C3108 C 0.44881 0.03327 0.99778 0.0
C3109 C 0.47233 0.03689 0.99774 0.0
C3110 C 0.44057 0.99793 0.04702 0.0
C3111 C 0.43563 0.04346 0.9809 0.0
H3112 H 0.36419 0.97801 0.98915 0.0
H3113 H 0.37293 0.03808 0.04557 0.0
H3114 H 0.41783 0.98926 0.9697 0.0
H3115 H 0.41891 0.97199 0.99181 0.0
H3116 H 0.3943 0.96623 0.97074 0.0
H3117 H 0.40755 0.06431 0.05694 0.0
H3118 H 0.42882 0.04784 0.05987 0.0
H3119 H 0.42847 0.06348 0.03625 0.0
H3120 H 0.48472 1.01022 0.04261 0.0
H3121 H 0.48045 0.04658 0.98537 0.0
H3122 H 0.42765 0.98294 0.03703 0.0
H3123 H 0.43206 1.00868 0.05979 0.0
H3124 H 0.45298 0.99129 0.05732 0.0
H3125 H 0.42307 0.02948 0.96893 0.0
H3126 H 0.44649 0.05318 0.96975 0.0
H3127 H 0.42636 0.05542 0.99121 0.0
C3128 C 0.86839 0.62574 0.79855 0.0
C3129 C 0.86641 0.60734 0.81067 0.0
C3130 C 0.85012 0.63579 0.79431 0.0
C3131 C 0.82942 0.6273 0.80253 0.0
C3132 C 0.82757 0.60947 0.81574 0.0
C3133 C 0.8461 0.59963 0.81961 0.0
C3134 C 0.85277 0.65497 0.78031 0.0
C3135 C 0.80587 0.60034 0.82515 0.0
C3136 C 0.79058 0.66876 0.80154 0.0
C3137 C 0.77889 0.66027 0.77869 0.0
C3138 C 0.8058 0.65705 0.81054 0.0
C3139 C 0.80962 0.63658 0.79621 0.0
C3140 C 0.79644 0.62681 0.7741 0.0
C3141 C 0.7811 0.63874 0.76565 0.0
C3142 C 0.81919 0.66787 0.83441 0.0
C3143 C 0.79987 0.60483 0.75841 0.0
H3144 H 0.88403 0.63185 0.79168 0.0
H3145 H 0.84449 0.5855 0.82917 0.0
H3146 H 0.84139 0.64926 0.76346 0.0
H3147 H 0.84805 0.67055 0.7907 0.0
H3148 H 0.87016 0.66003 0.7758 0.0
H3149 H 0.80771 0.58777 0.83675 0.0
H3150 H 0.79958 0.61491 0.8355 0.0
H3151 H 0.793 0.59158 0.81 0.0
H3152 H 0.78922 0.6855 0.81172 0.0
H3153 H 0.77181 0.6319 0.74819 0.0
H3154 H 0.83559 0.67806 0.83153 0.0
H3155 H 0.82242 0.65444 0.84433 0.0
H3156 H 0.81046 0.67979 0.84563 0.0
H3157 H 0.81614 0.60844 0.75093 0.0
H3158 H 0.78644 0.59797 0.74334 0.0
H3159 H 0.80048 0.5912 0.76895 0.0
C3160 C 0.87442 0.67281 0.02242 0.0
C3161 C 0.85139 0.66324 0.01788 0.0
C3162 C 0.88971 0.65918 0.02719 0.0
C3163 C 0.88181 0.63538 0.02733 0.0
C3164 C 0.85861 0.62558 0.02264 0.0
C3165 C 0.84368 0.63963 0.01803 0.0
C3166 C 0.91433 0.67028 0.03218 0.0
C3167 C 0.84956 0.60024 0.02248 0.0
C3168 C 0.92324 0.59581 0.01817 0.0
C3169 C 0.929 0.59366 0.04161 0.0
C3170 C 0.90773 0.60913 0.01324 0.0
C3171 C 0.89785 0.62071 0.03224 0.0
C3172 C 0.90347 0.61848 0.05594 0.0
C3173 C 0.91891 0.60487 0.06033 0.0
C3174 C 0.902 0.61087 0.98771 0.0
C3175 C 0.89343 0.63073 0.07669 0.0
H3176 H 0.88054 0.69103 0.02239 0.0
H3177 H 0.82593 0.63206 0.01452 0.0
H3178 H 0.92084 0.66835 0.05004 0.0
H3179 H 0.92378 0.66134 0.01888 0.0
H3180 H 0.91774 0.68905 0.03159 0.0
H3181 H 0.83109 0.59525 0.01838 0.0
H3182 H 0.85721 0.58921 1.009 0.0
H3183 H 0.8541 0.59636 0.04011 0.0
H3184 H 0.9308 0.58693 1.00362 0.0
H3185 H 0.92348 0.60342 0.07849 0.0
H3186 H 0.90648 0.62926 0.9859 0.0
H3187 H 0.88372 0.60481 0.98263 0.0
H3188 H 0.91085 0.60044 0.97495 0.0
H3189 H 0.89777 0.64978 0.07777 0.0
H3190 H 0.89937 0.62702 0.09399 0.0
H3191 H 0.87492 0.62535 0.07392 0.0
C3192 C 0.2198 0.12479 0.80269 0.0
C3193 C 0.2221 0.1043 0.78706 0.0
C3194 C 0.23141 0.14741 0.80107 0.0
C3195 C 0.24587 0.1506 0.78299 0.0
C3196 C 0.24851 0.13001 0.76721 0.0
C3197 C 0.23689 0.10739 0.7695 0.0
C3198 C 0.22791 0.16809 0.81878 0.0
C3199 C 0.26329 0.13192 0.74738 0.0
C3200 C 0.25721 0.21205 0.76639 0.0
C3201 C 0.27858 0.22313 0.77834 0.0
C3202 C 0.24686 0.18869 0.7672 0.0
C3203 C 0.25763 0.17536 0.7806 0.0
C3204 C 0.27922 0.18645 0.7927 0.0
C3205 C 0.28933 0.20974 0.7913 0.0
C3206 C 0.22412 0.17824 0.75366 0.0
C3207 C 0.29161 0.17376 0.8076 0.0
H3208 H 0.20861 0.12319 0.81644 0.0
H3209 H 0.23888 0.09216 0.75698 0.0
H3210 H 0.24426 0.17853 0.82787 0.0
H3211 H 0.22003 0.17949 0.80931 0.0
H3212 H 0.21713 0.16295 0.83254 0.0
H3213 H 0.26418 0.11465 0.73682 0.0
H3214 H 0.25682 0.14207 0.7352 0.0
H3215 H 0.28045 0.14145 0.75484 0.0
H3216 H 0.24843 0.22167 0.75616 0.0
H3217 H 0.30572 0.2176 0.80077 0.0
H3218 H 0.2117 0.17433 0.76636 0.0
H3219 H 0.2245 0.16158 0.74157 0.0
H3220 H 0.21835 0.19 0.74291 0.0
H3221 H 0.2817 0.16927 0.82223 0.0
H3222 H 0.30834 0.18423 0.81556 0.0
H3223 H 0.29375 0.15721 0.79653 0.0
C3224 C 0.36707 0.97798 0.35307 0.0
C3225 C 0.36399 0.98827 0.33341 0.0
C3226 C 0.35855 0.95419 0.35152 0.0
C3227 C 0.34656 0.94066 0.32991 0.0
C3228 C 0.34218 0.95134 0.31061 0.0
C3229 C 0.35106 0.97502 0.31256 0.0
C3230 C 0.36352 0.94333 0.37243 0.0
C3231 C 0.32918 0.93754 0.28737 0.0
C3232 C 0.34809 0.87757 0.3087 0.0
C3233 C 0.32646 0.8665 0.31186 0.0
C3234 C 0.3553 0.90168 0.31586 0.0
C3235 C 0.34047 0.91502 0.32632 0.0
C3236 C 0.31905 0.90386 0.33074 0.0
C3237 C 0.31229 0.87966 0.32348 0.0
C3238 C 0.37838 0.91299 0.31104 0.0
C3239 C 0.30282 0.91756 0.34188 0.0
H3240 H 0.37709 0.98822 0.3692 0.0
H3241 H 0.34842 0.98303 0.29745 0.0
H3242 H 0.34823 0.93173 0.37608 0.0
H3243 H 0.37603 0.9325 0.36808 0.0
H3244 H 0.37028 0.95661 0.38889 0.0
H3245 H 0.3255 0.94884 0.27499 0.0
H3246 H 0.33894 0.92532 0.27837 0.0
H3247 H 0.31315 0.92701 0.29079 0.0
H3248 H 0.35923 0.86748 0.30001 0.0
H3249 H 0.29557 0.87121 0.3261 0.0
H3250 H 0.38737 0.92518 0.32734 0.0
H3251 H 0.37692 0.92324 0.297 0.0
H3252 H 0.3886 0.90004 0.30499 0.0
H3253 H 0.3112 0.93058 0.35792 0.0
H3254 H 0.28813 0.90619 0.34706 0.0
H3255 H 0.29675 0.9272 0.32895 0.0
C3256 C 0.61145 0.37301 0.57653 0.0
C3257 C 0.61011 0.34924 0.5752 0.0
C3258 C 0.60604 0.38138 0.55614 0.0
C3259 C 0.59925 0.36555 0.53401 0.0
C3260 C 0.60043 0.34199 0.53208 0.0
C3261 C 0.60571 0.33405 0.55278 0.0
C3262 C 0.60545 0.4068 0.55881 0.0
C3263 C 0.59416 0.32478 0.50863 0.0
C3264 C 0.55244 0.38409 0.50268 0.0
C3265 C 0.56406 0.39807 0.48848 0.0
C3266 C 0.56342 0.3714 0.51583 0.0
C3267 C 0.58662 0.37277 0.51484 0.0
C3268 C 0.59782 0.38436 0.49829 0.0
C3269 C 0.58633 0.39682 0.48514 0.0
C3270 C 0.55066 0.3588 0.53291 0.0
C3271 C 0.62239 0.38561 0.4961 0.0
H3272 H 0.61526 0.3849 0.59372 0.0
H3273 H 0.60523 0.31568 0.55152 0.0
H3274 H 0.61381 0.41409 0.54449 0.0
H3275 H 0.58781 0.40871 0.55711 0.0
H3276 H 0.61371 0.41721 0.57639 0.0
H3277 H 0.60111 0.30903 0.50878 0.0
H3278 H 0.57568 0.3193 0.50529 0.0
H3279 H 0.60017 0.33271 0.49359 0.0
H3280 H 0.5353 0.38479 0.50559 0.0
H3281 H 0.5953 0.40696 0.47362 0.0
H3282 H 0.55622 0.36844 0.55152 0.0
H3283 H 0.55404 0.34113 0.53149 0.0
H3284 H 0.53231 0.35721 0.52956 0.0
H3285 H 0.63227 0.40061 0.50948 0.0
H3286 H 0.62663 0.38824 0.47812 0.0
H3287 H 0.62755 0.36966 0.49947 0.0
C3288 C 0.45394 0.76618 0.35342 0.0
C3289 C 0.45207 0.75176 0.37017 0.0
C3290 C 0.43517 0.7678 0.33916 0.0
C3291 C 0.41402 0.75438 0.34143 0.0
C3292 C 0.41228 0.73824 0.35673 0.0
C3293 C 0.43138 0.7372 0.37109 0.0
C3294 C 0.43774 0.78535 0.3232 0.0
C3295 C 0.39004 0.72325 0.35915 0.0
C3296 C 0.36614 0.78423 0.33301 0.0
C3297 C 0.35784 0.77461 0.30914 0.0
C3298 C 0.38407 0.7773 0.34384 0.0
C3299 C 0.39365 0.75995 0.33062 0.0
C3300 C 0.38488 0.74958 0.30674 0.0
C3301 C 0.36719 0.75726 0.29614 0.0
C3302 C 0.39322 0.78913 0.36922 0.0
C3303 C 0.39436 0.73064 0.29236 0.0
H3304 H 0.46994 0.77723 0.35227 0.0
H3305 H 0.42985 0.72581 0.38378 0.0
H3306 H 0.4291 0.77743 0.30509 0.0
H3307 H 0.42987 0.79993 0.33068 0.0
H3308 H 0.45557 0.79257 0.32154 0.0
H3309 H 0.39208 0.70884 0.36821 0.0
H3310 H 0.37996 0.73403 0.3698 0.0
H3311 H 0.38047 0.71582 0.34137 0.0
H3312 H 0.35894 0.79764 0.34312 0.0
H3313 H 0.36054 0.74954 0.27778 0.0
H3314 H 0.41088 0.79827 0.36969 0.0
H3315 H 0.393 0.77605 0.3806 0.0
H3316 H 0.38353 0.80196 0.37714 0.0
H3317 H 0.4117 0.7378 0.28901 0.0
H3318 H 0.38428 0.72283 0.27489 0.0
H3319 H 0.39516 0.71673 0.30251 0.0
C3320 C 0.09425 0.72791 0.09518 0.0
C3321 C 0.07783 0.73883 0.08712 0.0
C3322 C 0.09231 0.7039 0.08814 0.0
C3323 C 0.07355 0.69052 0.07256 0.0
C3324 C 0.05703 0.70143 0.06411 0.0
C3325 C 0.05934 0.7255 0.07156 0.0
C3326 C 0.11022 0.69281 0.09756 0.0
C3327 C 0.03687 0.68764 0.04735 0.0
C3328 C 0.07874 0.63147 0.03874 0.0
C3329 C 0.06755 0.61668 0.05245 0.0
C3330 C 0.08061 0.65556 0.04494 0.0
C3331 C 0.07114 0.66504 0.06536 0.0
C3332 C 0.0598 0.65023 0.07926 0.0
C3333 C 0.0581 0.6262 0.0726 0.0
C3334 C 0.09276 0.67087 0.02967 0.0
C3335 C 0.04959 0.6598 0.10124 0.0
H3336 H 0.10859 0.7381 0.10724 0.0
H3337 H 0.04663 0.73385 0.06522 0.0
H3338 H 0.10275 0.67975 0.10776 0.0
H3339 H 0.11759 0.68352 0.08249 0.0
H3340 H 0.12386 0.70574 0.10938 0.0
H3341 H 0.02578 0.69883 0.04204 0.0
H3342 H 0.04232 0.67813 0.031 0.0
H3343 H 0.02703 0.67448 0.05599 0.0
H3344 H 0.08599 0.62424 0.02306 0.0
H3345 H 0.04937 0.6149 0.08327 0.0
H3346 H 0.10735 0.68324 0.0405 0.0
H3347 H 0.08155 0.68131 0.02308 0.0
H3348 H 0.09876 0.66069 0.01406 0.0
H3349 H 0.06276 0.67189 0.11438 0.0
H3350 H 0.04111 0.6459 0.10995 0.0
H3351 H 0.03722 0.66988 0.09645 0.0
C3352 C 0.10467 0.29076 0.90824 0.0
C3353 C 0.08237 0.28299 0.89816 0.0
C3354 C 0.12229 0.29183 0.89377 0.0
C3355 C 0.11745 0.28502 0.86865 0.0
C3356 C 0.09503 0.27661 0.85841 0.0
C3357 C 0.07776 0.27567 0.87329 0.0
C3358 C 0.14603 0.30079 0.90531 0.0
C3359 C 0.08923 0.26922 0.83169 0.0
C3360 C 0.15947 0.31122 0.83037 0.0
C3361 C 0.17046 0.29304 0.82328 0.0
C3362 C 0.14216 0.30879 0.8451 0.0
C3363 C 0.13574 0.2877 0.85301 0.0
C3364 C 0.14672 0.26925 0.8459 0.0
C3365 C 0.16394 0.27212 0.83107 0.0
C3366 C 0.13082 0.32887 0.85232 0.0
C3367 C 0.14028 0.2465 0.85398 0.0
H3368 H 0.10837 0.29639 0.92744 0.0
H3369 H 0.06057 0.2696 0.86534 0.0
H3370 H 0.15645 0.28806 0.89932 0.0
H3371 H 0.15339 0.31714 0.89972 0.0
H3372 H 0.14705 0.30424 0.92512 0.0
H3373 H 0.07106 0.26204 0.82663 0.0
H3374 H 0.09432 0.28434 0.82318 0.0
H3375 H 0.09856 0.25589 0.82427 0.0
H3376 H 0.16468 0.32756 0.82475 0.0
H3377 H 0.17222 0.25793 0.82543 0.0
H3378 H 0.13288 0.3345 0.87205 0.0
H3379 H 0.11261 0.32331 0.8466 0.0
H3380 H 0.13766 0.34401 0.84444 0.0
H3381 H 0.14224 0.2496 0.87377 0.0
H3382 H 0.15057 0.23393 0.84697 0.0
H3383 H 0.12242 0.23853 0.84794 0.0
C3384 C 0.57943 0.75413 0.93847 0.0
C3385 C 0.5631 0.76607 0.93241 0.0
C3386 C 0.57567 0.73897 0.95433 0.0
C3387 C 0.55503 0.73557 0.96425 0.0
C3388 C 0.53863 0.7479 0.95859 0.0
C3389 C 0.54289 0.76308 0.94275 0.0
C3390 C 0.59361 0.72618 0.96006 0.0
C3391 C 0.5164 0.7446 0.96878 0.0
C3392 C 0.53901 0.67762 0.9824 0.0
C3393 C 0.54575 0.6836 1.00699 0.0
C3394 C 0.54109 0.69456 0.96844 0.0
C3395 C 0.55022 0.71803 0.97937 0.0
C3396 C 0.55617 0.72433 1.00439 0.0
C3397 C 0.55377 0.70697 0.01797 0.0
C3398 C 0.53435 0.68718 0.94185 0.0
C3399 C 0.56602 0.74919 0.0166 0.0
H3400 H 0.59515 0.75648 0.93068 0.0
H3401 H 0.53022 0.7723 0.93819 0.0
H3402 H 0.59773 0.72912 0.97968 0.0
H3403 H 0.58738 0.70723 0.95346 0.0
H3404 H 0.60917 0.73173 0.95188 0.0
H3405 H 0.50597 0.75649 0.96369 0.0
H3406 H 0.50701 0.72643 0.96229 0.0
H3407 H 0.51901 0.7476 0.98854 0.0
H3408 H 0.53251 0.65953 0.974 0.0
H3409 H 0.55906 0.71153 0.03699 0.0
H3410 H 0.54938 0.6903 0.93215 0.0
H3411 H 0.52281 0.6977 0.93608 0.0
H3412 H 0.52606 0.66851 0.93647 0.0
H3413 H 0.58275 0.75478 0.01069 0.0
H3414 H 0.56788 0.75149 0.03636 0.0
H3415 H 0.55539 0.76087 0.01151 0.0
C3416 C 0.09263 0.81661 0.70621 0.0
C3417 C 0.07046 0.80636 0.70833 0.0
C3418 C 0.1102 0.81462 0.72209 0.0
C3419 C 0.10535 0.80219 0.74049 0.0
C3420 C 0.08287 0.79422 0.74436 0.0
C3421 C 0.06565 0.79636 0.72817 0.0
C3422 C 0.13398 0.82369 0.71761 0.0
C3423 C 0.07702 0.78132 0.7641 0.0
C3424 C 0.14676 0.76497 0.75023 0.0
C3425 C 0.16029 0.77828 0.77072 0.0
C3426 C 0.12837 0.77225 0.74086 0.0
C3427 C 0.12337 0.79348 0.75214 0.0
C3428 C 0.13629 0.80656 0.77342 0.0
C3429 C 0.15466 0.79879 0.78247 0.0
C3430 C 0.11493 0.75768 0.71815 0.0
C3431 C 0.13136 0.82919 0.78602 0.0
H3432 H 0.09647 0.82468 0.69113 0.0
H3433 H 0.04848 0.78883 0.73024 0.0
H3434 H 0.14442 0.83246 0.73461 0.0
H3435 H 0.14128 0.80891 0.70945 0.0
H3436 H 0.13494 0.83609 0.70535 0.0
H3437 H 0.05932 0.78045 0.76771 0.0
H3438 H 0.07953 0.7633 0.75883 0.0
H3439 H 0.08804 0.78968 0.78083 0.0
H3440 H 0.15119 0.74938 0.74069 0.0
H3441 H 0.16493 0.80908 0.79843 0.0
H3442 H 0.11667 0.76757 0.70359 0.0
H3443 H 0.09692 0.75359 0.72075 0.0
H3444 H 0.12038 0.74109 0.71228 0.0
H3445 H 0.13679 0.84282 0.77568 0.0
H3446 H 0.14026 0.83505 0.80432 0.0
H3447 H 0.11314 0.82759 0.78716 0.0
C3448 C 0.05118 0.3754 0.41125 0.0
C3449 C 0.07253 0.37075 0.40872 0.0
C3450 C 0.04856 0.39685 0.42414 0.0
C3451 C 0.06776 0.41408 0.4344 0.0
C3452 C 0.08934 0.40972 0.43129 0.0
C3453 C 0.09147 0.38804 0.41861 0.0
C3454 C 0.02528 0.40086 0.42733 0.0
C3455 C 0.1102 0.42782 0.44172 0.0
C3456 C 0.06232 0.47665 0.45332 0.0
C3457 C 0.06236 0.47889 0.47812 0.0
C3458 C 0.06395 0.45558 0.43879 0.0
C3459 C 0.06534 0.4363 0.44932 0.0
C3460 C 0.06504 0.43837 0.47429 0.0
C3461 C 0.06371 0.4597 0.48842 0.0
C3462 C 0.06455 0.45405 0.41225 0.0
C3463 C 0.06625 0.41807 0.48609 0.0
H3464 H 0.03649 0.36207 0.40367 0.0
H3465 H 0.10802 0.3846 0.41651 0.0
H3466 H 0.02277 0.40361 0.44657 0.0
H3467 H 0.02312 0.41678 0.42106 0.0
H3468 H 1.01211 0.38601 0.41746 0.0
H3469 H 0.1257 0.42215 0.43649 0.0
H3470 H 0.10971 0.44431 0.43578 0.0
H3471 H 0.11102 0.43157 0.46149 0.0
H3472 H 0.06141 0.49148 0.44529 0.0
H3473 H 0.06357 0.46129 0.50756 0.0
H3474 H 0.0508 0.43994 0.40226 0.0
H3475 H 0.0805 0.44966 0.40686 0.0
H3476 H 0.06298 0.47056 0.40683 0.0
H3477 H 0.05256 0.40304 0.47787 0.0
H3478 H 0.06499 0.42233 0.5056 0.0
H3479 H 0.08228 0.41254 0.48327 0.0
C3480 C 0.44786 0.30011 0.18955 0.0
C3481 C 0.46148 0.28378 0.18707 0.0
C3482 C 0.42864 0.2967 0.20151 0.0
C3483 C 0.42312 0.27662 0.2114 0.0
C3484 C 0.43661 0.25991 0.20865 0.0
C3485 C 0.45559 0.26364 0.1964 0.0
C3486 C 0.41439 0.31474 0.20387 0.0
C3487 C 0.43126 0.23836 0.21907 0.0
C3488 C 0.38645 0.28305 0.26171 0.0
C3489 C 0.36516 0.27314 0.24953 0.0
C3490 C 0.40566 0.2833 0.24972 0.0
C3491 C 0.40344 0.27344 0.22502 0.0
C3492 C 0.38217 0.26202 0.21302 0.0
C3493 C 0.36327 0.26191 0.22547 0.0
C3494 C 0.42817 0.29533 0.26316 0.0
C3495 C 0.3792 0.25121 0.1867 0.0
H3496 H 0.45228 0.31564 0.18228 0.0
H3497 H 0.46609 0.25095 0.19461 0.0
H3498 H 0.39689 0.30652 0.19638 0.0
H3499 H 0.41408 0.32234 0.22301 0.0
H3500 H 0.42063 0.32902 0.19455 0.0
H3501 H 0.44309 0.22671 0.21469 0.0
H3502 H 0.43191 0.24337 0.23878 0.0
H3503 H 0.41404 0.22851 0.21232 0.0
H3504 H 0.38807 0.29163 0.28034 0.0
H3505 H 0.34689 0.25403 0.21595 0.0
H3506 H 0.43455 0.31146 0.25669 0.0
H3507 H 0.44046 0.28407 0.25984 0.0
H3508 H 0.4273 0.30001 0.28272 0.0
H3509 H 0.3827 0.2651 0.17627 0.0
H3510 H 0.36197 0.24087 0.18068 0.0
H3511 H 0.39122 0.23978 0.18249 0.0
C3512 C 0.63545 0.53655 0.34831 0.0
C3513 C 0.65697 0.53156 0.35097 0.0
C3514 C 0.62196 0.53928 0.36792 0.0
C3515 C 0.62968 0.53698 0.39132 0.0
C3516 C 0.65129 0.53184 0.39395 0.0
C3517 C 0.66434 0.52931 0.37425 0.0
C3518 C 0.59928 0.54475 0.36356 0.0
C3519 C 0.66083 0.52894 0.41788 0.0
C3520 C 0.60554 0.56314 0.44999 0.0
C3521 C 0.59119 0.54383 0.45572 0.0
C3522 C 0.61745 0.56134 0.42919 0.0
C3523 C 0.61549 0.53963 0.41296 0.0
C3524 C 0.60086 0.52015 0.41855 0.0
C3525 C 0.58913 0.52244 0.43941 0.0
C3526 C 0.63256 0.58285 0.42476 0.0
C3527 C 0.59785 0.4965 0.40258 0.0
H3528 H 0.6291 0.53849 0.33088 0.0
H3529 H 0.6807 0.52545 0.37728 0.0
H3530 H 0.58618 0.531 0.36792 0.0
H3531 H 0.59847 0.56135 0.37552 0.0
H3532 H 0.59542 0.54617 0.34476 0.0
H3533 H 0.67775 0.52493 0.41736 0.0
H3534 H 0.66191 0.54506 0.43146 0.0
H3535 H 0.6496 0.51471 0.42389 0.0
H3536 H 0.60773 0.57986 0.462 0.0
H3537 H 0.57842 0.50712 0.44308 0.0
H3538 H 0.62813 0.58543 0.40652 0.0
H3539 H 0.65014 0.5807 0.42578 0.0
H3540 H 0.63152 0.59868 0.43789 0.0
H3541 H 0.59263 0.49732 0.38391 0.0
H3542 H 0.58521 0.4832 0.40833 0.0
H3543 H 0.61402 0.49083 0.4026 0.0
C3544 C 0.27401 0.90757 0.06334 0.0
C3545 C 0.28954 0.92693 0.05988 0.0
C3546 C 0.2785 0.89547 0.08123 0.0
C3547 C 0.29903 0.90287 0.09607 0.0
C3548 C 0.31462 0.92263 0.09297 0.0
C3549 C 0.30969 0.93442 0.07494 0.0
C3550 C 0.26141 0.87452 0.08399 0.0
C3551 C 0.33668 0.9311 0.10844 0.0
C3552 C 0.30348 0.88212 0.15472 0.0
C3553 C 0.31445 0.86368 0.14875 0.0
C3554 C 0.29844 0.89508 0.13782 0.0
C3555 C 0.30448 0.88949 0.11434 0.0
C3556 C 0.31557 0.87094 0.10821 0.0
C3557 C 0.32042 0.85828 0.12546 0.0
C3558 C 0.28666 0.91477 0.1451 0.0
C3559 C 0.3222 0.86434 0.08335 0.0
H3560 H 0.25838 0.90165 0.05185 0.0
H3561 H 0.3218 0.94936 0.07245 0.0
H3562 H 0.26867 0.85881 0.08059 0.0
H3563 H 0.25681 0.87676 0.10255 0.0
H3564 H 0.24596 0.87146 0.07155 0.0
H3565 H 0.34664 0.9472 0.10433 0.0
H3566 H 0.3338 0.93453 0.12757 0.0
H3567 H 0.34668 0.91745 0.10585 0.0
H3568 H 0.29904 0.8866 0.17275 0.0
H3569 H 0.32859 0.84387 0.12057 0.0
H3570 H 0.27062 0.91164 0.13363 0.0
H3571 H 0.29705 0.93129 0.14246 0.0
H3572 H 0.28312 0.91693 0.16406 0.0
H3573 H 0.30711 0.85937 0.07017 0.0
H3574 H 0.33095 0.84964 0.08151 0.0
H3575 H 0.33334 0.87945 0.0787 0.0
C3576 C 0.96532 0.53285 0.86848 0.0
C3577 C 0.95824 0.5525 0.86366 0.0
C3578 C 0.98035 0.53449 0.88847 0.0
C3579 C 0.98894 0.55644 0.90359 0.0
C3580 C 0.98278 0.57656 0.89808 0.0
C3581 C 0.96718 0.5743 0.87831 0.0
C3582 C 0.98609 0.51255 0.89408 0.0
C3583 C 0.99211 0.60032 0.91348 0.0
C3584 C 1.00394 0.55474 0.96804 0.0
C3585 C 0.02694 0.5553 0.96869 0.0
C3586 C 0.99152 0.55572 0.94708 0.0
C3587 C 1.00246 0.5578 0.92638 0.0
C3588 C 0.02585 0.55937 0.92715 0.0
C3589 C 0.03782 0.55777 0.9483 0.0
C3590 C 0.96651 0.55352 0.94686 0.0
C3591 C 0.0381 0.56223 0.90555 0.0
H3592 H 0.95837 0.51596 0.85719 0.0
H3593 H 0.9619 0.58955 0.87437 0.0
H3594 H 1.00449 0.51432 0.89641 0.0
H3595 H 0.9797 0.50956 0.91116 0.0
H3596 H 0.97881 0.49702 0.87988 0.0
H3597 H 0.98797 0.61442 0.90505 0.0
H3598 H 0.98519 0.60154 0.93096 0.0
H3599 H 1.01056 0.60319 0.91707 0.0
H3600 H 0.99541 0.5527 0.98374 0.0
H3601 H 0.05565 0.55845 0.94886 0.0
H3602 H 0.95774 0.53748 0.9341 0.0
H3603 H 0.96144 0.56841 0.94074 0.0
H3604 H 0.96075 0.5528 0.96474 0.0
H3605 H 0.03295 0.54621 0.89149 0.0
H3606 H 0.05654 0.56573 0.90984 0.0
H3607 H 0.0337 0.5767 0.89798 0.0
C3608 C 0.31765 0.2616 0.58267 0.0
C3609 C 0.3028 0.24069 0.57188 0.0
C3610 C 0.31874 0.27067 0.60732 0.0
C3611 C 0.30468 0.25854 0.62157 0.0
C3612 C 0.28927 0.23776 0.61067 0.0
C3613 C 0.28849 0.22912 0.58603 0.0
C3614 C 0.33534 0.29292 0.61822 0.0
C3615 C 0.27398 0.22427 0.62518 0.0
C3616 C 0.3226 0.2658 0.68786 0.0
C3617 C 0.30896 0.28027 0.69841 0.0
C3618 C 0.32167 0.259 0.66293 0.0
C3619 C 0.30677 0.26688 0.64803 0.0
C3620 C 0.29331 0.28191 0.6585 0.0
C3621 C 0.29454 0.2884 0.68353 0.0
C3622 C 0.33631 0.24295 0.65254 0.0
C3623 C 0.27731 0.2908 0.64325 0.0
H3624 H 0.32875 0.27071 0.57195 0.0
H3625 H 0.27691 0.21299 0.57793 0.0
H3626 H 0.32675 0.30559 0.62848 0.0
H3627 H 0.34802 0.28937 0.63094 0.0
H3628 H 0.3441 0.301 0.60453 0.0
H3629 H 0.26226 0.20899 0.61389 0.0
H3630 H 0.28409 0.21812 0.63843 0.0
H3631 H 0.26408 0.23566 0.63529 0.0
H3632 H 0.33388 0.25945 0.69909 0.0
H3633 H 0.28397 0.29964 0.69143 0.0
H3634 H 0.34667 0.25082 0.63981 0.0
H3635 H 0.32571 0.22635 0.6424 0.0
H3636 H 0.34758 0.23905 0.6665 0.0
H3637 H 0.28635 0.29947 0.63013 0.0
H3638 H 0.26884 0.30328 0.65405 0.0
H3639 H 0.26436 0.27601 0.63295 0.0
C3640 C 0.6187 0.51483 0.20115 0.0
C3641 C 0.6417 0.52286 0.2093 0.0
C3642 C 0.60924 0.51695 0.17847 0.0
C3643 C 0.62268 0.52791 0.16278 0.0
C3644 C 0.646 0.53595 0.17072 0.0
C3645 C 0.65516 0.5332 0.19347 0.0
C3646 C 0.58455 0.50748 0.17136 0.0
C3647 C 0.66134 0.54802 0.15531 0.0
C3648 C 0.60023 0.51734 0.09502 0.0
C3649 C 0.59042 0.53655 0.09344 0.0
C3650 C 0.61067 0.51439 0.117 0.0
C3651 C 0.61215 0.53122 0.13857 0.0
C3652 C 0.60255 0.5508 0.13699 0.0
C3653 C 0.59179 0.55307 0.11489 0.0
C3654 C 0.61982 0.49284 0.11715 0.0
C3655 C 0.60363 0.56958 0.15884 0.0
H3656 H 0.60777 0.50674 0.21272 0.0
H3657 H 0.67283 0.53981 0.19913 0.0
H3658 H 0.57614 0.52185 0.16919 0.0
H3659 H 0.58186 0.49514 0.15388 0.0
H3660 H 0.57641 0.49841 0.18474 0.0
H3661 H 0.67898 0.55311 0.16348 0.0
H3662 H 0.66057 0.5365 0.13757 0.0
H3663 H 0.65571 0.56384 0.15226 0.0
H3664 H 0.59942 0.5042 0.07901 0.0
H3665 H 0.58459 0.56811 0.11441 0.0
H3666 H 0.61096 0.48267 0.1293 0.0
H3667 H 0.63779 0.4977 0.12408 0.0
H3668 H 0.61797 0.48155 0.0991 0.0
H3669 H 0.59416 0.56228 0.17251 0.0
H3670 H 0.59665 0.58433 0.15477 0.0
H3671 H 0.62123 0.57626 0.16681 0.0
C3672 C 0.29536 0.92884 0.91554 0.0
C3673 C 0.29253 0.92576 0.93892 0.0
C3674 C 0.29671 0.91012 0.89718 0.0
C3675 C 0.29549 0.88771 0.90231 0.0
C3676 C 0.2922 0.88437 0.92576 0.0
C3677 C 0.29063 0.90338 0.94373 0.0
C3678 C 0.29979 0.91442 0.87235 0.0
C3679 C 0.2908 0.8608 0.93199 0.0
C3680 C 0.28187 0.83669 0.84908 0.0
C3681 C 0.30323 0.83312 0.84414 0.0
C3682 C 0.27906 0.85394 0.86827 0.0
C3683 C 0.29803 0.86795 0.88314 0.0
C3684 C 0.31956 0.86383 0.87887 0.0
C3685 C 0.32192 0.84657 0.8594 0.0
C3686 C 0.25582 0.85781 0.87197 0.0
C3687 C 0.34023 0.87824 0.89439 0.0
H3688 H 0.29674 0.94601 0.91157 0.0
H3689 H 0.28853 0.9008 0.96173 0.0
H3690 H 0.31593 0.91052 0.86703 0.0
H3691 H 0.28634 0.90267 0.85929 0.0
H3692 H 0.29962 0.93265 0.87108 0.0
H3693 H 0.28758 0.8609 0.95085 0.0
H3694 H 0.27727 0.8478 0.92016 0.0
H3695 H 0.30669 0.85501 0.929 0.0
H3696 H 0.26726 0.82657 0.83739 0.0
H3697 H 0.33849 0.84404 0.85579 0.0
H3698 H 0.25441 0.87505 0.86835 0.0
H3699 H 0.25253 0.85788 0.89078 0.0
H3700 H 0.24267 0.84431 0.86009 0.0
H3701 H 0.34254 0.89655 0.8923 0.0
H3702 H 0.35555 0.87185 0.8898 0.0
H3703 H 0.33828 0.87812 0.91347 0.0
C3704 C 0.93671 0.54973 0.74235 0.0
C3705 C 0.94835 0.56447 0.76324 0.0
C3706 C 0.94761 0.54431 0.72196 0.0
C3707 C 0.97071 0.55379 0.72252 0.0
C3708 C 0.9824 0.56925 0.74328 0.0
C3709 C 0.97105 0.57445 0.76339 0.0
C3710 C 0.93456 0.52792 0.70005 0.0
C3711 C 1.00706 0.57966 0.7445 0.0
C3712 C 1.00404 0.52054 0.68061 0.0
C3713 C 1.00612 0.53336 0.66249 0.0
C3714 C 0.99255 0.52704 0.70027 0.0
C3715 C 0.98284 0.54675 0.70176 0.0
C3716 C 0.98477 0.5597 0.68347 0.0
C3717 C 0.99645 0.55288 0.66408 0.0
C3718 C 0.99083 0.51282 0.71948 0.0
C3719 C 0.9746 0.58081 0.68446 0.0
H3720 H 0.91913 0.54201 0.74206 0.0
H3721 H 0.98016 0.58585 0.77946 0.0
H3722 H 0.93657 0.53595 0.68417 0.0
H3723 H 0.9412 0.51181 0.69649 0.0
H3724 H 0.91644 0.5231 0.70205 0.0
H3725 H 0.01343 0.59228 0.76152 0.0
H3726 H 0.01665 0.56565 0.74278 0.0
H3727 H 1.01041 0.58862 0.72944 0.0
H3728 H 1.01126 0.5053 0.67933 0.0
H3729 H 0.99833 0.56309 0.65033 0.0
H3730 H 0.97299 0.50583 0.7212 0.0
H3731 H 0.99828 0.52399 0.73697 0.0
H3732 H 0.99943 0.49806 0.7157 0.0
H3733 H 0.95634 0.57598 0.68559 0.0
H3734 H 0.97736 0.58878 0.6686 0.0
H3735 H 0.98192 0.59405 0.70074 0.0
C3736 C 0.30998 0.22602 0.43611 0.0
C3737 C 0.28969 0.21044 0.43618 0.0
C3738 C 0.31452 0.23621 0.41626 0.0
C3739 C 0.29814 0.2312 0.39631 0.0
C3740 C 0.27746 0.21582 0.39653 0.0
C3741 C 0.27363 0.20539 0.41631 0.0
C3742 C 0.33693 0.25213 0.41651 0.0
C3743 C 0.25928 0.21052 0.37598 0.0
C3744 C 0.30078 0.2747 0.35553 0.0
C3745 C 0.30893 0.2633 0.33535 0.0
C3746 C 0.29712 0.26441 0.37539 0.0
C3747 C 0.30233 0.24243 0.37541 0.0
C3748 C 0.31096 0.23101 0.35522 0.0
C3749 C 0.31382 0.24142 0.33525 0.0
C3750 C 0.28719 0.27686 0.39613 0.0
C3751 C 0.31715 0.20778 0.35473 0.0
H3752 H 0.32253 0.22979 0.45134 0.0
H3753 H 0.25787 0.19346 0.41633 0.0
H3754 H 0.34527 0.24563 0.4008 0.0
H3755 H 0.33461 0.26975 0.41515 0.0
H3756 H 0.34817 0.25359 0.43298 0.0
H3757 H 0.24395 0.19864 0.37918 0.0
H3758 H 0.25479 0.22688 0.37295 0.0
H3759 H 0.26539 0.20243 0.35934 0.0
H3760 H 0.29663 0.29146 0.35552 0.0
H3761 H 0.32014 0.2326 0.31969 0.0
H3762 H 0.29876 0.28026 0.4127 0.0
H3763 H 0.27133 0.26572 0.39915 0.0
H3764 H 0.28369 0.29365 0.39312 0.0
H3765 H 0.32917 0.20891 0.37046 0.0
H3766 H 0.32472 0.20175 0.33825 0.0
H3767 H 0.30207 0.19453 0.35587 0.0
C3768 C 0.40098 0.60426 0.50761 0.0
C3769 C 0.38745 0.59933 0.52573 0.0
C3770 C 0.42174 0.59756 0.50579 0.0
C3771 C 0.42972 0.58571 0.52264 0.0
C3772 C 0.41609 0.5804 0.54087 0.0
C3773 C 0.39514 0.58711 0.54211 0.0
C3774 C 0.43529 0.60348 0.48587 0.0
C3775 C 0.42385 0.56799 0.55938 0.0
C3776 C 0.47604 0.55229 0.50578 0.0
C3777 C 0.49566 0.56802 0.51715 0.0
C3778 C 0.45465 0.55768 0.50756 0.0
C3779 C 0.45245 0.57933 0.52122 0.0
C3780 C 0.47217 0.59531 0.53268 0.0
C3781 C 0.49336 0.58953 0.53047 0.0
C3782 C 0.43432 0.54013 0.49475 0.0
C3783 C 0.47092 0.61857 0.54747 0.0
H3784 H 0.39538 0.61356 0.4947 0.0
H3785 H 0.38506 0.58327 0.55628 0.0
H3786 H 0.45151 0.61527 0.49346 0.0
H3787 H 0.43907 0.58749 0.47524 0.0
H3788 H 0.42649 0.61202 0.47369 0.0
H3789 H 0.41127 0.56464 0.5721 0.0
H3790 H 0.42742 0.55118 0.55054 0.0
H3791 H 0.43967 0.57856 0.5696 0.0
H3792 H 0.47735 0.53556 0.49555 0.0
H3793 H 0.50815 0.60185 0.53962 0.0
H3794 H 0.42546 0.54781 0.48182 0.0
H3795 H 0.42248 0.53541 0.50774 0.0
H3796 H 0.43868 0.52404 0.48499 0.0
H3797 H 0.46323 0.62872 0.53619 0.0
H3798 H 0.48765 0.62894 0.55562 0.0
H3799 H 0.46009 0.61603 0.56193 0.0
C3800 C 0.89821 0.94252 0.53976 0.0
C3801 C 0.89232 0.93931 0.56235 0.0
C3802 C 0.91912 0.95575 0.53707 0.0
C3803 C 0.93459 0.9661 0.55746 0.0
C3804 C 0.92883 0.9629 0.58031 0.0
C3805 C 0.90776 0.94954 0.58249 0.0
C3806 C 0.92461 0.95871 0.51238 0.0
C3807 C 0.9449 0.97365 0.60246 0.0
C3808 C 0.99539 0.9833 0.54597 0.0
C3809 C 0.99762 1.00703 0.5458 0.0
C3810 C 0.97516 0.9699 0.55036 0.0
C3811 C 0.95669 0.98044 0.55473 0.0
C3812 C 0.959 1.0045 0.55525 0.0
C3813 C 0.97942 0.0175 0.55078 0.0
C3814 C 0.9734 0.9443 0.54968 0.0
C3815 C 0.93971 0.0164 0.55988 0.0
H3816 H 0.88644 0.93468 0.52406 0.0
H3817 H 0.9034 0.94715 0.60001 0.0
H3818 H 0.92812 0.97742 0.51163 0.0
H3819 H 0.93993 0.95216 0.50823 0.0
H3820 H 0.91081 0.94936 0.49833 0.0
H3821 H 0.93798 0.96935 0.61889 0.0
H3822 H 0.96078 0.96755 0.60076 0.0
H3823 H 0.94903 0.99282 0.60451 0.0
H3824 H 1.00935 0.97503 0.54229 0.0
H3825 H 0.98094 0.03581 0.55077 0.0
H3826 H 0.96111 0.93398 0.53458 0.0
H3827 H 0.96723 0.93976 0.56631 0.0
H3828 H 0.98968 0.93906 0.54753 0.0
H3829 H 0.9259 1.00902 0.54533 0.0
H3830 H 0.94457 0.03545 0.56099 0.0
H3831 H 0.93309 0.01327 0.5768 0.0
C3832 C 0.88695 0.13559 0.26066 0.0
C3833 C 0.89857 0.13367 0.28218 0.0
C3834 C 0.87604 0.1547 0.25901 0.0
C3835 C 0.87606 0.17292 0.27926 0.0
C3836 C 0.88745 0.17075 0.30095 0.0
C3837 C 0.89835 0.15181 0.30204 0.0
C3838 C 0.86464 0.15555 0.23521 0.0
C3839 C 0.88827 0.18874 0.32342 0.0
C3840 C 0.86549 0.2353 0.27448 0.0
C3841 C 0.84288 0.23448 0.27896 0.0
C3842 C 0.87608 0.21577 0.274 0.0
C3843 C 0.86434 0.19399 0.2782 0.0
C3844 C 0.84154 0.19308 0.28272 0.0
C3845 C 0.8313 0.21279 0.2829 0.0
C3846 C 0.90017 0.21855 0.26891 0.0
C3847 C 0.82776 0.17108 0.28769 0.0
H3848 H 0.88673 0.1224 0.24486 0.0
H3849 H 0.90692 0.1513 0.319 0.0
H3850 H 0.84671 0.15566 0.23674 0.0
H3851 H 0.87224 0.17189 0.22973 0.0
H3852 H 0.86588 0.14059 0.22103 0.0
H3853 H 0.89711 0.18467 0.33912 0.0
H3854 H 0.8969 0.20604 0.32084 0.0
H3855 H 0.87104 0.19004 0.3274 0.0
H3856 H 0.87509 0.25138 0.27117 0.0
H3857 H 0.81395 0.21113 0.28632 0.0
H3858 H 0.90174 0.20493 0.25347 0.0
H3859 H 0.91054 0.2162 0.28449 0.0
H3860 H 0.907 0.23587 0.26499 0.0
H3861 H 0.82736 0.15638 0.27258 0.0
H3862 H 0.8103 0.17255 0.29053 0.0
H3863 H 0.83557 0.16679 0.30383 0.0
C3864 C 0.74083 0.07488 0.02115 0.0
C3865 C 0.74996 0.09644 0.03635 0.0
C3866 C 0.71735 0.0661 0.01716 0.0
C3867 C 0.70257 0.07894 0.02889 0.0
C3868 C 0.71186 0.10033 0.04478 0.0
C3869 C 0.73519 0.1088 0.04813 0.0
C3870 C 0.70831 0.04335 0.9999 0.0
C3871 C 0.69709 0.11458 0.0581 0.0
C3872 C 0.64098 0.07205 1.00514 0.0
C3873 C 0.62953 0.05851 0.01989 0.0
C3874 C 0.66463 0.07794 1.00717 0.0
C3875 C 0.67743 0.07046 0.0246 0.0
C3876 C 0.66596 0.05648 0.03926 0.0
C3877 C 0.64232 0.0506 0.03665 0.0
C3878 C 0.67594 0.09265 0.99094 0.0
C3879 C 0.67865 0.04832 0.05831 0.0
H3880 H 0.75196 0.06525 0.01177 0.0
H3881 H 0.74192 0.1254 0.06005 0.0
H3882 H 0.69749 0.03113 1.00881 0.0
H3883 H 0.69774 0.04627 0.98476 0.0
H3884 H 0.72183 0.03507 0.99271 0.0
H3885 H 0.70688 0.13037 0.07054 0.0
H3886 H 0.68594 0.12002 0.04522 0.0
H3887 H 0.68624 0.10395 0.06849 0.0
H3888 H 0.63145 0.07816 0.99199 0.0
H3889 H 0.63384 0.04016 0.04821 0.0
H3890 H 0.68872 0.08434 0.98207 0.0
H3891 H 0.68474 0.10985 1.00163 0.0
H3892 H 0.66388 0.09543 0.977 0.0
H3893 H 0.69138 0.03922 0.05047 0.0
H3894 H 0.66748 0.03644 0.06729 0.0
H3895 H 0.68769 0.06353 0.072 0.0
C3896 C 0.28054 0.5089 0.24901 0.0
C3897 C 0.26227 0.49499 0.23343 0.0
C3898 C 0.29747 0.49919 0.25798 0.0
C3899 C 0.29602 0.47499 0.25129 0.0
C3900 C 0.27824 0.46103 0.23464 0.0
C3901 C 0.26157 0.47123 0.22584 0.0
C3902 C 0.31629 0.51463 0.27552 0.0
C3903 C 0.2762 0.43512 0.22706 0.0
C3904 C 0.34454 0.44683 0.26394 0.0
C3905 C 0.33832 0.43781 0.28399 0.0
C3906 C 0.33142 0.45985 0.25355 0.0
C3907 C 0.31168 0.46387 0.2635 0.0
C3908 C 0.30604 0.45596 0.28453 0.0
C3909 C 0.31942 0.44303 0.29451 0.0
C3910 C 0.33804 0.46823 0.23126 0.0
C3911 C 0.28512 0.45996 0.29572 0.0
H3912 H 0.28134 0.52735 0.25475 0.0
H3913 H 0.24757 0.46041 0.21372 0.0
H3914 H 0.3145 0.51064 0.29353 0.0
H3915 H 0.33267 0.51131 0.2704 0.0
H3916 H 0.31642 0.53336 0.2767 0.0
H3917 H 0.26248 0.42708 0.21251 0.0
H3918 H 0.2921 0.43129 0.22089 0.0
H3919 H 0.27289 0.42679 0.24257 0.0
H3920 H 0.35923 0.44298 0.25586 0.0
H3921 H 0.31424 0.43579 0.30973 0.0
H3922 H 0.33734 0.4868 0.23292 0.0
H3923 H 0.32605 0.45823 0.21576 0.0
H3924 H 0.35513 0.46609 0.22744 0.0
H3925 H 0.28462 0.47867 0.2989 0.0
H3926 H 0.28397 0.45408 0.31295 0.0
H3927 H 0.27016 0.45039 0.28333 0.0
C3928 C 0.27422 0.44962 0.04805 0.0
C3929 C 0.26984 0.4277 0.03274 0.0
C3930 C 0.25957 0.46484 0.04723 0.0
C3931 C 0.24024 0.45806 0.0305 0.0
C3932 C 0.2358 0.436 0.01495 0.0
C3933 C 0.25057 0.42106 0.01635 0.0
C3934 C 0.26471 0.48811 0.06428 0.0
C3935 C 0.21548 0.42823 0.9967 0.0
C3936 C 0.19032 0.48638 0.03923 0.0
C3937 C 0.19318 0.50186 0.02352 0.0
C3938 C 0.2059 0.47258 0.04227 0.0
C3939 C 0.22465 0.47401 0.02905 0.0
C3940 C 0.22789 0.48988 0.01352 0.0
C3941 C 0.21221 0.5037 0.01106 0.0
C3942 C 0.20195 0.456 0.05916 0.0
C3943 C 0.24763 0.49184 0.99903 0.0
H3944 H 0.28903 0.45483 0.06083 0.0
H3945 H 0.2471 0.4042 1.00437 0.0
H3946 H 0.26655 0.50229 0.05414 0.0
H3947 H 0.25062 0.48976 0.07524 0.0
H3948 H 0.28026 0.49064 0.07643 0.0
H3949 H 0.21452 0.4106 0.98581 0.0
H3950 H 0.20004 0.42812 1.00577 0.0
H3951 H 0.21582 0.44065 0.98454 0.0
H3952 H 0.17556 0.48455 0.0487 0.0
H3953 H 0.21481 0.5159 0.99923 0.0
H3954 H 0.2171 0.45851 0.07185 0.0
H3955 H 0.19862 0.43784 0.04891 0.0
H3956 H 0.18758 0.45831 0.06952 0.0
H3957 H 0.26347 0.49575 0.01096 0.0
H3958 H 0.24814 0.50557 0.98836 0.0
H3959 H 0.24686 0.475 0.98668 0.0
C3960 C 0.8856 0.97691 0.25578 0.0
C3961 C 0.89703 0.99037 0.27764 0.0
C3962 C 0.87477 0.95291 0.25337 0.0
C3963 C 0.87501 0.9415 0.27318 0.0
C3964 C 0.88633 0.95514 0.29519 0.0
C3965 C 0.89698 0.97884 0.29708 0.0
C3966 C 0.86315 0.93963 0.22941 0.0
C3967 C 0.88734 0.94461 0.31708 0.0
C3968 C 0.83128 0.88532 0.27661 0.0
C3969 C 0.84314 0.86726 0.27177 0.0
C3970 C 0.84107 0.90899 0.27647 0.0
C3971 C 0.86359 0.91562 0.27131 0.0
C3972 C 0.87555 0.89742 0.26608 0.0
C3973 C 0.86536 0.87387 0.26639 0.0
C3974 C 0.82726 0.92712 0.28233 0.0
C3975 C 0.89945 0.90291 0.26045 0.0
H3976 H 0.88532 0.98501 0.24042 0.0
H3977 H 0.90549 0.98844 0.31423 0.0
H3978 H 0.87082 0.92458 0.22314 0.0
H3979 H 0.8453 0.9326 0.23105 0.0
H3980 H 0.86409 0.95058 0.21574 0.0
H3981 H 0.89655 0.95729 0.333 0.0
H3982 H 0.87017 0.93789 0.32124 0.0
H3983 H 0.89568 0.92966 0.31363 0.0
H3984 H 0.81419 0.88101 0.2808 0.0
H3985 H 0.87503 0.86055 0.26254 0.0
H3986 H 0.82704 0.93714 0.26792 0.0
H3987 H 0.83491 0.93961 0.29902 0.0
H3988 H 0.80975 0.91939 0.28471 0.0
H3989 H 0.90068 0.91249 0.24564 0.0
H3990 H 0.90624 0.88702 0.25536 0.0
H3991 H 0.91009 0.91435 0.27625 0.0
C3992 C 0.76247 0.1079 0.73108 0.0
C3993 C 0.74508 0.09883 0.71257 0.0
C3994 C 0.77211 0.13168 0.73674 0.0
C3995 C 0.76409 0.1467 0.72361 0.0
C3996 C 0.74738 0.13752 0.7041 0.0
C3997 C 0.73808 0.11362 0.69876 0.0
C3998 C 0.79004 0.14087 0.75757 0.0
C3999 C 0.73848 0.15308 0.68969 0.0
C4000 C 0.76759 0.20819 0.75698 0.0
C4001 C 0.78621 0.22044 0.74839 0.0
C4002 C 0.76016 0.18421 0.74887 0.0
C4003 C 0.77165 0.17217 0.73178 0.0
C4004 C 0.79043 0.18437 0.72297 0.0
C4005 C 0.7975 0.20841 0.73139 0.0
C4006 C 0.74004 0.17173 0.75868 0.0
C4007 C 0.80307 0.172 0.70478 0.0
H4008 H 0.76813 0.09652 0.74167 0.0
H4009 H 0.72472 0.1067 0.68436 0.0
H4010 H 0.80457 0.15237 0.75234 0.0
H4011 H 0.78338 0.15143 0.77235 0.0
H4012 H 0.79596 0.12669 0.76438 0.0
H4013 H 0.72719 0.14301 0.67365 0.0
H4014 H 0.72904 0.16413 0.70097 0.0
H4015 H 0.75245 0.16485 0.6839 0.0
H4016 H 0.75876 0.21733 0.77011 0.0
H4017 H 0.8119 0.21775 0.72464 0.0
H4018 H 0.7448 0.15832 0.76774 0.0
H4019 H 0.7269 0.16267 0.74387 0.0
H4020 H 0.73279 0.18373 0.77162 0.0
H4021 H 0.80984 0.15859 0.71212 0.0
H4022 H 0.81715 0.18409 0.69948 0.0
H4023 H 0.7916 0.1629 0.68856 0.0
loop_
_geom_bond_atom_site_label_1
_geom_bond_atom_site_label_2
_geom_bond_distance
_geom_bond_site_symmetry_2
_ccdc_geom_bond_type
C0 O1 1.160 . S
C0 O7 1.185 . S
O1 C0 1.160 . S
O2 Zn3 1.899 . S
O2 C10 1.284 . S
Zn3 O2 1.899 . S
Zn3 O4 2.032 . S
Zn3 O7 2.086 . S
Zn3 O12 1.977 . S
O4 Zn3 2.032 . S
O4 C8 1.278 . S
C5 O6 1.203 . S
C5 O12 1.267 . S
O6 C5 1.203 . S
O7 C0 1.185 . S
O7 Zn3 2.086 . S
C8 O4 1.278 . S
C8 O9 1.211 . S
O9 C8 1.211 . S
C10 O2 1.284 . S
C10 O11 1.273 . S
O11 C10 1.273 . S
O12 Zn3 1.977 . S
O12 C5 1.267 . S
C13 O14 1.160 . S
C13 O20 1.185 . S
O14 C13 1.160 . S
O15 Zn16 1.899 . S
O15 C23 1.284 . S
Zn16 O15 1.899 . S
Zn16 O17 2.032 . S
Zn16 O20 2.086 . S
Zn16 O25 1.977 1_655 S
O17 Zn16 2.032 . S
O17 C21 1.278 1_655 S
C18 O19 1.203 . S
C18 O25 1.267 . S
O19 C18 1.203 . S
O20 C13 1.185 . S
O20 Zn16 2.086 . S
C21 O17 1.278 1_455 S
C21 O22 1.211 . S
O22 C21 1.211 . S
C23 O15 1.284 . S
C23 O24 1.273 1_655 S
O24 C23 1.273 1_455 S
O25 Zn16 1.977 1_455 S
O25 C18 1.267 . S
C26 O27 1.160 . S
C26 O33 1.185 . S
O27 C26 1.160 . S
O28 Zn29 1.899 . S
O28 C36 1.284 . S
Zn29 O28 1.899 . S
Zn29 O30 2.032 . S
Zn29 O33 2.086 . S
Zn29 O38 1.977 . S
O30 Zn29 2.032 . S
O30 C34 1.278 . S
C31 O32 1.203 . S
C31 O38 1.267 . S
O32 C31 1.203 . S
O33 C26 1.185 . S
O33 Zn29 2.086 . S
C34 O30 1.278 . S
C34 O35 1.211 . S
O35 C34 1.211 . S
C36 O28 1.284 . S
C36 O37 1.273 . S
O37 C36 1.273 . S
O38 Zn29 1.977 . S
O38 C31 1.267 . S
C39 O40 1.160 . S
C39 O46 1.185 . S
O40 C39 1.160 . S
O41 Zn42 1.899 . S
O41 C49 1.284 . S
Zn42 O41 1.899 . S
Zn42 O43 2.032 . S
Zn42 O46 2.086 . S
Zn42 O51 1.977 . S
O43 Zn42 2.032 . S
O43 C47 1.278 . S
C44 O45 1.203 . S
C44 O51 1.267 . S
O45 C44 1.203 . S
O46 C39 1.185 . S
O46 Zn42 2.086 . S
C47 O43 1.278 . S
C47 O48 1.211 . S
O48 C47 1.211 . S
C49 O41 1.284 . S
C49 O50 1.273 . S
O50 C49 1.273 . S
O51 Zn42 1.977 . S
O51 C44 1.267 . S
C52 O53 1.160 . S
C52 O59 1.185 . S
O53 C52 1.160 . S
O54 Zn55 1.899 . S
O54 C62 1.284 . S
Zn55 O54 1.899 . S
Zn55 O56 2.032 . S
Zn55 O59 2.086 . S
Zn55 O64 1.977 . S
O56 Zn55 2.032 . S
O56 C60 1.278 . S
C57 O58 1.203 . S
C57 O64 1.267 . S
O58 C57 1.203 . S
O59 C52 1.185 . S
O59 Zn55 2.086 . S
C60 O56 1.278 . S
C60 O61 1.211 . S
O61 C60 1.211 . S
C62 O54 1.284 . S
C62 O63 1.273 . S
O63 C62 1.273 . S
O64 Zn55 1.977 . S
O64 C57 1.267 . S
C65 O66 1.160 . S
C65 O72 1.185 . S
O66 C65 1.160 . S
O67 Zn68 1.899 . S
O67 C75 1.284 . S
Zn68 O67 1.899 . S
Zn68 O69 2.032 . S
Zn68 O72 2.086 . S
Zn68 O77 1.977 . S
O69 Zn68 2.032 . S
O69 C73 1.278 . S
C70 O71 1.203 . S
C70 O77 1.267 . S
O71 C70 1.203 . S
O72 C65 1.185 . S
O72 Zn68 2.086 . S
C73 O69 1.278 . S
C73 O74 1.211 . S
O74 C73 1.211 . S
C75 O67 1.284 . S
C75 O76 1.273 . S
O76 C75 1.273 . S
O77 Zn68 1.977 . S
O77 C70 1.267 . S
C78 O79 1.160 . S
C78 O85 1.185 . S
O79 C78 1.160 . S
O80 Zn81 1.899 . S
O80 C88 1.284 . S
Zn81 O80 1.899 . S
Zn81 O82 2.032 . S
Zn81 O85 2.086 . S
Zn81 O90 1.977 . S
O82 Zn81 2.032 . S
O82 C86 1.278 . S
C83 O84 1.203 . S
C83 O90 1.267 . S
O84 C83 1.203 . S
O85 C78 1.185 . S
O85 Zn81 2.086 . S
C86 O82 1.278 . S
C86 O87 1.211 . S
O87 C86 1.211 . S
C88 O80 1.284 . S
C88 O89 1.273 . S
O89 C88 1.273 . S
O90 Zn81 1.977 . S
O90 C83 1.267 . S
C91 O92 1.160 . S
C91 O98 1.185 . S
O92 C91 1.160 . S
O93 Zn94 1.899 . S
O93 C101 1.284 . S
Zn94 O93 1.899 . S
Zn94 O95 2.032 . S
Zn94 O98 2.086 . S
Zn94 O103 1.977 1_455 S
O95 Zn94 2.032 . S
O95 C99 1.278 . S
C96 O97 1.203 . S
C96 O103 1.267 . S
O97 C96 1.203 . S
O98 C91 1.185 . S
O98 Zn94 2.086 . S
C99 O95 1.278 . S
C99 O100 1.211 1_455 S
O100 C99 1.211 1_655 S
C101 O93 1.284 . S
C101 O102 1.273 . S
O102 C101 1.273 . S
O103 Zn94 1.977 1_655 S
O103 C96 1.267 . S
C104 O105 1.160 . S
C104 O111 1.185 . S
O105 C104 1.160 . S
O106 Zn107 1.899 . S
O106 C114 1.293 . S
Zn107 O106 1.899 . S
Zn107 O108 2.032 . S
Zn107 O111 2.086 . S
Zn107 O116 1.977 1_545 S
O108 Zn107 2.032 . S
O108 C112 1.278 . S
C109 O110 1.203 . S
C109 O116 1.267 . S
O110 C109 1.203 . S
O111 C104 1.185 . S
O111 Zn107 2.086 . S
C112 O108 1.278 . S
C112 O113 1.211 1_545 S
O113 C112 1.211 1_565 S
C114 O106 1.293 . S
C114 O115 1.260 1_545 S
O115 C114 1.260 1_565 S
O116 Zn107 1.977 1_565 S
O116 C109 1.267 . S
C117 O118 1.160 . S
C117 O124 1.185 . S
O118 C117 1.160 . S
O119 Zn120 1.899 . S
O119 C127 1.284 . S
Zn120 O119 1.899 . S
Zn120 O121 2.032 . S
Zn120 O124 2.086 . S
Zn120 O129 1.977 . S
O121 Zn120 2.032 . S
O121 C125 1.278 . S
C122 O123 1.203 . S
C122 O129 1.267 . S
O123 C122 1.203 . S
O124 C117 1.185 . S
O124 Zn120 2.086 . S
C125 O121 1.278 . S
C125 O126 1.211 . S
O126 C125 1.211 . S
C127 O119 1.284 . S
C127 O128 1.273 . S
O128 C127 1.273 . S
O129 Zn120 1.977 . S
O129 C122 1.267 . S
C130 O131 1.160 . S
C130 O137 1.185 . S
O131 C130 1.160 . S
O132 Zn133 1.899 . S
O132 C140 1.284 . S
Zn133 O132 1.899 . S
Zn133 O134 2.032 1_545 S
Zn133 O137 2.086 1_545 S
Zn133 O142 1.977 . S
O134 Zn133 2.032 1_565 S
O134 C138 1.278 1_565 S
C135 O136 1.203 . S
C135 O142 1.267 . S
O136 C135 1.203 . S
O137 C130 1.185 . S
O137 Zn133 2.086 1_565 S
C138 O134 1.278 1_545 S
C138 O139 1.211 . S
O139 C138 1.211 . S
C140 O132 1.284 . S
C140 O141 1.273 . S
O141 C140 1.273 . S
O142 Zn133 1.977 . S
O142 C135 1.267 . S
C143 O144 1.160 . S
C143 O150 1.185 . S
O144 C143 1.160 . S
O145 Zn146 1.899 . S
O145 C153 1.284 . S
Zn146 O145 1.899 . S
Zn146 O147 2.032 1_554 S
Zn146 O150 2.086 . S
Zn146 O155 1.977 . S
O147 Zn146 2.032 1_556 S
O147 C151 1.278 . S
C148 O149 1.203 . S
C148 O155 1.267 . S
O149 C148 1.203 . S
O150 C143 1.185 . S
O150 Zn146 2.086 . S
C151 O147 1.278 . S
C151 O152 1.211 . S
O152 C151 1.211 . S
C153 O145 1.284 . S
C153 O154 1.273 . S
O154 C153 1.273 . S
O155 Zn146 1.977 . S
O155 C148 1.267 . S
C156 O157 1.160 . S
C156 O163 1.185 . S
O157 C156 1.160 . S
O158 Zn159 1.899 . S
O158 C166 1.284 . S
Zn159 O158 1.899 . S
Zn159 O160 2.032 1_554 S
Zn159 O163 2.086 . S
Zn159 O168 1.977 . S
O160 Zn159 2.032 1_556 S
O160 C164 1.278 . S
C161 O162 1.203 . S
C161 O168 1.267 . S
O162 C161 1.203 . S
O163 C156 1.185 . S
O163 Zn159 2.086 . S
C164 O160 1.278 . S
C164 O165 1.211 . S
O165 C164 1.211 . S
C166 O158 1.284 . S
C166 O167 1.273 . S
O167 C166 1.273 . S
O168 Zn159 1.977 . S
O168 C161 1.267 . S
C169 O170 1.160 . S
C169 O176 1.185 . S
O170 C169 1.160 . S
O171 Zn172 1.899 . S
O171 C179 1.284 . S
Zn172 O171 1.899 . S
Zn172 O173 2.032 1_554 S
Zn172 O176 2.086 . S
Zn172 O181 1.977 . S
O173 Zn172 2.032 1_556 S
O173 C177 1.278 . S
C174 O175 1.203 . S
C174 O181 1.267 . S
O175 C174 1.203 . S
O176 C169 1.185 . S
O176 Zn172 2.086 . S
C177 O173 1.278 . S
C177 O178 1.211 . S
O178 C177 1.211 . S
C179 O171 1.284 . S
C179 O180 1.273 . S
O180 C179 1.273 . S
O181 Zn172 1.977 . S
O181 C174 1.267 . S
C182 O183 1.160 . S
C182 O189 1.185 . S
O183 C182 1.160 . S
O184 Zn185 1.899 . S
O184 C192 1.284 . S
Zn185 O184 1.899 . S
Zn185 O186 2.032 . S
Zn185 O189 2.086 . S
Zn185 O194 1.977 . S
O186 Zn185 2.032 . S
O186 C190 1.278 . S
C187 O188 1.203 . S
C187 O194 1.267 . S
O188 C187 1.203 . S
O189 C182 1.185 . S
O189 Zn185 2.086 . S
C190 O186 1.278 . S
C190 O191 1.211 . S
O191 C190 1.211 . S
C192 O184 1.284 . S
C192 O193 1.273 . S
O193 C192 1.273 . S
O194 Zn185 1.977 . S
O194 C187 1.267 . S
C195 O196 1.160 . S
C195 O202 1.185 . S
O196 C195 1.160 . S
O197 Zn198 1.899 . S
O197 C205 1.284 . S
Zn198 O197 1.899 . S
Zn198 O199 2.032 . S
Zn198 O202 2.086 . S
Zn198 O207 1.977 . S
O199 Zn198 2.032 . S
O199 C203 1.278 . S
C200 O201 1.203 . S
C200 O207 1.267 . S
O201 C200 1.203 . S
O202 C195 1.185 . S
O202 Zn198 2.086 . S
C203 O199 1.278 . S
C203 O204 1.211 . S
O204 C203 1.211 . S
C205 O197 1.284 . S
C205 O206 1.273 . S
O206 C205 1.273 . S
O207 Zn198 1.977 . S
O207 C200 1.267 . S
C208 O209 1.160 . S
C208 O215 1.185 . S
O209 C208 1.160 . S
O210 Zn211 1.899 . S
O210 C218 1.284 . S
Zn211 O210 1.899 . S
Zn211 O212 2.032 . S
Zn211 O215 2.086 . S
Zn211 O220 1.977 . S
O212 Zn211 2.032 . S
O212 C216 1.278 . S
C213 O214 1.203 . S
C213 O220 1.267 . S
O214 C213 1.203 . S
O215 C208 1.185 . S
O215 Zn211 2.086 . S
C216 O212 1.278 . S
C216 O217 1.211 . S
O217 C216 1.211 . S
C218 O210 1.284 . S
C218 O219 1.273 . S
O219 C218 1.273 . S
O220 Zn211 1.977 . S
O220 C213 1.267 . S
C221 O222 1.160 . S
C221 O228 1.185 . S
O222 C221 1.160 . S
O223 Zn224 1.899 . S
O223 C231 1.284 . S
Zn224 O223 1.899 . S
Zn224 O225 2.032 . S
Zn224 O228 2.086 . S
Zn224 O233 1.977 . S
O225 Zn224 2.032 . S
O225 C229 1.278 . S
C226 O227 1.203 . S
C226 O233 1.267 . S
O227 C226 1.203 . S
O228 C221 1.185 . S
O228 Zn224 2.086 . S
C229 O225 1.278 . S
C229 O230 1.211 . S
O230 C229 1.211 . S
C231 O223 1.284 . S
C231 O232 1.273 . S
O232 C231 1.273 . S
O233 Zn224 1.977 . S
O233 C226 1.267 . S
C234 O235 1.160 . S
C234 O241 1.185 . S
O235 C234 1.160 . S
O236 Zn237 1.899 . S
O236 C244 1.284 . S
Zn237 O236 1.899 . S
Zn237 O238 2.032 . S
Zn237 O241 2.086 . S
Zn237 O246 1.977 . S
O238 Zn237 2.032 . S
O238 C242 1.278 . S
C239 O240 1.203 . S
C239 O246 1.267 . S
O240 C239 1.203 . S
O241 C234 1.185 . S
O241 Zn237 2.086 . S
C242 O238 1.278 . S
C242 O243 1.211 . S
O243 C242 1.211 . S
C244 O236 1.284 . S
C244 O245 1.273 . S
O245 C244 1.273 . S
O246 Zn237 1.977 . S
O246 C239 1.267 . S
C247 O248 1.160 . S
C247 O254 1.185 . S
O248 C247 1.160 . S
O249 Zn250 1.899 . S
O249 C257 1.284 . S
Zn250 O249 1.899 . S
Zn250 O251 2.032 . S
Zn250 O254 2.086 . S
Zn250 O259 1.977 . S
O251 Zn250 2.032 . S
O251 C255 1.278 . S
C252 O253 1.203 . S
C252 O259 1.267 . S
O253 C252 1.203 . S
O254 C247 1.185 . S
O254 Zn250 2.086 . S
C255 O251 1.278 . S
C255 O256 1.211 . S
O256 C255 1.211 . S
C257 O249 1.284 . S
C257 O258 1.273 . S
O258 C257 1.273 . S
O259 Zn250 1.977 . S
O259 C252 1.267 . S
C260 O261 1.160 . S
C260 O267 1.185 . S
O261 C260 1.160 . S
O262 Zn263 1.899 . S
O262 C270 1.284 . S
Zn263 O262 1.899 . S
Zn263 O264 2.032 1_554 S
Zn263 O267 2.086 . S
Zn263 O272 1.978 . S
O264 Zn263 2.032 1_556 S
O264 C268 1.278 . S
C265 O266 1.203 . S
C265 O272 1.270 . S
O266 C265 1.203 . S
O267 C260 1.185 . S
O267 Zn263 2.086 . S
C268 O264 1.278 . S
C268 O269 1.211 . S
O269 C268 1.211 . S
C270 O262 1.284 . S
C270 O271 1.273 . S
O271 C270 1.273 . S
O272 Zn263 1.978 . S
O272 C265 1.270 . S
C273 O274 1.160 . S
C273 O280 1.185 . S
O274 C273 1.160 . S
O275 Zn276 1.899 . S
O275 C283 1.284 . S
Zn276 O275 1.899 . S
Zn276 O277 2.032 . S
Zn276 O280 2.086 . S
Zn276 O285 1.977 . S
O277 Zn276 2.032 . S
O277 C281 1.278 . S
C278 O279 1.203 . S
C278 O285 1.267 . S
O279 C278 1.203 . S
O280 C273 1.185 . S
O280 Zn276 2.086 . S
C281 O277 1.278 . S
C281 O282 1.211 . S
O282 C281 1.211 . S
C283 O275 1.284 . S
C283 O284 1.273 . S
O284 C283 1.273 . S
O285 Zn276 1.977 . S
O285 C278 1.267 . S
C286 O287 1.160 . S
C286 O293 1.185 . S
O287 C286 1.160 . S
O288 Zn289 1.899 . S
O288 C296 1.284 . S
Zn289 O288 1.899 . S
Zn289 O290 2.032 . S
Zn289 O293 2.086 . S
Zn289 O298 1.977 . S
O290 Zn289 2.032 . S
O290 C294 1.278 . S
C291 O292 1.203 . S
C291 O298 1.267 . S
O292 C291 1.203 . S
O293 C286 1.185 . S
O293 Zn289 2.086 . S
C294 O290 1.278 . S
C294 O295 1.211 . S
O295 C294 1.211 . S
C296 O288 1.284 . S
C296 O297 1.273 . S
O297 C296 1.273 . S
O298 Zn289 1.977 . S
O298 C291 1.267 . S
C299 O300 1.160 . S
C299 O306 1.185 . S
O300 C299 1.160 . S
O301 Zn302 1.899 . S
O301 C309 1.284 . S
Zn302 O301 1.899 . S
Zn302 O303 2.032 . S
Zn302 O306 2.086 . S
Zn302 O311 1.977 . S
O303 Zn302 2.032 . S
O303 C307 1.278 . S
C304 O305 1.203 . S
C304 O311 1.267 . S
O305 C304 1.203 . S
O306 C299 1.185 . S
O306 Zn302 2.086 . S
C307 O303 1.278 . S
C307 O308 1.211 . S
O308 C307 1.211 . S
C309 O301 1.284 . S
C309 O310 1.273 . S
O310 C309 1.273 . S
O311 Zn302 1.977 . S
O311 C304 1.267 . S
Eu312 C321 2.828 . S
Eu312 O323 2.392 . S
Eu312 O325 2.418 . S
Eu312 O330 2.373 . S
Eu312 O333 2.488 . S
Eu312 O334 2.471 1_554 S
Eu312 O335 2.349 1_554 S
Eu313 O322 2.373 1_565 S
Eu313 O326 2.488 1_554 S
Eu313 O327 2.471 . S
Eu313 O328 2.349 1_565 S
Eu313 O331 2.392 1_564 S
Eu313 O332 2.418 1_554 S
Eu313 C342 2.828 . S
C314 O332 1.244 1_545 S
C314 O335 1.265 . S
C315 C316 1.392 . S
C315 C319 1.366 1_556 S
C315 C321 1.499 1_556 S
C316 C315 1.392 . S
C316 C318 1.369 . S
C316 H344 0.930 . S
C317 C319 1.383 . S
C317 C320 1.382 1_554 S
C317 H345 0.930 . S
C318 C316 1.369 . S
C318 C320 1.392 . S
C318 H346 0.930 . S
C319 C315 1.366 1_554 S
C319 C317 1.383 . S
C319 H347 0.931 . S
C320 C317 1.382 1_556 S
C320 C318 1.392 . S
C321 Eu312 2.828 . S
C321 C315 1.499 1_554 S
C321 O333 1.249 . S
C321 O334 1.244 1_554 S
O322 Eu313 2.373 1_545 S
O322 C324 1.258 . S
O323 Eu312 2.392 . S
O323 C324 1.242 . S
C324 O322 1.258 . S
C324 O323 1.242 . S
O325 Eu312 2.418 . S
O325 C329 1.244 . S
O326 Eu313 2.488 1_556 S
O326 C342 1.249 1_556 S
O327 Eu313 2.471 . S
O327 C342 1.244 . S
O328 Eu313 2.349 1_545 S
O328 C329 1.265 . S
C329 O325 1.244 . S
C329 O328 1.265 . S
O330 Eu312 2.373 . S
O330 C343 1.254 1_554 S
O331 Eu313 2.392 1_546 S
O331 C343 1.242 . S
O332 Eu313 2.418 1_556 S
O332 C314 1.244 1_565 S
O333 Eu312 2.488 . S
O333 C321 1.249 . S
O334 Eu312 2.471 1_556 S
O334 C321 1.244 1_556 S
O335 Eu312 2.349 1_556 S
O335 C314 1.265 . S
C336 C337 1.379 . S
C336 C340 1.373 . S
C336 C342 1.505 . S
C337 C336 1.379 . S
C337 C339 1.369 . S
C337 H348 0.930 . S
C338 C340 1.383 . S
C338 C341 1.382 . S
C338 H349 0.930 . S
C339 C337 1.369 . S
C339 C341 1.392 . S
C339 H350 0.930 . S
C340 C336 1.373 . S
C340 C338 1.383 . S
C340 H351 0.931 1_554 S
C341 C338 1.382 . S
C341 C339 1.392 . S
C342 Eu313 2.828 . S
C342 O326 1.249 1_554 S
C342 O327 1.244 . S
C342 C336 1.505 . S
C343 O330 1.254 1_556 S
C343 O331 1.242 . S
H344 C316 0.930 . S
H345 C317 0.930 . S
H346 C318 0.930 . S
H347 C319 0.931 . S
H348 C337 0.930 . S
H349 C338 0.930 . S
H350 C339 0.930 . S
H351 C340 0.931 1_556 S
Eu352 C361 2.828 . S
Eu352 O363 2.392 . S
Eu352 O365 2.418 . S
Eu352 O370 2.373 . S
Eu352 O373 2.488 . S
Eu352 O374 2.471 . S
Eu352 O375 2.349 . S
Eu353 O362 2.373 . S
Eu353 O366 2.488 . S
Eu353 O367 2.471 . S
Eu353 O368 2.349 . S
Eu353 O371 2.392 . S
Eu353 O372 2.418 . S
Eu353 C382 2.828 . S
C354 O372 1.244 . S
C354 O375 1.265 . S
C355 C356 1.379 . S
C355 C359 1.373 . S
C355 C361 1.505 . S
C356 C355 1.379 . S
C356 C358 1.369 . S
C356 H384 0.930 . S
C357 C359 1.383 . S
C357 C360 1.382 . S
C357 H385 0.930 . S
C358 C356 1.369 . S
C358 C360 1.392 . S
C358 H386 0.930 . S
C359 C355 1.373 . S
C359 C357 1.383 . S
C359 H387 0.931 . S
C360 C357 1.382 . S
C360 C358 1.392 . S
C361 Eu352 2.828 . S
C361 C355 1.505 . S
C361 O373 1.249 . S
C361 O374 1.244 . S
O362 Eu353 2.373 . S
O362 C364 1.258 . S
O363 Eu352 2.392 . S
O363 C364 1.242 . S
C364 O362 1.258 . S
C364 O363 1.242 . S
O365 Eu352 2.418 . S
O365 C369 1.244 . S
O366 Eu353 2.488 . S
O366 C382 1.249 . S
O367 Eu353 2.471 . S
O367 C382 1.244 . S
O368 Eu353 2.349 . S
O368 C369 1.265 . S
C369 O365 1.244 . S
C369 O368 1.265 . S
O370 Eu352 2.373 . S
O370 C383 1.258 . S
O371 Eu353 2.392 . S
O371 C383 1.242 . S
O372 Eu353 2.418 . S
O372 C354 1.244 . S
O373 Eu352 2.488 . S
O373 C361 1.249 . S
O374 Eu352 2.471 . S
O374 C361 1.244 . S
O375 Eu352 2.349 . S
O375 C354 1.265 . S
C376 C377 1.379 . S
C376 C380 1.373 . S
C376 C382 1.505 . S
C377 C376 1.379 . S
C377 C379 1.369 . S
C377 H388 0.930 . S
C378 C380 1.383 . S
C378 C381 1.382 . S
C378 H389 0.930 . S
C379 C377 1.369 . S
C379 C381 1.392 . S
C379 H390 0.930 . S
C380 C376 1.373 . S
C380 C378 1.383 . S
C380 H391 0.931 . S
C381 C378 1.382 . S
C381 C379 1.392 . S
C382 Eu353 2.828 . S
C382 O366 1.249 . S
C382 O367 1.244 . S
C382 C376 1.505 . S
C383 O370 1.258 . S
C383 O371 1.242 . S
H384 C356 0.930 . S
H385 C357 0.930 . S
H386 C358 0.930 . S
H387 C359 0.931 . S
H388 C377 0.930 . S
H389 C378 0.930 . S
H390 C379 0.930 . S
H391 C380 0.931 . S
Eu392 C401 2.828 . S
Eu392 O403 2.392 . S
Eu392 O405 2.418 . S
Eu392 O410 2.373 . S
Eu392 O413 2.488 . S
Eu392 O414 2.471 . S
Eu392 O415 2.349 . S
Eu393 O402 2.373 . S
Eu393 O406 2.488 . S
Eu393 O407 2.471 . S
Eu393 O408 2.349 . S
Eu393 O411 2.392 1_545 S
Eu393 O412 2.418 . S
Eu393 C422 2.828 . S
C394 O412 1.244 . S
C394 O415 1.265 . S
C395 C396 1.411 . S
C395 C399 1.374 . S
C395 C401 1.474 1_565 S
C396 C395 1.411 . S
C396 C398 1.369 . S
C396 H424 0.930 . S
C397 C399 1.383 . S
C397 C400 1.382 . S
C397 H425 0.930 . S
C398 C396 1.369 . S
C398 C400 1.392 . S
C398 H426 0.930 . S
C399 C395 1.374 . S
C399 C397 1.383 . S
C399 H427 0.931 1_565 S
C400 C397 1.382 . S
C400 C398 1.392 . S
C401 Eu392 2.828 . S
C401 C395 1.474 1_545 S
C401 O413 1.249 . S
C401 O414 1.244 . S
O402 Eu393 2.373 . S
O402 C404 1.258 . S
O403 Eu392 2.392 . S
O403 C404 1.242 . S
C404 O402 1.258 . S
C404 O403 1.242 . S
O405 Eu392 2.418 . S
O405 C409 1.244 . S
O406 Eu393 2.488 . S
O406 C422 1.249 . S
O407 Eu393 2.471 . S
O407 C422 1.244 . S
O408 Eu393 2.349 . S
O408 C409 1.265 . S
C409 O405 1.244 . S
C409 O408 1.265 . S
O410 Eu392 2.373 . S
O410 C423 1.258 1_545 S
O411 Eu393 2.392 1_565 S
O411 C423 1.242 . S
O412 Eu393 2.418 . S
O412 C394 1.244 . S
O413 Eu392 2.488 . S
O413 C401 1.249 . S
O414 Eu392 2.471 . S
O414 C401 1.244 . S
O415 Eu392 2.349 . S
O415 C394 1.265 . S
C416 C417 1.379 . S
C416 C420 1.373 . S
C416 C422 1.505 . S
C417 C416 1.379 . S
C417 C419 1.369 . S
C417 H428 0.930 . S
C418 C420 1.383 . S
C418 C421 1.382 . S
C418 H429 0.930 . S
C419 C417 1.369 . S
C419 C421 1.392 . S
C419 H430 0.930 . S
C420 C416 1.373 . S
C420 C418 1.383 . S
C420 H431 0.931 . S
C421 C418 1.382 . S
C421 C419 1.392 . S
C422 Eu393 2.828 . S
C422 O406 1.249 . S
C422 O407 1.244 . S
C422 C416 1.505 . S
C423 O410 1.258 1_565 S
C423 O411 1.242 . S
H424 C396 0.930 . S
H425 C397 0.930 . S
H426 C398 0.930 . S
H427 C399 0.931 1_545 S
H428 C417 0.930 . S
H429 C418 0.930 . S
H430 C419 0.930 . S
H431 C420 0.931 . S
Eu432 C441 2.828 . S
Eu432 O443 2.392 . S
Eu432 O445 2.418 . S
Eu432 O450 2.373 . S
Eu432 O453 2.488 . S
Eu432 O454 2.471 . S
Eu432 O455 2.349 . S
Eu433 O442 2.373 . S
Eu433 O446 2.488 . S
Eu433 O447 2.471 . S
Eu433 O448 2.349 . S
Eu433 O451 2.392 . S
Eu433 O452 2.418 . S
Eu433 C462 2.828 . S
C434 O452 1.244 . S
C434 O455 1.265 . S
C435 C436 1.379 . S
C435 C439 1.373 . S
C435 C441 1.505 . S
C436 C435 1.379 . S
C436 C438 1.369 . S
C436 H464 0.930 . S
C437 C439 1.383 . S
C437 C440 1.382 . S
C437 H465 0.930 . S
C438 C436 1.369 . S
C438 C440 1.392 . S
C438 H466 0.930 . S
C439 C435 1.373 . S
C439 C437 1.383 . S
C439 H467 0.931 . S
C440 C437 1.382 . S
C440 C438 1.392 . S
C441 Eu432 2.828 . S
C441 C435 1.505 . S
C441 O453 1.249 . S
C441 O454 1.244 . S
O442 Eu433 2.373 . S
O442 C444 1.258 . S
O443 Eu432 2.392 . S
O443 C444 1.242 . S
C444 O442 1.258 . S
C444 O443 1.242 . S
O445 Eu432 2.418 . S
O445 C449 1.244 . S
O446 Eu433 2.488 . S
O446 C462 1.249 . S
O447 Eu433 2.471 . S
O447 C462 1.244 . S
O448 Eu433 2.349 . S
O448 C449 1.265 . S
C449 O445 1.244 . S
C449 O448 1.265 . S
O450 Eu432 2.373 . S
O450 C463 1.258 . S
O451 Eu433 2.392 . S
O451 C463 1.242 . S
O452 Eu433 2.418 . S
O452 C434 1.244 . S
O453 Eu432 2.488 . S
O453 C441 1.249 . S
O454 Eu432 2.471 . S
O454 C441 1.244 . S
O455 Eu432 2.349 . S
O455 C434 1.265 . S
C456 C457 1.379 . S
C456 C460 1.373 . S
C456 C462 1.505 . S
C457 C456 1.379 . S
C457 C459 1.369 . S
C457 H468 0.930 . S
C458 C460 1.383 . S
C458 C461 1.382 . S
C458 H469 0.930 . S
C459 C457 1.369 . S
C459 C461 1.392 . S
C459 H470 0.930 . S
C460 C456 1.373 . S
C460 C458 1.383 . S
C460 H471 0.931 . S
C461 C458 1.382 . S
C461 C459 1.392 . S
C462 Eu433 2.828 . S
C462 O446 1.249 . S
C462 O447 1.244 . S
C462 C456 1.505 . S
C463 O450 1.258 . S
C463 O451 1.242 . S
H464 C436 0.930 . S
H465 C437 0.930 . S
H466 C438 0.930 . S
H467 C439 0.931 . S
H468 C457 0.930 . S
H469 C458 0.930 . S
H470 C459 0.930 . S
H471 C460 0.931 . S
Eu472 C481 2.828 . S
Eu472 O483 2.392 . S
Eu472 O485 2.381 1_455 S
Eu472 O490 2.373 . S
Eu472 O493 2.488 . S
Eu472 O494 2.471 . S
Eu472 O495 2.349 . S
Eu473 O482 2.373 . S
Eu473 O486 2.488 1_545 S
Eu473 O487 2.471 1_545 S
Eu473 O488 2.349 . S
Eu473 O491 2.392 . S
Eu473 O492 2.418 . S
Eu473 C502 2.828 1_545 S
C474 O492 1.244 . S
C474 O495 1.265 . S
C475 C476 1.379 . S
C475 C479 1.373 . S
C475 C481 1.505 . S
C476 C475 1.379 . S
C476 C478 1.369 . S
C476 H504 0.930 . S
C477 C479 1.383 . S
C477 C480 1.382 . S
C477 H505 0.930 1_455 S
C478 C476 1.369 . S
C478 C480 1.392 . S
C478 H506 0.930 . S
C479 C475 1.373 . S
C479 C477 1.383 . S
C479 H507 0.964 . S
C480 C477 1.382 . S
C480 C478 1.392 . S
C481 Eu472 2.828 . S
C481 C475 1.505 . S
C481 O493 1.249 . S
C481 O494 1.244 . S
O482 Eu473 2.373 . S
O482 C484 1.258 . S
O483 Eu472 2.392 . S
O483 C484 1.242 . S
C484 O482 1.258 . S
C484 O483 1.242 . S
O485 Eu472 2.381 1_655 S
O485 C489 1.230 1_655 S
O486 Eu473 2.488 1_565 S
O486 C502 1.249 . S
O487 Eu473 2.471 1_565 S
O487 C502 1.244 . S
O488 Eu473 2.349 . S
O488 C489 1.265 . S
C489 O485 1.230 1_455 S
C489 O488 1.265 . S
O490 Eu472 2.373 . S
O490 C503 1.258 . S
O491 Eu473 2.392 . S
O491 C503 1.242 . S
O492 Eu473 2.418 . S
O492 C474 1.244 . S
O493 Eu472 2.488 . S
O493 C481 1.249 . S
O494 Eu472 2.471 . S
O494 C481 1.244 . S
O495 Eu472 2.349 . S
O495 C474 1.265 . S
C496 C497 1.379 . S
C496 C500 1.373 . S
C496 C502 1.505 . S
C497 C496 1.379 . S
C497 C499 1.369 . S
C497 H508 0.930 . S
C498 C500 1.383 . S
C498 C501 1.382 . S
C498 H509 0.930 . S
C499 C497 1.369 . S
C499 C501 1.392 . S
C499 H510 0.930 . S
C500 C496 1.373 . S
C500 C498 1.383 . S
C500 H511 0.931 . S
C501 C498 1.382 . S
C501 C499 1.392 . S
C502 Eu473 2.828 1_565 S
C502 O486 1.249 . S
C502 O487 1.244 . S
C502 C496 1.505 . S
C503 O490 1.258 . S
C503 O491 1.242 . S
H504 C476 0.930 . S
H505 C477 0.930 1_655 S
H506 C478 0.930 . S
H507 C479 0.964 . S
H508 C497 0.930 . S
H509 C498 0.930 . S
H510 C499 0.930 . S
H511 C500 0.931 . S
Eu512 C521 2.828 . S
Eu512 O523 2.392 . S
Eu512 O525 2.418 . S
Eu512 O530 2.373 . S
Eu512 O533 2.488 . S
Eu512 O534 2.471 . S
Eu512 O535 2.349 . S
Eu513 O522 2.373 . S
Eu513 O526 2.488 . S
Eu513 O527 2.471 . S
Eu513 O528 2.349 . S
Eu513 O531 2.392 . S
Eu513 O532 2.418 . S
Eu513 C542 2.828 . S
C514 O532 1.244 . S
C514 O535 1.265 . S
C515 C516 1.379 . S
C515 C519 1.373 . S
C515 C521 1.505 . S
C516 C515 1.379 . S
C516 C518 1.369 . S
C516 H544 0.930 . S
C517 C519 1.383 . S
C517 C520 1.382 . S
C517 H545 0.930 . S
C518 C516 1.369 . S
C518 C520 1.392 . S
C518 H546 0.930 . S
C519 C515 1.373 . S
C519 C517 1.383 . S
C519 H547 0.931 . S
C520 C517 1.382 . S
C520 C518 1.392 . S
C521 Eu512 2.828 . S
C521 C515 1.505 . S
C521 O533 1.249 . S
C521 O534 1.244 . S
O522 Eu513 2.373 . S
O522 C524 1.258 . S
O523 Eu512 2.392 . S
O523 C524 1.242 . S
C524 O522 1.258 . S
C524 O523 1.242 . S
O525 Eu512 2.418 . S
O525 C529 1.244 . S
O526 Eu513 2.488 . S
O526 C542 1.249 . S
O527 Eu513 2.471 . S
O527 C542 1.244 . S
O528 Eu513 2.349 . S
O528 C529 1.265 . S
C529 O525 1.244 . S
C529 O528 1.265 . S
O530 Eu512 2.373 . S
O530 C543 1.258 . S
O531 Eu513 2.392 . S
O531 C543 1.242 . S
O532 Eu513 2.418 . S
O532 C514 1.244 . S
O533 Eu512 2.488 . S
O533 C521 1.249 . S
O534 Eu512 2.471 . S
O534 C521 1.244 . S
O535 Eu512 2.349 . S
O535 C514 1.265 . S
C536 C537 1.379 . S
C536 C540 1.373 . S
C536 C542 1.505 . S
C537 C536 1.379 . S
C537 C539 1.369 . S
C537 H548 0.930 . S
C538 C540 1.383 . S
C538 C541 1.382 . S
C538 H549 0.930 . S
C539 C537 1.369 . S
C539 C541 1.392 . S
C539 H550 0.930 . S
C540 C536 1.373 . S
C540 C538 1.383 . S
C540 H551 0.931 . S
C541 C538 1.382 . S
C541 C539 1.392 . S
C542 Eu513 2.828 . S
C542 O526 1.249 . S
C542 O527 1.244 . S
C542 C536 1.505 . S
C543 O530 1.258 . S
C543 O531 1.242 . S
H544 C516 0.930 . S
H545 C517 0.930 . S
H546 C518 0.930 . S
H547 C519 0.931 . S
H548 C537 0.930 . S
H549 C538 0.930 . S
H550 C539 0.930 . S
H551 C540 0.931 . S
Eu552 C561 2.828 . S
Eu552 O563 2.392 . S
Eu552 O565 2.418 1_545 S
Eu552 O570 2.373 . S
Eu552 O573 2.488 1_545 S
Eu552 O574 2.471 . S
Eu552 O575 2.349 . S
Eu553 O562 2.371 1_556 S
Eu553 O566 2.488 . S
Eu553 O567 2.471 . S
Eu553 O568 2.349 . S
Eu553 O571 2.392 . S
Eu553 O572 2.418 1_556 S
Eu553 C582 2.828 . S
C554 O572 1.244 . S
C554 O575 1.265 . S
C555 C556 1.379 . S
C555 C559 1.373 1_545 S
C555 C561 1.505 . S
C556 C555 1.379 . S
C556 C558 1.369 . S
C556 H584 0.930 . S
C557 C559 1.383 . S
C557 C560 1.382 . S
C557 H585 0.930 . S
C558 C556 1.369 . S
C558 C560 1.392 1_545 S
C558 H586 0.930 . S
C559 C555 1.373 1_565 S
C559 C557 1.383 . S
C559 H587 0.931 . S
C560 C557 1.382 . S
C560 C558 1.392 1_565 S
C561 Eu552 2.828 . S
C561 C555 1.505 . S
C561 O573 1.249 1_545 S
C561 O574 1.244 . S
O562 Eu553 2.371 1_554 S
O562 C564 1.262 . S
O563 Eu552 2.392 . S
O563 C564 1.242 . S
C564 O562 1.262 . S
C564 O563 1.242 . S
O565 Eu552 2.418 1_565 S
O565 C569 1.244 . S
O566 Eu553 2.488 . S
O566 C582 1.249 . S
O567 Eu553 2.471 . S
O567 C582 1.244 . S
O568 Eu553 2.349 . S
O568 C569 1.265 1_546 S
C569 O565 1.244 . S
C569 O568 1.265 1_564 S
O570 Eu552 2.373 . S
O570 C583 1.258 . S
O571 Eu553 2.392 . S
O571 C583 1.242 1_556 S
O572 Eu553 2.418 1_554 S
O572 C554 1.244 . S
O573 Eu552 2.488 1_565 S
O573 C561 1.249 1_565 S
O574 Eu552 2.471 . S
O574 C561 1.244 . S
O575 Eu552 2.349 . S
O575 C554 1.265 . S
C576 C577 1.379 . S
C576 C580 1.373 . S
C576 C582 1.505 . S
C577 C576 1.379 . S
C577 C579 1.369 . S
C577 H588 0.930 . S
C578 C580 1.383 . S
C578 C581 1.382 . S
C578 H589 0.930 . S
C579 C577 1.369 . S
C579 C581 1.392 . S
C579 H590 0.930 . S
C580 C576 1.373 . S
C580 C578 1.383 . S
C580 H591 0.931 . S
C581 C578 1.382 . S
C581 C579 1.392 . S
C582 Eu553 2.828 . S
C582 O566 1.249 . S
C582 O567 1.244 . S
C582 C576 1.505 . S
C583 O570 1.258 . S
C583 O571 1.242 1_554 S
H584 C556 0.930 . S
H585 C557 0.930 . S
H586 C558 0.930 . S
H587 C559 0.931 . S
H588 C577 0.930 . S
H589 C578 0.930 . S
H590 C579 0.930 . S
H591 C580 0.931 . S
Eu592 C601 2.828 . S
Eu592 O603 2.392 . S
Eu592 O605 2.418 . S
Eu592 O610 2.373 . S
Eu592 O613 2.488 . S
Eu592 O614 2.471 . S
Eu592 O615 2.349 . S
Eu593 O602 2.373 . S
Eu593 O606 2.488 . S
Eu593 O607 2.471 . S
Eu593 O608 2.349 . S
Eu593 O611 2.392 . S
Eu593 O612 2.418 . S
Eu593 C622 2.828 . S
C594 O612 1.244 . S
C594 O615 1.265 . S
C595 C596 1.379 . S
C595 C599 1.373 . S
C595 C601 1.505 . S
C596 C595 1.379 . S
C596 C598 1.369 . S
C596 H624 0.930 . S
C597 C599 1.383 . S
C597 C600 1.382 . S
C597 H625 0.930 . S
C598 C596 1.369 . S
C598 C600 1.392 . S
C598 H626 0.930 . S
C599 C595 1.373 . S
C599 C597 1.383 . S
C599 H627 0.931 . S
C600 C597 1.382 . S
C600 C598 1.392 . S
C601 Eu592 2.828 . S
C601 C595 1.505 . S
C601 O613 1.249 . S
C601 O614 1.244 . S
O602 Eu593 2.373 . S
O602 C604 1.258 . S
O603 Eu592 2.392 . S
O603 C604 1.242 . S
C604 O602 1.258 . S
C604 O603 1.242 . S
O605 Eu592 2.418 . S
O605 C609 1.244 . S
O606 Eu593 2.488 . S
O606 C622 1.249 . S
O607 Eu593 2.471 . S
O607 C622 1.244 . S
O608 Eu593 2.349 . S
O608 C609 1.265 . S
C609 O605 1.244 . S
C609 O608 1.265 . S
O610 Eu592 2.373 . S
O610 C623 1.258 . S
O611 Eu593 2.392 . S
O611 C623 1.242 . S
O612 Eu593 2.418 . S
O612 C594 1.244 . S
O613 Eu592 2.488 . S
O613 C601 1.249 . S
O614 Eu592 2.471 . S
O614 C601 1.244 . S
O615 Eu592 2.349 . S
O615 C594 1.265 . S
C616 C617 1.379 . S
C616 C620 1.373 . S
C616 C622 1.505 . S
C617 C616 1.379 . S
C617 C619 1.369 . S
C617 H628 0.930 . S
C618 C620 1.383 . S
C618 C621 1.382 . S
C618 H629 0.930 . S
C619 C617 1.369 . S
C619 C621 1.392 . S
C619 H630 0.930 . S
C620 C616 1.373 . S
C620 C618 1.383 . S
C620 H631 0.931 . S
C621 C618 1.382 . S
C621 C619 1.392 . S
C622 Eu593 2.828 . S
C622 O606 1.249 . S
C622 O607 1.244 . S
C622 C616 1.505 . S
C623 O610 1.258 . S
C623 O611 1.242 . S
H624 C596 0.930 . S
H625 C597 0.930 . S
H626 C598 0.930 . S
H627 C599 0.931 . S
H628 C617 0.930 . S
H629 C618 0.930 . S
H630 C619 0.930 . S
H631 C620 0.931 . S
Eu632 C641 2.828 . S
Eu632 O643 2.392 . S
Eu632 O645 2.418 . S
Eu632 O650 2.373 1_554 S
Eu632 O653 2.488 . S
Eu632 O654 2.471 . S
Eu632 O655 2.349 . S
Eu633 O642 2.373 . S
Eu633 O646 2.488 . S
Eu633 O647 2.471 . S
Eu633 O648 2.349 . S
Eu633 O651 2.392 1_554 S
Eu633 O652 2.418 . S
Eu633 C662 2.828 . S
C634 O652 1.244 . S
C634 O655 1.265 . S
C635 C636 1.413 . S
C635 C639 1.368 1_556 S
C635 C641 1.478 1_556 S
C636 C635 1.413 . S
C636 C638 1.369 . S
C636 H664 0.930 . S
C637 C639 1.383 1_556 S
C637 C640 1.382 . S
C637 H665 0.930 . S
C638 C636 1.369 . S
C638 C640 1.392 . S
C638 H666 0.930 . S
C639 C635 1.368 1_554 S
C639 C637 1.383 1_554 S
C639 H667 0.931 . S
C640 C637 1.382 . S
C640 C638 1.392 . S
C641 Eu632 2.828 . S
C641 C635 1.478 1_554 S
C641 O653 1.249 . S
C641 O654 1.244 . S
O642 Eu633 2.373 . S
O642 C644 1.258 . S
O643 Eu632 2.392 . S
O643 C644 1.242 . S
C644 O642 1.258 . S
C644 O643 1.242 . S
O645 Eu632 2.418 . S
O645 C649 1.244 . S
O646 Eu633 2.488 . S
O646 C662 1.249 . S
O647 Eu633 2.471 . S
O647 C662 1.244 . S
O648 Eu633 2.349 . S
O648 C649 1.265 . S
C649 O645 1.244 . S
C649 O648 1.265 . S
O650 Eu632 2.373 1_556 S
O650 C663 1.258 . S
O651 Eu633 2.392 1_556 S
O651 C663 1.242 . S
O652 Eu633 2.418 . S
O652 C634 1.244 . S
O653 Eu632 2.488 . S
O653 C641 1.249 . S
O654 Eu632 2.471 . S
O654 C641 1.244 . S
O655 Eu632 2.349 . S
O655 C634 1.265 . S
C656 C657 1.379 . S
C656 C660 1.373 . S
C656 C662 1.505 . S
C657 C656 1.379 . S
C657 C659 1.369 . S
C657 H668 0.930 . S
C658 C660 1.383 . S
C658 C661 1.382 . S
C658 H669 0.930 . S
C659 C657 1.369 . S
C659 C661 1.392 . S
C659 H670 0.930 . S
C660 C656 1.373 . S
C660 C658 1.383 . S
C660 H671 0.931 . S
C661 C658 1.382 . S
C661 C659 1.392 . S
C662 Eu633 2.828 . S
C662 O646 1.249 . S
C662 O647 1.244 . S
C662 C656 1.505 . S
C663 O650 1.258 . S
C663 O651 1.242 . S
H664 C636 0.930 . S
H665 C637 0.930 . S
H666 C638 0.930 . S
H667 C639 0.931 . S
H668 C657 0.930 . S
H669 C658 0.930 . S
H670 C659 0.930 . S
H671 C660 0.931 . S
Eu672 C681 2.828 . S
Eu672 O683 2.392 . S
Eu672 O685 2.418 . S
Eu672 O690 2.373 . S
Eu672 O693 2.488 . S
Eu672 O694 2.471 . S
Eu672 O695 2.349 . S
Eu673 O682 2.373 . S
Eu673 O686 2.488 . S
Eu673 O687 2.471 . S
Eu673 O688 2.349 . S
Eu673 O691 2.392 . S
Eu673 O692 2.418 . S
Eu673 C702 2.828 . S
C674 O692 1.244 . S
C674 O695 1.265 . S
C675 C676 1.379 . S
C675 C679 1.373 . S
C675 C681 1.505 . S
C676 C675 1.379 . S
C676 C678 1.369 . S
C676 H704 0.930 . S
C677 C679 1.383 . S
C677 C680 1.382 . S
C677 H705 0.930 . S
C678 C676 1.369 . S
C678 C680 1.392 . S
C678 H706 0.930 . S
C679 C675 1.373 . S
C679 C677 1.383 . S
C679 H707 0.931 . S
C680 C677 1.382 . S
C680 C678 1.392 . S
C681 Eu672 2.828 . S
C681 C675 1.505 . S
C681 O693 1.249 . S
C681 O694 1.244 . S
O682 Eu673 2.373 . S
O682 C684 1.258 . S
O683 Eu672 2.392 . S
O683 C684 1.242 . S
C684 O682 1.258 . S
C684 O683 1.242 . S
O685 Eu672 2.418 . S
O685 C689 1.244 . S
O686 Eu673 2.488 . S
O686 C702 1.249 . S
O687 Eu673 2.471 . S
O687 C702 1.244 . S
O688 Eu673 2.349 . S
O688 C689 1.265 . S
C689 O685 1.244 . S
C689 O688 1.265 . S
O690 Eu672 2.373 . S
O690 C703 1.258 . S
O691 Eu673 2.392 . S
O691 C703 1.242 . S
O692 Eu673 2.418 . S
O692 C674 1.244 . S
O693 Eu672 2.488 . S
O693 C681 1.249 . S
O694 Eu672 2.471 . S
O694 C681 1.244 . S
O695 Eu672 2.349 . S
O695 C674 1.265 . S
C696 C697 1.379 . S
C696 C700 1.373 . S
C696 C702 1.505 . S
C697 C696 1.379 . S
C697 C699 1.369 . S
C697 H708 0.930 . S
C698 C700 1.383 . S
C698 C701 1.382 . S
C698 H709 0.930 . S
C699 C697 1.369 . S
C699 C701 1.392 . S
C699 H710 0.930 . S
C700 C696 1.373 . S
C700 C698 1.383 . S
C700 H711 0.931 . S
C701 C698 1.382 . S
C701 C699 1.392 . S
C702 Eu673 2.828 . S
C702 O686 1.249 . S
C702 O687 1.244 . S
C702 C696 1.505 . S
C703 O690 1.258 . S
C703 O691 1.242 . S
H704 C676 0.930 . S
H705 C677 0.930 . S
H706 C678 0.930 . S
H707 C679 0.931 . S
H708 C697 0.930 . S
H709 C698 0.930 . S
H710 C699 0.930 . S
H711 C700 0.931 . S
Eu712 C721 2.828 . S
Eu712 O723 2.392 . S
Eu712 O725 2.418 . S
Eu712 O730 2.373 . S
Eu712 O733 2.488 . S
Eu712 O734 2.471 . S
Eu712 O735 2.349 . S
Eu713 O722 2.373 . S
Eu713 O726 2.488 . S
Eu713 O727 2.471 . S
Eu713 O728 2.349 . S
Eu713 O731 2.392 . S
Eu713 O732 2.418 . S
Eu713 C742 2.828 . S
C714 O732 1.244 . S
C714 O735 1.265 . S
C715 C716 1.351 1_455 S
C715 C719 1.373 . S
C715 C721 1.505 . S
C716 C715 1.351 1_655 S
C716 C718 1.391 . S
C716 H744 0.937 . S
C717 C719 1.394 . S
C717 C720 1.369 1_455 S
C717 H745 0.925 . S
C718 C716 1.391 . S
C718 C720 1.392 . S
C718 H746 0.930 . S
C719 C715 1.373 . S
C719 C717 1.394 . S
C719 H747 0.931 . S
C720 C717 1.369 1_655 S
C720 C718 1.392 . S
C721 Eu712 2.828 . S
C721 C715 1.505 . S
C721 O733 1.249 . S
C721 O734 1.244 . S
O722 Eu713 2.373 . S
O722 C724 1.258 . S
O723 Eu712 2.392 . S
O723 C724 1.242 . S
C724 O722 1.258 . S
C724 O723 1.242 . S
O725 Eu712 2.418 . S
O725 C729 1.244 . S
O726 Eu713 2.488 . S
O726 C742 1.249 . S
O727 Eu713 2.471 . S
O727 C742 1.244 . S
O728 Eu713 2.349 . S
O728 C729 1.265 . S
C729 O725 1.244 . S
C729 O728 1.265 . S
O730 Eu712 2.373 . S
O730 C743 1.258 . S
O731 Eu713 2.392 . S
O731 C743 1.242 . S
O732 Eu713 2.418 . S
O732 C714 1.244 . S
O733 Eu712 2.488 . S
O733 C721 1.249 . S
O734 Eu712 2.471 . S
O734 C721 1.244 . S
O735 Eu712 2.349 . S
O735 C714 1.265 . S
C736 C737 1.379 . S
C736 C740 1.373 . S
C736 C742 1.505 . S
C737 C736 1.379 . S
C737 C739 1.369 . S
C737 H748 0.930 . S
C738 C740 1.383 . S
C738 C741 1.382 . S
C738 H749 0.930 . S
C739 C737 1.369 . S
C739 C741 1.392 . S
C739 H750 0.930 . S
C740 C736 1.373 . S
C740 C738 1.383 . S
C740 H751 0.931 . S
C741 C738 1.382 . S
C741 C739 1.392 . S
C742 Eu713 2.828 . S
C742 O726 1.249 . S
C742 O727 1.244 . S
C742 C736 1.505 . S
C743 O730 1.258 . S
C743 O731 1.242 . S
H744 C716 0.937 . S
H745 C717 0.925 . S
H746 C718 0.930 . S
H747 C719 0.931 . S
H748 C737 0.930 . S
H749 C738 0.930 . S
H750 C739 0.930 . S
H751 C740 0.931 . S
Eu752 C761 2.828 . S
Eu752 O763 2.392 . S
Eu752 O765 2.418 . S
Eu752 O770 2.373 . S
Eu752 O773 2.488 . S
Eu752 O774 2.471 . S
Eu752 O775 2.349 . S
Eu753 O762 2.373 . S
Eu753 O766 2.488 . S
Eu753 O767 2.471 . S
Eu753 O768 2.349 . S
Eu753 O771 2.392 . S
Eu753 O772 2.418 . S
Eu753 C782 2.828 . S
C754 O772 1.244 . S
C754 O775 1.265 . S
C755 C756 1.379 . S
C755 C759 1.373 . S
C755 C761 1.505 . S
C756 C755 1.379 . S
C756 C758 1.369 . S
C756 H784 0.930 . S
C757 C759 1.383 . S
C757 C760 1.382 . S
C757 H785 0.930 . S
C758 C756 1.369 . S
C758 C760 1.392 . S
C758 H786 0.930 . S
C759 C755 1.373 . S
C759 C757 1.383 . S
C759 H787 0.931 . S
C760 C757 1.382 . S
C760 C758 1.392 . S
C761 Eu752 2.828 . S
C761 C755 1.505 . S
C761 O773 1.249 . S
C761 O774 1.244 . S
O762 Eu753 2.373 . S
O762 C764 1.258 . S
O763 Eu752 2.392 . S
O763 C764 1.242 . S
C764 O762 1.258 . S
C764 O763 1.242 . S
O765 Eu752 2.418 . S
O765 C769 1.244 . S
O766 Eu753 2.488 . S
O766 C782 1.249 . S
O767 Eu753 2.471 . S
O767 C782 1.244 . S
O768 Eu753 2.349 . S
O768 C769 1.265 . S
C769 O765 1.244 . S
C769 O768 1.265 . S
O770 Eu752 2.373 . S
O770 C783 1.258 . S
O771 Eu753 2.392 . S
O771 C783 1.242 . S
O772 Eu753 2.418 . S
O772 C754 1.244 . S
O773 Eu752 2.488 . S
O773 C761 1.249 . S
O774 Eu752 2.471 . S
O774 C761 1.244 . S
O775 Eu752 2.349 . S
O775 C754 1.265 . S
C776 C777 1.379 . S
C776 C780 1.373 . S
C776 C782 1.505 . S
C777 C776 1.379 . S
C777 C779 1.369 . S
C777 H788 0.930 . S
C778 C780 1.383 . S
C778 C781 1.382 . S
C778 H789 0.930 . S
C779 C777 1.369 . S
C779 C781 1.392 . S
C779 H790 0.930 . S
C780 C776 1.373 . S
C780 C778 1.383 . S
C780 H791 0.931 . S
C781 C778 1.382 . S
C781 C779 1.392 . S
C782 Eu753 2.828 . S
C782 O766 1.249 . S
C782 O767 1.244 . S
C782 C776 1.505 . S
C783 O770 1.258 . S
C783 O771 1.242 . S
H784 C756 0.930 . S
H785 C757 0.930 . S
H786 C758 0.930 . S
H787 C759 0.931 . S
H788 C777 0.930 . S
H789 C778 0.930 . S
H790 C779 0.930 . S
H791 C780 0.931 . S
Eu792 C801 2.828 . S
Eu792 O803 2.392 . S
Eu792 O805 2.418 . S
Eu792 O810 2.373 . S
Eu792 O813 2.488 . S
Eu792 O814 2.471 . S
Eu792 O815 2.349 . S
Eu793 O802 2.373 . S
Eu793 O806 2.488 . S
Eu793 O807 2.471 . S
Eu793 O808 2.349 . S
Eu793 O811 2.392 . S
Eu793 O812 2.418 . S
Eu793 C822 2.828 . S
C794 O812 1.244 . S
C794 O815 1.265 . S
C795 C796 1.379 . S
C795 C799 1.373 . S
C795 C801 1.505 . S
C796 C795 1.379 . S
C796 C798 1.369 . S
C796 H824 0.930 . S
C797 C799 1.383 . S
C797 C800 1.382 . S
C797 H825 0.930 . S
C798 C796 1.369 . S
C798 C800 1.392 . S
C798 H826 0.930 . S
C799 C795 1.373 . S
C799 C797 1.383 . S
C799 H827 0.931 . S
C800 C797 1.382 . S
C800 C798 1.392 . S
C801 Eu792 2.828 . S
C801 C795 1.505 . S
C801 O813 1.249 . S
C801 O814 1.244 . S
O802 Eu793 2.373 . S
O802 C804 1.258 . S
O803 Eu792 2.392 . S
O803 C804 1.242 . S
C804 O802 1.258 . S
C804 O803 1.242 . S
O805 Eu792 2.418 . S
O805 C809 1.244 . S
O806 Eu793 2.488 . S
O806 C822 1.249 . S
O807 Eu793 2.471 . S
O807 C822 1.244 . S
O808 Eu793 2.349 . S
O808 C809 1.265 . S
C809 O805 1.244 . S
C809 O808 1.265 . S
O810 Eu792 2.373 . S
O810 C823 1.258 . S
O811 Eu793 2.392 . S
O811 C823 1.242 . S
O812 Eu793 2.418 . S
O812 C794 1.244 . S
O813 Eu792 2.488 . S
O813 C801 1.249 . S
O814 Eu792 2.471 . S
O814 C801 1.244 . S
O815 Eu792 2.349 . S
O815 C794 1.265 . S
C816 C817 1.379 . S
C816 C820 1.373 . S
C816 C822 1.505 . S
C817 C816 1.379 . S
C817 C819 1.369 . S
C817 H828 0.930 . S
C818 C820 1.383 . S
C818 C821 1.382 . S
C818 H829 0.930 . S
C819 C817 1.369 . S
C819 C821 1.392 . S
C819 H830 0.930 . S
C820 C816 1.373 . S
C820 C818 1.383 . S
C820 H831 0.931 . S
C821 C818 1.382 . S
C821 C819 1.392 . S
C822 Eu793 2.828 . S
C822 O806 1.249 . S
C822 O807 1.244 . S
C822 C816 1.505 . S
C823 O810 1.258 . S
C823 O811 1.242 . S
H824 C796 0.930 . S
H825 C797 0.930 . S
H826 C798 0.930 . S
H827 C799 0.931 . S
H828 C817 0.930 . S
H829 C818 0.930 . S
H830 C819 0.930 . S
H831 C820 0.931 . S
Eu832 C841 2.828 . S
Eu832 O843 2.392 . S
Eu832 O845 2.418 . S
Eu832 O850 2.373 . S
Eu832 O853 2.488 . S
Eu832 O854 2.471 . S
Eu832 O855 2.349 . S
Eu833 O842 2.373 . S
Eu833 O846 2.488 . S
Eu833 O847 2.471 . S
Eu833 O848 2.349 . S
Eu833 O851 2.392 . S
Eu833 O852 2.418 . S
Eu833 C862 2.828 . S
C834 O852 1.244 . S
C834 O855 1.265 . S
C835 C836 1.379 . S
C835 C839 1.373 . S
C835 C841 1.505 . S
C836 C835 1.379 . S
C836 C838 1.369 . S
C836 H864 0.930 . S
C837 C839 1.383 . S
C837 C840 1.382 . S
C837 H865 0.930 . S
C838 C836 1.369 . S
C838 C840 1.392 . S
C838 H866 0.930 . S
C839 C835 1.373 . S
C839 C837 1.383 . S
C839 H867 0.931 . S
C840 C837 1.382 . S
C840 C838 1.392 . S
C841 Eu832 2.828 . S
C841 C835 1.505 . S
C841 O853 1.249 . S
C841 O854 1.244 . S
O842 Eu833 2.373 . S
O842 C844 1.258 . S
O843 Eu832 2.392 . S
O843 C844 1.242 . S
C844 O842 1.258 . S
C844 O843 1.242 . S
O845 Eu832 2.418 . S
O845 C849 1.244 . S
O846 Eu833 2.488 . S
O846 C862 1.249 . S
O847 Eu833 2.471 . S
O847 C862 1.244 . S
O848 Eu833 2.349 . S
O848 C849 1.265 . S
C849 O845 1.244 . S
C849 O848 1.265 . S
O850 Eu832 2.373 . S
O850 C863 1.258 . S
O851 Eu833 2.392 . S
O851 C863 1.242 . S
O852 Eu833 2.418 . S
O852 C834 1.244 . S
O853 Eu832 2.488 . S
O853 C841 1.249 . S
O854 Eu832 2.471 . S
O854 C841 1.244 . S
O855 Eu832 2.349 . S
O855 C834 1.265 . S
C856 C857 1.379 . S
C856 C860 1.373 . S
C856 C862 1.505 . S
C857 C856 1.379 . S
C857 C859 1.369 . S
C857 H868 0.930 . S
C858 C860 1.383 . S
C858 C861 1.382 . S
C858 H869 0.930 . S
C859 C857 1.369 . S
C859 C861 1.392 . S
C859 H870 0.930 . S
C860 C856 1.373 . S
C860 C858 1.383 . S
C860 H871 0.931 . S
C861 C858 1.382 . S
C861 C859 1.392 . S
C862 Eu833 2.828 . S
C862 O846 1.249 . S
C862 O847 1.244 . S
C862 C856 1.505 . S
C863 O850 1.258 . S
C863 O851 1.242 . S
H864 C836 0.930 . S
H865 C837 0.930 . S
H866 C838 0.930 . S
H867 C839 0.931 . S
H868 C857 0.930 . S
H869 C858 0.930 . S
H870 C859 0.930 . S
H871 C860 0.931 . S
Eu872 C881 2.828 . S
Eu872 O883 2.392 . S
Eu872 O885 2.418 . S
Eu872 O890 2.373 . S
Eu872 O893 2.488 . S
Eu872 O894 2.471 . S
Eu872 O895 2.349 . S
Eu873 O882 2.373 . S
Eu873 O886 2.488 . S
Eu873 O887 2.471 . S
Eu873 O888 2.349 . S
Eu873 O891 2.392 . S
Eu873 O892 2.418 . S
Eu873 C902 2.828 . S
C874 O892 1.244 . S
C874 O895 1.265 . S
C875 C876 1.379 . S
C875 C879 1.373 . S
C875 C881 1.505 . S
C876 C875 1.379 . S
C876 C878 1.369 . S
C876 H904 0.930 . S
C877 C879 1.383 . S
C877 C880 1.382 . S
C877 H905 0.930 . S
C878 C876 1.369 . S
C878 C880 1.392 . S
C878 H906 0.930 . S
C879 C875 1.373 . S
C879 C877 1.383 . S
C879 H907 0.931 . S
C880 C877 1.382 . S
C880 C878 1.392 . S
C881 Eu872 2.828 . S
C881 C875 1.505 . S
C881 O893 1.249 . S
C881 O894 1.244 . S
O882 Eu873 2.373 . S
O882 C884 1.258 . S
O883 Eu872 2.392 . S
O883 C884 1.242 . S
C884 O882 1.258 . S
C884 O883 1.242 . S
O885 Eu872 2.418 . S
O885 C889 1.244 . S
O886 Eu873 2.488 . S
O886 C902 1.249 . S
O887 Eu873 2.471 . S
O887 C902 1.244 . S
O888 Eu873 2.349 . S
O888 C889 1.265 . S
C889 O885 1.244 . S
C889 O888 1.265 . S
O890 Eu872 2.373 . S
O890 C903 1.258 . S
O891 Eu873 2.392 . S
O891 C903 1.242 . S
O892 Eu873 2.418 . S
O892 C874 1.244 . S
O893 Eu872 2.488 . S
O893 C881 1.249 . S
O894 Eu872 2.471 . S
O894 C881 1.244 . S
O895 Eu872 2.349 . S
O895 C874 1.265 . S
C896 C897 1.379 . S
C896 C900 1.373 . S
C896 C902 1.505 . S
C897 C896 1.379 . S
C897 C899 1.369 . S
C897 H908 0.930 . S
C898 C900 1.383 . S
C898 C901 1.382 . S
C898 H909 0.930 . S
C899 C897 1.369 . S
C899 C901 1.392 . S
C899 H910 0.930 . S
C900 C896 1.373 . S
C900 C898 1.383 . S
C900 H911 0.931 . S
C901 C898 1.382 . S
C901 C899 1.392 . S
C902 Eu873 2.828 . S
C902 O886 1.249 . S
C902 O887 1.244 . S
C902 C896 1.505 . S
C903 O890 1.258 . S
C903 O891 1.242 . S
H904 C876 0.930 . S
H905 C877 0.930 . S
H906 C878 0.930 . S
H907 C879 0.931 . S
H908 C897 0.930 . S
H909 C898 0.930 . S
H910 C899 0.930 . S
H911 C900 0.931 . S
Eu912 C921 2.828 . S
Eu912 O923 2.392 1_556 S
Eu912 O925 2.418 . S
Eu912 O930 2.373 . S
Eu912 O933 2.488 . S
Eu912 O934 2.471 1_556 S
Eu912 O935 2.349 1_556 S
Eu913 O922 2.373 . S
Eu913 O926 2.488 1_455 S
Eu913 O927 2.471 1_455 S
Eu913 O928 2.349 1_554 S
Eu913 O931 2.392 . S
Eu913 O932 2.418 . S
Eu913 C942 2.828 1_455 S
C914 O932 1.244 . S
C914 O935 1.265 . S
C915 C916 1.348 1_556 S
C915 C919 1.373 . S
C915 C921 1.505 . S
C916 C915 1.348 1_554 S
C916 C918 1.365 1_554 S
C916 H944 0.966 . S
C917 C919 1.383 . S
C917 C920 1.382 . S
C917 H945 0.930 . S
C918 C916 1.365 1_556 S
C918 C920 1.392 . S
C918 H946 0.930 1_556 S
C919 C915 1.373 . S
C919 C917 1.383 . S
C919 H947 0.931 . S
C920 C917 1.382 . S
C920 C918 1.392 . S
C921 Eu912 2.828 . S
C921 C915 1.505 . S
C921 O933 1.249 . S
C921 O934 1.244 1_556 S
O922 Eu913 2.373 . S
O922 C924 1.258 . S
O923 Eu912 2.392 1_554 S
O923 C924 1.242 . S
C924 O922 1.258 . S
C924 O923 1.242 . S
O925 Eu912 2.418 . S
O925 C929 1.244 . S
O926 Eu913 2.488 1_655 S
O926 C942 1.249 . S
O927 Eu913 2.471 1_655 S
O927 C942 1.244 . S
O928 Eu913 2.349 1_556 S
O928 C929 1.265 . S
C929 O925 1.244 . S
C929 O928 1.265 . S
O930 Eu912 2.373 . S
O930 C943 1.258 . S
O931 Eu913 2.392 . S
O931 C943 1.242 1_554 S
O932 Eu913 2.418 . S
O932 C914 1.244 . S
O933 Eu912 2.488 . S
O933 C921 1.249 . S
O934 Eu912 2.471 1_554 S
O934 C921 1.244 1_554 S
O935 Eu912 2.349 1_554 S
O935 C914 1.265 . S
C936 C937 1.379 . S
C936 C940 1.373 . S
C936 C942 1.505 . S
C937 C936 1.379 . S
C937 C939 1.369 . S
C937 H948 0.930 . S
C938 C940 1.383 . S
C938 C941 1.382 . S
C938 H949 0.930 . S
C939 C937 1.369 . S
C939 C941 1.392 . S
C939 H950 0.930 . S
C940 C936 1.373 . S
C940 C938 1.383 . S
C940 H951 0.931 . S
C941 C938 1.382 . S
C941 C939 1.392 . S
C942 Eu913 2.828 1_655 S
C942 O926 1.249 . S
C942 O927 1.244 . S
C942 C936 1.505 . S
C943 O930 1.258 . S
C943 O931 1.242 1_556 S
H944 C916 0.966 . S
H945 C917 0.930 . S
H946 C918 0.930 1_554 S
H947 C919 0.931 . S
H948 C937 0.930 . S
H949 C938 0.930 . S
H950 C939 0.930 . S
H951 C940 0.931 . S
C952 C953 1.391 1_655 S
C952 C954 1.394 1_655 S
C952 H968 0.931 . S
C953 C952 1.391 1_455 S
C953 C957 1.376 . S
C954 C952 1.394 1_455 S
C954 C955 1.369 . S
C954 C958 1.531 1_455 S
C955 C954 1.369 . S
C955 C956 1.410 . S
C955 C963 1.503 . S
C956 C955 1.410 . S
C956 C957 1.392 . S
C956 C959 1.511 . S
C957 C953 1.376 . S
C957 C956 1.392 . S
C957 H969 0.929 . S
C958 C954 1.531 1_655 S
C958 H970 0.960 . S
C958 H971 0.962 . S
C958 H972 0.960 . S
C959 C956 1.511 . S
C959 H973 0.961 . S
C959 H974 0.961 . S
C959 H975 0.961 . S
C960 C961 1.370 . S
C960 C962 1.363 . S
C960 H976 0.931 1_556 S
C961 C960 1.370 . S
C961 C965 1.408 . S
C962 C960 1.363 . S
C962 C963 1.370 . S
C962 C966 1.513 1_455 S
C963 C955 1.503 . S
C963 C962 1.370 . S
C963 C964 1.403 . S
C964 C963 1.403 . S
C964 C965 1.404 . S
C964 C967 1.539 . S
C965 C961 1.408 . S
C965 C964 1.404 . S
C965 H977 0.930 . S
C966 C962 1.513 1_655 S
C966 H978 0.968 . S
C966 H979 0.956 1_655 S
C966 H980 0.965 1_556 S
C967 C964 1.539 . S
C967 H981 0.958 . S
C967 H982 0.961 . S
C967 H983 0.960 . S
H968 C952 0.931 . S
H969 C957 0.929 . S
H970 C958 0.960 . S
H971 C958 0.962 . S
H972 C958 0.960 . S
H973 C959 0.961 . S
H974 C959 0.961 . S
H975 C959 0.961 . S
H976 C960 0.931 1_554 S
H977 C965 0.930 . S
H978 C966 0.968 . S
H979 C966 0.956 1_455 S
H980 C966 0.965 1_554 S
H981 C967 0.958 . S
H982 C967 0.961 . S
H983 C967 0.960 . S
C984 C985 1.391 . S
C984 C986 1.394 . S
C984 H1000 0.931 . S
C985 C984 1.391 . S
C985 C989 1.376 . S
C986 C984 1.394 . S
C986 C987 1.369 . S
C986 C990 1.531 . S
C987 C986 1.369 . S
C987 C988 1.410 . S
C987 C995 1.503 . S
C988 C987 1.410 . S
C988 C989 1.392 . S
C988 C991 1.511 . S
C989 C985 1.376 . S
C989 C988 1.392 . S
C989 H1001 0.929 . S
C990 C986 1.531 . S
C990 H1002 0.960 . S
C990 H1003 0.962 . S
C990 H1004 0.960 . S
C991 C988 1.511 . S
C991 H1005 0.961 . S
C991 H1006 0.961 . S
C991 H1007 0.961 . S
C992 C993 1.370 . S
C992 C994 1.363 . S
C992 H1008 0.931 . S
C993 C992 1.370 . S
C993 C997 1.408 . S
C994 C992 1.363 . S
C994 C995 1.370 . S
C994 C998 1.524 . S
C995 C987 1.503 . S
C995 C994 1.370 . S
C995 C996 1.403 . S
C996 C995 1.403 . S
C996 C997 1.404 . S
C996 C999 1.539 . S
C997 C993 1.408 . S
C997 C996 1.404 . S
C997 H1009 0.930 . S
C998 C994 1.524 . S
C998 H1010 0.956 . S
C998 H1011 0.961 . S
C998 H1012 0.961 . S
C999 C996 1.539 . S
C999 H1013 0.958 . S
C999 H1014 0.961 . S
C999 H1015 0.960 . S
H1000 C984 0.931 . S
H1001 C989 0.929 . S
H1002 C990 0.960 . S
H1003 C990 0.962 . S
H1004 C990 0.960 . S
H1005 C991 0.961 . S
H1006 C991 0.961 . S
H1007 C991 0.961 . S
H1008 C992 0.931 . S
H1009 C997 0.930 . S
H1010 C998 0.956 . S
H1011 C998 0.961 . S
H1012 C998 0.961 . S
H1013 C999 0.958 . S
H1014 C999 0.961 . S
H1015 C999 0.960 . S
C1016 C1017 1.391 . S
C1016 C1018 1.394 . S
C1016 H1032 0.931 . S
C1017 C1016 1.391 . S
C1017 C1021 1.376 . S
C1018 C1016 1.394 . S
C1018 C1019 1.369 . S
C1018 C1022 1.531 . S
C1019 C1018 1.369 . S
C1019 C1020 1.410 . S
C1019 C1027 1.503 . S
C1020 C1019 1.410 . S
C1020 C1021 1.392 . S
C1020 C1023 1.511 . S
C1021 C1017 1.376 . S
C1021 C1020 1.392 . S
C1021 H1033 0.929 . S
C1022 C1018 1.531 . S
C1022 H1034 0.960 . S
C1022 H1035 0.962 . S
C1022 H1036 0.960 . S
C1023 C1020 1.511 . S
C1023 H1037 0.961 . S
C1023 H1038 0.961 . S
C1023 H1039 0.961 . S
C1024 C1025 1.370 . S
C1024 C1026 1.363 . S
C1024 H1040 0.931 . S
C1025 C1024 1.370 . S
C1025 C1029 1.408 . S
C1026 C1024 1.363 . S
C1026 C1027 1.370 . S
C1026 C1030 1.524 . S
C1027 C1019 1.503 . S
C1027 C1026 1.370 . S
C1027 C1028 1.403 . S
C1028 C1027 1.403 . S
C1028 C1029 1.404 . S
C1028 C1031 1.539 . S
C1029 C1025 1.408 . S
C1029 C1028 1.404 . S
C1029 H1041 0.930 . S
C1030 C1026 1.524 . S
C1030 H1042 0.956 . S
C1030 H1043 0.961 . S
C1030 H1044 0.961 . S
C1031 C1028 1.539 . S
C1031 H1045 0.958 . S
C1031 H1046 0.961 . S
C1031 H1047 0.960 . S
H1032 C1016 0.931 . S
H1033 C1021 0.929 . S
H1034 C1022 0.960 . S
H1035 C1022 0.962 . S
H1036 C1022 0.960 . S
H1037 C1023 0.961 . S
H1038 C1023 0.961 . S
H1039 C1023 0.961 . S
H1040 C1024 0.931 . S
H1041 C1029 0.930 . S
H1042 C1030 0.956 . S
H1043 C1030 0.961 . S
H1044 C1030 0.961 . S
H1045 C1031 0.958 . S
H1046 C1031 0.961 . S
H1047 C1031 0.960 . S
C1048 C1049 1.391 . S
C1048 C1050 1.394 . S
C1048 H1064 0.931 . S
C1049 C1048 1.391 . S
C1049 C1053 1.376 . S
C1050 C1048 1.394 . S
C1050 C1051 1.369 . S
C1050 C1054 1.531 . S
C1051 C1050 1.369 . S
C1051 C1052 1.410 . S
C1051 C1059 1.503 . S
C1052 C1051 1.410 . S
C1052 C1053 1.392 . S
C1052 C1055 1.511 . S
C1053 C1049 1.376 . S
C1053 C1052 1.392 . S
C1053 H1065 0.929 . S
C1054 C1050 1.531 . S
C1054 H1066 0.960 . S
C1054 H1067 0.962 . S
C1054 H1068 0.960 . S
C1055 C1052 1.511 . S
C1055 H1069 0.961 . S
C1055 H1070 0.961 . S
C1055 H1071 0.961 . S
C1056 C1057 1.370 . S
C1056 C1058 1.363 . S
C1056 H1072 0.931 . S
C1057 C1056 1.370 . S
C1057 C1061 1.408 . S
C1058 C1056 1.363 . S
C1058 C1059 1.370 . S
C1058 C1062 1.524 . S
C1059 C1051 1.503 . S
C1059 C1058 1.370 . S
C1059 C1060 1.403 . S
C1060 C1059 1.403 . S
C1060 C1061 1.404 . S
C1060 C1063 1.539 . S
C1061 C1057 1.408 . S
C1061 C1060 1.404 . S
C1061 H1073 0.930 . S
C1062 C1058 1.524 . S
C1062 H1074 0.956 . S
C1062 H1075 0.961 . S
C1062 H1076 0.961 . S
C1063 C1060 1.539 . S
C1063 H1077 0.958 . S
C1063 H1078 0.961 . S
C1063 H1079 0.960 . S
H1064 C1048 0.931 . S
H1065 C1053 0.929 . S
H1066 C1054 0.960 . S
H1067 C1054 0.962 . S
H1068 C1054 0.960 . S
H1069 C1055 0.961 . S
H1070 C1055 0.961 . S
H1071 C1055 0.961 . S
H1072 C1056 0.931 . S
H1073 C1061 0.930 . S
H1074 C1062 0.956 . S
H1075 C1062 0.961 . S
H1076 C1062 0.961 . S
H1077 C1063 0.958 . S
H1078 C1063 0.961 . S
H1079 C1063 0.960 . S
C1080 C1081 1.391 . S
C1080 C1082 1.394 . S
C1080 H1096 0.931 . S
C1081 C1080 1.391 . S
C1081 C1085 1.376 . S
C1082 C1080 1.394 . S
C1082 C1083 1.369 . S
C1082 C1086 1.531 . S
C1083 C1082 1.369 . S
C1083 C1084 1.410 . S
C1083 C1091 1.503 . S
C1084 C1083 1.410 . S
C1084 C1085 1.392 . S
C1084 C1087 1.511 . S
C1085 C1081 1.376 . S
C1085 C1084 1.392 . S
C1085 H1097 0.929 1_455 S
C1086 C1082 1.531 . S
C1086 H1098 0.960 . S
C1086 H1099 0.962 . S
C1086 H1100 0.960 . S
C1087 C1084 1.511 . S
C1087 H1101 0.961 . S
C1087 H1102 0.961 . S
C1087 H1103 0.961 1_455 S
C1088 C1089 1.370 . S
C1088 C1090 1.363 . S
C1088 H1104 0.931 . S
C1089 C1088 1.370 . S
C1089 C1093 1.408 . S
C1090 C1088 1.363 . S
C1090 C1091 1.370 . S
C1090 C1094 1.524 . S
C1091 C1083 1.503 . S
C1091 C1090 1.370 . S
C1091 C1092 1.403 . S
C1092 C1091 1.403 . S
C1092 C1093 1.404 . S
C1092 C1095 1.535 . S
C1093 C1089 1.408 . S
C1093 C1092 1.404 . S
C1093 H1105 0.930 . S
C1094 C1090 1.524 . S
C1094 H1106 0.956 . S
C1094 H1107 0.961 . S
C1094 H1108 0.961 . S
C1095 C1092 1.535 . S
C1095 H1109 0.960 1_455 S
C1095 H1110 0.964 1_455 S
C1095 H1111 0.962 1_455 S
H1096 C1080 0.931 . S
H1097 C1085 0.929 1_655 S
H1098 C1086 0.960 . S
H1099 C1086 0.962 . S
H1100 C1086 0.960 . S
H1101 C1087 0.961 . S
H1102 C1087 0.961 . S
H1103 C1087 0.961 1_655 S
H1104 C1088 0.931 . S
H1105 C1093 0.930 . S
H1106 C1094 0.956 . S
H1107 C1094 0.961 . S
H1108 C1094 0.961 . S
H1109 C1095 0.960 1_655 S
H1110 C1095 0.964 1_655 S
H1111 C1095 0.962 1_655 S
C1112 C1113 1.391 . S
C1112 C1114 1.394 . S
C1112 H1128 0.931 . S
C1113 C1112 1.391 . S
C1113 C1117 1.376 . S
C1114 C1112 1.394 . S
C1114 C1115 1.369 . S
C1114 C1118 1.531 . S
C1115 C1114 1.369 . S
C1115 C1116 1.410 . S
C1115 C1123 1.503 . S
C1116 C1115 1.410 . S
C1116 C1117 1.392 . S
C1116 C1119 1.511 . S
C1117 C1113 1.376 . S
C1117 C1116 1.392 . S
C1117 H1129 0.929 . S
C1118 C1114 1.531 . S
C1118 H1130 0.960 . S
C1118 H1131 0.962 . S
C1118 H1132 0.960 . S
C1119 C1116 1.511 . S
C1119 H1133 0.961 . S
C1119 H1134 0.961 . S
C1119 H1135 0.961 . S
C1120 C1121 1.370 . S
C1120 C1122 1.363 . S
C1120 H1136 0.931 . S
C1121 C1120 1.370 . S
C1121 C1125 1.408 . S
C1122 C1120 1.363 . S
C1122 C1123 1.370 . S
C1122 C1126 1.524 . S
C1123 C1115 1.503 . S
C1123 C1122 1.370 . S
C1123 C1124 1.403 . S
C1124 C1123 1.403 . S
C1124 C1125 1.404 . S
C1124 C1127 1.539 . S
C1125 C1121 1.408 . S
C1125 C1124 1.404 . S
C1125 H1137 0.930 . S
C1126 C1122 1.524 . S
C1126 H1138 0.956 . S
C1126 H1139 0.961 . S
C1126 H1140 0.961 . S
C1127 C1124 1.539 . S
C1127 H1141 0.958 . S
C1127 H1142 0.961 . S
C1127 H1143 0.960 . S
H1128 C1112 0.931 . S
H1129 C1117 0.929 . S
H1130 C1118 0.960 . S
H1131 C1118 0.962 . S
H1132 C1118 0.960 . S
H1133 C1119 0.961 . S
H1134 C1119 0.961 . S
H1135 C1119 0.961 . S
H1136 C1120 0.931 . S
H1137 C1125 0.930 . S
H1138 C1126 0.956 . S
H1139 C1126 0.961 . S
H1140 C1126 0.961 . S
H1141 C1127 0.958 . S
H1142 C1127 0.961 . S
H1143 C1127 0.960 . S
C1144 C1145 1.391 . S
C1144 C1146 1.394 . S
C1144 H1160 0.931 . S
C1145 C1144 1.391 . S
C1145 C1149 1.376 . S
C1146 C1144 1.394 . S
C1146 C1147 1.369 . S
C1146 C1150 1.531 . S
C1147 C1146 1.369 . S
C1147 C1148 1.410 . S
C1147 C1155 1.503 . S
C1148 C1147 1.410 . S
C1148 C1149 1.392 . S
C1148 C1151 1.511 . S
C1149 C1145 1.376 . S
C1149 C1148 1.392 . S
C1149 H1161 0.929 . S
C1150 C1146 1.531 . S
C1150 H1162 0.960 . S
C1150 H1163 0.962 . S
C1150 H1164 0.960 . S
C1151 C1148 1.511 . S
C1151 H1165 0.961 . S
C1151 H1166 0.961 . S
C1151 H1167 0.961 . S
C1152 C1153 1.370 . S
C1152 C1154 1.363 . S
C1152 H1168 0.931 . S
C1153 C1152 1.370 . S
C1153 C1157 1.408 . S
C1154 C1152 1.363 . S
C1154 C1155 1.370 . S
C1154 C1158 1.524 . S
C1155 C1147 1.503 . S
C1155 C1154 1.370 . S
C1155 C1156 1.403 . S
C1156 C1155 1.403 . S
C1156 C1157 1.404 . S
C1156 C1159 1.539 . S
C1157 C1153 1.408 . S
C1157 C1156 1.404 . S
C1157 H1169 0.930 . S
C1158 C1154 1.524 . S
C1158 H1170 0.956 . S
C1158 H1171 0.961 . S
C1158 H1172 0.961 . S
C1159 C1156 1.539 . S
C1159 H1173 0.958 . S
C1159 H1174 0.961 . S
C1159 H1175 0.960 . S
H1160 C1144 0.931 . S
H1161 C1149 0.929 . S
H1162 C1150 0.960 . S
H1163 C1150 0.962 . S
H1164 C1150 0.960 . S
H1165 C1151 0.961 . S
H1166 C1151 0.961 . S
H1167 C1151 0.961 . S
H1168 C1152 0.931 . S
H1169 C1157 0.930 . S
H1170 C1158 0.956 . S
H1171 C1158 0.961 . S
H1172 C1158 0.961 . S
H1173 C1159 0.958 . S
H1174 C1159 0.961 . S
H1175 C1159 0.960 . S
C1176 C1177 1.391 . S
C1176 C1178 1.394 . S
C1176 H1192 0.931 . S
C1177 C1176 1.391 . S
C1177 C1181 1.376 . S
C1178 C1176 1.394 . S
C1178 C1179 1.369 . S
C1178 C1182 1.531 . S
C1179 C1178 1.369 . S
C1179 C1180 1.410 . S
C1179 C1187 1.503 . S
C1180 C1179 1.410 . S
C1180 C1181 1.392 . S
C1180 C1183 1.511 . S
C1181 C1177 1.376 . S
C1181 C1180 1.392 . S
C1181 H1193 0.929 . S
C1182 C1178 1.531 . S
C1182 H1194 0.960 . S
C1182 H1195 0.962 . S
C1182 H1196 0.960 . S
C1183 C1180 1.511 . S
C1183 H1197 0.961 . S
C1183 H1198 0.961 . S
C1183 H1199 0.961 . S
C1184 C1185 1.370 . S
C1184 C1186 1.363 . S
C1184 H1200 0.931 . S
C1185 C1184 1.370 . S
C1185 C1189 1.408 . S
C1186 C1184 1.363 . S
C1186 C1187 1.370 . S
C1186 C1190 1.524 . S
C1187 C1179 1.503 . S
C1187 C1186 1.370 . S
C1187 C1188 1.403 . S
C1188 C1187 1.403 . S
C1188 C1189 1.404 . S
C1188 C1191 1.539 . S
C1189 C1185 1.408 . S
C1189 C1188 1.404 . S
C1189 H1201 0.930 . S
C1190 C1186 1.524 . S
C1190 H1202 0.956 . S
C1190 H1203 0.961 . S
C1190 H1204 0.961 . S
C1191 C1188 1.539 . S
C1191 H1205 0.958 . S
C1191 H1206 0.961 . S
C1191 H1207 0.960 . S
H1192 C1176 0.931 . S
H1193 C1181 0.929 . S
H1194 C1182 0.960 . S
H1195 C1182 0.962 . S
H1196 C1182 0.960 . S
H1197 C1183 0.961 . S
H1198 C1183 0.961 . S
H1199 C1183 0.961 . S
H1200 C1184 0.931 . S
H1201 C1189 0.930 . S
H1202 C1190 0.956 . S
H1203 C1190 0.961 . S
H1204 C1190 0.961 . S
H1205 C1191 0.958 . S
H1206 C1191 0.961 . S
H1207 C1191 0.960 . S
C1208 C1209 1.391 . S
C1208 C1210 1.399 . S
C1208 H1224 0.931 . S
C1209 C1208 1.391 . S
C1209 C1213 1.376 . S
C1210 C1208 1.399 . S
C1210 C1211 1.374 . S
C1210 C1214 1.520 1_655 S
C1211 C1210 1.374 . S
C1211 C1212 1.410 . S
C1211 C1219 1.499 1_655 S
C1212 C1211 1.410 . S
C1212 C1213 1.392 . S
C1212 C1215 1.511 . S
C1213 C1209 1.376 . S
C1213 C1212 1.392 . S
C1213 H1225 0.929 . S
C1214 C1210 1.520 1_455 S
C1214 H1226 0.960 . S
C1214 H1227 0.962 . S
C1214 H1228 0.960 . S
C1215 C1212 1.511 . S
C1215 H1229 0.961 . S
C1215 H1230 0.961 . S
C1215 H1231 0.961 . S
C1216 C1217 1.370 . S
C1216 C1218 1.363 . S
C1216 H1232 0.931 . S
C1217 C1216 1.370 . S
C1217 C1221 1.408 . S
C1218 C1216 1.363 . S
C1218 C1219 1.375 . S
C1218 C1222 1.524 . S
C1219 C1211 1.499 1_455 S
C1219 C1218 1.375 . S
C1219 C1220 1.403 1_455 S
C1220 C1219 1.403 1_655 S
C1220 C1221 1.404 1_655 S
C1220 C1223 1.536 1_545 S
C1221 C1217 1.408 . S
C1221 C1220 1.404 1_455 S
C1221 H1233 0.930 . S
C1222 C1218 1.524 . S
C1222 H1234 0.956 . S
C1222 H1235 0.961 . S
C1222 H1236 0.961 . S
C1223 C1220 1.536 1_565 S
C1223 H1237 0.961 . S
C1223 H1238 0.962 . S
C1223 H1239 0.958 1_565 S
H1224 C1208 0.931 . S
H1225 C1213 0.929 . S
H1226 C1214 0.960 . S
H1227 C1214 0.962 . S
H1228 C1214 0.960 . S
H1229 C1215 0.961 . S
H1230 C1215 0.961 . S
H1231 C1215 0.961 . S
H1232 C1216 0.931 . S
H1233 C1221 0.930 . S
H1234 C1222 0.956 . S
H1235 C1222 0.961 . S
H1236 C1222 0.961 . S
H1237 C1223 0.961 . S
H1238 C1223 0.962 . S
H1239 C1223 0.958 1_545 S
C1240 C1241 1.391 . S
C1240 C1242 1.394 . S
C1240 H1256 0.931 . S
C1241 C1240 1.391 . S
C1241 C1245 1.376 . S
C1242 C1240 1.394 . S
C1242 C1243 1.369 . S
C1242 C1246 1.531 . S
C1243 C1242 1.369 . S
C1243 C1244 1.410 . S
C1243 C1251 1.503 . S
C1244 C1243 1.410 . S
C1244 C1245 1.392 . S
C1244 C1247 1.511 . S
C1245 C1241 1.376 . S
C1245 C1244 1.392 . S
C1245 H1257 0.929 . S
C1246 C1242 1.531 . S
C1246 H1258 0.960 . S
C1246 H1259 0.962 . S
C1246 H1260 0.960 . S
C1247 C1244 1.511 . S
C1247 H1261 0.961 . S
C1247 H1262 0.961 . S
C1247 H1263 0.961 . S
C1248 C1249 1.370 . S
C1248 C1250 1.363 . S
C1248 H1264 0.931 . S
C1249 C1248 1.370 . S
C1249 C1253 1.408 . S
C1250 C1248 1.363 . S
C1250 C1251 1.370 . S
C1250 C1254 1.524 . S
C1251 C1243 1.503 . S
C1251 C1250 1.370 . S
C1251 C1252 1.403 . S
C1252 C1251 1.403 . S
C1252 C1253 1.404 . S
C1252 C1255 1.539 . S
C1253 C1249 1.408 . S
C1253 C1252 1.404 . S
C1253 H1265 0.930 . S
C1254 C1250 1.524 . S
C1254 H1266 0.956 . S
C1254 H1267 0.961 . S
C1254 H1268 0.961 . S
C1255 C1252 1.539 . S
C1255 H1269 0.958 . S
C1255 H1270 0.961 . S
C1255 H1271 0.960 . S
H1256 C1240 0.931 . S
H1257 C1245 0.929 . S
H1258 C1246 0.960 . S
H1259 C1246 0.962 . S
H1260 C1246 0.960 . S
H1261 C1247 0.961 . S
H1262 C1247 0.961 . S
H1263 C1247 0.961 . S
H1264 C1248 0.931 . S
H1265 C1253 0.930 . S
H1266 C1254 0.956 . S
H1267 C1254 0.961 . S
H1268 C1254 0.961 . S
H1269 C1255 0.958 . S
H1270 C1255 0.961 . S
H1271 C1255 0.960 . S
C1272 C1273 1.391 . S
C1272 C1274 1.394 . S
C1272 H1288 0.931 . S
C1273 C1272 1.391 . S
C1273 C1277 1.376 . S
C1274 C1272 1.394 . S
C1274 C1275 1.369 . S
C1274 C1278 1.531 . S
C1275 C1274 1.369 . S
C1275 C1276 1.410 . S
C1275 C1283 1.503 . S
C1276 C1275 1.410 . S
C1276 C1277 1.392 . S
C1276 C1279 1.511 . S
C1277 C1273 1.376 . S
C1277 C1276 1.392 . S
C1277 H1289 0.929 . S
C1278 C1274 1.531 . S
C1278 H1290 0.960 . S
C1278 H1291 0.962 . S
C1278 H1292 0.960 . S
C1279 C1276 1.511 . S
C1279 H1293 0.961 . S
C1279 H1294 0.961 . S
C1279 H1295 0.961 . S
C1280 C1281 1.370 . S
C1280 C1282 1.363 . S
C1280 H1296 0.931 . S
C1281 C1280 1.370 . S
C1281 C1285 1.408 . S
C1282 C1280 1.363 . S
C1282 C1283 1.370 . S
C1282 C1286 1.524 . S
C1283 C1275 1.503 . S
C1283 C1282 1.370 . S
C1283 C1284 1.403 . S
C1284 C1283 1.403 . S
C1284 C1285 1.404 . S
C1284 C1287 1.539 . S
C1285 C1281 1.408 . S
C1285 C1284 1.404 . S
C1285 H1297 0.930 . S
C1286 C1282 1.524 . S
C1286 H1298 0.956 . S
C1286 H1299 0.961 . S
C1286 H1300 0.937 1_545 S
C1287 C1284 1.539 . S
C1287 H1301 0.958 . S
C1287 H1302 0.961 . S
C1287 H1303 0.960 . S
H1288 C1272 0.931 . S
H1289 C1277 0.929 . S
H1290 C1278 0.960 . S
H1291 C1278 0.962 . S
H1292 C1278 0.960 . S
H1293 C1279 0.961 . S
H1294 C1279 0.961 . S
H1295 C1279 0.961 . S
H1296 C1280 0.931 . S
H1297 C1285 0.930 . S
H1298 C1286 0.956 . S
H1299 C1286 0.961 . S
H1300 C1286 0.937 1_565 S
H1301 C1287 0.958 . S
H1302 C1287 0.961 . S
H1303 C1287 0.960 . S
C1304 C1305 1.391 . S
C1304 C1306 1.394 . S
C1304 H1320 0.931 . S
C1305 C1304 1.391 . S
C1305 C1309 1.376 . S
C1306 C1304 1.394 . S
C1306 C1307 1.369 . S
C1306 C1310 1.531 . S
C1307 C1306 1.369 . S
C1307 C1308 1.410 . S
C1307 C1315 1.503 . S
C1308 C1307 1.410 . S
C1308 C1309 1.392 . S
C1308 C1311 1.511 . S
C1309 C1305 1.376 . S
C1309 C1308 1.392 . S
C1309 H1321 0.929 . S
C1310 C1306 1.531 . S
C1310 H1322 0.960 . S
C1310 H1323 0.962 . S
C1310 H1324 0.960 . S
C1311 C1308 1.511 . S
C1311 H1325 0.961 . S
C1311 H1326 0.961 . S
C1311 H1327 0.961 . S
C1312 C1313 1.370 . S
C1312 C1314 1.363 . S
C1312 H1328 0.931 . S
C1313 C1312 1.370 . S
C1313 C1317 1.408 . S
C1314 C1312 1.363 . S
C1314 C1315 1.370 . S
C1314 C1318 1.524 . S
C1315 C1307 1.503 . S
C1315 C1314 1.370 . S
C1315 C1316 1.403 . S
C1316 C1315 1.403 . S
C1316 C1317 1.404 . S
C1316 C1319 1.539 . S
C1317 C1313 1.408 . S
C1317 C1316 1.404 . S
C1317 H1329 0.930 . S
C1318 C1314 1.524 . S
C1318 H1330 0.956 . S
C1318 H1331 0.961 . S
C1318 H1332 0.961 . S
C1319 C1316 1.539 . S
C1319 H1333 0.958 . S
C1319 H1334 0.961 . S
C1319 H1335 0.960 . S
H1320 C1304 0.931 . S
H1321 C1309 0.929 . S
H1322 C1310 0.960 . S
H1323 C1310 0.962 . S
H1324 C1310 0.960 . S
H1325 C1311 0.961 . S
H1326 C1311 0.961 . S
H1327 C1311 0.961 . S
H1328 C1312 0.931 . S
H1329 C1317 0.930 . S
H1330 C1318 0.956 . S
H1331 C1318 0.961 . S
H1332 C1318 0.961 . S
H1333 C1319 0.958 . S
H1334 C1319 0.961 . S
H1335 C1319 0.960 . S
C1336 C1337 1.391 . S
C1336 C1338 1.394 . S
C1336 H1352 0.931 . S
C1337 C1336 1.391 . S
C1337 C1341 1.376 . S
C1338 C1336 1.394 . S
C1338 C1339 1.369 . S
C1338 C1342 1.531 . S
C1339 C1338 1.369 . S
C1339 C1340 1.410 . S
C1339 C1347 1.503 . S
C1340 C1339 1.410 . S
C1340 C1341 1.392 . S
C1340 C1343 1.511 1_655 S
C1341 C1337 1.376 . S
C1341 C1340 1.392 . S
C1341 H1353 0.929 . S
C1342 C1338 1.531 . S
C1342 H1354 0.960 . S
C1342 H1355 0.962 . S
C1342 H1356 0.960 . S
C1343 C1340 1.511 1_455 S
C1343 H1357 0.961 . S
C1343 H1358 0.961 . S
C1343 H1359 0.961 1_455 S
C1344 C1345 1.370 . S
C1344 C1346 1.363 . S
C1344 H1360 0.931 . S
C1345 C1344 1.370 . S
C1345 C1349 1.408 1_455 S
C1346 C1344 1.363 . S
C1346 C1347 1.370 1_455 S
C1346 C1350 1.524 . S
C1347 C1339 1.503 . S
C1347 C1346 1.370 1_655 S
C1347 C1348 1.403 . S
C1348 C1347 1.403 . S
C1348 C1349 1.404 . S
C1348 C1351 1.539 . S
C1349 C1345 1.408 1_655 S
C1349 C1348 1.404 . S
C1349 H1361 0.930 . S
C1350 C1346 1.524 . S
C1350 H1362 0.956 . S
C1350 H1363 0.961 . S
C1350 H1364 0.961 . S
C1351 C1348 1.539 . S
C1351 H1365 0.958 . S
C1351 H1366 0.961 1_545 S
C1351 H1367 0.960 . S
H1352 C1336 0.931 . S
H1353 C1341 0.929 . S
H1354 C1342 0.960 . S
H1355 C1342 0.962 . S
H1356 C1342 0.960 . S
H1357 C1343 0.961 . S
H1358 C1343 0.961 . S
H1359 C1343 0.961 1_655 S
H1360 C1344 0.931 . S
H1361 C1349 0.930 . S
H1362 C1350 0.956 . S
H1363 C1350 0.961 . S
H1364 C1350 0.961 . S
H1365 C1351 0.958 . S
H1366 C1351 0.961 1_565 S
H1367 C1351 0.960 . S
C1368 C1369 1.391 . S
C1368 C1370 1.394 . S
C1368 H1384 0.931 . S
C1369 C1368 1.391 . S
C1369 C1373 1.376 . S
C1370 C1368 1.394 . S
C1370 C1371 1.369 . S
C1370 C1374 1.531 . S
C1371 C1370 1.369 . S
C1371 C1372 1.410 . S
C1371 C1379 1.503 . S
C1372 C1371 1.410 . S
C1372 C1373 1.392 . S
C1372 C1375 1.511 . S
C1373 C1369 1.376 . S
C1373 C1372 1.392 . S
C1373 H1385 0.929 . S
C1374 C1370 1.531 . S
C1374 H1386 0.960 . S
C1374 H1387 0.962 . S
C1374 H1388 0.960 . S
C1375 C1372 1.511 . S
C1375 H1389 0.961 . S
C1375 H1390 0.961 . S
C1375 H1391 0.961 . S
C1376 C1377 1.370 . S
C1376 C1378 1.363 . S
C1376 H1392 0.931 . S
C1377 C1376 1.370 . S
C1377 C1381 1.408 . S
C1378 C1376 1.363 . S
C1378 C1379 1.370 . S
C1378 C1382 1.524 . S
C1379 C1371 1.503 . S
C1379 C1378 1.370 . S
C1379 C1380 1.403 . S
C1380 C1379 1.403 . S
C1380 C1381 1.404 . S
C1380 C1383 1.539 . S
C1381 C1377 1.408 . S
C1381 C1380 1.404 . S
C1381 H1393 0.930 . S
C1382 C1378 1.524 . S
C1382 H1394 0.956 . S
C1382 H1395 0.961 . S
C1382 H1396 0.961 . S
C1383 C1380 1.539 . S
C1383 H1397 0.958 . S
C1383 H1398 0.961 . S
C1383 H1399 0.960 . S
H1384 C1368 0.931 . S
H1385 C1373 0.929 . S
H1386 C1374 0.960 . S
H1387 C1374 0.962 . S
H1388 C1374 0.960 . S
H1389 C1375 0.961 . S
H1390 C1375 0.961 . S
H1391 C1375 0.961 . S
H1392 C1376 0.931 . S
H1393 C1381 0.930 . S
H1394 C1382 0.956 . S
H1395 C1382 0.961 . S
H1396 C1382 0.961 . S
H1397 C1383 0.958 . S
H1398 C1383 0.961 . S
H1399 C1383 0.960 . S
C1400 C1401 1.391 . S
C1400 C1402 1.394 . S
C1400 H1416 0.931 . S
C1401 C1400 1.391 . S
C1401 C1405 1.376 . S
C1402 C1400 1.394 . S
C1402 C1403 1.369 . S
C1402 C1406 1.531 . S
C1403 C1402 1.369 . S
C1403 C1404 1.410 . S
C1403 C1411 1.503 . S
C1404 C1403 1.410 . S
C1404 C1405 1.392 . S
C1404 C1407 1.511 . S
C1405 C1401 1.376 . S
C1405 C1404 1.392 . S
C1405 H1417 0.929 . S
C1406 C1402 1.531 . S
C1406 H1418 0.960 . S
C1406 H1419 0.962 . S
C1406 H1420 0.960 . S
C1407 C1404 1.511 . S
C1407 H1421 0.961 . S
C1407 H1422 0.961 . S
C1407 H1423 0.961 . S
C1408 C1409 1.370 . S
C1408 C1410 1.363 . S
C1408 H1424 0.931 . S
C1409 C1408 1.370 . S
C1409 C1413 1.408 . S
C1410 C1408 1.363 . S
C1410 C1411 1.370 . S
C1410 C1414 1.524 . S
C1411 C1403 1.503 . S
C1411 C1410 1.370 . S
C1411 C1412 1.403 . S
C1412 C1411 1.403 . S
C1412 C1413 1.404 . S
C1412 C1415 1.539 . S
C1413 C1409 1.408 . S
C1413 C1412 1.404 . S
C1413 H1425 0.930 . S
C1414 C1410 1.524 . S
C1414 H1426 0.956 . S
C1414 H1427 0.961 . S
C1414 H1428 0.961 . S
C1415 C1412 1.539 . S
C1415 H1429 0.958 . S
C1415 H1430 0.961 . S
C1415 H1431 0.960 . S
H1416 C1400 0.931 . S
H1417 C1405 0.929 . S
H1418 C1406 0.960 . S
H1419 C1406 0.962 . S
H1420 C1406 0.960 . S
H1421 C1407 0.961 . S
H1422 C1407 0.961 . S
H1423 C1407 0.961 . S
H1424 C1408 0.931 . S
H1425 C1413 0.930 . S
H1426 C1414 0.956 . S
H1427 C1414 0.961 . S
H1428 C1414 0.961 . S
H1429 C1415 0.958 . S
H1430 C1415 0.961 . S
H1431 C1415 0.960 . S
C1432 C1433 1.391 . S
C1432 C1434 1.394 . S
C1432 H1448 0.931 . S
C1433 C1432 1.391 . S
C1433 C1437 1.376 . S
C1434 C1432 1.394 . S
C1434 C1435 1.369 . S
C1434 C1438 1.531 . S
C1435 C1434 1.369 . S
C1435 C1436 1.410 . S
C1435 C1443 1.503 . S
C1436 C1435 1.410 . S
C1436 C1437 1.392 . S
C1436 C1439 1.511 . S
C1437 C1433 1.376 . S
C1437 C1436 1.392 . S
C1437 H1449 0.929 . S
C1438 C1434 1.531 . S
C1438 H1450 0.960 . S
C1438 H1451 0.962 . S
C1438 H1452 0.960 . S
C1439 C1436 1.511 . S
C1439 H1453 0.961 . S
C1439 H1454 0.961 . S
C1439 H1455 0.961 . S
C1440 C1441 1.370 . S
C1440 C1442 1.363 . S
C1440 H1456 0.931 . S
C1441 C1440 1.370 . S
C1441 C1445 1.408 . S
C1442 C1440 1.363 . S
C1442 C1443 1.370 . S
C1442 C1446 1.524 . S
C1443 C1435 1.503 . S
C1443 C1442 1.370 . S
C1443 C1444 1.403 . S
C1444 C1443 1.403 . S
C1444 C1445 1.404 . S
C1444 C1447 1.539 . S
C1445 C1441 1.408 . S
C1445 C1444 1.404 . S
C1445 H1457 0.930 . S
C1446 C1442 1.524 . S
C1446 H1458 0.956 . S
C1446 H1459 0.961 . S
C1446 H1460 0.961 . S
C1447 C1444 1.539 . S
C1447 H1461 0.958 . S
C1447 H1462 0.961 . S
C1447 H1463 0.960 . S
H1448 C1432 0.931 . S
H1449 C1437 0.929 . S
H1450 C1438 0.960 . S
H1451 C1438 0.962 . S
H1452 C1438 0.960 . S
H1453 C1439 0.961 . S
H1454 C1439 0.961 . S
H1455 C1439 0.961 . S
H1456 C1440 0.931 . S
H1457 C1445 0.930 . S
H1458 C1446 0.956 . S
H1459 C1446 0.961 . S
H1460 C1446 0.961 . S
H1461 C1447 0.958 . S
H1462 C1447 0.961 . S
H1463 C1447 0.960 . S
C1464 C1465 1.397 . S
C1464 C1466 1.391 1_565 S
C1464 H1480 0.928 1_565 S
C1465 C1464 1.397 . S
C1465 C1469 1.376 1_554 S
C1466 C1464 1.391 1_545 S
C1466 C1467 1.369 1_545 S
C1466 C1470 1.531 . S
C1467 C1466 1.369 1_565 S
C1467 C1468 1.398 1_554 S
C1467 C1475 1.503 . S
C1468 C1467 1.398 1_556 S
C1468 C1469 1.395 . S
C1468 C1471 1.522 . S
C1469 C1465 1.376 1_556 S
C1469 C1468 1.395 . S
C1469 H1481 0.929 . S
C1470 C1466 1.531 . S
C1470 H1482 0.960 . S
C1470 H1483 0.962 . S
C1470 H1484 0.960 . S
C1471 C1468 1.522 . S
C1471 H1485 0.961 . S
C1471 H1486 0.961 . S
C1471 H1487 0.961 . S
C1472 C1473 1.370 1_565 S
C1472 C1474 1.363 . S
C1472 H1488 0.931 . S
C1473 C1472 1.370 1_545 S
C1473 C1477 1.408 . S
C1474 C1472 1.363 . S
C1474 C1475 1.370 . S
C1474 C1478 1.524 . S
C1475 C1467 1.503 . S
C1475 C1474 1.370 . S
C1475 C1476 1.375 1_564 S
C1476 C1475 1.375 1_546 S
C1476 C1477 1.398 1_556 S
C1476 C1479 1.574 . S
C1477 C1473 1.408 . S
C1477 C1476 1.398 1_554 S
C1477 H1489 0.930 1_554 S
C1478 C1474 1.524 . S
C1478 H1490 0.956 . S
C1478 H1491 0.961 . S
C1478 H1492 0.961 . S
C1479 C1476 1.574 . S
C1479 H1493 0.958 . S
C1479 H1494 0.961 . S
C1479 H1495 0.962 . S
H1480 C1464 0.928 1_545 S
H1481 C1469 0.929 . S
H1482 C1470 0.960 . S
H1483 C1470 0.962 . S
H1484 C1470 0.960 . S
H1485 C1471 0.961 . S
H1486 C1471 0.961 . S
H1487 C1471 0.961 . S
H1488 C1472 0.931 . S
H1489 C1477 0.930 1_556 S
H1490 C1478 0.956 . S
H1491 C1478 0.961 . S
H1492 C1478 0.961 . S
H1493 C1479 0.958 . S
H1494 C1479 0.961 . S
H1495 C1479 0.962 . S
C1496 C1497 1.391 . S
C1496 C1498 1.394 . S
C1496 H1512 0.931 . S
C1497 C1496 1.391 . S
C1497 C1501 1.378 1_554 S
C1498 C1496 1.394 . S
C1498 C1499 1.364 . S
C1498 C1502 1.531 . S
C1499 C1498 1.364 . S
C1499 C1500 1.407 1_554 S
C1499 C1507 1.516 . S
C1500 C1499 1.407 1_556 S
C1500 C1501 1.389 . S
C1500 C1503 1.511 . S
C1501 C1497 1.378 1_556 S
C1501 C1500 1.389 . S
C1501 H1513 0.931 . S
C1502 C1498 1.531 . S
C1502 H1514 0.960 1_554 S
C1502 H1515 0.962 . S
C1502 H1516 0.960 1_554 S
C1503 C1500 1.511 . S
C1503 H1517 0.961 1_556 S
C1503 H1518 0.961 1_556 S
C1503 H1519 0.961 . S
C1504 C1505 1.370 . S
C1504 C1506 1.363 . S
C1504 H1520 0.931 . S
C1505 C1504 1.370 . S
C1505 C1509 1.408 1_554 S
C1506 C1504 1.363 . S
C1506 C1507 1.370 . S
C1506 C1510 1.524 . S
C1507 C1499 1.516 . S
C1507 C1506 1.370 . S
C1507 C1508 1.403 1_554 S
C1508 C1507 1.403 1_556 S
C1508 C1509 1.404 . S
C1508 C1511 1.539 . S
C1509 C1505 1.408 1_556 S
C1509 C1508 1.404 . S
C1509 H1521 0.930 . S
C1510 C1506 1.524 . S
C1510 H1522 0.956 . S
C1510 H1523 0.961 . S
C1510 H1524 0.961 . S
C1511 C1508 1.539 . S
C1511 H1525 0.958 . S
C1511 H1526 0.961 . S
C1511 H1527 0.960 . S
H1512 C1496 0.931 . S
H1513 C1501 0.931 . S
H1514 C1502 0.960 1_556 S
H1515 C1502 0.962 . S
H1516 C1502 0.960 1_556 S
H1517 C1503 0.961 1_554 S
H1518 C1503 0.961 1_554 S
H1519 C1503 0.961 . S
H1520 C1504 0.931 . S
H1521 C1509 0.930 . S
H1522 C1510 0.956 . S
H1523 C1510 0.961 . S
H1524 C1510 0.961 . S
H1525 C1511 0.958 . S
H1526 C1511 0.961 . S
H1527 C1511 0.960 . S
C1528 C1529 1.391 . S
C1528 C1530 1.394 . S
C1528 H1544 0.931 . S
C1529 C1528 1.391 . S
C1529 C1533 1.376 . S
C1530 C1528 1.394 . S
C1530 C1531 1.369 . S
C1530 C1534 1.531 . S
C1531 C1530 1.369 . S
C1531 C1532 1.410 . S
C1531 C1539 1.503 . S
C1532 C1531 1.410 . S
C1532 C1533 1.392 . S
C1532 C1535 1.511 . S
C1533 C1529 1.376 . S
C1533 C1532 1.392 . S
C1533 H1545 0.929 . S
C1534 C1530 1.531 . S
C1534 H1546 0.960 . S
C1534 H1547 0.962 . S
C1534 H1548 0.960 . S
C1535 C1532 1.511 . S
C1535 H1549 0.961 . S
C1535 H1550 0.961 . S
C1535 H1551 0.961 . S
C1536 C1537 1.370 . S
C1536 C1538 1.363 . S
C1536 H1552 0.931 . S
C1537 C1536 1.370 . S
C1537 C1541 1.408 . S
C1538 C1536 1.363 . S
C1538 C1539 1.370 . S
C1538 C1542 1.524 . S
C1539 C1531 1.503 . S
C1539 C1538 1.370 . S
C1539 C1540 1.403 . S
C1540 C1539 1.403 . S
C1540 C1541 1.404 . S
C1540 C1543 1.539 . S
C1541 C1537 1.408 . S
C1541 C1540 1.404 . S
C1541 H1553 0.930 . S
C1542 C1538 1.524 . S
C1542 H1554 0.956 . S
C1542 H1555 0.961 . S
C1542 H1556 0.961 . S
C1543 C1540 1.539 . S
C1543 H1557 0.958 . S
C1543 H1558 0.961 . S
C1543 H1559 0.960 . S
H1544 C1528 0.931 . S
H1545 C1533 0.929 . S
H1546 C1534 0.960 . S
H1547 C1534 0.962 . S
H1548 C1534 0.960 . S
H1549 C1535 0.961 . S
H1550 C1535 0.961 . S
H1551 C1535 0.961 . S
H1552 C1536 0.931 . S
H1553 C1541 0.930 . S
H1554 C1542 0.956 . S
H1555 C1542 0.961 . S
H1556 C1542 0.961 . S
H1557 C1543 0.958 . S
H1558 C1543 0.961 . S
H1559 C1543 0.960 . S
C1560 C1561 1.391 . S
C1560 C1562 1.394 . S
C1560 H1576 0.931 . S
C1561 C1560 1.391 . S
C1561 C1565 1.376 . S
C1562 C1560 1.394 . S
C1562 C1563 1.369 . S
C1562 C1566 1.531 . S
C1563 C1562 1.369 . S
C1563 C1564 1.410 . S
C1563 C1571 1.503 . S
C1564 C1563 1.410 . S
C1564 C1565 1.392 . S
C1564 C1567 1.511 . S
C1565 C1561 1.376 . S
C1565 C1564 1.392 . S
C1565 H1577 0.929 . S
C1566 C1562 1.531 . S
C1566 H1578 0.960 . S
C1566 H1579 0.962 . S
C1566 H1580 0.960 . S
C1567 C1564 1.511 . S
C1567 H1581 0.961 . S
C1567 H1582 0.961 . S
C1567 H1583 0.961 . S
C1568 C1569 1.370 . S
C1568 C1570 1.363 . S
C1568 H1584 0.931 . S
C1569 C1568 1.370 . S
C1569 C1573 1.408 . S
C1570 C1568 1.363 . S
C1570 C1571 1.370 . S
C1570 C1574 1.524 . S
C1571 C1563 1.503 . S
C1571 C1570 1.370 . S
C1571 C1572 1.403 . S
C1572 C1571 1.403 . S
C1572 C1573 1.404 . S
C1572 C1575 1.539 . S
C1573 C1569 1.408 . S
C1573 C1572 1.404 . S
C1573 H1585 0.930 . S
C1574 C1570 1.524 . S
C1574 H1586 0.956 . S
C1574 H1587 0.961 . S
C1574 H1588 0.961 . S
C1575 C1572 1.539 . S
C1575 H1589 0.958 . S
C1575 H1590 0.961 . S
C1575 H1591 0.960 . S
H1576 C1560 0.931 . S
H1577 C1565 0.929 . S
H1578 C1566 0.960 . S
H1579 C1566 0.962 . S
H1580 C1566 0.960 . S
H1581 C1567 0.961 . S
H1582 C1567 0.961 . S
H1583 C1567 0.961 . S
H1584 C1568 0.931 . S
H1585 C1573 0.930 . S
H1586 C1574 0.956 . S
H1587 C1574 0.961 . S
H1588 C1574 0.961 . S
H1589 C1575 0.958 . S
H1590 C1575 0.961 . S
H1591 C1575 0.960 . S
C1592 C1593 1.391 . S
C1592 C1594 1.394 . S
C1592 H1608 0.931 . S
C1593 C1592 1.391 . S
C1593 C1597 1.376 . S
C1594 C1592 1.394 . S
C1594 C1595 1.369 . S
C1594 C1598 1.531 . S
C1595 C1594 1.369 . S
C1595 C1596 1.410 . S
C1595 C1603 1.503 . S
C1596 C1595 1.410 . S
C1596 C1597 1.392 . S
C1596 C1599 1.511 . S
C1597 C1593 1.376 . S
C1597 C1596 1.392 . S
C1597 H1609 0.929 . S
C1598 C1594 1.531 . S
C1598 H1610 0.960 . S
C1598 H1611 0.962 . S
C1598 H1612 0.960 . S
C1599 C1596 1.511 . S
C1599 H1613 0.961 . S
C1599 H1614 0.961 . S
C1599 H1615 0.961 . S
C1600 C1601 1.370 . S
C1600 C1602 1.363 . S
C1600 H1616 0.931 . S
C1601 C1600 1.370 . S
C1601 C1605 1.408 . S
C1602 C1600 1.363 . S
C1602 C1603 1.370 . S
C1602 C1606 1.524 . S
C1603 C1595 1.503 . S
C1603 C1602 1.370 . S
C1603 C1604 1.403 . S
C1604 C1603 1.403 . S
C1604 C1605 1.404 . S
C1604 C1607 1.539 . S
C1605 C1601 1.408 . S
C1605 C1604 1.404 . S
C1605 H1617 0.930 . S
C1606 C1602 1.524 . S
C1606 H1618 0.956 . S
C1606 H1619 0.961 . S
C1606 H1620 0.961 . S
C1607 C1604 1.539 . S
C1607 H1621 0.958 . S
C1607 H1622 0.961 . S
C1607 H1623 0.960 . S
H1608 C1592 0.931 . S
H1609 C1597 0.929 . S
H1610 C1598 0.960 . S
H1611 C1598 0.962 . S
H1612 C1598 0.960 . S
H1613 C1599 0.961 . S
H1614 C1599 0.961 . S
H1615 C1599 0.961 . S
H1616 C1600 0.931 . S
H1617 C1605 0.930 . S
H1618 C1606 0.956 . S
H1619 C1606 0.961 . S
H1620 C1606 0.961 . S
H1621 C1607 0.958 . S
H1622 C1607 0.961 . S
H1623 C1607 0.960 . S
C1624 C1625 1.391 . S
C1624 C1626 1.394 . S
C1624 H1640 0.931 . S
C1625 C1624 1.391 . S
C1625 C1629 1.376 . S
C1626 C1624 1.394 . S
C1626 C1627 1.369 . S
C1626 C1630 1.531 . S
C1627 C1626 1.369 . S
C1627 C1628 1.410 . S
C1627 C1635 1.503 . S
C1628 C1627 1.410 . S
C1628 C1629 1.392 . S
C1628 C1631 1.511 . S
C1629 C1625 1.376 . S
C1629 C1628 1.392 . S
C1629 H1641 0.929 . S
C1630 C1626 1.531 . S
C1630 H1642 0.960 . S
C1630 H1643 0.962 . S
C1630 H1644 0.960 . S
C1631 C1628 1.511 . S
C1631 H1645 0.961 . S
C1631 H1646 0.961 . S
C1631 H1647 0.961 . S
C1632 C1633 1.370 . S
C1632 C1634 1.363 . S
C1632 H1648 0.931 . S
C1633 C1632 1.370 . S
C1633 C1637 1.408 . S
C1634 C1632 1.363 . S
C1634 C1635 1.370 . S
C1634 C1638 1.524 . S
C1635 C1627 1.503 . S
C1635 C1634 1.370 . S
C1635 C1636 1.403 . S
C1636 C1635 1.403 . S
C1636 C1637 1.404 . S
C1636 C1639 1.539 . S
C1637 C1633 1.408 . S
C1637 C1636 1.404 . S
C1637 H1649 0.930 . S
C1638 C1634 1.524 . S
C1638 H1650 0.956 . S
C1638 H1651 0.961 . S
C1638 H1652 0.961 . S
C1639 C1636 1.539 . S
C1639 H1653 0.958 . S
C1639 H1654 0.961 . S
C1639 H1655 0.960 . S
H1640 C1624 0.931 . S
H1641 C1629 0.929 . S
H1642 C1630 0.960 . S
H1643 C1630 0.962 . S
H1644 C1630 0.960 . S
H1645 C1631 0.961 . S
H1646 C1631 0.961 . S
H1647 C1631 0.961 . S
H1648 C1632 0.931 . S
H1649 C1637 0.930 . S
H1650 C1638 0.956 . S
H1651 C1638 0.961 . S
H1652 C1638 0.961 . S
H1653 C1639 0.958 . S
H1654 C1639 0.961 . S
H1655 C1639 0.960 . S
C1656 C1657 1.391 . S
C1656 C1658 1.394 . S
C1656 H1672 0.931 . S
C1657 C1656 1.391 . S
C1657 C1661 1.376 . S
C1658 C1656 1.394 . S
C1658 C1659 1.369 . S
C1658 C1662 1.531 . S
C1659 C1658 1.369 . S
C1659 C1660 1.410 . S
C1659 C1667 1.503 . S
C1660 C1659 1.410 . S
C1660 C1661 1.392 . S
C1660 C1663 1.511 . S
C1661 C1657 1.376 . S
C1661 C1660 1.392 . S
C1661 H1673 0.929 . S
C1662 C1658 1.531 . S
C1662 H1674 0.960 . S
C1662 H1675 0.962 . S
C1662 H1676 0.960 . S
C1663 C1660 1.511 . S
C1663 H1677 0.961 . S
C1663 H1678 0.961 . S
C1663 H1679 0.961 . S
C1664 C1665 1.370 . S
C1664 C1666 1.363 . S
C1664 H1680 0.931 . S
C1665 C1664 1.370 . S
C1665 C1669 1.408 . S
C1666 C1664 1.363 . S
C1666 C1667 1.370 . S
C1666 C1670 1.524 . S
C1667 C1659 1.503 . S
C1667 C1666 1.370 . S
C1667 C1668 1.403 . S
C1668 C1667 1.403 . S
C1668 C1669 1.404 . S
C1668 C1671 1.539 . S
C1669 C1665 1.408 . S
C1669 C1668 1.404 . S
C1669 H1681 0.930 . S
C1670 C1666 1.524 . S
C1670 H1682 0.956 . S
C1670 H1683 0.961 . S
C1670 H1684 0.961 . S
C1671 C1668 1.539 . S
C1671 H1685 0.958 . S
C1671 H1686 0.961 . S
C1671 H1687 0.960 . S
H1672 C1656 0.931 . S
H1673 C1661 0.929 . S
H1674 C1662 0.960 . S
H1675 C1662 0.962 . S
H1676 C1662 0.960 . S
H1677 C1663 0.961 . S
H1678 C1663 0.961 . S
H1679 C1663 0.961 . S
H1680 C1664 0.931 . S
H1681 C1669 0.930 . S
H1682 C1670 0.956 . S
H1683 C1670 0.961 . S
H1684 C1670 0.961 . S
H1685 C1671 0.958 . S
H1686 C1671 0.961 . S
H1687 C1671 0.960 . S
C1688 C1689 1.391 . S
C1688 C1690 1.394 . S
C1688 H1704 0.931 . S
C1689 C1688 1.391 . S
C1689 C1693 1.376 . S
C1690 C1688 1.394 . S
C1690 C1691 1.369 . S
C1690 C1694 1.531 . S
C1691 C1690 1.369 . S
C1691 C1692 1.410 . S
C1691 C1699 1.503 . S
C1692 C1691 1.410 . S
C1692 C1693 1.392 . S
C1692 C1695 1.511 . S
C1693 C1689 1.376 . S
C1693 C1692 1.392 . S
C1693 H1705 0.929 . S
C1694 C1690 1.531 . S
C1694 H1706 0.960 . S
C1694 H1707 0.962 . S
C1694 H1708 0.960 . S
C1695 C1692 1.511 . S
C1695 H1709 0.961 . S
C1695 H1710 0.961 . S
C1695 H1711 0.961 . S
C1696 C1697 1.370 . S
C1696 C1698 1.363 . S
C1696 H1712 0.931 . S
C1697 C1696 1.370 . S
C1697 C1701 1.408 . S
C1698 C1696 1.363 . S
C1698 C1699 1.370 . S
C1698 C1702 1.524 . S
C1699 C1691 1.503 . S
C1699 C1698 1.370 . S
C1699 C1700 1.403 . S
C1700 C1699 1.403 . S
C1700 C1701 1.404 . S
C1700 C1703 1.539 . S
C1701 C1697 1.408 . S
C1701 C1700 1.404 . S
C1701 H1713 0.930 . S
C1702 C1698 1.524 . S
C1702 H1714 0.956 . S
C1702 H1715 0.961 . S
C1702 H1716 0.961 . S
C1703 C1700 1.539 . S
C1703 H1717 0.958 . S
C1703 H1718 0.961 . S
C1703 H1719 0.960 . S
H1704 C1688 0.931 . S
H1705 C1693 0.929 . S
H1706 C1694 0.960 . S
H1707 C1694 0.962 . S
H1708 C1694 0.960 . S
H1709 C1695 0.961 . S
H1710 C1695 0.961 . S
H1711 C1695 0.961 . S
H1712 C1696 0.931 . S
H1713 C1701 0.930 . S
H1714 C1702 0.956 . S
H1715 C1702 0.961 . S
H1716 C1702 0.961 . S
H1717 C1703 0.958 . S
H1718 C1703 0.961 . S
H1719 C1703 0.960 . S
C1720 C1721 1.391 . S
C1720 C1722 1.394 . S
C1720 H1736 0.931 . S
C1721 C1720 1.391 . S
C1721 C1725 1.376 . S
C1722 C1720 1.394 . S
C1722 C1723 1.369 . S
C1722 C1726 1.531 . S
C1723 C1722 1.369 . S
C1723 C1724 1.410 . S
C1723 C1731 1.503 . S
C1724 C1723 1.410 . S
C1724 C1725 1.392 . S
C1724 C1727 1.511 . S
C1725 C1721 1.376 . S
C1725 C1724 1.392 . S
C1725 H1737 0.929 . S
C1726 C1722 1.531 . S
C1726 H1738 0.960 . S
C1726 H1739 0.962 . S
C1726 H1740 0.960 . S
C1727 C1724 1.511 . S
C1727 H1741 0.961 . S
C1727 H1742 0.961 . S
C1727 H1743 0.961 . S
C1728 C1729 1.370 . S
C1728 C1730 1.363 . S
C1728 H1744 0.931 . S
C1729 C1728 1.370 . S
C1729 C1733 1.408 . S
C1730 C1728 1.363 . S
C1730 C1731 1.370 . S
C1730 C1734 1.524 . S
C1731 C1723 1.503 . S
C1731 C1730 1.370 . S
C1731 C1732 1.403 . S
C1732 C1731 1.403 . S
C1732 C1733 1.404 . S
C1732 C1735 1.539 . S
C1733 C1729 1.408 . S
C1733 C1732 1.404 . S
C1733 H1745 0.930 . S
C1734 C1730 1.524 . S
C1734 H1746 0.956 . S
C1734 H1747 0.961 . S
C1734 H1748 0.961 . S
C1735 C1732 1.539 . S
C1735 H1749 0.958 . S
C1735 H1750 0.961 . S
C1735 H1751 0.960 . S
H1736 C1720 0.931 . S
H1737 C1725 0.929 . S
H1738 C1726 0.960 . S
H1739 C1726 0.962 . S
H1740 C1726 0.960 . S
H1741 C1727 0.961 . S
H1742 C1727 0.961 . S
H1743 C1727 0.961 . S
H1744 C1728 0.931 . S
H1745 C1733 0.930 . S
H1746 C1734 0.956 . S
H1747 C1734 0.961 . S
H1748 C1734 0.961 . S
H1749 C1735 0.958 . S
H1750 C1735 0.961 . S
H1751 C1735 0.960 . S
C1752 C1753 1.391 . S
C1752 C1754 1.394 . S
C1752 H1768 0.931 . S
C1753 C1752 1.391 . S
C1753 C1757 1.376 . S
C1754 C1752 1.394 . S
C1754 C1755 1.369 . S
C1754 C1758 1.531 . S
C1755 C1754 1.369 . S
C1755 C1756 1.410 . S
C1755 C1763 1.503 . S
C1756 C1755 1.410 . S
C1756 C1757 1.392 . S
C1756 C1759 1.511 . S
C1757 C1753 1.376 . S
C1757 C1756 1.392 . S
C1757 H1769 0.929 . S
C1758 C1754 1.531 . S
C1758 H1770 0.960 . S
C1758 H1771 0.962 . S
C1758 H1772 0.960 . S
C1759 C1756 1.511 . S
C1759 H1773 0.961 . S
C1759 H1774 0.961 . S
C1759 H1775 0.961 . S
C1760 C1761 1.370 . S
C1760 C1762 1.363 . S
C1760 H1776 0.931 . S
C1761 C1760 1.370 . S
C1761 C1765 1.408 . S
C1762 C1760 1.363 . S
C1762 C1763 1.370 . S
C1762 C1766 1.524 . S
C1763 C1755 1.503 . S
C1763 C1762 1.370 . S
C1763 C1764 1.403 . S
C1764 C1763 1.403 . S
C1764 C1765 1.404 . S
C1764 C1767 1.539 . S
C1765 C1761 1.408 . S
C1765 C1764 1.404 . S
C1765 H1777 0.930 . S
C1766 C1762 1.524 . S
C1766 H1778 0.956 . S
C1766 H1779 0.961 . S
C1766 H1780 0.961 . S
C1767 C1764 1.539 . S
C1767 H1781 0.958 . S
C1767 H1782 0.961 . S
C1767 H1783 0.960 . S
H1768 C1752 0.931 . S
H1769 C1757 0.929 . S
H1770 C1758 0.960 . S
H1771 C1758 0.962 . S
H1772 C1758 0.960 . S
H1773 C1759 0.961 . S
H1774 C1759 0.961 . S
H1775 C1759 0.961 . S
H1776 C1760 0.931 . S
H1777 C1765 0.930 . S
H1778 C1766 0.956 . S
H1779 C1766 0.961 . S
H1780 C1766 0.961 . S
H1781 C1767 0.958 . S
H1782 C1767 0.961 . S
H1783 C1767 0.960 . S
C1784 C1785 1.391 . S
C1784 C1786 1.394 . S
C1784 H1800 0.931 . S
C1785 C1784 1.391 . S
C1785 C1789 1.376 . S
C1786 C1784 1.394 . S
C1786 C1787 1.369 . S
C1786 C1790 1.531 . S
C1787 C1786 1.369 . S
C1787 C1788 1.410 . S
C1787 C1795 1.503 . S
C1788 C1787 1.410 . S
C1788 C1789 1.392 . S
C1788 C1791 1.511 . S
C1789 C1785 1.376 . S
C1789 C1788 1.392 . S
C1789 H1801 0.929 . S
C1790 C1786 1.531 . S
C1790 H1802 0.960 . S
C1790 H1803 0.962 . S
C1790 H1804 0.960 . S
C1791 C1788 1.511 . S
C1791 H1805 0.961 . S
C1791 H1806 0.961 . S
C1791 H1807 0.961 . S
C1792 C1793 1.370 . S
C1792 C1794 1.363 . S
C1792 H1808 0.931 . S
C1793 C1792 1.370 . S
C1793 C1797 1.408 . S
C1794 C1792 1.363 . S
C1794 C1795 1.370 . S
C1794 C1798 1.524 . S
C1795 C1787 1.503 . S
C1795 C1794 1.370 . S
C1795 C1796 1.403 . S
C1796 C1795 1.403 . S
C1796 C1797 1.404 . S
C1796 C1799 1.539 . S
C1797 C1793 1.408 . S
C1797 C1796 1.404 . S
C1797 H1809 0.930 . S
C1798 C1794 1.524 . S
C1798 H1810 0.956 . S
C1798 H1811 0.961 . S
C1798 H1812 0.961 . S
C1799 C1796 1.539 . S
C1799 H1813 0.958 . S
C1799 H1814 0.961 . S
C1799 H1815 0.960 . S
H1800 C1784 0.931 . S
H1801 C1789 0.929 . S
H1802 C1790 0.960 . S
H1803 C1790 0.962 . S
H1804 C1790 0.960 . S
H1805 C1791 0.961 . S
H1806 C1791 0.961 . S
H1807 C1791 0.961 . S
H1808 C1792 0.931 . S
H1809 C1797 0.930 . S
H1810 C1798 0.956 . S
H1811 C1798 0.961 . S
H1812 C1798 0.961 . S
H1813 C1799 0.958 . S
H1814 C1799 0.961 . S
H1815 C1799 0.960 . S
C1816 C1817 1.391 . S
C1816 C1818 1.394 . S
C1816 H1832 0.931 . S
C1817 C1816 1.391 . S
C1817 C1821 1.376 . S
C1818 C1816 1.394 . S
C1818 C1819 1.369 . S
C1818 C1822 1.531 . S
C1819 C1818 1.369 . S
C1819 C1820 1.410 . S
C1819 C1827 1.503 . S
C1820 C1819 1.410 . S
C1820 C1821 1.392 . S
C1820 C1823 1.511 . S
C1821 C1817 1.376 . S
C1821 C1820 1.392 . S
C1821 H1833 0.929 . S
C1822 C1818 1.531 . S
C1822 H1834 0.960 . S
C1822 H1835 0.962 . S
C1822 H1836 0.960 . S
C1823 C1820 1.511 . S
C1823 H1837 0.961 . S
C1823 H1838 0.961 . S
C1823 H1839 0.961 . S
C1824 C1825 1.370 . S
C1824 C1826 1.363 . S
C1824 H1840 0.931 . S
C1825 C1824 1.370 . S
C1825 C1829 1.408 . S
C1826 C1824 1.363 . S
C1826 C1827 1.370 . S
C1826 C1830 1.524 . S
C1827 C1819 1.503 . S
C1827 C1826 1.370 . S
C1827 C1828 1.403 . S
C1828 C1827 1.403 . S
C1828 C1829 1.404 . S
C1828 C1831 1.539 . S
C1829 C1825 1.408 . S
C1829 C1828 1.404 . S
C1829 H1841 0.930 . S
C1830 C1826 1.524 . S
C1830 H1842 0.956 . S
C1830 H1843 0.961 . S
C1830 H1844 0.961 . S
C1831 C1828 1.539 . S
C1831 H1845 0.958 . S
C1831 H1846 0.961 . S
C1831 H1847 0.960 . S
H1832 C1816 0.931 . S
H1833 C1821 0.929 . S
H1834 C1822 0.960 . S
H1835 C1822 0.962 . S
H1836 C1822 0.960 . S
H1837 C1823 0.961 . S
H1838 C1823 0.961 . S
H1839 C1823 0.961 . S
H1840 C1824 0.931 . S
H1841 C1829 0.930 . S
H1842 C1830 0.956 . S
H1843 C1830 0.961 . S
H1844 C1830 0.961 . S
H1845 C1831 0.958 . S
H1846 C1831 0.961 . S
H1847 C1831 0.960 . S
C1848 C1849 1.391 . S
C1848 C1850 1.394 . S
C1848 H1864 0.931 . S
C1849 C1848 1.391 . S
C1849 C1853 1.376 . S
C1850 C1848 1.394 . S
C1850 C1851 1.369 . S
C1850 C1854 1.531 . S
C1851 C1850 1.369 . S
C1851 C1852 1.410 . S
C1851 C1859 1.503 . S
C1852 C1851 1.410 . S
C1852 C1853 1.392 . S
C1852 C1855 1.511 . S
C1853 C1849 1.376 . S
C1853 C1852 1.392 . S
C1853 H1865 0.929 . S
C1854 C1850 1.531 . S
C1854 H1866 0.960 . S
C1854 H1867 0.962 . S
C1854 H1868 0.960 . S
C1855 C1852 1.511 . S
C1855 H1869 0.961 . S
C1855 H1870 0.961 . S
C1855 H1871 0.961 . S
C1856 C1857 1.370 . S
C1856 C1858 1.363 . S
C1856 H1872 0.931 . S
C1857 C1856 1.370 . S
C1857 C1861 1.408 . S
C1858 C1856 1.363 . S
C1858 C1859 1.370 . S
C1858 C1862 1.524 . S
C1859 C1851 1.503 . S
C1859 C1858 1.370 . S
C1859 C1860 1.403 . S
C1860 C1859 1.403 . S
C1860 C1861 1.404 . S
C1860 C1863 1.539 . S
C1861 C1857 1.408 . S
C1861 C1860 1.404 . S
C1861 H1873 0.930 . S
C1862 C1858 1.524 . S
C1862 H1874 0.956 . S
C1862 H1875 0.961 . S
C1862 H1876 0.961 . S
C1863 C1860 1.539 . S
C1863 H1877 0.958 . S
C1863 H1878 0.961 . S
C1863 H1879 0.960 . S
H1864 C1848 0.931 . S
H1865 C1853 0.929 . S
H1866 C1854 0.960 . S
H1867 C1854 0.962 . S
H1868 C1854 0.960 . S
H1869 C1855 0.961 . S
H1870 C1855 0.961 . S
H1871 C1855 0.961 . S
H1872 C1856 0.931 . S
H1873 C1861 0.930 . S
H1874 C1862 0.956 . S
H1875 C1862 0.961 . S
H1876 C1862 0.961 . S
H1877 C1863 0.958 . S
H1878 C1863 0.961 . S
H1879 C1863 0.960 . S
C1880 C1881 1.391 . S
C1880 C1882 1.394 . S
C1880 H1896 0.931 . S
C1881 C1880 1.391 . S
C1881 C1885 1.376 . S
C1882 C1880 1.394 . S
C1882 C1883 1.369 . S
C1882 C1886 1.531 . S
C1883 C1882 1.369 . S
C1883 C1884 1.410 . S
C1883 C1891 1.503 . S
C1884 C1883 1.410 . S
C1884 C1885 1.392 . S
C1884 C1887 1.511 . S
C1885 C1881 1.376 . S
C1885 C1884 1.392 . S
C1885 H1897 0.929 . S
C1886 C1882 1.531 . S
C1886 H1898 0.960 . S
C1886 H1899 0.962 . S
C1886 H1900 0.960 . S
C1887 C1884 1.511 . S
C1887 H1901 0.961 . S
C1887 H1902 0.961 . S
C1887 H1903 0.961 . S
C1888 C1889 1.370 . S
C1888 C1890 1.363 . S
C1888 H1904 0.931 . S
C1889 C1888 1.370 . S
C1889 C1893 1.408 . S
C1890 C1888 1.363 . S
C1890 C1891 1.370 . S
C1890 C1894 1.524 . S
C1891 C1883 1.503 . S
C1891 C1890 1.370 . S
C1891 C1892 1.403 . S
C1892 C1891 1.403 . S
C1892 C1893 1.404 . S
C1892 C1895 1.539 . S
C1893 C1889 1.408 . S
C1893 C1892 1.404 . S
C1893 H1905 0.930 . S
C1894 C1890 1.524 . S
C1894 H1906 0.956 . S
C1894 H1907 0.961 . S
C1894 H1908 0.961 . S
C1895 C1892 1.539 . S
C1895 H1909 0.958 . S
C1895 H1910 0.961 . S
C1895 H1911 0.960 . S
H1896 C1880 0.931 . S
H1897 C1885 0.929 . S
H1898 C1886 0.960 . S
H1899 C1886 0.962 . S
H1900 C1886 0.960 . S
H1901 C1887 0.961 . S
H1902 C1887 0.961 . S
H1903 C1887 0.961 . S
H1904 C1888 0.931 . S
H1905 C1893 0.930 . S
H1906 C1894 0.956 . S
H1907 C1894 0.961 . S
H1908 C1894 0.961 . S
H1909 C1895 0.958 . S
H1910 C1895 0.961 . S
H1911 C1895 0.960 . S
C1912 C1913 1.391 . S
C1912 C1914 1.394 . S
C1912 H1928 0.931 . S
C1913 C1912 1.391 . S
C1913 C1917 1.376 . S
C1914 C1912 1.394 . S
C1914 C1915 1.369 . S
C1914 C1918 1.531 . S
C1915 C1914 1.369 . S
C1915 C1916 1.410 . S
C1915 C1923 1.503 . S
C1916 C1915 1.410 . S
C1916 C1917 1.392 . S
C1916 C1919 1.511 . S
C1917 C1913 1.376 . S
C1917 C1916 1.392 . S
C1917 H1929 0.929 . S
C1918 C1914 1.531 . S
C1918 H1930 0.960 . S
C1918 H1931 0.962 . S
C1918 H1932 0.960 . S
C1919 C1916 1.511 . S
C1919 H1933 0.961 . S
C1919 H1934 0.961 . S
C1919 H1935 0.961 . S
C1920 C1921 1.370 . S
C1920 C1922 1.363 . S
C1920 H1936 0.931 . S
C1921 C1920 1.370 . S
C1921 C1925 1.408 1_556 S
C1922 C1920 1.363 . S
C1922 C1923 1.370 . S
C1922 C1926 1.524 . S
C1923 C1915 1.503 . S
C1923 C1922 1.370 . S
C1923 C1924 1.403 . S
C1924 C1923 1.403 . S
C1924 C1925 1.404 1_556 S
C1924 C1927 1.539 1_556 S
C1925 C1921 1.408 1_554 S
C1925 C1924 1.404 1_554 S
C1925 H1937 0.930 . S
C1926 C1922 1.524 . S
C1926 H1938 0.956 . S
C1926 H1939 0.961 . S
C1926 H1940 0.961 . S
C1927 C1924 1.539 1_554 S
C1927 H1941 0.958 . S
C1927 H1942 0.961 . S
C1927 H1943 0.960 . S
H1928 C1912 0.931 . S
H1929 C1917 0.929 . S
H1930 C1918 0.960 . S
H1931 C1918 0.962 . S
H1932 C1918 0.960 . S
H1933 C1919 0.961 . S
H1934 C1919 0.961 . S
H1935 C1919 0.961 . S
H1936 C1920 0.931 . S
H1937 C1925 0.930 . S
H1938 C1926 0.956 . S
H1939 C1926 0.961 . S
H1940 C1926 0.961 . S
H1941 C1927 0.958 . S
H1942 C1927 0.961 . S
H1943 C1927 0.960 . S
C1944 C1945 1.391 . S
C1944 C1946 1.394 . S
C1944 H1960 0.931 . S
C1945 C1944 1.391 . S
C1945 C1949 1.376 . S
C1946 C1944 1.394 . S
C1946 C1947 1.369 . S
C1946 C1950 1.531 . S
C1947 C1946 1.369 . S
C1947 C1948 1.410 . S
C1947 C1955 1.503 . S
C1948 C1947 1.410 . S
C1948 C1949 1.392 . S
C1948 C1951 1.511 . S
C1949 C1945 1.376 . S
C1949 C1948 1.392 . S
C1949 H1961 0.929 . S
C1950 C1946 1.531 . S
C1950 H1962 0.960 . S
C1950 H1963 0.962 . S
C1950 H1964 0.960 . S
C1951 C1948 1.511 . S
C1951 H1965 0.961 . S
C1951 H1966 0.961 . S
C1951 H1967 0.961 . S
C1952 C1953 1.370 . S
C1952 C1954 1.363 . S
C1952 H1968 0.931 . S
C1953 C1952 1.370 . S
C1953 C1957 1.408 . S
C1954 C1952 1.363 . S
C1954 C1955 1.370 . S
C1954 C1958 1.524 . S
C1955 C1947 1.503 . S
C1955 C1954 1.370 . S
C1955 C1956 1.403 . S
C1956 C1955 1.403 . S
C1956 C1957 1.404 . S
C1956 C1959 1.539 . S
C1957 C1953 1.408 . S
C1957 C1956 1.404 . S
C1957 H1969 0.930 . S
C1958 C1954 1.524 . S
C1958 H1970 0.956 . S
C1958 H1971 0.961 . S
C1958 H1972 0.961 . S
C1959 C1956 1.539 . S
C1959 H1973 0.958 . S
C1959 H1974 0.961 . S
C1959 H1975 0.960 . S
H1960 C1944 0.931 . S
H1961 C1949 0.929 . S
H1962 C1950 0.960 . S
H1963 C1950 0.962 . S
H1964 C1950 0.960 . S
H1965 C1951 0.961 . S
H1966 C1951 0.961 . S
H1967 C1951 0.961 . S
H1968 C1952 0.931 . S
H1969 C1957 0.930 . S
H1970 C1958 0.956 . S
H1971 C1958 0.961 . S
H1972 C1958 0.961 . S
H1973 C1959 0.958 . S
H1974 C1959 0.961 . S
H1975 C1959 0.960 . S
C1976 C1977 1.391 1_565 S
C1976 C1978 1.394 . S
C1976 H1992 0.931 . S
C1977 C1976 1.391 1_545 S
C1977 C1981 1.376 . S
C1978 C1976 1.394 . S
C1978 C1979 1.369 1_565 S
C1978 C1982 1.531 . S
C1979 C1978 1.369 1_545 S
C1979 C1980 1.410 . S
C1979 C1987 1.503 . S
C1980 C1979 1.410 . S
C1980 C1981 1.392 . S
C1980 C1983 1.511 . S
C1981 C1977 1.376 . S
C1981 C1980 1.392 . S
C1981 H1993 0.929 . S
C1982 C1978 1.531 . S
C1982 H1994 0.960 . S
C1982 H1995 0.962 . S
C1982 H1996 0.960 . S
C1983 C1980 1.511 . S
C1983 H1997 0.961 . S
C1983 H1998 0.961 . S
C1983 H1999 0.961 . S
C1984 C1985 1.370 . S
C1984 C1986 1.363 . S
C1984 H2000 0.931 . S
C1985 C1984 1.370 . S
C1985 C1989 1.408 . S
C1986 C1984 1.363 . S
C1986 C1987 1.370 . S
C1986 C1990 1.524 . S
C1987 C1979 1.503 . S
C1987 C1986 1.370 . S
C1987 C1988 1.415 . S
C1988 C1987 1.415 . S
C1988 C1989 1.405 . S
C1988 C1991 1.526 1_545 S
C1989 C1985 1.408 . S
C1989 C1988 1.405 . S
C1989 H2001 0.930 1_545 S
C1990 C1986 1.524 . S
C1990 H2002 0.956 . S
C1990 H2003 0.961 . S
C1990 H2004 0.961 . S
C1991 C1988 1.526 1_565 S
C1991 H2005 0.958 . S
C1991 H2006 0.961 . S
C1991 H2007 0.960 . S
H1992 C1976 0.931 . S
H1993 C1981 0.929 . S
H1994 C1982 0.960 . S
H1995 C1982 0.962 . S
H1996 C1982 0.960 . S
H1997 C1983 0.961 . S
H1998 C1983 0.961 . S
H1999 C1983 0.961 . S
H2000 C1984 0.931 . S
H2001 C1989 0.930 1_565 S
H2002 C1990 0.956 . S
H2003 C1990 0.961 . S
H2004 C1990 0.961 . S
H2005 C1991 0.958 . S
H2006 C1991 0.961 . S
H2007 C1991 0.960 . S
C2008 C2009 1.391 . S
C2008 C2010 1.394 . S
C2008 H2024 0.931 . S
C2009 C2008 1.391 . S
C2009 C2013 1.376 . S
C2010 C2008 1.394 . S
C2010 C2011 1.369 . S
C2010 C2014 1.531 . S
C2011 C2010 1.369 . S
C2011 C2012 1.410 . S
C2011 C2019 1.503 . S
C2012 C2011 1.410 . S
C2012 C2013 1.392 . S
C2012 C2015 1.511 . S
C2013 C2009 1.376 . S
C2013 C2012 1.392 . S
C2013 H2025 0.929 . S
C2014 C2010 1.531 . S
C2014 H2026 0.960 . S
C2014 H2027 0.962 . S
C2014 H2028 0.960 . S
C2015 C2012 1.511 . S
C2015 H2029 0.961 . S
C2015 H2030 0.961 . S
C2015 H2031 0.961 . S
C2016 C2017 1.370 . S
C2016 C2018 1.363 . S
C2016 H2032 0.931 . S
C2017 C2016 1.370 . S
C2017 C2021 1.408 . S
C2018 C2016 1.363 . S
C2018 C2019 1.370 . S
C2018 C2022 1.524 . S
C2019 C2011 1.503 . S
C2019 C2018 1.370 . S
C2019 C2020 1.403 . S
C2020 C2019 1.403 . S
C2020 C2021 1.404 . S
C2020 C2023 1.539 . S
C2021 C2017 1.408 . S
C2021 C2020 1.404 . S
C2021 H2033 0.930 . S
C2022 C2018 1.524 . S
C2022 H2034 0.956 . S
C2022 H2035 0.961 . S
C2022 H2036 0.961 . S
C2023 C2020 1.539 . S
C2023 H2037 0.958 . S
C2023 H2038 0.961 . S
C2023 H2039 0.960 . S
H2024 C2008 0.931 . S
H2025 C2013 0.929 . S
H2026 C2014 0.960 . S
H2027 C2014 0.962 . S
H2028 C2014 0.960 . S
H2029 C2015 0.961 . S
H2030 C2015 0.961 . S
H2031 C2015 0.961 . S
H2032 C2016 0.931 . S
H2033 C2021 0.930 . S
H2034 C2022 0.956 . S
H2035 C2022 0.961 . S
H2036 C2022 0.961 . S
H2037 C2023 0.958 . S
H2038 C2023 0.961 . S
H2039 C2023 0.960 . S
C2040 C2041 1.391 . S
C2040 C2042 1.394 . S
C2040 H2056 0.931 1_545 S
C2041 C2040 1.391 . S
C2041 C2045 1.376 . S
C2042 C2040 1.394 . S
C2042 C2043 1.369 . S
C2042 C2046 1.531 1_545 S
C2043 C2042 1.369 . S
C2043 C2044 1.410 . S
C2043 C2051 1.503 . S
C2044 C2043 1.410 . S
C2044 C2045 1.392 . S
C2044 C2047 1.511 . S
C2045 C2041 1.376 . S
C2045 C2044 1.392 . S
C2045 H2057 0.929 . S
C2046 C2042 1.531 1_565 S
C2046 H2058 0.960 1_565 S
C2046 H2059 0.962 . S
C2046 H2060 0.960 . S
C2047 C2044 1.511 . S
C2047 H2061 0.961 . S
C2047 H2062 0.961 . S
C2047 H2063 0.961 . S
C2048 C2049 1.370 . S
C2048 C2050 1.363 . S
C2048 H2064 0.931 . S
C2049 C2048 1.370 . S
C2049 C2053 1.408 . S
C2050 C2048 1.363 . S
C2050 C2051 1.370 . S
C2050 C2054 1.524 1_545 S
C2051 C2043 1.503 . S
C2051 C2050 1.370 . S
C2051 C2052 1.403 . S
C2052 C2051 1.403 . S
C2052 C2053 1.404 . S
C2052 C2055 1.539 . S
C2053 C2049 1.408 . S
C2053 C2052 1.404 . S
C2053 H2065 0.930 . S
C2054 C2050 1.524 1_565 S
C2054 H2066 0.956 . S
C2054 H2067 0.961 1_565 S
C2054 H2068 0.961 . S
C2055 C2052 1.539 . S
C2055 H2069 0.958 . S
C2055 H2070 0.961 . S
C2055 H2071 0.960 . S
H2056 C2040 0.931 1_565 S
H2057 C2045 0.929 . S
H2058 C2046 0.960 1_545 S
H2059 C2046 0.962 . S
H2060 C2046 0.960 . S
H2061 C2047 0.961 . S
H2062 C2047 0.961 . S
H2063 C2047 0.961 . S
H2064 C2048 0.931 . S
H2065 C2053 0.930 . S
H2066 C2054 0.956 . S
H2067 C2054 0.961 1_545 S
H2068 C2054 0.961 . S
H2069 C2055 0.958 . S
H2070 C2055 0.961 . S
H2071 C2055 0.960 . S
C2072 C2073 1.391 . S
C2072 C2074 1.394 . S
C2072 H2088 0.931 . S
C2073 C2072 1.391 . S
C2073 C2077 1.376 . S
C2074 C2072 1.394 . S
C2074 C2075 1.369 . S
C2074 C2078 1.531 . S
C2075 C2074 1.369 . S
C2075 C2076 1.410 . S
C2075 C2083 1.503 . S
C2076 C2075 1.410 . S
C2076 C2077 1.392 . S
C2076 C2079 1.511 . S
C2077 C2073 1.376 . S
C2077 C2076 1.392 . S
C2077 H2089 0.929 . S
C2078 C2074 1.531 . S
C2078 H2090 0.960 . S
C2078 H2091 0.962 . S
C2078 H2092 0.960 . S
C2079 C2076 1.511 . S
C2079 H2093 0.961 . S
C2079 H2094 0.961 . S
C2079 H2095 0.961 . S
C2080 C2081 1.370 . S
C2080 C2082 1.363 . S
C2080 H2096 0.931 . S
C2081 C2080 1.370 . S
C2081 C2085 1.408 . S
C2082 C2080 1.363 . S
C2082 C2083 1.370 . S
C2082 C2086 1.524 . S
C2083 C2075 1.503 . S
C2083 C2082 1.370 . S
C2083 C2084 1.403 . S
C2084 C2083 1.403 . S
C2084 C2085 1.404 . S
C2084 C2087 1.539 . S
C2085 C2081 1.408 . S
C2085 C2084 1.404 . S
C2085 H2097 0.930 . S
C2086 C2082 1.524 . S
C2086 H2098 0.956 . S
C2086 H2099 0.961 . S
C2086 H2100 0.961 . S
C2087 C2084 1.539 . S
C2087 H2101 0.958 . S
C2087 H2102 0.961 . S
C2087 H2103 0.960 . S
H2088 C2072 0.931 . S
H2089 C2077 0.929 . S
H2090 C2078 0.960 . S
H2091 C2078 0.962 . S
H2092 C2078 0.960 . S
H2093 C2079 0.961 . S
H2094 C2079 0.961 . S
H2095 C2079 0.961 . S
H2096 C2080 0.931 . S
H2097 C2085 0.930 . S
H2098 C2086 0.956 . S
H2099 C2086 0.961 . S
H2100 C2086 0.961 . S
H2101 C2087 0.958 . S
H2102 C2087 0.961 . S
H2103 C2087 0.960 . S
C2104 C2105 1.391 . S
C2104 C2106 1.394 . S
C2104 H2120 0.931 . S
C2105 C2104 1.391 . S
C2105 C2109 1.376 1_545 S
C2106 C2104 1.394 . S
C2106 C2107 1.369 . S
C2106 C2110 1.531 . S
C2107 C2106 1.369 . S
C2107 C2108 1.410 1_545 S
C2107 C2115 1.503 . S
C2108 C2107 1.410 1_565 S
C2108 C2109 1.392 . S
C2108 C2111 1.511 . S
C2109 C2105 1.376 1_565 S
C2109 C2108 1.392 . S
C2109 H2121 0.929 . S
C2110 C2106 1.531 . S
C2110 H2122 0.960 . S
C2110 H2123 0.962 . S
C2110 H2124 0.960 . S
C2111 C2108 1.511 . S
C2111 H2125 0.961 . S
C2111 H2126 0.961 . S
C2111 H2127 0.961 . S
C2112 C2113 1.370 . S
C2112 C2114 1.363 . S
C2112 H2128 0.931 . S
C2113 C2112 1.370 . S
C2113 C2117 1.408 . S
C2114 C2112 1.363 . S
C2114 C2115 1.370 . S
C2114 C2118 1.524 . S
C2115 C2107 1.503 . S
C2115 C2114 1.370 . S
C2115 C2116 1.403 . S
C2116 C2115 1.403 . S
C2116 C2117 1.404 . S
C2116 C2119 1.539 . S
C2117 C2113 1.408 . S
C2117 C2116 1.404 . S
C2117 H2129 0.930 . S
C2118 C2114 1.524 . S
C2118 H2130 0.956 . S
C2118 H2131 0.961 1_545 S
C2118 H2132 0.961 . S
C2119 C2116 1.539 . S
C2119 H2133 0.958 . S
C2119 H2134 0.961 . S
C2119 H2135 0.960 . S
H2120 C2104 0.931 . S
H2121 C2109 0.929 . S
H2122 C2110 0.960 . S
H2123 C2110 0.962 . S
H2124 C2110 0.960 . S
H2125 C2111 0.961 . S
H2126 C2111 0.961 . S
H2127 C2111 0.961 . S
H2128 C2112 0.931 . S
H2129 C2117 0.930 . S
H2130 C2118 0.956 . S
H2131 C2118 0.961 1_565 S
H2132 C2118 0.961 . S
H2133 C2119 0.958 . S
H2134 C2119 0.961 . S
H2135 C2119 0.960 . S
C2136 C2137 1.391 . S
C2136 C2138 1.394 . S
C2136 H2152 0.931 . S
C2137 C2136 1.391 . S
C2137 C2141 1.376 . S
C2138 C2136 1.394 . S
C2138 C2139 1.369 . S
C2138 C2142 1.531 . S
C2139 C2138 1.369 . S
C2139 C2140 1.410 . S
C2139 C2147 1.503 . S
C2140 C2139 1.410 . S
C2140 C2141 1.392 . S
C2140 C2143 1.511 . S
C2141 C2137 1.376 . S
C2141 C2140 1.392 . S
C2141 H2153 0.929 . S
C2142 C2138 1.531 . S
C2142 H2154 0.960 . S
C2142 H2155 0.962 . S
C2142 H2156 0.960 . S
C2143 C2140 1.511 . S
C2143 H2157 0.961 . S
C2143 H2158 0.961 . S
C2143 H2159 0.961 . S
C2144 C2145 1.370 . S
C2144 C2146 1.363 . S
C2144 H2160 0.931 . S
C2145 C2144 1.370 . S
C2145 C2149 1.408 . S
C2146 C2144 1.363 . S
C2146 C2147 1.370 . S
C2146 C2150 1.524 . S
C2147 C2139 1.503 . S
C2147 C2146 1.370 . S
C2147 C2148 1.403 . S
C2148 C2147 1.403 . S
C2148 C2149 1.404 . S
C2148 C2151 1.539 . S
C2149 C2145 1.408 . S
C2149 C2148 1.404 . S
C2149 H2161 0.930 . S
C2150 C2146 1.524 . S
C2150 H2162 0.956 . S
C2150 H2163 0.961 . S
C2150 H2164 0.961 . S
C2151 C2148 1.539 . S
C2151 H2165 0.958 . S
C2151 H2166 0.961 . S
C2151 H2167 0.960 . S
H2152 C2136 0.931 . S
H2153 C2141 0.929 . S
H2154 C2142 0.960 . S
H2155 C2142 0.962 . S
H2156 C2142 0.960 . S
H2157 C2143 0.961 . S
H2158 C2143 0.961 . S
H2159 C2143 0.961 . S
H2160 C2144 0.931 . S
H2161 C2149 0.930 . S
H2162 C2150 0.956 . S
H2163 C2150 0.961 . S
H2164 C2150 0.961 . S
H2165 C2151 0.958 . S
H2166 C2151 0.961 . S
H2167 C2151 0.960 . S
C2168 C2169 1.418 . S
C2168 C2170 1.394 . S
C2168 H2184 0.931 . S
C2169 C2168 1.418 . S
C2169 C2173 1.348 1_565 S
C2170 C2168 1.394 . S
C2170 C2171 1.369 . S
C2170 C2174 1.531 . S
C2171 C2170 1.369 . S
C2171 C2172 1.410 1_565 S
C2171 C2179 1.503 . S
C2172 C2171 1.410 1_545 S
C2172 C2173 1.392 . S
C2172 C2175 1.511 . S
C2173 C2169 1.348 1_545 S
C2173 C2172 1.392 . S
C2173 H2185 0.929 . S
C2174 C2170 1.531 . S
C2174 H2186 0.960 . S
C2174 H2187 0.962 . S
C2174 H2188 0.960 . S
C2175 C2172 1.511 . S
C2175 H2189 0.961 . S
C2175 H2190 0.961 . S
C2175 H2191 0.961 . S
C2176 C2177 1.370 1_545 S
C2176 C2178 1.363 . S
C2176 H2192 0.931 . S
C2177 C2176 1.370 1_565 S
C2177 C2181 1.408 . S
C2178 C2176 1.363 . S
C2178 C2179 1.370 1_545 S
C2178 C2182 1.524 . S
C2179 C2171 1.503 . S
C2179 C2178 1.370 1_565 S
C2179 C2180 1.403 . S
C2180 C2179 1.403 . S
C2180 C2181 1.404 . S
C2180 C2183 1.539 . S
C2181 C2177 1.408 . S
C2181 C2180 1.404 . S
C2181 H2193 0.930 . S
C2182 C2178 1.524 . S
C2182 H2194 0.956 1_545 S
C2182 H2195 0.961 . S
C2182 H2196 0.961 . S
C2183 C2180 1.539 . S
C2183 H2197 0.958 . S
C2183 H2198 0.961 . S
C2183 H2199 0.960 . S
H2184 C2168 0.931 . S
H2185 C2173 0.929 . S
H2186 C2174 0.960 . S
H2187 C2174 0.962 . S
H2188 C2174 0.960 . S
H2189 C2175 0.961 . S
H2190 C2175 0.961 . S
H2191 C2175 0.961 . S
H2192 C2176 0.931 . S
H2193 C2181 0.930 . S
H2194 C2182 0.956 1_565 S
H2195 C2182 0.961 . S
H2196 C2182 0.961 . S
H2197 C2183 0.958 . S
H2198 C2183 0.961 . S
H2199 C2183 0.960 . S
C2200 C2201 1.391 . S
C2200 C2202 1.394 . S
C2200 H2216 0.931 . S
C2201 C2200 1.391 . S
C2201 C2205 1.376 . S
C2202 C2200 1.394 . S
C2202 C2203 1.369 . S
C2202 C2206 1.531 . S
C2203 C2202 1.369 . S
C2203 C2204 1.410 . S
C2203 C2211 1.503 . S
C2204 C2203 1.410 . S
C2204 C2205 1.392 . S
C2204 C2207 1.511 . S
C2205 C2201 1.376 . S
C2205 C2204 1.392 . S
C2205 H2217 0.929 . S
C2206 C2202 1.531 . S
C2206 H2218 0.960 . S
C2206 H2219 0.962 . S
C2206 H2220 0.960 . S
C2207 C2204 1.511 . S
C2207 H2221 0.961 . S
C2207 H2222 0.961 . S
C2207 H2223 0.961 . S
C2208 C2209 1.370 . S
C2208 C2210 1.363 . S
C2208 H2224 0.931 . S
C2209 C2208 1.370 . S
C2209 C2213 1.408 . S
C2210 C2208 1.363 . S
C2210 C2211 1.370 . S
C2210 C2214 1.524 . S
C2211 C2203 1.503 . S
C2211 C2210 1.370 . S
C2211 C2212 1.403 . S
C2212 C2211 1.403 . S
C2212 C2213 1.404 . S
C2212 C2215 1.539 . S
C2213 C2209 1.408 . S
C2213 C2212 1.404 . S
C2213 H2225 0.930 . S
C2214 C2210 1.524 . S
C2214 H2226 0.956 . S
C2214 H2227 0.961 . S
C2214 H2228 0.961 . S
C2215 C2212 1.539 . S
C2215 H2229 0.958 . S
C2215 H2230 0.961 . S
C2215 H2231 0.960 . S
H2216 C2200 0.931 . S
H2217 C2205 0.929 . S
H2218 C2206 0.960 . S
H2219 C2206 0.962 . S
H2220 C2206 0.960 . S
H2221 C2207 0.961 . S
H2222 C2207 0.961 . S
H2223 C2207 0.961 . S
H2224 C2208 0.931 . S
H2225 C2213 0.930 . S
H2226 C2214 0.956 . S
H2227 C2214 0.961 . S
H2228 C2214 0.961 . S
H2229 C2215 0.958 . S
H2230 C2215 0.961 . S
H2231 C2215 0.960 . S
C2232 C2233 1.391 1_556 S
C2232 C2234 1.394 . S
C2232 H2248 0.931 . S
C2233 C2232 1.391 1_554 S
C2233 C2237 1.376 . S
C2234 C2232 1.394 . S
C2234 C2235 1.369 1_556 S
C2234 C2238 1.531 . S
C2235 C2234 1.369 1_554 S
C2235 C2236 1.410 . S
C2235 C2243 1.503 . S
C2236 C2235 1.410 . S
C2236 C2237 1.392 . S
C2236 C2239 1.511 . S
C2237 C2233 1.376 . S
C2237 C2236 1.392 . S
C2237 H2249 0.929 . S
C2238 C2234 1.531 . S
C2238 H2250 0.960 . S
C2238 H2251 0.962 . S
C2238 H2252 0.960 . S
C2239 C2236 1.511 . S
C2239 H2253 0.961 . S
C2239 H2254 0.961 . S
C2239 H2255 0.961 . S
C2240 C2241 1.370 1_556 S
C2240 C2242 1.363 . S
C2240 H2256 0.931 . S
C2241 C2240 1.370 1_554 S
C2241 C2245 1.409 . S
C2242 C2240 1.363 . S
C2242 C2243 1.370 1_556 S
C2242 C2246 1.524 . S
C2243 C2235 1.503 . S
C2243 C2242 1.370 1_554 S
C2243 C2244 1.403 . S
C2244 C2243 1.403 . S
C2244 C2245 1.404 . S
C2244 C2247 1.539 . S
C2245 C2241 1.409 . S
C2245 C2244 1.404 . S
C2245 H2257 0.930 . S
C2246 C2242 1.524 . S
C2246 H2258 0.956 . S
C2246 H2259 0.961 . S
C2246 H2260 0.961 . S
C2247 C2244 1.539 . S
C2247 H2261 0.958 . S
C2247 H2262 0.961 . S
C2247 H2263 0.960 . S
H2248 C2232 0.931 . S
H2249 C2237 0.929 . S
H2250 C2238 0.960 . S
H2251 C2238 0.962 . S
H2252 C2238 0.960 . S
H2253 C2239 0.961 . S
H2254 C2239 0.961 . S
H2255 C2239 0.961 . S
H2256 C2240 0.931 . S
H2257 C2245 0.930 . S
H2258 C2246 0.956 . S
H2259 C2246 0.961 . S
H2260 C2246 0.961 . S
H2261 C2247 0.958 . S
H2262 C2247 0.961 . S
H2263 C2247 0.960 . S
C2264 C2265 1.391 . S
C2264 C2266 1.394 . S
C2264 H2280 0.931 . S
C2265 C2264 1.391 . S
C2265 C2269 1.376 . S
C2266 C2264 1.394 . S
C2266 C2267 1.369 . S
C2266 C2270 1.531 . S
C2267 C2266 1.369 . S
C2267 C2268 1.410 . S
C2267 C2275 1.503 . S
C2268 C2267 1.410 . S
C2268 C2269 1.392 . S
C2268 C2271 1.488 1_554 S
C2269 C2265 1.376 . S
C2269 C2268 1.392 . S
C2269 H2281 0.929 . S
C2270 C2266 1.531 . S
C2270 H2282 0.960 . S
C2270 H2283 0.962 . S
C2270 H2284 0.960 . S
C2271 C2268 1.488 1_556 S
C2271 H2285 0.987 . S
C2271 H2286 0.982 . S
C2271 H2287 0.940 1_556 S
C2272 C2273 1.370 . S
C2272 C2274 1.363 . S
C2272 H2288 0.914 1_554 S
C2273 C2272 1.370 . S
C2273 C2277 1.408 . S
C2274 C2272 1.363 . S
C2274 C2275 1.370 . S
C2274 C2278 1.524 1_554 S
C2275 C2267 1.503 . S
C2275 C2274 1.370 . S
C2275 C2276 1.403 . S
C2276 C2275 1.403 . S
C2276 C2277 1.404 . S
C2276 C2279 1.539 . S
C2277 C2273 1.408 . S
C2277 C2276 1.404 . S
C2277 H2289 0.930 . S
C2278 C2274 1.524 1_556 S
C2278 H2290 0.956 1_556 S
C2278 H2291 0.961 . S
C2278 H2292 0.961 . S
C2279 C2276 1.539 . S
C2279 H2293 0.958 . S
C2279 H2294 0.961 . S
C2279 H2295 0.960 . S
H2280 C2264 0.931 . S
H2281 C2269 0.929 . S
H2282 C2270 0.960 . S
H2283 C2270 0.962 . S
H2284 C2270 0.960 . S
H2285 C2271 0.987 . S
H2286 C2271 0.982 . S
H2287 C2271 0.940 1_554 S
H2288 C2272 0.914 1_556 S
H2289 C2277 0.930 . S
H2290 C2278 0.956 1_554 S
H2291 C2278 0.961 . S
H2292 C2278 0.961 . S
H2293 C2279 0.958 . S
H2294 C2279 0.961 . S
H2295 C2279 0.960 . S
C2296 C2297 1.391 . S
C2296 C2298 1.394 . S
C2296 H2312 0.931 . S
C2297 C2296 1.391 . S
C2297 C2301 1.376 . S
C2298 C2296 1.394 . S
C2298 C2299 1.369 . S
C2298 C2302 1.531 . S
C2299 C2298 1.369 . S
C2299 C2300 1.410 . S
C2299 C2307 1.503 . S
C2300 C2299 1.410 . S
C2300 C2301 1.392 . S
C2300 C2303 1.511 . S
C2301 C2297 1.376 . S
C2301 C2300 1.392 . S
C2301 H2313 0.929 . S
C2302 C2298 1.531 . S
C2302 H2314 0.960 . S
C2302 H2315 0.962 . S
C2302 H2316 0.960 . S
C2303 C2300 1.511 . S
C2303 H2317 0.961 . S
C2303 H2318 0.961 . S
C2303 H2319 0.961 . S
C2304 C2305 1.370 . S
C2304 C2306 1.363 . S
C2304 H2320 0.931 . S
C2305 C2304 1.370 . S
C2305 C2309 1.408 . S
C2306 C2304 1.363 . S
C2306 C2307 1.370 . S
C2306 C2310 1.524 . S
C2307 C2299 1.503 . S
C2307 C2306 1.370 . S
C2307 C2308 1.403 . S
C2308 C2307 1.403 . S
C2308 C2309 1.404 . S
C2308 C2311 1.539 . S
C2309 C2305 1.408 . S
C2309 C2308 1.404 . S
C2309 H2321 0.930 . S
C2310 C2306 1.524 . S
C2310 H2322 0.956 . S
C2310 H2323 0.961 . S
C2310 H2324 0.961 . S
C2311 C2308 1.539 . S
C2311 H2325 0.958 . S
C2311 H2326 0.961 . S
C2311 H2327 0.960 . S
H2312 C2296 0.931 . S
H2313 C2301 0.929 . S
H2314 C2302 0.960 . S
H2315 C2302 0.962 . S
H2316 C2302 0.960 . S
H2317 C2303 0.961 . S
H2318 C2303 0.961 . S
H2319 C2303 0.961 . S
H2320 C2304 0.931 . S
H2321 C2309 0.930 . S
H2322 C2310 0.956 . S
H2323 C2310 0.961 . S
H2324 C2310 0.961 . S
H2325 C2311 0.958 . S
H2326 C2311 0.961 . S
H2327 C2311 0.960 . S
C2328 C2329 1.391 . S
C2328 C2330 1.394 . S
C2328 H2344 0.931 . S
C2329 C2328 1.391 . S
C2329 C2333 1.376 . S
C2330 C2328 1.394 . S
C2330 C2331 1.369 . S
C2330 C2334 1.531 . S
C2331 C2330 1.369 . S
C2331 C2332 1.410 . S
C2331 C2339 1.503 . S
C2332 C2331 1.410 . S
C2332 C2333 1.392 . S
C2332 C2335 1.511 . S
C2333 C2329 1.376 . S
C2333 C2332 1.392 . S
C2333 H2345 0.929 . S
C2334 C2330 1.531 . S
C2334 H2346 0.960 . S
C2334 H2347 0.962 . S
C2334 H2348 0.960 . S
C2335 C2332 1.511 . S
C2335 H2349 0.961 . S
C2335 H2350 0.961 . S
C2335 H2351 0.961 . S
C2336 C2337 1.370 . S
C2336 C2338 1.363 . S
C2336 H2352 0.931 . S
C2337 C2336 1.370 . S
C2337 C2341 1.408 . S
C2338 C2336 1.363 . S
C2338 C2339 1.370 . S
C2338 C2342 1.524 . S
C2339 C2331 1.503 . S
C2339 C2338 1.370 . S
C2339 C2340 1.403 . S
C2340 C2339 1.403 . S
C2340 C2341 1.404 . S
C2340 C2343 1.539 . S
C2341 C2337 1.408 . S
C2341 C2340 1.404 . S
C2341 H2353 0.930 . S
C2342 C2338 1.524 . S
C2342 H2354 0.956 . S
C2342 H2355 0.961 . S
C2342 H2356 0.961 . S
C2343 C2340 1.539 . S
C2343 H2357 0.958 . S
C2343 H2358 0.961 . S
C2343 H2359 0.960 . S
H2344 C2328 0.931 . S
H2345 C2333 0.929 . S
H2346 C2334 0.960 . S
H2347 C2334 0.962 . S
H2348 C2334 0.960 . S
H2349 C2335 0.961 . S
H2350 C2335 0.961 . S
H2351 C2335 0.961 . S
H2352 C2336 0.931 . S
H2353 C2341 0.930 . S
H2354 C2342 0.956 . S
H2355 C2342 0.961 . S
H2356 C2342 0.961 . S
H2357 C2343 0.958 . S
H2358 C2343 0.961 . S
H2359 C2343 0.960 . S
C2360 C2361 1.391 . S
C2360 C2362 1.394 1_545 S
C2360 H2376 0.931 . S
C2361 C2360 1.391 . S
C2361 C2365 1.376 1_545 S
C2362 C2360 1.394 1_565 S
C2362 C2363 1.369 . S
C2362 C2366 1.531 . S
C2363 C2362 1.369 . S
C2363 C2364 1.410 . S
C2363 C2371 1.503 . S
C2364 C2363 1.410 . S
C2364 C2365 1.392 . S
C2364 C2367 1.511 . S
C2365 C2361 1.376 1_565 S
C2365 C2364 1.392 . S
C2365 H2377 0.929 . S
C2366 C2362 1.531 . S
C2366 H2378 0.960 . S
C2366 H2379 0.962 . S
C2366 H2380 0.960 1_565 S
C2367 C2364 1.511 . S
C2367 H2381 0.961 . S
C2367 H2382 0.961 . S
C2367 H2383 0.961 . S
C2368 C2369 1.370 . S
C2368 C2370 1.363 . S
C2368 H2384 0.931 . S
C2369 C2368 1.370 . S
C2369 C2373 1.408 . S
C2370 C2368 1.363 . S
C2370 C2371 1.370 . S
C2370 C2374 1.524 . S
C2371 C2363 1.503 . S
C2371 C2370 1.370 . S
C2371 C2372 1.403 . S
C2372 C2371 1.403 . S
C2372 C2373 1.404 . S
C2372 C2375 1.539 . S
C2373 C2369 1.408 . S
C2373 C2372 1.404 . S
C2373 H2385 0.930 . S
C2374 C2370 1.524 . S
C2374 H2386 0.956 . S
C2374 H2387 0.961 . S
C2374 H2388 0.961 . S
C2375 C2372 1.539 . S
C2375 H2389 0.958 1_565 S
C2375 H2390 0.961 . S
C2375 H2391 0.960 1_565 S
H2376 C2360 0.931 . S
H2377 C2365 0.929 . S
H2378 C2366 0.960 . S
H2379 C2366 0.962 . S
H2380 C2366 0.960 1_545 S
H2381 C2367 0.961 . S
H2382 C2367 0.961 . S
H2383 C2367 0.961 . S
H2384 C2368 0.931 . S
H2385 C2373 0.930 . S
H2386 C2374 0.956 . S
H2387 C2374 0.961 . S
H2388 C2374 0.961 . S
H2389 C2375 0.958 1_545 S
H2390 C2375 0.961 . S
H2391 C2375 0.960 1_545 S
C2392 C2393 1.391 . S
C2392 C2394 1.394 . S
C2392 H2408 0.931 . S
C2393 C2392 1.391 . S
C2393 C2397 1.376 . S
C2394 C2392 1.394 . S
C2394 C2395 1.369 . S
C2394 C2398 1.531 . S
C2395 C2394 1.369 . S
C2395 C2396 1.410 . S
C2395 C2403 1.503 . S
C2396 C2395 1.410 . S
C2396 C2397 1.392 . S
C2396 C2399 1.511 . S
C2397 C2393 1.376 . S
C2397 C2396 1.392 . S
C2397 H2409 0.929 . S
C2398 C2394 1.531 . S
C2398 H2410 0.960 . S
C2398 H2411 0.962 . S
C2398 H2412 0.960 . S
C2399 C2396 1.511 . S
C2399 H2413 0.961 . S
C2399 H2414 0.961 . S
C2399 H2415 0.961 . S
C2400 C2401 1.370 . S
C2400 C2402 1.363 . S
C2400 H2416 0.931 . S
C2401 C2400 1.370 . S
C2401 C2405 1.408 . S
C2402 C2400 1.363 . S
C2402 C2403 1.370 . S
C2402 C2406 1.524 . S
C2403 C2395 1.503 . S
C2403 C2402 1.370 . S
C2403 C2404 1.403 . S
C2404 C2403 1.403 . S
C2404 C2405 1.404 . S
C2404 C2407 1.539 . S
C2405 C2401 1.408 . S
C2405 C2404 1.404 . S
C2405 H2417 0.930 . S
C2406 C2402 1.524 . S
C2406 H2418 0.956 . S
C2406 H2419 0.961 . S
C2406 H2420 0.961 . S
C2407 C2404 1.539 . S
C2407 H2421 0.958 . S
C2407 H2422 0.961 . S
C2407 H2423 0.960 . S
H2408 C2392 0.931 . S
H2409 C2397 0.929 . S
H2410 C2398 0.960 . S
H2411 C2398 0.962 . S
H2412 C2398 0.960 . S
H2413 C2399 0.961 . S
H2414 C2399 0.961 . S
H2415 C2399 0.961 . S
H2416 C2400 0.931 . S
H2417 C2405 0.930 . S
H2418 C2406 0.956 . S
H2419 C2406 0.961 . S
H2420 C2406 0.961 . S
H2421 C2407 0.958 . S
H2422 C2407 0.961 . S
H2423 C2407 0.960 . S
C2424 C2425 1.391 . S
C2424 C2426 1.394 . S
C2424 H2440 0.931 . S
C2425 C2424 1.391 . S
C2425 C2429 1.376 . S
C2426 C2424 1.394 . S
C2426 C2427 1.369 . S
C2426 C2430 1.531 . S
C2427 C2426 1.369 . S
C2427 C2428 1.410 . S
C2427 C2435 1.503 . S
C2428 C2427 1.410 . S
C2428 C2429 1.392 . S
C2428 C2431 1.511 . S
C2429 C2425 1.376 . S
C2429 C2428 1.392 . S
C2429 H2441 0.929 . S
C2430 C2426 1.531 . S
C2430 H2442 0.960 . S
C2430 H2443 0.962 . S
C2430 H2444 0.960 . S
C2431 C2428 1.511 . S
C2431 H2445 0.961 . S
C2431 H2446 0.961 . S
C2431 H2447 0.961 . S
C2432 C2433 1.370 . S
C2432 C2434 1.363 . S
C2432 H2448 0.931 . S
C2433 C2432 1.370 . S
C2433 C2437 1.408 . S
C2434 C2432 1.363 . S
C2434 C2435 1.370 . S
C2434 C2438 1.524 . S
C2435 C2427 1.503 . S
C2435 C2434 1.370 . S
C2435 C2436 1.403 . S
C2436 C2435 1.403 . S
C2436 C2437 1.404 . S
C2436 C2439 1.539 . S
C2437 C2433 1.408 . S
C2437 C2436 1.404 . S
C2437 H2449 0.930 . S
C2438 C2434 1.524 . S
C2438 H2450 0.956 . S
C2438 H2451 0.961 . S
C2438 H2452 0.961 . S
C2439 C2436 1.539 . S
C2439 H2453 0.958 . S
C2439 H2454 0.961 . S
C2439 H2455 0.960 . S
H2440 C2424 0.931 . S
H2441 C2429 0.929 . S
H2442 C2430 0.960 . S
H2443 C2430 0.962 . S
H2444 C2430 0.960 . S
H2445 C2431 0.961 . S
H2446 C2431 0.961 . S
H2447 C2431 0.961 . S
H2448 C2432 0.931 . S
H2449 C2437 0.930 . S
H2450 C2438 0.956 . S
H2451 C2438 0.961 . S
H2452 C2438 0.961 . S
H2453 C2439 0.958 . S
H2454 C2439 0.961 . S
H2455 C2439 0.960 . S
C2456 C2457 1.391 . S
C2456 C2458 1.394 . S
C2456 H2472 0.931 . S
C2457 C2456 1.391 . S
C2457 C2461 1.376 . S
C2458 C2456 1.394 . S
C2458 C2459 1.369 . S
C2458 C2462 1.531 . S
C2459 C2458 1.369 . S
C2459 C2460 1.410 . S
C2459 C2467 1.503 . S
C2460 C2459 1.410 . S
C2460 C2461 1.392 . S
C2460 C2463 1.511 . S
C2461 C2457 1.376 . S
C2461 C2460 1.392 . S
C2461 H2473 0.929 . S
C2462 C2458 1.531 . S
C2462 H2474 0.960 . S
C2462 H2475 0.962 . S
C2462 H2476 0.960 . S
C2463 C2460 1.511 . S
C2463 H2477 0.961 . S
C2463 H2478 0.961 . S
C2463 H2479 0.961 . S
C2464 C2465 1.370 . S
C2464 C2466 1.363 . S
C2464 H2480 0.931 . S
C2465 C2464 1.370 . S
C2465 C2469 1.408 . S
C2466 C2464 1.363 . S
C2466 C2467 1.370 . S
C2466 C2470 1.524 . S
C2467 C2459 1.503 . S
C2467 C2466 1.370 . S
C2467 C2468 1.403 . S
C2468 C2467 1.403 . S
C2468 C2469 1.404 . S
C2468 C2471 1.539 . S
C2469 C2465 1.408 . S
C2469 C2468 1.404 . S
C2469 H2481 0.930 . S
C2470 C2466 1.524 . S
C2470 H2482 0.956 . S
C2470 H2483 0.961 . S
C2470 H2484 0.961 . S
C2471 C2468 1.539 . S
C2471 H2485 0.958 . S
C2471 H2486 0.961 . S
C2471 H2487 0.960 . S
H2472 C2456 0.931 . S
H2473 C2461 0.929 . S
H2474 C2462 0.960 . S
H2475 C2462 0.962 . S
H2476 C2462 0.960 . S
H2477 C2463 0.961 . S
H2478 C2463 0.961 . S
H2479 C2463 0.961 . S
H2480 C2464 0.931 . S
H2481 C2469 0.930 . S
H2482 C2470 0.956 . S
H2483 C2470 0.961 . S
H2484 C2470 0.961 . S
H2485 C2471 0.958 . S
H2486 C2471 0.961 . S
H2487 C2471 0.960 . S
C2488 C2489 1.391 . S
C2488 C2490 1.394 . S
C2488 H2504 0.931 . S
C2489 C2488 1.391 . S
C2489 C2493 1.376 . S
C2490 C2488 1.394 . S
C2490 C2491 1.369 . S
C2490 C2494 1.531 . S
C2491 C2490 1.369 . S
C2491 C2492 1.410 . S
C2491 C2499 1.503 . S
C2492 C2491 1.410 . S
C2492 C2493 1.392 . S
C2492 C2495 1.511 . S
C2493 C2489 1.376 . S
C2493 C2492 1.392 . S
C2493 H2505 0.929 . S
C2494 C2490 1.531 . S
C2494 H2506 0.960 . S
C2494 H2507 0.962 . S
C2494 H2508 0.960 . S
C2495 C2492 1.511 . S
C2495 H2509 0.961 . S
C2495 H2510 0.961 . S
C2495 H2511 0.961 . S
C2496 C2497 1.370 . S
C2496 C2498 1.363 . S
C2496 H2512 0.931 . S
C2497 C2496 1.370 . S
C2497 C2501 1.408 . S
C2498 C2496 1.363 . S
C2498 C2499 1.370 . S
C2498 C2502 1.524 . S
C2499 C2491 1.503 . S
C2499 C2498 1.370 . S
C2499 C2500 1.403 . S
C2500 C2499 1.403 . S
C2500 C2501 1.404 . S
C2500 C2503 1.539 . S
C2501 C2497 1.408 . S
C2501 C2500 1.404 . S
C2501 H2513 0.930 . S
C2502 C2498 1.524 . S
C2502 H2514 0.956 . S
C2502 H2515 0.961 . S
C2502 H2516 0.961 . S
C2503 C2500 1.539 . S
C2503 H2517 0.958 . S
C2503 H2518 0.961 . S
C2503 H2519 0.960 . S
H2504 C2488 0.931 . S
H2505 C2493 0.929 . S
H2506 C2494 0.960 . S
H2507 C2494 0.962 . S
H2508 C2494 0.960 . S
H2509 C2495 0.961 . S
H2510 C2495 0.961 . S
H2511 C2495 0.961 . S
H2512 C2496 0.931 . S
H2513 C2501 0.930 . S
H2514 C2502 0.956 . S
H2515 C2502 0.961 . S
H2516 C2502 0.961 . S
H2517 C2503 0.958 . S
H2518 C2503 0.961 . S
H2519 C2503 0.960 . S
C2520 C2521 1.391 . S
C2520 C2522 1.394 . S
C2520 H2536 0.931 . S
C2521 C2520 1.391 . S
C2521 C2525 1.376 . S
C2522 C2520 1.394 . S
C2522 C2523 1.369 . S
C2522 C2526 1.531 . S
C2523 C2522 1.369 . S
C2523 C2524 1.410 . S
C2523 C2531 1.503 . S
C2524 C2523 1.410 . S
C2524 C2525 1.392 . S
C2524 C2527 1.511 . S
C2525 C2521 1.376 . S
C2525 C2524 1.392 . S
C2525 H2537 0.929 . S
C2526 C2522 1.531 . S
C2526 H2538 0.960 . S
C2526 H2539 0.962 . S
C2526 H2540 0.960 . S
C2527 C2524 1.511 . S
C2527 H2541 0.961 . S
C2527 H2542 0.961 . S
C2527 H2543 0.961 . S
C2528 C2529 1.370 . S
C2528 C2530 1.363 . S
C2528 H2544 0.931 . S
C2529 C2528 1.370 . S
C2529 C2533 1.408 . S
C2530 C2528 1.363 . S
C2530 C2531 1.370 . S
C2530 C2534 1.524 . S
C2531 C2523 1.503 . S
C2531 C2530 1.370 . S
C2531 C2532 1.403 . S
C2532 C2531 1.403 . S
C2532 C2533 1.404 . S
C2532 C2535 1.539 . S
C2533 C2529 1.408 . S
C2533 C2532 1.404 . S
C2533 H2545 0.930 . S
C2534 C2530 1.524 . S
C2534 H2546 0.956 . S
C2534 H2547 0.961 . S
C2534 H2548 0.961 . S
C2535 C2532 1.539 . S
C2535 H2549 0.958 . S
C2535 H2550 0.961 . S
C2535 H2551 0.960 . S
H2536 C2520 0.931 . S
H2537 C2525 0.929 . S
H2538 C2526 0.960 . S
H2539 C2526 0.962 . S
H2540 C2526 0.960 . S
H2541 C2527 0.961 . S
H2542 C2527 0.961 . S
H2543 C2527 0.961 . S
H2544 C2528 0.931 . S
H2545 C2533 0.930 . S
H2546 C2534 0.956 . S
H2547 C2534 0.961 . S
H2548 C2534 0.961 . S
H2549 C2535 0.958 . S
H2550 C2535 0.961 . S
H2551 C2535 0.960 . S
C2552 C2553 1.391 . S
C2552 C2554 1.394 . S
C2552 H2568 0.931 . S
C2553 C2552 1.391 . S
C2553 C2557 1.376 . S
C2554 C2552 1.394 . S
C2554 C2555 1.369 . S
C2554 C2558 1.531 . S
C2555 C2554 1.369 . S
C2555 C2556 1.410 . S
C2555 C2563 1.503 . S
C2556 C2555 1.410 . S
C2556 C2557 1.392 . S
C2556 C2559 1.511 . S
C2557 C2553 1.376 . S
C2557 C2556 1.392 . S
C2557 H2569 0.929 . S
C2558 C2554 1.531 . S
C2558 H2570 0.960 . S
C2558 H2571 0.962 1_556 S
C2558 H2572 0.974 . S
C2559 C2556 1.511 . S
C2559 H2573 0.961 . S
C2559 H2574 0.961 . S
C2559 H2575 0.961 . S
C2560 C2561 1.370 . S
C2560 C2562 1.363 . S
C2560 H2576 0.934 . S
C2561 C2560 1.370 . S
C2561 C2565 1.408 . S
C2562 C2560 1.363 . S
C2562 C2563 1.370 . S
C2562 C2566 1.524 1_455 S
C2563 C2555 1.503 . S
C2563 C2562 1.370 . S
C2563 C2564 1.403 . S
C2564 C2563 1.403 . S
C2564 C2565 1.404 . S
C2564 C2567 1.539 . S
C2565 C2561 1.408 . S
C2565 C2564 1.404 . S
C2565 H2577 0.930 . S
C2566 C2562 1.524 1_655 S
C2566 H2578 0.950 1_655 S
C2566 H2579 0.961 . S
C2566 H2580 0.961 . S
C2567 C2564 1.539 . S
C2567 H2581 0.958 . S
C2567 H2582 0.961 . S
C2567 H2583 0.960 . S
H2568 C2552 0.931 . S
H2569 C2557 0.929 . S
H2570 C2558 0.960 . S
H2571 C2558 0.962 1_554 S
H2572 C2558 0.974 . S
H2573 C2559 0.961 . S
H2574 C2559 0.961 . S
H2575 C2559 0.961 . S
H2576 C2560 0.934 . S
H2577 C2565 0.930 . S
H2578 C2566 0.950 1_455 S
H2579 C2566 0.961 . S
H2580 C2566 0.961 . S
H2581 C2567 0.958 . S
H2582 C2567 0.961 . S
H2583 C2567 0.960 . S
C2584 C2585 1.391 . S
C2584 C2586 1.394 1_455 S
C2584 H2600 0.931 . S
C2585 C2584 1.391 . S
C2585 C2589 1.376 . S
C2586 C2584 1.394 1_655 S
C2586 C2587 1.369 . S
C2586 C2590 1.531 . S
C2587 C2586 1.369 . S
C2587 C2588 1.410 1_655 S
C2587 C2595 1.503 . S
C2588 C2587 1.410 1_455 S
C2588 C2589 1.392 . S
C2588 C2591 1.526 . S
C2589 C2585 1.376 . S
C2589 C2588 1.392 . S
C2589 H2601 0.929 . S
C2590 C2586 1.531 . S
C2590 H2602 0.960 . S
C2590 H2603 0.962 . S
C2590 H2604 0.960 . S
C2591 C2588 1.526 . S
C2591 H2605 0.990 . S
C2591 H2606 0.912 1_455 S
C2591 H2607 0.967 . S
C2592 C2593 1.370 . S
C2592 C2594 1.363 . S
C2592 H2608 0.931 . S
C2593 C2592 1.370 . S
C2593 C2597 1.408 . S
C2594 C2592 1.363 . S
C2594 C2595 1.370 . S
C2594 C2598 1.524 . S
C2595 C2587 1.503 . S
C2595 C2594 1.370 . S
C2595 C2596 1.403 . S
C2596 C2595 1.403 . S
C2596 C2597 1.404 . S
C2596 C2599 1.539 . S
C2597 C2593 1.408 . S
C2597 C2596 1.404 . S
C2597 H2609 0.930 . S
C2598 C2594 1.524 . S
C2598 H2610 0.956 . S
C2598 H2611 0.961 . S
C2598 H2612 0.961 . S
C2599 C2596 1.539 . S
C2599 H2613 0.958 . S
C2599 H2614 0.961 . S
C2599 H2615 0.960 . S
H2600 C2584 0.931 . S
H2601 C2589 0.929 . S
H2602 C2590 0.960 . S
H2603 C2590 0.962 . S
H2604 C2590 0.960 . S
H2605 C2591 0.990 . S
H2606 C2591 0.912 1_655 S
H2607 C2591 0.967 . S
H2608 C2592 0.931 . S
H2609 C2597 0.930 . S
H2610 C2598 0.956 . S
H2611 C2598 0.961 . S
H2612 C2598 0.961 . S
H2613 C2599 0.958 . S
H2614 C2599 0.961 . S
H2615 C2599 0.960 . S
C2616 C2617 1.391 . S
C2616 C2618 1.394 . S
C2616 H2632 0.931 . S
C2617 C2616 1.391 . S
C2617 C2621 1.376 . S
C2618 C2616 1.394 . S
C2618 C2619 1.369 . S
C2618 C2622 1.531 . S
C2619 C2618 1.369 . S
C2619 C2620 1.410 . S
C2619 C2627 1.503 . S
C2620 C2619 1.410 . S
C2620 C2621 1.392 . S
C2620 C2623 1.511 . S
C2621 C2617 1.376 . S
C2621 C2620 1.392 . S
C2621 H2633 0.929 . S
C2622 C2618 1.531 . S
C2622 H2634 0.960 . S
C2622 H2635 0.962 . S
C2622 H2636 0.960 . S
C2623 C2620 1.511 . S
C2623 H2637 0.961 . S
C2623 H2638 0.961 . S
C2623 H2639 0.961 . S
C2624 C2625 1.370 . S
C2624 C2626 1.363 . S
C2624 H2640 0.931 . S
C2625 C2624 1.370 . S
C2625 C2629 1.408 . S
C2626 C2624 1.363 . S
C2626 C2627 1.370 . S
C2626 C2630 1.524 . S
C2627 C2619 1.503 . S
C2627 C2626 1.370 . S
C2627 C2628 1.403 . S
C2628 C2627 1.403 . S
C2628 C2629 1.404 . S
C2628 C2631 1.539 . S
C2629 C2625 1.408 . S
C2629 C2628 1.404 . S
C2629 H2641 0.930 . S
C2630 C2626 1.524 . S
C2630 H2642 0.956 . S
C2630 H2643 0.961 . S
C2630 H2644 0.961 . S
C2631 C2628 1.539 . S
C2631 H2645 0.958 . S
C2631 H2646 0.961 . S
C2631 H2647 0.960 . S
H2632 C2616 0.931 . S
H2633 C2621 0.929 . S
H2634 C2622 0.960 . S
H2635 C2622 0.962 . S
H2636 C2622 0.960 . S
H2637 C2623 0.961 . S
H2638 C2623 0.961 . S
H2639 C2623 0.961 . S
H2640 C2624 0.931 . S
H2641 C2629 0.930 . S
H2642 C2630 0.956 . S
H2643 C2630 0.961 . S
H2644 C2630 0.961 . S
H2645 C2631 0.958 . S
H2646 C2631 0.961 . S
H2647 C2631 0.960 . S
C2648 C2649 1.391 . S
C2648 C2650 1.394 . S
C2648 H2664 0.931 . S
C2649 C2648 1.391 . S
C2649 C2653 1.376 . S
C2650 C2648 1.394 . S
C2650 C2651 1.369 . S
C2650 C2654 1.531 1_455 S
C2651 C2650 1.369 . S
C2651 C2652 1.410 . S
C2651 C2659 1.503 1_455 S
C2652 C2651 1.410 . S
C2652 C2653 1.392 . S
C2652 C2655 1.511 . S
C2653 C2649 1.376 . S
C2653 C2652 1.392 . S
C2653 H2665 0.929 . S
C2654 C2650 1.531 1_655 S
C2654 H2666 0.960 . S
C2654 H2667 0.962 . S
C2654 H2668 0.972 . S
C2655 C2652 1.511 . S
C2655 H2669 0.961 . S
C2655 H2670 0.961 1_455 S
C2655 H2671 0.961 . S
C2656 C2657 1.370 . S
C2656 C2658 1.363 . S
C2656 H2672 0.931 . S
C2657 C2656 1.370 . S
C2657 C2661 1.408 . S
C2658 C2656 1.363 . S
C2658 C2659 1.370 . S
C2658 C2662 1.524 . S
C2659 C2651 1.503 1_655 S
C2659 C2658 1.370 . S
C2659 C2660 1.403 . S
C2660 C2659 1.403 . S
C2660 C2661 1.404 . S
C2660 C2663 1.539 . S
C2661 C2657 1.408 . S
C2661 C2660 1.404 . S
C2661 H2673 0.930 . S
C2662 C2658 1.524 . S
C2662 H2674 0.956 . S
C2662 H2675 0.961 . S
C2662 H2676 0.961 . S
C2663 C2660 1.539 . S
C2663 H2677 0.958 . S
C2663 H2678 0.961 . S
C2663 H2679 0.960 1_655 S
H2664 C2648 0.931 . S
H2665 C2653 0.929 . S
H2666 C2654 0.960 . S
H2667 C2654 0.962 . S
H2668 C2654 0.972 . S
H2669 C2655 0.961 . S
H2670 C2655 0.961 1_655 S
H2671 C2655 0.961 . S
H2672 C2656 0.931 . S
H2673 C2661 0.930 . S
H2674 C2662 0.956 . S
H2675 C2662 0.961 . S
H2676 C2662 0.961 . S
H2677 C2663 0.958 . S
H2678 C2663 0.961 . S
H2679 C2663 0.960 1_455 S
C2680 C2681 1.391 1_455 S
C2680 C2682 1.394 . S
C2680 H2696 0.931 . S
C2681 C2680 1.391 1_655 S
C2681 C2685 1.376 . S
C2682 C2680 1.394 . S
C2682 C2683 1.369 . S
C2682 C2686 1.531 . S
C2683 C2682 1.369 . S
C2683 C2684 1.410 1_455 S
C2683 C2691 1.503 . S
C2684 C2683 1.410 1_655 S
C2684 C2685 1.392 . S
C2684 C2687 1.511 . S
C2685 C2681 1.376 . S
C2685 C2684 1.392 . S
C2685 H2697 0.929 . S
C2686 C2682 1.531 . S
C2686 H2698 0.960 . S
C2686 H2699 0.962 . S
C2686 H2700 0.960 . S
C2687 C2684 1.511 . S
C2687 H2701 0.961 . S
C2687 H2702 0.961 . S
C2687 H2703 0.961 . S
C2688 C2689 1.370 . S
C2688 C2690 1.363 . S
C2688 H2704 0.931 . S
C2689 C2688 1.370 . S
C2689 C2693 1.408 . S
C2690 C2688 1.363 . S
C2690 C2691 1.370 . S
C2690 C2694 1.524 . S
C2691 C2683 1.503 . S
C2691 C2690 1.370 . S
C2691 C2692 1.403 . S
C2692 C2691 1.403 . S
C2692 C2693 1.404 . S
C2692 C2695 1.539 1_455 S
C2693 C2689 1.408 . S
C2693 C2692 1.404 . S
C2693 H2705 0.930 . S
C2694 C2690 1.524 . S
C2694 H2706 0.956 . S
C2694 H2707 0.961 . S
C2694 H2708 0.961 . S
C2695 C2692 1.539 1_655 S
C2695 H2709 0.958 . S
C2695 H2710 0.961 . S
C2695 H2711 0.960 . S
H2696 C2680 0.931 . S
H2697 C2685 0.929 . S
H2698 C2686 0.960 . S
H2699 C2686 0.962 . S
H2700 C2686 0.960 . S
H2701 C2687 0.961 . S
H2702 C2687 0.961 . S
H2703 C2687 0.961 . S
H2704 C2688 0.931 . S
H2705 C2693 0.930 . S
H2706 C2694 0.956 . S
H2707 C2694 0.961 . S
H2708 C2694 0.961 . S
H2709 C2695 0.958 . S
H2710 C2695 0.961 . S
H2711 C2695 0.960 . S
C2712 C2713 1.391 . S
C2712 C2714 1.394 . S
C2712 H2728 0.931 . S
C2713 C2712 1.391 . S
C2713 C2717 1.376 . S
C2714 C2712 1.394 . S
C2714 C2715 1.369 . S
C2714 C2718 1.531 . S
C2715 C2714 1.369 . S
C2715 C2716 1.410 . S
C2715 C2723 1.503 . S
C2716 C2715 1.410 . S
C2716 C2717 1.392 . S
C2716 C2719 1.511 . S
C2717 C2713 1.376 . S
C2717 C2716 1.392 . S
C2717 H2729 0.929 . S
C2718 C2714 1.531 . S
C2718 H2730 0.960 . S
C2718 H2731 0.962 . S
C2718 H2732 0.960 . S
C2719 C2716 1.511 . S
C2719 H2733 0.961 . S
C2719 H2734 0.961 . S
C2719 H2735 0.961 . S
C2720 C2721 1.370 . S
C2720 C2722 1.363 . S
C2720 H2736 0.931 . S
C2721 C2720 1.370 . S
C2721 C2725 1.408 . S
C2722 C2720 1.363 . S
C2722 C2723 1.370 . S
C2722 C2726 1.524 . S
C2723 C2715 1.503 . S
C2723 C2722 1.370 . S
C2723 C2724 1.403 . S
C2724 C2723 1.403 . S
C2724 C2725 1.404 . S
C2724 C2727 1.539 . S
C2725 C2721 1.408 . S
C2725 C2724 1.404 . S
C2725 H2737 0.930 . S
C2726 C2722 1.524 . S
C2726 H2738 0.956 . S
C2726 H2739 0.961 . S
C2726 H2740 0.961 . S
C2727 C2724 1.539 . S
C2727 H2741 0.958 . S
C2727 H2742 0.961 . S
C2727 H2743 0.960 . S
H2728 C2712 0.931 . S
H2729 C2717 0.929 . S
H2730 C2718 0.960 . S
H2731 C2718 0.962 . S
H2732 C2718 0.960 . S
H2733 C2719 0.961 . S
H2734 C2719 0.961 . S
H2735 C2719 0.961 . S
H2736 C2720 0.931 . S
H2737 C2725 0.930 . S
H2738 C2726 0.956 . S
H2739 C2726 0.961 . S
H2740 C2726 0.961 . S
H2741 C2727 0.958 . S
H2742 C2727 0.961 . S
H2743 C2727 0.960 . S
C2744 C2745 1.391 . S
C2744 C2746 1.394 . S
C2744 H2760 0.931 . S
C2745 C2744 1.391 . S
C2745 C2749 1.376 . S
C2746 C2744 1.394 . S
C2746 C2747 1.369 . S
C2746 C2750 1.531 . S
C2747 C2746 1.369 . S
C2747 C2748 1.410 . S
C2747 C2755 1.503 . S
C2748 C2747 1.410 . S
C2748 C2749 1.392 . S
C2748 C2751 1.511 . S
C2749 C2745 1.376 . S
C2749 C2748 1.392 . S
C2749 H2761 0.929 . S
C2750 C2746 1.531 . S
C2750 H2762 0.960 . S
C2750 H2763 0.962 . S
C2750 H2764 0.960 . S
C2751 C2748 1.511 . S
C2751 H2765 0.961 . S
C2751 H2766 0.961 . S
C2751 H2767 0.961 . S
C2752 C2753 1.370 . S
C2752 C2754 1.363 . S
C2752 H2768 0.931 . S
C2753 C2752 1.370 . S
C2753 C2757 1.408 . S
C2754 C2752 1.363 . S
C2754 C2755 1.370 . S
C2754 C2758 1.524 . S
C2755 C2747 1.503 . S
C2755 C2754 1.370 . S
C2755 C2756 1.403 . S
C2756 C2755 1.403 . S
C2756 C2757 1.404 . S
C2756 C2759 1.539 . S
C2757 C2753 1.408 . S
C2757 C2756 1.404 . S
C2757 H2769 0.930 . S
C2758 C2754 1.524 . S
C2758 H2770 0.956 . S
C2758 H2771 0.961 . S
C2758 H2772 0.961 . S
C2759 C2756 1.539 . S
C2759 H2773 0.958 . S
C2759 H2774 0.961 . S
C2759 H2775 0.960 . S
H2760 C2744 0.931 . S
H2761 C2749 0.929 . S
H2762 C2750 0.960 . S
H2763 C2750 0.962 . S
H2764 C2750 0.960 . S
H2765 C2751 0.961 . S
H2766 C2751 0.961 . S
H2767 C2751 0.961 . S
H2768 C2752 0.931 . S
H2769 C2757 0.930 . S
H2770 C2758 0.956 . S
H2771 C2758 0.961 . S
H2772 C2758 0.961 . S
H2773 C2759 0.958 . S
H2774 C2759 0.961 . S
H2775 C2759 0.960 . S
C2776 C2777 1.391 . S
C2776 C2778 1.394 . S
C2776 H2792 0.931 . S
C2777 C2776 1.391 . S
C2777 C2781 1.376 . S
C2778 C2776 1.394 . S
C2778 C2779 1.369 . S
C2778 C2782 1.531 . S
C2779 C2778 1.369 . S
C2779 C2780 1.410 . S
C2779 C2787 1.503 . S
C2780 C2779 1.410 . S
C2780 C2781 1.392 . S
C2780 C2783 1.511 . S
C2781 C2777 1.376 . S
C2781 C2780 1.392 . S
C2781 H2793 0.929 . S
C2782 C2778 1.531 . S
C2782 H2794 0.960 . S
C2782 H2795 0.962 . S
C2782 H2796 0.960 . S
C2783 C2780 1.511 . S
C2783 H2797 0.961 . S
C2783 H2798 0.961 . S
C2783 H2799 0.961 . S
C2784 C2785 1.370 . S
C2784 C2786 1.363 . S
C2784 H2800 0.931 . S
C2785 C2784 1.370 . S
C2785 C2789 1.408 . S
C2786 C2784 1.363 . S
C2786 C2787 1.370 . S
C2786 C2790 1.524 . S
C2787 C2779 1.503 . S
C2787 C2786 1.370 . S
C2787 C2788 1.403 . S
C2788 C2787 1.403 . S
C2788 C2789 1.404 . S
C2788 C2791 1.539 . S
C2789 C2785 1.408 . S
C2789 C2788 1.404 . S
C2789 H2801 0.930 . S
C2790 C2786 1.524 . S
C2790 H2802 0.956 . S
C2790 H2803 0.961 . S
C2790 H2804 0.961 . S
C2791 C2788 1.539 . S
C2791 H2805 0.958 . S
C2791 H2806 0.961 . S
C2791 H2807 0.960 . S
H2792 C2776 0.931 . S
H2793 C2781 0.929 . S
H2794 C2782 0.960 . S
H2795 C2782 0.962 . S
H2796 C2782 0.960 . S
H2797 C2783 0.961 . S
H2798 C2783 0.961 . S
H2799 C2783 0.961 . S
H2800 C2784 0.931 . S
H2801 C2789 0.930 . S
H2802 C2790 0.956 . S
H2803 C2790 0.961 . S
H2804 C2790 0.961 . S
H2805 C2791 0.958 . S
H2806 C2791 0.961 . S
H2807 C2791 0.960 . S
C2808 C2809 1.391 . S
C2808 C2810 1.394 . S
C2808 H2824 0.931 . S
C2809 C2808 1.391 . S
C2809 C2813 1.376 . S
C2810 C2808 1.394 . S
C2810 C2811 1.369 . S
C2810 C2814 1.531 . S
C2811 C2810 1.369 . S
C2811 C2812 1.410 . S
C2811 C2819 1.503 . S
C2812 C2811 1.410 . S
C2812 C2813 1.392 . S
C2812 C2815 1.511 . S
C2813 C2809 1.376 . S
C2813 C2812 1.392 . S
C2813 H2825 0.929 . S
C2814 C2810 1.531 . S
C2814 H2826 0.960 . S
C2814 H2827 0.962 . S
C2814 H2828 0.960 . S
C2815 C2812 1.511 . S
C2815 H2829 0.961 . S
C2815 H2830 0.961 . S
C2815 H2831 0.961 . S
C2816 C2817 1.370 . S
C2816 C2818 1.363 . S
C2816 H2832 0.931 . S
C2817 C2816 1.370 . S
C2817 C2821 1.408 . S
C2818 C2816 1.363 . S
C2818 C2819 1.370 . S
C2818 C2822 1.524 . S
C2819 C2811 1.503 . S
C2819 C2818 1.370 . S
C2819 C2820 1.403 . S
C2820 C2819 1.403 . S
C2820 C2821 1.404 . S
C2820 C2823 1.539 . S
C2821 C2817 1.408 . S
C2821 C2820 1.404 . S
C2821 H2833 0.930 . S
C2822 C2818 1.524 . S
C2822 H2834 0.956 . S
C2822 H2835 0.961 . S
C2822 H2836 0.961 . S
C2823 C2820 1.539 . S
C2823 H2837 0.958 . S
C2823 H2838 0.961 . S
C2823 H2839 0.960 . S
H2824 C2808 0.931 . S
H2825 C2813 0.929 . S
H2826 C2814 0.960 . S
H2827 C2814 0.962 . S
H2828 C2814 0.960 . S
H2829 C2815 0.961 . S
H2830 C2815 0.961 . S
H2831 C2815 0.961 . S
H2832 C2816 0.931 . S
H2833 C2821 0.930 . S
H2834 C2822 0.956 . S
H2835 C2822 0.961 . S
H2836 C2822 0.961 . S
H2837 C2823 0.958 . S
H2838 C2823 0.961 . S
H2839 C2823 0.960 . S
C2840 C2841 1.391 . S
C2840 C2842 1.394 . S
C2840 H2856 0.931 . S
C2841 C2840 1.391 . S
C2841 C2845 1.376 . S
C2842 C2840 1.394 . S
C2842 C2843 1.369 . S
C2842 C2846 1.531 . S
C2843 C2842 1.369 . S
C2843 C2844 1.410 . S
C2843 C2851 1.503 . S
C2844 C2843 1.410 . S
C2844 C2845 1.392 . S
C2844 C2847 1.511 . S
C2845 C2841 1.376 . S
C2845 C2844 1.392 . S
C2845 H2857 0.929 . S
C2846 C2842 1.531 . S
C2846 H2858 0.960 . S
C2846 H2859 0.962 . S
C2846 H2860 0.960 . S
C2847 C2844 1.511 . S
C2847 H2861 0.961 . S
C2847 H2862 0.961 . S
C2847 H2863 0.961 . S
C2848 C2849 1.370 . S
C2848 C2850 1.363 . S
C2848 H2864 0.931 . S
C2849 C2848 1.370 . S
C2849 C2853 1.408 . S
C2850 C2848 1.363 . S
C2850 C2851 1.370 . S
C2850 C2854 1.524 . S
C2851 C2843 1.503 . S
C2851 C2850 1.370 . S
C2851 C2852 1.403 . S
C2852 C2851 1.403 . S
C2852 C2853 1.404 . S
C2852 C2855 1.539 . S
C2853 C2849 1.408 . S
C2853 C2852 1.404 . S
C2853 H2865 0.930 . S
C2854 C2850 1.524 . S
C2854 H2866 0.956 . S
C2854 H2867 0.961 . S
C2854 H2868 0.961 . S
C2855 C2852 1.539 . S
C2855 H2869 0.958 . S
C2855 H2870 0.961 . S
C2855 H2871 0.960 . S
H2856 C2840 0.931 . S
H2857 C2845 0.929 . S
H2858 C2846 0.960 . S
H2859 C2846 0.962 . S
H2860 C2846 0.960 . S
H2861 C2847 0.961 . S
H2862 C2847 0.961 . S
H2863 C2847 0.961 . S
H2864 C2848 0.931 . S
H2865 C2853 0.930 . S
H2866 C2854 0.956 . S
H2867 C2854 0.961 . S
H2868 C2854 0.961 . S
H2869 C2855 0.958 . S
H2870 C2855 0.961 . S
H2871 C2855 0.960 . S
C2872 C2873 1.391 . S
C2872 C2874 1.394 . S
C2872 H2888 0.931 . S
C2873 C2872 1.391 . S
C2873 C2877 1.376 . S
C2874 C2872 1.394 . S
C2874 C2875 1.369 . S
C2874 C2878 1.531 . S
C2875 C2874 1.369 . S
C2875 C2876 1.410 . S
C2875 C2883 1.503 . S
C2876 C2875 1.410 . S
C2876 C2877 1.392 . S
C2876 C2879 1.511 . S
C2877 C2873 1.376 . S
C2877 C2876 1.392 . S
C2877 H2889 0.929 . S
C2878 C2874 1.531 . S
C2878 H2890 0.960 . S
C2878 H2891 0.962 . S
C2878 H2892 0.960 . S
C2879 C2876 1.511 . S
C2879 H2893 0.961 . S
C2879 H2894 0.961 . S
C2879 H2895 0.961 . S
C2880 C2881 1.370 . S
C2880 C2882 1.363 . S
C2880 H2896 0.931 . S
C2881 C2880 1.370 . S
C2881 C2885 1.408 . S
C2882 C2880 1.363 . S
C2882 C2883 1.370 . S
C2882 C2886 1.524 . S
C2883 C2875 1.503 . S
C2883 C2882 1.370 . S
C2883 C2884 1.403 . S
C2884 C2883 1.403 . S
C2884 C2885 1.404 . S
C2884 C2887 1.539 . S
C2885 C2881 1.408 . S
C2885 C2884 1.404 . S
C2885 H2897 0.930 . S
C2886 C2882 1.524 . S
C2886 H2898 0.956 . S
C2886 H2899 0.961 . S
C2886 H2900 0.961 . S
C2887 C2884 1.539 . S
C2887 H2901 0.958 . S
C2887 H2902 0.961 . S
C2887 H2903 0.960 . S
H2888 C2872 0.931 . S
H2889 C2877 0.929 . S
H2890 C2878 0.960 . S
H2891 C2878 0.962 . S
H2892 C2878 0.960 . S
H2893 C2879 0.961 . S
H2894 C2879 0.961 . S
H2895 C2879 0.961 . S
H2896 C2880 0.931 . S
H2897 C2885 0.930 . S
H2898 C2886 0.956 . S
H2899 C2886 0.961 . S
H2900 C2886 0.961 . S
H2901 C2887 0.958 . S
H2902 C2887 0.961 . S
H2903 C2887 0.960 . S
C2904 C2905 1.391 . S
C2904 C2906 1.394 . S
C2904 H2920 0.931 . S
C2905 C2904 1.391 . S
C2905 C2909 1.376 . S
C2906 C2904 1.394 . S
C2906 C2907 1.369 . S
C2906 C2910 1.531 . S
C2907 C2906 1.369 . S
C2907 C2908 1.410 . S
C2907 C2915 1.503 . S
C2908 C2907 1.410 . S
C2908 C2909 1.392 . S
C2908 C2911 1.511 . S
C2909 C2905 1.376 . S
C2909 C2908 1.392 . S
C2909 H2921 0.929 . S
C2910 C2906 1.531 . S
C2910 H2922 0.960 . S
C2910 H2923 0.962 . S
C2910 H2924 0.960 . S
C2911 C2908 1.511 . S
C2911 H2925 0.961 . S
C2911 H2926 0.961 . S
C2911 H2927 0.961 . S
C2912 C2913 1.370 . S
C2912 C2914 1.363 . S
C2912 H2928 0.931 . S
C2913 C2912 1.370 . S
C2913 C2917 1.408 . S
C2914 C2912 1.363 . S
C2914 C2915 1.370 . S
C2914 C2918 1.524 . S
C2915 C2907 1.503 . S
C2915 C2914 1.370 . S
C2915 C2916 1.403 . S
C2916 C2915 1.403 . S
C2916 C2917 1.404 . S
C2916 C2919 1.539 . S
C2917 C2913 1.408 . S
C2917 C2916 1.404 . S
C2917 H2929 0.930 . S
C2918 C2914 1.524 . S
C2918 H2930 0.956 . S
C2918 H2931 0.961 . S
C2918 H2932 0.961 . S
C2919 C2916 1.539 . S
C2919 H2933 0.958 . S
C2919 H2934 0.961 . S
C2919 H2935 0.960 . S
H2920 C2904 0.931 . S
H2921 C2909 0.929 . S
H2922 C2910 0.960 . S
H2923 C2910 0.962 . S
H2924 C2910 0.960 . S
H2925 C2911 0.961 . S
H2926 C2911 0.961 . S
H2927 C2911 0.961 . S
H2928 C2912 0.931 . S
H2929 C2917 0.930 . S
H2930 C2918 0.956 . S
H2931 C2918 0.961 . S
H2932 C2918 0.961 . S
H2933 C2919 0.958 . S
H2934 C2919 0.961 . S
H2935 C2919 0.960 . S
C2936 C2937 1.391 . S
C2936 C2938 1.394 . S
C2936 H2952 0.931 . S
C2937 C2936 1.391 . S
C2937 C2941 1.376 . S
C2938 C2936 1.394 . S
C2938 C2939 1.369 . S
C2938 C2942 1.531 . S
C2939 C2938 1.369 . S
C2939 C2940 1.410 . S
C2939 C2947 1.503 . S
C2940 C2939 1.410 . S
C2940 C2941 1.392 . S
C2940 C2943 1.511 . S
C2941 C2937 1.376 . S
C2941 C2940 1.392 . S
C2941 H2953 0.929 . S
C2942 C2938 1.531 . S
C2942 H2954 0.960 . S
C2942 H2955 0.962 . S
C2942 H2956 0.960 . S
C2943 C2940 1.511 . S
C2943 H2957 0.961 . S
C2943 H2958 0.961 . S
C2943 H2959 0.961 . S
C2944 C2945 1.370 . S
C2944 C2946 1.363 . S
C2944 H2960 0.931 . S
C2945 C2944 1.370 . S
C2945 C2949 1.408 . S
C2946 C2944 1.363 . S
C2946 C2947 1.370 . S
C2946 C2950 1.524 . S
C2947 C2939 1.503 . S
C2947 C2946 1.370 . S
C2947 C2948 1.403 . S
C2948 C2947 1.403 . S
C2948 C2949 1.404 . S
C2948 C2951 1.539 . S
C2949 C2945 1.408 . S
C2949 C2948 1.404 . S
C2949 H2961 0.930 . S
C2950 C2946 1.524 . S
C2950 H2962 0.956 . S
C2950 H2963 0.961 . S
C2950 H2964 0.961 . S
C2951 C2948 1.539 . S
C2951 H2965 0.958 . S
C2951 H2966 0.961 . S
C2951 H2967 0.960 . S
H2952 C2936 0.931 . S
H2953 C2941 0.929 . S
H2954 C2942 0.960 . S
H2955 C2942 0.962 . S
H2956 C2942 0.960 . S
H2957 C2943 0.961 . S
H2958 C2943 0.961 . S
H2959 C2943 0.961 . S
H2960 C2944 0.931 . S
H2961 C2949 0.930 . S
H2962 C2950 0.956 . S
H2963 C2950 0.961 . S
H2964 C2950 0.961 . S
H2965 C2951 0.958 . S
H2966 C2951 0.961 . S
H2967 C2951 0.960 . S
C2968 C2969 1.391 . S
C2968 C2970 1.394 . S
C2968 H2984 0.931 . S
C2969 C2968 1.391 . S
C2969 C2973 1.376 . S
C2970 C2968 1.394 . S
C2970 C2971 1.369 . S
C2970 C2974 1.531 . S
C2971 C2970 1.369 . S
C2971 C2972 1.410 . S
C2971 C2979 1.503 . S
C2972 C2971 1.410 . S
C2972 C2973 1.392 . S
C2972 C2975 1.511 . S
C2973 C2969 1.376 . S
C2973 C2972 1.392 . S
C2973 H2985 0.929 . S
C2974 C2970 1.531 . S
C2974 H2986 0.960 . S
C2974 H2987 0.962 . S
C2974 H2988 0.960 . S
C2975 C2972 1.511 . S
C2975 H2989 0.961 . S
C2975 H2990 0.961 . S
C2975 H2991 0.961 . S
C2976 C2977 1.370 . S
C2976 C2978 1.363 . S
C2976 H2992 0.931 . S
C2977 C2976 1.370 . S
C2977 C2981 1.408 . S
C2978 C2976 1.363 . S
C2978 C2979 1.370 . S
C2978 C2982 1.524 . S
C2979 C2971 1.503 . S
C2979 C2978 1.370 . S
C2979 C2980 1.403 . S
C2980 C2979 1.403 . S
C2980 C2981 1.404 . S
C2980 C2983 1.539 . S
C2981 C2977 1.408 . S
C2981 C2980 1.404 . S
C2981 H2993 0.930 . S
C2982 C2978 1.524 . S
C2982 H2994 0.956 . S
C2982 H2995 0.961 . S
C2982 H2996 0.961 . S
C2983 C2980 1.539 . S
C2983 H2997 0.958 . S
C2983 H2998 0.961 . S
C2983 H2999 0.960 . S
H2984 C2968 0.931 . S
H2985 C2973 0.929 . S
H2986 C2974 0.960 . S
H2987 C2974 0.962 . S
H2988 C2974 0.960 . S
H2989 C2975 0.961 . S
H2990 C2975 0.961 . S
H2991 C2975 0.961 . S
H2992 C2976 0.931 . S
H2993 C2981 0.930 . S
H2994 C2982 0.956 . S
H2995 C2982 0.961 . S
H2996 C2982 0.961 . S
H2997 C2983 0.958 . S
H2998 C2983 0.961 . S
H2999 C2983 0.960 . S
C3000 C3001 1.391 . S
C3000 C3002 1.394 . S
C3000 H3016 0.931 . S
C3001 C3000 1.391 . S
C3001 C3005 1.376 . S
C3002 C3000 1.394 . S
C3002 C3003 1.369 . S
C3002 C3006 1.531 . S
C3003 C3002 1.369 . S
C3003 C3004 1.410 . S
C3003 C3011 1.503 . S
C3004 C3003 1.410 . S
C3004 C3005 1.392 . S
C3004 C3007 1.511 . S
C3005 C3001 1.376 . S
C3005 C3004 1.392 . S
C3005 H3017 0.929 . S
C3006 C3002 1.531 . S
C3006 H3018 0.960 . S
C3006 H3019 0.962 . S
C3006 H3020 0.960 . S
C3007 C3004 1.511 . S
C3007 H3021 0.961 . S
C3007 H3022 0.961 . S
C3007 H3023 0.961 . S
C3008 C3009 1.370 . S
C3008 C3010 1.363 . S
C3008 H3024 0.931 . S
C3009 C3008 1.370 . S
C3009 C3013 1.408 . S
C3010 C3008 1.363 . S
C3010 C3011 1.370 . S
C3010 C3014 1.524 . S
C3011 C3003 1.503 . S
C3011 C3010 1.370 . S
C3011 C3012 1.403 . S
C3012 C3011 1.403 . S
C3012 C3013 1.404 . S
C3012 C3015 1.539 . S
C3013 C3009 1.408 . S
C3013 C3012 1.404 . S
C3013 H3025 0.930 . S
C3014 C3010 1.524 . S
C3014 H3026 0.956 . S
C3014 H3027 0.961 . S
C3014 H3028 0.961 . S
C3015 C3012 1.539 . S
C3015 H3029 0.958 . S
C3015 H3030 0.961 . S
C3015 H3031 0.960 . S
H3016 C3000 0.931 . S
H3017 C3005 0.929 . S
H3018 C3006 0.960 . S
H3019 C3006 0.962 . S
H3020 C3006 0.960 . S
H3021 C3007 0.961 . S
H3022 C3007 0.961 . S
H3023 C3007 0.961 . S
H3024 C3008 0.931 . S
H3025 C3013 0.930 . S
H3026 C3014 0.956 . S
H3027 C3014 0.961 . S
H3028 C3014 0.961 . S
H3029 C3015 0.958 . S
H3030 C3015 0.961 . S
H3031 C3015 0.960 . S
C3032 C3033 1.391 . S
C3032 C3034 1.394 . S
C3032 H3048 0.931 . S
C3033 C3032 1.391 . S
C3033 C3037 1.376 . S
C3034 C3032 1.394 . S
C3034 C3035 1.369 . S
C3034 C3038 1.531 . S
C3035 C3034 1.369 . S
C3035 C3036 1.410 . S
C3035 C3043 1.503 . S
C3036 C3035 1.410 . S
C3036 C3037 1.392 . S
C3036 C3039 1.511 . S
C3037 C3033 1.376 . S
C3037 C3036 1.392 . S
C3037 H3049 0.929 . S
C3038 C3034 1.531 . S
C3038 H3050 0.960 . S
C3038 H3051 0.962 . S
C3038 H3052 0.960 . S
C3039 C3036 1.511 . S
C3039 H3053 0.961 . S
C3039 H3054 0.961 . S
C3039 H3055 0.961 . S
C3040 C3041 1.370 . S
C3040 C3042 1.363 . S
C3040 H3056 0.931 . S
C3041 C3040 1.370 . S
C3041 C3045 1.408 . S
C3042 C3040 1.363 . S
C3042 C3043 1.370 . S
C3042 C3046 1.524 . S
C3043 C3035 1.503 . S
C3043 C3042 1.370 . S
C3043 C3044 1.403 . S
C3044 C3043 1.403 . S
C3044 C3045 1.404 . S
C3044 C3047 1.539 . S
C3045 C3041 1.408 . S
C3045 C3044 1.404 . S
C3045 H3057 0.930 . S
C3046 C3042 1.524 . S
C3046 H3058 0.956 . S
C3046 H3059 0.961 . S
C3046 H3060 0.961 . S
C3047 C3044 1.539 . S
C3047 H3061 0.958 . S
C3047 H3062 0.961 . S
C3047 H3063 0.960 . S
H3048 C3032 0.931 . S
H3049 C3037 0.929 . S
H3050 C3038 0.960 . S
H3051 C3038 0.962 . S
H3052 C3038 0.960 . S
H3053 C3039 0.961 . S
H3054 C3039 0.961 . S
H3055 C3039 0.961 . S
H3056 C3040 0.931 . S
H3057 C3045 0.930 . S
H3058 C3046 0.956 . S
H3059 C3046 0.961 . S
H3060 C3046 0.961 . S
H3061 C3047 0.958 . S
H3062 C3047 0.961 . S
H3063 C3047 0.960 . S
C3064 C3065 1.391 . S
C3064 C3066 1.394 . S
C3064 H3080 0.931 . S
C3065 C3064 1.391 . S
C3065 C3069 1.376 . S
C3066 C3064 1.394 . S
C3066 C3067 1.369 . S
C3066 C3070 1.531 . S
C3067 C3066 1.369 . S
C3067 C3068 1.410 . S
C3067 C3075 1.503 . S
C3068 C3067 1.410 . S
C3068 C3069 1.392 . S
C3068 C3071 1.511 . S
C3069 C3065 1.376 . S
C3069 C3068 1.392 . S
C3069 H3081 0.929 . S
C3070 C3066 1.531 . S
C3070 H3082 0.960 . S
C3070 H3083 0.962 . S
C3070 H3084 0.960 . S
C3071 C3068 1.511 . S
C3071 H3085 0.961 . S
C3071 H3086 0.961 . S
C3071 H3087 0.961 . S
C3072 C3073 1.370 . S
C3072 C3074 1.363 . S
C3072 H3088 0.931 . S
C3073 C3072 1.370 . S
C3073 C3077 1.408 . S
C3074 C3072 1.363 . S
C3074 C3075 1.370 . S
C3074 C3078 1.524 . S
C3075 C3067 1.503 . S
C3075 C3074 1.370 . S
C3075 C3076 1.403 . S
C3076 C3075 1.403 . S
C3076 C3077 1.404 . S
C3076 C3079 1.539 . S
C3077 C3073 1.408 . S
C3077 C3076 1.404 . S
C3077 H3089 0.930 . S
C3078 C3074 1.524 . S
C3078 H3090 0.956 . S
C3078 H3091 0.961 . S
C3078 H3092 0.961 . S
C3079 C3076 1.539 . S
C3079 H3093 0.958 . S
C3079 H3094 0.961 . S
C3079 H3095 0.960 . S
H3080 C3064 0.931 . S
H3081 C3069 0.929 . S
H3082 C3070 0.960 . S
H3083 C3070 0.962 . S
H3084 C3070 0.960 . S
H3085 C3071 0.961 . S
H3086 C3071 0.961 . S
H3087 C3071 0.961 . S
H3088 C3072 0.931 . S
H3089 C3077 0.930 . S
H3090 C3078 0.956 . S
H3091 C3078 0.961 . S
H3092 C3078 0.961 . S
H3093 C3079 0.958 . S
H3094 C3079 0.961 . S
H3095 C3079 0.960 . S
C3096 C3097 1.391 1_556 S
C3096 C3098 1.394 . S
C3096 H3112 0.931 . S
C3097 C3096 1.391 1_554 S
C3097 C3101 1.376 . S
C3098 C3096 1.394 . S
C3098 C3099 1.369 1_556 S
C3098 C3102 1.531 . S
C3099 C3098 1.369 1_554 S
C3099 C3100 1.410 . S
C3099 C3107 1.503 . S
C3100 C3099 1.410 . S
C3100 C3101 1.392 . S
C3100 C3103 1.511 1_565 S
C3101 C3097 1.376 . S
C3101 C3100 1.392 . S
C3101 H3113 0.929 . S
C3102 C3098 1.531 . S
C3102 H3114 0.984 . S
C3102 H3115 0.962 . S
C3102 H3116 0.960 . S
C3103 C3100 1.511 1_545 S
C3103 H3117 0.961 1_545 S
C3103 H3118 0.961 1_545 S
C3103 H3119 0.961 . S
C3104 C3105 1.370 1_565 S
C3104 C3106 1.363 . S
C3104 H3120 0.931 . S
C3105 C3104 1.370 1_545 S
C3105 C3109 1.408 . S
C3106 C3104 1.363 . S
C3106 C3107 1.370 . S
C3106 C3110 1.524 . S
C3107 C3099 1.503 . S
C3107 C3106 1.370 . S
C3107 C3108 1.403 1_565 S
C3108 C3107 1.403 1_545 S
C3108 C3109 1.404 . S
C3108 C3111 1.539 . S
C3109 C3105 1.408 . S
C3109 C3108 1.404 . S
C3109 H3121 0.930 . S
C3110 C3106 1.524 . S
C3110 H3122 0.956 1_554 S
C3110 H3123 0.961 . S
C3110 H3124 0.961 . S
C3111 C3108 1.539 . S
C3111 H3125 0.958 . S
C3111 H3126 0.961 . S
C3111 H3127 0.960 . S
H3112 C3096 0.931 . S
H3113 C3101 0.929 . S
H3114 C3102 0.984 . S
H3115 C3102 0.962 . S
H3116 C3102 0.960 . S
H3117 C3103 0.961 1_565 S
H3118 C3103 0.961 1_565 S
H3119 C3103 0.961 . S
H3120 C3104 0.931 . S
H3121 C3109 0.930 . S
H3122 C3110 0.956 1_556 S
H3123 C3110 0.961 . S
H3124 C3110 0.961 . S
H3125 C3111 0.958 . S
H3126 C3111 0.961 . S
H3127 C3111 0.960 . S
C3128 C3129 1.391 . S
C3128 C3130 1.394 . S
C3128 H3144 0.931 . S
C3129 C3128 1.391 . S
C3129 C3133 1.376 . S
C3130 C3128 1.394 . S
C3130 C3131 1.369 . S
C3130 C3134 1.531 . S
C3131 C3130 1.369 . S
C3131 C3132 1.410 . S
C3131 C3139 1.503 . S
C3132 C3131 1.410 . S
C3132 C3133 1.392 . S
C3132 C3135 1.511 . S
C3133 C3129 1.376 . S
C3133 C3132 1.392 . S
C3133 H3145 0.929 . S
C3134 C3130 1.531 . S
C3134 H3146 0.960 . S
C3134 H3147 0.962 . S
C3134 H3148 0.960 . S
C3135 C3132 1.511 . S
C3135 H3149 0.961 . S
C3135 H3150 0.961 . S
C3135 H3151 0.961 . S
C3136 C3137 1.370 . S
C3136 C3138 1.363 . S
C3136 H3152 0.931 . S
C3137 C3136 1.370 . S
C3137 C3141 1.408 . S
C3138 C3136 1.363 . S
C3138 C3139 1.370 . S
C3138 C3142 1.524 . S
C3139 C3131 1.503 . S
C3139 C3138 1.370 . S
C3139 C3140 1.403 . S
C3140 C3139 1.403 . S
C3140 C3141 1.404 . S
C3140 C3143 1.539 . S
C3141 C3137 1.408 . S
C3141 C3140 1.404 . S
C3141 H3153 0.930 . S
C3142 C3138 1.524 . S
C3142 H3154 0.956 . S
C3142 H3155 0.961 . S
C3142 H3156 0.961 . S
C3143 C3140 1.539 . S
C3143 H3157 0.958 . S
C3143 H3158 0.961 . S
C3143 H3159 0.960 . S
H3144 C3128 0.931 . S
H3145 C3133 0.929 . S
H3146 C3134 0.960 . S
H3147 C3134 0.962 . S
H3148 C3134 0.960 . S
H3149 C3135 0.961 . S
H3150 C3135 0.961 . S
H3151 C3135 0.961 . S
H3152 C3136 0.931 . S
H3153 C3141 0.930 . S
H3154 C3142 0.956 . S
H3155 C3142 0.961 . S
H3156 C3142 0.961 . S
H3157 C3143 0.958 . S
H3158 C3143 0.961 . S
H3159 C3143 0.960 . S
C3160 C3161 1.391 . S
C3160 C3162 1.394 . S
C3160 H3176 0.931 . S
C3161 C3160 1.391 . S
C3161 C3165 1.376 . S
C3162 C3160 1.394 . S
C3162 C3163 1.369 . S
C3162 C3166 1.531 . S
C3163 C3162 1.369 . S
C3163 C3164 1.410 . S
C3163 C3171 1.503 . S
C3164 C3163 1.410 . S
C3164 C3165 1.392 . S
C3164 C3167 1.511 . S
C3165 C3161 1.376 . S
C3165 C3164 1.392 . S
C3165 H3177 0.929 . S
C3166 C3162 1.531 . S
C3166 H3178 0.960 . S
C3166 H3179 0.962 . S
C3166 H3180 0.960 . S
C3167 C3164 1.511 . S
C3167 H3181 0.961 . S
C3167 H3182 0.961 . S
C3167 H3183 0.961 . S
C3168 C3169 1.370 . S
C3168 C3170 1.363 . S
C3168 H3184 0.931 . S
C3169 C3168 1.370 . S
C3169 C3173 1.408 . S
C3170 C3168 1.363 . S
C3170 C3171 1.370 . S
C3170 C3174 1.524 1_554 S
C3171 C3163 1.503 . S
C3171 C3170 1.370 . S
C3171 C3172 1.403 . S
C3172 C3171 1.403 . S
C3172 C3173 1.404 . S
C3172 C3175 1.539 . S
C3173 C3169 1.408 . S
C3173 C3172 1.404 . S
C3173 H3185 0.930 . S
C3174 C3170 1.524 1_556 S
C3174 H3186 0.956 . S
C3174 H3187 0.961 . S
C3174 H3188 0.961 . S
C3175 C3172 1.539 . S
C3175 H3189 0.958 . S
C3175 H3190 0.961 . S
C3175 H3191 0.960 . S
H3176 C3160 0.931 . S
H3177 C3165 0.929 . S
H3178 C3166 0.960 . S
H3179 C3166 0.962 . S
H3180 C3166 0.960 . S
H3181 C3167 0.961 . S
H3182 C3167 0.961 . S
H3183 C3167 0.961 . S
H3184 C3168 0.931 . S
H3185 C3173 0.930 . S
H3186 C3174 0.956 . S
H3187 C3174 0.961 . S
H3188 C3174 0.961 . S
H3189 C3175 0.958 . S
H3190 C3175 0.961 . S
H3191 C3175 0.960 . S
C3192 C3193 1.391 . S
C3192 C3194 1.394 . S
C3192 H3208 0.931 . S
C3193 C3192 1.391 . S
C3193 C3197 1.376 . S
C3194 C3192 1.394 . S
C3194 C3195 1.369 . S
C3194 C3198 1.531 . S
C3195 C3194 1.369 . S
C3195 C3196 1.410 . S
C3195 C3203 1.503 . S
C3196 C3195 1.410 . S
C3196 C3197 1.392 . S
C3196 C3199 1.511 . S
C3197 C3193 1.376 . S
C3197 C3196 1.392 . S
C3197 H3209 0.929 . S
C3198 C3194 1.531 . S
C3198 H3210 0.960 . S
C3198 H3211 0.962 . S
C3198 H3212 0.960 . S
C3199 C3196 1.511 . S
C3199 H3213 0.961 . S
C3199 H3214 0.961 . S
C3199 H3215 0.961 . S
C3200 C3201 1.370 . S
C3200 C3202 1.363 . S
C3200 H3216 0.931 . S
C3201 C3200 1.370 . S
C3201 C3205 1.408 . S
C3202 C3200 1.363 . S
C3202 C3203 1.370 . S
C3202 C3206 1.524 . S
C3203 C3195 1.503 . S
C3203 C3202 1.370 . S
C3203 C3204 1.403 . S
C3204 C3203 1.403 . S
C3204 C3205 1.404 . S
C3204 C3207 1.539 . S
C3205 C3201 1.408 . S
C3205 C3204 1.404 . S
C3205 H3217 0.930 . S
C3206 C3202 1.524 . S
C3206 H3218 0.956 . S
C3206 H3219 0.961 . S
C3206 H3220 0.961 . S
C3207 C3204 1.539 . S
C3207 H3221 0.958 . S
C3207 H3222 0.961 . S
C3207 H3223 0.960 . S
H3208 C3192 0.931 . S
H3209 C3197 0.929 . S
H3210 C3198 0.960 . S
H3211 C3198 0.962 . S
H3212 C3198 0.960 . S
H3213 C3199 0.961 . S
H3214 C3199 0.961 . S
H3215 C3199 0.961 . S
H3216 C3200 0.931 . S
H3217 C3205 0.930 . S
H3218 C3206 0.956 . S
H3219 C3206 0.961 . S
H3220 C3206 0.961 . S
H3221 C3207 0.958 . S
H3222 C3207 0.961 . S
H3223 C3207 0.960 . S
C3224 C3225 1.391 . S
C3224 C3226 1.394 . S
C3224 H3240 0.931 . S
C3225 C3224 1.391 . S
C3225 C3229 1.376 . S
C3226 C3224 1.394 . S
C3226 C3227 1.369 . S
C3226 C3230 1.531 . S
C3227 C3226 1.369 . S
C3227 C3228 1.410 . S
C3227 C3235 1.503 . S
C3228 C3227 1.410 . S
C3228 C3229 1.392 . S
C3228 C3231 1.511 . S
C3229 C3225 1.376 . S
C3229 C3228 1.392 . S
C3229 H3241 0.929 . S
C3230 C3226 1.531 . S
C3230 H3242 0.960 . S
C3230 H3243 0.962 . S
C3230 H3244 0.960 . S
C3231 C3228 1.511 . S
C3231 H3245 0.961 . S
C3231 H3246 0.961 . S
C3231 H3247 0.961 . S
C3232 C3233 1.370 . S
C3232 C3234 1.363 . S
C3232 H3248 0.931 . S
C3233 C3232 1.370 . S
C3233 C3237 1.408 . S
C3234 C3232 1.363 . S
C3234 C3235 1.370 . S
C3234 C3238 1.524 . S
C3235 C3227 1.503 . S
C3235 C3234 1.370 . S
C3235 C3236 1.403 . S
C3236 C3235 1.403 . S
C3236 C3237 1.404 . S
C3236 C3239 1.539 . S
C3237 C3233 1.408 . S
C3237 C3236 1.404 . S
C3237 H3249 0.930 . S
C3238 C3234 1.524 . S
C3238 H3250 0.956 . S
C3238 H3251 0.961 . S
C3238 H3252 0.961 . S
C3239 C3236 1.539 . S
C3239 H3253 0.958 . S
C3239 H3254 0.961 . S
C3239 H3255 0.960 . S
H3240 C3224 0.931 . S
H3241 C3229 0.929 . S
H3242 C3230 0.960 . S
H3243 C3230 0.962 . S
H3244 C3230 0.960 . S
H3245 C3231 0.961 . S
H3246 C3231 0.961 . S
H3247 C3231 0.961 . S
H3248 C3232 0.931 . S
H3249 C3237 0.930 . S
H3250 C3238 0.956 . S
H3251 C3238 0.961 . S
H3252 C3238 0.961 . S
H3253 C3239 0.958 . S
H3254 C3239 0.961 . S
H3255 C3239 0.960 . S
C3256 C3257 1.391 . S
C3256 C3258 1.394 . S
C3256 H3272 0.931 . S
C3257 C3256 1.391 . S
C3257 C3261 1.376 . S
C3258 C3256 1.394 . S
C3258 C3259 1.369 . S
C3258 C3262 1.531 . S
C3259 C3258 1.369 . S
C3259 C3260 1.410 . S
C3259 C3267 1.503 . S
C3260 C3259 1.410 . S
C3260 C3261 1.392 . S
C3260 C3263 1.511 . S
C3261 C3257 1.376 . S
C3261 C3260 1.392 . S
C3261 H3273 0.929 . S
C3262 C3258 1.531 . S
C3262 H3274 0.960 . S
C3262 H3275 0.962 . S
C3262 H3276 0.960 . S
C3263 C3260 1.511 . S
C3263 H3277 0.961 . S
C3263 H3278 0.961 . S
C3263 H3279 0.961 . S
C3264 C3265 1.370 . S
C3264 C3266 1.363 . S
C3264 H3280 0.931 . S
C3265 C3264 1.370 . S
C3265 C3269 1.408 . S
C3266 C3264 1.363 . S
C3266 C3267 1.370 . S
C3266 C3270 1.524 . S
C3267 C3259 1.503 . S
C3267 C3266 1.370 . S
C3267 C3268 1.403 . S
C3268 C3267 1.403 . S
C3268 C3269 1.404 . S
C3268 C3271 1.539 . S
C3269 C3265 1.408 . S
C3269 C3268 1.404 . S
C3269 H3281 0.930 . S
C3270 C3266 1.524 . S
C3270 H3282 0.956 . S
C3270 H3283 0.961 . S
C3270 H3284 0.961 . S
C3271 C3268 1.539 . S
C3271 H3285 0.958 . S
C3271 H3286 0.961 . S
C3271 H3287 0.960 . S
H3272 C3256 0.931 . S
H3273 C3261 0.929 . S
H3274 C3262 0.960 . S
H3275 C3262 0.962 . S
H3276 C3262 0.960 . S
H3277 C3263 0.961 . S
H3278 C3263 0.961 . S
H3279 C3263 0.961 . S
H3280 C3264 0.931 . S
H3281 C3269 0.930 . S
H3282 C3270 0.956 . S
H3283 C3270 0.961 . S
H3284 C3270 0.961 . S
H3285 C3271 0.958 . S
H3286 C3271 0.961 . S
H3287 C3271 0.960 . S
C3288 C3289 1.391 . S
C3288 C3290 1.394 . S
C3288 H3304 0.931 . S
C3289 C3288 1.391 . S
C3289 C3293 1.376 . S
C3290 C3288 1.394 . S
C3290 C3291 1.369 . S
C3290 C3294 1.531 . S
C3291 C3290 1.369 . S
C3291 C3292 1.410 . S
C3291 C3299 1.503 . S
C3292 C3291 1.410 . S
C3292 C3293 1.392 . S
C3292 C3295 1.511 . S
C3293 C3289 1.376 . S
C3293 C3292 1.392 . S
C3293 H3305 0.929 . S
C3294 C3290 1.531 . S
C3294 H3306 0.960 . S
C3294 H3307 0.962 . S
C3294 H3308 0.960 . S
C3295 C3292 1.511 . S
C3295 H3309 0.961 . S
C3295 H3310 0.961 . S
C3295 H3311 0.961 . S
C3296 C3297 1.370 . S
C3296 C3298 1.363 . S
C3296 H3312 0.931 . S
C3297 C3296 1.370 . S
C3297 C3301 1.408 . S
C3298 C3296 1.363 . S
C3298 C3299 1.370 . S
C3298 C3302 1.524 . S
C3299 C3291 1.503 . S
C3299 C3298 1.370 . S
C3299 C3300 1.403 . S
C3300 C3299 1.403 . S
C3300 C3301 1.404 . S
C3300 C3303 1.539 . S
C3301 C3297 1.408 . S
C3301 C3300 1.404 . S
C3301 H3313 0.930 . S
C3302 C3298 1.524 . S
C3302 H3314 0.956 . S
C3302 H3315 0.961 . S
C3302 H3316 0.961 . S
C3303 C3300 1.539 . S
C3303 H3317 0.958 . S
C3303 H3318 0.961 . S
C3303 H3319 0.960 . S
H3304 C3288 0.931 . S
H3305 C3293 0.929 . S
H3306 C3294 0.960 . S
H3307 C3294 0.962 . S
H3308 C3294 0.960 . S
H3309 C3295 0.961 . S
H3310 C3295 0.961 . S
H3311 C3295 0.961 . S
H3312 C3296 0.931 . S
H3313 C3301 0.930 . S
H3314 C3302 0.956 . S
H3315 C3302 0.961 . S
H3316 C3302 0.961 . S
H3317 C3303 0.958 . S
H3318 C3303 0.961 . S
H3319 C3303 0.960 . S
C3320 C3321 1.391 . S
C3320 C3322 1.394 . S
C3320 H3336 0.931 . S
C3321 C3320 1.391 . S
C3321 C3325 1.376 . S
C3322 C3320 1.394 . S
C3322 C3323 1.369 . S
C3322 C3326 1.531 . S
C3323 C3322 1.369 . S
C3323 C3324 1.410 . S
C3323 C3331 1.503 . S
C3324 C3323 1.410 . S
C3324 C3325 1.392 . S
C3324 C3327 1.511 . S
C3325 C3321 1.376 . S
C3325 C3324 1.392 . S
C3325 H3337 0.929 . S
C3326 C3322 1.531 . S
C3326 H3338 0.960 . S
C3326 H3339 0.962 . S
C3326 H3340 0.960 . S
C3327 C3324 1.511 . S
C3327 H3341 0.961 . S
C3327 H3342 0.961 . S
C3327 H3343 0.961 . S
C3328 C3329 1.370 . S
C3328 C3330 1.363 . S
C3328 H3344 0.931 . S
C3329 C3328 1.370 . S
C3329 C3333 1.408 . S
C3330 C3328 1.363 . S
C3330 C3331 1.370 . S
C3330 C3334 1.524 . S
C3331 C3323 1.503 . S
C3331 C3330 1.370 . S
C3331 C3332 1.403 . S
C3332 C3331 1.403 . S
C3332 C3333 1.404 . S
C3332 C3335 1.539 . S
C3333 C3329 1.408 . S
C3333 C3332 1.404 . S
C3333 H3345 0.930 . S
C3334 C3330 1.524 . S
C3334 H3346 0.956 . S
C3334 H3347 0.961 . S
C3334 H3348 0.961 . S
C3335 C3332 1.539 . S
C3335 H3349 0.958 . S
C3335 H3350 0.961 . S
C3335 H3351 0.960 . S
H3336 C3320 0.931 . S
H3337 C3325 0.929 . S
H3338 C3326 0.960 . S
H3339 C3326 0.962 . S
H3340 C3326 0.960 . S
H3341 C3327 0.961 . S
H3342 C3327 0.961 . S
H3343 C3327 0.961 . S
H3344 C3328 0.931 . S
H3345 C3333 0.930 . S
H3346 C3334 0.956 . S
H3347 C3334 0.961 . S
H3348 C3334 0.961 . S
H3349 C3335 0.958 . S
H3350 C3335 0.961 . S
H3351 C3335 0.960 . S
C3352 C3353 1.391 . S
C3352 C3354 1.394 . S
C3352 H3368 0.931 . S
C3353 C3352 1.391 . S
C3353 C3357 1.376 . S
C3354 C3352 1.394 . S
C3354 C3355 1.369 . S
C3354 C3358 1.531 . S
C3355 C3354 1.369 . S
C3355 C3356 1.410 . S
C3355 C3363 1.503 . S
C3356 C3355 1.410 . S
C3356 C3357 1.392 . S
C3356 C3359 1.511 . S
C3357 C3353 1.376 . S
C3357 C3356 1.392 . S
C3357 H3369 0.929 . S
C3358 C3354 1.531 . S
C3358 H3370 0.960 . S
C3358 H3371 0.962 . S
C3358 H3372 0.960 . S
C3359 C3356 1.511 . S
C3359 H3373 0.961 . S
C3359 H3374 0.961 . S
C3359 H3375 0.961 . S
C3360 C3361 1.370 . S
C3360 C3362 1.363 . S
C3360 H3376 0.931 . S
C3361 C3360 1.370 . S
C3361 C3365 1.408 . S
C3362 C3360 1.363 . S
C3362 C3363 1.370 . S
C3362 C3366 1.524 . S
C3363 C3355 1.503 . S
C3363 C3362 1.370 . S
C3363 C3364 1.403 . S
C3364 C3363 1.403 . S
C3364 C3365 1.404 . S
C3364 C3367 1.539 . S
C3365 C3361 1.408 . S
C3365 C3364 1.404 . S
C3365 H3377 0.930 . S
C3366 C3362 1.524 . S
C3366 H3378 0.956 . S
C3366 H3379 0.961 . S
C3366 H3380 0.961 . S
C3367 C3364 1.539 . S
C3367 H3381 0.958 . S
C3367 H3382 0.961 . S
C3367 H3383 0.960 . S
H3368 C3352 0.931 . S
H3369 C3357 0.929 . S
H3370 C3358 0.960 . S
H3371 C3358 0.962 . S
H3372 C3358 0.960 . S
H3373 C3359 0.961 . S
H3374 C3359 0.961 . S
H3375 C3359 0.961 . S
H3376 C3360 0.931 . S
H3377 C3365 0.930 . S
H3378 C3366 0.956 . S
H3379 C3366 0.961 . S
H3380 C3366 0.961 . S
H3381 C3367 0.958 . S
H3382 C3367 0.961 . S
H3383 C3367 0.960 . S
C3384 C3385 1.391 . S
C3384 C3386 1.394 . S
C3384 H3400 0.931 . S
C3385 C3384 1.391 . S
C3385 C3389 1.376 . S
C3386 C3384 1.394 . S
C3386 C3387 1.369 . S
C3386 C3390 1.531 . S
C3387 C3386 1.369 . S
C3387 C3388 1.410 . S
C3387 C3395 1.503 . S
C3388 C3387 1.410 . S
C3388 C3389 1.392 . S
C3388 C3391 1.511 . S
C3389 C3385 1.376 . S
C3389 C3388 1.392 . S
C3389 H3401 0.929 . S
C3390 C3386 1.531 . S
C3390 H3402 0.960 . S
C3390 H3403 0.962 . S
C3390 H3404 0.960 . S
C3391 C3388 1.511 . S
C3391 H3405 0.961 . S
C3391 H3406 0.961 . S
C3391 H3407 0.961 . S
C3392 C3393 1.370 . S
C3392 C3394 1.363 . S
C3392 H3408 0.931 . S
C3393 C3392 1.370 . S
C3393 C3397 1.408 . S
C3394 C3392 1.363 . S
C3394 C3395 1.370 . S
C3394 C3398 1.524 . S
C3395 C3387 1.503 . S
C3395 C3394 1.370 . S
C3395 C3396 1.403 . S
C3396 C3395 1.403 . S
C3396 C3397 1.404 . S
C3396 C3399 1.539 . S
C3397 C3393 1.408 . S
C3397 C3396 1.404 . S
C3397 H3409 0.930 1_556 S
C3398 C3394 1.524 . S
C3398 H3410 0.956 . S
C3398 H3411 0.961 . S
C3398 H3412 0.961 . S
C3399 C3396 1.539 . S
C3399 H3413 0.958 1_556 S
C3399 H3414 0.961 1_556 S
C3399 H3415 0.960 . S
H3400 C3384 0.931 . S
H3401 C3389 0.929 . S
H3402 C3390 0.960 . S
H3403 C3390 0.962 . S
H3404 C3390 0.960 . S
H3405 C3391 0.961 . S
H3406 C3391 0.961 . S
H3407 C3391 0.961 . S
H3408 C3392 0.931 . S
H3409 C3397 0.930 1_554 S
H3410 C3398 0.956 . S
H3411 C3398 0.961 . S
H3412 C3398 0.961 . S
H3413 C3399 0.958 1_554 S
H3414 C3399 0.961 1_554 S
H3415 C3399 0.960 . S
C3416 C3417 1.391 . S
C3416 C3418 1.394 . S
C3416 H3432 0.931 . S
C3417 C3416 1.391 . S
C3417 C3421 1.376 . S
C3418 C3416 1.394 . S
C3418 C3419 1.369 . S
C3418 C3422 1.531 . S
C3419 C3418 1.369 . S
C3419 C3420 1.410 . S
C3419 C3427 1.503 . S
C3420 C3419 1.410 . S
C3420 C3421 1.392 . S
C3420 C3423 1.511 . S
C3421 C3417 1.376 . S
C3421 C3420 1.392 . S
C3421 H3433 0.929 . S
C3422 C3418 1.531 . S
C3422 H3434 0.960 . S
C3422 H3435 0.962 . S
C3422 H3436 0.960 . S
C3423 C3420 1.511 . S
C3423 H3437 0.961 . S
C3423 H3438 0.961 . S
C3423 H3439 0.961 . S
C3424 C3425 1.370 . S
C3424 C3426 1.363 . S
C3424 H3440 0.931 . S
C3425 C3424 1.370 . S
C3425 C3429 1.408 . S
C3426 C3424 1.363 . S
C3426 C3427 1.370 . S
C3426 C3430 1.524 . S
C3427 C3419 1.503 . S
C3427 C3426 1.370 . S
C3427 C3428 1.403 . S
C3428 C3427 1.403 . S
C3428 C3429 1.404 . S
C3428 C3431 1.539 . S
C3429 C3425 1.408 . S
C3429 C3428 1.404 . S
C3429 H3441 0.930 . S
C3430 C3426 1.524 . S
C3430 H3442 0.956 . S
C3430 H3443 0.961 . S
C3430 H3444 0.961 . S
C3431 C3428 1.539 . S
C3431 H3445 0.958 . S
C3431 H3446 0.961 . S
C3431 H3447 0.960 . S
H3432 C3416 0.931 . S
H3433 C3421 0.929 . S
H3434 C3422 0.960 . S
H3435 C3422 0.962 . S
H3436 C3422 0.960 . S
H3437 C3423 0.961 . S
H3438 C3423 0.961 . S
H3439 C3423 0.961 . S
H3440 C3424 0.931 . S
H3441 C3429 0.930 . S
H3442 C3430 0.956 . S
H3443 C3430 0.961 . S
H3444 C3430 0.961 . S
H3445 C3431 0.958 . S
H3446 C3431 0.961 . S
H3447 C3431 0.960 . S
C3448 C3449 1.391 . S
C3448 C3450 1.394 . S
C3448 H3464 0.931 . S
C3449 C3448 1.391 . S
C3449 C3453 1.376 . S
C3450 C3448 1.394 . S
C3450 C3451 1.369 . S
C3450 C3454 1.531 . S
C3451 C3450 1.369 . S
C3451 C3452 1.410 . S
C3451 C3459 1.503 . S
C3452 C3451 1.410 . S
C3452 C3453 1.392 . S
C3452 C3455 1.511 . S
C3453 C3449 1.376 . S
C3453 C3452 1.392 . S
C3453 H3465 0.929 . S
C3454 C3450 1.531 . S
C3454 H3466 0.960 . S
C3454 H3467 0.962 . S
C3454 H3468 0.960 . S
C3455 C3452 1.511 . S
C3455 H3469 0.961 . S
C3455 H3470 0.961 . S
C3455 H3471 0.961 . S
C3456 C3457 1.370 . S
C3456 C3458 1.363 . S
C3456 H3472 0.931 . S
C3457 C3456 1.370 . S
C3457 C3461 1.408 . S
C3458 C3456 1.363 . S
C3458 C3459 1.370 . S
C3458 C3462 1.524 . S
C3459 C3451 1.503 . S
C3459 C3458 1.370 . S
C3459 C3460 1.403 . S
C3460 C3459 1.403 . S
C3460 C3461 1.404 . S
C3460 C3463 1.539 . S
C3461 C3457 1.408 . S
C3461 C3460 1.404 . S
C3461 H3473 0.930 . S
C3462 C3458 1.524 . S
C3462 H3474 0.956 . S
C3462 H3475 0.961 . S
C3462 H3476 0.961 . S
C3463 C3460 1.539 . S
C3463 H3477 0.958 . S
C3463 H3478 0.961 . S
C3463 H3479 0.960 . S
H3464 C3448 0.931 . S
H3465 C3453 0.929 . S
H3466 C3454 0.960 . S
H3467 C3454 0.962 . S
H3468 C3454 0.960 . S
H3469 C3455 0.961 . S
H3470 C3455 0.961 . S
H3471 C3455 0.961 . S
H3472 C3456 0.931 . S
H3473 C3461 0.930 . S
H3474 C3462 0.956 . S
H3475 C3462 0.961 . S
H3476 C3462 0.961 . S
H3477 C3463 0.958 . S
H3478 C3463 0.961 . S
H3479 C3463 0.960 . S
C3480 C3481 1.391 . S
C3480 C3482 1.394 . S
C3480 H3496 0.931 . S
C3481 C3480 1.391 . S
C3481 C3485 1.376 . S
C3482 C3480 1.394 . S
C3482 C3483 1.369 . S
C3482 C3486 1.531 . S
C3483 C3482 1.369 . S
C3483 C3484 1.410 . S
C3483 C3491 1.503 . S
C3484 C3483 1.410 . S
C3484 C3485 1.392 . S
C3484 C3487 1.511 . S
C3485 C3481 1.376 . S
C3485 C3484 1.392 . S
C3485 H3497 0.929 . S
C3486 C3482 1.531 . S
C3486 H3498 0.960 . S
C3486 H3499 0.962 . S
C3486 H3500 0.960 . S
C3487 C3484 1.511 . S
C3487 H3501 0.961 . S
C3487 H3502 0.961 . S
C3487 H3503 0.961 . S
C3488 C3489 1.370 . S
C3488 C3490 1.363 . S
C3488 H3504 0.931 . S
C3489 C3488 1.370 . S
C3489 C3493 1.408 . S
C3490 C3488 1.363 . S
C3490 C3491 1.370 . S
C3490 C3494 1.524 . S
C3491 C3483 1.503 . S
C3491 C3490 1.370 . S
C3491 C3492 1.403 . S
C3492 C3491 1.403 . S
C3492 C3493 1.404 . S
C3492 C3495 1.539 . S
C3493 C3489 1.408 . S
C3493 C3492 1.404 . S
C3493 H3505 0.930 . S
C3494 C3490 1.524 . S
C3494 H3506 0.956 . S
C3494 H3507 0.961 . S
C3494 H3508 0.961 . S
C3495 C3492 1.539 . S
C3495 H3509 0.958 . S
C3495 H3510 0.961 . S
C3495 H3511 0.960 . S
H3496 C3480 0.931 . S
H3497 C3485 0.929 . S
H3498 C3486 0.960 . S
H3499 C3486 0.962 . S
H3500 C3486 0.960 . S
H3501 C3487 0.961 . S
H3502 C3487 0.961 . S
H3503 C3487 0.961 . S
H3504 C3488 0.931 . S
H3505 C3493 0.930 . S
H3506 C3494 0.956 . S
H3507 C3494 0.961 . S
H3508 C3494 0.961 . S
H3509 C3495 0.958 . S
H3510 C3495 0.961 . S
H3511 C3495 0.960 . S
C3512 C3513 1.391 . S
C3512 C3514 1.394 . S
C3512 H3528 0.931 . S
C3513 C3512 1.391 . S
C3513 C3517 1.376 . S
C3514 C3512 1.394 . S
C3514 C3515 1.369 . S
C3514 C3518 1.531 . S
C3515 C3514 1.369 . S
C3515 C3516 1.410 . S
C3515 C3523 1.503 . S
C3516 C3515 1.410 . S
C3516 C3517 1.392 . S
C3516 C3519 1.511 . S
C3517 C3513 1.376 . S
C3517 C3516 1.392 . S
C3517 H3529 0.929 . S
C3518 C3514 1.531 . S
C3518 H3530 0.960 . S
C3518 H3531 0.962 . S
C3518 H3532 0.960 . S
C3519 C3516 1.511 . S
C3519 H3533 0.961 . S
C3519 H3534 0.961 . S
C3519 H3535 0.961 . S
C3520 C3521 1.370 . S
C3520 C3522 1.363 . S
C3520 H3536 0.931 . S
C3521 C3520 1.370 . S
C3521 C3525 1.408 . S
C3522 C3520 1.363 . S
C3522 C3523 1.370 . S
C3522 C3526 1.524 . S
C3523 C3515 1.503 . S
C3523 C3522 1.370 . S
C3523 C3524 1.403 . S
C3524 C3523 1.403 . S
C3524 C3525 1.404 . S
C3524 C3527 1.539 . S
C3525 C3521 1.408 . S
C3525 C3524 1.404 . S
C3525 H3537 0.930 . S
C3526 C3522 1.524 . S
C3526 H3538 0.956 . S
C3526 H3539 0.961 . S
C3526 H3540 0.961 . S
C3527 C3524 1.539 . S
C3527 H3541 0.958 . S
C3527 H3542 0.961 . S
C3527 H3543 0.960 . S
H3528 C3512 0.931 . S
H3529 C3517 0.929 . S
H3530 C3518 0.960 . S
H3531 C3518 0.962 . S
H3532 C3518 0.960 . S
H3533 C3519 0.961 . S
H3534 C3519 0.961 . S
H3535 C3519 0.961 . S
H3536 C3520 0.931 . S
H3537 C3525 0.930 . S
H3538 C3526 0.956 . S
H3539 C3526 0.961 . S
H3540 C3526 0.961 . S
H3541 C3527 0.958 . S
H3542 C3527 0.961 . S
H3543 C3527 0.960 . S
C3544 C3545 1.391 . S
C3544 C3546 1.394 . S
C3544 H3560 0.931 . S
C3545 C3544 1.391 . S
C3545 C3549 1.376 . S
C3546 C3544 1.394 . S
C3546 C3547 1.369 . S
C3546 C3550 1.531 . S
C3547 C3546 1.369 . S
C3547 C3548 1.410 . S
C3547 C3555 1.503 . S
C3548 C3547 1.410 . S
C3548 C3549 1.392 . S
C3548 C3551 1.511 . S
C3549 C3545 1.376 . S
C3549 C3548 1.392 . S
C3549 H3561 0.929 . S
C3550 C3546 1.531 . S
C3550 H3562 0.960 . S
C3550 H3563 0.962 . S
C3550 H3564 0.960 . S
C3551 C3548 1.511 . S
C3551 H3565 0.961 . S
C3551 H3566 0.961 . S
C3551 H3567 0.961 . S
C3552 C3553 1.370 . S
C3552 C3554 1.363 . S
C3552 H3568 0.931 . S
C3553 C3552 1.370 . S
C3553 C3557 1.408 . S
C3554 C3552 1.363 . S
C3554 C3555 1.370 . S
C3554 C3558 1.524 . S
C3555 C3547 1.503 . S
C3555 C3554 1.370 . S
C3555 C3556 1.403 . S
C3556 C3555 1.403 . S
C3556 C3557 1.404 . S
C3556 C3559 1.539 . S
C3557 C3553 1.408 . S
C3557 C3556 1.404 . S
C3557 H3569 0.930 . S
C3558 C3554 1.524 . S
C3558 H3570 0.956 . S
C3558 H3571 0.961 . S
C3558 H3572 0.961 . S
C3559 C3556 1.539 . S
C3559 H3573 0.958 . S
C3559 H3574 0.961 . S
C3559 H3575 0.960 . S
H3560 C3544 0.931 . S
H3561 C3549 0.929 . S
H3562 C3550 0.960 . S
H3563 C3550 0.962 . S
H3564 C3550 0.960 . S
H3565 C3551 0.961 . S
H3566 C3551 0.961 . S
H3567 C3551 0.961 . S
H3568 C3552 0.931 . S
H3569 C3557 0.930 . S
H3570 C3558 0.956 . S
H3571 C3558 0.961 . S
H3572 C3558 0.961 . S
H3573 C3559 0.958 . S
H3574 C3559 0.961 . S
H3575 C3559 0.960 . S
C3576 C3577 1.391 . S
C3576 C3578 1.394 . S
C3576 H3592 0.931 . S
C3577 C3576 1.391 . S
C3577 C3581 1.376 . S
C3578 C3576 1.394 . S
C3578 C3579 1.369 . S
C3578 C3582 1.531 . S
C3579 C3578 1.369 . S
C3579 C3580 1.410 . S
C3579 C3587 1.486 1_655 S
C3580 C3579 1.410 . S
C3580 C3581 1.392 . S
C3580 C3583 1.511 . S
C3581 C3577 1.376 . S
C3581 C3580 1.392 . S
C3581 H3593 0.929 . S
C3582 C3578 1.531 . S
C3582 H3594 0.960 1_655 S
C3582 H3595 0.962 . S
C3582 H3596 0.960 . S
C3583 C3580 1.511 . S
C3583 H3597 0.961 . S
C3583 H3598 0.961 . S
C3583 H3599 0.961 . S
C3584 C3585 1.370 . S
C3584 C3586 1.363 1_455 S
C3584 H3600 0.931 1_455 S
C3585 C3584 1.370 . S
C3585 C3589 1.408 . S
C3586 C3584 1.363 1_655 S
C3586 C3587 1.352 1_655 S
C3586 C3590 1.524 . S
C3587 C3579 1.486 1_455 S
C3587 C3586 1.352 1_455 S
C3587 C3588 1.440 . S
C3588 C3587 1.440 . S
C3588 C3589 1.404 . S
C3588 C3591 1.539 . S
C3589 C3585 1.408 . S
C3589 C3588 1.404 . S
C3589 H3601 0.930 . S
C3590 C3586 1.524 . S
C3590 H3602 0.956 . S
C3590 H3603 0.961 . S
C3590 H3604 0.961 . S
C3591 C3588 1.539 . S
C3591 H3605 0.958 . S
C3591 H3606 0.961 . S
C3591 H3607 0.960 . S
H3592 C3576 0.931 . S
H3593 C3581 0.929 . S
H3594 C3582 0.960 1_455 S
H3595 C3582 0.962 . S
H3596 C3582 0.960 . S
H3597 C3583 0.961 . S
H3598 C3583 0.961 . S
H3599 C3583 0.961 . S
H3600 C3584 0.931 1_655 S
H3601 C3589 0.930 . S
H3602 C3590 0.956 . S
H3603 C3590 0.961 . S
H3604 C3590 0.961 . S
H3605 C3591 0.958 . S
H3606 C3591 0.961 . S
H3607 C3591 0.960 . S
C3608 C3609 1.391 . S
C3608 C3610 1.394 . S
C3608 H3624 0.931 . S
C3609 C3608 1.391 . S
C3609 C3613 1.376 . S
C3610 C3608 1.394 . S
C3610 C3611 1.369 . S
C3610 C3614 1.531 . S
C3611 C3610 1.369 . S
C3611 C3612 1.410 . S
C3611 C3619 1.503 . S
C3612 C3611 1.410 . S
C3612 C3613 1.392 . S
C3612 C3615 1.511 . S
C3613 C3609 1.376 . S
C3613 C3612 1.392 . S
C3613 H3625 0.929 . S
C3614 C3610 1.531 . S
C3614 H3626 0.960 . S
C3614 H3627 0.962 . S
C3614 H3628 0.960 . S
C3615 C3612 1.511 . S
C3615 H3629 0.961 . S
C3615 H3630 0.961 . S
C3615 H3631 0.961 . S
C3616 C3617 1.370 . S
C3616 C3618 1.363 . S
C3616 H3632 0.931 . S
C3617 C3616 1.370 . S
C3617 C3621 1.408 . S
C3618 C3616 1.363 . S
C3618 C3619 1.370 . S
C3618 C3622 1.524 . S
C3619 C3611 1.503 . S
C3619 C3618 1.370 . S
C3619 C3620 1.403 . S
C3620 C3619 1.403 . S
C3620 C3621 1.404 . S
C3620 C3623 1.539 . S
C3621 C3617 1.408 . S
C3621 C3620 1.404 . S
C3621 H3633 0.930 . S
C3622 C3618 1.524 . S
C3622 H3634 0.956 . S
C3622 H3635 0.961 . S
C3622 H3636 0.961 . S
C3623 C3620 1.539 . S
C3623 H3637 0.958 . S
C3623 H3638 0.961 . S
C3623 H3639 0.960 . S
H3624 C3608 0.931 . S
H3625 C3613 0.929 . S
H3626 C3614 0.960 . S
H3627 C3614 0.962 . S
H3628 C3614 0.960 . S
H3629 C3615 0.961 . S
H3630 C3615 0.961 . S
H3631 C3615 0.961 . S
H3632 C3616 0.931 . S
H3633 C3621 0.930 . S
H3634 C3622 0.956 . S
H3635 C3622 0.961 . S
H3636 C3622 0.961 . S
H3637 C3623 0.958 . S
H3638 C3623 0.961 . S
H3639 C3623 0.960 . S
C3640 C3641 1.391 . S
C3640 C3642 1.394 . S
C3640 H3656 0.931 . S
C3641 C3640 1.391 . S
C3641 C3645 1.376 . S
C3642 C3640 1.394 . S
C3642 C3643 1.369 . S
C3642 C3646 1.531 . S
C3643 C3642 1.369 . S
C3643 C3644 1.410 . S
C3643 C3651 1.503 . S
C3644 C3643 1.410 . S
C3644 C3645 1.392 . S
C3644 C3647 1.511 . S
C3645 C3641 1.376 . S
C3645 C3644 1.392 . S
C3645 H3657 0.929 . S
C3646 C3642 1.531 . S
C3646 H3658 0.960 . S
C3646 H3659 0.962 . S
C3646 H3660 0.960 . S
C3647 C3644 1.511 . S
C3647 H3661 0.961 . S
C3647 H3662 0.961 . S
C3647 H3663 0.961 . S
C3648 C3649 1.370 . S
C3648 C3650 1.363 . S
C3648 H3664 0.931 . S
C3649 C3648 1.370 . S
C3649 C3653 1.408 . S
C3650 C3648 1.363 . S
C3650 C3651 1.370 . S
C3650 C3654 1.524 . S
C3651 C3643 1.503 . S
C3651 C3650 1.370 . S
C3651 C3652 1.403 . S
C3652 C3651 1.403 . S
C3652 C3653 1.404 . S
C3652 C3655 1.539 . S
C3653 C3649 1.408 . S
C3653 C3652 1.404 . S
C3653 H3665 0.930 . S
C3654 C3650 1.524 . S
C3654 H3666 0.956 . S
C3654 H3667 0.961 . S
C3654 H3668 0.961 . S
C3655 C3652 1.539 . S
C3655 H3669 0.958 . S
C3655 H3670 0.961 . S
C3655 H3671 0.960 . S
H3656 C3640 0.931 . S
H3657 C3645 0.929 . S
H3658 C3646 0.960 . S
H3659 C3646 0.962 . S
H3660 C3646 0.960 . S
H3661 C3647 0.961 . S
H3662 C3647 0.961 . S
H3663 C3647 0.961 . S
H3664 C3648 0.931 . S
H3665 C3653 0.930 . S
H3666 C3654 0.956 . S
H3667 C3654 0.961 . S
H3668 C3654 0.961 . S
H3669 C3655 0.958 . S
H3670 C3655 0.961 . S
H3671 C3655 0.960 . S
C3672 C3673 1.391 . S
C3672 C3674 1.394 . S
C3672 H3688 0.931 . S
C3673 C3672 1.391 . S
C3673 C3677 1.376 . S
C3674 C3672 1.394 . S
C3674 C3675 1.369 . S
C3674 C3678 1.531 . S
C3675 C3674 1.369 . S
C3675 C3676 1.410 . S
C3675 C3683 1.503 . S
C3676 C3675 1.410 . S
C3676 C3677 1.392 . S
C3676 C3679 1.511 . S
C3677 C3673 1.376 . S
C3677 C3676 1.392 . S
C3677 H3689 0.929 . S
C3678 C3674 1.531 . S
C3678 H3690 0.960 . S
C3678 H3691 0.962 . S
C3678 H3692 0.960 . S
C3679 C3676 1.511 . S
C3679 H3693 0.961 . S
C3679 H3694 0.961 . S
C3679 H3695 0.961 . S
C3680 C3681 1.370 . S
C3680 C3682 1.363 . S
C3680 H3696 0.931 . S
C3681 C3680 1.370 . S
C3681 C3685 1.408 . S
C3682 C3680 1.363 . S
C3682 C3683 1.370 . S
C3682 C3686 1.524 . S
C3683 C3675 1.503 . S
C3683 C3682 1.370 . S
C3683 C3684 1.403 . S
C3684 C3683 1.403 . S
C3684 C3685 1.404 . S
C3684 C3687 1.539 . S
C3685 C3681 1.408 . S
C3685 C3684 1.404 . S
C3685 H3697 0.930 . S
C3686 C3682 1.524 . S
C3686 H3698 0.956 . S
C3686 H3699 0.961 . S
C3686 H3700 0.961 . S
C3687 C3684 1.539 . S
C3687 H3701 0.958 . S
C3687 H3702 0.961 . S
C3687 H3703 0.960 . S
H3688 C3672 0.931 . S
H3689 C3677 0.929 . S
H3690 C3678 0.960 . S
H3691 C3678 0.962 . S
H3692 C3678 0.960 . S
H3693 C3679 0.961 . S
H3694 C3679 0.961 . S
H3695 C3679 0.961 . S
H3696 C3680 0.931 . S
H3697 C3685 0.930 . S
H3698 C3686 0.956 . S
H3699 C3686 0.961 . S
H3700 C3686 0.961 . S
H3701 C3687 0.958 . S
H3702 C3687 0.961 . S
H3703 C3687 0.960 . S
C3704 C3705 1.391 . S
C3704 C3706 1.394 . S
C3704 H3720 0.931 . S
C3705 C3704 1.391 . S
C3705 C3709 1.376 . S
C3706 C3704 1.394 . S
C3706 C3707 1.369 . S
C3706 C3710 1.531 . S
C3707 C3706 1.369 . S
C3707 C3708 1.410 . S
C3707 C3715 1.503 . S
C3708 C3707 1.410 . S
C3708 C3709 1.392 . S
C3708 C3711 1.561 . S
C3709 C3705 1.376 . S
C3709 C3708 1.392 . S
C3709 H3721 0.929 . S
C3710 C3706 1.531 . S
C3710 H3722 0.960 . S
C3710 H3723 0.962 . S
C3710 H3724 0.960 . S
C3711 C3708 1.561 . S
C3711 H3725 0.941 1_655 S
C3711 H3726 0.941 1_655 S
C3711 H3727 0.946 1_655 S
C3712 C3713 1.370 . S
C3712 C3714 1.363 . S
C3712 H3728 0.931 . S
C3713 C3712 1.370 . S
C3713 C3717 1.408 . S
C3714 C3712 1.363 . S
C3714 C3715 1.370 . S
C3714 C3718 1.524 . S
C3715 C3707 1.503 . S
C3715 C3714 1.370 . S
C3715 C3716 1.403 . S
C3716 C3715 1.403 . S
C3716 C3717 1.404 . S
C3716 C3719 1.539 . S
C3717 C3713 1.408 . S
C3717 C3716 1.404 . S
C3717 H3729 0.930 . S
C3718 C3714 1.524 . S
C3718 H3730 0.956 . S
C3718 H3731 0.961 . S
C3718 H3732 0.961 . S
C3719 C3716 1.539 . S
C3719 H3733 0.958 . S
C3719 H3734 0.961 . S
C3719 H3735 0.960 . S
H3720 C3704 0.931 . S
H3721 C3709 0.929 . S
H3722 C3710 0.960 . S
H3723 C3710 0.962 . S
H3724 C3710 0.960 . S
H3725 C3711 0.941 1_455 S
H3726 C3711 0.941 1_455 S
H3727 C3711 0.946 1_455 S
H3728 C3712 0.931 . S
H3729 C3717 0.930 . S
H3730 C3718 0.956 . S
H3731 C3718 0.961 . S
H3732 C3718 0.961 . S
H3733 C3719 0.958 . S
H3734 C3719 0.961 . S
H3735 C3719 0.960 . S
C3736 C3737 1.391 . S
C3736 C3738 1.394 . S
C3736 H3752 0.931 . S
C3737 C3736 1.391 . S
C3737 C3741 1.376 . S
C3738 C3736 1.394 . S
C3738 C3739 1.369 . S
C3738 C3742 1.531 . S
C3739 C3738 1.369 . S
C3739 C3740 1.410 . S
C3739 C3747 1.503 . S
C3740 C3739 1.410 . S
C3740 C3741 1.392 . S
C3740 C3743 1.511 . S
C3741 C3737 1.376 . S
C3741 C3740 1.392 . S
C3741 H3753 0.929 . S
C3742 C3738 1.531 . S
C3742 H3754 0.960 . S
C3742 H3755 0.962 . S
C3742 H3756 0.960 . S
C3743 C3740 1.511 . S
C3743 H3757 0.961 . S
C3743 H3758 0.961 . S
C3743 H3759 0.961 . S
C3744 C3745 1.370 . S
C3744 C3746 1.363 . S
C3744 H3760 0.931 . S
C3745 C3744 1.370 . S
C3745 C3749 1.408 . S
C3746 C3744 1.363 . S
C3746 C3747 1.370 . S
C3746 C3750 1.524 . S
C3747 C3739 1.503 . S
C3747 C3746 1.370 . S
C3747 C3748 1.403 . S
C3748 C3747 1.403 . S
C3748 C3749 1.404 . S
C3748 C3751 1.539 . S
C3749 C3745 1.408 . S
C3749 C3748 1.404 . S
C3749 H3761 0.930 . S
C3750 C3746 1.524 . S
C3750 H3762 0.956 . S
C3750 H3763 0.961 . S
C3750 H3764 0.961 . S
C3751 C3748 1.539 . S
C3751 H3765 0.958 . S
C3751 H3766 0.961 . S
C3751 H3767 0.960 . S
H3752 C3736 0.931 . S
H3753 C3741 0.929 . S
H3754 C3742 0.960 . S
H3755 C3742 0.962 . S
H3756 C3742 0.960 . S
H3757 C3743 0.961 . S
H3758 C3743 0.961 . S
H3759 C3743 0.961 . S
H3760 C3744 0.931 . S
H3761 C3749 0.930 . S
H3762 C3750 0.956 . S
H3763 C3750 0.961 . S
H3764 C3750 0.961 . S
H3765 C3751 0.958 . S
H3766 C3751 0.961 . S
H3767 C3751 0.960 . S
C3768 C3769 1.391 . S
C3768 C3770 1.394 . S
C3768 H3784 0.931 . S
C3769 C3768 1.391 . S
C3769 C3773 1.376 . S
C3770 C3768 1.394 . S
C3770 C3771 1.369 . S
C3770 C3774 1.531 . S
C3771 C3770 1.369 . S
C3771 C3772 1.410 . S
C3771 C3779 1.503 . S
C3772 C3771 1.410 . S
C3772 C3773 1.392 . S
C3772 C3775 1.511 . S
C3773 C3769 1.376 . S
C3773 C3772 1.392 . S
C3773 H3785 0.929 . S
C3774 C3770 1.531 . S
C3774 H3786 0.960 . S
C3774 H3787 0.962 . S
C3774 H3788 0.960 . S
C3775 C3772 1.511 . S
C3775 H3789 0.961 . S
C3775 H3790 0.961 . S
C3775 H3791 0.961 . S
C3776 C3777 1.370 . S
C3776 C3778 1.363 . S
C3776 H3792 0.931 . S
C3777 C3776 1.370 . S
C3777 C3781 1.408 . S
C3778 C3776 1.363 . S
C3778 C3779 1.370 . S
C3778 C3782 1.524 . S
C3779 C3771 1.503 . S
C3779 C3778 1.370 . S
C3779 C3780 1.403 . S
C3780 C3779 1.403 . S
C3780 C3781 1.404 . S
C3780 C3783 1.539 . S
C3781 C3777 1.408 . S
C3781 C3780 1.404 . S
C3781 H3793 0.930 . S
C3782 C3778 1.524 . S
C3782 H3794 0.956 . S
C3782 H3795 0.961 . S
C3782 H3796 0.961 . S
C3783 C3780 1.539 . S
C3783 H3797 0.958 . S
C3783 H3798 0.961 . S
C3783 H3799 0.960 . S
H3784 C3768 0.931 . S
H3785 C3773 0.929 . S
H3786 C3774 0.960 . S
H3787 C3774 0.962 . S
H3788 C3774 0.960 . S
H3789 C3775 0.961 . S
H3790 C3775 0.961 . S
H3791 C3775 0.961 . S
H3792 C3776 0.931 . S
H3793 C3781 0.930 . S
H3794 C3782 0.956 . S
H3795 C3782 0.961 . S
H3796 C3782 0.961 . S
H3797 C3783 0.958 . S
H3798 C3783 0.961 . S
H3799 C3783 0.960 . S
C3800 C3801 1.391 . S
C3800 C3802 1.394 . S
C3800 H3816 0.931 . S
C3801 C3800 1.391 . S
C3801 C3805 1.376 . S
C3802 C3800 1.394 . S
C3802 C3803 1.369 . S
C3802 C3806 1.531 . S
C3803 C3802 1.369 . S
C3803 C3804 1.410 . S
C3803 C3811 1.503 . S
C3804 C3803 1.410 . S
C3804 C3805 1.392 . S
C3804 C3807 1.511 . S
C3805 C3801 1.376 . S
C3805 C3804 1.392 . S
C3805 H3817 0.929 . S
C3806 C3802 1.531 . S
C3806 H3818 0.960 . S
C3806 H3819 0.962 . S
C3806 H3820 0.960 . S
C3807 C3804 1.511 . S
C3807 H3821 0.961 . S
C3807 H3822 0.961 . S
C3807 H3823 0.961 . S
C3808 C3809 1.355 1_565 S
C3808 C3810 1.363 . S
C3808 H3824 0.931 . S
C3809 C3808 1.355 1_545 S
C3809 C3813 1.416 . S
C3810 C3808 1.363 . S
C3810 C3811 1.370 . S
C3810 C3814 1.524 . S
C3811 C3803 1.503 . S
C3811 C3810 1.370 . S
C3811 C3812 1.403 . S
C3812 C3811 1.403 . S
C3812 C3813 1.404 1_565 S
C3812 C3815 1.539 1_565 S
C3813 C3809 1.416 . S
C3813 C3812 1.404 1_545 S
C3813 H3825 0.930 . S
C3814 C3810 1.524 . S
C3814 H3826 0.956 . S
C3814 H3827 0.961 . S
C3814 H3828 0.961 . S
C3815 C3812 1.539 1_545 S
C3815 H3829 0.958 . S
C3815 H3830 0.961 . S
C3815 H3831 0.960 1_545 S
H3816 C3800 0.931 . S
H3817 C3805 0.929 . S
H3818 C3806 0.960 . S
H3819 C3806 0.962 . S
H3820 C3806 0.960 . S
H3821 C3807 0.961 . S
H3822 C3807 0.961 . S
H3823 C3807 0.961 . S
H3824 C3808 0.931 . S
H3825 C3813 0.930 . S
H3826 C3814 0.956 . S
H3827 C3814 0.961 . S
H3828 C3814 0.961 . S
H3829 C3815 0.958 . S
H3830 C3815 0.961 . S
H3831 C3815 0.960 1_565 S
C3832 C3833 1.391 . S
C3832 C3834 1.394 . S
C3832 H3848 0.931 . S
C3833 C3832 1.391 . S
C3833 C3837 1.376 . S
C3834 C3832 1.394 . S
C3834 C3835 1.369 . S
C3834 C3838 1.531 . S
C3835 C3834 1.369 . S
C3835 C3836 1.410 . S
C3835 C3843 1.503 . S
C3836 C3835 1.410 . S
C3836 C3837 1.392 . S
C3836 C3839 1.511 . S
C3837 C3833 1.376 . S
C3837 C3836 1.392 . S
C3837 H3849 0.929 . S
C3838 C3834 1.531 . S
C3838 H3850 0.960 . S
C3838 H3851 0.962 . S
C3838 H3852 0.960 . S
C3839 C3836 1.511 . S
C3839 H3853 0.961 . S
C3839 H3854 0.961 . S
C3839 H3855 0.961 . S
C3840 C3841 1.370 . S
C3840 C3842 1.363 . S
C3840 H3856 0.931 . S
C3841 C3840 1.370 . S
C3841 C3845 1.408 . S
C3842 C3840 1.363 . S
C3842 C3843 1.370 . S
C3842 C3846 1.524 . S
C3843 C3835 1.503 . S
C3843 C3842 1.370 . S
C3843 C3844 1.403 . S
C3844 C3843 1.403 . S
C3844 C3845 1.404 . S
C3844 C3847 1.539 . S
C3845 C3841 1.408 . S
C3845 C3844 1.404 . S
C3845 H3857 0.930 . S
C3846 C3842 1.524 . S
C3846 H3858 0.956 . S
C3846 H3859 0.961 . S
C3846 H3860 0.961 . S
C3847 C3844 1.539 . S
C3847 H3861 0.958 . S
C3847 H3862 0.961 . S
C3847 H3863 0.960 . S
H3848 C3832 0.931 . S
H3849 C3837 0.929 . S
H3850 C3838 0.960 . S
H3851 C3838 0.962 . S
H3852 C3838 0.960 . S
H3853 C3839 0.961 . S
H3854 C3839 0.961 . S
H3855 C3839 0.961 . S
H3856 C3840 0.931 . S
H3857 C3845 0.930 . S
H3858 C3846 0.956 . S
H3859 C3846 0.961 . S
H3860 C3846 0.961 . S
H3861 C3847 0.958 . S
H3862 C3847 0.961 . S
H3863 C3847 0.960 . S
C3864 C3865 1.391 . S
C3864 C3866 1.394 . S
C3864 H3880 0.931 1_554 S
C3865 C3864 1.391 . S
C3865 C3869 1.376 . S
C3866 C3864 1.394 . S
C3866 C3867 1.369 . S
C3866 C3870 1.531 1_554 S
C3867 C3866 1.369 . S
C3867 C3868 1.410 . S
C3867 C3875 1.503 . S
C3868 C3867 1.410 . S
C3868 C3869 1.392 . S
C3868 C3871 1.511 . S
C3869 C3865 1.376 . S
C3869 C3868 1.392 . S
C3869 H3881 0.929 . S
C3870 C3866 1.531 1_556 S
C3870 H3882 0.960 . S
C3870 H3883 0.962 . S
C3870 H3884 0.960 . S
C3871 C3868 1.511 . S
C3871 H3885 0.961 . S
C3871 H3886 0.961 . S
C3871 H3887 0.961 . S
C3872 C3873 1.370 . S
C3872 C3874 1.363 . S
C3872 H3888 0.931 1_554 S
C3873 C3872 1.370 . S
C3873 C3877 1.408 . S
C3874 C3872 1.363 . S
C3874 C3875 1.370 . S
C3874 C3878 1.524 1_554 S
C3875 C3867 1.503 . S
C3875 C3874 1.370 . S
C3875 C3876 1.403 . S
C3876 C3875 1.403 . S
C3876 C3877 1.404 . S
C3876 C3879 1.539 . S
C3877 C3873 1.408 . S
C3877 C3876 1.404 . S
C3877 H3889 0.930 . S
C3878 C3874 1.524 1_556 S
C3878 H3890 0.956 . S
C3878 H3891 0.961 . S
C3878 H3892 0.961 . S
C3879 C3876 1.539 . S
C3879 H3893 0.958 . S
C3879 H3894 0.961 . S
C3879 H3895 0.960 . S
H3880 C3864 0.931 1_556 S
H3881 C3869 0.929 . S
H3882 C3870 0.960 . S
H3883 C3870 0.962 . S
H3884 C3870 0.960 . S
H3885 C3871 0.961 . S
H3886 C3871 0.961 . S
H3887 C3871 0.961 . S
H3888 C3872 0.931 1_556 S
H3889 C3877 0.930 . S
H3890 C3878 0.956 . S
H3891 C3878 0.961 . S
H3892 C3878 0.961 . S
H3893 C3879 0.958 . S
H3894 C3879 0.961 . S
H3895 C3879 0.960 . S
C3896 C3897 1.391 . S
C3896 C3898 1.394 . S
C3896 H3912 0.931 . S
C3897 C3896 1.391 . S
C3897 C3901 1.376 . S
C3898 C3896 1.394 . S
C3898 C3899 1.369 . S
C3898 C3902 1.531 . S
C3899 C3898 1.369 . S
C3899 C3900 1.410 . S
C3899 C3907 1.503 . S
C3900 C3899 1.410 . S
C3900 C3901 1.392 . S
C3900 C3903 1.511 . S
C3901 C3897 1.376 . S
C3901 C3900 1.392 . S
C3901 H3913 0.929 . S
C3902 C3898 1.531 . S
C3902 H3914 0.960 . S
C3902 H3915 0.962 . S
C3902 H3916 0.960 . S
C3903 C3900 1.511 . S
C3903 H3917 0.961 . S
C3903 H3918 0.961 . S
C3903 H3919 0.961 . S
C3904 C3905 1.370 . S
C3904 C3906 1.363 . S
C3904 H3920 0.931 . S
C3905 C3904 1.370 . S
C3905 C3909 1.408 . S
C3906 C3904 1.363 . S
C3906 C3907 1.370 . S
C3906 C3910 1.524 . S
C3907 C3899 1.503 . S
C3907 C3906 1.370 . S
C3907 C3908 1.403 . S
C3908 C3907 1.403 . S
C3908 C3909 1.404 . S
C3908 C3911 1.539 . S
C3909 C3905 1.408 . S
C3909 C3908 1.404 . S
C3909 H3921 0.930 . S
C3910 C3906 1.524 . S
C3910 H3922 0.956 . S
C3910 H3923 0.961 . S
C3910 H3924 0.961 . S
C3911 C3908 1.539 . S
C3911 H3925 0.958 . S
C3911 H3926 0.961 . S
C3911 H3927 0.960 . S
H3912 C3896 0.931 . S
H3913 C3901 0.929 . S
H3914 C3902 0.960 . S
H3915 C3902 0.962 . S
H3916 C3902 0.960 . S
H3917 C3903 0.961 . S
H3918 C3903 0.961 . S
H3919 C3903 0.961 . S
H3920 C3904 0.931 . S
H3921 C3909 0.930 . S
H3922 C3910 0.956 . S
H3923 C3910 0.961 . S
H3924 C3910 0.961 . S
H3925 C3911 0.958 . S
H3926 C3911 0.961 . S
H3927 C3911 0.960 . S
C3928 C3929 1.391 . S
C3928 C3930 1.394 . S
C3928 H3944 0.931 . S
C3929 C3928 1.391 . S
C3929 C3933 1.376 1_554 S
C3930 C3928 1.394 . S
C3930 C3931 1.369 1_554 S
C3930 C3934 1.531 . S
C3931 C3930 1.369 1_556 S
C3931 C3932 1.410 . S
C3931 C3939 1.503 . S
C3932 C3931 1.410 . S
C3932 C3933 1.392 . S
C3932 C3935 1.511 . S
C3933 C3929 1.376 1_556 S
C3933 C3932 1.392 . S
C3933 H3945 0.929 . S
C3934 C3930 1.531 . S
C3934 H3946 0.960 . S
C3934 H3947 0.962 . S
C3934 H3948 0.960 . S
C3935 C3932 1.511 . S
C3935 H3949 0.961 . S
C3935 H3950 0.961 . S
C3935 H3951 0.961 . S
C3936 C3937 1.370 . S
C3936 C3938 1.376 . S
C3936 H3952 0.931 . S
C3937 C3936 1.370 . S
C3937 C3941 1.408 . S
C3938 C3936 1.376 . S
C3938 C3939 1.389 . S
C3938 C3942 1.494 1_556 S
C3939 C3931 1.503 . S
C3939 C3938 1.389 . S
C3939 C3940 1.403 . S
C3940 C3939 1.403 . S
C3940 C3941 1.404 . S
C3940 C3943 1.539 . S
C3941 C3937 1.408 . S
C3941 C3940 1.404 . S
C3941 H3953 0.930 . S
C3942 C3938 1.494 1_554 S
C3942 H3954 0.956 . S
C3942 H3955 0.961 . S
C3942 H3956 0.961 . S
C3943 C3940 1.539 . S
C3943 H3957 0.958 . S
C3943 H3958 0.961 . S
C3943 H3959 0.960 . S
H3944 C3928 0.931 . S
H3945 C3933 0.929 . S
H3946 C3934 0.960 . S
H3947 C3934 0.962 . S
H3948 C3934 0.960 . S
H3949 C3935 0.961 . S
H3950 C3935 0.961 . S
H3951 C3935 0.961 . S
H3952 C3936 0.931 . S
H3953 C3941 0.930 . S
H3954 C3942 0.956 . S
H3955 C3942 0.961 . S
H3956 C3942 0.961 . S
H3957 C3943 0.958 . S
H3958 C3943 0.961 . S
H3959 C3943 0.960 . S
C3960 C3961 1.391 . S
C3960 C3962 1.394 . S
C3960 H3976 0.931 . S
C3961 C3960 1.391 . S
C3961 C3965 1.376 . S
C3962 C3960 1.394 . S
C3962 C3963 1.369 . S
C3962 C3966 1.531 . S
C3963 C3962 1.369 . S
C3963 C3964 1.410 . S
C3963 C3971 1.503 . S
C3964 C3963 1.410 . S
C3964 C3965 1.392 . S
C3964 C3967 1.511 . S
C3965 C3961 1.376 . S
C3965 C3964 1.392 . S
C3965 H3977 0.929 . S
C3966 C3962 1.531 . S
C3966 H3978 0.960 . S
C3966 H3979 0.962 . S
C3966 H3980 0.960 . S
C3967 C3964 1.511 . S
C3967 H3981 0.961 . S
C3967 H3982 0.961 . S
C3967 H3983 0.961 . S
C3968 C3969 1.370 . S
C3968 C3970 1.363 . S
C3968 H3984 0.931 . S
C3969 C3968 1.370 . S
C3969 C3973 1.408 . S
C3970 C3968 1.363 . S
C3970 C3971 1.370 . S
C3970 C3974 1.524 . S
C3971 C3963 1.503 . S
C3971 C3970 1.370 . S
C3971 C3972 1.403 . S
C3972 C3971 1.403 . S
C3972 C3973 1.404 . S
C3972 C3975 1.539 . S
C3973 C3969 1.408 . S
C3973 C3972 1.404 . S
C3973 H3985 0.930 . S
C3974 C3970 1.524 . S
C3974 H3986 0.956 . S
C3974 H3987 0.961 . S
C3974 H3988 0.961 . S
C3975 C3972 1.539 . S
C3975 H3989 0.958 . S
C3975 H3990 0.961 . S
C3975 H3991 0.960 . S
H3976 C3960 0.931 . S
H3977 C3965 0.929 . S
H3978 C3966 0.960 . S
H3979 C3966 0.962 . S
H3980 C3966 0.960 . S
H3981 C3967 0.961 . S
H3982 C3967 0.961 . S
H3983 C3967 0.961 . S
H3984 C3968 0.931 . S
H3985 C3973 0.930 . S
H3986 C3974 0.956 . S
H3987 C3974 0.961 . S
H3988 C3974 0.961 . S
H3989 C3975 0.958 . S
H3990 C3975 0.961 . S
H3991 C3975 0.960 . S
C3992 C3993 1.391 . S
C3992 C3994 1.394 . S
C3992 H4008 0.931 . S
C3993 C3992 1.391 . S
C3993 C3997 1.376 . S
C3994 C3992 1.394 . S
C3994 C3995 1.369 . S
C3994 C3998 1.531 . S
C3995 C3994 1.369 . S
C3995 C3996 1.410 . S
C3995 C4003 1.503 . S
C3996 C3995 1.410 . S
C3996 C3997 1.392 . S
C3996 C3999 1.511 . S
C3997 C3993 1.376 . S
C3997 C3996 1.392 . S
C3997 H4009 0.929 . S
C3998 C3994 1.531 . S
C3998 H4010 0.960 . S
C3998 H4011 0.962 . S
C3998 H4012 0.960 . S
C3999 C3996 1.511 . S
C3999 H4013 0.961 . S
C3999 H4014 0.961 . S
C3999 H4015 0.961 . S
C4000 C4001 1.370 . S
C4000 C4002 1.363 . S
C4000 H4016 0.931 . S
C4001 C4000 1.370 . S
C4001 C4005 1.408 . S
C4002 C4000 1.363 . S
C4002 C4003 1.370 . S
C4002 C4006 1.524 . S
C4003 C3995 1.503 . S
C4003 C4002 1.370 . S
C4003 C4004 1.403 . S
C4004 C4003 1.403 . S
C4004 C4005 1.404 . S
C4004 C4007 1.539 . S
C4005 C4001 1.408 . S
C4005 C4004 1.404 . S
C4005 H4017 0.930 . S
C4006 C4002 1.524 . S
C4006 H4018 0.956 . S
C4006 H4019 0.961 . S
C4006 H4020 0.961 . S
C4007 C4004 1.539 . S
C4007 H4021 0.958 . S
C4007 H4022 0.961 . S
C4007 H4023 0.960 . S
H4008 C3992 0.931 . S
H4009 C3997 0.929 . S
H4010 C3998 0.960 . S
H4011 C3998 0.962 . S
H4012 C3998 0.960 . S
H4013 C3999 0.961 . S
H4014 C3999 0.961 . S
H4015 C3999 0.961 . S
H4016 C4000 0.931 . S
H4017 C4005 0.930 . S
H4018 C4006 0.956 . S
H4019 C4006 0.961 . S
H4020 C4006 0.961 . S
H4021 C4007 0.958 . S
H4022 C4007 0.961 . S
H4023 C4007 0.960 . S
C953 C101 1.056 . S
C961 C320 1.067 . S
C985 C57 1.398 . S
C993 C354 1.402 . S
C1017 C73 0.711 . S
C1025 C423 0.679 . S
C1057 C461 0.903 . S
C1049 C78 0.886 . S
C1081 C21 1.399 . S
C1089 C501 1.404 . S
C1121 C520 0.323 . S
C1113 C31 0.338 . S
C1153 C554 1.313 . S
C1145 C49 1.266 . S
C1177 C0 1.541 . S
C1185 C623 1.605 . S
C1217 C329 2.458 . S
C1209 C218 2.484 . S
C1241 C229 1.019 . S
C1249 C381 0.971 . S
C1281 C394 1.374 . S
C1273 C257 1.379 . S
C1313 C463 1.429 . S
C1305 C164 1.391 . S
C1337 C216 1.791 . S
C1345 C503 1.953 . S
C1377 C529 1.840 . S
C1369 C231 1.882 . S
C1409 C581 0.374 . S
C1401 C255 0.388 . S
C1441 C594 2.210 . S
C1433 C166 2.229 . S
C1473 C324 2.466 . S
C1465 C143 2.426 . S
C1497 C265 1.972 . S
C1505 C634 1.992 . S
C1537 C684 2.630 . S
C1529 C299 2.606 . S
C1569 C743 1.666 1_655 S
C1561 C291 1.558 . S
C1593 C104 1.286 . S
C1601 C621 1.345 . S
C1625 C117 1.371 . S
C1633 C421 1.371 . S
C1657 C304 2.409 . S
C1665 C754 2.428 . S
C1697 C823 0.770 . S
C1689 C278 0.773 . S
C1729 C341 1.058 . S
C1721 C60 1.070 . S
C1761 C809 1.331 . S
C1753 C96 1.338 . S
C1785 C88 0.565 . S
C1793 C404 0.581 . S
C1817 C65 0.757 . S
C1825 C760 0.814 . S
C1857 C480 1.387 . S
C1849 C10 1.413 . S
C1881 C44 0.316 . S
C1889 C701 0.268 . S
C1921 C569 1.169 1_556 S
C1913 C34 1.122 . S
C1953 C844 1.596 . S
C1945 C13 1.642 . S
C1985 C314 2.428 . S
C1977 C138 2.417 . S
C2017 C800 0.972 . S
C2009 C296 1.012 . S
C2041 C112 1.306 . S
C2049 C409 1.303 . S
C2073 C270 1.321 . S
C2081 C764 1.335 . S
C2105 C140 1.858 . S
C2113 C484 1.871 . S
C2145 C674 1.817 . S
C2137 C294 1.755 . S
C2169 C114 0.257 1_565 S
C2177 C560 0.349 . S
C2201 C268 2.163 . S
C2209 C849 2.165 . S
C2233 C169 2.356 . S
C2241 C343 2.388 1_654 S
C2265 C161 1.904 . S
C2273 C649 1.918 . S
C2297 C234 2.523 . S
C2305 C543 2.553 . S
C2329 C226 1.477 . S
C2337 C724 1.537 . S
C2369 C840 1.372 . S
C2361 C247 1.408 . S
C2393 C195 1.408 . S
C2401 C400 1.359 . S
C2433 C449 2.327 . S
C2425 C239 2.294 . S
C2465 C364 0.708 . S
C2457 C187 0.723 . S
C2489 C75 1.084 . S
C2497 C880 1.075 . S
C2529 C794 1.402 . S
C2521 C83 1.366 . S
C2553 C99 0.702 . S
C2561 C943 0.668 . S
C2585 C52 0.895 . S
C2593 C781 0.884 . S
C2617 C47 1.391 . S
C2625 C661 1.406 . S
C2657 C680 0.323 . S
C2649 C5 0.472 . S
C2689 C714 1.304 . S
C2681 C23 1.324 . S
C2721 C863 1.605 . S
C2713 C26 1.574 . S
C2753 C889 2.450 . S
C2745 C244 2.482 . S
C2777 C177 0.909 . S
C2785 C821 1.005 . S
C2817 C914 1.381 . S
C2809 C192 1.390 . S
C2849 C783 1.426 . S
C2841 C203 1.311 . S
C2881 C663 1.955 . S
C2873 C242 1.790 . S
C2905 C179 1.880 . S
C2913 C689 1.848 . S
C2945 C741 0.394 . S
C2937 C190 0.429 . S
C2969 C205 2.228 . S
C2977 C834 2.219 . S
C3009 C884 2.469 . S
C3001 C286 2.411 . S
C3033 C122 1.942 . S
C3041 C474 1.996 . S
C3073 C524 2.633 . S
C3065 C130 2.597 . S
C3105 C583 1.663 . S
C3097 C148 1.601 . S
C3137 C861 1.353 . S
C3129 C273 1.256 . S
C3161 C260 1.287 . S
C3169 C941 1.392 . S
C3201 C434 2.431 . S
C3193 C135 2.401 . S
C3233 C383 0.763 . S
C3225 C109 0.781 . S
C3257 C86 1.045 . S
C3265 C901 1.061 . S
C3297 C369 1.342 . S
C3289 C70 1.310 . S
C3321 C62 0.580 . S
C3329 C924 0.569 . S
C3353 C91 0.766 . S
C3361 C440 0.811 . S
C3385 C36 1.403 . S
C3393 C640 1.385 . S
C3425 C541 0.286 . S
C3417 C18 0.375 . S
C3449 C8 1.156 . S
C3457 C729 1.173 . S
C3481 C39 1.627 . S
C3489 C604 1.600 . S
C3521 C874 2.428 . S
C3513 C307 2.415 . S
C3545 C153 0.947 . S
C3553 C360 0.979 . S
C3585 C929 1.300 . S
C3577 C281 1.298 . S
C3609 C127 1.335 . S
C3617 C444 1.329 . S
C3641 C309 1.843 . S
C3649 C644 1.874 . S
C3681 C514 1.817 . S
C3673 C151 1.759 . S
C3705 C283 0.228 . S
C3713 C720 0.281 . S
C3745 C609 2.172 . S
C3737 C125 2.147 . S
C3777 C903 2.385 . S
C3769 C221 2.363 . S
C3809 C489 1.925 1_655 S
C3801 C200 1.916 . S
C3833 C208 2.550 . S
C3841 C703 2.563 . S
C3873 C564 1.536 . S
C3865 C174 1.455 . S
C3897 C182 1.399 . S
C3905 C600 1.371 . S
C3929 C156 1.410 . S
C3937 C920 1.377 . S
C3969 C769 2.327 . S
C3961 C213 2.293 1_565 S
C4001 C804 0.682 . S
C3993 C252 0.656 . S
