# Generated by pormake.
# Topology tph, (6,8)-cn, num edge types: 1
# Building blocks:
#     Node 0, Type 0, BuildingBlock: IZENUY_clean_sbu_0, # of connection points: 6
#     Node 1, Type 0, BuildingBlock: IZENUY_clean_sbu_0, # of connection points: 6
#     Node 2, Type 0, BuildingBlock: IZENUY_clean_sbu_0, # of connection points: 6
#     Node 3, Type 0, BuildingBlock: IZENUY_clean_sbu_0, # of connection points: 6
#     Node 4, Type 0, BuildingBlock: IZENUY_clean_sbu_0, # of connection points: 6
#     Node 5, Type 0, BuildingBlock: IZENUY_clean_sbu_0, # of connection points: 6
#     Node 6, Type 0, BuildingBlock: IZENUY_clean_sbu_0, # of connection points: 6
#     Node 7, Type 0, BuildingBlock: IZENUY_clean_sbu_0, # of connection points: 6
#     Node 8, Type 0, BuildingBlock: IZENUY_clean_sbu_0, # of connection points: 6
#     Node 9, Type 0, BuildingBlock: IZENUY_clean_sbu_0, # of connection points: 6
#     Node 10, Type 0, BuildingBlock: IZENUY_clean_sbu_0, # of connection points: 6
#     Node 11, Type 0, BuildingBlock: IZENUY_clean_sbu_0, # of connection points: 6
#     Node 12, Type 0, BuildingBlock: IZENUY_clean_sbu_0, # of connection points: 6
#     Node 13, Type 0, BuildingBlock: IZENUY_clean_sbu_0, # of connection points: 6
#     Node 14, Type 0, BuildingBlock: IZENUY_clean_sbu_0, # of connection points: 6
#     Node 15, Type 0, BuildingBlock: IZENUY_clean_sbu_0, # of connection points: 6
#     Node 16, Type 1, BuildingBlock: TAGTUT_clean_sbu_3, # of connection points: 8
#     Node 17, Type 1, BuildingBlock: TAGTUT_clean_sbu_3, # of connection points: 8
#     Node 18, Type 1, BuildingBlock: TAGTUT_clean_sbu_3, # of connection points: 8
#     Node 19, Type 1, BuildingBlock: TAGTUT_clean_sbu_3, # of connection points: 8
#     Node 20, Type 1, BuildingBlock: TAGTUT_clean_sbu_3, # of connection points: 8
#     Node 21, Type 1, BuildingBlock: TAGTUT_clean_sbu_3, # of connection points: 8
#     Node 22, Type 1, BuildingBlock: TAGTUT_clean_sbu_3, # of connection points: 8
#     Node 23, Type 1, BuildingBlock: TAGTUT_clean_sbu_3, # of connection points: 8
#     Node 24, Type 1, BuildingBlock: TAGTUT_clean_sbu_3, # of connection points: 8
#     Node 25, Type 1, BuildingBlock: TAGTUT_clean_sbu_3, # of connection points: 8
#     Node 26, Type 1, BuildingBlock: TAGTUT_clean_sbu_3, # of connection points: 8
#     Node 27, Type 1, BuildingBlock: TAGTUT_clean_sbu_3, # of connection points: 8
#     Edge 28, Type (0, 1), BuildingBlock: UVAHIK_clean_linker_0, # of connection points: 2
#     Edge 29, Type (0, 1), BuildingBlock: UVAHIK_clean_linker_0, # of connection points: 2
#     Edge 30, Type (0, 1), BuildingBlock: UVAHIK_clean_linker_0, # of connection points: 2
#     Edge 31, Type (0, 1), BuildingBlock: UVAHIK_clean_linker_0, # of connection points: 2
#     Edge 32, Type (0, 1), BuildingBlock: UVAHIK_clean_linker_0, # of connection points: 2
#     Edge 33, Type (0, 1), BuildingBlock: UVAHIK_clean_linker_0, # of connection points: 2
#     Edge 34, Type (0, 1), BuildingBlock: UVAHIK_clean_linker_0, # of connection points: 2
#     Edge 35, Type (0, 1), BuildingBlock: UVAHIK_clean_linker_0, # of connection points: 2
#     Edge 36, Type (0, 1), BuildingBlock: UVAHIK_clean_linker_0, # of connection points: 2
#     Edge 37, Type (0, 1), BuildingBlock: UVAHIK_clean_linker_0, # of connection points: 2
#     Edge 38, Type (0, 1), BuildingBlock: UVAHIK_clean_linker_0, # of connection points: 2
#     Edge 39, Type (0, 1), BuildingBlock: UVAHIK_clean_linker_0, # of connection points: 2
#     Edge 40, Type (0, 1), BuildingBlock: UVAHIK_clean_linker_0, # of connection points: 2
#     Edge 41, Type (0, 1), BuildingBlock: UVAHIK_clean_linker_0, # of connection points: 2
#     Edge 42, Type (0, 1), BuildingBlock: UVAHIK_clean_linker_0, # of connection points: 2
#     Edge 43, Type (0, 1), BuildingBlock: UVAHIK_clean_linker_0, # of connection points: 2
#     Edge 44, Type (0, 1), BuildingBlock: UVAHIK_clean_linker_0, # of connection points: 2
#     Edge 45, Type (0, 1), BuildingBlock: UVAHIK_clean_linker_0, # of connection points: 2
#     Edge 46, Type (0, 1), BuildingBlock: UVAHIK_clean_linker_0, # of connection points: 2
#     Edge 47, Type (0, 1), BuildingBlock: UVAHIK_clean_linker_0, # of connection points: 2
#     Edge 48, Type (0, 1), BuildingBlock: UVAHIK_clean_linker_0, # of connection points: 2
#     Edge 49, Type (0, 1), BuildingBlock: UVAHIK_clean_linker_0, # of connection points: 2
#     Edge 50, Type (0, 1), BuildingBlock: UVAHIK_clean_linker_0, # of connection points: 2
#     Edge 51, Type (0, 1), BuildingBlock: UVAHIK_clean_linker_0, # of connection points: 2
#     Edge 52, Type (0, 1), BuildingBlock: UVAHIK_clean_linker_0, # of connection points: 2
#     Edge 53, Type (0, 1), BuildingBlock: UVAHIK_clean_linker_0, # of connection points: 2
#     Edge 54, Type (0, 1), BuildingBlock: UVAHIK_clean_linker_0, # of connection points: 2
#     Edge 55, Type (0, 1), BuildingBlock: UVAHIK_clean_linker_0, # of connection points: 2
#     Edge 56, Type (0, 1), BuildingBlock: UVAHIK_clean_linker_0, # of connection points: 2
#     Edge 57, Type (0, 1), BuildingBlock: UVAHIK_clean_linker_0, # of connection points: 2
#     Edge 58, Type (0, 1), BuildingBlock: UVAHIK_clean_linker_0, # of connection points: 2
#     Edge 59, Type (0, 1), BuildingBlock: UVAHIK_clean_linker_0, # of connection points: 2
#     Edge 60, Type (0, 1), BuildingBlock: UVAHIK_clean_linker_0, # of connection points: 2
#     Edge 61, Type (0, 1), BuildingBlock: UVAHIK_clean_linker_0, # of connection points: 2
#     Edge 62, Type (0, 1), BuildingBlock: UVAHIK_clean_linker_0, # of connection points: 2
#     Edge 63, Type (0, 1), BuildingBlock: UVAHIK_clean_linker_0, # of connection points: 2
#     Edge 64, Type (0, 1), BuildingBlock: UVAHIK_clean_linker_0, # of connection points: 2
#     Edge 65, Type (0, 1), BuildingBlock: UVAHIK_clean_linker_0, # of connection points: 2
#     Edge 66, Type (0, 1), BuildingBlock: UVAHIK_clean_linker_0, # of connection points: 2
#     Edge 67, Type (0, 1), BuildingBlock: UVAHIK_clean_linker_0, # of connection points: 2
#     Edge 68, Type (0, 1), BuildingBlock: UVAHIK_clean_linker_0, # of connection points: 2
#     Edge 69, Type (0, 1), BuildingBlock: UVAHIK_clean_linker_0, # of connection points: 2
#     Edge 70, Type (0, 1), BuildingBlock: UVAHIK_clean_linker_0, # of connection points: 2
#     Edge 71, Type (0, 1), BuildingBlock: UVAHIK_clean_linker_0, # of connection points: 2
#     Edge 72, Type (0, 1), BuildingBlock: UVAHIK_clean_linker_0, # of connection points: 2
#     Edge 73, Type (0, 1), BuildingBlock: UVAHIK_clean_linker_0, # of connection points: 2
#     Edge 74, Type (0, 1), BuildingBlock: UVAHIK_clean_linker_0, # of connection points: 2
#     Edge 75, Type (0, 1), BuildingBlock: UVAHIK_clean_linker_0, # of connection points: 2
#     Edge 76, Type (0, 1), BuildingBlock: UVAHIK_clean_linker_0, # of connection points: 2
#     Edge 77, Type (0, 1), BuildingBlock: UVAHIK_clean_linker_0, # of connection points: 2
#     Edge 78, Type (0, 1), BuildingBlock: UVAHIK_clean_linker_0, # of connection points: 2
#     Edge 79, Type (0, 1), BuildingBlock: UVAHIK_clean_linker_0, # of connection points: 2
#     Edge 80, Type (0, 1), BuildingBlock: UVAHIK_clean_linker_0, # of connection points: 2
#     Edge 81, Type (0, 1), BuildingBlock: UVAHIK_clean_linker_0, # of connection points: 2
#     Edge 82, Type (0, 1), BuildingBlock: UVAHIK_clean_linker_0, # of connection points: 2
#     Edge 83, Type (0, 1), BuildingBlock: UVAHIK_clean_linker_0, # of connection points: 2
#     Edge 84, Type (0, 1), BuildingBlock: UVAHIK_clean_linker_0, # of connection points: 2
#     Edge 85, Type (0, 1), BuildingBlock: UVAHIK_clean_linker_0, # of connection points: 2
#     Edge 86, Type (0, 1), BuildingBlock: UVAHIK_clean_linker_0, # of connection points: 2
#     Edge 87, Type (0, 1), BuildingBlock: UVAHIK_clean_linker_0, # of connection points: 2
#     Edge 88, Type (0, 1), BuildingBlock: UVAHIK_clean_linker_0, # of connection points: 2
#     Edge 89, Type (0, 1), BuildingBlock: UVAHIK_clean_linker_0, # of connection points: 2
#     Edge 90, Type (0, 1), BuildingBlock: UVAHIK_clean_linker_0, # of connection points: 2
#     Edge 91, Type (0, 1), BuildingBlock: UVAHIK_clean_linker_0, # of connection points: 2
#     Edge 92, Type (0, 1), BuildingBlock: UVAHIK_clean_linker_0, # of connection points: 2
#     Edge 93, Type (0, 1), BuildingBlock: UVAHIK_clean_linker_0, # of connection points: 2
#     Edge 94, Type (0, 1), BuildingBlock: UVAHIK_clean_linker_0, # of connection points: 2
#     Edge 95, Type (0, 1), BuildingBlock: UVAHIK_clean_linker_0, # of connection points: 2
#     Edge 96, Type (0, 1), BuildingBlock: UVAHIK_clean_linker_0, # of connection points: 2
#     Edge 97, Type (0, 1), BuildingBlock: UVAHIK_clean_linker_0, # of connection points: 2
#     Edge 98, Type (0, 1), BuildingBlock: UVAHIK_clean_linker_0, # of connection points: 2
#     Edge 99, Type (0, 1), BuildingBlock: UVAHIK_clean_linker_0, # of connection points: 2
#     Edge 100, Type (0, 1), BuildingBlock: UVAHIK_clean_linker_0, # of connection points: 2
#     Edge 101, Type (0, 1), BuildingBlock: UVAHIK_clean_linker_0, # of connection points: 2
#     Edge 102, Type (0, 1), BuildingBlock: UVAHIK_clean_linker_0, # of connection points: 2
#     Edge 103, Type (0, 1), BuildingBlock: UVAHIK_clean_linker_0, # of connection points: 2
#     Edge 104, Type (0, 1), BuildingBlock: UVAHIK_clean_linker_0, # of connection points: 2
#     Edge 105, Type (0, 1), BuildingBlock: UVAHIK_clean_linker_0, # of connection points: 2
#     Edge 106, Type (0, 1), BuildingBlock: UVAHIK_clean_linker_0, # of connection points: 2
#     Edge 107, Type (0, 1), BuildingBlock: UVAHIK_clean_linker_0, # of connection points: 2
#     Edge 108, Type (0, 1), BuildingBlock: UVAHIK_clean_linker_0, # of connection points: 2
#     Edge 109, Type (0, 1), BuildingBlock: UVAHIK_clean_linker_0, # of connection points: 2
#     Edge 110, Type (0, 1), BuildingBlock: UVAHIK_clean_linker_0, # of connection points: 2
#     Edge 111, Type (0, 1), BuildingBlock: UVAHIK_clean_linker_0, # of connection points: 2
#     Edge 112, Type (0, 1), BuildingBlock: UVAHIK_clean_linker_0, # of connection points: 2
#     Edge 113, Type (0, 1), BuildingBlock: UVAHIK_clean_linker_0, # of connection points: 2
#     Edge 114, Type (0, 1), BuildingBlock: UVAHIK_clean_linker_0, # of connection points: 2
#     Edge 115, Type (0, 1), BuildingBlock: UVAHIK_clean_linker_0, # of connection points: 2
#     Edge 116, Type (0, 1), BuildingBlock: UVAHIK_clean_linker_0, # of connection points: 2
#     Edge 117, Type (0, 1), BuildingBlock: UVAHIK_clean_linker_0, # of connection points: 2
#     Edge 118, Type (0, 1), BuildingBlock: UVAHIK_clean_linker_0, # of connection points: 2
#     Edge 119, Type (0, 1), BuildingBlock: UVAHIK_clean_linker_0, # of connection points: 2
#     Edge 120, Type (0, 1), BuildingBlock: UVAHIK_clean_linker_0, # of connection points: 2
#     Edge 121, Type (0, 1), BuildingBlock: UVAHIK_clean_linker_0, # of connection points: 2
#     Edge 122, Type (0, 1), BuildingBlock: UVAHIK_clean_linker_0, # of connection points: 2
#     Edge 123, Type (0, 1), BuildingBlock: UVAHIK_clean_linker_0, # of connection points: 2
# Relax obj value: 0.177
# Max RMSD: 0.260
# Mean RMSD: 0.252
data_MOF--net-tph--node1-IZENUY_clean_sbu_0--node2-TAGTUT_clean_sbu_3--edge1-UVAHIK_clean_linker_0
_symmetry_space_group_name_H-M    P1
_symmetry_Int_Tables_number       1
_symmetry_cell_setting            triclinic
loop_
_symmetry_equiv_pos_as_xyz
'x, y, z'
_cell_length_a     59.817168
_cell_length_b     59.807323
_cell_length_c     59.809085
_cell_angle_alpha  89.547223
_cell_angle_beta   89.962702
_cell_angle_gamma 89.588003
loop_
_atom_site_label
_atom_site_type_symbol
_atom_site_fract_x
_atom_site_fract_y
_atom_site_fract_z
_atom_type_partial_charge
Fe0 Fe 0.19743 0.19857 0.15961 0.0
Fe1 Fe 0.16578 0.20535 0.19883 0.0
O2 O 0.18735 0.18986 0.18589 0.0
Fe3 Fe 0.19866 0.16573 0.19899 0.0
O4 O 0.19091 0.14824 0.17571 0.0
O5 O 0.20464 0.17031 0.14979 0.0
O6 O 0.17035 0.19479 0.14713 0.0
C7 C 0.15308 0.20513 0.15339 0.0
C8 C 0.23646 0.18717 0.17943 0.0
O9 O 0.15237 0.2143 0.17243 0.0
C10 C 0.1936 0.19244 0.23528 0.0
O11 O 0.19222 0.22854 0.16436 0.0
O12 O 0.18296 0.23013 0.19981 0.0
O13 O 0.22723 0.16994 0.18779 0.0
O14 O 0.22483 0.20267 0.17094 0.0
C15 C 0.15218 0.16256 0.20637 0.0
O16 O 0.17494 0.19897 0.22753 0.0
O17 O 0.20704 0.18151 0.22325 0.0
C18 C 0.19046 0.23943 0.18238 0.0
O19 O 0.14766 0.18154 0.19827 0.0
O20 O 0.17199 0.15733 0.21206 0.0
C21 C 0.1974 0.15139 0.15593 0.0
Fe22 Fe 0.44569 0.56069 0.0974 0.0
Fe23 Fe 0.43896 0.59439 0.05907 0.0
O24 O 0.42819 0.57345 0.077 0.0
Fe25 Fe 0.39988 0.56528 0.075 0.0
O26 O 0.39465 0.57353 0.10341 0.0
O27 O 0.42301 0.55517 0.11781 0.0
O28 O 0.44978 0.58709 0.1111 0.0
C29 C 0.45684 0.60453 0.1015 0.0
C30 C 0.42375 0.5245 0.08177 0.0
O31 O 0.45757 0.60617 0.08036 0.0
C32 C 0.41028 0.56925 0.03078 0.0
O33 O 0.47176 0.56402 0.08135 0.0
O34 O 0.46049 0.57584 0.04849 0.0
O35 O 0.40565 0.53573 0.08295 0.0
O36 O 0.44242 0.53376 0.08442 0.0
C37 C 0.39782 0.61235 0.06867 0.0
O38 O 0.42176 0.58649 0.03491 0.0
O39 O 0.40317 0.55686 0.04632 0.0
C40 C 0.47552 0.56746 0.06077 0.0
O41 O 0.41868 0.61454 0.06845 0.0
O42 O 0.38905 0.5932 0.0668 0.0
C43 C 0.40456 0.56547 0.12016 0.0
Fe44 Fe 0.79067 0.30661 0.15017 0.0
Fe45 Fe 0.83123 0.30412 0.18137 0.0
O46 O 0.8066 0.31776 0.1722 0.0
Fe47 Fe 0.79787 0.34262 0.18516 0.0
O48 O 0.80034 0.35787 0.1593 0.0
O49 O 0.78086 0.33424 0.13943 0.0
O50 O 0.81393 0.3089 0.13108 0.0
C51 C 0.83237 0.29898 0.13396 0.0
C52 C 0.7572 0.31978 0.17782 0.0
O53 O 0.83848 0.29281 0.15344 0.0
C54 C 0.81141 0.31993 0.22186 0.0
O55 O 0.79762 0.27709 0.15701 0.0
O56 O 0.81576 0.27938 0.18887 0.0
O57 O 0.76774 0.33779 0.18103 0.0
O58 O 0.76651 0.30363 0.16804 0.0
C59 C 0.84499 0.34712 0.18289 0.0
O60 O 0.82841 0.31309 0.211 0.0
O61 O 0.79506 0.3285 0.21165 0.0
C62 C 0.80468 0.26815 0.17505 0.0
O63 O 0.84805 0.32817 0.17431 0.0
O64 O 0.82635 0.35215 0.1917 0.0
C65 C 0.78915 0.35355 0.14211 0.0
Fe66 Fe 0.55887 0.9324 0.10457 0.0
Fe67 Fe 0.57373 0.89648 0.07091 0.0
O68 O 0.57833 0.92208 0.08476 0.0
Fe69 Fe 0.60301 0.93741 0.07935 0.0
O70 O 0.6119 0.9335 0.10786 0.0
O71 O 0.58029 0.94502 0.1227 0.0
O72 O 0.56186 0.90797 0.12171 0.0
C73 C 0.56035 0.88793 0.11583 0.0
C74 C 0.57028 0.97163 0.08551 0.0
O75 O 0.56073 0.88241 0.09535 0.0
C76 C 0.59157 0.92584 0.03714 0.0
O77 O 0.53417 0.92099 0.09059 0.0
O78 O 0.54712 0.90577 0.05983 0.0
O79 O 0.59042 0.96489 0.08546 0.0
O80 O 0.55471 0.95791 0.08866 0.0
C81 C 0.61867 0.89306 0.07844 0.0
O82 O 0.58642 0.90636 0.04423 0.0
O83 O 0.59524 0.94157 0.05057 0.0
C84 C 0.53099 0.91284 0.07138 0.0
O85 O 0.59963 0.88488 0.0812 0.0
O86 O 0.62073 0.91319 0.07234 0.0
C87 C 0.60065 0.93926 0.12469 0.0
Fe88 Fe 0.18615 0.84265 0.29022 0.0
Fe89 Fe 0.1842 0.8087 0.32865 0.0
O90 O 0.17253 0.82046 0.30417 0.0
Fe91 Fe 0.1472 0.81018 0.29367 0.0
O92 O 0.13401 0.837 0.29683 0.0
O93 O 0.16004 0.85589 0.27933 0.0
O94 O 0.18333 0.86023 0.31446 0.0
C95 C 0.19125 0.85522 0.33339 0.0
C96 C 0.1734 0.81783 0.25477 0.0
O97 O 0.19669 0.83517 0.33815 0.0
C98 C 0.16623 0.77101 0.3061 0.0
O99 O 0.21471 0.83355 0.29864 0.0
O100 O 0.20912 0.80055 0.31378 0.0
O101 O 0.15445 0.81548 0.26407 0.0
O102 O 0.18955 0.82606 0.26538 0.0
C103 C 0.14043 0.81023 0.34057 0.0
O104 O 0.17341 0.78019 0.32375 0.0
O105 O 0.15902 0.78277 0.29013 0.0
C106 C 0.22218 0.81463 0.3052 0.0
O107 O 0.16003 0.81635 0.34479 0.0
O108 O 0.13537 0.80303 0.32135 0.0
C109 C 0.14022 0.85439 0.2868 0.0
Fe110 Fe 0.10168 0.56242 0.93914 0.0
Fe111 Fe 0.06685 0.57069 0.90244 0.0
O112 O 0.0805 0.57939 0.92702 0.0
Fe113 Fe 0.07366 0.6054 0.93916 0.0
O114 O 0.10166 0.61519 0.93487 0.0
O115 O 0.11816 0.58599 0.95002 0.0
O116 O 0.11836 0.56497 0.91439 0.0
C117 C 0.1121 0.56078 0.89486 0.0
C118 C 0.0805 0.57619 0.97664 0.0
O119 O 0.09179 0.55656 0.89059 0.0
C120 C 0.03218 0.59088 0.92848 0.0
O121 O 0.08954 0.53567 0.92991 0.0
O122 O 0.05699 0.54554 0.91596 0.0
O123 O 0.07963 0.59577 0.96812 0.0
O124 O 0.08594 0.55963 0.96481 0.0
C125 C 0.07305 0.6149 0.89282 0.0
O126 O 0.03971 0.58378 0.90991 0.0
O127 O 0.04525 0.597 0.94372 0.0
C128 C 0.06985 0.53074 0.92386 0.0
O129 O 0.07615 0.59494 0.88731 0.0
O130 O 0.06658 0.61976 0.91241 0.0
C131 C 0.11906 0.60567 0.94205 0.0
Fe132 Fe 0.80828 0.65422 0.31172 0.0
Fe133 Fe 0.84267 0.69148 0.31241 0.0
O134 O 0.81816 0.67929 0.32311 0.0
Fe135 Fe 0.80349 0.69203 0.34524 0.0
O136 O 0.77871 0.69539 0.32819 0.0
O137 O 0.77831 0.66037 0.31756 0.0
O138 O 0.80432 0.66738 0.28487 0.0
C139 C 0.82032 0.67508 0.27358 0.0
C140 C 0.80164 0.64567 0.35556 0.0
O141 O 0.83804 0.68163 0.2833 0.0
C142 C 0.84609 0.69779 0.35948 0.0
O143 O 0.83637 0.64334 0.30375 0.0
O144 O 0.85908 0.66703 0.3196 0.0
O145 O 0.79346 0.66525 0.35748 0.0
O146 O 0.81194 0.64009 0.3381 0.0
C147 C 0.81822 0.72901 0.31864 0.0
O148 O 0.8516 0.70337 0.33966 0.0
O149 O 0.82734 0.6892 0.36338 0.0
C150 C 0.85567 0.64819 0.3111 0.0
O151 O 0.82764 0.7165 0.30464 0.0
O152 O 0.81126 0.72103 0.33713 0.0
C153 C 0.76822 0.67889 0.32065 0.0
Fe154 Fe 0.90348 0.93551 0.93475 0.0
Fe155 Fe 0.94 0.93224 0.89879 0.0
O156 O 0.92913 0.92416 0.92523 0.0
Fe157 Fe 0.94398 0.90454 0.94194 0.0
O158 O 0.92121 0.88532 0.94145 0.0
O159 O 0.8943 0.90945 0.94895 0.0
O160 O 0.88888 0.92509 0.91083 0.0
C161 C 0.8935 0.92909 0.89076 0.0
C162 C 0.92657 0.93498 0.97399 0.0
O163 O 0.91237 0.93703 0.88537 0.0
C164 C 0.97881 0.9287 0.92631 0.0
O165 O 0.90815 0.9635 0.92189 0.0
O166 O 0.9419 0.96092 0.90724 0.0
O167 O 0.93492 0.91617 0.96893 0.0
O168 O 0.91618 0.94648 0.95965 0.0
C169 C 0.94822 0.88754 0.89814 0.0
O170 O 0.96971 0.92883 0.90711 0.0
O171 O 0.96785 0.92274 0.94329 0.0
C172 C 0.92581 0.9726 0.91429 0.0
O173 O 0.93867 0.90397 0.88885 0.0
O174 O 0.95538 0.88875 0.91805 0.0
C175 C 0.90129 0.88945 0.94673 0.0
Fe176 Fe 0.4008 0.43799 0.43601 0.0
Fe177 Fe 0.43829 0.43594 0.40095 0.0
O178 O 0.42657 0.42679 0.42659 0.0
Fe179 Fe 0.44049 0.40599 0.44264 0.0
O180 O 0.41741 0.38738 0.4395 0.0
O181 O 0.39111 0.41141 0.44886 0.0
O182 O 0.38671 0.42881 0.41129 0.0
C183 C 0.39205 0.43325 0.39148 0.0
C184 C 0.42255 0.435 0.47573 0.0
O185 O 0.41109 0.44132 0.38688 0.0
C186 C 0.47606 0.43065 0.42981 0.0
O187 O 0.40588 0.46642 0.42439 0.0
O188 O 0.44003 0.46417 0.41071 0.0
O189 O 0.43034 0.41615 0.46992 0.0
O190 O 0.41317 0.44763 0.46163 0.0
C191 C 0.44626 0.39127 0.39834 0.0
O192 O 0.46762 0.43203 0.41032 0.0
O193 O 0.46456 0.42366 0.44606 0.0
C194 C 0.42371 0.47569 0.41747 0.0
O195 O 0.43717 0.40822 0.38959 0.0
O196 O 0.45284 0.39146 0.41846 0.0
C197 C 0.39734 0.39169 0.44397 0.0
Fe198 Fe 0.2899 0.80514 0.65126 0.0
Fe199 Fe 0.29855 0.8397 0.68729 0.0
O200 O 0.30605 0.81469 0.67388 0.0
Fe201 Fe 0.32961 0.79931 0.68318 0.0
O202 O 0.3125 0.77528 0.68956 0.0
O203 O 0.29508 0.77514 0.65722 0.0
O204 O 0.26521 0.80313 0.66869 0.0
C205 C 0.25678 0.81972 0.67856 0.0
C206 C 0.33151 0.79573 0.63562 0.0
O207 O 0.26837 0.83693 0.68226 0.0
C208 C 0.34585 0.84137 0.68632 0.0
O209 O 0.28198 0.83353 0.64112 0.0
O210 O 0.30254 0.85543 0.66188 0.0
O211 O 0.33688 0.78852 0.65499 0.0
O212 O 0.31362 0.80662 0.6327 0.0
C213 C 0.3098 0.81527 0.72368 0.0
O214 O 0.32731 0.84725 0.69477 0.0
O215 O 0.34807 0.8225 0.67734 0.0
C216 C 0.29144 0.85219 0.64436 0.0
O217 O 0.29425 0.82512 0.71334 0.0
O218 O 0.32656 0.80756 0.71301 0.0
C219 C 0.30117 0.76521 0.67507 0.0
Fe220 Fe 0.07232 0.39739 0.56561 0.0
Fe221 Fe 0.10273 0.43678 0.57676 0.0
O222 O 0.07778 0.4217 0.58127 0.0
Fe223 Fe 0.05884 0.43062 0.6022 0.0
O224 O 0.06251 0.40487 0.61738 0.0
O225 O 0.05861 0.38214 0.58887 0.0
O226 O 0.09779 0.38425 0.57509 0.0
C227 C 0.1171 0.39216 0.57332 0.0
C228 C 0.03023 0.41454 0.56778 0.0
O229 O 0.11982 0.41255 0.56842 0.0
C230 C 0.07029 0.47086 0.58524 0.0
O231 O 0.08549 0.40844 0.5398 0.0
O232 O 0.09516 0.44292 0.54818 0.0
O233 O 0.0338 0.42025 0.58783 0.0
O234 O 0.04616 0.40865 0.55531 0.0
C235 C 0.10064 0.43574 0.62218 0.0
O236 O 0.09041 0.46398 0.58451 0.0
O237 O 0.05455 0.45722 0.5882 0.0
C238 C 0.09116 0.42809 0.53385 0.0
O239 O 0.11165 0.43087 0.60497 0.0
O240 O 0.08046 0.44208 0.62078 0.0
C241 C 0.06034 0.38553 0.6097 0.0
Fe242 Fe 0.94429 0.06387 0.5965 0.0
Fe243 Fe 0.93799 0.09677 0.55752 0.0
O244 O 0.92749 0.07512 0.57478 0.0
Fe245 Fe 0.90007 0.06496 0.57076 0.0
O246 O 0.89207 0.07277 0.59866 0.0
O247 O 0.92075 0.05713 0.61544 0.0
O248 O 0.9457 0.09063 0.61005 0.0
C249 C 0.95253 0.10828 0.60074 0.0
C250 C 0.92614 0.02594 0.57987 0.0
O251 O 0.95471 0.10964 0.57969 0.0
C252 C 0.91287 0.06994 0.52745 0.0
O253 O 0.97097 0.06865 0.58193 0.0
O254 O 0.96125 0.07955 0.54819 0.0
O255 O 0.90725 0.03585 0.57922 0.0
O256 O 0.94374 0.03666 0.58387 0.0
C257 C 0.89535 0.11165 0.56536 0.0
O258 O 0.92262 0.08804 0.53236 0.0
O259 O 0.90616 0.0568 0.5425 0.0
C260 C 0.97576 0.07176 0.56149 0.0
O261 O 0.91595 0.1154 0.56614 0.0
O262 O 0.88806 0.09217 0.5617 0.0
C263 C 0.90144 0.06595 0.61624 0.0
Fe264 Fe 0.69617 0.69741 0.66093 0.0
Fe265 Fe 0.6974 0.66513 0.7008 0.0
O266 O 0.68575 0.68874 0.68707 0.0
Fe267 Fe 0.66351 0.70378 0.69935 0.0
O268 O 0.68014 0.72892 0.70064 0.0
O269 O 0.69029 0.72728 0.6654 0.0
O270 O 0.72323 0.70222 0.67274 0.0
C271 C 0.73502 0.68718 0.68178 0.0
C272 C 0.65187 0.70312 0.65371 0.0
O273 O 0.72605 0.66983 0.69015 0.0
C274 C 0.65086 0.66079 0.70698 0.0
O275 O 0.70413 0.66921 0.65158 0.0
O276 O 0.69063 0.64709 0.67764 0.0
O277 O 0.65063 0.71239 0.67264 0.0
O278 O 0.66942 0.69297 0.64789 0.0
C279 C 0.69065 0.69208 0.73652 0.0
O280 O 0.67063 0.65625 0.71337 0.0
O281 O 0.64603 0.67951 0.69842 0.0
C282 C 0.69728 0.6502 0.65789 0.0
O283 O 0.70483 0.6816 0.72496 0.0
O284 O 0.67192 0.69767 0.72829 0.0
C285 C 0.6881 0.73816 0.68338 0.0
Fe286 Fe 0.68527 0.34124 0.79184 0.0
Fe287 Fe 0.68116 0.30768 0.83041 0.0
O288 O 0.67106 0.31901 0.80506 0.0
Fe289 Fe 0.64659 0.30823 0.79309 0.0
O290 O 0.63277 0.33482 0.79534 0.0
O291 O 0.65967 0.35429 0.77971 0.0
O292 O 0.68097 0.35896 0.81576 0.0
C293 C 0.68759 0.35419 0.83522 0.0
C294 C 0.67469 0.31645 0.75563 0.0
O295 O 0.69292 0.33426 0.84047 0.0
C296 C 0.66526 0.26953 0.80704 0.0
O297 O 0.71335 0.33226 0.80184 0.0
O298 O 0.70707 0.2995 0.81737 0.0
O299 O 0.65537 0.31369 0.76397 0.0
O300 O 0.69017 0.3247 0.76716 0.0
C301 C 0.63674 0.30884 0.83928 0.0
O302 O 0.67091 0.27901 0.8251 0.0
O303 O 0.65922 0.28105 0.79042 0.0
C304 C 0.72048 0.31347 0.80915 0.0
O305 O 0.65584 0.31551 0.84473 0.0
O306 O 0.63327 0.30084 0.82004 0.0
C307 C 0.63956 0.35254 0.7863 0.0
Fe308 Fe 0.60045 0.06137 0.44261 0.0
Fe309 Fe 0.57058 0.07107 0.40202 0.0
O310 O 0.57972 0.07781 0.42921 0.0
Fe311 Fe 0.56825 0.10137 0.44291 0.0
O312 O 0.59508 0.11447 0.44364 0.0
O313 O 0.61337 0.08526 0.45707 0.0
O314 O 0.62011 0.06678 0.4208 0.0
C315 C 0.61737 0.06329 0.40035 0.0
C316 C 0.57423 0.06976 0.47851 0.0
O317 O 0.59798 0.06011 0.39239 0.0
C318 C 0.53088 0.08382 0.42495 0.0
O319 O 0.5916 0.03476 0.42987 0.0
O320 O 0.56122 0.04389 0.41109 0.0
O321 O 0.57179 0.08976 0.47157 0.0
O322 O 0.58204 0.05506 0.46568 0.0
C323 C 0.57266 0.11621 0.39805 0.0
O324 O 0.5415 0.08112 0.40672 0.0
O325 O 0.54091 0.08911 0.44262 0.0
C326 C 0.57355 0.02933 0.42022 0.0
O327 O 0.57968 0.09763 0.39133 0.0
O328 O 0.56279 0.11774 0.4168 0.0
C329 C 0.61256 0.10588 0.45181 0.0
Fe330 Fe 0.30664 0.15503 0.8075 0.0
Fe331 Fe 0.34406 0.1888 0.81213 0.0
O332 O 0.31839 0.17789 0.82143 0.0
Fe333 Fe 0.3046 0.18988 0.84451 0.0
O334 O 0.28033 0.19671 0.8278 0.0
O335 O 0.27714 0.16342 0.81299 0.0
O336 O 0.3048 0.17086 0.78186 0.0
C337 C 0.32192 0.17726 0.77152 0.0
C338 C 0.29723 0.14298 0.8499 0.0
O339 O 0.33977 0.18131 0.78227 0.0
C340 C 0.34719 0.19164 0.85955 0.0
O341 O 0.33409 0.14232 0.7996 0.0
O342 O 0.35812 0.1627 0.81805 0.0
O343 O 0.29209 0.16314 0.85434 0.0
O344 O 0.30788 0.13824 0.83243 0.0
C345 C 0.32209 0.22739 0.82049 0.0
O346 O 0.35317 0.19823 0.84021 0.0
O347 O 0.32801 0.18366 0.86258 0.0
C348 C 0.35342 0.14489 0.80809 0.0
O349 O 0.3311 0.21528 0.80585 0.0
O350 O 0.31468 0.21874 0.83855 0.0
C351 C 0.26857 0.18217 0.81836 0.0
C352 C 0.04033 0.22452 0.88138 0.0
C353 C 0.01643 0.24785 0.96269 0.0
C354 C 0.94992 0.24403 0.93786 0.0
Mg355 Mg 0.01481 0.23168 0.83525 0.0
Mg356 Mg 0.9809 0.27402 0.82602 0.0
O357 O 0.98715 0.24895 0.84383 0.0
Mg358 Mg 0.99377 0.25297 0.87636 0.0
O359 O 0.002 0.25405 0.90867 0.0
Mg360 Mg 0.9983 0.22156 0.91693 0.0
Mg361 Mg 0.98855 0.27469 0.92764 0.0
C362 C 0.94706 0.28138 0.86634 0.0
O363 O 0.00519 0.29024 0.87359 0.0
O364 O 0.9982 0.22718 0.80118 0.0
O365 O 0.99459 0.30398 0.9072 0.0
O366 O 0.03241 0.26256 0.81968 0.0
O367 O 0.97508 0.25643 0.79496 0.0
O368 O 0.01076 0.29285 0.82161 0.0
O369 O 0.98265 0.21674 0.88199 0.0
O370 O 0.99663 0.20147 0.851 0.0
C371 C 0.9859 0.19968 0.86953 0.0
C372 C 0.98423 0.23799 0.78882 0.0
O373 O 0.95777 0.26791 0.87954 0.0
O374 O 0.01444 0.23041 0.95048 0.0
O375 O 0.95417 0.28686 0.84678 0.0
O376 O 0.96337 0.22771 0.93398 0.0
O377 O 0.00801 0.26688 0.95717 0.0
O378 O 0.95518 0.26415 0.93332 0.0
O379 O 0.02845 0.23853 0.87021 0.0
O380 O 0.03316 0.21634 0.89994 0.0
C381 C 0.02923 0.2835 0.81643 0.0
C382 C 0.00218 0.30655 0.88727 0.0
C383 C 0.54097 0.72376 0.38311 0.0
C384 C 0.51595 0.74809 0.46268 0.0
C385 C 0.44972 0.74645 0.43736 0.0
Mg386 Mg 0.51806 0.73075 0.33618 0.0
Mg387 Mg 0.48574 0.7737 0.3243 0.0
O388 O 0.49046 0.74896 0.34296 0.0
Mg389 Mg 0.49542 0.75332 0.37578 0.0
O390 O 0.50211 0.75447 0.40846 0.0
Mg391 Mg 0.49753 0.72213 0.41687 0.0
Mg392 Mg 0.48953 0.77587 0.42717 0.0
C393 C 0.44986 0.78247 0.36266 0.0
O394 O 0.50805 0.79005 0.37319 0.0
O395 O 0.50323 0.72593 0.30136 0.0
O396 O 0.49704 0.80466 0.4063 0.0
O397 O 0.53754 0.76071 0.32116 0.0
O398 O 0.48113 0.75553 0.29335 0.0
O399 O 0.51642 0.79149 0.3212 0.0
O400 O 0.48297 0.71763 0.38142 0.0
O401 O 0.49805 0.70139 0.35146 0.0
C402 C 0.48627 0.7003 0.36939 0.0
C403 C 0.49017 0.73677 0.28807 0.0
O404 O 0.45966 0.76918 0.37673 0.0
O405 O 0.51315 0.73068 0.45063 0.0
O406 O 0.45812 0.78742 0.3434 0.0
O407 O 0.4625 0.72966 0.43317 0.0
O408 O 0.50863 0.7675 0.45687 0.0
O409 O 0.4558 0.76643 0.43313 0.0
O410 O 0.52997 0.73812 0.37158 0.0
O411 O 0.53269 0.71541 0.4011 0.0
C412 C 0.53501 0.78166 0.3174 0.0
C413 C 0.50526 0.80666 0.38654 0.0
C414 C 0.97509 0.79846 0.63512 0.0
C415 C 0.97152 0.75569 0.71294 0.0
C416 C 0.02783 0.72034 0.6895 0.0
Mg417 Mg 0.99497 0.78256 0.58811 0.0
Mg418 Mg 0.99802 0.72961 0.57382 0.0
O419 O 0.0051 0.75096 0.59505 0.0
Mg420 Mg 0.99368 0.74813 0.62644 0.0
O421 O 0.98305 0.74841 0.6583 0.0
Mg422 Mg 0.0057 0.76966 0.67067 0.0
Mg423 Mg 0.9795 0.72172 0.67448 0.0
C424 C 0.01264 0.6979 0.61421 0.0
O425 O 0.96278 0.72724 0.61823 0.0
O426 O 0.01466 0.77962 0.55515 0.0
O427 O 0.95929 0.70545 0.64917 0.0
O428 O 0.96353 0.77121 0.5678 0.0
O429 O 0.01766 0.7431 0.54661 0.0
O430 O 0.9638 0.73403 0.56506 0.0
O431 O 0.02372 0.76774 0.63681 0.0
O432 O 0.02624 0.79257 0.60876 0.0
C433 C 0.03329 0.7844 0.62744 0.0
C434 C 0.02138 0.76381 0.54232 0.0
O435 O 0.01136 0.71354 0.62882 0.0
O436 O 0.98484 0.76906 0.70274 0.0
O437 O 0.00708 0.7005 0.59362 0.0
O438 O 0.0276 0.74158 0.68673 0.0
O439 O 0.96651 0.73637 0.70523 0.0
O440 O 0.01171 0.70833 0.68272 0.0
O441 O 0.97627 0.78194 0.62165 0.0
O442 O 0.98385 0.79717 0.65466 0.0
C443 C 0.95448 0.75294 0.5615 0.0
C444 C 0.95393 0.71079 0.62896 0.0
C445 C 0.86446 0.98828 0.19813 0.0
C446 C 0.78596 0.98517 0.24362 0.0
C447 C 0.81602 0.03569 0.28134 0.0
Mg448 Mg 0.91201 0.00472 0.21618 0.0
Mg449 Mg 0.92598 1e-05 0.26918 0.0
O450 O 0.90528 0.01076 0.24855 0.0
Mg451 Mg 0.87363 0.00013 0.24996 0.0
O452 O 0.84158 0.99094 0.24841 0.0
Mg453 Mg 0.82987 0.01672 0.22979 0.0
Mg454 Mg 0.82698 0.98708 0.27577 0.0
C455 C 0.88686 0.01567 0.30129 0.0
O456 O 0.88046 0.96571 0.26734 0.0
O457 O 0.94547 0.02314 0.22153 0.0
O458 O 0.84986 0.96236 0.28931 0.0
O459 O 0.93101 0.97141 0.22436 0.0
O460 O 0.95415 0.01913 0.25798 0.0
O461 O 0.93237 0.96593 0.26127 0.0
O462 O 0.86426 0.03282 0.233 0.0
O463 O 0.89261 0.03786 0.20925 0.0
C464 C 0.87386 0.04424 0.21761 0.0
C465 C 0.95849 0.02642 0.23826 0.0
O466 O 0.87191 0.01431 0.2859 0.0
O467 O 0.79626 0.99811 0.22983 0.0
O468 O 0.90736 0.00984 0.29846 0.0
O469 O 0.81618 0.03657 0.26 0.0
O470 O 0.79467 0.9786 0.26217 0.0
O471 O 0.82342 0.01858 0.29184 0.0
O472 O 0.87777 0.98713 0.21485 0.0
O473 O 0.84494 0.99725 0.1999 0.0
C474 C 0.9363 0.95938 0.24141 0.0
C475 C 0.86915 0.95555 0.28267 0.0
C476 C 0.2193 0.87057 0.03191 0.0
C477 C 0.23968 0.95597 0.02306 0.0
C478 C 0.24926 0.93884 0.95448 0.0
Mg479 Mg 0.23351 0.82823 0.00265 0.0
Mg480 Mg 0.28185 0.82618 0.97724 0.0
O481 O 0.25443 0.84132 0.97976 0.0
Mg482 Mg 0.25499 0.87286 0.99081 0.0
O483 O 0.25242 0.90391 0.00326 0.0
Mg484 Mg 0.22053 0.91129 0.99517 0.0
Mg485 Mg 0.27342 0.9258 0.99707 0.0
C486 C 0.29077 0.87016 0.94865 0.0
O487 O 0.29014 0.87023 0.00753 0.0
O488 O 0.23454 0.79632 0.98128 0.0
O489 O 0.30207 0.90612 0.00737 0.0
O490 O 0.26191 0.81237 0.02413 0.0
O491 O 0.2686 0.79491 0.96512 0.0
O492 O 0.29541 0.81924 0.00965 0.0
O493 O 0.22071 0.87836 0.97511 0.0
O494 O 0.2055 0.84496 0.98157 0.0
C495 C 0.20413 0.865 0.97379 0.0
C496 C 0.24923 0.78662 0.96892 0.0
O497 O 0.27477 0.88116 0.95816 0.0
O498 O 0.22363 0.94335 0.01668 0.0
O499 O 0.29709 0.85056 0.95514 0.0
O500 O 0.23128 0.93241 0.96416 0.0
O501 O 0.2601 0.95217 0.0177 0.0
O502 O 0.26847 0.93518 0.96304 0.0
O503 O 0.23565 0.8615 0.02144 0.0
O504 O 0.21139 0.88969 0.02587 0.0
C505 C 0.28324 0.81115 0.02517 0.0
C506 C 0.30506 0.88517 0.0113 0.0
C507 C 0.12745 0.46158 0.21904 0.0
C508 C 0.04279 0.46834 0.24037 0.0
C509 C 0.0579 0.53705 0.25187 0.0
Mg510 Mg 0.16951 0.49076 0.23149 0.0
Mg511 Mg 0.17391 0.51973 0.27766 0.0
O512 O 0.15684 0.51393 0.25224 0.0
Mg513 Mg 0.12534 0.50232 0.25424 0.0
O514 O 0.09445 0.48944 0.25252 0.0
Mg515 Mg 0.08629 0.4981 0.22094 0.0
Mg516 Mg 0.07268 0.49363 0.27422 0.0
C517 C 0.12794 0.54495 0.28887 0.0
O518 O 0.12903 0.48525 0.28942 0.0
O519 O 0.20136 0.51188 0.22983 0.0
O520 O 0.09334 0.48317 0.30204 0.0
O521 O 0.18681 0.47051 0.26016 0.0
O522 O 0.20395 0.53232 0.26108 0.0
O523 O 0.18308 0.4884 0.29251 0.0
O524 O 0.11887 0.51849 0.22002 0.0
O525 O 0.15181 0.5114 0.2038 0.0
C526 C 0.13193 0.51961 0.20302 0.0
C527 C 0.21163 0.52604 0.24205 0.0
O528 O 0.11667 0.53419 0.27412 0.0
O529 O 0.055 0.476 0.22446 0.0
O530 O 0.1486 0.54069 0.29334 0.0
O531 O 0.06431 0.52863 0.2332 0.0
O532 O 0.04668 0.47261 0.26097 0.0
O533 O 0.06209 0.52747 0.27054 0.0
O534 O 0.13645 0.47198 0.23526 0.0
O535 O 0.10849 0.46774 0.2109 0.0
C536 C 0.18994 0.47164 0.28131 0.0
C537 C 0.11449 0.48026 0.30456 0.0
C538 C 0.7015 0.63438 0.02054 0.0
C539 C 0.74713 0.7095 0.03456 0.0
C540 C 0.78533 0.68849 0.97893 0.0
Mg541 Mg 0.71812 0.58887 0.99927 0.0
Mg542 Mg 0.7705 0.57172 0.0009 0.0
O543 O 0.75076 0.59467 0.99348 0.0
Mg544 Mg 0.75351 0.62501 0.00737 0.0
O545 O 0.753 0.656 0.0198 0.0
Mg546 Mg 0.73394 0.67118 0.99635 0.0
Mg547 Mg 0.78023 0.67009 0.02544 0.0
C548 C 0.80398 0.61104 0.98884 0.0
O549 O 0.77109 0.61408 0.04057 0.0
O550 O 0.72166 0.55731 0.97733 0.0
O551 O 0.79392 0.64359 0.04624 0.0
O552 O 0.72571 0.56644 0.03049 0.0
O553 O 0.75764 0.54624 0.97914 0.0
O554 O 0.76268 0.56253 0.03443 0.0
O555 O 0.73722 0.63868 0.9761 0.0
O556 O 0.71237 0.6121 0.96839 0.0
C557 C 0.72182 0.6308 0.96371 0.0
C558 C 0.73757 0.54378 0.97211 0.0
O559 O 0.78942 0.62655 0.99251 0.0
O560 O 0.73357 0.70142 0.02008 0.0
O561 O 0.80027 0.59016 0.99221 0.0
O562 O 0.764 0.68755 0.97815 0.0
O563 O 0.76606 0.70041 0.03925 0.0
O564 O 0.79621 0.67917 0.99479 0.0
O565 O 0.71803 0.6207 0.02045 0.0
O566 O 0.7038 0.65461 0.01371 0.0
C567 C 0.7428 0.55937 0.04145 0.0
C568 C 0.78709 0.62381 0.05112 0.0
C569 C 0.20327 0.13275 0.51832 0.0
C570 C 0.24707 0.20875 0.53359 0.0
C571 C 0.28656 0.18876 0.4784 0.0
Mg572 Mg 0.22202 0.08745 0.49708 0.0
Mg573 Mg 0.27456 0.07243 0.50144 0.0
O574 O 0.25458 0.09442 0.4919 0.0
Mg575 Mg 0.25582 0.12479 0.50581 0.0
O576 O 0.25415 0.15557 0.5185 0.0
Mg577 Mg 0.2352 0.17047 0.49486 0.0
Mg578 Mg 0.28102 0.17011 0.52471 0.0
C579 C 0.30784 0.1125 0.49173 0.0
O580 O 0.27291 0.11405 0.53936 0.0
O581 O 0.22778 0.05606 0.47555 0.0
O582 O 0.2951 0.14391 0.54555 0.0
O583 O 0.2289 0.0653 0.52879 0.0
O584 O 0.26397 0.04613 0.47924 0.0
O585 O 0.26566 0.06363 0.53465 0.0
O586 O 0.23956 0.13821 0.47421 0.0
O587 O 0.21634 0.11031 0.46608 0.0
C588 C 0.2247 0.12957 0.4616 0.0
C589 C 0.24438 0.04306 0.47116 0.0
O590 O 0.2923 0.12753 0.49219 0.0
O591 O 0.2339 0.20053 0.51884 0.0
O592 O 0.30443 0.09177 0.49624 0.0
O593 O 0.26527 0.18749 0.47728 0.0
O594 O 0.26611 0.2 0.5385 0.0
O595 O 0.29732 0.17962 0.49443 0.0
O596 O 0.2201 0.1194 0.51801 0.0
O597 O 0.20526 0.15316 0.51193 0.0
C598 C 0.24573 0.05941 0.54073 0.0
C599 C 0.28859 0.12399 0.5502 0.0
C600 C 0.37217 0.54363 0.72169 0.0
C601 C 0.45699 0.52609 0.74196 0.0
C602 C 0.43484 0.45907 0.74513 0.0
Mg603 Mg 0.32868 0.51578 0.73372 0.0
Mg604 Mg 0.32571 0.48536 0.77934 0.0
O605 O 0.34062 0.49008 0.75226 0.0
Mg606 Mg 0.3725 0.49949 0.75376 0.0
O607 O 0.40394 0.51046 0.75229 0.0
Mg608 Mg 0.41061 0.50432 0.71986 0.0
Mg609 Mg 0.42454 0.49961 0.7729 0.0
C610 C 0.36866 0.45484 0.78641 0.0
O611 O 0.37055 0.51343 0.78977 0.0
O612 O 0.29589 0.49596 0.73296 0.0
O613 O 0.40601 0.50923 0.80231 0.0
O614 O 0.31435 0.53505 0.76395 0.0
O615 O 0.29419 0.47562 0.76481 0.0
O616 O 0.32069 0.51649 0.79566 0.0
O617 O 0.37675 0.48639 0.71842 0.0
O618 O 0.34389 0.49682 0.70387 0.0
C619 C 0.36328 0.48772 0.70183 0.0
C620 C 0.28591 0.48208 0.74604 0.0
O621 O 0.37976 0.46515 0.77103 0.0
O622 O 0.4439 0.52296 0.72526 0.0
O623 O 0.34921 0.46126 0.79299 0.0
O624 O 0.42988 0.4712 0.72806 0.0
O625 O 0.45274 0.51864 0.76165 0.0
O626 O 0.43054 0.46552 0.76494 0.0
O627 O 0.36287 0.5323 0.7373 0.0
O628 O 0.39065 0.53715 0.71281 0.0
C629 C 0.31344 0.53372 0.78527 0.0
C630 C 0.38545 0.51483 0.80518 0.0
C631 C 0.71937 0.37115 0.53122 0.0
C632 C 0.73962 0.45649 0.52285 0.0
C633 C 0.74787 0.43973 0.45378 0.0
Mg634 Mg 0.73247 0.32924 0.50087 0.0
Mg635 Mg 0.77947 0.32726 0.47294 0.0
O636 O 0.75248 0.34266 0.47734 0.0
Mg637 Mg 0.75367 0.3739 0.48908 0.0
O638 O 0.75164 0.40465 0.50229 0.0
Mg639 Mg 0.71965 0.41233 0.49484 0.0
Mg640 Mg 0.77268 0.42641 0.49599 0.0
C641 C 0.78822 0.3722 0.44583 0.0
O642 O 0.78919 0.37063 0.50472 0.0
O643 O 0.73236 0.2979 0.47881 0.0
O644 O 0.80141 0.4064 0.5053 0.0
O645 O 0.76179 0.31294 0.52093 0.0
O646 O 0.76538 0.29644 0.46061 0.0
O647 O 0.79439 0.31967 0.50443 0.0
O648 O 0.71901 0.37977 0.47446 0.0
O649 O 0.70375 0.34643 0.48118 0.0
C650 C 0.70227 0.36655 0.47364 0.0
C651 C 0.74612 0.28836 0.46535 0.0
O652 O 0.7726 0.38303 0.4561 0.0
O653 O 0.72346 0.44398 0.5166 0.0
O654 O 0.79426 0.35221 0.45125 0.0
O655 O 0.72985 0.43381 0.46371 0.0
O656 O 0.75994 0.45276 0.51707 0.0
O657 O 0.7671 0.43559 0.46209 0.0
O658 O 0.73535 0.36213 0.52015 0.0
O659 O 0.71126 0.39031 0.52555 0.0
C660 C 0.78314 0.31162 0.52064 0.0
C661 C 0.80431 0.38534 0.50856 0.0
C662 C 0.62997 0.01585 0.70429 0.0
C663 C 0.71 0.02446 0.74191 0.0
C664 C 0.68971 0.97084 0.78318 0.0
Mg665 Mg 0.58504 0.9953 0.72313 0.0
Mg666 Mg 0.57153 0.99182 0.7765 0.0
O667 O 0.5933 0.98732 0.75486 0.0
Mg668 Mg 0.62418 0.0002 0.75619 0.0
O669 O 0.65561 0.01182 0.75356 0.0
Mg670 Mg 0.6682 0.98826 0.73313 0.0
Mg671 Mg 0.67306 0.0187 0.77842 0.0
C672 C 0.61344 0.9789 0.80696 0.0
O673 O 0.61556 0.03247 0.77546 0.0
O674 O 0.55403 0.973 0.72717 0.0
O675 O 0.64773 0.03969 0.79401 0.0
O676 O 0.563 0.02589 0.73469 0.0
O677 O 0.54585 0.97014 0.76375 0.0
O678 O 0.56054 0.02547 0.77202 0.0
O679 O 0.63533 0.96942 0.7378 0.0
O680 O 0.60729 0.96498 0.71355 0.0
C681 C 0.62625 0.95889 0.72171 0.0
C682 C 0.54202 0.96541 0.74325 0.0
O683 O 0.62799 0.98366 0.79173 0.0
O684 O 0.69977 0.0097 0.73038 0.0
O685 O 0.5923 0.98186 0.80442 0.0
O686 O 0.68611 0.96901 0.76216 0.0
O687 O 0.7025 0.0313 0.76082 0.0
O688 O 0.68306 0.98795 0.79397 0.0
O689 O 0.61748 0.01573 0.72172 0.0
O690 O 0.64982 0.00753 0.70483 0.0
C691 C 0.55639 0.03464 0.75313 0.0
C692 C 0.62695 0.04363 0.7898 0.0
C693 C 0.47344 0.29775 0.13266 0.0
C694 C 0.46508 0.25859 0.21245 0.0
C695 C 0.52426 0.22467 0.19539 0.0
Mg696 Mg 0.49801 0.27955 0.08823 0.0
Mg697 Mg 0.50285 0.22605 0.07768 0.0
O698 O 0.50836 0.24883 0.09794 0.0
Mg699 Mg 0.49446 0.24767 0.12849 0.0
O700 O 0.48116 0.24942 0.15927 0.0
Mg701 Mg 0.50182 0.27221 0.17232 0.0
Mg702 Mg 0.47752 0.22332 0.17637 0.0
C703 C 0.51643 0.19758 0.12068 0.0
O704 O 0.46483 0.22535 0.11908 0.0
O705 O 0.52025 0.2751 0.057 0.0
O706 O 0.45974 0.20499 0.15073 0.0
O707 O 0.46818 0.26609 0.06677 0.0
O708 O 0.52327 0.23818 0.0505 0.0
O709 O 0.46895 0.2288 0.06709 0.0
O710 O 0.52293 0.26914 0.14019 0.0
O711 O 0.52744 0.29144 0.11033 0.0
C712 C 0.53295 0.28523 0.13022 0.0
C713 C 0.52753 0.25858 0.0454 0.0
O714 O 0.51284 0.21377 0.13432 0.0
O715 O 0.47836 0.27229 0.20262 0.0
O716 O 0.51248 0.19879 0.09961 0.0
O717 O 0.52332 0.24579 0.19177 0.0
O718 O 0.46177 0.23867 0.20537 0.0
O719 O 0.50946 0.21164 0.1876 0.0
O720 O 0.47677 0.28065 0.12028 0.0
O721 O 0.48016 0.29793 0.15302 0.0
C722 C 0.45966 0.24723 0.06148 0.0
C723 C 0.45564 0.20919 0.12998 0.0
C724 C 0.08098 0.3634 0.63769 0.0
C725 C 0.06106 0.36702 0.62583 0.0
C726 C 0.08091 0.35145 0.6578 0.0
C727 C 0.04178 0.34047 0.70368 0.0
H728 H 0.09138 0.30651 0.72871 0.0
C729 C 0.04032 0.31822 0.79589 0.0
C730 C 0.04395 0.29539 0.80044 0.0
C731 C 0.04722 0.32752 0.77556 0.0
C732 C 0.07738 0.31595 0.72196 0.0
H733 H 0.02572 0.35993 0.62452 0.0
H734 H 0.02556 0.33811 0.65941 0.0
H735 H 0.09192 0.31725 0.68923 0.0
H736 H 0.06064 0.26534 0.78865 0.0
H737 H 0.07223 0.2814 0.7532 0.0
H738 H 0.02687 0.33866 0.73601 0.0
C739 C 0.04122 0.34489 0.65344 0.0
C740 C 0.07771 0.32217 0.69934 0.0
C741 C 0.04132 0.35701 0.63331 0.0
C742 C 0.05733 0.28293 0.78563 0.0
C743 C 0.06399 0.29217 0.76517 0.0
C744 C 0.04141 0.33419 0.72617 0.0
C745 C 0.06083 0.34291 0.66645 0.0
C746 C 0.05991 0.33454 0.68993 0.0
C747 C 0.05772 0.31414 0.75932 0.0
C748 C 0.05923 0.32195 0.73568 0.0
H749 H 0.09632 0.37123 0.6322 0.0
H750 H 0.09627 0.35044 0.66733 0.0
H751 H 0.02798 0.35038 0.6972 0.0
H752 H 0.03043 0.3284 0.80714 0.0
H753 H 0.04291 0.34479 0.77192 0.0
C754 C 0.61995 0.72587 0.63863 0.0
C755 C 0.63459 0.7075 0.63673 0.0
C756 C 0.60562 0.73157 0.62102 0.0
C757 C 0.602 0.72472 0.56025 0.0
H758 H 0.54039 0.74429 0.56688 0.0
C759 C 0.54107 0.72581 0.4875 0.0
C760 C 0.52853 0.74543 0.48372 0.0
C761 C 0.55339 0.7231 0.50703 0.0
C762 C 0.55767 0.73913 0.56491 0.0
H763 H 0.64458 0.6797 0.61581 0.0
H764 H 0.61926 0.6893 0.58539 0.0
H765 H 0.56252 0.73487 0.60021 0.0
H766 H 0.51869 0.77741 0.49768 0.0
H767 H 0.54029 0.77243 0.53225 0.0
H768 H 0.59707 0.72839 0.52505 0.0
C769 C 0.61934 0.69975 0.6001 0.0
C770 C 0.57029 0.73373 0.58389 0.0
C771 C 0.63374 0.69418 0.61756 0.0
C772 C 0.5283 0.76217 0.5001 0.0
C773 C 0.54051 0.75931 0.51987 0.0
C774 C 0.58941 0.72996 0.54139 0.0
C775 C 0.60566 0.71888 0.60136 0.0
C776 C 0.59243 0.72601 0.58166 0.0
C777 C 0.55332 0.73984 0.5233 0.0
C778 C 0.56704 0.73677 0.54353 0.0
H779 H 0.62027 0.73642 0.65326 0.0
H780 H 0.59525 0.74642 0.62242 0.0
H781 H 0.61922 0.71946 0.55805 0.0
H782 H 0.54163 0.71257 0.47525 0.0
H783 H 0.56295 0.70781 0.50946 0.0
C784 C 0.96878 0.12289 0.63577 0.0
C785 C 0.95926 0.12707 0.61474 0.0
C786 C 0.9738 0.14055 0.64984 0.0
C787 C 0.95388 0.19302 0.66739 0.0
H788 H 0.01094 0.19571 0.69798 0.0
C789 C 0.96919 0.24254 0.74976 0.0
C790 C 0.98007 0.22941 0.76614 0.0
C791 C 0.9676 0.23496 0.72772 0.0
C792 C 0.99497 0.19532 0.68946 0.0
H793 H 0.9475 0.15274 0.59172 0.0
H794 H 0.9556 0.1839 0.61702 0.0
H795 H 0.00746 0.17336 0.66423 0.0
H796 H 0.99687 0.19764 0.77243 0.0
H797 H 0.99388 0.18452 0.73442 0.0
H798 H 0.94096 0.21359 0.69368 0.0
C799 C 0.95958 0.16694 0.62222 0.0
C800 C 0.99305 0.18268 0.67014 0.0
C801 C 0.95506 0.14922 0.60783 0.0
C802 C 0.98862 0.20833 0.76024 0.0
C803 C 0.9871 0.20087 0.73837 0.0
C804 C 0.95576 0.20559 0.68691 0.0
C805 C 0.96894 0.16265 0.64333 0.0
C806 C 0.97228 0.18063 0.65958 0.0
C807 C 0.977 0.21425 0.72181 0.0
C808 C 0.97607 0.20587 0.69867 0.0
H809 H 0.97217 0.10594 0.64141 0.0
H810 H 0.98076 0.13689 0.66621 0.0
H811 H 0.93767 0.19152 0.65949 0.0
H812 H 0.96245 0.25887 0.75379 0.0
H813 H 0.95955 0.24547 0.71524 0.0
C814 C 0.3576 0.76921 0.61573 0.0
C815 C 0.34397 0.78846 0.61545 0.0
C816 C 0.36704 0.76112 0.59585 0.0
C817 C 0.36 0.76515 0.53393 0.0
H818 H 0.42037 0.74132 0.53224 0.0
C819 C 0.41445 0.761 0.4545 0.0
C820 C 0.43026 0.74362 0.45245 0.0
C821 C 0.40057 0.76222 0.47328 0.0
C822 C 0.40331 0.74752 0.53248 0.0
H823 H 0.33045 0.81487 0.59427 0.0
H824 H 0.34734 0.80128 0.56 0.0
H825 H 0.40423 0.75269 0.56786 0.0
H826 H 0.44233 0.71271 0.46752 0.0
H827 H 0.418 0.71481 0.50025 0.0
H828 H 0.35945 0.76073 0.4984 0.0
C829 C 0.3502 0.79191 0.57532 0.0
C830 C 0.39406 0.7541 0.55293 0.0
C831 C 0.34068 0.79986 0.59506 0.0
C832 C 0.43031 0.7263 0.46851 0.0
C833 C 0.41658 0.72766 0.48745 0.0
C834 C 0.3693 0.75871 0.51348 0.0
C835 C 0.36315 0.77219 0.57531 0.0
C836 C 0.37244 0.76344 0.55388 0.0
C837 C 0.40228 0.74615 0.49051 0.0
C838 C 0.39121 0.75018 0.51244 0.0
H839 H 0.3603 0.75993 0.63113 0.0
H840 H 0.37684 0.74584 0.5965 0.0
H841 H 0.34308 0.77171 0.53404 0.0
H842 H 0.41396 0.77458 0.44241 0.0
H843 H 0.38974 0.77669 0.47508 0.0
C844 C 0.05893 0.64811 0.87091 0.0
C845 C 0.07554 0.63195 0.87508 0.0
C846 C 0.05928 0.66061 0.85094 0.0
C847 C 0.06685 0.68936 0.80897 0.0
H848 H 0.08203 0.65302 0.7576 0.0
C849 C 0.0565 0.72419 0.71974 0.0
C850 C 0.04384 0.71031 0.70575 0.0
C851 C 0.0659 0.71573 0.73951 0.0
C852 C 0.07781 0.66344 0.77174 0.0
H853 H 0.10649 0.61748 0.86294 0.0
H854 H 0.10763 0.63976 0.82876 0.0
H855 H 0.08673 0.63772 0.79508 0.0
H856 H 0.03347 0.67609 0.70033 0.0
H857 H 0.0499 0.66139 0.73458 0.0
H858 H 0.05682 0.71467 0.78546 0.0
C859 C 0.0939 0.64234 0.84028 0.0
C860 C 0.08073 0.65476 0.79331 0.0
C861 C 0.09337 0.62973 0.85996 0.0
C862 C 0.04294 0.68732 0.71076 0.0
C863 C 0.05241 0.67886 0.73047 0.0
C864 C 0.06392 0.69805 0.78735 0.0
C865 C 0.07638 0.65724 0.83501 0.0
C866 C 0.07498 0.66747 0.81222 0.0
C867 C 0.06306 0.69318 0.74561 0.0
C868 C 0.06899 0.68504 0.76846 0.0
H869 H 0.04493 0.64996 0.88225 0.0
H870 H 0.04547 0.67189 0.84741 0.0
H871 H 0.06244 0.69968 0.82313 0.0
H872 H 0.05771 0.74197 0.71637 0.0
H873 H 0.07448 0.72709 0.75055 0.0
C874 C 0.85778 0.69216 0.39897 0.0
C875 C 0.85935 0.70468 0.37907 0.0
C876 C 0.86667 0.70019 0.41886 0.0
C877 C 0.90498 0.74192 0.44315 0.0
H878 H 0.86969 0.73022 0.4964 0.0
C879 C 0.93407 0.77132 0.5298 0.0
C880 C 0.93577 0.75358 0.5453 0.0
C881 C 0.92152 0.76891 0.51021 0.0
C882 C 0.87969 0.73367 0.48169 0.0
H883 H 0.8722 0.73511 0.3642 0.0
H884 H 0.8877 0.74941 0.39921 0.0
H885 H 0.85589 0.71852 0.46003 0.0
H886 H 0.92389 0.72037 0.55354 0.0
H887 H 0.90155 0.71644 0.51979 0.0
H888 H 0.92886 0.75693 0.465 0.0
C889 C 0.87975 0.73321 0.39934 0.0
C890 C 0.8719 0.72683 0.46083 0.0
C891 C 0.87098 0.725 0.37926 0.0
C892 C 0.92288 0.73434 0.54193 0.0
C893 C 0.9101 0.73208 0.52254 0.0
C894 C 0.9127 0.74892 0.46405 0.0
C895 C 0.87714 0.72115 0.41951 0.0
C896 C 0.8847 0.73032 0.44135 0.0
C897 C 0.91013 0.74891 0.50598 0.0
C898 C 0.90037 0.74442 0.4836 0.0
H899 H 0.84905 0.67634 0.39928 0.0
H900 H 0.86496 0.69009 0.43386 0.0
H901 H 0.91533 0.74482 0.42857 0.0
H902 H 0.94392 0.78629 0.53182 0.0
H903 H 0.92159 0.78228 0.49788 0.0
C904 C 0.95894 0.87068 0.862 0.0
C905 C 0.95311 0.86776 0.88453 0.0
C906 C 0.96197 0.85225 0.84827 0.0
C907 C 0.94147 0.79905 0.83583 0.0
H908 H 0.99435 0.79569 0.7984 0.0
C909 C 0.96009 0.7469 0.75248 0.0
C910 C 0.96352 0.76261 0.73518 0.0
C911 C 0.95758 0.75409 0.77463 0.0
C912 C 0.97967 0.79605 0.80904 0.0
H913 H 0.94585 0.84347 0.91056 0.0
H914 H 0.95047 0.81081 0.88596 0.0
H915 H 0.9947 0.81884 0.83185 0.0
H916 H 0.96489 0.798 0.72709 0.0
H917 H 0.96048 0.81036 0.76549 0.0
H918 H 0.92591 0.77765 0.81173 0.0
C919 C 0.95309 0.82746 0.87925 0.0
C920 C 0.97989 0.80923 0.82811 0.0
C921 C 0.95058 0.84602 0.89324 0.0
C922 C 0.96256 0.78551 0.74009 0.0
C923 C 0.96005 0.7926 0.76202 0.0
C924 C 0.94124 0.78583 0.81658 0.0
C925 C 0.95881 0.83054 0.85667 0.0
C926 C 0.96048 0.81166 0.84104 0.0
C927 C 0.95842 0.77698 0.77951 0.0
C928 C 0.96005 0.78514 0.80259 0.0
H929 H 0.96098 0.88728 0.85492 0.0
H930 H 0.96615 0.855 0.83084 0.0
H931 H 0.92627 0.8009 0.84551 0.0
H932 H 0.96086 0.72914 0.74913 0.0
H933 H 0.9563 0.74183 0.78799 0.0
C934 C 0.13065 0.81644 0.38051 0.0
C935 C 0.12439 0.80875 0.35929 0.0
C936 C 0.11665 0.81348 0.39883 0.0
C937 C 0.08092 0.81392 0.43388 0.0
H938 H 0.05316 0.75594 0.44107 0.0
C939 C 0.03 0.79172 0.51239 0.0
C940 C 0.03229 0.7699 0.52102 0.0
C941 C 0.03894 0.7973 0.49158 0.0
C942 C 0.06095 0.77215 0.43937 0.0
H943 H 0.09803 0.79279 0.34046 0.0
H944 H 0.07322 0.78793 0.37266 0.0
H945 H 0.07241 0.76501 0.4063 0.0
H946 H 0.04606 0.7369 0.51476 0.0
H947 H 0.06253 0.74688 0.47879 0.0
H948 H 0.07072 0.82064 0.46735 0.0
C949 C 0.08924 0.79588 0.37507 0.0
C950 C 0.07165 0.7775 0.41929 0.0
C951 C 0.10337 0.79878 0.35663 0.0
C952 C 0.04398 0.75384 0.50852 0.0
C953 C 0.05321 0.75951 0.4878 0.0
C954 C 0.07046 0.8085 0.45401 0.0
C955 C 0.09591 0.80294 0.39642 0.0
C956 C 0.08212 0.79829 0.4165 0.0
C957 C 0.05068 0.78129 0.47904 0.0
C958 C 0.06065 0.78743 0.45713 0.0
H959 H 0.14669 0.82428 0.38317 0.0
H960 H 0.12251 0.81878 0.41506 0.0
H961 H 0.08852 0.83022 0.43214 0.0
H962 H 0.0208 0.80442 0.52145 0.0
H963 H 0.03634 0.81411 0.48521 0.0
C964 C 0.65843 0.05874 0.39691 0.0
C965 C 0.63767 0.0621 0.38634 0.0
C966 C 0.67818 0.05953 0.38478 0.0
C967 C 0.70428 0.08164 0.33427 0.0
H968 H 0.74848 0.03565 0.34744 0.0
C969 C 0.7838 0.06223 0.28245 0.0
C970 C 0.80157 0.05146 0.29369 0.0
C971 C 0.76496 0.06938 0.2943 0.0
C972 C 0.73656 0.04893 0.3439 0.0
H973 H 0.62139 0.06888 0.35462 0.0
H974 H 0.65648 0.07001 0.33303 0.0
H975 H 0.7121 0.034 0.36512 0.0
H976 H 0.81542 0.04354 0.32631 0.0
H977 H 0.78294 0.05682 0.34704 0.0
H978 H 0.72896 0.09638 0.31273 0.0
C979 C 0.65715 0.0669 0.35088 0.0
C980 C 0.7156 0.04783 0.35386 0.0
C981 C 0.63713 0.06599 0.36314 0.0
C982 C 0.80176 0.05132 0.31716 0.0
C983 C 0.78306 0.05874 0.32901 0.0
C984 C 0.72542 0.08275 0.3242 0.0
C985 C 0.67784 0.06365 0.36169 0.0
C986 C 0.6993 0.06424 0.34937 0.0
C987 C 0.76382 0.06617 0.31756 0.0
C988 C 0.74186 0.06649 0.32911 0.0
H989 H 0.65951 0.05575 0.41477 0.0
H990 H 0.69385 0.05726 0.39363 0.0
H991 H 0.69205 0.09461 0.33067 0.0
H992 H 0.78323 0.06284 0.26435 0.0
H993 H 0.75052 0.07525 0.28499 0.0
C994 C 0.28687 0.11981 0.88355 0.0
C995 C 0.28529 0.12437 0.86058 0.0
C996 C 0.27834 0.09972 0.89221 0.0
C997 C 0.26801 0.04269 0.87313 0.0
H998 H 0.23804 0.0346 0.93004 0.0
C999 C 0.267 0.96033 0.92337 0.0
C1000 C 0.24781 0.95519 0.9359 0.0
C1001 C 0.26793 0.98006 0.9108 0.0
C1002 C 0.24611 0.03665 0.91394 0.0
H1003 H 0.27205 0.11292 0.82898 0.0
H1004 H 0.25696 0.07831 0.84404 0.0
H1005 H 0.24615 0.07242 0.91651 0.0
H1006 H 0.21374 0.96554 0.94326 0.0
H1007 H 0.21544 1e-05 0.92124 0.0
H1008 H 0.26842 0.007 0.87072 0.0
C1009 C 0.26522 0.08969 0.85531 0.0
C1010 C 0.25098 0.05826 0.90637 0.0
C1011 C 0.27378 0.10951 0.84673 0.0
C1012 C 0.2288 0.96903 0.93382 0.0
C1013 C 0.22983 0.98891 0.92145 0.0
C1014 C 0.2633 0.02114 0.88076 0.0
C1015 C 0.26811 0.08416 0.87795 0.0
C1016 C 0.2621 0.06147 0.88594 0.0
C1017 C 0.24973 0.99505 0.91064 0.0
C1018 C 0.25249 0.01788 0.90132 0.0
H1019 H 0.2957 0.1311 0.89447 0.0
H1020 H 0.28078 0.09584 0.90976 0.0
H1021 H 0.27685 0.04462 0.85743 0.0
H1022 H 0.28186 0.94991 0.92455 0.0
H1023 H 0.28349 0.98434 0.9026 0.0
C1024 C 0.37022 0.44691 0.35808 0.0
C1025 C 0.37457 0.43045 0.37437 0.0
C1026 C 0.35058 0.44602 0.34527 0.0
C1027 C 0.29358 0.42311 0.35014 0.0
H1028 H 0.28674 0.44589 0.2897 0.0
C1029 C 0.22136 0.44386 0.2787 0.0
C1030 C 0.2065 0.45637 0.292 0.0
C1031 C 0.24121 0.43524 0.28778 0.0
C1032 C 0.28838 0.4391 0.30647 0.0
H1033 H 0.3631 0.3992 0.38874 0.0
H1034 H 0.32949 0.3972 0.366 0.0
H1035 H 0.32411 0.44163 0.30562 0.0
H1036 H 0.19964 0.46731 0.32583 0.0
H1037 H 0.23404 0.45221 0.34161 0.0
H1038 H 0.25791 0.42077 0.3511 0.0
C1039 C 0.34061 0.41122 0.36355 0.0
C1040 C 0.30981 0.43695 0.31569 0.0
C1041 C 0.35996 0.41226 0.37644 0.0
C1042 C 0.21077 0.45793 0.31505 0.0
C1043 C 0.23056 0.44923 0.32413 0.0
C1044 C 0.27221 0.42525 0.34094 0.0
C1045 C 0.33516 0.42853 0.34846 0.0
C1046 C 0.31266 0.42923 0.33776 0.0
C1047 C 0.2465 0.43873 0.31037 0.0
C1048 C 0.26929 0.43364 0.31913 0.0
H1049 H 0.38117 0.46117 0.35629 0.0
H1050 H 0.34689 0.45969 0.33385 0.0
H1051 H 0.29505 0.41739 0.3673 0.0
H1052 H 0.21858 0.4422 0.2609 0.0
H1053 H 0.25292 0.42677 0.27685 0.0
C1054 C 0.67969 0.39283 0.84837 0.0
C1055 C 0.69147 0.3726 0.85096 0.0
C1056 C 0.68407 0.41085 0.8623 0.0
C1057 C 0.71198 0.42648 0.91545 0.0
H1058 H 0.71056 0.48564 0.88837 0.0
C1059 C 0.74684 0.50558 0.9579 0.0
C1060 C 0.73243 0.52426 0.95806 0.0
C1061 C 0.74162 0.48678 0.94527 0.0
C1062 C 0.71086 0.46922 0.89616 0.0
H1063 H 0.71682 0.35515 0.87037 0.0
H1064 H 0.7251 0.38691 0.89429 0.0
H1065 H 0.702 0.45315 0.86574 0.0
H1066 H 0.70141 0.538 0.94489 0.0
H1067 H 0.69257 0.50527 0.92243 0.0
H1068 H 0.72157 0.44278 0.94574 0.0
C1069 C 0.71208 0.38873 0.88183 0.0
C1070 C 0.70585 0.45058 0.88327 0.0
C1071 C 0.70742 0.37055 0.86808 0.0
C1072 C 0.71283 0.52386 0.94513 0.0
C1073 C 0.7078 0.50519 0.93223 0.0
C1074 C 0.71731 0.44513 0.92827 0.0
C1075 C 0.70062 0.40921 0.87894 0.0
C1076 C 0.70619 0.42897 0.89277 0.0
C1077 C 0.72209 0.48646 0.9323 0.0
C1078 C 0.71667 0.46666 0.91875 0.0
H1079 H 0.66706 0.39477 0.8355 0.0
H1080 H 0.67448 0.42611 0.85995 0.0
H1081 H 0.71211 0.41016 0.92343 0.0
H1082 H 0.76201 0.50531 0.96779 0.0
H1083 H 0.75297 0.47259 0.94545 0.0
C1084 C 0.63151 0.92776 0.14994 0.0
C1085 C 0.61217 0.9407 0.14635 0.0
C1086 C 0.64412 0.9304 0.16923 0.0
C1087 C 0.65945 0.97487 0.20587 0.0
H1088 H 0.69824 0.92831 0.22991 0.0
C1089 C 0.75066 0.9645 0.25282 0.0
C1090 C 0.76261 0.97902 0.23862 0.0
C1091 C 0.7282 0.95977 0.24856 0.0
C1092 C 0.68728 0.94152 0.22385 0.0
H1093 H 0.58984 0.96537 0.16079 0.0
H1094 H 0.61236 0.97041 0.19465 0.0
H1095 H 0.66349 0.91818 0.21136 0.0
H1096 H 0.76026 -6e-05 0.20885 0.0
H1097 H 0.72143 0.9915 0.20135 0.0
H1098 H 0.68376 0.99814 0.21739 0.0
C1099 C 0.61767 0.95821 0.18243 0.0
C1100 C 0.66746 0.93572 0.21312 0.0
C1101 C 0.60483 0.95536 0.1631 0.0
C1102 C 0.75164 0.98866 0.22013 0.0
C1103 C 0.72925 0.98406 0.21599 0.0
C1104 C 0.67922 0.98066 0.21663 0.0
C1105 C 0.63777 0.94616 0.18536 0.0
C1106 C 0.65407 0.95227 0.20285 0.0
C1107 C 0.71727 0.96966 0.23018 0.0
C1108 C 0.69393 0.96397 0.22452 0.0
H1109 H 0.63734 0.91603 0.13746 0.0
H1110 H 0.65964 0.92108 0.17076 0.0
H1111 H 0.64952 0.98803 0.19815 0.0
H1112 H 0.7586 0.95684 0.26727 0.0
H1113 H 0.71936 0.94852 0.25968 0.0
C1114 C 0.21509 0.13241 0.12319 0.0
C1115 C 0.19964 0.132 0.1409 0.0
C1116 C 0.2185 0.11347 0.11006 0.0
C1117 C 0.19326 0.06182 0.09087 0.0
H1118 H 0.25431 0.04036 0.08535 0.0
C1119 C 0.21448 0.97739 0.0489 0.0
C1120 C 0.23446 0.97593 0.03663 0.0
C1121 C 0.20973 0.99632 0.06171 0.0
C1122 C 0.23719 0.04627 0.08634 0.0
H1123 H 0.17505 0.11178 0.15822 0.0
H1124 H 0.18069 0.07879 0.13483 0.0
H1125 H 0.24651 0.07412 0.10651 0.0
H1126 H 0.26486 0.9934 0.02769 0.0
H1127 H 0.25626 0.02664 0.04917 0.0
H1128 H 0.18389 0.03445 0.07017 0.0
C1129 C 0.19027 0.09371 0.13133 0.0
C1130 C 0.23276 0.06557 0.09858 0.0
C1131 C 0.18713 0.11253 0.14474 0.0
C1132 C 0.24945 0.99388 0.0372 0.0
C1133 C 0.24454 0.01293 0.04967 0.0
C1134 C 0.19771 0.04269 0.07827 0.0
C1135 C 0.20625 0.09391 0.11413 0.0
C1136 C 0.21077 0.07352 0.10096 0.0
C1137 C 0.2247 0.01438 0.06224 0.0
C1138 C 0.21977 0.03464 0.07582 0.0
H1139 H 0.22503 0.14714 0.11986 0.0
H1140 H 0.23081 0.11406 0.09678 0.0
H1141 H 0.17616 0.06773 0.09238 0.0
H1142 H 0.20264 0.96376 0.04888 0.0
H1143 H 0.19445 0.99662 0.07142 0.0
C1144 C 0.39512 0.54753 0.15711 0.0
C1145 C 0.39218 0.56501 0.14155 0.0
C1146 C 0.38012 0.54504 0.17496 0.0
C1147 C 0.33172 0.57227 0.20422 0.0
H1148 H 0.30751 0.51235 0.20408 0.0
C1149 C 0.24213 0.52653 0.21354 0.0
C1150 C 0.23398 0.5336 0.23441 0.0
C1151 C 0.26399 0.53105 0.20705 0.0
C1152 C 0.31418 0.52914 0.20445 0.0
H1153 H 0.3727 0.59475 0.13362 0.0
H1154 H 0.34667 0.59037 0.16441 0.0
H1155 H 0.34297 0.51959 0.18561 0.0
H1156 H 0.24237 0.55186 0.26444 0.0
H1157 H 0.2808 0.56015 0.25274 0.0
H1158 H 0.30203 0.58194 0.22198 0.0
C1159 C 0.36041 0.57856 0.16305 0.0
C1160 C 0.33467 0.53324 0.19412 0.0
C1161 C 0.37523 0.58095 0.14522 0.0
C1162 C 0.24809 0.54617 0.24826 0.0
C1163 C 0.27008 0.55087 0.24162 0.0
C1164 C 0.31117 0.56812 0.21465 0.0
C1165 C 0.3621 0.56009 0.17763 0.0
C1166 C 0.34327 0.55503 0.19309 0.0
C1167 C 0.27836 0.54287 0.22115 0.0
C1168 C 0.3018 0.54668 0.21403 0.0
H1169 H 0.40809 0.53505 0.15472 0.0
H1170 H 0.38202 0.53077 0.18608 0.0
H1171 H 0.33805 0.58919 0.20397 0.0
H1172 H 0.23178 0.51699 0.20229 0.0
H1173 H 0.2697 0.52518 0.19092 0.0
C1174 C 0.79532 0.39196 0.12776 0.0
C1175 C 0.78178 0.37289 0.12848 0.0
C1176 C 0.78683 0.41228 0.11995 0.0
C1177 C 0.74295 0.43998 0.08736 0.0
H1178 H 0.75754 0.49005 0.12549 0.0
C1179 C 0.72071 0.52945 0.06043 0.0
C1180 C 0.73974 0.54311 0.0599 0.0
C1181 C 0.72081 0.50958 0.07292 0.0
C1182 C 0.75323 0.47625 0.11472 0.0
H1183 H 0.7492 0.3597 0.12015 0.0
H1184 H 0.73432 0.39551 0.10604 0.0
H1185 H 0.76846 0.45225 0.13669 0.0
H1186 H 0.77261 0.5482 0.07415 0.0
H1187 H 0.77273 0.51381 0.09602 0.0
H1188 H 0.72853 0.46412 0.06493 0.0
C1189 C 0.75149 0.39461 0.11172 0.0
C1190 C 0.75955 0.45463 0.12107 0.0
C1191 C 0.76005 0.37412 0.1196 0.0
C1192 C 0.75778 0.53789 0.07407 0.0
C1193 C 0.7578 0.51817 0.08667 0.0
C1194 C 0.73667 0.46169 0.08094 0.0
C1195 C 0.76457 0.41404 0.11268 0.0
C1196 C 0.75516 0.43638 0.1071 0.0
C1197 C 0.73981 0.50323 0.08531 0.0
C1198 C 0.74238 0.48012 0.09424 0.0
H1199 H 0.8122 0.39143 0.13431 0.0
H1200 H 0.7975 0.42683 0.12026 0.0
H1201 H 0.73933 0.42622 0.0763 0.0
H1202 H 0.70652 0.53304 0.04971 0.0
H1203 H 0.70654 0.49858 0.07188 0.0
C1204 C 0.39406 0.65394 0.06853 0.0
C1205 C 0.38383 0.63288 0.07003 0.0
C1206 C 0.38144 0.67354 0.06995 0.0
C1207 C 0.32414 0.69543 0.06262 0.0
H1208 H 0.35065 0.74888 0.08733 0.0
C1209 C 0.28025 0.78025 0.05342 0.0
C1210 C 0.29364 0.79568 0.0417 0.0
C1211 C 0.28987 0.76139 0.06359 0.0
C1212 C 0.34298 0.73406 0.08052 0.0
H1213 H 0.35221 0.61598 0.07465 0.0
H1214 H 0.33002 0.65043 0.07745 0.0
H1215 H 0.36951 0.71283 0.09212 0.0
H1216 H 0.32782 0.80479 0.03392 0.0
H1217 H 0.34458 0.77209 0.05202 0.0
H1218 H 0.29778 0.71679 0.05077 0.0
C1219 C 0.34788 0.65168 0.07481 0.0
C1220 C 0.35381 0.71341 0.08311 0.0
C1221 C 0.36058 0.63193 0.07323 0.0
C1222 C 0.31701 0.79315 0.04261 0.0
C1223 C 0.32663 0.77441 0.05303 0.0
C1224 C 0.31318 0.71604 0.06028 0.0
C1225 C 0.35819 0.67275 0.07314 0.0
C1226 C 0.34493 0.69395 0.07352 0.0
C1227 C 0.31306 0.75779 0.0626 0.0
C1228 C 0.32281 0.73566 0.06863 0.0
H1229 H 0.41193 0.6554 0.066 0.0
H1230 H 0.38996 0.68935 0.06801 0.0
H1231 H 0.31687 0.68092 0.05482 0.0
H1232 H 0.26219 0.78172 0.05323 0.0
H1233 H 0.27905 0.74901 0.07118 0.0
C1234 C 0.36489 0.36904 0.45821 0.0
C1235 C 0.38138 0.3732 0.44207 0.0
C1236 C 0.35251 0.3492 0.45741 0.0
C1237 C 0.35837 0.29193 0.43537 0.0
H1238 H 0.29691 0.28559 0.45467 0.0
C1239 C 0.32112 0.2093 0.4672 0.0
C1240 C 0.29817 0.20543 0.46418 0.0
C1241 C 0.33078 0.22903 0.45931 0.0
C1242 C 0.31398 0.28711 0.44885 0.0
H1243 H 0.39656 0.36127 0.41143 0.0
H1244 H 0.37465 0.32733 0.40963 0.0
H1245 H 0.31311 0.32284 0.4515 0.0
H1246 H 0.26801 0.21805 0.44811 0.0
H1247 H 0.28501 0.25231 0.4341 0.0
H1248 H 0.35933 0.25628 0.4328 0.0
C1249 C 0.37175 0.33868 0.42338 0.0
C1250 C 0.32334 0.30845 0.44736 0.0
C1251 C 0.38421 0.35817 0.42435 0.0
C1252 C 0.28568 0.22059 0.45099 0.0
C1253 C 0.29535 0.24036 0.44315 0.0
C1254 C 0.34903 0.27066 0.43684 0.0
C1255 C 0.35634 0.33349 0.44031 0.0
C1256 C 0.34573 0.31108 0.44083 0.0
C1257 C 0.31772 0.24527 0.44815 0.0
C1258 C 0.32683 0.26796 0.44391 0.0
H1259 H 0.36246 0.38043 0.472 0.0
H1260 H 0.34078 0.34568 0.47075 0.0
H1261 H 0.37577 0.29327 0.43057 0.0
H1262 H 0.3313 0.19791 0.47711 0.0
H1263 H 0.34808 0.23224 0.46342 0.0
C1264 C 0.6205 0.37797 0.75872 0.0
C1265 C 0.62239 0.36928 0.78051 0.0
C1266 C 0.60085 0.38911 0.75209 0.0
C1267 C 0.54847 0.41445 0.77448 0.0
H1268 H 0.52145 0.3936 0.71954 0.0
C1269 C 0.45607 0.42685 0.76126 0.0
C1270 C 0.45114 0.44054 0.74267 0.0
C1271 C 0.47664 0.41583 0.76274 0.0
C1272 C 0.52888 0.39956 0.73487 0.0
H1273 H 0.60626 0.36652 0.81281 0.0
H1274 H 0.57239 0.38598 0.80153 0.0
H1275 H 0.56015 0.38301 0.72854 0.0
H1276 H 0.46242 0.45054 0.70958 0.0
H1277 H 0.4983 0.43098 0.71216 0.0
H1278 H 0.51714 0.43038 0.7812 0.0
C1279 C 0.58579 0.38442 0.78944 0.0
C1280 C 0.55107 0.39374 0.73992 0.0
C1281 C 0.6052 0.37323 0.79595 0.0
C1282 C 0.46577 0.44027 0.72421 0.0
C1283 C 0.48639 0.42915 0.72569 0.0
C1284 C 0.52636 0.41999 0.76958 0.0
C1285 C 0.58304 0.39189 0.76727 0.0
C1286 C 0.56092 0.40076 0.76004 0.0
C1287 C 0.49253 0.41813 0.74558 0.0
C1288 C 0.51619 0.41222 0.75 0.0
H1289 H 0.63347 0.37482 0.74647 0.0
H1290 H 0.59928 0.39488 0.73495 0.0
H1291 H 0.55569 0.42054 0.78986 0.0
H1292 H 0.44498 0.42637 0.77558 0.0
H1293 H 0.48082 0.40692 0.77804 0.0
C1294 C 0.62967 0.14349 0.45196 0.0
C1295 C 0.6324 0.12022 0.45397 0.0
C1296 C 0.64812 0.15725 0.44961 0.0
C1297 C 0.70523 0.16638 0.46119 0.0
H1298 H 0.69926 0.20801 0.41136 0.0
C1299 C 0.75511 0.24886 0.45518 0.0
C1300 C 0.73969 0.26668 0.45606 0.0
C1301 C 0.74787 0.22732 0.44992 0.0
C1302 C 0.70148 0.19623 0.42506 0.0
H1303 H 0.65672 0.09322 0.4564 0.0
H1304 H 0.68943 0.11781 0.45285 0.0
H1305 H 0.67515 0.17531 0.41348 0.0
H1306 H 0.70518 0.27654 0.45086 0.0
H1307 H 0.69268 0.23924 0.44099 0.0
H1308 H 0.73042 0.18837 0.47364 0.0
C1309 C 0.67279 0.12507 0.45279 0.0
C1310 C 0.68772 0.17759 0.42629 0.0
C1311 C 0.65415 0.11112 0.455 0.0
C1312 C 0.71733 0.26303 0.45028 0.0
C1313 C 0.71025 0.24174 0.44451 0.0
C1314 C 0.7191 0.1851 0.45994 0.0
C1315 C 0.66976 0.14814 0.44933 0.0
C1316 C 0.68863 0.16327 0.44498 0.0
C1317 C 0.72529 0.22359 0.44487 0.0
C1318 C 0.71639 0.20079 0.44249 0.0
H1319 H 0.61318 0.15109 0.45135 0.0
H1320 H 0.64543 0.17509 0.44752 0.0
H1321 H 0.70615 0.15553 0.47575 0.0
H1322 H 0.77242 0.25133 0.4598 0.0
H1323 H 0.75969 0.21353 0.4504 0.0
C1324 C 0.89545 0.63688 0.31721 0.0
C1325 C 0.87555 0.63462 0.30501 0.0
C1326 C 0.91542 0.62743 0.30952 0.0
C1327 C 0.93942 0.58679 0.26903 0.0
H1328 H 0.99305 0.62165 0.27818 0.0
C1329 C 0.02481 0.55699 0.23546 0.0
C1330 C 0.0413 0.55554 0.25216 0.0
C1331 C 0.00523 0.56947 0.23901 0.0
C1332 C 0.97823 0.61174 0.27548 0.0
H1333 H 0.86086 0.62007 0.27543 0.0
H1334 H 0.89581 0.60375 0.26178 0.0
H1335 H 0.95706 0.6361 0.29088 0.0
H1336 H 0.05119 0.56771 0.28469 0.0
H1337 H 0.01741 0.58992 0.29061 0.0
H1338 H 0.96074 0.56243 0.25361 0.0
C1339 C 0.89596 0.61256 0.27752 0.0
C1340 C 0.95758 0.61991 0.28292 0.0
C1341 C 0.87586 0.62185 0.28538 0.0
C1342 C 0.03879 0.56852 0.2715 0.0
C1343 C 0.01939 0.58123 0.27491 0.0
C1344 C 0.96008 0.5787 0.26141 0.0
C1345 C 0.91612 0.6157 0.28923 0.0
C1346 C 0.93792 0.60737 0.28019 0.0
C1347 C 0.00195 0.58103 0.25916 0.0
C1348 C 0.97977 0.59092 0.26487 0.0
H1349 H 0.89572 0.64653 0.33247 0.0
H1350 H 0.93041 0.62966 0.31937 0.0
H1351 H 0.92475 0.57655 0.26678 0.0
H1352 H 0.02616 0.54703 0.22046 0.0
H1353 H 0.99221 0.56926 0.22643 0.0
C1354 C 0.13298 0.35479 0.58303 0.0
C1355 C 0.13647 0.37694 0.57595 0.0
C1356 C 0.15082 0.33988 0.58489 0.0
C1357 C 0.2058 0.32911 0.56106 0.0
H1358 H 0.20262 0.27867 0.6021 0.0
C1359 C 0.25562 0.24586 0.55039 0.0
C1360 C 0.24002 0.22925 0.54507 0.0
C1361 C 0.24843 0.26612 0.55956 0.0
C1362 C 0.20403 0.29288 0.59085 0.0
H1363 H 0.16162 0.40111 0.56626 0.0
H1364 H 0.19305 0.37481 0.56953 0.0
H1365 H 0.18025 0.31216 0.60928 0.0
H1366 H 0.20504 0.22015 0.54607 0.0
H1367 H 0.1926 0.25523 0.56279 0.0
H1368 H 0.22903 0.30929 0.54226 0.0
C1369 C 0.17636 0.36904 0.57341 0.0
C1370 C 0.19114 0.31195 0.59481 0.0
C1371 C 0.15839 0.38407 0.57153 0.0
C1372 C 0.21734 0.23276 0.54993 0.0
C1373 C 0.21027 0.25268 0.55962 0.0
C1374 C 0.21899 0.31014 0.55732 0.0
C1375 C 0.17269 0.34669 0.57986 0.0
C1376 C 0.19087 0.32971 0.57923 0.0
C1377 C 0.22569 0.26963 0.56414 0.0
C1378 C 0.21726 0.2915 0.57157 0.0
H1379 H 0.11635 0.34876 0.5868 0.0
H1380 H 0.14724 0.32271 0.58944 0.0
H1381 H 0.20595 0.34244 0.54869 0.0
H1382 H 0.2732 0.24351 0.54664 0.0
H1383 H 0.2605 0.27912 0.56278 0.0
C1384 C 0.61348 0.64638 0.69715 0.0
C1385 C 0.63264 0.64481 0.71061 0.0
C1386 C 0.59549 0.63227 0.70084 0.0
C1387 C 0.57815 0.57989 0.72852 0.0
H1388 H 0.51935 0.6072 0.72272 0.0
C1389 C 0.49517 0.53728 0.75432 0.0
C1390 C 0.47787 0.53858 0.73844 0.0
C1391 C 0.51485 0.54924 0.75116 0.0
C1392 C 0.53567 0.59935 0.72424 0.0
H1393 H 0.64841 0.62685 0.73805 0.0
H1394 H 0.61643 0.60236 0.74501 0.0
H1395 H 0.5525 0.62996 0.71745 0.0
H1396 H 0.4677 0.55326 0.7067 0.0
H1397 H 0.50204 0.57446 0.70139 0.0
H1398 H 0.56099 0.54931 0.73578 0.0
C1399 C 0.61553 0.61437 0.73139 0.0
C1400 C 0.55465 0.61232 0.72117 0.0
C1401 C 0.63377 0.62839 0.72748 0.0
C1402 C 0.48071 0.55194 0.71924 0.0
C1403 C 0.50029 0.56411 0.71624 0.0
C1404 C 0.55907 0.56693 0.73184 0.0
C1405 C 0.59607 0.61645 0.7183 0.0
C1406 C 0.5761 0.60268 0.72291 0.0
C1407 C 0.51745 0.56293 0.73222 0.0
C1408 C 0.53771 0.57654 0.72941 0.0
H1409 H 0.61235 0.6586 0.68371 0.0
H1410 H 0.58104 0.63386 0.69002 0.0
H1411 H 0.59443 0.57196 0.72981 0.0
H1412 H 0.49353 0.52699 0.76921 0.0
H1413 H 0.52784 0.5482 0.76376 0.0
C1414 C 0.36568 0.87089 0.70764 0.0
C1415 C 0.36582 0.85504 0.69043 0.0
C1416 C 0.38494 0.88282 0.71268 0.0
C1417 C 0.44645 0.88119 0.7051 0.0
H1418 H 0.44197 0.94228 0.72606 0.0
C1419 C 0.52184 0.94016 0.71714 0.0
C1420 C 0.52269 0.95131 0.73772 0.0
C1421 C 0.50308 0.92776 0.71134 0.0
C1422 C 0.4434 0.92517 0.72037 0.0
H1423 H 0.38599 0.83976 0.66452 0.0
H1424 H 0.41948 0.86125 0.67273 0.0
H1425 H 0.40829 0.92278 0.71459 0.0
H1426 H 0.50467 0.95807 0.76846 0.0
H1427 H 0.47162 0.93669 0.75805 0.0
H1428 H 0.48177 0.88403 0.71035 0.0
C1429 C 0.40468 0.86397 0.68281 0.0
C1430 C 0.42413 0.91395 0.71386 0.0
C1431 C 0.38546 0.85177 0.67798 0.0
C1432 C 0.50452 0.94959 0.75252 0.0
C1433 C 0.48559 0.9375 0.74654 0.0
C1434 C 0.46576 0.89257 0.71129 0.0
C1435 C 0.40472 0.87946 0.7004 0.0
C1436 C 0.42537 0.89174 0.70634 0.0
C1437 C 0.48468 0.92661 0.72585 0.0
C1438 C 0.46434 0.91457 0.71915 0.0
H1439 H 0.35087 0.87362 0.71771 0.0
H1440 H 0.38442 0.89426 0.72661 0.0
H1441 H 0.44803 0.86399 0.69979 0.0
H1442 H 0.53565 0.94111 0.70544 0.0
H1443 H 0.50269 0.91955 0.69526 0.0
C1444 C 0.57199 0.85171 0.134 0.0
C1445 C 0.55875 0.87122 0.13398 0.0
C1446 C 0.57526 0.83956 0.15397 0.0
C1447 C 0.57733 0.85039 0.21372 0.0
H1448 H 0.56452 0.78785 0.22447 0.0
C1449 C 0.54822 0.81596 0.29752 0.0
C1450 C 0.55125 0.79317 0.30265 0.0
C1451 C 0.55726 0.82502 0.27796 0.0
C1452 C 0.56882 0.80521 0.22168 0.0
H1453 H 0.53708 0.89225 0.15402 0.0
H1454 H 0.54255 0.87108 0.18846 0.0
H1455 H 0.56263 0.80293 0.18638 0.0
H1456 H 0.56896 0.76291 0.29299 0.0
H1457 H 0.58489 0.77887 0.25899 0.0
H1458 H 0.58278 0.85303 0.24894 0.0
C1459 C 0.55078 0.86538 0.17337 0.0
C1460 C 0.5676 0.81381 0.19987 0.0
C1461 C 0.54746 0.87733 0.15362 0.0
C1462 C 0.56603 0.78047 0.28942 0.0
C1463 C 0.57499 0.78953 0.26976 0.0
C1464 C 0.57871 0.84181 0.23544 0.0
C1465 C 0.56541 0.84697 0.17398 0.0
C1466 C 0.57091 0.83667 0.1959 0.0
C1467 C 0.56959 0.81151 0.26316 0.0
C1468 C 0.57354 0.81933 0.23983 0.0
H1469 H 0.58108 0.84684 0.11913 0.0
H1470 H 0.58647 0.82526 0.15405 0.0
H1471 H 0.58036 0.86804 0.21097 0.0
H1472 H 0.53716 0.82628 0.30749 0.0
H1473 H 0.55279 0.84206 0.27349 0.0
C1474 C 0.13421 0.19632 0.11765 0.0
C1475 C 0.13552 0.20972 0.13674 0.0
C1476 C 0.1198 0.2021 0.10029 0.0
C1477 C 0.07115 0.23614 0.08399 0.0
H1478 H 0.09831 0.23103 0.02528 0.0
C1479 C 0.02828 0.26248 4e-05 0.0
C1480 C 0.02923 0.24573 0.98367 0.0
C1481 C 0.04061 0.26019 0.01979 0.0
C1482 C 0.09053 0.23253 0.04158 0.0
H1483 H 0.12192 0.23896 0.1533 0.0
H1484 H 0.09672 0.24926 0.12259 0.0
H1485 H 0.12043 0.2226 0.05844 0.0
H1486 H 0.04376 0.21349 0.9752 0.0
H1487 H 0.06527 0.2097 0.00942 0.0
H1488 H 0.04111 0.24595 0.06679 0.0
C1489 C 0.10683 0.23425 0.12119 0.0
C1490 C 0.10312 0.22763 0.06053 0.0
C1491 C 0.12123 0.22836 0.13872 0.0
C1492 C 0.04264 0.22671 0.98744 0.0
C1493 C 0.05507 0.22456 0.00697 0.0
C1494 C 0.05851 0.24116 0.06491 0.0
C1495 C 0.10652 0.2215 0.10157 0.0
C1496 C 0.0934 0.22877 0.08187 0.0
C1497 C 0.05427 0.2413 0.02325 0.0
C1498 C 0.068 0.23882 0.04357 0.0
H1499 H 0.14475 0.18163 0.11585 0.0
H1500 H 0.11943 0.19163 0.0856 0.0
H1501 H 0.0633 0.23718 0.10028 0.0
H1502 H 0.01799 0.27728 0.99764 0.0
H1503 H 0.0398 0.27331 0.03216 0.0
C1504 C 0.4747 0.61846 0.1361 0.0
C1505 C 0.46498 0.623 0.11522 0.0
C1506 C 0.48062 0.63592 0.1501 0.0
C1507 C 0.46238 0.68968 0.16687 0.0
H1508 H 0.51842 0.68977 0.19943 0.0
C1509 C 0.477 0.74061 0.24827 0.0
C1510 C 0.48686 0.72769 0.26543 0.0
C1511 C 0.47596 0.73238 0.22644 0.0
C1512 C 0.50273 0.69007 0.19039 0.0
H1513 H 0.45401 0.64913 0.09232 0.0
H1514 H 0.46376 0.6799 0.11741 0.0
H1515 H 0.5148 0.66687 0.16607 0.0
H1516 H 0.50252 0.69569 0.27329 0.0
H1517 H 0.50043 0.68141 0.23565 0.0
H1518 H 0.44978 0.71162 0.19217 0.0
C1519 C 0.46715 0.66282 0.1226 0.0
C1520 C 0.50074 0.67709 0.17129 0.0
C1521 C 0.46169 0.64529 0.10831 0.0
C1522 C 0.49504 0.70623 0.26047 0.0
C1523 C 0.49405 0.69809 0.23882 0.0
C1524 C 0.46431 0.70257 0.18616 0.0
C1525 C 0.47651 0.65819 0.14365 0.0
C1526 C 0.48028 0.67606 0.15997 0.0
C1527 C 0.48487 0.71118 0.2215 0.0
C1528 C 0.48419 0.70199 0.19864 0.0
H1529 H 0.47741 0.6014 0.14175 0.0
H1530 H 0.48755 0.63197 0.1664 0.0
H1531 H 0.4464 0.68901 0.1584 0.0
H1532 H 0.47058 0.75724 0.25155 0.0
H1533 H 0.46865 0.74272 0.21338 0.0
C1534 C 0.84004 0.30093 0.0929 0.0
C1535 C 0.84459 0.29115 0.11388 0.0
C1536 C 0.84945 0.29219 0.07344 0.0
C1537 C 0.89493 0.25542 0.05252 0.0
H1538 H 0.85898 0.25639 0.99853 0.0
C1539 C 0.93149 0.22425 0.96976 0.0
C1540 C 0.93051 0.24071 0.95287 0.0
C1541 C 0.91768 0.22583 0.98861 0.0
C1542 C 0.86919 0.25593 0.01348 0.0
H1543 H 0.86301 0.2647 0.13086 0.0
H1544 H 0.87931 0.24922 0.09679 0.0
H1545 H 0.84271 0.26894 0.03372 0.0
H1546 H 0.91249 0.27011 0.94117 0.0
H1547 H 0.88815 0.27259 0.97373 0.0
H1548 H 0.92147 0.24264 0.03217 0.0
C1549 C 0.86863 0.26386 0.09543 0.0
C1550 C 0.85995 0.26328 0.03364 0.0
C1551 C 0.85932 0.27275 0.11498 0.0
C1552 C 0.9137 0.25723 0.95396 0.0
C1553 C 0.89975 0.25865 0.97266 0.0
C1554 C 0.90411 0.24791 0.03238 0.0
C1555 C 0.86355 0.27328 0.07435 0.0
C1556 C 0.87285 0.26363 0.05334 0.0
C1557 C 0.90242 0.24368 0.99072 0.0
C1558 C 0.89149 0.24851 0.01254 0.0
H1559 H 0.82891 0.31524 0.09146 0.0
H1560 H 0.84563 0.30031 0.05764 0.0
H1561 H 0.90546 0.25562 0.06723 0.0
H1562 H 0.9443 0.21135 0.96948 0.0
H1563 H 0.91984 0.21382 0.0021 0.0
C1564 C 0.59185 0.1367 0.36756 0.0
C1565 C 0.57321 0.13484 0.38172 0.0
C1566 C 0.59101 0.15021 0.34846 0.0
C1567 C 0.55783 0.19325 0.31753 0.0
H1568 H 0.58071 0.16191 0.26565 0.0
C1569 C 0.54039 0.19274 0.21761 0.0
C1570 C 0.53928 0.21586 0.21321 0.0
C1571 C 0.54911 0.18466 0.23783 0.0
C1572 C 0.57431 0.17094 0.27995 0.0
H1573 H 0.53951 0.14667 0.38784 0.0
H1574 H 0.53782 0.17026 0.35412 0.0
H1575 H 0.58613 0.14591 0.30278 0.0
H1576 H 0.54834 0.24847 0.22593 0.0
H1577 H 0.56371 0.23429 0.2611 0.0
H1578 H 0.54519 0.21783 0.29443 0.0
C1579 C 0.55325 0.16146 0.35796 0.0
C1580 C 0.57759 0.16189 0.30131 0.0
C1581 C 0.55419 0.14803 0.37731 0.0
C1582 C 0.54887 0.23056 0.22872 0.0
C1583 C 0.55744 0.22247 0.24904 0.0
C1584 C 0.5546 0.20237 0.2961 0.0
C1585 C 0.57137 0.16197 0.34285 0.0
C1586 C 0.56917 0.17277 0.32038 0.0
C1587 C 0.55687 0.1995 0.25417 0.0
C1588 C 0.56251 0.19113 0.27702 0.0
H1589 H 0.60678 0.12677 0.37068 0.0
H1590 H 0.60547 0.15066 0.33756 0.0
H1591 H 0.55124 0.20214 0.33183 0.0
H1592 H 0.53322 0.18092 0.20605 0.0
H1593 H 0.54839 0.16687 0.24121 0.0
C1594 C 0.37381 0.21651 0.88 0.0
C1595 C 0.36036 0.19736 0.87963 0.0
C1596 C 0.38324 0.22377 0.90011 0.0
C1597 C 0.37611 0.21718 0.9619 0.0
H1598 H 0.43411 0.24549 0.96428 0.0
C1599 C 0.42917 0.22662 0.04204 0.0
C1600 C 0.44148 0.24637 0.0447 0.0
C1601 C 0.41635 0.22331 0.02281 0.0
C1602 C 0.41772 0.23792 0.96383 0.0
H1603 H 0.34728 0.17011 0.89968 0.0
H1604 H 0.36448 0.18205 0.93437 0.0
H1605 H 0.41939 0.23328 0.92843 0.0
H1606 H 0.44879 0.27873 0.02991 0.0
H1607 H 0.42653 0.27282 0.99622 0.0
H1608 H 0.37498 0.22107 0.9975 0.0
C1609 C 0.3671 0.19207 0.91946 0.0
C1610 C 0.40926 0.23089 0.94325 0.0
C1611 C 0.35745 0.18503 0.89949 0.0
C1612 C 0.43939 0.26339 0.02846 0.0
C1613 C 0.42687 0.25992 0.00904 0.0
C1614 C 0.38471 0.22395 0.98249 0.0
C1615 C 0.37963 0.21188 0.92023 0.0
C1616 C 0.38843 0.22017 0.94201 0.0
C1617 C 0.41584 0.23954 0.00569 0.0
C1618 C 0.40569 0.23423 0.9837 0.0
H1619 H 0.37612 0.22651 0.865 0.0
H1620 H 0.39263 0.23918 0.9 0.0
H1621 H 0.35975 0.20956 0.96163 0.0
H1622 H 0.43047 0.21316 0.0542 0.0
H1623 H 0.40807 0.20742 0.02071 0.0
C1624 C 0.447 0.34996 0.39207 0.0
C1625 C 0.45064 0.37181 0.38414 0.0
C1626 C 0.44858 0.33182 0.37744 0.0
C1627 C 0.47351 0.31459 0.3246 0.0
H1628 H 0.41869 0.28292 0.31142 0.0
C1629 C 0.45248 0.28855 0.238 0.0
C1630 C 0.45566 0.26565 0.23405 0.0
C1631 C 0.44953 0.29629 0.25967 0.0
C1632 C 0.43422 0.29122 0.31533 0.0
H1633 H 0.45955 0.39195 0.35527 0.0
H1634 H 0.46308 0.36037 0.33002 0.0
H1635 H 0.42095 0.30628 0.34506 0.0
H1636 H 0.45633 0.23266 0.24937 0.0
H1637 H 0.45119 0.24645 0.2877 0.0
H1638 H 0.48629 0.30085 0.29423 0.0
C1639 C 0.4588 0.35719 0.34736 0.0
C1640 C 0.43556 0.30447 0.3345 0.0
C1641 C 0.45671 0.37523 0.36175 0.0
C1642 C 0.45377 0.2504 0.25198 0.0
C1643 C 0.45091 0.25822 0.27384 0.0
C1644 C 0.4722 0.30137 0.30561 0.0
C1645 C 0.45444 0.33539 0.35496 0.0
C1646 C 0.4549 0.317 0.33867 0.0
C1647 C 0.44973 0.28128 0.27778 0.0
C1648 C 0.45228 0.29036 0.30039 0.0
H1649 H 0.44202 0.34704 0.40927 0.0
H1650 H 0.44505 0.31513 0.38357 0.0
H1651 H 0.48859 0.32404 0.32756 0.0
H1652 H 0.4537 0.30064 0.22447 0.0
H1653 H 0.44856 0.31415 0.26247 0.0
C1654 C 0.607 0.28717 0.8589 0.0
C1655 C 0.62011 0.30646 0.85718 0.0
C1656 C 0.5949 0.28285 0.87846 0.0
C1657 C 0.59716 0.29733 0.93823 0.0
H1658 H 0.54097 0.26559 0.94164 0.0
C1659 C 0.5481 0.28494 0.02025 0.0
C1660 C 0.53968 0.26343 0.02444 0.0
C1661 C 0.55769 0.29015 -0.00039 0.0
C1662 C 0.55676 0.27432 0.94086 0.0
H1663 H 0.62939 0.33732 0.87332 0.0
H1664 H 0.6075 0.33037 0.90696 0.0
H1665 H 0.55612 0.27614 0.9051 0.0
H1666 H 0.53504 0.23042 0.01039 0.0
H1667 H 0.55177 0.23965 0.97426 0.0
H1668 H 0.59765 0.29573 0.97397 0.0
C1669 C 0.60722 0.31809 0.89375 0.0
C1670 C 0.56542 0.28036 0.91998 0.0
C1671 C 0.61956 0.3222 0.87443 0.0
C1672 C 0.54147 0.24711 0.00772 0.0
C1673 C 0.55083 0.25242 0.98698 0.0
C1674 C 0.5884 0.29149 0.95904 0.0
C1675 C 0.59554 0.29793 0.89641 0.0
C1676 C 0.58572 0.29198 0.91844 0.0
C1677 C 0.55884 0.27404 0.98269 0.0
C1678 C 0.56816 0.27992 0.96055 0.0
H1679 H 0.60734 0.27473 0.84584 0.0
H1680 H 0.58615 0.26712 0.87999 0.0
H1681 H 0.61314 0.30571 0.93768 0.0
H1682 H 0.54698 0.29787 0.03278 0.0
H1683 H 0.56367 0.30697 0.99667 0.0
C1684 C 0.13338 0.54554 0.8622 0.0
C1685 C 0.12882 0.56293 0.87709 0.0
C1686 C 0.15258 0.5464 0.84878 0.0
C1687 C 0.20302 0.5449 0.8424 0.0
H1688 H 0.22767 0.59781 0.8139 0.0
C1689 C 0.29457 0.54576 0.82038 0.0
C1690 C 0.29814 0.54896 0.79734 0.0
C1691 C 0.27452 0.55268 0.83014 0.0
C1692 C 0.22097 0.58296 0.82185 0.0
H1693 H 0.13915 0.59556 0.88851 0.0
H1694 H 0.17229 0.59721 0.86503 0.0
H1695 H 0.18872 0.59807 0.82677 0.0
H1696 H 0.28533 0.56552 0.76748 0.0
H1697 H 0.25042 0.57757 0.78459 0.0
H1698 H 0.23508 0.52977 0.83768 0.0
C1699 C 0.16138 0.58292 0.8636 0.0
C1700 C 0.19873 0.58306 0.82912 0.0
C1701 C 0.14251 0.5819 0.87714 0.0
C1702 C 0.28294 0.56241 0.78518 0.0
C1703 C 0.26286 0.56932 0.79497 0.0
C1704 C 0.22521 0.54487 0.83535 0.0
C1705 C 0.16712 0.56481 0.84995 0.0
C1706 C 0.1896 0.56405 0.8396 0.0
C1707 C 0.25786 0.56306 0.81707 0.0
C1708 C 0.23451 0.56396 0.82524 0.0
H1709 H 0.12302 0.53076 0.86201 0.0
H1710 H 0.15659 0.53229 0.83823 0.0
H1711 H 0.19658 0.53014 0.85073 0.0
H1712 H 0.30618 0.53593 0.83037 0.0
H1713 H 0.27132 0.54829 0.84745 0.0
C1714 C 0.80965 0.60911 0.37344 0.0
C1715 C 0.79512 0.62743 0.3708 0.0
C1716 C 0.80222 0.58937 0.38329 0.0
C1717 C 0.75094 0.55723 0.39111 0.0
H1718 H 0.7904 0.51912 0.42622 0.0
C1719 C 0.72939 0.47225 0.43491 0.0
C1720 C 0.74686 0.45638 0.43546 0.0
C1721 C 0.73242 0.49286 0.42413 0.0
C1722 C 0.77929 0.52949 0.4162 0.0
H1723 H 0.76172 0.64004 0.37734 0.0
H1724 H 0.74865 0.60533 0.39505 0.0
H1725 H 0.80143 0.55726 0.41767 0.0
H1726 H 0.7796 0.44804 0.42223 0.0
H1727 H 0.7847 0.4838 0.40316 0.0
H1728 H 0.72867 0.52919 0.39005 0.0
C1729 C 0.76578 0.60625 0.38925 0.0
C1730 C 0.78555 0.55137 0.41141 0.0
C1731 C 0.77332 0.62619 0.37945 0.0
C1732 C 0.76601 0.46013 0.42239 0.0
C1733 C 0.769 0.48064 0.41163 0.0
C1734 C 0.74455 0.53526 0.39614 0.0
C1735 C 0.78002 0.58746 0.39072 0.0
C1736 C 0.77172 0.56536 0.39839 0.0
C1737 C 0.75288 0.49769 0.4137 0.0
C1738 C 0.75895 0.52106 0.40827 0.0
H1739 H 0.82651 0.60965 0.3668 0.0
H1740 H 0.81358 0.5752 0.38391 0.0
H1741 H 0.74001 0.56753 0.38086 0.0
H1742 H 0.71441 0.46981 0.4448 0.0
H1743 H 0.71966 0.50568 0.4258 0.0
C1744 C 0.85974 0.90923 0.87777 0.0
C1745 C 0.87528 0.92644 0.87437 0.0
C1746 C 0.84003 0.90858 0.86539 0.0
C1747 C 0.80956 0.93346 0.8168 0.0
H1748 H 0.75763 0.92119 0.8537 0.0
C1749 C 0.71115 0.95815 0.81694 0.0
C1750 C 0.70635 0.95579 0.79407 0.0
C1751 C 0.73087 0.94927 0.82598 0.0
C1752 C 0.77193 0.9246 0.84313 0.0
H1753 H 0.88303 0.95575 0.8545 0.0
H1754 H 0.84815 0.95499 0.833 0.0
H1755 H 0.79485 0.91692 0.86946 0.0
H1756 H 0.71748 0.94018 0.76331 0.0
H1757 H 0.7517 0.9244 0.77923 0.0
H1758 H 0.78644 0.94227 0.79081 0.0
C1759 C 0.85139 0.94176 0.84505 0.0
C1760 C 0.79335 0.92193 0.85208 0.0
C1761 C 0.87138 0.94224 0.85733 0.0
C1762 C 0.72067 0.94245 0.78098 0.0
C1763 C 0.74046 0.93363 0.79002 0.0
C1764 C 0.78807 0.93617 0.80783 0.0
C1765 C 0.83513 0.92532 0.8495 0.0
C1766 C 0.81247 0.92661 0.83915 0.0
C1767 C 0.74625 0.93776 0.81238 0.0
C1768 C 0.76898 0.93214 0.82102 0.0
H1769 H 0.86248 0.89666 0.89066 0.0
H1770 H 0.82825 0.89531 0.86883 0.0
H1771 H 0.82387 0.937 0.80629 0.0
H1772 H 0.70046 0.9682 0.82757 0.0
H1773 H 0.73474 0.95281 0.84327 0.0
C1774 C 0.18613 0.89435 0.34651 0.0
C1775 C 0.19678 0.87347 0.34884 0.0
C1776 C 0.19208 0.91214 0.36013 0.0
C1777 C 0.22171 0.92627 0.41256 0.0
H1778 H 0.2224 0.98542 0.38547 0.0
C1779 C 0.25526 0.00519 0.45696 0.0
C1780 C 0.24053 0.02363 0.4566 0.0
C1781 C 0.25102 0.98648 0.44381 0.0
C1782 C 0.22221 0.969 0.39324 0.0
H1783 H 0.22181 0.8547 0.36747 0.0
H1784 H 0.2327 0.88602 0.39093 0.0
H1785 H 0.21299 0.95322 0.36276 0.0
H1786 H 0.21007 0.03707 0.44188 0.0
H1787 H 0.20295 0.00456 0.41866 0.0
H1788 H 0.23135 0.94228 0.44299 0.0
C1789 C 0.21942 0.88853 0.37885 0.0
C1790 C 0.2167 0.95055 0.38031 0.0
C1791 C 0.21324 0.8706 0.36538 0.0
C1792 C 0.2217 0.02312 0.44258 0.0
C1793 C 0.21767 0.00458 0.42921 0.0
C1794 C 0.2275 0.94475 0.42544 0.0
C1795 C 0.20906 0.90959 0.37621 0.0
C1796 C 0.21602 0.92899 0.38987 0.0
C1797 C 0.2322 0.98605 0.42981 0.0
C1798 C 0.22749 0.96629 0.41595 0.0
H1799 H 0.17317 0.89698 0.3341 0.0
H1800 H 0.18332 0.92792 0.35802 0.0
H1801 H 0.22114 0.90997 0.42054 0.0
H1802 H 0.26985 0.00506 0.46768 0.0
H1803 H 0.26252 0.97241 0.44446 0.0
C1804 C 0.12428 0.41513 0.64909 0.0
C1805 C 0.112 0.43447 0.64379 0.0
C1806 C 0.13863 0.41482 0.66737 0.0
C1807 C 0.18222 0.4275 0.68696 0.0
H1808 H 0.18079 0.46517 0.73942 0.0
C1809 C 0.25806 0.47447 0.71627 0.0
C1810 C 0.26421 0.47309 0.73888 0.0
C1811 C 0.23776 0.46589 0.70916 0.0
C1812 C 0.18128 0.45425 0.72506 0.0
H1813 H 0.10351 0.46808 0.65397 0.0
H1814 H 0.12984 0.46823 0.68529 0.0
H1815 H 0.14572 0.45573 0.72055 0.0
H1816 H 0.25375 0.46201 0.7719 0.0
H1817 H 0.21774 0.4472 0.75929 0.0
H1818 H 0.21769 0.42673 0.69087 0.0
C1819 C 0.12787 0.45297 0.67589 0.0
C1820 C 0.1613 0.449 0.71418 0.0
C1821 C 0.11293 0.45302 0.65789 0.0
C1822 C 0.24947 0.46316 0.75433 0.0
C1823 C 0.2289 0.4548 0.7472 0.0
C1824 C 0.20202 0.43275 0.69776 0.0
C1825 C 0.14165 0.4342 0.68011 0.0
C1826 C 0.16167 0.43618 0.69455 0.0
C1827 C 0.22307 0.45592 0.72452 0.0
C1828 C 0.2018 0.44685 0.71633 0.0
H1829 H 0.12357 0.40058 0.63844 0.0
H1830 H 0.14852 0.39989 0.67055 0.0
H1831 H 0.18331 0.41787 0.67174 0.0
H1832 H 0.26902 0.48199 0.70395 0.0
H1833 H 0.23345 0.46718 0.6916 0.0
C1834 C 0.68737 0.61129 0.64674 0.0
C1835 C 0.69979 0.63079 0.64296 0.0
C1836 C 0.69041 0.5926 0.63316 0.0
C1837 C 0.71574 0.57461 0.57908 0.0
H1838 H 0.71273 0.51575 0.60656 0.0
C1839 C 0.74942 0.49427 0.53744 0.0
C1840 C 0.73456 0.47619 0.53681 0.0
C1841 C 0.74436 0.51319 0.55008 0.0
C1842 C 0.71346 0.5321 0.59867 0.0
H1843 H 0.72517 0.64605 0.62205 0.0
H1844 H 0.73113 0.61328 0.59894 0.0
H1845 H 0.70546 0.5488 0.62911 0.0
H1846 H 0.70293 0.46359 0.54921 0.0
H1847 H 0.69439 0.49653 0.57176 0.0
H1848 H 0.7246 0.5577 0.54884 0.0
C1849 C 0.71851 0.61251 0.6119 0.0
C1850 C 0.70917 0.55106 0.61152 0.0
C1851 C 0.71519 0.63131 0.62524 0.0
C1852 C 0.71468 0.47729 0.54932 0.0
C1853 C 0.70982 0.49606 0.56228 0.0
C1854 C 0.72038 0.55565 0.56635 0.0
C1855 C 0.70623 0.59286 0.61573 0.0
C1856 C 0.71028 0.5726 0.6019 0.0
C1857 C 0.72455 0.51422 0.56262 0.0
C1858 C 0.7193 0.53425 0.57605 0.0
H1859 H 0.67522 0.61049 0.66016 0.0
H1860 H 0.6803 0.57798 0.63635 0.0
H1861 H 0.71631 0.59083 0.57094 0.0
H1862 H 0.76482 0.49398 0.5279 0.0
H1863 H 0.75605 0.52694 0.55022 0.0
C1864 C 0.86963 0.08029 0.63893 0.0
C1865 C 0.88806 0.06572 0.63703 0.0
C1866 C 0.8547 0.07823 0.65671 0.0
C1867 C 0.83239 0.03441 0.69228 0.0
H1868 H 0.79658 0.08322 0.71584 0.0
C1869 C 0.74546 0.04677 0.74611 0.0
C1870 C 0.73206 0.03218 0.73362 0.0
C1871 C 0.76713 0.05207 0.73886 0.0
C1872 C 0.80662 0.06942 0.70973 0.0
H1873 H 0.90623 0.03859 0.65315 0.0
H1874 H 0.8799 0.03484 0.68438 0.0
H1875 H 0.8318 0.09123 0.69663 0.0
H1876 H 0.7308 0.01238 0.70331 0.0
H1877 H 0.76815 0.0216 0.69091 0.0
H1878 H 0.80688 0.01268 0.70465 0.0
C1879 C 0.87699 0.04778 0.67192 0.0
C1880 C 0.82671 0.07399 0.69861 0.0
C1881 C 0.8921 0.04997 0.65413 0.0
C1882 C 0.74059 0.02354 0.71351 0.0
C1883 C 0.76214 0.02866 0.70645 0.0
C1884 C 0.81234 0.02988 0.7033 0.0
C1885 C 0.85776 0.06147 0.67302 0.0
C1886 C 0.83938 0.05658 0.68904 0.0
C1887 C 0.77579 0.04266 0.71917 0.0
C1888 C 0.79883 0.04738 0.71135 0.0
H1889 H 0.86622 0.09279 0.62614 0.0
H1890 H 0.84 0.08891 0.65684 0.0
H1891 H 0.84161 0.02061 0.68502 0.0
H1892 H 0.73943 0.05372 0.76167 0.0
H1893 H 0.77729 0.06303 0.74891 0.0
C1894 C 0.30005 0.89066 0.63131 0.0
C1895 C 0.28597 0.872 0.63051 0.0
C1896 C 0.29352 0.91092 0.62169 0.0
C1897 C 0.24342 0.94318 0.60592 0.0
H1898 H 0.28727 0.98172 0.57786 0.0
C1899 C 0.22615 0.02671 0.5576 0.0
C1900 C 0.24294 0.04298 0.55902 0.0
C1901 C 0.22833 0.00649 0.56937 0.0
C1902 C 0.27489 0.97129 0.58596 0.0
H1903 H 0.25434 0.85965 0.61818 0.0
H1904 H 0.24298 0.89528 0.60086 0.0
H1905 H 0.29781 0.9439 0.58868 0.0
H1906 H 0.27322 0.05242 0.57633 0.0
H1907 H 0.27673 0.01741 0.5972 0.0
H1908 H 0.2204 0.97079 0.60269 0.0
C1909 C 0.25898 0.89417 0.60927 0.0
C1910 C 0.28091 0.94956 0.59205 0.0
C1911 C 0.2656 0.87373 0.6189 0.0
C1912 C 0.26022 0.04001 0.57467 0.0
C1913 C 0.26233 0.01991 0.58647 0.0
C1914 C 0.23732 0.96501 0.59962 0.0
C1915 C 0.27273 0.91309 0.61094 0.0
C1916 C 0.26539 0.93535 0.60244 0.0
C1917 C 0.24723 0.00244 0.58278 0.0
C1918 C 0.25315 0.97937 0.58994 0.0
H1919 H 0.31585 0.88983 0.64015 0.0
H1920 H 0.30443 0.92517 0.62354 0.0
H1921 H 0.23114 0.9327 0.61408 0.0
H1922 H 0.21264 0.02855 0.54566 0.0
H1923 H 0.21637 0.99335 0.56634 0.0
C1924 C 0.86108 0.13378 0.55471 0.0
C1925 C 0.88005 0.13084 0.56817 0.0
C1926 C 0.84874 0.15378 0.55567 0.0
C1927 C 0.85643 0.2129 0.57249 0.0
H1928 H 0.79376 0.21765 0.55685 0.0
C1929 C 0.81768 0.29217 0.53434 0.0
C1930 C 0.79462 0.29628 0.53656 0.0
C1931 C 0.82751 0.27339 0.54437 0.0
C1932 C 0.81117 0.21669 0.56173 0.0
H1933 H 0.90002 0.14536 0.59448 0.0
H1934 H 0.878 0.17954 0.59702 0.0
H1935 H 0.81055 0.18091 0.56275 0.0
H1936 H 0.76439 0.28534 0.55337 0.0
H1937 H 0.78173 0.2529 0.57139 0.0
H1938 H 0.85702 0.24862 0.57174 0.0
C1939 C 0.87309 0.16711 0.58495 0.0
C1940 C 0.82091 0.19553 0.56472 0.0
C1941 C 0.88563 0.14744 0.58362 0.0
C1942 C 0.78215 0.28254 0.55105 0.0
C1943 C 0.79203 0.26377 0.56119 0.0
C1944 C 0.84665 0.234 0.56975 0.0
C1945 C 0.85495 0.17094 0.57045 0.0
C1946 C 0.84381 0.19334 0.5696 0.0
C1947 C 0.81458 0.25838 0.55708 0.0
C1948 C 0.82405 0.23619 0.56371 0.0
H1949 H 0.85652 0.1212 0.54263 0.0
H1950 H 0.835 0.15614 0.5441 0.0
H1951 H 0.87418 0.21203 0.57597 0.0
H1952 H 0.82788 0.30249 0.52347 0.0
H1953 H 0.8449 0.26984 0.54073 0.0
C1954 C 0.89584 0.84944 0.95634 0.0
C1955 C 0.88639 0.87011 0.95 0.0
C1956 C 0.88334 0.82994 0.95552 0.0
C1957 C 0.82652 0.80717 0.95316 0.0
H1958 H 0.85815 0.75499 0.93086 0.0
C1959 C 0.78451 0.72135 0.95277 0.0
C1960 C 0.79698 0.7051 0.96462 0.0
C1961 C 0.79465 0.741 0.94521 0.0
C1962 C 0.84907 0.76941 0.93705 0.0
H1963 H 0.85611 0.88672 0.9387 0.0
H1964 H 0.83395 0.8523 0.93732 0.0
H1965 H 0.87649 0.79127 0.93063 0.0
H1966 H 0.83038 0.69554 0.9753 0.0
H1967 H 0.84804 0.72961 0.9619 0.0
H1968 H 0.79928 0.78514 0.96007 0.0
C1969 C 0.85113 0.85133 0.94298 0.0
C1970 C 0.85958 0.79018 0.93703 0.0
C1971 C 0.86372 0.87104 0.94391 0.0
C1972 C 0.82024 0.70778 0.96643 0.0
C1973 C 0.83038 0.72735 0.95871 0.0
C1974 C 0.81596 0.78637 0.95311 0.0
C1975 C 0.86106 0.83049 0.94817 0.0
C1976 C 0.84869 0.80917 0.94572 0.0
C1977 C 0.81749 0.74464 0.94904 0.0
C1978 C 0.82735 0.76715 0.9456 0.0
H1979 H 0.91323 0.84822 0.9613 0.0
H1980 H 0.89131 0.8143 0.9603 0.0
H1981 H 0.81771 0.82144 0.96002 0.0
H1982 H 0.76658 0.71979 0.95088 0.0
H1983 H 0.78438 0.75384 0.93739 0.0
C1984 C 0.12079 0.87773 0.25762 0.0
C1985 C 0.12229 0.86995 0.2798 0.0
C1986 C 0.10053 0.8866 0.24952 0.0
C1987 C 0.04081 0.87997 0.26034 0.0
H1988 H 0.03154 0.93478 0.22659 0.0
C1989 C 0.95724 0.9266 0.25702 0.0
C1990 C 0.95221 0.94053 0.23865 0.0
C1991 C 0.97703 0.91411 0.25746 0.0
C1992 C 0.03387 0.91912 0.23553 0.0
H1993 H 0.10478 0.86716 0.3114 0.0
H1994 H 0.0698 0.88292 0.29748 0.0
H1995 H 0.06949 0.92329 0.23695 0.0
H1996 H 0.96269 0.95011 0.20518 0.0
H1997 H 0.99709 0.92798 0.20586 0.0
H1998 H 0.00534 0.87585 0.25934 0.0
C1999 C 0.08391 0.88173 0.28617 0.0
C2000 C 0.05561 0.91267 0.24156 0.0
C2001 C 0.104 0.87296 0.2942 0.0
C2002 C 0.9661 0.93965 0.21967 0.0
C2003 C 0.98599 0.9272 0.22015 0.0
C2004 C 0.01916 0.8863 0.2542 0.0
C2005 C 0.08165 0.88768 0.26354 0.0
C2006 C 0.05917 0.89342 0.25467 0.0
C2007 C 0.99221 0.91522 0.23951 0.0
C2008 C 0.01534 0.90632 0.24233 0.0
H2009 H 0.13459 0.87533 0.24613 0.0
H2010 H 0.09922 0.89123 0.23203 0.0
H2011 H 0.04315 0.86473 0.27 0.0
H2012 H 0.94679 0.92674 0.27183 0.0
H2013 H 0.98122 0.90507 0.27267 0.0
C2014 C 0.15929 0.61113 0.95319 0.0
C2015 C 0.14028 0.61808 0.94113 0.0
C2016 C 0.17886 0.62388 0.95247 0.0
C2017 C 0.20544 0.67145 0.92165 0.0
H2018 H 0.22622 0.68901 0.98027 0.0
C2019 C 0.2217 0.75914 0.95491 0.0
C2020 C 0.24392 0.76442 0.96003 0.0
C2021 C 0.21607 0.73744 0.94897 0.0
C2022 C 0.22107 0.68382 0.96375 0.0
H2023 H 0.12732 0.64301 0.91781 0.0
H2024 H 0.16081 0.66517 0.91694 0.0
H2025 H 0.20314 0.65572 0.9766 0.0
H2026 H 0.27777 0.75138 0.96258 0.0
H2027 H 0.26757 0.71289 0.9528 0.0
H2028 H 0.22143 0.70106 0.9093 0.0
C2029 C 0.16095 0.6499 0.9268 0.0
C2030 C 0.20792 0.66476 0.9616 0.0
C2031 C 0.14153 0.63735 0.92762 0.0
C2032 C 0.26055 0.74773 0.95849 0.0
C2033 C 0.25478 0.72581 0.95299 0.0
C2034 C 0.21832 0.69065 0.92387 0.0
C2035 C 0.17977 0.64356 0.93943 0.0
C2036 C 0.19892 0.65911 0.9407 0.0
C2037 C 0.23246 0.72059 0.94845 0.0
C2038 C 0.22535 0.69743 0.94506 0.0
H2039 H 0.15886 0.5962 0.96355 0.0
H2040 H 0.19313 0.61857 0.96235 0.0
H2041 H 0.19914 0.66723 0.90525 0.0
H2042 H 0.20861 0.77171 0.95594 0.0
H2043 H 0.19872 0.73357 0.94562 0.0
C2044 C 0.39162 0.12979 0.81528 0.0
C2045 C 0.37246 0.13033 0.80172 0.0
C2046 C 0.41155 0.1204 0.80753 0.0
C2047 C 0.4369 0.0841 0.76444 0.0
H2048 H 0.49006 0.11795 0.77872 0.0
C2049 C 0.52409 0.05472 0.7353 0.0
C2050 C 0.53967 0.05302 0.75284 0.0
C2051 C 0.50433 0.06715 0.73799 0.0
C2052 C 0.4754 0.10829 0.7746 0.0
H2053 H 0.35887 0.12048 0.76972 0.0
H2054 H 0.39386 0.1039 0.7561 0.0
H2055 H 0.45352 0.13159 0.79064 0.0
H2056 H 0.54783 0.06477 0.78601 0.0
H2057 H 0.51372 0.08665 0.79056 0.0
H2058 H 0.45893 0.06061 0.74869 0.0
C2059 C 0.39338 0.11068 0.77282 0.0
C2060 C 0.45444 0.11603 0.78153 0.0
C2061 C 0.3733 0.12004 0.78067 0.0
C2062 C 0.53612 0.06572 0.77221 0.0
C2063 C 0.51653 0.07828 0.77481 0.0
C2064 C 0.45792 0.07636 0.75746 0.0
C2065 C 0.41294 0.11143 0.78591 0.0
C2066 C 0.43496 0.10379 0.777 0.0
C2067 C 0.49994 0.07834 0.75814 0.0
C2068 C 0.47747 0.08814 0.76285 0.0
H2069 H 0.39145 0.13749 0.83162 0.0
H2070 H 0.42609 0.12068 0.81832 0.0
H2071 H 0.42228 0.07423 0.76072 0.0
H2072 H 0.52627 0.04505 0.72021 0.0
H2073 H 0.49206 0.06719 0.72469 0.0
C2074 C 0.63561 0.85631 0.08883 0.0
C2075 C 0.6384 0.87821 0.08073 0.0
C2076 C 0.65362 0.84153 0.08985 0.0
C2077 C 0.70668 0.83031 0.06202 0.0
H2078 H 0.70675 0.78065 0.10415 0.0
C2079 C 0.75648 0.74676 0.05064 0.0
C2080 C 0.74059 0.73022 0.04597 0.0
C2081 C 0.74971 0.76722 0.05972 0.0
C2082 C 0.70727 0.79465 0.09256 0.0
H2083 H 0.66262 0.90216 0.0684 0.0
H2084 H 0.69438 0.87612 0.07024 0.0
H2085 H 0.68485 0.81421 0.11233 0.0
H2086 H 0.70556 0.72148 0.04798 0.0
H2087 H 0.69389 0.75688 0.06459 0.0
H2088 H 0.72858 0.8102 0.04197 0.0
C2089 C 0.67806 0.87041 0.07556 0.0
C2090 C 0.69463 0.81376 0.09709 0.0
C2091 C 0.65991 0.88531 0.07453 0.0
C2092 C 0.71808 0.73402 0.05136 0.0
C2093 C 0.71144 0.75414 0.06096 0.0
C2094 C 0.71966 0.81131 0.0577 0.0
C2095 C 0.67501 0.84823 0.08292 0.0
C2096 C 0.69314 0.83124 0.08124 0.0
C2097 C 0.72713 0.77099 0.06486 0.0
C2098 C 0.7191 0.79297 0.07242 0.0
H2099 H 0.61932 0.85031 0.09395 0.0
H2100 H 0.65047 0.82449 0.09517 0.0
H2101 H 0.70587 0.84339 0.04942 0.0
H2102 H 0.77393 0.7442 0.04648 0.0
H2103 H 0.76197 0.78015 0.06247 0.0
C2104 C 0.13493 0.12958 0.22585 0.0
C2105 C 0.13366 0.14686 0.20987 0.0
C2106 C 0.11663 0.11554 0.22938 0.0
C2107 C 0.05549 0.11384 0.21959 0.0
H2108 H 0.06238 0.05031 0.23136 0.0
C2109 C 0.98195 0.05283 0.21589 0.0
C2110 C 0.97933 0.03898 0.23476 0.0
C2111 C 0.00142 0.06523 0.21305 0.0
C2112 C 0.0603 0.06806 0.22819 0.0
H2113 H 0.11289 0.16228 0.18422 0.0
H2114 H 0.0815 0.13753 0.18982 0.0
H2115 H 0.0956 0.07343 0.22616 0.0
H2116 H 0.99532 0.02668 0.2651 0.0
H2117 H 0.02947 0.04821 0.2599 0.0
H2118 H 0.02023 0.10836 0.22108 0.0
C2119 C 0.09612 0.13525 0.20029 0.0
C2120 C 0.07926 0.0813 0.22533 0.0
C2121 C 0.11418 0.14938 0.197 0.0
C2122 C 0.99678 0.03735 0.25046 0.0
C2123 C 0.01637 0.04951 0.24744 0.0
C2124 C 0.03662 0.10058 0.22215 0.0
C2125 C 0.09693 0.11843 0.21678 0.0
C2126 C 0.07703 0.10432 0.22081 0.0
C2127 C 0.01873 0.06373 0.22886 0.0
C2128 C 0.03886 0.07759 0.22633 0.0
H2129 H 0.1498 0.12728 0.23596 0.0
H2130 H 0.11772 0.10279 0.2423 0.0
H2131 H 0.05316 0.1316 0.21671 0.0
H2132 H 0.9688 0.05441 0.20351 0.0
H2133 H 0.00298 0.076 0.19849 0.0
C2134 C 0.88381 0.35914 0.17336 0.0
C2135 C 0.86445 0.36169 0.18641 0.0
C2136 C 0.90292 0.37153 0.17803 0.0
C2137 C 0.92321 0.42024 0.21066 0.0
H2138 H 0.98044 0.38987 0.20501 0.0
C2139 C 0.00491 0.45323 0.24939 0.0
C2140 C 0.02304 0.45491 0.23453 0.0
C2141 C 0.98558 0.44189 0.24315 0.0
C2142 C 0.96456 0.39856 0.20654 0.0
H2143 H 0.84978 0.37943 0.21437 0.0
H2144 H 0.88325 0.40044 0.22301 0.0
H2145 H 0.94634 0.37067 0.19424 0.0
H2146 H 0.03544 0.44547 0.2018 0.0
H2147 H 0.00181 0.42522 0.19117 0.0
H2148 H 0.9416 0.44786 0.22369 0.0
C2149 C 0.8836 0.38937 0.20877 0.0
C2150 C 0.94502 0.38766 0.20023 0.0
C2151 C 0.86439 0.37724 0.20388 0.0
C2152 C 0.02171 0.44452 0.21358 0.0
C2153 C 0.00253 0.43287 0.20751 0.0
C2154 C 0.94273 0.43099 0.21728 0.0
C2155 C 0.90322 0.38647 0.19609 0.0
C2156 C 0.92407 0.39836 0.2022 0.0
C2157 C 0.98421 0.43172 0.22212 0.0
C2158 C 0.96355 0.42024 0.21527 0.0
H2159 H 0.88425 0.3474 0.15966 0.0
H2160 H 0.91753 0.36923 0.16758 0.0
H2161 H 0.90747 0.42918 0.21204 0.0
H2162 H 0.0054 0.46115 0.2656 0.0
H2163 H 0.97169 0.44106 0.25476 0.0
C2164 C 0.23486 0.20674 0.82306 0.0
C2165 C 0.2439 0.18549 0.81843 0.0
C2166 C 0.21197 0.20957 0.82686 0.0
C2167 C 0.16218 0.17813 0.84542 0.0
H2168 H 0.13161 0.2332 0.829 0.0
C2169 C 0.06879 0.22341 0.85047 0.0
C2170 C 0.06249 0.21745 0.87237 0.0
C2171 C 0.08993 0.21782 0.84216 0.0
C2172 C 0.1397 0.21756 0.83353 0.0
H2173 H 0.23563 0.15068 0.81321 0.0
H2174 H 0.19547 0.15573 0.81944 0.0
H2175 H 0.16945 0.22649 0.81585 0.0
H2176 H 0.07362 0.20052 0.9026 0.0
H2177 H 0.11077 0.19121 0.88831 0.0
H2178 H 0.13222 0.16909 0.86285 0.0
C2179 C 0.20624 0.17015 0.8205 0.0
C2180 C 0.1616 0.21383 0.82617 0.0
C2181 C 0.22924 0.1673 0.81665 0.0
C2182 C 0.07784 0.20534 0.88563 0.0
C2183 C 0.09914 0.19988 0.87736 0.0
C2184 C 0.14018 0.18183 0.85271 0.0
C2185 C 0.19737 0.19127 0.8261 0.0
C2186 C 0.1733 0.19422 0.83226 0.0
C2187 C 0.10558 0.20628 0.85557 0.0
C2188 C 0.1287 0.20172 0.84707 0.0
H2189 H 0.24561 0.22114 0.82457 0.0
H2190 H 0.20591 0.22604 0.83136 0.0
H2191 H 0.17068 0.16293 0.85065 0.0
H2192 H 0.05743 0.23252 0.83966 0.0
H2193 H 0.09399 0.22263 0.82515 0.0
C2194 C 0.43892 0.50868 0.39721 0.0
C2195 C 0.42488 0.50022 0.41408 0.0
C2196 C 0.44091 0.53159 0.39368 0.0
C2197 C 0.43929 0.58512 0.42055 0.0
H2198 H 0.43751 0.60747 0.35951 0.0
C2199 C 0.4631 0.67656 0.3955 0.0
C2200 C 0.4765 0.67852 0.37622 0.0
C2201 C 0.45342 0.65604 0.40134 0.0
C2202 C 0.43816 0.60152 0.37665 0.0
H2203 H 0.40186 0.50928 0.44054 0.0
H2204 H 0.40587 0.54996 0.43465 0.0
H2205 H 0.4257 0.56937 0.36766 0.0
H2206 H 0.49046 0.66023 0.34822 0.0
H2207 H 0.47393 0.62468 0.35849 0.0
H2208 H 0.45276 0.61703 0.42937 0.0
C2209 C 0.4151 0.53853 0.42408 0.0
C2210 C 0.43124 0.57975 0.38132 0.0
C2211 C 0.41275 0.51534 0.42738 0.0
C2212 C 0.48016 0.65945 0.36311 0.0
C2213 C 0.4705 0.63904 0.3689 0.0
C2214 C 0.44636 0.60698 0.41585 0.0
C2215 C 0.42915 0.54679 0.40708 0.0
C2216 C 0.43238 0.57109 0.40318 0.0
C2217 C 0.45684 0.63708 0.38796 0.0
C2218 C 0.44657 0.61515 0.3937 0.0
H2219 H 0.44841 0.49753 0.38654 0.0
H2220 H 0.45205 0.53746 0.38063 0.0
H2221 H 0.44045 0.57879 0.43754 0.0
H2222 H 0.4599 0.69091 0.40598 0.0
H2223 H 0.44295 0.65512 0.41609 0.0
C2224 C 0.75995 0.3275 0.81157 0.0
C2225 C 0.74464 0.30988 0.81359 0.0
C2226 C 0.78181 0.32504 0.81967 0.0
C2227 C 0.8233 0.28236 0.83914 0.0
H2228 H 0.84951 0.33272 0.86976 0.0
C2229 C 0.9088 0.27314 0.88066 0.0
C2230 C 0.92407 0.28855 0.87176 0.0
C2231 C 0.88578 0.277 0.87841 0.0
C2232 C 0.84233 0.3185 0.86136 0.0
H2233 H 0.74074 0.27544 0.82462 0.0
H2234 H 0.7784 0.27133 0.83894 0.0
H2235 H 0.81226 0.33645 0.85334 0.0
H2236 H 0.92753 0.32117 0.8562 0.0
H2237 H 0.88753 0.32812 0.85276 0.0
H2238 H 0.85336 0.26445 0.84711 0.0
C2239 C 0.77375 0.28701 0.83098 0.0
C2240 C 0.8211 0.32068 0.85172 0.0
C2241 C 0.75204 0.28942 0.8228 0.0
C2242 C 0.91606 0.30899 0.8631 0.0
C2243 C 0.89313 0.31297 0.86114 0.0
C2244 C 0.84438 0.28012 0.84895 0.0
C2245 C 0.78881 0.30492 0.82999 0.0
C2246 C 0.81141 0.3027 0.84027 0.0
C2247 C 0.8778 0.29647 0.8676 0.0
C2248 C 0.85423 0.29822 0.85998 0.0
H2249 H 0.75483 0.34349 0.80456 0.0
H2250 H 0.79312 0.33903 0.81817 0.0
H2251 H 0.81658 0.26825 0.83019 0.0
H2252 H 0.91455 0.25723 0.88736 0.0
H2253 H 0.87428 0.26415 0.88385 0.0
C2254 C 0.54618 -0.00063 0.41166 0.0
C2255 C 0.56828 0.00557 0.41628 0.0
C2256 C 0.54124 0.9776 0.40518 0.0
C2257 C 0.56399 0.91964 0.40331 0.0
H2258 H 0.51552 0.91234 0.36096 0.0
C2259 C 0.53518 0.83263 0.37363 0.0
C2260 C 0.51288 0.82909 0.38 0.0
C2261 C 0.54385 0.85434 0.37324 0.0
C2262 C 0.52923 0.91416 0.37262 0.0
H2263 H 0.60254 0.99369 0.41818 0.0
H2264 H 0.59402 0.95567 0.40634 0.0
H2265 H 0.52744 0.94981 0.37109 0.0
H2266 H 0.48173 0.84514 0.38928 0.0
H2267 H 0.49655 0.88304 0.38763 0.0
H2268 H 0.56561 0.88381 0.40471 0.0
C2269 C 0.5804 0.96754 0.4081 0.0
C2270 C 0.53592 0.93561 0.37867 0.0
C2271 C 0.5853 0.98933 0.41492 0.0
C2272 C 0.49895 0.84755 0.38419 0.0
C2273 C 0.50743 0.86919 0.38325 0.0
C2274 C 0.55749 0.89816 0.39698 0.0
C2275 C 0.55832 0.96151 0.40276 0.0
C2276 C 0.55292 0.93865 0.39463 0.0
C2277 C 0.53015 0.87273 0.37864 0.0
C2278 C 0.53966 0.89525 0.38204 0.0
H2279 H 0.53266 0.01148 0.41277 0.0
H2280 H 0.52395 0.97347 0.40195 0.0
H2281 H 0.57702 0.92124 0.41574 0.0
H2282 H 0.54626 0.81857 0.37059 0.0
H2283 H 0.56142 0.8567 0.36958 0.0
C2284 C 0.2199 0.80117 0.68383 0.0
C2285 C 0.23234 0.82084 0.68135 0.0
C2286 C 0.19657 0.80204 0.68365 0.0
C2287 C 0.15283 0.8311 0.65605 0.0
H2288 H 0.1131 0.80152 0.6979 0.0
C2289 C 0.06126 0.81506 0.63239 0.0
C2290 C 0.05323 0.79382 0.63829 0.0
C2291 C 0.08104 0.82302 0.64182 0.0
C2292 C 0.12396 0.80974 0.68595 0.0
H2293 H 0.23027 0.85692 0.67749 0.0
H2294 H 0.18938 0.85825 0.67639 0.0
H2295 H 0.15247 0.80616 0.70748 0.0
H2296 H 0.05932 0.76446 0.65902 0.0
H2297 H 0.09399 0.77771 0.67454 0.0
H2298 H 0.12515 0.83309 0.63367 0.0
C2299 C 0.19775 0.8423 0.67887 0.0
C2300 C 0.14641 0.81254 0.69158 0.0
C2301 C 0.22107 0.8415 0.67956 0.0
C2302 C 0.06497 0.78098 0.65421 0.0
C2303 C 0.08485 0.78872 0.66331 0.0
C2304 C 0.13052 0.82787 0.6502 0.0
C2305 C 0.18537 0.82253 0.68054 0.0
C2306 C 0.16109 0.82277 0.67643 0.0
C2307 C 0.09337 0.80971 0.65703 0.0
C2308 C 0.11593 0.81654 0.6648 0.0
H2309 H 0.22821 0.78506 0.68529 0.0
H2310 H 0.18731 0.78657 0.68475 0.0
H2311 H 0.16396 0.83886 0.64404 0.0
H2312 H 0.05239 0.82543 0.62035 0.0
H2313 H 0.08683 0.83945 0.63689 0.0
C2314 C 0.08344 0.50992 0.59177 0.0
C2315 C 0.06574 0.49501 0.58819 0.0
C2316 C 0.07915 0.53205 0.59784 0.0
C2317 C 0.03477 0.56731 0.62285 0.0
H2318 H 0.06945 0.61648 0.59883 0.0
C2319 C 0.00398 0.65794 0.61841 0.0
C2320 C 0.01931 0.6753 0.62111 0.0
C2321 C 0.01106 0.63574 0.61971 0.0
C2322 C 0.05993 0.60289 0.60607 0.0
H2323 H 0.02964 0.49203 0.587 0.0
H2324 H 0.02217 0.53077 0.59694 0.0
H2325 H 0.07885 0.57826 0.58833 0.0
H2326 H 0.05368 0.68356 0.62832 0.0
H2327 H 0.06634 0.64437 0.63041 0.0
H2328 H 0.01532 0.5921 0.6399 0.0
C2329 C 0.03938 0.52517 0.59574 0.0
C2330 C 0.06525 0.58098 0.59997 0.0
C2331 C 0.04366 0.50302 0.58979 0.0
C2332 C 0.04161 0.67029 0.62643 0.0
C2333 C 0.04882 0.64797 0.62743 0.0
C2334 C 0.02939 0.58921 0.62885 0.0
C2335 C 0.05707 0.53981 0.60032 0.0
C2336 C 0.05242 0.56298 0.60791 0.0
C2337 C 0.03371 0.63053 0.62338 0.0
C2338 C 0.04163 0.60725 0.62016 0.0
H2339 H 0.10067 0.50431 0.59077 0.0
H2340 H 0.09317 0.54284 0.60133 0.0
H2341 H 0.02491 0.55379 0.62973 0.0
H2342 H 0.98673 0.66159 0.6141 0.0
H2343 H 0.99907 0.62271 0.61629 0.0
C2344 C 0.77242 0.66823 0.67838 0.0
C2345 C 0.75921 0.68772 0.6771 0.0
C2346 C 0.794 0.668 0.66932 0.0
C2347 C 0.83814 0.70609 0.64789 0.0
H2348 H 0.85882 0.65343 0.61627 0.0
C2349 C 0.91949 0.71214 0.60579 0.0
C2350 C 0.93415 0.69983 0.61956 0.0
C2351 C 0.89706 0.70608 0.60453 0.0
C2352 C 0.85295 0.6683 0.62474 0.0
H2353 H 0.75875 0.72259 0.66668 0.0
H2354 H 0.79555 0.722 0.6504 0.0
H2355 H 0.82217 0.65312 0.63474 0.0
H2356 H 0.93832 0.6692 0.63879 0.0
H2357 H 0.89914 0.65874 0.63667 0.0
H2358 H 0.86865 0.72133 0.63785 0.0
C2359 C 0.78969 0.70693 0.65859 0.0
C2360 C 0.83224 0.66805 0.63565 0.0
C2361 C 0.76843 0.70724 0.66786 0.0
C2362 C 0.92713 0.67927 0.62855 0.0
C2363 C 0.90475 0.67314 0.62716 0.0
C2364 C 0.85842 0.7065 0.63663 0.0
C2365 C 0.80261 0.68723 0.65878 0.0
C2366 C 0.8247 0.68694 0.64748 0.0
C2367 C 0.88929 0.68763 0.61689 0.0
C2368 C 0.86608 0.68763 0.62507 0.0
H2369 H 0.76575 0.65291 0.68539 0.0
H2370 H 0.80372 0.65268 0.67019 0.0
H2371 H 0.83327 0.72072 0.65732 0.0
H2372 H 0.92454 0.7279 0.59838 0.0
H2373 H 0.88536 0.71732 0.59627 0.0
C2374 C 0.94863 0.99113 0.57503 0.0
C2375 C 0.92781 0.00124 0.57932 0.0
C2376 C 0.95158 0.96814 0.57771 0.0
C2377 C 0.92369 0.91367 0.58526 0.0
H2378 H 0.97643 0.90035 0.62081 0.0
C2379 C 0.96536 0.83845 0.64238 0.0
C2380 C 0.96582 0.82032 0.62754 0.0
C2381 C 0.95854 0.85962 0.63514 0.0
C2382 C 0.96159 0.90377 0.61094 0.0
H2383 H 0.8933 0.99492 0.58831 0.0
H2384 H 0.89855 0.95445 0.59329 0.0
H2385 H 0.96858 0.93867 0.60949 0.0
H2386 H 0.9583 0.81013 0.59365 0.0
H2387 H 0.9464 0.84743 0.58095 0.0
H2388 H 0.91674 0.87846 0.5871 0.0
C2389 C 0.91255 0.96445 0.58774 0.0
C2390 C 0.95721 0.92571 0.60423 0.0
C2391 C 0.90956 0.9876 0.58494 0.0
C2392 C 0.95831 0.82374 0.60547 0.0
C2393 C 0.95138 0.84506 0.59822 0.0
C2394 C 0.92821 0.89152 0.59187 0.0
C2395 C 0.93381 0.95464 0.58488 0.0
C2396 C 0.93823 0.93097 0.59135 0.0
C2397 C 0.95194 0.8633 0.61289 0.0
C2398 C 0.94712 0.88643 0.60497 0.0
H2399 H 0.96294 0.00112 0.57028 0.0
H2400 H 0.96803 0.96101 0.57487 0.0
H2401 H 0.90897 0.91723 0.57529 0.0
H2402 H 0.97074 0.83646 0.65958 0.0
H2403 H 0.95876 0.87327 0.64695 0.0
C2404 C 0.80061 0.22927 0.15996 0.0
C2405 C 0.8042 0.24357 0.17814 0.0
C2406 C 0.80386 0.20615 0.16235 0.0
C2407 C 0.81127 0.16088 0.20485 0.0
H2408 H 0.84741 0.13258 0.1591 0.0
C2409 C 0.87487 0.08083 0.19665 0.0
C2410 C 0.86292 0.06505 0.20934 0.0
C2411 C 0.86492 0.10123 0.19047 0.0
C2412 C 0.83736 0.14025 0.17205 0.0
H2413 H 0.81267 0.24468 0.21338 0.0
H2414 H 0.8184 0.20467 0.2175 0.0
H2415 H 0.83396 0.17083 0.15345 0.0
H2416 H 0.83072 0.05795 0.22437 0.0
H2417 H 0.81331 0.09299 0.21323 0.0
H2418 H 0.81558 0.1309 0.22399 0.0
C2419 C 0.813 0.21114 0.2014 0.0
C2420 C 0.82938 0.16207 0.16868 0.0
C2421 C 0.80985 0.23416 0.19901 0.0
C2422 C 0.84055 0.06976 0.2149 0.0
C2423 C 0.83056 0.08999 0.20857 0.0
C2424 C 0.8193 0.13915 0.20826 0.0
C2425 C 0.81058 0.19689 0.183 0.0
C2426 C 0.81661 0.1728 0.18525 0.0
C2427 C 0.84274 0.1062 0.19669 0.0
C2428 C 0.83277 0.12867 0.19208 0.0
H2429 H 0.79628 0.236 0.14365 0.0
H2430 H 0.80158 0.19558 0.14792 0.0
H2431 H 0.80125 0.16853 0.21783 0.0
H2432 H 0.89215 0.07776 0.1921 0.0
H2433 H 0.87491 0.1134 0.18153 0.0
C2434 C 0.50392 0.89452 0.04536 0.0
C2435 C 0.50786 0.9082 0.06396 0.0
C2436 C 0.48223 0.88783 0.04003 0.0
C2437 C 0.42603 0.88183 0.06555 0.0
H2438 H 0.40552 0.8801 0.00411 0.0
C2439 C 0.33475 0.89083 0.03925 0.0
C2440 C 0.32672 0.87871 0.02101 0.0
C2441 C 0.35695 0.8887 0.04594 0.0
C2442 C 0.41115 0.88 0.02132 0.0
H2443 H 0.49189 0.92638 0.09093 0.0
H2444 H 0.45409 0.91525 0.08128 0.0
H2445 H 0.44432 0.88949 0.01202 0.0
H2446 H 0.33503 0.8541 0.99596 0.0
H2447 H 0.37445 0.85061 0.00743 0.0
H2448 H 0.39254 0.87333 0.07483 0.0
C2449 C 0.46783 0.90912 0.07119 0.0
C2450 C 0.43337 0.88548 0.02588 0.0
C2451 C 0.4895 0.91572 0.07658 0.0
C2452 C 0.3409 0.86342 0.01024 0.0
C2453 C 0.36339 0.86159 0.01667 0.0
C2454 C 0.40381 0.87649 0.06099 0.0
C2455 C 0.46395 0.89475 0.05311 0.0
C2456 C 0.44092 0.88703 0.04808 0.0
C2457 C 0.37172 0.87469 0.03422 0.0
C2458 C 0.39601 0.87606 0.03886 0.0
H2459 H 0.51766 0.88832 0.0353 0.0
H2460 H 0.47988 0.87668 0.02606 0.0
H2461 H 0.43143 0.88227 0.08282 0.0
H2462 H 0.32406 0.90281 0.04769 0.0
H2463 H 0.3629 0.89917 0.05935 0.0
C2464 C 0.19474 0.27613 0.20158 0.0
C2465 C 0.1921 0.26402 0.18174 0.0
C2466 C 0.19307 0.29943 0.20134 0.0
C2467 C 0.16174 0.34229 0.17386 0.0
H2468 H 0.20124 0.3838 0.20336 0.0
C2469 C 0.13366 0.43307 0.18904 0.0
C2470 C 0.13914 0.44177 0.21005 0.0
C2471 C 0.14391 0.41342 0.18149 0.0
C2472 C 0.18992 0.37243 0.1952 0.0
H2473 H 0.18663 0.26684 0.14594 0.0
H2474 H 0.18306 0.30756 0.14573 0.0
H2475 H 0.21307 0.34499 0.19833 0.0
H2476 H 0.15994 0.43698 0.23944 0.0
H2477 H 0.17692 0.40251 0.22689 0.0
H2478 H 0.13786 0.36887 0.17215 0.0
C2479 C 0.18669 0.29897 0.16134 0.0
C2480 C 0.19682 0.35029 0.19219 0.0
C2481 C 0.18881 0.27571 0.1615 0.0
C2482 C 0.15545 0.4308 0.22308 0.0
C2483 C 0.16537 0.41104 0.21575 0.0
C2484 C 0.15464 0.36426 0.17727 0.0
C2485 C 0.18834 0.31095 0.18133 0.0
C2486 C 0.1826 0.33497 0.18187 0.0
C2487 C 0.15955 0.40187 0.19498 0.0
C2488 C 0.16841 0.37951 0.18848 0.0
H2489 H 0.19738 0.26754 0.21739 0.0
H2490 H 0.19423 0.30835 0.21699 0.0
H2491 H 0.1504 0.33066 0.16605 0.0
H2492 H 0.12133 0.44132 0.17853 0.0
H2493 H 0.13932 0.40715 0.16521 0.0
C2494 C 0.51622 0.55809 0.06587 0.0
C2495 C 0.49903 0.56765 0.05279 0.0
C2496 C 0.53868 0.56236 0.0609 0.0
C2497 C 0.57183 0.60745 0.03926 0.0
H2498 H 0.62091 0.56513 0.03411 0.0
C2499 C 0.66 0.63733 0.01632 0.0
C2500 C 0.67869 0.62591 0.02502 0.0
C2501 C 0.6385 0.62891 0.01936 0.0
C2502 C 0.60749 0.57722 0.03588 0.0
H2503 H 0.49213 0.58798 0.0233 0.0
H2504 H 0.53124 0.59568 0.01499 0.0
H2505 H 0.58275 0.55149 0.03922 0.0
H2506 H 0.68944 0.59676 0.044 0.0
H2507 H 0.65178 0.58254 0.05029 0.0
H2508 H 0.59617 0.63322 0.03704 0.0
C2509 C 0.52727 0.58489 0.02906 0.0
C2510 C 0.58562 0.56934 0.03862 0.0
C2511 C 0.50487 0.58034 0.03378 0.0
C2512 C 0.67536 0.60594 0.03707 0.0
C2513 C 0.65373 0.59769 0.04049 0.0
C2514 C 0.59363 0.61532 0.03699 0.0
C2515 C 0.54433 0.57652 0.04297 0.0
C2516 C 0.56759 0.58442 0.04005 0.0
C2517 C 0.63497 0.60903 0.0316 0.0
C2518 C 0.6118 0.60037 0.03497 0.0
H2519 H 0.5123 0.54819 0.08058 0.0
H2520 H 0.55155 0.55571 0.07187 0.0
H2521 H 0.55826 0.61943 0.04081 0.0
H2522 H 0.66198 0.65256 0.00662 0.0
H2523 H 0.62468 0.63788 0.0117 0.0
C2524 C 0.8202 0.76818 0.33357 0.0
C2525 C 0.82094 0.75343 0.31539 0.0
C2526 C 0.82739 0.79032 0.33102 0.0
C2527 C 0.84214 0.83314 0.28774 0.0
H2528 H 0.87723 0.85854 0.33564 0.0
C2529 C 0.88394 0.91737 0.27489 0.0
C2530 C 0.87592 0.93302 0.29038 0.0
C2531 C 0.88205 0.89446 0.27941 0.0
C2532 C 0.86757 0.85155 0.3221 0.0
H2533 H 0.8285 0.75079 0.28001 0.0
H2534 H 0.84128 0.78884 0.2757 0.0
H2535 H 0.86108 0.82133 0.34033 0.0
H2536 H 0.86265 0.93725 0.32381 0.0
H2537 H 0.85991 0.89738 0.33189 0.0
H2538 H 0.84875 0.86325 0.26948 0.0
C2539 C 0.83502 0.78362 0.2919 0.0
C2540 C 0.85807 0.83038 0.32486 0.0
C2541 C 0.82775 0.76166 0.2944 0.0
C2542 C 0.86885 0.92549 0.31154 0.0
C2543 C 0.86726 0.90264 0.31617 0.0
C2544 C 0.85187 0.8541 0.28489 0.0
C2545 C 0.83546 0.79813 0.31026 0.0
C2546 C 0.84512 0.82093 0.30773 0.0
C2547 C 0.8725 0.88695 0.29961 0.0
C2548 C 0.8646 0.8636 0.30205 0.0
H2549 H 0.81513 0.76235 0.34999 0.0
H2550 H 0.82704 0.80116 0.34543 0.0
H2551 H 0.83195 0.82669 0.27433 0.0
H2552 H 0.88944 0.92271 0.25844 0.0
H2553 H 0.88656 0.88264 0.2665 0.0
C2554 C 0.01764 0.92527 0.91053 0.0
C2555 C 0.00342 0.93018 0.9286 0.0
C2556 C 0.0406 0.92188 0.91404 0.0
C2557 C 0.07751 0.90252 0.95923 0.0
H2558 H 0.12579 0.91746 0.91862 0.0
C2559 C 0.17964 0.89562 0.95779 0.0
C2560 C 0.18216 0.8735 0.96569 0.0
C2561 C 0.15853 0.90397 0.95174 0.0
C2562 C 0.11248 0.91329 0.93017 0.0
H2563 H 0.00241 0.93753 0.96403 0.0
H2564 H 0.04233 0.93211 0.97002 0.0
H2565 H 0.08793 0.93167 0.91118 0.0
H2566 H 0.16449 0.8426 0.97249 0.0
H2567 H 0.1279 0.85712 0.96189 0.0
H2568 H 0.1018 0.8842 0.97823 0.0
C2569 C 0.03574 0.93019 0.95328 0.0
C2570 C 0.0908 0.92129 0.92583 0.0
C2571 C 0.01287 0.93345 0.94982 0.0
C2572 C 0.16321 0.85976 0.96668 0.0
C2573 C 0.14217 0.86812 0.96071 0.0
C2574 C 0.09904 0.89446 0.96347 0.0
C2575 C 0.04972 0.92345 0.93565 0.0
C2576 C 0.07306 0.91598 0.94034 0.0
C2577 C 0.1395 0.89042 0.95354 0.0
C2578 C 0.11676 0.89958 0.94894 0.0
H2579 H 0.01087 0.92259 0.89398 0.0
H2580 H 0.05091 0.91669 0.9001 0.0
H2581 H 0.06421 0.89778 0.97058 0.0
H2582 H 0.19387 0.90663 0.95667 0.0
H2583 H 0.15701 0.92124 0.94634 0.0
C2584 C 0.16512 0.73305 0.32455 0.0
C2585 C 0.16109 0.74685 0.30583 0.0
C2586 C 0.15724 0.71104 0.32503 0.0
C2587 C 0.1356 0.66683 0.28756 0.0
H2588 H 0.11347 0.64072 0.34279 0.0
C2589 C 0.10399 0.57904 0.28555 0.0
C2590 C 0.11851 0.56561 0.29841 0.0
C2591 C 0.10194 0.60184 0.2901 0.0
C2592 C 0.11933 0.64799 0.32722 0.0
H2593 H 0.14611 0.7481 0.27272 0.0
H2594 H 0.13194 0.71052 0.27389 0.0
H2595 H 0.1272 0.67923 0.34253 0.0
H2596 H 0.13902 0.56436 0.32828 0.0
H2597 H 0.13531 0.60404 0.33625 0.0
H2598 H 0.12789 0.63574 0.27227 0.0
C2599 C 0.14154 0.71627 0.28804 0.0
C2600 C 0.12749 0.66987 0.3271 0.0
C2601 C 0.14964 0.73799 0.28743 0.0
C2602 C 0.12804 0.57449 0.31787 0.0
C2603 C 0.12582 0.5972 0.32252 0.0
C2604 C 0.12713 0.64523 0.28761 0.0
C2605 C 0.14506 0.70253 0.30688 0.0
C2606 C 0.13598 0.67945 0.30728 0.0
C2607 C 0.11415 0.61131 0.30768 0.0
C2608 C 0.11917 0.63547 0.30746 0.0
H2609 H 0.17386 0.73938 0.339 0.0
H2610 H 0.16063 0.70077 0.33964 0.0
H2611 H 0.14245 0.67335 0.27209 0.0
H2612 H 0.09625 0.5726 0.27057 0.0
H2613 H 0.09252 0.61239 0.27864 0.0
C2614 C 0.00033 0.60589 0.95098 0.0
C2615 C 0.00792 0.59486 0.93168 0.0
C2616 C 0.97769 0.61059 0.95399 0.0
C2617 C 0.9222 0.5917 0.93833 0.0
H2618 H 0.90297 0.64873 0.96254 0.0
C2619 C 0.83006 0.60716 0.95724 0.0
C2620 C 0.82526 0.61659 0.97809 0.0
C2621 C 0.85159 0.60816 0.94843 0.0
C2622 C 0.90808 0.63269 0.95589 0.0
H2623 H 0.99751 0.57996 0.90046 0.0
H2624 H 0.95766 0.58796 0.90593 0.0
H2625 H 0.94227 0.64275 0.95293 0.0
H2626 H 0.83851 0.63534 0.00577 0.0
H2627 H 0.87665 0.63664 0.9907 0.0
H2628 H 0.88839 0.58123 0.94202 0.0
C2629 C 0.96943 0.59301 0.91865 0.0
C2630 C 0.93056 0.62928 0.95034 0.0
C2631 C 0.99222 0.58845 0.91552 0.0
C2632 C 0.84193 0.62816 0.98954 0.0
C2633 C 0.86369 0.62888 0.98086 0.0
C2634 C 0.8998 0.59504 0.944 0.0
C2635 C 0.96199 0.60424 0.93788 0.0
C2636 C 0.93788 0.60864 0.94178 0.0
C2637 C 0.8689 0.61817 0.96056 0.0
C2638 C 0.89248 0.6155 0.95306 0.0
H2639 H 0.01189 0.61109 0.96384 0.0
H2640 H 0.97243 0.61888 0.96917 0.0
H2641 H 0.92739 0.57552 0.9321 0.0
H2642 H 0.81731 0.59821 0.94816 0.0
H2643 H 0.85484 0.60029 0.9325 0.0
C2644 C 0.15724 0.80957 0.21698 0.0
C2645 C 0.17582 0.81456 0.23039 0.0
C2646 C 0.15926 0.80911 0.19368 0.0
C2647 C 0.20124 0.80942 0.14747 0.0
H2648 H 0.15578 0.84352 0.11572 0.0
C2649 C 0.21502 0.83657 0.05629 0.0
C2650 C 0.20962 0.85902 0.05156 0.0
C2651 C 0.20739 0.82629 0.07588 0.0
C2652 C 0.16863 0.83394 0.12433 0.0
H2653 H 0.21136 0.82168 0.22989 0.0
H2654 H 0.21476 0.82135 0.18958 0.0
H2655 H 0.14994 0.83353 0.15479 0.0
H2656 H 0.19123 0.88803 0.06332 0.0
H2657 H 0.17857 0.87045 0.09773 0.0
H2658 H 0.22067 0.81125 0.1176 0.0
C2659 C 0.19866 0.81751 0.19689 0.0
C2660 C 0.16513 0.82792 0.14667 0.0
C2661 C 0.19666 0.81793 0.22009 0.0
C2662 C 0.1957 0.8707 0.06643 0.0
C2663 C 0.18826 0.86052 0.08612 0.0
C2664 C 0.20483 0.81562 0.12522 0.0
C2665 C 0.17991 0.81358 0.18336 0.0
C2666 C 0.18174 0.81625 0.15871 0.0
C2667 C 0.19437 0.83831 0.09131 0.0
C2668 C 0.18888 0.8286 0.1136 0.0
H2669 H 0.14097 0.80674 0.22441 0.0
H2670 H 0.14456 0.80574 0.18373 0.0
H2671 H 0.21418 0.80003 0.15614 0.0
H2672 H 0.22543 0.82698 0.04506 0.0
H2673 H 0.21207 0.80904 0.07912 0.0
C2674 C 0.18135 0.20263 0.27399 0.0
C2675 C 0.19776 0.19376 0.25964 0.0
C2676 C 0.18374 0.20082 0.29718 0.0
C2677 C 0.18498 0.17752 0.34244 0.0
H2678 H 0.24202 0.18116 0.37287 0.0
C2679 C 0.20395 0.13131 0.42519 0.0
C2680 C 0.21817 0.14145 0.44076 0.0
C2681 C 0.19977 0.14148 0.40448 0.0
C2682 C 0.22587 0.18038 0.36474 0.0
H2683 H 0.23021 0.17734 0.25848 0.0
H2684 H 0.23426 0.17406 0.29882 0.0
H2685 H 0.23896 0.19355 0.33407 0.0
H2686 H 0.23817 0.17085 0.44714 0.0
H2687 H 0.23071 0.18863 0.41117 0.0
H2688 H 0.17194 0.16414 0.37304 0.0
C2689 C 0.21959 0.18249 0.29219 0.0
C2690 C 0.22419 0.18726 0.34243 0.0
C2691 C 0.2172 0.18427 0.26902 0.0
C2692 C 0.2273 0.16245 0.43551 0.0
C2693 C 0.22312 0.17262 0.41483 0.0
C2694 C 0.18666 0.17061 0.36474 0.0
C2695 C 0.20261 0.1902 0.30651 0.0
C2696 C 0.20384 0.18549 0.3309 0.0
C2697 C 0.20969 0.16203 0.39889 0.0
C2698 C 0.20723 0.17156 0.37601 0.0
H2699 H 0.16624 0.21023 0.26735 0.0
H2700 H 0.17054 0.20726 0.30779 0.0
H2701 H 0.16909 0.17573 0.33398 0.0
H2702 H 0.19662 0.11514 0.42867 0.0
H2703 H 0.18952 0.13275 0.3925 0.0
C2704 C 0.38604 0.54919 0.00345 0.0
C2705 C 0.4029 0.5649 0.00763 0.0
C2706 C 0.37837 0.54568 0.98172 0.0
C2707 C 0.37855 0.57096 0.9247 0.0
H2708 H 0.36964 0.50986 0.90556 0.0
C2709 C 0.39401 0.54003 0.83646 0.0
C2710 C 0.37951 0.52447 0.82689 0.0
C2711 C 0.39047 0.54751 0.85813 0.0
C2712 C 0.37151 0.52705 0.91078 0.0
H2713 H 0.42507 0.58906 0.99222 0.0
H2714 H 0.41223 0.58244 0.95425 0.0
H2715 H 0.37693 0.51745 0.94484 0.0
H2716 H 0.34951 0.50503 0.83191 0.0
H2717 H 0.34362 0.51771 0.87059 0.0
H2718 H 0.37455 0.58029 0.89027 0.0
C2719 C 0.40446 0.57327 0.96783 0.0
C2720 C 0.37575 0.53143 0.93328 0.0
C2721 C 0.41201 0.57691 0.98958 0.0
C2722 C 0.36081 0.51714 0.839 0.0
C2723 C 0.35751 0.5243 0.86103 0.0
C2724 C 0.37452 0.56655 0.90219 0.0
C2725 C 0.38749 0.55767 0.96364 0.0
C2726 C 0.38004 0.55337 0.94038 0.0
C2727 C 0.37258 0.53927 0.87085 0.0
C2728 C 0.37165 0.54449 0.89494 0.0
H2729 H 0.37851 0.53976 0.017 0.0
H2730 H 0.36513 0.53372 0.97914 0.0
H2731 H 0.38118 0.58811 0.9297 0.0
H2732 H 0.40849 0.54596 0.82733 0.0
H2733 H 0.40249 0.55883 0.86537 0.0
C2734 C 0.83317 0.32448 0.25758 0.0
C2735 C 0.81257 0.32382 0.24627 0.0
C2736 C 0.83435 0.33294 0.27936 0.0
C2737 C 0.80479 0.3723 0.3158 0.0
H2738 H 0.83331 0.34127 0.36527 0.0
C2739 C 0.78192 0.38748 0.40765 0.0
C2740 C 0.79697 0.38048 0.42431 0.0
C2741 C 0.78795 0.38607 0.38509 0.0
C2742 C 0.82577 0.35058 0.3516 0.0
H2743 H 0.77689 0.32995 0.24962 0.0
H2744 H 0.77904 0.34461 0.28732 0.0
H2745 H 0.83579 0.32573 0.32786 0.0
H2746 H 0.83099 0.3698 0.43087 0.0
H2747 H 0.84201 0.36868 0.39166 0.0
H2748 H 0.79457 0.39708 0.33939 0.0
C2749 C 0.7943 0.33905 0.27925 0.0
C2750 C 0.82709 0.3415 0.33016 0.0
C2751 C 0.79308 0.33045 0.25771 0.0
C2752 C 0.81904 0.37513 0.41827 0.0
C2753 C 0.82521 0.37413 0.39577 0.0
C2754 C 0.8037 0.38155 0.33717 0.0
C2755 C 0.81498 0.34102 0.29005 0.0
C2756 C 0.81605 0.35192 0.3122 0.0
C2757 C 0.80927 0.378 0.37887 0.0
C2758 C 0.81362 0.37049 0.35552 0.0
H2759 H 0.84849 0.31962 0.24921 0.0
H2760 H 0.85049 0.33413 0.28744 0.0
H2761 H 0.79645 0.38089 0.30211 0.0
H2762 H 0.76474 0.39151 0.41187 0.0
H2763 H 0.77517 0.38928 0.37264 0.0
C2764 C 0.10883 0.45201 0.50425 0.0
C2765 C 0.09649 0.43289 0.51008 0.0
C2766 C 0.11518 0.45599 0.48211 0.0
C2767 C 0.12122 0.42786 0.427 0.0
H2768 H 0.11982 0.48869 0.40407 0.0
C2769 C 0.11032 0.45209 0.33469 0.0
C2770 C 0.1217 0.47071 0.32613 0.0
C2771 C 0.11287 0.44567 0.357 0.0
C2772 C 0.12077 0.47166 0.41034 0.0
H2773 H 0.08079 0.40317 0.49703 0.0
H2774 H 0.09113 0.41051 0.45822 0.0
H2775 H 0.11143 0.4816 0.44329 0.0
H2776 H 0.14552 0.49665 0.3336 0.0
H2777 H 0.14972 0.48568 0.37314 0.0
H2778 H 0.1294 0.41797 0.39358 0.0
C2779 C 0.0965 0.42212 0.4709 0.0
C2780 C 0.1159 0.46755 0.43285 0.0
C2781 C 0.09036 0.41801 0.49313 0.0
C2782 C 0.13677 0.48209 0.33986 0.0
C2783 C 0.139 0.47593 0.36243 0.0
C2784 C 0.12585 0.43198 0.40442 0.0
C2785 C 0.10914 0.4411 0.4651 0.0
C2786 C 0.11568 0.44556 0.44142 0.0
C2787 C 0.12653 0.45805 0.37133 0.0
C2788 C 0.12531 0.45389 0.39579 0.0
H2789 H 0.11406 0.46375 0.51688 0.0
H2790 H 0.12518 0.47058 0.47843 0.0
H2791 H 0.12175 0.41077 0.43308 0.0
H2792 H 0.09852 0.44316 0.32438 0.0
H2793 H 0.10291 0.43198 0.36339 0.0
C2794 C 0.30228 0.16923 0.7358 0.0
C2795 C 0.32248 0.17309 0.74713 0.0
C2796 C 0.3023 0.15999 0.71448 0.0
C2797 C 0.33383 0.1515 0.66361 0.0
H2798 H 0.29538 0.1 0.65663 0.0
C2799 C 0.3198 0.11742 0.57661 0.0
C2800 C 0.29714 0.1146 0.57134 0.0
C2801 C 0.32675 0.11795 0.59888 0.0
C2802 C 0.30615 0.11438 0.65821 0.0
H2803 H 0.35861 0.17172 0.74419 0.0
H2804 H 0.35858 0.15622 0.7063 0.0
H2805 H 0.29967 0.11696 0.69334 0.0
H2806 H 0.26439 0.10756 0.58488 0.0
H2807 H 0.27619 0.10904 0.62373 0.0
H2808 H 0.33931 0.15002 0.62842 0.0
C2809 C 0.34277 0.16004 0.71431 0.0
C2810 C 0.30863 0.12405 0.67926 0.0
C2811 C 0.34277 0.16909 0.73588 0.0
C2812 C 0.28201 0.10957 0.58853 0.0
C2813 C 0.28885 0.11055 0.61088 0.0
C2814 C 0.33111 0.14205 0.64248 0.0
C2815 C 0.3225 0.15467 0.70381 0.0
C2816 C 0.32206 0.14302 0.68203 0.0
C2817 C 0.31104 0.1162 0.61632 0.0
C2818 C 0.3168 0.12366 0.63937 0.0
H2819 H 0.28634 0.17228 0.74386 0.0
H2820 H 0.28645 0.15652 0.70652 0.0
H2821 H 0.34422 0.16615 0.66531 0.0
H2822 H 0.33179 0.12126 0.56356 0.0
H2823 H 0.34412 0.12147 0.60238 0.0
C2824 C 0.40687 0.45858 0.50637 0.0
C2825 C 0.42063 0.44064 0.49975 0.0
C2826 C 0.40261 0.46244 0.52892 0.0
C2827 C 0.42197 0.4551 0.58573 0.0
H2828 H 0.35888 0.45682 0.6007 0.0
C2829 C 0.39011 0.46725 0.67676 0.0
C2830 C 0.37087 0.48062 0.6794 0.0
C2831 C 0.39719 0.46078 0.65542 0.0
C2832 C 0.37657 0.4567 0.59684 0.0
H2833 H 0.44177 0.41349 0.51182 0.0
H2834 H 0.43462 0.42069 0.55156 0.0
H2835 H 0.37036 0.44942 0.56243 0.0
H2836 H 0.34428 0.49809 0.66166 0.0
H2837 H 0.3569 0.4875 0.6247 0.0
H2838 H 0.42821 0.46329 0.61996 0.0
C2839 C 0.42697 0.43148 0.53906 0.0
C2840 C 0.38311 0.45231 0.57492 0.0
C2841 C 0.431 0.42737 0.51636 0.0
C2842 C 0.35901 0.48754 0.66028 0.0
C2843 C 0.3662 0.48132 0.63902 0.0
C2844 C 0.41541 0.45986 0.6077 0.0
C2845 C 0.41227 0.44869 0.54544 0.0
C2846 C 0.40582 0.45179 0.5691 0.0
C2847 C 0.38528 0.46772 0.63627 0.0
C2848 C 0.39258 0.46108 0.61343 0.0
H2849 H 0.39866 0.46923 0.4941 0.0
H2850 H 0.39142 0.47598 0.53348 0.0
H2851 H 0.4396 0.45481 0.58157 0.0
H2852 H 0.39959 0.46159 0.69118 0.0
H2853 H 0.41182 0.45013 0.65398 0.0
C2854 C 0.57933 0.04311 0.51064 0.0
C2855 C 0.57255 0.06433 0.50278 0.0
C2856 C 0.58097 0.0386 0.53351 0.0
C2857 C 0.58724 0.06751 0.58796 0.0
H2858 H 0.58267 0.00676 0.61061 0.0
C2859 C 0.60244 0.03799 0.68103 0.0
C2860 C 0.62041 0.02271 0.6824 0.0
C2861 C 0.59346 0.04414 0.66018 0.0
C2862 C 0.58385 0.02383 0.60452 0.0
H2863 H 0.56091 0.09707 0.51308 0.0
H2864 H 0.56295 0.08895 0.55316 0.0
H2865 H 0.57065 0.01538 0.57255 0.0
H2866 H 0.64266 0.00157 0.66304 0.0
H2867 H 0.62649 0.01178 0.62687 0.0
H2868 H 0.60018 0.07576 0.62038 0.0
C2869 C 0.5677 0.07597 0.54153 0.0
C2870 C 0.57717 0.02879 0.58263 0.0
C2871 C 0.5663 0.08058 0.51852 0.0
C2872 C 0.62897 0.01353 0.66256 0.0
C2873 C 0.61966 0.01925 0.64187 0.0
C2874 C 0.59349 0.06258 0.61006 0.0
C2875 C 0.57553 0.05503 0.54937 0.0
C2876 C 0.57945 0.05056 0.57374 0.0
C2877 C 0.60189 0.03464 0.64046 0.0
C2878 C 0.59243 0.04058 0.61829 0.0
H2879 H 0.58433 0.03012 0.49911 0.0
H2880 H 0.58746 0.02242 0.53863 0.0
H2881 H 0.58951 0.0844 0.5818 0.0
H2882 H 0.59548 0.04531 0.69603 0.0
H2883 H 0.57973 0.05604 0.65946 0.0
C2884 C 0.73233 0.70043 0.31758 0.0
C2885 C 0.74346 0.67994 0.32115 0.0
C2886 C 0.70935 0.70247 0.32155 0.0
C2887 C 0.66595 0.68036 0.35765 0.0
H2888 H 0.62493 0.71101 0.31752 0.0
C2889 C 0.57321 0.69631 0.38232 0.0
C2890 C 0.56329 0.71641 0.37492 0.0
C2891 C 0.59429 0.68969 0.37431 0.0
C2892 C 0.63617 0.70269 0.32912 0.0
H2893 H 0.73911 0.64537 0.33133 0.0
H2894 H 0.69894 0.64908 0.33872 0.0
H2895 H 0.66319 0.70351 0.30551 0.0
H2896 H 0.568 0.74552 0.35364 0.0
H2897 H 0.60474 0.73457 0.34044 0.0
H2898 H 0.63951 0.68048 0.38173 0.0
C2899 C 0.70802 0.66347 0.33258 0.0
C2900 C 0.65807 0.69823 0.3221 0.0
C2901 C 0.73096 0.66131 0.32813 0.0
C2902 C 0.57498 0.72977 0.35948 0.0
C2903 C 0.59611 0.72336 0.35175 0.0
C2904 C 0.64414 0.68516 0.36485 0.0
C2905 C 0.69706 0.68417 0.32966 0.0
C2906 C 0.67327 0.68721 0.33636 0.0
C2907 C 0.60612 0.70317 0.35894 0.0
C2908 C 0.62897 0.69666 0.3508 0.0
H2909 H 0.74155 0.71509 0.31233 0.0
H2910 H 0.70139 0.71866 0.31929 0.0
H2911 H 0.67738 0.67206 0.3691 0.0
H2912 H 0.5646 0.68556 0.39411 0.0
H2913 H 0.60118 0.67387 0.38005 0.0
C2914 C 0.91536 0.0123 0.9246 0.0
C2915 C 0.92717 0.99717 0.91101 0.0
C2916 C 0.91804 0.03549 0.92164 0.0
C2917 C 0.93487 0.07719 0.87942 0.0
H2918 H 0.95472 0.11409 0.92848 0.0
C2919 C 0.98157 0.15863 0.863 0.0
C2920 C 0.97715 0.17742 0.87631 0.0
C2921 C 0.97269 0.13779 0.86851 0.0
C2922 C 0.94882 0.10414 0.91466 0.0
H2923 H 0.95052 0.99456 0.88332 0.0
H2924 H 0.95474 0.03453 0.87799 0.0
H2925 H 0.94286 0.07554 0.9358 0.0
H2926 H 0.96009 0.18879 0.90621 0.0
H2927 H 0.94444 0.15222 0.91581 0.0
H2928 H 0.94103 0.10537 0.85818 0.0
C2929 C 0.94357 0.02864 0.89099 0.0
C2930 C 0.94201 0.08209 0.91888 0.0
C2931 C 0.94124 0.00569 0.89418 0.0
C2932 C 0.96386 0.17469 0.89558 0.0
C2933 C 0.95492 0.15371 0.90112 0.0
C2934 C 0.94151 0.09916 0.87523 0.0
C2935 C 0.93213 0.04384 0.9047 0.0
C2936 C 0.93562 0.0682 0.90117 0.0
C2937 C 0.95902 0.13506 0.88747 0.0
C2938 C 0.94928 0.1127 0.89266 0.0
H2939 H 0.9045 0.00622 0.93777 0.0
H2940 H 0.90903 0.04688 0.93244 0.0
H2941 H 0.92969 0.06699 0.86549 0.0
H2942 H 0.99185 0.15998 0.84815 0.0
H2943 H 0.97667 0.12373 0.8579 0.0
C2944 C 0.26171 0.82875 0.30609 0.0
C2945 C 0.24652 0.8111 0.30872 0.0
C2946 C 0.28384 0.8264 0.31349 0.0
C2947 C 0.32592 0.78394 0.33259 0.0
H2948 H 0.35271 0.83477 0.36193 0.0
C2949 C 0.41093 0.77506 0.37563 0.0
C2950 C 0.42665 0.78995 0.36663 0.0
C2951 C 0.38803 0.77904 0.37254 0.0
C2952 C 0.34537 0.82043 0.35386 0.0
H2953 H 0.2431 0.77669 0.32002 0.0
H2954 H 0.28117 0.7728 0.33319 0.0
H2955 H 0.3153 0.83836 0.34586 0.0
H2956 H 0.4309 0.82182 0.34974 0.0
H2957 H 0.39105 0.82903 0.34489 0.0
H2958 H 0.35594 0.76601 0.34073 0.0
C2959 C 0.27627 0.78841 0.32527 0.0
C2960 C 0.32405 0.82253 0.34441 0.0
C2961 C 0.25429 0.7907 0.31776 0.0
C2962 C 0.4191 0.81004 0.35677 0.0
C2963 C 0.39627 0.81417 0.354 0.0
C2964 C 0.34708 0.78179 0.34226 0.0
C2965 C 0.29123 0.80638 0.32372 0.0
C2966 C 0.31409 0.80434 0.3335 0.0
C2967 C 0.38057 0.79815 0.36078 0.0
C2968 C 0.35711 0.80003 0.35287 0.0
H2969 H 0.25632 0.84469 0.29919 0.0
H2970 H 0.29503 0.84044 0.31155 0.0
H2971 H 0.31905 0.76968 0.32402 0.0
H2972 H 0.4163 0.75941 0.38322 0.0
H2973 H 0.37623 0.76657 0.37822 0.0
C2974 C 0.04065 0.5016 0.91833 0.0
C2975 C 0.06324 0.50704 0.92158 0.0
C2976 C 0.03447 0.47976 0.91325 0.0
C2977 C 0.05585 0.42826 0.88785 0.0
H2978 H 0.00426 0.40133 0.91618 0.0
C2979 C 0.0314 0.33472 0.87872 0.0
C2980 C 0.00872 0.32938 0.88106 0.0
C2981 C 0.03834 0.35698 0.88048 0.0
C2982 C 0.01845 0.40871 0.90772 0.0
H2983 H 0.09701 0.49362 0.92255 0.0
H2984 H 0.08614 0.45533 0.91363 0.0
H2985 H 0.0161 0.43832 0.92745 0.0
H2986 H 0.97533 0.34283 0.88504 0.0
H2987 H 0.98714 0.3817 0.88676 0.0
H2988 H 0.05808 0.39863 0.86796 0.0
C2989 C 0.07328 0.46809 0.91493 0.0
C2990 C 0.02533 0.42989 0.91435 0.0
C2991 C 0.07946 0.48996 0.92028 0.0
C2992 C 0.99291 0.34665 0.88309 0.0
C2993 C -0.00024 0.36885 0.88446 0.0
C2994 C 0.04886 0.40705 0.88106 0.0
C2995 C 0.05074 0.46284 0.9111 0.0
C2996 C 0.04406 0.43994 0.90448 0.0
C2997 C 0.02264 0.37419 0.88444 0.0
C2998 C 0.02997 0.39704 0.89085 0.0
H2999 H 0.02775 0.51438 0.9192 0.0
H3000 H 0.01698 0.47627 0.91028 0.0
H3001 H 0.07023 0.43571 0.87976 0.0
H3002 H 0.04388 0.32157 0.87754 0.0
H3003 H 0.05608 0.36042 0.8804 0.0
C3004 C 0.72122 0.29887 0.17856 0.0
C3005 C 0.73281 0.31893 0.18178 0.0
C3006 C 0.69794 0.29848 0.17943 0.0
C3007 C 0.64991 0.33524 0.16942 0.0
H3008 H 0.61737 0.28253 0.18825 0.0
C3009 C 0.56771 0.30826 0.12884 0.0
C3010 C 0.55232 0.29564 0.1413 0.0
C3011 C 0.58768 0.31525 0.13854 0.0
C3012 C 0.626 0.29763 0.18328 0.0
H3013 H 0.72906 0.3541 0.18975 0.0
H3014 H 0.68825 0.35336 0.19139 0.0
H3015 H 0.65645 0.28631 0.19842 0.0
H3016 H 0.54496 0.28214 0.17425 0.0
H3017 H 0.57953 0.29473 0.19128 0.0
H3018 H 0.61948 0.34644 0.15406 0.0
C3019 C 0.69725 0.338 0.18789 0.0
C3020 C 0.64852 0.29965 0.1889 0.0
C3021 C 0.72062 0.33839 0.18707 0.0
C3022 C 0.55662 0.2915 0.16407 0.0
C3023 C 0.57649 0.29866 0.17383 0.0
C3024 C 0.62732 0.33328 0.16389 0.0
C3025 C 0.68565 0.31814 0.18358 0.0
C3026 C 0.66094 0.31807 0.18134 0.0
C3027 C 0.5926 0.30997 0.16099 0.0
C3028 C 0.6153 0.31409 0.1701 0.0
H3029 H 0.73008 0.28354 0.17459 0.0
H3030 H 0.68957 0.28294 0.17574 0.0
H3031 H 0.659 0.34962 0.16325 0.0
H3032 H 0.5649 0.31175 0.11126 0.0
H3033 H 0.59977 0.32371 0.12805 0.0
C3034 C 0.54379 0.00333 0.09309 0.0
C3035 C 0.56554 0.99581 0.08805 0.0
C3036 C 0.53997 0.02549 0.09932 0.0
C3037 C 0.56412 0.08197 0.09789 0.0
H3038 H 0.52478 0.09211 0.14847 0.0
C3039 C 0.54741 0.17086 0.12726 0.0
C3040 C 0.52461 0.17601 0.12901 0.0
C3041 C 0.55455 0.14856 0.12728 0.0
C3042 C 0.5358 0.08955 0.13434 0.0
H3043 H 0.6001 0.00606 0.08442 0.0
H3044 H 0.59336 0.04471 0.09519 0.0
H3045 H 0.53225 0.05398 0.13606 0.0
H3046 H 0.49145 0.16254 0.13342 0.0
H3047 H 0.50376 0.12358 0.13349 0.0
H3048 H 0.56726 0.11745 0.09572 0.0
C3049 C 0.5793 0.03344 0.09439 0.0
C3050 C 0.53998 0.06773 0.12714 0.0
C3051 C 0.58315 0.01127 0.08821 0.0
C3052 C 0.5092 0.15883 0.13256 0.0
C3053 C 0.51629 0.13653 0.1325 0.0
C3054 C 0.55991 0.10376 0.10504 0.0
C3055 C 0.55776 0.04064 0.10054 0.0
C3056 C 0.55394 0.06374 0.10864 0.0
C3057 C 0.53891 0.13114 0.12873 0.0
C3058 C 0.54548 0.10784 0.12317 0.0
H3059 H 0.52981 0.99193 0.09305 0.0
H3060 H 0.5231 0.03069 0.10349 0.0
H3061 H 0.57478 0.07946 0.08347 0.0
H3062 H 0.55947 0.18395 0.12411 0.0
H3063 H 0.57214 0.14494 0.12475 0.0
C3064 C 0.2699 0.20618 0.16404 0.0
C3065 C 0.26058 0.18716 0.17423 0.0
C3066 C 0.2912 0.20535 0.15485 0.0
C3067 C 0.33443 0.16561 0.13456 0.0
H3068 H 0.37053 0.21916 0.13537 0.0
C3069 C 0.42948 0.17715 0.12952 0.0
C3070 C 0.43658 0.19747 0.12002 0.0
C3071 C 0.40719 0.17076 0.12769 0.0
C3072 C 0.36041 0.20422 0.13452 0.0
H3073 H 0.26693 0.1527 0.18402 0.0
H3074 H 0.30497 0.15163 0.16897 0.0
H3075 H 0.33465 0.21921 0.15387 0.0
H3076 H 0.42737 0.22465 0.09757 0.0
H3077 H 0.3884 0.21355 0.09459 0.0
H3078 H 0.36162 0.15028 0.11659 0.0
C3079 C 0.2953 0.16693 0.16733 0.0
C3080 C 0.33983 0.2042 0.14523 0.0
C3081 C 0.27367 0.16765 0.17629 0.0
C3082 C 0.42226 0.20907 0.10533 0.0
C3083 C 0.39994 0.20273 0.10361 0.0
C3084 C 0.35545 0.16549 0.12421 0.0
C3085 C 0.3041 0.18566 0.15607 0.0
C3086 C 0.32646 0.18498 0.14531 0.0
C3087 C 0.39192 0.18471 0.11645 0.0
C3088 C 0.36849 0.1849 0.12402 0.0
H3089 H 0.26034 0.22154 0.16217 0.0
H3090 H 0.29715 0.22003 0.14604 0.0
H3091 H 0.32446 0.15058 0.13407 0.0
H3092 H 0.44041 0.16762 0.14052 0.0
H3093 H 0.40142 0.15668 0.13759 0.0
C3094 C 0.43876 0.48833 0.06779 0.0
C3095 C 0.42336 0.49988 0.08118 0.0
C3096 C 0.44072 0.46508 0.06929 0.0
C3097 C 0.41532 0.41396 0.09626 0.0
H3098 H 0.47569 0.39094 0.08933 0.0
C3099 C 0.45218 0.3335 0.13753 0.0
C3100 C 0.46327 0.31844 0.12328 0.0
C3101 C 0.44424 0.35403 0.1294 0.0
C3102 C 0.45869 0.39709 0.09103 0.0
H3103 H 0.39762 0.49637 0.10633 0.0
H3104 H 0.40182 0.45594 0.11007 0.0
H3105 H 0.46784 0.42997 0.08091 0.0
H3106 H 0.47408 0.31294 0.08915 0.0
H3107 H 0.46101 0.34936 0.07517 0.0
H3108 H 0.40689 0.38105 0.10809 0.0
C3109 C 0.41185 0.4645 0.09766 0.0
C3110 C 0.45406 0.41951 0.08606 0.0
C3111 C 0.40944 0.48775 0.09564 0.0
C3112 C 0.46566 0.32412 0.10056 0.0
C3113 C 0.45821 0.34495 0.09255 0.0
C3114 C 0.42013 0.39163 0.10177 0.0
C3115 C 0.42789 0.45283 0.08485 0.0
C3116 C 0.43232 0.42841 0.08873 0.0
C3117 C 0.44765 0.36015 0.10698 0.0
C3118 C 0.44189 0.38307 0.09931 0.0
H3119 H 0.44957 0.49738 0.05639 0.0
H3120 H 0.4527 0.45683 0.05853 0.0
H3121 H 0.39829 0.41987 0.09813 0.0
H3122 H 0.44995 0.32954 0.15509 0.0
H3123 H 0.43627 0.36555 0.14087 0.0
C3124 C 0.29946 0.7301 0.6978 0.0
C3125 C 0.3001 0.74061 0.67673 0.0
C3126 C 0.30261 0.70699 0.69977 0.0
C3127 C 0.33474 0.66341 0.67459 0.0
H3128 H 0.29926 0.62261 0.71034 0.0
C3129 C 0.36558 0.57327 0.69241 0.0
C3130 C 0.36108 0.56439 0.71372 0.0
C3131 C 0.35526 0.59317 0.68528 0.0
C3132 C 0.30954 0.6338 0.70052 0.0
H3133 H 0.30375 0.73516 0.64111 0.0
H3134 H 0.30989 0.69473 0.64466 0.0
H3135 H 0.28543 0.66044 0.70293 0.0
H3136 H 0.3423 0.56939 0.74432 0.0
H3137 H 0.32525 0.60441 0.73249 0.0
H3138 H 0.35958 0.63767 0.67332 0.0
C3139 C 0.3066 0.70439 0.65956 0.0
C3140 C 0.30146 0.65539 0.69612 0.0
C3141 C 0.30293 0.72745 0.65754 0.0
C3142 C 0.34598 0.57571 0.7277 0.0
C3143 C 0.33602 0.59577 0.72079 0.0
C3144 C 0.34306 0.642 0.67936 0.0
C3145 C 0.30695 0.69407 0.68073 0.0
C3146 C 0.31411 0.67045 0.68333 0.0
C3147 C 0.34054 0.60489 0.69949 0.0
C3148 C 0.33075 0.62698 0.6927 0.0
H3149 H 0.29738 0.73989 0.71284 0.0
H3150 H 0.30295 0.69943 0.71628 0.0
H3151 H 0.34495 0.67484 0.66492 0.0
H3152 H 0.37696 0.56478 0.68117 0.0
H3153 H 0.35887 0.59933 0.66861 0.0
C3154 C 0.00285 0.39934 0.54013 0.0
C3155 C 0.00701 0.41049 0.56033 0.0
C3156 C 0.9812 0.39282 0.53451 0.0
C3157 C 0.92614 0.38151 0.56054 0.0
H3158 H 0.90396 0.38661 0.4998 0.0
C3159 C 0.83371 0.38836 0.53719 0.0
C3160 C 0.82611 0.37844 0.51748 0.0
C3161 C 0.85611 0.38663 0.54334 0.0
C3162 C 0.91008 0.38461 0.51674 0.0
H3163 H 0.99142 0.42447 0.5899 0.0
H3164 H 0.95362 0.41365 0.57981 0.0
H3165 H 0.94246 0.39685 0.50798 0.0
H3166 H 0.83537 0.35811 0.48915 0.0
H3167 H 0.87504 0.35529 0.49974 0.0
H3168 H 0.89339 0.37018 0.5694 0.0
C3169 C 0.9672 0.40935 0.56862 0.0
C3170 C 0.93212 0.39058 0.52147 0.0
C3171 C 0.98886 0.41579 0.5743 0.0
C3172 C 0.84093 0.36562 0.50459 0.0
C3173 C 0.86355 0.3642 0.51054 0.0
C3174 C 0.90408 0.37569 0.55583 0.0
C3175 C 0.96317 0.39738 0.54889 0.0
C3176 C 0.94026 0.38957 0.54351 0.0
C3177 C 0.87144 0.37529 0.52962 0.0
C3178 C 0.89569 0.37762 0.53397 0.0
H3179 H 0.01643 0.39493 0.52898 0.0
H3180 H 0.97872 0.38355 0.51924 0.0
H3181 H 0.93203 0.37998 0.5776 0.0
H3182 H 0.82251 0.39851 0.54721 0.0
H3183 H 0.86169 0.39553 0.55799 0.0
C3184 C 0.68784 0.7744 0.66243 0.0
C3185 C 0.69016 0.7627 0.68279 0.0
C3186 C 0.68635 0.7977 0.66217 0.0
C3187 C 0.69647 0.8488 0.6933 0.0
H3188 H 0.63799 0.86798 0.67241 0.0
C3189 C 0.65436 0.92825 0.7254 0.0
C3190 C 0.63819 0.93943 0.71241 0.0
C3191 C 0.66463 0.90885 0.71762 0.0
C3192 C 0.65466 0.86323 0.67775 0.0
H3193 H 0.69441 0.76613 0.71859 0.0
H3194 H 0.6923 0.807 0.71804 0.0
H3195 H 0.6504 0.82982 0.66604 0.0
H3196 H 0.62102 0.93991 0.68052 0.0
H3197 H 0.6396 0.90639 0.66644 0.0
H3198 H 0.70086 0.88212 0.70503 0.0
C3199 C 0.69144 0.79808 0.70237 0.0
C3200 C 0.66169 0.84128 0.67418 0.0
C3201 C 0.69248 0.77475 0.7027 0.0
C3202 C 0.6332 0.93141 0.69101 0.0
C3203 C 0.64381 0.91216 0.68301 0.0
C3204 C 0.68965 0.87093 0.69646 0.0
C3205 C 0.68767 0.80965 0.68219 0.0
C3206 C 0.68231 0.83372 0.68256 0.0
C3207 C 0.65927 0.90033 0.69645 0.0
C3208 C 0.66828 0.8782 0.68949 0.0
H3209 H 0.68597 0.76556 0.64681 0.0
H3210 H 0.68343 0.80635 0.64645 0.0
H3211 H 0.71253 0.8433 0.69973 0.0
H3212 H 0.6585 0.93398 0.74203 0.0
H3213 H 0.67604 0.90006 0.7287 0.0
C3214 C 0.01648 0.06818 0.57076 0.0
C3215 C -0.00037 0.07134 0.55461 0.0
C3216 C 0.03894 0.07151 0.56534 0.0
C3217 C 0.07351 0.10232 0.52427 0.0
H3218 H 0.12214 0.07199 0.55509 0.0
C3219 C 0.17679 0.10101 0.52596 0.0
C3220 C 0.18058 0.12406 0.52333 0.0
C3221 C 0.1551 0.09285 0.52894 0.0
C3222 C 0.10883 0.08049 0.5461 0.0
H3223 H 0.99346 0.07885 0.51961 0.0
H3224 H 0.03274 0.08396 0.50996 0.0
H3225 H 0.08402 0.05889 0.56008 0.0
H3226 H 0.16445 0.15668 0.52278 0.0
H3227 H 0.12691 0.14261 0.5287 0.0
H3228 H 0.0983 0.12355 0.50983 0.0
C3229 C 0.0285 0.07962 0.52705 0.0
C3230 C 0.08687 0.07312 0.54918 0.0
C3231 C 0.00596 0.07648 0.53253 0.0
C3232 C 0.1622 0.1388 0.52449 0.0
C3233 C 0.14057 0.13068 0.52769 0.0
C3234 C 0.09546 0.10954 0.52103 0.0
C3235 C 0.04524 0.07785 0.54354 0.0
C3236 C 0.06885 0.08417 0.53859 0.0
C3237 C 0.13665 0.10757 0.52961 0.0
C3238 C 0.1134 0.099 0.5322 0.0
H3239 H 0.01229 0.06421 0.58795 0.0
H3240 H 0.05121 0.07019 0.57859 0.0
H3241 H 0.06015 0.11147 0.51601 0.0
H3242 H 0.19049 0.08915 0.52527 0.0
H3243 H 0.15279 0.07495 0.53019 0.0
C3244 C 0.33196 0.26064 0.79735 0.0
C3245 C 0.32523 0.25184 0.81814 0.0
C3246 C 0.33901 0.2827 0.79537 0.0
C3247 C 0.36103 0.32948 0.82898 0.0
H3248 H 0.35057 0.36265 0.77396 0.0
C3249 C 0.36899 0.42501 0.81554 0.0
C3250 C 0.37602 0.43258 0.79437 0.0
C3251 C 0.36814 0.40216 0.82036 0.0
C3252 C 0.35401 0.35344 0.78927 0.0
H3253 H 0.3195 0.25978 0.85298 0.0
H3254 H 0.33102 0.29887 0.84934 0.0
H3255 H 0.33459 0.32575 0.77861 0.0
H3256 H 0.3903 0.42246 0.7627 0.0
H3257 H 0.38864 0.38239 0.77108 0.0
H3258 H 0.37959 0.35803 0.83989 0.0
C3259 C 0.33145 0.28836 0.83468 0.0
C3260 C 0.34476 0.33226 0.792 0.0
C3261 C 0.32452 0.26607 0.83672 0.0
C3262 C 0.38479 0.41709 0.77913 0.0
C3263 C 0.38363 0.39416 0.78384 0.0
C3264 C 0.37002 0.35092 0.82635 0.0
C3265 C 0.33924 0.2968 0.81404 0.0
C3266 C 0.34822 0.3199 0.81182 0.0
C3267 C 0.37409 0.38653 0.804 0.0
C3268 C 0.36668 0.36303 0.80639 0.0
H3269 H 0.3327 0.25019 0.78265 0.0
H3270 H 0.34513 0.28836 0.77927 0.0
H3271 H 0.36435 0.32036 0.84434 0.0
H3272 H 0.36226 0.43667 0.82763 0.0
H3273 H 0.36078 0.39677 0.83604 0.0
C3274 C 0.51525 0.42895 0.41475 0.0
C3275 C 0.50059 0.43201 0.43289 0.0
C3276 C 0.53817 0.42563 0.41843 0.0
C3277 C 0.57496 0.40354 0.46267 0.0
H3278 H 0.623 0.42179 0.42314 0.0
C3279 C 0.6773 0.39776 0.45972 0.0
C3280 C 0.68009 0.37531 0.46647 0.0
C3281 C 0.65604 0.4063 0.45457 0.0
C3282 C 0.60978 0.4167 0.43442 0.0
H3283 H 0.49875 0.43607 0.46884 0.0
H3284 H 0.53865 0.43084 0.47516 0.0
H3285 H 0.58503 0.43602 0.41671 0.0
H3286 H 0.6627 0.34404 0.47216 0.0
H3287 H 0.62585 0.35883 0.46301 0.0
H3288 H 0.59951 0.38436 0.48046 0.0
C3289 C 0.53241 0.43028 0.45818 0.0
C3290 C 0.58801 0.42471 0.43063 0.0
C3291 C 0.50955 0.43344 0.45454 0.0
C3292 C 0.66122 0.36145 0.46724 0.0
C3293 C 0.64002 0.36997 0.46212 0.0
C3294 C 0.59661 0.39553 0.4664 0.0
C3295 C 0.54687 0.42543 0.44028 0.0
C3296 C 0.57032 0.41815 0.44469 0.0
C3297 C 0.6371 0.39258 0.45609 0.0
C3298 C 0.61425 0.40181 0.45222 0.0
H3299 H 0.50887 0.42773 0.39787 0.0
H3300 H 0.5488 0.42189 0.40426 0.0
H3301 H 0.56174 0.39782 0.47364 0.0
H3302 H 0.69146 0.40889 0.45881 0.0
H3303 H 0.65436 0.4238 0.45006 0.0
C3304 C 0.66328 0.23179 0.82582 0.0
C3305 C 0.66002 0.24539 0.80683 0.0
C3306 C 0.6553 0.20982 0.82625 0.0
C3307 C 0.63465 0.16535 0.78844 0.0
H3308 H 0.6112 0.13959 0.84329 0.0
C3309 C 0.60289 0.07761 0.78627 0.0
C3310 C 0.61741 0.06428 0.79923 0.0
C3311 C 0.60072 0.10041 0.79075 0.0
C3312 C 0.61742 0.14677 0.82782 0.0
H3313 H 0.64622 0.24635 0.7732 0.0
H3314 H 0.63179 0.20889 0.77428 0.0
H3315 H 0.62489 0.17811 0.84311 0.0
H3316 H 0.63779 0.06318 0.82918 0.0
H3317 H 0.63382 0.10286 0.83709 0.0
H3318 H 0.62728 0.13415 0.77318 0.0
C3319 C 0.64094 0.21472 0.78869 0.0
C3320 C 0.62557 0.16866 0.82776 0.0
C3321 C 0.64919 0.23638 0.78812 0.0
C3322 C 0.62681 0.07324 0.8187 0.0
C3323 C 0.62444 0.09594 0.82332 0.0
C3324 C 0.62616 0.14376 0.78843 0.0
C3325 C 0.64372 0.20115 0.80778 0.0
C3326 C 0.63456 0.1781 0.80809 0.0
C3327 C 0.61278 0.10997 0.8084 0.0
C3328 C 0.61773 0.13413 0.80814 0.0
H3329 H 0.67153 0.23824 0.84051 0.0
H3330 H 0.65813 0.1997 0.84108 0.0
H3331 H 0.64191 0.17174 0.77311 0.0
H3332 H 0.59525 0.07108 0.77127 0.0
H3333 H 0.59135 0.11092 0.7792 0.0
C3334 C 0.49394 0.09551 0.40865 0.0
C3335 C 0.50629 0.08447 0.42545 0.0
C3336 C 0.471 0.09958 0.4116 0.0
C3337 C 0.42228 0.08146 0.44468 0.0
H3338 H 0.40218 0.14329 0.44212 0.0
C3339 C 0.34857 0.10822 0.4962 0.0
C3340 C 0.33066 0.11818 0.48466 0.0
C3341 C 0.36965 0.10705 0.48643 0.0
C3342 C 0.40751 0.12595 0.44259 0.0
H3343 H 0.50448 0.06812 0.45781 0.0
H3344 H 0.4646 0.07457 0.46268 0.0
H3345 H 0.43924 0.13307 0.42735 0.0
H3346 H 0.32097 0.1366 0.45485 0.0
H3347 H 0.35831 0.13459 0.43756 0.0
H3348 H 0.39114 0.07433 0.46058 0.0
C3349 C 0.47243 0.08023 0.44733 0.0
C3350 C 0.42859 0.12007 0.43407 0.0
C3351 C 0.49526 0.07656 0.44459 0.0
C3352 C 0.33464 0.12896 0.46409 0.0
C3353 C 0.35589 0.12768 0.45418 0.0
C3354 C 0.4014 0.0873 0.45319 0.0
C3355 C 0.46014 0.0922 0.43114 0.0
C3356 C 0.43643 0.09787 0.43577 0.0
C3357 C 0.37321 0.11566 0.46483 0.0
C3358 C 0.39414 0.10969 0.45298 0.0
H3359 H 0.50222 0.10203 0.39388 0.0
H3360 H 0.46186 0.10881 0.39887 0.0
H3361 H 0.42774 0.06417 0.44586 0.0
H3362 H 0.34589 0.09993 0.51215 0.0
H3363 H 0.38287 0.09818 0.49524 0.0
C3364 C 0.69894 0.31899 0.72164 0.0
C3365 C 0.67816 0.31381 0.73128 0.0
C3366 C 0.70159 0.31925 0.69847 0.0
C3367 C 0.70595 0.31212 0.64884 0.0
H3368 H 0.65844 0.34241 0.61626 0.0
C3369 C 0.71744 0.3377 0.5567 0.0
C3370 C 0.71061 0.35964 0.55137 0.0
C3371 C 0.71082 0.32763 0.57677 0.0
C3372 C 0.67187 0.33392 0.62511 0.0
H3373 H 0.64423 0.30346 0.72411 0.0
H3374 H 0.64899 0.30361 0.68358 0.0
H3375 H 0.65288 0.33229 0.65535 0.0
H3376 H 0.69072 0.38788 0.56259 0.0
H3377 H 0.67965 0.37062 0.59773 0.0
H3378 H 0.72548 0.31507 0.61908 0.0
C3379 C 0.66309 0.30792 0.69399 0.0
C3380 C 0.66857 0.32782 0.64745 0.0
C3381 C 0.66041 0.30772 0.71723 0.0
C3382 C 0.69629 0.37095 0.56614 0.0
C3383 C 0.68979 0.36096 0.58627 0.0
C3384 C 0.7093 0.31835 0.62655 0.0
C3385 C 0.68358 0.31421 0.68434 0.0
C3386 C 0.68581 0.31742 0.65977 0.0
C3387 C 0.69731 0.33933 0.59204 0.0
C3388 C 0.69253 0.32989 0.6146 0.0
H3389 H 0.71301 0.32368 0.73194 0.0
H3390 H 0.71752 0.32446 0.69167 0.0
H3391 H 0.71944 0.30378 0.65773 0.0
H3392 H 0.72826 0.3284 0.5456 0.0
H3393 H 0.7166 0.31081 0.58049 0.0
C3394 C 0.67524 0.69193 0.77522 0.0
C3395 C 0.69384 0.69313 0.76093 0.0
C3396 C 0.67814 0.6895 0.79825 0.0
C3397 C 0.72117 0.6703 0.83892 0.0
H3398 H 0.67624 0.68829 0.88215 0.0
C3399 C 0.73175 0.65813 0.93371 0.0
C3400 C 0.71642 0.64271 0.94265 0.0
C3401 C 0.72829 0.66759 0.91263 0.0
C3402 C 0.68887 0.68325 0.87017 0.0
H3403 H 0.72996 0.69441 0.75953 0.0
H3404 H 0.73512 0.69154 0.79989 0.0
H3405 H 0.67275 0.70055 0.84319 0.0
H3406 H 0.68485 0.62608 0.93702 0.0
H3407 H 0.67855 0.64323 0.90009 0.0
H3408 H 0.73752 0.65357 0.86622 0.0
C3409 C 0.71827 0.6914 0.79332 0.0
C3410 C 0.68687 0.69011 0.84785 0.0
C3411 C 0.71536 0.69327 0.77019 0.0
C3412 C 0.69696 0.63783 0.93051 0.0
C3413 C 0.69331 0.64768 0.90951 0.0
C3414 C 0.7234 0.66392 0.86128 0.0
C3415 C 0.69971 0.68872 0.80761 0.0
C3416 C 0.70282 0.68341 0.83182 0.0
C3417 C 0.70924 0.66218 0.90026 0.0
C3418 C 0.70712 0.67007 0.87697 0.0
H3419 H 0.65843 0.69159 0.76852 0.0
H3420 H 0.66342 0.68715 0.8085 0.0
H3421 H 0.73353 0.66427 0.82715 0.0
H3422 H 0.74696 0.66219 0.94255 0.0
H3423 H 0.74076 0.67875 0.90573 0.0
C3424 C 0.91513 0.07823 0.48633 0.0
C3425 C 0.90627 0.06558 0.50407 0.0
C3426 C 0.90799 0.07462 0.4644 0.0
C3427 C 0.88045 0.03229 0.42915 0.0
H3428 H 0.8775 0.08154 0.38667 0.0
C3429 C 0.86295 0.018 0.3356 0.0
C3430 C 0.8811 0.02566 0.32287 0.0
C3431 C 0.86019 0.02527 0.35766 0.0
C3432 C 0.87799 0.06769 0.39844 0.0
H3433 H 0.88275 0.03938 0.51272 0.0
H3434 H 0.87002 0.03349 0.47472 0.0
H3435 H 0.88486 0.08909 0.42603 0.0
H3436 H 0.9095 0.0479 0.32218 0.0
H3437 H 0.90441 0.06094 0.36029 0.0
H3438 H 0.87399 0.0109 0.40139 0.0
C3439 C 0.88282 0.04585 0.47758 0.0
C3440 C 0.88245 0.07195 0.42092 0.0
C3441 C 0.89013 0.04928 0.49942 0.0
C3442 C 0.89545 0.04172 0.3318 0.0
C3443 C 0.89243 0.0493 0.35352 0.0
C3444 C 0.87575 0.02807 0.40672 0.0
C3445 C 0.89167 0.05844 0.45978 0.0
C3446 C 0.88444 0.05423 0.43642 0.0
C3447 C 0.87523 0.04064 0.36691 0.0
C3448 C 0.87516 0.04566 0.39106 0.0
H3449 H 0.92762 0.09087 0.48936 0.0
H3450 H 0.91552 0.08431 0.45106 0.0
H3451 H 0.88206 0.0182 0.44052 0.0
H3452 H 0.85178 0.00552 0.32898 0.0
H3453 H 0.8468 0.01837 0.36771 0.0
C3454 C 0.29149 0.82617 0.75945 0.0
C3455 C 0.31077 0.81868 0.74819 0.0
C3456 C 0.29287 0.8345 0.7811 0.0
C3457 C 0.32568 0.83542 0.83233 0.0
H3458 H 0.29559 0.89234 0.84148 0.0
C3459 C 0.32096 0.87087 0.92013 0.0
C3460 C 0.2993 0.87736 0.92661 0.0
C3461 C 0.32645 0.86898 0.89752 0.0
C3462 C 0.30402 0.87642 0.83929 0.0
H3463 H 0.34641 0.81264 0.75156 0.0
H3464 H 0.34866 0.8267 0.78992 0.0
H3465 H 0.29641 0.87586 0.8043 0.0
H3466 H 0.26727 0.8895 0.91464 0.0
H3467 H 0.27656 0.88583 0.87526 0.0
H3468 H 0.33235 0.83523 0.86737 0.0
C3469 C 0.33256 0.82637 0.78166 0.0
C3470 C 0.30449 0.86699 0.81798 0.0
C3471 C 0.33123 0.81817 0.75978 0.0
C3472 C 0.28413 0.88457 0.91013 0.0
C3473 C 0.2895 0.88233 0.88747 0.0
C3474 C 0.32499 0.8447 0.85371 0.0
C3475 C 0.3135 0.83535 0.79218 0.0
C3476 C 0.31492 0.84617 0.81438 0.0
C3477 C 0.31027 0.87319 0.88093 0.0
C3478 C 0.31377 0.86514 0.8576 0.0
H3479 H 0.27541 0.82661 0.75113 0.0
H3480 H 0.27781 0.84077 0.78902 0.0
H3481 H 0.33375 0.81932 0.83005 0.0
H3482 H 0.33303 0.86537 0.93255 0.0
H3483 H 0.34289 0.86271 0.89312 0.0
C3484 C 0.59057 0.91432 0.99663 0.0
C3485 C 0.59654 0.9298 0.0131 0.0
C3486 C 0.59597 0.91825 0.97411 0.0
C3487 C 0.61259 0.96428 0.93519 0.0
H3488 H 0.62751 0.91544 0.89552 0.0
C3489 C 0.63462 0.98086 0.84292 0.0
C3490 C 0.62051 0.96915 0.82849 0.0
C3491 C 0.63637 0.97435 0.86545 0.0
C3492 C 0.62351 0.92925 0.90647 0.0
H3493 H 0.61335 0.96135 0.01876 0.0
H3494 H 0.62321 0.96776 0.98005 0.0
H3495 H 0.6201 0.90769 0.93501 0.0
H3496 H 0.59855 0.94073 0.8255 0.0
H3497 H 0.60211 0.92898 0.86445 0.0
H3498 H 0.61592 0.98578 0.90662 0.0
C3499 C 0.61379 0.95291 0.98421 0.0
C3500 C 0.61903 0.9248 0.92905 0.0
C3501 C 0.60818 0.94914 0.00655 0.0
C3502 C 0.60965 0.9499 0.83635 0.0
C3503 C 0.61171 0.94318 0.85864 0.0
C3504 C 0.61731 0.96872 0.91272 0.0
C3505 C 0.60767 0.93763 0.96761 0.0
C3506 C 0.61322 0.94224 0.94367 0.0
C3507 C 0.62434 0.95584 0.87365 0.0
C3508 C 0.62252 0.95124 0.89803 0.0
H3509 H 0.5816 0.89926 0.00111 0.0
H3510 H 0.59068 0.90623 0.96179 0.0
H3511 H 0.60777 0.97813 0.94573 0.0
H3512 H 0.64292 0.99591 0.83723 0.0
H3513 H 0.64633 0.98433 0.87666 0.0
C3514 C 0.79993 0.66458 0.23895 0.0
C3515 C 0.82015 0.6705 0.24927 0.0
C3516 C 0.79982 0.65559 0.21752 0.0
C3517 C 0.83065 0.65088 0.16528 0.0
H3518 H 0.79441 0.59794 0.15733 0.0
C3519 C 0.81823 0.61769 0.07775 0.0
C3520 C 0.79567 0.61444 0.07229 0.0
C3521 C 0.82501 0.61805 0.10008 0.0
C3522 C 0.80458 0.61271 0.15921 0.0
H3523 H 0.85601 0.67283 0.24454 0.0
H3524 H 0.85569 0.6576 0.20658 0.0
H3525 H 0.79844 0.61405 0.19447 0.0
H3526 H 0.76301 0.60642 0.08551 0.0
H3527 H 0.77456 0.60752 0.12449 0.0
H3528 H 0.8359 0.65044 0.13002 0.0
C3529 C 0.83999 0.65971 0.21538 0.0
C3530 C 0.80688 0.62194 0.18049 0.0
C3531 C 0.84015 0.66859 0.23702 0.0
C3532 C 0.78055 0.60879 0.0893 0.0
C3533 C 0.78723 0.60956 0.11171 0.0
C3534 C 0.82816 0.64181 0.14396 0.0
C3535 C 0.81987 0.65247 0.20575 0.0
C3536 C 0.8195 0.64142 0.18363 0.0
C3537 C 0.80924 0.61564 0.11736 0.0
C3538 C 0.81468 0.62288 0.14054 0.0
H3539 H 0.78419 0.66601 0.2478 0.0
H3540 H 0.784 0.65072 0.21029 0.0
H3541 H 0.84038 0.66595 0.1672 0.0
H3542 H 0.83023 0.62198 0.06485 0.0
H3543 H 0.84226 0.62196 0.10377 0.0
C3544 C 0.91301 0.9609 0.00373 0.0
C3545 C 0.92578 0.94208 0.99766 0.0
C3546 C 0.90994 0.9663 0.02616 0.0
C3547 C 0.91111 0.9404 0.08245 0.0
H3548 H 0.90155 0.00176 0.10088 0.0
C3549 C 0.89168 0.96773 0.17378 0.0
C3550 C 0.87285 0.9818 0.17583 0.0
C3551 C 0.90032 0.96258 0.15269 0.0
C3552 C 0.90417 0.98455 0.09593 0.0
H3553 H 0.94634 0.91485 0.01047 0.0
H3554 H 0.94148 0.92467 0.04974 0.0
H3555 H 0.91467 0.9941 0.0631 0.0
H3556 H 0.8483 0.00144 0.15739 0.0
H3557 H 0.86364 0.99269 0.12063 0.0
H3558 H 0.90076 0.93104 0.11556 0.0
C3559 C 0.93334 0.9349 0.0371 0.0
C3560 C 0.91161 0.98012 0.07428 0.0
C3561 C 0.93627 0.92937 0.01458 0.0
C3562 C 0.86275 0.99047 0.15638 0.0
C3563 C 0.87162 0.98562 0.13535 0.0
C3564 C 0.90399 0.94488 0.10425 0.0
C3565 C 0.91976 0.95319 0.04318 0.0
C3566 C 0.91463 0.95796 0.06705 0.0
C3567 C 0.89053 0.97173 0.13333 0.0
C3568 C 0.89995 0.96697 0.11098 0.0
H3569 H 0.90465 0.9711 0.99119 0.0
H3570 H 0.89907 0.98028 0.03011 0.0
H3571 H 0.91297 0.92313 0.07745 0.0
H3572 H 0.89979 0.96076 0.18847 0.0
H3573 H 0.91493 0.95184 0.15154 0.0
C3574 C 0.08145 0.59142 0.01572 0.0
C3575 C 0.07944 0.57309 0.00128 0.0
C3576 C 0.08347 0.58808 0.03885 0.0
C3577 C 0.07594 0.54644 0.0846 0.0
H3578 H 0.12575 0.57692 0.1121 0.0
C3579 C 0.10073 0.53323 0.17788 0.0
C3580 C 0.12361 0.52887 0.18141 0.0
C3581 C 0.09306 0.54085 0.157 0.0
C3582 C 0.11173 0.56834 0.10469 0.0
H3583 H 0.07665 0.53697 2e-05 0.0
H3584 H 0.08003 0.53121 0.04024 0.0
H3585 H 0.11536 0.58595 0.07362 0.0
H3586 H 0.1564 0.52977 0.16586 0.0
H3587 H 0.14307 0.54316 0.12973 0.0
H3588 H 0.07278 0.52836 0.11554 0.0
C3589 C 0.08009 0.54816 0.03372 0.0
C3590 C 0.10563 0.57367 0.08271 0.0
C3591 C 0.07829 0.55147 0.01062 0.0
C3592 C 0.13866 0.53285 0.16376 0.0
C3593 C 0.13104 0.5407 0.14305 0.0
C3594 C 0.08192 0.54125 0.10669 0.0
C3595 C 0.08324 0.56637 0.04807 0.0
C3596 C 0.08795 0.56247 0.07224 0.0
C3597 C 0.10814 0.5446 0.13934 0.0
C3598 C 0.1002 0.55181 0.11681 0.0
H3599 H 0.08237 0.60831 0.00912 0.0
H3600 H 0.08563 0.60248 0.04949 0.0
H3601 H 0.06212 0.53765 0.07707 0.0
H3602 H 0.08868 0.53042 0.19109 0.0
H3603 H 0.07533 0.54385 0.15468 0.0
loop_
_geom_bond_atom_site_label_1
_geom_bond_atom_site_label_2
_geom_bond_distance
_geom_bond_site_symmetry_2
_ccdc_geom_bond_type
Fe0 O2 1.918 . S
Fe0 O5 1.997 . S
Fe0 O6 2.002 . S
Fe0 O11 1.976 . S
Fe0 O14 1.996 . S
Fe1 O2 1.918 . S
Fe1 O9 1.997 . S
Fe1 O12 1.996 . S
Fe1 O16 1.976 . S
Fe1 O19 2.002 . S
O2 Fe0 1.918 . S
O2 Fe1 1.918 . S
O2 Fe3 1.918 . S
Fe3 O2 1.918 . S
Fe3 O4 2.002 . S
Fe3 O13 1.976 . S
Fe3 O17 1.996 . S
Fe3 O20 1.997 . S
O4 Fe3 2.002 . S
O4 C21 1.295 . S
O5 Fe0 1.997 . S
O5 C21 1.235 . S
O6 Fe0 2.002 . S
O6 C7 1.295 . S
C7 O6 1.295 . S
C7 O9 1.235 . S
C8 O13 1.287 . S
C8 O14 1.255 . S
O9 Fe1 1.997 . S
O9 C7 1.235 . S
C10 O16 1.287 . S
C10 O17 1.255 . S
O11 Fe0 1.976 . S
O11 C18 1.287 . S
O12 Fe1 1.996 . S
O12 C18 1.255 . S
O13 Fe3 1.976 . S
O13 C8 1.287 . S
O14 Fe0 1.996 . S
O14 C8 1.255 . S
C15 O19 1.295 . S
C15 O20 1.235 . S
O16 Fe1 1.976 . S
O16 C10 1.287 . S
O17 Fe3 1.996 . S
O17 C10 1.255 . S
C18 O11 1.287 . S
C18 O12 1.255 . S
O19 Fe1 2.002 . S
O19 C15 1.295 . S
O20 Fe3 1.997 . S
O20 C15 1.235 . S
C21 O4 1.295 . S
C21 O5 1.235 . S
Fe22 O24 1.918 . S
Fe22 O27 1.997 . S
Fe22 O28 2.002 . S
Fe22 O33 1.976 . S
Fe22 O36 1.996 . S
Fe23 O24 1.918 . S
Fe23 O31 1.997 . S
Fe23 O34 1.996 . S
Fe23 O38 1.976 . S
Fe23 O41 2.002 . S
O24 Fe22 1.918 . S
O24 Fe23 1.918 . S
O24 Fe25 1.918 . S
Fe25 O24 1.918 . S
Fe25 O26 2.002 . S
Fe25 O35 1.976 . S
Fe25 O39 1.996 . S
Fe25 O42 1.997 . S
O26 Fe25 2.002 . S
O26 C43 1.295 . S
O27 Fe22 1.997 . S
O27 C43 1.235 . S
O28 Fe22 2.002 . S
O28 C29 1.295 . S
C29 O28 1.295 . S
C29 O31 1.235 . S
C30 O35 1.287 . S
C30 O36 1.255 . S
O31 Fe23 1.997 . S
O31 C29 1.235 . S
C32 O38 1.287 . S
C32 O39 1.255 . S
O33 Fe22 1.976 . S
O33 C40 1.287 . S
O34 Fe23 1.996 . S
O34 C40 1.255 . S
O35 Fe25 1.976 . S
O35 C30 1.287 . S
O36 Fe22 1.996 . S
O36 C30 1.255 . S
C37 O41 1.295 . S
C37 O42 1.235 . S
O38 Fe23 1.976 . S
O38 C32 1.287 . S
O39 Fe25 1.996 . S
O39 C32 1.255 . S
C40 O33 1.287 . S
C40 O34 1.255 . S
O41 Fe23 2.002 . S
O41 C37 1.295 . S
O42 Fe25 1.997 . S
O42 C37 1.235 . S
C43 O26 1.295 . S
C43 O27 1.235 . S
Fe44 O46 1.918 . S
Fe44 O49 1.997 . S
Fe44 O50 2.002 . S
Fe44 O55 1.976 . S
Fe44 O58 1.996 . S
Fe45 O46 1.918 . S
Fe45 O53 1.997 . S
Fe45 O56 1.996 . S
Fe45 O60 1.976 . S
Fe45 O63 2.002 . S
O46 Fe44 1.918 . S
O46 Fe45 1.918 . S
O46 Fe47 1.918 . S
Fe47 O46 1.918 . S
Fe47 O48 2.002 . S
Fe47 O57 1.976 . S
Fe47 O61 1.996 . S
Fe47 O64 1.997 . S
O48 Fe47 2.002 . S
O48 C65 1.295 . S
O49 Fe44 1.997 . S
O49 C65 1.235 . S
O50 Fe44 2.002 . S
O50 C51 1.295 . S
C51 O50 1.295 . S
C51 O53 1.235 . S
C52 O57 1.287 . S
C52 O58 1.255 . S
O53 Fe45 1.997 . S
O53 C51 1.235 . S
C54 O60 1.287 . S
C54 O61 1.255 . S
O55 Fe44 1.976 . S
O55 C62 1.287 . S
O56 Fe45 1.996 . S
O56 C62 1.255 . S
O57 Fe47 1.976 . S
O57 C52 1.287 . S
O58 Fe44 1.996 . S
O58 C52 1.255 . S
C59 O63 1.295 . S
C59 O64 1.235 . S
O60 Fe45 1.976 . S
O60 C54 1.287 . S
O61 Fe47 1.996 . S
O61 C54 1.255 . S
C62 O55 1.287 . S
C62 O56 1.255 . S
O63 Fe45 2.002 . S
O63 C59 1.295 . S
O64 Fe47 1.997 . S
O64 C59 1.235 . S
C65 O48 1.295 . S
C65 O49 1.235 . S
Fe66 O68 1.918 . S
Fe66 O71 1.997 . S
Fe66 O72 2.002 . S
Fe66 O77 1.976 . S
Fe66 O80 1.996 . S
Fe67 O68 1.918 . S
Fe67 O75 1.997 . S
Fe67 O78 1.996 . S
Fe67 O82 1.976 . S
Fe67 O85 2.002 . S
O68 Fe66 1.918 . S
O68 Fe67 1.918 . S
O68 Fe69 1.918 . S
Fe69 O68 1.918 . S
Fe69 O70 2.002 . S
Fe69 O79 1.976 . S
Fe69 O83 1.996 . S
Fe69 O86 1.997 . S
O70 Fe69 2.002 . S
O70 C87 1.295 . S
O71 Fe66 1.997 . S
O71 C87 1.235 . S
O72 Fe66 2.002 . S
O72 C73 1.295 . S
C73 O72 1.295 . S
C73 O75 1.235 . S
C74 O79 1.287 . S
C74 O80 1.255 . S
O75 Fe67 1.997 . S
O75 C73 1.235 . S
C76 O82 1.287 . S
C76 O83 1.255 . S
O77 Fe66 1.976 . S
O77 C84 1.287 . S
O78 Fe67 1.996 . S
O78 C84 1.255 . S
O79 Fe69 1.976 . S
O79 C74 1.287 . S
O80 Fe66 1.996 . S
O80 C74 1.255 . S
C81 O85 1.295 . S
C81 O86 1.235 . S
O82 Fe67 1.976 . S
O82 C76 1.287 . S
O83 Fe69 1.996 . S
O83 C76 1.255 . S
C84 O77 1.287 . S
C84 O78 1.255 . S
O85 Fe67 2.002 . S
O85 C81 1.295 . S
O86 Fe69 1.997 . S
O86 C81 1.235 . S
C87 O70 1.295 . S
C87 O71 1.235 . S
Fe88 O90 1.918 . S
Fe88 O93 1.997 . S
Fe88 O94 2.002 . S
Fe88 O99 1.976 . S
Fe88 O102 1.996 . S
Fe89 O90 1.918 . S
Fe89 O97 1.997 . S
Fe89 O100 1.996 . S
Fe89 O104 1.976 . S
Fe89 O107 2.002 . S
O90 Fe88 1.918 . S
O90 Fe89 1.918 . S
O90 Fe91 1.918 . S
Fe91 O90 1.918 . S
Fe91 O92 2.002 . S
Fe91 O101 1.976 . S
Fe91 O105 1.996 . S
Fe91 O108 1.997 . S
O92 Fe91 2.002 . S
O92 C109 1.295 . S
O93 Fe88 1.997 . S
O93 C109 1.235 . S
O94 Fe88 2.002 . S
O94 C95 1.295 . S
C95 O94 1.295 . S
C95 O97 1.235 . S
C96 O101 1.287 . S
C96 O102 1.255 . S
O97 Fe89 1.997 . S
O97 C95 1.235 . S
C98 O104 1.287 . S
C98 O105 1.255 . S
O99 Fe88 1.976 . S
O99 C106 1.287 . S
O100 Fe89 1.996 . S
O100 C106 1.255 . S
O101 Fe91 1.976 . S
O101 C96 1.287 . S
O102 Fe88 1.996 . S
O102 C96 1.255 . S
C103 O107 1.295 . S
C103 O108 1.235 . S
O104 Fe89 1.976 . S
O104 C98 1.287 . S
O105 Fe91 1.996 . S
O105 C98 1.255 . S
C106 O99 1.287 . S
C106 O100 1.255 . S
O107 Fe89 2.002 . S
O107 C103 1.295 . S
O108 Fe91 1.997 . S
O108 C103 1.235 . S
C109 O92 1.295 . S
C109 O93 1.235 . S
Fe110 O112 1.918 . S
Fe110 O115 1.997 . S
Fe110 O116 2.002 . S
Fe110 O121 1.976 . S
Fe110 O124 1.996 . S
Fe111 O112 1.918 . S
Fe111 O119 1.997 . S
Fe111 O122 1.996 . S
Fe111 O126 1.976 . S
Fe111 O129 2.002 . S
O112 Fe110 1.918 . S
O112 Fe111 1.918 . S
O112 Fe113 1.918 . S
Fe113 O112 1.918 . S
Fe113 O114 2.002 . S
Fe113 O123 1.976 . S
Fe113 O127 1.996 . S
Fe113 O130 1.997 . S
O114 Fe113 2.002 . S
O114 C131 1.295 . S
O115 Fe110 1.997 . S
O115 C131 1.235 . S
O116 Fe110 2.002 . S
O116 C117 1.295 . S
C117 O116 1.295 . S
C117 O119 1.235 . S
C118 O123 1.287 . S
C118 O124 1.255 . S
O119 Fe111 1.997 . S
O119 C117 1.235 . S
C120 O126 1.287 . S
C120 O127 1.255 . S
O121 Fe110 1.976 . S
O121 C128 1.287 . S
O122 Fe111 1.996 . S
O122 C128 1.255 . S
O123 Fe113 1.976 . S
O123 C118 1.287 . S
O124 Fe110 1.996 . S
O124 C118 1.255 . S
C125 O129 1.295 . S
C125 O130 1.235 . S
O126 Fe111 1.976 . S
O126 C120 1.287 . S
O127 Fe113 1.996 . S
O127 C120 1.255 . S
C128 O121 1.287 . S
C128 O122 1.255 . S
O129 Fe111 2.002 . S
O129 C125 1.295 . S
O130 Fe113 1.997 . S
O130 C125 1.235 . S
C131 O114 1.295 . S
C131 O115 1.235 . S
Fe132 O134 1.918 . S
Fe132 O137 1.997 . S
Fe132 O138 2.002 . S
Fe132 O143 1.976 . S
Fe132 O146 1.996 . S
Fe133 O134 1.918 . S
Fe133 O141 1.997 . S
Fe133 O144 1.996 . S
Fe133 O148 1.976 . S
Fe133 O151 2.002 . S
O134 Fe132 1.918 . S
O134 Fe133 1.918 . S
O134 Fe135 1.918 . S
Fe135 O134 1.918 . S
Fe135 O136 2.002 . S
Fe135 O145 1.976 . S
Fe135 O149 1.996 . S
Fe135 O152 1.997 . S
O136 Fe135 2.002 . S
O136 C153 1.295 . S
O137 Fe132 1.997 . S
O137 C153 1.235 . S
O138 Fe132 2.002 . S
O138 C139 1.295 . S
C139 O138 1.295 . S
C139 O141 1.235 . S
C140 O145 1.287 . S
C140 O146 1.255 . S
O141 Fe133 1.997 . S
O141 C139 1.235 . S
C142 O148 1.287 . S
C142 O149 1.255 . S
O143 Fe132 1.976 . S
O143 C150 1.287 . S
O144 Fe133 1.996 . S
O144 C150 1.255 . S
O145 Fe135 1.976 . S
O145 C140 1.287 . S
O146 Fe132 1.996 . S
O146 C140 1.255 . S
C147 O151 1.295 . S
C147 O152 1.235 . S
O148 Fe133 1.976 . S
O148 C142 1.287 . S
O149 Fe135 1.996 . S
O149 C142 1.255 . S
C150 O143 1.287 . S
C150 O144 1.255 . S
O151 Fe133 2.002 . S
O151 C147 1.295 . S
O152 Fe135 1.997 . S
O152 C147 1.235 . S
C153 O136 1.295 . S
C153 O137 1.235 . S
Fe154 O156 1.918 . S
Fe154 O159 1.997 . S
Fe154 O160 2.002 . S
Fe154 O165 1.976 . S
Fe154 O168 1.996 . S
Fe155 O156 1.918 . S
Fe155 O163 1.997 . S
Fe155 O166 1.996 . S
Fe155 O170 1.976 . S
Fe155 O173 2.002 . S
O156 Fe154 1.918 . S
O156 Fe155 1.918 . S
O156 Fe157 1.918 . S
Fe157 O156 1.918 . S
Fe157 O158 2.002 . S
Fe157 O167 1.976 . S
Fe157 O171 1.996 . S
Fe157 O174 1.997 . S
O158 Fe157 2.002 . S
O158 C175 1.295 . S
O159 Fe154 1.997 . S
O159 C175 1.235 . S
O160 Fe154 2.002 . S
O160 C161 1.295 . S
C161 O160 1.295 . S
C161 O163 1.235 . S
C162 O167 1.287 . S
C162 O168 1.255 . S
O163 Fe155 1.997 . S
O163 C161 1.235 . S
C164 O170 1.287 . S
C164 O171 1.255 . S
O165 Fe154 1.976 . S
O165 C172 1.287 . S
O166 Fe155 1.996 . S
O166 C172 1.255 . S
O167 Fe157 1.976 . S
O167 C162 1.287 . S
O168 Fe154 1.996 . S
O168 C162 1.255 . S
C169 O173 1.295 . S
C169 O174 1.235 . S
O170 Fe155 1.976 . S
O170 C164 1.287 . S
O171 Fe157 1.996 . S
O171 C164 1.255 . S
C172 O165 1.287 . S
C172 O166 1.255 . S
O173 Fe155 2.002 . S
O173 C169 1.295 . S
O174 Fe157 1.997 . S
O174 C169 1.235 . S
C175 O158 1.295 . S
C175 O159 1.235 . S
Fe176 O178 1.918 . S
Fe176 O181 1.997 . S
Fe176 O182 2.002 . S
Fe176 O187 1.976 . S
Fe176 O190 1.996 . S
Fe177 O178 1.918 . S
Fe177 O185 1.997 . S
Fe177 O188 1.996 . S
Fe177 O192 1.976 . S
Fe177 O195 2.002 . S
O178 Fe176 1.918 . S
O178 Fe177 1.918 . S
O178 Fe179 1.918 . S
Fe179 O178 1.918 . S
Fe179 O180 2.002 . S
Fe179 O189 1.976 . S
Fe179 O193 1.996 . S
Fe179 O196 1.997 . S
O180 Fe179 2.002 . S
O180 C197 1.295 . S
O181 Fe176 1.997 . S
O181 C197 1.235 . S
O182 Fe176 2.002 . S
O182 C183 1.295 . S
C183 O182 1.295 . S
C183 O185 1.235 . S
C184 O189 1.287 . S
C184 O190 1.255 . S
O185 Fe177 1.997 . S
O185 C183 1.235 . S
C186 O192 1.287 . S
C186 O193 1.255 . S
O187 Fe176 1.976 . S
O187 C194 1.287 . S
O188 Fe177 1.996 . S
O188 C194 1.255 . S
O189 Fe179 1.976 . S
O189 C184 1.287 . S
O190 Fe176 1.996 . S
O190 C184 1.255 . S
C191 O195 1.295 . S
C191 O196 1.235 . S
O192 Fe177 1.976 . S
O192 C186 1.287 . S
O193 Fe179 1.996 . S
O193 C186 1.255 . S
C194 O187 1.287 . S
C194 O188 1.255 . S
O195 Fe177 2.002 . S
O195 C191 1.295 . S
O196 Fe179 1.997 . S
O196 C191 1.235 . S
C197 O180 1.295 . S
C197 O181 1.235 . S
Fe198 O200 1.918 . S
Fe198 O203 1.997 . S
Fe198 O204 2.002 . S
Fe198 O209 1.976 . S
Fe198 O212 1.996 . S
Fe199 O200 1.918 . S
Fe199 O207 1.997 . S
Fe199 O210 1.996 . S
Fe199 O214 1.976 . S
Fe199 O217 2.002 . S
O200 Fe198 1.918 . S
O200 Fe199 1.918 . S
O200 Fe201 1.918 . S
Fe201 O200 1.918 . S
Fe201 O202 2.002 . S
Fe201 O211 1.976 . S
Fe201 O215 1.996 . S
Fe201 O218 1.997 . S
O202 Fe201 2.002 . S
O202 C219 1.295 . S
O203 Fe198 1.997 . S
O203 C219 1.235 . S
O204 Fe198 2.002 . S
O204 C205 1.295 . S
C205 O204 1.295 . S
C205 O207 1.235 . S
C206 O211 1.287 . S
C206 O212 1.255 . S
O207 Fe199 1.997 . S
O207 C205 1.235 . S
C208 O214 1.287 . S
C208 O215 1.255 . S
O209 Fe198 1.976 . S
O209 C216 1.287 . S
O210 Fe199 1.996 . S
O210 C216 1.255 . S
O211 Fe201 1.976 . S
O211 C206 1.287 . S
O212 Fe198 1.996 . S
O212 C206 1.255 . S
C213 O217 1.295 . S
C213 O218 1.235 . S
O214 Fe199 1.976 . S
O214 C208 1.287 . S
O215 Fe201 1.996 . S
O215 C208 1.255 . S
C216 O209 1.287 . S
C216 O210 1.255 . S
O217 Fe199 2.002 . S
O217 C213 1.295 . S
O218 Fe201 1.997 . S
O218 C213 1.235 . S
C219 O202 1.295 . S
C219 O203 1.235 . S
Fe220 O222 1.918 . S
Fe220 O225 1.997 . S
Fe220 O226 2.002 . S
Fe220 O231 1.976 . S
Fe220 O234 1.996 . S
Fe221 O222 1.918 . S
Fe221 O229 1.997 . S
Fe221 O232 1.996 . S
Fe221 O236 1.976 . S
Fe221 O239 2.002 . S
O222 Fe220 1.918 . S
O222 Fe221 1.918 . S
O222 Fe223 1.918 . S
Fe223 O222 1.918 . S
Fe223 O224 2.002 . S
Fe223 O233 1.976 . S
Fe223 O237 1.996 . S
Fe223 O240 1.997 . S
O224 Fe223 2.002 . S
O224 C241 1.295 . S
O225 Fe220 1.997 . S
O225 C241 1.235 . S
O226 Fe220 2.002 . S
O226 C227 1.295 . S
C227 O226 1.295 . S
C227 O229 1.235 . S
C228 O233 1.287 . S
C228 O234 1.255 . S
O229 Fe221 1.997 . S
O229 C227 1.235 . S
C230 O236 1.287 . S
C230 O237 1.255 . S
O231 Fe220 1.976 . S
O231 C238 1.287 . S
O232 Fe221 1.996 . S
O232 C238 1.255 . S
O233 Fe223 1.976 . S
O233 C228 1.287 . S
O234 Fe220 1.996 . S
O234 C228 1.255 . S
C235 O239 1.295 . S
C235 O240 1.235 . S
O236 Fe221 1.976 . S
O236 C230 1.287 . S
O237 Fe223 1.996 . S
O237 C230 1.255 . S
C238 O231 1.287 . S
C238 O232 1.255 . S
O239 Fe221 2.002 . S
O239 C235 1.295 . S
O240 Fe223 1.997 . S
O240 C235 1.235 . S
C241 O224 1.295 . S
C241 O225 1.235 . S
Fe242 O244 1.918 . S
Fe242 O247 1.997 . S
Fe242 O248 2.002 . S
Fe242 O253 1.976 . S
Fe242 O256 1.996 . S
Fe243 O244 1.918 . S
Fe243 O251 1.997 . S
Fe243 O254 1.996 . S
Fe243 O258 1.976 . S
Fe243 O261 2.002 . S
O244 Fe242 1.918 . S
O244 Fe243 1.918 . S
O244 Fe245 1.918 . S
Fe245 O244 1.918 . S
Fe245 O246 2.002 . S
Fe245 O255 1.976 . S
Fe245 O259 1.996 . S
Fe245 O262 1.997 . S
O246 Fe245 2.002 . S
O246 C263 1.295 . S
O247 Fe242 1.997 . S
O247 C263 1.235 . S
O248 Fe242 2.002 . S
O248 C249 1.295 . S
C249 O248 1.295 . S
C249 O251 1.235 . S
C250 O255 1.287 . S
C250 O256 1.255 . S
O251 Fe243 1.997 . S
O251 C249 1.235 . S
C252 O258 1.287 . S
C252 O259 1.255 . S
O253 Fe242 1.976 . S
O253 C260 1.287 . S
O254 Fe243 1.996 . S
O254 C260 1.255 . S
O255 Fe245 1.976 . S
O255 C250 1.287 . S
O256 Fe242 1.996 . S
O256 C250 1.255 . S
C257 O261 1.295 . S
C257 O262 1.235 . S
O258 Fe243 1.976 . S
O258 C252 1.287 . S
O259 Fe245 1.996 . S
O259 C252 1.255 . S
C260 O253 1.287 . S
C260 O254 1.255 . S
O261 Fe243 2.002 . S
O261 C257 1.295 . S
O262 Fe245 1.997 . S
O262 C257 1.235 . S
C263 O246 1.295 . S
C263 O247 1.235 . S
Fe264 O266 1.918 . S
Fe264 O269 1.997 . S
Fe264 O270 2.002 . S
Fe264 O275 1.976 . S
Fe264 O278 1.996 . S
Fe265 O266 1.918 . S
Fe265 O273 1.997 . S
Fe265 O276 1.996 . S
Fe265 O280 1.976 . S
Fe265 O283 2.002 . S
O266 Fe264 1.918 . S
O266 Fe265 1.918 . S
O266 Fe267 1.918 . S
Fe267 O266 1.918 . S
Fe267 O268 2.002 . S
Fe267 O277 1.976 . S
Fe267 O281 1.996 . S
Fe267 O284 1.997 . S
O268 Fe267 2.002 . S
O268 C285 1.295 . S
O269 Fe264 1.997 . S
O269 C285 1.235 . S
O270 Fe264 2.002 . S
O270 C271 1.295 . S
C271 O270 1.295 . S
C271 O273 1.235 . S
C272 O277 1.287 . S
C272 O278 1.255 . S
O273 Fe265 1.997 . S
O273 C271 1.235 . S
C274 O280 1.287 . S
C274 O281 1.255 . S
O275 Fe264 1.976 . S
O275 C282 1.287 . S
O276 Fe265 1.996 . S
O276 C282 1.255 . S
O277 Fe267 1.976 . S
O277 C272 1.287 . S
O278 Fe264 1.996 . S
O278 C272 1.255 . S
C279 O283 1.295 . S
C279 O284 1.235 . S
O280 Fe265 1.976 . S
O280 C274 1.287 . S
O281 Fe267 1.996 . S
O281 C274 1.255 . S
C282 O275 1.287 . S
C282 O276 1.255 . S
O283 Fe265 2.002 . S
O283 C279 1.295 . S
O284 Fe267 1.997 . S
O284 C279 1.235 . S
C285 O268 1.295 . S
C285 O269 1.235 . S
Fe286 O288 1.918 . S
Fe286 O291 1.997 . S
Fe286 O292 2.002 . S
Fe286 O297 1.976 . S
Fe286 O300 1.996 . S
Fe287 O288 1.918 . S
Fe287 O295 1.997 . S
Fe287 O298 1.996 . S
Fe287 O302 1.976 . S
Fe287 O305 2.002 . S
O288 Fe286 1.918 . S
O288 Fe287 1.918 . S
O288 Fe289 1.918 . S
Fe289 O288 1.918 . S
Fe289 O290 2.002 . S
Fe289 O299 1.976 . S
Fe289 O303 1.996 . S
Fe289 O306 1.997 . S
O290 Fe289 2.002 . S
O290 C307 1.295 . S
O291 Fe286 1.997 . S
O291 C307 1.235 . S
O292 Fe286 2.002 . S
O292 C293 1.295 . S
C293 O292 1.295 . S
C293 O295 1.235 . S
C294 O299 1.287 . S
C294 O300 1.255 . S
O295 Fe287 1.997 . S
O295 C293 1.235 . S
C296 O302 1.287 . S
C296 O303 1.255 . S
O297 Fe286 1.976 . S
O297 C304 1.287 . S
O298 Fe287 1.996 . S
O298 C304 1.255 . S
O299 Fe289 1.976 . S
O299 C294 1.287 . S
O300 Fe286 1.996 . S
O300 C294 1.255 . S
C301 O305 1.295 . S
C301 O306 1.235 . S
O302 Fe287 1.976 . S
O302 C296 1.287 . S
O303 Fe289 1.996 . S
O303 C296 1.255 . S
C304 O297 1.287 . S
C304 O298 1.255 . S
O305 Fe287 2.002 . S
O305 C301 1.295 . S
O306 Fe289 1.997 . S
O306 C301 1.235 . S
C307 O290 1.295 . S
C307 O291 1.235 . S
Fe308 O310 1.918 . S
Fe308 O313 1.997 . S
Fe308 O314 2.002 . S
Fe308 O319 1.976 . S
Fe308 O322 1.996 . S
Fe309 O310 1.918 . S
Fe309 O317 1.997 . S
Fe309 O320 1.996 . S
Fe309 O324 1.976 . S
Fe309 O327 2.002 . S
O310 Fe308 1.918 . S
O310 Fe309 1.918 . S
O310 Fe311 1.918 . S
Fe311 O310 1.918 . S
Fe311 O312 2.002 . S
Fe311 O321 1.976 . S
Fe311 O325 1.996 . S
Fe311 O328 1.997 . S
O312 Fe311 2.002 . S
O312 C329 1.295 . S
O313 Fe308 1.997 . S
O313 C329 1.235 . S
O314 Fe308 2.002 . S
O314 C315 1.295 . S
C315 O314 1.295 . S
C315 O317 1.235 . S
C316 O321 1.287 . S
C316 O322 1.255 . S
O317 Fe309 1.997 . S
O317 C315 1.235 . S
C318 O324 1.287 . S
C318 O325 1.255 . S
O319 Fe308 1.976 . S
O319 C326 1.287 . S
O320 Fe309 1.996 . S
O320 C326 1.255 . S
O321 Fe311 1.976 . S
O321 C316 1.287 . S
O322 Fe308 1.996 . S
O322 C316 1.255 . S
C323 O327 1.295 . S
C323 O328 1.235 . S
O324 Fe309 1.976 . S
O324 C318 1.287 . S
O325 Fe311 1.996 . S
O325 C318 1.255 . S
C326 O319 1.287 . S
C326 O320 1.255 . S
O327 Fe309 2.002 . S
O327 C323 1.295 . S
O328 Fe311 1.997 . S
O328 C323 1.235 . S
C329 O312 1.295 . S
C329 O313 1.235 . S
Fe330 O332 1.918 . S
Fe330 O335 1.997 . S
Fe330 O336 2.002 . S
Fe330 O341 1.976 . S
Fe330 O344 1.996 . S
Fe331 O332 1.918 . S
Fe331 O339 1.997 . S
Fe331 O342 1.996 . S
Fe331 O346 1.976 . S
Fe331 O349 2.002 . S
O332 Fe330 1.918 . S
O332 Fe331 1.918 . S
O332 Fe333 1.918 . S
Fe333 O332 1.918 . S
Fe333 O334 2.002 . S
Fe333 O343 1.976 . S
Fe333 O347 1.996 . S
Fe333 O350 1.997 . S
O334 Fe333 2.002 . S
O334 C351 1.295 . S
O335 Fe330 1.997 . S
O335 C351 1.235 . S
O336 Fe330 2.002 . S
O336 C337 1.295 . S
C337 O336 1.295 . S
C337 O339 1.235 . S
C338 O343 1.287 . S
C338 O344 1.255 . S
O339 Fe331 1.997 . S
O339 C337 1.235 . S
C340 O346 1.287 . S
C340 O347 1.255 . S
O341 Fe330 1.976 . S
O341 C348 1.287 . S
O342 Fe331 1.996 . S
O342 C348 1.255 . S
O343 Fe333 1.976 . S
O343 C338 1.287 . S
O344 Fe330 1.996 . S
O344 C338 1.255 . S
C345 O349 1.295 . S
C345 O350 1.235 . S
O346 Fe331 1.976 . S
O346 C340 1.287 . S
O347 Fe333 1.996 . S
O347 C340 1.255 . S
C348 O341 1.287 . S
C348 O342 1.255 . S
O349 Fe331 2.002 . S
O349 C345 1.295 . S
O350 Fe333 1.997 . S
O350 C345 1.235 . S
C351 O334 1.295 . S
C351 O335 1.235 . S
C352 O379 1.312 . S
C352 O380 1.208 . S
C353 O374 1.331 . S
C353 O377 1.244 . S
C354 O376 1.264 . S
C354 O378 1.273 . S
Mg355 O357 1.936 1_455 S
Mg355 O364 2.081 1_455 S
Mg355 O366 2.023 . S
Mg355 O370 2.029 1_455 S
Mg355 O379 2.291 . S
Mg356 O357 1.963 . S
Mg356 O367 1.942 . S
Mg356 O368 1.955 1_655 S
Mg356 O375 1.986 . S
O357 Mg355 1.936 1_655 S
O357 Mg356 1.963 . S
O357 Mg358 1.924 . S
Mg358 O357 1.924 . S
Mg358 O359 1.906 1_655 S
Mg358 O363 2.003 1_655 S
Mg358 O369 2.119 . S
Mg358 O373 2.047 . S
Mg358 O379 2.083 1_655 S
O359 Mg358 1.906 1_455 S
O359 Mg360 1.936 . S
O359 Mg361 1.963 1_455 S
Mg360 O359 1.936 . S
Mg360 O369 2.291 1_455 S
Mg360 O374 2.081 . S
Mg360 O376 2.023 1_455 S
Mg360 O380 2.031 . S
Mg361 O359 1.963 1_655 S
Mg361 O365 1.986 1_655 S
Mg361 O377 1.942 1_655 S
Mg361 O378 1.955 . S
C362 O373 1.191 . S
C362 O375 1.307 . S
O363 Mg358 2.003 1_455 S
O363 C382 1.191 . S
O364 Mg355 2.081 1_655 S
O364 C372 1.331 . S
O365 Mg361 1.986 1_455 S
O365 C382 1.307 . S
O366 Mg355 2.023 . S
O366 C381 1.264 . S
O367 Mg356 1.942 . S
O367 C372 1.244 . S
O368 Mg356 1.955 1_455 S
O368 C381 1.273 . S
O369 Mg358 2.119 . S
O369 Mg360 2.291 1_655 S
O369 C371 1.312 . S
O370 Mg355 2.029 1_655 S
O370 C371 1.210 . S
C371 O369 1.312 . S
C371 O370 1.210 . S
C372 O364 1.331 . S
C372 O367 1.244 . S
O373 Mg358 2.047 . S
O373 C362 1.191 . S
O374 C353 1.331 . S
O374 Mg360 2.081 . S
O375 Mg356 1.986 . S
O375 C362 1.307 . S
O376 C354 1.264 . S
O376 Mg360 2.023 1_655 S
O377 C353 1.244 . S
O377 Mg361 1.942 1_455 S
O378 C354 1.273 . S
O378 Mg361 1.955 . S
O379 C352 1.312 . S
O379 Mg355 2.291 . S
O379 Mg358 2.083 1_455 S
O380 C352 1.208 . S
O380 Mg360 2.031 . S
C381 O366 1.264 . S
C381 O368 1.273 . S
C382 O363 1.191 . S
C382 O365 1.307 . S
C383 O410 1.312 . S
C383 O411 1.208 . S
C384 O405 1.331 . S
C384 O408 1.244 . S
C385 O407 1.264 . S
C385 O409 1.273 . S
Mg386 O388 1.936 . S
Mg386 O395 2.081 . S
Mg386 O397 2.023 . S
Mg386 O401 2.031 . S
Mg386 O410 2.291 . S
Mg387 O388 1.963 . S
Mg387 O398 1.942 . S
Mg387 O399 1.955 . S
Mg387 O406 1.986 . S
O388 Mg386 1.936 . S
O388 Mg387 1.963 . S
O388 Mg389 1.915 . S
Mg389 O388 1.915 . S
Mg389 O390 1.915 . S
Mg389 O394 2.013 . S
Mg389 O400 2.114 . S
Mg389 O404 2.013 . S
Mg389 O410 2.114 . S
O390 Mg389 1.915 . S
O390 Mg391 1.936 . S
O390 Mg392 1.963 . S
Mg391 O390 1.936 . S
Mg391 O400 2.291 . S
Mg391 O405 2.081 . S
Mg391 O407 2.023 . S
Mg391 O411 2.031 . S
Mg392 O390 1.963 . S
Mg392 O396 1.986 . S
Mg392 O408 1.942 . S
Mg392 O409 1.955 . S
C393 O404 1.191 . S
C393 O406 1.307 . S
O394 Mg389 2.013 . S
O394 C413 1.191 . S
O395 Mg386 2.081 . S
O395 C403 1.331 . S
O396 Mg392 1.986 . S
O396 C413 1.307 . S
O397 Mg386 2.023 . S
O397 C412 1.264 . S
O398 Mg387 1.942 . S
O398 C403 1.244 . S
O399 Mg387 1.955 . S
O399 C412 1.273 . S
O400 Mg389 2.114 . S
O400 Mg391 2.291 . S
O400 C402 1.312 . S
O401 Mg386 2.031 . S
O401 C402 1.208 . S
C402 O400 1.312 . S
C402 O401 1.208 . S
C403 O395 1.331 . S
C403 O398 1.244 . S
O404 Mg389 2.013 . S
O404 C393 1.191 . S
O405 C384 1.331 . S
O405 Mg391 2.081 . S
O406 Mg387 1.986 . S
O406 C393 1.307 . S
O407 C385 1.264 . S
O407 Mg391 2.023 . S
O408 C384 1.244 . S
O408 Mg392 1.942 . S
O409 C385 1.273 . S
O409 Mg392 1.955 . S
O410 C383 1.312 . S
O410 Mg386 2.291 . S
O410 Mg389 2.114 . S
O411 C383 1.208 . S
O411 Mg391 2.031 . S
C412 O397 1.264 . S
C412 O399 1.273 . S
C413 O394 1.191 . S
C413 O396 1.307 . S
C414 O441 1.312 . S
C414 O442 1.217 . S
C415 O436 1.331 . S
C415 O439 1.244 . S
C416 O438 1.264 . S
C416 O440 1.273 . S
Mg417 O419 1.936 . S
Mg417 O426 2.081 . S
Mg417 O428 2.023 1_455 S
Mg417 O432 2.031 . S
Mg417 O441 2.291 1_455 S
Mg418 O419 1.963 1_655 S
Mg418 O429 1.942 1_655 S
Mg418 O430 1.955 . S
Mg418 O437 1.986 1_655 S
O419 Mg417 1.936 . S
O419 Mg418 1.963 1_455 S
O419 Mg420 1.904 1_455 S
Mg420 O419 1.904 1_655 S
Mg420 O421 1.926 . S
Mg420 O425 2.055 . S
Mg420 O431 2.075 1_655 S
Mg420 O435 2.001 1_655 S
Mg420 O441 2.120 . S
O421 Mg420 1.926 . S
O421 Mg422 1.936 1_655 S
O421 Mg423 1.963 . S
Mg422 O421 1.936 1_455 S
Mg422 O431 2.291 . S
Mg422 O436 2.081 1_455 S
Mg422 O438 2.023 . S
Mg422 O442 2.022 1_455 S
Mg423 O421 1.963 . S
Mg423 O427 1.986 . S
Mg423 O439 1.942 . S
Mg423 O440 1.955 1_655 S
C424 O435 1.191 . S
C424 O437 1.307 . S
O425 Mg420 2.055 . S
O425 C444 1.191 . S
O426 Mg417 2.081 . S
O426 C434 1.331 . S
O427 Mg423 1.986 . S
O427 C444 1.307 . S
O428 Mg417 2.023 1_655 S
O428 C443 1.264 . S
O429 Mg418 1.942 1_455 S
O429 C434 1.244 . S
O430 Mg418 1.955 . S
O430 C443 1.273 . S
O431 Mg420 2.075 1_455 S
O431 Mg422 2.291 . S
O431 C433 1.312 . S
O432 Mg417 2.031 . S
O432 C433 1.208 . S
C433 O431 1.312 . S
C433 O432 1.208 . S
C434 O426 1.331 . S
C434 O429 1.244 . S
O435 Mg420 2.001 1_455 S
O435 C424 1.191 . S
O436 C415 1.331 . S
O436 Mg422 2.081 1_655 S
O437 Mg418 1.986 1_455 S
O437 C424 1.307 . S
O438 C416 1.264 . S
O438 Mg422 2.023 . S
O439 C415 1.244 . S
O439 Mg423 1.942 . S
O440 C416 1.273 . S
O440 Mg423 1.955 1_455 S
O441 C414 1.312 . S
O441 Mg417 2.291 1_655 S
O441 Mg420 2.120 . S
O442 C414 1.217 . S
O442 Mg422 2.022 1_655 S
C443 O428 1.264 . S
C443 O430 1.273 . S
C444 O425 1.191 . S
C444 O427 1.307 . S
C445 O472 1.312 . S
C445 O473 1.214 . S
C446 O467 1.331 . S
C446 O470 1.244 . S
C447 O469 1.264 . S
C447 O471 1.273 . S
Mg448 O450 1.936 . S
Mg448 O457 2.081 . S
Mg448 O459 2.023 1_545 S
Mg448 O463 2.031 . S
Mg448 O472 2.291 1_545 S
Mg449 O450 1.963 1_565 S
Mg449 O460 1.942 1_565 S
Mg449 O461 1.955 . S
Mg449 O468 1.986 1_565 S
O450 Mg448 1.936 . S
O450 Mg449 1.963 1_545 S
O450 Mg451 1.904 1_545 S
Mg451 O450 1.904 1_565 S
Mg451 O452 1.926 . S
Mg451 O456 2.055 . S
Mg451 O462 2.075 1_565 S
Mg451 O466 2.001 1_565 S
Mg451 O472 2.120 . S
O452 Mg451 1.926 . S
O452 Mg453 1.936 1_565 S
O452 Mg454 1.963 . S
Mg453 O452 1.936 1_545 S
Mg453 O462 2.291 . S
Mg453 O467 2.081 1_545 S
Mg453 O469 2.023 . S
Mg453 O473 2.025 1_545 S
Mg454 O452 1.963 . S
Mg454 O458 1.986 . S
Mg454 O470 1.942 . S
Mg454 O471 1.955 1_565 S
C455 O466 1.191 . S
C455 O468 1.307 . S
O456 Mg451 2.055 . S
O456 C475 1.191 . S
O457 Mg448 2.081 . S
O457 C465 1.331 . S
O458 Mg454 1.986 . S
O458 C475 1.307 . S
O459 Mg448 2.023 1_565 S
O459 C474 1.264 . S
O460 Mg449 1.942 1_545 S
O460 C465 1.244 . S
O461 Mg449 1.955 . S
O461 C474 1.273 . S
O462 Mg451 2.075 1_545 S
O462 Mg453 2.291 . S
O462 C464 1.312 . S
O463 Mg448 2.031 . S
O463 C464 1.208 . S
C464 O462 1.312 . S
C464 O463 1.208 . S
C465 O457 1.331 . S
C465 O460 1.244 . S
O466 Mg451 2.001 1_545 S
O466 C455 1.191 . S
O467 C446 1.331 . S
O467 Mg453 2.081 1_565 S
O468 Mg449 1.986 1_545 S
O468 C455 1.307 . S
O469 C447 1.264 . S
O469 Mg453 2.023 . S
O470 C446 1.244 . S
O470 Mg454 1.942 . S
O471 C447 1.273 . S
O471 Mg454 1.955 1_545 S
O472 C445 1.312 . S
O472 Mg448 2.291 1_565 S
O472 Mg451 2.120 . S
O473 C445 1.214 . S
O473 Mg453 2.025 1_565 S
C474 O459 1.264 . S
C474 O461 1.273 . S
C475 O456 1.191 . S
C475 O458 1.307 . S
C476 O503 1.312 . S
C476 O504 1.208 . S
C477 O498 1.331 . S
C477 O501 1.244 . S
C478 O500 1.264 . S
C478 O502 1.273 . S
Mg479 O481 1.936 1_554 S
Mg479 O488 2.081 1_554 S
Mg479 O490 2.023 . S
Mg479 O494 2.023 1_554 S
Mg479 O503 2.291 . S
Mg480 O481 1.963 . S
Mg480 O491 1.942 . S
Mg480 O492 1.955 1_556 S
Mg480 O499 1.986 . S
O481 Mg479 1.936 1_556 S
O481 Mg480 1.963 . S
O481 Mg482 1.926 . S
Mg482 O481 1.926 . S
Mg482 O483 1.904 1_556 S
Mg482 O487 2.001 1_556 S
Mg482 O493 2.120 . S
Mg482 O497 2.055 . S
Mg482 O503 2.075 1_556 S
O483 Mg482 1.904 1_554 S
O483 Mg484 1.936 . S
O483 Mg485 1.963 1_554 S
Mg484 O483 1.936 . S
Mg484 O493 2.291 1_554 S
Mg484 O498 2.081 . S
Mg484 O500 2.023 1_554 S
Mg484 O504 2.031 . S
Mg485 O483 1.963 1_556 S
Mg485 O489 1.986 1_556 S
Mg485 O501 1.942 1_556 S
Mg485 O502 1.955 . S
C486 O497 1.191 . S
C486 O499 1.307 . S
O487 Mg482 2.001 1_554 S
O487 C506 1.191 . S
O488 Mg479 2.081 1_556 S
O488 C496 1.331 . S
O489 Mg485 1.986 1_554 S
O489 C506 1.307 . S
O490 Mg479 2.023 . S
O490 C505 1.264 . S
O491 Mg480 1.942 . S
O491 C496 1.244 . S
O492 Mg480 1.955 1_554 S
O492 C505 1.273 . S
O493 Mg482 2.120 . S
O493 Mg484 2.291 1_556 S
O493 C495 1.312 . S
O494 Mg479 2.023 1_556 S
O494 C495 1.216 . S
C495 O493 1.312 . S
C495 O494 1.216 . S
C496 O488 1.331 . S
C496 O491 1.244 . S
O497 Mg482 2.055 . S
O497 C486 1.191 . S
O498 C477 1.331 . S
O498 Mg484 2.081 . S
O499 Mg480 1.986 . S
O499 C486 1.307 . S
O500 C478 1.264 . S
O500 Mg484 2.023 1_556 S
O501 C477 1.244 . S
O501 Mg485 1.942 1_554 S
O502 C478 1.273 . S
O502 Mg485 1.955 . S
O503 C476 1.312 . S
O503 Mg479 2.291 . S
O503 Mg482 2.075 1_554 S
O504 C476 1.208 . S
O504 Mg484 2.031 . S
C505 O490 1.264 . S
C505 O492 1.273 . S
C506 O487 1.191 . S
C506 O489 1.307 . S
C507 O534 1.312 . S
C507 O535 1.208 . S
C508 O529 1.331 . S
C508 O532 1.244 . S
C509 O531 1.264 . S
C509 O533 1.273 . S
Mg510 O512 1.936 . S
Mg510 O519 2.081 . S
Mg510 O521 2.023 . S
Mg510 O525 2.031 . S
Mg510 O534 2.291 . S
Mg511 O512 1.963 . S
Mg511 O522 1.942 . S
Mg511 O523 1.955 . S
Mg511 O530 1.986 . S
O512 Mg510 1.936 . S
O512 Mg511 1.963 . S
O512 Mg513 1.915 . S
Mg513 O512 1.915 . S
Mg513 O514 1.915 . S
Mg513 O518 2.013 . S
Mg513 O524 2.114 . S
Mg513 O528 2.013 . S
Mg513 O534 2.114 . S
O514 Mg513 1.915 . S
O514 Mg515 1.936 . S
O514 Mg516 1.963 . S
Mg515 O514 1.936 . S
Mg515 O524 2.291 . S
Mg515 O529 2.081 . S
Mg515 O531 2.023 . S
Mg515 O535 2.031 . S
Mg516 O514 1.963 . S
Mg516 O520 1.986 . S
Mg516 O532 1.942 . S
Mg516 O533 1.955 . S
C517 O528 1.191 . S
C517 O530 1.307 . S
O518 Mg513 2.013 . S
O518 C537 1.191 . S
O519 Mg510 2.081 . S
O519 C527 1.331 . S
O520 Mg516 1.986 . S
O520 C537 1.307 . S
O521 Mg510 2.023 . S
O521 C536 1.264 . S
O522 Mg511 1.942 . S
O522 C527 1.244 . S
O523 Mg511 1.955 . S
O523 C536 1.273 . S
O524 Mg513 2.114 . S
O524 Mg515 2.291 . S
O524 C526 1.312 . S
O525 Mg510 2.031 . S
O525 C526 1.208 . S
C526 O524 1.312 . S
C526 O525 1.208 . S
C527 O519 1.331 . S
C527 O522 1.244 . S
O528 Mg513 2.013 . S
O528 C517 1.191 . S
O529 C508 1.331 . S
O529 Mg515 2.081 . S
O530 Mg511 1.986 . S
O530 C517 1.307 . S
O531 C509 1.264 . S
O531 Mg515 2.023 . S
O532 C508 1.244 . S
O532 Mg516 1.942 . S
O533 C509 1.273 . S
O533 Mg516 1.955 . S
O534 C507 1.312 . S
O534 Mg510 2.291 . S
O534 Mg513 2.114 . S
O535 C507 1.208 . S
O535 Mg515 2.031 . S
C536 O521 1.264 . S
C536 O523 1.273 . S
C537 O518 1.191 . S
C537 O520 1.307 . S
C538 O565 1.312 . S
C538 O566 1.208 . S
C539 O560 1.331 . S
C539 O563 1.244 . S
C540 O562 1.264 . S
C540 O564 1.273 . S
Mg541 O543 1.936 . S
Mg541 O550 2.081 . S
Mg541 O552 2.023 1_556 S
Mg541 O556 2.031 . S
Mg541 O565 2.291 1_556 S
Mg542 O543 1.963 1_554 S
Mg542 O553 1.942 1_554 S
Mg542 O554 1.955 . S
Mg542 O561 1.986 1_554 S
O543 Mg541 1.936 . S
O543 Mg542 1.963 1_556 S
O543 Mg544 1.915 1_556 S
Mg544 O543 1.915 1_554 S
Mg544 O545 1.915 . S
Mg544 O549 2.013 . S
Mg544 O555 2.114 1_554 S
Mg544 O559 2.013 1_554 S
Mg544 O565 2.114 . S
O545 Mg544 1.915 . S
O545 Mg546 1.936 1_554 S
O545 Mg547 1.963 . S
Mg546 O545 1.936 1_556 S
Mg546 O555 2.291 . S
Mg546 O560 2.081 1_556 S
Mg546 O562 2.023 . S
Mg546 O566 2.031 1_556 S
Mg547 O545 1.963 . S
Mg547 O551 1.986 . S
Mg547 O563 1.942 . S
Mg547 O564 1.955 1_554 S
C548 O559 1.191 . S
C548 O561 1.307 . S
O549 Mg544 2.013 . S
O549 C568 1.191 . S
O550 Mg541 2.081 . S
O550 C558 1.331 . S
O551 Mg547 1.986 . S
O551 C568 1.307 . S
O552 Mg541 2.023 1_554 S
O552 C567 1.264 . S
O553 Mg542 1.942 1_556 S
O553 C558 1.244 . S
O554 Mg542 1.955 . S
O554 C567 1.273 . S
O555 Mg544 2.114 1_556 S
O555 Mg546 2.291 . S
O555 C557 1.312 . S
O556 Mg541 2.031 . S
O556 C557 1.208 . S
C557 O555 1.312 . S
C557 O556 1.208 . S
C558 O550 1.331 . S
C558 O553 1.244 . S
O559 Mg544 2.013 1_556 S
O559 C548 1.191 . S
O560 C539 1.331 . S
O560 Mg546 2.081 1_554 S
O561 Mg542 1.986 1_556 S
O561 C548 1.307 . S
O562 C540 1.264 . S
O562 Mg546 2.023 . S
O563 C539 1.244 . S
O563 Mg547 1.942 . S
O564 C540 1.273 . S
O564 Mg547 1.955 1_556 S
O565 C538 1.312 . S
O565 Mg541 2.291 1_554 S
O565 Mg544 2.114 . S
O566 C538 1.208 . S
O566 Mg546 2.031 1_554 S
C567 O552 1.264 . S
C567 O554 1.273 . S
C568 O549 1.191 . S
C568 O551 1.307 . S
C569 O596 1.312 . S
C569 O597 1.208 . S
C570 O591 1.331 . S
C570 O594 1.244 . S
C571 O593 1.264 . S
C571 O595 1.273 . S
Mg572 O574 1.936 . S
Mg572 O581 2.081 . S
Mg572 O583 2.023 . S
Mg572 O587 2.031 . S
Mg572 O596 2.291 . S
Mg573 O574 1.963 . S
Mg573 O584 1.942 . S
Mg573 O585 1.955 . S
Mg573 O592 1.986 . S
O574 Mg572 1.936 . S
O574 Mg573 1.963 . S
O574 Mg575 1.915 . S
Mg575 O574 1.915 . S
Mg575 O576 1.915 . S
Mg575 O580 2.013 . S
Mg575 O586 2.114 . S
Mg575 O590 2.013 . S
Mg575 O596 2.114 . S
O576 Mg575 1.915 . S
O576 Mg577 1.936 . S
O576 Mg578 1.963 . S
Mg577 O576 1.936 . S
Mg577 O586 2.291 . S
Mg577 O591 2.081 . S
Mg577 O593 2.023 . S
Mg577 O597 2.031 . S
Mg578 O576 1.963 . S
Mg578 O582 1.986 . S
Mg578 O594 1.942 . S
Mg578 O595 1.955 . S
C579 O590 1.191 . S
C579 O592 1.307 . S
O580 Mg575 2.013 . S
O580 C599 1.191 . S
O581 Mg572 2.081 . S
O581 C589 1.331 . S
O582 Mg578 1.986 . S
O582 C599 1.307 . S
O583 Mg572 2.023 . S
O583 C598 1.264 . S
O584 Mg573 1.942 . S
O584 C589 1.244 . S
O585 Mg573 1.955 . S
O585 C598 1.273 . S
O586 Mg575 2.114 . S
O586 Mg577 2.291 . S
O586 C588 1.312 . S
O587 Mg572 2.031 . S
O587 C588 1.208 . S
C588 O586 1.312 . S
C588 O587 1.208 . S
C589 O581 1.331 . S
C589 O584 1.244 . S
O590 Mg575 2.013 . S
O590 C579 1.191 . S
O591 C570 1.331 . S
O591 Mg577 2.081 . S
O592 Mg573 1.986 . S
O592 C579 1.307 . S
O593 C571 1.264 . S
O593 Mg577 2.023 . S
O594 C570 1.244 . S
O594 Mg578 1.942 . S
O595 C571 1.273 . S
O595 Mg578 1.955 . S
O596 C569 1.312 . S
O596 Mg572 2.291 . S
O596 Mg575 2.114 . S
O597 C569 1.208 . S
O597 Mg577 2.031 . S
C598 O583 1.264 . S
C598 O585 1.273 . S
C599 O580 1.191 . S
C599 O582 1.307 . S
C600 O627 1.312 . S
C600 O628 1.208 . S
C601 O622 1.331 . S
C601 O625 1.244 . S
C602 O624 1.264 . S
C602 O626 1.273 . S
Mg603 O605 1.936 . S
Mg603 O612 2.081 . S
Mg603 O614 2.023 . S
Mg603 O618 2.031 . S
Mg603 O627 2.291 . S
Mg604 O605 1.963 . S
Mg604 O615 1.942 . S
Mg604 O616 1.955 . S
Mg604 O623 1.986 . S
O605 Mg603 1.936 . S
O605 Mg604 1.963 . S
O605 Mg606 1.915 . S
Mg606 O605 1.915 . S
Mg606 O607 1.915 . S
Mg606 O611 2.013 . S
Mg606 O617 2.114 . S
Mg606 O621 2.013 . S
Mg606 O627 2.114 . S
O607 Mg606 1.915 . S
O607 Mg608 1.936 . S
O607 Mg609 1.963 . S
Mg608 O607 1.936 . S
Mg608 O617 2.291 . S
Mg608 O622 2.081 . S
Mg608 O624 2.023 . S
Mg608 O628 2.031 . S
Mg609 O607 1.963 . S
Mg609 O613 1.986 . S
Mg609 O625 1.942 . S
Mg609 O626 1.955 . S
C610 O621 1.191 . S
C610 O623 1.307 . S
O611 Mg606 2.013 . S
O611 C630 1.191 . S
O612 Mg603 2.081 . S
O612 C620 1.331 . S
O613 Mg609 1.986 . S
O613 C630 1.307 . S
O614 Mg603 2.023 . S
O614 C629 1.264 . S
O615 Mg604 1.942 . S
O615 C620 1.244 . S
O616 Mg604 1.955 . S
O616 C629 1.273 . S
O617 Mg606 2.114 . S
O617 Mg608 2.291 . S
O617 C619 1.312 . S
O618 Mg603 2.031 . S
O618 C619 1.208 . S
C619 O617 1.312 . S
C619 O618 1.208 . S
C620 O612 1.331 . S
C620 O615 1.244 . S
O621 Mg606 2.013 . S
O621 C610 1.191 . S
O622 C601 1.331 . S
O622 Mg608 2.081 . S
O623 Mg604 1.986 . S
O623 C610 1.307 . S
O624 C602 1.264 . S
O624 Mg608 2.023 . S
O625 C601 1.244 . S
O625 Mg609 1.942 . S
O626 C602 1.273 . S
O626 Mg609 1.955 . S
O627 C600 1.312 . S
O627 Mg603 2.291 . S
O627 Mg606 2.114 . S
O628 C600 1.208 . S
O628 Mg608 2.031 . S
C629 O614 1.264 . S
C629 O616 1.273 . S
C630 O611 1.191 . S
C630 O613 1.307 . S
C631 O658 1.312 . S
C631 O659 1.208 . S
C632 O653 1.331 . S
C632 O656 1.244 . S
C633 O655 1.264 . S
C633 O657 1.273 . S
Mg634 O636 1.936 . S
Mg634 O643 2.081 . S
Mg634 O645 2.023 . S
Mg634 O649 2.031 . S
Mg634 O658 2.291 . S
Mg635 O636 1.963 . S
Mg635 O646 1.942 . S
Mg635 O647 1.955 . S
Mg635 O654 1.986 . S
O636 Mg634 1.936 . S
O636 Mg635 1.963 . S
O636 Mg637 1.915 . S
Mg637 O636 1.915 . S
Mg637 O638 1.915 . S
Mg637 O642 2.013 . S
Mg637 O648 2.114 . S
Mg637 O652 2.013 . S
Mg637 O658 2.114 . S
O638 Mg637 1.915 . S
O638 Mg639 1.936 . S
O638 Mg640 1.963 . S
Mg639 O638 1.936 . S
Mg639 O648 2.291 . S
Mg639 O653 2.081 . S
Mg639 O655 2.023 . S
Mg639 O659 2.031 . S
Mg640 O638 1.963 . S
Mg640 O644 1.986 . S
Mg640 O656 1.942 . S
Mg640 O657 1.955 . S
C641 O652 1.191 . S
C641 O654 1.307 . S
O642 Mg637 2.013 . S
O642 C661 1.191 . S
O643 Mg634 2.081 . S
O643 C651 1.331 . S
O644 Mg640 1.986 . S
O644 C661 1.307 . S
O645 Mg634 2.023 . S
O645 C660 1.264 . S
O646 Mg635 1.942 . S
O646 C651 1.244 . S
O647 Mg635 1.955 . S
O647 C660 1.273 . S
O648 Mg637 2.114 . S
O648 Mg639 2.291 . S
O648 C650 1.312 . S
O649 Mg634 2.031 . S
O649 C650 1.208 . S
C650 O648 1.312 . S
C650 O649 1.208 . S
C651 O643 1.331 . S
C651 O646 1.244 . S
O652 Mg637 2.013 . S
O652 C641 1.191 . S
O653 C632 1.331 . S
O653 Mg639 2.081 . S
O654 Mg635 1.986 . S
O654 C641 1.307 . S
O655 C633 1.264 . S
O655 Mg639 2.023 . S
O656 C632 1.244 . S
O656 Mg640 1.942 . S
O657 C633 1.273 . S
O657 Mg640 1.955 . S
O658 C631 1.312 . S
O658 Mg634 2.291 . S
O658 Mg637 2.114 . S
O659 C631 1.208 . S
O659 Mg639 2.031 . S
C660 O645 1.264 . S
C660 O647 1.273 . S
C661 O642 1.191 . S
C661 O644 1.307 . S
C662 O689 1.312 . S
C662 O690 1.208 . S
C663 O684 1.331 . S
C663 O687 1.244 . S
C664 O686 1.264 . S
C664 O688 1.273 . S
Mg665 O667 1.936 . S
Mg665 O674 2.081 . S
Mg665 O676 2.023 1_565 S
Mg665 O680 2.031 . S
Mg665 O689 2.291 1_565 S
Mg666 O667 1.963 1_545 S
Mg666 O677 1.942 1_545 S
Mg666 O678 1.955 . S
Mg666 O685 1.986 1_545 S
O667 Mg665 1.936 . S
O667 Mg666 1.963 1_565 S
O667 Mg668 1.915 1_565 S
Mg668 O667 1.915 1_545 S
Mg668 O669 1.915 . S
Mg668 O673 2.013 . S
Mg668 O679 2.114 1_545 S
Mg668 O683 2.013 1_545 S
Mg668 O689 2.114 . S
O669 Mg668 1.915 . S
O669 Mg670 1.936 1_545 S
O669 Mg671 1.963 . S
Mg670 O669 1.936 1_565 S
Mg670 O679 2.291 . S
Mg670 O684 2.081 1_565 S
Mg670 O686 2.023 . S
Mg670 O690 2.031 1_565 S
Mg671 O669 1.963 . S
Mg671 O675 1.986 . S
Mg671 O687 1.942 . S
Mg671 O688 1.955 1_545 S
C672 O683 1.191 . S
C672 O685 1.307 . S
O673 Mg668 2.013 . S
O673 C692 1.191 . S
O674 Mg665 2.081 . S
O674 C682 1.331 . S
O675 Mg671 1.986 . S
O675 C692 1.307 . S
O676 Mg665 2.023 1_545 S
O676 C691 1.264 . S
O677 Mg666 1.942 1_565 S
O677 C682 1.244 . S
O678 Mg666 1.955 . S
O678 C691 1.273 . S
O679 Mg668 2.114 1_565 S
O679 Mg670 2.291 . S
O679 C681 1.312 . S
O680 Mg665 2.031 . S
O680 C681 1.208 . S
C681 O679 1.312 . S
C681 O680 1.208 . S
C682 O674 1.331 . S
C682 O677 1.244 . S
O683 Mg668 2.013 1_565 S
O683 C672 1.191 . S
O684 C663 1.331 . S
O684 Mg670 2.081 1_545 S
O685 Mg666 1.986 1_565 S
O685 C672 1.307 . S
O686 C664 1.264 . S
O686 Mg670 2.023 . S
O687 C663 1.244 . S
O687 Mg671 1.942 . S
O688 C664 1.273 . S
O688 Mg671 1.955 1_565 S
O689 C662 1.312 . S
O689 Mg665 2.291 1_545 S
O689 Mg668 2.114 . S
O690 C662 1.208 . S
O690 Mg670 2.031 1_545 S
C691 O676 1.264 . S
C691 O678 1.273 . S
C692 O673 1.191 . S
C692 O675 1.307 . S
C693 O720 1.312 . S
C693 O721 1.208 . S
C694 O715 1.331 . S
C694 O718 1.244 . S
C695 O717 1.264 . S
C695 O719 1.273 . S
Mg696 O698 1.936 . S
Mg696 O705 2.081 . S
Mg696 O707 2.023 . S
Mg696 O711 2.031 . S
Mg696 O720 2.291 . S
Mg697 O698 1.963 . S
Mg697 O708 1.942 . S
Mg697 O709 1.955 . S
Mg697 O716 1.986 . S
O698 Mg696 1.936 . S
O698 Mg697 1.963 . S
O698 Mg699 1.915 . S
Mg699 O698 1.915 . S
Mg699 O700 1.915 . S
Mg699 O704 2.013 . S
Mg699 O710 2.114 . S
Mg699 O714 2.013 . S
Mg699 O720 2.114 . S
O700 Mg699 1.915 . S
O700 Mg701 1.936 . S
O700 Mg702 1.963 . S
Mg701 O700 1.936 . S
Mg701 O710 2.291 . S
Mg701 O715 2.081 . S
Mg701 O717 2.023 . S
Mg701 O721 2.031 . S
Mg702 O700 1.963 . S
Mg702 O706 1.986 . S
Mg702 O718 1.942 . S
Mg702 O719 1.955 . S
C703 O714 1.191 . S
C703 O716 1.307 . S
O704 Mg699 2.013 . S
O704 C723 1.191 . S
O705 Mg696 2.081 . S
O705 C713 1.331 . S
O706 Mg702 1.986 . S
O706 C723 1.307 . S
O707 Mg696 2.023 . S
O707 C722 1.264 . S
O708 Mg697 1.942 . S
O708 C713 1.244 . S
O709 Mg697 1.955 . S
O709 C722 1.273 . S
O710 Mg699 2.114 . S
O710 Mg701 2.291 . S
O710 C712 1.312 . S
O711 Mg696 2.031 . S
O711 C712 1.208 . S
C712 O710 1.312 . S
C712 O711 1.208 . S
C713 O705 1.331 . S
C713 O708 1.244 . S
O714 Mg699 2.013 . S
O714 C703 1.191 . S
O715 C694 1.331 . S
O715 Mg701 2.081 . S
O716 Mg697 1.986 . S
O716 C703 1.307 . S
O717 C695 1.264 . S
O717 Mg701 2.023 . S
O718 C694 1.244 . S
O718 Mg702 1.942 . S
O719 C695 1.273 . S
O719 Mg702 1.955 . S
O720 C693 1.312 . S
O720 Mg696 2.291 . S
O720 Mg699 2.114 . S
O721 C693 1.208 . S
O721 Mg701 2.031 . S
C722 O707 1.264 . S
C722 O709 1.273 . S
C723 O704 1.191 . S
C723 O706 1.307 . S
C724 C725 1.349 . S
C724 C726 1.327 . S
C724 H749 0.950 . S
C725 C724 1.349 . S
C725 C741 1.349 . S
C726 C724 1.327 . S
C726 C745 1.429 . S
C726 H750 0.950 . S
C727 C744 1.574 . S
C727 C746 1.368 . S
C727 H751 0.949 . S
H728 C732 0.949 . S
C729 C730 1.349 . S
C729 C731 1.327 . S
C729 H752 0.950 . S
C730 C729 1.349 . S
C730 C742 1.349 . S
C731 C729 1.327 . S
C731 C747 1.429 . S
C731 H753 0.950 . S
C732 H728 0.949 . S
C732 C740 1.574 . S
C732 C748 1.368 . S
H733 C741 0.950 . S
H734 C739 0.950 . S
H735 C740 0.949 . S
H736 C742 0.950 . S
H737 C743 0.950 . S
H738 C744 0.949 . S
C739 H734 0.950 . S
C739 C741 1.327 . S
C739 C745 1.429 . S
C740 C732 1.574 . S
C740 H735 0.949 . S
C740 C746 1.368 . S
C741 C725 1.349 . S
C741 H733 0.950 . S
C741 C739 1.327 . S
C742 C730 1.349 . S
C742 H736 0.950 . S
C742 C743 1.327 . S
C743 H737 0.950 . S
C743 C742 1.327 . S
C743 C747 1.429 . S
C744 C727 1.574 . S
C744 H738 0.949 . S
C744 C748 1.368 . S
C745 C726 1.429 . S
C745 C739 1.429 . S
C745 C746 1.523 . S
C746 C727 1.368 . S
C746 C740 1.368 . S
C746 C745 1.523 . S
C747 C731 1.429 . S
C747 C743 1.429 . S
C747 C748 1.523 . S
C748 C732 1.368 . S
C748 C744 1.368 . S
C748 C747 1.523 . S
H749 C724 0.950 . S
H750 C726 0.950 . S
H751 C727 0.949 . S
H752 C729 0.950 . S
H753 C731 0.950 . S
C754 C755 1.349 . S
C754 C756 1.327 . S
C754 H779 0.950 . S
C755 C754 1.349 . S
C755 C771 1.349 . S
C756 C754 1.327 . S
C756 C775 1.429 . S
C756 H780 0.950 . S
C757 C774 1.574 . S
C757 C776 1.368 . S
C757 H781 0.949 . S
H758 C762 0.949 . S
C759 C760 1.349 . S
C759 C761 1.327 . S
C759 H782 0.950 . S
C760 C759 1.349 . S
C760 C772 1.349 . S
C761 C759 1.327 . S
C761 C777 1.429 . S
C761 H783 0.950 . S
C762 H758 0.949 . S
C762 C770 1.574 . S
C762 C778 1.368 . S
H763 C771 0.950 . S
H764 C769 0.950 . S
H765 C770 0.949 . S
H766 C772 0.950 . S
H767 C773 0.950 . S
H768 C774 0.949 . S
C769 H764 0.950 . S
C769 C771 1.327 . S
C769 C775 1.429 . S
C770 C762 1.574 . S
C770 H765 0.949 . S
C770 C776 1.368 . S
C771 C755 1.349 . S
C771 H763 0.950 . S
C771 C769 1.327 . S
C772 C760 1.349 . S
C772 H766 0.950 . S
C772 C773 1.327 . S
C773 H767 0.950 . S
C773 C772 1.327 . S
C773 C777 1.429 . S
C774 C757 1.574 . S
C774 H768 0.949 . S
C774 C778 1.368 . S
C775 C756 1.429 . S
C775 C769 1.429 . S
C775 C776 1.523 . S
C776 C757 1.368 . S
C776 C770 1.368 . S
C776 C775 1.523 . S
C777 C761 1.429 . S
C777 C773 1.429 . S
C777 C778 1.523 . S
C778 C762 1.368 . S
C778 C774 1.368 . S
C778 C777 1.523 . S
H779 C754 0.950 . S
H780 C756 0.950 . S
H781 C757 0.949 . S
H782 C759 0.950 . S
H783 C761 0.950 . S
C784 C785 1.349 . S
C784 C786 1.327 . S
C784 H809 0.950 . S
C785 C784 1.349 . S
C785 C801 1.349 . S
C786 C784 1.327 . S
C786 C805 1.429 . S
C786 H810 0.950 . S
C787 C804 1.574 . S
C787 C806 1.368 . S
C787 H811 0.949 . S
H788 C792 0.949 . S
C789 C790 1.349 . S
C789 C791 1.327 . S
C789 H812 0.950 . S
C790 C789 1.349 . S
C790 C802 1.349 . S
C791 C789 1.327 . S
C791 C807 1.429 . S
C791 H813 0.950 . S
C792 H788 0.949 . S
C792 C800 1.574 . S
C792 C808 1.368 . S
H793 C801 0.950 . S
H794 C799 0.950 . S
H795 C800 0.949 . S
H796 C802 0.950 . S
H797 C803 0.950 . S
H798 C804 0.949 . S
C799 H794 0.950 . S
C799 C801 1.327 . S
C799 C805 1.429 . S
C800 C792 1.574 . S
C800 H795 0.949 . S
C800 C806 1.368 . S
C801 C785 1.349 . S
C801 H793 0.950 . S
C801 C799 1.327 . S
C802 C790 1.349 . S
C802 H796 0.950 . S
C802 C803 1.327 . S
C803 H797 0.950 . S
C803 C802 1.327 . S
C803 C807 1.429 . S
C804 C787 1.574 . S
C804 H798 0.949 . S
C804 C808 1.368 . S
C805 C786 1.429 . S
C805 C799 1.429 . S
C805 C806 1.523 . S
C806 C787 1.368 . S
C806 C800 1.368 . S
C806 C805 1.523 . S
C807 C791 1.429 . S
C807 C803 1.429 . S
C807 C808 1.523 . S
C808 C792 1.368 . S
C808 C804 1.368 . S
C808 C807 1.523 . S
H809 C784 0.950 . S
H810 C786 0.950 . S
H811 C787 0.949 . S
H812 C789 0.950 . S
H813 C791 0.950 . S
C814 C815 1.349 . S
C814 C816 1.327 . S
C814 H839 0.950 . S
C815 C814 1.349 . S
C815 C831 1.349 . S
C816 C814 1.327 . S
C816 C835 1.429 . S
C816 H840 0.950 . S
C817 C834 1.574 . S
C817 C836 1.368 . S
C817 H841 0.949 . S
H818 C822 0.949 . S
C819 C820 1.349 . S
C819 C821 1.327 . S
C819 H842 0.950 . S
C820 C819 1.349 . S
C820 C832 1.349 . S
C821 C819 1.327 . S
C821 C837 1.429 . S
C821 H843 0.950 . S
C822 H818 0.949 . S
C822 C830 1.574 . S
C822 C838 1.368 . S
H823 C831 0.950 . S
H824 C829 0.950 . S
H825 C830 0.949 . S
H826 C832 0.950 . S
H827 C833 0.950 . S
H828 C834 0.949 . S
C829 H824 0.950 . S
C829 C831 1.327 . S
C829 C835 1.429 . S
C830 C822 1.574 . S
C830 H825 0.949 . S
C830 C836 1.368 . S
C831 C815 1.349 . S
C831 H823 0.950 . S
C831 C829 1.327 . S
C832 C820 1.349 . S
C832 H826 0.950 . S
C832 C833 1.327 . S
C833 H827 0.950 . S
C833 C832 1.327 . S
C833 C837 1.429 . S
C834 C817 1.574 . S
C834 H828 0.949 . S
C834 C838 1.368 . S
C835 C816 1.429 . S
C835 C829 1.429 . S
C835 C836 1.523 . S
C836 C817 1.368 . S
C836 C830 1.368 . S
C836 C835 1.523 . S
C837 C821 1.429 . S
C837 C833 1.429 . S
C837 C838 1.523 . S
C838 C822 1.368 . S
C838 C834 1.368 . S
C838 C837 1.523 . S
H839 C814 0.950 . S
H840 C816 0.950 . S
H841 C817 0.949 . S
H842 C819 0.950 . S
H843 C821 0.950 . S
C844 C845 1.349 . S
C844 C846 1.327 . S
C844 H869 0.950 . S
C845 C844 1.349 . S
C845 C861 1.349 . S
C846 C844 1.327 . S
C846 C865 1.429 . S
C846 H870 0.950 . S
C847 C864 1.574 . S
C847 C866 1.368 . S
C847 H871 0.949 . S
H848 C852 0.949 . S
C849 C850 1.349 . S
C849 C851 1.327 . S
C849 H872 0.950 . S
C850 C849 1.349 . S
C850 C862 1.349 . S
C851 C849 1.327 . S
C851 C867 1.429 . S
C851 H873 0.950 . S
C852 H848 0.949 . S
C852 C860 1.574 . S
C852 C868 1.368 . S
H853 C861 0.950 . S
H854 C859 0.950 . S
H855 C860 0.949 . S
H856 C862 0.950 . S
H857 C863 0.950 . S
H858 C864 0.949 . S
C859 H854 0.950 . S
C859 C861 1.327 . S
C859 C865 1.429 . S
C860 C852 1.574 . S
C860 H855 0.949 . S
C860 C866 1.368 . S
C861 C845 1.349 . S
C861 H853 0.950 . S
C861 C859 1.327 . S
C862 C850 1.349 . S
C862 H856 0.950 . S
C862 C863 1.327 . S
C863 H857 0.950 . S
C863 C862 1.327 . S
C863 C867 1.429 . S
C864 C847 1.574 . S
C864 H858 0.949 . S
C864 C868 1.368 . S
C865 C846 1.429 . S
C865 C859 1.429 . S
C865 C866 1.523 . S
C866 C847 1.368 . S
C866 C860 1.368 . S
C866 C865 1.523 . S
C867 C851 1.429 . S
C867 C863 1.429 . S
C867 C868 1.523 . S
C868 C852 1.368 . S
C868 C864 1.368 . S
C868 C867 1.523 . S
H869 C844 0.950 . S
H870 C846 0.950 . S
H871 C847 0.949 . S
H872 C849 0.950 . S
H873 C851 0.950 . S
C874 C875 1.349 . S
C874 C876 1.327 . S
C874 H899 0.950 . S
C875 C874 1.349 . S
C875 C891 1.349 . S
C876 C874 1.327 . S
C876 C895 1.429 . S
C876 H900 0.950 . S
C877 C894 1.574 . S
C877 C896 1.368 . S
C877 H901 0.949 . S
H878 C882 0.949 . S
C879 C880 1.349 . S
C879 C881 1.327 . S
C879 H902 0.950 . S
C880 C879 1.349 . S
C880 C892 1.349 . S
C881 C879 1.327 . S
C881 C897 1.429 . S
C881 H903 0.950 . S
C882 H878 0.949 . S
C882 C890 1.574 . S
C882 C898 1.368 . S
H883 C891 0.950 . S
H884 C889 0.950 . S
H885 C890 0.949 . S
H886 C892 0.950 . S
H887 C893 0.950 . S
H888 C894 0.949 . S
C889 H884 0.950 . S
C889 C891 1.327 . S
C889 C895 1.429 . S
C890 C882 1.574 . S
C890 H885 0.949 . S
C890 C896 1.368 . S
C891 C875 1.349 . S
C891 H883 0.950 . S
C891 C889 1.327 . S
C892 C880 1.349 . S
C892 H886 0.950 . S
C892 C893 1.327 . S
C893 H887 0.950 . S
C893 C892 1.327 . S
C893 C897 1.429 . S
C894 C877 1.574 . S
C894 H888 0.949 . S
C894 C898 1.368 . S
C895 C876 1.429 . S
C895 C889 1.429 . S
C895 C896 1.523 . S
C896 C877 1.368 . S
C896 C890 1.368 . S
C896 C895 1.523 . S
C897 C881 1.429 . S
C897 C893 1.429 . S
C897 C898 1.523 . S
C898 C882 1.368 . S
C898 C894 1.368 . S
C898 C897 1.523 . S
H899 C874 0.950 . S
H900 C876 0.950 . S
H901 C877 0.949 . S
H902 C879 0.950 . S
H903 C881 0.950 . S
C904 C905 1.349 . S
C904 C906 1.327 . S
C904 H929 0.950 . S
C905 C904 1.349 . S
C905 C921 1.349 . S
C906 C904 1.327 . S
C906 C925 1.429 . S
C906 H930 0.950 . S
C907 C924 1.574 . S
C907 C926 1.368 . S
C907 H931 0.949 . S
H908 C912 0.949 . S
C909 C910 1.349 . S
C909 C911 1.327 . S
C909 H932 0.950 . S
C910 C909 1.349 . S
C910 C922 1.349 . S
C911 C909 1.327 . S
C911 C927 1.429 . S
C911 H933 0.950 . S
C912 H908 0.949 . S
C912 C920 1.574 . S
C912 C928 1.368 . S
H913 C921 0.950 . S
H914 C919 0.950 . S
H915 C920 0.949 . S
H916 C922 0.950 . S
H917 C923 0.950 . S
H918 C924 0.949 . S
C919 H914 0.950 . S
C919 C921 1.327 . S
C919 C925 1.429 . S
C920 C912 1.574 . S
C920 H915 0.949 . S
C920 C926 1.368 . S
C921 C905 1.349 . S
C921 H913 0.950 . S
C921 C919 1.327 . S
C922 C910 1.349 . S
C922 H916 0.950 . S
C922 C923 1.327 . S
C923 H917 0.950 . S
C923 C922 1.327 . S
C923 C927 1.429 . S
C924 C907 1.574 . S
C924 H918 0.949 . S
C924 C928 1.368 . S
C925 C906 1.429 . S
C925 C919 1.429 . S
C925 C926 1.523 . S
C926 C907 1.368 . S
C926 C920 1.368 . S
C926 C925 1.523 . S
C927 C911 1.429 . S
C927 C923 1.429 . S
C927 C928 1.523 . S
C928 C912 1.368 . S
C928 C924 1.368 . S
C928 C927 1.523 . S
H929 C904 0.950 . S
H930 C906 0.950 . S
H931 C907 0.949 . S
H932 C909 0.950 . S
H933 C911 0.950 . S
C934 C935 1.349 . S
C934 C936 1.327 . S
C934 H959 0.950 . S
C935 C934 1.349 . S
C935 C951 1.349 . S
C936 C934 1.327 . S
C936 C955 1.429 . S
C936 H960 0.950 . S
C937 C954 1.574 . S
C937 C956 1.368 . S
C937 H961 0.949 . S
H938 C942 0.949 . S
C939 C940 1.349 . S
C939 C941 1.327 . S
C939 H962 0.950 . S
C940 C939 1.349 . S
C940 C952 1.349 . S
C941 C939 1.327 . S
C941 C957 1.429 . S
C941 H963 0.950 . S
C942 H938 0.949 . S
C942 C950 1.574 . S
C942 C958 1.368 . S
H943 C951 0.950 . S
H944 C949 0.950 . S
H945 C950 0.949 . S
H946 C952 0.950 . S
H947 C953 0.950 . S
H948 C954 0.949 . S
C949 H944 0.950 . S
C949 C951 1.327 . S
C949 C955 1.429 . S
C950 C942 1.574 . S
C950 H945 0.949 . S
C950 C956 1.368 . S
C951 C935 1.349 . S
C951 H943 0.950 . S
C951 C949 1.327 . S
C952 C940 1.349 . S
C952 H946 0.950 . S
C952 C953 1.327 . S
C953 H947 0.950 . S
C953 C952 1.327 . S
C953 C957 1.429 . S
C954 C937 1.574 . S
C954 H948 0.949 . S
C954 C958 1.368 . S
C955 C936 1.429 . S
C955 C949 1.429 . S
C955 C956 1.523 . S
C956 C937 1.368 . S
C956 C950 1.368 . S
C956 C955 1.523 . S
C957 C941 1.429 . S
C957 C953 1.429 . S
C957 C958 1.523 . S
C958 C942 1.368 . S
C958 C954 1.368 . S
C958 C957 1.523 . S
H959 C934 0.950 . S
H960 C936 0.950 . S
H961 C937 0.949 . S
H962 C939 0.950 . S
H963 C941 0.950 . S
C964 C965 1.349 . S
C964 C966 1.327 . S
C964 H989 0.950 . S
C965 C964 1.349 . S
C965 C981 1.349 . S
C966 C964 1.327 . S
C966 C985 1.429 . S
C966 H990 0.950 . S
C967 C984 1.574 . S
C967 C986 1.368 . S
C967 H991 0.949 . S
H968 C972 0.949 . S
C969 C970 1.349 . S
C969 C971 1.327 . S
C969 H992 0.950 . S
C970 C969 1.349 . S
C970 C982 1.349 . S
C971 C969 1.327 . S
C971 C987 1.429 . S
C971 H993 0.950 . S
C972 H968 0.949 . S
C972 C980 1.574 . S
C972 C988 1.368 . S
H973 C981 0.950 . S
H974 C979 0.950 . S
H975 C980 0.949 . S
H976 C982 0.950 . S
H977 C983 0.950 . S
H978 C984 0.949 . S
C979 H974 0.950 . S
C979 C981 1.327 . S
C979 C985 1.429 . S
C980 C972 1.574 . S
C980 H975 0.949 . S
C980 C986 1.368 . S
C981 C965 1.349 . S
C981 H973 0.950 . S
C981 C979 1.327 . S
C982 C970 1.349 . S
C982 H976 0.950 . S
C982 C983 1.327 . S
C983 H977 0.950 . S
C983 C982 1.327 . S
C983 C987 1.429 . S
C984 C967 1.574 . S
C984 H978 0.949 . S
C984 C988 1.368 . S
C985 C966 1.429 . S
C985 C979 1.429 . S
C985 C986 1.523 . S
C986 C967 1.368 . S
C986 C980 1.368 . S
C986 C985 1.523 . S
C987 C971 1.429 . S
C987 C983 1.429 . S
C987 C988 1.523 . S
C988 C972 1.368 . S
C988 C984 1.368 . S
C988 C987 1.523 . S
H989 C964 0.950 . S
H990 C966 0.950 . S
H991 C967 0.949 . S
H992 C969 0.950 . S
H993 C971 0.950 . S
C994 C995 1.349 . S
C994 C996 1.327 . S
C994 H1019 0.950 . S
C995 C994 1.349 . S
C995 C1011 1.349 . S
C996 C994 1.327 . S
C996 C1015 1.429 . S
C996 H1020 0.950 . S
C997 C1014 1.574 . S
C997 C1016 1.368 . S
C997 H1021 0.949 . S
H998 C1002 0.949 . S
C999 C1000 1.349 . S
C999 C1001 1.327 . S
C999 H1022 0.950 . S
C1000 C999 1.349 . S
C1000 C1012 1.349 . S
C1001 C999 1.327 . S
C1001 C1017 1.429 1_565 S
C1001 H1023 0.950 . S
C1002 H998 0.949 . S
C1002 C1010 1.574 . S
C1002 C1018 1.368 . S
H1003 C1011 0.950 . S
H1004 C1009 0.950 . S
H1005 C1010 0.949 . S
H1006 C1012 0.950 . S
H1007 C1013 0.950 . S
H1008 C1014 0.949 . S
C1009 H1004 0.950 . S
C1009 C1011 1.327 . S
C1009 C1015 1.429 . S
C1010 C1002 1.574 . S
C1010 H1005 0.949 . S
C1010 C1016 1.368 . S
C1011 C995 1.349 . S
C1011 H1003 0.950 . S
C1011 C1009 1.327 . S
C1012 C1000 1.349 . S
C1012 H1006 0.950 . S
C1012 C1013 1.327 1_565 S
C1013 H1007 0.950 . S
C1013 C1012 1.327 1_545 S
C1013 C1017 1.429 . S
C1014 C997 1.574 . S
C1014 H1008 0.949 . S
C1014 C1018 1.368 . S
C1015 C996 1.429 . S
C1015 C1009 1.429 . S
C1015 C1016 1.523 . S
C1016 C997 1.368 . S
C1016 C1010 1.368 . S
C1016 C1015 1.523 . S
C1017 C1001 1.429 1_545 S
C1017 C1013 1.429 . S
C1017 C1018 1.523 . S
C1018 C1002 1.368 . S
C1018 C1014 1.368 . S
C1018 C1017 1.523 . S
H1019 C994 0.950 . S
H1020 C996 0.950 . S
H1021 C997 0.949 . S
H1022 C999 0.950 . S
H1023 C1001 0.950 . S
C1024 C1025 1.349 . S
C1024 C1026 1.327 . S
C1024 H1049 0.950 . S
C1025 C1024 1.349 . S
C1025 C1041 1.349 . S
C1026 C1024 1.327 . S
C1026 C1045 1.429 . S
C1026 H1050 0.950 . S
C1027 C1044 1.574 . S
C1027 C1046 1.368 . S
C1027 H1051 0.949 . S
H1028 C1032 0.949 . S
C1029 C1030 1.349 . S
C1029 C1031 1.327 . S
C1029 H1052 0.950 . S
C1030 C1029 1.349 . S
C1030 C1042 1.349 . S
C1031 C1029 1.327 . S
C1031 C1047 1.429 . S
C1031 H1053 0.950 . S
C1032 H1028 0.949 . S
C1032 C1040 1.574 . S
C1032 C1048 1.368 . S
H1033 C1041 0.950 . S
H1034 C1039 0.950 . S
H1035 C1040 0.949 . S
H1036 C1042 0.950 . S
H1037 C1043 0.950 . S
H1038 C1044 0.949 . S
C1039 H1034 0.950 . S
C1039 C1041 1.327 . S
C1039 C1045 1.429 . S
C1040 C1032 1.574 . S
C1040 H1035 0.949 . S
C1040 C1046 1.368 . S
C1041 C1025 1.349 . S
C1041 H1033 0.950 . S
C1041 C1039 1.327 . S
C1042 C1030 1.349 . S
C1042 H1036 0.950 . S
C1042 C1043 1.327 . S
C1043 H1037 0.950 . S
C1043 C1042 1.327 . S
C1043 C1047 1.429 . S
C1044 C1027 1.574 . S
C1044 H1038 0.949 . S
C1044 C1048 1.368 . S
C1045 C1026 1.429 . S
C1045 C1039 1.429 . S
C1045 C1046 1.523 . S
C1046 C1027 1.368 . S
C1046 C1040 1.368 . S
C1046 C1045 1.523 . S
C1047 C1031 1.429 . S
C1047 C1043 1.429 . S
C1047 C1048 1.523 . S
C1048 C1032 1.368 . S
C1048 C1044 1.368 . S
C1048 C1047 1.523 . S
H1049 C1024 0.950 . S
H1050 C1026 0.950 . S
H1051 C1027 0.949 . S
H1052 C1029 0.950 . S
H1053 C1031 0.950 . S
C1054 C1055 1.349 . S
C1054 C1056 1.327 . S
C1054 H1079 0.950 . S
C1055 C1054 1.349 . S
C1055 C1071 1.349 . S
C1056 C1054 1.327 . S
C1056 C1075 1.429 . S
C1056 H1080 0.950 . S
C1057 C1074 1.574 . S
C1057 C1076 1.368 . S
C1057 H1081 0.949 . S
H1058 C1062 0.949 . S
C1059 C1060 1.349 . S
C1059 C1061 1.327 . S
C1059 H1082 0.950 . S
C1060 C1059 1.349 . S
C1060 C1072 1.349 . S
C1061 C1059 1.327 . S
C1061 C1077 1.429 . S
C1061 H1083 0.950 . S
C1062 H1058 0.949 . S
C1062 C1070 1.574 . S
C1062 C1078 1.368 . S
H1063 C1071 0.950 . S
H1064 C1069 0.950 . S
H1065 C1070 0.949 . S
H1066 C1072 0.950 . S
H1067 C1073 0.950 . S
H1068 C1074 0.949 . S
C1069 H1064 0.950 . S
C1069 C1071 1.327 . S
C1069 C1075 1.429 . S
C1070 C1062 1.574 . S
C1070 H1065 0.949 . S
C1070 C1076 1.368 . S
C1071 C1055 1.349 . S
C1071 H1063 0.950 . S
C1071 C1069 1.327 . S
C1072 C1060 1.349 . S
C1072 H1066 0.950 . S
C1072 C1073 1.327 . S
C1073 H1067 0.950 . S
C1073 C1072 1.327 . S
C1073 C1077 1.429 . S
C1074 C1057 1.574 . S
C1074 H1068 0.949 . S
C1074 C1078 1.368 . S
C1075 C1056 1.429 . S
C1075 C1069 1.429 . S
C1075 C1076 1.523 . S
C1076 C1057 1.368 . S
C1076 C1070 1.368 . S
C1076 C1075 1.523 . S
C1077 C1061 1.429 . S
C1077 C1073 1.429 . S
C1077 C1078 1.523 . S
C1078 C1062 1.368 . S
C1078 C1074 1.368 . S
C1078 C1077 1.523 . S
H1079 C1054 0.950 . S
H1080 C1056 0.950 . S
H1081 C1057 0.949 . S
H1082 C1059 0.950 . S
H1083 C1061 0.950 . S
C1084 C1085 1.349 . S
C1084 C1086 1.327 . S
C1084 H1109 0.950 . S
C1085 C1084 1.349 . S
C1085 C1101 1.349 . S
C1086 C1084 1.327 . S
C1086 C1105 1.429 . S
C1086 H1110 0.950 . S
C1087 C1104 1.574 . S
C1087 C1106 1.368 . S
C1087 H1111 0.949 . S
H1088 C1092 0.949 . S
C1089 C1090 1.349 . S
C1089 C1091 1.327 . S
C1089 H1112 0.950 . S
C1090 C1089 1.349 . S
C1090 C1102 1.349 . S
C1091 C1089 1.327 . S
C1091 C1107 1.429 . S
C1091 H1113 0.950 . S
C1092 H1088 0.949 . S
C1092 C1100 1.574 . S
C1092 C1108 1.368 . S
H1093 C1101 0.950 . S
H1094 C1099 0.950 . S
H1095 C1100 0.949 . S
H1096 C1102 0.950 . S
H1097 C1103 0.950 . S
H1098 C1104 0.949 . S
C1099 H1094 0.950 . S
C1099 C1101 1.327 . S
C1099 C1105 1.429 . S
C1100 C1092 1.574 . S
C1100 H1095 0.949 . S
C1100 C1106 1.368 . S
C1101 C1085 1.349 . S
C1101 H1093 0.950 . S
C1101 C1099 1.327 . S
C1102 C1090 1.349 . S
C1102 H1096 0.950 . S
C1102 C1103 1.327 . S
C1103 H1097 0.950 . S
C1103 C1102 1.327 . S
C1103 C1107 1.429 . S
C1104 C1087 1.574 . S
C1104 H1098 0.949 . S
C1104 C1108 1.368 . S
C1105 C1086 1.429 . S
C1105 C1099 1.429 . S
C1105 C1106 1.523 . S
C1106 C1087 1.368 . S
C1106 C1100 1.368 . S
C1106 C1105 1.523 . S
C1107 C1091 1.429 . S
C1107 C1103 1.429 . S
C1107 C1108 1.523 . S
C1108 C1092 1.368 . S
C1108 C1104 1.368 . S
C1108 C1107 1.523 . S
H1109 C1084 0.950 . S
H1110 C1086 0.950 . S
H1111 C1087 0.949 . S
H1112 C1089 0.950 . S
H1113 C1091 0.950 . S
C1114 C1115 1.349 . S
C1114 C1116 1.327 . S
C1114 H1139 0.950 . S
C1115 C1114 1.349 . S
C1115 C1131 1.349 . S
C1116 C1114 1.327 . S
C1116 C1135 1.429 . S
C1116 H1140 0.950 . S
C1117 C1134 1.574 . S
C1117 C1136 1.368 . S
C1117 H1141 0.949 . S
H1118 C1122 0.949 . S
C1119 C1120 1.349 . S
C1119 C1121 1.327 . S
C1119 H1142 0.950 . S
C1120 C1119 1.349 . S
C1120 C1132 1.349 . S
C1121 C1119 1.327 . S
C1121 C1137 1.429 1_565 S
C1121 H1143 0.950 . S
C1122 H1118 0.949 . S
C1122 C1130 1.574 . S
C1122 C1138 1.368 . S
H1123 C1131 0.950 . S
H1124 C1129 0.950 . S
H1125 C1130 0.949 . S
H1126 C1132 0.950 . S
H1127 C1133 0.950 . S
H1128 C1134 0.949 . S
C1129 H1124 0.950 . S
C1129 C1131 1.327 . S
C1129 C1135 1.429 . S
C1130 C1122 1.574 . S
C1130 H1125 0.949 . S
C1130 C1136 1.368 . S
C1131 C1115 1.349 . S
C1131 H1123 0.950 . S
C1131 C1129 1.327 . S
C1132 C1120 1.349 . S
C1132 H1126 0.950 . S
C1132 C1133 1.327 1_565 S
C1133 H1127 0.950 . S
C1133 C1132 1.327 1_545 S
C1133 C1137 1.429 . S
C1134 C1117 1.574 . S
C1134 H1128 0.949 . S
C1134 C1138 1.368 . S
C1135 C1116 1.429 . S
C1135 C1129 1.429 . S
C1135 C1136 1.523 . S
C1136 C1117 1.368 . S
C1136 C1130 1.368 . S
C1136 C1135 1.523 . S
C1137 C1121 1.429 1_545 S
C1137 C1133 1.429 . S
C1137 C1138 1.523 . S
C1138 C1122 1.368 . S
C1138 C1134 1.368 . S
C1138 C1137 1.523 . S
H1139 C1114 0.950 . S
H1140 C1116 0.950 . S
H1141 C1117 0.949 . S
H1142 C1119 0.950 . S
H1143 C1121 0.950 . S
C1144 C1145 1.349 . S
C1144 C1146 1.327 . S
C1144 H1169 0.950 . S
C1145 C1144 1.349 . S
C1145 C1161 1.349 . S
C1146 C1144 1.327 . S
C1146 C1165 1.429 . S
C1146 H1170 0.950 . S
C1147 C1164 1.574 . S
C1147 C1166 1.368 . S
C1147 H1171 0.949 . S
H1148 C1152 0.949 . S
C1149 C1150 1.349 . S
C1149 C1151 1.327 . S
C1149 H1172 0.950 . S
C1150 C1149 1.349 . S
C1150 C1162 1.349 . S
C1151 C1149 1.327 . S
C1151 C1167 1.429 . S
C1151 H1173 0.950 . S
C1152 H1148 0.949 . S
C1152 C1160 1.574 . S
C1152 C1168 1.368 . S
H1153 C1161 0.950 . S
H1154 C1159 0.950 . S
H1155 C1160 0.949 . S
H1156 C1162 0.950 . S
H1157 C1163 0.950 . S
H1158 C1164 0.949 . S
C1159 H1154 0.950 . S
C1159 C1161 1.327 . S
C1159 C1165 1.429 . S
C1160 C1152 1.574 . S
C1160 H1155 0.949 . S
C1160 C1166 1.368 . S
C1161 C1145 1.349 . S
C1161 H1153 0.950 . S
C1161 C1159 1.327 . S
C1162 C1150 1.349 . S
C1162 H1156 0.950 . S
C1162 C1163 1.327 . S
C1163 H1157 0.950 . S
C1163 C1162 1.327 . S
C1163 C1167 1.429 . S
C1164 C1147 1.574 . S
C1164 H1158 0.949 . S
C1164 C1168 1.368 . S
C1165 C1146 1.429 . S
C1165 C1159 1.429 . S
C1165 C1166 1.523 . S
C1166 C1147 1.368 . S
C1166 C1160 1.368 . S
C1166 C1165 1.523 . S
C1167 C1151 1.429 . S
C1167 C1163 1.429 . S
C1167 C1168 1.523 . S
C1168 C1152 1.368 . S
C1168 C1164 1.368 . S
C1168 C1167 1.523 . S
H1169 C1144 0.950 . S
H1170 C1146 0.950 . S
H1171 C1147 0.949 . S
H1172 C1149 0.950 . S
H1173 C1151 0.950 . S
C1174 C1175 1.349 . S
C1174 C1176 1.327 . S
C1174 H1199 0.950 . S
C1175 C1174 1.349 . S
C1175 C1191 1.349 . S
C1176 C1174 1.327 . S
C1176 C1195 1.429 . S
C1176 H1200 0.950 . S
C1177 C1194 1.574 . S
C1177 C1196 1.368 . S
C1177 H1201 0.949 . S
H1178 C1182 0.949 . S
C1179 C1180 1.349 . S
C1179 C1181 1.327 . S
C1179 H1202 0.950 . S
C1180 C1179 1.349 . S
C1180 C1192 1.349 . S
C1181 C1179 1.327 . S
C1181 C1197 1.429 . S
C1181 H1203 0.950 . S
C1182 H1178 0.949 . S
C1182 C1190 1.574 . S
C1182 C1198 1.368 . S
H1183 C1191 0.950 . S
H1184 C1189 0.950 . S
H1185 C1190 0.949 . S
H1186 C1192 0.950 . S
H1187 C1193 0.950 . S
H1188 C1194 0.949 . S
C1189 H1184 0.950 . S
C1189 C1191 1.327 . S
C1189 C1195 1.429 . S
C1190 C1182 1.574 . S
C1190 H1185 0.949 . S
C1190 C1196 1.368 . S
C1191 C1175 1.349 . S
C1191 H1183 0.950 . S
C1191 C1189 1.327 . S
C1192 C1180 1.349 . S
C1192 H1186 0.950 . S
C1192 C1193 1.327 . S
C1193 H1187 0.950 . S
C1193 C1192 1.327 . S
C1193 C1197 1.429 . S
C1194 C1177 1.574 . S
C1194 H1188 0.949 . S
C1194 C1198 1.368 . S
C1195 C1176 1.429 . S
C1195 C1189 1.429 . S
C1195 C1196 1.523 . S
C1196 C1177 1.368 . S
C1196 C1190 1.368 . S
C1196 C1195 1.523 . S
C1197 C1181 1.429 . S
C1197 C1193 1.429 . S
C1197 C1198 1.523 . S
C1198 C1182 1.368 . S
C1198 C1194 1.368 . S
C1198 C1197 1.523 . S
H1199 C1174 0.950 . S
H1200 C1176 0.950 . S
H1201 C1177 0.949 . S
H1202 C1179 0.950 . S
H1203 C1181 0.950 . S
C1204 C1205 1.349 . S
C1204 C1206 1.327 . S
C1204 H1229 0.950 . S
C1205 C1204 1.349 . S
C1205 C1221 1.349 . S
C1206 C1204 1.327 . S
C1206 C1225 1.429 . S
C1206 H1230 0.950 . S
C1207 C1224 1.574 . S
C1207 C1226 1.368 . S
C1207 H1231 0.949 . S
H1208 C1212 0.949 . S
C1209 C1210 1.349 . S
C1209 C1211 1.327 . S
C1209 H1232 0.950 . S
C1210 C1209 1.349 . S
C1210 C1222 1.349 . S
C1211 C1209 1.327 . S
C1211 C1227 1.429 . S
C1211 H1233 0.950 . S
C1212 H1208 0.949 . S
C1212 C1220 1.574 . S
C1212 C1228 1.368 . S
H1213 C1221 0.950 . S
H1214 C1219 0.950 . S
H1215 C1220 0.949 . S
H1216 C1222 0.950 . S
H1217 C1223 0.950 . S
H1218 C1224 0.949 . S
C1219 H1214 0.950 . S
C1219 C1221 1.327 . S
C1219 C1225 1.429 . S
C1220 C1212 1.574 . S
C1220 H1215 0.949 . S
C1220 C1226 1.368 . S
C1221 C1205 1.349 . S
C1221 H1213 0.950 . S
C1221 C1219 1.327 . S
C1222 C1210 1.349 . S
C1222 H1216 0.950 . S
C1222 C1223 1.327 . S
C1223 H1217 0.950 . S
C1223 C1222 1.327 . S
C1223 C1227 1.429 . S
C1224 C1207 1.574 . S
C1224 H1218 0.949 . S
C1224 C1228 1.368 . S
C1225 C1206 1.429 . S
C1225 C1219 1.429 . S
C1225 C1226 1.523 . S
C1226 C1207 1.368 . S
C1226 C1220 1.368 . S
C1226 C1225 1.523 . S
C1227 C1211 1.429 . S
C1227 C1223 1.429 . S
C1227 C1228 1.523 . S
C1228 C1212 1.368 . S
C1228 C1224 1.368 . S
C1228 C1227 1.523 . S
H1229 C1204 0.950 . S
H1230 C1206 0.950 . S
H1231 C1207 0.949 . S
H1232 C1209 0.950 . S
H1233 C1211 0.950 . S
C1234 C1235 1.349 . S
C1234 C1236 1.327 . S
C1234 H1259 0.950 . S
C1235 C1234 1.349 . S
C1235 C1251 1.349 . S
C1236 C1234 1.327 . S
C1236 C1255 1.429 . S
C1236 H1260 0.950 . S
C1237 C1254 1.574 . S
C1237 C1256 1.368 . S
C1237 H1261 0.949 . S
H1238 C1242 0.949 . S
C1239 C1240 1.349 . S
C1239 C1241 1.327 . S
C1239 H1262 0.950 . S
C1240 C1239 1.349 . S
C1240 C1252 1.349 . S
C1241 C1239 1.327 . S
C1241 C1257 1.429 . S
C1241 H1263 0.950 . S
C1242 H1238 0.949 . S
C1242 C1250 1.574 . S
C1242 C1258 1.368 . S
H1243 C1251 0.950 . S
H1244 C1249 0.950 . S
H1245 C1250 0.949 . S
H1246 C1252 0.950 . S
H1247 C1253 0.950 . S
H1248 C1254 0.949 . S
C1249 H1244 0.950 . S
C1249 C1251 1.327 . S
C1249 C1255 1.429 . S
C1250 C1242 1.574 . S
C1250 H1245 0.949 . S
C1250 C1256 1.368 . S
C1251 C1235 1.349 . S
C1251 H1243 0.950 . S
C1251 C1249 1.327 . S
C1252 C1240 1.349 . S
C1252 H1246 0.950 . S
C1252 C1253 1.327 . S
C1253 H1247 0.950 . S
C1253 C1252 1.327 . S
C1253 C1257 1.429 . S
C1254 C1237 1.574 . S
C1254 H1248 0.949 . S
C1254 C1258 1.368 . S
C1255 C1236 1.429 . S
C1255 C1249 1.429 . S
C1255 C1256 1.523 . S
C1256 C1237 1.368 . S
C1256 C1250 1.368 . S
C1256 C1255 1.523 . S
C1257 C1241 1.429 . S
C1257 C1253 1.429 . S
C1257 C1258 1.523 . S
C1258 C1242 1.368 . S
C1258 C1254 1.368 . S
C1258 C1257 1.523 . S
H1259 C1234 0.950 . S
H1260 C1236 0.950 . S
H1261 C1237 0.949 . S
H1262 C1239 0.950 . S
H1263 C1241 0.950 . S
C1264 C1265 1.349 . S
C1264 C1266 1.327 . S
C1264 H1289 0.950 . S
C1265 C1264 1.349 . S
C1265 C1281 1.349 . S
C1266 C1264 1.327 . S
C1266 C1285 1.429 . S
C1266 H1290 0.950 . S
C1267 C1284 1.574 . S
C1267 C1286 1.368 . S
C1267 H1291 0.949 . S
H1268 C1272 0.949 . S
C1269 C1270 1.349 . S
C1269 C1271 1.327 . S
C1269 H1292 0.950 . S
C1270 C1269 1.349 . S
C1270 C1282 1.349 . S
C1271 C1269 1.327 . S
C1271 C1287 1.429 . S
C1271 H1293 0.950 . S
C1272 H1268 0.949 . S
C1272 C1280 1.574 . S
C1272 C1288 1.368 . S
H1273 C1281 0.950 . S
H1274 C1279 0.950 . S
H1275 C1280 0.949 . S
H1276 C1282 0.950 . S
H1277 C1283 0.950 . S
H1278 C1284 0.949 . S
C1279 H1274 0.950 . S
C1279 C1281 1.327 . S
C1279 C1285 1.429 . S
C1280 C1272 1.574 . S
C1280 H1275 0.949 . S
C1280 C1286 1.368 . S
C1281 C1265 1.349 . S
C1281 H1273 0.950 . S
C1281 C1279 1.327 . S
C1282 C1270 1.349 . S
C1282 H1276 0.950 . S
C1282 C1283 1.327 . S
C1283 H1277 0.950 . S
C1283 C1282 1.327 . S
C1283 C1287 1.429 . S
C1284 C1267 1.574 . S
C1284 H1278 0.949 . S
C1284 C1288 1.368 . S
C1285 C1266 1.429 . S
C1285 C1279 1.429 . S
C1285 C1286 1.523 . S
C1286 C1267 1.368 . S
C1286 C1280 1.368 . S
C1286 C1285 1.523 . S
C1287 C1271 1.429 . S
C1287 C1283 1.429 . S
C1287 C1288 1.523 . S
C1288 C1272 1.368 . S
C1288 C1284 1.368 . S
C1288 C1287 1.523 . S
H1289 C1264 0.950 . S
H1290 C1266 0.950 . S
H1291 C1267 0.949 . S
H1292 C1269 0.950 . S
H1293 C1271 0.950 . S
C1294 C1295 1.349 . S
C1294 C1296 1.327 . S
C1294 H1319 0.950 . S
C1295 C1294 1.349 . S
C1295 C1311 1.349 . S
C1296 C1294 1.327 . S
C1296 C1315 1.429 . S
C1296 H1320 0.950 . S
C1297 C1314 1.574 . S
C1297 C1316 1.368 . S
C1297 H1321 0.949 . S
H1298 C1302 0.949 . S
C1299 C1300 1.349 . S
C1299 C1301 1.327 . S
C1299 H1322 0.950 . S
C1300 C1299 1.349 . S
C1300 C1312 1.349 . S
C1301 C1299 1.327 . S
C1301 C1317 1.429 . S
C1301 H1323 0.950 . S
C1302 H1298 0.949 . S
C1302 C1310 1.574 . S
C1302 C1318 1.368 . S
H1303 C1311 0.950 . S
H1304 C1309 0.950 . S
H1305 C1310 0.949 . S
H1306 C1312 0.950 . S
H1307 C1313 0.950 . S
H1308 C1314 0.949 . S
C1309 H1304 0.950 . S
C1309 C1311 1.327 . S
C1309 C1315 1.429 . S
C1310 C1302 1.574 . S
C1310 H1305 0.949 . S
C1310 C1316 1.368 . S
C1311 C1295 1.349 . S
C1311 H1303 0.950 . S
C1311 C1309 1.327 . S
C1312 C1300 1.349 . S
C1312 H1306 0.950 . S
C1312 C1313 1.327 . S
C1313 H1307 0.950 . S
C1313 C1312 1.327 . S
C1313 C1317 1.429 . S
C1314 C1297 1.574 . S
C1314 H1308 0.949 . S
C1314 C1318 1.368 . S
C1315 C1296 1.429 . S
C1315 C1309 1.429 . S
C1315 C1316 1.523 . S
C1316 C1297 1.368 . S
C1316 C1310 1.368 . S
C1316 C1315 1.523 . S
C1317 C1301 1.429 . S
C1317 C1313 1.429 . S
C1317 C1318 1.523 . S
C1318 C1302 1.368 . S
C1318 C1314 1.368 . S
C1318 C1317 1.523 . S
H1319 C1294 0.950 . S
H1320 C1296 0.950 . S
H1321 C1297 0.949 . S
H1322 C1299 0.950 . S
H1323 C1301 0.950 . S
C1324 C1325 1.349 . S
C1324 C1326 1.327 . S
C1324 H1349 0.950 . S
C1325 C1324 1.349 . S
C1325 C1341 1.349 . S
C1326 C1324 1.327 . S
C1326 C1345 1.429 . S
C1326 H1350 0.950 . S
C1327 C1344 1.574 . S
C1327 C1346 1.368 . S
C1327 H1351 0.949 . S
H1328 C1332 0.949 . S
C1329 C1330 1.349 . S
C1329 C1331 1.327 1_455 S
C1329 H1352 0.950 . S
C1330 C1329 1.349 . S
C1330 C1342 1.349 . S
C1331 C1329 1.327 1_655 S
C1331 C1347 1.429 . S
C1331 H1353 0.950 . S
C1332 H1328 0.949 . S
C1332 C1340 1.574 . S
C1332 C1348 1.368 . S
H1333 C1341 0.950 . S
H1334 C1339 0.950 . S
H1335 C1340 0.949 . S
H1336 C1342 0.950 . S
H1337 C1343 0.950 . S
H1338 C1344 0.949 . S
C1339 H1334 0.950 . S
C1339 C1341 1.327 . S
C1339 C1345 1.429 . S
C1340 C1332 1.574 . S
C1340 H1335 0.949 . S
C1340 C1346 1.368 . S
C1341 C1325 1.349 . S
C1341 H1333 0.950 . S
C1341 C1339 1.327 . S
C1342 C1330 1.349 . S
C1342 H1336 0.950 . S
C1342 C1343 1.327 . S
C1343 H1337 0.950 . S
C1343 C1342 1.327 . S
C1343 C1347 1.429 1_455 S
C1344 C1327 1.574 . S
C1344 H1338 0.949 . S
C1344 C1348 1.368 . S
C1345 C1326 1.429 . S
C1345 C1339 1.429 . S
C1345 C1346 1.523 . S
C1346 C1327 1.368 . S
C1346 C1340 1.368 . S
C1346 C1345 1.523 . S
C1347 C1331 1.429 . S
C1347 C1343 1.429 1_655 S
C1347 C1348 1.523 . S
C1348 C1332 1.368 . S
C1348 C1344 1.368 . S
C1348 C1347 1.523 . S
H1349 C1324 0.950 . S
H1350 C1326 0.950 . S
H1351 C1327 0.949 . S
H1352 C1329 0.950 . S
H1353 C1331 0.950 . S
C1354 C1355 1.349 . S
C1354 C1356 1.327 . S
C1354 H1379 0.950 . S
C1355 C1354 1.349 . S
C1355 C1371 1.349 . S
C1356 C1354 1.327 . S
C1356 C1375 1.429 . S
C1356 H1380 0.950 . S
C1357 C1374 1.574 . S
C1357 C1376 1.368 . S
C1357 H1381 0.949 . S
H1358 C1362 0.949 . S
C1359 C1360 1.349 . S
C1359 C1361 1.327 . S
C1359 H1382 0.950 . S
C1360 C1359 1.349 . S
C1360 C1372 1.349 . S
C1361 C1359 1.327 . S
C1361 C1377 1.429 . S
C1361 H1383 0.950 . S
C1362 H1358 0.949 . S
C1362 C1370 1.574 . S
C1362 C1378 1.368 . S
H1363 C1371 0.950 . S
H1364 C1369 0.950 . S
H1365 C1370 0.949 . S
H1366 C1372 0.950 . S
H1367 C1373 0.950 . S
H1368 C1374 0.949 . S
C1369 H1364 0.950 . S
C1369 C1371 1.327 . S
C1369 C1375 1.429 . S
C1370 C1362 1.574 . S
C1370 H1365 0.949 . S
C1370 C1376 1.368 . S
C1371 C1355 1.349 . S
C1371 H1363 0.950 . S
C1371 C1369 1.327 . S
C1372 C1360 1.349 . S
C1372 H1366 0.950 . S
C1372 C1373 1.327 . S
C1373 H1367 0.950 . S
C1373 C1372 1.327 . S
C1373 C1377 1.429 . S
C1374 C1357 1.574 . S
C1374 H1368 0.949 . S
C1374 C1378 1.368 . S
C1375 C1356 1.429 . S
C1375 C1369 1.429 . S
C1375 C1376 1.523 . S
C1376 C1357 1.368 . S
C1376 C1370 1.368 . S
C1376 C1375 1.523 . S
C1377 C1361 1.429 . S
C1377 C1373 1.429 . S
C1377 C1378 1.523 . S
C1378 C1362 1.368 . S
C1378 C1374 1.368 . S
C1378 C1377 1.523 . S
H1379 C1354 0.950 . S
H1380 C1356 0.950 . S
H1381 C1357 0.949 . S
H1382 C1359 0.950 . S
H1383 C1361 0.950 . S
C1384 C1385 1.349 . S
C1384 C1386 1.327 . S
C1384 H1409 0.950 . S
C1385 C1384 1.349 . S
C1385 C1401 1.349 . S
C1386 C1384 1.327 . S
C1386 C1405 1.429 . S
C1386 H1410 0.950 . S
C1387 C1404 1.574 . S
C1387 C1406 1.368 . S
C1387 H1411 0.949 . S
H1388 C1392 0.949 . S
C1389 C1390 1.349 . S
C1389 C1391 1.327 . S
C1389 H1412 0.950 . S
C1390 C1389 1.349 . S
C1390 C1402 1.349 . S
C1391 C1389 1.327 . S
C1391 C1407 1.429 . S
C1391 H1413 0.950 . S
C1392 H1388 0.949 . S
C1392 C1400 1.574 . S
C1392 C1408 1.368 . S
H1393 C1401 0.950 . S
H1394 C1399 0.950 . S
H1395 C1400 0.949 . S
H1396 C1402 0.950 . S
H1397 C1403 0.950 . S
H1398 C1404 0.949 . S
C1399 H1394 0.950 . S
C1399 C1401 1.327 . S
C1399 C1405 1.429 . S
C1400 C1392 1.574 . S
C1400 H1395 0.949 . S
C1400 C1406 1.368 . S
C1401 C1385 1.349 . S
C1401 H1393 0.950 . S
C1401 C1399 1.327 . S
C1402 C1390 1.349 . S
C1402 H1396 0.950 . S
C1402 C1403 1.327 . S
C1403 H1397 0.950 . S
C1403 C1402 1.327 . S
C1403 C1407 1.429 . S
C1404 C1387 1.574 . S
C1404 H1398 0.949 . S
C1404 C1408 1.368 . S
C1405 C1386 1.429 . S
C1405 C1399 1.429 . S
C1405 C1406 1.523 . S
C1406 C1387 1.368 . S
C1406 C1400 1.368 . S
C1406 C1405 1.523 . S
C1407 C1391 1.429 . S
C1407 C1403 1.429 . S
C1407 C1408 1.523 . S
C1408 C1392 1.368 . S
C1408 C1404 1.368 . S
C1408 C1407 1.523 . S
H1409 C1384 0.950 . S
H1410 C1386 0.950 . S
H1411 C1387 0.949 . S
H1412 C1389 0.950 . S
H1413 C1391 0.950 . S
C1414 C1415 1.349 . S
C1414 C1416 1.327 . S
C1414 H1439 0.950 . S
C1415 C1414 1.349 . S
C1415 C1431 1.349 . S
C1416 C1414 1.327 . S
C1416 C1435 1.429 . S
C1416 H1440 0.950 . S
C1417 C1434 1.574 . S
C1417 C1436 1.368 . S
C1417 H1441 0.949 . S
H1418 C1422 0.949 . S
C1419 C1420 1.349 . S
C1419 C1421 1.327 . S
C1419 H1442 0.950 . S
C1420 C1419 1.349 . S
C1420 C1432 1.349 . S
C1421 C1419 1.327 . S
C1421 C1437 1.429 . S
C1421 H1443 0.950 . S
C1422 H1418 0.949 . S
C1422 C1430 1.574 . S
C1422 C1438 1.368 . S
H1423 C1431 0.950 . S
H1424 C1429 0.950 . S
H1425 C1430 0.949 . S
H1426 C1432 0.950 . S
H1427 C1433 0.950 . S
H1428 C1434 0.949 . S
C1429 H1424 0.950 . S
C1429 C1431 1.327 . S
C1429 C1435 1.429 . S
C1430 C1422 1.574 . S
C1430 H1425 0.949 . S
C1430 C1436 1.368 . S
C1431 C1415 1.349 . S
C1431 H1423 0.950 . S
C1431 C1429 1.327 . S
C1432 C1420 1.349 . S
C1432 H1426 0.950 . S
C1432 C1433 1.327 . S
C1433 H1427 0.950 . S
C1433 C1432 1.327 . S
C1433 C1437 1.429 . S
C1434 C1417 1.574 . S
C1434 H1428 0.949 . S
C1434 C1438 1.368 . S
C1435 C1416 1.429 . S
C1435 C1429 1.429 . S
C1435 C1436 1.523 . S
C1436 C1417 1.368 . S
C1436 C1430 1.368 . S
C1436 C1435 1.523 . S
C1437 C1421 1.429 . S
C1437 C1433 1.429 . S
C1437 C1438 1.523 . S
C1438 C1422 1.368 . S
C1438 C1434 1.368 . S
C1438 C1437 1.523 . S
H1439 C1414 0.950 . S
H1440 C1416 0.950 . S
H1441 C1417 0.949 . S
H1442 C1419 0.950 . S
H1443 C1421 0.950 . S
C1444 C1445 1.349 . S
C1444 C1446 1.327 . S
C1444 H1469 0.950 . S
C1445 C1444 1.349 . S
C1445 C1461 1.349 . S
C1446 C1444 1.327 . S
C1446 C1465 1.429 . S
C1446 H1470 0.950 . S
C1447 C1464 1.574 . S
C1447 C1466 1.368 . S
C1447 H1471 0.949 . S
H1448 C1452 0.949 . S
C1449 C1450 1.349 . S
C1449 C1451 1.327 . S
C1449 H1472 0.950 . S
C1450 C1449 1.349 . S
C1450 C1462 1.349 . S
C1451 C1449 1.327 . S
C1451 C1467 1.429 . S
C1451 H1473 0.950 . S
C1452 H1448 0.949 . S
C1452 C1460 1.574 . S
C1452 C1468 1.368 . S
H1453 C1461 0.950 . S
H1454 C1459 0.950 . S
H1455 C1460 0.949 . S
H1456 C1462 0.950 . S
H1457 C1463 0.950 . S
H1458 C1464 0.949 . S
C1459 H1454 0.950 . S
C1459 C1461 1.327 . S
C1459 C1465 1.429 . S
C1460 C1452 1.574 . S
C1460 H1455 0.949 . S
C1460 C1466 1.368 . S
C1461 C1445 1.349 . S
C1461 H1453 0.950 . S
C1461 C1459 1.327 . S
C1462 C1450 1.349 . S
C1462 H1456 0.950 . S
C1462 C1463 1.327 . S
C1463 H1457 0.950 . S
C1463 C1462 1.327 . S
C1463 C1467 1.429 . S
C1464 C1447 1.574 . S
C1464 H1458 0.949 . S
C1464 C1468 1.368 . S
C1465 C1446 1.429 . S
C1465 C1459 1.429 . S
C1465 C1466 1.523 . S
C1466 C1447 1.368 . S
C1466 C1460 1.368 . S
C1466 C1465 1.523 . S
C1467 C1451 1.429 . S
C1467 C1463 1.429 . S
C1467 C1468 1.523 . S
C1468 C1452 1.368 . S
C1468 C1464 1.368 . S
C1468 C1467 1.523 . S
H1469 C1444 0.950 . S
H1470 C1446 0.950 . S
H1471 C1447 0.949 . S
H1472 C1449 0.950 . S
H1473 C1451 0.950 . S
C1474 C1475 1.349 . S
C1474 C1476 1.327 . S
C1474 H1499 0.950 . S
C1475 C1474 1.349 . S
C1475 C1491 1.349 . S
C1476 C1474 1.327 . S
C1476 C1495 1.429 . S
C1476 H1500 0.950 . S
C1477 C1494 1.574 . S
C1477 C1496 1.368 . S
C1477 H1501 0.949 . S
H1478 C1482 0.949 . S
C1479 C1480 1.349 . S
C1479 C1481 1.327 1_556 S
C1479 H1502 0.950 . S
C1480 C1479 1.349 . S
C1480 C1492 1.349 . S
C1481 C1479 1.327 1_554 S
C1481 C1497 1.429 . S
C1481 H1503 0.950 . S
C1482 H1478 0.949 . S
C1482 C1490 1.574 . S
C1482 C1498 1.368 . S
H1483 C1491 0.950 . S
H1484 C1489 0.950 . S
H1485 C1490 0.949 . S
H1486 C1492 0.950 . S
H1487 C1493 0.950 . S
H1488 C1494 0.949 . S
C1489 H1484 0.950 . S
C1489 C1491 1.327 . S
C1489 C1495 1.429 . S
C1490 C1482 1.574 . S
C1490 H1485 0.949 . S
C1490 C1496 1.368 . S
C1491 C1475 1.349 . S
C1491 H1483 0.950 . S
C1491 C1489 1.327 . S
C1492 C1480 1.349 . S
C1492 H1486 0.950 . S
C1492 C1493 1.327 . S
C1493 H1487 0.950 . S
C1493 C1492 1.327 . S
C1493 C1497 1.429 1_556 S
C1494 C1477 1.574 . S
C1494 H1488 0.949 . S
C1494 C1498 1.368 . S
C1495 C1476 1.429 . S
C1495 C1489 1.429 . S
C1495 C1496 1.523 . S
C1496 C1477 1.368 . S
C1496 C1490 1.368 . S
C1496 C1495 1.523 . S
C1497 C1481 1.429 . S
C1497 C1493 1.429 1_554 S
C1497 C1498 1.523 . S
C1498 C1482 1.368 . S
C1498 C1494 1.368 . S
C1498 C1497 1.523 . S
H1499 C1474 0.950 . S
H1500 C1476 0.950 . S
H1501 C1477 0.949 . S
H1502 C1479 0.950 . S
H1503 C1481 0.950 . S
C1504 C1505 1.349 . S
C1504 C1506 1.327 . S
C1504 H1529 0.950 . S
C1505 C1504 1.349 . S
C1505 C1521 1.349 . S
C1506 C1504 1.327 . S
C1506 C1525 1.429 . S
C1506 H1530 0.950 . S
C1507 C1524 1.574 . S
C1507 C1526 1.368 . S
C1507 H1531 0.949 . S
H1508 C1512 0.949 . S
C1509 C1510 1.349 . S
C1509 C1511 1.327 . S
C1509 H1532 0.950 . S
C1510 C1509 1.349 . S
C1510 C1522 1.349 . S
C1511 C1509 1.327 . S
C1511 C1527 1.429 . S
C1511 H1533 0.950 . S
C1512 H1508 0.949 . S
C1512 C1520 1.574 . S
C1512 C1528 1.368 . S
H1513 C1521 0.950 . S
H1514 C1519 0.950 . S
H1515 C1520 0.949 . S
H1516 C1522 0.950 . S
H1517 C1523 0.950 . S
H1518 C1524 0.949 . S
C1519 H1514 0.950 . S
C1519 C1521 1.327 . S
C1519 C1525 1.429 . S
C1520 C1512 1.574 . S
C1520 H1515 0.949 . S
C1520 C1526 1.368 . S
C1521 C1505 1.349 . S
C1521 H1513 0.950 . S
C1521 C1519 1.327 . S
C1522 C1510 1.349 . S
C1522 H1516 0.950 . S
C1522 C1523 1.327 . S
C1523 H1517 0.950 . S
C1523 C1522 1.327 . S
C1523 C1527 1.429 . S
C1524 C1507 1.574 . S
C1524 H1518 0.949 . S
C1524 C1528 1.368 . S
C1525 C1506 1.429 . S
C1525 C1519 1.429 . S
C1525 C1526 1.523 . S
C1526 C1507 1.368 . S
C1526 C1520 1.368 . S
C1526 C1525 1.523 . S
C1527 C1511 1.429 . S
C1527 C1523 1.429 . S
C1527 C1528 1.523 . S
C1528 C1512 1.368 . S
C1528 C1524 1.368 . S
C1528 C1527 1.523 . S
H1529 C1504 0.950 . S
H1530 C1506 0.950 . S
H1531 C1507 0.949 . S
H1532 C1509 0.950 . S
H1533 C1511 0.950 . S
C1534 C1535 1.349 . S
C1534 C1536 1.327 . S
C1534 H1559 0.950 . S
C1535 C1534 1.349 . S
C1535 C1551 1.349 . S
C1536 C1534 1.327 . S
C1536 C1555 1.429 . S
C1536 H1560 0.950 . S
C1537 C1554 1.574 . S
C1537 C1556 1.368 . S
C1537 H1561 0.949 . S
H1538 C1542 0.949 . S
C1539 C1540 1.349 . S
C1539 C1541 1.290 1_556 S
C1539 H1562 0.950 . S
C1540 C1539 1.349 . S
C1540 C1552 1.349 . S
C1541 C1539 1.290 1_554 S
C1541 C1557 1.439 . S
C1541 H1563 0.978 . S
C1542 H1538 0.949 . S
C1542 C1550 1.574 . S
C1542 C1558 1.368 . S
H1543 C1551 0.950 . S
H1544 C1549 0.950 . S
H1545 C1550 0.949 . S
H1546 C1552 0.950 . S
H1547 C1553 0.950 . S
H1548 C1554 0.949 . S
C1549 H1544 0.950 . S
C1549 C1551 1.327 . S
C1549 C1555 1.429 . S
C1550 C1542 1.574 . S
C1550 H1545 0.949 . S
C1550 C1556 1.368 . S
C1551 C1535 1.349 . S
C1551 H1543 0.950 . S
C1551 C1549 1.327 . S
C1552 C1540 1.349 . S
C1552 H1546 0.950 . S
C1552 C1553 1.327 . S
C1553 H1547 0.950 . S
C1553 C1552 1.327 . S
C1553 C1557 1.429 1_556 S
C1554 C1537 1.574 . S
C1554 H1548 0.949 . S
C1554 C1558 1.368 . S
C1555 C1536 1.429 . S
C1555 C1549 1.429 . S
C1555 C1556 1.523 . S
C1556 C1537 1.368 . S
C1556 C1550 1.368 . S
C1556 C1555 1.523 . S
C1557 C1541 1.439 . S
C1557 C1553 1.429 1_554 S
C1557 C1558 1.523 . S
C1558 C1542 1.368 . S
C1558 C1554 1.368 . S
C1558 C1557 1.523 . S
H1559 C1534 0.950 . S
H1560 C1536 0.950 . S
H1561 C1537 0.949 . S
H1562 C1539 0.950 . S
H1563 C1541 0.978 . S
C1564 C1565 1.349 . S
C1564 C1566 1.327 . S
C1564 H1589 0.950 . S
C1565 C1564 1.349 . S
C1565 C1581 1.349 . S
C1566 C1564 1.327 . S
C1566 C1585 1.429 . S
C1566 H1590 0.950 . S
C1567 C1584 1.574 . S
C1567 C1586 1.368 . S
C1567 H1591 0.949 . S
H1568 C1572 0.949 . S
C1569 C1570 1.349 . S
C1569 C1571 1.327 . S
C1569 H1592 0.950 . S
C1570 C1569 1.349 . S
C1570 C1582 1.349 . S
C1571 C1569 1.327 . S
C1571 C1587 1.429 . S
C1571 H1593 0.950 . S
C1572 H1568 0.949 . S
C1572 C1580 1.574 . S
C1572 C1588 1.368 . S
H1573 C1581 0.950 . S
H1574 C1579 0.950 . S
H1575 C1580 0.949 . S
H1576 C1582 0.950 . S
H1577 C1583 0.950 . S
H1578 C1584 0.949 . S
C1579 H1574 0.950 . S
C1579 C1581 1.327 . S
C1579 C1585 1.429 . S
C1580 C1572 1.574 . S
C1580 H1575 0.949 . S
C1580 C1586 1.368 . S
C1581 C1565 1.349 . S
C1581 H1573 0.950 . S
C1581 C1579 1.327 . S
C1582 C1570 1.349 . S
C1582 H1576 0.950 . S
C1582 C1583 1.327 . S
C1583 H1577 0.950 . S
C1583 C1582 1.327 . S
C1583 C1587 1.429 . S
C1584 C1567 1.574 . S
C1584 H1578 0.949 . S
C1584 C1588 1.368 . S
C1585 C1566 1.429 . S
C1585 C1579 1.429 . S
C1585 C1586 1.523 . S
C1586 C1567 1.368 . S
C1586 C1580 1.368 . S
C1586 C1585 1.523 . S
C1587 C1571 1.429 . S
C1587 C1583 1.429 . S
C1587 C1588 1.523 . S
C1588 C1572 1.368 . S
C1588 C1584 1.368 . S
C1588 C1587 1.523 . S
H1589 C1564 0.950 . S
H1590 C1566 0.950 . S
H1591 C1567 0.949 . S
H1592 C1569 0.950 . S
H1593 C1571 0.950 . S
C1594 C1595 1.349 . S
C1594 C1596 1.327 . S
C1594 H1619 0.950 . S
C1595 C1594 1.349 . S
C1595 C1611 1.349 . S
C1596 C1594 1.327 . S
C1596 C1615 1.429 . S
C1596 H1620 0.950 . S
C1597 C1614 1.574 . S
C1597 C1616 1.368 . S
C1597 H1621 0.949 . S
H1598 C1602 0.949 . S
C1599 C1600 1.349 . S
C1599 C1601 1.327 . S
C1599 H1622 0.950 . S
C1600 C1599 1.349 . S
C1600 C1612 1.349 . S
C1601 C1599 1.327 . S
C1601 C1617 1.429 1_554 S
C1601 H1623 0.950 . S
C1602 H1598 0.949 . S
C1602 C1610 1.574 . S
C1602 C1618 1.368 . S
H1603 C1611 0.950 . S
H1604 C1609 0.950 . S
H1605 C1610 0.949 . S
H1606 C1612 0.950 . S
H1607 C1613 0.965 . S
H1608 C1614 0.949 . S
C1609 H1604 0.950 . S
C1609 C1611 1.327 . S
C1609 C1615 1.429 . S
C1610 C1602 1.574 . S
C1610 H1605 0.949 . S
C1610 C1616 1.368 . S
C1611 C1595 1.349 . S
C1611 H1603 0.950 . S
C1611 C1609 1.327 . S
C1612 C1600 1.349 . S
C1612 H1606 0.950 . S
C1612 C1613 1.309 1_554 S
C1613 H1607 0.965 . S
C1613 C1612 1.309 1_556 S
C1613 C1617 1.431 . S
C1614 C1597 1.574 . S
C1614 H1608 0.949 . S
C1614 C1618 1.368 . S
C1615 C1596 1.429 . S
C1615 C1609 1.429 . S
C1615 C1616 1.523 . S
C1616 C1597 1.368 . S
C1616 C1610 1.368 . S
C1616 C1615 1.523 . S
C1617 C1601 1.429 1_556 S
C1617 C1613 1.431 . S
C1617 C1618 1.523 . S
C1618 C1602 1.368 . S
C1618 C1614 1.368 . S
C1618 C1617 1.523 . S
H1619 C1594 0.950 . S
H1620 C1596 0.950 . S
H1621 C1597 0.949 . S
H1622 C1599 0.950 . S
H1623 C1601 0.950 . S
C1624 C1625 1.349 . S
C1624 C1626 1.327 . S
C1624 H1649 0.950 . S
C1625 C1624 1.349 . S
C1625 C1641 1.349 . S
C1626 C1624 1.327 . S
C1626 C1645 1.429 . S
C1626 H1650 0.950 . S
C1627 C1644 1.574 . S
C1627 C1646 1.368 . S
C1627 H1651 0.949 . S
H1628 C1632 0.949 . S
C1629 C1630 1.349 . S
C1629 C1631 1.327 . S
C1629 H1652 0.950 . S
C1630 C1629 1.349 . S
C1630 C1642 1.349 . S
C1631 C1629 1.327 . S
C1631 C1647 1.429 . S
C1631 H1653 0.950 . S
C1632 H1628 0.949 . S
C1632 C1640 1.574 . S
C1632 C1648 1.368 . S
H1633 C1641 0.950 . S
H1634 C1639 0.950 . S
H1635 C1640 0.949 . S
H1636 C1642 0.950 . S
H1637 C1643 0.950 . S
H1638 C1644 0.949 . S
C1639 H1634 0.950 . S
C1639 C1641 1.327 . S
C1639 C1645 1.429 . S
C1640 C1632 1.574 . S
C1640 H1635 0.949 . S
C1640 C1646 1.368 . S
C1641 C1625 1.349 . S
C1641 H1633 0.950 . S
C1641 C1639 1.327 . S
C1642 C1630 1.349 . S
C1642 H1636 0.950 . S
C1642 C1643 1.327 . S
C1643 H1637 0.950 . S
C1643 C1642 1.327 . S
C1643 C1647 1.429 . S
C1644 C1627 1.574 . S
C1644 H1638 0.949 . S
C1644 C1648 1.368 . S
C1645 C1626 1.429 . S
C1645 C1639 1.429 . S
C1645 C1646 1.523 . S
C1646 C1627 1.368 . S
C1646 C1640 1.368 . S
C1646 C1645 1.523 . S
C1647 C1631 1.429 . S
C1647 C1643 1.429 . S
C1647 C1648 1.523 . S
C1648 C1632 1.368 . S
C1648 C1644 1.368 . S
C1648 C1647 1.523 . S
H1649 C1624 0.950 . S
H1650 C1626 0.950 . S
H1651 C1627 0.949 . S
H1652 C1629 0.950 . S
H1653 C1631 0.950 . S
C1654 C1655 1.349 . S
C1654 C1656 1.327 . S
C1654 H1679 0.950 . S
C1655 C1654 1.349 . S
C1655 C1671 1.349 . S
C1656 C1654 1.327 . S
C1656 C1675 1.429 . S
C1656 H1680 0.950 . S
C1657 C1674 1.574 . S
C1657 C1676 1.368 . S
C1657 H1681 0.949 . S
H1658 C1662 0.949 . S
C1659 C1660 1.349 . S
C1659 C1661 1.327 . S
C1659 H1682 0.950 . S
C1660 C1659 1.349 . S
C1660 C1672 1.349 . S
C1661 C1659 1.327 . S
C1661 C1677 1.429 1_554 S
C1661 H1683 0.959 . S
C1662 H1658 0.949 . S
C1662 C1670 1.574 . S
C1662 C1678 1.368 . S
H1663 C1671 0.950 . S
H1664 C1669 0.950 . S
H1665 C1670 0.949 . S
H1666 C1672 0.950 . S
H1667 C1673 0.950 . S
H1668 C1674 0.949 . S
C1669 H1664 0.950 . S
C1669 C1671 1.327 . S
C1669 C1675 1.429 . S
C1670 C1662 1.574 . S
C1670 H1665 0.949 . S
C1670 C1676 1.368 . S
C1671 C1655 1.349 . S
C1671 H1663 0.950 . S
C1671 C1669 1.327 . S
C1672 C1660 1.349 . S
C1672 H1666 0.950 . S
C1672 C1673 1.327 1_554 S
C1673 H1667 0.950 . S
C1673 C1672 1.327 1_556 S
C1673 C1677 1.429 . S
C1674 C1657 1.574 . S
C1674 H1668 0.949 . S
C1674 C1678 1.368 . S
C1675 C1656 1.429 . S
C1675 C1669 1.429 . S
C1675 C1676 1.523 . S
C1676 C1657 1.368 . S
C1676 C1670 1.368 . S
C1676 C1675 1.523 . S
C1677 C1661 1.429 1_556 S
C1677 C1673 1.429 . S
C1677 C1678 1.523 . S
C1678 C1662 1.368 . S
C1678 C1674 1.368 . S
C1678 C1677 1.523 . S
H1679 C1654 0.950 . S
H1680 C1656 0.950 . S
H1681 C1657 0.949 . S
H1682 C1659 0.950 . S
H1683 C1661 0.959 . S
C1684 C1685 1.349 . S
C1684 C1686 1.327 . S
C1684 H1709 0.950 . S
C1685 C1684 1.349 . S
C1685 C1701 1.349 . S
C1686 C1684 1.327 . S
C1686 C1705 1.429 . S
C1686 H1710 0.950 . S
C1687 C1704 1.574 . S
C1687 C1706 1.368 . S
C1687 H1711 0.949 . S
H1688 C1692 0.949 . S
C1689 C1690 1.349 . S
C1689 C1691 1.327 . S
C1689 H1712 0.950 . S
C1690 C1689 1.349 . S
C1690 C1702 1.349 . S
C1691 C1689 1.327 . S
C1691 C1707 1.429 . S
C1691 H1713 0.950 . S
C1692 H1688 0.949 . S
C1692 C1700 1.574 . S
C1692 C1708 1.368 . S
H1693 C1701 0.950 . S
H1694 C1699 0.950 . S
H1695 C1700 0.949 . S
H1696 C1702 0.950 . S
H1697 C1703 0.950 . S
H1698 C1704 0.949 . S
C1699 H1694 0.950 . S
C1699 C1701 1.327 . S
C1699 C1705 1.429 . S
C1700 C1692 1.574 . S
C1700 H1695 0.949 . S
C1700 C1706 1.368 . S
C1701 C1685 1.349 . S
C1701 H1693 0.950 . S
C1701 C1699 1.327 . S
C1702 C1690 1.349 . S
C1702 H1696 0.950 . S
C1702 C1703 1.327 . S
C1703 H1697 0.950 . S
C1703 C1702 1.327 . S
C1703 C1707 1.429 . S
C1704 C1687 1.574 . S
C1704 H1698 0.949 . S
C1704 C1708 1.368 . S
C1705 C1686 1.429 . S
C1705 C1699 1.429 . S
C1705 C1706 1.523 . S
C1706 C1687 1.368 . S
C1706 C1700 1.368 . S
C1706 C1705 1.523 . S
C1707 C1691 1.429 . S
C1707 C1703 1.429 . S
C1707 C1708 1.523 . S
C1708 C1692 1.368 . S
C1708 C1704 1.368 . S
C1708 C1707 1.523 . S
H1709 C1684 0.950 . S
H1710 C1686 0.950 . S
H1711 C1687 0.949 . S
H1712 C1689 0.950 . S
H1713 C1691 0.950 . S
C1714 C1715 1.349 . S
C1714 C1716 1.327 . S
C1714 H1739 0.950 . S
C1715 C1714 1.349 . S
C1715 C1731 1.349 . S
C1716 C1714 1.327 . S
C1716 C1735 1.429 . S
C1716 H1740 0.950 . S
C1717 C1734 1.574 . S
C1717 C1736 1.368 . S
C1717 H1741 0.949 . S
H1718 C1722 0.949 . S
C1719 C1720 1.349 . S
C1719 C1721 1.327 . S
C1719 H1742 0.950 . S
C1720 C1719 1.349 . S
C1720 C1732 1.349 . S
C1721 C1719 1.327 . S
C1721 C1737 1.429 . S
C1721 H1743 0.950 . S
C1722 H1718 0.949 . S
C1722 C1730 1.574 . S
C1722 C1738 1.368 . S
H1723 C1731 0.950 . S
H1724 C1729 0.950 . S
H1725 C1730 0.949 . S
H1726 C1732 0.950 . S
H1727 C1733 0.950 . S
H1728 C1734 0.949 . S
C1729 H1724 0.950 . S
C1729 C1731 1.327 . S
C1729 C1735 1.429 . S
C1730 C1722 1.574 . S
C1730 H1725 0.949 . S
C1730 C1736 1.368 . S
C1731 C1715 1.349 . S
C1731 H1723 0.950 . S
C1731 C1729 1.327 . S
C1732 C1720 1.349 . S
C1732 H1726 0.950 . S
C1732 C1733 1.327 . S
C1733 H1727 0.950 . S
C1733 C1732 1.327 . S
C1733 C1737 1.429 . S
C1734 C1717 1.574 . S
C1734 H1728 0.949 . S
C1734 C1738 1.368 . S
C1735 C1716 1.429 . S
C1735 C1729 1.429 . S
C1735 C1736 1.523 . S
C1736 C1717 1.368 . S
C1736 C1730 1.368 . S
C1736 C1735 1.523 . S
C1737 C1721 1.429 . S
C1737 C1733 1.429 . S
C1737 C1738 1.523 . S
C1738 C1722 1.368 . S
C1738 C1734 1.368 . S
C1738 C1737 1.523 . S
H1739 C1714 0.950 . S
H1740 C1716 0.950 . S
H1741 C1717 0.949 . S
H1742 C1719 0.950 . S
H1743 C1721 0.950 . S
C1744 C1745 1.349 . S
C1744 C1746 1.327 . S
C1744 H1769 0.950 . S
C1745 C1744 1.349 . S
C1745 C1761 1.349 . S
C1746 C1744 1.327 . S
C1746 C1765 1.429 . S
C1746 H1770 0.950 . S
C1747 C1764 1.574 . S
C1747 C1766 1.368 . S
C1747 H1771 0.949 . S
H1748 C1752 0.949 . S
C1749 C1750 1.349 . S
C1749 C1751 1.327 . S
C1749 H1772 0.950 . S
C1750 C1749 1.349 . S
C1750 C1762 1.349 . S
C1751 C1749 1.327 . S
C1751 C1767 1.429 . S
C1751 H1773 0.950 . S
C1752 H1748 0.949 . S
C1752 C1760 1.574 . S
C1752 C1768 1.368 . S
H1753 C1761 0.950 . S
H1754 C1759 0.950 . S
H1755 C1760 0.949 . S
H1756 C1762 0.950 . S
H1757 C1763 0.950 . S
H1758 C1764 0.949 . S
C1759 H1754 0.950 . S
C1759 C1761 1.327 . S
C1759 C1765 1.429 . S
C1760 C1752 1.574 . S
C1760 H1755 0.949 . S
C1760 C1766 1.368 . S
C1761 C1745 1.349 . S
C1761 H1753 0.950 . S
C1761 C1759 1.327 . S
C1762 C1750 1.349 . S
C1762 H1756 0.950 . S
C1762 C1763 1.327 . S
C1763 H1757 0.950 . S
C1763 C1762 1.327 . S
C1763 C1767 1.429 . S
C1764 C1747 1.574 . S
C1764 H1758 0.949 . S
C1764 C1768 1.368 . S
C1765 C1746 1.429 . S
C1765 C1759 1.429 . S
C1765 C1766 1.523 . S
C1766 C1747 1.368 . S
C1766 C1760 1.368 . S
C1766 C1765 1.523 . S
C1767 C1751 1.429 . S
C1767 C1763 1.429 . S
C1767 C1768 1.523 . S
C1768 C1752 1.368 . S
C1768 C1764 1.368 . S
C1768 C1767 1.523 . S
H1769 C1744 0.950 . S
H1770 C1746 0.950 . S
H1771 C1747 0.949 . S
H1772 C1749 0.950 . S
H1773 C1751 0.950 . S
C1774 C1775 1.349 . S
C1774 C1776 1.327 . S
C1774 H1799 0.950 . S
C1775 C1774 1.349 . S
C1775 C1791 1.349 . S
C1776 C1774 1.327 . S
C1776 C1795 1.429 . S
C1776 H1800 0.950 . S
C1777 C1794 1.574 . S
C1777 C1796 1.368 . S
C1777 H1801 0.949 . S
H1778 C1782 0.949 . S
C1779 C1780 1.349 . S
C1779 C1781 1.327 1_545 S
C1779 H1802 0.950 . S
C1780 C1779 1.349 . S
C1780 C1792 1.349 . S
C1781 C1779 1.327 1_565 S
C1781 C1797 1.429 . S
C1781 H1803 0.950 . S
C1782 H1778 0.949 . S
C1782 C1790 1.574 . S
C1782 C1798 1.368 . S
H1783 C1791 0.950 . S
H1784 C1789 0.950 . S
H1785 C1790 0.949 . S
H1786 C1792 0.950 . S
H1787 C1793 0.950 . S
H1788 C1794 0.949 . S
C1789 H1784 0.950 . S
C1789 C1791 1.327 . S
C1789 C1795 1.429 . S
C1790 C1782 1.574 . S
C1790 H1785 0.949 . S
C1790 C1796 1.368 . S
C1791 C1775 1.349 . S
C1791 H1783 0.950 . S
C1791 C1789 1.327 . S
C1792 C1780 1.349 . S
C1792 H1786 0.950 . S
C1792 C1793 1.327 . S
C1793 H1787 0.950 . S
C1793 C1792 1.327 . S
C1793 C1797 1.429 1_545 S
C1794 C1777 1.574 . S
C1794 H1788 0.949 . S
C1794 C1798 1.368 . S
C1795 C1776 1.429 . S
C1795 C1789 1.429 . S
C1795 C1796 1.523 . S
C1796 C1777 1.368 . S
C1796 C1790 1.368 . S
C1796 C1795 1.523 . S
C1797 C1781 1.429 . S
C1797 C1793 1.429 1_565 S
C1797 C1798 1.523 . S
C1798 C1782 1.368 . S
C1798 C1794 1.368 . S
C1798 C1797 1.523 . S
H1799 C1774 0.950 . S
H1800 C1776 0.950 . S
H1801 C1777 0.949 . S
H1802 C1779 0.950 . S
H1803 C1781 0.950 . S
C1804 C1805 1.349 . S
C1804 C1806 1.327 . S
C1804 H1829 0.950 . S
C1805 C1804 1.349 . S
C1805 C1821 1.349 . S
C1806 C1804 1.327 . S
C1806 C1825 1.429 . S
C1806 H1830 0.950 . S
C1807 C1824 1.574 . S
C1807 C1826 1.368 . S
C1807 H1831 0.949 . S
H1808 C1812 0.949 . S
C1809 C1810 1.349 . S
C1809 C1811 1.327 . S
C1809 H1832 0.950 . S
C1810 C1809 1.349 . S
C1810 C1822 1.349 . S
C1811 C1809 1.327 . S
C1811 C1827 1.429 . S
C1811 H1833 0.950 . S
C1812 H1808 0.949 . S
C1812 C1820 1.574 . S
C1812 C1828 1.368 . S
H1813 C1821 0.950 . S
H1814 C1819 0.950 . S
H1815 C1820 0.949 . S
H1816 C1822 0.950 . S
H1817 C1823 0.950 . S
H1818 C1824 0.949 . S
C1819 H1814 0.950 . S
C1819 C1821 1.327 . S
C1819 C1825 1.429 . S
C1820 C1812 1.574 . S
C1820 H1815 0.949 . S
C1820 C1826 1.368 . S
C1821 C1805 1.349 . S
C1821 H1813 0.950 . S
C1821 C1819 1.327 . S
C1822 C1810 1.349 . S
C1822 H1816 0.950 . S
C1822 C1823 1.327 . S
C1823 H1817 0.950 . S
C1823 C1822 1.327 . S
C1823 C1827 1.429 . S
C1824 C1807 1.574 . S
C1824 H1818 0.949 . S
C1824 C1828 1.368 . S
C1825 C1806 1.429 . S
C1825 C1819 1.429 . S
C1825 C1826 1.523 . S
C1826 C1807 1.368 . S
C1826 C1820 1.368 . S
C1826 C1825 1.523 . S
C1827 C1811 1.429 . S
C1827 C1823 1.429 . S
C1827 C1828 1.523 . S
C1828 C1812 1.368 . S
C1828 C1824 1.368 . S
C1828 C1827 1.523 . S
H1829 C1804 0.950 . S
H1830 C1806 0.950 . S
H1831 C1807 0.949 . S
H1832 C1809 0.950 . S
H1833 C1811 0.950 . S
C1834 C1835 1.349 . S
C1834 C1836 1.327 . S
C1834 H1859 0.950 . S
C1835 C1834 1.349 . S
C1835 C1851 1.349 . S
C1836 C1834 1.327 . S
C1836 C1855 1.429 . S
C1836 H1860 0.950 . S
C1837 C1854 1.574 . S
C1837 C1856 1.368 . S
C1837 H1861 0.949 . S
H1838 C1842 0.949 . S
C1839 C1840 1.349 . S
C1839 C1841 1.327 . S
C1839 H1862 0.950 . S
C1840 C1839 1.349 . S
C1840 C1852 1.349 . S
C1841 C1839 1.327 . S
C1841 C1857 1.429 . S
C1841 H1863 0.950 . S
C1842 H1838 0.949 . S
C1842 C1850 1.574 . S
C1842 C1858 1.368 . S
H1843 C1851 0.950 . S
H1844 C1849 0.950 . S
H1845 C1850 0.949 . S
H1846 C1852 0.950 . S
H1847 C1853 0.950 . S
H1848 C1854 0.949 . S
C1849 H1844 0.950 . S
C1849 C1851 1.327 . S
C1849 C1855 1.429 . S
C1850 C1842 1.574 . S
C1850 H1845 0.949 . S
C1850 C1856 1.368 . S
C1851 C1835 1.349 . S
C1851 H1843 0.950 . S
C1851 C1849 1.327 . S
C1852 C1840 1.349 . S
C1852 H1846 0.950 . S
C1852 C1853 1.327 . S
C1853 H1847 0.950 . S
C1853 C1852 1.327 . S
C1853 C1857 1.429 . S
C1854 C1837 1.574 . S
C1854 H1848 0.949 . S
C1854 C1858 1.368 . S
C1855 C1836 1.429 . S
C1855 C1849 1.429 . S
C1855 C1856 1.523 . S
C1856 C1837 1.368 . S
C1856 C1850 1.368 . S
C1856 C1855 1.523 . S
C1857 C1841 1.429 . S
C1857 C1853 1.429 . S
C1857 C1858 1.523 . S
C1858 C1842 1.368 . S
C1858 C1854 1.368 . S
C1858 C1857 1.523 . S
H1859 C1834 0.950 . S
H1860 C1836 0.950 . S
H1861 C1837 0.949 . S
H1862 C1839 0.950 . S
H1863 C1841 0.950 . S
C1864 C1865 1.349 . S
C1864 C1866 1.327 . S
C1864 H1889 0.950 . S
C1865 C1864 1.349 . S
C1865 C1881 1.349 . S
C1866 C1864 1.327 . S
C1866 C1885 1.429 . S
C1866 H1890 0.950 . S
C1867 C1884 1.574 . S
C1867 C1886 1.368 . S
C1867 H1891 0.949 . S
H1868 C1872 0.949 . S
C1869 C1870 1.349 . S
C1869 C1871 1.327 . S
C1869 H1892 0.950 . S
C1870 C1869 1.349 . S
C1870 C1882 1.349 . S
C1871 C1869 1.327 . S
C1871 C1887 1.429 . S
C1871 H1893 0.950 . S
C1872 H1868 0.949 . S
C1872 C1880 1.574 . S
C1872 C1888 1.368 . S
H1873 C1881 0.950 . S
H1874 C1879 0.950 . S
H1875 C1880 0.949 . S
H1876 C1882 0.950 . S
H1877 C1883 0.950 . S
H1878 C1884 0.949 . S
C1879 H1874 0.950 . S
C1879 C1881 1.327 . S
C1879 C1885 1.429 . S
C1880 C1872 1.574 . S
C1880 H1875 0.949 . S
C1880 C1886 1.368 . S
C1881 C1865 1.349 . S
C1881 H1873 0.950 . S
C1881 C1879 1.327 . S
C1882 C1870 1.349 . S
C1882 H1876 0.950 . S
C1882 C1883 1.327 . S
C1883 H1877 0.950 . S
C1883 C1882 1.327 . S
C1883 C1887 1.429 . S
C1884 C1867 1.574 . S
C1884 H1878 0.949 . S
C1884 C1888 1.368 . S
C1885 C1866 1.429 . S
C1885 C1879 1.429 . S
C1885 C1886 1.523 . S
C1886 C1867 1.368 . S
C1886 C1880 1.368 . S
C1886 C1885 1.523 . S
C1887 C1871 1.429 . S
C1887 C1883 1.429 . S
C1887 C1888 1.523 . S
C1888 C1872 1.368 . S
C1888 C1884 1.368 . S
C1888 C1887 1.523 . S
H1889 C1864 0.950 . S
H1890 C1866 0.950 . S
H1891 C1867 0.949 . S
H1892 C1869 0.950 . S
H1893 C1871 0.950 . S
C1894 C1895 1.349 . S
C1894 C1896 1.327 . S
C1894 H1919 0.950 . S
C1895 C1894 1.349 . S
C1895 C1911 1.349 . S
C1896 C1894 1.327 . S
C1896 C1915 1.429 . S
C1896 H1920 0.950 . S
C1897 C1914 1.574 . S
C1897 C1916 1.368 . S
C1897 H1921 0.949 . S
H1898 C1902 0.949 . S
C1899 C1900 1.349 . S
C1899 C1901 1.320 1_545 S
C1899 H1922 0.950 . S
C1900 C1899 1.349 . S
C1900 C1912 1.349 . S
C1901 C1899 1.320 1_565 S
C1901 C1917 1.430 . S
C1901 H1923 0.956 . S
C1902 H1898 0.949 . S
C1902 C1910 1.574 . S
C1902 C1918 1.368 . S
H1903 C1911 0.950 . S
H1904 C1909 0.950 . S
H1905 C1910 0.949 . S
H1906 C1912 0.950 . S
H1907 C1913 0.950 . S
H1908 C1914 0.949 . S
C1909 H1904 0.950 . S
C1909 C1911 1.327 . S
C1909 C1915 1.429 . S
C1910 C1902 1.574 . S
C1910 H1905 0.949 . S
C1910 C1916 1.368 . S
C1911 C1895 1.349 . S
C1911 H1903 0.950 . S
C1911 C1909 1.327 . S
C1912 C1900 1.349 . S
C1912 H1906 0.950 . S
C1912 C1913 1.327 . S
C1913 H1907 0.950 . S
C1913 C1912 1.327 . S
C1913 C1917 1.429 1_545 S
C1914 C1897 1.574 . S
C1914 H1908 0.949 . S
C1914 C1918 1.368 . S
C1915 C1896 1.429 . S
C1915 C1909 1.429 . S
C1915 C1916 1.523 . S
C1916 C1897 1.368 . S
C1916 C1910 1.368 . S
C1916 C1915 1.523 . S
C1917 C1901 1.430 . S
C1917 C1913 1.429 1_565 S
C1917 C1918 1.523 . S
C1918 C1902 1.368 . S
C1918 C1914 1.368 . S
C1918 C1917 1.523 . S
H1919 C1894 0.950 . S
H1920 C1896 0.950 . S
H1921 C1897 0.949 . S
H1922 C1899 0.950 . S
H1923 C1901 0.956 . S
C1924 C1925 1.349 . S
C1924 C1926 1.327 . S
C1924 H1949 0.950 . S
C1925 C1924 1.349 . S
C1925 C1941 1.349 . S
C1926 C1924 1.327 . S
C1926 C1945 1.429 . S
C1926 H1950 0.950 . S
C1927 C1944 1.574 . S
C1927 C1946 1.368 . S
C1927 H1951 0.949 . S
H1928 C1932 0.949 . S
C1929 C1930 1.349 . S
C1929 C1931 1.327 . S
C1929 H1952 0.950 . S
C1930 C1929 1.349 . S
C1930 C1942 1.349 . S
C1931 C1929 1.327 . S
C1931 C1947 1.429 . S
C1931 H1953 0.950 . S
C1932 H1928 0.949 . S
C1932 C1940 1.574 . S
C1932 C1948 1.368 . S
H1933 C1941 0.950 . S
H1934 C1939 0.950 . S
H1935 C1940 0.949 . S
H1936 C1942 0.950 . S
H1937 C1943 0.950 . S
H1938 C1944 0.949 . S
C1939 H1934 0.950 . S
C1939 C1941 1.327 . S
C1939 C1945 1.429 . S
C1940 C1932 1.574 . S
C1940 H1935 0.949 . S
C1940 C1946 1.368 . S
C1941 C1925 1.349 . S
C1941 H1933 0.950 . S
C1941 C1939 1.327 . S
C1942 C1930 1.349 . S
C1942 H1936 0.950 . S
C1942 C1943 1.327 . S
C1943 H1937 0.950 . S
C1943 C1942 1.327 . S
C1943 C1947 1.429 . S
C1944 C1927 1.574 . S
C1944 H1938 0.949 . S
C1944 C1948 1.368 . S
C1945 C1926 1.429 . S
C1945 C1939 1.429 . S
C1945 C1946 1.523 . S
C1946 C1927 1.368 . S
C1946 C1940 1.368 . S
C1946 C1945 1.523 . S
C1947 C1931 1.429 . S
C1947 C1943 1.429 . S
C1947 C1948 1.523 . S
C1948 C1932 1.368 . S
C1948 C1944 1.368 . S
C1948 C1947 1.523 . S
H1949 C1924 0.950 . S
H1950 C1926 0.950 . S
H1951 C1927 0.949 . S
H1952 C1929 0.950 . S
H1953 C1931 0.950 . S
C1954 C1955 1.349 . S
C1954 C1956 1.327 . S
C1954 H1979 0.950 . S
C1955 C1954 1.349 . S
C1955 C1971 1.349 . S
C1956 C1954 1.327 . S
C1956 C1975 1.429 . S
C1956 H1980 0.950 . S
C1957 C1974 1.574 . S
C1957 C1976 1.368 . S
C1957 H1981 0.949 . S
H1958 C1962 0.949 . S
C1959 C1960 1.349 . S
C1959 C1961 1.327 . S
C1959 H1982 0.992 . S
C1960 C1959 1.349 . S
C1960 C1972 1.349 . S
C1961 C1959 1.327 . S
C1961 C1977 1.429 . S
C1961 H1983 0.950 . S
C1962 H1958 0.949 . S
C1962 C1970 1.574 . S
C1962 C1978 1.368 . S
H1963 C1971 0.950 . S
H1964 C1969 0.950 . S
H1965 C1970 0.949 . S
H1966 C1972 0.950 . S
H1967 C1973 0.950 . S
H1968 C1974 0.949 . S
C1969 H1964 0.950 . S
C1969 C1971 1.327 . S
C1969 C1975 1.429 . S
C1970 C1962 1.574 . S
C1970 H1965 0.949 . S
C1970 C1976 1.368 . S
C1971 C1955 1.349 . S
C1971 H1963 0.950 . S
C1971 C1969 1.327 . S
C1972 C1960 1.349 . S
C1972 H1966 0.950 . S
C1972 C1973 1.327 . S
C1973 H1967 0.950 . S
C1973 C1972 1.327 . S
C1973 C1977 1.429 . S
C1974 C1957 1.574 . S
C1974 H1968 0.949 . S
C1974 C1978 1.368 . S
C1975 C1956 1.429 . S
C1975 C1969 1.429 . S
C1975 C1976 1.523 . S
C1976 C1957 1.368 . S
C1976 C1970 1.368 . S
C1976 C1975 1.523 . S
C1977 C1961 1.429 . S
C1977 C1973 1.429 . S
C1977 C1978 1.523 . S
C1978 C1962 1.368 . S
C1978 C1974 1.368 . S
C1978 C1977 1.523 . S
H1979 C1954 0.950 . S
H1980 C1956 0.950 . S
H1981 C1957 0.949 . S
H1982 C1959 0.992 . S
H1983 C1961 0.950 . S
C1984 C1985 1.349 . S
C1984 C1986 1.327 . S
C1984 H2009 0.950 . S
C1985 C1984 1.349 . S
C1985 C2001 1.349 . S
C1986 C1984 1.327 . S
C1986 C2005 1.429 . S
C1986 H2010 0.950 . S
C1987 C2004 1.574 . S
C1987 C2006 1.368 . S
C1987 H2011 0.949 . S
H1988 C1992 0.949 . S
C1989 C1990 1.349 . S
C1989 C1991 1.327 . S
C1989 H2012 0.950 . S
C1990 C1989 1.349 . S
C1990 C2002 1.349 . S
C1991 C1989 1.327 . S
C1991 C2007 1.429 1_655 S
C1991 H2013 0.938 1_655 S
C1992 H1988 0.949 . S
C1992 C2000 1.574 . S
C1992 C2008 1.368 . S
H1993 C2001 0.950 . S
H1994 C1999 0.950 . S
H1995 C2000 0.949 . S
H1996 C2002 0.950 . S
H1997 C2003 0.950 1_455 S
H1998 C2004 0.949 . S
C1999 H1994 0.950 . S
C1999 C2001 1.327 . S
C1999 C2005 1.429 . S
C2000 C1992 1.574 . S
C2000 H1995 0.949 . S
C2000 C2006 1.368 . S
C2001 C1985 1.349 . S
C2001 H1993 0.950 . S
C2001 C1999 1.327 . S
C2002 C1990 1.349 . S
C2002 H1996 0.950 . S
C2002 C2003 1.327 . S
C2003 H1997 0.950 1_655 S
C2003 C2002 1.327 . S
C2003 C2007 1.429 1_655 S
C2004 C1987 1.574 . S
C2004 H1998 0.949 . S
C2004 C2008 1.368 . S
C2005 C1986 1.429 . S
C2005 C1999 1.429 . S
C2005 C2006 1.523 . S
C2006 C1987 1.368 . S
C2006 C2000 1.368 . S
C2006 C2005 1.523 . S
C2007 C1991 1.429 1_455 S
C2007 C2003 1.429 1_455 S
C2007 C2008 1.523 . S
C2008 C1992 1.368 . S
C2008 C2004 1.368 . S
C2008 C2007 1.523 . S
H2009 C1984 0.950 . S
H2010 C1986 0.950 . S
H2011 C1987 0.949 . S
H2012 C1989 0.950 . S
H2013 C1991 0.938 1_455 S
C2014 C2015 1.349 . S
C2014 C2016 1.327 . S
C2014 H2039 0.950 . S
C2015 C2014 1.349 . S
C2015 C2031 1.349 . S
C2016 C2014 1.327 . S
C2016 C2035 1.429 . S
C2016 H2040 0.950 . S
C2017 C2034 1.574 . S
C2017 C2036 1.368 . S
C2017 H2041 0.949 . S
H2018 C2022 0.949 . S
C2019 C2020 1.349 . S
C2019 C2021 1.327 . S
C2019 H2042 0.950 . S
C2020 C2019 1.349 . S
C2020 C2032 1.349 . S
C2021 C2019 1.327 . S
C2021 C2037 1.429 . S
C2021 H2043 0.950 . S
C2022 H2018 0.949 . S
C2022 C2030 1.574 . S
C2022 C2038 1.368 . S
H2023 C2031 0.950 . S
H2024 C2029 0.950 . S
H2025 C2030 0.949 . S
H2026 C2032 0.950 . S
H2027 C2033 0.950 . S
H2028 C2034 0.949 . S
C2029 H2024 0.950 . S
C2029 C2031 1.327 . S
C2029 C2035 1.429 . S
C2030 C2022 1.574 . S
C2030 H2025 0.949 . S
C2030 C2036 1.368 . S
C2031 C2015 1.349 . S
C2031 H2023 0.950 . S
C2031 C2029 1.327 . S
C2032 C2020 1.349 . S
C2032 H2026 0.950 . S
C2032 C2033 1.327 . S
C2033 H2027 0.950 . S
C2033 C2032 1.327 . S
C2033 C2037 1.429 . S
C2034 C2017 1.574 . S
C2034 H2028 0.949 . S
C2034 C2038 1.368 . S
C2035 C2016 1.429 . S
C2035 C2029 1.429 . S
C2035 C2036 1.523 . S
C2036 C2017 1.368 . S
C2036 C2030 1.368 . S
C2036 C2035 1.523 . S
C2037 C2021 1.429 . S
C2037 C2033 1.429 . S
C2037 C2038 1.523 . S
C2038 C2022 1.368 . S
C2038 C2034 1.368 . S
C2038 C2037 1.523 . S
H2039 C2014 0.950 . S
H2040 C2016 0.950 . S
H2041 C2017 0.949 . S
H2042 C2019 0.950 . S
H2043 C2021 0.950 . S
C2044 C2045 1.349 . S
C2044 C2046 1.327 . S
C2044 H2069 0.950 . S
C2045 C2044 1.349 . S
C2045 C2061 1.349 . S
C2046 C2044 1.327 . S
C2046 C2065 1.429 . S
C2046 H2070 0.950 . S
C2047 C2064 1.574 . S
C2047 C2066 1.368 . S
C2047 H2071 0.949 . S
H2048 C2052 0.949 . S
C2049 C2050 1.349 . S
C2049 C2051 1.327 . S
C2049 H2072 0.950 . S
C2050 C2049 1.349 . S
C2050 C2062 1.349 . S
C2051 C2049 1.327 . S
C2051 C2067 1.429 . S
C2051 H2073 0.950 . S
C2052 H2048 0.949 . S
C2052 C2060 1.574 . S
C2052 C2068 1.368 . S
H2053 C2061 0.950 . S
H2054 C2059 0.950 . S
H2055 C2060 0.949 . S
H2056 C2062 0.950 . S
H2057 C2063 0.950 . S
H2058 C2064 0.949 . S
C2059 H2054 0.950 . S
C2059 C2061 1.327 . S
C2059 C2065 1.429 . S
C2060 C2052 1.574 . S
C2060 H2055 0.949 . S
C2060 C2066 1.368 . S
C2061 C2045 1.349 . S
C2061 H2053 0.950 . S
C2061 C2059 1.327 . S
C2062 C2050 1.349 . S
C2062 H2056 0.950 . S
C2062 C2063 1.327 . S
C2063 H2057 0.950 . S
C2063 C2062 1.327 . S
C2063 C2067 1.429 . S
C2064 C2047 1.574 . S
C2064 H2058 0.949 . S
C2064 C2068 1.368 . S
C2065 C2046 1.429 . S
C2065 C2059 1.429 . S
C2065 C2066 1.523 . S
C2066 C2047 1.368 . S
C2066 C2060 1.368 . S
C2066 C2065 1.523 . S
C2067 C2051 1.429 . S
C2067 C2063 1.429 . S
C2067 C2068 1.523 . S
C2068 C2052 1.368 . S
C2068 C2064 1.368 . S
C2068 C2067 1.523 . S
H2069 C2044 0.950 . S
H2070 C2046 0.950 . S
H2071 C2047 0.949 . S
H2072 C2049 0.950 . S
H2073 C2051 0.950 . S
C2074 C2075 1.349 . S
C2074 C2076 1.327 . S
C2074 H2099 0.950 . S
C2075 C2074 1.349 . S
C2075 C2091 1.349 . S
C2076 C2074 1.327 . S
C2076 C2095 1.429 . S
C2076 H2100 0.950 . S
C2077 C2094 1.574 . S
C2077 C2096 1.368 . S
C2077 H2101 0.949 . S
H2078 C2082 0.949 . S
C2079 C2080 1.349 . S
C2079 C2081 1.327 . S
C2079 H2102 0.950 . S
C2080 C2079 1.349 . S
C2080 C2092 1.349 . S
C2081 C2079 1.327 . S
C2081 C2097 1.429 . S
C2081 H2103 0.950 . S
C2082 H2078 0.949 . S
C2082 C2090 1.574 . S
C2082 C2098 1.368 . S
H2083 C2091 0.950 . S
H2084 C2089 0.950 . S
H2085 C2090 0.949 . S
H2086 C2092 0.950 . S
H2087 C2093 0.950 . S
H2088 C2094 0.949 . S
C2089 H2084 0.950 . S
C2089 C2091 1.327 . S
C2089 C2095 1.429 . S
C2090 C2082 1.574 . S
C2090 H2085 0.949 . S
C2090 C2096 1.368 . S
C2091 C2075 1.349 . S
C2091 H2083 0.950 . S
C2091 C2089 1.327 . S
C2092 C2080 1.349 . S
C2092 H2086 0.950 . S
C2092 C2093 1.327 . S
C2093 H2087 0.950 . S
C2093 C2092 1.327 . S
C2093 C2097 1.429 . S
C2094 C2077 1.574 . S
C2094 H2088 0.949 . S
C2094 C2098 1.368 . S
C2095 C2076 1.429 . S
C2095 C2089 1.429 . S
C2095 C2096 1.523 . S
C2096 C2077 1.368 . S
C2096 C2090 1.368 . S
C2096 C2095 1.523 . S
C2097 C2081 1.429 . S
C2097 C2093 1.429 . S
C2097 C2098 1.523 . S
C2098 C2082 1.368 . S
C2098 C2094 1.368 . S
C2098 C2097 1.523 . S
H2099 C2074 0.950 . S
H2100 C2076 0.950 . S
H2101 C2077 0.949 . S
H2102 C2079 0.950 . S
H2103 C2081 0.950 . S
C2104 C2105 1.349 . S
C2104 C2106 1.327 . S
C2104 H2129 0.950 . S
C2105 C2104 1.349 . S
C2105 C2121 1.349 . S
C2106 C2104 1.327 . S
C2106 C2125 1.429 . S
C2106 H2130 0.950 . S
C2107 C2124 1.574 . S
C2107 C2126 1.368 . S
C2107 H2131 0.949 . S
H2108 C2112 0.949 . S
C2109 C2110 1.349 . S
C2109 C2111 1.327 . S
C2109 H2132 0.950 . S
C2110 C2109 1.349 . S
C2110 C2122 1.349 . S
C2111 C2109 1.327 . S
C2111 C2127 1.429 1_655 S
C2111 H2133 0.950 . S
C2112 H2108 0.949 . S
C2112 C2120 1.574 . S
C2112 C2128 1.368 . S
H2113 C2121 0.950 . S
H2114 C2119 0.950 . S
H2115 C2120 0.949 . S
H2116 C2122 0.950 . S
H2117 C2123 0.950 . S
H2118 C2124 0.949 . S
C2119 H2114 0.950 . S
C2119 C2121 1.327 . S
C2119 C2125 1.429 . S
C2120 C2112 1.574 . S
C2120 H2115 0.949 . S
C2120 C2126 1.368 . S
C2121 C2105 1.349 . S
C2121 H2113 0.950 . S
C2121 C2119 1.327 . S
C2122 C2110 1.349 . S
C2122 H2116 0.950 . S
C2122 C2123 1.327 1_655 S
C2123 H2117 0.950 . S
C2123 C2122 1.327 1_455 S
C2123 C2127 1.429 . S
C2124 C2107 1.574 . S
C2124 H2118 0.949 . S
C2124 C2128 1.368 . S
C2125 C2106 1.429 . S
C2125 C2119 1.429 . S
C2125 C2126 1.523 . S
C2126 C2107 1.368 . S
C2126 C2120 1.368 . S
C2126 C2125 1.523 . S
C2127 C2111 1.429 1_455 S
C2127 C2123 1.429 . S
C2127 C2128 1.523 . S
C2128 C2112 1.368 . S
C2128 C2124 1.368 . S
C2128 C2127 1.523 . S
H2129 C2104 0.950 . S
H2130 C2106 0.950 . S
H2131 C2107 0.949 . S
H2132 C2109 0.950 . S
H2133 C2111 0.950 . S
C2134 C2135 1.349 . S
C2134 C2136 1.327 . S
C2134 H2159 0.950 . S
C2135 C2134 1.349 . S
C2135 C2151 1.349 . S
C2136 C2134 1.327 . S
C2136 C2155 1.429 . S
C2136 H2160 0.950 . S
C2137 C2154 1.574 . S
C2137 C2156 1.368 . S
C2137 H2161 0.949 . S
H2138 C2142 0.949 . S
C2139 C2140 1.349 . S
C2139 C2141 1.327 1_455 S
C2139 H2162 0.950 . S
C2140 C2139 1.349 . S
C2140 C2152 1.349 . S
C2141 C2139 1.327 1_655 S
C2141 C2157 1.429 . S
C2141 H2163 0.950 . S
C2142 H2138 0.949 . S
C2142 C2150 1.574 . S
C2142 C2158 1.368 . S
H2143 C2151 0.950 . S
H2144 C2149 0.950 . S
H2145 C2150 0.949 . S
H2146 C2152 0.950 . S
H2147 C2153 0.950 . S
H2148 C2154 0.949 . S
C2149 H2144 0.950 . S
C2149 C2151 1.327 . S
C2149 C2155 1.429 . S
C2150 C2142 1.574 . S
C2150 H2145 0.949 . S
C2150 C2156 1.368 . S
C2151 C2135 1.349 . S
C2151 H2143 0.950 . S
C2151 C2149 1.327 . S
C2152 C2140 1.349 . S
C2152 H2146 0.950 . S
C2152 C2153 1.327 . S
C2153 H2147 0.950 . S
C2153 C2152 1.327 . S
C2153 C2157 1.429 1_455 S
C2154 C2137 1.574 . S
C2154 H2148 0.949 . S
C2154 C2158 1.368 . S
C2155 C2136 1.429 . S
C2155 C2149 1.429 . S
C2155 C2156 1.523 . S
C2156 C2137 1.368 . S
C2156 C2150 1.368 . S
C2156 C2155 1.523 . S
C2157 C2141 1.429 . S
C2157 C2153 1.429 1_655 S
C2157 C2158 1.523 . S
C2158 C2142 1.368 . S
C2158 C2154 1.368 . S
C2158 C2157 1.523 . S
H2159 C2134 0.950 . S
H2160 C2136 0.950 . S
H2161 C2137 0.949 . S
H2162 C2139 0.950 . S
H2163 C2141 0.950 . S
C2164 C2165 1.349 . S
C2164 C2166 1.327 . S
C2164 H2189 0.950 . S
C2165 C2164 1.349 . S
C2165 C2181 1.349 . S
C2166 C2164 1.327 . S
C2166 C2185 1.429 . S
C2166 H2190 0.950 . S
C2167 C2184 1.574 . S
C2167 C2186 1.368 . S
C2167 H2191 0.949 . S
H2168 C2172 0.949 . S
C2169 C2170 1.349 . S
C2169 C2171 1.327 . S
C2169 H2192 0.950 . S
C2170 C2169 1.349 . S
C2170 C2182 1.349 . S
C2171 C2169 1.327 . S
C2171 C2187 1.429 . S
C2171 H2193 0.950 . S
C2172 H2168 0.949 . S
C2172 C2180 1.574 . S
C2172 C2188 1.368 . S
H2173 C2181 0.950 . S
H2174 C2179 0.950 . S
H2175 C2180 0.949 . S
H2176 C2182 0.950 . S
H2177 C2183 0.950 . S
H2178 C2184 0.949 . S
C2179 H2174 0.950 . S
C2179 C2181 1.327 . S
C2179 C2185 1.429 . S
C2180 C2172 1.574 . S
C2180 H2175 0.949 . S
C2180 C2186 1.368 . S
C2181 C2165 1.349 . S
C2181 H2173 0.950 . S
C2181 C2179 1.327 . S
C2182 C2170 1.349 . S
C2182 H2176 0.950 . S
C2182 C2183 1.327 . S
C2183 H2177 0.950 . S
C2183 C2182 1.327 . S
C2183 C2187 1.429 . S
C2184 C2167 1.574 . S
C2184 H2178 0.949 . S
C2184 C2188 1.368 . S
C2185 C2166 1.429 . S
C2185 C2179 1.429 . S
C2185 C2186 1.523 . S
C2186 C2167 1.368 . S
C2186 C2180 1.368 . S
C2186 C2185 1.523 . S
C2187 C2171 1.429 . S
C2187 C2183 1.429 . S
C2187 C2188 1.523 . S
C2188 C2172 1.368 . S
C2188 C2184 1.368 . S
C2188 C2187 1.523 . S
H2189 C2164 0.950 . S
H2190 C2166 0.950 . S
H2191 C2167 0.949 . S
H2192 C2169 0.950 . S
H2193 C2171 0.950 . S
C2194 C2195 1.349 . S
C2194 C2196 1.327 . S
C2194 H2219 0.950 . S
C2195 C2194 1.349 . S
C2195 C2211 1.349 . S
C2196 C2194 1.327 . S
C2196 C2215 1.429 . S
C2196 H2220 0.950 . S
C2197 C2214 1.574 . S
C2197 C2216 1.368 . S
C2197 H2221 0.949 . S
H2198 C2202 0.949 . S
C2199 C2200 1.349 . S
C2199 C2201 1.327 . S
C2199 H2222 0.950 . S
C2200 C2199 1.349 . S
C2200 C2212 1.349 . S
C2201 C2199 1.327 . S
C2201 C2217 1.429 . S
C2201 H2223 0.950 . S
C2202 H2198 0.949 . S
C2202 C2210 1.574 . S
C2202 C2218 1.368 . S
H2203 C2211 0.950 . S
H2204 C2209 0.950 . S
H2205 C2210 0.949 . S
H2206 C2212 0.950 . S
H2207 C2213 0.950 . S
H2208 C2214 0.949 . S
C2209 H2204 0.950 . S
C2209 C2211 1.327 . S
C2209 C2215 1.429 . S
C2210 C2202 1.574 . S
C2210 H2205 0.949 . S
C2210 C2216 1.368 . S
C2211 C2195 1.349 . S
C2211 H2203 0.950 . S
C2211 C2209 1.327 . S
C2212 C2200 1.349 . S
C2212 H2206 0.950 . S
C2212 C2213 1.327 . S
C2213 H2207 0.950 . S
C2213 C2212 1.327 . S
C2213 C2217 1.429 . S
C2214 C2197 1.574 . S
C2214 H2208 0.949 . S
C2214 C2218 1.368 . S
C2215 C2196 1.429 . S
C2215 C2209 1.429 . S
C2215 C2216 1.523 . S
C2216 C2197 1.368 . S
C2216 C2210 1.368 . S
C2216 C2215 1.523 . S
C2217 C2201 1.429 . S
C2217 C2213 1.429 . S
C2217 C2218 1.523 . S
C2218 C2202 1.368 . S
C2218 C2214 1.368 . S
C2218 C2217 1.523 . S
H2219 C2194 0.950 . S
H2220 C2196 0.950 . S
H2221 C2197 0.949 . S
H2222 C2199 0.950 . S
H2223 C2201 0.950 . S
C2224 C2225 1.349 . S
C2224 C2226 1.327 . S
C2224 H2249 0.950 . S
C2225 C2224 1.349 . S
C2225 C2241 1.349 . S
C2226 C2224 1.327 . S
C2226 C2245 1.429 . S
C2226 H2250 0.950 . S
C2227 C2244 1.574 . S
C2227 C2246 1.368 . S
C2227 H2251 0.949 . S
H2228 C2232 0.949 . S
C2229 C2230 1.349 . S
C2229 C2231 1.327 . S
C2229 H2252 0.950 . S
C2230 C2229 1.349 . S
C2230 C2242 1.349 . S
C2231 C2229 1.327 . S
C2231 C2247 1.429 . S
C2231 H2253 0.950 . S
C2232 H2228 0.949 . S
C2232 C2240 1.574 . S
C2232 C2248 1.368 . S
H2233 C2241 0.950 . S
H2234 C2239 0.950 . S
H2235 C2240 0.949 . S
H2236 C2242 0.950 . S
H2237 C2243 0.950 . S
H2238 C2244 0.949 . S
C2239 H2234 0.950 . S
C2239 C2241 1.327 . S
C2239 C2245 1.429 . S
C2240 C2232 1.574 . S
C2240 H2235 0.949 . S
C2240 C2246 1.368 . S
C2241 C2225 1.349 . S
C2241 H2233 0.950 . S
C2241 C2239 1.327 . S
C2242 C2230 1.349 . S
C2242 H2236 0.950 . S
C2242 C2243 1.327 . S
C2243 H2237 0.950 . S
C2243 C2242 1.327 . S
C2243 C2247 1.429 . S
C2244 C2227 1.574 . S
C2244 H2238 0.949 . S
C2244 C2248 1.368 . S
C2245 C2226 1.429 . S
C2245 C2239 1.429 . S
C2245 C2246 1.523 . S
C2246 C2227 1.368 . S
C2246 C2240 1.368 . S
C2246 C2245 1.523 . S
C2247 C2231 1.429 . S
C2247 C2243 1.429 . S
C2247 C2248 1.523 . S
C2248 C2232 1.368 . S
C2248 C2244 1.368 . S
C2248 C2247 1.523 . S
H2249 C2224 0.950 . S
H2250 C2226 0.950 . S
H2251 C2227 0.949 . S
H2252 C2229 0.950 . S
H2253 C2231 0.950 . S
C2254 C2255 1.349 1_565 S
C2254 C2256 1.327 . S
C2254 H2279 0.950 1_565 S
C2255 C2254 1.349 1_545 S
C2255 C2271 1.349 1_545 S
C2256 C2254 1.327 . S
C2256 C2275 1.429 . S
C2256 H2280 0.950 . S
C2257 C2274 1.574 . S
C2257 C2276 1.368 . S
C2257 H2281 0.949 . S
H2258 C2262 0.949 . S
C2259 C2260 1.349 . S
C2259 C2261 1.327 . S
C2259 H2282 0.950 . S
C2260 C2259 1.349 . S
C2260 C2272 1.349 . S
C2261 C2259 1.327 . S
C2261 C2277 1.429 . S
C2261 H2283 0.950 . S
C2262 H2258 0.949 . S
C2262 C2270 1.574 . S
C2262 C2278 1.368 . S
H2263 C2271 0.950 . S
H2264 C2269 0.950 . S
H2265 C2270 0.949 . S
H2266 C2272 0.950 . S
H2267 C2273 0.950 . S
H2268 C2274 0.949 . S
C2269 H2264 0.950 . S
C2269 C2271 1.327 . S
C2269 C2275 1.429 . S
C2270 C2262 1.574 . S
C2270 H2265 0.949 . S
C2270 C2276 1.368 . S
C2271 C2255 1.349 1_565 S
C2271 H2263 0.950 . S
C2271 C2269 1.327 . S
C2272 C2260 1.349 . S
C2272 H2266 0.950 . S
C2272 C2273 1.327 . S
C2273 H2267 0.950 . S
C2273 C2272 1.327 . S
C2273 C2277 1.429 . S
C2274 C2257 1.574 . S
C2274 H2268 0.949 . S
C2274 C2278 1.368 . S
C2275 C2256 1.429 . S
C2275 C2269 1.429 . S
C2275 C2276 1.523 . S
C2276 C2257 1.368 . S
C2276 C2270 1.368 . S
C2276 C2275 1.523 . S
C2277 C2261 1.429 . S
C2277 C2273 1.429 . S
C2277 C2278 1.523 . S
C2278 C2262 1.368 . S
C2278 C2274 1.368 . S
C2278 C2277 1.523 . S
H2279 C2254 0.950 1_545 S
H2280 C2256 0.950 . S
H2281 C2257 0.949 . S
H2282 C2259 0.950 . S
H2283 C2261 0.950 . S
C2284 C2285 1.349 . S
C2284 C2286 1.327 . S
C2284 H2309 0.950 . S
C2285 C2284 1.349 . S
C2285 C2301 1.349 . S
C2286 C2284 1.327 . S
C2286 C2305 1.429 . S
C2286 H2310 0.950 . S
C2287 C2304 1.574 . S
C2287 C2306 1.368 . S
C2287 H2311 0.949 . S
H2288 C2292 0.949 . S
C2289 C2290 1.349 . S
C2289 C2291 1.327 . S
C2289 H2312 0.950 . S
C2290 C2289 1.349 . S
C2290 C2302 1.349 . S
C2291 C2289 1.327 . S
C2291 C2307 1.429 . S
C2291 H2313 0.950 . S
C2292 H2288 0.949 . S
C2292 C2300 1.574 . S
C2292 C2308 1.368 . S
H2293 C2301 0.950 . S
H2294 C2299 0.950 . S
H2295 C2300 0.949 . S
H2296 C2302 0.950 . S
H2297 C2303 0.950 . S
H2298 C2304 0.949 . S
C2299 H2294 0.950 . S
C2299 C2301 1.327 . S
C2299 C2305 1.429 . S
C2300 C2292 1.574 . S
C2300 H2295 0.949 . S
C2300 C2306 1.368 . S
C2301 C2285 1.349 . S
C2301 H2293 0.950 . S
C2301 C2299 1.327 . S
C2302 C2290 1.349 . S
C2302 H2296 0.950 . S
C2302 C2303 1.327 . S
C2303 H2297 0.950 . S
C2303 C2302 1.327 . S
C2303 C2307 1.429 . S
C2304 C2287 1.574 . S
C2304 H2298 0.949 . S
C2304 C2308 1.368 . S
C2305 C2286 1.429 . S
C2305 C2299 1.429 . S
C2305 C2306 1.523 . S
C2306 C2287 1.368 . S
C2306 C2300 1.368 . S
C2306 C2305 1.523 . S
C2307 C2291 1.429 . S
C2307 C2303 1.429 . S
C2307 C2308 1.523 . S
C2308 C2292 1.368 . S
C2308 C2304 1.368 . S
C2308 C2307 1.523 . S
H2309 C2284 0.950 . S
H2310 C2286 0.950 . S
H2311 C2287 0.949 . S
H2312 C2289 0.950 . S
H2313 C2291 0.950 . S
C2314 C2315 1.349 . S
C2314 C2316 1.327 . S
C2314 H2339 0.950 . S
C2315 C2314 1.349 . S
C2315 C2331 1.349 . S
C2316 C2314 1.327 . S
C2316 C2335 1.429 . S
C2316 H2340 0.950 . S
C2317 C2334 1.574 . S
C2317 C2336 1.368 . S
C2317 H2341 0.949 . S
H2318 C2322 0.949 . S
C2319 C2320 1.349 . S
C2319 C2321 1.327 . S
C2319 H2342 0.950 . S
C2320 C2319 1.349 . S
C2320 C2332 1.349 . S
C2321 C2319 1.327 . S
C2321 C2337 1.429 . S
C2321 H2343 0.950 . S
C2322 H2318 0.949 . S
C2322 C2330 1.574 . S
C2322 C2338 1.368 . S
H2323 C2331 0.950 . S
H2324 C2329 0.950 . S
H2325 C2330 0.949 . S
H2326 C2332 0.950 . S
H2327 C2333 0.950 . S
H2328 C2334 0.949 . S
C2329 H2324 0.950 . S
C2329 C2331 1.327 . S
C2329 C2335 1.429 . S
C2330 C2322 1.574 . S
C2330 H2325 0.949 . S
C2330 C2336 1.368 . S
C2331 C2315 1.349 . S
C2331 H2323 0.950 . S
C2331 C2329 1.327 . S
C2332 C2320 1.349 . S
C2332 H2326 0.950 . S
C2332 C2333 1.327 . S
C2333 H2327 0.950 . S
C2333 C2332 1.327 . S
C2333 C2337 1.429 . S
C2334 C2317 1.574 . S
C2334 H2328 0.949 . S
C2334 C2338 1.368 . S
C2335 C2316 1.429 . S
C2335 C2329 1.429 . S
C2335 C2336 1.523 . S
C2336 C2317 1.368 . S
C2336 C2330 1.368 . S
C2336 C2335 1.523 . S
C2337 C2321 1.429 . S
C2337 C2333 1.429 . S
C2337 C2338 1.523 . S
C2338 C2322 1.368 . S
C2338 C2334 1.368 . S
C2338 C2337 1.523 . S
H2339 C2314 0.950 . S
H2340 C2316 0.950 . S
H2341 C2317 0.949 . S
H2342 C2319 0.950 . S
H2343 C2321 0.950 . S
C2344 C2345 1.349 . S
C2344 C2346 1.327 . S
C2344 H2369 0.950 . S
C2345 C2344 1.349 . S
C2345 C2361 1.349 . S
C2346 C2344 1.327 . S
C2346 C2365 1.429 . S
C2346 H2370 0.950 . S
C2347 C2364 1.574 . S
C2347 C2366 1.368 . S
C2347 H2371 0.949 . S
H2348 C2352 0.949 . S
C2349 C2350 1.349 . S
C2349 C2351 1.327 . S
C2349 H2372 0.950 . S
C2350 C2349 1.349 . S
C2350 C2362 1.349 . S
C2351 C2349 1.327 . S
C2351 C2367 1.429 . S
C2351 H2373 0.950 . S
C2352 H2348 0.949 . S
C2352 C2360 1.574 . S
C2352 C2368 1.368 . S
H2353 C2361 0.950 . S
H2354 C2359 0.950 . S
H2355 C2360 0.949 . S
H2356 C2362 0.950 . S
H2357 C2363 0.950 . S
H2358 C2364 0.949 . S
C2359 H2354 0.950 . S
C2359 C2361 1.327 . S
C2359 C2365 1.429 . S
C2360 C2352 1.574 . S
C2360 H2355 0.949 . S
C2360 C2366 1.368 . S
C2361 C2345 1.349 . S
C2361 H2353 0.950 . S
C2361 C2359 1.327 . S
C2362 C2350 1.349 . S
C2362 H2356 0.950 . S
C2362 C2363 1.327 . S
C2363 H2357 0.950 . S
C2363 C2362 1.327 . S
C2363 C2367 1.429 . S
C2364 C2347 1.574 . S
C2364 H2358 0.949 . S
C2364 C2368 1.368 . S
C2365 C2346 1.429 . S
C2365 C2359 1.429 . S
C2365 C2366 1.523 . S
C2366 C2347 1.368 . S
C2366 C2360 1.368 . S
C2366 C2365 1.523 . S
C2367 C2351 1.429 . S
C2367 C2363 1.429 . S
C2367 C2368 1.523 . S
C2368 C2352 1.368 . S
C2368 C2364 1.368 . S
C2368 C2367 1.523 . S
H2369 C2344 0.950 . S
H2370 C2346 0.950 . S
H2371 C2347 0.949 . S
H2372 C2349 0.950 . S
H2373 C2351 0.950 . S
C2374 C2375 1.349 1_565 S
C2374 C2376 1.327 . S
C2374 H2399 0.950 1_565 S
C2375 C2374 1.349 1_545 S
C2375 C2391 1.349 1_545 S
C2376 C2374 1.327 . S
C2376 C2395 1.429 . S
C2376 H2400 0.950 . S
C2377 C2394 1.574 . S
C2377 C2396 1.368 . S
C2377 H2401 0.949 . S
H2378 C2382 0.949 . S
C2379 C2380 1.349 . S
C2379 C2381 1.327 . S
C2379 H2402 0.950 . S
C2380 C2379 1.349 . S
C2380 C2392 1.349 . S
C2381 C2379 1.327 . S
C2381 C2397 1.429 . S
C2381 H2403 0.950 . S
C2382 H2378 0.949 . S
C2382 C2390 1.574 . S
C2382 C2398 1.368 . S
H2383 C2391 0.950 . S
H2384 C2389 0.950 . S
H2385 C2390 0.949 . S
H2386 C2392 0.950 1_455 S
H2387 C2393 0.950 . S
H2388 C2394 0.949 . S
C2389 H2384 0.950 . S
C2389 C2391 1.327 . S
C2389 C2395 1.429 . S
C2390 C2382 1.574 . S
C2390 H2385 0.949 . S
C2390 C2396 1.368 . S
C2391 C2375 1.349 1_565 S
C2391 H2383 0.950 . S
C2391 C2389 1.327 . S
C2392 C2380 1.349 . S
C2392 H2386 0.950 1_655 S
C2392 C2393 1.327 . S
C2393 H2387 0.950 . S
C2393 C2392 1.327 . S
C2393 C2397 1.429 . S
C2394 C2377 1.574 . S
C2394 H2388 0.949 . S
C2394 C2398 1.368 . S
C2395 C2376 1.429 . S
C2395 C2389 1.429 . S
C2395 C2396 1.523 . S
C2396 C2377 1.368 . S
C2396 C2390 1.368 . S
C2396 C2395 1.523 . S
C2397 C2381 1.429 . S
C2397 C2393 1.429 . S
C2397 C2398 1.523 . S
C2398 C2382 1.368 . S
C2398 C2394 1.368 . S
C2398 C2397 1.523 . S
H2399 C2374 0.950 1_545 S
H2400 C2376 0.950 . S
H2401 C2377 0.949 . S
H2402 C2379 0.950 . S
H2403 C2381 0.950 . S
C2404 C2405 1.349 . S
C2404 C2406 1.327 . S
C2404 H2429 0.950 . S
C2405 C2404 1.349 . S
C2405 C2421 1.349 . S
C2406 C2404 1.327 . S
C2406 C2425 1.429 . S
C2406 H2430 0.950 . S
C2407 C2424 1.574 . S
C2407 C2426 1.368 . S
C2407 H2431 0.949 . S
H2408 C2412 0.949 . S
C2409 C2410 1.349 . S
C2409 C2411 1.327 . S
C2409 H2432 0.950 . S
C2410 C2409 1.349 . S
C2410 C2422 1.349 . S
C2411 C2409 1.327 . S
C2411 C2427 1.429 . S
C2411 H2433 0.950 . S
C2412 H2408 0.949 . S
C2412 C2420 1.574 . S
C2412 C2428 1.368 . S
H2413 C2421 0.950 . S
H2414 C2419 0.950 . S
H2415 C2420 0.949 . S
H2416 C2422 0.950 . S
H2417 C2423 0.950 . S
H2418 C2424 0.949 . S
C2419 H2414 0.950 . S
C2419 C2421 1.327 . S
C2419 C2425 1.429 . S
C2420 C2412 1.574 . S
C2420 H2415 0.949 . S
C2420 C2426 1.368 . S
C2421 C2405 1.349 . S
C2421 H2413 0.950 . S
C2421 C2419 1.327 . S
C2422 C2410 1.349 . S
C2422 H2416 0.950 . S
C2422 C2423 1.327 . S
C2423 H2417 0.950 . S
C2423 C2422 1.327 . S
C2423 C2427 1.429 . S
C2424 C2407 1.574 . S
C2424 H2418 0.949 . S
C2424 C2428 1.368 . S
C2425 C2406 1.429 . S
C2425 C2419 1.429 . S
C2425 C2426 1.523 . S
C2426 C2407 1.368 . S
C2426 C2420 1.368 . S
C2426 C2425 1.523 . S
C2427 C2411 1.429 . S
C2427 C2423 1.429 . S
C2427 C2428 1.523 . S
C2428 C2412 1.368 . S
C2428 C2424 1.368 . S
C2428 C2427 1.523 . S
H2429 C2404 0.950 . S
H2430 C2406 0.950 . S
H2431 C2407 0.949 . S
H2432 C2409 0.950 . S
H2433 C2411 0.950 . S
C2434 C2435 1.349 . S
C2434 C2436 1.327 . S
C2434 H2459 0.950 . S
C2435 C2434 1.349 . S
C2435 C2451 1.349 . S
C2436 C2434 1.327 . S
C2436 C2455 1.429 . S
C2436 H2460 0.950 . S
C2437 C2454 1.574 . S
C2437 C2456 1.368 . S
C2437 H2461 0.949 . S
H2438 C2442 0.949 . S
C2439 C2440 1.349 . S
C2439 C2441 1.327 . S
C2439 H2462 0.950 . S
C2440 C2439 1.349 . S
C2440 C2452 1.349 . S
C2441 C2439 1.327 . S
C2441 C2457 1.429 . S
C2441 H2463 0.950 . S
C2442 H2438 0.949 . S
C2442 C2450 1.574 . S
C2442 C2458 1.368 . S
H2443 C2451 0.950 . S
H2444 C2449 0.950 . S
H2445 C2450 0.949 . S
H2446 C2452 0.950 1_556 S
H2447 C2453 0.950 . S
H2448 C2454 0.949 . S
C2449 H2444 0.950 . S
C2449 C2451 1.327 . S
C2449 C2455 1.429 . S
C2450 C2442 1.574 . S
C2450 H2445 0.949 . S
C2450 C2456 1.368 . S
C2451 C2435 1.349 . S
C2451 H2443 0.950 . S
C2451 C2449 1.327 . S
C2452 C2440 1.349 . S
C2452 H2446 0.950 1_554 S
C2452 C2453 1.327 . S
C2453 H2447 0.950 . S
C2453 C2452 1.327 . S
C2453 C2457 1.429 . S
C2454 C2437 1.574 . S
C2454 H2448 0.949 . S
C2454 C2458 1.368 . S
C2455 C2436 1.429 . S
C2455 C2449 1.429 . S
C2455 C2456 1.523 . S
C2456 C2437 1.368 . S
C2456 C2450 1.368 . S
C2456 C2455 1.523 . S
C2457 C2441 1.429 . S
C2457 C2453 1.429 . S
C2457 C2458 1.523 . S
C2458 C2442 1.368 . S
C2458 C2454 1.368 . S
C2458 C2457 1.523 . S
H2459 C2434 0.950 . S
H2460 C2436 0.950 . S
H2461 C2437 0.949 . S
H2462 C2439 0.950 . S
H2463 C2441 0.950 . S
C2464 C2465 1.349 . S
C2464 C2466 1.327 . S
C2464 H2489 0.950 . S
C2465 C2464 1.349 . S
C2465 C2481 1.349 . S
C2466 C2464 1.327 . S
C2466 C2485 1.429 . S
C2466 H2490 0.950 . S
C2467 C2484 1.574 . S
C2467 C2486 1.368 . S
C2467 H2491 0.949 . S
H2468 C2472 0.949 . S
C2469 C2470 1.349 . S
C2469 C2471 1.327 . S
C2469 H2492 0.950 . S
C2470 C2469 1.349 . S
C2470 C2482 1.349 . S
C2471 C2469 1.327 . S
C2471 C2487 1.429 . S
C2471 H2493 0.950 . S
C2472 H2468 0.949 . S
C2472 C2480 1.574 . S
C2472 C2488 1.368 . S
H2473 C2481 0.950 . S
H2474 C2479 0.950 . S
H2475 C2480 0.949 . S
H2476 C2482 0.950 . S
H2477 C2483 0.950 . S
H2478 C2484 0.949 . S
C2479 H2474 0.950 . S
C2479 C2481 1.327 . S
C2479 C2485 1.429 . S
C2480 C2472 1.574 . S
C2480 H2475 0.949 . S
C2480 C2486 1.368 . S
C2481 C2465 1.349 . S
C2481 H2473 0.950 . S
C2481 C2479 1.327 . S
C2482 C2470 1.349 . S
C2482 H2476 0.950 . S
C2482 C2483 1.327 . S
C2483 H2477 0.950 . S
C2483 C2482 1.327 . S
C2483 C2487 1.429 . S
C2484 C2467 1.574 . S
C2484 H2478 0.949 . S
C2484 C2488 1.368 . S
C2485 C2466 1.429 . S
C2485 C2479 1.429 . S
C2485 C2486 1.523 . S
C2486 C2467 1.368 . S
C2486 C2480 1.368 . S
C2486 C2485 1.523 . S
C2487 C2471 1.429 . S
C2487 C2483 1.429 . S
C2487 C2488 1.523 . S
C2488 C2472 1.368 . S
C2488 C2484 1.368 . S
C2488 C2487 1.523 . S
H2489 C2464 0.950 . S
H2490 C2466 0.950 . S
H2491 C2467 0.949 . S
H2492 C2469 0.950 . S
H2493 C2471 0.950 . S
C2494 C2495 1.349 . S
C2494 C2496 1.327 . S
C2494 H2519 0.950 . S
C2495 C2494 1.349 . S
C2495 C2511 1.349 . S
C2496 C2494 1.327 . S
C2496 C2515 1.429 . S
C2496 H2520 0.950 . S
C2497 C2514 1.574 . S
C2497 C2516 1.368 . S
C2497 H2521 0.949 . S
H2498 C2502 0.949 . S
C2499 C2500 1.349 . S
C2499 C2501 1.327 . S
C2499 H2522 0.950 1_554 S
C2500 C2499 1.349 . S
C2500 C2512 1.349 . S
C2501 C2499 1.327 . S
C2501 C2517 1.429 . S
C2501 H2523 0.950 . S
C2502 H2498 0.949 . S
C2502 C2510 1.574 . S
C2502 C2518 1.368 . S
H2503 C2511 0.950 . S
H2504 C2509 0.950 . S
H2505 C2510 0.949 . S
H2506 C2512 0.950 . S
H2507 C2513 0.950 . S
H2508 C2514 0.949 . S
C2509 H2504 0.950 . S
C2509 C2511 1.327 . S
C2509 C2515 1.429 . S
C2510 C2502 1.574 . S
C2510 H2505 0.949 . S
C2510 C2516 1.368 . S
C2511 C2495 1.349 . S
C2511 H2503 0.950 . S
C2511 C2509 1.327 . S
C2512 C2500 1.349 . S
C2512 H2506 0.950 . S
C2512 C2513 1.327 . S
C2513 H2507 0.950 . S
C2513 C2512 1.327 . S
C2513 C2517 1.429 . S
C2514 C2497 1.574 . S
C2514 H2508 0.949 . S
C2514 C2518 1.368 . S
C2515 C2496 1.429 . S
C2515 C2509 1.429 . S
C2515 C2516 1.523 . S
C2516 C2497 1.368 . S
C2516 C2510 1.368 . S
C2516 C2515 1.523 . S
C2517 C2501 1.429 . S
C2517 C2513 1.429 . S
C2517 C2518 1.523 . S
C2518 C2502 1.368 . S
C2518 C2514 1.368 . S
C2518 C2517 1.523 . S
H2519 C2494 0.950 . S
H2520 C2496 0.950 . S
H2521 C2497 0.949 . S
H2522 C2499 0.950 1_556 S
H2523 C2501 0.950 . S
C2524 C2525 1.349 . S
C2524 C2526 1.327 . S
C2524 H2549 0.950 . S
C2525 C2524 1.349 . S
C2525 C2541 1.349 . S
C2526 C2524 1.327 . S
C2526 C2545 1.429 . S
C2526 H2550 0.950 . S
C2527 C2544 1.574 . S
C2527 C2546 1.368 . S
C2527 H2551 0.949 . S
H2528 C2532 0.949 . S
C2529 C2530 1.349 . S
C2529 C2531 1.327 . S
C2529 H2552 0.950 . S
C2530 C2529 1.349 . S
C2530 C2542 1.349 . S
C2531 C2529 1.327 . S
C2531 C2547 1.429 . S
C2531 H2553 0.950 . S
C2532 H2528 0.949 . S
C2532 C2540 1.574 . S
C2532 C2548 1.368 . S
H2533 C2541 0.950 . S
H2534 C2539 0.950 . S
H2535 C2540 0.949 . S
H2536 C2542 0.950 . S
H2537 C2543 0.950 . S
H2538 C2544 0.949 . S
C2539 H2534 0.950 . S
C2539 C2541 1.327 . S
C2539 C2545 1.429 . S
C2540 C2532 1.574 . S
C2540 H2535 0.949 . S
C2540 C2546 1.368 . S
C2541 C2525 1.349 . S
C2541 H2533 0.950 . S
C2541 C2539 1.327 . S
C2542 C2530 1.349 . S
C2542 H2536 0.950 . S
C2542 C2543 1.327 . S
C2543 H2537 0.950 . S
C2543 C2542 1.327 . S
C2543 C2547 1.429 . S
C2544 C2527 1.574 . S
C2544 H2538 0.949 . S
C2544 C2548 1.368 . S
C2545 C2526 1.429 . S
C2545 C2539 1.429 . S
C2545 C2546 1.523 . S
C2546 C2527 1.368 . S
C2546 C2540 1.368 . S
C2546 C2545 1.523 . S
C2547 C2531 1.429 . S
C2547 C2543 1.429 . S
C2547 C2548 1.523 . S
C2548 C2532 1.368 . S
C2548 C2544 1.368 . S
C2548 C2547 1.523 . S
H2549 C2524 0.950 . S
H2550 C2526 0.950 . S
H2551 C2527 0.949 . S
H2552 C2529 0.950 . S
H2553 C2531 0.950 . S
C2554 C2555 1.349 1_455 S
C2554 C2556 1.327 . S
C2554 H2579 0.950 . S
C2555 C2554 1.349 1_655 S
C2555 C2571 1.349 1_655 S
C2556 C2554 1.327 . S
C2556 C2575 1.429 . S
C2556 H2580 0.950 . S
C2557 C2574 1.574 . S
C2557 C2576 1.368 . S
C2557 H2581 0.949 . S
H2558 C2562 0.949 . S
C2559 C2560 1.349 . S
C2559 C2561 1.327 . S
C2559 H2582 0.950 1_556 S
C2560 C2559 1.349 . S
C2560 C2572 1.349 . S
C2561 C2559 1.327 . S
C2561 C2577 1.429 . S
C2561 H2583 0.950 . S
C2562 H2558 0.949 . S
C2562 C2570 1.574 . S
C2562 C2578 1.368 . S
H2563 C2571 0.950 1_655 S
H2564 C2569 0.950 . S
H2565 C2570 0.949 . S
H2566 C2572 0.950 . S
H2567 C2573 0.950 . S
H2568 C2574 0.949 . S
C2569 H2564 0.950 . S
C2569 C2571 1.327 . S
C2569 C2575 1.429 . S
C2570 C2562 1.574 . S
C2570 H2565 0.949 . S
C2570 C2576 1.368 . S
C2571 C2555 1.349 1_455 S
C2571 H2563 0.950 1_455 S
C2571 C2569 1.327 . S
C2572 C2560 1.349 . S
C2572 H2566 0.950 . S
C2572 C2573 1.327 . S
C2573 H2567 0.950 . S
C2573 C2572 1.327 . S
C2573 C2577 1.429 . S
C2574 C2557 1.574 . S
C2574 H2568 0.949 . S
C2574 C2578 1.368 . S
C2575 C2556 1.429 . S
C2575 C2569 1.429 . S
C2575 C2576 1.523 . S
C2576 C2557 1.368 . S
C2576 C2570 1.368 . S
C2576 C2575 1.523 . S
C2577 C2561 1.429 . S
C2577 C2573 1.429 . S
C2577 C2578 1.523 . S
C2578 C2562 1.368 . S
C2578 C2574 1.368 . S
C2578 C2577 1.523 . S
H2579 C2554 0.950 . S
H2580 C2556 0.950 . S
H2581 C2557 0.949 . S
H2582 C2559 0.950 1_554 S
H2583 C2561 0.950 . S
C2584 C2585 1.349 . S
C2584 C2586 1.327 . S
C2584 H2609 0.950 . S
C2585 C2584 1.349 . S
C2585 C2601 1.349 . S
C2586 C2584 1.327 . S
C2586 C2605 1.429 . S
C2586 H2610 0.950 . S
C2587 C2604 1.574 . S
C2587 C2606 1.368 . S
C2587 H2611 0.949 . S
H2588 C2592 0.949 . S
C2589 C2590 1.349 . S
C2589 C2591 1.327 . S
C2589 H2612 0.950 . S
C2590 C2589 1.349 . S
C2590 C2602 1.349 . S
C2591 C2589 1.327 . S
C2591 C2607 1.429 . S
C2591 H2613 0.950 . S
C2592 H2588 0.949 . S
C2592 C2600 1.574 . S
C2592 C2608 1.368 . S
H2593 C2601 0.950 . S
H2594 C2599 0.950 . S
H2595 C2600 0.949 . S
H2596 C2602 0.950 . S
H2597 C2603 0.950 . S
H2598 C2604 0.949 . S
C2599 H2594 0.950 . S
C2599 C2601 1.327 . S
C2599 C2605 1.429 . S
C2600 C2592 1.574 . S
C2600 H2595 0.949 . S
C2600 C2606 1.368 . S
C2601 C2585 1.349 . S
C2601 H2593 0.950 . S
C2601 C2599 1.327 . S
C2602 C2590 1.349 . S
C2602 H2596 0.950 . S
C2602 C2603 1.327 . S
C2603 H2597 0.950 . S
C2603 C2602 1.327 . S
C2603 C2607 1.429 . S
C2604 C2587 1.574 . S
C2604 H2598 0.949 . S
C2604 C2608 1.368 . S
C2605 C2586 1.429 . S
C2605 C2599 1.429 . S
C2605 C2606 1.523 . S
C2606 C2587 1.368 . S
C2606 C2600 1.368 . S
C2606 C2605 1.523 . S
C2607 C2591 1.429 . S
C2607 C2603 1.429 . S
C2607 C2608 1.523 . S
C2608 C2592 1.368 . S
C2608 C2604 1.368 . S
C2608 C2607 1.523 . S
H2609 C2584 0.950 . S
H2610 C2586 0.950 . S
H2611 C2587 0.949 . S
H2612 C2589 0.950 . S
H2613 C2591 0.950 . S
C2614 C2615 1.349 1_655 S
C2614 C2616 1.327 . S
C2614 H2639 0.950 1_655 S
C2615 C2614 1.349 1_455 S
C2615 C2631 1.349 1_455 S
C2616 C2614 1.327 . S
C2616 C2635 1.429 . S
C2616 H2640 0.950 . S
C2617 C2634 1.574 . S
C2617 C2636 1.368 . S
C2617 H2641 0.949 . S
H2618 C2622 0.949 . S
C2619 C2620 1.349 . S
C2619 C2621 1.327 . S
C2619 H2642 0.950 . S
C2620 C2619 1.349 . S
C2620 C2632 1.349 . S
C2621 C2619 1.327 . S
C2621 C2637 1.429 . S
C2621 H2643 0.950 . S
C2622 H2618 0.949 . S
C2622 C2630 1.574 . S
C2622 C2638 1.368 . S
H2623 C2631 0.950 . S
H2624 C2629 0.950 . S
H2625 C2630 0.949 . S
H2626 C2632 0.950 . S
H2627 C2633 0.950 . S
H2628 C2634 0.949 . S
C2629 H2624 0.950 . S
C2629 C2631 1.327 . S
C2629 C2635 1.429 . S
C2630 C2622 1.574 . S
C2630 H2625 0.949 . S
C2630 C2636 1.368 . S
C2631 C2615 1.349 1_655 S
C2631 H2623 0.950 . S
C2631 C2629 1.327 . S
C2632 C2620 1.349 . S
C2632 H2626 0.950 . S
C2632 C2633 1.327 . S
C2633 H2627 0.950 . S
C2633 C2632 1.327 . S
C2633 C2637 1.429 . S
C2634 C2617 1.574 . S
C2634 H2628 0.949 . S
C2634 C2638 1.368 . S
C2635 C2616 1.429 . S
C2635 C2629 1.429 . S
C2635 C2636 1.523 . S
C2636 C2617 1.368 . S
C2636 C2630 1.368 . S
C2636 C2635 1.523 . S
C2637 C2621 1.429 . S
C2637 C2633 1.429 . S
C2637 C2638 1.523 . S
C2638 C2622 1.368 . S
C2638 C2634 1.368 . S
C2638 C2637 1.523 . S
H2639 C2614 0.950 1_455 S
H2640 C2616 0.950 . S
H2641 C2617 0.949 . S
H2642 C2619 0.950 . S
H2643 C2621 0.950 . S
C2644 C2645 1.349 . S
C2644 C2646 1.327 . S
C2644 H2669 0.950 . S
C2645 C2644 1.349 . S
C2645 C2661 1.349 . S
C2646 C2644 1.327 . S
C2646 C2665 1.429 . S
C2646 H2670 0.950 . S
C2647 C2664 1.574 . S
C2647 C2666 1.368 . S
C2647 H2671 0.949 . S
H2648 C2652 0.949 . S
C2649 C2650 1.349 . S
C2649 C2651 1.327 . S
C2649 H2672 0.950 . S
C2650 C2649 1.349 . S
C2650 C2662 1.349 . S
C2651 C2649 1.327 . S
C2651 C2667 1.429 . S
C2651 H2673 0.950 . S
C2652 H2648 0.949 . S
C2652 C2660 1.574 . S
C2652 C2668 1.368 . S
H2653 C2661 0.950 . S
H2654 C2659 0.950 . S
H2655 C2660 0.949 . S
H2656 C2662 0.950 . S
H2657 C2663 0.950 . S
H2658 C2664 0.949 . S
C2659 H2654 0.950 . S
C2659 C2661 1.327 . S
C2659 C2665 1.429 . S
C2660 C2652 1.574 . S
C2660 H2655 0.949 . S
C2660 C2666 1.368 . S
C2661 C2645 1.349 . S
C2661 H2653 0.950 . S
C2661 C2659 1.327 . S
C2662 C2650 1.349 . S
C2662 H2656 0.950 . S
C2662 C2663 1.327 . S
C2663 H2657 0.950 . S
C2663 C2662 1.327 . S
C2663 C2667 1.429 . S
C2664 C2647 1.574 . S
C2664 H2658 0.949 . S
C2664 C2668 1.368 . S
C2665 C2646 1.429 . S
C2665 C2659 1.429 . S
C2665 C2666 1.523 . S
C2666 C2647 1.368 . S
C2666 C2660 1.368 . S
C2666 C2665 1.523 . S
C2667 C2651 1.429 . S
C2667 C2663 1.429 . S
C2667 C2668 1.523 . S
C2668 C2652 1.368 . S
C2668 C2664 1.368 . S
C2668 C2667 1.523 . S
H2669 C2644 0.950 . S
H2670 C2646 0.950 . S
H2671 C2647 0.949 . S
H2672 C2649 0.950 . S
H2673 C2651 0.950 . S
C2674 C2675 1.349 . S
C2674 C2676 1.327 . S
C2674 H2699 0.950 . S
C2675 C2674 1.349 . S
C2675 C2691 1.349 . S
C2676 C2674 1.327 . S
C2676 C2695 1.429 . S
C2676 H2700 0.950 . S
C2677 C2694 1.574 . S
C2677 C2696 1.368 . S
C2677 H2701 0.949 . S
H2678 C2682 0.949 . S
C2679 C2680 1.349 . S
C2679 C2681 1.327 . S
C2679 H2702 0.950 . S
C2680 C2679 1.349 . S
C2680 C2692 1.349 . S
C2681 C2679 1.327 . S
C2681 C2697 1.429 . S
C2681 H2703 0.950 . S
C2682 H2678 0.949 . S
C2682 C2690 1.574 . S
C2682 C2698 1.368 . S
H2683 C2691 0.950 . S
H2684 C2689 0.950 . S
H2685 C2690 0.949 . S
H2686 C2692 0.950 . S
H2687 C2693 0.950 . S
H2688 C2694 0.949 . S
C2689 H2684 0.950 . S
C2689 C2691 1.327 . S
C2689 C2695 1.429 . S
C2690 C2682 1.574 . S
C2690 H2685 0.949 . S
C2690 C2696 1.368 . S
C2691 C2675 1.349 . S
C2691 H2683 0.950 . S
C2691 C2689 1.327 . S
C2692 C2680 1.349 . S
C2692 H2686 0.950 . S
C2692 C2693 1.327 . S
C2693 H2687 0.950 . S
C2693 C2692 1.327 . S
C2693 C2697 1.429 . S
C2694 C2677 1.574 . S
C2694 H2688 0.949 . S
C2694 C2698 1.368 . S
C2695 C2676 1.429 . S
C2695 C2689 1.429 . S
C2695 C2696 1.523 . S
C2696 C2677 1.368 . S
C2696 C2690 1.368 . S
C2696 C2695 1.523 . S
C2697 C2681 1.429 . S
C2697 C2693 1.429 . S
C2697 C2698 1.523 . S
C2698 C2682 1.368 . S
C2698 C2694 1.368 . S
C2698 C2697 1.523 . S
H2699 C2674 0.950 . S
H2700 C2676 0.950 . S
H2701 C2677 0.949 . S
H2702 C2679 0.950 . S
H2703 C2681 0.950 . S
C2704 C2705 1.349 1_556 S
C2704 C2706 1.327 . S
C2704 H2729 0.950 1_556 S
C2705 C2704 1.349 1_554 S
C2705 C2721 1.349 1_554 S
C2706 C2704 1.327 . S
C2706 C2725 1.429 . S
C2706 H2730 0.950 . S
C2707 C2724 1.574 . S
C2707 C2726 1.368 . S
C2707 H2731 0.949 . S
H2708 C2712 0.949 . S
C2709 C2710 1.349 . S
C2709 C2711 1.327 . S
C2709 H2732 0.950 . S
C2710 C2709 1.349 . S
C2710 C2722 1.349 . S
C2711 C2709 1.327 . S
C2711 C2727 1.429 . S
C2711 H2733 0.950 . S
C2712 H2708 0.949 . S
C2712 C2720 1.574 . S
C2712 C2728 1.368 . S
H2713 C2721 0.950 . S
H2714 C2719 0.950 . S
H2715 C2720 0.949 . S
H2716 C2722 0.950 . S
H2717 C2723 0.950 . S
H2718 C2724 0.949 . S
C2719 H2714 0.950 . S
C2719 C2721 1.327 . S
C2719 C2725 1.429 . S
C2720 C2712 1.574 . S
C2720 H2715 0.949 . S
C2720 C2726 1.368 . S
C2721 C2705 1.349 1_556 S
C2721 H2713 0.950 . S
C2721 C2719 1.327 . S
C2722 C2710 1.349 . S
C2722 H2716 0.950 . S
C2722 C2723 1.327 . S
C2723 H2717 0.950 . S
C2723 C2722 1.327 . S
C2723 C2727 1.429 . S
C2724 C2707 1.574 . S
C2724 H2718 0.949 . S
C2724 C2728 1.368 . S
C2725 C2706 1.429 . S
C2725 C2719 1.429 . S
C2725 C2726 1.523 . S
C2726 C2707 1.368 . S
C2726 C2720 1.368 . S
C2726 C2725 1.523 . S
C2727 C2711 1.429 . S
C2727 C2723 1.429 . S
C2727 C2728 1.523 . S
C2728 C2712 1.368 . S
C2728 C2724 1.368 . S
C2728 C2727 1.523 . S
H2729 C2704 0.950 1_554 S
H2730 C2706 0.950 . S
H2731 C2707 0.949 . S
H2732 C2709 0.950 . S
H2733 C2711 0.950 . S
C2734 C2735 1.349 . S
C2734 C2736 1.327 . S
C2734 H2759 0.950 . S
C2735 C2734 1.349 . S
C2735 C2751 1.349 . S
C2736 C2734 1.327 . S
C2736 C2755 1.429 . S
C2736 H2760 0.950 . S
C2737 C2754 1.574 . S
C2737 C2756 1.368 . S
C2737 H2761 0.949 . S
H2738 C2742 0.949 . S
C2739 C2740 1.349 . S
C2739 C2741 1.327 . S
C2739 H2762 0.950 . S
C2740 C2739 1.349 . S
C2740 C2752 1.349 . S
C2741 C2739 1.327 . S
C2741 C2757 1.429 . S
C2741 H2763 0.950 . S
C2742 H2738 0.949 . S
C2742 C2750 1.574 . S
C2742 C2758 1.368 . S
H2743 C2751 0.950 . S
H2744 C2749 0.950 . S
H2745 C2750 0.949 . S
H2746 C2752 0.950 . S
H2747 C2753 0.950 . S
H2748 C2754 0.949 . S
C2749 H2744 0.950 . S
C2749 C2751 1.327 . S
C2749 C2755 1.429 . S
C2750 C2742 1.574 . S
C2750 H2745 0.949 . S
C2750 C2756 1.368 . S
C2751 C2735 1.349 . S
C2751 H2743 0.950 . S
C2751 C2749 1.327 . S
C2752 C2740 1.349 . S
C2752 H2746 0.950 . S
C2752 C2753 1.327 . S
C2753 H2747 0.950 . S
C2753 C2752 1.327 . S
C2753 C2757 1.429 . S
C2754 C2737 1.574 . S
C2754 H2748 0.949 . S
C2754 C2758 1.368 . S
C2755 C2736 1.429 . S
C2755 C2749 1.429 . S
C2755 C2756 1.523 . S
C2756 C2737 1.368 . S
C2756 C2750 1.368 . S
C2756 C2755 1.523 . S
C2757 C2741 1.429 . S
C2757 C2753 1.429 . S
C2757 C2758 1.523 . S
C2758 C2742 1.368 . S
C2758 C2754 1.368 . S
C2758 C2757 1.523 . S
H2759 C2734 0.950 . S
H2760 C2736 0.950 . S
H2761 C2737 0.949 . S
H2762 C2739 0.950 . S
H2763 C2741 0.950 . S
C2764 C2765 1.349 . S
C2764 C2766 1.327 . S
C2764 H2789 0.950 . S
C2765 C2764 1.349 . S
C2765 C2781 1.349 . S
C2766 C2764 1.327 . S
C2766 C2785 1.429 . S
C2766 H2790 0.950 . S
C2767 C2784 1.574 . S
C2767 C2786 1.368 . S
C2767 H2791 0.949 . S
H2768 C2772 0.949 . S
C2769 C2770 1.349 . S
C2769 C2771 1.327 . S
C2769 H2792 0.950 . S
C2770 C2769 1.349 . S
C2770 C2782 1.349 . S
C2771 C2769 1.327 . S
C2771 C2787 1.429 . S
C2771 H2793 0.950 . S
C2772 H2768 0.949 . S
C2772 C2780 1.574 . S
C2772 C2788 1.368 . S
H2773 C2781 0.950 . S
H2774 C2779 0.950 . S
H2775 C2780 0.949 . S
H2776 C2782 0.950 . S
H2777 C2783 0.950 . S
H2778 C2784 0.949 . S
C2779 H2774 0.950 . S
C2779 C2781 1.327 . S
C2779 C2785 1.429 . S
C2780 C2772 1.574 . S
C2780 H2775 0.949 . S
C2780 C2786 1.368 . S
C2781 C2765 1.349 . S
C2781 H2773 0.950 . S
C2781 C2779 1.327 . S
C2782 C2770 1.349 . S
C2782 H2776 0.950 . S
C2782 C2783 1.327 . S
C2783 H2777 0.950 . S
C2783 C2782 1.327 . S
C2783 C2787 1.429 . S
C2784 C2767 1.574 . S
C2784 H2778 0.949 . S
C2784 C2788 1.368 . S
C2785 C2766 1.429 . S
C2785 C2779 1.429 . S
C2785 C2786 1.523 . S
C2786 C2767 1.368 . S
C2786 C2780 1.368 . S
C2786 C2785 1.523 . S
C2787 C2771 1.429 . S
C2787 C2783 1.429 . S
C2787 C2788 1.523 . S
C2788 C2772 1.368 . S
C2788 C2784 1.368 . S
C2788 C2787 1.523 . S
H2789 C2764 0.950 . S
H2790 C2766 0.950 . S
H2791 C2767 0.949 . S
H2792 C2769 0.950 . S
H2793 C2771 0.950 . S
C2794 C2795 1.349 . S
C2794 C2796 1.327 . S
C2794 H2819 0.950 . S
C2795 C2794 1.349 . S
C2795 C2811 1.349 . S
C2796 C2794 1.327 . S
C2796 C2815 1.429 . S
C2796 H2820 0.950 . S
C2797 C2814 1.574 . S
C2797 C2816 1.368 . S
C2797 H2821 0.949 . S
H2798 C2802 0.949 . S
C2799 C2800 1.349 . S
C2799 C2801 1.327 . S
C2799 H2822 0.950 . S
C2800 C2799 1.349 . S
C2800 C2812 1.349 . S
C2801 C2799 1.327 . S
C2801 C2817 1.429 . S
C2801 H2823 0.950 . S
C2802 H2798 0.949 . S
C2802 C2810 1.574 . S
C2802 C2818 1.368 . S
H2803 C2811 0.950 . S
H2804 C2809 0.950 . S
H2805 C2810 0.949 . S
H2806 C2812 0.950 . S
H2807 C2813 0.950 . S
H2808 C2814 0.949 . S
C2809 H2804 0.950 . S
C2809 C2811 1.327 . S
C2809 C2815 1.429 . S
C2810 C2802 1.574 . S
C2810 H2805 0.949 . S
C2810 C2816 1.368 . S
C2811 C2795 1.349 . S
C2811 H2803 0.950 . S
C2811 C2809 1.327 . S
C2812 C2800 1.349 . S
C2812 H2806 0.950 . S
C2812 C2813 1.327 . S
C2813 H2807 0.950 . S
C2813 C2812 1.327 . S
C2813 C2817 1.429 . S
C2814 C2797 1.574 . S
C2814 H2808 0.949 . S
C2814 C2818 1.368 . S
C2815 C2796 1.429 . S
C2815 C2809 1.429 . S
C2815 C2816 1.523 . S
C2816 C2797 1.368 . S
C2816 C2810 1.368 . S
C2816 C2815 1.523 . S
C2817 C2801 1.429 . S
C2817 C2813 1.429 . S
C2817 C2818 1.523 . S
C2818 C2802 1.368 . S
C2818 C2814 1.368 . S
C2818 C2817 1.523 . S
H2819 C2794 0.950 . S
H2820 C2796 0.950 . S
H2821 C2797 0.949 . S
H2822 C2799 0.950 . S
H2823 C2801 0.950 . S
C2824 C2825 1.349 . S
C2824 C2826 1.327 . S
C2824 H2849 0.950 . S
C2825 C2824 1.349 . S
C2825 C2841 1.349 . S
C2826 C2824 1.327 . S
C2826 C2845 1.429 . S
C2826 H2850 0.950 . S
C2827 C2844 1.574 . S
C2827 C2846 1.368 . S
C2827 H2851 0.949 . S
H2828 C2832 0.949 . S
C2829 C2830 1.349 . S
C2829 C2831 1.327 . S
C2829 H2852 0.950 . S
C2830 C2829 1.349 . S
C2830 C2842 1.349 . S
C2831 C2829 1.327 . S
C2831 C2847 1.429 . S
C2831 H2853 0.950 . S
C2832 H2828 0.949 . S
C2832 C2840 1.574 . S
C2832 C2848 1.368 . S
H2833 C2841 0.950 . S
H2834 C2839 0.950 . S
H2835 C2840 0.949 . S
H2836 C2842 0.950 . S
H2837 C2843 0.950 . S
H2838 C2844 0.949 . S
C2839 H2834 0.950 . S
C2839 C2841 1.327 . S
C2839 C2845 1.429 . S
C2840 C2832 1.574 . S
C2840 H2835 0.949 . S
C2840 C2846 1.368 . S
C2841 C2825 1.349 . S
C2841 H2833 0.950 . S
C2841 C2839 1.327 . S
C2842 C2830 1.349 . S
C2842 H2836 0.950 . S
C2842 C2843 1.327 . S
C2843 H2837 0.950 . S
C2843 C2842 1.327 . S
C2843 C2847 1.429 . S
C2844 C2827 1.574 . S
C2844 H2838 0.949 . S
C2844 C2848 1.368 . S
C2845 C2826 1.429 . S
C2845 C2839 1.429 . S
C2845 C2846 1.523 . S
C2846 C2827 1.368 . S
C2846 C2840 1.368 . S
C2846 C2845 1.523 . S
C2847 C2831 1.429 . S
C2847 C2843 1.429 . S
C2847 C2848 1.523 . S
C2848 C2832 1.368 . S
C2848 C2844 1.368 . S
C2848 C2847 1.523 . S
H2849 C2824 0.950 . S
H2850 C2826 0.950 . S
H2851 C2827 0.949 . S
H2852 C2829 0.950 . S
H2853 C2831 0.950 . S
C2854 C2855 1.349 . S
C2854 C2856 1.327 . S
C2854 H2879 0.950 . S
C2855 C2854 1.349 . S
C2855 C2871 1.349 . S
C2856 C2854 1.327 . S
C2856 C2875 1.429 . S
C2856 H2880 0.950 . S
C2857 C2874 1.574 . S
C2857 C2876 1.368 . S
C2857 H2881 0.949 . S
H2858 C2862 0.949 . S
C2859 C2860 1.349 . S
C2859 C2861 1.327 . S
C2859 H2882 0.950 . S
C2860 C2859 1.349 . S
C2860 C2872 1.349 . S
C2861 C2859 1.327 . S
C2861 C2877 1.429 . S
C2861 H2883 0.950 . S
C2862 H2858 0.949 . S
C2862 C2870 1.574 . S
C2862 C2878 1.368 . S
H2863 C2871 0.950 . S
H2864 C2869 0.950 . S
H2865 C2870 0.949 . S
H2866 C2872 0.950 . S
H2867 C2873 0.950 . S
H2868 C2874 0.949 . S
C2869 H2864 0.950 . S
C2869 C2871 1.327 . S
C2869 C2875 1.429 . S
C2870 C2862 1.574 . S
C2870 H2865 0.949 . S
C2870 C2876 1.368 . S
C2871 C2855 1.349 . S
C2871 H2863 0.950 . S
C2871 C2869 1.327 . S
C2872 C2860 1.349 . S
C2872 H2866 0.950 . S
C2872 C2873 1.327 . S
C2873 H2867 0.950 . S
C2873 C2872 1.327 . S
C2873 C2877 1.429 . S
C2874 C2857 1.574 . S
C2874 H2868 0.949 . S
C2874 C2878 1.368 . S
C2875 C2856 1.429 . S
C2875 C2869 1.429 . S
C2875 C2876 1.523 . S
C2876 C2857 1.368 . S
C2876 C2870 1.368 . S
C2876 C2875 1.523 . S
C2877 C2861 1.429 . S
C2877 C2873 1.429 . S
C2877 C2878 1.523 . S
C2878 C2862 1.368 . S
C2878 C2874 1.368 . S
C2878 C2877 1.523 . S
H2879 C2854 0.950 . S
H2880 C2856 0.950 . S
H2881 C2857 0.949 . S
H2882 C2859 0.950 . S
H2883 C2861 0.950 . S
C2884 C2885 1.349 . S
C2884 C2886 1.327 . S
C2884 H2909 0.950 . S
C2885 C2884 1.349 . S
C2885 C2901 1.349 . S
C2886 C2884 1.327 . S
C2886 C2905 1.429 . S
C2886 H2910 0.950 . S
C2887 C2904 1.574 . S
C2887 C2906 1.368 . S
C2887 H2911 0.949 . S
H2888 C2892 0.949 . S
C2889 C2890 1.349 . S
C2889 C2891 1.327 . S
C2889 H2912 0.950 . S
C2890 C2889 1.349 . S
C2890 C2902 1.349 . S
C2891 C2889 1.327 . S
C2891 C2907 1.429 . S
C2891 H2913 0.950 . S
C2892 H2888 0.949 . S
C2892 C2900 1.574 . S
C2892 C2908 1.368 . S
H2893 C2901 0.950 . S
H2894 C2899 0.950 . S
H2895 C2900 0.949 . S
H2896 C2902 0.950 . S
H2897 C2903 0.950 . S
H2898 C2904 0.949 . S
C2899 H2894 0.950 . S
C2899 C2901 1.327 . S
C2899 C2905 1.429 . S
C2900 C2892 1.574 . S
C2900 H2895 0.949 . S
C2900 C2906 1.368 . S
C2901 C2885 1.349 . S
C2901 H2893 0.950 . S
C2901 C2899 1.327 . S
C2902 C2890 1.349 . S
C2902 H2896 0.950 . S
C2902 C2903 1.327 . S
C2903 H2897 0.950 . S
C2903 C2902 1.327 . S
C2903 C2907 1.429 . S
C2904 C2887 1.574 . S
C2904 H2898 0.949 . S
C2904 C2908 1.368 . S
C2905 C2886 1.429 . S
C2905 C2899 1.429 . S
C2905 C2906 1.523 . S
C2906 C2887 1.368 . S
C2906 C2900 1.368 . S
C2906 C2905 1.523 . S
C2907 C2891 1.429 . S
C2907 C2903 1.429 . S
C2907 C2908 1.523 . S
C2908 C2892 1.368 . S
C2908 C2904 1.368 . S
C2908 C2907 1.523 . S
H2909 C2884 0.950 . S
H2910 C2886 0.950 . S
H2911 C2887 0.949 . S
H2912 C2889 0.950 . S
H2913 C2891 0.950 . S
C2914 C2915 1.349 . S
C2914 C2916 1.327 . S
C2914 H2939 0.950 . S
C2915 C2914 1.349 . S
C2915 C2931 1.349 . S
C2916 C2914 1.327 . S
C2916 C2935 1.429 . S
C2916 H2940 0.950 . S
C2917 C2934 1.574 . S
C2917 C2936 1.368 . S
C2917 H2941 0.949 . S
H2918 C2922 0.949 . S
C2919 C2920 1.349 . S
C2919 C2921 1.327 . S
C2919 H2942 0.950 . S
C2920 C2919 1.349 . S
C2920 C2932 1.349 . S
C2921 C2919 1.327 . S
C2921 C2937 1.429 . S
C2921 H2943 0.950 . S
C2922 H2918 0.949 . S
C2922 C2930 1.574 . S
C2922 C2938 1.368 . S
H2923 C2931 0.950 . S
H2924 C2929 0.950 . S
H2925 C2930 0.949 . S
H2926 C2932 0.950 . S
H2927 C2933 0.950 . S
H2928 C2934 0.949 . S
C2929 H2924 0.950 . S
C2929 C2931 1.327 . S
C2929 C2935 1.429 . S
C2930 C2922 1.574 . S
C2930 H2925 0.949 . S
C2930 C2936 1.368 . S
C2931 C2915 1.349 . S
C2931 H2923 0.950 . S
C2931 C2929 1.327 . S
C2932 C2920 1.349 . S
C2932 H2926 0.950 . S
C2932 C2933 1.327 . S
C2933 H2927 0.950 . S
C2933 C2932 1.327 . S
C2933 C2937 1.429 . S
C2934 C2917 1.574 . S
C2934 H2928 0.949 . S
C2934 C2938 1.368 . S
C2935 C2916 1.429 . S
C2935 C2929 1.429 . S
C2935 C2936 1.523 . S
C2936 C2917 1.368 . S
C2936 C2930 1.368 . S
C2936 C2935 1.523 . S
C2937 C2921 1.429 . S
C2937 C2933 1.429 . S
C2937 C2938 1.523 . S
C2938 C2922 1.368 . S
C2938 C2934 1.368 . S
C2938 C2937 1.523 . S
H2939 C2914 0.950 . S
H2940 C2916 0.950 . S
H2941 C2917 0.949 . S
H2942 C2919 0.950 . S
H2943 C2921 0.950 . S
C2944 C2945 1.349 . S
C2944 C2946 1.327 . S
C2944 H2969 0.950 . S
C2945 C2944 1.349 . S
C2945 C2961 1.349 . S
C2946 C2944 1.327 . S
C2946 C2965 1.429 . S
C2946 H2970 0.950 . S
C2947 C2964 1.574 . S
C2947 C2966 1.368 . S
C2947 H2971 0.949 . S
H2948 C2952 0.949 . S
C2949 C2950 1.349 . S
C2949 C2951 1.327 . S
C2949 H2972 0.950 . S
C2950 C2949 1.349 . S
C2950 C2962 1.349 . S
C2951 C2949 1.327 . S
C2951 C2967 1.429 . S
C2951 H2973 0.950 . S
C2952 H2948 0.949 . S
C2952 C2960 1.574 . S
C2952 C2968 1.368 . S
H2953 C2961 0.950 . S
H2954 C2959 0.950 . S
H2955 C2960 0.949 . S
H2956 C2962 0.950 . S
H2957 C2963 0.950 . S
H2958 C2964 0.949 . S
C2959 H2954 0.950 . S
C2959 C2961 1.327 . S
C2959 C2965 1.429 . S
C2960 C2952 1.574 . S
C2960 H2955 0.949 . S
C2960 C2966 1.368 . S
C2961 C2945 1.349 . S
C2961 H2953 0.950 . S
C2961 C2959 1.327 . S
C2962 C2950 1.349 . S
C2962 H2956 0.950 . S
C2962 C2963 1.327 . S
C2963 H2957 0.950 . S
C2963 C2962 1.327 . S
C2963 C2967 1.429 . S
C2964 C2947 1.574 . S
C2964 H2958 0.949 . S
C2964 C2968 1.368 . S
C2965 C2946 1.429 . S
C2965 C2959 1.429 . S
C2965 C2966 1.523 . S
C2966 C2947 1.368 . S
C2966 C2960 1.368 . S
C2966 C2965 1.523 . S
C2967 C2951 1.429 . S
C2967 C2963 1.429 . S
C2967 C2968 1.523 . S
C2968 C2952 1.368 . S
C2968 C2964 1.368 . S
C2968 C2967 1.523 . S
H2969 C2944 0.950 . S
H2970 C2946 0.950 . S
H2971 C2947 0.949 . S
H2972 C2949 0.950 . S
H2973 C2951 0.950 . S
C2974 C2975 1.349 . S
C2974 C2976 1.327 . S
C2974 H2999 0.950 . S
C2975 C2974 1.349 . S
C2975 C2991 1.349 . S
C2976 C2974 1.327 . S
C2976 C2995 1.429 . S
C2976 H3000 0.950 . S
C2977 C2994 1.574 . S
C2977 C2996 1.368 . S
C2977 H3001 0.949 . S
H2978 C2982 0.949 . S
C2979 C2980 1.349 . S
C2979 C2981 1.327 . S
C2979 H3002 0.950 . S
C2980 C2979 1.349 . S
C2980 C2992 1.349 . S
C2981 C2979 1.327 . S
C2981 C2997 1.429 . S
C2981 H3003 0.950 . S
C2982 H2978 0.949 . S
C2982 C2990 1.574 . S
C2982 C2998 1.368 . S
H2983 C2991 0.950 . S
H2984 C2989 0.950 . S
H2985 C2990 0.949 . S
H2986 C2992 0.950 1_655 S
H2987 C2993 0.950 . S
H2988 C2994 0.949 . S
C2989 H2984 0.950 . S
C2989 C2991 1.327 . S
C2989 C2995 1.429 . S
C2990 C2982 1.574 . S
C2990 H2985 0.949 . S
C2990 C2996 1.368 . S
C2991 C2975 1.349 . S
C2991 H2983 0.950 . S
C2991 C2989 1.327 . S
C2992 C2980 1.349 . S
C2992 H2986 0.950 1_455 S
C2992 C2993 1.327 . S
C2993 H2987 0.950 . S
C2993 C2992 1.327 . S
C2993 C2997 1.429 . S
C2994 C2977 1.574 . S
C2994 H2988 0.949 . S
C2994 C2998 1.368 . S
C2995 C2976 1.429 . S
C2995 C2989 1.429 . S
C2995 C2996 1.523 . S
C2996 C2977 1.368 . S
C2996 C2990 1.368 . S
C2996 C2995 1.523 . S
C2997 C2981 1.429 . S
C2997 C2993 1.429 . S
C2997 C2998 1.523 . S
C2998 C2982 1.368 . S
C2998 C2994 1.368 . S
C2998 C2997 1.523 . S
H2999 C2974 0.950 . S
H3000 C2976 0.950 . S
H3001 C2977 0.949 . S
H3002 C2979 0.950 . S
H3003 C2981 0.950 . S
C3004 C3005 1.349 . S
C3004 C3006 1.327 . S
C3004 H3029 0.950 . S
C3005 C3004 1.349 . S
C3005 C3021 1.349 . S
C3006 C3004 1.327 . S
C3006 C3025 1.429 . S
C3006 H3030 0.950 . S
C3007 C3024 1.574 . S
C3007 C3026 1.368 . S
C3007 H3031 0.949 . S
H3008 C3012 0.949 . S
C3009 C3010 1.349 . S
C3009 C3011 1.327 . S
C3009 H3032 0.950 . S
C3010 C3009 1.349 . S
C3010 C3022 1.349 . S
C3011 C3009 1.327 . S
C3011 C3027 1.429 . S
C3011 H3033 0.950 . S
C3012 H3008 0.949 . S
C3012 C3020 1.574 . S
C3012 C3028 1.368 . S
H3013 C3021 0.950 . S
H3014 C3019 0.950 . S
H3015 C3020 0.949 . S
H3016 C3022 0.950 . S
H3017 C3023 0.950 . S
H3018 C3024 0.949 . S
C3019 H3014 0.950 . S
C3019 C3021 1.327 . S
C3019 C3025 1.429 . S
C3020 C3012 1.574 . S
C3020 H3015 0.949 . S
C3020 C3026 1.368 . S
C3021 C3005 1.349 . S
C3021 H3013 0.950 . S
C3021 C3019 1.327 . S
C3022 C3010 1.349 . S
C3022 H3016 0.950 . S
C3022 C3023 1.327 . S
C3023 H3017 0.950 . S
C3023 C3022 1.327 . S
C3023 C3027 1.429 . S
C3024 C3007 1.574 . S
C3024 H3018 0.949 . S
C3024 C3028 1.368 . S
C3025 C3006 1.429 . S
C3025 C3019 1.429 . S
C3025 C3026 1.523 . S
C3026 C3007 1.368 . S
C3026 C3020 1.368 . S
C3026 C3025 1.523 . S
C3027 C3011 1.429 . S
C3027 C3023 1.429 . S
C3027 C3028 1.523 . S
C3028 C3012 1.368 . S
C3028 C3024 1.368 . S
C3028 C3027 1.523 . S
H3029 C3004 0.950 . S
H3030 C3006 0.950 . S
H3031 C3007 0.949 . S
H3032 C3009 0.950 . S
H3033 C3011 0.950 . S
C3034 C3035 1.349 1_545 S
C3034 C3036 1.327 . S
C3034 H3059 0.950 1_545 S
C3035 C3034 1.349 1_565 S
C3035 C3051 1.349 1_565 S
C3036 C3034 1.327 . S
C3036 C3055 1.429 . S
C3036 H3060 0.950 . S
C3037 C3054 1.574 . S
C3037 C3056 1.368 . S
C3037 H3061 0.949 . S
H3038 C3042 0.949 . S
C3039 C3040 1.349 . S
C3039 C3041 1.327 . S
C3039 H3062 0.950 . S
C3040 C3039 1.349 . S
C3040 C3052 1.349 . S
C3041 C3039 1.327 . S
C3041 C3057 1.429 . S
C3041 H3063 0.950 . S
C3042 H3038 0.949 . S
C3042 C3050 1.574 . S
C3042 C3058 1.368 . S
H3043 C3051 0.950 . S
H3044 C3049 0.950 . S
H3045 C3050 0.949 . S
H3046 C3052 0.950 . S
H3047 C3053 0.950 . S
H3048 C3054 0.949 . S
C3049 H3044 0.950 . S
C3049 C3051 1.327 . S
C3049 C3055 1.429 . S
C3050 C3042 1.574 . S
C3050 H3045 0.949 . S
C3050 C3056 1.368 . S
C3051 C3035 1.349 1_545 S
C3051 H3043 0.950 . S
C3051 C3049 1.327 . S
C3052 C3040 1.349 . S
C3052 H3046 0.950 . S
C3052 C3053 1.327 . S
C3053 H3047 0.950 . S
C3053 C3052 1.327 . S
C3053 C3057 1.429 . S
C3054 C3037 1.574 . S
C3054 H3048 0.949 . S
C3054 C3058 1.368 . S
C3055 C3036 1.429 . S
C3055 C3049 1.429 . S
C3055 C3056 1.523 . S
C3056 C3037 1.368 . S
C3056 C3050 1.368 . S
C3056 C3055 1.523 . S
C3057 C3041 1.429 . S
C3057 C3053 1.429 . S
C3057 C3058 1.523 . S
C3058 C3042 1.368 . S
C3058 C3054 1.368 . S
C3058 C3057 1.523 . S
H3059 C3034 0.950 1_565 S
H3060 C3036 0.950 . S
H3061 C3037 0.949 . S
H3062 C3039 0.950 . S
H3063 C3041 0.950 . S
C3064 C3065 1.349 . S
C3064 C3066 1.327 . S
C3064 H3089 0.950 . S
C3065 C3064 1.349 . S
C3065 C3081 1.349 . S
C3066 C3064 1.327 . S
C3066 C3085 1.429 . S
C3066 H3090 0.950 . S
C3067 C3084 1.574 . S
C3067 C3086 1.368 . S
C3067 H3091 0.949 . S
H3068 C3072 0.949 . S
C3069 C3070 1.349 . S
C3069 C3071 1.327 . S
C3069 H3092 0.950 . S
C3070 C3069 1.349 . S
C3070 C3082 1.349 . S
C3071 C3069 1.327 . S
C3071 C3087 1.429 . S
C3071 H3093 0.950 . S
C3072 H3068 0.949 . S
C3072 C3080 1.574 . S
C3072 C3088 1.368 . S
H3073 C3081 0.950 . S
H3074 C3079 0.950 . S
H3075 C3080 0.949 . S
H3076 C3082 0.950 . S
H3077 C3083 0.950 . S
H3078 C3084 0.949 . S
C3079 H3074 0.950 . S
C3079 C3081 1.327 . S
C3079 C3085 1.429 . S
C3080 C3072 1.574 . S
C3080 H3075 0.949 . S
C3080 C3086 1.368 . S
C3081 C3065 1.349 . S
C3081 H3073 0.950 . S
C3081 C3079 1.327 . S
C3082 C3070 1.349 . S
C3082 H3076 0.950 . S
C3082 C3083 1.327 . S
C3083 H3077 0.950 . S
C3083 C3082 1.327 . S
C3083 C3087 1.429 . S
C3084 C3067 1.574 . S
C3084 H3078 0.949 . S
C3084 C3088 1.368 . S
C3085 C3066 1.429 . S
C3085 C3079 1.429 . S
C3085 C3086 1.523 . S
C3086 C3067 1.368 . S
C3086 C3080 1.368 . S
C3086 C3085 1.523 . S
C3087 C3071 1.429 . S
C3087 C3083 1.429 . S
C3087 C3088 1.523 . S
C3088 C3072 1.368 . S
C3088 C3084 1.368 . S
C3088 C3087 1.523 . S
H3089 C3064 0.950 . S
H3090 C3066 0.950 . S
H3091 C3067 0.949 . S
H3092 C3069 0.950 . S
H3093 C3071 0.950 . S
C3094 C3095 1.349 . S
C3094 C3096 1.327 . S
C3094 H3119 0.950 . S
C3095 C3094 1.349 . S
C3095 C3111 1.349 . S
C3096 C3094 1.327 . S
C3096 C3115 1.429 . S
C3096 H3120 0.950 . S
C3097 C3114 1.574 . S
C3097 C3116 1.368 . S
C3097 H3121 0.949 . S
H3098 C3102 0.949 . S
C3099 C3100 1.349 . S
C3099 C3101 1.327 . S
C3099 H3122 0.950 . S
C3100 C3099 1.349 . S
C3100 C3112 1.349 . S
C3101 C3099 1.327 . S
C3101 C3117 1.429 . S
C3101 H3123 0.950 . S
C3102 H3098 0.949 . S
C3102 C3110 1.574 . S
C3102 C3118 1.368 . S
H3103 C3111 0.950 . S
H3104 C3109 0.950 . S
H3105 C3110 0.949 . S
H3106 C3112 0.950 . S
H3107 C3113 0.950 . S
H3108 C3114 0.949 . S
C3109 H3104 0.950 . S
C3109 C3111 1.327 . S
C3109 C3115 1.429 . S
C3110 C3102 1.574 . S
C3110 H3105 0.949 . S
C3110 C3116 1.368 . S
C3111 C3095 1.349 . S
C3111 H3103 0.950 . S
C3111 C3109 1.327 . S
C3112 C3100 1.349 . S
C3112 H3106 0.950 . S
C3112 C3113 1.327 . S
C3113 H3107 0.950 . S
C3113 C3112 1.327 . S
C3113 C3117 1.429 . S
C3114 C3097 1.574 . S
C3114 H3108 0.949 . S
C3114 C3118 1.368 . S
C3115 C3096 1.429 . S
C3115 C3109 1.429 . S
C3115 C3116 1.523 . S
C3116 C3097 1.368 . S
C3116 C3110 1.368 . S
C3116 C3115 1.523 . S
C3117 C3101 1.429 . S
C3117 C3113 1.429 . S
C3117 C3118 1.523 . S
C3118 C3102 1.368 . S
C3118 C3114 1.368 . S
C3118 C3117 1.523 . S
H3119 C3094 0.950 . S
H3120 C3096 0.950 . S
H3121 C3097 0.949 . S
H3122 C3099 0.950 . S
H3123 C3101 0.950 . S
C3124 C3125 1.349 . S
C3124 C3126 1.327 . S
C3124 H3149 0.950 . S
C3125 C3124 1.349 . S
C3125 C3141 1.349 . S
C3126 C3124 1.327 . S
C3126 C3145 1.429 . S
C3126 H3150 0.950 . S
C3127 C3144 1.574 . S
C3127 C3146 1.368 . S
C3127 H3151 0.949 . S
H3128 C3132 0.949 . S
C3129 C3130 1.349 . S
C3129 C3131 1.327 . S
C3129 H3152 0.950 . S
C3130 C3129 1.349 . S
C3130 C3142 1.349 . S
C3131 C3129 1.327 . S
C3131 C3147 1.429 . S
C3131 H3153 0.950 . S
C3132 H3128 0.949 . S
C3132 C3140 1.574 . S
C3132 C3148 1.368 . S
H3133 C3141 0.950 . S
H3134 C3139 0.950 . S
H3135 C3140 0.949 . S
H3136 C3142 0.950 . S
H3137 C3143 0.950 . S
H3138 C3144 0.949 . S
C3139 H3134 0.950 . S
C3139 C3141 1.327 . S
C3139 C3145 1.429 . S
C3140 C3132 1.574 . S
C3140 H3135 0.949 . S
C3140 C3146 1.368 . S
C3141 C3125 1.349 . S
C3141 H3133 0.950 . S
C3141 C3139 1.327 . S
C3142 C3130 1.349 . S
C3142 H3136 0.950 . S
C3142 C3143 1.327 . S
C3143 H3137 0.950 . S
C3143 C3142 1.327 . S
C3143 C3147 1.429 . S
C3144 C3127 1.574 . S
C3144 H3138 0.949 . S
C3144 C3148 1.368 . S
C3145 C3126 1.429 . S
C3145 C3139 1.429 . S
C3145 C3146 1.523 . S
C3146 C3127 1.368 . S
C3146 C3140 1.368 . S
C3146 C3145 1.523 . S
C3147 C3131 1.429 . S
C3147 C3143 1.429 . S
C3147 C3148 1.523 . S
C3148 C3132 1.368 . S
C3148 C3144 1.368 . S
C3148 C3147 1.523 . S
H3149 C3124 0.950 . S
H3150 C3126 0.950 . S
H3151 C3127 0.949 . S
H3152 C3129 0.950 . S
H3153 C3131 0.950 . S
C3154 C3155 1.349 1_655 S
C3154 C3156 1.327 . S
C3154 H3179 0.950 1_655 S
C3155 C3154 1.349 1_455 S
C3155 C3171 1.349 1_455 S
C3156 C3154 1.327 . S
C3156 C3175 1.429 . S
C3156 H3180 0.950 . S
C3157 C3174 1.574 . S
C3157 C3176 1.368 . S
C3157 H3181 0.949 . S
H3158 C3162 0.949 . S
C3159 C3160 1.349 . S
C3159 C3161 1.327 . S
C3159 H3182 0.950 . S
C3160 C3159 1.349 . S
C3160 C3172 1.349 . S
C3161 C3159 1.327 . S
C3161 C3177 1.429 . S
C3161 H3183 0.950 . S
C3162 H3158 0.949 . S
C3162 C3170 1.574 . S
C3162 C3178 1.368 . S
H3163 C3171 0.950 . S
H3164 C3169 0.950 . S
H3165 C3170 0.949 . S
H3166 C3172 0.950 . S
H3167 C3173 0.950 . S
H3168 C3174 0.949 . S
C3169 H3164 0.950 . S
C3169 C3171 1.327 . S
C3169 C3175 1.429 . S
C3170 C3162 1.574 . S
C3170 H3165 0.949 . S
C3170 C3176 1.368 . S
C3171 C3155 1.349 1_655 S
C3171 H3163 0.950 . S
C3171 C3169 1.327 . S
C3172 C3160 1.349 . S
C3172 H3166 0.950 . S
C3172 C3173 1.327 . S
C3173 H3167 0.950 . S
C3173 C3172 1.327 . S
C3173 C3177 1.429 . S
C3174 C3157 1.574 . S
C3174 H3168 0.949 . S
C3174 C3178 1.368 . S
C3175 C3156 1.429 . S
C3175 C3169 1.429 . S
C3175 C3176 1.523 . S
C3176 C3157 1.368 . S
C3176 C3170 1.368 . S
C3176 C3175 1.523 . S
C3177 C3161 1.429 . S
C3177 C3173 1.429 . S
C3177 C3178 1.523 . S
C3178 C3162 1.368 . S
C3178 C3174 1.368 . S
C3178 C3177 1.523 . S
H3179 C3154 0.950 1_455 S
H3180 C3156 0.950 . S
H3181 C3157 0.949 . S
H3182 C3159 0.950 . S
H3183 C3161 0.950 . S
C3184 C3185 1.349 . S
C3184 C3186 1.327 . S
C3184 H3209 0.950 . S
C3185 C3184 1.349 . S
C3185 C3201 1.349 . S
C3186 C3184 1.327 . S
C3186 C3205 1.429 . S
C3186 H3210 0.950 . S
C3187 C3204 1.574 . S
C3187 C3206 1.368 . S
C3187 H3211 0.949 . S
H3188 C3192 0.949 . S
C3189 C3190 1.349 . S
C3189 C3191 1.327 . S
C3189 H3212 0.950 . S
C3190 C3189 1.349 . S
C3190 C3202 1.349 . S
C3191 C3189 1.327 . S
C3191 C3207 1.429 . S
C3191 H3213 0.950 . S
C3192 H3188 0.949 . S
C3192 C3200 1.574 . S
C3192 C3208 1.368 . S
H3193 C3201 0.950 . S
H3194 C3199 0.950 . S
H3195 C3200 0.949 . S
H3196 C3202 0.950 . S
H3197 C3203 0.950 . S
H3198 C3204 0.949 . S
C3199 H3194 0.950 . S
C3199 C3201 1.327 . S
C3199 C3205 1.429 . S
C3200 C3192 1.574 . S
C3200 H3195 0.949 . S
C3200 C3206 1.368 . S
C3201 C3185 1.349 . S
C3201 H3193 0.950 . S
C3201 C3199 1.327 . S
C3202 C3190 1.349 . S
C3202 H3196 0.950 . S
C3202 C3203 1.327 . S
C3203 H3197 0.950 . S
C3203 C3202 1.327 . S
C3203 C3207 1.429 . S
C3204 C3187 1.574 . S
C3204 H3198 0.949 . S
C3204 C3208 1.368 . S
C3205 C3186 1.429 . S
C3205 C3199 1.429 . S
C3205 C3206 1.523 . S
C3206 C3187 1.368 . S
C3206 C3200 1.368 . S
C3206 C3205 1.523 . S
C3207 C3191 1.429 . S
C3207 C3203 1.429 . S
C3207 C3208 1.523 . S
C3208 C3192 1.368 . S
C3208 C3204 1.368 . S
C3208 C3207 1.523 . S
H3209 C3184 0.950 . S
H3210 C3186 0.950 . S
H3211 C3187 0.949 . S
H3212 C3189 0.950 . S
H3213 C3191 0.950 . S
C3214 C3215 1.330 1_455 S
C3214 C3216 1.327 . S
C3214 H3239 0.950 . S
C3215 C3214 1.330 1_655 S
C3215 C3231 1.339 1_655 S
C3216 C3214 1.327 . S
C3216 C3235 1.429 . S
C3216 H3240 0.950 . S
C3217 C3234 1.574 . S
C3217 C3236 1.368 . S
C3217 H3241 0.949 . S
H3218 C3222 0.949 . S
C3219 C3220 1.349 . S
C3219 C3221 1.327 . S
C3219 H3242 0.950 . S
C3220 C3219 1.349 . S
C3220 C3232 1.349 . S
C3221 C3219 1.327 . S
C3221 C3237 1.429 . S
C3221 H3243 0.950 . S
C3222 H3218 0.949 . S
C3222 C3230 1.574 . S
C3222 C3238 1.368 . S
H3223 C3231 0.950 1_655 S
H3224 C3229 0.950 . S
H3225 C3230 0.949 . S
H3226 C3232 0.950 . S
H3227 C3233 0.950 . S
H3228 C3234 0.949 . S
C3229 H3224 0.950 . S
C3229 C3231 1.327 . S
C3229 C3235 1.429 . S
C3230 C3222 1.574 . S
C3230 H3225 0.949 . S
C3230 C3236 1.368 . S
C3231 C3215 1.339 1_455 S
C3231 H3223 0.950 1_455 S
C3231 C3229 1.327 . S
C3232 C3220 1.349 . S
C3232 H3226 0.950 . S
C3232 C3233 1.327 . S
C3233 H3227 0.950 . S
C3233 C3232 1.327 . S
C3233 C3237 1.429 . S
C3234 C3217 1.574 . S
C3234 H3228 0.949 . S
C3234 C3238 1.368 . S
C3235 C3216 1.429 . S
C3235 C3229 1.429 . S
C3235 C3236 1.523 . S
C3236 C3217 1.368 . S
C3236 C3230 1.368 . S
C3236 C3235 1.523 . S
C3237 C3221 1.429 . S
C3237 C3233 1.429 . S
C3237 C3238 1.523 . S
C3238 C3222 1.368 . S
C3238 C3234 1.368 . S
C3238 C3237 1.523 . S
H3239 C3214 0.950 . S
H3240 C3216 0.950 . S
H3241 C3217 0.949 . S
H3242 C3219 0.950 . S
H3243 C3221 0.950 . S
C3244 C3245 1.349 . S
C3244 C3246 1.327 . S
C3244 H3269 0.950 . S
C3245 C3244 1.349 . S
C3245 C3261 1.349 . S
C3246 C3244 1.327 . S
C3246 C3265 1.429 . S
C3246 H3270 0.950 . S
C3247 C3264 1.574 . S
C3247 C3266 1.368 . S
C3247 H3271 0.949 . S
H3248 C3252 0.949 . S
C3249 C3250 1.349 . S
C3249 C3251 1.327 . S
C3249 H3272 0.950 . S
C3250 C3249 1.349 . S
C3250 C3262 1.349 . S
C3251 C3249 1.327 . S
C3251 C3267 1.429 . S
C3251 H3273 0.950 . S
C3252 H3248 0.949 . S
C3252 C3260 1.574 . S
C3252 C3268 1.368 . S
H3253 C3261 0.950 . S
H3254 C3259 0.950 . S
H3255 C3260 0.949 . S
H3256 C3262 0.950 . S
H3257 C3263 0.950 . S
H3258 C3264 0.949 . S
C3259 H3254 0.950 . S
C3259 C3261 1.327 . S
C3259 C3265 1.429 . S
C3260 C3252 1.574 . S
C3260 H3255 0.949 . S
C3260 C3266 1.368 . S
C3261 C3245 1.349 . S
C3261 H3253 0.950 . S
C3261 C3259 1.327 . S
C3262 C3250 1.349 . S
C3262 H3256 0.950 . S
C3262 C3263 1.327 . S
C3263 H3257 0.950 . S
C3263 C3262 1.327 . S
C3263 C3267 1.429 . S
C3264 C3247 1.574 . S
C3264 H3258 0.949 . S
C3264 C3268 1.368 . S
C3265 C3246 1.429 . S
C3265 C3259 1.429 . S
C3265 C3266 1.523 . S
C3266 C3247 1.368 . S
C3266 C3260 1.368 . S
C3266 C3265 1.523 . S
C3267 C3251 1.429 . S
C3267 C3263 1.429 . S
C3267 C3268 1.523 . S
C3268 C3252 1.368 . S
C3268 C3264 1.368 . S
C3268 C3267 1.523 . S
H3269 C3244 0.950 . S
H3270 C3246 0.950 . S
H3271 C3247 0.949 . S
H3272 C3249 0.950 . S
H3273 C3251 0.950 . S
C3274 C3275 1.349 . S
C3274 C3276 1.327 . S
C3274 H3299 0.950 . S
C3275 C3274 1.349 . S
C3275 C3291 1.349 . S
C3276 C3274 1.327 . S
C3276 C3295 1.429 . S
C3276 H3300 0.950 . S
C3277 C3294 1.574 . S
C3277 C3296 1.368 . S
C3277 H3301 0.949 . S
H3278 C3282 0.949 . S
C3279 C3280 1.349 . S
C3279 C3281 1.327 . S
C3279 H3302 0.950 . S
C3280 C3279 1.349 . S
C3280 C3292 1.349 . S
C3281 C3279 1.327 . S
C3281 C3297 1.429 . S
C3281 H3303 0.950 . S
C3282 H3278 0.949 . S
C3282 C3290 1.574 . S
C3282 C3298 1.368 . S
H3283 C3291 0.950 . S
H3284 C3289 0.950 . S
H3285 C3290 0.949 . S
H3286 C3292 0.950 . S
H3287 C3293 0.950 . S
H3288 C3294 0.949 . S
C3289 H3284 0.950 . S
C3289 C3291 1.327 . S
C3289 C3295 1.429 . S
C3290 C3282 1.574 . S
C3290 H3285 0.949 . S
C3290 C3296 1.368 . S
C3291 C3275 1.349 . S
C3291 H3283 0.950 . S
C3291 C3289 1.327 . S
C3292 C3280 1.349 . S
C3292 H3286 0.950 . S
C3292 C3293 1.327 . S
C3293 H3287 0.950 . S
C3293 C3292 1.327 . S
C3293 C3297 1.429 . S
C3294 C3277 1.574 . S
C3294 H3288 0.949 . S
C3294 C3298 1.368 . S
C3295 C3276 1.429 . S
C3295 C3289 1.429 . S
C3295 C3296 1.523 . S
C3296 C3277 1.368 . S
C3296 C3290 1.368 . S
C3296 C3295 1.523 . S
C3297 C3281 1.429 . S
C3297 C3293 1.429 . S
C3297 C3298 1.523 . S
C3298 C3282 1.368 . S
C3298 C3294 1.368 . S
C3298 C3297 1.523 . S
H3299 C3274 0.950 . S
H3300 C3276 0.950 . S
H3301 C3277 0.949 . S
H3302 C3279 0.950 . S
H3303 C3281 0.950 . S
C3304 C3305 1.349 . S
C3304 C3306 1.327 . S
C3304 H3329 0.950 . S
C3305 C3304 1.349 . S
C3305 C3321 1.349 . S
C3306 C3304 1.327 . S
C3306 C3325 1.429 . S
C3306 H3330 0.950 . S
C3307 C3324 1.574 . S
C3307 C3326 1.368 . S
C3307 H3331 0.949 . S
H3308 C3312 0.949 . S
C3309 C3310 1.349 . S
C3309 C3311 1.327 . S
C3309 H3332 0.950 . S
C3310 C3309 1.349 . S
C3310 C3322 1.349 . S
C3311 C3309 1.327 . S
C3311 C3327 1.429 . S
C3311 H3333 0.950 . S
C3312 H3308 0.949 . S
C3312 C3320 1.574 . S
C3312 C3328 1.368 . S
H3313 C3321 0.950 . S
H3314 C3319 0.950 . S
H3315 C3320 0.949 . S
H3316 C3322 0.950 . S
H3317 C3323 0.950 . S
H3318 C3324 0.949 . S
C3319 H3314 0.950 . S
C3319 C3321 1.327 . S
C3319 C3325 1.429 . S
C3320 C3312 1.574 . S
C3320 H3315 0.949 . S
C3320 C3326 1.368 . S
C3321 C3305 1.349 . S
C3321 H3313 0.950 . S
C3321 C3319 1.327 . S
C3322 C3310 1.349 . S
C3322 H3316 0.950 . S
C3322 C3323 1.327 . S
C3323 H3317 0.950 . S
C3323 C3322 1.327 . S
C3323 C3327 1.429 . S
C3324 C3307 1.574 . S
C3324 H3318 0.949 . S
C3324 C3328 1.368 . S
C3325 C3306 1.429 . S
C3325 C3319 1.429 . S
C3325 C3326 1.523 . S
C3326 C3307 1.368 . S
C3326 C3320 1.368 . S
C3326 C3325 1.523 . S
C3327 C3311 1.429 . S
C3327 C3323 1.429 . S
C3327 C3328 1.523 . S
C3328 C3312 1.368 . S
C3328 C3324 1.368 . S
C3328 C3327 1.523 . S
H3329 C3304 0.950 . S
H3330 C3306 0.950 . S
H3331 C3307 0.949 . S
H3332 C3309 0.950 . S
H3333 C3311 0.950 . S
C3334 C3335 1.349 . S
C3334 C3336 1.327 . S
C3334 H3359 0.950 . S
C3335 C3334 1.349 . S
C3335 C3351 1.349 . S
C3336 C3334 1.327 . S
C3336 C3355 1.429 . S
C3336 H3360 0.950 . S
C3337 C3354 1.574 . S
C3337 C3356 1.368 . S
C3337 H3361 0.949 . S
H3338 C3342 0.949 . S
C3339 C3340 1.349 . S
C3339 C3341 1.327 . S
C3339 H3362 0.950 . S
C3340 C3339 1.349 . S
C3340 C3352 1.349 . S
C3341 C3339 1.327 . S
C3341 C3357 1.429 . S
C3341 H3363 0.950 . S
C3342 H3338 0.949 . S
C3342 C3350 1.574 . S
C3342 C3358 1.368 . S
H3343 C3351 0.950 . S
H3344 C3349 0.950 . S
H3345 C3350 0.949 . S
H3346 C3352 0.950 . S
H3347 C3353 0.950 . S
H3348 C3354 0.949 . S
C3349 H3344 0.950 . S
C3349 C3351 1.327 . S
C3349 C3355 1.429 . S
C3350 C3342 1.574 . S
C3350 H3345 0.949 . S
C3350 C3356 1.368 . S
C3351 C3335 1.349 . S
C3351 H3343 0.950 . S
C3351 C3349 1.327 . S
C3352 C3340 1.349 . S
C3352 H3346 0.950 . S
C3352 C3353 1.327 . S
C3353 H3347 0.950 . S
C3353 C3352 1.327 . S
C3353 C3357 1.429 . S
C3354 C3337 1.574 . S
C3354 H3348 0.949 . S
C3354 C3358 1.368 . S
C3355 C3336 1.429 . S
C3355 C3349 1.429 . S
C3355 C3356 1.523 . S
C3356 C3337 1.368 . S
C3356 C3350 1.368 . S
C3356 C3355 1.523 . S
C3357 C3341 1.429 . S
C3357 C3353 1.429 . S
C3357 C3358 1.523 . S
C3358 C3342 1.368 . S
C3358 C3354 1.368 . S
C3358 C3357 1.523 . S
H3359 C3334 0.950 . S
H3360 C3336 0.950 . S
H3361 C3337 0.949 . S
H3362 C3339 0.950 . S
H3363 C3341 0.950 . S
C3364 C3365 1.349 . S
C3364 C3366 1.327 . S
C3364 H3389 0.950 . S
C3365 C3364 1.349 . S
C3365 C3381 1.349 . S
C3366 C3364 1.327 . S
C3366 C3385 1.429 . S
C3366 H3390 0.950 . S
C3367 C3384 1.574 . S
C3367 C3386 1.368 . S
C3367 H3391 0.949 . S
H3368 C3372 0.949 . S
C3369 C3370 1.349 . S
C3369 C3371 1.327 . S
C3369 H3392 0.950 . S
C3370 C3369 1.349 . S
C3370 C3382 1.349 . S
C3371 C3369 1.327 . S
C3371 C3387 1.429 . S
C3371 H3393 0.950 . S
C3372 H3368 0.949 . S
C3372 C3380 1.574 . S
C3372 C3388 1.368 . S
H3373 C3381 0.950 . S
H3374 C3379 0.950 . S
H3375 C3380 0.949 . S
H3376 C3382 0.950 . S
H3377 C3383 0.950 . S
H3378 C3384 0.949 . S
C3379 H3374 0.950 . S
C3379 C3381 1.327 . S
C3379 C3385 1.429 . S
C3380 C3372 1.574 . S
C3380 H3375 0.949 . S
C3380 C3386 1.368 . S
C3381 C3365 1.349 . S
C3381 H3373 0.950 . S
C3381 C3379 1.327 . S
C3382 C3370 1.349 . S
C3382 H3376 0.950 . S
C3382 C3383 1.327 . S
C3383 H3377 0.950 . S
C3383 C3382 1.327 . S
C3383 C3387 1.429 . S
C3384 C3367 1.574 . S
C3384 H3378 0.949 . S
C3384 C3388 1.368 . S
C3385 C3366 1.429 . S
C3385 C3379 1.429 . S
C3385 C3386 1.523 . S
C3386 C3367 1.368 . S
C3386 C3380 1.368 . S
C3386 C3385 1.523 . S
C3387 C3371 1.429 . S
C3387 C3383 1.429 . S
C3387 C3388 1.523 . S
C3388 C3372 1.368 . S
C3388 C3384 1.368 . S
C3388 C3387 1.523 . S
H3389 C3364 0.950 . S
H3390 C3366 0.950 . S
H3391 C3367 0.949 . S
H3392 C3369 0.950 . S
H3393 C3371 0.950 . S
C3394 C3395 1.349 . S
C3394 C3396 1.327 . S
C3394 H3419 0.950 . S
C3395 C3394 1.349 . S
C3395 C3411 1.349 . S
C3396 C3394 1.327 . S
C3396 C3415 1.429 . S
C3396 H3420 0.950 . S
C3397 C3414 1.574 . S
C3397 C3416 1.368 . S
C3397 H3421 0.949 . S
H3398 C3402 0.949 . S
C3399 C3400 1.349 . S
C3399 C3401 1.327 . S
C3399 H3422 0.950 . S
C3400 C3399 1.349 . S
C3400 C3412 1.349 . S
C3401 C3399 1.327 . S
C3401 C3417 1.429 . S
C3401 H3423 0.950 . S
C3402 H3398 0.949 . S
C3402 C3410 1.574 . S
C3402 C3418 1.368 . S
H3403 C3411 0.950 . S
H3404 C3409 0.950 . S
H3405 C3410 0.949 . S
H3406 C3412 0.950 . S
H3407 C3413 0.950 . S
H3408 C3414 0.949 . S
C3409 H3404 0.950 . S
C3409 C3411 1.327 . S
C3409 C3415 1.429 . S
C3410 C3402 1.574 . S
C3410 H3405 0.949 . S
C3410 C3416 1.368 . S
C3411 C3395 1.349 . S
C3411 H3403 0.950 . S
C3411 C3409 1.327 . S
C3412 C3400 1.349 . S
C3412 H3406 0.950 . S
C3412 C3413 1.327 . S
C3413 H3407 0.950 . S
C3413 C3412 1.327 . S
C3413 C3417 1.429 . S
C3414 C3397 1.574 . S
C3414 H3408 0.949 . S
C3414 C3418 1.368 . S
C3415 C3396 1.429 . S
C3415 C3409 1.429 . S
C3415 C3416 1.523 . S
C3416 C3397 1.368 . S
C3416 C3410 1.368 . S
C3416 C3415 1.523 . S
C3417 C3401 1.429 . S
C3417 C3413 1.429 . S
C3417 C3418 1.523 . S
C3418 C3402 1.368 . S
C3418 C3414 1.368 . S
C3418 C3417 1.523 . S
H3419 C3394 0.950 . S
H3420 C3396 0.950 . S
H3421 C3397 0.949 . S
H3422 C3399 0.950 . S
H3423 C3401 0.950 . S
C3424 C3425 1.349 . S
C3424 C3426 1.327 . S
C3424 H3449 0.950 . S
C3425 C3424 1.349 . S
C3425 C3441 1.349 . S
C3426 C3424 1.327 . S
C3426 C3445 1.429 . S
C3426 H3450 0.950 . S
C3427 C3444 1.574 . S
C3427 C3446 1.368 . S
C3427 H3451 0.949 . S
H3428 C3432 0.949 . S
C3429 C3430 1.349 . S
C3429 C3431 1.327 . S
C3429 H3452 0.950 1_545 S
C3430 C3429 1.349 . S
C3430 C3442 1.349 . S
C3431 C3429 1.327 . S
C3431 C3447 1.429 . S
C3431 H3453 0.950 . S
C3432 H3428 0.949 . S
C3432 C3440 1.574 . S
C3432 C3448 1.368 . S
H3433 C3441 0.950 . S
H3434 C3439 0.950 . S
H3435 C3440 0.949 . S
H3436 C3442 0.950 . S
H3437 C3443 0.950 . S
H3438 C3444 0.949 . S
C3439 H3434 0.950 . S
C3439 C3441 1.327 . S
C3439 C3445 1.429 . S
C3440 C3432 1.574 . S
C3440 H3435 0.949 . S
C3440 C3446 1.368 . S
C3441 C3425 1.349 . S
C3441 H3433 0.950 . S
C3441 C3439 1.327 . S
C3442 C3430 1.349 . S
C3442 H3436 0.950 . S
C3442 C3443 1.327 . S
C3443 H3437 0.950 . S
C3443 C3442 1.327 . S
C3443 C3447 1.429 . S
C3444 C3427 1.574 . S
C3444 H3438 0.949 . S
C3444 C3448 1.368 . S
C3445 C3426 1.429 . S
C3445 C3439 1.429 . S
C3445 C3446 1.523 . S
C3446 C3427 1.368 . S
C3446 C3440 1.368 . S
C3446 C3445 1.523 . S
C3447 C3431 1.429 . S
C3447 C3443 1.429 . S
C3447 C3448 1.523 . S
C3448 C3432 1.368 . S
C3448 C3444 1.368 . S
C3448 C3447 1.523 . S
H3449 C3424 0.950 . S
H3450 C3426 0.950 . S
H3451 C3427 0.949 . S
H3452 C3429 0.950 1_565 S
H3453 C3431 0.950 . S
C3454 C3455 1.349 . S
C3454 C3456 1.327 . S
C3454 H3479 0.950 . S
C3455 C3454 1.349 . S
C3455 C3471 1.349 . S
C3456 C3454 1.327 . S
C3456 C3475 1.429 . S
C3456 H3480 0.950 . S
C3457 C3474 1.574 . S
C3457 C3476 1.368 . S
C3457 H3481 0.949 . S
H3458 C3462 0.949 . S
C3459 C3460 1.349 . S
C3459 C3461 1.327 . S
C3459 H3482 0.950 . S
C3460 C3459 1.349 . S
C3460 C3472 1.349 . S
C3461 C3459 1.327 . S
C3461 C3477 1.429 . S
C3461 H3483 0.950 . S
C3462 H3458 0.949 . S
C3462 C3470 1.574 . S
C3462 C3478 1.368 . S
H3463 C3471 0.950 . S
H3464 C3469 0.950 . S
H3465 C3470 0.949 . S
H3466 C3472 0.950 . S
H3467 C3473 0.950 . S
H3468 C3474 0.949 . S
C3469 H3464 0.950 . S
C3469 C3471 1.327 . S
C3469 C3475 1.429 . S
C3470 C3462 1.574 . S
C3470 H3465 0.949 . S
C3470 C3476 1.368 . S
C3471 C3455 1.349 . S
C3471 H3463 0.950 . S
C3471 C3469 1.327 . S
C3472 C3460 1.349 . S
C3472 H3466 0.950 . S
C3472 C3473 1.327 . S
C3473 H3467 0.950 . S
C3473 C3472 1.327 . S
C3473 C3477 1.429 . S
C3474 C3457 1.574 . S
C3474 H3468 0.949 . S
C3474 C3478 1.368 . S
C3475 C3456 1.429 . S
C3475 C3469 1.429 . S
C3475 C3476 1.523 . S
C3476 C3457 1.368 . S
C3476 C3470 1.368 . S
C3476 C3475 1.523 . S
C3477 C3461 1.429 . S
C3477 C3473 1.429 . S
C3477 C3478 1.523 . S
C3478 C3462 1.368 . S
C3478 C3474 1.368 . S
C3478 C3477 1.523 . S
H3479 C3454 0.950 . S
H3480 C3456 0.950 . S
H3481 C3457 0.949 . S
H3482 C3459 0.950 . S
H3483 C3461 0.950 . S
C3484 C3485 1.349 1_556 S
C3484 C3486 1.327 . S
C3484 H3509 0.950 . S
C3485 C3484 1.349 1_554 S
C3485 C3501 1.357 . S
C3486 C3484 1.327 . S
C3486 C3505 1.429 . S
C3486 H3510 0.950 . S
C3487 C3504 1.574 . S
C3487 C3506 1.368 . S
C3487 H3511 0.949 . S
H3488 C3492 0.949 . S
C3489 C3490 1.349 . S
C3489 C3491 1.327 . S
C3489 H3512 0.950 1_565 S
C3490 C3489 1.349 . S
C3490 C3502 1.349 . S
C3491 C3489 1.327 . S
C3491 C3507 1.429 . S
C3491 H3513 0.950 . S
C3492 H3488 0.949 . S
C3492 C3500 1.574 . S
C3492 C3508 1.368 . S
H3493 C3501 0.987 . S
H3494 C3499 0.950 . S
H3495 C3500 0.949 . S
H3496 C3502 0.950 . S
H3497 C3503 0.950 . S
H3498 C3504 0.949 . S
C3499 H3494 0.950 . S
C3499 C3501 1.283 1_556 S
C3499 C3505 1.429 . S
C3500 C3492 1.574 . S
C3500 H3495 0.949 . S
C3500 C3506 1.368 . S
C3501 C3485 1.357 . S
C3501 H3493 0.987 . S
C3501 C3499 1.283 1_554 S
C3502 C3490 1.349 . S
C3502 H3496 0.950 . S
C3502 C3503 1.327 . S
C3503 H3497 0.950 . S
C3503 C3502 1.327 . S
C3503 C3507 1.429 . S
C3504 C3487 1.574 . S
C3504 H3498 0.949 . S
C3504 C3508 1.368 . S
C3505 C3486 1.429 . S
C3505 C3499 1.429 . S
C3505 C3506 1.523 . S
C3506 C3487 1.368 . S
C3506 C3500 1.368 . S
C3506 C3505 1.523 . S
C3507 C3491 1.429 . S
C3507 C3503 1.429 . S
C3507 C3508 1.523 . S
C3508 C3492 1.368 . S
C3508 C3504 1.368 . S
C3508 C3507 1.523 . S
H3509 C3484 0.950 . S
H3510 C3486 0.950 . S
H3511 C3487 0.949 . S
H3512 C3489 0.950 1_545 S
H3513 C3491 0.950 . S
C3514 C3515 1.349 . S
C3514 C3516 1.327 . S
C3514 H3539 0.950 . S
C3515 C3514 1.349 . S
C3515 C3531 1.349 . S
C3516 C3514 1.327 . S
C3516 C3535 1.429 . S
C3516 H3540 0.950 . S
C3517 C3534 1.574 . S
C3517 C3536 1.368 . S
C3517 H3541 0.949 . S
H3518 C3522 0.949 . S
C3519 C3520 1.349 . S
C3519 C3521 1.327 . S
C3519 H3542 0.950 . S
C3520 C3519 1.349 . S
C3520 C3532 1.349 . S
C3521 C3519 1.327 . S
C3521 C3537 1.429 . S
C3521 H3543 0.950 . S
C3522 H3518 0.949 . S
C3522 C3530 1.574 . S
C3522 C3538 1.368 . S
H3523 C3531 0.950 . S
H3524 C3529 0.950 . S
H3525 C3530 0.949 . S
H3526 C3532 0.950 . S
H3527 C3533 0.950 . S
H3528 C3534 0.949 . S
C3529 H3524 0.950 . S
C3529 C3531 1.327 . S
C3529 C3535 1.429 . S
C3530 C3522 1.574 . S
C3530 H3525 0.949 . S
C3530 C3536 1.368 . S
C3531 C3515 1.349 . S
C3531 H3523 0.950 . S
C3531 C3529 1.327 . S
C3532 C3520 1.349 . S
C3532 H3526 0.950 . S
C3532 C3533 1.327 . S
C3533 H3527 0.950 . S
C3533 C3532 1.327 . S
C3533 C3537 1.429 . S
C3534 C3517 1.574 . S
C3534 H3528 0.949 . S
C3534 C3538 1.368 . S
C3535 C3516 1.429 . S
C3535 C3529 1.429 . S
C3535 C3536 1.523 . S
C3536 C3517 1.368 . S
C3536 C3530 1.368 . S
C3536 C3535 1.523 . S
C3537 C3521 1.429 . S
C3537 C3533 1.429 . S
C3537 C3538 1.523 . S
C3538 C3522 1.368 . S
C3538 C3534 1.368 . S
C3538 C3537 1.523 . S
H3539 C3514 0.950 . S
H3540 C3516 0.950 . S
H3541 C3517 0.949 . S
H3542 C3519 0.950 . S
H3543 C3521 0.950 . S
C3544 C3545 1.358 . S
C3544 C3546 1.327 . S
C3544 H3569 0.950 1_554 S
C3545 C3544 1.358 . S
C3545 C3561 1.373 . S
C3546 C3544 1.327 . S
C3546 C3565 1.429 . S
C3546 H3570 0.950 . S
C3547 C3564 1.574 . S
C3547 C3566 1.368 . S
C3547 H3571 0.949 . S
H3548 C3552 0.949 . S
C3549 C3550 1.349 . S
C3549 C3551 1.327 . S
C3549 H3572 0.950 . S
C3550 C3549 1.349 . S
C3550 C3562 1.349 . S
C3551 C3549 1.327 . S
C3551 C3567 1.429 . S
C3551 H3573 0.950 . S
C3552 H3548 0.949 . S
C3552 C3560 1.574 . S
C3552 C3568 1.368 . S
H3553 C3561 0.950 . S
H3554 C3559 0.950 . S
H3555 C3560 0.949 . S
H3556 C3562 0.950 . S
H3557 C3563 0.950 . S
H3558 C3564 0.949 . S
C3559 H3554 0.950 . S
C3559 C3561 1.327 . S
C3559 C3565 1.429 . S
C3560 C3552 1.574 . S
C3560 H3555 0.949 . S
C3560 C3566 1.368 . S
C3561 C3545 1.373 . S
C3561 H3553 0.950 . S
C3561 C3559 1.327 . S
C3562 C3550 1.349 . S
C3562 H3556 0.950 . S
C3562 C3563 1.327 . S
C3563 H3557 0.950 . S
C3563 C3562 1.327 . S
C3563 C3567 1.429 . S
C3564 C3547 1.574 . S
C3564 H3558 0.949 . S
C3564 C3568 1.368 . S
C3565 C3546 1.429 . S
C3565 C3559 1.429 . S
C3565 C3566 1.523 . S
C3566 C3547 1.368 . S
C3566 C3560 1.368 . S
C3566 C3565 1.523 . S
C3567 C3551 1.429 . S
C3567 C3563 1.429 . S
C3567 C3568 1.523 . S
C3568 C3552 1.368 . S
C3568 C3564 1.368 . S
C3568 C3567 1.523 . S
H3569 C3544 0.950 1_556 S
H3570 C3546 0.950 . S
H3571 C3547 0.949 . S
H3572 C3549 0.950 . S
H3573 C3551 0.950 . S
C3574 C3575 1.349 1_554 S
C3574 C3576 1.327 . S
C3574 H3599 0.950 1_554 S
C3575 C3574 1.349 1_556 S
C3575 C3591 1.349 1_556 S
C3576 C3574 1.327 . S
C3576 C3595 1.429 . S
C3576 H3600 0.950 . S
C3577 C3594 1.574 . S
C3577 C3596 1.368 . S
C3577 H3601 0.949 . S
H3578 C3582 0.949 . S
C3579 C3580 1.349 . S
C3579 C3581 1.327 . S
C3579 H3602 0.950 . S
C3580 C3579 1.349 . S
C3580 C3592 1.349 . S
C3581 C3579 1.327 . S
C3581 C3597 1.429 . S
C3581 H3603 0.950 . S
C3582 H3578 0.949 . S
C3582 C3590 1.574 . S
C3582 C3598 1.368 . S
H3583 C3591 0.950 . S
H3584 C3589 0.950 . S
H3585 C3590 0.949 . S
H3586 C3592 0.950 . S
H3587 C3593 0.950 . S
H3588 C3594 0.949 . S
C3589 H3584 0.950 . S
C3589 C3591 1.327 . S
C3589 C3595 1.429 . S
C3590 C3582 1.574 . S
C3590 H3585 0.949 . S
C3590 C3596 1.368 . S
C3591 C3575 1.349 1_554 S
C3591 H3583 0.950 . S
C3591 C3589 1.327 . S
C3592 C3580 1.349 . S
C3592 H3586 0.950 . S
C3592 C3593 1.327 . S
C3593 H3587 0.950 . S
C3593 C3592 1.327 . S
C3593 C3597 1.429 . S
C3594 C3577 1.574 . S
C3594 H3588 0.949 . S
C3594 C3598 1.368 . S
C3595 C3576 1.429 . S
C3595 C3589 1.429 . S
C3595 C3596 1.523 . S
C3596 C3577 1.368 . S
C3596 C3590 1.368 . S
C3596 C3595 1.523 . S
C3597 C3581 1.429 . S
C3597 C3593 1.429 . S
C3597 C3598 1.523 . S
C3598 C3582 1.368 . S
C3598 C3594 1.368 . S
C3598 C3597 1.523 . S
H3599 C3574 0.950 1_556 S
H3600 C3576 0.950 . S
H3601 C3577 0.949 . S
H3602 C3579 0.950 . S
H3603 C3581 0.950 . S
C730 C381 1.053 . S
C725 C241 1.093 . S
C760 C384 1.497 . S
C755 C272 1.591 . S
C790 C372 0.947 . S
C785 C249 0.971 . S
C815 C206 1.753 . S
C820 C385 1.634 . S
C850 C416 1.061 . S
C845 C125 1.099 . S
C875 C142 1.766 . S
C880 C443 1.645 . S
C910 C415 0.941 . S
C905 C169 0.963 . S
C935 C103 1.654 . S
C940 C434 1.559 . S
C965 C315 1.120 . S
C970 C447 1.077 . S
C995 C338 1.702 . S
C1000 C478 1.585 . S
C1030 C536 1.074 . S
C1025 C183 1.115 . S
C1060 C558 1.587 . S
C1055 C293 1.679 . S
C1090 C446 0.942 . S
C1085 C87 0.965 . S
C1120 C477 1.597 . S
C1115 C21 1.683 . S
C1145 C43 0.953 . S
C1150 C527 0.931 . S
C1175 C65 1.762 . S
C1180 C567 1.652 . S
C1205 C37 1.118 . S
C1210 C505 1.074 . S
C1240 C571 1.102 . S
C1235 C197 1.144 . S
C1265 C307 1.782 . S
C1270 C602 1.672 . S
C1300 C651 0.929 . S
C1295 C329 0.950 . S
C1325 C150 1.734 . S
C1330 C509 1.610 . S
C1360 C570 0.907 . S
C1355 C227 0.927 . S
C1390 C601 1.513 . S
C1385 C274 1.608 . S
C1420 C682 1.520 . S
C1415 C208 1.622 . S
C1445 C73 1.085 . S
C1450 C412 1.046 . S
C1475 C7 1.625 . S
C1480 C353 1.538 . S
C1510 C403 0.940 . S
C1505 C29 0.963 . S
C1535 C51 1.786 . S
C1540 C354 1.674 . S
C1565 C323 1.112 . S
C1570 C695 1.073 . S
C1595 C340 1.753 . S
C1600 C722 1.629 . S
C1630 C694 0.952 . S
C1625 C191 0.976 . S
C1655 C301 1.641 . S
C1660 C713 1.551 . S
C1685 C117 1.107 . S
C1690 C629 1.068 . S
C1720 C633 1.587 . S
C1715 C140 1.709 . S
C1750 C664 1.061 . S
C1745 C161 1.102 . S
C1780 C589 1.593 . S
C1775 C95 1.686 . S
C1810 C620 0.935 . S
C1805 C235 0.958 . S
C1835 C282 1.634 . S
C1840 C632 1.538 . S
C1865 C263 0.945 . S
C1870 C663 0.924 . S
C1900 C598 1.593 . S
C1895 C216 1.709 . S
C1925 C257 1.117 . S
C1930 C660 1.076 . S
C1960 C540 1.096 . S
C1955 C175 1.138 . S
C1985 C109 1.763 . S
C1990 C474 1.657 . S
C2015 C131 0.945 . S
C2020 C496 0.927 . S
C2045 C348 1.753 . S
C2050 C691 1.629 . S
C2075 C81 0.928 . S
C2080 C539 0.908 . S
C2105 C15 1.648 . S
C2110 C465 1.557 . S
C2140 C508 1.568 . S
C2135 C59 1.661 . S
C2170 C352 1.355 . S
C2165 C351 1.327 . S
C2200 C402 1.900 . S
C2195 C194 1.897 . S
C2230 C362 1.166 . S
C2225 C304 1.202 . S
C2260 C413 1.768 . S
C2255 C326 1.794 . S
C2290 C433 1.324 . S
C2285 C205 1.291 . S
C2315 C230 1.778 . S
C2320 C424 1.747 . S
C2345 C271 1.215 . S
C2350 C444 1.197 . S
C2375 C250 1.855 . S
C2380 C414 1.856 . S
C2410 C464 1.267 . S
C2405 C62 1.248 . S
C2440 C506 1.753 . S
C2435 C84 1.777 . S
C2465 C18 1.230 . S
C2470 C507 1.244 . S
C2500 C538 1.862 . S
C2495 C40 1.863 . S
C2525 C147 1.257 . S
C2530 C475 1.237 . S
C2560 C495 1.878 . S
C2555 C164 1.882 . S
C2590 C517 1.170 . S
C2585 C98 1.207 . S
C2615 C120 1.798 . S
C2620 C548 1.772 . S
C2650 C476 1.218 . S
C2645 C96 1.199 . S
C2675 C10 1.208 . S
C2680 C588 1.221 . S
C2705 C32 1.767 . S
C2710 C630 1.742 . S
C2735 C54 1.249 . S
C2740 C641 1.210 . S
C2770 C537 1.793 . S
C2765 C238 1.822 . S
C2800 C599 1.262 . S
C2795 C337 1.289 . S
C2825 C184 1.865 . S
C2830 C619 1.866 . S
C2860 C662 1.889 . S
C2855 C316 1.891 . S
C2890 C383 1.355 . S
C2885 C153 1.327 . S
C2915 C172 1.895 1_545 S
C2920 C371 1.898 . S
C2945 C106 1.202 . S
C2950 C393 1.166 . S
C2975 C128 1.792 . S
C2980 C382 1.767 . S
C3010 C712 1.264 . S
C3005 C52 1.252 . S
C3040 C703 1.754 . S
C3035 C74 1.783 . S
C3065 C8 1.169 . S
C3070 C723 1.135 . S
C3095 C30 1.859 . S
C3100 C693 1.859 . S
C3125 C219 1.295 . S
C3130 C600 1.323 . S
C3160 C661 1.737 . S
C3155 C228 1.762 . S
C3190 C681 1.300 . S
C3185 C285 1.271 . S
C3215 C260 1.877 . S
C3220 C569 1.846 . S
C3250 C610 1.236 . S
C3245 C345 1.262 . S
C3275 C186 1.904 . S
C3280 C650 1.901 . S
C3310 C692 1.175 . S
C3305 C296 1.212 . S
C3335 C318 1.820 . S
C3340 C579 1.794 . S
C3365 C294 1.201 . S
C3370 C631 1.213 . S
C3395 C279 1.249 . S
C3400 C557 1.277 . S
C3430 C455 1.764 . S
C3425 C252 1.787 . S
C3455 C213 1.290 . S
C3460 C486 1.269 . S
C3485 C76 1.801 . S
C3490 C672 1.773 . S
C3515 C139 1.294 . S
C3520 C568 1.266 . S
C3550 C445 1.847 . S
C3545 C162 1.814 1_554 S
C3575 C118 1.873 . S
C3580 C526 1.871 . S
