# Generated by pormake.
# Topology ocu, (6,8)-cn, num edge types: 1
# Building blocks:
#     Node 0, Type 0, BuildingBlock: NUHQIS_clean_sbu_0, # of connection points: 6
#     Node 1, Type 0, BuildingBlock: NUHQIS_clean_sbu_0, # of connection points: 6
#     Node 2, Type 0, BuildingBlock: NUHQIS_clean_sbu_0, # of connection points: 6
#     Node 3, Type 0, BuildingBlock: NUHQIS_clean_sbu_0, # of connection points: 6
#     Node 4, Type 0, BuildingBlock: NUHQIS_clean_sbu_0, # of connection points: 6
#     Node 5, Type 0, BuildingBlock: NUHQIS_clean_sbu_0, # of connection points: 6
#     Node 6, Type 0, BuildingBlock: NUHQIS_clean_sbu_0, # of connection points: 6
#     Node 7, Type 0, BuildingBlock: NUHQIS_clean_sbu_0, # of connection points: 6
#     Node 8, Type 1, BuildingBlock: GIZVER_clean_sbu_0, # of connection points: 8
#     Node 9, Type 1, BuildingBlock: GIZVER_clean_sbu_0, # of connection points: 8
#     Node 10, Type 1, BuildingBlock: GIZVER_clean_sbu_0, # of connection points: 8
#     Node 11, Type 1, BuildingBlock: GIZVER_clean_sbu_0, # of connection points: 8
#     Node 12, Type 1, BuildingBlock: GIZVER_clean_sbu_0, # of connection points: 8
#     Node 13, Type 1, BuildingBlock: GIZVER_clean_sbu_0, # of connection points: 8
#     Edge 14, Type (0, 1), BuildingBlock: TEMPAE_clean_linker_10, # of connection points: 2
#     Edge 15, Type (0, 1), BuildingBlock: TEMPAE_clean_linker_10, # of connection points: 2
#     Edge 16, Type (0, 1), BuildingBlock: TEMPAE_clean_linker_10, # of connection points: 2
#     Edge 17, Type (0, 1), BuildingBlock: TEMPAE_clean_linker_10, # of connection points: 2
#     Edge 18, Type (0, 1), BuildingBlock: TEMPAE_clean_linker_10, # of connection points: 2
#     Edge 19, Type (0, 1), BuildingBlock: TEMPAE_clean_linker_10, # of connection points: 2
#     Edge 20, Type (0, 1), BuildingBlock: TEMPAE_clean_linker_10, # of connection points: 2
#     Edge 21, Type (0, 1), BuildingBlock: TEMPAE_clean_linker_10, # of connection points: 2
#     Edge 22, Type (0, 1), BuildingBlock: TEMPAE_clean_linker_10, # of connection points: 2
#     Edge 23, Type (0, 1), BuildingBlock: TEMPAE_clean_linker_10, # of connection points: 2
#     Edge 24, Type (0, 1), BuildingBlock: TEMPAE_clean_linker_10, # of connection points: 2
#     Edge 25, Type (0, 1), BuildingBlock: TEMPAE_clean_linker_10, # of connection points: 2
#     Edge 26, Type (0, 1), BuildingBlock: TEMPAE_clean_linker_10, # of connection points: 2
#     Edge 27, Type (0, 1), BuildingBlock: TEMPAE_clean_linker_10, # of connection points: 2
#     Edge 28, Type (0, 1), BuildingBlock: TEMPAE_clean_linker_10, # of connection points: 2
#     Edge 29, Type (0, 1), BuildingBlock: TEMPAE_clean_linker_10, # of connection points: 2
#     Edge 30, Type (0, 1), BuildingBlock: TEMPAE_clean_linker_10, # of connection points: 2
#     Edge 31, Type (0, 1), BuildingBlock: TEMPAE_clean_linker_10, # of connection points: 2
#     Edge 32, Type (0, 1), BuildingBlock: TEMPAE_clean_linker_10, # of connection points: 2
#     Edge 33, Type (0, 1), BuildingBlock: TEMPAE_clean_linker_10, # of connection points: 2
#     Edge 34, Type (0, 1), BuildingBlock: TEMPAE_clean_linker_10, # of connection points: 2
#     Edge 35, Type (0, 1), BuildingBlock: TEMPAE_clean_linker_10, # of connection points: 2
#     Edge 36, Type (0, 1), BuildingBlock: TEMPAE_clean_linker_10, # of connection points: 2
#     Edge 37, Type (0, 1), BuildingBlock: TEMPAE_clean_linker_10, # of connection points: 2
#     Edge 38, Type (0, 1), BuildingBlock: TEMPAE_clean_linker_10, # of connection points: 2
#     Edge 39, Type (0, 1), BuildingBlock: TEMPAE_clean_linker_10, # of connection points: 2
#     Edge 40, Type (0, 1), BuildingBlock: TEMPAE_clean_linker_10, # of connection points: 2
#     Edge 41, Type (0, 1), BuildingBlock: TEMPAE_clean_linker_10, # of connection points: 2
#     Edge 42, Type (0, 1), BuildingBlock: TEMPAE_clean_linker_10, # of connection points: 2
#     Edge 43, Type (0, 1), BuildingBlock: TEMPAE_clean_linker_10, # of connection points: 2
#     Edge 44, Type (0, 1), BuildingBlock: TEMPAE_clean_linker_10, # of connection points: 2
#     Edge 45, Type (0, 1), BuildingBlock: TEMPAE_clean_linker_10, # of connection points: 2
#     Edge 46, Type (0, 1), BuildingBlock: TEMPAE_clean_linker_10, # of connection points: 2
#     Edge 47, Type (0, 1), BuildingBlock: TEMPAE_clean_linker_10, # of connection points: 2
#     Edge 48, Type (0, 1), BuildingBlock: TEMPAE_clean_linker_10, # of connection points: 2
#     Edge 49, Type (0, 1), BuildingBlock: TEMPAE_clean_linker_10, # of connection points: 2
#     Edge 50, Type (0, 1), BuildingBlock: TEMPAE_clean_linker_10, # of connection points: 2
#     Edge 51, Type (0, 1), BuildingBlock: TEMPAE_clean_linker_10, # of connection points: 2
#     Edge 52, Type (0, 1), BuildingBlock: TEMPAE_clean_linker_10, # of connection points: 2
#     Edge 53, Type (0, 1), BuildingBlock: TEMPAE_clean_linker_10, # of connection points: 2
#     Edge 54, Type (0, 1), BuildingBlock: TEMPAE_clean_linker_10, # of connection points: 2
#     Edge 55, Type (0, 1), BuildingBlock: TEMPAE_clean_linker_10, # of connection points: 2
#     Edge 56, Type (0, 1), BuildingBlock: TEMPAE_clean_linker_10, # of connection points: 2
#     Edge 57, Type (0, 1), BuildingBlock: TEMPAE_clean_linker_10, # of connection points: 2
#     Edge 58, Type (0, 1), BuildingBlock: TEMPAE_clean_linker_10, # of connection points: 2
#     Edge 59, Type (0, 1), BuildingBlock: TEMPAE_clean_linker_10, # of connection points: 2
#     Edge 60, Type (0, 1), BuildingBlock: TEMPAE_clean_linker_10, # of connection points: 2
#     Edge 61, Type (0, 1), BuildingBlock: TEMPAE_clean_linker_10, # of connection points: 2
# Relax obj value: 0.232
# Max RMSD: 0.287
# Mean RMSD: 0.186
data_MOF--net-ocu--node1-NUHQIS_clean_sbu_0--node2-GIZVER_clean_sbu_0--edge1-TEMPAE_clean_linker_10
_symmetry_space_group_name_H-M    P1
_symmetry_Int_Tables_number       1
_symmetry_cell_setting            triclinic
loop_
_symmetry_equiv_pos_as_xyz
'x, y, z'
_cell_length_a     43.757125
_cell_length_b     47.055364
_cell_length_c     34.937373
_cell_angle_alpha  95.666295
_cell_angle_beta   86.396406
_cell_angle_gamma 111.90922
loop_
_atom_site_label
_atom_site_type_symbol
_atom_site_fract_x
_atom_site_fract_y
_atom_site_fract_z
_atom_type_partial_charge
Tb0 Tb 0.2701 0.26869 0.25027 0.0
Eu1 Eu 0.31736 0.29673 0.31776 0.0
C2 C 0.33364 0.24441 0.25021 0.0
C3 C 0.25501 0.23281 0.32712 0.0
C4 C 0.23081 0.25074 0.15482 0.0
C5 C 0.19769 0.24125 0.09873 0.0
C6 C 0.20418 0.23157 0.13274 0.0
C7 C 0.2537 0.27727 0.13989 0.0
C8 C 0.24699 0.28718 0.10623 0.0
C9 C 0.21728 0.27059 0.0874 0.0
C10 C 0.23041 0.2466 0.19576 0.0
O11 O 0.24577 0.3012 0.28416 0.0
O12 O 0.28227 0.32493 0.33125 0.0
O13 O 0.33453 0.33348 0.27608 0.0
O14 O 0.31032 0.30477 0.22225 0.0
C15 C 0.25458 0.32239 0.31479 0.0
O16 O 0.32717 0.31666 0.37646 0.0
O17 O 0.36771 0.3154 0.33834 0.0
O18 O 0.34032 0.26113 0.28446 0.0
O19 O 0.30813 0.24592 0.23198 0.0
O20 O 0.24806 0.23396 0.29145 0.0
O21 O 0.27991 0.25482 0.34398 0.0
C22 C 0.33154 0.33008 0.23878 0.0
O23 O 0.24947 0.23354 0.20647 0.0
O24 O 0.23205 0.27062 0.21865 0.0
C25 C 0.37132 0.31081 0.40384 0.0
C26 C 0.39728 0.28845 0.45985 0.0
C27 C 0.41388 0.31849 0.44906 0.0
C28 C 0.40084 0.32967 0.42118 0.0
C29 C 0.35428 0.28116 0.41526 0.0
C30 C 0.36711 0.2701 0.44319 0.0
C31 C 0.35855 0.32177 0.37333 0.0
H32 H 0.1751 0.22764 0.08412 0.0
H33 H 0.18659 0.21073 0.14369 0.0
H34 H 0.2747 0.29209 0.15641 0.0
H35 H 0.2628 0.30977 0.0982 0.0
H36 H 0.43728 0.3329 0.4614 0.0
H37 H 0.4141 0.35268 0.41253 0.0
H38 H 0.33149 0.26631 0.40191 0.0
H39 H 0.35423 0.24658 0.45027 0.0
Tb40 Tb 0.82148 0.27457 0.28358 0.0
Eu41 Eu 0.777 0.3164 0.28233 0.0
C42 C 0.77123 0.26206 0.21937 0.0
C43 C 0.84833 0.33452 0.23774 0.0
C44 C 0.86112 0.22053 0.30379 0.0
C45 C 0.89105 0.18813 0.31339 0.0
C46 C 0.8824 0.20579 0.28975 0.0
C47 C 0.8477 0.21697 0.34132 0.0
C48 C 0.85635 0.19922 0.36512 0.0
C49 C 0.8784 0.18494 0.35139 0.0
C50 C 0.85439 0.2405 0.27928 0.0
O51 O 0.82801 0.29758 0.34141 0.0
O52 O 0.80978 0.33631 0.33186 0.0
O53 O 0.7523 0.28446 0.32932 0.0
O54 O 0.77512 0.24789 0.3135 0.0
C55 C 0.824 0.32345 0.35279 0.0
O56 O 0.77456 0.36172 0.28159 0.0
O57 O 0.72958 0.32131 0.28103 0.0
O58 O 0.7545 0.2755 0.24116 0.0
O59 O 0.80185 0.26704 0.22639 0.0
O60 O 0.85521 0.3167 0.2597 0.0
O61 O 0.81813 0.33423 0.23702 0.0
C62 C 0.75292 0.25701 0.33268 0.0
O63 O 0.82416 0.23143 0.2681 0.0
O64 O 0.86632 0.26967 0.29058 0.0
C65 C 0.73264 0.35946 0.24193 0.0
C66 C 0.70872 0.37123 0.17516 0.0
C67 C 0.69674 0.37841 0.21175 0.0
C68 C 0.70868 0.37256 0.24494 0.0
C69 C 0.74511 0.35269 0.20562 0.0
C70 C 0.73325 0.35859 0.17239 0.0
C71 C 0.74292 0.35056 0.27622 0.0
H72 H 0.90859 0.17788 0.30233 0.0
H73 H 0.89294 0.20855 0.2608 0.0
H74 H 0.83111 0.22835 0.35229 0.0
H75 H 0.84621 0.19695 0.39424 0.0
H76 H 0.67738 0.38766 0.2147 0.0
H77 H 0.69863 0.37752 0.27282 0.0
H78 H 0.76351 0.34226 0.203 0.0
H79 H 0.74301 0.35304 0.14461 0.0
Tb80 Tb 0.77147 0.77371 0.30491 0.0
Eu81 Eu 0.82267 0.78359 0.23545 0.0
C82 C 0.75934 0.72038 0.23766 0.0
C83 C 0.8293 0.74244 0.30613 0.0
C84 C 0.72444 0.79659 0.38018 0.0
C85 C 0.69937 0.82 0.43112 0.0
C86 C 0.70793 0.79523 0.41597 0.0
C87 C 0.73276 0.82284 0.35997 0.0
C88 C 0.72414 0.84729 0.37478 0.0
C89 C 0.70738 0.84621 0.41048 0.0
C90 C 0.73461 0.77175 0.36357 0.0
O91 O 0.80575 0.82111 0.31429 0.0
O92 O 0.85015 0.81466 0.28436 0.0
O93 O 0.79133 0.81259 0.22059 0.0
O94 O 0.74996 0.79783 0.266 0.0
C95 C 0.8377 0.82923 0.31042 0.0
O96 O 0.87306 0.80389 0.21268 0.0
O97 O 0.83332 0.78024 0.17374 0.0
O98 O 0.78713 0.73602 0.22052 0.0
O99 O 0.74888 0.73087 0.26994 0.0
O100 O 0.80489 0.75004 0.32368 0.0
O101 O 0.83837 0.75096 0.27047 0.0
C102 C 0.76237 0.81305 0.23462 0.0
O103 O 0.72362 0.76049 0.32936 0.0
O104 O 0.7661 0.77797 0.36506 0.0
C105 C 0.88173 0.76945 0.16454 0.0
C106 C 0.91336 0.7271 0.15608 0.0
C107 C 0.93198 0.7588 0.16021 0.0
C108 C 0.91622 0.77986 0.16446 0.0
C109 C 0.8633 0.7378 0.15833 0.0
C110 C 0.879 0.71685 0.15408 0.0
C111 C 0.86505 0.79054 0.17835 0.0
H112 H 0.68655 0.8187 0.45883 0.0
H113 H 0.70175 0.77518 0.43205 0.0
H114 H 0.74585 0.82443 0.3325 0.0
H115 H 0.72999 0.86676 0.35773 0.0
H116 H 0.95857 0.7672 0.16181 0.0
H117 H 0.93082 0.80412 0.16976 0.0
H118 H 0.83661 0.72897 0.1586 0.0
H119 H 0.86419 0.69254 0.15006 0.0
Tb120 Tb 0.3117 0.78474 0.30374 0.0
Eu121 Eu 0.26144 0.81685 0.28044 0.0
C122 C 0.31477 0.84763 0.34424 0.0
C123 C 0.23964 0.76454 0.33946 0.0
C124 C 0.38226 0.7615 0.29967 0.0
C125 C 0.41656 0.73214 0.28054 0.0
C126 C 0.39282 0.73767 0.30543 0.0
C127 C 0.39665 0.7806 0.26977 0.0
C128 C 0.42026 0.77504 0.24483 0.0
C129 C 0.42986 0.75032 0.24947 0.0
C130 C 0.35401 0.76443 0.322 0.0
O131 O 0.29183 0.75968 0.24886 0.0
O132 O 0.24367 0.76833 0.25349 0.0
O133 O 0.30359 0.8346 0.23837 0.0
O134 O 0.34059 0.81721 0.26315 0.0
C135 C 0.26107 0.75225 0.23897 0.0
O136 O 0.22725 0.81985 0.23951 0.0
O137 O 0.23452 0.84731 0.29431 0.0
O138 O 0.3023 0.85318 0.31398 0.0
O139 O 0.31012 0.81913 0.35018 0.0
O140 O 0.26427 0.75641 0.32693 0.0
O141 O 0.23801 0.79078 0.33229 0.0
C142 C 0.33296 0.83334 0.23943 0.0
O143 O 0.35567 0.79245 0.3312 0.0
O144 O 0.32533 0.74693 0.30871 0.0
C145 C 0.18072 0.82089 0.27608 0.0
C146 C 0.12767 0.80117 0.32872 0.0
C147 C 0.13533 0.82911 0.31181 0.0
C148 C 0.16196 0.83904 0.28584 0.0
C149 C 0.16983 0.79093 0.28808 0.0
C150 C 0.14347 0.78114 0.31443 0.0
C151 C 0.21546 0.83569 0.26488 0.0
H152 H 0.42319 0.71263 0.2844 0.0
H153 H 0.38176 0.72261 0.32816 0.0
H154 H 0.3889 0.79918 0.26485 0.0
H155 H 0.43028 0.78948 0.22126 0.0
H156 H 0.12372 0.84518 0.32237 0.0
H157 H 0.17015 0.86224 0.27709 0.0
H158 H 0.18409 0.77653 0.28084 0.0
H159 H 0.13794 0.75947 0.3268 0.0
Tb160 Tb 0.34211 0.75537 0.75583 0.0
Eu161 Eu 0.29048 0.78806 0.781 0.0
C162 C 0.27398 0.73413 0.71051 0.0
C163 C 0.34598 0.81366 0.71462 0.0
C164 C 0.40765 0.72906 0.76915 0.0
C165 C 0.4547 0.71697 0.78301 0.0
C166 C 0.43349 0.71952 0.7564 0.0
C167 C 0.40388 0.73714 0.8084 0.0
C168 C 0.42486 0.73448 0.83494 0.0
C169 C 0.45014 0.72381 0.82265 0.0
C170 C 0.38467 0.73131 0.74208 0.0
O171 O 0.36985 0.79413 0.79664 0.0
O172 O 0.32786 0.8041 0.82996 0.0
O173 O 0.26931 0.7409 0.80152 0.0
O174 O 0.31762 0.73493 0.80891 0.0
C175 C 0.35945 0.80794 0.82641 0.0
O176 O 0.27777 0.82874 0.79264 0.0
O177 O 0.24104 0.78404 0.80191 0.0
O178 O 0.27094 0.76034 0.72373 0.0
O179 O 0.29798 0.72683 0.72257 0.0
O180 O 0.35004 0.78718 0.71112 0.0
O181 O 0.32676 0.81992 0.74158 0.0
C182 C 0.28565 0.72626 0.81548 0.0
O183 O 0.35371 0.71565 0.74956 0.0
O184 O 0.3894 0.75922 0.73486 0.0
C185 C 0.22342 0.81923 0.77622 0.0
C186 C 0.1791 0.83208 0.73227 0.0
C187 C 0.17219 0.82711 0.7715 0.0
C188 C 0.19426 0.82083 0.79332 0.0
C189 C 0.22988 0.82301 0.73681 0.0
C190 C 0.20801 0.82955 0.71506 0.0
C191 C 0.24669 0.81294 0.79925 0.0
H192 H 0.47422 0.70901 0.77269 0.0
H193 H 0.43697 0.71368 0.72609 0.0
H194 H 0.38418 0.74488 0.81864 0.0
H195 H 0.42031 0.73946 0.86522 0.0
H196 H 0.14991 0.82845 0.78547 0.0
H197 H 0.1887 0.81746 0.82358 0.0
H198 H 0.25213 0.82142 0.723 0.0
H199 H 0.21434 0.83366 0.68511 0.0
Tb200 Tb 0.29815 0.28926 0.74053 0.0
Eu201 Eu 0.29254 0.24953 0.81774 0.0
C202 C 0.35207 0.31344 0.80122 0.0
C203 C 0.33298 0.23998 0.74026 0.0
C204 C 0.27246 0.3312 0.67073 0.0
C205 C 0.26412 0.3732 0.64295 0.0
C206 C 0.28518 0.36014 0.65598 0.0
C207 C 0.23807 0.31568 0.67261 0.0
C208 C 0.21694 0.32858 0.65921 0.0
C209 C 0.22963 0.35752 0.64395 0.0
C210 C 0.29549 0.3178 0.68379 0.0
O211 O 0.24761 0.25897 0.74932 0.0
O212 O 0.25456 0.21944 0.77561 0.0
O213 O 0.25708 0.27466 0.82997 0.0
O214 O 0.28163 0.31328 0.78947 0.0
C215 C 0.23844 0.22963 0.75352 0.0
O216 O 0.28443 0.20643 0.84323 0.0
O217 O 0.29697 0.2488 0.87959 0.0
O218 O 0.33173 0.29641 0.82642 0.0
O219 O 0.34691 0.30902 0.76419 0.0
O220 O 0.31829 0.2536 0.72046 0.0
O221 O 0.33156 0.24137 0.77809 0.0
C222 C 0.26183 0.30212 0.81894 0.0
O223 O 0.31146 0.33111 0.71494 0.0
O224 O 0.28512 0.28791 0.68327 0.0
C225 C 0.31632 0.21108 0.89779 0.0
C226 C 0.36062 0.19329 0.93691 0.0
C227 C 0.32701 0.17437 0.93434 0.0
C228 C 0.3052 0.18319 0.9151 0.0
C229 C 0.3498 0.23011 0.90015 0.0
C230 C 0.37167 0.22136 0.91955 0.0
C231 C 0.29261 0.21973 0.87757 0.0
H232 H 0.275 0.3958 0.63239 0.0
H233 H 0.31156 0.37274 0.65454 0.0
H234 H 0.22745 0.2935 0.68426 0.0
H235 H 0.19066 0.31559 0.66028 0.0
H236 H 0.31755 0.15234 0.94654 0.0
H237 H 0.27954 0.16806 0.91355 0.0
H238 H 0.35909 0.25176 0.887 0.0
H239 H 0.39721 0.23675 0.92113 0.0
Tb240 Tb 0.83053 0.2696 0.77546 0.0
Eu241 Eu 0.78405 0.30579 0.79926 0.0
C242 C 0.85147 0.32312 0.83803 0.0
C243 C 0.76905 0.24021 0.83426 0.0
C244 C 0.90476 0.25475 0.74373 0.0
C245 C 0.95108 0.24166 0.71978 0.0
C246 C 0.92323 0.23617 0.74381 0.0
C247 C 0.91655 0.28122 0.72337 0.0
C248 C 0.94424 0.28656 0.69893 0.0
C249 C 0.96025 0.2655 0.69494 0.0
C250 C 0.87126 0.244 0.75995 0.0
O251 O 0.78439 0.24105 0.74952 0.0
O252 O 0.76492 0.27882 0.743 0.0
O253 O 0.82545 0.34011 0.76459 0.0
O254 O 0.84377 0.3047 0.73162 0.0
C255 C 0.76403 0.25083 0.73416 0.0
O256 O 0.74464 0.32178 0.78931 0.0
O257 O 0.76842 0.33327 0.84432 0.0
O258 O 0.82019 0.31574 0.84664 0.0
O259 O 0.86032 0.31248 0.80522 0.0
O260 O 0.80033 0.24473 0.82489 0.0
O261 O 0.75612 0.25876 0.82213 0.0
C262 C 0.84366 0.33313 0.73633 0.0
O263 O 0.86735 0.25611 0.79422 0.0
O264 O 0.84868 0.24279 0.73643 0.0
C265 C 0.71109 0.31501 0.84587 0.0
C266 C 0.65174 0.28519 0.88602 0.0
C267 C 0.65959 0.2713 0.85137 0.0
C268 C 0.68915 0.28602 0.83153 0.0
C269 C 0.7045 0.32768 0.88185 0.0
C270 C 0.67528 0.31275 0.90197 0.0
C271 C 0.7425 0.33051 0.82568 0.0
H272 H 0.96278 0.2249 0.71724 0.0
H273 H 0.91456 0.2159 0.75981 0.0
H274 H 0.90273 0.29613 0.72369 0.0
H275 H 0.95097 0.30516 0.68026 0.0
H276 H 0.64203 0.25001 0.83859 0.0
H277 H 0.69441 0.27503 0.80456 0.0
H278 H 0.7217 0.34942 0.89406 0.0
H279 H 0.67015 0.32413 0.92866 0.0
Tb280 Tb 0.7737 0.77086 0.74349 0.0
Eu281 Eu 0.82379 0.7728 0.81075 0.0
C282 C 0.82513 0.7328 0.72788 0.0
C283 C 0.7522 0.71836 0.80359 0.0
C284 C 0.72147 0.79349 0.68142 0.0
C285 C 0.67375 0.80349 0.66292 0.0
C286 C 0.68792 0.78301 0.67278 0.0
C287 C 0.7405 0.82501 0.68051 0.0
C288 C 0.72642 0.84542 0.6703 0.0
C289 C 0.6929 0.83492 0.66114 0.0
C290 C 0.73603 0.77134 0.69142 0.0
O291 O 0.76091 0.80156 0.789 0.0
O292 O 0.79369 0.80229 0.83842 0.0
O293 O 0.85335 0.80817 0.76919 0.0
O294 O 0.81118 0.81709 0.74411 0.0
C295 C 0.77052 0.81048 0.82494 0.0
O296 O 0.83283 0.76554 0.86925 0.0
O297 O 0.87414 0.78607 0.83078 0.0
O298 O 0.83303 0.73836 0.76455 0.0
O299 O 0.80442 0.74437 0.71481 0.0
O300 O 0.74388 0.7336 0.77907 0.0
O301 O 0.78254 0.7268 0.81497 0.0
C302 C 0.84278 0.82456 0.7489 0.0
O303 O 0.76785 0.77931 0.68688 0.0
O304 O 0.72557 0.75865 0.72357 0.0
C305 C 0.88173 0.7552 0.87688 0.0
C306 C 0.9155 0.72026 0.90431 0.0
C307 C 0.93298 0.74959 0.89146 0.0
C308 C 0.91631 0.76684 0.87811 0.0
C309 C 0.86416 0.72576 0.88938 0.0
C310 C 0.88084 0.70858 0.90302 0.0
C311 C 0.86469 0.77457 0.86388 0.0
H312 H 0.64795 0.79459 0.6558 0.0
H313 H 0.67268 0.75886 0.67342 0.0
H314 H 0.76633 0.83392 0.68752 0.0
H315 H 0.74179 0.86953 0.66972 0.0
H316 H 0.95962 0.75948 0.89237 0.0
H317 H 0.93051 0.78952 0.86899 0.0
H318 H 0.83751 0.716 0.8888 0.0
H319 H 0.86658 0.68595 0.91222 0.0
Co320 Co 0.06334 0.95497 0.52664 0.0
Co321 Co 0.07488 0.99429 0.58896 0.0
Co322 Co 0.04867 0.02082 0.52975 0.0
O323 O 0.0785 0.9992 0.53593 0.0
H324 H 0.10095 1.01013 0.52751 0.0
O325 O 1.01764 0.04156 0.52433 0.0
Co326 Co 1.03044 0.08523 0.53469 0.0
Co327 Co 1.02085 0.04663 0.47165 0.0
H328 H 0.99522 0.02984 0.53231 0.0
O329 O 0.10633 0.98582 0.61191 0.0
O330 O 0.06046 0.9519 0.58332 0.0
O331 O 0.04155 1.00354 0.62127 0.0
O332 O 1.01395 0.99542 0.56822 0.0
O333 O 0.07112 0.05242 0.5708 0.0
O334 O 0.03976 0.12465 0.54288 0.0
O335 O 0.98946 0.08681 0.53996 0.0
O336 O 0.07512 0.08987 0.5346 0.0
O337 O 0.08394 0.0468 0.49155 0.0
O338 O 0.05651 0.04292 0.43938 0.0
O339 O 1.02915 0.08779 0.47816 0.0
O340 O 0.98609 0.04904 0.44966 0.0
C341 C 0.08506 0.9235 0.51932 0.0
C342 C 1.00972 0.96219 0.49555 0.0
C343 C 1.01431 0.99359 0.60455 0.0
C344 C 0.08667 0.95769 0.60327 0.0
C345 C 1.00798 0.11604 0.54378 0.0
C346 C 0.08371 0.08055 0.56376 0.0
C347 C 0.08359 0.05227 0.45632 0.0
C348 C 1.00136 0.078 0.46003 0.0
O349 O 0.05328 0.91521 0.51894 0.0
O350 O 0.10377 0.95254 0.52484 0.0
O351 O 1.02614 0.9898 0.4882 0.0
O352 O 1.01814 0.95076 0.52296 0.0
Co353 Co 0.60885 0.95543 0.02492 0.0
Co354 Co 0.60868 0.97264 0.09577 0.0
Co355 Co 0.571 0.01843 0.05566 0.0
O356 O 0.60909 0.9976 0.05354 0.0
H357 H 0.63074 1.01338 0.05099 0.0
O358 O 0.53111 0.03792 0.06245 0.0
Co359 Co 0.52011 0.07612 0.09925 0.0
Co360 Co 0.54073 0.06924 0.02912 0.0
H361 H 0.5104 0.02183 0.05544 0.0
O362 O 0.64602 0.97024 0.12028 0.0
O363 O 0.61579 0.93501 0.07616 0.0
O364 O 0.56694 0.9631 0.12419 0.0
O365 O 0.54415 0.99183 0.09698 0.0
O366 O 0.59553 0.0534 0.09385 0.0
O367 O 0.51189 0.11182 0.13185 0.0
O368 O 0.47159 0.07681 0.10349 0.0
O369 O 0.56716 0.08625 0.10669 0.0
O370 O 0.60043 0.04668 0.01218 0.0
O371 O 0.58436 0.08624 0.00817 0.0
O372 O 0.52763 0.09957 0.05391 0.0
O373 O 0.50709 0.06879 1.0004 0.0
C374 C 0.64281 0.93422 0.99326 0.0
C375 C 0.54079 0.95335 0.01232 0.0
C376 C 0.54328 0.97214 0.12038 0.0
C377 C 0.63887 0.94282 0.10319 0.0
C378 C 0.48067 0.10294 0.12541 0.0
C379 C 0.5932 0.07939 0.10654 0.0
C380 C 0.60528 0.07371 1.0005 0.0
C381 C 0.50754 0.09154 0.02504 0.0
O382 O 0.61098 0.92027 0.99614 0.0
O383 O 0.65458 0.96217 0.01078 0.0
O384 O 0.54553 0.98262 0.0164 0.0
O385 O 0.55944 0.94196 0.02824 0.0
Co386 Co 0.1127 0.45423 0.99076 0.0
Co387 Co 0.1152 0.46977 0.06508 0.0
Co388 Co 0.08717 0.51348 0.02328 0.0
O389 O 0.11975 0.49253 0.02281 0.0
H390 H 0.14216 0.50693 0.02043 0.0
O391 O 0.05394 0.53282 0.02253 0.0
Co392 Co 0.0581 0.56898 0.05315 0.0
Co393 Co 0.057 0.55527 0.98221 0.0
H394 H 0.03182 0.51762 0.02395 0.0
O395 O 0.15001 0.45988 0.07999 0.0
O396 O 0.11149 0.4332 0.03696 0.0
O397 O 0.07594 0.46266 0.09733 0.0
O398 O 0.05302 0.48501 0.06043 0.0
O399 O 0.11094 0.54319 0.0675 0.0
O400 O 0.05837 0.60089 0.08416 0.0
O401 O 1.01507 0.55866 0.06433 0.0
O402 O 0.10471 0.5836 0.0464 0.0
O403 O 0.12079 0.54216 0.98652 0.0
O404 O 0.09703 0.56602 0.95282 0.0
O405 O 0.05305 0.5904 0.00723 0.0
O406 O 1.01988 0.55611 0.96296 0.0
C407 C 0.14217 0.43291 0.96032 0.0
C408 C 0.0506 0.45663 0.98206 0.0
C409 C 0.05129 0.46837 0.08832 0.0
C410 C 0.1369 0.43581 0.0563 0.0
C411 C 1.02691 0.58482 0.08494 0.0
C412 C 0.1202 0.5724 0.06642 0.0
C413 C 0.1218 0.56004 0.96043 0.0
C414 C 1.02836 0.58226 0.98367 0.0
O415 O 0.11017 0.42056 0.96051 0.0
O416 O 0.15618 0.45928 0.98033 0.0
O417 O 0.06349 0.48542 0.97928 0.0
O418 O 0.06661 0.44285 0.99633 0.0
Co419 Co 0.54302 0.45198 0.99051 0.0
Co420 Co 0.57099 0.47862 0.05566 0.0
Co421 Co 0.54476 0.52261 0.02188 0.0
O422 O 0.5686 0.49395 0.00968 0.0
H423 H 0.58993 0.50305 0.99708 0.0
O424 O 0.5203 0.5501 0.03199 0.0
Co425 Co 0.54066 0.59146 0.05149 0.0
Co426 Co 0.5175 0.56409 0.9849 0.0
H427 H 0.49853 0.53999 0.04296 0.0
O428 O 0.60405 0.46532 0.05984 0.0
O429 O 0.55245 0.43766 0.03863 0.0
O430 O 0.54516 0.48449 0.10006 0.0
O431 O 0.51366 0.49752 0.06373 0.0
O432 O 0.57757 0.5467 0.06139 0.0
O433 O 0.55554 0.63024 0.07125 0.0
O434 O 0.5032 0.59611 0.06698 0.0
O435 O 0.583 0.59075 0.03942 0.0
O436 O 0.57603 0.54863 0.98135 0.0
O437 O 0.54379 0.55661 0.94083 0.0
O438 O 0.53812 0.60529 1.00032 0.0
O439 O 0.48669 0.58097 0.97815 0.0
C440 C 0.55077 0.41588 0.96089 0.0
C441 C 0.49558 0.47039 0.9864 0.0
C442 C 0.51753 0.48579 0.09389 0.0
C443 C 0.58206 0.43957 0.04638 0.0
C444 C 0.52409 0.62337 0.07784 0.0
C445 C 0.59339 0.57549 0.05992 0.0
C446 C 0.5719 0.55754 0.9492 0.0
C447 C 0.51115 0.6062 0.98783 0.0
O448 O 0.52163 0.41411 0.97293 0.0
O449 O 0.57586 0.44191 0.96644 0.0
O450 O 0.5121 0.49868 0.98259 0.0
O451 O 0.5051 0.4571 0.01047 0.0
Co452 Co 0.09078 0.5049 0.51357 0.0
Co453 Co 0.08255 0.50368 0.44497 0.0
Co454 Co 0.03146 0.54213 0.49892 0.0
O455 O 0.05099 0.50535 0.4874 0.0
H456 H 0.0332 0.48558 0.48803 0.0
O457 O 1.01104 0.57914 0.50581 0.0
Co458 Co 0.96879 0.58249 0.47867 0.0
Co459 Co 0.97928 0.57587 0.54743 0.0
H460 H 1.0287 0.59903 0.50826 0.0
O461 O 0.08856 0.46796 0.41309 0.0
O462 O 0.11842 0.49231 0.46347 0.0
O463 O 0.09653 0.54496 0.42666 0.0
O464 O 0.06061 0.56578 0.45586 0.0
O465 O 0.99414 0.52049 0.46335 0.0
O466 O 0.93284 0.58658 0.45164 0.0
O467 O 0.97657 0.6264 0.46817 0.0
O468 O 0.95224 0.53775 0.4795 0.0
O469 O 1.00203 0.51625 0.54358 0.0
O470 O 0.96491 0.53562 0.5702 0.0
O471 O 0.9446 0.58827 0.53147 0.0
O472 O 0.97973 0.61128 0.57925 0.0
C473 C 0.10333 0.47394 0.54097 0.0
C474 C 0.1009 0.569 0.53314 0.0
C475 C 0.08517 0.56665 0.43271 0.0
C476 C 0.11348 0.47068 0.43352 0.0
C477 C 0.94797 0.61615 0.45081 0.0
C478 C 0.96357 0.51613 0.47063 0.0
C479 C 0.97695 0.51447 0.56697 0.0
C480 C 0.95328 0.60869 0.56189 0.0
O481 O 0.12217 0.5028 0.5414 0.0
O482 O 0.07561 0.46413 0.52258 0.0
O483 O 0.06993 0.56563 0.53552 0.0
O484 O 0.11096 0.54988 0.51188 0.0
Co485 Co 0.58767 0.02011 0.5521 0.0
Co486 Co 0.57529 0.02785 0.48409 0.0
Co487 Co 0.5319 0.05394 0.54607 0.0
O488 O 0.54997 0.0216 0.52809 0.0
H489 H 0.53255 1.00142 0.52531 0.0
O490 O 0.51362 0.0854 0.56596 0.0
Co491 Co 0.47803 0.09038 0.54347 0.0
Co492 Co 0.48715 0.07844 0.60983 0.0
H493 H 0.53157 0.10508 0.57046 0.0
O494 O 0.57718 0.99549 0.45228 0.0
O495 O 0.61087 0.02135 0.50127 0.0
O496 O 0.58804 0.06702 0.46508 0.0
O497 O 0.56342 0.08776 0.51174 0.0
O498 O 0.49892 0.0369 0.50423 0.0
O499 O 0.44762 0.09971 0.52217 0.0
O500 O 0.49473 0.131 0.55047 0.0
O501 O 0.45643 0.04671 0.53206 0.0
O502 O 0.50116 0.02057 0.57923 0.0
O503 O 0.47261 0.03732 0.62542 0.0
O504 O 0.45303 0.08887 0.59464 0.0
O505 O 0.48722 0.11123 0.64376 0.0
C506 C 0.60184 0.98592 0.56953 0.0
C507 C 0.59504 0.07987 0.58071 0.0
C508 C 0.58257 0.08996 0.48137 0.0
C509 C 0.60327 1.00076 0.47199 0.0
C510 C 0.46792 0.12723 0.53308 0.0
C511 C 0.46784 0.02987 0.5092 0.0
C512 C 0.48046 0.01593 0.60791 0.0
C513 C 0.46191 0.10916 0.62445 0.0
O514 O 0.62027 0.0149 0.57517 0.0
O515 O 0.57464 0.9782 0.5506 0.0
O516 O 0.56423 0.07088 0.58808 0.0
O517 O 0.60669 0.06354 0.55783 0.0
C518 C 0.21583 0.17754 0.32782 0.0
C519 C 0.23363 0.2056 0.34834 0.0
C520 C 0.19432 0.15198 0.3466 0.0
C521 C 0.1894 0.15434 0.38716 0.0
C522 C 0.20768 0.18248 0.40818 0.0
C523 C 0.22982 0.2075 0.38867 0.0
C524 C 0.17621 0.12252 0.32276 0.0
C525 C 0.20279 0.18665 0.45119 0.0
C526 C 0.10476 0.10111 0.42329 0.0
C527 C 0.11164 0.07795 0.43937 0.0
C528 C 0.1298 0.12637 0.40782 0.0
C529 C 0.163 0.12843 0.40672 0.0
C530 C 0.17025 0.10507 0.42283 0.0
C531 C 0.14465 0.08052 0.4397 0.0
C532 C 0.12055 0.15093 0.39255 0.0
C533 C 0.20497 0.10563 0.42141 0.0
H534 H 0.21869 0.1755 0.29674 0.0
H535 H 0.24322 0.22897 0.40495 0.0
H536 H 0.17882 0.10273 0.33511 0.0
H537 H 0.14954 0.11845 0.32318 0.0
H538 H 0.18535 0.1231 0.29234 0.0
H539 H 0.22027 0.20898 0.4638 0.0
H540 H 0.17727 0.18556 0.45798 0.0
H541 H 0.20586 0.16782 0.46528 0.0
H542 H 0.07949 0.0998 0.4234 0.0
H543 H 0.15033 0.06294 0.45217 0.0
H544 H 0.12528 0.15102 0.36099 0.0
H545 H 0.13596 0.17393 0.40563 0.0
H546 H 0.0942 0.14742 0.39851 0.0
H547 H 0.21382 0.10468 0.39101 0.0
H548 H 0.2068 0.08609 0.43528 0.0
H549 H 0.22171 0.12743 0.43593 0.0
C550 C 0.90143 0.18189 0.4136 0.0
C551 C 0.89041 0.16853 0.37691 0.0
C552 C 0.91838 0.16928 0.43523 0.0
C553 C 0.92488 0.1433 0.41922 0.0
C554 C 0.91197 0.12864 0.38323 0.0
C555 C 0.89451 0.14129 0.3627 0.0
C556 C 0.9307 0.18475 0.47409 0.0
C557 C 0.918 0.10051 0.36543 0.0
C558 C 0.99929 0.12589 0.43852 0.0
C559 C 0.984 0.09857 0.45617 0.0
C560 C 0.98065 0.14267 0.42914 0.0
C561 C 0.94644 0.13186 0.43858 0.0
C562 C 0.93201 0.10625 0.46047 0.0
C563 C 0.95086 0.08939 0.46821 0.0
C564 C 0.99685 0.17028 0.40626 0.0
C565 C 0.89609 0.09519 0.47296 0.0
H566 H 0.89834 0.20304 0.42461 0.0
H567 H 0.88526 0.1306 0.33468 0.0
H568 H 0.92958 0.16782 0.49464 0.0
H569 H 0.95679 0.20039 0.47102 0.0
H570 H 0.91616 0.1986 0.48638 0.0
H571 H 0.90612 0.09198 0.33721 0.0
H572 H 0.94489 0.10595 0.36117 0.0
H573 H 0.9084 0.08172 0.38497 0.0
H574 H 1.02513 0.13296 0.42987 0.0
H575 H 0.93946 0.0685 0.48283 0.0
H576 H 0.99065 0.18997 0.41933 0.0
H577 H 0.9874 0.16481 0.3766 0.0
H578 H 1.02409 0.17735 0.40453 0.0
H579 H 0.88875 0.11487 0.48324 0.0
H580 H 0.89065 0.07936 0.49622 0.0
H581 H 0.8807 0.08272 0.44809 0.0
C582 C 0.84787 0.86434 0.37136 0.0
C583 C 0.86011 0.85254 0.33799 0.0
C584 C 0.86934 0.88336 0.39978 0.0
C585 C 0.90374 0.89055 0.39468 0.0
C586 C 0.91619 0.87941 0.36055 0.0
C587 C 0.8943 0.8607 0.33266 0.0
C588 C 0.85521 0.89509 0.43563 0.0
C589 C 0.95268 0.88659 0.35384 0.0
C590 C 0.96893 0.95854 0.44648 0.0
C591 C 0.97992 0.94425 0.47316 0.0
C592 C 0.94272 0.94163 0.42238 0.0
C593 C 0.92714 0.90954 0.42477 0.0
C594 C 0.93692 0.89521 0.45301 0.0
C595 C 0.96318 0.91276 0.47695 0.0
C596 C 0.93292 0.95788 0.39295 0.0
C597 C 0.92087 0.86105 0.45654 0.0
H598 H 0.82149 0.85804 0.37581 0.0
H599 H 0.90407 0.85179 0.30698 0.0
H600 H 0.86027 0.88535 0.46108 0.0
H601 H 0.86725 0.92046 0.44017 0.0
H602 H 0.82817 0.88892 0.43424 0.0
H603 H 0.95838 0.87643 0.32552 0.0
H604 H 0.96622 0.91183 0.35525 0.0
H605 H 0.96217 0.87762 0.37677 0.0
H606 H 0.98138 0.98295 0.44363 0.0
H607 H 0.9713 0.90158 0.49769 0.0
H608 H 0.90576 0.95111 0.3932 0.0
H609 H 0.94068 0.95105 0.36377 0.0
H610 H 0.94442 0.98328 0.39807 0.0
H611 H 0.89365 0.85375 0.45738 0.0
H612 H 0.92849 0.85407 0.48271 0.0
H613 H 0.92778 0.84856 0.43094 0.0
C614 C 0.08482 0.80769 0.37489 0.0
C615 C 0.11144 0.79818 0.36732 0.0
C616 C 0.07977 0.82025 0.41162 0.0
C617 C 0.10176 0.82282 0.44111 0.0
C618 C 0.12409 0.80744 0.43542 0.0
C619 C 0.12881 0.79526 0.39827 0.0
C620 C 0.05439 0.83507 0.41694 0.0
C621 C 0.1463 0.80761 0.46681 0.0
C622 C 0.12438 0.9037 0.48366 0.0
C623 C 0.09887 0.89952 0.51111 0.0
C624 C 0.12866 0.87816 0.46345 0.0
C625 C 0.1072 0.84814 0.47182 0.0
C626 C 0.08563 0.84426 0.50433 0.0
C627 C 0.08127 0.87015 0.52335 0.0
C628 C 0.15294 0.88341 0.42972 0.0
C629 C 0.06426 0.81284 0.5162 0.0
H630 H 0.07076 0.80902 0.35111 0.0
H631 H 0.14904 0.78724 0.39285 0.0
H632 H 0.04018 0.82924 0.44434 0.0
H633 H 0.06698 0.86044 0.41817 0.0
H634 H 0.03684 0.82777 0.393 0.0
H635 H 0.15169 0.7862 0.46378 0.0
H636 H 0.1701 0.82722 0.46434 0.0
H637 H 0.13529 0.80996 0.49587 0.0
H638 H 0.1382 0.92653 0.47468 0.0
H639 H 0.06204 0.8671 0.54547 0.0
H640 H 0.13938 0.87681 0.40242 0.0
H641 H 0.1679 0.86895 0.4303 0.0
H642 H 0.16988 0.90782 0.42958 0.0
H643 H 0.04053 0.80471 0.50122 0.0
H644 H 0.05862 0.81366 0.54766 0.0
H645 H 0.07619 0.79588 0.50866 0.0
C646 C 0.14606 0.86474 0.72753 0.0
C647 C 0.15792 0.84257 0.7102 0.0
C648 C 0.1299 0.8782 0.70613 0.0
C649 C 0.1257 0.86948 0.66628 0.0
C650 C 0.13586 0.84587 0.64893 0.0
C651 C 0.15186 0.83262 0.67118 0.0
C652 C 0.11952 0.90342 0.72568 0.0
C653 C 0.13163 0.83597 0.60652 0.0
C654 C 0.07216 0.90444 0.62282 0.0
C655 C 0.09603 0.93259 0.61359 0.0
C656 C 0.08147 0.88221 0.63749 0.0
C657 C 0.11531 0.88845 0.64245 0.0
C658 C 0.13946 0.91575 0.62983 0.0
C659 C 0.12948 0.9376 0.61585 0.0
C660 C 0.05509 0.85319 0.65022 0.0
C661 C 0.17586 0.92303 0.63376 0.0
H662 H 0.151 0.8729 0.75746 0.0
H663 H 0.16048 0.81511 0.65776 0.0
H664 H 0.13555 0.92582 0.71509 0.0
H665 H 0.0938 0.89942 0.71863 0.0
H666 H 0.12129 0.90515 0.75746 0.0
H667 H 0.13688 0.81477 0.59851 0.0
H668 H 0.10621 0.83189 0.59814 0.0
H669 H 0.14862 0.85455 0.58954 0.0
H670 H 0.04627 0.90048 0.6205 0.0
H671 H 0.14795 0.95909 0.60764 0.0
H672 H 0.05262 0.8549 0.68209 0.0
H673 H 0.06183 0.83294 0.64138 0.0
H674 H 1.03078 0.84929 0.63826 0.0
H675 H 0.1821 0.92815 0.66462 0.0
H676 H 0.19131 0.94316 0.61804 0.0
H677 H 0.18237 0.90303 0.62276 0.0
C678 C 0.2046 0.2175 0.69548 0.0
C679 C 0.21172 0.20798 0.72951 0.0
C680 C 0.18221 0.19685 0.66955 0.0
C681 C 0.16609 0.16596 0.67816 0.0
C682 C 0.17204 0.15639 0.71323 0.0
C683 C 0.19519 0.1775 0.73838 0.0
C684 C 0.17702 0.20783 0.63213 0.0
C685 C 0.15462 0.12372 0.72364 0.0
C686 C 0.09139 0.11908 0.61924 0.0
C687 C 0.10485 0.10281 0.59214 0.0
C688 C 0.11087 0.13928 0.64814 0.0
C689 C 0.14457 0.14341 0.64925 0.0
C690 C 0.1582 0.12704 0.62155 0.0
C691 C 0.13795 0.10658 0.59344 0.0
C692 C 0.09547 0.15612 0.67741 0.0
C693 C 0.1942 0.13141 0.62132 0.0
H694 H 0.21769 0.24087 0.68812 0.0
H695 H 0.20062 0.1701 0.76469 0.0
H696 H 0.18576 0.19565 0.60766 0.0
H697 H 0.15042 0.20242 0.62825 0.0
H698 H 0.19037 0.23297 0.6307 0.0
H699 H 0.1598 0.12066 0.75336 0.0
H700 H 0.1276 0.11673 0.72102 0.0
H701 H 0.16257 0.10799 0.70332 0.0
H702 H 0.06552 0.11563 0.61808 0.0
H703 H 0.14796 0.09364 0.57233 0.0
H704 H 0.10758 0.18127 0.67538 0.0
H705 H 0.09926 0.15143 0.7069 0.0
H706 H 0.06862 0.14938 0.67334 0.0
H707 H 0.20969 0.15586 0.61793 0.0
H708 H 0.20085 0.11693 0.59775 0.0
H709 H 0.20033 0.12566 0.64915 0.0
C710 C 1.00436 0.25186 0.65919 0.0
C711 C 0.97789 0.26164 0.65863 0.0
C712 C 1.01007 0.23288 0.62844 0.0
C713 C 0.98876 0.22385 0.59684 0.0
C714 C 0.96633 0.23849 0.59321 0.0
C715 C 0.9613 0.25758 0.62423 0.0
C716 C 0.03574 0.21911 0.63233 0.0
C717 C 0.94487 0.23108 0.55878 0.0
C718 C 1.01131 0.16735 0.52956 0.0
C719 C 0.99434 0.1403 0.5477 0.0
C720 C 1.0067 0.19466 0.5419 0.0
C721 C 0.9851 0.19477 0.57356 0.0
C722 C 0.96456 0.16655 0.58828 0.0
C723 C 0.96937 0.13938 0.57492 0.0
C724 C 1.0279 0.22367 0.52383 0.0
C725 C 0.94028 0.16558 0.62128 0.0
H726 H 1.01775 0.25574 0.6855 0.0
H727 H 0.9412 0.26568 0.62332 0.0
H728 H 1.02338 0.19477 0.63902 0.0
H729 H 0.05009 0.21943 0.60495 0.0
H730 H 0.05307 0.2316 0.65565 0.0
H731 H 0.96044 0.23407 0.5321 0.0
H732 H 0.92768 0.20675 0.558 0.0
H733 H 0.9302 0.24595 0.55919 0.0
H734 H 1.03019 0.16776 0.50771 0.0
H735 H 0.95607 0.1183 0.58852 0.0
H736 H 0.05274 0.23243 0.53633 0.0
H737 H 1.01754 0.24197 0.52871 0.0
H738 H 1.03102 0.21882 0.49235 0.0
H739 H 0.95388 0.17591 0.6481 0.0
H740 H 0.92345 0.14171 0.62597 0.0
H741 H 0.92525 0.17919 0.61595 0.0
C742 C 0.89951 0.85339 0.72113 0.0
C743 C 0.86692 0.8513 0.72936 0.0
C744 C 0.92184 0.87724 0.7003 0.0
C745 C 0.91183 0.90024 0.68802 0.0
C746 C 0.87914 0.89857 0.69691 0.0
C747 C 0.85707 0.87403 0.71693 0.0
C748 C 0.9561 0.87751 0.69088 0.0
C749 C 0.86745 0.92281 0.68536 0.0
C750 C 0.98221 0.97536 0.66567 0.0
C751 C 0.98483 0.97245 0.62529 0.0
C752 C 0.95773 0.95282 0.68622 0.0
C753 C 0.93568 0.92602 0.66619 0.0
C754 C 0.93761 0.92336 0.62533 0.0
C755 C 0.96176 0.94671 0.60545 0.0
C756 C 0.95619 0.95727 0.72957 0.0
C757 C 0.91524 0.89509 0.60256 0.0
H758 H 0.90737 0.83584 0.73007 0.0
H759 H 0.83202 0.87276 0.72305 0.0
H760 H 0.9608 0.87724 0.65928 0.0
H761 H 0.97468 0.89892 0.70399 0.0
H762 H 0.95985 0.85754 0.70135 0.0
H763 H 0.84164 0.91877 0.69524 0.0
H764 H 0.88364 0.94583 0.69759 0.0
H765 H 0.86905 0.92329 0.65361 0.0
H766 H 0.99987 0.99506 0.68135 0.0
H767 H 0.9637 0.9439 0.57434 0.0
H768 H 0.96343 0.93999 0.74204 0.0
H769 H 0.93061 0.95368 0.73989 0.0
H770 H 0.97274 0.98055 0.74066 0.0
H771 H 0.92005 0.87468 0.60963 0.0
H772 H 0.91887 0.89697 0.571 0.0
H773 H 0.88908 0.89098 0.61046 0.0
C774 C 0.37653 0.21412 0.25247 0.0
C775 C 0.35504 0.22346 0.23153 0.0
C776 C 0.39511 0.19483 0.23626 0.0
C777 C 0.39517 0.18347 0.19591 0.0
C778 C 0.37399 0.19343 0.17445 0.0
C779 C 0.35472 0.21175 0.19182 0.0
C780 C 0.41465 0.18647 0.26412 0.0
C781 C 0.37149 0.18533 0.13169 0.0
C782 C 0.47153 0.15399 0.15976 0.0
C783 C 0.4579 0.12298 0.14249 0.0
C784 C 0.45262 0.17302 0.17546 0.0
C785 C 0.41683 0.1624 0.17693 0.0
C786 C 0.40281 0.13092 0.15952 0.0
C787 C 0.42253 0.11276 0.14286 0.0
C788 C 0.4724 0.20555 0.19006 0.0
C789 C 0.36595 0.11511 0.15833 0.0
H790 H 0.37866 0.22155 0.28286 0.0
H791 H 0.33939 0.21746 0.17311 0.0
H792 H 0.42015 0.16586 0.25338 0.0
H793 H 0.43819 0.20615 0.26937 0.0
H794 H 0.40114 0.18211 0.29226 0.0
H795 H 0.36916 0.20423 0.11689 0.0
H796 H 0.39311 0.1805 0.11898 0.0
H797 H 0.34891 0.16469 0.12591 0.0
H798 H 0.49815 0.16426 0.16072 0.0
H799 H 0.40949 0.08964 0.13039 0.0
H800 H 0.48086 0.20553 0.21933 0.0
H801 H 0.45811 0.22077 0.19128 0.0
H802 H 0.49476 0.21535 0.17146 0.0
H803 H 0.35293 0.12593 0.17973 0.0
H804 H 0.35847 0.09051 0.16363 0.0
H805 H 0.35785 0.1159 0.12911 0.0
C806 C 0.87702 0.38424 0.20527 0.0
C807 C 0.87565 0.35504 0.21315 0.0
C808 C 0.90402 0.40427 0.1843 0.0
C809 C 0.92997 0.39467 0.16945 0.0
C810 C 0.92795 0.36474 0.17619 0.0
C811 C 0.90137 0.34569 0.19836 0.0
C812 C 0.90533 0.43616 0.1792 0.0
C813 C 0.95412 0.35278 0.16018 0.0
C814 C 0.98994 0.43677 0.08918 0.0
C815 C 1.01906 0.45287 0.10925 0.0
C816 C 0.96074 0.41815 0.10822 0.0
C817 C 0.96004 0.41621 0.1487 0.0
C818 C 0.98905 0.43367 0.16919 0.0
C819 C 1.01814 0.45112 0.14925 0.0
C820 C 0.93113 0.39935 0.08462 0.0
C821 C 0.98966 0.4334 0.2123 0.0
H822 H 0.85753 0.39189 0.21669 0.0
H823 H 0.90057 0.32315 0.20388 0.0
H824 H 0.92741 0.45343 0.19332 0.0
H825 H 0.90772 0.44017 0.14822 0.0
H826 H 0.88309 0.44007 0.19164 0.0
H827 H 0.94756 0.32815 0.16479 0.0
H828 H 0.95805 0.35558 0.12887 0.0
H829 H 0.97785 0.36626 0.17415 0.0
H830 H 0.99046 0.43744 0.05821 0.0
H831 H 0.04046 0.46333 0.16507 0.0
H832 H 0.90913 0.40404 0.09611 0.0
H833 H 0.92566 0.37453 0.08664 0.0
H834 H 0.93503 0.40412 0.05379 0.0
H835 H 0.96836 0.43812 0.22624 0.0
H836 H 1.01272 0.45065 0.22454 0.0
H837 H 0.9875 0.41033 0.21972 0.0
C838 C 0.71261 0.83285 0.22807 0.0
C839 C 0.74337 0.83101 0.21434 0.0
C840 C 0.69527 0.84896 0.20974 0.0
C841 C 0.70758 0.86483 0.1754 0.0
C842 C 0.73855 0.86299 0.16138 0.0
C843 C 0.75538 0.84673 0.18025 0.0
C844 C 0.6631 0.849 0.22771 0.0
C845 C 0.75443 0.8786 0.12571 0.0
C846 C 0.6495 0.88956 0.10853 0.0
C847 C 0.65582 0.92129 0.11955 0.0
C848 C 0.66544 0.87148 0.12569 0.0
C849 C 0.68938 0.88407 0.15568 0.0
C850 C 0.6958 0.91596 0.16657 0.0
C851 C 0.67963 0.93333 0.14916 0.0
C852 C 0.65633 0.83821 0.11146 0.0
C853 C 0.72032 0.93229 0.19743 0.0
H854 H 0.70169 0.82154 0.25384 0.0
H855 H 0.77858 0.84646 0.16782 0.0
H856 H 0.66527 0.87295 0.23665 0.0
H857 H 0.64343 0.83951 0.20622 0.0
H858 H 0.65552 0.83534 0.2532 0.0
H859 H 0.77773 0.87511 0.11708 0.0
H860 H 0.7372 0.86966 0.10154 0.0
H861 H 0.75977 0.90363 0.13068 0.0
H862 H 0.63173 0.87845 0.08631 0.0
H863 H 0.68599 0.95727 0.15938 0.0
H864 H 0.64625 0.82356 0.13576 0.0
H865 H 0.67868 0.83408 0.10001 0.0
H866 H 0.63782 0.83099 0.08856 0.0
H867 H 0.71216 0.92077 0.22452 0.0
H868 H 0.72349 0.95685 0.20325 0.0
H869 H 0.74461 0.93095 0.18876 0.0
C870 C 0.21233 0.71885 0.20032 0.0
C871 C 0.24415 0.7243 0.2127 0.0
C872 C 0.19473 0.6923 0.17708 0.0
C873 C 0.20901 0.67018 0.16568 0.0
C874 C 0.24113 0.6754 0.17795 0.0
C875 C 0.25835 0.7024 0.20124 0.0
C876 C 0.16073 0.68801 0.16463 0.0
C877 C 0.25728 0.65246 0.16643 0.0
C878 C 0.14638 0.59149 0.13081 0.0
C879 C 0.14681 0.5942 0.09115 0.0
C880 C 0.16766 0.6154 0.1554 0.0
C881 C 0.19039 0.64232 0.13982 0.0
C882 C 0.19235 0.64402 0.09942 0.0
C883 C 0.17026 0.62024 0.07581 0.0
C884 C 0.16431 0.6127 0.19827 0.0
C885 C 0.21636 0.67185 0.08115 0.0
H886 H 0.2009 0.73544 0.20884 0.0
H887 H 0.28275 0.70616 0.21078 0.0
H888 H 0.16028 0.68669 0.13277 0.0
H889 H 0.14247 0.66605 0.17401 0.0
H890 H 0.15281 0.70702 0.17658 0.0
H891 H 0.28216 0.65962 0.17854 0.0
H892 H 0.2417 0.62971 0.17636 0.0
H893 H 0.25955 0.64952 0.1346 0.0
H894 H 0.12803 0.57159 0.14293 0.0
H895 H 0.17081 0.62244 0.04526 0.0
H896 H 0.15328 0.62905 0.21208 0.0
H897 H 0.18886 0.6189 0.21078 0.0
H898 H 0.14846 0.58915 0.20557 0.0
H899 H 0.20721 0.69099 0.08607 0.0
H900 H 0.21936 0.66715 0.04963 0.0
H901 H 0.24088 0.67965 0.09424 0.0
C902 C 0.41893 0.83806 0.84679 0.0
C903 C 0.38479 0.82892 0.85545 0.0
C904 C 0.4433 0.8579 0.87255 0.0
C905 C 0.43415 0.86907 0.90909 0.0
C906 C 0.39973 0.85962 0.91832 0.0
C907 C 0.37576 0.84018 0.89159 0.0
C908 C 0.47915 0.86723 0.86027 0.0
C909 C 0.38812 0.86996 0.95681 0.0
C910 C 0.50131 0.89935 0.98749 0.0
C911 C 0.51242 0.93165 0.98725 0.0
C912 C 0.4757 0.87906 0.96333 0.0
C913 C 0.46052 0.8907 0.93704 0.0
C914 C 0.47158 0.92326 0.93674 0.0
C915 C 0.49677 0.94302 0.96172 0.0
C916 C 0.46495 0.84488 0.96589 0.0
C917 C 0.45723 0.93739 0.90922 0.0
H918 H 0.42685 0.82998 0.81926 0.0
H919 H 0.3498 0.83354 0.89929 0.0
H920 H 0.49081 0.89265 0.86105 0.0
H921 H 0.4924 0.85956 0.88061 0.0
H922 H 0.48254 0.85737 0.83081 0.0
H923 H 0.36088 0.85995 0.96065 0.0
H924 H 0.39938 0.86329 0.9803 0.0
H925 H 0.39624 0.89538 0.95983 0.0
H926 H 0.51264 0.88974 0.00678 0.0
H927 H 0.50474 0.96767 0.96052 0.0
H928 H 0.47054 0.83389 0.93819 0.0
H929 H 0.43789 0.83467 0.97115 0.0
H930 H 0.47736 0.83922 0.98918 0.0
H931 H 0.46171 0.92943 0.87917 0.0
H932 H 0.46798 0.96291 0.91233 0.0
H933 H 0.43016 0.92978 0.91404 0.0
C934 C 0.22584 0.31269 0.87382 0.0
C935 C 0.245 0.32175 0.84024 0.0
C936 C 0.21025 0.33132 0.89399 0.0
C937 C 0.21346 0.35979 0.88028 0.0
C938 C 0.23255 0.36889 0.84618 0.0
C939 C 0.24819 0.35002 0.82688 0.0
C940 C 0.18965 0.31976 0.92944 0.0
C941 C 0.2359 0.39834 0.82949 0.0
C942 C 0.14595 0.39127 0.9116 0.0
C943 C 0.16156 0.41566 0.93896 0.0
C944 C 0.16262 0.37339 0.89216 0.0
C945 C 0.19584 0.37943 0.90048 0.0
C946 C 0.21193 0.40418 0.92794 0.0
C947 C 0.1947 0.42208 0.94659 0.0
C948 C 0.14451 0.34792 0.86262 0.0
C949 C 0.24749 0.41224 0.93751 0.0
H950 H 0.22294 0.29095 0.8845 0.0
H951 H 0.26273 0.3574 0.80089 0.0
H952 H 0.1892 0.33893 0.95022 0.0
H953 H 0.16398 0.30595 0.921 0.0
H954 H 0.19889 0.30469 0.94396 0.0
H955 H 0.25006 0.4014 0.80169 0.0
H956 H 0.21113 0.39859 0.82488 0.0
H957 H 0.24854 0.41826 0.85001 0.0
H958 H 0.1204 0.38603 0.90524 0.0
H959 H 0.20707 0.44074 0.96769 0.0
H960 H 0.14106 0.32538 0.87302 0.0
H961 H 0.15916 0.35002 0.83522 0.0
H962 H 0.1199 0.34803 0.85671 0.0
H963 H 0.25407 0.39156 0.93606 0.0
H964 H 0.25297 0.42444 0.96662 0.0
H965 H 0.26356 0.42779 0.91642 0.0
C966 C 0.76015 0.19533 0.87687 0.0
C967 C 0.7474 0.21378 0.85841 0.0
C968 C 0.73976 0.1711 0.8996 0.0
C969 C 0.70511 0.16408 0.90422 0.0
C970 C 0.69214 0.18241 0.8852 0.0
C971 C 0.71307 0.20667 0.86315 0.0
C972 C 0.75554 0.15314 0.91924 0.0
C973 C 0.65577 0.17651 0.88829 0.0
C974 C 0.6432 0.08553 0.93931 0.0
C975 C 0.6359 0.09335 0.97792 0.0
C976 C 0.6661 0.10767 0.91556 0.0
C977 C 0.6827 0.13891 0.93011 0.0
C978 C 0.67616 0.14645 0.96943 0.0
C979 C 0.65298 0.12413 0.99215 0.0
C980 C 0.67127 0.0979 0.87407 0.0
C981 C 0.69287 0.17871 0.98745 0.0
H982 H 0.78635 0.20005 0.87398 0.0
H983 H 0.70223 0.22016 0.84934 0.0
H984 H 0.75164 0.15596 0.95087 0.0
H985 H 0.74374 0.12829 0.91023 0.0
H986 H 0.78243 0.16062 0.91265 0.0
H987 H 0.64896 0.19166 0.87087 0.0
H988 H 0.6414 0.15221 0.8786 0.0
H989 H 0.64843 0.18029 0.91876 0.0
H990 H 0.62962 0.06251 0.92689 0.0
H991 H 0.64712 0.13127 0.02121 0.0
H992 H 0.69798 0.10476 0.86686 0.0
H993 H 0.6612 0.10976 0.85522 0.0
H994 H 0.65905 0.07269 0.86749 0.0
H995 H 0.72001 0.18542 0.98486 0.0
H996 H 0.68576 0.18112 0.01834 0.0
H997 H 0.68642 0.19511 0.972 0.0
C998 C 0.96176 0.70016 0.89947 0.0
C999 C 0.93335 0.70196 0.91888 0.0
C1000 C 0.97826 0.68234 0.91218 0.0
C1001 C 0.96636 0.66601 0.94541 0.0
C1002 C 0.93823 0.66841 0.96573 0.0
C1003 C 0.92198 0.68612 0.95214 0.0
C1004 C 1.00788 0.68025 0.88929 0.0
C1005 C 0.92521 0.65211 1.0018 0.0
C1006 C 0.98473 0.59358 0.95205 0.0
C1007 C 1.01161 0.60373 0.97669 0.0
C1008 C 0.96981 0.61349 0.94208 0.0
C1009 C 0.98174 0.64458 0.95714 0.0
C1010 C 1.0084 0.65496 0.98271 0.0
C1011 C 1.02294 0.63442 0.99231 0.0
C1012 C 0.94161 0.6013 0.91463 0.0
C1013 C 1.02231 0.68804 0.99886 0.0
H1014 H 0.97064 0.71207 0.87361 0.0
H1015 H 0.90044 0.68777 0.96778 0.0
H1016 H 1.00219 0.65634 0.87655 0.0
H1017 H 1.01541 0.6959 0.8657 0.0
H1018 H 1.02904 0.68594 0.90834 0.0
H1019 H 0.91795 0.62693 0.99528 0.0
H1020 H 0.94493 0.65952 0.02321 0.0
H1021 H 0.90361 0.65681 0.01492 0.0
H1022 H 0.97547 0.56995 0.93986 0.0
H1023 H 0.04365 0.64262 0.0113 0.0
H1024 H 0.94815 0.61437 0.88864 0.0
H1025 H 0.91946 0.60451 0.92841 0.0
H1026 H 0.93518 0.57652 0.90543 0.0
H1027 H 0.03536 0.70282 0.97556 0.0
H1028 H 0.03999 0.69167 0.022 0.0
H1029 H 1.00222 0.69576 0.01032 0.0
C1030 C 0.2219 0.31034 0.04233 0.0
C1031 C 0.20241 0.28773 0.06618 0.0
C1032 C 0.2115 0.33364 0.03332 0.0
C1033 C 0.18085 0.33412 0.04855 0.0
C1034 C 0.15992 0.3098 0.06985 0.0
C1035 C 0.17075 0.28666 0.0778 0.0
C1036 C 0.23495 0.35877 0.01032 0.0
C1037 C 0.12736 0.30958 0.0875 0.0
C1038 C 0.1757 0.41219 0.07489 0.0
C1039 C 0.14979 0.41077 0.05233 0.0
C1040 C 0.18658 0.3876 0.0732 0.0
C1041 C 0.17215 0.36154 0.04698 0.0
C1042 C 0.14679 0.36057 0.02301 0.0
C1043 C 0.13554 0.3849 0.02661 0.0
C1044 C 0.21257 0.38919 0.10075 0.0
C1045 C 0.13016 0.33375 0.99435 0.0
H1046 H 0.2463 0.31114 0.03301 0.0
H1047 H 0.1556 0.26949 0.0966 0.0
H1048 H 0.22345 0.37418 1.00093 0.0
H1049 H 0.25655 0.37268 0.0279 0.0
H1050 H 0.24457 0.34855 0.98461 0.0
H1051 H 0.11628 0.29122 0.10752 0.0
H1052 H 0.13055 0.33202 0.10357 0.0
H1053 H 0.10963 0.30573 0.06446 0.0
H1054 H 0.1868 0.43208 0.0949 0.0
H1055 H 0.1151 0.38325 0.00943 0.0
H1056 H 0.23641 0.39367 0.08484 0.0
H1057 H 0.20596 0.36715 0.11412 0.0
H1058 H 0.21619 0.40789 0.12409 0.0
H1059 H 0.13275 0.34205 0.96523 0.0
H1060 H 0.10333 0.32398 1.00139 0.0
H1061 H 0.14003 0.31515 0.99324 0.0
C1062 C 0.23205 0.68628 0.83444 0.0
C1063 C 0.26652 0.699 0.83724 0.0
C1064 C 0.21253 0.66127 0.85494 0.0
C1065 C 0.22754 0.64839 0.87948 0.0
C1066 C 0.26242 0.66053 0.88189 0.0
C1067 C 0.28156 0.6856 0.86056 0.0
C1068 C 0.17554 0.64918 0.85105 0.0
C1069 C 0.2794 0.64758 0.90778 0.0
C1070 C 0.16664 0.61094 0.9586 0.0
C1071 C 0.15382 0.58007 0.9442 0.0
C1072 C 0.19286 0.63285 0.9397 0.0
C1073 C 0.206 0.62399 0.90448 0.0
C1074 C 0.19408 0.59245 0.89059 0.0
C1075 C 0.16809 0.5708 0.91068 0.0
C1076 C 0.2046 0.66599 0.9559 0.0
C1077 C 0.20695 0.58196 0.85299 0.0
H1078 H 0.22002 0.69598 0.81611 0.0
H1079 H 0.30813 0.69509 0.86281 0.0
H1080 H 0.16603 0.62403 0.84332 0.0
H1081 H 0.16368 0.6532 0.87899 0.0
H1082 H 0.16788 0.66038 0.82889 0.0
H1083 H 0.30666 0.65775 0.90421 0.0
H1084 H 0.27257 0.65214 0.93824 0.0
H1085 H 0.27113 0.62228 0.90179 0.0
H1086 H 0.15468 0.61833 0.98353 0.0
H1087 H 0.15765 0.54708 0.89895 0.0
H1088 H 0.19687 0.67964 0.93713 0.0
H1089 H 0.2319 0.67588 0.95661 0.0
H1090 H 0.19445 0.66857 0.98543 0.0
H1091 H 0.19722 0.58942 0.82884 0.0
H1092 H 0.19936 0.55656 0.84928 0.0
H1093 H 0.23423 0.59258 0.85102 0.0
C1094 C 0.37403 0.16662 0.98938 0.0
C1095 C 0.38404 0.18314 0.95643 0.0
C1096 C 0.39466 0.15441 0.00573 0.0
C1097 C 0.42626 0.15881 0.9889 0.0
C1098 C 0.43725 0.17695 0.95707 0.0
C1099 C 0.41606 0.18872 0.94117 0.0
C1100 C 0.38185 0.13539 0.03976 0.0
C1101 C 0.47086 0.1826 0.93842 0.0
C1102 C 0.4895 0.13707 0.03827 0.0
C1103 C 0.48572 0.10852 0.01854 0.0
C1104 C 0.46984 0.15352 0.02981 0.0
C1105 C 0.44589 0.14115 1.00093 0.0
C1106 C 0.44133 0.1119 0.98197 0.0
C1107 C 0.46121 0.0961 0.99091 0.0
C1108 C 0.47525 0.18442 0.0511 0.0
C1109 C 0.41578 0.09742 0.95152 0.0
H1110 H 0.34973 0.16273 1.00214 0.0
H1111 H 0.4242 0.20122 0.91567 0.0
H1112 H 0.37572 0.11075 0.03013 0.0
H1113 H 0.40088 0.14162 0.06187 0.0
H1114 H 0.35937 0.13819 0.05327 0.0
H1115 H 0.47738 0.2002 0.9172 0.0
H1116 H 0.49002 0.19023 0.96054 0.0
H1117 H 0.47133 0.16087 0.92335 0.0
H1118 H 0.50824 0.14687 0.05973 0.0
H1119 H 0.45764 0.07391 0.97576 0.0
H1120 H 0.45158 0.1852 0.06347 0.0
H1121 H 0.48492 0.20262 0.03072 0.0
H1122 H 0.49292 0.18979 0.0747 0.0
H1123 H 0.39115 0.09606 0.96323 0.0
H1124 H 0.41426 0.07394 0.94071 0.0
H1125 H 0.42179 0.11189 0.92682 0.0
C1126 C 0.90954 0.35756 0.84866 0.0
C1127 C 0.87715 0.3449 0.86333 0.0
C1128 C 0.93495 0.37746 0.87175 0.0
C1129 C 0.92792 0.38486 0.91068 0.0
C1130 C 0.89514 0.37283 0.9256 0.0
C1131 C 0.86999 0.35296 0.90161 0.0
C1132 C 0.96954 0.3899 0.85461 0.0
C1133 C 0.88687 0.38031 0.96702 0.0
C1134 C 1.0038 0.40672 0.96952 0.0
C1135 C 1.01696 0.43877 0.9684 0.0
C1136 C 0.97341 0.38897 0.95334 0.0
C1137 C 0.95565 0.40363 0.93575 0.0
C1138 C 0.96758 0.43611 0.93706 0.0
C1139 C 0.99822 0.45335 0.95328 0.0
C1140 C 0.96153 0.35438 0.95259 0.0
C1141 C 0.94904 0.45258 0.91915 0.0
H1142 H 0.91523 0.35178 0.81895 0.0
H1143 H 0.84496 0.3433 0.91302 0.0
H1144 H 0.97972 0.41537 0.85854 0.0
H1145 H 0.9858 0.38159 0.86968 0.0
H1146 H 0.97056 0.38283 0.8234 0.0
H1147 H 0.85986 0.37162 0.97314 0.0
H1148 H 0.89827 0.36987 0.98623 0.0
H1149 H 0.89716 0.40552 0.97436 0.0
H1150 H 1.01783 0.39527 0.98174 0.0
H1151 H 1.00792 0.47816 0.95299 0.0
H1152 H 0.96389 0.34468 0.92277 0.0
H1153 H 0.93514 0.34462 0.96153 0.0
H1154 H 0.9759 0.34679 0.97166 0.0
H1155 H 0.95152 0.44963 0.88734 0.0
H1156 H 0.95856 0.47758 0.92819 0.0
H1157 H 0.92239 0.44265 0.92693 0.0
C1158 C 0.75724 0.83572 0.89119 0.0
C1159 C 0.75403 0.83027 0.85072 0.0
C1160 C 0.7408 0.85289 0.9149 0.0
C1161 C 0.72038 0.86612 0.89877 0.0
C1162 C 0.71751 0.86108 0.8579 0.0
C1163 C 0.73373 0.84344 0.835 0.0
C1164 C 0.74494 0.85642 0.95781 0.0
C1165 C 0.69694 0.87439 0.83796 0.0
C1166 C 0.65042 0.88538 0.95999 0.0
C1167 C 0.66403 0.91748 0.97036 0.0
C1168 C 0.66826 0.86884 0.938 0.0
C1169 C 0.70128 0.88403 0.92424 0.0
C1170 C 0.7153 0.91648 0.93456 0.0
C1171 C 0.69701 0.93245 0.95733 0.0
C1172 C 0.65139 0.83462 0.92941 0.0
C1173 C 0.74982 0.93467 0.9209 0.0
H1174 H 0.7723 0.82601 0.90473 0.0
H1175 H 0.73044 0.84004 0.80418 0.0
H1176 H 0.75519 0.88114 0.968 0.0
H1177 H 0.72055 0.84616 0.97251 0.0
H1178 H 0.76146 0.84525 0.96653 0.0
H1179 H 0.69829 0.87026 0.80614 0.0
H1180 H 0.67082 0.86407 0.8478 0.0
H1181 H 0.70526 0.89952 0.84567 0.0
H1182 H 0.6253 0.87276 0.96933 0.0
H1183 H 0.70853 0.95701 0.96427 0.0
H1184 H 0.66652 0.82257 0.93943 0.0
H1185 H 0.64895 0.82903 0.89788 0.0
H1186 H 0.62648 0.82553 0.94333 0.0
H1187 H 0.76734 0.92547 0.9316 0.0
H1188 H 0.75766 0.95947 0.93069 0.0
H1189 H 0.75143 0.93223 0.88899 0.0
C1190 C 0.95701 0.70816 0.12987 0.0
C1191 C 0.92948 0.70453 0.15423 0.0
C1192 C 0.97095 0.6857 0.12544 0.0
C1193 C 0.95703 0.65911 0.14603 0.0
C1194 C 0.93021 0.65602 0.17214 0.0
C1195 C 0.91658 0.67879 0.1758 0.0
C1196 C 0.99976 0.68983 0.0975 0.0
C1197 C 0.91521 0.62838 0.19524 0.0
C1198 C 0.97439 0.59366 0.09148 0.0
C1199 C 1.00487 0.59801 0.10637 0.0
C1200 C 0.95666 0.61177 0.10656 0.0
C1201 C 0.96961 0.63402 0.13766 0.0
C1202 C 0.99841 0.6358 0.15556 0.0
C1203 C 1.0161 0.61806 0.13922 0.0
C1204 C 0.92532 0.60852 0.08757 0.0
C1205 C 1.01204 0.65823 0.1899 0.0
H1206 H 0.96688 0.72803 0.11317 0.0
H1207 H 0.89562 0.67634 0.19529 0.0
H1208 H 0.99331 0.67026 0.07511 0.0
H1209 H 1.00717 0.71157 0.08321 0.0
H1210 H 1.02128 0.68991 0.11272 0.0
H1211 H 0.90054 0.63302 0.22052 0.0
H1212 H 0.89857 0.60892 0.17676 0.0
H1213 H 0.93447 0.6211 0.20543 0.0
H1214 H 0.96568 0.57787 0.06625 0.0
H1215 H 0.03945 0.62087 0.15114 0.0
H1216 H 0.92582 0.63124 0.08088 0.0
H1217 H 0.90408 0.59886 0.10767 0.0
H1218 H 0.92111 0.59316 0.06056 0.0
H1219 H 1.02492 0.68161 0.18015 0.0
H1220 H 1.02992 0.6521 0.20526 0.0
H1221 H 0.99193 0.6591 0.2104 0.0
C1222 C 0.3658 0.88525 0.21882 0.0
C1223 C 0.36018 0.85385 0.21667 0.0
C1224 C 0.39498 0.90618 0.2034 0.0
C1225 C 0.41841 0.89516 0.18432 0.0
C1226 C 0.41195 0.86319 0.18047 0.0
C1227 C 0.38318 0.84296 0.19746 0.0
C1228 C 0.40148 0.94014 0.20923 0.0
C1229 C 0.43577 0.85041 0.15925 0.0
C1230 C 0.48258 0.94619 0.11732 0.0
C1231 C 0.51117 0.95536 0.13885 0.0
C1232 C 0.45218 0.92672 0.13181 0.0
C1233 C 0.45012 0.91705 0.16929 0.0
C1234 C 0.47867 0.92734 0.19182 0.0
C1235 C 0.50907 0.9459 0.17598 0.0
C1236 C 0.42264 0.9154 0.10637 0.0
C1237 C 0.47719 0.9183 0.23237 0.0
H1238 H 0.34828 0.89364 0.23456 0.0
H1239 H 0.37881 0.81863 0.19619 0.0
H1240 H 0.42365 0.95186 0.22683 0.0
H1241 H 0.40667 0.95044 0.18119 0.0
H1242 H 0.38041 0.94488 0.2239 0.0
H1243 H 0.42565 0.82487 0.15589 0.0
H1244 H 0.44201 0.85918 0.1303 0.0
H1245 H 0.45903 0.85813 0.1751 0.0
H1246 H 0.48432 0.95301 0.08825 0.0
H1247 H 0.53121 0.95295 0.19253 0.0
H1248 H 0.40209 0.92108 0.1208 0.0
H1249 H 0.41384 0.89001 0.10121 0.0
H1250 H 0.4283 0.92548 0.07812 0.0
H1251 H 0.45734 0.92344 0.24944 0.0
H1252 H 0.50086 0.93044 0.24719 0.0
H1253 H 0.47121 0.8932 0.23189 0.0
C1254 C 0.72977 0.23874 0.16878 0.0
C1255 C 0.75327 0.2363 0.19223 0.0
C1256 C 0.70723 0.21247 0.14952 0.0
C1257 C 0.70733 0.18319 0.15566 0.0
C1258 C 0.73228 0.18088 0.1776 0.0
C1259 C 0.75543 0.20766 0.19508 0.0
C1260 C 0.6819 0.21588 0.12481 0.0
C1261 C 0.73259 0.15011 0.18598 0.0
C1262 C 0.62228 0.12094 0.15569 0.0
C1263 C 0.62323 0.10384 0.12092 0.0
C1264 C 0.65008 0.14613 0.16799 0.0
C1265 C 0.67882 0.1552 0.14388 0.0
C1266 C 0.67982 0.13792 0.10863 0.0
C1267 C 0.65218 0.11183 0.09807 0.0
C1268 C 0.64849 0.1633 0.2065 0.0
C1269 C 0.70956 0.14756 0.0816 0.0
H1270 H 0.72825 0.26103 0.16673 0.0
H1271 H 0.77336 0.20587 0.21381 0.0
H1272 H 0.6789 0.20076 0.09773 0.0
H1273 H 0.65768 0.20884 0.1404 0.0
H1274 H 0.68871 0.23998 0.11753 0.0
H1275 H 0.75595 0.15232 0.19905 0.0
H1276 H 0.71188 0.13924 0.20632 0.0
H1277 H 0.72897 0.13439 0.15943 0.0
H1278 H 0.59976 0.11454 0.17325 0.0
H1279 H 0.65262 0.0985 0.07104 0.0
H1280 H 0.64975 0.18675 0.20218 0.0
H1281 H 0.66987 0.1658 0.22386 0.0
H1282 H 0.62548 0.15153 0.22319 0.0
H1283 H 0.71577 0.1717 0.07494 0.0
H1284 H 0.70551 0.13271 0.05418 0.0
H1285 H 0.73123 0.14665 0.0955 0.0
C1286 C 0.69461 0.69299 0.83062 0.0
C1287 C 0.72595 0.69204 0.82145 0.0
C1288 C 0.67052 0.66988 0.85084 0.0
C1289 C 0.67726 0.64437 0.86103 0.0
C1290 C 0.70852 0.64279 0.85061 0.0
C1291 C 0.73263 0.66687 0.83175 0.0
C1292 C 0.63815 0.67332 0.8624 0.0
C1293 C 0.71656 0.61566 0.85947 0.0
C1294 C 0.62736 0.6 0.94498 0.0
C1295 C 0.60105 0.5766 0.92627 0.0
C1296 C 0.65232 0.62197 0.92422 0.0
C1297 C 0.65192 0.61992 0.88342 0.0
C1298 C 0.62631 0.59527 0.86431 0.0
C1299 C 0.60083 0.57445 0.88592 0.0
C1300 C 0.67817 0.64831 0.94617 0.0
C1301 C 0.62542 0.59125 0.82096 0.0
H1302 H 0.68935 0.71253 0.82333 0.0
H1303 H 0.75673 0.66589 0.82477 0.0
H1304 H 0.61744 0.65355 0.84953 0.0
H1305 H 0.63443 0.67335 0.89413 0.0
H1306 H 0.63697 0.69483 0.85327 0.0
H1307 H 0.74079 0.61656 0.84674 0.0
H1308 H 0.71704 0.61497 0.89106 0.0
H1309 H 0.69718 0.59393 0.84833 0.0
H1310 H 0.62742 0.60225 0.97616 0.0
H1311 H 0.58051 0.55657 0.87124 0.0
H1312 H 0.6765 0.67035 0.93995 0.0
H1313 H 0.70317 0.64922 0.93676 0.0
H1314 H 0.67536 0.64648 0.97777 0.0
H1315 H 0.61998 0.61014 0.81002 0.0
H1316 H 0.60642 0.56902 0.81043 0.0
H1317 H 0.64982 0.59242 0.80857 0.0
C1318 C 0.47856 0.73517 0.8858 0.0
C1319 C 0.46874 0.71633 0.85153 0.0
C1320 C 0.49083 0.72532 0.91603 0.0
C1321 C 0.49357 0.69617 0.91145 0.0
C1322 C 0.48561 0.67797 0.87601 0.0
C1323 C 0.47323 0.68826 0.8466 0.0
C1324 C 0.49986 0.74562 0.95304 0.0
C1325 C 0.48801 0.64658 0.8699 0.0
C1326 C 0.5368 0.65877 0.96602 0.0
C1327 C 0.5092 0.63563 0.98076 0.0
C1328 C 0.53295 0.68229 0.9475 0.0
C1329 C 0.50091 0.68237 0.94429 0.0
C1330 C 0.47409 0.66209 0.96498 0.0
C1331 C 0.47851 0.63857 0.98264 0.0
C1332 C 0.56231 0.7042 0.92689 0.0
C1333 C 0.43975 0.6623 0.9638 0.0
H1334 H 0.47567 0.75719 0.8894 0.0
H1335 H 0.46524 0.67338 0.82051 0.0
H1336 H 0.4887 0.7324 0.97829 0.0
H1337 H 0.52698 0.75453 0.95598 0.0
H1338 H 0.4919 0.76551 0.95389 0.0
H1339 H 0.48281 0.63632 0.83986 0.0
H1340 H 0.51299 0.64805 0.87675 0.0
H1341 H 0.47009 0.63077 0.88944 0.0
H1342 H 0.56072 0.65675 0.96529 0.0
H1343 H 0.45741 0.6211 0.99526 0.0
H1344 H 0.56105 0.72738 0.92824 0.0
H1345 H 0.56243 0.69569 0.89612 0.0
H1346 H 0.58584 0.70607 0.93926 0.0
H1347 H 0.44027 0.68615 0.96599 0.0
H1348 H 0.42359 0.64987 0.98739 0.0
H1349 H 0.42871 0.65081 0.93595 0.0
C1350 C 0.40981 0.34687 0.81626 0.0
C1351 C 0.37641 0.34236 0.81657 0.0
C1352 C 0.43158 0.37142 0.83911 0.0
C1353 C 0.4192 0.39134 0.86249 0.0
C1354 C 0.38589 0.38807 0.86023 0.0
C1355 C 0.36483 0.36345 0.83729 0.0
C1356 C 0.46704 0.3744 0.84076 0.0
C1357 C 0.37168 0.4087 0.88478 0.0
C1358 C 0.45502 0.42058 0.96055 0.0
C1359 C 0.47451 0.45124 0.95515 0.0
C1360 C 0.43748 0.40077 0.93028 0.0
C1361 C 0.43913 0.41206 0.89383 0.0
C1362 C 0.45823 0.44314 0.88826 0.0
C1363 C 0.47571 0.46249 0.91913 0.0
C1364 C 0.41723 0.36771 0.93738 0.0
C1365 C 0.4604 0.4558 0.8497 0.0
H1366 H 0.4184 0.3302 0.80028 0.0
H1367 H 0.33877 0.35957 0.83731 0.0
H1368 H 0.48384 0.3988 0.84048 0.0
H1369 H 0.47077 0.36598 0.86801 0.0
H1370 H 0.47404 0.36082 0.81637 0.0
H1371 H 0.34675 0.40579 0.87564 0.0
H1372 H 0.36975 0.40315 0.91521 0.0
H1373 H 0.38802 0.43317 0.88367 0.0
H1374 H 0.45393 0.41189 0.98843 0.0
H1375 H 0.4909 0.48618 0.91477 0.0
H1376 H 0.42549 0.35204 0.9173 0.0
H1377 H 0.39093 0.36252 0.93184 0.0
H1378 H 0.41912 0.36255 0.9673 0.0
H1379 H 0.46966 0.44234 0.82731 0.0
H1380 H 0.47691 0.48037 0.84995 0.0
H1381 H 0.43553 0.45352 0.84123 0.0
C1382 C 0.59443 0.27685 0.87299 0.0
C1383 C 0.61708 0.27681 0.89968 0.0
C1384 C 0.57106 0.29 0.88411 0.0
C1385 C 0.57034 0.30213 0.92258 0.0
C1386 C 0.58613 0.29358 0.95092 0.0
C1387 C 0.61001 0.28111 0.93907 0.0
C1388 C 0.55224 0.2964 0.85349 0.0
C1389 C 0.58206 0.30263 0.99292 0.0
C1390 C 0.58606 0.38715 0.9345 0.0
C1391 C 0.55508 0.3871 0.9465 0.0
C1392 C 0.59108 0.3595 0.92634 0.0
C1393 C 0.56426 0.33108 0.93004 0.0
C1394 C 0.53263 0.33087 0.94099 0.0
C1395 C 0.5284 0.35892 0.94896 0.0
C1396 C 0.62561 0.361 0.91563 0.0
C1397 C 0.5035 0.30149 0.94661 0.0
H1398 H 0.59866 0.27212 0.84253 0.0
H1399 H 0.62638 0.27945 0.96006 0.0
H1400 H 0.52767 0.2956 0.8647 0.0
H1401 H 0.56618 0.31978 0.8442 0.0
H1402 H 0.549 0.27964 0.8279 0.0
H1403 H 0.5901 0.28903 0.01147 0.0
H1404 H 0.597 0.32737 0.99911 0.0
H1405 H 0.55596 0.29926 1.00022 0.0
H1406 H 0.60667 0.40882 0.93274 0.0
H1407 H 0.50423 0.35858 0.95856 0.0
H1408 H 0.62564 0.34545 0.88965 0.0
H1409 H 0.6354 0.35358 0.93974 0.0
H1410 H 0.64264 0.38459 0.90998 0.0
H1411 H 0.50596 0.28126 0.92954 0.0
H1412 H 0.48026 0.30369 0.93893 0.0
H1413 H 0.50124 0.29704 0.97748 0.0
C1414 C 0.68491 0.35269 0.10989 0.0
C1415 C 0.69427 0.37575 0.14029 0.0
C1416 C 0.66639 0.35488 0.07972 0.0
C1417 C 0.65641 0.38029 0.08084 0.0
C1418 C 0.66832 0.40483 0.10988 0.0
C1419 C 0.68733 0.40228 0.13898 0.0
C1420 C 0.6564 0.3292 0.04818 0.0
C1421 C 0.65965 0.43322 0.11172 0.0
C1422 C 0.62186 0.41745 0.01823 0.0
C1423 C 0.59229 0.41322 0.03908 0.0
C1424 C 0.64107 0.40062 0.02522 0.0
C1425 C 0.63094 0.38074 0.05513 0.0
C1426 C 0.59803 0.37169 0.0698 0.0
C1427 C 0.57882 0.38835 0.06162 0.0
C1428 C 0.67473 0.40859 0.00611 0.0
C1429 C 0.58541 0.34854 0.09949 0.0
H1430 H 0.69061 0.33222 0.11056 0.0
H1431 H 0.69568 0.4206 0.16176 0.0
H1432 H 0.63379 0.31051 0.05768 0.0
H1433 H 0.65152 0.33693 0.02105 0.0
H1434 H 0.67588 0.31939 0.04232 0.0
H1435 H 0.67139 0.45011 0.13603 0.0
H1436 H 0.66772 0.44479 0.08469 0.0
H1437 H 0.63258 0.42674 0.11519 0.0
H1438 H 0.63179 0.43629 0.99986 0.0
H1439 H 0.55555 0.38474 0.07705 0.0
H1440 H 0.68272 0.38869 1.00376 0.0
H1441 H 0.69286 0.42774 0.02357 0.0
H1442 H 0.67495 0.41618 0.97694 0.0
H1443 H 0.59358 0.32898 0.09197 0.0
H1444 H 0.55808 0.33962 0.10217 0.0
H1445 H 0.59553 0.35961 0.12789 0.0
C1446 C 0.70359 0.67991 0.22642 0.0
C1447 C 0.73746 0.6915 0.21737 0.0
C1448 C 0.68154 0.6567 0.20233 0.0
C1449 C 0.69374 0.64457 0.16872 0.0
C1450 C 0.72814 0.65413 0.16145 0.0
C1451 C 0.74961 0.67764 0.18576 0.0
C1452 C 0.645 0.64714 0.21108 0.0
C1453 C 0.74216 0.64128 0.12638 0.0
C1454 C 0.6312 0.57702 0.11197 0.0
C1455 C 0.62159 0.59217 0.08511 0.0
C1456 C 0.65564 0.59356 0.13861 0.0
C1457 C 0.67051 0.62592 0.13846 0.0
C1458 C 0.66183 0.64111 0.11039 0.0
C1459 C 0.63766 0.62405 0.08399 0.0
C1460 C 0.6647 0.57656 0.1677 0.0
C1461 C 0.67713 0.67561 0.10915 0.0
H1462 H 0.69399 0.69038 0.25087 0.0
H1463 H 0.77583 0.68613 0.17891 0.0
H1464 H 0.63388 0.65644 0.19012 0.0
H1465 H 0.63276 0.62176 0.2081 0.0
H1466 H 0.6397 0.65572 0.24055 0.0
H1467 H 0.76904 0.64688 0.1285 0.0
H1468 H 0.72953 0.61596 0.12216 0.0
H1469 H 0.73811 0.65113 0.10045 0.0
H1470 H 0.61903 0.55236 0.11288 0.0
H1471 H 0.63067 0.63596 0.06313 0.0
H1472 H 0.65547 0.58203 0.19671 0.0
H1473 H 0.69187 0.58401 0.16902 0.0
H1474 H 0.65406 0.55126 0.16096 0.0
H1475 H 0.671 0.68696 0.1363 0.0
H1476 H 0.66844 0.68371 0.08468 0.0
H1477 H 0.70436 0.6832 0.10669 0.0
C1478 C 0.44333 0.73849 0.18088 0.0
C1479 C 0.45079 0.74125 0.21986 0.0
C1480 C 0.45844 0.72411 0.15312 0.0
C1481 C 0.48128 0.7122 0.1649 0.0
C1482 C 0.49101 0.71737 0.20365 0.0
C1483 C 0.47557 0.73188 0.23075 0.0
C1484 C 0.44784 0.71936 0.11191 0.0
C1485 C 0.51557 0.70521 0.21715 0.0
C1486 C 0.48167 0.63699 0.11702 0.0
C1487 C 0.51205 0.64647 0.09706 0.0
C1488 C 0.47091 0.65842 0.13823 0.0
C1489 C 0.49079 0.69007 0.1387 0.0
C1490 C 0.52057 0.69992 0.11669 0.0
C1491 C 0.53112 0.67786 0.09642 0.0
C1492 C 0.43897 0.64703 0.16149 0.0
C1493 C 0.54176 0.73356 0.11558 0.0
H1494 H 0.42407 0.74567 0.17238 0.0
H1495 H 0.48172 0.73455 0.26082 0.0
H1496 H 0.46927 0.723 0.09163 0.0
H1497 H 0.43043 0.69535 0.10597 0.0
H1498 H 0.4353 0.73505 0.10605 0.0
H1499 H 0.52333 0.71431 0.247 0.0
H1500 H 0.50436 0.67976 0.21626 0.0
H1501 H 0.53778 0.71125 0.19784 0.0
H1502 H 0.46689 0.61269 0.11735 0.0
H1503 H 0.55437 0.68517 0.0803 0.0
H1504 H 0.42231 0.65839 0.15393 0.0
H1505 H 0.44402 0.65302 0.19259 0.0
H1506 H 0.42593 0.62175 0.1568 0.0
H1507 H 0.52649 0.74709 0.1109 0.0
H1508 H 0.56128 0.73755 0.09258 0.0
H1509 H 0.55376 0.74243 0.14363 0.0
C1510 C 0.36831 0.38522 0.23187 0.0
C1511 C 0.35419 0.3549 0.2153 0.0
C1512 C 0.39228 0.40844 0.21178 0.0
C1513 C 0.40332 0.40123 0.17439 0.0
C1514 C 0.38844 0.37084 0.15704 0.0
C1515 C 0.36383 0.34821 0.17746 0.0
C1516 C 0.4066 0.44053 0.23121 0.0
C1517 C 0.39971 0.3618 0.11762 0.0
C1518 C 0.45606 0.46483 0.11022 0.0
C1519 C 0.48822 0.46717 0.11743 0.0
C1520 C 0.42825 0.44405 0.129 0.0
C1521 C 0.43244 0.42458 0.15514 0.0
C1522 C 0.46483 0.42726 0.16297 0.0
C1523 C 0.49208 0.44857 0.1445 0.0
C1524 C 0.39432 0.44255 0.12035 0.0
C1525 C 0.47076 0.40689 0.19013 0.0
H1526 H 0.36089 0.39078 0.26095 0.0
H1527 H 0.35327 0.32489 0.16442 0.0
H1528 H 0.43261 0.44581 0.23833 0.0
H1529 H 0.40654 0.45763 0.21153 0.0
H1530 H 0.39278 0.44336 0.25816 0.0
H1531 H 0.38431 0.33798 0.10698 0.0
H1532 H 0.39906 0.37777 0.09666 0.0
H1533 H 0.42564 0.36347 0.11863 0.0
H1534 H 0.45254 0.47881 0.08931 0.0
H1535 H 0.51658 0.44977 0.15037 0.0
H1536 H 0.38067 0.44511 0.14751 0.0
H1537 H 0.38014 0.41977 0.10574 0.0
H1538 H 0.3952 0.46063 0.10166 0.0
H1539 H 0.46018 0.41031 0.21911 0.0
H1540 H 0.49738 0.41151 0.19288 0.0
H1541 H 0.45818 0.3824 0.17977 0.0
C1542 C 0.853 0.69237 0.71534 0.0
C1543 C 0.84106 0.71324 0.70076 0.0
C1544 C 0.86892 0.67487 0.69159 0.0
C1545 C 0.87487 0.67823 0.65125 0.0
C1546 C 0.86306 0.69942 0.63631 0.0
C1547 C 0.8462 0.71593 0.66058 0.0
C1548 C 0.87952 0.65254 0.71008 0.0
C1549 C 0.86907 0.70541 0.59441 0.0
C1550 C 0.94757 0.65573 0.60233 0.0
C1551 C 0.93221 0.6271 0.58093 0.0
C1552 C 0.92965 0.67255 0.62355 0.0
C1553 C 0.89447 0.6608 0.62567 0.0
C1554 C 0.87865 0.63189 0.60405 0.0
C1555 C 0.8973 0.61591 0.58194 0.0
C1556 C 0.94881 0.70323 0.64417 0.0
C1557 C 0.84161 0.61713 0.60526 0.0
H1558 H 0.84967 0.6894 0.74588 0.0
H1559 H 0.8379 0.73186 0.64803 0.0
H1560 H 0.8701 0.62964 0.69378 0.0
H1561 H 0.90679 0.66053 0.70929 0.0
H1562 H 0.87061 0.64998 0.7405 0.0
H1563 H 0.85903 0.72248 0.58664 0.0
H1564 H 0.89595 0.71402 0.58758 0.0
H1565 H 0.85764 0.68371 0.57616 0.0
H1566 H 0.97425 0.66527 0.6026 0.0
H1567 H 0.88433 0.59387 0.56661 0.0
H1568 H 0.94516 0.70172 0.67571 0.0
H1569 H 0.93962 0.72092 0.63654 0.0
H1570 H 0.97563 0.71097 0.63709 0.0
H1571 H 0.83265 0.6131 0.63542 0.0
H1572 H 0.83251 0.59489 0.58741 0.0
H1573 H 0.83077 0.63275 0.59494 0.0
C1574 C 0.3514 0.85847 0.67794 0.0
C1575 C 0.36547 0.83859 0.68986 0.0
C1576 C 0.37069 0.88528 0.66019 0.0
C1577 C 0.40523 0.89317 0.6555 0.0
C1578 C 0.41939 0.87256 0.66625 0.0
C1579 C 0.39926 0.84531 0.68279 0.0
C1580 C 0.35424 0.9059 0.64809 0.0
C1581 C 0.4561 0.88025 0.6627 0.0
C1582 C 0.45455 0.95864 0.59287 0.0
C1583 C 0.46363 0.98419 0.6201 0.0
C1584 C 0.43577 0.92884 0.6038 0.0
C1585 C 0.42665 0.92428 0.6431 0.0
C1586 C 0.43687 0.94993 0.67078 0.0
C1587 C 0.45469 0.97951 0.65889 0.0
C1588 C 0.42463 0.90248 0.57313 0.0
C1589 C 0.42847 0.94623 0.71305 0.0
H1590 H 0.32528 0.85339 0.68335 0.0
H1591 H 0.41037 0.83028 0.69251 0.0
H1592 H 0.36126 0.92726 0.66763 0.0
H1593 H 0.3626 0.91267 0.61854 0.0
H1594 H 0.32694 0.89466 0.64888 0.0
H1595 H 0.46295 0.86073 0.66897 0.0
H1596 H 0.46543 0.88687 0.63336 0.0
H1597 H 0.46874 0.90025 0.68318 0.0
H1598 H 0.46097 0.96214 0.56275 0.0
H1599 H 0.46171 0.99911 0.68009 0.0
H1600 H 0.39733 0.89315 0.57216 0.0
H1601 H 0.43214 0.88356 0.58007 0.0
H1602 H 0.43485 0.90952 0.54413 0.0
H1603 H 0.4014 0.93857 0.71796 0.0
H1604 H 0.44035 0.96796 0.73119 0.0
H1605 H 0.43634 0.9283 0.72268 0.0
C1606 C 0.21705 0.38891 0.59701 0.0
C1607 C 0.20727 0.37134 0.62899 0.0
C1608 C 0.19729 0.40327 0.5835 0.0
C1609 C 0.16642 0.39978 0.60194 0.0
C1610 C 0.15597 0.38158 0.63375 0.0
C1611 C 0.17646 0.36767 0.6469 0.0
C1612 C 0.21078 0.42337 0.55058 0.0
C1613 C 0.12373 0.37782 0.65492 0.0
C1614 C 0.1382 0.46549 0.58912 0.0
C1615 C 0.11522 0.45307 0.55982 0.0
C1616 C 0.15367 0.44792 0.6043 0.0
C1617 C 0.14647 0.41707 0.58961 0.0
C1618 C 0.12242 0.40396 0.5609 0.0
C1619 C 0.10678 0.42203 0.54664 0.0
C1620 C 0.17891 0.46294 0.63492 0.0
C1621 C 0.11401 0.37119 0.54432 0.0
H1622 H 0.24044 0.39169 0.58235 0.0
H1623 H 0.16867 0.35463 0.67199 0.0
H1624 H 0.19132 0.42689 0.53509 0.0
H1625 H 0.22794 0.44621 0.5621 0.0
H1626 H 0.2251 0.41346 0.52973 0.0
H1627 H 0.11833 0.36179 0.67794 0.0
H1628 H 0.12446 0.4005 0.66811 0.0
H1629 H 0.1032 0.36911 0.63455 0.0
H1630 H 0.14475 0.4894 0.59972 0.0
H1631 H 0.08922 0.4123 0.52388 0.0
H1632 H 0.20383 0.46597 0.62262 0.0
H1633 H 0.17421 0.44811 0.65912 0.0
H1634 H 0.17893 0.48581 0.64645 0.0
H1635 H 0.13678 0.36661 0.53622 0.0
H1636 H 0.09852 0.36578 0.5186 0.0
H1637 H 0.1004 0.35534 0.56639 0.0
C1638 C 0.72884 0.19716 0.71313 0.0
C1639 C 0.73795 0.2287 0.70956 0.0
C1640 C 0.70409 0.17533 0.69075 0.0
C1641 C 0.68833 0.18518 0.66356 0.0
C1642 C 0.69731 0.217 0.65975 0.0
C1643 C 0.72187 0.23849 0.68316 0.0
C1644 C 0.69496 0.14164 0.69616 0.0
C1645 C 0.68129 0.22825 0.63064 0.0
C1646 C 0.65042 0.12202 0.58559 0.0
C1647 C 0.61776 0.10909 0.59942 0.0
C1648 C 0.67313 0.14829 0.60469 0.0
C1649 C 0.66309 0.16171 0.63876 0.0
C1650 C 0.62971 0.1498 0.65168 0.0
C1651 C 0.60737 0.12369 0.6317 0.0
C1652 C 0.70833 0.1606 0.58952 0.0
C1653 C 0.61804 0.16347 0.6879 0.0
H1654 H 0.74081 0.18942 0.7339 0.0
H1655 H 0.72887 0.26286 0.68036 0.0
H1656 H 0.66821 0.13089 0.70309 0.0
H1657 H 0.70002 0.12955 0.66906 0.0
H1658 H 0.70881 0.1379 0.71952 0.0
H1659 H 0.69064 0.25374 0.63168 0.0
H1660 H 0.68594 0.21918 0.60123 0.0
H1661 H 0.6542 0.21951 0.63577 0.0
H1662 H 0.65848 0.11126 0.56017 0.0
H1663 H 0.58207 0.11401 0.64232 0.0
H1664 H 0.72432 0.1553 0.60887 0.0
H1665 H 0.71741 0.18595 0.58903 0.0
H1666 H 0.71106 0.1504 0.56005 0.0
H1667 H 0.62843 0.1582 0.71326 0.0
H1668 H 0.59074 0.15422 0.69127 0.0
H1669 H 0.62686 0.18884 0.68798 0.0
C1670 C 0.82444 0.36168 0.40642 0.0
C1671 C 0.83839 0.34118 0.38858 0.0
C1672 C 0.84308 0.387 0.43035 0.0
C1673 C 0.87612 0.39137 0.43682 0.0
C1674 C 0.88805 0.36768 0.42482 0.0
C1675 C 0.86907 0.34276 0.40013 0.0
C1676 C 0.82885 0.41099 0.44438 0.0
C1677 C 0.92213 0.37038 0.43464 0.0
C1678 C 0.93688 0.47181 0.42445 0.0
C1679 C 0.93997 0.48491 0.46225 0.0
C1680 C 0.91618 0.44123 0.41602 0.0
C1681 C 0.89963 0.42298 0.44656 0.0
C1682 C 0.90351 0.4361 0.48504 0.0
C1683 C 0.92295 0.46729 0.49221 0.0
C1684 C 0.91162 0.42874 0.37432 0.0
C1685 C 0.88767 0.41785 0.51899 0.0
H1686 H 0.80008 0.35967 0.39858 0.0
H1687 H 0.87955 0.32641 0.38715 0.0
H1688 H 0.8329 0.41725 0.4756 0.0
H1689 H 0.84155 0.4321 0.42918 0.0
H1690 H 0.80201 0.40295 0.43937 0.0
H1691 H 0.92454 0.34758 0.43192 0.0
H1692 H 0.94053 0.38532 0.41471 0.0
H1693 H 0.92804 0.38103 0.46441 0.0
H1694 H 0.95037 0.48568 0.40144 0.0
H1695 H 0.92539 0.47768 0.52133 0.0
H1696 H 0.88502 0.41885 0.36776 0.0
H1697 H 0.9214 0.41008 0.36868 0.0
H1698 H 0.92441 0.44668 0.35422 0.0
H1699 H 0.86978 0.42715 0.53383 0.0
H1700 H 0.9068 0.42076 0.54008 0.0
H1701 H 0.87487 0.39294 0.51109 0.0
C1702 C 0.66443 0.86553 0.43858 0.0
C1703 C 0.69666 0.87176 0.42423 0.0
C1704 C 0.65225 0.88913 0.44609 0.0
C1705 C 0.67274 0.9195 0.43856 0.0
C1706 C 0.7056 0.92612 0.42517 0.0
C1707 C 0.71736 0.90216 0.41875 0.0
C1708 C 0.61689 0.88113 0.46004 0.0
C1709 C 0.72774 0.95811 0.41577 0.0
C1710 C 0.6219 0.96682 0.42491 0.0
C1711 C 0.62469 0.98346 0.4609 0.0
C1712 C 0.63981 0.94774 0.4159 0.0
C1713 C 0.6594 0.94416 0.44435 0.0
C1714 C 0.66348 0.96206 0.4799 0.0
C1715 C 0.64698 0.98236 0.48716 0.0
C1716 C 0.6366 0.93045 0.37666 0.0
C1717 C 0.68237 0.95752 0.5118 0.0
H1718 H 0.64818 0.84201 0.44223 0.0
H1719 H 0.74247 0.90706 0.40811 0.0
H1720 H 0.61424 0.89923 0.48133 0.0
H1721 H 0.60135 0.87925 0.43534 0.0
H1722 H 0.60718 0.85876 0.47312 0.0
H1723 H 0.75288 0.95942 0.40613 0.0
H1724 H 0.71679 0.96548 0.39261 0.0
H1725 H 0.72984 0.97473 0.4412 0.0
H1726 H 0.60545 0.96838 0.40397 0.0
H1727 H 0.65025 0.99607 0.51437 0.0
H1728 H 0.62002 0.90617 0.37883 0.0
H1729 H 0.66091 0.93054 0.36535 0.0
H1730 H 0.6262 0.94044 0.35569 0.0
H1731 H 0.68616 0.97545 0.53614 0.0
H1732 H 0.70665 0.95716 0.50125 0.0
H1733 H 0.66793 0.93486 0.52263 0.0
C1734 C 0.19154 0.71705 0.32632 0.0
C1735 C 0.20997 0.74018 0.35325 0.0
C1736 C 0.16736 0.68989 0.33811 0.0
C1737 C 0.1617 0.68577 0.37789 0.0
C1738 C 0.17882 0.71007 0.40525 0.0
C1739 C 0.20298 0.73709 0.39253 0.0
C1740 C 0.14968 0.66479 0.3079 0.0
C1741 C 0.17339 0.70666 0.4479 0.0
C1742 C 0.08879 0.61745 0.41174 0.0
C1743 C 0.10363 0.59606 0.41537 0.0
C1744 C 0.10718 0.64663 0.39904 0.0
C1745 C 0.14131 0.65481 0.39055 0.0
C1746 C 0.15631 0.63322 0.39385 0.0
C1747 C 0.13726 0.60407 0.40584 0.0
C1748 C 0.09021 0.66881 0.39509 0.0
C1749 C 0.19272 0.64112 0.38551 0.0
H1750 H 0.19726 0.71956 0.29588 0.0
H1751 H 0.21756 0.755 0.4132 0.0
H1752 H 0.15897 0.6458 0.30743 0.0
H1753 H 0.12285 0.65512 0.31478 0.0
H1754 H 0.15351 0.67315 0.27866 0.0
H1755 H 0.18506 0.72889 0.46518 0.0
H1756 H 0.14668 0.69723 0.45548 0.0
H1757 H 0.18409 0.69019 0.45606 0.0
H1758 H 0.06283 0.61146 0.41909 0.0
H1759 H 0.14909 0.58794 0.40912 0.0
H1760 H 0.09378 0.67599 0.3653 0.0
H1761 H 0.10135 0.68986 0.41457 0.0
H1762 H 0.06336 0.65869 0.40194 0.0
H1763 H 0.19891 0.64723 0.35537 0.0
H1764 H 0.20066 0.62185 0.38986 0.0
H1765 H 0.20715 0.66145 0.40452 0.0
C1766 C 0.44488 0.27508 0.47338 0.0
C1767 C 0.41312 0.27415 0.48372 0.0
C1768 C 0.45656 0.25411 0.48684 0.0
C1769 C 0.43592 0.23206 0.51131 0.0
C1770 C 0.4051 0.23309 0.52478 0.0
C1771 C 0.39425 0.25448 0.51107 0.0
C1772 C 0.48924 0.25329 0.47129 0.0
C1773 C 0.38156 0.20979 0.5501 0.0
C1774 C 0.43829 0.15244 0.49899 0.0
C1775 C 0.4598 0.15401 0.5277 0.0
C1776 C 0.43068 0.17797 0.49321 0.0
C1777 C 0.44423 0.2053 0.51756 0.0
C1778 C 0.46555 0.20681 0.54713 0.0
C1779 C 0.47338 0.18114 0.55156 0.0
C1780 C 0.40838 0.17572 0.46078 0.0
C1781 C 0.48083 0.2354 0.57373 0.0
H1782 H 0.45936 0.29018 0.45196 0.0
H1783 H 0.36977 0.25405 0.51931 0.0
H1784 H 0.48508 0.23154 0.45307 0.0
H1785 H 0.50284 0.27286 0.45375 0.0
H1786 H 0.50494 0.25382 0.49522 0.0
H1787 H 0.35998 0.19474 0.53313 0.0
H1788 H 0.3927 0.19507 0.56197 0.0
H1789 H 0.37198 0.22167 0.57417 0.0
H1790 H 0.42789 0.13142 0.48054 0.0
H1791 H 0.48984 0.18222 0.57408 0.0
H1792 H 0.41986 0.19534 0.44272 0.0
H1793 H 0.38474 0.1768 0.47283 0.0
H1794 H 0.40289 0.154 0.44208 0.0
H1795 H 0.50592 0.24869 0.56256 0.0
H1796 H 0.48359 0.22928 0.60289 0.0
H1797 H 0.46633 0.25047 0.57634 0.0
C1798 C 0.69551 0.87757 0.62169 0.0
C1799 C 0.6784 0.85656 0.64856 0.0
C1800 C 0.68259 0.89822 0.60923 0.0
C1801 C 0.6514 0.89791 0.62371 0.0
C1802 C 0.63416 0.87693 0.65135 0.0
C1803 C 0.64767 0.85635 0.66312 0.0
C1804 C 0.70253 0.91967 0.57983 0.0
C1805 C 0.60173 0.87668 0.66917 0.0
C1806 C 0.63466 0.97108 0.61464 0.0
C1807 C 0.6128 0.96251 0.58405 0.0
C1808 C 0.64655 0.95013 0.62843 0.0
C1809 C 0.63717 0.91983 0.61068 0.0
C1810 C 0.61476 0.91085 0.58008 0.0
C1811 C 0.60267 0.93218 0.56728 0.0
C1812 C 0.66957 0.96059 0.66178 0.0
C1813 C 0.60453 0.87901 0.55992 0.0
H1814 H 0.71902 0.87761 0.60982 0.0
H1815 H 0.63445 0.84045 0.6843 0.0
H1816 H 0.69874 0.94177 0.58292 0.0
H1817 H 0.7293 0.92469 0.58201 0.0
H1818 H 0.69514 0.90828 0.55072 0.0
H1819 H 0.5917 0.85944 0.69078 0.0
H1820 H 0.60497 0.89974 0.68338 0.0
H1821 H 0.58329 0.87157 0.64657 0.0
H1822 H 0.64247 0.99434 0.62809 0.0
H1823 H 0.58608 0.92538 0.54341 0.0
H1824 H 0.69428 0.96087 0.6519 0.0
H1825 H 0.66044 0.94426 0.6845 0.0
H1826 H 0.67227 0.98394 0.6746 0.0
H1827 H 0.62616 0.87643 0.54378 0.0
H1828 H 0.58434 0.87436 0.53967 0.0
H1829 H 0.59621 0.86132 0.58099 0.0
C1830 C 0.72941 0.20718 0.36578 0.0
C1831 C 0.7274 0.23528 0.35827 0.0
C1832 C 0.70519 0.18613 0.38864 0.0
C1833 C 0.67767 0.1928 0.40453 0.0
C1834 C 0.67572 0.22131 0.39754 0.0
C1835 C 0.70046 0.24209 0.37482 0.0
C1836 C 0.70884 0.15636 0.39526 0.0
C1837 C 0.64697 0.22959 0.41335 0.0
C1838 C 0.6006 0.12181 0.42483 0.0
C1839 C 0.60154 0.11999 0.46464 0.0
C1840 C 0.62404 0.14605 0.40555 0.0
C1841 C 0.65008 0.16908 0.42611 0.0
C1842 C 0.6505 0.168 0.46668 0.0
C1843 C 0.62622 0.14367 0.4854 0.0
C1844 C 0.62182 0.14607 0.36261 0.0
C1845 C 0.67773 0.19154 0.49009 0.0
H1846 H 0.74997 0.20144 0.35358 0.0
H1847 H 0.69831 0.26354 0.36947 0.0
H1848 H 0.70732 0.15339 0.42653 0.0
H1849 H 0.68835 0.13674 0.38166 0.0
H1850 H 0.73254 0.15531 0.38323 0.0
H1851 H 0.64965 0.25312 0.40714 0.0
H1852 H 0.62383 0.21296 0.40062 0.0
H1853 H 0.64438 0.22803 0.44494 0.0
H1854 H 0.58213 0.10336 0.40833 0.0
H1855 H 0.62788 0.1421 0.51589 0.0
H1856 H 0.64289 0.14148 0.34781 0.0
H1857 H 0.62335 0.16893 0.35509 0.0
H1858 H 0.59859 0.1284 0.35134 0.0
H1859 H 0.70139 0.18866 0.4819 0.0
H1860 H 0.67314 0.18933 0.52151 0.0
H1861 H 0.68064 0.2151 0.48395 0.0
C1862 C 0.84134 0.7178 0.36687 0.0
C1863 C 0.84725 0.72422 0.32736 0.0
C1864 C 0.85777 0.70176 0.38668 0.0
C1865 C 0.88175 0.69041 0.36795 0.0
C1866 C 0.88774 0.69668 0.32802 0.0
C1867 C 0.87119 0.71306 0.30899 0.0
C1868 C 0.84924 0.69697 0.42858 0.0
C1869 C 0.91198 0.68577 0.30469 0.0
C1870 C 0.94567 0.6688 0.42828 0.0
C1871 C 0.93193 0.63621 0.42999 0.0
C1872 C 0.93027 0.68613 0.40897 0.0
C1873 C 0.89944 0.67179 0.38942 0.0
C1874 C 0.88566 0.63899 0.39103 0.0
C1875 C 0.90141 0.62232 0.41059 0.0
C1876 C 0.94739 0.72047 0.40964 0.0
C1877 C 0.85358 0.62094 0.3716 0.0
H1878 H 0.82358 0.72561 0.38297 0.0
H1879 H 0.87713 0.71698 0.27892 0.0
H1880 H 0.83874 0.67201 0.43254 0.0
H1881 H 0.87191 0.70715 0.44565 0.0
H1882 H 0.83123 0.70736 0.44019 0.0
H1883 H 0.91467 0.69197 0.27445 0.0
H1884 H 0.93646 0.69589 0.31807 0.0
H1885 H 0.90387 0.66043 0.30459 0.0
H1886 H 0.96885 0.68117 0.44228 0.0
H1887 H 0.88935 0.5976 0.41047 0.0
H1888 H 0.93082 0.73183 0.42316 0.0
H1889 H 0.95305 0.72739 0.37976 0.0
H1890 H 0.97067 0.72898 0.42566 0.0
H1891 H 0.83402 0.62894 0.38434 0.0
H1892 H 0.84556 0.59586 0.3743 0.0
H1893 H 0.8561 0.62501 0.34061 0.0
C1894 C 0.34596 0.90411 0.36015 0.0
C1895 C 0.3353 0.87382 0.37081 0.0
C1896 C 0.36697 0.92902 0.3835 0.0
C1897 C 0.3775 0.9238 0.41881 0.0
C1898 C 0.36639 0.89335 0.43011 0.0
C1899 C 0.34566 0.86876 0.40593 0.0
C1900 C 0.37837 0.96094 0.36997 0.0
C1901 C 0.37671 0.88669 0.46761 0.0
C1902 C 0.4567 0.98453 0.45979 0.0
C1903 C 0.44462 1.00215 0.487 0.0
C1904 C 0.43521 0.95884 0.43793 0.0
C1905 C 0.40064 0.95019 0.44335 0.0
C1906 C 0.38828 0.96746 0.4713 0.0
C1907 C 0.41033 0.99316 0.49264 0.0
C1908 C 0.4496 0.94124 0.40848 0.0
C1909 C 0.35168 0.95899 0.47836 0.0
H1910 H 0.33845 0.90839 0.33301 0.0
H1911 H 0.33767 0.84552 0.41452 0.0
H1912 H 0.37135 0.97643 0.39171 0.0
H1913 H 0.40564 0.97045 0.36674 0.0
H1914 H 0.36777 0.96126 0.34202 0.0
H1915 H 0.365 0.86202 0.47306 0.0
H1916 H 0.40386 0.89338 0.46736 0.0
H1917 H 0.37012 0.90058 0.49191 0.0
H1918 H 0.48305 0.99099 0.45518 0.0
H1919 H 0.40057 1.00634 0.5137 0.0
H1920 H 0.44162 0.9424 0.37934 0.0
H1921 H 0.44032 0.91664 0.41425 0.0
H1922 H 0.47696 0.95034 0.40838 0.0
H1923 H 0.3402 0.96098 0.45183 0.0
H1924 H 0.34595 0.97389 0.50213 0.0
H1925 H 0.34012 0.93472 0.48549 0.0
C1926 C 0.1998 0.33856 0.32483 0.0
C1927 C 0.2337 0.3442 0.33182 0.0
C1928 C 0.18119 0.35775 0.34144 0.0
C1929 C 0.19529 0.38606 0.36622 0.0
C1930 C 0.22978 0.39209 0.37263 0.0
C1931 C 0.24728 0.37181 0.35687 0.0
C1932 C 0.14527 0.34636 0.33214 0.0
C1933 C 0.24981 0.4209 0.39617 0.0
C1934 C 0.14205 0.44345 0.37775 0.0
C1935 C 0.13678 0.4508 0.41801 0.0
C1936 C 0.16072 0.42439 0.36146 0.0
C1937 C 0.17499 0.40857 0.38436 0.0
C1938 C 0.16902 0.41522 0.42523 0.0
C1939 C 0.15157 0.43576 0.4408 0.0
C1940 C 0.16502 0.42187 0.31833 0.0
C1941 C 0.18039 0.39987 0.45402 0.0
H1942 H 0.18686 0.31815 0.30646 0.0
H1943 H 0.27286 0.37842 0.36412 0.0
H1944 H 0.13101 0.35648 0.35269 0.0
H1945 H 0.143 0.35215 0.30269 0.0
H1946 H 0.13408 0.32093 0.33218 0.0
H1947 H 0.27504 0.43098 0.38334 0.0
H1948 H 0.23856 0.43859 0.39864 0.0
H1949 H 0.25242 0.41493 0.42543 0.0
H1950 H 0.13161 0.45329 0.35775 0.0
H1951 H 0.14855 0.43902 0.47173 0.0
H1952 H 0.14207 0.40474 0.3058 0.0
H1953 H 0.186 0.41487 0.30863 0.0
H1954 H 0.16901 0.44417 0.30672 0.0
H1955 H 0.16274 0.39438 0.47891 0.0
H1956 H 0.20448 0.41598 0.4649 0.0
H1957 H 0.18322 0.37836 0.44147 0.0
C1958 C 0.34612 0.19217 0.73195 0.0
C1959 C 0.35076 0.22108 0.7197 0.0
C1960 C 0.36321 0.17404 0.71405 0.0
C1961 C 0.38654 0.18533 0.6838 0.0
C1962 C 0.39152 0.21473 0.67159 0.0
C1963 C 0.37316 0.23193 0.68912 0.0
C1964 C 0.35673 0.14294 0.7281 0.0
C1965 C 0.41747 0.22898 0.64148 0.0
C1966 C 0.4542 0.15168 0.66896 0.0
C1967 C 0.44295 0.12938 0.63784 0.0
C1968 C 0.4366 0.17036 0.68338 0.0
C1969 C 0.40668 0.16695 0.66656 0.0
C1970 C 0.39563 0.14516 0.63433 0.0
C1971 C 0.41377 0.12666 0.62047 0.0
C1972 C 0.4499 0.19353 0.71717 0.0
C1973 C 0.36405 0.1406 0.61511 0.0
H1974 H 0.32879 0.18358 0.75554 0.0
H1975 H 0.37732 0.25445 0.67991 0.0
H1976 H 0.34956 0.12497 0.70372 0.0
H1977 H 0.37956 0.14264 0.73989 0.0
H1978 H 0.33693 0.13686 0.75079 0.0
H1979 H 0.44145 0.24094 0.6556 0.0
H1980 H 0.42038 0.21135 0.61971 0.0
H1981 H 0.41178 0.24626 0.62686 0.0
H1982 H 0.47686 0.15447 0.68252 0.0
H1983 H 0.4048 0.10978 0.5963 0.0
H1984 H 0.432 0.18813 0.74185 0.0
H1985 H 0.4532 0.21685 0.70953 0.0
H1986 H 0.47388 0.19397 0.72652 0.0
H1987 H 0.34291 0.12595 0.63239 0.0
H1988 H 0.36307 0.12912 0.58561 0.0
H1989 H 0.36098 0.1628 0.61347 0.0
C1990 C 0.88021 0.38916 0.72552 0.0
C1991 C 0.86511 0.35833 0.71041 0.0
C1992 C 0.90003 0.41322 0.70239 0.0
C1993 C 0.90448 0.40746 0.66196 0.0
C1994 C 0.88914 0.37633 0.64645 0.0
C1995 C 0.87048 0.35242 0.67062 0.0
C1996 C 0.91638 0.44512 0.72157 0.0
C1997 C 0.89107 0.36829 0.60376 0.0
C1998 C 0.92552 0.47827 0.60127 0.0
C1999 C 0.95922 0.48623 0.59031 0.0
C2000 C 0.90765 0.45255 0.62272 0.0
C2001 C 0.9235 0.43411 0.63618 0.0
C2002 C 0.95766 0.44209 0.62564 0.0
C2003 C 0.97469 0.46728 0.6025 0.0
C2004 C 0.87127 0.44489 0.63055 0.0
C2005 C 0.97656 0.42431 0.6396 0.0
H2006 H 0.87693 0.39454 0.75602 0.0
H2007 H 0.85904 0.32909 0.65793 0.0
H2008 H 0.94298 0.45437 0.71331 0.0
H2009 H 0.90526 0.4607 0.71174 0.0
H2010 H 0.91383 0.44556 0.75344 0.0
H2011 H 0.88274 0.34307 0.59655 0.0
H2012 H 0.87507 0.37712 0.58904 0.0
H2013 H 0.91652 0.37931 0.59209 0.0
H2014 H 0.91255 0.49196 0.59218 0.0
H2015 H 1.00052 0.47264 0.5949 0.0
H2016 H 0.86633 0.44791 0.6619 0.0
H2017 H 0.85735 0.42045 0.62095 0.0
H2018 H 0.86171 0.45954 0.61568 0.0
H2019 H 0.97504 0.42525 0.67151 0.0
H2020 H 1.00292 0.43339 0.63014 0.0
H2021 H 0.96541 0.39978 0.62878 0.0
C2022 C 0.24214 0.67933 0.68238 0.0
C2023 C 0.24878 0.71112 0.68307 0.0
C2024 C 0.21799 0.65712 0.65832 0.0
C2025 C 0.20006 0.66633 0.63263 0.0
C2026 C 0.20704 0.69847 0.63269 0.0
C2027 C 0.23058 0.72017 0.6581 0.0
C2028 C 0.21129 0.6235 0.66092 0.0
C2029 C 0.18983 0.71009 0.60544 0.0
C2030 C 0.15965 0.60734 0.54657 0.0
C2031 C 0.12596 0.59512 0.55758 0.0
C2032 C 0.18346 0.63088 0.56974 0.0
C2033 C 0.17422 0.64238 0.60608 0.0
C2034 C 0.14023 0.63006 0.61737 0.0
C2035 C 0.11676 0.60725 0.59303 0.0
C2036 C 0.21875 0.64347 0.55516 0.0
C2037 C 0.12864 0.64038 0.6559 0.0
H2038 H 0.2554 0.67158 0.70158 0.0
H2039 H 0.23514 0.74443 0.6579 0.0
H2040 H 0.18474 0.61105 0.66757 0.0
H2041 H 0.21713 0.61321 0.63284 0.0
H2042 H 0.22596 0.61972 0.68336 0.0
H2043 H 0.19885 0.73559 0.60734 0.0
H2044 H 0.19361 0.70161 0.57541 0.0
H2045 H 0.16292 0.70106 0.61185 0.0
H2046 H 0.1675 0.59863 0.51939 0.0
H2047 H 0.09112 0.59815 0.60249 0.0
H2048 H 0.23459 0.63755 0.57402 0.0
H2049 H 0.22776 0.66892 0.55611 0.0
H2050 H 0.22177 0.63428 0.52523 0.0
H2051 H 0.14174 0.63561 0.67921 0.0
H2052 H 0.10169 0.62867 0.66095 0.0
H2053 H 0.13466 0.66554 0.65797 0.0
loop_
_geom_bond_atom_site_label_1
_geom_bond_atom_site_label_2
_geom_bond_distance
_geom_bond_site_symmetry_2
_ccdc_geom_bond_type
Tb0 C10 2.825 . S
Tb0 O11 2.347 . S
Tb0 O14 2.366 . S
Tb0 O19 2.418 . S
Tb0 O20 2.384 . S
Tb0 O23 2.479 . S
Tb0 O24 2.471 . S
Eu1 O12 2.418 . S
Eu1 O13 2.384 . S
Eu1 O16 2.479 . S
Eu1 O17 2.471 . S
Eu1 O18 2.347 . S
Eu1 O21 2.366 . S
Eu1 C31 2.825 . S
C2 O18 1.259 . S
C2 O19 1.265 . S
C3 O20 1.255 . S
C3 O21 1.265 . S
C4 C6 1.380 . S
C4 C7 1.374 . S
C4 C10 1.507 . S
C5 C6 1.384 . S
C5 C9 1.387 . S
C5 H32 0.930 . S
C6 C4 1.380 . S
C6 C5 1.384 . S
C6 H33 0.931 . S
C7 C4 1.374 . S
C7 C8 1.390 . S
C7 H34 0.930 . S
C8 C7 1.390 . S
C8 C9 1.391 . S
C8 H35 0.930 . S
C9 C5 1.387 . S
C9 C8 1.391 . S
C10 Tb0 2.825 . S
C10 C4 1.507 . S
C10 O23 1.238 . S
C10 O24 1.247 . S
O11 Tb0 2.347 . S
O11 C15 1.259 . S
O12 Eu1 2.418 . S
O12 C15 1.265 . S
O13 Eu1 2.384 . S
O13 C22 1.255 . S
O14 Tb0 2.366 . S
O14 C22 1.265 . S
C15 O11 1.259 . S
C15 O12 1.265 . S
O16 Eu1 2.479 . S
O16 C31 1.238 . S
O17 Eu1 2.471 . S
O17 C31 1.247 . S
O18 Eu1 2.347 . S
O18 C2 1.259 . S
O19 Tb0 2.418 . S
O19 C2 1.265 . S
O20 Tb0 2.384 . S
O20 C3 1.255 . S
O21 Eu1 2.366 . S
O21 C3 1.265 . S
C22 O13 1.255 . S
C22 O14 1.265 . S
O23 Tb0 2.479 . S
O23 C10 1.238 . S
O24 Tb0 2.471 . S
O24 C10 1.247 . S
C25 C28 1.380 . S
C25 C29 1.374 . S
C25 C31 1.507 . S
C26 C27 1.387 . S
C26 C30 1.391 . S
C27 C26 1.387 . S
C27 C28 1.384 . S
C27 H36 0.930 . S
C28 C25 1.380 . S
C28 C27 1.384 . S
C28 H37 0.931 . S
C29 C25 1.374 . S
C29 C30 1.390 . S
C29 H38 0.930 . S
C30 C26 1.391 . S
C30 C29 1.390 . S
C30 H39 0.930 . S
C31 Eu1 2.825 . S
C31 O16 1.238 . S
C31 O17 1.247 . S
C31 C25 1.507 . S
H32 C5 0.930 . S
H33 C6 0.931 . S
H34 C7 0.930 . S
H35 C8 0.930 . S
H36 C27 0.930 . S
H37 C28 0.931 . S
H38 C29 0.930 . S
H39 C30 0.930 . S
Tb40 C50 2.825 . S
Tb40 O51 2.347 . S
Tb40 O54 2.366 . S
Tb40 O59 2.418 . S
Tb40 O60 2.384 . S
Tb40 O63 2.479 . S
Tb40 O64 2.471 . S
Eu41 O52 2.418 . S
Eu41 O53 2.384 . S
Eu41 O56 2.479 . S
Eu41 O57 2.471 . S
Eu41 O58 2.347 . S
Eu41 O61 2.366 . S
Eu41 C71 2.825 . S
C42 O58 1.259 . S
C42 O59 1.265 . S
C43 O60 1.255 . S
C43 O61 1.265 . S
C44 C46 1.380 . S
C44 C47 1.374 . S
C44 C50 1.507 . S
C45 C46 1.384 . S
C45 C49 1.387 . S
C45 H72 0.930 . S
C46 C44 1.380 . S
C46 C45 1.384 . S
C46 H73 0.931 . S
C47 C44 1.374 . S
C47 C48 1.390 . S
C47 H74 0.930 . S
C48 C47 1.390 . S
C48 C49 1.391 . S
C48 H75 0.930 . S
C49 C45 1.387 . S
C49 C48 1.391 . S
C50 Tb40 2.825 . S
C50 C44 1.507 . S
C50 O63 1.238 . S
C50 O64 1.247 . S
O51 Tb40 2.347 . S
O51 C55 1.259 . S
O52 Eu41 2.418 . S
O52 C55 1.265 . S
O53 Eu41 2.384 . S
O53 C62 1.255 . S
O54 Tb40 2.366 . S
O54 C62 1.265 . S
C55 O51 1.259 . S
C55 O52 1.265 . S
O56 Eu41 2.479 . S
O56 C71 1.238 . S
O57 Eu41 2.471 . S
O57 C71 1.247 . S
O58 Eu41 2.347 . S
O58 C42 1.259 . S
O59 Tb40 2.418 . S
O59 C42 1.265 . S
O60 Tb40 2.384 . S
O60 C43 1.255 . S
O61 Eu41 2.366 . S
O61 C43 1.265 . S
C62 O53 1.255 . S
C62 O54 1.265 . S
O63 Tb40 2.479 . S
O63 C50 1.238 . S
O64 Tb40 2.471 . S
O64 C50 1.247 . S
C65 C68 1.380 . S
C65 C69 1.374 . S
C65 C71 1.507 . S
C66 C67 1.387 . S
C66 C70 1.391 . S
C67 C66 1.387 . S
C67 C68 1.384 . S
C67 H76 0.930 . S
C68 C65 1.380 . S
C68 C67 1.384 . S
C68 H77 0.931 . S
C69 C65 1.374 . S
C69 C70 1.390 . S
C69 H78 0.930 . S
C70 C66 1.391 . S
C70 C69 1.390 . S
C70 H79 0.930 . S
C71 Eu41 2.825 . S
C71 O56 1.238 . S
C71 O57 1.247 . S
C71 C65 1.507 . S
H72 C45 0.930 . S
H73 C46 0.931 . S
H74 C47 0.930 . S
H75 C48 0.930 . S
H76 C67 0.930 . S
H77 C68 0.931 . S
H78 C69 0.930 . S
H79 C70 0.930 . S
Tb80 C90 2.825 . S
Tb80 O91 2.347 . S
Tb80 O94 2.366 . S
Tb80 O99 2.418 . S
Tb80 O100 2.384 . S
Tb80 O103 2.479 . S
Tb80 O104 2.471 . S
Eu81 O92 2.418 . S
Eu81 O93 2.384 . S
Eu81 O96 2.479 . S
Eu81 O97 2.471 . S
Eu81 O98 2.347 . S
Eu81 O101 2.366 . S
Eu81 C111 2.825 . S
C82 O98 1.259 . S
C82 O99 1.265 . S
C83 O100 1.255 . S
C83 O101 1.265 . S
C84 C86 1.380 . S
C84 C87 1.374 . S
C84 C90 1.507 . S
C85 C86 1.384 . S
C85 C89 1.387 . S
C85 H112 0.930 . S
C86 C84 1.380 . S
C86 C85 1.384 . S
C86 H113 0.931 . S
C87 C84 1.374 . S
C87 C88 1.390 . S
C87 H114 0.930 . S
C88 C87 1.390 . S
C88 C89 1.391 . S
C88 H115 0.930 . S
C89 C85 1.387 . S
C89 C88 1.391 . S
C90 Tb80 2.825 . S
C90 C84 1.507 . S
C90 O103 1.238 . S
C90 O104 1.247 . S
O91 Tb80 2.347 . S
O91 C95 1.259 . S
O92 Eu81 2.418 . S
O92 C95 1.265 . S
O93 Eu81 2.384 . S
O93 C102 1.255 . S
O94 Tb80 2.366 . S
O94 C102 1.265 . S
C95 O91 1.259 . S
C95 O92 1.265 . S
O96 Eu81 2.479 . S
O96 C111 1.238 . S
O97 Eu81 2.471 . S
O97 C111 1.247 . S
O98 Eu81 2.347 . S
O98 C82 1.259 . S
O99 Tb80 2.418 . S
O99 C82 1.265 . S
O100 Tb80 2.384 . S
O100 C83 1.255 . S
O101 Eu81 2.366 . S
O101 C83 1.265 . S
C102 O93 1.255 . S
C102 O94 1.265 . S
O103 Tb80 2.479 . S
O103 C90 1.238 . S
O104 Tb80 2.471 . S
O104 C90 1.247 . S
C105 C108 1.380 . S
C105 C109 1.374 . S
C105 C111 1.507 . S
C106 C107 1.387 . S
C106 C110 1.391 . S
C107 C106 1.387 . S
C107 C108 1.384 . S
C107 H116 0.930 . S
C108 C105 1.380 . S
C108 C107 1.384 . S
C108 H117 0.931 . S
C109 C105 1.374 . S
C109 C110 1.390 . S
C109 H118 0.930 . S
C110 C106 1.391 . S
C110 C109 1.390 . S
C110 H119 0.930 . S
C111 Eu81 2.825 . S
C111 O96 1.238 . S
C111 O97 1.247 . S
C111 C105 1.507 . S
H112 C85 0.930 . S
H113 C86 0.931 . S
H114 C87 0.930 . S
H115 C88 0.930 . S
H116 C107 0.930 . S
H117 C108 0.931 . S
H118 C109 0.930 . S
H119 C110 0.930 . S
Tb120 C130 2.825 . S
Tb120 O131 2.347 . S
Tb120 O134 2.366 . S
Tb120 O139 2.418 . S
Tb120 O140 2.384 . S
Tb120 O143 2.479 . S
Tb120 O144 2.471 . S
Eu121 O132 2.418 . S
Eu121 O133 2.384 . S
Eu121 O136 2.479 . S
Eu121 O137 2.471 . S
Eu121 O138 2.347 . S
Eu121 O141 2.366 . S
Eu121 C151 2.825 . S
C122 O138 1.259 . S
C122 O139 1.265 . S
C123 O140 1.255 . S
C123 O141 1.265 . S
C124 C126 1.380 . S
C124 C127 1.374 . S
C124 C130 1.507 . S
C125 C126 1.384 . S
C125 C129 1.387 . S
C125 H152 0.930 . S
C126 C124 1.380 . S
C126 C125 1.384 . S
C126 H153 0.931 . S
C127 C124 1.374 . S
C127 C128 1.390 . S
C127 H154 0.930 . S
C128 C127 1.390 . S
C128 C129 1.391 . S
C128 H155 0.930 . S
C129 C125 1.387 . S
C129 C128 1.391 . S
C130 Tb120 2.825 . S
C130 C124 1.507 . S
C130 O143 1.238 . S
C130 O144 1.247 . S
O131 Tb120 2.347 . S
O131 C135 1.259 . S
O132 Eu121 2.418 . S
O132 C135 1.265 . S
O133 Eu121 2.384 . S
O133 C142 1.255 . S
O134 Tb120 2.366 . S
O134 C142 1.265 . S
C135 O131 1.259 . S
C135 O132 1.265 . S
O136 Eu121 2.479 . S
O136 C151 1.238 . S
O137 Eu121 2.471 . S
O137 C151 1.247 . S
O138 Eu121 2.347 . S
O138 C122 1.259 . S
O139 Tb120 2.418 . S
O139 C122 1.265 . S
O140 Tb120 2.384 . S
O140 C123 1.255 . S
O141 Eu121 2.366 . S
O141 C123 1.265 . S
C142 O133 1.255 . S
C142 O134 1.265 . S
O143 Tb120 2.479 . S
O143 C130 1.238 . S
O144 Tb120 2.471 . S
O144 C130 1.247 . S
C145 C148 1.380 . S
C145 C149 1.374 . S
C145 C151 1.507 . S
C146 C147 1.387 . S
C146 C150 1.391 . S
C147 C146 1.387 . S
C147 C148 1.384 . S
C147 H156 0.930 . S
C148 C145 1.380 . S
C148 C147 1.384 . S
C148 H157 0.931 . S
C149 C145 1.374 . S
C149 C150 1.390 . S
C149 H158 0.930 . S
C150 C146 1.391 . S
C150 C149 1.390 . S
C150 H159 0.930 . S
C151 Eu121 2.825 . S
C151 O136 1.238 . S
C151 O137 1.247 . S
C151 C145 1.507 . S
H152 C125 0.930 . S
H153 C126 0.931 . S
H154 C127 0.930 . S
H155 C128 0.930 . S
H156 C147 0.930 . S
H157 C148 0.931 . S
H158 C149 0.930 . S
H159 C150 0.930 . S
Tb160 C170 2.825 . S
Tb160 O171 2.347 . S
Tb160 O174 2.366 . S
Tb160 O179 2.418 . S
Tb160 O180 2.384 . S
Tb160 O183 2.479 . S
Tb160 O184 2.471 . S
Eu161 O172 2.418 . S
Eu161 O173 2.384 . S
Eu161 O176 2.479 . S
Eu161 O177 2.471 . S
Eu161 O178 2.347 . S
Eu161 O181 2.366 . S
Eu161 C191 2.825 . S
C162 O178 1.259 . S
C162 O179 1.265 . S
C163 O180 1.255 . S
C163 O181 1.265 . S
C164 C166 1.380 . S
C164 C167 1.374 . S
C164 C170 1.507 . S
C165 C166 1.384 . S
C165 C169 1.387 . S
C165 H192 0.930 . S
C166 C164 1.380 . S
C166 C165 1.384 . S
C166 H193 0.931 . S
C167 C164 1.374 . S
C167 C168 1.390 . S
C167 H194 0.930 . S
C168 C167 1.390 . S
C168 C169 1.391 . S
C168 H195 0.930 . S
C169 C165 1.387 . S
C169 C168 1.391 . S
C170 Tb160 2.825 . S
C170 C164 1.507 . S
C170 O183 1.238 . S
C170 O184 1.247 . S
O171 Tb160 2.347 . S
O171 C175 1.259 . S
O172 Eu161 2.418 . S
O172 C175 1.265 . S
O173 Eu161 2.384 . S
O173 C182 1.255 . S
O174 Tb160 2.366 . S
O174 C182 1.265 . S
C175 O171 1.259 . S
C175 O172 1.265 . S
O176 Eu161 2.479 . S
O176 C191 1.238 . S
O177 Eu161 2.471 . S
O177 C191 1.247 . S
O178 Eu161 2.347 . S
O178 C162 1.259 . S
O179 Tb160 2.418 . S
O179 C162 1.265 . S
O180 Tb160 2.384 . S
O180 C163 1.255 . S
O181 Eu161 2.366 . S
O181 C163 1.265 . S
C182 O173 1.255 . S
C182 O174 1.265 . S
O183 Tb160 2.479 . S
O183 C170 1.238 . S
O184 Tb160 2.471 . S
O184 C170 1.247 . S
C185 C188 1.380 . S
C185 C189 1.374 . S
C185 C191 1.507 . S
C186 C187 1.387 . S
C186 C190 1.391 . S
C187 C186 1.387 . S
C187 C188 1.384 . S
C187 H196 0.930 . S
C188 C185 1.380 . S
C188 C187 1.384 . S
C188 H197 0.931 . S
C189 C185 1.374 . S
C189 C190 1.390 . S
C189 H198 0.930 . S
C190 C186 1.391 . S
C190 C189 1.390 . S
C190 H199 0.930 . S
C191 Eu161 2.825 . S
C191 O176 1.238 . S
C191 O177 1.247 . S
C191 C185 1.507 . S
H192 C165 0.930 . S
H193 C166 0.931 . S
H194 C167 0.930 . S
H195 C168 0.930 . S
H196 C187 0.930 . S
H197 C188 0.931 . S
H198 C189 0.930 . S
H199 C190 0.930 . S
Tb200 C210 2.825 . S
Tb200 O211 2.347 . S
Tb200 O214 2.366 . S
Tb200 O219 2.418 . S
Tb200 O220 2.384 . S
Tb200 O223 2.479 . S
Tb200 O224 2.471 . S
Eu201 O212 2.418 . S
Eu201 O213 2.384 . S
Eu201 O216 2.479 . S
Eu201 O217 2.471 . S
Eu201 O218 2.347 . S
Eu201 O221 2.366 . S
Eu201 C231 2.825 . S
C202 O218 1.259 . S
C202 O219 1.265 . S
C203 O220 1.255 . S
C203 O221 1.265 . S
C204 C206 1.380 . S
C204 C207 1.374 . S
C204 C210 1.507 . S
C205 C206 1.384 . S
C205 C209 1.387 . S
C205 H232 0.930 . S
C206 C204 1.380 . S
C206 C205 1.384 . S
C206 H233 0.931 . S
C207 C204 1.374 . S
C207 C208 1.390 . S
C207 H234 0.930 . S
C208 C207 1.390 . S
C208 C209 1.391 . S
C208 H235 0.930 . S
C209 C205 1.387 . S
C209 C208 1.391 . S
C210 Tb200 2.825 . S
C210 C204 1.507 . S
C210 O223 1.238 . S
C210 O224 1.247 . S
O211 Tb200 2.347 . S
O211 C215 1.259 . S
O212 Eu201 2.418 . S
O212 C215 1.265 . S
O213 Eu201 2.384 . S
O213 C222 1.255 . S
O214 Tb200 2.366 . S
O214 C222 1.265 . S
C215 O211 1.259 . S
C215 O212 1.265 . S
O216 Eu201 2.479 . S
O216 C231 1.238 . S
O217 Eu201 2.471 . S
O217 C231 1.247 . S
O218 Eu201 2.347 . S
O218 C202 1.259 . S
O219 Tb200 2.418 . S
O219 C202 1.265 . S
O220 Tb200 2.384 . S
O220 C203 1.255 . S
O221 Eu201 2.366 . S
O221 C203 1.265 . S
C222 O213 1.255 . S
C222 O214 1.265 . S
O223 Tb200 2.479 . S
O223 C210 1.238 . S
O224 Tb200 2.471 . S
O224 C210 1.247 . S
C225 C228 1.380 . S
C225 C229 1.374 . S
C225 C231 1.507 . S
C226 C227 1.387 . S
C226 C230 1.391 . S
C227 C226 1.387 . S
C227 C228 1.384 . S
C227 H236 0.930 . S
C228 C225 1.380 . S
C228 C227 1.384 . S
C228 H237 0.931 . S
C229 C225 1.374 . S
C229 C230 1.390 . S
C229 H238 0.930 . S
C230 C226 1.391 . S
C230 C229 1.390 . S
C230 H239 0.930 . S
C231 Eu201 2.825 . S
C231 O216 1.238 . S
C231 O217 1.247 . S
C231 C225 1.507 . S
H232 C205 0.930 . S
H233 C206 0.931 . S
H234 C207 0.930 . S
H235 C208 0.930 . S
H236 C227 0.930 . S
H237 C228 0.931 . S
H238 C229 0.930 . S
H239 C230 0.930 . S
Tb240 C250 2.825 . S
Tb240 O251 2.347 . S
Tb240 O254 2.366 . S
Tb240 O259 2.418 . S
Tb240 O260 2.384 . S
Tb240 O263 2.479 . S
Tb240 O264 2.471 . S
Eu241 O252 2.418 . S
Eu241 O253 2.384 . S
Eu241 O256 2.479 . S
Eu241 O257 2.471 . S
Eu241 O258 2.347 . S
Eu241 O261 2.366 . S
Eu241 C271 2.825 . S
C242 O258 1.259 . S
C242 O259 1.265 . S
C243 O260 1.255 . S
C243 O261 1.265 . S
C244 C246 1.380 . S
C244 C247 1.374 . S
C244 C250 1.507 . S
C245 C246 1.384 . S
C245 C249 1.387 . S
C245 H272 0.930 . S
C246 C244 1.380 . S
C246 C245 1.384 . S
C246 H273 0.931 . S
C247 C244 1.374 . S
C247 C248 1.390 . S
C247 H274 0.930 . S
C248 C247 1.390 . S
C248 C249 1.391 . S
C248 H275 0.930 . S
C249 C245 1.387 . S
C249 C248 1.391 . S
C250 Tb240 2.825 . S
C250 C244 1.507 . S
C250 O263 1.238 . S
C250 O264 1.247 . S
O251 Tb240 2.347 . S
O251 C255 1.259 . S
O252 Eu241 2.418 . S
O252 C255 1.265 . S
O253 Eu241 2.384 . S
O253 C262 1.255 . S
O254 Tb240 2.366 . S
O254 C262 1.265 . S
C255 O251 1.259 . S
C255 O252 1.265 . S
O256 Eu241 2.479 . S
O256 C271 1.238 . S
O257 Eu241 2.471 . S
O257 C271 1.247 . S
O258 Eu241 2.347 . S
O258 C242 1.259 . S
O259 Tb240 2.418 . S
O259 C242 1.265 . S
O260 Tb240 2.384 . S
O260 C243 1.255 . S
O261 Eu241 2.366 . S
O261 C243 1.265 . S
C262 O253 1.255 . S
C262 O254 1.265 . S
O263 Tb240 2.479 . S
O263 C250 1.238 . S
O264 Tb240 2.471 . S
O264 C250 1.247 . S
C265 C268 1.380 . S
C265 C269 1.374 . S
C265 C271 1.507 . S
C266 C267 1.387 . S
C266 C270 1.391 . S
C267 C266 1.387 . S
C267 C268 1.384 . S
C267 H276 0.930 . S
C268 C265 1.380 . S
C268 C267 1.384 . S
C268 H277 0.931 . S
C269 C265 1.374 . S
C269 C270 1.390 . S
C269 H278 0.930 . S
C270 C266 1.391 . S
C270 C269 1.390 . S
C270 H279 0.930 . S
C271 Eu241 2.825 . S
C271 O256 1.238 . S
C271 O257 1.247 . S
C271 C265 1.507 . S
H272 C245 0.930 . S
H273 C246 0.931 . S
H274 C247 0.930 . S
H275 C248 0.930 . S
H276 C267 0.930 . S
H277 C268 0.931 . S
H278 C269 0.930 . S
H279 C270 0.930 . S
Tb280 C290 2.825 . S
Tb280 O291 2.347 . S
Tb280 O294 2.366 . S
Tb280 O299 2.418 . S
Tb280 O300 2.384 . S
Tb280 O303 2.479 . S
Tb280 O304 2.471 . S
Eu281 O292 2.418 . S
Eu281 O293 2.384 . S
Eu281 O296 2.479 . S
Eu281 O297 2.471 . S
Eu281 O298 2.347 . S
Eu281 O301 2.366 . S
Eu281 C311 2.825 . S
C282 O298 1.259 . S
C282 O299 1.265 . S
C283 O300 1.255 . S
C283 O301 1.265 . S
C284 C286 1.380 . S
C284 C287 1.374 . S
C284 C290 1.507 . S
C285 C286 1.384 . S
C285 C289 1.387 . S
C285 H312 0.930 . S
C286 C284 1.380 . S
C286 C285 1.384 . S
C286 H313 0.931 . S
C287 C284 1.374 . S
C287 C288 1.390 . S
C287 H314 0.930 . S
C288 C287 1.390 . S
C288 C289 1.391 . S
C288 H315 0.930 . S
C289 C285 1.387 . S
C289 C288 1.391 . S
C290 Tb280 2.825 . S
C290 C284 1.507 . S
C290 O303 1.238 . S
C290 O304 1.247 . S
O291 Tb280 2.347 . S
O291 C295 1.259 . S
O292 Eu281 2.418 . S
O292 C295 1.265 . S
O293 Eu281 2.384 . S
O293 C302 1.255 . S
O294 Tb280 2.366 . S
O294 C302 1.265 . S
C295 O291 1.259 . S
C295 O292 1.265 . S
O296 Eu281 2.479 . S
O296 C311 1.238 . S
O297 Eu281 2.471 . S
O297 C311 1.247 . S
O298 Eu281 2.347 . S
O298 C282 1.259 . S
O299 Tb280 2.418 . S
O299 C282 1.265 . S
O300 Tb280 2.384 . S
O300 C283 1.255 . S
O301 Eu281 2.366 . S
O301 C283 1.265 . S
C302 O293 1.255 . S
C302 O294 1.265 . S
O303 Tb280 2.479 . S
O303 C290 1.238 . S
O304 Tb280 2.471 . S
O304 C290 1.247 . S
C305 C308 1.380 . S
C305 C309 1.374 . S
C305 C311 1.507 . S
C306 C307 1.387 . S
C306 C310 1.391 . S
C307 C306 1.387 . S
C307 C308 1.384 . S
C307 H316 0.930 . S
C308 C305 1.380 . S
C308 C307 1.384 . S
C308 H317 0.931 . S
C309 C305 1.374 . S
C309 C310 1.390 . S
C309 H318 0.930 . S
C310 C306 1.391 . S
C310 C309 1.390 . S
C310 H319 0.930 . S
C311 Eu281 2.825 . S
C311 O296 1.238 . S
C311 O297 1.247 . S
C311 C305 1.507 . S
H312 C285 0.930 . S
H313 C286 0.931 . S
H314 C287 0.930 . S
H315 C288 0.930 . S
H316 C307 0.930 . S
H317 C308 0.931 . S
H318 C309 0.930 . S
H319 C310 0.930 . S
Co320 O323 2.042 . S
Co320 O330 2.264 . S
Co320 O349 2.286 . S
Co320 O350 2.069 . S
Co320 O352 2.015 1_455 S
Co321 O323 2.122 . S
Co321 O329 2.073 . S
Co321 O330 2.327 . S
Co321 O331 1.976 1_455 S
Co322 O323 2.087 1_545 S
Co322 O325 2.087 1_455 S
Co322 O332 2.111 1_445 S
Co322 O333 2.143 . S
Co322 O337 2.111 . S
Co322 O351 2.143 1_445 S
O323 Co320 2.042 . S
O323 Co321 2.122 . S
O323 Co322 2.087 1_565 S
O323 H324 0.980 1_565 S
H324 O323 0.980 1_545 S
O325 Co322 2.087 1_655 S
O325 Co326 2.042 . S
O325 Co327 2.122 . S
O325 H328 0.980 . S
Co326 O325 2.042 . S
Co326 O334 2.286 . S
Co326 O335 2.069 . S
Co326 O336 2.015 1_655 S
Co326 O339 2.264 . S
Co327 O325 2.122 . S
Co327 O338 1.976 1_655 S
Co327 O339 2.327 . S
Co327 O340 2.073 . S
H328 O325 0.980 . S
O329 Co321 2.073 . S
O329 C344 1.245 . S
O330 Co320 2.264 . S
O330 Co321 2.327 . S
O330 C344 1.257 . S
O331 Co321 1.976 1_655 S
O331 C343 1.251 . S
O332 Co322 2.111 1_665 S
O332 C343 1.274 . S
O333 Co322 2.143 . S
O333 C346 1.246 . S
O334 Co326 2.286 . S
O334 C345 1.259 . S
O335 Co326 2.069 . S
O335 C345 1.289 . S
O336 Co326 2.015 1_455 S
O336 C346 1.257 . S
O337 Co322 2.111 . S
O337 C347 1.274 . S
O338 Co327 1.976 1_455 S
O338 C347 1.251 . S
O339 Co326 2.264 . S
O339 Co327 2.327 . S
O339 C348 1.257 . S
O340 Co327 2.073 . S
O340 C348 1.245 . S
C341 O349 1.259 . S
C341 O350 1.289 . S
C342 O351 1.246 . S
C342 O352 1.257 . S
C343 O331 1.251 . S
C343 O332 1.274 . S
C344 O329 1.245 . S
C344 O330 1.257 . S
C345 O334 1.259 . S
C345 O335 1.289 . S
C346 O333 1.246 . S
C346 O336 1.257 . S
C347 O337 1.274 . S
C347 O338 1.251 . S
C348 O339 1.257 . S
C348 O340 1.245 . S
O349 Co320 2.286 . S
O349 C341 1.259 . S
O350 Co320 2.069 . S
O350 C341 1.289 . S
O351 Co322 2.143 1_665 S
O351 C342 1.246 . S
O352 Co320 2.015 1_655 S
O352 C342 1.257 . S
Co353 O356 2.042 . S
Co353 O363 2.264 . S
Co353 O382 2.286 1_554 S
Co353 O383 2.069 . S
Co353 O385 2.015 . S
Co354 O356 2.122 . S
Co354 O362 2.073 . S
Co354 O363 2.327 . S
Co354 O364 1.976 . S
Co355 O356 2.087 1_545 S
Co355 O358 2.087 . S
Co355 O365 2.111 1_545 S
Co355 O366 2.143 . S
Co355 O370 2.111 . S
Co355 O384 2.143 1_545 S
O356 Co353 2.042 . S
O356 Co354 2.122 . S
O356 Co355 2.087 1_565 S
O356 H357 0.980 . S
H357 O356 0.980 . S
O358 Co355 2.087 . S
O358 Co359 2.042 . S
O358 Co360 2.122 1_554 S
O358 H361 0.980 . S
Co359 O358 2.042 . S
Co359 O367 2.286 . S
Co359 O368 2.069 . S
Co359 O369 2.015 . S
Co359 O372 2.264 . S
Co360 O358 2.122 1_556 S
Co360 O371 1.976 . S
Co360 O372 2.327 1_556 S
Co360 O373 2.073 . S
H361 O358 0.980 . S
O362 Co354 2.073 . S
O362 C377 1.245 . S
O363 Co353 2.264 . S
O363 Co354 2.327 . S
O363 C377 1.257 . S
O364 Co354 1.976 . S
O364 C376 1.251 . S
O365 Co355 2.111 1_565 S
O365 C376 1.274 . S
O366 Co355 2.143 . S
O366 C379 1.246 . S
O367 Co359 2.286 . S
O367 C378 1.259 . S
O368 Co359 2.069 . S
O368 C378 1.289 . S
O369 Co359 2.015 . S
O369 C379 1.257 . S
O370 Co355 2.111 . S
O370 C380 1.273 1_554 S
O371 Co360 1.976 . S
O371 C380 1.252 . S
O372 Co359 2.264 . S
O372 Co360 2.327 1_554 S
O372 C381 1.257 . S
O373 Co360 2.073 . S
O373 C381 1.245 1_556 S
C374 O382 1.259 . S
C374 O383 1.289 1_556 S
C375 O384 1.246 1_556 S
C375 O385 1.257 1_556 S
C376 O364 1.251 . S
C376 O365 1.274 . S
C377 O362 1.245 . S
C377 O363 1.257 . S
C378 O367 1.259 . S
C378 O368 1.289 . S
C379 O366 1.246 . S
C379 O369 1.257 . S
C380 O370 1.273 1_556 S
C380 O371 1.252 . S
C381 O372 1.257 . S
C381 O373 1.245 1_554 S
O382 Co353 2.286 1_556 S
O382 C374 1.259 . S
O383 Co353 2.069 . S
O383 C374 1.289 1_554 S
O384 Co355 2.143 1_565 S
O384 C375 1.246 1_554 S
O385 Co353 2.015 . S
O385 C375 1.257 1_554 S
Co386 O389 2.042 1_556 S
Co386 O396 2.264 1_556 S
Co386 O415 2.286 . S
Co386 O416 2.069 . S
Co386 O418 2.015 . S
Co387 O389 2.122 . S
Co387 O395 2.073 . S
Co387 O396 2.327 . S
Co387 O397 1.976 . S
Co388 O389 2.087 . S
Co388 O391 2.087 1_554 S
Co388 O398 2.111 1_455 S
Co388 O399 2.143 . S
Co388 O403 2.111 1_554 S
Co388 O417 2.153 1_554 S
O389 Co386 2.042 1_554 S
O389 Co387 2.122 . S
O389 Co388 2.087 . S
O389 H390 0.980 . S
H390 O389 0.980 . S
O391 Co388 2.087 1_556 S
O391 Co392 2.042 1_556 S
O391 Co393 2.122 . S
O391 H394 0.980 1_455 S
Co392 O391 2.042 1_554 S
Co392 O400 2.286 . S
Co392 O401 2.069 1_455 S
Co392 O402 2.015 . S
Co392 O405 2.264 1_554 S
Co393 O391 2.122 . S
Co393 O404 1.976 . S
Co393 O405 2.327 . S
Co393 O406 2.073 1_455 S
H394 O391 0.980 1_655 S
O395 Co387 2.073 . S
O395 C410 1.245 . S
O396 Co386 2.264 1_554 S
O396 Co387 2.327 . S
O396 C410 1.257 . S
O397 Co387 1.976 . S
O397 C409 1.251 1_455 S
O398 Co388 2.111 1_655 S
O398 C409 1.274 . S
O399 Co388 2.143 . S
O399 C412 1.246 . S
O400 Co392 2.286 . S
O400 C411 1.259 1_455 S
O401 Co392 2.069 1_655 S
O401 C411 1.289 . S
O402 Co392 2.015 . S
O402 C412 1.257 . S
O403 Co388 2.111 1_556 S
O403 C413 1.274 . S
O404 Co393 1.976 . S
O404 C413 1.251 . S
O405 Co392 2.264 1_556 S
O405 Co393 2.327 . S
O405 C414 1.257 1_455 S
O406 Co393 2.073 1_655 S
O406 C414 1.245 . S
C407 O415 1.259 . S
C407 O416 1.289 . S
C408 O417 1.249 1_655 S
C408 O418 1.257 1_655 S
C409 O397 1.251 1_655 S
C409 O398 1.274 . S
C410 O395 1.245 . S
C410 O396 1.257 . S
C411 O400 1.259 1_655 S
C411 O401 1.289 . S
C412 O399 1.246 . S
C412 O402 1.257 . S
C413 O403 1.274 . S
C413 O404 1.251 . S
C414 O405 1.257 1_655 S
C414 O406 1.245 . S
O415 Co386 2.286 . S
O415 C407 1.259 . S
O416 Co386 2.069 . S
O416 C407 1.289 . S
O417 Co388 2.153 1_556 S
O417 C408 1.249 1_455 S
O418 Co386 2.015 . S
O418 C408 1.257 1_455 S
Co419 O422 2.042 1_556 S
Co419 O429 2.263 1_556 S
Co419 O448 2.287 . S
Co419 O449 2.069 . S
Co419 O451 2.015 . S
Co420 O422 2.122 . S
Co420 O428 2.073 . S
Co420 O429 2.327 . S
Co420 O430 1.976 . S
Co421 O422 2.087 . S
Co421 O424 2.087 . S
Co421 O431 2.111 . S
Co421 O432 2.143 . S
Co421 O436 2.111 1_554 S
Co421 O450 2.143 1_554 S
O422 Co419 2.042 1_554 S
O422 Co420 2.122 . S
O422 Co421 2.087 . S
O422 H423 0.980 . S
H423 O422 0.980 . S
O424 Co421 2.087 . S
O424 Co425 2.042 . S
O424 Co426 2.122 1_554 S
O424 H427 0.980 . S
Co425 O424 2.042 . S
Co425 O433 2.286 . S
Co425 O434 2.069 . S
Co425 O435 2.015 . S
Co425 O438 2.264 1_554 S
Co426 O424 2.122 1_556 S
Co426 O437 1.976 . S
Co426 O438 2.327 . S
Co426 O439 2.073 . S
H427 O424 0.980 . S
O428 Co420 2.073 . S
O428 C443 1.245 . S
O429 Co419 2.263 1_554 S
O429 Co420 2.327 . S
O429 C443 1.257 . S
O430 Co420 1.976 . S
O430 C442 1.251 . S
O431 Co421 2.111 . S
O431 C442 1.274 . S
O432 Co421 2.143 . S
O432 C445 1.246 . S
O433 Co425 2.286 . S
O433 C444 1.259 . S
O434 Co425 2.069 . S
O434 C444 1.289 . S
O435 Co425 2.015 . S
O435 C445 1.257 . S
O436 Co421 2.111 1_556 S
O436 C446 1.274 . S
O437 Co426 1.976 . S
O437 C446 1.251 . S
O438 Co425 2.264 1_556 S
O438 Co426 2.327 . S
O438 C447 1.257 . S
O439 Co426 2.073 . S
O439 C447 1.245 . S
C440 O448 1.259 . S
C440 O449 1.289 . S
C441 O450 1.246 . S
C441 O451 1.257 . S
C442 O430 1.251 . S
C442 O431 1.274 . S
C443 O428 1.245 . S
C443 O429 1.257 . S
C444 O433 1.259 . S
C444 O434 1.289 . S
C445 O432 1.246 . S
C445 O435 1.257 . S
C446 O436 1.274 . S
C446 O437 1.251 . S
C447 O438 1.257 . S
C447 O439 1.245 . S
O448 Co419 2.287 . S
O448 C440 1.259 . S
O449 Co419 2.069 . S
O449 C440 1.289 . S
O450 Co421 2.143 1_556 S
O450 C441 1.246 . S
O451 Co419 2.015 . S
O451 C441 1.257 . S
Co452 O455 2.042 . S
Co452 O462 2.264 . S
Co452 O481 2.286 . S
Co452 O482 2.069 . S
Co452 O484 2.015 . S
Co453 O455 2.122 . S
Co453 O461 2.073 . S
Co453 O462 2.327 . S
Co453 O463 1.976 . S
Co454 O455 2.087 . S
Co454 O457 2.087 1_455 S
Co454 O464 2.111 . S
Co454 O465 2.143 1_455 S
Co454 O469 2.111 1_455 S
Co454 O483 2.143 . S
O455 Co452 2.042 . S
O455 Co453 2.122 . S
O455 Co454 2.087 . S
O455 H456 0.980 . S
H456 O455 0.980 . S
O457 Co454 2.087 1_655 S
O457 Co458 2.042 . S
O457 Co459 2.122 . S
O457 H460 0.980 . S
Co458 O457 2.042 . S
Co458 O466 2.286 . S
Co458 O467 2.069 . S
Co458 O468 2.015 . S
Co458 O471 2.264 . S
Co459 O457 2.122 . S
Co459 O470 1.976 . S
Co459 O471 2.327 . S
Co459 O472 2.073 . S
H460 O457 0.980 . S
O461 Co453 2.073 . S
O461 C476 1.245 . S
O462 Co452 2.264 . S
O462 Co453 2.327 . S
O462 C476 1.257 . S
O463 Co453 1.976 . S
O463 C475 1.251 . S
O464 Co454 2.111 . S
O464 C475 1.274 . S
O465 Co454 2.143 1_655 S
O465 C478 1.246 . S
O466 Co458 2.286 . S
O466 C477 1.259 . S
O467 Co458 2.069 . S
O467 C477 1.289 . S
O468 Co458 2.015 . S
O468 C478 1.257 . S
O469 Co454 2.111 1_655 S
O469 C479 1.274 . S
O470 Co459 1.976 . S
O470 C479 1.251 . S
O471 Co458 2.264 . S
O471 Co459 2.327 . S
O471 C480 1.257 . S
O472 Co459 2.073 . S
O472 C480 1.245 . S
C473 O481 1.259 . S
C473 O482 1.289 . S
C474 O483 1.246 . S
C474 O484 1.257 . S
C475 O463 1.251 . S
C475 O464 1.274 . S
C476 O461 1.245 . S
C476 O462 1.257 . S
C477 O466 1.259 . S
C477 O467 1.289 . S
C478 O465 1.246 . S
C478 O468 1.257 . S
C479 O469 1.274 . S
C479 O470 1.251 . S
C480 O471 1.257 . S
C480 O472 1.245 . S
O481 Co452 2.286 . S
O481 C473 1.259 . S
O482 Co452 2.069 . S
O482 C473 1.289 . S
O483 Co454 2.143 . S
O483 C474 1.246 . S
O484 Co452 2.015 . S
O484 C474 1.257 . S
Co485 O488 2.042 . S
Co485 O495 2.264 . S
Co485 O514 2.286 . S
Co485 O515 2.069 1_545 S
Co485 O517 2.015 . S
Co486 O488 2.122 . S
Co486 O494 2.073 1_545 S
Co486 O495 2.327 . S
Co486 O496 1.976 . S
Co487 O488 2.087 . S
Co487 O490 2.087 . S
Co487 O497 2.111 . S
Co487 O498 2.143 1_545 S
Co487 O502 2.111 1_545 S
Co487 O516 2.143 . S
O488 Co485 2.042 . S
O488 Co486 2.122 . S
O488 Co487 2.087 . S
O488 H489 0.980 1_545 S
H489 O488 0.980 1_565 S
O490 Co487 2.087 . S
O490 Co491 2.042 . S
O490 Co492 2.122 . S
O490 H493 0.980 . S
Co491 O490 2.042 . S
Co491 O499 2.286 . S
Co491 O500 2.069 . S
Co491 O501 2.015 . S
Co491 O504 2.264 . S
Co492 O490 2.122 . S
Co492 O503 1.976 . S
Co492 O504 2.327 . S
Co492 O505 2.073 . S
H493 O490 0.980 . S
O494 Co486 2.073 1_565 S
O494 C509 1.245 . S
O495 Co485 2.264 . S
O495 Co486 2.327 . S
O495 C509 1.257 1_545 S
O496 Co486 1.976 . S
O496 C508 1.251 . S
O497 Co487 2.111 . S
O497 C508 1.274 . S
O498 Co487 2.143 1_565 S
O498 C511 1.246 . S
O499 Co491 2.286 . S
O499 C510 1.259 . S
O500 Co491 2.069 . S
O500 C510 1.289 . S
O501 Co491 2.015 . S
O501 C511 1.257 1_545 S
O502 Co487 2.111 1_565 S
O502 C512 1.274 . S
O503 Co492 1.976 . S
O503 C512 1.251 1_545 S
O504 Co491 2.264 . S
O504 Co492 2.327 . S
O504 C513 1.257 . S
O505 Co492 2.073 . S
O505 C513 1.245 . S
C506 O514 1.259 1_565 S
C506 O515 1.289 . S
C507 O516 1.246 . S
C507 O517 1.257 . S
C508 O496 1.251 . S
C508 O497 1.274 . S
C509 O494 1.245 . S
C509 O495 1.257 1_565 S
C510 O499 1.259 . S
C510 O500 1.289 . S
C511 O498 1.246 . S
C511 O501 1.257 1_565 S
C512 O502 1.274 . S
C512 O503 1.251 1_565 S
C513 O504 1.257 . S
C513 O505 1.245 . S
O514 Co485 2.286 . S
O514 C506 1.259 1_545 S
O515 Co485 2.069 1_565 S
O515 C506 1.289 . S
O516 Co487 2.143 . S
O516 C507 1.246 . S
O517 Co485 2.015 . S
O517 C507 1.257 . S
C518 C519 1.391 . S
C518 C520 1.394 . S
C518 H534 0.931 . S
C519 C518 1.391 . S
C519 C523 1.376 . S
C520 C518 1.394 . S
C520 C521 1.369 . S
C520 C524 1.531 . S
C521 C520 1.369 . S
C521 C522 1.410 . S
C521 C529 1.503 . S
C522 C521 1.410 . S
C522 C523 1.392 . S
C522 C525 1.511 . S
C523 C519 1.376 . S
C523 C522 1.392 . S
C523 H535 0.929 . S
C524 C520 1.531 . S
C524 H536 0.960 . S
C524 H537 0.962 . S
C524 H538 0.960 . S
C525 C522 1.511 . S
C525 H539 0.961 . S
C525 H540 0.961 . S
C525 H541 0.961 . S
C526 C527 1.370 . S
C526 C528 1.363 . S
C526 H542 0.931 . S
C527 C526 1.370 . S
C527 C531 1.408 . S
C528 C526 1.363 . S
C528 C529 1.370 . S
C528 C532 1.524 . S
C529 C521 1.503 . S
C529 C528 1.370 . S
C529 C530 1.403 . S
C530 C529 1.403 . S
C530 C531 1.404 . S
C530 C533 1.539 . S
C531 C527 1.408 . S
C531 C530 1.404 . S
C531 H543 0.930 . S
C532 C528 1.524 . S
C532 H544 0.956 . S
C532 H545 0.961 . S
C532 H546 0.961 . S
C533 C530 1.539 . S
C533 H547 0.958 . S
C533 H548 0.961 . S
C533 H549 0.960 . S
H534 C518 0.931 . S
H535 C523 0.929 . S
H536 C524 0.960 . S
H537 C524 0.962 . S
H538 C524 0.960 . S
H539 C525 0.961 . S
H540 C525 0.961 . S
H541 C525 0.961 . S
H542 C526 0.931 . S
H543 C531 0.930 . S
H544 C532 0.956 . S
H545 C532 0.961 . S
H546 C532 0.961 . S
H547 C533 0.958 . S
H548 C533 0.961 . S
H549 C533 0.960 . S
C550 C551 1.391 . S
C550 C552 1.394 . S
C550 H566 0.931 . S
C551 C550 1.391 . S
C551 C555 1.376 . S
C552 C550 1.394 . S
C552 C553 1.369 . S
C552 C556 1.531 . S
C553 C552 1.369 . S
C553 C554 1.410 . S
C553 C561 1.503 . S
C554 C553 1.410 . S
C554 C555 1.392 . S
C554 C557 1.511 . S
C555 C551 1.376 . S
C555 C554 1.392 . S
C555 H567 0.929 . S
C556 C552 1.531 . S
C556 H568 0.960 . S
C556 H569 0.962 . S
C556 H570 0.960 . S
C557 C554 1.511 . S
C557 H571 0.961 . S
C557 H572 0.961 . S
C557 H573 0.961 . S
C558 C559 1.370 . S
C558 C560 1.363 . S
C558 H574 0.931 . S
C559 C558 1.370 . S
C559 C563 1.408 . S
C560 C558 1.363 . S
C560 C561 1.370 . S
C560 C564 1.524 . S
C561 C553 1.503 . S
C561 C560 1.370 . S
C561 C562 1.403 . S
C562 C561 1.403 . S
C562 C563 1.404 . S
C562 C565 1.539 . S
C563 C559 1.408 . S
C563 C562 1.404 . S
C563 H575 0.930 . S
C564 C560 1.524 . S
C564 H576 0.956 . S
C564 H577 0.961 . S
C564 H578 0.961 . S
C565 C562 1.539 . S
C565 H579 0.958 . S
C565 H580 0.961 . S
C565 H581 0.960 . S
H566 C550 0.931 . S
H567 C555 0.929 . S
H568 C556 0.960 . S
H569 C556 0.962 . S
H570 C556 0.960 . S
H571 C557 0.961 . S
H572 C557 0.961 . S
H573 C557 0.961 . S
H574 C558 0.931 . S
H575 C563 0.930 . S
H576 C564 0.956 . S
H577 C564 0.961 . S
H578 C564 0.961 . S
H579 C565 0.958 . S
H580 C565 0.961 . S
H581 C565 0.960 . S
C582 C583 1.391 . S
C582 C584 1.394 . S
C582 H598 0.931 . S
C583 C582 1.391 . S
C583 C587 1.376 . S
C584 C582 1.394 . S
C584 C585 1.369 . S
C584 C588 1.531 . S
C585 C584 1.369 . S
C585 C586 1.410 . S
C585 C593 1.503 . S
C586 C585 1.410 . S
C586 C587 1.392 . S
C586 C589 1.511 . S
C587 C583 1.376 . S
C587 C586 1.392 . S
C587 H599 0.929 . S
C588 C584 1.531 . S
C588 H600 0.960 . S
C588 H601 0.962 . S
C588 H602 0.960 . S
C589 C586 1.511 . S
C589 H603 0.961 . S
C589 H604 0.961 . S
C589 H605 0.961 . S
C590 C591 1.370 . S
C590 C592 1.363 . S
C590 H606 0.931 . S
C591 C590 1.370 . S
C591 C595 1.408 . S
C592 C590 1.363 . S
C592 C593 1.370 . S
C592 C596 1.524 . S
C593 C585 1.503 . S
C593 C592 1.370 . S
C593 C594 1.403 . S
C594 C593 1.403 . S
C594 C595 1.404 . S
C594 C597 1.539 . S
C595 C591 1.408 . S
C595 C594 1.404 . S
C595 H607 0.930 . S
C596 C592 1.524 . S
C596 H608 0.956 . S
C596 H609 0.961 . S
C596 H610 0.961 . S
C597 C594 1.539 . S
C597 H611 0.958 . S
C597 H612 0.961 . S
C597 H613 0.960 . S
H598 C582 0.931 . S
H599 C587 0.929 . S
H600 C588 0.960 . S
H601 C588 0.962 . S
H602 C588 0.960 . S
H603 C589 0.961 . S
H604 C589 0.961 . S
H605 C589 0.961 . S
H606 C590 0.931 . S
H607 C595 0.930 . S
H608 C596 0.956 . S
H609 C596 0.961 . S
H610 C596 0.961 . S
H611 C597 0.958 . S
H612 C597 0.961 . S
H613 C597 0.960 . S
C614 C615 1.391 . S
C614 C616 1.394 . S
C614 H630 0.931 . S
C615 C614 1.391 . S
C615 C619 1.376 . S
C616 C614 1.394 . S
C616 C617 1.369 . S
C616 C620 1.531 . S
C617 C616 1.369 . S
C617 C618 1.410 . S
C617 C625 1.503 . S
C618 C617 1.410 . S
C618 C619 1.392 . S
C618 C621 1.511 . S
C619 C615 1.376 . S
C619 C618 1.392 . S
C619 H631 0.929 . S
C620 C616 1.531 . S
C620 H632 0.960 . S
C620 H633 0.962 . S
C620 H634 0.960 . S
C621 C618 1.511 . S
C621 H635 0.961 . S
C621 H636 0.961 . S
C621 H637 0.961 . S
C622 C623 1.370 . S
C622 C624 1.363 . S
C622 H638 0.931 . S
C623 C622 1.370 . S
C623 C627 1.408 . S
C624 C622 1.363 . S
C624 C625 1.370 . S
C624 C628 1.524 . S
C625 C617 1.503 . S
C625 C624 1.370 . S
C625 C626 1.403 . S
C626 C625 1.403 . S
C626 C627 1.404 . S
C626 C629 1.539 . S
C627 C623 1.408 . S
C627 C626 1.404 . S
C627 H639 0.930 . S
C628 C624 1.524 . S
C628 H640 0.956 . S
C628 H641 0.961 . S
C628 H642 0.961 . S
C629 C626 1.539 . S
C629 H643 0.958 . S
C629 H644 0.961 . S
C629 H645 0.960 . S
H630 C614 0.931 . S
H631 C619 0.929 . S
H632 C620 0.960 . S
H633 C620 0.962 . S
H634 C620 0.960 . S
H635 C621 0.961 . S
H636 C621 0.961 . S
H637 C621 0.961 . S
H638 C622 0.931 . S
H639 C627 0.930 . S
H640 C628 0.956 . S
H641 C628 0.961 . S
H642 C628 0.961 . S
H643 C629 0.958 . S
H644 C629 0.961 . S
H645 C629 0.960 . S
C646 C647 1.391 . S
C646 C648 1.394 . S
C646 H662 0.931 . S
C647 C646 1.391 . S
C647 C651 1.376 . S
C648 C646 1.394 . S
C648 C649 1.369 . S
C648 C652 1.531 . S
C649 C648 1.369 . S
C649 C650 1.410 . S
C649 C657 1.503 . S
C650 C649 1.410 . S
C650 C651 1.392 . S
C650 C653 1.511 . S
C651 C647 1.376 . S
C651 C650 1.392 . S
C651 H663 0.929 . S
C652 C648 1.531 . S
C652 H664 0.960 . S
C652 H665 0.962 . S
C652 H666 0.960 . S
C653 C650 1.511 . S
C653 H667 0.961 . S
C653 H668 0.961 . S
C653 H669 0.961 . S
C654 C655 1.370 . S
C654 C656 1.363 . S
C654 H670 0.931 . S
C655 C654 1.370 . S
C655 C659 1.408 . S
C656 C654 1.363 . S
C656 C657 1.370 . S
C656 C660 1.524 . S
C657 C649 1.503 . S
C657 C656 1.370 . S
C657 C658 1.403 . S
C658 C657 1.403 . S
C658 C659 1.404 . S
C658 C661 1.539 . S
C659 C655 1.408 . S
C659 C658 1.404 . S
C659 H671 0.930 . S
C660 C656 1.524 . S
C660 H672 0.956 . S
C660 H673 0.961 . S
C660 H674 0.961 . S
C661 C658 1.539 . S
C661 H675 0.958 . S
C661 H676 0.961 . S
C661 H677 0.960 . S
H662 C646 0.931 . S
H663 C651 0.929 . S
H664 C652 0.960 . S
H665 C652 0.962 . S
H666 C652 0.960 . S
H667 C653 0.961 . S
H668 C653 0.961 . S
H669 C653 0.961 . S
H670 C654 0.931 . S
H671 C659 0.930 . S
H672 C660 0.956 . S
H673 C660 0.961 . S
H674 C660 0.961 . S
H675 C661 0.958 . S
H676 C661 0.961 . S
H677 C661 0.960 . S
C678 C679 1.391 . S
C678 C680 1.394 . S
C678 H694 0.931 . S
C679 C678 1.391 . S
C679 C683 1.376 . S
C680 C678 1.394 . S
C680 C681 1.369 . S
C680 C684 1.531 . S
C681 C680 1.369 . S
C681 C682 1.410 . S
C681 C689 1.503 . S
C682 C681 1.410 . S
C682 C683 1.392 . S
C682 C685 1.511 . S
C683 C679 1.376 . S
C683 C682 1.392 . S
C683 H695 0.929 . S
C684 C680 1.531 . S
C684 H696 0.960 . S
C684 H697 0.962 . S
C684 H698 0.960 . S
C685 C682 1.511 . S
C685 H699 0.961 . S
C685 H700 0.961 . S
C685 H701 0.961 . S
C686 C687 1.370 . S
C686 C688 1.363 . S
C686 H702 0.931 . S
C687 C686 1.370 . S
C687 C691 1.408 . S
C688 C686 1.363 . S
C688 C689 1.370 . S
C688 C692 1.524 . S
C689 C681 1.503 . S
C689 C688 1.370 . S
C689 C690 1.403 . S
C690 C689 1.403 . S
C690 C691 1.404 . S
C690 C693 1.539 . S
C691 C687 1.408 . S
C691 C690 1.404 . S
C691 H703 0.930 . S
C692 C688 1.524 . S
C692 H704 0.956 . S
C692 H705 0.961 . S
C692 H706 0.961 . S
C693 C690 1.539 . S
C693 H707 0.958 . S
C693 H708 0.961 . S
C693 H709 0.960 . S
H694 C678 0.931 . S
H695 C683 0.929 . S
H696 C684 0.960 . S
H697 C684 0.962 . S
H698 C684 0.960 . S
H699 C685 0.961 . S
H700 C685 0.961 . S
H701 C685 0.961 . S
H702 C686 0.931 . S
H703 C691 0.930 . S
H704 C692 0.956 . S
H705 C692 0.961 . S
H706 C692 0.961 . S
H707 C693 0.958 . S
H708 C693 0.961 . S
H709 C693 0.960 . S
C710 C711 1.391 . S
C710 C712 1.394 . S
C710 H726 0.931 . S
C711 C710 1.391 . S
C711 C715 1.376 . S
C712 C710 1.394 . S
C712 C713 1.369 . S
C712 C716 1.531 . S
C713 C712 1.369 . S
C713 C714 1.410 . S
C713 C721 1.503 . S
C714 C713 1.410 . S
C714 C715 1.392 . S
C714 C717 1.511 . S
C715 C711 1.376 . S
C715 C714 1.392 . S
C715 H727 0.929 . S
C716 C712 1.531 . S
C716 H728 0.960 . S
C716 H729 0.962 . S
C716 H730 0.960 . S
C717 C714 1.511 . S
C717 H731 0.961 . S
C717 H732 0.961 . S
C717 H733 0.961 . S
C718 C719 1.370 . S
C718 C720 1.363 . S
C718 H734 0.931 . S
C719 C718 1.370 . S
C719 C723 1.408 . S
C720 C718 1.363 . S
C720 C721 1.370 . S
C720 C724 1.524 . S
C721 C713 1.503 . S
C721 C720 1.370 . S
C721 C722 1.403 . S
C722 C721 1.403 . S
C722 C723 1.404 . S
C722 C725 1.539 . S
C723 C719 1.408 . S
C723 C722 1.404 . S
C723 H735 0.930 . S
C724 C720 1.524 . S
C724 H736 0.956 . S
C724 H737 0.961 . S
C724 H738 0.975 . S
C725 C722 1.539 . S
C725 H739 0.958 . S
C725 H740 0.961 . S
C725 H741 0.960 . S
H726 C710 0.931 . S
H727 C715 0.929 . S
H728 C716 0.960 . S
H729 C716 0.962 . S
H730 C716 0.960 . S
H731 C717 0.961 . S
H732 C717 0.961 . S
H733 C717 0.961 . S
H734 C718 0.931 . S
H735 C723 0.930 . S
H736 C724 0.956 . S
H737 C724 0.961 . S
H738 C724 0.975 . S
H739 C725 0.958 . S
H740 C725 0.961 . S
H741 C725 0.960 . S
C742 C743 1.391 . S
C742 C744 1.394 . S
C742 H758 0.931 . S
C743 C742 1.391 . S
C743 C747 1.376 . S
C744 C742 1.394 . S
C744 C745 1.369 . S
C744 C748 1.531 . S
C745 C744 1.369 . S
C745 C746 1.410 . S
C745 C753 1.503 . S
C746 C745 1.410 . S
C746 C747 1.392 . S
C746 C749 1.511 . S
C747 C743 1.376 . S
C747 C746 1.392 . S
C747 H759 0.929 . S
C748 C744 1.531 . S
C748 H760 0.960 . S
C748 H761 0.962 . S
C748 H762 0.960 . S
C749 C746 1.511 . S
C749 H763 0.961 . S
C749 H764 0.961 . S
C749 H765 0.961 . S
C750 C751 1.370 . S
C750 C752 1.363 . S
C750 H766 0.931 . S
C751 C750 1.370 . S
C751 C755 1.408 . S
C752 C750 1.363 . S
C752 C753 1.370 . S
C752 C756 1.524 . S
C753 C745 1.503 . S
C753 C752 1.370 . S
C753 C754 1.403 . S
C754 C753 1.403 . S
C754 C755 1.404 . S
C754 C757 1.539 . S
C755 C751 1.408 . S
C755 C754 1.404 . S
C755 H767 0.930 . S
C756 C752 1.524 . S
C756 H768 0.956 . S
C756 H769 0.961 . S
C756 H770 0.961 . S
C757 C754 1.539 . S
C757 H771 0.958 . S
C757 H772 0.961 . S
C757 H773 0.960 . S
H758 C742 0.931 . S
H759 C747 0.929 . S
H760 C748 0.960 . S
H761 C748 0.962 . S
H762 C748 0.960 . S
H763 C749 0.961 . S
H764 C749 0.961 . S
H765 C749 0.961 . S
H766 C750 0.931 . S
H767 C755 0.930 . S
H768 C756 0.956 . S
H769 C756 0.961 . S
H770 C756 0.961 . S
H771 C757 0.958 . S
H772 C757 0.961 . S
H773 C757 0.960 . S
C774 C775 1.391 . S
C774 C776 1.394 . S
C774 H790 0.931 . S
C775 C774 1.391 . S
C775 C779 1.376 . S
C776 C774 1.394 . S
C776 C777 1.369 . S
C776 C780 1.531 . S
C777 C776 1.369 . S
C777 C778 1.410 . S
C777 C785 1.503 . S
C778 C777 1.410 . S
C778 C779 1.392 . S
C778 C781 1.511 . S
C779 C775 1.376 . S
C779 C778 1.392 . S
C779 H791 0.929 . S
C780 C776 1.531 . S
C780 H792 0.960 . S
C780 H793 0.962 . S
C780 H794 0.960 . S
C781 C778 1.511 . S
C781 H795 0.961 . S
C781 H796 0.961 . S
C781 H797 0.961 . S
C782 C783 1.370 . S
C782 C784 1.363 . S
C782 H798 0.931 . S
C783 C782 1.370 . S
C783 C787 1.408 . S
C784 C782 1.363 . S
C784 C785 1.370 . S
C784 C788 1.524 . S
C785 C777 1.503 . S
C785 C784 1.370 . S
C785 C786 1.403 . S
C786 C785 1.403 . S
C786 C787 1.404 . S
C786 C789 1.539 . S
C787 C783 1.408 . S
C787 C786 1.404 . S
C787 H799 0.930 . S
C788 C784 1.524 . S
C788 H800 0.956 . S
C788 H801 0.961 . S
C788 H802 0.961 . S
C789 C786 1.539 . S
C789 H803 0.958 . S
C789 H804 0.961 . S
C789 H805 0.960 . S
H790 C774 0.931 . S
H791 C779 0.929 . S
H792 C780 0.960 . S
H793 C780 0.962 . S
H794 C780 0.960 . S
H795 C781 0.961 . S
H796 C781 0.961 . S
H797 C781 0.961 . S
H798 C782 0.931 . S
H799 C787 0.930 . S
H800 C788 0.956 . S
H801 C788 0.961 . S
H802 C788 0.961 . S
H803 C789 0.958 . S
H804 C789 0.961 . S
H805 C789 0.960 . S
C806 C807 1.391 . S
C806 C808 1.394 . S
C806 H822 0.931 . S
C807 C806 1.391 . S
C807 C811 1.376 . S
C808 C806 1.394 . S
C808 C809 1.369 . S
C808 C812 1.531 . S
C809 C808 1.369 . S
C809 C810 1.410 . S
C809 C817 1.503 . S
C810 C809 1.410 . S
C810 C811 1.392 . S
C810 C813 1.511 . S
C811 C807 1.376 . S
C811 C810 1.392 . S
C811 H823 0.929 . S
C812 C808 1.531 . S
C812 H824 0.960 . S
C812 H825 0.962 . S
C812 H826 0.960 . S
C813 C810 1.511 . S
C813 H827 0.961 . S
C813 H828 0.961 . S
C813 H829 0.961 . S
C814 C815 1.370 . S
C814 C816 1.363 . S
C814 H830 0.931 . S
C815 C814 1.370 . S
C815 C819 1.408 . S
C816 C814 1.363 . S
C816 C817 1.370 . S
C816 C820 1.524 . S
C817 C809 1.503 . S
C817 C816 1.370 . S
C817 C818 1.403 . S
C818 C817 1.403 . S
C818 C819 1.404 . S
C818 C821 1.539 . S
C819 C815 1.408 . S
C819 C818 1.404 . S
C819 H831 0.930 . S
C820 C816 1.524 . S
C820 H832 0.956 . S
C820 H833 0.961 . S
C820 H834 0.961 . S
C821 C818 1.539 . S
C821 H835 0.958 . S
C821 H836 0.961 . S
C821 H837 0.960 . S
H822 C806 0.931 . S
H823 C811 0.929 . S
H824 C812 0.960 . S
H825 C812 0.962 . S
H826 C812 0.960 . S
H827 C813 0.961 . S
H828 C813 0.961 . S
H829 C813 0.961 . S
H830 C814 0.931 . S
H831 C819 0.930 . S
H832 C820 0.956 . S
H833 C820 0.961 . S
H834 C820 0.961 . S
H835 C821 0.958 . S
H836 C821 0.961 . S
H837 C821 0.960 . S
C838 C839 1.391 . S
C838 C840 1.394 . S
C838 H854 0.931 . S
C839 C838 1.391 . S
C839 C843 1.376 . S
C840 C838 1.394 . S
C840 C841 1.369 . S
C840 C844 1.531 . S
C841 C840 1.369 . S
C841 C842 1.410 . S
C841 C849 1.503 . S
C842 C841 1.410 . S
C842 C843 1.392 . S
C842 C845 1.511 . S
C843 C839 1.376 . S
C843 C842 1.392 . S
C843 H855 0.929 . S
C844 C840 1.531 . S
C844 H856 0.960 . S
C844 H857 0.962 . S
C844 H858 0.960 . S
C845 C842 1.511 . S
C845 H859 0.961 . S
C845 H860 0.961 . S
C845 H861 0.961 . S
C846 C847 1.370 . S
C846 C848 1.363 . S
C846 H862 0.931 . S
C847 C846 1.370 . S
C847 C851 1.408 . S
C848 C846 1.363 . S
C848 C849 1.370 . S
C848 C852 1.524 . S
C849 C841 1.503 . S
C849 C848 1.370 . S
C849 C850 1.403 . S
C850 C849 1.403 . S
C850 C851 1.404 . S
C850 C853 1.539 . S
C851 C847 1.408 . S
C851 C850 1.404 . S
C851 H863 0.930 . S
C852 C848 1.524 . S
C852 H864 0.956 . S
C852 H865 0.961 . S
C852 H866 0.961 . S
C853 C850 1.539 . S
C853 H867 0.958 . S
C853 H868 0.961 . S
C853 H869 0.960 . S
H854 C838 0.931 . S
H855 C843 0.929 . S
H856 C844 0.960 . S
H857 C844 0.962 . S
H858 C844 0.960 . S
H859 C845 0.961 . S
H860 C845 0.961 . S
H861 C845 0.961 . S
H862 C846 0.931 . S
H863 C851 0.930 . S
H864 C852 0.956 . S
H865 C852 0.961 . S
H866 C852 0.961 . S
H867 C853 0.958 . S
H868 C853 0.961 . S
H869 C853 0.960 . S
C870 C871 1.391 . S
C870 C872 1.394 . S
C870 H886 0.931 . S
C871 C870 1.391 . S
C871 C875 1.376 . S
C872 C870 1.394 . S
C872 C873 1.369 . S
C872 C876 1.531 . S
C873 C872 1.369 . S
C873 C874 1.410 . S
C873 C881 1.503 . S
C874 C873 1.410 . S
C874 C875 1.392 . S
C874 C877 1.511 . S
C875 C871 1.376 . S
C875 C874 1.392 . S
C875 H887 0.929 . S
C876 C872 1.531 . S
C876 H888 0.960 . S
C876 H889 0.962 . S
C876 H890 0.960 . S
C877 C874 1.511 . S
C877 H891 0.961 . S
C877 H892 0.961 . S
C877 H893 0.961 . S
C878 C879 1.370 . S
C878 C880 1.363 . S
C878 H894 0.931 . S
C879 C878 1.370 . S
C879 C883 1.408 . S
C880 C878 1.363 . S
C880 C881 1.370 . S
C880 C884 1.524 . S
C881 C873 1.503 . S
C881 C880 1.370 . S
C881 C882 1.403 . S
C882 C881 1.403 . S
C882 C883 1.404 . S
C882 C885 1.539 . S
C883 C879 1.408 . S
C883 C882 1.404 . S
C883 H895 0.930 . S
C884 C880 1.524 . S
C884 H896 0.956 . S
C884 H897 0.961 . S
C884 H898 0.961 . S
C885 C882 1.539 . S
C885 H899 0.958 . S
C885 H900 0.961 . S
C885 H901 0.960 . S
H886 C870 0.931 . S
H887 C875 0.929 . S
H888 C876 0.960 . S
H889 C876 0.962 . S
H890 C876 0.960 . S
H891 C877 0.961 . S
H892 C877 0.961 . S
H893 C877 0.961 . S
H894 C878 0.931 . S
H895 C883 0.930 . S
H896 C884 0.956 . S
H897 C884 0.961 . S
H898 C884 0.961 . S
H899 C885 0.958 . S
H900 C885 0.961 . S
H901 C885 0.960 . S
C902 C903 1.391 . S
C902 C904 1.394 . S
C902 H918 0.931 . S
C903 C902 1.391 . S
C903 C907 1.376 . S
C904 C902 1.394 . S
C904 C905 1.369 . S
C904 C908 1.531 . S
C905 C904 1.369 . S
C905 C906 1.410 . S
C905 C913 1.503 . S
C906 C905 1.410 . S
C906 C907 1.392 . S
C906 C909 1.511 . S
C907 C903 1.376 . S
C907 C906 1.392 . S
C907 H919 0.929 . S
C908 C904 1.531 . S
C908 H920 0.960 . S
C908 H921 0.962 . S
C908 H922 0.960 . S
C909 C906 1.511 . S
C909 H923 0.961 . S
C909 H924 0.961 . S
C909 H925 0.961 . S
C910 C911 1.370 . S
C910 C912 1.363 . S
C910 H926 0.931 . S
C911 C910 1.370 . S
C911 C915 1.408 . S
C912 C910 1.363 . S
C912 C913 1.370 . S
C912 C916 1.524 . S
C913 C905 1.503 . S
C913 C912 1.370 . S
C913 C914 1.403 . S
C914 C913 1.403 . S
C914 C915 1.404 . S
C914 C917 1.539 . S
C915 C911 1.408 . S
C915 C914 1.404 . S
C915 H927 0.930 . S
C916 C912 1.524 . S
C916 H928 0.956 . S
C916 H929 0.961 . S
C916 H930 0.961 . S
C917 C914 1.539 . S
C917 H931 0.958 . S
C917 H932 0.961 . S
C917 H933 0.960 . S
H918 C902 0.931 . S
H919 C907 0.929 . S
H920 C908 0.960 . S
H921 C908 0.962 . S
H922 C908 0.960 . S
H923 C909 0.961 . S
H924 C909 0.961 . S
H925 C909 0.961 . S
H926 C910 0.931 . S
H927 C915 0.930 . S
H928 C916 0.956 . S
H929 C916 0.961 . S
H930 C916 0.961 . S
H931 C917 0.958 . S
H932 C917 0.961 . S
H933 C917 0.960 . S
C934 C935 1.391 . S
C934 C936 1.394 . S
C934 H950 0.931 . S
C935 C934 1.391 . S
C935 C939 1.376 . S
C936 C934 1.394 . S
C936 C937 1.369 . S
C936 C940 1.531 . S
C937 C936 1.369 . S
C937 C938 1.410 . S
C937 C945 1.503 . S
C938 C937 1.410 . S
C938 C939 1.392 . S
C938 C941 1.511 . S
C939 C935 1.376 . S
C939 C938 1.392 . S
C939 H951 0.929 . S
C940 C936 1.531 . S
C940 H952 0.960 . S
C940 H953 0.962 . S
C940 H954 0.960 . S
C941 C938 1.511 . S
C941 H955 0.961 . S
C941 H956 0.961 . S
C941 H957 0.961 . S
C942 C943 1.370 . S
C942 C944 1.363 . S
C942 H958 0.931 . S
C943 C942 1.370 . S
C943 C947 1.408 . S
C944 C942 1.363 . S
C944 C945 1.370 . S
C944 C948 1.524 . S
C945 C937 1.503 . S
C945 C944 1.370 . S
C945 C946 1.403 . S
C946 C945 1.403 . S
C946 C947 1.404 . S
C946 C949 1.539 . S
C947 C943 1.408 . S
C947 C946 1.404 . S
C947 H959 0.930 . S
C948 C944 1.524 . S
C948 H960 0.956 . S
C948 H961 0.961 . S
C948 H962 0.961 . S
C949 C946 1.539 . S
C949 H963 0.958 . S
C949 H964 0.961 . S
C949 H965 0.960 . S
H950 C934 0.931 . S
H951 C939 0.929 . S
H952 C940 0.960 . S
H953 C940 0.962 . S
H954 C940 0.960 . S
H955 C941 0.961 . S
H956 C941 0.961 . S
H957 C941 0.961 . S
H958 C942 0.931 . S
H959 C947 0.930 . S
H960 C948 0.956 . S
H961 C948 0.961 . S
H962 C948 0.961 . S
H963 C949 0.958 . S
H964 C949 0.961 . S
H965 C949 0.960 . S
C966 C967 1.391 . S
C966 C968 1.394 . S
C966 H982 0.931 . S
C967 C966 1.391 . S
C967 C971 1.376 . S
C968 C966 1.394 . S
C968 C969 1.369 . S
C968 C972 1.531 . S
C969 C968 1.369 . S
C969 C970 1.410 . S
C969 C977 1.503 . S
C970 C969 1.410 . S
C970 C971 1.392 . S
C970 C973 1.511 . S
C971 C967 1.376 . S
C971 C970 1.392 . S
C971 H983 0.929 . S
C972 C968 1.531 . S
C972 H984 0.960 . S
C972 H985 0.962 . S
C972 H986 0.960 . S
C973 C970 1.511 . S
C973 H987 0.961 . S
C973 H988 0.961 . S
C973 H989 0.961 . S
C974 C975 1.370 . S
C974 C976 1.363 . S
C974 H990 0.931 . S
C975 C974 1.370 . S
C975 C979 1.408 . S
C976 C974 1.363 . S
C976 C977 1.370 . S
C976 C980 1.524 . S
C977 C969 1.503 . S
C977 C976 1.370 . S
C977 C978 1.403 . S
C978 C977 1.403 . S
C978 C979 1.404 . S
C978 C981 1.539 . S
C979 C975 1.408 . S
C979 C978 1.404 . S
C979 H991 0.930 1_556 S
C980 C976 1.524 . S
C980 H992 0.956 . S
C980 H993 0.961 . S
C980 H994 0.961 . S
C981 C978 1.539 . S
C981 H995 0.958 1_556 S
C981 H996 0.961 . S
C981 H997 0.960 . S
H982 C966 0.931 . S
H983 C971 0.929 . S
H984 C972 0.960 . S
H985 C972 0.962 . S
H986 C972 0.960 . S
H987 C973 0.961 . S
H988 C973 0.961 . S
H989 C973 0.961 . S
H990 C974 0.931 . S
H991 C979 0.930 1_554 S
H992 C980 0.956 . S
H993 C980 0.961 . S
H994 C980 0.961 . S
H995 C981 0.958 1_554 S
H996 C981 0.961 . S
H997 C981 0.960 . S
C998 C999 1.391 . S
C998 C1000 1.394 . S
C998 H1014 0.931 . S
C999 C998 1.391 . S
C999 C1003 1.376 . S
C1000 C998 1.394 . S
C1000 C1001 1.369 . S
C1000 C1004 1.531 . S
C1001 C1000 1.369 . S
C1001 C1002 1.410 . S
C1001 C1009 1.503 . S
C1002 C1001 1.410 . S
C1002 C1003 1.392 . S
C1002 C1005 1.511 . S
C1003 C999 1.376 . S
C1003 C1002 1.392 . S
C1003 H1015 0.929 . S
C1004 C1000 1.531 . S
C1004 H1016 0.960 . S
C1004 H1017 0.962 . S
C1004 H1018 0.960 . S
C1005 C1002 1.511 . S
C1005 H1019 0.961 . S
C1005 H1020 0.961 . S
C1005 H1021 0.961 1_556 S
C1006 C1007 1.370 . S
C1006 C1008 1.363 . S
C1006 H1022 0.931 . S
C1007 C1006 1.370 . S
C1007 C1011 1.408 . S
C1008 C1006 1.363 . S
C1008 C1009 1.370 . S
C1008 C1012 1.524 . S
C1009 C1001 1.503 . S
C1009 C1008 1.370 . S
C1009 C1010 1.403 . S
C1010 C1009 1.403 . S
C1010 C1011 1.404 . S
C1010 C1013 1.539 1_556 S
C1011 C1007 1.408 . S
C1011 C1010 1.404 . S
C1011 H1023 0.930 1_556 S
C1012 C1008 1.524 . S
C1012 H1024 0.956 . S
C1012 H1025 0.961 . S
C1012 H1026 0.961 . S
C1013 C1010 1.539 1_554 S
C1013 H1027 0.958 . S
C1013 H1028 0.961 . S
C1013 H1029 0.960 . S
H1014 C998 0.931 . S
H1015 C1003 0.929 . S
H1016 C1004 0.960 . S
H1017 C1004 0.962 . S
H1018 C1004 0.960 . S
H1019 C1005 0.961 . S
H1020 C1005 0.961 . S
H1021 C1005 0.961 1_554 S
H1022 C1006 0.931 . S
H1023 C1011 0.930 1_554 S
H1024 C1012 0.956 . S
H1025 C1012 0.961 . S
H1026 C1012 0.961 . S
H1027 C1013 0.958 . S
H1028 C1013 0.961 . S
H1029 C1013 0.960 . S
C1030 C1031 1.391 . S
C1030 C1032 1.394 . S
C1030 H1046 0.931 . S
C1031 C1030 1.391 . S
C1031 C1035 1.376 . S
C1032 C1030 1.394 . S
C1032 C1033 1.369 . S
C1032 C1036 1.531 . S
C1033 C1032 1.369 . S
C1033 C1034 1.410 . S
C1033 C1041 1.503 . S
C1034 C1033 1.410 . S
C1034 C1035 1.392 . S
C1034 C1037 1.511 . S
C1035 C1031 1.376 . S
C1035 C1034 1.392 . S
C1035 H1047 0.929 . S
C1036 C1032 1.531 . S
C1036 H1048 0.960 1_554 S
C1036 H1049 0.962 . S
C1036 H1050 0.960 1_554 S
C1037 C1034 1.511 . S
C1037 H1051 0.961 . S
C1037 H1052 0.961 . S
C1037 H1053 0.961 . S
C1038 C1039 1.370 . S
C1038 C1040 1.363 . S
C1038 H1054 0.931 . S
C1039 C1038 1.370 . S
C1039 C1043 1.408 . S
C1040 C1038 1.363 . S
C1040 C1041 1.370 . S
C1040 C1044 1.524 . S
C1041 C1033 1.503 . S
C1041 C1040 1.370 . S
C1041 C1042 1.403 . S
C1042 C1041 1.403 . S
C1042 C1043 1.404 . S
C1042 C1045 1.539 . S
C1043 C1039 1.408 . S
C1043 C1042 1.404 . S
C1043 H1055 0.944 . S
C1044 C1040 1.524 . S
C1044 H1056 0.956 . S
C1044 H1057 0.961 . S
C1044 H1058 0.961 . S
C1045 C1042 1.539 . S
C1045 H1059 0.958 1_554 S
C1045 H1060 0.961 1_554 S
C1045 H1061 0.960 . S
H1046 C1030 0.931 . S
H1047 C1035 0.929 . S
H1048 C1036 0.960 1_556 S
H1049 C1036 0.962 . S
H1050 C1036 0.960 1_556 S
H1051 C1037 0.961 . S
H1052 C1037 0.961 . S
H1053 C1037 0.961 . S
H1054 C1038 0.931 . S
H1055 C1043 0.944 . S
H1056 C1044 0.956 . S
H1057 C1044 0.961 . S
H1058 C1044 0.961 . S
H1059 C1045 0.958 1_556 S
H1060 C1045 0.961 1_556 S
H1061 C1045 0.960 . S
C1062 C1063 1.391 . S
C1062 C1064 1.394 . S
C1062 H1078 0.931 . S
C1063 C1062 1.391 . S
C1063 C1067 1.376 . S
C1064 C1062 1.394 . S
C1064 C1065 1.369 . S
C1064 C1068 1.531 . S
C1065 C1064 1.369 . S
C1065 C1066 1.410 . S
C1065 C1073 1.503 . S
C1066 C1065 1.410 . S
C1066 C1067 1.392 . S
C1066 C1069 1.511 . S
C1067 C1063 1.376 . S
C1067 C1066 1.392 . S
C1067 H1079 0.929 . S
C1068 C1064 1.531 . S
C1068 H1080 0.960 . S
C1068 H1081 0.962 . S
C1068 H1082 0.960 . S
C1069 C1066 1.511 . S
C1069 H1083 0.961 . S
C1069 H1084 0.961 . S
C1069 H1085 0.961 . S
C1070 C1071 1.370 . S
C1070 C1072 1.363 . S
C1070 H1086 0.931 . S
C1071 C1070 1.370 . S
C1071 C1075 1.408 . S
C1072 C1070 1.363 . S
C1072 C1073 1.370 . S
C1072 C1076 1.524 . S
C1073 C1065 1.503 . S
C1073 C1072 1.370 . S
C1073 C1074 1.403 . S
C1074 C1073 1.403 . S
C1074 C1075 1.404 . S
C1074 C1077 1.539 . S
C1075 C1071 1.408 . S
C1075 C1074 1.404 . S
C1075 H1087 0.930 . S
C1076 C1072 1.524 . S
C1076 H1088 0.956 . S
C1076 H1089 0.961 . S
C1076 H1090 0.961 . S
C1077 C1074 1.539 . S
C1077 H1091 0.958 . S
C1077 H1092 0.961 . S
C1077 H1093 0.960 . S
H1078 C1062 0.931 . S
H1079 C1067 0.929 . S
H1080 C1068 0.960 . S
H1081 C1068 0.962 . S
H1082 C1068 0.960 . S
H1083 C1069 0.961 . S
H1084 C1069 0.961 . S
H1085 C1069 0.961 . S
H1086 C1070 0.931 . S
H1087 C1075 0.930 . S
H1088 C1076 0.956 . S
H1089 C1076 0.961 . S
H1090 C1076 0.961 . S
H1091 C1077 0.958 . S
H1092 C1077 0.961 . S
H1093 C1077 0.960 . S
C1094 C1095 1.391 . S
C1094 C1096 1.394 . S
C1094 H1110 0.931 . S
C1095 C1094 1.391 . S
C1095 C1099 1.376 . S
C1096 C1094 1.394 . S
C1096 C1097 1.369 . S
C1096 C1100 1.531 1_556 S
C1097 C1096 1.369 . S
C1097 C1098 1.410 . S
C1097 C1105 1.503 . S
C1098 C1097 1.410 . S
C1098 C1099 1.392 . S
C1098 C1101 1.511 . S
C1099 C1095 1.376 . S
C1099 C1098 1.392 . S
C1099 H1111 0.929 . S
C1100 C1096 1.531 1_554 S
C1100 H1112 0.960 . S
C1100 H1113 0.962 . S
C1100 H1114 0.960 . S
C1101 C1098 1.511 . S
C1101 H1115 0.961 . S
C1101 H1116 0.961 . S
C1101 H1117 0.961 . S
C1102 C1103 1.370 . S
C1102 C1104 1.363 . S
C1102 H1118 0.931 . S
C1103 C1102 1.370 . S
C1103 C1107 1.408 . S
C1104 C1102 1.363 . S
C1104 C1105 1.370 . S
C1104 C1108 1.524 . S
C1105 C1097 1.503 . S
C1105 C1104 1.370 . S
C1105 C1106 1.403 . S
C1106 C1105 1.403 . S
C1106 C1107 1.404 . S
C1106 C1109 1.539 . S
C1107 C1103 1.408 . S
C1107 C1106 1.404 . S
C1107 H1119 0.930 . S
C1108 C1104 1.524 . S
C1108 H1120 0.956 . S
C1108 H1121 0.961 . S
C1108 H1122 0.961 . S
C1109 C1106 1.539 . S
C1109 H1123 0.958 . S
C1109 H1124 0.961 . S
C1109 H1125 0.960 . S
H1110 C1094 0.931 . S
H1111 C1099 0.929 . S
H1112 C1100 0.960 . S
H1113 C1100 0.962 . S
H1114 C1100 0.960 . S
H1115 C1101 0.961 . S
H1116 C1101 0.961 . S
H1117 C1101 0.961 . S
H1118 C1102 0.931 . S
H1119 C1107 0.930 . S
H1120 C1108 0.956 . S
H1121 C1108 0.961 . S
H1122 C1108 0.961 . S
H1123 C1109 0.958 . S
H1124 C1109 0.961 . S
H1125 C1109 0.960 . S
C1126 C1127 1.391 . S
C1126 C1128 1.394 . S
C1126 H1142 0.931 . S
C1127 C1126 1.391 . S
C1127 C1131 1.376 . S
C1128 C1126 1.394 . S
C1128 C1129 1.369 . S
C1128 C1132 1.531 . S
C1129 C1128 1.369 . S
C1129 C1130 1.410 . S
C1129 C1137 1.503 . S
C1130 C1129 1.410 . S
C1130 C1131 1.392 . S
C1130 C1133 1.511 . S
C1131 C1127 1.376 . S
C1131 C1130 1.392 . S
C1131 H1143 0.929 . S
C1132 C1128 1.531 . S
C1132 H1144 0.960 . S
C1132 H1145 0.962 . S
C1132 H1146 0.960 . S
C1133 C1130 1.511 . S
C1133 H1147 0.961 . S
C1133 H1148 0.961 . S
C1133 H1149 0.961 . S
C1134 C1135 1.370 . S
C1134 C1136 1.363 . S
C1134 H1150 0.931 . S
C1135 C1134 1.370 . S
C1135 C1139 1.408 . S
C1136 C1134 1.363 . S
C1136 C1137 1.370 . S
C1136 C1140 1.524 . S
C1137 C1129 1.503 . S
C1137 C1136 1.370 . S
C1137 C1138 1.403 . S
C1138 C1137 1.403 . S
C1138 C1139 1.404 . S
C1138 C1141 1.539 . S
C1139 C1135 1.408 . S
C1139 C1138 1.404 . S
C1139 H1151 0.930 . S
C1140 C1136 1.524 . S
C1140 H1152 0.956 . S
C1140 H1153 0.961 . S
C1140 H1154 0.961 . S
C1141 C1138 1.539 . S
C1141 H1155 0.958 . S
C1141 H1156 0.961 . S
C1141 H1157 0.960 . S
H1142 C1126 0.931 . S
H1143 C1131 0.929 . S
H1144 C1132 0.960 . S
H1145 C1132 0.962 . S
H1146 C1132 0.960 . S
H1147 C1133 0.961 . S
H1148 C1133 0.961 . S
H1149 C1133 0.961 . S
H1150 C1134 0.931 . S
H1151 C1139 0.930 . S
H1152 C1140 0.956 . S
H1153 C1140 0.961 . S
H1154 C1140 0.961 . S
H1155 C1141 0.958 . S
H1156 C1141 0.961 . S
H1157 C1141 0.960 . S
C1158 C1159 1.391 . S
C1158 C1160 1.394 . S
C1158 H1174 0.931 . S
C1159 C1158 1.391 . S
C1159 C1163 1.376 . S
C1160 C1158 1.394 . S
C1160 C1161 1.369 . S
C1160 C1164 1.531 . S
C1161 C1160 1.369 . S
C1161 C1162 1.410 . S
C1161 C1169 1.503 . S
C1162 C1161 1.410 . S
C1162 C1163 1.392 . S
C1162 C1165 1.511 . S
C1163 C1159 1.376 . S
C1163 C1162 1.392 . S
C1163 H1175 0.929 . S
C1164 C1160 1.531 . S
C1164 H1176 0.960 . S
C1164 H1177 0.962 . S
C1164 H1178 0.960 . S
C1165 C1162 1.511 . S
C1165 H1179 0.961 . S
C1165 H1180 0.961 . S
C1165 H1181 0.961 . S
C1166 C1167 1.370 . S
C1166 C1168 1.363 . S
C1166 H1182 0.931 . S
C1167 C1166 1.370 . S
C1167 C1171 1.408 . S
C1168 C1166 1.363 . S
C1168 C1169 1.370 . S
C1168 C1172 1.524 . S
C1169 C1161 1.503 . S
C1169 C1168 1.370 . S
C1169 C1170 1.403 . S
C1170 C1169 1.403 . S
C1170 C1171 1.404 . S
C1170 C1173 1.539 . S
C1171 C1167 1.408 . S
C1171 C1170 1.404 . S
C1171 H1183 0.930 . S
C1172 C1168 1.524 . S
C1172 H1184 0.956 . S
C1172 H1185 0.961 . S
C1172 H1186 0.961 . S
C1173 C1170 1.539 . S
C1173 H1187 0.958 . S
C1173 H1188 0.961 . S
C1173 H1189 0.960 . S
H1174 C1158 0.931 . S
H1175 C1163 0.929 . S
H1176 C1164 0.960 . S
H1177 C1164 0.962 . S
H1178 C1164 0.960 . S
H1179 C1165 0.961 . S
H1180 C1165 0.961 . S
H1181 C1165 0.961 . S
H1182 C1166 0.931 . S
H1183 C1171 0.930 . S
H1184 C1172 0.956 . S
H1185 C1172 0.961 . S
H1186 C1172 0.961 . S
H1187 C1173 0.958 . S
H1188 C1173 0.961 . S
H1189 C1173 0.960 . S
C1190 C1191 1.391 . S
C1190 C1192 1.394 . S
C1190 H1206 0.931 . S
C1191 C1190 1.391 . S
C1191 C1195 1.376 . S
C1192 C1190 1.394 . S
C1192 C1193 1.369 . S
C1192 C1196 1.531 . S
C1193 C1192 1.369 . S
C1193 C1194 1.410 . S
C1193 C1201 1.503 . S
C1194 C1193 1.410 . S
C1194 C1195 1.392 . S
C1194 C1197 1.511 . S
C1195 C1191 1.376 . S
C1195 C1194 1.392 . S
C1195 H1207 0.929 . S
C1196 C1192 1.531 . S
C1196 H1208 0.960 . S
C1196 H1209 0.962 . S
C1196 H1210 0.960 . S
C1197 C1194 1.511 . S
C1197 H1211 0.961 . S
C1197 H1212 0.961 . S
C1197 H1213 0.961 . S
C1198 C1199 1.370 . S
C1198 C1200 1.363 . S
C1198 H1214 0.931 . S
C1199 C1198 1.370 . S
C1199 C1203 1.408 . S
C1200 C1198 1.363 . S
C1200 C1201 1.370 . S
C1200 C1204 1.524 . S
C1201 C1193 1.503 . S
C1201 C1200 1.370 . S
C1201 C1202 1.403 . S
C1202 C1201 1.403 . S
C1202 C1203 1.404 . S
C1202 C1205 1.539 . S
C1203 C1199 1.408 . S
C1203 C1202 1.404 . S
C1203 H1215 0.930 . S
C1204 C1200 1.524 . S
C1204 H1216 0.956 . S
C1204 H1217 0.961 . S
C1204 H1218 0.961 . S
C1205 C1202 1.539 . S
C1205 H1219 0.958 . S
C1205 H1220 0.961 . S
C1205 H1221 0.960 . S
H1206 C1190 0.931 . S
H1207 C1195 0.929 . S
H1208 C1196 0.960 . S
H1209 C1196 0.962 . S
H1210 C1196 0.960 . S
H1211 C1197 0.961 . S
H1212 C1197 0.961 . S
H1213 C1197 0.961 . S
H1214 C1198 0.931 . S
H1215 C1203 0.930 . S
H1216 C1204 0.956 . S
H1217 C1204 0.961 . S
H1218 C1204 0.961 . S
H1219 C1205 0.958 . S
H1220 C1205 0.961 . S
H1221 C1205 0.960 . S
C1222 C1223 1.391 . S
C1222 C1224 1.394 . S
C1222 H1238 0.931 . S
C1223 C1222 1.391 . S
C1223 C1227 1.376 . S
C1224 C1222 1.394 . S
C1224 C1225 1.369 . S
C1224 C1228 1.531 . S
C1225 C1224 1.369 . S
C1225 C1226 1.410 . S
C1225 C1233 1.503 . S
C1226 C1225 1.410 . S
C1226 C1227 1.392 . S
C1226 C1229 1.511 . S
C1227 C1223 1.376 . S
C1227 C1226 1.392 . S
C1227 H1239 0.929 . S
C1228 C1224 1.531 . S
C1228 H1240 0.960 . S
C1228 H1241 0.962 . S
C1228 H1242 0.960 . S
C1229 C1226 1.511 . S
C1229 H1243 0.961 . S
C1229 H1244 0.961 . S
C1229 H1245 0.961 . S
C1230 C1231 1.370 . S
C1230 C1232 1.363 . S
C1230 H1246 0.931 . S
C1231 C1230 1.370 . S
C1231 C1235 1.408 . S
C1232 C1230 1.363 . S
C1232 C1233 1.370 . S
C1232 C1236 1.524 . S
C1233 C1225 1.503 . S
C1233 C1232 1.370 . S
C1233 C1234 1.403 . S
C1234 C1233 1.403 . S
C1234 C1235 1.404 . S
C1234 C1237 1.539 . S
C1235 C1231 1.408 . S
C1235 C1234 1.404 . S
C1235 H1247 0.930 . S
C1236 C1232 1.524 . S
C1236 H1248 0.956 . S
C1236 H1249 0.961 . S
C1236 H1250 0.961 . S
C1237 C1234 1.539 . S
C1237 H1251 0.958 . S
C1237 H1252 0.961 . S
C1237 H1253 0.960 . S
H1238 C1222 0.931 . S
H1239 C1227 0.929 . S
H1240 C1228 0.960 . S
H1241 C1228 0.962 . S
H1242 C1228 0.960 . S
H1243 C1229 0.961 . S
H1244 C1229 0.961 . S
H1245 C1229 0.961 . S
H1246 C1230 0.931 . S
H1247 C1235 0.930 . S
H1248 C1236 0.956 . S
H1249 C1236 0.961 . S
H1250 C1236 0.961 . S
H1251 C1237 0.958 . S
H1252 C1237 0.961 . S
H1253 C1237 0.960 . S
C1254 C1255 1.391 . S
C1254 C1256 1.394 . S
C1254 H1270 0.931 . S
C1255 C1254 1.391 . S
C1255 C1259 1.376 . S
C1256 C1254 1.394 . S
C1256 C1257 1.369 . S
C1256 C1260 1.531 . S
C1257 C1256 1.369 . S
C1257 C1258 1.410 . S
C1257 C1265 1.503 . S
C1258 C1257 1.410 . S
C1258 C1259 1.392 . S
C1258 C1261 1.511 . S
C1259 C1255 1.376 . S
C1259 C1258 1.392 . S
C1259 H1271 0.929 . S
C1260 C1256 1.531 . S
C1260 H1272 0.960 . S
C1260 H1273 0.962 . S
C1260 H1274 0.960 . S
C1261 C1258 1.511 . S
C1261 H1275 0.961 . S
C1261 H1276 0.961 . S
C1261 H1277 0.961 . S
C1262 C1263 1.370 . S
C1262 C1264 1.363 . S
C1262 H1278 0.931 . S
C1263 C1262 1.370 . S
C1263 C1267 1.408 . S
C1264 C1262 1.363 . S
C1264 C1265 1.370 . S
C1264 C1268 1.524 . S
C1265 C1257 1.503 . S
C1265 C1264 1.370 . S
C1265 C1266 1.403 . S
C1266 C1265 1.403 . S
C1266 C1267 1.404 . S
C1266 C1269 1.539 . S
C1267 C1263 1.408 . S
C1267 C1266 1.404 . S
C1267 H1279 0.930 . S
C1268 C1264 1.524 . S
C1268 H1280 0.956 . S
C1268 H1281 0.961 . S
C1268 H1282 0.961 . S
C1269 C1266 1.539 . S
C1269 H1283 0.958 . S
C1269 H1284 0.961 . S
C1269 H1285 0.960 . S
H1270 C1254 0.931 . S
H1271 C1259 0.929 . S
H1272 C1260 0.960 . S
H1273 C1260 0.962 . S
H1274 C1260 0.960 . S
H1275 C1261 0.961 . S
H1276 C1261 0.961 . S
H1277 C1261 0.961 . S
H1278 C1262 0.931 . S
H1279 C1267 0.930 . S
H1280 C1268 0.956 . S
H1281 C1268 0.961 . S
H1282 C1268 0.961 . S
H1283 C1269 0.958 . S
H1284 C1269 0.961 . S
H1285 C1269 0.960 . S
C1286 C1287 1.391 . S
C1286 C1288 1.394 . S
C1286 H1302 0.931 . S
C1287 C1286 1.391 . S
C1287 C1291 1.376 . S
C1288 C1286 1.394 . S
C1288 C1289 1.369 . S
C1288 C1292 1.531 . S
C1289 C1288 1.369 . S
C1289 C1290 1.410 . S
C1289 C1297 1.503 . S
C1290 C1289 1.410 . S
C1290 C1291 1.392 . S
C1290 C1293 1.511 . S
C1291 C1287 1.376 . S
C1291 C1290 1.392 . S
C1291 H1303 0.929 . S
C1292 C1288 1.531 . S
C1292 H1304 0.960 . S
C1292 H1305 0.962 . S
C1292 H1306 0.960 . S
C1293 C1290 1.511 . S
C1293 H1307 0.961 . S
C1293 H1308 0.961 . S
C1293 H1309 0.961 . S
C1294 C1295 1.370 . S
C1294 C1296 1.363 . S
C1294 H1310 0.945 . S
C1295 C1294 1.370 . S
C1295 C1299 1.408 . S
C1296 C1294 1.363 . S
C1296 C1297 1.370 . S
C1296 C1300 1.524 . S
C1297 C1289 1.503 . S
C1297 C1296 1.370 . S
C1297 C1298 1.403 . S
C1298 C1297 1.403 . S
C1298 C1299 1.404 . S
C1298 C1301 1.539 . S
C1299 C1295 1.408 . S
C1299 C1298 1.404 . S
C1299 H1311 0.930 . S
C1300 C1296 1.524 . S
C1300 H1312 0.956 . S
C1300 H1313 0.961 . S
C1300 H1314 0.961 . S
C1301 C1298 1.539 . S
C1301 H1315 0.958 . S
C1301 H1316 0.961 . S
C1301 H1317 0.960 . S
H1302 C1286 0.931 . S
H1303 C1291 0.929 . S
H1304 C1292 0.960 . S
H1305 C1292 0.962 . S
H1306 C1292 0.960 . S
H1307 C1293 0.961 . S
H1308 C1293 0.961 . S
H1309 C1293 0.961 . S
H1310 C1294 0.945 . S
H1311 C1299 0.930 . S
H1312 C1300 0.956 . S
H1313 C1300 0.961 . S
H1314 C1300 0.961 . S
H1315 C1301 0.958 . S
H1316 C1301 0.961 . S
H1317 C1301 0.960 . S
C1318 C1319 1.391 . S
C1318 C1320 1.394 . S
C1318 H1334 0.931 . S
C1319 C1318 1.391 . S
C1319 C1323 1.376 . S
C1320 C1318 1.394 . S
C1320 C1321 1.369 . S
C1320 C1324 1.531 . S
C1321 C1320 1.369 . S
C1321 C1322 1.410 . S
C1321 C1329 1.503 . S
C1322 C1321 1.410 . S
C1322 C1323 1.392 . S
C1322 C1325 1.511 . S
C1323 C1319 1.376 . S
C1323 C1322 1.392 . S
C1323 H1335 0.929 . S
C1324 C1320 1.531 . S
C1324 H1336 0.960 . S
C1324 H1337 0.962 . S
C1324 H1338 0.960 . S
C1325 C1322 1.511 . S
C1325 H1339 0.961 . S
C1325 H1340 0.961 . S
C1325 H1341 0.961 . S
C1326 C1327 1.370 . S
C1326 C1328 1.363 . S
C1326 H1342 0.931 . S
C1327 C1326 1.370 . S
C1327 C1331 1.408 . S
C1328 C1326 1.363 . S
C1328 C1329 1.370 . S
C1328 C1332 1.524 . S
C1329 C1321 1.503 . S
C1329 C1328 1.370 . S
C1329 C1330 1.403 . S
C1330 C1329 1.403 . S
C1330 C1331 1.404 . S
C1330 C1333 1.539 . S
C1331 C1327 1.408 . S
C1331 C1330 1.404 . S
C1331 H1343 0.930 1_556 S
C1332 C1328 1.524 . S
C1332 H1344 0.956 . S
C1332 H1345 0.961 . S
C1332 H1346 0.961 . S
C1333 C1330 1.539 . S
C1333 H1347 0.958 1_556 S
C1333 H1348 0.961 1_556 S
C1333 H1349 0.960 . S
H1334 C1318 0.931 . S
H1335 C1323 0.929 . S
H1336 C1324 0.960 . S
H1337 C1324 0.962 . S
H1338 C1324 0.960 . S
H1339 C1325 0.961 . S
H1340 C1325 0.961 . S
H1341 C1325 0.961 . S
H1342 C1326 0.931 . S
H1343 C1331 0.930 1_554 S
H1344 C1332 0.956 . S
H1345 C1332 0.961 . S
H1346 C1332 0.961 . S
H1347 C1333 0.958 1_554 S
H1348 C1333 0.961 1_554 S
H1349 C1333 0.960 . S
C1350 C1351 1.391 . S
C1350 C1352 1.394 . S
C1350 H1366 0.931 . S
C1351 C1350 1.391 . S
C1351 C1355 1.376 . S
C1352 C1350 1.394 . S
C1352 C1353 1.369 . S
C1352 C1356 1.531 . S
C1353 C1352 1.369 . S
C1353 C1354 1.410 . S
C1353 C1361 1.503 . S
C1354 C1353 1.410 . S
C1354 C1355 1.392 . S
C1354 C1357 1.511 . S
C1355 C1351 1.376 . S
C1355 C1354 1.392 . S
C1355 H1367 0.929 . S
C1356 C1352 1.531 . S
C1356 H1368 0.960 . S
C1356 H1369 0.962 . S
C1356 H1370 0.960 . S
C1357 C1354 1.511 . S
C1357 H1371 0.961 . S
C1357 H1372 0.961 . S
C1357 H1373 0.961 . S
C1358 C1359 1.370 . S
C1358 C1360 1.363 . S
C1358 H1374 0.931 . S
C1359 C1358 1.370 . S
C1359 C1363 1.408 . S
C1360 C1358 1.363 . S
C1360 C1361 1.370 . S
C1360 C1364 1.524 . S
C1361 C1353 1.503 . S
C1361 C1360 1.370 . S
C1361 C1362 1.403 . S
C1362 C1361 1.403 . S
C1362 C1363 1.404 . S
C1362 C1365 1.539 . S
C1363 C1359 1.408 . S
C1363 C1362 1.404 . S
C1363 H1375 0.930 . S
C1364 C1360 1.524 . S
C1364 H1376 0.956 . S
C1364 H1377 0.961 . S
C1364 H1378 0.961 . S
C1365 C1362 1.539 . S
C1365 H1379 0.958 . S
C1365 H1380 0.961 . S
C1365 H1381 0.960 . S
H1366 C1350 0.931 . S
H1367 C1355 0.929 . S
H1368 C1356 0.960 . S
H1369 C1356 0.962 . S
H1370 C1356 0.960 . S
H1371 C1357 0.961 . S
H1372 C1357 0.961 . S
H1373 C1357 0.961 . S
H1374 C1358 0.931 . S
H1375 C1363 0.930 . S
H1376 C1364 0.956 . S
H1377 C1364 0.961 . S
H1378 C1364 0.961 . S
H1379 C1365 0.958 . S
H1380 C1365 0.961 . S
H1381 C1365 0.960 . S
C1382 C1383 1.391 . S
C1382 C1384 1.394 . S
C1382 H1398 0.931 . S
C1383 C1382 1.391 . S
C1383 C1387 1.376 . S
C1384 C1382 1.394 . S
C1384 C1385 1.369 . S
C1384 C1388 1.531 . S
C1385 C1384 1.369 . S
C1385 C1386 1.410 . S
C1385 C1393 1.503 . S
C1386 C1385 1.410 . S
C1386 C1387 1.392 . S
C1386 C1389 1.511 1_556 S
C1387 C1383 1.376 . S
C1387 C1386 1.392 . S
C1387 H1399 0.929 . S
C1388 C1384 1.531 . S
C1388 H1400 0.960 . S
C1388 H1401 0.962 . S
C1388 H1402 0.960 . S
C1389 C1386 1.511 1_554 S
C1389 H1403 0.961 . S
C1389 H1404 0.961 . S
C1389 H1405 0.961 1_554 S
C1390 C1391 1.370 . S
C1390 C1392 1.363 . S
C1390 H1406 0.931 . S
C1391 C1390 1.370 . S
C1391 C1395 1.408 . S
C1392 C1390 1.363 . S
C1392 C1393 1.370 . S
C1392 C1396 1.524 . S
C1393 C1385 1.503 . S
C1393 C1392 1.370 . S
C1393 C1394 1.403 . S
C1394 C1393 1.403 . S
C1394 C1395 1.404 . S
C1394 C1397 1.539 . S
C1395 C1391 1.408 . S
C1395 C1394 1.404 . S
C1395 H1407 0.930 . S
C1396 C1392 1.524 . S
C1396 H1408 0.956 . S
C1396 H1409 0.961 . S
C1396 H1410 0.967 . S
C1397 C1394 1.539 . S
C1397 H1411 0.958 . S
C1397 H1412 0.961 . S
C1397 H1413 0.960 . S
H1398 C1382 0.931 . S
H1399 C1387 0.929 . S
H1400 C1388 0.960 . S
H1401 C1388 0.962 . S
H1402 C1388 0.960 . S
H1403 C1389 0.961 . S
H1404 C1389 0.961 . S
H1405 C1389 0.961 1_556 S
H1406 C1390 0.931 . S
H1407 C1395 0.930 . S
H1408 C1396 0.956 . S
H1409 C1396 0.961 . S
H1410 C1396 0.967 . S
H1411 C1397 0.958 . S
H1412 C1397 0.961 . S
H1413 C1397 0.960 . S
C1414 C1415 1.391 . S
C1414 C1416 1.394 . S
C1414 H1430 0.931 . S
C1415 C1414 1.391 . S
C1415 C1419 1.376 . S
C1416 C1414 1.394 . S
C1416 C1417 1.369 . S
C1416 C1420 1.531 . S
C1417 C1416 1.369 . S
C1417 C1418 1.410 . S
C1417 C1425 1.503 . S
C1418 C1417 1.410 . S
C1418 C1419 1.392 . S
C1418 C1421 1.511 . S
C1419 C1415 1.376 . S
C1419 C1418 1.392 . S
C1419 H1431 0.929 . S
C1420 C1416 1.531 . S
C1420 H1432 0.960 . S
C1420 H1433 0.962 . S
C1420 H1434 0.960 . S
C1421 C1418 1.511 . S
C1421 H1435 0.961 . S
C1421 H1436 0.961 . S
C1421 H1437 0.961 . S
C1422 C1423 1.370 . S
C1422 C1424 1.363 . S
C1422 H1438 0.931 . S
C1423 C1422 1.370 . S
C1423 C1427 1.408 . S
C1424 C1422 1.363 . S
C1424 C1425 1.370 . S
C1424 C1428 1.524 . S
C1425 C1417 1.503 . S
C1425 C1424 1.370 . S
C1425 C1426 1.403 . S
C1426 C1425 1.403 . S
C1426 C1427 1.404 . S
C1426 C1429 1.539 . S
C1427 C1423 1.408 . S
C1427 C1426 1.404 . S
C1427 H1439 0.930 . S
C1428 C1424 1.524 . S
C1428 H1440 0.956 . S
C1428 H1441 0.961 . S
C1428 H1442 0.961 . S
C1429 C1426 1.539 . S
C1429 H1443 0.958 . S
C1429 H1444 0.961 . S
C1429 H1445 0.960 . S
H1430 C1414 0.931 . S
H1431 C1419 0.929 . S
H1432 C1420 0.960 . S
H1433 C1420 0.962 . S
H1434 C1420 0.960 . S
H1435 C1421 0.961 . S
H1436 C1421 0.961 . S
H1437 C1421 0.961 . S
H1438 C1422 0.931 . S
H1439 C1427 0.930 . S
H1440 C1428 0.956 . S
H1441 C1428 0.961 . S
H1442 C1428 0.961 . S
H1443 C1429 0.958 . S
H1444 C1429 0.961 . S
H1445 C1429 0.960 . S
C1446 C1447 1.391 . S
C1446 C1448 1.394 . S
C1446 H1462 0.931 . S
C1447 C1446 1.391 . S
C1447 C1451 1.376 . S
C1448 C1446 1.394 . S
C1448 C1449 1.369 . S
C1448 C1452 1.531 . S
C1449 C1448 1.369 . S
C1449 C1450 1.410 . S
C1449 C1457 1.503 . S
C1450 C1449 1.410 . S
C1450 C1451 1.392 . S
C1450 C1453 1.511 . S
C1451 C1447 1.376 . S
C1451 C1450 1.392 . S
C1451 H1463 0.929 . S
C1452 C1448 1.531 . S
C1452 H1464 0.960 . S
C1452 H1465 0.962 . S
C1452 H1466 0.960 . S
C1453 C1450 1.511 . S
C1453 H1467 0.961 . S
C1453 H1468 0.961 . S
C1453 H1469 0.961 . S
C1454 C1455 1.370 . S
C1454 C1456 1.363 . S
C1454 H1470 0.931 . S
C1455 C1454 1.370 . S
C1455 C1459 1.408 . S
C1456 C1454 1.363 . S
C1456 C1457 1.370 . S
C1456 C1460 1.524 . S
C1457 C1449 1.503 . S
C1457 C1456 1.370 . S
C1457 C1458 1.403 . S
C1458 C1457 1.403 . S
C1458 C1459 1.404 . S
C1458 C1461 1.539 . S
C1459 C1455 1.408 . S
C1459 C1458 1.404 . S
C1459 H1471 0.930 . S
C1460 C1456 1.524 . S
C1460 H1472 0.956 . S
C1460 H1473 0.961 . S
C1460 H1474 0.961 . S
C1461 C1458 1.539 . S
C1461 H1475 0.958 . S
C1461 H1476 0.961 . S
C1461 H1477 0.960 . S
H1462 C1446 0.931 . S
H1463 C1451 0.929 . S
H1464 C1452 0.960 . S
H1465 C1452 0.962 . S
H1466 C1452 0.960 . S
H1467 C1453 0.961 . S
H1468 C1453 0.961 . S
H1469 C1453 0.961 . S
H1470 C1454 0.931 . S
H1471 C1459 0.930 . S
H1472 C1460 0.956 . S
H1473 C1460 0.961 . S
H1474 C1460 0.961 . S
H1475 C1461 0.958 . S
H1476 C1461 0.961 . S
H1477 C1461 0.960 . S
C1478 C1479 1.391 . S
C1478 C1480 1.394 . S
C1478 H1494 0.931 . S
C1479 C1478 1.391 . S
C1479 C1483 1.376 . S
C1480 C1478 1.394 . S
C1480 C1481 1.369 . S
C1480 C1484 1.531 . S
C1481 C1480 1.369 . S
C1481 C1482 1.410 . S
C1481 C1489 1.503 . S
C1482 C1481 1.410 . S
C1482 C1483 1.392 . S
C1482 C1485 1.511 . S
C1483 C1479 1.376 . S
C1483 C1482 1.392 . S
C1483 H1495 0.929 . S
C1484 C1480 1.531 . S
C1484 H1496 0.960 . S
C1484 H1497 0.962 . S
C1484 H1498 0.960 . S
C1485 C1482 1.511 . S
C1485 H1499 0.961 . S
C1485 H1500 0.961 . S
C1485 H1501 0.961 . S
C1486 C1487 1.370 . S
C1486 C1488 1.363 . S
C1486 H1502 0.931 . S
C1487 C1486 1.370 . S
C1487 C1491 1.408 . S
C1488 C1486 1.363 . S
C1488 C1489 1.370 . S
C1488 C1492 1.524 . S
C1489 C1481 1.503 . S
C1489 C1488 1.370 . S
C1489 C1490 1.403 . S
C1490 C1489 1.403 . S
C1490 C1491 1.404 . S
C1490 C1493 1.539 . S
C1491 C1487 1.408 . S
C1491 C1490 1.404 . S
C1491 H1503 0.930 . S
C1492 C1488 1.524 . S
C1492 H1504 0.956 . S
C1492 H1505 0.961 . S
C1492 H1506 0.961 . S
C1493 C1490 1.539 . S
C1493 H1507 0.958 . S
C1493 H1508 0.961 . S
C1493 H1509 0.960 . S
H1494 C1478 0.931 . S
H1495 C1483 0.929 . S
H1496 C1484 0.960 . S
H1497 C1484 0.962 . S
H1498 C1484 0.960 . S
H1499 C1485 0.961 . S
H1500 C1485 0.961 . S
H1501 C1485 0.961 . S
H1502 C1486 0.931 . S
H1503 C1491 0.930 . S
H1504 C1492 0.956 . S
H1505 C1492 0.961 . S
H1506 C1492 0.961 . S
H1507 C1493 0.958 . S
H1508 C1493 0.961 . S
H1509 C1493 0.960 . S
C1510 C1511 1.391 . S
C1510 C1512 1.394 . S
C1510 H1526 0.931 . S
C1511 C1510 1.391 . S
C1511 C1515 1.376 . S
C1512 C1510 1.394 . S
C1512 C1513 1.369 . S
C1512 C1516 1.531 . S
C1513 C1512 1.369 . S
C1513 C1514 1.410 . S
C1513 C1521 1.503 . S
C1514 C1513 1.410 . S
C1514 C1515 1.392 . S
C1514 C1517 1.511 . S
C1515 C1511 1.376 . S
C1515 C1514 1.392 . S
C1515 H1527 0.929 . S
C1516 C1512 1.531 . S
C1516 H1528 0.960 . S
C1516 H1529 0.962 . S
C1516 H1530 0.960 . S
C1517 C1514 1.511 . S
C1517 H1531 0.961 . S
C1517 H1532 0.961 . S
C1517 H1533 0.961 . S
C1518 C1519 1.370 . S
C1518 C1520 1.363 . S
C1518 H1534 0.931 . S
C1519 C1518 1.370 . S
C1519 C1523 1.408 . S
C1520 C1518 1.363 . S
C1520 C1521 1.370 . S
C1520 C1524 1.524 . S
C1521 C1513 1.503 . S
C1521 C1520 1.370 . S
C1521 C1522 1.403 . S
C1522 C1521 1.403 . S
C1522 C1523 1.404 . S
C1522 C1525 1.539 . S
C1523 C1519 1.408 . S
C1523 C1522 1.404 . S
C1523 H1535 0.930 . S
C1524 C1520 1.524 . S
C1524 H1536 0.956 . S
C1524 H1537 0.961 . S
C1524 H1538 0.961 . S
C1525 C1522 1.539 . S
C1525 H1539 0.958 . S
C1525 H1540 0.961 . S
C1525 H1541 0.960 . S
H1526 C1510 0.931 . S
H1527 C1515 0.929 . S
H1528 C1516 0.960 . S
H1529 C1516 0.962 . S
H1530 C1516 0.960 . S
H1531 C1517 0.961 . S
H1532 C1517 0.961 . S
H1533 C1517 0.961 . S
H1534 C1518 0.931 . S
H1535 C1523 0.930 . S
H1536 C1524 0.956 . S
H1537 C1524 0.961 . S
H1538 C1524 0.961 . S
H1539 C1525 0.958 . S
H1540 C1525 0.961 . S
H1541 C1525 0.960 . S
C1542 C1543 1.391 . S
C1542 C1544 1.394 . S
C1542 H1558 0.931 . S
C1543 C1542 1.391 . S
C1543 C1547 1.376 . S
C1544 C1542 1.394 . S
C1544 C1545 1.369 . S
C1544 C1548 1.531 . S
C1545 C1544 1.369 . S
C1545 C1546 1.410 . S
C1545 C1553 1.503 . S
C1546 C1545 1.410 . S
C1546 C1547 1.392 . S
C1546 C1549 1.511 . S
C1547 C1543 1.376 . S
C1547 C1546 1.392 . S
C1547 H1559 0.929 . S
C1548 C1544 1.531 . S
C1548 H1560 0.960 . S
C1548 H1561 0.962 . S
C1548 H1562 0.960 . S
C1549 C1546 1.511 . S
C1549 H1563 0.961 . S
C1549 H1564 0.961 . S
C1549 H1565 0.961 . S
C1550 C1551 1.370 . S
C1550 C1552 1.363 . S
C1550 H1566 0.931 . S
C1551 C1550 1.370 . S
C1551 C1555 1.408 . S
C1552 C1550 1.363 . S
C1552 C1553 1.370 . S
C1552 C1556 1.524 . S
C1553 C1545 1.503 . S
C1553 C1552 1.370 . S
C1553 C1554 1.403 . S
C1554 C1553 1.403 . S
C1554 C1555 1.404 . S
C1554 C1557 1.539 . S
C1555 C1551 1.408 . S
C1555 C1554 1.404 . S
C1555 H1567 0.930 . S
C1556 C1552 1.524 . S
C1556 H1568 0.956 . S
C1556 H1569 0.961 . S
C1556 H1570 0.961 . S
C1557 C1554 1.539 . S
C1557 H1571 0.958 . S
C1557 H1572 0.961 . S
C1557 H1573 0.960 . S
H1558 C1542 0.931 . S
H1559 C1547 0.929 . S
H1560 C1548 0.960 . S
H1561 C1548 0.962 . S
H1562 C1548 0.960 . S
H1563 C1549 0.961 . S
H1564 C1549 0.961 . S
H1565 C1549 0.961 . S
H1566 C1550 0.931 . S
H1567 C1555 0.930 . S
H1568 C1556 0.956 . S
H1569 C1556 0.961 . S
H1570 C1556 0.961 . S
H1571 C1557 0.958 . S
H1572 C1557 0.961 . S
H1573 C1557 0.960 . S
C1574 C1575 1.391 . S
C1574 C1576 1.394 . S
C1574 H1590 0.931 . S
C1575 C1574 1.391 . S
C1575 C1579 1.376 . S
C1576 C1574 1.394 . S
C1576 C1577 1.369 . S
C1576 C1580 1.531 . S
C1577 C1576 1.369 . S
C1577 C1578 1.410 . S
C1577 C1585 1.503 . S
C1578 C1577 1.410 . S
C1578 C1579 1.392 . S
C1578 C1581 1.511 . S
C1579 C1575 1.376 . S
C1579 C1578 1.392 . S
C1579 H1591 0.929 . S
C1580 C1576 1.531 . S
C1580 H1592 0.960 . S
C1580 H1593 0.962 . S
C1580 H1594 0.960 . S
C1581 C1578 1.511 . S
C1581 H1595 0.961 . S
C1581 H1596 0.961 . S
C1581 H1597 0.961 . S
C1582 C1583 1.370 . S
C1582 C1584 1.363 . S
C1582 H1598 0.931 . S
C1583 C1582 1.370 . S
C1583 C1587 1.408 . S
C1584 C1582 1.363 . S
C1584 C1585 1.370 . S
C1584 C1588 1.524 . S
C1585 C1577 1.503 . S
C1585 C1584 1.370 . S
C1585 C1586 1.403 . S
C1586 C1585 1.403 . S
C1586 C1587 1.404 . S
C1586 C1589 1.539 . S
C1587 C1583 1.408 . S
C1587 C1586 1.404 . S
C1587 H1599 0.930 . S
C1588 C1584 1.524 . S
C1588 H1600 0.956 . S
C1588 H1601 0.961 . S
C1588 H1602 0.961 . S
C1589 C1586 1.539 . S
C1589 H1603 0.958 . S
C1589 H1604 0.961 . S
C1589 H1605 0.960 . S
H1590 C1574 0.931 . S
H1591 C1579 0.929 . S
H1592 C1580 0.960 . S
H1593 C1580 0.962 . S
H1594 C1580 0.960 . S
H1595 C1581 0.961 . S
H1596 C1581 0.961 . S
H1597 C1581 0.961 . S
H1598 C1582 0.931 . S
H1599 C1587 0.930 . S
H1600 C1588 0.956 . S
H1601 C1588 0.961 . S
H1602 C1588 0.961 . S
H1603 C1589 0.958 . S
H1604 C1589 0.961 . S
H1605 C1589 0.960 . S
C1606 C1607 1.391 . S
C1606 C1608 1.394 . S
C1606 H1622 0.931 . S
C1607 C1606 1.391 . S
C1607 C1611 1.376 . S
C1608 C1606 1.394 . S
C1608 C1609 1.369 . S
C1608 C1612 1.531 . S
C1609 C1608 1.369 . S
C1609 C1610 1.410 . S
C1609 C1617 1.503 . S
C1610 C1609 1.410 . S
C1610 C1611 1.392 . S
C1610 C1613 1.511 . S
C1611 C1607 1.376 . S
C1611 C1610 1.392 . S
C1611 H1623 0.929 . S
C1612 C1608 1.531 . S
C1612 H1624 0.960 . S
C1612 H1625 0.962 . S
C1612 H1626 0.960 . S
C1613 C1610 1.511 . S
C1613 H1627 0.961 . S
C1613 H1628 0.961 . S
C1613 H1629 0.961 . S
C1614 C1615 1.370 . S
C1614 C1616 1.363 . S
C1614 H1630 0.931 . S
C1615 C1614 1.370 . S
C1615 C1619 1.408 . S
C1616 C1614 1.363 . S
C1616 C1617 1.370 . S
C1616 C1620 1.524 . S
C1617 C1609 1.503 . S
C1617 C1616 1.370 . S
C1617 C1618 1.403 . S
C1618 C1617 1.403 . S
C1618 C1619 1.404 . S
C1618 C1621 1.539 . S
C1619 C1615 1.408 . S
C1619 C1618 1.404 . S
C1619 H1631 0.930 . S
C1620 C1616 1.524 . S
C1620 H1632 0.956 . S
C1620 H1633 0.961 . S
C1620 H1634 0.961 . S
C1621 C1618 1.539 . S
C1621 H1635 0.958 . S
C1621 H1636 0.961 . S
C1621 H1637 0.960 . S
H1622 C1606 0.931 . S
H1623 C1611 0.929 . S
H1624 C1612 0.960 . S
H1625 C1612 0.962 . S
H1626 C1612 0.960 . S
H1627 C1613 0.961 . S
H1628 C1613 0.961 . S
H1629 C1613 0.961 . S
H1630 C1614 0.931 . S
H1631 C1619 0.930 . S
H1632 C1620 0.956 . S
H1633 C1620 0.961 . S
H1634 C1620 0.961 . S
H1635 C1621 0.958 . S
H1636 C1621 0.961 . S
H1637 C1621 0.960 . S
C1638 C1639 1.391 . S
C1638 C1640 1.394 . S
C1638 H1654 0.931 . S
C1639 C1638 1.391 . S
C1639 C1643 1.376 . S
C1640 C1638 1.394 . S
C1640 C1641 1.369 . S
C1640 C1644 1.531 . S
C1641 C1640 1.369 . S
C1641 C1642 1.410 . S
C1641 C1649 1.503 . S
C1642 C1641 1.410 . S
C1642 C1643 1.392 . S
C1642 C1645 1.511 . S
C1643 C1639 1.376 . S
C1643 C1642 1.392 . S
C1643 H1655 0.929 . S
C1644 C1640 1.531 . S
C1644 H1656 0.960 . S
C1644 H1657 0.962 . S
C1644 H1658 0.960 . S
C1645 C1642 1.511 . S
C1645 H1659 0.961 . S
C1645 H1660 0.961 . S
C1645 H1661 0.961 . S
C1646 C1647 1.370 . S
C1646 C1648 1.363 . S
C1646 H1662 0.931 . S
C1647 C1646 1.370 . S
C1647 C1651 1.408 . S
C1648 C1646 1.363 . S
C1648 C1649 1.370 . S
C1648 C1652 1.524 . S
C1649 C1641 1.503 . S
C1649 C1648 1.370 . S
C1649 C1650 1.403 . S
C1650 C1649 1.403 . S
C1650 C1651 1.404 . S
C1650 C1653 1.539 . S
C1651 C1647 1.408 . S
C1651 C1650 1.404 . S
C1651 H1663 0.930 . S
C1652 C1648 1.524 . S
C1652 H1664 0.956 . S
C1652 H1665 0.961 . S
C1652 H1666 0.961 . S
C1653 C1650 1.539 . S
C1653 H1667 0.958 . S
C1653 H1668 0.961 . S
C1653 H1669 0.960 . S
H1654 C1638 0.931 . S
H1655 C1643 0.929 . S
H1656 C1644 0.960 . S
H1657 C1644 0.962 . S
H1658 C1644 0.960 . S
H1659 C1645 0.961 . S
H1660 C1645 0.961 . S
H1661 C1645 0.961 . S
H1662 C1646 0.931 . S
H1663 C1651 0.930 . S
H1664 C1652 0.956 . S
H1665 C1652 0.961 . S
H1666 C1652 0.961 . S
H1667 C1653 0.958 . S
H1668 C1653 0.961 . S
H1669 C1653 0.960 . S
C1670 C1671 1.391 . S
C1670 C1672 1.394 . S
C1670 H1686 0.931 . S
C1671 C1670 1.391 . S
C1671 C1675 1.376 . S
C1672 C1670 1.394 . S
C1672 C1673 1.369 . S
C1672 C1676 1.531 . S
C1673 C1672 1.369 . S
C1673 C1674 1.410 . S
C1673 C1681 1.503 . S
C1674 C1673 1.410 . S
C1674 C1675 1.392 . S
C1674 C1677 1.511 . S
C1675 C1671 1.376 . S
C1675 C1674 1.392 . S
C1675 H1687 0.929 . S
C1676 C1672 1.531 . S
C1676 H1688 0.960 . S
C1676 H1689 0.962 . S
C1676 H1690 0.960 . S
C1677 C1674 1.511 . S
C1677 H1691 0.961 . S
C1677 H1692 0.961 . S
C1677 H1693 0.961 . S
C1678 C1679 1.370 . S
C1678 C1680 1.363 . S
C1678 H1694 0.931 . S
C1679 C1678 1.370 . S
C1679 C1683 1.408 . S
C1680 C1678 1.363 . S
C1680 C1681 1.370 . S
C1680 C1684 1.524 . S
C1681 C1673 1.503 . S
C1681 C1680 1.370 . S
C1681 C1682 1.403 . S
C1682 C1681 1.403 . S
C1682 C1683 1.404 . S
C1682 C1685 1.539 . S
C1683 C1679 1.408 . S
C1683 C1682 1.404 . S
C1683 H1695 0.930 . S
C1684 C1680 1.524 . S
C1684 H1696 0.956 . S
C1684 H1697 0.961 . S
C1684 H1698 0.961 . S
C1685 C1682 1.539 . S
C1685 H1699 0.958 . S
C1685 H1700 0.961 . S
C1685 H1701 0.960 . S
H1686 C1670 0.931 . S
H1687 C1675 0.929 . S
H1688 C1676 0.960 . S
H1689 C1676 0.962 . S
H1690 C1676 0.960 . S
H1691 C1677 0.961 . S
H1692 C1677 0.961 . S
H1693 C1677 0.961 . S
H1694 C1678 0.931 . S
H1695 C1683 0.930 . S
H1696 C1684 0.956 . S
H1697 C1684 0.961 . S
H1698 C1684 0.961 . S
H1699 C1685 0.958 . S
H1700 C1685 0.961 . S
H1701 C1685 0.960 . S
C1702 C1703 1.391 . S
C1702 C1704 1.394 . S
C1702 H1718 0.931 . S
C1703 C1702 1.391 . S
C1703 C1707 1.376 . S
C1704 C1702 1.394 . S
C1704 C1705 1.369 . S
C1704 C1708 1.531 . S
C1705 C1704 1.369 . S
C1705 C1706 1.410 . S
C1705 C1713 1.503 . S
C1706 C1705 1.410 . S
C1706 C1707 1.392 . S
C1706 C1709 1.511 . S
C1707 C1703 1.376 . S
C1707 C1706 1.392 . S
C1707 H1719 0.929 . S
C1708 C1704 1.531 . S
C1708 H1720 0.960 . S
C1708 H1721 0.962 . S
C1708 H1722 0.960 . S
C1709 C1706 1.511 . S
C1709 H1723 0.961 . S
C1709 H1724 0.961 . S
C1709 H1725 0.961 . S
C1710 C1711 1.370 . S
C1710 C1712 1.363 . S
C1710 H1726 0.931 . S
C1711 C1710 1.370 . S
C1711 C1715 1.408 . S
C1712 C1710 1.363 . S
C1712 C1713 1.370 . S
C1712 C1716 1.524 . S
C1713 C1705 1.503 . S
C1713 C1712 1.370 . S
C1713 C1714 1.403 . S
C1714 C1713 1.403 . S
C1714 C1715 1.404 . S
C1714 C1717 1.539 . S
C1715 C1711 1.408 . S
C1715 C1714 1.404 . S
C1715 H1727 0.930 . S
C1716 C1712 1.524 . S
C1716 H1728 0.956 . S
C1716 H1729 0.961 . S
C1716 H1730 0.961 . S
C1717 C1714 1.539 . S
C1717 H1731 0.958 . S
C1717 H1732 0.961 . S
C1717 H1733 0.960 . S
H1718 C1702 0.931 . S
H1719 C1707 0.929 . S
H1720 C1708 0.960 . S
H1721 C1708 0.962 . S
H1722 C1708 0.960 . S
H1723 C1709 0.961 . S
H1724 C1709 0.961 . S
H1725 C1709 0.961 . S
H1726 C1710 0.931 . S
H1727 C1715 0.930 . S
H1728 C1716 0.956 . S
H1729 C1716 0.961 . S
H1730 C1716 0.961 . S
H1731 C1717 0.958 . S
H1732 C1717 0.961 . S
H1733 C1717 0.960 . S
C1734 C1735 1.391 . S
C1734 C1736 1.394 . S
C1734 H1750 0.931 . S
C1735 C1734 1.391 . S
C1735 C1739 1.376 . S
C1736 C1734 1.394 . S
C1736 C1737 1.369 . S
C1736 C1740 1.531 . S
C1737 C1736 1.369 . S
C1737 C1738 1.410 . S
C1737 C1745 1.503 . S
C1738 C1737 1.410 . S
C1738 C1739 1.392 . S
C1738 C1741 1.511 . S
C1739 C1735 1.376 . S
C1739 C1738 1.392 . S
C1739 H1751 0.929 . S
C1740 C1736 1.531 . S
C1740 H1752 0.960 . S
C1740 H1753 0.962 . S
C1740 H1754 0.960 . S
C1741 C1738 1.511 . S
C1741 H1755 0.961 . S
C1741 H1756 0.961 . S
C1741 H1757 0.961 . S
C1742 C1743 1.370 . S
C1742 C1744 1.363 . S
C1742 H1758 0.931 . S
C1743 C1742 1.370 . S
C1743 C1747 1.408 . S
C1744 C1742 1.363 . S
C1744 C1745 1.370 . S
C1744 C1748 1.524 . S
C1745 C1737 1.503 . S
C1745 C1744 1.370 . S
C1745 C1746 1.403 . S
C1746 C1745 1.403 . S
C1746 C1747 1.404 . S
C1746 C1749 1.539 . S
C1747 C1743 1.408 . S
C1747 C1746 1.404 . S
C1747 H1759 0.930 . S
C1748 C1744 1.524 . S
C1748 H1760 0.956 . S
C1748 H1761 0.961 . S
C1748 H1762 0.961 . S
C1749 C1746 1.539 . S
C1749 H1763 0.958 . S
C1749 H1764 0.961 . S
C1749 H1765 0.960 . S
H1750 C1734 0.931 . S
H1751 C1739 0.929 . S
H1752 C1740 0.960 . S
H1753 C1740 0.962 . S
H1754 C1740 0.960 . S
H1755 C1741 0.961 . S
H1756 C1741 0.961 . S
H1757 C1741 0.961 . S
H1758 C1742 0.931 . S
H1759 C1747 0.930 . S
H1760 C1748 0.956 . S
H1761 C1748 0.961 . S
H1762 C1748 0.961 . S
H1763 C1749 0.958 . S
H1764 C1749 0.961 . S
H1765 C1749 0.960 . S
C1766 C1767 1.391 . S
C1766 C1768 1.394 . S
C1766 H1782 0.931 . S
C1767 C1766 1.391 . S
C1767 C1771 1.376 . S
C1768 C1766 1.394 . S
C1768 C1769 1.369 . S
C1768 C1772 1.531 . S
C1769 C1768 1.369 . S
C1769 C1770 1.410 . S
C1769 C1777 1.503 . S
C1770 C1769 1.410 . S
C1770 C1771 1.392 . S
C1770 C1773 1.511 . S
C1771 C1767 1.376 . S
C1771 C1770 1.392 . S
C1771 H1783 0.929 . S
C1772 C1768 1.531 . S
C1772 H1784 0.960 . S
C1772 H1785 0.962 . S
C1772 H1786 0.960 . S
C1773 C1770 1.511 . S
C1773 H1787 0.961 . S
C1773 H1788 0.961 . S
C1773 H1789 0.961 . S
C1774 C1775 1.370 . S
C1774 C1776 1.363 . S
C1774 H1790 0.931 . S
C1775 C1774 1.370 . S
C1775 C1779 1.408 . S
C1776 C1774 1.363 . S
C1776 C1777 1.370 . S
C1776 C1780 1.524 . S
C1777 C1769 1.503 . S
C1777 C1776 1.370 . S
C1777 C1778 1.403 . S
C1778 C1777 1.403 . S
C1778 C1779 1.404 . S
C1778 C1781 1.539 . S
C1779 C1775 1.408 . S
C1779 C1778 1.404 . S
C1779 H1791 0.930 . S
C1780 C1776 1.524 . S
C1780 H1792 0.956 . S
C1780 H1793 0.961 . S
C1780 H1794 0.961 . S
C1781 C1778 1.539 . S
C1781 H1795 0.958 . S
C1781 H1796 0.961 . S
C1781 H1797 0.960 . S
H1782 C1766 0.931 . S
H1783 C1771 0.929 . S
H1784 C1772 0.960 . S
H1785 C1772 0.962 . S
H1786 C1772 0.960 . S
H1787 C1773 0.961 . S
H1788 C1773 0.961 . S
H1789 C1773 0.961 . S
H1790 C1774 0.931 . S
H1791 C1779 0.930 . S
H1792 C1780 0.956 . S
H1793 C1780 0.961 . S
H1794 C1780 0.961 . S
H1795 C1781 0.958 . S
H1796 C1781 0.961 . S
H1797 C1781 0.960 . S
C1798 C1799 1.391 . S
C1798 C1800 1.394 . S
C1798 H1814 0.931 . S
C1799 C1798 1.391 . S
C1799 C1803 1.376 . S
C1800 C1798 1.394 . S
C1800 C1801 1.369 . S
C1800 C1804 1.531 . S
C1801 C1800 1.369 . S
C1801 C1802 1.410 . S
C1801 C1809 1.503 . S
C1802 C1801 1.410 . S
C1802 C1803 1.392 . S
C1802 C1805 1.511 . S
C1803 C1799 1.376 . S
C1803 C1802 1.392 . S
C1803 H1815 0.929 . S
C1804 C1800 1.531 . S
C1804 H1816 0.960 . S
C1804 H1817 0.962 . S
C1804 H1818 0.960 . S
C1805 C1802 1.511 . S
C1805 H1819 0.961 . S
C1805 H1820 0.961 . S
C1805 H1821 0.961 . S
C1806 C1807 1.370 . S
C1806 C1808 1.363 . S
C1806 H1822 0.931 . S
C1807 C1806 1.370 . S
C1807 C1811 1.408 . S
C1808 C1806 1.363 . S
C1808 C1809 1.370 . S
C1808 C1812 1.524 . S
C1809 C1801 1.503 . S
C1809 C1808 1.370 . S
C1809 C1810 1.403 . S
C1810 C1809 1.403 . S
C1810 C1811 1.404 . S
C1810 C1813 1.539 . S
C1811 C1807 1.408 . S
C1811 C1810 1.404 . S
C1811 H1823 0.930 . S
C1812 C1808 1.524 . S
C1812 H1824 0.956 . S
C1812 H1825 0.961 . S
C1812 H1826 0.961 . S
C1813 C1810 1.539 . S
C1813 H1827 0.958 . S
C1813 H1828 0.961 . S
C1813 H1829 0.960 . S
H1814 C1798 0.931 . S
H1815 C1803 0.929 . S
H1816 C1804 0.960 . S
H1817 C1804 0.962 . S
H1818 C1804 0.960 . S
H1819 C1805 0.961 . S
H1820 C1805 0.961 . S
H1821 C1805 0.961 . S
H1822 C1806 0.931 . S
H1823 C1811 0.930 . S
H1824 C1812 0.956 . S
H1825 C1812 0.961 . S
H1826 C1812 0.961 . S
H1827 C1813 0.958 . S
H1828 C1813 0.961 . S
H1829 C1813 0.960 . S
C1830 C1831 1.391 . S
C1830 C1832 1.394 . S
C1830 H1846 0.931 . S
C1831 C1830 1.391 . S
C1831 C1835 1.376 . S
C1832 C1830 1.394 . S
C1832 C1833 1.369 . S
C1832 C1836 1.531 . S
C1833 C1832 1.369 . S
C1833 C1834 1.410 . S
C1833 C1841 1.503 . S
C1834 C1833 1.410 . S
C1834 C1835 1.392 . S
C1834 C1837 1.511 . S
C1835 C1831 1.376 . S
C1835 C1834 1.392 . S
C1835 H1847 0.929 . S
C1836 C1832 1.531 . S
C1836 H1848 0.960 . S
C1836 H1849 0.962 . S
C1836 H1850 0.960 . S
C1837 C1834 1.511 . S
C1837 H1851 0.961 . S
C1837 H1852 0.961 . S
C1837 H1853 0.961 . S
C1838 C1839 1.370 . S
C1838 C1840 1.363 . S
C1838 H1854 0.931 . S
C1839 C1838 1.370 . S
C1839 C1843 1.408 . S
C1840 C1838 1.363 . S
C1840 C1841 1.370 . S
C1840 C1844 1.524 . S
C1841 C1833 1.503 . S
C1841 C1840 1.370 . S
C1841 C1842 1.403 . S
C1842 C1841 1.403 . S
C1842 C1843 1.404 . S
C1842 C1845 1.539 . S
C1843 C1839 1.408 . S
C1843 C1842 1.404 . S
C1843 H1855 0.930 . S
C1844 C1840 1.524 . S
C1844 H1856 0.956 . S
C1844 H1857 0.961 . S
C1844 H1858 0.961 . S
C1845 C1842 1.539 . S
C1845 H1859 0.958 . S
C1845 H1860 0.961 . S
C1845 H1861 0.960 . S
H1846 C1830 0.931 . S
H1847 C1835 0.929 . S
H1848 C1836 0.960 . S
H1849 C1836 0.962 . S
H1850 C1836 0.960 . S
H1851 C1837 0.961 . S
H1852 C1837 0.961 . S
H1853 C1837 0.961 . S
H1854 C1838 0.931 . S
H1855 C1843 0.930 . S
H1856 C1844 0.956 . S
H1857 C1844 0.961 . S
H1858 C1844 0.961 . S
H1859 C1845 0.958 . S
H1860 C1845 0.961 . S
H1861 C1845 0.960 . S
C1862 C1863 1.391 . S
C1862 C1864 1.394 . S
C1862 H1878 0.931 . S
C1863 C1862 1.391 . S
C1863 C1867 1.376 . S
C1864 C1862 1.394 . S
C1864 C1865 1.369 . S
C1864 C1868 1.531 . S
C1865 C1864 1.369 . S
C1865 C1866 1.410 . S
C1865 C1873 1.503 . S
C1866 C1865 1.410 . S
C1866 C1867 1.392 . S
C1866 C1869 1.511 . S
C1867 C1863 1.376 . S
C1867 C1866 1.392 . S
C1867 H1879 0.929 . S
C1868 C1864 1.531 . S
C1868 H1880 0.960 . S
C1868 H1881 0.962 . S
C1868 H1882 0.960 . S
C1869 C1866 1.511 . S
C1869 H1883 0.961 . S
C1869 H1884 0.961 . S
C1869 H1885 0.961 . S
C1870 C1871 1.370 . S
C1870 C1872 1.363 . S
C1870 H1886 0.931 . S
C1871 C1870 1.370 . S
C1871 C1875 1.408 . S
C1872 C1870 1.363 . S
C1872 C1873 1.370 . S
C1872 C1876 1.524 . S
C1873 C1865 1.503 . S
C1873 C1872 1.370 . S
C1873 C1874 1.403 . S
C1874 C1873 1.403 . S
C1874 C1875 1.404 . S
C1874 C1877 1.539 . S
C1875 C1871 1.408 . S
C1875 C1874 1.404 . S
C1875 H1887 0.930 . S
C1876 C1872 1.524 . S
C1876 H1888 0.956 . S
C1876 H1889 0.961 . S
C1876 H1890 0.961 . S
C1877 C1874 1.539 . S
C1877 H1891 0.958 . S
C1877 H1892 0.961 . S
C1877 H1893 0.960 . S
H1878 C1862 0.931 . S
H1879 C1867 0.929 . S
H1880 C1868 0.960 . S
H1881 C1868 0.962 . S
H1882 C1868 0.960 . S
H1883 C1869 0.961 . S
H1884 C1869 0.961 . S
H1885 C1869 0.961 . S
H1886 C1870 0.931 . S
H1887 C1875 0.930 . S
H1888 C1876 0.956 . S
H1889 C1876 0.961 . S
H1890 C1876 0.961 . S
H1891 C1877 0.958 . S
H1892 C1877 0.961 . S
H1893 C1877 0.960 . S
C1894 C1895 1.391 . S
C1894 C1896 1.394 . S
C1894 H1910 0.931 . S
C1895 C1894 1.391 . S
C1895 C1899 1.376 . S
C1896 C1894 1.394 . S
C1896 C1897 1.369 . S
C1896 C1900 1.531 . S
C1897 C1896 1.369 . S
C1897 C1898 1.410 . S
C1897 C1905 1.503 . S
C1898 C1897 1.410 . S
C1898 C1899 1.392 . S
C1898 C1901 1.511 . S
C1899 C1895 1.376 . S
C1899 C1898 1.392 . S
C1899 H1911 0.929 . S
C1900 C1896 1.531 . S
C1900 H1912 0.960 . S
C1900 H1913 0.962 . S
C1900 H1914 0.960 . S
C1901 C1898 1.511 . S
C1901 H1915 0.961 . S
C1901 H1916 0.961 . S
C1901 H1917 0.961 . S
C1902 C1903 1.370 . S
C1902 C1904 1.363 . S
C1902 H1918 0.931 . S
C1903 C1902 1.370 . S
C1903 C1907 1.408 . S
C1904 C1902 1.363 . S
C1904 C1905 1.370 . S
C1904 C1908 1.524 . S
C1905 C1897 1.503 . S
C1905 C1904 1.370 . S
C1905 C1906 1.403 . S
C1906 C1905 1.403 . S
C1906 C1907 1.404 . S
C1906 C1909 1.539 . S
C1907 C1903 1.408 . S
C1907 C1906 1.404 . S
C1907 H1919 0.930 . S
C1908 C1904 1.524 . S
C1908 H1920 0.956 . S
C1908 H1921 0.961 . S
C1908 H1922 0.961 . S
C1909 C1906 1.539 . S
C1909 H1923 0.958 . S
C1909 H1924 0.961 . S
C1909 H1925 0.960 . S
H1910 C1894 0.931 . S
H1911 C1899 0.929 . S
H1912 C1900 0.960 . S
H1913 C1900 0.962 . S
H1914 C1900 0.960 . S
H1915 C1901 0.961 . S
H1916 C1901 0.961 . S
H1917 C1901 0.961 . S
H1918 C1902 0.931 . S
H1919 C1907 0.930 . S
H1920 C1908 0.956 . S
H1921 C1908 0.961 . S
H1922 C1908 0.961 . S
H1923 C1909 0.958 . S
H1924 C1909 0.961 . S
H1925 C1909 0.960 . S
C1926 C1927 1.391 . S
C1926 C1928 1.394 . S
C1926 H1942 0.931 . S
C1927 C1926 1.391 . S
C1927 C1931 1.376 . S
C1928 C1926 1.394 . S
C1928 C1929 1.369 . S
C1928 C1932 1.531 . S
C1929 C1928 1.369 . S
C1929 C1930 1.410 . S
C1929 C1937 1.503 . S
C1930 C1929 1.410 . S
C1930 C1931 1.392 . S
C1930 C1933 1.511 . S
C1931 C1927 1.376 . S
C1931 C1930 1.392 . S
C1931 H1943 0.929 . S
C1932 C1928 1.531 . S
C1932 H1944 0.960 . S
C1932 H1945 0.962 . S
C1932 H1946 0.960 . S
C1933 C1930 1.511 . S
C1933 H1947 0.961 . S
C1933 H1948 0.961 . S
C1933 H1949 0.961 . S
C1934 C1935 1.370 . S
C1934 C1936 1.363 . S
C1934 H1950 0.931 . S
C1935 C1934 1.370 . S
C1935 C1939 1.408 . S
C1936 C1934 1.363 . S
C1936 C1937 1.370 . S
C1936 C1940 1.524 . S
C1937 C1929 1.503 . S
C1937 C1936 1.370 . S
C1937 C1938 1.403 . S
C1938 C1937 1.403 . S
C1938 C1939 1.404 . S
C1938 C1941 1.539 . S
C1939 C1935 1.408 . S
C1939 C1938 1.404 . S
C1939 H1951 0.930 . S
C1940 C1936 1.524 . S
C1940 H1952 0.956 . S
C1940 H1953 0.961 . S
C1940 H1954 0.961 . S
C1941 C1938 1.539 . S
C1941 H1955 0.958 . S
C1941 H1956 0.961 . S
C1941 H1957 0.960 . S
H1942 C1926 0.931 . S
H1943 C1931 0.929 . S
H1944 C1932 0.960 . S
H1945 C1932 0.962 . S
H1946 C1932 0.960 . S
H1947 C1933 0.961 . S
H1948 C1933 0.961 . S
H1949 C1933 0.961 . S
H1950 C1934 0.931 . S
H1951 C1939 0.930 . S
H1952 C1940 0.956 . S
H1953 C1940 0.961 . S
H1954 C1940 0.961 . S
H1955 C1941 0.958 . S
H1956 C1941 0.961 . S
H1957 C1941 0.960 . S
C1958 C1959 1.391 . S
C1958 C1960 1.394 . S
C1958 H1974 0.931 . S
C1959 C1958 1.391 . S
C1959 C1963 1.376 . S
C1960 C1958 1.394 . S
C1960 C1961 1.369 . S
C1960 C1964 1.531 . S
C1961 C1960 1.369 . S
C1961 C1962 1.410 . S
C1961 C1969 1.503 . S
C1962 C1961 1.410 . S
C1962 C1963 1.392 . S
C1962 C1965 1.511 . S
C1963 C1959 1.376 . S
C1963 C1962 1.392 . S
C1963 H1975 0.929 . S
C1964 C1960 1.531 . S
C1964 H1976 0.960 . S
C1964 H1977 0.962 . S
C1964 H1978 0.960 . S
C1965 C1962 1.511 . S
C1965 H1979 0.961 . S
C1965 H1980 0.961 . S
C1965 H1981 0.961 . S
C1966 C1967 1.370 . S
C1966 C1968 1.363 . S
C1966 H1982 0.931 . S
C1967 C1966 1.370 . S
C1967 C1971 1.408 . S
C1968 C1966 1.363 . S
C1968 C1969 1.370 . S
C1968 C1972 1.524 . S
C1969 C1961 1.503 . S
C1969 C1968 1.370 . S
C1969 C1970 1.403 . S
C1970 C1969 1.403 . S
C1970 C1971 1.404 . S
C1970 C1973 1.539 . S
C1971 C1967 1.408 . S
C1971 C1970 1.404 . S
C1971 H1983 0.930 . S
C1972 C1968 1.524 . S
C1972 H1984 0.956 . S
C1972 H1985 0.961 . S
C1972 H1986 0.961 . S
C1973 C1970 1.539 . S
C1973 H1987 0.958 . S
C1973 H1988 0.961 . S
C1973 H1989 0.960 . S
H1974 C1958 0.931 . S
H1975 C1963 0.929 . S
H1976 C1964 0.960 . S
H1977 C1964 0.962 . S
H1978 C1964 0.960 . S
H1979 C1965 0.961 . S
H1980 C1965 0.961 . S
H1981 C1965 0.961 . S
H1982 C1966 0.931 . S
H1983 C1971 0.930 . S
H1984 C1972 0.956 . S
H1985 C1972 0.961 . S
H1986 C1972 0.961 . S
H1987 C1973 0.958 . S
H1988 C1973 0.961 . S
H1989 C1973 0.960 . S
C1990 C1991 1.391 . S
C1990 C1992 1.394 . S
C1990 H2006 0.931 . S
C1991 C1990 1.391 . S
C1991 C1995 1.376 . S
C1992 C1990 1.394 . S
C1992 C1993 1.369 . S
C1992 C1996 1.531 . S
C1993 C1992 1.369 . S
C1993 C1994 1.410 . S
C1993 C2001 1.503 . S
C1994 C1993 1.410 . S
C1994 C1995 1.392 . S
C1994 C1997 1.511 . S
C1995 C1991 1.376 . S
C1995 C1994 1.392 . S
C1995 H2007 0.929 . S
C1996 C1992 1.531 . S
C1996 H2008 0.960 . S
C1996 H2009 0.962 . S
C1996 H2010 0.960 . S
C1997 C1994 1.511 . S
C1997 H2011 0.961 . S
C1997 H2012 0.961 . S
C1997 H2013 0.961 . S
C1998 C1999 1.370 . S
C1998 C2000 1.363 . S
C1998 H2014 0.931 . S
C1999 C1998 1.370 . S
C1999 C2003 1.408 . S
C2000 C1998 1.363 . S
C2000 C2001 1.370 . S
C2000 C2004 1.524 . S
C2001 C1993 1.503 . S
C2001 C2000 1.370 . S
C2001 C2002 1.403 . S
C2002 C2001 1.403 . S
C2002 C2003 1.404 . S
C2002 C2005 1.539 . S
C2003 C1999 1.408 . S
C2003 C2002 1.404 . S
C2003 H2015 0.930 . S
C2004 C2000 1.524 . S
C2004 H2016 0.956 . S
C2004 H2017 0.961 . S
C2004 H2018 0.961 . S
C2005 C2002 1.539 . S
C2005 H2019 0.958 . S
C2005 H2020 0.961 . S
C2005 H2021 0.960 . S
H2006 C1990 0.931 . S
H2007 C1995 0.929 . S
H2008 C1996 0.960 . S
H2009 C1996 0.962 . S
H2010 C1996 0.960 . S
H2011 C1997 0.961 . S
H2012 C1997 0.961 . S
H2013 C1997 0.961 . S
H2014 C1998 0.931 . S
H2015 C2003 0.930 . S
H2016 C2004 0.956 . S
H2017 C2004 0.961 . S
H2018 C2004 0.961 . S
H2019 C2005 0.958 . S
H2020 C2005 0.961 . S
H2021 C2005 0.960 . S
C2022 C2023 1.391 . S
C2022 C2024 1.394 . S
C2022 H2038 0.931 . S
C2023 C2022 1.391 . S
C2023 C2027 1.376 . S
C2024 C2022 1.394 . S
C2024 C2025 1.369 . S
C2024 C2028 1.531 . S
C2025 C2024 1.369 . S
C2025 C2026 1.410 . S
C2025 C2033 1.503 . S
C2026 C2025 1.410 . S
C2026 C2027 1.392 . S
C2026 C2029 1.511 . S
C2027 C2023 1.376 . S
C2027 C2026 1.392 . S
C2027 H2039 0.929 . S
C2028 C2024 1.531 . S
C2028 H2040 0.960 . S
C2028 H2041 0.962 . S
C2028 H2042 0.960 . S
C2029 C2026 1.511 . S
C2029 H2043 0.961 . S
C2029 H2044 0.961 . S
C2029 H2045 0.961 . S
C2030 C2031 1.370 . S
C2030 C2032 1.363 . S
C2030 H2046 0.931 . S
C2031 C2030 1.370 . S
C2031 C2035 1.408 . S
C2032 C2030 1.363 . S
C2032 C2033 1.370 . S
C2032 C2036 1.524 . S
C2033 C2025 1.503 . S
C2033 C2032 1.370 . S
C2033 C2034 1.403 . S
C2034 C2033 1.403 . S
C2034 C2035 1.404 . S
C2034 C2037 1.539 . S
C2035 C2031 1.408 . S
C2035 C2034 1.404 . S
C2035 H2047 0.930 . S
C2036 C2032 1.524 . S
C2036 H2048 0.956 . S
C2036 H2049 0.961 . S
C2036 H2050 0.961 . S
C2037 C2034 1.539 . S
C2037 H2051 0.958 . S
C2037 H2052 0.961 . S
C2037 H2053 0.960 . S
H2038 C2022 0.931 . S
H2039 C2027 0.929 . S
H2040 C2028 0.960 . S
H2041 C2028 0.962 . S
H2042 C2028 0.960 . S
H2043 C2029 0.961 . S
H2044 C2029 0.961 . S
H2045 C2029 0.961 . S
H2046 C2030 0.931 . S
H2047 C2035 0.930 . S
H2048 C2036 0.956 . S
H2049 C2036 0.961 . S
H2050 C2036 0.961 . S
H2051 C2037 0.958 . S
H2052 C2037 0.961 . S
H2053 C2037 0.960 . S
C527 C347 1.618 . S
C519 C3 1.766 . S
C559 C348 1.189 . S
C551 C49 1.211 . S
C591 C342 1.182 . S
C583 C95 1.204 . S
C615 C146 0.448 . S
C623 C341 0.421 . S
C647 C186 1.334 . S
C655 C344 1.279 . S
C687 C346 1.333 . S
C679 C215 1.348 . S
C711 C249 0.434 . S
C719 C345 0.418 . S
C743 C302 1.756 . S
C751 C343 1.633 . S
C783 C378 3.529 . S
C775 C2 3.526 . S
C807 C43 2.152 . S
C815 C409 2.041 . S
C847 C377 3.156 . S
C839 C102 3.260 . S
C879 C412 1.337 . S
C871 C135 1.394 . S
C903 C175 1.642 . S
C911 C375 1.643 . S
C943 C407 2.379 . S
C935 C222 2.379 . S
C967 C243 1.886 . S
C975 C380 1.721 . S
C999 C306 1.629 . S
C1007 C414 1.687 . S
C1031 C9 0.954 . S
C1039 C410 0.956 . S
C1063 C182 1.736 . S
C1071 C413 1.630 . S
C1103 C381 1.448 1_556 S
C1095 C226 1.514 . S
C1135 C408 0.860 . S
C1127 C242 0.889 . S
C1159 C295 2.878 . S
C1167 C374 2.872 . S
C1191 C106 0.894 . S
C1199 C411 0.866 . S
C1231 C376 1.408 . S
C1223 C142 1.467 . S
C1255 C42 1.172 . S
C1263 C379 1.178 . S
C1287 C283 1.790 . S
C1295 C446 1.639 . S
C1319 C169 1.080 . S
C1327 C447 1.054 . S
C1359 C441 1.165 . S
C1351 C202 1.175 . S
C1391 C440 0.448 . S
C1383 C266 0.572 . S
C1415 C66 0.815 . S
C1423 C443 0.804 . S
C1455 C445 1.288 . S
C1447 C82 1.312 . S
C1479 C129 0.616 . S
C1487 C444 0.509 . S
C1511 C22 1.811 . S
C1519 C442 1.671 . S
C1543 C282 3.093 . S
C1551 C480 3.010 . S
C1583 C512 1.463 . S
C1575 C163 1.507 . S
C1607 C209 1.381 . S
C1615 C473 1.386 . S
C1639 C255 1.162 . S
C1647 C507 1.194 . S
C1679 C478 0.921 . S
C1671 C55 0.921 . S
C1703 C89 1.035 . S
C1711 C509 1.038 . S
C1743 C475 1.773 . S
C1735 C123 1.814 . S
C1775 C510 0.919 . S
C1767 C26 0.947 . S
C1807 C506 1.644 . S
C1799 C289 1.593 . S
C1831 C62 1.911 . S
C1839 C508 1.797 . S
C1863 C83 3.114 . S
C1871 C477 3.113 . S
C1903 C511 1.709 . S
C1895 C122 1.750 . S
C1927 C15 3.718 . S
C1935 C476 3.664 . S
C1959 C203 2.553 . S
C1967 C513 2.507 . S
C1999 C479 2.180 . S
C1991 C262 2.236 . S
C2031 C474 1.342 . S
C2023 C162 1.382 . S
