# Generated by pormake.
# Topology cor, (4,6)-cn, num edge types: 1
# Building blocks:
#     Node 0, Type 0, BuildingBlock: NAHDIM_clean_sbu_0, # of connection points: 4
#     Node 1, Type 0, BuildingBlock: NAHDIM_clean_sbu_0, # of connection points: 4
#     Node 2, Type 0, BuildingBlock: NAHDIM_clean_sbu_0, # of connection points: 4
#     Node 3, Type 0, BuildingBlock: NAHDIM_clean_sbu_0, # of connection points: 4
#     Node 4, Type 0, BuildingBlock: NAHDIM_clean_sbu_0, # of connection points: 4
#     Node 5, Type 0, BuildingBlock: NAHDIM_clean_sbu_0, # of connection points: 4
#     Node 6, Type 0, BuildingBlock: NAHDIM_clean_sbu_0, # of connection points: 4
#     Node 7, Type 0, BuildingBlock: NAHDIM_clean_sbu_0, # of connection points: 4
#     Node 8, Type 0, BuildingBlock: NAHDIM_clean_sbu_0, # of connection points: 4
#     Node 9, Type 0, BuildingBlock: NAHDIM_clean_sbu_0, # of connection points: 4
#     Node 10, Type 0, BuildingBlock: NAHDIM_clean_sbu_0, # of connection points: 4
#     Node 11, Type 0, BuildingBlock: NAHDIM_clean_sbu_0, # of connection points: 4
#     Node 12, Type 0, BuildingBlock: NAHDIM_clean_sbu_0, # of connection points: 4
#     Node 13, Type 0, BuildingBlock: NAHDIM_clean_sbu_0, # of connection points: 4
#     Node 14, Type 0, BuildingBlock: NAHDIM_clean_sbu_0, # of connection points: 4
#     Node 15, Type 0, BuildingBlock: NAHDIM_clean_sbu_0, # of connection points: 4
#     Node 16, Type 0, BuildingBlock: NAHDIM_clean_sbu_0, # of connection points: 4
#     Node 17, Type 0, BuildingBlock: NAHDIM_clean_sbu_0, # of connection points: 4
#     Node 18, Type 1, BuildingBlock: MIDCAF_clean_sbu_0, # of connection points: 6
#     Node 19, Type 1, BuildingBlock: MIDCAF_clean_sbu_0, # of connection points: 6
#     Node 20, Type 1, BuildingBlock: MIDCAF_clean_sbu_0, # of connection points: 6
#     Node 21, Type 1, BuildingBlock: MIDCAF_clean_sbu_0, # of connection points: 6
#     Node 22, Type 1, BuildingBlock: MIDCAF_clean_sbu_0, # of connection points: 6
#     Node 23, Type 1, BuildingBlock: MIDCAF_clean_sbu_0, # of connection points: 6
#     Node 24, Type 1, BuildingBlock: MIDCAF_clean_sbu_0, # of connection points: 6
#     Node 25, Type 1, BuildingBlock: MIDCAF_clean_sbu_0, # of connection points: 6
#     Node 26, Type 1, BuildingBlock: MIDCAF_clean_sbu_0, # of connection points: 6
#     Node 27, Type 1, BuildingBlock: MIDCAF_clean_sbu_0, # of connection points: 6
#     Node 28, Type 1, BuildingBlock: MIDCAF_clean_sbu_0, # of connection points: 6
#     Node 29, Type 1, BuildingBlock: MIDCAF_clean_sbu_0, # of connection points: 6
#     Edge 30, Type (0, 1), BuildingBlock: OJICUG_clean_linker_0, # of connection points: 2
#     Edge 31, Type (0, 1), BuildingBlock: OJICUG_clean_linker_0, # of connection points: 2
#     Edge 32, Type (0, 1), BuildingBlock: OJICUG_clean_linker_0, # of connection points: 2
#     Edge 33, Type (0, 1), BuildingBlock: OJICUG_clean_linker_0, # of connection points: 2
#     Edge 34, Type (0, 1), BuildingBlock: OJICUG_clean_linker_0, # of connection points: 2
#     Edge 35, Type (0, 1), BuildingBlock: OJICUG_clean_linker_0, # of connection points: 2
#     Edge 36, Type (0, 1), BuildingBlock: OJICUG_clean_linker_0, # of connection points: 2
#     Edge 37, Type (0, 1), BuildingBlock: OJICUG_clean_linker_0, # of connection points: 2
#     Edge 38, Type (0, 1), BuildingBlock: OJICUG_clean_linker_0, # of connection points: 2
#     Edge 39, Type (0, 1), BuildingBlock: OJICUG_clean_linker_0, # of connection points: 2
#     Edge 40, Type (0, 1), BuildingBlock: OJICUG_clean_linker_0, # of connection points: 2
#     Edge 41, Type (0, 1), BuildingBlock: OJICUG_clean_linker_0, # of connection points: 2
#     Edge 42, Type (0, 1), BuildingBlock: OJICUG_clean_linker_0, # of connection points: 2
#     Edge 43, Type (0, 1), BuildingBlock: OJICUG_clean_linker_0, # of connection points: 2
#     Edge 44, Type (0, 1), BuildingBlock: OJICUG_clean_linker_0, # of connection points: 2
#     Edge 45, Type (0, 1), BuildingBlock: OJICUG_clean_linker_0, # of connection points: 2
#     Edge 46, Type (0, 1), BuildingBlock: OJICUG_clean_linker_0, # of connection points: 2
#     Edge 47, Type (0, 1), BuildingBlock: OJICUG_clean_linker_0, # of connection points: 2
#     Edge 48, Type (0, 1), BuildingBlock: OJICUG_clean_linker_0, # of connection points: 2
#     Edge 49, Type (0, 1), BuildingBlock: OJICUG_clean_linker_0, # of connection points: 2
#     Edge 50, Type (0, 1), BuildingBlock: OJICUG_clean_linker_0, # of connection points: 2
#     Edge 51, Type (0, 1), BuildingBlock: OJICUG_clean_linker_0, # of connection points: 2
#     Edge 52, Type (0, 1), BuildingBlock: OJICUG_clean_linker_0, # of connection points: 2
#     Edge 53, Type (0, 1), BuildingBlock: OJICUG_clean_linker_0, # of connection points: 2
#     Edge 54, Type (0, 1), BuildingBlock: OJICUG_clean_linker_0, # of connection points: 2
#     Edge 55, Type (0, 1), BuildingBlock: OJICUG_clean_linker_0, # of connection points: 2
#     Edge 56, Type (0, 1), BuildingBlock: OJICUG_clean_linker_0, # of connection points: 2
#     Edge 57, Type (0, 1), BuildingBlock: OJICUG_clean_linker_0, # of connection points: 2
#     Edge 58, Type (0, 1), BuildingBlock: OJICUG_clean_linker_0, # of connection points: 2
#     Edge 59, Type (0, 1), BuildingBlock: OJICUG_clean_linker_0, # of connection points: 2
#     Edge 60, Type (0, 1), BuildingBlock: OJICUG_clean_linker_0, # of connection points: 2
#     Edge 61, Type (0, 1), BuildingBlock: OJICUG_clean_linker_0, # of connection points: 2
#     Edge 62, Type (0, 1), BuildingBlock: OJICUG_clean_linker_0, # of connection points: 2
#     Edge 63, Type (0, 1), BuildingBlock: OJICUG_clean_linker_0, # of connection points: 2
#     Edge 64, Type (0, 1), BuildingBlock: OJICUG_clean_linker_0, # of connection points: 2
#     Edge 65, Type (0, 1), BuildingBlock: OJICUG_clean_linker_0, # of connection points: 2
#     Edge 66, Type (0, 1), BuildingBlock: OJICUG_clean_linker_0, # of connection points: 2
#     Edge 67, Type (0, 1), BuildingBlock: OJICUG_clean_linker_0, # of connection points: 2
#     Edge 68, Type (0, 1), BuildingBlock: OJICUG_clean_linker_0, # of connection points: 2
#     Edge 69, Type (0, 1), BuildingBlock: OJICUG_clean_linker_0, # of connection points: 2
#     Edge 70, Type (0, 1), BuildingBlock: OJICUG_clean_linker_0, # of connection points: 2
#     Edge 71, Type (0, 1), BuildingBlock: OJICUG_clean_linker_0, # of connection points: 2
#     Edge 72, Type (0, 1), BuildingBlock: OJICUG_clean_linker_0, # of connection points: 2
#     Edge 73, Type (0, 1), BuildingBlock: OJICUG_clean_linker_0, # of connection points: 2
#     Edge 74, Type (0, 1), BuildingBlock: OJICUG_clean_linker_0, # of connection points: 2
#     Edge 75, Type (0, 1), BuildingBlock: OJICUG_clean_linker_0, # of connection points: 2
#     Edge 76, Type (0, 1), BuildingBlock: OJICUG_clean_linker_0, # of connection points: 2
#     Edge 77, Type (0, 1), BuildingBlock: OJICUG_clean_linker_0, # of connection points: 2
#     Edge 78, Type (0, 1), BuildingBlock: OJICUG_clean_linker_0, # of connection points: 2
#     Edge 79, Type (0, 1), BuildingBlock: OJICUG_clean_linker_0, # of connection points: 2
#     Edge 80, Type (0, 1), BuildingBlock: OJICUG_clean_linker_0, # of connection points: 2
#     Edge 81, Type (0, 1), BuildingBlock: OJICUG_clean_linker_0, # of connection points: 2
#     Edge 82, Type (0, 1), BuildingBlock: OJICUG_clean_linker_0, # of connection points: 2
#     Edge 83, Type (0, 1), BuildingBlock: OJICUG_clean_linker_0, # of connection points: 2
#     Edge 84, Type (0, 1), BuildingBlock: OJICUG_clean_linker_0, # of connection points: 2
#     Edge 85, Type (0, 1), BuildingBlock: OJICUG_clean_linker_0, # of connection points: 2
#     Edge 86, Type (0, 1), BuildingBlock: OJICUG_clean_linker_0, # of connection points: 2
#     Edge 87, Type (0, 1), BuildingBlock: OJICUG_clean_linker_0, # of connection points: 2
#     Edge 88, Type (0, 1), BuildingBlock: OJICUG_clean_linker_0, # of connection points: 2
#     Edge 89, Type (0, 1), BuildingBlock: OJICUG_clean_linker_0, # of connection points: 2
#     Edge 90, Type (0, 1), BuildingBlock: OJICUG_clean_linker_0, # of connection points: 2
#     Edge 91, Type (0, 1), BuildingBlock: OJICUG_clean_linker_0, # of connection points: 2
#     Edge 92, Type (0, 1), BuildingBlock: OJICUG_clean_linker_0, # of connection points: 2
#     Edge 93, Type (0, 1), BuildingBlock: OJICUG_clean_linker_0, # of connection points: 2
#     Edge 94, Type (0, 1), BuildingBlock: OJICUG_clean_linker_0, # of connection points: 2
#     Edge 95, Type (0, 1), BuildingBlock: OJICUG_clean_linker_0, # of connection points: 2
#     Edge 96, Type (0, 1), BuildingBlock: OJICUG_clean_linker_0, # of connection points: 2
#     Edge 97, Type (0, 1), BuildingBlock: OJICUG_clean_linker_0, # of connection points: 2
#     Edge 98, Type (0, 1), BuildingBlock: OJICUG_clean_linker_0, # of connection points: 2
#     Edge 99, Type (0, 1), BuildingBlock: OJICUG_clean_linker_0, # of connection points: 2
#     Edge 100, Type (0, 1), BuildingBlock: OJICUG_clean_linker_0, # of connection points: 2
#     Edge 101, Type (0, 1), BuildingBlock: OJICUG_clean_linker_0, # of connection points: 2
# Relax obj value: 0.159
# Max RMSD: 0.191
# Mean RMSD: 0.174
data_MOF--net-cor--node1-NAHDIM_clean_sbu_0--node2-MIDCAF_clean_sbu_0--edge1-OJICUG_clean_linker_0
_symmetry_space_group_name_H-M    P1
_symmetry_Int_Tables_number       1
_symmetry_cell_setting            triclinic
loop_
_symmetry_equiv_pos_as_xyz
'x, y, z'
_cell_length_a     29.634945
_cell_length_b     29.209418
_cell_length_c     66.015698
_cell_angle_alpha  91.786797
_cell_angle_beta   89.230979
_cell_angle_gamma 121.46169
loop_
_atom_site_label
_atom_site_type_symbol
_atom_site_fract_x
_atom_site_fract_y
_atom_site_fract_z
_atom_type_partial_charge
C0 C 0.67456 0.12083 0.29795 0.0
O1 O 0.63747 0.0702 0.295 0.0
O2 O 0.65094 0.00892 0.32562 0.0
Zn3 Zn 0.72259 0.07386 0.31941 0.0
O4 O 0.76198 0.06151 0.29655 0.0
C5 C 0.81706 0.12968 0.34462 0.0
O6 O 0.83623 0.16008 0.32873 0.0
O7 O 0.7133 0.13282 0.30964 0.0
C8 C 0.75273 0.05874 0.2776 0.0
O9 O 0.71118 0.05887 0.27108 0.0
C10 C 0.62677 0.96899 0.31339 0.0
O11 O 0.64956 0.96848 0.29627 0.0
O12 O 0.76835 0.09299 0.34462 0.0
C13 C 0.04269 0.68291 0.33786 0.0
O14 O 0.01225 0.67206 0.35385 0.0
O15 O 0.9102 0.63132 0.30381 0.0
Zn16 Zn 0.96549 0.7 0.3179 0.0
O17 O 0.94441 0.72148 0.34441 0.0
C18 C -0.01556 0.75628 0.27934 0.0
O19 O -0.00911 0.71891 0.27077 0.0
O20 O 0.03069 0.69648 0.3216 0.0
C21 C 0.90117 0.72049 0.34665 0.0
O22 O 0.86432 0.696 0.3327 0.0
C23 C 0.87823 0.63395 0.29192 0.0
O24 O 0.8759 0.67762 0.29216 0.0
O25 O -0.02105 0.75756 0.29849 0.0
C26 C 0.39623 0.34095 0.28511 0.0
O27 O 0.37458 0.36765 0.27917 0.0
O28 O 0.32917 0.37632 0.32678 0.0
Zn29 Zn 0.31695 0.30442 0.3166 0.0
O30 O 0.25696 0.2689 0.29645 0.0
C31 C 0.28285 0.25491 0.35686 0.0
O32 O 0.29115 0.30164 0.36341 0.0
O33 O 0.38038 0.31438 0.30131 0.0
C34 C 0.2551 0.23372 0.28403 0.0
O35 O 0.29244 0.22228 0.28462 0.0
C36 C 0.3167 0.40086 0.31462 0.0
O37 O 0.29467 0.37736 0.2972 0.0
O38 O 0.29479 0.24997 0.33866 0.0
C39 C 0.32457 0.95373 0.82812 0.0
O40 O 0.32303 0.98378 0.84301 0.0
O41 O 0.35007 0.08228 0.7947 0.0
Zn42 Zn 0.28992 0.0123 0.80416 0.0
O43 O 0.25745 0.02404 0.82952 0.0
C44 C 0.24411 0.00136 0.76354 0.0
O45 O 0.29314 0.03435 0.75794 0.0
O46 O 0.31294 0.95941 0.8102 0.0
C47 C 0.276 0.06613 0.84086 0.0
O48 O 0.32181 0.10895 0.83667 0.0
C49 C 0.34272 0.12041 0.79101 0.0
O50 O 0.29664 0.11525 0.79464 0.0
O51 O 0.23456 0.98472 0.78167 0.0
C52 C 0.88103 0.28842 0.78477 0.0
O53 O 0.91738 0.30296 0.77069 0.0
O54 O 0.01342 0.35449 0.82326 0.0
Zn55 Zn 0.95754 0.28376 0.80998 0.0
O56 O -0.01636 0.26284 0.78481 0.0
C57 C 0.93647 0.22536 0.84834 0.0
O58 O 0.95311 0.27103 0.85834 0.0
O59 O 0.8913 0.28208 0.80274 0.0
C60 C 0.94855 0.22034 0.77547 0.0
O61 O 0.9 0.19492 0.78253 0.0
C62 C 0.01615 0.39878 0.8205 0.0
O63 O -0.01785 0.39968 0.80821 0.0
O64 O 0.93617 0.22414 0.82908 0.0
C65 C 0.59119 0.66455 0.83578 0.0
O66 O 0.62165 0.67098 0.85122 0.0
O67 O 0.69507 0.63882 0.80051 0.0
Zn68 Zn 0.68757 0.69869 0.81192 0.0
O69 O 0.73265 0.73075 0.83725 0.0
C70 C 0.72267 0.74454 0.77175 0.0
O71 O 0.70008 0.69423 0.76545 0.0
O72 O 0.61066 0.67375 0.81797 0.0
C73 C 0.7541 0.71027 0.84715 0.0
O74 O 0.74601 0.66301 0.84159 0.0
C75 C 0.74059 0.64785 0.79555 0.0
O76 O 0.78298 0.69514 0.79935 0.0
O77 O 0.71887 0.75538 0.79035 0.0
C78 C 0.37838 0.42297 0.61731 0.0
O79 O 0.42371 0.42658 0.61344 0.0
O80 O 0.28412 0.2559 0.6433 0.0
Zn81 Zn 0.35164 0.32097 0.63376 0.0
O82 O 0.38347 0.30163 0.61015 0.0
C83 C 0.39139 0.3275 0.67488 0.0
O84 O 0.34216 0.29134 0.67916 0.0
O85 O 0.34178 0.3816 0.62602 0.0
C86 C 0.38379 0.31183 0.5915 0.0
O87 O 0.35882 0.33527 0.58555 0.0
C88 C 0.27984 0.21022 0.64336 0.0
O89 O 0.31746 0.20449 0.63533 0.0
O90 O 0.40332 0.34597 0.65709 0.0
C91 C 0.75229 0.06351 0.65672 0.0
O92 O 0.71848 0.05789 0.67094 0.0
O93 O 0.61509 -0.00274 0.62413 0.0
Zn94 Zn 0.67771 0.07033 0.63174 0.0
O95 O 0.66462 0.10468 0.65621 0.0
C96 C 0.68049 0.10493 0.58999 0.0
O97 O 0.65477 0.05385 0.58453 0.0
O98 O 0.74217 0.06729 0.63838 0.0
C99 C 0.62693 0.08335 0.66885 0.0
O100 O 0.58819 0.03337 0.66596 0.0
C101 C 0.5728 -0.00938 0.61642 0.0
O102 O 0.56773 0.03235 0.61449 0.0
O103 O 0.69411 0.11909 0.60841 0.0
C104 C 0.02027 0.60576 0.61829 0.0
O105 O -0.02132 0.56223 0.61074 0.0
O106 O 0.93773 0.68477 0.64546 0.0
Zn107 Zn 0.93997 0.61972 0.63618 0.0
O108 O 0.89606 0.58263 0.61118 0.0
C109 C 0.90941 0.5839 0.67739 0.0
O110 O 0.93115 0.63521 0.68202 0.0
O111 O 0.0137 0.63722 0.63003 0.0
C112 C 0.88669 0.60336 0.5964 0.0
O113 O 0.90319 0.65475 0.59703 0.0
C114 C 0.89389 0.68152 0.64909 0.0
O115 O 0.84929 0.63696 0.64445 0.0
O116 O 0.91053 0.56885 0.65917 0.0
C117 C 0.93275 0.25005 0.16489 0.0
O118 O 0.9176 0.27421 0.17794 0.0
O119 O 0.0157 0.38203 0.1215 0.0
Zn120 Zn 0.94858 0.33247 0.13676 0.0
O121 O 0.93462 0.37085 0.15976 0.0
C122 C 0.88467 0.29445 0.09894 0.0
O123 O 0.92863 0.30901 0.08899 0.0
O124 O 0.94883 0.26924 0.14742 0.0
C125 C 0.93689 0.41509 0.15753 0.0
O126 O 0.9543 0.43966 0.14028 0.0
C127 C 0.05796 0.38157 0.12389 0.0
O128 O 0.05838 0.34847 0.1368 0.0
O129 O 0.88603 0.30192 0.11806 0.0
C130 C 0.60012 0.6748 0.10237 0.0
O131 O 0.62246 0.6645 0.08703 0.0
O132 O 0.72305 0.69598 0.1415 0.0
Zn133 Zn 0.6567 0.63867 0.12695 0.0
O134 O 0.67753 0.61527 0.10105 0.0
C135 C 0.5961 0.56314 0.16095 0.0
O136 O 0.59556 0.60228 0.17107 0.0
O137 O 0.6092 0.66694 0.12035 0.0
C138 C 0.72473 0.62922 0.09635 0.0
O139 O 0.76383 0.66389 0.10815 0.0
C140 C 0.73771 0.69732 0.15968 0.0
O141 O 0.70735 0.65839 0.17189 0.0
O142 O 0.61796 0.57159 0.14361 0.0
C143 C 0.28075 0.04681 0.17612 0.0
O144 O 0.30565 0.03528 0.18943 0.0
O145 O 0.32448 0.96599 0.13492 0.0
Zn146 Zn 0.35159 0.04131 0.14646 0.0
O147 O 0.40338 0.05969 0.16936 0.0
C148 C 0.37523 0.10966 0.10975 0.0
O149 O 0.32759 0.07638 0.1025 0.0
O150 O 0.29255 0.04894 0.15744 0.0
C151 C 0.44247 0.05308 0.16831 0.0
O152 O 0.44729 0.02832 0.15222 0.0
C153 C 0.3262 0.95313 0.11643 0.0
O154 O 0.3475 -0.00923 0.10294 0.0
O155 O 0.39019 0.09998 0.12622 0.0
C156 C -0.01638 0.72216 0.94922 0.0
O157 O -0.01404 0.69202 0.93456 0.0
O158 O 0.95816 0.60701 0.98815 0.0
Zn159 Zn 0.02024 0.66883 0.97471 0.0
O160 O 0.0441 0.64596 0.94937 0.0
C161 C 0.08115 0.70654 1.01326 0.0
O162 O 0.03523 0.68082 1.02248 0.0
O163 O -0.00257 0.71949 0.96709 0.0
C164 C 0.0379 0.59999 0.94569 0.0
O165 O 0.01253 0.56191 0.95885 0.0
C166 C 0.91647 0.58091 0.97749 0.0
O167 O 0.91771 0.59348 0.95847 0.0
O168 O 0.08257 0.70648 0.99397 0.0
C169 C 0.37865 0.35004 1.00298 0.0
O170 O 0.33236 0.32297 1.01186 0.0
O171 O 0.27357 0.31165 0.96007 0.0
Zn172 Zn 0.32452 0.38078 0.97509 0.0
O173 O 0.28995 0.39748 0.99838 0.0
C174 C 0.35144 0.44022 0.93667 0.0
O175 O 0.32857 0.39289 0.9274 0.0
O176 O 0.38363 0.37636 0.98722 0.0
C177 C 0.24309 0.38843 0.99881 0.0
O178 O 0.21165 0.36358 0.98323 0.0
C179 C 0.28257 0.27387 0.95714 0.0
O180 O 0.32596 0.27875 0.96438 0.0
O181 O 0.35425 0.44319 0.95596 0.0
C182 C 0.71743 0.00374 0.94354 0.0
O183 O 0.68693 0.00086 0.92868 0.0
O184 O 0.61609 0.01505 0.98333 0.0
Zn185 Zn 0.62153 0.95814 0.96783 0.0
O186 O 0.57622 0.93531 0.9423 0.0
C187 C 0.59485 0.89274 1.00445 0.0
O188 O 0.62115 0.93876 1.01456 0.0
O189 O 0.69763 -0.01298 0.96092 0.0
C190 C 0.5432 0.94944 0.9386 0.0
O191 O 0.53956 0.98291 0.95129 0.0
C192 C 0.65182 0.04968 0.99525 0.0
O193 O 0.69555 0.04935 0.99775 0.0
O194 O 0.59229 0.89256 0.9852 0.0
C195 C 0.58893 0.56663 0.48489 0.0
O196 O 0.59781 0.60107 0.49983 0.0
O197 O 0.67784 0.71199 0.46063 0.0
Zn198 Zn 0.60054 0.6523 0.46179 0.0
O199 O 0.56013 0.66211 0.48476 0.0
C200 C 0.52815 0.60497 0.42704 0.0
O201 O 0.51029 0.55913 0.43603 0.0
O202 O 0.59193 0.58099 0.46669 0.0
C203 C 0.57795 0.69054 0.501 0.0
O204 O 0.62911 0.72364 0.50338 0.0
C205 C 0.70148 0.72439 0.4436 0.0
O206 O 0.67554 0.69718 0.4272 0.0
O207 O 0.5652 0.64807 0.43532 0.0
C208 C 0.26678 0.00478 0.44691 0.0
O209 O 0.29571 0.00831 0.4311 0.0
O210 O 0.39612 0.02665 0.4771 0.0
Zn211 Zn 0.32809 0.96577 0.46606 0.0
O212 O 0.3412 0.94097 0.43861 0.0
C213 C 0.3217 0.91672 0.50472 0.0
O214 O 0.34912 0.96677 0.51144 0.0
O215 O 0.27365 -0.01222 0.46345 0.0
C216 C 0.38197 0.96784 0.4276 0.0
O217 O 0.41938 0.01617 0.43363 0.0
C218 C 0.435 0.02047 0.47983 0.0
O219 O 0.43202 0.97569 0.47379 0.0
O220 O 0.30563 0.90654 0.48635 0.0
C221 C 0.95796 0.44413 0.48012 0.0
O222 O -0.00056 0.47702 0.49127 0.0
O223 O 0.015 0.33963 0.45442 0.0
Zn224 Zn 0.02708 0.41133 0.46502 0.0
O225 O 0.06323 0.43518 0.49234 0.0
C226 C 0.06661 0.47376 0.42752 0.0
O227 O 0.02642 0.43383 0.41767 0.0
O228 O 0.96002 0.41114 0.46766 0.0
C229 C 0.07204 0.41176 0.50626 0.0
O230 O 0.05829 0.36132 0.50368 0.0
C231 C -0.02113 0.29583 0.46182 0.0
O232 O 0.94974 0.29759 0.47665 0.0
O233 O 0.07308 0.47005 0.44626 0.0
Zn234 Zn -0.00911 0.00495 0.17539 0.0
Zn235 Zn 0.96541 0.00392 0.24565 0.0
Zn236 Zn -0.02065 0.00302 0.21232 0.0
C237 C 0.96088 0.91176 0.23999 0.0
C238 C 0.06242 0.08801 0.24174 0.0
O239 O 0.94648 0.05026 0.20065 0.0
O240 O 0.9708 0.05657 0.16865 0.0
C241 C 0.92054 0.89789 0.18386 0.0
O242 O 0.94785 0.91994 0.22252 0.0
O243 O -0.02019 0.94898 0.2533 0.0
O244 O 0.02175 0.07998 0.25121 0.0
O245 O 0.05712 0.0558 0.22689 0.0
O246 O 0.93973 0.92902 0.16916 0.0
O247 O 0.93335 0.91707 0.20215 0.0
O248 O 0.06555 0.04052 0.20735 0.0
O249 O 0.06603 0.02933 0.17411 0.0
C250 C 0.09047 0.04385 0.1908 0.0
O251 O 0.92742 0.03568 0.22045 0.0
O252 O 0.89093 0.98406 0.24658 0.0
C253 C 0.95034 0.06922 0.18292 0.0
C254 C 0.89094 0.01567 0.23406 0.0
Zn255 Zn -0.00409 0.01881 0.37322 0.0
Zn256 Zn -0.00934 0.01804 0.45205 0.0
Zn257 Zn -0.00666 0.02077 0.41239 0.0
C258 C -0.02552 0.10052 0.44102 0.0
C259 C 0.90732 0.9187 0.43809 0.0
O260 O 0.94633 0.93523 0.40107 0.0
O261 O 0.95627 0.94094 0.36776 0.0
C262 C 0.10066 0.0737 0.3856 0.0
O263 O -0.02794 0.07995 0.42319 0.0
O264 O -0.01483 0.08264 0.45625 0.0
O265 O 0.92466 0.94682 0.45424 0.0
O266 O 0.93083 0.9381 0.42112 0.0
O267 O 0.07311 0.05848 0.36963 0.0
O268 O 0.07802 0.06109 0.4031 0.0
O269 O 0.96089 0.07034 0.40225 0.0
O270 O 0.96071 0.05922 0.36892 0.0
C271 C 0.95027 0.07864 0.38433 0.0
O272 O 0.07291 0.04066 0.42273 0.0
O273 O 0.05965 0.02257 0.45527 0.0
C274 C 0.93857 0.91272 0.38326 0.0
C275 C 0.0891 0.03431 0.43988 0.0
Zn276 Zn -0.00494 0.00789 0.94713 0.0
Zn277 Zn -0.00625 -0.00779 0.86717 0.0
Zn278 Zn -0.00623 0.00137 0.90684 0.0
C279 C 0.9478 0.05256 0.87734 0.0
C280 C 0.93195 0.88909 0.88064 0.0
O281 O 0.96394 0.92028 0.91801 0.0
O282 O -0.02335 0.93348 0.95113 0.0
C283 C 0.09743 0.0788 0.93402 0.0
O284 O 0.95465 0.04207 0.89544 0.0
O285 O 0.96193 0.03554 0.86222 0.0
O286 O 0.94797 0.91373 0.86427 0.0
O287 O 0.94677 0.91493 0.89782 0.0
O288 O 0.07002 0.06562 0.94996 0.0
O289 O 0.0762 0.05705 0.91672 0.0
O290 O 0.94196 0.03164 0.91601 0.0
O291 O 0.93879 0.02497 0.94934 0.0
C292 C 0.92272 0.03449 0.9333 0.0
O293 O 0.07732 0.04123 0.89657 0.0
O294 O 0.07023 0.02516 0.86341 0.0
C295 C 0.96356 0.90257 0.93568 0.0
C296 C 0.09854 0.04448 0.8791 0.0
Zn297 Zn -0.01077 0.00517 0.73334 0.0
Zn298 Zn -0.0234 0.98264 0.66236 0.0
Zn299 Zn -0.01903 -0.0085 0.70047 0.0
C300 C 0.92189 0.87857 0.67707 0.0
C301 C 0.08359 0.03954 0.67225 0.0
O302 O 0.96477 0.05505 0.71097 0.0
O303 O 0.02757 0.08523 0.73389 0.0
C304 C 0.89277 0.91957 0.72926 0.0
O305 O 0.93113 0.90422 0.69422 0.0
O306 O 0.9385 0.90372 0.66081 0.0
O307 O 0.05336 0.02401 0.65701 0.0
O308 O 0.06414 0.02829 0.69028 0.0
O309 O 0.91221 0.96411 0.73874 0.0
O310 O 0.919 0.91558 0.71425 0.0
O311 O 0.06132 0.00969 0.7101 0.0
O312 O 0.02765 0.96853 0.73852 0.0
C313 C 0.06469 0.98642 0.72582 0.0
O314 O 0.94386 0.03595 0.69082 0.0
O315 O 0.9356 0.01698 0.6579 0.0
C316 C -0.00464 0.09189 0.72402 0.0
C317 C 0.92663 0.03785 0.67324 0.0
Zn318 Zn 0.65591 0.3476 0.55611 0.0
Zn319 Zn 0.64011 0.32536 0.4847 0.0
Zn320 Zn 0.64962 0.33712 0.52286 0.0
C321 C 0.74758 0.39397 0.49355 0.0
C322 C 0.60289 0.22438 0.49932 0.0
O323 O 0.58158 0.34294 0.53475 0.0
O324 O 0.57985 0.30199 0.56226 0.0
C325 C 0.72932 0.44164 0.54579 0.0
O326 O 0.72955 0.39213 0.51154 0.0
O327 O 0.71627 0.36662 0.47925 0.0
O328 O 0.60428 0.2468 0.4831 0.0
O329 O 0.62085 0.25213 0.51595 0.0
O330 O 0.68983 0.42726 0.55712 0.0
O331 O 0.72736 0.40809 0.53214 0.0
O332 O 0.64483 0.26548 0.53518 0.0
O333 O 0.70035 0.31562 0.55936 0.0
C334 C 0.67741 0.27183 0.54927 0.0
O335 O 0.59504 0.36276 0.51513 0.0
O336 O 0.60063 0.36202 0.48172 0.0
C337 C 0.55673 0.31668 0.55059 0.0
C338 C 0.58533 0.37456 0.49773 0.0
Zn339 Zn 0.64457 0.34322 0.78339 0.0
Zn340 Zn 0.64231 0.33483 0.71107 0.0
Zn341 Zn 0.64497 0.34041 0.74435 0.0
C342 C 0.56882 0.35516 0.71808 0.0
C343 C 0.73967 0.41311 0.71891 0.0
O344 O 0.67627 0.29077 0.75288 0.0
O345 O 0.68126 0.30345 0.78616 0.0
C346 C 0.53995 0.29644 0.77033 0.0
O347 O 0.56862 0.3274 0.73292 0.0
O348 O 0.60921 0.37776 0.70696 0.0
O349 O 0.72019 0.37047 0.70818 0.0
O350 O 0.71129 0.41641 0.73315 0.0
O351 O 0.56682 0.30628 0.78631 0.0
O352 O 0.56278 0.30926 0.75295 0.0
O353 O 0.69843 0.42501 0.75308 0.0
O354 O 0.68804 0.42217 0.78638 0.0
C355 C 0.70796 0.44881 0.7706 0.0
O356 O 0.65507 0.2738 0.7331 0.0
O357 O 0.59767 0.25485 0.70878 0.0
C358 C 0.69128 0.28503 0.77032 0.0
C359 C 0.62342 0.24086 0.71931 0.0
Zn360 Zn 0.65951 0.36275 0.25349 0.0
Zn361 Zn 0.65875 0.3388 0.18395 0.0
Zn362 Zn 0.65969 0.35119 0.22105 0.0
C363 C 0.60105 0.38824 0.19135 0.0
C364 C 0.61349 0.23637 0.19981 0.0
O365 O 0.64712 0.27915 0.23675 0.0
O366 O 0.70326 0.33261 0.26025 0.0
C367 C 0.73444 0.4549 0.24333 0.0
O368 O 0.60961 0.38121 0.20976 0.0
O369 O 0.61775 0.37187 0.17686 0.0
O370 O 0.62359 0.25978 0.18313 0.0
O371 O 0.62615 0.26395 0.21659 0.0
O372 O 0.69189 0.44143 0.25249 0.0
O373 O 0.73658 0.42029 0.23144 0.0
O374 O 0.59448 0.36447 0.22996 0.0
O375 O 0.58248 0.31639 0.25658 0.0
C376 C 0.565 0.33661 0.24475 0.0
O377 O 0.74408 0.40148 0.21205 0.0
O378 O 0.73554 0.38147 0.17924 0.0
C379 C 0.67745 0.2865 0.25191 0.0
C380 C 0.76473 0.40556 0.19442 0.0
Zn381 Zn 0.66254 0.34986 0.08 0.0
Zn382 Zn 0.63247 0.31219 1.00856 0.0
Zn383 Zn 0.64741 0.33062 1.04286 0.0
C384 C 0.63307 0.22783 1.02093 0.0
C385 C 0.72558 0.40388 1.00982 0.0
O386 O 0.69761 0.41946 1.04655 0.0
O387 O 0.69963 0.42842 0.07996 0.0
C388 C 0.55362 0.2886 0.07548 0.0
O389 O 0.66182 0.26545 1.034 0.0
O390 O 0.60428 0.23436 1.00892 0.0
O391 O 0.70501 0.36128 0.99902 0.0
O392 O 0.70459 0.40416 1.02702 0.0
O393 O 0.58879 0.30931 0.08908 0.0
O394 O 0.56716 0.29551 0.05663 0.0
O395 O 0.68708 0.28819 1.05266 0.0
O396 O 0.70434 0.31696 0.0846 0.0
C397 C 0.70827 0.29071 0.06989 0.0
O398 O 0.56538 0.31096 1.03702 0.0
O399 O 0.58407 0.33795 1.00567 0.0
C400 C 0.71116 0.44936 0.06279 0.0
C401 C 0.55453 0.32714 1.02089 0.0
Zn402 Zn 0.31187 0.67818 0.9109 0.0
Zn403 Zn 0.31088 0.66296 0.83365 0.0
Zn404 Zn 0.31098 0.66878 0.87268 0.0
C405 C 0.38679 0.64086 0.84658 0.0
C406 C 0.20834 0.5889 0.84522 0.0
O407 O 0.22649 0.62564 0.88316 0.0
O408 O 0.23627 0.64247 0.91623 0.0
C409 C 0.37049 0.78153 0.89891 0.0
O410 O 0.36615 0.64117 0.8639 0.0
O411 O 0.37013 0.65051 0.83074 0.0
O412 O 0.23747 0.60262 0.82973 0.0
O413 O 0.22781 0.61124 0.86269 0.0
O414 O 0.35408 0.75589 0.91503 0.0
O415 O 0.3569 0.75636 0.88154 0.0
O416 O 0.35097 0.62763 0.88438 0.0
O417 O 0.34561 0.63802 0.91744 0.0
C418 C 0.35849 0.61875 0.90271 0.0
O419 O 0.33838 0.75087 0.86137 0.0
O420 O 0.32454 0.73522 0.82843 0.0
C421 C 0.20654 0.62171 0.90099 0.0
C422 C 0.3369 0.7671 0.84354 0.0
Zn423 Zn 0.32236 0.67117 0.1075 0.0
Zn424 Zn 0.30822 0.66485 1.02979 0.0
Zn425 Zn 0.31553 0.66789 0.06801 0.0
C426 C 0.26344 0.72223 1.04241 0.0
C427 C 0.41473 0.71469 1.03681 0.0
O428 O 0.399 0.69537 0.07576 0.0
O429 O 0.39638 0.68983 0.1091 0.0
C430 C 0.2465 0.56616 0.09671 0.0
O431 O 0.275 0.71129 0.05968 0.0
O432 O 0.27717 0.70885 1.02623 0.0
O433 O 0.38257 0.69681 1.02217 0.0
O434 O 0.39727 0.70711 0.05518 0.0
O435 O 0.26699 0.59598 0.11227 0.0
O436 O 0.26107 0.58539 0.07887 0.0
O437 O 0.29348 0.72568 0.07998 0.0
O438 O 0.30684 0.72835 0.11297 0.0
C439 C 0.29505 0.74558 0.09787 0.0
O440 O 0.26707 0.58186 0.05771 0.0
O441 O 0.26118 0.58748 1.02467 0.0
C442 C 0.42175 0.69866 0.09273 0.0
C443 C 0.25051 0.55916 1.04006 0.0
Zn444 Zn 0.33101 0.67871 0.60957 0.0
Zn445 Zn 0.32058 0.65525 0.5423 0.0
Zn446 Zn 0.32565 0.6705 0.57499 0.0
C447 C 0.31407 0.74246 0.54646 0.0
C448 C 0.23718 0.5684 0.555 0.0
O449 O 0.36405 0.62626 0.584 0.0
O450 O 0.32405 0.60833 0.61354 0.0
C451 C 0.40584 0.77616 0.59504 0.0
O452 O 0.34442 0.74684 0.56118 0.0
O453 O 0.28702 0.69743 0.53739 0.0
O454 O 0.27591 0.57541 0.5444 0.0
O455 O 0.2433 0.60708 0.56691 0.0
O456 O 0.40204 0.74488 0.60863 0.0
O457 O 0.37139 0.75809 0.58063 0.0
O458 O 0.24339 0.63255 0.58561 0.0
O459 O 0.2675 0.68421 0.61315 0.0
C460 C 0.23148 0.65265 0.60089 0.0
O461 O 0.38566 0.64952 0.56585 0.0
O462 O 0.39734 0.69058 0.53722 0.0
C463 C 0.34818 0.59789 0.60004 0.0
C464 C 0.41424 0.67237 0.55018 0.0
Zn465 Zn 0.32738 0.69124 0.32288 0.0
Zn466 Zn 0.36042 0.71165 0.39605 0.0
Zn467 Zn 0.33964 0.69672 0.35974 0.0
C468 C 0.40894 0.65977 0.38288 0.0
C469 C 0.25094 0.64564 0.39262 0.0
O470 O 0.25597 0.67242 0.35447 0.0
O471 O 0.2631 0.6952 0.32253 0.0
C472 C 0.41855 0.78806 0.32997 0.0
O473 O 0.37863 0.6514 0.36761 0.0
O474 O 0.41285 0.69093 0.39728 0.0
O475 O 0.28798 0.66028 0.40523 0.0
O476 O 0.26158 0.65962 0.37405 0.0
O477 O 0.3957 0.75446 0.31558 0.0
O478 O 0.39889 0.77662 0.34795 0.0
O479 O 0.35586 0.63428 0.34834 0.0
O480 O 0.31975 0.6208 0.31806 0.0
C481 C 0.33956 0.60675 0.33153 0.0
O482 O 0.38401 0.7854 0.36717 0.0
O483 O 0.38478 0.78679 0.40066 0.0
C484 C 0.23636 0.68059 0.33864 0.0
C485 C 0.39325 0.81119 0.38436 0.0
C486 C 0.20636 0.16243 0.25711 0.0
C487 C 0.20875 0.20187 0.27064 0.0
H488 H 0.15794 0.09551 0.23711 0.0
C489 C 0.16479 0.20776 0.27234 0.0
H490 H 0.23981 0.15721 0.25532 0.0
C491 C 0.11817 0.1725 0.26187 0.0
C492 C 0.11463 0.13087 0.24937 0.0
H493 H 0.16549 0.23804 0.28246 0.0
H494 H 0.08414 0.17655 0.26421 0.0
C495 C 0.15967 0.1273 0.24652 0.0
C496 C 0.76956 0.01839 0.24665 0.0
C497 C 0.78903 0.05551 0.26306 0.0
H498 H 0.78809 0.97649 0.22389 0.0
C499 C 0.84375 0.08726 0.26638 0.0
H500 H 0.72739 -0.00642 0.24384 0.0
C501 C 0.87832 0.07932 0.2544 0.0
C502 C 0.85857 0.03857 0.23931 0.0
H503 H 0.85959 0.11655 0.27883 0.0
H504 H 0.92005 0.10141 0.25825 0.0
C505 C 0.80417 0.0092 0.23505 0.0
C506 C 0.93842 0.8059 0.27501 0.0
C507 C -0.02811 0.7894 0.26692 0.0
H508 H 0.90618 0.85568 0.27182 0.0
C509 C -0.00762 0.8049 0.2473 0.0
H510 H 0.92073 0.79345 0.28984 0.0
C511 C -0.01636 0.84079 0.23684 0.0
C512 C 0.95355 0.86037 0.24585 0.0
H513 H 0.01762 0.79195 0.24062 0.0
H514 H 0.00379 0.8565 0.22263 0.0
C515 C 0.92912 0.84066 0.26453 0.0
C516 C 0.22934 0.15486 0.35912 0.0
C517 C 0.24758 0.20568 0.36832 0.0
H518 H 0.16798 0.07186 0.35789 0.0
C519 C 0.22467 0.20864 0.38676 0.0
H520 H 0.24654 0.15078 0.34511 0.0
C521 C 0.18006 0.16277 0.39435 0.0
C522 C 0.15757 0.11366 0.38344 0.0
H523 H 0.2382 0.24702 0.3944 0.0
H524 H 0.15986 0.16715 0.40738 0.0
C525 C 0.18449 0.10939 0.36653 0.0
C526 C 0.83411 0.09243 0.37557 0.0
C527 C 0.85363 0.12906 0.35968 0.0
H528 H 0.85108 0.04901 0.39678 0.0
C529 C 0.90851 0.15883 0.35628 0.0
H530 H 0.79213 0.0692 0.37874 0.0
C531 C 0.94198 0.1471 0.3666 0.0
C532 C 0.92149 0.10624 0.3808 0.0
H533 H 0.92511 0.18776 0.34436 0.0
H534 H -0.01688 0.16649 0.36211 0.0
C535 C 0.86792 0.08126 0.38611 0.0
C536 C 0.86535 0.77836 0.35715 0.0
C537 C 0.89925 0.75942 0.3611 0.0
H538 H 0.85133 0.84296 0.3615 0.0
C539 C 0.93744 0.78511 0.37655 0.0
H540 H 0.83536 0.75952 0.34543 0.0
C541 C 0.94536 0.83218 0.38622 0.0
C542 C 0.91583 0.85459 0.3803 0.0
H543 H 0.96394 0.7713 0.38004 0.0
H544 H -0.02172 0.85404 0.39665 0.0
C545 C 0.87416 0.82602 0.36644 0.0
C546 C 0.79212 0.7803 0.87478 0.0
C547 C 0.79736 0.74531 0.86128 0.0
H548 H 0.83244 0.85285 0.89291 0.0
C549 C 0.84722 0.75124 0.8586 0.0
H550 H 0.75399 0.77642 0.87702 0.0
C551 C 0.89218 0.7957 0.86725 0.0
C552 C 0.8874 0.83343 0.87925 0.0
H553 H 0.8522 0.72493 0.84812 0.0
H554 H 0.93091 0.80318 0.86309 0.0
C555 C 0.83687 0.8236 0.88403 0.0
C556 C 0.233 0.11222 0.85673 0.0
C557 C 0.24125 0.06901 0.85629 0.0
H558 H 0.17953 0.13845 0.86497 0.0
C559 C 0.20915 0.02429 0.86811 0.0
H560 H 0.25711 0.14694 0.84759 0.0
C561 C 0.16626 0.02052 0.87867 0.0
C562 C 0.15413 0.06069 0.87705 0.0
H563 H 0.2149 -0.00944 0.86797 0.0
H564 H 0.13911 0.98343 0.88611 0.0
C565 C 0.18901 0.10766 0.86681 0.0
C566 C 0.94629 0.18015 0.87828 0.0
C567 C 0.92595 0.17681 0.8588 0.0
H568 H 0.96823 0.1416 0.89988 0.0
C569 C 0.90171 0.12746 0.84798 0.0
H570 H 0.96471 0.21756 0.88704 0.0
C571 C 0.90374 0.08443 0.85528 0.0
C572 C 0.92972 0.0898 0.87359 0.0
H573 H 0.88456 0.12322 0.83313 0.0
H574 H 0.88864 0.04835 0.84583 0.0
C575 C 0.94806 0.13665 0.88568 0.0
C576 C 0.77497 0.84118 0.76319 0.0
C577 C 0.75971 0.78801 0.75834 0.0
H578 H 0.82756 0.92388 0.75738 0.0
C579 C 0.78427 0.77764 0.74188 0.0
H580 H 0.75646 0.85042 0.77561 0.0
C581 C 0.82602 0.82013 0.73144 0.0
C582 C 0.84338 0.87349 0.73724 0.0
H583 H 0.77328 0.73689 0.7378 0.0
H584 H 0.8462 0.81128 0.71959 0.0
C585 C 0.81592 0.88329 0.75269 0.0
C586 C 0.20693 0.02743 0.73508 0.0
C587 C 0.1998 -0.00881 0.75022 0.0
H588 H 0.16917 0.05444 0.71508 0.0
C589 C 0.14863 0.94849 0.75421 0.0
H590 H 0.24608 0.06076 0.73163 0.0
C591 C 0.10518 0.94461 0.7446 0.0
C592 C 0.11166 0.9837 0.73096 0.0
H593 H 0.1419 0.91948 0.76552 0.0
H594 H 0.06602 0.91261 0.74886 0.0
C595 C 0.16303 0.0238 0.72551 0.0
C596 C 0.92182 0.15286 0.74692 0.0
C597 C 0.96226 0.19606 0.75831 0.0
H598 H 0.90095 0.08622 0.72666 0.0
C599 C 0.01499 0.21129 0.75462 0.0
H600 H 0.88078 0.14054 0.74922 0.0
C601 C 0.02646 0.18028 0.74144 0.0
C602 C -0.01453 0.13395 0.73158 0.0
H603 H 0.04706 0.24465 0.76301 0.0
H604 H 0.06706 0.19019 0.74016 0.0
C605 C 0.93337 0.12216 0.73364 0.0
C606 C 0.85572 0.52184 0.5741 0.0
C607 C 0.85446 0.56822 0.57927 0.0
H608 H 0.81745 0.4456 0.55829 0.0
C609 C 0.81832 0.57735 0.56941 0.0
H610 H 0.88358 0.51413 0.58137 0.0
C611 C 0.78029 0.53788 0.55627 0.0
C612 C 0.77908 0.4897 0.55235 0.0
H613 H 0.81658 0.61278 0.57313 0.0
H614 H 0.74937 0.54318 0.55042 0.0
C615 C 0.81857 0.48308 0.5606 0.0
C616 C 0.43487 0.26879 0.58226 0.0
C617 C 0.41954 0.3052 0.57758 0.0
H618 H 0.48914 0.24284 0.57681 0.0
C619 C 0.44384 0.33946 0.5612 0.0
H620 H 0.41626 0.24129 0.59456 0.0
C621 C 0.48635 0.34072 0.55099 0.0
C622 C 0.50477 0.30766 0.55706 0.0
H623 H 0.43257 0.36785 0.55721 0.0
H624 H 0.50679 0.36988 0.53939 0.0
C625 C 0.47672 0.26978 0.57205 0.0
C626 C 0.64802 0.13294 0.56082 0.0
C627 C 0.68624 0.14568 0.57589 0.0
H628 H 0.61495 0.16352 0.54035 0.0
C629 C 0.72625 0.19937 0.57936 0.0
H630 H 0.61671 0.0917 0.55788 0.0
C631 C 0.72555 0.24006 0.56926 0.0
C632 C 0.6844 0.22798 0.55568 0.0
H633 H 0.7566 0.21016 0.59068 0.0
H634 H 0.75562 0.28129 0.57306 0.0
C635 C 0.64698 0.17398 0.55079 0.0
C636 C 0.86493 0.49089 0.68952 0.0
C637 C 0.87532 0.54328 0.69207 0.0
H638 H 0.81464 0.40867 0.69677 0.0
C639 C 0.84703 0.55421 0.70674 0.0
H640 H 0.88678 0.48162 0.67855 0.0
C641 C 0.80497 0.51211 0.7171 0.0
C642 C 0.7913 0.45897 0.71292 0.0
H643 H 0.8545 0.59449 0.70901 0.0
H644 H 0.78085 0.52072 0.72708 0.0
C645 C 0.82358 0.44919 0.69996 0.0
C646 C 0.48433 0.38626 0.6867 0.0
C647 C 0.43404 0.34074 0.6895 0.0
H648 H 0.5663 0.42745 0.69428 0.0
C649 C 0.42677 0.30513 0.70487 0.0
H650 H 0.49093 0.4149 0.67525 0.0
C651 C 0.47029 0.31213 0.71579 0.0
C652 C 0.52135 0.35498 0.7115 0.0
H653 H 0.38825 0.26979 0.70744 0.0
H654 H 0.46446 0.28191 0.72635 0.0
C655 C 0.52746 0.39347 0.69766 0.0
C656 C 0.57738 0.1086 0.693 0.0
C657 C 0.62571 0.11666 0.68585 0.0
H658 H 0.53895 0.14266 0.70976 0.0
C659 C 0.67323 0.1605 0.69359 0.0
H660 H 0.54025 0.07507 0.68732 0.0
C661 C 0.67244 0.19817 0.70694 0.0
C662 C 0.62416 0.19306 0.71233 0.0
H663 H 0.71106 0.16721 0.68846 0.0
H664 H 0.70954 0.23381 0.71139 0.0
C665 C 0.57663 0.14698 0.70594 0.0
C666 C 0.53958 0.10185 0.17518 0.0
C667 C 0.48843 0.08631 0.18186 0.0
H668 H 0.62169 0.16311 0.17644 0.0
C669 C 0.48287 0.11171 0.19936 0.0
H670 H 0.54535 0.08272 0.16192 0.0
C671 C 0.52707 0.15701 0.20807 0.0
C672 C 0.57696 0.17786 0.19907 0.0
H673 H 0.44396 0.09999 0.20509 0.0
H674 H 0.52095 0.17974 0.21991 0.0
C675 C 0.58353 0.14768 0.18363 0.0
C676 C 0.88759 0.40327 0.19005 0.0
C677 C 0.90679 0.42981 0.17163 0.0
H678 H 0.82736 0.37731 0.21278 0.0
C679 C 0.88836 0.46247 0.16501 0.0
H680 H 0.90155 0.37839 0.19571 0.0
C681 C 0.84578 0.46157 0.17476 0.0
C682 C 0.82181 0.42899 0.1915 0.0
H683 H 0.90265 0.48397 0.15103 0.0
H684 H 0.82777 0.48139 0.16783 0.0
C685 C 0.84557 0.40325 0.20002 0.0
C686 C 0.5639 0.46572 0.15877 0.0
C687 C 0.58102 0.51235 0.17081 0.0
H688 H 0.55408 0.38798 0.15636 0.0
C689 C 0.59212 0.51193 0.19143 0.0
H690 H 0.55444 0.46474 0.1429 0.0
C691 C 0.59247 0.46789 0.19917 0.0
C692 C 0.58122 0.42374 0.18639 0.0
H693 H 0.60547 0.54747 0.20104 0.0
H694 H 0.60677 0.47091 0.21446 0.0
C695 C 0.5635 0.42167 0.16653 0.0
C696 C 0.42146 0.15951 0.07839 0.0
C697 C 0.41217 0.15948 0.09933 0.0
H698 H 0.47459 0.20183 0.05401 0.0
C699 C 0.44302 0.20659 0.11098 0.0
H700 H 0.39789 0.1235 0.06913 0.0
C701 C 0.48549 0.25152 0.10233 0.0
C702 C 0.49893 0.24983 0.08193 0.0
H703 H 0.43597 0.20777 0.12709 0.0
H704 H 0.51048 0.28608 0.11209 0.0
C705 C 0.46499 0.20446 0.06973 0.0
C706 C 0.78684 0.25037 0.09882 0.0
C707 C 0.8347 0.27689 0.08812 0.0
H708 H 0.70699 0.23177 0.10062 0.0
C709 C 0.83481 0.29351 0.06834 0.0
H710 H 0.78533 0.23613 0.11392 0.0
C711 C 0.78944 0.29044 0.06062 0.0
C712 C 0.74385 0.27056 0.07262 0.0
H713 H 0.87111 0.31369 0.05969 0.0
H714 H 0.79207 0.30931 1.04642 0.0
C715 C 0.74177 0.24719 0.09111 0.0
C716 C 0.69394 0.56458 0.06667 0.0
C717 C 0.73318 0.59603 0.0812 0.0
H718 H 0.65841 0.49306 1.04788 0.0
C719 C 0.77507 0.58728 0.08381 0.0
H720 H 0.66157 0.57092 0.06415 0.0
C721 C 0.77289 0.5424 0.07462 0.0
C722 C 0.72957 0.50665 0.06237 0.0
H723 H 0.80613 0.61108 0.09478 0.0
H724 H 0.80154 0.53213 0.07907 0.0
C725 C 0.69256 0.52046 0.05709 0.0
C726 C 0.50886 0.88921 0.90756 0.0
C727 C 0.50175 0.91918 0.92298 0.0
H728 H 0.471 0.82263 0.88636 0.0
C729 C 0.45162 0.91292 0.92536 0.0
H730 H 0.54719 0.89369 0.90519 0.0
C731 C 0.40802 0.87194 0.91469 0.0
C732 C 0.41416 0.83762 0.90113 0.0
H733 H 0.44486 0.93565 0.93699 0.0
H734 H 0.3688 0.86334 0.91868 0.0
C735 C 0.46536 0.84912 0.89651 0.0
C736 C 0.08231 0.55447 0.93002 0.0
C737 C 0.06838 0.59356 0.92901 0.0
H738 H 0.1379 0.53193 0.92085 0.0
C739 C 0.09077 0.63162 0.91369 0.0
H740 H 0.06557 0.52435 0.94152 0.0
C741 C 0.13107 0.63472 0.90138 0.0
C742 C 0.15003 0.60037 0.90444 0.0
H743 H 0.0803 0.66183 0.91234 0.0
H744 H 0.15179 0.66819 0.89135 0.0
C745 C 0.12326 0.55824 0.91796 0.0
C746 C 0.348 0.48549 0.90533 0.0
C747 C 0.36638 0.48914 0.92524 0.0
H748 H 0.33251 0.52531 0.882 0.0
C749 C 0.39395 0.53977 0.93511 0.0
H750 H 0.32712 0.44715 0.89721 0.0
C751 C 0.39753 0.58435 0.92631 0.0
C752 C 0.37351 0.57934 0.90749 0.0
H753 H 0.40962 0.54431 0.95026 0.0
H754 H 0.41506 0.62177 0.93507 0.0
C755 C 0.35159 0.53039 0.89649 0.0
C756 C 0.54532 0.84412 1.0356 0.0
C757 C 0.55945 0.84252 1.01525 0.0
H758 H 0.48793 0.80311 0.0589 0.0
C759 C 0.53329 0.79331 1.00437 0.0
H760 H 0.56519 0.8813 1.0445 0.0
C761 C 0.48957 0.74861 1.01269 0.0
C762 C 0.47099 0.75228 1.03201 0.0
H763 H 0.54393 0.79035 0.98882 0.0
H764 H 0.46732 0.71266 1.00323 0.0
C765 C 0.5013 0.79917 1.04396 0.0
C766 C 0.13091 0.70681 1.04385 0.0
C767 C 0.13105 0.72667 1.02467 0.0
H768 H 0.17524 0.6918 0.06527 0.0
C769 C 0.1797 0.75945 1.01505 0.0
H770 H 0.09409 0.68202 1.05179 0.0
C771 C 0.22607 0.76567 1.02292 0.0
C772 C 0.22454 0.73886 1.04046 0.0
H773 H 0.18133 0.77647 1.00051 0.0
H774 H 0.26195 0.78628 1.01403 0.0
C775 C 0.17755 0.71296 1.05173 0.0
C776 C 0.26074 0.43936 1.03189 0.0
C777 C 0.22988 0.41761 1.01419 0.0
H778 H 0.28912 0.50105 0.05516 0.0
C779 C 0.19336 0.43263 1.00952 0.0
H780 H 0.28862 0.42783 1.03607 0.0
C781 C 0.19394 0.47476 1.0204 0.0
C782 C 0.23035 0.50172 1.03628 0.0
H783 H 0.16858 0.41623 0.99614 0.0
H784 H 0.17029 0.49025 1.01493 0.0
C785 C 0.26052 0.48082 1.04303 0.0
C786 C 0.10596 0.49212 0.52956 0.0
C787 C 0.10457 0.44457 0.5238 0.0
H788 H 0.14894 0.56873 0.54508 0.0
C789 C 0.14006 0.43328 0.5329 0.0
H790 H 0.0786 0.50152 0.52294 0.0
C791 C 0.18042 0.47194 0.54551 0.0
C792 C 0.18504 0.52177 0.54955 0.0
H793 H 0.13981 0.39695 0.5288 0.0
H794 H 0.21076 0.46481 0.55064 0.0
C795 C 0.1457 0.5303 0.54249 0.0
C796 C 0.55007 0.72548 0.53074 0.0
C797 C 0.54077 0.68277 0.51755 0.0
H798 H 0.51586 0.75491 0.55241 0.0
C799 C 0.49367 0.63273 0.51948 0.0
H800 H 0.5862 0.76431 0.52966 0.0
C801 C 0.45454 0.62682 0.53306 0.0
C802 C 0.46153 0.67105 0.54467 0.0
H803 H 0.48593 0.5988 0.50975 0.0
H804 H 0.41673 0.58928 0.53293 0.0
C805 C 0.5103 0.71984 0.54401 0.0
C806 C 0.27641 0.81993 0.51302 0.0
C807 C 0.3158 0.87323 0.51752 0.0
H808 H 0.24406 0.73742 0.51911 0.0
C809 C 0.352 0.88403 0.53328 0.0
H810 H 0.24773 0.81037 0.50112 0.0
C811 C 0.3506 0.84187 0.5435 0.0
C812 C 0.31251 0.78838 0.53832 0.0
H813 H 0.38304 0.92488 0.53702 0.0
H814 H 0.38063 0.85105 0.55473 0.0
C815 C 0.27448 0.77814 0.5234 0.0
C816 C 0.14028 0.56876 0.42865 0.0
C817 C 0.1067 0.5222 0.41705 0.0
H818 H 0.21178 0.64537 0.42964 0.0
C819 C 0.11543 0.52143 0.39608 0.0
H820 H 0.13383 0.57111 0.44475 0.0
C821 C 0.16036 0.5646 0.38733 0.0
C822 C 0.19664 0.60862 0.39953 0.0
H823 H 0.08977 0.48617 0.38676 0.0
H824 H 0.16886 0.56157 0.3715 0.0
C825 C 0.18474 0.61148 0.41998 0.0
C826 C 0.44505 0.57168 0.40708 0.0
C827 C 0.49951 0.60862 0.40964 0.0
H828 H 0.37207 0.55901 0.39549 0.0
C829 C 0.52436 0.65415 0.39758 0.0
H830 H 0.42489 0.53613 0.41613 0.0
C831 C 0.49423 0.66619 0.38526 0.0
C832 C 0.43893 0.63324 0.38501 0.0
H833 H 0.56643 0.68289 0.39903 0.0
H834 H 0.51353 0.70466 0.378 0.0
C835 C 0.4148 0.58425 0.39497 0.0
C836 C 0.44027 0.94329 0.40889 0.0
C837 C 0.39149 0.94029 0.4105 0.0
H838 H 0.48 0.90337 0.39822 0.0
C839 C 0.34947 0.90383 0.39787 0.0
H840 H 0.47324 0.97105 0.41853 0.0
C841 C 0.35435 0.86698 0.38546 0.0
C842 C 0.40049 0.86474 0.3862 0.0
H843 H 0.31158 0.90105 0.39879 0.0
H844 H 0.31951 0.83551 0.37759 0.0
C845 C 0.44449 0.90512 0.39704 0.0
C846 C 0.20954 0.03407 0.20045 0.0
C847 C 0.2378 0.05545 0.18245 0.0
H848 H 0.13946 0.01383 0.2174 0.0
C849 C 0.22231 0.08219 0.16958 0.0
H850 H 0.22088 0.01349 0.21069 0.0
C851 C 0.17684 0.08351 0.17369 0.0
C852 C 0.1458 0.05789 0.19066 0.0
H853 H 0.24396 0.09998 0.15581 0.0
H854 H 0.1639 0.10136 0.1628 0.0
C855 C 0.16344 0.03492 0.20446 0.0
C856 C 0.93118 0.16698 0.15442 0.0
C857 C 0.9304 0.20011 0.17006 0.0
H858 H 0.93599 0.09862 0.14631 0.0
C859 C 0.92896 0.18569 0.19031 0.0
H860 H 0.93109 0.1763 0.13867 0.0
C861 C 0.93205 0.14076 0.19478 0.0
C862 C 0.93614 0.10965 0.17901 0.0
H863 H 0.92785 0.21037 0.20266 0.0
H864 H 0.93401 0.13219 0.21047 0.0
C865 C 0.93369 0.12218 0.15883 0.0
C866 C 0.82788 0.77432 0.15294 0.0
C867 C 0.78834 0.74379 0.16699 0.0
H868 H 0.90171 0.84565 0.14751 0.0
C869 C 0.79665 0.76009 0.18759 0.0
H870 H 0.82315 0.76216 0.13705 0.0
C871 C 0.84197 0.80876 0.19368 0.0
C872 C 0.87957 0.84122 0.17923 0.0
H873 H 0.76685 0.73689 0.19877 0.0
H874 H 0.8459 0.82237 0.20937 0.0
C875 C 0.87309 0.82214 0.159 0.0
C876 C -0.00706 0.23823 0.43636 0.0
C877 C -0.02766 0.2438 0.45501 0.0
H878 H 0.00812 0.18732 0.41687 0.0
C879 C 0.94715 0.19954 0.46767 0.0
H880 H 0.01217 0.27152 0.42619 0.0
C881 C 0.94553 0.15201 0.46248 0.0
C882 C 0.96792 0.14705 0.44427 0.0
H883 H 0.9307 0.20234 0.48208 0.0
H884 H 0.92809 0.11951 0.47305 0.0
C885 C -0.00981 0.18996 0.43092 0.0
C886 C 0.77755 0.79257 0.42295 0.0
C887 C 0.75625 0.77109 0.44197 0.0
H888 H 0.84117 0.85651 0.40679 0.0
C889 C 0.78692 0.79616 0.45941 0.0
H890 H 0.75487 0.77438 0.40919 0.0
C891 C 0.83702 0.84256 0.45795 0.0
C892 C 0.85758 0.86539 0.43902 0.0
H893 H 0.77188 0.78049 0.47427 0.0
H894 H 0.85906 0.8614 0.47179 0.0
C895 C 0.82746 0.83944 0.42152 0.0
C896 C 0.19879 0.02147 0.46249 0.0
C897 C 0.22487 0.01788 0.44516 0.0
H898 H 0.13676 0.03103 0.47444 0.0
C899 C 0.20914 0.02498 0.42607 0.0
H900 H 0.21018 0.01672 0.47744 0.0
C901 C 0.1666 0.03284 0.4243 0.0
C902 C 0.13924 0.03452 0.44159 0.0
H903 H 0.2284 0.02246 0.41239 0.0
H904 H 0.15383 0.03512 0.40931 0.0
C905 C 0.15673 0.02992 0.46074 0.0
C906 C 0.79152 0.01882 0.92046 0.0
C907 C 0.77353 0.02216 0.93993 0.0
H908 H 0.85329 0.01986 0.90298 0.0
C909 C 0.80865 0.03905 0.95639 0.0
H910 H 0.76526 0.00612 0.90749 0.0
C911 C 0.85941 0.04823 0.95374 0.0
C912 C 0.87589 0.03995 0.93463 0.0
H913 H 0.79616 0.04299 0.97151 0.0
H914 H 0.88453 0.05852 0.96696 0.0
C915 C 0.84225 0.02728 0.91784 0.0
C916 C 0.97049 0.77878 0.92512 0.0
C917 C 0.96856 0.76165 0.94493 0.0
H918 H 0.97042 0.83738 0.90652 0.0
C919 C 0.95577 0.78545 0.96099 0.0
H920 H -0.02011 0.76082 0.91243 0.0
C921 C 0.94926 0.82845 0.95756 0.0
C922 C 0.95593 0.8489 0.93804 0.0
H923 H 0.95292 0.77233 0.97637 0.0
H924 H 0.9421 0.84768 0.97044 0.0
C925 C 0.96448 0.82232 0.9217 0.0
C926 C 0.23157 0.17398 0.95578 0.0
C927 C 0.24143 0.22247 0.94793 0.0
H928 H 0.17681 0.08914 0.95738 0.0
C929 C 0.20842 0.22137 0.93261 0.0
H930 H 0.25647 0.1739 0.96763 0.0
C931 C 0.16419 0.17267 0.92616 0.0
C932 C 0.15168 0.1249 0.93544 0.0
H933 H 0.21558 0.25835 0.92626 0.0
H934 H 0.13734 0.17299 0.91527 0.0
C935 C 0.18637 0.12558 0.94985 0.0
C936 C 0.93137 0.75728 0.67455 0.0
C937 C 0.89339 0.72651 0.65955 0.0
H938 H 0.96752 0.82914 0.69317 0.0
C939 C 0.85679 0.74067 0.65406 0.0
H940 H 0.9595 0.74659 0.67926 0.0
C941 C 0.86188 0.78826 0.66183 0.0
C942 C 0.90231 0.82102 0.67575 0.0
H943 H 0.82692 0.71725 0.64263 0.0
H944 H 0.83688 0.80154 0.65582 0.0
C945 C 0.93525 0.80381 0.68283 0.0
C946 C 0.20924 0.17277 0.66981 0.0
C947 C 0.23377 0.1644 0.65294 0.0
H948 H 0.14307 0.13792 0.69009 0.0
C949 C 0.2131 0.11205 0.64499 0.0
H950 H 0.22493 0.2127 0.6764 0.0
C951 C 0.16599 0.06957 0.65263 0.0
C952 C 0.13995 0.07846 0.6688 0.0
H953 H 0.23152 0.10453 0.63208 0.0
H954 H 0.14831 0.03034 0.64518 0.0
C955 C 0.16306 0.12991 0.67788 0.0
C956 C 0.84079 0.07793 0.6475 0.0
C957 C 0.80098 0.06433 0.662 0.0
H958 H 0.91329 0.08208 0.64008 0.0
C959 C 0.80735 0.04975 0.68139 0.0
H960 H 0.83741 0.09003 0.63253 0.0
C961 C 0.8509 0.04525 0.6857 0.0
C962 C 0.88918 0.05607 0.67082 0.0
H963 H 0.77735 0.03909 0.69291 0.0
H964 H 0.85233 0.02923 0.70008 0.0
C965 C 0.88449 0.0739 0.65189 0.0
C966 C 0.87272 0.42678 0.46677 0.0
C967 C 0.90799 0.44235 0.48303 0.0
H968 H 0.79482 0.40202 0.45722 0.0
C969 C 0.89318 0.45157 0.50231 0.0
H970 H 0.88377 0.42051 0.45169 0.0
C971 C 0.84162 0.44001 0.50565 0.0
C972 C 0.80482 0.42003 0.48967 0.0
H973 H 0.92013 0.46401 0.51505 0.0
H974 H 0.82982 0.44338 0.52091 0.0
C975 C 0.82184 0.41646 0.46999 0.0
C976 C 0.58455 0.50013 0.50887 0.0
C977 C 0.57701 0.51236 0.48927 0.0
H978 H 0.59202 0.44541 0.52714 0.0
C979 C 0.56017 0.47298 0.47371 0.0
H980 H 0.59664 0.52944 0.52126 0.0
C981 C 0.55605 0.42416 0.47723 0.0
C982 C 0.56936 0.4143 0.49628 0.0
H983 H 0.55268 0.48081 0.45857 0.0
H984 H 0.54668 0.39603 0.46459 0.0
C985 C 0.58093 0.45149 0.51235 0.0
C986 C 0.48172 0.09236 0.506 0.0
C987 C 0.48392 0.06497 0.48855 0.0
H988 H 0.52113 0.16501 0.52404 0.0
C989 C 0.53146 0.08527 0.47788 0.0
H990 H 0.44524 0.07685 0.51447 0.0
C991 C 0.57438 0.13605 0.48309 0.0
C992 C 0.57035 0.16587 0.49935 0.0
H993 H 0.53365 0.0645 0.46436 0.0
H994 H 0.60877 0.15403 0.47333 0.0
C995 C 0.52522 0.14229 0.51161 0.0
C996 C 0.77142 0.58383 0.79601 0.0
C997 C 0.74521 0.60483 0.78593 0.0
H998 H 0.78033 0.51603 0.79861 0.0
C999 C 0.71725 0.5798 0.76798 0.0
H1000 H 0.79311 0.60283 0.8099 0.0
C1001 C 0.71173 0.53152 0.76107 0.0
C1002 C 0.7325 0.50708 0.77253 0.0
H1003 H 0.69701 0.59585 0.76001 0.0
H1004 H 0.68634 0.51055 0.74813 0.0
C1005 C 0.76447 0.53464 0.78948 0.0
C1006 C 0.40636 0.21853 0.79386 0.0
C1007 C 0.38614 0.16999 0.78281 0.0
H1008 H 0.47277 0.2986 0.79827 0.0
C1009 C 0.41169 0.16774 0.76513 0.0
H1010 H 0.38694 0.22071 0.80756 0.0
C1011 C 0.45935 0.21261 0.75937 0.0
C1012 C 0.48272 0.25944 0.77167 0.0
H1013 H 0.39629 0.13046 0.75642 0.0
H1014 H 0.48045 0.20877 0.74653 0.0
C1015 C 0.45499 0.26295 0.78848 0.0
C1016 C 0.8164 0.28663 0.76021 0.0
C1017 C 0.82802 0.27785 0.77976 0.0
H1018 H 0.76211 0.29396 0.74159 0.0
C1019 C 0.78872 0.25989 0.79474 0.0
H1020 H 0.84555 0.29947 0.74824 0.0
C1021 C 0.74067 0.25578 0.79082 0.0
C1022 C 0.73108 0.26967 0.77187 0.0
H1023 H 0.79593 0.25145 0.80982 0.0
H1024 H 0.71265 0.24564 0.80309 0.0
C1025 C 0.76816 0.28244 0.75627 0.0
C1026 C 0.44048 0.29271 0.27345 0.0
C1027 C 0.43521 0.33746 0.27216 0.0
H1028 H 0.48428 0.25633 0.26468 0.0
C1029 C 0.46747 0.37814 0.25862 0.0
H1030 H 0.41513 0.26 0.28328 0.0
C1031 C 0.50762 0.37614 0.24789 0.0
C1032 C 0.51521 0.33312 0.25049 0.0
H1033 H 0.4635 0.41271 0.25716 0.0
H1034 H 0.53473 0.40974 0.23877 0.0
C1035 C 0.47969 0.29035 0.2626 0.0
C1036 C 0.63533 0.14914 0.27114 0.0
C1037 C 0.67521 0.16248 0.28561 0.0
H1038 H 0.6051 0.178 0.24864 0.0
C1039 C 0.7175 0.21575 0.28746 0.0
H1040 H 0.60254 0.10818 0.26917 0.0
C1041 C 0.71923 0.25513 0.27559 0.0
C1042 C 0.67865 0.24237 0.2616 0.0
H1043 H 0.74926 0.22729 0.2982 0.0
H1044 H 0.752 0.29607 0.27776 0.0
C1045 C 0.63708 0.18883 0.25918 0.0
C1046 C 0.85376 0.54668 0.27412 0.0
C1047 C 0.8469 0.59065 0.27683 0.0
H1048 H 0.82395 0.46879 0.26005 0.0
C1049 C 0.80981 0.59346 0.26474 0.0
H1050 H 0.88279 0.54398 0.28294 0.0
C1051 C 0.77701 0.55105 0.25155 0.0
C1052 C 0.78112 0.50542 0.25 0.0
H1053 H 0.80419 0.6272 0.26616 0.0
H1054 H 0.74569 0.55211 0.2437 0.0
C1055 C 0.8211 0.50432 0.26068 0.0
C1056 C 0.59727 0.09016 1.00259 0.0
C1057 C 0.64521 0.09206 1.00494 0.0
H1058 H 0.55581 0.13146 1.00627 0.0
C1059 C 0.68718 0.13626 1.0154 0.0
H1060 H 0.56385 0.05634 0.99492 0.0
C1061 C 0.68234 0.17952 1.02208 0.0
C1062 C 0.6356 0.17901 1.01829 0.0
H1063 H 0.72449 0.13861 1.0176 0.0
H1064 H 0.71612 0.21454 1.029 0.0
C1065 C 0.59258 0.13317 1.00915 0.0
C1066 C 0.85937 0.53257 1.00729 0.0
C1067 C 0.86713 0.53715 0.98618 0.0
H1068 H 0.80736 0.48707 1.03149 0.0
C1069 C 0.82689 0.49956 0.9732 0.0
H1070 H 0.88966 0.56141 1.01763 0.0
C1071 C 0.78053 0.45723 0.98108 0.0
C1072 C 0.7729 0.45197 1.00212 0.0
H1073 H 0.8316 0.50212 0.95689 0.0
H1074 H 0.75068 0.42821 0.97062 0.0
C1075 C 0.81223 0.49048 1.01522 0.0
C1076 C 0.41832 0.30915 1.02414 0.0
C1077 C 0.42423 0.3475 1.01019 0.0
H1078 H 0.45567 0.27243 1.0388 0.0
C1079 C 0.47432 0.38235 1.00208 0.0
H1080 H 0.38011 0.28199 1.03075 0.0
C1081 C 0.51678 0.37691 1.00668 0.0
C1082 C 0.51046 0.33651 1.01952 0.0
H1083 H 0.48059 0.41301 0.99163 0.0
H1084 H 0.55452 0.40353 0.9996 0.0
C1085 C 0.4614 0.30374 1.02883 0.0
C1086 C 0.51742 0.65273 0.85877 0.0
C1087 C 0.5358 0.65053 0.83918 0.0
H1088 H 0.45557 0.65108 0.87665 0.0
C1089 C 0.50156 0.63763 0.82264 0.0
H1090 H 0.54272 0.66225 0.87188 0.0
C1091 C 0.45149 0.63041 0.82543 0.0
C1092 C 0.43435 0.63631 0.8448 0.0
H1093 H 0.51403 0.63478 0.8074 0.0
H1094 H 0.42711 0.62262 0.81216 0.0
C1095 C 0.46721 0.64585 0.86156 0.0
C1096 C 0.33573 0.89565 0.85251 0.0
C1097 C 0.33532 0.91068 0.83246 0.0
H1098 H 0.33662 0.83849 0.87189 0.0
C1099 C 0.34227 0.88209 0.81651 0.0
H1100 H 0.33069 0.917 0.86518 0.0
C1101 C 0.34653 0.83776 0.82039 0.0
C1102 C 0.34351 0.82043 0.84032 0.0
H1103 H 0.34284 0.89293 0.80092 0.0
H1104 H 0.34994 0.81564 0.80759 0.0
C1105 C 0.33958 0.85083 0.8564 0.0
C1106 C 0.07668 0.4985 0.82026 0.0
C1107 C 0.06033 0.44949 0.82944 0.0
H1108 H 0.13696 0.58166 0.81831 0.0
C1109 C 0.08886 0.44922 0.84627 0.0
H1110 H 0.05554 0.50015 0.80731 0.0
C1111 C 0.13467 0.49651 0.853 0.0
C1112 C 0.15314 0.54438 0.84269 0.0
H1113 H 0.07688 0.4121 0.85378 0.0
H1114 H 0.15774 0.49473 0.86521 0.0
C1115 C 0.12306 0.54527 0.82663 0.0
C1116 C 0.31498 0.8827 0.09057 0.0
C1117 C 0.30894 0.89685 0.11058 0.0
H1118 H 0.31428 0.82289 0.07064 0.0
C1119 C 0.28959 0.85738 0.12534 0.0
H1120 H 0.32926 0.912 0.07877 0.0
C1121 C 0.28069 0.8064 0.12063 0.0
C1122 C 0.29073 0.79353 0.10105 0.0
H1123 H 0.28368 0.86654 0.14081 0.0
H1124 H 0.26864 0.77792 0.13266 0.0
C1125 C 0.30584 0.83141 0.08583 0.0
C1126 C 0.15657 0.43742 0.12284 0.0
C1127 C 0.10758 0.42223 0.1141 0.0
H1128 H 0.2397 0.49548 0.12391 0.0
C1129 C 0.10654 0.44934 0.09702 0.0
H1130 H 0.15875 0.4172 0.13593 0.0
C1131 C 0.15333 0.49326 0.08973 0.0
C1132 C 0.20149 0.51134 0.09974 0.0
H1133 H 0.06934 0.43805 0.08984 0.0
H1134 H 0.15116 0.51565 0.07739 0.0
C1135 C 0.20298 0.48201 0.11589 0.0
C1136 C 0.54314 0.70921 0.11497 0.0
C1137 C 0.56088 0.69055 0.09875 0.0
H1138 H 0.48647 0.72847 0.12551 0.0
C1139 C 0.5379 0.6834 0.07949 0.0
H1140 H 0.56059 0.71605 0.12991 0.0
C1141 C 0.49495 0.69035 0.07694 0.0
C1142 C 0.47465 0.70498 0.09359 0.0
H1143 H 0.55097 0.66938 0.06663 0.0
H1144 H 0.47553 0.68056 0.06231 0.0
C1145 C 0.50075 0.71659 0.11239 0.0
C1146 C 0.11804 0.6614 0.62293 0.0
C1147 C 0.07406 0.61775 0.61331 0.0
H1148 H 0.20178 0.70645 0.62648 0.0
C1149 C 0.08208 0.58576 0.59907 0.0
H1150 H 0.11331 0.68688 0.63394 0.0
C1151 C 0.13325 0.59713 0.59469 0.0
C1152 C 0.17707 0.64045 0.60457 0.0
H1153 H 0.04888 0.55185 0.59136 0.0
H1154 H 0.13838 0.57158 0.58389 0.0
C1155 C 0.16884 0.67251 0.61866 0.0
C1156 C 0.3282 0.4696 0.62057 0.0
C1157 C 0.37016 0.46686 0.61189 0.0
H1158 H 0.28877 0.513 0.62359 0.0
C1159 C 0.40418 0.50668 0.59832 0.0
H1160 H 0.30123 0.4396 0.63101 0.0
C1161 C 0.39661 0.54887 0.59378 0.0
C1162 C 0.35555 0.55228 0.60309 0.0
H1163 H 0.43667 0.50532 0.59126 0.0
H1164 H 0.42353 0.57938 0.58349 0.0
C1165 C 0.32123 0.5119 0.61634 0.0
C1166 C 0.53895 0.89347 0.60968 0.0
C1167 C 0.53098 0.9367 0.60889 0.0
H1168 H 0.50569 0.80911 0.60527 0.0
C1169 C 0.48287 0.92753 0.60099 0.0
H1170 H 0.57564 0.89906 0.6154 0.0
C1171 C 0.4426 0.87553 0.59498 0.0
C1172 C 0.45012 0.83224 0.59675 0.0
H1173 H 0.47567 0.96014 0.60006 0.0
H1174 H 0.40477 0.86877 0.59016 0.0
C1175 C 0.49901 0.84195 0.60372 0.0
C1176 C 0.3266 0.48608 0.30364 0.0
C1177 C 0.32768 0.45554 0.31939 0.0
H1178 H 0.33108 0.55798 0.29512 0.0
C1179 C 0.33781 0.47734 0.33929 0.0
H1180 H 0.31982 0.47094 0.28809 0.0
C1181 C 0.34406 0.52782 0.3434 0.0
C1182 C 0.34078 0.55723 0.32764 0.0
H1183 H 0.33901 0.45467 0.35173 0.0
H1184 H 0.3491 0.54264 0.35891 0.0
C1185 C 0.33328 0.53623 0.30769 0.0
C1186 C 0.5511 0.91806 0.33744 0.0
C1187 C 0.57252 0.92475 0.31783 0.0
H1188 H 0.48548 0.86944 0.35683 0.0
C1189 C 0.54154 0.88859 0.30224 0.0
H1190 H 0.57408 0.94555 0.34976 0.0
C1191 C 0.49079 0.84589 0.30618 0.0
C1192 C 0.46978 0.83771 0.3259 0.0
H1193 H 0.55655 0.893 0.28692 0.0
H1194 H 0.46858 0.81842 0.29374 0.0
C1195 C 0.50024 0.87465 0.34148 0.0
C1196 C 0.11051 0.67341 0.3568 0.0
C1197 C 0.09037 0.67886 0.33844 0.0
H1198 H 0.1729 0.67001 0.37143 0.0
C1199 C 0.11665 0.68112 0.32033 0.0
H1200 H 0.09097 0.67141 0.37102 0.0
C1201 C 0.16273 0.67952 0.32054 0.0
C1202 C 0.18418 0.67602 0.33889 0.0
H1203 H 0.10193 0.68463 0.30588 0.0
H1204 H 0.18212 0.68214 0.30623 0.0
C1205 C 0.15722 0.67223 0.35704 0.0
loop_
_geom_bond_atom_site_label_1
_geom_bond_atom_site_label_2
_geom_bond_distance
_geom_bond_site_symmetry_2
_ccdc_geom_bond_type
C0 O1 1.160 . S
C0 O7 1.185 . S
O1 C0 1.160 . S
O2 Zn3 1.899 1_565 S
O2 C10 1.284 . S
Zn3 O2 1.899 1_545 S
Zn3 O4 2.032 . S
Zn3 O7 2.086 . S
Zn3 O12 1.977 . S
O4 Zn3 2.032 . S
O4 C8 1.278 1_545 S
C5 O6 1.203 1_545 S
C5 O12 1.267 . S
O6 C5 1.203 1_565 S
O7 C0 1.185 . S
O7 Zn3 2.086 . S
C8 O4 1.278 1_565 S
C8 O9 1.211 . S
O9 C8 1.211 . S
C10 O2 1.284 . S
C10 O11 1.273 . S
O11 C10 1.273 . S
O12 Zn3 1.977 . S
O12 C5 1.267 . S
C13 O14 1.160 . S
C13 O20 1.185 . S
O14 C13 1.160 . S
O15 Zn16 1.899 1_655 S
O15 C23 1.284 . S
Zn16 O15 1.899 1_455 S
Zn16 O17 2.032 . S
Zn16 O20 2.086 . S
Zn16 O25 1.977 . S
O17 Zn16 2.032 . S
O17 C21 1.278 1_455 S
C18 O19 1.203 1_455 S
C18 O25 1.267 . S
O19 C18 1.203 1_655 S
O20 C13 1.185 . S
O20 Zn16 2.086 . S
C21 O17 1.278 1_655 S
C21 O22 1.211 . S
O22 C21 1.211 . S
C23 O15 1.284 . S
C23 O24 1.273 . S
O24 C23 1.273 . S
O25 Zn16 1.977 . S
O25 C18 1.267 . S
C26 O27 1.160 . S
C26 O33 1.185 . S
O27 C26 1.160 . S
O28 Zn29 1.899 . S
O28 C36 1.284 . S
Zn29 O28 1.899 . S
Zn29 O30 2.032 . S
Zn29 O33 2.086 . S
Zn29 O38 1.977 . S
O30 Zn29 2.032 . S
O30 C34 1.278 . S
C31 O32 1.203 . S
C31 O38 1.267 . S
O32 C31 1.203 . S
O33 C26 1.185 . S
O33 Zn29 2.086 . S
C34 O30 1.278 . S
C34 O35 1.211 . S
O35 C34 1.211 . S
C36 O28 1.284 . S
C36 O37 1.273 . S
O37 C36 1.273 . S
O38 Zn29 1.977 . S
O38 C31 1.267 . S
C39 O40 1.160 . S
C39 O46 1.185 . S
O40 C39 1.160 . S
O41 Zn42 1.899 . S
O41 C49 1.284 . S
Zn42 O41 1.899 . S
Zn42 O43 2.032 . S
Zn42 O46 2.086 1_545 S
Zn42 O51 1.977 1_545 S
O43 Zn42 2.032 . S
O43 C47 1.278 . S
C44 O45 1.203 . S
C44 O51 1.267 1_545 S
O45 C44 1.203 . S
O46 C39 1.185 . S
O46 Zn42 2.086 1_565 S
C47 O43 1.278 . S
C47 O48 1.211 . S
O48 C47 1.211 . S
C49 O41 1.284 . S
C49 O50 1.273 . S
O50 C49 1.273 . S
O51 Zn42 1.977 1_565 S
O51 C44 1.267 1_565 S
C52 O53 1.160 . S
C52 O59 1.185 . S
O53 C52 1.160 . S
O54 Zn55 1.899 . S
O54 C62 1.284 . S
Zn55 O54 1.899 . S
Zn55 O56 2.032 . S
Zn55 O59 2.086 1_455 S
Zn55 O64 1.977 1_455 S
O56 Zn55 2.032 . S
O56 C60 1.278 . S
C57 O58 1.203 . S
C57 O64 1.267 1_455 S
O58 C57 1.203 . S
O59 C52 1.185 . S
O59 Zn55 2.086 1_655 S
C60 O56 1.278 . S
C60 O61 1.211 . S
O61 C60 1.211 . S
C62 O54 1.284 . S
C62 O63 1.273 . S
O63 C62 1.273 . S
O64 Zn55 1.977 1_655 S
O64 C57 1.267 1_655 S
C65 O66 1.160 . S
C65 O72 1.185 . S
O66 C65 1.160 . S
O67 Zn68 1.899 . S
O67 C75 1.284 . S
Zn68 O67 1.899 . S
Zn68 O69 2.032 . S
Zn68 O72 2.086 . S
Zn68 O77 1.977 . S
O69 Zn68 2.032 . S
O69 C73 1.278 . S
C70 O71 1.203 . S
C70 O77 1.267 . S
O71 C70 1.203 . S
O72 C65 1.185 . S
O72 Zn68 2.086 . S
C73 O69 1.278 . S
C73 O74 1.211 . S
O74 C73 1.211 . S
C75 O67 1.284 . S
C75 O76 1.273 . S
O76 C75 1.273 . S
O77 Zn68 1.977 . S
O77 C70 1.267 . S
C78 O79 1.160 . S
C78 O85 1.185 . S
O79 C78 1.160 . S
O80 Zn81 1.899 . S
O80 C88 1.284 . S
Zn81 O80 1.899 . S
Zn81 O82 2.032 . S
Zn81 O85 2.086 . S
Zn81 O90 1.977 . S
O82 Zn81 2.032 . S
O82 C86 1.278 . S
C83 O84 1.203 . S
C83 O90 1.267 . S
O84 C83 1.203 . S
O85 C78 1.185 . S
O85 Zn81 2.086 . S
C86 O82 1.278 . S
C86 O87 1.211 . S
O87 C86 1.211 . S
C88 O80 1.284 . S
C88 O89 1.273 . S
O89 C88 1.273 . S
O90 Zn81 1.977 . S
O90 C83 1.267 . S
C91 O92 1.160 . S
C91 O98 1.185 . S
O92 C91 1.160 . S
O93 Zn94 1.899 . S
O93 C101 1.284 1_545 S
Zn94 O93 1.899 . S
Zn94 O95 2.032 . S
Zn94 O98 2.086 . S
Zn94 O103 1.977 . S
O95 Zn94 2.032 . S
O95 C99 1.278 . S
C96 O97 1.203 . S
C96 O103 1.267 . S
O97 C96 1.203 . S
O98 C91 1.185 . S
O98 Zn94 2.086 . S
C99 O95 1.278 . S
C99 O100 1.211 . S
O100 C99 1.211 . S
C101 O93 1.284 1_565 S
C101 O102 1.273 1_565 S
O102 C101 1.273 1_545 S
O103 Zn94 1.977 . S
O103 C96 1.267 . S
C104 O105 1.160 . S
C104 O111 1.185 . S
O105 C104 1.160 . S
O106 Zn107 1.899 . S
O106 C114 1.284 . S
Zn107 O106 1.899 . S
Zn107 O108 2.032 . S
Zn107 O111 2.086 1_655 S
Zn107 O116 1.977 . S
O108 Zn107 2.032 . S
O108 C112 1.278 . S
C109 O110 1.203 . S
C109 O116 1.267 . S
O110 C109 1.203 . S
O111 C104 1.185 . S
O111 Zn107 2.086 1_455 S
C112 O108 1.278 . S
C112 O113 1.211 . S
O113 C112 1.211 . S
C114 O106 1.284 . S
C114 O115 1.273 . S
O115 C114 1.273 . S
O116 Zn107 1.977 . S
O116 C109 1.267 . S
C117 O118 1.160 1_655 S
C117 O124 1.185 . S
O118 C117 1.160 1_455 S
O119 Zn120 1.899 1_455 S
O119 C127 1.284 . S
Zn120 O119 1.899 1_655 S
Zn120 O121 2.032 . S
Zn120 O124 2.086 . S
Zn120 O129 1.977 . S
O121 Zn120 2.032 . S
O121 C125 1.278 . S
C122 O123 1.203 . S
C122 O129 1.267 . S
O123 C122 1.203 . S
O124 C117 1.185 . S
O124 Zn120 2.086 . S
C125 O121 1.278 . S
C125 O126 1.211 . S
O126 C125 1.211 . S
C127 O119 1.284 . S
C127 O128 1.273 . S
O128 C127 1.273 . S
O129 Zn120 1.977 . S
O129 C122 1.267 . S
C130 O131 1.160 . S
C130 O137 1.185 . S
O131 C130 1.160 . S
O132 Zn133 1.899 . S
O132 C140 1.284 . S
Zn133 O132 1.899 . S
Zn133 O134 2.032 . S
Zn133 O137 2.086 . S
Zn133 O142 1.977 . S
O134 Zn133 2.032 . S
O134 C138 1.278 . S
C135 O136 1.203 . S
C135 O142 1.267 . S
O136 C135 1.203 . S
O137 C130 1.185 . S
O137 Zn133 2.086 . S
C138 O134 1.278 . S
C138 O139 1.211 . S
O139 C138 1.211 . S
C140 O132 1.284 . S
C140 O141 1.273 . S
O141 C140 1.273 . S
O142 Zn133 1.977 . S
O142 C135 1.267 . S
C143 O144 1.160 . S
C143 O150 1.185 . S
O144 C143 1.160 . S
O145 Zn146 1.887 1_565 S
O145 C153 1.296 . S
Zn146 O145 1.887 1_545 S
Zn146 O147 2.032 . S
Zn146 O150 2.086 . S
Zn146 O155 1.977 . S
O147 Zn146 2.032 . S
O147 C151 1.278 . S
C148 O149 1.203 . S
C148 O155 1.267 . S
O149 C148 1.203 . S
O150 C143 1.185 . S
O150 Zn146 2.086 . S
C151 O147 1.278 . S
C151 O152 1.211 . S
O152 C151 1.211 . S
C153 O145 1.296 . S
C153 O154 1.273 1_565 S
O154 C153 1.273 1_545 S
O155 Zn146 1.977 . S
O155 C148 1.267 . S
C156 O157 1.160 . S
C156 O163 1.185 . S
O157 C156 1.160 . S
O158 Zn159 1.899 1_655 S
O158 C166 1.284 . S
Zn159 O158 1.899 1_455 S
Zn159 O160 2.032 . S
Zn159 O163 2.086 . S
Zn159 O168 1.977 . S
O160 Zn159 2.032 . S
O160 C164 1.278 . S
C161 O162 1.203 . S
C161 O168 1.267 . S
O162 C161 1.203 . S
O163 C156 1.185 . S
O163 Zn159 2.086 . S
C164 O160 1.278 . S
C164 O165 1.211 . S
O165 C164 1.211 . S
C166 O158 1.284 . S
C166 O167 1.273 1_655 S
O167 C166 1.273 1_455 S
O168 Zn159 1.977 . S
O168 C161 1.267 . S
C169 O170 1.160 . S
C169 O176 1.185 . S
O170 C169 1.160 . S
O171 Zn172 1.899 . S
O171 C179 1.284 . S
Zn172 O171 1.899 . S
Zn172 O173 2.032 . S
Zn172 O176 2.086 . S
Zn172 O181 1.977 . S
O173 Zn172 2.032 . S
O173 C177 1.278 . S
C174 O175 1.203 . S
C174 O181 1.267 . S
O175 C174 1.203 . S
O176 C169 1.185 . S
O176 Zn172 2.086 . S
C177 O173 1.278 . S
C177 O178 1.211 . S
O178 C177 1.211 . S
C179 O171 1.284 . S
C179 O180 1.273 . S
O180 C179 1.273 . S
O181 Zn172 1.977 . S
O181 C174 1.267 . S
C182 O183 1.160 1_565 S
C182 O189 1.185 . S
O183 C182 1.160 1_545 S
O184 Zn185 1.899 1_545 S
O184 C192 1.284 . S
Zn185 O184 1.899 1_565 S
Zn185 O186 2.032 . S
Zn185 O189 2.086 . S
Zn185 O194 1.977 . S
O186 Zn185 2.032 . S
O186 C190 1.278 . S
C187 O188 1.203 . S
C187 O194 1.267 . S
O188 C187 1.203 . S
O189 C182 1.185 . S
O189 Zn185 2.086 . S
C190 O186 1.278 . S
C190 O191 1.211 . S
O191 C190 1.211 . S
C192 O184 1.284 . S
C192 O193 1.273 . S
O193 C192 1.273 . S
O194 Zn185 1.977 . S
O194 C187 1.267 . S
C195 O196 1.160 . S
C195 O202 1.185 . S
O196 C195 1.160 . S
O197 Zn198 1.899 . S
O197 C205 1.284 . S
Zn198 O197 1.899 . S
Zn198 O199 2.032 . S
Zn198 O202 2.086 . S
Zn198 O207 1.977 . S
O199 Zn198 2.032 . S
O199 C203 1.278 . S
C200 O201 1.203 . S
C200 O207 1.267 . S
O201 C200 1.203 . S
O202 C195 1.185 . S
O202 Zn198 2.086 . S
C203 O199 1.278 . S
C203 O204 1.211 . S
O204 C203 1.211 . S
C205 O197 1.284 . S
C205 O206 1.273 . S
O206 C205 1.273 . S
O207 Zn198 1.977 . S
O207 C200 1.267 . S
C208 O209 1.160 1_565 S
C208 O215 1.185 . S
O209 C208 1.160 1_545 S
O210 Zn211 1.899 1_545 S
O210 C218 1.284 . S
Zn211 O210 1.899 1_565 S
Zn211 O212 2.032 . S
Zn211 O215 2.086 . S
Zn211 O220 1.977 . S
O212 Zn211 2.032 . S
O212 C216 1.278 . S
C213 O214 1.203 . S
C213 O220 1.267 . S
O214 C213 1.203 . S
O215 C208 1.185 . S
O215 Zn211 2.086 . S
C216 O212 1.278 . S
C216 O217 1.211 . S
O217 C216 1.211 . S
C218 O210 1.284 . S
C218 O219 1.273 . S
O219 C218 1.273 . S
O220 Zn211 1.977 . S
O220 C213 1.267 . S
C221 O222 1.160 . S
C221 O228 1.185 . S
O222 C221 1.160 . S
O223 Zn224 1.899 . S
O223 C231 1.284 . S
Zn224 O223 1.899 . S
Zn224 O225 2.032 . S
Zn224 O228 2.086 1_455 S
Zn224 O233 1.977 . S
O225 Zn224 2.032 . S
O225 C229 1.278 . S
C226 O227 1.203 . S
C226 O233 1.267 . S
O227 C226 1.203 . S
O228 C221 1.185 . S
O228 Zn224 2.086 1_655 S
C229 O225 1.278 . S
C229 O230 1.211 . S
O230 C229 1.211 . S
C231 O223 1.284 . S
C231 O232 1.273 . S
O232 C231 1.273 . S
O233 Zn224 1.977 . S
O233 C226 1.267 . S
Zn234 O240 1.920 1_455 S
Zn234 O246 1.898 1_445 S
Zn234 O249 1.905 . S
Zn235 O243 1.905 1_445 S
Zn235 O244 1.898 . S
Zn235 O252 1.920 1_455 S
Zn236 O239 2.080 . S
Zn236 O242 2.114 1_545 S
Zn236 O245 2.120 . S
Zn236 O247 2.120 1_445 S
Zn236 O248 2.114 . S
Zn236 O251 2.080 1_455 S
C237 O242 1.166 1_655 S
C237 O243 1.182 . S
C238 O244 1.167 . S
C238 O245 1.299 . S
O239 Zn236 2.080 . S
O239 C253 1.305 1_455 S
O240 Zn234 1.920 1_655 S
O240 C253 1.234 . S
C241 O246 1.167 . S
C241 O247 1.299 . S
O242 Zn236 2.114 1_565 S
O242 C237 1.166 1_455 S
O243 Zn235 1.905 1_665 S
O243 C237 1.182 . S
O244 Zn235 1.898 . S
O244 C238 1.167 . S
O245 Zn236 2.120 . S
O245 C238 1.299 . S
O246 Zn234 1.898 1_665 S
O246 C241 1.167 . S
O247 Zn236 2.120 1_665 S
O247 C241 1.299 . S
O248 Zn236 2.114 . S
O248 C250 1.166 . S
O249 Zn234 1.905 . S
O249 C250 1.182 . S
C250 O248 1.166 . S
C250 O249 1.182 . S
O251 Zn236 2.080 1_655 S
O251 C254 1.305 . S
O252 Zn235 1.920 1_655 S
O252 C254 1.234 . S
C253 O239 1.305 1_655 S
C253 O240 1.234 . S
C254 O251 1.305 . S
C254 O252 1.234 . S
Zn255 O261 1.920 1_545 S
Zn255 O267 1.898 . S
Zn255 O270 1.905 1_445 S
Zn256 O264 1.905 . S
Zn256 O265 1.898 1_445 S
Zn256 O273 1.920 1_545 S
Zn257 O260 2.072 1_545 S
Zn257 O263 2.114 . S
Zn257 O266 2.120 1_445 S
Zn257 O268 2.120 . S
Zn257 O269 2.114 1_455 S
Zn257 O272 2.080 . S
C258 O263 1.166 . S
C258 O264 1.182 . S
C259 O265 1.167 . S
C259 O266 1.299 . S
O260 Zn257 2.072 1_565 S
O260 C274 1.321 . S
O261 Zn255 1.920 1_565 S
O261 C274 1.234 . S
C262 O267 1.167 . S
C262 O268 1.299 . S
O263 Zn257 2.114 . S
O263 C258 1.166 . S
O264 Zn256 1.905 . S
O264 C258 1.182 . S
O265 Zn256 1.898 1_665 S
O265 C259 1.167 . S
O266 Zn257 2.120 1_665 S
O266 C259 1.299 . S
O267 Zn255 1.898 . S
O267 C262 1.167 . S
O268 Zn257 2.120 . S
O268 C262 1.299 . S
O269 Zn257 2.114 1_655 S
O269 C271 1.166 . S
O270 Zn255 1.905 1_665 S
O270 C271 1.182 1_565 S
C271 O269 1.166 . S
C271 O270 1.182 1_545 S
O272 Zn257 2.080 . S
O272 C275 1.305 1_545 S
O273 Zn256 1.920 1_565 S
O273 C275 1.234 . S
C274 O260 1.321 . S
C274 O261 1.234 . S
C275 O272 1.305 1_565 S
C275 O273 1.234 . S
Zn276 O282 1.920 1_545 S
Zn276 O288 1.898 . S
Zn276 O291 1.905 1_445 S
Zn277 O285 1.905 . S
Zn277 O286 1.898 1_445 S
Zn277 O294 1.920 1_545 S
Zn278 O281 2.080 1_545 S
Zn278 O284 2.114 . S
Zn278 O287 2.120 1_445 S
Zn278 O289 2.120 . S
Zn278 O290 2.114 1_455 S
Zn278 O293 2.080 . S
C279 O284 1.166 . S
C279 O285 1.182 . S
C280 O286 1.167 . S
C280 O287 1.299 . S
O281 Zn278 2.080 1_565 S
O281 C295 1.305 . S
O282 Zn276 1.920 1_565 S
O282 C295 1.234 . S
C283 O288 1.167 . S
C283 O289 1.299 . S
O284 Zn278 2.114 . S
O284 C279 1.166 . S
O285 Zn277 1.905 . S
O285 C279 1.182 . S
O286 Zn277 1.898 1_665 S
O286 C280 1.167 . S
O287 Zn278 2.120 1_665 S
O287 C280 1.299 . S
O288 Zn276 1.898 . S
O288 C283 1.167 . S
O289 Zn278 2.120 . S
O289 C283 1.299 . S
O290 Zn278 2.114 1_655 S
O290 C292 1.164 1_545 S
O291 Zn276 1.905 1_665 S
O291 C292 1.185 . S
C292 O290 1.164 1_565 S
C292 O291 1.185 . S
O293 Zn278 2.080 . S
O293 C296 1.305 . S
O294 Zn277 1.920 1_565 S
O294 C296 1.234 1_565 S
C295 O281 1.305 . S
C295 O282 1.234 . S
C296 O293 1.305 . S
C296 O294 1.234 1_545 S
Zn297 O303 1.920 1_455 S
Zn297 O309 1.898 1_445 S
Zn297 O312 1.905 . S
Zn298 O306 1.905 1_445 S
Zn298 O307 1.898 . S
Zn298 O315 1.920 1_455 S
Zn299 O302 2.080 . S
Zn299 O305 2.114 1_545 S
Zn299 O308 2.120 . S
Zn299 O310 2.120 1_445 S
Zn299 O311 2.114 . S
Zn299 O314 2.080 1_455 S
C300 O305 1.166 1_655 S
C300 O306 1.182 . S
C301 O307 1.167 . S
C301 O308 1.299 . S
O302 Zn299 2.080 . S
O302 C316 1.305 . S
O303 Zn297 1.920 1_655 S
O303 C316 1.234 1_655 S
C304 O309 1.167 . S
C304 O310 1.299 . S
O305 Zn299 2.114 1_565 S
O305 C300 1.166 1_455 S
O306 Zn298 1.905 1_665 S
O306 C300 1.182 . S
O307 Zn298 1.898 . S
O307 C301 1.167 . S
O308 Zn299 2.120 . S
O308 C301 1.299 . S
O309 Zn297 1.898 1_665 S
O309 C304 1.167 . S
O310 Zn299 2.120 1_665 S
O310 C304 1.299 . S
O311 Zn299 2.114 . S
O311 C313 1.166 . S
O312 Zn297 1.905 . S
O312 C313 1.182 . S
C313 O311 1.166 . S
C313 O312 1.182 . S
O314 Zn299 2.080 1_655 S
O314 C317 1.305 . S
O315 Zn298 1.920 1_655 S
O315 C317 1.234 . S
C316 O302 1.305 . S
C316 O303 1.234 1_455 S
C317 O314 1.305 . S
C317 O315 1.234 . S
Zn318 O324 1.920 . S
Zn318 O330 1.898 . S
Zn318 O333 1.905 . S
Zn319 O327 1.905 . S
Zn319 O328 1.898 . S
Zn319 O336 1.920 . S
Zn320 O323 2.080 . S
Zn320 O326 2.114 . S
Zn320 O329 2.120 . S
Zn320 O331 2.120 . S
Zn320 O332 2.114 . S
Zn320 O335 2.080 . S
C321 O326 1.166 . S
C321 O327 1.182 . S
C322 O328 1.167 . S
C322 O329 1.299 . S
O323 Zn320 2.080 . S
O323 C337 1.305 . S
O324 Zn318 1.920 . S
O324 C337 1.234 . S
C325 O330 1.167 . S
C325 O331 1.299 . S
O326 Zn320 2.114 . S
O326 C321 1.166 . S
O327 Zn319 1.905 . S
O327 C321 1.182 . S
O328 Zn319 1.898 . S
O328 C322 1.167 . S
O329 Zn320 2.120 . S
O329 C322 1.299 . S
O330 Zn318 1.898 . S
O330 C325 1.167 . S
O331 Zn320 2.120 . S
O331 C325 1.299 . S
O332 Zn320 2.114 . S
O332 C334 1.166 . S
O333 Zn318 1.905 . S
O333 C334 1.182 . S
C334 O332 1.166 . S
C334 O333 1.182 . S
O335 Zn320 2.080 . S
O335 C338 1.305 . S
O336 Zn319 1.920 . S
O336 C338 1.234 . S
C337 O323 1.305 . S
C337 O324 1.234 . S
C338 O335 1.305 . S
C338 O336 1.234 . S
Zn339 O345 1.920 . S
Zn339 O351 1.898 . S
Zn339 O354 1.905 . S
Zn340 O348 1.905 . S
Zn340 O349 1.898 . S
Zn340 O357 1.920 . S
Zn341 O344 2.080 . S
Zn341 O347 2.114 . S
Zn341 O350 2.120 . S
Zn341 O352 2.120 . S
Zn341 O353 2.114 . S
Zn341 O356 2.080 . S
C342 O347 1.166 . S
C342 O348 1.182 . S
C343 O349 1.167 . S
C343 O350 1.299 . S
O344 Zn341 2.080 . S
O344 C358 1.305 . S
O345 Zn339 1.920 . S
O345 C358 1.234 . S
C346 O351 1.167 . S
C346 O352 1.299 . S
O347 Zn341 2.114 . S
O347 C342 1.166 . S
O348 Zn340 1.905 . S
O348 C342 1.182 . S
O349 Zn340 1.898 . S
O349 C343 1.167 . S
O350 Zn341 2.120 . S
O350 C343 1.299 . S
O351 Zn339 1.898 . S
O351 C346 1.167 . S
O352 Zn341 2.120 . S
O352 C346 1.299 . S
O353 Zn341 2.114 . S
O353 C355 1.166 . S
O354 Zn339 1.905 . S
O354 C355 1.182 . S
C355 O353 1.166 . S
C355 O354 1.182 . S
O356 Zn341 2.080 . S
O356 C359 1.305 . S
O357 Zn340 1.920 . S
O357 C359 1.234 . S
C358 O344 1.305 . S
C358 O345 1.234 . S
C359 O356 1.305 . S
C359 O357 1.234 . S
Zn360 O366 1.920 . S
Zn360 O372 1.898 . S
Zn360 O375 1.905 . S
Zn361 O369 1.905 . S
Zn361 O370 1.898 . S
Zn361 O378 1.920 . S
Zn362 O365 2.080 . S
Zn362 O368 2.114 . S
Zn362 O371 2.120 . S
Zn362 O373 2.120 . S
Zn362 O374 2.114 . S
Zn362 O377 2.080 . S
C363 O368 1.166 . S
C363 O369 1.182 . S
C364 O370 1.167 . S
C364 O371 1.299 . S
O365 Zn362 2.080 . S
O365 C379 1.305 . S
O366 Zn360 1.920 . S
O366 C379 1.234 . S
C367 O372 1.167 . S
C367 O373 1.299 . S
O368 Zn362 2.114 . S
O368 C363 1.166 . S
O369 Zn361 1.905 . S
O369 C363 1.182 . S
O370 Zn361 1.898 . S
O370 C364 1.167 . S
O371 Zn362 2.120 . S
O371 C364 1.299 . S
O372 Zn360 1.898 . S
O372 C367 1.167 . S
O373 Zn362 2.120 . S
O373 C367 1.299 . S
O374 Zn362 2.114 . S
O374 C376 1.166 . S
O375 Zn360 1.905 . S
O375 C376 1.182 . S
C376 O374 1.166 . S
C376 O375 1.182 . S
O377 Zn362 2.080 . S
O377 C380 1.305 . S
O378 Zn361 1.920 . S
O378 C380 1.234 . S
C379 O365 1.305 . S
C379 O366 1.234 . S
C380 O377 1.305 . S
C380 O378 1.234 . S
Zn381 O387 1.920 . S
Zn381 O393 1.898 . S
Zn381 O396 1.905 . S
Zn382 O390 1.905 . S
Zn382 O391 1.898 . S
Zn382 O399 1.920 . S
Zn383 O386 2.080 . S
Zn383 O389 2.114 . S
Zn383 O392 2.120 . S
Zn383 O394 2.120 . S
Zn383 O395 2.114 . S
Zn383 O398 2.080 . S
C384 O389 1.166 . S
C384 O390 1.182 . S
C385 O391 1.167 . S
C385 O392 1.299 . S
O386 Zn383 2.080 . S
O386 C400 1.305 1_556 S
O387 Zn381 1.920 . S
O387 C400 1.234 . S
C388 O393 1.167 . S
C388 O394 1.299 1_554 S
O389 Zn383 2.114 . S
O389 C384 1.166 . S
O390 Zn382 1.905 . S
O390 C384 1.182 . S
O391 Zn382 1.898 . S
O391 C385 1.167 . S
O392 Zn383 2.120 . S
O392 C385 1.299 . S
O393 Zn381 1.898 . S
O393 C388 1.167 . S
O394 Zn383 2.120 . S
O394 C388 1.299 1_556 S
O395 Zn383 2.114 . S
O395 C397 1.166 1_556 S
O396 Zn381 1.905 . S
O396 C397 1.182 . S
C397 O395 1.166 1_554 S
C397 O396 1.182 . S
O398 Zn383 2.080 . S
O398 C401 1.305 . S
O399 Zn382 1.920 . S
O399 C401 1.234 . S
C400 O386 1.305 1_554 S
C400 O387 1.234 . S
C401 O398 1.305 . S
C401 O399 1.234 . S
Zn402 O408 1.920 . S
Zn402 O414 1.898 . S
Zn402 O417 1.905 . S
Zn403 O411 1.905 . S
Zn403 O412 1.898 . S
Zn403 O420 1.920 . S
Zn404 O407 2.080 . S
Zn404 O410 2.114 . S
Zn404 O413 2.120 . S
Zn404 O415 2.120 . S
Zn404 O416 2.114 . S
Zn404 O419 2.080 . S
C405 O410 1.166 . S
C405 O411 1.182 . S
C406 O412 1.167 . S
C406 O413 1.299 . S
O407 Zn404 2.080 . S
O407 C421 1.305 . S
O408 Zn402 1.920 . S
O408 C421 1.234 . S
C409 O414 1.167 . S
C409 O415 1.299 . S
O410 Zn404 2.114 . S
O410 C405 1.166 . S
O411 Zn403 1.905 . S
O411 C405 1.182 . S
O412 Zn403 1.898 . S
O412 C406 1.167 . S
O413 Zn404 2.120 . S
O413 C406 1.299 . S
O414 Zn402 1.898 . S
O414 C409 1.167 . S
O415 Zn404 2.120 . S
O415 C409 1.299 . S
O416 Zn404 2.114 . S
O416 C418 1.166 . S
O417 Zn402 1.905 . S
O417 C418 1.182 . S
C418 O416 1.166 . S
C418 O417 1.182 . S
O419 Zn404 2.080 . S
O419 C422 1.305 . S
O420 Zn403 1.920 . S
O420 C422 1.234 . S
C421 O407 1.305 . S
C421 O408 1.234 . S
C422 O419 1.305 . S
C422 O420 1.234 . S
Zn423 O429 1.920 . S
Zn423 O435 1.898 . S
Zn423 O438 1.905 . S
Zn424 O432 1.905 . S
Zn424 O433 1.898 . S
Zn424 O441 1.920 . S
Zn425 O428 2.080 . S
Zn425 O431 2.114 . S
Zn425 O434 2.120 . S
Zn425 O436 2.120 . S
Zn425 O437 2.114 . S
Zn425 O440 2.080 . S
C426 O431 1.166 1_556 S
C426 O432 1.182 . S
C427 O433 1.167 . S
C427 O434 1.299 1_556 S
O428 Zn425 2.080 . S
O428 C442 1.305 . S
O429 Zn423 1.920 . S
O429 C442 1.234 . S
C430 O435 1.167 . S
C430 O436 1.299 . S
O431 Zn425 2.114 . S
O431 C426 1.166 1_554 S
O432 Zn424 1.905 . S
O432 C426 1.182 . S
O433 Zn424 1.898 . S
O433 C427 1.167 . S
O434 Zn425 2.120 . S
O434 C427 1.299 1_554 S
O435 Zn423 1.898 . S
O435 C430 1.167 . S
O436 Zn425 2.120 . S
O436 C430 1.299 . S
O437 Zn425 2.114 . S
O437 C439 1.166 . S
O438 Zn423 1.905 . S
O438 C439 1.182 . S
C439 O437 1.166 . S
C439 O438 1.182 . S
O440 Zn425 2.080 . S
O440 C443 1.305 1_554 S
O441 Zn424 1.920 . S
O441 C443 1.234 . S
C442 O428 1.305 . S
C442 O429 1.234 . S
C443 O440 1.305 1_556 S
C443 O441 1.234 . S
Zn444 O450 1.920 . S
Zn444 O456 1.898 . S
Zn444 O459 1.905 . S
Zn445 O453 1.905 . S
Zn445 O454 1.898 . S
Zn445 O462 1.920 . S
Zn446 O449 2.080 . S
Zn446 O452 2.114 . S
Zn446 O455 2.120 . S
Zn446 O457 2.120 . S
Zn446 O458 2.114 . S
Zn446 O461 2.080 . S
C447 O452 1.166 . S
C447 O453 1.182 . S
C448 O454 1.167 . S
C448 O455 1.299 . S
O449 Zn446 2.080 . S
O449 C463 1.305 . S
O450 Zn444 1.920 . S
O450 C463 1.234 . S
C451 O456 1.167 . S
C451 O457 1.299 . S
O452 Zn446 2.114 . S
O452 C447 1.166 . S
O453 Zn445 1.905 . S
O453 C447 1.182 . S
O454 Zn445 1.898 . S
O454 C448 1.167 . S
O455 Zn446 2.120 . S
O455 C448 1.299 . S
O456 Zn444 1.898 . S
O456 C451 1.167 . S
O457 Zn446 2.120 . S
O457 C451 1.299 . S
O458 Zn446 2.114 . S
O458 C460 1.166 . S
O459 Zn444 1.905 . S
O459 C460 1.182 . S
C460 O458 1.166 . S
C460 O459 1.182 . S
O461 Zn446 2.080 . S
O461 C464 1.305 . S
O462 Zn445 1.920 . S
O462 C464 1.234 . S
C463 O449 1.305 . S
C463 O450 1.234 . S
C464 O461 1.305 . S
C464 O462 1.234 . S
Zn465 O471 1.920 . S
Zn465 O477 1.898 . S
Zn465 O480 1.905 . S
Zn466 O474 1.905 . S
Zn466 O475 1.898 . S
Zn466 O483 1.920 . S
Zn467 O470 2.080 . S
Zn467 O473 2.114 . S
Zn467 O476 2.120 . S
Zn467 O478 2.120 . S
Zn467 O479 2.114 . S
Zn467 O482 2.080 . S
C468 O473 1.166 . S
C468 O474 1.182 . S
C469 O475 1.167 . S
C469 O476 1.299 . S
O470 Zn467 2.080 . S
O470 C484 1.305 . S
O471 Zn465 1.920 . S
O471 C484 1.234 . S
C472 O477 1.167 . S
C472 O478 1.299 . S
O473 Zn467 2.114 . S
O473 C468 1.166 . S
O474 Zn466 1.905 . S
O474 C468 1.182 . S
O475 Zn466 1.898 . S
O475 C469 1.167 . S
O476 Zn467 2.120 . S
O476 C469 1.299 . S
O477 Zn465 1.898 . S
O477 C472 1.167 . S
O478 Zn467 2.120 . S
O478 C472 1.299 . S
O479 Zn467 2.114 . S
O479 C481 1.166 . S
O480 Zn465 1.905 . S
O480 C481 1.182 . S
C481 O479 1.166 . S
C481 O480 1.182 . S
O482 Zn467 2.080 . S
O482 C485 1.305 . S
O483 Zn466 1.920 . S
O483 C485 1.234 . S
C484 O470 1.305 . S
C484 O471 1.234 . S
C485 O482 1.305 . S
C485 O483 1.234 . S
C486 C487 1.387 . S
C486 H490 0.950 . S
C486 C495 1.390 . S
C487 C486 1.387 . S
C487 C489 1.387 . S
H488 C495 0.950 . S
C489 C487 1.387 . S
C489 C491 1.390 . S
C489 H493 0.950 . S
H490 C486 0.950 . S
C491 C489 1.390 . S
C491 C492 1.387 . S
C491 H494 0.950 . S
C492 C491 1.387 . S
C492 C495 1.387 . S
H493 C489 0.950 . S
H494 C491 0.950 . S
C495 C486 1.390 . S
C495 H488 0.950 . S
C495 C492 1.387 . S
C496 C497 1.393 . S
C496 H500 0.950 . S
C496 C505 1.390 . S
C497 C496 1.393 . S
C497 C499 1.383 1_565 S
H498 C505 0.950 . S
C499 C497 1.383 1_545 S
C499 C501 1.390 . S
C499 H503 0.950 . S
H500 C496 0.950 . S
C501 C499 1.390 . S
C501 C502 1.387 . S
C501 H504 0.950 . S
C502 C501 1.387 . S
C502 C505 1.387 1_545 S
H503 C499 0.950 . S
H504 C501 0.950 . S
C505 C496 1.390 . S
C505 H498 0.950 . S
C505 C502 1.387 1_565 S
C506 C507 1.387 . S
C506 H510 0.950 . S
C506 C515 1.390 . S
C507 C506 1.387 . S
C507 C509 1.387 . S
H508 C515 0.948 . S
C509 C507 1.387 . S
C509 C511 1.390 . S
C509 H513 0.950 . S
H510 C506 0.950 . S
C511 C509 1.390 . S
C511 C512 1.387 1_455 S
C511 H514 0.950 1_455 S
C512 C511 1.387 1_655 S
C512 C515 1.387 1_655 S
H513 C509 0.950 . S
H514 C511 0.950 1_655 S
C515 C506 1.390 . S
C515 H508 0.948 . S
C515 C512 1.387 1_455 S
C516 C517 1.387 . S
C516 H520 0.950 . S
C516 C525 1.390 . S
C517 C516 1.387 . S
C517 C519 1.387 . S
H518 C525 0.950 . S
C519 C517 1.387 . S
C519 C521 1.390 . S
C519 H523 0.950 . S
H520 C516 0.950 . S
C521 C519 1.390 . S
C521 C522 1.387 . S
C521 H524 0.950 . S
C522 C521 1.387 . S
C522 C525 1.387 . S
H523 C519 0.950 . S
H524 C521 0.950 . S
C525 C516 1.390 . S
C525 H518 0.950 . S
C525 C522 1.387 . S
C526 C527 1.387 1_565 S
C526 H530 0.950 . S
C526 C535 1.390 . S
C527 C526 1.387 1_545 S
C527 C529 1.387 . S
H528 C535 0.950 . S
C529 C527 1.387 . S
C529 C531 1.390 . S
C529 H533 0.950 . S
H530 C526 0.950 . S
C531 C529 1.390 . S
C531 C532 1.387 . S
C531 H534 0.950 . S
C532 C531 1.387 . S
C532 C535 1.387 1_545 S
H533 C529 0.950 . S
H534 C531 0.950 . S
C535 C526 1.390 . S
C535 H528 0.950 . S
C535 C532 1.387 1_565 S
C536 C537 1.387 . S
C536 H540 0.950 . S
C536 C545 1.390 . S
C537 C536 1.387 . S
C537 C539 1.387 1_655 S
H538 C545 0.950 . S
C539 C537 1.387 1_455 S
C539 C541 1.390 . S
C539 H543 0.950 . S
H540 C536 0.950 . S
C541 C539 1.390 . S
C541 C542 1.387 . S
C541 H544 0.950 . S
C542 C541 1.387 . S
C542 C545 1.387 1_455 S
H543 C539 0.950 . S
H544 C541 0.950 . S
C545 C536 1.390 . S
C545 H538 0.950 . S
C545 C542 1.387 1_655 S
C546 C547 1.387 . S
C546 H550 0.950 . S
C546 C555 1.390 . S
C547 C546 1.387 . S
C547 C549 1.387 . S
H548 C555 0.950 . S
C549 C547 1.387 . S
C549 C551 1.390 . S
C549 H553 0.950 . S
H550 C546 0.950 . S
C551 C549 1.390 . S
C551 C552 1.387 . S
C551 H554 0.950 . S
C552 C551 1.387 . S
C552 C555 1.387 . S
H553 C549 0.950 . S
H554 C551 0.950 . S
C555 C546 1.390 . S
C555 H548 0.950 . S
C555 C552 1.387 . S
C556 C557 1.387 . S
C556 H560 0.950 . S
C556 C565 1.390 . S
C557 C556 1.387 . S
C557 C559 1.387 . S
H558 C565 0.950 . S
C559 C557 1.387 . S
C559 C561 1.390 1_545 S
C559 H563 0.950 1_545 S
H560 C556 0.950 . S
C561 C559 1.390 1_565 S
C561 C562 1.387 1_565 S
C561 H564 0.950 . S
C562 C561 1.387 1_545 S
C562 C565 1.387 . S
H563 C559 0.950 1_565 S
H564 C561 0.950 . S
C565 C556 1.390 . S
C565 H558 0.950 . S
C565 C562 1.387 . S
C566 C567 1.387 . S
C566 H570 0.950 . S
C566 C575 1.390 . S
C567 C566 1.387 . S
C567 C569 1.387 1_455 S
H568 C575 0.950 . S
C569 C567 1.387 1_655 S
C569 C571 1.390 . S
C569 H573 0.950 . S
H570 C566 0.950 . S
C571 C569 1.390 . S
C571 C572 1.387 1_655 S
C571 H574 0.950 . S
C572 C571 1.387 1_455 S
C572 C575 1.387 . S
H573 C569 0.950 . S
H574 C571 0.950 . S
C575 C566 1.390 . S
C575 H568 0.950 . S
C575 C572 1.387 . S
C576 C577 1.387 . S
C576 H580 0.950 . S
C576 C585 1.390 . S
C577 C576 1.387 . S
C577 C579 1.387 . S
H578 C585 0.950 . S
C579 C577 1.387 . S
C579 C581 1.390 . S
C579 H583 0.950 . S
H580 C576 0.950 . S
C581 C579 1.390 . S
C581 C582 1.387 . S
C581 H584 0.950 . S
C582 C581 1.387 . S
C582 C585 1.387 . S
H583 C579 0.950 . S
H584 C581 0.950 . S
C585 C576 1.390 . S
C585 H578 0.950 . S
C585 C582 1.387 . S
C586 C587 1.387 . S
C586 H590 0.950 . S
C586 C595 1.390 . S
C587 C586 1.387 . S
C587 C589 1.387 1_545 S
H588 C595 0.950 . S
C589 C587 1.387 1_565 S
C589 C591 1.390 . S
C589 H593 0.950 . S
H590 C586 0.950 . S
C591 C589 1.390 . S
C591 C592 1.387 1_565 S
C591 H594 0.950 . S
C592 C591 1.387 1_545 S
C592 C595 1.387 . S
H593 C589 0.950 . S
H594 C591 0.950 . S
C595 C586 1.390 . S
C595 H588 0.950 . S
C595 C592 1.387 . S
C596 C597 1.387 . S
C596 H600 0.950 . S
C596 C605 1.390 . S
C597 C596 1.387 . S
C597 C599 1.387 . S
H598 C605 0.950 . S
C599 C597 1.387 . S
C599 C601 1.390 1_455 S
C599 H603 0.950 . S
H600 C596 0.950 . S
C601 C599 1.390 1_655 S
C601 C602 1.387 1_655 S
C601 H604 0.950 . S
C602 C601 1.387 1_455 S
C602 C605 1.387 . S
H603 C599 0.950 . S
H604 C601 0.950 . S
C605 C596 1.390 . S
C605 H598 0.950 . S
C605 C602 1.387 . S
C606 C607 1.387 . S
C606 H610 0.950 . S
C606 C615 1.390 . S
C607 C606 1.387 . S
C607 C609 1.387 . S
H608 C615 0.950 . S
C609 C607 1.387 . S
C609 C611 1.390 . S
C609 H613 0.950 . S
H610 C606 0.950 . S
C611 C609 1.390 . S
C611 C612 1.387 . S
C611 H614 0.950 . S
C612 C611 1.387 . S
C612 C615 1.387 . S
H613 C609 0.950 . S
H614 C611 0.950 . S
C615 C606 1.390 . S
C615 H608 0.950 . S
C615 C612 1.387 . S
C616 C617 1.387 . S
C616 H620 0.950 . S
C616 C625 1.390 . S
C617 C616 1.387 . S
C617 C619 1.387 . S
H618 C625 0.950 . S
C619 C617 1.387 . S
C619 C621 1.390 . S
C619 H623 0.950 . S
H620 C616 0.950 . S
C621 C619 1.390 . S
C621 C622 1.387 . S
C621 H624 0.950 . S
C622 C621 1.387 . S
C622 C625 1.387 . S
H623 C619 0.950 . S
H624 C621 0.950 . S
C625 C616 1.390 . S
C625 H618 0.950 . S
C625 C622 1.387 . S
C626 C627 1.387 . S
C626 H630 0.950 . S
C626 C635 1.390 . S
C627 C626 1.387 . S
C627 C629 1.387 . S
H628 C635 0.950 . S
C629 C627 1.387 . S
C629 C631 1.390 . S
C629 H633 0.950 . S
H630 C626 0.950 . S
C631 C629 1.390 . S
C631 C632 1.387 . S
C631 H634 0.950 . S
C632 C631 1.387 . S
C632 C635 1.387 . S
H633 C629 0.950 . S
H634 C631 0.950 . S
C635 C626 1.390 . S
C635 H628 0.950 . S
C635 C632 1.387 . S
C636 C637 1.387 . S
C636 H640 0.950 . S
C636 C645 1.390 . S
C637 C636 1.387 . S
C637 C639 1.387 . S
H638 C645 0.950 . S
C639 C637 1.387 . S
C639 C641 1.390 . S
C639 H643 0.950 . S
H640 C636 0.950 . S
C641 C639 1.390 . S
C641 C642 1.387 . S
C641 H644 0.950 . S
C642 C641 1.387 . S
C642 C645 1.387 . S
H643 C639 0.950 . S
H644 C641 0.950 . S
C645 C636 1.390 . S
C645 H638 0.950 . S
C645 C642 1.387 . S
C646 C647 1.387 . S
C646 H650 0.950 . S
C646 C655 1.390 . S
C647 C646 1.387 . S
C647 C649 1.387 . S
H648 C655 0.950 . S
C649 C647 1.387 . S
C649 C651 1.390 . S
C649 H653 0.950 . S
H650 C646 0.950 . S
C651 C649 1.390 . S
C651 C652 1.387 . S
C651 H654 0.950 . S
C652 C651 1.387 . S
C652 C655 1.387 . S
H653 C649 0.950 . S
H654 C651 0.950 . S
C655 C646 1.390 . S
C655 H648 0.950 . S
C655 C652 1.387 . S
C656 C657 1.387 . S
C656 H660 0.950 . S
C656 C665 1.390 . S
C657 C656 1.387 . S
C657 C659 1.387 . S
H658 C665 0.950 . S
C659 C657 1.387 . S
C659 C661 1.390 . S
C659 H663 0.950 . S
H660 C656 0.950 . S
C661 C659 1.390 . S
C661 C662 1.387 . S
C661 H664 0.950 . S
C662 C661 1.387 . S
C662 C665 1.387 . S
H663 C659 0.950 . S
H664 C661 0.950 . S
C665 C656 1.390 . S
C665 H658 0.950 . S
C665 C662 1.387 . S
C666 C667 1.387 . S
C666 H670 0.950 . S
C666 C675 1.390 . S
C667 C666 1.387 . S
C667 C669 1.387 . S
H668 C675 0.950 . S
C669 C667 1.387 . S
C669 C671 1.390 . S
C669 H673 0.950 . S
H670 C666 0.950 . S
C671 C669 1.390 . S
C671 C672 1.387 . S
C671 H674 0.950 . S
C672 C671 1.387 . S
C672 C675 1.387 . S
H673 C669 0.950 . S
H674 C671 0.950 . S
C675 C666 1.390 . S
C675 H668 0.950 . S
C675 C672 1.387 . S
C676 C677 1.387 . S
C676 H680 0.950 . S
C676 C685 1.390 . S
C677 C676 1.387 . S
C677 C679 1.387 . S
H678 C685 0.950 . S
C679 C677 1.387 . S
C679 C681 1.390 . S
C679 H683 0.950 . S
H680 C676 0.950 . S
C681 C679 1.390 . S
C681 C682 1.387 . S
C681 H684 0.950 . S
C682 C681 1.387 . S
C682 C685 1.387 . S
H683 C679 0.950 . S
H684 C681 0.950 . S
C685 C676 1.390 . S
C685 H678 0.950 . S
C685 C682 1.387 . S
C686 C687 1.387 . S
C686 H690 0.950 . S
C686 C695 1.390 . S
C687 C686 1.387 . S
C687 C689 1.387 . S
H688 C695 0.950 . S
C689 C687 1.387 . S
C689 C691 1.390 . S
C689 H693 0.950 . S
H690 C686 0.950 . S
C691 C689 1.390 . S
C691 C692 1.387 . S
C691 H694 0.950 . S
C692 C691 1.387 . S
C692 C695 1.387 . S
H693 C689 0.950 . S
H694 C691 0.950 . S
C695 C686 1.390 . S
C695 H688 0.950 . S
C695 C692 1.387 . S
C696 C697 1.387 . S
C696 H700 0.950 . S
C696 C705 1.390 . S
C697 C696 1.387 . S
C697 C699 1.387 . S
H698 C705 0.950 1_556 S
C699 C697 1.387 . S
C699 C701 1.390 . S
C699 H703 0.950 . S
H700 C696 0.950 . S
C701 C699 1.390 . S
C701 C702 1.387 . S
C701 H704 0.950 . S
C702 C701 1.387 . S
C702 C705 1.387 . S
H703 C699 0.950 . S
H704 C701 0.950 . S
C705 C696 1.390 . S
C705 H698 0.950 1_554 S
C705 C702 1.387 . S
C706 C707 1.387 . S
C706 H710 0.950 . S
C706 C715 1.390 . S
C707 C706 1.387 . S
C707 C709 1.387 . S
H708 C715 0.950 . S
C709 C707 1.387 . S
C709 C711 1.390 . S
C709 H713 0.950 . S
H710 C706 0.950 . S
C711 C709 1.390 . S
C711 C712 1.387 . S
C711 H714 0.950 1_554 S
C712 C711 1.387 . S
C712 C715 1.387 . S
H713 C709 0.950 . S
H714 C711 0.950 1_556 S
C715 C706 1.390 . S
C715 H708 0.950 . S
C715 C712 1.387 . S
C716 C717 1.387 . S
C716 H720 0.950 . S
C716 C725 1.390 . S
C717 C716 1.387 . S
C717 C719 1.387 . S
H718 C725 0.950 . S
C719 C717 1.387 . S
C719 C721 1.390 . S
C719 H723 0.950 . S
H720 C716 0.950 . S
C721 C719 1.390 . S
C721 C722 1.387 . S
C721 H724 0.950 . S
C722 C721 1.387 . S
C722 C725 1.387 . S
H723 C719 0.950 . S
H724 C721 0.950 . S
C725 C716 1.390 . S
C725 H718 0.950 . S
C725 C722 1.387 . S
C726 C727 1.387 . S
C726 H730 0.950 . S
C726 C735 1.390 . S
C727 C726 1.387 . S
C727 C729 1.387 . S
H728 C735 0.950 . S
C729 C727 1.387 . S
C729 C731 1.390 . S
C729 H733 0.950 . S
H730 C726 0.950 . S
C731 C729 1.390 . S
C731 C732 1.387 . S
C731 H734 0.950 . S
C732 C731 1.387 . S
C732 C735 1.387 . S
H733 C729 0.950 . S
H734 C731 0.950 . S
C735 C726 1.390 . S
C735 H728 0.950 . S
C735 C732 1.387 . S
C736 C737 1.387 . S
C736 H740 0.950 . S
C736 C745 1.390 . S
C737 C736 1.387 . S
C737 C739 1.387 . S
H738 C745 0.950 . S
C739 C737 1.387 . S
C739 C741 1.390 . S
C739 H743 0.950 . S
H740 C736 0.950 . S
C741 C739 1.390 . S
C741 C742 1.387 . S
C741 H744 0.950 . S
C742 C741 1.387 . S
C742 C745 1.387 . S
H743 C739 0.950 . S
H744 C741 0.950 . S
C745 C736 1.390 . S
C745 H738 0.950 . S
C745 C742 1.387 . S
C746 C747 1.387 . S
C746 H750 0.950 . S
C746 C755 1.390 . S
C747 C746 1.387 . S
C747 C749 1.387 . S
H748 C755 0.950 . S
C749 C747 1.387 . S
C749 C751 1.390 . S
C749 H753 0.950 . S
H750 C746 0.950 . S
C751 C749 1.390 . S
C751 C752 1.387 . S
C751 H754 0.950 . S
C752 C751 1.387 . S
C752 C755 1.387 . S
H753 C749 0.950 . S
H754 C751 0.950 . S
C755 C746 1.390 . S
C755 H748 0.950 . S
C755 C752 1.387 . S
C756 C757 1.387 . S
C756 H760 0.950 . S
C756 C765 1.390 . S
C757 C756 1.387 . S
C757 C759 1.387 . S
H758 C765 0.950 1_554 S
C759 C757 1.387 . S
C759 C761 1.390 . S
C759 H763 0.950 . S
H760 C756 0.950 . S
C761 C759 1.390 . S
C761 C762 1.387 . S
C761 H764 0.950 . S
C762 C761 1.387 . S
C762 C765 1.387 . S
H763 C759 0.950 . S
H764 C761 0.950 . S
C765 C756 1.390 . S
C765 H758 0.950 1_556 S
C765 C762 1.387 . S
C766 C767 1.387 . S
C766 H770 0.950 . S
C766 C775 1.390 . S
C767 C766 1.387 . S
C767 C769 1.387 . S
H768 C775 0.950 . S
C769 C767 1.387 . S
C769 C771 1.390 . S
C769 H773 0.950 . S
H770 C766 0.950 . S
C771 C769 1.390 . S
C771 C772 1.387 . S
C771 H774 0.950 . S
C772 C771 1.387 . S
C772 C775 1.387 . S
H773 C769 0.950 . S
H774 C771 0.950 . S
C775 C766 1.390 . S
C775 H768 0.950 . S
C775 C772 1.387 . S
C776 C777 1.387 . S
C776 H780 0.950 . S
C776 C785 1.390 . S
C777 C776 1.387 . S
C777 C779 1.387 . S
H778 C785 0.950 . S
C779 C777 1.387 . S
C779 C781 1.390 . S
C779 H783 0.950 . S
H780 C776 0.950 . S
C781 C779 1.390 . S
C781 C782 1.387 . S
C781 H784 0.950 . S
C782 C781 1.387 . S
C782 C785 1.387 . S
H783 C779 0.950 . S
H784 C781 0.950 . S
C785 C776 1.390 . S
C785 H778 0.950 . S
C785 C782 1.387 . S
C786 C787 1.387 . S
C786 H790 0.950 . S
C786 C795 1.390 . S
C787 C786 1.387 . S
C787 C789 1.387 . S
H788 C795 0.950 . S
C789 C787 1.387 . S
C789 C791 1.390 . S
C789 H793 0.950 . S
H790 C786 0.950 . S
C791 C789 1.390 . S
C791 C792 1.387 . S
C791 H794 0.950 . S
C792 C791 1.387 . S
C792 C795 1.387 . S
H793 C789 0.950 . S
H794 C791 0.950 . S
C795 C786 1.390 . S
C795 H788 0.950 . S
C795 C792 1.387 . S
C796 C797 1.387 . S
C796 H800 0.950 . S
C796 C805 1.390 . S
C797 C796 1.387 . S
C797 C799 1.387 . S
H798 C805 0.950 . S
C799 C797 1.387 . S
C799 C801 1.390 . S
C799 H803 0.950 . S
H800 C796 0.950 . S
C801 C799 1.390 . S
C801 C802 1.387 . S
C801 H804 0.950 . S
C802 C801 1.387 . S
C802 C805 1.387 . S
H803 C799 0.950 . S
H804 C801 0.950 . S
C805 C796 1.390 . S
C805 H798 0.950 . S
C805 C802 1.387 . S
C806 C807 1.387 . S
C806 H810 0.950 . S
C806 C815 1.390 . S
C807 C806 1.387 . S
C807 C809 1.387 . S
H808 C815 0.950 . S
C809 C807 1.387 . S
C809 C811 1.390 . S
C809 H813 0.950 . S
H810 C806 0.950 . S
C811 C809 1.390 . S
C811 C812 1.387 . S
C811 H814 0.950 . S
C812 C811 1.387 . S
C812 C815 1.387 . S
H813 C809 0.950 . S
H814 C811 0.950 . S
C815 C806 1.390 . S
C815 H808 0.950 . S
C815 C812 1.387 . S
C816 C817 1.387 . S
C816 H820 0.950 . S
C816 C825 1.390 . S
C817 C816 1.387 . S
C817 C819 1.387 . S
H818 C825 0.950 . S
C819 C817 1.387 . S
C819 C821 1.390 . S
C819 H823 0.950 . S
H820 C816 0.950 . S
C821 C819 1.390 . S
C821 C822 1.387 . S
C821 H824 0.950 . S
C822 C821 1.387 . S
C822 C825 1.387 . S
H823 C819 0.950 . S
H824 C821 0.950 . S
C825 C816 1.390 . S
C825 H818 0.950 . S
C825 C822 1.387 . S
C826 C827 1.387 . S
C826 H830 0.950 . S
C826 C835 1.390 . S
C827 C826 1.387 . S
C827 C829 1.387 . S
H828 C835 0.950 . S
C829 C827 1.387 . S
C829 C831 1.390 . S
C829 H833 0.950 . S
H830 C826 0.950 . S
C831 C829 1.390 . S
C831 C832 1.387 . S
C831 H834 0.950 . S
C832 C831 1.387 . S
C832 C835 1.387 . S
H833 C829 0.950 . S
H834 C831 0.950 . S
C835 C826 1.390 . S
C835 H828 0.950 . S
C835 C832 1.387 . S
C836 C837 1.387 . S
C836 H840 0.950 . S
C836 C845 1.390 . S
C837 C836 1.387 . S
C837 C839 1.387 . S
H838 C845 0.950 . S
C839 C837 1.387 . S
C839 C841 1.390 . S
C839 H843 0.950 . S
H840 C836 0.950 . S
C841 C839 1.390 . S
C841 C842 1.387 . S
C841 H844 0.950 . S
C842 C841 1.387 . S
C842 C845 1.387 . S
H843 C839 0.950 . S
H844 C841 0.950 . S
C845 C836 1.390 . S
C845 H838 0.950 . S
C845 C842 1.387 . S
C846 C847 1.387 . S
C846 H850 0.950 1_545 S
C846 C855 1.390 . S
C847 C846 1.387 . S
C847 C849 1.387 . S
H848 C855 0.950 1_565 S
C849 C847 1.387 . S
C849 C851 1.390 . S
C849 H853 0.950 . S
H850 C846 0.950 1_565 S
C851 C849 1.390 . S
C851 C852 1.387 . S
C851 H854 0.950 . S
C852 C851 1.387 . S
C852 C855 1.387 . S
H853 C849 0.950 . S
H854 C851 0.950 . S
C855 C846 1.390 . S
C855 H848 0.950 1_545 S
C855 C852 1.387 . S
C856 C857 1.387 . S
C856 H860 0.950 . S
C856 C865 1.390 . S
C857 C856 1.387 . S
C857 C859 1.387 1_655 S
H858 C865 0.950 . S
C859 C857 1.387 1_455 S
C859 C861 1.390 . S
C859 H863 0.950 . S
H860 C856 0.950 . S
C861 C859 1.390 . S
C861 C862 1.387 1_455 S
C861 H864 0.950 . S
C862 C861 1.387 1_655 S
C862 C865 1.387 . S
H863 C859 0.950 . S
H864 C861 0.950 . S
C865 C856 1.390 . S
C865 H858 0.950 . S
C865 C862 1.387 . S
C866 C867 1.387 . S
C866 H870 0.950 . S
C866 C875 1.390 . S
C867 C866 1.387 . S
C867 C869 1.387 . S
H868 C875 0.950 . S
C869 C867 1.387 . S
C869 C871 1.390 . S
C869 H873 0.950 . S
H870 C866 0.950 . S
C871 C869 1.390 . S
C871 C872 1.387 . S
C871 H874 0.950 . S
C872 C871 1.387 . S
C872 C875 1.387 . S
H873 C869 0.950 . S
H874 C871 0.950 . S
C875 C866 1.390 . S
C875 H868 0.950 . S
C875 C872 1.387 . S
C876 C877 1.387 . S
C876 H880 0.950 . S
C876 C885 1.390 . S
C877 C876 1.387 . S
C877 C879 1.387 . S
H878 C885 0.950 . S
C879 C877 1.387 . S
C879 C881 1.390 . S
C879 H883 0.950 . S
H880 C876 0.950 . S
C881 C879 1.390 . S
C881 C882 1.387 . S
C881 H884 0.950 . S
C882 C881 1.387 . S
C882 C885 1.387 . S
H883 C879 0.950 . S
H884 C881 0.950 . S
C885 C876 1.390 . S
C885 H878 0.950 . S
C885 C882 1.387 . S
C886 C887 1.387 . S
C886 H890 0.950 . S
C886 C895 1.390 . S
C887 C886 1.387 . S
C887 C889 1.387 . S
H888 C895 0.950 . S
C889 C887 1.387 . S
C889 C891 1.390 . S
C889 H893 0.950 . S
H890 C886 0.950 . S
C891 C889 1.390 . S
C891 C892 1.387 . S
C891 H894 0.950 . S
C892 C891 1.387 . S
C892 C895 1.387 . S
H893 C889 0.950 . S
H894 C891 0.950 . S
C895 C886 1.390 . S
C895 H888 0.950 . S
C895 C892 1.387 . S
C896 C897 1.387 . S
C896 H900 0.950 . S
C896 C905 1.390 . S
C897 C896 1.387 . S
C897 C899 1.387 1_565 S
H898 C905 0.950 . S
C899 C897 1.387 1_545 S
C899 C901 1.390 . S
C899 H903 0.950 . S
H900 C896 0.950 . S
C901 C899 1.390 . S
C901 C902 1.387 1_545 S
C901 H904 0.950 . S
C902 C901 1.387 1_565 S
C902 C905 1.387 . S
H903 C899 0.950 . S
H904 C901 0.950 . S
C905 C896 1.390 . S
C905 H898 0.950 . S
C905 C902 1.387 . S
C906 C907 1.387 1_545 S
C906 H910 0.950 . S
C906 C915 1.390 . S
C907 C906 1.387 1_565 S
C907 C909 1.387 . S
H908 C915 0.950 . S
C909 C907 1.387 . S
C909 C911 1.390 . S
C909 H913 0.950 . S
H910 C906 0.950 . S
C911 C909 1.390 . S
C911 C912 1.387 . S
C911 H914 0.950 . S
C912 C911 1.387 . S
C912 C915 1.387 1_565 S
H913 C909 0.950 . S
H914 C911 0.950 . S
C915 C906 1.390 . S
C915 H908 0.950 . S
C915 C912 1.387 1_545 S
C916 C917 1.387 . S
C916 H920 0.950 . S
C916 C925 1.390 . S
C917 C916 1.387 . S
C917 C919 1.387 . S
H918 C925 0.950 . S
C919 C917 1.387 . S
C919 C921 1.390 . S
C919 H923 0.950 . S
H920 C916 0.950 . S
C921 C919 1.390 . S
C921 C922 1.387 . S
C921 H924 0.950 . S
C922 C921 1.387 . S
C922 C925 1.387 . S
H923 C919 0.950 . S
H924 C921 0.950 . S
C925 C916 1.390 . S
C925 H918 0.950 . S
C925 C922 1.387 . S
C926 C927 1.387 . S
C926 H930 0.950 . S
C926 C935 1.390 . S
C927 C926 1.387 . S
C927 C929 1.387 . S
H928 C935 0.950 . S
C929 C927 1.387 . S
C929 C931 1.390 . S
C929 H933 0.950 . S
H930 C926 0.950 . S
C931 C929 1.390 . S
C931 C932 1.387 . S
C931 H934 0.950 . S
C932 C931 1.387 . S
C932 C935 1.387 . S
H933 C929 0.950 . S
H934 C931 0.950 . S
C935 C926 1.390 . S
C935 H928 0.950 . S
C935 C932 1.387 . S
C936 C937 1.387 . S
C936 H940 0.950 . S
C936 C945 1.390 . S
C937 C936 1.387 . S
C937 C939 1.387 . S
H938 C945 0.950 . S
C939 C937 1.387 . S
C939 C941 1.390 . S
C939 H943 0.950 1_655 S
H940 C936 0.950 . S
C941 C939 1.390 . S
C941 C942 1.387 . S
C941 H944 0.950 1_655 S
C942 C941 1.387 . S
C942 C945 1.387 . S
H943 C939 0.950 1_455 S
H944 C941 0.950 1_455 S
C945 C936 1.390 . S
C945 H938 0.950 . S
C945 C942 1.387 . S
C946 C947 1.387 . S
C946 H950 0.950 . S
C946 C955 1.390 . S
C947 C946 1.387 . S
C947 C949 1.387 . S
H948 C955 0.950 . S
C949 C947 1.387 . S
C949 C951 1.390 . S
C949 H953 0.950 . S
H950 C946 0.950 . S
C951 C949 1.390 . S
C951 C952 1.387 . S
C951 H954 0.950 . S
C952 C951 1.387 . S
C952 C955 1.387 . S
H953 C949 0.950 . S
H954 C951 0.950 . S
C955 C946 1.390 . S
C955 H948 0.950 . S
C955 C952 1.387 . S
C956 C957 1.387 . S
C956 H960 0.950 . S
C956 C965 1.390 . S
C957 C956 1.387 . S
C957 C959 1.387 . S
H958 C965 0.950 . S
C959 C957 1.387 . S
C959 C961 1.390 . S
C959 H963 0.950 1_545 S
H960 C956 0.950 . S
C961 C959 1.390 . S
C961 C962 1.387 . S
C961 H964 0.950 1_545 S
C962 C961 1.387 . S
C962 C965 1.387 . S
H963 C959 0.950 1_565 S
H964 C961 0.950 1_565 S
C965 C956 1.390 . S
C965 H958 0.950 . S
C965 C962 1.387 . S
C966 C967 1.387 . S
C966 H970 0.950 . S
C966 C975 1.390 . S
C967 C966 1.387 . S
C967 C969 1.387 . S
H968 C975 0.950 . S
C969 C967 1.387 . S
C969 C971 1.390 . S
C969 H973 0.950 . S
H970 C966 0.950 . S
C971 C969 1.390 . S
C971 C972 1.387 . S
C971 H974 0.950 . S
C972 C971 1.387 . S
C972 C975 1.387 . S
H973 C969 0.950 . S
H974 C971 0.950 . S
C975 C966 1.390 . S
C975 H968 0.950 . S
C975 C972 1.387 . S
C976 C977 1.387 . S
C976 H980 0.950 . S
C976 C985 1.390 . S
C977 C976 1.387 . S
C977 C979 1.387 . S
H978 C985 0.950 . S
C979 C977 1.387 . S
C979 C981 1.390 . S
C979 H983 0.950 . S
H980 C976 0.950 . S
C981 C979 1.390 . S
C981 C982 1.387 . S
C981 H984 0.950 . S
C982 C981 1.387 . S
C982 C985 1.387 . S
H983 C979 0.950 . S
H984 C981 0.950 . S
C985 C976 1.390 . S
C985 H978 0.950 . S
C985 C982 1.387 . S
C986 C987 1.387 . S
C986 H990 0.950 . S
C986 C995 1.390 . S
C987 C986 1.387 . S
C987 C989 1.387 . S
H988 C995 0.950 . S
C989 C987 1.387 . S
C989 C991 1.390 . S
C989 H993 0.950 . S
H990 C986 0.950 . S
C991 C989 1.390 . S
C991 C992 1.387 . S
C991 H994 0.950 . S
C992 C991 1.387 . S
C992 C995 1.387 . S
H993 C989 0.950 . S
H994 C991 0.950 . S
C995 C986 1.390 . S
C995 H988 0.950 . S
C995 C992 1.387 . S
C996 C997 1.387 . S
C996 H1000 0.950 . S
C996 C1005 1.390 . S
C997 C996 1.387 . S
C997 C999 1.387 . S
H998 C1005 0.950 . S
C999 C997 1.387 . S
C999 C1001 1.390 . S
C999 H1003 0.950 . S
H1000 C996 0.950 . S
C1001 C999 1.390 . S
C1001 C1002 1.387 . S
C1001 H1004 0.950 . S
C1002 C1001 1.387 . S
C1002 C1005 1.387 . S
H1003 C999 0.950 . S
H1004 C1001 0.950 . S
C1005 C996 1.390 . S
C1005 H998 0.950 . S
C1005 C1002 1.387 . S
C1006 C1007 1.387 . S
C1006 H1010 0.950 . S
C1006 C1015 1.390 . S
C1007 C1006 1.387 . S
C1007 C1009 1.387 . S
H1008 C1015 0.950 . S
C1009 C1007 1.387 . S
C1009 C1011 1.390 . S
C1009 H1013 0.950 . S
H1010 C1006 0.950 . S
C1011 C1009 1.390 . S
C1011 C1012 1.387 . S
C1011 H1014 0.950 . S
C1012 C1011 1.387 . S
C1012 C1015 1.387 . S
H1013 C1009 0.950 . S
H1014 C1011 0.950 . S
C1015 C1006 1.390 . S
C1015 H1008 0.950 . S
C1015 C1012 1.387 . S
C1016 C1017 1.387 . S
C1016 H1020 0.950 . S
C1016 C1025 1.390 . S
C1017 C1016 1.387 . S
C1017 C1019 1.387 . S
H1018 C1025 0.950 . S
C1019 C1017 1.387 . S
C1019 C1021 1.390 . S
C1019 H1023 0.950 . S
H1020 C1016 0.950 . S
C1021 C1019 1.390 . S
C1021 C1022 1.387 . S
C1021 H1024 0.950 . S
C1022 C1021 1.387 . S
C1022 C1025 1.387 . S
H1023 C1019 0.950 . S
H1024 C1021 0.950 . S
C1025 C1016 1.390 . S
C1025 H1018 0.950 . S
C1025 C1022 1.387 . S
C1026 C1027 1.387 . S
C1026 H1030 0.950 . S
C1026 C1035 1.390 . S
C1027 C1026 1.387 . S
C1027 C1029 1.387 . S
H1028 C1035 0.950 . S
C1029 C1027 1.387 . S
C1029 C1031 1.390 . S
C1029 H1033 0.950 . S
H1030 C1026 0.950 . S
C1031 C1029 1.390 . S
C1031 C1032 1.387 . S
C1031 H1034 0.950 . S
C1032 C1031 1.387 . S
C1032 C1035 1.387 . S
H1033 C1029 0.950 . S
H1034 C1031 0.950 . S
C1035 C1026 1.390 . S
C1035 H1028 0.950 . S
C1035 C1032 1.387 . S
C1036 C1037 1.387 . S
C1036 H1040 0.950 . S
C1036 C1045 1.390 . S
C1037 C1036 1.387 . S
C1037 C1039 1.387 . S
H1038 C1045 0.950 . S
C1039 C1037 1.387 . S
C1039 C1041 1.390 . S
C1039 H1043 0.950 . S
H1040 C1036 0.950 . S
C1041 C1039 1.390 . S
C1041 C1042 1.387 . S
C1041 H1044 0.950 . S
C1042 C1041 1.387 . S
C1042 C1045 1.387 . S
H1043 C1039 0.950 . S
H1044 C1041 0.950 . S
C1045 C1036 1.390 . S
C1045 H1038 0.950 . S
C1045 C1042 1.387 . S
C1046 C1047 1.387 . S
C1046 H1050 0.950 . S
C1046 C1055 1.390 . S
C1047 C1046 1.387 . S
C1047 C1049 1.387 . S
H1048 C1055 0.950 . S
C1049 C1047 1.387 . S
C1049 C1051 1.390 . S
C1049 H1053 0.950 . S
H1050 C1046 0.950 . S
C1051 C1049 1.390 . S
C1051 C1052 1.387 . S
C1051 H1054 0.950 . S
C1052 C1051 1.387 . S
C1052 C1055 1.387 . S
H1053 C1049 0.950 . S
H1054 C1051 0.950 . S
C1055 C1046 1.390 . S
C1055 H1048 0.950 . S
C1055 C1052 1.387 . S
C1056 C1057 1.387 . S
C1056 H1060 0.950 . S
C1056 C1065 1.390 . S
C1057 C1056 1.387 . S
C1057 C1059 1.387 . S
H1058 C1065 0.950 . S
C1059 C1057 1.387 . S
C1059 C1061 1.390 . S
C1059 H1063 0.950 . S
H1060 C1056 0.950 . S
C1061 C1059 1.390 . S
C1061 C1062 1.387 . S
C1061 H1064 0.950 . S
C1062 C1061 1.387 . S
C1062 C1065 1.387 . S
H1063 C1059 0.950 . S
H1064 C1061 0.950 . S
C1065 C1056 1.390 . S
C1065 H1058 0.950 . S
C1065 C1062 1.387 . S
C1066 C1067 1.387 . S
C1066 H1070 0.950 . S
C1066 C1075 1.390 . S
C1067 C1066 1.387 . S
C1067 C1069 1.387 . S
H1068 C1075 0.950 . S
C1069 C1067 1.387 . S
C1069 C1071 1.390 . S
C1069 H1073 0.950 . S
H1070 C1066 0.950 . S
C1071 C1069 1.390 . S
C1071 C1072 1.387 . S
C1071 H1074 0.950 . S
C1072 C1071 1.387 . S
C1072 C1075 1.387 . S
H1073 C1069 0.950 . S
H1074 C1071 0.950 . S
C1075 C1066 1.390 . S
C1075 H1068 0.950 . S
C1075 C1072 1.387 . S
C1076 C1077 1.387 . S
C1076 H1080 0.950 . S
C1076 C1085 1.390 . S
C1077 C1076 1.387 . S
C1077 C1079 1.387 . S
H1078 C1085 0.950 . S
C1079 C1077 1.387 . S
C1079 C1081 1.390 . S
C1079 H1083 0.950 . S
H1080 C1076 0.950 . S
C1081 C1079 1.390 . S
C1081 C1082 1.387 . S
C1081 H1084 0.950 . S
C1082 C1081 1.387 . S
C1082 C1085 1.387 . S
H1083 C1079 0.950 . S
H1084 C1081 0.950 . S
C1085 C1076 1.390 . S
C1085 H1078 0.950 . S
C1085 C1082 1.387 . S
C1086 C1087 1.387 . S
C1086 H1090 0.950 . S
C1086 C1095 1.390 . S
C1087 C1086 1.387 . S
C1087 C1089 1.387 . S
H1088 C1095 0.950 . S
C1089 C1087 1.387 . S
C1089 C1091 1.390 . S
C1089 H1093 0.950 . S
H1090 C1086 0.950 . S
C1091 C1089 1.390 . S
C1091 C1092 1.387 . S
C1091 H1094 0.950 . S
C1092 C1091 1.387 . S
C1092 C1095 1.387 . S
H1093 C1089 0.950 . S
H1094 C1091 0.950 . S
C1095 C1086 1.390 . S
C1095 H1088 0.950 . S
C1095 C1092 1.387 . S
C1096 C1097 1.387 . S
C1096 H1100 0.950 . S
C1096 C1105 1.390 . S
C1097 C1096 1.387 . S
C1097 C1099 1.387 . S
H1098 C1105 0.950 . S
C1099 C1097 1.387 . S
C1099 C1101 1.390 . S
C1099 H1103 0.950 . S
H1100 C1096 0.950 . S
C1101 C1099 1.390 . S
C1101 C1102 1.387 . S
C1101 H1104 0.950 . S
C1102 C1101 1.387 . S
C1102 C1105 1.387 . S
H1103 C1099 0.950 . S
H1104 C1101 0.950 . S
C1105 C1096 1.390 . S
C1105 H1098 0.950 . S
C1105 C1102 1.387 . S
C1106 C1107 1.387 . S
C1106 H1110 0.950 . S
C1106 C1115 1.390 . S
C1107 C1106 1.387 . S
C1107 C1109 1.387 . S
H1108 C1115 0.950 . S
C1109 C1107 1.387 . S
C1109 C1111 1.390 . S
C1109 H1113 0.950 . S
H1110 C1106 0.950 . S
C1111 C1109 1.390 . S
C1111 C1112 1.387 . S
C1111 H1114 0.950 . S
C1112 C1111 1.387 . S
C1112 C1115 1.387 . S
H1113 C1109 0.950 . S
H1114 C1111 0.950 . S
C1115 C1106 1.390 . S
C1115 H1108 0.950 . S
C1115 C1112 1.387 . S
C1116 C1117 1.387 . S
C1116 H1120 0.950 . S
C1116 C1125 1.390 . S
C1117 C1116 1.387 . S
C1117 C1119 1.387 . S
H1118 C1125 0.950 . S
C1119 C1117 1.387 . S
C1119 C1121 1.390 . S
C1119 H1123 0.950 . S
H1120 C1116 0.950 . S
C1121 C1119 1.390 . S
C1121 C1122 1.387 . S
C1121 H1124 0.950 . S
C1122 C1121 1.387 . S
C1122 C1125 1.387 . S
H1123 C1119 0.950 . S
H1124 C1121 0.950 . S
C1125 C1116 1.390 . S
C1125 H1118 0.950 . S
C1125 C1122 1.387 . S
C1126 C1127 1.387 . S
C1126 H1130 0.950 . S
C1126 C1135 1.390 . S
C1127 C1126 1.387 . S
C1127 C1129 1.387 . S
H1128 C1135 0.950 . S
C1129 C1127 1.387 . S
C1129 C1131 1.390 . S
C1129 H1133 0.950 . S
H1130 C1126 0.950 . S
C1131 C1129 1.390 . S
C1131 C1132 1.387 . S
C1131 H1134 0.950 . S
C1132 C1131 1.387 . S
C1132 C1135 1.387 . S
H1133 C1129 0.950 . S
H1134 C1131 0.950 . S
C1135 C1126 1.390 . S
C1135 H1128 0.950 . S
C1135 C1132 1.387 . S
C1136 C1137 1.387 . S
C1136 H1140 0.950 . S
C1136 C1145 1.390 . S
C1137 C1136 1.387 . S
C1137 C1139 1.387 . S
H1138 C1145 0.950 . S
C1139 C1137 1.387 . S
C1139 C1141 1.390 . S
C1139 H1143 0.950 . S
H1140 C1136 0.950 . S
C1141 C1139 1.390 . S
C1141 C1142 1.387 . S
C1141 H1144 0.950 . S
C1142 C1141 1.387 . S
C1142 C1145 1.387 . S
H1143 C1139 0.950 . S
H1144 C1141 0.950 . S
C1145 C1136 1.390 . S
C1145 H1138 0.950 . S
C1145 C1142 1.387 . S
C1146 C1147 1.387 . S
C1146 H1150 0.950 . S
C1146 C1155 1.390 . S
C1147 C1146 1.387 . S
C1147 C1149 1.387 . S
H1148 C1155 0.950 . S
C1149 C1147 1.387 . S
C1149 C1151 1.390 . S
C1149 H1153 0.950 . S
H1150 C1146 0.950 . S
C1151 C1149 1.390 . S
C1151 C1152 1.387 . S
C1151 H1154 0.950 . S
C1152 C1151 1.387 . S
C1152 C1155 1.387 . S
H1153 C1149 0.950 . S
H1154 C1151 0.950 . S
C1155 C1146 1.390 . S
C1155 H1148 0.950 . S
C1155 C1152 1.387 . S
C1156 C1157 1.387 . S
C1156 H1160 0.950 . S
C1156 C1165 1.390 . S
C1157 C1156 1.387 . S
C1157 C1159 1.387 . S
H1158 C1165 0.950 . S
C1159 C1157 1.387 . S
C1159 C1161 1.390 . S
C1159 H1163 0.950 . S
H1160 C1156 0.950 . S
C1161 C1159 1.390 . S
C1161 C1162 1.387 . S
C1161 H1164 0.950 . S
C1162 C1161 1.387 . S
C1162 C1165 1.387 . S
H1163 C1159 0.950 . S
H1164 C1161 0.950 . S
C1165 C1156 1.390 . S
C1165 H1158 0.950 . S
C1165 C1162 1.387 . S
C1166 C1167 1.387 . S
C1166 H1170 0.950 . S
C1166 C1175 1.390 . S
C1167 C1166 1.387 . S
C1167 C1169 1.387 . S
H1168 C1175 0.950 . S
C1169 C1167 1.387 . S
C1169 C1171 1.390 . S
C1169 H1173 0.950 . S
H1170 C1166 0.950 . S
C1171 C1169 1.390 . S
C1171 C1172 1.387 . S
C1171 H1174 0.950 . S
C1172 C1171 1.387 . S
C1172 C1175 1.387 . S
H1173 C1169 0.950 . S
H1174 C1171 0.950 . S
C1175 C1166 1.390 . S
C1175 H1168 0.950 . S
C1175 C1172 1.387 . S
C1176 C1177 1.387 . S
C1176 H1180 0.950 . S
C1176 C1185 1.390 . S
C1177 C1176 1.387 . S
C1177 C1179 1.387 . S
H1178 C1185 0.950 . S
C1179 C1177 1.387 . S
C1179 C1181 1.390 . S
C1179 H1183 0.950 . S
H1180 C1176 0.950 . S
C1181 C1179 1.390 . S
C1181 C1182 1.387 . S
C1181 H1184 0.950 . S
C1182 C1181 1.387 . S
C1182 C1185 1.387 . S
H1183 C1179 0.950 . S
H1184 C1181 0.950 . S
C1185 C1176 1.390 . S
C1185 H1178 0.950 . S
C1185 C1182 1.387 . S
C1186 C1187 1.387 . S
C1186 H1190 0.950 . S
C1186 C1195 1.390 . S
C1187 C1186 1.387 . S
C1187 C1189 1.387 . S
H1188 C1195 0.950 . S
C1189 C1187 1.387 . S
C1189 C1191 1.390 . S
C1189 H1193 0.950 . S
H1190 C1186 0.950 . S
C1191 C1189 1.390 . S
C1191 C1192 1.387 . S
C1191 H1194 0.950 . S
C1192 C1191 1.387 . S
C1192 C1195 1.387 . S
H1193 C1189 0.950 . S
H1194 C1191 0.950 . S
C1195 C1186 1.390 . S
C1195 H1188 0.950 . S
C1195 C1192 1.387 . S
C1196 C1197 1.387 . S
C1196 H1200 0.950 . S
C1196 C1205 1.390 . S
C1197 C1196 1.387 . S
C1197 C1199 1.387 . S
H1198 C1205 0.950 . S
C1199 C1197 1.387 . S
C1199 C1201 1.390 . S
C1199 H1203 0.950 . S
H1200 C1196 0.950 . S
C1201 C1199 1.390 . S
C1201 C1202 1.387 . S
C1201 H1204 0.950 . S
C1202 C1201 1.387 . S
C1202 C1205 1.387 . S
H1203 C1199 0.950 . S
H1204 C1201 0.950 . S
C1205 C1196 1.390 . S
C1205 H1198 0.950 . S
C1205 C1202 1.387 . S
C487 C34 1.369 . S
C492 C238 1.232 . S
C497 C8 1.382 . S
C502 C254 1.250 . S
C512 C237 1.218 . S
C507 C18 1.323 . S
C522 C262 1.192 . S
C517 C31 1.316 . S
C527 C5 1.346 . S
C532 C271 1.236 . S
C542 C274 1.236 . S
C537 C21 1.371 . S
C547 C73 1.368 . S
C552 C280 1.232 . S
C562 C296 1.246 . S
C557 C47 1.387 . S
C572 C279 1.223 . S
C567 C57 1.326 . S
C577 C70 1.320 . S
C582 C304 1.196 . S
C592 C313 1.242 . S
C587 C44 1.349 . S
C602 C316 1.235 . S
C597 C60 1.375 . S
C612 C325 1.227 . S
C607 C112 1.372 . S
C622 C337 1.250 . S
C617 C86 1.383 . S
C632 C334 1.219 . S
C627 C96 1.328 . S
C637 C109 1.320 . S
C642 C343 1.194 . S
C652 C342 1.241 . S
C647 C83 1.346 . S
C657 C99 1.371 . S
C662 C359 1.236 . S
C672 C364 1.228 . S
C667 C151 1.372 . S
C682 C380 1.250 . S
C677 C125 1.383 . S
C687 C135 1.328 . S
C692 C363 1.220 . S
C702 C388 1.193 . S
C697 C148 1.315 . S
C712 C397 1.240 . S
C707 C122 1.350 . S
C717 C138 1.371 . S
C722 C400 1.236 . S
C727 C190 1.372 . S
C732 C409 1.227 . S
C742 C421 1.250 . S
C737 C164 1.384 . S
C752 C418 1.220 . S
C747 C174 1.328 . S
C757 C187 1.320 . S
C762 C427 1.195 . S
C772 C426 1.236 . S
C767 C161 1.348 . S
C777 C177 1.374 . S
C782 C443 1.232 . S
C792 C448 1.231 . S
C787 C229 1.368 . S
C802 C464 1.244 . S
C797 C203 1.386 . S
C807 C213 1.328 . S
C812 C447 1.221 . S
C822 C469 1.194 . S
C817 C226 1.320 . S
C832 C468 1.236 . S
C827 C200 1.347 . S
C842 C485 1.236 . S
C837 C216 1.374 . S
C852 C250 1.392 . S
C847 C143 1.475 . S
C857 C117 1.494 . S
C862 C253 1.393 . S
C872 C241 1.353 . S
C867 C140 1.457 . S
C877 C231 1.491 . S
C882 C258 1.411 . S
C887 C205 1.510 . S
C892 C259 1.405 . S
C902 C275 1.423 . S
C897 C208 1.505 . S
C912 C292 1.384 . S
C907 C182 1.475 . S
C922 C295 1.395 . S
C917 C156 1.495 . S
C927 C179 1.458 . S
C932 C283 1.353 . S
C942 C300 1.409 . S
C937 C114 1.490 . S
C947 C88 1.509 . S
C952 C301 1.407 . S
C957 C91 1.505 . S
C962 C317 1.427 . S
C967 C221 1.475 . S
C972 C321 1.388 . S
C977 C195 1.493 . S
C982 C338 1.397 . S
C992 C322 1.354 . S
C987 C218 1.458 . S
C1002 C355 1.408 . S
C997 C75 1.490 . S
C1012 C346 1.406 . S
C1007 C49 1.509 . S
C1017 C52 1.505 . S
C1022 C358 1.427 . S
C1032 C376 1.392 . S
C1027 C26 1.475 . S
C1042 C379 1.394 . S
C1037 C0 1.495 . S
C1047 C23 1.457 . S
C1052 C367 1.351 . S
C1062 C384 1.409 . S
C1057 C192 1.490 . S
C1072 C385 1.406 . S
C1067 C166 1.509 . S
C1082 C401 1.423 . S
C1077 C169 1.505 . S
C1092 C405 1.392 . S
C1087 C65 1.475 . S
C1102 C422 1.398 . S
C1097 C39 1.494 . S
C1107 C62 1.457 . S
C1112 C406 1.352 . S
C1117 C153 1.491 . S
C1122 C439 1.407 . S
C1127 C127 1.509 . S
C1132 C430 1.405 . S
C1142 C442 1.423 . S
C1137 C130 1.505 . S
C1147 C104 1.475 . S
C1152 C460 1.392 . S
C1157 C78 1.493 . S
C1162 C463 1.396 . S
C1172 C451 1.351 . S
C1167 C101 1.458 . S
C1182 C481 1.411 . S
C1177 C36 1.491 . S
C1192 C472 1.405 . S
C1187 C10 1.510 . S
C1197 C13 1.505 . S
C1202 C484 1.423 . S
