# Generated by pormake.
# Topology anh, (6,3)-cn, num edge types: 1
# Building blocks:
#     Node 0, Type 0, BuildingBlock: BETDEL_clean_sbu_0, # of connection points: 6
#     Node 1, Type 0, BuildingBlock: BETDEL_clean_sbu_0, # of connection points: 6
#     Node 2, Type 0, BuildingBlock: BETDEL_clean_sbu_0, # of connection points: 6
#     Node 3, Type 1, BuildingBlock: OLANEW_clean_sbu_2, # of connection points: 3
#     Node 4, Type 1, BuildingBlock: OLANEW_clean_sbu_2, # of connection points: 3
#     Node 5, Type 1, BuildingBlock: OLANEW_clean_sbu_2, # of connection points: 3
#     Node 6, Type 1, BuildingBlock: OLANEW_clean_sbu_2, # of connection points: 3
#     Node 7, Type 1, BuildingBlock: OLANEW_clean_sbu_2, # of connection points: 3
#     Node 8, Type 1, BuildingBlock: OLANEW_clean_sbu_2, # of connection points: 3
#     Edge 9, Type (0, 1), BuildingBlock: MIFKUJ_clean_linker_0, # of connection points: 2
#     Edge 10, Type (0, 1), BuildingBlock: MIFKUJ_clean_linker_0, # of connection points: 2
#     Edge 11, Type (0, 1), BuildingBlock: MIFKUJ_clean_linker_0, # of connection points: 2
#     Edge 12, Type (0, 1), BuildingBlock: MIFKUJ_clean_linker_0, # of connection points: 2
#     Edge 13, Type (0, 1), BuildingBlock: MIFKUJ_clean_linker_0, # of connection points: 2
#     Edge 14, Type (0, 1), BuildingBlock: MIFKUJ_clean_linker_0, # of connection points: 2
#     Edge 15, Type (0, 1), BuildingBlock: MIFKUJ_clean_linker_0, # of connection points: 2
#     Edge 16, Type (0, 1), BuildingBlock: MIFKUJ_clean_linker_0, # of connection points: 2
#     Edge 17, Type (0, 1), BuildingBlock: MIFKUJ_clean_linker_0, # of connection points: 2
#     Edge 18, Type (0, 1), BuildingBlock: MIFKUJ_clean_linker_0, # of connection points: 2
#     Edge 19, Type (0, 1), BuildingBlock: MIFKUJ_clean_linker_0, # of connection points: 2
#     Edge 20, Type (0, 1), BuildingBlock: MIFKUJ_clean_linker_0, # of connection points: 2
#     Edge 21, Type (0, 1), BuildingBlock: MIFKUJ_clean_linker_0, # of connection points: 2
#     Edge 22, Type (0, 1), BuildingBlock: MIFKUJ_clean_linker_0, # of connection points: 2
#     Edge 23, Type (0, 1), BuildingBlock: MIFKUJ_clean_linker_0, # of connection points: 2
#     Edge 24, Type (0, 1), BuildingBlock: MIFKUJ_clean_linker_0, # of connection points: 2
#     Edge 25, Type (0, 1), BuildingBlock: MIFKUJ_clean_linker_0, # of connection points: 2
#     Edge 26, Type (0, 1), BuildingBlock: MIFKUJ_clean_linker_0, # of connection points: 2
# Relax obj value: 0.076
# Max RMSD: 0.104
# Mean RMSD: 0.100
data_MOF--net-anh--node1-BETDEL_clean_sbu_0--node2-OLANEW_clean_sbu_2--edge1-MIFKUJ_clean_linker_0
_symmetry_space_group_name_H-M    P1
_symmetry_Int_Tables_number       1
_symmetry_cell_setting            triclinic
loop_
_symmetry_equiv_pos_as_xyz
'x, y, z'
_cell_length_a     42.04626
_cell_length_b     42.053326
_cell_length_c     64.380293
_cell_angle_alpha  89.509788
_cell_angle_beta   89.857042
_cell_angle_gamma 120.04694
loop_
_atom_site_label
_atom_site_type_symbol
_atom_site_fract_x
_atom_site_fract_y
_atom_site_fract_z
_atom_type_partial_charge
Dy0 Dy 0.04086 0.47598 0.16497 0.0
C1 C 0.9412 0.53016 0.17428 0.0
C2 C 0.09414 0.45886 0.15614 0.0
Dy3 Dy 0.99443 0.51281 0.16602 0.0
O4 O 0.07392 0.44888 0.17283 0.0
O5 O 0.08461 0.47744 0.14402 0.0
O6 O 0.02141 0.45309 0.19704 0.0
O7 O 0.02729 0.50411 0.18875 0.0
C8 C 0.01605 0.47961 0.20269 0.0
C9 C 0.02064 0.51077 0.12851 0.0
O10 O 0.04797 0.5622 0.17389 0.0
O11 O 0.0832 0.53642 0.16398 0.0
O12 O 0.95878 0.53623 0.15678 0.0
O13 O 0.95343 0.51547 0.18754 0.0
O14 O 0.0159 0.53743 0.13472 0.0
O15 O 0.00848 0.48527 0.14197 0.0
O16 O 0.98709 0.42636 0.15733 0.0
O17 O 0.95207 0.45266 0.16677 0.0
C18 C 0.08018 0.56523 0.16937 0.0
C19 C 0.95496 0.4238 0.16145 0.0
Dy20 Dy 0.46607 0.01415 0.50125 0.0
C21 C 0.61887 0.10842 0.5172 0.0
C22 C 0.39636 0.96306 0.48976 0.0
Dy23 Dy 0.54888 0.05797 0.50592 0.0
O24 O 0.40581 0.97756 0.50802 0.0
O25 O 0.42492 0.97729 0.47754 0.0
O26 O 0.45938 0.03131 0.53313 0.0
O27 O 0.50394 0.02351 0.52675 0.0
C28 C 0.48957 0.03408 0.54019 0.0
C29 C 0.52593 0.03637 0.46729 0.0
O30 O 0.54095 0.00259 0.51393 0.0
O31 O 0.48252 0.9708 0.49995 0.0
O32 O 0.61001 0.08821 0.50074 0.0
O33 O 0.58946 0.10034 0.52785 0.0
O34 O 0.5559 0.03936 0.4748 0.0
O35 O 0.5114 0.048 0.48007 0.0
O36 O 0.47237 0.06913 0.49447 0.0
O37 O 0.53288 0.10184 0.50556 0.0
C38 C 0.51239 0.9717 0.50732 0.0
C39 C 0.50203 0.10042 0.49948 0.0
Dy40 Dy 0.56423 0.57549 0.82639 0.0
C41 C 0.52317 0.42067 0.83752 0.0
C42 C 0.57665 0.64013 0.80924 0.0
Dy43 Dy 0.53202 0.48889 0.83239 0.0
O44 O 0.59866 0.63672 0.82209 0.0
O45 O 0.54844 0.60808 0.8054 0.0
O46 O 0.57543 0.59033 0.86064 0.0
O47 O 0.5509 0.53675 0.85088 0.0
C48 C 0.56197 0.55632 0.86668 0.0
C49 C 0.52533 0.51302 0.79493 0.0
O50 O 0.48304 0.49177 0.84292 0.0
O51 O 0.50301 0.55133 0.83014 0.0
O52 O 0.53615 0.44121 0.82101 0.0
O53 O 0.51444 0.43726 0.85154 0.0
O54 O 0.50115 0.48159 0.8029 0.0
O55 O 0.55277 0.52895 0.80665 0.0
O56 O 0.61455 0.57162 0.82033 0.0
O57 O 0.59294 0.51485 0.83702 0.0
C58 C 0.47736 0.5194 0.83829 0.0
C59 C 0.61996 0.54591 0.82894 0.0
O60 O 0.52151 0.03744 0.23418 0.0
Cd61 Cd 0.53311 0.03796 0.19686 0.0
O62 O 0.50074 0.97812 0.23837 0.0
Cd63 Cd 0.48912 0.96202 0.20592 0.0
O64 O 0.44327 0.91671 0.18978 0.0
C65 C 0.41158 0.91223 0.19363 0.0
O66 O 0.40907 0.93633 0.20535 0.0
C67 C 0.51092 0.00953 0.24602 0.0
C68 C 0.60282 0.09728 0.1869 0.0
O69 O 0.57402 0.10035 0.1859 0.0
O70 O 0.59867 0.06603 0.19234 0.0
O71 O 0.52194 0.52108 0.56252 0.0
Cd72 Cd 0.51604 0.513 0.52483 0.0
O73 O 0.47999 0.53757 0.56568 0.0
Cd74 Cd 0.47904 0.55169 0.5331 0.0
O75 O 0.48242 0.59979 0.51759 0.0
C76 C 0.51193 0.63028 0.51991 0.0
O77 O 0.53947 0.63049 0.52964 0.0
C78 C 0.50196 0.52872 0.57391 0.0
C79 C 0.51083 0.44588 0.51463 0.0
O80 O 0.54203 0.47551 0.51562 0.0
O81 O 0.48193 0.448 0.51813 0.0
O82 O 0.05243 0.49284 0.89677 0.0
Cd83 Cd 0.06254 0.50132 0.85932 0.0
O84 O 0.02864 0.52877 0.90068 0.0
Cd85 Cd 0.01817 0.53678 0.86838 0.0
O86 O 0.97657 0.54605 0.85355 0.0
C87 C 0.95225 0.54331 0.86639 0.0
O88 O 0.95481 0.53539 0.88589 0.0
C89 C 0.04056 0.50885 0.90847 0.0
C90 C 0.12893 0.50354 0.85115 0.0
O91 O 0.12811 0.5328 0.8555 0.0
O92 O 0.09824 0.47337 0.84998 0.0
O93 O 0.01451 0.517 0.43099 0.0
Cd94 Cd 0.02583 0.52956 0.46802 0.0
O95 O 0.97843 0.54079 0.42941 0.0
Cd96 Cd 0.96672 0.52958 0.46258 0.0
O97 O 0.93401 0.48334 0.4837 0.0
C98 C 0.93049 0.45289 0.47795 0.0
O99 O 0.94802 0.45245 0.46112 0.0
C100 C 0.99671 0.52833 0.42028 0.0
C101 C 0.08499 0.60101 0.47205 0.0
O102 O 0.09006 0.57346 0.47084 0.0
O103 O 0.05184 0.59471 0.47184 0.0
O104 O 0.51977 0.02721 0.77124 0.0
Cd105 Cd 0.51978 0.01377 0.8082 0.0
O106 O 0.57887 0.04707 0.76798 0.0
Cd107 Cd 0.5853 0.06019 0.80098 0.0
O108 O 0.57856 0.09793 0.82113 0.0
C109 C 0.58938 0.12893 0.81242 0.0
O110 O 0.60481 0.13491 0.79393 0.0
C111 C 0.54785 0.03698 0.75971 0.0
C112 C 0.53287 0.95504 0.8107 0.0
O113 O 0.50017 0.94957 0.80886 0.0
O114 O 0.55926 0.98823 0.81216 0.0
O115 O 0.52405 0.45122 0.09181 0.0
Cd116 Cd 0.51351 0.44373 0.12937 0.0
O117 O 0.54758 0.51107 0.09302 0.0
Cd118 Cd 0.5203 0.5073 0.12254 0.0
O119 O 0.47002 0.50603 0.13262 0.0
C120 C 0.44567 0.48136 0.14436 0.0
O121 O 0.45146 0.45588 0.15238 0.0
C122 C 0.54087 0.48256 0.08291 0.0
C123 C 0.57938 0.45967 0.14846 0.0
O124 O 0.55725 0.42745 0.14168 0.0
O125 O 0.57 0.48424 0.14669 0.0
H126 H 0.11744 0.42188 0.18088 0.0
H127 H 0.17596 0.42272 0.17862 0.0
H128 H 0.20417 0.48993 0.12309 0.0
H129 H 0.14526 0.48846 0.12507 0.0
H130 H 0.22655 0.44146 0.11953 0.0
H131 H 0.2372 0.52813 0.16989 0.0
H132 H 0.21999 0.55051 0.20076 0.0
H133 H 0.23537 0.47577 0.23954 0.0
H134 H 0.25191 0.45231 0.20878 0.0
H135 H 0.42021 0.52085 0.12351 0.0
H136 H 0.35918 0.51416 0.1258 0.0
H137 H 0.32846 0.43095 0.17342 0.0
H138 H 0.38957 0.43712 0.17111 0.0
H139 H 0.3074 0.48627 0.1812 0.0
H140 H 0.29951 0.40232 0.12778 0.0
H141 H 0.31999 0.38624 0.09563 0.0
H142 H 0.30386 0.46494 0.06126 0.0
H143 H 0.28378 0.48186 0.09328 0.0
C144 C 0.13589 0.43633 0.16802 0.0
C145 C 0.12698 0.45526 0.15321 0.0
C146 C 0.1694 0.43699 0.16681 0.0
C147 C 0.19478 0.45699 0.15091 0.0
C148 C 0.1851 0.47443 0.13553 0.0
C149 C 0.15146 0.47359 0.13667 0.0
C150 C 0.23197 0.46105 0.15086 0.0
C151 C 0.2443 0.45153 0.13296 0.0
C152 C 0.25517 0.4741 0.16842 0.0
C153 C 0.24538 0.48816 0.18699 0.0
C154 C 0.23661 0.51623 0.18498 0.0
C155 C 0.22703 0.52916 0.20246 0.0
C156 C 0.22656 0.51457 0.22211 0.0
C157 C 0.2357 0.48702 0.22431 0.0
C158 C 0.24516 0.47387 0.20684 0.0
C159 C 0.40065 0.5013 0.13462 0.0
C160 C 0.40971 0.47936 0.14707 0.0
C161 C 0.36574 0.49746 0.13583 0.0
C162 C 0.33929 0.47183 0.14962 0.0
C163 C 0.34855 0.45081 0.16264 0.0
C164 C 0.38341 0.45433 0.16126 0.0
C165 C 0.30167 0.4664 0.14997 0.0
C166 C 0.28941 0.47586 0.16788 0.0
C167 C 0.27888 0.45411 0.13228 0.0
C168 C 0.29044 0.44357 0.11296 0.0
C169 C 0.30058 0.41638 0.11339 0.0
C170 C 0.31208 0.40708 0.09519 0.0
C171 C 0.31331 0.42461 0.07642 0.0
C172 C 0.30292 0.4514 0.07581 0.0
C173 C 0.29144 0.46082 0.09398 0.0
H174 H 0.32225 0.4174 0.06234 0.0
H175 H 0.21918 0.52466 0.23564 0.0
H176 H 0.6385 0.16169 0.54643 0.0
H177 H 0.69638 0.22048 0.54779 0.0
H178 H 0.73894 0.18697 0.49661 0.0
H179 H 0.68148 0.12828 0.49534 0.0
H180 H 0.79214 0.22585 0.52467 0.0
H181 H 0.69523 0.23529 0.4896 0.0
H182 H 0.63567 0.23299 0.48638 0.0
H183 H 0.66663 0.31349 0.53422 0.0
H184 H 0.72578 0.31527 0.53829 0.0
H185 H 0.91356 0.38364 0.46718 0.0
H186 H 0.86566 0.32568 0.48179 0.0
H187 H 0.83988 0.3843 0.5273 0.0
H188 H 0.88744 0.4428 0.51233 0.0
H189 H 0.77986 0.33497 0.5093 0.0
H190 H 0.87999 0.33174 0.54123 0.0
H191 H 0.94069 0.33632 0.54326 0.0
H192 H 0.90544 0.24686 0.5008 0.0
H193 H 0.84468 0.24206 0.49826 0.0
C194 C 0.66057 0.16659 0.53581 0.0
C195 C 0.65551 0.14063 0.52067 0.0
C196 C 0.69352 0.20022 0.53654 0.0
C197 C 0.72175 0.20833 0.52208 0.0
C198 C 0.71753 0.18135 0.50789 0.0
C199 C 0.68466 0.14785 0.50714 0.0
C200 C 0.75435 0.24576 0.52034 0.0
C201 C 0.78953 0.24976 0.5213 0.0
C202 C 0.75093 0.27713 0.5165 0.0
C203 C 0.71473 0.27497 0.51449 0.0
C204 C 0.68908 0.25201 0.4997 0.0
C205 C 0.65538 0.25081 0.49772 0.0
C206 C 0.6473 0.27292 0.51018 0.0
C207 C 0.67278 0.29612 0.52472 0.0
C208 C 0.70634 0.29716 0.52692 0.0
C209 C 0.89811 0.38433 0.48049 0.0
C210 C 0.90425 0.41792 0.48852 0.0
C211 C 0.87083 0.35104 0.48895 0.0
C212 C 0.84937 0.3505 0.50584 0.0
C213 C 0.85616 0.384 0.51432 0.0
C214 C 0.8834 0.41742 0.50576 0.0
C215 C 0.81777 0.31508 0.51322 0.0
C216 C 0.78269 0.31136 0.51321 0.0
C217 C 0.82131 0.28404 0.51793 0.0
C218 C 0.85779 0.28668 0.51948 0.0
C219 C 0.88524 0.31319 0.53221 0.0
C220 C 0.91966 0.3158 0.53347 0.0
C221 C 0.92693 0.29193 0.52215 0.0
C222 C 0.89977 0.26534 0.50957 0.0
C223 C 0.8653 0.26262 0.50824 0.0
H224 H 0.9536 0.29401 0.52314 0.0
H225 H 0.62147 0.27236 0.50845 0.0
H226 H 0.63339 0.70934 0.8163 0.0
H227 H 0.6322 0.76678 0.81291 0.0
H228 H 0.523 0.70718 0.78746 0.0
H229 H 0.52476 0.6501 0.79003 0.0
H230 H 0.55796 0.77176 0.76982 0.0
H231 H 0.53877 0.72697 0.84031 0.0
H232 H 0.55375 0.70603 0.87282 0.0
H233 H 0.65261 0.81041 0.87842 0.0
H234 H 0.63844 0.83181 0.84577 0.0
H235 H 0.48451 0.88329 0.80173 0.0
H236 H 0.49754 0.83299 0.79865 0.0
H237 H 0.61054 0.90634 0.81497 0.0
H238 H 0.59782 0.95692 0.81804 0.0
H239 H 0.57856 0.83865 0.83606 0.0
H240 H 0.59076 0.88409 0.76582 0.0
H241 H 0.56988 0.9026 0.73459 0.0
H242 H 0.47722 0.79356 0.72993 0.0
H243 H 0.49724 0.77453 0.76131 0.0
C244 C 0.60954 0.70872 0.80952 0.0
C245 C 0.579 0.67531 0.80365 0.0
C246 C 0.60875 0.74147 0.80773 0.0
C247 C 0.57708 0.74116 0.80047 0.0
C248 C 0.54763 0.70813 0.79323 0.0
C249 C 0.54864 0.67549 0.79473 0.0
C250 C 0.5733 0.77438 0.80194 0.0
C251 C 0.5623 0.78625 0.78433 0.0
C252 C 0.57923 0.79358 0.82084 0.0
C253 C 0.58778 0.78082 0.84048 0.0
C254 C 0.56384 0.74535 0.8484 0.0
C255 C 0.57216 0.73342 0.86685 0.0
C256 C 0.60417 0.75683 0.87764 0.0
C257 C 0.62787 0.79228 0.87002 0.0
C258 C 0.61971 0.80433 0.85155 0.0
C259 C 0.5121 0.88871 0.80478 0.0
C260 C 0.54016 0.9241 0.8101 0.0
C261 C 0.51953 0.85999 0.80289 0.0
C262 C 0.5551 0.86611 0.80632 0.0
C263 C 0.58296 0.90115 0.81215 0.0
C264 C 0.57563 0.92998 0.81389 0.0
C265 C 0.56308 0.83578 0.804 0.0
C266 C 0.57474 0.82443 0.82149 0.0
C267 C 0.55706 0.81668 0.78511 0.0
C268 C 0.54536 0.82796 0.76602 0.0
C269 C 0.56581 0.86412 0.75822 0.0
C270 C 0.55415 0.8747 0.74047 0.0
C271 C 0.5222 0.84929 0.73032 0.0
C272 C 0.50195 0.81322 0.73783 0.0
C273 C 0.51346 0.80251 0.75557 0.0
H274 H 0.51314 0.85752 0.71663 0.0
H275 H 0.61056 0.74755 0.89193 0.0
H276 H 0.90681 0.5488 0.14515 0.0
H277 H 0.84647 0.54326 0.14783 0.0
H278 H 0.83936 0.51163 0.21241 0.0
H279 H 0.89948 0.51573 0.20947 0.0
H280 H 0.77951 0.46673 0.19501 0.0
H281 H 0.84731 0.59621 0.1964 0.0
H282 H 0.89452 0.659 0.18597 0.0
H283 H 0.84408 0.64427 0.12624 0.0
H284 H 0.79685 0.58119 0.13619 0.0
H285 H 0.62624 0.51979 0.17113 0.0
H286 H 0.68759 0.53626 0.18341 0.0
H287 H 0.67619 0.43753 0.15635 0.0
H288 H 0.61443 0.42022 0.14496 0.0
H289 H 0.7458 0.55388 0.16372 0.0
H290 H 0.72845 0.40851 0.17903 0.0
H291 H 0.68226 0.34837 0.19355 0.0
H292 H 0.63218 0.39966 0.22739 0.0
H293 H 0.67849 0.46024 0.2134 0.0
C294 C 0.89273 0.54138 0.16003 0.0
C295 C 0.90777 0.53272 0.17711 0.0
C296 C 0.85824 0.53841 0.1616 0.0
C297 C 0.83839 0.52745 0.1804 0.0
C298 C 0.85411 0.52018 0.19774 0.0
C299 C 0.88852 0.52273 0.1961 0.0
C300 C 0.80002 0.52041 0.18121 0.0
C301 C 0.77215 0.48594 0.18837 0.0
C302 C 0.79036 0.54581 0.1731 0.0
C303 C 0.8186 0.58386 0.16703 0.0
C304 C 0.8464 0.60627 0.181 0.0
C305 C 0.87315 0.64193 0.17517 0.0
C306 C 0.87232 0.6556 0.15545 0.0
C307 C 0.84468 0.63365 0.14152 0.0
C308 C 0.81786 0.59795 0.14726 0.0
C309 C 0.63665 0.50135 0.1681 0.0
C310 C 0.61547 0.46866 0.15713 0.0
C311 C 0.67176 0.51082 0.17509 0.0
C312 C 0.68654 0.48799 0.17107 0.0
C313 C 0.6652 0.45519 0.16021 0.0
C314 C 0.6299 0.44541 0.15355 0.0
C315 C 0.72514 0.49959 0.17675 0.0
C316 C 0.75309 0.5349 0.17075 0.0
C317 C 0.73486 0.47533 0.1865 0.0
C318 C 0.70683 0.43894 0.19501 0.0
C319 C 0.7077 0.40702 0.18964 0.0
C320 C 0.68147 0.37283 0.19778 0.0
C321 C 0.65422 0.37018 0.21133 0.0
C322 C 0.65322 0.40174 0.21683 0.0
C323 C 0.67944 0.43601 0.20878 0.0
H324 H 0.63393 0.34368 0.21761 0.0
H325 H 0.89307 0.68322 0.15097 0.0
H326 H 0.33843 0.92583 0.51609 0.0
H327 H 0.28406 0.86569 0.51061 0.0
H328 H 0.31979 0.8653 0.4478 0.0
H329 H 0.37452 0.92566 0.45325 0.0
H330 H 0.24304 0.83486 0.4515 0.0
H331 H 0.3395 0.82208 0.48177 0.0
H332 H 0.38843 0.8345 0.50689 0.0
H333 H 0.30909 0.79356 0.5566 0.0
H334 H 0.25971 0.78144 0.53179 0.0
H335 H 0.15817 0.62318 0.47029 0.0
H336 H 0.21013 0.68595 0.47075 0.0
H337 H 0.1354 0.72759 0.47693 0.0
H338 H 0.08322 0.66489 0.47605 0.0
H339 H 0.23456 0.73708 0.49886 0.0
H340 H 0.17112 0.8108 0.45258 0.0
H341 H 0.12612 0.7971 0.42466 0.0
H342 H 0.14589 0.71283 0.40185 0.0
H343 H 0.19135 0.72636 0.42945 0.0
C344 C 0.33434 0.91329 0.50097 0.0
C345 C 0.36076 0.93022 0.48513 0.0
C346 C 0.30334 0.87889 0.49789 0.0
C347 C 0.2982 0.86085 0.47891 0.0
C348 C 0.32332 0.87876 0.46258 0.0
C349 C 0.35453 0.91317 0.4657 0.0
C350 C 0.26831 0.8222 0.47682 0.0
C351 C 0.24105 0.81345 0.46185 0.0
C352 C 0.2664 0.79412 0.48996 0.0
C353 C 0.29596 0.80119 0.50494 0.0
C354 C 0.33252 0.81601 0.49808 0.0
C355 C 0.36034 0.82295 0.51226 0.0
C356 C 0.35189 0.8149 0.53334 0.0
C357 C 0.31559 0.79982 0.54027 0.0
C358 C 0.28767 0.7929 0.52615 0.0
C359 C 0.15275 0.64568 0.47175 0.0
C360 C 0.11652 0.63901 0.47308 0.0
C361 C 0.18252 0.68157 0.47204 0.0
C362 C 0.17671 0.71157 0.47363 0.0
C363 C 0.14057 0.70496 0.4753 0.0
C364 C 0.11076 0.66906 0.47493 0.0
C365 C 0.20852 0.74968 0.47387 0.0
C366 C 0.23631 0.75839 0.4885 0.0
C367 C 0.21135 0.77742 0.46004 0.0
C368 C 0.18437 0.76938 0.44322 0.0
C369 C 0.16596 0.78945 0.44156 0.0
C370 C 0.14036 0.7817 0.42579 0.0
C371 C 0.13306 0.75404 0.41153 0.0
C372 C 0.15146 0.73416 0.41295 0.0
C373 C 0.17711 0.74182 0.42868 0.0
H374 H 0.11321 0.74806 0.39935 0.0
H375 H 0.37346 0.82026 0.54429 0.0
H376 H 0.5059 0.37653 0.87242 0.0
H377 H 0.50761 0.31894 0.87568 0.0
H378 H 0.53889 0.32801 0.81104 0.0
H379 H 0.53679 0.38449 0.80772 0.0
H380 H 0.48844 0.25921 0.82063 0.0
H381 H 0.60249 0.35636 0.85029 0.0
H382 H 0.63787 0.40504 0.87564 0.0
H383 H 0.58901 0.32693 0.92574 0.0
H384 H 0.55301 0.27786 0.90066 0.0
H385 H 0.60503 0.1947 0.79558 0.0
H386 H 0.5852 0.23664 0.80787 0.0
H387 H 0.53516 0.16784 0.86185 0.0
H388 H 0.55463 0.12495 0.8495 0.0
H389 H 0.58126 0.25473 0.86615 0.0
H390 H 0.47676 0.15477 0.83286 0.0
H391 H 0.44689 0.1092 0.80519 0.0
H392 H 0.48215 0.19606 0.75984 0.0
H393 H 0.51274 0.24213 0.78719 0.0
C394 C 0.51269 0.36582 0.85892 0.0
C395 C 0.52126 0.38488 0.83983 0.0
C396 C 0.5138 0.33311 0.86081 0.0
C397 C 0.5235 0.31926 0.8436 0.0
C398 C 0.53111 0.33799 0.82449 0.0
C399 C 0.53005 0.3704 0.82263 0.0
C400 C 0.52744 0.28619 0.84512 0.0
C401 C 0.50841 0.25803 0.83077 0.0
C402 C 0.55295 0.28422 0.85863 0.0
C403 C 0.57474 0.3136 0.87365 0.0
C404 C 0.59911 0.34965 0.86673 0.0
C405 C 0.6193 0.37729 0.88103 0.0
C406 C 0.61559 0.36911 0.90229 0.0
C407 C 0.59179 0.33324 0.90928 0.0
C408 C 0.57149 0.30551 0.89503 0.0
C409 C 0.59022 0.18853 0.81021 0.0
C410 C 0.58111 0.15625 0.82146 0.0
C411 C 0.57897 0.21261 0.81721 0.0
C412 C 0.55857 0.20511 0.83565 0.0
C413 C 0.55094 0.17398 0.84757 0.0
C414 C 0.56199 0.14955 0.84047 0.0
C415 C 0.5432 0.22878 0.84116 0.0
C416 C 0.56016 0.25514 0.85667 0.0
C417 C 0.51611 0.22948 0.82854 0.0
C418 C 0.49716 0.20188 0.81208 0.0
C419 C 0.47833 0.16414 0.81697 0.0
C420 C 0.46125 0.13822 0.80134 0.0
C421 C 0.46265 0.14972 0.78077 0.0
C422 C 0.48107 0.18718 0.77578 0.0
C423 C 0.49823 0.21321 0.79135 0.0
H424 H 0.44943 0.12962 0.76869 0.0
H425 H 0.63124 0.39055 0.91335 0.0
H426 H 0.571 0.96193 0.51562 0.0
H427 H 0.57172 0.90402 0.51592 0.0
H428 H 0.45631 0.84496 0.50126 0.0
H429 H 0.45521 0.90237 0.50102 0.0
H430 H 0.47243 0.81101 0.53188 0.0
H431 H 0.51866 0.86133 0.46423 0.0
H432 H 0.55951 0.90864 0.43889 0.0
H433 H 0.65284 0.9077 0.46512 0.0
H434 H 0.61257 0.86077 0.49086 0.0
H435 H 0.4561 0.64062 0.50611 0.0
H436 H 0.45721 0.69903 0.50186 0.0
H437 H 0.57207 0.75777 0.51777 0.0
H438 H 0.57131 0.69957 0.52195 0.0
H439 H 0.5563 0.79189 0.486 0.0
H440 H 0.50946 0.74207 0.5541 0.0
H441 H 0.4681 0.69484 0.57933 0.0
H442 H 0.37517 0.69492 0.55188 0.0
H443 H 0.41595 0.7418 0.52627 0.0
C444 C 0.54576 0.93661 0.51254 0.0
C445 C 0.51311 0.93685 0.50824 0.0
C446 C 0.54626 0.90357 0.5126 0.0
C447 C 0.51413 0.87024 0.50841 0.0
C448 C 0.48141 0.87036 0.50449 0.0
C449 C 0.48092 0.9033 0.50431 0.0
C450 C 0.5144 0.83509 0.50818 0.0
C451 C 0.49044 0.80667 0.52166 0.0
C452 C 0.53835 0.82968 0.4951 0.0
C453 C 0.56264 0.85783 0.47962 0.0
C454 C 0.54793 0.87145 0.46472 0.0
C455 C 0.57098 0.89815 0.45026 0.0
C456 C 0.60877 0.91124 0.45044 0.0
C457 C 0.62357 0.89758 0.46504 0.0
C458 C 0.60065 0.87091 0.47955 0.0
C459 C 0.48175 0.66596 0.5084 0.0
C460 C 0.51355 0.66541 0.51457 0.0
C461 C 0.48229 0.69931 0.50606 0.0
C462 C 0.51459 0.7327 0.50983 0.0
C463 C 0.54683 0.73232 0.51487 0.0
C464 C 0.5463 0.699 0.5173 0.0
C465 C 0.5143 0.76785 0.50968 0.0
C466 C 0.53827 0.79625 0.49618 0.0
C467 C 0.49028 0.77326 0.52271 0.0
C468 C 0.46571 0.74513 0.53812 0.0
C469 C 0.48017 0.73178 0.55333 0.0
C470 C 0.45684 0.70512 0.56772 0.0
C471 C 0.41902 0.6918 0.56717 0.0
C472 C 0.40447 0.70521 0.55226 0.0
C473 C 0.42767 0.73183 0.5378 0.0
H474 H 0.401 0.67117 0.57833 0.0
H475 H 0.62656 0.93191 0.43922 0.0
H476 H 0.67764 0.5825 0.80169 0.0
H477 H 0.73938 0.58975 0.80452 0.0
H478 H 0.70882 0.53199 0.86336 0.0
H479 H 0.64718 0.52367 0.86035 0.0
H480 H 0.78135 0.60318 0.86056 0.0
H481 H 0.70621 0.48375 0.82825 0.0
H482 H 0.66514 0.44358 0.8009 0.0
H483 H 0.74716 0.50609 0.75455 0.0
H484 H 0.78853 0.54699 0.78166 0.0
H485 H 0.89575 0.53621 0.89045 0.0
H486 H 0.84502 0.54512 0.88047 0.0
H487 H 0.88808 0.57254 0.81793 0.0
H488 H 0.93908 0.56293 0.82779 0.0
H489 H 0.81532 0.52706 0.81762 0.0
H490 H 0.89512 0.6396 0.85045 0.0
H491 H 0.9364 0.68096 0.87733 0.0
H492 H 0.84769 0.63538 0.92169 0.0
H493 H 0.80597 0.59333 0.89517 0.0
C494 C 0.68428 0.57154 0.81523 0.0
C495 C 0.65768 0.55231 0.83072 0.0
C496 C 0.71939 0.57564 0.81681 0.0
C497 C 0.72846 0.56134 0.83414 0.0
C498 C 0.70226 0.54318 0.84988 0.0
C499 C 0.66706 0.5383 0.84808 0.0
C500 C 0.76484 0.56413 0.83584 0.0
C501 C 0.78891 0.58659 0.85123 0.0
C502 C 0.77496 0.54332 0.82316 0.0
C503 C 0.75021 0.51871 0.80692 0.0
C504 C 0.71532 0.48917 0.8122 0.0
C505 C 0.69203 0.46621 0.79676 0.0
C506 C 0.70348 0.47237 0.77599 0.0
C507 C 0.7383 0.50142 0.77064 0.0
C508 C 0.76167 0.52449 0.78603 0.0
C509 C 0.89465 0.54424 0.87456 0.0
C510 C 0.92161 0.54899 0.85993 0.0
C511 C 0.86565 0.54957 0.8689 0.0
C512 C 0.86306 0.5602 0.84854 0.0
C513 C 0.88967 0.56459 0.83377 0.0
C514 C 0.91879 0.55913 0.83943 0.0
C515 C 0.83173 0.56544 0.84284 0.0
C516 C 0.80843 0.54442 0.82671 0.0
C517 C 0.82247 0.58789 0.85475 0.0
C518 C 0.84745 0.61311 0.87082 0.0
C519 C 0.88446 0.63818 0.86598 0.0
C520 C 0.90794 0.66179 0.88115 0.0
C521 C 0.8947 0.66076 0.90121 0.0
C522 C 0.85792 0.63614 0.90614 0.0
C523 C 0.83433 0.61244 0.89103 0.0
H524 H 0.91292 0.67907 0.91293 0.0
H525 H 0.68542 0.45456 0.76405 0.0
H526 H 0.15021 0.58224 0.15938 0.0
H527 H 0.20625 0.64174 0.16145 0.0
H528 H 0.14385 0.69014 0.18448 0.0
H529 H 0.08726 0.63061 0.18213 0.0
H530 H 0.19322 0.73388 0.15574 0.0
H531 H 0.19546 0.67013 0.21735 0.0
H532 H 0.19278 0.6189 0.23772 0.0
H533 H 0.28667 0.63033 0.20448 0.0
H534 H 0.2897 0.68145 0.18375 0.0
H535 H 0.34048 0.89589 0.19869 0.0
H536 H 0.28475 0.83774 0.19183 0.0
H537 H 0.3501 0.79345 0.1676 0.0
H538 H 0.40622 0.85161 0.17461 0.0
H539 H 0.2999 0.74747 0.19581 0.0
H540 H 0.29898 0.81392 0.13529 0.0
H541 H 0.30149 0.86581 0.11574 0.0
H542 H 0.20467 0.8498 0.14766 0.0
H543 H 0.20187 0.79811 0.16762 0.0
C544 C 0.14826 0.60545 0.16493 0.0
C545 C 0.11416 0.60154 0.1707 0.0
C546 C 0.18044 0.63949 0.16615 0.0
C547 C 0.17936 0.67033 0.17338 0.0
C548 C 0.14534 0.66669 0.1789 0.0
C549 C 0.11303 0.63261 0.17761 0.0
C550 C 0.21377 0.7063 0.17516 0.0
C551 C 0.21639 0.73698 0.16472 0.0
C552 C 0.24434 0.71014 0.18645 0.0
C553 C 0.24261 0.67941 0.19888 0.0
C554 C 0.21538 0.66156 0.21428 0.0
C555 C 0.21384 0.63259 0.22592 0.0
C556 C 0.23954 0.62138 0.22239 0.0
C557 C 0.26682 0.63909 0.20721 0.0
C558 C 0.26849 0.66809 0.19553 0.0
C559 C 0.34307 0.87398 0.19166 0.0
C560 C 0.37785 0.87839 0.18725 0.0
C561 C 0.31111 0.84075 0.18767 0.0
C562 C 0.31322 0.81127 0.17911 0.0
C563 C 0.34785 0.81585 0.17422 0.0
C564 C 0.37988 0.84916 0.17815 0.0
C565 C 0.27937 0.77511 0.17642 0.0
C566 C 0.27683 0.74437 0.18673 0.0
C567 C 0.24885 0.77129 0.1651 0.0
C568 C 0.25042 0.80233 0.15309 0.0
C569 C 0.2784 0.82165 0.13827 0.0
C570 C 0.27984 0.85099 0.12708 0.0
C571 C 0.25331 0.86115 0.13049 0.0
C572 C 0.22523 0.84192 0.14505 0.0
C573 C 0.22367 0.81257 0.15629 0.0
H574 H 0.25447 0.88387 0.12181 0.0
H575 H 0.23834 0.599 0.23145 0.0
H576 H 0.56052 0.17033 0.49972 0.0
H577 H 0.55946 0.22772 0.5 0.0
H578 H 0.44114 0.16743 0.49762 0.0
H579 H 0.4419 0.10954 0.49669 0.0
H580 H 0.46785 0.22758 0.47365 0.0
H581 H 0.48778 0.20056 0.54279 0.0
H582 H 0.5175 0.18608 0.57132 0.0
H583 H 0.61702 0.28874 0.56121 0.0
H584 H 0.58847 0.30325 0.532 0.0
H585 H 0.44881 0.37847 0.51046 0.0
H586 H 0.44525 0.31911 0.50549 0.0
H587 H 0.56358 0.37295 0.50418 0.0
H588 H 0.56739 0.43227 0.50925 0.0
H589 H 0.53364 0.31461 0.53055 0.0
H590 H 0.51415 0.33958 0.46007 0.0
H591 H 0.48353 0.35435 0.4321 0.0
H592 H 0.38161 0.25629 0.4464 0.0
H593 H 0.41151 0.24118 0.47467 0.0
C594 C 0.5342 0.16914 0.49916 0.0
C595 C 0.50123 0.13525 0.49839 0.0
C596 C 0.53369 0.20207 0.4994 0.0
C597 C 0.50024 0.20194 0.49932 0.0
C598 C 0.46729 0.16823 0.49781 0.0
C599 C 0.46777 0.13516 0.49732 0.0
C600 C 0.49985 0.23698 0.50137 0.0
C601 C 0.48184 0.24638 0.48625 0.0
C602 C 0.51853 0.26184 0.51766 0.0
C603 C 0.53604 0.25281 0.535 0.0
C604 C 0.51619 0.21984 0.54642 0.0
C605 C 0.53286 0.21163 0.56273 0.0
C606 C 0.56919 0.23648 0.56804 0.0
C607 C 0.58897 0.26947 0.55698 0.0
C608 C 0.57257 0.27766 0.54051 0.0
C609 C 0.47408 0.37772 0.50894 0.0
C610 C 0.5084 0.41013 0.51031 0.0
C611 C 0.47199 0.34376 0.50601 0.0
C612 C 0.50416 0.34159 0.50436 0.0
C613 C 0.5384 0.37397 0.50542 0.0
C614 C 0.54053 0.40789 0.50827 0.0
C615 C 0.50234 0.30549 0.50264 0.0
C616 C 0.51975 0.29579 0.51793 0.0
C617 C 0.48301 0.2804 0.48661 0.0
C618 C 0.46499 0.28946 0.46964 0.0
C619 C 0.48513 0.32133 0.45738 0.0
C620 C 0.46792 0.32973 0.44144 0.0
C621 C 0.43062 0.30633 0.43752 0.0
C622 C 0.41048 0.27442 0.44949 0.0
C623 C 0.42755 0.26592 0.46546 0.0
H624 H 0.41735 0.31287 0.42516 0.0
H625 H 0.58203 0.23036 0.58077 0.0
H626 H 0.46026 0.57247 0.84636 0.0
H627 H 0.39908 0.56546 0.84959 0.0
H628 H 0.34971 0.44888 0.84007 0.0
H629 H 0.41108 0.45553 0.8373 0.0
H630 H 0.32306 0.48958 0.81371 0.0
H631 H 0.34175 0.46803 0.88462 0.0
H632 H 0.37577 0.48109 0.91749 0.0
H633 H 0.37704 0.58352 0.92212 0.0
H634 H 0.34351 0.57133 0.88906 0.0
H635 H 0.13991 0.44785 0.83831 0.0
H636 H 0.19818 0.44812 0.83623 0.0
H637 H 0.25603 0.56067 0.85642 0.0
H638 H 0.19795 0.56068 0.85853 0.0
H639 H 0.27696 0.51788 0.87794 0.0
H640 H 0.26168 0.54218 0.80707 0.0
H641 H 0.22978 0.53191 0.77361 0.0
H642 H 0.22396 0.42742 0.76822 0.0
H643 H 0.2554 0.43685 0.80183 0.0
C644 C 0.43639 0.54528 0.84513 0.0
C645 C 0.44039 0.51452 0.84161 0.0
C646 C 0.40151 0.54134 0.84701 0.0
C647 C 0.37 0.50669 0.84506 0.0
C648 C 0.3738 0.47584 0.84162 0.0
C649 C 0.40878 0.47965 0.84018 0.0
C650 C 0.33323 0.50322 0.84607 0.0
C651 C 0.31254 0.49502 0.82783 0.0
C652 C 0.32026 0.51145 0.86436 0.0
C653 C 0.34045 0.51894 0.88424 0.0
C654 C 0.34962 0.49352 0.89252 0.0
C655 C 0.36874 0.50073 0.91122 0.0
C656 C 0.37865 0.53317 0.92186 0.0
C657 C 0.36939 0.55843 0.91384 0.0
C658 C 0.3503 0.55137 0.89513 0.0
C659 C 0.16506 0.47276 0.84216 0.0
C660 C 0.1643 0.50427 0.84856 0.0
C661 C 0.19834 0.47287 0.84093 0.0
C662 C 0.23143 0.50444 0.84613 0.0
C663 C 0.23079 0.536 0.85238 0.0
C664 C 0.19758 0.536 0.85346 0.0
C665 C 0.26667 0.50435 0.84552 0.0
C666 C 0.28719 0.51204 0.86384 0.0
C667 C 0.2796 0.49591 0.82724 0.0
C668 C 0.26048 0.49001 0.8071 0.0
C669 C 0.25326 0.51683 0.79887 0.0
C670 C 0.23534 0.51121 0.77985 0.0
C671 C 0.22473 0.47897 0.76883 0.0
C672 C 0.23212 0.45234 0.7768 0.0
C673 C 0.25 0.45782 0.79583 0.0
H674 H 0.21089 0.47468 0.7541 0.0
H675 H 0.39343 0.53869 0.93634 0.0
H676 H 0.88723 0.41197 0.15166 0.0
H677 H 0.82901 0.35424 0.15337 0.0
H678 H 0.88621 0.29699 0.17095 0.0
H679 H 0.9451 0.35493 0.1684 0.0
H680 H 0.82953 0.25491 0.14637 0.0
H681 H 0.84634 0.32574 0.20719 0.0
H682 H 0.86034 0.38185 0.22605 0.0
H683 H 0.76474 0.37889 0.20034 0.0
H684 H 0.75078 0.32325 0.18074 0.0
H685 H 0.66958 0.10124 0.1909 0.0
H686 H 0.73053 0.15464 0.18476 0.0
H687 H 0.68076 0.21857 0.16629 0.0
H688 H 0.61982 0.16556 0.1728 0.0
H689 H 0.73517 0.25606 0.19231 0.0
H690 H 0.7198 0.18575 0.13058 0.0
H691 H 0.7077 0.1307 0.11099 0.0
H692 H 0.80063 0.1321 0.13946 0.0
H693 H 0.81301 0.18691 0.15943 0.0
C694 C 0.88749 0.38702 0.15566 0.0
C695 C 0.92064 0.38798 0.16017 0.0
C696 C 0.85416 0.35403 0.15669 0.0
C697 C 0.85307 0.3214 0.16287 0.0
C698 C 0.88633 0.32187 0.16631 0.0
C699 C 0.91993 0.35494 0.16486 0.0
C700 C 0.8171 0.28752 0.16683 0.0
C701 C 0.80907 0.255 0.15663 0.0
C702 C 0.79016 0.28771 0.18004 0.0
C703 C 0.79769 0.32046 0.19236 0.0
C704 C 0.82837 0.33712 0.20547 0.0
C705 C 0.83631 0.36888 0.2163 0.0
C706 C 0.81341 0.38394 0.21444 0.0
C707 C 0.78247 0.3672 0.20176 0.0
C708 C 0.77455 0.33556 0.19076 0.0
C709 C 0.67159 0.1266 0.18541 0.0
C710 C 0.63979 0.12911 0.18233 0.0
C711 C 0.70649 0.1571 0.18182 0.0
C712 C 0.7103 0.1906 0.17485 0.0
C713 C 0.67856 0.19305 0.17165 0.0
C714 C 0.6437 0.16266 0.17534 0.0
C715 C 0.74727 0.22352 0.17157 0.0
C716 C 0.75558 0.25589 0.18204 0.0
C717 C 0.77445 0.22307 0.15871 0.0
C718 C 0.7671 0.19021 0.14665 0.0
C719 C 0.73749 0.17415 0.13278 0.0
C720 C 0.73061 0.14303 0.12158 0.0
C721 C 0.75332 0.12786 0.12402 0.0
C722 C 0.78303 0.14385 0.13761 0.0
C723 C 0.79001 0.17496 0.14885 0.0
H724 H 0.74794 0.10376 0.11534 0.0
H725 H 0.81964 0.40858 0.22283 0.0
H726 H 0.03349 0.55851 0.09685 0.0
H727 H 0.0392 0.54943 0.05996 0.0
H728 H 0.03166 0.44533 0.07366 0.0
H729 H 0.02516 0.45392 0.11093 0.0
H730 H 0.09026 0.50129 0.04043 0.0
H731 H 0.96134 0.42978 0.0583 0.0
H732 H 0.90489 0.41996 0.07587 0.0
H733 H 0.91061 0.51119 0.04207 0.0
H734 H 0.9675 0.52195 0.02457 0.0
H735 H 0.05746 0.46354 0.931 0.0
H736 H 0.05579 0.45602 0.96884 0.0
H737 H 0.02231 0.53713 0.97533 0.0
H738 H 0.02312 0.5442 0.93775 0.0
H739 H 0.98167 0.48002 0.99938 0.0
H740 H 0.11161 0.55627 0.98444 0.0
H741 H 0.17048 0.57128 0.9678 0.0
H742 H 0.16509 0.47589 0.99616 0.0
H743 H 0.10591 0.46007 0.01277 0.0
C744 C 0.03346 0.53385 0.09209 0.0
C745 C 0.02846 0.5067 0.10669 0.0
C746 C 0.03682 0.52878 0.07103 0.0
C747 C 0.03564 0.49668 0.06419 0.0
C748 C 0.03266 0.47029 0.07876 0.0
C749 C 0.02884 0.47517 0.09994 0.0
C750 C 0.03442 0.49004 0.04165 0.0
C751 C 0.0663 0.4957 0.03139 0.0
C752 C 0.00335 0.48355 0.03001 0.0
C753 C 0.96883 0.47683 0.04025 0.0
C754 C 0.95073 0.44793 0.05474 0.0
C755 C 0.91863 0.44217 0.06467 0.0
C756 C 0.90421 0.46498 0.06012 0.0
C757 C 0.92182 0.49355 0.04559 0.0
C758 C 0.95397 0.49947 0.03565 0.0
C759 C 0.04979 0.47979 0.9405 0.0
C760 C 0.04038 0.50446 0.93133 0.0
C761 C 0.04897 0.47554 0.96213 0.0
C762 C 0.03911 0.49615 0.97493 0.0
C763 C 0.02984 0.5208 0.96577 0.0
C764 C 0.03042 0.52489 0.94424 0.0
C765 C 0.03791 0.49215 0.99788 0.0
C766 C 0.00546 0.48463 0.00829 0.0
C767 C 0.0686 0.49724 0.00958 0.0
C768 C 0.10413 0.50673 -0.00039 0.0
C769 C 0.12283 0.53833 0.98698 0.0
C770 C 0.15628 0.54701 0.97758 0.0
C771 C 0.17145 0.52448 0.98086 0.0
C772 C 0.15326 0.49327 0.9936 0.0
C773 C 0.11978 0.48444 0.00301 0.0
H774 H 0.19735 0.53125 0.97358 0.0
H775 H 0.87936 0.46049 0.06782 0.0
H776 H 0.48736 0.05953 0.44348 0.0
H777 H 0.47997 0.05448 0.40565 0.0
H778 H 0.53481 0.99089 0.40399 0.0
H779 H 0.54371 0.99749 0.44148 0.0
H780 H 0.56386 0.04104 0.37649 0.0
H781 H 0.43959 0.95362 0.39496 0.0
H782 H 0.3798 0.93084 0.41258 0.0
H783 H 0.36508 0.01288 0.38102 0.0
H784 H 0.42502 0.03643 0.36337 0.0
H785 H 0.51119 0.9632 0.27572 0.0
H786 H 0.50926 0.96867 0.31343 0.0
H787 H 0.50504 0.06838 0.30568 0.0
H788 H 0.5079 0.06369 0.26777 0.0
H789 H 0.44955 0.00358 0.33694 0.0
H790 H 0.57773 0.08927 0.31861 0.0
H791 H 0.63597 0.10573 0.30067 0.0
H792 H 0.64028 0.01779 0.33246 0.0
H793 H 0.58173 1.00047 0.35035 0.0
C794 C 0.4973 0.04406 0.43499 0.0
C795 C 0.51635 0.02913 0.44523 0.0
C796 C 0.49298 0.04106 0.4134 0.0
C797 C 0.50685 0.02228 0.40191 0.0
C798 C 0.52422 0.00583 0.41244 0.0
C799 C 0.52917 0.00947 0.43385 0.0
C800 C 0.50574 0.02175 0.37883 0.0
C801 C 0.53868 0.03249 0.36796 0.0
C802 C 0.47313 0.01126 0.36753 0.0
C803 C 0.43699 0.99705 0.37802 0.0
C804 C 0.42374 0.96699 0.3919 0.0
C805 C 0.3898 0.95391 0.40187 0.0
C806 C 0.36872 0.9705 0.39799 0.0
C807 C 0.38147 1.00011 0.38405 0.0
C808 C 0.41541 0.01331 0.37403 0.0
C809 C 0.50981 0.98629 0.28201 0.0
C810 C 0.50987 0.01312 0.2688 0.0
C811 C 0.5086 0.98928 0.30352 0.0
C812 C 0.50681 0.01879 0.3122 0.0
C813 C 0.50621 0.04533 0.29915 0.0
C814 C 0.50814 0.04275 0.27757 0.0
C815 C 0.50744 0.02252 0.335 0.0
C816 C 0.47456 0.01236 0.34569 0.0
C817 C 0.53986 0.03276 0.34623 0.0
C818 C 0.57519 0.04335 0.33563 0.0
C819 C 0.59092 0.07323 0.32161 0.0
C820 C 0.62403 0.08277 0.3115 0.0
C821 C 0.64177 0.06276 0.31538 0.0
C822 C 0.62649 0.03324 0.32944 0.0
C823 C 0.59337 0.02357 0.33959 0.0
H824 H 0.66739 0.07018 0.30753 0.0
H825 H 0.34246 0.96034 0.40574 0.0
H826 H 0.58328 0.55023 0.76841 0.0
H827 H 0.58035 0.5574 0.73084 0.0
H828 H 0.46224 0.50698 0.73518 0.0
H829 H 0.46515 0.49747 0.77249 0.0
H830 H 0.47567 0.47711 0.70606 0.0
H831 H 0.52503 0.60301 0.72352 0.0
H832 H 0.56771 0.66193 0.73995 0.0
H833 H 0.65727 0.66874 0.70416 0.0
H834 H 0.61525 0.60952 0.68777 0.0
H835 H 0.45245 0.52515 0.60264 0.0
H836 H 0.45808 0.52676 0.64049 0.0
H837 H 0.56415 0.53502 0.63484 0.0
H838 H 0.5585 0.53271 0.59688 0.0
H839 H 0.55718 0.58789 0.66378 0.0
H840 H 0.50287 0.45815 0.6476 0.0
H841 H 0.45653 0.40062 0.63131 0.0
H842 H 0.37077 0.40499 0.66523 0.0
H843 H 0.41659 0.46286 0.6815 0.0
C844 C 0.55683 0.5413 0.76131 0.0
C845 C 0.5244 0.52322 0.77317 0.0
C846 C 0.55513 0.54555 0.73985 0.0
C847 C 0.52105 0.53298 0.73006 0.0
C848 C 0.48884 0.51666 0.74225 0.0
C849 C 0.49048 0.51142 0.76357 0.0
C850 C 0.51854 0.53403 0.70703 0.0
C851 C 0.49315 0.50165 0.69695 0.0
C852 C 0.54171 0.56573 0.69492 0.0
C853 C 0.56701 0.60163 0.70454 0.0
C854 C 0.55387 0.61695 0.71924 0.0
C855 C 0.57794 0.65041 0.72854 0.0
C856 C 0.61519 0.66903 0.72312 0.0
C857 C 0.62842 0.65427 0.70835 0.0
C858 C 0.60447 0.62076 0.69904 0.0
C859 C 0.47696 0.52723 0.60943 0.0
C860 C 0.50498 0.52865 0.59679 0.0
C861 C 0.48014 0.52822 0.63103 0.0
C862 C 0.51157 0.53114 0.64035 0.0
C863 C 0.53978 0.53293 0.62784 0.0
C864 C 0.53636 0.53131 0.60622 0.0
C865 C 0.51435 0.53122 0.66323 0.0
C866 C 0.53974 0.56366 0.67313 0.0
C867 C 0.49061 0.49993 0.67527 0.0
C868 C 0.46312 0.46501 0.6656 0.0
C869 C 0.4741 0.44701 0.65144 0.0
C870 C 0.44794 0.41431 0.64224 0.0
C871 C 0.41072 0.39921 0.64719 0.0
C872 C 0.3996 0.41674 0.66139 0.0
C873 C 0.42566 0.44947 0.67062 0.0
H874 H 0.3905 0.37389 0.64005 0.0
H875 H 0.63379 0.69493 0.73035 0.0
H876 H 0.45282 0.04269 0.57253 0.0
H877 H 0.46737 0.04583 0.60945 0.0
H878 H 0.56434 0.03971 0.59464 0.0
H879 H 0.54928 0.03559 0.55767 0.0
H880 H 0.52953 0.99529 0.62583 0.0
H881 H 0.57033 0.12008 0.61063 0.0
H882 H 0.56838 0.17388 0.59708 0.0
H883 H 0.47902 0.15084 0.63855 0.0
H884 H 0.48 0.09629 0.65213 0.0
H885 H 0.5982 0.04444 0.73012 0.0
H886 H 0.59218 0.04578 0.69229 0.0
H887 H 0.48407 0.03205 0.69992 0.0
H888 H 0.48964 0.0304 0.73761 0.0
H889 H 0.53045 0.08941 0.67218 0.0
H890 H 0.49124 0.96129 0.6861 0.0
H891 H 0.49963 0.91121 0.70008 0.0
H892 H 0.59433 0.94598 0.66082 0.0
H893 H 0.58685 0.99666 0.64685 0.0
C894 C 0.47739 0.04232 0.57715 0.0
C895 C 0.49992 0.03888 0.56228 0.0
C896 C 0.48577 0.04424 0.59824 0.0
C897 C 0.51715 0.04333 0.60484 0.0
C898 C 0.53997 0.0404 0.58994 0.0
C899 C 0.53145 0.03823 0.56883 0.0
C900 C 0.52537 0.04431 0.62733 0.0
C901 C 0.53031 0.01623 0.63589 0.0
C902 C 0.52619 0.07145 0.64054 0.0
C903 C 0.52504 0.1039 0.63227 0.0
C904 C 0.55001 0.12625 0.61673 0.0
C905 C 0.54912 0.15695 0.60906 0.0
C906 C 0.52358 0.16585 0.61694 0.0
C907 C 0.49879 0.14393 0.63247 0.0
C908 C 0.4995 0.1131 0.64016 0.0
C909 C 0.57312 0.04163 0.72373 0.0
C910 C 0.54437 0.03728 0.73686 0.0
C911 C 0.56971 0.0423 0.70215 0.0
C912 C 0.53764 0.03889 0.69338 0.0
C913 C 0.50903 0.03473 0.70643 0.0
C914 C 0.51223 0.03366 0.72795 0.0
C915 C 0.53384 0.04011 0.67059 0.0
C916 C 0.52981 0.06863 0.66202 0.0
C917 C 0.53456 0.0138 0.65737 0.0
C918 C 0.53872 0.98302 0.66559 0.0
C919 C 0.51403 0.95845 0.68057 0.0
C920 C 0.51859 0.92992 0.68847 0.0
C921 C 0.54756 0.92549 0.68139 0.0
C922 C 0.57194 0.94949 0.66632 0.0
C923 C 0.56754 0.9781 0.6584 0.0
H924 H 0.55109 0.90342 0.68752 0.0
H925 H 0.52307 0.18978 0.61108 0.0
H926 H 0.59506 0.59901 0.89997 0.0
H927 H 0.59572 0.57905 0.93565 0.0
H928 H 0.53101 0.4658 0.91726 0.0
H929 H 0.53017 0.48585 0.88142 0.0
H930 H 0.5042 0.48057 0.95241 0.0
H931 H 0.61868 0.49863 0.92835 0.0
H932 H 0.67908 0.53105 0.91082 0.0
H933 H 0.71665 0.61798 0.95518 0.0
H934 H 0.65621 0.58644 0.97277 0.0
H935 H 0.5199 0.42694 0.05496 0.0
H936 H 0.5282 0.43275 0.01721 0.0
H937 H 0.58989 0.55073 0.02229 0.0
H938 H 0.58184 0.54527 0.05999 0.0
H939 H 0.61909 0.52426 0.99253 0.0
H940 H 0.50114 0.51016 0.01234 0.0
H941 H 0.4401 0.47843 0.02924 0.0
H942 H 0.40931 0.38317 0.99206 0.0
H943 H 0.47042 0.41421 0.97513 0.0
C944 C 0.58115 0.56986 0.90352 0.0
C945 C 0.56268 0.54388 0.888 0.0
C946 C 0.58172 0.55849 0.92386 0.0
C947 C 0.56383 0.52094 0.92903 0.0
C948 C 0.54518 0.4949 0.91354 0.0
C949 C 0.5448 0.50631 0.89312 0.0
C950 C 0.56333 0.50933 0.95087 0.0
C951 C 0.5293 0.48935 0.96107 0.0
C952 C 0.59614 0.52127 0.96219 0.0
C953 C 0.63276 0.54024 0.95182 0.0
C954 C 0.63971 0.52479 0.93429 0.0
C955 C 0.67398 0.543 0.92435 0.0
C956 C 0.70167 0.57657 0.93187 0.0
C957 C 0.69516 0.59196 0.94937 0.0
C958 C 0.6609 0.57391 0.95935 0.0
C959 C 0.53576 0.45411 0.04809 0.0
C960 C 0.54988 0.48567 0.06047 0.0
C961 C 0.5404 0.45736 0.02652 0.0
C962 C 0.5593 0.49217 0.01698 0.0
C963 C 0.5752 0.52361 0.02937 0.0
C964 C 0.5704 0.52042 0.05091 0.0
C965 C 0.56001 0.49618 0.99407 0.0
C966 C 0.59404 0.51482 0.98373 0.0
C967 C 0.52721 0.48292 0.98256 0.0
C968 C 0.49048 0.46431 0.99268 0.0
C969 C 0.48146 0.48233 0.0079 0.0
C970 C 0.44684 0.4645 0.01746 0.0
C971 C 0.42089 0.42876 0.01177 0.0
C972 C 0.42947 0.41082 0.99648 0.0
C973 C 0.46409 0.42852 0.9869 0.0
H974 H 0.39409 0.41501 0.01918 0.0
H975 H 0.72819 0.59062 0.92415 0.0
H976 H 0.00323 0.43439 0.23589 0.0
H977 H 0.99359 0.44491 0.27196 0.0
H978 H 0.99839 0.54639 0.254 0.0
H979 H 0.00948 0.53654 0.21786 0.0
H980 H 0.03814 0.5581 0.2865 0.0
H981 H 0.91489 0.47064 0.27169 0.0
H982 H 0.86252 0.41415 0.25809 0.0
H983 H 0.88993 0.34872 0.29761 0.0
H984 H 0.94229 0.40499 0.31168 0.0
H985 H 0.97891 0.56567 0.39187 0.0
H986 H 0.97726 0.55987 0.35391 0.0
H987 H 0.01045 0.47836 0.35925 0.0
H988 H 0.013 0.48453 0.39703 0.0
H989 H 0.94505 0.46059 0.33266 0.0
H990 H 0.07242 0.55547 0.34565 0.0
H991 H 0.11926 0.61512 0.35964 0.0
H992 H 0.07677 0.67039 0.32236 0.0
H993 H 0.02931 0.61094 0.30838 0.0
C994 C 0.00188 0.45876 0.2396 0.0
C995 C 0.00711 0.48466 0.22412 0.0
C996 C 0.99607 0.46464 0.26022 0.0
C997 C 0.99472 0.49622 0.26572 0.0
C998 C 0.99924 0.5218 0.25015 0.0
C999 C 0.00542 0.51608 0.22951 0.0
C1000 C 0.99102 0.50337 0.28791 0.0
C1001 C 0.01727 0.537 0.29647 0.0
C1002 C 0.96386 0.47601 0.30103 0.0
C1003 C 0.93266 0.442 0.2926 0.0
C1004 C 0.90988 0.44419 0.27738 0.0
C1005 C 0.88015 0.41221 0.26962 0.0
C1006 C 0.87305 0.37782 0.27684 0.0
C1007 C 0.8955 0.37538 0.292 0.0
C1008 C 0.92509 0.40731 0.29996 0.0
C1009 C 0.98595 0.5466 0.38493 0.0
C1010 C 0.99619 0.52562 0.3974 0.0
C1011 C 0.98499 0.54335 0.3633 0.0
C1012 C 0.99367 0.51865 0.3539 0.0
C1013 C 0.00359 0.4975 0.3663 0.0
C1014 C 0.00522 0.50122 0.38784 0.0
C1015 C 0.99263 0.51473 0.3311 0.0
C1016 C 0.96549 0.48174 0.32252 0.0
C1017 C 0.01829 0.54306 0.31792 0.0
C1018 C 0.04706 0.57875 0.32617 0.0
C1019 C 0.07286 0.58031 0.34059 0.0
C1020 C 0.09956 0.61409 0.34848 0.0
C1021 C 0.10092 0.64652 0.34195 0.0
C1022 C 0.07565 0.64524 0.32744 0.0
C1023 C 0.04886 0.61152 0.31952 0.0
H1024 H 0.1216 0.67264 0.34809 0.0
H1025 H 0.85008 0.35309 0.27074 0.0
loop_
_geom_bond_atom_site_label_1
_geom_bond_atom_site_label_2
_geom_bond_distance
_geom_bond_site_symmetry_2
_ccdc_geom_bond_type
Dy0 O4 2.398 . S
Dy0 O5 2.491 . S
Dy0 O6 2.403 . S
Dy0 O7 2.664 . S
Dy0 O11 2.326 . S
Dy0 O15 2.310 . S
Dy0 O16 2.351 1_455 S
C1 O12 1.185 . S
C1 O13 1.355 . S
C2 O4 1.185 . S
C2 O5 1.355 . S
Dy3 O7 2.310 1_655 S
Dy3 O10 2.351 1_655 S
Dy3 O12 2.398 . S
Dy3 O13 2.491 . S
Dy3 O14 2.403 1_655 S
Dy3 O15 2.664 1_655 S
Dy3 O17 2.326 . S
O4 Dy0 2.398 . S
O4 C2 1.185 . S
O5 Dy0 2.491 . S
O5 C2 1.355 . S
O6 Dy0 2.403 . S
O6 C8 1.254 . S
O7 Dy0 2.664 . S
O7 Dy3 2.310 1_455 S
O7 C8 1.268 . S
C8 O6 1.254 . S
C8 O7 1.268 . S
C9 O14 1.254 . S
C9 O15 1.268 . S
O10 Dy3 2.351 1_455 S
O10 C18 1.249 . S
O11 Dy0 2.326 . S
O11 C18 1.267 . S
O12 C1 1.185 . S
O12 Dy3 2.398 . S
O13 C1 1.355 . S
O13 Dy3 2.491 . S
O14 Dy3 2.403 1_455 S
O14 C9 1.254 . S
O15 Dy0 2.310 . S
O15 Dy3 2.664 1_455 S
O15 C9 1.268 . S
O16 Dy0 2.351 1_655 S
O16 C19 1.249 . S
O17 Dy3 2.326 . S
O17 C19 1.267 . S
C18 O10 1.249 . S
C18 O11 1.267 . S
C19 O16 1.249 . S
C19 O17 1.267 . S
Dy20 O24 2.398 . S
Dy20 O25 2.491 . S
Dy20 O26 2.403 . S
Dy20 O27 2.664 1_565 S
Dy20 O31 2.326 . S
Dy20 O35 2.310 1_565 S
Dy20 O36 2.351 1_565 S
C21 O32 1.185 . S
C21 O33 1.355 . S
C22 O24 1.185 . S
C22 O25 1.355 . S
Dy23 O27 2.310 . S
Dy23 O30 2.351 1_545 S
Dy23 O32 2.398 . S
Dy23 O33 2.491 . S
Dy23 O34 2.403 . S
Dy23 O35 2.664 . S
Dy23 O37 2.326 . S
O24 Dy20 2.398 . S
O24 C22 1.185 . S
O25 Dy20 2.491 . S
O25 C22 1.355 . S
O26 Dy20 2.403 . S
O26 C28 1.254 1_565 S
O27 Dy20 2.664 1_545 S
O27 Dy23 2.310 . S
O27 C28 1.268 . S
C28 O26 1.254 1_545 S
C28 O27 1.268 . S
C29 O34 1.254 . S
C29 O35 1.268 . S
O30 Dy23 2.351 1_565 S
O30 C38 1.249 . S
O31 Dy20 2.326 . S
O31 C38 1.267 . S
O32 C21 1.185 . S
O32 Dy23 2.398 . S
O33 C21 1.355 . S
O33 Dy23 2.491 . S
O34 Dy23 2.403 . S
O34 C29 1.254 . S
O35 Dy20 2.310 1_545 S
O35 Dy23 2.664 . S
O35 C29 1.268 . S
O36 Dy20 2.351 1_545 S
O36 C39 1.249 . S
O37 Dy23 2.326 . S
O37 C39 1.267 . S
C38 O30 1.249 . S
C38 O31 1.267 . S
C39 O36 1.249 . S
C39 O37 1.267 . S
Dy40 O44 2.398 . S
Dy40 O45 2.491 . S
Dy40 O46 2.403 . S
Dy40 O47 2.664 . S
Dy40 O51 2.326 . S
Dy40 O55 2.310 . S
Dy40 O56 2.351 . S
C41 O52 1.185 . S
C41 O53 1.355 . S
C42 O44 1.185 . S
C42 O45 1.355 . S
Dy43 O47 2.310 . S
Dy43 O50 2.351 . S
Dy43 O52 2.398 . S
Dy43 O53 2.491 . S
Dy43 O54 2.403 . S
Dy43 O55 2.664 . S
Dy43 O57 2.326 . S
O44 Dy40 2.398 . S
O44 C42 1.185 . S
O45 Dy40 2.491 . S
O45 C42 1.355 . S
O46 Dy40 2.403 . S
O46 C48 1.254 . S
O47 Dy40 2.664 . S
O47 Dy43 2.310 . S
O47 C48 1.268 . S
C48 O46 1.254 . S
C48 O47 1.268 . S
C49 O54 1.254 . S
C49 O55 1.268 . S
O50 Dy43 2.351 . S
O50 C58 1.249 . S
O51 Dy40 2.326 . S
O51 C58 1.267 . S
O52 C41 1.185 . S
O52 Dy43 2.398 . S
O53 C41 1.355 . S
O53 Dy43 2.491 . S
O54 Dy43 2.403 . S
O54 C49 1.254 . S
O55 Dy40 2.310 . S
O55 Dy43 2.664 . S
O55 C49 1.268 . S
O56 Dy40 2.351 . S
O56 C59 1.249 . S
O57 Dy43 2.326 . S
O57 C59 1.267 . S
C58 O50 1.249 . S
C58 O51 1.267 . S
C59 O56 1.249 . S
C59 O57 1.267 . S
O60 Cd61 2.300 . S
O60 C67 1.275 . S
Cd61 O60 2.300 . S
Cd61 O69 2.381 . S
Cd61 O70 2.378 . S
O62 Cd63 2.385 . S
O62 C67 1.255 1_565 S
Cd63 O62 2.385 . S
Cd63 O64 2.317 . S
O64 Cd63 2.317 . S
O64 C65 1.232 . S
C65 O64 1.232 . S
C65 O66 1.218 . S
O66 C65 1.218 . S
C67 O60 1.275 . S
C67 O62 1.255 1_545 S
C68 O69 1.258 . S
C68 O70 1.256 . S
O69 Cd61 2.381 . S
O69 C68 1.258 . S
O70 Cd61 2.378 . S
O70 C68 1.256 . S
O71 Cd72 2.300 . S
O71 C78 1.275 . S
Cd72 O71 2.300 . S
Cd72 O80 2.381 . S
Cd72 O81 2.378 . S
O73 Cd74 2.385 . S
O73 C78 1.255 . S
Cd74 O73 2.385 . S
Cd74 O75 2.317 . S
O75 Cd74 2.317 . S
O75 C76 1.232 . S
C76 O75 1.232 . S
C76 O77 1.218 . S
O77 C76 1.218 . S
C78 O71 1.275 . S
C78 O73 1.255 . S
C79 O80 1.258 . S
C79 O81 1.256 . S
O80 Cd72 2.381 . S
O80 C79 1.258 . S
O81 Cd72 2.378 . S
O81 C79 1.256 . S
O82 Cd83 2.300 . S
O82 C89 1.275 . S
Cd83 O82 2.300 . S
Cd83 O91 2.381 . S
Cd83 O92 2.378 . S
O84 Cd85 2.385 1_455 S
O84 C89 1.255 . S
Cd85 O84 2.385 1_655 S
Cd85 O86 2.317 . S
O86 Cd85 2.317 . S
O86 C87 1.232 . S
C87 O86 1.232 . S
C87 O88 1.218 . S
O88 C87 1.218 . S
C89 O82 1.275 . S
C89 O84 1.255 . S
C90 O91 1.258 . S
C90 O92 1.256 . S
O91 Cd83 2.381 . S
O91 C90 1.258 . S
O92 Cd83 2.378 . S
O92 C90 1.256 . S
O93 Cd94 2.300 . S
O93 C100 1.275 . S
Cd94 O93 2.300 . S
Cd94 O102 2.381 . S
Cd94 O103 2.378 . S
O95 Cd96 2.385 . S
O95 C100 1.255 1_655 S
Cd96 O95 2.385 . S
Cd96 O97 2.317 . S
O97 Cd96 2.317 . S
O97 C98 1.232 . S
C98 O97 1.232 . S
C98 O99 1.218 . S
O99 C98 1.218 . S
C100 O93 1.275 . S
C100 O95 1.255 1_455 S
C101 O102 1.258 . S
C101 O103 1.256 . S
O102 Cd94 2.381 . S
O102 C101 1.258 . S
O103 Cd94 2.378 . S
O103 C101 1.256 . S
O104 Cd105 2.300 . S
O104 C111 1.275 . S
Cd105 O104 2.300 . S
Cd105 O113 2.381 1_545 S
Cd105 O114 2.378 1_545 S
O106 Cd107 2.385 . S
O106 C111 1.255 . S
Cd107 O106 2.385 . S
Cd107 O108 2.317 . S
O108 Cd107 2.317 . S
O108 C109 1.232 . S
C109 O108 1.232 . S
C109 O110 1.218 . S
O110 C109 1.218 . S
C111 O104 1.275 . S
C111 O106 1.255 . S
C112 O113 1.258 . S
C112 O114 1.256 . S
O113 Cd105 2.381 1_565 S
O113 C112 1.258 . S
O114 Cd105 2.378 1_565 S
O114 C112 1.256 . S
O115 Cd116 2.300 . S
O115 C122 1.275 . S
Cd116 O115 2.300 . S
Cd116 O124 2.381 . S
Cd116 O125 2.378 . S
O117 Cd118 2.385 . S
O117 C122 1.255 . S
Cd118 O117 2.385 . S
Cd118 O119 2.317 . S
O119 Cd118 2.317 . S
O119 C120 1.232 . S
C120 O119 1.232 . S
C120 O121 1.218 . S
O121 C120 1.218 . S
C122 O115 1.275 . S
C122 O117 1.255 . S
C123 O124 1.258 . S
C123 O125 1.256 . S
O124 Cd116 2.381 . S
O124 C123 1.258 . S
O125 Cd116 2.378 . S
O125 C123 1.256 . S
H126 C144 0.951 . S
H127 C146 0.951 . S
H128 C148 0.950 . S
H129 C149 0.950 . S
H130 C151 0.950 . S
H131 C154 0.950 . S
H132 C155 0.950 . S
H133 C157 0.950 . S
H134 C158 0.950 . S
H135 C159 0.951 . S
H136 C161 0.951 . S
H137 C163 0.950 . S
H138 C164 0.950 . S
H139 C166 0.950 . S
H140 C169 0.950 . S
H141 C170 0.950 . S
H142 C172 0.950 . S
H143 C173 0.950 . S
C144 H126 0.951 . S
C144 C145 1.366 . S
C144 C146 1.388 . S
C145 C144 1.366 . S
C145 C149 1.385 . S
C146 H127 0.951 . S
C146 C144 1.388 . S
C146 C147 1.366 . S
C147 C146 1.366 . S
C147 C148 1.414 . S
C147 C150 1.499 . S
C148 H128 0.950 . S
C148 C147 1.414 . S
C148 C149 1.374 . S
C149 H129 0.950 . S
C149 C145 1.385 . S
C149 C148 1.374 . S
C150 C147 1.499 . S
C150 C151 1.373 . S
C150 C152 1.389 . S
C151 H130 0.950 . S
C151 C150 1.373 . S
C151 C167 1.377 . S
C152 C150 1.389 . S
C152 C153 1.524 . S
C152 C166 1.377 . S
C153 C152 1.524 . S
C153 C154 1.397 . S
C153 C158 1.363 . S
C154 H131 0.950 . S
C154 C153 1.397 . S
C154 C155 1.334 . S
C155 H132 0.950 . S
C155 C154 1.334 . S
C155 C156 1.287 . S
C156 C155 1.287 . S
C156 C157 1.524 . S
C156 H175 0.913 . S
C157 H133 0.950 . S
C157 C156 1.524 . S
C157 C158 1.415 . S
C158 H134 0.950 . S
C158 C153 1.363 . S
C158 C157 1.415 . S
C159 H135 0.951 . S
C159 C160 1.366 . S
C159 C161 1.388 . S
C160 C159 1.366 . S
C160 C164 1.385 . S
C161 H136 0.951 . S
C161 C159 1.388 . S
C161 C162 1.366 . S
C162 C161 1.366 . S
C162 C163 1.414 . S
C162 C165 1.499 . S
C163 H137 0.950 . S
C163 C162 1.414 . S
C163 C164 1.374 . S
C164 H138 0.950 . S
C164 C160 1.385 . S
C164 C163 1.374 . S
C165 C162 1.499 . S
C165 C166 1.373 . S
C165 C167 1.389 . S
C166 H139 0.950 . S
C166 C152 1.377 . S
C166 C165 1.373 . S
C167 C151 1.377 . S
C167 C165 1.389 . S
C167 C168 1.524 . S
C168 C167 1.524 . S
C168 C169 1.397 . S
C168 C173 1.363 . S
C169 H140 0.950 . S
C169 C168 1.397 . S
C169 C170 1.334 . S
C170 H141 0.950 . S
C170 C169 1.334 . S
C170 C171 1.287 . S
C171 C170 1.287 . S
C171 C172 1.524 . S
C171 H174 0.999 . S
C172 H142 0.950 . S
C172 C171 1.524 . S
C172 C173 1.415 . S
C173 H143 0.950 . S
C173 C168 1.363 . S
C173 C172 1.415 . S
H174 C171 0.999 . S
H175 C156 0.913 . S
H176 C194 0.951 . S
H177 C196 0.951 . S
H178 C198 0.950 . S
H179 C199 0.950 . S
H180 C201 0.950 . S
H181 C204 0.950 . S
H182 C205 0.950 . S
H183 C207 0.950 . S
H184 C208 0.950 . S
H185 C209 0.951 . S
H186 C211 0.951 . S
H187 C213 0.950 . S
H188 C214 0.950 . S
H189 C216 0.950 . S
H190 C219 0.950 . S
H191 C220 0.950 . S
H192 C222 0.950 . S
H193 C223 0.950 . S
C194 H176 0.951 . S
C194 C195 1.366 . S
C194 C196 1.388 . S
C195 C194 1.366 . S
C195 C199 1.385 . S
C196 H177 0.951 . S
C196 C194 1.388 . S
C196 C197 1.366 . S
C197 C196 1.366 . S
C197 C198 1.414 . S
C197 C200 1.499 . S
C198 H178 0.950 . S
C198 C197 1.414 . S
C198 C199 1.374 . S
C199 H179 0.950 . S
C199 C195 1.385 . S
C199 C198 1.374 . S
C200 C197 1.499 . S
C200 C201 1.373 . S
C200 C202 1.389 . S
C201 H180 0.950 . S
C201 C200 1.373 . S
C201 C217 1.377 . S
C202 C200 1.389 . S
C202 C203 1.524 . S
C202 C216 1.377 . S
C203 C202 1.524 . S
C203 C204 1.397 . S
C203 C208 1.363 . S
C204 H181 0.950 . S
C204 C203 1.397 . S
C204 C205 1.334 . S
C205 H182 0.950 . S
C205 C204 1.334 . S
C205 C206 1.287 . S
C206 C205 1.287 . S
C206 C207 1.524 . S
C206 H225 0.913 . S
C207 H183 0.950 . S
C207 C206 1.524 . S
C207 C208 1.415 . S
C208 H184 0.950 . S
C208 C203 1.363 . S
C208 C207 1.415 . S
C209 H185 0.951 . S
C209 C210 1.366 . S
C209 C211 1.388 . S
C210 C209 1.366 . S
C210 C214 1.385 . S
C211 H186 0.951 . S
C211 C209 1.388 . S
C211 C212 1.366 . S
C212 C211 1.366 . S
C212 C213 1.414 . S
C212 C215 1.499 . S
C213 H187 0.950 . S
C213 C212 1.414 . S
C213 C214 1.374 . S
C214 H188 0.950 . S
C214 C210 1.385 . S
C214 C213 1.374 . S
C215 C212 1.499 . S
C215 C216 1.373 . S
C215 C217 1.389 . S
C216 H189 0.950 . S
C216 C202 1.377 . S
C216 C215 1.373 . S
C217 C201 1.377 . S
C217 C215 1.389 . S
C217 C218 1.524 . S
C218 C217 1.524 . S
C218 C219 1.397 . S
C218 C223 1.363 . S
C219 H190 0.950 . S
C219 C218 1.397 . S
C219 C220 1.334 . S
C220 H191 0.950 . S
C220 C219 1.334 . S
C220 C221 1.287 . S
C221 C220 1.287 . S
C221 C222 1.524 . S
C221 H224 0.999 . S
C222 H192 0.950 . S
C222 C221 1.524 . S
C222 C223 1.415 . S
C223 H193 0.950 . S
C223 C218 1.363 . S
C223 C222 1.415 . S
H224 C221 0.999 . S
H225 C206 0.913 . S
H226 C244 0.951 . S
H227 C246 0.951 . S
H228 C248 0.950 . S
H229 C249 0.950 . S
H230 C251 0.950 . S
H231 C254 0.950 . S
H232 C255 0.950 . S
H233 C257 0.950 . S
H234 C258 0.950 . S
H235 C259 0.951 . S
H236 C261 0.951 . S
H237 C263 0.950 . S
H238 C264 0.950 . S
H239 C266 0.950 . S
H240 C269 0.950 . S
H241 C270 0.950 . S
H242 C272 0.950 . S
H243 C273 0.950 . S
C244 H226 0.951 . S
C244 C245 1.366 . S
C244 C246 1.388 . S
C245 C244 1.366 . S
C245 C249 1.385 . S
C246 H227 0.951 . S
C246 C244 1.388 . S
C246 C247 1.366 . S
C247 C246 1.366 . S
C247 C248 1.414 . S
C247 C250 1.499 . S
C248 H228 0.950 . S
C248 C247 1.414 . S
C248 C249 1.374 . S
C249 H229 0.950 . S
C249 C245 1.385 . S
C249 C248 1.374 . S
C250 C247 1.499 . S
C250 C251 1.373 . S
C250 C252 1.389 . S
C251 H230 0.950 . S
C251 C250 1.373 . S
C251 C267 1.377 . S
C252 C250 1.389 . S
C252 C253 1.524 . S
C252 C266 1.377 . S
C253 C252 1.524 . S
C253 C254 1.397 . S
C253 C258 1.363 . S
C254 H231 0.950 . S
C254 C253 1.397 . S
C254 C255 1.334 . S
C255 H232 0.950 . S
C255 C254 1.334 . S
C255 C256 1.287 . S
C256 C255 1.287 . S
C256 C257 1.524 . S
C256 H275 0.913 . S
C257 H233 0.950 . S
C257 C256 1.524 . S
C257 C258 1.415 . S
C258 H234 0.950 . S
C258 C253 1.363 . S
C258 C257 1.415 . S
C259 H235 0.951 . S
C259 C260 1.366 . S
C259 C261 1.388 . S
C260 C259 1.366 . S
C260 C264 1.385 . S
C261 H236 0.951 . S
C261 C259 1.388 . S
C261 C262 1.366 . S
C262 C261 1.366 . S
C262 C263 1.414 . S
C262 C265 1.499 . S
C263 H237 0.950 . S
C263 C262 1.414 . S
C263 C264 1.374 . S
C264 H238 0.950 . S
C264 C260 1.385 . S
C264 C263 1.374 . S
C265 C262 1.499 . S
C265 C266 1.373 . S
C265 C267 1.389 . S
C266 H239 0.950 . S
C266 C252 1.377 . S
C266 C265 1.373 . S
C267 C251 1.377 . S
C267 C265 1.389 . S
C267 C268 1.524 . S
C268 C267 1.524 . S
C268 C269 1.397 . S
C268 C273 1.363 . S
C269 H240 0.950 . S
C269 C268 1.397 . S
C269 C270 1.334 . S
C270 H241 0.950 . S
C270 C269 1.334 . S
C270 C271 1.287 . S
C271 C270 1.287 . S
C271 C272 1.524 . S
C271 H274 0.999 . S
C272 H242 0.950 . S
C272 C271 1.524 . S
C272 C273 1.415 . S
C273 H243 0.950 . S
C273 C268 1.363 . S
C273 C272 1.415 . S
H274 C271 0.999 . S
H275 C256 0.913 . S
H276 C294 0.951 . S
H277 C296 0.951 . S
H278 C298 0.950 . S
H279 C299 0.950 . S
H280 C301 0.950 . S
H281 C304 0.950 . S
H282 C305 0.950 . S
H283 C307 0.950 . S
H284 C308 0.950 . S
H285 C309 0.951 . S
H286 C311 0.951 . S
H287 C313 0.950 . S
H288 C314 0.950 . S
H289 C316 0.950 . S
H290 C319 0.950 . S
H291 C320 0.950 . S
H292 C322 0.950 . S
H293 C323 0.950 . S
C294 H276 0.951 . S
C294 C295 1.366 . S
C294 C296 1.388 . S
C295 C294 1.366 . S
C295 C299 1.385 . S
C296 H277 0.951 . S
C296 C294 1.388 . S
C296 C297 1.366 . S
C297 C296 1.366 . S
C297 C298 1.414 . S
C297 C300 1.499 . S
C298 H278 0.950 . S
C298 C297 1.414 . S
C298 C299 1.374 . S
C299 H279 0.950 . S
C299 C295 1.385 . S
C299 C298 1.374 . S
C300 C297 1.499 . S
C300 C301 1.373 . S
C300 C302 1.389 . S
C301 H280 0.950 . S
C301 C300 1.373 . S
C301 C317 1.377 . S
C302 C300 1.389 . S
C302 C303 1.524 . S
C302 C316 1.377 . S
C303 C302 1.524 . S
C303 C304 1.397 . S
C303 C308 1.363 . S
C304 H281 0.950 . S
C304 C303 1.397 . S
C304 C305 1.334 . S
C305 H282 0.950 . S
C305 C304 1.334 . S
C305 C306 1.287 . S
C306 C305 1.287 . S
C306 C307 1.524 . S
C306 H325 0.913 . S
C307 H283 0.950 . S
C307 C306 1.524 . S
C307 C308 1.415 . S
C308 H284 0.950 . S
C308 C303 1.363 . S
C308 C307 1.415 . S
C309 H285 0.951 . S
C309 C310 1.366 . S
C309 C311 1.388 . S
C310 C309 1.366 . S
C310 C314 1.385 . S
C311 H286 0.951 . S
C311 C309 1.388 . S
C311 C312 1.366 . S
C312 C311 1.366 . S
C312 C313 1.414 . S
C312 C315 1.499 . S
C313 H287 0.950 . S
C313 C312 1.414 . S
C313 C314 1.374 . S
C314 H288 0.950 . S
C314 C310 1.385 . S
C314 C313 1.374 . S
C315 C312 1.499 . S
C315 C316 1.373 . S
C315 C317 1.389 . S
C316 H289 0.950 . S
C316 C302 1.377 . S
C316 C315 1.373 . S
C317 C301 1.377 . S
C317 C315 1.389 . S
C317 C318 1.524 . S
C318 C317 1.524 . S
C318 C319 1.397 . S
C318 C323 1.363 . S
C319 H290 0.950 . S
C319 C318 1.397 . S
C319 C320 1.334 . S
C320 H291 0.950 . S
C320 C319 1.334 . S
C320 C321 1.287 . S
C321 C320 1.287 . S
C321 C322 1.524 . S
C321 H324 0.999 . S
C322 H292 0.950 . S
C322 C321 1.524 . S
C322 C323 1.415 . S
C323 H293 0.950 . S
C323 C318 1.363 . S
C323 C322 1.415 . S
H324 C321 0.999 . S
H325 C306 0.913 . S
H326 C344 0.951 . S
H327 C346 0.951 . S
H328 C348 0.950 . S
H329 C349 0.950 . S
H330 C351 0.950 . S
H331 C354 0.950 . S
H332 C355 0.950 . S
H333 C357 0.950 . S
H334 C358 0.950 . S
H335 C359 0.951 . S
H336 C361 0.951 . S
H337 C363 0.950 . S
H338 C364 0.950 . S
H339 C366 0.950 . S
H340 C369 0.950 . S
H341 C370 0.950 . S
H342 C372 0.950 . S
H343 C373 0.950 . S
C344 H326 0.951 . S
C344 C345 1.366 . S
C344 C346 1.388 . S
C345 C344 1.366 . S
C345 C349 1.385 . S
C346 H327 0.951 . S
C346 C344 1.388 . S
C346 C347 1.366 . S
C347 C346 1.366 . S
C347 C348 1.414 . S
C347 C350 1.499 . S
C348 H328 0.950 . S
C348 C347 1.414 . S
C348 C349 1.374 . S
C349 H329 0.950 . S
C349 C345 1.385 . S
C349 C348 1.374 . S
C350 C347 1.499 . S
C350 C351 1.373 . S
C350 C352 1.389 . S
C351 H330 0.950 . S
C351 C350 1.373 . S
C351 C367 1.377 . S
C352 C350 1.389 . S
C352 C353 1.524 . S
C352 C366 1.377 . S
C353 C352 1.524 . S
C353 C354 1.397 . S
C353 C358 1.363 . S
C354 H331 0.950 . S
C354 C353 1.397 . S
C354 C355 1.334 . S
C355 H332 0.950 . S
C355 C354 1.334 . S
C355 C356 1.287 . S
C356 C355 1.287 . S
C356 C357 1.524 . S
C356 H375 0.913 . S
C357 H333 0.950 . S
C357 C356 1.524 . S
C357 C358 1.415 . S
C358 H334 0.950 . S
C358 C353 1.363 . S
C358 C357 1.415 . S
C359 H335 0.951 . S
C359 C360 1.366 . S
C359 C361 1.388 . S
C360 C359 1.366 . S
C360 C364 1.385 . S
C361 H336 0.951 . S
C361 C359 1.388 . S
C361 C362 1.366 . S
C362 C361 1.366 . S
C362 C363 1.414 . S
C362 C365 1.499 . S
C363 H337 0.950 . S
C363 C362 1.414 . S
C363 C364 1.374 . S
C364 H338 0.950 . S
C364 C360 1.385 . S
C364 C363 1.374 . S
C365 C362 1.499 . S
C365 C366 1.373 . S
C365 C367 1.389 . S
C366 H339 0.950 . S
C366 C352 1.377 . S
C366 C365 1.373 . S
C367 C351 1.377 . S
C367 C365 1.389 . S
C367 C368 1.524 . S
C368 C367 1.524 . S
C368 C369 1.397 . S
C368 C373 1.363 . S
C369 H340 0.950 . S
C369 C368 1.397 . S
C369 C370 1.334 . S
C370 H341 0.950 . S
C370 C369 1.334 . S
C370 C371 1.287 . S
C371 C370 1.287 . S
C371 C372 1.524 . S
C371 H374 0.999 . S
C372 H342 0.950 . S
C372 C371 1.524 . S
C372 C373 1.415 . S
C373 H343 0.950 . S
C373 C368 1.363 . S
C373 C372 1.415 . S
H374 C371 0.999 . S
H375 C356 0.913 . S
H376 C394 0.951 . S
H377 C396 0.951 . S
H378 C398 0.950 . S
H379 C399 0.950 . S
H380 C401 0.950 . S
H381 C404 0.950 . S
H382 C405 0.950 . S
H383 C407 0.950 . S
H384 C408 0.950 . S
H385 C409 0.951 . S
H386 C411 0.951 . S
H387 C413 0.950 . S
H388 C414 0.950 . S
H389 C416 0.950 . S
H390 C419 0.950 . S
H391 C420 0.950 . S
H392 C422 0.950 . S
H393 C423 0.950 . S
C394 H376 0.951 . S
C394 C395 1.366 . S
C394 C396 1.388 . S
C395 C394 1.366 . S
C395 C399 1.385 . S
C396 H377 0.951 . S
C396 C394 1.388 . S
C396 C397 1.366 . S
C397 C396 1.366 . S
C397 C398 1.414 . S
C397 C400 1.499 . S
C398 H378 0.950 . S
C398 C397 1.414 . S
C398 C399 1.374 . S
C399 H379 0.950 . S
C399 C395 1.385 . S
C399 C398 1.374 . S
C400 C397 1.499 . S
C400 C401 1.373 . S
C400 C402 1.389 . S
C401 H380 0.950 . S
C401 C400 1.373 . S
C401 C417 1.377 . S
C402 C400 1.389 . S
C402 C403 1.524 . S
C402 C416 1.377 . S
C403 C402 1.524 . S
C403 C404 1.397 . S
C403 C408 1.363 . S
C404 H381 0.950 . S
C404 C403 1.397 . S
C404 C405 1.334 . S
C405 H382 0.950 . S
C405 C404 1.334 . S
C405 C406 1.287 . S
C406 C405 1.287 . S
C406 C407 1.524 . S
C406 H425 0.913 . S
C407 H383 0.950 . S
C407 C406 1.524 . S
C407 C408 1.415 . S
C408 H384 0.950 . S
C408 C403 1.363 . S
C408 C407 1.415 . S
C409 H385 0.951 . S
C409 C410 1.366 . S
C409 C411 1.388 . S
C410 C409 1.366 . S
C410 C414 1.385 . S
C411 H386 0.951 . S
C411 C409 1.388 . S
C411 C412 1.366 . S
C412 C411 1.366 . S
C412 C413 1.414 . S
C412 C415 1.499 . S
C413 H387 0.950 . S
C413 C412 1.414 . S
C413 C414 1.374 . S
C414 H388 0.950 . S
C414 C410 1.385 . S
C414 C413 1.374 . S
C415 C412 1.499 . S
C415 C416 1.373 . S
C415 C417 1.389 . S
C416 H389 0.950 . S
C416 C402 1.377 . S
C416 C415 1.373 . S
C417 C401 1.377 . S
C417 C415 1.389 . S
C417 C418 1.524 . S
C418 C417 1.524 . S
C418 C419 1.397 . S
C418 C423 1.363 . S
C419 H390 0.950 . S
C419 C418 1.397 . S
C419 C420 1.334 . S
C420 H391 0.950 . S
C420 C419 1.334 . S
C420 C421 1.287 . S
C421 C420 1.287 . S
C421 C422 1.524 . S
C421 H424 0.999 . S
C422 H392 0.950 . S
C422 C421 1.524 . S
C422 C423 1.415 . S
C423 H393 0.950 . S
C423 C418 1.363 . S
C423 C422 1.415 . S
H424 C421 0.999 . S
H425 C406 0.913 . S
H426 C444 0.951 . S
H427 C446 0.951 . S
H428 C448 0.950 . S
H429 C449 0.950 . S
H430 C451 0.950 . S
H431 C454 0.950 . S
H432 C455 0.950 . S
H433 C457 0.950 . S
H434 C458 0.950 . S
H435 C459 0.951 . S
H436 C461 0.951 . S
H437 C463 0.950 . S
H438 C464 0.950 . S
H439 C466 0.950 . S
H440 C469 0.950 . S
H441 C470 0.950 . S
H442 C472 0.950 . S
H443 C473 0.950 . S
C444 H426 0.951 . S
C444 C445 1.366 . S
C444 C446 1.388 . S
C445 C444 1.366 . S
C445 C449 1.385 . S
C446 H427 0.951 . S
C446 C444 1.388 . S
C446 C447 1.366 . S
C447 C446 1.366 . S
C447 C448 1.414 . S
C447 C450 1.499 . S
C448 H428 0.950 . S
C448 C447 1.414 . S
C448 C449 1.374 . S
C449 H429 0.950 . S
C449 C445 1.385 . S
C449 C448 1.374 . S
C450 C447 1.499 . S
C450 C451 1.373 . S
C450 C452 1.389 . S
C451 H430 0.950 . S
C451 C450 1.373 . S
C451 C467 1.377 . S
C452 C450 1.389 . S
C452 C453 1.524 . S
C452 C466 1.377 . S
C453 C452 1.524 . S
C453 C454 1.397 . S
C453 C458 1.363 . S
C454 H431 0.950 . S
C454 C453 1.397 . S
C454 C455 1.334 . S
C455 H432 0.950 . S
C455 C454 1.334 . S
C455 C456 1.287 . S
C456 C455 1.287 . S
C456 C457 1.524 . S
C456 H475 0.913 . S
C457 H433 0.950 . S
C457 C456 1.524 . S
C457 C458 1.415 . S
C458 H434 0.950 . S
C458 C453 1.363 . S
C458 C457 1.415 . S
C459 H435 0.951 . S
C459 C460 1.366 . S
C459 C461 1.388 . S
C460 C459 1.366 . S
C460 C464 1.385 . S
C461 H436 0.951 . S
C461 C459 1.388 . S
C461 C462 1.366 . S
C462 C461 1.366 . S
C462 C463 1.414 . S
C462 C465 1.499 . S
C463 H437 0.950 . S
C463 C462 1.414 . S
C463 C464 1.374 . S
C464 H438 0.950 . S
C464 C460 1.385 . S
C464 C463 1.374 . S
C465 C462 1.499 . S
C465 C466 1.373 . S
C465 C467 1.389 . S
C466 H439 0.950 . S
C466 C452 1.377 . S
C466 C465 1.373 . S
C467 C451 1.377 . S
C467 C465 1.389 . S
C467 C468 1.524 . S
C468 C467 1.524 . S
C468 C469 1.397 . S
C468 C473 1.363 . S
C469 H440 0.950 . S
C469 C468 1.397 . S
C469 C470 1.334 . S
C470 H441 0.950 . S
C470 C469 1.334 . S
C470 C471 1.287 . S
C471 C470 1.287 . S
C471 C472 1.524 . S
C471 H474 0.999 . S
C472 H442 0.950 . S
C472 C471 1.524 . S
C472 C473 1.415 . S
C473 H443 0.950 . S
C473 C468 1.363 . S
C473 C472 1.415 . S
H474 C471 0.999 . S
H475 C456 0.913 . S
H476 C494 0.951 . S
H477 C496 0.951 . S
H478 C498 0.950 . S
H479 C499 0.950 . S
H480 C501 0.950 . S
H481 C504 0.950 . S
H482 C505 0.950 . S
H483 C507 0.950 . S
H484 C508 0.950 . S
H485 C509 0.951 . S
H486 C511 0.951 . S
H487 C513 0.950 . S
H488 C514 0.950 . S
H489 C516 0.950 . S
H490 C519 0.950 . S
H491 C520 0.950 . S
H492 C522 0.950 . S
H493 C523 0.950 . S
C494 H476 0.951 . S
C494 C495 1.366 . S
C494 C496 1.388 . S
C495 C494 1.366 . S
C495 C499 1.385 . S
C496 H477 0.951 . S
C496 C494 1.388 . S
C496 C497 1.366 . S
C497 C496 1.366 . S
C497 C498 1.414 . S
C497 C500 1.499 . S
C498 H478 0.950 . S
C498 C497 1.414 . S
C498 C499 1.374 . S
C499 H479 0.950 . S
C499 C495 1.385 . S
C499 C498 1.374 . S
C500 C497 1.499 . S
C500 C501 1.373 . S
C500 C502 1.389 . S
C501 H480 0.950 . S
C501 C500 1.373 . S
C501 C517 1.377 . S
C502 C500 1.389 . S
C502 C503 1.524 . S
C502 C516 1.377 . S
C503 C502 1.524 . S
C503 C504 1.397 . S
C503 C508 1.363 . S
C504 H481 0.950 . S
C504 C503 1.397 . S
C504 C505 1.334 . S
C505 H482 0.950 . S
C505 C504 1.334 . S
C505 C506 1.287 . S
C506 C505 1.287 . S
C506 C507 1.524 . S
C506 H525 0.913 . S
C507 H483 0.950 . S
C507 C506 1.524 . S
C507 C508 1.415 . S
C508 H484 0.950 . S
C508 C503 1.363 . S
C508 C507 1.415 . S
C509 H485 0.951 . S
C509 C510 1.366 . S
C509 C511 1.388 . S
C510 C509 1.366 . S
C510 C514 1.385 . S
C511 H486 0.951 . S
C511 C509 1.388 . S
C511 C512 1.366 . S
C512 C511 1.366 . S
C512 C513 1.414 . S
C512 C515 1.499 . S
C513 H487 0.950 . S
C513 C512 1.414 . S
C513 C514 1.374 . S
C514 H488 0.950 . S
C514 C510 1.385 . S
C514 C513 1.374 . S
C515 C512 1.499 . S
C515 C516 1.373 . S
C515 C517 1.389 . S
C516 H489 0.950 . S
C516 C502 1.377 . S
C516 C515 1.373 . S
C517 C501 1.377 . S
C517 C515 1.389 . S
C517 C518 1.524 . S
C518 C517 1.524 . S
C518 C519 1.397 . S
C518 C523 1.363 . S
C519 H490 0.950 . S
C519 C518 1.397 . S
C519 C520 1.334 . S
C520 H491 0.950 . S
C520 C519 1.334 . S
C520 C521 1.287 . S
C521 C520 1.287 . S
C521 C522 1.524 . S
C521 H524 0.999 . S
C522 H492 0.950 . S
C522 C521 1.524 . S
C522 C523 1.415 . S
C523 H493 0.950 . S
C523 C518 1.363 . S
C523 C522 1.415 . S
H524 C521 0.999 . S
H525 C506 0.913 . S
H526 C544 0.951 . S
H527 C546 0.951 . S
H528 C548 0.950 . S
H529 C549 0.950 . S
H530 C551 0.950 . S
H531 C554 0.950 . S
H532 C555 0.950 . S
H533 C557 0.950 . S
H534 C558 0.950 . S
H535 C559 0.951 . S
H536 C561 0.951 . S
H537 C563 0.950 . S
H538 C564 0.950 . S
H539 C566 0.950 . S
H540 C569 0.950 . S
H541 C570 0.950 . S
H542 C572 0.950 . S
H543 C573 0.950 . S
C544 H526 0.951 . S
C544 C545 1.366 . S
C544 C546 1.388 . S
C545 C544 1.366 . S
C545 C549 1.385 . S
C546 H527 0.951 . S
C546 C544 1.388 . S
C546 C547 1.366 . S
C547 C546 1.366 . S
C547 C548 1.414 . S
C547 C550 1.499 . S
C548 H528 0.950 . S
C548 C547 1.414 . S
C548 C549 1.374 . S
C549 H529 0.950 . S
C549 C545 1.385 . S
C549 C548 1.374 . S
C550 C547 1.499 . S
C550 C551 1.373 . S
C550 C552 1.389 . S
C551 H530 0.950 . S
C551 C550 1.373 . S
C551 C567 1.377 . S
C552 C550 1.389 . S
C552 C553 1.524 . S
C552 C566 1.377 . S
C553 C552 1.524 . S
C553 C554 1.397 . S
C553 C558 1.363 . S
C554 H531 0.950 . S
C554 C553 1.397 . S
C554 C555 1.334 . S
C555 H532 0.950 . S
C555 C554 1.334 . S
C555 C556 1.287 . S
C556 C555 1.287 . S
C556 C557 1.524 . S
C556 H575 0.913 . S
C557 H533 0.950 . S
C557 C556 1.524 . S
C557 C558 1.415 . S
C558 H534 0.950 . S
C558 C553 1.363 . S
C558 C557 1.415 . S
C559 H535 0.951 . S
C559 C560 1.366 . S
C559 C561 1.388 . S
C560 C559 1.366 . S
C560 C564 1.385 . S
C561 H536 0.951 . S
C561 C559 1.388 . S
C561 C562 1.366 . S
C562 C561 1.366 . S
C562 C563 1.414 . S
C562 C565 1.499 . S
C563 H537 0.950 . S
C563 C562 1.414 . S
C563 C564 1.374 . S
C564 H538 0.950 . S
C564 C560 1.385 . S
C564 C563 1.374 . S
C565 C562 1.499 . S
C565 C566 1.373 . S
C565 C567 1.389 . S
C566 H539 0.950 . S
C566 C552 1.377 . S
C566 C565 1.373 . S
C567 C551 1.377 . S
C567 C565 1.389 . S
C567 C568 1.524 . S
C568 C567 1.524 . S
C568 C569 1.397 . S
C568 C573 1.363 . S
C569 H540 0.950 . S
C569 C568 1.397 . S
C569 C570 1.334 . S
C570 H541 0.950 . S
C570 C569 1.334 . S
C570 C571 1.287 . S
C571 C570 1.287 . S
C571 C572 1.524 . S
C571 H574 0.999 . S
C572 H542 0.950 . S
C572 C571 1.524 . S
C572 C573 1.415 . S
C573 H543 0.950 . S
C573 C568 1.363 . S
C573 C572 1.415 . S
H574 C571 0.999 . S
H575 C556 0.913 . S
H576 C594 0.951 . S
H577 C596 0.951 . S
H578 C598 0.950 . S
H579 C599 0.950 . S
H580 C601 0.950 . S
H581 C604 0.950 . S
H582 C605 0.950 . S
H583 C607 0.950 . S
H584 C608 0.950 . S
H585 C609 0.951 . S
H586 C611 0.951 . S
H587 C613 0.950 . S
H588 C614 0.950 . S
H589 C616 0.950 . S
H590 C619 0.950 . S
H591 C620 0.950 . S
H592 C622 0.950 . S
H593 C623 0.950 . S
C594 H576 0.951 . S
C594 C595 1.366 . S
C594 C596 1.388 . S
C595 C594 1.366 . S
C595 C599 1.385 . S
C596 H577 0.951 . S
C596 C594 1.388 . S
C596 C597 1.366 . S
C597 C596 1.366 . S
C597 C598 1.414 . S
C597 C600 1.499 . S
C598 H578 0.950 . S
C598 C597 1.414 . S
C598 C599 1.374 . S
C599 H579 0.950 . S
C599 C595 1.385 . S
C599 C598 1.374 . S
C600 C597 1.499 . S
C600 C601 1.373 . S
C600 C602 1.389 . S
C601 H580 0.950 . S
C601 C600 1.373 . S
C601 C617 1.377 . S
C602 C600 1.389 . S
C602 C603 1.524 . S
C602 C616 1.377 . S
C603 C602 1.524 . S
C603 C604 1.397 . S
C603 C608 1.363 . S
C604 H581 0.950 . S
C604 C603 1.397 . S
C604 C605 1.334 . S
C605 H582 0.950 . S
C605 C604 1.334 . S
C605 C606 1.287 . S
C606 C605 1.287 . S
C606 C607 1.524 . S
C606 H625 0.913 . S
C607 H583 0.950 . S
C607 C606 1.524 . S
C607 C608 1.415 . S
C608 H584 0.950 . S
C608 C603 1.363 . S
C608 C607 1.415 . S
C609 H585 0.951 . S
C609 C610 1.366 . S
C609 C611 1.388 . S
C610 C609 1.366 . S
C610 C614 1.385 . S
C611 H586 0.951 . S
C611 C609 1.388 . S
C611 C612 1.366 . S
C612 C611 1.366 . S
C612 C613 1.414 . S
C612 C615 1.499 . S
C613 H587 0.950 . S
C613 C612 1.414 . S
C613 C614 1.374 . S
C614 H588 0.950 . S
C614 C610 1.385 . S
C614 C613 1.374 . S
C615 C612 1.499 . S
C615 C616 1.373 . S
C615 C617 1.389 . S
C616 H589 0.950 . S
C616 C602 1.377 . S
C616 C615 1.373 . S
C617 C601 1.377 . S
C617 C615 1.389 . S
C617 C618 1.524 . S
C618 C617 1.524 . S
C618 C619 1.397 . S
C618 C623 1.363 . S
C619 H590 0.950 . S
C619 C618 1.397 . S
C619 C620 1.334 . S
C620 H591 0.950 . S
C620 C619 1.334 . S
C620 C621 1.287 . S
C621 C620 1.287 . S
C621 C622 1.524 . S
C621 H624 0.999 . S
C622 H592 0.950 . S
C622 C621 1.524 . S
C622 C623 1.415 . S
C623 H593 0.950 . S
C623 C618 1.363 . S
C623 C622 1.415 . S
H624 C621 0.999 . S
H625 C606 0.913 . S
H626 C644 0.951 . S
H627 C646 0.951 . S
H628 C648 0.950 . S
H629 C649 0.950 . S
H630 C651 0.950 . S
H631 C654 0.950 . S
H632 C655 0.950 . S
H633 C657 0.950 . S
H634 C658 0.950 . S
H635 C659 0.951 . S
H636 C661 0.951 . S
H637 C663 0.950 . S
H638 C664 0.950 . S
H639 C666 0.950 . S
H640 C669 0.950 . S
H641 C670 0.950 . S
H642 C672 0.950 . S
H643 C673 0.950 . S
C644 H626 0.951 . S
C644 C645 1.366 . S
C644 C646 1.388 . S
C645 C644 1.366 . S
C645 C649 1.385 . S
C646 H627 0.951 . S
C646 C644 1.388 . S
C646 C647 1.366 . S
C647 C646 1.366 . S
C647 C648 1.414 . S
C647 C650 1.499 . S
C648 H628 0.950 . S
C648 C647 1.414 . S
C648 C649 1.374 . S
C649 H629 0.950 . S
C649 C645 1.385 . S
C649 C648 1.374 . S
C650 C647 1.499 . S
C650 C651 1.373 . S
C650 C652 1.389 . S
C651 H630 0.950 . S
C651 C650 1.373 . S
C651 C667 1.377 . S
C652 C650 1.389 . S
C652 C653 1.524 . S
C652 C666 1.377 . S
C653 C652 1.524 . S
C653 C654 1.397 . S
C653 C658 1.363 . S
C654 H631 0.950 . S
C654 C653 1.397 . S
C654 C655 1.334 . S
C655 H632 0.950 . S
C655 C654 1.334 . S
C655 C656 1.287 . S
C656 C655 1.287 . S
C656 C657 1.524 . S
C656 H675 0.913 . S
C657 H633 0.950 . S
C657 C656 1.524 . S
C657 C658 1.415 . S
C658 H634 0.950 . S
C658 C653 1.363 . S
C658 C657 1.415 . S
C659 H635 0.951 . S
C659 C660 1.366 . S
C659 C661 1.388 . S
C660 C659 1.366 . S
C660 C664 1.385 . S
C661 H636 0.951 . S
C661 C659 1.388 . S
C661 C662 1.366 . S
C662 C661 1.366 . S
C662 C663 1.414 . S
C662 C665 1.499 . S
C663 H637 0.950 . S
C663 C662 1.414 . S
C663 C664 1.374 . S
C664 H638 0.950 . S
C664 C660 1.385 . S
C664 C663 1.374 . S
C665 C662 1.499 . S
C665 C666 1.373 . S
C665 C667 1.389 . S
C666 H639 0.950 . S
C666 C652 1.377 . S
C666 C665 1.373 . S
C667 C651 1.377 . S
C667 C665 1.389 . S
C667 C668 1.524 . S
C668 C667 1.524 . S
C668 C669 1.397 . S
C668 C673 1.363 . S
C669 H640 0.950 . S
C669 C668 1.397 . S
C669 C670 1.334 . S
C670 H641 0.950 . S
C670 C669 1.334 . S
C670 C671 1.287 . S
C671 C670 1.287 . S
C671 C672 1.524 . S
C671 H674 0.999 . S
C672 H642 0.950 . S
C672 C671 1.524 . S
C672 C673 1.415 . S
C673 H643 0.950 . S
C673 C668 1.363 . S
C673 C672 1.415 . S
H674 C671 0.999 . S
H675 C656 0.913 . S
H676 C694 0.951 . S
H677 C696 0.951 . S
H678 C698 0.950 . S
H679 C699 0.950 . S
H680 C701 0.950 . S
H681 C704 0.950 . S
H682 C705 0.950 . S
H683 C707 0.950 . S
H684 C708 0.950 . S
H685 C709 0.951 . S
H686 C711 0.951 . S
H687 C713 0.950 . S
H688 C714 0.950 . S
H689 C716 0.950 . S
H690 C719 0.950 . S
H691 C720 0.950 . S
H692 C722 0.950 . S
H693 C723 0.950 . S
C694 H676 0.951 . S
C694 C695 1.366 . S
C694 C696 1.388 . S
C695 C694 1.366 . S
C695 C699 1.385 . S
C696 H677 0.951 . S
C696 C694 1.388 . S
C696 C697 1.366 . S
C697 C696 1.366 . S
C697 C698 1.414 . S
C697 C700 1.499 . S
C698 H678 0.950 . S
C698 C697 1.414 . S
C698 C699 1.374 . S
C699 H679 0.950 . S
C699 C695 1.385 . S
C699 C698 1.374 . S
C700 C697 1.499 . S
C700 C701 1.373 . S
C700 C702 1.389 . S
C701 H680 0.950 . S
C701 C700 1.373 . S
C701 C717 1.377 . S
C702 C700 1.389 . S
C702 C703 1.524 . S
C702 C716 1.377 . S
C703 C702 1.524 . S
C703 C704 1.397 . S
C703 C708 1.363 . S
C704 H681 0.950 . S
C704 C703 1.397 . S
C704 C705 1.334 . S
C705 H682 0.950 . S
C705 C704 1.334 . S
C705 C706 1.287 . S
C706 C705 1.287 . S
C706 C707 1.524 . S
C706 H725 0.913 . S
C707 H683 0.950 . S
C707 C706 1.524 . S
C707 C708 1.415 . S
C708 H684 0.950 . S
C708 C703 1.363 . S
C708 C707 1.415 . S
C709 H685 0.951 . S
C709 C710 1.366 . S
C709 C711 1.388 . S
C710 C709 1.366 . S
C710 C714 1.385 . S
C711 H686 0.951 . S
C711 C709 1.388 . S
C711 C712 1.366 . S
C712 C711 1.366 . S
C712 C713 1.414 . S
C712 C715 1.499 . S
C713 H687 0.950 . S
C713 C712 1.414 . S
C713 C714 1.374 . S
C714 H688 0.950 . S
C714 C710 1.385 . S
C714 C713 1.374 . S
C715 C712 1.499 . S
C715 C716 1.373 . S
C715 C717 1.389 . S
C716 H689 0.950 . S
C716 C702 1.377 . S
C716 C715 1.373 . S
C717 C701 1.377 . S
C717 C715 1.389 . S
C717 C718 1.524 . S
C718 C717 1.524 . S
C718 C719 1.397 . S
C718 C723 1.363 . S
C719 H690 0.950 . S
C719 C718 1.397 . S
C719 C720 1.334 . S
C720 H691 0.950 . S
C720 C719 1.334 . S
C720 C721 1.287 . S
C721 C720 1.287 . S
C721 C722 1.524 . S
C721 H724 0.999 . S
C722 H692 0.950 . S
C722 C721 1.524 . S
C722 C723 1.415 . S
C723 H693 0.950 . S
C723 C718 1.363 . S
C723 C722 1.415 . S
H724 C721 0.999 . S
H725 C706 0.913 . S
H726 C744 0.951 . S
H727 C746 0.951 . S
H728 C748 0.950 . S
H729 C749 0.950 . S
H730 C751 0.950 . S
H731 C754 0.950 . S
H732 C755 0.950 . S
H733 C757 0.950 . S
H734 C758 0.950 . S
H735 C759 0.951 . S
H736 C761 0.951 . S
H737 C763 0.950 . S
H738 C764 0.950 . S
H739 C766 0.937 1_656 S
H740 C769 0.950 . S
H741 C770 0.950 . S
H742 C772 0.950 . S
H743 C773 0.977 . S
C744 H726 0.951 . S
C744 C745 1.366 . S
C744 C746 1.388 . S
C745 C744 1.366 . S
C745 C749 1.385 . S
C746 H727 0.951 . S
C746 C744 1.388 . S
C746 C747 1.366 . S
C747 C746 1.366 . S
C747 C748 1.414 . S
C747 C750 1.499 . S
C748 H728 0.950 . S
C748 C747 1.414 . S
C748 C749 1.374 . S
C749 H729 0.950 . S
C749 C745 1.385 . S
C749 C748 1.374 . S
C750 C747 1.499 . S
C750 C751 1.373 . S
C750 C752 1.389 . S
C751 H730 0.950 . S
C751 C750 1.373 . S
C751 C767 1.377 . S
C752 C750 1.389 . S
C752 C753 1.524 1_455 S
C752 C766 1.377 . S
C753 C752 1.524 1_655 S
C753 C754 1.397 . S
C753 C758 1.363 . S
C754 H731 0.950 . S
C754 C753 1.397 . S
C754 C755 1.334 . S
C755 H732 0.950 . S
C755 C754 1.334 . S
C755 C756 1.287 . S
C756 C755 1.287 . S
C756 C757 1.524 . S
C756 H775 0.913 . S
C757 H733 0.950 . S
C757 C756 1.524 . S
C757 C758 1.415 . S
C758 H734 0.950 . S
C758 C753 1.363 . S
C758 C757 1.415 . S
C759 H735 0.951 . S
C759 C760 1.366 . S
C759 C761 1.388 . S
C760 C759 1.366 . S
C760 C764 1.385 . S
C761 H736 0.951 . S
C761 C759 1.388 . S
C761 C762 1.366 . S
C762 C761 1.366 . S
C762 C763 1.414 . S
C762 C765 1.499 . S
C763 H737 0.950 . S
C763 C762 1.414 . S
C763 C764 1.374 . S
C764 H738 0.950 . S
C764 C760 1.385 . S
C764 C763 1.374 . S
C765 C762 1.499 . S
C765 C766 1.373 1_556 S
C765 C767 1.389 1_556 S
C766 H739 0.937 1_454 S
C766 C752 1.377 . S
C766 C765 1.373 1_554 S
C767 C751 1.377 . S
C767 C765 1.389 1_554 S
C767 C768 1.524 1_554 S
C768 C767 1.524 1_556 S
C768 C769 1.397 . S
C768 C773 1.356 1_556 S
C769 H740 0.950 . S
C769 C768 1.397 . S
C769 C770 1.334 . S
C770 H741 0.950 . S
C770 C769 1.334 . S
C770 C771 1.287 . S
C771 C770 1.287 . S
C771 C772 1.524 . S
C771 H774 0.999 . S
C772 H742 0.950 . S
C772 C771 1.524 . S
C772 C773 1.398 1_556 S
C773 H743 0.977 . S
C773 C768 1.356 1_554 S
C773 C772 1.398 1_554 S
H774 C771 0.999 . S
H775 C756 0.913 . S
H776 C794 0.951 . S
H777 C796 0.951 . S
H778 C798 0.950 . S
H779 C799 0.950 . S
H780 C801 0.950 . S
H781 C804 0.950 . S
H782 C805 0.950 . S
H783 C807 0.950 . S
H784 C808 0.950 . S
H785 C809 0.951 . S
H786 C811 0.951 . S
H787 C813 0.950 . S
H788 C814 0.950 . S
H789 C816 0.943 . S
H790 C819 0.950 . S
H791 C820 0.950 . S
H792 C822 0.944 1_565 S
H793 C823 0.950 1_565 S
C794 H776 0.951 . S
C794 C795 1.366 . S
C794 C796 1.388 . S
C795 C794 1.366 . S
C795 C799 1.385 1_545 S
C796 H777 0.951 . S
C796 C794 1.388 . S
C796 C797 1.366 . S
C797 C796 1.366 . S
C797 C798 1.414 1_545 S
C797 C800 1.499 . S
C798 H778 0.950 . S
C798 C797 1.414 1_565 S
C798 C799 1.374 . S
C799 H779 0.950 . S
C799 C795 1.385 1_565 S
C799 C798 1.374 . S
C800 C797 1.499 . S
C800 C801 1.373 . S
C800 C802 1.389 . S
C801 H780 0.950 . S
C801 C800 1.373 . S
C801 C817 1.377 . S
C802 C800 1.389 . S
C802 C803 1.524 1_545 S
C802 C816 1.377 . S
C803 C802 1.524 1_565 S
C803 C804 1.397 . S
C803 C808 1.363 1_565 S
C804 H781 0.950 . S
C804 C803 1.397 . S
C804 C805 1.334 . S
C805 H782 0.950 . S
C805 C804 1.334 . S
C805 C806 1.287 . S
C806 C805 1.287 . S
C806 C807 1.524 1_565 S
C806 H825 0.913 . S
C807 H783 0.950 . S
C807 C806 1.524 1_545 S
C807 C808 1.415 . S
C808 H784 0.950 . S
C808 C803 1.363 1_545 S
C808 C807 1.415 . S
C809 H785 0.951 . S
C809 C810 1.368 1_565 S
C809 C811 1.388 . S
C810 C809 1.368 1_545 S
C810 C814 1.382 . S
C811 H786 0.951 . S
C811 C809 1.388 . S
C811 C812 1.366 1_565 S
C812 C811 1.366 1_545 S
C812 C813 1.414 . S
C812 C815 1.499 . S
C813 H787 0.950 . S
C813 C812 1.414 . S
C813 C814 1.374 . S
C814 H788 0.950 . S
C814 C810 1.382 . S
C814 C813 1.374 . S
C815 C812 1.499 . S
C815 C816 1.373 . S
C815 C817 1.389 . S
C816 H789 0.943 . S
C816 C802 1.377 . S
C816 C815 1.373 . S
C817 C801 1.377 . S
C817 C815 1.389 . S
C817 C818 1.524 . S
C818 C817 1.524 . S
C818 C819 1.397 . S
C818 C823 1.363 . S
C819 H790 0.950 . S
C819 C818 1.397 . S
C819 C820 1.334 . S
C820 H791 0.950 . S
C820 C819 1.334 . S
C820 C821 1.287 . S
C821 C820 1.287 . S
C821 C822 1.524 . S
C821 H824 0.999 . S
C822 H792 0.944 1_545 S
C822 C821 1.524 . S
C822 C823 1.415 . S
C823 H793 0.950 1_545 S
C823 C818 1.363 . S
C823 C822 1.415 . S
H824 C821 0.999 . S
H825 C806 0.913 . S
H826 C844 0.951 . S
H827 C846 0.951 . S
H828 C848 0.950 . S
H829 C849 0.950 . S
H830 C851 0.950 . S
H831 C854 0.950 . S
H832 C855 0.950 . S
H833 C857 0.950 . S
H834 C858 0.950 . S
H835 C859 0.951 . S
H836 C861 0.951 . S
H837 C863 0.950 . S
H838 C864 0.950 . S
H839 C866 0.950 . S
H840 C869 0.950 . S
H841 C870 0.950 . S
H842 C872 0.950 . S
H843 C873 0.950 . S
C844 H826 0.951 . S
C844 C845 1.366 . S
C844 C846 1.388 . S
C845 C844 1.366 . S
C845 C849 1.385 . S
C846 H827 0.951 . S
C846 C844 1.388 . S
C846 C847 1.366 . S
C847 C846 1.366 . S
C847 C848 1.414 . S
C847 C850 1.499 . S
C848 H828 0.950 . S
C848 C847 1.414 . S
C848 C849 1.374 . S
C849 H829 0.950 . S
C849 C845 1.385 . S
C849 C848 1.374 . S
C850 C847 1.499 . S
C850 C851 1.373 . S
C850 C852 1.389 . S
C851 H830 0.950 . S
C851 C850 1.373 . S
C851 C867 1.377 . S
C852 C850 1.389 . S
C852 C853 1.524 . S
C852 C866 1.377 . S
C853 C852 1.524 . S
C853 C854 1.397 . S
C853 C858 1.363 . S
C854 H831 0.950 . S
C854 C853 1.397 . S
C854 C855 1.334 . S
C855 H832 0.950 . S
C855 C854 1.334 . S
C855 C856 1.287 . S
C856 C855 1.287 . S
C856 C857 1.524 . S
C856 H875 0.913 . S
C857 H833 0.950 . S
C857 C856 1.524 . S
C857 C858 1.415 . S
C858 H834 0.950 . S
C858 C853 1.363 . S
C858 C857 1.415 . S
C859 H835 0.951 . S
C859 C860 1.366 . S
C859 C861 1.388 . S
C860 C859 1.366 . S
C860 C864 1.385 . S
C861 H836 0.951 . S
C861 C859 1.388 . S
C861 C862 1.366 . S
C862 C861 1.366 . S
C862 C863 1.414 . S
C862 C865 1.499 . S
C863 H837 0.950 . S
C863 C862 1.414 . S
C863 C864 1.374 . S
C864 H838 0.950 . S
C864 C860 1.385 . S
C864 C863 1.374 . S
C865 C862 1.499 . S
C865 C866 1.373 . S
C865 C867 1.389 . S
C866 H839 0.950 . S
C866 C852 1.377 . S
C866 C865 1.373 . S
C867 C851 1.377 . S
C867 C865 1.389 . S
C867 C868 1.524 . S
C868 C867 1.524 . S
C868 C869 1.397 . S
C868 C873 1.363 . S
C869 H840 0.950 . S
C869 C868 1.397 . S
C869 C870 1.334 . S
C870 H841 0.950 . S
C870 C869 1.334 . S
C870 C871 1.287 . S
C871 C870 1.287 . S
C871 C872 1.524 . S
C871 H874 0.999 . S
C872 H842 0.950 . S
C872 C871 1.524 . S
C872 C873 1.415 . S
C873 H843 0.950 . S
C873 C868 1.363 . S
C873 C872 1.415 . S
H874 C871 0.999 . S
H875 C856 0.913 . S
H876 C894 0.951 . S
H877 C896 0.951 . S
H878 C898 0.950 . S
H879 C899 0.950 . S
H880 C901 0.950 1_565 S
H881 C904 0.950 . S
H882 C905 0.950 . S
H883 C907 0.950 . S
H884 C908 0.950 . S
H885 C909 0.951 . S
H886 C911 0.951 . S
H887 C913 0.950 . S
H888 C914 0.950 . S
H889 C916 0.950 . S
H890 C919 0.950 . S
H891 C920 0.950 . S
H892 C922 0.950 . S
H893 C923 0.950 . S
C894 H876 0.951 . S
C894 C895 1.366 . S
C894 C896 1.388 . S
C895 C894 1.366 . S
C895 C899 1.385 . S
C896 H877 0.951 . S
C896 C894 1.388 . S
C896 C897 1.366 . S
C897 C896 1.366 . S
C897 C898 1.414 . S
C897 C900 1.499 . S
C898 H878 0.950 . S
C898 C897 1.414 . S
C898 C899 1.374 . S
C899 H879 0.950 . S
C899 C895 1.385 . S
C899 C898 1.374 . S
C900 C897 1.499 . S
C900 C901 1.373 . S
C900 C902 1.389 . S
C901 H880 0.950 1_545 S
C901 C900 1.373 . S
C901 C917 1.377 . S
C902 C900 1.389 . S
C902 C903 1.524 . S
C902 C916 1.377 . S
C903 C902 1.524 . S
C903 C904 1.397 . S
C903 C908 1.363 . S
C904 H881 0.950 . S
C904 C903 1.397 . S
C904 C905 1.334 . S
C905 H882 0.950 . S
C905 C904 1.334 . S
C905 C906 1.287 . S
C906 C905 1.287 . S
C906 C907 1.524 . S
C906 H925 0.913 . S
C907 H883 0.950 . S
C907 C906 1.524 . S
C907 C908 1.415 . S
C908 H884 0.950 . S
C908 C903 1.363 . S
C908 C907 1.415 . S
C909 H885 0.951 . S
C909 C910 1.366 . S
C909 C911 1.388 . S
C910 C909 1.366 . S
C910 C914 1.385 . S
C911 H886 0.951 . S
C911 C909 1.388 . S
C911 C912 1.366 . S
C912 C911 1.366 . S
C912 C913 1.414 . S
C912 C915 1.499 . S
C913 H887 0.950 . S
C913 C912 1.414 . S
C913 C914 1.374 . S
C914 H888 0.950 . S
C914 C910 1.385 . S
C914 C913 1.374 . S
C915 C912 1.499 . S
C915 C916 1.373 . S
C915 C917 1.389 . S
C916 H889 0.950 . S
C916 C902 1.377 . S
C916 C915 1.373 . S
C917 C901 1.377 . S
C917 C915 1.389 . S
C917 C918 1.524 1_545 S
C918 C917 1.524 1_565 S
C918 C919 1.397 . S
C918 C923 1.363 . S
C919 H890 0.950 . S
C919 C918 1.397 . S
C919 C920 1.334 . S
C920 H891 0.950 . S
C920 C919 1.334 . S
C920 C921 1.287 . S
C921 C920 1.287 . S
C921 C922 1.524 . S
C921 H924 0.999 . S
C922 H892 0.950 . S
C922 C921 1.524 . S
C922 C923 1.415 . S
C923 H893 0.950 . S
C923 C918 1.363 . S
C923 C922 1.415 . S
H924 C921 0.999 . S
H925 C906 0.913 . S
H926 C944 0.951 . S
H927 C946 0.951 . S
H928 C948 0.950 . S
H929 C949 0.950 . S
H930 C951 0.950 . S
H931 C954 0.950 . S
H932 C955 0.950 . S
H933 C957 0.950 . S
H934 C958 0.950 . S
H935 C959 0.951 . S
H936 C961 0.951 . S
H937 C963 0.950 . S
H938 C964 0.950 . S
H939 C966 0.950 1_554 S
H940 C969 0.950 . S
H941 C970 0.950 . S
H942 C972 0.963 . S
H943 C973 0.950 . S
C944 H926 0.951 . S
C944 C945 1.366 . S
C944 C946 1.388 . S
C945 C944 1.366 . S
C945 C949 1.385 . S
C946 H927 0.951 . S
C946 C944 1.388 . S
C946 C947 1.366 . S
C947 C946 1.366 . S
C947 C948 1.414 . S
C947 C950 1.499 . S
C948 H928 0.950 . S
C948 C947 1.414 . S
C948 C949 1.374 . S
C949 H929 0.950 . S
C949 C945 1.385 . S
C949 C948 1.374 . S
C950 C947 1.499 . S
C950 C951 1.373 . S
C950 C952 1.389 . S
C951 H930 0.950 . S
C951 C950 1.373 . S
C951 C967 1.377 . S
C952 C950 1.389 . S
C952 C953 1.524 . S
C952 C966 1.377 . S
C953 C952 1.524 . S
C953 C954 1.397 . S
C953 C958 1.363 . S
C954 H931 0.950 . S
C954 C953 1.397 . S
C954 C955 1.334 . S
C955 H932 0.950 . S
C955 C954 1.334 . S
C955 C956 1.287 . S
C956 C955 1.287 . S
C956 C957 1.524 . S
C956 H975 0.913 . S
C957 H933 0.950 . S
C957 C956 1.524 . S
C957 C958 1.415 . S
C958 H934 0.950 . S
C958 C953 1.363 . S
C958 C957 1.415 . S
C959 H935 0.951 . S
C959 C960 1.366 . S
C959 C961 1.388 . S
C960 C959 1.366 . S
C960 C964 1.385 . S
C961 H936 0.951 . S
C961 C959 1.388 . S
C961 C962 1.366 . S
C962 C961 1.366 . S
C962 C963 1.414 . S
C962 C965 1.499 . S
C963 H937 0.950 . S
C963 C962 1.414 . S
C963 C964 1.374 . S
C964 H938 0.950 . S
C964 C960 1.385 . S
C964 C963 1.374 . S
C965 C962 1.499 . S
C965 C966 1.373 1_554 S
C965 C967 1.389 1_554 S
C966 H939 0.950 1_556 S
C966 C952 1.377 . S
C966 C965 1.373 1_556 S
C967 C951 1.377 . S
C967 C965 1.389 1_556 S
C967 C968 1.533 . S
C968 C967 1.533 . S
C968 C969 1.381 1_556 S
C968 C973 1.372 . S
C969 H940 0.950 . S
C969 C968 1.381 1_554 S
C969 C970 1.334 . S
C970 H941 0.950 . S
C970 C969 1.334 . S
C970 C971 1.287 . S
C971 C970 1.287 . S
C971 C972 1.496 1_554 S
C971 H974 0.999 . S
C972 H942 0.963 . S
C972 C971 1.496 1_556 S
C972 C973 1.430 . S
C973 H943 0.950 . S
C973 C968 1.372 . S
C973 C972 1.430 . S
H974 C971 0.999 . S
H975 C956 0.913 . S
H976 C994 0.951 . S
H977 C996 0.951 . S
H978 C998 0.950 . S
H979 C999 0.950 . S
H980 C1001 0.950 . S
H981 C1004 0.950 . S
H982 C1005 0.950 . S
H983 C1007 0.950 1_455 S
H984 C1008 0.950 . S
H985 C1009 0.951 . S
H986 C1011 0.951 . S
H987 C1013 0.950 . S
H988 C1014 0.950 . S
H989 C1016 0.950 1_655 S
H990 C1019 0.950 . S
H991 C1020 0.950 . S
H992 C1022 0.950 . S
H993 C1023 0.950 1_655 S
C994 H976 0.951 . S
C994 C995 1.366 . S
C994 C996 1.388 . S
C995 C994 1.366 . S
C995 C999 1.385 1_455 S
C996 H977 0.951 . S
C996 C994 1.388 . S
C996 C997 1.366 . S
C997 C996 1.366 . S
C997 C998 1.414 1_455 S
C997 C1000 1.499 . S
C998 H978 0.950 . S
C998 C997 1.414 1_655 S
C998 C999 1.374 . S
C999 H979 0.950 . S
C999 C995 1.385 1_655 S
C999 C998 1.374 . S
C1000 C997 1.499 . S
C1000 C1001 1.373 . S
C1000 C1002 1.381 . S
C1001 H980 0.950 . S
C1001 C1000 1.373 . S
C1001 C1017 1.377 . S
C1002 C1000 1.381 . S
C1002 C1003 1.532 1_455 S
C1002 C1016 1.376 . S
C1003 C1002 1.532 1_655 S
C1003 C1004 1.397 . S
C1003 C1008 1.363 1_655 S
C1004 H981 0.950 . S
C1004 C1003 1.397 . S
C1004 C1005 1.334 . S
C1005 H982 0.950 . S
C1005 C1004 1.334 . S
C1005 C1006 1.287 . S
C1006 C1005 1.287 . S
C1006 C1007 1.524 . S
C1006 H1025 0.913 . S
C1007 H983 0.950 1_655 S
C1007 C1006 1.524 . S
C1007 C1008 1.415 1_655 S
C1008 H984 0.950 . S
C1008 C1003 1.363 1_455 S
C1008 C1007 1.415 1_455 S
C1009 H985 0.951 . S
C1009 C1010 1.366 . S
C1009 C1011 1.388 . S
C1010 C1009 1.366 . S
C1010 C1014 1.385 1_655 S
C1011 H986 0.951 . S
C1011 C1009 1.388 . S
C1011 C1012 1.366 1_655 S
C1012 C1011 1.366 1_455 S
C1012 C1013 1.414 . S
C1012 C1015 1.499 . S
C1013 H987 0.950 . S
C1013 C1012 1.414 . S
C1013 C1014 1.374 . S
C1014 H988 0.950 . S
C1014 C1010 1.385 1_455 S
C1014 C1013 1.374 . S
C1015 C1012 1.499 . S
C1015 C1016 1.373 . S
C1015 C1017 1.389 . S
C1016 H989 0.950 1_455 S
C1016 C1002 1.376 . S
C1016 C1015 1.373 . S
C1017 C1001 1.377 . S
C1017 C1015 1.389 . S
C1017 C1018 1.524 . S
C1018 C1017 1.524 . S
C1018 C1019 1.397 . S
C1018 C1023 1.363 . S
C1019 H990 0.950 . S
C1019 C1018 1.397 . S
C1019 C1020 1.334 . S
C1020 H991 0.950 . S
C1020 C1019 1.334 . S
C1020 C1021 1.287 . S
C1021 C1020 1.287 . S
C1021 C1022 1.524 . S
C1021 H1024 0.999 . S
C1022 H992 0.950 . S
C1022 C1021 1.524 . S
C1022 C1023 1.415 . S
C1023 H993 0.950 1_455 S
C1023 C1018 1.363 . S
C1023 C1022 1.415 . S
H1024 C1021 0.999 . S
H1025 C1006 0.913 . S
C145 C2 1.230 . S
C160 C120 1.058 . S
C195 C21 1.134 . S
C210 C98 0.999 . S
C245 C42 0.887 . S
C260 C112 0.879 . S
C295 C1 0.796 . S
C310 C123 0.791 . S
C360 C101 0.877 . S
C345 C22 0.884 . S
C410 C109 0.998 . S
C395 C41 1.131 . S
C445 C38 2.018 . S
C460 C76 1.750 . S
C495 C59 2.115 . S
C510 C87 1.818 . S
C545 C18 2.015 . S
C560 C65 1.747 . S
C610 C79 1.705 . S
C595 C39 1.753 . S
C660 C90 1.624 . S
C645 C58 1.663 . S
C695 C19 1.755 . S
C710 C68 1.708 . S
C760 C89 1.506 . S
C745 C9 1.512 . S
C795 C29 1.522 . S
C810 C67 1.513 . S
C845 C49 1.520 . S
C860 C78 1.508 . S
C910 C111 1.400 . S
C895 C28 1.427 . S
C960 C122 1.391 . S
C945 C48 1.428 . S
C995 C8 1.423 . S
C1010 C100 1.396 1_655 S
