# Generated by pormake.
# Topology anh, (6,3)-cn, num edge types: 1
# Building blocks:
#     Node 0, Type 0, BuildingBlock: BETDAH_clean_sbu_0, # of connection points: 6
#     Node 1, Type 0, BuildingBlock: BETDAH_clean_sbu_0, # of connection points: 6
#     Node 2, Type 0, BuildingBlock: BETDAH_clean_sbu_0, # of connection points: 6
#     Node 3, Type 1, BuildingBlock: WUSLED_clean_sbu_0, # of connection points: 3
#     Node 4, Type 1, BuildingBlock: WUSLED_clean_sbu_0, # of connection points: 3
#     Node 5, Type 1, BuildingBlock: WUSLED_clean_sbu_0, # of connection points: 3
#     Node 6, Type 1, BuildingBlock: WUSLED_clean_sbu_0, # of connection points: 3
#     Node 7, Type 1, BuildingBlock: WUSLED_clean_sbu_0, # of connection points: 3
#     Node 8, Type 1, BuildingBlock: WUSLED_clean_sbu_0, # of connection points: 3
#     Edge 9, Type (0, 1), BuildingBlock: AJUNOK_clean_linker_0, # of connection points: 2
#     Edge 10, Type (0, 1), BuildingBlock: AJUNOK_clean_linker_0, # of connection points: 2
#     Edge 11, Type (0, 1), BuildingBlock: AJUNOK_clean_linker_0, # of connection points: 2
#     Edge 12, Type (0, 1), BuildingBlock: AJUNOK_clean_linker_0, # of connection points: 2
#     Edge 13, Type (0, 1), BuildingBlock: AJUNOK_clean_linker_0, # of connection points: 2
#     Edge 14, Type (0, 1), BuildingBlock: AJUNOK_clean_linker_0, # of connection points: 2
#     Edge 15, Type (0, 1), BuildingBlock: AJUNOK_clean_linker_0, # of connection points: 2
#     Edge 16, Type (0, 1), BuildingBlock: AJUNOK_clean_linker_0, # of connection points: 2
#     Edge 17, Type (0, 1), BuildingBlock: AJUNOK_clean_linker_0, # of connection points: 2
#     Edge 18, Type (0, 1), BuildingBlock: AJUNOK_clean_linker_0, # of connection points: 2
#     Edge 19, Type (0, 1), BuildingBlock: AJUNOK_clean_linker_0, # of connection points: 2
#     Edge 20, Type (0, 1), BuildingBlock: AJUNOK_clean_linker_0, # of connection points: 2
#     Edge 21, Type (0, 1), BuildingBlock: AJUNOK_clean_linker_0, # of connection points: 2
#     Edge 22, Type (0, 1), BuildingBlock: AJUNOK_clean_linker_0, # of connection points: 2
#     Edge 23, Type (0, 1), BuildingBlock: AJUNOK_clean_linker_0, # of connection points: 2
#     Edge 24, Type (0, 1), BuildingBlock: AJUNOK_clean_linker_0, # of connection points: 2
#     Edge 25, Type (0, 1), BuildingBlock: AJUNOK_clean_linker_0, # of connection points: 2
#     Edge 26, Type (0, 1), BuildingBlock: AJUNOK_clean_linker_0, # of connection points: 2
# Relax obj value: 0.193
# Max RMSD: 0.216
# Mean RMSD: 0.156
data_MOF--net-anh--node1-BETDAH_clean_sbu_0--node2-WUSLED_clean_sbu_0--edge1-AJUNOK_clean_linker_0
_symmetry_space_group_name_H-M    P1
_symmetry_Int_Tables_number       1
_symmetry_cell_setting            triclinic
loop_
_symmetry_equiv_pos_as_xyz
'x, y, z'
_cell_length_a     31.668425
_cell_length_b     37.755856
_cell_length_c     55.527701
_cell_angle_alpha  92.006164
_cell_angle_beta   89.937987
_cell_angle_gamma 129.12606
loop_
_atom_site_label
_atom_site_type_symbol
_atom_site_fract_x
_atom_site_fract_y
_atom_site_fract_z
_atom_type_partial_charge
Ho0 Ho 0.14209 0.52847 0.1601 0.0
Ho1 Ho 1.07624 0.56348 0.17319 0.0
C2 C 0.20714 0.63862 0.17072 0.0
C3 C 0.20227 0.51152 0.14168 0.0
C4 C 0.25551 0.52604 0.14877 0.0
C5 C 0.28975 0.56348 0.16511 0.0
C6 C 0.3406 0.57684 0.17185 0.0
C7 C 0.35666 0.552 0.16274 0.0
C8 C 0.32119 0.51349 0.14714 0.0
C9 C 0.27098 0.50068 0.14016 0.0
C10 C 0.12228 0.52973 0.20723 0.0
C11 C 1.01456 0.4555 0.16526 0.0
C12 C 1.01762 0.57579 0.19771 0.0
C13 C 0.95819 0.54564 0.19771 0.0
C14 C 0.93113 0.53854 0.21923 0.0
C15 C 0.87498 0.50322 0.22024 0.0
C16 C 0.84565 0.47436 0.19982 0.0
C17 C 0.87288 0.48234 0.1782 0.0
C18 C 0.92867 0.51742 0.1772 0.0
C19 C 1.07293 0.54634 0.12426 0.0
O20 O 0.20959 0.6055 0.16459 0.0
O21 O 0.16057 0.63048 0.17508 0.0
O22 O 0.16403 0.48502 0.15686 0.0
O23 O 0.20126 0.54339 0.13393 0.0
O24 O 0.1273 0.50114 0.19714 0.0
O25 O 0.13345 0.55882 0.19231 0.0
O26 O 1.01652 0.48755 0.17703 0.0
O27 O 1.05559 0.4655 0.15222 0.0
O28 O 1.04074 0.59687 0.17771 0.0
O29 O 1.03719 0.55686 0.20639 0.0
O30 O 1.04895 0.56089 0.13418 0.0
O31 O 0.09497 0.54172 0.14114 0.0
H32 H 0.27729 0.58247 0.17244 0.0
H33 H 0.36759 0.60675 0.18375 0.0
H34 H 0.3333 0.49435 0.13956 0.0
H35 H 0.24449 0.47128 0.12787 0.0
H36 H 0.95365 0.55931 0.23538 0.0
H37 H 0.85461 0.49799 0.23702 0.0
H38 H 0.85097 0.46159 0.16196 0.0
H39 H 0.949 0.52159 0.16056 0.0
Ho40 Ho 0.62691 1.0147 0.48124 0.0
Ho41 Ho 0.5577 0.04205 0.47688 0.0
C42 C 0.4962 0.93679 0.4721 0.0
C43 C 0.66865 0.97725 0.49449 0.0
C44 C 0.65134 0.93154 0.49979 0.0
C45 C 0.63408 0.91392 0.52287 0.0
C46 C 0.62368 0.87317 0.52841 0.0
C47 C 0.63028 0.84913 0.51101 0.0
C48 C 0.64606 0.86612 0.48779 0.0
C49 C 0.65662 0.90685 0.48227 0.0
C50 C 0.61796 0.03325 0.43596 0.0
C51 C 0.69073 0.1207 0.4791 0.0
C52 C 0.51642 0.08215 0.46936 0.0
C53 C 0.52644 0.12382 0.47972 0.0
C54 C 0.55153 0.16274 0.46595 0.0
C55 C 0.56104 0.20215 0.47552 0.0
C56 C 0.54508 0.20331 0.49898 0.0
C57 C 0.52043 0.16456 0.51281 0.0
C58 C 0.51111 0.12528 0.50331 0.0
C59 C 0.57286 0.02727 0.52234 0.0
O60 O 0.54056 0.94798 0.483 0.0
O61 O 0.49587 0.96891 0.46367 0.0
O62 O 0.66477 0.98451 0.47205 0.0
O63 O 0.65507 0.99569 0.50963 0.0
O64 O 0.66202 0.04344 0.44543 0.0
O65 O 0.57923 1.01125 0.45044 0.0
O66 O 0.64283 0.10915 0.47323 0.0
O67 O 0.69473 0.08991 0.48622 0.0
O68 O 0.49485 0.04781 0.48341 0.0
O69 O 0.55498 0.08852 0.45637 0.0
O70 O 0.52708 1.01476 0.51393 0.0
O71 O 0.60862 0.04852 0.50678 0.0
H72 H 0.63013 0.93226 0.5369 0.0
H73 H 0.61255 0.86149 0.54659 0.0
H74 H 0.65119 0.84825 0.47395 0.0
H75 H 0.67029 0.9196 0.4644 0.0
H76 H 0.56374 0.16268 0.44773 0.0
H77 H 0.58017 0.23152 0.46446 0.0
H78 H 0.50875 0.16475 0.53113 0.0
H79 H 0.49196 0.09612 0.51454 0.0
Ho80 Ho 0.6579 0.58978 0.8522 0.0
Ho81 Ho 0.58031 0.48651 0.85226 0.0
C82 C 0.52434 0.53476 0.85686 0.0
C83 C 0.70467 0.67302 0.84085 0.0
C84 C 0.68848 0.70093 0.83419 0.0
C85 C 0.66463 0.69512 0.81146 0.0
C86 C 0.65329 0.72394 0.80488 0.0
C87 C 0.66561 0.75933 0.8208 0.0
C88 C 0.6881 0.76435 0.84372 0.0
C89 C 0.69967 0.7357 0.85027 0.0
C90 C 0.63894 0.55407 0.89564 0.0
C91 C 0.71563 0.5432 0.85541 0.0
C92 C 0.53419 0.40146 0.8586 0.0
C93 C 0.54242 0.36884 0.84904 0.0
C94 C 0.56694 0.3562 0.86362 0.0
C95 C 0.57433 0.32518 0.85477 0.0
C96 C 0.55709 0.30588 0.83117 0.0
C97 C 0.53242 0.3184 0.81666 0.0
C98 C 0.52523 0.34946 0.82543 0.0
C99 C 0.5997 0.52081 0.80806 0.0
O100 O 0.57304 0.57188 0.85016 0.0
O101 O 0.51835 0.49747 0.86183 0.0
O102 O 0.69714 0.66028 0.86311 0.0
O103 O 0.69297 0.64088 0.82531 0.0
O104 O 0.68597 0.59141 0.88981 0.0
O105 O 0.60437 0.53994 0.87888 0.0
O106 O 0.66462 0.50418 0.85657 0.0
O107 O 0.72431 0.5821 0.85189 0.0
O108 O 0.51569 0.41477 0.84341 0.0
O109 O 0.57231 0.435 0.87311 0.0
O110 O 0.55348 0.48406 0.81457 0.0
O111 O 0.63475 0.53613 0.82489 0.0
H112 H 0.65534 0.66871 0.79857 0.0
H113 H 0.63504 0.71865 0.78726 0.0
H114 H 0.69821 0.79134 0.85637 0.0
H115 H 0.71836 0.7413 0.86782 0.0
H116 H 0.58026 0.37018 0.88194 0.0
H117 H 0.59275 0.31575 0.86654 0.0
H118 H 0.51891 0.30431 0.79837 0.0
H119 H 0.50604 0.35814 0.81364 0.0
C120 C 0.73861 0.16976 0.18283 0.0
C121 C 0.73409 0.20385 0.18851 0.0
C122 C 0.82916 0.26352 0.17867 0.0
C123 C 0.77879 0.25012 0.18643 0.0
C124 C 0.8338 0.22946 0.17327 0.0
C125 C 0.78906 0.18318 0.17527 0.0
U126 U 0.62303 0.0526 0.21017 0.0
O127 O 0.59127 0.98409 0.19639 0.0
O128 O 0.53884 1.00361 0.19572 0.0
C129 C 0.54325 0.97181 0.1906 0.0
C130 C 0.69015 0.12048 0.18195 0.0
C131 C 0.49406 0.92348 0.19257 0.0
C132 C 0.40126 0.86244 0.17808 0.0
C133 C 0.4463 0.90877 0.1804 0.0
C134 C 0.44991 0.84404 0.20073 0.0
C135 C 0.40261 0.82934 0.18787 0.0
C136 C 0.49541 0.89072 0.20294 0.0
C137 C 0.62158 0.05056 0.28168 0.0
C138 C 0.57213 0.03949 0.31824 0.0
C139 C 0.6494 0.04076 0.32008 0.0
C140 C 0.65578 0.04669 0.29529 0.0
C141 C 0.60882 0.03877 0.33196 0.0
C142 C 0.5787 0.04571 0.29332 0.0
C143 C 0.63821 0.06848 0.25714 0.0
O144 O 0.69746 0.09167 0.1888 0.0
O145 O 0.6438 0.10963 0.18902 0.0
O146 O 0.60694 0.07304 0.24444 0.0
O147 O 0.66199 0.05623 0.24397 0.0
H148 H 0.69567 0.19487 0.19396 0.0
H149 H 0.77339 0.27533 0.19024 0.0
H150 H 0.87203 0.2386 0.16734 0.0
H151 H 0.79366 0.15777 0.17036 0.0
H152 H 0.36577 0.85241 0.16791 0.0
H153 H 0.44447 0.93312 0.17179 0.0
H154 H 0.45189 0.81951 0.20892 0.0
H155 H 0.53188 0.90095 0.21222 0.0
H156 H 0.54045 0.03795 0.327 0.0
H157 H 0.67779 0.0397 0.33021 0.0
H158 H 0.68963 0.05089 0.28704 0.0
H159 H 0.55201 0.0491 0.28346 0.0
C160 C 0.612 0.61756 0.54512 0.0
C161 C 0.60386 0.6392 0.56342 0.0
C162 C 0.6139 0.69125 0.53463 0.0
C163 C 0.6047 0.6757 0.55821 0.0
C164 C 0.62225 0.66953 0.51643 0.0
C165 C 0.62116 0.63295 0.52163 0.0
U166 U 0.61862 0.54641 0.58961 0.0
O167 O 0.57078 0.47205 0.59114 0.0
O168 O 0.65948 0.516 0.58748 0.0
C169 C 0.61336 0.47399 0.58799 0.0
C170 C 0.61145 0.57923 0.55028 0.0
C171 C 0.60672 0.43971 0.57087 0.0
C172 C 0.55474 0.37862 0.53981 0.0
C173 C 0.56392 0.41491 0.55354 0.0
C174 C 0.63224 0.39261 0.55975 0.0
C175 C 0.58803 0.36637 0.5432 0.0
C176 C 0.64132 0.42874 0.57348 0.0
C177 C 0.63386 0.57866 0.65712 0.0
C178 C 0.60841 0.5271 0.68936 0.0
C179 C 0.65932 0.60795 0.69877 0.0
C180 C 0.65967 0.61537 0.67421 0.0
C181 C 0.63288 0.56361 0.70661 0.0
C182 C 0.60914 0.53458 0.66481 0.0
C183 C 0.63054 0.5865 0.63162 0.0
O184 O 0.65759 0.59078 0.55873 0.0
O185 O 0.56878 0.54564 0.56171 0.0
O186 O 0.58307 0.55586 0.62062 0.0
O187 O 0.67185 0.59865 0.61837 0.0
H188 H 0.59714 0.62802 0.58173 0.0
H189 H 0.59917 0.6923 0.57269 0.0
H190 H 0.62937 0.68073 0.49811 0.0
H191 H 0.6276 0.61674 0.50728 0.0
H192 H 0.52103 0.35964 0.52683 0.0
H193 H 0.53671 0.42272 0.55102 0.0
H194 H 0.65854 0.384 0.5628 0.0
H195 H 0.67444 0.44722 0.58678 0.0
H196 H 0.58792 0.49262 0.69493 0.0
H197 H 0.67784 0.63657 0.7117 0.0
H198 H 0.6789 0.64962 0.6686 0.0
H199 H 0.58924 0.50579 0.65191 0.0
C200 C 0.99956 0.54421 0.87657 0.0
C201 C 0.94779 0.50929 0.88578 0.0
C202 C 0.90632 0.54324 0.87071 0.0
C203 C 0.9027 0.50909 0.88317 0.0
C204 C 0.9586 0.5785 0.86193 0.0
C205 C 1.00366 0.57888 0.86474 0.0
U206 U 0.12187 0.53957 0.89651 0.0
O207 O 0.14493 0.50196 0.87626 0.0
O208 O 0.20237 0.57608 0.87914 0.0
C209 C 0.1946 0.53879 0.8718 0.0
C210 C 1.04709 0.54255 0.87597 0.0
C211 C 0.24237 0.53743 0.87316 0.0
C212 C 0.28089 0.49833 0.86273 0.0
C213 C 0.23599 0.4984 0.86471 0.0
C214 C 0.34128 0.57629 0.87781 0.0
C215 C 0.33516 0.53751 0.86883 0.0
C216 C 0.29634 0.57636 0.87974 0.0
C217 C 0.11582 0.53657 0.9695 0.0
C218 C 0.13335 0.52938 0.01115 0.0
C219 C 1.07076 0.54392 1.00271 0.0
C220 C 1.07977 0.5438 0.9778 0.0
C221 C 0.09751 0.53669 0.01979 0.0
C222 C 0.14229 0.52933 0.98644 0.0
C223 C 0.12884 0.53739 0.9437 0.0
O224 O 0.09694 0.57897 0.8823 0.0
O225 O 1.03882 0.50462 0.8805 0.0
O226 O 0.09682 0.50038 0.92963 0.0
O227 O 0.15439 0.57558 0.93225 0.0
H228 H 0.94171 0.48152 0.89485 0.0
H229 H 0.86484 0.48184 0.8912 0.0
H230 H 0.96471 0.6056 0.85213 0.0
H231 H 1.0419 0.60612 0.85689 0.0
H232 H 0.27299 0.46752 0.85565 0.0
H233 H 0.19596 0.46776 0.85891 0.0
H234 H 0.38113 0.6071 0.88356 0.0
H235 H 0.30429 0.60755 0.8861 0.0
H236 H 0.15441 0.52333 0.02352 0.0
H237 H 1.04379 0.5507 1.00859 0.0
H238 H 1.05914 0.5498 0.96512 0.0
H239 H 0.1704 0.52378 0.98052 0.0
C240 C 0.97338 0.40468 0.46181 0.0
C241 C 0.93512 0.37982 0.4427 0.0
C242 C 0.88354 0.31098 0.46614 0.0
C243 C 0.89045 0.33333 0.44489 0.0
C244 C 0.92216 0.33622 0.48512 0.0
C245 C 0.96657 0.38243 0.48292 0.0
U246 U 1.08221 0.52186 0.43201 0.0
O247 O 0.16761 0.57286 0.44481 0.0
O248 O 0.11225 0.58943 0.44692 0.0
C249 C 0.16093 0.60256 0.45197 0.0
C250 C 1.01973 0.45406 0.46102 0.0
C251 C 0.20836 0.65173 0.45271 0.0
C252 C 0.27362 0.72038 0.47778 0.0
C253 C 0.22713 0.67454 0.47543 0.0
C254 C 0.28306 0.7222 0.43448 0.0
C255 C 0.30264 0.74467 0.45743 0.0
C256 C 0.23635 0.67583 0.43213 0.0
C257 C 1.08208 0.52508 0.36071 0.0
C258 C 0.13797 0.54206 0.3258 0.0
C259 C 1.05447 0.53118 0.32105 0.0
C260 C 1.04559 0.5243 0.34577 0.0
C261 C 0.09989 0.53876 0.31079 0.0
C262 C 0.12929 0.53542 0.35056 0.0
C263 C 1.06477 0.50637 0.38508 0.0
O264 O 1.06541 0.46545 0.45261 0.0
O265 O 1.0092 0.48076 0.45409 0.0
O266 O 1.04163 0.51872 0.3987 0.0
O267 O 0.09597 0.50121 0.39734 0.0
H268 H 0.93953 0.39637 0.42626 0.0
H269 H 0.86134 0.3148 0.42996 0.0
H270 H 0.91745 0.32051 0.50193 0.0
H271 H 0.99534 0.40108 0.49797 0.0
H272 H 0.28698 0.73691 0.49563 0.0
H273 H 0.20606 0.6566 0.49154 0.0
H274 H 0.30457 0.74019 0.41847 0.0
H275 H 0.22254 0.65881 0.41442 0.0
H276 H 0.17301 0.54742 0.31815 0.0
H277 H 1.02424 0.52787 0.30971 0.0
H278 H 1.00839 0.5156 0.35295 0.0
H279 H 0.15797 0.53578 0.3614 0.0
C280 C 0.62399 0.95841 0.78529 0.0
C281 C 0.61192 0.92566 0.76746 0.0
C282 C 0.63578 0.89194 0.79553 0.0
C283 C 0.61751 0.89264 0.77256 0.0
C284 C 0.64771 0.92484 0.8133 0.0
C285 C 0.64192 0.95771 0.80822 0.0
U286 U 0.61199 0.02779 0.74135 0.0
O287 O 0.55784 0.04575 0.74101 0.0
O288 O 0.64655 0.09999 0.74331 0.0
C289 C 0.5985 0.08991 0.74291 0.0
C290 C 0.61781 0.99323 0.78034 0.0
C291 C 0.59107 0.11788 0.75874 0.0
C292 C 0.60746 0.16171 0.79595 0.0
C293 C 0.61303 0.13273 0.78236 0.0
C294 C 0.55774 0.16083 0.76255 0.0
C295 C 0.5801 0.17645 0.78608 0.0
C296 C 0.56316 0.13197 0.74911 0.0
C297 C 0.61581 1.00529 0.67329 0.0
C298 C 0.59629 0.03572 0.64118 0.0
C299 C 0.62196 0.9887 0.6313 0.0
C300 C 0.62677 0.98444 0.65587 0.0
C301 C 0.60595 1.01387 0.62365 0.0
C302 C 0.60098 0.03133 0.66582 0.0
C303 C 0.61839 0.99804 0.699 0.0
O304 O 0.66032 0.03105 0.77126 0.0
O305 O 0.57159 0.97786 0.76978 0.0
O306 O 0.57276 0.97783 0.7106 0.0
O307 O 0.66119 0.03247 0.71154 0.0
H308 H 0.59789 0.92547 0.74963 0.0
H309 H 0.60688 0.8673 0.75859 0.0
H310 H 0.66214 0.92549 0.83112 0.0
H311 H 0.65151 0.98268 0.82223 0.0
H312 H 0.62434 0.17239 0.81416 0.0
H313 H 0.63473 0.12226 0.79019 0.0
H314 H 0.53688 0.17172 0.75426 0.0
H315 H 0.5462 0.12121 0.73088 0.0
H316 H 0.58391 0.05533 0.63581 0.0
H317 H 0.6307 0.97224 0.61824 0.0
H318 H 0.63851 0.96438 0.6613 0.0
H319 H 0.59239 0.04772 0.67901 0.0
C320 C 0.5624 0.37676 0.14373 0.0
C321 C 0.59443 0.36714 0.13306 0.0
C322 C 0.62359 0.36428 0.17286 0.0
C323 C 0.62515 0.36111 0.14757 0.0
C324 C 0.58367 0.36527 0.18307 0.0
C325 C 0.55363 0.3721 0.16854 0.0
U326 U 0.56118 0.43069 0.08708 0.0
O327 O 0.60193 0.5031 0.08256 0.0
O328 O 0.51296 0.45234 0.07812 0.0
C329 C 0.55578 0.49593 0.08046 0.0
C330 C 0.55251 0.40427 0.13105 0.0
C331 C 0.55038 0.52294 0.09768 0.0
C332 C 0.55273 0.54719 0.13906 0.0
C333 C 0.56357 0.52579 0.1222 0.0
C334 C 0.51776 0.5648 0.10685 0.0
C335 C 0.52818 0.56568 0.13163 0.0
C336 C 0.52891 0.54363 0.09 0.0
C337 C 0.58628 0.4149 0.0251 0.0
C338 C 0.56485 0.44833 0.99606 0.0
C339 C 0.63327 0.44005 0.98717 0.0
C340 C 0.62475 0.42045 0.00948 0.0
C341 C 0.60316 0.45401 0.98034 0.0
C342 C 0.55655 0.42909 0.01817 0.0
C343 C 0.58124 0.40016 0.0498 0.0
O344 O 0.59702 0.44181 0.12283 0.0
O345 O 0.51086 0.38285 0.1157 0.0
O346 O 0.53213 0.3777 0.0585 0.0
O347 O 0.62001 0.43224 0.06488 0.0
H348 H 0.60142 0.37049 0.11386 0.0
H349 H 0.65551 0.36062 0.139 0.0
H350 H 0.58099 0.367 0.20247 0.0
H351 H 0.52866 0.37917 0.17701 0.0
H352 H 0.5605 0.54691 0.15802 0.0
H353 H 0.58013 0.50979 0.12842 0.0
H354 H 0.4972 0.5774 0.10061 0.0
H355 H 0.51837 0.54152 0.07115 0.0
H356 H 0.54229 0.46004 0.99154 0.0
H357 H 0.66343 0.44459 0.97535 0.0
H358 H 0.64895 0.4107 0.01478 0.0
H359 H 0.52785 0.42657 0.03018 0.0
C360 C 0.42005 0.53744 0.17314 0.0
C361 C 0.41258 0.56855 0.16613 0.0
C362 C 0.46414 0.54093 0.16484 0.0
C363 C 0.50159 0.57559 0.1493 0.0
H364 H 0.38798 0.50697 0.18222 0.0
H365 H 0.46432 0.51284 0.16788 0.0
S366 S 0.50944 0.67383 0.13305 0.0
N367 N 0.45293 0.64122 0.14834 0.0
N368 N 0.53665 0.64821 0.13295 0.0
C369 C 0.49989 0.6114 0.1461 0.0
C370 C 0.45496 0.60781 0.15455 0.0
C371 C 0.73641 0.201 0.46709 0.0
C372 C 0.74079 0.16907 0.47634 0.0
C373 C 0.78256 0.24636 0.46344 0.0
C374 C 0.83533 0.26198 0.46901 0.0
H375 H 0.69673 0.19099 0.46249 0.0
H376 H 0.77682 0.26954 0.45662 0.0
S377 S 0.87032 0.19232 0.49259 0.0
N378 N 0.80318 0.15661 0.49034 0.0
N379 N 0.88962 0.24155 0.48334 0.0
C380 C 0.84056 0.23049 0.47803 0.0
C381 C 0.79354 0.18422 0.48172 0.0
C382 C 0.62966 0.80194 0.82885 0.0
C383 C 0.65646 0.79178 0.81347 0.0
C384 C 0.62264 0.83382 0.8228 0.0
C385 C 0.64227 0.85707 0.80113 0.0
H386 H 0.61384 0.78499 0.84572 0.0
H387 H 0.60147 0.84022 0.83519 0.0
S388 S 0.71832 0.84491 0.7553 0.0
N389 N 0.70435 0.80873 0.77599 0.0
N390 N 0.69159 0.86874 0.7647 0.0
C391 C 0.66922 0.84724 0.78561 0.0
C392 C 0.6762 0.81465 0.79175 0.0
C393 C 0.75413 0.451 0.2073 0.0
C394 C 0.78588 0.43875 0.19994 0.0
C395 C 0.69875 0.42307 0.20108 0.0
C396 C 0.67329 0.38195 0.18722 0.0
H397 H 0.77308 0.48432 0.21585 0.0
H398 H 0.67752 0.43644 0.20494 0.0
S399 S 0.73597 0.32916 0.16948 0.0
N400 N 0.78627 0.37888 0.18265 0.0
N401 N 0.68164 0.32613 0.17081 0.0
C402 C 0.70315 0.36664 0.18257 0.0
C403 C 0.75966 0.39516 0.18893 0.0
C404 C 0.405 0.87415 0.45217 0.0
C405 C 0.44748 0.88753 0.46843 0.0
C406 C 0.35905 0.82788 0.44819 0.0
C407 C 0.3533 0.79319 0.46051 0.0
H408 H 0.40726 0.89946 0.44236 0.0
H409 H 0.32711 0.81927 0.43571 0.0
S410 S 0.45308 0.80927 0.50442 0.0
N411 N 0.48081 0.86149 0.49653 0.0
N412 N 0.39467 0.77513 0.48907 0.0
C413 C 0.39556 0.80596 0.47663 0.0
C414 C 0.44249 0.85291 0.48056 0.0
C415 C 0.51903 0.23093 0.80997 0.0
C416 C 0.56349 0.27203 0.82159 0.0
C417 C 0.52444 0.19972 0.79937 0.0
C418 C 0.57466 0.20823 0.79977 0.0
H419 H 0.47964 0.22292 0.80891 0.0
H420 H 0.48896 0.16877 0.79052 0.0
S421 S 0.70404 0.31122 0.82765 0.0
N422 N 0.65948 0.31952 0.83295 0.0
N423 N 0.66994 0.26123 0.8128 0.0
C424 C 0.61928 0.24883 0.81175 0.0
C425 C 0.61364 0.28058 0.82267 0.0
C426 C 0.66486 0.80494 0.51061 0.0
C427 C 0.62447 0.80819 0.51732 0.0
C428 C 0.66102 0.76713 0.51631 0.0
C429 C 0.61674 0.73099 0.52904 0.0
H430 H 0.70023 0.83219 0.50111 0.0
H431 H 0.69341 0.76644 0.51093 0.0
S432 S 0.49839 0.72132 0.54954 0.0
N433 N 0.53752 0.77094 0.53655 0.0
N434 N 0.53054 0.69997 0.54743 0.0
C435 C 0.57589 0.7336 0.5358 0.0
C436 C 0.5797 0.77212 0.52991 0.0
C437 C 0.81858 0.58336 0.86218 0.0
C438 C 0.76394 0.54268 0.85877 0.0
C439 C 0.86322 0.5832 0.866 0.0
C440 C 0.85684 0.5424 0.86669 0.0
H441 H 0.82715 0.61598 0.86217 0.0
H442 H 0.90343 0.61593 0.86881 0.0
S443 S 0.72296 0.42589 0.85704 0.0
N444 N 0.70724 0.45993 0.85556 0.0
N445 N 0.78945 0.45964 0.86197 0.0
C446 C 0.80236 0.50147 0.86289 0.0
C447 C 0.7569 0.50165 0.85914 0.0
C448 C 0.25515 0.72069 0.18296 0.0
C449 C 0.25845 0.68671 0.17482 0.0
C450 C 0.30181 0.76605 0.18762 0.0
C451 C 0.3543 0.77992 0.18437 0.0
H452 H 0.216 0.71242 0.18588 0.0
H453 H 0.29663 0.79055 0.19386 0.0
S454 S 0.38661 0.7052 0.16323 0.0
N455 N 0.31945 0.67061 0.16375 0.0
N456 N 0.40718 0.75613 0.1723 0.0
C457 C 0.35865 0.74651 0.17642 0.0
C458 C 0.31085 0.7 0.17164 0.0
C459 C 0.60637 0.28808 0.50844 0.0
C460 C 0.55446 0.24492 0.50913 0.0
C461 C 0.61673 0.3273 0.51911 0.0
C462 C 0.5754 0.32501 0.53058 0.0
H463 H 0.6396 0.29138 0.50012 0.0
H464 H 0.65752 0.35967 0.5185 0.0
S465 S 0.432 0.22047 0.53649 0.0
N466 N 0.46086 0.20255 0.52149 0.0
N467 N 0.48038 0.27593 0.54171 0.0
C468 C 0.52307 0.2822 0.53093 0.0
C469 C 0.51264 0.24229 0.52021 0.0
C470 C 0.42438 0.49786 0.86722 0.0
C471 C 0.47649 0.53603 0.85965 0.0
C472 C 0.37996 0.49862 0.87003 0.0
C473 C 0.38424 0.53766 0.86568 0.0
H474 H 0.4176 0.46681 0.87112 0.0
H475 H 0.34172 0.468 0.87607 0.0
S476 S 0.5107 0.64675 0.8443 0.0
N477 N 0.52829 0.61422 0.84723 0.0
N478 N 0.44645 0.61544 0.85217 0.0
C479 C 0.43613 0.57599 0.8579 0.0
C480 C 0.4813 0.57519 0.85498 0.0
C481 C 0.95183 0.37258 0.15125 0.0
C482 C 0.96661 0.40692 0.16862 0.0
C483 C 0.9074 0.32643 0.15461 0.0
C484 C 0.8763 0.31272 0.17558 0.0
H485 H 0.97446 0.38141 0.13484 0.0
H486 H 0.89702 0.3013 0.14054 0.0
S487 S 0.90145 0.38883 0.22763 0.0
N488 N 0.94822 0.42362 0.20821 0.0
N489 N 0.86586 0.33717 0.21463 0.0
C490 C 0.89131 0.34668 0.19326 0.0
C491 C 0.93614 0.39363 0.18977 0.0
C492 C 0.12893 0.56148 0.08797 0.0
C493 C 1.07782 0.54132 0.09789 0.0
C494 C 0.13484 0.56011 0.06285 0.0
C495 C 0.08972 0.53778 0.04655 0.0
H496 H 0.16492 0.57963 0.09965 0.0
H497 H 0.1754 0.57737 0.05616 0.0
S498 S 0.94593 0.47447 0.06402 0.0
N499 N 0.98086 0.49598 0.08986 0.0
N500 N 0.99122 0.49136 0.04293 0.0
C501 C 1.03808 0.51613 0.05649 0.0
C502 C 1.03233 0.51837 0.08204 0.0
C503 C 0.56438 1.00413 0.39663 0.0
C504 C 0.61255 0.03769 0.41002 0.0
C505 C 0.56241 1.00523 0.37131 0.0
C506 C 0.60853 0.04 0.35875 0.0
H507 H 0.52888 0.97581 0.40561 0.0
H508 H 0.52543 0.9779 0.36146 0.0
S509 S 0.74093 0.13991 0.38607 0.0
N510 N 0.7049 0.10926 0.40921 0.0
N511 N 0.7011 0.11168 0.36196 0.0
C512 C 0.65556 0.07516 0.3722 0.0
C513 C 0.6576 0.07391 0.39777 0.0
C514 C 0.56654 0.51159 0.76596 0.0
C515 C 0.61068 0.53438 0.78265 0.0
C516 C 0.5744 0.52133 0.74152 0.0
C517 C 0.62666 0.55455 0.73272 0.0
H518 H 0.52539 0.48568 0.77175 0.0
H519 H 0.53904 0.50282 0.7294 0.0
S520 S 0.75609 0.62375 0.76871 0.0
N521 N 0.70884 0.59136 0.78855 0.0
N522 N 0.7235 0.61032 0.74251 0.0
C523 C 0.67125 0.57809 0.74918 0.0
C524 C 0.66329 0.56782 0.77416 0.0
C525 C 0.6166 0.06287 0.56291 0.0
C526 C 0.58311 0.02355 0.54765 0.0
C527 C 0.62372 0.05951 0.58749 0.0
C528 C 0.59854 1.01675 0.59748 0.0
H529 H 0.6364 0.09634 0.55592 0.0
H530 H 0.64931 0.09058 0.59875 0.0
S531 S 0.50883 0.90384 0.56442 0.0
N532 N 0.52555 0.94096 0.54381 0.0
N533 N 0.53968 0.93436 0.58976 0.0
C534 C 0.56594 0.9773 0.58211 0.0
C535 C 0.55797 0.98078 0.55725 0.0
C536 C 0.67335 0.54108 0.93195 0.0
C537 C 0.62942 0.52751 0.91678 0.0
C538 C 0.66501 0.51588 0.95198 0.0
C539 C 0.6126 0.47647 0.95743 0.0
H540 H 0.71419 0.57139 0.92845 0.0
H541 H 0.6996 0.52818 0.96371 0.0
S542 S 0.48468 0.42507 0.92263 0.0
N543 N 0.53191 0.47133 0.90826 0.0
N544 N 0.51681 0.42353 0.94542 0.0
C545 C 0.56871 0.46187 0.94201 0.0
C546 C 0.57702 0.48759 0.92182 0.0
C547 C 0.12839 0.57166 0.24512 0.0
C548 C 0.11315 0.53132 0.23331 0.0
C549 C 0.12355 0.57408 0.27026 0.0
C550 C 0.10328 0.53621 0.28425 0.0
H551 H 0.1453 0.60181 0.23499 0.0
H552 H 0.1365 0.60583 0.27884 0.0
S553 S 1.05264 0.42159 0.26184 0.0
N554 N 1.07326 0.45185 0.23747 0.0
N555 N 1.06457 0.45667 0.28445 0.0
C556 C 1.08633 0.49545 0.27256 0.0
C557 C 0.09115 0.49292 0.24714 0.0
loop_
_geom_bond_atom_site_label_1
_geom_bond_atom_site_label_2
_geom_bond_distance
_geom_bond_site_symmetry_2
_ccdc_geom_bond_type
Ho0 C3 2.811 . S
Ho0 O20 2.322 . S
Ho0 O22 2.378 . S
Ho0 O23 2.524 . S
Ho0 O24 2.381 . S
Ho0 O25 2.669 . S
Ho0 O27 2.346 1_455 S
Ho0 O31 2.305 . S
Ho1 C12 2.811 . S
Ho1 O21 2.346 1_655 S
Ho1 O25 2.305 1_655 S
Ho1 O26 2.322 . S
Ho1 O28 2.378 . S
Ho1 O29 2.524 . S
Ho1 O30 2.381 . S
Ho1 O31 2.669 1_655 S
C2 O20 1.259 . S
C2 O21 1.268 . S
C3 Ho0 2.811 . S
C3 C4 1.488 . S
C3 O22 1.215 . S
C3 O23 1.289 . S
C4 C3 1.488 . S
C4 C5 1.348 . S
C4 C9 1.413 . S
C5 C4 1.348 . S
C5 C6 1.442 . S
C5 H32 0.930 . S
C6 C5 1.442 . S
C6 C7 1.381 . S
C6 H33 0.931 . S
C7 C6 1.381 . S
C7 C8 1.321 . S
C8 C7 1.321 . S
C8 C9 1.403 . S
C8 H34 0.934 . S
C9 C4 1.413 . S
C9 C8 1.403 . S
C9 H35 0.930 . S
C10 O24 1.275 . S
C10 O25 1.256 . S
C11 O26 1.259 . S
C11 O27 1.268 . S
C12 Ho1 2.811 . S
C12 C13 1.488 . S
C12 O28 1.215 . S
C12 O29 1.289 . S
C13 C12 1.488 . S
C13 C14 1.348 . S
C13 C18 1.413 . S
C14 C13 1.348 . S
C14 C15 1.442 . S
C14 H36 0.930 . S
C15 C14 1.442 . S
C15 C16 1.381 . S
C15 H37 0.931 . S
C16 C15 1.381 . S
C16 C17 1.321 . S
C17 C16 1.321 . S
C17 C18 1.403 . S
C17 H38 0.934 . S
C18 C13 1.413 . S
C18 C17 1.403 . S
C18 H39 0.930 . S
C19 O30 1.275 1_455 S
C19 O31 1.256 . S
O20 Ho0 2.322 . S
O20 C2 1.259 . S
O21 Ho1 2.346 1_455 S
O21 C2 1.268 . S
O22 Ho0 2.378 . S
O22 C3 1.215 . S
O23 Ho0 2.524 . S
O23 C3 1.289 . S
O24 Ho0 2.381 . S
O24 C10 1.275 . S
O25 Ho0 2.669 . S
O25 Ho1 2.305 1_455 S
O25 C10 1.256 . S
O26 Ho1 2.322 . S
O26 C11 1.259 . S
O27 Ho0 2.346 1_655 S
O27 C11 1.268 . S
O28 Ho1 2.378 . S
O28 C12 1.215 . S
O29 Ho1 2.524 . S
O29 C12 1.289 . S
O30 Ho1 2.381 . S
O30 C19 1.275 1_655 S
O31 Ho0 2.305 . S
O31 Ho1 2.669 1_455 S
O31 C19 1.256 . S
H32 C5 0.930 . S
H33 C6 0.931 . S
H34 C8 0.934 . S
H35 C9 0.930 . S
H36 C14 0.930 . S
H37 C15 0.931 . S
H38 C17 0.934 . S
H39 C18 0.930 . S
Ho40 C43 2.811 . S
Ho40 O60 2.322 . S
Ho40 O62 2.378 . S
Ho40 O63 2.524 . S
Ho40 O64 2.381 . S
Ho40 O65 2.669 1_565 S
Ho40 O67 2.346 1_565 S
Ho40 O71 2.318 . S
Ho41 C52 2.811 . S
Ho41 O61 2.346 1_545 S
Ho41 O65 2.305 . S
Ho41 O66 2.322 . S
Ho41 O68 2.378 . S
Ho41 O69 2.524 . S
Ho41 O70 2.381 . S
Ho41 O71 2.648 1_545 S
C42 O60 1.259 . S
C42 O61 1.268 . S
C43 Ho40 2.811 . S
C43 C44 1.488 . S
C43 O62 1.215 . S
C43 O63 1.289 . S
C44 C43 1.488 . S
C44 C45 1.348 . S
C44 C49 1.413 . S
C45 C44 1.348 . S
C45 C46 1.442 . S
C45 H72 0.930 . S
C46 C45 1.442 . S
C46 C47 1.381 . S
C46 H73 0.931 . S
C47 C46 1.381 . S
C47 C48 1.321 . S
C48 C47 1.321 . S
C48 C49 1.403 . S
C48 H74 0.934 . S
C49 C44 1.413 . S
C49 C48 1.403 . S
C49 H75 0.930 . S
C50 O64 1.275 1_545 S
C50 O65 1.256 . S
C51 O66 1.259 . S
C51 O67 1.268 . S
C52 Ho41 2.811 . S
C52 C53 1.488 . S
C52 O68 1.215 . S
C52 O69 1.289 . S
C53 C52 1.488 . S
C53 C54 1.348 . S
C53 C58 1.413 . S
C54 C53 1.348 . S
C54 C55 1.442 . S
C54 H76 0.930 . S
C55 C54 1.442 . S
C55 C56 1.381 . S
C55 H77 0.931 . S
C56 C55 1.381 . S
C56 C57 1.321 . S
C57 C56 1.321 . S
C57 C58 1.403 . S
C57 H78 0.934 . S
C58 C53 1.413 . S
C58 C57 1.403 . S
C58 H79 0.930 . S
C59 O70 1.275 . S
C59 O71 1.245 1_545 S
O60 Ho40 2.322 . S
O60 C42 1.259 . S
O61 Ho41 2.346 1_565 S
O61 C42 1.268 . S
O62 Ho40 2.378 . S
O62 C43 1.215 . S
O63 Ho40 2.524 . S
O63 C43 1.289 . S
O64 Ho40 2.381 . S
O64 C50 1.275 1_565 S
O65 Ho40 2.669 1_545 S
O65 Ho41 2.305 . S
O65 C50 1.256 . S
O66 Ho41 2.322 . S
O66 C51 1.259 . S
O67 Ho40 2.346 1_545 S
O67 C51 1.268 . S
O68 Ho41 2.378 . S
O68 C52 1.215 . S
O69 Ho41 2.524 . S
O69 C52 1.289 . S
O70 Ho41 2.381 . S
O70 C59 1.275 . S
O71 Ho40 2.318 . S
O71 Ho41 2.648 1_565 S
O71 C59 1.245 1_565 S
H72 C45 0.930 . S
H73 C46 0.931 . S
H74 C48 0.934 . S
H75 C49 0.930 . S
H76 C54 0.930 . S
H77 C55 0.931 . S
H78 C57 0.934 . S
H79 C58 0.930 . S
Ho80 C83 2.811 . S
Ho80 O100 2.322 . S
Ho80 O102 2.378 . S
Ho80 O103 2.524 . S
Ho80 O104 2.381 . S
Ho80 O105 2.669 . S
Ho80 O107 2.346 . S
Ho80 O111 2.305 . S
Ho81 C92 2.811 . S
Ho81 O101 2.346 . S
Ho81 O105 2.305 . S
Ho81 O106 2.322 . S
Ho81 O108 2.378 . S
Ho81 O109 2.524 . S
Ho81 O110 2.381 . S
Ho81 O111 2.669 . S
C82 O100 1.259 . S
C82 O101 1.268 . S
C83 Ho80 2.811 . S
C83 C84 1.488 . S
C83 O102 1.215 . S
C83 O103 1.289 . S
C84 C83 1.488 . S
C84 C85 1.348 . S
C84 C89 1.413 . S
C85 C84 1.348 . S
C85 C86 1.442 . S
C85 H112 0.930 . S
C86 C85 1.442 . S
C86 C87 1.381 . S
C86 H113 0.931 . S
C87 C86 1.381 . S
C87 C88 1.321 . S
C88 C87 1.321 . S
C88 C89 1.403 . S
C88 H114 0.934 . S
C89 C84 1.413 . S
C89 C88 1.403 . S
C89 H115 0.930 . S
C90 O104 1.275 . S
C90 O105 1.256 . S
C91 O106 1.259 . S
C91 O107 1.268 . S
C92 Ho81 2.811 . S
C92 C93 1.488 . S
C92 O108 1.215 . S
C92 O109 1.289 . S
C93 C92 1.488 . S
C93 C94 1.348 . S
C93 C98 1.413 . S
C94 C93 1.348 . S
C94 C95 1.442 . S
C94 H116 0.930 . S
C95 C94 1.442 . S
C95 C96 1.381 . S
C95 H117 0.931 . S
C96 C95 1.381 . S
C96 C97 1.321 . S
C97 C96 1.321 . S
C97 C98 1.403 . S
C97 H118 0.934 . S
C98 C93 1.413 . S
C98 C97 1.403 . S
C98 H119 0.930 . S
C99 O110 1.275 . S
C99 O111 1.256 . S
O100 Ho80 2.322 . S
O100 C82 1.259 . S
O101 Ho81 2.346 . S
O101 C82 1.268 . S
O102 Ho80 2.378 . S
O102 C83 1.215 . S
O103 Ho80 2.524 . S
O103 C83 1.289 . S
O104 Ho80 2.381 . S
O104 C90 1.275 . S
O105 Ho80 2.669 . S
O105 Ho81 2.305 . S
O105 C90 1.256 . S
O106 Ho81 2.322 . S
O106 C91 1.259 . S
O107 Ho80 2.346 . S
O107 C91 1.268 . S
O108 Ho81 2.378 . S
O108 C92 1.215 . S
O109 Ho81 2.524 . S
O109 C92 1.289 . S
O110 Ho81 2.381 . S
O110 C99 1.275 . S
O111 Ho80 2.305 . S
O111 Ho81 2.669 . S
O111 C99 1.256 . S
H112 C85 0.930 . S
H113 C86 0.931 . S
H114 C88 0.934 . S
H115 C89 0.930 . S
H116 C94 0.930 . S
H117 C95 0.931 . S
H118 C97 0.934 . S
H119 C98 0.930 . S
C120 C121 1.264 . S
C120 C125 1.479 . S
C120 C130 1.465 . S
C121 C120 1.264 . S
C121 C123 1.339 . S
C121 H148 0.931 . S
C122 C123 1.395 . S
C122 C124 1.320 . S
C123 C121 1.339 . S
C123 C122 1.395 . S
C123 H149 0.929 . S
C124 C122 1.320 . S
C124 C125 1.405 . S
C124 H150 0.930 . S
C125 C120 1.479 . S
C125 C124 1.405 . S
C125 H151 0.931 . S
U126 O127 2.454 1_545 S
U126 O128 2.458 1_545 S
U126 C129 2.984 1_545 S
U126 C130 2.847 . S
U126 C143 2.882 . S
U126 O144 2.441 . S
U126 O145 2.420 . S
U126 O146 2.455 1_545 S
U126 O147 2.449 . S
O127 U126 2.454 1_565 S
O127 C129 1.353 . S
O128 U126 2.458 1_565 S
O128 C129 1.286 . S
C129 U126 2.984 1_565 S
C129 O127 1.353 . S
C129 O128 1.286 . S
C129 C131 1.363 . S
C130 C120 1.465 . S
C130 U126 2.847 . S
C130 O144 1.249 . S
C130 O145 1.202 . S
C131 C129 1.363 . S
C131 C133 1.408 . S
C131 C136 1.342 . S
C132 C133 1.310 . S
C132 C135 1.461 . S
C132 H152 0.932 . S
C133 C131 1.408 . S
C133 C132 1.310 . S
C133 H153 0.930 . S
C134 C135 1.474 . S
C134 C136 1.285 . S
C134 H154 0.929 . S
C135 C132 1.461 . S
C135 C134 1.474 . S
C136 C131 1.342 . S
C136 C134 1.285 . S
C136 H155 0.930 . S
C137 C140 1.424 . S
C137 C142 1.245 1_545 S
C137 C143 1.428 . S
C138 C141 1.260 1_565 S
C138 C142 1.477 . S
C138 H156 0.932 . S
C139 C140 1.384 . S
C139 C141 1.479 . S
C139 H157 0.929 . S
C140 C137 1.424 . S
C140 C139 1.384 . S
C140 H158 0.928 . S
C141 C138 1.260 1_545 S
C141 C139 1.479 . S
C142 C137 1.245 1_565 S
C142 C138 1.477 . S
C142 H159 0.932 . S
C143 U126 2.882 . S
C143 C137 1.428 . S
C143 O146 1.301 1_545 S
C143 O147 1.282 . S
O144 U126 2.441 . S
O144 C130 1.249 . S
O145 U126 2.420 . S
O145 C130 1.202 . S
O146 U126 2.455 1_565 S
O146 C143 1.301 1_565 S
O147 U126 2.449 . S
O147 C143 1.282 . S
H148 C121 0.931 . S
H149 C123 0.929 . S
H150 C124 0.930 . S
H151 C125 0.931 . S
H152 C132 0.932 . S
H153 C133 0.930 . S
H154 C134 0.929 . S
H155 C136 0.930 . S
H156 C138 0.932 . S
H157 C139 0.929 . S
H158 C140 0.928 . S
H159 C142 0.932 . S
C160 C161 1.264 . S
C160 C165 1.479 . S
C160 C170 1.465 . S
C161 C160 1.264 . S
C161 C163 1.339 . S
C161 H188 0.931 . S
C162 C163 1.395 . S
C162 C164 1.320 . S
C163 C161 1.339 . S
C163 C162 1.395 . S
C163 H189 0.929 . S
C164 C162 1.320 . S
C164 C165 1.405 . S
C164 H190 0.930 . S
C165 C160 1.479 . S
C165 C164 1.405 . S
C165 H191 0.931 . S
U166 O167 2.454 . S
U166 O168 2.458 . S
U166 C169 2.984 . S
U166 C170 2.847 . S
U166 C183 2.882 . S
U166 O184 2.441 . S
U166 O185 2.420 . S
U166 O186 2.455 . S
U166 O187 2.449 . S
O167 U166 2.454 . S
O167 C169 1.353 . S
O168 U166 2.458 . S
O168 C169 1.286 . S
C169 U166 2.984 . S
C169 O167 1.353 . S
C169 O168 1.286 . S
C169 C171 1.363 . S
C170 C160 1.465 . S
C170 U166 2.847 . S
C170 O184 1.249 . S
C170 O185 1.202 . S
C171 C169 1.363 . S
C171 C173 1.408 . S
C171 C176 1.342 . S
C172 C173 1.310 . S
C172 C175 1.461 . S
C172 H192 0.932 . S
C173 C171 1.408 . S
C173 C172 1.310 . S
C173 H193 0.930 . S
C174 C175 1.474 . S
C174 C176 1.285 . S
C174 H194 0.929 . S
C175 C172 1.461 . S
C175 C174 1.474 . S
C176 C171 1.342 . S
C176 C174 1.285 . S
C176 H195 0.930 . S
C177 C180 1.424 . S
C177 C182 1.245 . S
C177 C183 1.428 . S
C178 C181 1.260 . S
C178 C182 1.477 . S
C178 H196 0.932 . S
C179 C180 1.384 . S
C179 C181 1.479 . S
C179 H197 0.929 . S
C180 C177 1.424 . S
C180 C179 1.384 . S
C180 H198 0.928 . S
C181 C178 1.260 . S
C181 C179 1.479 . S
C182 C177 1.245 . S
C182 C178 1.477 . S
C182 H199 0.932 . S
C183 U166 2.882 . S
C183 C177 1.428 . S
C183 O186 1.301 . S
C183 O187 1.282 . S
O184 U166 2.441 . S
O184 C170 1.249 . S
O185 U166 2.420 . S
O185 C170 1.202 . S
O186 U166 2.455 . S
O186 C183 1.301 . S
O187 U166 2.449 . S
O187 C183 1.282 . S
H188 C161 0.931 . S
H189 C163 0.929 . S
H190 C164 0.930 . S
H191 C165 0.931 . S
H192 C172 0.932 . S
H193 C173 0.930 . S
H194 C174 0.929 . S
H195 C176 0.930 . S
H196 C178 0.932 . S
H197 C179 0.929 . S
H198 C180 0.928 . S
H199 C182 0.932 . S
C200 C201 1.264 . S
C200 C205 1.479 . S
C200 C210 1.465 . S
C201 C200 1.264 . S
C201 C203 1.339 . S
C201 H228 0.931 . S
C202 C203 1.395 . S
C202 C204 1.320 . S
C203 C201 1.339 . S
C203 C202 1.395 . S
C203 H229 0.929 . S
C204 C202 1.320 . S
C204 C205 1.405 . S
C204 H230 0.930 . S
C205 C200 1.479 . S
C205 C204 1.405 . S
C205 H231 0.931 . S
U206 O207 2.454 . S
U206 O208 2.458 . S
U206 C209 2.984 . S
U206 C210 2.847 1_455 S
U206 C223 2.882 . S
U206 O224 2.443 . S
U206 O225 2.420 1_455 S
U206 O226 2.455 . S
U206 O227 2.449 1_455 S
O207 U206 2.454 . S
O207 C209 1.353 . S
O208 U206 2.458 . S
O208 C209 1.286 . S
C209 U206 2.984 . S
C209 O207 1.353 . S
C209 O208 1.286 . S
C209 C211 1.363 . S
C210 C200 1.465 . S
C210 U206 2.847 1_655 S
C210 O224 1.246 1_655 S
C210 O225 1.202 . S
C211 C209 1.363 . S
C211 C213 1.408 . S
C211 C216 1.342 . S
C212 C213 1.310 . S
C212 C215 1.461 . S
C212 H232 0.932 . S
C213 C211 1.408 . S
C213 C212 1.310 . S
C213 H233 0.930 . S
C214 C215 1.474 . S
C214 C216 1.285 . S
C214 H234 0.929 . S
C215 C212 1.461 . S
C215 C214 1.474 . S
C216 C211 1.342 . S
C216 C214 1.285 . S
C216 H235 0.930 . S
C217 C220 1.420 1_455 S
C217 C222 1.245 . S
C217 C223 1.428 . S
C218 C221 1.260 1_556 S
C218 C222 1.477 . S
C218 H236 0.932 1_556 S
C219 C220 1.384 . S
C219 C221 1.479 1_656 S
C219 H237 0.929 1_556 S
C220 C217 1.420 1_655 S
C220 C219 1.384 . S
C220 H238 0.932 . S
C221 C218 1.260 1_554 S
C221 C219 1.479 1_454 S
C222 C217 1.245 . S
C222 C218 1.477 . S
C222 H239 0.932 . S
C223 U206 2.882 . S
C223 C217 1.428 . S
C223 O226 1.301 . S
C223 O227 1.282 1_455 S
O224 U206 2.443 . S
O224 C210 1.246 1_455 S
O225 U206 2.420 1_655 S
O225 C210 1.202 . S
O226 U206 2.455 . S
O226 C223 1.301 . S
O227 U206 2.449 1_655 S
O227 C223 1.282 1_655 S
H228 C201 0.931 . S
H229 C203 0.929 . S
H230 C204 0.930 . S
H231 C205 0.931 . S
H232 C212 0.932 . S
H233 C213 0.930 . S
H234 C214 0.929 . S
H235 C216 0.930 . S
H236 C218 0.932 1_554 S
H237 C219 0.929 1_554 S
H238 C220 0.932 . S
H239 C222 0.932 . S
C240 C241 1.264 . S
C240 C245 1.479 . S
C240 C250 1.465 . S
C241 C240 1.264 . S
C241 C243 1.339 . S
C241 H268 0.931 . S
C242 C243 1.395 . S
C242 C244 1.320 . S
C243 C241 1.339 . S
C243 C242 1.395 . S
C243 H269 0.929 . S
C244 C242 1.320 . S
C244 C245 1.405 . S
C244 H270 0.930 . S
C245 C240 1.479 . S
C245 C244 1.405 . S
C245 H271 0.931 . S
U246 O247 2.454 1_655 S
U246 O248 2.458 1_655 S
U246 C249 2.984 1_655 S
U246 C250 2.847 . S
U246 C263 2.882 . S
U246 O264 2.441 . S
U246 O265 2.420 . S
U246 O266 2.455 1_655 S
U246 O267 2.449 . S
O247 U246 2.454 1_455 S
O247 C249 1.353 . S
O248 U246 2.458 1_455 S
O248 C249 1.286 . S
C249 U246 2.984 1_455 S
C249 O247 1.353 . S
C249 O248 1.286 . S
C249 C251 1.363 . S
C250 C240 1.465 . S
C250 U246 2.847 . S
C250 O264 1.249 . S
C250 O265 1.202 . S
C251 C249 1.363 . S
C251 C253 1.408 . S
C251 C256 1.342 . S
C252 C253 1.310 . S
C252 C255 1.461 . S
C252 H272 0.932 . S
C253 C251 1.408 . S
C253 C252 1.310 . S
C253 H273 0.930 . S
C254 C255 1.474 . S
C254 C256 1.285 . S
C254 H274 0.929 . S
C255 C252 1.461 . S
C255 C254 1.474 . S
C256 C251 1.342 . S
C256 C254 1.285 . S
C256 H275 0.930 . S
C257 C260 1.424 . S
C257 C262 1.245 1_655 S
C257 C263 1.428 . S
C258 C261 1.260 1_455 S
C258 C262 1.477 . S
C258 H276 0.932 . S
C259 C260 1.384 . S
C259 C261 1.479 . S
C259 H277 0.929 . S
C260 C257 1.424 . S
C260 C259 1.384 . S
C260 H278 0.928 . S
C261 C258 1.260 1_655 S
C261 C259 1.479 . S
C262 C257 1.245 1_455 S
C262 C258 1.477 . S
C262 H279 0.932 . S
C263 U246 2.882 . S
C263 C257 1.428 . S
C263 O266 1.301 1_655 S
C263 O267 1.282 . S
O264 U246 2.441 . S
O264 C250 1.249 . S
O265 U246 2.420 . S
O265 C250 1.202 . S
O266 U246 2.455 1_455 S
O266 C263 1.301 1_455 S
O267 U246 2.449 . S
O267 C263 1.282 . S
H268 C241 0.931 . S
H269 C243 0.929 . S
H270 C244 0.930 . S
H271 C245 0.931 . S
H272 C252 0.932 . S
H273 C253 0.930 . S
H274 C254 0.929 . S
H275 C256 0.930 . S
H276 C258 0.932 . S
H277 C259 0.929 . S
H278 C260 0.928 . S
H279 C262 0.932 . S
C280 C281 1.264 . S
C280 C285 1.479 . S
C280 C290 1.465 . S
C281 C280 1.264 . S
C281 C283 1.339 . S
C281 H308 0.931 . S
C282 C283 1.395 . S
C282 C284 1.320 . S
C283 C281 1.339 . S
C283 C282 1.395 . S
C283 H309 0.929 . S
C284 C282 1.320 . S
C284 C285 1.405 . S
C284 H310 0.930 . S
C285 C280 1.479 . S
C285 C284 1.405 . S
C285 H311 0.931 . S
U286 O287 2.454 1_565 S
U286 O288 2.458 1_565 S
U286 C289 2.984 1_565 S
U286 C290 2.847 . S
U286 C303 2.882 . S
U286 O304 2.441 . S
U286 O305 2.420 . S
U286 O306 2.455 1_565 S
U286 O307 2.449 . S
O287 U286 2.454 1_545 S
O287 C289 1.353 . S
O288 U286 2.458 1_545 S
O288 C289 1.286 . S
C289 U286 2.984 1_545 S
C289 O287 1.353 . S
C289 O288 1.286 . S
C289 C291 1.363 . S
C290 C280 1.465 . S
C290 U286 2.847 . S
C290 O304 1.249 . S
C290 O305 1.202 . S
C291 C289 1.363 . S
C291 C293 1.408 . S
C291 C296 1.342 . S
C292 C293 1.310 . S
C292 C295 1.461 . S
C292 H312 0.932 . S
C293 C291 1.408 . S
C293 C292 1.310 . S
C293 H313 0.930 . S
C294 C295 1.474 . S
C294 C296 1.285 . S
C294 H314 0.929 . S
C295 C292 1.461 . S
C295 C294 1.474 . S
C296 C291 1.342 . S
C296 C294 1.285 . S
C296 H315 0.930 . S
C297 C300 1.424 . S
C297 C302 1.245 1_565 S
C297 C303 1.428 . S
C298 C301 1.260 1_545 S
C298 C302 1.477 . S
C298 H316 0.932 . S
C299 C300 1.384 . S
C299 C301 1.479 . S
C299 H317 0.929 . S
C300 C297 1.424 . S
C300 C299 1.384 . S
C300 H318 0.928 . S
C301 C298 1.260 1_565 S
C301 C299 1.479 . S
C302 C297 1.245 1_545 S
C302 C298 1.477 . S
C302 H319 0.932 . S
C303 U286 2.882 . S
C303 C297 1.428 . S
C303 O306 1.301 1_565 S
C303 O307 1.282 . S
O304 U286 2.441 . S
O304 C290 1.249 . S
O305 U286 2.420 . S
O305 C290 1.202 . S
O306 U286 2.455 1_545 S
O306 C303 1.301 1_545 S
O307 U286 2.449 . S
O307 C303 1.282 . S
H308 C281 0.931 . S
H309 C283 0.929 . S
H310 C284 0.930 . S
H311 C285 0.931 . S
H312 C292 0.932 . S
H313 C293 0.930 . S
H314 C294 0.929 . S
H315 C296 0.930 . S
H316 C298 0.932 . S
H317 C299 0.929 . S
H318 C300 0.928 . S
H319 C302 0.932 . S
C320 C321 1.264 . S
C320 C325 1.479 . S
C320 C330 1.465 . S
C321 C320 1.264 . S
C321 C323 1.339 . S
C321 H348 0.931 . S
C322 C323 1.395 . S
C322 C324 1.320 . S
C323 C321 1.339 . S
C323 C322 1.395 . S
C323 H349 0.929 . S
C324 C322 1.320 . S
C324 C325 1.405 . S
C324 H350 0.930 . S
C325 C320 1.479 . S
C325 C324 1.405 . S
C325 H351 0.931 . S
U326 O327 2.454 . S
U326 O328 2.458 . S
U326 C329 2.984 . S
U326 C330 2.847 . S
U326 C343 2.882 . S
U326 O344 2.441 . S
U326 O345 2.420 . S
U326 O346 2.455 . S
U326 O347 2.449 . S
O327 U326 2.454 . S
O327 C329 1.353 . S
O328 U326 2.458 . S
O328 C329 1.286 . S
C329 U326 2.984 . S
C329 O327 1.353 . S
C329 O328 1.286 . S
C329 C331 1.363 . S
C330 C320 1.465 . S
C330 U326 2.847 . S
C330 O344 1.249 . S
C330 O345 1.202 . S
C331 C329 1.363 . S
C331 C333 1.408 . S
C331 C336 1.342 . S
C332 C333 1.310 . S
C332 C335 1.461 . S
C332 H352 0.932 . S
C333 C331 1.408 . S
C333 C332 1.310 . S
C333 H353 0.930 . S
C334 C335 1.474 . S
C334 C336 1.285 . S
C334 H354 0.929 . S
C335 C332 1.461 . S
C335 C334 1.474 . S
C336 C331 1.342 . S
C336 C334 1.285 . S
C336 H355 0.930 . S
C337 C340 1.426 . S
C337 C342 1.245 1_554 S
C337 C343 1.428 . S
C338 C341 1.260 . S
C338 C342 1.477 . S
C338 H356 0.932 . S
C339 C340 1.377 1_556 S
C339 C341 1.479 . S
C339 H357 0.929 . S
C340 C337 1.426 . S
C340 C339 1.377 1_554 S
C340 H358 0.932 . S
C341 C338 1.260 . S
C341 C339 1.479 . S
C342 C337 1.245 1_556 S
C342 C338 1.477 . S
C342 H359 0.932 1_556 S
C343 U326 2.882 . S
C343 C337 1.428 . S
C343 O346 1.301 . S
C343 O347 1.282 . S
O344 U326 2.441 . S
O344 C330 1.249 . S
O345 U326 2.420 . S
O345 C330 1.202 . S
O346 U326 2.455 . S
O346 C343 1.301 . S
O347 U326 2.449 . S
O347 C343 1.282 . S
H348 C321 0.931 . S
H349 C323 0.929 . S
H350 C324 0.930 . S
H351 C325 0.931 . S
H352 C332 0.932 . S
H353 C333 0.930 . S
H354 C334 0.929 . S
H355 C336 0.930 . S
H356 C338 0.932 . S
H357 C339 0.929 . S
H358 C340 0.932 . S
H359 C342 0.932 1_554 S
C360 C361 1.369 . S
C360 C362 1.419 . S
C360 H364 0.930 . S
C361 C360 1.369 . S
C361 C370 1.429 . S
C362 C360 1.419 . S
C362 C363 1.363 . S
C362 H365 0.929 . S
C363 C362 1.363 . S
C363 C369 1.428 . S
H364 C360 0.930 . S
H365 C362 0.929 . S
S366 N367 1.613 . S
S366 N368 1.610 . S
N367 S366 1.613 . S
N367 C370 1.350 . S
N368 S366 1.610 . S
N368 C369 1.351 . S
C369 C363 1.428 . S
C369 N368 1.351 . S
C369 C370 1.434 . S
C370 C361 1.429 . S
C370 N367 1.350 . S
C370 C369 1.434 . S
C371 C372 1.369 . S
C371 C373 1.419 . S
C371 H375 0.930 . S
C372 C371 1.369 . S
C372 C381 1.429 . S
C373 C371 1.419 . S
C373 C374 1.363 . S
C373 H376 0.929 . S
C374 C373 1.363 . S
C374 C380 1.428 . S
H375 C371 0.930 . S
H376 C373 0.929 . S
S377 N378 1.613 . S
S377 N379 1.610 . S
N378 S377 1.613 . S
N378 C381 1.350 . S
N379 S377 1.610 . S
N379 C380 1.351 . S
C380 C374 1.428 . S
C380 N379 1.351 . S
C380 C381 1.434 . S
C381 C372 1.429 . S
C381 N378 1.350 . S
C381 C380 1.434 . S
C382 C383 1.369 . S
C382 C384 1.419 . S
C382 H386 0.930 . S
C383 C382 1.369 . S
C383 C392 1.429 . S
C384 C382 1.419 . S
C384 C385 1.363 . S
C384 H387 0.929 . S
C385 C384 1.363 . S
C385 C391 1.428 . S
H386 C382 0.930 . S
H387 C384 0.929 . S
S388 N389 1.613 . S
S388 N390 1.610 . S
N389 S388 1.613 . S
N389 C392 1.350 . S
N390 S388 1.610 . S
N390 C391 1.351 . S
C391 C385 1.428 . S
C391 N390 1.351 . S
C391 C392 1.434 . S
C392 C383 1.429 . S
C392 N389 1.350 . S
C392 C391 1.434 . S
C393 C394 1.369 . S
C393 C395 1.419 . S
C393 H397 0.930 . S
C394 C393 1.369 . S
C394 C403 1.429 . S
C395 C393 1.419 . S
C395 C396 1.363 . S
C395 H398 0.929 . S
C396 C395 1.363 . S
C396 C402 1.428 . S
H397 C393 0.930 . S
H398 C395 0.929 . S
S399 N400 1.613 . S
S399 N401 1.610 . S
N400 S399 1.613 . S
N400 C403 1.350 . S
N401 S399 1.610 . S
N401 C402 1.351 . S
C402 C396 1.428 . S
C402 N401 1.351 . S
C402 C403 1.434 . S
C403 C394 1.429 . S
C403 N400 1.350 . S
C403 C402 1.434 . S
C404 C405 1.369 . S
C404 C406 1.419 . S
C404 H408 0.930 . S
C405 C404 1.369 . S
C405 C414 1.429 . S
C406 C404 1.419 . S
C406 C407 1.363 . S
C406 H409 0.929 . S
C407 C406 1.363 . S
C407 C413 1.428 . S
H408 C404 0.930 . S
H409 C406 0.929 . S
S410 N411 1.613 . S
S410 N412 1.610 . S
N411 S410 1.613 . S
N411 C414 1.350 . S
N412 S410 1.610 . S
N412 C413 1.351 . S
C413 C407 1.428 . S
C413 N412 1.351 . S
C413 C414 1.434 . S
C414 C405 1.429 . S
C414 N411 1.350 . S
C414 C413 1.434 . S
C415 C416 1.369 . S
C415 C417 1.419 . S
C415 H419 0.930 . S
C416 C415 1.369 . S
C416 C425 1.429 . S
C417 C415 1.419 . S
C417 C418 1.363 . S
C417 H420 0.929 . S
C418 C417 1.363 . S
C418 C424 1.428 . S
H419 C415 0.930 . S
H420 C417 0.929 . S
S421 N422 1.613 . S
S421 N423 1.610 . S
N422 S421 1.613 . S
N422 C425 1.350 . S
N423 S421 1.610 . S
N423 C424 1.351 . S
C424 C418 1.428 . S
C424 N423 1.351 . S
C424 C425 1.434 . S
C425 C416 1.429 . S
C425 N422 1.350 . S
C425 C424 1.434 . S
C426 C427 1.369 . S
C426 C428 1.419 . S
C426 H430 0.930 . S
C427 C426 1.369 . S
C427 C436 1.429 . S
C428 C426 1.419 . S
C428 C429 1.363 . S
C428 H431 0.929 . S
C429 C428 1.363 . S
C429 C435 1.428 . S
H430 C426 0.930 . S
H431 C428 0.929 . S
S432 N433 1.613 . S
S432 N434 1.610 . S
N433 S432 1.613 . S
N433 C436 1.350 . S
N434 S432 1.610 . S
N434 C435 1.351 . S
C435 C429 1.428 . S
C435 N434 1.351 . S
C435 C436 1.434 . S
C436 C427 1.429 . S
C436 N433 1.350 . S
C436 C435 1.434 . S
C437 C438 1.369 . S
C437 C439 1.419 . S
C437 H441 0.930 . S
C438 C437 1.369 . S
C438 C447 1.429 . S
C439 C437 1.419 . S
C439 C440 1.363 . S
C439 H442 0.929 . S
C440 C439 1.363 . S
C440 C446 1.428 . S
H441 C437 0.930 . S
H442 C439 0.929 . S
S443 N444 1.613 . S
S443 N445 1.610 . S
N444 S443 1.613 . S
N444 C447 1.350 . S
N445 S443 1.610 . S
N445 C446 1.351 . S
C446 C440 1.428 . S
C446 N445 1.351 . S
C446 C447 1.434 . S
C447 C438 1.429 . S
C447 N444 1.350 . S
C447 C446 1.434 . S
C448 C449 1.369 . S
C448 C450 1.419 . S
C448 H452 0.930 . S
C449 C448 1.369 . S
C449 C458 1.429 . S
C450 C448 1.419 . S
C450 C451 1.363 . S
C450 H453 0.929 . S
C451 C450 1.363 . S
C451 C457 1.428 . S
H452 C448 0.930 . S
H453 C450 0.929 . S
S454 N455 1.613 . S
S454 N456 1.610 . S
N455 S454 1.613 . S
N455 C458 1.350 . S
N456 S454 1.610 . S
N456 C457 1.351 . S
C457 C451 1.428 . S
C457 N456 1.351 . S
C457 C458 1.434 . S
C458 C449 1.429 . S
C458 N455 1.350 . S
C458 C457 1.434 . S
C459 C460 1.369 . S
C459 C461 1.419 . S
C459 H463 0.930 . S
C460 C459 1.369 . S
C460 C469 1.429 . S
C461 C459 1.419 . S
C461 C462 1.363 . S
C461 H464 0.929 . S
C462 C461 1.363 . S
C462 C468 1.428 . S
H463 C459 0.930 . S
H464 C461 0.929 . S
S465 N466 1.613 . S
S465 N467 1.610 . S
N466 S465 1.613 . S
N466 C469 1.350 . S
N467 S465 1.610 . S
N467 C468 1.351 . S
C468 C462 1.428 . S
C468 N467 1.351 . S
C468 C469 1.434 . S
C469 C460 1.429 . S
C469 N466 1.350 . S
C469 C468 1.434 . S
C470 C471 1.369 . S
C470 C472 1.419 . S
C470 H474 0.930 . S
C471 C470 1.369 . S
C471 C480 1.429 . S
C472 C470 1.419 . S
C472 C473 1.363 . S
C472 H475 0.929 . S
C473 C472 1.363 . S
C473 C479 1.428 . S
H474 C470 0.930 . S
H475 C472 0.929 . S
S476 N477 1.613 . S
S476 N478 1.610 . S
N477 S476 1.613 . S
N477 C480 1.350 . S
N478 S476 1.610 . S
N478 C479 1.351 . S
C479 C473 1.428 . S
C479 N478 1.351 . S
C479 C480 1.434 . S
C480 C471 1.429 . S
C480 N477 1.350 . S
C480 C479 1.434 . S
C481 C482 1.369 . S
C481 C483 1.419 . S
C481 H485 0.930 . S
C482 C481 1.369 . S
C482 C491 1.429 . S
C483 C481 1.419 . S
C483 C484 1.363 . S
C483 H486 0.929 . S
C484 C483 1.363 . S
C484 C490 1.428 . S
H485 C481 0.930 . S
H486 C483 0.929 . S
S487 N488 1.613 . S
S487 N489 1.610 . S
N488 S487 1.613 . S
N488 C491 1.350 . S
N489 S487 1.610 . S
N489 C490 1.351 . S
C490 C484 1.428 . S
C490 N489 1.351 . S
C490 C491 1.434 . S
C491 C482 1.429 . S
C491 N488 1.350 . S
C491 C490 1.434 . S
C492 C493 1.369 . S
C492 C494 1.419 . S
C492 H496 0.930 . S
C493 C492 1.369 . S
C493 C502 1.429 1_455 S
C494 C492 1.419 . S
C494 C495 1.363 . S
C494 H497 0.929 . S
C495 C494 1.363 . S
C495 C501 1.428 1_455 S
H496 C492 0.930 . S
H497 C494 0.929 . S
S498 N499 1.613 . S
S498 N500 1.610 . S
N499 S498 1.613 . S
N499 C502 1.350 . S
N500 S498 1.610 . S
N500 C501 1.351 . S
C501 C495 1.428 1_655 S
C501 N500 1.351 . S
C501 C502 1.434 . S
C502 C493 1.429 1_655 S
C502 N499 1.350 . S
C502 C501 1.434 . S
C503 C504 1.369 1_565 S
C503 C505 1.419 . S
C503 H507 0.930 . S
C504 C503 1.369 1_545 S
C504 C513 1.429 . S
C505 C503 1.419 . S
C505 C506 1.363 1_565 S
C505 H508 0.929 . S
C506 C505 1.363 1_545 S
C506 C512 1.428 . S
H507 C503 0.930 . S
H508 C505 0.929 . S
S509 N510 1.613 . S
S509 N511 1.610 . S
N510 S509 1.613 . S
N510 C513 1.350 . S
N511 S509 1.610 . S
N511 C512 1.351 . S
C512 C506 1.428 . S
C512 N511 1.351 . S
C512 C513 1.434 . S
C513 C504 1.429 . S
C513 N510 1.350 . S
C513 C512 1.434 . S
C514 C515 1.369 . S
C514 C516 1.419 . S
C514 H518 0.930 . S
C515 C514 1.369 . S
C515 C524 1.429 . S
C516 C514 1.419 . S
C516 C517 1.363 . S
C516 H519 0.929 . S
C517 C516 1.363 . S
C517 C523 1.428 . S
H518 C514 0.930 . S
H519 C516 0.929 . S
S520 N521 1.613 . S
S520 N522 1.610 . S
N521 S520 1.613 . S
N521 C524 1.350 . S
N522 S520 1.610 . S
N522 C523 1.351 . S
C523 C517 1.428 . S
C523 N522 1.351 . S
C523 C524 1.434 . S
C524 C515 1.429 . S
C524 N521 1.350 . S
C524 C523 1.434 . S
C525 C526 1.369 . S
C525 C527 1.419 . S
C525 H529 0.930 . S
C526 C525 1.369 . S
C526 C535 1.429 1_545 S
C527 C525 1.419 . S
C527 C528 1.363 1_545 S
C527 H530 0.929 . S
C528 C527 1.363 1_565 S
C528 C534 1.428 . S
H529 C525 0.930 . S
H530 C527 0.929 . S
S531 N532 1.613 . S
S531 N533 1.610 . S
N532 S531 1.613 . S
N532 C535 1.350 . S
N533 S531 1.610 . S
N533 C534 1.351 . S
C534 C528 1.428 . S
C534 N533 1.351 . S
C534 C535 1.434 . S
C535 C526 1.429 1_565 S
C535 N532 1.350 . S
C535 C534 1.434 . S
C536 C537 1.369 . S
C536 C538 1.419 . S
C536 H540 0.930 . S
C537 C536 1.369 . S
C537 C546 1.429 . S
C538 C536 1.419 . S
C538 C539 1.363 . S
C538 H541 0.929 . S
C539 C538 1.363 . S
C539 C545 1.428 . S
H540 C536 0.930 . S
H541 C538 0.929 . S
S542 N543 1.613 . S
S542 N544 1.610 . S
N543 S542 1.613 . S
N543 C546 1.350 . S
N544 S542 1.610 . S
N544 C545 1.351 . S
C545 C539 1.428 . S
C545 N544 1.351 . S
C545 C546 1.434 . S
C546 C537 1.429 . S
C546 N543 1.350 . S
C546 C545 1.434 . S
C547 C548 1.369 . S
C547 C549 1.419 1_455 S
C547 H551 0.930 . S
C548 C547 1.369 . S
C548 C557 1.429 . S
C549 C547 1.419 1_655 S
C549 C550 1.363 . S
C549 H552 0.929 . S
C550 C549 1.363 . S
C550 C556 1.440 . S
H551 C547 0.930 . S
H552 C549 0.929 . S
S553 N554 1.613 1_655 S
S553 N555 1.610 . S
N554 S553 1.613 1_455 S
N554 C557 1.350 . S
N555 S553 1.610 . S
N555 C556 1.342 . S
C556 C550 1.440 . S
C556 N555 1.342 . S
C556 C557 1.432 1_655 S
C557 C548 1.429 . S
C557 N554 1.350 . S
C557 C556 1.432 1_455 S
C361 C7 0.881 . S
C363 C335 0.910 . S
C372 C51 2.080 . S
C374 C242 2.048 . S
C383 C87 1.314 . S
C385 C282 1.341 . S
C394 C16 0.550 . S
C396 C322 0.486 . S
C407 C255 2.167 . S
C405 C42 2.292 . S
C418 C295 1.379 . S
C416 C96 1.379 . S
C427 C47 1.259 . S
C429 C162 1.252 . S
C438 C91 3.255 . S
C440 C202 3.205 . S
C449 C2 2.324 . S
C451 C135 2.210 . S
C462 C175 1.375 . S
C460 C56 1.358 . S
C473 C215 3.106 . S
C471 C82 3.195 . S
C482 C11 2.079 . S
C484 C122 2.044 . S
C495 C221 1.765 . S
C493 C19 1.725 . S
C504 C50 1.355 . S
C506 C141 1.380 . S
C515 C99 1.475 . S
C517 C181 1.509 . S
C528 C301 1.501 . S
C526 C59 1.467 . S
C539 C341 1.124 . S
C537 C90 1.120 . S
C548 C10 1.341 . S
C550 C261 1.370 . S
