# Generated by pormake.
# Topology myd, (4,6)-cn, num edge types: 1
# Building blocks:
#     Node 0, Type 0, BuildingBlock: KOZSID_clean_sbu_0, # of connection points: 4
#     Node 1, Type 0, BuildingBlock: KOZSID_clean_sbu_0, # of connection points: 4
#     Node 2, Type 0, BuildingBlock: KOZSID_clean_sbu_0, # of connection points: 4
#     Node 3, Type 0, BuildingBlock: KOZSID_clean_sbu_0, # of connection points: 4
#     Node 4, Type 0, BuildingBlock: KOZSID_clean_sbu_0, # of connection points: 4
#     Node 5, Type 0, BuildingBlock: KOZSID_clean_sbu_0, # of connection points: 4
#     Node 6, Type 0, BuildingBlock: KOZSID_clean_sbu_0, # of connection points: 4
#     Node 7, Type 0, BuildingBlock: KOZSID_clean_sbu_0, # of connection points: 4
#     Node 8, Type 0, BuildingBlock: KOZSID_clean_sbu_0, # of connection points: 4
#     Node 9, Type 0, BuildingBlock: KOZSID_clean_sbu_0, # of connection points: 4
#     Node 10, Type 0, BuildingBlock: KOZSID_clean_sbu_0, # of connection points: 4
#     Node 11, Type 0, BuildingBlock: KOZSID_clean_sbu_0, # of connection points: 4
#     Node 12, Type 1, BuildingBlock: CUWYAW_clean_sbu_0, # of connection points: 6
#     Node 13, Type 1, BuildingBlock: CUWYAW_clean_sbu_0, # of connection points: 6
#     Node 14, Type 1, BuildingBlock: CUWYAW_clean_sbu_0, # of connection points: 6
#     Node 15, Type 1, BuildingBlock: CUWYAW_clean_sbu_0, # of connection points: 6
#     Node 16, Type 1, BuildingBlock: CUWYAW_clean_sbu_0, # of connection points: 6
#     Node 17, Type 1, BuildingBlock: CUWYAW_clean_sbu_0, # of connection points: 6
#     Node 18, Type 1, BuildingBlock: CUWYAW_clean_sbu_0, # of connection points: 6
#     Node 19, Type 1, BuildingBlock: CUWYAW_clean_sbu_0, # of connection points: 6
#     Edge 20, Type (0, 1), BuildingBlock: MIFKUJ_clean_linker_0, # of connection points: 2
#     Edge 21, Type (0, 1), BuildingBlock: MIFKUJ_clean_linker_0, # of connection points: 2
#     Edge 22, Type (0, 1), BuildingBlock: MIFKUJ_clean_linker_0, # of connection points: 2
#     Edge 23, Type (0, 1), BuildingBlock: MIFKUJ_clean_linker_0, # of connection points: 2
#     Edge 24, Type (0, 1), BuildingBlock: MIFKUJ_clean_linker_0, # of connection points: 2
#     Edge 25, Type (0, 1), BuildingBlock: MIFKUJ_clean_linker_0, # of connection points: 2
#     Edge 26, Type (0, 1), BuildingBlock: MIFKUJ_clean_linker_0, # of connection points: 2
#     Edge 27, Type (0, 1), BuildingBlock: MIFKUJ_clean_linker_0, # of connection points: 2
#     Edge 28, Type (0, 1), BuildingBlock: MIFKUJ_clean_linker_0, # of connection points: 2
#     Edge 29, Type (0, 1), BuildingBlock: MIFKUJ_clean_linker_0, # of connection points: 2
#     Edge 30, Type (0, 1), BuildingBlock: MIFKUJ_clean_linker_0, # of connection points: 2
#     Edge 31, Type (0, 1), BuildingBlock: MIFKUJ_clean_linker_0, # of connection points: 2
#     Edge 32, Type (0, 1), BuildingBlock: MIFKUJ_clean_linker_0, # of connection points: 2
#     Edge 33, Type (0, 1), BuildingBlock: MIFKUJ_clean_linker_0, # of connection points: 2
#     Edge 34, Type (0, 1), BuildingBlock: MIFKUJ_clean_linker_0, # of connection points: 2
#     Edge 35, Type (0, 1), BuildingBlock: MIFKUJ_clean_linker_0, # of connection points: 2
#     Edge 36, Type (0, 1), BuildingBlock: MIFKUJ_clean_linker_0, # of connection points: 2
#     Edge 37, Type (0, 1), BuildingBlock: MIFKUJ_clean_linker_0, # of connection points: 2
#     Edge 38, Type (0, 1), BuildingBlock: MIFKUJ_clean_linker_0, # of connection points: 2
#     Edge 39, Type (0, 1), BuildingBlock: MIFKUJ_clean_linker_0, # of connection points: 2
#     Edge 40, Type (0, 1), BuildingBlock: MIFKUJ_clean_linker_0, # of connection points: 2
#     Edge 41, Type (0, 1), BuildingBlock: MIFKUJ_clean_linker_0, # of connection points: 2
#     Edge 42, Type (0, 1), BuildingBlock: MIFKUJ_clean_linker_0, # of connection points: 2
#     Edge 43, Type (0, 1), BuildingBlock: MIFKUJ_clean_linker_0, # of connection points: 2
#     Edge 44, Type (0, 1), BuildingBlock: MIFKUJ_clean_linker_0, # of connection points: 2
#     Edge 45, Type (0, 1), BuildingBlock: MIFKUJ_clean_linker_0, # of connection points: 2
#     Edge 46, Type (0, 1), BuildingBlock: MIFKUJ_clean_linker_0, # of connection points: 2
#     Edge 47, Type (0, 1), BuildingBlock: MIFKUJ_clean_linker_0, # of connection points: 2
#     Edge 48, Type (0, 1), BuildingBlock: MIFKUJ_clean_linker_0, # of connection points: 2
#     Edge 49, Type (0, 1), BuildingBlock: MIFKUJ_clean_linker_0, # of connection points: 2
#     Edge 50, Type (0, 1), BuildingBlock: MIFKUJ_clean_linker_0, # of connection points: 2
#     Edge 51, Type (0, 1), BuildingBlock: MIFKUJ_clean_linker_0, # of connection points: 2
#     Edge 52, Type (0, 1), BuildingBlock: MIFKUJ_clean_linker_0, # of connection points: 2
#     Edge 53, Type (0, 1), BuildingBlock: MIFKUJ_clean_linker_0, # of connection points: 2
#     Edge 54, Type (0, 1), BuildingBlock: MIFKUJ_clean_linker_0, # of connection points: 2
#     Edge 55, Type (0, 1), BuildingBlock: MIFKUJ_clean_linker_0, # of connection points: 2
#     Edge 56, Type (0, 1), BuildingBlock: MIFKUJ_clean_linker_0, # of connection points: 2
#     Edge 57, Type (0, 1), BuildingBlock: MIFKUJ_clean_linker_0, # of connection points: 2
#     Edge 58, Type (0, 1), BuildingBlock: MIFKUJ_clean_linker_0, # of connection points: 2
#     Edge 59, Type (0, 1), BuildingBlock: MIFKUJ_clean_linker_0, # of connection points: 2
#     Edge 60, Type (0, 1), BuildingBlock: MIFKUJ_clean_linker_0, # of connection points: 2
#     Edge 61, Type (0, 1), BuildingBlock: MIFKUJ_clean_linker_0, # of connection points: 2
#     Edge 62, Type (0, 1), BuildingBlock: MIFKUJ_clean_linker_0, # of connection points: 2
#     Edge 63, Type (0, 1), BuildingBlock: MIFKUJ_clean_linker_0, # of connection points: 2
#     Edge 64, Type (0, 1), BuildingBlock: MIFKUJ_clean_linker_0, # of connection points: 2
#     Edge 65, Type (0, 1), BuildingBlock: MIFKUJ_clean_linker_0, # of connection points: 2
#     Edge 66, Type (0, 1), BuildingBlock: MIFKUJ_clean_linker_0, # of connection points: 2
#     Edge 67, Type (0, 1), BuildingBlock: MIFKUJ_clean_linker_0, # of connection points: 2
# Relax obj value: 0.302
# Max RMSD: 0.366
# Mean RMSD: 0.184
data_MOF--net-myd--node1-KOZSID_clean_sbu_0--node2-CUWYAW_clean_sbu_0--edge1-MIFKUJ_clean_linker_0
_symmetry_space_group_name_H-M    P1
_symmetry_Int_Tables_number       1
_symmetry_cell_setting            triclinic
loop_
_symmetry_equiv_pos_as_xyz
'x, y, z'
_cell_length_a     68.14498
_cell_length_b     67.4415
_cell_length_c     67.693132
_cell_angle_alpha  89.729744
_cell_angle_beta   88.734078
_cell_angle_gamma 88.408999
loop_
_atom_site_label
_atom_site_type_symbol
_atom_site_fract_x
_atom_site_fract_y
_atom_site_fract_z
_atom_type_partial_charge
C0 C 0.02133 0.33914 0.37395 0.0
C1 C 1.00289 0.34227 0.38267 0.0
C2 C 0.99075 0.32903 0.37439 0.0
C3 C 1.00238 0.31844 0.36122 0.0
N4 N 0.02136 0.32378 0.36082 0.0
Co5 Co 0.04294 0.31211 0.3433 0.0
N6 N 0.0243 0.29512 0.3289 0.0
C7 C 1.0048 0.29386 0.33254 0.0
C8 C 0.99588 0.28031 0.32096 0.0
C9 C 0.01059 0.27237 0.30922 0.0
C10 C 0.0277 0.28166 0.31429 0.0
N11 N 0.06465 0.30081 0.32597 0.0
C12 C 0.06426 0.2872 0.31134 0.0
C13 C 0.08276 0.28399 0.30269 0.0
C14 C 0.09533 0.29557 0.31256 0.0
C15 C 0.08384 0.30527 0.32648 0.0
N16 N 0.06137 0.32959 0.35776 0.0
C17 C 0.08102 0.3303 0.35466 0.0
C18 C 0.08974 0.3449 0.36501 0.0
C19 C 0.07483 0.35436 0.37521 0.0
C20 C 0.05768 0.34483 0.37072 0.0
N21 N 0.0477 0.2892 0.36243 0.0
C22 C 0.05501 0.25083 0.38036 0.0
C23 C 0.0703 0.26373 0.37547 0.0
C24 C 0.06639 0.28257 0.36679 0.0
C25 C 0.03591 0.25839 0.37718 0.0
C26 C 0.03265 0.27735 0.36864 0.0
N27 N 0.03827 0.33377 0.32324 0.0
C28 C 0.05079 0.3552 0.29704 0.0
C29 C 0.03187 0.35948 0.28999 0.0
C30 C 0.01621 0.35118 0.30078 0.0
C31 C 0.01968 0.3386 0.3171 0.0
C32 C 0.05359 0.34271 0.31355 0.0
H33 H 0.00706 0.33264 0.32438 0.0
H34 H 0.06839 0.34011 0.31795 0.0
H35 H 0.07882 0.2913 0.36315 0.0
H36 H 0.0177 0.28185 0.3668 0.0
C37 C 0.99553 0.3048 0.3477 0.0
C38 C 0.0382 0.35141 0.37851 0.0
C39 C 0.04692 0.27661 0.30545 0.0
C40 C 0.09052 0.31881 0.34009 0.0
H41 H 0.99854 0.35324 0.39364 0.0
H42 H 0.97513 0.32774 0.37715 0.0
H43 H 0.98061 0.27631 0.32135 0.0
H44 H 0.00893 0.26076 0.29847 0.0
H45 H 0.08682 0.27419 0.29058 0.0
H46 H 0.11097 0.29677 0.3099 0.0
H47 H 0.10502 0.3489 0.36437 0.0
H48 H 0.07646 0.36733 0.38427 0.0
H49 H 0.08544 0.25914 0.37766 0.0
H50 H 0.02329 0.24974 0.38126 0.0
H51 H 0.06366 0.36094 0.28959 0.0
H52 H 1.00116 0.3543 0.29676 0.0
C53 C 0.99707 0.72266 0.21933 0.0
C54 C 0.97843 0.71796 0.21322 0.0
C55 C 0.96546 0.73027 0.2231 0.0
C56 C 0.97676 0.7417 0.23474 0.0
N57 N 0.99626 0.73756 0.2328 0.0
Co58 Co 0.01771 0.74933 0.24847 0.0
N59 N 0.99825 0.76554 0.26467 0.0
C60 C 0.97846 0.76534 0.26389 0.0
C61 C 0.96911 0.77893 0.27608 0.0
C62 C 0.98383 0.78878 0.28477 0.0
C63 C 1.00135 0.78049 0.27738 0.0
N64 N 0.03919 0.76137 0.26382 0.0
C65 C 0.03826 0.77715 0.2761 0.0
C66 C 0.05669 0.78229 0.28231 0.0
C67 C 0.06986 0.76959 0.27314 0.0
C68 C 0.05872 0.7575 0.26195 0.0
N69 N 0.03713 0.73273 0.23256 0.0
C70 C 0.05692 0.73226 0.23412 0.0
C71 C 0.06634 0.71907 0.22158 0.0
C72 C 0.05172 0.71022 0.21173 0.0
C73 C 0.03411 0.71848 0.21893 0.0
N74 N 0.01984 0.77165 0.22948 0.0
C75 C 0.02526 0.81015 0.21449 0.0
C76 C 0.04103 0.79655 0.21586 0.0
C77 C 0.03794 0.77743 0.22289 0.0
C78 C 0.0064 0.80336 0.21885 0.0
C79 C 1.00402 0.78404 0.226 0.0
N80 N 0.01575 0.72755 0.26804 0.0
C81 C 0.0315 0.70538 0.29124 0.0
C82 C 0.01334 0.69978 0.299 0.0
C83 C 0.99637 0.70769 0.29045 0.0
C84 C 0.99791 0.72137 0.27505 0.0
C85 C 0.03235 0.719 0.27579 0.0
H86 H 0.98445 0.72684 0.26921 0.0
H87 H 0.04663 0.72264 0.27065 0.0
H88 H 0.05064 0.76801 0.22395 0.0
H89 H 0.98938 0.77973 0.22955 0.0
C90 C 0.96931 0.75443 0.24946 0.0
C91 C 0.01494 0.71178 0.21285 0.0
C92 C 0.02045 0.78858 0.28103 0.0
C93 C 0.0662 0.74397 0.24793 0.0
H94 H 0.97444 0.70633 0.20325 0.0
H95 H 0.9496 0.73017 0.22263 0.0
H96 H 0.9535 0.78219 0.27747 0.0
H97 H 0.98186 0.80131 0.2946 0.0
H98 H 0.06025 0.79449 0.29181 0.0
H99 H 0.08572 0.76984 0.27373 0.0
H100 H 0.08197 0.71598 0.22007 0.0
H101 H 0.05377 0.6987 0.20075 0.0
H102 H 0.05595 0.8008 0.21253 0.0
H103 H 0.99356 0.81299 0.21722 0.0
H104 H 0.04511 0.69974 0.29738 0.0
H105 H 0.98193 0.70339 0.29561 0.0
C106 C 0.38331 0.02585 0.33181 0.0
C107 C 0.38937 1.00627 0.33454 0.0
C108 C 0.38312 0.99591 0.31849 0.0
C109 C 0.37367 0.00965 0.30672 0.0
N110 N 0.37372 0.02801 0.31434 0.0
Co111 Co 0.35996 0.05165 0.3029 0.0
N112 N 0.34213 0.03553 0.2869 0.0
C113 C 0.34552 0.01629 0.28244 0.0
C114 C 0.33153 1.00882 0.27047 0.0
C115 C 0.31868 0.02439 0.26691 0.0
C116 C 0.32543 0.04063 0.27703 0.0
N117 N 0.34612 0.07556 0.29193 0.0
C118 C 0.32899 0.07759 0.28189 0.0
C119 C 0.32516 0.09743 0.27742 0.0
C120 C 0.3406 0.1079 0.28423 0.0
C121 C 0.35298 0.09406 0.29267 0.0
N122 N 0.37775 0.0674 0.31935 0.0
C123 C 0.38116 0.08677 0.31674 0.0
C124 C 0.39237 0.09433 0.33139 0.0
C125 C 0.39613 0.07879 0.34407 0.0
C126 C 0.38717 0.06237 0.33642 0.0
N127 N 0.37874 0.05223 0.27995 0.0
C128 C 0.40349 0.05311 0.24546 0.0
C129 C 0.41119 0.04927 0.26439 0.0
C130 C 0.3986 0.04893 0.28141 0.0
C131 C 0.38321 0.05688 0.24465 0.0
C132 C 0.37133 0.05614 0.26166 0.0
N133 N 0.34108 0.05121 0.32483 0.0
C134 C 0.32117 0.06861 0.34916 0.0
C135 C 0.31276 0.05082 0.355 0.0
C136 C 0.31892 0.03318 0.34575 0.0
C137 C 0.33298 0.03373 0.33055 0.0
C138 C 0.3355 0.06845 0.33418 0.0
H139 H 0.33711 0.02004 0.32326 0.0
H140 H 0.34186 0.08232 0.33 0.0
H141 H 0.40486 0.04588 0.29568 0.0
H142 H 0.35592 0.05882 0.2597 0.0
C143 C 0.36066 1.00533 0.2916 0.0
C144 C 0.38796 0.04219 0.34548 0.0
C145 C 0.31708 0.06104 0.27474 0.0
C146 C 0.36952 0.09811 0.30383 0.0
H147 H 0.39725 1.00009 0.34694 0.0
H148 H 0.38421 0.98002 0.31634 0.0
H149 H 0.33064 0.99378 0.2651 0.0
H150 H 0.30612 0.02394 0.25744 0.0
H151 H 0.31265 0.10375 0.26983 0.0
H152 H 0.3423 0.1238 0.28359 0.0
H153 H 0.39604 0.10967 0.33354 0.0
H154 H 0.40398 0.0798 0.35771 0.0
H155 H 0.42674 0.04625 0.26608 0.0
H156 H 0.37624 0.06064 0.23087 0.0
H157 H 0.31669 0.08249 0.35612 0.0
H158 H 0.31248 0.01919 0.34984 0.0
C159 C 0.67004 0.50857 0.32624 0.0
C160 C 0.66089 0.49151 0.32033 0.0
C161 C 0.66559 0.47712 0.33377 0.0
C162 C 0.67745 0.48608 0.34694 0.0
N163 N 0.68005 0.50551 0.34305 0.0
Co164 Co 0.69786 0.52386 0.35661 0.0
N165 N 0.71054 0.50119 0.37105 0.0
C166 C 0.70613 0.48179 0.37003 0.0
C167 C 0.71731 0.46973 0.38188 0.0
C168 C 0.72951 0.4822 0.39113 0.0
C169 C 0.72495 0.50123 0.38433 0.0
N170 N 0.71513 0.54247 0.37054 0.0
C171 C 0.7284 0.53861 0.38465 0.0
C172 C 0.73628 0.55586 0.39182 0.0
C173 C 0.72737 0.57125 0.38202 0.0
C174 C 0.71464 0.56252 0.36953 0.0
N175 N 0.68576 0.5462 0.34116 0.0
C176 C 0.68919 0.56579 0.34265 0.0
C177 C 0.68079 0.57704 0.32801 0.0
C178 C 0.67214 0.56373 0.31603 0.0
C179 C 0.67575 0.54514 0.32421 0.0
N180 N 0.67832 0.52762 0.3789 0.0
C181 C 0.66233 0.53535 0.417 0.0
C182 C 0.66428 0.55053 0.4031 0.0
C183 C 0.67177 0.54631 0.38418 0.0
C184 C 0.66626 0.5159 0.41074 0.0
C185 C 0.67395 0.51237 0.39165 0.0
N186 N 0.71769 0.52042 0.33503 0.0
C187 C 0.7409 0.53491 0.31211 0.0
C188 C 0.74517 0.51646 0.30361 0.0
C189 C 0.73569 0.49988 0.31129 0.0
C190 C 0.72192 0.50221 0.32685 0.0
C191 C 0.72739 0.53652 0.3278 0.0
H192 H 0.71469 0.4892 0.33198 0.0
H193 H 0.72489 0.55098 0.33379 0.0
H194 H 0.67271 0.55862 0.37444 0.0
H195 H 0.67692 0.49725 0.38789 0.0
C196 C 0.69022 0.47568 0.35925 0.0
C197 C 0.67098 0.52671 0.31457 0.0
C198 C 0.73348 0.51898 0.39207 0.0
C199 C 0.70245 0.57268 0.35634 0.0
H200 H 0.65276 0.48912 0.30708 0.0
H201 H 0.66243 0.46151 0.33283 0.0
H202 H 0.71622 0.45388 0.38408 0.0
H203 H 0.74005 0.47784 0.40217 0.0
H204 H 0.74713 0.55718 0.40315 0.0
H205 H 0.72979 0.58691 0.38388 0.0
H206 H 0.68196 0.59284 0.32558 0.0
H207 H 0.66487 0.56713 0.30232 0.0
H208 H 0.66039 0.56575 0.40691 0.0
H209 H 0.66433 0.50351 0.42077 0.0
H210 H 0.74813 0.54809 0.3068 0.0
H211 H 0.73858 0.4853 0.30505 0.0
C212 C 0.39903 0.39405 1.00309 0.0
C213 C 0.40488 0.40083 0.98456 0.0
C214 C 0.39329 0.39198 0.9712 0.0
C215 C 0.38102 0.38032 0.98223 0.0
N216 N 0.38392 0.38132 1.0019 0.0
Co217 Co 0.36988 0.36586 0.02308 0.0
N218 N 0.35537 0.35033 1.00311 0.0
C219 C 0.35726 0.3517 0.98323 0.0
C220 C 0.34591 0.33877 0.97328 0.0
C221 C 0.33604 0.32863 0.98767 0.0
C222 C 0.34184 0.33614 1.00563 0.0
N223 N 0.35555 0.35086 0.04435 0.0
C224 C 0.34113 0.33747 0.04302 0.0
C225 C 0.33378 0.33224 0.06158 0.0
C226 C 0.344 0.34253 0.07505 0.0
C227 C 0.35682 0.35358 0.06406 0.0
N228 N 0.38517 0.38089 0.04292 0.0
C229 C 0.38362 0.37935 0.06281 0.0
C230 C 0.39672 0.39056 0.07264 0.0
C231 C 0.40764 0.39948 0.05817 0.0
C232 C 0.40053 0.39321 0.04027 0.0
N233 N 0.34789 0.38603 0.02399 0.0
C234 C 0.30977 0.40353 0.02796 0.0
C235 C 0.32231 0.40219 0.04403 0.0
C236 C 0.34123 0.39382 0.04166 0.0
C237 C 0.3175 0.39776 0.00946 0.0
C238 C 0.33655 0.38945 1.00778 0.0
N239 N 0.39096 0.34509 0.02233 0.0
C240 C 0.40851 0.31874 0.03922 0.0
C241 C 0.41521 0.31061 0.02125 0.0
C242 C 0.41054 0.32085 1.00388 0.0
C243 C 0.39858 0.338 1.00476 0.0
C244 C 0.39675 0.33597 0.03942 0.0
H245 H 0.39531 0.34502 0.99102 0.0
H246 H 0.39193 0.34127 0.05356 0.0
H247 H 0.34985 0.39307 0.05456 0.0
H248 H 0.34151 0.38519 0.99332 0.0
C249 C 0.36886 0.36615 0.97442 0.0
C250 C 0.40903 0.39923 0.0212 0.0
C251 C 0.33346 0.32989 0.02459 0.0
C252 C 0.37013 0.36672 0.07178 0.0
H253 H 0.41678 0.41061 0.98098 0.0
H254 H 0.39439 0.39308 0.95526 0.0
H255 H 0.34466 0.3372 0.95746 0.0
H256 H 0.32548 0.31725 0.98521 0.0
H257 H 0.32199 0.32231 0.0651 0.0
H258 H 0.34207 0.34224 0.09096 0.0
H259 H 0.39841 0.39174 0.08845 0.0
H260 H 0.41967 0.4093 0.06051 0.0
H261 H 0.31735 0.40676 0.05866 0.0
H262 H 0.30883 0.39934 0.99631 0.0
H263 H 0.41163 0.3115 0.05315 0.0
H264 H 0.41589 0.31559 0.9896 0.0
C265 C 0.29647 0.72925 0.52354 0.0
C266 C 0.29345 0.71854 0.50645 0.0
C267 C 0.30702 0.72462 0.49281 0.0
C268 C 0.31743 0.73869 0.50225 0.0
N269 N 0.31167 0.74173 0.52126 0.0
Co270 Co 0.32196 0.76191 0.53985 0.0
N271 N 0.33964 0.77284 0.5187 0.0
C272 C 0.34179 0.76649 0.49985 0.0
C273 C 0.35565 0.77636 0.48898 0.0
C274 C 0.363 0.78969 0.50172 0.0
C275 C 0.35308 0.78714 0.51968 0.0
N276 N 0.33195 0.78211 0.55844 0.0
C277 C 0.34614 0.79553 0.55561 0.0
C278 C 0.34902 0.80655 0.57252 0.0
C279 C 0.33636 0.79958 0.58666 0.0
C280 C 0.32651 0.78482 0.5776 0.0
N281 N 0.30408 0.75078 0.56085 0.0
C282 C 0.3026 0.75638 0.58 0.0
C283 C 0.28815 0.74695 0.59053 0.0
C284 C 0.27967 0.73484 0.57726 0.0
C285 C 0.28941 0.73765 0.55931 0.0
N286 N 0.34417 0.74313 0.54798 0.0
C287 C 0.37977 0.72261 0.55939 0.0
C288 C 0.36734 0.73236 0.57319 0.0
C289 C 0.3498 0.74204 0.56734 0.0
C290 C 0.37338 0.7226 0.53976 0.0
C291 C 0.35582 0.73288 0.53442 0.0
N292 N 0.30042 0.78135 0.53206 0.0
C293 C 0.27589 0.8067 0.54159 0.0
C294 C 0.27215 0.8118 0.52191 0.0
C295 C 0.28255 0.80066 0.50735 0.0
C296 C 0.29643 0.78566 0.51267 0.0
C297 C 0.28976 0.7917 0.54624 0.0
H298 H 0.30399 0.77786 0.50091 0.0
H299 H 0.29164 0.78886 0.56156 0.0
H300 H 0.34123 0.74889 0.57885 0.0
H301 H 0.35218 0.73269 0.51915 0.0
C302 C 0.33127 0.75062 0.49307 0.0
C303 C 0.28374 0.72799 0.5411 0.0
C304 C 0.3577 0.79782 0.53748 0.0
C305 C 0.3131 0.77236 0.58695 0.0
H306 H 0.28217 0.70795 0.50382 0.0
H307 H 0.30851 0.72 0.47755 0.0
H308 H 0.36022 0.77379 0.47377 0.0
H309 H 0.37468 0.79979 0.4983 0.0
H310 H 0.35949 0.81811 0.57451 0.0
H311 H 0.33491 0.80433 0.60189 0.0
H312 H 0.28369 0.74932 0.6058 0.0
H313 H 0.26733 0.72545 0.58028 0.0
H314 H 0.37104 0.7325 0.58866 0.0
H315 H 0.38221 0.71522 0.52835 0.0
H316 H 0.26803 0.81414 0.55362 0.0
H317 H 0.28038 0.80374 0.49183 0.0
C318 C 0.88486 0.87536 0.4895 0.0
C319 C 0.89018 0.88069 0.47034 0.0
C320 C 0.87807 0.87097 0.4581 0.0
C321 C 0.86595 0.86041 0.47038 0.0
N322 N 0.86944 0.8629 0.48979 0.0
Co323 Co 0.85539 0.84974 0.51252 0.0
N324 N 0.83963 0.83333 0.49432 0.0
C325 C 0.84096 0.83302 0.47437 0.0
C326 C 0.8282 0.8204 0.46586 0.0
C327 C 0.81796 0.81229 0.4813 0.0
C328 C 0.82509 0.82051 0.49837 0.0
N329 N 0.84109 0.83706 0.53531 0.0
C330 C 0.82591 0.82447 0.53546 0.0
C331 C 0.81935 0.82033 0.55456 0.0
C332 C 0.83065 0.83086 0.56692 0.0
C333 C 0.84337 0.84079 0.55472 0.0
N334 N 0.87181 0.86572 0.53063 0.0
C335 C 0.87101 0.86543 0.55062 0.0
C336 C 0.88474 0.87687 0.55918 0.0
C337 C 0.89524 0.8847 0.54379 0.0
C338 C 0.88719 0.87771 0.52658 0.0
N339 N 0.8342 0.87075 0.51247 0.0
C340 C 0.79667 0.88952 0.5161 0.0
C341 C 0.80958 0.88904 0.5319 0.0
C342 C 0.82821 0.8799 0.5297 0.0
C343 C 0.80375 0.88222 0.49791 0.0
C344 C 0.82257 0.87337 0.49634 0.0
N345 N 0.87567 0.82807 0.51277 0.0
C346 C 0.89239 0.80193 0.53087 0.0
C347 C 0.8983 0.79241 0.51331 0.0
C348 C 0.89375 0.80187 0.49548 0.0
C349 C 0.88258 0.81956 0.49555 0.0
C350 C 0.88146 0.81973 0.53025 0.0
H351 H 0.87934 0.82583 0.48148 0.0
H352 H 0.87731 0.82612 0.54412 0.0
H353 H 0.8371 0.87961 0.54244 0.0
H354 H 0.82707 0.86798 0.48211 0.0
C355 C 0.85295 0.84619 0.4641 0.0
C356 C 0.89521 0.88228 0.50683 0.0
C357 C 0.8169 0.8165 0.51797 0.0
C358 C 0.85749 0.85386 0.56095 0.0
H359 H 0.90188 0.89029 0.46566 0.0
H360 H 0.87857 0.87099 0.44211 0.0
H361 H 0.8261 0.81794 0.45027 0.0
H362 H 0.8062 0.80192 0.48012 0.0
H363 H 0.80745 0.81089 0.55907 0.0
H364 H 0.82952 0.83144 0.58288 0.0
H365 H 0.88712 0.8789 0.57478 0.0
H366 H 0.9077 0.89415 0.54516 0.0
H367 H 0.80506 0.89482 0.54624 0.0
H368 H 0.79471 0.88303 0.48495 0.0
H369 H 0.89548 0.79542 0.54514 0.0
H370 H 0.89857 0.79562 0.48143 0.0
C371 C 0.52507 0.85006 0.88091 0.0
C372 C 0.50678 0.85367 0.88977 0.0
C373 C 0.4945 0.84001 0.88244 0.0
C374 C 0.50589 0.82877 0.86959 0.0
N375 N 0.52485 0.83412 0.86852 0.0
Co376 Co 0.54599 0.82205 0.85073 0.0
N377 N 0.52733 0.80332 0.83862 0.0
C378 C 0.5082 0.80126 0.84372 0.0
C379 C 0.49934 0.78638 0.83384 0.0
C380 C 0.51372 0.77831 0.82179 0.0
C381 C 0.53056 0.7889 0.82494 0.0
N382 N 0.56708 0.81077 0.83269 0.0
C383 C 0.56644 0.79628 0.81894 0.0
C384 C 0.5844 0.79362 0.80907 0.0
C385 C 0.59692 0.80657 0.81718 0.0
C386 C 0.5859 0.81648 0.83134 0.0
N387 N 0.56463 0.84065 0.8634 0.0
C388 C 0.58412 0.84159 0.85946 0.0
C389 C 0.59311 0.85633 0.8694 0.0
C390 C 0.57851 0.86555 0.88029 0.0
C391 C 0.56132 0.85582 0.87647 0.0
N392 N 0.55244 0.80053 0.8708 0.0
C393 C 0.56088 0.76361 0.89091 0.0
C394 C 0.57585 0.77538 0.88288 0.0
C395 C 0.57139 0.79354 0.87316 0.0
C396 C 0.54169 0.77164 0.88967 0.0
C397 C 0.53789 0.78991 0.87998 0.0
N398 N 0.5396 0.84242 0.82977 0.0
C399 C 0.55022 0.86591 0.80446 0.0
C400 C 0.53179 0.86622 0.79559 0.0
C401 C 0.51715 0.85505 0.80485 0.0
C402 C 0.5212 0.84373 0.82188 0.0
C403 C 0.5538 0.85399 0.82127 0.0
H404 H 0.50923 0.83586 0.82825 0.0
H405 H 0.56833 0.85403 0.82688 0.0
H406 H 0.58354 0.80138 0.86708 0.0
H407 H 0.52292 0.7949 0.87971 0.0
C408 C 0.49906 0.81354 0.8579 0.0
C409 C 0.5421 0.86228 0.88482 0.0
C410 C 0.54941 0.78432 0.8151 0.0
C411 C 0.59301 0.83041 0.8443 0.0
H412 H 0.50268 0.86514 0.90032 0.0
H413 H 0.47899 0.83864 0.88582 0.0
H414 H 0.48429 0.78178 0.83539 0.0
H415 H 0.51202 0.76584 0.81204 0.0
H416 H 0.58817 0.78322 0.79737 0.0
H417 H 0.6123 0.80833 0.81344 0.0
H418 H 0.60829 0.86057 0.86808 0.0
H419 H 0.5803 0.87846 0.8894 0.0
H420 H 0.59105 0.77035 0.88339 0.0
H421 H 0.52943 0.76387 0.89617 0.0
H422 H 0.56211 0.87432 0.79808 0.0
H423 H 0.50247 0.85509 0.79902 0.0
C424 C 0.53268 0.28885 0.73666 0.0
C425 C 0.55096 0.29384 0.72904 0.0
C426 C 0.56409 0.28004 0.7361 0.0
C427 C 0.55311 0.26745 0.74752 0.0
N428 N 0.5337 0.27216 0.7478 0.0
Co429 Co 0.51249 0.25888 0.76341 0.0
N430 N 0.53222 0.24309 0.77879 0.0
C431 C 0.55198 0.2431 0.77638 0.0
C432 C 0.56176 0.23146 0.78978 0.0
C433 C 0.5474 0.2238 0.80168 0.0
C434 C 0.52961 0.23129 0.7948 0.0
N435 N 0.49123 0.24515 0.77856 0.0
C436 C 0.49244 0.23262 0.7942 0.0
C437 C 0.47399 0.22675 0.80063 0.0
C438 C 0.4607 0.23585 0.78854 0.0
C439 C 0.4717 0.24679 0.77551 0.0
N440 N 0.49294 0.27579 0.74883 0.0
C441 C 0.47316 0.27509 0.75031 0.0
C442 C 0.46368 0.2903 0.74057 0.0
C443 C 0.47829 0.30174 0.73293 0.0
C444 C 0.49588 0.29272 0.73837 0.0
N445 N 0.51174 0.23747 0.74298 0.0
C446 C 0.50917 0.20431 0.71763 0.0
C447 C 0.4929 0.2168 0.72156 0.0
C448 C 0.49455 0.23319 0.73391 0.0
C449 C 0.52699 0.20921 0.72591 0.0
C450 C 0.52794 0.22566 0.7384 0.0
N451 N 0.51297 0.27981 0.78363 0.0
C452 C 0.4954 0.30241 0.80563 0.0
C453 C 0.51265 0.31221 0.80961 0.0
C454 C 0.53027 0.30486 0.80101 0.0
C455 C 0.53013 0.28857 0.78834 0.0
C456 C 0.49586 0.2865 0.7926 0.0
H457 H 0.54395 0.28353 0.7821 0.0
H458 H 0.4821 0.28007 0.78969 0.0
H459 H 0.48155 0.24198 0.73591 0.0
H460 H 0.54193 0.22824 0.74432 0.0
C461 C 0.56088 0.25423 0.7614 0.0
C462 C 0.51505 0.30123 0.73438 0.0
C463 C 0.51064 0.22667 0.80385 0.0
C464 C 0.46406 0.26114 0.76257 0.0
H465 H 0.55452 0.3067 0.72016 0.0
H466 H 0.57992 0.28012 0.7344 0.0
H467 H 0.57746 0.22897 0.79088 0.0
H468 H 0.54979 0.21385 0.81403 0.0
H469 H 0.47039 0.21738 0.81314 0.0
H470 H 0.44486 0.23536 0.78977 0.0
H471 H 0.44801 0.29328 0.73997 0.0
H472 H 0.47624 0.31551 0.72489 0.0
H473 H 0.47886 0.21401 0.71506 0.0
H474 H 0.5401 0.20008 0.72324 0.0
H475 H 0.48146 0.3071 0.81231 0.0
H476 H 0.54405 0.31195 0.80349 0.0
C477 C 0.88153 0.52113 0.83634 0.0
C478 C 0.88716 0.50148 0.83954 0.0
C479 C 0.87977 0.4907 0.82434 0.0
C480 C 0.86991 0.5042 0.81267 0.0
N481 N 0.87075 0.52281 0.81954 0.0
Co482 Co 0.85649 0.54624 0.80819 0.0
N483 N 0.83763 0.5298 0.79374 0.0
C484 C 0.84035 0.51033 0.79002 0.0
C485 C 0.82531 0.50258 0.77959 0.0
C486 C 0.81245 0.51821 0.77628 0.0
C487 C 0.82037 0.53478 0.78481 0.0
N488 N 0.84239 0.56989 0.79711 0.0
C489 C 0.82481 0.57176 0.78786 0.0
C490 C 0.82141 0.59125 0.78192 0.0
C491 C 0.83736 0.60177 0.78748 0.0
C492 C 0.84971 0.58822 0.79643 0.0
N493 N 0.87511 0.56236 0.82318 0.0
C494 C 0.87879 0.58152 0.8196 0.0
C495 C 0.89115 0.58928 0.8332 0.0
C496 C 0.89539 0.57406 0.84617 0.0
C497 C 0.8853 0.55778 0.83987 0.0
N498 N 0.8742 0.54598 0.78445 0.0
C499 C 0.89783 0.54716 0.74926 0.0
C500 C 0.87726 0.54828 0.74884 0.0
C501 C 0.86596 0.54798 0.76626 0.0
C502 C 0.90629 0.54492 0.76806 0.0
C503 C 0.89424 0.54428 0.78541 0.0
N504 N 0.83881 0.5467 0.83104 0.0
C505 C 0.82159 0.56517 0.85648 0.0
C506 C 0.81369 0.5477 0.8639 0.0
C507 C 0.81857 0.52968 0.85469 0.0
C508 C 0.83105 0.52953 0.83812 0.0
C509 C 0.83421 0.56433 0.8401 0.0
H510 H 0.83441 0.51555 0.83104 0.0
H511 H 0.84027 0.57798 0.8348 0.0
H512 H 0.85036 0.54953 0.76476 0.0
H513 H 0.90112 0.54262 0.79959 0.0
C514 C 0.85586 0.49951 0.79868 0.0
C515 C 0.88673 0.53788 0.8493 0.0
C516 C 0.81212 0.55522 0.7824 0.0
C517 C 0.86686 0.59252 0.80662 0.0
H518 H 0.89522 0.49538 0.85184 0.0
H519 H 0.88026 0.47472 0.82288 0.0
H520 H 0.82366 0.4873 0.77526 0.0
H521 H 0.79896 0.51751 0.76822 0.0
H522 H 0.80892 0.59718 0.774 0.0
H523 H 0.8395 0.6175 0.78553 0.0
H524 H 0.89559 0.60451 0.83433 0.0
H525 H 0.90465 0.57489 0.8589 0.0
H526 H 0.86959 0.54929 0.73503 0.0
H527 H 0.92207 0.544 0.76949 0.0
H528 H 0.81814 0.57935 0.86338 0.0
H529 H 0.8125 0.51592 0.86001 0.0
C530 C 0.18456 0.05943 0.88224 0.0
C531 C 0.18048 0.0791 0.88702 0.0
C532 C 0.1894 0.09027 0.87271 0.0
C533 C 0.19828 0.07685 0.85997 0.0
N534 N 0.19504 0.05778 0.865 0.0
Co535 Co 0.20673 0.0335 0.85193 0.0
N536 N 0.22533 0.04956 0.83541 0.0
C537 C 0.22665 0.06954 0.83543 0.0
C538 C 0.24092 0.07645 0.82281 0.0
C539 C 0.24916 0.05991 0.81412 0.0
C540 C 0.23939 0.04377 0.82196 0.0
N541 N 0.21804 0.00916 0.83853 0.0
C542 C 0.23205 1.00722 0.824 0.0
C543 C 0.23451 0.98764 0.81801 0.0
C544 C 0.22148 0.97689 0.82896 0.0
C545 C 0.21181 0.99042 0.84099 0.0
N546 N 0.18885 0.01755 0.86945 0.0
C547 C 0.18673 0.99768 0.86901 0.0
C548 C 0.1757 0.99058 0.88453 0.0
C549 C 0.17115 1.00675 0.89601 0.0
C550 C 0.1795 0.02292 0.88668 0.0
N551 N 0.18697 0.03532 0.83084 0.0
C552 C 0.16893 0.03259 0.79415 0.0
C553 C 0.16711 0.01752 0.80817 0.0
C554 C 0.17583 0.01938 0.82646 0.0
C555 C 0.1779 0.05002 0.79967 0.0
C556 C 0.18645 0.05117 0.81812 0.0
N557 N 0.22632 0.03144 0.87247 0.0
C558 C 0.24172 0.01185 0.8977 0.0
C559 C 0.24884 0.02895 0.90615 0.0
C560 C 0.2455 0.0472 0.89686 0.0
C561 C 0.23429 0.0481 0.88002 0.0
C562 C 0.23077 0.01341 0.88076 0.0
H563 H 0.23177 0.06242 0.87365 0.0
H564 H 0.22543 0.99996 0.87501 0.0
H565 H 0.17384 1.00739 0.83641 0.0
H566 H 0.19326 0.06473 0.82133 0.0
C567 C 0.21341 0.08143 0.84656 0.0
C568 C 0.17959 0.04287 0.89527 0.0
C569 C 0.24323 0.02342 0.81529 0.0
C570 C 0.19747 0.98592 0.85535 0.0
H571 H 0.17284 0.08476 0.90009 0.0
H572 H 0.19074 0.10622 0.87262 0.0
H573 H 0.24458 0.09172 0.81992 0.0
H574 H 0.26073 0.05979 0.8029 0.0
H575 H 0.24463 0.98177 0.8068 0.0
H576 H 0.21935 0.96106 0.82828 0.0
H577 H 0.1725 0.97527 0.88784 0.0
H578 H 0.1634 1.0064 0.91011 0.0
H579 H 0.15937 1.00414 0.80492 0.0
H580 H 0.17924 0.06237 0.78949 0.0
H581 H 0.24405 0.99739 0.9044 0.0
H582 H 0.25135 0.06073 0.90262 0.0
C583 C 0.80488 0.24345 0.02264 0.0
C584 C 0.80104 0.2314 1.00666 0.0
C585 C 0.81552 0.23454 0.99278 0.0
C586 C 0.82723 0.24842 1.00087 0.0
N587 N 0.82107 0.25421 0.01903 0.0
Co588 Co 0.83307 0.2747 0.03553 0.0
N589 N 0.84667 0.28618 0.01211 0.0
C590 C 0.84942 0.2775 0.99435 0.0
C591 C 0.85906 0.28916 0.98087 0.0
C592 C 0.86292 0.30612 0.99086 0.0
C593 C 0.85552 0.30374 0.01001 0.0
N594 N 0.84532 0.29476 0.05219 0.0
C595 C 0.85557 0.31089 0.04687 0.0
C596 C 0.86274 0.32024 0.06337 0.0
C597 C 0.85691 0.30936 0.07952 0.0
C598 C 0.84659 0.29401 0.07202 0.0
N599 N 0.8187 0.26318 0.05847 0.0
C600 C 0.82259 0.26588 0.07763 0.0
C601 C 0.80941 0.25672 0.09008 0.0
C602 C 0.79644 0.24774 0.07795 0.0
C603 C 0.80242 0.25199 0.05873 0.0
N604 N 0.85652 0.2568 0.04039 0.0
C605 C 0.89152 0.23515 0.05162 0.0
C606 C 0.8725 0.22753 0.05483 0.0
C607 C 0.85536 0.23839 0.04897 0.0
C608 C 0.89212 0.25359 0.04188 0.0
C609 C 0.87487 0.26404 0.03684 0.0
N610 N 0.81048 0.29347 0.03123 0.0
C611 C 0.78941 0.32026 0.04403 0.0
C612 C 0.78226 0.32477 0.02518 0.0
C613 C 0.78915 0.31255 0.00951 0.0
C614 C 0.80322 0.29713 0.01281 0.0
C615 C 0.8032 0.30466 0.04673 0.0
H616 H 0.80863 0.28853 1.00033 0.0
H617 H 0.80833 0.30203 0.06146 0.0
H618 H 0.84119 0.23208 0.05187 0.0
H619 H 0.87669 0.2784 0.03046 0.0
C620 C 0.84079 0.25954 0.9902 0.0
C621 C 0.79316 0.2442 0.04107 0.0
C622 C 0.8608 0.31638 0.02647 0.0
C623 C 0.83615 0.28 0.0831 0.0
H624 H 0.78885 0.2217 1.00487 0.0
H625 H 0.81653 0.22848 0.978 0.0
H626 H 0.86268 0.28582 0.96557 0.0
H627 H 0.87112 0.31844 0.98501 0.0
H628 H 0.87165 0.33327 0.06366 0.0
H629 H 0.85968 0.31242 0.09487 0.0
H630 H 0.80872 0.25729 0.10606 0.0
H631 H 0.784 0.23912 0.08266 0.0
H632 H 0.87059 0.21346 0.06222 0.0
H633 H 0.90586 0.26037 0.03803 0.0
H634 H 0.78438 0.32875 0.05679 0.0
H635 H 0.78422 0.31526 0.99462 0.0
C636 C 0.0826 0.07308 0.15208 0.0
Eu637 Eu 0.10168 0.10075 0.13318 0.0
C638 C 0.08186 0.05194 0.15779 0.0
C639 C 0.08448 0.03663 0.14388 0.0
C640 C 0.08074 0.01696 0.14923 0.0
C641 C 0.07429 0.01224 0.16856 0.0
C642 C 0.0724 0.02757 0.18256 0.0
C643 C 0.07611 0.04717 0.1772 0.0
C644 C 0.11697 0.09441 0.09587 0.0
C645 C 0.14763 0.10301 0.14716 0.0
C646 C 0.14523 0.15784 0.09783 0.0
Eu647 Eu 0.12482 0.13317 0.1187 0.0
C648 C 0.15106 0.17594 0.08737 0.0
C649 C 0.1499 0.19451 0.09669 0.0
C650 C 0.15971 0.21061 0.08847 0.0
C651 C 0.17093 0.20837 0.07088 0.0
C652 C 0.17102 0.19004 0.06103 0.0
C653 C 0.16115 0.17401 0.06921 0.0
C654 C 0.10974 0.1399 0.15557 0.0
C655 C 0.07698 0.13597 0.11181 0.0
O656 O 0.09529 0.08429 0.16054 0.0
O657 O 0.08014 0.0776 0.13353 0.0
O658 O 0.09958 0.08977 0.10177 0.0
O659 O 0.1261 0.10151 0.11013 0.0
O660 O 0.12994 0.09607 0.15116 0.0
O661 O 0.14995 0.11563 0.13241 0.0
O662 O 0.13464 0.14439 0.08956 0.0
O663 O 0.14384 0.15816 0.11709 0.0
O664 O 0.12724 0.14453 0.14977 0.0
O665 O 0.10065 0.13247 0.14152 0.0
O666 O 0.09448 0.14242 0.106 0.0
O667 O 0.07603 0.12129 0.12481 0.0
H668 H 0.08878 0.0399 0.12874 0.0
H669 H 0.08219 1.0056 0.13801 0.0
H670 H 0.06782 0.02448 0.19765 0.0
H671 H 0.07387 0.05875 0.18814 0.0
H672 H 0.14225 0.19634 0.11079 0.0
H673 H 0.15909 0.2246 0.09627 0.0
H674 H 0.17971 0.18766 0.04762 0.0
H675 H 0.16247 0.15972 0.06195 0.0
C676 C 0.92678 0.50696 0.09178 0.0
Eu677 Eu 0.96411 0.49971 0.08661 0.0
C678 C 0.91317 0.50774 0.10916 0.0
C679 C 0.9113 0.49151 0.12214 0.0
C680 C 0.89812 0.49253 0.1383 0.0
C681 C 0.88665 0.50987 0.14199 0.0
C682 C 0.88885 0.52618 0.12913 0.0
C683 C 0.90189 0.52508 0.1129 0.0
C684 C 0.9846 0.48001 0.11612 0.0
C685 C 0.99405 0.53372 0.09777 0.0
C686 C 0.04691 0.4864 0.07365 0.0
Eu687 Eu 0.00945 0.49468 0.07317 0.0
C688 C 0.06702 0.47983 0.06767 0.0
C689 C 0.07323 0.47766 0.04785 0.0
C690 C 0.09279 0.47179 0.04322 0.0
C691 C 0.10642 0.46818 0.05832 0.0
C692 C 0.09989 0.47027 0.07808 0.0
C693 C 0.08047 0.476 0.08265 0.0
C694 C 0.98664 0.50816 0.04132 0.0
C695 C 0.97935 0.46273 0.05961 0.0
O696 O 0.93969 0.52102 0.09048 0.0
O697 O 0.93414 0.48948 0.08674 0.0
O698 O 0.96604 0.48431 0.1165 0.0
O699 O 0.99144 0.48675 0.09989 0.0
O700 O 0.97576 0.52979 0.09351 0.0
O701 O 0.00897 0.5214 0.09351 0.0
O702 O 0.03364 0.47341 0.07844 0.0
O703 O 0.03967 0.50354 0.06756 0.0
O704 O 0.00549 0.50445 0.04063 0.0
O705 O 0.98151 0.50516 0.05924 0.0
O706 O 0.99766 0.46534 0.0648 0.0
O707 O 0.96478 0.47548 0.06396 0.0
H708 H 0.9199 0.47794 0.11979 0.0
H709 H 0.89671 0.47958 0.14767 0.0
H710 H 0.8806 0.53991 0.13166 0.0
H711 H 0.9032 0.53784 0.10323 0.0
H712 H 0.06307 0.48058 0.03604 0.0
H713 H 0.09732 0.47044 0.02784 0.0
H714 H 0.10976 0.46731 0.09012 0.0
H715 H 0.07596 0.47756 0.09803 0.0
C716 C 0.11908 0.03052 0.5263 0.0
Eu717 Eu 0.10763 0.01741 0.49238 0.0
C718 C 0.1204 0.02551 0.54751 0.0
C719 C 0.10578 0.03244 0.56091 0.0
C720 C 0.10822 0.03024 0.58122 0.0
C721 C 0.12543 0.02125 0.58858 0.0
C722 C 0.13976 0.01369 0.57516 0.0
C723 C 0.13728 0.01582 0.55483 0.0
C724 C 0.0725 0.99862 0.48896 0.0
C725 C 0.12899 0.97388 0.48248 0.0
C726 C 0.08721 0.98362 0.42322 0.0
Eu727 Eu 0.10196 1.0004 0.45365 0.0
C728 C 0.0734 0.98255 0.40692 0.0
C729 C 0.07916 0.98842 0.38779 0.0
C730 C 0.06897 0.98195 0.37146 0.0
C731 C 0.05308 0.96925 0.37402 0.0
C732 C 0.04627 0.96498 0.39329 0.0
C733 C 0.05632 0.9716 0.40957 0.0
C734 C 0.13795 0.01475 0.45754 0.0
C735 C 0.09225 0.04817 0.45918 0.0
O736 O 0.13062 0.02073 0.51386 0.0
O737 O 0.10165 0.0343 0.51928 0.0
O738 O 0.07444 0.01536 0.49783 0.0
O739 O 0.08909 0.99252 0.48272 0.0
O740 O 0.12741 0.98924 0.49466 0.0
O741 O 0.11896 0.97386 0.466 0.0
O742 O 0.08035 0.98145 0.44129 0.0
O743 O 0.10222 0.9953 0.42183 0.0
O744 O 0.1344 0.99889 0.44763 0.0
O745 O 0.12229 0.0233 0.46366 0.0
O746 O 0.08747 0.03183 0.44959 0.0
O747 O 0.10275 0.04633 0.47533 0.0
H748 H 0.09268 0.04012 0.55576 0.0
H749 H 0.09676 0.03592 0.59116 0.0
H750 H 0.15328 1.00687 0.58035 0.0
H751 H 0.14893 0.01051 0.5449 0.0
H752 H 0.09235 0.99677 0.3853 0.0
H753 H 0.0744 0.98573 0.35681 0.0
H754 H 0.03428 0.95502 0.39589 0.0
H755 H 0.05164 0.96664 0.42414 0.0
C756 C 0.05275 0.58312 0.53312 0.0
Eu757 Eu 0.02126 0.56852 0.51786 0.0
C758 C 0.07112 0.59393 0.52916 0.0
C759 C 0.0882 0.58757 0.53877 0.0
C760 C 0.10534 0.59849 0.53734 0.0
C761 C 0.10594 0.61615 0.52617 0.0
C762 C 0.08887 0.62228 0.5161 0.0
C763 C 0.07164 0.61131 0.51759 0.0
C764 C 0.02062 0.53303 0.49812 0.0
C765 C 0.00994 0.57952 0.47406 0.0
C766 C 0.95285 0.53968 0.48996 0.0
Eu767 Eu 0.98191 0.55707 0.50601 0.0
C768 C 0.93382 0.53133 0.49517 0.0
C769 C 0.91801 0.54318 0.50239 0.0
C770 C 0.89938 0.53524 0.5044 0.0
C771 C 0.89643 0.51539 0.49927 0.0
C772 C 0.91259 0.50324 0.49357 0.0
C773 C 0.93112 0.51119 0.49143 0.0
C774 C 0.98189 0.59437 0.52131 0.0
C775 C 0.98879 0.55449 0.55208 0.0
O776 O 0.03603 0.59294 0.53172 0.0
O777 O 0.05182 0.56482 0.527 0.0
O778 O 0.03429 0.54589 0.49592 0.0
O779 O 0.00854 0.53886 0.51155 0.0
O780 O 0.02098 0.58469 0.48881 0.0
O781 O 0.99568 0.56684 0.47679 0.0
O782 O 0.9682 0.53014 0.49684 0.0
O783 O 0.95438 0.55898 0.49034 0.0
O784 O 0.96807 0.58177 0.52438 0.0
O785 O 0.99482 0.58671 0.50979 0.0
O786 O 0.97703 0.54941 0.53792 0.0
O787 O 0.00614 0.56218 0.54798 0.0
H788 H 0.08812 0.57436 0.54795 0.0
H789 H 0.11794 0.59338 0.54561 0.0
H790 H 0.08877 0.63561 0.50713 0.0
H791 H 0.05867 0.61661 0.51001 0.0
H792 H 0.91979 0.55874 0.50559 0.0
H793 H 0.88711 0.54497 0.50866 0.0
H794 H 0.9107 0.48784 0.48974 0.0
H795 H 0.94319 0.50178 0.48598 0.0
C796 C 0.4189 0.99895 0.59746 0.0
Eu797 Eu 0.45615 0.99332 0.58921 0.0
C798 C 0.40635 1.00101 0.61561 0.0
C799 C 0.41115 0.99125 0.63336 0.0
C800 C 0.39858 0.99281 0.65005 0.0
C801 C 0.38091 1.00417 0.64942 0.0
C802 C 0.37643 0.01417 0.63168 0.0
C803 C 0.38897 0.01258 0.61503 0.0
C804 C 0.48006 0.97589 0.61737 0.0
C805 C 0.48514 0.02904 0.59937 0.0
C806 C 0.53856 0.98282 0.57136 0.0
Eu807 Eu 0.50084 0.99109 0.57305 0.0
C808 C 0.55715 0.97516 0.56175 0.0
C809 C 0.57225 0.98832 0.55723 0.0
C810 C 0.59112 0.98122 0.55171 0.0
C811 C 0.59552 0.9607 0.55069 0.0
C812 C 0.58017 0.94754 0.55455 0.0
C813 C 0.56127 0.95466 0.56001 0.0
C814 C 0.47669 1.00382 0.54228 0.0
C815 C 0.47146 0.95685 0.56206 0.0
O816 O 0.43072 0.01351 0.59329 0.0
O817 O 0.42709 0.98142 0.59416 0.0
O818 O 0.46127 0.97802 0.61906 0.0
O819 O 0.48488 0.98285 0.6006 0.0
O820 O 0.46686 0.02338 0.59756 0.0
O821 O 0.50045 0.01849 0.59244 0.0
O822 O 0.52532 0.97021 0.57723 0.0
O823 O 0.53099 1.00017 0.5663 0.0
O824 O 0.49571 1.00174 0.54141 0.0
O825 O 0.47134 0.99969 0.56006 0.0
O826 O 0.48986 0.96102 0.56563 0.0
O827 O 0.45638 0.96871 0.567 0.0
H828 H 0.42447 0.9822 0.63429 0.0
H829 H 0.40253 0.98472 0.66331 0.0
H830 H 0.36322 0.02338 0.63063 0.0
H831 H 0.385 0.02033 0.60158 0.0
H832 H 0.56969 1.00418 0.55868 0.0
H833 H 0.60235 0.9919 0.54853 0.0
H834 H 0.5829 0.93165 0.55418 0.0
H835 H 0.55011 0.94403 0.56366 0.0
C836 C 0.56928 0.56562 0.67425 0.0
Eu837 Eu 0.5875 0.59303 0.65394 0.0
C838 C 0.56794 0.54409 0.67804 0.0
C839 C 0.57335 0.52983 0.6637 0.0
C840 C 0.56987 0.50965 0.66718 0.0
C841 C 0.56081 0.50337 0.685 0.0
C842 C 0.55567 0.51782 0.6993 0.0
C843 C 0.55927 0.53786 0.69587 0.0
C844 C 0.60231 0.58528 0.61691 0.0
C845 C 0.63415 0.59621 0.66599 0.0
C846 C 0.62889 0.65086 0.6162 0.0
Eu847 Eu 0.61034 0.62537 0.63769 0.0
C848 C 0.63941 0.66551 0.60413 0.0
C849 C 0.64211 0.68466 0.61144 0.0
C850 C 0.65346 0.69808 0.60078 0.0
C851 C 0.66245 0.69255 0.58267 0.0
C852 C 0.65939 0.6735 0.57518 0.0
C853 C 0.64791 0.66011 0.5858 0.0
C854 C 0.59655 0.63241 0.67491 0.0
C855 C 0.56267 0.62689 0.63063 0.0
O856 O 0.58437 0.5749 0.68084 0.0
O857 O 0.56395 0.57204 0.65694 0.0
O858 O 0.58546 0.57973 0.6235 0.0
O859 O 0.61139 0.59345 0.63052 0.0
O860 O 0.61642 0.59014 0.67148 0.0
O861 O 0.63607 0.60793 0.65044 0.0
O862 O 0.62238 0.6344 0.6089 0.0
O863 O 0.6249 0.65364 0.63497 0.0
O864 O 0.61411 0.63632 0.66861 0.0
O865 O 0.58677 0.62502 0.66127 0.0
O866 O 0.58009 0.63312 0.62452 0.0
O867 O 0.5616 0.61289 0.64436 0.0
H868 H 0.57996 0.53431 0.64974 0.0
H869 H 0.57428 0.49901 0.65589 0.0
H870 H 0.5483 0.5138 0.713 0.0
H871 H 0.55472 0.54864 0.707 0.0
H872 H 0.63575 0.68916 0.62559 0.0
H873 H 0.65575 0.71257 0.60704 0.0
H874 H 0.66602 0.66889 0.5612 0.0
H875 H 0.64612 0.64538 0.5799 0.0
C876 C 0.63131 0.54775 0.04555 0.0
Eu877 Eu 0.62001 0.53551 0.01125 0.0
C878 C 0.63532 0.54115 0.06591 0.0
C879 C 0.62003 0.53909 0.07999 0.0
C880 C 0.62426 0.53537 0.09978 0.0
C881 C 0.64383 0.53365 0.10587 0.0
C882 C 0.65906 0.53503 0.09164 0.0
C883 C 0.65484 0.53884 0.0719 0.0
C884 C 0.58544 0.51615 1.00671 0.0
C885 C 0.64176 0.49229 1.00014 0.0
C886 C 0.60307 0.5046 0.93962 0.0
Eu887 Eu 0.61544 0.51962 0.97194 0.0
C888 C 0.59044 0.50488 0.92246 0.0
C889 C 0.5989 0.49884 0.90437 0.0
C890 C 0.58717 0.49131 0.88978 0.0
C891 C 0.56689 0.4896 0.89328 0.0
C892 C 0.55819 0.49889 0.90993 0.0
C893 C 0.56993 0.50625 0.92469 0.0
C894 C 0.65069 0.53499 0.97751 0.0
C895 C 0.60338 0.56644 0.97873 0.0
O896 O 0.64341 0.54135 0.0316 0.0
O897 O 0.61307 0.54875 0.03995 0.0
O898 O 0.58686 0.53291 0.01574 0.0
O899 O 0.60222 0.5104 1.00058 0.0
O900 O 0.6404 0.5075 0.01255 0.0
O901 O 0.63143 0.4925 0.98389 0.0
O902 O 0.59493 0.50142 0.95701 0.0
O903 O 0.61811 0.5162 0.93989 0.0
O904 O 0.64811 0.51924 0.96713 0.0
O905 O 0.63463 0.54291 0.98316 0.0
O906 O 0.59934 0.55012 0.96884 0.0
O907 O 0.61377 0.56478 0.99499 0.0
H908 H 0.60482 0.54098 0.07588 0.0
H909 H 0.61218 0.53463 0.1104 0.0
H910 H 0.67429 0.53346 0.09579 0.0
H911 H 0.66693 0.54051 0.06141 0.0
H912 H 0.61472 0.49789 0.90235 0.0
H913 H 0.5942 0.48487 0.87672 0.0
H914 H 0.54254 0.49846 0.91258 0.0
H915 H 0.56307 0.51116 0.93847 0.0
C916 C 0.56569 0.09536 0.02371 0.0
Eu917 Eu 0.53038 0.08326 0.01672 0.0
C918 C 0.58184 0.10954 0.02408 0.0
C919 C 0.6002 0.10238 0.03024 0.0
C920 C 0.61622 0.11482 0.03085 0.0
C921 C 0.6144 0.13489 0.02522 0.0
C922 C 0.59583 0.14217 0.01915 0.0
C923 C 0.57967 0.12958 0.01854 0.0
C924 C 0.52694 0.04545 1.00167 0.0
C925 C 0.51471 0.10067 0.97508 0.0
C926 C 0.46401 0.04885 0.99203 0.0
Eu927 Eu 0.49056 0.07263 1.00307 0.0
C928 C 0.44464 0.04318 0.99958 0.0
C929 C 0.42966 0.05747 1.00328 0.0
C930 C 0.41106 0.05159 0.00936 0.0
C931 C 0.40718 0.03137 0.0121 0.0
C932 C 0.42254 0.01723 0.00948 0.0
C933 C 0.44109 0.02311 1.00315 0.0
C934 C 0.48552 0.10969 0.01711 0.0
C935 C 0.49889 0.0706 0.05042 0.0
O936 O 0.55101 0.09716 0.03641 0.0
O937 O 0.56074 0.08777 1.00688 0.0
O938 O 0.53594 0.04927 0.01781 0.0
O939 O 0.52006 0.06145 0.99497 0.0
O940 O 0.52554 0.1041 0.99064 0.0
O941 O 0.5019 0.08639 0.97514 0.0
O942 O 0.47886 0.04307 1.00287 0.0
O943 O 0.46553 0.06694 0.98496 0.0
O944 O 0.47157 0.09915 0.01027 0.0
O945 O 0.50186 0.10008 0.01697 0.0
O946 O 0.48822 0.06455 0.03565 0.0
O947 O 0.51577 0.07936 0.04703 0.0
H948 H 0.60219 0.08699 0.03466 0.0
H949 H 0.63004 0.10867 0.03602 0.0
H950 H 0.59385 0.15748 0.01458 0.0
H951 H 0.5656 0.13542 0.0137 0.0
H952 H 0.43211 0.07311 1.00093 0.0
H953 H 0.3995 0.06287 0.0109 0.0
H954 H 0.42004 1.00158 0.01168 0.0
H955 H 0.45259 0.01191 1.00066 0.0
H956 H 0.08513 0.23672 0.40436 0.0
H957 H 0.09094 0.20349 0.41766 0.0
H958 H 0.03973 0.18325 0.38834 0.0
H959 H 0.03351 0.21666 0.37553 0.0
H960 H 0.0397 0.16423 0.41933 0.0
H961 H 0.09345 0.17257 0.37382 0.0
H962 H 0.12222 0.18861 0.35867 0.0
H963 H 0.15245 0.1838 0.41356 0.0
H964 H 0.12375 0.16794 0.42911 0.0
H965 H 0.06609 0.06005 0.43011 0.0
H966 H 0.05958 0.09361 0.41696 0.0
H967 H 0.10229 0.11689 0.456 0.0
H968 H 0.10865 0.08357 0.46927 0.0
H969 H 0.10668 0.13371 0.41994 0.0
H970 H 0.05191 0.12402 0.46445 0.0
H971 H 0.02316 0.10669 0.47795 0.0
H972 H 0.99488 0.11244 0.42207 0.0
H973 H 0.02361 0.12959 0.40815 0.0
C974 C 0.07511 0.22527 0.40051 0.0
C975 C 0.05881 0.2299 0.38861 0.0
C976 C 0.07855 0.20592 0.40814 0.0
C977 C 0.06616 0.19008 0.40384 0.0
C978 C 0.04974 0.19475 0.39212 0.0
C979 C 0.04614 0.21416 0.38472 0.0
C980 C 0.07008 0.16891 0.41158 0.0
C981 C 0.05439 0.15762 0.41906 0.0
C982 C 0.08917 0.1597 0.41189 0.0
C983 C 0.10641 0.16925 0.40265 0.0
C984 C 0.1062 0.17505 0.38268 0.0
C985 C 0.12249 0.18409 0.37402 0.0
C986 C 0.13913 0.18726 0.38516 0.0
C987 C 0.13953 0.18136 0.40497 0.0
C988 C 0.12327 0.17233 0.4137 0.0
C989 C 0.07406 0.07229 0.43598 0.0
C990 C 0.08781 0.0688 0.45097 0.0
C991 C 0.07028 0.09165 0.42845 0.0
C992 C 0.08027 0.10824 0.43544 0.0
C993 C 0.09423 0.10467 0.45019 0.0
C994 C 0.0978 0.08542 0.45791 0.0
C995 C 0.07633 0.12919 0.42748 0.0
C996 C 0.09202 0.1404 0.42005 0.0
C997 C 0.05723 0.13817 0.42691 0.0
C998 C 0.03996 0.12792 0.43522 0.0
C999 C 0.03962 0.12146 0.455 0.0
C1000 C 0.02332 0.11169 0.46274 0.0
C1001 C 0.00722 0.10842 0.45087 0.0
C1002 C 0.00737 0.11496 0.43124 0.0
C1003 C 0.02365 0.12471 0.42343 0.0
H1004 H 0.9946 0.10087 0.45689 0.0
H1005 H 0.15174 0.19425 0.37842 0.0
H1006 H 0.05571 0.35977 0.41397 0.0
H1007 H 0.05278 0.38989 0.43388 0.0
H1008 H 0.01033 0.41442 0.39352 0.0
H1009 H 0.01467 0.38487 0.37268 0.0
H1010 H 0.02919 0.44326 0.40362 0.0
H1011 H 1.00023 0.39391 0.44462 0.0
H1012 H 0.99806 0.36227 0.46284 0.0
H1013 H 0.04743 0.37761 0.49749 0.0
H1014 H 0.05007 0.4092 0.47925 0.0
H1015 H 0.99433 0.51967 0.47101 0.0
H1016 H 0.99628 0.48889 0.45166 0.0
H1017 H 0.05002 0.47191 0.48039 0.0
H1018 H 0.04802 0.50273 0.49972 0.0
H1019 H 0.0246 0.43962 0.47674 0.0
H1020 H 0.05172 0.4902 0.43461 0.0
H1021 H 0.05089 0.52231 0.41703 0.0
H1022 H 1.00061 0.50452 0.38501 0.0
H1023 H 1.00095 0.47245 0.40268 0.0
C1024 C 0.0459 0.37167 0.40919 0.0
C1025 C 0.03563 0.36981 0.39148 0.0
C1026 C 0.04394 0.38894 0.42086 0.0
C1027 C 0.03094 0.40475 0.41578 0.0
C1028 C 0.02051 0.40276 0.39811 0.0
C1029 C 0.02287 0.38568 0.38617 0.0
C1030 C 0.02845 0.42332 0.42857 0.0
C1031 C 0.02788 0.44222 0.41958 0.0
C1032 C 0.02697 0.4227 0.4496 0.0
C1033 C 0.02546 0.40376 0.46047 0.0
C1034 C 0.0107 0.39044 0.45604 0.0
C1035 C 0.00938 0.37254 0.46637 0.0
C1036 C 0.02263 0.36791 0.48128 0.0
C1037 C 0.03721 0.38119 0.48592 0.0
C1038 C 0.03862 0.39909 0.4756 0.0
C1039 C 0.00625 0.50914 0.47364 0.0
C1040 C 0.02069 0.51348 0.48746 0.0
C1041 C 0.00755 0.49158 0.46229 0.0
C1042 C 0.02333 0.47778 0.46439 0.0
C1043 C 0.0376 0.48204 0.47841 0.0
C1044 C 0.03644 0.49972 0.48953 0.0
C1045 C 0.02529 0.45926 0.45172 0.0
C1046 C 0.02582 0.44047 0.46075 0.0
C1047 C 0.02631 0.45995 0.43076 0.0
C1048 C 0.02625 0.47907 0.42007 0.0
C1049 C 0.04041 0.49323 0.42392 0.0
C1050 C 0.04003 0.5114 0.41394 0.0
C1051 C 0.02568 0.51548 0.39994 0.0
C1052 C 0.0117 0.50136 0.39587 0.0
C1053 C 0.01198 0.4832 0.40586 0.0
H1054 H 0.02541 0.52956 0.39222 0.0
H1055 H 0.02158 0.35404 0.48928 0.0
H1056 H 0.053 0.82498 0.18872 0.0
H1057 H 0.06053 0.85958 0.18254 0.0
H1058 H 0.01271 0.87816 0.22141 0.0
H1059 H 0.00556 0.84352 0.22863 0.0
H1060 H 0.0139 0.9001 0.18711 0.0
H1061 H 0.05699 0.88112 0.23788 0.0
H1062 H 0.0816 0.86024 0.25494 0.0
H1063 H 0.1233 0.86978 0.20754 0.0
H1064 H 0.09876 0.89041 0.19 0.0
H1065 H 0.04356 1.00039 0.19228 0.0
H1066 H 0.03458 0.96664 0.20105 0.0
H1067 H 0.08308 0.94344 0.16536 0.0
H1068 H 0.09267 0.97722 0.15715 0.0
H1069 H 0.08053 0.92424 0.20009 0.0
H1070 H 0.03507 0.94348 0.14934 0.0
H1071 H 0.0095 0.96483 0.13424 0.0
H1072 H 0.97118 0.95556 0.1845 0.0
H1073 H 0.99669 0.93443 0.20002 0.0
C1074 C 0.04415 0.83634 0.1962 0.0
C1075 C 0.02872 0.83131 0.2093 0.0
C1076 C 0.04845 0.85616 0.19254 0.0
C1077 C 0.03731 0.87143 0.20173 0.0
C1078 C 0.02149 0.86657 0.21427 0.0
C1079 C 0.01733 0.84672 0.21819 0.0
C1080 C 0.0424 0.89246 0.19832 0.0
C1081 C 0.02839 0.90545 0.19019 0.0
C1082 C 0.06129 0.89945 0.20219 0.0
C1083 C 0.07602 0.88705 0.21255 0.0
C1084 C 0.07135 0.87857 0.23101 0.0
C1085 C 0.08529 0.86682 0.24077 0.0
C1086 C 0.10399 0.86363 0.2323 0.0
C1087 C 0.1088 0.87222 0.21406 0.0
C1088 C 0.09489 0.88393 0.20419 0.0
C1089 C 0.0525 0.98814 0.18646 0.0
C1090 C 0.06888 0.99159 0.17397 0.0
C1091 C 0.04718 0.96882 0.19132 0.0
C1092 C 0.05796 0.95247 0.18363 0.0
C1093 C 0.07446 0.95582 0.17138 0.0
C1094 C 0.07983 0.97516 0.16656 0.0
C1095 C 0.05217 0.93185 0.18845 0.0
C1096 C 0.06605 0.91892 0.19696 0.0
C1097 C 0.03305 0.92502 0.18518 0.0
C1098 C 0.01781 0.93765 0.1759 0.0
C1099 C 0.02124 0.94617 0.15722 0.0
C1100 C 0.00677 0.95819 0.14859 0.0
C1101 C 0.98875 0.96161 0.15843 0.0
C1102 C 0.98516 0.95295 0.17691 0.0
C1103 C 0.99961 0.94096 0.18564 0.0
H1104 H 0.97755 0.97093 0.15172 0.0
H1105 H 0.11478 0.85453 0.2399 0.0
H1106 H 1.00157 0.70865 0.1752 0.0
H1107 H 0.99849 0.67835 0.1556 0.0
H1108 H 0.02313 0.64365 0.20314 0.0
H1109 H 0.02566 0.67389 0.22296 0.0
H1110 H 0.03939 0.63456 0.16458 0.0
H1111 H 0.97627 0.64277 0.19771 0.0
H1112 H 0.94599 0.66165 0.207 0.0
H1113 H 0.93136 0.66753 0.14582 0.0
H1114 H 0.96177 0.64903 0.13616 0.0
H1115 H 0.01951 0.53898 0.12772 0.0
H1116 H 0.02337 0.56874 0.14755 0.0
H1117 H 0.98136 0.60036 0.11136 0.0
H1118 H 0.97626 0.57002 0.09275 0.0
H1119 H 0.97417 0.61162 0.14488 0.0
H1120 H 0.03643 0.60573 0.11041 0.0
H1121 H 0.06757 0.58943 0.09926 0.0
H1122 H 0.08478 0.58191 0.15955 0.0
H1123 H 0.05364 0.59792 0.17104 0.0
C1124 C 0.00621 0.69451 0.18144 0.0
C1125 C 0.01363 0.6935 0.20063 0.0
C1126 C 1.00448 0.67725 0.17027 0.0
C1127 C 0.01045 0.65871 0.17797 0.0
C1128 C 0.0184 0.65777 0.19693 0.0
C1129 C 0.01983 0.675 0.20823 0.0
C1130 C 0.00826 0.64029 0.16629 0.0
C1131 C 0.02514 0.62937 0.16041 0.0
C1132 C 0.98973 0.63386 0.16037 0.0
C1133 C 0.97135 0.6447 0.16622 0.0
C1134 C 0.96666 0.64823 0.18624 0.0
C1135 C 0.94948 0.65885 0.19157 0.0
C1136 C 0.93678 0.66583 0.17701 0.0
C1137 C 0.94122 0.66215 0.15708 0.0
C1138 C 0.95842 0.6516 0.15167 0.0
C1139 C 0.01124 0.55236 0.12394 0.0
C1140 C 0.99771 0.55225 0.10859 0.0
C1141 C 0.01356 0.5695 0.13521 0.0
C1142 C 1.00306 0.58722 0.1308 0.0
C1143 C 0.9897 0.58705 0.11523 0.0
C1144 C 0.98686 0.56972 0.10446 0.0
C1145 C 1.00543 0.6057 0.14273 0.0
C1146 C 0.98853 0.61668 0.14881 0.0
C1147 C 0.02403 0.61245 0.14846 0.0
C1148 C 0.04267 0.60281 0.14156 0.0
C1149 C 0.04682 0.60047 0.12127 0.0
C1150 C 0.06446 0.5913 0.11489 0.0
C1151 C 0.07812 0.58458 0.12869 0.0
C1152 C 0.07418 0.58707 0.14888 0.0
C1153 C 0.05655 0.5962 0.15533 0.0
H1154 H 0.09177 0.57749 0.12372 0.0
H1155 H 0.92347 0.67405 0.18116 0.0
H1156 H 0.4426 0.06355 0.23929 0.0
H1157 H 0.46125 0.06517 0.20798 0.0
H1158 H 0.41066 0.04595 0.17687 0.0
H1159 H 0.39281 0.04247 0.20789 0.0
H1160 H 0.43867 0.02986 0.15974 0.0
H1161 H 0.4296 0.09821 0.18038 0.0
H1162 H 0.43283 0.12654 0.2029 0.0
H1163 H 0.49564 0.11923 0.19991 0.0
H1164 H 0.49275 0.09068 0.1776 0.0
H1165 H 0.46202 0.05948 0.06216 0.0
H1166 H 0.44823 0.05646 0.09545 0.0
H1167 H 0.50351 0.07281 0.11959 0.0
H1168 H 0.5172 0.0768 0.08598 0.0
H1169 H 0.47625 0.08925 0.14116 0.0
H1170 H 0.48507 0.02229 0.11863 0.0
H1171 H 0.48168 0.99439 0.09566 0.0
H1172 H 0.41889 0.99933 0.10199 0.0
H1173 H 0.4219 0.02747 0.12477 0.0
C1174 C 0.43549 0.05936 0.22585 0.0
C1175 C 0.41584 0.05326 0.22648 0.0
C1176 C 0.44615 0.06064 0.20773 0.0
C1177 C 0.43739 0.05628 0.18957 0.0
C1178 C 0.41799 0.04965 0.19034 0.0
C1179 C 0.40756 0.04796 0.20835 0.0
C1180 C 0.44808 0.05827 0.16976 0.0
C1181 C 0.44664 0.04304 0.15573 0.0
C1182 C 0.45922 0.07503 0.16425 0.0
C1183 C 0.46095 0.09221 0.17753 0.0
C1184 C 0.44409 0.10259 0.18464 0.0
C1185 C 0.44586 0.11868 0.19735 0.0
C1186 C 0.46443 0.12464 0.20288 0.0
C1187 C 0.48127 0.11456 0.19566 0.0
C1188 C 0.47957 0.09843 0.18298 0.0
C1189 C 0.4714 0.06234 0.07449 0.0
C1190 C 0.49093 0.06812 0.07117 0.0
C1191 C 0.46345 0.06047 0.09371 0.0
C1192 C 0.47484 0.06382 0.11042 0.0
C1193 C 0.49429 0.06993 0.10716 0.0
C1194 C 0.5022 0.07211 0.08784 0.0
C1195 C 0.46635 0.06108 0.1311 0.0
C1196 C 0.46828 0.07609 0.14525 0.0
C1197 C 0.45557 0.04415 0.13674 0.0
C1198 C 0.45372 0.02705 0.1233 0.0
C1199 C 0.47054 0.01748 0.11505 0.0
C1200 C 0.46868 1.00163 0.10206 0.0
C1201 C 0.45008 0.99511 0.09734 0.0
C1202 C 0.43329 1.0044 0.10565 0.0
C1203 C 0.43506 0.02029 0.11861 0.0
H1204 H 0.44867 0.98284 0.08727 0.0
H1205 H 0.46577 0.1371 0.21273 0.0
H1206 H 0.69935 0.53475 0.28721 0.0
H1207 H 0.69657 0.53444 0.25105 0.0
H1208 H 0.63641 0.51669 0.25736 0.0
H1209 H 0.63876 0.51826 0.29341 0.0
H1210 H 0.66511 0.49442 0.2274 0.0
H1211 H 0.6378 0.55884 0.24893 0.0
H1212 H 0.64045 0.5898 0.26778 0.0
H1213 H 0.69239 0.60418 0.23421 0.0
H1214 H 0.69028 0.57301 0.21547 0.0
H1215 H 0.62493 0.51109 0.13372 0.0
H1216 H 0.63138 0.50898 0.16899 0.0
H1217 H 0.67987 0.5483 0.16114 0.0
H1218 H 0.6728 0.55142 0.1261 0.0
H1219 H 0.65957 0.55898 0.19213 0.0
H1220 H 0.68759 0.49838 0.16899 0.0
H1221 H 0.68965 0.46672 0.15093 0.0
H1222 H 0.64248 0.44435 0.18697 0.0
H1223 H 0.63991 0.47605 0.20502 0.0
C1224 C 0.68558 0.5308 0.28078 0.0
C1225 C 0.66934 0.52614 0.29288 0.0
C1226 C 0.68406 0.53048 0.26027 0.0
C1227 C 0.66638 0.52524 0.25175 0.0
C1228 C 0.65024 0.52042 0.26381 0.0
C1229 C 0.65159 0.52127 0.28428 0.0
C1230 C 0.66424 0.52617 0.23022 0.0
C1231 C 0.66367 0.50846 0.21962 0.0
C1232 C 0.66313 0.54454 0.22023 0.0
C1233 C 0.66398 0.56356 0.23095 0.0
C1234 C 0.64986 0.56854 0.24568 0.0
C1235 C 0.65126 0.58612 0.25634 0.0
C1236 C 0.6666 0.59893 0.25222 0.0
C1237 C 0.68053 0.59422 0.23739 0.0
C1238 C 0.67924 0.57661 0.22676 0.0
C1239 C 0.63688 0.51939 0.13952 0.0
C1240 C 0.64837 0.53139 0.12708 0.0
C1241 C 0.6407 0.51799 0.15964 0.0
C1242 C 0.65626 0.5283 0.16764 0.0
C1243 C 0.66783 0.54019 0.15526 0.0
C1244 C 0.6639 0.54175 0.13518 0.0
C1245 C 0.66011 0.52712 0.18903 0.0
C1246 C 0.66103 0.54483 0.19972 0.0
C1247 C 0.66204 0.50871 0.19902 0.0
C1248 C 0.66344 0.48964 0.18823 0.0
C1249 C 0.67754 0.48677 0.17295 0.0
C1250 C 0.67882 0.46882 0.16273 0.0
C1251 C 0.66618 0.45355 0.16777 0.0
C1252 C 0.65224 0.4562 0.18306 0.0
C1253 C 0.65087 0.47416 0.1933 0.0
H1254 H 0.66721 0.43964 0.15986 0.0
H1255 H 0.66767 0.61254 0.26049 0.0
H1256 H 0.4247 0.0508 0.36034 0.0
H1257 H 0.43747 0.04518 0.39345 0.0
H1258 H 0.38397 0.01664 0.41084 0.0
H1259 H 0.37074 0.02338 0.37783 0.0
H1260 H 0.39438 0.03532 0.44178 0.0
H1261 H 0.43228 0.99158 0.39958 0.0
H1262 H 0.45365 0.98228 0.37105 0.0
H1263 H 0.49792 0.02099 0.39128 0.0
H1264 H 0.47666 0.03075 0.41977 0.0
H1265 H 0.43671 0.9973 0.53332 0.0
H1266 H 0.42059 1.00247 0.50134 0.0
H1267 H 0.4739 0.02655 0.47699 0.0
H1268 H 0.48997 0.02043 0.50815 0.0
H1269 H 0.4622 1.00858 0.44944 0.0
H1270 H 0.42384 0.05357 0.49106 0.0
H1271 H 0.40241 0.06285 0.51957 0.0
H1272 H 0.3593 0.02214 0.50068 0.0
H1273 H 0.38062 0.01243 0.47221 0.0
C1274 C 0.41542 0.04362 0.37124 0.0
C1275 C 0.39636 0.038 0.36614 0.0
C1276 C 0.42296 0.04003 0.39037 0.0
C1277 C 0.41208 0.03006 0.40528 0.0
C1278 C 0.39301 0.02435 0.40011 0.0
C1279 C 0.3854 0.02813 0.38099 0.0
C1280 C 0.42055 0.02553 0.4259 0.0
C1281 C 0.40918 0.02926 0.44329 0.0
C1282 C 0.44001 0.01787 0.42872 0.0
C1283 C 0.45283 0.01199 0.4117 0.0
C1284 C 0.44653 0.99818 0.39787 0.0
C1285 C 0.45862 0.99284 0.38171 0.0
C1286 C 0.47712 1.00107 0.37933 0.0
C1287 C 0.48358 0.01465 0.39313 0.0
C1288 C 0.47152 0.02009 0.40929 0.0
C1289 C 0.4449 1.00395 0.52123 0.0
C1290 C 0.46479 1.00862 0.5238 0.0
C1291 C 0.43558 1.00704 0.50267 0.0
C1292 C 0.4456 0.01535 0.48601 0.0
C1293 C 0.46537 0.02009 0.48893 0.0
C1294 C 0.47466 0.01671 0.50716 0.0
C1295 C 0.43624 0.0188 0.46552 0.0
C1296 C 0.44744 0.01478 0.44806 0.0
C1297 C 0.41669 0.02628 0.46269 0.0
C1298 C 0.40387 0.03216 0.47966 0.0
C1299 C 0.40983 0.04654 0.49307 0.0
C1300 C 0.39771 0.05187 0.50921 0.0
C1301 C 0.37952 0.04306 0.51196 0.0
C1302 C 0.3734 0.02893 0.49855 0.0
C1303 C 0.38549 0.02351 0.48241 0.0
H1304 H 0.37015 0.04721 0.52447 0.0
H1305 H 0.48647 0.99689 0.36682 0.0
H1306 H 0.67667 0.56455 0.4399 0.0
H1307 H 0.66773 0.57271 0.47416 0.0
H1308 H 0.62702 0.52488 0.47586 0.0
H1309 H 0.63586 0.51666 0.44144 0.0
H1310 H 0.61137 0.56121 0.49102 0.0
H1311 H 0.66916 0.51929 0.49765 0.0
H1312 H 0.70369 0.50961 0.49035 0.0
H1313 H 0.7224 0.56459 0.51442 0.0
H1314 H 0.68794 0.57485 0.52132 0.0
H1315 H 0.58705 0.55952 0.59132 0.0
H1316 H 0.59898 0.55056 0.55837 0.0
H1317 H 0.64734 0.58998 0.56409 0.0
H1318 H 0.63602 0.59801 0.59795 0.0
H1319 H 0.65993 0.55912 0.54462 0.0
H1320 H 0.60465 0.60248 0.53714 0.0
H1321 H 0.57079 0.61526 0.543 0.0
H1322 H 0.5482 0.56178 0.51918 0.0
H1323 H 0.58196 0.54853 0.51351 0.0
C1324 C 0.66572 0.55583 0.44752 0.0
C1325 C 0.65687 0.54002 0.43792 0.0
C1326 C 0.66074 0.56043 0.46715 0.0
C1327 C 0.64677 0.54936 0.4776 0.0
C1328 C 0.63785 0.53361 0.46806 0.0
C1329 C 0.64298 0.52886 0.44845 0.0
C1330 C 0.64131 0.5544 0.49841 0.0
C1331 C 0.6219 0.56047 0.50281 0.0
C1332 C 0.65525 0.55424 0.51362 0.0
C1333 C 0.67597 0.54791 0.50983 0.0
C1334 C 0.68063 0.52939 0.50122 0.0
C1335 C 0.7002 0.52381 0.49713 0.0
C1336 C 0.71524 0.53651 0.50183 0.0
C1337 C 0.71075 0.5548 0.51068 0.0
C1338 C 0.6912 0.56052 0.51468 0.0
C1339 C 0.60032 0.56621 0.58566 0.0
C1340 C 0.61046 0.57966 0.59717 0.0
C1341 C 0.60707 0.56118 0.56668 0.0
C1342 C 0.62378 0.57 0.55836 0.0
C1343 C 0.63432 0.58307 0.57004 0.0
C1344 C 0.62778 0.58777 0.58935 0.0
C1345 C 0.62981 0.56573 0.53739 0.0
C1346 C 0.64934 0.55987 0.5329 0.0
C1347 C 0.61608 0.5665 0.52192 0.0
C1348 C 0.59579 0.57447 0.52505 0.0
C1349 C 0.59245 0.59341 0.53326 0.0
C1350 C 0.57329 0.60073 0.53655 0.0
C1351 C 0.55735 0.58932 0.53149 0.0
C1352 C 0.56056 0.57059 0.5231 0.0
C1353 C 0.5797 0.56317 0.51984 0.0
H1354 H 0.54252 0.59503 0.53405 0.0
H1355 H 0.73038 0.53214 0.49866 0.0
H1356 H 0.29447 0.4326 0.05279 0.0
H1357 H 0.26021 0.44327 0.05755 0.0
H1358 H 0.24303 0.40111 0.01391 0.0
H1359 H 0.27729 0.39023 1.00915 0.0
H1360 H 0.22419 0.43511 1.00817 0.0
H1361 H 0.23251 0.39332 0.06584 0.0
H1362 H 0.2487 0.38163 0.0963 0.0
H1363 H 0.24197 0.43999 0.12106 0.0
H1364 H 0.22591 0.45192 0.09073 0.0
H1365 H 0.1211 0.44218 0.03003 0.0
H1366 H 0.1553 0.43143 0.02409 0.0
H1367 H 0.17345 0.47026 0.07035 0.0
H1368 H 0.13937 0.48076 0.07651 0.0
H1369 H 0.19188 0.43755 0.0745 0.0
H1370 H 0.18156 0.47944 0.01853 0.0
H1371 H 0.16514 0.49178 0.98862 0.0
H1372 H 0.1758 0.43539 0.96053 0.0
H1373 H 0.19201 0.42263 0.99043 0.0
C1374 C 0.28344 0.42541 0.04432 0.0
C1375 C 0.28881 0.41051 0.03056 0.0
C1376 C 0.26376 0.43153 0.04709 0.0
C1377 C 0.24886 0.42283 0.03632 0.0
C1378 C 0.25417 0.40809 0.02243 0.0
C1379 C 0.27386 0.40196 0.01964 0.0
C1380 C 0.22784 0.4294 0.03917 0.0
C1381 C 0.21706 0.43536 0.02266 0.0
C1382 C 0.21851 0.43043 0.05805 0.0
C1383 C 0.22843 0.42349 0.07602 0.0
C1384 C 0.2348 0.40363 0.07773 0.0
C1385 C 0.24385 0.39697 0.09494 0.0
C1386 C 0.2465 0.4101 0.11052 0.0
C1387 C 0.24 0.42987 0.10895 0.0
C1388 C 0.23091 0.43657 0.09178 0.0
C1389 C 0.1324 0.44861 0.03877 0.0
C1390 C 0.12738 0.46233 0.05378 0.0
C1391 C 0.15203 0.44246 0.03534 0.0
C1392 C 0.16717 0.45014 0.0466 0.0
C1393 C 0.16216 0.46399 0.06145 0.0
C1394 C 0.14258 0.46999 0.065 0.0
C1395 C 0.18814 0.44336 0.0435 0.0
C1396 C 0.19894 0.43735 0.05998 0.0
C1397 C 0.19751 0.44251 0.0246 0.0
C1398 C 0.18773 0.45004 1.00673 0.0
C1399 C 0.18022 0.46964 1.00602 0.0
C1400 C 0.17099 0.4767 0.98907 0.0
C1401 C 0.16936 0.46435 0.97271 0.0
C1402 C 0.17702 0.44492 0.97324 0.0
C1403 C 0.18622 0.43776 0.99017 0.0
H1404 H 0.16221 0.46986 0.95958 0.0
H1405 H 0.2535 0.40491 0.12384 0.0
H1406 H 0.27943 0.68786 0.5404 0.0
H1407 H 0.249 0.66965 0.53698 0.0
H1408 H 0.21578 0.72506 0.53616 0.0
H1409 H 0.24629 0.7432 0.53988 0.0
H1410 H 0.19685 0.69893 0.55791 0.0
H1411 H 0.22685 0.69841 0.49376 0.0
H1412 H 0.25344 0.69278 0.46899 0.0
H1413 H 0.25413 0.63039 0.48202 0.0
H1414 H 0.22783 0.6357 0.50722 0.0
H1415 H 0.10867 0.6569 0.52582 0.0
H1416 H 0.13825 0.67649 0.52678 0.0
H1417 H 0.17404 0.62277 0.52747 0.0
H1418 H 0.14463 0.60309 0.52546 0.0
H1419 H 0.19122 0.64919 0.50473 0.0
H1420 H 0.16199 0.65074 0.57032 0.0
H1421 H 0.13535 0.65711 0.59492 0.0
H1422 H 0.13294 0.71862 0.57817 0.0
H1423 H 0.15937 0.71253 0.55327 0.0
C1424 C 0.26557 0.69606 0.53962 0.0
C1425 C 0.26512 0.71687 0.54032 0.0
C1426 C 0.24821 0.6857 0.53752 0.0
C1427 C 0.23002 0.69594 0.53596 0.0
C1428 C 0.22957 0.71677 0.53724 0.0
C1429 C 0.24696 0.72714 0.53937 0.0
C1430 C 0.21154 0.68494 0.53298 0.0
C1431 C 0.19556 0.68827 0.54609 0.0
C1432 C 0.2098 0.67076 0.51776 0.0
C1433 C 0.2255 0.66748 0.50251 0.0
C1434 C 0.23278 0.68351 0.49146 0.0
C1435 C 0.2478 0.68037 0.47734 0.0
C1436 C 0.2555 0.66124 0.47396 0.0
C1437 C 0.24817 0.6452 0.48468 0.0
C1438 C 0.23322 0.64827 0.49889 0.0
C1439 C 0.12282 0.64919 0.52582 0.0
C1440 C 0.12409 0.6283 0.5257 0.0
C1441 C 0.13978 0.66046 0.52663 0.0
C1442 C 0.15849 0.65118 0.52761 0.0
C1443 C 0.15985 0.63037 0.52688 0.0
C1444 C 0.14292 0.61909 0.52593 0.0
C1445 C 0.1766 0.66304 0.5298 0.0
C1446 C 0.19251 0.65988 0.51652 0.0
C1447 C 0.17825 0.67747 0.54479 0.0
C1448 C 0.16249 0.68114 0.55983 0.0
C1449 C 0.15568 0.66559 0.57181 0.0
C1450 C 0.14063 0.66915 0.5858 0.0
C1451 C 0.13242 0.68825 0.58807 0.0
C1452 C 0.13928 0.70383 0.57638 0.0
C1453 C 0.15429 0.70034 0.56233 0.0
H1454 H 0.12077 0.69098 0.59892 0.0
H1455 H 0.26711 0.65884 0.46299 0.0
H1456 H 0.90046 0.92142 0.51592 0.0
H1457 H 0.93038 0.94067 0.5122 0.0
H1458 H 0.96121 0.88938 0.48781 0.0
H1459 H 0.93131 0.87004 0.492 0.0
H1460 H 0.98458 0.90713 0.51224 0.0
H1461 H 0.94571 0.92941 0.45875 0.0
H1462 H 0.91604 0.94267 0.44259 0.0
H1463 H 0.91879 0.99632 0.47626 0.0
H1464 H 0.94827 0.98318 0.49292 0.0
H1465 H 0.06779 0.96034 0.47625 0.0
H1466 H 0.0381 0.94059 0.47815 0.0
H1467 H 0.00625 0.9898 0.50531 0.0
H1468 H 0.03586 0.00963 0.50323 0.0
H1469 H 0.98369 0.97261 0.47855 0.0
H1470 H 0.02281 0.94913 0.53239 0.0
H1471 H 0.05273 0.93529 0.54767 0.0
H1472 H 0.04983 0.88315 0.51175 0.0
H1473 H 0.02007 0.89688 0.49601 0.0
C1474 C 0.91366 0.91427 0.50981 0.0
C1475 C 0.91354 0.89419 0.50433 0.0
C1476 C 0.93078 0.92533 0.50755 0.0
C1477 C 0.94825 0.91668 0.49951 0.0
C1478 C 0.94809 0.89653 0.49408 0.0
C1479 C 0.93096 0.88547 0.49639 0.0
C1480 C 0.96659 0.92858 0.49684 0.0
C1481 C 0.98435 0.92131 0.50461 0.0
C1482 C 0.96662 0.94731 0.48718 0.0
C1483 C 0.94903 0.95526 0.47718 0.0
C1484 C 0.93988 0.94397 0.46281 0.0
C1485 C 0.92311 0.95147 0.45356 0.0
C1486 C 0.91551 0.97032 0.45842 0.0
C1487 C 0.92468 0.98172 0.47253 0.0
C1488 C 0.94141 0.97426 0.48189 0.0
C1489 C 0.05445 0.96699 0.48256 0.0
C1490 C 0.05429 0.98661 0.48964 0.0
C1491 C 0.03743 0.95561 0.48375 0.0
C1492 C 0.01976 0.96349 0.4921 0.0
C1493 C 0.01955 0.98323 0.49881 0.0
C1494 C 0.03657 0.99459 0.49768 0.0
C1495 C 1.00161 0.95121 0.49406 0.0
C1496 C 0.9839 0.95841 0.48615 0.0
C1497 C 1.00166 0.93235 0.50344 0.0
C1498 C 0.0194 0.92409 0.51292 0.0
C1499 C 0.02866 0.93478 0.52766 0.0
C1500 C 0.04557 0.92696 0.5364 0.0
C1501 C 0.05321 0.90837 0.53065 0.0
C1502 C 0.04392 0.89756 0.51617 0.0
C1503 C 0.02705 0.90535 0.50733 0.0
H1504 H 0.0663 0.90233 0.53745 0.0
H1505 H 0.90253 0.97611 0.45123 0.0
H1506 H 0.39699 0.68668 0.5473 0.0
H1507 H 0.42766 0.67059 0.55838 0.0
H1508 H 0.43741 0.72001 0.59663 0.0
H1509 H 0.40677 0.73607 0.58577 0.0
H1510 H 0.4722 0.70702 0.57531 0.0
H1511 H 0.42057 0.67742 0.61557 0.0
H1512 H 0.3898 0.6593 0.61976 0.0
H1513 H 0.41523 0.61008 0.58726 0.0
H1514 H 0.44607 0.62805 0.58263 0.0
H1515 H 0.55321 0.66667 0.62783 0.0
H1516 H 0.52278 0.68263 0.61686 0.0
H1517 H 0.50017 0.62523 0.60303 0.0
H1518 H 0.52971 0.60937 0.6166 0.0
H1519 H 0.47109 0.64243 0.61043 0.0
H1520 H 0.52028 0.66803 0.56704 0.0
H1521 H 0.55102 0.68417 0.55709 0.0
H1522 H 0.5315 0.73751 0.58681 0.0
H1523 H 0.50072 0.7216 0.59712 0.0
C1524 C 0.40567 0.69424 0.55798 0.0
C1525 C 0.39907 0.71277 0.56561 0.0
C1526 C 0.42328 0.68492 0.56443 0.0
C1527 C 0.43511 0.6939 0.57853 0.0
C1528 C 0.42877 0.71259 0.5858 0.0
C1529 C 0.41104 0.72175 0.57962 0.0
C1530 C 0.45379 0.6838 0.58597 0.0
C1531 C 0.47194 0.69297 0.58316 0.0
C1532 C 0.45393 0.66502 0.59552 0.0
C1533 C 0.43556 0.65411 0.59867 0.0
C1534 C 0.41956 0.66277 0.60924 0.0
C1535 C 0.40211 0.65253 0.61169 0.0
C1536 C 0.40055 0.63356 0.60376 0.0
C1537 C 0.41646 0.62477 0.59339 0.0
C1538 C 0.43392 0.63497 0.59087 0.0
C1539 C 0.54171 0.65746 0.62246 0.0
C1540 C 0.54412 0.63668 0.62297 0.0
C1541 C 0.52419 0.66668 0.61574 0.0
C1542 C 0.50878 0.65556 0.60801 0.0
C1543 C 0.51135 0.63464 0.60867 0.0
C1544 C 0.52848 0.62542 0.61634 0.0
C1545 C 0.49007 0.66548 0.59973 0.0
C1546 C 0.47174 0.65637 0.60244 0.0
C1547 C 0.48991 0.68392 0.58922 0.0
C1548 C 0.50829 0.69358 0.58297 0.0
C1549 C 0.52259 0.68318 0.57151 0.0
C1550 C 0.54001 0.69228 0.56581 0.0
C1551 C 0.54323 0.71184 0.57135 0.0
C1552 C 0.529 0.72236 0.58255 0.0
C1553 C 0.51155 0.71332 0.58831 0.0
H1554 H 0.55673 0.71886 0.56692 0.0
H1555 H 0.38703 0.62566 0.60567 0.0
H1556 H 0.53796 0.73011 0.8916 0.0
H1557 H 0.54475 0.69765 0.9062 0.0
H1558 H 0.60022 0.7178 0.92664 0.0
H1559 H 0.59371 0.75019 0.91154 0.0
H1560 H 0.60727 0.68325 0.91772 0.0
H1561 H 0.55427 0.70857 0.9576 0.0
H1562 H 0.52153 0.72305 0.96593 0.0
H1563 H 0.49435 0.67309 0.93983 0.0
H1564 H 0.52695 0.65848 0.93108 0.0
H1565 H 0.61959 0.60241 0.98738 0.0
H1566 H 0.61254 0.63517 0.97285 0.0
H1567 H 0.56855 0.60997 0.93662 0.0
H1568 H 0.57589 0.57701 0.95078 0.0
H1569 H 0.55581 0.64662 0.9543 0.0
H1570 H 0.61157 0.62156 0.91634 0.0
H1571 H 0.64525 0.60775 0.91189 0.0
H1572 H 0.66822 0.65917 0.93945 0.0
H1573 H 0.63463 0.6731 0.94439 0.0
C1574 C 0.55156 0.72787 0.89938 0.0
C1575 C 0.56511 0.74332 0.90033 0.0
C1576 C 0.55545 0.70904 0.90793 0.0
C1577 C 0.57289 0.70484 0.91824 0.0
C1578 C 0.58657 0.72018 0.91897 0.0
C1579 C 0.5828 0.73896 0.9102 0.0
C1580 C 0.57705 0.68456 0.92781 0.0
C1581 C 0.59594 0.67557 0.92595 0.0
C1582 C 0.56258 0.67375 0.93853 0.0
C1583 C 0.543 0.68259 0.94346 0.0
C1584 C 0.5413 0.70079 0.95347 0.0
C1585 C 0.52277 0.709 0.95829 0.0
C1586 C 0.50587 0.69903 0.95334 0.0
C1587 C 0.50745 0.68082 0.9436 0.0
C1588 C 0.52594 0.67257 0.9387 0.0
C1589 C 0.60832 0.60376 0.97639 0.0
C1590 C 0.59828 0.58681 0.97041 0.0
C1591 C 0.60436 0.62263 0.96796 0.0
C1592 C 0.59 0.62536 0.95343 0.0
C1593 C 0.57969 0.60853 0.94773 0.0
C1594 C 0.58393 0.58956 0.95587 0.0
C1595 C 0.58586 0.6456 0.94414 0.0
C1596 C 0.56702 0.65449 0.94606 0.0
C1597 C 0.60048 0.65654 0.93396 0.0
C1598 C 0.62062 0.64823 0.93094 0.0
C1599 C 0.62381 0.62982 0.92162 0.0
C1600 C 0.64287 0.62198 0.91899 0.0
C1601 C 0.65886 0.63254 0.92545 0.0
C1602 C 0.65582 0.65098 0.9345 0.0
C1603 C 0.63678 0.65885 0.93723 0.0
H1604 H 0.67362 0.62645 0.92339 0.0
H1605 H 0.49153 0.70541 0.95711 0.0
H1606 H 0.55857 0.86987 0.92081 0.0
H1607 H 0.55617 0.90027 0.94058 0.0
H1608 H 0.51776 0.927 0.89758 0.0
H1609 H 0.52088 0.89679 0.87744 0.0
H1610 H 0.54136 0.95396 0.90855 0.0
H1611 H 0.5021 0.90844 0.94585 0.0
H1612 H 0.49526 0.87736 0.96372 0.0
H1613 H 0.5413 0.88889 1.00409 0.0
H1614 H 0.54861 0.91988 0.98625 0.0
H1615 H 0.50866 0.03654 0.96718 0.0
H1616 H 0.51067 1.00572 0.94818 0.0
H1617 H 0.54934 0.97975 0.99137 0.0
H1618 H 0.54685 0.0105 0.0107 0.0
H1619 H 0.52593 0.9524 0.98044 0.0
H1620 H 0.56534 0.99767 0.94337 0.0
H1621 H 0.57249 0.02876 0.92563 0.0
H1622 H 0.52661 0.01766 0.88494 0.0
H1623 H 0.519 0.98666 0.90264 0.0
C1624 C 0.54963 0.88225 0.91557 0.0
C1625 C 0.53998 0.88083 0.89745 0.0
C1626 C 0.5481 0.89968 0.92701 0.0
C1627 C 0.5365 0.9162 0.92096 0.0
C1628 C 0.52681 0.9147 0.90282 0.0
C1629 C 0.5285 0.89732 0.8913 0.0
C1630 C 0.53466 0.935 0.93327 0.0
C1631 C 0.53769 0.95351 0.92421 0.0
C1632 C 0.53042 0.93489 0.95394 0.0
C1633 C 0.52601 0.91633 0.96463 0.0
C1634 C 0.51084 0.90426 0.95845 0.0
C1635 C 0.50688 0.88667 0.96858 0.0
C1636 C 0.51787 0.88113 0.985 0.0
C1637 C 0.53282 0.89318 0.99135 0.0
C1638 C 0.53688 0.91075 0.98125 0.0
C1639 C 0.51756 0.02425 0.9727 0.0
C1640 C 0.52767 0.02615 0.99053 0.0
C1641 C 0.51885 1.00656 0.96168 0.0
C1642 C 0.53053 0.99019 0.9679 0.0
C1643 C 0.54027 0.99197 0.98598 0.0
C1644 C 0.53888 0.00965 0.99709 0.0
C1645 C 0.53253 0.97135 0.95569 0.0
C1646 C 0.52957 0.95284 0.96477 0.0
C1647 C 0.53689 0.97145 0.93505 0.0
C1648 C 0.54149 0.98999 0.92441 0.0
C1649 C 0.5567 1.00195 0.93072 0.0
C1650 C 0.56084 0.01954 0.92067 0.0
C1651 C 0.54998 0.02521 0.9042 0.0
C1652 C 0.53499 0.01327 0.89772 0.0
C1653 C 0.53076 0.9957 0.90774 0.0
H1654 H 0.55322 0.03883 0.89643 0.0
H1655 H 0.51477 0.86751 0.99283 0.0
H1656 H 0.50886 0.31785 0.69811 0.0
H1657 H 0.51568 0.35206 0.68757 0.0
H1658 H 0.53456 0.36527 0.74618 0.0
H1659 H 0.52718 0.3314 0.75695 0.0
H1660 H 0.50898 0.39478 0.73044 0.0
H1661 H 0.56736 0.35689 0.71254 0.0
H1662 H 0.58586 0.32968 0.69578 0.0
H1663 H 0.56698 0.35168 0.63946 0.0
H1664 H 0.54801 0.37881 0.65596 0.0
H1665 H 0.56196 0.48274 0.72013 0.0
H1666 H 0.55277 0.44866 0.72662 0.0
H1667 H 0.54075 0.44085 0.66494 0.0
H1668 H 0.54946 0.47523 0.6583 0.0
H1669 H 0.56036 0.40862 0.67968 0.0
H1670 H 0.502 0.44648 0.69836 0.0
H1671 H 0.48287 0.47306 0.71554 0.0
H1672 H 0.5025 0.45085 0.77153 0.0
H1673 H 0.52216 0.42449 0.75457 0.0
C1674 C 0.51398 0.32831 0.70881 0.0
C1675 C 0.51706 0.3223 0.7284 0.0
C1676 C 0.51803 0.34772 0.70278 0.0
C1677 C 0.52533 0.36132 0.71626 0.0
C1678 C 0.52834 0.35522 0.73583 0.0
C1679 C 0.52426 0.3359 0.74188 0.0
C1680 C 0.53024 0.38187 0.71014 0.0
C1681 C 0.52045 0.39779 0.71965 0.0
C1682 C 0.54466 0.38586 0.69541 0.0
C1683 C 0.5561 0.36969 0.68548 0.0
C1684 C 0.567 0.3558 0.6966 0.0
C1685 C 0.57759 0.34041 0.68715 0.0
C1686 C 0.57755 0.33892 0.66656 0.0
C1687 C 0.56695 0.35284 0.6554 0.0
C1688 C 0.55628 0.36821 0.66479 0.0
C1689 C 0.55716 0.47395 0.7079 0.0
C1690 C 0.5563 0.48201 0.68868 0.0
C1691 C 0.55196 0.45435 0.71166 0.0
C1692 C 0.54577 0.44221 0.69633 0.0
C1693 C 0.54544 0.44992 0.67703 0.0
C1694 C 0.55055 0.46961 0.67325 0.0
C1695 C 0.53951 0.42158 0.70059 0.0
C1696 C 0.54896 0.40564 0.69064 0.0
C1697 C 0.52487 0.41751 0.71508 0.0
C1698 C 0.51345 0.43354 0.72525 0.0
C1699 C 0.50231 0.44738 0.71433 0.0
C1700 C 0.4914 0.4624 0.72401 0.0
C1701 C 0.49145 0.46363 0.74462 0.0
C1702 C 0.50245 0.44987 0.75558 0.0
C1703 C 0.51346 0.43489 0.74594 0.0
H1704 H 0.48296 0.47526 0.75209 0.0
H1705 H 0.58578 0.327 0.65927 0.0
H1706 H 0.53475 0.19004 0.68881 0.0
H1707 H 0.53163 0.16039 0.66848 0.0
H1708 H 0.47639 0.14823 0.69777 0.0
H1709 H 0.47958 0.17764 0.71835 0.0
H1710 H 0.4986 0.11475 0.69389 0.0
H1711 H 0.47703 0.16729 0.65215 0.0
H1712 H 0.47875 0.19943 0.63483 0.0
H1713 H 0.53012 0.17868 0.60238 0.0
H1714 H 0.5289 0.14652 0.61983 0.0
H1715 H 0.4597 0.04813 0.62502 0.0
H1716 H 0.46518 0.07774 0.64451 0.0
H1717 H 0.52341 0.08173 0.61891 0.0
H1718 H 0.51817 0.05175 0.59942 0.0
H1719 H 0.50089 0.11902 0.62065 0.0
H1720 H 0.5206 0.06516 0.66273 0.0
H1721 H 0.51637 0.033 0.67951 0.0
H1722 H 0.46563 0.0566 0.71105 0.0
H1723 H 0.46933 0.08882 0.69412 0.0
C1724 C 0.52201 0.18097 0.69102 0.0
C1725 C 0.5074 0.18627 0.70518 0.0
C1726 C 0.52016 0.16409 0.67928 0.0
C1727 C 0.5037 0.1521 0.68147 0.0
C1728 C 0.48922 0.15722 0.69578 0.0
C1729 C 0.49099 0.17415 0.70742 0.0
C1730 C 0.5015 0.13428 0.66881 0.0
C1731 C 0.49892 0.11576 0.67788 0.0
C1732 C 0.50217 0.1354 0.64791 0.0
C1733 C 0.50302 0.15464 0.63745 0.0
C1734 C 0.48881 0.16967 0.64147 0.0
C1735 C 0.48967 0.18787 0.63161 0.0
C1736 C 0.50457 0.19112 0.61755 0.0
C1737 C 0.51862 0.17616 0.61331 0.0
C1738 C 0.51786 0.15795 0.62318 0.0
C1739 C 0.47366 0.05533 0.62336 0.0
C1740 C 0.48847 0.04755 0.61055 0.0
C1741 C 0.47678 0.07224 0.63461 0.0
C1742 C 0.49471 0.08193 0.63322 0.0
C1743 C 0.50945 0.0745 0.62018 0.0
C1744 C 0.50644 0.05733 0.60911 0.0
C1745 C 0.49807 0.09957 0.64574 0.0
C1746 C 0.50077 0.11803 0.63665 0.0
C1747 C 0.49725 0.09846 0.66663 0.0
C1748 C 0.49513 0.07929 0.67703 0.0
C1749 C 0.50845 0.06343 0.67313 0.0
C1750 C 0.50615 0.04521 0.68266 0.0
C1751 C 0.49071 0.04276 0.6963 0.0
C1752 C 0.47756 0.05853 0.70046 0.0
C1753 C 0.47975 0.07677 0.6909 0.0
H1754 H 0.48898 0.02866 0.70366 0.0
H1755 H 0.5052 0.20522 0.6099 0.0
H1756 H 0.93475 0.53037 0.73952 0.0
H1757 H 0.95245 0.53118 0.70752 0.0
H1758 H 0.90556 0.5669 0.68306 0.0
H1759 H 0.88845 0.5673 0.71485 0.0
H1760 H 0.91655 0.53343 0.65959 0.0
H1761 H 0.94739 0.58754 0.69301 0.0
H1762 H 0.96632 0.60202 0.71974 0.0
H1763 H 0.01467 0.56168 0.70657 0.0
H1764 H 0.99588 0.54675 0.67998 0.0
H1765 H 0.95117 0.56056 0.56534 0.0
H1766 H 0.93813 0.55961 0.59905 0.0
H1767 H 0.99583 0.54383 0.62015 0.0
H1768 H 0.00924 0.54665 0.58626 0.0
H1769 H 0.98092 0.564 0.64662 0.0
H1770 H 0.95308 0.50939 0.61424 0.0
H1771 H 0.93549 0.4917 0.58853 0.0
H1772 H 0.88349 0.52734 0.60085 0.0
H1773 H 0.90086 0.54544 0.62644 0.0
C1774 C 0.92828 0.53871 0.7275 0.0
C1775 C 0.90976 0.54842 0.73009 0.0
C1776 C 0.93844 0.53905 0.70908 0.0
C1777 C 0.93032 0.54896 0.69266 0.0
C1778 C 0.91211 0.55893 0.6953 0.0
C1779 C 0.90218 0.55892 0.71367 0.0
C1780 C 0.94027 0.54872 0.67257 0.0
C1781 C 0.93057 0.54025 0.65673 0.0
C1782 C 0.95892 0.55687 0.66877 0.0
C1783 C 0.97015 0.56588 0.6847 0.0
C1784 C 0.96198 0.58163 0.69596 0.0
C1785 C 0.9727 0.58994 0.71105 0.0
C1786 C 0.99166 0.58273 0.7149 0.0
C1787 C 0.99997 0.56722 0.70362 0.0
C1788 C 0.98929 0.55884 0.68853 0.0
C1789 C 0.96112 0.55679 0.57714 0.0
C1790 C 0.98124 0.55329 0.57298 0.0
C1791 C 0.95356 0.55603 0.59657 0.0
C1792 C 0.96565 0.55078 0.61251 0.0
C1793 C 0.98592 0.54768 0.60837 0.0
C1794 C 0.99364 0.54918 0.58891 0.0
C1795 C 0.95711 0.54886 0.6333 0.0
C1796 C 0.96701 0.55694 0.64933 0.0
C1797 C 0.93884 0.53978 0.63742 0.0
C1798 C 0.92832 0.52886 0.62213 0.0
C1799 C 0.93793 0.51352 0.61139 0.0
C1800 C 0.92799 0.50342 0.59684 0.0
C1801 C 0.9084 0.50842 0.59303 0.0
C1802 C 0.89868 0.5235 0.6038 0.0
C1803 C 0.90855 0.53367 0.61834 0.0
H1804 H 0.90074 0.50059 0.58175 0.0
H1805 H 0.99994 0.58919 0.72659 0.0
H1806 H 0.17308 0.99923 0.77161 0.0
H1807 H 0.16415 0.99522 0.73715 0.0
H1808 H 0.14202 0.05577 0.73571 0.0
H1809 H 0.15021 0.05969 0.77042 0.0
H1810 H 0.1179 0.03023 0.71739 0.0
H1811 H 0.18731 0.04348 0.7177 0.0
H1812 H 0.22152 0.03689 0.72757 0.0
H1813 H 0.22057 0.97911 0.70125 0.0
H1814 H 0.18627 0.98515 0.69172 0.0
H1815 H 0.11691 0.05045 0.61548 0.0
H1816 H 0.12297 0.05 0.65079 0.0
H1817 H 0.14826 0.99082 0.64588 0.0
H1818 H 0.14211 0.99109 0.6104 0.0
H1819 H 0.1703 0.01313 0.6678 0.0
H1820 H 0.10247 0.99888 0.66661 0.0
H1821 H 0.06775 1.00322 0.65765 0.0
H1822 H 0.06494 0.06012 0.68598 0.0
H1823 H 0.09976 0.05626 0.6948 0.0
C1824 C 0.16597 0.01158 0.76408 0.0
C1825 C 0.16236 0.02981 0.7737 0.0
C1826 C 0.16108 0.00932 0.74434 0.0
C1827 C 0.15272 0.02529 0.73387 0.0
C1828 C 0.14857 0.04331 0.74356 0.0
C1829 C 0.15339 0.04557 0.76332 0.0
C1830 C 0.14865 0.02342 0.71265 0.0
C1831 C 0.12937 0.02672 0.70649 0.0
C1832 C 0.16353 0.01816 0.6986 0.0
C1833 C 0.1842 0.01468 0.70419 0.0
C1834 C 0.19437 0.0293 0.71419 0.0
C1835 C 0.21377 0.02566 0.71974 0.0
C1836 C 0.2232 1.00756 0.71512 0.0
C1837 C 0.21327 0.99308 0.70492 0.0
C1838 C 0.19384 0.9966 0.69945 0.0
C1839 C 0.12346 0.03719 0.62192 0.0
C1840 C 0.12883 0.02071 0.61015 0.0
C1841 C 0.12696 0.03698 0.64212 0.0
C1842 C 0.13576 0.02025 0.651 0.0
C1843 C 0.14136 1.00385 0.6393 0.0
C1844 C 0.13789 1.00405 0.61904 0.0
C1845 C 0.13954 0.02019 0.67244 0.0
C1846 C 0.15877 0.01655 0.67866 0.0
C1847 C 0.12457 0.02491 0.6866 0.0
C1848 C 0.10373 0.02736 0.68118 0.0
C1849 C 0.09449 0.0124 0.67076 0.0
C1850 C 0.07479 0.01476 0.66573 0.0
C1851 C 0.06415 0.03196 0.6712 0.0
C1852 C 0.0732 0.04682 0.68173 0.0
C1853 C 0.09291 0.04455 0.68674 0.0
H1854 H 0.04889 0.03375 0.66732 0.0
H1855 H 0.23823 1.00481 0.71938 0.0
H1856 H 0.92218 0.5187 0.85833 0.0
H1857 H 0.93759 0.51395 0.89039 0.0
H1858 H 0.88895 0.54557 0.91874 0.0
H1859 H 0.87396 0.55093 0.88636 0.0
H1860 H 0.91683 0.55459 0.93893 0.0
H1861 H 0.90043 0.48954 0.91987 0.0
H1862 H 0.89915 0.45961 0.89921 0.0
H1863 H 0.96204 0.45349 0.89959 0.0
H1864 H 0.9637 0.48358 0.92 0.0
H1865 H 0.94688 0.52052 0.03694 0.0
H1866 H 0.92885 0.5255 1.00588 0.0
H1867 H 0.98038 0.50643 0.97244 0.0
H1868 H 0.99825 0.50179 1.00303 0.0
H1869 H 0.94939 0.49042 0.95614 0.0
H1870 H 0.96396 0.55687 0.97641 0.0
H1871 H 0.96292 0.58513 0.99944 0.0
H1872 H 0.89988 0.58631 0.99917 0.0
H1873 H 0.90056 0.55786 0.97635 0.0
C1874 C 0.91459 0.52446 0.8714 0.0
C1875 C 0.89641 0.53479 0.86948 0.0
C1876 C 0.92345 0.52163 0.89004 0.0
C1877 C 0.91446 0.52872 0.90783 0.0
C1878 C 0.89651 0.53958 0.90576 0.0
C1879 C 0.88776 0.54261 0.88705 0.0
C1880 C 0.92377 0.52509 0.92827 0.0
C1881 C 0.92362 0.54035 0.94257 0.0
C1882 C 0.93308 0.50673 0.93386 0.0
C1883 C 0.93219 0.4889 0.92129 0.0
C1884 C 0.91399 0.4819 0.9154 0.0
C1885 C 0.9132 0.4649 0.90375 0.0
C1886 C 0.93051 0.45468 0.89806 0.0
C1887 C 0.94865 0.46146 0.90397 0.0
C1888 C 0.94953 0.47848 0.91557 0.0
C1889 C 0.95437 0.51739 0.02299 0.0
C1890 C 0.97427 0.51084 0.02284 0.0
C1891 C 0.94402 0.52033 1.00504 0.0
C1892 C 0.95305 0.51658 0.98625 0.0
C1893 C 0.97273 0.50957 0.98632 0.0
C1894 C 0.98308 0.50696 1.00408 0.0
C1895 C 0.94249 0.51989 0.96655 0.0
C1896 C 0.94249 0.50459 0.9524 0.0
C1897 C 0.9327 0.53802 0.9613 0.0
C1898 C 0.93231 0.55518 0.97483 0.0
C1899 C 0.94988 0.5631 0.98137 0.0
C1900 C 0.94936 0.57915 0.99437 0.0
C1901 C 0.93135 0.58749 1.0008 0.0
C1902 C 0.91382 0.57982 0.9942 0.0
C1903 C 0.91426 0.56375 0.98123 0.0
H1904 H 0.93097 0.59993 0.01086 0.0
H1905 H 0.92986 0.44148 0.88909 0.0
H1906 H 0.14411 0.03813 0.91458 0.0
H1907 H 0.13522 0.0463 0.94893 0.0
H1908 H 0.19396 0.06618 0.95806 0.0
H1909 H 0.20304 0.05714 0.92386 0.0
H1910 H 0.1819 0.04763 0.99017 0.0
H1911 H 0.15398 0.09891 0.95008 0.0
H1912 H 0.13436 0.11266 0.92283 0.0
H1913 H 0.08247 0.08717 0.94824 0.0
H1914 H 0.1019 0.07294 0.97544 0.0
H1915 H 0.1545 0.09985 0.08029 0.0
H1916 H 0.16682 0.09138 0.04679 0.0
H1917 H 0.11001 0.06936 0.03267 0.0
H1918 H 0.09773 0.07797 0.06568 0.0
H1919 H 0.12269 0.09042 1.00305 0.0
H1920 H 0.15101 0.03839 0.04273 0.0
H1921 H 0.17088 0.02436 0.06967 0.0
H1922 H 0.22222 0.05156 0.04501 0.0
H1923 H 0.20253 0.06606 0.01813 0.0
C1924 C 0.1552 0.04387 0.92406 0.0
C1925 C 0.17434 0.04671 0.91661 0.0
C1926 C 0.15007 0.0488 0.94367 0.0
C1927 C 0.16379 0.0572 0.95623 0.0
C1928 C 0.18303 0.05975 0.94883 0.0
C1929 C 0.18822 0.05463 0.92926 0.0
C1930 C 0.15793 0.06375 0.97682 0.0
C1931 C 0.1691 0.05723 0.9929 0.0
C1932 C 0.1411 0.07606 0.98075 0.0
C1933 C 0.12938 0.08475 0.96463 0.0
C1934 C 0.1384 0.09615 0.94976 0.0
C1935 C 0.12733 0.10402 0.93434 0.0
C1936 C 0.10718 0.10076 0.93378 0.0
C1937 C 0.09807 0.08966 0.94867 0.0
C1938 C 0.1091 0.08169 0.96409 0.0
C1939 C 0.1447 0.09317 0.07001 0.0
C1940 C 0.12514 0.08951 0.07575 0.0
C1941 C 0.15176 0.08824 0.05085 0.0
C1942 C 0.13944 0.0795 0.03704 0.0
C1943 C 0.1199 0.07606 0.04285 0.0
C1944 C 0.11289 0.08095 0.06186 0.0
C1945 C 0.14649 0.07409 0.01647 0.0
C1946 C 0.13554 0.08088 1.00035 0.0
C1947 C 0.16353 0.06208 0.01254 0.0
C1948 C 0.17529 0.05349 0.02865 0.0
C1949 C 0.1665 0.04152 0.0432 0.0
C1950 C 0.17773 0.03348 0.05842 0.0
C1951 C 0.19779 0.03712 0.05909 0.0
C1952 C 0.20668 0.0488 0.04451 0.0
C1953 C 0.19549 0.05694 0.02929 0.0
H1954 H 0.20648 0.03085 0.07089 0.0
H1955 H 0.09862 0.10688 0.92182 0.0
H1956 H 0.78291 0.9217 0.53761 0.0
H1957 H 0.74895 0.9333 0.54275 0.0
H1958 H 0.72926 0.88589 0.50617 0.0
H1959 H 0.76328 0.87445 0.50067 0.0
H1960 H 0.70846 0.91659 0.4981 0.0
H1961 H 0.72455 0.88566 0.55895 0.0
H1962 H 0.74402 0.87859 0.58856 0.0
H1963 H 0.7357 0.93909 0.60728 0.0
H1964 H 0.71639 0.94655 0.57761 0.0
H1965 H 0.60779 0.92746 0.52957 0.0
H1966 H 0.64132 0.91482 0.52351 0.0
H1967 H 0.66375 0.96425 0.55535 0.0
H1968 H 0.6303 0.97645 0.56233 0.0
H1969 H 0.68267 0.9314 0.56567 0.0
H1970 H 0.66533 0.96078 0.50294 0.0
H1971 H 0.64482 0.96516 0.4736 0.0
H1972 H 0.65426 0.90366 0.45896 0.0
H1973 H 0.67459 0.89889 0.4884 0.0
C1974 C 0.77136 0.91368 0.5307 0.0
C1975 C 0.77592 0.8971 0.51874 0.0
C1976 C 0.75186 0.9203 0.53372 0.0
C1977 C 0.7363 0.91031 0.52519 0.0
C1978 C 0.74086 0.89393 0.51297 0.0
C1979 C 0.76039 0.88742 0.50978 0.0
C1980 C 0.71536 0.91694 0.52898 0.0
C1981 C 0.70283 0.91955 0.51294 0.0
C1982 C 0.70774 0.92107 0.54823 0.0
C1983 C 0.71926 0.91669 0.56602 0.0
C1984 C 0.72702 0.89747 0.56933 0.0
C1985 C 0.73799 0.89339 0.58612 0.0
C1986 C 0.74115 0.9084 0.59976 0.0
C1987 C 0.73328 0.9275 0.59668 0.0
C1988 C 0.72231 0.93166 0.57989 0.0
C1989 C 0.6198 0.93561 0.53544 0.0
C1990 C 0.61613 0.95312 0.54637 0.0
C1991 C 0.63907 0.92845 0.53174 0.0
C1992 C 0.65523 0.9387 0.53867 0.0
C1993 C 0.65162 0.95607 0.5497 0.0
C1994 C 0.63238 0.96318 0.5535 0.0
C1995 C 0.67589 0.93125 0.5348 0.0
C1996 C 0.68835 0.92845 0.55085 0.0
C1997 C 0.6833 0.92657 0.5156 0.0
C1998 C 0.67126 0.92946 0.49791 0.0
C1999 C 0.6629 0.94818 0.49352 0.0
C2000 C 0.65133 0.95073 0.47687 0.0
C2001 C 0.64819 0.93469 0.46445 0.0
C2002 C 0.65667 0.91607 0.46861 0.0
C2003 C 0.66821 0.91343 0.48526 0.0
H2004 H 0.63922 0.93669 0.45157 0.0
H2005 H 0.74966 0.90521 0.61276 0.0
H2006 H 0.75613 0.26039 0.04548 0.0
H2007 H 0.72473 0.24331 0.04337 0.0
H2008 H 0.75626 0.18734 0.03669 0.0
H2009 H 0.7875 0.20429 0.03949 0.0
H2010 H 0.72694 0.19541 1.00717 0.0
H2011 H 0.73413 0.19524 0.07782 0.0
H2012 H 0.73914 0.21122 0.10991 0.0
H2013 H 0.6864 0.24664 0.10271 0.0
H2014 H 0.6813 0.23111 0.07036 0.0
H2015 H 0.65274 0.12505 0.01536 0.0
H2016 H 0.68171 0.14495 0.01865 0.0
H2017 H 0.64528 0.19442 0.03887 0.0
H2018 H 0.61612 0.17412 0.03654 0.0
H2019 H 0.67619 0.19212 0.06068 0.0
H2020 H 0.66736 0.1926 0.99155 0.0
H2021 H 0.66213 0.17916 0.95834 0.0
H2022 H 0.71693 0.14633 0.96088 0.0
H2023 H 0.72232 0.15931 0.99427 0.0
C2024 C 0.75626 0.2444 0.04394 0.0
C2025 C 0.77417 0.23365 0.04246 0.0
C2026 C 0.73837 0.23467 0.04262 0.0
C2027 C 0.73813 0.21404 0.03964 0.0
C2028 C 0.75605 0.20326 0.03879 0.0
C2029 C 0.77387 0.21292 0.0405 0.0
C2030 C 0.71929 0.20367 0.03704 0.0
C2031 C 0.71592 0.19447 0.01894 0.0
C2032 C 0.70458 0.20307 0.05209 0.0
C2033 C 0.70745 0.21218 0.07161 0.0
C2034 C 0.72369 0.20656 0.08301 0.0
C2035 C 0.72654 0.21552 0.10125 0.0
C2036 C 0.71312 0.22998 0.10833 0.0
C2037 C 0.6968 0.23546 0.0972 0.0
C2038 C 0.69392 0.22659 0.07891 0.0
C2039 C 0.65079 0.14011 0.02065 0.0
C2040 C 0.63195 0.14785 0.0258 0.0
C2041 C 0.66746 0.15163 0.02229 0.0
C2042 C 0.66583 0.17138 0.0288 0.0
C2043 C 0.64703 0.17926 0.03377 0.0
C2044 C 0.63029 0.16767 0.03223 0.0
C2045 C 0.68382 0.18349 0.03081 0.0
C2046 C 0.68707 0.19307 0.04881 0.0
C2047 C 0.69832 0.18471 0.0155 0.0
C2048 C 0.69514 0.17677 0.99549 0.0
C2049 C 0.67821 0.18237 0.9851 0.0
C2050 C 0.67523 0.17486 0.96623 0.0
C2051 C 0.68917 0.16186 0.95752 0.0
C2052 C 0.70613 0.15637 0.96766 0.0
C2053 C 0.70916 0.16381 0.98655 0.0
H2054 H 0.68684 0.15607 0.9429 0.0
H2055 H 0.71535 0.2369 0.12246 0.0
H2056 H 0.44689 0.38625 0.02702 0.0
H2057 H 0.47704 0.40536 0.02481 0.0
H2058 H 0.44258 0.4582 0.01151 0.0
H2059 H 0.41255 0.43886 0.01324 0.0
H2060 H 0.47352 0.45742 0.98838 0.0
H2061 H 0.46426 0.44861 0.0581 0.0
H2062 H 0.45907 0.4293 0.0887 0.0
H2063 H 0.5139 0.39768 0.07834 0.0
H2064 H 0.51921 0.41657 0.04748 0.0
H2065 H 0.54751 0.52789 0.01544 0.0
H2066 H 0.51828 0.50741 0.01781 0.0
H2067 H 0.55373 0.45548 1.00316 0.0
H2068 H 0.58298 0.47602 1.00013 0.0
H2069 H 0.52317 0.45561 0.04093 0.0
H2070 H 0.52943 0.46016 0.96966 0.0
H2071 H 0.5339 0.47722 0.9379 0.0
H2072 H 0.48507 0.51681 0.95203 0.0
H2073 H 0.48018 0.49951 0.98394 0.0
C2074 C 0.44582 0.40196 0.02368 0.0
C2075 C 0.4274 0.41108 0.02028 0.0
C2076 C 0.46306 0.41295 0.02252 0.0
C2077 C 0.46229 0.43344 0.01823 0.0
C2078 C 0.44377 0.44249 0.01483 0.0
C2079 C 0.42656 0.43147 0.01588 0.0
C2080 C 0.48069 0.44537 0.01692 0.0
C2081 C 0.48413 0.45712 1.00009 0.0
C2082 C 0.49507 0.44493 0.03182 0.0
C2083 C 0.49205 0.43386 0.05047 0.0
C2084 C 0.47514 0.43746 0.06232 0.0
C2085 C 0.47218 0.4266 0.07969 0.0
C2086 C 0.48613 0.41225 0.08545 0.0
C2087 C 0.50309 0.40878 0.07386 0.0
C2088 C 0.50609 0.41956 0.05644 0.0
C2089 C 0.54909 0.51212 0.01264 0.0
C2090 C 0.56763 0.50364 1.00762 0.0
C2091 C 0.53235 0.50041 0.01405 0.0
C2092 C 0.53375 0.47983 0.01085 0.0
C2093 C 0.55225 0.47127 1.00585 0.0
C2094 C 0.56896 0.48307 1.00403 0.0
C2095 C 0.51578 0.46746 0.01245 0.0
C2096 C 0.51242 0.45581 0.02934 0.0
C2097 C 0.50143 0.46794 0.99772 0.0
C2098 C 0.50463 0.4788 0.97912 0.0
C2099 C 0.51983 0.47267 0.96605 0.0
C2100 C 0.52238 0.48236 0.94799 0.0
C2101 C 0.50989 0.49831 0.94294 0.0
C2102 C 0.49477 0.50452 0.95597 0.0
C2103 C 0.49204 0.49472 0.974 0.0
H2104 H 0.51179 0.5058 0.9289 0.0
H2105 H 0.48381 0.40385 0.09891 0.0
H2106 H 0.92872 0.2507 0.05778 0.0
H2107 H 0.95902 0.23385 0.06666 0.0
H2108 H 0.92921 0.17861 0.07164 0.0
H2109 H 0.89863 0.19506 0.06154 0.0
H2110 H 0.95393 0.1835 0.10272 0.0
H2111 H 0.96102 0.18887 0.03185 0.0
H2112 H 0.96194 0.20658 0.99991 0.0
H2113 H 0.00839 0.24254 0.02028 0.0
H2114 H 0.00751 0.22525 0.05246 0.0
H2115 H 0.03939 0.12222 0.11472 0.0
H2116 H 0.00874 0.13808 0.10431 0.0
H2117 H 0.04042 0.18923 0.08444 0.0
H2118 H 0.07138 0.17268 0.09373 0.0
H2119 H 0.01426 0.18671 0.06068 0.0
H2120 H 0.00808 0.18496 0.13045 0.0
H2121 H 0.00814 0.17046 0.16389 0.0
H2122 H 0.96105 0.13269 0.14872 0.0
H2123 H 0.96106 0.14669 0.11498 0.0
C2124 C 0.92825 0.23487 0.06011 0.0
C2125 C 0.91052 0.22451 0.05823 0.0
C2126 C 0.94596 0.22518 0.06548 0.0
C2127 C 0.94685 0.20473 0.0696 0.0
C2128 C 0.92921 0.19436 0.06845 0.0
C2129 C 0.91148 0.20398 0.06271 0.0
C2130 C 0.96602 0.19438 0.07535 0.0
C2131 C 0.96701 0.18396 0.09333 0.0
C2132 C 0.98361 0.19551 0.06378 0.0
C2133 C 0.98404 0.20595 0.04457 0.0
C2134 C 0.97129 0.20069 0.02956 0.0
C2135 C 0.97183 0.21062 0.01141 0.0
C2136 C 0.98517 0.22572 1.00809 0.0
C2137 C 0.99803 0.23089 0.02289 0.0
C2138 C 0.99752 0.22103 0.04107 0.0
C2139 C 0.03993 0.13685 0.1081 0.0
C2140 C 0.05811 0.14606 0.10517 0.0
C2141 C 0.02215 0.14614 0.1023 0.0
C2142 C 0.02166 0.16537 0.09395 0.0
C2143 C 0.03992 0.1745 0.09084 0.0
C2144 C 0.0578 0.165 0.09625 0.0
C2145 C 1.00234 0.17569 0.08819 0.0
C2146 C 1.00126 0.18615 0.07018 0.0
C2147 C 0.9848 0.17512 0.10004 0.0
C2148 C 0.98475 0.16667 0.12019 0.0
C2149 C 0.99786 0.17344 0.13422 0.0
C2150 C 0.99787 0.16532 0.15323 0.0
C2151 C 0.98462 0.15063 0.15844 0.0
C2152 C 0.97133 0.14404 0.14465 0.0
C2153 C 0.97134 0.15204 0.12558 0.0
H2154 H 0.98462 0.14436 0.17318 0.0
H2155 H 0.98556 0.23339 0.99401 0.0
H2156 H 0.06733 0.24182 0.31016 0.0
H2157 H 0.07472 0.21637 0.28507 0.0
H2158 H 0.03893 0.24879 0.24349 0.0
H2159 H 0.03207 0.27466 0.26841 0.0
H2160 H 0.03583 0.20327 0.24552 0.0
H2161 H 0.0814 0.25708 0.23716 0.0
H2162 H 0.10491 0.28064 0.25015 0.0
H2163 H 0.14156 0.23211 0.27017 0.0
H2164 H 0.11806 0.20826 0.25758 0.0
H2165 H 0.07307 0.1572 0.15712 0.0
H2166 H 0.05949 0.17896 0.18309 0.0
H2167 H 0.1108 0.1668 0.21805 0.0
H2168 H 0.12497 0.14638 0.19134 0.0
H2169 H 0.1045 0.20282 0.21955 0.0
H2170 H 0.06107 0.14844 0.22769 0.0
H2171 H 0.03737 0.12375 0.21739 0.0
H2172 H 0.99676 0.17051 0.20108 0.0
H2173 H 0.02045 0.19549 0.21076 0.0
C2174 C 0.06087 0.24331 0.29573 0.0
C2175 C 0.04922 0.26011 0.29107 0.0
C2176 C 0.06502 0.22882 0.28149 0.0
C2177 C 0.05733 0.23078 0.26251 0.0
C2178 C 0.04486 0.24702 0.25813 0.0
C2179 C 0.04099 0.26174 0.27229 0.0
C2180 C 0.06391 0.21688 0.24677 0.0
C2181 C 0.05076 0.2032 0.2396 0.0
C2182 C 0.0835 0.21662 0.23955 0.0
C2183 C 0.0979 0.23091 0.2466 0.0
C2184 C 0.09441 0.25145 0.24444 0.0
C2185 C 0.10774 0.26485 0.2517 0.0
C2186 C 0.1247 0.25788 0.26102 0.0
C2187 C 0.1284 0.23748 0.26298 0.0
C2188 C 0.11509 0.22402 0.25577 0.0
C2189 C 0.08124 0.15895 0.17053 0.0
C2190 C 0.1 0.1501 0.17239 0.0
C2191 C 0.07344 0.17134 0.18543 0.0
C2192 C 0.08396 0.17443 0.20277 0.0
C2193 C 0.10238 0.16481 0.20485 0.0
C2194 C 0.11043 0.153 0.18969 0.0
C2195 C 0.07653 0.1886 0.21821 0.0
C2196 C 0.08954 0.20258 0.22535 0.0
C2197 C 0.05687 0.18883 0.22562 0.0
C2198 C 0.04261 0.17383 0.21978 0.0
C2199 C 0.04716 0.15345 0.22173 0.0
C2200 C 0.03374 0.13941 0.21598 0.0
C2201 C 0.01561 0.14555 0.20849 0.0
C2202 C 0.01085 0.16576 0.2068 0.0
C2203 C 0.02427 0.17987 0.21238 0.0
H2204 H 1.00522 0.13465 0.20408 0.0
H2205 H 0.13497 0.26828 0.26668 0.0
H2206 H 0.05495 0.38934 0.27388 0.0
H2207 H 0.05008 0.40864 0.24389 0.0
H2208 H 0.99567 0.37936 0.23446 0.0
H2209 H 1.00126 0.35874 0.26346 0.0
H2210 H 0.01101 0.38324 0.2011 0.0
H2211 H 1.00119 0.43076 0.25283 0.0
H2212 H 0.00947 0.44969 0.28244 0.0
H2213 H 0.05968 0.47302 0.25177 0.0
H2214 H 0.05185 0.45398 0.22207 0.0
H2215 H 0.96579 0.45193 0.13669 0.0
H2216 H 0.97643 0.43227 0.16478 0.0
H2217 H 0.03377 0.45744 0.16 0.0
H2218 H 0.02291 0.47765 0.13131 0.0
H2219 H 0.01971 0.45599 0.19948 0.0
H2220 H 0.0269 0.40934 0.14671 0.0
H2221 H 0.01662 0.39108 0.1174 0.0
H2222 H 0.96877 0.36667 0.15098 0.0
H2223 H 0.97858 0.38507 0.18042 0.0
C2224 C 0.04203 0.38664 0.26542 0.0
C2225 C 0.02853 0.3722 0.27164 0.0
C2226 C 0.03905 0.39813 0.24823 0.0
C2227 C 0.02221 0.39605 0.23676 0.0
C2228 C 0.00877 0.3816 0.24284 0.0
C2229 C 0.0119 0.36986 0.25983 0.0
C2230 C 0.01871 0.40851 0.21832 0.0
C2231 C 0.01272 0.39918 0.20099 0.0
C2232 C 0.02132 0.42938 0.2175 0.0
C2233 C 0.02605 0.4408 0.23532 0.0
C2234 C 0.01408 0.43982 0.25246 0.0
C2235 C 0.01868 0.45058 0.26925 0.0
C2236 C 0.03512 0.46251 0.269 0.0
C2237 C 0.04697 0.46374 0.25195 0.0
C2238 C 0.04246 0.45297 0.23514 0.0
C2239 C 0.98082 0.4532 0.1413 0.0
C2240 C 0.9935 0.46633 0.13138 0.0
C2241 C 0.98691 0.44182 0.15753 0.0
C2242 C 0.00602 0.44301 0.16468 0.0
C2243 C 0.01895 0.45606 0.15484 0.0
C2244 C 0.01282 0.46747 0.13824 0.0
C2245 C 0.01191 0.43067 0.18248 0.0
C2246 C 0.0182 0.44002 0.19966 0.0
C2247 C 0.00931 0.40984 0.18331 0.0
C2248 C 1.0034 0.39869 0.16571 0.0
C2249 C 0.01411 0.40019 0.1478 0.0
C2250 C 0.00837 0.38981 0.13117 0.0
C2251 C 0.99203 0.37775 0.13232 0.0
C2252 C 0.98141 0.37603 0.15011 0.0
C2253 C 0.98706 0.38642 0.16678 0.0
H2254 H 0.98762 0.36971 0.11942 0.0
H2255 H 0.03865 0.47085 0.28201 0.0
H2256 H 0.01407 0.80143 0.31851 0.0
H2257 H 0.01634 0.83544 0.33073 0.0
H2258 H 0.0329 0.85525 0.27206 0.0
H2259 H 0.03016 0.8212 0.25982 0.0
H2260 H 0.04708 0.85808 0.3319 0.0
H2261 H 0.01511 0.90461 0.26701 0.0
H2262 H 0.991 0.90139 0.2407 0.0
H2263 H 0.96136 0.8568 0.27455 0.0
H2264 H 0.9847 0.86045 0.30148 0.0
H2265 H 0.07521 0.95295 0.34394 0.0
H2266 H 0.06596 0.92618 0.3225 0.0
H2267 H 0.00654 0.93044 0.34555 0.0
H2268 H 0.01545 0.95796 0.36671 0.0
H2269 H 0.01146 0.91652 0.30367 0.0
H2270 H 0.03198 0.90299 0.37042 0.0
H2271 H 0.05418 0.90799 0.39813 0.0
H2272 H 0.10286 0.88505 0.36298 0.0
H2273 H 0.08096 0.88038 0.33491 0.0
C2274 C 0.01807 0.81316 0.30832 0.0
C2275 C 0.02184 0.80902 0.28834 0.0
C2276 C 0.01941 0.83247 0.31524 0.0
C2277 C 0.02464 0.84785 0.30227 0.0
C2278 C 0.02857 0.84364 0.28224 0.0
C2279 C 0.02712 0.82429 0.2753 0.0
C2280 C 0.02656 0.86814 0.30998 0.0
C2281 C 0.03925 0.87078 0.32567 0.0
C2282 C 0.01619 0.88472 0.30204 0.0
C2283 C 1.00182 0.88264 0.28614 0.0
C2284 C 1.00336 0.89423 0.2689 0.0
C2285 C 0.98979 0.89236 0.25391 0.0
C2286 C 0.97477 0.87876 0.25587 0.0
C2287 C 0.97308 0.86723 0.27299 0.0
C2288 C 0.98642 0.86927 0.28817 0.0
C2289 C 0.05992 0.94901 0.34379 0.0
C2290 C 0.04611 0.95746 0.35727 0.0
C2291 C 0.05469 0.93361 0.33152 0.0
C2292 C 0.03567 0.92628 0.33268 0.0
C2293 C 0.02129 0.93601 0.34446 0.0
C2294 C 0.02648 0.95155 0.3567 0.0
C2295 C 0.03218 0.90625 0.32516 0.0
C2296 C 0.01925 0.90369 0.30969 0.0
C2297 C 0.04194 0.88957 0.33351 0.0
C2298 C 0.05491 0.89147 0.35059 0.0
C2299 C 0.04744 0.89909 0.36861 0.0
C2300 C 0.05996 0.90189 0.38436 0.0
C2301 C 0.07993 0.89686 0.38231 0.0
C2302 C 0.08739 0.88895 0.36454 0.0
C2303 C 0.07494 0.88623 0.34871 0.0
H2304 H 0.08962 0.89905 0.39451 0.0
H2305 H 0.96438 0.87723 0.24415 0.0
H2306 H 0.03703 0.66738 0.30675 0.0
H2307 H 0.03657 0.6465 0.3362 0.0
H2308 H 0.98609 0.67977 0.35906 0.0
H2309 H 0.98726 0.7016 0.33027 0.0
H2310 H 0.01122 0.67416 0.38676 0.0
H2311 H 0.98224 0.63255 0.33893 0.0
H2312 H 0.98026 0.61501 0.30718 0.0
H2313 H 0.03321 0.58179 0.31986 0.0
H2314 H 0.03563 0.59934 0.35157 0.0
H2315 H 0.98668 0.57609 0.44202 0.0
H2316 H 0.98703 0.59629 0.41211 0.0
H2317 H 0.0373 0.62701 0.43285 0.0
H2318 H 0.03661 0.60735 0.46321 0.0
H2319 H 0.01121 0.60071 0.38318 0.0
H2320 H 0.03663 0.67454 0.41586 0.0
H2321 H 0.03457 0.69377 0.44675 0.0
H2322 H 0.98234 0.66354 0.46439 0.0
H2323 H 0.98397 0.64427 0.4335 0.0
C2324 C 0.02593 0.67039 0.31811 0.0
C2325 C 0.0122 0.68618 0.31617 0.0
C2326 C 0.02554 0.65827 0.33482 0.0
C2327 C 0.01115 0.66144 0.34967 0.0
C2328 C 0.99728 0.67705 0.34771 0.0
C2329 C 0.99783 0.68936 0.33114 0.0
C2330 C 0.01086 0.64884 0.36755 0.0
C2331 C 0.01119 0.65809 0.38601 0.0
C2332 C 0.01064 0.62793 0.36652 0.0
C2333 C 0.00919 0.61735 0.34752 0.0
C2334 C 0.99352 0.6216 0.33487 0.0
C2335 C 0.99231 0.61165 0.3169 0.0
C2336 C 0.00662 0.59732 0.31149 0.0
C2337 C 0.02215 0.5929 0.32406 0.0
C2338 C 0.02344 0.60283 0.34204 0.0
C2339 C 0.99791 0.58704 0.44019 0.0
C2340 C 0.01161 0.59013 0.45501 0.0
C2341 C 0.99808 0.59859 0.42307 0.0
C2342 C 0.01199 0.61337 0.42039 0.0
C2343 C 0.02616 0.61598 0.43481 0.0
C2344 C 0.02587 0.60458 0.45207 0.0
C2345 C 0.01154 0.62602 0.40249 0.0
C2346 C 0.01121 0.61678 0.38399 0.0
C2347 C 0.01132 0.64698 0.40351 0.0
C2348 C 0.01055 0.65785 0.42248 0.0
C2349 C 0.02474 0.67197 0.42637 0.0
C2350 C 0.02364 0.68288 0.44386 0.0
C2351 C 0.00836 0.67987 0.45752 0.0
C2352 C 0.99422 0.6658 0.45382 0.0
C2353 C 0.99524 0.65485 0.43634 0.0
H2354 H 0.00744 0.6886 0.47087 0.0
H2355 H 0.00565 0.58963 0.29757 0.0
H2356 H 0.31553 0.08122 0.23905 0.0
H2357 H 0.28738 0.08742 0.21776 0.0
H2358 H 0.25062 0.05486 0.2583 0.0
H2359 H 0.27895 0.0486 0.2796 0.0
H2360 H 0.23994 0.04624 0.22271 0.0
H2361 H 0.25012 0.10846 0.2542 0.0
H2362 H 0.26952 0.13685 0.26435 0.0
H2363 H 0.28151 0.1513 0.2035 0.0
H2364 H 0.26242 0.12278 0.19299 0.0
H2365 H 0.14892 0.07912 0.18062 0.0
H2366 H 0.17665 0.07194 0.20216 0.0
H2367 H 0.21386 0.10726 0.16453 0.0
H2368 H 0.186 0.11505 0.14343 0.0
H2369 H 0.22411 0.11442 0.19921 0.0
H2370 H 0.21461 0.05211 0.16749 0.0
H2371 H 0.19591 0.02332 0.15704 0.0
H2372 H 0.18307 1.00883 0.21772 0.0
H2373 H 0.2015 0.0377 0.22852 0.0
C2374 C 0.30139 0.0756 0.24362 0.0
C2375 C 0.29953 0.06488 0.26148 0.0
C2376 C 0.28516 0.07916 0.23134 0.0
C2377 C 0.26636 0.07211 0.23639 0.0
C2378 C 0.26468 0.06075 0.2539 0.0
C2379 C 0.28094 0.05724 0.26622 0.0
C2380 C 0.2486 0.07666 0.22357 0.0
C2381 C 0.23641 0.06123 0.21785 0.0
C2382 C 0.2438 0.09608 0.21658 0.0
C2383 C 0.25495 0.11344 0.22282 0.0
C2384 C 0.25696 0.11765 0.24299 0.0
C2385 C 0.26791 0.13375 0.24881 0.0
C2386 C 0.27676 0.14586 0.23458 0.0
C2387 C 0.27465 0.14191 0.2145 0.0
C2388 C 0.26376 0.12579 0.2086 0.0
C2389 C 0.16302 0.08528 0.1768 0.0
C2390 C 0.165 0.09754 0.15996 0.0
C2391 C 0.17908 0.08104 0.18917 0.0
C2392 C 0.19789 0.08863 0.18508 0.0
C2393 C 0.19979 0.10101 0.16831 0.0
C2394 C 0.18371 0.10538 0.15604 0.0
C2395 C 0.21544 0.08398 0.19819 0.0
C2396 C 0.2276 0.09941 0.20402 0.0
C2397 C 0.22025 0.06454 0.20521 0.0
C2398 C 0.20931 0.04712 0.1988 0.0
C2399 C 0.20772 0.04283 0.17859 0.0
C2400 C 0.19717 0.02651 0.17261 0.0
C2401 C 0.18828 0.01428 0.18671 0.0
C2402 C 0.18995 0.01833 0.20682 0.0
C2403 C 0.20047 0.03465 0.21288 0.0
H2404 H 0.18013 1.00164 0.18205 0.0
H2405 H 0.28524 0.15832 0.23911 0.0
H2406 H 0.74585 0.53874 0.26999 0.0
H2407 H 0.77016 0.5372 0.24279 0.0
H2408 H 0.80108 0.48928 0.27221 0.0
H2409 H 0.77664 0.49066 0.29947 0.0
H2410 H 0.82528 0.52166 0.25746 0.0
H2411 H 0.77554 0.47732 0.23562 0.0
H2412 H 0.74139 0.46905 0.22853 0.0
H2413 H 0.73818 0.51648 0.18607 0.0
H2414 H 0.77224 0.52521 0.19314 0.0
H2415 H 0.89038 0.49353 0.1791 0.0
H2416 H 0.8664 0.49426 0.20636 0.0
H2417 H 0.82685 0.53012 0.1713 0.0
H2418 H 0.8502 0.52837 0.14351 0.0
H2419 H 0.80675 0.50386 0.18945 0.0
H2420 H 0.85419 0.54949 0.20993 0.0
H2421 H 0.88691 0.56171 0.2176 0.0
H2422 H 0.89336 0.51695 0.26251 0.0
H2423 H 0.86078 0.50428 0.25489 0.0
C2424 C 0.75782 0.52786 0.27062 0.0
C2425 C 0.75939 0.51479 0.28679 0.0
C2426 C 0.77165 0.52698 0.25509 0.0
C2427 C 0.78738 0.51313 0.25552 0.0
C2428 C 0.78904 0.50008 0.27166 0.0
C2429 C 0.77503 0.50077 0.2871 0.0
C2430 C 0.80202 0.51227 0.23902 0.0
C2431 C 0.82138 0.51746 0.24263 0.0
C2432 C 0.79666 0.50754 0.21959 0.0
C2433 C 0.77638 0.50199 0.215 0.0
C2434 C 0.76751 0.48604 0.22485 0.0
C2435 C 0.74818 0.48127 0.22083 0.0
C2436 C 0.73761 0.49226 0.20688 0.0
C2437 C 0.74638 0.50799 0.19687 0.0
C2438 C 0.76571 0.51284 0.20086 0.0
C2439 C 0.8765 0.50139 0.17705 0.0
C2440 C 0.87231 0.51088 0.15899 0.0
C2441 C 0.86288 0.50203 0.1928 0.0
C2442 C 0.84487 0.51249 0.19105 0.0
C2443 C 0.84064 0.52199 0.17308 0.0
C2444 C 0.85416 0.52117 0.15724 0.0
C2445 C 0.83028 0.51316 0.20778 0.0
C2446 C 0.81084 0.50799 0.20424 0.0
C2447 C 0.83548 0.51835 0.22721 0.0
C2448 C 0.85514 0.52581 0.2317 0.0
C2449 C 0.86266 0.54214 0.22132 0.0
C2450 C 0.88117 0.54917 0.22568 0.0
C2451 C 0.89223 0.54008 0.2405 0.0
C2452 C 0.88479 0.52396 0.25101 0.0
C2453 C 0.8663 0.51685 0.24668 0.0
H2454 H 0.90655 0.54556 0.24387 0.0
H2455 H 0.72262 0.48856 0.2038 0.0
H2456 H 0.31157 0.02951 0.38911 0.0
H2457 H 0.28398 0.02756 0.41281 0.0
H2458 H 0.25038 0.06905 0.37732 0.0
H2459 H 0.27834 0.07175 0.35425 0.0
H2460 H 0.24282 0.07612 0.4143 0.0
H2461 H 0.24622 0.0171 0.37405 0.0
H2462 H 0.26183 0.98678 0.35987 0.0
H2463 H 0.26998 0.963 0.41818 0.0
H2464 H 0.25468 0.99331 0.43269 0.0
H2465 H 0.14504 0.04715 0.43525 0.0
H2466 H 0.17736 0.05752 0.4235 0.0
H2467 H 0.20489 0.01444 0.46224 0.0
H2468 H 0.17245 1.00321 0.47287 0.0
H2469 H 0.21763 1.00892 0.42724 0.0
H2470 H 0.20907 0.06771 0.46675 0.0
H2471 H 0.19123 0.09766 0.47902 0.0
H2472 H 0.19046 0.12177 0.42019 0.0
H2473 H 0.20803 0.09184 0.40753 0.0
C2474 C 0.29834 0.03836 0.38662 0.0
C2475 C 0.29687 0.0507 0.36997 0.0
C2476 C 0.28261 0.03721 0.40005 0.0
C2477 C 0.26501 0.04786 0.3966 0.0
C2478 C 0.26383 0.06072 0.38027 0.0
C2479 C 0.27972 0.06222 0.3671 0.0
C2480 C 0.24741 0.04482 0.40928 0.0
C2481 C 0.23724 0.06144 0.41711 0.0
C2482 C 0.24032 0.02566 0.41319 0.0
C2483 C 0.24954 1.00752 0.40444 0.0
C2484 C 0.25149 1.00546 0.38383 0.0
C2485 C 0.26026 0.98828 0.37574 0.0
C2486 C 0.26695 0.973 0.38812 0.0
C2487 C 0.26484 0.97486 0.40861 0.0
C2488 C 0.25613 0.99202 0.41677 0.0
C2489 C 0.15807 0.04046 0.44169 0.0
C2490 C 0.15656 0.02458 0.45498 0.0
C2491 C 0.17652 0.04641 0.43506 0.0
C2492 C 0.19361 0.03689 0.44213 0.0
C2493 C 0.19193 0.022 0.45661 0.0
C2494 C 0.17349 0.01568 0.46277 0.0
C2495 C 0.21288 0.04024 0.43235 0.0
C2496 C 0.22335 0.02363 0.42489 0.0
C2497 C 0.22001 0.05941 0.42855 0.0
C2498 C 0.20978 0.07753 0.43621 0.0
C2499 C 0.20501 0.07937 0.45643 0.0
C2500 C 0.19495 0.09634 0.46344 0.0
C2501 C 0.1897 0.1116 0.45039 0.0
C2502 C 0.19454 0.10995 0.43029 0.0
C2503 C 0.20458 0.09301 0.42319 0.0
H2504 H 0.18189 0.12472 0.45585 0.0
H2505 H 0.27372 0.9597 0.38182 0.0
H2506 H 0.72422 0.52421 0.43073 0.0
H2507 H 0.74604 0.518 0.45874 0.0
H2508 H 0.79351 0.50256 0.41774 0.0
H2509 H 0.77169 0.5086 0.38998 0.0
H2510 H 0.78889 0.47559 0.44865 0.0
H2511 H 0.78892 0.54817 0.43793 0.0
H2512 H 0.77214 0.58106 0.43766 0.0
H2513 H 0.75403 0.57323 0.4983 0.0
H2514 H 0.77028 0.54008 0.49874 0.0
H2515 H 0.88341 0.49564 0.46779 0.0
H2516 H 0.84979 0.48967 0.4597 0.0
H2517 H 0.8301 0.51383 0.51596 0.0
H2518 H 0.86422 0.52052 0.52394 0.0
H2519 H 0.81163 0.5313 0.48904 0.0
H2520 H 0.82075 0.46356 0.50226 0.0
H2521 H 0.83723 0.43061 0.50327 0.0
H2522 H 0.83732 0.42784 0.43989 0.0
H2523 H 0.82118 0.46093 0.43847 0.0
C2524 C 0.7394 0.51963 0.42795 0.0
C2525 C 0.74667 0.51692 0.40861 0.0
C2526 C 0.75169 0.51602 0.44377 0.0
C2527 C 0.7712 0.50976 0.44013 0.0
C2528 C 0.77839 0.50723 0.4207 0.0
C2529 C 0.76613 0.51083 0.40496 0.0
C2530 C 0.78467 0.50631 0.45632 0.0
C2531 C 0.79389 0.48763 0.45768 0.0
C2532 C 0.79023 0.5218 0.46871 0.0
C2533 C 0.78053 0.54163 0.46829 0.0
C2534 C 0.78117 0.55341 0.45112 0.0
C2535 C 0.77175 0.57207 0.45094 0.0
C2536 C 0.7619 0.57917 0.46792 0.0
C2537 C 0.76151 0.56765 0.48513 0.0
C2538 C 0.77079 0.54893 0.48534 0.0
C2539 C 0.87204 0.499 0.47881 0.0
C2540 C 0.8764 0.50842 0.49656 0.0
C2541 C 0.85275 0.49545 0.47421 0.0
C2542 C 0.83741 0.50086 0.48744 0.0
C2543 C 0.84177 0.50934 0.50567 0.0
C2544 C 0.86118 0.51319 0.51018 0.0
C2545 C 0.81708 0.50079 0.48046 0.0
C2546 C 0.80634 0.51882 0.48082 0.0
C2547 C 0.81006 0.48462 0.46971 0.0
C2548 C 0.81976 0.46472 0.47031 0.0
C2549 C 0.82439 0.45596 0.48854 0.0
C2550 C 0.83367 0.43726 0.48918 0.0
C2551 C 0.83832 0.42713 0.47166 0.0
C2552 C 0.83368 0.43569 0.45345 0.0
C2553 C 0.82443 0.45441 0.45273 0.0
H2554 H 0.84551 0.41265 0.4722 0.0
H2555 H 0.75465 0.59365 0.46778 0.0
H2556 H 0.29706 0.33886 0.01087 0.0
H2557 H 0.26768 0.31874 0.01353 0.0
H2558 H 0.3013 0.27251 0.04278 0.0
H2559 H 0.33091 0.29224 0.03913 0.0
H2560 H 0.27439 0.25691 0.01888 0.0
H2561 H 0.27494 0.30742 0.07009 0.0
H2562 H 0.27985 0.34269 0.07749 0.0
H2563 H 0.23002 0.35927 0.0427 0.0
H2564 H 0.22498 0.32405 0.03489 0.0
H2565 H 0.19307 0.23257 0.09319 0.0
H2566 H 0.21801 0.25537 0.08165 0.0
H2567 H 0.20428 0.24256 0.02122 0.0
H2568 H 0.17901 0.21986 0.03265 0.0
H2569 H 0.22002 0.28858 0.05857 0.0
H2570 H 0.24763 0.23816 0.99526 0.0
H2571 H 0.24653 0.20304 0.98532 0.0
H2572 H 0.24251 0.18532 0.04627 0.0
H2573 H 0.24392 0.22028 0.05654 0.0
C2574 C 0.29816 0.32425 0.01755 0.0
C2575 C 0.31604 0.31711 0.02507 0.0
C2576 C 0.28142 0.3128 0.0191 0.0
C2577 C 0.28222 0.29428 0.02869 0.0
C2578 C 0.30034 0.28676 0.03537 0.0
C2579 C 0.31716 0.29807 0.03347 0.0
C2580 C 0.26397 0.28358 0.03349 0.0
C2581 C 0.26244 0.26388 0.02739 0.0
C2582 C 0.24847 0.29255 0.04484 0.0
C2583 C 0.24963 0.3132 0.05187 0.0
C2584 C 0.26487 0.31859 0.06427 0.0
C2585 C 0.26775 0.33854 0.06842 0.0
C2586 C 0.25534 0.35318 0.06044 0.0
C2587 C 0.23964 0.34788 0.0488 0.0
C2588 C 0.23673 0.32793 0.04455 0.0
C2589 C 0.19492 0.23499 0.07744 0.0
C2590 C 0.18409 0.22427 0.06384 0.0
C2591 C 0.20925 0.24801 0.07087 0.0
C2592 C 0.21316 0.25048 0.05059 0.0
C2593 C 0.20166 0.24067 0.03695 0.0
C2594 C 0.18729 0.22764 0.04351 0.0
C2595 C 0.23041 0.26185 0.04391 0.0
C2596 C 0.23181 0.28168 0.04978 0.0
C2597 C 0.24593 0.25287 0.03258 0.0
C2598 C 0.24567 0.2318 0.02662 0.0
C2599 C 0.24662 0.22673 1.00652 0.0
C2600 C 0.24593 0.20687 1.00083 0.0
C2601 C 0.24439 0.19196 0.01515 0.0
C2602 C 0.24365 0.19688 0.03519 0.0
C2603 C 0.2444 0.2167 0.04095 0.0
H2604 H 0.2438 0.1766 0.01071 0.0
H2605 H 0.25807 0.36862 0.06312 0.0
H2606 H 0.24722 0.81556 0.49 0.0
H2607 H 0.22312 0.842 0.483 0.0
H2608 H 0.23978 0.8729 0.53539 0.0
H2609 H 0.2636 0.84645 0.5426 0.0
H2610 H 0.20335 0.87708 0.53421 0.0
H2611 H 0.25245 0.8867 0.48307 0.0
H2612 H 0.27399 0.87701 0.45477 0.0
H2613 H 0.22358 0.86264 0.42122 0.0
H2614 H 0.20177 0.87203 0.44942 0.0
H2615 H 0.15479 0.96956 0.51324 0.0
H2616 H 0.17887 0.94277 0.51914 0.0
H2617 H 0.15988 0.9125 0.46726 0.0
H2618 H 0.13627 0.93966 0.46091 0.0
H2619 H 0.19694 0.90759 0.46784 0.0
H2620 H 0.14793 0.89814 0.51875 0.0
H2621 H 0.12627 0.90807 0.54687 0.0
H2622 H 0.17655 0.92213 0.58075 0.0
H2623 H 0.19849 0.9125 0.55272 0.0
C2624 C 0.24598 0.82804 0.49998 0.0
C2625 C 0.25761 0.82851 0.51696 0.0
C2626 C 0.23208 0.84336 0.4959 0.0
C2627 C 0.22952 0.85998 0.50842 0.0
C2628 C 0.24114 0.86045 0.52536 0.0
C2629 C 0.25489 0.84509 0.52953 0.0
C2630 C 0.21467 0.87667 0.50425 0.0
C2631 C 0.20226 0.88386 0.5197 0.0
C2632 C 0.21245 0.88554 0.48529 0.0
C2633 C 0.22552 0.87991 0.46838 0.0
C2634 C 0.24598 0.88137 0.46969 0.0
C2635 C 0.25823 0.87594 0.45367 0.0
C2636 C 0.25016 0.86918 0.43622 0.0
C2637 C 0.22981 0.86786 0.43475 0.0
C2638 C 0.2175 0.87325 0.45073 0.0
C2639 C 0.15559 0.95716 0.50312 0.0
C2640 C 0.14322 0.95687 0.4867 0.0
C2641 C 0.16942 0.94164 0.50658 0.0
C2642 C 0.1712 0.92505 0.49395 0.0
C2643 C 0.15898 0.92487 0.47741 0.0
C2644 C 0.14527 0.94048 0.47385 0.0
C2645 C 0.18577 0.90805 0.49783 0.0
C2646 C 0.19808 0.9008 0.48234 0.0
C2647 C 0.18792 0.89911 0.51675 0.0
C2648 C 0.17481 0.90474 0.53363 0.0
C2649 C 0.15434 0.90344 0.53218 0.0
C2650 C 0.14202 0.90901 0.54809 0.0
C2651 C 0.15003 0.91576 0.56557 0.0
C2652 C 0.17037 0.91691 0.56719 0.0
C2653 C 0.18276 0.91138 0.55131 0.0
H2654 H 0.14046 0.92007 0.57788 0.0
H2655 H 0.25967 0.86501 0.42383 0.0
H2656 H 0.89562 0.7619 0.48672 0.0
H2657 H 0.91168 0.72929 0.48774 0.0
H2658 H 0.93892 0.74433 0.54243 0.0
H2659 H 0.92437 0.77763 0.5406 0.0
H2660 H 0.96375 0.72429 0.52212 0.0
H2661 H 0.89674 0.71433 0.53952 0.0
H2662 H 0.86077 0.71613 0.53627 0.0
H2663 H 0.8657 0.68268 0.48247 0.0
H2664 H 0.90174 0.68097 0.48523 0.0
H2665 H 0.98134 0.6215 0.55112 0.0
H2666 H 0.96878 0.6561 0.54966 0.0
H2667 H 0.9561 0.64879 0.48802 0.0
H2668 H 0.96926 0.61457 0.48929 0.0
H2669 H 0.92414 0.66462 0.5126 0.0
H2670 H 0.99263 0.67277 0.49919 0.0
H2671 H 0.02809 0.67084 0.5053 0.0
H2672 H 0.01938 0.70722 0.55683 0.0
H2673 H 0.98378 0.70914 0.55111 0.0
C2674 C 0.90535 0.75852 0.49878 0.0
C2675 C 0.90855 0.77255 0.51364 0.0
C2676 C 0.91427 0.73964 0.49952 0.0
C2677 C 0.92614 0.73408 0.51543 0.0
C2678 C 0.9297 0.74814 0.53007 0.0
C2679 C 0.92112 0.76717 0.52912 0.0
C2680 C 0.93484 0.71363 0.51682 0.0
C2681 C 0.95498 0.71125 0.52037 0.0
C2682 C 0.92355 0.69654 0.51428 0.0
C2683 C 0.90192 0.69772 0.51247 0.0
C2684 C 0.89016 0.70752 0.5269 0.0
C2685 C 0.86976 0.7085 0.52516 0.0
C2686 C 0.86096 0.69958 0.50914 0.0
C2687 C 0.87254 0.68963 0.49484 0.0
C2688 C 0.89294 0.68865 0.49648 0.0
C2689 C 0.97623 0.6275 0.53722 0.0
C2690 C 0.97647 0.61562 0.52026 0.0
C2691 C 0.96901 0.64715 0.5364 0.0
C2692 C 0.96157 0.65497 0.51871 0.0
C2693 C 0.96185 0.64305 0.50177 0.0
C2694 C 0.96945 0.62361 0.50248 0.0
C2695 C 0.95294 0.67538 0.51793 0.0
C2696 C 0.93282 0.6777 0.51447 0.0
C2697 C 0.96415 0.69236 0.52112 0.0
C2698 C 0.9855 0.69093 0.52478 0.0
C2699 C 0.99824 0.6802 0.51191 0.0
C2700 C 0.01838 0.67914 0.51529 0.0
C2701 C 0.02599 0.68886 0.53149 0.0
C2702 C 0.01347 0.69967 0.54431 0.0
C2703 C 0.9933 0.70075 0.54098 0.0
H2704 H 0.04161 0.68803 0.53408 0.0
H2705 H 0.84515 0.70033 0.50784 0.0
H2706 H 0.35924 0.83516 0.52316 0.0
H2707 H 0.38781 0.85641 0.52168 0.0
H2708 H 0.42294 0.81007 0.54908 0.0
H2709 H 0.3941 0.78889 0.55074 0.0
H2710 H 0.42717 0.84503 0.56656 0.0
H2711 H 0.43202 0.82142 0.50136 0.0
H2712 H 0.42087 0.81186 0.46845 0.0
H2713 H 0.4033 0.87229 0.45646 0.0
H2714 H 0.41396 0.88216 0.48944 0.0
H2715 H 0.49421 0.92297 0.56203 0.0
H2716 H 0.48445 0.89011 0.55125 0.0
H2717 H 0.42983 0.91547 0.53044 0.0
H2718 H 0.43935 0.94818 0.5412 0.0
H2719 H 0.44614 0.88338 0.50666 0.0
H2720 H 0.43052 0.90185 0.57612 0.0
H2721 H 0.44131 0.9122 0.60898 0.0
H2722 H 0.47964 0.86068 0.61209 0.0
H2723 H 0.46928 0.85025 0.57907 0.0
C2724 C 0.37312 0.82965 0.52882 0.0
C2725 C 0.37475 0.81068 0.53714 0.0
C2726 C 0.38942 0.84158 0.52777 0.0
C2727 C 0.40754 0.83458 0.5349 0.0
C2728 C 0.40911 0.81558 0.54333 0.0
C2729 C 0.39275 0.80362 0.54438 0.0
C2730 C 0.42422 0.84799 0.53502 0.0
C2731 C 0.43183 0.85294 0.55334 0.0
C2732 C 0.43024 0.85831 0.51779 0.0
C2733 C 0.42379 0.85252 0.4979 0.0
C2734 C 0.42566 0.83265 0.49175 0.0
C2735 C 0.41943 0.82718 0.47308 0.0
C2736 C 0.41139 0.84146 0.46036 0.0
C2737 C 0.40955 0.86125 0.46631 0.0
C2738 C 0.41571 0.8668 0.48499 0.0
C2739 C 0.48037 0.92157 0.55466 0.0
C2740 C 0.46734 0.93794 0.55271 0.0
C2741 C 0.4749 0.90287 0.54846 0.0
C2742 C 0.45646 0.90052 0.54014 0.0
C2743 C 0.44418 0.91712 0.53673 0.0
C2744 C 0.44952 0.93572 0.54309 0.0
C2745 C 0.44821 0.88079 0.53821 0.0
C2746 C 0.44214 0.87475 0.51964 0.0
C2747 C 0.44357 0.86941 0.55516 0.0
C2748 C 0.44932 0.8754 0.57514 0.0
C2749 C 0.44131 0.8928 0.58381 0.0
C2750 C 0.44735 0.89868 0.60243 0.0
C2751 C 0.4612 0.88713 0.6126 0.0
C2752 C 0.46896 0.86963 0.60418 0.0
C2753 C 0.46302 0.86374 0.58552 0.0
H2754 H 0.46588 0.89171 0.62701 0.0
H2755 H 0.4066 0.83719 0.4459 0.0
H2756 H 0.53259 0.77901 0.77939 0.0
H2757 H 0.5378 0.75082 0.75678 0.0
H2758 H 0.5771 0.7229 0.79831 0.0
H2759 H 0.57159 0.75087 0.82103 0.0
H2760 H 0.59243 0.72542 0.75959 0.0
H2761 H 0.53294 0.70522 0.79326 0.0
H2762 H 0.49851 0.70988 0.80464 0.0
H2763 H 0.48032 0.7161 0.74453 0.0
H2764 H 0.5147 0.71185 0.73282 0.0
H2765 H 0.61163 0.63634 0.71108 0.0
H2766 H 0.60063 0.6597 0.7368 0.0
H2767 H 0.55198 0.67868 0.70078 0.0
H2768 H 0.56225 0.65418 0.67571 0.0
H2769 H 0.54061 0.68124 0.73666 0.0
H2770 H 0.59774 0.70368 0.70203 0.0
H2771 H 0.63166 0.70186 0.68854 0.0
H2772 H 0.65379 0.69511 0.74718 0.0
H2773 H 0.61998 0.6966 0.76099 0.0
C2774 C 0.5421 0.76667 0.7837 0.0
C2775 C 0.55166 0.76691 0.80185 0.0
C2776 C 0.54507 0.75065 0.77086 0.0
C2777 C 0.55775 0.73477 0.77597 0.0
C2778 C 0.56722 0.735 0.79416 0.0
C2779 C 0.56408 0.75089 0.80708 0.0
C2780 C 0.56191 0.71833 0.76198 0.0
C2781 C 0.58118 0.71555 0.75478 0.0
C2782 C 0.54704 0.70604 0.75514 0.0
C2783 C 0.52639 0.7084 0.76219 0.0
C2784 C 0.52161 0.70775 0.78249 0.0
C2785 C 0.50211 0.7103 0.78899 0.0
C2786 C 0.48724 0.71333 0.77532 0.0
C2787 C 0.49185 0.71378 0.75511 0.0
C2788 C 0.51134 0.71129 0.74853 0.0
C2789 C 0.59827 0.64513 0.709 0.0
C2790 C 0.58774 0.64354 0.69157 0.0
C2791 C 0.59213 0.65865 0.72353 0.0
C2792 C 0.57587 0.67149 0.72045 0.0
C2793 C 0.56466 0.66907 0.70347 0.0
C2794 C 0.57047 0.65505 0.68918 0.0
C2795 C 0.5713 0.68807 0.73435 0.0
C2796 C 0.55193 0.69101 0.74147 0.0
C2797 C 0.58601 0.70089 0.74078 0.0
C2798 C 0.60634 0.70005 0.73251 0.0
C2799 C 0.60984 0.70167 0.71202 0.0
C2800 C 0.62904 0.70071 0.70433 0.0
C2801 C 0.64486 0.69832 0.71699 0.0
C2802 C 0.64152 0.69693 0.73738 0.0
C2803 C 0.62235 0.69784 0.74515 0.0
H2804 H 0.65972 0.69758 0.711 0.0
H2805 H 0.47214 0.7153 0.78039 0.0
H2806 H 0.51138 0.85485 0.76298 0.0
H2807 H 0.50502 0.87351 0.73251 0.0
H2808 H 0.53657 0.92277 0.75492 0.0
H2809 H 0.54321 0.90405 0.7854 0.0
H2810 H 0.50061 0.93465 0.73719 0.0
H2811 H 0.55795 0.89557 0.72043 0.0
H2812 H 0.57833 0.86497 0.71697 0.0
H2813 H 0.53623 0.84085 0.67805 0.0
H2814 H 0.51542 0.87121 0.68158 0.0
H2815 H 0.502 0.99023 0.6473 0.0
H2816 H 0.51254 0.9722 0.67704 0.0
H2817 H 0.49206 0.91781 0.65255 0.0
H2818 H 0.48187 0.93586 0.62279 0.0
H2819 H 0.52328 0.90882 0.67186 0.0
H2820 H 0.46537 0.94672 0.68884 0.0
H2821 H 0.44405 0.97669 0.69237 0.0
H2822 H 0.48546 1.00216 0.73118 0.0
H2823 H 0.50723 0.97252 0.72749 0.0
C2824 C 0.51693 0.86969 0.76152 0.0
C2825 C 0.52785 0.87784 0.77684 0.0
C2826 C 0.51336 0.88035 0.74395 0.0
C2827 C 0.52033 0.89965 0.74116 0.0
C2828 C 0.53099 0.90796 0.75653 0.0
C2829 C 0.53489 0.89715 0.77398 0.0
C2830 C 0.51656 0.91103 0.72225 0.0
C2831 C 0.50586 0.92912 0.72295 0.0
C2832 C 0.52279 0.90379 0.70343 0.0
C2833 C 0.53505 0.88549 0.70148 0.0
C2834 C 0.55294 0.88363 0.71132 0.0
C2835 C 0.56459 0.86636 0.70932 0.0
C2836 C 0.55855 0.85094 0.69736 0.0
C2837 C 0.54086 0.85278 0.68736 0.0
C2838 C 0.52913 0.87 0.68936 0.0
C2839 C 0.50054 0.97429 0.64791 0.0
C2840 C 0.49183 0.96441 0.6322 0.0
C2841 C 0.50617 0.96398 0.66519 0.0
C2842 C 0.50291 0.94349 0.6675 0.0
C2843 C 0.4949 0.93351 0.65142 0.0
C2844 C 0.48926 0.94383 0.63419 0.0
C2845 C 0.50728 0.93257 0.68666 0.0
C2846 C 0.51805 0.91448 0.68605 0.0
C2847 C 0.50093 0.93973 0.70555 0.0
C2848 C 0.48802 0.95758 0.70765 0.0
C2849 C 0.47001 0.95883 0.69794 0.0
C2850 C 0.45785 0.97574 0.69998 0.0
C2851 C 0.46345 0.99138 0.7119 0.0
C2852 C 0.48119 0.99009 0.72187 0.0
C2853 C 0.49345 0.97326 0.71979 0.0
H2854 H 0.45402 1.00448 0.71345 0.0
H2855 H 0.56761 0.83758 0.6958 0.0
H2856 H 0.48374 0.34131 0.81141 0.0
H2857 H 0.48367 0.37222 0.82976 0.0
H2858 H 0.54059 0.35644 0.85265 0.0
H2859 H 0.54018 0.3247 0.83554 0.0
H2860 H 0.51767 0.37665 0.88011 0.0
H2861 H 0.5368 0.38496 0.80999 0.0
H2862 H 0.52892 0.37937 0.77533 0.0
H2863 H 0.47487 0.41308 0.78288 0.0
H2864 H 0.48251 0.41878 0.81787 0.0
H2865 H 0.58061 0.45287 0.88337 0.0
H2866 H 0.5621 0.42528 0.87172 0.0
H2867 H 0.5098 0.46263 0.86949 0.0
H2868 H 0.52847 0.49089 0.8811 0.0
H2869 H 0.51952 0.43492 0.83495 0.0
H2870 H 0.50608 0.43496 0.90341 0.0
H2871 H 0.51345 0.43899 0.93859 0.0
H2872 H 0.55521 0.39019 0.93508 0.0
H2873 H 0.5482 0.38597 0.89978 0.0
C2874 C 0.496 0.34403 0.82082 0.0
C2875 C 0.51206 0.33047 0.82185 0.0
C2876 C 0.49598 0.36185 0.83119 0.0
C2877 C 0.51223 0.36674 0.84234 0.0
C2878 C 0.52788 0.35294 0.84412 0.0
C2879 C 0.52778 0.33493 0.83404 0.0
C2880 C 0.5141 0.387 0.85024 0.0
C2881 C 0.51792 0.38942 0.87031 0.0
C2882 C 0.51374 0.40381 0.83763 0.0
C2883 C 0.51009 0.40208 0.8164 0.0
C2884 C 0.5233 0.39126 0.80417 0.0
C2885 C 0.51881 0.38798 0.7845 0.0
C2886 C 0.50122 0.39557 0.77692 0.0
C2887 C 0.48838 0.40702 0.78884 0.0
C2888 C 0.4928 0.41034 0.80857 0.0
C2889 C 0.56534 0.45556 0.87982 0.0
C2890 C 0.55607 0.47422 0.88287 0.0
C2891 C 0.55472 0.43964 0.87346 0.0
C2892 C 0.53462 0.44198 0.87007 0.0
C2893 C 0.52534 0.46067 0.8722 0.0
C2894 C 0.536 0.47672 0.87875 0.0
C2895 C 0.52375 0.42438 0.86462 0.0
C2896 C 0.51843 0.42237 0.84497 0.0
C2897 C 0.52254 0.40805 0.8777 0.0
C2898 C 0.52665 0.4102 0.89896 0.0
C2899 C 0.51692 0.42516 0.91012 0.0
C2900 C 0.52103 0.42748 0.93008 0.0
C2901 C 0.53485 0.41491 0.93906 0.0
C2902 C 0.54451 0.39992 0.92811 0.0
C2903 C 0.54043 0.39751 0.90813 0.0
H2904 H 0.53803 0.41676 0.95453 0.0
H2905 H 0.49749 0.39262 0.76184 0.0
H2906 H 0.49883 0.18873 0.80816 0.0
H2907 H 0.49947 0.16831 0.8382 0.0
H2908 H 0.52255 0.21727 0.87045 0.0
H2909 H 0.52194 0.23764 0.84029 0.0
H2910 H 0.54223 0.18401 0.87844 0.0
H2911 H 0.47452 0.2039 0.87669 0.0
H2912 H 0.44194 0.2086 0.86198 0.0
H2913 H 0.43832 0.14566 0.85398 0.0
H2914 H 0.47106 0.14064 0.86834 0.0
H2915 H 0.53 0.13774 0.97279 0.0
H2916 H 0.5293 0.16046 0.94456 0.0
H2917 H 0.50148 0.11605 0.90989 0.0
H2918 H 0.50132 0.09372 0.93826 0.0
H2919 H 0.48388 0.14897 0.90414 0.0
H2920 H 0.55262 0.12934 0.90461 0.0
H2921 H 0.58532 0.12506 0.91921 0.0
H2922 H 0.58702 0.18776 0.92965 0.0
H2923 H 0.55421 0.19234 0.91535 0.0
C2924 C 0.50379 0.1951 0.82177 0.0
C2925 C 0.51007 0.2147 0.82219 0.0
C2926 C 0.50414 0.18351 0.83888 0.0
C2927 C 0.51079 0.19139 0.85662 0.0
C2928 C 0.51725 0.21097 0.85694 0.0
C2929 C 0.51683 0.22258 0.83984 0.0
C2930 C 0.51148 0.17902 0.8747 0.0
C2931 C 0.52941 0.17655 0.88424 0.0
C2932 C 0.49488 0.169 0.88203 0.0
C2933 C 0.47527 0.17194 0.87337 0.0
C2934 C 0.46683 0.19109 0.87162 0.0
C2935 C 0.44834 0.19381 0.86337 0.0
C2936 C 0.43809 0.17744 0.85699 0.0
C2937 C 0.4463 0.15833 0.85889 0.0
C2938 C 0.46481 0.15554 0.86708 0.0
C2939 C 0.52393 0.13277 0.95907 0.0
C2940 C 0.51583 0.1139 0.95769 0.0
C2941 C 0.5236 0.14575 0.94291 0.0
C2942 C 0.51562 0.13988 0.92495 0.0
C2943 C 0.50773 0.12094 0.92356 0.0
C2944 C 0.50773 0.10814 0.93977 0.0
C2945 C 0.51476 0.15357 0.90775 0.0
C2946 C 0.49674 0.15638 0.89838 0.0
C2947 C 0.5313 0.16387 0.90058 0.0
C2948 C 0.55093 0.16113 0.90917 0.0
C2949 C 0.55993 0.14217 0.91018 0.0
C2950 C 0.57848 0.1397 0.91837 0.0
C2951 C 0.58821 0.15612 0.92542 0.0
C2952 C 0.57944 0.17506 0.92424 0.0
C2953 C 0.56088 0.1776 0.91609 0.0
H2954 H 0.60258 0.15417 0.93177 0.0
H2955 H 0.42376 0.17958 0.85062 0.0
H2956 H 0.77623 0.57105 0.795 0.0
H2957 H 0.74641 0.57753 0.77589 0.0
H2958 H 0.77636 0.55514 0.72353 0.0
H2959 H 0.80618 0.54884 0.74267 0.0
H2960 H 0.75553 0.58745 0.71404 0.0
H2961 H 0.73952 0.52839 0.75071 0.0
H2962 H 0.73482 0.50834 0.78092 0.0
H2963 H 0.69191 0.55106 0.80296 0.0
H2964 H 0.69657 0.57148 0.77298 0.0
H2965 H 0.67197 0.58838 0.65258 0.0
H2966 H 0.7012 0.58019 0.67143 0.0
H2967 H 0.66706 0.5861 0.72568 0.0
H2968 H 0.6374 0.59205 0.70649 0.0
H2969 H 0.69073 0.56199 0.73473 0.0
H2970 H 0.70675 0.62252 0.70119 0.0
H2971 H 0.71178 0.64514 0.67289 0.0
H2972 H 0.75446 0.60412 0.64742 0.0
H2973 H 0.74949 0.58119 0.67548 0.0
C2974 C 0.77642 0.56743 0.77943 0.0
C2975 C 0.79364 0.55917 0.77053 0.0
C2976 C 0.75924 0.57105 0.76844 0.0
C2977 C 0.75865 0.5666 0.74808 0.0
C2978 C 0.77605 0.55869 0.73912 0.0
C2979 C 0.79318 0.55499 0.75014 0.0
C2980 C 0.7402 0.57049 0.73606 0.0
C2981 C 0.74141 0.58166 0.71851 0.0
C2982 C 0.72135 0.56373 0.74185 0.0
C2983 C 0.71856 0.55151 0.75977 0.0
C2984 C 0.7292 0.53356 0.76209 0.0
C2985 C 0.72652 0.52213 0.77914 0.0
C2986 C 0.71312 0.52845 0.79388 0.0
C2987 C 0.70231 0.5462 0.79156 0.0
C2988 C 0.70496 0.55769 0.77455 0.0
C2989 C 0.67065 0.58776 0.66855 0.0
C2990 C 0.65212 0.59081 0.67787 0.0
C2991 C 0.68766 0.58343 0.67953 0.0
C2992 C 0.68718 0.58313 0.70046 0.0
C2993 C 0.66848 0.58613 0.70973 0.0
C2994 C 0.6513 0.58962 0.69867 0.0
C2995 C 0.70577 0.57934 0.71259 0.0
C2996 C 0.70469 0.56804 0.73017 0.0
C2997 C 0.72468 0.58647 0.7071 0.0
C2998 C 0.72756 0.6001 0.69023 0.0
C2999 C 0.71709 0.6183 0.68946 0.0
C3000 C 0.71995 0.63117 0.67349 0.0
C3001 C 0.73337 0.62604 0.65833 0.0
C3002 C 0.74403 0.60806 0.65914 0.0
C3003 C 0.7412 0.59513 0.67507 0.0
H3004 H 0.73556 0.63603 0.64597 0.0
H3005 H 0.71107 0.51958 0.80709 0.0
H3006 H 0.23541 0.0178 0.7764 0.0
H3007 H 0.259 0.01373 0.74869 0.0
H3008 H 0.30687 0.0164 0.78923 0.0
H3009 H 0.28317 0.02112 0.81679 0.0
H3010 H 0.31556 0.03742 0.75876 0.0
H3011 H 0.29133 0.97252 0.7672 0.0
H3012 H 0.26669 0.94656 0.77021 0.0
H3013 H 0.2483 0.95868 0.71104 0.0
H3014 H 0.27232 0.98526 0.7079 0.0
H3015 H 0.38973 1.00577 0.689 0.0
H3016 H 0.36701 1.00756 0.71741 0.0
H3017 H 0.31793 1.00794 0.67827 0.0
H3018 H 0.3405 1.00518 0.64986 0.0
H3019 H 0.31056 0.98457 0.70859 0.0
H3020 H 0.33459 0.05098 0.70166 0.0
H3021 H 0.36008 0.07621 0.69945 0.0
H3022 H 0.38044 0.05912 0.75682 0.0
H3023 H 0.35525 0.03359 0.75924 0.0
C3024 C 0.25099 0.01733 0.77931 0.0
C3025 C 0.25756 0.01956 0.79866 0.0
C3026 C 0.26448 0.01494 0.7635 0.0
C3027 C 0.28484 0.01444 0.76677 0.0
C3028 C 0.29132 0.01667 0.78622 0.0
C3029 C 0.27781 0.01923 0.80199 0.0
C3030 C 0.29937 0.01207 0.74993 0.0
C3031 C 0.31457 0.02566 0.74798 0.0
C3032 C 0.29807 0.99695 0.73555 0.0
C3033 C 0.28347 0.98109 0.73742 0.0
C3034 C 0.28185 0.96986 0.75492 0.0
C3035 C 0.26796 0.95505 0.75666 0.0
C3036 C 0.25581 0.95111 0.74088 0.0
C3037 C 0.25757 0.96192 0.72331 0.0
C3038 C 0.27131 0.97687 0.72155 0.0
C3039 C 0.37411 1.00602 0.68638 0.0
C3040 C 0.36707 1.00542 0.66697 0.0
C3041 C 0.36108 1.00728 0.7027 0.0
C3042 C 0.34065 1.00821 0.70009 0.0
C3043 C 0.33358 1.00735 0.68078 0.0
C3044 C 0.34658 1.00599 0.66447 0.0
C3045 C 0.32659 0.01001 0.71737 0.0
C3046 C 0.3115 0.9963 0.71941 0.0
C3047 C 0.32809 0.02488 0.73195 0.0
C3048 C 0.34317 0.04027 0.73054 0.0
C3049 C 0.3446 0.05252 0.71373 0.0
C3050 C 0.35898 0.06688 0.71245 0.0
C3051 C 0.3719 0.06923 0.72796 0.0
C3052 C 0.37044 0.05726 0.7448 0.0
C3053 C 0.35611 0.04286 0.74614 0.0
H3054 H 0.38302 0.08037 0.72694 0.0
H3055 H 0.2451 0.93959 0.74223 0.0
H3056 H 0.78083 0.57084 0.86781 0.0
H3057 H 0.75769 0.57216 0.89581 0.0
H3058 H 0.79284 0.528 0.92641 0.0
H3059 H 0.81569 0.5261 0.89788 0.0
H3060 H 0.75595 0.51964 0.92945 0.0
H3061 H 0.79172 0.57802 0.94047 0.0
H3062 H 0.8073 0.6094 0.93123 0.0
H3063 H 0.7511 0.63502 0.91644 0.0
H3064 H 0.73522 0.60371 0.92527 0.0
H3065 H 0.6821 0.52532 0.99925 0.0
H3066 H 0.71601 0.53353 0.99051 0.0
H3067 H 0.69484 0.57302 0.9448 0.0
H3068 H 0.66102 0.56559 0.95429 0.0
H3069 H 0.73083 0.58366 0.95735 0.0
H3070 H 0.69845 0.52251 0.93667 0.0
H3071 H 0.68157 0.49173 0.94573 0.0
H3072 H 0.73156 0.47181 0.9787 0.0
H3073 H 0.74861 0.50261 0.97001 0.0
C3074 C 0.78364 0.56154 0.88059 0.0
C3075 C 0.79997 0.54846 0.8809 0.0
C3076 C 0.77055 0.5624 0.89662 0.0
C3077 C 0.77388 0.55058 0.9134 0.0
C3078 C 0.79016 0.53738 0.91366 0.0
C3079 C 0.80311 0.53626 0.89744 0.0
C3080 C 0.75961 0.55129 0.9301 0.0
C3081 C 0.75088 0.53359 0.93596 0.0
C3082 C 0.75286 0.5695 0.93847 0.0
C3083 C 0.76229 0.58851 0.93355 0.0
C3084 C 0.78269 0.59034 0.9352 0.0
C3085 C 0.79158 0.60811 0.93001 0.0
C3086 C 0.78019 0.6242 0.92327 0.0
C3087 C 0.75989 0.62256 0.92171 0.0
C3088 C 0.75094 0.60482 0.92684 0.0
C3089 C 0.6848 0.53659 0.98812 0.0
C3090 C 0.66932 0.54487 0.9773 0.0
C3091 C 0.70408 0.54121 0.9831 0.0
C3092 C 0.70784 0.55342 0.96668 0.0
C3093 C 0.69221 0.56352 0.95749 0.0
C3094 C 0.67293 0.55926 0.96284 0.0
C3095 C 0.727 0.55215 0.9562 0.0
C3096 C 0.73652 0.5697 0.95138 0.0
C3097 C 0.73449 0.53382 0.9487 0.0
C3098 C 0.72472 0.51484 0.95282 0.0
C3099 C 0.70584 0.51151 0.94579 0.0
C3100 C 0.69623 0.49411 0.9509 0.0
C3101 C 0.70547 0.47984 0.96281 0.0
C3102 C 0.72441 0.48288 0.9695 0.0
C3103 C 0.73406 0.50029 0.96447 0.0
H3104 H 0.69797 0.46642 0.96685 0.0
H3105 H 0.7871 0.63794 0.91925 0.0
H3106 H 0.27628 1.00092 0.91609 0.0
H3107 H 0.29536 0.99944 0.94599 0.0
H3108 H 0.2658 0.05289 0.96724 0.0
H3109 H 0.2461 0.05421 0.93746 0.0
H3110 H 0.3057 0.05474 0.96637 0.0
H3111 H 0.25791 0.01137 0.99184 0.0
H3112 H 0.23518 0.98361 0.99123 0.0
H3113 H 0.28382 0.94241 0.98305 0.0
H3114 H 0.30686 0.96995 0.98328 0.0
H3115 H 0.37768 0.04873 0.03482 0.0
H3116 H 0.34259 0.04522 0.02956 0.0
H3117 H 0.35532 0.99646 0.98991 0.0
H3118 H 0.39018 1.00014 0.99452 0.0
H3119 H 0.31705 0.99541 1.0088 0.0
H3120 H 0.36053 0.03886 0.97019 0.0
H3121 H 0.38501 0.06513 0.96842 0.0
H3122 H 0.34473 0.10512 0.99887 0.0
H3123 H 0.32015 0.07891 1.00109 0.0
C3124 C 0.27349 0.01209 0.92733 0.0
C3125 C 0.2598 0.0277 0.92451 0.0
C3126 C 0.28434 0.01119 0.94439 0.0
C3127 C 0.28164 0.02589 0.95883 0.0
C3128 C 0.26782 0.04136 0.95624 0.0
C3129 C 0.25682 0.04219 0.93919 0.0
C3130 C 0.29507 0.0262 0.97536 0.0
C3131 C 0.3077 0.04214 0.97623 0.0
C3132 C 0.29786 0.00946 0.9877 0.0
C3133 C 0.28413 0.99275 0.98766 0.0
C3134 C 0.26377 0.9964 0.98983 0.0
C3135 C 0.25082 0.9807 0.98954 0.0
C3136 C 0.25805 0.96125 0.98714 0.0
C3137 C 0.27825 0.95748 0.98497 0.0
C3138 C 0.29127 0.97313 0.98523 0.0
C3139 C 0.37295 0.03681 0.02554 0.0
C3140 C 0.38669 0.02509 0.01465 0.0
C3141 C 0.35293 0.03467 0.02279 0.0
C3142 C 0.34658 0.02078 0.00918 0.0
C3143 C 0.36005 1.00719 1.00057 0.0
C3144 C 0.38004 0.00939 1.00319 0.0
C3145 C 0.32763 0.02387 0.99967 0.0
C3146 C 0.31427 1.00847 0.99977 0.0
C3147 C 0.3242 0.041 0.98796 0.0
C3148 C 0.33865 0.05692 0.98603 0.0
C3149 C 0.35696 0.05325 0.97657 0.0
C3150 C 0.37084 0.0681 0.97548 0.0
C3151 C 0.36645 0.08677 0.98358 0.0
C3152 C 0.34813 0.09064 0.99266 0.0
C3153 C 0.33422 0.0758 0.99385 0.0
H3154 H 0.37724 0.09825 0.98278 0.0
H3155 H 0.248 0.94911 0.98696 0.0
H3156 H 0.779 0.83007 0.51916 0.0
H3157 H 0.74944 0.81069 0.52538 0.0
H3158 H 0.78548 0.75715 0.52856 0.0
H3159 H 0.81493 0.77655 0.52199 0.0
H3160 H 0.751 0.7516 0.50866 0.0
H3161 H 0.77096 0.7827 0.57008 0.0
H3162 H 0.77854 0.81235 0.58938 0.0
H3163 H 0.72051 0.83647 0.57988 0.0
H3164 H 0.71268 0.80706 0.56027 0.0
H3165 H 0.69842 0.68379 0.56608 0.0
H3166 H 0.72148 0.70666 0.551 0.0
H3167 H 0.67981 0.75523 0.56058 0.0
H3168 H 0.65679 0.73236 0.57612 0.0
H3169 H 0.71354 0.7665 0.57076 0.0
H3170 H 0.69077 0.73598 0.51363 0.0
H3171 H 0.68145 0.70905 0.49152 0.0
H3172 H 0.74113 0.68687 0.48932 0.0
H3173 H 0.75076 0.71346 0.51173 0.0
C3174 C 0.78044 0.81412 0.52095 0.0
C3175 C 0.79902 0.80465 0.52022 0.0
C3176 C 0.76365 0.8031 0.52452 0.0
C3177 C 0.7653 0.7825 0.52764 0.0
C3178 C 0.78388 0.773 0.52617 0.0
C3179 C 0.80065 0.78402 0.52253 0.0
C3180 C 0.74798 0.77095 0.53376 0.0
C3181 C 0.74286 0.75472 0.52229 0.0
C3182 C 0.73684 0.7756 0.5511 0.0
C3183 C 0.74129 0.79278 0.56362 0.0
C3184 C 0.75983 0.79434 0.5721 0.0
C3185 C 0.76418 0.81111 0.58307 0.0
C3186 C 0.75002 0.82629 0.58584 0.0
C3187 C 0.73145 0.8247 0.57773 0.0
C3188 C 0.72705 0.80798 0.5667 0.0
C3189 C 0.69404 0.69928 0.56468 0.0
C3190 C 0.67578 0.70628 0.57221 0.0
C3191 C 0.70723 0.71237 0.55602 0.0
C3192 C 0.70231 0.73267 0.55436 0.0
C3193 C 0.68395 0.73965 0.56166 0.0
C3194 C 0.67082 0.72658 0.57054 0.0
C3195 C 0.7168 0.74665 0.54594 0.0
C3196 C 0.72142 0.76339 0.55698 0.0
C3197 C 0.72715 0.74273 0.52793 0.0
C3198 C 0.72147 0.72666 0.51447 0.0
C3199 C 0.70189 0.72527 0.50856 0.0
C3200 C 0.69655 0.71007 0.49597 0.0
C3201 C 0.71069 0.69624 0.48904 0.0
C3202 C 0.7302 0.69759 0.49471 0.0
C3203 C 0.73561 0.71273 0.50735 0.0
H3204 H 0.70653 0.6845 0.47927 0.0
H3205 H 0.75343 0.83928 0.59429 0.0
H3206 H 0.75045 0.32776 1.00037 0.0
H3207 H 0.72689 0.35538 0.99652 0.0
H3208 H 0.75831 0.38942 0.03868 0.0
H3209 H 0.78132 0.36151 0.04321 0.0
H3210 H 0.72363 0.39804 0.04563 0.0
H3211 H 0.75803 0.39637 0.98275 0.0
H3212 H 0.77072 0.38111 0.9518 0.0
H3213 H 0.71202 0.36761 0.93556 0.0
H3214 H 0.69902 0.3826 0.96652 0.0
H3215 H 0.67361 0.49026 0.02477 0.0
H3216 H 0.69792 0.46318 0.02838 0.0
H3217 H 0.66662 0.42814 0.98694 0.0
H3218 H 0.64312 0.45567 0.98237 0.0
H3219 H 0.70158 0.42039 0.97972 0.0
H3220 H 0.66741 0.42221 0.04327 0.0
H3221 H 0.65526 0.43818 0.07407 0.0
H3222 H 0.71426 0.4521 0.08889 0.0
H3223 H 0.72672 0.4364 0.05806 0.0
C3224 C 0.75248 0.34116 1.00875 0.0
C3225 C 0.768 0.34214 0.02212 0.0
C3226 C 0.73894 0.35719 1.00643 0.0
C3227 C 0.74073 0.3751 0.01693 0.0
C3228 C 0.75626 0.37603 0.03029 0.0
C3229 C 0.76956 0.3599 0.03289 0.0
C3230 C 0.72645 0.39267 0.01433 0.0
C3231 C 0.7191 0.40298 0.03112 0.0
C3232 C 0.71983 0.39934 0.99559 0.0
C3233 C 0.7276 0.39047 0.97697 0.0
C3234 C 0.74786 0.39007 0.9726 0.0
C3235 C 0.7551 0.38147 0.95507 0.0
C3236 C 0.74219 0.37336 0.94174 0.0
C3237 C 0.722 0.37388 0.9459 0.0
C3238 C 0.71469 0.38244 0.96341 0.0
C3239 C 0.67178 0.47672 0.01656 0.0
C3240 C 0.65605 0.47519 1.00354 0.0
C3241 C 0.68573 0.46103 0.01872 0.0
C3242 C 0.68412 0.44297 1.00842 0.0
C3243 C 0.66846 0.4416 0.99527 0.0
C3244 C 0.6548 0.45744 0.99276 0.0
C3245 C 0.69868 0.42565 0.01101 0.0
C3246 C 0.70609 0.41541 0.99422 0.0
C3247 C 0.70541 0.4191 0.02974 0.0
C3248 C 0.69796 0.42825 0.04835 0.0
C3249 C 0.67777 0.42873 0.05309 0.0
C3250 C 0.67083 0.43774 0.07054 0.0
C3251 C 0.68398 0.44617 0.08342 0.0
C3252 C 0.70409 0.44557 0.0789 0.0
C3253 C 0.7111 0.4366 0.06146 0.0
H3254 H 0.67858 0.45314 0.09692 0.0
H3255 H 0.74782 0.36672 0.92817 0.0
H3256 H 0.442 0.29617 0.04781 0.0
H3257 H 0.45811 0.26348 0.04832 0.0
H3258 H 0.43027 0.24857 0.99397 0.0
H3259 H 0.41352 0.28101 0.99362 0.0
H3260 H 0.44194 0.22832 0.05106 0.0
H3261 H 0.46073 0.21576 0.968 0.0
H3262 H 0.47022 0.23518 0.93853 0.0
H3263 H 0.4933 0.28012 0.97555 0.0
H3264 H 0.4843 0.26078 1.00521 0.0
H3265 H 0.45101 0.12794 0.02633 0.0
H3266 H 0.44359 0.16334 0.0284 0.0
H3267 H 0.50487 0.17552 0.01859 0.0
H3268 H 0.51241 0.13961 0.01617 0.0
H3269 H 0.48152 0.19886 0.99563 0.0
H3270 H 0.48353 0.18296 0.06418 0.0
H3271 H 0.47598 0.16382 0.09438 0.0
H3272 H 0.41449 0.1775 0.08805 0.0
H3273 H 0.42167 0.19646 0.05762 0.0
C3274 C 0.43918 0.28597 0.03598 0.0
C3275 C 0.42636 0.29131 0.0207 0.0
C3276 C 0.44854 0.2673 0.03624 0.0
C3277 C 0.44555 0.25366 0.0211 0.0
C3278 C 0.43307 0.25901 1.00563 0.0
C3279 C 0.42356 0.27763 1.00542 0.0
C3280 C 0.45458 0.23344 0.02214 0.0
C3281 C 0.45067 0.22194 0.03896 0.0
C3282 C 0.46621 0.22518 1.00651 0.0
C3283 C 0.47167 0.23691 0.9888 0.0
C3284 C 0.46789 0.22976 0.96983 0.0
C3285 C 0.47319 0.24075 0.9531 0.0
C3286 C 0.4823 0.25891 0.95517 0.0
C3287 C 0.48618 0.26609 0.97397 0.0
C3288 C 0.48097 0.25513 0.99075 0.0
C3289 C 0.46301 0.1381 0.02495 0.0
C3290 C 0.48233 0.13102 0.02133 0.0
C3291 C 0.45873 0.15837 0.02616 0.0
C3292 C 0.47368 0.17211 0.0239 0.0
C3293 C 0.49312 0.16514 0.02052 0.0
C3294 C 0.49746 0.14468 0.01936 0.0
C3295 C 0.46854 0.19366 0.02439 0.0
C3296 C 0.47301 0.20536 1.00781 0.0
C3297 C 0.45755 0.20223 0.04031 0.0
C3298 C 0.45314 0.19098 0.0586 0.0
C3299 C 0.46839 0.18176 0.06918 0.0
C3300 C 0.46418 0.17096 0.08633 0.0
C3301 C 0.44476 0.16941 0.09311 0.0
C3302 C 0.42952 0.1787 0.08277 0.0
C3303 C 0.43366 0.18949 0.06559 0.0
H3304 H 0.44153 0.16103 0.1064 0.0
H3305 H 0.48639 0.2674 0.94219 0.0
H3306 H 0.89857 0.30331 0.02296 0.0
H3307 H 0.92769 0.32314 0.01752 0.0
H3308 H 0.89107 0.37642 0.01729 0.0
H3309 H 0.86175 0.35641 0.02242 0.0
H3310 H 0.92297 0.37623 0.98866 0.0
H3311 H 0.90951 0.36124 0.05894 0.0
H3312 H 0.90485 0.33739 0.08628 0.0
H3313 H 0.96194 0.31118 0.07381 0.0
H3314 H 0.96674 0.33468 0.04616 0.0
H3315 H 0.94636 0.4573 0.03904 0.0
H3316 H 0.9371 0.42762 0.02215 0.0
H3317 H 0.99303 0.39953 0.03543 0.0
H3318 H 1.00238 0.42943 0.05296 0.0
H3319 H 0.96344 0.37856 0.04863 0.0
H3320 H 0.98033 0.40456 0.98707 0.0
H3321 H 0.98439 0.43004 0.96123 0.0
H3322 H 0.92179 0.43701 0.95718 0.0
H3323 H 0.9173 0.41189 0.98331 0.0
C3324 C 0.89679 0.31924 0.0216 0.0
C3325 C 0.87815 0.32857 0.02329 0.0
C3326 C 0.91334 0.33046 0.01829 0.0
C3327 C 0.9114 0.35112 0.01691 0.0
C3328 C 0.89271 0.36041 0.01806 0.0
C3329 C 0.8761 0.34914 0.02127 0.0
C3330 C 0.92886 0.36333 0.01709 0.0
C3331 C 0.93203 0.37675 1.00161 0.0
C3332 C 0.94116 0.3632 0.0336 0.0
C3333 C 0.93837 0.34945 0.05041 0.0
C3334 C 0.921 0.35029 0.06198 0.0
C3335 C 0.91833 0.33685 0.07751 0.0
C3336 C 0.93306 0.32274 0.08174 0.0
C3337 C 0.95052 0.32208 0.07049 0.0
C3338 C 0.95321 0.33542 0.05489 0.0
C3339 C 0.95685 0.44494 0.03819 0.0
C3340 C 0.97493 0.44548 0.04764 0.0
C3341 C 0.95168 0.42809 0.02817 0.0
C3342 C 0.96454 0.41152 0.02725 0.0
C3343 C 0.98305 0.41232 0.0358 0.0
C3344 C 0.98829 0.4293 0.04589 0.0
C3345 C 0.95674 0.39258 0.02079 0.0
C3346 C 0.95527 0.37763 0.03509 0.0
C3347 C 0.94603 0.39142 1.00321 0.0
C3348 C 0.9485 0.40621 0.9871 0.0
C3349 C 0.96742 0.41154 0.98071 0.0
C3350 C 0.96979 0.42595 0.96603 0.0
C3351 C 0.95336 0.43511 0.95756 0.0
C3352 C 0.9345 0.42985 0.96373 0.0
C3353 C 0.93203 0.41548 0.97844 0.0
H3354 H 0.95524 0.4463 0.94623 0.0
H3355 H 0.93098 0.31233 0.09377 0.0
loop_
_geom_bond_atom_site_label_1
_geom_bond_atom_site_label_2
_geom_bond_distance
_geom_bond_site_symmetry_2
_ccdc_geom_bond_type
C0 C1 1.443 1_455 S
C0 N4 1.376 . S
C0 C38 1.389 . S
C1 C0 1.443 1_655 S
C1 C2 1.340 . S
C1 H41 0.951 . S
C2 C1 1.340 . S
C2 C3 1.439 . S
C2 H42 0.950 . S
C3 C2 1.439 . S
C3 N4 1.374 1_655 S
C3 C37 1.395 . S
N4 C0 1.376 . S
N4 C3 1.374 1_455 S
N4 Co5 2.008 . S
Co5 N4 2.008 . S
Co5 N6 1.995 . S
Co5 N11 2.008 . S
Co5 N16 1.995 . S
Co5 N21 2.282 . S
Co5 N27 2.282 . S
N6 Co5 1.995 . S
N6 C7 1.376 1_455 S
N6 C10 1.383 . S
C7 N6 1.376 1_655 S
C7 C8 1.446 . S
C7 C37 1.391 . S
C8 C7 1.446 . S
C8 C9 1.339 1_655 S
C8 H43 0.949 . S
C9 C8 1.339 1_455 S
C9 C10 1.439 . S
C9 H44 0.950 . S
C10 N6 1.383 . S
C10 C9 1.439 . S
C10 C39 1.392 . S
N11 Co5 2.008 . S
N11 C12 1.376 . S
N11 C15 1.374 . S
C12 N11 1.376 . S
C12 C13 1.443 . S
C12 C39 1.389 . S
C13 C12 1.443 . S
C13 C14 1.340 . S
C13 H45 0.951 . S
C14 C13 1.340 . S
C14 C15 1.439 . S
C14 H46 0.950 . S
C15 N11 1.374 . S
C15 C14 1.439 . S
C15 C40 1.395 . S
N16 Co5 1.995 . S
N16 C17 1.376 . S
N16 C20 1.383 . S
C17 N16 1.376 . S
C17 C18 1.446 . S
C17 C40 1.391 . S
C18 C17 1.446 . S
C18 C19 1.339 . S
C18 H47 0.949 . S
C19 C18 1.339 . S
C19 C20 1.439 . S
C19 H48 0.950 . S
C20 N16 1.383 . S
C20 C19 1.439 . S
C20 C38 1.392 . S
N21 Co5 2.282 . S
N21 C24 1.332 . S
N21 C26 1.332 . S
C22 C23 1.386 . S
C22 C25 1.388 . S
C23 C22 1.386 . S
C23 C24 1.382 . S
C23 H49 0.950 . S
C24 N21 1.332 . S
C24 C23 1.382 . S
C24 H35 0.952 . S
C25 C22 1.388 . S
C25 C26 1.382 . S
C25 H50 0.950 . S
C26 N21 1.332 . S
C26 C25 1.382 . S
C26 H36 0.948 . S
N27 Co5 2.282 . S
N27 C31 1.332 . S
N27 C32 1.332 . S
C28 C29 1.388 . S
C28 C32 1.382 . S
C28 H51 0.950 . S
C29 C28 1.388 . S
C29 C30 1.386 . S
C30 C29 1.386 . S
C30 C31 1.382 . S
C30 H52 0.950 1_455 S
C31 N27 1.332 . S
C31 C30 1.382 . S
C31 H33 0.953 . S
C32 N27 1.332 . S
C32 C28 1.382 . S
C32 H34 0.948 . S
H33 C31 0.953 . S
H34 C32 0.948 . S
H35 C24 0.952 . S
H36 C26 0.948 . S
C37 C3 1.395 . S
C37 C7 1.391 . S
C38 C0 1.389 . S
C38 C20 1.392 . S
C39 C10 1.392 . S
C39 C12 1.389 . S
C40 C15 1.395 . S
C40 C17 1.391 . S
H41 C1 0.951 . S
H42 C2 0.950 . S
H43 C8 0.949 . S
H44 C9 0.950 . S
H45 C13 0.951 . S
H46 C14 0.950 . S
H47 C18 0.949 . S
H48 C19 0.950 . S
H49 C23 0.950 . S
H50 C25 0.950 . S
H51 C28 0.950 . S
H52 C30 0.950 1_655 S
C53 C54 1.443 . S
C53 N57 1.376 . S
C53 C91 1.389 . S
C54 C53 1.443 . S
C54 C55 1.340 . S
C54 H94 0.951 . S
C55 C54 1.340 . S
C55 C56 1.439 . S
C55 H95 0.950 . S
C56 C55 1.439 . S
C56 N57 1.374 . S
C56 C90 1.395 . S
N57 C53 1.376 . S
N57 C56 1.374 . S
N57 Co58 2.008 1_655 S
Co58 N57 2.008 1_455 S
Co58 N59 1.995 1_455 S
Co58 N64 2.008 . S
Co58 N69 1.995 . S
Co58 N74 2.282 . S
Co58 N80 2.282 1_455 S
N59 Co58 1.995 1_655 S
N59 C60 1.376 . S
N59 C63 1.383 . S
C60 N59 1.376 . S
C60 C61 1.446 . S
C60 C90 1.391 . S
C61 C60 1.446 . S
C61 C62 1.339 . S
C61 H96 0.949 . S
C62 C61 1.339 . S
C62 C63 1.439 . S
C62 H97 0.950 . S
C63 N59 1.383 . S
C63 C62 1.439 . S
C63 C92 1.392 1_655 S
N64 Co58 2.008 . S
N64 C65 1.376 . S
N64 C68 1.374 . S
C65 N64 1.376 . S
C65 C66 1.443 . S
C65 C92 1.389 . S
C66 C65 1.443 . S
C66 C67 1.340 . S
C66 H98 0.951 . S
C67 C66 1.340 . S
C67 C68 1.439 . S
C67 H99 0.950 . S
C68 N64 1.374 . S
C68 C67 1.439 . S
C68 C93 1.395 . S
N69 Co58 1.995 . S
N69 C70 1.376 . S
N69 C73 1.383 . S
C70 N69 1.376 . S
C70 C71 1.446 . S
C70 C93 1.391 . S
C71 C70 1.446 . S
C71 C72 1.339 . S
C71 H100 0.949 . S
C72 C71 1.339 . S
C72 C73 1.439 . S
C72 H101 0.950 . S
C73 N69 1.383 . S
C73 C72 1.439 . S
C73 C91 1.392 1_455 S
N74 Co58 2.282 . S
N74 C77 1.332 . S
N74 C79 1.332 1_455 S
C75 C76 1.386 . S
C75 C78 1.388 1_455 S
C76 C75 1.386 . S
C76 C77 1.382 . S
C76 H102 0.950 . S
C77 N74 1.332 . S
C77 C76 1.382 . S
C77 H88 0.952 . S
C78 C75 1.388 1_655 S
C78 C79 1.382 . S
C78 H103 0.950 . S
C79 N74 1.332 1_655 S
C79 C78 1.382 . S
C79 H89 0.948 . S
N80 Co58 2.282 1_655 S
N80 C84 1.332 . S
N80 C85 1.332 1_655 S
C81 C82 1.388 1_455 S
C81 C85 1.382 . S
C81 H104 0.950 . S
C82 C81 1.388 1_655 S
C82 C83 1.386 . S
C83 C82 1.386 . S
C83 C84 1.382 . S
C83 H105 0.950 . S
C84 N80 1.332 . S
C84 C83 1.382 . S
C84 H86 0.952 . S
C85 N80 1.332 1_455 S
C85 C81 1.382 . S
C85 H87 0.948 . S
H86 C84 0.952 . S
H87 C85 0.948 . S
H88 C77 0.952 . S
H89 C79 0.948 . S
C90 C56 1.395 . S
C90 C60 1.391 . S
C91 C53 1.389 . S
C91 C73 1.392 1_655 S
C92 C63 1.392 1_455 S
C92 C65 1.389 . S
C93 C68 1.395 . S
C93 C70 1.391 . S
H94 C54 0.951 . S
H95 C55 0.950 . S
H96 C61 0.949 . S
H97 C62 0.950 . S
H98 C66 0.951 . S
H99 C67 0.950 . S
H100 C71 0.949 . S
H101 C72 0.950 . S
H102 C76 0.950 . S
H103 C78 0.950 . S
H104 C81 0.950 . S
H105 C83 0.950 . S
C106 C107 1.443 . S
C106 N110 1.376 . S
C106 C144 1.389 1_565 S
C107 C106 1.443 . S
C107 C108 1.340 . S
C107 H147 0.951 . S
C108 C107 1.340 . S
C108 C109 1.439 . S
C108 H148 0.950 . S
C109 C108 1.439 . S
C109 N110 1.374 . S
C109 C143 1.395 . S
N110 C106 1.376 . S
N110 C109 1.374 . S
N110 Co111 2.008 1_565 S
Co111 N110 2.008 1_545 S
Co111 N112 1.995 . S
Co111 N117 2.008 . S
Co111 N122 1.995 . S
Co111 N127 2.282 . S
Co111 N133 2.282 . S
N112 Co111 1.995 . S
N112 C113 1.376 1_545 S
N112 C116 1.383 . S
C113 N112 1.376 1_565 S
C113 C114 1.446 . S
C113 C143 1.391 . S
C114 C113 1.446 . S
C114 C115 1.339 . S
C114 H149 0.949 . S
C115 C114 1.339 . S
C115 C116 1.439 1_565 S
C115 H150 0.950 . S
C116 N112 1.383 . S
C116 C115 1.439 1_545 S
C116 C145 1.392 . S
N117 Co111 2.008 . S
N117 C118 1.376 . S
N117 C121 1.374 . S
C118 N117 1.376 . S
C118 C119 1.443 . S
C118 C145 1.389 . S
C119 C118 1.443 . S
C119 C120 1.340 . S
C119 H151 0.951 . S
C120 C119 1.340 . S
C120 C121 1.439 . S
C120 H152 0.950 . S
C121 N117 1.374 . S
C121 C120 1.439 . S
C121 C146 1.395 . S
N122 Co111 1.995 . S
N122 C123 1.376 . S
N122 C126 1.383 . S
C123 N122 1.376 . S
C123 C124 1.446 . S
C123 C146 1.391 . S
C124 C123 1.446 . S
C124 C125 1.339 . S
C124 H153 0.949 . S
C125 C124 1.339 . S
C125 C126 1.439 . S
C125 H154 0.950 . S
C126 N122 1.383 . S
C126 C125 1.439 . S
C126 C144 1.392 . S
N127 Co111 2.282 . S
N127 C130 1.332 . S
N127 C132 1.332 . S
C128 C129 1.386 . S
C128 C131 1.388 . S
C129 C128 1.386 . S
C129 C130 1.382 . S
C129 H155 0.950 . S
C130 N127 1.332 . S
C130 C129 1.382 . S
C130 H141 0.952 . S
C131 C128 1.388 . S
C131 C132 1.382 . S
C131 H156 0.950 . S
C132 N127 1.332 . S
C132 C131 1.382 . S
C132 H142 0.948 1_545 S
N133 Co111 2.282 . S
N133 C137 1.332 1_545 S
N133 C138 1.332 . S
C134 C135 1.388 . S
C134 C138 1.382 . S
C134 H157 0.950 . S
C135 C134 1.388 . S
C135 C136 1.386 1_545 S
C136 C135 1.386 1_565 S
C136 C137 1.382 . S
C136 H158 0.950 . S
C137 N133 1.332 1_565 S
C137 C136 1.382 . S
C137 H139 0.952 . S
C138 N133 1.332 . S
C138 C134 1.382 . S
C138 H140 0.948 . S
H139 C137 0.952 . S
H140 C138 0.948 . S
H141 C130 0.952 . S
H142 C132 0.948 1_565 S
C143 C109 1.395 . S
C143 C113 1.391 . S
C144 C106 1.389 1_545 S
C144 C126 1.392 . S
C145 C116 1.392 . S
C145 C118 1.389 . S
C146 C121 1.395 . S
C146 C123 1.391 . S
H147 C107 0.951 . S
H148 C108 0.950 . S
H149 C114 0.949 . S
H150 C115 0.950 . S
H151 C119 0.951 . S
H152 C120 0.950 . S
H153 C124 0.949 . S
H154 C125 0.950 . S
H155 C129 0.950 . S
H156 C131 0.950 . S
H157 C134 0.950 . S
H158 C136 0.950 . S
C159 C160 1.443 . S
C159 N163 1.376 . S
C159 C197 1.389 . S
C160 C159 1.443 . S
C160 C161 1.340 . S
C160 H200 0.951 . S
C161 C160 1.340 . S
C161 C162 1.439 . S
C161 H201 0.950 . S
C162 C161 1.439 . S
C162 N163 1.374 . S
C162 C196 1.395 . S
N163 C159 1.376 . S
N163 C162 1.374 . S
N163 Co164 2.008 . S
Co164 N163 2.008 . S
Co164 N165 1.995 . S
Co164 N170 2.008 . S
Co164 N175 1.995 . S
Co164 N180 2.282 . S
Co164 N186 2.282 . S
N165 Co164 1.995 . S
N165 C166 1.376 . S
N165 C169 1.383 . S
C166 N165 1.376 . S
C166 C167 1.446 . S
C166 C196 1.391 . S
C167 C166 1.446 . S
C167 C168 1.339 . S
C167 H202 0.949 . S
C168 C167 1.339 . S
C168 C169 1.439 . S
C168 H203 0.950 . S
C169 N165 1.383 . S
C169 C168 1.439 . S
C169 C198 1.392 . S
N170 Co164 2.008 . S
N170 C171 1.376 . S
N170 C174 1.374 . S
C171 N170 1.376 . S
C171 C172 1.443 . S
C171 C198 1.389 . S
C172 C171 1.443 . S
C172 C173 1.340 . S
C172 H204 0.951 . S
C173 C172 1.340 . S
C173 C174 1.439 . S
C173 H205 0.950 . S
C174 N170 1.374 . S
C174 C173 1.439 . S
C174 C199 1.395 . S
N175 Co164 1.995 . S
N175 C176 1.376 . S
N175 C179 1.383 . S
C176 N175 1.376 . S
C176 C177 1.446 . S
C176 C199 1.391 . S
C177 C176 1.446 . S
C177 C178 1.339 . S
C177 H206 0.949 . S
C178 C177 1.339 . S
C178 C179 1.439 . S
C178 H207 0.950 . S
C179 N175 1.383 . S
C179 C178 1.439 . S
C179 C197 1.392 . S
N180 Co164 2.282 . S
N180 C183 1.332 . S
N180 C185 1.332 . S
C181 C182 1.386 . S
C181 C184 1.388 . S
C182 C181 1.386 . S
C182 C183 1.382 . S
C182 H208 0.950 . S
C183 N180 1.332 . S
C183 C182 1.382 . S
C183 H194 0.952 . S
C184 C181 1.388 . S
C184 C185 1.382 . S
C184 H209 0.950 . S
C185 N180 1.332 . S
C185 C184 1.382 . S
C185 H195 0.948 . S
N186 Co164 2.282 . S
N186 C190 1.332 . S
N186 C191 1.332 . S
C187 C188 1.388 . S
C187 C191 1.382 . S
C187 H210 0.950 . S
C188 C187 1.388 . S
C188 C189 1.386 . S
C189 C188 1.386 . S
C189 C190 1.382 . S
C189 H211 0.950 . S
C190 N186 1.332 . S
C190 C189 1.382 . S
C190 H192 0.952 . S
C191 N186 1.332 . S
C191 C187 1.382 . S
C191 H193 0.948 . S
H192 C190 0.952 . S
H193 C191 0.948 . S
H194 C183 0.952 . S
H195 C185 0.948 . S
C196 C162 1.395 . S
C196 C166 1.391 . S
C197 C159 1.389 . S
C197 C179 1.392 . S
C198 C169 1.392 . S
C198 C171 1.389 . S
C199 C174 1.395 . S
C199 C176 1.391 . S
H200 C160 0.951 . S
H201 C161 0.950 . S
H202 C167 0.949 . S
H203 C168 0.950 . S
H204 C172 0.951 . S
H205 C173 0.950 . S
H206 C177 0.949 . S
H207 C178 0.950 . S
H208 C182 0.950 . S
H209 C184 0.950 . S
H210 C187 0.950 . S
H211 C189 0.950 . S
C212 C213 1.443 . S
C212 N216 1.376 . S
C212 C250 1.389 . S
C213 C212 1.443 . S
C213 C214 1.340 . S
C213 H253 0.951 . S
C214 C213 1.340 . S
C214 C215 1.439 . S
C214 H254 0.950 . S
C215 C214 1.439 . S
C215 N216 1.374 . S
C215 C249 1.395 . S
N216 C212 1.376 . S
N216 C215 1.374 . S
N216 Co217 2.008 1_556 S
Co217 N216 2.008 1_554 S
Co217 N218 1.995 1_554 S
Co217 N223 2.008 . S
Co217 N228 1.995 . S
Co217 N233 2.282 . S
Co217 N239 2.282 1_554 S
N218 Co217 1.995 1_556 S
N218 C219 1.376 . S
N218 C222 1.383 . S
C219 N218 1.376 . S
C219 C220 1.446 . S
C219 C249 1.391 . S
C220 C219 1.446 . S
C220 C221 1.339 . S
C220 H255 0.949 . S
C221 C220 1.339 . S
C221 C222 1.439 . S
C221 H256 0.950 . S
C222 N218 1.383 . S
C222 C221 1.439 . S
C222 C251 1.392 1_556 S
N223 Co217 2.008 . S
N223 C224 1.376 . S
N223 C227 1.374 . S
C224 N223 1.376 . S
C224 C225 1.443 . S
C224 C251 1.389 . S
C225 C224 1.443 . S
C225 C226 1.340 . S
C225 H257 0.951 . S
C226 C225 1.340 . S
C226 C227 1.439 . S
C226 H258 0.950 . S
C227 N223 1.374 . S
C227 C226 1.439 . S
C227 C252 1.395 . S
N228 Co217 1.995 . S
N228 C229 1.376 . S
N228 C232 1.383 . S
C229 N228 1.376 . S
C229 C230 1.446 . S
C229 C252 1.391 . S
C230 C229 1.446 . S
C230 C231 1.339 . S
C230 H259 0.949 . S
C231 C230 1.339 . S
C231 C232 1.439 . S
C231 H260 0.950 . S
C232 N228 1.383 . S
C232 C231 1.439 . S
C232 C250 1.392 1_554 S
N233 Co217 2.282 . S
N233 C236 1.332 . S
N233 C238 1.332 1_554 S
C234 C235 1.386 . S
C234 C237 1.388 1_554 S
C235 C234 1.386 . S
C235 C236 1.382 . S
C235 H261 0.950 . S
C236 N233 1.332 . S
C236 C235 1.382 . S
C236 H247 0.952 . S
C237 C234 1.388 1_556 S
C237 C238 1.382 . S
C237 H262 0.950 . S
C238 N233 1.332 1_556 S
C238 C237 1.382 . S
C238 H248 0.948 . S
N239 Co217 2.282 1_556 S
N239 C243 1.332 . S
N239 C244 1.332 1_556 S
C240 C241 1.388 1_554 S
C240 C244 1.382 . S
C240 H263 0.950 . S
C241 C240 1.388 1_556 S
C241 C242 1.386 . S
C242 C241 1.386 . S
C242 C243 1.382 . S
C242 H264 0.950 . S
C243 N239 1.332 . S
C243 C242 1.382 . S
C243 H245 0.952 . S
C244 N239 1.332 1_554 S
C244 C240 1.382 . S
C244 H246 0.948 . S
H245 C243 0.952 . S
H246 C244 0.948 . S
H247 C236 0.952 . S
H248 C238 0.948 . S
C249 C215 1.395 . S
C249 C219 1.391 . S
C250 C212 1.389 . S
C250 C232 1.392 1_556 S
C251 C222 1.392 1_554 S
C251 C224 1.389 . S
C252 C227 1.395 . S
C252 C229 1.391 . S
H253 C213 0.951 . S
H254 C214 0.950 . S
H255 C220 0.949 . S
H256 C221 0.950 . S
H257 C225 0.951 . S
H258 C226 0.950 . S
H259 C230 0.949 . S
H260 C231 0.950 . S
H261 C235 0.950 . S
H262 C237 0.950 . S
H263 C240 0.950 . S
H264 C242 0.950 . S
C265 C266 1.443 . S
C265 N269 1.376 . S
C265 C303 1.389 . S
C266 C265 1.443 . S
C266 C267 1.340 . S
C266 H306 0.951 . S
C267 C266 1.340 . S
C267 C268 1.439 . S
C267 H307 0.950 . S
C268 C267 1.439 . S
C268 N269 1.374 . S
C268 C302 1.395 . S
N269 C265 1.376 . S
N269 C268 1.374 . S
N269 Co270 2.008 . S
Co270 N269 2.008 . S
Co270 N271 1.995 . S
Co270 N276 2.008 . S
Co270 N281 1.995 . S
Co270 N286 2.282 . S
Co270 N292 2.282 . S
N271 Co270 1.995 . S
N271 C272 1.376 . S
N271 C275 1.383 . S
C272 N271 1.376 . S
C272 C273 1.446 . S
C272 C302 1.391 . S
C273 C272 1.446 . S
C273 C274 1.339 . S
C273 H308 0.949 . S
C274 C273 1.339 . S
C274 C275 1.439 . S
C274 H309 0.950 . S
C275 N271 1.383 . S
C275 C274 1.439 . S
C275 C304 1.392 . S
N276 Co270 2.008 . S
N276 C277 1.376 . S
N276 C280 1.374 . S
C277 N276 1.376 . S
C277 C278 1.443 . S
C277 C304 1.389 . S
C278 C277 1.443 . S
C278 C279 1.340 . S
C278 H310 0.951 . S
C279 C278 1.340 . S
C279 C280 1.439 . S
C279 H311 0.950 . S
C280 N276 1.374 . S
C280 C279 1.439 . S
C280 C305 1.395 . S
N281 Co270 1.995 . S
N281 C282 1.376 . S
N281 C285 1.383 . S
C282 N281 1.376 . S
C282 C283 1.446 . S
C282 C305 1.391 . S
C283 C282 1.446 . S
C283 C284 1.339 . S
C283 H312 0.949 . S
C284 C283 1.339 . S
C284 C285 1.439 . S
C284 H313 0.950 . S
C285 N281 1.383 . S
C285 C284 1.439 . S
C285 C303 1.392 . S
N286 Co270 2.282 . S
N286 C289 1.332 . S
N286 C291 1.332 . S
C287 C288 1.386 . S
C287 C290 1.388 . S
C288 C287 1.386 . S
C288 C289 1.382 . S
C288 H314 0.950 . S
C289 N286 1.332 . S
C289 C288 1.382 . S
C289 H300 0.952 . S
C290 C287 1.388 . S
C290 C291 1.382 . S
C290 H315 0.950 . S
C291 N286 1.332 . S
C291 C290 1.382 . S
C291 H301 0.948 . S
N292 Co270 2.282 . S
N292 C296 1.332 . S
N292 C297 1.332 . S
C293 C294 1.388 . S
C293 C297 1.382 . S
C293 H316 0.950 . S
C294 C293 1.388 . S
C294 C295 1.386 . S
C295 C294 1.386 . S
C295 C296 1.382 . S
C295 H317 0.950 . S
C296 N292 1.332 . S
C296 C295 1.382 . S
C296 H298 0.952 . S
C297 N292 1.332 . S
C297 C293 1.382 . S
C297 H299 0.948 . S
H298 C296 0.952 . S
H299 C297 0.948 . S
H300 C289 0.952 . S
H301 C291 0.948 . S
C302 C268 1.395 . S
C302 C272 1.391 . S
C303 C265 1.389 . S
C303 C285 1.392 . S
C304 C275 1.392 . S
C304 C277 1.389 . S
C305 C280 1.395 . S
C305 C282 1.391 . S
H306 C266 0.951 . S
H307 C267 0.950 . S
H308 C273 0.949 . S
H309 C274 0.950 . S
H310 C278 0.951 . S
H311 C279 0.950 . S
H312 C283 0.949 . S
H313 C284 0.950 . S
H314 C288 0.950 . S
H315 C290 0.950 . S
H316 C293 0.950 . S
H317 C295 0.950 . S
C318 C319 1.443 . S
C318 N322 1.376 . S
C318 C356 1.389 . S
C319 C318 1.443 . S
C319 C320 1.340 . S
C319 H359 0.951 . S
C320 C319 1.340 . S
C320 C321 1.439 . S
C320 H360 0.950 . S
C321 C320 1.439 . S
C321 N322 1.374 . S
C321 C355 1.395 . S
N322 C318 1.376 . S
N322 C321 1.374 . S
N322 Co323 2.008 . S
Co323 N322 2.008 . S
Co323 N324 1.995 . S
Co323 N329 2.008 . S
Co323 N334 1.995 . S
Co323 N339 2.282 . S
Co323 N345 2.282 . S
N324 Co323 1.995 . S
N324 C325 1.376 . S
N324 C328 1.383 . S
C325 N324 1.376 . S
C325 C326 1.446 . S
C325 C355 1.391 . S
C326 C325 1.446 . S
C326 C327 1.339 . S
C326 H361 0.949 . S
C327 C326 1.339 . S
C327 C328 1.439 . S
C327 H362 0.950 . S
C328 N324 1.383 . S
C328 C327 1.439 . S
C328 C357 1.392 . S
N329 Co323 2.008 . S
N329 C330 1.376 . S
N329 C333 1.374 . S
C330 N329 1.376 . S
C330 C331 1.443 . S
C330 C357 1.389 . S
C331 C330 1.443 . S
C331 C332 1.340 . S
C331 H363 0.951 . S
C332 C331 1.340 . S
C332 C333 1.439 . S
C332 H364 0.950 . S
C333 N329 1.374 . S
C333 C332 1.439 . S
C333 C358 1.395 . S
N334 Co323 1.995 . S
N334 C335 1.376 . S
N334 C338 1.383 . S
C335 N334 1.376 . S
C335 C336 1.446 . S
C335 C358 1.391 . S
C336 C335 1.446 . S
C336 C337 1.339 . S
C336 H365 0.949 . S
C337 C336 1.339 . S
C337 C338 1.439 . S
C337 H366 0.950 . S
C338 N334 1.383 . S
C338 C337 1.439 . S
C338 C356 1.392 . S
N339 Co323 2.282 . S
N339 C342 1.332 . S
N339 C344 1.332 . S
C340 C341 1.386 . S
C340 C343 1.388 . S
C341 C340 1.386 . S
C341 C342 1.382 . S
C341 H367 0.950 . S
C342 N339 1.332 . S
C342 C341 1.382 . S
C342 H353 0.952 . S
C343 C340 1.388 . S
C343 C344 1.382 . S
C343 H368 0.950 . S
C344 N339 1.332 . S
C344 C343 1.382 . S
C344 H354 0.948 . S
N345 Co323 2.282 . S
N345 C349 1.332 . S
N345 C350 1.332 . S
C346 C347 1.388 . S
C346 C350 1.382 . S
C346 H369 0.950 . S
C347 C346 1.388 . S
C347 C348 1.386 . S
C348 C347 1.386 . S
C348 C349 1.382 . S
C348 H370 0.950 . S
C349 N345 1.332 . S
C349 C348 1.382 . S
C349 H351 0.952 . S
C350 N345 1.332 . S
C350 C346 1.382 . S
C350 H352 0.948 . S
H351 C349 0.952 . S
H352 C350 0.948 . S
H353 C342 0.952 . S
H354 C344 0.948 . S
C355 C321 1.395 . S
C355 C325 1.391 . S
C356 C318 1.389 . S
C356 C338 1.392 . S
C357 C328 1.392 . S
C357 C330 1.389 . S
C358 C333 1.395 . S
C358 C335 1.391 . S
H359 C319 0.951 . S
H360 C320 0.950 . S
H361 C326 0.949 . S
H362 C327 0.950 . S
H363 C331 0.951 . S
H364 C332 0.950 . S
H365 C336 0.949 . S
H366 C337 0.950 . S
H367 C341 0.950 . S
H368 C343 0.950 . S
H369 C346 0.950 . S
H370 C348 0.950 . S
C371 C372 1.443 . S
C371 N375 1.376 . S
C371 C409 1.389 . S
C372 C371 1.443 . S
C372 C373 1.340 . S
C372 H412 0.951 . S
C373 C372 1.340 . S
C373 C374 1.439 . S
C373 H413 0.950 . S
C374 C373 1.439 . S
C374 N375 1.374 . S
C374 C408 1.395 . S
N375 C371 1.376 . S
N375 C374 1.374 . S
N375 Co376 2.008 . S
Co376 N375 2.008 . S
Co376 N377 1.995 . S
Co376 N382 2.008 . S
Co376 N387 1.995 . S
Co376 N392 2.282 . S
Co376 N398 2.282 . S
N377 Co376 1.995 . S
N377 C378 1.376 . S
N377 C381 1.383 . S
C378 N377 1.376 . S
C378 C379 1.446 . S
C378 C408 1.391 . S
C379 C378 1.446 . S
C379 C380 1.339 . S
C379 H414 0.949 . S
C380 C379 1.339 . S
C380 C381 1.439 . S
C380 H415 0.950 . S
C381 N377 1.383 . S
C381 C380 1.439 . S
C381 C410 1.392 . S
N382 Co376 2.008 . S
N382 C383 1.376 . S
N382 C386 1.374 . S
C383 N382 1.376 . S
C383 C384 1.443 . S
C383 C410 1.389 . S
C384 C383 1.443 . S
C384 C385 1.340 . S
C384 H416 0.951 . S
C385 C384 1.340 . S
C385 C386 1.439 . S
C385 H417 0.950 . S
C386 N382 1.374 . S
C386 C385 1.439 . S
C386 C411 1.395 . S
N387 Co376 1.995 . S
N387 C388 1.376 . S
N387 C391 1.383 . S
C388 N387 1.376 . S
C388 C389 1.446 . S
C388 C411 1.391 . S
C389 C388 1.446 . S
C389 C390 1.339 . S
C389 H418 0.949 . S
C390 C389 1.339 . S
C390 C391 1.439 . S
C390 H419 0.950 . S
C391 N387 1.383 . S
C391 C390 1.439 . S
C391 C409 1.392 . S
N392 Co376 2.282 . S
N392 C395 1.332 . S
N392 C397 1.332 . S
C393 C394 1.386 . S
C393 C396 1.388 . S
C394 C393 1.386 . S
C394 C395 1.382 . S
C394 H420 0.950 . S
C395 N392 1.332 . S
C395 C394 1.382 . S
C395 H406 0.952 . S
C396 C393 1.388 . S
C396 C397 1.382 . S
C396 H421 0.950 . S
C397 N392 1.332 . S
C397 C396 1.382 . S
C397 H407 0.948 . S
N398 Co376 2.282 . S
N398 C402 1.332 . S
N398 C403 1.332 . S
C399 C400 1.388 . S
C399 C403 1.382 . S
C399 H422 0.950 . S
C400 C399 1.388 . S
C400 C401 1.386 . S
C401 C400 1.386 . S
C401 C402 1.382 . S
C401 H423 0.950 . S
C402 N398 1.332 . S
C402 C401 1.382 . S
C402 H404 0.952 . S
C403 N398 1.332 . S
C403 C399 1.382 . S
C403 H405 0.948 . S
H404 C402 0.952 . S
H405 C403 0.948 . S
H406 C395 0.952 . S
H407 C397 0.948 . S
C408 C374 1.395 . S
C408 C378 1.391 . S
C409 C371 1.389 . S
C409 C391 1.392 . S
C410 C381 1.392 . S
C410 C383 1.389 . S
C411 C386 1.395 . S
C411 C388 1.391 . S
H412 C372 0.951 . S
H413 C373 0.950 . S
H414 C379 0.949 . S
H415 C380 0.950 . S
H416 C384 0.951 . S
H417 C385 0.950 . S
H418 C389 0.949 . S
H419 C390 0.950 . S
H420 C394 0.950 . S
H421 C396 0.950 . S
H422 C399 0.950 . S
H423 C401 0.950 . S
C424 C425 1.443 . S
C424 N428 1.376 . S
C424 C462 1.389 . S
C425 C424 1.443 . S
C425 C426 1.340 . S
C425 H465 0.951 . S
C426 C425 1.340 . S
C426 C427 1.439 . S
C426 H466 0.950 . S
C427 C426 1.439 . S
C427 N428 1.374 . S
C427 C461 1.395 . S
N428 C424 1.376 . S
N428 C427 1.374 . S
N428 Co429 2.008 . S
Co429 N428 2.008 . S
Co429 N430 1.995 . S
Co429 N435 2.008 . S
Co429 N440 1.995 . S
Co429 N445 2.282 . S
Co429 N451 2.282 . S
N430 Co429 1.995 . S
N430 C431 1.376 . S
N430 C434 1.383 . S
C431 N430 1.376 . S
C431 C432 1.446 . S
C431 C461 1.391 . S
C432 C431 1.446 . S
C432 C433 1.339 . S
C432 H467 0.949 . S
C433 C432 1.339 . S
C433 C434 1.439 . S
C433 H468 0.950 . S
C434 N430 1.383 . S
C434 C433 1.439 . S
C434 C463 1.392 . S
N435 Co429 2.008 . S
N435 C436 1.376 . S
N435 C439 1.374 . S
C436 N435 1.376 . S
C436 C437 1.443 . S
C436 C463 1.389 . S
C437 C436 1.443 . S
C437 C438 1.340 . S
C437 H469 0.951 . S
C438 C437 1.340 . S
C438 C439 1.439 . S
C438 H470 0.950 . S
C439 N435 1.374 . S
C439 C438 1.439 . S
C439 C464 1.395 . S
N440 Co429 1.995 . S
N440 C441 1.376 . S
N440 C444 1.383 . S
C441 N440 1.376 . S
C441 C442 1.446 . S
C441 C464 1.391 . S
C442 C441 1.446 . S
C442 C443 1.339 . S
C442 H471 0.949 . S
C443 C442 1.339 . S
C443 C444 1.439 . S
C443 H472 0.950 . S
C444 N440 1.383 . S
C444 C443 1.439 . S
C444 C462 1.392 . S
N445 Co429 2.282 . S
N445 C448 1.332 . S
N445 C450 1.332 . S
C446 C447 1.386 . S
C446 C449 1.388 . S
C447 C446 1.386 . S
C447 C448 1.382 . S
C447 H473 0.950 . S
C448 N445 1.332 . S
C448 C447 1.382 . S
C448 H459 0.952 . S
C449 C446 1.388 . S
C449 C450 1.382 . S
C449 H474 0.950 . S
C450 N445 1.332 . S
C450 C449 1.382 . S
C450 H460 0.948 . S
N451 Co429 2.282 . S
N451 C455 1.332 . S
N451 C456 1.332 . S
C452 C453 1.388 . S
C452 C456 1.382 . S
C452 H475 0.950 . S
C453 C452 1.388 . S
C453 C454 1.386 . S
C454 C453 1.386 . S
C454 C455 1.382 . S
C454 H476 0.950 . S
C455 N451 1.332 . S
C455 C454 1.382 . S
C455 H457 0.952 . S
C456 N451 1.332 . S
C456 C452 1.382 . S
C456 H458 0.948 . S
H457 C455 0.952 . S
H458 C456 0.948 . S
H459 C448 0.952 . S
H460 C450 0.948 . S
C461 C427 1.395 . S
C461 C431 1.391 . S
C462 C424 1.389 . S
C462 C444 1.392 . S
C463 C434 1.392 . S
C463 C436 1.389 . S
C464 C439 1.395 . S
C464 C441 1.391 . S
H465 C425 0.951 . S
H466 C426 0.950 . S
H467 C432 0.949 . S
H468 C433 0.950 . S
H469 C437 0.951 . S
H470 C438 0.950 . S
H471 C442 0.949 . S
H472 C443 0.950 . S
H473 C447 0.950 . S
H474 C449 0.950 . S
H475 C452 0.950 . S
H476 C454 0.950 . S
C477 C478 1.443 . S
C477 N481 1.376 . S
C477 C515 1.389 . S
C478 C477 1.443 . S
C478 C479 1.340 . S
C478 H518 0.951 . S
C479 C478 1.340 . S
C479 C480 1.439 . S
C479 H519 0.950 . S
C480 C479 1.439 . S
C480 N481 1.374 . S
C480 C514 1.395 . S
N481 C477 1.376 . S
N481 C480 1.374 . S
N481 Co482 2.008 . S
Co482 N481 2.008 . S
Co482 N483 1.995 . S
Co482 N488 2.008 . S
Co482 N493 1.995 . S
Co482 N498 2.282 . S
Co482 N504 2.282 . S
N483 Co482 1.995 . S
N483 C484 1.376 . S
N483 C487 1.383 . S
C484 N483 1.376 . S
C484 C485 1.446 . S
C484 C514 1.391 . S
C485 C484 1.446 . S
C485 C486 1.339 . S
C485 H520 0.949 . S
C486 C485 1.339 . S
C486 C487 1.439 . S
C486 H521 0.950 . S
C487 N483 1.383 . S
C487 C486 1.439 . S
C487 C516 1.392 . S
N488 Co482 2.008 . S
N488 C489 1.376 . S
N488 C492 1.374 . S
C489 N488 1.376 . S
C489 C490 1.443 . S
C489 C516 1.389 . S
C490 C489 1.443 . S
C490 C491 1.340 . S
C490 H522 0.951 . S
C491 C490 1.340 . S
C491 C492 1.439 . S
C491 H523 0.950 . S
C492 N488 1.374 . S
C492 C491 1.439 . S
C492 C517 1.395 . S
N493 Co482 1.995 . S
N493 C494 1.376 . S
N493 C497 1.383 . S
C494 N493 1.376 . S
C494 C495 1.446 . S
C494 C517 1.391 . S
C495 C494 1.446 . S
C495 C496 1.339 . S
C495 H524 0.949 . S
C496 C495 1.339 . S
C496 C497 1.439 . S
C496 H525 0.950 . S
C497 N493 1.383 . S
C497 C496 1.439 . S
C497 C515 1.392 . S
N498 Co482 2.282 . S
N498 C501 1.332 . S
N498 C503 1.332 . S
C499 C500 1.386 . S
C499 C502 1.388 . S
C500 C499 1.386 . S
C500 C501 1.382 . S
C500 H526 0.950 . S
C501 N498 1.332 . S
C501 C500 1.382 . S
C501 H512 0.952 . S
C502 C499 1.388 . S
C502 C503 1.382 . S
C502 H527 0.950 . S
C503 N498 1.332 . S
C503 C502 1.382 . S
C503 H513 0.948 . S
N504 Co482 2.282 . S
N504 C508 1.332 . S
N504 C509 1.332 . S
C505 C506 1.388 . S
C505 C509 1.382 . S
C505 H528 0.950 . S
C506 C505 1.388 . S
C506 C507 1.386 . S
C507 C506 1.386 . S
C507 C508 1.382 . S
C507 H529 0.950 . S
C508 N504 1.332 . S
C508 C507 1.382 . S
C508 H510 0.952 . S
C509 N504 1.332 . S
C509 C505 1.382 . S
C509 H511 0.948 . S
H510 C508 0.952 . S
H511 C509 0.948 . S
H512 C501 0.952 . S
H513 C503 0.948 . S
C514 C480 1.395 . S
C514 C484 1.391 . S
C515 C477 1.389 . S
C515 C497 1.392 . S
C516 C487 1.392 . S
C516 C489 1.389 . S
C517 C492 1.395 . S
C517 C494 1.391 . S
H518 C478 0.951 . S
H519 C479 0.950 . S
H520 C485 0.949 . S
H521 C486 0.950 . S
H522 C490 0.951 . S
H523 C491 0.950 . S
H524 C495 0.949 . S
H525 C496 0.950 . S
H526 C500 0.950 . S
H527 C502 0.950 . S
H528 C505 0.950 . S
H529 C507 0.950 . S
C530 C531 1.443 . S
C530 N534 1.376 . S
C530 C568 1.389 . S
C531 C530 1.443 . S
C531 C532 1.340 . S
C531 H571 0.951 . S
C532 C531 1.340 . S
C532 C533 1.439 . S
C532 H572 0.950 . S
C533 C532 1.439 . S
C533 N534 1.374 . S
C533 C567 1.395 . S
N534 C530 1.376 . S
N534 C533 1.374 . S
N534 Co535 2.008 . S
Co535 N534 2.008 . S
Co535 N536 1.995 . S
Co535 N541 2.008 1_545 S
Co535 N546 1.995 1_545 S
Co535 N551 2.282 1_545 S
Co535 N557 2.282 . S
N536 Co535 1.995 . S
N536 C537 1.376 . S
N536 C540 1.383 . S
C537 N536 1.376 . S
C537 C538 1.446 . S
C537 C567 1.391 . S
C538 C537 1.446 . S
C538 C539 1.339 . S
C538 H573 0.949 . S
C539 C538 1.339 . S
C539 C540 1.439 . S
C539 H574 0.950 . S
C540 N536 1.383 . S
C540 C539 1.439 . S
C540 C569 1.392 1_545 S
N541 Co535 2.008 1_565 S
N541 C542 1.376 . S
N541 C545 1.374 . S
C542 N541 1.376 . S
C542 C543 1.443 . S
C542 C569 1.389 . S
C543 C542 1.443 . S
C543 C544 1.340 . S
C543 H575 0.951 . S
C544 C543 1.340 . S
C544 C545 1.439 . S
C544 H576 0.950 . S
C545 N541 1.374 . S
C545 C544 1.439 . S
C545 C570 1.395 . S
N546 Co535 1.995 1_565 S
N546 C547 1.376 . S
N546 C550 1.383 . S
C547 N546 1.376 . S
C547 C548 1.446 . S
C547 C570 1.391 . S
C548 C547 1.446 . S
C548 C549 1.339 . S
C548 H577 0.949 . S
C549 C548 1.339 . S
C549 C550 1.439 . S
C549 H578 0.950 . S
C550 N546 1.383 . S
C550 C549 1.439 . S
C550 C568 1.392 1_565 S
N551 Co535 2.282 1_565 S
N551 C554 1.332 . S
N551 C556 1.332 1_565 S
C552 C553 1.386 . S
C552 C555 1.388 1_565 S
C553 C552 1.386 . S
C553 C554 1.382 . S
C553 H579 0.950 . S
C554 N551 1.332 . S
C554 C553 1.382 . S
C554 H565 0.952 . S
C555 C552 1.388 1_545 S
C555 C556 1.382 . S
C555 H580 0.950 . S
C556 N551 1.332 1_545 S
C556 C555 1.382 . S
C556 H566 0.948 . S
N557 Co535 2.282 . S
N557 C561 1.332 . S
N557 C562 1.332 1_545 S
C558 C559 1.388 1_565 S
C558 C562 1.382 . S
C558 H581 0.950 . S
C559 C558 1.388 1_545 S
C559 C560 1.386 . S
C560 C559 1.386 . S
C560 C561 1.382 . S
C560 H582 0.950 . S
C561 N557 1.332 . S
C561 C560 1.382 . S
C561 H563 0.952 . S
C562 N557 1.332 1_565 S
C562 C558 1.382 . S
C562 H564 0.948 . S
H563 C561 0.952 . S
H564 C562 0.948 . S
H565 C554 0.952 . S
H566 C556 0.948 . S
C567 C533 1.395 . S
C567 C537 1.391 . S
C568 C530 1.389 . S
C568 C550 1.392 1_545 S
C569 C540 1.392 1_565 S
C569 C542 1.389 . S
C570 C545 1.395 . S
C570 C547 1.391 . S
H571 C531 0.951 . S
H572 C532 0.950 . S
H573 C538 0.949 . S
H574 C539 0.950 . S
H575 C543 0.951 . S
H576 C544 0.950 . S
H577 C548 0.949 . S
H578 C549 0.950 . S
H579 C553 0.950 . S
H580 C555 0.950 . S
H581 C558 0.950 . S
H582 C560 0.950 . S
C583 C584 1.443 . S
C583 N587 1.376 . S
C583 C621 1.389 . S
C584 C583 1.443 . S
C584 C585 1.340 . S
C584 H624 0.951 . S
C585 C584 1.340 . S
C585 C586 1.439 . S
C585 H625 0.950 . S
C586 C585 1.439 . S
C586 N587 1.374 . S
C586 C620 1.395 . S
N587 C583 1.376 . S
N587 C586 1.374 . S
N587 Co588 2.008 1_556 S
Co588 N587 2.008 1_554 S
Co588 N589 1.995 1_554 S
Co588 N594 2.008 . S
Co588 N599 1.995 . S
Co588 N604 2.282 . S
Co588 N610 2.282 1_554 S
N589 Co588 1.995 1_556 S
N589 C590 1.376 . S
N589 C593 1.383 . S
C590 N589 1.376 . S
C590 C591 1.446 . S
C590 C620 1.391 . S
C591 C590 1.446 . S
C591 C592 1.339 . S
C591 H626 0.949 . S
C592 C591 1.339 . S
C592 C593 1.439 . S
C592 H627 0.950 . S
C593 N589 1.383 . S
C593 C592 1.439 . S
C593 C622 1.392 1_556 S
N594 Co588 2.008 . S
N594 C595 1.376 . S
N594 C598 1.374 . S
C595 N594 1.376 . S
C595 C596 1.443 . S
C595 C622 1.389 . S
C596 C595 1.443 . S
C596 C597 1.340 . S
C596 H628 0.951 . S
C597 C596 1.340 . S
C597 C598 1.439 . S
C597 H629 0.950 . S
C598 N594 1.374 . S
C598 C597 1.439 . S
C598 C623 1.395 . S
N599 Co588 1.995 . S
N599 C600 1.376 . S
N599 C603 1.383 . S
C600 N599 1.376 . S
C600 C601 1.446 . S
C600 C623 1.391 . S
C601 C600 1.446 . S
C601 C602 1.339 . S
C601 H630 0.949 . S
C602 C601 1.339 . S
C602 C603 1.439 . S
C602 H631 0.950 . S
C603 N599 1.383 . S
C603 C602 1.439 . S
C603 C621 1.392 1_554 S
N604 Co588 2.282 . S
N604 C607 1.332 . S
N604 C609 1.332 1_554 S
C605 C606 1.386 . S
C605 C608 1.388 1_554 S
C606 C605 1.386 . S
C606 C607 1.382 . S
C606 H632 0.950 . S
C607 N604 1.332 . S
C607 C606 1.382 . S
C607 H618 0.952 . S
C608 C605 1.388 1_556 S
C608 C609 1.382 . S
C608 H633 0.950 . S
C609 N604 1.332 1_556 S
C609 C608 1.382 . S
C609 H619 0.948 . S
N610 Co588 2.282 1_556 S
N610 C614 1.332 . S
N610 C615 1.332 1_556 S
C611 C612 1.388 1_554 S
C611 C615 1.382 . S
C611 H634 0.950 . S
C612 C611 1.388 1_556 S
C612 C613 1.386 . S
C613 C612 1.386 . S
C613 C614 1.382 . S
C613 H635 0.950 . S
C614 N610 1.332 . S
C614 C613 1.382 . S
C614 H616 0.952 . S
C615 N610 1.332 1_554 S
C615 C611 1.382 . S
C615 H617 0.948 . S
H616 C614 0.952 . S
H617 C615 0.948 . S
H618 C607 0.952 . S
H619 C609 0.948 . S
C620 C586 1.395 . S
C620 C590 1.391 . S
C621 C583 1.389 . S
C621 C603 1.392 1_556 S
C622 C593 1.392 1_554 S
C622 C595 1.389 . S
C623 C598 1.395 . S
C623 C600 1.391 . S
H624 C584 0.951 . S
H625 C585 0.950 . S
H626 C591 0.949 . S
H627 C592 0.950 . S
H628 C596 0.951 . S
H629 C597 0.950 . S
H630 C601 0.949 . S
H631 C602 0.950 . S
H632 C606 0.950 . S
H633 C608 0.950 . S
H634 C611 0.950 . S
H635 C613 0.950 . S
C636 Eu637 2.835 . S
C636 C638 1.500 . S
C636 O656 1.257 . S
C636 O657 1.260 . S
Eu637 C636 2.835 . S
Eu637 O656 2.473 . S
Eu637 O657 2.480 . S
Eu637 O658 2.430 . S
Eu637 O659 2.670 . S
Eu637 O660 2.394 . S
Eu637 O665 2.355 . S
Eu637 O667 2.374 . S
C638 C636 1.500 . S
C638 C639 1.377 . S
C638 C643 1.377 . S
C639 C638 1.377 . S
C639 C640 1.395 . S
C639 H668 0.931 . S
C640 C639 1.395 . S
C640 C641 1.383 . S
C640 H669 0.931 1_545 S
C641 C640 1.383 . S
C641 C642 1.394 . S
C642 C641 1.394 . S
C642 C643 1.378 . S
C642 H670 0.931 . S
C643 C638 1.377 . S
C643 C642 1.378 . S
C643 H671 0.931 . S
C644 O658 1.259 . S
C644 O659 1.270 . S
C645 O660 1.251 . S
C645 O661 1.251 . S
C646 Eu647 2.835 . S
C646 C648 1.500 . S
C646 O662 1.257 . S
C646 O663 1.260 . S
Eu647 C646 2.835 . S
Eu647 O659 2.355 . S
Eu647 O661 2.374 . S
Eu647 O662 2.473 . S
Eu647 O663 2.480 . S
Eu647 O664 2.430 . S
Eu647 O665 2.670 . S
Eu647 O666 2.394 . S
C648 C646 1.500 . S
C648 C649 1.377 . S
C648 C653 1.377 . S
C649 C648 1.377 . S
C649 C650 1.395 . S
C649 H672 0.931 . S
C650 C649 1.395 . S
C650 C651 1.383 . S
C650 H673 0.931 . S
C651 C650 1.383 . S
C651 C652 1.394 . S
C652 C651 1.394 . S
C652 C653 1.378 . S
C652 H674 0.931 . S
C653 C648 1.377 . S
C653 C652 1.378 . S
C653 H675 0.931 . S
C654 O664 1.259 . S
C654 O665 1.270 . S
C655 O666 1.251 . S
C655 O667 1.251 . S
O656 C636 1.257 . S
O656 Eu637 2.473 . S
O657 C636 1.260 . S
O657 Eu637 2.480 . S
O658 Eu637 2.430 . S
O658 C644 1.259 . S
O659 Eu637 2.670 . S
O659 C644 1.270 . S
O659 Eu647 2.355 . S
O660 Eu637 2.394 . S
O660 C645 1.251 . S
O661 C645 1.251 . S
O661 Eu647 2.374 . S
O662 C646 1.257 . S
O662 Eu647 2.473 . S
O663 C646 1.260 . S
O663 Eu647 2.480 . S
O664 Eu647 2.430 . S
O664 C654 1.259 . S
O665 Eu637 2.355 . S
O665 Eu647 2.670 . S
O665 C654 1.270 . S
O666 Eu647 2.394 . S
O666 C655 1.251 . S
O667 Eu637 2.374 . S
O667 C655 1.251 . S
H668 C639 0.931 . S
H669 C640 0.931 1_565 S
H670 C642 0.931 . S
H671 C643 0.931 . S
H672 C649 0.931 . S
H673 C650 0.931 . S
H674 C652 0.931 . S
H675 C653 0.931 . S
C676 Eu677 2.835 . S
C676 C678 1.500 . S
C676 O696 1.257 . S
C676 O697 1.260 . S
Eu677 C676 2.835 . S
Eu677 O696 2.473 . S
Eu677 O697 2.480 . S
Eu677 O698 2.430 . S
Eu677 O699 2.670 . S
Eu677 O700 2.394 . S
Eu677 O705 2.355 . S
Eu677 O707 2.374 . S
C678 C676 1.500 . S
C678 C679 1.377 . S
C678 C683 1.377 . S
C679 C678 1.377 . S
C679 C680 1.395 . S
C679 H708 0.931 . S
C680 C679 1.395 . S
C680 C681 1.383 . S
C680 H709 0.931 . S
C681 C680 1.383 . S
C681 C682 1.394 . S
C682 C681 1.394 . S
C682 C683 1.378 . S
C682 H710 0.931 . S
C683 C678 1.377 . S
C683 C682 1.378 . S
C683 H711 0.931 . S
C684 O698 1.259 . S
C684 O699 1.270 . S
C685 O700 1.251 . S
C685 O701 1.251 1_655 S
C686 Eu687 2.835 . S
C686 C688 1.500 . S
C686 O702 1.257 . S
C686 O703 1.260 . S
Eu687 C686 2.835 . S
Eu687 O699 2.355 1_455 S
Eu687 O701 2.374 . S
Eu687 O702 2.473 . S
Eu687 O703 2.480 . S
Eu687 O704 2.430 1_455 S
Eu687 O705 2.670 1_455 S
Eu687 O706 2.394 1_455 S
C688 C686 1.500 . S
C688 C689 1.377 . S
C688 C693 1.377 . S
C689 C688 1.377 . S
C689 C690 1.395 . S
C689 H712 0.931 . S
C690 C689 1.395 . S
C690 C691 1.383 . S
C690 H713 0.931 . S
C691 C690 1.383 . S
C691 C692 1.394 . S
C692 C691 1.394 . S
C692 C693 1.378 . S
C692 H714 0.931 . S
C693 C688 1.377 . S
C693 C692 1.378 . S
C693 H715 0.931 . S
C694 O704 1.259 . S
C694 O705 1.270 . S
C695 O706 1.251 . S
C695 O707 1.251 . S
O696 C676 1.257 . S
O696 Eu677 2.473 . S
O697 C676 1.260 . S
O697 Eu677 2.480 . S
O698 Eu677 2.430 . S
O698 C684 1.259 . S
O699 Eu677 2.670 . S
O699 C684 1.270 . S
O699 Eu687 2.355 1_655 S
O700 Eu677 2.394 . S
O700 C685 1.251 . S
O701 C685 1.251 1_455 S
O701 Eu687 2.374 . S
O702 C686 1.257 . S
O702 Eu687 2.473 . S
O703 C686 1.260 . S
O703 Eu687 2.480 . S
O704 Eu687 2.430 1_655 S
O704 C694 1.259 . S
O705 Eu677 2.355 . S
O705 Eu687 2.670 1_655 S
O705 C694 1.270 . S
O706 Eu687 2.394 1_655 S
O706 C695 1.251 . S
O707 Eu677 2.374 . S
O707 C695 1.251 . S
H708 C679 0.931 . S
H709 C680 0.931 . S
H710 C682 0.931 . S
H711 C683 0.931 . S
H712 C689 0.931 . S
H713 C690 0.931 . S
H714 C692 0.931 . S
H715 C693 0.931 . S
C716 Eu717 2.835 . S
C716 C718 1.500 . S
C716 O736 1.260 . S
C716 O737 1.260 . S
Eu717 C716 2.835 . S
Eu717 O736 2.474 . S
Eu717 O737 2.480 . S
Eu717 O738 2.430 . S
Eu717 O739 2.670 . S
Eu717 O740 2.394 . S
Eu717 O745 2.355 . S
Eu717 O747 2.374 1_565 S
C718 C716 1.500 . S
C718 C719 1.377 . S
C718 C723 1.373 1_565 S
C719 C718 1.377 . S
C719 C720 1.393 1_565 S
C719 H748 0.931 . S
C720 C719 1.393 1_545 S
C720 C721 1.386 . S
C720 H749 0.931 . S
C721 C720 1.386 . S
C721 C722 1.394 . S
C722 C721 1.394 . S
C722 C723 1.383 . S
C722 H750 0.931 . S
C723 C718 1.373 1_545 S
C723 C722 1.383 . S
C723 H751 0.931 . S
C724 O738 1.259 . S
C724 O739 1.270 . S
C725 O740 1.251 . S
C725 O741 1.251 . S
C726 Eu727 2.835 . S
C726 C728 1.500 . S
C726 O742 1.257 . S
C726 O743 1.260 . S
Eu727 C726 2.835 . S
Eu727 O739 2.355 . S
Eu727 O741 2.374 . S
Eu727 O742 2.473 . S
Eu727 O743 2.480 . S
Eu727 O744 2.430 . S
Eu727 O745 2.670 . S
Eu727 O746 2.394 . S
C728 C726 1.500 . S
C728 C729 1.377 . S
C728 C733 1.377 . S
C729 C728 1.377 . S
C729 C730 1.395 . S
C729 H752 0.931 . S
C730 C729 1.395 . S
C730 C731 1.383 . S
C730 H753 0.931 . S
C731 C730 1.383 . S
C731 C732 1.394 . S
C732 C731 1.394 . S
C732 C733 1.378 . S
C732 H754 0.931 . S
C733 C728 1.377 . S
C733 C732 1.378 . S
C733 H755 0.931 . S
C734 O744 1.259 . S
C734 O745 1.270 . S
C735 O746 1.251 1_545 S
C735 O747 1.251 . S
O736 C716 1.260 . S
O736 Eu717 2.474 . S
O737 C716 1.260 . S
O737 Eu717 2.480 . S
O738 Eu717 2.430 . S
O738 C724 1.259 . S
O739 Eu717 2.670 . S
O739 C724 1.270 . S
O739 Eu727 2.355 . S
O740 Eu717 2.394 . S
O740 C725 1.251 . S
O741 C725 1.251 . S
O741 Eu727 2.374 . S
O742 C726 1.257 . S
O742 Eu727 2.473 . S
O743 C726 1.260 . S
O743 Eu727 2.480 . S
O744 Eu727 2.430 . S
O744 C734 1.259 . S
O745 Eu717 2.355 . S
O745 Eu727 2.670 . S
O745 C734 1.270 . S
O746 Eu727 2.394 . S
O746 C735 1.251 1_565 S
O747 Eu717 2.374 1_545 S
O747 C735 1.251 . S
H748 C719 0.931 . S
H749 C720 0.931 . S
H750 C722 0.931 . S
H751 C723 0.931 . S
H752 C729 0.931 . S
H753 C730 0.931 . S
H754 C732 0.931 . S
H755 C733 0.931 . S
C756 Eu757 2.835 . S
C756 C758 1.500 . S
C756 O776 1.257 . S
C756 O777 1.260 . S
Eu757 C756 2.835 . S
Eu757 O776 2.473 . S
Eu757 O777 2.480 . S
Eu757 O778 2.430 . S
Eu757 O779 2.670 . S
Eu757 O780 2.394 . S
Eu757 O785 2.355 1_455 S
Eu757 O787 2.347 1_455 S
C758 C756 1.500 . S
C758 C759 1.377 . S
C758 C763 1.377 . S
C759 C758 1.377 . S
C759 C760 1.395 . S
C759 H788 0.931 . S
C760 C759 1.395 . S
C760 C761 1.383 . S
C760 H789 0.931 . S
C761 C760 1.383 . S
C761 C762 1.394 . S
C762 C761 1.394 . S
C762 C763 1.378 . S
C762 H790 0.931 . S
C763 C758 1.377 . S
C763 C762 1.378 . S
C763 H791 0.931 . S
C764 O778 1.259 . S
C764 O779 1.270 . S
C765 O780 1.251 . S
C765 O781 1.274 . S
C766 Eu767 2.835 . S
C766 C768 1.500 . S
C766 O782 1.257 . S
C766 O783 1.260 . S
Eu767 C766 2.835 . S
Eu767 O779 2.355 1_655 S
Eu767 O781 2.357 1_655 S
Eu767 O782 2.473 . S
Eu767 O783 2.480 . S
Eu767 O784 2.430 . S
Eu767 O785 2.670 . S
Eu767 O786 2.394 . S
C768 C766 1.500 . S
C768 C769 1.377 . S
C768 C773 1.377 . S
C769 C768 1.377 . S
C769 C770 1.395 . S
C769 H792 0.931 . S
C770 C769 1.395 . S
C770 C771 1.383 . S
C770 H793 0.931 . S
C771 C770 1.383 . S
C771 C772 1.394 . S
C772 C771 1.394 . S
C772 C773 1.378 . S
C772 H794 0.931 . S
C773 C768 1.377 . S
C773 C772 1.378 . S
C773 H795 0.931 . S
C774 O784 1.259 . S
C774 O785 1.270 . S
C775 O786 1.251 . S
C775 O787 1.288 . S
O776 C756 1.257 . S
O776 Eu757 2.473 . S
O777 C756 1.260 . S
O777 Eu757 2.480 . S
O778 Eu757 2.430 . S
O778 C764 1.259 . S
O779 Eu757 2.670 . S
O779 C764 1.270 . S
O779 Eu767 2.355 1_455 S
O780 Eu757 2.394 . S
O780 C765 1.251 . S
O781 C765 1.274 . S
O781 Eu767 2.357 1_455 S
O782 C766 1.257 . S
O782 Eu767 2.473 . S
O783 C766 1.260 . S
O783 Eu767 2.480 . S
O784 Eu767 2.430 . S
O784 C774 1.259 . S
O785 Eu757 2.355 1_655 S
O785 Eu767 2.670 . S
O785 C774 1.270 . S
O786 Eu767 2.394 . S
O786 C775 1.251 . S
O787 Eu757 2.347 1_655 S
O787 C775 1.288 . S
H788 C759 0.931 . S
H789 C760 0.931 . S
H790 C762 0.931 . S
H791 C763 0.931 . S
H792 C769 0.931 . S
H793 C770 0.931 . S
H794 C772 0.931 . S
H795 C773 0.931 . S
C796 Eu797 2.835 1_545 S
C796 C798 1.500 . S
C796 O816 1.257 . S
C796 O817 1.260 1_545 S
Eu797 C796 2.835 1_565 S
Eu797 O816 2.473 1_565 S
Eu797 O817 2.480 . S
Eu797 O818 2.430 . S
Eu797 O819 2.670 . S
Eu797 O820 2.394 1_565 S
Eu797 O825 2.355 1_565 S
Eu797 O827 2.374 . S
C798 C796 1.500 . S
C798 C799 1.377 . S
C798 C803 1.377 . S
C799 C798 1.377 . S
C799 C800 1.395 . S
C799 H828 0.931 . S
C800 C799 1.395 . S
C800 C801 1.383 . S
C800 H829 0.931 . S
C801 C800 1.383 . S
C801 C802 1.394 . S
C802 C801 1.394 . S
C802 C803 1.378 . S
C802 H830 0.931 . S
C803 C798 1.377 . S
C803 C802 1.378 . S
C803 H831 0.931 . S
C804 O818 1.259 . S
C804 O819 1.270 . S
C805 O820 1.251 . S
C805 O821 1.251 . S
C806 Eu807 2.835 . S
C806 C808 1.500 . S
C806 O822 1.257 . S
C806 O823 1.260 . S
Eu807 C806 2.835 . S
Eu807 O819 2.355 . S
Eu807 O821 2.374 1_565 S
Eu807 O822 2.473 . S
Eu807 O823 2.480 . S
Eu807 O824 2.430 1_565 S
Eu807 O825 2.670 1_565 S
Eu807 O826 2.394 . S
C808 C806 1.500 . S
C808 C809 1.377 . S
C808 C813 1.377 . S
C809 C808 1.377 . S
C809 C810 1.395 . S
C809 H832 0.931 . S
C810 C809 1.395 . S
C810 C811 1.383 . S
C810 H833 0.931 . S
C811 C810 1.383 . S
C811 C812 1.394 . S
C812 C811 1.394 . S
C812 C813 1.378 . S
C812 H834 0.931 . S
C813 C808 1.377 . S
C813 C812 1.378 . S
C813 H835 0.931 . S
C814 O824 1.259 . S
C814 O825 1.270 . S
C815 O826 1.251 . S
C815 O827 1.251 . S
O816 C796 1.257 . S
O816 Eu797 2.473 1_545 S
O817 C796 1.260 1_565 S
O817 Eu797 2.480 . S
O818 Eu797 2.430 . S
O818 C804 1.259 . S
O819 Eu797 2.670 . S
O819 C804 1.270 . S
O819 Eu807 2.355 . S
O820 Eu797 2.394 1_545 S
O820 C805 1.251 . S
O821 C805 1.251 . S
O821 Eu807 2.374 1_545 S
O822 C806 1.257 . S
O822 Eu807 2.473 . S
O823 C806 1.260 . S
O823 Eu807 2.480 . S
O824 Eu807 2.430 1_545 S
O824 C814 1.259 . S
O825 Eu797 2.355 1_545 S
O825 Eu807 2.670 1_545 S
O825 C814 1.270 . S
O826 Eu807 2.394 . S
O826 C815 1.251 . S
O827 Eu797 2.374 . S
O827 C815 1.251 . S
H828 C799 0.931 . S
H829 C800 0.931 . S
H830 C802 0.931 . S
H831 C803 0.931 . S
H832 C809 0.931 . S
H833 C810 0.931 . S
H834 C812 0.931 . S
H835 C813 0.931 . S
C836 Eu837 2.835 . S
C836 C838 1.500 . S
C836 O856 1.257 . S
C836 O857 1.260 . S
Eu837 C836 2.835 . S
Eu837 O856 2.473 . S
Eu837 O857 2.480 . S
Eu837 O858 2.430 . S
Eu837 O859 2.670 . S
Eu837 O860 2.394 . S
Eu837 O865 2.355 . S
Eu837 O867 2.374 . S
C838 C836 1.500 . S
C838 C839 1.377 . S
C838 C843 1.377 . S
C839 C838 1.377 . S
C839 C840 1.395 . S
C839 H868 0.931 . S
C840 C839 1.395 . S
C840 C841 1.383 . S
C840 H869 0.931 . S
C841 C840 1.383 . S
C841 C842 1.394 . S
C842 C841 1.394 . S
C842 C843 1.378 . S
C842 H870 0.931 . S
C843 C838 1.377 . S
C843 C842 1.378 . S
C843 H871 0.931 . S
C844 O858 1.259 . S
C844 O859 1.270 . S
C845 O860 1.251 . S
C845 O861 1.251 . S
C846 Eu847 2.835 . S
C846 C848 1.500 . S
C846 O862 1.257 . S
C846 O863 1.260 . S
Eu847 C846 2.835 . S
Eu847 O859 2.355 . S
Eu847 O861 2.374 . S
Eu847 O862 2.473 . S
Eu847 O863 2.480 . S
Eu847 O864 2.430 . S
Eu847 O865 2.670 . S
Eu847 O866 2.394 . S
C848 C846 1.500 . S
C848 C849 1.377 . S
C848 C853 1.377 . S
C849 C848 1.377 . S
C849 C850 1.395 . S
C849 H872 0.931 . S
C850 C849 1.395 . S
C850 C851 1.383 . S
C850 H873 0.931 . S
C851 C850 1.383 . S
C851 C852 1.394 . S
C852 C851 1.394 . S
C852 C853 1.378 . S
C852 H874 0.931 . S
C853 C848 1.377 . S
C853 C852 1.378 . S
C853 H875 0.931 . S
C854 O864 1.259 . S
C854 O865 1.270 . S
C855 O866 1.251 . S
C855 O867 1.251 . S
O856 C836 1.257 . S
O856 Eu837 2.473 . S
O857 C836 1.260 . S
O857 Eu837 2.480 . S
O858 Eu837 2.430 . S
O858 C844 1.259 . S
O859 Eu837 2.670 . S
O859 C844 1.270 . S
O859 Eu847 2.355 . S
O860 Eu837 2.394 . S
O860 C845 1.251 . S
O861 C845 1.251 . S
O861 Eu847 2.374 . S
O862 C846 1.257 . S
O862 Eu847 2.473 . S
O863 C846 1.260 . S
O863 Eu847 2.480 . S
O864 Eu847 2.430 . S
O864 C854 1.259 . S
O865 Eu837 2.355 . S
O865 Eu847 2.670 . S
O865 C854 1.270 . S
O866 Eu847 2.394 . S
O866 C855 1.251 . S
O867 Eu837 2.374 . S
O867 C855 1.251 . S
H868 C839 0.931 . S
H869 C840 0.931 . S
H870 C842 0.931 . S
H871 C843 0.931 . S
H872 C849 0.931 . S
H873 C850 0.931 . S
H874 C852 0.931 . S
H875 C853 0.931 . S
C876 Eu877 2.835 . S
C876 C878 1.500 . S
C876 O896 1.257 . S
C876 O897 1.260 . S
Eu877 C876 2.835 . S
Eu877 O896 2.473 . S
Eu877 O897 2.480 . S
Eu877 O898 2.430 . S
Eu877 O899 2.670 . S
Eu877 O900 2.394 . S
Eu877 O905 2.355 1_554 S
Eu877 O907 2.374 1_554 S
C878 C876 1.500 . S
C878 C879 1.377 . S
C878 C883 1.377 . S
C879 C878 1.377 . S
C879 C880 1.395 . S
C879 H908 0.931 . S
C880 C879 1.395 . S
C880 C881 1.383 . S
C880 H909 0.931 . S
C881 C880 1.383 . S
C881 C882 1.394 . S
C882 C881 1.394 . S
C882 C883 1.378 . S
C882 H910 0.931 . S
C883 C878 1.377 . S
C883 C882 1.378 . S
C883 H911 0.931 . S
C884 O898 1.259 . S
C884 O899 1.270 . S
C885 O900 1.251 . S
C885 O901 1.251 . S
C886 Eu887 2.835 . S
C886 C888 1.500 . S
C886 O902 1.257 . S
C886 O903 1.260 . S
Eu887 C886 2.835 . S
Eu887 O899 2.355 1_556 S
Eu887 O901 2.374 1_556 S
Eu887 O902 2.473 . S
Eu887 O903 2.480 . S
Eu887 O904 2.430 . S
Eu887 O905 2.670 . S
Eu887 O906 2.394 . S
C888 C886 1.500 . S
C888 C889 1.377 . S
C888 C893 1.377 . S
C889 C888 1.377 . S
C889 C890 1.395 . S
C889 H912 0.931 . S
C890 C889 1.395 . S
C890 C891 1.383 . S
C890 H913 0.931 . S
C891 C890 1.383 . S
C891 C892 1.394 . S
C892 C891 1.394 . S
C892 C893 1.378 . S
C892 H914 0.931 . S
C893 C888 1.377 . S
C893 C892 1.378 . S
C893 H915 0.931 . S
C894 O904 1.259 . S
C894 O905 1.270 . S
C895 O906 1.251 . S
C895 O907 1.251 . S
O896 C876 1.257 . S
O896 Eu877 2.473 . S
O897 C876 1.260 . S
O897 Eu877 2.480 . S
O898 Eu877 2.430 . S
O898 C884 1.259 . S
O899 Eu877 2.670 . S
O899 C884 1.270 . S
O899 Eu887 2.355 1_554 S
O900 Eu877 2.394 . S
O900 C885 1.251 . S
O901 C885 1.251 . S
O901 Eu887 2.374 1_554 S
O902 C886 1.257 . S
O902 Eu887 2.473 . S
O903 C886 1.260 . S
O903 Eu887 2.480 . S
O904 Eu887 2.430 . S
O904 C894 1.259 . S
O905 Eu877 2.355 1_556 S
O905 Eu887 2.670 . S
O905 C894 1.270 . S
O906 Eu887 2.394 . S
O906 C895 1.251 . S
O907 Eu877 2.374 1_556 S
O907 C895 1.251 . S
H908 C879 0.931 . S
H909 C880 0.931 . S
H910 C882 0.931 . S
H911 C883 0.931 . S
H912 C889 0.931 . S
H913 C890 0.931 . S
H914 C892 0.931 . S
H915 C893 0.931 . S
C916 Eu917 2.835 . S
C916 C918 1.500 . S
C916 O936 1.257 . S
C916 O937 1.260 . S
Eu917 C916 2.835 . S
Eu917 O936 2.473 . S
Eu917 O937 2.480 . S
Eu917 O938 2.430 1_554 S
Eu917 O939 2.670 1_554 S
Eu917 O940 2.394 1_554 S
Eu917 O945 2.355 . S
Eu917 O947 2.374 . S
C918 C916 1.500 . S
C918 C919 1.377 . S
C918 C923 1.377 . S
C919 C918 1.377 . S
C919 C920 1.395 . S
C919 H948 0.931 . S
C920 C919 1.395 . S
C920 C921 1.383 . S
C920 H949 0.931 . S
C921 C920 1.383 . S
C921 C922 1.394 . S
C922 C921 1.394 . S
C922 C923 1.378 . S
C922 H950 0.931 . S
C923 C918 1.377 . S
C923 C922 1.378 . S
C923 H951 0.931 . S
C924 O938 1.259 . S
C924 O939 1.270 . S
C925 O940 1.251 . S
C925 O941 1.251 . S
C926 Eu927 2.835 . S
C926 C928 1.500 . S
C926 O942 1.257 . S
C926 O943 1.260 . S
Eu927 C926 2.835 . S
Eu927 O939 2.355 . S
Eu927 O941 2.374 . S
Eu927 O942 2.473 . S
Eu927 O943 2.480 . S
Eu927 O944 2.430 1_556 S
Eu927 O945 2.670 1_556 S
Eu927 O946 2.394 1_556 S
C928 C926 1.500 . S
C928 C929 1.377 . S
C928 C933 1.377 . S
C929 C928 1.377 . S
C929 C930 1.395 . S
C929 H952 0.931 . S
C930 C929 1.395 . S
C930 C931 1.383 . S
C930 H953 0.931 . S
C931 C930 1.383 . S
C931 C932 1.394 . S
C932 C931 1.394 . S
C932 C933 1.378 . S
C932 H954 0.931 . S
C933 C928 1.377 . S
C933 C932 1.378 . S
C933 H955 0.931 . S
C934 O944 1.259 . S
C934 O945 1.270 . S
C935 O946 1.251 . S
C935 O947 1.251 . S
O936 C916 1.257 . S
O936 Eu917 2.473 . S
O937 C916 1.260 . S
O937 Eu917 2.480 . S
O938 Eu917 2.430 1_556 S
O938 C924 1.259 . S
O939 Eu917 2.670 1_556 S
O939 C924 1.270 . S
O939 Eu927 2.355 . S
O940 Eu917 2.394 1_556 S
O940 C925 1.251 . S
O941 C925 1.251 . S
O941 Eu927 2.374 . S
O942 C926 1.257 . S
O942 Eu927 2.473 . S
O943 C926 1.260 . S
O943 Eu927 2.480 . S
O944 Eu927 2.430 1_554 S
O944 C934 1.259 . S
O945 Eu917 2.355 . S
O945 Eu927 2.670 1_554 S
O945 C934 1.270 . S
O946 Eu927 2.394 1_554 S
O946 C935 1.251 . S
O947 Eu917 2.374 . S
O947 C935 1.251 . S
H948 C919 0.931 . S
H949 C920 0.931 . S
H950 C922 0.931 . S
H951 C923 0.931 . S
H952 C929 0.931 . S
H953 C930 0.931 . S
H954 C932 0.931 . S
H955 C933 0.931 . S
H956 C974 0.951 . S
H957 C976 0.951 . S
H958 C978 0.950 . S
H959 C979 0.950 . S
H960 C981 0.950 . S
H961 C984 0.950 . S
H962 C985 0.950 . S
H963 C987 0.950 . S
H964 C988 0.950 . S
H965 C989 0.951 . S
H966 C991 0.951 . S
H967 C993 0.950 . S
H968 C994 0.950 . S
H969 C996 0.950 . S
H970 C999 0.950 . S
H971 C1000 0.950 . S
H972 C1002 0.950 . S
H973 C1003 0.950 . S
C974 H956 0.951 . S
C974 C975 1.366 . S
C974 C976 1.388 . S
C975 C974 1.366 . S
C975 C979 1.385 . S
C976 H957 0.951 . S
C976 C974 1.388 . S
C976 C977 1.366 . S
C977 C976 1.366 . S
C977 C978 1.414 . S
C977 C980 1.499 . S
C978 H958 0.950 . S
C978 C977 1.414 . S
C978 C979 1.374 . S
C979 H959 0.950 . S
C979 C975 1.385 . S
C979 C978 1.374 . S
C980 C977 1.499 . S
C980 C981 1.373 . S
C980 C982 1.389 . S
C981 H960 0.950 . S
C981 C980 1.373 . S
C981 C997 1.377 . S
C982 C980 1.389 . S
C982 C983 1.524 . S
C982 C996 1.377 . S
C983 C982 1.524 . S
C983 C984 1.397 . S
C983 C988 1.363 . S
C984 H961 0.950 . S
C984 C983 1.397 . S
C984 C985 1.334 . S
C985 H962 0.950 . S
C985 C984 1.334 . S
C985 C986 1.287 . S
C986 C985 1.287 . S
C986 C987 1.524 . S
C986 H1005 0.913 . S
C987 H963 0.950 . S
C987 C986 1.524 . S
C987 C988 1.415 . S
C988 H964 0.950 . S
C988 C983 1.363 . S
C988 C987 1.415 . S
C989 H965 0.951 . S
C989 C990 1.366 . S
C989 C991 1.388 . S
C990 C989 1.366 . S
C990 C994 1.385 . S
C991 H966 0.951 . S
C991 C989 1.388 . S
C991 C992 1.366 . S
C992 C991 1.366 . S
C992 C993 1.414 . S
C992 C995 1.499 . S
C993 H967 0.950 . S
C993 C992 1.414 . S
C993 C994 1.374 . S
C994 H968 0.950 . S
C994 C990 1.385 . S
C994 C993 1.374 . S
C995 C992 1.499 . S
C995 C996 1.373 . S
C995 C997 1.389 . S
C996 H969 0.950 . S
C996 C982 1.377 . S
C996 C995 1.373 . S
C997 C981 1.377 . S
C997 C995 1.389 . S
C997 C998 1.524 . S
C998 C997 1.524 . S
C998 C999 1.397 . S
C998 C1003 1.363 . S
C999 H970 0.950 . S
C999 C998 1.397 . S
C999 C1000 1.334 . S
C1000 H971 0.950 . S
C1000 C999 1.334 . S
C1000 C1001 1.287 1_455 S
C1001 C1000 1.287 1_655 S
C1001 C1002 1.524 . S
C1001 H1004 0.999 . S
C1002 H972 0.950 . S
C1002 C1001 1.524 . S
C1002 C1003 1.415 1_655 S
C1003 H973 0.950 . S
C1003 C998 1.363 . S
C1003 C1002 1.415 1_455 S
H1004 C1001 0.999 . S
H1005 C986 0.913 . S
H1006 C1024 0.951 . S
H1007 C1026 0.951 . S
H1008 C1028 0.950 1_655 S
H1009 C1029 0.950 1_655 S
H1010 C1031 0.950 . S
H1011 C1034 0.948 1_655 S
H1012 C1035 0.950 . S
H1013 C1037 0.950 . S
H1014 C1038 0.950 . S
H1015 C1039 0.951 1_655 S
H1016 C1041 0.951 1_655 S
H1017 C1043 0.950 . S
H1018 C1044 0.950 . S
H1019 C1046 0.950 . S
H1020 C1049 0.950 . S
H1021 C1050 0.950 . S
H1022 C1052 0.950 1_655 S
H1023 C1053 0.950 1_655 S
C1024 H1006 0.951 . S
C1024 C1025 1.366 . S
C1024 C1026 1.388 . S
C1025 C1024 1.366 . S
C1025 C1029 1.385 . S
C1026 H1007 0.951 . S
C1026 C1024 1.388 . S
C1026 C1027 1.366 . S
C1027 C1026 1.366 . S
C1027 C1028 1.414 . S
C1027 C1030 1.499 . S
C1028 H1008 0.950 1_455 S
C1028 C1027 1.414 . S
C1028 C1029 1.374 . S
C1029 H1009 0.950 1_455 S
C1029 C1025 1.385 . S
C1029 C1028 1.374 . S
C1030 C1027 1.499 . S
C1030 C1031 1.373 . S
C1030 C1032 1.389 . S
C1031 H1010 0.950 . S
C1031 C1030 1.373 . S
C1031 C1047 1.377 . S
C1032 C1030 1.389 . S
C1032 C1033 1.524 . S
C1032 C1046 1.377 . S
C1033 C1032 1.524 . S
C1033 C1034 1.399 . S
C1033 C1038 1.363 . S
C1034 H1011 0.948 1_455 S
C1034 C1033 1.399 . S
C1034 C1035 1.334 1_455 S
C1035 H1012 0.950 . S
C1035 C1034 1.334 1_655 S
C1035 C1036 1.287 1_655 S
C1036 C1035 1.287 1_455 S
C1036 C1037 1.524 . S
C1036 H1055 0.913 . S
C1037 H1013 0.950 . S
C1037 C1036 1.524 . S
C1037 C1038 1.415 . S
C1038 H1014 0.950 . S
C1038 C1033 1.363 . S
C1038 C1037 1.415 . S
C1039 H1015 0.951 1_455 S
C1039 C1040 1.366 . S
C1039 C1041 1.388 . S
C1040 C1039 1.366 . S
C1040 C1044 1.385 . S
C1041 H1016 0.951 1_455 S
C1041 C1039 1.388 . S
C1041 C1042 1.366 . S
C1042 C1041 1.366 . S
C1042 C1043 1.414 . S
C1042 C1045 1.499 . S
C1043 H1017 0.950 . S
C1043 C1042 1.414 . S
C1043 C1044 1.374 . S
C1044 H1018 0.950 . S
C1044 C1040 1.385 . S
C1044 C1043 1.374 . S
C1045 C1042 1.499 . S
C1045 C1046 1.373 . S
C1045 C1047 1.389 . S
C1046 H1019 0.950 . S
C1046 C1032 1.377 . S
C1046 C1045 1.373 . S
C1047 C1031 1.377 . S
C1047 C1045 1.389 . S
C1047 C1048 1.524 . S
C1048 C1047 1.524 . S
C1048 C1049 1.397 . S
C1048 C1053 1.363 . S
C1049 H1020 0.950 . S
C1049 C1048 1.397 . S
C1049 C1050 1.334 . S
C1050 H1021 0.950 . S
C1050 C1049 1.334 . S
C1050 C1051 1.287 . S
C1051 C1050 1.287 . S
C1051 C1052 1.524 . S
C1051 H1054 0.999 . S
C1052 H1022 0.950 1_455 S
C1052 C1051 1.524 . S
C1052 C1053 1.415 . S
C1053 H1023 0.950 1_455 S
C1053 C1048 1.363 . S
C1053 C1052 1.415 . S
H1054 C1051 0.999 . S
H1055 C1036 0.913 . S
H1056 C1074 0.951 . S
H1057 C1076 0.951 . S
H1058 C1078 0.950 . S
H1059 C1079 0.950 1_655 S
H1060 C1081 0.950 . S
H1061 C1084 0.950 . S
H1062 C1085 0.950 . S
H1063 C1087 0.950 . S
H1064 C1088 0.950 . S
H1065 C1089 0.951 . S
H1066 C1091 0.951 . S
H1067 C1093 0.950 . S
H1068 C1094 0.950 . S
H1069 C1096 0.950 . S
H1070 C1099 0.950 . S
H1071 C1100 0.950 . S
H1072 C1102 0.950 . S
H1073 C1103 0.950 . S
C1074 H1056 0.951 . S
C1074 C1075 1.366 . S
C1074 C1076 1.388 . S
C1075 C1074 1.366 . S
C1075 C1079 1.385 . S
C1076 H1057 0.951 . S
C1076 C1074 1.388 . S
C1076 C1077 1.366 . S
C1077 C1076 1.366 . S
C1077 C1078 1.414 . S
C1077 C1080 1.499 . S
C1078 H1058 0.950 . S
C1078 C1077 1.414 . S
C1078 C1079 1.374 . S
C1079 H1059 0.950 1_455 S
C1079 C1075 1.385 . S
C1079 C1078 1.374 . S
C1080 C1077 1.499 . S
C1080 C1081 1.373 . S
C1080 C1082 1.389 . S
C1081 H1060 0.950 . S
C1081 C1080 1.373 . S
C1081 C1097 1.377 . S
C1082 C1080 1.389 . S
C1082 C1083 1.524 . S
C1082 C1096 1.377 . S
C1083 C1082 1.524 . S
C1083 C1084 1.397 . S
C1083 C1088 1.363 . S
C1084 H1061 0.950 . S
C1084 C1083 1.397 . S
C1084 C1085 1.334 . S
C1085 H1062 0.950 . S
C1085 C1084 1.334 . S
C1085 C1086 1.287 . S
C1086 C1085 1.287 . S
C1086 C1087 1.524 . S
C1086 H1105 0.913 . S
C1087 H1063 0.950 . S
C1087 C1086 1.524 . S
C1087 C1088 1.415 . S
C1088 H1064 0.950 . S
C1088 C1083 1.363 . S
C1088 C1087 1.415 . S
C1089 H1065 0.951 . S
C1089 C1090 1.366 . S
C1089 C1091 1.388 . S
C1090 C1089 1.366 . S
C1090 C1094 1.385 . S
C1091 H1066 0.951 . S
C1091 C1089 1.388 . S
C1091 C1092 1.366 . S
C1092 C1091 1.366 . S
C1092 C1093 1.414 . S
C1092 C1095 1.499 . S
C1093 H1067 0.950 . S
C1093 C1092 1.414 . S
C1093 C1094 1.374 . S
C1094 H1068 0.950 . S
C1094 C1090 1.385 . S
C1094 C1093 1.374 . S
C1095 C1092 1.499 . S
C1095 C1096 1.373 . S
C1095 C1097 1.389 . S
C1096 H1069 0.950 . S
C1096 C1082 1.377 . S
C1096 C1095 1.373 . S
C1097 C1081 1.377 . S
C1097 C1095 1.389 . S
C1097 C1098 1.524 . S
C1098 C1097 1.524 . S
C1098 C1099 1.397 . S
C1098 C1103 1.363 1_455 S
C1099 H1070 0.950 . S
C1099 C1098 1.397 . S
C1099 C1100 1.334 . S
C1100 H1071 0.950 . S
C1100 C1099 1.334 . S
C1100 C1101 1.287 1_455 S
C1101 C1100 1.287 1_655 S
C1101 C1102 1.524 . S
C1101 H1104 0.999 . S
C1102 H1072 0.950 . S
C1102 C1101 1.524 . S
C1102 C1103 1.415 . S
C1103 H1073 0.950 . S
C1103 C1098 1.363 1_655 S
C1103 C1102 1.415 . S
H1104 C1101 0.999 . S
H1105 C1086 0.913 . S
H1106 C1124 0.951 . S
H1107 C1126 0.951 . S
H1108 C1128 0.970 . S
H1109 C1129 0.962 . S
H1110 C1131 0.950 . S
H1111 C1134 0.950 . S
H1112 C1135 0.950 . S
H1113 C1137 0.950 . S
H1114 C1138 0.950 . S
H1115 C1139 0.951 . S
H1116 C1141 0.951 . S
H1117 C1143 0.950 . S
H1118 C1144 0.950 . S
H1119 C1146 0.950 . S
H1120 C1149 0.950 . S
H1121 C1150 0.950 . S
H1122 C1152 0.950 . S
H1123 C1153 0.950 . S
C1124 H1106 0.951 . S
C1124 C1125 1.366 . S
C1124 C1126 1.388 . S
C1125 C1124 1.366 . S
C1125 C1129 1.385 . S
C1126 H1107 0.951 . S
C1126 C1124 1.388 . S
C1126 C1127 1.366 . S
C1127 C1126 1.366 . S
C1127 C1128 1.414 . S
C1127 C1130 1.499 . S
C1128 H1108 0.970 . S
C1128 C1127 1.414 . S
C1128 C1129 1.374 . S
C1129 H1109 0.962 . S
C1129 C1125 1.385 . S
C1129 C1128 1.374 . S
C1130 C1127 1.499 . S
C1130 C1131 1.373 1_655 S
C1130 C1132 1.389 . S
C1131 H1110 0.950 . S
C1131 C1130 1.373 1_455 S
C1131 C1147 1.377 . S
C1132 C1130 1.389 . S
C1132 C1133 1.524 . S
C1132 C1146 1.377 . S
C1133 C1132 1.524 . S
C1133 C1134 1.397 . S
C1133 C1138 1.363 . S
C1134 H1111 0.950 . S
C1134 C1133 1.397 . S
C1134 C1135 1.334 . S
C1135 H1112 0.950 . S
C1135 C1134 1.334 . S
C1135 C1136 1.287 . S
C1136 C1135 1.287 . S
C1136 C1137 1.524 . S
C1136 H1155 0.913 . S
C1137 H1113 0.950 . S
C1137 C1136 1.524 . S
C1137 C1138 1.415 . S
C1138 H1114 0.950 . S
C1138 C1133 1.363 . S
C1138 C1137 1.415 . S
C1139 H1115 0.951 . S
C1139 C1140 1.366 . S
C1139 C1141 1.388 . S
C1140 C1139 1.366 . S
C1140 C1144 1.385 . S
C1141 H1116 0.951 . S
C1141 C1139 1.388 . S
C1141 C1142 1.366 . S
C1142 C1141 1.366 . S
C1142 C1143 1.414 . S
C1142 C1145 1.499 . S
C1143 H1117 0.950 . S
C1143 C1142 1.414 . S
C1143 C1144 1.374 . S
C1144 H1118 0.950 . S
C1144 C1140 1.385 . S
C1144 C1143 1.374 . S
C1145 C1142 1.499 . S
C1145 C1146 1.373 . S
C1145 C1147 1.389 1_655 S
C1146 H1119 0.950 . S
C1146 C1132 1.377 . S
C1146 C1145 1.373 . S
C1147 C1131 1.377 . S
C1147 C1145 1.389 1_455 S
C1147 C1148 1.524 . S
C1148 C1147 1.524 . S
C1148 C1149 1.397 . S
C1148 C1153 1.363 . S
C1149 H1120 0.950 . S
C1149 C1148 1.397 . S
C1149 C1150 1.334 . S
C1150 H1121 0.950 . S
C1150 C1149 1.334 . S
C1150 C1151 1.287 . S
C1151 C1150 1.287 . S
C1151 C1152 1.524 . S
C1151 H1154 0.999 . S
C1152 H1122 0.950 . S
C1152 C1151 1.524 . S
C1152 C1153 1.415 . S
C1153 H1123 0.950 . S
C1153 C1148 1.363 . S
C1153 C1152 1.415 . S
H1154 C1151 0.999 . S
H1155 C1136 0.913 . S
H1156 C1174 0.951 . S
H1157 C1176 0.951 . S
H1158 C1178 0.950 . S
H1159 C1179 0.950 . S
H1160 C1181 0.950 . S
H1161 C1184 0.950 . S
H1162 C1185 0.950 . S
H1163 C1187 0.950 . S
H1164 C1188 0.950 . S
H1165 C1189 0.951 . S
H1166 C1191 0.951 . S
H1167 C1193 0.950 . S
H1168 C1194 0.950 . S
H1169 C1196 0.950 . S
H1170 C1199 0.950 . S
H1171 C1200 0.978 . S
H1172 C1202 0.950 . S
H1173 C1203 0.950 . S
C1174 H1156 0.951 . S
C1174 C1175 1.366 . S
C1174 C1176 1.388 . S
C1175 C1174 1.366 . S
C1175 C1179 1.385 . S
C1176 H1157 0.951 . S
C1176 C1174 1.388 . S
C1176 C1177 1.366 . S
C1177 C1176 1.366 . S
C1177 C1178 1.414 . S
C1177 C1180 1.499 . S
C1178 H1158 0.950 . S
C1178 C1177 1.414 . S
C1178 C1179 1.374 . S
C1179 H1159 0.950 . S
C1179 C1175 1.385 . S
C1179 C1178 1.374 . S
C1180 C1177 1.499 . S
C1180 C1181 1.373 . S
C1180 C1182 1.389 . S
C1181 H1160 0.950 . S
C1181 C1180 1.373 . S
C1181 C1197 1.377 . S
C1182 C1180 1.389 . S
C1182 C1183 1.524 . S
C1182 C1196 1.377 . S
C1183 C1182 1.524 . S
C1183 C1184 1.397 . S
C1183 C1188 1.363 . S
C1184 H1161 0.950 . S
C1184 C1183 1.397 . S
C1184 C1185 1.334 . S
C1185 H1162 0.950 . S
C1185 C1184 1.334 . S
C1185 C1186 1.287 . S
C1186 C1185 1.287 . S
C1186 C1187 1.524 . S
C1186 H1205 0.913 . S
C1187 H1163 0.950 . S
C1187 C1186 1.524 . S
C1187 C1188 1.415 . S
C1188 H1164 0.950 . S
C1188 C1183 1.363 . S
C1188 C1187 1.415 . S
C1189 H1165 0.951 . S
C1189 C1190 1.366 . S
C1189 C1191 1.388 . S
C1190 C1189 1.366 . S
C1190 C1194 1.385 . S
C1191 H1166 0.951 . S
C1191 C1189 1.388 . S
C1191 C1192 1.366 . S
C1192 C1191 1.366 . S
C1192 C1193 1.414 . S
C1192 C1195 1.499 . S
C1193 H1167 0.950 . S
C1193 C1192 1.414 . S
C1193 C1194 1.374 . S
C1194 H1168 0.950 . S
C1194 C1190 1.385 . S
C1194 C1193 1.374 . S
C1195 C1192 1.499 . S
C1195 C1196 1.373 . S
C1195 C1197 1.389 . S
C1196 H1169 0.950 . S
C1196 C1182 1.377 . S
C1196 C1195 1.373 . S
C1197 C1181 1.377 . S
C1197 C1195 1.389 . S
C1197 C1198 1.524 . S
C1198 C1197 1.524 . S
C1198 C1199 1.397 . S
C1198 C1203 1.363 . S
C1199 H1170 0.950 . S
C1199 C1198 1.397 . S
C1199 C1200 1.301 1_545 S
C1200 H1171 0.978 . S
C1200 C1199 1.301 1_565 S
C1200 C1201 1.293 . S
C1201 C1200 1.293 . S
C1201 C1202 1.524 1_565 S
C1201 H1204 0.999 . S
C1202 H1172 0.950 . S
C1202 C1201 1.524 1_545 S
C1202 C1203 1.415 . S
C1203 H1173 0.950 . S
C1203 C1198 1.363 . S
C1203 C1202 1.415 . S
H1204 C1201 0.999 . S
H1205 C1186 0.913 . S
H1206 C1224 0.951 . S
H1207 C1226 0.951 . S
H1208 C1228 0.950 . S
H1209 C1229 0.950 . S
H1210 C1231 0.950 . S
H1211 C1234 0.950 . S
H1212 C1235 0.950 . S
H1213 C1237 0.950 . S
H1214 C1238 0.950 . S
H1215 C1239 0.951 . S
H1216 C1241 0.951 . S
H1217 C1243 0.950 . S
H1218 C1244 0.950 . S
H1219 C1246 0.950 . S
H1220 C1249 0.950 . S
H1221 C1250 0.950 . S
H1222 C1252 0.950 . S
H1223 C1253 0.950 . S
C1224 H1206 0.951 . S
C1224 C1225 1.366 . S
C1224 C1226 1.388 . S
C1225 C1224 1.366 . S
C1225 C1229 1.385 . S
C1226 H1207 0.951 . S
C1226 C1224 1.388 . S
C1226 C1227 1.366 . S
C1227 C1226 1.366 . S
C1227 C1228 1.414 . S
C1227 C1230 1.499 . S
C1228 H1208 0.950 . S
C1228 C1227 1.414 . S
C1228 C1229 1.374 . S
C1229 H1209 0.950 . S
C1229 C1225 1.385 . S
C1229 C1228 1.374 . S
C1230 C1227 1.499 . S
C1230 C1231 1.373 . S
C1230 C1232 1.389 . S
C1231 H1210 0.950 . S
C1231 C1230 1.373 . S
C1231 C1247 1.377 . S
C1232 C1230 1.389 . S
C1232 C1233 1.524 . S
C1232 C1246 1.377 . S
C1233 C1232 1.524 . S
C1233 C1234 1.397 . S
C1233 C1238 1.363 . S
C1234 H1211 0.950 . S
C1234 C1233 1.397 . S
C1234 C1235 1.334 . S
C1235 H1212 0.950 . S
C1235 C1234 1.334 . S
C1235 C1236 1.287 . S
C1236 C1235 1.287 . S
C1236 C1237 1.524 . S
C1236 H1255 0.913 . S
C1237 H1213 0.950 . S
C1237 C1236 1.524 . S
C1237 C1238 1.415 . S
C1238 H1214 0.950 . S
C1238 C1233 1.363 . S
C1238 C1237 1.415 . S
C1239 H1215 0.951 . S
C1239 C1240 1.366 . S
C1239 C1241 1.388 . S
C1240 C1239 1.366 . S
C1240 C1244 1.385 . S
C1241 H1216 0.951 . S
C1241 C1239 1.388 . S
C1241 C1242 1.366 . S
C1242 C1241 1.366 . S
C1242 C1243 1.414 . S
C1242 C1245 1.499 . S
C1243 H1217 0.950 . S
C1243 C1242 1.414 . S
C1243 C1244 1.374 . S
C1244 H1218 0.950 . S
C1244 C1240 1.385 . S
C1244 C1243 1.374 . S
C1245 C1242 1.499 . S
C1245 C1246 1.373 . S
C1245 C1247 1.389 . S
C1246 H1219 0.950 . S
C1246 C1232 1.377 . S
C1246 C1245 1.373 . S
C1247 C1231 1.377 . S
C1247 C1245 1.389 . S
C1247 C1248 1.524 . S
C1248 C1247 1.524 . S
C1248 C1249 1.397 . S
C1248 C1253 1.363 . S
C1249 H1220 0.950 . S
C1249 C1248 1.397 . S
C1249 C1250 1.334 . S
C1250 H1221 0.950 . S
C1250 C1249 1.334 . S
C1250 C1251 1.287 . S
C1251 C1250 1.287 . S
C1251 C1252 1.524 . S
C1251 H1254 0.999 . S
C1252 H1222 0.950 . S
C1252 C1251 1.524 . S
C1252 C1253 1.415 . S
C1253 H1223 0.950 . S
C1253 C1248 1.363 . S
C1253 C1252 1.415 . S
H1254 C1251 0.999 . S
H1255 C1236 0.913 . S
H1256 C1274 0.951 . S
H1257 C1276 0.951 . S
H1258 C1278 0.950 . S
H1259 C1279 0.950 . S
H1260 C1281 0.950 . S
H1261 C1284 0.950 . S
H1262 C1285 0.950 . S
H1263 C1287 0.950 . S
H1264 C1288 0.950 . S
H1265 C1289 0.951 . S
H1266 C1291 0.951 . S
H1267 C1293 0.950 . S
H1268 C1294 0.950 . S
H1269 C1296 0.950 . S
H1270 C1299 0.950 . S
H1271 C1300 0.950 . S
H1272 C1302 0.937 1_565 S
H1273 C1303 0.950 1_565 S
C1274 H1256 0.951 . S
C1274 C1275 1.366 . S
C1274 C1276 1.388 . S
C1275 C1274 1.366 . S
C1275 C1279 1.385 1_545 S
C1276 H1257 0.951 . S
C1276 C1274 1.388 . S
C1276 C1277 1.366 . S
C1277 C1276 1.366 . S
C1277 C1278 1.414 1_545 S
C1277 C1280 1.499 . S
C1278 H1258 0.950 . S
C1278 C1277 1.414 1_565 S
C1278 C1279 1.374 . S
C1279 H1259 0.950 . S
C1279 C1275 1.385 1_565 S
C1279 C1278 1.374 . S
C1280 C1277 1.499 . S
C1280 C1281 1.373 . S
C1280 C1282 1.389 . S
C1281 H1260 0.950 . S
C1281 C1280 1.373 . S
C1281 C1297 1.377 . S
C1282 C1280 1.389 . S
C1282 C1283 1.524 . S
C1282 C1296 1.377 . S
C1283 C1282 1.524 . S
C1283 C1284 1.397 1_545 S
C1283 C1288 1.363 . S
C1284 H1261 0.950 . S
C1284 C1283 1.397 1_565 S
C1284 C1285 1.334 . S
C1285 H1262 0.950 . S
C1285 C1284 1.334 . S
C1285 C1286 1.287 . S
C1286 C1285 1.287 . S
C1286 C1287 1.524 1_565 S
C1286 H1305 0.913 . S
C1287 H1263 0.950 . S
C1287 C1286 1.524 1_545 S
C1287 C1288 1.415 . S
C1288 H1264 0.950 . S
C1288 C1283 1.363 . S
C1288 C1287 1.415 . S
C1289 H1265 0.951 . S
C1289 C1290 1.366 1_565 S
C1289 C1291 1.388 . S
C1290 C1289 1.366 1_545 S
C1290 C1294 1.385 . S
C1291 H1266 0.951 . S
C1291 C1289 1.388 . S
C1291 C1292 1.366 1_565 S
C1292 C1291 1.366 1_545 S
C1292 C1293 1.414 . S
C1292 C1295 1.499 . S
C1293 H1267 0.950 . S
C1293 C1292 1.414 . S
C1293 C1294 1.374 . S
C1294 H1268 0.950 . S
C1294 C1290 1.385 . S
C1294 C1293 1.374 . S
C1295 C1292 1.499 . S
C1295 C1296 1.373 . S
C1295 C1297 1.389 . S
C1296 H1269 0.950 . S
C1296 C1282 1.377 . S
C1296 C1295 1.373 . S
C1297 C1281 1.377 . S
C1297 C1295 1.389 . S
C1297 C1298 1.524 . S
C1298 C1297 1.524 . S
C1298 C1299 1.397 . S
C1298 C1303 1.363 . S
C1299 H1270 0.950 . S
C1299 C1298 1.397 . S
C1299 C1300 1.334 . S
C1300 H1271 0.950 . S
C1300 C1299 1.334 . S
C1300 C1301 1.287 . S
C1301 C1300 1.287 . S
C1301 C1302 1.524 . S
C1301 H1304 0.999 . S
C1302 H1272 0.937 1_545 S
C1302 C1301 1.524 . S
C1302 C1303 1.415 . S
C1303 H1273 0.950 1_545 S
C1303 C1298 1.363 . S
C1303 C1302 1.415 . S
H1304 C1301 0.999 . S
H1305 C1286 0.913 . S
H1306 C1324 0.951 . S
H1307 C1326 0.951 . S
H1308 C1328 0.950 . S
H1309 C1329 0.950 . S
H1310 C1331 0.950 . S
H1311 C1334 0.950 . S
H1312 C1335 0.950 . S
H1313 C1337 0.950 . S
H1314 C1338 0.950 . S
H1315 C1339 0.951 . S
H1316 C1341 0.951 . S
H1317 C1343 0.950 . S
H1318 C1344 0.950 . S
H1319 C1346 0.950 . S
H1320 C1349 0.950 . S
H1321 C1350 0.950 . S
H1322 C1352 0.950 . S
H1323 C1353 0.950 . S
C1324 H1306 0.951 . S
C1324 C1325 1.366 . S
C1324 C1326 1.388 . S
C1325 C1324 1.366 . S
C1325 C1329 1.385 . S
C1326 H1307 0.951 . S
C1326 C1324 1.388 . S
C1326 C1327 1.366 . S
C1327 C1326 1.366 . S
C1327 C1328 1.414 . S
C1327 C1330 1.499 . S
C1328 H1308 0.950 . S
C1328 C1327 1.414 . S
C1328 C1329 1.374 . S
C1329 H1309 0.950 . S
C1329 C1325 1.385 . S
C1329 C1328 1.374 . S
C1330 C1327 1.499 . S
C1330 C1331 1.373 . S
C1330 C1332 1.389 . S
C1331 H1310 0.950 . S
C1331 C1330 1.373 . S
C1331 C1347 1.377 . S
C1332 C1330 1.389 . S
C1332 C1333 1.524 . S
C1332 C1346 1.377 . S
C1333 C1332 1.524 . S
C1333 C1334 1.397 . S
C1333 C1338 1.363 . S
C1334 H1311 0.950 . S
C1334 C1333 1.397 . S
C1334 C1335 1.334 . S
C1335 H1312 0.950 . S
C1335 C1334 1.334 . S
C1335 C1336 1.287 . S
C1336 C1335 1.287 . S
C1336 C1337 1.524 . S
C1336 H1355 0.913 . S
C1337 H1313 0.950 . S
C1337 C1336 1.524 . S
C1337 C1338 1.415 . S
C1338 H1314 0.950 . S
C1338 C1333 1.363 . S
C1338 C1337 1.415 . S
C1339 H1315 0.951 . S
C1339 C1340 1.366 . S
C1339 C1341 1.388 . S
C1340 C1339 1.366 . S
C1340 C1344 1.385 . S
C1341 H1316 0.951 . S
C1341 C1339 1.388 . S
C1341 C1342 1.366 . S
C1342 C1341 1.366 . S
C1342 C1343 1.414 . S
C1342 C1345 1.499 . S
C1343 H1317 0.950 . S
C1343 C1342 1.414 . S
C1343 C1344 1.374 . S
C1344 H1318 0.950 . S
C1344 C1340 1.385 . S
C1344 C1343 1.374 . S
C1345 C1342 1.499 . S
C1345 C1346 1.373 . S
C1345 C1347 1.389 . S
C1346 H1319 0.950 . S
C1346 C1332 1.377 . S
C1346 C1345 1.373 . S
C1347 C1331 1.377 . S
C1347 C1345 1.389 . S
C1347 C1348 1.524 . S
C1348 C1347 1.524 . S
C1348 C1349 1.397 . S
C1348 C1353 1.363 . S
C1349 H1320 0.950 . S
C1349 C1348 1.397 . S
C1349 C1350 1.334 . S
C1350 H1321 0.950 . S
C1350 C1349 1.334 . S
C1350 C1351 1.287 . S
C1351 C1350 1.287 . S
C1351 C1352 1.524 . S
C1351 H1354 0.999 . S
C1352 H1322 0.950 . S
C1352 C1351 1.524 . S
C1352 C1353 1.415 . S
C1353 H1323 0.950 . S
C1353 C1348 1.363 . S
C1353 C1352 1.415 . S
H1354 C1351 0.999 . S
H1355 C1336 0.913 . S
H1356 C1374 0.951 . S
H1357 C1376 0.951 . S
H1358 C1378 0.950 1_556 S
H1359 C1379 0.954 . S
H1360 C1381 0.950 1_556 S
H1361 C1384 0.950 . S
H1362 C1385 0.950 . S
H1363 C1387 0.950 . S
H1364 C1388 0.950 . S
H1365 C1389 0.949 1_556 S
H1366 C1391 0.951 1_556 S
H1367 C1393 0.950 . S
H1368 C1394 0.950 . S
H1369 C1396 0.950 . S
H1370 C1399 0.966 . S
H1371 C1400 0.950 . S
H1372 C1402 0.950 . S
H1373 C1403 0.950 . S
C1374 H1356 0.951 . S
C1374 C1375 1.366 . S
C1374 C1376 1.388 . S
C1375 C1374 1.366 . S
C1375 C1379 1.381 1_554 S
C1376 H1357 0.951 . S
C1376 C1374 1.388 . S
C1376 C1377 1.366 . S
C1377 C1376 1.366 . S
C1377 C1378 1.414 . S
C1377 C1380 1.499 . S
C1378 H1358 0.950 1_554 S
C1378 C1377 1.414 . S
C1378 C1379 1.374 1_554 S
C1379 H1359 0.954 . S
C1379 C1375 1.381 1_556 S
C1379 C1378 1.374 1_556 S
C1380 C1377 1.499 . S
C1380 C1381 1.373 . S
C1380 C1382 1.389 . S
C1381 H1360 0.950 1_554 S
C1381 C1380 1.373 . S
C1381 C1397 1.377 . S
C1382 C1380 1.389 . S
C1382 C1383 1.524 . S
C1382 C1396 1.377 . S
C1383 C1382 1.524 . S
C1383 C1384 1.397 . S
C1383 C1388 1.363 . S
C1384 H1361 0.950 . S
C1384 C1383 1.397 . S
C1384 C1385 1.334 . S
C1385 H1362 0.950 . S
C1385 C1384 1.334 . S
C1385 C1386 1.287 . S
C1386 C1385 1.287 . S
C1386 C1387 1.524 . S
C1386 H1405 0.913 . S
C1387 H1363 0.950 . S
C1387 C1386 1.524 . S
C1387 C1388 1.415 . S
C1388 H1364 0.950 . S
C1388 C1383 1.363 . S
C1388 C1387 1.415 . S
C1389 H1365 0.949 1_554 S
C1389 C1390 1.366 . S
C1389 C1391 1.388 . S
C1390 C1389 1.366 . S
C1390 C1394 1.385 . S
C1391 H1366 0.951 1_554 S
C1391 C1389 1.388 . S
C1391 C1392 1.366 . S
C1392 C1391 1.366 . S
C1392 C1393 1.414 . S
C1392 C1395 1.499 . S
C1393 H1367 0.950 . S
C1393 C1392 1.414 . S
C1393 C1394 1.374 . S
C1394 H1368 0.950 . S
C1394 C1390 1.385 . S
C1394 C1393 1.374 . S
C1395 C1392 1.499 . S
C1395 C1396 1.373 . S
C1395 C1397 1.389 . S
C1396 H1369 0.950 . S
C1396 C1382 1.377 . S
C1396 C1395 1.373 . S
C1397 C1381 1.377 . S
C1397 C1395 1.389 . S
C1397 C1398 1.524 1_554 S
C1398 C1397 1.524 1_556 S
C1398 C1399 1.397 . S
C1398 C1403 1.363 . S
C1399 H1370 0.966 . S
C1399 C1398 1.397 . S
C1399 C1400 1.334 . S
C1400 H1371 0.950 . S
C1400 C1399 1.334 . S
C1400 C1401 1.287 . S
C1401 C1400 1.287 . S
C1401 C1402 1.524 . S
C1401 H1404 0.999 . S
C1402 H1372 0.950 . S
C1402 C1401 1.524 . S
C1402 C1403 1.415 . S
C1403 H1373 0.950 . S
C1403 C1398 1.363 . S
C1403 C1402 1.415 . S
H1404 C1401 0.999 . S
H1405 C1386 0.913 . S
H1406 C1424 0.951 . S
H1407 C1426 0.951 . S
H1408 C1428 0.950 . S
H1409 C1429 0.950 . S
H1410 C1431 0.950 . S
H1411 C1434 0.950 . S
H1412 C1435 0.950 . S
H1413 C1437 0.950 . S
H1414 C1438 0.950 . S
H1415 C1439 0.951 . S
H1416 C1441 0.951 . S
H1417 C1443 0.950 . S
H1418 C1444 0.950 . S
H1419 C1446 0.950 . S
H1420 C1449 0.950 . S
H1421 C1450 0.950 . S
H1422 C1452 0.950 . S
H1423 C1453 0.950 . S
C1424 H1406 0.951 . S
C1424 C1425 1.366 . S
C1424 C1426 1.388 . S
C1425 C1424 1.366 . S
C1425 C1429 1.385 . S
C1426 H1407 0.951 . S
C1426 C1424 1.388 . S
C1426 C1427 1.366 . S
C1427 C1426 1.366 . S
C1427 C1428 1.414 . S
C1427 C1430 1.499 . S
C1428 H1408 0.950 . S
C1428 C1427 1.414 . S
C1428 C1429 1.374 . S
C1429 H1409 0.950 . S
C1429 C1425 1.385 . S
C1429 C1428 1.374 . S
C1430 C1427 1.499 . S
C1430 C1431 1.373 . S
C1430 C1432 1.389 . S
C1431 H1410 0.950 . S
C1431 C1430 1.373 . S
C1431 C1447 1.377 . S
C1432 C1430 1.389 . S
C1432 C1433 1.524 . S
C1432 C1446 1.377 . S
C1433 C1432 1.524 . S
C1433 C1434 1.397 . S
C1433 C1438 1.363 . S
C1434 H1411 0.950 . S
C1434 C1433 1.397 . S
C1434 C1435 1.334 . S
C1435 H1412 0.950 . S
C1435 C1434 1.334 . S
C1435 C1436 1.287 . S
C1436 C1435 1.287 . S
C1436 C1437 1.524 . S
C1436 H1455 0.913 . S
C1437 H1413 0.950 . S
C1437 C1436 1.524 . S
C1437 C1438 1.415 . S
C1438 H1414 0.950 . S
C1438 C1433 1.363 . S
C1438 C1437 1.415 . S
C1439 H1415 0.951 . S
C1439 C1440 1.366 . S
C1439 C1441 1.388 . S
C1440 C1439 1.366 . S
C1440 C1444 1.385 . S
C1441 H1416 0.951 . S
C1441 C1439 1.388 . S
C1441 C1442 1.366 . S
C1442 C1441 1.366 . S
C1442 C1443 1.414 . S
C1442 C1445 1.499 . S
C1443 H1417 0.950 . S
C1443 C1442 1.414 . S
C1443 C1444 1.374 . S
C1444 H1418 0.950 . S
C1444 C1440 1.385 . S
C1444 C1443 1.374 . S
C1445 C1442 1.499 . S
C1445 C1446 1.373 . S
C1445 C1447 1.389 . S
C1446 H1419 0.950 . S
C1446 C1432 1.377 . S
C1446 C1445 1.373 . S
C1447 C1431 1.377 . S
C1447 C1445 1.389 . S
C1447 C1448 1.524 . S
C1448 C1447 1.524 . S
C1448 C1449 1.397 . S
C1448 C1453 1.363 . S
C1449 H1420 0.950 . S
C1449 C1448 1.397 . S
C1449 C1450 1.334 . S
C1450 H1421 0.950 . S
C1450 C1449 1.334 . S
C1450 C1451 1.287 . S
C1451 C1450 1.287 . S
C1451 C1452 1.524 . S
C1451 H1454 0.999 . S
C1452 H1422 0.950 . S
C1452 C1451 1.524 . S
C1452 C1453 1.415 . S
C1453 H1423 0.950 . S
C1453 C1448 1.363 . S
C1453 C1452 1.415 . S
H1454 C1451 0.999 . S
H1455 C1436 0.913 . S
H1456 C1474 0.951 . S
H1457 C1476 0.951 . S
H1458 C1478 0.950 . S
H1459 C1479 0.950 . S
H1460 C1481 0.950 . S
H1461 C1484 0.950 . S
H1462 C1485 0.950 . S
H1463 C1487 0.950 . S
H1464 C1488 0.950 . S
H1465 C1489 0.951 . S
H1466 C1491 0.951 . S
H1467 C1493 0.911 1_655 S
H1468 C1494 0.950 . S
H1469 C1496 0.950 . S
H1470 C1499 0.950 . S
H1471 C1500 0.950 . S
H1472 C1502 0.950 . S
H1473 C1503 0.950 . S
C1474 H1456 0.951 . S
C1474 C1475 1.366 . S
C1474 C1476 1.388 . S
C1475 C1474 1.366 . S
C1475 C1479 1.385 . S
C1476 H1457 0.951 . S
C1476 C1474 1.388 . S
C1476 C1477 1.366 . S
C1477 C1476 1.366 . S
C1477 C1478 1.414 . S
C1477 C1480 1.499 . S
C1478 H1458 0.950 . S
C1478 C1477 1.414 . S
C1478 C1479 1.374 . S
C1479 H1459 0.950 . S
C1479 C1475 1.385 . S
C1479 C1478 1.374 . S
C1480 C1477 1.499 . S
C1480 C1481 1.373 . S
C1480 C1482 1.389 . S
C1481 H1460 0.950 . S
C1481 C1480 1.373 . S
C1481 C1497 1.377 . S
C1482 C1480 1.389 . S
C1482 C1483 1.524 . S
C1482 C1496 1.377 . S
C1483 C1482 1.524 . S
C1483 C1484 1.397 . S
C1483 C1488 1.363 . S
C1484 H1461 0.950 . S
C1484 C1483 1.397 . S
C1484 C1485 1.334 . S
C1485 H1462 0.950 . S
C1485 C1484 1.334 . S
C1485 C1486 1.287 . S
C1486 C1485 1.287 . S
C1486 C1487 1.524 . S
C1486 H1505 0.913 . S
C1487 H1463 0.950 . S
C1487 C1486 1.524 . S
C1487 C1488 1.415 . S
C1488 H1464 0.950 . S
C1488 C1483 1.363 . S
C1488 C1487 1.415 . S
C1489 H1465 0.951 . S
C1489 C1490 1.366 . S
C1489 C1491 1.388 . S
C1490 C1489 1.366 . S
C1490 C1494 1.385 . S
C1491 H1466 0.951 . S
C1491 C1489 1.388 . S
C1491 C1492 1.409 . S
C1492 C1491 1.409 . S
C1492 C1493 1.414 . S
C1492 C1495 1.455 1_455 S
C1493 H1467 0.911 1_455 S
C1493 C1492 1.414 . S
C1493 C1494 1.415 . S
C1494 H1468 0.950 . S
C1494 C1490 1.385 . S
C1494 C1493 1.415 . S
C1495 C1492 1.455 1_655 S
C1495 C1496 1.373 . S
C1495 C1497 1.389 . S
C1496 H1469 0.950 . S
C1496 C1482 1.377 . S
C1496 C1495 1.373 . S
C1497 C1481 1.377 . S
C1497 C1495 1.389 . S
C1497 C1498 1.524 . S
C1498 C1497 1.524 . S
C1498 C1499 1.397 . S
C1498 C1503 1.363 . S
C1499 H1470 0.950 . S
C1499 C1498 1.397 . S
C1499 C1500 1.334 1_655 S
C1500 H1471 0.950 . S
C1500 C1499 1.334 1_455 S
C1500 C1501 1.287 . S
C1501 C1500 1.287 . S
C1501 C1502 1.524 . S
C1501 H1504 0.999 . S
C1502 H1472 0.950 . S
C1502 C1501 1.524 . S
C1502 C1503 1.415 1_455 S
C1503 H1473 0.950 . S
C1503 C1498 1.363 . S
C1503 C1502 1.415 1_655 S
H1504 C1501 0.999 . S
H1505 C1486 0.913 . S
H1506 C1524 0.951 . S
H1507 C1526 0.951 . S
H1508 C1528 0.950 . S
H1509 C1529 0.950 . S
H1510 C1531 0.950 . S
H1511 C1534 0.950 . S
H1512 C1535 0.950 . S
H1513 C1537 0.950 . S
H1514 C1538 0.950 . S
H1515 C1539 0.951 . S
H1516 C1541 0.951 . S
H1517 C1543 0.950 . S
H1518 C1544 0.950 . S
H1519 C1546 0.950 . S
H1520 C1549 0.950 . S
H1521 C1550 0.950 . S
H1522 C1552 0.950 . S
H1523 C1553 0.950 . S
C1524 H1506 0.951 . S
C1524 C1525 1.366 . S
C1524 C1526 1.388 . S
C1525 C1524 1.366 . S
C1525 C1529 1.385 . S
C1526 H1507 0.951 . S
C1526 C1524 1.388 . S
C1526 C1527 1.366 . S
C1527 C1526 1.366 . S
C1527 C1528 1.414 . S
C1527 C1530 1.499 . S
C1528 H1508 0.950 . S
C1528 C1527 1.414 . S
C1528 C1529 1.374 . S
C1529 H1509 0.950 . S
C1529 C1525 1.385 . S
C1529 C1528 1.374 . S
C1530 C1527 1.499 . S
C1530 C1531 1.373 . S
C1530 C1532 1.389 . S
C1531 H1510 0.950 . S
C1531 C1530 1.373 . S
C1531 C1547 1.377 . S
C1532 C1530 1.389 . S
C1532 C1533 1.524 . S
C1532 C1546 1.377 . S
C1533 C1532 1.524 . S
C1533 C1534 1.397 . S
C1533 C1538 1.363 . S
C1534 H1511 0.950 . S
C1534 C1533 1.397 . S
C1534 C1535 1.334 . S
C1535 H1512 0.950 . S
C1535 C1534 1.334 . S
C1535 C1536 1.287 . S
C1536 C1535 1.287 . S
C1536 C1537 1.524 . S
C1536 H1555 0.913 . S
C1537 H1513 0.950 . S
C1537 C1536 1.524 . S
C1537 C1538 1.415 . S
C1538 H1514 0.950 . S
C1538 C1533 1.363 . S
C1538 C1537 1.415 . S
C1539 H1515 0.951 . S
C1539 C1540 1.366 . S
C1539 C1541 1.388 . S
C1540 C1539 1.366 . S
C1540 C1544 1.385 . S
C1541 H1516 0.951 . S
C1541 C1539 1.388 . S
C1541 C1542 1.366 . S
C1542 C1541 1.366 . S
C1542 C1543 1.414 . S
C1542 C1545 1.499 . S
C1543 H1517 0.950 . S
C1543 C1542 1.414 . S
C1543 C1544 1.374 . S
C1544 H1518 0.950 . S
C1544 C1540 1.385 . S
C1544 C1543 1.374 . S
C1545 C1542 1.499 . S
C1545 C1546 1.373 . S
C1545 C1547 1.389 . S
C1546 H1519 0.950 . S
C1546 C1532 1.377 . S
C1546 C1545 1.373 . S
C1547 C1531 1.377 . S
C1547 C1545 1.389 . S
C1547 C1548 1.524 . S
C1548 C1547 1.524 . S
C1548 C1549 1.397 . S
C1548 C1553 1.363 . S
C1549 H1520 0.950 . S
C1549 C1548 1.397 . S
C1549 C1550 1.334 . S
C1550 H1521 0.950 . S
C1550 C1549 1.334 . S
C1550 C1551 1.287 . S
C1551 C1550 1.287 . S
C1551 C1552 1.524 . S
C1551 H1554 0.999 . S
C1552 H1522 0.950 . S
C1552 C1551 1.524 . S
C1552 C1553 1.415 . S
C1553 H1523 0.950 . S
C1553 C1548 1.363 . S
C1553 C1552 1.415 . S
H1554 C1551 0.999 . S
H1555 C1536 0.913 . S
H1556 C1574 0.951 . S
H1557 C1576 0.951 . S
H1558 C1578 0.950 . S
H1559 C1579 0.950 . S
H1560 C1581 0.950 . S
H1561 C1584 0.950 . S
H1562 C1585 0.950 . S
H1563 C1587 0.950 . S
H1564 C1588 0.950 . S
H1565 C1589 0.951 . S
H1566 C1591 0.951 . S
H1567 C1593 0.950 . S
H1568 C1594 0.950 . S
H1569 C1596 0.950 . S
H1570 C1599 0.950 . S
H1571 C1600 0.950 . S
H1572 C1602 0.950 . S
H1573 C1603 0.950 . S
C1574 H1556 0.951 . S
C1574 C1575 1.366 . S
C1574 C1576 1.388 . S
C1575 C1574 1.366 . S
C1575 C1579 1.385 . S
C1576 H1557 0.951 . S
C1576 C1574 1.388 . S
C1576 C1577 1.366 . S
C1577 C1576 1.366 . S
C1577 C1578 1.414 . S
C1577 C1580 1.499 . S
C1578 H1558 0.950 . S
C1578 C1577 1.414 . S
C1578 C1579 1.374 . S
C1579 H1559 0.950 . S
C1579 C1575 1.385 . S
C1579 C1578 1.374 . S
C1580 C1577 1.499 . S
C1580 C1581 1.373 . S
C1580 C1582 1.389 . S
C1581 H1560 0.950 . S
C1581 C1580 1.373 . S
C1581 C1597 1.377 . S
C1582 C1580 1.389 . S
C1582 C1583 1.524 . S
C1582 C1596 1.377 . S
C1583 C1582 1.524 . S
C1583 C1584 1.397 . S
C1583 C1588 1.363 . S
C1584 H1561 0.950 . S
C1584 C1583 1.397 . S
C1584 C1585 1.334 . S
C1585 H1562 0.950 . S
C1585 C1584 1.334 . S
C1585 C1586 1.287 . S
C1586 C1585 1.287 . S
C1586 C1587 1.524 . S
C1586 H1605 0.913 . S
C1587 H1563 0.950 . S
C1587 C1586 1.524 . S
C1587 C1588 1.415 . S
C1588 H1564 0.950 . S
C1588 C1583 1.363 . S
C1588 C1587 1.415 . S
C1589 H1565 0.951 . S
C1589 C1590 1.366 . S
C1589 C1591 1.388 . S
C1590 C1589 1.366 . S
C1590 C1594 1.385 . S
C1591 H1566 0.951 . S
C1591 C1589 1.388 . S
C1591 C1592 1.366 . S
C1592 C1591 1.366 . S
C1592 C1593 1.414 . S
C1592 C1595 1.499 . S
C1593 H1567 0.950 . S
C1593 C1592 1.414 . S
C1593 C1594 1.374 . S
C1594 H1568 0.950 . S
C1594 C1590 1.385 . S
C1594 C1593 1.374 . S
C1595 C1592 1.499 . S
C1595 C1596 1.373 . S
C1595 C1597 1.389 . S
C1596 H1569 0.950 . S
C1596 C1582 1.377 . S
C1596 C1595 1.373 . S
C1597 C1581 1.377 . S
C1597 C1595 1.389 . S
C1597 C1598 1.524 . S
C1598 C1597 1.524 . S
C1598 C1599 1.397 . S
C1598 C1603 1.363 . S
C1599 H1570 0.950 . S
C1599 C1598 1.397 . S
C1599 C1600 1.334 . S
C1600 H1571 0.950 . S
C1600 C1599 1.334 . S
C1600 C1601 1.287 . S
C1601 C1600 1.287 . S
C1601 C1602 1.524 . S
C1601 H1604 0.999 . S
C1602 H1572 0.950 . S
C1602 C1601 1.524 . S
C1602 C1603 1.415 . S
C1603 H1573 0.950 . S
C1603 C1598 1.363 . S
C1603 C1602 1.415 . S
H1604 C1601 0.999 . S
H1605 C1586 0.913 . S
H1606 C1624 0.951 . S
H1607 C1626 0.951 . S
H1608 C1628 0.950 . S
H1609 C1629 0.950 . S
H1610 C1631 0.950 . S
H1611 C1634 0.950 . S
H1612 C1635 0.950 . S
H1613 C1637 0.950 . S
H1614 C1638 0.950 . S
H1615 C1639 0.951 . S
H1616 C1641 0.951 . S
H1617 C1643 0.950 . S
H1618 C1644 0.950 . S
H1619 C1646 0.950 . S
H1620 C1649 0.950 . S
H1621 C1650 0.950 . S
H1622 C1652 0.949 1_545 S
H1623 C1653 0.950 . S
C1624 H1606 0.951 . S
C1624 C1625 1.366 . S
C1624 C1626 1.388 . S
C1625 C1624 1.366 . S
C1625 C1629 1.385 . S
C1626 H1607 0.951 . S
C1626 C1624 1.388 . S
C1626 C1627 1.366 . S
C1627 C1626 1.366 . S
C1627 C1628 1.414 . S
C1627 C1630 1.499 . S
C1628 H1608 0.950 . S
C1628 C1627 1.414 . S
C1628 C1629 1.374 . S
C1629 H1609 0.950 . S
C1629 C1625 1.385 . S
C1629 C1628 1.374 . S
C1630 C1627 1.499 . S
C1630 C1631 1.373 . S
C1630 C1632 1.389 . S
C1631 H1610 0.950 . S
C1631 C1630 1.373 . S
C1631 C1647 1.377 . S
C1632 C1630 1.389 . S
C1632 C1633 1.524 . S
C1632 C1646 1.377 . S
C1633 C1632 1.524 . S
C1633 C1634 1.397 . S
C1633 C1638 1.363 . S
C1634 H1611 0.950 . S
C1634 C1633 1.397 . S
C1634 C1635 1.334 . S
C1635 H1612 0.950 . S
C1635 C1634 1.334 . S
C1635 C1636 1.287 . S
C1636 C1635 1.287 . S
C1636 C1637 1.524 . S
C1636 H1655 0.913 . S
C1637 H1613 0.950 . S
C1637 C1636 1.524 . S
C1637 C1638 1.415 . S
C1638 H1614 0.950 . S
C1638 C1633 1.363 . S
C1638 C1637 1.415 . S
C1639 H1615 0.951 . S
C1639 C1640 1.366 . S
C1639 C1641 1.388 1_545 S
C1640 C1639 1.366 . S
C1640 C1644 1.385 . S
C1641 H1616 0.951 . S
C1641 C1639 1.388 1_565 S
C1641 C1642 1.366 . S
C1642 C1641 1.366 . S
C1642 C1643 1.414 . S
C1642 C1645 1.499 . S
C1643 H1617 0.950 . S
C1643 C1642 1.414 . S
C1643 C1644 1.374 1_565 S
C1644 H1618 0.950 . S
C1644 C1640 1.385 . S
C1644 C1643 1.374 1_545 S
C1645 C1642 1.499 . S
C1645 C1646 1.373 . S
C1645 C1647 1.389 . S
C1646 H1619 0.950 . S
C1646 C1632 1.377 . S
C1646 C1645 1.373 . S
C1647 C1631 1.377 . S
C1647 C1645 1.389 . S
C1647 C1648 1.524 . S
C1648 C1647 1.524 . S
C1648 C1649 1.397 . S
C1648 C1653 1.363 . S
C1649 H1620 0.950 . S
C1649 C1648 1.397 . S
C1649 C1650 1.334 1_565 S
C1650 H1621 0.950 . S
C1650 C1649 1.334 1_545 S
C1650 C1651 1.287 . S
C1651 C1650 1.287 . S
C1651 C1652 1.524 1_545 S
C1651 H1654 0.999 . S
C1652 H1622 0.949 1_565 S
C1652 C1651 1.524 1_565 S
C1652 C1653 1.415 . S
C1653 H1623 0.950 . S
C1653 C1648 1.363 . S
C1653 C1652 1.415 . S
H1654 C1651 0.999 . S
H1655 C1636 0.913 . S
H1656 C1674 0.951 . S
H1657 C1676 0.951 . S
H1658 C1678 0.950 . S
H1659 C1679 0.950 . S
H1660 C1681 0.950 . S
H1661 C1684 0.950 . S
H1662 C1685 0.950 . S
H1663 C1687 0.950 . S
H1664 C1688 0.950 . S
H1665 C1689 0.951 . S
H1666 C1691 0.951 . S
H1667 C1693 0.950 . S
H1668 C1694 0.950 . S
H1669 C1696 0.950 . S
H1670 C1699 0.950 . S
H1671 C1700 0.950 . S
H1672 C1702 0.950 . S
H1673 C1703 0.950 . S
C1674 H1656 0.951 . S
C1674 C1675 1.366 . S
C1674 C1676 1.388 . S
C1675 C1674 1.366 . S
C1675 C1679 1.385 . S
C1676 H1657 0.951 . S
C1676 C1674 1.388 . S
C1676 C1677 1.366 . S
C1677 C1676 1.366 . S
C1677 C1678 1.414 . S
C1677 C1680 1.499 . S
C1678 H1658 0.950 . S
C1678 C1677 1.414 . S
C1678 C1679 1.374 . S
C1679 H1659 0.950 . S
C1679 C1675 1.385 . S
C1679 C1678 1.374 . S
C1680 C1677 1.499 . S
C1680 C1681 1.373 . S
C1680 C1682 1.389 . S
C1681 H1660 0.950 . S
C1681 C1680 1.373 . S
C1681 C1697 1.377 . S
C1682 C1680 1.389 . S
C1682 C1683 1.524 . S
C1682 C1696 1.377 . S
C1683 C1682 1.524 . S
C1683 C1684 1.397 . S
C1683 C1688 1.363 . S
C1684 H1661 0.950 . S
C1684 C1683 1.397 . S
C1684 C1685 1.334 . S
C1685 H1662 0.950 . S
C1685 C1684 1.334 . S
C1685 C1686 1.287 . S
C1686 C1685 1.287 . S
C1686 C1687 1.524 . S
C1686 H1705 0.913 . S
C1687 H1663 0.950 . S
C1687 C1686 1.524 . S
C1687 C1688 1.415 . S
C1688 H1664 0.950 . S
C1688 C1683 1.363 . S
C1688 C1687 1.415 . S
C1689 H1665 0.951 . S
C1689 C1690 1.366 . S
C1689 C1691 1.388 . S
C1690 C1689 1.366 . S
C1690 C1694 1.385 . S
C1691 H1666 0.951 . S
C1691 C1689 1.388 . S
C1691 C1692 1.366 . S
C1692 C1691 1.366 . S
C1692 C1693 1.414 . S
C1692 C1695 1.499 . S
C1693 H1667 0.950 . S
C1693 C1692 1.414 . S
C1693 C1694 1.374 . S
C1694 H1668 0.950 . S
C1694 C1690 1.385 . S
C1694 C1693 1.374 . S
C1695 C1692 1.499 . S
C1695 C1696 1.373 . S
C1695 C1697 1.389 . S
C1696 H1669 0.950 . S
C1696 C1682 1.377 . S
C1696 C1695 1.373 . S
C1697 C1681 1.377 . S
C1697 C1695 1.389 . S
C1697 C1698 1.524 . S
C1698 C1697 1.524 . S
C1698 C1699 1.397 . S
C1698 C1703 1.363 . S
C1699 H1670 0.950 . S
C1699 C1698 1.397 . S
C1699 C1700 1.334 . S
C1700 H1671 0.950 . S
C1700 C1699 1.334 . S
C1700 C1701 1.287 . S
C1701 C1700 1.287 . S
C1701 C1702 1.524 . S
C1701 H1704 0.999 . S
C1702 H1672 0.950 . S
C1702 C1701 1.524 . S
C1702 C1703 1.415 . S
C1703 H1673 0.950 . S
C1703 C1698 1.363 . S
C1703 C1702 1.415 . S
H1704 C1701 0.999 . S
H1705 C1686 0.913 . S
H1706 C1724 0.951 . S
H1707 C1726 0.951 . S
H1708 C1728 0.950 . S
H1709 C1729 0.950 . S
H1710 C1731 0.950 . S
H1711 C1734 0.950 . S
H1712 C1735 0.950 . S
H1713 C1737 0.950 . S
H1714 C1738 0.950 . S
H1715 C1739 0.951 . S
H1716 C1741 0.951 . S
H1717 C1743 0.950 . S
H1718 C1744 0.950 . S
H1719 C1746 0.950 . S
H1720 C1749 0.950 . S
H1721 C1750 0.950 . S
H1722 C1752 0.950 . S
H1723 C1753 0.950 . S
C1724 H1706 0.951 . S
C1724 C1725 1.366 . S
C1724 C1726 1.388 . S
C1725 C1724 1.366 . S
C1725 C1729 1.385 . S
C1726 H1707 0.951 . S
C1726 C1724 1.388 . S
C1726 C1727 1.366 . S
C1727 C1726 1.366 . S
C1727 C1728 1.414 . S
C1727 C1730 1.499 . S
C1728 H1708 0.950 . S
C1728 C1727 1.414 . S
C1728 C1729 1.374 . S
C1729 H1709 0.950 . S
C1729 C1725 1.385 . S
C1729 C1728 1.374 . S
C1730 C1727 1.499 . S
C1730 C1731 1.373 . S
C1730 C1732 1.389 . S
C1731 H1710 0.950 . S
C1731 C1730 1.373 . S
C1731 C1747 1.377 . S
C1732 C1730 1.389 . S
C1732 C1733 1.524 . S
C1732 C1746 1.377 . S
C1733 C1732 1.524 . S
C1733 C1734 1.397 . S
C1733 C1738 1.363 . S
C1734 H1711 0.950 . S
C1734 C1733 1.397 . S
C1734 C1735 1.334 . S
C1735 H1712 0.950 . S
C1735 C1734 1.334 . S
C1735 C1736 1.287 . S
C1736 C1735 1.287 . S
C1736 C1737 1.524 . S
C1736 H1755 0.913 . S
C1737 H1713 0.950 . S
C1737 C1736 1.524 . S
C1737 C1738 1.415 . S
C1738 H1714 0.950 . S
C1738 C1733 1.363 . S
C1738 C1737 1.415 . S
C1739 H1715 0.951 . S
C1739 C1740 1.366 . S
C1739 C1741 1.388 . S
C1740 C1739 1.366 . S
C1740 C1744 1.385 . S
C1741 H1716 0.951 . S
C1741 C1739 1.388 . S
C1741 C1742 1.366 . S
C1742 C1741 1.366 . S
C1742 C1743 1.414 . S
C1742 C1745 1.499 . S
C1743 H1717 0.950 . S
C1743 C1742 1.414 . S
C1743 C1744 1.374 . S
C1744 H1718 0.950 . S
C1744 C1740 1.385 . S
C1744 C1743 1.374 . S
C1745 C1742 1.499 . S
C1745 C1746 1.373 . S
C1745 C1747 1.389 . S
C1746 H1719 0.950 . S
C1746 C1732 1.377 . S
C1746 C1745 1.373 . S
C1747 C1731 1.377 . S
C1747 C1745 1.389 . S
C1747 C1748 1.524 . S
C1748 C1747 1.524 . S
C1748 C1749 1.397 . S
C1748 C1753 1.363 . S
C1749 H1720 0.950 . S
C1749 C1748 1.397 . S
C1749 C1750 1.334 . S
C1750 H1721 0.950 . S
C1750 C1749 1.334 . S
C1750 C1751 1.287 . S
C1751 C1750 1.287 . S
C1751 C1752 1.524 . S
C1751 H1754 0.999 . S
C1752 H1722 0.950 . S
C1752 C1751 1.524 . S
C1752 C1753 1.415 . S
C1753 H1723 0.950 . S
C1753 C1748 1.363 . S
C1753 C1752 1.415 . S
H1754 C1751 0.999 . S
H1755 C1736 0.913 . S
H1756 C1774 0.951 . S
H1757 C1776 0.951 . S
H1758 C1778 0.950 . S
H1759 C1779 0.950 . S
H1760 C1781 0.950 . S
H1761 C1784 0.950 . S
H1762 C1785 0.950 . S
H1763 C1787 0.950 . S
H1764 C1788 0.950 . S
H1765 C1789 0.951 . S
H1766 C1791 0.951 . S
H1767 C1793 0.950 . S
H1768 C1794 0.950 . S
H1769 C1796 0.950 . S
H1770 C1799 0.950 . S
H1771 C1800 0.950 . S
H1772 C1802 0.950 . S
H1773 C1803 0.950 . S
C1774 H1756 0.951 . S
C1774 C1775 1.366 . S
C1774 C1776 1.388 . S
C1775 C1774 1.366 . S
C1775 C1779 1.385 . S
C1776 H1757 0.951 . S
C1776 C1774 1.388 . S
C1776 C1777 1.366 . S
C1777 C1776 1.366 . S
C1777 C1778 1.414 . S
C1777 C1780 1.499 . S
C1778 H1758 0.950 . S
C1778 C1777 1.414 . S
C1778 C1779 1.374 . S
C1779 H1759 0.950 . S
C1779 C1775 1.385 . S
C1779 C1778 1.374 . S
C1780 C1777 1.499 . S
C1780 C1781 1.373 . S
C1780 C1782 1.389 . S
C1781 H1760 0.950 . S
C1781 C1780 1.373 . S
C1781 C1797 1.377 . S
C1782 C1780 1.389 . S
C1782 C1783 1.524 . S
C1782 C1796 1.377 . S
C1783 C1782 1.524 . S
C1783 C1784 1.397 . S
C1783 C1788 1.363 . S
C1784 H1761 0.950 . S
C1784 C1783 1.397 . S
C1784 C1785 1.334 . S
C1785 H1762 0.950 . S
C1785 C1784 1.334 . S
C1785 C1786 1.287 . S
C1786 C1785 1.287 . S
C1786 C1787 1.524 . S
C1786 H1805 0.913 . S
C1787 H1763 0.950 . S
C1787 C1786 1.524 . S
C1787 C1788 1.415 . S
C1788 H1764 0.950 . S
C1788 C1783 1.363 . S
C1788 C1787 1.415 . S
C1789 H1765 0.951 . S
C1789 C1790 1.366 . S
C1789 C1791 1.388 . S
C1790 C1789 1.366 . S
C1790 C1794 1.385 . S
C1791 H1766 0.951 . S
C1791 C1789 1.388 . S
C1791 C1792 1.366 . S
C1792 C1791 1.366 . S
C1792 C1793 1.414 . S
C1792 C1795 1.499 . S
C1793 H1767 0.950 . S
C1793 C1792 1.414 . S
C1793 C1794 1.374 . S
C1794 H1768 0.950 . S
C1794 C1790 1.385 . S
C1794 C1793 1.374 . S
C1795 C1792 1.499 . S
C1795 C1796 1.373 . S
C1795 C1797 1.389 . S
C1796 H1769 0.950 . S
C1796 C1782 1.377 . S
C1796 C1795 1.373 . S
C1797 C1781 1.377 . S
C1797 C1795 1.389 . S
C1797 C1798 1.524 . S
C1798 C1797 1.524 . S
C1798 C1799 1.397 . S
C1798 C1803 1.363 . S
C1799 H1770 0.950 . S
C1799 C1798 1.397 . S
C1799 C1800 1.334 . S
C1800 H1771 0.950 . S
C1800 C1799 1.334 . S
C1800 C1801 1.287 . S
C1801 C1800 1.287 . S
C1801 C1802 1.524 . S
C1801 H1804 0.999 . S
C1802 H1772 0.950 . S
C1802 C1801 1.524 . S
C1802 C1803 1.415 . S
C1803 H1773 0.950 . S
C1803 C1798 1.363 . S
C1803 C1802 1.415 . S
H1804 C1801 0.999 . S
H1805 C1786 0.913 . S
H1806 C1824 0.951 . S
H1807 C1826 0.951 . S
H1808 C1828 0.950 . S
H1809 C1829 0.950 . S
H1810 C1831 0.950 . S
H1811 C1834 0.950 1_545 S
H1812 C1835 0.943 1_545 S
H1813 C1837 0.950 . S
H1814 C1838 0.950 . S
H1815 C1839 0.951 . S
H1816 C1841 0.951 . S
H1817 C1843 0.950 . S
H1818 C1844 0.950 . S
H1819 C1846 0.950 . S
H1820 C1849 0.950 . S
H1821 C1850 0.954 1_565 S
H1822 C1852 0.950 . S
H1823 C1853 0.950 . S
C1824 H1806 0.951 . S
C1824 C1825 1.366 . S
C1824 C1826 1.388 . S
C1825 C1824 1.366 . S
C1825 C1829 1.385 1_565 S
C1826 H1807 0.951 . S
C1826 C1824 1.388 . S
C1826 C1827 1.366 . S
C1827 C1826 1.366 . S
C1827 C1828 1.414 1_565 S
C1827 C1830 1.499 . S
C1828 H1808 0.950 . S
C1828 C1827 1.414 1_545 S
C1828 C1829 1.374 . S
C1829 H1809 0.950 . S
C1829 C1825 1.385 1_545 S
C1829 C1828 1.374 . S
C1830 C1827 1.499 . S
C1830 C1831 1.373 1_565 S
C1830 C1832 1.389 . S
C1831 H1810 0.950 . S
C1831 C1830 1.373 1_545 S
C1831 C1847 1.377 . S
C1832 C1830 1.389 . S
C1832 C1833 1.524 . S
C1832 C1846 1.377 . S
C1833 C1832 1.524 . S
C1833 C1834 1.397 . S
C1833 C1838 1.363 . S
C1834 H1811 0.950 1_565 S
C1834 C1833 1.397 . S
C1834 C1835 1.334 . S
C1835 H1812 0.943 1_565 S
C1835 C1834 1.334 . S
C1835 C1836 1.287 . S
C1836 C1835 1.287 . S
C1836 C1837 1.524 . S
C1836 H1855 0.913 . S
C1837 H1813 0.950 . S
C1837 C1836 1.524 . S
C1837 C1838 1.415 . S
C1838 H1814 0.950 . S
C1838 C1833 1.363 . S
C1838 C1837 1.415 . S
C1839 H1815 0.951 . S
C1839 C1840 1.366 . S
C1839 C1841 1.388 . S
C1840 C1839 1.366 . S
C1840 C1844 1.385 1_545 S
C1841 H1816 0.951 . S
C1841 C1839 1.388 . S
C1841 C1842 1.340 1_545 S
C1842 C1841 1.340 1_565 S
C1842 C1843 1.436 . S
C1842 C1845 1.503 . S
C1843 H1817 0.950 . S
C1843 C1842 1.436 . S
C1843 C1844 1.374 . S
C1844 H1818 0.950 . S
C1844 C1840 1.385 1_565 S
C1844 C1843 1.374 . S
C1845 C1842 1.503 . S
C1845 C1846 1.373 . S
C1845 C1847 1.389 1_565 S
C1846 H1819 0.950 . S
C1846 C1832 1.377 . S
C1846 C1845 1.373 . S
C1847 C1831 1.377 . S
C1847 C1845 1.389 1_545 S
C1847 C1848 1.524 . S
C1848 C1847 1.524 . S
C1848 C1849 1.397 1_545 S
C1848 C1853 1.363 . S
C1849 H1820 0.950 . S
C1849 C1848 1.397 1_565 S
C1849 C1850 1.335 1_565 S
C1850 H1821 0.954 1_545 S
C1850 C1849 1.335 1_545 S
C1850 C1851 1.282 . S
C1851 C1850 1.282 . S
C1851 C1852 1.524 . S
C1851 H1854 0.999 . S
C1852 H1822 0.950 . S
C1852 C1851 1.524 . S
C1852 C1853 1.415 . S
C1853 H1823 0.950 . S
C1853 C1848 1.363 . S
C1853 C1852 1.415 . S
H1854 C1851 0.999 . S
H1855 C1836 0.913 . S
H1856 C1874 0.951 . S
H1857 C1876 0.951 . S
H1858 C1878 0.950 . S
H1859 C1879 0.950 . S
H1860 C1881 0.950 . S
H1861 C1884 0.950 . S
H1862 C1885 0.950 . S
H1863 C1887 0.950 . S
H1864 C1888 0.950 . S
H1865 C1889 0.951 . S
H1866 C1891 0.951 . S
H1867 C1893 0.950 . S
H1868 C1894 0.950 . S
H1869 C1896 0.950 . S
H1870 C1899 0.950 . S
H1871 C1900 0.950 . S
H1872 C1902 0.950 . S
H1873 C1903 0.950 . S
C1874 H1856 0.951 . S
C1874 C1875 1.366 . S
C1874 C1876 1.388 . S
C1875 C1874 1.366 . S
C1875 C1879 1.385 . S
C1876 H1857 0.951 . S
C1876 C1874 1.388 . S
C1876 C1877 1.366 . S
C1877 C1876 1.366 . S
C1877 C1878 1.414 . S
C1877 C1880 1.499 . S
C1878 H1858 0.950 . S
C1878 C1877 1.414 . S
C1878 C1879 1.374 . S
C1879 H1859 0.950 . S
C1879 C1875 1.385 . S
C1879 C1878 1.374 . S
C1880 C1877 1.499 . S
C1880 C1881 1.373 . S
C1880 C1882 1.389 . S
C1881 H1860 0.950 . S
C1881 C1880 1.373 . S
C1881 C1897 1.377 . S
C1882 C1880 1.389 . S
C1882 C1883 1.524 . S
C1882 C1896 1.377 . S
C1883 C1882 1.524 . S
C1883 C1884 1.397 . S
C1883 C1888 1.363 . S
C1884 H1861 0.950 . S
C1884 C1883 1.397 . S
C1884 C1885 1.334 . S
C1885 H1862 0.950 . S
C1885 C1884 1.334 . S
C1885 C1886 1.287 . S
C1886 C1885 1.287 . S
C1886 C1887 1.524 . S
C1886 H1905 0.913 . S
C1887 H1863 0.950 . S
C1887 C1886 1.524 . S
C1887 C1888 1.415 . S
C1888 H1864 0.950 . S
C1888 C1883 1.363 . S
C1888 C1887 1.415 . S
C1889 H1865 0.951 . S
C1889 C1890 1.366 . S
C1889 C1891 1.388 . S
C1890 C1889 1.366 . S
C1890 C1894 1.385 . S
C1891 H1866 0.951 . S
C1891 C1889 1.388 . S
C1891 C1892 1.366 1_554 S
C1892 C1891 1.366 1_556 S
C1892 C1893 1.414 . S
C1892 C1895 1.499 . S
C1893 H1867 0.950 . S
C1893 C1892 1.414 . S
C1893 C1894 1.374 1_556 S
C1894 H1868 0.950 . S
C1894 C1890 1.385 . S
C1894 C1893 1.374 1_554 S
C1895 C1892 1.499 . S
C1895 C1896 1.373 . S
C1895 C1897 1.389 . S
C1896 H1869 0.950 . S
C1896 C1882 1.377 . S
C1896 C1895 1.373 . S
C1897 C1881 1.377 . S
C1897 C1895 1.389 . S
C1897 C1898 1.524 . S
C1898 C1897 1.524 . S
C1898 C1899 1.397 . S
C1898 C1903 1.363 . S
C1899 H1870 0.950 . S
C1899 C1898 1.397 . S
C1899 C1900 1.334 . S
C1900 H1871 0.950 . S
C1900 C1899 1.334 . S
C1900 C1901 1.287 . S
C1901 C1900 1.287 . S
C1901 C1902 1.524 . S
C1901 H1904 0.999 1_556 S
C1902 H1872 0.950 . S
C1902 C1901 1.524 . S
C1902 C1903 1.415 . S
C1903 H1873 0.950 . S
C1903 C1898 1.363 . S
C1903 C1902 1.415 . S
H1904 C1901 0.999 1_554 S
H1905 C1886 0.913 . S
H1906 C1924 0.951 . S
H1907 C1926 0.951 . S
H1908 C1928 0.950 . S
H1909 C1929 0.950 . S
H1910 C1931 0.950 . S
H1911 C1934 0.950 . S
H1912 C1935 0.950 . S
H1913 C1937 0.950 . S
H1914 C1938 0.950 . S
H1915 C1939 0.951 . S
H1916 C1941 0.951 . S
H1917 C1943 0.950 . S
H1918 C1944 0.950 . S
H1919 C1946 0.950 . S
H1920 C1949 0.950 . S
H1921 C1950 0.950 . S
H1922 C1952 0.950 . S
H1923 C1953 0.950 . S
C1924 H1906 0.951 . S
C1924 C1925 1.366 . S
C1924 C1926 1.388 . S
C1925 C1924 1.366 . S
C1925 C1929 1.385 . S
C1926 H1907 0.951 . S
C1926 C1924 1.388 . S
C1926 C1927 1.366 . S
C1927 C1926 1.366 . S
C1927 C1928 1.414 . S
C1927 C1930 1.499 . S
C1928 H1908 0.950 . S
C1928 C1927 1.414 . S
C1928 C1929 1.374 . S
C1929 H1909 0.950 . S
C1929 C1925 1.385 . S
C1929 C1928 1.374 . S
C1930 C1927 1.499 . S
C1930 C1931 1.373 . S
C1930 C1932 1.389 . S
C1931 H1910 0.950 . S
C1931 C1930 1.373 . S
C1931 C1947 1.377 1_556 S
C1932 C1930 1.389 . S
C1932 C1933 1.524 . S
C1932 C1946 1.377 . S
C1933 C1932 1.524 . S
C1933 C1934 1.397 . S
C1933 C1938 1.363 . S
C1934 H1911 0.950 . S
C1934 C1933 1.397 . S
C1934 C1935 1.334 . S
C1935 H1912 0.950 . S
C1935 C1934 1.334 . S
C1935 C1936 1.287 . S
C1936 C1935 1.287 . S
C1936 C1937 1.524 . S
C1936 H1955 0.913 . S
C1937 H1913 0.950 . S
C1937 C1936 1.524 . S
C1937 C1938 1.415 . S
C1938 H1914 0.950 . S
C1938 C1933 1.363 . S
C1938 C1937 1.415 . S
C1939 H1915 0.951 . S
C1939 C1940 1.366 . S
C1939 C1941 1.388 . S
C1940 C1939 1.366 . S
C1940 C1944 1.385 . S
C1941 H1916 0.951 . S
C1941 C1939 1.388 . S
C1941 C1942 1.366 . S
C1942 C1941 1.366 . S
C1942 C1943 1.414 . S
C1942 C1945 1.499 . S
C1943 H1917 0.950 . S
C1943 C1942 1.414 . S
C1943 C1944 1.374 . S
C1944 H1918 0.950 . S
C1944 C1940 1.385 . S
C1944 C1943 1.374 . S
C1945 C1942 1.499 . S
C1945 C1946 1.373 1_554 S
C1945 C1947 1.389 . S
C1946 H1919 0.950 . S
C1946 C1932 1.377 . S
C1946 C1945 1.373 1_556 S
C1947 C1931 1.377 1_554 S
C1947 C1945 1.389 . S
C1947 C1948 1.524 . S
C1948 C1947 1.524 . S
C1948 C1949 1.397 . S
C1948 C1953 1.363 . S
C1949 H1920 0.950 . S
C1949 C1948 1.397 . S
C1949 C1950 1.334 . S
C1950 H1921 0.950 . S
C1950 C1949 1.334 . S
C1950 C1951 1.287 . S
C1951 C1950 1.287 . S
C1951 C1952 1.524 . S
C1951 H1954 0.999 . S
C1952 H1922 0.950 . S
C1952 C1951 1.524 . S
C1952 C1953 1.415 . S
C1953 H1923 0.950 . S
C1953 C1948 1.363 . S
C1953 C1952 1.415 . S
H1954 C1951 0.999 . S
H1955 C1936 0.913 . S
H1956 C1974 0.951 . S
H1957 C1976 0.951 . S
H1958 C1978 0.950 . S
H1959 C1979 0.950 . S
H1960 C1981 0.950 . S
H1961 C1984 0.950 . S
H1962 C1985 0.950 . S
H1963 C1987 0.950 . S
H1964 C1988 0.950 . S
H1965 C1989 0.951 . S
H1966 C1991 0.951 . S
H1967 C1993 0.950 . S
H1968 C1994 0.950 . S
H1969 C1996 0.950 . S
H1970 C1999 0.950 . S
H1971 C2000 0.950 . S
H1972 C2002 0.950 . S
H1973 C2003 0.950 . S
C1974 H1956 0.951 . S
C1974 C1975 1.366 . S
C1974 C1976 1.388 . S
C1975 C1974 1.366 . S
C1975 C1979 1.385 . S
C1976 H1957 0.951 . S
C1976 C1974 1.388 . S
C1976 C1977 1.366 . S
C1977 C1976 1.366 . S
C1977 C1978 1.414 . S
C1977 C1980 1.499 . S
C1978 H1958 0.950 . S
C1978 C1977 1.414 . S
C1978 C1979 1.374 . S
C1979 H1959 0.950 . S
C1979 C1975 1.385 . S
C1979 C1978 1.374 . S
C1980 C1977 1.499 . S
C1980 C1981 1.373 . S
C1980 C1982 1.389 . S
C1981 H1960 0.950 . S
C1981 C1980 1.373 . S
C1981 C1997 1.377 . S
C1982 C1980 1.389 . S
C1982 C1983 1.524 . S
C1982 C1996 1.377 . S
C1983 C1982 1.524 . S
C1983 C1984 1.397 . S
C1983 C1988 1.363 . S
C1984 H1961 0.950 . S
C1984 C1983 1.397 . S
C1984 C1985 1.334 . S
C1985 H1962 0.950 . S
C1985 C1984 1.334 . S
C1985 C1986 1.287 . S
C1986 C1985 1.287 . S
C1986 C1987 1.524 . S
C1986 H2005 0.913 . S
C1987 H1963 0.950 . S
C1987 C1986 1.524 . S
C1987 C1988 1.415 . S
C1988 H1964 0.950 . S
C1988 C1983 1.363 . S
C1988 C1987 1.415 . S
C1989 H1965 0.951 . S
C1989 C1990 1.366 . S
C1989 C1991 1.388 . S
C1990 C1989 1.366 . S
C1990 C1994 1.385 . S
C1991 H1966 0.951 . S
C1991 C1989 1.388 . S
C1991 C1992 1.366 . S
C1992 C1991 1.366 . S
C1992 C1993 1.414 . S
C1992 C1995 1.499 . S
C1993 H1967 0.950 . S
C1993 C1992 1.414 . S
C1993 C1994 1.374 . S
C1994 H1968 0.950 . S
C1994 C1990 1.385 . S
C1994 C1993 1.374 . S
C1995 C1992 1.499 . S
C1995 C1996 1.373 . S
C1995 C1997 1.389 . S
C1996 H1969 0.950 . S
C1996 C1982 1.377 . S
C1996 C1995 1.373 . S
C1997 C1981 1.377 . S
C1997 C1995 1.389 . S
C1997 C1998 1.524 . S
C1998 C1997 1.524 . S
C1998 C1999 1.397 . S
C1998 C2003 1.363 . S
C1999 H1970 0.950 . S
C1999 C1998 1.397 . S
C1999 C2000 1.334 . S
C2000 H1971 0.950 . S
C2000 C1999 1.334 . S
C2000 C2001 1.287 . S
C2001 C2000 1.287 . S
C2001 C2002 1.524 . S
C2001 H2004 0.999 . S
C2002 H1972 0.950 . S
C2002 C2001 1.524 . S
C2002 C2003 1.415 . S
C2003 H1973 0.950 . S
C2003 C1998 1.363 . S
C2003 C2002 1.415 . S
H2004 C2001 0.999 . S
H2005 C1986 0.913 . S
H2006 C2024 0.951 1_554 S
H2007 C2026 0.955 . S
H2008 C2028 0.950 . S
H2009 C2029 0.950 . S
H2010 C2031 0.950 . S
H2011 C2034 0.950 . S
H2012 C2035 0.950 . S
H2013 C2037 0.950 . S
H2014 C2038 0.950 . S
H2015 C2039 0.951 . S
H2016 C2041 0.951 . S
H2017 C2043 0.950 . S
H2018 C2044 0.950 . S
H2019 C2046 0.950 . S
H2020 C2049 0.950 . S
H2021 C2050 0.950 . S
H2022 C2052 0.950 . S
H2023 C2053 0.950 . S
C2024 H2006 0.951 1_556 S
C2024 C2025 1.366 . S
C2024 C2026 1.387 1_556 S
C2025 C2024 1.366 . S
C2025 C2029 1.385 . S
C2026 H2007 0.955 . S
C2026 C2024 1.387 1_554 S
C2026 C2027 1.363 1_554 S
C2027 C2026 1.363 1_556 S
C2027 C2028 1.414 . S
C2027 C2030 1.499 . S
C2028 H2008 0.950 . S
C2028 C2027 1.414 . S
C2028 C2029 1.374 . S
C2029 H2009 0.950 . S
C2029 C2025 1.385 . S
C2029 C2028 1.374 . S
C2030 C2027 1.499 . S
C2030 C2031 1.373 . S
C2030 C2032 1.389 1_556 S
C2031 H2010 0.950 . S
C2031 C2030 1.373 . S
C2031 C2047 1.377 . S
C2032 C2030 1.389 1_554 S
C2032 C2033 1.524 . S
C2032 C2046 1.377 . S
C2033 C2032 1.524 . S
C2033 C2034 1.397 . S
C2033 C2038 1.363 . S
C2034 H2011 0.950 . S
C2034 C2033 1.397 . S
C2034 C2035 1.334 . S
C2035 H2012 0.950 . S
C2035 C2034 1.334 . S
C2035 C2036 1.287 . S
C2036 C2035 1.287 . S
C2036 C2037 1.524 . S
C2036 H2055 0.913 . S
C2037 H2013 0.950 . S
C2037 C2036 1.524 . S
C2037 C2038 1.415 . S
C2038 H2014 0.950 . S
C2038 C2033 1.363 . S
C2038 C2037 1.415 . S
C2039 H2015 0.951 . S
C2039 C2040 1.366 1_556 S
C2039 C2041 1.388 . S
C2040 C2039 1.366 1_554 S
C2040 C2044 1.385 . S
C2041 H2016 0.951 . S
C2041 C2039 1.388 . S
C2041 C2042 1.366 . S
C2042 C2041 1.366 . S
C2042 C2043 1.414 1_556 S
C2042 C2045 1.499 . S
C2043 H2017 0.950 . S
C2043 C2042 1.414 1_554 S
C2043 C2044 1.374 . S
C2044 H2018 0.950 . S
C2044 C2040 1.385 . S
C2044 C2043 1.374 . S
C2045 C2042 1.499 . S
C2045 C2046 1.373 1_556 S
C2045 C2047 1.389 . S
C2046 H2019 0.950 . S
C2046 C2032 1.377 . S
C2046 C2045 1.373 1_554 S
C2047 C2031 1.377 . S
C2047 C2045 1.389 . S
C2047 C2048 1.524 . S
C2048 C2047 1.524 . S
C2048 C2049 1.397 . S
C2048 C2053 1.363 . S
C2049 H2020 0.950 . S
C2049 C2048 1.397 . S
C2049 C2050 1.334 . S
C2050 H2021 0.950 . S
C2050 C2049 1.334 . S
C2050 C2051 1.287 . S
C2051 C2050 1.287 . S
C2051 C2052 1.524 . S
C2051 H2054 0.999 . S
C2052 H2022 0.950 . S
C2052 C2051 1.524 . S
C2052 C2053 1.415 . S
C2053 H2023 0.950 . S
C2053 C2048 1.363 . S
C2053 C2052 1.415 . S
H2054 C2051 0.999 . S
H2055 C2036 0.913 . S
H2056 C2074 0.952 . S
H2057 C2076 0.951 . S
H2058 C2078 0.950 . S
H2059 C2079 0.950 . S
H2060 C2081 0.950 . S
H2061 C2084 0.950 . S
H2062 C2085 0.950 . S
H2063 C2087 0.950 . S
H2064 C2088 0.950 . S
H2065 C2089 0.951 . S
H2066 C2091 0.951 . S
H2067 C2093 0.950 . S
H2068 C2094 0.950 . S
H2069 C2096 0.950 . S
H2070 C2099 0.950 . S
H2071 C2100 0.950 . S
H2072 C2102 0.950 . S
H2073 C2103 0.950 . S
C2074 H2056 0.952 . S
C2074 C2075 1.366 . S
C2074 C2076 1.388 1_556 S
C2075 C2074 1.366 . S
C2075 C2079 1.385 . S
C2076 H2057 0.951 . S
C2076 C2074 1.388 1_554 S
C2076 C2077 1.366 1_554 S
C2077 C2076 1.366 1_556 S
C2077 C2078 1.414 . S
C2077 C2080 1.499 1_556 S
C2078 H2058 0.950 . S
C2078 C2077 1.414 . S
C2078 C2079 1.374 . S
C2079 H2059 0.950 . S
C2079 C2075 1.385 . S
C2079 C2078 1.374 . S
C2080 C2077 1.499 1_554 S
C2080 C2081 1.373 1_554 S
C2080 C2082 1.389 . S
C2081 H2060 0.950 . S
C2081 C2080 1.373 1_556 S
C2081 C2097 1.377 . S
C2082 C2080 1.389 . S
C2082 C2083 1.524 . S
C2082 C2096 1.377 . S
C2083 C2082 1.524 . S
C2083 C2084 1.397 . S
C2083 C2088 1.363 . S
C2084 H2061 0.950 . S
C2084 C2083 1.397 . S
C2084 C2085 1.334 . S
C2085 H2062 0.950 . S
C2085 C2084 1.334 . S
C2085 C2086 1.287 . S
C2086 C2085 1.287 . S
C2086 C2087 1.524 . S
C2086 H2105 0.913 . S
C2087 H2063 0.950 . S
C2087 C2086 1.524 . S
C2087 C2088 1.415 . S
C2088 H2064 0.950 . S
C2088 C2083 1.363 . S
C2088 C2087 1.415 . S
C2089 H2065 0.951 . S
C2089 C2090 1.366 . S
C2089 C2091 1.388 . S
C2090 C2089 1.366 . S
C2090 C2094 1.385 . S
C2091 H2066 0.951 . S
C2091 C2089 1.388 . S
C2091 C2092 1.366 . S
C2092 C2091 1.366 . S
C2092 C2093 1.414 . S
C2092 C2095 1.499 . S
C2093 H2067 0.950 . S
C2093 C2092 1.414 . S
C2093 C2094 1.374 . S
C2094 H2068 0.950 . S
C2094 C2090 1.385 . S
C2094 C2093 1.374 . S
C2095 C2092 1.499 . S
C2095 C2096 1.373 . S
C2095 C2097 1.389 1_554 S
C2096 H2069 0.950 . S
C2096 C2082 1.377 . S
C2096 C2095 1.373 . S
C2097 C2081 1.377 . S
C2097 C2095 1.389 1_556 S
C2097 C2098 1.524 . S
C2098 C2097 1.524 . S
C2098 C2099 1.397 . S
C2098 C2103 1.363 . S
C2099 H2070 0.950 . S
C2099 C2098 1.397 . S
C2099 C2100 1.334 . S
C2100 H2071 0.950 . S
C2100 C2099 1.334 . S
C2100 C2101 1.287 . S
C2101 C2100 1.287 . S
C2101 C2102 1.524 . S
C2101 H2104 0.999 . S
C2102 H2072 0.950 . S
C2102 C2101 1.524 . S
C2102 C2103 1.415 . S
C2103 H2073 0.950 . S
C2103 C2098 1.363 . S
C2103 C2102 1.415 . S
H2104 C2101 0.999 . S
H2105 C2086 0.913 . S
H2106 C2124 0.951 . S
H2107 C2126 0.951 . S
H2108 C2128 0.950 . S
H2109 C2129 0.950 . S
H2110 C2131 0.950 . S
H2111 C2134 0.954 . S
H2112 C2135 0.950 . S
H2113 C2137 0.950 . S
H2114 C2138 0.950 . S
H2115 C2139 0.951 . S
H2116 C2141 0.951 . S
H2117 C2143 0.950 . S
H2118 C2144 0.950 . S
H2119 C2146 0.950 . S
H2120 C2149 0.950 . S
H2121 C2150 0.950 . S
H2122 C2152 0.950 . S
H2123 C2153 0.950 . S
C2124 H2106 0.951 . S
C2124 C2125 1.366 . S
C2124 C2126 1.388 . S
C2125 C2124 1.366 . S
C2125 C2129 1.385 . S
C2126 H2107 0.951 . S
C2126 C2124 1.388 . S
C2126 C2127 1.366 . S
C2127 C2126 1.366 . S
C2127 C2128 1.414 . S
C2127 C2130 1.499 . S
C2128 H2108 0.950 . S
C2128 C2127 1.414 . S
C2128 C2129 1.374 . S
C2129 H2109 0.950 . S
C2129 C2125 1.385 . S
C2129 C2128 1.374 . S
C2130 C2127 1.499 . S
C2130 C2131 1.373 . S
C2130 C2132 1.389 1_655 S
C2131 H2110 0.950 . S
C2131 C2130 1.373 . S
C2131 C2147 1.377 1_655 S
C2132 C2130 1.389 1_455 S
C2132 C2133 1.524 . S
C2132 C2146 1.377 . S
C2133 C2132 1.524 . S
C2133 C2134 1.348 1_554 S
C2133 C2138 1.363 . S
C2134 H2111 0.954 . S
C2134 C2133 1.348 1_556 S
C2134 C2135 1.381 . S
C2135 H2112 0.950 . S
C2135 C2134 1.381 . S
C2135 C2136 1.287 . S
C2136 C2135 1.287 . S
C2136 C2137 1.524 1_556 S
C2136 H2155 0.913 . S
C2137 H2113 0.950 . S
C2137 C2136 1.524 1_554 S
C2137 C2138 1.415 . S
C2138 H2114 0.950 . S
C2138 C2133 1.363 . S
C2138 C2137 1.415 . S
C2139 H2115 0.951 . S
C2139 C2140 1.366 . S
C2139 C2141 1.388 . S
C2140 C2139 1.366 . S
C2140 C2144 1.385 . S
C2141 H2116 0.951 . S
C2141 C2139 1.388 . S
C2141 C2142 1.366 . S
C2142 C2141 1.366 . S
C2142 C2143 1.414 . S
C2142 C2145 1.499 . S
C2143 H2117 0.950 . S
C2143 C2142 1.414 . S
C2143 C2144 1.374 . S
C2144 H2118 0.950 . S
C2144 C2140 1.385 . S
C2144 C2143 1.374 . S
C2145 C2142 1.499 . S
C2145 C2146 1.373 . S
C2145 C2147 1.389 . S
C2146 H2119 0.950 . S
C2146 C2132 1.377 . S
C2146 C2145 1.373 . S
C2147 C2131 1.377 1_455 S
C2147 C2145 1.389 . S
C2147 C2148 1.524 . S
C2148 C2147 1.524 . S
C2148 C2149 1.397 . S
C2148 C2153 1.363 1_455 S
C2149 H2120 0.950 . S
C2149 C2148 1.397 . S
C2149 C2150 1.334 . S
C2150 H2121 0.950 . S
C2150 C2149 1.334 . S
C2150 C2151 1.287 1_455 S
C2151 C2150 1.287 1_655 S
C2151 C2152 1.524 . S
C2151 H2154 0.999 . S
C2152 H2122 0.950 . S
C2152 C2151 1.524 . S
C2152 C2153 1.415 . S
C2153 H2123 0.950 . S
C2153 C2148 1.363 1_655 S
C2153 C2152 1.415 . S
H2154 C2151 0.999 . S
H2155 C2136 0.913 . S
H2156 C2174 0.951 . S
H2157 C2176 0.951 . S
H2158 C2178 0.950 . S
H2159 C2179 0.950 . S
H2160 C2181 0.950 . S
H2161 C2184 0.950 . S
H2162 C2185 0.950 . S
H2163 C2187 0.950 . S
H2164 C2188 0.950 . S
H2165 C2189 0.951 . S
H2166 C2191 0.951 . S
H2167 C2193 0.950 . S
H2168 C2194 0.950 . S
H2169 C2196 0.950 . S
H2170 C2199 0.950 . S
H2171 C2200 0.950 . S
H2172 C2202 0.966 . S
H2173 C2203 0.950 . S
C2174 H2156 0.951 . S
C2174 C2175 1.366 . S
C2174 C2176 1.388 . S
C2175 C2174 1.366 . S
C2175 C2179 1.385 . S
C2176 H2157 0.951 . S
C2176 C2174 1.388 . S
C2176 C2177 1.366 . S
C2177 C2176 1.366 . S
C2177 C2178 1.414 . S
C2177 C2180 1.499 . S
C2178 H2158 0.950 . S
C2178 C2177 1.414 . S
C2178 C2179 1.374 . S
C2179 H2159 0.950 . S
C2179 C2175 1.385 . S
C2179 C2178 1.374 . S
C2180 C2177 1.499 . S
C2180 C2181 1.373 . S
C2180 C2182 1.389 . S
C2181 H2160 0.950 . S
C2181 C2180 1.373 . S
C2181 C2197 1.377 . S
C2182 C2180 1.389 . S
C2182 C2183 1.524 . S
C2182 C2196 1.377 . S
C2183 C2182 1.524 . S
C2183 C2184 1.397 . S
C2183 C2188 1.363 . S
C2184 H2161 0.950 . S
C2184 C2183 1.397 . S
C2184 C2185 1.334 . S
C2185 H2162 0.950 . S
C2185 C2184 1.334 . S
C2185 C2186 1.287 . S
C2186 C2185 1.287 . S
C2186 C2187 1.524 . S
C2186 H2205 0.913 . S
C2187 H2163 0.950 . S
C2187 C2186 1.524 . S
C2187 C2188 1.415 . S
C2188 H2164 0.950 . S
C2188 C2183 1.363 . S
C2188 C2187 1.415 . S
C2189 H2165 0.951 . S
C2189 C2190 1.366 . S
C2189 C2191 1.388 . S
C2190 C2189 1.366 . S
C2190 C2194 1.385 . S
C2191 H2166 0.951 . S
C2191 C2189 1.388 . S
C2191 C2192 1.366 . S
C2192 C2191 1.366 . S
C2192 C2193 1.414 . S
C2192 C2195 1.499 . S
C2193 H2167 0.950 . S
C2193 C2192 1.414 . S
C2193 C2194 1.374 . S
C2194 H2168 0.950 . S
C2194 C2190 1.385 . S
C2194 C2193 1.374 . S
C2195 C2192 1.499 . S
C2195 C2196 1.373 . S
C2195 C2197 1.389 . S
C2196 H2169 0.950 . S
C2196 C2182 1.377 . S
C2196 C2195 1.373 . S
C2197 C2181 1.377 . S
C2197 C2195 1.389 . S
C2197 C2198 1.524 . S
C2198 C2197 1.524 . S
C2198 C2199 1.397 . S
C2198 C2203 1.363 . S
C2199 H2170 0.950 . S
C2199 C2198 1.397 . S
C2199 C2200 1.334 . S
C2200 H2171 0.950 . S
C2200 C2199 1.334 . S
C2200 C2201 1.287 . S
C2201 C2200 1.287 . S
C2201 C2202 1.524 . S
C2201 H2204 0.999 . S
C2202 H2172 0.966 . S
C2202 C2201 1.524 . S
C2202 C2203 1.415 . S
C2203 H2173 0.950 . S
C2203 C2198 1.363 . S
C2203 C2202 1.415 . S
H2204 C2201 0.999 . S
H2205 C2186 0.913 . S
H2206 C2224 0.951 . S
H2207 C2226 0.951 . S
H2208 C2228 0.950 . S
H2209 C2229 0.950 . S
H2210 C2231 0.950 . S
H2211 C2234 0.950 1_655 S
H2212 C2235 0.950 1_655 S
H2213 C2237 0.950 . S
H2214 C2238 0.950 . S
H2215 C2239 0.951 . S
H2216 C2241 0.951 . S
H2217 C2243 0.950 . S
H2218 C2244 0.950 . S
H2219 C2246 0.950 . S
H2220 C2249 0.950 . S
H2221 C2250 0.950 . S
H2222 C2252 0.950 . S
H2223 C2253 0.950 . S
C2224 H2206 0.951 . S
C2224 C2225 1.366 . S
C2224 C2226 1.388 . S
C2225 C2224 1.366 . S
C2225 C2229 1.385 1_455 S
C2226 H2207 0.951 . S
C2226 C2224 1.388 . S
C2226 C2227 1.366 . S
C2227 C2226 1.366 . S
C2227 C2228 1.414 1_455 S
C2227 C2230 1.499 . S
C2228 H2208 0.950 . S
C2228 C2227 1.414 1_655 S
C2228 C2229 1.374 . S
C2229 H2209 0.950 . S
C2229 C2225 1.385 1_655 S
C2229 C2228 1.374 . S
C2230 C2227 1.499 . S
C2230 C2231 1.373 . S
C2230 C2232 1.389 . S
C2231 H2210 0.950 . S
C2231 C2230 1.373 . S
C2231 C2247 1.377 . S
C2232 C2230 1.389 . S
C2232 C2233 1.524 . S
C2232 C2246 1.377 . S
C2233 C2232 1.524 . S
C2233 C2234 1.397 . S
C2233 C2238 1.363 . S
C2234 H2211 0.950 1_455 S
C2234 C2233 1.397 . S
C2234 C2235 1.334 . S
C2235 H2212 0.950 1_455 S
C2235 C2234 1.334 . S
C2235 C2236 1.287 . S
C2236 C2235 1.287 . S
C2236 C2237 1.524 . S
C2236 H2255 0.913 . S
C2237 H2213 0.950 . S
C2237 C2236 1.524 . S
C2237 C2238 1.415 . S
C2238 H2214 0.950 . S
C2238 C2233 1.363 . S
C2238 C2237 1.415 . S
C2239 H2215 0.951 . S
C2239 C2240 1.366 1_655 S
C2239 C2241 1.388 . S
C2240 C2239 1.366 1_455 S
C2240 C2244 1.385 . S
C2241 H2216 0.951 . S
C2241 C2239 1.388 . S
C2241 C2242 1.366 1_655 S
C2242 C2241 1.366 1_455 S
C2242 C2243 1.414 . S
C2242 C2245 1.499 . S
C2243 H2217 0.950 . S
C2243 C2242 1.414 . S
C2243 C2244 1.374 . S
C2244 H2218 0.950 . S
C2244 C2240 1.385 . S
C2244 C2243 1.374 . S
C2245 C2242 1.499 . S
C2245 C2246 1.373 . S
C2245 C2247 1.389 . S
C2246 H2219 0.950 . S
C2246 C2232 1.377 . S
C2246 C2245 1.373 . S
C2247 C2231 1.377 . S
C2247 C2245 1.389 . S
C2247 C2248 1.532 . S
C2248 C2247 1.532 . S
C2248 C2249 1.418 . S
C2248 C2253 1.337 1_455 S
C2249 H2220 0.950 . S
C2249 C2248 1.418 . S
C2249 C2250 1.334 . S
C2250 H2221 0.950 . S
C2250 C2249 1.334 . S
C2250 C2251 1.287 1_455 S
C2251 C2250 1.287 1_655 S
C2251 C2252 1.524 . S
C2251 H2254 0.999 . S
C2252 H2222 0.950 . S
C2252 C2251 1.524 . S
C2252 C2253 1.415 . S
C2253 H2223 0.950 . S
C2253 C2248 1.337 1_655 S
C2253 C2252 1.415 . S
H2254 C2251 0.999 . S
H2255 C2236 0.913 . S
H2256 C2274 0.951 . S
H2257 C2276 0.951 . S
H2258 C2278 0.950 . S
H2259 C2279 0.950 . S
H2260 C2281 0.950 . S
H2261 C2284 0.950 1_455 S
H2262 C2285 0.950 . S
H2263 C2287 0.950 . S
H2264 C2288 0.950 . S
H2265 C2289 0.951 . S
H2266 C2291 0.951 . S
H2267 C2293 0.950 1_655 S
H2268 C2294 0.950 . S
H2269 C2296 0.950 1_655 S
H2270 C2299 0.950 . S
H2271 C2300 0.950 . S
H2272 C2302 0.950 . S
H2273 C2303 0.950 . S
C2274 H2256 0.951 . S
C2274 C2275 1.366 1_655 S
C2274 C2276 1.388 . S
C2275 C2274 1.366 1_455 S
C2275 C2279 1.385 . S
C2276 H2257 0.951 . S
C2276 C2274 1.388 . S
C2276 C2277 1.366 1_655 S
C2277 C2276 1.366 1_455 S
C2277 C2278 1.414 . S
C2277 C2280 1.499 . S
C2278 H2258 0.950 . S
C2278 C2277 1.414 . S
C2278 C2279 1.374 . S
C2279 H2259 0.950 . S
C2279 C2275 1.385 . S
C2279 C2278 1.374 . S
C2280 C2277 1.499 . S
C2280 C2281 1.373 . S
C2280 C2282 1.389 . S
C2281 H2260 0.950 . S
C2281 C2280 1.373 . S
C2281 C2297 1.377 . S
C2282 C2280 1.389 . S
C2282 C2283 1.524 1_455 S
C2282 C2296 1.377 . S
C2283 C2282 1.524 1_655 S
C2283 C2284 1.397 . S
C2283 C2288 1.363 . S
C2284 H2261 0.950 1_655 S
C2284 C2283 1.397 . S
C2284 C2285 1.334 . S
C2285 H2262 0.950 . S
C2285 C2284 1.334 . S
C2285 C2286 1.287 . S
C2286 C2285 1.287 . S
C2286 C2287 1.524 . S
C2286 H2305 0.913 . S
C2287 H2263 0.950 . S
C2287 C2286 1.524 . S
C2287 C2288 1.415 . S
C2288 H2264 0.950 . S
C2288 C2283 1.363 . S
C2288 C2287 1.415 . S
C2289 H2265 0.951 . S
C2289 C2290 1.366 . S
C2289 C2291 1.388 . S
C2290 C2289 1.366 . S
C2290 C2294 1.385 . S
C2291 H2266 0.951 . S
C2291 C2289 1.388 . S
C2291 C2292 1.366 . S
C2292 C2291 1.366 . S
C2292 C2293 1.414 . S
C2292 C2295 1.499 . S
C2293 H2267 0.950 1_455 S
C2293 C2292 1.414 . S
C2293 C2294 1.374 . S
C2294 H2268 0.950 . S
C2294 C2290 1.385 . S
C2294 C2293 1.374 . S
C2295 C2292 1.499 . S
C2295 C2296 1.373 . S
C2295 C2297 1.389 . S
C2296 H2269 0.950 1_455 S
C2296 C2282 1.377 . S
C2296 C2295 1.373 . S
C2297 C2281 1.377 . S
C2297 C2295 1.389 . S
C2297 C2298 1.524 . S
C2298 C2297 1.524 . S
C2298 C2299 1.397 . S
C2298 C2303 1.363 . S
C2299 H2270 0.950 . S
C2299 C2298 1.397 . S
C2299 C2300 1.334 . S
C2300 H2271 0.950 . S
C2300 C2299 1.334 . S
C2300 C2301 1.287 . S
C2301 C2300 1.287 . S
C2301 C2302 1.524 . S
C2301 H2304 0.999 . S
C2302 H2272 0.950 . S
C2302 C2301 1.524 . S
C2302 C2303 1.415 . S
C2303 H2273 0.950 . S
C2303 C2298 1.363 . S
C2303 C2302 1.415 . S
H2304 C2301 0.999 . S
H2305 C2286 0.913 . S
H2306 C2324 0.951 . S
H2307 C2326 0.951 . S
H2308 C2328 0.950 . S
H2309 C2329 0.950 . S
H2310 C2331 0.950 . S
H2311 C2334 0.950 . S
H2312 C2335 0.950 . S
H2313 C2337 0.950 . S
H2314 C2338 0.950 . S
H2315 C2339 0.951 1_655 S
H2316 C2341 0.951 . S
H2317 C2343 0.950 . S
H2318 C2344 0.950 . S
H2319 C2346 0.950 . S
H2320 C2349 0.950 . S
H2321 C2350 0.950 . S
H2322 C2352 0.950 . S
H2323 C2353 0.950 . S
C2324 H2306 0.951 . S
C2324 C2325 1.366 1_455 S
C2324 C2326 1.388 . S
C2325 C2324 1.366 1_655 S
C2325 C2329 1.385 . S
C2326 H2307 0.951 . S
C2326 C2324 1.388 . S
C2326 C2327 1.366 1_455 S
C2327 C2326 1.366 1_655 S
C2327 C2328 1.414 . S
C2327 C2330 1.510 . S
C2328 H2308 0.950 . S
C2328 C2327 1.414 . S
C2328 C2329 1.374 . S
C2329 H2309 0.950 . S
C2329 C2325 1.385 . S
C2329 C2328 1.374 . S
C2330 C2327 1.510 . S
C2330 C2331 1.380 . S
C2330 C2332 1.371 1_655 S
C2331 H2310 0.950 . S
C2331 C2330 1.380 . S
C2331 C2347 1.377 1_655 S
C2332 C2330 1.371 1_455 S
C2332 C2333 1.524 . S
C2332 C2346 1.377 . S
C2333 C2332 1.524 . S
C2333 C2334 1.397 1_455 S
C2333 C2338 1.363 . S
C2334 H2311 0.950 . S
C2334 C2333 1.397 1_655 S
C2334 C2335 1.334 . S
C2335 H2312 0.950 . S
C2335 C2334 1.334 . S
C2335 C2336 1.287 1_655 S
C2336 C2335 1.287 1_455 S
C2336 C2337 1.524 . S
C2336 H2355 0.913 . S
C2337 H2313 0.950 . S
C2337 C2336 1.524 . S
C2337 C2338 1.415 . S
C2338 H2314 0.950 . S
C2338 C2333 1.363 . S
C2338 C2337 1.415 . S
C2339 H2315 0.951 1_455 S
C2339 C2340 1.366 . S
C2339 C2341 1.388 1_455 S
C2340 C2339 1.366 . S
C2340 C2344 1.385 . S
C2341 H2316 0.951 . S
C2341 C2339 1.388 1_655 S
C2341 C2342 1.366 1_655 S
C2342 C2341 1.366 1_455 S
C2342 C2343 1.414 . S
C2342 C2345 1.499 . S
C2343 H2317 0.950 . S
C2343 C2342 1.414 . S
C2343 C2344 1.374 . S
C2344 H2318 0.950 . S
C2344 C2340 1.385 . S
C2344 C2343 1.374 . S
C2345 C2342 1.499 . S
C2345 C2346 1.373 . S
C2345 C2347 1.389 . S
C2346 H2319 0.950 . S
C2346 C2332 1.377 . S
C2346 C2345 1.373 . S
C2347 C2331 1.377 1_455 S
C2347 C2345 1.389 . S
C2347 C2348 1.523 1_455 S
C2348 C2347 1.523 1_655 S
C2348 C2349 1.379 1_655 S
C2348 C2353 1.380 . S
C2349 H2320 0.950 . S
C2349 C2348 1.379 1_455 S
C2349 C2350 1.334 . S
C2350 H2321 0.950 . S
C2350 C2349 1.334 . S
C2350 C2351 1.328 . S
C2351 C2350 1.328 . S
C2351 C2352 1.480 1_455 S
C2351 H2354 0.999 1_455 S
C2352 H2322 0.950 . S
C2352 C2351 1.480 1_655 S
C2352 C2353 1.415 . S
C2353 H2323 0.950 . S
C2353 C2348 1.380 . S
C2353 C2352 1.415 . S
H2354 C2351 0.999 1_655 S
H2355 C2336 0.913 . S
H2356 C2374 0.951 . S
H2357 C2376 0.951 . S
H2358 C2378 0.950 . S
H2359 C2379 0.950 . S
H2360 C2381 0.950 . S
H2361 C2384 0.950 . S
H2362 C2385 0.950 . S
H2363 C2387 0.950 . S
H2364 C2388 0.950 . S
H2365 C2389 0.951 . S
H2366 C2391 0.951 . S
H2367 C2393 0.950 . S
H2368 C2394 0.950 . S
H2369 C2396 0.950 . S
H2370 C2399 0.950 . S
H2371 C2400 0.950 . S
H2372 C2402 0.950 . S
H2373 C2403 0.950 . S
C2374 H2356 0.951 . S
C2374 C2375 1.366 . S
C2374 C2376 1.388 . S
C2375 C2374 1.366 . S
C2375 C2379 1.385 . S
C2376 H2357 0.951 . S
C2376 C2374 1.388 . S
C2376 C2377 1.366 . S
C2377 C2376 1.366 . S
C2377 C2378 1.414 . S
C2377 C2380 1.499 . S
C2378 H2358 0.950 . S
C2378 C2377 1.414 . S
C2378 C2379 1.374 . S
C2379 H2359 0.950 . S
C2379 C2375 1.385 . S
C2379 C2378 1.374 . S
C2380 C2377 1.499 . S
C2380 C2381 1.373 . S
C2380 C2382 1.389 . S
C2381 H2360 0.950 . S
C2381 C2380 1.373 . S
C2381 C2397 1.377 . S
C2382 C2380 1.389 . S
C2382 C2383 1.524 . S
C2382 C2396 1.377 . S
C2383 C2382 1.524 . S
C2383 C2384 1.397 . S
C2383 C2388 1.363 . S
C2384 H2361 0.950 . S
C2384 C2383 1.397 . S
C2384 C2385 1.334 . S
C2385 H2362 0.950 . S
C2385 C2384 1.334 . S
C2385 C2386 1.287 . S
C2386 C2385 1.287 . S
C2386 C2387 1.524 . S
C2386 H2405 0.913 . S
C2387 H2363 0.950 . S
C2387 C2386 1.524 . S
C2387 C2388 1.415 . S
C2388 H2364 0.950 . S
C2388 C2383 1.363 . S
C2388 C2387 1.415 . S
C2389 H2365 0.951 . S
C2389 C2390 1.366 . S
C2389 C2391 1.388 . S
C2390 C2389 1.366 . S
C2390 C2394 1.385 . S
C2391 H2366 0.951 . S
C2391 C2389 1.388 . S
C2391 C2392 1.366 . S
C2392 C2391 1.366 . S
C2392 C2393 1.414 . S
C2392 C2395 1.499 . S
C2393 H2367 0.950 . S
C2393 C2392 1.414 . S
C2393 C2394 1.374 . S
C2394 H2368 0.950 . S
C2394 C2390 1.385 . S
C2394 C2393 1.374 . S
C2395 C2392 1.499 . S
C2395 C2396 1.373 . S
C2395 C2397 1.389 . S
C2396 H2369 0.950 . S
C2396 C2382 1.377 . S
C2396 C2395 1.373 . S
C2397 C2381 1.377 . S
C2397 C2395 1.389 . S
C2397 C2398 1.524 . S
C2398 C2397 1.524 . S
C2398 C2399 1.397 . S
C2398 C2403 1.363 . S
C2399 H2370 0.950 . S
C2399 C2398 1.397 . S
C2399 C2400 1.334 . S
C2400 H2371 0.950 . S
C2400 C2399 1.334 . S
C2400 C2401 1.287 1_545 S
C2401 C2400 1.287 1_565 S
C2401 C2402 1.524 . S
C2401 H2404 0.999 . S
C2402 H2372 0.950 . S
C2402 C2401 1.524 . S
C2402 C2403 1.415 1_565 S
C2403 H2373 0.950 . S
C2403 C2398 1.363 . S
C2403 C2402 1.415 1_545 S
H2404 C2401 0.999 . S
H2405 C2386 0.913 . S
H2406 C2424 0.951 . S
H2407 C2426 0.951 . S
H2408 C2428 0.950 . S
H2409 C2429 0.950 . S
H2410 C2431 0.950 . S
H2411 C2434 0.950 . S
H2412 C2435 0.950 . S
H2413 C2437 0.950 . S
H2414 C2438 0.950 . S
H2415 C2439 0.951 . S
H2416 C2441 0.951 . S
H2417 C2443 0.950 . S
H2418 C2444 0.950 . S
H2419 C2446 0.950 . S
H2420 C2449 0.950 . S
H2421 C2450 0.950 . S
H2422 C2452 0.950 . S
H2423 C2453 0.950 . S
C2424 H2406 0.951 . S
C2424 C2425 1.366 . S
C2424 C2426 1.388 . S
C2425 C2424 1.366 . S
C2425 C2429 1.385 . S
C2426 H2407 0.951 . S
C2426 C2424 1.388 . S
C2426 C2427 1.366 . S
C2427 C2426 1.366 . S
C2427 C2428 1.414 . S
C2427 C2430 1.499 . S
C2428 H2408 0.950 . S
C2428 C2427 1.414 . S
C2428 C2429 1.374 . S
C2429 H2409 0.950 . S
C2429 C2425 1.385 . S
C2429 C2428 1.374 . S
C2430 C2427 1.499 . S
C2430 C2431 1.373 . S
C2430 C2432 1.389 . S
C2431 H2410 0.950 . S
C2431 C2430 1.373 . S
C2431 C2447 1.377 . S
C2432 C2430 1.389 . S
C2432 C2433 1.524 . S
C2432 C2446 1.377 . S
C2433 C2432 1.524 . S
C2433 C2434 1.397 . S
C2433 C2438 1.363 . S
C2434 H2411 0.950 . S
C2434 C2433 1.397 . S
C2434 C2435 1.334 . S
C2435 H2412 0.950 . S
C2435 C2434 1.334 . S
C2435 C2436 1.287 . S
C2436 C2435 1.287 . S
C2436 C2437 1.524 . S
C2436 H2455 0.913 . S
C2437 H2413 0.950 . S
C2437 C2436 1.524 . S
C2437 C2438 1.415 . S
C2438 H2414 0.950 . S
C2438 C2433 1.363 . S
C2438 C2437 1.415 . S
C2439 H2415 0.951 . S
C2439 C2440 1.366 . S
C2439 C2441 1.388 . S
C2440 C2439 1.366 . S
C2440 C2444 1.385 . S
C2441 H2416 0.951 . S
C2441 C2439 1.388 . S
C2441 C2442 1.366 . S
C2442 C2441 1.366 . S
C2442 C2443 1.414 . S
C2442 C2445 1.499 . S
C2443 H2417 0.950 . S
C2443 C2442 1.414 . S
C2443 C2444 1.374 . S
C2444 H2418 0.950 . S
C2444 C2440 1.385 . S
C2444 C2443 1.374 . S
C2445 C2442 1.499 . S
C2445 C2446 1.373 . S
C2445 C2447 1.389 . S
C2446 H2419 0.950 . S
C2446 C2432 1.377 . S
C2446 C2445 1.373 . S
C2447 C2431 1.377 . S
C2447 C2445 1.389 . S
C2447 C2448 1.524 . S
C2448 C2447 1.524 . S
C2448 C2449 1.397 . S
C2448 C2453 1.363 . S
C2449 H2420 0.950 . S
C2449 C2448 1.397 . S
C2449 C2450 1.334 . S
C2450 H2421 0.950 . S
C2450 C2449 1.334 . S
C2450 C2451 1.287 . S
C2451 C2450 1.287 . S
C2451 C2452 1.524 . S
C2451 H2454 0.999 . S
C2452 H2422 0.950 . S
C2452 C2451 1.524 . S
C2452 C2453 1.415 . S
C2453 H2423 0.950 . S
C2453 C2448 1.363 . S
C2453 C2452 1.415 . S
H2454 C2451 0.999 . S
H2455 C2436 0.913 . S
H2456 C2474 0.951 . S
H2457 C2476 0.951 . S
H2458 C2478 0.950 . S
H2459 C2479 0.950 . S
H2460 C2481 0.950 . S
H2461 C2484 0.950 . S
H2462 C2485 0.950 . S
H2463 C2487 0.950 . S
H2464 C2488 0.950 . S
H2465 C2489 0.951 . S
H2466 C2491 0.951 . S
H2467 C2493 0.950 . S
H2468 C2494 0.950 . S
H2469 C2496 0.950 . S
H2470 C2499 0.950 . S
H2471 C2500 0.950 . S
H2472 C2502 0.950 . S
H2473 C2503 0.950 . S
C2474 H2456 0.951 . S
C2474 C2475 1.366 1_565 S
C2474 C2476 1.388 . S
C2475 C2474 1.366 1_545 S
C2475 C2479 1.385 . S
C2476 H2457 0.951 . S
C2476 C2474 1.388 . S
C2476 C2477 1.366 1_565 S
C2477 C2476 1.366 1_545 S
C2477 C2478 1.414 . S
C2477 C2480 1.501 . S
C2478 H2458 0.950 . S
C2478 C2477 1.414 . S
C2478 C2479 1.374 . S
C2479 H2459 0.950 . S
C2479 C2475 1.385 . S
C2479 C2478 1.374 . S
C2480 C2477 1.501 . S
C2480 C2481 1.413 . S
C2480 C2482 1.351 1_545 S
C2481 H2460 0.950 . S
C2481 C2480 1.413 . S
C2481 C2497 1.377 . S
C2482 C2480 1.351 1_565 S
C2482 C2483 1.524 . S
C2482 C2496 1.377 . S
C2483 C2482 1.524 . S
C2483 C2484 1.397 . S
C2483 C2488 1.363 . S
C2484 H2461 0.950 . S
C2484 C2483 1.397 . S
C2484 C2485 1.334 . S
C2485 H2462 0.950 . S
C2485 C2484 1.334 . S
C2485 C2486 1.287 . S
C2486 C2485 1.287 . S
C2486 C2487 1.524 . S
C2486 H2505 0.913 . S
C2487 H2463 0.950 . S
C2487 C2486 1.524 . S
C2487 C2488 1.415 . S
C2488 H2464 0.950 . S
C2488 C2483 1.363 . S
C2488 C2487 1.415 . S
C2489 H2465 0.951 . S
C2489 C2490 1.366 1_545 S
C2489 C2491 1.388 . S
C2490 C2489 1.366 1_565 S
C2490 C2494 1.385 . S
C2491 H2466 0.951 . S
C2491 C2489 1.388 . S
C2491 C2492 1.366 . S
C2492 C2491 1.366 . S
C2492 C2493 1.414 1_545 S
C2492 C2495 1.499 . S
C2493 H2467 0.950 . S
C2493 C2492 1.414 1_565 S
C2493 C2494 1.374 . S
C2494 H2468 0.950 . S
C2494 C2490 1.385 . S
C2494 C2493 1.374 . S
C2495 C2492 1.499 . S
C2495 C2496 1.373 1_545 S
C2495 C2497 1.389 . S
C2496 H2469 0.950 . S
C2496 C2482 1.377 . S
C2496 C2495 1.373 1_565 S
C2497 C2481 1.377 . S
C2497 C2495 1.389 . S
C2497 C2498 1.524 . S
C2498 C2497 1.524 . S
C2498 C2499 1.397 . S
C2498 C2503 1.363 . S
C2499 H2470 0.950 . S
C2499 C2498 1.397 . S
C2499 C2500 1.334 . S
C2500 H2471 0.950 . S
C2500 C2499 1.334 . S
C2500 C2501 1.287 . S
C2501 C2500 1.287 . S
C2501 C2502 1.524 . S
C2501 H2504 0.999 . S
C2502 H2472 0.950 . S
C2502 C2501 1.524 . S
C2502 C2503 1.415 . S
C2503 H2473 0.950 . S
C2503 C2498 1.363 . S
C2503 C2502 1.415 . S
H2504 C2501 0.999 . S
H2505 C2486 0.913 . S
H2506 C2524 0.951 . S
H2507 C2526 0.951 . S
H2508 C2528 0.950 . S
H2509 C2529 0.950 . S
H2510 C2531 0.950 . S
H2511 C2534 0.950 . S
H2512 C2535 0.950 . S
H2513 C2537 0.950 . S
H2514 C2538 0.950 . S
H2515 C2539 0.951 . S
H2516 C2541 0.951 . S
H2517 C2543 0.950 . S
H2518 C2544 0.950 . S
H2519 C2546 0.950 . S
H2520 C2549 0.950 . S
H2521 C2550 0.950 . S
H2522 C2552 0.950 . S
H2523 C2553 0.950 . S
C2524 H2506 0.951 . S
C2524 C2525 1.366 . S
C2524 C2526 1.388 . S
C2525 C2524 1.366 . S
C2525 C2529 1.385 . S
C2526 H2507 0.951 . S
C2526 C2524 1.388 . S
C2526 C2527 1.366 . S
C2527 C2526 1.366 . S
C2527 C2528 1.414 . S
C2527 C2530 1.499 . S
C2528 H2508 0.950 . S
C2528 C2527 1.414 . S
C2528 C2529 1.374 . S
C2529 H2509 0.950 . S
C2529 C2525 1.385 . S
C2529 C2528 1.374 . S
C2530 C2527 1.499 . S
C2530 C2531 1.373 . S
C2530 C2532 1.389 . S
C2531 H2510 0.950 . S
C2531 C2530 1.373 . S
C2531 C2547 1.377 . S
C2532 C2530 1.389 . S
C2532 C2533 1.524 . S
C2532 C2546 1.377 . S
C2533 C2532 1.524 . S
C2533 C2534 1.397 . S
C2533 C2538 1.363 . S
C2534 H2511 0.950 . S
C2534 C2533 1.397 . S
C2534 C2535 1.334 . S
C2535 H2512 0.950 . S
C2535 C2534 1.334 . S
C2535 C2536 1.287 . S
C2536 C2535 1.287 . S
C2536 C2537 1.524 . S
C2536 H2555 0.913 . S
C2537 H2513 0.950 . S
C2537 C2536 1.524 . S
C2537 C2538 1.415 . S
C2538 H2514 0.950 . S
C2538 C2533 1.363 . S
C2538 C2537 1.415 . S
C2539 H2515 0.951 . S
C2539 C2540 1.366 . S
C2539 C2541 1.388 . S
C2540 C2539 1.366 . S
C2540 C2544 1.385 . S
C2541 H2516 0.951 . S
C2541 C2539 1.388 . S
C2541 C2542 1.366 . S
C2542 C2541 1.366 . S
C2542 C2543 1.414 . S
C2542 C2545 1.499 . S
C2543 H2517 0.950 . S
C2543 C2542 1.414 . S
C2543 C2544 1.374 . S
C2544 H2518 0.950 . S
C2544 C2540 1.385 . S
C2544 C2543 1.374 . S
C2545 C2542 1.499 . S
C2545 C2546 1.373 . S
C2545 C2547 1.389 . S
C2546 H2519 0.950 . S
C2546 C2532 1.377 . S
C2546 C2545 1.373 . S
C2547 C2531 1.377 . S
C2547 C2545 1.389 . S
C2547 C2548 1.524 . S
C2548 C2547 1.524 . S
C2548 C2549 1.397 . S
C2548 C2553 1.363 . S
C2549 H2520 0.950 . S
C2549 C2548 1.397 . S
C2549 C2550 1.334 . S
C2550 H2521 0.950 . S
C2550 C2549 1.334 . S
C2550 C2551 1.287 . S
C2551 C2550 1.287 . S
C2551 C2552 1.524 . S
C2551 H2554 0.999 . S
C2552 H2522 0.950 . S
C2552 C2551 1.524 . S
C2552 C2553 1.415 . S
C2553 H2523 0.950 . S
C2553 C2548 1.363 . S
C2553 C2552 1.415 . S
H2554 C2551 0.999 . S
H2555 C2536 0.913 . S
H2556 C2574 0.951 1_556 S
H2557 C2576 0.951 . S
H2558 C2578 0.950 . S
H2559 C2579 0.950 . S
H2560 C2581 0.950 . S
H2561 C2584 0.950 . S
H2562 C2585 0.950 . S
H2563 C2587 0.950 . S
H2564 C2588 0.950 . S
H2565 C2589 0.951 . S
H2566 C2591 0.951 . S
H2567 C2593 0.950 . S
H2568 C2594 0.950 . S
H2569 C2596 0.950 . S
H2570 C2599 0.950 1_556 S
H2571 C2600 0.950 . S
H2572 C2602 0.950 . S
H2573 C2603 0.950 . S
C2574 H2556 0.951 1_554 S
C2574 C2575 1.366 . S
C2574 C2576 1.388 . S
C2575 C2574 1.366 . S
C2575 C2579 1.385 . S
C2576 H2557 0.951 . S
C2576 C2574 1.388 . S
C2576 C2577 1.366 . S
C2577 C2576 1.366 . S
C2577 C2578 1.414 . S
C2577 C2580 1.499 . S
C2578 H2558 0.950 . S
C2578 C2577 1.414 . S
C2578 C2579 1.374 . S
C2579 H2559 0.950 . S
C2579 C2575 1.385 . S
C2579 C2578 1.374 . S
C2580 C2577 1.499 . S
C2580 C2581 1.373 . S
C2580 C2582 1.389 . S
C2581 H2560 0.950 . S
C2581 C2580 1.373 . S
C2581 C2597 1.377 . S
C2582 C2580 1.389 . S
C2582 C2583 1.524 . S
C2582 C2596 1.377 . S
C2583 C2582 1.524 . S
C2583 C2584 1.397 . S
C2583 C2588 1.363 . S
C2584 H2561 0.950 . S
C2584 C2583 1.397 . S
C2584 C2585 1.334 . S
C2585 H2562 0.950 . S
C2585 C2584 1.334 . S
C2585 C2586 1.287 . S
C2586 C2585 1.287 . S
C2586 C2587 1.524 . S
C2586 H2605 0.913 . S
C2587 H2563 0.950 . S
C2587 C2586 1.524 . S
C2587 C2588 1.415 . S
C2588 H2564 0.950 . S
C2588 C2583 1.363 . S
C2588 C2587 1.415 . S
C2589 H2565 0.951 . S
C2589 C2590 1.366 . S
C2589 C2591 1.388 . S
C2590 C2589 1.366 . S
C2590 C2594 1.385 . S
C2591 H2566 0.951 . S
C2591 C2589 1.388 . S
C2591 C2592 1.366 . S
C2592 C2591 1.366 . S
C2592 C2593 1.414 . S
C2592 C2595 1.499 . S
C2593 H2567 0.950 . S
C2593 C2592 1.414 . S
C2593 C2594 1.374 . S
C2594 H2568 0.950 . S
C2594 C2590 1.385 . S
C2594 C2593 1.374 . S
C2595 C2592 1.499 . S
C2595 C2596 1.373 . S
C2595 C2597 1.389 . S
C2596 H2569 0.950 . S
C2596 C2582 1.377 . S
C2596 C2595 1.373 . S
C2597 C2581 1.377 . S
C2597 C2595 1.389 . S
C2597 C2598 1.524 . S
C2598 C2597 1.524 . S
C2598 C2599 1.397 . S
C2598 C2603 1.363 . S
C2599 H2570 0.950 1_554 S
C2599 C2598 1.397 . S
C2599 C2600 1.334 1_554 S
C2600 H2571 0.950 . S
C2600 C2599 1.334 1_556 S
C2600 C2601 1.287 1_556 S
C2601 C2600 1.287 1_554 S
C2601 C2602 1.524 . S
C2601 H2604 0.999 1_554 S
C2602 H2572 0.950 . S
C2602 C2601 1.524 . S
C2602 C2603 1.415 . S
C2603 H2573 0.950 . S
C2603 C2598 1.363 . S
C2603 C2602 1.415 . S
H2604 C2601 0.999 1_556 S
H2605 C2586 0.913 . S
H2606 C2624 0.951 . S
H2607 C2626 0.951 . S
H2608 C2628 0.950 . S
H2609 C2629 0.950 . S
H2610 C2631 0.950 . S
H2611 C2634 0.950 . S
H2612 C2635 0.950 . S
H2613 C2637 0.950 . S
H2614 C2638 0.950 . S
H2615 C2639 0.951 . S
H2616 C2641 0.951 . S
H2617 C2643 0.950 . S
H2618 C2644 0.950 . S
H2619 C2646 0.950 . S
H2620 C2649 0.950 . S
H2621 C2650 0.950 . S
H2622 C2652 0.950 . S
H2623 C2653 0.950 . S
C2624 H2606 0.951 . S
C2624 C2625 1.366 . S
C2624 C2626 1.388 . S
C2625 C2624 1.366 . S
C2625 C2629 1.385 . S
C2626 H2607 0.951 . S
C2626 C2624 1.388 . S
C2626 C2627 1.366 . S
C2627 C2626 1.366 . S
C2627 C2628 1.414 . S
C2627 C2630 1.499 . S
C2628 H2608 0.950 . S
C2628 C2627 1.414 . S
C2628 C2629 1.374 . S
C2629 H2609 0.950 . S
C2629 C2625 1.385 . S
C2629 C2628 1.374 . S
C2630 C2627 1.499 . S
C2630 C2631 1.373 . S
C2630 C2632 1.389 . S
C2631 H2610 0.950 . S
C2631 C2630 1.373 . S
C2631 C2647 1.377 . S
C2632 C2630 1.389 . S
C2632 C2633 1.524 . S
C2632 C2646 1.377 . S
C2633 C2632 1.524 . S
C2633 C2634 1.397 . S
C2633 C2638 1.363 . S
C2634 H2611 0.950 . S
C2634 C2633 1.397 . S
C2634 C2635 1.334 . S
C2635 H2612 0.950 . S
C2635 C2634 1.334 . S
C2635 C2636 1.287 . S
C2636 C2635 1.287 . S
C2636 C2637 1.524 . S
C2636 H2655 0.913 . S
C2637 H2613 0.950 . S
C2637 C2636 1.524 . S
C2637 C2638 1.415 . S
C2638 H2614 0.950 . S
C2638 C2633 1.363 . S
C2638 C2637 1.415 . S
C2639 H2615 0.951 . S
C2639 C2640 1.366 . S
C2639 C2641 1.388 . S
C2640 C2639 1.366 . S
C2640 C2644 1.385 . S
C2641 H2616 0.951 . S
C2641 C2639 1.388 . S
C2641 C2642 1.366 . S
C2642 C2641 1.366 . S
C2642 C2643 1.414 . S
C2642 C2645 1.499 . S
C2643 H2617 0.950 . S
C2643 C2642 1.414 . S
C2643 C2644 1.374 . S
C2644 H2618 0.950 . S
C2644 C2640 1.385 . S
C2644 C2643 1.374 . S
C2645 C2642 1.499 . S
C2645 C2646 1.373 . S
C2645 C2647 1.389 . S
C2646 H2619 0.950 . S
C2646 C2632 1.377 . S
C2646 C2645 1.373 . S
C2647 C2631 1.377 . S
C2647 C2645 1.389 . S
C2647 C2648 1.524 . S
C2648 C2647 1.524 . S
C2648 C2649 1.397 . S
C2648 C2653 1.363 . S
C2649 H2620 0.950 . S
C2649 C2648 1.397 . S
C2649 C2650 1.334 . S
C2650 H2621 0.950 . S
C2650 C2649 1.334 . S
C2650 C2651 1.287 . S
C2651 C2650 1.287 . S
C2651 C2652 1.524 . S
C2651 H2654 0.999 . S
C2652 H2622 0.950 . S
C2652 C2651 1.524 . S
C2652 C2653 1.415 . S
C2653 H2623 0.950 . S
C2653 C2648 1.363 . S
C2653 C2652 1.415 . S
H2654 C2651 0.999 . S
H2655 C2636 0.913 . S
H2656 C2674 0.951 . S
H2657 C2676 0.951 . S
H2658 C2678 0.950 . S
H2659 C2679 0.950 . S
H2660 C2681 0.950 . S
H2661 C2684 0.950 . S
H2662 C2685 0.950 . S
H2663 C2687 0.950 . S
H2664 C2688 0.950 . S
H2665 C2689 0.951 . S
H2666 C2691 0.951 . S
H2667 C2693 0.950 . S
H2668 C2694 0.950 . S
H2669 C2696 0.950 . S
H2670 C2699 0.950 . S
H2671 C2700 0.950 . S
H2672 C2702 0.950 . S
H2673 C2703 0.950 . S
C2674 H2656 0.951 . S
C2674 C2675 1.366 . S
C2674 C2676 1.388 . S
C2675 C2674 1.366 . S
C2675 C2679 1.385 . S
C2676 H2657 0.951 . S
C2676 C2674 1.388 . S
C2676 C2677 1.366 . S
C2677 C2676 1.366 . S
C2677 C2678 1.414 . S
C2677 C2680 1.499 . S
C2678 H2658 0.950 . S
C2678 C2677 1.414 . S
C2678 C2679 1.374 . S
C2679 H2659 0.950 . S
C2679 C2675 1.385 . S
C2679 C2678 1.374 . S
C2680 C2677 1.499 . S
C2680 C2681 1.373 . S
C2680 C2682 1.389 . S
C2681 H2660 0.950 . S
C2681 C2680 1.373 . S
C2681 C2697 1.377 . S
C2682 C2680 1.389 . S
C2682 C2683 1.524 . S
C2682 C2696 1.377 . S
C2683 C2682 1.524 . S
C2683 C2684 1.397 . S
C2683 C2688 1.363 . S
C2684 H2661 0.950 . S
C2684 C2683 1.397 . S
C2684 C2685 1.334 . S
C2685 H2662 0.950 . S
C2685 C2684 1.334 . S
C2685 C2686 1.287 . S
C2686 C2685 1.287 . S
C2686 C2687 1.524 . S
C2686 H2705 0.913 . S
C2687 H2663 0.950 . S
C2687 C2686 1.524 . S
C2687 C2688 1.415 . S
C2688 H2664 0.950 . S
C2688 C2683 1.363 . S
C2688 C2687 1.415 . S
C2689 H2665 0.951 . S
C2689 C2690 1.366 . S
C2689 C2691 1.388 . S
C2690 C2689 1.366 . S
C2690 C2694 1.385 . S
C2691 H2666 0.951 . S
C2691 C2689 1.388 . S
C2691 C2692 1.366 . S
C2692 C2691 1.366 . S
C2692 C2693 1.414 . S
C2692 C2695 1.499 . S
C2693 H2667 0.950 . S
C2693 C2692 1.414 . S
C2693 C2694 1.374 . S
C2694 H2668 0.950 . S
C2694 C2690 1.385 . S
C2694 C2693 1.374 . S
C2695 C2692 1.499 . S
C2695 C2696 1.373 . S
C2695 C2697 1.389 . S
C2696 H2669 0.950 . S
C2696 C2682 1.377 . S
C2696 C2695 1.373 . S
C2697 C2681 1.377 . S
C2697 C2695 1.389 . S
C2697 C2698 1.524 . S
C2698 C2697 1.524 . S
C2698 C2699 1.397 . S
C2698 C2703 1.363 . S
C2699 H2670 0.950 . S
C2699 C2698 1.397 . S
C2699 C2700 1.334 1_655 S
C2700 H2671 0.950 . S
C2700 C2699 1.334 1_455 S
C2700 C2701 1.287 . S
C2701 C2700 1.287 . S
C2701 C2702 1.524 . S
C2701 H2704 0.999 . S
C2702 H2672 0.950 . S
C2702 C2701 1.524 . S
C2702 C2703 1.415 1_455 S
C2703 H2673 0.950 . S
C2703 C2698 1.363 . S
C2703 C2702 1.415 1_655 S
H2704 C2701 0.999 . S
H2705 C2686 0.913 . S
H2706 C2724 0.951 . S
H2707 C2726 0.951 . S
H2708 C2728 0.950 . S
H2709 C2729 0.950 . S
H2710 C2731 0.950 . S
H2711 C2734 0.950 . S
H2712 C2735 0.950 . S
H2713 C2737 0.950 . S
H2714 C2738 0.950 . S
H2715 C2739 0.951 . S
H2716 C2741 0.951 . S
H2717 C2743 0.950 . S
H2718 C2744 0.950 . S
H2719 C2746 0.950 . S
H2720 C2749 0.950 . S
H2721 C2750 0.950 . S
H2722 C2752 0.950 . S
H2723 C2753 0.950 . S
C2724 H2706 0.951 . S
C2724 C2725 1.366 . S
C2724 C2726 1.388 . S
C2725 C2724 1.366 . S
C2725 C2729 1.385 . S
C2726 H2707 0.951 . S
C2726 C2724 1.388 . S
C2726 C2727 1.366 . S
C2727 C2726 1.366 . S
C2727 C2728 1.414 . S
C2727 C2730 1.499 . S
C2728 H2708 0.950 . S
C2728 C2727 1.414 . S
C2728 C2729 1.374 . S
C2729 H2709 0.950 . S
C2729 C2725 1.385 . S
C2729 C2728 1.374 . S
C2730 C2727 1.499 . S
C2730 C2731 1.373 . S
C2730 C2732 1.389 . S
C2731 H2710 0.950 . S
C2731 C2730 1.373 . S
C2731 C2747 1.377 . S
C2732 C2730 1.389 . S
C2732 C2733 1.524 . S
C2732 C2746 1.377 . S
C2733 C2732 1.524 . S
C2733 C2734 1.397 . S
C2733 C2738 1.363 . S
C2734 H2711 0.950 . S
C2734 C2733 1.397 . S
C2734 C2735 1.334 . S
C2735 H2712 0.950 . S
C2735 C2734 1.334 . S
C2735 C2736 1.287 . S
C2736 C2735 1.287 . S
C2736 C2737 1.524 . S
C2736 H2755 0.913 . S
C2737 H2713 0.950 . S
C2737 C2736 1.524 . S
C2737 C2738 1.415 . S
C2738 H2714 0.950 . S
C2738 C2733 1.363 . S
C2738 C2737 1.415 . S
C2739 H2715 0.951 . S
C2739 C2740 1.366 . S
C2739 C2741 1.388 . S
C2740 C2739 1.366 . S
C2740 C2744 1.385 . S
C2741 H2716 0.951 . S
C2741 C2739 1.388 . S
C2741 C2742 1.366 . S
C2742 C2741 1.366 . S
C2742 C2743 1.414 . S
C2742 C2745 1.499 . S
C2743 H2717 0.950 . S
C2743 C2742 1.414 . S
C2743 C2744 1.374 . S
C2744 H2718 0.950 . S
C2744 C2740 1.385 . S
C2744 C2743 1.374 . S
C2745 C2742 1.499 . S
C2745 C2746 1.373 . S
C2745 C2747 1.389 . S
C2746 H2719 0.950 . S
C2746 C2732 1.377 . S
C2746 C2745 1.373 . S
C2747 C2731 1.377 . S
C2747 C2745 1.389 . S
C2747 C2748 1.524 . S
C2748 C2747 1.524 . S
C2748 C2749 1.397 . S
C2748 C2753 1.363 . S
C2749 H2720 0.950 . S
C2749 C2748 1.397 . S
C2749 C2750 1.334 . S
C2750 H2721 0.950 . S
C2750 C2749 1.334 . S
C2750 C2751 1.287 . S
C2751 C2750 1.287 . S
C2751 C2752 1.524 . S
C2751 H2754 0.999 . S
C2752 H2722 0.950 . S
C2752 C2751 1.524 . S
C2752 C2753 1.415 . S
C2753 H2723 0.950 . S
C2753 C2748 1.363 . S
C2753 C2752 1.415 . S
H2754 C2751 0.999 . S
H2755 C2736 0.913 . S
H2756 C2774 0.951 . S
H2757 C2776 0.951 . S
H2758 C2778 0.950 . S
H2759 C2779 0.950 . S
H2760 C2781 0.950 . S
H2761 C2784 0.950 . S
H2762 C2785 0.950 . S
H2763 C2787 0.950 . S
H2764 C2788 0.950 . S
H2765 C2789 0.951 . S
H2766 C2791 0.951 . S
H2767 C2793 0.950 . S
H2768 C2794 0.950 . S
H2769 C2796 0.950 . S
H2770 C2799 0.950 . S
H2771 C2800 0.950 . S
H2772 C2802 0.950 . S
H2773 C2803 0.950 . S
C2774 H2756 0.951 . S
C2774 C2775 1.366 . S
C2774 C2776 1.388 . S
C2775 C2774 1.366 . S
C2775 C2779 1.385 . S
C2776 H2757 0.951 . S
C2776 C2774 1.388 . S
C2776 C2777 1.366 . S
C2777 C2776 1.366 . S
C2777 C2778 1.414 . S
C2777 C2780 1.499 . S
C2778 H2758 0.950 . S
C2778 C2777 1.414 . S
C2778 C2779 1.374 . S
C2779 H2759 0.950 . S
C2779 C2775 1.385 . S
C2779 C2778 1.374 . S
C2780 C2777 1.499 . S
C2780 C2781 1.373 . S
C2780 C2782 1.389 . S
C2781 H2760 0.950 . S
C2781 C2780 1.373 . S
C2781 C2797 1.377 . S
C2782 C2780 1.389 . S
C2782 C2783 1.524 . S
C2782 C2796 1.377 . S
C2783 C2782 1.524 . S
C2783 C2784 1.397 . S
C2783 C2788 1.363 . S
C2784 H2761 0.950 . S
C2784 C2783 1.397 . S
C2784 C2785 1.334 . S
C2785 H2762 0.950 . S
C2785 C2784 1.334 . S
C2785 C2786 1.287 . S
C2786 C2785 1.287 . S
C2786 C2787 1.524 . S
C2786 H2805 0.913 . S
C2787 H2763 0.950 . S
C2787 C2786 1.524 . S
C2787 C2788 1.415 . S
C2788 H2764 0.950 . S
C2788 C2783 1.363 . S
C2788 C2787 1.415 . S
C2789 H2765 0.951 . S
C2789 C2790 1.366 . S
C2789 C2791 1.388 . S
C2790 C2789 1.366 . S
C2790 C2794 1.385 . S
C2791 H2766 0.951 . S
C2791 C2789 1.388 . S
C2791 C2792 1.366 . S
C2792 C2791 1.366 . S
C2792 C2793 1.414 . S
C2792 C2795 1.499 . S
C2793 H2767 0.950 . S
C2793 C2792 1.414 . S
C2793 C2794 1.374 . S
C2794 H2768 0.950 . S
C2794 C2790 1.385 . S
C2794 C2793 1.374 . S
C2795 C2792 1.499 . S
C2795 C2796 1.373 . S
C2795 C2797 1.389 . S
C2796 H2769 0.950 . S
C2796 C2782 1.377 . S
C2796 C2795 1.373 . S
C2797 C2781 1.377 . S
C2797 C2795 1.389 . S
C2797 C2798 1.524 . S
C2798 C2797 1.524 . S
C2798 C2799 1.397 . S
C2798 C2803 1.363 . S
C2799 H2770 0.950 . S
C2799 C2798 1.397 . S
C2799 C2800 1.334 . S
C2800 H2771 0.950 . S
C2800 C2799 1.334 . S
C2800 C2801 1.287 . S
C2801 C2800 1.287 . S
C2801 C2802 1.524 . S
C2801 H2804 0.999 . S
C2802 H2772 0.950 . S
C2802 C2801 1.524 . S
C2802 C2803 1.415 . S
C2803 H2773 0.950 . S
C2803 C2798 1.363 . S
C2803 C2802 1.415 . S
H2804 C2801 0.999 . S
H2805 C2786 0.913 . S
H2806 C2824 0.951 . S
H2807 C2826 0.951 . S
H2808 C2828 0.950 . S
H2809 C2829 0.950 . S
H2810 C2831 0.950 . S
H2811 C2834 0.950 . S
H2812 C2835 0.950 . S
H2813 C2837 0.950 . S
H2814 C2838 0.950 . S
H2815 C2839 0.951 . S
H2816 C2841 0.951 . S
H2817 C2843 0.950 . S
H2818 C2844 0.950 . S
H2819 C2846 0.950 . S
H2820 C2849 0.950 . S
H2821 C2850 0.950 . S
H2822 C2852 0.950 . S
H2823 C2853 0.950 . S
C2824 H2806 0.951 . S
C2824 C2825 1.366 . S
C2824 C2826 1.388 . S
C2825 C2824 1.366 . S
C2825 C2829 1.385 . S
C2826 H2807 0.951 . S
C2826 C2824 1.388 . S
C2826 C2827 1.366 . S
C2827 C2826 1.366 . S
C2827 C2828 1.414 . S
C2827 C2830 1.499 . S
C2828 H2808 0.950 . S
C2828 C2827 1.414 . S
C2828 C2829 1.374 . S
C2829 H2809 0.950 . S
C2829 C2825 1.385 . S
C2829 C2828 1.374 . S
C2830 C2827 1.499 . S
C2830 C2831 1.373 . S
C2830 C2832 1.389 . S
C2831 H2810 0.950 . S
C2831 C2830 1.373 . S
C2831 C2847 1.377 . S
C2832 C2830 1.389 . S
C2832 C2833 1.524 . S
C2832 C2846 1.377 . S
C2833 C2832 1.524 . S
C2833 C2834 1.397 . S
C2833 C2838 1.363 . S
C2834 H2811 0.950 . S
C2834 C2833 1.397 . S
C2834 C2835 1.334 . S
C2835 H2812 0.950 . S
C2835 C2834 1.334 . S
C2835 C2836 1.287 . S
C2836 C2835 1.287 . S
C2836 C2837 1.524 . S
C2836 H2855 0.913 . S
C2837 H2813 0.950 . S
C2837 C2836 1.524 . S
C2837 C2838 1.415 . S
C2838 H2814 0.950 . S
C2838 C2833 1.363 . S
C2838 C2837 1.415 . S
C2839 H2815 0.951 . S
C2839 C2840 1.366 . S
C2839 C2841 1.388 . S
C2840 C2839 1.366 . S
C2840 C2844 1.385 . S
C2841 H2816 0.951 . S
C2841 C2839 1.388 . S
C2841 C2842 1.366 . S
C2842 C2841 1.366 . S
C2842 C2843 1.414 . S
C2842 C2845 1.499 . S
C2843 H2817 0.950 . S
C2843 C2842 1.414 . S
C2843 C2844 1.374 . S
C2844 H2818 0.950 . S
C2844 C2840 1.385 . S
C2844 C2843 1.374 . S
C2845 C2842 1.499 . S
C2845 C2846 1.373 . S
C2845 C2847 1.389 . S
C2846 H2819 0.950 . S
C2846 C2832 1.377 . S
C2846 C2845 1.373 . S
C2847 C2831 1.377 . S
C2847 C2845 1.389 . S
C2847 C2848 1.524 . S
C2848 C2847 1.524 . S
C2848 C2849 1.397 . S
C2848 C2853 1.363 . S
C2849 H2820 0.950 . S
C2849 C2848 1.397 . S
C2849 C2850 1.334 . S
C2850 H2821 0.950 . S
C2850 C2849 1.334 . S
C2850 C2851 1.287 . S
C2851 C2850 1.287 . S
C2851 C2852 1.524 . S
C2851 H2854 0.999 . S
C2852 H2822 0.950 . S
C2852 C2851 1.524 . S
C2852 C2853 1.415 . S
C2853 H2823 0.950 . S
C2853 C2848 1.363 . S
C2853 C2852 1.415 . S
H2854 C2851 0.999 . S
H2855 C2836 0.913 . S
H2856 C2874 0.951 . S
H2857 C2876 0.951 . S
H2858 C2878 0.950 . S
H2859 C2879 0.950 . S
H2860 C2881 0.950 . S
H2861 C2884 0.950 . S
H2862 C2885 0.950 . S
H2863 C2887 0.950 . S
H2864 C2888 0.950 . S
H2865 C2889 0.951 . S
H2866 C2891 0.951 . S
H2867 C2893 0.950 . S
H2868 C2894 0.950 . S
H2869 C2896 0.950 . S
H2870 C2899 0.950 . S
H2871 C2900 0.950 . S
H2872 C2902 0.950 . S
H2873 C2903 0.950 . S
C2874 H2856 0.951 . S
C2874 C2875 1.366 . S
C2874 C2876 1.388 . S
C2875 C2874 1.366 . S
C2875 C2879 1.385 . S
C2876 H2857 0.951 . S
C2876 C2874 1.388 . S
C2876 C2877 1.366 . S
C2877 C2876 1.366 . S
C2877 C2878 1.414 . S
C2877 C2880 1.499 . S
C2878 H2858 0.950 . S
C2878 C2877 1.414 . S
C2878 C2879 1.374 . S
C2879 H2859 0.950 . S
C2879 C2875 1.385 . S
C2879 C2878 1.374 . S
C2880 C2877 1.499 . S
C2880 C2881 1.373 . S
C2880 C2882 1.389 . S
C2881 H2860 0.950 . S
C2881 C2880 1.373 . S
C2881 C2897 1.377 . S
C2882 C2880 1.389 . S
C2882 C2883 1.524 . S
C2882 C2896 1.377 . S
C2883 C2882 1.524 . S
C2883 C2884 1.397 . S
C2883 C2888 1.363 . S
C2884 H2861 0.950 . S
C2884 C2883 1.397 . S
C2884 C2885 1.334 . S
C2885 H2862 0.950 . S
C2885 C2884 1.334 . S
C2885 C2886 1.287 . S
C2886 C2885 1.287 . S
C2886 C2887 1.524 . S
C2886 H2905 0.913 . S
C2887 H2863 0.950 . S
C2887 C2886 1.524 . S
C2887 C2888 1.415 . S
C2888 H2864 0.950 . S
C2888 C2883 1.363 . S
C2888 C2887 1.415 . S
C2889 H2865 0.951 . S
C2889 C2890 1.366 . S
C2889 C2891 1.388 . S
C2890 C2889 1.366 . S
C2890 C2894 1.385 . S
C2891 H2866 0.951 . S
C2891 C2889 1.388 . S
C2891 C2892 1.366 . S
C2892 C2891 1.366 . S
C2892 C2893 1.414 . S
C2892 C2895 1.499 . S
C2893 H2867 0.950 . S
C2893 C2892 1.414 . S
C2893 C2894 1.374 . S
C2894 H2868 0.950 . S
C2894 C2890 1.385 . S
C2894 C2893 1.374 . S
C2895 C2892 1.499 . S
C2895 C2896 1.373 . S
C2895 C2897 1.389 . S
C2896 H2869 0.950 . S
C2896 C2882 1.377 . S
C2896 C2895 1.373 . S
C2897 C2881 1.377 . S
C2897 C2895 1.389 . S
C2897 C2898 1.524 . S
C2898 C2897 1.524 . S
C2898 C2899 1.397 . S
C2898 C2903 1.363 . S
C2899 H2870 0.950 . S
C2899 C2898 1.397 . S
C2899 C2900 1.334 . S
C2900 H2871 0.950 . S
C2900 C2899 1.334 . S
C2900 C2901 1.287 . S
C2901 C2900 1.287 . S
C2901 C2902 1.524 . S
C2901 H2904 0.999 . S
C2902 H2872 0.950 . S
C2902 C2901 1.524 . S
C2902 C2903 1.415 . S
C2903 H2873 0.950 . S
C2903 C2898 1.363 . S
C2903 C2902 1.415 . S
H2904 C2901 0.999 . S
H2905 C2886 0.913 . S
H2906 C2924 0.951 . S
H2907 C2926 0.951 . S
H2908 C2928 0.950 . S
H2909 C2929 0.950 . S
H2910 C2931 0.950 . S
H2911 C2934 0.950 . S
H2912 C2935 0.950 . S
H2913 C2937 0.950 . S
H2914 C2938 0.950 . S
H2915 C2939 0.951 . S
H2916 C2941 0.951 . S
H2917 C2943 0.950 . S
H2918 C2944 0.950 . S
H2919 C2946 0.950 . S
H2920 C2949 0.950 . S
H2921 C2950 0.950 . S
H2922 C2952 0.950 . S
H2923 C2953 0.950 . S
C2924 H2906 0.951 . S
C2924 C2925 1.366 . S
C2924 C2926 1.388 . S
C2925 C2924 1.366 . S
C2925 C2929 1.385 . S
C2926 H2907 0.951 . S
C2926 C2924 1.388 . S
C2926 C2927 1.366 . S
C2927 C2926 1.366 . S
C2927 C2928 1.414 . S
C2927 C2930 1.499 . S
C2928 H2908 0.950 . S
C2928 C2927 1.414 . S
C2928 C2929 1.374 . S
C2929 H2909 0.950 . S
C2929 C2925 1.385 . S
C2929 C2928 1.374 . S
C2930 C2927 1.499 . S
C2930 C2931 1.373 . S
C2930 C2932 1.389 . S
C2931 H2910 0.950 . S
C2931 C2930 1.373 . S
C2931 C2947 1.377 . S
C2932 C2930 1.389 . S
C2932 C2933 1.524 . S
C2932 C2946 1.377 . S
C2933 C2932 1.524 . S
C2933 C2934 1.397 . S
C2933 C2938 1.363 . S
C2934 H2911 0.950 . S
C2934 C2933 1.397 . S
C2934 C2935 1.334 . S
C2935 H2912 0.950 . S
C2935 C2934 1.334 . S
C2935 C2936 1.287 . S
C2936 C2935 1.287 . S
C2936 C2937 1.524 . S
C2936 H2955 0.913 . S
C2937 H2913 0.950 . S
C2937 C2936 1.524 . S
C2937 C2938 1.415 . S
C2938 H2914 0.950 . S
C2938 C2933 1.363 . S
C2938 C2937 1.415 . S
C2939 H2915 0.951 . S
C2939 C2940 1.366 . S
C2939 C2941 1.388 . S
C2940 C2939 1.366 . S
C2940 C2944 1.385 . S
C2941 H2916 0.951 . S
C2941 C2939 1.388 . S
C2941 C2942 1.366 . S
C2942 C2941 1.366 . S
C2942 C2943 1.414 . S
C2942 C2945 1.499 . S
C2943 H2917 0.950 . S
C2943 C2942 1.414 . S
C2943 C2944 1.374 . S
C2944 H2918 0.950 . S
C2944 C2940 1.385 . S
C2944 C2943 1.374 . S
C2945 C2942 1.499 . S
C2945 C2946 1.373 . S
C2945 C2947 1.389 . S
C2946 H2919 0.950 . S
C2946 C2932 1.377 . S
C2946 C2945 1.373 . S
C2947 C2931 1.377 . S
C2947 C2945 1.389 . S
C2947 C2948 1.524 . S
C2948 C2947 1.524 . S
C2948 C2949 1.397 . S
C2948 C2953 1.363 . S
C2949 H2920 0.950 . S
C2949 C2948 1.397 . S
C2949 C2950 1.334 . S
C2950 H2921 0.950 . S
C2950 C2949 1.334 . S
C2950 C2951 1.287 . S
C2951 C2950 1.287 . S
C2951 C2952 1.524 . S
C2951 H2954 0.999 . S
C2952 H2922 0.950 . S
C2952 C2951 1.524 . S
C2952 C2953 1.415 . S
C2953 H2923 0.950 . S
C2953 C2948 1.363 . S
C2953 C2952 1.415 . S
H2954 C2951 0.999 . S
H2955 C2936 0.913 . S
H2956 C2974 0.951 . S
H2957 C2976 0.951 . S
H2958 C2978 0.950 . S
H2959 C2979 0.950 . S
H2960 C2981 0.950 . S
H2961 C2984 0.950 . S
H2962 C2985 0.950 . S
H2963 C2987 0.950 . S
H2964 C2988 0.950 . S
H2965 C2989 0.951 . S
H2966 C2991 0.951 . S
H2967 C2993 0.950 . S
H2968 C2994 0.950 . S
H2969 C2996 0.950 . S
H2970 C2999 0.950 . S
H2971 C3000 0.950 . S
H2972 C3002 0.950 . S
H2973 C3003 0.950 . S
C2974 H2956 0.951 . S
C2974 C2975 1.366 . S
C2974 C2976 1.388 . S
C2975 C2974 1.366 . S
C2975 C2979 1.385 . S
C2976 H2957 0.951 . S
C2976 C2974 1.388 . S
C2976 C2977 1.366 . S
C2977 C2976 1.366 . S
C2977 C2978 1.414 . S
C2977 C2980 1.499 . S
C2978 H2958 0.950 . S
C2978 C2977 1.414 . S
C2978 C2979 1.374 . S
C2979 H2959 0.950 . S
C2979 C2975 1.385 . S
C2979 C2978 1.374 . S
C2980 C2977 1.499 . S
C2980 C2981 1.373 . S
C2980 C2982 1.389 . S
C2981 H2960 0.950 . S
C2981 C2980 1.373 . S
C2981 C2997 1.377 . S
C2982 C2980 1.389 . S
C2982 C2983 1.524 . S
C2982 C2996 1.377 . S
C2983 C2982 1.524 . S
C2983 C2984 1.397 . S
C2983 C2988 1.363 . S
C2984 H2961 0.950 . S
C2984 C2983 1.397 . S
C2984 C2985 1.334 . S
C2985 H2962 0.950 . S
C2985 C2984 1.334 . S
C2985 C2986 1.287 . S
C2986 C2985 1.287 . S
C2986 C2987 1.524 . S
C2986 H3005 0.913 . S
C2987 H2963 0.950 . S
C2987 C2986 1.524 . S
C2987 C2988 1.415 . S
C2988 H2964 0.950 . S
C2988 C2983 1.363 . S
C2988 C2987 1.415 . S
C2989 H2965 0.951 . S
C2989 C2990 1.366 . S
C2989 C2991 1.388 . S
C2990 C2989 1.366 . S
C2990 C2994 1.385 . S
C2991 H2966 0.951 . S
C2991 C2989 1.388 . S
C2991 C2992 1.366 . S
C2992 C2991 1.366 . S
C2992 C2993 1.414 . S
C2992 C2995 1.499 . S
C2993 H2967 0.950 . S
C2993 C2992 1.414 . S
C2993 C2994 1.374 . S
C2994 H2968 0.950 . S
C2994 C2990 1.385 . S
C2994 C2993 1.374 . S
C2995 C2992 1.499 . S
C2995 C2996 1.373 . S
C2995 C2997 1.389 . S
C2996 H2969 0.950 . S
C2996 C2982 1.377 . S
C2996 C2995 1.373 . S
C2997 C2981 1.377 . S
C2997 C2995 1.389 . S
C2997 C2998 1.524 . S
C2998 C2997 1.524 . S
C2998 C2999 1.397 . S
C2998 C3003 1.363 . S
C2999 H2970 0.950 . S
C2999 C2998 1.397 . S
C2999 C3000 1.334 . S
C3000 H2971 0.950 . S
C3000 C2999 1.334 . S
C3000 C3001 1.287 . S
C3001 C3000 1.287 . S
C3001 C3002 1.524 . S
C3001 H3004 0.999 . S
C3002 H2972 0.950 . S
C3002 C3001 1.524 . S
C3002 C3003 1.415 . S
C3003 H2973 0.950 . S
C3003 C2998 1.363 . S
C3003 C3002 1.415 . S
H3004 C3001 0.999 . S
H3005 C2986 0.913 . S
H3006 C3024 0.958 . S
H3007 C3026 0.951 . S
H3008 C3028 0.950 . S
H3009 C3029 0.950 . S
H3010 C3031 0.950 . S
H3011 C3034 0.950 . S
H3012 C3035 0.950 . S
H3013 C3037 0.950 . S
H3014 C3038 0.950 1_545 S
H3015 C3039 0.951 . S
H3016 C3041 0.951 . S
H3017 C3043 0.950 . S
H3018 C3044 0.950 . S
H3019 C3046 0.950 . S
H3020 C3049 0.950 . S
H3021 C3050 0.950 . S
H3022 C3052 0.950 . S
H3023 C3053 0.950 . S
C3024 H3006 0.958 . S
C3024 C3025 1.346 1_545 S
C3024 C3026 1.403 . S
C3025 C3024 1.346 1_565 S
C3025 C3029 1.385 . S
C3026 H3007 0.951 . S
C3026 C3024 1.403 . S
C3026 C3027 1.366 . S
C3027 C3026 1.366 . S
C3027 C3028 1.414 1_545 S
C3027 C3030 1.499 . S
C3028 H3008 0.950 . S
C3028 C3027 1.414 1_565 S
C3028 C3029 1.374 . S
C3029 H3009 0.950 . S
C3029 C3025 1.385 . S
C3029 C3028 1.374 . S
C3030 C3027 1.499 . S
C3030 C3031 1.373 . S
C3030 C3032 1.389 . S
C3031 H3010 0.950 . S
C3031 C3030 1.373 . S
C3031 C3047 1.377 . S
C3032 C3030 1.389 . S
C3032 C3033 1.524 1_545 S
C3032 C3046 1.377 . S
C3033 C3032 1.524 1_565 S
C3033 C3034 1.397 . S
C3033 C3038 1.363 . S
C3034 H3011 0.950 . S
C3034 C3033 1.397 . S
C3034 C3035 1.334 . S
C3035 H3012 0.950 . S
C3035 C3034 1.334 . S
C3035 C3036 1.287 . S
C3036 C3035 1.287 . S
C3036 C3037 1.524 . S
C3036 H3055 0.913 . S
C3037 H3013 0.950 . S
C3037 C3036 1.524 . S
C3037 C3038 1.415 . S
C3038 H3014 0.950 1_565 S
C3038 C3033 1.363 . S
C3038 C3037 1.415 . S
C3039 H3015 0.951 . S
C3039 C3040 1.366 . S
C3039 C3041 1.388 . S
C3040 C3039 1.366 . S
C3040 C3044 1.385 . S
C3041 H3016 0.951 . S
C3041 C3039 1.388 . S
C3041 C3042 1.366 . S
C3042 C3041 1.366 . S
C3042 C3043 1.414 . S
C3042 C3045 1.499 . S
C3043 H3017 0.950 . S
C3043 C3042 1.414 . S
C3043 C3044 1.374 . S
C3044 H3018 0.950 . S
C3044 C3040 1.385 . S
C3044 C3043 1.374 . S
C3045 C3042 1.499 . S
C3045 C3046 1.373 . S
C3045 C3047 1.389 . S
C3046 H3019 0.950 . S
C3046 C3032 1.377 . S
C3046 C3045 1.373 . S
C3047 C3031 1.377 . S
C3047 C3045 1.389 . S
C3047 C3048 1.524 . S
C3048 C3047 1.524 . S
C3048 C3049 1.397 . S
C3048 C3053 1.363 . S
C3049 H3020 0.950 . S
C3049 C3048 1.397 . S
C3049 C3050 1.334 . S
C3050 H3021 0.950 . S
C3050 C3049 1.334 . S
C3050 C3051 1.287 . S
C3051 C3050 1.287 . S
C3051 C3052 1.524 . S
C3051 H3054 0.999 . S
C3052 H3022 0.950 . S
C3052 C3051 1.524 . S
C3052 C3053 1.415 . S
C3053 H3023 0.950 . S
C3053 C3048 1.363 . S
C3053 C3052 1.415 . S
H3054 C3051 0.999 . S
H3055 C3036 0.913 . S
H3056 C3074 0.951 . S
H3057 C3076 0.951 . S
H3058 C3078 0.950 . S
H3059 C3079 0.950 . S
H3060 C3081 0.950 . S
H3061 C3084 0.950 . S
H3062 C3085 0.950 . S
H3063 C3087 0.950 . S
H3064 C3088 0.950 . S
H3065 C3089 0.951 1_554 S
H3066 C3091 0.951 . S
H3067 C3093 0.950 . S
H3068 C3094 0.950 . S
H3069 C3096 0.950 . S
H3070 C3099 0.950 . S
H3071 C3100 0.950 . S
H3072 C3102 0.950 . S
H3073 C3103 0.950 . S
C3074 H3056 0.951 . S
C3074 C3075 1.366 . S
C3074 C3076 1.388 . S
C3075 C3074 1.366 . S
C3075 C3079 1.385 . S
C3076 H3057 0.951 . S
C3076 C3074 1.388 . S
C3076 C3077 1.366 . S
C3077 C3076 1.366 . S
C3077 C3078 1.414 . S
C3077 C3080 1.499 . S
C3078 H3058 0.950 . S
C3078 C3077 1.414 . S
C3078 C3079 1.374 . S
C3079 H3059 0.950 . S
C3079 C3075 1.385 . S
C3079 C3078 1.374 . S
C3080 C3077 1.499 . S
C3080 C3081 1.373 . S
C3080 C3082 1.389 . S
C3081 H3060 0.950 . S
C3081 C3080 1.373 . S
C3081 C3097 1.377 . S
C3082 C3080 1.389 . S
C3082 C3083 1.524 . S
C3082 C3096 1.377 . S
C3083 C3082 1.524 . S
C3083 C3084 1.397 . S
C3083 C3088 1.363 . S
C3084 H3061 0.950 . S
C3084 C3083 1.397 . S
C3084 C3085 1.334 . S
C3085 H3062 0.950 . S
C3085 C3084 1.334 . S
C3085 C3086 1.287 . S
C3086 C3085 1.287 . S
C3086 C3087 1.524 . S
C3086 H3105 0.913 . S
C3087 H3063 0.950 . S
C3087 C3086 1.524 . S
C3087 C3088 1.415 . S
C3088 H3064 0.950 . S
C3088 C3083 1.363 . S
C3088 C3087 1.415 . S
C3089 H3065 0.951 1_556 S
C3089 C3090 1.366 . S
C3089 C3091 1.388 . S
C3090 C3089 1.366 . S
C3090 C3094 1.385 . S
C3091 H3066 0.951 . S
C3091 C3089 1.388 . S
C3091 C3092 1.366 . S
C3092 C3091 1.366 . S
C3092 C3093 1.414 . S
C3092 C3095 1.499 . S
C3093 H3067 0.950 . S
C3093 C3092 1.414 . S
C3093 C3094 1.374 . S
C3094 H3068 0.950 . S
C3094 C3090 1.385 . S
C3094 C3093 1.374 . S
C3095 C3092 1.499 . S
C3095 C3096 1.373 . S
C3095 C3097 1.389 . S
C3096 H3069 0.950 . S
C3096 C3082 1.377 . S
C3096 C3095 1.373 . S
C3097 C3081 1.377 . S
C3097 C3095 1.389 . S
C3097 C3098 1.524 . S
C3098 C3097 1.524 . S
C3098 C3099 1.397 . S
C3098 C3103 1.363 . S
C3099 H3070 0.950 . S
C3099 C3098 1.397 . S
C3099 C3100 1.334 . S
C3100 H3071 0.950 . S
C3100 C3099 1.334 . S
C3100 C3101 1.287 . S
C3101 C3100 1.287 . S
C3101 C3102 1.524 . S
C3101 H3104 0.999 . S
C3102 H3072 0.950 . S
C3102 C3101 1.524 . S
C3102 C3103 1.415 . S
C3103 H3073 0.950 . S
C3103 C3098 1.363 . S
C3103 C3102 1.415 . S
H3104 C3101 0.999 . S
H3105 C3086 0.913 . S
H3106 C3124 0.951 . S
H3107 C3126 0.951 . S
H3108 C3128 0.950 . S
H3109 C3129 0.950 . S
H3110 C3131 0.950 . S
H3111 C3134 0.950 1_545 S
H3112 C3135 0.950 . S
H3113 C3137 0.950 . S
H3114 C3138 0.950 . S
H3115 C3139 0.951 1_554 S
H3116 C3141 0.951 . S
H3117 C3143 0.950 1_565 S
H3118 C3144 0.950 1_565 S
H3119 C3146 0.950 1_565 S
H3120 C3149 0.950 . S
H3121 C3150 0.950 . S
H3122 C3152 0.950 . S
H3123 C3153 0.950 . S
C3124 H3106 0.951 . S
C3124 C3125 1.366 1_565 S
C3124 C3126 1.388 . S
C3125 C3124 1.366 1_545 S
C3125 C3129 1.385 . S
C3126 H3107 0.951 . S
C3126 C3124 1.388 . S
C3126 C3127 1.366 1_565 S
C3127 C3126 1.366 1_545 S
C3127 C3128 1.414 . S
C3127 C3130 1.499 . S
C3128 H3108 0.950 . S
C3128 C3127 1.414 . S
C3128 C3129 1.374 . S
C3129 H3109 0.950 . S
C3129 C3125 1.385 . S
C3129 C3128 1.374 . S
C3130 C3127 1.499 . S
C3130 C3131 1.373 . S
C3130 C3132 1.389 . S
C3131 H3110 0.950 . S
C3131 C3130 1.373 . S
C3131 C3147 1.377 . S
C3132 C3130 1.389 . S
C3132 C3133 1.524 1_545 S
C3132 C3146 1.377 . S
C3133 C3132 1.524 1_565 S
C3133 C3134 1.397 . S
C3133 C3138 1.363 . S
C3134 H3111 0.950 1_565 S
C3134 C3133 1.397 . S
C3134 C3135 1.334 . S
C3135 H3112 0.950 . S
C3135 C3134 1.334 . S
C3135 C3136 1.287 . S
C3136 C3135 1.287 . S
C3136 C3137 1.524 . S
C3136 H3155 0.913 . S
C3137 H3113 0.950 . S
C3137 C3136 1.524 . S
C3137 C3138 1.415 . S
C3138 H3114 0.950 . S
C3138 C3133 1.363 . S
C3138 C3137 1.415 . S
C3139 H3115 0.951 1_556 S
C3139 C3140 1.366 . S
C3139 C3141 1.388 . S
C3140 C3139 1.366 . S
C3140 C3144 1.385 . S
C3141 H3116 0.951 . S
C3141 C3139 1.388 . S
C3141 C3142 1.366 . S
C3142 C3141 1.366 . S
C3142 C3143 1.414 . S
C3142 C3145 1.499 . S
C3143 H3117 0.950 1_545 S
C3143 C3142 1.414 . S
C3143 C3144 1.374 . S
C3144 H3118 0.950 1_545 S
C3144 C3140 1.385 . S
C3144 C3143 1.374 . S
C3145 C3142 1.499 . S
C3145 C3146 1.373 . S
C3145 C3147 1.389 . S
C3146 H3119 0.950 1_545 S
C3146 C3132 1.377 . S
C3146 C3145 1.373 . S
C3147 C3131 1.377 . S
C3147 C3145 1.389 . S
C3147 C3148 1.524 . S
C3148 C3147 1.524 . S
C3148 C3149 1.397 . S
C3148 C3153 1.363 . S
C3149 H3120 0.950 . S
C3149 C3148 1.397 . S
C3149 C3150 1.334 . S
C3150 H3121 0.950 . S
C3150 C3149 1.334 . S
C3150 C3151 1.287 . S
C3151 C3150 1.287 . S
C3151 C3152 1.524 . S
C3151 H3154 0.999 . S
C3152 H3122 0.950 . S
C3152 C3151 1.524 . S
C3152 C3153 1.415 . S
C3153 H3123 0.950 . S
C3153 C3148 1.363 . S
C3153 C3152 1.415 . S
H3154 C3151 0.999 . S
H3155 C3136 0.913 . S
H3156 C3174 0.951 . S
H3157 C3176 0.951 . S
H3158 C3178 0.950 . S
H3159 C3179 0.950 . S
H3160 C3181 0.950 . S
H3161 C3184 0.950 . S
H3162 C3185 0.950 . S
H3163 C3187 0.950 . S
H3164 C3188 0.950 . S
H3165 C3189 0.951 . S
H3166 C3191 0.951 . S
H3167 C3193 0.950 . S
H3168 C3194 0.950 . S
H3169 C3196 0.950 . S
H3170 C3199 0.950 . S
H3171 C3200 0.950 . S
H3172 C3202 0.950 . S
H3173 C3203 0.950 . S
C3174 H3156 0.951 . S
C3174 C3175 1.366 . S
C3174 C3176 1.388 . S
C3175 C3174 1.366 . S
C3175 C3179 1.385 . S
C3176 H3157 0.951 . S
C3176 C3174 1.388 . S
C3176 C3177 1.366 . S
C3177 C3176 1.366 . S
C3177 C3178 1.414 . S
C3177 C3180 1.499 . S
C3178 H3158 0.950 . S
C3178 C3177 1.414 . S
C3178 C3179 1.374 . S
C3179 H3159 0.950 . S
C3179 C3175 1.385 . S
C3179 C3178 1.374 . S
C3180 C3177 1.499 . S
C3180 C3181 1.373 . S
C3180 C3182 1.389 . S
C3181 H3160 0.950 . S
C3181 C3180 1.373 . S
C3181 C3197 1.377 . S
C3182 C3180 1.389 . S
C3182 C3183 1.524 . S
C3182 C3196 1.377 . S
C3183 C3182 1.524 . S
C3183 C3184 1.397 . S
C3183 C3188 1.363 . S
C3184 H3161 0.950 . S
C3184 C3183 1.397 . S
C3184 C3185 1.334 . S
C3185 H3162 0.950 . S
C3185 C3184 1.334 . S
C3185 C3186 1.287 . S
C3186 C3185 1.287 . S
C3186 C3187 1.524 . S
C3186 H3205 0.913 . S
C3187 H3163 0.950 . S
C3187 C3186 1.524 . S
C3187 C3188 1.415 . S
C3188 H3164 0.950 . S
C3188 C3183 1.363 . S
C3188 C3187 1.415 . S
C3189 H3165 0.951 . S
C3189 C3190 1.366 . S
C3189 C3191 1.388 . S
C3190 C3189 1.366 . S
C3190 C3194 1.385 . S
C3191 H3166 0.951 . S
C3191 C3189 1.388 . S
C3191 C3192 1.366 . S
C3192 C3191 1.366 . S
C3192 C3193 1.414 . S
C3192 C3195 1.499 . S
C3193 H3167 0.950 . S
C3193 C3192 1.414 . S
C3193 C3194 1.374 . S
C3194 H3168 0.950 . S
C3194 C3190 1.385 . S
C3194 C3193 1.374 . S
C3195 C3192 1.499 . S
C3195 C3196 1.373 . S
C3195 C3197 1.389 . S
C3196 H3169 0.950 . S
C3196 C3182 1.377 . S
C3196 C3195 1.373 . S
C3197 C3181 1.377 . S
C3197 C3195 1.389 . S
C3197 C3198 1.524 . S
C3198 C3197 1.524 . S
C3198 C3199 1.397 . S
C3198 C3203 1.363 . S
C3199 H3170 0.950 . S
C3199 C3198 1.397 . S
C3199 C3200 1.334 . S
C3200 H3171 0.950 . S
C3200 C3199 1.334 . S
C3200 C3201 1.287 . S
C3201 C3200 1.287 . S
C3201 C3202 1.524 . S
C3201 H3204 0.999 . S
C3202 H3172 0.950 . S
C3202 C3201 1.524 . S
C3202 C3203 1.415 . S
C3203 H3173 0.950 . S
C3203 C3198 1.363 . S
C3203 C3202 1.415 . S
H3204 C3201 0.999 . S
H3205 C3186 0.913 . S
H3206 C3224 0.951 . S
H3207 C3226 0.951 . S
H3208 C3228 0.950 . S
H3209 C3229 0.950 . S
H3210 C3231 0.950 . S
H3211 C3234 0.950 . S
H3212 C3235 0.950 . S
H3213 C3237 0.950 . S
H3214 C3238 0.950 . S
H3215 C3239 0.951 . S
H3216 C3241 0.951 . S
H3217 C3243 0.950 . S
H3218 C3244 0.950 . S
H3219 C3246 0.950 . S
H3220 C3249 0.950 . S
H3221 C3250 0.950 . S
H3222 C3252 0.950 . S
H3223 C3253 0.950 . S
C3224 H3206 0.951 . S
C3224 C3225 1.366 . S
C3224 C3226 1.388 . S
C3225 C3224 1.366 . S
C3225 C3229 1.385 . S
C3226 H3207 0.951 . S
C3226 C3224 1.388 . S
C3226 C3227 1.366 . S
C3227 C3226 1.366 . S
C3227 C3228 1.414 . S
C3227 C3230 1.501 . S
C3228 H3208 0.950 . S
C3228 C3227 1.414 . S
C3228 C3229 1.374 . S
C3229 H3209 0.950 . S
C3229 C3225 1.385 . S
C3229 C3228 1.374 . S
C3230 C3227 1.501 . S
C3230 C3231 1.363 1_556 S
C3230 C3232 1.397 . S
C3231 H3210 0.950 . S
C3231 C3230 1.363 1_554 S
C3231 C3247 1.377 . S
C3232 C3230 1.397 . S
C3232 C3233 1.524 . S
C3232 C3246 1.377 . S
C3233 C3232 1.524 . S
C3233 C3234 1.397 . S
C3233 C3238 1.363 . S
C3234 H3211 0.950 . S
C3234 C3233 1.397 . S
C3234 C3235 1.334 . S
C3235 H3212 0.950 . S
C3235 C3234 1.334 . S
C3235 C3236 1.287 . S
C3236 C3235 1.287 . S
C3236 C3237 1.524 . S
C3236 H3255 0.913 . S
C3237 H3213 0.950 . S
C3237 C3236 1.524 . S
C3237 C3238 1.415 . S
C3238 H3214 0.950 . S
C3238 C3233 1.363 . S
C3238 C3237 1.415 . S
C3239 H3215 0.951 . S
C3239 C3240 1.366 . S
C3239 C3241 1.388 . S
C3240 C3239 1.366 . S
C3240 C3244 1.385 . S
C3241 H3216 0.951 . S
C3241 C3239 1.388 . S
C3241 C3242 1.366 . S
C3242 C3241 1.366 . S
C3242 C3243 1.414 . S
C3242 C3245 1.499 . S
C3243 H3217 0.950 . S
C3243 C3242 1.414 . S
C3243 C3244 1.374 . S
C3244 H3218 0.950 . S
C3244 C3240 1.385 . S
C3244 C3243 1.374 . S
C3245 C3242 1.499 . S
C3245 C3246 1.373 1_554 S
C3245 C3247 1.389 . S
C3246 H3219 0.950 . S
C3246 C3232 1.377 . S
C3246 C3245 1.373 1_556 S
C3247 C3231 1.377 . S
C3247 C3245 1.389 . S
C3247 C3248 1.524 . S
C3248 C3247 1.524 . S
C3248 C3249 1.397 . S
C3248 C3253 1.363 . S
C3249 H3220 0.950 . S
C3249 C3248 1.397 . S
C3249 C3250 1.334 . S
C3250 H3221 0.950 . S
C3250 C3249 1.334 . S
C3250 C3251 1.287 . S
C3251 C3250 1.287 . S
C3251 C3252 1.524 . S
C3251 H3254 0.999 . S
C3252 H3222 0.950 . S
C3252 C3251 1.524 . S
C3252 C3253 1.415 . S
C3253 H3223 0.950 . S
C3253 C3248 1.363 . S
C3253 C3252 1.415 . S
H3254 C3251 0.999 . S
H3255 C3236 0.913 . S
H3256 C3274 0.951 . S
H3257 C3276 0.951 . S
H3258 C3278 0.950 . S
H3259 C3279 0.950 . S
H3260 C3281 0.950 . S
H3261 C3284 0.950 . S
H3262 C3285 0.950 . S
H3263 C3287 0.950 . S
H3264 C3288 0.950 . S
H3265 C3289 0.951 . S
H3266 C3291 0.951 . S
H3267 C3293 0.950 . S
H3268 C3294 0.950 . S
H3269 C3296 0.950 . S
H3270 C3299 0.950 . S
H3271 C3300 0.950 . S
H3272 C3302 0.950 . S
H3273 C3303 0.950 . S
C3274 H3256 0.951 . S
C3274 C3275 1.366 . S
C3274 C3276 1.388 . S
C3275 C3274 1.366 . S
C3275 C3279 1.385 . S
C3276 H3257 0.951 . S
C3276 C3274 1.388 . S
C3276 C3277 1.366 . S
C3277 C3276 1.366 . S
C3277 C3278 1.414 . S
C3277 C3280 1.499 . S
C3278 H3258 0.950 . S
C3278 C3277 1.414 . S
C3278 C3279 1.374 . S
C3279 H3259 0.950 . S
C3279 C3275 1.385 . S
C3279 C3278 1.374 . S
C3280 C3277 1.499 . S
C3280 C3281 1.373 1_556 S
C3280 C3282 1.389 . S
C3281 H3260 0.950 . S
C3281 C3280 1.373 1_554 S
C3281 C3297 1.377 . S
C3282 C3280 1.389 . S
C3282 C3283 1.524 . S
C3282 C3296 1.377 . S
C3283 C3282 1.524 . S
C3283 C3284 1.397 . S
C3283 C3288 1.363 . S
C3284 H3261 0.950 . S
C3284 C3283 1.397 . S
C3284 C3285 1.334 . S
C3285 H3262 0.950 . S
C3285 C3284 1.334 . S
C3285 C3286 1.287 . S
C3286 C3285 1.287 . S
C3286 C3287 1.524 . S
C3286 H3305 0.913 . S
C3287 H3263 0.950 . S
C3287 C3286 1.524 . S
C3287 C3288 1.415 . S
C3288 H3264 0.950 . S
C3288 C3283 1.363 . S
C3288 C3287 1.415 . S
C3289 H3265 0.951 . S
C3289 C3290 1.366 . S
C3289 C3291 1.388 . S
C3290 C3289 1.366 . S
C3290 C3294 1.385 . S
C3291 H3266 0.951 . S
C3291 C3289 1.388 . S
C3291 C3292 1.366 . S
C3292 C3291 1.366 . S
C3292 C3293 1.414 . S
C3292 C3295 1.499 . S
C3293 H3267 0.950 . S
C3293 C3292 1.414 . S
C3293 C3294 1.374 . S
C3294 H3268 0.950 . S
C3294 C3290 1.385 . S
C3294 C3293 1.374 . S
C3295 C3292 1.499 . S
C3295 C3296 1.373 1_554 S
C3295 C3297 1.389 . S
C3296 H3269 0.950 . S
C3296 C3282 1.377 . S
C3296 C3295 1.373 1_556 S
C3297 C3281 1.377 . S
C3297 C3295 1.389 . S
C3297 C3298 1.524 . S
C3298 C3297 1.524 . S
C3298 C3299 1.397 . S
C3298 C3303 1.363 . S
C3299 H3270 0.950 . S
C3299 C3298 1.397 . S
C3299 C3300 1.334 . S
C3300 H3271 0.950 . S
C3300 C3299 1.334 . S
C3300 C3301 1.287 . S
C3301 C3300 1.287 . S
C3301 C3302 1.524 . S
C3301 H3304 0.999 . S
C3302 H3272 0.950 . S
C3302 C3301 1.524 . S
C3302 C3303 1.415 . S
C3303 H3273 0.950 . S
C3303 C3298 1.363 . S
C3303 C3302 1.415 . S
H3304 C3301 0.999 . S
H3305 C3286 0.913 . S
H3306 C3324 0.951 . S
H3307 C3326 0.951 . S
H3308 C3328 0.950 . S
H3309 C3329 0.950 1_556 S
H3310 C3331 0.950 . S
H3311 C3334 0.950 . S
H3312 C3335 0.950 . S
H3313 C3337 0.950 . S
H3314 C3338 0.950 . S
H3315 C3339 0.951 . S
H3316 C3341 0.951 . S
H3317 C3343 0.950 . S
H3318 C3344 0.950 1_455 S
H3319 C3346 0.950 . S
H3320 C3349 0.950 . S
H3321 C3350 1.010 . S
H3322 C3352 0.950 . S
H3323 C3353 0.950 . S
C3324 H3306 0.951 . S
C3324 C3325 1.366 . S
C3324 C3326 1.388 . S
C3325 C3324 1.366 . S
C3325 C3329 1.385 . S
C3326 H3307 0.951 . S
C3326 C3324 1.388 . S
C3326 C3327 1.366 . S
C3327 C3326 1.366 . S
C3327 C3328 1.414 . S
C3327 C3330 1.499 . S
C3328 H3308 0.950 . S
C3328 C3327 1.414 . S
C3328 C3329 1.374 . S
C3329 H3309 0.950 1_554 S
C3329 C3325 1.385 . S
C3329 C3328 1.374 . S
C3330 C3327 1.499 . S
C3330 C3331 1.373 . S
C3330 C3332 1.389 . S
C3331 H3310 0.950 . S
C3331 C3330 1.373 . S
C3331 C3347 1.377 . S
C3332 C3330 1.389 . S
C3332 C3333 1.524 . S
C3332 C3346 1.377 . S
C3333 C3332 1.524 . S
C3333 C3334 1.397 . S
C3333 C3338 1.363 . S
C3334 H3311 0.950 . S
C3334 C3333 1.397 . S
C3334 C3335 1.334 . S
C3335 H3312 0.950 . S
C3335 C3334 1.334 . S
C3335 C3336 1.287 . S
C3336 C3335 1.287 . S
C3336 C3337 1.524 . S
C3336 H3355 0.913 . S
C3337 H3313 0.950 . S
C3337 C3336 1.524 . S
C3337 C3338 1.415 . S
C3338 H3314 0.950 . S
C3338 C3333 1.363 . S
C3338 C3337 1.415 . S
C3339 H3315 0.951 . S
C3339 C3340 1.366 . S
C3339 C3341 1.388 . S
C3340 C3339 1.366 . S
C3340 C3344 1.385 . S
C3341 H3316 0.951 . S
C3341 C3339 1.388 . S
C3341 C3342 1.366 . S
C3342 C3341 1.366 . S
C3342 C3343 1.414 . S
C3342 C3345 1.499 . S
C3343 H3317 0.950 . S
C3343 C3342 1.414 . S
C3343 C3344 1.374 . S
C3344 H3318 0.950 1_655 S
C3344 C3340 1.385 . S
C3344 C3343 1.374 . S
C3345 C3342 1.499 . S
C3345 C3346 1.373 . S
C3345 C3347 1.389 . S
C3346 H3319 0.950 . S
C3346 C3332 1.377 . S
C3346 C3345 1.373 . S
C3347 C3331 1.377 . S
C3347 C3345 1.389 . S
C3347 C3348 1.524 . S
C3348 C3347 1.524 . S
C3348 C3349 1.397 . S
C3348 C3353 1.359 . S
C3349 H3320 0.950 . S
C3349 C3348 1.397 . S
C3349 C3350 1.334 1_554 S
C3350 H3321 1.010 . S
C3350 C3349 1.334 1_556 S
C3350 C3351 1.287 . S
C3351 C3350 1.287 . S
C3351 C3352 1.524 . S
C3351 H3354 0.999 . S
C3352 H3322 0.950 . S
C3352 C3351 1.524 . S
C3352 C3353 1.419 1_556 S
C3353 H3323 0.950 . S
C3353 C3348 1.359 . S
C3353 C3352 1.419 1_554 S
H3354 C3351 0.999 . S
H3355 C3336 0.913 . S
C975 C22 2.465 . S
C990 C735 2.328 . S
C1040 C764 3.238 . S
C1025 C38 3.229 . S
C1090 C641 1.366 1_565 S
C1075 C75 1.361 . S
C1125 C91 1.943 . S
C1140 C685 1.943 . S
C1175 C128 3.221 . S
C1190 C935 3.147 . S
C1225 C197 1.963 . S
C1240 C881 1.968 . S
C1290 C814 2.745 . S
C1275 C144 2.829 . S
C1325 C181 1.137 . S
C1340 C844 1.117 . S
C1390 C691 1.800 . S
C1375 C234 1.822 . S
C1440 C761 2.498 . S
C1425 C303 2.489 . S
C1475 C356 1.991 . S
C1490 C724 2.004 . S
C1525 C287 2.006 . S
C1540 C855 1.970 . S
C1590 C895 2.377 . S
C1575 C393 2.494 . S
C1640 C924 3.146 . S
C1625 C409 3.138 . S
C1675 C462 1.499 . S
C1690 C841 1.499 . S
C1740 C805 1.961 . S
C1725 C446 1.949 . S
C1775 C499 2.993 . S
C1790 C775 2.904 . S
C1825 C552 1.728 . S
C1840 C721 1.753 . S
C1890 C694 2.841 . S
C1875 C515 2.913 . S
C1925 C568 1.486 . S
C1940 C644 1.445 . S
C1990 C811 1.758 . S
C1975 C340 1.767 . S
C2040 C921 2.445 . S
C2025 C621 2.434 . S
C2075 C250 1.772 . S
C2090 C884 1.773 . S
C2125 C605 1.850 . S
C2140 C655 1.793 . S
C2190 C654 1.206 . S
C2175 C39 1.244 . S
C2225 C29 1.757 . S
C2240 C684 1.612 1_455 S
C2290 C731 0.738 . S
C2275 C92 0.726 . S
C2340 C765 1.755 . S
C2325 C82 1.778 . S
C2375 C145 1.938 . S
C2390 C645 1.920 . S
C2425 C188 1.381 . S
C2440 C681 1.303 . S
C2490 C734 0.713 . S
C2475 C135 0.692 . S
C2525 C198 0.663 . S
C2540 C771 0.680 . S
C2575 C251 1.107 . S
C2590 C651 1.050 . S
C2640 C725 2.185 . S
C2625 C294 2.236 . S
C2675 C347 1.754 . S
C2690 C774 1.610 . S
C2725 C304 0.745 . S
C2740 C815 0.746 . S
C2790 C854 1.172 . S
C2775 C410 1.226 . S
C2825 C400 1.756 . S
C2840 C804 1.642 . S
C2875 C453 0.433 . S
C2890 C891 0.589 . S
C2925 C463 2.257 . S
C2940 C925 2.195 . S
C2975 C516 2.070 . S
C2990 C845 2.051 . S
C3040 C801 1.525 . S
C3025 C569 1.621 . S
C3075 C506 0.486 . S
C3090 C894 0.652 . S
C3140 C931 0.517 . S
C3125 C559 0.423 . S
C3190 C851 1.013 . S
C3175 C357 1.051 . S
C3240 C885 2.222 . S
C3225 C612 2.283 . S
C3290 C934 1.506 . S
C3275 C241 1.609 . S
C3325 C622 0.400 . S
C3340 C695 0.445 . S
