# Generated by pormake.
# Topology ibd, (4,6)-cn, num edge types: 1
# Building blocks:
#     Node 0, Type 0, BuildingBlock: QUQFOY_clean_sbu_3, # of connection points: 4
#     Node 1, Type 0, BuildingBlock: QUQFOY_clean_sbu_3, # of connection points: 4
#     Node 2, Type 0, BuildingBlock: QUQFOY_clean_sbu_3, # of connection points: 4
#     Node 3, Type 0, BuildingBlock: QUQFOY_clean_sbu_3, # of connection points: 4
#     Node 4, Type 0, BuildingBlock: QUQFOY_clean_sbu_3, # of connection points: 4
#     Node 5, Type 0, BuildingBlock: QUQFOY_clean_sbu_3, # of connection points: 4
#     Node 6, Type 0, BuildingBlock: QUQFOY_clean_sbu_3, # of connection points: 4
#     Node 7, Type 0, BuildingBlock: QUQFOY_clean_sbu_3, # of connection points: 4
#     Node 8, Type 0, BuildingBlock: QUQFOY_clean_sbu_3, # of connection points: 4
#     Node 9, Type 0, BuildingBlock: QUQFOY_clean_sbu_3, # of connection points: 4
#     Node 10, Type 0, BuildingBlock: QUQFOY_clean_sbu_3, # of connection points: 4
#     Node 11, Type 0, BuildingBlock: QUQFOY_clean_sbu_3, # of connection points: 4
#     Node 12, Type 0, BuildingBlock: QUQFOY_clean_sbu_3, # of connection points: 4
#     Node 13, Type 0, BuildingBlock: QUQFOY_clean_sbu_3, # of connection points: 4
#     Node 14, Type 0, BuildingBlock: QUQFOY_clean_sbu_3, # of connection points: 4
#     Node 15, Type 0, BuildingBlock: QUQFOY_clean_sbu_3, # of connection points: 4
#     Node 16, Type 0, BuildingBlock: QUQFOY_clean_sbu_3, # of connection points: 4
#     Node 17, Type 0, BuildingBlock: QUQFOY_clean_sbu_3, # of connection points: 4
#     Node 18, Type 0, BuildingBlock: QUQFOY_clean_sbu_3, # of connection points: 4
#     Node 19, Type 0, BuildingBlock: QUQFOY_clean_sbu_3, # of connection points: 4
#     Node 20, Type 0, BuildingBlock: QUQFOY_clean_sbu_3, # of connection points: 4
#     Node 21, Type 0, BuildingBlock: QUQFOY_clean_sbu_3, # of connection points: 4
#     Node 22, Type 0, BuildingBlock: QUQFOY_clean_sbu_3, # of connection points: 4
#     Node 23, Type 0, BuildingBlock: QUQFOY_clean_sbu_3, # of connection points: 4
#     Node 24, Type 1, BuildingBlock: OJICUG_clean_sbu_0, # of connection points: 6
#     Node 25, Type 1, BuildingBlock: OJICUG_clean_sbu_0, # of connection points: 6
#     Node 26, Type 1, BuildingBlock: OJICUG_clean_sbu_0, # of connection points: 6
#     Node 27, Type 1, BuildingBlock: OJICUG_clean_sbu_0, # of connection points: 6
#     Node 28, Type 1, BuildingBlock: OJICUG_clean_sbu_0, # of connection points: 6
#     Node 29, Type 1, BuildingBlock: OJICUG_clean_sbu_0, # of connection points: 6
#     Node 30, Type 1, BuildingBlock: OJICUG_clean_sbu_0, # of connection points: 6
#     Node 31, Type 1, BuildingBlock: OJICUG_clean_sbu_0, # of connection points: 6
#     Node 32, Type 1, BuildingBlock: OJICUG_clean_sbu_0, # of connection points: 6
#     Node 33, Type 1, BuildingBlock: OJICUG_clean_sbu_0, # of connection points: 6
#     Node 34, Type 1, BuildingBlock: OJICUG_clean_sbu_0, # of connection points: 6
#     Node 35, Type 1, BuildingBlock: OJICUG_clean_sbu_0, # of connection points: 6
#     Node 36, Type 1, BuildingBlock: OJICUG_clean_sbu_0, # of connection points: 6
#     Node 37, Type 1, BuildingBlock: OJICUG_clean_sbu_0, # of connection points: 6
#     Node 38, Type 1, BuildingBlock: OJICUG_clean_sbu_0, # of connection points: 6
#     Node 39, Type 1, BuildingBlock: OJICUG_clean_sbu_0, # of connection points: 6
#     Edge 40, Type (0, 1), BuildingBlock: XIVTED_clean_linker_0, # of connection points: 2
#     Edge 41, Type (0, 1), BuildingBlock: XIVTED_clean_linker_0, # of connection points: 2
#     Edge 42, Type (0, 1), BuildingBlock: XIVTED_clean_linker_0, # of connection points: 2
#     Edge 43, Type (0, 1), BuildingBlock: XIVTED_clean_linker_0, # of connection points: 2
#     Edge 44, Type (0, 1), BuildingBlock: XIVTED_clean_linker_0, # of connection points: 2
#     Edge 45, Type (0, 1), BuildingBlock: XIVTED_clean_linker_0, # of connection points: 2
#     Edge 46, Type (0, 1), BuildingBlock: XIVTED_clean_linker_0, # of connection points: 2
#     Edge 47, Type (0, 1), BuildingBlock: XIVTED_clean_linker_0, # of connection points: 2
#     Edge 48, Type (0, 1), BuildingBlock: XIVTED_clean_linker_0, # of connection points: 2
#     Edge 49, Type (0, 1), BuildingBlock: XIVTED_clean_linker_0, # of connection points: 2
#     Edge 50, Type (0, 1), BuildingBlock: XIVTED_clean_linker_0, # of connection points: 2
#     Edge 51, Type (0, 1), BuildingBlock: XIVTED_clean_linker_0, # of connection points: 2
#     Edge 52, Type (0, 1), BuildingBlock: XIVTED_clean_linker_0, # of connection points: 2
#     Edge 53, Type (0, 1), BuildingBlock: XIVTED_clean_linker_0, # of connection points: 2
#     Edge 54, Type (0, 1), BuildingBlock: XIVTED_clean_linker_0, # of connection points: 2
#     Edge 55, Type (0, 1), BuildingBlock: XIVTED_clean_linker_0, # of connection points: 2
#     Edge 56, Type (0, 1), BuildingBlock: XIVTED_clean_linker_0, # of connection points: 2
#     Edge 57, Type (0, 1), BuildingBlock: XIVTED_clean_linker_0, # of connection points: 2
#     Edge 58, Type (0, 1), BuildingBlock: XIVTED_clean_linker_0, # of connection points: 2
#     Edge 59, Type (0, 1), BuildingBlock: XIVTED_clean_linker_0, # of connection points: 2
#     Edge 60, Type (0, 1), BuildingBlock: XIVTED_clean_linker_0, # of connection points: 2
#     Edge 61, Type (0, 1), BuildingBlock: XIVTED_clean_linker_0, # of connection points: 2
#     Edge 62, Type (0, 1), BuildingBlock: XIVTED_clean_linker_0, # of connection points: 2
#     Edge 63, Type (0, 1), BuildingBlock: XIVTED_clean_linker_0, # of connection points: 2
#     Edge 64, Type (0, 1), BuildingBlock: XIVTED_clean_linker_0, # of connection points: 2
#     Edge 65, Type (0, 1), BuildingBlock: XIVTED_clean_linker_0, # of connection points: 2
#     Edge 66, Type (0, 1), BuildingBlock: XIVTED_clean_linker_0, # of connection points: 2
#     Edge 67, Type (0, 1), BuildingBlock: XIVTED_clean_linker_0, # of connection points: 2
#     Edge 68, Type (0, 1), BuildingBlock: XIVTED_clean_linker_0, # of connection points: 2
#     Edge 69, Type (0, 1), BuildingBlock: XIVTED_clean_linker_0, # of connection points: 2
#     Edge 70, Type (0, 1), BuildingBlock: XIVTED_clean_linker_0, # of connection points: 2
#     Edge 71, Type (0, 1), BuildingBlock: XIVTED_clean_linker_0, # of connection points: 2
#     Edge 72, Type (0, 1), BuildingBlock: XIVTED_clean_linker_0, # of connection points: 2
#     Edge 73, Type (0, 1), BuildingBlock: XIVTED_clean_linker_0, # of connection points: 2
#     Edge 74, Type (0, 1), BuildingBlock: XIVTED_clean_linker_0, # of connection points: 2
#     Edge 75, Type (0, 1), BuildingBlock: XIVTED_clean_linker_0, # of connection points: 2
#     Edge 76, Type (0, 1), BuildingBlock: XIVTED_clean_linker_0, # of connection points: 2
#     Edge 77, Type (0, 1), BuildingBlock: XIVTED_clean_linker_0, # of connection points: 2
#     Edge 78, Type (0, 1), BuildingBlock: XIVTED_clean_linker_0, # of connection points: 2
#     Edge 79, Type (0, 1), BuildingBlock: XIVTED_clean_linker_0, # of connection points: 2
#     Edge 80, Type (0, 1), BuildingBlock: XIVTED_clean_linker_0, # of connection points: 2
#     Edge 81, Type (0, 1), BuildingBlock: XIVTED_clean_linker_0, # of connection points: 2
#     Edge 82, Type (0, 1), BuildingBlock: XIVTED_clean_linker_0, # of connection points: 2
#     Edge 83, Type (0, 1), BuildingBlock: XIVTED_clean_linker_0, # of connection points: 2
#     Edge 84, Type (0, 1), BuildingBlock: XIVTED_clean_linker_0, # of connection points: 2
#     Edge 85, Type (0, 1), BuildingBlock: XIVTED_clean_linker_0, # of connection points: 2
#     Edge 86, Type (0, 1), BuildingBlock: XIVTED_clean_linker_0, # of connection points: 2
#     Edge 87, Type (0, 1), BuildingBlock: XIVTED_clean_linker_0, # of connection points: 2
#     Edge 88, Type (0, 1), BuildingBlock: XIVTED_clean_linker_0, # of connection points: 2
#     Edge 89, Type (0, 1), BuildingBlock: XIVTED_clean_linker_0, # of connection points: 2
#     Edge 90, Type (0, 1), BuildingBlock: XIVTED_clean_linker_0, # of connection points: 2
#     Edge 91, Type (0, 1), BuildingBlock: XIVTED_clean_linker_0, # of connection points: 2
#     Edge 92, Type (0, 1), BuildingBlock: XIVTED_clean_linker_0, # of connection points: 2
#     Edge 93, Type (0, 1), BuildingBlock: XIVTED_clean_linker_0, # of connection points: 2
#     Edge 94, Type (0, 1), BuildingBlock: XIVTED_clean_linker_0, # of connection points: 2
#     Edge 95, Type (0, 1), BuildingBlock: XIVTED_clean_linker_0, # of connection points: 2
#     Edge 96, Type (0, 1), BuildingBlock: XIVTED_clean_linker_0, # of connection points: 2
#     Edge 97, Type (0, 1), BuildingBlock: XIVTED_clean_linker_0, # of connection points: 2
#     Edge 98, Type (0, 1), BuildingBlock: XIVTED_clean_linker_0, # of connection points: 2
#     Edge 99, Type (0, 1), BuildingBlock: XIVTED_clean_linker_0, # of connection points: 2
#     Edge 100, Type (0, 1), BuildingBlock: XIVTED_clean_linker_0, # of connection points: 2
#     Edge 101, Type (0, 1), BuildingBlock: XIVTED_clean_linker_0, # of connection points: 2
#     Edge 102, Type (0, 1), BuildingBlock: XIVTED_clean_linker_0, # of connection points: 2
#     Edge 103, Type (0, 1), BuildingBlock: XIVTED_clean_linker_0, # of connection points: 2
#     Edge 104, Type (0, 1), BuildingBlock: XIVTED_clean_linker_0, # of connection points: 2
#     Edge 105, Type (0, 1), BuildingBlock: XIVTED_clean_linker_0, # of connection points: 2
#     Edge 106, Type (0, 1), BuildingBlock: XIVTED_clean_linker_0, # of connection points: 2
#     Edge 107, Type (0, 1), BuildingBlock: XIVTED_clean_linker_0, # of connection points: 2
#     Edge 108, Type (0, 1), BuildingBlock: XIVTED_clean_linker_0, # of connection points: 2
#     Edge 109, Type (0, 1), BuildingBlock: XIVTED_clean_linker_0, # of connection points: 2
#     Edge 110, Type (0, 1), BuildingBlock: XIVTED_clean_linker_0, # of connection points: 2
#     Edge 111, Type (0, 1), BuildingBlock: XIVTED_clean_linker_0, # of connection points: 2
#     Edge 112, Type (0, 1), BuildingBlock: XIVTED_clean_linker_0, # of connection points: 2
#     Edge 113, Type (0, 1), BuildingBlock: XIVTED_clean_linker_0, # of connection points: 2
#     Edge 114, Type (0, 1), BuildingBlock: XIVTED_clean_linker_0, # of connection points: 2
#     Edge 115, Type (0, 1), BuildingBlock: XIVTED_clean_linker_0, # of connection points: 2
#     Edge 116, Type (0, 1), BuildingBlock: XIVTED_clean_linker_0, # of connection points: 2
#     Edge 117, Type (0, 1), BuildingBlock: XIVTED_clean_linker_0, # of connection points: 2
#     Edge 118, Type (0, 1), BuildingBlock: XIVTED_clean_linker_0, # of connection points: 2
#     Edge 119, Type (0, 1), BuildingBlock: XIVTED_clean_linker_0, # of connection points: 2
#     Edge 120, Type (0, 1), BuildingBlock: XIVTED_clean_linker_0, # of connection points: 2
#     Edge 121, Type (0, 1), BuildingBlock: XIVTED_clean_linker_0, # of connection points: 2
#     Edge 122, Type (0, 1), BuildingBlock: XIVTED_clean_linker_0, # of connection points: 2
#     Edge 123, Type (0, 1), BuildingBlock: XIVTED_clean_linker_0, # of connection points: 2
#     Edge 124, Type (0, 1), BuildingBlock: XIVTED_clean_linker_0, # of connection points: 2
#     Edge 125, Type (0, 1), BuildingBlock: XIVTED_clean_linker_0, # of connection points: 2
#     Edge 126, Type (0, 1), BuildingBlock: XIVTED_clean_linker_0, # of connection points: 2
#     Edge 127, Type (0, 1), BuildingBlock: XIVTED_clean_linker_0, # of connection points: 2
#     Edge 128, Type (0, 1), BuildingBlock: XIVTED_clean_linker_0, # of connection points: 2
#     Edge 129, Type (0, 1), BuildingBlock: XIVTED_clean_linker_0, # of connection points: 2
#     Edge 130, Type (0, 1), BuildingBlock: XIVTED_clean_linker_0, # of connection points: 2
#     Edge 131, Type (0, 1), BuildingBlock: XIVTED_clean_linker_0, # of connection points: 2
#     Edge 132, Type (0, 1), BuildingBlock: XIVTED_clean_linker_0, # of connection points: 2
#     Edge 133, Type (0, 1), BuildingBlock: XIVTED_clean_linker_0, # of connection points: 2
#     Edge 134, Type (0, 1), BuildingBlock: XIVTED_clean_linker_0, # of connection points: 2
#     Edge 135, Type (0, 1), BuildingBlock: XIVTED_clean_linker_0, # of connection points: 2
# Relax obj value: 0.375
# Max RMSD: 0.287
# Mean RMSD: 0.282
data_MOF--net-ibd--node1-QUQFOY_clean_sbu_3--node2-OJICUG_clean_sbu_0--edge1-XIVTED_clean_linker_0
_symmetry_space_group_name_H-M    P1
_symmetry_Int_Tables_number       1
_symmetry_cell_setting            triclinic
loop_
_symmetry_equiv_pos_as_xyz
'x, y, z'
_cell_length_a     49.756131
_cell_length_b     49.714416
_cell_length_c     49.744142
_cell_angle_alpha  90.217973
_cell_angle_beta   90.201989
_cell_angle_gamma 91.217276
loop_
_atom_site_label
_atom_site_type_symbol
_atom_site_fract_x
_atom_site_fract_y
_atom_site_fract_z
_atom_type_partial_charge
C0 C 0.95615 0.19974 0.38225 0.0
O1 O 0.93436 0.21106 0.37584 0.0
Cd2 Cd 0.92671 0.24347 0.34132 0.0
O3 O 0.97794 0.20443 0.36948 0.0
Cd4 Cd -0.00875 0.23171 0.32983 0.0
C5 C 0.97365 0.29048 0.36121 0.0
O6 O 0.94997 0.22148 0.30607 0.0
O7 O 0.97861 0.24506 0.28364 0.0
O8 O 0.02644 0.20001 0.31903 0.0
C9 C 0.95574 0.23348 0.2845 0.0
O10 O 0.94869 0.2847 0.35895 0.0
C11 C 0.04446 0.21826 0.31578 0.0
O12 O -0.00875 0.2744 0.35276 0.0
O13 O 0.03774 0.24237 0.32009 0.0
C14 C 0.08014 0.80713 0.59398 0.0
O15 O 0.06491 0.82722 0.59251 0.0
Cd16 Cd 0.01744 0.8195 0.59845 0.0
O17 O 0.07126 0.78508 0.60364 0.0
Cd18 Cd 0.03159 0.76632 0.6263 0.0
C19 C 0.00896 0.75925 0.5641 0.0
O20 O 0.00567 0.80444 0.64251 0.0
O21 O 0.98425 0.76661 0.63543 0.0
O22 O 0.05698 0.75799 0.66661 0.0
C23 C 0.9839 0.79062 0.64406 0.0
O24 O 0.00565 0.78459 0.56525 0.0
C25 C 0.05259 0.73273 0.6667 0.0
O26 O 0.01928 0.7467 0.58369 0.0
O27 O 0.03837 0.72289 0.64764 0.0
C28 C 0.47879 0.75707 0.90409 0.0
O29 O 0.46348 0.77632 0.89819 0.0
Cd30 Cd 0.47507 0.80752 0.86366 0.0
O31 O 0.49998 0.75275 0.89058 0.0
Cd32 Cd 0.52379 0.7696 0.85046 0.0
C33 C 0.53829 0.82546 0.88654 0.0
O34 O 0.48194 0.77614 0.82764 0.0
O35 O 0.51705 0.78906 0.80542 0.0
O36 O 0.53014 0.7221 0.8441 0.0
C37 C 0.49195 0.78402 0.80565 0.0
O38 O 0.51359 0.83126 0.88438 0.0
C39 C 0.55385 0.72434 0.83496 0.0
O40 O 0.5472 0.80439 0.87549 0.0
O41 O 0.56428 0.74788 0.83426 0.0
C42 C 0.50745 0.33156 0.10511 0.0
O43 O 0.48669 0.34556 0.10871 0.0
Cd44 Cd 0.4468 0.32753 0.12913 0.0
O45 O 0.50836 0.30749 0.11369 0.0
Cd46 Cd 0.48325 0.2731 0.13923 0.0
C47 C 0.43765 0.27183 0.08833 0.0
O48 O 0.4631 0.30526 0.16828 0.0
O49 O 0.4491 0.26432 0.1737 0.0
O50 O 0.52706 0.26231 0.15726 0.0
C51 C 0.44773 0.28884 0.18048 0.0
O52 O 0.43055 0.2955 0.09463 0.0
C53 C 0.5239 0.23699 0.15497 0.0
O54 O 0.4561 0.25995 0.10109 0.0
O55 O 0.5016 0.22833 0.14546 0.0
C56 C 0.90036 0.75728 0.14278 0.0
O57 O 0.89452 0.78206 0.14244 0.0
Cd58 Cd 0.91947 0.8173 0.12085 0.0
O59 O 0.92163 0.74892 0.13144 0.0
Cd60 Cd 0.96003 0.76791 0.10536 0.0
C61 C 0.9779 0.81189 0.15603 0.0
O62 O 0.92983 0.79449 0.08014 0.0
O63 O 0.97096 0.79938 0.0678 0.0
O64 O 0.96488 0.72395 0.08352 0.0
C65 C 0.94654 0.8052 0.06428 0.0
O66 O 0.95782 0.82649 0.15086 0.0
C67 C -0.0097 0.72357 0.08624 0.0
O68 O 0.98163 0.79021 0.14309 0.0
O69 O 0.00135 0.74351 0.09822 0.0
C70 C 0.48071 0.79165 0.3297 0.0
O71 O 0.4644 0.8107 0.32667 0.0
Cd72 Cd 0.42296 0.81173 0.35035 0.0
O73 O 0.47653 0.77346 0.34725 0.0
Cd74 Cd 0.44359 0.76405 0.38369 0.0
C75 C 0.39855 0.74831 0.33551 0.0
O76 O 0.43787 0.8108 0.39645 0.0
O77 O 0.40922 0.78285 0.41379 0.0
O78 O 0.48292 0.74944 0.40852 0.0
C79 C 0.41921 0.80652 0.41316 0.0
O80 O 0.39669 0.77346 0.33131 0.0
C81 C 0.47164 0.72822 0.41761 0.0
O82 O 0.41454 0.73978 0.35328 0.0
O83 O 0.44711 0.72411 0.41149 0.0
C84 C 0.42558 0.14044 0.65508 0.0
O85 O 0.4064 0.15647 0.6587 0.0
Cd86 Cd 0.40795 0.20258 0.64397 0.0
O87 O 0.44557 0.14739 0.64069 0.0
Cd88 Cd 0.45898 0.18594 0.61315 0.0
C89 C 0.46977 0.22157 0.66905 0.0
O90 O 0.41723 0.20593 0.59724 0.0
O91 O 0.45306 0.2314 0.59827 0.0
O92 O 0.46842 0.1593 0.57359 0.0
C93 C 0.42862 0.22827 0.59146 0.0
O94 O 0.44451 0.22532 0.66901 0.0
C95 C 0.49311 0.16623 0.57252 0.0
O96 O 0.48046 0.20582 0.65216 0.0
O97 O 0.50209 0.18174 0.59097 0.0
C98 C 0.00526 0.32276 0.8251 0.0
O99 O -0.00925 0.34335 0.82698 0.0
Cd100 Cd 0.95021 0.34421 0.85155 0.0
O101 O 0.00082 0.30209 0.83968 0.0
Cd102 Cd 0.97042 0.29142 0.8786 0.0
C103 C 0.92316 0.28297 0.83146 0.0
O104 O 0.96364 0.33635 0.89684 0.0
O105 O 0.93264 0.3068 0.9054 0.0
O106 O 0.00719 0.27203 0.90481 0.0
C107 C 0.94238 0.33022 0.90943 0.0
O108 O 0.92229 0.30851 0.82981 0.0
C109 C -0.00648 0.25137 0.91192 0.0
O110 O 0.9396 0.27182 0.84723 0.0
O111 O 0.96949 0.24944 0.90346 0.0
C112 C 0.41154 0.9511 0.18407 0.0
O113 O 0.40221 0.9366 0.20297 0.0
Cd114 Cd 0.36974 0.95023 0.23455 0.0
O115 O 0.4027 0.9746 0.17977 0.0
Cd116 Cd 0.36643 0.00266 0.1984 0.0
C117 C 0.40113 0.00838 0.2569 0.0
O118 O 0.3356 0.96561 0.20498 0.0
O119 O 0.32324 0.00241 0.22344 0.0
O120 O 0.35421 0.01585 0.15298 0.0
C121 C 0.3175 0.97827 0.217 0.0
O122 O 0.39404 0.98414 0.26187 0.0
C123 C 0.35244 0.04069 0.15856 0.0
O124 O 0.39421 0.01953 0.23506 0.0
O125 O 0.35902 0.04792 0.18224 0.0
C126 C 0.28968 0.10221 0.57752 0.0
O127 O 0.30602 0.1019 0.55798 0.0
Cd128 Cd 0.29153 0.10307 0.51214 0.0
O129 O 0.26464 0.10496 0.57335 0.0
Cd130 Cd 0.23344 0.11445 0.53622 0.0
C131 C 0.24196 0.05313 0.51013 0.0
O132 O 0.26416 0.14151 0.50929 0.0
O133 O 0.22584 0.13116 0.49088 0.0
O134 O 0.21744 0.14705 0.56768 0.0
C135 C 0.2482 0.1437 0.48955 0.0
O136 O 0.26523 0.06174 0.50324 0.0
C137 C 0.19263 0.14317 0.56274 0.0
O138 O 0.22633 0.06782 0.52373 0.0
O139 O 0.18641 0.12458 0.5461 0.0
C140 C 0.13583 0.90702 0.76023 0.0
O141 O 0.13529 0.90038 0.78485 0.0
Cd142 Cd 0.12366 0.93163 0.81935 0.0
O143 O 0.12981 0.93074 0.75303 0.0
Cd144 Cd 0.11462 0.97384 0.77183 0.0
C145 C 0.17205 0.98012 0.80808 0.0
O146 O 0.08386 0.95177 0.80223 0.0
O147 O 0.08535 -0.00484 0.80502 0.0
O148 O 0.09021 0.97783 0.72972 0.0
C149 C 0.07456 0.97307 0.81224 0.0
O150 O 0.16335 0.96118 0.82306 0.0
C151 C 0.09554 0.00272 0.72661 0.0
O152 O 0.15844 0.98791 0.78802 0.0
O153 O 0.11076 0.01395 0.74405 0.0
C154 C 0.27219 0.83095 0.04334 0.0
O155 O 0.28958 0.83825 0.02605 0.0
Cd156 Cd 0.2832 0.86805 -0.01024 0.0
O157 O 0.24847 0.84021 0.04322 0.0
Cd158 Cd 0.22547 0.87519 0.01637 0.0
C159 C 0.22934 0.83655 0.95992 0.0
O160 O 0.26511 0.90382 0.01582 0.0
O161 O 0.23177 0.91959 -0.00609 0.0
O162 O 0.20014 0.88727 0.0564 0.0
C163 C 0.25532 0.92321 0.00316 0.0
O164 O 0.25441 0.84187 0.9585 0.0
C165 C 0.17803 0.88969 0.04383 0.0
O166 O 0.21537 0.84608 0.97884 0.0
O167 O 0.17793 0.88376 0.019 0.0
C168 C 0.28374 0.30424 -0.00092 0.0
O169 O 0.30825 0.30114 0.00528 0.0
Cd170 Cd 0.34278 0.32984 0.98599 0.0
O171 O 0.27692 0.32315 0.98351 0.0
Cd172 Cd 0.29668 0.36162 0.95948 0.0
C173 C 0.33196 0.32276 0.91806 0.0
O174 O 0.32901 0.37494 -0.00584 0.0
O175 O 0.33315 0.3953 0.95605 0.0
O176 O 0.25853 0.38717 0.97503 0.0
C177 C 0.34017 0.39348 0.98051 0.0
O178 O 0.34753 0.31931 0.93807 0.0
C179 C 0.25074 0.39392 0.95175 0.0
O180 O 0.31044 0.3358 0.92062 0.0
O181 O 0.26445 0.38572 0.93197 0.0
C182 C 0.70438 0.07585 0.03088 0.0
O183 O 0.72238 0.09017 0.04254 0.0
Cd184 Cd 0.7465 0.1252 0.02008 0.0
O185 O 0.69695 0.081 0.00695 0.0
Cd186 Cd 0.70531 0.11447 0.97161 0.0
C187 C 0.76752 0.09003 0.96502 0.0
O188 O 0.71167 0.15236 0.00111 0.0
O189 O 0.72485 0.15906 0.96044 0.0
O190 O 0.65759 0.11578 0.96084 0.0
C191 C 0.72051 0.16863 0.98361 0.0
O192 O 0.77413 0.10028 0.98765 0.0
C193 C 0.66071 0.11226 0.93574 0.0
O194 O 0.74392 0.09216 0.95565 0.0
O195 O 0.68453 0.10853 0.9277 0.0
C196 C 0.15453 0.50569 0.18324 0.0
O197 O 0.146 0.48408 0.17216 0.0
Cd198 Cd 0.10821 0.45856 0.18867 0.0
O199 O 0.14222 0.51588 0.20308 0.0
Cd200 Cd 0.10193 0.5084 0.23022 0.0
C201 C 0.12789 0.4512 0.25462 0.0
O202 O 0.07361 0.49047 0.19465 0.0
O203 O 0.05804 0.48628 0.23484 0.0
O204 O 0.09124 0.55582 0.2283 0.0
C205 C 0.05455 0.48291 0.20979 0.0
O206 O 0.12355 0.44046 0.23167 0.0
C207 C 0.09039 0.55902 0.25363 0.0
O208 O 0.12281 0.4758 0.25893 0.0
O209 O 0.09588 0.53879 0.26801 0.0
C210 C 0.70886 0.83989 0.57801 0.0
O211 O 0.73096 0.83531 0.5898 0.0
Cd212 Cd 0.77358 0.84596 0.5706 0.0
O213 O 0.70849 0.85234 0.55566 0.0
Cd214 Cd 0.74005 0.87546 0.52463 0.0
C215 C 0.76657 0.81589 0.50842 0.0
O216 O 0.77084 0.89218 0.55881 0.0
O217 O 0.78452 0.8966 0.51792 0.0
O218 O 0.70862 0.91203 0.51838 0.0
C219 C 0.78857 0.90096 0.54275 0.0
O220 O 0.77729 0.8157 0.53172 0.0
C221 C 0.70777 0.90978 0.49293 0.0
O222 O 0.7516 0.83494 0.50121 0.0
O223 O 0.72188 0.89157 0.48245 0.0
C224 C 0.94493 0.97867 0.22588 0.0
O225 O 0.94834 0.95449 0.21857 0.0
Cd226 Cd 0.92294 0.91753 0.23785 0.0
O227 O 0.92727 0.98419 0.24336 0.0
Cd228 Cd 0.89202 0.95993 0.26887 0.0
C229 C 0.93285 0.92272 0.30599 0.0
O230 O 0.87644 0.92793 0.23417 0.0
O231 O 0.86143 0.92139 0.27439 0.0
O232 O 0.86171 -0.00436 0.25714 0.0
C233 C 0.8604 0.91532 0.24963 0.0
O234 O 0.93564 0.90906 0.28451 0.0
C235 C 0.85598 0.00184 0.28116 0.0
O236 O 0.9198 0.94442 0.30582 0.0
O237 O 0.86752 0.98883 0.29968 0.0
C238 C 0.20074 0.60804 0.50042 0.0
O239 O 0.20856 0.6226 0.52009 0.0
Cd240 Cd 0.24753 0.65141 0.51819 0.0
O241 O 0.21172 0.61046 0.47741 0.0
Cd242 Cd 0.2457 0.63899 0.45392 0.0
C243 C 0.29094 0.60589 0.491 0.0
O244 O 0.24074 0.67939 0.47985 0.0
O245 O 0.27606 0.67839 0.45499 0.0
O246 O 0.21251 0.64216 0.41879 0.0
C247 C 0.26171 0.69138 0.47129 0.0
O248 O 0.28313 0.61841 0.51186 0.0
C249 C 0.22876 0.63968 0.39937 0.0
O250 O 0.28022 0.60959 0.46809 0.0
O251 O 0.25319 0.63557 0.4053 0.0
C252 C 0.38828 0.4728 0.686 0.0
O253 O 0.38596 0.45002 0.67449 0.0
Cd254 Cd 0.36414 0.4127 0.6945 0.0
O255 O 0.37581 0.47791 0.70781 0.0
Cd256 Cd 0.34155 0.45645 0.73798 0.0
C257 C 0.394 0.41967 0.75716 0.0
O258 O 0.32159 0.43184 0.70181 0.0
O259 O 0.30621 0.42004 0.74042 0.0
O260 O 0.31662 0.49844 0.74193 0.0
C261 C 0.3051 0.41766 0.71505 0.0
O262 O 0.39318 0.40837 0.73414 0.0
C263 C 0.31548 0.49763 0.76746 0.0
O264 O 0.37689 0.43701 0.76379 0.0
O265 O 0.3267 0.47802 0.77888 0.0
C266 C 0.6427 0.06039 0.70708 0.0
O267 O 0.62927 0.04672 0.68979 0.0
Cd268 Cd 0.59137 0.01687 0.69623 0.0
O269 O 0.63624 0.06029 0.7319 0.0
Cd270 Cd 0.60086 0.03944 0.76058 0.0
C271 C 0.6206 0.97575 0.74252 0.0
O272 O 0.56565 0.04132 0.72747 0.0
O273 O 0.55402 0.02287 0.76463 0.0
O274 O 0.5976 0.07722 0.79206 0.0
C275 C 0.54768 0.02905 0.74081 0.0
O276 O 0.61146 0.97832 0.71873 0.0
C277 C 0.60249 0.06313 0.81277 0.0
O278 O 0.61951 -0.00517 0.75962 0.0
O279 O 0.60805 0.03862 0.80876 0.0
C280 C 0.83245 0.573 0.0126 0.0
O281 O 0.84579 0.56791 -0.00844 0.0
Cd282 Cd 0.82523 0.57935 0.94855 0.0
O283 O 0.80933 0.583 0.01058 0.0
Cd284 Cd 0.77675 0.59869 0.97849 0.0
C285 C 0.76942 0.53912 0.94721 0.0
O286 O 0.80713 0.62451 0.94888 0.0
O287 O 0.7652 0.62056 0.93713 0.0
O288 O 0.77009 0.62987 0.01466 0.0
C289 C 0.78817 0.63131 0.93325 0.0
O290 O 0.79192 0.54443 0.93611 0.0
C291 C 0.74477 0.62672 0.01588 0.0
O292 O 0.76024 0.55456 0.96522 0.0
O293 O 0.73379 0.61068 -0.00103 0.0
C294 C 0.88693 0.4615 0.71343 0.0
O295 O 0.88506 0.44175 0.72948 0.0
Cd296 Cd 0.8591 0.44191 0.76912 0.0
O297 O 0.87459 0.48326 0.71792 0.0
Cd298 Cd 0.84206 0.50112 0.75074 0.0
C299 C 0.88675 0.49721 0.80177 0.0
O300 O 0.81885 0.45869 0.74982 0.0
O301 O 0.80351 0.48578 0.77943 0.0
O302 O 0.82815 0.52368 0.71015 0.0
C303 C 0.80124 0.46344 0.76717 0.0
O304 O 0.88363 0.47174 0.80055 0.0
C305 C 0.82075 0.54508 0.72161 0.0
O306 O 0.87464 0.51235 0.78537 0.0
O307 O 0.8233 0.54625 0.74701 0.0
C308 C 0.80888 0.33408 0.49592 0.0
O309 O 0.82728 0.33288 0.47839 0.0
Cd310 Cd 0.82794 0.35616 0.43724 0.0
O311 O 0.78871 0.34921 0.49288 0.0
Cd312 Cd 0.77535 0.3835 0.45887 0.0
C313 C 0.76669 0.33571 0.41126 0.0
O314 O 0.82099 0.40018 0.45442 0.0
O315 O 0.79378 0.41501 0.42459 0.0
O316 O 0.75712 0.40758 0.49742 0.0
C317 C 0.8169 0.41618 0.43534 0.0
O318 O 0.7922 0.33509 0.40966 0.0
C319 C 0.73683 0.41636 0.48495 0.0
O320 O 0.75548 0.35081 0.42835 0.0
O321 O 0.73431 0.40965 0.46042 0.0
C322 C 0.63193 0.41788 0.27134 0.0
O323 O 0.63199 0.40793 0.29483 0.0
Cd324 Cd 0.618 0.43276 0.33338 0.0
O325 O 0.62404 0.44177 0.26733 0.0
Cd326 Cd 0.60489 0.48102 0.29034 0.0
C327 C 0.66055 0.48804 0.32959 0.0
O328 O 0.57733 0.45182 0.317 0.0
O329 O 0.57142 0.49398 0.32446 0.0
O330 O 0.58377 0.48608 0.24676 0.0
C331 C 0.56514 0.46977 0.32988 0.0
O332 O 0.6547 0.46569 0.34078 0.0
C333 C 0.5867 0.51148 0.24579 0.0
O334 O 0.64595 0.49747 0.31102 0.0
O335 O 0.59802 0.52296 0.26582 0.0
Sc336 Sc 0.09686 0.15845 0.10974 0.0
Sc337 Sc 0.13006 0.10338 0.13651 0.0
Sc338 Sc 0.13224 0.1155 0.06687 0.0
O339 O 0.11967 0.1257 0.1043 0.0
C340 C 0.07669 0.13978 0.05107 0.0
C341 C 0.06743 0.11422 0.14494 0.0
C342 C 0.11753 0.05834 0.09186 0.0
C343 C 0.13058 0.15969 0.1648 0.0
C344 C 0.14268 0.17928 0.07091 0.0
C345 C 0.18416 0.10472 0.10279 0.0
O346 O 0.07618 0.15466 0.07182 0.0
O347 O 0.08936 0.10292 0.15101 0.0
O348 O 0.12065 0.07373 0.07168 0.0
O349 O 0.11346 0.16895 0.14852 0.0
O350 O 0.14457 0.15655 0.05917 0.0
O351 O 0.17144 0.10275 0.1248 0.0
O352 O 0.1277 0.18341 0.09123 0.0
O353 O 0.14072 0.1368 0.16175 0.0
O354 O 0.17271 0.10822 0.08025 0.0
O355 O 0.06574 0.13369 0.12838 0.0
O356 O 0.09422 0.12196 0.04769 0.0
O357 O 0.12086 0.06638 0.11592 0.0
Sc358 Sc 0.17932 0.84325 0.37361 0.0
Sc359 Sc 0.11318 0.81656 0.37287 0.0
Sc360 Sc 0.12545 0.8847 0.35718 0.0
O361 O 0.13926 0.84813 0.36786 0.0
C362 C 0.16945 0.90069 0.40067 0.0
C363 C 0.15328 0.81138 0.42277 0.0
C364 C 0.07755 0.86418 0.39491 0.0
C365 C 0.16281 0.78742 0.34578 0.0
C366 C 0.17992 0.88184 0.32346 0.0
C367 C 0.09183 0.84449 0.31934 0.0
O368 O 0.1839 0.88055 0.39549 0.0
O369 O 0.13078 0.80659 0.41121 0.0
O370 O 0.09116 0.88228 0.3829 0.0
O371 O 0.18009 0.80536 0.35256 0.0
O372 O 0.15789 0.89267 0.32965 0.0
O373 O 0.0939 0.82443 0.33502 0.0
O374 O 0.1896 0.86233 0.33641 0.0
O375 O 0.13819 0.78887 0.35196 0.0
O376 O 0.10234 0.86758 0.32429 0.0
O377 O 0.17261 0.82423 0.41174 0.0
O378 O 0.14689 0.90448 0.38942 0.0
O379 O 0.08341 0.83947 0.39383 0.0
Sc380 Sc 0.37996 0.87725 0.61036 0.0
Sc381 Sc 0.31595 0.90305 0.60499 0.0
Sc382 Sc 0.34214 0.89183 0.66775 0.0
O383 O 0.34629 0.89014 0.62777 0.0
C384 C 0.37615 0.83857 0.66076 0.0
C385 C 0.32963 0.84825 0.57935 0.0
C386 C 0.28379 0.8771 0.65331 0.0
C387 C 0.36425 0.91443 0.56456 0.0
C388 C 0.40166 0.91441 0.65883 0.0
C389 C 0.32267 0.94822 0.64697 0.0
O390 O 0.3837 0.84352 0.6369 0.0
O391 O 0.31173 0.86364 0.58884 0.0
O392 O 0.30453 0.87019 0.66614 0.0
O393 O 0.38174 0.90992 0.58233 0.0
O394 O 0.37973 0.91285 0.67182 0.0
O395 O 0.32266 0.94209 0.62206 0.0
O396 O 0.40548 0.9021 0.6366 0.0
O397 O 0.33947 0.91224 0.56989 0.0
O398 O 0.32318 0.93085 0.66575 0.0
O399 O 0.35502 0.85202 0.5832 0.0
O400 O 0.36129 0.85416 0.67413 0.0
O401 O 0.28513 0.89397 0.63425 0.0
Sc402 Sc 0.40285 0.07156 0.88653 0.0
Sc403 Sc 0.42285 0.13849 0.87469 0.0
Sc404 Sc 0.35749 0.12275 0.89425 0.0
O405 O 0.39464 0.11103 0.88521 0.0
C406 C 0.34352 0.07216 0.86125 0.0
C407 C 0.42995 0.08998 0.83256 0.0
C408 C 0.37328 0.16603 0.84918 0.0
C409 C 0.4589 0.09836 0.90629 0.0
C410 C 0.36567 0.07387 0.93527 0.0
C411 C 0.39321 0.16487 0.92536 0.0
O412 O 0.36302 0.05977 0.87194 0.0
O413 O 0.43618 0.11345 0.8415 0.0
O414 O 0.35766 0.15611 0.86684 0.0
O415 O 0.4439 0.07805 0.90053 0.0
O416 O 0.35142 0.0911 0.92328 0.0
O417 O 0.41125 0.16546 0.9071 0.0
O418 O 0.38913 0.06812 0.92731 0.0
O419 O 0.452 0.12225 0.90141 0.0
O420 O 0.37331 0.14836 0.92522 0.0
O421 O 0.41607 0.07285 0.84576 0.0
O422 O 0.3409 0.09744 0.86341 0.0
O423 O 0.39732 0.15853 0.8466 0.0
Sc424 Sc 0.63793 0.32595 0.89102 0.0
Sc425 Sc 0.57084 0.32243 0.87525 0.0
Sc426 Sc 0.61404 0.36183 0.83637 0.0
O427 O 0.60752 0.3372 0.86746 0.0
C428 C 0.64997 0.38688 0.88494 0.0
C429 C 0.59118 0.33383 0.93253 0.0
C430 C 0.55802 0.38165 0.85457 0.0
C431 C 0.60732 0.27206 0.8824 0.0
C432 C 0.66788 0.33348 0.83486 0.0
C433 C 0.57308 0.31712 0.81278 0.0
O434 O 0.64643 0.36719 0.90101 0.0
O435 O 0.57344 0.33865 0.91493 0.0
O436 O 0.58181 0.38779 0.84727 0.0
O437 O 0.62962 0.28481 0.87979 0.0
O438 O 0.64637 0.33784 0.82204 0.0
O439 O 0.56754 0.30654 0.83539 0.0
O440 O 0.66787 0.32986 0.86009 0.0
O441 O 0.58556 0.28386 0.88787 0.0
O442 O 0.5871 0.33874 0.81014 0.0
O443 O 0.61311 0.32252 0.9267 0.0
O444 O 0.64175 0.38661 0.86051 0.0
O445 O 0.55131 0.35842 0.86305 0.0
Sc446 Sc 0.85818 0.35144 0.09833 0.0
Sc447 Sc 0.82886 0.37944 0.15556 0.0
Sc448 Sc 0.79931 0.38927 0.09184 0.0
O449 O 0.82866 0.37322 0.11522 0.0
C450 C 0.8506 0.39662 0.05418 0.0
C451 C 0.89143 0.38359 0.14269 0.0
C452 C 0.81645 0.43718 0.13137 0.0
C453 C 0.84596 0.31854 0.15236 0.0
C454 C 0.8052 0.33096 0.06686 0.0
C455 C 0.76601 0.3735 0.14406 0.0
O456 O 0.86442 0.37951 0.06659 0.0
O457 O 0.8712 0.38624 0.15775 0.0
O458 O 0.80565 0.4281 0.10988 0.0
O459 O 0.85595 0.32112 0.12898 0.0
O460 O 0.79139 0.35154 0.07216 0.0
O461 O 0.78646 0.37304 0.15926 0.0
O462 O 0.82945 0.32828 0.07458 0.0
O463 O 0.83377 0.33741 0.16428 0.0
O464 O 0.76736 0.37937 0.11933 0.0
O465 O 0.89003 0.37258 0.11965 0.0
O466 O 0.82641 0.40157 0.06013 0.0
O467 O 0.82575 0.42235 0.14984 0.0
Sc468 Sc 0.88904 0.60624 0.32996 0.0
Sc469 Sc 0.89291 0.67317 0.35367 0.0
Sc470 Sc 0.87256 0.62133 0.39685 0.0
O471 O 0.88482 0.63354 0.36007 0.0
C472 C 0.83384 0.58798 0.35795 0.0
C473 C 0.86591 0.65568 0.29776 0.0
C474 C 0.84281 0.67756 0.39145 0.0
C475 C 0.94077 0.64478 0.32358 0.0
C476 C 0.90746 0.57104 0.37901 0.0
C477 C 0.91766 0.66372 0.41237 0.0
O478 O 0.85076 0.58701 0.33882 0.0
O479 O 0.87377 0.67316 0.31491 0.0
O480 O 0.8483 0.65582 0.40335 0.0
O481 O 0.92772 0.62293 0.31909 0.0
O482 O 0.89451 0.58473 0.39598 0.0
O483 O 0.91307 0.67791 0.39171 0.0
O484 O 0.90926 0.57755 0.35447 0.0
O485 O 0.9314 0.66462 0.33636 0.0
O486 O 0.90624 0.64098 0.41644 0.0
O487 O 0.86936 0.63067 0.30076 0.0
O488 O 0.83799 0.60099 0.37972 0.0
O489 O 0.85556 0.6858 0.37088 0.0
Sc490 Sc 0.86532 0.84715 0.83185 0.0
Sc491 Sc 0.80596 0.86758 0.86273 0.0
Sc492 Sc 0.83239 0.90366 0.80748 0.0
O493 O 0.83437 0.87264 0.83391 0.0
C494 C 0.89369 0.90472 0.82325 0.0
C495 C 0.8601 0.85561 0.89474 0.0
C496 C 0.81301 0.93104 0.86189 0.0
C497 C 0.81687 0.80685 0.84674 0.0
C498 C 0.8548 0.85678 0.77026 0.0
C499 C 0.77188 0.88295 0.81024 0.0
O500 O 0.89404 0.87941 0.82656 0.0
O501 O 0.83514 0.86061 0.89404 0.0
O502 O 0.81932 0.93185 0.83722 0.0
O503 O 0.84042 0.8121 0.83824 0.0
O504 O 0.84632 0.88045 0.77376 0.0
O505 O 0.77385 0.87472 0.8344 0.0
O506 O 0.86026 0.84117 0.78954 0.0
O507 O 0.80118 0.82496 0.85507 0.0
O508 O 0.79172 0.89252 0.797 0.0
O509 O 0.87368 0.85082 0.87381 0.0
O510 O 0.87264 0.91725 0.81685 0.0
O511 O 0.8085 0.90919 0.87432 0.0
Sc512 Sc 0.86402 0.11749 0.59335 0.0
Sc513 Sc 0.91955 0.15309 0.62043 0.0
Sc514 Sc 0.88885 0.09984 0.65675 0.0
O515 O 0.89087 0.12346 0.62352 0.0
C516 C 0.82695 0.10703 0.64489 0.0
C517 C 0.86664 0.1809 0.59741 0.0
C518 C 0.90101 0.15817 0.68135 0.0
C519 C 0.91769 0.13189 0.56049 0.0
C520 C 0.87898 0.05796 0.6087 0.0
C521 C 0.95199 0.10525 0.64684 0.0
O522 O 0.83053 0.11072 0.61991 0.0
O523 O 0.89086 0.18165 0.60581 0.0
O524 O 0.89341 0.13373 0.68375 0.0
O525 O 0.89351 0.12349 0.56247 0.0
O526 O 0.88366 0.06337 0.63333 0.0
O527 O 0.9514 0.12777 0.63484 0.0
O528 O 0.87255 0.07561 0.59159 0.0
O529 O 0.93071 0.14209 0.58017 0.0
O530 O 0.9311 0.09305 0.65549 0.0
O531 O 0.85368 0.15906 0.59283 0.0
O532 O 0.84624 0.10391 0.66125 0.0
O533 O 0.9109 0.16772 0.65984 0.0
Sc534 Sc 0.62804 0.08428 0.32379 0.0
Sc535 Sc 0.65498 0.11861 0.37951 0.0
Sc536 Sc 0.60192 0.14598 0.34398 0.0
O537 O 0.6283 0.11623 0.34906 0.0
C538 C 0.61726 0.13375 0.28436 0.0
C539 C 0.68996 0.09403 0.33164 0.0
C540 C 0.65582 0.17842 0.36005 0.0
C541 C 0.63951 0.05737 0.38119 0.0
C542 C 0.56628 0.09291 0.33079 0.0
C543 C 0.60145 0.14031 0.40659 0.0
O544 O 0.61966 0.10861 0.28846 0.0
O545 O 0.68696 0.10239 0.35563 0.0
O546 O 0.63091 0.17774 0.35409 0.0
O547 O 0.63624 0.0558 0.35579 0.0
O548 O 0.56936 0.11834 0.33292 0.0
O549 O 0.62628 0.13475 0.40755 0.0
O550 O 0.58591 0.077 0.33013 0.0
O551 O 0.64355 0.07952 0.39346 0.0
O552 O 0.58865 0.14284 0.38465 0.0
O553 O 0.67026 0.08919 0.31586 0.0
O554 O 0.61369 0.15066 0.30311 0.0
O555 O 0.6684 0.15776 0.3674 0.0
Sc556 Sc 0.67184 0.83447 0.10283 0.0
Sc557 Sc 0.60749 0.81039 0.12111 0.0
Sc558 Sc 0.63959 0.86198 0.15861 0.0
O559 O 0.63969 0.83543 0.12766 0.0
C560 C 0.69968 0.84301 0.16048 0.0
C561 C 0.65707 0.7726 0.10863 0.0
C562 C 0.61058 0.81001 0.18457 0.0
C563 C 0.62269 0.8284 0.06181 0.0
C564 C 0.66651 0.89695 0.11204 0.0
C565 C 0.5799 0.86563 0.13707 0.0
O566 O 0.70036 0.83811 0.13539 0.0
O567 O 0.63211 0.77618 0.11226 0.0
O568 O 0.62178 0.83321 0.18551 0.0
O569 O 0.6476 0.83145 0.06693 0.0
O570 O 0.65682 0.89438 0.13548 0.0
O571 O 0.57905 0.84148 0.12858 0.0
O572 O 0.67183 0.87709 0.09703 0.0
O573 O 0.60552 0.82162 0.07951 0.0
O574 O 0.60086 0.87653 0.14736 0.0
O575 O 0.67419 0.79176 0.10636 0.0
O576 O 0.67847 0.85016 0.17248 0.0
O577 O 0.60554 0.79772 0.16257 0.0
Sc578 Sc 0.36783 0.61044 0.08135 0.0
Sc579 Sc 0.41633 0.64614 0.1186 0.0
Sc580 Sc 0.39384 0.58228 0.13986 0.0
O581 O 0.39286 0.61284 0.11328 0.0
C582 C 0.3325 0.58043 0.12576 0.0
C583 C 0.35932 0.66939 0.10074 0.0
C584 C 0.39494 0.63451 0.17745 0.0
C585 C 0.41844 0.64233 0.05631 0.0
C586 C 0.39242 0.55298 0.08201 0.0
C587 C 0.45543 0.59949 0.13679 0.0
O588 O 0.33642 0.58863 0.10197 0.0
O589 O 0.38399 0.67228 0.10737 0.0
O590 O 0.39301 0.60906 0.17456 0.0
O591 O 0.39485 0.63214 0.0553 0.0
O592 O 0.39404 0.55255 0.10765 0.0
O593 O 0.45123 0.62399 0.13116 0.0
O594 O 0.38548 0.57364 0.06889 0.0
O595 O 0.43134 0.64535 0.0782 0.0
O596 O 0.43672 0.58195 0.13925 0.0
O597 O 0.34907 0.64707 0.09284 0.0
O598 O 0.35106 0.57957 0.1432 0.0
O599 O 0.40262 0.65023 0.15885 0.0
Sc600 Sc 0.11169 0.57762 0.86373 0.0
Sc601 Sc 0.14287 0.60551 0.92082 0.0
Sc602 Sc 0.08463 0.6336 0.89468 0.0
O603 O 0.11304 0.60549 0.89317 0.0
C604 C 0.09419 0.63058 0.8327 0.0
C605 C 0.17344 0.58964 0.86624 0.0
C606 C 0.13854 0.66717 0.90896 0.0
C607 C 0.13185 0.54387 0.91481 0.0
C608 C 0.05075 0.58043 0.87828 0.0
C609 C 0.09143 0.62149 0.95584 0.0
O610 O 0.09846 0.60543 0.83313 0.0
O611 O 0.17304 0.59381 0.89157 0.0
O612 O 0.11317 0.66541 0.90554 0.0
O613 O 0.1254 0.54635 0.89016 0.0
O614 O 0.05252 0.6055 0.88358 0.0
O615 O 0.11657 0.61737 0.95377 0.0
O616 O 0.07114 0.5663 0.87336 0.0
O617 O 0.13521 0.56396 0.93049 0.0
O618 O 0.0762 0.62461 0.93565 0.0
O619 O 0.15216 0.58693 0.85224 0.0
O620 O 0.09128 0.6445 0.85385 0.0
O621 O 0.15302 0.64673 0.91246 0.0
Sc622 Sc 0.11308 0.37474 0.55162 0.0
Sc623 Sc 0.05182 0.35283 0.58102 0.0
Sc624 Sc 0.08726 0.40861 0.60759 0.0
O625 O 0.084 0.37876 0.57994 0.0
C626 C 0.14647 0.38617 0.60545 0.0
C627 C 0.09925 0.3136 0.56629 0.0
C628 C 0.0647 0.35954 0.6431 0.0
C629 C 0.05861 0.36466 0.5184 0.0
C630 C 0.11034 0.43845 0.55554 0.0
C631 C 0.02532 0.40954 0.59431 0.0
O632 O 0.14514 0.37809 0.58114 0.0
O633 O 0.07556 0.31771 0.57446 0.0
O634 O 0.07476 0.38301 0.64005 0.0
O635 O 0.08365 0.3705 0.51968 0.0
O636 O 0.10067 0.43819 0.5791 0.0
O637 O 0.02399 0.38467 0.58819 0.0
O638 O 0.11544 0.41708 0.54264 0.0
O639 O 0.04472 0.35797 0.53882 0.0
O640 O 0.0472 0.42162 0.60056 0.0
O641 O 0.11473 0.33219 0.5576 0.0
O642 O 0.12726 0.39762 0.61728 0.0
O643 O 0.05606 0.34529 0.62351 0.0
Sc644 Sc 0.57157 0.63043 0.61767 0.0
Sc645 Sc 0.61633 0.58057 0.63583 0.0
Sc646 Sc 0.63039 0.62207 0.58018 0.0
O647 O 0.60614 0.61093 0.61111 0.0
C648 C 0.57397 0.62906 0.55327 0.0
C649 C 0.55289 0.57108 0.6279 0.0
C650 C 0.6348 0.55776 0.57954 0.0
C651 C 0.5915 0.61971 0.67775 0.0
C652 C 0.61024 0.67847 0.60349 0.0
C653 C 0.67241 0.61167 0.62654 0.0
O654 O 0.56304 0.63473 0.57556 0.0
O655 O 0.57559 0.56438 0.63742 0.0
O656 O 0.63901 0.58098 0.56947 0.0
O657 O 0.57481 0.62881 0.66088 0.0
O658 O 0.62396 0.66434 0.58736 0.0
O659 O 0.65739 0.59424 0.63796 0.0
O660 O 0.59212 0.66876 0.61877 0.0
O661 O 0.6101 0.60396 0.67136 0.0
O662 O 0.66553 0.62462 0.60573 0.0
O663 O 0.5488 0.59363 0.61693 0.0
O664 O 0.59802 0.62119 0.55142 0.0
O665 O 0.62474 0.55417 0.60275 0.0
Sc666 Sc 0.29822 0.3698 0.42747 0.0
Sc667 Sc 0.33174 0.40257 0.37459 0.0
Sc668 Sc 0.35777 0.34417 0.40157 0.0
O669 O 0.32924 0.37213 0.40112 0.0
C670 C 0.34692 0.34902 0.4631 0.0
C671 C 0.31589 0.43065 0.43 0.0
C672 C 0.39258 0.39792 0.39145 0.0
C673 C 0.26954 0.39095 0.37462 0.0
C674 C 0.30281 0.30995 0.40902 0.0
C675 C 0.35044 0.35275 0.33922 0.0
O676 O 0.32213 0.35357 0.45969 0.0
O677 O 0.3211 0.4313 0.40496 0.0
O678 O 0.39039 0.37293 0.39653 0.0
O679 O 0.26892 0.38503 0.39942 0.0
O680 O 0.32823 0.31233 0.40667 0.0
O681 O 0.34365 0.37714 0.3417 0.0
O682 O 0.28779 0.32974 0.41414 0.0
O683 O 0.29118 0.39557 0.36195 0.0
O684 O 0.35466 0.33755 0.35917 0.0
O685 O 0.30816 0.40944 0.4422 0.0
O686 O 0.36357 0.34846 0.44391 0.0
O687 O 0.37274 0.41197 0.38455 0.0
H688 H 0.08282 0.25411 0.29799 0.0
H689 H 0.12321 0.21288 0.17626 0.0
H690 H 0.06551 0.16897 0.30501 0.0
H691 H 0.14614 0.13808 0.21265 0.0
H692 H 0.11526 0.23137 0.22081 0.0
H693 H 0.1187 0.24426 0.26623 0.0
C694 C 0.08697 0.2333 0.29336 0.0
C695 C 0.07053 0.21232 0.30333 0.0
C696 C 0.12316 0.21131 0.21923 0.0
C697 C 0.1111 0.20109 0.26684 0.0
C698 C 0.12751 0.20068 0.19369 0.0
C699 C 0.13464 0.17371 0.19074 0.0
C700 C 0.1254 0.19459 0.24183 0.0
C701 C 0.14022 0.15886 0.214 0.0
C702 C 0.10734 0.22775 0.27511 0.0
C703 C 0.07721 0.18577 0.29716 0.0
N704 N 0.13453 0.16919 0.23858 0.0
N705 N 0.09669 0.18092 0.27885 0.0
H706 H 0.10776 0.85029 0.57242 0.0
H707 H 0.13146 0.76857 0.44985 0.0
H708 H 0.10973 0.76381 0.57952 0.0
H709 H 0.17949 0.84103 0.46114 0.0
H710 H 0.1268 0.76487 0.49863 0.0
H711 H 0.13868 0.84773 0.53449 0.0
C712 C 0.11537 0.83086 0.56661 0.0
C713 C 0.10544 0.80717 0.57855 0.0
C714 C 0.13907 0.78112 0.49047 0.0
C715 C 0.14012 0.80409 0.53494 0.0
C716 C 0.14157 0.78329 0.46267 0.0
C717 C 0.15556 0.80527 0.45158 0.0
C718 C 0.14977 0.80164 0.50709 0.0
C719 C 0.16842 0.8238 0.46899 0.0
C720 C 0.13305 0.82941 0.54497 0.0
C721 C 0.11632 0.78257 0.57046 0.0
N722 N 0.16452 0.82206 0.49594 0.0
N723 N 0.13234 0.78155 0.54849 0.0
H724 H 0.5074 0.79603 0.75401 0.0
H725 H 0.35795 0.81141 0.70493 0.0
H726 H 0.43808 0.77438 0.80189 0.0
H727 H 0.42602 0.81871 0.65173 0.0
H728 H 0.38648 0.78991 0.73807 0.0
H729 H 0.47815 0.79879 0.71444 0.0
C730 C 0.48607 0.79181 0.75617 0.0
C731 C 0.47507 0.78546 0.78132 0.0
C732 C 0.3951 0.79561 0.7189 0.0
C733 C 0.44162 0.78825 0.73627 0.0
C734 C 0.37873 0.80771 0.6999 0.0
C735 C 0.3898 0.81738 0.67585 0.0
C736 C 0.4228 0.79376 0.71398 0.0
C737 C 0.41675 0.81182 0.67019 0.0
C738 C 0.46943 0.79312 0.73356 0.0
C739 C 0.44738 0.77975 0.78295 0.0
N740 N 0.43257 0.80105 0.68948 0.0
N741 N 0.4316 0.78155 0.76081 0.0
H742 H 0.42341 0.21912 0.08448 0.0
H743 H 0.42008 0.21364 0.92795 0.0
H744 H 0.42492 0.29313 0.03951 0.0
H745 H 0.37242 0.15803 0.97541 0.0
H746 H 0.42608 0.24237 0.96793 0.0
H747 H 0.40828 0.19495 0.04408 0.0
C748 C 0.42021 0.23026 0.06611 0.0
C749 C 0.42532 0.25803 0.06514 0.0
C750 C 0.41405 0.22402 0.96935 0.0
C751 C 0.40882 0.2306 0.01895 0.0
C752 C 0.41082 0.20756 0.9467 0.0
C753 C 0.39593 0.18335 0.94848 0.0
C754 C 0.40287 0.21576 -0.0061 0.0
C755 C 0.38409 0.17651 0.97316 0.0
C756 C 0.41155 0.21654 0.04316 0.0
C757 C 0.42096 0.27168 0.04094 0.0
N758 N 0.38817 0.19243 -0.00498 0.0
N759 N 0.41341 0.2577 0.01851 0.0
H760 H 0.97992 0.85831 0.18649 0.0
H761 H 0.0803 0.79721 0.2935 0.0
H762 H 0.01778 0.78147 0.17682 0.0
H763 H 0.06796 0.88275 0.28814 0.0
H764 H 0.05378 0.79061 0.25268 0.0
H765 H 0.00896 0.86753 0.22559 0.0
C766 C -0.00559 0.84348 0.19244 0.0
C767 C -0.00367 0.81903 0.17842 0.0
C768 C 0.05698 0.81085 0.26034 0.0
C769 C 0.02921 0.82933 0.22307 0.0
C770 C 0.072 0.81462 0.28372 0.0
C771 C 0.07634 0.84057 0.29423 0.0
C772 C 0.04584 0.83312 0.2475 0.0
C773 C 0.0652 0.86241 0.28061 0.0
C774 C 0.01096 0.84878 0.21469 0.0
C775 C 0.0155 0.80057 0.18699 0.0
N776 N 0.05024 0.85818 0.25799 0.0
N777 N 0.031 0.80601 0.20887 0.0
H778 H 0.37089 0.80922 0.4389 0.0
H779 H 0.41519 0.9163 0.54314 0.0
H780 H 0.44574 0.85304 0.42737 0.0
H781 H 0.33163 0.90576 0.52082 0.0
H782 H 0.42788 0.89531 0.5006 0.0
H783 H 0.35654 0.84436 0.47 0.0
C784 C 0.3842 0.82633 0.44279 0.0
C785 C 0.40957 0.8282 0.43073 0.0
C786 C 0.4068 0.89832 0.50476 0.0
C787 C 0.39343 0.86825 0.46629 0.0
C788 C 0.39952 0.91044 0.52898 0.0
C789 C 0.37228 0.91216 0.53599 0.0
C790 C 0.38668 0.88746 0.48783 0.0
C791 C 0.35289 0.90441 0.51663 0.0
C792 C 0.37593 0.84647 0.46031 0.0
C793 C 0.42601 0.85086 0.43633 0.0
N794 N 0.36044 0.8916 0.49383 0.0
N795 N 0.41787 0.86982 0.45412 0.0
H796 H 0.3851 0.11244 0.68051 0.0
H797 H 0.4715 0.10927 0.80173 0.0
H798 H 0.47127 0.11545 0.67072 0.0
H799 H 0.40117 0.05699 0.79883 0.0
H800 H 0.47418 0.10692 0.75271 0.0
H801 H 0.39087 0.08594 0.72129 0.0
C802 C 0.40516 0.10674 0.68644 0.0
C803 C 0.42776 0.11685 0.67276 0.0
C804 C 0.45865 0.09528 0.76287 0.0
C805 C 0.43452 0.08739 0.7196 0.0
C806 C 0.45702 0.0968 0.7908 0.0
C807 C 0.43578 0.08379 0.80422 0.0
C808 C 0.43834 0.08147 0.74836 0.0
C809 C 0.41771 0.0676 0.78919 0.0
C810 C 0.40847 0.09158 0.70969 0.0
C811 C 0.4533 0.10853 0.68102 0.0
N812 N 0.41887 0.06758 0.76193 0.0
N813 N 0.45608 0.09512 0.70454 0.0
H814 H 0.04618 0.23822 0.91837 0.0
H815 H 0.08718 0.13265 -0.00228 0.0
H816 H 0.96623 0.21781 0.94595 0.0
H817 H 0.02845 0.16538 0.05178 0.0
H818 H 0.06576 0.15606 0.96041 0.0
H819 H 0.06425 0.20462 0.94917 0.0
C820 C 0.03246 0.22654 0.9308 0.0
C821 C 0.00472 0.2307 0.92967 0.0
C822 C 0.05739 0.15771 0.98041 0.0
C823 C 0.02513 0.19246 0.96475 0.0
C824 C 0.06932 0.14409 0.00165 0.0
C825 C 0.05976 0.14736 0.02797 0.0
C826 C 0.03557 0.17435 0.98552 0.0
C827 C 0.03662 0.16258 0.03184 0.0
C828 C 0.04272 0.20722 0.9481 0.0
C829 C 0.98775 0.21506 0.94617 0.0
N830 N 0.02537 0.17569 0.01082 0.0
N831 N -0.00172 0.19693 0.96345 0.0
H832 H 0.34059 0.09335 0.1676 0.0
H833 H 0.21767 0.08293 0.06527 0.0
H834 H 0.33046 0.02957 0.10907 0.0
H835 H 0.21749 0.12287 0.14241 0.0
H836 H 0.2661 0.07543 0.07063 0.0
H837 H 0.30391 0.11722 0.14629 0.0
C838 C 0.33125 0.08475 0.14975 0.0
C839 C 0.33791 0.059 0.14065 0.0
C840 C 0.25548 0.08632 0.08606 0.0
C841 C 0.29583 0.08602 0.1165 0.0
C842 C 0.22795 0.09054 0.08306 0.0
C843 C 0.21362 0.10295 0.10375 0.0
C844 C 0.26862 0.09507 0.10966 0.0
C845 C 0.22776 0.11263 0.12631 0.0
C846 C 0.31022 0.09833 0.13769 0.0
C847 C 0.32546 0.04908 0.11714 0.0
N848 N 0.25445 0.1083 0.12875 0.0
N849 N 0.30448 0.06232 0.10622 0.0
H850 H 0.27093 0.01322 0.48664 0.0
H851 H 0.14132 0.94029 0.4257 0.0
H852 H 0.19019 0.03349 0.50959 0.0
H853 H 0.22045 0.9065 0.42106 0.0
H854 H 0.15885 0.97427 0.45704 0.0
H855 H 0.25304 0.97321 0.46363 0.0
C856 C 0.24948 0.00908 0.48713 0.0
C857 C 0.23199 0.0269 0.49977 0.0
C858 C 0.17232 0.95928 0.44934 0.0
C859 C 0.21139 0.98138 0.4732 0.0
C860 C 0.16236 0.93997 0.4313 0.0
C861 C 0.17951 0.92069 0.4205 0.0
C862 C 0.19968 0.95953 0.45636 0.0
C863 C 0.20653 0.92106 0.42877 0.0
C864 C 0.23928 0.98622 0.47401 0.0
C865 C 0.2044 0.02041 0.49997 0.0
N866 N 0.21585 0.94037 0.44599 0.0
N867 N 0.1949 -0.00163 0.48651 0.0
H868 H 0.16478 0.86164 0.76938 0.0
H869 H 0.23484 0.8857 0.63003 0.0
H870 H 0.13418 0.91106 0.7055 0.0
H871 H 0.27164 0.84805 0.69865 0.0
H872 H 0.191 0.87957 0.65108 0.0
H873 H 0.19546 0.84114 0.73748 0.0
C874 C 0.16393 0.86763 0.74849 0.0
C875 C 0.14771 0.88885 0.74025 0.0
C876 C 0.20861 0.87216 0.6613 0.0
C877 C 0.18285 0.86573 0.70388 0.0
C878 C 0.23368 0.87577 0.64935 0.0
C879 C 0.25705 0.86837 0.66312 0.0
C880 C 0.20696 0.8614 0.6873 0.0
C881 C 0.25423 0.85482 0.68767 0.0
C882 C 0.18151 0.85595 0.7303 0.0
C883 C 0.14705 0.8954 0.71287 0.0
N884 N 0.22967 0.85233 0.69929 0.0
N885 N 0.16489 0.88434 0.69575 0.0
H886 H 0.23842 0.97114 0.98281 0.0
H887 H 0.38522 0.02912 0.96049 0.0
H888 H 0.30868 0.93163 0.01319 0.0
H889 H 0.31467 0.07803 0.95489 0.0
H890 H 0.35823 -0.00563 0.98296 0.0
H891 H 0.2662 0.01133 0.97394 0.0
C892 C 0.25966 0.97098 0.98767 0.0
C893 C 0.27134 0.94799 -0.00156 0.0
C894 C 0.3488 0.01295 0.97726 0.0
C895 C 0.30319 -0.00628 0.98843 0.0
C896 C 0.36425 0.03287 0.96453 0.0
C897 C 0.35209 0.05628 0.95516 0.0
C898 C 0.32102 0.01639 0.9803 0.0
C899 C 0.32484 0.06008 0.96122 0.0
C900 C 0.27547 -0.00605 0.98282 0.0
C901 C 0.2989 0.9489 0.00467 0.0
N902 N 0.3101 0.04009 0.97287 0.0
N903 N 0.31396 0.97129 -0.00073 0.0
H904 H 0.30126 0.92699 0.20524 0.0
H905 H 0.22118 0.85914 0.29605 0.0
H906 H 0.27838 -0.00294 0.25058 0.0
H907 H 0.17597 0.93213 0.30184 0.0
H908 H 0.25178 0.88151 0.26488 0.0
H909 H 0.26396 0.90167 0.22514 0.0
C910 C 0.28835 0.93706 0.2194 0.0
C911 C 0.29326 0.96399 0.22679 0.0
C912 C 0.23473 0.89244 0.2723 0.0
C913 C 0.25098 0.93494 0.25008 0.0
C914 C 0.2174 0.87973 0.29034 0.0
C915 C 0.19611 0.89384 0.30167 0.0
C916 C 0.23085 0.91954 0.26568 0.0
C917 C 0.19213 0.9205 0.29355 0.0
C918 C 0.26719 0.92251 0.23089 0.0
C919 C 0.27553 0.9762 0.2447 0.0
N920 N 0.20967 0.93266 0.27639 0.0
N921 N 0.25524 0.96147 0.25597 0.0
H922 H 0.34158 0.09861 0.5957 0.0
H923 H 0.28519 0.97668 0.67448 0.0
H924 H 0.25924 0.08761 0.62108 0.0
H925 H 0.36219 0.98399 0.63562 0.0
H926 H 0.28254 0.02599 0.67545 0.0
H927 H 0.35565 0.06888 0.6317 0.0
C928 C 0.32652 0.09056 0.60932 0.0
C929 C 0.29906 0.09415 0.60441 0.0
C930 C 0.30044 0.01683 0.66756 0.0
C931 C 0.31489 0.05957 0.64486 0.0
C932 C 0.30185 0.9888 0.66693 0.0
C933 C 0.32346 0.97673 0.65407 0.0
C934 C 0.32072 0.03244 0.65504 0.0
C935 C 0.34481 -0.00712 0.6449 0.0
C936 C 0.33456 0.07359 0.62992 0.0
C937 C 0.28056 0.08426 0.62337 0.0
N938 N 0.3427 0.01998 0.64512 0.0
N939 N 0.28869 0.06653 0.64222 0.0
H940 H 0.19384 0.02535 0.78504 0.0
H941 H 0.33187 0.01844 0.86692 0.0
H942 H 0.21089 0.96352 0.84308 0.0
H943 H 0.30447 0.09014 0.82744 0.0
H944 H 0.29137 -0.00559 0.85126 0.0
H945 H 0.2379 0.04597 0.79414 0.0
C946 C 0.20685 0.01608 0.79968 0.0
C947 C 0.19859 -0.0072 0.81351 0.0
C948 C 0.29439 0.01533 0.84585 0.0
C949 C 0.24906 0.01617 0.82378 0.0
C950 C 0.31757 0.02902 0.8546 0.0
C951 C 0.32138 0.05641 0.8487 0.0
C952 C 0.27508 0.02911 0.83094 0.0
C953 C 0.30216 0.06911 0.83272 0.0
C954 C 0.23199 0.02786 0.80483 0.0
C955 C 0.21634 0.98161 0.83217 0.0
N956 N 0.27975 0.05537 0.82451 0.0
N957 N 0.24077 -0.00657 0.83678 0.0
H958 H 0.17155 0.90481 0.09635 0.0
H959 H 0.10545 0.03221 0.04442 0.0
H960 H 0.13331 0.90806 0.01846 0.0
H961 H 0.11802 0.01795 0.12911 0.0
H962 H 0.10688 0.98386 0.03637 0.0
H963 H 0.14341 0.94134 0.11159 0.0
C964 C 0.15665 0.91265 0.08271 0.0
C965 C 0.15542 0.90411 0.05584 0.0
C966 C 0.10869 -0.00876 0.05682 0.0
C967 C 0.12374 0.94634 0.07283 0.0
C968 C 0.10804 0.01891 0.0614 0.0
C969 C 0.11256 0.02925 0.08733 0.0
C970 C 0.11447 0.9739 0.07825 0.0
C971 C 0.11516 0.01098 0.10864 0.0
C972 C 0.14057 0.93358 0.09139 0.0
C973 C 0.13541 0.91459 0.03917 0.0
N974 N 0.11678 0.98424 0.10353 0.0
N975 N 0.12092 0.93579 0.04766 0.0
H976 H 0.28475 0.27594 0.04627 0.0
H977 H 0.15096 0.19312 0.01896 0.0
H978 H 0.23452 0.2925 0.97762 0.0
H979 H 0.17462 0.21403 0.09998 0.0
H980 H 0.18474 0.2252 0.00186 0.0
H981 H 0.24812 0.24795 0.06506 0.0
C982 C 0.26611 0.27354 0.03512 0.0
C983 C 0.26261 0.28645 0.01036 0.0
C984 C 0.18229 0.223 0.02338 0.0
C985 C 0.22105 0.25462 0.03154 0.0
C986 C 0.16308 0.2048 0.0331 0.0
C987 C 0.16003 0.20122 0.06084 0.0
C988 C 0.19907 0.23705 0.04154 0.0
C989 C 0.17626 0.21658 0.07844 0.0
C990 C 0.24522 0.25785 0.04594 0.0
C991 C 0.238 0.28292 -0.0032 0.0
N992 N 0.19549 0.23361 0.06847 0.0
N993 N 0.21823 0.26711 0.00745 0.0
H994 H 0.60813 0.12378 0.94638 0.0
H995 H 0.64294 0.24017 0.85637 0.0
H996 H 0.6645 0.11767 0.88113 0.0
H997 H 0.56941 0.23674 0.9021 0.0
H998 H 0.64372 0.1912 0.85636 0.0
H999 H 0.58375 0.15722 0.92103 0.0
C1000 C 0.61481 0.12869 0.92625 0.0
C1001 C 0.6394 0.11947 0.91657 0.0
C1002 C 0.62708 0.20105 0.86598 0.0
C1003 C 0.61233 0.15824 0.88801 0.0
C1004 C 0.62689 0.22906 0.86632 0.0
C1005 C 0.60666 0.24249 0.88013 0.0
C1006 C 0.60734 0.1864 0.88026 0.0
C1007 C 0.58581 0.22715 0.89183 0.0
C1008 C 0.60094 0.14797 0.91178 0.0
C1009 C 0.6464 0.12551 0.88995 0.0
N1010 N 0.58705 0.1999 0.89224 0.0
N1011 N 0.63361 0.14549 0.87697 0.0
H1012 H 0.04429 0.4683 0.15762 0.0
H1013 H 0.90513 0.39493 0.19443 0.0
H1014 H 0.01205 0.46232 0.23791 0.0
H1015 H 0.93632 0.39802 0.11355 0.0
H1016 H 0.94564 0.41774 0.21058 0.0
H1017 H 0.00593 0.44151 0.14085 0.0
C1018 C 0.0291 0.46141 0.1717 0.0
C1019 C 0.03125 0.46756 0.19919 0.0
C1020 C 0.94378 0.41337 0.18931 0.0
C1021 C 0.9876 0.43688 0.18022 0.0
C1022 C 0.92062 0.40032 0.18004 0.0
C1023 C 0.91725 0.39483 0.15254 0.0
C1024 C 0.96377 0.4212 0.17097 0.0
C1025 C 0.93814 0.40193 0.13491 0.0
C1026 C 0.00731 0.44605 0.16213 0.0
C1027 C 0.01114 0.45807 0.21657 0.0
N1028 N 0.9605 0.41503 0.14442 0.0
N1029 N -0.00986 0.44322 0.20677 0.0
H1030 H 0.76313 0.81744 0.45362 0.0
H1031 H 0.8123 0.66699 0.43588 0.0
H1032 H 0.78237 0.76486 0.51951 0.0
H1033 H 0.82867 0.72878 0.3769 0.0
H1034 H 0.78787 0.69943 0.46259 0.0
H1035 H 0.77502 0.78175 0.42193 0.0
C1036 C 0.76957 0.7983 0.46141 0.0
C1037 C 0.77207 0.79412 0.4892 0.0
C1038 C 0.79651 0.70574 0.44361 0.0
C1039 C 0.78515 0.75337 0.45321 0.0
C1040 C 0.81041 0.68725 0.42825 0.0
C1041 C 0.82319 0.69534 0.40438 0.0
C1042 C 0.79516 0.73245 0.43499 0.0
C1043 C 0.81953 0.72176 0.39538 0.0
C1044 C 0.77634 0.77804 0.44334 0.0
C1045 C 0.78049 0.769 0.49823 0.0
N1046 N 0.80611 0.73955 0.41091 0.0
N1047 N 0.78676 0.74954 0.48026 0.0
H1048 H 0.96963 0.97868 0.17687 0.0
H1049 H 0.05221 0.11297 0.19719 0.0
H1050 H 0.95555 0.02905 0.24605 0.0
H1051 H 0.02928 0.08515 0.11811 0.0
H1052 H 0.01868 0.08191 0.21675 0.0
H1053 H -0.00532 0.01598 0.15596 0.0
C1054 C 0.9719 -0.00245 0.18769 0.0
C1055 C 0.96064 0.00076 0.21328 0.0
C1056 C 0.0205 0.08311 0.1951 0.0
C1057 C -0.01079 0.04336 0.18953 0.0
C1058 C 0.03942 0.10091 0.18398 0.0
C1059 C 0.04298 0.1018 0.15608 0.0
C1060 C 0.00587 0.06548 0.17816 0.0
C1061 C 0.02661 0.08531 0.13971 0.0
C1062 C 0.98593 0.01887 0.17564 0.0
C1063 C 0.96394 0.02574 0.22629 0.0
N1064 N 0.00906 0.06737 0.15103 0.0
N1065 N 0.97823 0.04602 0.21441 0.0
H1066 H 0.31131 0.71582 0.46608 0.0
H1067 H 0.27819 0.82926 0.57426 0.0
H1068 H 0.23458 0.72405 0.50521 0.0
H1069 H 0.3587 0.81582 0.54555 0.0
H1070 H 0.26153 0.79325 0.54545 0.0
H1071 H 0.32841 0.75522 0.49102 0.0
C1072 C 0.298 0.72608 0.4797 0.0
C1073 C 0.27156 0.71658 0.4838 0.0
C1074 C 0.28286 0.79807 0.54541 0.0
C1075 C 0.29097 0.76135 0.51232 0.0
C1076 C 0.29246 0.8187 0.56191 0.0
C1077 C 0.31997 0.82555 0.56245 0.0
C1078 C 0.30082 0.78401 0.52921 0.0
C1079 C 0.33738 0.81104 0.54595 0.0
C1080 C 0.30781 0.74844 0.494 0.0
C1081 C 0.25515 0.73057 0.50161 0.0
N1082 N 0.32749 0.79088 0.52994 0.0
N1083 N 0.26517 0.75218 0.51529 0.0
H1084 H 0.08671 0.57206 0.30695 0.0
H1085 H 0.96002 0.65524 0.27369 0.0
H1086 H 0.06821 0.60156 0.22768 0.0
H1087 H 0.98447 0.63565 0.35426 0.0
H1088 H 0.00549 0.64611 0.2579 0.0
H1089 H 0.05683 0.60525 0.32614 0.0
C1090 C 0.07687 0.58597 0.29363 0.0
C1091 C 0.0792 0.58348 0.26565 0.0
C1092 C 0.00122 0.64447 0.27918 0.0
C1093 C 0.04459 0.62109 0.28737 0.0
C1094 C 0.97532 0.64972 0.2881 0.0
C1095 C 0.96883 0.64596 0.31514 0.0
C1096 C 0.0203 0.63456 0.29738 0.0
C1097 C -0.01102 0.63866 0.3332 0.0
C1098 C 0.05977 0.60494 0.30459 0.0
C1099 C 0.06646 0.60236 0.24935 0.0
N1100 N 0.01376 0.63261 0.3239 0.0
N1101 N 0.04912 0.61993 0.26041 0.0
H1102 H 0.39689 0.42509 0.81188 0.0
H1103 H 0.55636 0.41596 0.81214 0.0
H1104 H 0.44478 0.408 0.74191 0.0
H1105 H 0.50903 0.38602 0.87859 0.0
H1106 H 0.51511 0.43019 0.79007 0.0
H1107 H 0.43788 0.42444 0.83966 0.0
C1108 C 0.41598 0.421 0.80245 0.0
C1109 C 0.4175 0.41615 0.77468 0.0
C1110 C 0.51392 0.42118 0.80984 0.0
C1111 C 0.4641 0.41673 0.80589 0.0
C1112 C 0.53743 0.41342 0.82263 0.0
C1113 C 0.53596 0.39933 0.84696 0.0
C1114 C 0.489 0.41512 0.82172 0.0
C1115 C 0.51088 0.39646 0.8596 0.0
C1116 C 0.43924 0.4209 0.81821 0.0
C1117 C 0.44268 0.41131 0.76332 0.0
N1118 N 0.48819 0.40387 0.84659 0.0
N1119 N 0.46505 0.41191 0.77896 0.0
H1120 H 0.93691 0.76367 0.65468 0.0
H1121 H 0.87328 0.88884 0.72964 0.0
H1122 H 0.97439 0.84272 0.6589 0.0
H1123 H 0.8565 0.80586 0.74993 0.0
H1124 H 0.8995 0.87383 0.69104 0.0
H1125 H 0.89751 0.78113 0.67744 0.0
C1126 C 0.93674 0.78478 0.66012 0.0
C1127 C 0.95916 0.80169 0.65543 0.0
C1128 C 0.88947 0.85898 0.70358 0.0
C1129 C 0.91407 0.82172 0.68113 0.0
C1130 C 0.87432 0.86749 0.72543 0.0
C1131 C 0.8632 0.84848 0.74322 0.0
C1132 C 0.89313 0.83137 0.69946 0.0
C1133 C 0.86519 0.8211 0.73691 0.0
C1134 C 0.91422 0.7947 0.67302 0.0
C1135 C 0.9577 0.82892 0.6626 0.0
N1136 N 0.88027 0.81332 0.71572 0.0
N1137 N 0.93559 0.83807 0.67538 0.0
H1138 H -0.00332 0.19173 0.4186 0.0
H1139 H 0.89833 0.10789 0.51466 0.0
H1140 H 0.91518 0.16728 0.39914 0.0
H1141 H 0.96467 0.15713 0.54438 0.0
H1142 H 0.91301 0.11685 0.46887 0.0
H1143 H -0.00716 0.16712 0.46128 0.0
C1144 C 0.97823 0.18069 0.42307 0.0
C1145 C 0.95604 0.18178 0.40566 0.0
C1146 C 0.92459 0.12534 0.48544 0.0
C1147 C 0.95169 0.1536 0.45383 0.0
C1148 C 0.91625 0.12024 0.51162 0.0
C1149 C 0.92985 0.13242 0.53341 0.0
C1150 C 0.94664 0.14275 0.48096 0.0
C1151 C 0.9533 0.14772 0.52817 0.0
C1152 C 0.97605 0.16678 0.44736 0.0
C1153 C 0.93258 0.16725 0.41227 0.0
N1154 N 0.96071 0.15288 0.50239 0.0
N1155 N 0.93097 0.15389 0.43592 0.0
H1156 H 0.57705 0.24824 0.16403 0.0
H1157 H 0.63725 0.18094 0.26532 0.0
H1158 H 0.5179 0.18369 0.1676 0.0
H1159 H 0.59073 0.11065 0.2416 0.0
H1160 H 0.62185 0.20411 0.22567 0.0
H1161 H 0.60935 0.21959 0.18623 0.0
C1162 C 0.57089 0.22798 0.16955 0.0
C1163 C 0.54456 0.21856 0.16474 0.0
C1164 C 0.61568 0.18331 0.2282 0.0
C1165 C 0.58098 0.18598 0.19142 0.0
C1166 C 0.6245 0.17008 0.25108 0.0
C1167 C 0.61499 0.14402 0.25679 0.0
C1168 C 0.59683 0.17047 0.21106 0.0
C1169 C 0.59849 0.13079 0.23783 0.0
C1170 C 0.58929 0.21163 0.18248 0.0
C1171 C 0.53787 0.19189 0.17144 0.0
N1172 N 0.58932 0.14444 0.21612 0.0
N1173 N 0.55581 0.17669 0.18495 0.0
H1174 H 0.52209 0.85975 0.92621 0.0
H1175 H 0.65181 0.83023 0.01505 0.0
H1176 H 0.59249 0.82124 0.89499 0.0
H1177 H 0.57186 0.84103 0.04627 0.0
H1178 H 0.63489 0.83974 0.96979 0.0
H1179 H 0.54589 0.86794 0.9685 0.0
C1180 C 0.54284 0.85381 0.92786 0.0
C1181 C 0.55505 0.83904 0.90731 0.0
C1182 C 0.62118 0.84025 0.98665 0.0
C1183 C 0.58215 0.84802 0.95574 0.0
C1184 C 0.63075 0.83471 0.01242 0.0
C1185 C 0.61309 0.83431 0.03438 0.0
C1186 C 0.59389 0.84583 0.98294 0.0
C1187 C 0.58607 0.84055 0.02985 0.0
C1188 C 0.55631 0.85825 0.95215 0.0
C1189 C 0.58209 0.83212 0.91057 0.0
N1190 N 0.57729 0.84595 0.00463 0.0
N1191 N 0.59459 0.83617 0.9346 0.0
H1192 H 0.90985 0.22983 0.83682 0.0
H1193 H 0.90029 0.21293 0.6797 0.0
H1194 H 0.90308 0.2966 0.7822 0.0
H1195 H 0.89233 0.14609 0.73453 0.0
H1196 H 0.89579 0.24389 0.71727 0.0
H1197 H 0.8965 0.19912 0.80064 0.0
C1198 C 0.90493 0.23808 0.81733 0.0
C1199 C 0.90813 0.26572 0.81228 0.0
C1200 C 0.89476 0.22247 0.72112 0.0
C1201 C 0.89341 0.23068 0.77071 0.0
C1202 C 0.89762 0.20474 0.69969 0.0
C1203 C 0.89728 0.17685 0.70408 0.0
C1204 C 0.89192 0.21233 0.74725 0.0
C1205 C 0.89307 0.16744 0.7303 0.0
C1206 C 0.89736 0.22052 0.79666 0.0
C1207 C 0.90114 0.27539 0.78685 0.0
N1208 N 0.89095 0.18518 0.751 0.0
N1209 N 0.89468 0.2578 0.76679 0.0
H1210 H 0.47737 0.13988 0.52676 0.0
H1211 H 0.62182 0.14769 0.4575 0.0
H1212 H 0.54721 0.17506 0.56619 0.0
H1213 H 0.54709 0.1385 0.4136 0.0
H1214 H 0.59625 0.15108 0.49932 0.0
H1215 H 0.50456 0.13159 0.48697 0.0
C1216 C 0.4985 0.14558 0.52716 0.0
C1217 C 0.51003 0.15837 0.5497 0.0
C1218 C 0.58554 0.14833 0.48048 0.0
C1219 C 0.54115 0.14907 0.50425 0.0
C1220 C 0.60008 0.14638 0.45664 0.0
C1221 C 0.58656 0.14298 0.43201 0.0
C1222 C 0.55737 0.14647 0.47964 0.0
C1223 C 0.55836 0.14138 0.43208 0.0
C1224 C 0.51395 0.14099 0.50439 0.0
C1225 C 0.53751 0.16531 0.54913 0.0
N1226 N 0.54472 0.14306 0.45554 0.0
N1227 N 0.55217 0.16065 0.52667 0.0
H1228 H 0.51223 0.83378 0.31415 0.0
H1229 H 0.57652 0.76613 0.19191 0.0
H1230 H 0.50323 0.74763 0.30637 0.0
H1231 H 0.61839 0.82987 0.2353 0.0
H1232 H 0.54917 0.7573 0.23197 0.0
H1233 H 0.55008 0.83288 0.28302 0.0
C1234 C 0.51842 0.81466 0.30597 0.0
C1235 C 0.5047 0.79077 0.31264 0.0
C1236 C 0.56485 0.77273 0.23279 0.0
C1237 C 0.54752 0.7896 0.27681 0.0
C1238 C 0.58049 0.77779 0.20998 0.0
C1239 C 0.59931 0.79928 0.20996 0.0
C1240 C 0.56786 0.78957 0.25535 0.0
C1241 C 0.60368 0.81355 0.23408 0.0
C1242 C 0.54008 0.81411 0.28841 0.0
C1243 C 0.51348 0.76645 0.30166 0.0
N1244 N 0.58759 0.80891 0.25556 0.0
N1245 N 0.53409 0.7665 0.28374 0.0
H1246 H 0.97402 0.81944 0.01859 0.0
H1247 H 0.83871 0.86179 0.94514 0.0
H1248 H 0.89753 0.82726 0.05821 0.0
H1249 H 0.9137 0.84853 0.90405 0.0
H1250 H 0.86209 0.85743 0.98805 0.0
H1251 H 0.95456 0.83889 0.97793 0.0
C1252 C 0.95331 0.82572 0.01886 0.0
C1253 C 0.93716 0.82127 0.04149 0.0
C1254 C 0.87345 0.85569 0.96962 0.0
C1255 C 0.91479 0.84317 -0.00471 0.0
C1256 C 0.86009 0.8581 0.94511 0.0
C1257 C 0.87412 0.85495 0.92093 0.0
C1258 C 0.901 0.85 0.96995 0.0
C1259 C 0.90192 0.8506 0.92217 0.0
C1260 C 0.94217 0.8367 -0.00433 0.0
C1261 C 0.9105 0.82988 0.04094 0.0
N1262 N 0.91438 0.84797 0.94626 0.0
N1263 N 0.90004 0.8401 0.01808 0.0
H1264 H 0.64796 0.94168 0.70962 0.0
H1265 H 0.72302 0.87876 0.83531 0.0
H1266 H 0.62664 0.95478 0.79258 0.0
H1267 H 0.75903 0.89056 0.75723 0.0
H1268 H 0.67965 0.8912 0.8165 0.0
H1269 H 0.68019 0.90797 0.72411 0.0
C1270 C 0.64952 0.93692 0.73079 0.0
C1271 C 0.63514 0.95139 0.75003 0.0
C1272 C 0.69697 0.89049 0.8034 0.0
C1273 C 0.67168 0.91306 0.76659 0.0
C1274 C 0.72174 0.88334 0.81408 0.0
C1275 C 0.74485 0.88437 0.79798 0.0
C1276 C 0.69533 0.89859 0.77645 0.0
C1277 C 0.74185 0.89018 0.77054 0.0
C1278 C 0.66795 0.91779 0.73903 0.0
C1279 C 0.63782 0.94444 0.77718 0.0
N1280 N 0.71761 0.8975 0.76072 0.0
N1281 N 0.65604 0.926 0.78471 0.0
H1282 H 0.80571 0.90673 0.59457 0.0
H1283 H 0.88564 0.03896 0.55777 0.0
H1284 H 0.82482 0.93071 0.51347 0.0
H1285 H 0.87101 0.01271 0.63912 0.0
H1286 H 0.87415 -0.00615 0.54165 0.0
H1287 H 0.83931 0.93905 0.61138 0.0
C1288 C 0.81729 0.91858 0.58026 0.0
C1289 C 0.81197 0.91671 0.5526 0.0
C1290 C 0.87394 -0.00226 0.56308 0.0
C1291 C 0.85023 0.95382 0.57172 0.0
C1292 C 0.88044 0.02352 0.57229 0.0
C1293 C 0.87841 0.02972 0.59973 0.0
C1294 C 0.86483 0.97821 0.5814 0.0
C1295 C 0.87231 0.00887 0.61773 0.0
C1296 C 0.83655 0.93694 0.58989 0.0
C1297 C 0.82792 0.93197 0.53493 0.0
N1298 N 0.86507 0.98414 0.60818 0.0
N1299 N 0.84598 0.95034 0.54484 0.0
H1300 H 0.82271 0.02666 0.24569 0.0
H1301 H 0.73627 0.0944 0.36155 0.0
H1302 H 0.84208 0.02223 0.33021 0.0
H1303 H 0.70623 0.07865 0.28128 0.0
H1304 H 0.77992 0.0777 0.34804 0.0
H1305 H 0.78486 0.05524 0.25653 0.0
C1306 C 0.81923 0.032 0.2665 0.0
C1307 C 0.83532 0.02179 0.28715 0.0
C1308 C 0.76384 0.07817 0.33334 0.0
C1309 C 0.79215 0.05442 0.2996 0.0
C1310 C 0.73889 0.08777 0.34098 0.0
C1311 C 0.71735 0.08751 0.32264 0.0
C1312 C 0.76734 0.06836 0.30715 0.0
C1313 C 0.72212 0.07887 0.29621 0.0
C1314 C 0.79759 0.04824 0.27265 0.0
C1315 C 0.82998 0.02944 0.31372 0.0
N1316 N 0.74656 0.0694 0.28932 0.0
N1317 N 0.80869 0.04516 0.31921 0.0
H1318 H 0.67505 0.03459 0.00827 0.0
H1319 H 0.67193 0.94419 0.14017 0.0
H1320 H 0.70991 0.06148 0.08365 0.0
H1321 H 0.66946 0.91181 0.05946 0.0
H1322 H 0.67729 -0.01051 0.12145 0.0
H1323 H 0.6631 -0.00836 0.02906 0.0
C1324 C 0.67986 0.03162 0.0293 0.0
C1325 C 0.69381 0.05149 0.0442 0.0
C1326 C 0.67555 0.9724 0.10794 0.0
C1327 C 0.68026 0.00247 0.06793 0.0
C1328 C 0.67252 0.94662 0.11854 0.0
C1329 C 0.6705 0.92425 0.1013 0.0
C1330 C 0.6761 0.97575 0.07997 0.0
C1331 C 0.6713 0.92848 0.07346 0.0
C1332 C 0.67318 0.00706 0.04106 0.0
C1333 C 0.69945 0.04656 0.07138 0.0
N1334 N 0.67395 0.95378 0.06364 0.0
N1335 N 0.69276 0.02241 0.08239 0.0
H1336 H 0.65784 0.07311 0.65591 0.0
H1337 H 0.81014 0.10246 0.69725 0.0
H1338 H 0.68467 0.07886 0.73841 0.0
H1339 H 0.78009 0.10823 0.61592 0.0
H1340 H 0.76399 0.09688 0.71316 0.0
H1341 H 0.70186 0.08954 0.64129 0.0
C1342 C 0.67291 0.07815 0.67099 0.0
C1343 C 0.66768 0.0743 0.69841 0.0
C1344 C 0.76751 0.09962 0.69186 0.0
C1345 C 0.7183 0.09282 0.68178 0.0
C1346 C 0.79387 0.10271 0.68273 0.0
C1347 C 0.79908 0.1055 0.65514 0.0
C1348 C 0.74621 0.09911 0.67326 0.0
C1349 C 0.77713 0.10593 0.63734 0.0
C1350 C 0.69806 0.08754 0.66262 0.0
C1351 C 0.68788 0.08142 0.71705 0.0
N1352 N 0.75171 0.1025 0.64669 0.0
N1353 N 0.71246 0.08997 0.70837 0.0
H1354 H 0.70152 0.90882 0.43829 0.0
H1355 H 0.63279 0.05178 0.43526 0.0
H1356 H 0.67822 0.95258 0.50931 0.0
H1357 H 0.65122 0.00651 0.36368 0.0
H1358 H 0.64397 0.01297 0.46249 0.0
H1359 H 0.67855 0.94172 0.41056 0.0
C1360 C 0.69138 0.92524 0.44807 0.0
C1361 C 0.69204 0.92817 0.47614 0.0
C1362 C 0.64526 0.01134 0.44082 0.0
C1363 C 0.66578 0.96589 0.44453 0.0
C1364 C 0.63886 0.03351 0.42524 0.0
C1365 C 0.64147 0.0325 0.39717 0.0
C1366 C 0.65467 0.98802 0.42831 0.0
C1367 C 0.64906 0.0082 0.38526 0.0
C1368 C 0.67822 0.94398 0.43222 0.0
C1369 C 0.6784 0.94968 0.48773 0.0
N1370 N 0.65582 0.98702 0.40094 0.0
N1371 N 0.66605 0.96786 0.47186 0.0
H1372 H 0.8183 0.89172 0.27651 0.0
H1373 H 0.75066 0.83677 0.14103 0.0
H1374 H 0.85585 0.89559 0.19847 0.0
H1375 H 0.70718 0.85052 0.21469 0.0
H1376 H 0.79268 0.84645 0.16488 0.0
H1377 H 0.78113 0.86529 0.25684 0.0
C1378 C 0.81891 0.88668 0.25532 0.0
C1379 C 0.83989 0.89628 0.23895 0.0
C1380 C 0.77395 0.84695 0.17588 0.0
C1381 C 0.79756 0.8661 0.21642 0.0
C1382 C 0.74992 0.84135 0.16231 0.0
C1383 C 0.72525 0.84347 0.17572 0.0
C1384 C 0.77332 0.85468 0.20303 0.0
C1385 C 0.72566 0.84916 0.20339 0.0
C1386 C 0.7977 0.87162 0.24412 0.0
C1387 C 0.83982 0.88895 0.2117 0.0
N1388 N 0.74931 0.85495 0.21605 0.0
N1389 N 0.8188 0.87453 0.20121 0.0
H1390 H 0.79981 0.05156 0.98573 0.0
H1391 H 0.81351 0.98214 0.8416 0.0
H1392 H 0.77514 0.0878 0.91126 0.0
H1393 H 0.81143 0.93841 0.9165 0.0
H1394 H 0.81202 0.02426 0.86685 0.0
H1395 H 0.81811 0.01382 0.96014 0.0
C1396 C 0.79921 0.05203 0.96396 0.0
C1397 C 0.78581 0.07249 0.95046 0.0
C1398 C 0.81208 0.00542 0.87772 0.0
C1399 C 0.80608 0.02963 0.92135 0.0
C1400 C 0.81279 0.98136 0.86335 0.0
C1401 C 0.81208 0.95666 0.87694 0.0
C1402 C 0.81082 0.00483 0.90588 0.0
C1403 C 0.81148 0.95696 0.90516 0.0
C1404 C 0.8093 0.03041 0.94942 0.0
C1405 C 0.78516 0.07215 0.92231 0.0
N1406 N 0.81072 0.98069 0.91872 0.0
N1407 N 0.79485 0.05084 0.90865 0.0
H1408 H 0.83511 0.65326 0.91405 0.0
H1409 H 0.76841 0.7855 0.86388 0.0
H1410 H 0.74891 0.66009 0.90885 0.0
H1411 H 0.848 0.76279 0.8392 0.0
H1412 H 0.75994 0.7394 0.87915 0.0
H1413 H 0.84014 0.69329 0.88591 0.0
C1414 C 0.81727 0.66303 0.90675 0.0
C1415 C 0.79159 0.65354 0.91396 0.0
C1416 C 0.77906 0.74446 0.86991 0.0
C1417 C 0.79714 0.69939 0.88211 0.0
C1418 C 0.78391 0.77077 0.86119 0.0
C1419 C 0.80913 0.77822 0.85068 0.0
C1420 C 0.79971 0.72568 0.8685 0.0
C1421 C 0.82837 0.75815 0.8475 0.0
C1422 C 0.82012 0.68578 0.89061 0.0
C1423 C 0.7691 0.66684 0.90384 0.0
N1424 N 0.82345 0.73295 0.85687 0.0
N1425 N 0.77239 0.68938 0.88877 0.0
H1426 H 0.31843 0.82941 0.0717 0.0
H1427 H 0.30621 0.67292 0.08609 0.0
H1428 H 0.24385 0.78575 0.05806 0.0
H1429 H 0.37333 0.72049 0.11676 0.0
H1430 H 0.28038 0.7139 0.08184 0.0
H1431 H 0.33602 0.79062 0.09517 0.0
C1432 C 0.30558 0.81173 0.07425 0.0
C1433 C 0.27988 0.81045 0.06278 0.0
C1434 C 0.3006 0.71528 0.08992 0.0
C1435 C 0.30005 0.7657 0.0887 0.0
C1436 C 0.31544 0.6919 0.0922 0.0
C1437 C 0.34226 0.69334 0.10109 0.0
C1438 C 0.31277 0.74023 0.09635 0.0
C1439 C 0.35295 0.71843 0.10919 0.0
C1440 C 0.31559 0.78958 0.08761 0.0
C1441 C 0.26384 0.78732 0.06665 0.0
N1442 N 0.33831 0.74091 0.10623 0.0
N1443 N 0.27446 0.76547 0.07877 0.0
H1444 H 0.89421 0.55042 0.81462 0.0
H1445 H 0.03808 0.52662 0.87695 0.0
H1446 H 0.92445 0.47158 0.83208 0.0
H1447 H 0.00212 0.6048 0.87287 0.0
H1448 H -0.00527 0.50583 0.86541 0.0
H1449 H 0.93122 0.5705 0.84056 0.0
C1450 C 0.90845 0.5373 0.82419 0.0
C1451 C 0.90649 0.50929 0.82078 0.0
C1452 C -0.0038 0.52751 0.86741 0.0
C1453 C 0.94907 0.53218 0.85031 0.0
C1454 C 0.02099 0.53942 0.87393 0.0
C1455 C 0.02385 0.56753 0.87541 0.0
C1456 C 0.97418 0.54384 0.86195 0.0
C1457 C 0.00091 0.58306 0.8717 0.0
C1458 C 0.92956 0.54879 0.83906 0.0
C1459 C 0.92531 0.49329 0.83394 0.0
N1460 N 0.97712 0.57102 0.86469 0.0
N1461 N 0.94607 0.50499 0.84776 0.0
H1462 H 0.19883 0.17916 0.60367 0.0
H1463 H 0.1516 0.30135 0.57312 0.0
H1464 H 0.14195 0.15194 0.54321 0.0
H1465 H 0.07242 0.26454 0.56676 0.0
H1466 H 0.17044 0.25713 0.57951 0.0
H1467 H 0.17256 0.21956 0.61016 0.0
C1468 C 0.18047 0.1814 0.59219 0.0
C1469 C 0.17291 0.16261 0.57234 0.0
C1470 C 0.14889 0.25873 0.57716 0.0
C1471 C 0.14339 0.20896 0.57912 0.0
C1472 C 0.13816 0.28392 0.57304 0.0
C1473 C 0.11042 0.28657 0.56929 0.0
C1474 C 0.13185 0.23589 0.57724 0.0
C1475 C 0.09393 0.26327 0.56963 0.0
C1476 C 0.16567 0.20452 0.59575 0.0
C1477 C 0.14866 0.16622 0.55842 0.0
N1478 N 0.10499 0.23869 0.57312 0.0
N1479 N 0.13494 0.18937 0.56167 0.0
H1480 H 0.03263 0.00726 0.80663 0.0
H1481 H 0.93451 0.88987 0.85578 0.0
H1482 H 0.057 0.9352 0.84713 0.0
H1483 H 0.90932 0.95479 0.80476 0.0
H1484 H 0.97709 0.9134 0.86345 0.0
H1485 H 0.98562 -0.00412 0.81723 0.0
C1486 C 0.02813 -0.0104 0.81868 0.0
C1487 C 0.04845 0.97181 0.82573 0.0
C1488 C 0.96226 0.92266 0.85068 0.0
C1489 C -0.00479 0.95858 0.83743 0.0
C1490 C 0.93801 0.90911 0.84609 0.0
C1491 C 0.91873 0.92003 0.8289 0.0
C1492 C 0.96757 0.94716 0.83766 0.0
C1493 C 0.92393 0.94546 0.81771 0.0
C1494 C 0.00134 0.98299 0.82446 0.0
C1495 C 0.04175 0.94915 0.84108 0.0
N1496 N 0.94816 0.95801 0.82188 0.0
N1497 N 0.01563 0.94296 0.84607 0.0
H1498 H 0.78338 0.29534 0.37801 0.0
H1499 H 0.63608 0.22946 0.36419 0.0
H1500 H 0.71172 0.33267 0.40783 0.0
H1501 H 0.70985 0.18626 0.35481 0.0
H1502 H 0.66253 0.27141 0.36912 0.0
H1503 H 0.75539 0.25965 0.35792 0.0
C1504 C 0.76175 0.29629 0.37999 0.0
C1505 C 0.74992 0.31673 0.39513 0.0
C1506 C 0.67283 0.25276 0.36563 0.0
C1507 C 0.71783 0.27587 0.3723 0.0
C1508 C 0.65778 0.22886 0.36276 0.0
C1509 C 0.67084 0.20432 0.35961 0.0
C1510 C 0.70104 0.25202 0.36505 0.0
C1511 C 0.69898 0.20468 0.35776 0.0
C1512 C 0.74579 0.27586 0.36857 0.0
C1513 C 0.72174 0.31704 0.39674 0.0
N1514 N 0.71314 0.22811 0.36071 0.0
N1515 N 0.70665 0.2967 0.38577 0.0
H1516 H 0.90886 0.50111 0.6814 0.0
H1517 H 0.01904 0.46249 0.6082 0.0
H1518 H 0.89945 0.41489 0.68846 0.0
H1519 H 0.97382 0.38922 0.59114 0.0
H1520 H 0.97958 0.48087 0.62956 0.0
H1521 H 0.93702 0.49454 0.64156 0.0
C1522 C 0.91266 0.48085 0.6745 0.0
C1523 C 0.90254 0.45847 0.68862 0.0
C1524 C 0.97789 0.46121 0.62022 0.0
C1525 C 0.93433 0.45086 0.64338 0.0
C1526 C 0.00057 0.45057 0.60815 0.0
C1527 C 4e-05 0.42385 0.59881 0.0
C1528 C 0.95472 0.44489 0.62302 0.0
C1529 C 0.9754 0.40961 0.59878 0.0
C1530 C 0.92872 0.47714 0.65186 0.0
C1531 C 0.90752 0.43268 0.67863 0.0
N1532 N 0.95393 0.42002 0.6115 0.0
N1533 N 0.92318 0.42961 0.65671 0.0
H1534 H 0.56825 0.49201 0.19774 0.0
H1535 H 0.49566 0.62826 0.16233 0.0
H1536 H 0.58054 0.56604 0.24213 0.0
H1537 H 0.47695 0.55089 0.12662 0.0
H1538 H 0.53594 0.60925 0.18287 0.0
H1539 H 0.54422 0.51664 0.16326 0.0
C1540 C 0.56613 0.51353 0.20008 0.0
C1541 C 0.57581 0.52692 0.22312 0.0
C1542 C 0.52333 0.59663 0.17002 0.0
C1543 C 0.54808 0.55523 0.18385 0.0
C1544 C 0.50049 0.60751 0.15817 0.0
C1545 C 0.4828 0.5909 0.14328 0.0
C1546 C 0.52836 0.56908 0.16673 0.0
C1547 C 0.48987 0.56419 0.13846 0.0
C1548 C 0.55245 0.52762 0.18035 0.0
C1549 C 0.57299 0.5549 0.22485 0.0
N1550 N 0.51189 0.55401 0.15046 0.0
N1551 N 0.55892 0.56809 0.2057 0.0
H1552 H 0.60295 0.72314 0.81015 0.0
H1553 H 0.54569 0.62395 0.70645 0.0
H1554 H 0.53291 0.67372 0.82799 0.0
H1555 H 0.63177 0.63421 0.71266 0.0
H1556 H 0.54126 0.64173 0.75203 0.0
H1557 H 0.61633 0.68995 0.77656 0.0
C1558 C 0.59082 0.70496 0.80759 0.0
C1559 C 0.5664 0.70151 0.82129 0.0
C1560 C 0.56118 0.63964 0.74364 0.0
C1561 C 0.58126 0.66401 0.78277 0.0
C1562 C 0.56365 0.62977 0.71761 0.0
C1563 C 0.58907 0.62797 0.70592 0.0
C1564 C 0.58424 0.64856 0.75769 0.0
C1565 C 0.61182 0.63545 0.72114 0.0
C1566 C 0.59847 0.68604 0.78844 0.0
C1567 C 0.55159 0.67746 0.81742 0.0
N1568 N 0.60886 0.64608 0.74615 0.0
N1569 N 0.55886 0.65995 0.79795 0.0
H1570 H 0.55641 0.30936 0.09588 0.0
H1571 H 0.55539 0.37004 0.95118 0.0
H1572 H 0.50692 0.37563 0.07231 0.0
H1573 H 0.61458 0.31374 0.97801 0.0
H1574 H 0.5432 0.37838 -0.00225 0.0
H1575 H 0.58449 0.31735 0.05657 0.0
C1576 C 0.55183 0.32603 0.08279 0.0
C1577 C 0.52875 0.34127 0.08682 0.0
C1578 C 0.55912 0.36446 -0.00644 0.0
C1579 C 0.56048 0.35019 0.04163 0.0
C1580 C 0.5659 0.35949 0.96693 0.0
C1581 C 0.58549 0.34061 0.96074 0.0
C1582 C 0.57165 0.35005 0.01414 0.0
C1583 C 0.59901 0.32811 0.98193 0.0
C1584 C 0.56787 0.33057 0.06031 0.0
C1585 C 0.52415 0.36297 0.06961 0.0
N1586 N 0.59145 0.33266 0.00772 0.0
N1587 N 0.53948 0.36636 0.04734 0.0
H1588 H 0.90106 0.23072 0.28882 0.0
H1589 H 0.88011 0.27859 0.13781 0.0
H1590 H 0.96491 0.24398 0.2316 0.0
H1591 H 0.82983 0.30431 0.20332 0.0
H1592 H 0.90325 0.24882 0.16857 0.0
H1593 H 0.86819 0.24197 0.25391 0.0
C1594 C 0.9081 0.23549 0.26878 0.0
C1595 C 0.93569 0.23687 0.26306 0.0
C1596 C 0.8867 0.26052 0.17598 0.0
C1597 C 0.89839 0.24907 0.22326 0.0
C1598 C 0.87333 0.27746 0.15845 0.0
C1599 C 0.85354 0.29471 0.16819 0.0
C1600 C 0.88002 0.26059 0.20331 0.0
C1601 C 0.84541 0.29189 0.19507 0.0
C1602 C 0.88937 0.24187 0.24897 0.0
C1603 C 0.94381 0.2431 0.23685 0.0
N1604 N 0.85907 0.27554 0.21188 0.0
N1605 N 0.92522 0.24911 0.21791 0.0
H1606 H -0.00447 0.77945 0.51504 0.0
H1607 H 0.9324 0.64156 0.4607 0.0
H1608 H 0.0015 0.70478 0.55855 0.0
H1609 H 0.94434 0.71228 0.41152 0.0
H1610 H 0.95865 0.66355 0.4965 0.0
H1611 H 0.9774 0.75457 0.47654 0.0
C1612 C -0.00686 0.75779 0.51644 0.0
C1613 C -0.00019 0.74418 0.54009 0.0
C1614 C 0.95573 0.67407 0.47773 0.0
C1615 C 0.97894 0.71558 0.49615 0.0
C1616 C 0.94072 0.66156 0.4573 0.0
C1617 C 0.93583 0.67521 0.43318 0.0
C1618 C 0.96567 0.70045 0.47404 0.0
C1619 C 0.94729 0.70104 0.42985 0.0
C1620 C 0.98289 0.74357 0.49442 0.0
C1621 C -0.00346 0.71607 0.54071 0.0
N1622 N 0.96142 0.7129 0.45016 0.0
N1623 N 0.98604 0.70269 0.51913 0.0
H1624 H 0.51701 0.20506 0.69067 0.0
H1625 H 0.55081 0.34105 0.76903 0.0
H1626 H 0.4618 0.27086 0.69152 0.0
H1627 H 0.56892 0.26357 0.80254 0.0
H1628 H 0.52704 0.31818 0.73167 0.0
H1629 H 0.54522 0.22928 0.72373 0.0
C1630 C 0.51094 0.22466 0.69772 0.0
C1631 C 0.487 0.23596 0.68865 0.0
C1632 C 0.53652 0.30632 0.74712 0.0
C1633 C 0.51929 0.26377 0.72564 0.0
C1634 C 0.55017 0.31926 0.7682 0.0
C1635 C 0.56162 0.30404 0.78876 0.0
C1636 C 0.53505 0.27811 0.74643 0.0
C1637 C 0.56012 0.2759 0.78707 0.0
C1638 C 0.52697 0.23837 0.71651 0.0
C1639 C 0.47998 0.26138 0.69833 0.0
N1640 N 0.5471 0.26377 0.76616 0.0
N1641 N 0.49618 0.27457 0.71627 0.0
H1642 H 0.88843 0.33127 0.91752 0.0
H1643 H 0.90206 0.41331 0.04458 0.0
H1644 H 0.96206 0.3756 0.93436 0.0
H1645 H 0.82514 0.40062 0.00596 0.0
H1646 H 0.92405 0.40883 0.00112 0.0
H1647 H 0.86413 0.36254 0.94582 0.0
C1648 C 0.89942 0.34778 0.92707 0.0
C1649 C 0.92733 0.35055 0.92426 0.0
C1650 C 0.90229 0.40808 0.00188 0.0
C1651 C 0.89975 0.38633 0.95676 0.0
C1652 C 0.88975 0.41079 0.0267 0.0
C1653 C 0.86189 0.40656 0.02879 0.0
C1654 C 0.88682 0.40027 0.97942 0.0
C1655 C 0.84675 0.40358 0.00515 0.0
C1656 C 0.88551 0.36585 0.94293 0.0
C1657 C 0.94056 0.3726 0.93647 0.0
N1658 N 0.85951 0.39946 0.98145 0.0
N1659 N 0.92674 0.38932 0.95282 0.0
H1660 H 0.85696 0.76895 0.17408 0.0
H1661 H 0.86719 0.62947 0.24936 0.0
H1662 H 0.90533 0.70269 0.14791 0.0
H1663 H 0.84349 0.70404 0.2862 0.0
H1664 H 0.86413 0.65063 0.20524 0.0
H1665 H 0.83573 0.73958 0.20733 0.0
C1666 C 0.86278 0.7481 0.17493 0.0
C1667 C 0.88362 0.73848 0.1588 0.0
C1668 C 0.85888 0.66208 0.22295 0.0
C1669 C 0.85928 0.70487 0.1967 0.0
C1670 C 0.86049 0.65002 0.24815 0.0
C1671 C 0.85637 0.66532 0.27149 0.0
C1672 C 0.85294 0.68948 0.22124 0.0
C1673 C 0.84754 0.69176 0.2687 0.0
C1674 C 0.85058 0.73136 0.19389 0.0
C1675 C 0.88987 0.71114 0.16044 0.0
N1676 N 0.8466 0.70319 0.24402 0.0
N1677 N 0.87809 0.69538 0.17947 0.0
H1678 H 0.45094 0.6869 0.4477 0.0
H1679 H 0.59421 0.644 0.50438 0.0
H1680 H 0.52591 0.72581 0.42531 0.0
H1681 H 0.5196 0.62932 0.5464 0.0
H1682 H 0.56895 0.66393 0.46737 0.0
H1683 H 0.47582 0.65642 0.4767 0.0
C1684 C 0.47264 0.68892 0.44876 0.0
C1685 C 0.4864 0.70911 0.4344 0.0
C1686 C 0.55814 0.6559 0.48452 0.0
C1687 C 0.51486 0.67416 0.4671 0.0
C1688 C 0.57248 0.64432 0.5055 0.0
C1689 C 0.55895 0.63533 0.52858 0.0
C1690 C 0.53014 0.65816 0.4866 0.0
C1691 C 0.5308 0.63636 0.52908 0.0
C1692 C 0.48678 0.67152 0.46526 0.0
C1693 C 0.51452 0.71074 0.43635 0.0
N1694 N 0.51731 0.64782 0.50849 0.0
N1695 N 0.52785 0.69352 0.45249 0.0
H1696 H 0.81924 0.55134 0.66716 0.0
H1697 H 0.68383 0.62445 0.67812 0.0
H1698 H 0.79124 0.58669 0.74101 0.0
H1699 H 0.72117 0.60793 0.602 0.0
H1700 H 0.72713 0.61963 0.7005 0.0
H1701 H 0.78883 0.57976 0.64197 0.0
C1702 C 0.80704 0.56548 0.67804 0.0
C1703 C 0.80717 0.56616 0.70624 0.0
C1704 C 0.72617 0.61775 0.67882 0.0
C1705 C 0.7721 0.59848 0.67759 0.0
C1706 C 0.70145 0.62054 0.66609 0.0
C1707 C 0.69912 0.61625 0.63835 0.0
C1708 C 0.74844 0.60968 0.66376 0.0
C1709 C 0.72233 0.61129 0.62349 0.0
C1710 C 0.78975 0.5818 0.66363 0.0
C1711 C 0.79139 0.58519 0.7193 0.0
N1712 N 0.74601 0.6074 0.6365 0.0
N1713 N 0.774 0.60017 0.70489 0.0
H1714 H 0.77363 0.51031 0.90041 0.0
H1715 H 0.65711 0.40441 0.93665 0.0
H1716 H 0.7278 0.51463 0.9738 0.0
H1717 H 0.68067 0.42158 0.85494 0.0
H1718 H 0.687 0.441 0.95224 0.0
H1719 H 0.7441 0.47324 0.88509 0.0
C1720 C 0.75752 0.50332 0.91338 0.0
C1721 C 0.75308 0.5156 0.93837 0.0
C1722 C 0.68547 0.43683 0.93089 0.0
C1723 C 0.71939 0.47336 0.92101 0.0
C1724 C 0.66846 0.41599 0.922 0.0
C1725 C 0.66629 0.41013 0.89447 0.0
C1726 C 0.70078 0.45154 0.91216 0.0
C1727 C 0.68149 0.42569 0.87632 0.0
C1728 C 0.74059 0.48233 0.90455 0.0
C1729 C 0.73183 0.50583 0.95432 0.0
N1730 N 0.69828 0.44559 0.88552 0.0
N1731 N 0.71581 0.48523 0.9454 0.0
H1732 H 0.65719 0.36945 0.27291 0.0
H1733 H 0.71757 0.39266 0.12725 0.0
H1734 H 0.63198 0.43122 0.21802 0.0
H1735 H 0.75419 0.34552 0.18961 0.0
H1736 H 0.67664 0.39483 0.15427 0.0
H1737 H 0.68272 0.34904 0.23662 0.0
C1738 C 0.65663 0.37848 0.25313 0.0
C1739 C 0.64314 0.40256 0.24869 0.0
C1740 C 0.69345 0.3835 0.16172 0.0
C1741 C 0.67229 0.37933 0.2072 0.0
C1742 C 0.71675 0.38218 0.14629 0.0
C1743 C 0.73949 0.36957 0.15663 0.0
C1744 C 0.69303 0.37204 0.18749 0.0
C1745 C 0.7373 0.3561 0.18127 0.0
C1746 C 0.67119 0.36679 0.23243 0.0
C1747 C 0.6427 0.41305 0.22253 0.0
N1748 N 0.71463 0.35807 0.19609 0.0
N1749 N 0.6575 0.40163 0.20286 0.0
H1750 H 0.8211 0.43903 0.38559 0.0
H1751 H 0.91601 0.55067 0.42937 0.0
H1752 H 0.86281 0.43181 0.46137 0.0
H1753 H 0.91089 0.52742 0.3458 0.0
H1754 H 0.90286 0.5049 0.44197 0.0
H1755 H 0.85679 0.46979 0.37011 0.0
C1756 C 0.83791 0.4438 0.39888 0.0
C1757 C 0.83889 0.43332 0.42492 0.0
C1758 C 0.90561 0.50955 0.4209 0.0
C1759 C 0.8796 0.46831 0.40745 0.0
C1760 C 0.91328 0.53566 0.41369 0.0
C1761 C 0.91344 0.54312 0.38651 0.0
C1762 C 0.89759 0.49123 0.40072 0.0
C1763 C 0.91024 0.52276 0.36704 0.0
C1764 C 0.85842 0.46102 0.38993 0.0
C1765 C 0.86123 0.43975 0.44123 0.0
N1766 N 0.90131 0.49793 0.37449 0.0
N1767 N 0.88046 0.45736 0.43244 0.0
H1768 H 0.7809 0.42271 0.73641 0.0
H1769 H 0.71557 0.34539 0.86003 0.0
H1770 H 0.7803 0.45455 0.81721 0.0
H1771 H 0.67837 0.34268 0.78139 0.0
H1772 H 0.75081 0.37497 0.84231 0.0
H1773 H 0.75262 0.38458 0.75123 0.0
C1774 C 0.77471 0.42166 0.75725 0.0
C1775 C 0.78263 0.44181 0.77564 0.0
C1776 C 0.73522 0.36736 0.82887 0.0
C1777 C 0.75138 0.39807 0.79269 0.0
C1778 C 0.71523 0.35018 0.83881 0.0
C1779 C 0.69352 0.34205 0.8223 0.0
C1780 C 0.73382 0.37594 0.80215 0.0
C1781 C 0.69446 0.34885 0.79493 0.0
C1782 C 0.75877 0.39993 0.76563 0.0
C1783 C 0.77429 0.43957 0.8024 0.0
N1784 N 0.71411 0.36579 0.78573 0.0
N1785 N 0.75922 0.4179 0.81021 0.0
H1786 H 0.81498 0.59071 0.06121 0.0
H1787 H 0.78283 0.47947 0.12951 0.0
H1788 H 0.86913 0.53433 0.02529 0.0
H1789 H 0.86646 0.45889 0.12971 0.0
H1790 H 0.79484 0.52313 0.11029 0.0
H1791 H 0.81733 0.56595 0.10342 0.0
C1792 C 0.82795 0.57351 0.0624 0.0
C1793 C 0.8411 0.5639 0.03944 0.0
C1794 C 0.81081 0.5097 0.11574 0.0
C1795 C 0.84346 0.53545 0.08745 0.0
C1796 C 0.80387 0.48481 0.12679 0.0
C1797 C 0.82372 0.46585 0.13127 0.0
C1798 C 0.83762 0.51504 0.10816 0.0
C1799 C 0.85068 0.47327 0.12673 0.0
C1800 C 0.82918 0.55941 0.08648 0.0
C1801 C 0.85819 0.54204 0.04233 0.0
N1802 N 0.85679 0.49695 0.11439 0.0
N1803 N 0.85836 0.52808 0.0658 0.0
H1804 H 0.66854 0.54229 0.33152 0.0
H1805 H 0.8256 0.53921 0.33386 0.0
H1806 H 0.70874 0.46732 0.34418 0.0
H1807 H 0.78437 0.60231 0.37563 0.0
H1808 H 0.78281 0.51398 0.32973 0.0
H1809 H 0.71103 0.56665 0.34055 0.0
C1810 C 0.6863 0.53102 0.33637 0.0
C1811 C 0.68529 0.50284 0.33721 0.0
C1812 C 0.78327 0.53332 0.33985 0.0
C1813 C 0.73366 0.53037 0.34677 0.0
C1814 C 0.8075 0.54776 0.342 0.0
C1815 C 0.80832 0.57283 0.35501 0.0
C1816 C 0.75975 0.54443 0.35012 0.0
C1817 C 0.78446 0.58299 0.36551 0.0
C1818 C 0.71039 0.54488 0.34157 0.0
C1819 C 0.70877 0.48909 0.34357 0.0
N1820 N 0.76097 0.56888 0.36253 0.0
N1821 N 0.73222 0.503 0.34771 0.0
H1822 H 0.70084 0.44951 0.46095 0.0
H1823 H 0.64545 0.50784 0.59938 0.0
H1824 H 0.72939 0.42434 0.53874 0.0
H1825 H 0.64631 0.55367 0.52579 0.0
H1826 H 0.66677 0.47083 0.5757 0.0
H1827 H 0.67164 0.48181 0.4832 0.0
C1828 C 0.70074 0.45058 0.48271 0.0
C1829 C 0.71768 0.43441 0.49807 0.0
C1830 C 0.66202 0.48891 0.56472 0.0
C1831 C 0.68424 0.47097 0.52348 0.0
C1832 C 0.64971 0.50999 0.57815 0.0
C1833 C 0.64431 0.53402 0.5646 0.0
C1834 C 0.66864 0.49171 0.53748 0.0
C1835 C 0.65037 0.53563 0.53709 0.0
C1836 C 0.68417 0.46904 0.49533 0.0
C1837 C 0.7168 0.43661 0.52616 0.0
N1838 N 0.6623 0.51477 0.52443 0.0
N1839 N 0.70035 0.45458 0.53799 0.0
H1840 H 0.66114 0.83262 0.5513 0.0
H1841 H 0.61723 0.71176 0.64692 0.0
H1842 H 0.70025 0.81612 0.62693 0.0
H1843 H 0.61424 0.71093 0.56029 0.0
H1844 H 0.63169 0.75947 0.64564 0.0
H1845 H 0.62675 0.79861 0.56188 0.0
C1846 C 0.66207 0.8225 0.57051 0.0
C1847 C 0.68412 0.82645 0.58784 0.0
C1848 C 0.62719 0.74891 0.62702 0.0
C1849 C 0.64495 0.7877 0.5999 0.0
C1850 C 0.61907 0.72185 0.62773 0.0
C1851 C 0.6152 0.70758 0.60364 0.0
C1852 C 0.6307 0.7616 0.60207 0.0
C1853 C 0.61763 0.72129 0.57924 0.0
C1854 C 0.64246 0.80306 0.57647 0.0
C1855 C 0.684 0.81306 0.61264 0.0
N1856 N 0.6254 0.74756 0.57906 0.0
N1857 N 0.66501 0.79376 0.61772 0.0
H1858 H 0.2602 0.66125 0.35968 0.0
H1859 H 0.13262 0.74308 0.3304 0.0
H1860 H 0.17843 0.63727 0.37747 0.0
H1861 H 0.21443 0.77384 0.33274 0.0
H1862 H 0.14947 0.69786 0.32388 0.0
H1863 H 0.24359 0.69283 0.32634 0.0
C1864 C 0.23879 0.66167 0.35567 0.0
C1865 C 0.22052 0.64766 0.37215 0.0
C1866 C 0.16371 0.71462 0.32501 0.0
C1867 C 0.20152 0.6839 0.33461 0.0
C1868 C 0.15412 0.74049 0.32888 0.0
C1869 C 0.1722 0.76211 0.33357 0.0
C1870 C 0.19149 0.71038 0.32622 0.0
C1871 C 0.19976 0.7576 0.33036 0.0
C1872 C 0.22931 0.67985 0.33673 0.0
C1873 C 0.1931 0.64858 0.36582 0.0
N1874 N 0.20861 0.73209 0.32766 0.0
N1875 N 0.18432 0.6671 0.34807 0.0
H1876 H 0.53748 0.02371 0.68683 0.0
H1877 H 0.4049 0.9337 0.71 0.0
H1878 H 0.50452 0.00479 0.76482 0.0
H1879 H 0.4471 0.93545 0.63425 0.0
H1880 H 0.43857 0.96427 0.72895 0.0
H1881 H 0.50133 -0.00333 0.66583 0.0
C1882 C 0.52244 0.01418 0.69951 0.0
C1883 C 0.52409 0.01626 0.72763 0.0
C1884 C 0.44057 0.95798 0.7082 0.0
C1885 C 0.48296 0.98534 0.70379 0.0
C1886 C 0.42131 0.94047 0.69729 0.0
C1887 C 0.42317 0.9319 0.67043 0.0
C1888 C 0.46194 0.96723 0.69221 0.0
C1889 C 0.44499 0.94138 0.65508 0.0
C1890 C 0.50197 -0.00138 0.68751 0.0
C1891 C 0.50411 0.00353 0.74309 0.0
N1892 N 0.46355 0.95865 0.66619 0.0
N1893 N 0.48444 0.98853 0.73096 0.0
H1894 H 0.29592 0.30471 0.88011 0.0
H1895 H 0.40624 0.20607 0.8295 0.0
H1896 H 0.38077 0.30892 0.89814 0.0
H1897 H 0.32255 0.18505 0.84139 0.0
H1898 H 0.39493 0.25351 0.8308 0.0
H1899 H 0.3048 0.27183 0.84456 0.0
C1900 C 0.3165 0.29938 0.87601 0.0
C1901 C 0.3376 0.30881 0.89257 0.0
C1902 C 0.3789 0.23848 0.83202 0.0
C1903 C 0.34781 0.27171 0.85193 0.0
C1904 C 0.38529 0.21131 0.83112 0.0
C1905 C 0.36544 0.19164 0.83674 0.0
C1906 C 0.35258 0.24575 0.83846 0.0
C1907 C 0.33861 0.19969 0.83809 0.0
C1908 C 0.32153 0.28069 0.85571 0.0
C1909 C 0.36388 0.30149 0.88628 0.0
N1910 N 0.33302 0.22624 0.83986 0.0
N1911 N 0.36821 0.28301 0.86673 0.0
H1912 H 0.41992 0.50715 0.71544 0.0
H1913 H 0.50859 0.56332 0.59615 0.0
H1914 H 0.40433 0.48017 0.63418 0.0
H1915 H 0.54284 0.54163 0.67268 0.0
H1916 H 0.46603 0.54127 0.60942 0.0
H1917 H 0.46056 0.53085 0.69975 0.0
C1918 C 0.42467 0.50683 0.69421 0.0
C1919 C 0.40893 0.4917 0.67603 0.0
C1920 C 0.48303 0.54117 0.62309 0.0
C1921 C 0.45511 0.51838 0.65819 0.0
C1922 C 0.50722 0.55353 0.61553 0.0
C1923 C 0.52917 0.55399 0.63331 0.0
C1924 C 0.48071 0.53007 0.64884 0.0
C1925 C 0.52645 0.54132 0.65829 0.0
C1926 C 0.44797 0.51999 0.68539 0.0
C1927 C 0.41612 0.49158 0.64878 0.0
N1928 N 0.50245 0.53019 0.66552 0.0
N1929 N 0.4388 0.50475 0.64061 0.0
H1930 H 0.70045 0.20015 0.02292 0.0
H1931 H 0.82916 0.29278 0.03581 0.0
H1932 H 0.76279 0.19771 0.96291 0.0
H1933 H 0.75158 0.31936 0.06249 0.0
H1934 H 0.80676 0.25566 0.01136 0.0
H1935 H 0.71998 0.24237 0.04018 0.0
C1936 C 0.71807 0.20874 0.01323 0.0
C1937 C 0.73012 0.19558 -0.00838 0.0
C1938 C 0.79472 0.26983 0.02238 0.0
C1939 C 0.75282 0.24325 0.01149 0.0
C1940 C 0.80745 0.29082 0.03648 0.0
C1941 C 0.79218 0.30901 0.05132 0.0
C1942 C 0.76666 0.26678 0.02368 0.0
C1943 C 0.7641 0.30576 0.05131 0.0
C1944 C 0.72915 0.23278 0.023 0.0
C1945 C 0.75289 0.20743 0.97964 0.0
N1946 N 0.75224 0.28481 0.03798 0.0
N1947 N 0.76387 0.23047 -0.00993 0.0
H1948 H 0.60464 0.03524 0.86012 0.0
H1949 H 0.48495 0.05061 0.9132 0.0
H1950 H 0.5862 0.11327 0.82808 0.0
H1951 H 0.49897 0.13661 0.9134 0.0
H1952 H 0.53237 0.04439 0.90463 0.0
H1953 H 0.57883 0.04575 0.90036 0.0
C1954 C 0.59579 0.0549 0.86183 0.0
C1955 C 0.59639 0.07292 0.84014 0.0
C1956 C 0.52547 0.06466 0.9077 0.0
C1957 C 0.56632 0.08462 0.88565 0.0
C1958 C 0.49814 0.06821 0.91251 0.0
C1959 C 0.48765 0.09417 0.91273 0.0
C1960 C 0.54221 0.08726 0.90266 0.0
C1961 C 0.50594 0.11616 0.91231 0.0
C1962 C 0.58088 0.06076 0.88475 0.0
C1963 C 0.58535 0.09836 0.84387 0.0
N1964 N 0.53214 0.11224 0.90619 0.0
N1965 N 0.57011 0.10319 0.86588 0.0
H1966 H 0.94399 0.95161 0.35213 0.0
H1967 H 0.05998 0.91392 0.40964 0.0
H1968 H 0.95001 0.87235 0.31727 0.0
H1969 H 0.03268 0.83164 0.39907 0.0
H1970 H 0.01489 0.92885 0.40007 0.0
H1971 H 0.97084 0.93687 0.39054 0.0
C1972 C 0.95074 0.93105 0.35268 0.0
C1973 C 0.94564 0.91344 0.33103 0.0
C1974 C 0.01823 0.90745 0.40105 0.0
C1975 C 0.97641 0.89655 0.37463 0.0
C1976 C 0.04417 0.89888 0.40659 0.0
C1977 C 0.05037 0.87159 0.40381 0.0
C1978 C -0.00138 0.8885 0.3925 0.0
C1979 C 0.02901 0.85298 0.4005 0.0
C1980 C 0.96613 0.92268 0.37457 0.0
C1981 C 0.95425 0.88687 0.33308 0.0
N1982 N 0.00426 0.86184 0.3938 0.0
N1983 N 0.96948 0.87936 0.35429 0.0
H1984 H 0.43444 0.3405 0.19205 0.0
H1985 H 0.35543 0.30024 0.32392 0.0
H1986 H 0.41646 0.25814 0.21398 0.0
H1987 H 0.35955 0.38133 0.29311 0.0
H1988 H 0.37368 0.28394 0.28163 0.0
H1989 H 0.40389 0.35561 0.22696 0.0
C1990 C 0.42396 0.3256 0.20417 0.0
C1991 C 0.42824 0.29806 0.20046 0.0
C1992 C 0.3702 0.30525 0.28394 0.0
C1993 C 0.3933 0.31516 0.24037 0.0
C1994 C 0.35982 0.31458 0.3081 0.0
C1995 C 0.35648 0.34225 0.31222 0.0
C1996 C 0.37765 0.32376 0.26394 0.0
C1997 C 0.36207 0.35986 0.2909 0.0
C1998 C 0.40639 0.33422 0.22397 0.0
C1999 C 0.4139 0.27958 0.21641 0.0
N2000 N 0.37285 0.35036 0.26781 0.0
N2001 N 0.39728 0.28849 0.23594 0.0
H2002 H 0.5121 0.7257 0.93377 0.0
H2003 H 0.3922 0.65027 0.00889 0.0
H2004 H 0.42881 0.74644 0.92404 0.0
H2005 H 0.4697 0.6621 0.04721 0.0
H2006 H 0.40813 0.67646 0.97071 0.0
H2007 H 0.49899 0.6943 0.96963 0.0
C2008 C 0.49108 0.7236 0.93917 0.0
C2009 C 0.47146 0.7387 0.92608 0.0
C2010 C 0.42168 0.67308 0.9874 0.0
C2011 C 0.4565 0.70268 0.96632 0.0
C2012 C 0.41273 0.65797 0.00915 0.0
C2013 C 0.42956 0.65425 0.0315 0.0
C2014 C 0.44774 0.68426 0.98777 0.0
C2015 C 0.45598 0.66472 0.03053 0.0
C2016 C 0.4837 0.70578 0.95956 0.0
C2017 C 0.44455 0.73533 0.93379 0.0
N2018 N 0.46428 0.67942 0.009 0.0
N2019 N 0.43782 0.7175 0.95332 0.0
H2020 H 0.04584 0.67824 0.67347 0.0
H2021 H 0.10177 0.68397 0.82326 0.0
H2022 H 0.08208 0.74908 0.71018 0.0
H2023 H 0.08199 0.60897 0.78306 0.0
H2024 H 0.09532 0.70767 0.7812 0.0
H2025 H 0.05965 0.65185 0.71247 0.0
C2026 C 0.05689 0.68818 0.68961 0.0
C2027 C 0.0626 0.71593 0.68875 0.0
C2028 C 0.09256 0.68601 0.78144 0.0
C2029 C 0.07829 0.68601 0.73326 0.0
C2030 C 0.09612 0.67246 0.80551 0.0
C2031 C 0.09213 0.64449 0.8067 0.0
C2032 C 0.08458 0.67158 0.75835 0.0
C2033 C 0.0852 0.63057 0.78298 0.0
C2034 C 0.06479 0.67312 0.7118 0.0
C2035 C 0.07706 0.72779 0.7101 0.0
N2036 N 0.08132 0.64434 0.75976 0.0
N2037 N 0.08419 0.7128 0.73156 0.0
H2038 H 0.94513 0.31905 0.39834 0.0
H2039 H 0.08144 0.36767 0.46822 0.0
H2040 H 0.02345 0.31448 0.36177 0.0
H2041 H 0.00461 0.3614 0.50813 0.0
H2042 H 0.0586 0.36076 0.42509 0.0
H2043 H 0.96458 0.34779 0.43368 0.0
C2044 C 0.96624 0.32472 0.39729 0.0
C2045 C 0.98287 0.31376 0.37756 0.0
C2046 C 0.04673 0.36131 0.44328 0.0
C2047 C 0.00528 0.34615 0.41805 0.0
C2048 C 0.05976 0.36521 0.46792 0.0
C2049 C 0.04502 0.36436 0.49191 0.0
C2050 C 0.01879 0.3565 0.44265 0.0
C2051 C 0.0169 0.36151 0.49022 0.0
C2052 C 0.97738 0.34098 0.41758 0.0
C2053 C 0.01004 0.32195 0.37705 0.0
N2054 N 0.00476 0.3573 0.46607 0.0
N2055 N 0.02052 0.33722 0.39733 0.0
H2056 H 0.36759 0.75838 0.29106 0.0
H2057 H 0.39713 0.61407 0.22893 0.0
H2058 H 0.40129 0.69335 0.33659 0.0
H2059 H 0.37382 0.68379 0.18374 0.0
H2060 H 0.38805 0.6388 0.27076 0.0
H2061 H 0.35777 0.72695 0.25441 0.0
C2062 C 0.37239 0.7374 0.29363 0.0
C2063 C 0.38598 0.72868 0.31663 0.0
C2064 C 0.38459 0.64847 0.25163 0.0
C2065 C 0.37531 0.69268 0.27453 0.0
C2066 C 0.38978 0.63439 0.22784 0.0
C2067 C 0.3869 0.64718 0.20296 0.0
C2068 C 0.37621 0.67532 0.25031 0.0
C2069 C 0.37704 0.67342 0.20255 0.0
C2070 C 0.36691 0.71945 0.27261 0.0
C2071 C 0.39134 0.70111 0.31895 0.0
N2072 N 0.37231 0.68666 0.22583 0.0
N2073 N 0.38652 0.68419 0.2979 0.0
H2074 H 0.04507 0.71906 0.08688 0.0
H2075 H 0.04079 0.60814 0.97181 0.0
H2076 H 0.9726 0.67913 0.05812 0.0
H2077 H 0.11406 0.64708 -0.00041 0.0
H2078 H 0.01705 0.62685 0.01012 0.0
H2079 H 0.0717 0.68688 0.06165 0.0
C2080 C 0.03474 0.70329 0.07556 0.0
C2081 C 0.00654 0.70205 0.07424 0.0
C2082 C 0.03843 0.63094 0.00822 0.0
C2083 C 0.03693 0.6652 0.04526 0.0
C2084 C 0.05201 0.62014 0.98641 0.0
C2085 C 0.07932 0.62638 0.9824 0.0
C2086 C 0.05212 0.64857 0.02591 0.0
C2087 C 0.09297 0.64184 0.00196 0.0
C2088 C 0.04998 0.6849 0.06118 0.0
C2089 C -0.00572 0.68106 0.05945 0.0
N2090 N 0.07908 0.65293 0.02261 0.0
N2091 N 0.00954 0.66369 0.04528 0.0
H2092 H 0.04098 0.36197 0.81099 0.0
H2093 H 0.03988 0.31266 0.66058 0.0
H2094 H 0.01189 0.28288 0.7881 0.0
H2095 H 0.08558 0.38201 0.689 0.0
H2096 H 0.03366 0.29838 0.70727 0.0
H2097 H 0.06286 0.36649 0.76742 0.0
C2098 C 0.03993 0.34523 0.79697 0.0
C2099 C 0.02466 0.32208 0.80296 0.0
C2100 C 0.04538 0.31651 0.7032 0.0
C2101 C 0.04853 0.32747 0.75261 0.0
C2102 C 0.04882 0.32474 0.67655 0.0
C2103 C 0.06273 0.34892 0.67083 0.0
C2104 C 0.0558 0.33265 0.7242 0.0
C2105 C 0.07417 0.36355 0.69237 0.0
C2106 C 0.05226 0.34783 0.77203 0.0
C2107 C 0.02368 0.30099 0.78417 0.0
N2108 N 0.07016 0.35537 0.71803 0.0
N2109 N 0.0349 0.30443 0.75947 0.0
H2110 H 0.37523 0.22961 0.57777 0.0
H2111 H 0.39708 0.35526 0.48449 0.0
H2112 H 0.4488 0.27725 0.57653 0.0
H2113 H 0.31837 0.32136 0.50116 0.0
H2114 H 0.41513 0.33051 0.52244 0.0
H2115 H 0.35267 0.26544 0.55343 0.0
C2116 C 0.38656 0.24769 0.57257 0.0
C2117 C 0.41401 0.2503 0.57871 0.0
C2118 C 0.3938 0.32887 0.51821 0.0
C2119 C 0.38845 0.29124 0.55103 0.0
C2120 C 0.38351 0.34304 0.49657 0.0
C2121 C 0.35633 0.33997 0.48952 0.0
C2122 C 0.37689 0.31103 0.53244 0.0
C2123 C 0.33951 0.32413 0.50591 0.0
C2124 C 0.37365 0.2682 0.55885 0.0
C2125 C 0.42769 0.27424 0.57184 0.0
N2126 N 0.35019 0.30969 0.52629 0.0
N2127 N 0.41484 0.29363 0.55805 0.0
H2128 H 0.13318 0.46376 0.30803 0.0
H2129 H 0.2606 0.37709 0.32262 0.0
H2130 H 0.15406 0.40369 0.24919 0.0
H2131 H 0.22112 0.40914 0.39247 0.0
H2132 H 0.2203 0.38501 0.29605 0.0
H2133 H 0.16298 0.44253 0.34041 0.0
C2134 C 0.14368 0.44585 0.30206 0.0
C2135 C 0.1416 0.4358 0.27571 0.0
C2136 C 0.22022 0.38992 0.31728 0.0
C2137 C 0.17582 0.41168 0.3125 0.0
C2138 C 0.24327 0.3856 0.33237 0.0
C2139 C 0.24419 0.39288 0.3596 0.0
C2140 C 0.19819 0.40226 0.32933 0.0
C2141 C 0.22115 0.40343 0.37145 0.0
C2142 C 0.16058 0.43368 0.32059 0.0
C2143 C 0.15534 0.41232 0.26918 0.0
N2144 N 0.19917 0.40837 0.35606 0.0
N2145 N 0.17232 0.40137 0.2873 0.0
H2146 H 0.36289 0.43869 0.95802 0.0
H2147 H 0.39644 0.50161 0.10157 0.0
H2148 H 0.35774 0.39468 0.03254 0.0
H2149 H 0.39629 0.54671 0.02751 0.0
H2150 H 0.3931 0.45997 0.07547 0.0
H2151 H 0.38565 0.47572 0.9819 0.0
C2152 C 0.36692 0.43665 0.97932 0.0
C2153 C 0.35788 0.41388 -0.00654 0.0
C2154 C 0.39424 0.47898 0.06493 0.0
C2155 C 0.38369 0.45615 0.02092 0.0
C2156 C 0.39621 0.50278 0.07983 0.0
C2157 C 0.39592 0.52773 0.06675 0.0
C2158 C 0.39188 0.4802 0.03681 0.0
C2159 C 0.39591 0.52796 0.03851 0.0
C2160 C 0.37991 0.45779 -0.00704 0.0
C2161 C 0.36393 0.41212 0.02096 0.0
N2162 N 0.39344 0.50458 0.02451 0.0
N2163 N 0.37609 0.43318 0.03389 0.0
H2164 H 0.31303 0.50249 0.82205 0.0
H2165 H 0.22307 0.58214 0.88933 0.0
H2166 H 0.28302 0.53747 0.74889 0.0
H2167 H 0.18302 0.58537 0.81227 0.0
H2168 H 0.2632 0.56592 0.86694 0.0
H2169 H 0.28341 0.53084 0.84789 0.0
C2170 C 0.30055 0.51657 0.81144 0.0
C2171 C 0.30032 0.51743 0.78325 0.0
C2172 C 0.24562 0.57001 0.85491 0.0
C2173 C 0.26646 0.55054 0.81282 0.0
C2174 C 0.22276 0.57966 0.86768 0.0
C2175 C 0.19936 0.58451 0.85278 0.0
C2176 C 0.24495 0.56497 0.82706 0.0
C2177 C 0.20036 0.58133 0.82472 0.0
C2178 C 0.28375 0.53306 0.82628 0.0
C2179 C 0.28375 0.53606 0.77059 0.0
N2180 N 0.22262 0.57148 0.81285 0.0
N2181 N 0.26718 0.55158 0.78546 0.0
H2182 H 0.16826 0.60077 0.54414 0.0
H2183 H 0.13302 0.44876 0.50619 0.0
H2184 H 0.18789 0.56534 0.46748 0.0
H2185 H 0.10411 0.48846 0.57756 0.0
H2186 H 0.14943 0.49223 0.48948 0.0
H2187 H 0.14068 0.5611 0.55454 0.0
C2188 C 0.1665 0.58479 0.52934 0.0
C2189 C 0.1807 0.58622 0.50506 0.0
C2190 C 0.1392 0.49144 0.50865 0.0
C2191 C 0.1494 0.54053 0.51698 0.0
C2192 C 0.12985 0.4666 0.51823 0.0
C2193 C 0.11753 0.46482 0.54353 0.0
C2194 C 0.13637 0.51461 0.52456 0.0
C2195 C 0.11378 0.48871 0.5581 0.0
C2196 C 0.15072 0.56211 0.53528 0.0
C2197 C 0.17744 0.56501 0.48653 0.0
N2198 N 0.12345 0.51252 0.54855 0.0
N2199 N 0.16245 0.54284 0.49305 0.0
H2200 H 0.18551 0.54307 0.20981 0.0
H2201 H 0.29206 0.56273 0.09242 0.0
H2202 H 0.18058 0.49791 0.13552 0.0
H2203 H 0.31123 0.57683 0.17613 0.0
H2204 H 0.24744 0.54593 0.1056 0.0
H2205 H 0.2282 0.56295 0.19509 0.0
C2206 C 0.19331 0.53748 0.19031 0.0
C2207 C 0.17959 0.51872 0.17388 0.0
C2208 C 0.26147 0.55276 0.121 0.0
C2209 C 0.22823 0.54145 0.15701 0.0
C2210 C 0.28682 0.56244 0.11354 0.0
C2211 C 0.30534 0.57105 0.13326 0.0
C2212 C 0.25455 0.55216 0.14829 0.0
C2213 C 0.2976 0.57016 0.16032 0.0
C2214 C 0.2177 0.54874 0.18203 0.0
C2215 C 0.19064 0.51216 0.14886 0.0
N2216 N 0.2727 0.56094 0.16705 0.0
N2217 N 0.21438 0.52358 0.14112 0.0
H2218 H 0.22418 0.40458 0.905 0.0
H2219 H 0.15007 0.52956 0.96493 0.0
H2220 H 0.22428 0.4228 -0.0101 0.0
H2221 H 0.13308 0.49696 0.88589 0.0
H2222 H 0.17364 0.48848 0.97608 0.0
H2223 H 0.1881 0.43644 0.89854 0.0
C2224 C 0.21645 0.41515 0.92231 0.0
C2225 C 0.22744 0.41133 0.94795 0.0
C2226 C 0.1643 0.49013 0.95648 0.0
C2227 C 0.18627 0.44792 0.94074 0.0
C2228 C 0.15077 0.51359 0.9501 0.0
C2229 C 0.14009 0.51705 0.9242 0.0
C2230 C 0.16741 0.47019 0.93672 0.0
C2231 C 0.1414 0.49547 0.90595 0.0
C2232 C 0.19574 0.43323 0.91866 0.0
C2233 C 0.21649 0.42533 0.96974 0.0
N2234 N 0.15531 0.47321 0.91238 0.0
N2235 N 0.19676 0.44333 0.96559 0.0
H2236 H 0.25797 0.39663 0.73523 0.0
H2237 H 0.19786 0.37726 0.58757 0.0
H2238 H 0.30498 0.40225 0.66264 0.0
H2239 H 0.15059 0.38403 0.65983 0.0
H2240 H 0.23844 0.37442 0.61547 0.0
H2241 H 0.21993 0.37912 0.70863 0.0
C2242 C 0.26045 0.3936 0.71381 0.0
C2243 C 0.28429 0.40153 0.70096 0.0
C2244 C 0.2191 0.37619 0.62516 0.0
C2245 C 0.24106 0.38195 0.67047 0.0
C2246 C 0.196 0.37787 0.60925 0.0
C2247 C 0.17099 0.38169 0.62139 0.0
C2248 C 0.21699 0.3782 0.65329 0.0
C2249 C 0.1696 0.38192 0.64959 0.0
C2250 C 0.23875 0.38374 0.6986 0.0
C2251 C 0.28663 0.39698 0.6732 0.0
N2252 N 0.1923 0.38052 0.66455 0.0
N2253 N 0.26511 0.38792 0.65878 0.0
H2254 H 0.28927 0.56629 0.52849 0.0
H2255 H 0.34935 0.47233 0.41689 0.0
H2256 H 0.33209 0.59334 0.45812 0.0
H2257 H 0.29511 0.44496 0.47909 0.0
H2258 H 0.35594 0.5146 0.4409 0.0
H2259 H 0.30533 0.52072 0.52058 0.0
C2260 C 0.30313 0.56286 0.51214 0.0
C2261 C 0.309 0.58322 0.49352 0.0
C2262 C 0.34276 0.4993 0.44948 0.0
C2263 C 0.32676 0.53152 0.48405 0.0
C2264 C 0.33872 0.47527 0.43561 0.0
C2265 C 0.32085 0.45553 0.44555 0.0
C2266 C 0.32847 0.50393 0.47324 0.0
C2267 C 0.30854 0.45997 0.47044 0.0
C2268 C 0.31201 0.53682 0.50744 0.0
C2269 C 0.32683 0.57791 0.4726 0.0
N2270 N 0.31214 0.484 0.48321 0.0
N2271 N 0.33465 0.55238 0.46807 0.0
H2272 H 0.29751 0.15734 0.47035 0.0
H2273 H 0.25048 0.2942 0.4191 0.0
H2274 H 0.21312 0.17214 0.45908 0.0
H2275 H 0.32807 0.26288 0.3982 0.0
H2276 H 0.23458 0.24844 0.42864 0.0
H2277 H 0.3083 0.19391 0.43945 0.0
C2278 C 0.28127 0.16808 0.46095 0.0
C2279 C 0.25448 0.16219 0.46748 0.0
C2280 C 0.25488 0.25156 0.42132 0.0
C2281 C 0.26654 0.20428 0.43265 0.0
C2282 C 0.26401 0.27771 0.41596 0.0
C2283 C 0.29093 0.28249 0.40876 0.0
C2284 C 0.27294 0.23029 0.41981 0.0
C2285 C 0.30738 0.26027 0.40452 0.0
C2286 C 0.28738 0.18883 0.44321 0.0
C2287 C 0.23408 0.17635 0.45462 0.0
N2288 N 0.29831 0.23519 0.41073 0.0
N2289 N 0.24054 0.19731 0.43827 0.0
H2290 H 0.85169 0.33395 0.52906 0.0
H2291 H 0.81519 0.18825 0.57915 0.0
H2292 H 0.77349 0.29698 0.51684 0.0
H2293 H 0.88776 0.23209 0.60178 0.0
H2294 H 0.7962 0.23006 0.56301 0.0
H2295 H 0.86167 0.30016 0.5628 0.0
C2296 C 0.8364 0.31894 0.53405 0.0
C2297 C 0.81189 0.3179 0.5202 0.0
C2298 C 0.8161 0.2306 0.57192 0.0
C2299 C 0.8234 0.27862 0.55793 0.0
C2300 C 0.82704 0.20669 0.58104 0.0
C2301 C 0.85344 0.2065 0.59117 0.0
C2302 C 0.83174 0.25441 0.57274 0.0
C2303 C 0.86757 0.23111 0.59359 0.0
C2304 C 0.84207 0.29963 0.55324 0.0
C2305 C 0.79263 0.29827 0.52722 0.0
N2306 N 0.8567 0.25397 0.58403 0.0
N2307 N 0.79904 0.2789 0.54525 0.0
H2308 H 0.41344 0.06224 0.25828 0.0
H2309 H 0.54958 0.04038 0.33621 0.0
H2310 H 0.43269 0.98718 0.29642 0.0
H2311 H 0.52042 0.11919 0.31679 0.0
H2312 H 0.50554 0.02101 0.32471 0.0
H2313 H 0.45058 0.08421 0.28258 0.0
C2314 C 0.42523 0.05046 0.27209 0.0
C2315 C 0.4202 0.02275 0.27503 0.0
C2316 C 0.50864 0.04259 0.32332 0.0
C2317 C 0.463 0.04769 0.3026 0.0
C2318 C 0.53384 0.05366 0.32977 0.0
C2319 C 0.53883 0.08142 0.32709 0.0
C2320 C 0.48838 0.05932 0.31371 0.0
C2321 C 0.51755 0.09766 0.31899 0.0
C2322 C 0.44642 0.06303 0.28599 0.0
C2323 C 0.43595 0.00855 0.2934 0.0
N2324 N 0.49338 0.08632 0.31218 0.0
N2325 N 0.45696 0.02108 0.30613 0.0
H2326 H 0.69002 0.63232 0.01827 0.0
H2327 H 0.70609 0.75335 0.12144 0.0
H2328 H 0.76397 0.65533 0.05866 0.0
H2329 H 0.63014 0.72993 0.08534 0.0
H2330 H 0.72524 0.71162 0.10545 0.0
H2331 H 0.66561 0.66221 0.04846 0.0
C2332 C 0.70104 0.64339 0.0337 0.0
C2333 C 0.7291 0.64187 0.03563 0.0
C2334 C 0.70425 0.7153 0.10133 0.0
C2335 C 0.70146 0.67584 0.07011 0.0
C2336 C 0.69334 0.73912 0.11049 0.0
C2337 C 0.66669 0.7452 0.10424 0.0
C2338 C 0.68858 0.69772 0.08524 0.0
C2339 C 0.65087 0.72599 0.09038 0.0
C2340 C 0.68712 0.66038 0.05094 0.0
C2341 C 0.7424 0.65635 0.05611 0.0
N2342 N 0.66224 0.70328 0.08078 0.0
N2343 N 0.72851 0.67294 0.07233 0.0
H2344 H 0.5248 0.50175 0.34809 0.0
H2345 H 0.44097 0.37443 0.4012 0.0
H2346 H 0.55478 0.42104 0.35241 0.0
H2347 H 0.40591 0.4509 0.3823 0.0
H2348 H 0.48552 0.39462 0.39474 0.0
H2349 H 0.48412 0.48656 0.37175 0.0
C2350 C 0.52302 0.48098 0.35447 0.0
C2351 C 0.54282 0.46246 0.34788 0.0
C2352 C 0.46807 0.40705 0.39232 0.0
C2353 C 0.49665 0.44505 0.37476 0.0
C2354 C 0.4426 0.39554 0.39601 0.0
C2355 C 0.41961 0.4108 0.39162 0.0
C2356 C 0.47057 0.43397 0.38412 0.0
C2357 C 0.42304 0.43819 0.38535 0.0
C2358 C 0.49982 0.47232 0.36787 0.0
C2359 C 0.53969 0.43583 0.35669 0.0
N2360 N 0.44806 0.44881 0.38139 0.0
N2361 N 0.51688 0.42785 0.36942 0.0
H2362 H 0.25384 0.79683 0.93122 0.0
H2363 H 0.11472 0.71647 0.9093 0.0
H2364 H 0.17598 0.82904 0.94896 0.0
H2365 H 0.19251 0.67947 0.90922 0.0
H2366 H 0.13703 0.76055 0.91318 0.0
H2367 H 0.2316 0.75695 0.91157 0.0
C2368 C 0.23209 0.79585 0.93033 0.0
C2369 C 0.21672 0.81602 0.94216 0.0
C2370 C 0.14919 0.74278 0.91207 0.0
C2371 C 0.19124 0.77047 0.92008 0.0
C2372 C 0.13647 0.71758 0.9099 0.0
C2373 C 0.15172 0.69414 0.90943 0.0
C2374 C 0.17735 0.74459 0.91369 0.0
C2375 C 0.17989 0.69693 0.90999 0.0
C2376 C 0.21941 0.77299 0.91933 0.0
C2377 C 0.18859 0.81372 0.94047 0.0
N2378 N 0.19178 0.72167 0.91231 0.0
N2379 N 0.17675 0.79117 0.92999 0.0
H2380 H 0.45036 0.98007 0.15714 0.0
H2381 H 0.57406 0.91956 0.14662 0.0
H2382 H 0.42391 0.89891 0.17521 0.0
H2383 H 0.52901 0.84731 0.12521 0.0
H2384 H 0.532 0.94356 0.15014 0.0
H2385 H 0.49154 0.96226 0.13754 0.0
C2386 C 0.45308 0.95852 0.15664 0.0
C2387 C 0.4341 0.94092 0.1683 0.0
C2388 C 0.53135 0.92268 0.14389 0.0
C2389 C 0.48097 0.92058 0.14651 0.0
C2390 C 0.55537 0.90885 0.14223 0.0
C2391 C 0.55504 0.88126 0.13604 0.0
C2392 C 0.50688 0.90874 0.13952 0.0
C2393 C 0.53024 0.86849 0.13031 0.0
C2394 C 0.47666 0.94841 0.14575 0.0
C2395 C 0.43837 0.91318 0.16695 0.0
N2396 N 0.50712 0.88223 0.1327 0.0
N2397 N 0.46146 0.90387 0.15642 0.0
H2398 H 0.06323 0.98382 0.68602 0.0
H2399 H 0.00185 0.12808 0.65724 0.0
H2400 H 0.096 0.05748 0.72019 0.0
H2401 H 0.96063 0.0518 0.64483 0.0
H2402 H 0.04289 0.10383 0.66904 0.0
H2403 H 0.03283 0.01015 0.65859 0.0
C2404 C 0.06439 0.00557 0.68739 0.0
C2405 C 0.08171 0.01847 0.70585 0.0
C2406 C 0.02493 0.09251 0.66331 0.0
C2407 C 0.04673 0.04868 0.67481 0.0
C2408 C 0.00161 0.10629 0.65656 0.0
C2409 C 0.97781 0.09183 0.65061 0.0
C2410 C 0.02432 0.06422 0.66359 0.0
C2411 C 0.97846 0.06367 0.64987 0.0
C2412 C 0.04697 0.02059 0.67178 0.0
C2413 C 0.08263 0.04673 0.70648 0.0
N2414 N 0.00126 0.0508 0.65646 0.0
N2415 N 0.06498 0.06093 0.69154 0.0
loop_
_geom_bond_atom_site_label_1
_geom_bond_atom_site_label_2
_geom_bond_distance
_geom_bond_site_symmetry_2
_ccdc_geom_bond_type
C0 O1 1.306 . S
C0 O3 1.160 . S
O1 C0 1.306 . S
O1 Cd2 2.228 . S
Cd2 O1 2.228 . S
Cd2 O6 2.273 . S
Cd2 O10 2.277 . S
O3 C0 1.160 . S
O3 Cd4 2.203 1_655 S
Cd4 O3 2.203 1_455 S
Cd4 O6 2.411 1_455 S
Cd4 O7 2.333 . S
Cd4 O8 2.352 . S
Cd4 O12 2.277 . S
Cd4 O13 2.356 . S
C5 O10 1.209 1_455 S
C5 O12 1.226 . S
O6 Cd2 2.273 . S
O6 Cd4 2.411 1_655 S
O6 C9 1.320 . S
O7 Cd4 2.333 . S
O7 C9 1.214 1_455 S
O8 Cd4 2.352 . S
O8 C11 1.258 . S
C9 O6 1.320 . S
C9 O7 1.214 1_655 S
O10 Cd2 2.277 . S
O10 C5 1.209 1_655 S
C11 O8 1.258 . S
C11 O13 1.282 . S
O12 Cd4 2.277 . S
O12 C5 1.226 . S
O13 Cd4 2.356 . S
O13 C11 1.282 . S
C14 O15 1.306 . S
C14 O17 1.160 . S
O15 C14 1.306 . S
O15 Cd16 2.228 1_455 S
Cd16 O15 2.228 1_655 S
Cd16 O20 2.273 . S
Cd16 O24 2.277 . S
O17 C14 1.160 . S
O17 Cd18 2.203 . S
Cd18 O17 2.203 . S
Cd18 O20 2.411 1_455 S
Cd18 O21 2.333 1_455 S
Cd18 O22 2.352 . S
Cd18 O26 2.277 1_455 S
Cd18 O27 2.356 . S
C19 O24 1.209 . S
C19 O26 1.226 . S
O20 Cd16 2.273 . S
O20 Cd18 2.411 1_655 S
O20 C23 1.320 . S
O21 Cd18 2.333 1_655 S
O21 C23 1.214 . S
O22 Cd18 2.352 . S
O22 C25 1.258 . S
C23 O20 1.320 . S
C23 O21 1.214 . S
O24 Cd16 2.277 . S
O24 C19 1.209 . S
C25 O22 1.258 . S
C25 O27 1.282 . S
O26 Cd18 2.277 1_655 S
O26 C19 1.226 . S
O27 Cd18 2.356 . S
O27 C25 1.282 . S
C28 O29 1.306 . S
C28 O31 1.160 . S
O29 C28 1.306 . S
O29 Cd30 2.228 . S
Cd30 O29 2.228 . S
Cd30 O34 2.273 . S
Cd30 O38 2.277 . S
O31 C28 1.160 . S
O31 Cd32 2.203 . S
Cd32 O31 2.203 . S
Cd32 O34 2.411 . S
Cd32 O35 2.333 . S
Cd32 O36 2.352 . S
Cd32 O40 2.277 . S
Cd32 O41 2.356 . S
C33 O38 1.209 . S
C33 O40 1.226 . S
O34 Cd30 2.273 . S
O34 Cd32 2.411 . S
O34 C37 1.320 . S
O35 Cd32 2.333 . S
O35 C37 1.214 . S
O36 Cd32 2.352 . S
O36 C39 1.258 . S
C37 O34 1.320 . S
C37 O35 1.214 . S
O38 Cd30 2.277 . S
O38 C33 1.209 . S
C39 O36 1.258 . S
C39 O41 1.282 . S
O40 Cd32 2.277 . S
O40 C33 1.226 . S
O41 Cd32 2.356 . S
O41 C39 1.282 . S
C42 O43 1.306 . S
C42 O45 1.160 . S
O43 C42 1.306 . S
O43 Cd44 2.228 . S
Cd44 O43 2.228 . S
Cd44 O48 2.273 . S
Cd44 O52 2.277 . S
O45 C42 1.160 . S
O45 Cd46 2.203 . S
Cd46 O45 2.203 . S
Cd46 O48 2.411 . S
Cd46 O49 2.333 . S
Cd46 O50 2.352 . S
Cd46 O54 2.277 . S
Cd46 O55 2.356 . S
C47 O52 1.209 . S
C47 O54 1.226 . S
O48 Cd44 2.273 . S
O48 Cd46 2.411 . S
O48 C51 1.320 . S
O49 Cd46 2.333 . S
O49 C51 1.214 . S
O50 Cd46 2.352 . S
O50 C53 1.258 . S
C51 O48 1.320 . S
C51 O49 1.214 . S
O52 Cd44 2.277 . S
O52 C47 1.209 . S
C53 O50 1.258 . S
C53 O55 1.282 . S
O54 Cd46 2.277 . S
O54 C47 1.226 . S
O55 Cd46 2.356 . S
O55 C53 1.282 . S
C56 O57 1.306 . S
C56 O59 1.160 . S
O57 C56 1.306 . S
O57 Cd58 2.228 . S
Cd58 O57 2.228 . S
Cd58 O62 2.273 . S
Cd58 O66 2.277 . S
O59 C56 1.160 . S
O59 Cd60 2.203 1_655 S
Cd60 O59 2.203 1_455 S
Cd60 O62 2.411 1_455 S
Cd60 O63 2.333 . S
Cd60 O64 2.352 . S
Cd60 O68 2.277 . S
Cd60 O69 2.356 . S
C61 O66 1.209 1_455 S
C61 O68 1.226 . S
O62 Cd58 2.273 . S
O62 Cd60 2.411 1_655 S
O62 C65 1.320 . S
O63 Cd60 2.333 . S
O63 C65 1.214 1_455 S
O64 Cd60 2.352 . S
O64 C67 1.258 . S
C65 O62 1.320 . S
C65 O63 1.214 1_655 S
O66 Cd58 2.277 . S
O66 C61 1.209 1_655 S
C67 O64 1.258 . S
C67 O69 1.282 . S
O68 Cd60 2.277 . S
O68 C61 1.226 . S
O69 Cd60 2.356 . S
O69 C67 1.282 . S
C70 O71 1.306 . S
C70 O73 1.160 . S
O71 C70 1.306 . S
O71 Cd72 2.228 . S
Cd72 O71 2.228 . S
Cd72 O76 2.273 . S
Cd72 O80 2.277 . S
O73 C70 1.160 . S
O73 Cd74 2.203 . S
Cd74 O73 2.203 . S
Cd74 O76 2.411 . S
Cd74 O77 2.333 . S
Cd74 O78 2.352 . S
Cd74 O82 2.277 . S
Cd74 O83 2.356 . S
C75 O80 1.209 . S
C75 O82 1.226 . S
O76 Cd72 2.273 . S
O76 Cd74 2.411 . S
O76 C79 1.320 . S
O77 Cd74 2.333 . S
O77 C79 1.214 . S
O78 Cd74 2.352 . S
O78 C81 1.258 . S
C79 O76 1.320 . S
C79 O77 1.214 . S
O80 Cd72 2.277 . S
O80 C75 1.209 . S
C81 O78 1.258 . S
C81 O83 1.282 . S
O82 Cd74 2.277 . S
O82 C75 1.226 . S
O83 Cd74 2.356 . S
O83 C81 1.282 . S
C84 O85 1.306 . S
C84 O87 1.160 . S
O85 C84 1.306 . S
O85 Cd86 2.228 . S
Cd86 O85 2.228 . S
Cd86 O90 2.273 . S
Cd86 O94 2.277 . S
O87 C84 1.160 . S
O87 Cd88 2.203 . S
Cd88 O87 2.203 . S
Cd88 O90 2.411 . S
Cd88 O91 2.333 . S
Cd88 O92 2.352 . S
Cd88 O96 2.277 . S
Cd88 O97 2.356 . S
C89 O94 1.209 . S
C89 O96 1.226 . S
O90 Cd86 2.273 . S
O90 Cd88 2.411 . S
O90 C93 1.320 . S
O91 Cd88 2.333 . S
O91 C93 1.214 . S
O92 Cd88 2.352 . S
O92 C95 1.258 . S
C93 O90 1.320 . S
C93 O91 1.214 . S
O94 Cd86 2.277 . S
O94 C89 1.209 . S
C95 O92 1.258 . S
C95 O97 1.282 . S
O96 Cd88 2.277 . S
O96 C89 1.226 . S
O97 Cd88 2.356 . S
O97 C95 1.282 . S
C98 O99 1.306 . S
C98 O101 1.160 . S
O99 C98 1.306 . S
O99 Cd100 2.228 1_455 S
Cd100 O99 2.228 1_655 S
Cd100 O104 2.273 . S
Cd100 O108 2.277 . S
O101 C98 1.160 . S
O101 Cd102 2.203 . S
Cd102 O101 2.203 . S
Cd102 O104 2.411 1_455 S
Cd102 O105 2.333 1_455 S
Cd102 O106 2.352 . S
Cd102 O110 2.277 1_455 S
Cd102 O111 2.356 . S
C103 O108 1.209 . S
C103 O110 1.226 . S
O104 Cd100 2.273 . S
O104 Cd102 2.411 1_655 S
O104 C107 1.320 . S
O105 Cd102 2.333 1_655 S
O105 C107 1.214 . S
O106 Cd102 2.352 . S
O106 C109 1.258 . S
C107 O104 1.320 . S
C107 O105 1.214 . S
O108 Cd100 2.277 . S
O108 C103 1.209 . S
C109 O106 1.258 . S
C109 O111 1.282 . S
O110 Cd102 2.277 1_655 S
O110 C103 1.226 . S
O111 Cd102 2.356 . S
O111 C109 1.282 . S
C112 O113 1.306 . S
C112 O115 1.137 1_565 S
O113 C112 1.306 . S
O113 Cd114 2.228 . S
Cd114 O113 2.228 . S
Cd114 O118 2.273 . S
Cd114 O122 2.277 1_565 S
O115 C112 1.137 1_545 S
O115 Cd116 2.210 . S
Cd116 O115 2.210 . S
Cd116 O118 2.411 1_545 S
Cd116 O119 2.333 . S
Cd116 O120 2.352 . S
Cd116 O124 2.277 . S
Cd116 O125 2.356 . S
C117 O122 1.209 . S
C117 O124 1.226 . S
O118 Cd114 2.273 . S
O118 Cd116 2.411 1_565 S
O118 C121 1.320 . S
O119 Cd116 2.333 . S
O119 C121 1.214 1_545 S
O120 Cd116 2.352 . S
O120 C123 1.258 . S
C121 O118 1.320 . S
C121 O119 1.214 1_565 S
O122 Cd114 2.277 1_545 S
O122 C117 1.209 . S
C123 O120 1.258 . S
C123 O125 1.282 . S
O124 Cd116 2.277 . S
O124 C117 1.226 . S
O125 Cd116 2.356 . S
O125 C123 1.282 . S
C126 O127 1.306 . S
C126 O129 1.160 . S
O127 C126 1.306 . S
O127 Cd128 2.228 . S
Cd128 O127 2.228 . S
Cd128 O132 2.273 . S
Cd128 O136 2.277 . S
O129 C126 1.160 . S
O129 Cd130 2.203 . S
Cd130 O129 2.203 . S
Cd130 O132 2.411 . S
Cd130 O133 2.333 . S
Cd130 O134 2.352 . S
Cd130 O138 2.277 . S
Cd130 O139 2.356 . S
C131 O136 1.209 . S
C131 O138 1.226 . S
O132 Cd128 2.273 . S
O132 Cd130 2.411 . S
O132 C135 1.320 . S
O133 Cd130 2.333 . S
O133 C135 1.214 . S
O134 Cd130 2.352 . S
O134 C137 1.258 . S
C135 O132 1.320 . S
C135 O133 1.214 . S
O136 Cd128 2.277 . S
O136 C131 1.209 . S
C137 O134 1.258 . S
C137 O139 1.282 . S
O138 Cd130 2.277 . S
O138 C131 1.226 . S
O139 Cd130 2.356 . S
O139 C137 1.282 . S
C140 O141 1.306 . S
C140 O143 1.160 . S
O141 C140 1.306 . S
O141 Cd142 2.228 . S
Cd142 O141 2.228 . S
Cd142 O146 2.273 . S
Cd142 O150 2.277 . S
O143 C140 1.160 . S
O143 Cd144 2.203 1_565 S
Cd144 O143 2.203 1_545 S
Cd144 O146 2.411 1_545 S
Cd144 O147 2.333 . S
Cd144 O148 2.352 . S
Cd144 O152 2.277 . S
Cd144 O153 2.356 . S
C145 O150 1.209 1_545 S
C145 O152 1.226 . S
O146 Cd142 2.273 . S
O146 Cd144 2.411 1_565 S
O146 C149 1.320 . S
O147 Cd144 2.333 . S
O147 C149 1.214 1_545 S
O148 Cd144 2.352 . S
O148 C151 1.258 . S
C149 O146 1.320 . S
C149 O147 1.214 1_565 S
O150 Cd142 2.277 . S
O150 C145 1.209 1_565 S
C151 O148 1.258 . S
C151 O153 1.282 . S
O152 Cd144 2.277 . S
O152 C145 1.226 . S
O153 Cd144 2.356 . S
O153 C151 1.282 . S
C154 O155 1.306 . S
C154 O157 1.160 . S
O155 C154 1.306 . S
O155 Cd156 2.228 1_554 S
Cd156 O155 2.228 1_556 S
Cd156 O160 2.273 . S
Cd156 O164 2.277 . S
O157 C154 1.160 . S
O157 Cd158 2.203 . S
Cd158 O157 2.203 . S
Cd158 O160 2.411 1_554 S
Cd158 O161 2.333 1_554 S
Cd158 O162 2.352 . S
Cd158 O166 2.277 1_554 S
Cd158 O167 2.356 . S
C159 O164 1.209 . S
C159 O166 1.226 . S
O160 Cd156 2.273 . S
O160 Cd158 2.411 1_556 S
O160 C163 1.320 . S
O161 Cd158 2.333 1_556 S
O161 C163 1.214 . S
O162 Cd158 2.352 . S
O162 C165 1.258 . S
C163 O160 1.320 . S
C163 O161 1.214 . S
O164 Cd156 2.277 . S
O164 C159 1.209 . S
C165 O162 1.258 . S
C165 O167 1.282 . S
O166 Cd158 2.277 1_556 S
O166 C159 1.226 . S
O167 Cd158 2.356 . S
O167 C165 1.282 . S
C168 O169 1.306 . S
C168 O171 1.160 . S
O169 C168 1.306 . S
O169 Cd170 2.228 . S
Cd170 O169 2.228 . S
Cd170 O174 2.273 . S
Cd170 O178 2.277 . S
O171 C168 1.160 . S
O171 Cd172 2.203 1_554 S
Cd172 O171 2.203 1_556 S
Cd172 O174 2.411 1_556 S
Cd172 O175 2.333 . S
Cd172 O176 2.348 1_556 S
Cd172 O180 2.277 . S
Cd172 O181 2.356 . S
C173 O178 1.209 1_556 S
C173 O180 1.226 . S
O174 Cd170 2.273 . S
O174 Cd172 2.411 1_554 S
O174 C177 1.320 . S
O175 Cd172 2.333 . S
O175 C177 1.214 1_556 S
O176 Cd172 2.348 1_554 S
O176 C179 1.235 1_554 S
C177 O174 1.320 . S
C177 O175 1.214 1_554 S
O178 Cd170 2.277 . S
O178 C173 1.209 1_554 S
C179 O176 1.235 1_556 S
C179 O181 1.282 . S
O180 Cd172 2.277 . S
O180 C173 1.226 . S
O181 Cd172 2.356 . S
O181 C179 1.282 . S
C182 O183 1.306 . S
C182 O185 1.160 . S
O183 C182 1.306 . S
O183 Cd184 2.228 . S
Cd184 O183 2.228 . S
Cd184 O188 2.273 . S
Cd184 O192 2.277 . S
O185 C182 1.160 . S
O185 Cd186 2.203 1_554 S
Cd186 O185 2.203 1_556 S
Cd186 O188 2.411 1_556 S
Cd186 O189 2.333 . S
Cd186 O190 2.352 . S
Cd186 O194 2.277 . S
Cd186 O195 2.356 . S
C187 O192 1.209 1_556 S
C187 O194 1.226 . S
O188 Cd184 2.273 . S
O188 Cd186 2.411 1_554 S
O188 C191 1.320 . S
O189 Cd186 2.333 . S
O189 C191 1.214 1_556 S
O190 Cd186 2.352 . S
O190 C193 1.258 . S
C191 O188 1.320 . S
C191 O189 1.214 1_554 S
O192 Cd184 2.277 . S
O192 C187 1.209 1_554 S
C193 O190 1.258 . S
C193 O195 1.282 . S
O194 Cd186 2.277 . S
O194 C187 1.226 . S
O195 Cd186 2.356 . S
O195 C193 1.282 . S
C196 O197 1.306 . S
C196 O199 1.160 . S
O197 C196 1.306 . S
O197 Cd198 2.228 . S
Cd198 O197 2.228 . S
Cd198 O202 2.273 . S
Cd198 O206 2.277 . S
O199 C196 1.160 . S
O199 Cd200 2.203 . S
Cd200 O199 2.203 . S
Cd200 O202 2.411 . S
Cd200 O203 2.333 . S
Cd200 O204 2.352 . S
Cd200 O208 2.277 . S
Cd200 O209 2.356 . S
C201 O206 1.209 . S
C201 O208 1.226 . S
O202 Cd198 2.273 . S
O202 Cd200 2.411 . S
O202 C205 1.320 . S
O203 Cd200 2.333 . S
O203 C205 1.214 . S
O204 Cd200 2.352 . S
O204 C207 1.258 . S
C205 O202 1.320 . S
C205 O203 1.214 . S
O206 Cd198 2.277 . S
O206 C201 1.209 . S
C207 O204 1.258 . S
C207 O209 1.282 . S
O208 Cd200 2.277 . S
O208 C201 1.226 . S
O209 Cd200 2.356 . S
O209 C207 1.282 . S
C210 O211 1.306 . S
C210 O213 1.160 . S
O211 C210 1.306 . S
O211 Cd212 2.228 . S
Cd212 O211 2.228 . S
Cd212 O216 2.273 . S
Cd212 O220 2.277 . S
O213 C210 1.160 . S
O213 Cd214 2.203 . S
Cd214 O213 2.203 . S
Cd214 O216 2.411 . S
Cd214 O217 2.333 . S
Cd214 O218 2.352 . S
Cd214 O222 2.277 . S
Cd214 O223 2.356 . S
C215 O220 1.209 . S
C215 O222 1.226 . S
O216 Cd212 2.273 . S
O216 Cd214 2.411 . S
O216 C219 1.320 . S
O217 Cd214 2.333 . S
O217 C219 1.214 . S
O218 Cd214 2.352 . S
O218 C221 1.258 . S
C219 O216 1.320 . S
C219 O217 1.214 . S
O220 Cd212 2.277 . S
O220 C215 1.209 . S
C221 O218 1.258 . S
C221 O223 1.282 . S
O222 Cd214 2.277 . S
O222 C215 1.226 . S
O223 Cd214 2.356 . S
O223 C221 1.282 . S
C224 O225 1.306 . S
C224 O227 1.160 . S
O225 C224 1.306 . S
O225 Cd226 2.228 1_545 S
Cd226 O225 2.228 1_565 S
Cd226 O230 2.273 . S
Cd226 O234 2.277 . S
O227 C224 1.160 . S
O227 Cd228 2.203 . S
Cd228 O227 2.203 . S
Cd228 O230 2.411 1_545 S
Cd228 O231 2.333 1_545 S
Cd228 O232 2.352 . S
Cd228 O236 2.277 1_545 S
Cd228 O237 2.356 . S
C229 O234 1.209 . S
C229 O236 1.226 . S
O230 Cd226 2.273 . S
O230 Cd228 2.411 1_565 S
O230 C233 1.320 . S
O231 Cd228 2.333 1_565 S
O231 C233 1.214 . S
O232 Cd228 2.352 . S
O232 C235 1.258 . S
C233 O230 1.320 . S
C233 O231 1.214 . S
O234 Cd226 2.277 . S
O234 C229 1.209 . S
C235 O232 1.258 . S
C235 O237 1.282 . S
O236 Cd228 2.277 1_565 S
O236 C229 1.226 . S
O237 Cd228 2.356 . S
O237 C235 1.282 . S
C238 O239 1.306 . S
C238 O241 1.160 . S
O239 C238 1.306 . S
O239 Cd240 2.228 . S
Cd240 O239 2.228 . S
Cd240 O244 2.273 . S
Cd240 O248 2.277 . S
O241 C238 1.160 . S
O241 Cd242 2.203 . S
Cd242 O241 2.203 . S
Cd242 O244 2.411 . S
Cd242 O245 2.333 . S
Cd242 O246 2.352 . S
Cd242 O250 2.277 . S
Cd242 O251 2.356 . S
C243 O248 1.209 . S
C243 O250 1.226 . S
O244 Cd240 2.273 . S
O244 Cd242 2.411 . S
O244 C247 1.320 . S
O245 Cd242 2.333 . S
O245 C247 1.214 . S
O246 Cd242 2.352 . S
O246 C249 1.258 . S
C247 O244 1.320 . S
C247 O245 1.214 . S
O248 Cd240 2.277 . S
O248 C243 1.209 . S
C249 O246 1.258 . S
C249 O251 1.282 . S
O250 Cd242 2.277 . S
O250 C243 1.226 . S
O251 Cd242 2.356 . S
O251 C249 1.282 . S
C252 O253 1.306 . S
C252 O255 1.160 . S
O253 C252 1.306 . S
O253 Cd254 2.228 . S
Cd254 O253 2.228 . S
Cd254 O258 2.273 . S
Cd254 O262 2.277 . S
O255 C252 1.160 . S
O255 Cd256 2.203 . S
Cd256 O255 2.203 . S
Cd256 O258 2.411 . S
Cd256 O259 2.333 . S
Cd256 O260 2.352 . S
Cd256 O264 2.277 . S
Cd256 O265 2.356 . S
C257 O262 1.209 . S
C257 O264 1.226 . S
O258 Cd254 2.273 . S
O258 Cd256 2.411 . S
O258 C261 1.320 . S
O259 Cd256 2.333 . S
O259 C261 1.214 . S
O260 Cd256 2.352 . S
O260 C263 1.258 . S
C261 O258 1.320 . S
C261 O259 1.214 . S
O262 Cd254 2.277 . S
O262 C257 1.209 . S
C263 O260 1.258 . S
C263 O265 1.282 . S
O264 Cd256 2.277 . S
O264 C257 1.226 . S
O265 Cd256 2.356 . S
O265 C263 1.282 . S
C266 O267 1.306 . S
C266 O269 1.160 . S
O267 C266 1.306 . S
O267 Cd268 2.228 1_545 S
Cd268 O267 2.228 1_565 S
Cd268 O272 2.273 . S
Cd268 O276 2.277 . S
O269 C266 1.160 . S
O269 Cd270 2.203 . S
Cd270 O269 2.203 . S
Cd270 O272 2.411 1_545 S
Cd270 O273 2.333 1_545 S
Cd270 O274 2.352 . S
Cd270 O278 2.277 1_545 S
Cd270 O279 2.356 . S
C271 O276 1.209 . S
C271 O278 1.226 . S
O272 Cd268 2.273 . S
O272 Cd270 2.411 1_565 S
O272 C275 1.320 . S
O273 Cd270 2.333 1_565 S
O273 C275 1.214 . S
O274 Cd270 2.352 . S
O274 C277 1.258 . S
C275 O272 1.320 . S
C275 O273 1.214 . S
O276 Cd268 2.277 . S
O276 C271 1.209 . S
C277 O274 1.258 . S
C277 O279 1.282 . S
O278 Cd270 2.277 1_565 S
O278 C271 1.226 . S
O279 Cd270 2.356 . S
O279 C277 1.282 . S
C280 O281 1.306 . S
C280 O283 1.160 . S
O281 C280 1.306 . S
O281 Cd282 2.228 1_554 S
Cd282 O281 2.228 1_556 S
Cd282 O286 2.273 . S
Cd282 O290 2.277 . S
O283 C280 1.160 . S
O283 Cd284 2.203 . S
Cd284 O283 2.203 . S
Cd284 O286 2.411 1_554 S
Cd284 O287 2.333 1_554 S
Cd284 O288 2.352 . S
Cd284 O292 2.277 1_554 S
Cd284 O293 2.356 . S
C285 O290 1.209 . S
C285 O292 1.226 . S
O286 Cd282 2.273 . S
O286 Cd284 2.411 1_556 S
O286 C289 1.320 . S
O287 Cd284 2.333 1_556 S
O287 C289 1.214 . S
O288 Cd284 2.352 . S
O288 C291 1.258 . S
C289 O286 1.320 . S
C289 O287 1.214 . S
O290 Cd282 2.277 . S
O290 C285 1.209 . S
C291 O288 1.258 . S
C291 O293 1.282 . S
O292 Cd284 2.277 1_556 S
O292 C285 1.226 . S
O293 Cd284 2.356 . S
O293 C291 1.282 . S
C294 O295 1.306 . S
C294 O297 1.160 . S
O295 C294 1.306 . S
O295 Cd296 2.228 . S
Cd296 O295 2.228 . S
Cd296 O300 2.273 . S
Cd296 O304 2.277 . S
O297 C294 1.160 . S
O297 Cd298 2.203 . S
Cd298 O297 2.203 . S
Cd298 O300 2.411 . S
Cd298 O301 2.333 . S
Cd298 O302 2.352 . S
Cd298 O306 2.277 . S
Cd298 O307 2.356 . S
C299 O304 1.209 . S
C299 O306 1.226 . S
O300 Cd296 2.273 . S
O300 Cd298 2.411 . S
O300 C303 1.320 . S
O301 Cd298 2.333 . S
O301 C303 1.214 . S
O302 Cd298 2.352 . S
O302 C305 1.258 . S
C303 O300 1.320 . S
C303 O301 1.214 . S
O304 Cd296 2.277 . S
O304 C299 1.209 . S
C305 O302 1.258 . S
C305 O307 1.282 . S
O306 Cd298 2.277 . S
O306 C299 1.226 . S
O307 Cd298 2.356 . S
O307 C305 1.282 . S
C308 O309 1.306 . S
C308 O311 1.160 . S
O309 C308 1.306 . S
O309 Cd310 2.228 . S
Cd310 O309 2.228 . S
Cd310 O314 2.273 . S
Cd310 O318 2.277 . S
O311 C308 1.160 . S
O311 Cd312 2.203 . S
Cd312 O311 2.203 . S
Cd312 O314 2.411 . S
Cd312 O315 2.333 . S
Cd312 O316 2.352 . S
Cd312 O320 2.277 . S
Cd312 O321 2.356 . S
C313 O318 1.209 . S
C313 O320 1.226 . S
O314 Cd310 2.273 . S
O314 Cd312 2.411 . S
O314 C317 1.320 . S
O315 Cd312 2.333 . S
O315 C317 1.214 . S
O316 Cd312 2.352 . S
O316 C319 1.258 . S
C317 O314 1.320 . S
C317 O315 1.214 . S
O318 Cd310 2.277 . S
O318 C313 1.209 . S
C319 O316 1.258 . S
C319 O321 1.282 . S
O320 Cd312 2.277 . S
O320 C313 1.226 . S
O321 Cd312 2.356 . S
O321 C319 1.282 . S
C322 O323 1.306 . S
C322 O325 1.160 . S
O323 C322 1.306 . S
O323 Cd324 2.228 . S
Cd324 O323 2.228 . S
Cd324 O328 2.273 . S
Cd324 O332 2.277 . S
O325 C322 1.160 . S
O325 Cd326 2.203 . S
Cd326 O325 2.203 . S
Cd326 O328 2.411 . S
Cd326 O329 2.333 . S
Cd326 O330 2.352 . S
Cd326 O334 2.277 . S
Cd326 O335 2.356 . S
C327 O332 1.209 . S
C327 O334 1.226 . S
O328 Cd324 2.273 . S
O328 Cd326 2.411 . S
O328 C331 1.320 . S
O329 Cd326 2.333 . S
O329 C331 1.214 . S
O330 Cd326 2.352 . S
O330 C333 1.258 . S
C331 O328 1.320 . S
C331 O329 1.214 . S
O332 Cd324 2.277 . S
O332 C327 1.209 . S
C333 O330 1.258 . S
C333 O335 1.282 . S
O334 Cd326 2.277 . S
O334 C327 1.226 . S
O335 Cd326 2.356 . S
O335 C333 1.282 . S
Sc336 O339 2.025 . S
Sc336 O346 2.105 . S
Sc336 O349 2.105 . S
Sc336 O352 2.105 . S
Sc336 O355 2.105 . S
Sc337 O339 2.025 . S
Sc337 O347 2.105 . S
Sc337 O351 2.105 . S
Sc337 O353 2.105 . S
Sc337 O357 2.105 . S
Sc338 O339 2.025 . S
Sc338 O348 2.105 . S
Sc338 O350 2.105 . S
Sc338 O354 2.105 . S
Sc338 O356 2.105 . S
O339 Sc336 2.025 . S
O339 Sc337 2.025 . S
O339 Sc338 2.025 . S
C340 O346 1.268 . S
C340 O356 1.268 . S
C341 O347 1.268 . S
C341 O355 1.268 . S
C342 O348 1.268 . S
C342 O357 1.268 . S
C343 O349 1.268 . S
C343 O353 1.268 . S
C344 O350 1.268 . S
C344 O352 1.268 . S
C345 O351 1.268 . S
C345 O354 1.268 . S
O346 Sc336 2.105 . S
O346 C340 1.268 . S
O347 Sc337 2.105 . S
O347 C341 1.268 . S
O348 Sc338 2.105 . S
O348 C342 1.268 . S
O349 Sc336 2.105 . S
O349 C343 1.268 . S
O350 Sc338 2.105 . S
O350 C344 1.268 . S
O351 Sc337 2.105 . S
O351 C345 1.268 . S
O352 Sc336 2.105 . S
O352 C344 1.268 . S
O353 Sc337 2.105 . S
O353 C343 1.268 . S
O354 Sc338 2.105 . S
O354 C345 1.268 . S
O355 Sc336 2.105 . S
O355 C341 1.268 . S
O356 Sc338 2.105 . S
O356 C340 1.268 . S
O357 Sc337 2.105 . S
O357 C342 1.268 . S
Sc358 O361 2.025 . S
Sc358 O368 2.105 . S
Sc358 O371 2.105 . S
Sc358 O374 2.105 . S
Sc358 O377 2.105 . S
Sc359 O361 2.025 . S
Sc359 O369 2.105 . S
Sc359 O373 2.105 . S
Sc359 O375 2.105 . S
Sc359 O379 2.105 . S
Sc360 O361 2.025 . S
Sc360 O370 2.105 . S
Sc360 O372 2.105 . S
Sc360 O376 2.105 . S
Sc360 O378 2.105 . S
O361 Sc358 2.025 . S
O361 Sc359 2.025 . S
O361 Sc360 2.025 . S
C362 O368 1.268 . S
C362 O378 1.268 . S
C363 O369 1.268 . S
C363 O377 1.268 . S
C364 O370 1.268 . S
C364 O379 1.268 . S
C365 O371 1.268 . S
C365 O375 1.268 . S
C366 O372 1.268 . S
C366 O374 1.268 . S
C367 O373 1.268 . S
C367 O376 1.268 . S
O368 Sc358 2.105 . S
O368 C362 1.268 . S
O369 Sc359 2.105 . S
O369 C363 1.268 . S
O370 Sc360 2.105 . S
O370 C364 1.268 . S
O371 Sc358 2.105 . S
O371 C365 1.268 . S
O372 Sc360 2.105 . S
O372 C366 1.268 . S
O373 Sc359 2.105 . S
O373 C367 1.268 . S
O374 Sc358 2.105 . S
O374 C366 1.268 . S
O375 Sc359 2.105 . S
O375 C365 1.268 . S
O376 Sc360 2.105 . S
O376 C367 1.268 . S
O377 Sc358 2.105 . S
O377 C363 1.268 . S
O378 Sc360 2.105 . S
O378 C362 1.268 . S
O379 Sc359 2.105 . S
O379 C364 1.268 . S
Sc380 O383 2.025 . S
Sc380 O390 2.105 . S
Sc380 O393 2.105 . S
Sc380 O396 2.105 . S
Sc380 O399 2.105 . S
Sc381 O383 2.025 . S
Sc381 O391 2.105 . S
Sc381 O395 2.105 . S
Sc381 O397 2.105 . S
Sc381 O401 2.105 . S
Sc382 O383 2.025 . S
Sc382 O392 2.105 . S
Sc382 O394 2.105 . S
Sc382 O398 2.105 . S
Sc382 O400 2.105 . S
O383 Sc380 2.025 . S
O383 Sc381 2.025 . S
O383 Sc382 2.025 . S
C384 O390 1.268 . S
C384 O400 1.268 . S
C385 O391 1.268 . S
C385 O399 1.268 . S
C386 O392 1.268 . S
C386 O401 1.268 . S
C387 O393 1.268 . S
C387 O397 1.268 . S
C388 O394 1.268 . S
C388 O396 1.268 . S
C389 O395 1.268 . S
C389 O398 1.268 . S
O390 Sc380 2.105 . S
O390 C384 1.268 . S
O391 Sc381 2.105 . S
O391 C385 1.268 . S
O392 Sc382 2.105 . S
O392 C386 1.268 . S
O393 Sc380 2.105 . S
O393 C387 1.268 . S
O394 Sc382 2.105 . S
O394 C388 1.268 . S
O395 Sc381 2.105 . S
O395 C389 1.268 . S
O396 Sc380 2.105 . S
O396 C388 1.268 . S
O397 Sc381 2.105 . S
O397 C387 1.268 . S
O398 Sc382 2.105 . S
O398 C389 1.268 . S
O399 Sc380 2.105 . S
O399 C385 1.268 . S
O400 Sc382 2.105 . S
O400 C384 1.268 . S
O401 Sc381 2.105 . S
O401 C386 1.268 . S
Sc402 O405 2.025 . S
Sc402 O412 2.105 . S
Sc402 O415 2.105 . S
Sc402 O418 2.105 . S
Sc402 O421 2.105 . S
Sc403 O405 2.025 . S
Sc403 O413 2.105 . S
Sc403 O417 2.105 . S
Sc403 O419 2.105 . S
Sc403 O423 2.105 . S
Sc404 O405 2.025 . S
Sc404 O414 2.105 . S
Sc404 O416 2.105 . S
Sc404 O420 2.105 . S
Sc404 O422 2.105 . S
O405 Sc402 2.025 . S
O405 Sc403 2.025 . S
O405 Sc404 2.025 . S
C406 O412 1.268 . S
C406 O422 1.268 . S
C407 O413 1.268 . S
C407 O421 1.268 . S
C408 O414 1.268 . S
C408 O423 1.268 . S
C409 O415 1.268 . S
C409 O419 1.268 . S
C410 O416 1.268 . S
C410 O418 1.268 . S
C411 O417 1.268 . S
C411 O420 1.268 . S
O412 Sc402 2.105 . S
O412 C406 1.268 . S
O413 Sc403 2.105 . S
O413 C407 1.268 . S
O414 Sc404 2.105 . S
O414 C408 1.268 . S
O415 Sc402 2.105 . S
O415 C409 1.268 . S
O416 Sc404 2.105 . S
O416 C410 1.268 . S
O417 Sc403 2.105 . S
O417 C411 1.268 . S
O418 Sc402 2.105 . S
O418 C410 1.268 . S
O419 Sc403 2.105 . S
O419 C409 1.268 . S
O420 Sc404 2.105 . S
O420 C411 1.268 . S
O421 Sc402 2.105 . S
O421 C407 1.268 . S
O422 Sc404 2.105 . S
O422 C406 1.268 . S
O423 Sc403 2.105 . S
O423 C408 1.268 . S
Sc424 O427 2.025 . S
Sc424 O434 2.105 . S
Sc424 O437 2.105 . S
Sc424 O440 2.105 . S
Sc424 O443 2.105 . S
Sc425 O427 2.025 . S
Sc425 O435 2.105 . S
Sc425 O439 2.105 . S
Sc425 O441 2.105 . S
Sc425 O445 2.105 . S
Sc426 O427 2.025 . S
Sc426 O436 2.105 . S
Sc426 O438 2.105 . S
Sc426 O442 2.105 . S
Sc426 O444 2.105 . S
O427 Sc424 2.025 . S
O427 Sc425 2.025 . S
O427 Sc426 2.025 . S
C428 O434 1.268 . S
C428 O444 1.268 . S
C429 O435 1.268 . S
C429 O443 1.268 . S
C430 O436 1.268 . S
C430 O445 1.268 . S
C431 O437 1.268 . S
C431 O441 1.268 . S
C432 O438 1.268 . S
C432 O440 1.268 . S
C433 O439 1.268 . S
C433 O442 1.268 . S
O434 Sc424 2.105 . S
O434 C428 1.268 . S
O435 Sc425 2.105 . S
O435 C429 1.268 . S
O436 Sc426 2.105 . S
O436 C430 1.268 . S
O437 Sc424 2.105 . S
O437 C431 1.268 . S
O438 Sc426 2.105 . S
O438 C432 1.268 . S
O439 Sc425 2.105 . S
O439 C433 1.268 . S
O440 Sc424 2.105 . S
O440 C432 1.268 . S
O441 Sc425 2.105 . S
O441 C431 1.268 . S
O442 Sc426 2.105 . S
O442 C433 1.268 . S
O443 Sc424 2.105 . S
O443 C429 1.268 . S
O444 Sc426 2.105 . S
O444 C428 1.268 . S
O445 Sc425 2.105 . S
O445 C430 1.268 . S
Sc446 O449 2.025 . S
Sc446 O456 2.105 . S
Sc446 O459 2.105 . S
Sc446 O462 2.105 . S
Sc446 O465 2.105 . S
Sc447 O449 2.025 . S
Sc447 O457 2.105 . S
Sc447 O461 2.105 . S
Sc447 O463 2.105 . S
Sc447 O467 2.105 . S
Sc448 O449 2.025 . S
Sc448 O458 2.105 . S
Sc448 O460 2.105 . S
Sc448 O464 2.105 . S
Sc448 O466 2.105 . S
O449 Sc446 2.025 . S
O449 Sc447 2.025 . S
O449 Sc448 2.025 . S
C450 O456 1.268 . S
C450 O466 1.268 . S
C451 O457 1.268 . S
C451 O465 1.268 . S
C452 O458 1.268 . S
C452 O467 1.268 . S
C453 O459 1.268 . S
C453 O463 1.268 . S
C454 O460 1.268 . S
C454 O462 1.268 . S
C455 O461 1.268 . S
C455 O464 1.268 . S
O456 Sc446 2.105 . S
O456 C450 1.268 . S
O457 Sc447 2.105 . S
O457 C451 1.268 . S
O458 Sc448 2.105 . S
O458 C452 1.268 . S
O459 Sc446 2.105 . S
O459 C453 1.268 . S
O460 Sc448 2.105 . S
O460 C454 1.268 . S
O461 Sc447 2.105 . S
O461 C455 1.268 . S
O462 Sc446 2.105 . S
O462 C454 1.268 . S
O463 Sc447 2.105 . S
O463 C453 1.268 . S
O464 Sc448 2.105 . S
O464 C455 1.268 . S
O465 Sc446 2.105 . S
O465 C451 1.268 . S
O466 Sc448 2.105 . S
O466 C450 1.268 . S
O467 Sc447 2.105 . S
O467 C452 1.268 . S
Sc468 O471 2.025 . S
Sc468 O478 2.105 . S
Sc468 O481 2.105 . S
Sc468 O484 2.105 . S
Sc468 O487 2.105 . S
Sc469 O471 2.025 . S
Sc469 O479 2.105 . S
Sc469 O483 2.105 . S
Sc469 O485 2.105 . S
Sc469 O489 2.105 . S
Sc470 O471 2.025 . S
Sc470 O480 2.105 . S
Sc470 O482 2.105 . S
Sc470 O486 2.105 . S
Sc470 O488 2.105 . S
O471 Sc468 2.025 . S
O471 Sc469 2.025 . S
O471 Sc470 2.025 . S
C472 O478 1.268 . S
C472 O488 1.268 . S
C473 O479 1.268 . S
C473 O487 1.268 . S
C474 O480 1.268 . S
C474 O489 1.268 . S
C475 O481 1.268 . S
C475 O485 1.268 . S
C476 O482 1.268 . S
C476 O484 1.268 . S
C477 O483 1.268 . S
C477 O486 1.268 . S
O478 Sc468 2.105 . S
O478 C472 1.268 . S
O479 Sc469 2.105 . S
O479 C473 1.268 . S
O480 Sc470 2.105 . S
O480 C474 1.268 . S
O481 Sc468 2.105 . S
O481 C475 1.268 . S
O482 Sc470 2.105 . S
O482 C476 1.268 . S
O483 Sc469 2.105 . S
O483 C477 1.268 . S
O484 Sc468 2.105 . S
O484 C476 1.268 . S
O485 Sc469 2.105 . S
O485 C475 1.268 . S
O486 Sc470 2.105 . S
O486 C477 1.268 . S
O487 Sc468 2.105 . S
O487 C473 1.268 . S
O488 Sc470 2.105 . S
O488 C472 1.268 . S
O489 Sc469 2.105 . S
O489 C474 1.268 . S
Sc490 O493 2.025 . S
Sc490 O500 2.105 . S
Sc490 O503 2.105 . S
Sc490 O506 2.105 . S
Sc490 O509 2.105 . S
Sc491 O493 2.025 . S
Sc491 O501 2.105 . S
Sc491 O505 2.105 . S
Sc491 O507 2.105 . S
Sc491 O511 2.105 . S
Sc492 O493 2.025 . S
Sc492 O502 2.105 . S
Sc492 O504 2.105 . S
Sc492 O508 2.105 . S
Sc492 O510 2.105 . S
O493 Sc490 2.025 . S
O493 Sc491 2.025 . S
O493 Sc492 2.025 . S
C494 O500 1.268 . S
C494 O510 1.268 . S
C495 O501 1.268 . S
C495 O509 1.268 . S
C496 O502 1.268 . S
C496 O511 1.268 . S
C497 O503 1.268 . S
C497 O507 1.268 . S
C498 O504 1.268 . S
C498 O506 1.268 . S
C499 O505 1.268 . S
C499 O508 1.268 . S
O500 Sc490 2.105 . S
O500 C494 1.268 . S
O501 Sc491 2.105 . S
O501 C495 1.268 . S
O502 Sc492 2.105 . S
O502 C496 1.268 . S
O503 Sc490 2.105 . S
O503 C497 1.268 . S
O504 Sc492 2.105 . S
O504 C498 1.268 . S
O505 Sc491 2.105 . S
O505 C499 1.268 . S
O506 Sc490 2.105 . S
O506 C498 1.268 . S
O507 Sc491 2.105 . S
O507 C497 1.268 . S
O508 Sc492 2.105 . S
O508 C499 1.268 . S
O509 Sc490 2.105 . S
O509 C495 1.268 . S
O510 Sc492 2.105 . S
O510 C494 1.268 . S
O511 Sc491 2.105 . S
O511 C496 1.268 . S
Sc512 O515 2.025 . S
Sc512 O522 2.105 . S
Sc512 O525 2.105 . S
Sc512 O528 2.105 . S
Sc512 O531 2.105 . S
Sc513 O515 2.025 . S
Sc513 O523 2.105 . S
Sc513 O527 2.105 . S
Sc513 O529 2.105 . S
Sc513 O533 2.105 . S
Sc514 O515 2.025 . S
Sc514 O524 2.105 . S
Sc514 O526 2.105 . S
Sc514 O530 2.105 . S
Sc514 O532 2.105 . S
O515 Sc512 2.025 . S
O515 Sc513 2.025 . S
O515 Sc514 2.025 . S
C516 O522 1.268 . S
C516 O532 1.268 . S
C517 O523 1.268 . S
C517 O531 1.268 . S
C518 O524 1.268 . S
C518 O533 1.268 . S
C519 O525 1.268 . S
C519 O529 1.268 . S
C520 O526 1.268 . S
C520 O528 1.268 . S
C521 O527 1.268 . S
C521 O530 1.268 . S
O522 Sc512 2.105 . S
O522 C516 1.268 . S
O523 Sc513 2.105 . S
O523 C517 1.268 . S
O524 Sc514 2.105 . S
O524 C518 1.268 . S
O525 Sc512 2.105 . S
O525 C519 1.268 . S
O526 Sc514 2.105 . S
O526 C520 1.268 . S
O527 Sc513 2.105 . S
O527 C521 1.268 . S
O528 Sc512 2.105 . S
O528 C520 1.268 . S
O529 Sc513 2.105 . S
O529 C519 1.268 . S
O530 Sc514 2.105 . S
O530 C521 1.268 . S
O531 Sc512 2.105 . S
O531 C517 1.268 . S
O532 Sc514 2.105 . S
O532 C516 1.268 . S
O533 Sc513 2.105 . S
O533 C518 1.268 . S
Sc534 O537 2.025 . S
Sc534 O544 2.105 . S
Sc534 O547 2.105 . S
Sc534 O550 2.105 . S
Sc534 O553 2.105 . S
Sc535 O537 2.025 . S
Sc535 O545 2.105 . S
Sc535 O549 2.105 . S
Sc535 O551 2.105 . S
Sc535 O555 2.105 . S
Sc536 O537 2.025 . S
Sc536 O546 2.105 . S
Sc536 O548 2.105 . S
Sc536 O552 2.105 . S
Sc536 O554 2.105 . S
O537 Sc534 2.025 . S
O537 Sc535 2.025 . S
O537 Sc536 2.025 . S
C538 O544 1.268 . S
C538 O554 1.268 . S
C539 O545 1.268 . S
C539 O553 1.268 . S
C540 O546 1.268 . S
C540 O555 1.268 . S
C541 O547 1.268 . S
C541 O551 1.268 . S
C542 O548 1.268 . S
C542 O550 1.268 . S
C543 O549 1.268 . S
C543 O552 1.268 . S
O544 Sc534 2.105 . S
O544 C538 1.268 . S
O545 Sc535 2.105 . S
O545 C539 1.268 . S
O546 Sc536 2.105 . S
O546 C540 1.268 . S
O547 Sc534 2.105 . S
O547 C541 1.268 . S
O548 Sc536 2.105 . S
O548 C542 1.268 . S
O549 Sc535 2.105 . S
O549 C543 1.268 . S
O550 Sc534 2.105 . S
O550 C542 1.268 . S
O551 Sc535 2.105 . S
O551 C541 1.268 . S
O552 Sc536 2.105 . S
O552 C543 1.268 . S
O553 Sc534 2.105 . S
O553 C539 1.268 . S
O554 Sc536 2.105 . S
O554 C538 1.268 . S
O555 Sc535 2.105 . S
O555 C540 1.268 . S
Sc556 O559 2.025 . S
Sc556 O566 2.105 . S
Sc556 O569 2.105 . S
Sc556 O572 2.105 . S
Sc556 O575 2.105 . S
Sc557 O559 2.025 . S
Sc557 O567 2.105 . S
Sc557 O571 2.105 . S
Sc557 O573 2.105 . S
Sc557 O577 2.105 . S
Sc558 O559 2.025 . S
Sc558 O568 2.105 . S
Sc558 O570 2.105 . S
Sc558 O574 2.105 . S
Sc558 O576 2.105 . S
O559 Sc556 2.025 . S
O559 Sc557 2.025 . S
O559 Sc558 2.025 . S
C560 O566 1.268 . S
C560 O576 1.268 . S
C561 O567 1.268 . S
C561 O575 1.268 . S
C562 O568 1.268 . S
C562 O577 1.268 . S
C563 O569 1.268 . S
C563 O573 1.268 . S
C564 O570 1.268 . S
C564 O572 1.268 . S
C565 O571 1.268 . S
C565 O574 1.268 . S
O566 Sc556 2.105 . S
O566 C560 1.268 . S
O567 Sc557 2.105 . S
O567 C561 1.268 . S
O568 Sc558 2.105 . S
O568 C562 1.268 . S
O569 Sc556 2.105 . S
O569 C563 1.268 . S
O570 Sc558 2.105 . S
O570 C564 1.268 . S
O571 Sc557 2.105 . S
O571 C565 1.268 . S
O572 Sc556 2.105 . S
O572 C564 1.268 . S
O573 Sc557 2.105 . S
O573 C563 1.268 . S
O574 Sc558 2.105 . S
O574 C565 1.268 . S
O575 Sc556 2.105 . S
O575 C561 1.268 . S
O576 Sc558 2.105 . S
O576 C560 1.268 . S
O577 Sc557 2.105 . S
O577 C562 1.268 . S
Sc578 O581 2.025 . S
Sc578 O588 2.105 . S
Sc578 O591 2.105 . S
Sc578 O594 2.105 . S
Sc578 O597 2.105 . S
Sc579 O581 2.025 . S
Sc579 O589 2.105 . S
Sc579 O593 2.105 . S
Sc579 O595 2.105 . S
Sc579 O599 2.105 . S
Sc580 O581 2.025 . S
Sc580 O590 2.105 . S
Sc580 O592 2.105 . S
Sc580 O596 2.105 . S
Sc580 O598 2.105 . S
O581 Sc578 2.025 . S
O581 Sc579 2.025 . S
O581 Sc580 2.025 . S
C582 O588 1.268 . S
C582 O598 1.268 . S
C583 O589 1.268 . S
C583 O597 1.268 . S
C584 O590 1.268 . S
C584 O599 1.268 . S
C585 O591 1.268 . S
C585 O595 1.268 . S
C586 O592 1.268 . S
C586 O594 1.268 . S
C587 O593 1.268 . S
C587 O596 1.268 . S
O588 Sc578 2.105 . S
O588 C582 1.268 . S
O589 Sc579 2.105 . S
O589 C583 1.268 . S
O590 Sc580 2.105 . S
O590 C584 1.268 . S
O591 Sc578 2.105 . S
O591 C585 1.268 . S
O592 Sc580 2.105 . S
O592 C586 1.268 . S
O593 Sc579 2.105 . S
O593 C587 1.268 . S
O594 Sc578 2.105 . S
O594 C586 1.268 . S
O595 Sc579 2.105 . S
O595 C585 1.268 . S
O596 Sc580 2.105 . S
O596 C587 1.268 . S
O597 Sc578 2.105 . S
O597 C583 1.268 . S
O598 Sc580 2.105 . S
O598 C582 1.268 . S
O599 Sc579 2.105 . S
O599 C584 1.268 . S
Sc600 O603 2.025 . S
Sc600 O610 2.105 . S
Sc600 O613 2.105 . S
Sc600 O616 2.105 . S
Sc600 O619 2.105 . S
Sc601 O603 2.025 . S
Sc601 O611 2.105 . S
Sc601 O615 2.105 . S
Sc601 O617 2.105 . S
Sc601 O621 2.105 . S
Sc602 O603 2.025 . S
Sc602 O612 2.105 . S
Sc602 O614 2.105 . S
Sc602 O618 2.105 . S
Sc602 O620 2.105 . S
O603 Sc600 2.025 . S
O603 Sc601 2.025 . S
O603 Sc602 2.025 . S
C604 O610 1.268 . S
C604 O620 1.268 . S
C605 O611 1.268 . S
C605 O619 1.268 . S
C606 O612 1.268 . S
C606 O621 1.268 . S
C607 O613 1.268 . S
C607 O617 1.268 . S
C608 O614 1.268 . S
C608 O616 1.268 . S
C609 O615 1.268 . S
C609 O618 1.268 . S
O610 Sc600 2.105 . S
O610 C604 1.268 . S
O611 Sc601 2.105 . S
O611 C605 1.268 . S
O612 Sc602 2.105 . S
O612 C606 1.268 . S
O613 Sc600 2.105 . S
O613 C607 1.268 . S
O614 Sc602 2.105 . S
O614 C608 1.268 . S
O615 Sc601 2.105 . S
O615 C609 1.268 . S
O616 Sc600 2.105 . S
O616 C608 1.268 . S
O617 Sc601 2.105 . S
O617 C607 1.268 . S
O618 Sc602 2.105 . S
O618 C609 1.268 . S
O619 Sc600 2.105 . S
O619 C605 1.268 . S
O620 Sc602 2.105 . S
O620 C604 1.268 . S
O621 Sc601 2.105 . S
O621 C606 1.268 . S
Sc622 O625 2.025 . S
Sc622 O632 2.105 . S
Sc622 O635 2.105 . S
Sc622 O638 2.105 . S
Sc622 O641 2.105 . S
Sc623 O625 2.025 . S
Sc623 O633 2.105 . S
Sc623 O637 2.105 . S
Sc623 O639 2.105 . S
Sc623 O643 2.105 . S
Sc624 O625 2.025 . S
Sc624 O634 2.105 . S
Sc624 O636 2.105 . S
Sc624 O640 2.105 . S
Sc624 O642 2.105 . S
O625 Sc622 2.025 . S
O625 Sc623 2.025 . S
O625 Sc624 2.025 . S
C626 O632 1.268 . S
C626 O642 1.268 . S
C627 O633 1.268 . S
C627 O641 1.268 . S
C628 O634 1.268 . S
C628 O643 1.268 . S
C629 O635 1.268 . S
C629 O639 1.268 . S
C630 O636 1.268 . S
C630 O638 1.268 . S
C631 O637 1.268 . S
C631 O640 1.268 . S
O632 Sc622 2.105 . S
O632 C626 1.268 . S
O633 Sc623 2.105 . S
O633 C627 1.268 . S
O634 Sc624 2.105 . S
O634 C628 1.268 . S
O635 Sc622 2.105 . S
O635 C629 1.268 . S
O636 Sc624 2.105 . S
O636 C630 1.268 . S
O637 Sc623 2.105 . S
O637 C631 1.268 . S
O638 Sc622 2.105 . S
O638 C630 1.268 . S
O639 Sc623 2.105 . S
O639 C629 1.268 . S
O640 Sc624 2.105 . S
O640 C631 1.268 . S
O641 Sc622 2.105 . S
O641 C627 1.268 . S
O642 Sc624 2.105 . S
O642 C626 1.268 . S
O643 Sc623 2.105 . S
O643 C628 1.268 . S
Sc644 O647 2.025 . S
Sc644 O654 2.105 . S
Sc644 O657 2.105 . S
Sc644 O660 2.105 . S
Sc644 O663 2.105 . S
Sc645 O647 2.025 . S
Sc645 O655 2.105 . S
Sc645 O659 2.105 . S
Sc645 O661 2.105 . S
Sc645 O665 2.105 . S
Sc646 O647 2.025 . S
Sc646 O656 2.105 . S
Sc646 O658 2.105 . S
Sc646 O662 2.105 . S
Sc646 O664 2.105 . S
O647 Sc644 2.025 . S
O647 Sc645 2.025 . S
O647 Sc646 2.025 . S
C648 O654 1.268 . S
C648 O664 1.268 . S
C649 O655 1.268 . S
C649 O663 1.268 . S
C650 O656 1.268 . S
C650 O665 1.268 . S
C651 O657 1.268 . S
C651 O661 1.268 . S
C652 O658 1.268 . S
C652 O660 1.268 . S
C653 O659 1.268 . S
C653 O662 1.268 . S
O654 Sc644 2.105 . S
O654 C648 1.268 . S
O655 Sc645 2.105 . S
O655 C649 1.268 . S
O656 Sc646 2.105 . S
O656 C650 1.268 . S
O657 Sc644 2.105 . S
O657 C651 1.268 . S
O658 Sc646 2.105 . S
O658 C652 1.268 . S
O659 Sc645 2.105 . S
O659 C653 1.268 . S
O660 Sc644 2.105 . S
O660 C652 1.268 . S
O661 Sc645 2.105 . S
O661 C651 1.268 . S
O662 Sc646 2.105 . S
O662 C653 1.268 . S
O663 Sc644 2.105 . S
O663 C649 1.268 . S
O664 Sc646 2.105 . S
O664 C648 1.268 . S
O665 Sc645 2.105 . S
O665 C650 1.268 . S
Sc666 O669 2.025 . S
Sc666 O676 2.105 . S
Sc666 O679 2.105 . S
Sc666 O682 2.105 . S
Sc666 O685 2.105 . S
Sc667 O669 2.025 . S
Sc667 O677 2.105 . S
Sc667 O681 2.105 . S
Sc667 O683 2.105 . S
Sc667 O687 2.105 . S
Sc668 O669 2.025 . S
Sc668 O678 2.105 . S
Sc668 O680 2.105 . S
Sc668 O684 2.105 . S
Sc668 O686 2.105 . S
O669 Sc666 2.025 . S
O669 Sc667 2.025 . S
O669 Sc668 2.025 . S
C670 O676 1.268 . S
C670 O686 1.268 . S
C671 O677 1.268 . S
C671 O685 1.268 . S
C672 O678 1.268 . S
C672 O687 1.268 . S
C673 O679 1.268 . S
C673 O683 1.268 . S
C674 O680 1.268 . S
C674 O682 1.268 . S
C675 O681 1.268 . S
C675 O684 1.268 . S
O676 Sc666 2.105 . S
O676 C670 1.268 . S
O677 Sc667 2.105 . S
O677 C671 1.268 . S
O678 Sc668 2.105 . S
O678 C672 1.268 . S
O679 Sc666 2.105 . S
O679 C673 1.268 . S
O680 Sc668 2.105 . S
O680 C674 1.268 . S
O681 Sc667 2.105 . S
O681 C675 1.268 . S
O682 Sc666 2.105 . S
O682 C674 1.268 . S
O683 Sc667 2.105 . S
O683 C673 1.268 . S
O684 Sc668 2.105 . S
O684 C675 1.268 . S
O685 Sc666 2.105 . S
O685 C671 1.268 . S
O686 Sc668 2.105 . S
O686 C670 1.268 . S
O687 Sc667 2.105 . S
O687 C672 1.268 . S
H688 C694 0.930 . S
H689 C698 0.930 . S
H690 C703 0.929 . S
H691 C701 0.929 . S
H692 C696 0.929 . S
H693 C702 0.929 . S
C694 H688 0.930 . S
C694 C695 1.367 . S
C694 C702 1.378 . S
C695 C694 1.367 . S
C695 C703 1.433 . S
C696 H692 0.929 . S
C696 C698 1.378 . S
C696 C700 1.350 . S
C697 C700 1.463 . S
C697 C702 1.350 . S
C697 N705 1.427 . S
C698 H689 0.930 . S
C698 C696 1.378 . S
C698 C699 1.367 . S
C699 C698 1.367 . S
C699 C701 1.433 . S
C700 C696 1.350 . S
C700 C697 1.463 . S
C700 N704 1.427 . S
C701 H691 0.929 . S
C701 C699 1.433 . S
C701 N704 1.384 . S
C702 H693 0.929 . S
C702 C694 1.378 . S
C702 C697 1.350 . S
C703 H690 0.929 . S
C703 C695 1.433 . S
C703 N705 1.384 . S
N704 C700 1.427 . S
N704 C701 1.384 . S
N705 C697 1.427 . S
N705 C703 1.384 . S
H706 C712 0.930 . S
H707 C716 0.930 . S
H708 C721 0.929 . S
H709 C719 0.929 . S
H710 C714 0.929 . S
H711 C720 0.929 . S
C712 H706 0.930 . S
C712 C713 1.367 . S
C712 C720 1.378 . S
C713 C712 1.367 . S
C713 C721 1.433 . S
C714 H710 0.929 . S
C714 C716 1.378 . S
C714 C718 1.350 . S
C715 C718 1.463 . S
C715 C720 1.350 . S
C715 N723 1.427 . S
C716 H707 0.930 . S
C716 C714 1.378 . S
C716 C717 1.367 . S
C717 C716 1.367 . S
C717 C719 1.433 . S
C718 C714 1.350 . S
C718 C715 1.463 . S
C718 N722 1.427 . S
C719 H709 0.929 . S
C719 C717 1.433 . S
C719 N722 1.384 . S
C720 H711 0.929 . S
C720 C712 1.378 . S
C720 C715 1.350 . S
C721 H708 0.929 . S
C721 C713 1.433 . S
C721 N723 1.384 . S
N722 C718 1.427 . S
N722 C719 1.384 . S
N723 C715 1.427 . S
N723 C721 1.384 . S
H724 C730 0.930 . S
H725 C734 0.930 . S
H726 C739 0.929 . S
H727 C737 0.929 . S
H728 C732 0.929 . S
H729 C738 0.929 . S
C730 H724 0.930 . S
C730 C731 1.367 . S
C730 C738 1.378 . S
C731 C730 1.367 . S
C731 C739 1.433 . S
C732 H728 0.929 . S
C732 C734 1.378 . S
C732 C736 1.350 . S
C733 C736 1.463 . S
C733 C738 1.350 . S
C733 N741 1.427 . S
C734 H725 0.930 . S
C734 C732 1.378 . S
C734 C735 1.367 . S
C735 C734 1.367 . S
C735 C737 1.433 . S
C736 C732 1.350 . S
C736 C733 1.463 . S
C736 N740 1.427 . S
C737 H727 0.929 . S
C737 C735 1.433 . S
C737 N740 1.384 . S
C738 H729 0.929 . S
C738 C730 1.378 . S
C738 C733 1.350 . S
C739 H726 0.929 . S
C739 C731 1.433 . S
C739 N741 1.384 . S
N740 C736 1.427 . S
N740 C737 1.384 . S
N741 C733 1.427 . S
N741 C739 1.384 . S
H742 C748 0.930 . S
H743 C752 0.930 . S
H744 C757 0.929 . S
H745 C755 0.929 . S
H746 C750 0.929 . S
H747 C756 0.929 . S
C748 H742 0.930 . S
C748 C749 1.367 . S
C748 C756 1.378 . S
C749 C748 1.367 . S
C749 C757 1.433 . S
C750 H746 0.929 . S
C750 C752 1.378 . S
C750 C754 1.350 1_556 S
C751 C754 1.463 . S
C751 C756 1.350 . S
C751 N759 1.427 . S
C752 H743 0.930 . S
C752 C750 1.378 . S
C752 C753 1.367 . S
C753 C752 1.367 . S
C753 C755 1.433 . S
C754 C750 1.350 1_554 S
C754 C751 1.463 . S
C754 N758 1.427 . S
C755 H745 0.929 . S
C755 C753 1.433 . S
C755 N758 1.384 1_556 S
C756 H747 0.929 . S
C756 C748 1.378 . S
C756 C751 1.350 . S
C757 H744 0.929 . S
C757 C749 1.433 . S
C757 N759 1.384 . S
N758 C754 1.427 . S
N758 C755 1.384 1_554 S
N759 C751 1.427 . S
N759 C757 1.384 . S
H760 C766 0.930 . S
H761 C770 0.930 . S
H762 C775 0.929 . S
H763 C773 0.929 . S
H764 C768 0.929 . S
H765 C774 0.929 . S
C766 H760 0.930 . S
C766 C767 1.367 . S
C766 C774 1.378 . S
C767 C766 1.367 . S
C767 C775 1.433 . S
C768 H764 0.929 . S
C768 C770 1.378 . S
C768 C772 1.350 . S
C769 C772 1.463 . S
C769 C774 1.350 . S
C769 N777 1.427 . S
C770 H761 0.930 . S
C770 C768 1.378 . S
C770 C771 1.367 . S
C771 C770 1.367 . S
C771 C773 1.433 . S
C772 C768 1.350 . S
C772 C769 1.463 . S
C772 N776 1.427 . S
C773 H763 0.929 . S
C773 C771 1.433 . S
C773 N776 1.384 . S
C774 H765 0.929 . S
C774 C766 1.378 . S
C774 C769 1.350 . S
C775 H762 0.929 . S
C775 C767 1.433 . S
C775 N777 1.384 . S
N776 C772 1.427 . S
N776 C773 1.384 . S
N777 C769 1.427 . S
N777 C775 1.384 . S
H778 C784 0.930 . S
H779 C788 0.930 . S
H780 C793 0.929 . S
H781 C791 0.929 . S
H782 C786 0.929 . S
H783 C792 0.929 . S
C784 H778 0.930 . S
C784 C785 1.367 . S
C784 C792 1.378 . S
C785 C784 1.367 . S
C785 C793 1.433 . S
C786 H782 0.929 . S
C786 C788 1.378 . S
C786 C790 1.350 . S
C787 C790 1.463 . S
C787 C792 1.350 . S
C787 N795 1.427 . S
C788 H779 0.930 . S
C788 C786 1.378 . S
C788 C789 1.367 . S
C789 C788 1.367 . S
C789 C791 1.433 . S
C790 C786 1.350 . S
C790 C787 1.463 . S
C790 N794 1.427 . S
C791 H781 0.929 . S
C791 C789 1.433 . S
C791 N794 1.384 . S
C792 H783 0.929 . S
C792 C784 1.378 . S
C792 C787 1.350 . S
C793 H780 0.929 . S
C793 C785 1.433 . S
C793 N795 1.384 . S
N794 C790 1.427 . S
N794 C791 1.384 . S
N795 C787 1.427 . S
N795 C793 1.384 . S
H796 C802 0.930 . S
H797 C806 0.930 . S
H798 C811 0.929 . S
H799 C809 0.929 . S
H800 C804 0.929 . S
H801 C810 0.929 . S
C802 H796 0.930 . S
C802 C803 1.367 . S
C802 C810 1.378 . S
C803 C802 1.367 . S
C803 C811 1.433 . S
C804 H800 0.929 . S
C804 C806 1.378 . S
C804 C808 1.350 . S
C805 C808 1.463 . S
C805 C810 1.350 . S
C805 N813 1.427 . S
C806 H797 0.930 . S
C806 C804 1.378 . S
C806 C807 1.367 . S
C807 C806 1.367 . S
C807 C809 1.433 . S
C808 C804 1.350 . S
C808 C805 1.463 . S
C808 N812 1.427 . S
C809 H799 0.929 . S
C809 C807 1.433 . S
C809 N812 1.384 . S
C810 H801 0.929 . S
C810 C802 1.378 . S
C810 C805 1.350 . S
C811 H798 0.929 . S
C811 C803 1.433 . S
C811 N813 1.384 . S
N812 C808 1.427 . S
N812 C809 1.384 . S
N813 C805 1.427 . S
N813 C811 1.384 . S
H814 C820 0.930 . S
H815 C824 0.930 . S
H816 C829 0.929 . S
H817 C827 0.929 . S
H818 C822 0.945 . S
H819 C828 0.959 . S
C820 H814 0.930 . S
C820 C821 1.367 . S
C820 C828 1.378 . S
C821 C820 1.367 . S
C821 C829 1.433 . S
C822 H818 0.945 . S
C822 C824 1.363 1_556 S
C822 C826 1.348 1_556 S
C823 C826 1.463 1_556 S
C823 C828 1.350 . S
C823 N831 1.427 . S
C824 H815 0.930 . S
C824 C822 1.363 1_554 S
C824 C825 1.367 . S
C825 C824 1.367 . S
C825 C827 1.433 . S
C826 C822 1.348 1_554 S
C826 C823 1.463 1_554 S
C826 N830 1.427 . S
C827 H817 0.929 . S
C827 C825 1.433 . S
C827 N830 1.384 . S
C828 H819 0.959 . S
C828 C820 1.378 . S
C828 C823 1.350 . S
C829 H816 0.929 . S
C829 C821 1.433 . S
C829 N831 1.384 . S
N830 C826 1.427 . S
N830 C827 1.384 . S
N831 C823 1.427 . S
N831 C829 1.384 . S
H832 C838 0.930 . S
H833 C842 0.930 . S
H834 C847 0.929 . S
H835 C845 0.929 . S
H836 C840 0.929 . S
H837 C846 0.929 . S
C838 H832 0.930 . S
C838 C839 1.367 . S
C838 C846 1.378 . S
C839 C838 1.367 . S
C839 C847 1.433 . S
C840 H836 0.929 . S
C840 C842 1.378 . S
C840 C844 1.350 . S
C841 C844 1.463 . S
C841 C846 1.350 . S
C841 N849 1.427 . S
C842 H833 0.930 . S
C842 C840 1.378 . S
C842 C843 1.367 . S
C843 C842 1.367 . S
C843 C845 1.433 . S
C844 C840 1.350 . S
C844 C841 1.463 . S
C844 N848 1.427 . S
C845 H835 0.929 . S
C845 C843 1.433 . S
C845 N848 1.384 . S
C846 H837 0.929 . S
C846 C838 1.378 . S
C846 C841 1.350 . S
C847 H834 0.929 . S
C847 C839 1.433 . S
C847 N849 1.384 . S
N848 C844 1.427 . S
N848 C845 1.384 . S
N849 C841 1.427 . S
N849 C847 1.384 . S
H850 C856 0.930 . S
H851 C860 0.930 . S
H852 C865 0.929 . S
H853 C863 0.929 . S
H854 C858 0.929 . S
H855 C864 0.929 . S
C856 H850 0.930 . S
C856 C857 1.367 . S
C856 C864 1.378 . S
C857 C856 1.367 . S
C857 C865 1.433 . S
C858 H854 0.929 . S
C858 C860 1.378 1_545 S
C858 C862 1.350 . S
C859 C862 1.463 . S
C859 C864 1.350 . S
C859 N867 1.427 . S
C860 H851 0.930 . S
C860 C858 1.378 1_565 S
C860 C861 1.367 . S
C861 C860 1.367 . S
C861 C863 1.433 . S
C862 C858 1.350 . S
C862 C859 1.463 . S
C862 N866 1.427 1_545 S
C863 H853 0.929 . S
C863 C861 1.433 . S
C863 N866 1.384 . S
C864 H855 0.929 . S
C864 C856 1.378 . S
C864 C859 1.350 . S
C865 H852 0.929 . S
C865 C857 1.433 . S
C865 N867 1.384 . S
N866 C862 1.427 1_565 S
N866 C863 1.384 . S
N867 C859 1.427 . S
N867 C865 1.384 . S
H868 C874 0.930 . S
H869 C878 0.930 . S
H870 C883 0.929 . S
H871 C881 0.929 . S
H872 C876 0.929 . S
H873 C882 0.929 . S
C874 H868 0.930 . S
C874 C875 1.367 . S
C874 C882 1.378 . S
C875 C874 1.367 . S
C875 C883 1.433 . S
C876 H872 0.929 . S
C876 C878 1.378 . S
C876 C880 1.350 . S
C877 C880 1.463 . S
C877 C882 1.350 . S
C877 N885 1.427 . S
C878 H869 0.930 . S
C878 C876 1.378 . S
C878 C879 1.367 . S
C879 C878 1.367 . S
C879 C881 1.433 . S
C880 C876 1.350 . S
C880 C877 1.463 . S
C880 N884 1.427 . S
C881 H871 0.929 . S
C881 C879 1.433 . S
C881 N884 1.384 . S
C882 H873 0.929 . S
C882 C874 1.378 . S
C882 C877 1.350 . S
C883 H870 0.929 . S
C883 C875 1.433 . S
C883 N885 1.384 . S
N884 C880 1.427 . S
N884 C881 1.384 . S
N885 C877 1.427 . S
N885 C883 1.384 . S
H886 C892 0.930 . S
H887 C896 0.930 . S
H888 C901 0.929 . S
H889 C899 0.929 . S
H890 C894 0.929 . S
H891 C900 0.929 . S
C892 H886 0.930 . S
C892 C893 1.367 . S
C892 C900 1.378 . S
C893 C892 1.367 . S
C893 C901 1.433 . S
C894 H890 0.929 . S
C894 C896 1.378 1_565 S
C894 C898 1.355 . S
C895 C898 1.492 . S
C895 C900 1.350 . S
C895 N903 1.427 . S
C896 H887 0.930 . S
C896 C894 1.378 1_545 S
C896 C897 1.367 . S
C897 C896 1.367 . S
C897 C899 1.433 . S
C898 C894 1.355 . S
C898 C895 1.492 . S
C898 N902 1.394 1_565 S
C899 H889 0.929 . S
C899 C897 1.433 . S
C899 N902 1.384 . S
C900 H891 0.929 . S
C900 C892 1.378 . S
C900 C895 1.350 . S
C901 H888 0.929 . S
C901 C893 1.433 . S
C901 N903 1.384 . S
N902 C898 1.394 1_545 S
N902 C899 1.384 . S
N903 C895 1.427 . S
N903 C901 1.384 . S
H904 C910 0.930 . S
H905 C914 0.930 . S
H906 C919 0.929 1_545 S
H907 C917 0.929 . S
H908 C912 0.929 . S
H909 C918 0.929 . S
C910 H904 0.930 . S
C910 C911 1.367 . S
C910 C918 1.378 . S
C911 C910 1.367 . S
C911 C919 1.433 . S
C912 H908 0.929 . S
C912 C914 1.378 . S
C912 C916 1.350 . S
C913 C916 1.463 . S
C913 C918 1.350 . S
C913 N921 1.427 . S
C914 H905 0.930 . S
C914 C912 1.378 . S
C914 C915 1.367 . S
C915 C914 1.367 . S
C915 C917 1.433 . S
C916 C912 1.350 . S
C916 C913 1.463 . S
C916 N920 1.427 . S
C917 H907 0.929 . S
C917 C915 1.433 . S
C917 N920 1.384 . S
C918 H909 0.929 . S
C918 C910 1.378 . S
C918 C913 1.350 . S
C919 H906 0.929 1_565 S
C919 C911 1.433 . S
C919 N921 1.384 . S
N920 C916 1.427 . S
N920 C917 1.384 . S
N921 C913 1.427 . S
N921 C919 1.384 . S
H922 C928 0.930 . S
H923 C932 0.930 . S
H924 C937 0.929 . S
H925 C935 0.929 . S
H926 C930 0.929 . S
H927 C936 0.929 . S
C928 H922 0.930 . S
C928 C929 1.367 . S
C928 C936 1.378 . S
C929 C928 1.367 . S
C929 C937 1.433 . S
C930 H926 0.929 . S
C930 C932 1.378 . S
C930 C934 1.350 1_565 S
C931 C934 1.463 . S
C931 C936 1.350 . S
C931 N939 1.427 . S
C932 H923 0.930 . S
C932 C930 1.378 . S
C932 C933 1.367 . S
C933 C932 1.367 . S
C933 C935 1.433 . S
C934 C930 1.350 1_545 S
C934 C931 1.463 . S
C934 N938 1.427 . S
C935 H925 0.929 . S
C935 C933 1.433 . S
C935 N938 1.384 1_565 S
C936 H927 0.929 . S
C936 C928 1.378 . S
C936 C931 1.350 . S
C937 H924 0.929 . S
C937 C929 1.433 . S
C937 N939 1.384 . S
N938 C934 1.427 . S
N938 C935 1.384 1_545 S
N939 C931 1.427 . S
N939 C937 1.384 . S
H940 C946 0.930 . S
H941 C950 0.930 . S
H942 C955 0.968 . S
H943 C953 0.929 . S
H944 C948 0.929 . S
H945 C954 0.929 . S
C946 H940 0.930 . S
C946 C947 1.367 . S
C946 C954 1.378 . S
C947 C946 1.367 . S
C947 C955 1.433 . S
C948 H944 0.929 . S
C948 C950 1.378 . S
C948 C952 1.350 . S
C949 C952 1.463 . S
C949 C954 1.350 . S
C949 N957 1.427 . S
C950 H941 0.930 . S
C950 C948 1.378 . S
C950 C951 1.367 . S
C951 C950 1.367 . S
C951 C953 1.433 . S
C952 C948 1.350 . S
C952 C949 1.463 . S
C952 N956 1.427 . S
C953 H943 0.929 . S
C953 C951 1.433 . S
C953 N956 1.384 . S
C954 H945 0.929 . S
C954 C946 1.378 . S
C954 C949 1.350 . S
C955 H942 0.968 . S
C955 C947 1.433 . S
C955 N957 1.384 . S
N956 C952 1.427 . S
N956 C953 1.384 . S
N957 C949 1.427 . S
N957 C955 1.384 . S
H958 C964 0.930 . S
H959 C968 0.930 . S
H960 C973 0.929 . S
H961 C971 0.929 . S
H962 C966 0.929 . S
H963 C972 0.929 . S
C964 H958 0.930 . S
C964 C965 1.367 . S
C964 C972 1.378 . S
C965 C964 1.367 . S
C965 C973 1.433 . S
C966 H962 0.929 . S
C966 C968 1.378 . S
C966 C970 1.350 . S
C967 C970 1.463 1_565 S
C967 C972 1.350 . S
C967 N975 1.427 . S
C968 H959 0.930 . S
C968 C966 1.378 . S
C968 C969 1.367 . S
C969 C968 1.367 . S
C969 C971 1.433 . S
C970 C966 1.350 . S
C970 C967 1.463 1_545 S
C970 N974 1.427 . S
C971 H961 0.929 . S
C971 C969 1.433 . S
C971 N974 1.384 . S
C972 H963 0.929 . S
C972 C964 1.378 . S
C972 C967 1.350 . S
C973 H960 0.929 . S
C973 C965 1.433 . S
C973 N975 1.384 . S
N974 C970 1.427 . S
N974 C971 1.384 . S
N975 C967 1.427 . S
N975 C973 1.384 . S
H976 C982 0.930 . S
H977 C986 0.930 . S
H978 C991 0.929 . S
H979 C989 0.929 . S
H980 C984 0.929 . S
H981 C990 0.929 . S
C982 H976 0.930 . S
C982 C983 1.367 . S
C982 C990 1.378 . S
C983 C982 1.367 . S
C983 C991 1.433 . S
C984 H980 0.929 . S
C984 C986 1.378 . S
C984 C988 1.350 . S
C985 C988 1.463 . S
C985 C990 1.350 . S
C985 N993 1.427 . S
C986 H977 0.930 . S
C986 C984 1.378 . S
C986 C987 1.367 . S
C987 C986 1.367 . S
C987 C989 1.433 . S
C988 C984 1.350 . S
C988 C985 1.463 . S
C988 N992 1.427 . S
C989 H979 0.929 . S
C989 C987 1.433 . S
C989 N992 1.384 . S
C990 H981 0.929 . S
C990 C982 1.378 . S
C990 C985 1.350 . S
C991 H978 0.929 . S
C991 C983 1.433 . S
C991 N993 1.384 . S
N992 C988 1.427 . S
N992 C989 1.384 . S
N993 C985 1.427 . S
N993 C991 1.384 . S
H994 C1000 0.930 . S
H995 C1004 0.930 . S
H996 C1009 0.929 . S
H997 C1007 0.929 . S
H998 C1002 0.929 . S
H999 C1008 0.929 . S
C1000 H994 0.930 . S
C1000 C1001 1.367 . S
C1000 C1008 1.378 . S
C1001 C1000 1.367 . S
C1001 C1009 1.433 . S
C1002 H998 0.929 . S
C1002 C1004 1.378 . S
C1002 C1006 1.350 . S
C1003 C1006 1.463 . S
C1003 C1008 1.350 . S
C1003 N1011 1.427 . S
C1004 H995 0.930 . S
C1004 C1002 1.378 . S
C1004 C1005 1.367 . S
C1005 C1004 1.367 . S
C1005 C1007 1.433 . S
C1006 C1002 1.350 . S
C1006 C1003 1.463 . S
C1006 N1010 1.427 . S
C1007 H997 0.929 . S
C1007 C1005 1.433 . S
C1007 N1010 1.384 . S
C1008 H999 0.929 . S
C1008 C1000 1.378 . S
C1008 C1003 1.350 . S
C1009 H996 0.929 . S
C1009 C1001 1.433 . S
C1009 N1011 1.384 . S
N1010 C1006 1.427 . S
N1010 C1007 1.384 . S
N1011 C1003 1.427 . S
N1011 C1009 1.384 . S
H1012 C1018 0.930 . S
H1013 C1022 0.930 . S
H1014 C1027 0.929 . S
H1015 C1025 0.929 . S
H1016 C1020 0.929 . S
H1017 C1026 0.929 . S
C1018 H1012 0.930 . S
C1018 C1019 1.367 . S
C1018 C1026 1.378 . S
C1019 C1018 1.367 . S
C1019 C1027 1.433 . S
C1020 H1016 0.929 . S
C1020 C1022 1.378 . S
C1020 C1024 1.350 1_655 S
C1021 C1024 1.463 . S
C1021 C1026 1.350 . S
C1021 N1029 1.427 . S
C1022 H1013 0.930 . S
C1022 C1020 1.378 . S
C1022 C1023 1.367 . S
C1023 C1022 1.367 . S
C1023 C1025 1.433 . S
C1024 C1020 1.350 1_455 S
C1024 C1021 1.463 . S
C1024 N1028 1.427 . S
C1025 H1015 0.929 . S
C1025 C1023 1.433 . S
C1025 N1028 1.384 1_655 S
C1026 H1017 0.929 . S
C1026 C1018 1.378 . S
C1026 C1021 1.350 . S
C1027 H1014 0.929 . S
C1027 C1019 1.433 . S
C1027 N1029 1.384 . S
N1028 C1024 1.427 . S
N1028 C1025 1.384 1_455 S
N1029 C1021 1.427 . S
N1029 C1027 1.384 . S
H1030 C1036 0.930 . S
H1031 C1040 0.930 . S
H1032 C1045 0.929 . S
H1033 C1043 0.929 . S
H1034 C1038 0.929 . S
H1035 C1044 0.929 . S
C1036 H1030 0.930 . S
C1036 C1037 1.367 . S
C1036 C1044 1.378 . S
C1037 C1036 1.367 . S
C1037 C1045 1.433 . S
C1038 H1034 0.929 . S
C1038 C1040 1.378 . S
C1038 C1042 1.350 . S
C1039 C1042 1.463 . S
C1039 C1044 1.350 . S
C1039 N1047 1.427 . S
C1040 H1031 0.930 . S
C1040 C1038 1.378 . S
C1040 C1041 1.367 . S
C1041 C1040 1.367 . S
C1041 C1043 1.433 . S
C1042 C1038 1.350 . S
C1042 C1039 1.463 . S
C1042 N1046 1.427 . S
C1043 H1033 0.929 . S
C1043 C1041 1.433 . S
C1043 N1046 1.384 . S
C1044 H1035 0.929 . S
C1044 C1036 1.378 . S
C1044 C1039 1.350 . S
C1045 H1032 0.929 . S
C1045 C1037 1.433 . S
C1045 N1047 1.384 . S
N1046 C1042 1.427 . S
N1046 C1043 1.384 . S
N1047 C1039 1.427 . S
N1047 C1045 1.384 . S
H1048 C1054 0.930 . S
H1049 C1058 0.930 . S
H1050 C1063 0.929 . S
H1051 C1061 0.929 . S
H1052 C1056 0.929 . S
H1053 C1062 0.929 . S
C1054 H1048 0.930 . S
C1054 C1055 1.367 . S
C1054 C1062 1.378 . S
C1055 C1054 1.367 . S
C1055 C1063 1.433 . S
C1056 H1052 0.929 . S
C1056 C1058 1.378 . S
C1056 C1060 1.361 . S
C1057 C1060 1.451 1_655 S
C1057 C1062 1.350 . S
C1057 N1065 1.427 . S
C1058 H1049 0.930 . S
C1058 C1056 1.378 . S
C1058 C1059 1.367 . S
C1059 C1058 1.367 . S
C1059 C1061 1.433 . S
C1060 C1056 1.361 . S
C1060 C1057 1.451 1_455 S
C1060 N1064 1.426 1_455 S
C1061 H1051 0.929 . S
C1061 C1059 1.433 . S
C1061 N1064 1.384 1_455 S
C1062 H1053 0.929 . S
C1062 C1054 1.378 . S
C1062 C1057 1.350 . S
C1063 H1050 0.929 . S
C1063 C1055 1.433 . S
C1063 N1065 1.384 . S
N1064 C1060 1.426 1_655 S
N1064 C1061 1.384 1_655 S
N1065 C1057 1.427 . S
N1065 C1063 1.384 . S
H1066 C1072 0.930 . S
H1067 C1076 0.930 . S
H1068 C1081 0.929 . S
H1069 C1079 0.929 . S
H1070 C1074 0.929 . S
H1071 C1080 0.929 . S
C1072 H1066 0.930 . S
C1072 C1073 1.367 . S
C1072 C1080 1.378 . S
C1073 C1072 1.367 . S
C1073 C1081 1.433 . S
C1074 H1070 0.929 . S
C1074 C1076 1.378 . S
C1074 C1078 1.350 . S
C1075 C1078 1.463 . S
C1075 C1080 1.350 . S
C1075 N1083 1.427 . S
C1076 H1067 0.930 . S
C1076 C1074 1.378 . S
C1076 C1077 1.367 . S
C1077 C1076 1.367 . S
C1077 C1079 1.433 . S
C1078 C1074 1.350 . S
C1078 C1075 1.463 . S
C1078 N1082 1.427 . S
C1079 H1069 0.929 . S
C1079 C1077 1.433 . S
C1079 N1082 1.384 . S
C1080 H1071 0.929 . S
C1080 C1072 1.378 . S
C1080 C1075 1.350 . S
C1081 H1068 0.929 . S
C1081 C1073 1.433 . S
C1081 N1083 1.384 . S
N1082 C1078 1.427 . S
N1082 C1079 1.384 . S
N1083 C1075 1.427 . S
N1083 C1081 1.384 . S
H1084 C1090 0.930 . S
H1085 C1094 0.930 . S
H1086 C1099 0.929 . S
H1087 C1097 0.929 . S
H1088 C1092 0.929 . S
H1089 C1098 0.929 . S
C1090 H1084 0.930 . S
C1090 C1091 1.367 . S
C1090 C1098 1.378 . S
C1091 C1090 1.367 . S
C1091 C1099 1.433 . S
C1092 H1088 0.929 . S
C1092 C1094 1.378 . S
C1092 C1096 1.350 1_655 S
C1093 C1096 1.463 . S
C1093 C1098 1.350 . S
C1093 N1101 1.427 . S
C1094 H1085 0.930 . S
C1094 C1092 1.378 . S
C1094 C1095 1.367 . S
C1095 C1094 1.367 . S
C1095 C1097 1.433 . S
C1096 C1092 1.350 1_455 S
C1096 C1093 1.463 . S
C1096 N1100 1.427 1_455 S
C1097 H1087 0.929 . S
C1097 C1095 1.433 . S
C1097 N1100 1.384 . S
C1098 H1089 0.929 . S
C1098 C1090 1.378 . S
C1098 C1093 1.350 . S
C1099 H1086 0.929 . S
C1099 C1091 1.433 . S
C1099 N1101 1.384 . S
N1100 C1096 1.427 1_655 S
N1100 C1097 1.384 . S
N1101 C1093 1.427 . S
N1101 C1099 1.384 . S
H1102 C1108 0.930 . S
H1103 C1112 0.930 . S
H1104 C1117 0.929 . S
H1105 C1115 0.929 . S
H1106 C1110 0.929 . S
H1107 C1116 0.929 . S
C1108 H1102 0.930 . S
C1108 C1109 1.367 . S
C1108 C1116 1.378 . S
C1109 C1108 1.367 . S
C1109 C1117 1.433 . S
C1110 H1106 0.929 . S
C1110 C1112 1.378 . S
C1110 C1114 1.350 . S
C1111 C1114 1.463 . S
C1111 C1116 1.350 . S
C1111 N1119 1.427 . S
C1112 H1103 0.930 . S
C1112 C1110 1.378 . S
C1112 C1113 1.367 . S
C1113 C1112 1.367 . S
C1113 C1115 1.433 . S
C1114 C1110 1.350 . S
C1114 C1111 1.463 . S
C1114 N1118 1.427 . S
C1115 H1105 0.929 . S
C1115 C1113 1.433 . S
C1115 N1118 1.384 . S
C1116 H1107 0.929 . S
C1116 C1108 1.378 . S
C1116 C1111 1.350 . S
C1117 H1104 0.929 . S
C1117 C1109 1.433 . S
C1117 N1119 1.384 . S
N1118 C1114 1.427 . S
N1118 C1115 1.384 . S
N1119 C1111 1.427 . S
N1119 C1117 1.384 . S
H1120 C1126 0.930 . S
H1121 C1130 0.930 . S
H1122 C1135 0.929 . S
H1123 C1133 0.929 . S
H1124 C1128 0.929 . S
H1125 C1134 0.929 . S
C1126 H1120 0.930 . S
C1126 C1127 1.367 . S
C1126 C1134 1.378 . S
C1127 C1126 1.367 . S
C1127 C1135 1.433 . S
C1128 H1124 0.929 . S
C1128 C1130 1.378 . S
C1128 C1132 1.350 . S
C1129 C1132 1.463 . S
C1129 C1134 1.350 . S
C1129 N1137 1.427 . S
C1130 H1121 0.930 . S
C1130 C1128 1.378 . S
C1130 C1131 1.367 . S
C1131 C1130 1.367 . S
C1131 C1133 1.433 . S
C1132 C1128 1.350 . S
C1132 C1129 1.463 . S
C1132 N1136 1.427 . S
C1133 H1123 0.929 . S
C1133 C1131 1.433 . S
C1133 N1136 1.384 . S
C1134 H1125 0.929 . S
C1134 C1126 1.378 . S
C1134 C1129 1.350 . S
C1135 H1122 0.929 . S
C1135 C1127 1.433 . S
C1135 N1137 1.384 . S
N1136 C1132 1.427 . S
N1136 C1133 1.384 . S
N1137 C1129 1.427 . S
N1137 C1135 1.384 . S
H1138 C1144 0.930 . S
H1139 C1148 0.930 . S
H1140 C1153 0.929 . S
H1141 C1151 0.929 . S
H1142 C1146 0.929 . S
H1143 C1152 0.929 . S
C1144 H1138 0.930 . S
C1144 C1145 1.367 . S
C1144 C1152 1.378 . S
C1145 C1144 1.367 . S
C1145 C1153 1.433 . S
C1146 H1142 0.929 . S
C1146 C1148 1.378 . S
C1146 C1150 1.350 . S
C1147 C1150 1.463 . S
C1147 C1152 1.350 . S
C1147 N1155 1.427 . S
C1148 H1139 0.930 . S
C1148 C1146 1.378 . S
C1148 C1149 1.367 . S
C1149 C1148 1.367 . S
C1149 C1151 1.433 . S
C1150 C1146 1.350 . S
C1150 C1147 1.463 . S
C1150 N1154 1.427 . S
C1151 H1141 0.929 . S
C1151 C1149 1.433 . S
C1151 N1154 1.384 . S
C1152 H1143 0.929 . S
C1152 C1144 1.378 . S
C1152 C1147 1.350 . S
C1153 H1140 0.929 . S
C1153 C1145 1.433 . S
C1153 N1155 1.384 . S
N1154 C1150 1.427 . S
N1154 C1151 1.384 . S
N1155 C1147 1.427 . S
N1155 C1153 1.384 . S
H1156 C1162 0.930 . S
H1157 C1166 0.930 . S
H1158 C1171 0.929 . S
H1159 C1169 0.929 . S
H1160 C1164 0.929 . S
H1161 C1170 0.929 . S
C1162 H1156 0.930 . S
C1162 C1163 1.367 . S
C1162 C1170 1.378 . S
C1163 C1162 1.367 . S
C1163 C1171 1.433 . S
C1164 H1160 0.929 . S
C1164 C1166 1.378 . S
C1164 C1168 1.350 . S
C1165 C1168 1.463 . S
C1165 C1170 1.350 . S
C1165 N1173 1.427 . S
C1166 H1157 0.930 . S
C1166 C1164 1.378 . S
C1166 C1167 1.367 . S
C1167 C1166 1.367 . S
C1167 C1169 1.433 . S
C1168 C1164 1.350 . S
C1168 C1165 1.463 . S
C1168 N1172 1.427 . S
C1169 H1159 0.929 . S
C1169 C1167 1.433 . S
C1169 N1172 1.384 . S
C1170 H1161 0.929 . S
C1170 C1162 1.378 . S
C1170 C1165 1.350 . S
C1171 H1158 0.929 . S
C1171 C1163 1.433 . S
C1171 N1173 1.384 . S
N1172 C1168 1.427 . S
N1172 C1169 1.384 . S
N1173 C1165 1.427 . S
N1173 C1171 1.384 . S
H1174 C1180 0.930 . S
H1175 C1184 0.930 . S
H1176 C1189 0.929 . S
H1177 C1187 0.929 . S
H1178 C1182 0.929 . S
H1179 C1188 0.929 . S
C1180 H1174 0.930 . S
C1180 C1181 1.367 . S
C1180 C1188 1.378 . S
C1181 C1180 1.367 . S
C1181 C1189 1.433 . S
C1182 H1178 0.929 . S
C1182 C1184 1.378 . S
C1182 C1186 1.350 . S
C1183 C1186 1.463 1_556 S
C1183 C1188 1.350 . S
C1183 N1191 1.427 . S
C1184 H1175 0.930 . S
C1184 C1182 1.378 . S
C1184 C1185 1.367 . S
C1185 C1184 1.367 . S
C1185 C1187 1.433 . S
C1186 C1182 1.350 . S
C1186 C1183 1.463 1_554 S
C1186 N1190 1.427 . S
C1187 H1177 0.929 . S
C1187 C1185 1.433 . S
C1187 N1190 1.384 . S
C1188 H1179 0.929 . S
C1188 C1180 1.378 . S
C1188 C1183 1.350 . S
C1189 H1176 0.929 . S
C1189 C1181 1.433 . S
C1189 N1191 1.384 . S
N1190 C1186 1.427 . S
N1190 C1187 1.384 . S
N1191 C1183 1.427 . S
N1191 C1189 1.384 . S
H1192 C1198 0.930 . S
H1193 C1202 0.930 . S
H1194 C1207 0.929 . S
H1195 C1205 0.929 . S
H1196 C1200 0.929 . S
H1197 C1206 0.929 . S
C1198 H1192 0.930 . S
C1198 C1199 1.367 . S
C1198 C1206 1.378 . S
C1199 C1198 1.367 . S
C1199 C1207 1.433 . S
C1200 H1196 0.929 . S
C1200 C1202 1.378 . S
C1200 C1204 1.350 . S
C1201 C1204 1.463 . S
C1201 C1206 1.350 . S
C1201 N1209 1.427 . S
C1202 H1193 0.930 . S
C1202 C1200 1.378 . S
C1202 C1203 1.367 . S
C1203 C1202 1.367 . S
C1203 C1205 1.433 . S
C1204 C1200 1.350 . S
C1204 C1201 1.463 . S
C1204 N1208 1.427 . S
C1205 H1195 0.929 . S
C1205 C1203 1.433 . S
C1205 N1208 1.384 . S
C1206 H1197 0.929 . S
C1206 C1198 1.378 . S
C1206 C1201 1.350 . S
C1207 H1194 0.929 . S
C1207 C1199 1.433 . S
C1207 N1209 1.384 . S
N1208 C1204 1.427 . S
N1208 C1205 1.384 . S
N1209 C1201 1.427 . S
N1209 C1207 1.384 . S
H1210 C1216 0.930 . S
H1211 C1220 0.930 . S
H1212 C1225 0.929 . S
H1213 C1223 0.929 . S
H1214 C1218 0.929 . S
H1215 C1224 0.929 . S
C1216 H1210 0.930 . S
C1216 C1217 1.367 . S
C1216 C1224 1.378 . S
C1217 C1216 1.367 . S
C1217 C1225 1.433 . S
C1218 H1214 0.929 . S
C1218 C1220 1.378 . S
C1218 C1222 1.350 . S
C1219 C1222 1.463 . S
C1219 C1224 1.350 . S
C1219 N1227 1.427 . S
C1220 H1211 0.930 . S
C1220 C1218 1.378 . S
C1220 C1221 1.367 . S
C1221 C1220 1.367 . S
C1221 C1223 1.433 . S
C1222 C1218 1.350 . S
C1222 C1219 1.463 . S
C1222 N1226 1.427 . S
C1223 H1213 0.929 . S
C1223 C1221 1.433 . S
C1223 N1226 1.384 . S
C1224 H1215 0.929 . S
C1224 C1216 1.378 . S
C1224 C1219 1.350 . S
C1225 H1212 0.929 . S
C1225 C1217 1.433 . S
C1225 N1227 1.384 . S
N1226 C1222 1.427 . S
N1226 C1223 1.384 . S
N1227 C1219 1.427 . S
N1227 C1225 1.384 . S
H1228 C1234 0.930 . S
H1229 C1238 0.930 . S
H1230 C1243 0.929 . S
H1231 C1241 0.929 . S
H1232 C1236 0.929 . S
H1233 C1242 0.929 . S
C1234 H1228 0.930 . S
C1234 C1235 1.367 . S
C1234 C1242 1.378 . S
C1235 C1234 1.367 . S
C1235 C1243 1.433 . S
C1236 H1232 0.929 . S
C1236 C1238 1.378 . S
C1236 C1240 1.350 . S
C1237 C1240 1.463 . S
C1237 C1242 1.350 . S
C1237 N1245 1.427 . S
C1238 H1229 0.930 . S
C1238 C1236 1.378 . S
C1238 C1239 1.367 . S
C1239 C1238 1.367 . S
C1239 C1241 1.433 . S
C1240 C1236 1.350 . S
C1240 C1237 1.463 . S
C1240 N1244 1.427 . S
C1241 H1231 0.929 . S
C1241 C1239 1.433 . S
C1241 N1244 1.384 . S
C1242 H1233 0.929 . S
C1242 C1234 1.378 . S
C1242 C1237 1.350 . S
C1243 H1230 0.929 . S
C1243 C1235 1.433 . S
C1243 N1245 1.384 . S
N1244 C1240 1.427 . S
N1244 C1241 1.384 . S
N1245 C1237 1.427 . S
N1245 C1243 1.384 . S
H1246 C1252 0.930 . S
H1247 C1256 0.930 . S
H1248 C1261 0.929 . S
H1249 C1259 0.929 . S
H1250 C1254 0.929 . S
H1251 C1260 0.929 . S
C1252 H1246 0.930 . S
C1252 C1253 1.367 . S
C1252 C1260 1.378 . S
C1253 C1252 1.367 . S
C1253 C1261 1.433 . S
C1254 H1250 0.929 . S
C1254 C1256 1.378 1_554 S
C1254 C1258 1.350 . S
C1255 C1258 1.463 . S
C1255 C1260 1.350 . S
C1255 N1263 1.427 . S
C1256 H1247 0.930 . S
C1256 C1254 1.378 1_556 S
C1256 C1257 1.367 . S
C1257 C1256 1.367 . S
C1257 C1259 1.433 . S
C1258 C1254 1.350 . S
C1258 C1255 1.463 . S
C1258 N1262 1.427 1_554 S
C1259 H1249 0.929 . S
C1259 C1257 1.433 . S
C1259 N1262 1.384 . S
C1260 H1251 0.929 . S
C1260 C1252 1.378 . S
C1260 C1255 1.350 . S
C1261 H1248 0.929 . S
C1261 C1253 1.433 . S
C1261 N1263 1.384 . S
N1262 C1258 1.427 1_556 S
N1262 C1259 1.384 . S
N1263 C1255 1.427 . S
N1263 C1261 1.384 . S
H1264 C1270 0.930 . S
H1265 C1274 0.930 . S
H1266 C1279 0.929 . S
H1267 C1277 0.929 . S
H1268 C1272 0.929 . S
H1269 C1278 0.929 . S
C1270 H1264 0.930 . S
C1270 C1271 1.367 . S
C1270 C1278 1.378 . S
C1271 C1270 1.367 . S
C1271 C1279 1.433 . S
C1272 H1268 0.929 . S
C1272 C1274 1.378 . S
C1272 C1276 1.350 . S
C1273 C1276 1.463 . S
C1273 C1278 1.350 . S
C1273 N1281 1.427 . S
C1274 H1265 0.930 . S
C1274 C1272 1.378 . S
C1274 C1275 1.367 . S
C1275 C1274 1.367 . S
C1275 C1277 1.433 . S
C1276 C1272 1.350 . S
C1276 C1273 1.463 . S
C1276 N1280 1.427 . S
C1277 H1267 0.929 . S
C1277 C1275 1.433 . S
C1277 N1280 1.384 . S
C1278 H1269 0.929 . S
C1278 C1270 1.378 . S
C1278 C1273 1.350 . S
C1279 H1266 0.929 . S
C1279 C1271 1.433 . S
C1279 N1281 1.384 . S
N1280 C1276 1.427 . S
N1280 C1277 1.384 . S
N1281 C1273 1.427 . S
N1281 C1279 1.384 . S
H1282 C1288 0.930 . S
H1283 C1292 0.930 . S
H1284 C1297 0.929 . S
H1285 C1295 0.929 . S
H1286 C1290 0.929 1_565 S
H1287 C1296 0.929 . S
C1288 H1282 0.930 . S
C1288 C1289 1.367 . S
C1288 C1296 1.378 . S
C1289 C1288 1.367 . S
C1289 C1297 1.433 . S
C1290 H1286 0.929 1_545 S
C1290 C1292 1.378 . S
C1290 C1294 1.344 1_545 S
C1291 C1294 1.486 . S
C1291 C1296 1.350 . S
C1291 N1299 1.427 . S
C1292 H1283 0.930 . S
C1292 C1290 1.378 . S
C1292 C1293 1.367 . S
C1293 C1292 1.367 . S
C1293 C1295 1.433 . S
C1294 C1290 1.344 1_565 S
C1294 C1291 1.486 . S
C1294 N1298 1.411 1_565 S
C1295 H1285 0.929 . S
C1295 C1293 1.433 . S
C1295 N1298 1.384 . S
C1296 H1287 0.929 . S
C1296 C1288 1.378 . S
C1296 C1291 1.350 . S
C1297 H1284 0.929 . S
C1297 C1289 1.433 . S
C1297 N1299 1.384 . S
N1298 C1294 1.411 1_545 S
N1298 C1295 1.384 . S
N1299 C1291 1.427 . S
N1299 C1297 1.384 . S
H1300 C1306 0.930 . S
H1301 C1310 0.930 . S
H1302 C1315 0.929 . S
H1303 C1313 0.929 . S
H1304 C1308 0.929 . S
H1305 C1314 0.929 . S
C1306 H1300 0.930 . S
C1306 C1307 1.367 . S
C1306 C1314 1.378 . S
C1307 C1306 1.367 . S
C1307 C1315 1.433 . S
C1308 H1304 0.929 . S
C1308 C1310 1.378 . S
C1308 C1312 1.350 . S
C1309 C1312 1.463 . S
C1309 C1314 1.350 . S
C1309 N1317 1.427 . S
C1310 H1301 0.930 . S
C1310 C1308 1.378 . S
C1310 C1311 1.367 . S
C1311 C1310 1.367 . S
C1311 C1313 1.433 . S
C1312 C1308 1.350 . S
C1312 C1309 1.463 . S
C1312 N1316 1.427 . S
C1313 H1303 0.929 . S
C1313 C1311 1.433 . S
C1313 N1316 1.384 . S
C1314 H1305 0.929 . S
C1314 C1306 1.378 . S
C1314 C1309 1.350 . S
C1315 H1302 0.929 . S
C1315 C1307 1.433 . S
C1315 N1317 1.384 . S
N1316 C1312 1.427 . S
N1316 C1313 1.384 . S
N1317 C1309 1.427 . S
N1317 C1315 1.384 . S
H1318 C1324 0.930 . S
H1319 C1328 0.930 . S
H1320 C1333 0.929 . S
H1321 C1331 0.929 . S
H1322 C1326 0.929 . S
H1323 C1332 0.929 . S
C1324 H1318 0.930 . S
C1324 C1325 1.367 . S
C1324 C1332 1.378 . S
C1325 C1324 1.367 . S
C1325 C1333 1.433 . S
C1326 H1322 0.929 . S
C1326 C1328 1.378 1_545 S
C1326 C1330 1.350 . S
C1327 C1330 1.463 . S
C1327 C1332 1.350 . S
C1327 N1335 1.427 . S
C1328 H1319 0.930 . S
C1328 C1326 1.378 1_565 S
C1328 C1329 1.367 . S
C1329 C1328 1.367 . S
C1329 C1331 1.433 . S
C1330 C1326 1.350 . S
C1330 C1327 1.463 . S
C1330 N1334 1.427 1_545 S
C1331 H1321 0.929 . S
C1331 C1329 1.433 . S
C1331 N1334 1.384 . S
C1332 H1323 0.929 . S
C1332 C1324 1.378 . S
C1332 C1327 1.350 . S
C1333 H1320 0.929 . S
C1333 C1325 1.433 . S
C1333 N1335 1.384 . S
N1334 C1330 1.427 1_565 S
N1334 C1331 1.384 . S
N1335 C1327 1.427 . S
N1335 C1333 1.384 . S
H1336 C1342 0.930 . S
H1337 C1346 0.930 . S
H1338 C1351 0.929 . S
H1339 C1349 0.929 . S
H1340 C1344 0.929 . S
H1341 C1350 0.929 . S
C1342 H1336 0.930 . S
C1342 C1343 1.367 . S
C1342 C1350 1.378 . S
C1343 C1342 1.367 . S
C1343 C1351 1.433 . S
C1344 H1340 0.929 . S
C1344 C1346 1.378 . S
C1344 C1348 1.350 . S
C1345 C1348 1.463 . S
C1345 C1350 1.350 . S
C1345 N1353 1.427 . S
C1346 H1337 0.930 . S
C1346 C1344 1.378 . S
C1346 C1347 1.367 . S
C1347 C1346 1.367 . S
C1347 C1349 1.433 . S
C1348 C1344 1.350 . S
C1348 C1345 1.463 . S
C1348 N1352 1.427 . S
C1349 H1339 0.929 . S
C1349 C1347 1.433 . S
C1349 N1352 1.384 . S
C1350 H1341 0.929 . S
C1350 C1342 1.378 . S
C1350 C1345 1.350 . S
C1351 H1338 0.929 . S
C1351 C1343 1.433 . S
C1351 N1353 1.384 . S
N1352 C1348 1.427 . S
N1352 C1349 1.384 . S
N1353 C1345 1.427 . S
N1353 C1351 1.384 . S
H1354 C1360 0.930 . S
H1355 C1364 0.930 . S
H1356 C1369 0.929 . S
H1357 C1367 0.929 . S
H1358 C1362 0.929 . S
H1359 C1368 0.929 . S
C1360 H1354 0.930 . S
C1360 C1361 1.367 . S
C1360 C1368 1.378 . S
C1361 C1360 1.367 . S
C1361 C1369 1.433 . S
C1362 H1358 0.929 . S
C1362 C1364 1.378 . S
C1362 C1366 1.350 . S
C1363 C1366 1.463 1_565 S
C1363 C1368 1.350 . S
C1363 N1371 1.427 . S
C1364 H1355 0.930 . S
C1364 C1362 1.378 . S
C1364 C1365 1.367 . S
C1365 C1364 1.367 . S
C1365 C1367 1.433 . S
C1366 C1362 1.350 . S
C1366 C1363 1.463 1_545 S
C1366 N1370 1.427 . S
C1367 H1357 0.929 . S
C1367 C1365 1.433 . S
C1367 N1370 1.384 . S
C1368 H1359 0.929 . S
C1368 C1360 1.378 . S
C1368 C1363 1.350 . S
C1369 H1356 0.929 . S
C1369 C1361 1.433 . S
C1369 N1371 1.384 . S
N1370 C1366 1.427 . S
N1370 C1367 1.384 . S
N1371 C1363 1.427 . S
N1371 C1369 1.384 . S
H1372 C1378 0.930 . S
H1373 C1382 0.930 . S
H1374 C1387 0.929 . S
H1375 C1385 0.929 . S
H1376 C1380 0.929 . S
H1377 C1386 0.929 . S
C1378 H1372 0.930 . S
C1378 C1379 1.367 . S
C1378 C1386 1.378 . S
C1379 C1378 1.367 . S
C1379 C1387 1.433 . S
C1380 H1376 0.929 . S
C1380 C1382 1.378 . S
C1380 C1384 1.350 . S
C1381 C1384 1.463 . S
C1381 C1386 1.350 . S
C1381 N1389 1.427 . S
C1382 H1373 0.930 . S
C1382 C1380 1.378 . S
C1382 C1383 1.367 . S
C1383 C1382 1.367 . S
C1383 C1385 1.433 . S
C1384 C1380 1.350 . S
C1384 C1381 1.463 . S
C1384 N1388 1.427 . S
C1385 H1375 0.929 . S
C1385 C1383 1.433 . S
C1385 N1388 1.384 . S
C1386 H1377 0.929 . S
C1386 C1378 1.378 . S
C1386 C1381 1.350 . S
C1387 H1374 0.929 . S
C1387 C1379 1.433 . S
C1387 N1389 1.384 . S
N1388 C1384 1.427 . S
N1388 C1385 1.384 . S
N1389 C1381 1.427 . S
N1389 C1387 1.384 . S
H1390 C1396 0.930 . S
H1391 C1400 0.930 . S
H1392 C1405 0.929 . S
H1393 C1403 0.929 . S
H1394 C1398 0.929 . S
H1395 C1404 0.929 . S
C1396 H1390 0.930 . S
C1396 C1397 1.367 . S
C1396 C1404 1.378 . S
C1397 C1396 1.367 . S
C1397 C1405 1.433 . S
C1398 H1394 0.929 . S
C1398 C1400 1.378 1_545 S
C1398 C1402 1.350 . S
C1399 C1402 1.463 . S
C1399 C1404 1.350 . S
C1399 N1407 1.427 . S
C1400 H1391 0.930 . S
C1400 C1398 1.378 1_565 S
C1400 C1401 1.367 . S
C1401 C1400 1.367 . S
C1401 C1403 1.433 . S
C1402 C1398 1.350 . S
C1402 C1399 1.463 . S
C1402 N1406 1.427 1_545 S
C1403 H1393 0.929 . S
C1403 C1401 1.433 . S
C1403 N1406 1.384 . S
C1404 H1395 0.929 . S
C1404 C1396 1.378 . S
C1404 C1399 1.350 . S
C1405 H1392 0.929 . S
C1405 C1397 1.433 . S
C1405 N1407 1.384 . S
N1406 C1402 1.427 1_565 S
N1406 C1403 1.384 . S
N1407 C1399 1.427 . S
N1407 C1405 1.384 . S
H1408 C1414 0.930 . S
H1409 C1418 0.930 . S
H1410 C1423 0.929 . S
H1411 C1421 0.929 . S
H1412 C1416 0.929 . S
H1413 C1422 0.929 . S
C1414 H1408 0.930 . S
C1414 C1415 1.367 . S
C1414 C1422 1.378 . S
C1415 C1414 1.367 . S
C1415 C1423 1.433 . S
C1416 H1412 0.929 . S
C1416 C1418 1.378 . S
C1416 C1420 1.350 . S
C1417 C1420 1.463 . S
C1417 C1422 1.350 . S
C1417 N1425 1.427 . S
C1418 H1409 0.930 . S
C1418 C1416 1.378 . S
C1418 C1419 1.367 . S
C1419 C1418 1.367 . S
C1419 C1421 1.433 . S
C1420 C1416 1.350 . S
C1420 C1417 1.463 . S
C1420 N1424 1.427 . S
C1421 H1411 0.929 . S
C1421 C1419 1.433 . S
C1421 N1424 1.384 . S
C1422 H1413 0.929 . S
C1422 C1414 1.378 . S
C1422 C1417 1.350 . S
C1423 H1410 0.929 . S
C1423 C1415 1.433 . S
C1423 N1425 1.384 . S
N1424 C1420 1.427 . S
N1424 C1421 1.384 . S
N1425 C1417 1.427 . S
N1425 C1423 1.384 . S
H1426 C1432 0.930 . S
H1427 C1436 0.930 . S
H1428 C1441 0.929 . S
H1429 C1439 0.929 . S
H1430 C1434 0.929 . S
H1431 C1440 0.929 . S
C1432 H1426 0.930 . S
C1432 C1433 1.367 . S
C1432 C1440 1.378 . S
C1433 C1432 1.367 . S
C1433 C1441 1.433 . S
C1434 H1430 0.929 . S
C1434 C1436 1.378 . S
C1434 C1438 1.350 . S
C1435 C1438 1.463 . S
C1435 C1440 1.350 . S
C1435 N1443 1.427 . S
C1436 H1427 0.930 . S
C1436 C1434 1.378 . S
C1436 C1437 1.367 . S
C1437 C1436 1.367 . S
C1437 C1439 1.433 . S
C1438 C1434 1.350 . S
C1438 C1435 1.463 . S
C1438 N1442 1.427 . S
C1439 H1429 0.929 . S
C1439 C1437 1.433 . S
C1439 N1442 1.384 . S
C1440 H1431 0.929 . S
C1440 C1432 1.378 . S
C1440 C1435 1.350 . S
C1441 H1428 0.929 . S
C1441 C1433 1.433 . S
C1441 N1443 1.384 . S
N1442 C1438 1.427 . S
N1442 C1439 1.384 . S
N1443 C1435 1.427 . S
N1443 C1441 1.384 . S
H1444 C1450 0.930 . S
H1445 C1454 0.930 . S
H1446 C1459 0.929 . S
H1447 C1457 0.929 . S
H1448 C1452 0.929 . S
H1449 C1458 0.929 . S
C1450 H1444 0.930 . S
C1450 C1451 1.367 . S
C1450 C1458 1.378 . S
C1451 C1450 1.367 . S
C1451 C1459 1.433 . S
C1452 H1448 0.929 . S
C1452 C1454 1.378 . S
C1452 C1456 1.350 1_455 S
C1453 C1456 1.462 . S
C1453 C1458 1.350 . S
C1453 N1461 1.427 . S
C1454 H1445 0.930 . S
C1454 C1452 1.378 . S
C1454 C1455 1.367 . S
C1455 C1454 1.367 . S
C1455 C1457 1.433 . S
C1456 C1452 1.350 1_655 S
C1456 C1453 1.462 . S
C1456 N1460 1.427 1_655 S
C1457 H1447 0.929 . S
C1457 C1455 1.433 . S
C1457 N1460 1.384 . S
C1458 H1449 0.929 . S
C1458 C1450 1.378 . S
C1458 C1453 1.350 . S
C1459 H1446 0.929 . S
C1459 C1451 1.433 . S
C1459 N1461 1.384 . S
N1460 C1456 1.427 1_455 S
N1460 C1457 1.384 . S
N1461 C1453 1.427 . S
N1461 C1459 1.384 . S
H1462 C1468 0.930 . S
H1463 C1472 0.930 . S
H1464 C1477 0.929 . S
H1465 C1475 0.929 . S
H1466 C1470 0.929 . S
H1467 C1476 0.929 . S
C1468 H1462 0.930 . S
C1468 C1469 1.367 . S
C1468 C1476 1.378 . S
C1469 C1468 1.367 . S
C1469 C1477 1.433 . S
C1470 H1466 0.929 . S
C1470 C1472 1.378 . S
C1470 C1474 1.350 . S
C1471 C1474 1.463 . S
C1471 C1476 1.350 . S
C1471 N1479 1.427 . S
C1472 H1463 0.930 . S
C1472 C1470 1.378 . S
C1472 C1473 1.367 . S
C1473 C1472 1.367 . S
C1473 C1475 1.433 . S
C1474 C1470 1.350 . S
C1474 C1471 1.463 . S
C1474 N1478 1.427 . S
C1475 H1465 0.929 . S
C1475 C1473 1.433 . S
C1475 N1478 1.384 . S
C1476 H1467 0.929 . S
C1476 C1468 1.378 . S
C1476 C1471 1.350 . S
C1477 H1464 0.929 . S
C1477 C1469 1.433 . S
C1477 N1479 1.384 . S
N1478 C1474 1.427 . S
N1478 C1475 1.384 . S
N1479 C1471 1.427 . S
N1479 C1477 1.384 . S
H1480 C1486 0.930 . S
H1481 C1490 0.930 . S
H1482 C1495 0.929 . S
H1483 C1493 0.929 . S
H1484 C1488 0.929 . S
H1485 C1494 0.929 . S
C1486 H1480 0.930 . S
C1486 C1487 1.367 . S
C1486 C1494 1.378 . S
C1487 C1486 1.367 . S
C1487 C1495 1.433 . S
C1488 H1484 0.929 . S
C1488 C1490 1.378 1_455 S
C1488 C1492 1.350 . S
C1489 C1492 1.463 . S
C1489 C1494 1.350 . S
C1489 N1497 1.427 . S
C1490 H1481 0.930 . S
C1490 C1488 1.378 1_655 S
C1490 C1491 1.367 . S
C1491 C1490 1.367 . S
C1491 C1493 1.433 . S
C1492 C1488 1.350 . S
C1492 C1489 1.463 . S
C1492 N1496 1.427 1_455 S
C1493 H1483 0.929 . S
C1493 C1491 1.433 . S
C1493 N1496 1.384 . S
C1494 H1485 0.929 . S
C1494 C1486 1.378 . S
C1494 C1489 1.350 . S
C1495 H1482 0.929 . S
C1495 C1487 1.433 . S
C1495 N1497 1.384 . S
N1496 C1492 1.427 1_655 S
N1496 C1493 1.384 . S
N1497 C1489 1.427 . S
N1497 C1495 1.384 . S
H1498 C1504 0.930 . S
H1499 C1508 0.930 . S
H1500 C1513 0.929 . S
H1501 C1511 0.929 . S
H1502 C1506 0.929 . S
H1503 C1512 0.929 . S
C1504 H1498 0.930 . S
C1504 C1505 1.367 . S
C1504 C1512 1.378 . S
C1505 C1504 1.367 . S
C1505 C1513 1.433 . S
C1506 H1502 0.929 . S
C1506 C1508 1.378 . S
C1506 C1510 1.350 . S
C1507 C1510 1.463 . S
C1507 C1512 1.350 . S
C1507 N1515 1.427 . S
C1508 H1499 0.930 . S
C1508 C1506 1.378 . S
C1508 C1509 1.367 . S
C1509 C1508 1.367 . S
C1509 C1511 1.433 . S
C1510 C1506 1.350 . S
C1510 C1507 1.463 . S
C1510 N1514 1.427 . S
C1511 H1501 0.929 . S
C1511 C1509 1.433 . S
C1511 N1514 1.384 . S
C1512 H1503 0.929 . S
C1512 C1504 1.378 . S
C1512 C1507 1.350 . S
C1513 H1500 0.929 . S
C1513 C1505 1.433 . S
C1513 N1515 1.384 . S
N1514 C1510 1.427 . S
N1514 C1511 1.384 . S
N1515 C1507 1.427 . S
N1515 C1513 1.384 . S
H1516 C1522 0.930 . S
H1517 C1526 0.930 . S
H1518 C1531 0.929 . S
H1519 C1529 0.929 . S
H1520 C1524 0.909 1_655 S
H1521 C1530 0.929 . S
C1522 H1516 0.930 . S
C1522 C1523 1.367 . S
C1522 C1530 1.378 . S
C1523 C1522 1.367 . S
C1523 C1531 1.433 . S
C1524 H1520 0.909 1_455 S
C1524 C1526 1.399 . S
C1524 C1528 1.349 1_455 S
C1525 C1528 1.471 . S
C1525 C1530 1.350 . S
C1525 N1533 1.427 . S
C1526 H1517 0.930 . S
C1526 C1524 1.399 . S
C1526 C1527 1.367 . S
C1527 C1526 1.367 . S
C1527 C1529 1.433 . S
C1528 C1524 1.349 1_655 S
C1528 C1525 1.471 . S
C1528 N1532 1.420 1_655 S
C1529 H1519 0.929 . S
C1529 C1527 1.433 . S
C1529 N1532 1.384 . S
C1530 H1521 0.929 . S
C1530 C1522 1.378 . S
C1530 C1525 1.350 . S
C1531 H1518 0.929 . S
C1531 C1523 1.433 . S
C1531 N1533 1.384 . S
N1532 C1528 1.420 1_455 S
N1532 C1529 1.384 . S
N1533 C1525 1.427 . S
N1533 C1531 1.384 . S
H1534 C1540 0.930 . S
H1535 C1544 0.930 . S
H1536 C1549 0.929 . S
H1537 C1547 0.929 . S
H1538 C1542 0.929 . S
H1539 C1548 0.929 . S
C1540 H1534 0.930 . S
C1540 C1541 1.367 . S
C1540 C1548 1.378 . S
C1541 C1540 1.367 . S
C1541 C1549 1.433 . S
C1542 H1538 0.929 . S
C1542 C1544 1.378 . S
C1542 C1546 1.350 . S
C1543 C1546 1.463 . S
C1543 C1548 1.350 . S
C1543 N1551 1.427 . S
C1544 H1535 0.930 . S
C1544 C1542 1.378 . S
C1544 C1545 1.367 . S
C1545 C1544 1.367 . S
C1545 C1547 1.433 . S
C1546 C1542 1.350 . S
C1546 C1543 1.463 . S
C1546 N1550 1.427 . S
C1547 H1537 0.929 . S
C1547 C1545 1.433 . S
C1547 N1550 1.384 . S
C1548 H1539 0.929 . S
C1548 C1540 1.378 . S
C1548 C1543 1.350 . S
C1549 H1536 0.929 . S
C1549 C1541 1.433 . S
C1549 N1551 1.384 . S
N1550 C1546 1.427 . S
N1550 C1547 1.384 . S
N1551 C1543 1.427 . S
N1551 C1549 1.384 . S
H1552 C1558 0.930 . S
H1553 C1562 0.930 . S
H1554 C1567 0.929 . S
H1555 C1565 0.929 . S
H1556 C1560 0.929 . S
H1557 C1566 0.929 . S
C1558 H1552 0.930 . S
C1558 C1559 1.367 . S
C1558 C1566 1.378 . S
C1559 C1558 1.367 . S
C1559 C1567 1.433 . S
C1560 H1556 0.929 . S
C1560 C1562 1.378 . S
C1560 C1564 1.350 . S
C1561 C1564 1.463 . S
C1561 C1566 1.350 . S
C1561 N1569 1.427 . S
C1562 H1553 0.930 . S
C1562 C1560 1.378 . S
C1562 C1563 1.367 . S
C1563 C1562 1.367 . S
C1563 C1565 1.433 . S
C1564 C1560 1.350 . S
C1564 C1561 1.463 . S
C1564 N1568 1.427 . S
C1565 H1555 0.929 . S
C1565 C1563 1.433 . S
C1565 N1568 1.384 . S
C1566 H1557 0.929 . S
C1566 C1558 1.378 . S
C1566 C1561 1.350 . S
C1567 H1554 0.929 . S
C1567 C1559 1.433 . S
C1567 N1569 1.384 . S
N1568 C1564 1.427 . S
N1568 C1565 1.384 . S
N1569 C1561 1.427 . S
N1569 C1567 1.384 . S
H1570 C1576 0.930 . S
H1571 C1580 0.930 . S
H1572 C1585 0.929 . S
H1573 C1583 0.929 . S
H1574 C1578 0.929 . S
H1575 C1584 0.929 . S
C1576 H1570 0.930 . S
C1576 C1577 1.367 . S
C1576 C1584 1.378 . S
C1577 C1576 1.367 . S
C1577 C1585 1.433 . S
C1578 H1574 0.929 . S
C1578 C1580 1.378 1_554 S
C1578 C1582 1.350 . S
C1579 C1582 1.463 . S
C1579 C1584 1.350 . S
C1579 N1587 1.427 . S
C1580 H1571 0.930 . S
C1580 C1578 1.378 1_556 S
C1580 C1581 1.367 . S
C1581 C1580 1.367 . S
C1581 C1583 1.433 . S
C1582 C1578 1.350 . S
C1582 C1579 1.463 . S
C1582 N1586 1.427 1_554 S
C1583 H1573 0.929 . S
C1583 C1581 1.433 . S
C1583 N1586 1.384 . S
C1584 H1575 0.929 . S
C1584 C1576 1.378 . S
C1584 C1579 1.350 . S
C1585 H1572 0.929 . S
C1585 C1577 1.433 . S
C1585 N1587 1.384 . S
N1586 C1582 1.427 1_556 S
N1586 C1583 1.384 . S
N1587 C1579 1.427 . S
N1587 C1585 1.384 . S
H1588 C1594 0.930 . S
H1589 C1598 0.930 . S
H1590 C1603 0.929 . S
H1591 C1601 0.929 . S
H1592 C1596 0.929 . S
H1593 C1602 0.929 . S
C1594 H1588 0.930 . S
C1594 C1595 1.367 . S
C1594 C1602 1.378 . S
C1595 C1594 1.367 . S
C1595 C1603 1.433 . S
C1596 H1592 0.929 . S
C1596 C1598 1.378 . S
C1596 C1600 1.350 . S
C1597 C1600 1.463 . S
C1597 C1602 1.350 . S
C1597 N1605 1.427 . S
C1598 H1589 0.930 . S
C1598 C1596 1.378 . S
C1598 C1599 1.367 . S
C1599 C1598 1.367 . S
C1599 C1601 1.433 . S
C1600 C1596 1.350 . S
C1600 C1597 1.463 . S
C1600 N1604 1.427 . S
C1601 H1591 0.929 . S
C1601 C1599 1.433 . S
C1601 N1604 1.384 . S
C1602 H1593 0.929 . S
C1602 C1594 1.378 . S
C1602 C1597 1.350 . S
C1603 H1590 0.929 . S
C1603 C1595 1.433 . S
C1603 N1605 1.384 . S
N1604 C1600 1.427 . S
N1604 C1601 1.384 . S
N1605 C1597 1.427 . S
N1605 C1603 1.384 . S
H1606 C1612 0.930 . S
H1607 C1616 0.930 . S
H1608 C1621 0.929 . S
H1609 C1619 0.929 . S
H1610 C1614 0.929 . S
H1611 C1620 0.929 . S
C1612 H1606 0.930 . S
C1612 C1613 1.367 . S
C1612 C1620 1.378 . S
C1613 C1612 1.367 . S
C1613 C1621 1.433 . S
C1614 H1610 0.929 . S
C1614 C1616 1.378 . S
C1614 C1618 1.350 . S
C1615 C1618 1.463 . S
C1615 C1620 1.350 . S
C1615 N1623 1.427 . S
C1616 H1607 0.930 . S
C1616 C1614 1.378 . S
C1616 C1617 1.367 . S
C1617 C1616 1.367 . S
C1617 C1619 1.433 . S
C1618 C1614 1.350 . S
C1618 C1615 1.463 . S
C1618 N1622 1.427 . S
C1619 H1609 0.929 . S
C1619 C1617 1.433 . S
C1619 N1622 1.384 . S
C1620 H1611 0.929 . S
C1620 C1612 1.378 . S
C1620 C1615 1.350 . S
C1621 H1608 0.929 . S
C1621 C1613 1.433 . S
C1621 N1623 1.384 . S
N1622 C1618 1.427 . S
N1622 C1619 1.384 . S
N1623 C1615 1.427 . S
N1623 C1621 1.384 . S
H1624 C1630 0.930 . S
H1625 C1634 0.930 . S
H1626 C1639 0.929 . S
H1627 C1637 0.929 . S
H1628 C1632 0.929 . S
H1629 C1638 0.929 . S
C1630 H1624 0.930 . S
C1630 C1631 1.367 . S
C1630 C1638 1.378 . S
C1631 C1630 1.367 . S
C1631 C1639 1.433 . S
C1632 H1628 0.929 . S
C1632 C1634 1.378 . S
C1632 C1636 1.350 . S
C1633 C1636 1.463 . S
C1633 C1638 1.350 . S
C1633 N1641 1.427 . S
C1634 H1625 0.930 . S
C1634 C1632 1.378 . S
C1634 C1635 1.367 . S
C1635 C1634 1.367 . S
C1635 C1637 1.433 . S
C1636 C1632 1.350 . S
C1636 C1633 1.463 . S
C1636 N1640 1.427 . S
C1637 H1627 0.929 . S
C1637 C1635 1.433 . S
C1637 N1640 1.384 . S
C1638 H1629 0.929 . S
C1638 C1630 1.378 . S
C1638 C1633 1.350 . S
C1639 H1626 0.929 . S
C1639 C1631 1.433 . S
C1639 N1641 1.384 . S
N1640 C1636 1.427 . S
N1640 C1637 1.384 . S
N1641 C1633 1.427 . S
N1641 C1639 1.384 . S
H1642 C1648 0.930 . S
H1643 C1652 0.930 . S
H1644 C1657 0.929 . S
H1645 C1655 0.929 . S
H1646 C1650 0.929 . S
H1647 C1656 0.929 . S
C1648 H1642 0.930 . S
C1648 C1649 1.367 . S
C1648 C1656 1.378 . S
C1649 C1648 1.367 . S
C1649 C1657 1.433 . S
C1650 H1646 0.929 . S
C1650 C1652 1.378 . S
C1650 C1654 1.340 1_554 S
C1651 C1654 1.475 . S
C1651 C1656 1.350 . S
C1651 N1659 1.427 . S
C1652 H1643 0.930 . S
C1652 C1650 1.378 . S
C1652 C1653 1.367 . S
C1653 C1652 1.367 . S
C1653 C1655 1.433 . S
C1654 C1650 1.340 1_556 S
C1654 C1651 1.475 . S
C1654 N1658 1.426 1_556 S
C1655 H1645 0.929 . S
C1655 C1653 1.433 . S
C1655 N1658 1.384 . S
C1656 H1647 0.929 . S
C1656 C1648 1.378 . S
C1656 C1651 1.350 . S
C1657 H1644 0.929 . S
C1657 C1649 1.433 . S
C1657 N1659 1.384 . S
N1658 C1654 1.426 1_554 S
N1658 C1655 1.384 . S
N1659 C1651 1.427 . S
N1659 C1657 1.384 . S
H1660 C1666 0.930 . S
H1661 C1670 0.930 . S
H1662 C1675 0.929 . S
H1663 C1673 0.929 . S
H1664 C1668 0.929 . S
H1665 C1674 0.929 . S
C1666 H1660 0.930 . S
C1666 C1667 1.367 . S
C1666 C1674 1.378 . S
C1667 C1666 1.367 . S
C1667 C1675 1.433 . S
C1668 H1664 0.929 . S
C1668 C1670 1.378 . S
C1668 C1672 1.350 . S
C1669 C1672 1.463 . S
C1669 C1674 1.350 . S
C1669 N1677 1.427 . S
C1670 H1661 0.930 . S
C1670 C1668 1.378 . S
C1670 C1671 1.367 . S
C1671 C1670 1.367 . S
C1671 C1673 1.433 . S
C1672 C1668 1.350 . S
C1672 C1669 1.463 . S
C1672 N1676 1.427 . S
C1673 H1663 0.929 . S
C1673 C1671 1.433 . S
C1673 N1676 1.384 . S
C1674 H1665 0.929 . S
C1674 C1666 1.378 . S
C1674 C1669 1.350 . S
C1675 H1662 0.929 . S
C1675 C1667 1.433 . S
C1675 N1677 1.384 . S
N1676 C1672 1.427 . S
N1676 C1673 1.384 . S
N1677 C1669 1.427 . S
N1677 C1675 1.384 . S
H1678 C1684 0.930 . S
H1679 C1688 0.930 . S
H1680 C1693 0.929 . S
H1681 C1691 0.929 . S
H1682 C1686 0.929 . S
H1683 C1692 0.929 . S
C1684 H1678 0.930 . S
C1684 C1685 1.367 . S
C1684 C1692 1.378 . S
C1685 C1684 1.367 . S
C1685 C1693 1.433 . S
C1686 H1682 0.929 . S
C1686 C1688 1.378 . S
C1686 C1690 1.350 . S
C1687 C1690 1.463 . S
C1687 C1692 1.350 . S
C1687 N1695 1.427 . S
C1688 H1679 0.930 . S
C1688 C1686 1.378 . S
C1688 C1689 1.367 . S
C1689 C1688 1.367 . S
C1689 C1691 1.433 . S
C1690 C1686 1.350 . S
C1690 C1687 1.463 . S
C1690 N1694 1.427 . S
C1691 H1681 0.929 . S
C1691 C1689 1.433 . S
C1691 N1694 1.384 . S
C1692 H1683 0.929 . S
C1692 C1684 1.378 . S
C1692 C1687 1.350 . S
C1693 H1680 0.929 . S
C1693 C1685 1.433 . S
C1693 N1695 1.384 . S
N1694 C1690 1.427 . S
N1694 C1691 1.384 . S
N1695 C1687 1.427 . S
N1695 C1693 1.384 . S
H1696 C1702 0.930 . S
H1697 C1706 0.930 . S
H1698 C1711 0.929 . S
H1699 C1709 0.929 . S
H1700 C1704 0.929 . S
H1701 C1710 0.929 . S
C1702 H1696 0.930 . S
C1702 C1703 1.367 . S
C1702 C1710 1.378 . S
C1703 C1702 1.367 . S
C1703 C1711 1.433 . S
C1704 H1700 0.929 . S
C1704 C1706 1.378 . S
C1704 C1708 1.350 . S
C1705 C1708 1.463 . S
C1705 C1710 1.350 . S
C1705 N1713 1.427 . S
C1706 H1697 0.930 . S
C1706 C1704 1.378 . S
C1706 C1707 1.367 . S
C1707 C1706 1.367 . S
C1707 C1709 1.433 . S
C1708 C1704 1.350 . S
C1708 C1705 1.463 . S
C1708 N1712 1.427 . S
C1709 H1699 0.929 . S
C1709 C1707 1.433 . S
C1709 N1712 1.384 . S
C1710 H1701 0.929 . S
C1710 C1702 1.378 . S
C1710 C1705 1.350 . S
C1711 H1698 0.929 . S
C1711 C1703 1.433 . S
C1711 N1713 1.384 . S
N1712 C1708 1.427 . S
N1712 C1709 1.384 . S
N1713 C1705 1.427 . S
N1713 C1711 1.384 . S
H1714 C1720 0.930 . S
H1715 C1724 0.930 . S
H1716 C1729 0.929 . S
H1717 C1727 0.929 . S
H1718 C1722 0.929 . S
H1719 C1728 0.929 . S
C1720 H1714 0.930 . S
C1720 C1721 1.367 . S
C1720 C1728 1.378 . S
C1721 C1720 1.367 . S
C1721 C1729 1.433 . S
C1722 H1718 0.929 . S
C1722 C1724 1.378 . S
C1722 C1726 1.350 . S
C1723 C1726 1.463 . S
C1723 C1728 1.350 . S
C1723 N1731 1.427 . S
C1724 H1715 0.930 . S
C1724 C1722 1.378 . S
C1724 C1725 1.367 . S
C1725 C1724 1.367 . S
C1725 C1727 1.433 . S
C1726 C1722 1.350 . S
C1726 C1723 1.463 . S
C1726 N1730 1.427 . S
C1727 H1717 0.929 . S
C1727 C1725 1.433 . S
C1727 N1730 1.384 . S
C1728 H1719 0.929 . S
C1728 C1720 1.378 . S
C1728 C1723 1.350 . S
C1729 H1716 0.929 . S
C1729 C1721 1.433 . S
C1729 N1731 1.384 . S
N1730 C1726 1.427 . S
N1730 C1727 1.384 . S
N1731 C1723 1.427 . S
N1731 C1729 1.384 . S
H1732 C1738 0.930 . S
H1733 C1742 0.930 . S
H1734 C1747 0.929 . S
H1735 C1745 0.929 . S
H1736 C1740 0.929 . S
H1737 C1746 0.929 . S
C1738 H1732 0.930 . S
C1738 C1739 1.367 . S
C1738 C1746 1.378 . S
C1739 C1738 1.367 . S
C1739 C1747 1.433 . S
C1740 H1736 0.929 . S
C1740 C1742 1.378 . S
C1740 C1744 1.350 . S
C1741 C1744 1.463 . S
C1741 C1746 1.350 . S
C1741 N1749 1.427 . S
C1742 H1733 0.930 . S
C1742 C1740 1.378 . S
C1742 C1743 1.367 . S
C1743 C1742 1.367 . S
C1743 C1745 1.433 . S
C1744 C1740 1.350 . S
C1744 C1741 1.463 . S
C1744 N1748 1.427 . S
C1745 H1735 0.929 . S
C1745 C1743 1.433 . S
C1745 N1748 1.384 . S
C1746 H1737 0.929 . S
C1746 C1738 1.378 . S
C1746 C1741 1.350 . S
C1747 H1734 0.929 . S
C1747 C1739 1.433 . S
C1747 N1749 1.384 . S
N1748 C1744 1.427 . S
N1748 C1745 1.384 . S
N1749 C1741 1.427 . S
N1749 C1747 1.384 . S
H1750 C1756 0.930 . S
H1751 C1760 0.930 . S
H1752 C1765 0.929 . S
H1753 C1763 0.929 . S
H1754 C1758 0.929 . S
H1755 C1764 0.929 . S
C1756 H1750 0.930 . S
C1756 C1757 1.367 . S
C1756 C1764 1.378 . S
C1757 C1756 1.367 . S
C1757 C1765 1.433 . S
C1758 H1754 0.929 . S
C1758 C1760 1.378 . S
C1758 C1762 1.350 . S
C1759 C1762 1.463 . S
C1759 C1764 1.350 . S
C1759 N1767 1.427 . S
C1760 H1751 0.930 . S
C1760 C1758 1.378 . S
C1760 C1761 1.367 . S
C1761 C1760 1.367 . S
C1761 C1763 1.433 . S
C1762 C1758 1.350 . S
C1762 C1759 1.463 . S
C1762 N1766 1.427 . S
C1763 H1753 0.929 . S
C1763 C1761 1.433 . S
C1763 N1766 1.384 . S
C1764 H1755 0.929 . S
C1764 C1756 1.378 . S
C1764 C1759 1.350 . S
C1765 H1752 0.929 . S
C1765 C1757 1.433 . S
C1765 N1767 1.384 . S
N1766 C1762 1.427 . S
N1766 C1763 1.384 . S
N1767 C1759 1.427 . S
N1767 C1765 1.384 . S
H1768 C1774 0.930 . S
H1769 C1778 0.930 . S
H1770 C1783 0.929 . S
H1771 C1781 0.929 . S
H1772 C1776 0.929 . S
H1773 C1782 0.929 . S
C1774 H1768 0.930 . S
C1774 C1775 1.367 . S
C1774 C1782 1.378 . S
C1775 C1774 1.367 . S
C1775 C1783 1.433 . S
C1776 H1772 0.929 . S
C1776 C1778 1.378 . S
C1776 C1780 1.350 . S
C1777 C1780 1.463 . S
C1777 C1782 1.350 . S
C1777 N1785 1.427 . S
C1778 H1769 0.930 . S
C1778 C1776 1.378 . S
C1778 C1779 1.367 . S
C1779 C1778 1.367 . S
C1779 C1781 1.433 . S
C1780 C1776 1.350 . S
C1780 C1777 1.463 . S
C1780 N1784 1.427 . S
C1781 H1771 0.929 . S
C1781 C1779 1.433 . S
C1781 N1784 1.384 . S
C1782 H1773 0.929 . S
C1782 C1774 1.378 . S
C1782 C1777 1.350 . S
C1783 H1770 0.929 . S
C1783 C1775 1.433 . S
C1783 N1785 1.384 . S
N1784 C1780 1.427 . S
N1784 C1781 1.384 . S
N1785 C1777 1.427 . S
N1785 C1783 1.384 . S
H1786 C1792 0.930 . S
H1787 C1796 0.930 . S
H1788 C1801 0.929 . S
H1789 C1799 0.929 . S
H1790 C1794 0.929 . S
H1791 C1800 0.929 . S
C1792 H1786 0.930 . S
C1792 C1793 1.367 . S
C1792 C1800 1.378 . S
C1793 C1792 1.367 . S
C1793 C1801 1.433 . S
C1794 H1790 0.929 . S
C1794 C1796 1.378 . S
C1794 C1798 1.350 . S
C1795 C1798 1.463 . S
C1795 C1800 1.350 . S
C1795 N1803 1.427 . S
C1796 H1787 0.930 . S
C1796 C1794 1.378 . S
C1796 C1797 1.367 . S
C1797 C1796 1.367 . S
C1797 C1799 1.433 . S
C1798 C1794 1.350 . S
C1798 C1795 1.463 . S
C1798 N1802 1.427 . S
C1799 H1789 0.929 . S
C1799 C1797 1.433 . S
C1799 N1802 1.384 . S
C1800 H1791 0.929 . S
C1800 C1792 1.378 . S
C1800 C1795 1.350 . S
C1801 H1788 0.929 . S
C1801 C1793 1.433 . S
C1801 N1803 1.384 . S
N1802 C1798 1.427 . S
N1802 C1799 1.384 . S
N1803 C1795 1.427 . S
N1803 C1801 1.384 . S
H1804 C1810 0.930 . S
H1805 C1814 0.930 . S
H1806 C1819 0.929 . S
H1807 C1817 0.929 . S
H1808 C1812 0.929 . S
H1809 C1818 0.929 . S
C1810 H1804 0.930 . S
C1810 C1811 1.367 . S
C1810 C1818 1.378 . S
C1811 C1810 1.367 . S
C1811 C1819 1.433 . S
C1812 H1808 0.929 . S
C1812 C1814 1.378 . S
C1812 C1816 1.350 . S
C1813 C1816 1.463 . S
C1813 C1818 1.350 . S
C1813 N1821 1.427 . S
C1814 H1805 0.930 . S
C1814 C1812 1.378 . S
C1814 C1815 1.367 . S
C1815 C1814 1.367 . S
C1815 C1817 1.433 . S
C1816 C1812 1.350 . S
C1816 C1813 1.463 . S
C1816 N1820 1.427 . S
C1817 H1807 0.929 . S
C1817 C1815 1.433 . S
C1817 N1820 1.384 . S
C1818 H1809 0.929 . S
C1818 C1810 1.378 . S
C1818 C1813 1.350 . S
C1819 H1806 0.929 . S
C1819 C1811 1.433 . S
C1819 N1821 1.384 . S
N1820 C1816 1.427 . S
N1820 C1817 1.384 . S
N1821 C1813 1.427 . S
N1821 C1819 1.384 . S
H1822 C1828 0.930 . S
H1823 C1832 0.930 . S
H1824 C1837 0.929 . S
H1825 C1835 0.929 . S
H1826 C1830 0.929 . S
H1827 C1836 0.929 . S
C1828 H1822 0.930 . S
C1828 C1829 1.367 . S
C1828 C1836 1.378 . S
C1829 C1828 1.367 . S
C1829 C1837 1.433 . S
C1830 H1826 0.929 . S
C1830 C1832 1.378 . S
C1830 C1834 1.350 . S
C1831 C1834 1.463 . S
C1831 C1836 1.350 . S
C1831 N1839 1.427 . S
C1832 H1823 0.930 . S
C1832 C1830 1.378 . S
C1832 C1833 1.367 . S
C1833 C1832 1.367 . S
C1833 C1835 1.433 . S
C1834 C1830 1.350 . S
C1834 C1831 1.463 . S
C1834 N1838 1.427 . S
C1835 H1825 0.929 . S
C1835 C1833 1.433 . S
C1835 N1838 1.384 . S
C1836 H1827 0.929 . S
C1836 C1828 1.378 . S
C1836 C1831 1.350 . S
C1837 H1824 0.929 . S
C1837 C1829 1.433 . S
C1837 N1839 1.384 . S
N1838 C1834 1.427 . S
N1838 C1835 1.384 . S
N1839 C1831 1.427 . S
N1839 C1837 1.384 . S
H1840 C1846 0.930 . S
H1841 C1850 0.930 . S
H1842 C1855 0.929 . S
H1843 C1853 0.929 . S
H1844 C1848 0.929 . S
H1845 C1854 0.929 . S
C1846 H1840 0.930 . S
C1846 C1847 1.367 . S
C1846 C1854 1.378 . S
C1847 C1846 1.367 . S
C1847 C1855 1.433 . S
C1848 H1844 0.929 . S
C1848 C1850 1.378 . S
C1848 C1852 1.350 . S
C1849 C1852 1.463 . S
C1849 C1854 1.350 . S
C1849 N1857 1.427 . S
C1850 H1841 0.930 . S
C1850 C1848 1.378 . S
C1850 C1851 1.367 . S
C1851 C1850 1.367 . S
C1851 C1853 1.433 . S
C1852 C1848 1.350 . S
C1852 C1849 1.463 . S
C1852 N1856 1.427 . S
C1853 H1843 0.929 . S
C1853 C1851 1.433 . S
C1853 N1856 1.384 . S
C1854 H1845 0.929 . S
C1854 C1846 1.378 . S
C1854 C1849 1.350 . S
C1855 H1842 0.929 . S
C1855 C1847 1.433 . S
C1855 N1857 1.384 . S
N1856 C1852 1.427 . S
N1856 C1853 1.384 . S
N1857 C1849 1.427 . S
N1857 C1855 1.384 . S
H1858 C1864 0.930 . S
H1859 C1868 0.930 . S
H1860 C1873 0.929 . S
H1861 C1871 0.929 . S
H1862 C1866 0.929 . S
H1863 C1872 0.929 . S
C1864 H1858 0.930 . S
C1864 C1865 1.367 . S
C1864 C1872 1.378 . S
C1865 C1864 1.367 . S
C1865 C1873 1.433 . S
C1866 H1862 0.929 . S
C1866 C1868 1.378 . S
C1866 C1870 1.350 . S
C1867 C1870 1.463 . S
C1867 C1872 1.350 . S
C1867 N1875 1.427 . S
C1868 H1859 0.930 . S
C1868 C1866 1.378 . S
C1868 C1869 1.367 . S
C1869 C1868 1.367 . S
C1869 C1871 1.433 . S
C1870 C1866 1.350 . S
C1870 C1867 1.463 . S
C1870 N1874 1.427 . S
C1871 H1861 0.929 . S
C1871 C1869 1.433 . S
C1871 N1874 1.384 . S
C1872 H1863 0.929 . S
C1872 C1864 1.378 . S
C1872 C1867 1.350 . S
C1873 H1860 0.929 . S
C1873 C1865 1.433 . S
C1873 N1875 1.384 . S
N1874 C1870 1.427 . S
N1874 C1871 1.384 . S
N1875 C1867 1.427 . S
N1875 C1873 1.384 . S
H1876 C1882 0.930 . S
H1877 C1886 0.930 . S
H1878 C1891 0.929 . S
H1879 C1889 0.929 . S
H1880 C1884 0.929 . S
H1881 C1890 0.929 . S
C1882 H1876 0.930 . S
C1882 C1883 1.367 . S
C1882 C1890 1.378 . S
C1883 C1882 1.367 . S
C1883 C1891 1.433 . S
C1884 H1880 0.929 . S
C1884 C1886 1.378 . S
C1884 C1888 1.350 . S
C1885 C1888 1.463 . S
C1885 C1890 1.350 . S
C1885 N1893 1.427 . S
C1886 H1877 0.930 . S
C1886 C1884 1.378 . S
C1886 C1887 1.367 . S
C1887 C1886 1.367 . S
C1887 C1889 1.433 . S
C1888 C1884 1.350 . S
C1888 C1885 1.463 . S
C1888 N1892 1.427 . S
C1889 H1879 0.929 . S
C1889 C1887 1.433 . S
C1889 N1892 1.384 . S
C1890 H1881 0.929 . S
C1890 C1882 1.378 . S
C1890 C1885 1.350 . S
C1891 H1878 0.929 . S
C1891 C1883 1.433 . S
C1891 N1893 1.384 . S
N1892 C1888 1.427 . S
N1892 C1889 1.384 . S
N1893 C1885 1.427 . S
N1893 C1891 1.384 . S
H1894 C1900 0.930 . S
H1895 C1904 0.930 . S
H1896 C1909 0.929 . S
H1897 C1907 0.929 . S
H1898 C1902 0.929 . S
H1899 C1908 0.929 . S
C1900 H1894 0.930 . S
C1900 C1901 1.367 . S
C1900 C1908 1.378 . S
C1901 C1900 1.367 . S
C1901 C1909 1.433 . S
C1902 H1898 0.929 . S
C1902 C1904 1.378 . S
C1902 C1906 1.350 . S
C1903 C1906 1.463 . S
C1903 C1908 1.350 . S
C1903 N1911 1.427 . S
C1904 H1895 0.930 . S
C1904 C1902 1.378 . S
C1904 C1905 1.367 . S
C1905 C1904 1.367 . S
C1905 C1907 1.433 . S
C1906 C1902 1.350 . S
C1906 C1903 1.463 . S
C1906 N1910 1.427 . S
C1907 H1897 0.929 . S
C1907 C1905 1.433 . S
C1907 N1910 1.384 . S
C1908 H1899 0.929 . S
C1908 C1900 1.378 . S
C1908 C1903 1.350 . S
C1909 H1896 0.929 . S
C1909 C1901 1.433 . S
C1909 N1911 1.384 . S
N1910 C1906 1.427 . S
N1910 C1907 1.384 . S
N1911 C1903 1.427 . S
N1911 C1909 1.384 . S
H1912 C1918 0.930 . S
H1913 C1922 0.930 . S
H1914 C1927 0.929 . S
H1915 C1925 0.929 . S
H1916 C1920 0.929 . S
H1917 C1926 0.929 . S
C1918 H1912 0.930 . S
C1918 C1919 1.367 . S
C1918 C1926 1.378 . S
C1919 C1918 1.367 . S
C1919 C1927 1.433 . S
C1920 H1916 0.929 . S
C1920 C1922 1.378 . S
C1920 C1924 1.350 . S
C1921 C1924 1.463 . S
C1921 C1926 1.350 . S
C1921 N1929 1.427 . S
C1922 H1913 0.930 . S
C1922 C1920 1.378 . S
C1922 C1923 1.367 . S
C1923 C1922 1.367 . S
C1923 C1925 1.433 . S
C1924 C1920 1.350 . S
C1924 C1921 1.463 . S
C1924 N1928 1.427 . S
C1925 H1915 0.929 . S
C1925 C1923 1.433 . S
C1925 N1928 1.384 . S
C1926 H1917 0.929 . S
C1926 C1918 1.378 . S
C1926 C1921 1.350 . S
C1927 H1914 0.929 . S
C1927 C1919 1.433 . S
C1927 N1929 1.384 . S
N1928 C1924 1.427 . S
N1928 C1925 1.384 . S
N1929 C1921 1.427 . S
N1929 C1927 1.384 . S
H1930 C1936 0.930 . S
H1931 C1940 0.930 . S
H1932 C1945 0.929 . S
H1933 C1943 0.929 . S
H1934 C1938 0.929 . S
H1935 C1944 0.929 . S
C1936 H1930 0.930 . S
C1936 C1937 1.367 . S
C1936 C1944 1.378 . S
C1937 C1936 1.367 . S
C1937 C1945 1.433 . S
C1938 H1934 0.929 . S
C1938 C1940 1.378 . S
C1938 C1942 1.350 . S
C1939 C1942 1.463 . S
C1939 C1944 1.350 . S
C1939 N1947 1.427 . S
C1940 H1931 0.930 . S
C1940 C1938 1.378 . S
C1940 C1941 1.367 . S
C1941 C1940 1.367 . S
C1941 C1943 1.433 . S
C1942 C1938 1.350 . S
C1942 C1939 1.463 . S
C1942 N1946 1.427 . S
C1943 H1933 0.929 . S
C1943 C1941 1.433 . S
C1943 N1946 1.384 . S
C1944 H1935 0.929 . S
C1944 C1936 1.378 . S
C1944 C1939 1.350 . S
C1945 H1932 0.929 . S
C1945 C1937 1.433 . S
C1945 N1947 1.384 . S
N1946 C1942 1.427 . S
N1946 C1943 1.384 . S
N1947 C1939 1.427 . S
N1947 C1945 1.384 . S
H1948 C1954 0.930 . S
H1949 C1958 0.930 . S
H1950 C1963 0.929 . S
H1951 C1961 0.929 . S
H1952 C1956 0.929 . S
H1953 C1962 0.929 . S
C1954 H1948 0.930 . S
C1954 C1955 1.367 . S
C1954 C1962 1.378 . S
C1955 C1954 1.367 . S
C1955 C1963 1.433 . S
C1956 H1952 0.929 . S
C1956 C1958 1.378 . S
C1956 C1960 1.350 . S
C1957 C1960 1.463 . S
C1957 C1962 1.350 . S
C1957 N1965 1.427 . S
C1958 H1949 0.930 . S
C1958 C1956 1.378 . S
C1958 C1959 1.367 . S
C1959 C1958 1.367 . S
C1959 C1961 1.433 . S
C1960 C1956 1.350 . S
C1960 C1957 1.463 . S
C1960 N1964 1.427 . S
C1961 H1951 0.929 . S
C1961 C1959 1.433 . S
C1961 N1964 1.384 . S
C1962 H1953 0.929 . S
C1962 C1954 1.378 . S
C1962 C1957 1.350 . S
C1963 H1950 0.929 . S
C1963 C1955 1.433 . S
C1963 N1965 1.384 . S
N1964 C1960 1.427 . S
N1964 C1961 1.384 . S
N1965 C1957 1.427 . S
N1965 C1963 1.384 . S
H1966 C1972 0.930 . S
H1967 C1976 0.930 . S
H1968 C1981 0.929 . S
H1969 C1979 0.929 . S
H1970 C1974 0.929 . S
H1971 C1980 0.929 . S
C1972 H1966 0.930 . S
C1972 C1973 1.367 . S
C1972 C1980 1.378 . S
C1973 C1972 1.367 . S
C1973 C1981 1.433 . S
C1974 H1970 0.929 . S
C1974 C1976 1.378 . S
C1974 C1978 1.372 . S
C1975 C1978 1.443 1_655 S
C1975 C1980 1.350 . S
C1975 N1983 1.427 . S
C1976 H1967 0.930 . S
C1976 C1974 1.378 . S
C1976 C1977 1.367 . S
C1977 C1976 1.367 . S
C1977 C1979 1.433 . S
C1978 C1974 1.372 . S
C1978 C1975 1.443 1_455 S
C1978 N1982 1.424 1_455 S
C1979 H1969 0.929 . S
C1979 C1977 1.433 . S
C1979 N1982 1.384 1_455 S
C1980 H1971 0.929 . S
C1980 C1972 1.378 . S
C1980 C1975 1.350 . S
C1981 H1968 0.929 . S
C1981 C1973 1.433 . S
C1981 N1983 1.384 . S
N1982 C1978 1.424 1_655 S
N1982 C1979 1.384 1_655 S
N1983 C1975 1.427 . S
N1983 C1981 1.384 . S
H1984 C1990 0.930 . S
H1985 C1994 0.930 . S
H1986 C1999 0.929 . S
H1987 C1997 0.929 . S
H1988 C1992 0.929 . S
H1989 C1998 0.929 . S
C1990 H1984 0.930 . S
C1990 C1991 1.367 . S
C1990 C1998 1.378 . S
C1991 C1990 1.367 . S
C1991 C1999 1.433 . S
C1992 H1988 0.929 . S
C1992 C1994 1.378 . S
C1992 C1996 1.350 . S
C1993 C1996 1.463 . S
C1993 C1998 1.350 . S
C1993 N2001 1.427 . S
C1994 H1985 0.930 . S
C1994 C1992 1.378 . S
C1994 C1995 1.367 . S
C1995 C1994 1.367 . S
C1995 C1997 1.433 . S
C1996 C1992 1.350 . S
C1996 C1993 1.463 . S
C1996 N2000 1.427 . S
C1997 H1987 0.929 . S
C1997 C1995 1.433 . S
C1997 N2000 1.384 . S
C1998 H1989 0.929 . S
C1998 C1990 1.378 . S
C1998 C1993 1.350 . S
C1999 H1986 0.929 . S
C1999 C1991 1.433 . S
C1999 N2001 1.384 . S
N2000 C1996 1.427 . S
N2000 C1997 1.384 . S
N2001 C1993 1.427 . S
N2001 C1999 1.384 . S
H2002 C2008 0.930 . S
H2003 C2012 0.930 . S
H2004 C2017 0.929 . S
H2005 C2015 0.929 . S
H2006 C2010 0.929 . S
H2007 C2016 0.929 . S
C2008 H2002 0.930 . S
C2008 C2009 1.367 . S
C2008 C2016 1.378 . S
C2009 C2008 1.367 . S
C2009 C2017 1.433 . S
C2010 H2006 0.929 . S
C2010 C2012 1.378 . S
C2010 C2014 1.351 1_554 S
C2011 C2014 1.461 . S
C2011 C2016 1.350 . S
C2011 N2019 1.427 . S
C2012 H2003 0.930 . S
C2012 C2010 1.378 . S
C2012 C2013 1.367 . S
C2013 C2012 1.367 . S
C2013 C2015 1.433 . S
C2014 C2010 1.351 1_556 S
C2014 C2011 1.461 . S
C2014 N2018 1.428 1_556 S
C2015 H2005 0.929 . S
C2015 C2013 1.433 . S
C2015 N2018 1.384 . S
C2016 H2007 0.929 . S
C2016 C2008 1.378 . S
C2016 C2011 1.350 . S
C2017 H2004 0.929 . S
C2017 C2009 1.433 . S
C2017 N2019 1.384 . S
N2018 C2014 1.428 1_554 S
N2018 C2015 1.384 . S
N2019 C2011 1.427 . S
N2019 C2017 1.384 . S
H2020 C2026 0.930 . S
H2021 C2030 0.930 . S
H2022 C2035 0.929 . S
H2023 C2033 0.929 . S
H2024 C2028 0.929 . S
H2025 C2034 0.929 . S
C2026 H2020 0.930 . S
C2026 C2027 1.367 . S
C2026 C2034 1.378 . S
C2027 C2026 1.367 . S
C2027 C2035 1.433 . S
C2028 H2024 0.929 . S
C2028 C2030 1.378 . S
C2028 C2032 1.350 . S
C2029 C2032 1.463 . S
C2029 C2034 1.350 . S
C2029 N2037 1.427 . S
C2030 H2021 0.930 . S
C2030 C2028 1.378 . S
C2030 C2031 1.367 . S
C2031 C2030 1.367 . S
C2031 C2033 1.433 . S
C2032 C2028 1.350 . S
C2032 C2029 1.463 . S
C2032 N2036 1.427 . S
C2033 H2023 0.929 . S
C2033 C2031 1.433 . S
C2033 N2036 1.384 . S
C2034 H2025 0.929 . S
C2034 C2026 1.378 . S
C2034 C2029 1.350 . S
C2035 H2022 0.929 . S
C2035 C2027 1.433 . S
C2035 N2037 1.384 . S
N2036 C2032 1.427 . S
N2036 C2033 1.384 . S
N2037 C2029 1.427 . S
N2037 C2035 1.384 . S
H2038 C2044 0.930 . S
H2039 C2048 0.930 . S
H2040 C2053 0.929 . S
H2041 C2051 0.929 . S
H2042 C2046 0.929 . S
H2043 C2052 0.929 . S
C2044 H2038 0.930 . S
C2044 C2045 1.367 . S
C2044 C2052 1.378 . S
C2045 C2044 1.367 . S
C2045 C2053 1.433 . S
C2046 H2042 0.929 . S
C2046 C2048 1.378 . S
C2046 C2050 1.350 . S
C2047 C2050 1.463 . S
C2047 C2052 1.350 . S
C2047 N2055 1.427 . S
C2048 H2039 0.930 . S
C2048 C2046 1.378 . S
C2048 C2049 1.367 . S
C2049 C2048 1.367 . S
C2049 C2051 1.433 . S
C2050 C2046 1.350 . S
C2050 C2047 1.463 . S
C2050 N2054 1.427 . S
C2051 H2041 0.929 . S
C2051 C2049 1.433 . S
C2051 N2054 1.384 . S
C2052 H2043 0.929 . S
C2052 C2044 1.378 . S
C2052 C2047 1.350 . S
C2053 H2040 0.929 . S
C2053 C2045 1.433 . S
C2053 N2055 1.384 . S
N2054 C2050 1.427 . S
N2054 C2051 1.384 . S
N2055 C2047 1.427 . S
N2055 C2053 1.384 . S
H2056 C2062 0.930 . S
H2057 C2066 0.930 . S
H2058 C2071 0.929 . S
H2059 C2069 0.929 . S
H2060 C2064 0.929 . S
H2061 C2070 0.929 . S
C2062 H2056 0.930 . S
C2062 C2063 1.367 . S
C2062 C2070 1.378 . S
C2063 C2062 1.367 . S
C2063 C2071 1.433 . S
C2064 H2060 0.929 . S
C2064 C2066 1.378 . S
C2064 C2068 1.350 . S
C2065 C2068 1.463 . S
C2065 C2070 1.350 . S
C2065 N2073 1.427 . S
C2066 H2057 0.930 . S
C2066 C2064 1.378 . S
C2066 C2067 1.367 . S
C2067 C2066 1.367 . S
C2067 C2069 1.433 . S
C2068 C2064 1.350 . S
C2068 C2065 1.463 . S
C2068 N2072 1.427 . S
C2069 H2059 0.929 . S
C2069 C2067 1.433 . S
C2069 N2072 1.384 . S
C2070 H2061 0.929 . S
C2070 C2062 1.378 . S
C2070 C2065 1.350 . S
C2071 H2058 0.929 . S
C2071 C2063 1.433 . S
C2071 N2073 1.384 . S
N2072 C2068 1.427 . S
N2072 C2069 1.384 . S
N2073 C2065 1.427 . S
N2073 C2071 1.384 . S
H2074 C2080 0.930 . S
H2075 C2084 0.930 . S
H2076 C2089 0.929 . S
H2077 C2087 0.929 . S
H2078 C2082 0.929 . S
H2079 C2088 0.929 . S
C2080 H2074 0.930 . S
C2080 C2081 1.367 . S
C2080 C2088 1.378 . S
C2081 C2080 1.367 . S
C2081 C2089 1.433 . S
C2082 H2078 0.929 . S
C2082 C2084 1.378 . S
C2082 C2086 1.350 1_556 S
C2083 C2086 1.463 . S
C2083 C2088 1.350 . S
C2083 N2091 1.427 . S
C2084 H2075 0.930 . S
C2084 C2082 1.378 . S
C2084 C2085 1.367 . S
C2085 C2084 1.367 . S
C2085 C2087 1.433 . S
C2086 C2082 1.350 1_554 S
C2086 C2083 1.463 . S
C2086 N2090 1.427 1_554 S
C2087 H2077 0.929 . S
C2087 C2085 1.433 . S
C2087 N2090 1.384 . S
C2088 H2079 0.929 . S
C2088 C2080 1.378 . S
C2088 C2083 1.350 . S
C2089 H2076 0.929 . S
C2089 C2081 1.433 . S
C2089 N2091 1.384 . S
N2090 C2086 1.427 1_556 S
N2090 C2087 1.384 . S
N2091 C2083 1.427 . S
N2091 C2089 1.384 . S
H2092 C2098 0.930 . S
H2093 C2102 0.930 . S
H2094 C2107 0.929 . S
H2095 C2105 0.929 . S
H2096 C2100 0.929 . S
H2097 C2106 0.929 . S
C2098 H2092 0.930 . S
C2098 C2099 1.367 . S
C2098 C2106 1.378 . S
C2099 C2098 1.367 . S
C2099 C2107 1.433 . S
C2100 H2096 0.929 . S
C2100 C2102 1.378 . S
C2100 C2104 1.350 . S
C2101 C2104 1.463 . S
C2101 C2106 1.350 . S
C2101 N2109 1.427 . S
C2102 H2093 0.930 . S
C2102 C2100 1.378 . S
C2102 C2103 1.367 . S
C2103 C2102 1.367 . S
C2103 C2105 1.433 . S
C2104 C2100 1.350 . S
C2104 C2101 1.463 . S
C2104 N2108 1.427 . S
C2105 H2095 0.929 . S
C2105 C2103 1.433 . S
C2105 N2108 1.384 . S
C2106 H2097 0.929 . S
C2106 C2098 1.378 . S
C2106 C2101 1.350 . S
C2107 H2094 0.929 . S
C2107 C2099 1.433 . S
C2107 N2109 1.384 . S
N2108 C2104 1.427 . S
N2108 C2105 1.384 . S
N2109 C2101 1.427 . S
N2109 C2107 1.384 . S
H2110 C2116 0.930 . S
H2111 C2120 0.930 . S
H2112 C2125 0.929 . S
H2113 C2123 0.929 . S
H2114 C2118 0.929 . S
H2115 C2124 0.929 . S
C2116 H2110 0.930 . S
C2116 C2117 1.367 . S
C2116 C2124 1.378 . S
C2117 C2116 1.367 . S
C2117 C2125 1.433 . S
C2118 H2114 0.929 . S
C2118 C2120 1.378 . S
C2118 C2122 1.350 . S
C2119 C2122 1.463 . S
C2119 C2124 1.350 . S
C2119 N2127 1.427 . S
C2120 H2111 0.930 . S
C2120 C2118 1.378 . S
C2120 C2121 1.367 . S
C2121 C2120 1.367 . S
C2121 C2123 1.433 . S
C2122 C2118 1.350 . S
C2122 C2119 1.463 . S
C2122 N2126 1.427 . S
C2123 H2113 0.929 . S
C2123 C2121 1.433 . S
C2123 N2126 1.384 . S
C2124 H2115 0.929 . S
C2124 C2116 1.378 . S
C2124 C2119 1.350 . S
C2125 H2112 0.929 . S
C2125 C2117 1.433 . S
C2125 N2127 1.384 . S
N2126 C2122 1.427 . S
N2126 C2123 1.384 . S
N2127 C2119 1.427 . S
N2127 C2125 1.384 . S
H2128 C2134 0.930 . S
H2129 C2138 0.930 . S
H2130 C2143 0.929 . S
H2131 C2141 0.929 . S
H2132 C2136 0.929 . S
H2133 C2142 0.929 . S
C2134 H2128 0.930 . S
C2134 C2135 1.367 . S
C2134 C2142 1.378 . S
C2135 C2134 1.367 . S
C2135 C2143 1.433 . S
C2136 H2132 0.929 . S
C2136 C2138 1.378 . S
C2136 C2140 1.350 . S
C2137 C2140 1.463 . S
C2137 C2142 1.350 . S
C2137 N2145 1.427 . S
C2138 H2129 0.930 . S
C2138 C2136 1.378 . S
C2138 C2139 1.367 . S
C2139 C2138 1.367 . S
C2139 C2141 1.433 . S
C2140 C2136 1.350 . S
C2140 C2137 1.463 . S
C2140 N2144 1.427 . S
C2141 H2131 0.929 . S
C2141 C2139 1.433 . S
C2141 N2144 1.384 . S
C2142 H2133 0.929 . S
C2142 C2134 1.378 . S
C2142 C2137 1.350 . S
C2143 H2130 0.929 . S
C2143 C2135 1.433 . S
C2143 N2145 1.384 . S
N2144 C2140 1.427 . S
N2144 C2141 1.384 . S
N2145 C2137 1.427 . S
N2145 C2143 1.384 . S
H2146 C2152 0.930 . S
H2147 C2156 0.930 . S
H2148 C2161 0.929 . S
H2149 C2159 0.929 . S
H2150 C2154 0.929 . S
H2151 C2160 0.929 . S
C2152 H2146 0.930 . S
C2152 C2153 1.367 . S
C2152 C2160 1.378 . S
C2153 C2152 1.367 . S
C2153 C2161 1.433 . S
C2154 H2150 0.929 . S
C2154 C2156 1.378 . S
C2154 C2158 1.350 . S
C2155 C2158 1.463 . S
C2155 C2160 1.350 . S
C2155 N2163 1.427 . S
C2156 H2147 0.930 . S
C2156 C2154 1.378 . S
C2156 C2157 1.367 . S
C2157 C2156 1.367 . S
C2157 C2159 1.433 . S
C2158 C2154 1.350 . S
C2158 C2155 1.463 . S
C2158 N2162 1.427 . S
C2159 H2149 0.929 . S
C2159 C2157 1.433 . S
C2159 N2162 1.384 . S
C2160 H2151 0.929 . S
C2160 C2152 1.378 . S
C2160 C2155 1.350 . S
C2161 H2148 0.929 . S
C2161 C2153 1.433 . S
C2161 N2163 1.384 . S
N2162 C2158 1.427 . S
N2162 C2159 1.384 . S
N2163 C2155 1.427 . S
N2163 C2161 1.384 . S
H2164 C2170 0.930 . S
H2165 C2174 0.930 . S
H2166 C2179 0.929 . S
H2167 C2177 0.929 . S
H2168 C2172 0.929 . S
H2169 C2178 0.929 . S
C2170 H2164 0.930 . S
C2170 C2171 1.367 . S
C2170 C2178 1.378 . S
C2171 C2170 1.367 . S
C2171 C2179 1.433 . S
C2172 H2168 0.929 . S
C2172 C2174 1.378 . S
C2172 C2176 1.350 . S
C2173 C2176 1.463 . S
C2173 C2178 1.350 . S
C2173 N2181 1.427 . S
C2174 H2165 0.930 . S
C2174 C2172 1.378 . S
C2174 C2175 1.367 . S
C2175 C2174 1.367 . S
C2175 C2177 1.433 . S
C2176 C2172 1.350 . S
C2176 C2173 1.463 . S
C2176 N2180 1.427 . S
C2177 H2167 0.929 . S
C2177 C2175 1.433 . S
C2177 N2180 1.384 . S
C2178 H2169 0.929 . S
C2178 C2170 1.378 . S
C2178 C2173 1.350 . S
C2179 H2166 0.929 . S
C2179 C2171 1.433 . S
C2179 N2181 1.384 . S
N2180 C2176 1.427 . S
N2180 C2177 1.384 . S
N2181 C2173 1.427 . S
N2181 C2179 1.384 . S
H2182 C2188 0.930 . S
H2183 C2192 0.930 . S
H2184 C2197 0.929 . S
H2185 C2195 0.929 . S
H2186 C2190 0.929 . S
H2187 C2196 0.929 . S
C2188 H2182 0.930 . S
C2188 C2189 1.367 . S
C2188 C2196 1.378 . S
C2189 C2188 1.367 . S
C2189 C2197 1.433 . S
C2190 H2186 0.929 . S
C2190 C2192 1.378 . S
C2190 C2194 1.350 . S
C2191 C2194 1.463 . S
C2191 C2196 1.350 . S
C2191 N2199 1.427 . S
C2192 H2183 0.930 . S
C2192 C2190 1.378 . S
C2192 C2193 1.367 . S
C2193 C2192 1.367 . S
C2193 C2195 1.433 . S
C2194 C2190 1.350 . S
C2194 C2191 1.463 . S
C2194 N2198 1.427 . S
C2195 H2185 0.929 . S
C2195 C2193 1.433 . S
C2195 N2198 1.384 . S
C2196 H2187 0.929 . S
C2196 C2188 1.378 . S
C2196 C2191 1.350 . S
C2197 H2184 0.929 . S
C2197 C2189 1.433 . S
C2197 N2199 1.384 . S
N2198 C2194 1.427 . S
N2198 C2195 1.384 . S
N2199 C2191 1.427 . S
N2199 C2197 1.384 . S
H2200 C2206 0.930 . S
H2201 C2210 0.930 . S
H2202 C2215 0.929 . S
H2203 C2213 0.929 . S
H2204 C2208 0.929 . S
H2205 C2214 0.929 . S
C2206 H2200 0.930 . S
C2206 C2207 1.367 . S
C2206 C2214 1.378 . S
C2207 C2206 1.367 . S
C2207 C2215 1.433 . S
C2208 H2204 0.929 . S
C2208 C2210 1.378 . S
C2208 C2212 1.350 . S
C2209 C2212 1.463 . S
C2209 C2214 1.350 . S
C2209 N2217 1.427 . S
C2210 H2201 0.930 . S
C2210 C2208 1.378 . S
C2210 C2211 1.367 . S
C2211 C2210 1.367 . S
C2211 C2213 1.433 . S
C2212 C2208 1.350 . S
C2212 C2209 1.463 . S
C2212 N2216 1.427 . S
C2213 H2203 0.929 . S
C2213 C2211 1.433 . S
C2213 N2216 1.384 . S
C2214 H2205 0.929 . S
C2214 C2206 1.378 . S
C2214 C2209 1.350 . S
C2215 H2202 0.929 . S
C2215 C2207 1.433 . S
C2215 N2217 1.384 . S
N2216 C2212 1.427 . S
N2216 C2213 1.384 . S
N2217 C2209 1.427 . S
N2217 C2215 1.384 . S
H2218 C2224 0.930 . S
H2219 C2228 0.930 . S
H2220 C2233 0.929 . S
H2221 C2231 0.929 . S
H2222 C2226 0.929 . S
H2223 C2232 0.929 . S
C2224 H2218 0.930 . S
C2224 C2225 1.367 . S
C2224 C2232 1.378 . S
C2225 C2224 1.367 . S
C2225 C2233 1.433 . S
C2226 H2222 0.929 . S
C2226 C2228 1.378 . S
C2226 C2230 1.350 . S
C2227 C2230 1.463 . S
C2227 C2232 1.350 . S
C2227 N2235 1.427 . S
C2228 H2219 0.930 . S
C2228 C2226 1.378 . S
C2228 C2229 1.367 . S
C2229 C2228 1.367 . S
C2229 C2231 1.433 . S
C2230 C2226 1.350 . S
C2230 C2227 1.463 . S
C2230 N2234 1.427 . S
C2231 H2221 0.929 . S
C2231 C2229 1.433 . S
C2231 N2234 1.384 . S
C2232 H2223 0.929 . S
C2232 C2224 1.378 . S
C2232 C2227 1.350 . S
C2233 H2220 0.929 . S
C2233 C2225 1.433 . S
C2233 N2235 1.384 . S
N2234 C2230 1.427 . S
N2234 C2231 1.384 . S
N2235 C2227 1.427 . S
N2235 C2233 1.384 . S
H2236 C2242 0.930 . S
H2237 C2246 0.930 . S
H2238 C2251 0.929 . S
H2239 C2249 0.929 . S
H2240 C2244 0.929 . S
H2241 C2250 0.929 . S
C2242 H2236 0.930 . S
C2242 C2243 1.367 . S
C2242 C2250 1.378 . S
C2243 C2242 1.367 . S
C2243 C2251 1.433 . S
C2244 H2240 0.929 . S
C2244 C2246 1.378 . S
C2244 C2248 1.350 . S
C2245 C2248 1.463 . S
C2245 C2250 1.350 . S
C2245 N2253 1.427 . S
C2246 H2237 0.930 . S
C2246 C2244 1.378 . S
C2246 C2247 1.367 . S
C2247 C2246 1.367 . S
C2247 C2249 1.433 . S
C2248 C2244 1.350 . S
C2248 C2245 1.463 . S
C2248 N2252 1.427 . S
C2249 H2239 0.929 . S
C2249 C2247 1.433 . S
C2249 N2252 1.384 . S
C2250 H2241 0.929 . S
C2250 C2242 1.378 . S
C2250 C2245 1.350 . S
C2251 H2238 0.929 . S
C2251 C2243 1.433 . S
C2251 N2253 1.384 . S
N2252 C2248 1.427 . S
N2252 C2249 1.384 . S
N2253 C2245 1.427 . S
N2253 C2251 1.384 . S
H2254 C2260 0.930 . S
H2255 C2264 0.930 . S
H2256 C2269 0.929 . S
H2257 C2267 0.929 . S
H2258 C2262 0.929 . S
H2259 C2268 0.929 . S
C2260 H2254 0.930 . S
C2260 C2261 1.367 . S
C2260 C2268 1.378 . S
C2261 C2260 1.367 . S
C2261 C2269 1.433 . S
C2262 H2258 0.929 . S
C2262 C2264 1.378 . S
C2262 C2266 1.350 . S
C2263 C2266 1.463 . S
C2263 C2268 1.350 . S
C2263 N2271 1.427 . S
C2264 H2255 0.930 . S
C2264 C2262 1.378 . S
C2264 C2265 1.367 . S
C2265 C2264 1.367 . S
C2265 C2267 1.433 . S
C2266 C2262 1.350 . S
C2266 C2263 1.463 . S
C2266 N2270 1.427 . S
C2267 H2257 0.929 . S
C2267 C2265 1.433 . S
C2267 N2270 1.384 . S
C2268 H2259 0.929 . S
C2268 C2260 1.378 . S
C2268 C2263 1.350 . S
C2269 H2256 0.929 . S
C2269 C2261 1.433 . S
C2269 N2271 1.384 . S
N2270 C2266 1.427 . S
N2270 C2267 1.384 . S
N2271 C2263 1.427 . S
N2271 C2269 1.384 . S
H2272 C2278 0.930 . S
H2273 C2282 0.930 . S
H2274 C2287 0.929 . S
H2275 C2285 0.929 . S
H2276 C2280 0.929 . S
H2277 C2286 0.929 . S
C2278 H2272 0.930 . S
C2278 C2279 1.367 . S
C2278 C2286 1.378 . S
C2279 C2278 1.367 . S
C2279 C2287 1.433 . S
C2280 H2276 0.929 . S
C2280 C2282 1.378 . S
C2280 C2284 1.350 . S
C2281 C2284 1.463 . S
C2281 C2286 1.350 . S
C2281 N2289 1.427 . S
C2282 H2273 0.930 . S
C2282 C2280 1.378 . S
C2282 C2283 1.367 . S
C2283 C2282 1.367 . S
C2283 C2285 1.433 . S
C2284 C2280 1.350 . S
C2284 C2281 1.463 . S
C2284 N2288 1.427 . S
C2285 H2275 0.929 . S
C2285 C2283 1.433 . S
C2285 N2288 1.384 . S
C2286 H2277 0.929 . S
C2286 C2278 1.378 . S
C2286 C2281 1.350 . S
C2287 H2274 0.929 . S
C2287 C2279 1.433 . S
C2287 N2289 1.384 . S
N2288 C2284 1.427 . S
N2288 C2285 1.384 . S
N2289 C2281 1.427 . S
N2289 C2287 1.384 . S
H2290 C2296 0.930 . S
H2291 C2300 0.930 . S
H2292 C2305 0.929 . S
H2293 C2303 0.929 . S
H2294 C2298 0.929 . S
H2295 C2304 0.929 . S
C2296 H2290 0.930 . S
C2296 C2297 1.367 . S
C2296 C2304 1.378 . S
C2297 C2296 1.367 . S
C2297 C2305 1.433 . S
C2298 H2294 0.929 . S
C2298 C2300 1.378 . S
C2298 C2302 1.350 . S
C2299 C2302 1.463 . S
C2299 C2304 1.350 . S
C2299 N2307 1.427 . S
C2300 H2291 0.930 . S
C2300 C2298 1.378 . S
C2300 C2301 1.367 . S
C2301 C2300 1.367 . S
C2301 C2303 1.433 . S
C2302 C2298 1.350 . S
C2302 C2299 1.463 . S
C2302 N2306 1.427 . S
C2303 H2293 0.929 . S
C2303 C2301 1.433 . S
C2303 N2306 1.384 . S
C2304 H2295 0.929 . S
C2304 C2296 1.378 . S
C2304 C2299 1.350 . S
C2305 H2292 0.929 . S
C2305 C2297 1.433 . S
C2305 N2307 1.384 . S
N2306 C2302 1.427 . S
N2306 C2303 1.384 . S
N2307 C2299 1.427 . S
N2307 C2305 1.384 . S
H2308 C2314 0.930 . S
H2309 C2318 0.930 . S
H2310 C2323 0.929 . S
H2311 C2321 0.929 . S
H2312 C2316 0.929 . S
H2313 C2322 0.929 . S
C2314 H2308 0.930 . S
C2314 C2315 1.367 . S
C2314 C2322 1.378 . S
C2315 C2314 1.367 . S
C2315 C2323 1.433 . S
C2316 H2312 0.929 . S
C2316 C2318 1.378 . S
C2316 C2320 1.350 . S
C2317 C2320 1.463 . S
C2317 C2322 1.350 . S
C2317 N2325 1.427 . S
C2318 H2309 0.930 . S
C2318 C2316 1.378 . S
C2318 C2319 1.367 . S
C2319 C2318 1.367 . S
C2319 C2321 1.433 . S
C2320 C2316 1.350 . S
C2320 C2317 1.463 . S
C2320 N2324 1.427 . S
C2321 H2311 0.929 . S
C2321 C2319 1.433 . S
C2321 N2324 1.384 . S
C2322 H2313 0.929 . S
C2322 C2314 1.378 . S
C2322 C2317 1.350 . S
C2323 H2310 0.929 . S
C2323 C2315 1.433 . S
C2323 N2325 1.384 . S
N2324 C2320 1.427 . S
N2324 C2321 1.384 . S
N2325 C2317 1.427 . S
N2325 C2323 1.384 . S
H2326 C2332 0.930 . S
H2327 C2336 0.930 . S
H2328 C2341 0.929 . S
H2329 C2339 0.929 . S
H2330 C2334 0.929 . S
H2331 C2340 0.929 . S
C2332 H2326 0.930 . S
C2332 C2333 1.367 . S
C2332 C2340 1.378 . S
C2333 C2332 1.367 . S
C2333 C2341 1.433 . S
C2334 H2330 0.929 . S
C2334 C2336 1.378 . S
C2334 C2338 1.350 . S
C2335 C2338 1.463 . S
C2335 C2340 1.350 . S
C2335 N2343 1.427 . S
C2336 H2327 0.930 . S
C2336 C2334 1.378 . S
C2336 C2337 1.367 . S
C2337 C2336 1.367 . S
C2337 C2339 1.433 . S
C2338 C2334 1.350 . S
C2338 C2335 1.463 . S
C2338 N2342 1.427 . S
C2339 H2329 0.929 . S
C2339 C2337 1.433 . S
C2339 N2342 1.384 . S
C2340 H2331 0.929 . S
C2340 C2332 1.378 . S
C2340 C2335 1.350 . S
C2341 H2328 0.929 . S
C2341 C2333 1.433 . S
C2341 N2343 1.384 . S
N2342 C2338 1.427 . S
N2342 C2339 1.384 . S
N2343 C2335 1.427 . S
N2343 C2341 1.384 . S
H2344 C2350 0.930 . S
H2345 C2354 0.930 . S
H2346 C2359 0.929 . S
H2347 C2357 0.929 . S
H2348 C2352 0.929 . S
H2349 C2358 0.929 . S
C2350 H2344 0.930 . S
C2350 C2351 1.367 . S
C2350 C2358 1.378 . S
C2351 C2350 1.367 . S
C2351 C2359 1.433 . S
C2352 H2348 0.929 . S
C2352 C2354 1.378 . S
C2352 C2356 1.350 . S
C2353 C2356 1.463 . S
C2353 C2358 1.350 . S
C2353 N2361 1.427 . S
C2354 H2345 0.930 . S
C2354 C2352 1.378 . S
C2354 C2355 1.367 . S
C2355 C2354 1.367 . S
C2355 C2357 1.433 . S
C2356 C2352 1.350 . S
C2356 C2353 1.463 . S
C2356 N2360 1.427 . S
C2357 H2347 0.929 . S
C2357 C2355 1.433 . S
C2357 N2360 1.384 . S
C2358 H2349 0.929 . S
C2358 C2350 1.378 . S
C2358 C2353 1.350 . S
C2359 H2346 0.929 . S
C2359 C2351 1.433 . S
C2359 N2361 1.384 . S
N2360 C2356 1.427 . S
N2360 C2357 1.384 . S
N2361 C2353 1.427 . S
N2361 C2359 1.384 . S
H2362 C2368 0.930 . S
H2363 C2372 0.930 . S
H2364 C2377 0.929 . S
H2365 C2375 0.929 . S
H2366 C2370 0.929 . S
H2367 C2376 0.929 . S
C2368 H2362 0.930 . S
C2368 C2369 1.367 . S
C2368 C2376 1.378 . S
C2369 C2368 1.367 . S
C2369 C2377 1.433 . S
C2370 H2366 0.929 . S
C2370 C2372 1.378 . S
C2370 C2374 1.350 . S
C2371 C2374 1.463 . S
C2371 C2376 1.350 . S
C2371 N2379 1.427 . S
C2372 H2363 0.930 . S
C2372 C2370 1.378 . S
C2372 C2373 1.367 . S
C2373 C2372 1.367 . S
C2373 C2375 1.433 . S
C2374 C2370 1.350 . S
C2374 C2371 1.463 . S
C2374 N2378 1.427 . S
C2375 H2365 0.929 . S
C2375 C2373 1.433 . S
C2375 N2378 1.384 . S
C2376 H2367 0.929 . S
C2376 C2368 1.378 . S
C2376 C2371 1.350 . S
C2377 H2364 0.929 . S
C2377 C2369 1.433 . S
C2377 N2379 1.384 . S
N2378 C2374 1.427 . S
N2378 C2375 1.384 . S
N2379 C2371 1.427 . S
N2379 C2377 1.384 . S
H2380 C2386 0.930 . S
H2381 C2390 0.930 . S
H2382 C2395 0.929 . S
H2383 C2393 0.929 . S
H2384 C2388 0.929 . S
H2385 C2394 0.929 . S
C2386 H2380 0.930 . S
C2386 C2387 1.367 . S
C2386 C2394 1.378 . S
C2387 C2386 1.367 . S
C2387 C2395 1.433 . S
C2388 H2384 0.929 . S
C2388 C2390 1.378 . S
C2388 C2392 1.350 . S
C2389 C2392 1.463 . S
C2389 C2394 1.350 . S
C2389 N2397 1.427 . S
C2390 H2381 0.930 . S
C2390 C2388 1.378 . S
C2390 C2391 1.367 . S
C2391 C2390 1.367 . S
C2391 C2393 1.433 . S
C2392 C2388 1.350 . S
C2392 C2389 1.463 . S
C2392 N2396 1.427 . S
C2393 H2383 0.929 . S
C2393 C2391 1.433 . S
C2393 N2396 1.384 . S
C2394 H2385 0.929 . S
C2394 C2386 1.378 . S
C2394 C2389 1.350 . S
C2395 H2382 0.929 . S
C2395 C2387 1.433 . S
C2395 N2397 1.384 . S
N2396 C2392 1.427 . S
N2396 C2393 1.384 . S
N2397 C2389 1.427 . S
N2397 C2395 1.384 . S
H2398 C2404 0.930 . S
H2399 C2408 0.930 . S
H2400 C2413 0.929 . S
H2401 C2411 0.929 . S
H2402 C2406 0.929 1_455 S
H2403 C2412 0.929 . S
C2404 H2398 0.930 . S
C2404 C2405 1.367 . S
C2404 C2412 1.378 . S
C2405 C2404 1.367 . S
C2405 C2413 1.433 . S
C2406 H2402 0.929 1_655 S
C2406 C2408 1.378 . S
C2406 C2410 1.350 1_655 S
C2407 C2410 1.463 . S
C2407 C2412 1.350 . S
C2407 N2415 1.427 . S
C2408 H2399 0.930 . S
C2408 C2406 1.378 . S
C2408 C2409 1.367 . S
C2409 C2408 1.367 . S
C2409 C2411 1.433 . S
C2410 C2406 1.350 1_455 S
C2410 C2407 1.463 . S
C2410 N2414 1.427 1_455 S
C2411 H2401 0.929 . S
C2411 C2409 1.433 . S
C2411 N2414 1.384 . S
C2412 H2403 0.929 . S
C2412 C2404 1.378 . S
C2412 C2407 1.350 . S
C2413 H2400 0.929 . S
C2413 C2405 1.433 . S
C2413 N2415 1.384 . S
N2414 C2410 1.427 1_655 S
N2414 C2411 1.384 . S
N2415 C2407 1.427 . S
N2415 C2413 1.384 . S
C699 C343 1.033 . S
C695 C11 1.073 . S
C713 C14 1.171 . S
C717 C363 1.132 . S
C735 C384 1.190 . S
C731 C37 1.217 . S
C753 C411 1.117 . S
C749 C47 1.180 . S
C771 C367 1.131 . S
C767 C61 1.181 . S
C785 C79 1.229 . S
C789 C387 1.174 . S
C807 C407 1.125 . S
C803 C84 1.163 . S
C821 C109 1.066 . S
C825 C340 1.042 . S
C839 C123 1.072 . S
C843 C345 1.036 . S
C861 C362 1.114 . S
C857 C131 1.157 . S
C879 C386 1.180 . S
C875 C140 1.226 . S
C897 C410 1.132 . S
C893 C163 1.154 . S
C915 C366 1.113 . S
C911 C121 1.162 . S
C933 C389 1.179 . S
C929 C126 1.220 . S
C947 C145 1.161 . S
C951 C406 1.097 . S
C969 C342 1.053 . S
C965 C165 1.091 . S
C983 C168 1.096 . S
C987 C344 1.058 . S
C1001 C193 1.118 . S
C1005 C431 1.092 . S
C1023 C451 1.141 . S
C1019 C205 1.194 . S
C1041 C474 1.146 . S
C1037 C215 1.210 . S
C1055 C224 1.097 . S
C1059 C341 1.058 . S
C1073 C247 1.200 . S
C1077 C385 1.162 . S
C1095 C475 1.075 . S
C1091 C207 1.115 . S
C1113 C430 1.157 . S
C1109 C257 1.216 . S
C1131 C498 1.144 . S
C1127 C23 1.186 . S
C1149 C519 1.091 . S
C1145 C0 1.098 . S
C1163 C53 1.040 . S
C1167 C538 0.998 . S
C1181 C33 1.183 . S
C1185 C563 1.136 . S
C1199 C103 1.180 . S
C1203 C518 1.151 . S
C1217 C95 1.034 . S
C1221 C543 1.006 . S
C1239 C562 1.078 . S
C1235 C70 1.108 . S
C1253 C65 1.174 . S
C1257 C495 1.165 . S
C1271 C271 1.211 . S
C1275 C499 1.163 . S
C1293 C520 1.135 . S
C1289 C219 1.141 . S
C1311 C539 1.023 . S
C1307 C235 1.032 . S
C1329 C564 1.085 . S
C1325 C182 1.097 . S
C1347 C516 1.075 . S
C1343 C266 1.107 . S
C1365 C541 1.021 . S
C1361 C221 1.035 . S
C1383 C560 1.125 . S
C1379 C233 1.139 . S
C1397 C187 1.207 . S
C1401 C496 1.178 . S
C1419 C497 1.116 . S
C1415 C289 1.130 . S
C1433 C154 1.162 . S
C1437 C583 1.126 . S
C1455 C608 1.073 . S
C1451 C299 1.099 . S
C1469 C137 1.112 . S
C1473 C627 1.071 . S
C1491 C494 1.113 . S
C1487 C149 1.129 . S
C1509 C540 1.066 . S
C1505 C313 1.097 . S
C1527 C631 1.142 . S
C1523 C294 1.149 . S
C1541 C333 1.101 . S
C1545 C587 1.086 . S
C1559 C39 1.069 . S
C1563 C651 1.023 . S
C1577 C42 1.167 . S
C1581 C429 1.148 . S
C1599 C453 1.178 . S
C1595 C9 1.230 . S
C1613 C19 1.174 . S
C1617 C477 1.132 . S
C1631 C89 1.171 . S
C1635 C433 1.125 . S
C1649 C107 1.230 . S
C1653 C450 1.185 . S
C1671 C473 1.126 . S
C1667 C56 1.162 . S
C1689 C648 1.016 . S
C1685 C81 1.060 . S
C1707 C653 1.055 . S
C1703 C305 1.079 . S
C1725 C428 1.119 . S
C1721 C285 1.167 . S
C1743 C455 1.201 . S
C1739 C322 1.223 . S
C1757 C317 1.168 . S
C1761 C476 1.132 . S
C1779 C432 1.127 . S
C1775 C303 1.152 . S
C1793 C280 1.223 . S
C1797 C452 1.200 . S
C1815 C472 1.097 . S
C1811 C327 1.158 . S
C1829 C319 1.083 . S
C1833 C650 1.037 . S
C1851 C652 1.078 . S
C1847 C210 1.095 . S
C1865 C249 1.114 . S
C1869 C365 1.079 . S
C1887 C388 1.141 . S
C1883 C275 1.193 . S
C1901 C173 1.205 . S
C1905 C408 1.147 . S
C1923 C649 1.072 . S
C1919 C252 1.091 . S
C1941 C454 1.153 . S
C1937 C191 1.185 . S
C1959 C409 1.085 . S
C1955 C277 1.129 . S
C1977 C364 1.152 . S
C1973 C229 1.215 . S
C1991 C51 1.184 . S
C1995 C675 1.155 . S
C2009 C28 1.110 . S
C2013 C585 1.071 . S
C2027 C25 1.027 . S
C2031 C604 1.021 . S
C2049 C629 1.137 . S
C2045 C5 1.183 . S
C2067 C584 1.152 . S
C2063 C75 1.176 . S
C2081 C67 1.029 . S
C2085 C609 1.014 . S
C2103 C628 1.077 . S
C2099 C98 1.109 . S
C2117 C93 1.181 . S
C2121 C670 1.160 . S
C2139 C673 1.178 . S
C2135 C201 1.208 . S
C2153 C177 1.138 . S
C2157 C586 1.128 . S
C2171 C263 1.031 . S
C2175 C605 1.024 . S
C2193 C630 1.089 . S
C2189 C238 1.097 . S
C2211 C582 1.068 . S
C2207 C196 1.110 . S
C2225 C179 1.042 . S
C2229 C607 1.009 . S
C2247 C626 1.117 . S
C2243 C261 1.145 . S
C2265 C671 1.166 . S
C2261 C243 1.209 . S
C2283 C674 1.116 . S
C2279 C135 1.130 . S
C2301 C517 1.121 . S
C2297 C308 1.164 . S
C2315 C117 1.096 . S
C2319 C542 1.077 . S
C2333 C291 1.112 . S
C2337 C561 1.071 . S
C2355 C672 1.094 . S
C2351 C331 1.136 . S
C2373 C606 1.056 . S
C2369 C159 1.102 . S
C2391 C565 1.142 . S
C2387 C112 1.149 . S
C2409 C521 1.073 . S
C2405 C151 1.108 . S
