# Generated by pormake.
# Topology tsx, (6,3)-cn, num edge types: 1
# Building blocks:
#     Node 0, Type 0, BuildingBlock: MIDCAF_clean_sbu_0, # of connection points: 6
#     Node 1, Type 0, BuildingBlock: MIDCAF_clean_sbu_0, # of connection points: 6
#     Node 2, Type 1, BuildingBlock: OLANEW_clean_sbu_2, # of connection points: 3
#     Node 3, Type 1, BuildingBlock: OLANEW_clean_sbu_2, # of connection points: 3
#     Node 4, Type 1, BuildingBlock: OLANEW_clean_sbu_2, # of connection points: 3
#     Node 5, Type 1, BuildingBlock: OLANEW_clean_sbu_2, # of connection points: 3
#     Edge 6, Type (0, 1), BuildingBlock: XIVTED_clean_linker_0, # of connection points: 2
#     Edge 7, Type (0, 1), BuildingBlock: XIVTED_clean_linker_0, # of connection points: 2
#     Edge 8, Type (0, 1), BuildingBlock: XIVTED_clean_linker_0, # of connection points: 2
#     Edge 9, Type (0, 1), BuildingBlock: XIVTED_clean_linker_0, # of connection points: 2
#     Edge 10, Type (0, 1), BuildingBlock: XIVTED_clean_linker_0, # of connection points: 2
#     Edge 11, Type (0, 1), BuildingBlock: XIVTED_clean_linker_0, # of connection points: 2
#     Edge 12, Type (0, 1), BuildingBlock: XIVTED_clean_linker_0, # of connection points: 2
#     Edge 13, Type (0, 1), BuildingBlock: XIVTED_clean_linker_0, # of connection points: 2
#     Edge 14, Type (0, 1), BuildingBlock: XIVTED_clean_linker_0, # of connection points: 2
#     Edge 15, Type (0, 1), BuildingBlock: XIVTED_clean_linker_0, # of connection points: 2
#     Edge 16, Type (0, 1), BuildingBlock: XIVTED_clean_linker_0, # of connection points: 2
#     Edge 17, Type (0, 1), BuildingBlock: XIVTED_clean_linker_0, # of connection points: 2
# Relax obj value: 0.070
# Max RMSD: 0.154
# Mean RMSD: 0.098
data_MOF--net-tsx--node1-MIDCAF_clean_sbu_0--node2-OLANEW_clean_sbu_2--edge1-XIVTED_clean_linker_0
_symmetry_space_group_name_H-M    P1
_symmetry_Int_Tables_number       1
_symmetry_cell_setting            triclinic
loop_
_symmetry_equiv_pos_as_xyz
'x, y, z'
_cell_length_a     21.793081
_cell_length_b     22.630981
_cell_length_c     36.811785
_cell_angle_alpha  96.401645
_cell_angle_beta   95.048682
_cell_angle_gamma 89.810708
loop_
_atom_site_label
_atom_site_type_symbol
_atom_site_fract_x
_atom_site_fract_y
_atom_site_fract_z
_atom_type_partial_charge
Zn0 Zn 0.86412 0.02429 0.97229 0.0
Zn1 Zn 0.08739 0.03476 0.03065 0.0
Zn2 Zn 0.97966 0.03074 -0.00071 0.0
C3 C 0.05059 0.14957 0.04037 0.0
C4 C 0.10096 0.99275 0.95871 0.0
O5 O 0.92661 0.96537 0.02598 0.0
O6 O 0.83269 0.96043 -0.00252 0.0
C7 C 0.8862 0.1416 0.00286 0.0
O8 O 0.00506 0.12557 0.01909 0.0
O9 O 0.09278 0.1175 0.05308 0.0
O10 O 0.13306 0.01399 0.98734 0.0
O11 O 0.04168 0.99393 0.95771 0.0
O12 O 0.84252 0.10641 0.99065 0.0
O13 O 0.94194 0.1224 0.00622 0.0
O14 O 0.98202 0.00362 0.94017 0.0
O15 O 0.8835 0.00702 0.9203 0.0
C16 C 0.93908 -0.00038 0.91362 0.0
O17 O 0.98478 0.9732 0.04507 0.0
O18 O 0.08391 0.9729 0.06368 0.0
C19 C 0.87172 0.94286 0.02118 0.0
C20 C 0.0299 0.9549 0.06598 0.0
Zn21 Zn 0.71419 0.51366 0.51765 0.0
Zn22 Zn 0.51441 0.41547 0.45615 0.0
Zn23 Zn 0.60502 0.47464 0.48824 0.0
C24 C 0.5994 0.38899 0.40948 0.0
C25 C 0.48695 0.5407 0.46169 0.0
O26 O 0.61034 0.4567 0.54553 0.0
O27 O 0.70161 0.4936 0.56793 0.0
C28 C 0.7424 0.42605 0.46591 0.0
O29 O 0.62919 0.41993 0.43702 0.0
O30 O 0.54253 0.37961 0.4098 0.0
O31 O 0.46333 0.48919 0.45538 0.0
O32 O 0.54481 0.54685 0.47185 0.0
O33 O 0.77067 0.46308 0.48961 0.0
O34 O 0.68285 0.42648 0.46152 0.0
O35 O 0.60239 0.57198 0.48706 0.0
O36 O 0.69947 0.59596 0.50556 0.0
C37 C 0.64598 0.61088 0.49405 0.0
O38 O 0.5536 0.42979 0.52771 0.0
O39 O 0.49678 0.36172 0.49238 0.0
C40 C 0.65169 0.46839 0.57255 0.0
C41 C 0.51555 0.38549 0.52396 0.0
O42 O 0.03621 0.90221 0.34313 0.0
Cd43 Cd 0.07313 0.93096 0.40751 0.0
O44 O 0.11805 0.94622 0.32747 0.0
Cd45 Cd 0.11837 0.00897 0.37684 0.0
O46 O 0.06374 0.08506 0.39675 0.0
C47 C 0.00665 0.08303 0.38584 0.0
O48 O 0.98449 0.03534 0.36531 0.0
C49 C 0.07196 0.9116 0.31888 0.0
C50 C 0.16988 0.85632 0.42799 0.0
O51 O 0.1138 0.84448 0.43261 0.0
O52 O 0.18079 0.90429 0.41412 0.0
O53 O 0.01495 0.19596 0.68577 0.0
Cd54 Cd 0.02253 0.26555 0.64067 0.0
O55 O 0.9393 0.14913 0.65142 0.0
Cd56 Cd 0.86995 0.08061 0.63128 0.0
O57 O 0.81217 0.0145 0.59624 0.0
C58 C 0.75626 0.00344 0.60057 0.0
O59 O 0.73015 0.03244 0.62801 0.0
C60 C 0.97603 0.15355 0.68048 0.0
C61 C 0.14592 0.28718 0.63255 0.0
O62 O 0.11622 0.32196 0.65459 0.0
O63 O 0.11707 0.24267 0.61425 0.0
O64 O 0.62302 0.55142 0.8554 0.0
Cd65 Cd 0.62493 0.59602 0.91914 0.0
O66 O 0.52251 0.54693 0.84127 0.0
Cd67 Cd 0.49495 0.60584 0.88763 0.0
O68 O 0.43337 0.68112 0.89737 0.0
C69 C 0.38031 0.6783 0.87978 0.0
O70 O 0.36395 0.62957 0.85832 0.0
C71 C 0.5769 0.53486 0.83301 0.0
C72 C 0.69382 0.51974 0.96119 0.0
O73 O 0.63495 0.51571 0.95627 0.0
O74 O 0.72017 0.56157 0.94747 0.0
O75 O 0.65983 0.42006 0.13624 0.0
Cd76 Cd 0.63742 0.4544 0.07626 0.0
O77 O 0.57056 0.37472 0.13731 0.0
Cd78 Cd 0.51891 0.39957 0.08759 0.0
O79 O 0.42293 0.39636 0.06353 0.0
C80 C 0.3822 0.41426 0.0849 0.0
O81 O 0.40034 0.43771 0.11838 0.0
C82 C 0.62441 0.38856 0.15196 0.0
C83 C 0.6978 0.56239 0.07476 0.0
O84 O 0.64205 0.56065 0.08318 0.0
O85 O 0.72502 0.51297 0.06688 0.0
H86 H 0.06699 0.21777 0.98615 0.0
H87 H 0.28713 0.42715 0.12896 0.0
H88 H 0.06992 0.2238 0.10359 0.0
H89 H 0.32658 0.36674 0.01807 0.0
H90 H 0.18364 0.38459 0.1156 0.0
H91 H 0.13502 0.30519 0.99403 0.0
C92 C 0.07908 0.23962 0.01355 0.0
C93 C 0.06296 0.21382 0.04432 0.0
C94 C 0.21455 0.38181 0.09399 0.0
C95 C 0.14192 0.3122 0.05354 0.0
C96 C 0.27373 0.40606 0.10155 0.0
C97 C 0.31622 0.39929 0.07482 0.0
C98 C 0.19749 0.3509 0.05941 0.0
C99 C 0.29578 0.37206 0.03971 0.0
C100 C 0.11875 0.28884 0.01804 0.0
C101 C 0.08126 0.2427 0.07924 0.0
N102 N 0.23813 0.3481 0.03316 0.0
N103 N 0.12072 0.28978 0.08296 0.0
H104 H 0.06102 0.89237 0.91428 0.0
H105 H 0.40774 0.79296 0.90781 0.0
H106 H 0.2161 0.01216 0.93983 0.0
H107 H 0.25678 0.6804 0.858 0.0
H108 H 0.33696 0.87629 0.91422 0.0
H109 H 0.129 0.81799 0.88539 0.0
C110 C 0.10883 0.90382 0.91257 0.0
C111 C 0.1334 0.95787 0.9301 0.0
C112 C 0.31922 0.83355 0.90155 0.0
C113 C 0.21141 0.87294 0.89821 0.0
C114 C 0.35964 0.7858 0.89817 0.0
C115 C 0.338 0.72949 0.88279 0.0
C116 C 0.25634 0.82489 0.89003 0.0
C117 C 0.27531 0.72303 0.87029 0.0
C118 C 0.14779 0.86115 0.89645 0.0
C119 C 0.19564 0.97049 0.92721 0.0
N120 N 0.23645 0.76998 0.87464 0.0
N121 N 0.23275 0.9279 0.91236 0.0
H122 H 0.76323 0.92754 0.0495 0.0
H123 H 0.81517 0.58146 0.05685 0.0
H124 H 0.93889 0.84422 0.03525 0.0
H125 H 0.65249 0.67421 0.09034 0.0
H126 H 0.86432 0.6773 0.05262 0.0
H127 H 0.72537 0.83641 0.06972 0.0
C128 C 0.79421 0.89025 0.05144 0.0
C129 C 0.85417 0.89318 0.04082 0.0
C130 C 0.81813 0.67664 0.06127 0.0
C131 C 0.81075 0.78801 0.06279 0.0
C132 C 0.78995 0.62196 0.06357 0.0
C133 C 0.72942 0.61981 0.0737 0.0
C134 C 0.78536 0.72949 0.06888 0.0
C135 C 0.69902 0.67366 0.08216 0.0
C136 C 0.77259 0.83814 0.06285 0.0
C137 C 0.89251 0.84373 0.0436 0.0
N138 N 0.72712 0.72618 0.07927 0.0
N139 N 0.86981 0.79266 0.05377 0.0
H140 H 0.78798 0.18591 0.03639 0.0
H141 H 0.8194 0.50481 0.96674 0.0
H142 H 0.9479 0.2402 0.98724 0.0
H143 H 0.65121 0.43011 0.99631 0.0
H144 H 0.87613 0.41967 0.98821 0.0
H145 H 0.7482 0.28678 0.03726 0.0
C146 C 0.8154 0.21965 0.02654 0.0
C147 C 0.87106 0.20484 0.0115 0.0
C148 C 0.82697 0.4225 0.99047 0.0
C149 C 0.82501 0.32013 0.01139 0.0
C150 C 0.79453 0.47107 0.97829 0.0
C151 C 0.73025 0.4741 0.97919 0.0
C152 C 0.79489 0.37698 0.00386 0.0
C153 C 0.70054 0.42926 0.99456 0.0
C154 C 0.79256 0.27716 0.02686 0.0
C155 C 0.905 0.2501 -0.00072 0.0
N156 N 0.73299 0.38245 0.006 0.0
N157 N 0.88084 0.30569 -0.00118 0.0
H158 H 0.70558 0.68609 0.45703 0.0
H159 H 0.64578 0.95069 0.60933 0.0
H160 H 0.56542 0.68018 0.53202 0.0
H161 H 0.79021 0.94687 0.53606 0.0
H162 H 0.59869 0.86307 0.57227 0.0
H163 H 0.71661 0.79297 0.47437 0.0
C164 C 0.67541 0.70799 0.47615 0.0
C165 C 0.63475 0.67469 0.49326 0.0
C166 C 0.64014 0.88204 0.56401 0.0
C167 C 0.64934 0.79623 0.51485 0.0
C168 C 0.66712 0.93198 0.58519 0.0
C169 C 0.72276 0.95537 0.57622 0.0
C170 C 0.66897 0.85551 0.53365 0.0
C171 C 0.74801 0.92968 0.54446 0.0
C172 C 0.68218 0.76888 0.48643 0.0
C173 C 0.59715 0.70469 0.51818 0.0
N174 N 0.72133 0.88086 0.52462 0.0
N175 N 0.60644 0.76373 0.52901 0.0
H176 H 0.86396 0.43009 0.45448 0.0
H177 H 0.88117 0.08828 0.37297 0.0
H178 H 0.70427 0.31507 0.4338 0.0
H179 H 0.03951 0.19481 0.41815 0.0
H180 H 0.81493 0.17389 0.38679 0.0
H181 H 0.92773 0.34787 0.43157 0.0
C182 C 0.84208 0.38775 0.44453 0.0
C183 C 0.77857 0.37952 0.44603 0.0
C184 C 0.86416 0.17848 0.39362 0.0
C185 C 0.85166 0.2848 0.42015 0.0
C186 C 0.90206 0.12965 0.38579 0.0
C187 C 0.96604 0.13427 0.39461 0.0
C188 C 0.89044 0.23252 0.4101 0.0
C189 C 0.99046 0.18905 0.41109 0.0
C190 C 0.87863 0.34073 0.43162 0.0
C191 C 0.7528 0.32371 0.43266 0.0
N192 N 0.95265 0.236 0.41826 0.0
N193 N 0.78954 0.27827 0.42053 0.0
H194 H 0.49737 0.27516 0.54388 0.0
H195 H 0.21339 0.3885 0.65554 0.0
H196 H 0.45192 0.45957 0.56928 0.0
H197 H 0.22668 0.2128 0.59776 0.0
H198 H 0.31769 0.41055 0.64072 0.0
H199 H 0.41592 0.24769 0.58093 0.0
C200 C 0.4721 0.30991 0.55871 0.0
C201 C 0.48261 0.36978 0.55467 0.0
C202 C 0.29797 0.36693 0.63174 0.0
C203 C 0.38838 0.33893 0.59578 0.0
C204 C 0.23851 0.35431 0.64016 0.0
C205 C 0.21097 0.29909 0.62728 0.0
C206 C 0.33019 0.32384 0.61061 0.0
C207 C 0.24579 0.2563 0.6077 0.0
C208 C 0.42532 0.29429 0.57948 0.0
C209 C 0.44727 0.41317 0.57324 0.0
N210 N 0.30342 0.26973 0.5997 0.0
N211 N 0.40128 0.3969 0.59273 0.0
H212 H 0.51369 0.65695 0.45049 0.0
H213 H 0.16012 0.75336 0.45907 0.0
H214 H 0.36452 0.54162 0.46828 0.0
H215 H 0.29352 0.86368 0.418 0.0
H216 H 0.2403 0.6812 0.47059 0.0
H217 H 0.43926 0.73884 0.44577 0.0
C218 C 0.46563 0.64901 0.45371 0.0
C219 C 0.44529 0.59233 0.45963 0.0
C220 C 0.25233 0.72121 0.45913 0.0
C221 C 0.36044 0.68507 0.45432 0.0
C222 C 0.20642 0.76259 0.45259 0.0
C223 C 0.21987 0.81449 0.43724 0.0
C224 C 0.31253 0.73136 0.45023 0.0
C225 C 0.28103 0.82406 0.4297 0.0
C226 C 0.4232 0.69553 0.45082 0.0
C227 C 0.38238 0.58428 0.46326 0.0
N228 N 0.32515 0.78269 0.43609 0.0
N229 N 0.34251 0.6299 0.46057 0.0
H230 H 0.10623 0.87113 0.09127 0.0
H231 H 0.95761 0.89604 0.28203 0.0
H232 H 0.93261 0.95681 0.10867 0.0
H233 H 0.15126 0.87886 0.2674 0.0
H234 H 0.93472 0.88136 0.21501 0.0
H235 H 0.10679 0.83429 0.15111 0.0
C236 C 0.06729 0.8807 0.10731 0.0
C237 C 0.01995 0.91804 0.0955 0.0
C238 C 0.982 0.87925 0.22662 0.0
C239 C 0.02096 0.87716 0.16418 0.0
C240 C 0.99509 0.88732 0.26474 0.0
C241 C 0.05648 0.88941 0.28003 0.0
C242 C 0.03069 0.87223 0.20398 0.0
C243 C 0.10339 0.87831 0.25658 0.0
C244 C 0.06775 0.85985 0.14147 0.0
C245 C 0.9702 0.92851 0.11702 0.0
N246 N 0.08955 0.87069 0.2197 0.0
N247 N 0.97266 0.90933 0.15089 0.0
H248 H 0.04892 0.02477 0.8872 0.0
H249 H 0.87847 0.08684 0.69677 0.0
H250 H 0.8617 0.96997 0.85186 0.0
H251 H 0.07061 0.12586 0.72857 0.0
H252 H 0.87624 0.02788 0.74832 0.0
H253 H 0.06361 0.04374 0.82473 0.0
C254 C 0.01152 0.01471 0.86614 0.0
C255 C 0.95384 0.99621 0.87497 0.0
C256 C 0.91923 0.04837 0.7436 0.0
C257 C 0.96949 0.02025 0.80347 0.0
C258 C 0.92061 0.08168 0.7139 0.0
C259 C 0.97478 0.11132 0.7083 0.0
C260 C 0.97224 0.04531 0.76806 0.0
C261 C 0.0276 0.10432 0.73214 0.0
C262 C 0.01967 0.02631 0.83041 0.0
C263 C 0.90672 0.9851 0.84642 0.0
N264 N 0.02482 0.07265 0.76116 0.0
N265 N 0.91519 -0.00163 0.81213 0.0
H266 H 0.7332 0.43738 0.62787 0.0
H267 H 0.48907 0.50018 0.777 0.0
H268 H 0.54366 0.48324 0.60313 0.0
H269 H 0.68607 0.50441 0.80403 0.0
H270 H 0.50574 0.46712 0.71333 0.0
H271 H 0.71393 0.43699 0.69256 0.0
C272 C 0.68705 0.44567 0.63593 0.0
C273 C 0.63916 0.45863 0.61006 0.0
C274 C 0.54529 0.47465 0.73329 0.0
C275 C 0.61703 0.45895 0.68363 0.0
C276 C 0.53586 0.49344 0.7697 0.0
C277 C 0.58633 0.50623 0.79582 0.0
C278 C 0.60558 0.46853 0.72285 0.0
C279 C 0.64583 0.49593 0.78473 0.0
C280 C 0.67613 0.44554 0.67274 0.0
C281 C 0.58059 0.46993 0.62185 0.0
N282 N 0.65386 0.47833 0.74895 0.0
N283 N 0.57115 0.47024 0.6578 0.0
H284 H 0.57069 0.29156 0.36105 0.0
H285 H 0.71561 0.43838 0.20225 0.0
H286 H 0.69338 0.44303 0.38058 0.0
H287 H 0.57521 0.30162 0.18636 0.0
H288 H 0.73139 0.42254 0.2672 0.0
H289 H 0.5977 0.27532 0.29789 0.0
C290 C 0.60448 0.32061 0.35218 0.0
C291 C 0.62881 0.36949 0.37567 0.0
C292 C 0.69803 0.39523 0.2493 0.0
C293 C 0.6586 0.35233 0.30315 0.0
C294 C 0.68906 0.40415 0.21222 0.0
C295 C 0.64303 0.37216 0.18909 0.0
C296 C 0.6609 0.35386 0.26312 0.0
C297 C 0.61026 0.32818 0.20339 0.0
C298 C 0.61975 0.31148 0.31607 0.0
C299 C 0.6731 0.4052 0.36309 0.0
N300 N 0.6193 0.32088 0.23953 0.0
N301 N 0.68549 0.39684 0.32729 0.0
loop_
_geom_bond_atom_site_label_1
_geom_bond_atom_site_label_2
_geom_bond_distance
_geom_bond_site_symmetry_2
_ccdc_geom_bond_type
Zn0 O6 1.920 1_545 S
Zn0 O12 1.898 . S
Zn0 O15 1.905 1_545 S
Zn1 O9 1.905 . S
Zn1 O10 1.898 1_545 S
Zn1 O18 1.920 1_545 S
Zn2 O5 2.081 1_444 S
Zn2 O8 2.114 . S
Zn2 O11 2.120 1_544 S
Zn2 O13 2.121 1_455 S
Zn2 O14 2.096 1_554 S
Zn2 O17 2.098 . S
C3 O8 1.178 . S
C3 O9 1.182 . S
C4 O10 1.167 1_556 S
C4 O11 1.298 . S
O5 Zn2 2.081 1_666 S
O5 C19 1.308 . S
O6 Zn0 1.920 1_565 S
O6 C19 1.247 . S
C7 O12 1.167 . S
C7 O13 1.299 1_556 S
O8 Zn2 2.114 . S
O8 C3 1.178 . S
O9 Zn1 1.905 . S
O9 C3 1.182 . S
O10 Zn1 1.898 1_565 S
O10 C4 1.167 1_554 S
O11 Zn2 2.120 1_566 S
O11 C4 1.298 . S
O12 Zn0 1.898 . S
O12 C7 1.167 . S
O13 Zn2 2.121 1_655 S
O13 C7 1.299 1_554 S
O14 Zn2 2.096 1_556 S
O14 C16 1.166 1_445 S
O15 Zn0 1.905 1_565 S
O15 C16 1.182 . S
C16 O14 1.166 1_665 S
C16 O15 1.182 . S
O17 Zn2 2.098 . S
O17 C20 1.305 1_545 S
O18 Zn1 1.920 1_565 S
O18 C20 1.234 . S
C19 O5 1.308 . S
C19 O6 1.247 . S
C20 O17 1.305 1_565 S
C20 O18 1.234 . S
Zn21 O27 1.920 . S
Zn21 O33 1.898 . S
Zn21 O36 1.905 . S
Zn22 O30 1.905 . S
Zn22 O31 1.898 . S
Zn22 O39 1.920 . S
Zn23 O26 2.080 . S
Zn23 O29 2.114 . S
Zn23 O32 2.120 . S
Zn23 O34 2.120 . S
Zn23 O35 2.114 . S
Zn23 O38 2.080 . S
C24 O29 1.166 . S
C24 O30 1.182 . S
C25 O31 1.167 . S
C25 O32 1.299 . S
O26 Zn23 2.080 . S
O26 C40 1.305 . S
O27 Zn21 1.920 . S
O27 C40 1.234 . S
C28 O33 1.167 . S
C28 O34 1.299 . S
O29 Zn23 2.114 . S
O29 C24 1.166 . S
O30 Zn22 1.905 . S
O30 C24 1.182 . S
O31 Zn22 1.898 . S
O31 C25 1.167 . S
O32 Zn23 2.120 . S
O32 C25 1.299 . S
O33 Zn21 1.898 . S
O33 C28 1.167 . S
O34 Zn23 2.120 . S
O34 C28 1.299 . S
O35 Zn23 2.114 . S
O35 C37 1.166 . S
O36 Zn21 1.905 . S
O36 C37 1.182 . S
C37 O35 1.166 . S
C37 O36 1.182 . S
O38 Zn23 2.080 . S
O38 C41 1.305 . S
O39 Zn22 1.920 . S
O39 C41 1.234 . S
C40 O26 1.305 . S
C40 O27 1.234 . S
C41 O38 1.305 . S
C41 O39 1.234 . S
O42 Cd43 2.300 1_565 S
O42 C49 1.275 1_565 S
Cd43 O42 2.300 1_545 S
Cd43 O51 2.381 1_545 S
Cd43 O52 2.378 1_545 S
O44 Cd45 2.385 . S
O44 C49 1.255 . S
Cd45 O44 2.385 . S
Cd45 O46 2.317 . S
O46 Cd45 2.317 . S
O46 C47 1.232 1_455 S
C47 O46 1.232 1_655 S
C47 O48 1.218 . S
O48 C47 1.218 . S
C49 O42 1.275 1_545 S
C49 O44 1.255 . S
C50 O51 1.258 . S
C50 O52 1.256 . S
O51 Cd43 2.381 1_565 S
O51 C50 1.258 . S
O52 Cd43 2.378 1_565 S
O52 C50 1.256 . S
O53 Cd54 2.300 . S
O53 C60 1.275 . S
Cd54 O53 2.300 . S
Cd54 O62 2.381 . S
Cd54 O63 2.378 . S
O55 Cd56 2.385 . S
O55 C60 1.255 1_565 S
Cd56 O55 2.385 . S
Cd56 O57 2.317 1_455 S
O57 Cd56 2.317 1_655 S
O57 C58 1.232 . S
C58 O57 1.232 . S
C58 O59 1.218 . S
O59 C58 1.218 . S
C60 O53 1.275 . S
C60 O55 1.255 1_545 S
C61 O62 1.258 . S
C61 O63 1.256 . S
O62 Cd54 2.381 . S
O62 C61 1.258 . S
O63 Cd54 2.378 . S
O63 C61 1.256 . S
O64 Cd65 2.300 . S
O64 C71 1.275 . S
Cd65 O64 2.300 . S
Cd65 O73 2.381 . S
Cd65 O74 2.378 . S
O66 Cd67 2.385 . S
O66 C71 1.255 . S
Cd67 O66 2.385 . S
Cd67 O68 2.317 . S
O68 Cd67 2.317 . S
O68 C69 1.232 . S
C69 O68 1.232 . S
C69 O70 1.218 . S
O70 C69 1.218 . S
C71 O64 1.275 . S
C71 O66 1.255 . S
C72 O73 1.258 . S
C72 O74 1.256 . S
O73 Cd65 2.381 . S
O73 C72 1.258 . S
O74 Cd65 2.378 . S
O74 C72 1.256 . S
O75 Cd76 2.300 . S
O75 C82 1.275 . S
Cd76 O75 2.300 . S
Cd76 O84 2.381 . S
Cd76 O85 2.378 . S
O77 Cd78 2.385 . S
O77 C82 1.255 . S
Cd78 O77 2.385 . S
Cd78 O79 2.317 . S
O79 Cd78 2.317 . S
O79 C80 1.232 . S
C80 O79 1.232 . S
C80 O81 1.218 . S
O81 C80 1.218 . S
C82 O75 1.275 . S
C82 O77 1.255 . S
C83 O84 1.258 . S
C83 O85 1.256 . S
O84 Cd76 2.381 . S
O84 C83 1.258 . S
O85 Cd76 2.378 . S
O85 C83 1.256 . S
H86 C92 0.930 . S
H87 C96 0.930 . S
H88 C101 0.929 . S
H89 C99 0.929 . S
H90 C94 0.929 . S
H91 C100 0.947 . S
C92 H86 0.930 . S
C92 C93 1.367 1_556 S
C92 C100 1.380 . S
C93 C92 1.367 1_554 S
C93 C101 1.433 . S
C94 H90 0.929 . S
C94 C96 1.378 . S
C94 C98 1.350 . S
C95 C98 1.463 . S
C95 C100 1.330 1_554 S
C95 N103 1.427 . S
C96 H87 0.930 . S
C96 C94 1.378 . S
C96 C97 1.367 . S
C97 C96 1.367 . S
C97 C99 1.433 . S
C98 C94 1.350 . S
C98 C95 1.463 . S
C98 N102 1.427 . S
C99 H89 0.929 . S
C99 C97 1.433 . S
C99 N102 1.384 . S
C100 H91 0.947 . S
C100 C92 1.380 . S
C100 C95 1.330 1_556 S
C101 H88 0.929 . S
C101 C93 1.433 . S
C101 N103 1.384 . S
N102 C98 1.427 . S
N102 C99 1.384 . S
N103 C95 1.427 . S
N103 C101 1.384 . S
H104 C110 0.930 1_554 S
H105 C114 0.930 . S
H106 C119 0.929 . S
H107 C117 0.929 . S
H108 C112 0.929 . S
H109 C118 0.929 . S
C110 H104 0.930 1_556 S
C110 C111 1.367 . S
C110 C118 1.378 . S
C111 C110 1.367 . S
C111 C119 1.433 . S
C112 H108 0.929 . S
C112 C114 1.378 . S
C112 C116 1.350 . S
C113 C116 1.463 . S
C113 C118 1.350 . S
C113 N121 1.427 . S
C114 H105 0.930 . S
C114 C112 1.378 . S
C114 C115 1.367 . S
C115 C114 1.367 . S
C115 C117 1.433 . S
C116 C112 1.350 . S
C116 C113 1.463 . S
C116 N120 1.427 . S
C117 H107 0.929 . S
C117 C115 1.433 . S
C117 N120 1.384 . S
C118 H109 0.929 . S
C118 C110 1.378 . S
C118 C113 1.350 . S
C119 H106 0.929 . S
C119 C111 1.433 . S
C119 N121 1.384 . S
N120 C116 1.427 . S
N120 C117 1.384 . S
N121 C113 1.427 . S
N121 C119 1.384 . S
H122 C128 0.930 . S
H123 C132 0.930 . S
H124 C137 0.929 . S
H125 C135 0.929 . S
H126 C130 0.929 . S
H127 C136 0.929 . S
C128 H122 0.930 . S
C128 C129 1.367 . S
C128 C136 1.378 . S
C129 C128 1.367 . S
C129 C137 1.433 . S
C130 H126 0.929 . S
C130 C132 1.378 . S
C130 C134 1.350 . S
C131 C134 1.463 . S
C131 C136 1.350 . S
C131 N139 1.427 . S
C132 H123 0.930 . S
C132 C130 1.378 . S
C132 C133 1.367 . S
C133 C132 1.367 . S
C133 C135 1.433 . S
C134 C130 1.350 . S
C134 C131 1.463 . S
C134 N138 1.427 . S
C135 H125 0.929 . S
C135 C133 1.433 . S
C135 N138 1.384 . S
C136 H127 0.929 . S
C136 C128 1.378 . S
C136 C131 1.350 . S
C137 H124 0.929 . S
C137 C129 1.433 . S
C137 N139 1.384 . S
N138 C134 1.427 . S
N138 C135 1.384 . S
N139 C131 1.427 . S
N139 C137 1.384 . S
H140 C146 0.930 . S
H141 C150 0.930 . S
H142 C155 0.929 1_554 S
H143 C153 0.929 . S
H144 C148 0.929 . S
H145 C154 0.929 . S
C146 H140 0.930 . S
C146 C147 1.367 . S
C146 C154 1.378 . S
C147 C146 1.367 . S
C147 C155 1.433 . S
C148 H144 0.929 . S
C148 C150 1.378 . S
C148 C152 1.350 . S
C149 C152 1.463 . S
C149 C154 1.350 . S
C149 N157 1.427 . S
C150 H141 0.930 . S
C150 C148 1.378 . S
C150 C151 1.367 . S
C151 C150 1.367 . S
C151 C153 1.433 . S
C152 C148 1.350 . S
C152 C149 1.463 . S
C152 N156 1.427 . S
C153 H143 0.929 . S
C153 C151 1.433 . S
C153 N156 1.384 . S
C154 H145 0.929 . S
C154 C146 1.378 . S
C154 C149 1.350 . S
C155 H142 0.929 1_556 S
C155 C147 1.433 . S
C155 N157 1.384 . S
N156 C152 1.427 . S
N156 C153 1.384 . S
N157 C149 1.427 . S
N157 C155 1.384 . S
H158 C164 0.930 . S
H159 C168 0.930 . S
H160 C173 0.929 . S
H161 C171 0.929 . S
H162 C166 0.929 . S
H163 C172 0.929 . S
C164 H158 0.930 . S
C164 C165 1.367 . S
C164 C172 1.378 . S
C165 C164 1.367 . S
C165 C173 1.433 . S
C166 H162 0.929 . S
C166 C168 1.378 . S
C166 C170 1.350 . S
C167 C170 1.463 . S
C167 C172 1.350 . S
C167 N175 1.427 . S
C168 H159 0.930 . S
C168 C166 1.378 . S
C168 C169 1.367 . S
C169 C168 1.367 . S
C169 C171 1.433 . S
C170 C166 1.350 . S
C170 C167 1.463 . S
C170 N174 1.427 . S
C171 H161 0.929 . S
C171 C169 1.433 . S
C171 N174 1.384 . S
C172 H163 0.929 . S
C172 C164 1.378 . S
C172 C167 1.350 . S
C173 H160 0.929 . S
C173 C165 1.433 . S
C173 N175 1.384 . S
N174 C170 1.427 . S
N174 C171 1.384 . S
N175 C167 1.427 . S
N175 C173 1.384 . S
H176 C182 0.930 . S
H177 C186 0.930 . S
H178 C191 0.929 . S
H179 C189 0.929 . S
H180 C184 0.929 . S
H181 C190 0.929 . S
C182 H176 0.930 . S
C182 C183 1.367 . S
C182 C190 1.378 . S
C183 C182 1.367 . S
C183 C191 1.433 . S
C184 H180 0.929 . S
C184 C186 1.378 . S
C184 C188 1.350 . S
C185 C188 1.463 . S
C185 C190 1.350 . S
C185 N193 1.427 . S
C186 H177 0.930 . S
C186 C184 1.378 . S
C186 C187 1.367 . S
C187 C186 1.367 . S
C187 C189 1.433 . S
C188 C184 1.350 . S
C188 C185 1.463 . S
C188 N192 1.427 . S
C189 H179 0.929 . S
C189 C187 1.433 . S
C189 N192 1.384 . S
C190 H181 0.929 . S
C190 C182 1.378 . S
C190 C185 1.350 . S
C191 H178 0.929 . S
C191 C183 1.433 . S
C191 N193 1.384 . S
N192 C188 1.427 . S
N192 C189 1.384 . S
N193 C185 1.427 . S
N193 C191 1.384 . S
H194 C200 0.930 . S
H195 C204 0.930 . S
H196 C209 0.929 . S
H197 C207 0.929 . S
H198 C202 0.929 . S
H199 C208 0.929 . S
C200 H194 0.930 . S
C200 C201 1.367 . S
C200 C208 1.378 . S
C201 C200 1.367 . S
C201 C209 1.433 . S
C202 H198 0.929 . S
C202 C204 1.378 . S
C202 C206 1.350 . S
C203 C206 1.463 . S
C203 C208 1.350 . S
C203 N211 1.427 . S
C204 H195 0.930 . S
C204 C202 1.378 . S
C204 C205 1.367 . S
C205 C204 1.367 . S
C205 C207 1.433 . S
C206 C202 1.350 . S
C206 C203 1.463 . S
C206 N210 1.427 . S
C207 H197 0.929 . S
C207 C205 1.433 . S
C207 N210 1.384 . S
C208 H199 0.929 . S
C208 C200 1.378 . S
C208 C203 1.350 . S
C209 H196 0.929 . S
C209 C201 1.433 . S
C209 N211 1.384 . S
N210 C206 1.427 . S
N210 C207 1.384 . S
N211 C203 1.427 . S
N211 C209 1.384 . S
H212 C218 0.930 . S
H213 C222 0.930 . S
H214 C227 0.929 . S
H215 C225 0.929 . S
H216 C220 0.929 . S
H217 C226 0.929 . S
C218 H212 0.930 . S
C218 C219 1.367 . S
C218 C226 1.378 . S
C219 C218 1.367 . S
C219 C227 1.433 . S
C220 H216 0.929 . S
C220 C222 1.378 . S
C220 C224 1.350 . S
C221 C224 1.463 . S
C221 C226 1.350 . S
C221 N229 1.427 . S
C222 H213 0.930 . S
C222 C220 1.378 . S
C222 C223 1.367 . S
C223 C222 1.367 . S
C223 C225 1.433 . S
C224 C220 1.350 . S
C224 C221 1.463 . S
C224 N228 1.427 . S
C225 H215 0.929 . S
C225 C223 1.433 . S
C225 N228 1.384 . S
C226 H217 0.929 . S
C226 C218 1.378 . S
C226 C221 1.350 . S
C227 H214 0.929 . S
C227 C219 1.433 . S
C227 N229 1.384 . S
N228 C224 1.427 . S
N228 C225 1.384 . S
N229 C221 1.427 . S
N229 C227 1.384 . S
H230 C236 0.930 . S
H231 C240 0.930 1_655 S
H232 C245 0.929 . S
H233 C243 0.929 1_565 S
H234 C238 0.929 1_655 S
H235 C244 0.929 . S
C236 H230 0.930 . S
C236 C237 1.367 . S
C236 C244 1.378 . S
C237 C236 1.367 . S
C237 C245 1.433 1_465 S
C238 H234 0.929 1_455 S
C238 C240 1.378 . S
C238 C242 1.350 . S
C239 C242 1.463 . S
C239 C244 1.350 1_545 S
C239 N247 1.427 . S
C240 H231 0.930 1_455 S
C240 C238 1.378 . S
C240 C241 1.367 . S
C241 C240 1.367 . S
C241 C243 1.433 . S
C242 C238 1.350 . S
C242 C239 1.463 . S
C242 N246 1.427 1_545 S
C243 H233 0.929 1_545 S
C243 C241 1.433 . S
C243 N246 1.384 1_545 S
C244 H235 0.929 . S
C244 C236 1.378 . S
C244 C239 1.350 1_565 S
C245 H232 0.929 . S
C245 C237 1.433 1_645 S
C245 N247 1.384 1_655 S
N246 C242 1.427 1_565 S
N246 C243 1.384 1_565 S
N247 C239 1.427 . S
N247 C245 1.384 1_455 S
H248 C254 0.930 . S
H249 C258 0.930 . S
H250 C263 0.929 . S
H251 C261 0.929 . S
H252 C256 0.929 . S
H253 C262 0.929 . S
C254 H248 0.930 . S
C254 C255 1.367 1_645 S
C254 C262 1.378 . S
C255 C254 1.367 1_465 S
C255 C263 1.433 . S
C256 H252 0.929 . S
C256 C258 1.378 . S
C256 C260 1.350 . S
C257 C260 1.463 . S
C257 C262 1.350 1_465 S
C257 N265 1.427 . S
C258 H249 0.930 . S
C258 C256 1.378 . S
C258 C259 1.367 1_565 S
C259 C258 1.367 1_545 S
C259 C261 1.433 1_455 S
C260 C256 1.350 . S
C260 C257 1.463 . S
C260 N264 1.427 1_465 S
C261 H251 0.929 . S
C261 C259 1.433 1_655 S
C261 N264 1.384 . S
C262 H253 0.929 . S
C262 C254 1.378 . S
C262 C257 1.350 1_645 S
C263 H250 0.929 . S
C263 C255 1.433 . S
C263 N265 1.384 . S
N264 C260 1.427 1_645 S
N264 C261 1.384 . S
N265 C257 1.427 . S
N265 C263 1.384 . S
H266 C272 0.930 . S
H267 C276 0.930 . S
H268 C281 0.929 . S
H269 C279 0.929 . S
H270 C274 0.929 . S
H271 C280 0.929 . S
C272 H266 0.930 . S
C272 C273 1.367 . S
C272 C280 1.378 . S
C273 C272 1.367 . S
C273 C281 1.433 . S
C274 H270 0.929 . S
C274 C276 1.378 . S
C274 C278 1.350 . S
C275 C278 1.463 . S
C275 C280 1.350 . S
C275 N283 1.427 . S
C276 H267 0.930 . S
C276 C274 1.378 . S
C276 C277 1.367 . S
C277 C276 1.367 . S
C277 C279 1.433 . S
C278 C274 1.350 . S
C278 C275 1.463 . S
C278 N282 1.427 . S
C279 H269 0.929 . S
C279 C277 1.433 . S
C279 N282 1.384 . S
C280 H271 0.929 . S
C280 C272 1.378 . S
C280 C275 1.350 . S
C281 H268 0.929 . S
C281 C273 1.433 . S
C281 N283 1.384 . S
N282 C278 1.427 . S
N282 C279 1.384 . S
N283 C275 1.427 . S
N283 C281 1.384 . S
H284 C290 0.930 . S
H285 C294 0.930 . S
H286 C299 0.929 . S
H287 C297 0.929 . S
H288 C292 0.929 . S
H289 C298 0.929 . S
C290 H284 0.930 . S
C290 C291 1.367 . S
C290 C298 1.378 . S
C291 C290 1.367 . S
C291 C299 1.433 . S
C292 H288 0.929 . S
C292 C294 1.378 . S
C292 C296 1.350 . S
C293 C296 1.463 . S
C293 C298 1.350 . S
C293 N301 1.427 . S
C294 H285 0.930 . S
C294 C292 1.378 . S
C294 C295 1.367 . S
C295 C294 1.367 . S
C295 C297 1.433 . S
C296 C292 1.350 . S
C296 C293 1.463 . S
C296 N300 1.427 . S
C297 H287 0.929 . S
C297 C295 1.433 . S
C297 N300 1.384 . S
C298 H289 0.929 . S
C298 C290 1.378 . S
C298 C293 1.350 . S
C299 H286 0.929 . S
C299 C291 1.433 . S
C299 N301 1.384 . S
N300 C296 1.427 . S
N300 C297 1.384 . S
N301 C293 1.427 . S
N301 C299 1.384 . S
C97 C80 1.122 . S
C93 C3 1.194 . S
C111 C4 1.515 . S
C115 C69 1.442 . S
C129 C19 1.473 1_554 S
C133 C83 1.567 . S
C147 C7 1.133 . S
C151 C72 1.262 . S
C165 C37 1.177 . S
C169 C58 1.141 . S
C183 C28 1.508 . S
C187 C47 1.449 . S
C205 C61 1.570 . S
C201 C41 1.488 . S
C223 C50 1.260 . S
C219 C25 1.159 . S
C237 C20 1.324 . S
C241 C49 1.446 . S
C255 C16 1.364 1_455 S
C259 C60 1.481 . S
C277 C71 1.446 . S
C273 C40 1.323 . S
C291 C24 1.389 . S
C295 C82 1.494 . S
