# Generated by pormake.
# Topology soc, (4,6)-cn, num edge types: 1
# Building blocks:
#     Node 0, Type 0, BuildingBlock: ESEHIV_clean_sbu_0, # of connection points: 4
#     Node 1, Type 0, BuildingBlock: ESEHIV_clean_sbu_0, # of connection points: 4
#     Node 2, Type 0, BuildingBlock: ESEHIV_clean_sbu_0, # of connection points: 4
#     Node 3, Type 0, BuildingBlock: ESEHIV_clean_sbu_0, # of connection points: 4
#     Node 4, Type 0, BuildingBlock: ESEHIV_clean_sbu_0, # of connection points: 4
#     Node 5, Type 0, BuildingBlock: ESEHIV_clean_sbu_0, # of connection points: 4
#     Node 6, Type 0, BuildingBlock: ESEHIV_clean_sbu_0, # of connection points: 4
#     Node 7, Type 0, BuildingBlock: ESEHIV_clean_sbu_0, # of connection points: 4
#     Node 8, Type 0, BuildingBlock: ESEHIV_clean_sbu_0, # of connection points: 4
#     Node 9, Type 0, BuildingBlock: ESEHIV_clean_sbu_0, # of connection points: 4
#     Node 10, Type 0, BuildingBlock: ESEHIV_clean_sbu_0, # of connection points: 4
#     Node 11, Type 0, BuildingBlock: ESEHIV_clean_sbu_0, # of connection points: 4
#     Node 12, Type 1, BuildingBlock: PAMTUU_clean_sbu_0, # of connection points: 6
#     Node 13, Type 1, BuildingBlock: PAMTUU_clean_sbu_0, # of connection points: 6
#     Node 14, Type 1, BuildingBlock: PAMTUU_clean_sbu_0, # of connection points: 6
#     Node 15, Type 1, BuildingBlock: PAMTUU_clean_sbu_0, # of connection points: 6
#     Node 16, Type 1, BuildingBlock: PAMTUU_clean_sbu_0, # of connection points: 6
#     Node 17, Type 1, BuildingBlock: PAMTUU_clean_sbu_0, # of connection points: 6
#     Node 18, Type 1, BuildingBlock: PAMTUU_clean_sbu_0, # of connection points: 6
#     Node 19, Type 1, BuildingBlock: PAMTUU_clean_sbu_0, # of connection points: 6
#     Edge 20, Type (0, 1), BuildingBlock: OJICUG_clean_linker_0, # of connection points: 2
#     Edge 21, Type (0, 1), BuildingBlock: OJICUG_clean_linker_0, # of connection points: 2
#     Edge 22, Type (0, 1), BuildingBlock: OJICUG_clean_linker_0, # of connection points: 2
#     Edge 23, Type (0, 1), BuildingBlock: OJICUG_clean_linker_0, # of connection points: 2
#     Edge 24, Type (0, 1), BuildingBlock: OJICUG_clean_linker_0, # of connection points: 2
#     Edge 25, Type (0, 1), BuildingBlock: OJICUG_clean_linker_0, # of connection points: 2
#     Edge 26, Type (0, 1), BuildingBlock: OJICUG_clean_linker_0, # of connection points: 2
#     Edge 27, Type (0, 1), BuildingBlock: OJICUG_clean_linker_0, # of connection points: 2
#     Edge 28, Type (0, 1), BuildingBlock: OJICUG_clean_linker_0, # of connection points: 2
#     Edge 29, Type (0, 1), BuildingBlock: OJICUG_clean_linker_0, # of connection points: 2
#     Edge 30, Type (0, 1), BuildingBlock: OJICUG_clean_linker_0, # of connection points: 2
#     Edge 31, Type (0, 1), BuildingBlock: OJICUG_clean_linker_0, # of connection points: 2
#     Edge 32, Type (0, 1), BuildingBlock: OJICUG_clean_linker_0, # of connection points: 2
#     Edge 33, Type (0, 1), BuildingBlock: OJICUG_clean_linker_0, # of connection points: 2
#     Edge 34, Type (0, 1), BuildingBlock: OJICUG_clean_linker_0, # of connection points: 2
#     Edge 35, Type (0, 1), BuildingBlock: OJICUG_clean_linker_0, # of connection points: 2
#     Edge 36, Type (0, 1), BuildingBlock: OJICUG_clean_linker_0, # of connection points: 2
#     Edge 37, Type (0, 1), BuildingBlock: OJICUG_clean_linker_0, # of connection points: 2
#     Edge 38, Type (0, 1), BuildingBlock: OJICUG_clean_linker_0, # of connection points: 2
#     Edge 39, Type (0, 1), BuildingBlock: OJICUG_clean_linker_0, # of connection points: 2
#     Edge 40, Type (0, 1), BuildingBlock: OJICUG_clean_linker_0, # of connection points: 2
#     Edge 41, Type (0, 1), BuildingBlock: OJICUG_clean_linker_0, # of connection points: 2
#     Edge 42, Type (0, 1), BuildingBlock: OJICUG_clean_linker_0, # of connection points: 2
#     Edge 43, Type (0, 1), BuildingBlock: OJICUG_clean_linker_0, # of connection points: 2
#     Edge 44, Type (0, 1), BuildingBlock: OJICUG_clean_linker_0, # of connection points: 2
#     Edge 45, Type (0, 1), BuildingBlock: OJICUG_clean_linker_0, # of connection points: 2
#     Edge 46, Type (0, 1), BuildingBlock: OJICUG_clean_linker_0, # of connection points: 2
#     Edge 47, Type (0, 1), BuildingBlock: OJICUG_clean_linker_0, # of connection points: 2
#     Edge 48, Type (0, 1), BuildingBlock: OJICUG_clean_linker_0, # of connection points: 2
#     Edge 49, Type (0, 1), BuildingBlock: OJICUG_clean_linker_0, # of connection points: 2
#     Edge 50, Type (0, 1), BuildingBlock: OJICUG_clean_linker_0, # of connection points: 2
#     Edge 51, Type (0, 1), BuildingBlock: OJICUG_clean_linker_0, # of connection points: 2
#     Edge 52, Type (0, 1), BuildingBlock: OJICUG_clean_linker_0, # of connection points: 2
#     Edge 53, Type (0, 1), BuildingBlock: OJICUG_clean_linker_0, # of connection points: 2
#     Edge 54, Type (0, 1), BuildingBlock: OJICUG_clean_linker_0, # of connection points: 2
#     Edge 55, Type (0, 1), BuildingBlock: OJICUG_clean_linker_0, # of connection points: 2
#     Edge 56, Type (0, 1), BuildingBlock: OJICUG_clean_linker_0, # of connection points: 2
#     Edge 57, Type (0, 1), BuildingBlock: OJICUG_clean_linker_0, # of connection points: 2
#     Edge 58, Type (0, 1), BuildingBlock: OJICUG_clean_linker_0, # of connection points: 2
#     Edge 59, Type (0, 1), BuildingBlock: OJICUG_clean_linker_0, # of connection points: 2
#     Edge 60, Type (0, 1), BuildingBlock: OJICUG_clean_linker_0, # of connection points: 2
#     Edge 61, Type (0, 1), BuildingBlock: OJICUG_clean_linker_0, # of connection points: 2
#     Edge 62, Type (0, 1), BuildingBlock: OJICUG_clean_linker_0, # of connection points: 2
#     Edge 63, Type (0, 1), BuildingBlock: OJICUG_clean_linker_0, # of connection points: 2
#     Edge 64, Type (0, 1), BuildingBlock: OJICUG_clean_linker_0, # of connection points: 2
#     Edge 65, Type (0, 1), BuildingBlock: OJICUG_clean_linker_0, # of connection points: 2
#     Edge 66, Type (0, 1), BuildingBlock: OJICUG_clean_linker_0, # of connection points: 2
#     Edge 67, Type (0, 1), BuildingBlock: OJICUG_clean_linker_0, # of connection points: 2
# Relax obj value: 0.182
# Max RMSD: 0.309
# Mean RMSD: 0.177
data_MOF--net-soc--node1-ESEHIV_clean_sbu_0--node2-PAMTUU_clean_sbu_0--edge1-OJICUG_clean_linker_0
_symmetry_space_group_name_H-M    P1
_symmetry_Int_Tables_number       1
_symmetry_cell_setting            triclinic
loop_
_symmetry_equiv_pos_as_xyz
'x, y, z'
_cell_length_a     39.745936
_cell_length_b     39.108745
_cell_length_c     32.082872
_cell_angle_alpha  80.313576
_cell_angle_beta   79.548456
_cell_angle_gamma 65.893404
loop_
_atom_site_label
_atom_site_type_symbol
_atom_site_fract_x
_atom_site_fract_y
_atom_site_fract_z
_atom_type_partial_charge
Cu0 Cu 0.0532 0.06115 0.43477 0.0
N1 N 0.07217 0.07889 0.47174 0.0
N2 N 0.10545 0.10603 0.49209 0.0
C3 C 0.09542 0.09681 0.45892 0.0
C4 C 0.08769 0.0934 0.52727 0.0
C5 C 0.06729 0.07649 0.5146 0.0
O6 O 0.09598 0.02502 0.40245 0.0
C7 C 0.99174 0.10562 0.38803 0.0
O8 O 0.98866 0.07353 0.38749 0.0
H9 H 0.10445 0.10326 0.42573 0.0
H10 H 0.05048 0.06307 0.53521 0.0
N11 N 1.0253 0.03427 0.46411 0.0
N12 N 0.99781 0.99353 0.47245 0.0
C13 C 1.02423 0.00457 0.44949 0.0
C14 C 0.99881 0.04234 0.49786 0.0
C15 C 0.98193 0.01695 0.50332 0.0
C16 C 0.11644 0.99746 0.42616 0.0
O17 O 0.10718 0.99699 0.46766 0.0
H18 H 0.04156 0.99238 0.4213 0.0
H19 H 0.99098 0.06614 0.51571 0.0
O20 O 1.01953 0.10545 0.40285 0.0
H21 H 0.08976 0.09565 0.55981 0.0
H22 H 0.95843 0.01713 0.52655 0.0
Cu23 Cu 0.08169 0.04777 0.74269 0.0
N24 N 0.06233 0.02735 0.70885 0.0
N25 N 1.02585 0.00247 0.69106 0.0
C26 C 0.03387 0.01627 0.72219 0.0
C27 C 0.05042 0.005 0.65676 0.0
C28 C 0.07285 0.02034 0.66783 0.0
O29 O 0.03942 0.08451 0.77516 0.0
C30 C 0.14738 0.98602 0.75067 0.0
O31 O 0.14869 0.99482 0.7092 0.0
H32 H 1.01979 0.01778 0.75444 0.0
H33 H 0.09534 0.02579 0.64744 0.0
N34 N 0.10718 0.0761 0.71063 0.0
N35 N 0.13944 0.11262 0.70068 0.0
C36 C 0.12823 0.08804 0.72798 0.0
C37 C 0.10497 0.09357 0.6707 0.0
C38 C 0.12493 0.11621 0.66446 0.0
C39 C 1.01651 0.10996 0.75179 0.0
O40 O 1.02243 0.1076 0.71054 0.0
H41 H 0.13318 0.08059 0.76101 0.0
H42 H 0.08854 0.09156 0.64851 0.0
O43 O 0.1187 0.00591 0.77426 0.0
H44 H 0.05197 0.99665 0.62574 0.0
H45 H 0.12762 0.13465 0.63598 0.0
Cu46 Cu 0.30218 0.08996 0.13809 0.0
N47 N 0.26057 0.08508 0.12471 0.0
N48 N 0.23221 0.05386 0.10206 0.0
C49 C 0.26003 0.05126 0.12254 0.0
C50 C 0.21415 0.09106 0.09101 0.0
C51 C 0.23163 0.11032 0.10525 0.0
O52 O 0.33017 0.03843 0.16426 0.0
C53 C 0.30947 0.14255 0.06919 0.0
O54 O 0.28066 0.16489 0.09242 0.0
H55 H 0.28212 0.02489 0.13151 0.0
H56 H 0.22551 0.14015 0.09871 0.0
N57 N 0.2888 0.12515 0.17815 0.0
N58 N 0.29174 0.161 0.22406 0.0
C59 C 0.31046 0.13884 0.19233 0.0
C60 C 0.25529 0.13969 0.20125 0.0
C61 C 0.25708 0.16151 0.22967 0.0
C62 C 0.31798 0.02943 0.20249 0.0
O63 O 0.29173 0.05592 0.2237 0.0
H64 H 0.33956 0.13179 0.18062 0.0
H65 H 0.23145 0.13393 0.19839 0.0
O66 O 0.3253 0.10796 0.08359 0.0
H67 H 0.19165 0.10321 0.07154 0.0
H68 H 0.23462 0.17659 0.2528 0.0
Cu69 Cu 0.0938 0.33331 0.15726 0.0
N70 N 0.11133 0.35859 0.10835 0.0
N71 N 0.14497 0.36518 0.04549 0.0
C72 C 0.13749 0.34083 0.07726 0.0
C73 C 0.12261 0.39974 0.05719 0.0
C74 C 0.10175 0.3956 0.09578 0.0
O75 O 0.13037 0.31907 0.19868 0.0
C76 C 0.06489 0.30753 0.10459 0.0
O77 O 0.0535 0.34378 0.09226 0.0
H78 H 0.15103 0.31048 0.07825 0.0
H79 H 0.08106 0.41797 0.11334 0.0
N80 N 0.04591 0.36128 0.18385 0.0
N81 N 0.98816 0.37137 0.21702 0.0
C82 C 1.0199 0.34665 0.19775 0.0
C83 C 0.03016 0.3967 0.19489 0.0
C84 C 0.99461 0.40296 0.21541 0.0
C85 C 0.13853 0.34569 0.20659 0.0
O86 O 0.12162 0.37966 0.18792 0.0
H87 H 1.02459 0.31788 0.19463 0.0
H88 H 0.04357 0.41648 0.18883 0.0
O89 O 0.08543 0.29387 0.13473 0.0
H90 H 0.12103 0.42615 0.03893 0.0
H91 H 0.97501 0.42886 0.22787 0.0
Cu92 Cu 0.80408 0.01665 0.04052 0.0
N93 N 0.83183 0.03963 1.0019 0.0
N94 N 0.84377 0.08684 0.9615 0.0
C95 C 0.82132 0.07725 0.99373 0.0
C96 C 0.86957 0.05389 0.94877 0.0
C97 C 0.86222 0.02473 0.97393 0.0
O98 O 0.77142 0.05688 0.07629 0.0
C99 C 0.78145 0.99831 0.96897 0.0
O100 O 0.79021 0.02572 0.94715 0.0
H101 H 0.79646 0.09729 1.00963 0.0
H102 H 0.87705 0.99493 0.97098 0.0
N103 N 0.83324 0.97799 0.07767 0.0
N104 N 0.84622 0.93959 0.13792 0.0
C105 C 0.81934 0.96328 0.11431 0.0
C106 C 0.87033 0.96292 0.07781 0.0
C107 C 0.87842 0.93917 0.115 0.0
C108 C 0.78896 0.06454 0.10076 0.0
O109 O 0.82477 0.04491 0.10057 0.0
H110 H 0.78986 0.97109 0.12419 0.0
H111 H 0.88995 0.96965 0.05336 0.0
O112 O 0.782 0.99285 1.00936 0.0
H113 H 0.8917 0.0511 0.92267 0.0
H114 H 0.90585 0.92291 0.12438 0.0
Cu115 Cu 0.04769 0.80178 0.0333 0.0
N116 N 1.01432 0.81541 0.99246 0.0
N117 N 0.97463 0.81762 0.9494 0.0
C118 C 0.99626 0.79665 0.9801 0.0
C119 C 0.97909 0.85058 0.94269 0.0
C120 C 1.00319 0.84921 0.96923 0.0
O121 O 0.03013 0.77695 0.08737 0.0
C122 C 0.11106 0.78624 0.96866 0.0
O123 O 0.08542 0.80838 0.94463 0.0
H124 H 0.99909 0.76833 0.99301 0.0
H125 H 1.01221 0.8714 0.97139 0.0
N126 N 0.04662 0.84592 0.04912 0.0
N127 N 0.06922 0.88205 0.07223 0.0
C128 C 0.07717 0.85173 0.05179 0.0
C129 C 1.01804 0.8738 0.06813 0.0
C130 C 0.03198 0.89609 0.0827 0.0
C131 C 0.99521 0.78693 0.09984 0.0
O132 O 0.97152 0.81104 0.07466 0.0
H133 H 0.10509 0.83192 0.04277 0.0
H134 H 0.98955 0.87611 0.07377 0.0
O135 O 0.10074 0.77675 1.00761 0.0
H136 H 0.96542 0.87431 0.92042 0.0
H137 H 1.01632 0.91919 0.10188 0.0
Cu138 Cu 0.56839 0.54456 0.9286 0.0
N139 N 0.58105 0.57199 0.96111 0.0
N140 N 0.6065 0.60938 0.97595 0.0
C141 C 0.6097 0.58319 0.95118 0.0
C142 C 0.5747 0.61474 1.00249 0.0
C143 C 0.55897 0.59192 0.99305 0.0
O144 O 0.61365 0.50963 0.89784 0.0
C145 C 0.50011 0.58257 0.88872 0.0
O146 O 0.49515 0.55085 0.89778 0.0
H147 H 0.63085 0.57449 0.92423 0.0
H148 H 0.53192 0.59211 1.00637 0.0
N149 N 0.547 0.51351 0.96308 0.0
N150 N 0.52131 0.47098 0.97718 0.0
C151 C 0.54147 0.48644 0.94805 0.0
C152 C 0.5311 0.51431 1.00388 0.0
C153 C 0.51512 0.48808 1.01266 0.0
C154 C 0.6387 0.48785 0.92111 0.0
O155 O 0.63336 0.49245 0.96177 0.0
H156 H 0.55051 0.47973 0.91545 0.0
H157 H 0.52978 0.53347 1.02531 0.0
O158 O 0.53056 0.58352 0.8951 0.0
H159 H 0.56275 0.63497 1.02575 0.0
H160 H 0.4983 0.48371 0.04198 0.0
Cu161 Cu 0.56778 0.57081 0.25233 0.0
N162 N 0.54632 0.54992 0.22162 0.0
N163 N 0.51365 0.51833 0.20938 0.0
C164 C 0.52113 0.53491 0.23835 0.0
C165 C 0.53502 0.52344 0.17294 0.0
C166 C 0.55512 0.54278 0.18061 0.0
O167 O 0.52844 0.61028 0.28418 0.0
C168 C 0.63072 0.50761 0.25948 0.0
O169 O 0.62961 0.51528 0.21816 0.0
H170 H 0.50923 0.53562 0.27144 0.0
H171 H 0.57589 0.54961 0.15827 0.0
N172 N 0.59563 0.59528 0.21712 0.0
N173 N 0.63588 0.62333 0.20221 0.0
C174 C 0.62106 0.60291 0.23179 0.0
C175 C 0.59406 0.61146 0.17662 0.0
C176 C 0.61897 0.62888 0.16731 0.0
C177 C 0.50746 0.63654 0.25976 0.0
O178 O 0.51298 0.63238 0.21896 0.0
H179 H 0.62729 0.59491 0.26436 0.0
H180 H 0.57536 0.61173 0.15583 0.0
O181 O 0.60414 0.52897 0.28406 0.0
H182 H 0.53732 0.51267 0.14317 0.0
H183 H 0.6238 0.6448 0.13748 0.0
Cu184 Cu 0.85138 0.58296 0.64424 0.0
N185 N 0.88507 0.59142 0.59895 0.0
N186 N 0.9035 0.61078 0.53254 0.0
C187 C 0.87435 0.61231 0.56228 0.0
C188 C 0.93394 0.58836 0.55147 0.0
C189 C 0.92246 0.57615 0.59241 0.0
O190 O 0.83176 0.62646 0.67836 0.0
C191 C 0.83401 0.5472 0.59065 0.0
O192 O 0.87046 0.5318 0.58665 0.0
H193 H 0.84551 0.62781 0.5574 0.0
H194 H 0.9401 0.55666 0.61517 0.0
N195 N 0.87311 0.53836 0.67902 0.0
N196 N 0.87984 0.4821 0.71512 0.0
C197 C 0.85789 0.51264 0.69196 0.0
C198 C 0.90579 0.52396 0.69481 0.0
C199 C 0.91005 0.48926 0.71704 0.0
C200 C 0.85542 0.63819 0.68645 0.0
O201 O 0.89059 0.6205 0.67231 0.0
H202 H 0.831 0.51654 0.68451 0.0
H203 H 0.92525 0.53751 0.69026 0.0
O204 O 0.81683 0.57254 0.61626 0.0
H205 H 0.96236 0.58037 0.53639 0.0
H206 H 0.93392 0.47064 0.73275 0.0
Cu207 Cu 0.61116 0.80663 0.63926 0.0
N208 N 0.65503 0.77742 0.60469 0.0
N209 N 0.70308 0.76458 0.55147 0.0
C210 C 0.66887 0.78946 0.56566 0.0
C211 C 0.71095 0.7358 0.58295 0.0
C212 C 0.68153 0.74373 0.61543 0.0
O213 O 0.62871 0.83383 0.67116 0.0
C214 C 0.57205 0.81745 0.57455 0.0
O215 O 0.59332 0.78139 0.57576 0.0
H216 H 0.65483 0.81678 0.54888 0.0
H217 H 0.68022 0.72671 0.64549 0.0
N218 N 0.58365 0.78125 0.67754 0.0
N219 N 0.53363 0.77446 0.71888 0.0
C220 C 0.5459 0.79436 0.68525 0.0
C221 C 0.59554 0.75164 0.70717 0.0
C222 C 0.56496 0.74757 0.73267 0.0
C223 C 0.6247 0.83255 0.71178 0.0
O224 O 0.60193 0.81797 0.73463 0.0
H225 H 0.52771 0.81937 0.66799 0.0
H226 H 0.62439 0.73536 0.71143 0.0
O227 O 0.57581 0.83714 0.59992 0.0
H228 H 0.73653 0.71093 0.5829 0.0
H229 H 0.56576 0.7268 0.75984 0.0
Cu230 Cu 0.29376 0.53457 0.54079 0.0
N231 N 0.32053 0.56136 0.50514 0.0
N232 N 0.33005 0.61015 0.46396 0.0
C233 C 0.31038 0.59931 0.49889 0.0
C234 C 0.35353 0.57781 0.44777 0.0
C235 C 0.34769 0.54795 0.47312 0.0
O236 O 0.25191 0.57432 0.56859 0.0
C237 C 0.26229 0.48816 0.51194 0.0
O238 O 0.24362 0.48783 0.55013 0.0
H239 H 0.28717 0.61879 0.51757 0.0
H240 H 0.3606 0.51871 0.46695 0.0
N241 N 0.32124 0.49915 0.58306 0.0
N242 N 0.33514 0.45607 0.64059 0.0
C243 C 0.3115 0.47345 0.61078 0.0
C244 C 0.35267 0.49725 0.5951 0.0
C245 C 0.36132 0.4709 0.63019 0.0
C246 C 0.24073 0.57231 0.60837 0.0
O247 O 0.24639 0.53915 0.6297 0.0
H248 H 0.28638 0.46914 0.61049 0.0
H249 H 0.36765 0.51474 0.58021 0.0
O250 O 0.28229 0.50752 0.50277 0.0
H251 H 0.37261 0.576 0.41869 0.0
H252 H 0.38489 0.46386 0.64705 0.0
Cu253 Cu 0.53945 0.27997 0.54413 0.0
N254 N 0.58406 0.25391 0.51059 0.0
N255 N 0.63944 0.24433 0.47149 0.0
C256 C 0.61235 0.26567 0.49935 0.0
C257 C 0.62768 0.21805 0.46475 0.0
C258 C 0.59357 0.22396 0.48899 0.0
O259 O 0.55246 0.31502 0.56978 0.0
C260 C 0.4845 0.27587 0.50197 0.0
O261 O 0.49887 0.24111 0.51976 0.0
H262 H 0.6122 0.29067 0.50969 0.0
H263 H 0.57643 0.20832 0.48969 0.0
N264 N 0.52679 0.24982 0.59139 0.0
N265 N 0.4997 0.23578 0.6558 0.0
C266 C 0.50362 0.26344 0.62641 0.0
C267 C 0.53821 0.21211 0.59893 0.0
C268 C 0.52125 0.20339 0.63849 0.0
C269 C 0.57586 0.29795 0.59674 0.0
O270 O 0.58726 0.26119 0.60468 0.0
H271 H 0.48947 0.29322 0.62993 0.0
H272 H 0.55735 0.19241 0.57716 0.0
O273 O 0.49787 0.29935 0.50786 0.0
H274 H 0.64234 0.19651 0.4433 0.0
H275 H 0.52469 0.17541 0.65345 0.0
Tb276 Tb 0.32511 0.33498 0.31833 0.0
Tb277 Tb 0.28679 0.29433 0.40145 0.0
C278 C 0.24755 0.32887 0.31776 0.0
C279 C 0.37713 0.38935 0.25008 0.0
C280 C 0.42144 0.43224 0.23715 0.0
C281 C 0.39367 0.44033 0.21101 0.0
C282 C 0.37184 0.41904 0.21738 0.0
C283 C 0.40451 0.38128 0.27657 0.0
C284 C 0.42655 0.4024 0.27005 0.0
C285 C 0.35344 0.36767 0.25626 0.0
O286 O 0.30935 0.37182 0.36838 0.0
O287 O 0.26496 0.35399 0.41087 0.0
O288 O 0.33485 0.2963 0.42371 0.0
O289 O 0.36865 0.3086 0.36079 0.0
O290 O 0.23957 0.29686 0.44446 0.0
O291 O 0.29187 0.24942 0.44966 0.0
O292 O 0.3191 0.2499 0.36015 0.0
O293 O 0.32662 0.28441 0.29626 0.0
O294 O 0.26744 0.3498 0.30734 0.0
O295 O 0.25359 0.30285 0.35045 0.0
C296 C 0.28218 0.37722 0.3999 0.0
O297 O 0.36875 0.33181 0.26923 0.0
O298 O 0.3201 0.3836 0.27608 0.0
C299 C 0.36513 0.29988 0.4025 0.0
C300 C 0.23712 0.2376 0.46775 0.0
C301 C 0.19704 0.1909 0.47743 0.0
C302 C 0.20913 0.19731 0.51293 0.0
C303 C 0.22893 0.2205 0.50809 0.0
C304 C 0.22578 0.23085 0.4321 0.0
C305 C 0.20584 0.20783 0.43689 0.0
C306 C 0.25644 0.26328 0.46332 0.0
C307 C 0.32543 0.25327 0.31824 0.0
H308 H 0.38839 0.46345 0.1859 0.0
H309 H 0.35064 0.42591 0.19683 0.0
H310 H 0.40895 0.35859 0.30219 0.0
H311 H 0.44792 0.39499 0.29049 0.0
H312 H 0.2034 0.18432 0.54449 0.0
H313 H 0.23761 0.22533 0.53593 0.0
H314 H 0.23184 0.24388 0.40065 0.0
H315 H 0.1966 0.20404 0.4089 0.0
Tb316 Tb 0.80715 0.29531 0.29474 0.0
Tb317 Tb 0.81135 0.32766 0.38268 0.0
C318 C 0.75758 0.37768 0.31551 0.0
C319 C 0.79101 0.24237 0.2163 0.0
C320 C 0.77542 0.1871 0.18535 0.0
C321 C 0.75443 0.22575 0.1758 0.0
C322 C 0.76222 0.25299 0.19101 0.0
C323 C 0.81142 0.20383 0.22685 0.0
C324 C 0.80377 0.17659 0.21151 0.0
C325 C 0.80069 0.27186 0.22868 0.0
O326 O 0.85526 0.31077 0.28142 0.0
O327 O 0.83965 0.35361 0.33012 0.0
O328 O 0.8599 0.27491 0.37542 0.0
O329 O 0.83948 0.246 0.33448 0.0
O330 O 0.84128 0.34051 0.42128 0.0
O331 O 0.78416 0.34845 0.44141 0.0
O332 O 0.78472 0.28747 0.40337 0.0
O333 O 0.76204 0.29011 0.34144 0.0
O334 O 0.7804 0.35644 0.28632 0.0
O335 O 0.7616 0.36824 0.35609 0.0
C336 C 0.86044 0.33752 0.29616 0.0
O337 O 0.77404 0.29849 0.24869 0.0
O338 O 0.83189 0.26125 0.24442 0.0
C339 C 0.86351 0.24495 0.3585 0.0
C340 C 0.80634 0.387 0.46876 0.0
C341 C 0.79863 0.45112 0.5059 0.0
C342 C 0.8018 0.41711 0.53125 0.0
C343 C 0.80559 0.38552 0.51286 0.0
C344 C 0.80193 0.42107 0.44328 0.0
C345 C 0.79809 0.45285 0.46168 0.0
C346 C 0.81299 0.35217 0.45055 0.0
C347 C 0.76139 0.28255 0.38296 0.0
H348 H 0.73217 0.23505 0.15621 0.0
H349 H 0.7461 0.28251 0.18229 0.0
H350 H 0.8339 0.19462 0.24611 0.0
H351 H 0.82111 0.14723 0.21901 0.0
H352 H 0.80304 0.41427 0.56516 0.0
H353 H 0.80894 0.35948 0.53311 0.0
H354 H 0.80217 0.42289 0.40916 0.0
H355 H 0.79533 0.47859 0.44115 0.0
Tb356 Tb 0.88291 0.78311 0.35989 0.0
Tb357 Tb 0.83719 0.75658 0.30423 0.0
C358 C 0.88594 0.70203 0.37265 0.0
C359 C 0.9307 0.82658 0.41457 0.0
C360 C 0.95373 0.88124 0.43215 0.0
C361 C 0.96133 0.84698 0.45831 0.0
C362 C 0.94989 0.81992 0.44956 0.0
C363 C 0.92378 0.86025 0.38761 0.0
C364 C 0.93532 0.88739 0.39629 0.0
C365 C 0.91519 0.79956 0.40969 0.0
O366 O 0.91299 0.78383 0.29567 0.0
O367 O 0.89308 0.74502 0.26937 0.0
O368 O 0.83241 0.81207 0.27485 0.0
O369 O 0.8535 0.8353 0.32181 0.0
O370 O 0.83889 0.71449 0.26999 0.0
O371 O 0.79235 0.76871 0.27063 0.0
O372 O 0.7961 0.77729 0.35976 0.0
O373 O 0.83694 0.77452 0.40382 0.0
O374 O 0.90628 0.72212 0.3627 0.0
O375 O 0.85456 0.71285 0.35676 0.0
C376 C 0.91473 0.76382 0.26556 0.0
O377 O 0.87928 0.81305 0.40978 0.0
O378 O 0.93275 0.77587 0.38126 0.0
C379 C 0.83863 0.83914 0.28693 0.0
C380 C 0.78276 0.71849 0.24974 0.0
C381 C 0.73489 0.68662 0.23441 0.0
C382 C 0.75398 0.70175 0.20033 0.0
C383 C 0.77767 0.71753 0.20798 0.0
C384 C 0.76406 0.70334 0.2841 0.0
C385 C 0.74026 0.68738 0.27645 0.0
C386 C 0.80749 0.73607 0.25551 0.0
C387 C 0.80394 0.77706 0.39808 0.0
H388 H 0.97599 0.84116 0.4857 0.0
H389 H 0.95527 0.79409 0.47078 0.0
H390 H 0.90866 0.8659 0.36065 0.0
H391 H 0.92885 0.91362 0.3757 0.0
H392 H 0.75091 0.70106 0.16765 0.0
H393 H 0.79207 0.72909 0.18113 0.0
H394 H 0.76772 0.70404 0.31655 0.0
H395 H 0.72565 0.67616 0.30335 0.0
Tb396 Tb 0.33277 0.83179 0.3769 0.0
Tb397 Tb 0.29981 0.81802 0.29719 0.0
C398 C 0.24919 0.87344 0.36418 0.0
C399 C 0.38414 0.84799 0.45712 0.0
C400 C 0.44501 0.84278 0.49474 0.0
C401 C 0.4125 0.87578 0.49516 0.0
C402 C 0.38237 0.87826 0.47659 0.0
C403 C 0.416 0.8146 0.45733 0.0
C404 C 0.44615 0.81191 0.47632 0.0
C405 C 0.35402 0.85427 0.43278 0.0
O406 O 0.33196 0.77628 0.39838 0.0
O407 O 0.2981 0.77317 0.34851 0.0
O408 O 0.35498 0.77452 0.29587 0.0
O409 O 0.38227 0.79206 0.34205 0.0
O410 O 0.25671 0.80893 0.27829 0.0
O411 O 0.30302 0.81178 0.23253 0.0
O412 O 0.32616 0.85728 0.26861 0.0
O413 O 0.32033 0.8816 0.33036 0.0
O414 O 0.27256 0.85308 0.3915 0.0
O415 O 0.25773 0.86848 0.32362 0.0
C416 C 0.31482 0.75931 0.38334 0.0
O417 O 0.3605 0.86247 0.39191 0.0
O418 O 0.33606 0.83197 0.44186 0.0
C419 C 0.38388 0.77047 0.31357 0.0
C420 C 0.24479 0.83234 0.20748 0.0
C421 C 0.18909 0.86902 0.15336 0.0
C422 C 0.21953 0.83576 0.14291 0.0
C423 C 0.24705 0.81763 0.16977 0.0
C424 C 0.21598 0.8669 0.2167 0.0
C425 C 0.18828 0.88511 0.18981 0.0
C426 C 0.27071 0.80938 0.23822 0.0
C427 C 0.32646 0.88373 0.28863 0.0
H428 H 0.41072 0.9002 0.50852 0.0
H429 H 0.35805 0.90445 0.47611 0.0
H430 H 0.41786 0.7911 0.44204 0.0
H431 H 0.47047 0.78576 0.47622 0.0
H432 H 0.22093 0.82221 0.11549 0.0
H433 H 0.26916 0.79103 0.16213 0.0
H434 H 0.21401 0.87892 0.24555 0.0
H435 H 0.16549 0.91093 0.19845 0.0
Tb436 Tb 0.31351 0.77267 0.7983 0.0
Tb437 Tb 0.32254 0.80516 0.88229 0.0
C438 C 0.27208 0.8562 0.81342 0.0
C439 C 0.28292 0.72757 0.72438 0.0
C440 C 0.25348 0.68275 0.69455 0.0
C441 C 0.24046 0.72182 0.68262 0.0
C442 C 0.25512 0.74391 0.69727 0.0
C443 C 0.29483 0.68886 0.73796 0.0
C444 C 0.28027 0.6667 0.72318 0.0
C445 C 0.30096 0.75089 0.73489 0.0
O446 O 0.36548 0.78069 0.77721 0.0
O447 O 0.37007 0.80647 0.83476 0.0
O448 O 0.36798 0.75036 0.87883 0.0
O449 O 0.34505 0.72298 0.83895 0.0
O450 O 0.32907 0.84951 0.90339 0.0
O451 O 0.3251 0.80259 0.94789 0.0
O452 O 0.28184 0.77978 0.90764 0.0
O453 O 0.26478 0.77519 0.84461 0.0
O454 O 0.2958 0.83358 0.78616 0.0
O455 O 0.27387 0.84668 0.85428 0.0
C456 C 0.38318 0.79412 0.79672 0.0
O457 O 0.27922 0.782 0.75125 0.0
O458 O 0.33131 0.73389 0.75291 0.0
C459 C 0.37006 0.72092 0.86229 0.0
C460 C 0.30228 0.86264 0.97359 0.0
C461 C 0.26237 0.92211 1.02504 0.0
C462 C 0.29616 0.8935 0.03576 0.0
C463 C 0.31587 0.86413 1.01025 0.0
C464 C 0.26744 0.88961 0.96415 0.0
C465 C 0.24763 0.91912 0.98969 0.0
C466 C 0.32685 0.83568 0.94332 0.0
C467 C 0.25879 0.77508 0.88645 0.0
H468 H 0.21953 0.73522 0.66111 0.0
H469 H 0.24548 0.77372 0.68635 0.0
H470 H 0.31626 0.67542 0.75884 0.0
H471 H 0.29136 0.63665 0.73264 0.0
H472 H 0.30872 0.89498 0.06231 0.0
H473 H 0.34275 0.84364 1.01798 0.0
H474 H 0.25637 0.88883 0.936 0.0
H475 H 0.22147 0.94033 0.98086 0.0
Tb476 Tb 0.34227 0.31236 0.88032 0.0
Tb477 Tb 0.30352 0.27787 0.82422 0.0
C478 C 0.32964 0.23454 0.91321 0.0
C479 C 0.39138 0.35507 0.93518 0.0
C480 C 0.43988 0.38711 0.94832 0.0
C481 C 0.40872 0.38913 0.97819 0.0
C482 C 0.38476 0.37322 0.97164 0.0
C483 C 0.42229 0.35293 0.90501 0.0
C484 C 0.44642 0.36892 0.91153 0.0
C485 C 0.36599 0.33774 0.93081 0.0
O486 O 0.38828 0.28571 0.83233 0.0
O487 O 0.3617 0.25748 0.79774 0.0
O488 O 0.30042 0.33334 0.79153 0.0
O489 O 0.34416 0.34472 0.8187 0.0
O490 O 0.30656 0.2375 0.78665 0.0
O491 O 0.25768 0.28949 0.79205 0.0
O492 O 0.2641 0.2949 0.88118 0.0
O493 O 0.28198 0.34054 0.8929 0.0
O494 O 0.33939 0.26173 0.91844 0.0
O495 O 0.31664 0.23411 0.87831 0.0
C496 C 0.38986 0.26509 0.80293 0.0
O497 O 0.33767 0.35821 0.9102 0.0
O498 O 0.38073 0.30279 0.92218 0.0
C499 C 0.32273 0.35124 0.78914 0.0
C500 C 0.25156 0.23874 0.76646 0.0
C501 C 0.21291 0.19848 0.74618 0.0
C502 C 0.22547 0.22157 0.71447 0.0
C503 C 0.24448 0.24151 0.72459 0.0
C504 C 0.23895 0.21612 0.79857 0.0
C505 C 0.21964 0.19615 0.78849 0.0
C506 C 0.27416 0.25817 0.77417 0.0
C507 C 0.25853 0.32377 0.90111 0.0
H508 H 0.40244 0.40359 1.00635 0.0
H509 H 0.36095 0.37508 0.99521 0.0
H510 H 0.4278 0.33883 0.87671 0.0
H511 H 0.47029 0.3668 0.88804 0.0
H512 H 0.2215 0.22353 0.68151 0.0
H513 H 0.25442 0.2586 0.69935 0.0
H514 H 0.24438 0.21359 0.83108 0.0
H515 H 0.20999 0.17894 0.81378 0.0
Tb516 Tb 0.85195 0.30065 0.88083 0.0
Tb517 Tb 0.80788 0.29692 0.80176 0.0
C518 C 0.76811 0.35607 0.86905 0.0
C519 C 0.91394 0.28975 0.96719 0.0
C520 C 0.9712 0.2731 1.01848 0.0
C521 C 0.93355 0.29174 0.03428 0.0
C522 C 0.90536 0.29999 1.00892 0.0
C523 C 0.95124 0.26867 0.9524 0.0
C524 C 0.97948 0.26039 0.97778 0.0
C525 C 0.88502 0.30751 0.93779 0.0
O526 O 0.82618 0.26047 0.90608 0.0
O527 O 0.81975 0.24426 0.84306 0.0
O528 O 0.86738 0.26263 0.78666 0.0
O529 O 0.88906 0.24946 0.85232 0.0
O530 O 0.7683 0.28075 0.78531 0.0
O531 O 0.8 0.30473 0.73651 0.0
O532 O 0.81832 0.34851 0.78591 0.0
O533 O 0.86851 0.33021 0.8225 0.0
O534 O 0.80022 0.35079 0.88056 0.0
O535 O 0.76477 0.33312 0.84588 0.0
C536 C 0.82223 0.23705 0.88416 0.0
O537 O 0.89609 0.30974 0.89706 0.0
O538 O 0.85424 0.3018 0.94624 0.0
C539 C 0.8925 0.24228 0.81272 0.0
C540 C 0.74093 0.30878 0.72105 0.0
C541 C 0.67842 0.32529 0.67796 0.0
C542 C 0.71485 0.31198 0.65641 0.0
C543 C 0.7456 0.3038 0.67771 0.0
C544 C 0.70454 0.3244 0.742 0.0
C545 C 0.67372 0.33262 0.72071 0.0
C546 C 0.77392 0.29146 0.74483 0.0
C547 C 0.84739 0.35308 0.79414 0.0
H548 H 0.92588 0.30242 0.06512 0.0
H549 H 0.87696 0.31664 1.02099 0.0
H550 H 0.95886 0.26034 0.92037 0.0
H551 H 1.00802 0.24544 0.9647 0.0
H552 H 0.71992 0.3055 0.62378 0.0
H553 H 0.77327 0.29143 0.66084 0.0
H554 H 0.6999 0.3286 0.77542 0.0
H555 H 0.6462 0.34344 0.7383 0.0
Tb556 Tb 0.81768 0.8447 0.78729 0.0
Tb557 Tb 0.78597 0.80033 0.87248 0.0
C558 C 0.73862 0.84115 0.79512 0.0
C559 C 0.86734 0.90022 0.71886 0.0
C560 C 0.91624 0.93783 0.70832 0.0
C561 C 0.90516 0.93042 0.67268 0.0
C562 C 0.88098 0.91174 0.67795 0.0
C563 C 0.87757 0.90823 0.75457 0.0
C564 C 0.90177 0.92688 0.74936 0.0
C565 C 0.8449 0.87743 0.72398 0.0
O566 O 0.78797 0.88719 0.83233 0.0
O567 O 0.78424 0.85032 0.89571 0.0
O568 O 0.84432 0.78667 0.87972 0.0
O569 O 0.85551 0.83348 0.83301 0.0
O570 O 0.74579 0.80003 0.92484 0.0
O571 O 0.79435 0.74946 0.9116 0.0
O572 O 0.79512 0.76739 0.82005 0.0
O573 O 0.83853 0.7853 0.77595 0.0
O574 O 0.76809 0.84294 0.77016 0.0
O575 O 0.73845 0.83247 0.83674 0.0
C576 C 0.78247 0.88271 0.87441 0.0
O577 O 0.86146 0.84238 0.73884 0.0
O578 O 0.81079 0.89223 0.74234 0.0
C579 C 0.86442 0.80687 0.86471 0.0
C580 C 0.73875 0.74145 0.94032 0.0
C581 C 0.69575 0.69742 0.95208 0.0
C582 C 0.73024 0.68322 0.96775 0.0
C583 C 0.75143 0.70512 0.96208 0.0
C584 C 0.70442 0.75561 0.92424 0.0
C585 C 0.68304 0.73386 0.93031 0.0
C586 C 0.76203 0.76366 0.93428 0.0
C587 C 0.82076 0.76253 0.78699 0.0
H588 H 0.91533 0.93889 0.64065 0.0
H589 H 0.87348 0.90566 0.65004 0.0
H590 H 0.86754 0.89924 0.78646 0.0
H591 H 0.91002 0.93165 0.77751 0.0
H592 H 0.74059 0.65538 0.98495 0.0
H593 H 0.77783 0.69363 0.97469 0.0
H594 H 0.69411 0.78339 0.90691 0.0
H595 H 0.65675 0.74537 0.91747 0.0
C596 C 0.1253 0.14844 0.52159 0.0
C597 C 0.12968 0.12566 0.48985 0.0
H598 H 0.14244 0.18742 0.54226 0.0
C599 C 0.1575 0.12317 0.45509 0.0
H600 H 0.10397 0.15118 0.5486 0.0
C601 C 0.17978 0.14366 0.45157 0.0
C602 C 0.17472 0.16738 0.4826 0.0
H603 H 0.16219 0.10524 0.43058 0.0
H604 H 0.20105 0.14083 0.42446 0.0
C605 C 0.14746 0.16916 0.51795 0.0
C606 C 0.9579 0.17581 0.38938 0.0
C607 C 0.96026 0.14175 0.37766 0.0
H608 H 0.92558 0.23469 0.39322 0.0
C609 C 0.93062 0.14205 0.35911 0.0
H610 H 0.98002 0.17666 0.40402 0.0
C611 C 0.8993 0.17541 0.35287 0.0
C612 C 0.89657 0.20931 0.36546 0.0
H613 H 0.93138 0.11636 0.34978 0.0
H614 H 0.87705 0.17448 0.33858 0.0
C615 C 0.92642 0.20909 0.38355 0.0
C616 C 0.99131 0.95758 0.42019 0.0
C617 C 0.98638 0.9656 0.46255 0.0
H618 H 0.98515 0.9246 0.37747 0.0
C619 C 0.97009 0.94604 0.49482 0.0
H620 H 1.00312 0.9726 0.39441 0.0
C621 C 0.95944 0.91869 0.48497 0.0
C622 C 0.96466 0.91052 0.44261 0.0
H623 H 0.96603 0.95155 0.5277 0.0
H624 H 0.94681 0.90415 0.5105 0.0
C625 C 0.98056 0.93039 0.41034 0.0
C626 C 0.1722 0.93808 0.4376 0.0
C627 C 0.14982 0.96579 0.40898 0.0
H628 H 0.22037 0.88758 0.44619 0.0
C629 C 0.15971 0.96222 0.36509 0.0
H630 H 0.16556 0.93968 0.47167 0.0
C631 C 0.19147 0.93175 0.35034 0.0
C632 C 0.21405 0.90439 0.3792 0.0
H633 H 0.14304 0.98293 0.34219 0.0
H634 H 0.19864 0.92998 0.31633 0.0
C635 C 0.2038 0.90796 0.42297 0.0
C636 C 0.18108 0.94344 0.81197 0.0
C637 C 0.17933 0.95359 0.76799 0.0
H638 H 0.21186 0.90506 0.86094 0.0
C639 C 0.20905 0.93225 0.73949 0.0
H640 H 0.15884 0.95925 0.83483 0.0
C641 C 0.2393 0.90139 0.75429 0.0
C642 C 0.241 0.89083 0.79813 0.0
H643 H 0.20894 0.93911 0.70536 0.0
H644 H 0.26122 0.88553 0.73115 0.0
C645 C 0.21162 0.91244 0.82688 0.0
C646 C 0.18372 0.11819 0.74143 0.0
C647 C 0.15884 0.13367 0.71075 0.0
H648 H 0.22055 0.12616 0.77632 0.0
C649 C 0.15183 0.17061 0.69182 0.0
H650 H 0.19002 0.08963 0.7562 0.0
C651 C 0.16895 0.19176 0.70373 0.0
C652 C 0.19378 0.17634 0.73456 0.0
H653 H 0.13234 0.18355 0.66863 0.0
H654 H 0.16227 0.22044 0.68916 0.0
C655 C 0.20104 0.13923 0.75316 0.0
C656 C 0.9794 0.15075 0.81126 0.0
C657 C 0.9846 0.143 0.76881 0.0
H658 H 0.94657 0.18825 0.85843 0.0
C659 C 0.95941 0.16833 0.74116 0.0
H660 H 0.99828 0.13199 0.83336 0.0
C661 C 0.93 0.2005 0.75531 0.0
C662 C 0.92477 0.20855 0.79759 0.0
H663 H 0.96236 0.16343 0.70821 0.0
H664 H 0.91131 0.21906 0.73289 0.0
C665 C 0.94984 0.18319 0.82548 0.0
C666 C 0.96649 0.99791 0.72555 0.0
C667 C 0.99769 0.98735 0.69433 0.0
H668 H 0.91617 0.99122 0.75399 0.0
C669 C 1.00119 0.96121 0.66693 0.0
H670 H 0.96242 0.01847 0.74669 0.0
C671 C 0.97458 0.94559 0.67111 0.0
C672 C 0.94372 0.9557 0.70277 0.0
H673 H 1.02498 0.95203 0.64287 0.0
H674 H 0.97876 0.9248 0.65017 0.0
C675 C 0.93989 0.98228 0.72973 0.0
C676 C 0.32638 0.20059 0.22784 0.0
C677 C 0.30521 0.17981 0.24821 0.0
H678 H 0.34942 0.24037 0.23389 0.0
C679 C 0.29475 0.18007 0.29245 0.0
H680 H 0.3346 0.20105 0.19375 0.0
C681 C 0.30396 0.20166 0.31562 0.0
C682 C 0.32318 0.22437 0.29501 0.0
H683 H 0.2786 0.16415 0.309 0.0
H684 H 0.29405 0.20218 0.34936 0.0
C685 C 0.33485 0.22305 0.25089 0.0
C686 C 0.94642 0.33767 0.22076 0.0
C687 C 0.95496 0.36467 0.23566 0.0
H688 H 0.91029 0.30838 0.22742 0.0
C689 C 0.93092 0.38415 0.26961 0.0
H690 H 0.96373 0.32256 0.19425 0.0
C691 C 0.89986 0.37603 0.28884 0.0
C692 C 0.89184 0.34841 0.27441 0.0
H693 H 0.93663 0.40499 0.28212 0.0
H694 H 0.88249 0.39101 0.31546 0.0
C695 C 0.9154 0.32972 0.23973 0.0
C696 C 0.8117 0.90681 0.18882 0.0
C697 C 0.84135 0.91881 0.1787 0.0
H698 H 0.78721 0.87264 0.23172 0.0
C699 C 0.86682 0.90887 0.20831 0.0
H700 H 0.7917 0.91381 0.16673 0.0
C701 C 0.86378 0.88582 0.24615 0.0
C702 C 0.83553 0.87182 0.25473 0.0
H703 H 0.88965 0.91812 0.20172 0.0
H704 H 0.88503 0.87684 0.26711 0.0
C705 C 0.80901 0.88336 0.22619 0.0
C706 C 0.09054 0.89624 0.13226 0.0
C707 C 0.09623 0.88956 0.08939 0.0
H708 H 0.1157 0.89474 0.18634 0.0
C709 C 0.13118 0.88366 0.06578 0.0
H710 H 0.06395 0.90061 0.15127 0.0
C711 C 0.16087 0.88072 0.08568 0.0
C712 C 0.15624 0.88309 0.12976 0.0
H713 H 0.13606 0.87895 0.03251 0.0
H714 H 0.18798 0.87413 0.06714 0.0
C715 C 0.12031 0.89289 0.15233 0.0
C716 C 0.22503 0.0252 0.04299 0.0
C717 C 0.23037 0.02262 0.08567 0.0
H718 H 0.23127 0.99538 0.99016 0.0
C719 C 0.24004 0.98736 0.11006 0.0
H720 H 0.2179 0.05193 1.02333 0.0
C721 C 0.24735 0.95487 0.09126 0.0
C722 C 0.24564 0.95689 0.04744 0.0
H723 H 0.24391 0.98471 0.14318 0.0
H724 H 0.25629 0.92794 0.11055 0.0
C725 C 0.23272 0.99265 1.02401 0.0
C726 C 0.18076 0.3224 0.98958 0.0
C727 C 0.17171 0.35599 1.00759 0.0
H728 H 0.21452 0.28626 0.9416 0.0
C729 C 0.18992 0.37997 0.98848 0.0
H730 H 0.16697 0.3035 1.00309 0.0
C731 C 0.21729 0.37006 0.95323 0.0
C732 C 0.22685 0.33613 0.93571 0.0
H733 H 0.18386 0.4059 1.00161 0.0
H734 H 0.23142 0.38876 0.94015 0.0
C735 C 0.2078 0.3127 0.95399 0.0
C736 C 0.82473 0.15472 0.96765 0.0
C737 C 0.83862 0.1245 0.94244 0.0
H738 H 0.80891 0.21407 0.9692 0.0
C739 C 0.84626 0.13182 0.89818 0.0
H740 H 0.81873 0.14982 1.0019 0.0
C741 C 0.8399 0.16853 0.87944 0.0
C742 C 0.82637 0.19878 0.90458 0.0
H743 H 0.85658 0.10921 0.87795 0.0
H744 H 0.84634 0.17305 0.84519 0.0
C745 C 0.8191 0.19145 0.94897 0.0
C746 C 0.94844 0.82155 0.88407 0.0
C747 C 0.95124 0.80841 0.92731 0.0
H748 H 0.91991 0.83046 0.83052 0.0
C749 C 0.92812 0.78999 0.94888 0.0
H750 H 0.96623 0.83529 0.86641 0.0
C751 C 0.90102 0.78721 0.92815 0.0
C752 C 0.89681 0.80267 0.8855 0.0
H753 H 0.92959 0.77972 0.98229 0.0
H754 H 0.8822 0.77482 0.94612 0.0
C755 C 0.9218 0.81867 0.8635 0.0
C756 C 0.18031 0.30759 0.26401 0.0
C757 C 0.1668 0.34005 0.23523 0.0
H758 H 0.21578 0.2788 0.31297 0.0
C759 C 0.18002 0.36868 0.23433 0.0
H760 H 0.17088 0.28498 0.26572 0.0
C761 C 0.20583 0.36512 0.26105 0.0
C762 C 0.21904 0.33303 0.29022 0.0
H763 H 0.17057 0.3941 0.21258 0.0
H764 H 0.21532 0.38775 0.25892 0.0
C765 C 0.20589 0.30425 0.29134 0.0
C766 C 0.16093 0.77502 0.90597 0.0
C767 C 0.15106 0.77669 0.95023 0.0
H768 H 0.20183 0.77251 0.85179 0.0
C769 C 0.17829 0.7747 0.97431 0.0
H770 H 0.14081 0.77662 0.88624 0.0
C771 C 0.21371 0.77295 0.95418 0.0
C772 C 0.22299 0.77265 0.90951 0.0
H773 H 0.17161 0.77653 1.00833 0.0
H774 H 0.23337 0.77298 0.97351 0.0
C775 C 0.19619 0.77275 0.88607 0.0
C776 C 0.33775 0.18559 1.0264 0.0
C777 C 0.32239 0.15894 1.02731 0.0
H778 H 0.35301 0.22919 0.99011 0.0
C779 C 0.31236 0.15465 0.98919 0.0
H780 H 0.34494 0.19011 0.05544 0.0
C781 C 0.31625 0.17777 0.95131 0.0
C782 C 0.33025 0.20568 0.95083 0.0
H783 H 0.29951 0.13497 0.98927 0.0
H784 H 0.30674 0.1749 0.92302 0.0
C785 C 0.34202 0.20827 0.98874 0.0
C786 C 1.0223 0.27427 0.1081 0.0
C787 C 0.05012 0.28578 0.08497 0.0
H788 H 0.97563 0.26061 0.10539 0.0
C789 C 0.05514 0.28734 0.04034 0.0
H790 H 1.01716 0.27383 0.14248 0.0
C791 C 0.03132 0.28018 1.01901 0.0
C792 C 1.00133 0.27182 0.04176 0.0
H793 H 0.07575 0.29711 1.0217 0.0
H794 H 0.03464 0.28439 0.98452 0.0
C795 C 0.9981 0.26738 0.08672 0.0
C796 C 0.77367 0.93744 0.96686 0.0
C797 C 0.77662 0.97082 0.94557 0.0
H798 H 0.77289 0.88384 0.96151 0.0
C799 C 0.77841 0.97614 0.90076 0.0
H800 H 0.77233 0.93218 1.00124 0.0
C801 C 0.77881 0.94834 0.87784 0.0
C802 C 0.7774 0.91427 0.89896 0.0
H803 H 0.7807 1.0014 0.88307 0.0
H804 H 0.78143 0.95315 0.84337 0.0
C805 C 0.77405 0.9096 0.94391 0.0
C806 C 0.98983 0.78025 0.18048 0.0
C807 C 0.98001 0.77441 0.14303 0.0
H808 H 0.97672 0.78218 0.24851 0.0
C809 C 0.95052 0.76256 0.14689 0.0
H810 H 1.01182 0.79027 0.17851 0.0
C811 C 0.93093 0.75723 0.18683 0.0
C812 C 0.93939 0.76475 0.22424 0.0
H813 H 0.94181 0.75846 0.11865 0.0
H814 H 0.90784 0.74898 0.18801 0.0
C815 C 0.96946 0.77592 0.22056 0.0
C816 C 0.32653 0.98237 0.26658 0.0
C817 C 0.32793 0.98968 0.22205 0.0
H818 H 0.3255 0.94384 0.32195 0.0
C819 C 0.33209 0.96047 0.19864 0.0
H820 H 0.32317 0.00423 0.28563 0.0
C821 C 0.33272 0.92549 0.21976 0.0
C822 C 0.32955 0.91895 0.26466 0.0
H823 H 0.33263 0.96536 0.16433 0.0
H824 H 0.33442 0.90411 0.20103 0.0
C825 C 0.3276 0.94761 0.28748 0.0
C826 C 0.76339 0.134 0.10328 0.0
C827 C 0.7726 0.09771 0.12498 0.0
H828 H 0.75772 0.19064 0.10493 0.0
C829 C 0.77733 0.0924 0.16823 0.0
H830 H 0.7607 0.13862 0.06958 0.0
C831 C 0.77546 0.12212 0.18871 0.0
C832 C 0.76969 0.15778 0.16612 0.0
H833 H 0.78511 0.0645 0.18545 0.0
H834 H 0.78052 0.11654 0.22171 0.0
C835 C 0.76201 0.16376 0.12361 0.0
C836 C 0.61314 0.66904 0.97908 0.0
C837 C 0.62914 0.63108 0.97085 0.0
H838 H 0.62158 0.71969 0.97945 0.0
C839 C 0.66734 0.61498 0.95664 0.0
H840 H 0.58371 0.68244 0.98952 0.0
C841 C 0.68909 0.63636 0.95092 0.0
C842 C 0.67293 0.67443 0.95871 0.0
H843 H 0.68042 0.58577 0.95023 0.0
H844 H 0.71843 0.62327 0.93975 0.0
C845 C 0.63474 0.69051 0.97286 0.0
C846 C 0.46759 0.65316 0.88377 0.0
C847 C 0.46797 0.61812 0.8782 0.0
H848 H 0.43652 0.71254 0.88385 0.0
C849 C 0.43584 0.61718 0.8665 0.0
H850 H 0.4916 0.65505 0.89306 0.0
C851 C 0.40405 0.65038 0.86101 0.0
C852 C 0.40336 0.68522 0.86795 0.0
H853 H 0.43508 0.59068 0.86204 0.0
H854 H 0.37984 0.64864 0.85208 0.0
C855 C 0.43569 0.68616 0.879 0.0
C856 C 0.49617 0.44758 0.92818 0.0
C857 C 0.50418 0.44693 0.96937 0.0
H858 H 0.46943 0.42951 0.88938 0.0
C859 C 0.49315 0.42422 1.00303 0.0
H860 H 0.50361 0.46523 0.90157 0.0
C861 C 0.47347 0.40363 0.99592 0.0
C862 C 0.4643 0.40545 0.95503 0.0
H863 H 0.49933 0.42274 0.03493 0.0
H864 H 0.46497 0.38669 1.02261 0.0
C865 C 0.47649 0.42707 0.92111 0.0
C866 C 0.67263 0.43752 0.87067 0.0
C867 C 0.67237 0.45594 0.90486 0.0
H868 H 0.70265 0.39103 0.83307 0.0
C869 C 0.70389 0.44143 0.92659 0.0
H870 H 0.64866 0.44772 0.85357 0.0
C871 C 0.73476 0.4093 0.9148 0.0
C872 C 0.73484 0.39018 0.88138 0.0
H873 H 0.70465 0.45485 0.95313 0.0
H874 H 0.75839 0.39911 0.93246 0.0
C875 C 0.70341 0.40478 0.8593 0.0
C876 C 0.66695 0.4651 0.31885 0.0
C877 C 0.66317 0.47518 0.27526 0.0
H878 H 0.69992 0.42648 0.36598 0.0
C879 C 0.69135 0.45379 0.24547 0.0
H880 H 0.64587 0.48105 0.34259 0.0
C881 C 0.72212 0.42289 0.25866 0.0
C882 C 0.72583 0.41228 0.30213 0.0
H883 H 0.68967 0.46067 0.21157 0.0
H884 H 0.74283 0.40706 0.23455 0.0
C885 C 0.69801 0.43392 0.33217 0.0
C886 C 0.68631 0.62023 0.23959 0.0
C887 C 0.66184 0.63841 0.20872 0.0
H888 H 0.72858 0.6211 0.27181 0.0
C889 C 0.66195 0.67234 0.18597 0.0
H890 H 0.68739 0.5937 0.25714 0.0
C891 C 0.68556 0.68804 0.19444 0.0
C892 C 0.70961 0.67009 0.22576 0.0
H893 H 0.64312 0.68729 0.16245 0.0
H894 H 0.68449 0.71463 0.17698 0.0
C895 C 0.70985 0.63594 0.2481 0.0
C896 C 0.45513 0.69792 0.24548 0.0
C897 C 0.47774 0.67179 0.27494 0.0
H898 H 0.40872 0.74951 0.23457 0.0
C899 C 0.47144 0.68037 0.31735 0.0
H900 H 0.45913 0.69274 0.21246 0.0
C901 C 0.44227 0.71387 0.33 0.0
C902 C 0.41896 0.73898 0.30046 0.0
H903 H 0.48853 0.66101 0.34076 0.0
H904 H 0.43692 0.71925 0.36309 0.0
C905 C 0.4262 0.73079 0.25806 0.0
C906 C 0.47813 0.48466 0.25796 0.0
C907 C 0.48993 0.4974 0.21642 0.0
H908 H 0.44702 0.45495 0.2971 0.0
C909 C 0.47863 0.48868 0.18184 0.0
H910 H 0.48634 0.49031 0.28554 0.0
C911 C 0.4566 0.46757 0.18854 0.0
C912 C 0.44492 0.4548 0.23004 0.0
H913 H 0.48664 0.49817 0.14939 0.0
H914 H 0.44915 0.46087 0.16101 0.0
C915 C 0.45587 0.46379 0.26465 0.0
C916 C 0.81168 0.68379 0.73902 0.0
C917 C 0.8449 0.67106 0.71114 0.0
H918 H 0.77826 0.72211 0.78529 0.0
C919 C 0.86969 0.68912 0.70809 0.0
H920 H 0.79202 0.67053 0.74231 0.0
C921 C 0.86174 0.71883 0.73227 0.0
C922 C 0.829 0.73106 0.76091 0.0
H923 H 0.89551 0.68029 0.68684 0.0
H924 H 0.8816 0.73185 0.72892 0.0
C925 C 0.80398 0.71321 0.76387 0.0
C926 C 0.48628 0.77818 0.78274 0.0
C927 C 0.49544 0.78165 0.73809 0.0
H928 H 0.44402 0.78049 0.83598 0.0
C929 C 0.4667 0.79121 0.71283 0.0
H930 H 0.50755 0.77105 0.80324 0.0
C931 C 0.43028 0.79577 0.73166 0.0
C932 C 0.42114 0.79226 0.77636 0.0
H933 H 0.47269 0.79397 0.67843 0.0
H934 H 0.40923 0.80195 0.71114 0.0
C935 C 0.44968 0.78393 0.80155 0.0
C936 C 0.35152 0.42346 0.71245 0.0
C937 C 0.33157 0.42994 0.67778 0.0
H938 H 0.3643 0.39442 0.77399 0.0
C939 C 0.30783 0.41066 0.68074 0.0
H940 H 0.3697 0.43785 0.71227 0.0
C941 C 0.3044 0.3857 0.71692 0.0
C942 C 0.32458 0.37919 0.75133 0.0
H943 H 0.29215 0.41437 0.65491 0.0
H944 H 0.2862 0.37116 0.71763 0.0
C945 C 0.34814 0.39856 0.74842 0.0
C946 C 0.59376 0.30882 0.66188 0.0
C947 C 0.59339 0.3165 0.61754 0.0
H948 H 0.62028 0.30561 0.71549 0.0
C949 C 0.61814 0.3319 0.59362 0.0
H950 H 0.57565 0.29602 0.68098 0.0
C951 C 0.64439 0.33706 0.61343 0.0
C952 C 0.64638 0.32699 0.65761 0.0
H953 H 0.61924 0.33709 0.55925 0.0
H954 H 0.66421 0.34732 0.59378 0.0
C955 C 0.6196 0.31424 0.68167 0.0
C956 C 0.79101 0.51554 0.58759 0.0
C957 C 0.81537 0.53248 0.56656 0.0
H958 H 0.76601 0.47674 0.58472 0.0
C959 C 0.82953 0.52679 0.52374 0.0
H960 H 0.78033 0.51886 0.62086 0.0
C961 C 0.8218 0.50253 0.50316 0.0
C962 C 0.79997 0.48289 0.52505 0.0
H963 H 0.84881 0.53916 0.507 0.0
H964 H 0.83538 0.49703 0.47112 0.0
C965 C 0.7834 0.49091 0.56702 0.0
C966 C 0.76639 0.75408 0.5133 0.0
C967 C 0.72765 0.7687 0.51288 0.0
H968 H 0.82007 0.74565 0.47848 0.0
C969 C 0.71387 0.78667 0.47392 0.0
H970 H 0.77818 0.74028 0.54251 0.0
C971 C 0.73823 0.78927 0.43647 0.0
C972 C 0.777 0.77492 0.43721 0.0
H973 H 0.68428 0.79805 0.47222 0.0
H974 H 0.72668 0.80282 0.40705 0.0
C975 C 0.7905 0.75745 0.47638 0.0
C976 C 0.32108 0.67632 0.46885 0.0
C977 C 0.32426 0.64814 0.44452 0.0
H978 H 0.31642 0.73319 0.46869 0.0
C979 C 0.32282 0.65738 0.40035 0.0
H980 H 0.32223 0.67002 0.50286 0.0
C981 C 0.31839 0.69374 0.38096 0.0
C982 C 0.31637 0.72167 0.40496 0.0
H983 H 0.32502 0.63637 0.38077 0.0
H984 H 0.31772 0.69962 0.34683 0.0
C985 C 0.31784 0.71244 0.44921 0.0
C986 C 0.44901 0.30833 0.43778 0.0
C987 C 0.45244 0.28591 0.47728 0.0
H988 H 0.41957 0.32959 0.38253 0.0
C989 C 0.42684 0.2687 0.4916 0.0
H990 H 0.46851 0.32156 0.42541 0.0
C991 C 0.3988 0.2735 0.46748 0.0
C992 C 0.39577 0.29492 0.42744 0.0
H993 H 0.42865 0.25106 0.5217 0.0
H994 H 0.3798 0.25968 0.48001 0.0
C995 C 0.42124 0.31246 0.41294 0.0
C996 C 0.64884 0.83496 0.77827 0.0
C997 C 0.6503 0.84092 0.7335 0.0
H998 H 0.67509 0.83057 0.83287 0.0
C999 C 0.67894 0.85094 0.70983 0.0
H1000 H 0.62721 0.82724 0.79768 0.0
C1001 C 0.70645 0.85291 0.73012 0.0
C1002 C 0.70616 0.84489 0.77469 0.0
H1003 H 0.68105 0.85578 0.67538 0.0
H1004 H 0.72877 0.85935 0.71051 0.0
C1005 C 0.67638 0.8369 0.79858 0.0
C1006 C 0.68543 0.24394 0.40781 0.0
C1007 C 0.67197 0.25102 0.45045 0.0
H1008 H 0.72392 0.24849 0.35312 0.0
C1009 C 0.68975 0.26648 0.47156 0.0
H1010 H 0.67223 0.23237 0.39053 0.0
C1011 C 0.71979 0.27529 0.45029 0.0
C1012 C 0.7323 0.26954 0.40714 0.0
H1013 H 0.68021 0.272 0.50451 0.0
H1014 H 0.73237 0.28781 0.46725 0.0
C1015 C 0.71497 0.2534 0.38633 0.0
C1016 C 0.92992 0.64118 0.4688 0.0
C1017 C 0.9018 0.62909 0.48958 0.0
H1018 H 0.94728 0.67335 0.41506 0.0
C1019 C 0.8709 0.63694 0.46861 0.0
H1020 H 0.95405 0.63555 0.48411 0.0
C1021 C 0.86704 0.65839 0.42898 0.0
C1022 C 0.89395 0.67266 0.40945 0.0
H1023 H 0.84918 0.62722 0.4833 0.0
H1024 H 0.84202 0.66533 0.41475 0.0
C1025 C 0.92599 0.66284 0.4292 0.0
C1026 C 0.5046 0.85309 0.56837 0.0
C1027 C 0.54037 0.8314 0.55005 0.0
H1028 H 0.44616 0.87258 0.56614 0.0
C1029 C 0.54476 0.81647 0.51168 0.0
H1030 H 0.50054 0.86424 0.59843 0.0
C1031 C 0.51386 0.8214 0.49298 0.0
C1032 C 0.47781 0.84081 0.51268 0.0
H1033 H 0.57217 0.79957 0.49705 0.0
H1034 H 0.51828 0.80914 0.46359 0.0
C1035 C 0.47351 0.85758 0.54996 0.0
C1036 C 0.24464 0.43842 0.49199 0.0
C1037 C 0.26368 0.46278 0.48117 0.0
H1038 H 0.23514 0.39265 0.47492 0.0
C1039 C 0.28628 0.46074 0.44168 0.0
H1040 H 0.22696 0.43917 0.52207 0.0
C1041 C 0.29101 0.43404 0.41465 0.0
C1042 C 0.2732 0.40862 0.42621 0.0
H1043 H 0.30132 0.47905 0.43209 0.0
H1044 H 0.30954 0.4327 0.38515 0.0
C1045 C 0.2493 0.41172 0.46485 0.0
C1046 C 0.45734 0.21586 0.71132 0.0
C1047 C 0.47571 0.24034 0.69593 0.0
H1048 H 0.41594 0.20437 0.7574 0.0
C1049 C 0.46869 0.27052 0.71924 0.0
H1050 H 0.46199 0.1925 0.69405 0.0
C1051 C 0.44276 0.27696 0.75609 0.0
C1052 C 0.4228 0.25374 0.77 0.0
H1053 H 0.48274 0.2896 0.70845 0.0
H1054 H 0.43683 0.30138 0.77223 0.0
C1055 C 0.43094 0.2227 0.74764 0.0
C1056 C 0.84516 0.44069 0.71989 0.0
C1057 C 0.87237 0.44909 0.73381 0.0
H1058 H 0.81591 0.40402 0.72771 0.0
C1059 C 0.89183 0.42482 0.76677 0.0
H1060 H 0.82993 0.45815 0.69414 0.0
C1061 C 0.8841 0.39346 0.78555 0.0
C1062 C 0.85652 0.38544 0.77216 0.0
H1063 H 0.91263 0.43032 0.77884 0.0
H1064 H 0.89944 0.37586 0.81124 0.0
C1065 C 0.83723 0.40937 0.73895 0.0
C1066 C 0.23391 0.5995 0.67633 0.0
C1067 C 0.23419 0.60457 0.63181 0.0
H1068 H 0.23921 0.62048 0.73128 0.0
C1069 C 0.23494 0.63844 0.60939 0.0
H1070 H 0.23304 0.57392 0.69475 0.0
C1071 C 0.23901 0.66488 0.63028 0.0
C1072 C 0.2421 0.65825 0.67419 0.0
H1073 H 0.23484 0.64351 0.57517 0.0
H1074 H 0.24223 0.68928 0.61135 0.0
C1075 C 0.23787 0.62603 0.69726 0.0
loop_
_geom_bond_atom_site_label_1
_geom_bond_atom_site_label_2
_geom_bond_distance
_geom_bond_site_symmetry_2
_ccdc_geom_bond_type
Cu0 N1 1.999 . S
Cu0 O6 1.974 1_545 S
Cu0 N11 1.967 1_545 S
Cu0 O20 1.959 1_455 S
N1 Cu0 1.999 . S
N1 C3 1.263 . S
N1 C5 1.389 . S
N2 C3 1.358 . S
N2 C4 1.400 . S
C3 N1 1.263 . S
C3 N2 1.358 . S
C3 H9 0.930 . S
C4 N2 1.400 . S
C4 C5 1.351 . S
C4 H21 0.930 . S
C5 N1 1.389 . S
C5 C4 1.351 . S
C5 H10 0.930 . S
O6 Cu0 1.974 1_565 S
O6 C16 1.282 . S
C7 O8 1.247 1_655 S
C7 O20 1.251 . S
O8 C7 1.247 1_455 S
H9 C3 0.930 . S
H10 C5 0.930 . S
N11 Cu0 1.967 1_565 S
N11 C13 1.341 1_465 S
N11 C14 1.407 . S
N12 C13 1.345 1_565 S
N12 C15 1.336 1_655 S
C13 N11 1.341 1_645 S
C13 N12 1.345 1_545 S
C13 H18 0.930 . S
C14 N11 1.407 . S
C14 C15 1.346 . S
C14 H19 0.930 . S
C15 N12 1.336 1_455 S
C15 C14 1.346 . S
C15 H22 0.929 . S
C16 O6 1.282 . S
C16 O17 1.216 . S
O17 C16 1.216 . S
H18 C13 0.930 . S
H19 C14 0.930 . S
O20 Cu0 1.959 1_655 S
O20 C7 1.251 . S
H21 C4 0.930 . S
H22 C15 0.929 . S
Cu23 N24 1.999 . S
Cu23 O29 1.974 1_455 S
Cu23 N34 1.985 . S
Cu23 O43 1.959 . S
N24 Cu23 1.999 . S
N24 C26 1.263 1_455 S
N24 C28 1.387 . S
N25 C26 1.358 . S
N25 C27 1.400 1_545 S
C26 N24 1.263 1_655 S
C26 N25 1.358 . S
C26 H32 0.930 . S
C27 N25 1.400 1_565 S
C27 C28 1.353 1_665 S
C27 H44 0.930 . S
C28 N24 1.387 . S
C28 C27 1.353 1_445 S
C28 H33 0.930 1_545 S
O29 Cu23 1.974 1_655 S
O29 C39 1.282 . S
C30 O31 1.261 . S
C30 O43 1.251 . S
O31 C30 1.261 . S
H32 C26 0.930 . S
H33 C28 0.930 1_565 S
N34 Cu23 1.985 . S
N34 C36 1.335 . S
N34 C37 1.390 . S
N35 C36 1.345 . S
N35 C38 1.336 . S
C36 N34 1.335 . S
C36 N35 1.345 . S
C36 H41 0.930 . S
C37 N34 1.390 . S
C37 C38 1.346 . S
C37 H42 0.930 . S
C38 N35 1.336 . S
C38 C37 1.346 . S
C38 H45 0.929 . S
C39 O29 1.282 . S
C39 O40 1.216 . S
O40 C39 1.216 . S
H41 C36 0.930 . S
H42 C37 0.930 . S
O43 Cu23 1.959 . S
O43 C30 1.251 . S
H44 C27 0.930 . S
H45 C38 0.929 . S
Cu46 N47 1.999 . S
Cu46 O52 1.974 . S
Cu46 N57 1.985 . S
Cu46 O66 1.959 . S
N47 Cu46 1.999 . S
N47 C49 1.263 . S
N47 C51 1.389 . S
N48 C49 1.358 . S
N48 C50 1.400 . S
C49 N47 1.263 . S
C49 N48 1.358 . S
C49 H55 0.930 . S
C50 N48 1.400 . S
C50 C51 1.351 . S
C50 H67 0.930 1_554 S
C51 N47 1.389 . S
C51 C50 1.351 . S
C51 H56 0.930 . S
O52 Cu46 1.974 . S
O52 C62 1.282 . S
C53 O54 1.261 . S
C53 O66 1.251 . S
O54 C53 1.261 . S
H55 C49 0.930 . S
H56 C51 0.930 . S
N57 Cu46 1.985 . S
N57 C59 1.335 . S
N57 C60 1.390 . S
N58 C59 1.345 . S
N58 C61 1.336 . S
C59 N57 1.335 . S
C59 N58 1.345 . S
C59 H64 0.930 . S
C60 N57 1.390 . S
C60 C61 1.346 . S
C60 H65 0.930 . S
C61 N58 1.336 . S
C61 C60 1.346 . S
C61 H68 0.929 . S
C62 O52 1.282 . S
C62 O63 1.216 . S
O63 C62 1.216 . S
H64 C59 0.930 . S
H65 C60 0.930 . S
O66 Cu46 1.959 . S
O66 C53 1.251 . S
H67 C50 0.930 1_556 S
H68 C61 0.929 . S
Cu69 N70 1.999 . S
Cu69 O75 1.974 . S
Cu69 N80 1.985 . S
Cu69 O89 1.959 . S
N70 Cu69 1.999 . S
N70 C72 1.263 . S
N70 C74 1.389 . S
N71 C72 1.358 . S
N71 C73 1.400 1_554 S
C72 N70 1.263 . S
C72 N71 1.358 . S
C72 H78 0.930 . S
C73 N71 1.400 1_556 S
C73 C74 1.351 1_556 S
C73 H90 0.930 . S
C74 N70 1.389 . S
C74 C73 1.351 1_554 S
C74 H79 0.930 . S
O75 Cu69 1.974 . S
O75 C85 1.282 . S
C76 O77 1.261 . S
C76 O89 1.251 . S
O77 C76 1.261 . S
H78 C72 0.930 . S
H79 C74 0.930 . S
N80 Cu69 1.985 . S
N80 C82 1.335 . S
N80 C83 1.390 . S
N81 C82 1.345 1_655 S
N81 C84 1.336 1_655 S
C82 N80 1.335 . S
C82 N81 1.345 1_455 S
C82 H87 0.930 1_455 S
C83 N80 1.390 . S
C83 C84 1.346 . S
C83 H88 0.930 . S
C84 N81 1.336 1_455 S
C84 C83 1.346 . S
C84 H91 0.929 . S
C85 O75 1.282 . S
C85 O86 1.216 . S
O86 C85 1.216 . S
H87 C82 0.930 1_655 S
H88 C83 0.930 . S
O89 Cu69 1.959 . S
O89 C76 1.251 . S
H90 C73 0.930 . S
H91 C84 0.929 . S
Cu92 N93 1.999 1_554 S
Cu92 O98 1.974 . S
Cu92 N103 1.985 1_545 S
Cu92 O112 1.959 1_544 S
N93 Cu92 1.999 1_556 S
N93 C95 1.263 . S
N93 C97 1.389 . S
N94 C95 1.358 . S
N94 C96 1.400 . S
C95 N93 1.263 . S
C95 N94 1.358 . S
C95 H101 0.930 . S
C96 N94 1.400 . S
C96 C97 1.351 . S
C96 H113 0.930 . S
C97 N93 1.389 . S
C97 C96 1.351 . S
C97 H102 0.930 . S
O98 Cu92 1.974 . S
O98 C108 1.282 . S
C99 O100 1.261 . S
C99 O112 1.251 . S
O100 C99 1.261 . S
H101 C95 0.930 . S
H102 C97 0.930 . S
N103 Cu92 1.985 1_565 S
N103 C105 1.335 . S
N103 C106 1.390 . S
N104 C105 1.345 . S
N104 C107 1.336 . S
C105 N103 1.335 . S
C105 N104 1.345 . S
C105 H110 0.930 . S
C106 N103 1.390 . S
C106 C107 1.346 . S
C106 H111 0.930 . S
C107 N104 1.336 . S
C107 C106 1.346 . S
C107 H114 0.929 . S
C108 O98 1.282 . S
C108 O109 1.216 . S
O109 C108 1.216 . S
H110 C105 0.930 . S
H111 C106 0.930 . S
O112 Cu92 1.959 1_566 S
O112 C99 1.251 . S
H113 C96 0.930 . S
H114 C107 0.929 . S
Cu115 N116 1.999 1_454 S
Cu115 O121 1.974 1_455 S
Cu115 N126 1.985 . S
Cu115 O135 1.959 1_554 S
N116 Cu115 1.999 1_656 S
N116 C118 1.263 . S
N116 C120 1.389 . S
N117 C118 1.358 . S
N117 C119 1.400 . S
C118 N116 1.263 . S
C118 N117 1.358 . S
C118 H124 0.930 . S
C119 N117 1.400 . S
C119 C120 1.351 . S
C119 H136 0.930 . S
C120 N116 1.389 . S
C120 C119 1.351 . S
C120 H125 0.930 1_655 S
O121 Cu115 1.974 1_655 S
O121 C131 1.282 . S
C122 O123 1.261 . S
C122 O135 1.251 . S
O123 C122 1.261 . S
H124 C118 0.930 . S
H125 C120 0.930 1_455 S
N126 Cu115 1.985 . S
N126 C128 1.335 . S
N126 C129 1.390 . S
N127 C128 1.345 . S
N127 C130 1.336 . S
C128 N126 1.335 . S
C128 N127 1.345 . S
C128 H133 0.930 . S
C129 N126 1.390 . S
C129 C130 1.346 . S
C129 H134 0.930 1_455 S
C130 N127 1.336 . S
C130 C129 1.346 . S
C130 H137 0.929 . S
C131 O121 1.282 . S
C131 O132 1.216 . S
O132 C131 1.216 . S
H133 C128 0.930 . S
H134 C129 0.930 1_655 S
O135 Cu115 1.959 1_556 S
O135 C122 1.251 . S
H136 C119 0.930 . S
H137 C130 0.929 . S
Cu138 N139 1.999 . S
Cu138 O144 1.974 . S
Cu138 N149 1.985 . S
Cu138 O158 1.959 . S
N139 Cu138 1.999 . S
N139 C141 1.263 . S
N139 C143 1.389 . S
N140 C141 1.358 . S
N140 C142 1.400 . S
C141 N139 1.263 . S
C141 N140 1.358 . S
C141 H147 0.930 . S
C142 N140 1.400 . S
C142 C143 1.351 . S
C142 H159 0.930 . S
C143 N139 1.389 . S
C143 C142 1.351 . S
C143 H148 0.930 1_556 S
O144 Cu138 1.974 . S
O144 C154 1.282 . S
C145 O146 1.261 . S
C145 O158 1.251 . S
O146 C145 1.261 . S
H147 C141 0.930 . S
H148 C143 0.930 1_554 S
N149 Cu138 1.985 . S
N149 C151 1.335 . S
N149 C152 1.390 . S
N150 C151 1.345 . S
N150 C153 1.336 . S
C151 N149 1.335 . S
C151 N150 1.345 . S
C151 H156 0.930 . S
C152 N149 1.390 . S
C152 C153 1.346 . S
C152 H157 0.930 . S
C153 N150 1.336 . S
C153 C152 1.346 . S
C153 H160 0.929 . S
C154 O144 1.282 . S
C154 O155 1.216 . S
O155 C154 1.216 . S
H156 C151 0.930 . S
H157 C152 0.930 . S
O158 Cu138 1.959 . S
O158 C145 1.251 . S
H159 C142 0.930 . S
H160 C153 0.929 . S
Cu161 N162 1.999 . S
Cu161 O167 1.974 . S
Cu161 N172 1.985 . S
Cu161 O181 1.959 . S
N162 Cu161 1.999 . S
N162 C164 1.263 . S
N162 C166 1.389 . S
N163 C164 1.358 . S
N163 C165 1.400 . S
C164 N162 1.263 . S
C164 N163 1.358 . S
C164 H170 0.930 . S
C165 N163 1.400 . S
C165 C166 1.351 . S
C165 H182 0.930 . S
C166 N162 1.389 . S
C166 C165 1.351 . S
C166 H171 0.930 . S
O167 Cu161 1.974 . S
O167 C177 1.282 . S
C168 O169 1.261 . S
C168 O181 1.251 . S
O169 C168 1.261 . S
H170 C164 0.930 . S
H171 C166 0.930 . S
N172 Cu161 1.985 . S
N172 C174 1.335 . S
N172 C175 1.390 . S
N173 C174 1.345 . S
N173 C176 1.336 . S
C174 N172 1.335 . S
C174 N173 1.345 . S
C174 H179 0.930 . S
C175 N172 1.390 . S
C175 C176 1.346 . S
C175 H180 0.930 . S
C176 N173 1.336 . S
C176 C175 1.346 . S
C176 H183 0.929 . S
C177 O167 1.282 . S
C177 O178 1.216 . S
O178 C177 1.216 . S
H179 C174 0.930 . S
H180 C175 0.930 . S
O181 Cu161 1.959 . S
O181 C168 1.251 . S
H182 C165 0.930 . S
H183 C176 0.929 . S
Cu184 N185 1.999 . S
Cu184 O190 1.974 . S
Cu184 N195 1.985 . S
Cu184 O204 1.959 . S
N185 Cu184 1.999 . S
N185 C187 1.263 . S
N185 C189 1.389 . S
N186 C187 1.358 . S
N186 C188 1.400 . S
C187 N185 1.263 . S
C187 N186 1.358 . S
C187 H193 0.930 . S
C188 N186 1.400 . S
C188 C189 1.351 . S
C188 H205 0.930 . S
C189 N185 1.389 . S
C189 C188 1.351 . S
C189 H194 0.930 . S
O190 Cu184 1.974 . S
O190 C200 1.282 . S
C191 O192 1.261 . S
C191 O204 1.251 . S
O192 C191 1.261 . S
H193 C187 0.930 . S
H194 C189 0.930 . S
N195 Cu184 1.985 . S
N195 C197 1.335 . S
N195 C198 1.390 . S
N196 C197 1.345 . S
N196 C199 1.336 . S
C197 N195 1.335 . S
C197 N196 1.345 . S
C197 H202 0.930 . S
C198 N195 1.390 . S
C198 C199 1.346 . S
C198 H203 0.930 . S
C199 N196 1.336 . S
C199 C198 1.346 . S
C199 H206 0.929 . S
C200 O190 1.282 . S
C200 O201 1.216 . S
O201 C200 1.216 . S
H202 C197 0.930 . S
H203 C198 0.930 . S
O204 Cu184 1.959 . S
O204 C191 1.251 . S
H205 C188 0.930 . S
H206 C199 0.929 . S
Cu207 N208 1.999 . S
Cu207 O213 1.974 . S
Cu207 N218 1.985 . S
Cu207 O227 1.959 . S
N208 Cu207 1.999 . S
N208 C210 1.263 . S
N208 C212 1.389 . S
N209 C210 1.358 . S
N209 C211 1.400 . S
C210 N208 1.263 . S
C210 N209 1.358 . S
C210 H216 0.930 . S
C211 N209 1.400 . S
C211 C212 1.351 . S
C211 H228 0.930 . S
C212 N208 1.389 . S
C212 C211 1.351 . S
C212 H217 0.930 . S
O213 Cu207 1.974 . S
O213 C223 1.282 . S
C214 O215 1.261 . S
C214 O227 1.251 . S
O215 C214 1.261 . S
H216 C210 0.930 . S
H217 C212 0.930 . S
N218 Cu207 1.985 . S
N218 C220 1.335 . S
N218 C221 1.390 . S
N219 C220 1.345 . S
N219 C222 1.336 . S
C220 N218 1.335 . S
C220 N219 1.345 . S
C220 H225 0.930 . S
C221 N218 1.390 . S
C221 C222 1.346 . S
C221 H226 0.930 . S
C222 N219 1.336 . S
C222 C221 1.346 . S
C222 H229 0.929 . S
C223 O213 1.282 . S
C223 O224 1.216 . S
O224 C223 1.216 . S
H225 C220 0.930 . S
H226 C221 0.930 . S
O227 Cu207 1.959 . S
O227 C214 1.251 . S
H228 C211 0.930 . S
H229 C222 0.929 . S
Cu230 N231 1.999 . S
Cu230 O236 1.974 . S
Cu230 N241 1.985 . S
Cu230 O250 1.959 . S
N231 Cu230 1.999 . S
N231 C233 1.263 . S
N231 C235 1.389 . S
N232 C233 1.358 . S
N232 C234 1.400 . S
C233 N231 1.263 . S
C233 N232 1.358 . S
C233 H239 0.930 . S
C234 N232 1.400 . S
C234 C235 1.351 . S
C234 H251 0.930 . S
C235 N231 1.389 . S
C235 C234 1.351 . S
C235 H240 0.930 . S
O236 Cu230 1.974 . S
O236 C246 1.282 . S
C237 O238 1.261 . S
C237 O250 1.251 . S
O238 C237 1.261 . S
H239 C233 0.930 . S
H240 C235 0.930 . S
N241 Cu230 1.985 . S
N241 C243 1.335 . S
N241 C244 1.390 . S
N242 C243 1.345 . S
N242 C245 1.336 . S
C243 N241 1.335 . S
C243 N242 1.345 . S
C243 H248 0.930 . S
C244 N241 1.390 . S
C244 C245 1.346 . S
C244 H249 0.930 . S
C245 N242 1.336 . S
C245 C244 1.346 . S
C245 H252 0.929 . S
C246 O236 1.282 . S
C246 O247 1.216 . S
O247 C246 1.216 . S
H248 C243 0.930 . S
H249 C244 0.930 . S
O250 Cu230 1.959 . S
O250 C237 1.251 . S
H251 C234 0.930 . S
H252 C245 0.929 . S
Cu253 N254 1.999 . S
Cu253 O259 1.974 . S
Cu253 N264 1.985 . S
Cu253 O273 1.959 . S
N254 Cu253 1.999 . S
N254 C256 1.263 . S
N254 C258 1.389 . S
N255 C256 1.358 . S
N255 C257 1.400 . S
C256 N254 1.263 . S
C256 N255 1.358 . S
C256 H262 0.930 . S
C257 N255 1.400 . S
C257 C258 1.351 . S
C257 H274 0.930 . S
C258 N254 1.389 . S
C258 C257 1.351 . S
C258 H263 0.930 . S
O259 Cu253 1.974 . S
O259 C269 1.282 . S
C260 O261 1.261 . S
C260 O273 1.251 . S
O261 C260 1.261 . S
H262 C256 0.930 . S
H263 C258 0.930 . S
N264 Cu253 1.985 . S
N264 C266 1.335 . S
N264 C267 1.390 . S
N265 C266 1.345 . S
N265 C268 1.336 . S
C266 N264 1.335 . S
C266 N265 1.345 . S
C266 H271 0.930 . S
C267 N264 1.390 . S
C267 C268 1.346 . S
C267 H272 0.930 . S
C268 N265 1.336 . S
C268 C267 1.346 . S
C268 H275 0.929 . S
C269 O259 1.282 . S
C269 O270 1.216 . S
O270 C269 1.216 . S
H271 C266 0.930 . S
H272 C267 0.930 . S
O273 Cu253 1.959 . S
O273 C260 1.251 . S
H274 C257 0.930 . S
H275 C268 0.929 . S
Tb276 C285 2.764 . S
Tb276 O286 2.325 . S
Tb276 O289 2.303 . S
Tb276 O293 2.322 . S
Tb276 O294 2.349 . S
Tb276 O297 2.415 . S
Tb276 O298 2.399 . S
Tb277 O287 2.322 . S
Tb277 O288 2.349 . S
Tb277 O290 2.415 . S
Tb277 O291 2.399 . S
Tb277 O292 2.325 . S
Tb277 O295 2.303 . S
Tb277 C306 2.764 . S
C278 O294 1.261 . S
C278 O295 1.257 . S
C279 C282 1.358 . S
C279 C283 1.332 . S
C279 C285 1.504 . S
C280 C281 1.373 . S
C280 C284 1.308 . S
C281 C280 1.373 . S
C281 C282 1.429 . S
C281 H308 0.932 . S
C282 C279 1.358 . S
C282 C281 1.429 . S
C282 H309 0.930 . S
C283 C279 1.332 . S
C283 C284 1.394 . S
C283 H310 0.932 . S
C284 C280 1.308 . S
C284 C283 1.394 . S
C284 H311 0.929 . S
C285 Tb276 2.764 . S
C285 C279 1.504 . S
C285 O297 1.239 . S
C285 O298 1.263 . S
O286 Tb276 2.325 . S
O286 C296 1.236 . S
O287 Tb277 2.322 . S
O287 C296 1.257 . S
O288 Tb277 2.349 . S
O288 C299 1.261 . S
O289 Tb276 2.303 . S
O289 C299 1.257 . S
O290 Tb277 2.415 . S
O290 C306 1.239 . S
O291 Tb277 2.399 . S
O291 C306 1.263 . S
O292 Tb277 2.325 . S
O292 C307 1.236 . S
O293 Tb276 2.322 . S
O293 C307 1.257 . S
O294 Tb276 2.349 . S
O294 C278 1.261 . S
O295 Tb277 2.303 . S
O295 C278 1.257 . S
C296 O286 1.236 . S
C296 O287 1.257 . S
O297 Tb276 2.415 . S
O297 C285 1.239 . S
O298 Tb276 2.399 . S
O298 C285 1.263 . S
C299 O288 1.261 . S
C299 O289 1.257 . S
C300 C303 1.358 . S
C300 C304 1.332 . S
C300 C306 1.504 . S
C301 C302 1.373 . S
C301 C305 1.308 . S
C302 C301 1.373 . S
C302 C303 1.429 . S
C302 H312 0.932 . S
C303 C300 1.358 . S
C303 C302 1.429 . S
C303 H313 0.930 . S
C304 C300 1.332 . S
C304 C305 1.394 . S
C304 H314 0.932 . S
C305 C301 1.308 . S
C305 C304 1.394 . S
C305 H315 0.929 . S
C306 Tb277 2.764 . S
C306 O290 1.239 . S
C306 O291 1.263 . S
C306 C300 1.504 . S
C307 O292 1.236 . S
C307 O293 1.257 . S
H308 C281 0.932 . S
H309 C282 0.930 . S
H310 C283 0.932 . S
H311 C284 0.929 . S
H312 C302 0.932 . S
H313 C303 0.930 . S
H314 C304 0.932 . S
H315 C305 0.929 . S
Tb316 C325 2.764 . S
Tb316 O326 2.325 . S
Tb316 O329 2.303 . S
Tb316 O333 2.322 . S
Tb316 O334 2.349 . S
Tb316 O337 2.415 . S
Tb316 O338 2.399 . S
Tb317 O327 2.322 . S
Tb317 O328 2.349 . S
Tb317 O330 2.415 . S
Tb317 O331 2.399 . S
Tb317 O332 2.325 . S
Tb317 O335 2.303 . S
Tb317 C346 2.764 . S
C318 O334 1.261 . S
C318 O335 1.257 . S
C319 C322 1.358 . S
C319 C323 1.332 . S
C319 C325 1.504 . S
C320 C321 1.373 . S
C320 C324 1.308 . S
C321 C320 1.373 . S
C321 C322 1.429 . S
C321 H348 0.932 . S
C322 C319 1.358 . S
C322 C321 1.429 . S
C322 H349 0.930 . S
C323 C319 1.332 . S
C323 C324 1.394 . S
C323 H350 0.932 . S
C324 C320 1.308 . S
C324 C323 1.394 . S
C324 H351 0.929 . S
C325 Tb316 2.764 . S
C325 C319 1.504 . S
C325 O337 1.239 . S
C325 O338 1.263 . S
O326 Tb316 2.325 . S
O326 C336 1.236 . S
O327 Tb317 2.322 . S
O327 C336 1.257 . S
O328 Tb317 2.349 . S
O328 C339 1.261 . S
O329 Tb316 2.303 . S
O329 C339 1.257 . S
O330 Tb317 2.415 . S
O330 C346 1.239 . S
O331 Tb317 2.399 . S
O331 C346 1.263 . S
O332 Tb317 2.325 . S
O332 C347 1.236 . S
O333 Tb316 2.322 . S
O333 C347 1.257 . S
O334 Tb316 2.349 . S
O334 C318 1.261 . S
O335 Tb317 2.303 . S
O335 C318 1.257 . S
C336 O326 1.236 . S
C336 O327 1.257 . S
O337 Tb316 2.415 . S
O337 C325 1.239 . S
O338 Tb316 2.399 . S
O338 C325 1.263 . S
C339 O328 1.261 . S
C339 O329 1.257 . S
C340 C343 1.358 . S
C340 C344 1.332 . S
C340 C346 1.504 . S
C341 C342 1.373 . S
C341 C345 1.308 . S
C342 C341 1.373 . S
C342 C343 1.429 . S
C342 H352 0.932 . S
C343 C340 1.358 . S
C343 C342 1.429 . S
C343 H353 0.930 . S
C344 C340 1.332 . S
C344 C345 1.394 . S
C344 H354 0.932 . S
C345 C341 1.308 . S
C345 C344 1.394 . S
C345 H355 0.929 . S
C346 Tb317 2.764 . S
C346 O330 1.239 . S
C346 O331 1.263 . S
C346 C340 1.504 . S
C347 O332 1.236 . S
C347 O333 1.257 . S
H348 C321 0.932 . S
H349 C322 0.930 . S
H350 C323 0.932 . S
H351 C324 0.929 . S
H352 C342 0.932 . S
H353 C343 0.930 . S
H354 C344 0.932 . S
H355 C345 0.929 . S
Tb356 C365 2.764 . S
Tb356 O366 2.325 . S
Tb356 O369 2.303 . S
Tb356 O373 2.322 . S
Tb356 O374 2.349 . S
Tb356 O377 2.415 . S
Tb356 O378 2.399 . S
Tb357 O367 2.322 . S
Tb357 O368 2.349 . S
Tb357 O370 2.415 . S
Tb357 O371 2.399 . S
Tb357 O372 2.325 . S
Tb357 O375 2.303 . S
Tb357 C386 2.764 . S
C358 O374 1.261 . S
C358 O375 1.257 . S
C359 C362 1.358 . S
C359 C363 1.332 . S
C359 C365 1.504 . S
C360 C361 1.373 . S
C360 C364 1.308 . S
C361 C360 1.373 . S
C361 C362 1.429 . S
C361 H388 0.932 . S
C362 C359 1.358 . S
C362 C361 1.429 . S
C362 H389 0.930 . S
C363 C359 1.332 . S
C363 C364 1.394 . S
C363 H390 0.932 . S
C364 C360 1.308 . S
C364 C363 1.394 . S
C364 H391 0.929 . S
C365 Tb356 2.764 . S
C365 C359 1.504 . S
C365 O377 1.239 . S
C365 O378 1.263 . S
O366 Tb356 2.325 . S
O366 C376 1.236 . S
O367 Tb357 2.322 . S
O367 C376 1.257 . S
O368 Tb357 2.349 . S
O368 C379 1.261 . S
O369 Tb356 2.303 . S
O369 C379 1.257 . S
O370 Tb357 2.415 . S
O370 C386 1.239 . S
O371 Tb357 2.399 . S
O371 C386 1.263 . S
O372 Tb357 2.325 . S
O372 C387 1.236 . S
O373 Tb356 2.322 . S
O373 C387 1.257 . S
O374 Tb356 2.349 . S
O374 C358 1.261 . S
O375 Tb357 2.303 . S
O375 C358 1.257 . S
C376 O366 1.236 . S
C376 O367 1.257 . S
O377 Tb356 2.415 . S
O377 C365 1.239 . S
O378 Tb356 2.399 . S
O378 C365 1.263 . S
C379 O368 1.261 . S
C379 O369 1.257 . S
C380 C383 1.358 . S
C380 C384 1.332 . S
C380 C386 1.504 . S
C381 C382 1.373 . S
C381 C385 1.308 . S
C382 C381 1.373 . S
C382 C383 1.429 . S
C382 H392 0.932 . S
C383 C380 1.358 . S
C383 C382 1.429 . S
C383 H393 0.930 . S
C384 C380 1.332 . S
C384 C385 1.394 . S
C384 H394 0.932 . S
C385 C381 1.308 . S
C385 C384 1.394 . S
C385 H395 0.929 . S
C386 Tb357 2.764 . S
C386 O370 1.239 . S
C386 O371 1.263 . S
C386 C380 1.504 . S
C387 O372 1.236 . S
C387 O373 1.257 . S
H388 C361 0.932 . S
H389 C362 0.930 . S
H390 C363 0.932 . S
H391 C364 0.929 . S
H392 C382 0.932 . S
H393 C383 0.930 . S
H394 C384 0.932 . S
H395 C385 0.929 . S
Tb396 C405 2.764 . S
Tb396 O406 2.325 . S
Tb396 O409 2.303 . S
Tb396 O413 2.322 . S
Tb396 O414 2.349 . S
Tb396 O417 2.415 . S
Tb396 O418 2.399 . S
Tb397 O407 2.322 . S
Tb397 O408 2.349 . S
Tb397 O410 2.415 . S
Tb397 O411 2.399 . S
Tb397 O412 2.325 . S
Tb397 O415 2.303 . S
Tb397 C426 2.764 . S
C398 O414 1.261 . S
C398 O415 1.257 . S
C399 C402 1.358 . S
C399 C403 1.332 . S
C399 C405 1.504 . S
C400 C401 1.373 . S
C400 C404 1.308 . S
C401 C400 1.373 . S
C401 C402 1.429 . S
C401 H428 0.932 . S
C402 C399 1.358 . S
C402 C401 1.429 . S
C402 H429 0.930 . S
C403 C399 1.332 . S
C403 C404 1.394 . S
C403 H430 0.932 . S
C404 C400 1.308 . S
C404 C403 1.394 . S
C404 H431 0.929 . S
C405 Tb396 2.764 . S
C405 C399 1.504 . S
C405 O417 1.239 . S
C405 O418 1.263 . S
O406 Tb396 2.325 . S
O406 C416 1.236 . S
O407 Tb397 2.322 . S
O407 C416 1.257 . S
O408 Tb397 2.349 . S
O408 C419 1.261 . S
O409 Tb396 2.303 . S
O409 C419 1.257 . S
O410 Tb397 2.415 . S
O410 C426 1.239 . S
O411 Tb397 2.399 . S
O411 C426 1.263 . S
O412 Tb397 2.325 . S
O412 C427 1.236 . S
O413 Tb396 2.322 . S
O413 C427 1.257 . S
O414 Tb396 2.349 . S
O414 C398 1.261 . S
O415 Tb397 2.303 . S
O415 C398 1.257 . S
C416 O406 1.236 . S
C416 O407 1.257 . S
O417 Tb396 2.415 . S
O417 C405 1.239 . S
O418 Tb396 2.399 . S
O418 C405 1.263 . S
C419 O408 1.261 . S
C419 O409 1.257 . S
C420 C423 1.358 . S
C420 C424 1.332 . S
C420 C426 1.504 . S
C421 C422 1.373 . S
C421 C425 1.308 . S
C422 C421 1.373 . S
C422 C423 1.429 . S
C422 H432 0.932 . S
C423 C420 1.358 . S
C423 C422 1.429 . S
C423 H433 0.930 . S
C424 C420 1.332 . S
C424 C425 1.394 . S
C424 H434 0.932 . S
C425 C421 1.308 . S
C425 C424 1.394 . S
C425 H435 0.929 . S
C426 Tb397 2.764 . S
C426 O410 1.239 . S
C426 O411 1.263 . S
C426 C420 1.504 . S
C427 O412 1.236 . S
C427 O413 1.257 . S
H428 C401 0.932 . S
H429 C402 0.930 . S
H430 C403 0.932 . S
H431 C404 0.929 . S
H432 C422 0.932 . S
H433 C423 0.930 . S
H434 C424 0.932 . S
H435 C425 0.929 . S
Tb436 C445 2.764 . S
Tb436 O446 2.325 . S
Tb436 O449 2.303 . S
Tb436 O453 2.322 . S
Tb436 O454 2.349 . S
Tb436 O457 2.415 . S
Tb436 O458 2.399 . S
Tb437 O447 2.322 . S
Tb437 O448 2.349 . S
Tb437 O450 2.415 . S
Tb437 O451 2.399 . S
Tb437 O452 2.325 . S
Tb437 O455 2.303 . S
Tb437 C466 2.764 . S
C438 O454 1.261 . S
C438 O455 1.257 . S
C439 C442 1.358 . S
C439 C443 1.332 . S
C439 C445 1.504 . S
C440 C441 1.373 . S
C440 C444 1.308 . S
C441 C440 1.373 . S
C441 C442 1.429 . S
C441 H468 0.932 . S
C442 C439 1.358 . S
C442 C441 1.429 . S
C442 H469 0.930 . S
C443 C439 1.332 . S
C443 C444 1.394 . S
C443 H470 0.932 . S
C444 C440 1.308 . S
C444 C443 1.394 . S
C444 H471 0.929 . S
C445 Tb436 2.764 . S
C445 C439 1.504 . S
C445 O457 1.239 . S
C445 O458 1.263 . S
O446 Tb436 2.325 . S
O446 C456 1.236 . S
O447 Tb437 2.322 . S
O447 C456 1.257 . S
O448 Tb437 2.349 . S
O448 C459 1.261 . S
O449 Tb436 2.303 . S
O449 C459 1.257 . S
O450 Tb437 2.415 . S
O450 C466 1.239 . S
O451 Tb437 2.399 . S
O451 C466 1.263 . S
O452 Tb437 2.325 . S
O452 C467 1.236 . S
O453 Tb436 2.322 . S
O453 C467 1.257 . S
O454 Tb436 2.349 . S
O454 C438 1.261 . S
O455 Tb437 2.303 . S
O455 C438 1.257 . S
C456 O446 1.236 . S
C456 O447 1.257 . S
O457 Tb436 2.415 . S
O457 C445 1.239 . S
O458 Tb436 2.399 . S
O458 C445 1.263 . S
C459 O448 1.261 . S
C459 O449 1.257 . S
C460 C463 1.358 . S
C460 C464 1.332 . S
C460 C466 1.504 . S
C461 C462 1.373 . S
C461 C465 1.308 . S
C462 C461 1.373 . S
C462 C463 1.429 . S
C462 H472 0.932 1_556 S
C463 C460 1.358 . S
C463 C462 1.429 . S
C463 H473 0.930 . S
C464 C460 1.332 . S
C464 C465 1.394 . S
C464 H474 0.932 . S
C465 C461 1.308 . S
C465 C464 1.394 . S
C465 H475 0.929 . S
C466 Tb437 2.764 . S
C466 O450 1.239 . S
C466 O451 1.263 . S
C466 C460 1.504 . S
C467 O452 1.236 . S
C467 O453 1.257 . S
H468 C441 0.932 . S
H469 C442 0.930 . S
H470 C443 0.932 . S
H471 C444 0.929 . S
H472 C462 0.932 1_554 S
H473 C463 0.930 . S
H474 C464 0.932 . S
H475 C465 0.929 . S
Tb476 C485 2.764 . S
Tb476 O486 2.325 . S
Tb476 O489 2.303 . S
Tb476 O493 2.322 . S
Tb476 O494 2.349 . S
Tb476 O497 2.415 . S
Tb476 O498 2.399 . S
Tb477 O487 2.322 . S
Tb477 O488 2.349 . S
Tb477 O490 2.415 . S
Tb477 O491 2.399 . S
Tb477 O492 2.325 . S
Tb477 O495 2.303 . S
Tb477 C506 2.764 . S
C478 O494 1.261 . S
C478 O495 1.257 . S
C479 C482 1.358 . S
C479 C483 1.332 . S
C479 C485 1.504 . S
C480 C481 1.373 . S
C480 C484 1.308 . S
C481 C480 1.373 . S
C481 C482 1.429 . S
C481 H508 0.932 . S
C482 C479 1.358 . S
C482 C481 1.429 . S
C482 H509 0.930 . S
C483 C479 1.332 . S
C483 C484 1.394 . S
C483 H510 0.932 . S
C484 C480 1.308 . S
C484 C483 1.394 . S
C484 H511 0.929 . S
C485 Tb476 2.764 . S
C485 C479 1.504 . S
C485 O497 1.239 . S
C485 O498 1.263 . S
O486 Tb476 2.325 . S
O486 C496 1.236 . S
O487 Tb477 2.322 . S
O487 C496 1.257 . S
O488 Tb477 2.349 . S
O488 C499 1.261 . S
O489 Tb476 2.303 . S
O489 C499 1.257 . S
O490 Tb477 2.415 . S
O490 C506 1.239 . S
O491 Tb477 2.399 . S
O491 C506 1.263 . S
O492 Tb477 2.325 . S
O492 C507 1.236 . S
O493 Tb476 2.322 . S
O493 C507 1.257 . S
O494 Tb476 2.349 . S
O494 C478 1.261 . S
O495 Tb477 2.303 . S
O495 C478 1.257 . S
C496 O486 1.236 . S
C496 O487 1.257 . S
O497 Tb476 2.415 . S
O497 C485 1.239 . S
O498 Tb476 2.399 . S
O498 C485 1.263 . S
C499 O488 1.261 . S
C499 O489 1.257 . S
C500 C503 1.358 . S
C500 C504 1.332 . S
C500 C506 1.504 . S
C501 C502 1.373 . S
C501 C505 1.308 . S
C502 C501 1.373 . S
C502 C503 1.429 . S
C502 H512 0.932 . S
C503 C500 1.358 . S
C503 C502 1.429 . S
C503 H513 0.930 . S
C504 C500 1.332 . S
C504 C505 1.394 . S
C504 H514 0.932 . S
C505 C501 1.308 . S
C505 C504 1.394 . S
C505 H515 0.929 . S
C506 Tb477 2.764 . S
C506 O490 1.239 . S
C506 O491 1.263 . S
C506 C500 1.504 . S
C507 O492 1.236 . S
C507 O493 1.257 . S
H508 C481 0.932 . S
H509 C482 0.930 . S
H510 C483 0.932 . S
H511 C484 0.929 . S
H512 C502 0.932 . S
H513 C503 0.930 . S
H514 C504 0.932 . S
H515 C505 0.929 . S
Tb516 C525 2.764 . S
Tb516 O526 2.325 . S
Tb516 O529 2.303 . S
Tb516 O533 2.322 . S
Tb516 O534 2.349 . S
Tb516 O537 2.415 . S
Tb516 O538 2.399 . S
Tb517 O527 2.322 . S
Tb517 O528 2.349 . S
Tb517 O530 2.415 . S
Tb517 O531 2.399 . S
Tb517 O532 2.325 . S
Tb517 O535 2.303 . S
Tb517 C546 2.764 . S
C518 O534 1.261 . S
C518 O535 1.257 . S
C519 C522 1.358 . S
C519 C523 1.332 . S
C519 C525 1.504 . S
C520 C521 1.373 . S
C520 C524 1.308 . S
C521 C520 1.373 . S
C521 C522 1.429 . S
C521 H548 0.932 1_556 S
C522 C519 1.358 . S
C522 C521 1.429 . S
C522 H549 0.930 . S
C523 C519 1.332 . S
C523 C524 1.394 . S
C523 H550 0.932 . S
C524 C520 1.308 . S
C524 C523 1.394 . S
C524 H551 0.929 . S
C525 Tb516 2.764 . S
C525 C519 1.504 . S
C525 O537 1.239 . S
C525 O538 1.263 . S
O526 Tb516 2.325 . S
O526 C536 1.236 . S
O527 Tb517 2.322 . S
O527 C536 1.257 . S
O528 Tb517 2.349 . S
O528 C539 1.261 . S
O529 Tb516 2.303 . S
O529 C539 1.257 . S
O530 Tb517 2.415 . S
O530 C546 1.239 . S
O531 Tb517 2.399 . S
O531 C546 1.263 . S
O532 Tb517 2.325 . S
O532 C547 1.236 . S
O533 Tb516 2.322 . S
O533 C547 1.257 . S
O534 Tb516 2.349 . S
O534 C518 1.261 . S
O535 Tb517 2.303 . S
O535 C518 1.257 . S
C536 O526 1.236 . S
C536 O527 1.257 . S
O537 Tb516 2.415 . S
O537 C525 1.239 . S
O538 Tb516 2.399 . S
O538 C525 1.263 . S
C539 O528 1.261 . S
C539 O529 1.257 . S
C540 C543 1.358 . S
C540 C544 1.332 . S
C540 C546 1.504 . S
C541 C542 1.373 . S
C541 C545 1.308 . S
C542 C541 1.373 . S
C542 C543 1.429 . S
C542 H552 0.932 . S
C543 C540 1.358 . S
C543 C542 1.429 . S
C543 H553 0.930 . S
C544 C540 1.332 . S
C544 C545 1.394 . S
C544 H554 0.932 . S
C545 C541 1.308 . S
C545 C544 1.394 . S
C545 H555 0.929 . S
C546 Tb517 2.764 . S
C546 O530 1.239 . S
C546 O531 1.263 . S
C546 C540 1.504 . S
C547 O532 1.236 . S
C547 O533 1.257 . S
H548 C521 0.932 1_554 S
H549 C522 0.930 . S
H550 C523 0.932 . S
H551 C524 0.929 . S
H552 C542 0.932 . S
H553 C543 0.930 . S
H554 C544 0.932 . S
H555 C545 0.929 . S
Tb556 C565 2.764 . S
Tb556 O566 2.325 . S
Tb556 O569 2.303 . S
Tb556 O573 2.322 . S
Tb556 O574 2.349 . S
Tb556 O577 2.415 . S
Tb556 O578 2.399 . S
Tb557 O567 2.322 . S
Tb557 O568 2.349 . S
Tb557 O570 2.415 . S
Tb557 O571 2.399 . S
Tb557 O572 2.325 . S
Tb557 O575 2.303 . S
Tb557 C586 2.764 . S
C558 O574 1.261 . S
C558 O575 1.257 . S
C559 C562 1.358 . S
C559 C563 1.332 . S
C559 C565 1.504 . S
C560 C561 1.373 . S
C560 C564 1.308 . S
C561 C560 1.373 . S
C561 C562 1.429 . S
C561 H588 0.932 . S
C562 C559 1.358 . S
C562 C561 1.429 . S
C562 H589 0.930 . S
C563 C559 1.332 . S
C563 C564 1.394 . S
C563 H590 0.932 . S
C564 C560 1.308 . S
C564 C563 1.394 . S
C564 H591 0.929 . S
C565 Tb556 2.764 . S
C565 C559 1.504 . S
C565 O577 1.239 . S
C565 O578 1.263 . S
O566 Tb556 2.325 . S
O566 C576 1.236 . S
O567 Tb557 2.322 . S
O567 C576 1.257 . S
O568 Tb557 2.349 . S
O568 C579 1.261 . S
O569 Tb556 2.303 . S
O569 C579 1.257 . S
O570 Tb557 2.415 . S
O570 C586 1.239 . S
O571 Tb557 2.399 . S
O571 C586 1.263 . S
O572 Tb557 2.325 . S
O572 C587 1.236 . S
O573 Tb556 2.322 . S
O573 C587 1.257 . S
O574 Tb556 2.349 . S
O574 C558 1.261 . S
O575 Tb557 2.303 . S
O575 C558 1.257 . S
C576 O566 1.236 . S
C576 O567 1.257 . S
O577 Tb556 2.415 . S
O577 C565 1.239 . S
O578 Tb556 2.399 . S
O578 C565 1.263 . S
C579 O568 1.261 . S
C579 O569 1.257 . S
C580 C583 1.358 . S
C580 C584 1.332 . S
C580 C586 1.504 . S
C581 C582 1.373 . S
C581 C585 1.308 . S
C582 C581 1.373 . S
C582 C583 1.429 . S
C582 H592 0.932 . S
C583 C580 1.358 . S
C583 C582 1.429 . S
C583 H593 0.930 . S
C584 C580 1.332 . S
C584 C585 1.394 . S
C584 H594 0.932 . S
C585 C581 1.308 . S
C585 C584 1.394 . S
C585 H595 0.929 . S
C586 Tb557 2.764 . S
C586 O570 1.239 . S
C586 O571 1.263 . S
C586 C580 1.504 . S
C587 O572 1.236 . S
C587 O573 1.257 . S
H588 C561 0.932 . S
H589 C562 0.930 . S
H590 C563 0.932 . S
H591 C564 0.929 . S
H592 C582 0.932 . S
H593 C583 0.930 . S
H594 C584 0.932 . S
H595 C585 0.929 . S
C596 C597 1.387 . S
C596 H600 0.950 . S
C596 C605 1.390 . S
C597 C596 1.387 . S
C597 C599 1.387 . S
H598 C605 0.950 . S
C599 C597 1.387 . S
C599 C601 1.390 . S
C599 H603 0.950 . S
H600 C596 0.950 . S
C601 C599 1.390 . S
C601 C602 1.387 . S
C601 H604 0.950 . S
C602 C601 1.387 . S
C602 C605 1.387 . S
H603 C599 0.950 . S
H604 C601 0.950 . S
C605 C596 1.390 . S
C605 H598 0.950 . S
C605 C602 1.387 . S
C606 C607 1.387 . S
C606 H610 0.950 . S
C606 C615 1.390 . S
C607 C606 1.387 . S
C607 C609 1.387 . S
H608 C615 0.950 . S
C609 C607 1.387 . S
C609 C611 1.390 . S
C609 H613 0.950 . S
H610 C606 0.950 . S
C611 C609 1.390 . S
C611 C612 1.387 . S
C611 H614 0.950 . S
C612 C611 1.387 . S
C612 C615 1.387 . S
H613 C609 0.950 . S
H614 C611 0.950 . S
C615 C606 1.390 . S
C615 H608 0.950 . S
C615 C612 1.387 . S
C616 C617 1.387 . S
C616 H620 0.950 1_655 S
C616 C625 1.390 . S
C617 C616 1.387 . S
C617 C619 1.387 . S
H618 C625 0.950 1_455 S
C619 C617 1.387 . S
C619 C621 1.390 . S
C619 H623 0.950 . S
H620 C616 0.950 1_455 S
C621 C619 1.390 . S
C621 C622 1.387 . S
C621 H624 0.950 . S
C622 C621 1.387 . S
C622 C625 1.387 . S
H623 C619 0.950 . S
H624 C621 0.950 . S
C625 C616 1.390 . S
C625 H618 0.950 1_655 S
C625 C622 1.387 . S
C626 C627 1.387 . S
C626 H630 0.950 . S
C626 C635 1.390 . S
C627 C626 1.387 . S
C627 C629 1.387 . S
H628 C635 0.950 . S
C629 C627 1.387 . S
C629 C631 1.390 . S
C629 H633 0.950 . S
H630 C626 0.950 . S
C631 C629 1.390 . S
C631 C632 1.387 . S
C631 H634 0.950 . S
C632 C631 1.387 . S
C632 C635 1.387 . S
H633 C629 0.950 . S
H634 C631 0.950 . S
C635 C626 1.390 . S
C635 H628 0.950 . S
C635 C632 1.387 . S
C636 C637 1.387 . S
C636 H640 0.950 . S
C636 C645 1.390 . S
C637 C636 1.387 . S
C637 C639 1.387 . S
H638 C645 0.950 . S
C639 C637 1.387 . S
C639 C641 1.390 . S
C639 H643 0.950 . S
H640 C636 0.950 . S
C641 C639 1.390 . S
C641 C642 1.387 . S
C641 H644 0.950 . S
C642 C641 1.387 . S
C642 C645 1.387 . S
H643 C639 0.950 . S
H644 C641 0.950 . S
C645 C636 1.390 . S
C645 H638 0.950 . S
C645 C642 1.387 . S
C646 C647 1.387 . S
C646 H650 0.950 . S
C646 C655 1.390 . S
C647 C646 1.387 . S
C647 C649 1.387 . S
H648 C655 0.950 . S
C649 C647 1.387 . S
C649 C651 1.390 . S
C649 H653 0.950 . S
H650 C646 0.950 . S
C651 C649 1.390 . S
C651 C652 1.387 . S
C651 H654 0.950 . S
C652 C651 1.387 . S
C652 C655 1.387 . S
H653 C649 0.950 . S
H654 C651 0.950 . S
C655 C646 1.390 . S
C655 H648 0.950 . S
C655 C652 1.387 . S
C656 C657 1.387 . S
C656 H660 0.950 . S
C656 C665 1.390 . S
C657 C656 1.387 . S
C657 C659 1.387 . S
H658 C665 0.950 . S
C659 C657 1.387 . S
C659 C661 1.390 . S
C659 H663 0.950 . S
H660 C656 0.950 . S
C661 C659 1.390 . S
C661 C662 1.387 . S
C661 H664 0.950 . S
C662 C661 1.387 . S
C662 C665 1.387 . S
H663 C659 0.950 . S
H664 C661 0.950 . S
C665 C656 1.390 . S
C665 H658 0.950 . S
C665 C662 1.387 . S
C666 C667 1.387 . S
C666 H670 0.950 . S
C666 C675 1.399 . S
C667 C666 1.387 . S
C667 C669 1.387 1_545 S
H668 C675 0.950 . S
C669 C667 1.387 1_565 S
C669 C671 1.390 . S
C669 H673 0.950 . S
H670 C666 0.950 . S
C671 C669 1.390 . S
C671 C672 1.387 . S
C671 H674 0.950 . S
C672 C671 1.387 . S
C672 C675 1.378 1_565 S
H673 C669 0.950 . S
H674 C671 0.950 . S
C675 C666 1.399 . S
C675 H668 0.950 . S
C675 C672 1.378 1_545 S
C676 C677 1.387 . S
C676 H680 0.950 . S
C676 C685 1.390 . S
C677 C676 1.387 . S
C677 C679 1.387 . S
H678 C685 0.950 . S
C679 C677 1.387 . S
C679 C681 1.390 . S
C679 H683 0.950 . S
H680 C676 0.950 . S
C681 C679 1.390 . S
C681 C682 1.387 . S
C681 H684 0.950 . S
C682 C681 1.387 . S
C682 C685 1.387 . S
H683 C679 0.950 . S
H684 C681 0.950 . S
C685 C676 1.390 . S
C685 H678 0.950 . S
C685 C682 1.387 . S
C686 C687 1.387 . S
C686 H690 0.950 . S
C686 C695 1.390 . S
C687 C686 1.387 . S
C687 C689 1.387 . S
H688 C695 0.950 . S
C689 C687 1.387 . S
C689 C691 1.390 . S
C689 H693 0.950 . S
H690 C686 0.950 . S
C691 C689 1.390 . S
C691 C692 1.387 . S
C691 H694 0.950 . S
C692 C691 1.387 . S
C692 C695 1.387 . S
H693 C689 0.950 . S
H694 C691 0.950 . S
C695 C686 1.390 . S
C695 H688 0.950 . S
C695 C692 1.387 . S
C696 C697 1.387 . S
C696 H700 0.950 . S
C696 C705 1.390 . S
C697 C696 1.387 . S
C697 C699 1.387 . S
H698 C705 0.950 . S
C699 C697 1.387 . S
C699 C701 1.390 . S
C699 H703 0.950 . S
H700 C696 0.950 . S
C701 C699 1.390 . S
C701 C702 1.387 . S
C701 H704 0.950 . S
C702 C701 1.387 . S
C702 C705 1.387 . S
H703 C699 0.950 . S
H704 C701 0.950 . S
C705 C696 1.390 . S
C705 H698 0.950 . S
C705 C702 1.387 . S
C706 C707 1.387 . S
C706 H710 0.950 . S
C706 C715 1.390 . S
C707 C706 1.387 . S
C707 C709 1.387 . S
H708 C715 0.950 . S
C709 C707 1.387 . S
C709 C711 1.390 . S
C709 H713 0.950 . S
H710 C706 0.950 . S
C711 C709 1.390 . S
C711 C712 1.387 . S
C711 H714 0.950 . S
C712 C711 1.387 . S
C712 C715 1.387 . S
H713 C709 0.950 . S
H714 C711 0.950 . S
C715 C706 1.390 . S
C715 H708 0.950 . S
C715 C712 1.387 . S
C716 C717 1.387 1_566 S
C716 H720 0.950 1_565 S
C716 C725 1.390 . S
C717 C716 1.387 1_544 S
C717 C719 1.387 1_545 S
H718 C725 0.950 . S
C719 C717 1.387 1_565 S
C719 C721 1.390 . S
C719 H723 0.950 1_565 S
H720 C716 0.950 1_545 S
C721 C719 1.390 . S
C721 C722 1.387 . S
C721 H724 0.950 . S
C722 C721 1.387 . S
C722 C725 1.387 1_554 S
H723 C719 0.950 1_545 S
H724 C721 0.950 . S
C725 C716 1.390 . S
C725 H718 0.950 . S
C725 C722 1.387 1_556 S
C726 C727 1.387 . S
C726 H730 0.950 . S
C726 C735 1.390 . S
C727 C726 1.387 . S
C727 C729 1.387 . S
H728 C735 0.950 . S
C729 C727 1.387 . S
C729 C731 1.390 . S
C729 H733 0.950 . S
H730 C726 0.950 . S
C731 C729 1.390 . S
C731 C732 1.387 . S
C731 H734 0.950 . S
C732 C731 1.387 . S
C732 C735 1.387 . S
H733 C729 0.950 . S
H734 C731 0.950 . S
C735 C726 1.390 . S
C735 H728 0.950 . S
C735 C732 1.387 . S
C736 C737 1.387 . S
C736 H740 0.950 . S
C736 C745 1.390 . S
C737 C736 1.387 . S
C737 C739 1.387 . S
H738 C745 0.950 . S
C739 C737 1.387 . S
C739 C741 1.390 . S
C739 H743 0.950 . S
H740 C736 0.950 . S
C741 C739 1.390 . S
C741 C742 1.387 . S
C741 H744 0.950 . S
C742 C741 1.387 . S
C742 C745 1.387 . S
H743 C739 0.950 . S
H744 C741 0.950 . S
C745 C736 1.390 . S
C745 H738 0.950 . S
C745 C742 1.387 . S
C746 C747 1.387 . S
C746 H750 0.950 . S
C746 C755 1.390 . S
C747 C746 1.387 . S
C747 C749 1.387 . S
H748 C755 0.950 . S
C749 C747 1.387 . S
C749 C751 1.390 . S
C749 H753 0.950 . S
H750 C746 0.950 . S
C751 C749 1.390 . S
C751 C752 1.387 . S
C751 H754 0.950 . S
C752 C751 1.387 . S
C752 C755 1.387 . S
H753 C749 0.950 . S
H754 C751 0.950 . S
C755 C746 1.390 . S
C755 H748 0.950 . S
C755 C752 1.387 . S
C756 C757 1.387 . S
C756 H760 0.950 . S
C756 C765 1.390 . S
C757 C756 1.387 . S
C757 C759 1.387 . S
H758 C765 0.950 . S
C759 C757 1.387 . S
C759 C761 1.390 . S
C759 H763 0.950 . S
H760 C756 0.950 . S
C761 C759 1.390 . S
C761 C762 1.387 . S
C761 H764 0.950 . S
C762 C761 1.387 . S
C762 C765 1.387 . S
H763 C759 0.950 . S
H764 C761 0.950 . S
C765 C756 1.390 . S
C765 H758 0.950 . S
C765 C762 1.387 . S
C766 C767 1.387 . S
C766 H770 0.950 . S
C766 C775 1.390 . S
C767 C766 1.387 . S
C767 C769 1.387 . S
H768 C775 0.950 . S
C769 C767 1.387 . S
C769 C771 1.390 . S
C769 H773 0.950 . S
H770 C766 0.950 . S
C771 C769 1.390 . S
C771 C772 1.387 . S
C771 H774 0.950 . S
C772 C771 1.387 . S
C772 C775 1.387 . S
H773 C769 0.950 . S
H774 C771 0.950 . S
C775 C766 1.390 . S
C775 H768 0.950 . S
C775 C772 1.387 . S
C776 C777 1.387 1_556 S
C776 H780 0.950 1_556 S
C776 C785 1.390 . S
C777 C776 1.387 1_554 S
C777 C779 1.387 1_554 S
H778 C785 0.950 . S
C779 C777 1.387 1_556 S
C779 C781 1.390 . S
C779 H783 0.950 . S
H780 C776 0.950 1_554 S
C781 C779 1.390 . S
C781 C782 1.387 . S
C781 H784 0.950 . S
C782 C781 1.387 . S
C782 C785 1.387 . S
H783 C779 0.950 . S
H784 C781 0.950 . S
C785 C776 1.390 . S
C785 H778 0.950 . S
C785 C782 1.387 . S
C786 C787 1.387 1_655 S
C786 H790 0.950 . S
C786 C795 1.390 . S
C787 C786 1.387 1_455 S
C787 C789 1.387 1_554 S
H788 C795 0.950 . S
C789 C787 1.387 1_556 S
C789 C791 1.390 1_455 S
C789 H793 0.950 . S
H790 C786 0.950 . S
C791 C789 1.390 1_655 S
C791 C792 1.387 1_556 S
C791 H794 0.950 . S
C792 C791 1.387 1_554 S
C792 C795 1.387 . S
H793 C789 0.950 . S
H794 C791 0.950 . S
C795 C786 1.390 . S
C795 H788 0.950 . S
C795 C792 1.387 . S
C796 C797 1.387 . S
C796 H800 0.950 . S
C796 C805 1.390 . S
C797 C796 1.387 . S
C797 C799 1.387 . S
H798 C805 0.950 . S
C799 C797 1.387 . S
C799 C801 1.390 . S
C799 H803 0.950 . S
H800 C796 0.950 . S
C801 C799 1.390 . S
C801 C802 1.387 . S
C801 H804 0.950 . S
C802 C801 1.387 . S
C802 C805 1.387 . S
H803 C799 0.950 . S
H804 C801 0.950 . S
C805 C796 1.390 . S
C805 H798 0.950 . S
C805 C802 1.387 . S
C806 C807 1.387 . S
C806 H810 0.950 . S
C806 C815 1.390 . S
C807 C806 1.387 . S
C807 C809 1.387 . S
H808 C815 0.950 . S
C809 C807 1.387 . S
C809 C811 1.390 . S
C809 H813 0.950 . S
H810 C806 0.950 . S
C811 C809 1.390 . S
C811 C812 1.387 . S
C811 H814 0.950 . S
C812 C811 1.387 . S
C812 C815 1.387 . S
H813 C809 0.950 . S
H814 C811 0.950 . S
C815 C806 1.390 . S
C815 H808 0.950 . S
C815 C812 1.387 . S
C816 C817 1.386 1_565 S
C816 H820 0.950 . S
C816 C825 1.390 . S
C817 C816 1.386 1_545 S
C817 C819 1.379 1_545 S
H818 C825 0.950 . S
C819 C817 1.379 1_565 S
C819 C821 1.390 . S
C819 H823 0.950 . S
H820 C816 0.950 . S
C821 C819 1.390 . S
C821 C822 1.387 . S
C821 H824 0.950 . S
C822 C821 1.387 . S
C822 C825 1.387 . S
H823 C819 0.950 . S
H824 C821 0.950 . S
C825 C816 1.390 . S
C825 H818 0.950 . S
C825 C822 1.387 . S
C826 C827 1.387 . S
C826 H830 0.950 . S
C826 C835 1.390 . S
C827 C826 1.387 . S
C827 C829 1.387 . S
H828 C835 0.950 . S
C829 C827 1.387 . S
C829 C831 1.390 . S
C829 H833 0.950 . S
H830 C826 0.950 . S
C831 C829 1.390 . S
C831 C832 1.387 . S
C831 H834 0.950 . S
C832 C831 1.387 . S
C832 C835 1.387 . S
H833 C829 0.950 . S
H834 C831 0.950 . S
C835 C826 1.390 . S
C835 H828 0.950 . S
C835 C832 1.387 . S
C836 C837 1.387 . S
C836 H840 0.950 . S
C836 C845 1.390 . S
C837 C836 1.387 . S
C837 C839 1.387 . S
H838 C845 0.950 . S
C839 C837 1.387 . S
C839 C841 1.390 . S
C839 H843 0.950 . S
H840 C836 0.950 . S
C841 C839 1.390 . S
C841 C842 1.387 . S
C841 H844 0.950 . S
C842 C841 1.387 . S
C842 C845 1.387 . S
H843 C839 0.950 . S
H844 C841 0.950 . S
C845 C836 1.390 . S
C845 H838 0.950 . S
C845 C842 1.387 . S
C846 C847 1.387 . S
C846 H850 0.950 . S
C846 C855 1.390 . S
C847 C846 1.387 . S
C847 C849 1.387 . S
H848 C855 0.950 . S
C849 C847 1.387 . S
C849 C851 1.390 . S
C849 H853 0.950 . S
H850 C846 0.950 . S
C851 C849 1.390 . S
C851 C852 1.387 . S
C851 H854 0.950 . S
C852 C851 1.387 . S
C852 C855 1.387 . S
H853 C849 0.950 . S
H854 C851 0.950 . S
C855 C846 1.390 . S
C855 H848 0.950 . S
C855 C852 1.387 . S
C856 C857 1.387 . S
C856 H860 0.950 . S
C856 C865 1.390 . S
C857 C856 1.387 . S
C857 C859 1.387 . S
H858 C865 0.950 . S
C859 C857 1.387 . S
C859 C861 1.390 . S
C859 H863 0.950 . S
H860 C856 0.950 . S
C861 C859 1.390 . S
C861 C862 1.387 . S
C861 H864 0.950 . S
C862 C861 1.387 . S
C862 C865 1.387 . S
H863 C859 0.950 . S
H864 C861 0.950 . S
C865 C856 1.390 . S
C865 H858 0.950 . S
C865 C862 1.387 . S
C866 C867 1.387 . S
C866 H870 0.950 . S
C866 C875 1.390 . S
C867 C866 1.387 . S
C867 C869 1.387 . S
H868 C875 0.950 . S
C869 C867 1.387 . S
C869 C871 1.390 . S
C869 H873 0.950 . S
H870 C866 0.950 . S
C871 C869 1.390 . S
C871 C872 1.387 . S
C871 H874 0.950 . S
C872 C871 1.387 . S
C872 C875 1.387 . S
H873 C869 0.950 . S
H874 C871 0.950 . S
C875 C866 1.390 . S
C875 H868 0.950 . S
C875 C872 1.387 . S
C876 C877 1.387 . S
C876 H880 0.950 . S
C876 C885 1.390 . S
C877 C876 1.387 . S
C877 C879 1.387 . S
H878 C885 0.950 . S
C879 C877 1.387 . S
C879 C881 1.390 . S
C879 H883 0.950 . S
H880 C876 0.950 . S
C881 C879 1.390 . S
C881 C882 1.387 . S
C881 H884 0.950 . S
C882 C881 1.387 . S
C882 C885 1.387 . S
H883 C879 0.950 . S
H884 C881 0.950 . S
C885 C876 1.390 . S
C885 H878 0.950 . S
C885 C882 1.387 . S
C886 C887 1.387 . S
C886 H890 0.950 . S
C886 C895 1.390 . S
C887 C886 1.387 . S
C887 C889 1.387 . S
H888 C895 0.950 . S
C889 C887 1.387 . S
C889 C891 1.390 . S
C889 H893 0.950 . S
H890 C886 0.950 . S
C891 C889 1.390 . S
C891 C892 1.387 . S
C891 H894 0.950 . S
C892 C891 1.387 . S
C892 C895 1.387 . S
H893 C889 0.950 . S
H894 C891 0.950 . S
C895 C886 1.390 . S
C895 H888 0.950 . S
C895 C892 1.387 . S
C896 C897 1.387 . S
C896 H900 0.950 . S
C896 C905 1.390 . S
C897 C896 1.387 . S
C897 C899 1.387 . S
H898 C905 0.950 . S
C899 C897 1.387 . S
C899 C901 1.390 . S
C899 H903 0.950 . S
H900 C896 0.950 . S
C901 C899 1.390 . S
C901 C902 1.387 . S
C901 H904 0.950 . S
C902 C901 1.387 . S
C902 C905 1.387 . S
H903 C899 0.950 . S
H904 C901 0.950 . S
C905 C896 1.390 . S
C905 H898 0.950 . S
C905 C902 1.387 . S
C906 C907 1.387 . S
C906 H910 0.950 . S
C906 C915 1.390 . S
C907 C906 1.387 . S
C907 C909 1.387 . S
H908 C915 0.950 . S
C909 C907 1.387 . S
C909 C911 1.390 . S
C909 H913 0.950 . S
H910 C906 0.950 . S
C911 C909 1.390 . S
C911 C912 1.387 . S
C911 H914 0.950 . S
C912 C911 1.387 . S
C912 C915 1.387 . S
H913 C909 0.950 . S
H914 C911 0.950 . S
C915 C906 1.390 . S
C915 H908 0.950 . S
C915 C912 1.387 . S
C916 C917 1.387 . S
C916 H920 0.950 . S
C916 C925 1.390 . S
C917 C916 1.387 . S
C917 C919 1.387 . S
H918 C925 0.950 . S
C919 C917 1.387 . S
C919 C921 1.390 . S
C919 H923 0.950 . S
H920 C916 0.950 . S
C921 C919 1.390 . S
C921 C922 1.387 . S
C921 H924 0.950 . S
C922 C921 1.387 . S
C922 C925 1.387 . S
H923 C919 0.950 . S
H924 C921 0.950 . S
C925 C916 1.390 . S
C925 H918 0.950 . S
C925 C922 1.387 . S
C926 C927 1.387 . S
C926 H930 0.950 . S
C926 C935 1.390 . S
C927 C926 1.387 . S
C927 C929 1.387 . S
H928 C935 0.950 . S
C929 C927 1.387 . S
C929 C931 1.390 . S
C929 H933 0.950 . S
H930 C926 0.950 . S
C931 C929 1.390 . S
C931 C932 1.387 . S
C931 H934 0.950 . S
C932 C931 1.387 . S
C932 C935 1.387 . S
H933 C929 0.950 . S
H934 C931 0.950 . S
C935 C926 1.390 . S
C935 H928 0.950 . S
C935 C932 1.387 . S
C936 C937 1.387 . S
C936 H940 0.950 . S
C936 C945 1.390 . S
C937 C936 1.387 . S
C937 C939 1.387 . S
H938 C945 0.950 . S
C939 C937 1.387 . S
C939 C941 1.390 . S
C939 H943 0.950 . S
H940 C936 0.950 . S
C941 C939 1.390 . S
C941 C942 1.387 . S
C941 H944 0.950 . S
C942 C941 1.387 . S
C942 C945 1.387 . S
H943 C939 0.950 . S
H944 C941 0.950 . S
C945 C936 1.390 . S
C945 H938 0.950 . S
C945 C942 1.387 . S
C946 C947 1.387 . S
C946 H950 0.950 . S
C946 C955 1.390 . S
C947 C946 1.387 . S
C947 C949 1.387 . S
H948 C955 0.950 . S
C949 C947 1.387 . S
C949 C951 1.390 . S
C949 H953 0.950 . S
H950 C946 0.950 . S
C951 C949 1.390 . S
C951 C952 1.387 . S
C951 H954 0.950 . S
C952 C951 1.387 . S
C952 C955 1.387 . S
H953 C949 0.950 . S
H954 C951 0.950 . S
C955 C946 1.390 . S
C955 H948 0.950 . S
C955 C952 1.387 . S
C956 C957 1.387 . S
C956 H960 0.950 . S
C956 C965 1.390 . S
C957 C956 1.387 . S
C957 C959 1.387 . S
H958 C965 0.950 . S
C959 C957 1.387 . S
C959 C961 1.390 . S
C959 H963 0.950 . S
H960 C956 0.950 . S
C961 C959 1.390 . S
C961 C962 1.387 . S
C961 H964 0.950 . S
C962 C961 1.387 . S
C962 C965 1.387 . S
H963 C959 0.950 . S
H964 C961 0.950 . S
C965 C956 1.390 . S
C965 H958 0.950 . S
C965 C962 1.387 . S
C966 C967 1.387 . S
C966 H970 0.950 . S
C966 C975 1.390 . S
C967 C966 1.387 . S
C967 C969 1.387 . S
H968 C975 0.950 . S
C969 C967 1.387 . S
C969 C971 1.390 . S
C969 H973 0.950 . S
H970 C966 0.950 . S
C971 C969 1.390 . S
C971 C972 1.387 . S
C971 H974 0.950 . S
C972 C971 1.387 . S
C972 C975 1.387 . S
H973 C969 0.950 . S
H974 C971 0.950 . S
C975 C966 1.390 . S
C975 H968 0.950 . S
C975 C972 1.387 . S
C976 C977 1.387 . S
C976 H980 0.950 . S
C976 C985 1.390 . S
C977 C976 1.387 . S
C977 C979 1.387 . S
H978 C985 0.950 . S
C979 C977 1.387 . S
C979 C981 1.390 . S
C979 H983 0.950 . S
H980 C976 0.950 . S
C981 C979 1.390 . S
C981 C982 1.387 . S
C981 H984 0.950 . S
C982 C981 1.387 . S
C982 C985 1.387 . S
H983 C979 0.950 . S
H984 C981 0.950 . S
C985 C976 1.390 . S
C985 H978 0.950 . S
C985 C982 1.387 . S
C986 C987 1.387 . S
C986 H990 0.950 . S
C986 C995 1.390 . S
C987 C986 1.387 . S
C987 C989 1.387 . S
H988 C995 0.950 . S
C989 C987 1.387 . S
C989 C991 1.390 . S
C989 H993 0.950 . S
H990 C986 0.950 . S
C991 C989 1.390 . S
C991 C992 1.387 . S
C991 H994 0.950 . S
C992 C991 1.387 . S
C992 C995 1.387 . S
H993 C989 0.950 . S
H994 C991 0.950 . S
C995 C986 1.390 . S
C995 H988 0.950 . S
C995 C992 1.387 . S
C996 C997 1.387 . S
C996 H1000 0.950 . S
C996 C1005 1.390 . S
C997 C996 1.387 . S
C997 C999 1.387 . S
H998 C1005 0.950 . S
C999 C997 1.387 . S
C999 C1001 1.390 . S
C999 H1003 0.950 . S
H1000 C996 0.950 . S
C1001 C999 1.390 . S
C1001 C1002 1.387 . S
C1001 H1004 0.950 . S
C1002 C1001 1.387 . S
C1002 C1005 1.387 . S
H1003 C999 0.950 . S
H1004 C1001 0.950 . S
C1005 C996 1.390 . S
C1005 H998 0.950 . S
C1005 C1002 1.387 . S
C1006 C1007 1.387 . S
C1006 H1010 0.950 . S
C1006 C1015 1.390 . S
C1007 C1006 1.387 . S
C1007 C1009 1.387 . S
H1008 C1015 0.950 . S
C1009 C1007 1.387 . S
C1009 C1011 1.390 . S
C1009 H1013 0.950 . S
H1010 C1006 0.950 . S
C1011 C1009 1.390 . S
C1011 C1012 1.387 . S
C1011 H1014 0.950 . S
C1012 C1011 1.387 . S
C1012 C1015 1.387 . S
H1013 C1009 0.950 . S
H1014 C1011 0.950 . S
C1015 C1006 1.390 . S
C1015 H1008 0.950 . S
C1015 C1012 1.387 . S
C1016 C1017 1.387 . S
C1016 H1020 0.950 . S
C1016 C1025 1.390 . S
C1017 C1016 1.387 . S
C1017 C1019 1.387 . S
H1018 C1025 0.950 . S
C1019 C1017 1.387 . S
C1019 C1021 1.390 . S
C1019 H1023 0.950 . S
H1020 C1016 0.950 . S
C1021 C1019 1.390 . S
C1021 C1022 1.387 . S
C1021 H1024 0.950 . S
C1022 C1021 1.387 . S
C1022 C1025 1.387 . S
H1023 C1019 0.950 . S
H1024 C1021 0.950 . S
C1025 C1016 1.390 . S
C1025 H1018 0.950 . S
C1025 C1022 1.387 . S
C1026 C1027 1.387 . S
C1026 H1030 0.950 . S
C1026 C1035 1.390 . S
C1027 C1026 1.387 . S
C1027 C1029 1.387 . S
H1028 C1035 0.950 . S
C1029 C1027 1.387 . S
C1029 C1031 1.390 . S
C1029 H1033 0.950 . S
H1030 C1026 0.950 . S
C1031 C1029 1.390 . S
C1031 C1032 1.387 . S
C1031 H1034 0.950 . S
C1032 C1031 1.387 . S
C1032 C1035 1.387 . S
H1033 C1029 0.950 . S
H1034 C1031 0.950 . S
C1035 C1026 1.390 . S
C1035 H1028 0.950 . S
C1035 C1032 1.387 . S
C1036 C1037 1.387 . S
C1036 H1040 0.950 . S
C1036 C1045 1.390 . S
C1037 C1036 1.387 . S
C1037 C1039 1.387 . S
H1038 C1045 0.950 . S
C1039 C1037 1.387 . S
C1039 C1041 1.390 . S
C1039 H1043 0.950 . S
H1040 C1036 0.950 . S
C1041 C1039 1.390 . S
C1041 C1042 1.387 . S
C1041 H1044 0.950 . S
C1042 C1041 1.387 . S
C1042 C1045 1.387 . S
H1043 C1039 0.950 . S
H1044 C1041 0.950 . S
C1045 C1036 1.390 . S
C1045 H1038 0.950 . S
C1045 C1042 1.387 . S
C1046 C1047 1.387 . S
C1046 H1050 0.950 . S
C1046 C1055 1.390 . S
C1047 C1046 1.387 . S
C1047 C1049 1.387 . S
H1048 C1055 0.950 . S
C1049 C1047 1.387 . S
C1049 C1051 1.390 . S
C1049 H1053 0.950 . S
H1050 C1046 0.950 . S
C1051 C1049 1.390 . S
C1051 C1052 1.387 . S
C1051 H1054 0.950 . S
C1052 C1051 1.387 . S
C1052 C1055 1.387 . S
H1053 C1049 0.950 . S
H1054 C1051 0.950 . S
C1055 C1046 1.390 . S
C1055 H1048 0.950 . S
C1055 C1052 1.387 . S
C1056 C1057 1.387 . S
C1056 H1060 0.950 . S
C1056 C1065 1.390 . S
C1057 C1056 1.387 . S
C1057 C1059 1.387 . S
H1058 C1065 0.950 . S
C1059 C1057 1.387 . S
C1059 C1061 1.390 . S
C1059 H1063 0.950 . S
H1060 C1056 0.950 . S
C1061 C1059 1.390 . S
C1061 C1062 1.387 . S
C1061 H1064 0.950 . S
C1062 C1061 1.387 . S
C1062 C1065 1.387 . S
H1063 C1059 0.950 . S
H1064 C1061 0.950 . S
C1065 C1056 1.390 . S
C1065 H1058 0.950 . S
C1065 C1062 1.387 . S
C1066 C1067 1.387 . S
C1066 H1070 0.950 . S
C1066 C1075 1.390 . S
C1067 C1066 1.387 . S
C1067 C1069 1.387 . S
H1068 C1075 0.950 . S
C1069 C1067 1.387 . S
C1069 C1071 1.390 . S
C1069 H1073 0.950 . S
H1070 C1066 0.950 . S
C1071 C1069 1.390 . S
C1071 C1072 1.387 . S
C1071 H1074 0.950 . S
C1072 C1071 1.387 . S
C1072 C1075 1.387 . S
H1073 C1069 0.950 . S
H1074 C1071 0.950 . S
C1075 C1066 1.390 . S
C1075 H1068 0.950 . S
C1075 C1072 1.387 . S
C602 C301 1.266 . S
C597 N2 1.233 . S
C612 C339 2.336 . S
C607 C7 2.339 . S
C622 C360 1.799 . S
C617 N12 1.596 . S
C627 C16 1.874 . S
C632 C398 1.944 . S
C642 C438 2.469 . S
C637 C30 2.443 1_565 S
C652 C501 1.495 . S
C647 N35 1.422 . S
C657 C39 2.150 . S
C662 C539 2.120 . S
C672 C560 1.159 . S
C667 N25 1.132 . S
C682 C307 1.309 . S
C677 N58 1.273 . S
C687 N81 2.136 . S
C692 C336 2.092 . S
C702 C379 1.438 . S
C697 N104 1.385 . S
C707 N127 1.425 . S
C712 C421 1.394 . S
C722 C461 1.142 1_554 S
C717 N48 1.233 . S
C732 C507 1.528 . S
C727 N71 1.441 1_556 S
C737 N94 1.757 . S
C742 C536 1.713 . S
C752 C579 1.779 . S
C747 N117 1.768 . S
C757 C85 2.542 . S
C762 C278 2.440 . S
C767 C122 2.598 . S
C772 C467 2.577 . S
C777 C53 2.156 . S
C782 C478 2.100 . S
C792 C520 1.495 1_554 S
C787 C76 1.536 . S
C802 C576 2.055 . S
C797 C99 2.079 . S
C812 C376 2.037 . S
C807 C131 2.064 . S
C822 C427 2.161 . S
C817 C62 2.190 . S
C827 C108 1.312 . S
C832 C320 1.292 . S
C842 C581 1.322 . S
C837 N140 1.288 . S
C847 C145 2.333 . S
C852 C459 2.325 . S
C862 C480 1.635 . S
C857 N150 1.438 . S
C867 C154 1.880 . S
C872 C518 1.952 . S
C882 C318 2.478 . S
C877 C168 2.457 . S
C887 N173 1.264 . S
C892 C381 1.339 . S
C902 C419 2.122 . S
C897 C177 2.159 . S
C912 C280 1.187 . S
C907 N163 1.127 . S
C922 C587 1.760 . S
C917 C200 1.737 . S
C932 C456 2.356 . S
C927 N219 2.396 . S
C937 N242 1.654 . S
C942 C499 1.711 . S
C952 C541 1.585 . S
C947 C269 1.678 . S
C962 C341 1.388 . S
C957 C191 1.448 . S
C967 N209 1.689 . S
C972 C387 1.786 . S
C977 N232 2.033 . S
C982 C416 1.993 . S
C987 C260 2.338 . S
C992 C299 2.298 . S
C997 C223 2.236 . S
C1002 C558 2.135 . S
C1007 N255 2.183 . S
C1012 C347 2.161 . S
C1017 N186 1.766 . S
C1022 C358 1.709 . S
C1032 C400 1.226 . S
C1027 C214 1.265 . S
C1042 C296 1.749 . S
C1037 C237 1.769 . S
C1052 C496 1.686 . S
C1047 N265 1.580 . S
C1062 C547 1.772 . S
C1057 N196 1.781 . S
C1072 C440 1.032 . S
C1067 C246 1.051 . S
