# Generated by pormake.
# Topology gar, (4,6)-cn, num edge types: 1
# Building blocks:
#     Node 0, Type 0, BuildingBlock: QUQFOY_clean_sbu_1, # of connection points: 4
#     Node 1, Type 0, BuildingBlock: QUQFOY_clean_sbu_1, # of connection points: 4
#     Node 2, Type 0, BuildingBlock: QUQFOY_clean_sbu_1, # of connection points: 4
#     Node 3, Type 0, BuildingBlock: QUQFOY_clean_sbu_1, # of connection points: 4
#     Node 4, Type 0, BuildingBlock: QUQFOY_clean_sbu_1, # of connection points: 4
#     Node 5, Type 0, BuildingBlock: QUQFOY_clean_sbu_1, # of connection points: 4
#     Node 6, Type 0, BuildingBlock: QUQFOY_clean_sbu_1, # of connection points: 4
#     Node 7, Type 0, BuildingBlock: QUQFOY_clean_sbu_1, # of connection points: 4
#     Node 8, Type 0, BuildingBlock: QUQFOY_clean_sbu_1, # of connection points: 4
#     Node 9, Type 0, BuildingBlock: QUQFOY_clean_sbu_1, # of connection points: 4
#     Node 10, Type 0, BuildingBlock: QUQFOY_clean_sbu_1, # of connection points: 4
#     Node 11, Type 0, BuildingBlock: QUQFOY_clean_sbu_1, # of connection points: 4
#     Node 12, Type 0, BuildingBlock: QUQFOY_clean_sbu_1, # of connection points: 4
#     Node 13, Type 0, BuildingBlock: QUQFOY_clean_sbu_1, # of connection points: 4
#     Node 14, Type 0, BuildingBlock: QUQFOY_clean_sbu_1, # of connection points: 4
#     Node 15, Type 0, BuildingBlock: QUQFOY_clean_sbu_1, # of connection points: 4
#     Node 16, Type 0, BuildingBlock: QUQFOY_clean_sbu_1, # of connection points: 4
#     Node 17, Type 0, BuildingBlock: QUQFOY_clean_sbu_1, # of connection points: 4
#     Node 18, Type 0, BuildingBlock: QUQFOY_clean_sbu_1, # of connection points: 4
#     Node 19, Type 0, BuildingBlock: QUQFOY_clean_sbu_1, # of connection points: 4
#     Node 20, Type 0, BuildingBlock: QUQFOY_clean_sbu_1, # of connection points: 4
#     Node 21, Type 0, BuildingBlock: QUQFOY_clean_sbu_1, # of connection points: 4
#     Node 22, Type 0, BuildingBlock: QUQFOY_clean_sbu_1, # of connection points: 4
#     Node 23, Type 0, BuildingBlock: QUQFOY_clean_sbu_1, # of connection points: 4
#     Node 24, Type 1, BuildingBlock: CUKXOW_clean_sbu_0, # of connection points: 6
#     Node 25, Type 1, BuildingBlock: CUKXOW_clean_sbu_0, # of connection points: 6
#     Node 26, Type 1, BuildingBlock: CUKXOW_clean_sbu_0, # of connection points: 6
#     Node 27, Type 1, BuildingBlock: CUKXOW_clean_sbu_0, # of connection points: 6
#     Node 28, Type 1, BuildingBlock: CUKXOW_clean_sbu_0, # of connection points: 6
#     Node 29, Type 1, BuildingBlock: CUKXOW_clean_sbu_0, # of connection points: 6
#     Node 30, Type 1, BuildingBlock: CUKXOW_clean_sbu_0, # of connection points: 6
#     Node 31, Type 1, BuildingBlock: CUKXOW_clean_sbu_0, # of connection points: 6
#     Node 32, Type 1, BuildingBlock: CUKXOW_clean_sbu_0, # of connection points: 6
#     Node 33, Type 1, BuildingBlock: CUKXOW_clean_sbu_0, # of connection points: 6
#     Node 34, Type 1, BuildingBlock: CUKXOW_clean_sbu_0, # of connection points: 6
#     Node 35, Type 1, BuildingBlock: CUKXOW_clean_sbu_0, # of connection points: 6
#     Node 36, Type 1, BuildingBlock: CUKXOW_clean_sbu_0, # of connection points: 6
#     Node 37, Type 1, BuildingBlock: CUKXOW_clean_sbu_0, # of connection points: 6
#     Node 38, Type 1, BuildingBlock: CUKXOW_clean_sbu_0, # of connection points: 6
#     Node 39, Type 1, BuildingBlock: CUKXOW_clean_sbu_0, # of connection points: 6
#     Edge 40, Type (0, 1), BuildingBlock: EZIPEK_clean_linker_0, # of connection points: 2
#     Edge 41, Type (0, 1), BuildingBlock: EZIPEK_clean_linker_0, # of connection points: 2
#     Edge 42, Type (0, 1), BuildingBlock: EZIPEK_clean_linker_0, # of connection points: 2
#     Edge 43, Type (0, 1), BuildingBlock: EZIPEK_clean_linker_0, # of connection points: 2
#     Edge 44, Type (0, 1), BuildingBlock: EZIPEK_clean_linker_0, # of connection points: 2
#     Edge 45, Type (0, 1), BuildingBlock: EZIPEK_clean_linker_0, # of connection points: 2
#     Edge 46, Type (0, 1), BuildingBlock: EZIPEK_clean_linker_0, # of connection points: 2
#     Edge 47, Type (0, 1), BuildingBlock: EZIPEK_clean_linker_0, # of connection points: 2
#     Edge 48, Type (0, 1), BuildingBlock: EZIPEK_clean_linker_0, # of connection points: 2
#     Edge 49, Type (0, 1), BuildingBlock: EZIPEK_clean_linker_0, # of connection points: 2
#     Edge 50, Type (0, 1), BuildingBlock: EZIPEK_clean_linker_0, # of connection points: 2
#     Edge 51, Type (0, 1), BuildingBlock: EZIPEK_clean_linker_0, # of connection points: 2
#     Edge 52, Type (0, 1), BuildingBlock: EZIPEK_clean_linker_0, # of connection points: 2
#     Edge 53, Type (0, 1), BuildingBlock: EZIPEK_clean_linker_0, # of connection points: 2
#     Edge 54, Type (0, 1), BuildingBlock: EZIPEK_clean_linker_0, # of connection points: 2
#     Edge 55, Type (0, 1), BuildingBlock: EZIPEK_clean_linker_0, # of connection points: 2
#     Edge 56, Type (0, 1), BuildingBlock: EZIPEK_clean_linker_0, # of connection points: 2
#     Edge 57, Type (0, 1), BuildingBlock: EZIPEK_clean_linker_0, # of connection points: 2
#     Edge 58, Type (0, 1), BuildingBlock: EZIPEK_clean_linker_0, # of connection points: 2
#     Edge 59, Type (0, 1), BuildingBlock: EZIPEK_clean_linker_0, # of connection points: 2
#     Edge 60, Type (0, 1), BuildingBlock: EZIPEK_clean_linker_0, # of connection points: 2
#     Edge 61, Type (0, 1), BuildingBlock: EZIPEK_clean_linker_0, # of connection points: 2
#     Edge 62, Type (0, 1), BuildingBlock: EZIPEK_clean_linker_0, # of connection points: 2
#     Edge 63, Type (0, 1), BuildingBlock: EZIPEK_clean_linker_0, # of connection points: 2
#     Edge 64, Type (0, 1), BuildingBlock: EZIPEK_clean_linker_0, # of connection points: 2
#     Edge 65, Type (0, 1), BuildingBlock: EZIPEK_clean_linker_0, # of connection points: 2
#     Edge 66, Type (0, 1), BuildingBlock: EZIPEK_clean_linker_0, # of connection points: 2
#     Edge 67, Type (0, 1), BuildingBlock: EZIPEK_clean_linker_0, # of connection points: 2
#     Edge 68, Type (0, 1), BuildingBlock: EZIPEK_clean_linker_0, # of connection points: 2
#     Edge 69, Type (0, 1), BuildingBlock: EZIPEK_clean_linker_0, # of connection points: 2
#     Edge 70, Type (0, 1), BuildingBlock: EZIPEK_clean_linker_0, # of connection points: 2
#     Edge 71, Type (0, 1), BuildingBlock: EZIPEK_clean_linker_0, # of connection points: 2
#     Edge 72, Type (0, 1), BuildingBlock: EZIPEK_clean_linker_0, # of connection points: 2
#     Edge 73, Type (0, 1), BuildingBlock: EZIPEK_clean_linker_0, # of connection points: 2
#     Edge 74, Type (0, 1), BuildingBlock: EZIPEK_clean_linker_0, # of connection points: 2
#     Edge 75, Type (0, 1), BuildingBlock: EZIPEK_clean_linker_0, # of connection points: 2
#     Edge 76, Type (0, 1), BuildingBlock: EZIPEK_clean_linker_0, # of connection points: 2
#     Edge 77, Type (0, 1), BuildingBlock: EZIPEK_clean_linker_0, # of connection points: 2
#     Edge 78, Type (0, 1), BuildingBlock: EZIPEK_clean_linker_0, # of connection points: 2
#     Edge 79, Type (0, 1), BuildingBlock: EZIPEK_clean_linker_0, # of connection points: 2
#     Edge 80, Type (0, 1), BuildingBlock: EZIPEK_clean_linker_0, # of connection points: 2
#     Edge 81, Type (0, 1), BuildingBlock: EZIPEK_clean_linker_0, # of connection points: 2
#     Edge 82, Type (0, 1), BuildingBlock: EZIPEK_clean_linker_0, # of connection points: 2
#     Edge 83, Type (0, 1), BuildingBlock: EZIPEK_clean_linker_0, # of connection points: 2
#     Edge 84, Type (0, 1), BuildingBlock: EZIPEK_clean_linker_0, # of connection points: 2
#     Edge 85, Type (0, 1), BuildingBlock: EZIPEK_clean_linker_0, # of connection points: 2
#     Edge 86, Type (0, 1), BuildingBlock: EZIPEK_clean_linker_0, # of connection points: 2
#     Edge 87, Type (0, 1), BuildingBlock: EZIPEK_clean_linker_0, # of connection points: 2
#     Edge 88, Type (0, 1), BuildingBlock: EZIPEK_clean_linker_0, # of connection points: 2
#     Edge 89, Type (0, 1), BuildingBlock: EZIPEK_clean_linker_0, # of connection points: 2
#     Edge 90, Type (0, 1), BuildingBlock: EZIPEK_clean_linker_0, # of connection points: 2
#     Edge 91, Type (0, 1), BuildingBlock: EZIPEK_clean_linker_0, # of connection points: 2
#     Edge 92, Type (0, 1), BuildingBlock: EZIPEK_clean_linker_0, # of connection points: 2
#     Edge 93, Type (0, 1), BuildingBlock: EZIPEK_clean_linker_0, # of connection points: 2
#     Edge 94, Type (0, 1), BuildingBlock: EZIPEK_clean_linker_0, # of connection points: 2
#     Edge 95, Type (0, 1), BuildingBlock: EZIPEK_clean_linker_0, # of connection points: 2
#     Edge 96, Type (0, 1), BuildingBlock: EZIPEK_clean_linker_0, # of connection points: 2
#     Edge 97, Type (0, 1), BuildingBlock: EZIPEK_clean_linker_0, # of connection points: 2
#     Edge 98, Type (0, 1), BuildingBlock: EZIPEK_clean_linker_0, # of connection points: 2
#     Edge 99, Type (0, 1), BuildingBlock: EZIPEK_clean_linker_0, # of connection points: 2
#     Edge 100, Type (0, 1), BuildingBlock: EZIPEK_clean_linker_0, # of connection points: 2
#     Edge 101, Type (0, 1), BuildingBlock: EZIPEK_clean_linker_0, # of connection points: 2
#     Edge 102, Type (0, 1), BuildingBlock: EZIPEK_clean_linker_0, # of connection points: 2
#     Edge 103, Type (0, 1), BuildingBlock: EZIPEK_clean_linker_0, # of connection points: 2
#     Edge 104, Type (0, 1), BuildingBlock: EZIPEK_clean_linker_0, # of connection points: 2
#     Edge 105, Type (0, 1), BuildingBlock: EZIPEK_clean_linker_0, # of connection points: 2
#     Edge 106, Type (0, 1), BuildingBlock: EZIPEK_clean_linker_0, # of connection points: 2
#     Edge 107, Type (0, 1), BuildingBlock: EZIPEK_clean_linker_0, # of connection points: 2
#     Edge 108, Type (0, 1), BuildingBlock: EZIPEK_clean_linker_0, # of connection points: 2
#     Edge 109, Type (0, 1), BuildingBlock: EZIPEK_clean_linker_0, # of connection points: 2
#     Edge 110, Type (0, 1), BuildingBlock: EZIPEK_clean_linker_0, # of connection points: 2
#     Edge 111, Type (0, 1), BuildingBlock: EZIPEK_clean_linker_0, # of connection points: 2
#     Edge 112, Type (0, 1), BuildingBlock: EZIPEK_clean_linker_0, # of connection points: 2
#     Edge 113, Type (0, 1), BuildingBlock: EZIPEK_clean_linker_0, # of connection points: 2
#     Edge 114, Type (0, 1), BuildingBlock: EZIPEK_clean_linker_0, # of connection points: 2
#     Edge 115, Type (0, 1), BuildingBlock: EZIPEK_clean_linker_0, # of connection points: 2
#     Edge 116, Type (0, 1), BuildingBlock: EZIPEK_clean_linker_0, # of connection points: 2
#     Edge 117, Type (0, 1), BuildingBlock: EZIPEK_clean_linker_0, # of connection points: 2
#     Edge 118, Type (0, 1), BuildingBlock: EZIPEK_clean_linker_0, # of connection points: 2
#     Edge 119, Type (0, 1), BuildingBlock: EZIPEK_clean_linker_0, # of connection points: 2
#     Edge 120, Type (0, 1), BuildingBlock: EZIPEK_clean_linker_0, # of connection points: 2
#     Edge 121, Type (0, 1), BuildingBlock: EZIPEK_clean_linker_0, # of connection points: 2
#     Edge 122, Type (0, 1), BuildingBlock: EZIPEK_clean_linker_0, # of connection points: 2
#     Edge 123, Type (0, 1), BuildingBlock: EZIPEK_clean_linker_0, # of connection points: 2
#     Edge 124, Type (0, 1), BuildingBlock: EZIPEK_clean_linker_0, # of connection points: 2
#     Edge 125, Type (0, 1), BuildingBlock: EZIPEK_clean_linker_0, # of connection points: 2
#     Edge 126, Type (0, 1), BuildingBlock: EZIPEK_clean_linker_0, # of connection points: 2
#     Edge 127, Type (0, 1), BuildingBlock: EZIPEK_clean_linker_0, # of connection points: 2
#     Edge 128, Type (0, 1), BuildingBlock: EZIPEK_clean_linker_0, # of connection points: 2
#     Edge 129, Type (0, 1), BuildingBlock: EZIPEK_clean_linker_0, # of connection points: 2
#     Edge 130, Type (0, 1), BuildingBlock: EZIPEK_clean_linker_0, # of connection points: 2
#     Edge 131, Type (0, 1), BuildingBlock: EZIPEK_clean_linker_0, # of connection points: 2
#     Edge 132, Type (0, 1), BuildingBlock: EZIPEK_clean_linker_0, # of connection points: 2
#     Edge 133, Type (0, 1), BuildingBlock: EZIPEK_clean_linker_0, # of connection points: 2
#     Edge 134, Type (0, 1), BuildingBlock: EZIPEK_clean_linker_0, # of connection points: 2
#     Edge 135, Type (0, 1), BuildingBlock: EZIPEK_clean_linker_0, # of connection points: 2
# Relax obj value: 0.127
# Max RMSD: 0.243
# Mean RMSD: 0.161
data_MOF--net-gar--node1-QUQFOY_clean_sbu_1--node2-CUKXOW_clean_sbu_0--edge1-EZIPEK_clean_linker_0
_symmetry_space_group_name_H-M    P1
_symmetry_Int_Tables_number       1
_symmetry_cell_setting            triclinic
loop_
_symmetry_equiv_pos_as_xyz
'x, y, z'
_cell_length_a     41.930481
_cell_length_b     40.635871
_cell_length_c     40.862445
_cell_angle_alpha  94.854048
_cell_angle_beta   95.582888
_cell_angle_gamma 102.11948
loop_
_atom_site_label
_atom_site_type_symbol
_atom_site_fract_x
_atom_site_fract_y
_atom_site_fract_z
_atom_type_partial_charge
O0 O 0.03611 0.2142 0.45994 0.0
Cd1 Cd 0.03756 0.24633 0.4233 0.0
Cd2 Cd 1.00628 0.27998 0.47504 0.0
O3 O 0.0194 0.24297 0.50105 0.0
O4 O 0.05414 0.22147 0.38681 0.0
O5 O 0.08039 0.27176 0.41174 0.0
C6 C 0.07864 0.24699 0.38913 0.0
C7 C 0.01547 0.33663 0.49597 0.0
C8 C 0.02944 0.21749 0.48955 0.0
C9 C 0.97076 0.26415 0.40875 0.0
O10 O 0.96701 0.26793 0.43916 0.0
O11 O 0.99704 0.25808 0.39936 0.0
O12 O 0.99578 0.31349 0.50841 0.0
O13 O 0.03233 0.32694 0.4736 0.0
O14 O 0.9862 0.75962 0.58151 0.0
Cd15 Cd 0.99975 0.79581 0.62212 0.0
Cd16 Cd 0.0434 0.82273 0.58573 0.0
O17 O 0.03345 0.77459 0.56142 0.0
O18 O 0.96551 0.78268 0.65195 0.0
O19 O 0.97662 0.83331 0.63422 0.0
C20 C 0.96014 0.81272 0.65201 0.0
C21 C 0.02826 0.86727 0.56055 0.0
C22 C 1.00711 0.75287 0.56287 0.0
C23 C 0.07084 0.80932 0.64992 0.0
O24 O 0.07693 0.82837 0.62721 0.0
O25 O 0.04189 0.79251 0.65102 0.0
O26 O 0.05642 0.85986 0.55751 0.0
O27 O 0.00897 0.84934 0.57837 0.0
O28 O 0.61164 0.77782 0.93478 0.0
Cd29 Cd 0.58132 0.78206 0.97167 0.0
Cd30 Cd 0.5363 0.78823 0.92091 0.0
O31 O 0.57167 0.77464 0.89477 0.0
O32 O 0.58669 0.74909 1.00394 0.0
O33 O 0.54066 0.74603 0.97114 0.0
C34 C 0.55672 0.73353 0.99379 0.0
C35 C 0.48561 0.77558 0.8901 0.0
C36 C 0.60095 0.77311 0.90417 0.0
C37 C 0.55805 0.84493 0.97849 0.0
O38 O 0.54204 0.83321 0.95054 0.0
O39 O 0.57718 0.82882 0.99296 0.0
O40 O 0.50882 0.79918 0.88342 0.0
O41 O 0.49111 0.75817 0.91419 0.0
O42 O 0.49956 0.25208 0.08764 0.0
Cd43 Cd 0.50831 0.29784 0.11749 0.0
Cd44 Cd 0.54388 0.31411 0.06801 0.0
O45 O 0.52049 0.26862 0.04274 0.0
O46 O 0.48509 0.28345 0.15574 0.0
O47 O 0.47154 0.32198 0.12566 0.0
C48 C 0.46677 0.3045 0.15035 0.0
C49 C 0.5386 0.36454 0.04879 0.0
C50 C 0.50549 0.24546 0.05811 0.0
C51 C 0.5809 0.31175 0.13251 0.0
O52 O 0.5826 0.31098 0.10163 0.0
O53 O 0.55403 0.31255 0.14396 0.0
O54 O 0.55785 0.34708 0.03639 0.0
O55 O 0.5224 0.35325 0.07242 0.0
O56 O 0.99406 0.70639 0.1655 0.0
Cd57 Cd 0.99668 0.74881 0.19987 0.0
Cd58 Cd 0.02776 0.78168 0.15147 0.0
O59 O 0.01654 0.73405 0.12605 0.0
O60 O 0.96331 0.73779 0.23254 0.0
O61 O 0.96085 0.7761 0.19797 0.0
C62 C 0.94851 0.76017 0.2215 0.0
C63 C 0.01517 0.82692 0.12462 0.0
C64 C 1.00402 0.70645 0.13692 0.0
C65 C 0.06981 0.78126 0.21555 0.0
O66 O 0.06868 0.78992 0.18634 0.0
O67 O 0.04358 0.76675 0.22667 0.0
O68 O 0.03943 0.81375 0.1177 0.0
O69 O 0.99779 0.81444 0.14691 0.0
O70 O 0.60031 0.79138 0.36236 0.0
Cd71 Cd 0.56571 0.79139 0.39567 0.0
Cd72 Cd 0.53321 0.81939 0.33883 0.0
O73 O 0.57607 0.8103 0.31919 0.0
O74 O 0.57934 0.76683 0.43312 0.0
O75 O 0.5326 0.74875 0.40009 0.0
C76 C 0.55195 0.74502 0.42545 0.0
C77 C 0.47959 0.80626 0.30944 0.0
C78 C 0.60018 0.79964 0.33296 0.0
C79 C 0.54693 0.85882 0.40836 0.0
O80 O 0.537 0.8574 0.37771 0.0
O81 O 0.55939 0.83565 0.41973 0.0
O82 O 0.50183 0.83131 0.30313 0.0
O83 O 0.48833 0.78689 0.33052 0.0
O84 O 0.48923 0.19287 0.65547 0.0
Cd85 Cd 0.49013 0.23646 0.68808 0.0
Cd86 Cd 0.52099 0.26728 0.63701 0.0
O87 O 0.51001 0.21873 0.61424 0.0
O88 O 0.45684 0.22468 0.72085 0.0
O89 O 0.45195 0.26084 0.68458 0.0
C90 C 0.44034 0.24513 0.70855 0.0
C91 C 0.5132 0.31142 0.60565 0.0
C92 C 0.49903 0.19171 0.62681 0.0
C93 C 0.563 0.27191 0.70244 0.0
O94 O 0.56148 0.27718 0.67215 0.0
O95 O 0.53692 0.2586 0.71462 0.0
O96 O 0.53549 0.29473 0.60057 0.0
O97 O 0.49462 0.30271 0.6283 0.0
O98 O 0.0299 0.23383 0.87893 0.0
Cd99 Cd 0.03186 0.26469 0.84015 0.0
Cd100 Cd 1.00342 0.30445 0.89325 0.0
O101 O 0.01175 0.26426 0.91776 0.0
O102 O 0.05738 0.24377 0.80736 0.0
O103 O 0.07779 0.29304 0.83642 0.0
C104 C 0.08203 0.26905 0.81555 0.0
C105 C 0.01244 0.35573 0.92702 0.0
C106 C 0.02213 0.23831 0.90814 0.0
C107 C 0.96412 0.28439 0.82475 0.0
O108 O 0.96636 0.29729 0.85454 0.0
O109 O 0.98726 0.27167 0.81426 0.0
O110 O 0.98688 0.33203 0.92777 0.0
O111 O 0.03315 0.3506 0.90678 0.0
O112 O 0.42911 0.08674 0.19399 0.0
Cd113 Cd 0.39589 0.09539 0.2277 0.0
Cd114 Cd 0.44918 0.07166 0.27063 0.0
O115 O 0.47086 0.07691 0.22688 0.0
O116 O 0.35957 0.11494 0.20621 0.0
O117 O 0.3921 0.14047 0.25082 0.0
C118 C 0.36639 0.1391 0.23007 0.0
C119 C 0.4791 0.07578 0.3236 0.0
C120 C 0.45754 0.07966 0.19804 0.0
C121 C 0.3783 0.02974 0.25754 0.0
O122 O 0.40831 0.03272 0.26831 0.0
O123 O 0.36856 0.05256 0.24262 0.0
O124 O 0.4805 0.05291 0.30033 0.0
O125 O 0.46338 0.09875 0.3161 0.0
O126 O 0.26163 0.12659 0.53646 0.0
Cd127 Cd 0.26628 0.09812 0.49392 0.0
Cd128 Cd 0.26727 0.15757 0.47392 0.0
O129 O 0.29204 0.17159 0.52049 0.0
O130 O 0.27884 0.05726 0.50918 0.0
O131 O 0.31122 0.09592 0.48442 0.0
C132 C 0.30685 0.06861 0.49908 0.0
C133 C 0.28286 0.19626 0.43556 0.0
C134 C 0.27883 0.15643 0.54317 0.0
C135 C 0.2056 0.1027 0.4649 0.0
O136 O 0.21746 0.13425 0.47256 0.0
O137 O 0.22499 0.083 0.46105 0.0
O138 O 0.26952 0.20409 0.46127 0.0
O139 O 0.28724 0.16575 0.43129 0.0
O140 O 0.13993 0.96812 0.72889 0.0
Cd141 Cd 0.17685 0.97898 0.76789 0.0
Cd142 Cd 0.1231 0.0039 0.7965 0.0
O143 O 0.09786 0.97931 0.75241 0.0
O144 O 0.21123 0.9575 0.74951 0.0
O145 O 0.18673 0.94031 0.79241 0.0
C146 C 0.20719 0.93655 0.77146 0.0
C147 C 0.09437 0.00302 0.84328 0.0
C148 C 0.10944 0.96771 0.72738 0.0
C149 C 0.18657 0.05419 0.78776 0.0
O150 O 0.15673 0.04877 0.79355 0.0
O151 O 0.20007 0.02966 0.7804 0.0
O152 O 0.08814 0.02012 0.81927 0.0
O153 O 0.1167 0.98569 0.84081 0.0
O154 O 0.22034 0.88738 0.09055 0.0
Cd155 Cd 0.21781 0.92212 0.0553 0.0
Cd156 Cd 0.23939 0.86217 0.01585 0.0
O157 O 0.2312 0.84295 0.06127 0.0
O158 O 0.19763 0.95976 0.07525 0.0
O159 O 0.17549 0.928 0.02902 0.0
C160 C 0.17474 0.95287 0.05065 0.0
C161 C 0.23506 0.82958 0.96289 0.0
C162 C 0.22614 0.85762 0.08866 0.0
C163 C 0.28522 0.93255 0.02939 0.0
O164 O 0.27998 0.90114 0.01971 0.0
O165 O 0.26347 0.94569 0.042 0.0
O166 O 0.25269 0.82409 0.98857 0.0
O167 O 0.21704 0.85121 0.96804 0.0
O168 O 0.25853 0.41633 0.11901 0.0
Cd169 Cd 0.26599 0.455 0.08956 0.0
Cd170 Cd 0.27022 0.40344 0.04078 0.0
O171 O 0.24926 0.37672 0.07669 0.0
O172 O 0.24257 0.49047 0.10198 0.0
O173 O 0.23058 0.45668 0.05444 0.0
C174 C 0.22517 0.48153 0.0735 0.0
C175 C 0.26366 0.37152 0.98976 0.0
C176 C 0.24972 0.38542 0.10728 0.0
C177 C 0.32841 0.46431 0.06319 0.0
O178 O 0.31633 0.43542 0.04734 0.0
O179 O 0.31197 0.47818 0.08231 0.0
O180 O 0.28183 0.3654 0.01464 0.0
O181 O 0.24775 0.39522 0.99393 0.0
O182 O 0.82914 0.18851 0.06506 0.0
Cd183 Cd 0.825 0.15226 0.02364 0.0
Cd184 Cd 0.79622 0.20493 0.99532 0.0
O185 O 0.81468 0.23155 0.04172 0.0
O186 O 0.84439 0.11305 0.03746 0.0
O187 O 0.86511 0.1447 1.00088 0.0
C188 C 0.86598 0.11898 0.01716 0.0
C189 C 0.79743 0.2293 0.94446 0.0
C190 C 0.82427 0.21869 0.06739 0.0
C191 C 0.75169 0.13781 1.00405 0.0
O192 O 0.75451 0.1684 0.99814 0.0
O193 O 0.77685 0.1256 0.01049 0.0
O194 O 0.77896 0.23664 0.96613 0.0
O195 O 0.81654 0.20925 0.95197 0.0
O196 O 0.11673 0.48027 0.22443 0.0
Cd197 Cd 0.15453 0.482 0.26228 0.0
Cd198 Cd 0.10977 0.51622 0.2985 0.0
O199 O 0.08173 0.50206 0.2523 0.0
O200 O 0.18512 0.45417 0.24458 0.0
O201 O 0.16379 0.44571 0.29115 0.0
C202 C 0.18358 0.43849 0.2707 0.0
C203 C 0.08316 0.51728 0.34744 0.0
C204 C 0.09005 0.49069 0.22503 0.0
C205 C 0.17698 0.55646 0.28552 0.0
O206 O 0.15006 0.55571 0.2977 0.0
O207 O 0.18363 0.52991 0.27172 0.0
O208 O 0.08129 0.53873 0.32631 0.0
O209 O 0.09961 0.49452 0.34083 0.0
O210 O 0.75508 0.90195 0.62807 0.0
Cd211 Cd 0.76574 0.9467 0.60637 0.0
Cd212 Cd 0.77672 0.90627 0.55249 0.0
O213 O 0.75956 0.87089 0.58252 0.0
O214 O 0.73461 0.97703 0.61222 0.0
O215 O 0.73828 0.94846 0.56427 0.0
C216 C 0.72527 0.96956 0.58089 0.0
C217 C 0.76781 0.88288 0.49828 0.0
C218 C 0.75325 0.8732 0.61213 0.0
C219 C 0.83088 0.96654 0.5861 0.0
O220 O 0.8199 0.94204 0.56369 0.0
O221 O 0.8134 0.97351 0.60824 0.0
O222 O 0.7899 0.87587 0.51888 0.0
O223 O 0.75066 0.9039 0.50814 0.0
O224 O 0.88901 0.06502 0.18299 0.0
Cd225 Cd 0.85099 0.0595 0.21404 0.0
Cd226 Cd 0.90059 0.05209 0.25817 0.0
O227 O 0.92958 0.06461 0.22164 0.0
O228 O 0.81641 0.08543 0.20094 0.0
O229 O 0.8498 0.09815 0.24783 0.0
C230 C 0.82581 0.10425 0.22872 0.0
C231 C 0.92004 0.0749 0.31232 0.0
C232 C 0.91951 0.06694 0.19181 0.0
C233 C 0.84334 0.99204 0.24039 0.0
O234 O 0.87255 0.00344 0.25411 0.0
O235 O 0.82869 0.01089 0.22391 0.0
O236 O 0.93276 0.05263 0.29727 0.0
O237 O 0.89688 0.08559 0.29625 0.0
O238 O 0.33477 0.68589 0.56582 0.0
Cd239 Cd 0.32522 0.64718 0.52639 0.0
Cd240 Cd 0.29358 0.69961 0.49629 0.0
O241 O 0.30801 0.72265 0.54483 0.0
O242 O 0.35035 0.6119 0.54114 0.0
O243 O 0.35732 0.63424 0.49472 0.0
C244 C 0.36462 0.61314 0.51459 0.0
C245 C 0.29075 0.72935 0.44856 0.0
C246 C 0.32298 0.71244 0.56941 0.0
C247 C 0.25042 0.63308 0.50854 0.0
O248 O 0.25373 0.66057 0.49526 0.0
O249 O 0.27527 0.62301 0.52124 0.0
O250 O 0.2736 0.73369 0.47237 0.0
O251 O 0.31113 0.70982 0.45265 0.0
O252 O 0.36441 0.54135 0.67275 0.0
Cd253 Cd 0.32979 0.53737 0.70732 0.0
Cd254 Cd 0.3814 0.5297 0.74786 0.0
O255 O 0.40715 0.54351 0.70955 0.0
O256 O 0.29604 0.56564 0.69939 0.0
O257 O 0.33439 0.57635 0.74255 0.0
C258 C 0.30941 0.58417 0.7265 0.0
C259 C 0.40732 0.55013 0.8006 0.0
C260 C 0.39531 0.54447 0.68 0.0
C261 C 0.32384 0.46982 0.73259 0.0
O262 O 0.35375 0.48101 0.74416 0.0
O263 O 0.30792 0.48901 0.71817 0.0
O264 O 0.41732 0.52787 0.78243 0.0
O265 O 0.38277 0.56173 0.7887 0.0
O266 O 0.60893 0.97584 0.71515 0.0
Cd267 Cd 0.64469 0.97943 0.75514 0.0
Cd268 Cd 0.59784 0.01229 0.78572 0.0
O269 O 0.57016 0.99389 0.7402 0.0
O270 O 0.6765 0.9527 0.7394 0.0
O271 O 0.65134 0.94252 0.78376 0.0
C272 C 0.67236 0.93586 0.76452 0.0
C273 C 0.57326 0.01535 0.83537 0.0
C274 C 0.58078 0.98322 0.71396 0.0
C275 C 0.66465 0.05364 0.77445 0.0
O276 O 0.63603 0.0528 0.78257 0.0
O277 O 0.6738 0.02687 0.7653 0.0
O278 O 0.56873 0.0345 0.81263 0.0
O279 O 0.59075 0.99331 0.8297 0.0
O280 O 0.78025 0.66067 0.04998 0.0
Cd281 Cd 0.77978 0.62891 0.00798 0.0
Cd282 Cd 0.77488 0.68822 0.98513 0.0
O283 O 0.80351 0.7061 0.02871 0.0
O284 O 0.78754 0.58783 0.02729 0.0
O285 O 0.82136 0.61731 0.99627 0.0
C286 C 0.81457 0.5926 0.01415 0.0
C287 C 0.78571 0.72372 0.94397 0.0
C288 C 0.79495 0.69153 0.05355 0.0
C289 C 0.71596 0.63148 0.98205 0.0
O290 O 0.72648 0.66336 0.98798 0.0
O291 O 0.73612 0.6125 0.97916 0.0
O292 O 0.77243 0.73252 0.96942 0.0
O293 O 0.79232 0.69402 0.94145 0.0
O294 O 0.92911 0.58517 0.70101 0.0
Cd295 Cd 0.89696 0.59293 0.73558 0.0
Cd296 Cd 0.94596 0.56435 0.77515 0.0
O297 O 0.96905 0.56991 0.73191 0.0
O298 O 0.86476 0.61797 0.71531 0.0
O299 O 0.89541 0.63655 0.76301 0.0
C300 C 0.87193 0.63958 0.74132 0.0
C301 C 0.97229 0.56941 0.82994 0.0
C302 C 0.95639 0.5757 0.70378 0.0
C303 C 0.87466 0.52507 0.75869 0.0
O304 O 0.90417 0.5264 0.77026 0.0
O305 O 0.86639 0.54955 0.74541 0.0
O306 O 0.97502 0.5459 0.80786 0.0
O307 O 0.95734 0.59228 0.82035 0.0
O308 O 0.72171 0.38676 0.589 0.0
Cd309 Cd 0.71396 0.42365 0.55704 0.0
Cd310 Cd 0.74441 0.3698 0.51244 0.0
O311 O 0.74129 0.34907 0.55795 0.0
O312 O 0.69153 0.45808 0.57976 0.0
O313 O 0.669 0.42657 0.5337 0.0
C314 C 0.6678 0.45072 0.55595 0.0
C315 C 0.74181 0.33887 0.45915 0.0
C316 C 0.73297 0.35978 0.5856 0.0
C317 C 0.77956 0.44545 0.52836 0.0
O318 O 0.77739 0.41543 0.51539 0.0
O319 O 0.75712 0.45351 0.54428 0.0
O320 O 0.76612 0.34129 0.48173 0.0
O321 O 0.71745 0.35124 0.46764 0.0
O322 O 0.6582 0.49884 0.23349 0.0
Cd323 Cd 0.69282 0.50118 0.27373 0.0
Cd324 Cd 0.64054 0.52306 0.30471 0.0
O325 O 0.61579 0.50836 0.25827 0.0
O326 O 0.72657 0.47934 0.25424 0.0
O327 O 0.69942 0.45906 0.29443 0.0
C328 C 0.72071 0.45643 0.2741 0.0
C329 C 0.61026 0.51453 0.35012 0.0
C330 C 0.62853 0.50181 0.23222 0.0
C331 C 0.70447 0.57439 0.30074 0.0
O332 O 0.67475 0.56839 0.30687 0.0
O333 O 0.71776 0.55029 0.29132 0.0
O334 O 0.60622 0.53676 0.33045 0.0
O335 O 0.63154 0.49666 0.34429 0.0
Tb336 Tb 0.03562 0.0787 0.02275 0.0
C337 C 0.03536 0.02304 0.96511 0.0
Tb338 Tb 1.00789 1.00261 0.03034 0.0
O339 O 0.08692 0.0717 0.02241 0.0
O340 O 0.05272 0.03819 0.04234 0.0
O341 O 0.02671 0.05181 0.97296 0.0
C342 C 1.00336 0.94391 0.05685 0.0
O343 O 0.03343 0.99963 0.9861 0.0
C344 C 0.96474 0.0366 0.00473 0.0
C345 C 1.00398 0.06078 0.0885 0.0
O346 O 0.02374 0.97215 0.0677 0.0
O347 O 0.98512 0.94849 0.03073 0.0
O348 O 0.96144 0.00382 0.9995 0.0
O349 O 0.98971 0.04665 0.02547 0.0
O350 O 0.9976 0.02794 0.07679 0.0
O351 O 0.01994 0.08531 0.07237 0.0
C352 C 0.03343 0.13627 0.99676 0.0
O353 O 0.0535 0.13385 0.02265 0.0
O354 O 0.01462 0.10689 0.98679 0.0
C355 C 0.08132 0.04234 0.03391 0.0
Tb356 Tb 0.27937 0.83352 0.27714 0.0
C357 C 0.33955 0.79759 0.26874 0.0
Tb358 Tb 0.26436 0.75553 0.25728 0.0
O359 O 0.27093 0.82554 0.32881 0.0
O360 O 0.28626 0.7896 0.29941 0.0
O361 O 0.32891 0.82626 0.27075 0.0
C362 C 0.24606 0.69077 0.26701 0.0
O363 O 0.3189 0.76708 0.26459 0.0
C364 C 0.25481 0.78864 0.20475 0.0
C365 C 0.2059 0.79459 0.26629 0.0
O366 O 0.26636 0.70231 0.24628 0.0
O367 O 0.23674 0.71573 0.2824 0.0
O368 O 0.25111 0.75586 0.20307 0.0
O369 O 0.26412 0.79942 0.23463 0.0
O370 O 0.21659 0.76602 0.26795 0.0
O371 O 0.2265 0.82349 0.26311 0.0
C372 C 0.30112 0.89939 0.27387 0.0
O373 O 0.28447 0.88662 0.29678 0.0
O374 O 0.30476 0.87521 0.25285 0.0
C375 C 0.27636 0.79508 0.32704 0.0
Tb376 Tb 0.56104 0.03789 0.52057 0.0
C377 C 0.53014 1.00053 0.58091 0.0
Tb378 Tb 0.48502 0.01332 0.5195 0.0
O379 O 0.55828 0.09086 0.53112 0.0
O380 O 0.52332 0.05203 0.54557 0.0
O381 O 0.55604 0.01029 0.56475 0.0
C382 C 0.42459 0.02182 0.52155 0.0
O383 O 0.49972 1.00157 0.56909 0.0
C384 C 0.5105 0.96714 0.48749 0.0
C385 C 0.51504 0.05099 0.45942 0.0
O386 O 0.43409 0.99442 0.52848 0.0
O387 O 0.44904 0.04417 0.51433 0.0
O388 O 0.47954 0.9627 0.49172 0.0
O389 O 0.52389 0.99624 0.50139 0.0
O390 O 0.48913 0.03948 0.47488 0.0
O391 O 0.54594 0.05246 0.47199 0.0
C392 C 0.62263 0.02965 0.52483 0.0
O393 O 0.59999 0.0172 0.50031 0.0
O394 O 0.61108 0.04886 0.54552 0.0
C395 C 0.53027 0.08351 0.54332 0.0
Tb396 Tb 0.27343 0.27373 0.80291 0.0
C397 C 0.27655 0.32844 0.75196 0.0
Tb398 Tb 0.25323 0.25164 0.7253 0.0
O399 O 0.32648 0.27212 0.80295 0.0
O400 O 0.29452 0.26195 0.76069 0.0
O401 O 0.269 0.32041 0.78157 0.0
C402 C 0.26314 0.22635 0.66659 0.0
O403 O 0.27652 0.30521 0.72697 0.0
C404 C 0.20249 0.2626 0.75573 0.0
C405 C 0.24496 0.19579 0.77707 0.0
O406 O 0.24738 0.25041 0.67157 0.0
O407 O 0.27299 0.21656 0.69447 0.0
O408 O 0.2004 0.25312 0.7241 0.0
O409 O 0.23209 0.26524 0.76714 0.0
O410 O 0.24189 0.2031 0.74585 0.0
O411 O 0.25693 0.2189 0.80294 0.0
C412 C 0.26995 0.29923 0.86394 0.0
O413 O 0.25229 0.27041 0.84976 0.0
O414 O 0.29008 0.31285 0.8442 0.0
C415 C 0.32416 0.26412 0.77111 0.0
Tb416 Tb 0.99694 0.04713 0.49527 0.0
C417 C 0.95766 0.03035 0.55381 0.0
Tb418 Tb 0.03499 0.03519 0.56049 0.0
O419 O 0.97513 0.99222 0.486 0.0
O420 O 0.02122 0.01038 0.5125 0.0
O421 O 0.96097 0.04989 0.52948 0.0
C422 C 0.05584 1.00206 0.60877 0.0
O423 O 0.98275 0.01873 0.56729 0.0
C424 C 0.03482 0.09811 0.5533 0.0
C425 C 0.07478 0.05721 0.50063 0.0
O426 O 0.04841 0.03151 0.61288 0.0
O427 O 0.05185 0.99147 0.5775 0.0
O428 O 0.05691 0.0892 0.57327 0.0
O429 O 0.01224 0.07252 0.54312 0.0
O430 O 0.0757 0.04665 0.53073 0.0
O431 O 0.04711 0.05874 0.48261 0.0
C432 C 0.97235 0.07238 0.44295 0.0
O433 O 0.96326 0.04157 0.45012 0.0
O434 O 0.99514 0.08937 0.46557 0.0
C435 C 0.99927 0.98423 0.50358 0.0
Tb436 Tb 0.30827 0.77797 0.77873 0.0
C437 C 0.25323 0.77964 0.82771 0.0
Tb438 Tb 0.23576 0.75959 0.74983 0.0
O439 O 0.30864 0.83162 0.79129 0.0
O440 O 0.27492 0.80217 0.75432 0.0
O441 O 0.28481 0.7826 0.82394 0.0
C442 C 0.17938 0.77294 0.72515 0.0
O443 O 0.22977 0.77057 0.80226 0.0
C444 C 0.26159 0.70634 0.7559 0.0
C445 C 0.29001 0.75627 0.70041 0.0
O446 O 0.18206 0.74517 0.73788 0.0
O447 O 0.20808 0.79258 0.72633 0.0
O448 O 0.23494 0.70634 0.73652 0.0
O449 O 0.26929 0.73424 0.77461 0.0
O450 O 0.25845 0.7554 0.70351 0.0
O451 O 0.31337 0.76399 0.72612 0.0
C452 C 0.36545 0.77465 0.81057 0.0
O453 O 0.362 0.79286 0.78628 0.0
O454 O 0.33707 0.75801 0.81634 0.0
C455 C 0.28165 0.83022 0.77224 0.0
Tb456 Tb 0.48119 0.02725 0.00736 0.0
C457 C 0.5295 0.97524 0.01464 0.0
Tb458 Tb 0.55406 0.05415 0.02813 0.0
O459 O 0.48436 0.037 0.95588 0.0
O460 O 0.52452 0.02772 0.98459 0.0
O461 O 0.49856 0.97931 0.01083 0.0
C462 C 0.61739 0.08037 0.02344 0.0
O463 O 0.55499 1.00121 0.01993 0.0
C464 C 0.51698 0.04636 0.07824 0.0
C465 C 0.51024 0.10716 0.01689 0.0
O466 O 0.60647 0.06187 0.04613 0.0
O467 O 0.59258 0.08494 1.00425 0.0
O468 O 0.54826 0.04668 0.0805 0.0
O469 O 0.51008 0.05478 0.04993 0.0
O470 O 0.54034 0.10159 0.01919 0.0
O471 O 0.4836 0.08218 0.01398 0.0
C472 C 0.41842 0.99934 0.01344 0.0
O473 O 0.42853 0.01637 0.98946 0.0
O474 O 0.44376 0.99765 0.03366 0.0
C475 C 0.51559 0.03737 0.9572 0.0
Tb476 Tb 0.23562 0.26577 0.27395 0.0
C477 C 0.29669 0.27633 0.32889 0.0
Tb478 Tb 0.3085 0.3042 0.26106 0.0
O479 O 0.242 0.21413 0.25612 0.0
O480 O 0.27751 0.25626 0.25558 0.0
O481 O 0.26523 0.27704 0.32187 0.0
C482 C 0.36324 0.30956 0.23243 0.0
O483 O 0.3185 0.28349 0.30758 0.0
C484 C 0.27317 0.34728 0.28362 0.0
C485 C 0.24511 0.30102 0.20884 0.0
O486 O 0.36102 0.32633 0.26047 0.0
O487 O 0.33514 0.28978 0.2213 0.0
O488 O 0.30261 0.35601 0.2747 0.0
O489 O 0.26656 0.31513 0.27997 0.0
O490 O 0.2777 0.30666 0.21558 0.0
O491 O 0.22368 0.28633 0.22806 0.0
C492 C 0.18091 0.25069 0.30309 0.0
O493 O 0.18331 0.26542 0.27603 0.0
O494 O 0.20873 0.24337 0.3125 0.0
C495 C 0.27207 0.22479 0.2498 0.0
Tb496 Tb 0.50822 0.54641 0.98413 0.0
C497 C 0.45755 0.52796 0.03526 0.0
Tb498 Tb 0.53215 0.54719 0.05687 0.0
O499 O 0.52627 0.50058 0.97122 0.0
O500 O 0.51117 0.50997 0.01741 0.0
O501 O 0.46373 0.54395 0.00884 0.0
C502 C 0.56136 0.52947 0.11116 0.0
O503 O 0.48138 0.52103 0.05536 0.0
C504 C 0.51681 0.60387 0.0408 0.0
C505 C 0.58396 0.5696 0.00547 0.0
O506 O 0.54128 0.54989 0.11068 0.0
O507 O 0.56534 0.51943 0.08116 0.0
O508 O 0.51509 0.59365 0.07006 0.0
O509 O 0.52936 0.5838 0.02386 0.0
O510 O 0.57859 0.56386 0.0363 0.0
O511 O 0.55999 0.56503 0.98072 0.0
C512 C 0.47858 0.55759 0.92697 0.0
O513 O 0.47334 0.52915 0.93982 0.0
O514 O 0.50071 0.57985 0.94615 0.0
C515 C 0.52496 0.49096 1.00067 0.0
Tb516 Tb 0.8211 0.29707 0.2763 0.0
C517 C 0.76253 0.29504 0.3236 0.0
Tb518 Tb 0.74594 0.27649 0.24609 0.0
O519 O 0.82127 0.35068 0.28761 0.0
O520 O 0.78565 0.31958 0.25302 0.0
O521 O 0.79451 0.29817 0.32064 0.0
C522 C 0.69031 0.28643 0.21598 0.0
O523 O 0.7392 0.28641 0.29799 0.0
C524 C 0.77151 0.22281 0.25841 0.0
C525 C 0.80172 0.27623 0.19776 0.0
O526 O 0.71294 0.30963 0.23346 0.0
O527 O 0.6985 0.25734 0.21605 0.0
O528 O 0.74103 0.22077 0.24645 0.0
O529 O 0.78357 0.25416 0.26401 0.0
O530 O 0.77028 0.27595 0.20094 0.0
O531 O 0.82562 0.28449 0.22316 0.0
C532 C 0.87533 0.2882 0.30943 0.0
O533 O 0.87477 0.30933 0.28715 0.0
O534 O 0.84586 0.2722 0.31264 0.0
C535 C 0.79299 0.34823 0.27021 0.0
Tb536 Tb 0.9746 0.53687 0.5097 0.0
C537 C 0.01645 0.47997 0.52072 0.0
Tb538 Tb 0.05155 0.5571 0.53329 0.0
O539 O 0.97859 0.52566 0.45611 0.0
O540 O 0.01883 0.54358 0.49018 0.0
O541 O 0.98717 0.48795 0.51628 0.0
C542 C 0.11574 0.57622 0.52897 0.0
O543 O 0.04464 0.50267 0.52691 0.0
C544 C 0.01205 0.54734 0.58072 0.0
C545 C 0.0119 0.61467 0.52098 0.0
O546 O 0.09408 0.55804 0.50605 0.0
O547 O 0.10124 0.58361 0.55454 0.0
O548 O 0.04268 0.54456 0.5835 0.0
O549 O 1.00681 0.55857 0.55325 0.0
O550 O 0.04107 0.60644 0.52499 0.0
O551 O 0.98327 0.59223 0.51557 0.0
C552 C 0.91067 0.51753 0.51563 0.0
O553 O 0.92303 0.53732 0.49437 0.0
O554 O 0.93441 0.5092 0.53371 0.0
C555 C 0.01063 0.53381 0.45998 0.0
Tb556 Tb 0.78177 0.79597 0.31103 0.0
C557 C 0.79054 0.85211 0.26241 0.0
Tb558 Tb 0.76706 0.77362 0.23915 0.0
O559 O 0.83494 0.80856 0.30764 0.0
O560 O 0.80423 0.76933 0.27618 0.0
O561 O 0.78327 0.84488 0.29218 0.0
C562 C 0.77996 0.75661 0.17877 0.0
O563 O 0.78799 0.82778 0.23786 0.0
C564 C 0.71507 0.78229 0.26737 0.0
C565 C 0.75681 0.71696 0.28829 0.0
O566 O 0.8017 0.76765 0.20407 0.0
O567 O 0.75074 0.75623 0.18701 0.0
O568 O 0.7137 0.76205 0.24059 0.0
O569 O 0.74421 0.79965 0.27405 0.0
O570 O 0.75742 0.72386 0.25713 0.0
O571 O 0.76545 0.74125 0.31348 0.0
C572 C 0.77363 0.81406 0.37281 0.0
O573 O 0.75084 0.79605 0.35092 0.0
O574 O 0.80123 0.82095 0.36028 0.0
C575 C 0.83329 0.78687 0.28194 0.0
Tb576 Tb 0.77637 0.32851 0.77232 0.0
C577 C 0.83364 0.28736 0.76521 0.0
Tb578 Tb 0.75875 0.25132 0.74987 0.0
O579 O 0.78704 0.32651 0.82637 0.0
O580 O 0.7732 0.2836 0.7937 0.0
O581 O 0.82453 0.31689 0.76466 0.0
C582 C 0.73478 0.18654 0.7553 0.0
O583 O 0.81139 0.25875 0.76516 0.0
C584 C 0.76548 0.2912 0.70121 0.0
C585 C 0.7002 0.29045 0.75579 0.0
O586 O 0.75245 0.19759 0.73238 0.0
O587 O 0.73068 0.21177 0.77469 0.0
O588 O 0.76913 0.25999 0.69893 0.0
O589 O 0.75497 0.29644 0.72861 0.0
O590 O 0.70921 0.26115 0.74982 0.0
O591 O 0.72203 0.31977 0.7648 0.0
C592 C 0.79605 0.3939 0.76743 0.0
O593 O 0.77606 0.38123 0.78788 0.0
O594 O 0.80414 0.36981 0.74938 0.0
C595 C 0.78151 0.29363 0.82391 0.0
Tb596 Tb 0.73605 0.76201 0.76941 0.0
C597 C 0.79389 0.78851 0.8296 0.0
Tb598 Tb 0.80153 0.80612 0.75778 0.0
O599 O 0.74864 0.71505 0.74941 0.0
O600 O 0.78505 0.75653 0.77022 0.0
O601 O 0.76318 0.77306 0.81859 0.0
C602 C 0.85798 0.82213 0.7319 0.0
O603 O 0.81519 0.80232 0.80998 0.0
C604 C 0.7562 0.83944 0.77382 0.0
C605 C 0.74449 0.77828 0.69713 0.0
O606 O 0.84192 0.8439 0.74316 0.0
O607 O 0.84288 0.7919 0.73625 0.0
O608 O 0.78781 0.85165 0.77962 0.0
O609 O 0.75224 0.81147 0.75625 0.0
O610 O 0.77613 0.79073 0.7077 0.0
O611 O 0.7227 0.76778 0.71759 0.0
C612 C 0.6848 0.75504 0.80398 0.0
O613 O 0.68959 0.73162 0.78222 0.0
O614 O 0.70798 0.7818 0.80529 0.0
C615 C 0.78018 0.72811 0.75334 0.0
Tb616 Tb 0.52546 0.56981 0.52176 0.0
C617 C 0.53879 0.51975 0.465 0.0
Tb618 Tb 0.50368 0.49307 0.52497 0.0
O619 O 0.57765 0.56934 0.53461 0.0
O620 O 0.54238 0.53222 0.54799 0.0
O621 O 0.52752 0.5474 0.47159 0.0
C622 C 0.50404 0.43092 0.54126 0.0
O623 O 0.5349 0.49521 0.48469 0.0
C624 C 0.45572 0.52214 0.50188 0.0
C625 C 0.4848 0.54457 0.5796 0.0
O626 O 0.48893 0.43749 0.51397 0.0
O627 O 0.51905 0.45904 0.55851 0.0
O628 O 0.45175 0.49396 0.51542 0.0
O629 O 0.48617 0.5303 0.49831 0.0
O630 O 0.48651 0.51292 0.56984 0.0
O631 O 0.4993 0.57117 0.56542 0.0
C632 C 0.53285 0.63353 0.50548 0.0
O633 O 0.50662 0.61595 0.5153 0.0
O634 O 0.55502 0.61574 0.50655 0.0
C635 C 0.57287 0.53997 0.54555 0.0
Tb636 Tb 0.05565 0.54543 0.02954 0.0
C637 C 0.03256 0.51354 0.09528 0.0
Tb638 Tb 0.98418 0.52429 0.03565 0.0
O639 O 0.05484 0.59917 0.03795 0.0
O640 O 0.02293 0.56314 0.05931 0.0
O641 O 0.05651 0.52322 0.07685 0.0
C642 C 0.92347 0.53242 0.03797 0.0
O643 O 1.00153 0.51424 0.08544 0.0
C644 C 0.01011 0.47502 0.01235 0.0
C645 C 1.00787 0.55377 0.96873 0.0
O646 O 0.93119 0.5034 0.03171 0.0
O647 O 0.94975 0.55623 0.04407 0.0
O648 O 0.98459 0.47079 0.02863 0.0
O649 O 0.01686 0.50566 0.00655 0.0
O650 O 0.98362 0.54516 0.98729 0.0
O651 O 0.03882 0.55375 0.97926 0.0
C652 C 0.11702 0.53753 0.0298 0.0
O653 O 0.10867 0.56658 0.03289 0.0
O654 O 0.09091 0.51351 0.0262 0.0
C655 C 0.02952 0.59391 0.05438 0.0
C656 C 0.05736 0.20782 0.94272 0.0
C657 C 0.02575 0.2132 0.93205 0.0
C658 C 1.00173 0.1749 0.97097 0.0
C659 C 0.03254 0.16633 0.97857 0.0
N660 N 0.08893 0.17111 0.96806 0.0
N661 N 0.96702 0.19839 0.93262 0.0
C662 C 0.06028 0.18205 0.96373 0.0
C663 C 0.9977 0.19594 0.94541 0.0
N664 N 0.08475 0.228 0.9336 0.0
N665 N 0.97641 0.16333 0.98871 0.0
H666 H 0.96299 0.21311 0.91356 0.0
H667 H 0.94546 0.18352 0.93871 0.0
H668 H 0.97874 0.14843 0.00803 0.0
H669 H 0.95423 0.17109 0.98656 0.0
H670 H 0.10854 0.2278 0.94352 0.0
H671 H 0.08371 0.2471 0.91827 0.0
H672 H 0.10852 0.17855 0.95453 0.0
H673 H 0.09235 0.15259 0.98336 0.0
C674 C 0.11402 0.75736 0.24598 0.0
C675 C 0.10268 0.78595 0.23562 0.0
C676 C 0.15647 0.82239 0.25823 0.0
C677 C 0.16916 0.79313 0.26337 0.0
N678 N 0.15413 0.73748 0.28123 0.0
N679 N 0.11282 0.84623 0.23292 0.0
C680 C 0.14625 0.76185 0.2629 0.0
C681 C 0.12382 0.81867 0.24224 0.0
N682 N 0.09493 0.72548 0.23801 0.0
N683 N 0.17419 0.85349 0.27189 0.0
H684 H 0.08839 0.84507 0.22399 0.0
H685 H 0.12816 0.86992 0.23261 0.0
H686 H 0.19526 0.85638 0.2886 0.0
H687 H 0.16564 0.8757 0.27106 0.0
H688 H 0.10378 0.70366 0.24099 0.0
H689 H 0.07112 0.72055 0.22597 0.0
H690 H 0.1375 0.7152 0.28393 0.0
H691 H 0.17529 0.74196 0.29807 0.0
C692 C 0.55631 0.92076 0.42773 0.0
C693 C 0.54177 0.88687 0.43167 0.0
C694 C 0.51646 0.907 0.47904 0.0
C695 C 0.52586 0.94079 0.47121 0.0
N696 N 0.55262 0.97911 0.43509 0.0
N697 N 0.50467 0.84741 0.45912 0.0
C698 C 0.54569 0.94758 0.44508 0.0
C699 C 0.52121 0.87982 0.45705 0.0
N700 N 0.58066 0.92738 0.40771 0.0
N701 N 0.50354 0.90086 0.50794 0.0
H702 H 0.50676 0.82672 0.44321 0.0
H703 H 0.48656 0.84142 0.47472 0.0
H704 H 0.50055 0.92019 0.52508 0.0
H705 H 0.49924 0.8771 0.51657 0.0
H706 H 0.59467 0.9516 0.40658 0.0
H707 H 0.58908 0.9083 0.39473 0.0
H708 H 0.56321 0.98465 0.41361 0.0
H709 H 0.54513 0.99909 0.44684 0.0
C710 C 0.4039 0.28324 0.73049 0.0
C711 C 0.409 0.25016 0.72178 0.0
C712 C 0.35827 0.22619 0.7456 0.0
C713 C 0.35182 0.25892 0.75176 0.0
N714 N 0.36554 0.3181 0.74422 0.0
N715 N 0.38566 0.19006 0.71345 0.0
C716 C 0.37367 0.28724 0.74219 0.0
C717 C 0.38458 0.2216 0.72714 0.0
N718 N 0.42867 0.31094 0.72973 0.0
N719 N 0.34012 0.19952 0.75855 0.0
H720 H 0.40352 0.18574 0.69857 0.0
H721 H 0.36682 0.16884 0.71379 0.0
H722 H 0.32108 0.20202 0.77255 0.0
H723 H 0.34583 0.17574 0.75788 0.0
H724 H 0.42768 0.33529 0.73914 0.0
H725 H 0.45161 0.30936 0.72283 0.0
H726 H 0.37854 0.33898 0.73437 0.0
H727 H 0.344 0.32196 0.75309 0.0
C728 C 0.02876 0.90279 0.51241 0.0
C729 C 0.01818 0.89532 0.54362 0.0
C730 C 0.98467 0.93766 0.53923 0.0
C731 C 1.00128 0.95024 0.51292 0.0
N732 N 0.04146 0.94595 0.47533 0.0
N733 N 0.99167 0.91318 0.59026 0.0
C734 C 0.02421 0.93326 0.49985 0.0
C735 C 0.99742 0.91462 0.55803 0.0
N736 N 0.04121 0.88011 0.49371 0.0
N737 N 0.95673 0.94748 0.54623 0.0
H738 H 1.00359 0.90004 0.60653 0.0
H739 H 0.97851 0.9289 0.60194 0.0
H740 H 0.94564 0.96225 0.53104 0.0
H741 H 0.94273 0.9374 0.56424 0.0
H742 H 0.04692 0.88361 0.4698 0.0
H743 H 0.04165 0.85589 0.50003 0.0
H744 H 0.0611 0.93655 0.46759 0.0
H745 H 0.03733 0.96712 0.46421 0.0
C746 C 0.42831 0.78353 0.88567 0.0
C747 C 0.45312 0.77058 0.87124 0.0
C748 C 0.42186 0.7632 0.81642 0.0
C749 C 0.39629 0.77472 0.831 0.0
N750 N 0.37327 0.79353 0.87945 0.0
N751 N 0.47197 0.74254 0.8251 0.0
C752 C 0.39882 0.78387 0.86568 0.0
C753 C 0.44941 0.75876 0.83721 0.0
N754 N 0.43382 0.79744 0.91798 0.0
N755 N 0.42002 0.75692 0.7828 0.0
H756 H 0.49223 0.73863 0.84 0.0
H757 H 0.46925 0.73032 0.80124 0.0
H758 H 0.39985 0.75895 0.76671 0.0
H759 H 0.4394 0.752 0.77051 0.0
H760 H 0.41865 0.8113 0.92886 0.0
H761 H 0.45478 0.79693 0.93373 0.0
H762 H 0.37159 0.79558 0.90476 0.0
H763 H 0.35292 0.79846 0.86559 0.0
C764 C 0.48498 0.19254 0.01792 0.0
C765 C 0.50534 0.20999 0.04656 0.0
C766 C 0.52443 0.15891 0.05745 0.0
C767 C 0.50717 0.1422 0.02688 0.0
N768 N 0.47355 0.14398 0.97603 0.0
N769 N 0.55135 0.21233 0.08798 0.0
C770 C 0.48793 0.15918 0.00653 0.0
C771 C 0.52704 0.19392 0.0647 0.0
N772 N 0.46261 0.20762 1.00208 0.0
N773 N 0.53729 0.14125 0.08047 0.0
H774 H 0.55537 0.23851 0.09333 0.0
H775 H 0.56988 0.20215 0.09932 0.0
H776 H 0.53539 0.11528 0.07709 0.0
H777 H 0.54664 0.15186 0.10451 0.0
H778 H 0.44484 0.19514 0.98296 0.0
H779 H 0.46042 0.23213 0.00974 0.0
H780 H 0.46185 0.15623 0.95872 0.0
H781 H 0.47544 0.11974 0.96707 0.0
C782 C 0.09576 0.24028 0.33184 0.0
C783 C 0.10435 0.24761 0.36666 0.0
C784 C 0.16218 0.26224 0.35852 0.0
C785 C 0.15417 0.25007 0.32442 0.0
N786 N 0.11305 0.22284 0.27939 0.0
N787 N 0.1465 0.25739 0.41333 0.0
C788 C 0.12083 0.23777 0.31121 0.0
C789 C 0.13774 0.25627 0.38006 0.0
N790 N 0.06406 0.23732 0.31825 0.0
N791 N 0.19256 0.28134 0.37043 0.0
H792 H 0.12953 0.25134 0.4301 0.0
H793 H 0.17085 0.26062 0.42364 0.0
H794 H 0.21184 0.28674 0.35622 0.0
H795 H 0.19722 0.29512 0.39375 0.0
H796 H 0.05715 0.23527 0.29284 0.0
H797 H 0.04521 0.24048 0.33225 0.0
H798 H 0.0893 0.21031 0.26963 0.0
H799 H 0.13074 0.22027 0.26367 0.0
C800 C 0.96224 0.04319 0.16436 0.0
C801 C 0.94354 0.06849 0.16695 0.0
C802 C 0.96881 0.09402 0.12049 0.0
C803 C 0.98827 0.06903 0.11874 0.0
N804 N 0.01161 0.02859 0.14732 0.0
N805 N 0.93574 0.12305 0.15364 0.0
C806 C 0.98762 0.04656 0.1435 0.0
C807 C 0.94909 0.09563 0.14705 0.0
N808 N 0.95469 0.01481 0.18032 0.0
N809 N 0.96724 0.11486 0.09608 0.0
H810 H 0.92104 0.12482 0.17261 0.0
H811 H 0.9417 0.14528 0.14246 0.0
H812 H 0.97935 0.11405 0.07517 0.0
H813 H 0.95146 0.13148 0.09499 0.0
H814 H 0.9655 0.99415 0.17645 0.0
H815 H 0.93526 0.0102 0.19461 0.0
H816 H 0.01396 0.01396 0.1668 0.0
H817 H 0.03129 0.0315 0.13321 0.0
C818 C 0.31451 0.75993 0.40206 0.0
C819 C 0.28659 0.74562 0.41716 0.0
C820 C 0.25166 0.76428 0.37332 0.0
C821 C 0.27941 0.77517 0.35637 0.0
N822 N 0.3357 0.77184 0.35088 0.0
N823 N 0.22745 0.72649 0.41146 0.0
C824 C 0.31032 0.76944 0.3695 0.0
C825 C 0.25476 0.74573 0.40129 0.0
N826 N 0.3452 0.76596 0.41916 0.0
N827 N 0.22211 0.77114 0.36254 0.0
H828 H 0.22851 0.7108 0.43024 0.0
H829 H 0.20401 0.72305 0.39875 0.0
H830 H 0.21825 0.78274 0.34114 0.0
H831 H 0.20206 0.76722 0.37605 0.0
H832 H 0.36599 0.77939 0.41021 0.0
H833 H 0.3494 0.76133 0.44373 0.0
H834 H 0.35769 0.76509 0.35851 0.0
H835 H 0.33313 0.77589 0.32631 0.0
C836 C 0.55274 0.01518 0.67363 0.0
C837 C 0.56284 0.98492 0.68079 0.0
C838 C 0.5492 0.96325 0.6218 0.0
C839 C 0.53685 0.99237 0.61549 0.0
N840 N 0.51878 0.04151 0.63761 0.0
N841 N 0.56393 0.9272 0.66264 0.0
C842 C 0.53558 0.01655 0.6422 0.0
C843 C 0.55899 0.958 0.6551 0.0
N844 N 0.56217 0.04392 0.69539 0.0
N845 N 0.55205 0.94084 0.59596 0.0
H846 H 0.57011 0.92229 0.68682 0.0
H847 H 0.55876 0.90574 0.64552 0.0
H848 H 0.54364 0.94305 0.57154 0.0
H849 H 0.56445 0.92136 0.59854 0.0
H850 H 0.5584 0.0674 0.68956 0.0
H851 H 0.57732 0.04569 0.7175 0.0
H852 H 0.51445 0.0576 0.65714 0.0
H853 H 0.50665 0.04434 0.6149 0.0
C854 C 0.23462 0.33505 0.93814 0.0
C855 C 0.26406 0.35368 0.9569 0.0
C856 C 0.29644 0.33095 0.91773 0.0
C857 C 0.26718 0.31555 0.89688 0.0
N858 N 0.20837 0.30878 0.88414 0.0
N859 N 0.32254 0.37626 0.96 0.0
C860 C 0.23614 0.31902 0.90619 0.0
C861 C 0.29487 0.35364 0.94538 0.0
N862 N 0.20543 0.33172 0.95111 0.0
N863 N 0.32563 0.32302 0.91185 0.0
H864 H 0.32228 0.39455 0.97943 0.0
H865 H 0.345 0.37936 0.95041 0.0
H866 H 0.32762 0.30516 0.8927 0.0
H867 H 0.34709 0.33125 0.9282 0.0
H868 H 0.18383 0.3154 0.93989 0.0
H869 H 0.20337 0.34297 0.97449 0.0
H870 H 0.18582 0.31403 0.88866 0.0
H871 H 0.20831 0.29799 0.86009 0.0
C872 C 0.96439 0.10153 0.35734 0.0
C873 C 0.93095 0.08582 0.34774 0.0
C874 C 0.92389 0.0768 0.40519 0.0
C875 C 0.95847 0.08486 0.41297 0.0
N876 N 0.01236 0.10677 0.39717 0.0
N877 N 0.87791 0.05907 0.36226 0.0
C878 C 0.97898 0.09871 0.38958 0.0
C879 C 0.91015 0.0744 0.37172 0.0
N880 N 0.98204 0.11882 0.33536 0.0
N881 N 0.90434 0.07139 0.42996 0.0
H882 H 0.86666 0.05749 0.33813 0.0
H883 H 0.86273 0.04627 0.37797 0.0
H884 H 0.91402 0.07369 0.45479 0.0
H885 H 0.8789 0.06817 0.42637 0.0
H886 H 1.00577 0.13343 0.34155 0.0
H887 H 0.97153 0.12117 0.31167 0.0
H888 H 0.02862 0.11284 0.37979 0.0
H889 H 0.02412 0.10583 0.42059 0.0
C890 C 0.29463 0.70162 0.62009 0.0
C891 C 0.31656 0.72426 0.60354 0.0
C892 C 0.31926 0.76924 0.64927 0.0
C893 C 0.29933 0.74565 0.66687 0.0
N894 N 0.27399 0.68732 0.67103 0.0
N895 N 0.35229 0.77882 0.60346 0.0
C896 C 0.28873 0.71136 0.65275 0.0
C897 C 0.32957 0.75794 0.61845 0.0
N898 N 0.27783 0.67102 0.60407 0.0
N899 N 0.32743 0.80265 0.66149 0.0
H900 H 0.35988 0.7712 0.581 0.0
H901 H 0.36528 0.80259 0.61418 0.0
H902 H 0.32043 0.81156 0.6838 0.0
H903 H 0.33906 0.82186 0.64863 0.0
H904 H 0.25813 0.65575 0.6131 0.0
H905 H 0.28108 0.66202 0.5803 0.0
H906 H 0.2703 0.66138 0.66425 0.0
H907 H 0.26824 0.69326 0.69441 0.0
C908 C 0.57081 0.05106 0.88813 0.0
C909 C 0.55981 0.01989 0.86757 0.0
C910 C 0.52234 0.99888 0.90767 0.0
C911 C 0.5312 0.03119 0.92662 0.0
N912 N 0.5601 0.08956 0.93242 0.0
N913 N 0.52237 0.96549 0.85547 0.0
C914 C 0.55445 0.05769 0.91618 0.0
C915 C 0.53497 0.99405 0.87684 0.0
N916 N 0.59769 0.07392 0.88145 0.0
N917 N 0.50235 0.97255 0.91951 0.0
H918 H 0.53111 0.96094 0.83286 0.0
H919 H 0.50166 0.94746 0.85886 0.0
H920 H 0.49196 0.97514 0.94147 0.0
H921 H 0.49819 0.94753 0.90908 0.0
H922 H 0.60906 0.0955 0.89729 0.0
H923 H 0.61059 0.06978 0.86147 0.0
H924 H 0.5741 0.11081 0.92405 0.0
H925 H 0.54854 0.09529 0.95296 0.0
C926 C 0.21937 0.36246 0.1533 0.0
C927 C 0.24138 0.35891 0.12961 0.0
C928 C 0.24762 0.30548 0.14969 0.0
C929 C 0.23337 0.31385 0.17817 0.0
N930 N 0.20293 0.34923 0.20667 0.0
N931 N 0.27979 0.32796 0.10779 0.0
C932 C 0.21778 0.34165 0.17962 0.0
C933 C 0.25594 0.33027 0.12789 0.0
N934 N 0.19968 0.38517 0.15029 0.0
N935 N 0.2541 0.27409 0.14431 0.0
H936 H 0.28909 0.34675 0.09327 0.0
H937 H 0.29305 0.30897 0.10834 0.0
H938 H 0.247 0.25552 0.15994 0.0
H939 H 0.26259 0.26554 0.12272 0.0
H940 H 0.18116 0.3868 0.1652 0.0
H941 H 0.19957 0.40001 0.13066 0.0
H942 H 0.19531 0.37183 0.21111 0.0
H943 H 0.199 0.33324 0.22514 0.0
C944 C 0.12722 0.97709 0.06909 0.0
C945 C 0.15013 0.97482 0.04601 0.0
C946 C 0.12654 0.01452 0.01376 0.0
C947 C 0.10533 0.01921 0.0383 0.0
N948 N 0.09237 0.01051 0.09373 0.0
N949 N 0.17577 0.99679 0.99978 0.0
C950 C 0.10742 1.00184 0.06711 0.0
C951 C 0.15085 0.99498 0.01927 0.0
N952 N 0.12378 0.95505 0.09261 0.0
N953 N 0.12296 0.0277 0.98438 0.0
H954 H 0.19405 0.98305 1.00279 0.0
H955 H 0.18014 0.01425 0.98259 0.0
H956 H 0.10664 0.04298 0.9794 0.0
H957 H 0.13424 0.02119 0.9639 0.0
H958 H 0.10497 0.95274 0.10773 0.0
H959 H 0.13789 0.93688 0.09491 0.0
H960 H 0.09563 1.00113 0.11648 0.0
H961 H 0.07954 0.02985 0.09447 0.0
C962 C 0.67711 0.59281 0.0119 0.0
C963 C 0.68207 0.61593 0.9877 0.0
C964 C 0.62309 0.61307 0.9798 0.0
C965 C 0.61776 0.58545 0.99935 0.0
N966 N 0.64072 0.5451 0.02926 0.0
N967 N 0.65896 0.6438 0.94448 0.0
C968 C 0.64504 0.57408 0.01398 0.0
C969 C 0.65482 0.62478 0.97034 0.0
N970 N 0.70258 0.59009 0.03434 0.0
N971 N 0.59876 0.62987 0.97221 0.0
H972 H 0.68191 0.653 0.93688 0.0
H973 H 0.63914 0.64727 0.92873 0.0
H974 H 0.5761 0.62465 0.9814 0.0
H975 H 0.60262 0.65188 0.96039 0.0
H976 H 0.69933 0.57589 0.05433 0.0
H977 H 0.72614 0.60519 0.03562 0.0
H978 H 0.66015 0.53417 0.03703 0.0
H979 H 0.61781 0.53014 0.03136 0.0
C980 C 0.73668 0.40688 0.24367 0.0
C981 C 0.73831 0.42812 0.27349 0.0
C982 C 0.77323 0.39518 0.30185 0.0
C983 C 0.77368 0.37542 0.27127 0.0
N984 N 0.76383 0.37067 0.21164 0.0
N985 N 0.76411 0.44727 0.32908 0.0
C986 C 0.75754 0.38344 0.24175 0.0
C987 C 0.75826 0.42361 0.30207 0.0
N988 N 0.71459 0.40843 0.21728 0.0
N989 N 0.78602 0.38634 0.33106 0.0
H990 H 0.75384 0.46853 0.33021 0.0
H991 H 0.78162 0.44772 0.34911 0.0
H992 H 0.79583 0.36505 0.33299 0.0
H993 H 0.78342 0.39779 0.35412 0.0
H994 H 0.71028 0.3914 0.19598 0.0
H995 H 0.69835 0.42466 0.21784 0.0
H996 H 0.75588 0.3791 0.18955 0.0
H997 H 0.77998 0.35462 0.2088 0.0
C998 C 0.81933 0.47614 0.49358 0.0
C999 C 0.81019 0.47073 0.52553 0.0
C1000 C 0.86403 0.50466 0.55012 0.0
C1001 C 0.87508 0.5047 0.51832 0.0
N1002 N 0.86372 0.48648 0.45959 0.0
N1003 N 0.82511 0.47712 0.58471 0.0
C1004 C 0.85275 0.48987 0.48986 0.0
C1005 C 0.8327 0.48464 0.55402 0.0
N1006 N 0.79592 0.46806 0.46674 0.0
N1007 N 0.88322 0.52432 0.57655 0.0
H1008 H 0.80251 0.46268 0.58887 0.0
H1009 H 0.84215 0.48306 0.60582 0.0
H1010 H 0.90584 0.54002 0.57444 0.0
H1011 H 0.87521 0.52782 0.59968 0.0
H1012 H 0.80035 0.47433 0.44315 0.0
H1013 H 0.7712 0.45818 0.46881 0.0
H1014 H 0.84922 0.47241 0.43888 0.0
H1015 H 0.88808 0.49489 0.45557 0.0
C1016 C 0.32856 0.16304 0.26566 0.0
C1017 C 0.34308 0.162 0.23549 0.0
C1018 C 0.31124 0.20234 0.21515 0.0
C1019 C 0.29694 0.20366 0.24515 0.0
N1020 N 0.28961 0.18351 0.29829 0.0
N1021 N 0.34709 0.18134 0.18102 0.0
C1022 C 0.30509 0.18359 0.27028 0.0
C1023 C 0.33397 0.18146 0.21022 0.0
N1024 N 0.33698 0.14405 0.28987 0.0
N1025 N 0.30276 0.22072 0.19055 0.0
H1026 H 0.36477 0.16789 0.17518 0.0
H1027 H 0.36477 0.16789 0.17518 0.0
H1028 H 0.28599 0.23616 0.19277 0.0
H1029 H 0.31264 0.22053 0.16806 0.0
H1030 H 0.33129 0.14677 0.31401 0.0
H1031 H 0.35044 0.1255 0.28625 0.0
H1032 H 0.29086 0.16674 0.31597 0.0
H1033 H 0.27454 0.20005 0.30394 0.0
C1034 C 0.35743 0.06801 0.53566 0.0
C1035 C 0.33457 0.05297 0.50785 0.0
C1036 C 0.36605 0.00979 0.49675 0.0
C1037 C 0.39128 0.02795 0.52133 0.0
N1038 N 0.41161 0.07331 0.56513 0.0
N1039 N 0.31586 0.01009 0.46168 0.0
C1040 C 0.38698 0.0566 0.54131 0.0
C1041 C 0.33822 0.02363 0.48859 0.0
N1042 N 0.35049 0.09277 0.5569 0.0
N1043 N 0.36901 0.97976 0.48092 0.0
H1044 H 0.29486 0.0193 0.45556 0.0
H1045 H 0.3188 0.99104 0.44432 0.0
H1046 H 0.38942 0.96932 0.48574 0.0
H1047 H 0.3503 0.96375 0.46487 0.0
H1048 H 0.36459 0.10263 0.57932 0.0
H1049 H 0.32901 0.10178 0.5534 0.0
H1050 H 0.41212 0.09688 0.57755 0.0
H1051 H 0.43243 0.06399 0.57179 0.0
C1052 C 0.73765 0.62069 0.2723 0.0
C1053 C 0.72198 0.6104 0.30023 0.0
C1054 C 0.72791 0.67031 0.32068 0.0
C1055 C 0.74692 0.68044 0.2946 0.0
N1056 N 0.77864 0.66259 0.25248 0.0
N1057 N 0.7103 0.62591 0.35533 0.0
C1058 C 0.75463 0.65483 0.27267 0.0
C1059 C 0.71983 0.63539 0.32587 0.0
N1060 N 0.7346 0.59886 0.24424 0.0
N1061 N 0.71543 0.69313 0.33918 0.0
H1062 H 0.7051 0.60069 0.36029 0.0
H1063 H 0.71115 0.64326 0.37589 0.0
H1064 H 0.71818 0.71845 0.33526 0.0
H1065 H 0.69884 0.68595 0.35606 0.0
H1066 H 0.74303 0.60665 0.22235 0.0
H1067 H 0.72034 0.57429 0.24122 0.0
H1068 H 0.7868 0.64412 0.23834 0.0
H1069 H 0.79312 0.68678 0.25283 0.0
C1070 C 0.83295 0.47381 0.73216 0.0
C1071 C 0.84966 0.49423 0.76118 0.0
C1072 C 0.82805 0.45015 0.79538 0.0
C1073 C 0.81057 0.43005 0.76646 0.0
N1074 N 0.78937 0.42602 0.70893 0.0
N1075 N 0.85597 0.5062 0.82054 0.0
C1076 C 0.81074 0.44302 0.73533 0.0
C1077 C 0.84479 0.4838 0.79287 0.0
N1078 N 0.83972 0.48269 0.70162 0.0
N1079 N 0.8308 0.43656 0.82475 0.0
H1080 H 0.86807 0.53124 0.81949 0.0
H1081 H 0.85038 0.50099 0.84411 0.0
H1082 H 0.81965 0.41182 0.82792 0.0
H1083 H 0.84659 0.44898 0.84543 0.0
H1084 H 0.83113 0.46673 0.67983 0.0
H1085 H 0.85607 0.5049 0.6981 0.0
H1086 H 0.78618 0.43583 0.6864 0.0
H1087 H 0.7724 0.40359 0.71062 0.0
C1088 C 1.00325 0.85227 0.07198 0.0
C1089 C 1.00774 0.85561 0.10712 0.0
C1090 C 1.00021 0.91391 0.10787 0.0
C1091 C 1.00123 0.91227 0.07315 0.0
N1092 N 1.00754 0.88069 0.0223 0.0
N1093 N 0.01486 0.8914 0.1588 0.0
C1094 C 1.00343 0.88156 0.05511 0.0
C1095 C 1.00711 0.88682 0.12521 0.0
N1096 N 0.99794 0.82093 0.05468 0.0
N1097 N 0.99174 0.941 0.12419 0.0
H1098 H 0.02076 0.87259 0.17255 0.0
H1099 H 0.0184 0.91484 0.17271 0.0
H1100 H 0.98531 0.96069 0.1121 0.0
H1101 H 0.98756 0.9421 0.14893 0.0
H1102 H 0.99128 0.8165 0.0292 0.0
H1103 H 0.99685 0.79882 0.06619 0.0
H1104 H 0.01316 0.86009 0.00893 0.0
H1105 H 1.00812 0.90152 0.00898 0.0
C1106 C 0.91055 0.25415 0.79039 0.0
C1107 C 0.93354 0.28479 0.80236 0.0
C1108 C 0.89498 0.31686 0.77761 0.0
C1109 C 0.87006 0.28658 0.77073 0.0
N1110 N 0.86189 0.22698 0.75307 0.0
N1111 N 0.94791 0.34579 0.80707 0.0
C1112 C 0.88004 0.25524 0.77201 0.0
C1113 C 0.92584 0.31626 0.79567 0.0
N1114 N 0.91691 0.22392 0.79814 0.0
N1115 N 0.89064 0.34532 0.76382 0.0
H1116 H 0.97167 0.3465 0.81786 0.0
H1117 H 0.94213 0.36951 0.80736 0.0
H1118 H 0.87135 0.34496 0.7456 0.0
H1119 H 0.90858 0.36764 0.76603 0.0
H1120 H 0.89936 0.20123 0.79388 0.0
H1121 H 0.93893 0.22183 0.81112 0.0
H1122 H 0.86911 0.20396 0.75086 0.0
H1123 H 0.84239 0.22798 0.73555 0.0
C1124 C 0.48472 0.14937 0.5763 0.0
C1125 C 0.50174 0.15914 0.60855 0.0
C1126 C 0.53492 0.11649 0.59929 0.0
C1127 C 0.51934 0.10845 0.56618 0.0
N1128 N 0.4825 0.11969 0.52167 0.0
N1129 N 0.53964 0.14911 0.65299 0.0
C1130 C 0.49478 0.12528 0.55439 0.0
C1131 C 0.52566 0.1416 0.6208 0.0
N1132 N 0.45826 0.16266 0.56708 0.0
N1133 N 0.56005 0.10155 0.60942 0.0
H1134 H 0.53502 0.16843 0.669 0.0
H1135 H 0.5545 0.13518 0.66486 0.0
H1136 H 0.56704 0.08259 0.59482 0.0
H1137 H 0.57512 0.10845 0.63173 0.0
H1138 H 0.44251 0.15441 0.5453 0.0
H1139 H 0.45015 0.1799 0.58289 0.0
H1140 H 0.46711 0.13355 0.51048 0.0
H1141 H 0.48969 0.10267 0.50489 0.0
C1142 C 0.63239 0.76283 0.30338 0.0
C1143 C 0.62865 0.79572 0.31444 0.0
C1144 C 0.67981 0.82028 0.29173 0.0
C1145 C 0.68548 0.78728 0.28388 0.0
N1146 N 0.66873 0.72701 0.28669 0.0
N1147 N 0.65121 0.85577 0.32345 0.0
C1148 C 0.66207 0.75853 0.29078 0.0
C1149 C 0.65308 0.82444 0.30982 0.0
N1150 N 0.6071 0.7356 0.30417 0.0
N1151 N 0.69865 0.84756 0.28022 0.0
H1152 H 0.63171 0.85993 0.33608 0.0
H1153 H 0.67018 0.87713 0.32449 0.0
H1154 H 0.71711 0.84558 0.26534 0.0
H1155 H 0.69369 0.87166 0.2823 0.0
H1156 H 0.60654 0.71144 0.29301 0.0
H1157 H 0.5852 0.7377 0.31343 0.0
H1158 H 0.65469 0.70572 0.29497 0.0
H1159 H 0.69 0.72242 0.27785 0.0
C1160 C 0.06303 0.18368 0.52063 0.0
C1161 C 0.03184 0.19003 0.51039 0.0
C1162 C 1.00542 0.14298 0.5387 0.0
C1163 C 0.03559 0.13248 0.54321 0.0
N1164 N 0.094 0.143 0.53794 0.0
N1165 N 0.97268 0.17389 0.50664 0.0
C1166 C 0.06486 0.15314 0.53465 0.0
C1167 C 1.00282 0.16937 0.51881 0.0
N1168 N 0.09084 0.20705 0.51722 0.0
N1169 N 0.97958 0.12856 0.5545 0.0
H1170 H 0.96955 0.19301 0.49195 0.0
H1171 H 0.95082 0.15688 0.50884 0.0
H1172 H 0.9814 0.11078 0.57118 0.0
H1173 H 0.95786 0.13719 0.55426 0.0
H1174 H 0.11425 0.20582 0.52741 0.0
H1175 H 0.09022 0.22951 0.50676 0.0
H1176 H 0.115 0.15516 0.52851 0.0
H1177 H 0.09711 0.12096 0.54769 0.0
C1178 C 0.60371 0.2793 0.17528 0.0
C1179 C 0.60879 0.30622 0.15481 0.0
C1180 C 0.66787 0.31636 0.17116 0.0
C1181 C 0.66222 0.29307 0.19504 0.0
N1182 N 0.62421 0.25627 0.22373 0.0
N1183 N 0.64528 0.3545 0.13809 0.0
C1184 C 0.62996 0.2757 0.19832 0.0
C1185 C 0.64077 0.32604 0.15418 0.0
N1186 N 0.57462 0.25581 0.1714 0.0
N1187 N 0.69886 0.32758 0.16309 0.0
H1188 H 0.62586 0.36288 0.12604 0.0
H1189 H 0.66789 0.3715 0.13959 0.0
H1190 H 0.71911 0.31932 0.17346 0.0
H1191 H 0.70381 0.3421 0.1436 0.0
H1192 H 0.57117 0.23391 0.18338 0.0
H1193 H 0.5551 0.25592 0.15362 0.0
H1194 H 0.60067 0.24598 0.22925 0.0
H1195 H 0.6429 0.25301 0.24114 0.0
C1196 C 0.53037 0.88103 0.01438 0.0
C1197 C 0.55455 0.87847 0.99282 0.0
C1198 C 0.55956 0.93777 0.98344 0.0
C1199 C 0.53696 0.94134 0.00678 0.0
N1200 N 0.50558 0.91786 0.04903 0.0
N1201 N 0.59747 0.90569 0.96298 0.0
C1202 C 0.52362 0.91335 0.02357 0.0
C1203 C 0.57091 0.90736 0.97949 0.0
N1204 N 0.51323 0.85241 0.0253 0.0
N1205 N 0.56877 0.96256 0.96343 0.0
H1206 H 0.6063 0.88361 0.95958 0.0
H1207 H 0.61265 0.92688 0.95567 0.0
H1208 H 0.56034 0.98487 0.96415 0.0
H1209 H 0.58203 0.95953 0.94353 0.0
H1210 H 0.49266 0.85189 0.03779 0.0
H1211 H 0.51856 0.82868 0.02018 0.0
H1212 H 0.49799 0.89926 0.06438 0.0
H1213 H 0.50048 0.94118 0.05662 0.0
C1214 C 0.90897 0.83414 0.661 0.0
C1215 C 0.93724 0.82337 0.67404 0.0
C1216 C 0.9163 0.81942 0.72781 0.0
C1217 C 0.88763 0.82919 0.71458 0.0
N1218 N 0.86026 0.85456 0.672 0.0
N1219 N 0.97257 0.81627 0.72185 0.0
C1220 C 0.88532 0.83979 0.68238 0.0
C1221 C 0.94239 0.81934 0.70816 0.0
N1222 N 0.90348 0.8366 0.62785 0.0
N1223 N 0.91823 0.80943 0.75893 0.0
H1224 H 0.9925 0.81715 0.70824 0.0
H1225 H 0.97885 0.81629 0.74714 0.0
H1226 H 0.90062 0.81152 0.77491 0.0
H1227 H 0.93646 0.79775 0.76837 0.0
H1228 H 0.88147 0.84027 0.61623 0.0
H1229 H 0.92008 0.83261 0.61135 0.0
H1230 H 0.85934 0.86619 0.65028 0.0
H1231 H 0.84184 0.85797 0.68646 0.0
C1232 C 0.05686 0.98026 0.88495 0.0
C1233 C 0.07936 0.00738 0.87444 0.0
C1234 C 0.07164 0.0455 0.92153 0.0
C1235 C 0.04935 0.01813 0.93289 0.0
N1236 N 0.0143 0.96234 0.92001 0.0
N1237 N 0.11315 0.06369 0.88559 0.0
C1238 C 0.04046 0.98613 0.91329 0.0
C1239 C 0.08764 0.03952 0.89319 0.0
N1240 N 0.05143 0.94875 0.86797 0.0
N1241 N 0.07808 0.07753 0.93763 0.0
H1242 H 0.12615 0.06037 0.86551 0.0
H1243 H 0.12376 0.08595 0.90079 0.0
H1244 H 0.07416 0.08335 0.9619 0.0
H1245 H 0.08748 0.09906 0.9265 0.0
H1246 H 0.03863 0.92689 0.87639 0.0
H1247 H 0.06171 0.94399 0.84629 0.0
H1248 H 1.00446 0.93975 0.9051 0.0
H1249 H 0.99983 0.96661 0.93859 0.0
C1250 C 0.71769 0.3144 0.62407 0.0
C1251 C 0.74057 0.34259 0.61574 0.0
C1252 C 0.78054 0.3355 0.66189 0.0
C1253 C 0.75698 0.30861 0.67148 0.0
N1254 N 0.70159 0.27488 0.66409 0.0
N1255 N 0.7921 0.38317 0.62937 0.0
C1256 C 0.7251 0.29877 0.6532 0.0
C1257 C 0.77149 0.35407 0.63551 0.0
N1258 N 0.68911 0.30205 0.60361 0.0
N1259 N 0.812 0.34256 0.67734 0.0
H1260 H 0.78685 0.39691 0.60987 0.0
H1261 H 0.81322 0.39517 0.64493 0.0
H1262 H 0.81938 0.32955 0.69663 0.0
H1263 H 0.83138 0.35938 0.66956 0.0
H1264 H 0.67292 0.27936 0.60584 0.0
H1265 H 0.6825 0.31353 0.58285 0.0
H1266 H 0.67686 0.2696 0.65472 0.0
H1267 H 0.70633 0.26167 0.68412 0.0
C1268 C 0.47376 0.04055 0.37088 0.0
C1269 C 0.48889 0.07098 0.35872 0.0
C1270 C 0.52046 0.09015 0.41365 0.0
C1271 C 0.50784 0.05808 0.4244 0.0
N1272 N 0.47817 0.99999 0.40981 0.0
N1273 N 0.5294 0.12345 0.36719 0.0
C1274 C 0.48616 0.03253 0.40201 0.0
C1275 C 0.51303 0.09552 0.37977 0.0
N1276 N 0.44635 0.01982 0.3534 0.0
N1277 N 0.53834 0.11587 0.43602 0.0
H1278 H 0.52425 0.12813 0.34273 0.0
H1279 H 0.54959 0.14056 0.38016 0.0
H1280 H 0.54393 0.11288 0.46087 0.0
H1281 H 0.54538 0.14075 0.43059 0.0
H1282 H 0.43217 0.99941 0.36294 0.0
H1283 H 0.43557 0.02503 0.33092 0.0
H1284 H 0.46563 0.97973 0.39283 0.0
H1285 H 0.48695 0.99245 0.43199 0.0
C1286 C 0.77359 0.73465 0.08669 0.0
C1287 C 0.79504 0.71193 0.08488 0.0
C1288 C 0.80691 0.71849 0.1449 0.0
C1289 C 0.78707 0.74288 0.14658 0.0
N1290 N 0.75872 0.78056 0.11901 0.0
N1291 N 0.8379 0.68834 0.11073 0.0
C1292 C 0.77264 0.75299 0.11743 0.0
C1293 C 0.81368 0.70591 0.11355 0.0
N1294 N 0.75278 0.73737 0.05961 0.0
N1295 N 0.81738 0.70551 0.1728 0.0
H1296 H 0.84348 0.67907 0.08786 0.0
H1297 H 0.85446 0.68598 0.13065 0.0
H1298 H 0.81161 0.71236 0.19627 0.0
H1299 H 0.82905 0.68526 0.17227 0.0
H1300 H 0.73407 0.75059 0.06078 0.0
H1301 H 0.75211 0.72409 0.03651 0.0
H1302 H 0.75072 0.79097 0.09811 0.0
H1303 H 0.75828 0.79518 0.14115 0.0
C1304 C 0.10392 0.95546 0.66543 0.0
C1305 C 0.08886 0.96032 0.69441 0.0
C1306 C 0.04447 0.97791 0.6619 0.0
C1307 C 0.06466 0.9825 0.63588 0.0
N1308 N 0.11296 0.97338 0.61158 0.0
N1309 N 0.0369 0.95682 0.71533 0.0
C1310 C 0.09374 0.96971 0.63676 0.0
C1311 C 0.05644 0.96557 0.69121 0.0
N1312 N 0.12689 0.93614 0.66511 0.0
N1313 N 0.01425 0.98577 0.6586 0.0
H1314 H 0.04447 0.94419 0.73487 0.0
H1315 H 0.01242 0.95847 0.71438 0.0
H1316 H 1.00362 0.99173 0.63634 0.0
H1317 H 0.99972 0.98671 0.67775 0.0
H1318 H 0.13699 0.92945 0.64388 0.0
H1319 H 0.13232 0.92309 0.68512 0.0
H1320 H 0.13627 0.96807 0.613 0.0
H1321 H 0.10682 0.98398 0.59016 0.0
C1322 C 0.75479 0.29485 0.41713 0.0
C1323 C 0.74343 0.3251 0.42393 0.0
C1324 C 0.73616 0.3296 0.36387 0.0
C1325 C 0.75279 0.30291 0.3576 0.0
N1326 N 0.77844 0.26007 0.37908 0.0
N1327 N 0.73059 0.37538 0.40311 0.0
C1328 C 0.76237 0.28563 0.38456 0.0
C1329 C 0.73568 0.34336 0.3971 0.0
N1330 N 0.7569 0.274 0.44142 0.0
N1331 N 0.72118 0.34261 0.33834 0.0
H1332 H 0.73234 0.38789 0.42674 0.0
H1333 H 0.72857 0.39119 0.38457 0.0
H1334 H 0.72237 0.33557 0.31352 0.0
H1335 H 0.70553 0.35908 0.34196 0.0
H1336 H 0.76195 0.25007 0.43739 0.0
H1337 H 0.75021 0.2791 0.46493 0.0
H1338 H 0.78994 0.24956 0.39803 0.0
H1339 H 0.78152 0.25028 0.35545 0.0
C1340 C 0.47195 0.08954 0.14034 0.0
C1341 C 0.47387 0.07107 0.16808 0.0
C1342 C 0.50388 0.03496 0.13673 0.0
C1343 C 0.49873 0.05156 0.10799 0.0
N1344 N 0.46236 0.08267 0.08119 0.0
N1345 N 0.48349 0.01893 0.18787 0.0
C1346 C 0.47845 0.0756 0.10931 0.0
C1347 C 0.48783 0.04184 0.16516 0.0
N1348 N 0.4639 0.12041 0.14327 0.0
N1349 N 0.52283 0.01143 0.13661 0.0
H1350 H 0.46949 0.02082 0.20735 0.0
H1351 H 0.49038 0.99576 0.18513 0.0
H1352 H 0.53126 1.00215 0.11529 0.0
H1353 H 0.53098 1.00198 0.15807 0.0
H1354 H 0.46462 0.13565 0.12392 0.0
H1355 H 0.46038 0.13229 0.16587 0.0
H1356 H 0.44672 0.09952 0.08112 0.0
H1357 H 0.45865 0.06596 0.05985 0.0
C1358 C 0.77116 0.76794 0.90909 0.0
C1359 C 0.79323 0.74727 0.91852 0.0
C1360 C 0.82581 0.76551 0.874 0.0
C1361 C 0.80336 0.7857 0.8648 0.0
N1362 N 0.76401 0.81683 0.88166 0.0
N1363 N 0.84809 0.73727 0.91773 0.0
C1364 C 0.77989 0.79117 0.88595 0.0
C1365 C 0.82275 0.74951 0.9035 0.0
N1366 N 0.74056 0.76329 0.91927 0.0
N1367 N 0.84868 0.75988 0.85387 0.0
H1368 H 0.84757 0.72733 0.94043 0.0
H1369 H 0.87098 0.7407 0.909 0.0
H1370 H 0.85298 0.77251 0.83307 0.0
H1371 H 0.86244 0.74158 0.85725 0.0
H1372 H 0.72292 0.77604 0.91044 0.0
H1373 H 0.73102 0.74381 0.93294 0.0
H1374 H 0.74791 0.82336 0.89769 0.0
H1375 H 0.76981 0.83343 0.8639 0.0
C1376 C 0.90262 0.09096 0.98171 0.0
C1377 C 0.89048 0.0966 0.01279 0.0
C1378 C 0.91955 0.05419 0.0338 0.0
C1379 C 0.93622 0.05367 0.0052 0.0
N1380 N 0.94549 0.07407 0.95263 0.0
N1381 N 0.89359 0.08711 0.07072 0.0
C1382 C 0.92839 0.07294 0.97944 0.0
C1383 C 0.90047 0.07896 0.03942 0.0
N1384 N 0.88813 0.10044 0.95369 0.0
N1385 N 0.92201 0.03104 0.05577 0.0
H1386 H 0.88518 0.10873 0.07761 0.0
H1387 H 0.90054 0.07539 0.09106 0.0
H1388 H 0.90804 0.02798 0.07547 0.0
H1389 H 0.93525 0.01228 0.0522 0.0
H1390 H 0.89432 0.09443 0.93018 0.0
H1391 H 0.86707 0.11022 0.95304 0.0
H1392 H 0.94389 0.09107 0.93514 0.0
H1393 H 0.96287 0.0595 0.94915 0.0
C1394 C 0.38548 0.49852 0.08231 0.0
C1395 C 0.36063 0.48327 0.05622 0.0
C1396 C 0.39904 0.49754 0.01571 0.0
C1397 C 0.42324 0.51524 0.04159 0.0
N1398 N 0.43563 0.54096 0.09821 0.0
N1399 N 0.341 0.4786 0.99797 0.0
C1400 C 0.41528 0.51835 0.07454 0.0
C1401 C 0.36652 0.486 0.02286 0.0
N1402 N 0.38142 0.49293 0.1143 0.0
N1403 N 0.40705 0.48975 0.98479 0.0
H1404 H 0.31648 0.47165 1.0022 0.0
H1405 H 0.34396 0.48327 0.97363 0.0
H1406 H 0.43073 0.49592 0.97822 0.0
H1407 H 0.3906 0.47379 0.96647 0.0
H1408 H 0.40027 0.50081 0.13373 0.0
H1409 H 0.36039 0.47759 0.12102 0.0
H1410 H 0.42946 0.54621 0.1219 0.0
H1411 H 0.45684 0.55729 0.09304 0.0
C1412 C 0.26736 0.61294 0.75027 0.0
C1413 C 0.29805 0.61524 0.73765 0.0
C1414 C 0.3091 0.67701 0.7488 0.0
C1415 C 0.2766 0.67551 0.75685 0.0
N1416 N 0.22477 0.64134 0.76652 0.0
N1417 N 0.34627 0.64969 0.72046 0.0
C1418 C 0.25578 0.64314 0.75804 0.0
C1419 C 0.31849 0.64732 0.73594 0.0
N1420 N 0.24973 0.58194 0.75563 0.0
N1421 N 0.33145 0.70683 0.75393 0.0
H1422 H 0.35417 0.62865 0.71065 0.0
H1423 H 0.35988 0.6725 0.71456 0.0
H1424 H 0.32529 0.72823 0.76425 0.0
H1425 H 0.35637 0.70925 0.75194 0.0
H1426 H 0.22877 0.57845 0.76776 0.0
H1427 H 0.25746 0.55956 0.74996 0.0
H1428 H 0.20669 0.6191 0.76375 0.0
H1429 H 0.21686 0.66261 0.77574 0.0
C1430 C 0.19815 0.63756 0.53154 0.0
C1431 C 0.21672 0.61701 0.51524 0.0
C1432 C 0.17036 0.56814 0.51244 0.0
C1433 C 0.15068 0.58988 0.52478 0.0
N1434 N 0.14415 0.647 0.53824 0.0
N1435 N 0.21922 0.56353 0.48648 0.0
C1436 C 0.1641 0.62503 0.53231 0.0
C1437 C 0.20254 0.58241 0.50476 0.0
N1438 N 0.2131 0.66885 0.54727 0.0
N1439 N 0.15879 0.53384 0.50913 0.0
H1440 H 0.24274 0.57319 0.48048 0.0
H1441 H 0.20877 0.53924 0.47506 0.0
H1442 H 0.13572 0.52244 0.51513 0.0
H1443 H 0.17315 0.51662 0.50338 0.0
H1444 H 0.20131 0.68299 0.56262 0.0
H1445 H 0.23809 0.6793 0.54799 0.0
H1446 H 0.15241 0.67321 0.54032 0.0
H1447 H 0.11872 0.63943 0.53729 0.0
C1448 C 0.68302 0.87845 0.74966 0.0
C1449 C 0.69113 0.90928 0.77051 0.0
C1450 C 0.73792 0.89105 0.79915 0.0
C1451 C 0.73061 0.8606 0.77704 0.0
N1452 N 0.68652 0.82013 0.74349 0.0
N1453 N 0.72236 0.94318 0.81883 0.0
C1454 C 0.7004 0.85271 0.75574 0.0
C1455 C 0.71733 0.91496 0.79656 0.0
N1456 N 0.65846 0.87349 0.72396 0.0
N1457 N 0.76431 0.89688 0.82293 0.0
H1458 H 0.7086 0.96168 0.81685 0.0
H1459 H 0.73886 0.94773 0.84026 0.0
H1460 H 0.77637 0.87799 0.82933 0.0
H1461 H 0.77421 0.92014 0.83668 0.0
H1462 H 0.65415 0.85321 0.70555 0.0
H1463 H 0.64362 0.89071 0.71976 0.0
H1464 H 0.6632 0.81269 0.73031 0.0
H1465 H 0.69523 0.79993 0.75163 0.0
C1466 C 0.66614 0.96679 0.56315 0.0
C1467 C 0.69934 0.98407 0.5645 0.0
C1468 C 0.68254 0.03076 0.53809 0.0
C1469 C 0.64936 0.01286 0.53549 0.0
N1470 N 0.60946 0.96159 0.54117 0.0
N1471 N 0.74023 0.02938 0.54915 0.0
C1472 C 0.64114 0.9801 0.54651 0.0
C1473 C 0.70788 0.01515 0.55067 0.0
N1474 N 0.65844 0.93828 0.57899 0.0
N1475 N 0.68968 0.06295 0.5292 0.0
H1476 H 0.75937 0.01892 0.55877 0.0
H1477 H 0.74813 0.05012 0.53638 0.0
H1478 H 0.67181 0.07447 0.51853 0.0
H1479 H 0.71289 0.07893 0.53395 0.0
H1480 H 0.63462 0.92695 0.58283 0.0
H1481 H 0.67614 0.92712 0.59055 0.0
H1482 H 0.60287 0.93605 0.54454 0.0
H1483 H 0.58963 0.97071 0.53128 0.0
C1484 C 0.28877 0.41122 0.71166 0.0
C1485 C 0.30786 0.43449 0.73783 0.0
C1486 C 0.30847 0.38782 0.77194 0.0
C1487 C 0.28657 0.36509 0.74723 0.0
N1488 N 0.24879 0.35825 0.69727 0.0
N1489 N 0.32604 0.44578 0.79646 0.0
C1490 C 0.27454 0.37768 0.71814 0.0
C1491 C 0.31456 0.42304 0.76912 0.0
N1492 N 0.28544 0.42026 0.68028 0.0
N1493 N 0.32516 0.376 0.79718 0.0
H1494 H 0.32904 0.47187 0.79588 0.0
H1495 H 0.32866 0.43852 0.82027 0.0
H1496 H 0.3238 0.35037 0.7991 0.0
H1497 H 0.34353 0.39176 0.81392 0.0
H1498 H 0.27454 0.40299 0.65991 0.0
H1499 H 0.29634 0.44398 0.67398 0.0
H1500 H 0.23731 0.36748 0.67735 0.0
H1501 H 0.23651 0.33435 0.70202 0.0
C1502 C 0.1951 0.60098 0.24876 0.0
C1503 C 0.19741 0.58966 0.28068 0.0
C1504 C 0.23415 0.64378 0.30316 0.0
C1505 C 0.23264 0.65472 0.27096 0.0
N1506 N 0.21593 0.64195 0.21207 0.0
N1507 N 0.22208 0.59736 0.33719 0.0
C1508 C 0.21475 0.63262 0.2434 0.0
C1509 C 0.21781 0.61026 0.30763 0.0
N1510 N 0.17243 0.58244 0.22399 0.0
N1511 N 0.25101 0.66562 0.3295 0.0
H1512 H 0.21013 0.57303 0.34112 0.0
H1513 H 0.23899 0.60961 0.35707 0.0
H1514 H 0.26571 0.68916 0.32691 0.0
H1515 H 0.24965 0.6611 0.35407 0.0
H1516 H 0.16641 0.59129 0.20154 0.0
H1517 H 0.15735 0.55914 0.22665 0.0
H1518 H 0.20717 0.62518 0.19085 0.0
H1519 H 0.22754 0.6658 0.20678 0.0
C1520 C 0.54558 0.68338 0.43161 0.0
C1521 C 0.54355 0.71602 0.44502 0.0
C1522 C 0.53218 0.69448 0.49818 0.0
C1523 C 0.53351 0.66168 0.48441 0.0
N1524 N 0.53259 0.6232 0.43574 0.0
N1525 N 0.52931 0.75212 0.48857 0.0
C1526 C 0.53759 0.65564 0.45043 0.0
C1527 C 0.53512 0.72142 0.47762 0.0
N1528 N 0.55648 0.67905 0.40139 0.0
N1529 N 0.52929 0.70007 0.53111 0.0
H1530 H 0.53136 0.77229 0.47413 0.0
H1531 H 0.52005 0.7569 0.51078 0.0
H1532 H 0.52617 0.68066 0.54645 0.0
H1533 H 0.53181 0.72402 0.54366 0.0
H1534 H 0.56249 0.65673 0.39216 0.0
H1535 H 0.56207 0.69861 0.3865 0.0
H1536 H 0.53187 0.61704 0.41038 0.0
H1537 H 0.52559 0.60216 0.44834 0.0
C1538 C 0.61916 0.31012 0.71824 0.0
C1539 C 0.59637 0.27992 0.72242 0.0
C1540 C 0.64035 0.26358 0.75767 0.0
C1541 C 0.66425 0.29002 0.74775 0.0
N1542 N 0.67557 0.33491 0.71215 0.0
N1543 N 0.58796 0.22454 0.74231 0.0
C1544 C 0.65349 0.31267 0.7266 0.0
C1545 C 0.60751 0.25585 0.74147 0.0
N1546 N 0.60804 0.3366 0.70636 0.0
N1547 N 0.64889 0.24586 0.78279 0.0
H1548 H 0.56442 0.21663 0.72972 0.0
H1549 H 0.59648 0.20506 0.75285 0.0
H1550 H 0.67232 0.25154 0.79585 0.0
H1551 H 0.63183 0.22835 0.79301 0.0
H1552 H 0.62338 0.3602 0.70543 0.0
H1553 H 0.58307 0.33612 0.70114 0.0
H1554 H 0.66844 0.34917 0.69386 0.0
H1555 H 0.70079 0.33653 0.71538 0.0
C1556 C 0.02385 0.41941 0.93828 0.0
C1557 C 0.01809 0.38717 0.95009 0.0
C1558 C 0.01405 0.4135 0.00537 0.0
C1559 C 0.0197 0.44595 0.99343 0.0
N1560 N 0.04598 0.47903 0.95293 0.0
N1561 N 0.01872 0.35497 0.99696 0.0
C1562 C 0.02963 0.44883 0.96127 0.0
C1563 C 0.01655 0.38464 0.98433 0.0
N1564 N 0.02243 0.42221 0.90512 0.0
N1565 N 1.00614 0.40995 0.03673 0.0
H1566 H 0.02178 0.33371 0.98245 0.0
H1567 H 0.02108 0.3525 0.02219 0.0
H1568 H 1.00765 0.43033 0.05444 0.0
H1569 H 0.99702 0.38658 0.04489 0.0
H1570 H 0.02294 0.44519 0.89536 0.0
H1571 H 0.01756 0.40136 0.88725 0.0
H1572 H 0.05513 0.48176 0.93025 0.0
H1573 H 0.05538 0.49966 0.97043 0.0
C1574 C 0.91517 0.80111 0.24417 0.0
C1575 C 0.91837 0.76729 0.23572 0.0
C1576 C 0.86809 0.74679 0.26145 0.0
C1577 C 0.86251 0.78008 0.26587 0.0
N1578 N 0.87845 0.83846 0.25534 0.0
N1579 N 0.89213 0.7078 0.22913 0.0
C1580 C 0.88539 0.8071 0.25542 0.0
C1581 C 0.89314 0.74009 0.24226 0.0
N1582 N 0.9411 0.82764 0.24335 0.0
N1583 N 0.85102 0.72178 0.2773 0.0
H1584 H 0.90878 0.70186 0.21346 0.0
H1585 H 0.87251 0.68765 0.23069 0.0
H1586 H 0.834 0.72598 0.29327 0.0
H1587 H 0.85643 0.69789 0.27743 0.0
H1588 H 0.94118 0.8524 0.25245 0.0
H1589 H 0.96387 0.82461 0.23704 0.0
H1590 H 0.89245 0.85813 0.24466 0.0
H1591 H 0.85698 0.84388 0.26301 0.0
C1592 C 0.56302 0.42146 0.03176 0.0
C1593 C 0.53475 0.39646 0.0355 0.0
C1594 C 0.49943 0.43302 0.01481 0.0
C1595 C 0.5278 0.45697 0.00925 0.0
N1596 N 0.58554 0.46941 1.00338 0.0
N1597 N 0.47615 0.37495 0.02295 0.0
C1598 C 0.55927 0.44967 0.01474 0.0
C1599 C 0.5029 0.40128 0.02506 0.0
N1600 N 0.59329 0.41934 0.04602 0.0
N1601 N 0.4691 0.44031 0.00976 0.0
H1602 H 0.47769 0.35079 0.02868 0.0
H1603 H 0.45282 0.37599 0.01233 0.0
H1604 H 0.46503 0.46134 0.9985 0.0
H1605 H 0.4482 0.42616 0.01787 0.0
H1606 H 0.61415 0.4387 0.04681 0.0
H1607 H 0.59699 0.39999 0.06017 0.0
H1608 H 0.60854 0.46338 1.00408 0.0
H1609 H 0.58344 0.48993 0.99026 0.0
C1610 C 0.93381 0.24623 0.35599 0.0
C1611 C 0.94614 0.2708 0.38351 0.0
C1612 C 0.91456 0.30927 0.36014 0.0
C1613 C 0.90392 0.28545 0.33182 0.0
N1614 N 0.90944 0.23558 0.29888 0.0
N1615 N 0.95485 0.3289 0.40797 0.0
C1616 C 0.91545 0.25521 0.32855 0.0
C1617 C 0.9384 0.30329 0.38462 0.0
N1618 N 0.9387 0.21404 0.35657 0.0
N1619 N 0.90113 0.33703 0.3642 0.0
H1620 H 0.97317 0.32609 0.42598 0.0
H1621 H 0.95254 0.3539 0.40763 0.0
H1622 H 0.88454 0.34303 0.34617 0.0
H1623 H 0.90487 0.35289 0.38628 0.0
H1624 H 0.92762 0.19423 0.3385 0.0
H1625 H 0.95136 0.20629 0.37673 0.0
H1626 H 0.91942 0.21453 0.29399 0.0
H1627 H 0.89754 0.24289 0.27805 0.0
C1628 C 0.01258 0.6952 0.57524 0.0
C1629 C 1.00584 0.71703 0.55131 0.0
C1630 C 1.00146 0.67104 0.50683 0.0
C1631 C 0.01091 0.65035 0.53064 0.0
N1632 N 0.0306 0.64445 0.58711 0.0
N1633 N 0.99684 0.72753 0.49443 0.0
C1634 C 0.01793 0.66293 0.56468 0.0
C1635 C 1.00114 0.70546 0.51706 0.0
N1636 N 0.01361 0.70503 0.6083 0.0
N1637 N 0.99268 0.65768 0.47458 0.0
H1638 H 0.99507 0.75236 0.50127 0.0
H1639 H 0.99671 0.72195 0.46908 0.0
H1640 H 0.99413 0.63312 0.46619 0.0
H1641 H 0.98234 0.67012 0.45649 0.0
H1642 H 0.01359 0.68849 0.62641 0.0
H1643 H 0.01241 0.72917 0.61802 0.0
H1644 H 0.0407 0.65432 0.61112 0.0
H1645 H 0.03348 0.61991 0.58144 0.0
C1646 C 0.63961 0.74022 0.87947 0.0
C1647 C 0.62237 0.76684 0.8784 0.0
C1648 C 0.63761 0.77556 0.82291 0.0
C1649 C 0.65868 0.75283 0.82605 0.0
N1650 N 0.68285 0.71578 0.8588 0.0
N1651 N 0.61114 0.81475 0.85161 0.0
C1652 C 0.66046 0.73558 0.85469 0.0
C1653 C 0.62296 0.78582 0.85072 0.0
N1654 N 0.63516 0.71855 0.90323 0.0
N1655 N 0.63131 0.78703 0.79303 0.0
H1656 H 0.60208 0.82449 0.87234 0.0
H1657 H 0.61382 0.83111 0.83327 0.0
H1658 H 0.64041 0.77814 0.77194 0.0
H1659 H 0.61414 0.80176 0.78841 0.0
H1660 H 0.64468 0.69689 0.90309 0.0
H1661 H 0.61952 0.72038 0.92131 0.0
H1662 H 0.68812 0.70588 0.88089 0.0
H1663 H 0.69763 0.71093 0.84065 0.0
C1664 C 0.44008 0.52362 0.65369 0.0
C1665 C 0.41806 0.54588 0.65396 0.0
C1666 C 0.44043 0.56944 0.60539 0.0
C1667 C 0.46457 0.54927 0.60727 0.0
N1668 N 0.49309 0.51577 0.64061 0.0
N1669 N 0.40271 0.59544 0.63463 0.0
C1670 C 0.46616 0.52908 0.63377 0.0
C1671 C 0.41984 0.57047 0.63117 0.0
N1672 N 0.43526 0.49611 0.67117 0.0
N1673 N 0.4357 0.58633 0.57846 0.0
H1674 H 0.38771 0.59723 0.65331 0.0
H1675 H 0.40589 0.61619 0.62098 0.0
H1676 H 0.44936 0.58631 0.55861 0.0
H1677 H 0.41614 0.59818 0.57452 0.0
H1678 H 0.44897 0.47754 0.66925 0.0
H1679 H 0.41524 0.48965 0.68443 0.0
H1680 H 0.49663 0.50321 0.66143 0.0
H1681 H 0.5136 0.52093 0.6278 0.0
C1682 C 0.82157 0.26641 0.90214 0.0
C1683 C 0.79513 0.2423 0.91129 0.0
C1684 C 0.76022 0.24943 0.86142 0.0
C1685 C 0.78681 0.27306 0.85188 0.0
N1686 N 0.84482 0.29815 0.85906 0.0
N1687 N 0.74224 0.2046 0.89561 0.0
C1688 C 0.81813 0.27972 0.87103 0.0
C1689 C 0.76537 0.23186 0.88961 0.0
N1690 N 0.84946 0.2778 0.92382 0.0
N1691 N 0.72954 0.24523 0.84477 0.0
H1692 H 0.74526 0.19106 0.91585 0.0
H1693 H 0.72164 0.19343 0.87893 0.0
H1694 H 0.72484 0.25794 0.82437 0.0
H1695 H 0.70843 0.23127 0.85264 0.0
H1696 H 0.86806 0.2982 0.92042 0.0
H1697 H 0.85306 0.26835 0.94652 0.0
H1698 H 0.86887 0.30087 0.86992 0.0
H1699 H 0.84326 0.30817 0.83645 0.0
C1700 C 0.06016 0.52473 0.18779 0.0
C1701 C 0.07099 0.49425 0.19278 0.0
C1702 C 0.05675 0.47637 0.13312 0.0
C1703 C 0.0423 0.50471 0.12914 0.0
N1704 N 0.02417 0.55208 0.15514 0.0
N1705 N 0.07145 0.43741 0.17065 0.0
C1706 C 0.04153 0.52728 0.15738 0.0
C1707 C 0.06674 0.46892 0.16556 0.0
N1708 N 0.0703 0.55271 0.21042 0.0
N1709 N 0.06197 0.45701 0.10603 0.0
H1710 H 0.07722 0.43054 0.19417 0.0
H1711 H 0.06598 0.41718 0.15207 0.0
H1712 H 0.05539 0.46165 0.0819 0.0
H1713 H 0.07553 0.43833 0.10759 0.0
H1714 H 0.06568 0.57629 0.20614 0.0
H1715 H 0.08697 0.55399 0.23134 0.0
H1716 H 0.02029 0.56694 0.17583 0.0
H1717 H 0.01137 0.55602 0.13319 0.0
C1718 C 0.7741 0.88505 0.43853 0.0
C1719 C 0.76255 0.86639 0.46432 0.0
C1720 C 0.75528 0.813 0.42913 0.0
C1721 C 0.76723 0.83168 0.40348 0.0
N1722 N 0.7782 0.8849 0.37989 0.0
N1723 N 0.73469 0.81434 0.48261 0.0
C1724 C 0.77362 0.86759 0.40696 0.0
C1725 C 0.75063 0.83082 0.45903 0.0
N1726 N 0.78705 0.91909 0.44461 0.0
N1727 N 0.74992 0.77844 0.42548 0.0
H1728 H 0.73078 0.82698 0.50468 0.0
H1729 H 0.72281 0.78888 0.47916 0.0
H1730 H 0.75274 0.76457 0.40369 0.0
H1731 H 0.74471 0.76356 0.44462 0.0
H1732 H 0.79965 0.9332 0.42788 0.0
H1733 H 0.78708 0.93297 0.46729 0.0
H1734 H 0.77984 0.91087 0.38041 0.0
H1735 H 0.77697 0.87289 0.35607 0.0
C1736 C 0.45728 0.57674 0.83916 0.0
C1737 C 0.42349 0.56078 0.83457 0.0
C1738 C 0.42507 0.55439 0.89356 0.0
C1739 C 0.45983 0.56383 0.89658 0.0
N1740 N 0.50977 0.58388 0.87248 0.0
N1741 N 0.3747 0.53333 0.85681 0.0
C1742 C 0.47621 0.57573 0.86967 0.0
C1743 C 0.40701 0.54986 0.86172 0.0
N1744 N 0.47108 0.59276 0.8142 0.0
N1745 N 0.40941 0.55032 0.92125 0.0
H1746 H 0.36037 0.53005 0.83396 0.0
H1747 H 0.36262 0.52099 0.87492 0.0
H1748 H 0.42203 0.55451 0.94506 0.0
H1749 H 0.38401 0.54632 0.92093 0.0
H1750 H 0.49487 0.60755 0.81689 0.0
H1751 H 0.4575 0.59393 0.79167 0.0
H1752 H 0.52304 0.58882 0.85252 0.0
H1753 H 0.52462 0.58355 0.89436 0.0
C1754 C 0.84185 0.26419 0.11706 0.0
C1755 C 0.81986 0.23459 0.10074 0.0
C1756 C 0.78967 0.2306 0.14932 0.0
C1757 C 0.8092 0.26218 0.16459 0.0
N1758 N 0.8515 0.31146 0.16037 0.0
N1759 N 0.76735 0.19573 0.09814 0.0
C1760 C 0.83484 0.27962 0.1478 0.0
C1761 C 0.79221 0.21965 0.11597 0.0
N1762 N 0.86958 0.27728 0.10341 0.0
N1763 N 0.76967 0.20985 0.16704 0.0
H1764 H 0.76743 0.18776 0.07323 0.0
H1765 H 0.74503 0.1867 0.10705 0.0
H1766 H 0.76797 0.21572 0.19192 0.0
H1767 H 0.7578 0.18508 0.15807 0.0
H1768 H 0.88836 0.29672 0.11545 0.0
H1769 H 0.87479 0.26688 0.08082 0.0
H1770 H 0.86823 0.32685 0.14787 0.0
H1771 H 0.84652 0.32367 0.18216 0.0
C1772 C 0.07664 0.54996 0.40077 0.0
C1773 C 0.06741 0.5197 0.37867 0.0
C1774 C 0.02668 0.4963 0.4149 0.0
C1775 C 0.0324 0.52836 0.434 0.0
N1776 N 0.06072 0.5871 0.44279 0.0
N1777 N 0.03119 0.46496 0.36296 0.0
C1778 C 0.05709 0.55549 0.42656 0.0
C1779 C 0.04197 0.49294 0.38544 0.0
N1780 N 0.10466 0.57312 0.39762 0.0
N1781 N 1.00739 0.46869 0.42549 0.0
H1782 H 0.04162 0.46146 0.34114 0.0
H1783 H 0.01022 0.44647 0.36461 0.0
H1784 H 0.9964 0.46993 0.44724 0.0
H1785 H 1.00511 0.44403 0.41469 0.0
H1786 H 0.11462 0.59392 0.41499 0.0
H1787 H 0.11979 0.56972 0.37938 0.0
H1788 H 0.07568 0.60866 0.43593 0.0
H1789 H 0.04668 0.59236 0.46142 0.0
C1790 C 0.76639 0.81854 0.62689 0.0
C1791 C 0.74497 0.84152 0.62786 0.0
C1792 C 0.70884 0.80334 0.65882 0.0
C1793 C 0.73378 0.7851 0.66318 0.0
N1794 N 0.77365 0.76227 0.6367 0.0
N1795 N 0.69234 0.85265 0.63856 0.0
C1796 C 0.75794 0.7881 0.64151 0.0
C1797 C 0.71479 0.83278 0.64166 0.0
N1798 N 0.79596 0.82691 0.61475 0.0
N1799 N 0.67938 0.79137 0.66981 0.0
H1800 H 0.69518 0.87306 0.62444 0.0
H1801 H 0.67098 0.84926 0.65 0.0
H1802 H 0.67458 0.76834 0.67993 0.0
H1803 H 0.65904 0.8021 0.66627 0.0
H1804 H 0.81344 0.81211 0.61628 0.0
H1805 H 0.80469 0.85012 0.60611 0.0
H1806 H 0.79052 0.76163 0.61968 0.0
H1807 H 0.76645 0.73983 0.6474 0.0
C1808 C 0.6403 0.49153 0.52603 0.0
C1809 C 0.64196 0.47174 0.55291 0.0
C1810 C 0.59843 0.49676 0.57587 0.0
C1811 C 0.59829 0.51805 0.54977 0.0
N1812 N 0.63071 0.54394 0.5086 0.0
N1813 N 0.62469 0.45786 0.60547 0.0
C1814 C 0.62233 0.51773 0.52719 0.0
C1815 C 0.62167 0.47519 0.57849 0.0
N1816 N 0.65678 0.48637 0.49945 0.0
N1817 N 0.57706 0.49791 0.5989 0.0
H1818 H 0.63931 0.44009 0.60702 0.0
H1819 H 0.61379 0.46177 0.62684 0.0
H1820 H 0.56298 0.51614 0.6005 0.0
H1821 H 0.57243 0.48028 0.61585 0.0
H1822 H 0.65244 0.49653 0.47727 0.0
H1823 H 0.67283 0.47006 0.49827 0.0
H1824 H 0.64968 0.54589 0.4937 0.0
H1825 H 0.6234 0.56665 0.512 0.0
C1826 C 0.16341 0.06135 0.48966 0.0
C1827 C 0.17092 0.08834 0.46963 0.0
C1828 C 0.11414 0.09527 0.46845 0.0
C1829 C 0.10631 0.06628 0.4861 0.0
N1830 N 0.12138 0.01475 0.50081 0.0
N1831 N 0.15099 0.12494 0.43299 0.0
C1832 C 0.13023 0.04698 0.49245 0.0
C1833 C 0.14544 0.1033 0.45668 0.0
N1834 N 0.18754 0.05103 0.50841 0.0
N1835 N 0.09298 0.11641 0.46445 0.0
H1836 H 0.17347 0.13085 0.42348 0.0
H1837 H 0.13239 0.13408 0.42041 0.0
H1838 H 0.07037 0.11301 0.47355 0.0
H1839 H 0.09941 0.13962 0.45501 0.0
H1840 H 0.18237 0.03327 0.52524 0.0
H1841 H 0.21224 0.06313 0.51085 0.0
H1842 H 0.13799 0.99902 0.50328 0.0
H1843 H 0.09693 1.00246 0.50111 0.0
C1844 C 0.22522 0.88737 0.74276 0.0
C1845 C 0.22549 0.90883 0.77212 0.0
C1846 C 0.25955 0.8765 0.80243 0.0
C1847 C 0.26243 0.85747 0.7722 0.0
N1848 N 0.25507 0.85273 0.7124 0.0
N1849 N 0.24928 0.9285 0.82832 0.0
C1850 C 0.24724 0.86511 0.74199 0.0
C1851 C 0.24437 0.90468 0.80154 0.0
N1852 N 0.20316 0.88725 0.71582 0.0
N1853 N 0.2702 0.86735 0.8323 0.0
H1854 H 0.23942 0.95002 0.82855 0.0
H1855 H 0.26594 0.92878 0.84906 0.0
H1856 H 0.28162 0.8473 0.83504 0.0
H1857 H 0.26475 0.87776 0.85472 0.0
H1858 H 0.19974 0.86955 0.69507 0.0
H1859 H 0.18576 0.90222 0.71567 0.0
H1860 H 0.24689 0.8602 0.68988 0.0
H1861 H 0.2725 0.838 0.71047 0.0
C1862 C 0.32809 0.9541 0.99323 0.0
C1863 C 0.31776 0.95375 0.02526 0.0
C1864 C 0.37174 0.98817 0.04869 0.0
C1865 C 0.38349 0.98437 0.01733 0.0
N1866 N 0.37381 0.95785 0.96093 0.0
N1867 N 0.33126 0.96624 0.0844 0.0
C1868 C 0.36188 0.96598 0.9898 0.0
C1869 C 0.33991 0.96981 0.05327 0.0
N1870 N 0.30547 0.94346 0.96596 0.0
N1871 N 0.39038 0.01025 0.07385 0.0
H1872 H 0.30822 0.95315 0.08895 0.0
H1873 H 0.34784 0.97389 0.10575 0.0
H1874 H 0.41338 0.02487 0.07146 0.0
H1875 H 0.38164 0.01664 0.096 0.0
H1876 H 0.311 0.94626 0.9419 0.0
H1877 H 0.28044 0.93503 0.96755 0.0
H1878 H 0.3597 0.94147 0.94136 0.0
H1879 H 0.3986 0.96435 0.95768 0.0
C1880 C 0.84795 0.68759 0.72244 0.0
C1881 C 0.85172 0.66537 0.74681 0.0
C1882 C 0.81263 0.68867 0.77817 0.0
C1883 C 0.80568 0.70745 0.75163 0.0
N1884 N 0.81434 0.72234 0.6969 0.0
N1885 N 0.83405 0.64131 0.7959 0.0
C1886 C 0.82279 0.70631 0.72336 0.0
C1887 C 0.8334 0.66525 0.7744 0.0
N1888 N 0.86913 0.69154 0.69894 0.0
N1889 N 0.79951 0.69326 0.80712 0.0
H1890 H 0.84827 0.62323 0.79394 0.0
H1891 H 0.81831 0.63742 0.81409 0.0
H1892 H 0.7833 0.70919 0.81048 0.0
H1893 H 0.80678 0.68349 0.82868 0.0
H1894 H 0.86994 0.70988 0.68253 0.0
H1895 H 0.88815 0.67868 0.69797 0.0
H1896 H 0.82316 0.71948 0.67411 0.0
H1897 H 0.79652 0.73668 0.6971 0.0
C1898 C 0.85712 0.57789 0.05356 0.0
C1899 C 0.83854 0.57198 0.02191 0.0
C1900 C 0.87159 0.53321 1.00243 0.0
C1901 C 0.89044 0.53941 0.03405 0.0
N1902 N 0.8964 0.55992 0.09175 0.0
N1903 N 0.82189 0.53819 0.96935 0.0
C1904 C 0.88149 0.5592 0.06033 0.0
C1905 C 0.84372 0.54762 0.99735 0.0
N1906 N 0.85264 0.60255 0.07649 0.0
N1907 N 0.88156 0.51578 0.97665 0.0
H1908 H 0.80137 0.54864 0.9649 0.0
H1909 H 0.82242 0.51802 0.95206 0.0
H1910 H 0.90152 0.50432 0.97912 0.0
H1911 H 0.87123 0.51438 0.9522 0.0
H1912 H 0.86821 0.61092 0.09839 0.0
H1913 H 0.83456 0.61641 0.07273 0.0
H1914 H 0.8891 0.57153 0.11258 0.0
H1915 H 0.91413 0.54599 0.09731 0.0
C1916 C 0.22117 0.09961 0.75949 0.0
C1917 C 0.20488 0.0899 0.7872 0.0
C1918 C 0.21417 0.14992 0.80881 0.0
C1919 C 0.23338 0.15935 0.78273 0.0
N1920 N 0.2628 0.14061 0.73911 0.0
N1921 N 0.19379 0.10558 0.84252 0.0
C1922 C 0.23931 0.13339 0.75997 0.0
C1923 C 0.20394 0.115 0.81324 0.0
N1924 N 0.21776 0.07743 0.73162 0.0
N1925 N 0.20364 0.17368 0.82813 0.0
H1926 H 0.18711 0.08031 0.84704 0.0
H1927 H 0.19552 0.12278 0.86339 0.0
H1928 H 0.20849 0.19932 0.82504 0.0
H1929 H 0.18676 0.16737 0.84492 0.0
H1930 H 0.22644 0.08467 0.70967 0.0
H1931 H 0.20318 0.05301 0.72896 0.0
H1932 H 0.27011 0.12192 0.72444 0.0
H1933 H 0.27755 0.16464 0.73917 0.0
C1934 C 0.33546 0.97767 0.23493 0.0
C1935 C 0.35437 0.9988 0.26251 0.0
C1936 C 0.3355 0.95605 0.29923 0.0
C1937 C 0.31557 0.93548 0.27181 0.0
N1938 N 0.28919 0.93115 0.21596 0.0
N1939 N 0.36478 0.01255 0.32171 0.0
C1940 C 0.31314 0.9478 0.24042 0.0
C1941 C 0.35191 0.98941 0.29496 0.0
N1942 N 0.34014 0.98486 0.20342 0.0
N1943 N 0.34076 0.94325 0.32867 0.0
H1944 H 0.37638 0.03748 0.31943 0.0
H1945 H 0.36101 0.00802 0.34591 0.0
H1946 H 0.32997 0.91878 0.33303 0.0
H1947 H 0.3582 0.95605 0.34797 0.0
H1948 H 0.3296 0.96818 0.18254 0.0
H1949 H 0.35685 0.00601 0.19807 0.0
H1950 H 0.28443 0.94066 0.19354 0.0
H1951 H 0.27175 0.90971 0.2195 0.0
C1952 C 0.53883 0.36541 0.58346 0.0
C1953 C 0.5102 0.34064 0.58676 0.0
C1954 C 0.47638 0.37383 0.557 0.0
C1955 C 0.50535 0.39719 0.55201 0.0
N1956 N 0.56396 0.40902 0.5514 0.0
N1957 N 0.45255 0.31719 0.56938 0.0
C1958 C 0.53651 0.39095 0.56235 0.0
C1959 C 0.47914 0.34361 0.57137 0.0
N1960 N 0.56794 0.36608 0.60205 0.0
N1961 N 0.44632 0.38108 0.54948 0.0
H1962 H 0.45379 0.29428 0.5786 0.0
H1963 H 0.43015 0.31674 0.55567 0.0
H1964 H 0.44321 0.40266 0.5386 0.0
H1965 H 0.4247 0.36692 0.55624 0.0
H1966 H 0.58863 0.38561 0.60267 0.0
H1967 H 0.57053 0.34945 0.6197 0.0
H1968 H 0.58689 0.40298 0.55536 0.0
H1969 H 0.56299 0.4274 0.53519 0.0
C1970 C 0.42749 0.82673 0.31382 0.0
C1971 C 0.44406 0.80401 0.29792 0.0
C1972 C 0.39343 0.7799 0.25992 0.0
C1973 C 0.37586 0.80017 0.2781 0.0
N1974 N 0.37591 0.83769 0.32784 0.0
N1975 N 0.44209 0.75619 0.25828 0.0
C1976 C 0.39286 0.82239 0.30636 0.0
C1977 C 0.42674 0.77966 0.27176 0.0
N1978 N 0.4448 0.85264 0.33644 0.0
N1979 N 0.37889 0.76216 0.23046 0.0
H1980 H 0.46664 0.75616 0.26556 0.0
H1981 H 0.42996 0.73548 0.24166 0.0
H1982 H 0.35521 0.76277 0.22042 0.0
H1983 H 0.39129 0.74953 0.21444 0.0
H1984 H 0.43502 0.87276 0.34526 0.0
H1985 H 0.46967 0.85563 0.34463 0.0
H1986 H 0.38666 0.85053 0.35071 0.0
H1987 H 0.35051 0.83447 0.32539 0.0
C1988 C 0.03307 0.65878 0.12867 0.0
C1989 C 1.00698 0.67434 0.1182 0.0
C1990 C 0.99613 0.63759 0.06552 0.0
C1991 C 0.02123 0.62108 0.07659 0.0
N1992 N 0.06102 0.61271 0.1201 0.0
N1993 N 0.96015 0.67513 0.07963 0.0
C1994 C 0.03875 0.63056 0.1087 0.0
C1995 C 0.98741 0.66263 0.08747 0.0
N1996 N 0.05372 0.67228 0.1568 0.0
N1997 N 0.98145 0.63016 0.03361 0.0
H1998 H 0.95329 0.6934 0.09532 0.0
H1999 H 0.94287 0.66546 0.0592 0.0
H2000 H 0.98708 0.61186 0.01701 0.0
H2001 H 0.96542 0.64362 0.02282 0.0
H2002 H 0.07561 0.66508 0.16368 0.0
H2003 H 0.05023 0.69254 0.17238 0.0
H2004 H 0.07159 0.61551 0.14458 0.0
H2005 H 0.06738 0.59321 0.10569 0.0
C2006 C 0.1274 0.23916 0.80271 0.0
C2007 C 0.1147 0.26902 0.80283 0.0
C2008 C 0.16397 0.29687 0.77865 0.0
C2009 C 0.17385 0.26555 0.77435 0.0
N2010 N 0.16039 0.2051 0.77612 0.0
N2011 N 0.11927 0.3253 0.78619 0.0
C2012 C 0.15427 0.23621 0.78464 0.0
C2013 C 0.13275 0.29781 0.78986 0.0
N2014 N 0.11488 0.21403 0.82114 0.0
N2015 N 0.18425 0.32573 0.77168 0.0
H2016 H 0.09614 0.3266 0.79274 0.0
H2017 H 0.1296 0.34552 0.77377 0.0
H2018 H 0.20649 0.32569 0.76228 0.0
H2019 H 0.1803 0.34987 0.77763 0.0
H2020 H 0.12535 0.19325 0.82439 0.0
H2021 H 0.09662 0.21587 0.83636 0.0
H2022 H 0.14469 0.18255 0.77987 0.0
H2023 H 0.17958 0.2017 0.76274 0.0
C2024 C 0.51936 0.67475 0.98826 0.0
C2025 C 0.54153 0.70219 0.00805 0.0
C2026 C 0.54446 0.66618 0.05292 0.0
C2027 C 0.52068 0.63966 0.03379 0.0
N2028 N 0.47655 0.62485 0.98935 0.0
N2029 N 0.56388 0.7268 0.06372 0.0
C2030 C 0.50508 0.64607 1.0035 0.0
C2031 C 0.55048 0.69886 0.04187 0.0
N2032 N 0.51365 0.67439 0.95473 0.0
N2033 N 0.56278 0.66033 0.08044 0.0
H2034 H 0.5663 0.75139 0.05721 0.0
H2035 H 0.56847 0.72556 0.08908 0.0
H2036 H 0.5603 0.63689 0.08949 0.0
H2037 H 0.58267 0.67847 0.09269 0.0
H2038 H 0.49966 0.65332 0.93959 0.0
H2039 H 0.52589 0.69291 0.9415 0.0
H2040 H 0.46294 0.62983 0.9683 0.0
H2041 H 0.46489 0.60457 1.00097 0.0
C2042 C 0.10677 0.76876 0.66054 0.0
C2043 C 0.09828 0.80004 0.66989 0.0
C2044 C 0.13956 0.81048 0.71849 0.0
C2045 C 0.1494 0.78025 0.70799 0.0
N2046 N 0.14619 0.7332 0.66665 0.0
N2047 N 0.10829 0.85263 0.70499 0.0
C2048 C 0.13377 0.7598 0.67862 0.0
C2049 C 0.1152 0.82153 0.6981 0.0
N2050 N 0.0892 0.74772 0.634 0.0
N2051 N 0.15292 0.828 0.74847 0.0
H2052 H 0.08997 0.86095 0.69096 0.0
H2053 H 0.12195 0.8711 0.72311 0.0
H2054 H 0.17048 0.82031 0.76415 0.0
H2055 H 0.14504 0.84863 0.75907 0.0
H2056 H 0.09074 0.7226 0.62887 0.0
H2057 H 0.07179 0.75482 0.61771 0.0
H2058 H 0.13859 0.71995 0.64331 0.0
H2059 H 0.16599 0.72568 0.6789 0.0
C2060 C 0.04563 0.39801 0.50248 0.0
C2061 C 0.01683 0.37331 0.50526 0.0
C2062 C 0.99214 0.41892 0.52689 0.0
C2063 C 0.01772 0.44347 0.51705 0.0
N2064 N 0.06466 0.45333 0.48564 0.0
N2065 N 0.95823 0.36352 0.51048 0.0
C2066 C 0.04348 0.43233 0.50213 0.0
C2067 C 0.98873 0.38449 0.51492 0.0
N2068 N 0.07519 0.38926 0.50098 0.0
N2069 N 0.97139 0.42802 0.54799 0.0
H2070 H 0.95296 0.33954 0.4974 0.0
H2071 H 0.93723 0.37206 0.51547 0.0
H2072 H 0.97465 0.45258 0.55954 0.0
H2073 H 0.95373 0.41018 0.55716 0.0
H2074 H 0.09699 0.40726 0.50105 0.0
H2075 H 0.07858 0.365 0.5042 0.0
H2076 H 0.08209 0.44484 0.47259 0.0
H2077 H 0.06204 0.47747 0.48096 0.0
C2078 C 0.43649 0.33926 0.18545 0.0
C2079 C 0.4406 0.30723 0.17178 0.0
C2080 C 0.40122 0.2792 0.20645 0.0
C2081 C 0.39302 0.31039 0.21568 0.0
N2082 N 0.40021 0.37024 0.21104 0.0
N2083 N 0.42069 0.24638 0.16402 0.0
C2084 C 0.41 0.3406 0.20453 0.0
C2085 C 0.42133 0.27707 0.1809 0.0
N2086 N 0.45854 0.36822 0.18161 0.0
N2087 N 0.39048 0.25172 0.22271 0.0
H2088 H 0.43281 0.24368 0.14317 0.0
H2089 H 0.40499 0.22408 0.16831 0.0
H2090 H 0.37629 0.25264 0.24226 0.0
H2091 H 0.39898 0.22947 0.21936 0.0
H2092 H 0.45837 0.39175 0.1938 0.0
H2093 H 0.47899 0.36834 0.16901 0.0
H2094 H 0.40932 0.39212 0.20027 0.0
H2095 H 0.38126 0.37231 0.22527 0.0
C2096 C 0.60446 0.53991 0.4061 0.0
C2097 C 0.59366 0.51301 0.38063 0.0
C2098 C 0.54825 0.48845 0.41136 0.0
C2099 C 0.55739 0.51722 0.43558 0.0
N2100 N 0.59202 0.57312 0.45262 0.0
N2101 N 0.55447 0.46264 0.35692 0.0
C2102 C 0.58477 0.54372 0.4319 0.0
C2103 C 0.5655 0.48729 0.38283 0.0
N2104 N 0.63446 0.56132 0.40634 0.0
N2105 N 0.5226 0.46261 0.41514 0.0
H2106 H 0.56707 0.46071 0.33628 0.0
H2107 H 0.53214 0.4452 0.35484 0.0
H2108 H 0.50696 0.46404 0.43327 0.0
H2109 H 0.51728 0.4392 0.40097 0.0
H2110 H 0.64571 0.57887 0.42636 0.0
H2111 H 0.64973 0.55935 0.38791 0.0
H2112 H 0.6078 0.59509 0.44765 0.0
H2113 H 0.58138 0.57639 0.47411 0.0
C2114 C 0.20853 0.81425 0.12849 0.0
C2115 C 0.23217 0.84168 0.11996 0.0
C2116 C 0.27083 0.83482 0.16734 0.0
C2117 C 0.2466 0.80846 0.17681 0.0
N2118 N 0.19002 0.77813 0.17049 0.0
N2119 N 0.28397 0.88187 0.13445 0.0
C2120 C 0.21478 0.79956 0.15847 0.0
C2121 C 0.26264 0.85325 0.14056 0.0
N2122 N 0.18019 0.80189 0.10769 0.0
N2123 N 0.30233 0.84086 0.18253 0.0
H2124 H 0.27991 0.89511 0.11424 0.0
H2125 H 0.30458 0.89395 0.15071 0.0
H2126 H 0.30944 0.82753 0.20165 0.0
H2127 H 0.32204 0.85701 0.17448 0.0
H2128 H 0.16365 0.77954 0.1103 0.0
H2129 H 0.17421 0.81293 0.08644 0.0
H2130 H 0.16552 0.77338 0.16038 0.0
H2131 H 0.19338 0.7675 0.19258 0.0
C2132 C 1.00466 0.59267 0.88613 0.0
C2133 C 0.98131 0.56668 0.86585 0.0
C2134 C 0.97792 0.53161 0.91216 0.0
C2135 C 0.99905 0.55859 0.93334 0.0
N2136 N 0.02888 0.61672 0.94185 0.0
N2137 N 0.93974 0.51495 0.86232 0.0
C2138 C 0.01148 0.58969 0.92067 0.0
C2139 C 0.96628 0.53715 0.87967 0.0
N2140 N 0.02112 0.61963 0.87219 0.0
N2141 N 0.96999 0.50007 0.92247 0.0
H2142 H 0.92961 0.51837 0.83886 0.0
H2143 H 0.92558 0.49507 0.8726 0.0
H2144 H 0.97833 0.4945 0.94578 0.0
H2145 H 0.95788 0.47864 0.90673 0.0
H2146 H 0.04089 0.63763 0.88473 0.0
H2147 H 0.01663 0.62258 0.84716 0.0
H2148 H 0.03572 0.64106 0.93496 0.0
H2149 H 0.0342 0.61541 0.96712 0.0
C2150 C 0.24505 0.18388 0.57881 0.0
C2151 C 0.27589 0.17626 0.57407 0.0
C2152 C 0.29968 0.2071 0.6278 0.0
C2153 C 0.26779 0.21071 0.63415 0.0
N2154 N 0.20904 0.19678 0.61826 0.0
N2155 N 0.33216 0.17794 0.59434 0.0
C2156 C 0.24015 0.19775 0.61032 0.0
C2157 C 0.30321 0.18721 0.59861 0.0
N2158 N 0.22068 0.17877 0.55292 0.0
N2159 N 0.32662 0.22366 0.64902 0.0
H2160 H 0.33573 0.16421 0.57277 0.0
H2161 H 0.35183 0.18182 0.61291 0.0
H2162 H 0.32508 0.23929 0.67015 0.0
H2163 H 0.3507 0.22449 0.64425 0.0
H2164 H 0.19899 0.18724 0.55419 0.0
H2165 H 0.22347 0.16927 0.52914 0.0
H2166 H 0.18801 0.18408 0.60286 0.0
H2167 H 0.204 0.20558 0.64147 0.0
C2168 C 0.59053 0.48095 0.17975 0.0
C2169 C 0.61213 0.50781 0.2004 0.0
C2170 C 0.60071 0.54862 0.1624 0.0
C2171 C 0.57952 0.52168 0.1413 0.0
N2172 N 0.55708 0.46183 0.12689 0.0
N2173 N 0.64199 0.56612 0.20998 0.0
C2174 C 0.57541 0.48765 0.14898 0.0
C2175 C 0.61838 0.54136 0.19133 0.0
N2176 N 0.58386 0.44935 0.19011 0.0
N2177 N 0.60394 0.58124 0.15478 0.0
H2178 H 0.65473 0.56234 0.23206 0.0
H2179 H 0.65076 0.58996 0.20273 0.0
H2180 H 0.5944 0.58753 0.13222 0.0
H2181 H 0.61501 0.60243 0.17123 0.0
H2182 H 0.56582 0.42922 0.17809 0.0
H2183 H 0.59529 0.44368 0.21211 0.0
H2184 H 0.55603 0.43633 0.12914 0.0
H2185 H 0.54407 0.46579 0.10504 0.0
C2186 C 0.212 0.81088 0.90196 0.0
C2187 C 0.23757 0.81368 0.92846 0.0
C2188 C 0.26612 0.7836 0.88996 0.0
C2189 C 0.24489 0.78822 0.86225 0.0
N2190 N 0.20078 0.81522 0.84361 0.0
N2191 N 0.29499 0.81141 0.94182 0.0
C2192 C 0.21852 0.80422 0.86859 0.0
C2193 C 0.26634 0.80236 0.92099 0.0
N2194 N 0.1812 0.81347 0.90821 0.0
N2195 N 0.28595 0.76107 0.88713 0.0
H2196 H 0.29878 0.82943 0.96227 0.0
H2197 H 0.31665 0.805 0.93566 0.0
H2198 H 0.2845 0.74458 0.86577 0.0
H2199 H 0.30043 0.75582 0.90744 0.0
H2200 H 0.16152 0.8093 0.88955 0.0
H2201 H 0.17433 0.815 0.93202 0.0
H2202 H 0.18333 0.82944 0.84806 0.0
H2203 H 0.20614 0.81427 0.81929 0.0
C2204 C 0.97141 0.5896 0.64722 0.0
C2205 C 0.97153 0.56804 0.67276 0.0
C2206 C 0.99607 0.53051 0.63665 0.0
C2207 C 0.99342 0.55102 0.61037 0.0
N2208 N 0.96327 0.59043 0.58829 0.0
N2209 N 0.97512 0.51204 0.68682 0.0
C2210 C 0.97664 0.5778 0.61484 0.0
C2211 C 0.98162 0.53687 0.66627 0.0
N2212 N 0.96665 0.62162 0.65371 0.0
N2213 N 0.01129 0.50405 0.63301 0.0
H2214 H 0.96244 0.51411 0.7073 0.0
H2215 H 0.97892 0.48774 0.68146 0.0
H2216 H 0.01803 0.4955 0.61046 0.0
H2217 H 0.01802 0.49126 0.65271 0.0
H2218 H 0.96883 0.63903 0.63628 0.0
H2219 H 0.96434 0.6319 0.67741 0.0
H2220 H 0.94969 0.60909 0.59046 0.0
H2221 H 0.96004 0.57758 0.56477 0.0
C2222 C 0.27533 0.24805 0.40779 0.0
C2223 C 0.29247 0.22161 0.41173 0.0
C2224 C 0.32375 0.23977 0.366 0.0
C2225 C 0.30554 0.26531 0.36191 0.0
N2226 N 0.27792 0.30365 0.38956 0.0
N2227 N 0.34272 0.20314 0.40373 0.0
C2228 C 0.28663 0.27309 0.38705 0.0
C2229 C 0.31974 0.22068 0.39365 0.0
N2230 N 0.24668 0.24797 0.42111 0.0
N2231 N 0.34415 0.23288 0.34354 0.0
H2232 H 0.34241 0.19154 0.42551 0.0
H2233 H 0.36435 0.20393 0.39295 0.0
H2234 H 0.35074 0.24797 0.32494 0.0
H2235 H 0.35399 0.21135 0.34302 0.0
H2236 H 0.2337 0.26693 0.41862 0.0
H2237 H 0.23332 0.22712 0.43063 0.0
H2238 H 0.26589 0.31164 0.40889 0.0
H2239 H 0.28612 0.32215 0.37417 0.0
C2240 C 0.41718 0.59954 0.49432 0.0
C2241 C 0.38626 0.58876 0.50626 0.0
C2242 C 0.39732 0.53133 0.50734 0.0
C2243 C 0.42929 0.54286 0.49749 0.0
N2244 N 0.45909 0.58202 0.46445 0.0
N2245 N 0.34277 0.54131 0.51247 0.0
C2246 C 0.43617 0.57524 0.48582 0.0
C2247 C 0.37523 0.55377 0.50964 0.0
N2248 N 0.42942 0.63311 0.49238 0.0
N2249 N 0.38712 0.49845 0.51327 0.0
H2250 H 0.32531 0.55619 0.51177 0.0
H2251 H 0.33219 0.51565 0.51181 0.0
H2252 H 0.39646 0.47887 0.50259 0.0
H2253 H 0.36815 0.49047 0.52743 0.0
H2254 H 0.45315 0.64242 0.48676 0.0
H2255 H 0.41712 0.65188 0.49933 0.0
H2256 H 0.46306 0.60414 0.45281 0.0
H2257 H 0.47078 0.56363 0.45515 0.0
C2258 C 0.86486 1.00159 0.55056 0.0
C2259 C 0.86206 0.98977 0.5819 0.0
C2260 C 0.92054 0.01436 0.59786 0.0
C2261 C 0.9244 0.01886 0.56416 0.0
N2262 N 0.89902 0.00793 0.50688 0.0
N2263 N 0.8878 0.98296 0.63553 0.0
C2264 C 0.89624 0.01057 0.54002 0.0
C2265 C 0.88999 0.99586 0.60586 0.0
N2266 N 0.8374 0.00353 0.53052 0.0
N2267 N 0.94547 0.02852 0.62225 0.0
H2268 H 0.86573 0.9697 0.64226 0.0
H2269 H 0.90828 0.98347 0.65237 0.0
H2270 H 0.96732 0.04409 0.61756 0.0
H2271 H 0.94296 0.02803 0.64733 0.0
H2272 H 0.83851 0.01461 0.50843 0.0
H2273 H 0.81388 0.99763 0.53787 0.0
H2274 H 0.87885 0.99908 0.48897 0.0
H2275 H 0.92119 0.00982 0.49708 0.0
C2276 C 0.82594 0.16551 0.22695 0.0
C2277 C 0.81157 0.13407 0.23721 0.0
C2278 C 0.77249 0.16117 0.26501 0.0
C2279 C 0.7886 0.19333 0.25663 0.0
N2280 N 0.83877 0.22547 0.24108 0.0
N2281 N 0.77397 0.10206 0.26977 0.0
C2282 C 0.81755 0.19531 0.24071 0.0
C2283 C 0.78564 0.13191 0.25743 0.0
N2284 N 0.84802 0.16714 0.20429 0.0
N2285 N 0.74475 0.15862 0.28047 0.0
H2286 H 0.78236 0.08013 0.26377 0.0
H2287 H 0.75756 0.09948 0.28741 0.0
H2288 H 0.73655 0.17976 0.28954 0.0
H2289 H 0.72943 0.13565 0.28355 0.0
H2290 H 0.85629 0.18892 0.19303 0.0
H2291 H 0.85568 0.14598 0.19437 0.0
H2292 H 0.86052 0.22879 0.23021 0.0
H2293 H 0.83727 0.24559 0.25752 0.0
C2294 C 0.71016 0.11427 0.04091 0.0
C2295 C 0.71862 0.11807 0.00839 0.0
C2296 C 0.6621 0.09039 0.98598 0.0
C2297 C 0.6525 0.09223 0.01846 0.0
N2298 N 0.66723 0.1119 0.07658 0.0
N2299 N 0.70208 0.11229 0.94967 0.0
C2300 C 0.67651 0.10546 0.04595 0.0
C2301 C 0.69437 0.10697 0.98081 0.0
N2302 N 0.73412 0.11923 0.06713 0.0
N2303 N 0.64116 0.07126 0.96035 0.0
H2304 H 0.72589 0.12263 0.94482 0.0
H2305 H 0.68447 0.10833 0.92906 0.0
H2306 H 0.61823 0.05671 0.96336 0.0
H2307 H 0.64807 0.06658 0.93689 0.0
H2308 H 0.72929 0.11338 0.09076 0.0
H2309 H 0.75909 0.12612 0.06485 0.0
H2310 H 0.68356 0.12495 0.09663 0.0
H2311 H 0.64281 0.10772 0.08128 0.0
C2312 C 0.19447 0.38163 0.28439 0.0
C2313 C 0.20659 0.41574 0.27857 0.0
C2314 C 0.26315 0.40705 0.28802 0.0
C2315 C 0.25069 0.37172 0.2884 0.0
N2316 N 0.20708 0.33166 0.30597 0.0
N2317 N 0.25312 0.46178 0.27647 0.0
C2318 C 0.21701 0.36066 0.29201 0.0
C2319 C 0.24114 0.42867 0.28088 0.0
N2320 N 0.16141 0.36844 0.28061 0.0
N2321 N 0.29563 0.42058 0.29831 0.0
H2322 H 0.2386 0.47966 0.27534 0.0
H2323 H 0.27735 0.47132 0.27259 0.0
H2324 H 0.31121 0.40656 0.30904 0.0
H2325 H 0.30608 0.4464 0.30113 0.0
H2326 H 0.15134 0.34271 0.28063 0.0
H2327 H 0.14408 0.38265 0.27461 0.0
H2328 H 0.18372 0.32429 0.31323 0.0
H2329 H 0.22383 0.31789 0.31459 0.0
C2330 C 0.17579 0.50412 0.08447 0.0
C2331 C 0.19952 0.49956 0.06301 0.0
C2332 C 0.17165 0.52582 0.02024 0.0
C2333 C 0.14903 0.53154 0.04235 0.0
N2334 N 0.13513 0.53563 0.09818 0.0
N2335 N 0.22504 0.51382 0.01396 0.0
C2336 C 0.15313 0.52399 0.07546 0.0
C2337 C 0.19901 0.51274 0.03185 0.0
N2338 N 0.17335 0.48765 0.11227 0.0
N2339 N 0.16648 0.53204 0.98804 0.0
H2340 H 0.24607 0.5056 0.02221 0.0
H2341 H 0.22719 0.5259 0.99254 0.0
H2342 H 0.14745 0.54317 0.97939 0.0
H2343 H 0.17995 0.52461 0.96973 0.0
H2344 H 0.1542 0.48742 0.12677 0.0
H2345 H 0.18825 0.47119 0.11899 0.0
H2346 H 0.13896 0.5331 0.12334 0.0
H2347 H 0.11896 0.55117 0.09242 0.0
C2348 C 0.83067 0.94648 0.27792 0.0
C2349 C 0.82628 0.95709 0.2459 0.0
C2350 C 0.7919 0.90063 0.22669 0.0
C2351 C 0.802 0.88846 0.2568 0.0
N2352 N 0.83878 0.90011 0.30818 0.0
N2353 N 0.80664 0.94141 0.18782 0.0
C2354 C 0.82346 0.91145 0.28172 0.0
C2355 C 0.80785 0.93345 0.21965 0.0
N2356 N 0.84094 0.9698 0.30502 0.0
N2357 N 0.76624 0.8817 0.20537 0.0
H2358 H 0.81892 0.96449 0.18121 0.0
H2359 H 0.79615 0.92371 0.16765 0.0
H2360 H 0.75231 0.85875 0.21061 0.0
H2361 H 0.75631 0.89082 0.1845 0.0
H2362 H 0.84183 0.96312 0.32913 0.0
H2363 H 0.84451 0.99582 0.30368 0.0
H2364 H 0.85669 0.91608 0.32522 0.0
H2365 H 0.83702 0.8746 0.31093 0.0
C2366 C 0.68413 0.09657 0.73682 0.0
C2367 C 0.68514 0.08642 0.76925 0.0
C2368 C 0.72424 0.13914 0.79048 0.0
C2369 C 0.7202 0.15094 0.75891 0.0
N2370 N 0.69237 0.14317 0.70324 0.0
N2371 N 0.70313 0.09847 0.82763 0.0
C2372 C 0.69946 0.13016 0.7322 0.0
C2373 C 0.70436 0.10782 0.79633 0.0
N2374 N 0.6682 0.07422 0.71042 0.0
N2375 N 0.74786 0.15739 0.81449 0.0
H2376 H 0.6897 0.07509 0.83254 0.0
H2377 H 0.71356 0.11464 0.84885 0.0
H2378 H 0.76365 0.1799 0.8107 0.0
H2379 H 0.75399 0.14875 0.83702 0.0
H2380 H 0.67011 0.07881 0.68592 0.0
H2381 H 0.6549 0.04995 0.71274 0.0
H2382 H 0.67428 0.13049 0.68448 0.0
H2383 H 0.70235 0.16788 0.69884 0.0
loop_
_geom_bond_atom_site_label_1
_geom_bond_atom_site_label_2
_geom_bond_distance
_geom_bond_site_symmetry_2
_ccdc_geom_bond_type
O0 Cd1 2.223 . S
O0 C8 1.315 . S
Cd1 O0 2.223 . S
Cd1 O4 2.297 . S
Cd1 O5 2.439 . S
Cd1 O11 2.240 1_455 S
Cd2 O3 2.240 . S
Cd2 O10 2.223 1_455 S
Cd2 O12 2.297 1_455 S
Cd2 O13 2.439 . S
O3 Cd2 2.240 . S
O3 C8 1.279 . S
O4 Cd1 2.297 . S
O4 C6 1.247 . S
O5 Cd1 2.439 . S
O5 C6 1.208 . S
C6 O4 1.247 . S
C6 O5 1.208 . S
C7 O12 1.247 1_455 S
C7 O13 1.208 . S
C8 O0 1.315 . S
C8 O3 1.279 . S
C9 O10 1.315 . S
C9 O11 1.279 . S
O10 Cd2 2.223 1_655 S
O10 C9 1.315 . S
O11 Cd1 2.240 1_655 S
O11 C9 1.279 . S
O12 Cd2 2.297 1_655 S
O12 C7 1.247 1_655 S
O13 Cd2 2.439 . S
O13 C7 1.208 . S
O14 Cd15 2.235 . S
O14 C22 1.318 . S
Cd15 O14 2.235 . S
Cd15 O18 2.297 . S
Cd15 O19 2.439 . S
Cd15 O25 2.240 1_655 S
Cd16 O17 2.240 1_455 S
Cd16 O24 2.223 . S
Cd16 O26 2.297 . S
Cd16 O27 2.432 1_455 S
O17 Cd16 2.240 1_655 S
O17 C22 1.279 . S
O18 Cd15 2.297 . S
O18 C20 1.247 . S
O19 Cd15 2.439 . S
O19 C20 1.208 . S
C20 O18 1.247 . S
C20 O19 1.208 . S
C21 O26 1.247 . S
C21 O27 1.201 1_455 S
C22 O14 1.318 . S
C22 O17 1.279 . S
C23 O24 1.315 . S
C23 O25 1.279 . S
O24 Cd16 2.223 . S
O24 C23 1.315 . S
O25 Cd15 2.240 1_455 S
O25 C23 1.279 . S
O26 Cd16 2.297 . S
O26 C21 1.247 . S
O27 Cd16 2.432 1_655 S
O27 C21 1.201 1_655 S
O28 Cd29 2.223 . S
O28 C36 1.315 . S
Cd29 O28 2.223 . S
Cd29 O32 2.297 . S
Cd29 O33 2.439 . S
Cd29 O39 2.240 . S
Cd30 O31 2.240 . S
Cd30 O38 2.223 . S
Cd30 O40 2.297 . S
Cd30 O41 2.439 . S
O31 Cd30 2.240 . S
O31 C36 1.279 . S
O32 Cd29 2.297 . S
O32 C34 1.247 . S
O33 Cd29 2.439 . S
O33 C34 1.208 . S
C34 O32 1.247 . S
C34 O33 1.208 . S
C35 O40 1.247 . S
C35 O41 1.208 . S
C36 O28 1.315 . S
C36 O31 1.279 . S
C37 O38 1.315 . S
C37 O39 1.279 . S
O38 Cd30 2.223 . S
O38 C37 1.315 . S
O39 Cd29 2.240 . S
O39 C37 1.279 . S
O40 Cd30 2.297 . S
O40 C35 1.247 . S
O41 Cd30 2.439 . S
O41 C35 1.208 . S
O42 Cd43 2.223 . S
O42 C50 1.315 . S
Cd43 O42 2.223 . S
Cd43 O46 2.297 . S
Cd43 O47 2.439 . S
Cd43 O53 2.240 . S
Cd44 O45 2.240 . S
Cd44 O52 2.223 . S
Cd44 O54 2.297 . S
Cd44 O55 2.439 . S
O45 Cd44 2.240 . S
O45 C50 1.279 . S
O46 Cd43 2.297 . S
O46 C48 1.247 . S
O47 Cd43 2.439 . S
O47 C48 1.208 . S
C48 O46 1.247 . S
C48 O47 1.208 . S
C49 O54 1.247 . S
C49 O55 1.208 . S
C50 O42 1.315 . S
C50 O45 1.279 . S
C51 O52 1.315 . S
C51 O53 1.279 . S
O52 Cd44 2.223 . S
O52 C51 1.315 . S
O53 Cd43 2.240 . S
O53 C51 1.279 . S
O54 Cd44 2.297 . S
O54 C49 1.247 . S
O55 Cd44 2.439 . S
O55 C49 1.208 . S
O56 Cd57 2.223 . S
O56 C64 1.315 . S
Cd57 O56 2.223 . S
Cd57 O60 2.297 1_455 S
Cd57 O61 2.439 1_455 S
Cd57 O67 2.240 . S
Cd58 O59 2.240 1_455 S
Cd58 O66 2.223 . S
Cd58 O68 2.297 . S
Cd58 O69 2.439 . S
O59 Cd58 2.240 1_655 S
O59 C64 1.279 1_655 S
O60 Cd57 2.297 1_655 S
O60 C62 1.247 . S
O61 Cd57 2.439 1_655 S
O61 C62 1.208 . S
C62 O60 1.247 . S
C62 O61 1.208 . S
C63 O68 1.247 . S
C63 O69 1.208 . S
C64 O56 1.315 . S
C64 O59 1.279 1_455 S
C65 O66 1.315 . S
C65 O67 1.279 . S
O66 Cd58 2.223 . S
O66 C65 1.315 . S
O67 Cd57 2.240 . S
O67 C65 1.279 . S
O68 Cd58 2.297 . S
O68 C63 1.247 . S
O69 Cd58 2.439 . S
O69 C63 1.208 . S
O70 Cd71 2.223 . S
O70 C78 1.315 . S
Cd71 O70 2.223 . S
Cd71 O74 2.297 . S
Cd71 O75 2.439 . S
Cd71 O81 2.240 . S
Cd72 O73 2.240 . S
Cd72 O80 2.223 . S
Cd72 O82 2.297 . S
Cd72 O83 2.439 . S
O73 Cd72 2.240 . S
O73 C78 1.279 . S
O74 Cd71 2.297 . S
O74 C76 1.247 . S
O75 Cd71 2.439 . S
O75 C76 1.208 . S
C76 O74 1.247 . S
C76 O75 1.208 . S
C77 O82 1.247 . S
C77 O83 1.208 . S
C78 O70 1.315 . S
C78 O73 1.279 . S
C79 O80 1.315 . S
C79 O81 1.279 . S
O80 Cd72 2.223 . S
O80 C79 1.315 . S
O81 Cd71 2.240 . S
O81 C79 1.279 . S
O82 Cd72 2.297 . S
O82 C77 1.247 . S
O83 Cd72 2.439 . S
O83 C77 1.208 . S
O84 Cd85 2.223 . S
O84 C92 1.315 . S
Cd85 O84 2.223 . S
Cd85 O88 2.297 . S
Cd85 O89 2.439 . S
Cd85 O95 2.240 . S
Cd86 O87 2.240 . S
Cd86 O94 2.223 . S
Cd86 O96 2.297 . S
Cd86 O97 2.439 . S
O87 Cd86 2.240 . S
O87 C92 1.279 . S
O88 Cd85 2.297 . S
O88 C90 1.247 . S
O89 Cd85 2.439 . S
O89 C90 1.208 . S
C90 O88 1.247 . S
C90 O89 1.208 . S
C91 O96 1.247 . S
C91 O97 1.208 . S
C92 O84 1.315 . S
C92 O87 1.279 . S
C93 O94 1.315 . S
C93 O95 1.279 . S
O94 Cd86 2.223 . S
O94 C93 1.315 . S
O95 Cd85 2.240 . S
O95 C93 1.279 . S
O96 Cd86 2.297 . S
O96 C91 1.247 . S
O97 Cd86 2.439 . S
O97 C91 1.208 . S
O98 Cd99 2.223 1_655 S
O98 C106 1.315 1_655 S
Cd99 O98 2.223 1_455 S
Cd99 O102 2.297 . S
Cd99 O103 2.439 . S
Cd99 O109 2.240 1_455 S
Cd100 O101 2.240 1_655 S
Cd100 O108 2.223 . S
Cd100 O110 2.297 . S
Cd100 O111 2.439 1_655 S
O101 Cd100 2.240 1_455 S
O101 C106 1.279 . S
O102 Cd99 2.297 . S
O102 C104 1.247 . S
O103 Cd99 2.439 . S
O103 C104 1.208 . S
C104 O102 1.247 . S
C104 O103 1.208 . S
C105 O110 1.247 1_455 S
C105 O111 1.208 . S
C106 O98 1.315 1_455 S
C106 O101 1.279 . S
C107 O108 1.315 . S
C107 O109 1.279 . S
O108 Cd100 2.223 . S
O108 C107 1.315 . S
O109 Cd99 2.240 1_655 S
O109 C107 1.279 . S
O110 Cd100 2.297 . S
O110 C105 1.247 1_655 S
O111 Cd100 2.439 1_455 S
O111 C105 1.208 . S
O112 Cd113 2.223 . S
O112 C120 1.315 . S
Cd113 O112 2.223 . S
Cd113 O116 2.297 . S
Cd113 O117 2.439 . S
Cd113 O123 2.240 . S
Cd114 O115 2.240 . S
Cd114 O122 2.223 1_545 S
Cd114 O124 2.297 . S
Cd114 O125 2.439 . S
O115 Cd114 2.240 . S
O115 C120 1.279 . S
O116 Cd113 2.297 . S
O116 C118 1.247 . S
O117 Cd113 2.439 . S
O117 C118 1.208 . S
C118 O116 1.247 . S
C118 O117 1.208 . S
C119 O124 1.247 . S
C119 O125 1.208 . S
C120 O112 1.315 . S
C120 O115 1.279 . S
C121 O122 1.315 . S
C121 O123 1.279 1_565 S
O122 Cd114 2.223 1_565 S
O122 C121 1.315 . S
O123 Cd113 2.240 . S
O123 C121 1.279 1_545 S
O124 Cd114 2.297 . S
O124 C119 1.247 . S
O125 Cd114 2.439 . S
O125 C119 1.208 . S
O126 Cd127 2.223 . S
O126 C134 1.315 . S
Cd127 O126 2.223 . S
Cd127 O130 2.297 . S
Cd127 O131 2.439 . S
Cd127 O137 2.240 . S
Cd128 O129 2.240 . S
Cd128 O136 2.223 . S
Cd128 O138 2.297 . S
Cd128 O139 2.439 . S
O129 Cd128 2.240 . S
O129 C134 1.279 . S
O130 Cd127 2.297 . S
O130 C132 1.247 . S
O131 Cd127 2.439 . S
O131 C132 1.208 . S
C132 O130 1.247 . S
C132 O131 1.208 . S
C133 O138 1.247 . S
C133 O139 1.208 . S
C134 O126 1.315 . S
C134 O129 1.279 . S
C135 O136 1.315 . S
C135 O137 1.279 . S
O136 Cd128 2.223 . S
O136 C135 1.315 . S
O137 Cd127 2.240 . S
O137 C135 1.279 . S
O138 Cd128 2.297 . S
O138 C133 1.247 . S
O139 Cd128 2.439 . S
O139 C133 1.208 . S
O140 Cd141 2.223 1_545 S
O140 C148 1.315 1_545 S
Cd141 O140 2.223 1_565 S
Cd141 O144 2.297 . S
Cd141 O145 2.439 . S
Cd141 O151 2.240 1_565 S
Cd142 O143 2.240 1_545 S
Cd142 O150 2.223 . S
Cd142 O152 2.297 . S
Cd142 O153 2.439 1_545 S
O143 Cd142 2.240 1_565 S
O143 C148 1.279 . S
O144 Cd141 2.297 . S
O144 C146 1.247 . S
O145 Cd141 2.439 . S
O145 C146 1.208 . S
C146 O144 1.247 . S
C146 O145 1.208 . S
C147 O152 1.247 . S
C147 O153 1.208 1_545 S
C148 O140 1.315 1_565 S
C148 O143 1.279 . S
C149 O150 1.315 . S
C149 O151 1.279 . S
O150 Cd142 2.223 . S
O150 C149 1.315 . S
O151 Cd141 2.240 1_545 S
O151 C149 1.279 . S
O152 Cd142 2.297 . S
O152 C147 1.247 . S
O153 Cd142 2.439 1_565 S
O153 C147 1.208 1_565 S
O154 Cd155 2.223 . S
O154 C162 1.315 . S
Cd155 O154 2.223 . S
Cd155 O158 2.297 . S
Cd155 O159 2.439 . S
Cd155 O165 2.240 . S
Cd156 O157 2.240 . S
Cd156 O164 2.223 . S
Cd156 O166 2.297 1_554 S
Cd156 O167 2.439 1_554 S
O157 Cd156 2.240 . S
O157 C162 1.279 . S
O158 Cd155 2.297 . S
O158 C160 1.247 . S
O159 Cd155 2.439 . S
O159 C160 1.208 . S
C160 O158 1.247 . S
C160 O159 1.208 . S
C161 O166 1.247 . S
C161 O167 1.208 . S
C162 O154 1.315 . S
C162 O157 1.279 . S
C163 O164 1.315 . S
C163 O165 1.279 . S
O164 Cd156 2.223 . S
O164 C163 1.315 . S
O165 Cd155 2.240 . S
O165 C163 1.279 . S
O166 Cd156 2.297 1_556 S
O166 C161 1.247 . S
O167 Cd156 2.439 1_556 S
O167 C161 1.208 . S
O168 Cd169 2.223 . S
O168 C176 1.315 . S
Cd169 O168 2.223 . S
Cd169 O172 2.297 . S
Cd169 O173 2.439 . S
Cd169 O179 2.240 . S
Cd170 O171 2.240 . S
Cd170 O178 2.223 . S
Cd170 O180 2.297 1_554 S
Cd170 O181 2.439 1_554 S
O171 Cd170 2.240 . S
O171 C176 1.279 . S
O172 Cd169 2.297 . S
O172 C174 1.247 . S
O173 Cd169 2.439 . S
O173 C174 1.208 . S
C174 O172 1.247 . S
C174 O173 1.208 . S
C175 O180 1.247 . S
C175 O181 1.208 . S
C176 O168 1.315 . S
C176 O171 1.279 . S
C177 O178 1.315 . S
C177 O179 1.279 . S
O178 Cd170 2.223 . S
O178 C177 1.315 . S
O179 Cd169 2.240 . S
O179 C177 1.279 . S
O180 Cd170 2.297 1_556 S
O180 C175 1.247 . S
O181 Cd170 2.439 1_556 S
O181 C175 1.208 . S
O182 Cd183 2.223 . S
O182 C190 1.315 . S
Cd183 O182 2.223 . S
Cd183 O186 2.297 . S
Cd183 O187 2.439 1_554 S
Cd183 O193 2.240 1_554 S
Cd184 O185 2.240 1_556 S
Cd184 O192 2.223 1_556 S
Cd184 O194 2.297 . S
Cd184 O195 2.439 . S
O185 Cd184 2.240 1_554 S
O185 C190 1.279 . S
O186 Cd183 2.297 . S
O186 C188 1.247 . S
O187 Cd183 2.439 1_556 S
O187 C188 1.208 1_556 S
C188 O186 1.247 . S
C188 O187 1.208 1_554 S
C189 O194 1.247 . S
C189 O195 1.208 . S
C190 O182 1.315 . S
C190 O185 1.279 . S
C191 O192 1.315 1_556 S
C191 O193 1.279 . S
O192 Cd184 2.223 1_554 S
O192 C191 1.315 1_554 S
O193 Cd183 2.240 1_556 S
O193 C191 1.279 . S
O194 Cd184 2.297 . S
O194 C189 1.247 . S
O195 Cd184 2.439 . S
O195 C189 1.208 . S
O196 Cd197 2.223 . S
O196 C204 1.315 . S
Cd197 O196 2.223 . S
Cd197 O200 2.297 . S
Cd197 O201 2.439 . S
Cd197 O207 2.240 . S
Cd198 O199 2.240 . S
Cd198 O206 2.223 . S
Cd198 O208 2.297 . S
Cd198 O209 2.439 . S
O199 Cd198 2.240 . S
O199 C204 1.279 . S
O200 Cd197 2.297 . S
O200 C202 1.247 . S
O201 Cd197 2.439 . S
O201 C202 1.208 . S
C202 O200 1.247 . S
C202 O201 1.208 . S
C203 O208 1.247 . S
C203 O209 1.208 . S
C204 O196 1.315 . S
C204 O199 1.279 . S
C205 O206 1.315 . S
C205 O207 1.279 . S
O206 Cd198 2.223 . S
O206 C205 1.315 . S
O207 Cd197 2.240 . S
O207 C205 1.279 . S
O208 Cd198 2.297 . S
O208 C203 1.247 . S
O209 Cd198 2.439 . S
O209 C203 1.208 . S
O210 Cd211 2.223 . S
O210 C218 1.315 . S
Cd211 O210 2.223 . S
Cd211 O214 2.297 . S
Cd211 O215 2.439 . S
Cd211 O221 2.240 . S
Cd212 O213 2.240 . S
Cd212 O220 2.223 . S
Cd212 O222 2.297 . S
Cd212 O223 2.439 . S
O213 Cd212 2.240 . S
O213 C218 1.279 . S
O214 Cd211 2.297 . S
O214 C216 1.247 . S
O215 Cd211 2.439 . S
O215 C216 1.208 . S
C216 O214 1.247 . S
C216 O215 1.208 . S
C217 O222 1.247 . S
C217 O223 1.208 . S
C218 O210 1.315 . S
C218 O213 1.279 . S
C219 O220 1.315 . S
C219 O221 1.279 . S
O220 Cd212 2.223 . S
O220 C219 1.315 . S
O221 Cd211 2.240 . S
O221 C219 1.279 . S
O222 Cd212 2.297 . S
O222 C217 1.247 . S
O223 Cd212 2.439 . S
O223 C217 1.208 . S
O224 Cd225 2.223 . S
O224 C232 1.315 . S
Cd225 O224 2.223 . S
Cd225 O228 2.297 . S
Cd225 O229 2.439 . S
Cd225 O235 2.240 . S
Cd226 O227 2.240 . S
Cd226 O234 2.223 1_545 S
Cd226 O236 2.297 . S
Cd226 O237 2.439 . S
O227 Cd226 2.240 . S
O227 C232 1.279 . S
O228 Cd225 2.297 . S
O228 C230 1.247 . S
O229 Cd225 2.439 . S
O229 C230 1.208 . S
C230 O228 1.247 . S
C230 O229 1.208 . S
C231 O236 1.247 . S
C231 O237 1.208 . S
C232 O224 1.315 . S
C232 O227 1.279 . S
C233 O234 1.315 . S
C233 O235 1.279 1_565 S
O234 Cd226 2.223 1_565 S
O234 C233 1.315 . S
O235 Cd225 2.240 . S
O235 C233 1.279 1_545 S
O236 Cd226 2.297 . S
O236 C231 1.247 . S
O237 Cd226 2.439 . S
O237 C231 1.208 . S
O238 Cd239 2.223 . S
O238 C246 1.315 . S
Cd239 O238 2.223 . S
Cd239 O242 2.297 . S
Cd239 O243 2.439 . S
Cd239 O249 2.240 . S
Cd240 O241 2.240 . S
Cd240 O248 2.223 . S
Cd240 O250 2.297 . S
Cd240 O251 2.439 . S
O241 Cd240 2.240 . S
O241 C246 1.279 . S
O242 Cd239 2.297 . S
O242 C244 1.247 . S
O243 Cd239 2.439 . S
O243 C244 1.208 . S
C244 O242 1.247 . S
C244 O243 1.208 . S
C245 O250 1.247 . S
C245 O251 1.208 . S
C246 O238 1.315 . S
C246 O241 1.279 . S
C247 O248 1.315 . S
C247 O249 1.279 . S
O248 Cd240 2.223 . S
O248 C247 1.315 . S
O249 Cd239 2.240 . S
O249 C247 1.279 . S
O250 Cd240 2.297 . S
O250 C245 1.247 . S
O251 Cd240 2.439 . S
O251 C245 1.208 . S
O252 Cd253 2.223 . S
O252 C260 1.315 . S
Cd253 O252 2.223 . S
Cd253 O256 2.297 . S
Cd253 O257 2.439 . S
Cd253 O263 2.240 . S
Cd254 O255 2.240 . S
Cd254 O262 2.223 . S
Cd254 O264 2.297 . S
Cd254 O265 2.439 . S
O255 Cd254 2.240 . S
O255 C260 1.279 . S
O256 Cd253 2.297 . S
O256 C258 1.247 . S
O257 Cd253 2.439 . S
O257 C258 1.208 . S
C258 O256 1.247 . S
C258 O257 1.208 . S
C259 O264 1.247 . S
C259 O265 1.208 . S
C260 O252 1.315 . S
C260 O255 1.279 . S
C261 O262 1.315 . S
C261 O263 1.279 . S
O262 Cd254 2.223 . S
O262 C261 1.315 . S
O263 Cd253 2.240 . S
O263 C261 1.279 . S
O264 Cd254 2.297 . S
O264 C259 1.247 . S
O265 Cd254 2.439 . S
O265 C259 1.208 . S
O266 Cd267 2.223 . S
O266 C274 1.315 . S
Cd267 O266 2.223 . S
Cd267 O270 2.297 1_545 S
Cd267 O271 2.439 1_545 S
Cd267 O277 2.240 . S
Cd268 O269 2.240 1_545 S
Cd268 O276 2.223 . S
Cd268 O278 2.297 . S
Cd268 O279 2.439 . S
O269 Cd268 2.240 1_565 S
O269 C274 1.279 1_565 S
O270 Cd267 2.297 1_565 S
O270 C272 1.247 . S
O271 Cd267 2.439 1_565 S
O271 C272 1.208 . S
C272 O270 1.247 . S
C272 O271 1.208 . S
C273 O278 1.247 . S
C273 O279 1.208 . S
C274 O266 1.315 . S
C274 O269 1.279 1_545 S
C275 O276 1.315 . S
C275 O277 1.279 . S
O276 Cd268 2.223 . S
O276 C275 1.315 . S
O277 Cd267 2.240 . S
O277 C275 1.279 . S
O278 Cd268 2.297 . S
O278 C273 1.247 . S
O279 Cd268 2.439 . S
O279 C273 1.208 . S
O280 Cd281 2.223 . S
O280 C288 1.315 . S
Cd281 O280 2.223 . S
Cd281 O284 2.297 . S
Cd281 O285 2.455 . S
Cd281 O291 2.240 1_554 S
Cd282 O283 2.240 1_556 S
Cd282 O290 2.223 1_556 S
Cd282 O292 2.297 . S
Cd282 O293 2.439 . S
O283 Cd282 2.240 1_554 S
O283 C288 1.279 . S
O284 Cd281 2.297 . S
O284 C286 1.247 . S
O285 Cd281 2.455 . S
O285 C286 1.230 . S
C286 O284 1.247 . S
C286 O285 1.230 . S
C287 O292 1.247 . S
C287 O293 1.208 . S
C288 O280 1.315 . S
C288 O283 1.279 . S
C289 O290 1.315 . S
C289 O291 1.279 1_554 S
O290 Cd282 2.223 1_554 S
O290 C289 1.315 . S
O291 Cd281 2.240 1_556 S
O291 C289 1.279 1_556 S
O292 Cd282 2.297 . S
O292 C287 1.247 . S
O293 Cd282 2.439 . S
O293 C287 1.208 . S
O294 Cd295 2.223 . S
O294 C302 1.315 . S
Cd295 O294 2.223 . S
Cd295 O298 2.297 . S
Cd295 O299 2.439 . S
Cd295 O305 2.240 . S
Cd296 O297 2.240 . S
Cd296 O304 2.223 . S
Cd296 O306 2.297 . S
Cd296 O307 2.439 . S
O297 Cd296 2.240 . S
O297 C302 1.279 . S
O298 Cd295 2.297 . S
O298 C300 1.247 . S
O299 Cd295 2.439 . S
O299 C300 1.208 . S
C300 O298 1.247 . S
C300 O299 1.208 . S
C301 O306 1.247 . S
C301 O307 1.208 . S
C302 O294 1.315 . S
C302 O297 1.279 . S
C303 O304 1.315 . S
C303 O305 1.279 . S
O304 Cd296 2.223 . S
O304 C303 1.315 . S
O305 Cd295 2.240 . S
O305 C303 1.279 . S
O306 Cd296 2.297 . S
O306 C301 1.247 . S
O307 Cd296 2.439 . S
O307 C301 1.208 . S
O308 Cd309 2.223 . S
O308 C316 1.315 . S
Cd309 O308 2.223 . S
Cd309 O312 2.297 . S
Cd309 O313 2.439 . S
Cd309 O319 2.240 . S
Cd310 O311 2.240 . S
Cd310 O318 2.223 . S
Cd310 O320 2.297 . S
Cd310 O321 2.439 . S
O311 Cd310 2.240 . S
O311 C316 1.279 . S
O312 Cd309 2.297 . S
O312 C314 1.247 . S
O313 Cd309 2.439 . S
O313 C314 1.208 . S
C314 O312 1.247 . S
C314 O313 1.208 . S
C315 O320 1.247 . S
C315 O321 1.208 . S
C316 O308 1.315 . S
C316 O311 1.279 . S
C317 O318 1.315 . S
C317 O319 1.279 . S
O318 Cd310 2.223 . S
O318 C317 1.315 . S
O319 Cd309 2.240 . S
O319 C317 1.279 . S
O320 Cd310 2.297 . S
O320 C315 1.247 . S
O321 Cd310 2.439 . S
O321 C315 1.208 . S
O322 Cd323 2.223 . S
O322 C330 1.315 . S
Cd323 O322 2.223 . S
Cd323 O326 2.297 . S
Cd323 O327 2.439 . S
Cd323 O333 2.240 . S
Cd324 O325 2.240 . S
Cd324 O332 2.223 . S
Cd324 O334 2.297 . S
Cd324 O335 2.439 . S
O325 Cd324 2.240 . S
O325 C330 1.279 . S
O326 Cd323 2.297 . S
O326 C328 1.247 . S
O327 Cd323 2.439 . S
O327 C328 1.208 . S
C328 O326 1.247 . S
C328 O327 1.208 . S
C329 O334 1.247 . S
C329 O335 1.208 . S
C330 O322 1.315 . S
C330 O325 1.279 . S
C331 O332 1.315 . S
C331 O333 1.279 . S
O332 Cd324 2.223 . S
O332 C331 1.315 . S
O333 Cd323 2.240 . S
O333 C331 1.279 . S
O334 Cd324 2.297 . S
O334 C329 1.247 . S
O335 Cd324 2.439 . S
O335 C329 1.208 . S
Tb336 O339 2.453 . S
Tb336 O340 2.596 . S
Tb336 O341 2.374 1_554 S
Tb336 O349 2.343 1_455 S
Tb336 O351 2.353 . S
Tb336 O353 2.427 . S
Tb336 O354 2.513 1_554 S
C337 O341 1.251 . S
C337 O343 1.263 . S
Tb338 O340 2.343 1_665 S
Tb338 O343 2.353 1_664 S
Tb338 O346 2.427 1_655 S
Tb338 O347 2.522 . S
Tb338 O348 2.453 1_564 S
Tb338 O349 2.596 1_565 S
Tb338 O350 2.374 1_565 S
O339 Tb336 2.453 . S
O339 C355 1.245 . S
O340 Tb336 2.596 . S
O340 Tb338 2.343 1_445 S
O340 C355 1.259 . S
O341 Tb336 2.374 1_556 S
O341 C337 1.251 . S
C342 O346 1.275 . S
C342 O347 1.236 1_455 S
O343 C337 1.263 . S
O343 Tb338 2.353 1_446 S
C344 O348 1.245 1_554 S
C344 O349 1.259 . S
C345 O350 1.250 . S
C345 O351 1.263 1_655 S
O346 Tb338 2.427 1_455 S
O346 C342 1.275 . S
O347 Tb338 2.522 . S
O347 C342 1.236 1_655 S
O348 Tb338 2.453 1_546 S
O348 C344 1.245 1_556 S
O349 Tb336 2.343 1_655 S
O349 Tb338 2.596 1_545 S
O349 C344 1.259 . S
O350 Tb338 2.374 1_545 S
O350 C345 1.250 . S
O351 Tb336 2.353 . S
O351 C345 1.263 1_455 S
C352 O353 1.273 . S
C352 O354 1.247 1_554 S
O353 Tb336 2.427 . S
O353 C352 1.273 . S
O354 Tb336 2.513 1_556 S
O354 C352 1.247 1_556 S
C355 O339 1.245 . S
C355 O340 1.259 . S
Tb356 O359 2.453 . S
Tb356 O360 2.596 . S
Tb356 O361 2.374 . S
Tb356 O369 2.343 . S
Tb356 O371 2.353 . S
Tb356 O373 2.427 . S
Tb356 O374 2.513 . S
C357 O361 1.251 . S
C357 O363 1.263 . S
Tb358 O360 2.343 . S
Tb358 O363 2.353 . S
Tb358 O366 2.427 . S
Tb358 O367 2.513 . S
Tb358 O368 2.453 . S
Tb358 O369 2.596 . S
Tb358 O370 2.374 . S
O359 Tb356 2.453 . S
O359 C375 1.245 . S
O360 Tb356 2.596 . S
O360 Tb358 2.343 . S
O360 C375 1.259 . S
O361 Tb356 2.374 . S
O361 C357 1.251 . S
C362 O366 1.275 . S
C362 O367 1.246 . S
O363 C357 1.263 . S
O363 Tb358 2.353 . S
C364 O368 1.245 . S
C364 O369 1.259 . S
C365 O370 1.250 . S
C365 O371 1.263 . S
O366 Tb358 2.427 . S
O366 C362 1.275 . S
O367 Tb358 2.513 . S
O367 C362 1.246 . S
O368 Tb358 2.453 . S
O368 C364 1.245 . S
O369 Tb356 2.343 . S
O369 Tb358 2.596 . S
O369 C364 1.259 . S
O370 Tb358 2.374 . S
O370 C365 1.250 . S
O371 Tb356 2.353 . S
O371 C365 1.263 . S
C372 O373 1.275 . S
C372 O374 1.246 . S
O373 Tb356 2.427 . S
O373 C372 1.275 . S
O374 Tb356 2.513 . S
O374 C372 1.246 . S
C375 O359 1.245 . S
C375 O360 1.259 . S
Tb376 O379 2.453 . S
Tb376 O380 2.596 . S
Tb376 O381 2.374 . S
Tb376 O389 2.336 1_545 S
Tb376 O391 2.353 . S
Tb376 O393 2.427 . S
Tb376 O394 2.513 . S
C377 O381 1.251 . S
C377 O383 1.263 . S
Tb378 O380 2.343 . S
Tb378 O383 2.353 . S
Tb378 O386 2.427 . S
Tb378 O387 2.513 . S
Tb378 O388 2.453 1_545 S
Tb378 O389 2.591 1_545 S
Tb378 O390 2.374 . S
O379 Tb376 2.453 . S
O379 C395 1.245 . S
O380 Tb376 2.596 . S
O380 Tb378 2.343 . S
O380 C395 1.259 . S
O381 Tb376 2.374 . S
O381 C377 1.251 . S
C382 O386 1.275 . S
C382 O387 1.246 . S
O383 C377 1.263 . S
O383 Tb378 2.353 . S
C384 O388 1.245 . S
C384 O389 1.268 . S
C385 O390 1.250 . S
C385 O391 1.263 . S
O386 Tb378 2.427 . S
O386 C382 1.275 . S
O387 Tb378 2.513 . S
O387 C382 1.246 . S
O388 Tb378 2.453 1_565 S
O388 C384 1.245 . S
O389 Tb376 2.336 1_565 S
O389 Tb378 2.591 1_565 S
O389 C384 1.268 . S
O390 Tb378 2.374 . S
O390 C385 1.250 . S
O391 Tb376 2.353 . S
O391 C385 1.263 . S
C392 O393 1.283 . S
C392 O394 1.246 . S
O393 Tb376 2.427 . S
O393 C392 1.283 . S
O394 Tb376 2.513 . S
O394 C392 1.246 . S
C395 O379 1.245 . S
C395 O380 1.259 . S
Tb396 O399 2.453 . S
Tb396 O400 2.596 . S
Tb396 O401 2.374 . S
Tb396 O409 2.343 . S
Tb396 O411 2.353 . S
Tb396 O413 2.427 . S
Tb396 O414 2.513 . S
C397 O401 1.251 . S
C397 O403 1.263 . S
Tb398 O400 2.343 . S
Tb398 O403 2.353 . S
Tb398 O406 2.427 . S
Tb398 O407 2.513 . S
Tb398 O408 2.453 . S
Tb398 O409 2.596 . S
Tb398 O410 2.374 . S
O399 Tb396 2.453 . S
O399 C415 1.245 . S
O400 Tb396 2.596 . S
O400 Tb398 2.343 . S
O400 C415 1.259 . S
O401 Tb396 2.374 . S
O401 C397 1.251 . S
C402 O406 1.275 . S
C402 O407 1.246 . S
O403 C397 1.263 . S
O403 Tb398 2.353 . S
C404 O408 1.245 . S
C404 O409 1.259 . S
C405 O410 1.250 . S
C405 O411 1.263 . S
O406 Tb398 2.427 . S
O406 C402 1.275 . S
O407 Tb398 2.513 . S
O407 C402 1.246 . S
O408 Tb398 2.453 . S
O408 C404 1.245 . S
O409 Tb396 2.343 . S
O409 Tb398 2.596 . S
O409 C404 1.259 . S
O410 Tb398 2.374 . S
O410 C405 1.250 . S
O411 Tb396 2.353 . S
O411 C405 1.263 . S
C412 O413 1.275 . S
C412 O414 1.246 . S
O413 Tb396 2.427 . S
O413 C412 1.275 . S
O414 Tb396 2.513 . S
O414 C412 1.246 . S
C415 O399 1.245 . S
C415 O400 1.259 . S
Tb416 O419 2.453 1_545 S
Tb416 O420 2.596 . S
Tb416 O421 2.374 1_455 S
Tb416 O429 2.343 . S
Tb416 O431 2.353 . S
Tb416 O433 2.427 . S
Tb416 O434 2.513 1_455 S
C417 O421 1.251 . S
C417 O423 1.263 . S
Tb418 O420 2.343 . S
Tb418 O423 2.353 1_455 S
Tb418 O426 2.427 . S
Tb418 O427 2.513 . S
Tb418 O428 2.453 . S
Tb418 O429 2.596 . S
Tb418 O430 2.374 . S
O419 Tb416 2.453 1_565 S
O419 C435 1.245 . S
O420 Tb416 2.596 . S
O420 Tb418 2.343 . S
O420 C435 1.259 1_545 S
O421 Tb416 2.374 1_655 S
O421 C417 1.251 . S
C422 O426 1.275 . S
C422 O427 1.246 . S
O423 C417 1.263 . S
O423 Tb418 2.353 1_655 S
C424 O428 1.245 . S
C424 O429 1.259 . S
C425 O430 1.250 . S
C425 O431 1.263 . S
O426 Tb418 2.427 . S
O426 C422 1.275 . S
O427 Tb418 2.513 . S
O427 C422 1.246 . S
O428 Tb418 2.453 . S
O428 C424 1.245 . S
O429 Tb416 2.343 . S
O429 Tb418 2.596 . S
O429 C424 1.259 . S
O430 Tb418 2.374 . S
O430 C425 1.250 . S
O431 Tb416 2.353 . S
O431 C425 1.263 . S
C432 O433 1.275 1_655 S
C432 O434 1.246 . S
O433 Tb416 2.427 . S
O433 C432 1.275 1_455 S
O434 Tb416 2.513 1_655 S
O434 C432 1.246 . S
C435 O419 1.245 . S
C435 O420 1.259 1_565 S
Tb436 O439 2.453 . S
Tb436 O440 2.596 . S
Tb436 O441 2.374 . S
Tb436 O449 2.343 . S
Tb436 O451 2.353 . S
Tb436 O453 2.427 . S
Tb436 O454 2.513 . S
C437 O441 1.251 . S
C437 O443 1.263 . S
Tb438 O440 2.343 . S
Tb438 O443 2.353 . S
Tb438 O446 2.427 . S
Tb438 O447 2.513 . S
Tb438 O448 2.453 . S
Tb438 O449 2.596 . S
Tb438 O450 2.374 . S
O439 Tb436 2.453 . S
O439 C455 1.245 . S
O440 Tb436 2.596 . S
O440 Tb438 2.343 . S
O440 C455 1.259 . S
O441 Tb436 2.374 . S
O441 C437 1.251 . S
C442 O446 1.275 . S
C442 O447 1.246 . S
O443 C437 1.263 . S
O443 Tb438 2.353 . S
C444 O448 1.245 . S
C444 O449 1.259 . S
C445 O450 1.250 . S
C445 O451 1.263 . S
O446 Tb438 2.427 . S
O446 C442 1.275 . S
O447 Tb438 2.513 . S
O447 C442 1.246 . S
O448 Tb438 2.453 . S
O448 C444 1.245 . S
O449 Tb436 2.343 . S
O449 Tb438 2.596 . S
O449 C444 1.259 . S
O450 Tb438 2.374 . S
O450 C445 1.250 . S
O451 Tb436 2.353 . S
O451 C445 1.263 . S
C452 O453 1.275 . S
C452 O454 1.246 . S
O453 Tb436 2.427 . S
O453 C452 1.275 . S
O454 Tb436 2.513 . S
O454 C452 1.246 . S
C455 O439 1.245 . S
C455 O440 1.259 . S
Tb456 O459 2.453 . S
Tb456 O460 2.596 . S
Tb456 O461 2.374 1_545 S
Tb456 O469 2.343 1_556 S
Tb456 O471 2.353 1_556 S
Tb456 O473 2.427 1_556 S
Tb456 O474 2.513 1_546 S
C457 O461 1.251 1_554 S
C457 O463 1.263 . S
Tb458 O460 2.343 1_554 S
Tb458 O463 2.353 1_545 S
Tb458 O466 2.427 . S
Tb458 O467 2.513 . S
Tb458 O468 2.453 . S
Tb458 O469 2.596 . S
Tb458 O470 2.374 . S
O459 Tb456 2.453 . S
O459 C475 1.245 . S
O460 Tb456 2.596 . S
O460 Tb458 2.343 1_556 S
O460 C475 1.259 . S
O461 Tb456 2.374 1_565 S
O461 C457 1.251 1_556 S
C462 O466 1.275 . S
C462 O467 1.246 . S
O463 C457 1.263 . S
O463 Tb458 2.353 1_565 S
C464 O468 1.245 . S
C464 O469 1.259 . S
C465 O470 1.250 . S
C465 O471 1.263 . S
O466 Tb458 2.427 . S
O466 C462 1.275 . S
O467 Tb458 2.513 . S
O467 C462 1.246 . S
O468 Tb458 2.453 . S
O468 C464 1.245 . S
O469 Tb456 2.343 1_554 S
O469 Tb458 2.596 . S
O469 C464 1.259 . S
O470 Tb458 2.374 . S
O470 C465 1.250 . S
O471 Tb456 2.353 1_554 S
O471 C465 1.263 . S
C472 O473 1.275 1_565 S
C472 O474 1.246 . S
O473 Tb456 2.427 1_554 S
O473 C472 1.275 1_545 S
O474 Tb456 2.513 1_564 S
O474 C472 1.246 . S
C475 O459 1.245 . S
C475 O460 1.259 . S
Tb476 O479 2.453 . S
Tb476 O480 2.596 . S
Tb476 O481 2.374 . S
Tb476 O489 2.343 . S
Tb476 O491 2.353 . S
Tb476 O493 2.427 . S
Tb476 O494 2.513 . S
C477 O481 1.251 . S
C477 O483 1.263 . S
Tb478 O480 2.343 . S
Tb478 O483 2.353 . S
Tb478 O486 2.427 . S
Tb478 O487 2.513 . S
Tb478 O488 2.453 . S
Tb478 O489 2.596 . S
Tb478 O490 2.374 . S
O479 Tb476 2.453 . S
O479 C495 1.245 . S
O480 Tb476 2.596 . S
O480 Tb478 2.343 . S
O480 C495 1.259 . S
O481 Tb476 2.374 . S
O481 C477 1.251 . S
C482 O486 1.275 . S
C482 O487 1.246 . S
O483 C477 1.263 . S
O483 Tb478 2.353 . S
C484 O488 1.245 . S
C484 O489 1.259 . S
C485 O490 1.250 . S
C485 O491 1.263 . S
O486 Tb478 2.427 . S
O486 C482 1.275 . S
O487 Tb478 2.513 . S
O487 C482 1.246 . S
O488 Tb478 2.453 . S
O488 C484 1.245 . S
O489 Tb476 2.343 . S
O489 Tb478 2.596 . S
O489 C484 1.259 . S
O490 Tb478 2.374 . S
O490 C485 1.250 . S
O491 Tb476 2.353 . S
O491 C485 1.263 . S
C492 O493 1.275 . S
C492 O494 1.246 . S
O493 Tb476 2.427 . S
O493 C492 1.275 . S
O494 Tb476 2.513 . S
O494 C492 1.246 . S
C495 O479 1.245 . S
C495 O480 1.259 . S
Tb496 O499 2.453 1_556 S
Tb496 O500 2.596 1_556 S
Tb496 O501 2.374 1_556 S
Tb496 O509 2.343 1_556 S
Tb496 O511 2.353 . S
Tb496 O513 2.427 . S
Tb496 O514 2.513 . S
C497 O501 1.251 . S
C497 O503 1.263 . S
Tb498 O500 2.343 . S
Tb498 O503 2.353 . S
Tb498 O506 2.427 . S
Tb498 O507 2.513 . S
Tb498 O508 2.453 . S
Tb498 O509 2.596 . S
Tb498 O510 2.374 . S
O499 Tb496 2.453 1_554 S
O499 C515 1.245 . S
O500 Tb496 2.596 1_554 S
O500 Tb498 2.343 . S
O500 C515 1.259 . S
O501 Tb496 2.374 1_554 S
O501 C497 1.251 . S
C502 O506 1.275 . S
C502 O507 1.246 . S
O503 C497 1.263 . S
O503 Tb498 2.353 . S
C504 O508 1.245 . S
C504 O509 1.259 . S
C505 O510 1.250 . S
C505 O511 1.263 1_554 S
O506 Tb498 2.427 . S
O506 C502 1.275 . S
O507 Tb498 2.513 . S
O507 C502 1.246 . S
O508 Tb498 2.453 . S
O508 C504 1.245 . S
O509 Tb496 2.343 1_554 S
O509 Tb498 2.596 . S
O509 C504 1.259 . S
O510 Tb498 2.374 . S
O510 C505 1.250 . S
O511 Tb496 2.353 . S
O511 C505 1.263 1_556 S
C512 O513 1.275 . S
C512 O514 1.246 . S
O513 Tb496 2.427 . S
O513 C512 1.275 . S
O514 Tb496 2.513 . S
O514 C512 1.246 . S
C515 O499 1.245 . S
C515 O500 1.259 . S
Tb516 O519 2.453 . S
Tb516 O520 2.596 . S
Tb516 O521 2.374 . S
Tb516 O529 2.343 . S
Tb516 O531 2.353 . S
Tb516 O533 2.427 . S
Tb516 O534 2.513 . S
C517 O521 1.251 . S
C517 O523 1.263 . S
Tb518 O520 2.343 . S
Tb518 O523 2.353 . S
Tb518 O526 2.427 . S
Tb518 O527 2.513 . S
Tb518 O528 2.453 . S
Tb518 O529 2.596 . S
Tb518 O530 2.374 . S
O519 Tb516 2.453 . S
O519 C535 1.245 . S
O520 Tb516 2.596 . S
O520 Tb518 2.343 . S
O520 C535 1.259 . S
O521 Tb516 2.374 . S
O521 C517 1.251 . S
C522 O526 1.275 . S
C522 O527 1.246 . S
O523 C517 1.263 . S
O523 Tb518 2.353 . S
C524 O528 1.245 . S
C524 O529 1.259 . S
C525 O530 1.250 . S
C525 O531 1.263 . S
O526 Tb518 2.427 . S
O526 C522 1.275 . S
O527 Tb518 2.513 . S
O527 C522 1.246 . S
O528 Tb518 2.453 . S
O528 C524 1.245 . S
O529 Tb516 2.343 . S
O529 Tb518 2.596 . S
O529 C524 1.259 . S
O530 Tb518 2.374 . S
O530 C525 1.250 . S
O531 Tb516 2.353 . S
O531 C525 1.263 . S
C532 O533 1.275 . S
C532 O534 1.246 . S
O533 Tb516 2.427 . S
O533 C532 1.275 . S
O534 Tb516 2.513 . S
O534 C532 1.246 . S
C535 O519 1.245 . S
C535 O520 1.259 . S
Tb536 O539 2.453 . S
Tb536 O540 2.596 1_655 S
Tb536 O541 2.374 . S
Tb536 O549 2.343 . S
Tb536 O551 2.353 . S
Tb536 O553 2.427 . S
Tb536 O554 2.513 . S
C537 O541 1.251 1_455 S
C537 O543 1.263 . S
Tb538 O540 2.343 . S
Tb538 O543 2.353 . S
Tb538 O546 2.427 . S
Tb538 O547 2.513 . S
Tb538 O548 2.453 . S
Tb538 O549 2.596 1_455 S
Tb538 O550 2.374 . S
O539 Tb536 2.453 . S
O539 C555 1.245 1_655 S
O540 Tb536 2.596 1_455 S
O540 Tb538 2.343 . S
O540 C555 1.259 . S
O541 Tb536 2.374 . S
O541 C537 1.251 1_655 S
C542 O546 1.275 . S
C542 O547 1.246 . S
O543 C537 1.263 . S
O543 Tb538 2.353 . S
C544 O548 1.245 1_655 S
C544 O549 1.259 . S
C545 O550 1.250 . S
C545 O551 1.263 1_455 S
O546 Tb538 2.427 . S
O546 C542 1.275 . S
O547 Tb538 2.513 . S
O547 C542 1.246 . S
O548 Tb538 2.453 . S
O548 C544 1.245 1_455 S
O549 Tb536 2.343 . S
O549 Tb538 2.596 1_655 S
O549 C544 1.259 . S
O550 Tb538 2.374 . S
O550 C545 1.250 . S
O551 Tb536 2.353 . S
O551 C545 1.263 1_655 S
C552 O553 1.275 . S
C552 O554 1.246 . S
O553 Tb536 2.427 . S
O553 C552 1.275 . S
O554 Tb536 2.513 . S
O554 C552 1.246 . S
C555 O539 1.245 1_455 S
C555 O540 1.259 . S
Tb556 O559 2.453 . S
Tb556 O560 2.596 . S
Tb556 O561 2.374 . S
Tb556 O569 2.343 . S
Tb556 O571 2.353 . S
Tb556 O573 2.427 . S
Tb556 O574 2.513 . S
C557 O561 1.251 . S
C557 O563 1.263 . S
Tb558 O560 2.343 . S
Tb558 O563 2.353 . S
Tb558 O566 2.427 . S
Tb558 O567 2.513 . S
Tb558 O568 2.453 . S
Tb558 O569 2.596 . S
Tb558 O570 2.374 . S
O559 Tb556 2.453 . S
O559 C575 1.245 . S
O560 Tb556 2.596 . S
O560 Tb558 2.343 . S
O560 C575 1.259 . S
O561 Tb556 2.374 . S
O561 C557 1.251 . S
C562 O566 1.275 . S
C562 O567 1.246 . S
O563 C557 1.263 . S
O563 Tb558 2.353 . S
C564 O568 1.245 . S
C564 O569 1.259 . S
C565 O570 1.250 . S
C565 O571 1.263 . S
O566 Tb558 2.427 . S
O566 C562 1.275 . S
O567 Tb558 2.513 . S
O567 C562 1.246 . S
O568 Tb558 2.453 . S
O568 C564 1.245 . S
O569 Tb556 2.343 . S
O569 Tb558 2.596 . S
O569 C564 1.259 . S
O570 Tb558 2.374 . S
O570 C565 1.250 . S
O571 Tb556 2.353 . S
O571 C565 1.263 . S
C572 O573 1.275 . S
C572 O574 1.246 . S
O573 Tb556 2.427 . S
O573 C572 1.275 . S
O574 Tb556 2.513 . S
O574 C572 1.246 . S
C575 O559 1.245 . S
C575 O560 1.259 . S
Tb576 O579 2.453 . S
Tb576 O580 2.596 . S
Tb576 O581 2.374 . S
Tb576 O589 2.343 . S
Tb576 O591 2.353 . S
Tb576 O593 2.427 . S
Tb576 O594 2.513 . S
C577 O581 1.251 . S
C577 O583 1.263 . S
Tb578 O580 2.343 . S
Tb578 O583 2.353 . S
Tb578 O586 2.427 . S
Tb578 O587 2.513 . S
Tb578 O588 2.453 . S
Tb578 O589 2.596 . S
Tb578 O590 2.374 . S
O579 Tb576 2.453 . S
O579 C595 1.245 . S
O580 Tb576 2.596 . S
O580 Tb578 2.343 . S
O580 C595 1.259 . S
O581 Tb576 2.374 . S
O581 C577 1.251 . S
C582 O586 1.275 . S
C582 O587 1.246 . S
O583 C577 1.263 . S
O583 Tb578 2.353 . S
C584 O588 1.245 . S
C584 O589 1.259 . S
C585 O590 1.250 . S
C585 O591 1.263 . S
O586 Tb578 2.427 . S
O586 C582 1.275 . S
O587 Tb578 2.513 . S
O587 C582 1.246 . S
O588 Tb578 2.453 . S
O588 C584 1.245 . S
O589 Tb576 2.343 . S
O589 Tb578 2.596 . S
O589 C584 1.259 . S
O590 Tb578 2.374 . S
O590 C585 1.250 . S
O591 Tb576 2.353 . S
O591 C585 1.263 . S
C592 O593 1.275 . S
C592 O594 1.246 . S
O593 Tb576 2.427 . S
O593 C592 1.275 . S
O594 Tb576 2.513 . S
O594 C592 1.246 . S
C595 O579 1.245 . S
C595 O580 1.259 . S
Tb596 O599 2.453 . S
Tb596 O600 2.596 . S
Tb596 O601 2.374 . S
Tb596 O609 2.343 . S
Tb596 O611 2.353 . S
Tb596 O613 2.427 . S
Tb596 O614 2.513 . S
C597 O601 1.251 . S
C597 O603 1.263 . S
Tb598 O600 2.343 . S
Tb598 O603 2.353 . S
Tb598 O606 2.427 . S
Tb598 O607 2.513 . S
Tb598 O608 2.453 . S
Tb598 O609 2.596 . S
Tb598 O610 2.374 . S
O599 Tb596 2.453 . S
O599 C615 1.245 . S
O600 Tb596 2.596 . S
O600 Tb598 2.343 . S
O600 C615 1.259 . S
O601 Tb596 2.374 . S
O601 C597 1.251 . S
C602 O606 1.275 . S
C602 O607 1.246 . S
O603 C597 1.263 . S
O603 Tb598 2.353 . S
C604 O608 1.245 . S
C604 O609 1.259 . S
C605 O610 1.250 . S
C605 O611 1.263 . S
O606 Tb598 2.427 . S
O606 C602 1.275 . S
O607 Tb598 2.513 . S
O607 C602 1.246 . S
O608 Tb598 2.453 . S
O608 C604 1.245 . S
O609 Tb596 2.343 . S
O609 Tb598 2.596 . S
O609 C604 1.259 . S
O610 Tb598 2.374 . S
O610 C605 1.250 . S
O611 Tb596 2.353 . S
O611 C605 1.263 . S
C612 O613 1.275 . S
C612 O614 1.246 . S
O613 Tb596 2.427 . S
O613 C612 1.275 . S
O614 Tb596 2.513 . S
O614 C612 1.246 . S
C615 O599 1.245 . S
C615 O600 1.259 . S
Tb616 O619 2.453 . S
Tb616 O620 2.596 . S
Tb616 O621 2.374 . S
Tb616 O629 2.343 . S
Tb616 O631 2.353 . S
Tb616 O633 2.427 . S
Tb616 O634 2.513 . S
C617 O621 1.251 . S
C617 O623 1.263 . S
Tb618 O620 2.343 . S
Tb618 O623 2.353 . S
Tb618 O626 2.427 . S
Tb618 O627 2.513 . S
Tb618 O628 2.453 . S
Tb618 O629 2.596 . S
Tb618 O630 2.374 . S
O619 Tb616 2.453 . S
O619 C635 1.245 . S
O620 Tb616 2.596 . S
O620 Tb618 2.343 . S
O620 C635 1.259 . S
O621 Tb616 2.374 . S
O621 C617 1.251 . S
C622 O626 1.275 . S
C622 O627 1.246 . S
O623 C617 1.263 . S
O623 Tb618 2.353 . S
C624 O628 1.245 . S
C624 O629 1.259 . S
C625 O630 1.250 . S
C625 O631 1.263 . S
O626 Tb618 2.427 . S
O626 C622 1.275 . S
O627 Tb618 2.513 . S
O627 C622 1.246 . S
O628 Tb618 2.453 . S
O628 C624 1.245 . S
O629 Tb616 2.343 . S
O629 Tb618 2.596 . S
O629 C624 1.259 . S
O630 Tb618 2.374 . S
O630 C625 1.250 . S
O631 Tb616 2.353 . S
O631 C625 1.263 . S
C632 O633 1.275 . S
C632 O634 1.246 . S
O633 Tb616 2.427 . S
O633 C632 1.275 . S
O634 Tb616 2.513 . S
O634 C632 1.246 . S
C635 O619 1.245 . S
C635 O620 1.259 . S
Tb636 O639 2.453 . S
Tb636 O640 2.596 . S
Tb636 O641 2.374 . S
Tb636 O649 2.343 . S
Tb636 O651 2.353 1_554 S
Tb636 O653 2.427 1_554 S
Tb636 O654 2.513 . S
C637 O641 1.251 . S
C637 O643 1.263 1_455 S
Tb638 O640 2.343 1_655 S
Tb638 O643 2.353 . S
Tb638 O646 2.427 . S
Tb638 O647 2.513 . S
Tb638 O648 2.453 . S
Tb638 O649 2.596 1_655 S
Tb638 O650 2.374 1_554 S
O639 Tb636 2.453 . S
O639 C655 1.245 . S
O640 Tb636 2.596 . S
O640 Tb638 2.343 1_455 S
O640 C655 1.259 . S
O641 Tb636 2.374 . S
O641 C637 1.251 . S
C642 O646 1.275 . S
C642 O647 1.246 . S
O643 C637 1.263 1_655 S
O643 Tb638 2.353 . S
C644 O648 1.245 1_455 S
C644 O649 1.259 . S
C645 O650 1.250 1_455 S
C645 O651 1.263 . S
O646 Tb638 2.427 . S
O646 C642 1.275 . S
O647 Tb638 2.513 . S
O647 C642 1.246 . S
O648 Tb638 2.453 . S
O648 C644 1.245 1_655 S
O649 Tb636 2.343 . S
O649 Tb638 2.596 1_455 S
O649 C644 1.259 . S
O650 Tb638 2.374 1_556 S
O650 C645 1.250 1_655 S
O651 Tb636 2.353 1_556 S
O651 C645 1.263 . S
C652 O653 1.275 1_554 S
C652 O654 1.246 . S
O653 Tb636 2.427 1_556 S
O653 C652 1.275 1_556 S
O654 Tb636 2.513 . S
O654 C652 1.246 . S
C655 O639 1.245 . S
C655 O640 1.259 . S
C656 C657 1.363 . S
C656 C662 1.379 . S
C656 N664 1.356 . S
C657 C656 1.363 . S
C657 C663 1.363 1_455 S
C658 C659 1.363 1_655 S
C658 C663 1.379 . S
C658 N665 1.356 . S
C659 C658 1.363 1_455 S
C659 C662 1.363 . S
N660 C662 1.356 . S
N660 H672 0.984 . S
N660 H673 0.985 1_556 S
N661 C663 1.356 . S
N661 H666 0.984 . S
N661 H667 0.985 . S
C662 C656 1.379 . S
C662 C659 1.363 . S
C662 N660 1.356 . S
C663 C657 1.363 1_655 S
C663 C658 1.379 . S
C663 N661 1.356 . S
N664 C656 1.356 . S
N664 H670 0.984 . S
N664 H671 0.984 . S
N665 C658 1.356 . S
N665 H668 0.984 . S
N665 H669 0.985 . S
H666 N661 0.984 . S
H667 N661 0.985 . S
H668 N665 0.984 . S
H669 N665 0.985 . S
H670 N664 0.984 . S
H671 N664 0.984 . S
H672 N660 0.984 . S
H673 N660 0.985 1_554 S
C674 C675 1.363 . S
C674 C680 1.379 . S
C674 N682 1.356 . S
C675 C674 1.363 . S
C675 C681 1.363 . S
C676 C677 1.363 . S
C676 C681 1.379 . S
C676 N683 1.356 . S
C677 C676 1.363 . S
C677 C680 1.363 . S
N678 C680 1.356 . S
N678 H690 0.984 . S
N678 H691 0.985 . S
N679 C681 1.356 . S
N679 H684 0.984 . S
N679 H685 0.985 . S
C680 C674 1.379 . S
C680 C677 1.363 . S
C680 N678 1.356 . S
C681 C675 1.363 . S
C681 C676 1.379 . S
C681 N679 1.356 . S
N682 C674 1.356 . S
N682 H688 0.984 . S
N682 H689 0.984 . S
N683 C676 1.356 . S
N683 H686 0.984 . S
N683 H687 0.985 . S
H684 N679 0.984 . S
H685 N679 0.985 . S
H686 N683 0.984 . S
H687 N683 0.985 . S
H688 N682 0.984 . S
H689 N682 0.984 . S
H690 N678 0.984 . S
H691 N678 0.985 . S
C692 C693 1.363 . S
C692 C698 1.379 . S
C692 N700 1.356 . S
C693 C692 1.363 . S
C693 C699 1.363 . S
C694 C695 1.363 . S
C694 C699 1.379 . S
C694 N701 1.356 . S
C695 C694 1.363 . S
C695 C698 1.363 . S
N696 C698 1.356 . S
N696 H708 0.984 . S
N696 H709 0.985 . S
N697 C699 1.356 . S
N697 H702 0.984 . S
N697 H703 0.985 . S
C698 C692 1.379 . S
C698 C695 1.363 . S
C698 N696 1.356 . S
C699 C693 1.363 . S
C699 C694 1.379 . S
C699 N697 1.356 . S
N700 C692 1.356 . S
N700 H706 0.984 . S
N700 H707 0.984 . S
N701 C694 1.356 . S
N701 H704 0.984 . S
N701 H705 0.985 . S
H702 N697 0.984 . S
H703 N697 0.985 . S
H704 N701 0.984 . S
H705 N701 0.985 . S
H706 N700 0.984 . S
H707 N700 0.984 . S
H708 N696 0.984 . S
H709 N696 0.985 . S
C710 C711 1.363 . S
C710 C716 1.379 . S
C710 N718 1.356 . S
C711 C710 1.363 . S
C711 C717 1.363 . S
C712 C713 1.363 . S
C712 C717 1.379 . S
C712 N719 1.356 . S
C713 C712 1.363 . S
C713 C716 1.363 . S
N714 C716 1.356 . S
N714 H726 0.984 . S
N714 H727 0.985 . S
N715 C717 1.356 . S
N715 H720 0.984 . S
N715 H721 0.985 . S
C716 C710 1.379 . S
C716 C713 1.363 . S
C716 N714 1.356 . S
C717 C711 1.363 . S
C717 C712 1.379 . S
C717 N715 1.356 . S
N718 C710 1.356 . S
N718 H724 0.984 . S
N718 H725 0.984 . S
N719 C712 1.356 . S
N719 H722 0.984 . S
N719 H723 0.985 . S
H720 N715 0.984 . S
H721 N715 0.985 . S
H722 N719 0.984 . S
H723 N719 0.985 . S
H724 N718 0.984 . S
H725 N718 0.984 . S
H726 N714 0.984 . S
H727 N714 0.985 . S
C728 C729 1.363 . S
C728 C734 1.379 . S
C728 N736 1.356 . S
C729 C728 1.363 . S
C729 C735 1.363 . S
C730 C731 1.363 . S
C730 C735 1.379 . S
C730 N737 1.356 . S
C731 C730 1.363 . S
C731 C734 1.363 . S
N732 C734 1.356 . S
N732 H744 0.984 . S
N732 H745 0.985 . S
N733 C735 1.356 . S
N733 H738 0.984 . S
N733 H739 0.985 . S
C734 C728 1.379 . S
C734 C731 1.363 . S
C734 N732 1.356 . S
C735 C729 1.363 . S
C735 C730 1.379 . S
C735 N733 1.356 . S
N736 C728 1.356 . S
N736 H742 0.984 . S
N736 H743 0.984 . S
N737 C730 1.356 . S
N737 H740 0.984 . S
N737 H741 0.985 . S
H738 N733 0.984 . S
H739 N733 0.985 . S
H740 N737 0.984 . S
H741 N737 0.985 . S
H742 N736 0.984 . S
H743 N736 0.984 . S
H744 N732 0.984 . S
H745 N732 0.985 . S
C746 C747 1.363 . S
C746 C752 1.379 . S
C746 N754 1.356 . S
C747 C746 1.363 . S
C747 C753 1.363 . S
C748 C749 1.363 . S
C748 C753 1.379 . S
C748 N755 1.356 . S
C749 C748 1.363 . S
C749 C752 1.363 . S
N750 C752 1.356 . S
N750 H762 0.984 . S
N750 H763 0.985 . S
N751 C753 1.356 . S
N751 H756 0.984 . S
N751 H757 0.985 . S
C752 C746 1.379 . S
C752 C749 1.363 . S
C752 N750 1.356 . S
C753 C747 1.363 . S
C753 C748 1.379 . S
C753 N751 1.356 . S
N754 C746 1.356 . S
N754 H760 0.984 . S
N754 H761 0.984 . S
N755 C748 1.356 . S
N755 H758 0.984 . S
N755 H759 0.985 . S
H756 N751 0.984 . S
H757 N751 0.985 . S
H758 N755 0.984 . S
H759 N755 0.985 . S
H760 N754 0.984 . S
H761 N754 0.984 . S
H762 N750 0.984 . S
H763 N750 0.985 . S
C764 C765 1.363 . S
C764 C770 1.379 . S
C764 N772 1.356 . S
C765 C764 1.363 . S
C765 C771 1.363 . S
C766 C767 1.363 . S
C766 C771 1.379 . S
C766 N773 1.356 . S
C767 C766 1.363 . S
C767 C770 1.363 . S
N768 C770 1.356 . S
N768 H780 0.984 . S
N768 H781 0.985 . S
N769 C771 1.356 . S
N769 H774 0.984 . S
N769 H775 0.985 . S
C770 C764 1.379 . S
C770 C767 1.363 . S
C770 N768 1.356 . S
C771 C765 1.363 . S
C771 C766 1.379 . S
C771 N769 1.356 . S
N772 C764 1.356 . S
N772 H778 0.984 . S
N772 H779 0.984 . S
N773 C766 1.356 . S
N773 H776 0.984 . S
N773 H777 0.985 . S
H774 N769 0.984 . S
H775 N769 0.985 . S
H776 N773 0.984 . S
H777 N773 0.985 . S
H778 N772 0.984 . S
H779 N772 0.984 . S
H780 N768 0.984 . S
H781 N768 0.985 . S
C782 C783 1.363 . S
C782 C788 1.379 . S
C782 N790 1.356 . S
C783 C782 1.363 . S
C783 C789 1.363 . S
C784 C785 1.363 . S
C784 C789 1.379 . S
C784 N791 1.356 . S
C785 C784 1.363 . S
C785 C788 1.363 . S
N786 C788 1.356 . S
N786 H798 0.984 . S
N786 H799 0.985 . S
N787 C789 1.356 . S
N787 H792 0.984 . S
N787 H793 0.985 . S
C788 C782 1.379 . S
C788 C785 1.363 . S
C788 N786 1.356 . S
C789 C783 1.363 . S
C789 C784 1.379 . S
C789 N787 1.356 . S
N790 C782 1.356 . S
N790 H796 0.984 . S
N790 H797 0.984 . S
N791 C784 1.356 . S
N791 H794 0.984 . S
N791 H795 0.985 . S
H792 N787 0.984 . S
H793 N787 0.985 . S
H794 N791 0.984 . S
H795 N791 0.985 . S
H796 N790 0.984 . S
H797 N790 0.984 . S
H798 N786 0.984 . S
H799 N786 0.985 . S
C800 C801 1.363 . S
C800 C806 1.379 . S
C800 N808 1.356 . S
C801 C800 1.363 . S
C801 C807 1.363 . S
C802 C803 1.363 . S
C802 C807 1.379 . S
C802 N809 1.356 . S
C803 C802 1.363 . S
C803 C806 1.363 . S
N804 C806 1.356 . S
N804 H816 0.984 1_655 S
N804 H817 0.985 1_655 S
N805 C807 1.356 . S
N805 H810 0.984 . S
N805 H811 0.985 . S
C806 C800 1.379 . S
C806 C803 1.363 . S
C806 N804 1.356 . S
C807 C801 1.363 . S
C807 C802 1.379 . S
C807 N805 1.356 . S
N808 C800 1.356 . S
N808 H814 0.984 1_545 S
N808 H815 0.984 . S
N809 C802 1.356 . S
N809 H812 0.984 . S
N809 H813 0.985 . S
H810 N805 0.984 . S
H811 N805 0.985 . S
H812 N809 0.984 . S
H813 N809 0.985 . S
H814 N808 0.984 1_565 S
H815 N808 0.984 . S
H816 N804 0.984 1_455 S
H817 N804 0.985 1_455 S
C818 C819 1.363 . S
C818 C824 1.379 . S
C818 N826 1.356 . S
C819 C818 1.363 . S
C819 C825 1.363 . S
C820 C821 1.363 . S
C820 C825 1.379 . S
C820 N827 1.356 . S
C821 C820 1.363 . S
C821 C824 1.363 . S
N822 C824 1.356 . S
N822 H834 0.984 . S
N822 H835 0.985 . S
N823 C825 1.356 . S
N823 H828 0.984 . S
N823 H829 0.985 . S
C824 C818 1.379 . S
C824 C821 1.363 . S
C824 N822 1.356 . S
C825 C819 1.363 . S
C825 C820 1.379 . S
C825 N823 1.356 . S
N826 C818 1.356 . S
N826 H832 0.984 . S
N826 H833 0.984 . S
N827 C820 1.356 . S
N827 H830 0.984 . S
N827 H831 0.985 . S
H828 N823 0.984 . S
H829 N823 0.985 . S
H830 N827 0.984 . S
H831 N827 0.985 . S
H832 N826 0.984 . S
H833 N826 0.984 . S
H834 N822 0.984 . S
H835 N822 0.985 . S
C836 C837 1.363 . S
C836 C842 1.379 . S
C836 N844 1.356 . S
C837 C836 1.363 . S
C837 C843 1.363 1_545 S
C838 C839 1.363 . S
C838 C843 1.379 1_545 S
C838 N845 1.356 1_545 S
C839 C838 1.363 . S
C839 C842 1.363 . S
N840 C842 1.356 . S
N840 H852 0.984 . S
N840 H853 0.985 . S
N841 C843 1.356 . S
N841 H846 0.984 . S
N841 H847 0.985 . S
C842 C836 1.379 . S
C842 C839 1.363 . S
C842 N840 1.356 . S
C843 C837 1.363 1_565 S
C843 C838 1.379 1_565 S
C843 N841 1.356 . S
N844 C836 1.356 . S
N844 H850 0.984 . S
N844 H851 0.984 . S
N845 C838 1.356 1_565 S
N845 H848 0.984 . S
N845 H849 0.985 . S
H846 N841 0.984 . S
H847 N841 0.985 . S
H848 N845 0.984 . S
H849 N845 0.985 . S
H850 N844 0.984 . S
H851 N844 0.984 . S
H852 N840 0.984 . S
H853 N840 0.985 . S
C854 C855 1.363 . S
C854 C860 1.379 . S
C854 N862 1.356 . S
C855 C854 1.363 . S
C855 C861 1.363 . S
C856 C857 1.363 . S
C856 C861 1.379 . S
C856 N863 1.356 . S
C857 C856 1.363 . S
C857 C860 1.363 . S
N858 C860 1.356 . S
N858 H870 0.984 . S
N858 H871 0.985 . S
N859 C861 1.356 . S
N859 H864 0.984 . S
N859 H865 0.985 . S
C860 C854 1.379 . S
C860 C857 1.363 . S
C860 N858 1.356 . S
C861 C855 1.363 . S
C861 C856 1.379 . S
C861 N859 1.356 . S
N862 C854 1.356 . S
N862 H868 0.984 . S
N862 H869 0.984 . S
N863 C856 1.356 . S
N863 H866 0.984 . S
N863 H867 0.985 . S
H864 N859 0.984 . S
H865 N859 0.985 . S
H866 N863 0.984 . S
H867 N863 0.985 . S
H868 N862 0.984 . S
H869 N862 0.984 . S
H870 N858 0.984 . S
H871 N858 0.985 . S
C872 C873 1.363 . S
C872 C878 1.379 . S
C872 N880 1.356 . S
C873 C872 1.363 . S
C873 C879 1.363 . S
C874 C875 1.363 . S
C874 C879 1.379 . S
C874 N881 1.356 1_545 S
C875 C874 1.363 . S
C875 C878 1.363 . S
N876 C878 1.356 1_455 S
N876 H888 0.984 . S
N876 H889 0.985 . S
N877 C879 1.356 . S
N877 H882 0.984 . S
N877 H883 0.985 1_545 S
C878 C872 1.379 . S
C878 C875 1.363 . S
C878 N876 1.356 1_655 S
C879 C873 1.363 . S
C879 C874 1.379 . S
C879 N877 1.356 . S
N880 C872 1.356 . S
N880 H886 0.984 . S
N880 H887 0.984 . S
N881 C874 1.356 1_565 S
N881 H884 0.984 1_565 S
N881 H885 0.985 . S
H882 N877 0.984 . S
H883 N877 0.985 1_565 S
H884 N881 0.984 1_545 S
H885 N881 0.985 . S
H886 N880 0.984 . S
H887 N880 0.984 . S
H888 N876 0.984 . S
H889 N876 0.985 . S
C890 C891 1.363 . S
C890 C896 1.379 . S
C890 N898 1.356 . S
C891 C890 1.363 . S
C891 C897 1.363 . S
C892 C893 1.363 . S
C892 C897 1.379 . S
C892 N899 1.356 . S
C893 C892 1.363 . S
C893 C896 1.363 . S
N894 C896 1.356 . S
N894 H906 0.984 . S
N894 H907 0.985 . S
N895 C897 1.356 . S
N895 H900 0.984 . S
N895 H901 0.985 . S
C896 C890 1.379 . S
C896 C893 1.363 . S
C896 N894 1.356 . S
C897 C891 1.363 . S
C897 C892 1.379 . S
C897 N895 1.356 . S
N898 C890 1.356 . S
N898 H904 0.984 . S
N898 H905 0.984 . S
N899 C892 1.356 . S
N899 H902 0.984 . S
N899 H903 0.985 . S
H900 N895 0.984 . S
H901 N895 0.985 . S
H902 N899 0.984 . S
H903 N899 0.985 . S
H904 N898 0.984 . S
H905 N898 0.984 . S
H906 N894 0.984 . S
H907 N894 0.985 . S
C908 C909 1.363 . S
C908 C914 1.379 . S
C908 N916 1.356 . S
C909 C908 1.363 . S
C909 C915 1.363 . S
C910 C911 1.363 . S
C910 C915 1.379 . S
C910 N917 1.356 1_545 S
C911 C910 1.363 . S
C911 C914 1.363 . S
N912 C914 1.356 . S
N912 H924 0.984 . S
N912 H925 0.985 . S
N913 C915 1.356 1_565 S
N913 H918 0.984 . S
N913 H919 0.985 . S
C914 C908 1.379 . S
C914 C911 1.363 . S
C914 N912 1.356 . S
C915 C909 1.363 . S
C915 C910 1.379 . S
C915 N913 1.356 1_545 S
N916 C908 1.356 . S
N916 H922 0.984 . S
N916 H923 0.984 . S
N917 C910 1.356 1_565 S
N917 H920 0.984 . S
N917 H921 0.985 . S
H918 N913 0.984 . S
H919 N913 0.985 . S
H920 N917 0.984 . S
H921 N917 0.985 . S
H922 N916 0.984 . S
H923 N916 0.984 . S
H924 N912 0.984 . S
H925 N912 0.985 . S
C926 C927 1.363 . S
C926 C932 1.379 . S
C926 N934 1.356 . S
C927 C926 1.363 . S
C927 C933 1.363 . S
C928 C929 1.363 . S
C928 C933 1.379 . S
C928 N935 1.356 . S
C929 C928 1.363 . S
C929 C932 1.363 . S
N930 C932 1.356 . S
N930 H942 0.984 . S
N930 H943 0.985 . S
N931 C933 1.356 . S
N931 H936 0.984 . S
N931 H937 0.985 . S
C932 C926 1.379 . S
C932 C929 1.363 . S
C932 N930 1.356 . S
C933 C927 1.363 . S
C933 C928 1.379 . S
C933 N931 1.356 . S
N934 C926 1.356 . S
N934 H940 0.984 . S
N934 H941 0.984 . S
N935 C928 1.356 . S
N935 H938 0.984 . S
N935 H939 0.985 . S
H936 N931 0.984 . S
H937 N931 0.985 . S
H938 N935 0.984 . S
H939 N935 0.985 . S
H940 N934 0.984 . S
H941 N934 0.984 . S
H942 N930 0.984 . S
H943 N930 0.985 . S
C944 C945 1.363 . S
C944 C950 1.379 . S
C944 N952 1.356 . S
C945 C944 1.363 . S
C945 C951 1.363 . S
C946 C947 1.363 . S
C946 C951 1.379 . S
C946 N953 1.356 1_564 S
C947 C946 1.363 . S
C947 C950 1.363 . S
N948 C950 1.356 . S
N948 H960 0.984 . S
N948 H961 0.996 . S
N949 C951 1.356 1_556 S
N949 H954 0.984 . S
N949 H955 0.985 . S
C950 C944 1.379 . S
C950 C947 1.363 . S
C950 N948 1.356 . S
C951 C945 1.363 . S
C951 C946 1.379 . S
C951 N949 1.356 1_554 S
N952 C944 1.356 . S
N952 H958 0.984 . S
N952 H959 0.984 . S
N953 C946 1.356 1_546 S
N953 H956 0.984 1_556 S
N953 H957 0.985 . S
H954 N949 0.984 . S
H955 N949 0.985 . S
H956 N953 0.984 1_554 S
H957 N953 0.985 . S
H958 N952 0.984 . S
H959 N952 0.984 . S
H960 N948 0.984 . S
H961 N948 0.996 . S
C962 C963 1.363 . S
C962 C968 1.379 . S
C962 N970 1.356 . S
C963 C962 1.363 . S
C963 C969 1.363 1_554 S
C964 C965 1.363 1_556 S
C964 C969 1.379 . S
C964 N971 1.356 . S
C965 C964 1.363 1_554 S
C965 C968 1.363 . S
N966 C968 1.356 . S
N966 H978 0.984 . S
N966 H979 0.985 . S
N967 C969 1.356 . S
N967 H972 0.984 . S
N967 H973 0.985 . S
C968 C962 1.379 . S
C968 C965 1.363 . S
C968 N966 1.356 . S
C969 C963 1.363 1_556 S
C969 C964 1.379 . S
C969 N967 1.356 . S
N970 C962 1.356 . S
N970 H976 0.984 . S
N970 H977 0.984 . S
N971 C964 1.356 . S
N971 H974 0.984 . S
N971 H975 0.985 . S
H972 N967 0.984 . S
H973 N967 0.985 . S
H974 N971 0.984 . S
H975 N971 0.985 . S
H976 N970 0.984 . S
H977 N970 0.984 . S
H978 N966 0.984 . S
H979 N966 0.985 . S
C980 C981 1.363 . S
C980 C986 1.379 . S
C980 N988 1.356 . S
C981 C980 1.363 . S
C981 C987 1.363 . S
C982 C983 1.363 . S
C982 C987 1.379 . S
C982 N989 1.356 . S
C983 C982 1.363 . S
C983 C986 1.363 . S
N984 C986 1.356 . S
N984 H996 0.984 . S
N984 H997 0.985 . S
N985 C987 1.356 . S
N985 H990 0.984 . S
N985 H991 0.985 . S
C986 C980 1.379 . S
C986 C983 1.363 . S
C986 N984 1.356 . S
C987 C981 1.363 . S
C987 C982 1.379 . S
C987 N985 1.356 . S
N988 C980 1.356 . S
N988 H994 0.984 . S
N988 H995 0.984 . S
N989 C982 1.356 . S
N989 H992 0.984 . S
N989 H993 0.985 . S
H990 N985 0.984 . S
H991 N985 0.985 . S
H992 N989 0.984 . S
H993 N989 0.985 . S
H994 N988 0.984 . S
H995 N988 0.984 . S
H996 N984 0.984 . S
H997 N984 0.985 . S
C998 C999 1.363 . S
C998 C1004 1.379 . S
C998 N1006 1.356 . S
C999 C998 1.363 . S
C999 C1005 1.363 . S
C1000 C1001 1.363 . S
C1000 C1005 1.379 . S
C1000 N1007 1.356 . S
C1001 C1000 1.363 . S
C1001 C1004 1.363 . S
N1002 C1004 1.356 . S
N1002 H1014 0.984 . S
N1002 H1015 0.985 . S
N1003 C1005 1.356 . S
N1003 H1008 0.984 . S
N1003 H1009 0.985 . S
C1004 C998 1.379 . S
C1004 C1001 1.363 . S
C1004 N1002 1.356 . S
C1005 C999 1.363 . S
C1005 C1000 1.379 . S
C1005 N1003 1.356 . S
N1006 C998 1.356 . S
N1006 H1012 0.984 . S
N1006 H1013 0.984 . S
N1007 C1000 1.356 . S
N1007 H1010 0.984 . S
N1007 H1011 0.985 . S
H1008 N1003 0.984 . S
H1009 N1003 0.985 . S
H1010 N1007 0.984 . S
H1011 N1007 0.985 . S
H1012 N1006 0.984 . S
H1013 N1006 0.984 . S
H1014 N1002 0.984 . S
H1015 N1002 0.985 . S
C1016 C1017 1.363 . S
C1016 C1022 1.379 . S
C1016 N1024 1.356 . S
C1017 C1016 1.363 . S
C1017 C1023 1.363 . S
C1018 C1019 1.363 . S
C1018 C1023 1.379 . S
C1018 N1025 1.356 . S
C1019 C1018 1.363 . S
C1019 C1022 1.363 . S
N1020 C1022 1.356 . S
N1020 H1032 0.984 . S
N1020 H1033 0.985 . S
N1021 C1023 1.356 . S
N1021 H1026 0.984 . S
N1021 H1027 0.985 . S
C1022 C1016 1.379 . S
C1022 C1019 1.363 . S
C1022 N1020 1.356 . S
C1023 C1017 1.363 . S
C1023 C1018 1.379 . S
C1023 N1021 1.356 . S
N1024 C1016 1.356 . S
N1024 H1030 0.984 . S
N1024 H1031 0.984 . S
N1025 C1018 1.356 . S
N1025 H1028 0.984 . S
N1025 H1029 0.985 . S
H1026 N1021 0.984 . S
H1027 N1021 0.985 . S
H1028 N1025 0.984 . S
H1029 N1025 0.985 . S
H1030 N1024 0.984 . S
H1031 N1024 0.984 . S
H1032 N1020 0.984 . S
H1033 N1020 0.985 . S
C1034 C1035 1.363 . S
C1034 C1040 1.379 . S
C1034 N1042 1.356 . S
C1035 C1034 1.363 . S
C1035 C1041 1.363 . S
C1036 C1037 1.363 . S
C1036 C1041 1.379 . S
C1036 N1043 1.356 . S
C1037 C1036 1.363 . S
C1037 C1040 1.363 . S
N1038 C1040 1.356 . S
N1038 H1050 0.984 . S
N1038 H1051 0.985 . S
N1039 C1041 1.356 . S
N1039 H1044 0.984 . S
N1039 H1045 0.985 . S
C1040 C1034 1.379 . S
C1040 C1037 1.363 . S
C1040 N1038 1.356 . S
C1041 C1035 1.363 . S
C1041 C1036 1.379 . S
C1041 N1039 1.356 . S
N1042 C1034 1.356 . S
N1042 H1048 0.984 . S
N1042 H1049 0.984 . S
N1043 C1036 1.356 . S
N1043 H1046 0.984 . S
N1043 H1047 0.985 . S
H1044 N1039 0.984 . S
H1045 N1039 0.985 . S
H1046 N1043 0.984 . S
H1047 N1043 0.985 . S
H1048 N1042 0.984 . S
H1049 N1042 0.984 . S
H1050 N1038 0.984 . S
H1051 N1038 0.985 . S
C1052 C1053 1.363 . S
C1052 C1058 1.379 . S
C1052 N1060 1.356 . S
C1053 C1052 1.363 . S
C1053 C1059 1.363 . S
C1054 C1055 1.363 . S
C1054 C1059 1.379 . S
C1054 N1061 1.356 . S
C1055 C1054 1.363 . S
C1055 C1058 1.363 . S
N1056 C1058 1.356 . S
N1056 H1068 0.984 . S
N1056 H1069 0.985 . S
N1057 C1059 1.356 . S
N1057 H1062 0.984 . S
N1057 H1063 0.985 . S
C1058 C1052 1.379 . S
C1058 C1055 1.363 . S
C1058 N1056 1.356 . S
C1059 C1053 1.363 . S
C1059 C1054 1.379 . S
C1059 N1057 1.356 . S
N1060 C1052 1.356 . S
N1060 H1066 0.984 . S
N1060 H1067 0.984 . S
N1061 C1054 1.356 . S
N1061 H1064 0.984 . S
N1061 H1065 0.985 . S
H1062 N1057 0.984 . S
H1063 N1057 0.985 . S
H1064 N1061 0.984 . S
H1065 N1061 0.985 . S
H1066 N1060 0.984 . S
H1067 N1060 0.984 . S
H1068 N1056 0.984 . S
H1069 N1056 0.985 . S
C1070 C1071 1.363 . S
C1070 C1076 1.379 . S
C1070 N1078 1.356 . S
C1071 C1070 1.363 . S
C1071 C1077 1.363 . S
C1072 C1073 1.363 . S
C1072 C1077 1.379 . S
C1072 N1079 1.356 . S
C1073 C1072 1.363 . S
C1073 C1076 1.363 . S
N1074 C1076 1.356 . S
N1074 H1086 0.984 . S
N1074 H1087 0.985 . S
N1075 C1077 1.356 . S
N1075 H1080 0.984 . S
N1075 H1081 0.985 . S
C1076 C1070 1.379 . S
C1076 C1073 1.363 . S
C1076 N1074 1.356 . S
C1077 C1071 1.363 . S
C1077 C1072 1.379 . S
C1077 N1075 1.356 . S
N1078 C1070 1.356 . S
N1078 H1084 0.984 . S
N1078 H1085 0.984 . S
N1079 C1072 1.356 . S
N1079 H1082 0.984 . S
N1079 H1083 0.985 . S
H1080 N1075 0.984 . S
H1081 N1075 0.985 . S
H1082 N1079 0.984 . S
H1083 N1079 0.985 . S
H1084 N1078 0.984 . S
H1085 N1078 0.984 . S
H1086 N1074 0.984 . S
H1087 N1074 0.985 . S
C1088 C1089 1.363 . S
C1088 C1094 1.379 . S
C1088 N1096 1.356 . S
C1089 C1088 1.363 . S
C1089 C1095 1.363 . S
C1090 C1091 1.363 . S
C1090 C1095 1.379 . S
C1090 N1097 1.356 . S
C1091 C1090 1.363 . S
C1091 C1094 1.363 . S
N1092 C1094 1.356 . S
N1092 H1104 0.993 . S
N1092 H1105 0.985 . S
N1093 C1095 1.356 . S
N1093 H1098 0.984 . S
N1093 H1099 0.985 . S
C1094 C1088 1.379 . S
C1094 C1091 1.363 . S
C1094 N1092 1.356 . S
C1095 C1089 1.363 . S
C1095 C1090 1.379 . S
C1095 N1093 1.356 . S
N1096 C1088 1.356 . S
N1096 H1102 0.984 . S
N1096 H1103 0.984 . S
N1097 C1090 1.356 . S
N1097 H1100 0.984 . S
N1097 H1101 0.985 . S
H1098 N1093 0.984 . S
H1099 N1093 0.985 . S
H1100 N1097 0.984 . S
H1101 N1097 0.985 . S
H1102 N1096 0.984 . S
H1103 N1096 0.984 . S
H1104 N1092 0.993 . S
H1105 N1092 0.985 . S
C1106 C1107 1.363 . S
C1106 C1112 1.379 . S
C1106 N1114 1.356 . S
C1107 C1106 1.363 . S
C1107 C1113 1.363 . S
C1108 C1109 1.363 . S
C1108 C1113 1.379 . S
C1108 N1115 1.356 . S
C1109 C1108 1.363 . S
C1109 C1112 1.363 . S
N1110 C1112 1.356 . S
N1110 H1122 0.984 . S
N1110 H1123 0.985 . S
N1111 C1113 1.356 . S
N1111 H1116 0.984 . S
N1111 H1117 0.985 . S
C1112 C1106 1.379 . S
C1112 C1109 1.363 . S
C1112 N1110 1.356 . S
C1113 C1107 1.363 . S
C1113 C1108 1.379 . S
C1113 N1111 1.356 . S
N1114 C1106 1.356 . S
N1114 H1120 0.984 . S
N1114 H1121 0.984 . S
N1115 C1108 1.356 . S
N1115 H1118 0.984 . S
N1115 H1119 0.985 . S
H1116 N1111 0.984 . S
H1117 N1111 0.985 . S
H1118 N1115 0.984 . S
H1119 N1115 0.985 . S
H1120 N1114 0.984 . S
H1121 N1114 0.984 . S
H1122 N1110 0.984 . S
H1123 N1110 0.985 . S
C1124 C1125 1.363 . S
C1124 C1130 1.379 . S
C1124 N1132 1.356 . S
C1125 C1124 1.363 . S
C1125 C1131 1.363 . S
C1126 C1127 1.363 . S
C1126 C1131 1.379 . S
C1126 N1133 1.356 . S
C1127 C1126 1.363 . S
C1127 C1130 1.363 . S
N1128 C1130 1.356 . S
N1128 H1140 0.984 . S
N1128 H1141 0.985 . S
N1129 C1131 1.356 . S
N1129 H1134 0.984 . S
N1129 H1135 0.985 . S
C1130 C1124 1.379 . S
C1130 C1127 1.363 . S
C1130 N1128 1.356 . S
C1131 C1125 1.363 . S
C1131 C1126 1.379 . S
C1131 N1129 1.356 . S
N1132 C1124 1.356 . S
N1132 H1138 0.984 . S
N1132 H1139 0.984 . S
N1133 C1126 1.356 . S
N1133 H1136 0.984 . S
N1133 H1137 0.985 . S
H1134 N1129 0.984 . S
H1135 N1129 0.985 . S
H1136 N1133 0.984 . S
H1137 N1133 0.985 . S
H1138 N1132 0.984 . S
H1139 N1132 0.984 . S
H1140 N1128 0.984 . S
H1141 N1128 0.985 . S
C1142 C1143 1.363 . S
C1142 C1148 1.379 . S
C1142 N1150 1.356 . S
C1143 C1142 1.363 . S
C1143 C1149 1.363 . S
C1144 C1145 1.363 . S
C1144 C1149 1.379 . S
C1144 N1151 1.356 . S
C1145 C1144 1.363 . S
C1145 C1148 1.363 . S
N1146 C1148 1.356 . S
N1146 H1158 0.984 . S
N1146 H1159 0.985 . S
N1147 C1149 1.356 . S
N1147 H1152 0.984 . S
N1147 H1153 0.985 . S
C1148 C1142 1.379 . S
C1148 C1145 1.363 . S
C1148 N1146 1.356 . S
C1149 C1143 1.363 . S
C1149 C1144 1.379 . S
C1149 N1147 1.356 . S
N1150 C1142 1.356 . S
N1150 H1156 0.984 . S
N1150 H1157 0.984 . S
N1151 C1144 1.356 . S
N1151 H1154 0.984 . S
N1151 H1155 0.985 . S
H1152 N1147 0.984 . S
H1153 N1147 0.985 . S
H1154 N1151 0.984 . S
H1155 N1151 0.985 . S
H1156 N1150 0.984 . S
H1157 N1150 0.984 . S
H1158 N1146 0.984 . S
H1159 N1146 0.985 . S
C1160 C1161 1.363 . S
C1160 C1166 1.379 . S
C1160 N1168 1.356 . S
C1161 C1160 1.363 . S
C1161 C1167 1.363 1_455 S
C1162 C1163 1.355 1_655 S
C1162 C1167 1.385 . S
C1162 N1169 1.356 . S
C1163 C1162 1.355 1_455 S
C1163 C1166 1.363 . S
N1164 C1166 1.356 . S
N1164 H1176 0.984 . S
N1164 H1177 0.985 . S
N1165 C1167 1.356 . S
N1165 H1170 0.984 . S
N1165 H1171 0.985 . S
C1166 C1160 1.379 . S
C1166 C1163 1.363 . S
C1166 N1164 1.356 . S
C1167 C1161 1.363 1_655 S
C1167 C1162 1.385 . S
C1167 N1165 1.356 . S
N1168 C1160 1.356 . S
N1168 H1174 0.984 . S
N1168 H1175 0.984 . S
N1169 C1162 1.356 . S
N1169 H1172 0.984 . S
N1169 H1173 0.985 . S
H1170 N1165 0.984 . S
H1171 N1165 0.985 . S
H1172 N1169 0.984 . S
H1173 N1169 0.985 . S
H1174 N1168 0.984 . S
H1175 N1168 0.984 . S
H1176 N1164 0.984 . S
H1177 N1164 0.985 . S
C1178 C1179 1.363 . S
C1178 C1184 1.379 . S
C1178 N1186 1.356 . S
C1179 C1178 1.363 . S
C1179 C1185 1.363 . S
C1180 C1181 1.363 . S
C1180 C1185 1.379 . S
C1180 N1187 1.356 . S
C1181 C1180 1.363 . S
C1181 C1184 1.363 . S
N1182 C1184 1.356 . S
N1182 H1194 0.984 . S
N1182 H1195 0.985 . S
N1183 C1185 1.356 . S
N1183 H1188 0.984 . S
N1183 H1189 0.985 . S
C1184 C1178 1.379 . S
C1184 C1181 1.363 . S
C1184 N1182 1.356 . S
C1185 C1179 1.363 . S
C1185 C1180 1.379 . S
C1185 N1183 1.356 . S
N1186 C1178 1.356 . S
N1186 H1192 0.984 . S
N1186 H1193 0.984 . S
N1187 C1180 1.356 . S
N1187 H1190 0.984 . S
N1187 H1191 0.985 . S
H1188 N1183 0.984 . S
H1189 N1183 0.985 . S
H1190 N1187 0.984 . S
H1191 N1187 0.985 . S
H1192 N1186 0.984 . S
H1193 N1186 0.984 . S
H1194 N1182 0.984 . S
H1195 N1182 0.985 . S
C1196 C1197 1.363 . S
C1196 C1202 1.379 . S
C1196 N1204 1.356 . S
C1197 C1196 1.363 . S
C1197 C1203 1.363 . S
C1198 C1199 1.363 . S
C1198 C1203 1.379 . S
C1198 N1205 1.356 . S
C1199 C1198 1.363 . S
C1199 C1202 1.363 . S
N1200 C1202 1.356 1_554 S
N1200 H1212 0.984 . S
N1200 H1213 0.985 . S
N1201 C1203 1.356 . S
N1201 H1206 0.984 . S
N1201 H1207 0.985 . S
C1202 C1196 1.379 . S
C1202 C1199 1.363 . S
C1202 N1200 1.356 1_556 S
C1203 C1197 1.363 . S
C1203 C1198 1.379 . S
C1203 N1201 1.356 . S
N1204 C1196 1.356 . S
N1204 H1210 0.984 . S
N1204 H1211 0.984 . S
N1205 C1198 1.356 . S
N1205 H1208 0.984 . S
N1205 H1209 0.985 . S
H1206 N1201 0.984 . S
H1207 N1201 0.985 . S
H1208 N1205 0.984 . S
H1209 N1205 0.985 . S
H1210 N1204 0.984 . S
H1211 N1204 0.984 . S
H1212 N1200 0.984 . S
H1213 N1200 0.985 . S
C1214 C1215 1.363 . S
C1214 C1220 1.379 . S
C1214 N1222 1.356 . S
C1215 C1214 1.363 . S
C1215 C1221 1.363 . S
C1216 C1217 1.363 . S
C1216 C1221 1.379 . S
C1216 N1223 1.356 . S
C1217 C1216 1.363 . S
C1217 C1220 1.363 . S
N1218 C1220 1.356 . S
N1218 H1230 0.984 . S
N1218 H1231 0.985 . S
N1219 C1221 1.356 . S
N1219 H1224 0.984 . S
N1219 H1225 0.985 . S
C1220 C1214 1.379 . S
C1220 C1217 1.363 . S
C1220 N1218 1.356 . S
C1221 C1215 1.363 . S
C1221 C1216 1.379 . S
C1221 N1219 1.356 . S
N1222 C1214 1.356 . S
N1222 H1228 0.984 . S
N1222 H1229 0.984 . S
N1223 C1216 1.356 . S
N1223 H1226 0.984 . S
N1223 H1227 0.985 . S
H1224 N1219 0.984 . S
H1225 N1219 0.985 . S
H1226 N1223 0.984 . S
H1227 N1223 0.985 . S
H1228 N1222 0.984 . S
H1229 N1222 0.984 . S
H1230 N1218 0.984 . S
H1231 N1218 0.985 . S
C1232 C1233 1.363 1_565 S
C1232 C1238 1.379 . S
C1232 N1240 1.356 . S
C1233 C1232 1.363 1_545 S
C1233 C1239 1.363 . S
C1234 C1235 1.363 . S
C1234 C1239 1.379 . S
C1234 N1241 1.356 . S
C1235 C1234 1.363 . S
C1235 C1238 1.363 1_545 S
N1236 C1238 1.356 . S
N1236 H1248 0.982 1_455 S
N1236 H1249 1.002 . S
N1237 C1239 1.356 . S
N1237 H1242 0.984 . S
N1237 H1243 0.985 . S
C1238 C1232 1.379 . S
C1238 C1235 1.363 1_565 S
C1238 N1236 1.356 . S
C1239 C1233 1.363 . S
C1239 C1234 1.379 . S
C1239 N1237 1.356 . S
N1240 C1232 1.356 . S
N1240 H1246 0.984 . S
N1240 H1247 0.984 . S
N1241 C1234 1.356 . S
N1241 H1244 0.984 . S
N1241 H1245 0.985 . S
H1242 N1237 0.984 . S
H1243 N1237 0.985 . S
H1244 N1241 0.984 . S
H1245 N1241 0.985 . S
H1246 N1240 0.984 . S
H1247 N1240 0.984 . S
H1248 N1236 0.982 1_655 S
H1249 N1236 1.002 . S
C1250 C1251 1.363 . S
C1250 C1256 1.379 . S
C1250 N1258 1.356 . S
C1251 C1250 1.363 . S
C1251 C1257 1.363 . S
C1252 C1253 1.363 . S
C1252 C1257 1.379 . S
C1252 N1259 1.356 . S
C1253 C1252 1.363 . S
C1253 C1256 1.363 . S
N1254 C1256 1.356 . S
N1254 H1266 0.984 . S
N1254 H1267 0.985 . S
N1255 C1257 1.356 . S
N1255 H1260 0.984 . S
N1255 H1261 0.985 . S
C1256 C1250 1.379 . S
C1256 C1253 1.363 . S
C1256 N1254 1.356 . S
C1257 C1251 1.363 . S
C1257 C1252 1.379 . S
C1257 N1255 1.356 . S
N1258 C1250 1.356 . S
N1258 H1264 0.984 . S
N1258 H1265 0.984 . S
N1259 C1252 1.356 . S
N1259 H1262 0.984 . S
N1259 H1263 0.985 . S
H1260 N1255 0.984 . S
H1261 N1255 0.985 . S
H1262 N1259 0.984 . S
H1263 N1259 0.985 . S
H1264 N1258 0.984 . S
H1265 N1258 0.984 . S
H1266 N1254 0.984 . S
H1267 N1254 0.985 . S
C1268 C1269 1.363 . S
C1268 C1274 1.379 . S
C1268 N1276 1.356 . S
C1269 C1268 1.363 . S
C1269 C1275 1.363 . S
C1270 C1271 1.363 . S
C1270 C1275 1.379 . S
C1270 N1277 1.356 . S
C1271 C1270 1.363 . S
C1271 C1274 1.363 . S
N1272 C1274 1.356 1_565 S
N1272 H1284 0.984 . S
N1272 H1285 0.985 . S
N1273 C1275 1.356 . S
N1273 H1278 0.984 . S
N1273 H1279 0.985 . S
C1274 C1268 1.379 . S
C1274 C1271 1.363 . S
C1274 N1272 1.356 1_545 S
C1275 C1269 1.363 . S
C1275 C1270 1.379 . S
C1275 N1273 1.356 . S
N1276 C1268 1.356 . S
N1276 H1282 0.984 1_545 S
N1276 H1283 0.984 . S
N1277 C1270 1.356 . S
N1277 H1280 0.984 . S
N1277 H1281 0.985 . S
H1278 N1273 0.984 . S
H1279 N1273 0.985 . S
H1280 N1277 0.984 . S
H1281 N1277 0.985 . S
H1282 N1276 0.984 1_565 S
H1283 N1276 0.984 . S
H1284 N1272 0.984 . S
H1285 N1272 0.985 . S
C1286 C1287 1.363 . S
C1286 C1292 1.379 . S
C1286 N1294 1.356 . S
C1287 C1286 1.363 . S
C1287 C1293 1.363 . S
C1288 C1289 1.363 . S
C1288 C1293 1.379 . S
C1288 N1295 1.356 . S
C1289 C1288 1.363 . S
C1289 C1292 1.363 . S
N1290 C1292 1.356 . S
N1290 H1302 0.984 . S
N1290 H1303 0.985 . S
N1291 C1293 1.356 . S
N1291 H1296 0.984 . S
N1291 H1297 0.985 . S
C1292 C1286 1.379 . S
C1292 C1289 1.363 . S
C1292 N1290 1.356 . S
C1293 C1287 1.363 . S
C1293 C1288 1.379 . S
C1293 N1291 1.356 . S
N1294 C1286 1.356 . S
N1294 H1300 0.984 . S
N1294 H1301 0.984 . S
N1295 C1288 1.356 . S
N1295 H1298 0.984 . S
N1295 H1299 0.985 . S
H1296 N1291 0.984 . S
H1297 N1291 0.985 . S
H1298 N1295 0.984 . S
H1299 N1295 0.985 . S
H1300 N1294 0.984 . S
H1301 N1294 0.984 . S
H1302 N1290 0.984 . S
H1303 N1290 0.985 . S
C1304 C1305 1.363 . S
C1304 C1310 1.379 . S
C1304 N1312 1.356 . S
C1305 C1304 1.363 . S
C1305 C1311 1.363 1_545 S
C1306 C1307 1.362 . S
C1306 C1311 1.380 1_545 S
C1306 N1313 1.356 1_545 S
C1307 C1306 1.362 . S
C1307 C1310 1.363 . S
N1308 C1310 1.356 . S
N1308 H1320 0.984 . S
N1308 H1321 0.985 . S
N1309 C1311 1.356 . S
N1309 H1314 0.984 . S
N1309 H1315 0.985 . S
C1310 C1304 1.379 . S
C1310 C1307 1.363 . S
C1310 N1308 1.356 . S
C1311 C1305 1.363 1_565 S
C1311 C1306 1.380 1_565 S
C1311 N1309 1.356 . S
N1312 C1304 1.356 . S
N1312 H1318 0.984 . S
N1312 H1319 0.984 . S
N1313 C1306 1.356 1_565 S
N1313 H1316 0.984 1_565 S
N1313 H1317 0.985 1_455 S
H1314 N1309 0.984 . S
H1315 N1309 0.985 . S
H1316 N1313 0.984 1_545 S
H1317 N1313 0.985 1_655 S
H1318 N1312 0.984 . S
H1319 N1312 0.984 . S
H1320 N1308 0.984 . S
H1321 N1308 0.985 . S
C1322 C1323 1.363 . S
C1322 C1328 1.379 . S
C1322 N1330 1.356 . S
C1323 C1322 1.363 . S
C1323 C1329 1.363 . S
C1324 C1325 1.363 . S
C1324 C1329 1.379 . S
C1324 N1331 1.356 . S
C1325 C1324 1.363 . S
C1325 C1328 1.363 . S
N1326 C1328 1.356 . S
N1326 H1338 0.984 . S
N1326 H1339 0.985 . S
N1327 C1329 1.356 . S
N1327 H1332 0.984 . S
N1327 H1333 0.985 . S
C1328 C1322 1.379 . S
C1328 C1325 1.363 . S
C1328 N1326 1.356 . S
C1329 C1323 1.363 . S
C1329 C1324 1.379 . S
C1329 N1327 1.356 . S
N1330 C1322 1.356 . S
N1330 H1336 0.984 . S
N1330 H1337 0.984 . S
N1331 C1324 1.356 . S
N1331 H1334 0.984 . S
N1331 H1335 0.985 . S
H1332 N1327 0.984 . S
H1333 N1327 0.985 . S
H1334 N1331 0.984 . S
H1335 N1331 0.985 . S
H1336 N1330 0.984 . S
H1337 N1330 0.984 . S
H1338 N1326 0.984 . S
H1339 N1326 0.985 . S
C1340 C1341 1.363 . S
C1340 C1346 1.379 . S
C1340 N1348 1.356 . S
C1341 C1340 1.363 . S
C1341 C1347 1.363 . S
C1342 C1343 1.363 . S
C1342 C1347 1.379 . S
C1342 N1349 1.356 . S
C1343 C1342 1.363 . S
C1343 C1346 1.363 . S
N1344 C1346 1.356 . S
N1344 H1356 0.984 . S
N1344 H1357 0.985 . S
N1345 C1347 1.356 . S
N1345 H1350 0.984 . S
N1345 H1351 0.985 . S
C1346 C1340 1.379 . S
C1346 C1343 1.363 . S
C1346 N1344 1.356 . S
C1347 C1341 1.363 . S
C1347 C1342 1.379 . S
C1347 N1345 1.356 . S
N1348 C1340 1.356 . S
N1348 H1354 0.984 . S
N1348 H1355 0.984 . S
N1349 C1342 1.356 . S
N1349 H1352 0.984 . S
N1349 H1353 0.985 . S
H1350 N1345 0.984 . S
H1351 N1345 0.985 . S
H1352 N1349 0.984 . S
H1353 N1349 0.985 . S
H1354 N1348 0.984 . S
H1355 N1348 0.984 . S
H1356 N1344 0.984 . S
H1357 N1344 0.985 . S
C1358 C1359 1.363 . S
C1358 C1364 1.379 . S
C1358 N1366 1.356 . S
C1359 C1358 1.363 . S
C1359 C1365 1.363 . S
C1360 C1361 1.363 . S
C1360 C1365 1.379 . S
C1360 N1367 1.356 . S
C1361 C1360 1.363 . S
C1361 C1364 1.363 . S
N1362 C1364 1.356 . S
N1362 H1374 0.984 . S
N1362 H1375 0.985 . S
N1363 C1365 1.356 . S
N1363 H1368 0.984 . S
N1363 H1369 0.985 . S
C1364 C1358 1.379 . S
C1364 C1361 1.363 . S
C1364 N1362 1.356 . S
C1365 C1359 1.363 . S
C1365 C1360 1.379 . S
C1365 N1363 1.356 . S
N1366 C1358 1.356 . S
N1366 H1372 0.984 . S
N1366 H1373 0.984 . S
N1367 C1360 1.356 . S
N1367 H1370 0.984 . S
N1367 H1371 0.985 . S
H1368 N1363 0.984 . S
H1369 N1363 0.985 . S
H1370 N1367 0.984 . S
H1371 N1367 0.985 . S
H1372 N1366 0.984 . S
H1373 N1366 0.984 . S
H1374 N1362 0.984 . S
H1375 N1362 0.985 . S
C1376 C1377 1.363 1_556 S
C1376 C1382 1.379 . S
C1376 N1384 1.356 . S
C1377 C1376 1.363 1_554 S
C1377 C1383 1.363 . S
C1378 C1379 1.363 . S
C1378 C1383 1.379 . S
C1378 N1385 1.356 . S
C1379 C1378 1.363 . S
C1379 C1382 1.363 1_554 S
N1380 C1382 1.356 . S
N1380 H1392 0.984 . S
N1380 H1393 0.985 . S
N1381 C1383 1.356 . S
N1381 H1386 0.984 . S
N1381 H1387 0.985 . S
C1382 C1376 1.379 . S
C1382 C1379 1.363 1_556 S
C1382 N1380 1.356 . S
C1383 C1377 1.363 . S
C1383 C1378 1.379 . S
C1383 N1381 1.356 . S
N1384 C1376 1.356 . S
N1384 H1390 0.984 . S
N1384 H1391 0.984 . S
N1385 C1378 1.356 . S
N1385 H1388 0.984 . S
N1385 H1389 0.985 . S
H1386 N1381 0.984 . S
H1387 N1381 0.985 . S
H1388 N1385 0.984 . S
H1389 N1385 0.985 . S
H1390 N1384 0.984 . S
H1391 N1384 0.984 . S
H1392 N1380 0.984 . S
H1393 N1380 0.985 . S
C1394 C1395 1.363 . S
C1394 C1400 1.379 . S
C1394 N1402 1.356 . S
C1395 C1394 1.363 . S
C1395 C1401 1.363 . S
C1396 C1397 1.363 . S
C1396 C1401 1.379 . S
C1396 N1403 1.356 . S
C1397 C1396 1.363 . S
C1397 C1400 1.363 . S
N1398 C1400 1.356 . S
N1398 H1410 0.984 . S
N1398 H1411 0.985 . S
N1399 C1401 1.356 . S
N1399 H1404 0.984 . S
N1399 H1405 0.985 1_554 S
C1400 C1394 1.379 . S
C1400 C1397 1.363 . S
C1400 N1398 1.356 . S
C1401 C1395 1.363 . S
C1401 C1396 1.379 . S
C1401 N1399 1.356 . S
N1402 C1394 1.356 . S
N1402 H1408 0.984 . S
N1402 H1409 0.984 . S
N1403 C1396 1.356 . S
N1403 H1406 0.984 . S
N1403 H1407 0.985 1_554 S
H1404 N1399 0.984 . S
H1405 N1399 0.985 1_556 S
H1406 N1403 0.984 . S
H1407 N1403 0.985 1_556 S
H1408 N1402 0.984 . S
H1409 N1402 0.984 . S
H1410 N1398 0.984 . S
H1411 N1398 0.985 . S
C1412 C1413 1.363 . S
C1412 C1418 1.379 . S
C1412 N1420 1.356 . S
C1413 C1412 1.363 . S
C1413 C1419 1.363 . S
C1414 C1415 1.363 . S
C1414 C1419 1.379 . S
C1414 N1421 1.356 . S
C1415 C1414 1.363 . S
C1415 C1418 1.363 . S
N1416 C1418 1.356 . S
N1416 H1428 0.984 . S
N1416 H1429 0.985 . S
N1417 C1419 1.356 . S
N1417 H1422 0.984 . S
N1417 H1423 0.985 . S
C1418 C1412 1.379 . S
C1418 C1415 1.363 . S
C1418 N1416 1.356 . S
C1419 C1413 1.363 . S
C1419 C1414 1.379 . S
C1419 N1417 1.356 . S
N1420 C1412 1.356 . S
N1420 H1426 0.984 . S
N1420 H1427 0.984 . S
N1421 C1414 1.356 . S
N1421 H1424 0.984 . S
N1421 H1425 0.985 . S
H1422 N1417 0.984 . S
H1423 N1417 0.985 . S
H1424 N1421 0.984 . S
H1425 N1421 0.985 . S
H1426 N1420 0.984 . S
H1427 N1420 0.984 . S
H1428 N1416 0.984 . S
H1429 N1416 0.985 . S
C1430 C1431 1.363 . S
C1430 C1436 1.379 . S
C1430 N1438 1.356 . S
C1431 C1430 1.363 . S
C1431 C1437 1.363 . S
C1432 C1433 1.363 . S
C1432 C1437 1.379 . S
C1432 N1439 1.356 . S
C1433 C1432 1.363 . S
C1433 C1436 1.363 . S
N1434 C1436 1.356 . S
N1434 H1446 0.984 . S
N1434 H1447 0.985 . S
N1435 C1437 1.356 . S
N1435 H1440 0.984 . S
N1435 H1441 0.985 . S
C1436 C1430 1.379 . S
C1436 C1433 1.363 . S
C1436 N1434 1.356 . S
C1437 C1431 1.363 . S
C1437 C1432 1.379 . S
C1437 N1435 1.356 . S
N1438 C1430 1.356 . S
N1438 H1444 0.984 . S
N1438 H1445 0.984 . S
N1439 C1432 1.356 . S
N1439 H1442 0.984 . S
N1439 H1443 0.985 . S
H1440 N1435 0.984 . S
H1441 N1435 0.985 . S
H1442 N1439 0.984 . S
H1443 N1439 0.985 . S
H1444 N1438 0.984 . S
H1445 N1438 0.984 . S
H1446 N1434 0.984 . S
H1447 N1434 0.985 . S
C1448 C1449 1.363 . S
C1448 C1454 1.379 . S
C1448 N1456 1.356 . S
C1449 C1448 1.363 . S
C1449 C1455 1.363 . S
C1450 C1451 1.363 . S
C1450 C1455 1.379 . S
C1450 N1457 1.356 . S
C1451 C1450 1.363 . S
C1451 C1454 1.363 . S
N1452 C1454 1.356 . S
N1452 H1464 0.984 . S
N1452 H1465 0.985 . S
N1453 C1455 1.356 . S
N1453 H1458 0.984 . S
N1453 H1459 0.985 . S
C1454 C1448 1.379 . S
C1454 C1451 1.363 . S
C1454 N1452 1.356 . S
C1455 C1449 1.363 . S
C1455 C1450 1.379 . S
C1455 N1453 1.356 . S
N1456 C1448 1.356 . S
N1456 H1462 0.984 . S
N1456 H1463 0.984 . S
N1457 C1450 1.356 . S
N1457 H1460 0.984 . S
N1457 H1461 0.985 . S
H1458 N1453 0.984 . S
H1459 N1453 0.985 . S
H1460 N1457 0.984 . S
H1461 N1457 0.985 . S
H1462 N1456 0.984 . S
H1463 N1456 0.984 . S
H1464 N1452 0.984 . S
H1465 N1452 0.985 . S
C1466 C1467 1.363 . S
C1466 C1472 1.379 . S
C1466 N1474 1.356 . S
C1467 C1466 1.363 . S
C1467 C1473 1.363 . S
C1468 C1469 1.363 . S
C1468 C1473 1.379 . S
C1468 N1475 1.356 . S
C1469 C1468 1.363 . S
C1469 C1472 1.363 . S
N1470 C1472 1.356 . S
N1470 H1482 0.984 . S
N1470 H1483 0.985 . S
N1471 C1473 1.356 . S
N1471 H1476 0.984 . S
N1471 H1477 0.985 . S
C1472 C1466 1.379 . S
C1472 C1469 1.363 . S
C1472 N1470 1.356 . S
C1473 C1467 1.363 . S
C1473 C1468 1.379 . S
C1473 N1471 1.356 . S
N1474 C1466 1.356 . S
N1474 H1480 0.984 . S
N1474 H1481 0.984 . S
N1475 C1468 1.356 . S
N1475 H1478 0.984 1_565 S
N1475 H1479 0.985 . S
H1476 N1471 0.984 . S
H1477 N1471 0.985 . S
H1478 N1475 0.984 1_545 S
H1479 N1475 0.985 . S
H1480 N1474 0.984 . S
H1481 N1474 0.984 . S
H1482 N1470 0.984 . S
H1483 N1470 0.985 . S
C1484 C1485 1.363 . S
C1484 C1490 1.379 . S
C1484 N1492 1.356 . S
C1485 C1484 1.363 . S
C1485 C1491 1.363 . S
C1486 C1487 1.363 . S
C1486 C1491 1.379 . S
C1486 N1493 1.356 . S
C1487 C1486 1.363 . S
C1487 C1490 1.363 . S
N1488 C1490 1.356 . S
N1488 H1500 0.984 . S
N1488 H1501 0.985 . S
N1489 C1491 1.356 . S
N1489 H1494 0.984 . S
N1489 H1495 0.985 . S
C1490 C1484 1.379 . S
C1490 C1487 1.363 . S
C1490 N1488 1.356 . S
C1491 C1485 1.363 . S
C1491 C1486 1.379 . S
C1491 N1489 1.356 . S
N1492 C1484 1.356 . S
N1492 H1498 0.984 . S
N1492 H1499 0.984 . S
N1493 C1486 1.356 . S
N1493 H1496 0.984 . S
N1493 H1497 0.985 . S
H1494 N1489 0.984 . S
H1495 N1489 0.985 . S
H1496 N1493 0.984 . S
H1497 N1493 0.985 . S
H1498 N1492 0.984 . S
H1499 N1492 0.984 . S
H1500 N1488 0.984 . S
H1501 N1488 0.985 . S
C1502 C1503 1.363 . S
C1502 C1508 1.379 . S
C1502 N1510 1.356 . S
C1503 C1502 1.363 . S
C1503 C1509 1.363 . S
C1504 C1505 1.363 . S
C1504 C1509 1.379 . S
C1504 N1511 1.356 . S
C1505 C1504 1.363 . S
C1505 C1508 1.363 . S
N1506 C1508 1.356 . S
N1506 H1518 0.984 . S
N1506 H1519 0.985 . S
N1507 C1509 1.356 . S
N1507 H1512 0.984 . S
N1507 H1513 0.985 . S
C1508 C1502 1.379 . S
C1508 C1505 1.363 . S
C1508 N1506 1.356 . S
C1509 C1503 1.363 . S
C1509 C1504 1.379 . S
C1509 N1507 1.356 . S
N1510 C1502 1.356 . S
N1510 H1516 0.984 . S
N1510 H1517 0.984 . S
N1511 C1504 1.356 . S
N1511 H1514 0.984 . S
N1511 H1515 0.985 . S
H1512 N1507 0.984 . S
H1513 N1507 0.985 . S
H1514 N1511 0.984 . S
H1515 N1511 0.985 . S
H1516 N1510 0.984 . S
H1517 N1510 0.984 . S
H1518 N1506 0.984 . S
H1519 N1506 0.985 . S
C1520 C1521 1.363 . S
C1520 C1526 1.379 . S
C1520 N1528 1.356 . S
C1521 C1520 1.363 . S
C1521 C1527 1.363 . S
C1522 C1523 1.363 . S
C1522 C1527 1.379 . S
C1522 N1529 1.356 . S
C1523 C1522 1.363 . S
C1523 C1526 1.363 . S
N1524 C1526 1.356 . S
N1524 H1536 0.984 . S
N1524 H1537 0.985 . S
N1525 C1527 1.356 . S
N1525 H1530 0.984 . S
N1525 H1531 0.985 . S
C1526 C1520 1.379 . S
C1526 C1523 1.363 . S
C1526 N1524 1.356 . S
C1527 C1521 1.363 . S
C1527 C1522 1.379 . S
C1527 N1525 1.356 . S
N1528 C1520 1.356 . S
N1528 H1534 0.984 . S
N1528 H1535 0.984 . S
N1529 C1522 1.356 . S
N1529 H1532 0.984 . S
N1529 H1533 0.985 . S
H1530 N1525 0.984 . S
H1531 N1525 0.985 . S
H1532 N1529 0.984 . S
H1533 N1529 0.985 . S
H1534 N1528 0.984 . S
H1535 N1528 0.984 . S
H1536 N1524 0.984 . S
H1537 N1524 0.985 . S
C1538 C1539 1.363 . S
C1538 C1544 1.379 . S
C1538 N1546 1.356 . S
C1539 C1538 1.363 . S
C1539 C1545 1.363 . S
C1540 C1541 1.363 . S
C1540 C1545 1.379 . S
C1540 N1547 1.356 . S
C1541 C1540 1.363 . S
C1541 C1544 1.363 . S
N1542 C1544 1.356 . S
N1542 H1554 0.984 . S
N1542 H1555 0.985 . S
N1543 C1545 1.356 . S
N1543 H1548 0.984 . S
N1543 H1549 0.985 . S
C1544 C1538 1.379 . S
C1544 C1541 1.363 . S
C1544 N1542 1.356 . S
C1545 C1539 1.363 . S
C1545 C1540 1.379 . S
C1545 N1543 1.356 . S
N1546 C1538 1.356 . S
N1546 H1552 0.984 . S
N1546 H1553 0.984 . S
N1547 C1540 1.356 . S
N1547 H1550 0.984 . S
N1547 H1551 0.985 . S
H1548 N1543 0.984 . S
H1549 N1543 0.985 . S
H1550 N1547 0.984 . S
H1551 N1547 0.985 . S
H1552 N1546 0.984 . S
H1553 N1546 0.984 . S
H1554 N1542 0.984 . S
H1555 N1542 0.985 . S
C1556 C1557 1.363 . S
C1556 C1562 1.379 . S
C1556 N1564 1.356 . S
C1557 C1556 1.363 . S
C1557 C1563 1.344 1_455 S
C1558 C1559 1.363 1_655 S
C1558 C1563 1.391 . S
C1558 N1565 1.356 1_556 S
C1559 C1558 1.363 1_455 S
C1559 C1562 1.363 . S
N1560 C1562 1.356 . S
N1560 H1572 0.984 . S
N1560 H1573 0.985 . S
N1561 C1563 1.359 . S
N1561 H1566 0.984 . S
N1561 H1567 0.985 . S
C1562 C1556 1.379 . S
C1562 C1559 1.363 . S
C1562 N1560 1.356 . S
C1563 C1557 1.344 1_655 S
C1563 C1558 1.391 . S
C1563 N1561 1.359 . S
N1564 C1556 1.356 . S
N1564 H1570 0.984 . S
N1564 H1571 0.984 . S
N1565 C1558 1.356 1_554 S
N1565 H1568 0.984 . S
N1565 H1569 0.985 . S
H1566 N1561 0.984 . S
H1567 N1561 0.985 . S
H1568 N1565 0.984 . S
H1569 N1565 0.985 . S
H1570 N1564 0.984 . S
H1571 N1564 0.984 . S
H1572 N1560 0.984 . S
H1573 N1560 0.985 . S
C1574 C1575 1.363 . S
C1574 C1580 1.379 . S
C1574 N1582 1.356 . S
C1575 C1574 1.363 . S
C1575 C1581 1.363 . S
C1576 C1577 1.363 . S
C1576 C1581 1.379 . S
C1576 N1583 1.356 . S
C1577 C1576 1.363 . S
C1577 C1580 1.363 . S
N1578 C1580 1.356 . S
N1578 H1590 0.984 . S
N1578 H1591 0.985 . S
N1579 C1581 1.356 . S
N1579 H1584 0.984 . S
N1579 H1585 0.985 . S
C1580 C1574 1.379 . S
C1580 C1577 1.363 . S
C1580 N1578 1.356 . S
C1581 C1575 1.363 . S
C1581 C1576 1.379 . S
C1581 N1579 1.356 . S
N1582 C1574 1.356 . S
N1582 H1588 0.984 . S
N1582 H1589 0.984 . S
N1583 C1576 1.356 . S
N1583 H1586 0.984 . S
N1583 H1587 0.985 . S
H1584 N1579 0.984 . S
H1585 N1579 0.985 . S
H1586 N1583 0.984 . S
H1587 N1583 0.985 . S
H1588 N1582 0.984 . S
H1589 N1582 0.984 . S
H1590 N1578 0.984 . S
H1591 N1578 0.985 . S
C1592 C1593 1.363 . S
C1592 C1598 1.379 . S
C1592 N1600 1.356 . S
C1593 C1592 1.363 . S
C1593 C1599 1.363 . S
C1594 C1595 1.363 . S
C1594 C1599 1.379 . S
C1594 N1601 1.356 . S
C1595 C1594 1.363 . S
C1595 C1598 1.363 . S
N1596 C1598 1.356 . S
N1596 H1608 0.984 . S
N1596 H1609 0.985 . S
N1597 C1599 1.356 . S
N1597 H1602 0.984 . S
N1597 H1603 0.985 . S
C1598 C1592 1.379 . S
C1598 C1595 1.363 . S
C1598 N1596 1.356 . S
C1599 C1593 1.363 . S
C1599 C1594 1.379 . S
C1599 N1597 1.356 . S
N1600 C1592 1.356 . S
N1600 H1606 0.984 . S
N1600 H1607 0.984 . S
N1601 C1594 1.356 . S
N1601 H1604 0.984 . S
N1601 H1605 0.985 . S
H1602 N1597 0.984 . S
H1603 N1597 0.985 . S
H1604 N1601 0.984 . S
H1605 N1601 0.985 . S
H1606 N1600 0.984 . S
H1607 N1600 0.984 . S
H1608 N1596 0.984 . S
H1609 N1596 0.985 . S
C1610 C1611 1.363 . S
C1610 C1616 1.379 . S
C1610 N1618 1.356 . S
C1611 C1610 1.363 . S
C1611 C1617 1.363 . S
C1612 C1613 1.363 . S
C1612 C1617 1.379 . S
C1612 N1619 1.356 . S
C1613 C1612 1.363 . S
C1613 C1616 1.363 . S
N1614 C1616 1.356 . S
N1614 H1626 0.984 . S
N1614 H1627 0.985 . S
N1615 C1617 1.356 . S
N1615 H1620 0.984 . S
N1615 H1621 0.985 . S
C1616 C1610 1.379 . S
C1616 C1613 1.363 . S
C1616 N1614 1.356 . S
C1617 C1611 1.363 . S
C1617 C1612 1.379 . S
C1617 N1615 1.356 . S
N1618 C1610 1.356 . S
N1618 H1624 0.984 . S
N1618 H1625 0.984 . S
N1619 C1612 1.356 . S
N1619 H1622 0.984 . S
N1619 H1623 0.985 . S
H1620 N1615 0.984 . S
H1621 N1615 0.985 . S
H1622 N1619 0.984 . S
H1623 N1619 0.985 . S
H1624 N1618 0.984 . S
H1625 N1618 0.984 . S
H1626 N1614 0.984 . S
H1627 N1614 0.985 . S
C1628 C1629 1.363 . S
C1628 C1634 1.379 . S
C1628 N1636 1.356 . S
C1629 C1628 1.363 . S
C1629 C1635 1.363 1_655 S
C1630 C1631 1.363 1_455 S
C1630 C1635 1.379 . S
C1630 N1637 1.356 . S
C1631 C1630 1.363 1_655 S
C1631 C1634 1.363 . S
N1632 C1634 1.356 . S
N1632 H1644 0.984 . S
N1632 H1645 0.985 . S
N1633 C1635 1.356 . S
N1633 H1638 0.984 . S
N1633 H1639 0.985 . S
C1634 C1628 1.379 . S
C1634 C1631 1.363 . S
C1634 N1632 1.356 . S
C1635 C1629 1.363 1_455 S
C1635 C1630 1.379 . S
C1635 N1633 1.356 . S
N1636 C1628 1.356 . S
N1636 H1642 0.984 . S
N1636 H1643 0.984 . S
N1637 C1630 1.356 . S
N1637 H1640 0.984 . S
N1637 H1641 0.985 . S
H1638 N1633 0.984 . S
H1639 N1633 0.985 . S
H1640 N1637 0.984 . S
H1641 N1637 0.985 . S
H1642 N1636 0.984 . S
H1643 N1636 0.984 . S
H1644 N1632 0.984 . S
H1645 N1632 0.985 . S
C1646 C1647 1.363 . S
C1646 C1652 1.379 . S
C1646 N1654 1.356 . S
C1647 C1646 1.363 . S
C1647 C1653 1.363 . S
C1648 C1649 1.363 . S
C1648 C1653 1.379 . S
C1648 N1655 1.356 . S
C1649 C1648 1.363 . S
C1649 C1652 1.363 . S
N1650 C1652 1.356 . S
N1650 H1662 0.984 . S
N1650 H1663 0.985 . S
N1651 C1653 1.356 . S
N1651 H1656 0.984 . S
N1651 H1657 0.985 . S
C1652 C1646 1.379 . S
C1652 C1649 1.363 . S
C1652 N1650 1.356 . S
C1653 C1647 1.363 . S
C1653 C1648 1.379 . S
C1653 N1651 1.356 . S
N1654 C1646 1.356 . S
N1654 H1660 0.984 . S
N1654 H1661 0.984 . S
N1655 C1648 1.356 . S
N1655 H1658 0.984 . S
N1655 H1659 0.985 . S
H1656 N1651 0.984 . S
H1657 N1651 0.985 . S
H1658 N1655 0.984 . S
H1659 N1655 0.985 . S
H1660 N1654 0.984 . S
H1661 N1654 0.984 . S
H1662 N1650 0.984 . S
H1663 N1650 0.985 . S
C1664 C1665 1.363 . S
C1664 C1670 1.379 . S
C1664 N1672 1.356 . S
C1665 C1664 1.363 . S
C1665 C1671 1.363 . S
C1666 C1667 1.363 . S
C1666 C1671 1.379 . S
C1666 N1673 1.356 . S
C1667 C1666 1.363 . S
C1667 C1670 1.363 . S
N1668 C1670 1.356 . S
N1668 H1680 0.984 . S
N1668 H1681 0.985 . S
N1669 C1671 1.356 . S
N1669 H1674 0.984 . S
N1669 H1675 0.985 . S
C1670 C1664 1.379 . S
C1670 C1667 1.363 . S
C1670 N1668 1.356 . S
C1671 C1665 1.363 . S
C1671 C1666 1.379 . S
C1671 N1669 1.356 . S
N1672 C1664 1.356 . S
N1672 H1678 0.984 . S
N1672 H1679 0.984 . S
N1673 C1666 1.356 . S
N1673 H1676 0.984 . S
N1673 H1677 0.985 . S
H1674 N1669 0.984 . S
H1675 N1669 0.985 . S
H1676 N1673 0.984 . S
H1677 N1673 0.985 . S
H1678 N1672 0.984 . S
H1679 N1672 0.984 . S
H1680 N1668 0.984 . S
H1681 N1668 0.985 . S
C1682 C1683 1.363 . S
C1682 C1688 1.379 . S
C1682 N1690 1.356 . S
C1683 C1682 1.363 . S
C1683 C1689 1.363 . S
C1684 C1685 1.363 . S
C1684 C1689 1.379 . S
C1684 N1691 1.356 . S
C1685 C1684 1.363 . S
C1685 C1688 1.363 . S
N1686 C1688 1.356 . S
N1686 H1698 0.984 . S
N1686 H1699 0.985 . S
N1687 C1689 1.356 . S
N1687 H1692 0.984 . S
N1687 H1693 0.985 . S
C1688 C1682 1.379 . S
C1688 C1685 1.363 . S
C1688 N1686 1.356 . S
C1689 C1683 1.363 . S
C1689 C1684 1.379 . S
C1689 N1687 1.356 . S
N1690 C1682 1.356 . S
N1690 H1696 0.984 . S
N1690 H1697 0.984 . S
N1691 C1684 1.356 . S
N1691 H1694 0.984 . S
N1691 H1695 0.985 . S
H1692 N1687 0.984 . S
H1693 N1687 0.985 . S
H1694 N1691 0.984 . S
H1695 N1691 0.985 . S
H1696 N1690 0.984 . S
H1697 N1690 0.984 . S
H1698 N1686 0.984 . S
H1699 N1686 0.985 . S
C1700 C1701 1.363 . S
C1700 C1706 1.379 . S
C1700 N1708 1.356 . S
C1701 C1700 1.363 . S
C1701 C1707 1.363 . S
C1702 C1703 1.363 . S
C1702 C1707 1.379 . S
C1702 N1709 1.356 . S
C1703 C1702 1.363 . S
C1703 C1706 1.363 . S
N1704 C1706 1.356 . S
N1704 H1716 0.984 . S
N1704 H1717 0.985 . S
N1705 C1707 1.356 . S
N1705 H1710 0.984 . S
N1705 H1711 0.985 . S
C1706 C1700 1.379 . S
C1706 C1703 1.363 . S
C1706 N1704 1.356 . S
C1707 C1701 1.363 . S
C1707 C1702 1.379 . S
C1707 N1705 1.356 . S
N1708 C1700 1.356 . S
N1708 H1714 0.984 . S
N1708 H1715 0.984 . S
N1709 C1702 1.356 . S
N1709 H1712 0.984 . S
N1709 H1713 0.985 . S
H1710 N1705 0.984 . S
H1711 N1705 0.985 . S
H1712 N1709 0.984 . S
H1713 N1709 0.985 . S
H1714 N1708 0.984 . S
H1715 N1708 0.984 . S
H1716 N1704 0.984 . S
H1717 N1704 0.985 . S
C1718 C1719 1.363 . S
C1718 C1724 1.379 . S
C1718 N1726 1.356 . S
C1719 C1718 1.363 . S
C1719 C1725 1.363 . S
C1720 C1721 1.363 . S
C1720 C1725 1.379 . S
C1720 N1727 1.356 . S
C1721 C1720 1.363 . S
C1721 C1724 1.363 . S
N1722 C1724 1.356 . S
N1722 H1734 0.984 . S
N1722 H1735 0.985 . S
N1723 C1725 1.356 . S
N1723 H1728 0.984 . S
N1723 H1729 0.985 . S
C1724 C1718 1.379 . S
C1724 C1721 1.363 . S
C1724 N1722 1.356 . S
C1725 C1719 1.363 . S
C1725 C1720 1.379 . S
C1725 N1723 1.356 . S
N1726 C1718 1.356 . S
N1726 H1732 0.984 . S
N1726 H1733 0.984 . S
N1727 C1720 1.356 . S
N1727 H1730 0.984 . S
N1727 H1731 0.985 . S
H1728 N1723 0.984 . S
H1729 N1723 0.985 . S
H1730 N1727 0.984 . S
H1731 N1727 0.985 . S
H1732 N1726 0.984 . S
H1733 N1726 0.984 . S
H1734 N1722 0.984 . S
H1735 N1722 0.985 . S
C1736 C1737 1.363 . S
C1736 C1742 1.379 . S
C1736 N1744 1.356 . S
C1737 C1736 1.363 . S
C1737 C1743 1.363 . S
C1738 C1739 1.363 . S
C1738 C1743 1.379 . S
C1738 N1745 1.356 . S
C1739 C1738 1.363 . S
C1739 C1742 1.363 . S
N1740 C1742 1.356 . S
N1740 H1752 0.984 . S
N1740 H1753 0.985 . S
N1741 C1743 1.356 . S
N1741 H1746 0.984 . S
N1741 H1747 0.985 . S
C1742 C1736 1.379 . S
C1742 C1739 1.363 . S
C1742 N1740 1.356 . S
C1743 C1737 1.363 . S
C1743 C1738 1.379 . S
C1743 N1741 1.356 . S
N1744 C1736 1.356 . S
N1744 H1750 0.984 . S
N1744 H1751 0.984 . S
N1745 C1738 1.356 . S
N1745 H1748 0.984 . S
N1745 H1749 0.985 . S
H1746 N1741 0.984 . S
H1747 N1741 0.985 . S
H1748 N1745 0.984 . S
H1749 N1745 0.985 . S
H1750 N1744 0.984 . S
H1751 N1744 0.984 . S
H1752 N1740 0.984 . S
H1753 N1740 0.985 . S
C1754 C1755 1.363 . S
C1754 C1760 1.379 . S
C1754 N1762 1.356 . S
C1755 C1754 1.363 . S
C1755 C1761 1.363 . S
C1756 C1757 1.363 . S
C1756 C1761 1.379 . S
C1756 N1763 1.356 . S
C1757 C1756 1.363 . S
C1757 C1760 1.363 . S
N1758 C1760 1.356 . S
N1758 H1770 0.984 . S
N1758 H1771 0.985 . S
N1759 C1761 1.356 . S
N1759 H1764 0.984 . S
N1759 H1765 0.985 . S
C1760 C1754 1.379 . S
C1760 C1757 1.363 . S
C1760 N1758 1.356 . S
C1761 C1755 1.363 . S
C1761 C1756 1.379 . S
C1761 N1759 1.356 . S
N1762 C1754 1.356 . S
N1762 H1768 0.984 . S
N1762 H1769 0.984 . S
N1763 C1756 1.356 . S
N1763 H1766 0.984 . S
N1763 H1767 0.985 . S
H1764 N1759 0.984 . S
H1765 N1759 0.985 . S
H1766 N1763 0.984 . S
H1767 N1763 0.985 . S
H1768 N1762 0.984 . S
H1769 N1762 0.984 . S
H1770 N1758 0.984 . S
H1771 N1758 0.985 . S
C1772 C1773 1.363 . S
C1772 C1778 1.379 . S
C1772 N1780 1.356 . S
C1773 C1772 1.363 . S
C1773 C1779 1.363 . S
C1774 C1775 1.363 . S
C1774 C1779 1.379 . S
C1774 N1781 1.356 . S
C1775 C1774 1.363 . S
C1775 C1778 1.363 . S
N1776 C1778 1.356 . S
N1776 H1788 0.984 . S
N1776 H1789 0.985 . S
N1777 C1779 1.356 . S
N1777 H1782 0.984 . S
N1777 H1783 0.985 . S
C1778 C1772 1.379 . S
C1778 C1775 1.363 . S
C1778 N1776 1.356 . S
C1779 C1773 1.363 . S
C1779 C1774 1.379 . S
C1779 N1777 1.356 . S
N1780 C1772 1.356 . S
N1780 H1786 0.984 . S
N1780 H1787 0.984 . S
N1781 C1774 1.356 . S
N1781 H1784 0.984 1_455 S
N1781 H1785 0.985 1_455 S
H1782 N1777 0.984 . S
H1783 N1777 0.985 . S
H1784 N1781 0.984 1_655 S
H1785 N1781 0.985 1_655 S
H1786 N1780 0.984 . S
H1787 N1780 0.984 . S
H1788 N1776 0.984 . S
H1789 N1776 0.985 . S
C1790 C1791 1.363 . S
C1790 C1796 1.379 . S
C1790 N1798 1.356 . S
C1791 C1790 1.363 . S
C1791 C1797 1.363 . S
C1792 C1793 1.363 . S
C1792 C1797 1.379 . S
C1792 N1799 1.356 . S
C1793 C1792 1.363 . S
C1793 C1796 1.363 . S
N1794 C1796 1.356 . S
N1794 H1806 0.984 . S
N1794 H1807 0.985 . S
N1795 C1797 1.356 . S
N1795 H1800 0.984 . S
N1795 H1801 0.985 . S
C1796 C1790 1.379 . S
C1796 C1793 1.363 . S
C1796 N1794 1.356 . S
C1797 C1791 1.363 . S
C1797 C1792 1.379 . S
C1797 N1795 1.356 . S
N1798 C1790 1.356 . S
N1798 H1804 0.984 . S
N1798 H1805 0.984 . S
N1799 C1792 1.356 . S
N1799 H1802 0.984 . S
N1799 H1803 0.985 . S
H1800 N1795 0.984 . S
H1801 N1795 0.985 . S
H1802 N1799 0.984 . S
H1803 N1799 0.985 . S
H1804 N1798 0.984 . S
H1805 N1798 0.984 . S
H1806 N1794 0.984 . S
H1807 N1794 0.985 . S
C1808 C1809 1.363 . S
C1808 C1814 1.379 . S
C1808 N1816 1.356 . S
C1809 C1808 1.363 . S
C1809 C1815 1.363 . S
C1810 C1811 1.363 . S
C1810 C1815 1.379 . S
C1810 N1817 1.356 . S
C1811 C1810 1.363 . S
C1811 C1814 1.363 . S
N1812 C1814 1.356 . S
N1812 H1824 0.984 . S
N1812 H1825 0.985 . S
N1813 C1815 1.356 . S
N1813 H1818 0.984 . S
N1813 H1819 0.985 . S
C1814 C1808 1.379 . S
C1814 C1811 1.363 . S
C1814 N1812 1.356 . S
C1815 C1809 1.363 . S
C1815 C1810 1.379 . S
C1815 N1813 1.356 . S
N1816 C1808 1.356 . S
N1816 H1822 0.984 . S
N1816 H1823 0.984 . S
N1817 C1810 1.356 . S
N1817 H1820 0.984 . S
N1817 H1821 0.985 . S
H1818 N1813 0.984 . S
H1819 N1813 0.985 . S
H1820 N1817 0.984 . S
H1821 N1817 0.985 . S
H1822 N1816 0.984 . S
H1823 N1816 0.984 . S
H1824 N1812 0.984 . S
H1825 N1812 0.985 . S
C1826 C1827 1.363 . S
C1826 C1832 1.379 . S
C1826 N1834 1.356 . S
C1827 C1826 1.363 . S
C1827 C1833 1.363 . S
C1828 C1829 1.363 . S
C1828 C1833 1.379 . S
C1828 N1835 1.356 . S
C1829 C1828 1.363 . S
C1829 C1832 1.363 . S
N1830 C1832 1.356 . S
N1830 H1842 0.984 . S
N1830 H1843 0.985 . S
N1831 C1833 1.356 . S
N1831 H1836 0.984 . S
N1831 H1837 0.985 . S
C1832 C1826 1.379 . S
C1832 C1829 1.363 . S
C1832 N1830 1.356 . S
C1833 C1827 1.363 . S
C1833 C1828 1.379 . S
C1833 N1831 1.356 . S
N1834 C1826 1.356 . S
N1834 H1840 0.984 . S
N1834 H1841 0.984 . S
N1835 C1828 1.356 . S
N1835 H1838 0.984 . S
N1835 H1839 0.985 . S
H1836 N1831 0.984 . S
H1837 N1831 0.985 . S
H1838 N1835 0.984 . S
H1839 N1835 0.985 . S
H1840 N1834 0.984 . S
H1841 N1834 0.984 . S
H1842 N1830 0.984 . S
H1843 N1830 0.985 . S
C1844 C1845 1.363 . S
C1844 C1850 1.379 . S
C1844 N1852 1.356 . S
C1845 C1844 1.363 . S
C1845 C1851 1.363 . S
C1846 C1847 1.363 . S
C1846 C1851 1.379 . S
C1846 N1853 1.356 . S
C1847 C1846 1.363 . S
C1847 C1850 1.363 . S
N1848 C1850 1.356 . S
N1848 H1860 0.984 . S
N1848 H1861 0.985 . S
N1849 C1851 1.356 . S
N1849 H1854 0.984 . S
N1849 H1855 0.985 . S
C1850 C1844 1.379 . S
C1850 C1847 1.363 . S
C1850 N1848 1.356 . S
C1851 C1845 1.363 . S
C1851 C1846 1.379 . S
C1851 N1849 1.356 . S
N1852 C1844 1.356 . S
N1852 H1858 0.984 . S
N1852 H1859 0.984 . S
N1853 C1846 1.356 . S
N1853 H1856 0.984 . S
N1853 H1857 0.985 . S
H1854 N1849 0.984 . S
H1855 N1849 0.985 . S
H1856 N1853 0.984 . S
H1857 N1853 0.985 . S
H1858 N1852 0.984 . S
H1859 N1852 0.984 . S
H1860 N1848 0.984 . S
H1861 N1848 0.985 . S
C1862 C1863 1.363 . S
C1862 C1868 1.379 . S
C1862 N1870 1.365 . S
C1863 C1862 1.363 . S
C1863 C1869 1.363 . S
C1864 C1865 1.363 . S
C1864 C1869 1.379 . S
C1864 N1871 1.356 1_565 S
C1865 C1864 1.363 . S
C1865 C1868 1.363 . S
N1866 C1868 1.341 1_556 S
N1866 H1878 1.001 . S
N1866 H1879 0.984 1_556 S
N1867 C1869 1.356 . S
N1867 H1872 0.984 . S
N1867 H1873 0.985 . S
C1868 C1862 1.379 . S
C1868 C1865 1.363 . S
C1868 N1866 1.341 1_554 S
C1869 C1863 1.363 . S
C1869 C1864 1.379 . S
C1869 N1867 1.356 . S
N1870 C1862 1.365 . S
N1870 H1876 0.967 1_554 S
N1870 H1877 0.995 . S
N1871 C1864 1.356 1_545 S
N1871 H1874 0.984 . S
N1871 H1875 0.985 . S
H1872 N1867 0.984 . S
H1873 N1867 0.985 . S
H1874 N1871 0.984 . S
H1875 N1871 0.985 . S
H1876 N1870 0.967 1_556 S
H1877 N1870 0.995 . S
H1878 N1866 1.001 . S
H1879 N1866 0.984 1_554 S
C1880 C1881 1.363 . S
C1880 C1886 1.379 . S
C1880 N1888 1.356 . S
C1881 C1880 1.363 . S
C1881 C1887 1.363 . S
C1882 C1883 1.363 . S
C1882 C1887 1.379 . S
C1882 N1889 1.356 . S
C1883 C1882 1.363 . S
C1883 C1886 1.363 . S
N1884 C1886 1.356 . S
N1884 H1896 0.984 . S
N1884 H1897 0.985 . S
N1885 C1887 1.356 . S
N1885 H1890 0.984 . S
N1885 H1891 0.985 . S
C1886 C1880 1.379 . S
C1886 C1883 1.363 . S
C1886 N1884 1.356 . S
C1887 C1881 1.363 . S
C1887 C1882 1.379 . S
C1887 N1885 1.356 . S
N1888 C1880 1.356 . S
N1888 H1894 0.984 . S
N1888 H1895 0.984 . S
N1889 C1882 1.356 . S
N1889 H1892 0.984 . S
N1889 H1893 0.985 . S
H1890 N1885 0.984 . S
H1891 N1885 0.985 . S
H1892 N1889 0.984 . S
H1893 N1889 0.985 . S
H1894 N1888 0.984 . S
H1895 N1888 0.984 . S
H1896 N1884 0.984 . S
H1897 N1884 0.985 . S
C1898 C1899 1.363 . S
C1898 C1904 1.379 . S
C1898 N1906 1.356 . S
C1899 C1898 1.363 . S
C1899 C1905 1.363 . S
C1900 C1901 1.363 . S
C1900 C1905 1.379 . S
C1900 N1907 1.356 . S
C1901 C1900 1.363 . S
C1901 C1904 1.363 . S
N1902 C1904 1.356 . S
N1902 H1914 0.984 . S
N1902 H1915 0.985 . S
N1903 C1905 1.356 . S
N1903 H1908 0.984 1_554 S
N1903 H1909 0.985 1_554 S
C1904 C1898 1.379 . S
C1904 C1901 1.363 . S
C1904 N1902 1.356 . S
C1905 C1899 1.363 . S
C1905 C1900 1.379 . S
C1905 N1903 1.356 . S
N1906 C1898 1.356 . S
N1906 H1912 0.984 . S
N1906 H1913 0.984 . S
N1907 C1900 1.356 . S
N1907 H1910 0.984 . S
N1907 H1911 0.985 . S
H1908 N1903 0.984 1_556 S
H1909 N1903 0.985 1_556 S
H1910 N1907 0.984 . S
H1911 N1907 0.985 . S
H1912 N1906 0.984 . S
H1913 N1906 0.984 . S
H1914 N1902 0.984 . S
H1915 N1902 0.985 . S
C1916 C1917 1.363 . S
C1916 C1922 1.379 . S
C1916 N1924 1.356 . S
C1917 C1916 1.363 . S
C1917 C1923 1.363 . S
C1918 C1919 1.363 . S
C1918 C1923 1.379 . S
C1918 N1925 1.356 . S
C1919 C1918 1.363 . S
C1919 C1922 1.363 . S
N1920 C1922 1.356 . S
N1920 H1932 0.984 . S
N1920 H1933 0.985 . S
N1921 C1923 1.356 . S
N1921 H1926 0.984 . S
N1921 H1927 0.985 . S
C1922 C1916 1.379 . S
C1922 C1919 1.363 . S
C1922 N1920 1.356 . S
C1923 C1917 1.363 . S
C1923 C1918 1.379 . S
C1923 N1921 1.356 . S
N1924 C1916 1.356 . S
N1924 H1930 0.984 . S
N1924 H1931 0.984 . S
N1925 C1918 1.356 . S
N1925 H1928 0.984 . S
N1925 H1929 0.985 . S
H1926 N1921 0.984 . S
H1927 N1921 0.985 . S
H1928 N1925 0.984 . S
H1929 N1925 0.985 . S
H1930 N1924 0.984 . S
H1931 N1924 0.984 . S
H1932 N1920 0.984 . S
H1933 N1920 0.985 . S
C1934 C1935 1.363 . S
C1934 C1940 1.379 . S
C1934 N1942 1.356 . S
C1935 C1934 1.363 . S
C1935 C1941 1.363 . S
C1936 C1937 1.363 . S
C1936 C1941 1.379 . S
C1936 N1943 1.356 . S
C1937 C1936 1.363 . S
C1937 C1940 1.363 . S
N1938 C1940 1.356 . S
N1938 H1950 0.984 . S
N1938 H1951 0.985 . S
N1939 C1941 1.356 . S
N1939 H1944 0.984 . S
N1939 H1945 0.985 . S
C1940 C1934 1.379 . S
C1940 C1937 1.363 . S
C1940 N1938 1.356 . S
C1941 C1935 1.363 . S
C1941 C1936 1.379 . S
C1941 N1939 1.356 . S
N1942 C1934 1.356 . S
N1942 H1948 0.984 . S
N1942 H1949 0.984 . S
N1943 C1936 1.356 . S
N1943 H1946 0.984 . S
N1943 H1947 0.985 . S
H1944 N1939 0.984 . S
H1945 N1939 0.985 . S
H1946 N1943 0.984 . S
H1947 N1943 0.985 . S
H1948 N1942 0.984 . S
H1949 N1942 0.984 . S
H1950 N1938 0.984 . S
H1951 N1938 0.985 . S
C1952 C1953 1.363 . S
C1952 C1958 1.379 . S
C1952 N1960 1.356 . S
C1953 C1952 1.363 . S
C1953 C1959 1.363 . S
C1954 C1955 1.363 . S
C1954 C1959 1.379 . S
C1954 N1961 1.356 . S
C1955 C1954 1.363 . S
C1955 C1958 1.363 . S
N1956 C1958 1.356 . S
N1956 H1968 0.984 . S
N1956 H1969 0.985 . S
N1957 C1959 1.356 . S
N1957 H1962 0.984 . S
N1957 H1963 0.985 . S
C1958 C1952 1.379 . S
C1958 C1955 1.363 . S
C1958 N1956 1.356 . S
C1959 C1953 1.363 . S
C1959 C1954 1.379 . S
C1959 N1957 1.356 . S
N1960 C1952 1.356 . S
N1960 H1966 0.984 . S
N1960 H1967 0.984 . S
N1961 C1954 1.356 . S
N1961 H1964 0.984 . S
N1961 H1965 0.985 . S
H1962 N1957 0.984 . S
H1963 N1957 0.985 . S
H1964 N1961 0.984 . S
H1965 N1961 0.985 . S
H1966 N1960 0.984 . S
H1967 N1960 0.984 . S
H1968 N1956 0.984 . S
H1969 N1956 0.985 . S
C1970 C1971 1.363 . S
C1970 C1976 1.379 . S
C1970 N1978 1.356 . S
C1971 C1970 1.363 . S
C1971 C1977 1.363 . S
C1972 C1973 1.363 . S
C1972 C1977 1.379 . S
C1972 N1979 1.356 . S
C1973 C1972 1.363 . S
C1973 C1976 1.363 . S
N1974 C1976 1.356 . S
N1974 H1986 0.984 . S
N1974 H1987 0.985 . S
N1975 C1977 1.356 . S
N1975 H1980 0.984 . S
N1975 H1981 0.985 . S
C1976 C1970 1.379 . S
C1976 C1973 1.363 . S
C1976 N1974 1.356 . S
C1977 C1971 1.363 . S
C1977 C1972 1.379 . S
C1977 N1975 1.356 . S
N1978 C1970 1.356 . S
N1978 H1984 0.984 . S
N1978 H1985 0.984 . S
N1979 C1972 1.356 . S
N1979 H1982 0.984 . S
N1979 H1983 0.985 . S
H1980 N1975 0.984 . S
H1981 N1975 0.985 . S
H1982 N1979 0.984 . S
H1983 N1979 0.985 . S
H1984 N1978 0.984 . S
H1985 N1978 0.984 . S
H1986 N1974 0.984 . S
H1987 N1974 0.985 . S
C1988 C1989 1.363 . S
C1988 C1994 1.379 . S
C1988 N1996 1.356 . S
C1989 C1988 1.363 . S
C1989 C1995 1.363 1_455 S
C1990 C1991 1.363 1_655 S
C1990 C1995 1.379 . S
C1990 N1997 1.356 . S
C1991 C1990 1.363 1_455 S
C1991 C1994 1.363 . S
N1992 C1994 1.356 . S
N1992 H2004 0.984 . S
N1992 H2005 0.985 . S
N1993 C1995 1.356 . S
N1993 H1998 0.984 . S
N1993 H1999 0.985 . S
C1994 C1988 1.379 . S
C1994 C1991 1.363 . S
C1994 N1992 1.356 . S
C1995 C1989 1.363 1_655 S
C1995 C1990 1.379 . S
C1995 N1993 1.356 . S
N1996 C1988 1.356 . S
N1996 H2002 0.984 . S
N1996 H2003 0.984 . S
N1997 C1990 1.356 . S
N1997 H2000 0.984 . S
N1997 H2001 0.985 . S
H1998 N1993 0.984 . S
H1999 N1993 0.985 . S
H2000 N1997 0.984 . S
H2001 N1997 0.985 . S
H2002 N1996 0.984 . S
H2003 N1996 0.984 . S
H2004 N1992 0.984 . S
H2005 N1992 0.985 . S
C2006 C2007 1.363 . S
C2006 C2012 1.379 . S
C2006 N2014 1.356 . S
C2007 C2006 1.363 . S
C2007 C2013 1.363 . S
C2008 C2009 1.363 . S
C2008 C2013 1.379 . S
C2008 N2015 1.356 . S
C2009 C2008 1.363 . S
C2009 C2012 1.363 . S
N2010 C2012 1.356 . S
N2010 H2022 0.984 . S
N2010 H2023 0.985 . S
N2011 C2013 1.356 . S
N2011 H2016 0.984 . S
N2011 H2017 0.985 . S
C2012 C2006 1.379 . S
C2012 C2009 1.363 . S
C2012 N2010 1.356 . S
C2013 C2007 1.363 . S
C2013 C2008 1.379 . S
C2013 N2011 1.356 . S
N2014 C2006 1.356 . S
N2014 H2020 0.984 . S
N2014 H2021 0.984 . S
N2015 C2008 1.356 . S
N2015 H2018 0.984 . S
N2015 H2019 0.985 . S
H2016 N2011 0.984 . S
H2017 N2011 0.985 . S
H2018 N2015 0.984 . S
H2019 N2015 0.985 . S
H2020 N2014 0.984 . S
H2021 N2014 0.984 . S
H2022 N2010 0.984 . S
H2023 N2010 0.985 . S
C2024 C2025 1.363 . S
C2024 C2030 1.379 . S
C2024 N2032 1.356 . S
C2025 C2024 1.363 . S
C2025 C2031 1.363 . S
C2026 C2027 1.363 . S
C2026 C2031 1.379 . S
C2026 N2033 1.356 1_556 S
C2027 C2026 1.363 . S
C2027 C2030 1.363 . S
N2028 C2030 1.356 . S
N2028 H2040 0.984 . S
N2028 H2041 0.985 . S
N2029 C2031 1.356 . S
N2029 H2034 0.984 . S
N2029 H2035 0.985 . S
C2030 C2024 1.379 . S
C2030 C2027 1.363 . S
C2030 N2028 1.356 . S
C2031 C2025 1.363 . S
C2031 C2026 1.379 . S
C2031 N2029 1.356 . S
N2032 C2024 1.356 . S
N2032 H2038 0.984 . S
N2032 H2039 0.984 . S
N2033 C2026 1.356 1_554 S
N2033 H2036 0.984 . S
N2033 H2037 0.985 . S
H2034 N2029 0.984 . S
H2035 N2029 0.985 . S
H2036 N2033 0.984 . S
H2037 N2033 0.985 . S
H2038 N2032 0.984 . S
H2039 N2032 0.984 . S
H2040 N2028 0.984 . S
H2041 N2028 0.985 . S
C2042 C2043 1.363 . S
C2042 C2048 1.379 . S
C2042 N2050 1.356 . S
C2043 C2042 1.363 . S
C2043 C2049 1.363 . S
C2044 C2045 1.363 . S
C2044 C2049 1.379 . S
C2044 N2051 1.356 . S
C2045 C2044 1.363 . S
C2045 C2048 1.363 . S
N2046 C2048 1.356 . S
N2046 H2058 0.984 . S
N2046 H2059 0.985 . S
N2047 C2049 1.356 . S
N2047 H2052 0.984 . S
N2047 H2053 0.985 . S
C2048 C2042 1.379 . S
C2048 C2045 1.363 . S
C2048 N2046 1.356 . S
C2049 C2043 1.363 . S
C2049 C2044 1.379 . S
C2049 N2047 1.356 . S
N2050 C2042 1.356 . S
N2050 H2056 0.984 . S
N2050 H2057 0.984 . S
N2051 C2044 1.356 . S
N2051 H2054 0.984 . S
N2051 H2055 0.985 . S
H2052 N2047 0.984 . S
H2053 N2047 0.985 . S
H2054 N2051 0.984 . S
H2055 N2051 0.985 . S
H2056 N2050 0.984 . S
H2057 N2050 0.984 . S
H2058 N2046 0.984 . S
H2059 N2046 0.985 . S
C2060 C2061 1.363 . S
C2060 C2066 1.379 . S
C2060 N2068 1.356 . S
C2061 C2060 1.363 . S
C2061 C2067 1.363 1_455 S
C2062 C2063 1.363 1_655 S
C2062 C2067 1.379 . S
C2062 N2069 1.356 . S
C2063 C2062 1.363 1_455 S
C2063 C2066 1.363 . S
N2064 C2066 1.356 . S
N2064 H2076 0.984 . S
N2064 H2077 0.985 . S
N2065 C2067 1.356 . S
N2065 H2070 0.984 . S
N2065 H2071 0.985 . S
C2066 C2060 1.379 . S
C2066 C2063 1.363 . S
C2066 N2064 1.356 . S
C2067 C2061 1.363 1_655 S
C2067 C2062 1.379 . S
C2067 N2065 1.356 . S
N2068 C2060 1.356 . S
N2068 H2074 0.984 . S
N2068 H2075 0.984 . S
N2069 C2062 1.356 . S
N2069 H2072 0.984 . S
N2069 H2073 0.985 . S
H2070 N2065 0.984 . S
H2071 N2065 0.985 . S
H2072 N2069 0.984 . S
H2073 N2069 0.985 . S
H2074 N2068 0.984 . S
H2075 N2068 0.984 . S
H2076 N2064 0.984 . S
H2077 N2064 0.985 . S
C2078 C2079 1.363 . S
C2078 C2084 1.379 . S
C2078 N2086 1.356 . S
C2079 C2078 1.363 . S
C2079 C2085 1.363 . S
C2080 C2081 1.363 . S
C2080 C2085 1.379 . S
C2080 N2087 1.356 . S
C2081 C2080 1.363 . S
C2081 C2084 1.363 . S
N2082 C2084 1.356 . S
N2082 H2094 0.984 . S
N2082 H2095 0.985 . S
N2083 C2085 1.356 . S
N2083 H2088 0.984 . S
N2083 H2089 0.985 . S
C2084 C2078 1.379 . S
C2084 C2081 1.363 . S
C2084 N2082 1.356 . S
C2085 C2079 1.363 . S
C2085 C2080 1.379 . S
C2085 N2083 1.356 . S
N2086 C2078 1.356 . S
N2086 H2092 0.984 . S
N2086 H2093 0.984 . S
N2087 C2080 1.356 . S
N2087 H2090 0.984 . S
N2087 H2091 0.985 . S
H2088 N2083 0.984 . S
H2089 N2083 0.985 . S
H2090 N2087 0.984 . S
H2091 N2087 0.985 . S
H2092 N2086 0.984 . S
H2093 N2086 0.984 . S
H2094 N2082 0.984 . S
H2095 N2082 0.985 . S
C2096 C2097 1.363 . S
C2096 C2102 1.379 . S
C2096 N2104 1.356 . S
C2097 C2096 1.363 . S
C2097 C2103 1.363 . S
C2098 C2099 1.363 . S
C2098 C2103 1.379 . S
C2098 N2105 1.356 . S
C2099 C2098 1.363 . S
C2099 C2102 1.363 . S
N2100 C2102 1.356 . S
N2100 H2112 0.984 . S
N2100 H2113 0.985 . S
N2101 C2103 1.356 . S
N2101 H2106 0.984 . S
N2101 H2107 0.985 . S
C2102 C2096 1.379 . S
C2102 C2099 1.363 . S
C2102 N2100 1.356 . S
C2103 C2097 1.363 . S
C2103 C2098 1.379 . S
C2103 N2101 1.356 . S
N2104 C2096 1.356 . S
N2104 H2110 0.984 . S
N2104 H2111 0.984 . S
N2105 C2098 1.356 . S
N2105 H2108 0.984 . S
N2105 H2109 0.985 . S
H2106 N2101 0.984 . S
H2107 N2101 0.985 . S
H2108 N2105 0.984 . S
H2109 N2105 0.985 . S
H2110 N2104 0.984 . S
H2111 N2104 0.984 . S
H2112 N2100 0.984 . S
H2113 N2100 0.985 . S
C2114 C2115 1.363 . S
C2114 C2120 1.379 . S
C2114 N2122 1.356 . S
C2115 C2114 1.363 . S
C2115 C2121 1.363 . S
C2116 C2117 1.363 . S
C2116 C2121 1.379 . S
C2116 N2123 1.356 . S
C2117 C2116 1.363 . S
C2117 C2120 1.363 . S
N2118 C2120 1.356 . S
N2118 H2130 0.984 . S
N2118 H2131 0.985 . S
N2119 C2121 1.356 . S
N2119 H2124 0.984 . S
N2119 H2125 0.985 . S
C2120 C2114 1.379 . S
C2120 C2117 1.363 . S
C2120 N2118 1.356 . S
C2121 C2115 1.363 . S
C2121 C2116 1.379 . S
C2121 N2119 1.356 . S
N2122 C2114 1.356 . S
N2122 H2128 0.984 . S
N2122 H2129 0.984 . S
N2123 C2116 1.356 . S
N2123 H2126 0.984 . S
N2123 H2127 0.985 . S
H2124 N2119 0.984 . S
H2125 N2119 0.985 . S
H2126 N2123 0.984 . S
H2127 N2123 0.985 . S
H2128 N2122 0.984 . S
H2129 N2122 0.984 . S
H2130 N2118 0.984 . S
H2131 N2118 0.985 . S
C2132 C2133 1.363 . S
C2132 C2138 1.381 . S
C2132 N2140 1.356 . S
C2133 C2132 1.363 . S
C2133 C2139 1.363 . S
C2134 C2135 1.363 . S
C2134 C2139 1.379 . S
C2134 N2141 1.356 . S
C2135 C2134 1.363 . S
C2135 C2138 1.364 . S
N2136 C2138 1.353 1_455 S
N2136 H2148 0.984 . S
N2136 H2149 0.985 . S
N2137 C2139 1.356 . S
N2137 H2142 0.984 . S
N2137 H2143 0.985 . S
C2138 C2132 1.381 . S
C2138 C2135 1.364 . S
C2138 N2136 1.353 1_655 S
C2139 C2133 1.363 . S
C2139 C2134 1.379 . S
C2139 N2137 1.356 . S
N2140 C2132 1.356 . S
N2140 H2146 0.984 1_655 S
N2140 H2147 0.984 . S
N2141 C2134 1.356 . S
N2141 H2144 0.984 . S
N2141 H2145 0.985 . S
H2142 N2137 0.984 . S
H2143 N2137 0.985 . S
H2144 N2141 0.984 . S
H2145 N2141 0.985 . S
H2146 N2140 0.984 1_455 S
H2147 N2140 0.984 . S
H2148 N2136 0.984 . S
H2149 N2136 0.985 . S
C2150 C2151 1.363 . S
C2150 C2156 1.379 . S
C2150 N2158 1.356 . S
C2151 C2150 1.363 . S
C2151 C2157 1.363 . S
C2152 C2153 1.363 . S
C2152 C2157 1.379 . S
C2152 N2159 1.356 . S
C2153 C2152 1.363 . S
C2153 C2156 1.363 . S
N2154 C2156 1.356 . S
N2154 H2166 0.984 . S
N2154 H2167 0.985 . S
N2155 C2157 1.356 . S
N2155 H2160 0.984 . S
N2155 H2161 0.985 . S
C2156 C2150 1.379 . S
C2156 C2153 1.363 . S
C2156 N2154 1.356 . S
C2157 C2151 1.363 . S
C2157 C2152 1.379 . S
C2157 N2155 1.356 . S
N2158 C2150 1.356 . S
N2158 H2164 0.984 . S
N2158 H2165 0.984 . S
N2159 C2152 1.356 . S
N2159 H2162 0.984 . S
N2159 H2163 0.985 . S
H2160 N2155 0.984 . S
H2161 N2155 0.985 . S
H2162 N2159 0.984 . S
H2163 N2159 0.985 . S
H2164 N2158 0.984 . S
H2165 N2158 0.984 . S
H2166 N2154 0.984 . S
H2167 N2154 0.985 . S
C2168 C2169 1.363 . S
C2168 C2174 1.379 . S
C2168 N2176 1.356 . S
C2169 C2168 1.363 . S
C2169 C2175 1.363 . S
C2170 C2171 1.363 . S
C2170 C2175 1.379 . S
C2170 N2177 1.356 . S
C2171 C2170 1.363 . S
C2171 C2174 1.363 . S
N2172 C2174 1.356 . S
N2172 H2184 0.984 . S
N2172 H2185 0.985 . S
N2173 C2175 1.356 . S
N2173 H2178 0.984 . S
N2173 H2179 0.985 . S
C2174 C2168 1.379 . S
C2174 C2171 1.363 . S
C2174 N2172 1.356 . S
C2175 C2169 1.363 . S
C2175 C2170 1.379 . S
C2175 N2173 1.356 . S
N2176 C2168 1.356 . S
N2176 H2182 0.984 . S
N2176 H2183 0.984 . S
N2177 C2170 1.356 . S
N2177 H2180 0.984 . S
N2177 H2181 0.985 . S
H2178 N2173 0.984 . S
H2179 N2173 0.985 . S
H2180 N2177 0.984 . S
H2181 N2177 0.985 . S
H2182 N2176 0.984 . S
H2183 N2176 0.984 . S
H2184 N2172 0.984 . S
H2185 N2172 0.985 . S
C2186 C2187 1.363 . S
C2186 C2192 1.379 . S
C2186 N2194 1.356 . S
C2187 C2186 1.363 . S
C2187 C2193 1.363 . S
C2188 C2189 1.363 . S
C2188 C2193 1.379 . S
C2188 N2195 1.356 . S
C2189 C2188 1.363 . S
C2189 C2192 1.363 . S
N2190 C2192 1.356 . S
N2190 H2202 0.984 . S
N2190 H2203 0.985 . S
N2191 C2193 1.356 . S
N2191 H2196 0.984 . S
N2191 H2197 0.985 . S
C2192 C2186 1.379 . S
C2192 C2189 1.363 . S
C2192 N2190 1.356 . S
C2193 C2187 1.363 . S
C2193 C2188 1.379 . S
C2193 N2191 1.356 . S
N2194 C2186 1.356 . S
N2194 H2200 0.984 . S
N2194 H2201 0.984 . S
N2195 C2188 1.356 . S
N2195 H2198 0.984 . S
N2195 H2199 0.985 . S
H2196 N2191 0.984 . S
H2197 N2191 0.985 . S
H2198 N2195 0.984 . S
H2199 N2195 0.985 . S
H2200 N2194 0.984 . S
H2201 N2194 0.984 . S
H2202 N2190 0.984 . S
H2203 N2190 0.985 . S
C2204 C2205 1.363 . S
C2204 C2210 1.379 . S
C2204 N2212 1.356 . S
C2205 C2204 1.363 . S
C2205 C2211 1.363 . S
C2206 C2207 1.363 . S
C2206 C2211 1.379 . S
C2206 N2213 1.356 . S
C2207 C2206 1.363 . S
C2207 C2210 1.363 . S
N2208 C2210 1.356 . S
N2208 H2220 0.984 . S
N2208 H2221 0.985 . S
N2209 C2211 1.356 . S
N2209 H2214 0.984 . S
N2209 H2215 0.985 . S
C2210 C2204 1.379 . S
C2210 C2207 1.363 . S
C2210 N2208 1.356 . S
C2211 C2205 1.363 . S
C2211 C2206 1.379 . S
C2211 N2209 1.356 . S
N2212 C2204 1.356 . S
N2212 H2218 0.984 . S
N2212 H2219 0.984 . S
N2213 C2206 1.356 . S
N2213 H2216 0.984 . S
N2213 H2217 0.985 . S
H2214 N2209 0.984 . S
H2215 N2209 0.985 . S
H2216 N2213 0.984 . S
H2217 N2213 0.985 . S
H2218 N2212 0.984 . S
H2219 N2212 0.984 . S
H2220 N2208 0.984 . S
H2221 N2208 0.985 . S
C2222 C2223 1.363 . S
C2222 C2228 1.379 . S
C2222 N2230 1.356 . S
C2223 C2222 1.363 . S
C2223 C2229 1.363 . S
C2224 C2225 1.363 . S
C2224 C2229 1.379 . S
C2224 N2231 1.356 . S
C2225 C2224 1.363 . S
C2225 C2228 1.363 . S
N2226 C2228 1.356 . S
N2226 H2238 0.984 . S
N2226 H2239 0.985 . S
N2227 C2229 1.356 . S
N2227 H2232 0.984 . S
N2227 H2233 0.985 . S
C2228 C2222 1.379 . S
C2228 C2225 1.363 . S
C2228 N2226 1.356 . S
C2229 C2223 1.363 . S
C2229 C2224 1.379 . S
C2229 N2227 1.356 . S
N2230 C2222 1.356 . S
N2230 H2236 0.984 . S
N2230 H2237 0.984 . S
N2231 C2224 1.356 . S
N2231 H2234 0.984 . S
N2231 H2235 0.985 . S
H2232 N2227 0.984 . S
H2233 N2227 0.985 . S
H2234 N2231 0.984 . S
H2235 N2231 0.985 . S
H2236 N2230 0.984 . S
H2237 N2230 0.984 . S
H2238 N2226 0.984 . S
H2239 N2226 0.985 . S
C2240 C2241 1.363 . S
C2240 C2246 1.379 . S
C2240 N2248 1.356 . S
C2241 C2240 1.363 . S
C2241 C2247 1.363 . S
C2242 C2243 1.363 . S
C2242 C2247 1.379 . S
C2242 N2249 1.356 . S
C2243 C2242 1.363 . S
C2243 C2246 1.363 . S
N2244 C2246 1.356 . S
N2244 H2256 0.984 . S
N2244 H2257 0.985 . S
N2245 C2247 1.356 . S
N2245 H2250 0.984 . S
N2245 H2251 0.985 . S
C2246 C2240 1.379 . S
C2246 C2243 1.363 . S
C2246 N2244 1.356 . S
C2247 C2241 1.363 . S
C2247 C2242 1.379 . S
C2247 N2245 1.356 . S
N2248 C2240 1.356 . S
N2248 H2254 0.984 . S
N2248 H2255 0.984 . S
N2249 C2242 1.356 . S
N2249 H2252 0.984 . S
N2249 H2253 0.985 . S
H2250 N2245 0.984 . S
H2251 N2245 0.985 . S
H2252 N2249 0.984 . S
H2253 N2249 0.985 . S
H2254 N2248 0.984 . S
H2255 N2248 0.984 . S
H2256 N2244 0.984 . S
H2257 N2244 0.985 . S
C2258 C2259 1.363 . S
C2258 C2264 1.379 . S
C2258 N2266 1.356 . S
C2259 C2258 1.363 . S
C2259 C2265 1.363 . S
C2260 C2261 1.363 . S
C2260 C2265 1.379 . S
C2260 N2267 1.356 1_565 S
C2261 C2260 1.363 . S
C2261 C2264 1.363 . S
N2262 C2264 1.356 . S
N2262 H2274 0.984 . S
N2262 H2275 0.985 . S
N2263 C2265 1.356 . S
N2263 H2268 0.984 . S
N2263 H2269 0.985 . S
C2264 C2258 1.379 . S
C2264 C2261 1.363 . S
C2264 N2262 1.356 . S
C2265 C2259 1.363 . S
C2265 C2260 1.379 . S
C2265 N2263 1.356 . S
N2266 C2258 1.356 . S
N2266 H2272 0.984 . S
N2266 H2273 0.984 . S
N2267 C2260 1.356 1_545 S
N2267 H2270 0.984 . S
N2267 H2271 0.985 . S
H2268 N2263 0.984 . S
H2269 N2263 0.985 . S
H2270 N2267 0.984 . S
H2271 N2267 0.985 . S
H2272 N2266 0.984 . S
H2273 N2266 0.984 . S
H2274 N2262 0.984 . S
H2275 N2262 0.985 . S
C2276 C2277 1.363 . S
C2276 C2282 1.379 . S
C2276 N2284 1.356 . S
C2277 C2276 1.363 . S
C2277 C2283 1.363 . S
C2278 C2279 1.363 . S
C2278 C2283 1.379 . S
C2278 N2285 1.356 . S
C2279 C2278 1.363 . S
C2279 C2282 1.363 . S
N2280 C2282 1.356 . S
N2280 H2292 0.984 . S
N2280 H2293 0.985 . S
N2281 C2283 1.356 . S
N2281 H2286 0.984 . S
N2281 H2287 0.985 . S
C2282 C2276 1.379 . S
C2282 C2279 1.363 . S
C2282 N2280 1.356 . S
C2283 C2277 1.363 . S
C2283 C2278 1.379 . S
C2283 N2281 1.356 . S
N2284 C2276 1.356 . S
N2284 H2290 0.984 . S
N2284 H2291 0.984 . S
N2285 C2278 1.356 . S
N2285 H2288 0.984 . S
N2285 H2289 0.985 . S
H2286 N2281 0.984 . S
H2287 N2281 0.985 . S
H2288 N2285 0.984 . S
H2289 N2285 0.985 . S
H2290 N2284 0.984 . S
H2291 N2284 0.984 . S
H2292 N2280 0.984 . S
H2293 N2280 0.985 . S
C2294 C2295 1.363 . S
C2294 C2300 1.379 . S
C2294 N2302 1.356 . S
C2295 C2294 1.363 . S
C2295 C2301 1.363 1_554 S
C2296 C2297 1.363 1_556 S
C2296 C2301 1.379 . S
C2296 N2303 1.356 . S
C2297 C2296 1.363 1_554 S
C2297 C2300 1.363 . S
N2298 C2300 1.356 . S
N2298 H2310 0.984 . S
N2298 H2311 0.985 . S
N2299 C2301 1.356 . S
N2299 H2304 0.984 . S
N2299 H2305 0.985 . S
C2300 C2294 1.379 . S
C2300 C2297 1.363 . S
C2300 N2298 1.356 . S
C2301 C2295 1.363 1_556 S
C2301 C2296 1.379 . S
C2301 N2299 1.356 . S
N2302 C2294 1.356 . S
N2302 H2308 0.984 . S
N2302 H2309 0.984 . S
N2303 C2296 1.356 . S
N2303 H2306 0.984 . S
N2303 H2307 0.985 . S
H2304 N2299 0.984 . S
H2305 N2299 0.985 . S
H2306 N2303 0.984 . S
H2307 N2303 0.985 . S
H2308 N2302 0.984 . S
H2309 N2302 0.984 . S
H2310 N2298 0.984 . S
H2311 N2298 0.985 . S
C2312 C2313 1.363 . S
C2312 C2318 1.379 . S
C2312 N2320 1.356 . S
C2313 C2312 1.363 . S
C2313 C2319 1.363 . S
C2314 C2315 1.363 . S
C2314 C2319 1.379 . S
C2314 N2321 1.356 . S
C2315 C2314 1.363 . S
C2315 C2318 1.363 . S
N2316 C2318 1.356 . S
N2316 H2328 0.984 . S
N2316 H2329 0.985 . S
N2317 C2319 1.356 . S
N2317 H2322 0.984 . S
N2317 H2323 0.985 . S
C2318 C2312 1.379 . S
C2318 C2315 1.363 . S
C2318 N2316 1.356 . S
C2319 C2313 1.363 . S
C2319 C2314 1.379 . S
C2319 N2317 1.356 . S
N2320 C2312 1.356 . S
N2320 H2326 0.984 . S
N2320 H2327 0.984 . S
N2321 C2314 1.356 . S
N2321 H2324 0.984 . S
N2321 H2325 0.985 . S
H2322 N2317 0.984 . S
H2323 N2317 0.985 . S
H2324 N2321 0.984 . S
H2325 N2321 0.985 . S
H2326 N2320 0.984 . S
H2327 N2320 0.984 . S
H2328 N2316 0.984 . S
H2329 N2316 0.985 . S
C2330 C2331 1.363 . S
C2330 C2336 1.379 . S
C2330 N2338 1.356 . S
C2331 C2330 1.363 . S
C2331 C2337 1.363 . S
C2332 C2333 1.363 1_556 S
C2332 C2337 1.379 1_556 S
C2332 N2339 1.356 . S
C2333 C2332 1.363 1_554 S
C2333 C2336 1.363 . S
N2334 C2336 1.356 . S
N2334 H2346 0.984 . S
N2334 H2347 0.985 . S
N2335 C2337 1.356 1_556 S
N2335 H2340 0.984 1_556 S
N2335 H2341 0.985 . S
C2336 C2330 1.379 . S
C2336 C2333 1.363 . S
C2336 N2334 1.356 . S
C2337 C2331 1.363 . S
C2337 C2332 1.379 1_554 S
C2337 N2335 1.356 1_554 S
N2338 C2330 1.356 . S
N2338 H2344 0.984 . S
N2338 H2345 0.984 . S
N2339 C2332 1.356 . S
N2339 H2342 0.984 . S
N2339 H2343 0.985 . S
H2340 N2335 0.984 1_554 S
H2341 N2335 0.985 . S
H2342 N2339 0.984 . S
H2343 N2339 0.985 . S
H2344 N2338 0.984 . S
H2345 N2338 0.984 . S
H2346 N2334 0.984 . S
H2347 N2334 0.985 . S
C2348 C2349 1.363 . S
C2348 C2354 1.379 . S
C2348 N2356 1.356 . S
C2349 C2348 1.363 . S
C2349 C2355 1.363 . S
C2350 C2351 1.363 . S
C2350 C2355 1.379 . S
C2350 N2357 1.356 . S
C2351 C2350 1.363 . S
C2351 C2354 1.363 . S
N2352 C2354 1.356 . S
N2352 H2364 0.984 . S
N2352 H2365 0.985 . S
N2353 C2355 1.356 . S
N2353 H2358 0.984 . S
N2353 H2359 0.985 . S
C2354 C2348 1.379 . S
C2354 C2351 1.363 . S
C2354 N2352 1.356 . S
C2355 C2349 1.363 . S
C2355 C2350 1.379 . S
C2355 N2353 1.356 . S
N2356 C2348 1.356 . S
N2356 H2362 0.984 . S
N2356 H2363 0.984 . S
N2357 C2350 1.356 . S
N2357 H2360 0.984 . S
N2357 H2361 0.985 . S
H2358 N2353 0.984 . S
H2359 N2353 0.985 . S
H2360 N2357 0.984 . S
H2361 N2357 0.985 . S
H2362 N2356 0.984 . S
H2363 N2356 0.984 . S
H2364 N2352 0.984 . S
H2365 N2352 0.985 . S
C2366 C2367 1.363 . S
C2366 C2372 1.379 . S
C2366 N2374 1.356 . S
C2367 C2366 1.363 . S
C2367 C2373 1.363 . S
C2368 C2369 1.363 . S
C2368 C2373 1.379 . S
C2368 N2375 1.356 . S
C2369 C2368 1.363 . S
C2369 C2372 1.363 . S
N2370 C2372 1.356 . S
N2370 H2382 0.984 . S
N2370 H2383 0.985 . S
N2371 C2373 1.356 . S
N2371 H2376 0.984 . S
N2371 H2377 0.985 . S
C2372 C2366 1.379 . S
C2372 C2369 1.363 . S
C2372 N2370 1.356 . S
C2373 C2367 1.363 . S
C2373 C2368 1.379 . S
C2373 N2371 1.356 . S
N2374 C2366 1.356 . S
N2374 H2380 0.984 . S
N2374 H2381 0.984 . S
N2375 C2368 1.356 . S
N2375 H2378 0.984 . S
N2375 H2379 0.985 . S
H2376 N2371 0.984 . S
H2377 N2371 0.985 . S
H2378 N2375 0.984 . S
H2379 N2375 0.985 . S
H2380 N2374 0.984 . S
H2381 N2374 0.984 . S
H2382 N2370 0.984 . S
H2383 N2370 0.985 . S
C657 C106 1.712 . S
C659 C352 1.645 1_556 S
C675 C65 1.421 . S
C677 C365 1.403 . S
C693 C79 1.793 . S
C695 C384 1.839 . S
C713 C415 1.683 . S
C711 C90 1.718 . S
C729 C21 1.478 . S
C731 C435 1.494 . S
C749 C452 1.083 . S
C747 C35 1.046 . S
C767 C465 1.541 . S
C765 C50 1.551 . S
C783 C6 1.223 . S
C785 C492 1.259 . S
C803 C345 1.544 . S
C801 C232 1.591 . S
C819 C245 1.515 . S
C821 C375 1.572 . S
C839 C377 1.690 . S
C837 C274 1.772 . S
C857 C412 0.992 . S
C855 C175 0.973 . S
C873 C231 1.070 . S
C875 C432 1.093 . S
C893 C445 1.745 . S
C891 C246 1.752 . S
C911 C475 1.287 . S
C909 C273 1.276 . S
C929 C485 1.427 . S
C927 C176 1.480 . S
C947 C355 1.736 1_565 S
C945 C160 1.641 . S
C963 C289 1.731 . S
C965 C505 1.719 . S
C983 C535 1.681 . S
C981 C328 1.582 . S
C1001 C552 1.403 . S
C999 C317 1.450 . S
C1017 C118 1.840 . S
C1019 C495 1.994 . S
C1035 C132 1.279 . S
C1037 C382 1.301 . S
C1053 C331 1.860 . S
C1055 C565 1.851 . S
C1073 C592 1.325 . S
C1071 C303 1.381 . S
C1091 C342 1.289 . S
C1089 C63 1.258 . S
C1109 C577 1.708 . S
C1107 C107 1.705 . S
C1125 C92 1.542 . S
C1127 C395 1.523 . S
C1143 C78 2.193 . S
C1145 C564 2.193 . S
C1163 C424 1.961 . S
C1161 C8 1.967 . S
C1179 C51 1.129 . S
C1181 C522 1.104 . S
C1199 C457 1.828 1_556 S
C1197 C37 1.783 . S
C1217 C602 1.139 . S
C1215 C20 1.114 . S
C1235 C337 1.331 . S
C1233 C147 1.285 . S
C1253 C584 1.714 . S
C1251 C316 1.744 . S
C1269 C119 1.656 . S
C1271 C385 1.644 . S
C1287 C288 1.057 . S
C1289 C562 1.048 . S
C1305 C148 1.343 1_545 S
C1307 C422 1.326 . S
C1325 C517 1.720 . S
C1323 C315 1.661 . S
C1341 C120 1.595 . S
C1343 C464 1.564 . S
C1359 C287 1.253 . S
C1361 C597 1.249 . S
C1377 C188 1.537 . S
C1379 C344 1.578 . S
C1395 C177 1.932 . S
C1397 C497 1.959 . S
C1413 C258 1.727 . S
C1415 C444 1.808 . S
C1431 C247 1.463 . S
C1433 C542 1.442 . S
C1451 C604 1.800 . S
C1449 C272 1.718 . S
C1467 C216 1.286 . S
C1469 C392 1.263 1_565 S
C1487 C397 2.041 . S
C1485 C261 2.003 . S
C1505 C362 1.321 . S
C1503 C205 1.370 . S
C1521 C76 1.338 . S
C1523 C632 1.375 . S
C1541 C585 1.461 . S
C1539 C93 1.479 . S
C1557 C105 1.397 . S
C1559 C644 1.489 1_556 S
C1575 C62 1.732 . S
C1577 C575 1.703 . S
C1593 C49 1.457 . S
C1595 C515 1.469 . S
C1613 C532 1.385 . S
C1611 C9 1.400 . S
C1631 C545 1.491 1_655 S
C1629 C22 1.498 . S
C1649 C612 1.515 . S
C1647 C36 1.589 . S
C1667 C625 1.502 . S
C1665 C260 1.547 . S
C1683 C189 1.388 . S
C1685 C595 1.417 . S
C1703 C637 1.640 . S
C1701 C204 1.738 . S
C1721 C572 0.863 . S
C1719 C217 0.859 . S
C1739 C512 1.246 . S
C1737 C259 1.199 . S
C1755 C190 1.800 . S
C1757 C525 1.791 . S
C1775 C555 1.443 . S
C1773 C203 1.404 . S
C1791 C218 1.549 . S
C1793 C605 1.492 . S
C1811 C635 1.710 . S
C1809 C314 1.590 . S
C1827 C135 1.777 . S
C1829 C425 1.765 . S
C1847 C455 1.653 . S
C1845 C146 1.536 . S
C1865 C472 1.434 . S
C1863 C163 1.464 . S
C1883 C615 2.022 . S
C1881 C300 1.895 . S
C1899 C286 1.258 . S
C1901 C642 1.293 . S
C1919 C405 1.794 . S
C1917 C149 1.800 . S
C1937 C372 1.317 . S
C1935 C121 1.391 . S
C1953 C91 1.213 . S
C1955 C622 1.245 . S
C1973 C357 1.394 . S
C1971 C77 1.385 . S
C1989 C64 1.506 . S
C1991 C655 1.490 . S
C2007 C104 1.839 . S
C2009 C404 1.856 . S
C2025 C34 1.624 . S
C2027 C504 1.667 1_556 S
C2045 C442 1.072 . S
C2043 C23 1.085 . S
C2061 C7 1.380 . S
C2063 C537 1.437 . S
C2079 C48 1.066 . S
C2081 C482 1.093 . S
C2099 C617 1.307 . S
C2097 C329 1.269 . S
C2115 C162 1.729 . S
C2117 C364 1.699 . S
C2135 C645 1.625 1_655 S
C2133 C301 1.634 . S
C2151 C134 1.078 . S
C2153 C402 1.067 . S
C2169 C330 1.340 . S
C2171 C502 1.323 . S
C2189 C437 1.694 . S
C2187 C161 1.644 . S
C2205 C302 1.577 . S
C2207 C544 1.546 . S
C2225 C477 1.229 . S
C2223 C133 1.239 . S
C2243 C624 1.771 . S
C2241 C244 1.733 . S
C2261 C417 1.946 1_565 S
C2259 C219 1.907 . S
C2277 C230 1.574 . S
C2279 C524 1.653 . S
C2297 C462 1.412 . S
C2295 C191 1.453 1_554 S
C2313 C202 1.910 . S
C2315 C484 1.986 . S
C2331 C174 1.390 . S
C2333 C652 1.390 . S
C2351 C557 2.040 . S
C2349 C233 1.989 . S
C2369 C582 1.318 . S
C2367 C275 1.391 . S
