# Generated by pormake.
# Topology gar, (4,6)-cn, num edge types: 1
# Building blocks:
#     Node 0, Type 0, BuildingBlock: QUQFOY_clean_sbu_1, # of connection points: 4
#     Node 1, Type 0, BuildingBlock: QUQFOY_clean_sbu_1, # of connection points: 4
#     Node 2, Type 0, BuildingBlock: QUQFOY_clean_sbu_1, # of connection points: 4
#     Node 3, Type 0, BuildingBlock: QUQFOY_clean_sbu_1, # of connection points: 4
#     Node 4, Type 0, BuildingBlock: QUQFOY_clean_sbu_1, # of connection points: 4
#     Node 5, Type 0, BuildingBlock: QUQFOY_clean_sbu_1, # of connection points: 4
#     Node 6, Type 0, BuildingBlock: QUQFOY_clean_sbu_1, # of connection points: 4
#     Node 7, Type 0, BuildingBlock: QUQFOY_clean_sbu_1, # of connection points: 4
#     Node 8, Type 0, BuildingBlock: QUQFOY_clean_sbu_1, # of connection points: 4
#     Node 9, Type 0, BuildingBlock: QUQFOY_clean_sbu_1, # of connection points: 4
#     Node 10, Type 0, BuildingBlock: QUQFOY_clean_sbu_1, # of connection points: 4
#     Node 11, Type 0, BuildingBlock: QUQFOY_clean_sbu_1, # of connection points: 4
#     Node 12, Type 0, BuildingBlock: QUQFOY_clean_sbu_1, # of connection points: 4
#     Node 13, Type 0, BuildingBlock: QUQFOY_clean_sbu_1, # of connection points: 4
#     Node 14, Type 0, BuildingBlock: QUQFOY_clean_sbu_1, # of connection points: 4
#     Node 15, Type 0, BuildingBlock: QUQFOY_clean_sbu_1, # of connection points: 4
#     Node 16, Type 0, BuildingBlock: QUQFOY_clean_sbu_1, # of connection points: 4
#     Node 17, Type 0, BuildingBlock: QUQFOY_clean_sbu_1, # of connection points: 4
#     Node 18, Type 0, BuildingBlock: QUQFOY_clean_sbu_1, # of connection points: 4
#     Node 19, Type 0, BuildingBlock: QUQFOY_clean_sbu_1, # of connection points: 4
#     Node 20, Type 0, BuildingBlock: QUQFOY_clean_sbu_1, # of connection points: 4
#     Node 21, Type 0, BuildingBlock: QUQFOY_clean_sbu_1, # of connection points: 4
#     Node 22, Type 0, BuildingBlock: QUQFOY_clean_sbu_1, # of connection points: 4
#     Node 23, Type 0, BuildingBlock: QUQFOY_clean_sbu_1, # of connection points: 4
#     Node 24, Type 1, BuildingBlock: PAMTOO_clean_sbu_0, # of connection points: 6
#     Node 25, Type 1, BuildingBlock: PAMTOO_clean_sbu_0, # of connection points: 6
#     Node 26, Type 1, BuildingBlock: PAMTOO_clean_sbu_0, # of connection points: 6
#     Node 27, Type 1, BuildingBlock: PAMTOO_clean_sbu_0, # of connection points: 6
#     Node 28, Type 1, BuildingBlock: PAMTOO_clean_sbu_0, # of connection points: 6
#     Node 29, Type 1, BuildingBlock: PAMTOO_clean_sbu_0, # of connection points: 6
#     Node 30, Type 1, BuildingBlock: PAMTOO_clean_sbu_0, # of connection points: 6
#     Node 31, Type 1, BuildingBlock: PAMTOO_clean_sbu_0, # of connection points: 6
#     Node 32, Type 1, BuildingBlock: PAMTOO_clean_sbu_0, # of connection points: 6
#     Node 33, Type 1, BuildingBlock: PAMTOO_clean_sbu_0, # of connection points: 6
#     Node 34, Type 1, BuildingBlock: PAMTOO_clean_sbu_0, # of connection points: 6
#     Node 35, Type 1, BuildingBlock: PAMTOO_clean_sbu_0, # of connection points: 6
#     Node 36, Type 1, BuildingBlock: PAMTOO_clean_sbu_0, # of connection points: 6
#     Node 37, Type 1, BuildingBlock: PAMTOO_clean_sbu_0, # of connection points: 6
#     Node 38, Type 1, BuildingBlock: PAMTOO_clean_sbu_0, # of connection points: 6
#     Node 39, Type 1, BuildingBlock: PAMTOO_clean_sbu_0, # of connection points: 6
#     Edge 40, Type (0, 1), BuildingBlock: XUDNAN_clean_linker_2, # of connection points: 2
#     Edge 41, Type (0, 1), BuildingBlock: XUDNAN_clean_linker_2, # of connection points: 2
#     Edge 42, Type (0, 1), BuildingBlock: XUDNAN_clean_linker_2, # of connection points: 2
#     Edge 43, Type (0, 1), BuildingBlock: XUDNAN_clean_linker_2, # of connection points: 2
#     Edge 44, Type (0, 1), BuildingBlock: XUDNAN_clean_linker_2, # of connection points: 2
#     Edge 45, Type (0, 1), BuildingBlock: XUDNAN_clean_linker_2, # of connection points: 2
#     Edge 46, Type (0, 1), BuildingBlock: XUDNAN_clean_linker_2, # of connection points: 2
#     Edge 47, Type (0, 1), BuildingBlock: XUDNAN_clean_linker_2, # of connection points: 2
#     Edge 48, Type (0, 1), BuildingBlock: XUDNAN_clean_linker_2, # of connection points: 2
#     Edge 49, Type (0, 1), BuildingBlock: XUDNAN_clean_linker_2, # of connection points: 2
#     Edge 50, Type (0, 1), BuildingBlock: XUDNAN_clean_linker_2, # of connection points: 2
#     Edge 51, Type (0, 1), BuildingBlock: XUDNAN_clean_linker_2, # of connection points: 2
#     Edge 52, Type (0, 1), BuildingBlock: XUDNAN_clean_linker_2, # of connection points: 2
#     Edge 53, Type (0, 1), BuildingBlock: XUDNAN_clean_linker_2, # of connection points: 2
#     Edge 54, Type (0, 1), BuildingBlock: XUDNAN_clean_linker_2, # of connection points: 2
#     Edge 55, Type (0, 1), BuildingBlock: XUDNAN_clean_linker_2, # of connection points: 2
#     Edge 56, Type (0, 1), BuildingBlock: XUDNAN_clean_linker_2, # of connection points: 2
#     Edge 57, Type (0, 1), BuildingBlock: XUDNAN_clean_linker_2, # of connection points: 2
#     Edge 58, Type (0, 1), BuildingBlock: XUDNAN_clean_linker_2, # of connection points: 2
#     Edge 59, Type (0, 1), BuildingBlock: XUDNAN_clean_linker_2, # of connection points: 2
#     Edge 60, Type (0, 1), BuildingBlock: XUDNAN_clean_linker_2, # of connection points: 2
#     Edge 61, Type (0, 1), BuildingBlock: XUDNAN_clean_linker_2, # of connection points: 2
#     Edge 62, Type (0, 1), BuildingBlock: XUDNAN_clean_linker_2, # of connection points: 2
#     Edge 63, Type (0, 1), BuildingBlock: XUDNAN_clean_linker_2, # of connection points: 2
#     Edge 64, Type (0, 1), BuildingBlock: XUDNAN_clean_linker_2, # of connection points: 2
#     Edge 65, Type (0, 1), BuildingBlock: XUDNAN_clean_linker_2, # of connection points: 2
#     Edge 66, Type (0, 1), BuildingBlock: XUDNAN_clean_linker_2, # of connection points: 2
#     Edge 67, Type (0, 1), BuildingBlock: XUDNAN_clean_linker_2, # of connection points: 2
#     Edge 68, Type (0, 1), BuildingBlock: XUDNAN_clean_linker_2, # of connection points: 2
#     Edge 69, Type (0, 1), BuildingBlock: XUDNAN_clean_linker_2, # of connection points: 2
#     Edge 70, Type (0, 1), BuildingBlock: XUDNAN_clean_linker_2, # of connection points: 2
#     Edge 71, Type (0, 1), BuildingBlock: XUDNAN_clean_linker_2, # of connection points: 2
#     Edge 72, Type (0, 1), BuildingBlock: XUDNAN_clean_linker_2, # of connection points: 2
#     Edge 73, Type (0, 1), BuildingBlock: XUDNAN_clean_linker_2, # of connection points: 2
#     Edge 74, Type (0, 1), BuildingBlock: XUDNAN_clean_linker_2, # of connection points: 2
#     Edge 75, Type (0, 1), BuildingBlock: XUDNAN_clean_linker_2, # of connection points: 2
#     Edge 76, Type (0, 1), BuildingBlock: XUDNAN_clean_linker_2, # of connection points: 2
#     Edge 77, Type (0, 1), BuildingBlock: XUDNAN_clean_linker_2, # of connection points: 2
#     Edge 78, Type (0, 1), BuildingBlock: XUDNAN_clean_linker_2, # of connection points: 2
#     Edge 79, Type (0, 1), BuildingBlock: XUDNAN_clean_linker_2, # of connection points: 2
#     Edge 80, Type (0, 1), BuildingBlock: XUDNAN_clean_linker_2, # of connection points: 2
#     Edge 81, Type (0, 1), BuildingBlock: XUDNAN_clean_linker_2, # of connection points: 2
#     Edge 82, Type (0, 1), BuildingBlock: XUDNAN_clean_linker_2, # of connection points: 2
#     Edge 83, Type (0, 1), BuildingBlock: XUDNAN_clean_linker_2, # of connection points: 2
#     Edge 84, Type (0, 1), BuildingBlock: XUDNAN_clean_linker_2, # of connection points: 2
#     Edge 85, Type (0, 1), BuildingBlock: XUDNAN_clean_linker_2, # of connection points: 2
#     Edge 86, Type (0, 1), BuildingBlock: XUDNAN_clean_linker_2, # of connection points: 2
#     Edge 87, Type (0, 1), BuildingBlock: XUDNAN_clean_linker_2, # of connection points: 2
#     Edge 88, Type (0, 1), BuildingBlock: XUDNAN_clean_linker_2, # of connection points: 2
#     Edge 89, Type (0, 1), BuildingBlock: XUDNAN_clean_linker_2, # of connection points: 2
#     Edge 90, Type (0, 1), BuildingBlock: XUDNAN_clean_linker_2, # of connection points: 2
#     Edge 91, Type (0, 1), BuildingBlock: XUDNAN_clean_linker_2, # of connection points: 2
#     Edge 92, Type (0, 1), BuildingBlock: XUDNAN_clean_linker_2, # of connection points: 2
#     Edge 93, Type (0, 1), BuildingBlock: XUDNAN_clean_linker_2, # of connection points: 2
#     Edge 94, Type (0, 1), BuildingBlock: XUDNAN_clean_linker_2, # of connection points: 2
#     Edge 95, Type (0, 1), BuildingBlock: XUDNAN_clean_linker_2, # of connection points: 2
#     Edge 96, Type (0, 1), BuildingBlock: XUDNAN_clean_linker_2, # of connection points: 2
#     Edge 97, Type (0, 1), BuildingBlock: XUDNAN_clean_linker_2, # of connection points: 2
#     Edge 98, Type (0, 1), BuildingBlock: XUDNAN_clean_linker_2, # of connection points: 2
#     Edge 99, Type (0, 1), BuildingBlock: XUDNAN_clean_linker_2, # of connection points: 2
#     Edge 100, Type (0, 1), BuildingBlock: XUDNAN_clean_linker_2, # of connection points: 2
#     Edge 101, Type (0, 1), BuildingBlock: XUDNAN_clean_linker_2, # of connection points: 2
#     Edge 102, Type (0, 1), BuildingBlock: XUDNAN_clean_linker_2, # of connection points: 2
#     Edge 103, Type (0, 1), BuildingBlock: XUDNAN_clean_linker_2, # of connection points: 2
#     Edge 104, Type (0, 1), BuildingBlock: XUDNAN_clean_linker_2, # of connection points: 2
#     Edge 105, Type (0, 1), BuildingBlock: XUDNAN_clean_linker_2, # of connection points: 2
#     Edge 106, Type (0, 1), BuildingBlock: XUDNAN_clean_linker_2, # of connection points: 2
#     Edge 107, Type (0, 1), BuildingBlock: XUDNAN_clean_linker_2, # of connection points: 2
#     Edge 108, Type (0, 1), BuildingBlock: XUDNAN_clean_linker_2, # of connection points: 2
#     Edge 109, Type (0, 1), BuildingBlock: XUDNAN_clean_linker_2, # of connection points: 2
#     Edge 110, Type (0, 1), BuildingBlock: XUDNAN_clean_linker_2, # of connection points: 2
#     Edge 111, Type (0, 1), BuildingBlock: XUDNAN_clean_linker_2, # of connection points: 2
#     Edge 112, Type (0, 1), BuildingBlock: XUDNAN_clean_linker_2, # of connection points: 2
#     Edge 113, Type (0, 1), BuildingBlock: XUDNAN_clean_linker_2, # of connection points: 2
#     Edge 114, Type (0, 1), BuildingBlock: XUDNAN_clean_linker_2, # of connection points: 2
#     Edge 115, Type (0, 1), BuildingBlock: XUDNAN_clean_linker_2, # of connection points: 2
#     Edge 116, Type (0, 1), BuildingBlock: XUDNAN_clean_linker_2, # of connection points: 2
#     Edge 117, Type (0, 1), BuildingBlock: XUDNAN_clean_linker_2, # of connection points: 2
#     Edge 118, Type (0, 1), BuildingBlock: XUDNAN_clean_linker_2, # of connection points: 2
#     Edge 119, Type (0, 1), BuildingBlock: XUDNAN_clean_linker_2, # of connection points: 2
#     Edge 120, Type (0, 1), BuildingBlock: XUDNAN_clean_linker_2, # of connection points: 2
#     Edge 121, Type (0, 1), BuildingBlock: XUDNAN_clean_linker_2, # of connection points: 2
#     Edge 122, Type (0, 1), BuildingBlock: XUDNAN_clean_linker_2, # of connection points: 2
#     Edge 123, Type (0, 1), BuildingBlock: XUDNAN_clean_linker_2, # of connection points: 2
#     Edge 124, Type (0, 1), BuildingBlock: XUDNAN_clean_linker_2, # of connection points: 2
#     Edge 125, Type (0, 1), BuildingBlock: XUDNAN_clean_linker_2, # of connection points: 2
#     Edge 126, Type (0, 1), BuildingBlock: XUDNAN_clean_linker_2, # of connection points: 2
#     Edge 127, Type (0, 1), BuildingBlock: XUDNAN_clean_linker_2, # of connection points: 2
#     Edge 128, Type (0, 1), BuildingBlock: XUDNAN_clean_linker_2, # of connection points: 2
#     Edge 129, Type (0, 1), BuildingBlock: XUDNAN_clean_linker_2, # of connection points: 2
#     Edge 130, Type (0, 1), BuildingBlock: XUDNAN_clean_linker_2, # of connection points: 2
#     Edge 131, Type (0, 1), BuildingBlock: XUDNAN_clean_linker_2, # of connection points: 2
#     Edge 132, Type (0, 1), BuildingBlock: XUDNAN_clean_linker_2, # of connection points: 2
#     Edge 133, Type (0, 1), BuildingBlock: XUDNAN_clean_linker_2, # of connection points: 2
#     Edge 134, Type (0, 1), BuildingBlock: XUDNAN_clean_linker_2, # of connection points: 2
#     Edge 135, Type (0, 1), BuildingBlock: XUDNAN_clean_linker_2, # of connection points: 2
# Relax obj value: 0.167
# Max RMSD: 0.281
# Mean RMSD: 0.182
data_MOF--net-gar--node1-QUQFOY_clean_sbu_1--node2-PAMTOO_clean_sbu_0--edge1-XUDNAN_clean_linker_2
_symmetry_space_group_name_H-M    P1
_symmetry_Int_Tables_number       1
_symmetry_cell_setting            triclinic
loop_
_symmetry_equiv_pos_as_xyz
'x, y, z'
_cell_length_a     60.040792
_cell_length_b     60.65523
_cell_length_c     58.609488
_cell_angle_alpha  96.661198
_cell_angle_beta   96.230051
_cell_angle_gamma 105.87251
loop_
_atom_site_label
_atom_site_type_symbol
_atom_site_fract_x
_atom_site_fract_y
_atom_site_fract_z
_atom_type_partial_charge
O0 O 0.06201 0.29172 0.37822 0.0
Cd1 Cd 0.06388 0.31197 0.35181 0.0
Cd2 Cd 0.04513 0.33741 0.39527 0.0
O3 O 0.05211 0.30933 0.40929 0.0
O4 O 0.07715 0.29376 0.32759 0.0
O5 O 0.09828 0.32755 0.34624 0.0
C6 C 0.09728 0.30925 0.33203 0.0
C7 C 0.05258 0.37421 0.41879 0.0
C8 C 0.0579 0.29238 0.39915 0.0
C9 C 1.01406 0.32131 0.34654 0.0
O10 O 1.01761 0.32966 0.36806 0.0
O11 O 0.03008 0.31481 0.33694 0.0
O12 O 0.03558 0.35668 0.4211 0.0
O13 O 0.06588 0.37076 0.40366 0.0
O14 O 1.01176 0.71763 0.69994 0.0
Cd15 Cd 0.01893 0.7441 0.72914 0.0
Cd16 Cd 0.04497 0.77048 0.69785 0.0
O17 O 0.03031 0.73913 0.67586 0.0
O18 O 0.991 0.73798 0.74833 0.0
O19 O 1.00028 0.76823 0.73042 0.0
C20 C 0.98628 0.75643 0.74287 0.0
C21 C 0.04276 0.8043 0.68221 0.0
C22 C 1.01823 0.71962 0.68002 0.0
C23 C 0.07384 0.76236 0.74076 0.0
O24 O 0.07348 0.77166 0.72233 0.0
O25 O 0.0544 0.75156 0.74715 0.0
O26 O 0.0574 0.79332 0.67651 0.0
O27 O 0.02963 0.79641 0.69725 0.0
O28 O 0.60791 0.82747 0.87613 0.0
Cd29 Cd 0.5853 0.82714 0.90041 0.0
Cd30 Cd 0.55706 0.84035 0.8613 0.0
O31 O 0.58552 0.83106 0.84494 0.0
O32 O 0.60142 0.81594 0.92641 0.0
O33 O 0.56606 0.79656 0.9086 0.0
C34 C 0.58348 0.79803 0.92428 0.0
C35 C 0.51578 0.83025 0.84463 0.0
C36 C 0.60476 0.82807 0.85444 0.0
C37 C 0.57475 0.87389 0.90794 0.0
O38 O 0.56527 0.87059 0.88675 0.0
O39 O 0.58263 0.85845 0.91598 0.0
O40 O 0.53206 0.84533 0.83732 0.0
O41 O 0.52284 0.8192 0.86016 0.0
O42 O 0.51546 0.20792 0.19901 0.0
Cd43 Cd 0.52159 0.23927 0.22244 0.0
Cd44 Cd 0.54359 0.25669 0.18596 0.0
O45 O 0.53007 0.22272 0.16917 0.0
O46 O 0.49912 0.23505 0.24713 0.0
O47 O 0.49615 0.25702 0.22057 0.0
C48 C 0.48812 0.24828 0.23816 0.0
C49 C 0.53758 0.28812 0.16872 0.0
C50 C 0.52031 0.20515 0.17828 0.0
C51 C 0.57632 0.25971 0.22977 0.0
O52 O 0.57426 0.26292 0.20869 0.0
O53 O 0.5578 0.25198 0.23907 0.0
O54 O 0.55187 0.2772 0.1618 0.0
O55 O 0.52612 0.28078 0.18513 0.0
O56 O 0.06886 0.76723 0.12044 0.0
Cd57 Cd 0.07408 0.79675 0.14446 0.0
Cd58 Cd 0.09361 0.82016 0.10767 0.0
O59 O 0.08291 0.78377 0.09111 0.0
O60 O 0.05402 0.78653 0.169 0.0
O61 O 0.04917 0.8132 0.148 0.0
C62 C 0.04262 0.80094 0.16401 0.0
C63 C 0.08209 0.85378 0.0956 0.0
C64 C 0.07422 0.76531 0.10001 0.0
C65 C 0.1262 0.82125 0.15304 0.0
O66 O 0.12385 0.8271 0.13279 0.0
O67 O 0.10834 0.81018 0.16123 0.0
O68 O 0.09813 0.84659 0.08674 0.0
O69 O 0.07195 0.84151 0.11027 0.0
O70 O 0.55811 0.78414 0.46513 0.0
Cd71 Cd 0.5367 0.78086 0.49118 0.0
Cd72 Cd 0.51104 0.79906 0.44647 0.0
O73 O 0.53977 0.79218 0.43343 0.0
O74 O 0.55424 0.7668 0.51567 0.0
O75 O 0.5213 0.74586 0.4951 0.0
C76 C 0.5391 0.74659 0.51001 0.0
C77 C 0.4746 0.79189 0.42142 0.0
C78 C 0.55741 0.7878 0.44406 0.0
C79 C 0.52692 0.83068 0.4951 0.0
O80 O 0.51946 0.82686 0.47335 0.0
O81 O 0.53221 0.81461 0.5055 0.0
O82 O 0.49264 0.80874 0.41996 0.0
O83 O 0.47724 0.77878 0.43677 0.0
O84 O 0.58346 0.26913 0.62679 0.0
Cd85 Cd 0.58649 0.2963 0.65291 0.0
Cd86 Cd 0.61122 0.32321 0.61839 0.0
O87 O 0.60117 0.28734 0.60005 0.0
O88 O 0.57052 0.27842 0.67618 0.0
O89 O 0.55765 0.30529 0.66194 0.0
C90 C 0.55531 0.28974 0.67547 0.0
C91 C 0.5989 0.35696 0.60665 0.0
C92 C 0.59075 0.26831 0.60721 0.0
C93 C 0.63905 0.32188 0.66601 0.0
O94 O 0.63964 0.32881 0.64615 0.0
O95 O 0.6198 0.31051 0.67165 0.0
O96 O 0.61632 0.35124 0.59909 0.0
O97 O 0.58814 0.34346 0.62009 0.0
O98 O 0.02139 0.23679 0.9664 0.0
Cd99 Cd 0.02166 0.26293 0.94563 0.0
Cd100 Cd 1.01036 0.28642 0.98649 0.0
O101 O 0.01989 0.25711 0.99985 0.0
O102 O 0.04173 0.2592 0.9209 0.0
O103 O 0.05111 0.2896 0.9485 0.0
C104 C 0.05624 0.2789 0.93032 0.0
C105 C 0.01924 0.32684 0.00506 0.0
C106 C 0.02192 0.23837 0.98838 0.0
C107 C 0.97492 0.27255 0.94062 0.0
O108 O 0.97919 0.27855 0.96264 0.0
O109 O 0.99021 0.26675 0.92979 0.0
O110 O 1.00459 0.30983 0.01182 0.0
O111 O 0.03087 0.321 0.98925 0.0
O112 O 0.41444 0.01457 0.28636 0.0
Cd113 Cd 0.40103 0.02436 0.31577 0.0
Cd114 Cd 0.44445 0.03441 0.3331 0.0
O115 O 0.45023 0.03629 0.2998 0.0
O116 O 0.36826 0.02213 0.30395 0.0
O117 O 0.39465 0.05508 0.32025 0.0
C118 C 0.3735 0.04416 0.31054 0.0
C119 C 0.46544 0.06306 0.36307 0.0
C120 C 0.43532 0.02373 0.28309 0.0
C121 C 0.413 0.99439 0.34745 0.0
O122 O 0.43341 1.00175 0.34226 0.0
O123 O 0.39758 1.00409 0.3415 0.0
O124 O 0.47506 0.04912 0.35238 0.0
O125 O 0.44387 0.06148 0.35576 0.0
O126 O 0.29861 0.22171 0.57864 0.0
Cd127 Cd 0.29754 0.19458 0.55304 0.0
Cd128 Cd 0.27378 0.22299 0.52703 0.0
O129 O 0.2816 0.24384 0.55982 0.0
O130 O 0.30834 0.17411 0.57336 0.0
O131 O 0.32715 0.18647 0.54509 0.0
C132 C 0.32532 0.17427 0.56177 0.0
C133 C 0.28649 0.23388 0.49195 0.0
C134 C 0.29119 0.23947 0.57867 0.0
C135 C 0.24607 0.1743 0.52945 0.0
O136 O 0.24531 0.19368 0.52362 0.0
O137 O 0.26496 0.17197 0.53955 0.0
O138 O 0.26979 0.24047 0.50008 0.0
O139 O 0.29679 0.22222 0.50438 0.0
O140 O 0.12404 0.04623 0.75233 0.0
Cd141 Cd 0.14988 0.04977 0.78011 0.0
Cd142 Cd 0.1184 0.06457 0.80502 0.0
O143 O 0.09912 0.05906 0.77151 0.0
O144 O 0.1709 0.0311 0.76992 0.0
O145 O 0.15015 0.02369 0.79851 0.0
C146 C 0.16489 0.01858 0.78582 0.0
C147 C 0.10322 0.05092 0.83822 0.0
C148 C 0.10507 0.05178 0.75237 0.0
C149 C 0.16599 0.09889 0.80451 0.0
O150 O 0.14635 0.09445 0.81196 0.0
O151 O 0.17122 0.0833 0.79156 0.0
O152 O 0.09887 0.06859 0.83046 0.0
O153 O 0.11519 0.04017 0.82653 0.0
O154 O 0.29893 0.9556 0.05597 0.0
Cd155 Cd 0.29944 0.95666 0.02089 0.0
Cd156 Cd 0.28496 0.9135 0.02095 0.0
O157 O 0.27361 0.9211 0.05179 0.0
O158 O 0.27228 0.96187 1.00159 0.0
O159 O 0.30423 0.98981 0.01775 0.0
C160 C 0.28367 0.98367 0.0057 0.0
C161 C 0.26297 0.89125 0.98738 0.0
C162 C 0.28575 0.93966 0.06481 0.0
C163 C 0.33367 0.93169 0.01444 0.0
O164 O 0.32011 0.9164 0.02361 0.0
O165 O 0.32668 0.9481 0.0076 0.0
O166 O 0.26935 0.91363 0.98924 0.0
O167 O 0.26759 0.88185 0.00532 0.0
O168 O 0.30006 0.37409 0.09669 0.0
Cd169 Cd 0.30093 0.3953 0.0713 0.0
Cd170 Cd 0.32183 0.36334 0.04908 0.0
O171 O 0.31115 0.34641 0.07717 0.0
O172 O 0.28176 0.41626 0.08026 0.0
O173 O 0.27274 0.39174 0.04743 0.0
C174 C 0.26813 0.40789 0.06084 0.0
C175 C 0.31597 0.34326 0.01072 0.0
C176 C 0.30413 0.3545 0.09528 0.0
C177 C 0.35084 0.41353 0.06226 0.0
O178 O 0.35069 0.39276 0.05557 0.0
O179 O 0.33255 0.41788 0.06814 0.0
O180 O 0.33109 0.34075 0.02684 0.0
O181 O 0.30316 0.35638 0.01654 0.0
O182 O 0.82107 0.14813 0.1268 0.0
Cd183 Cd 0.80099 0.12564 0.09861 0.0
Cd184 Cd 0.80616 0.16335 0.07666 0.0
O185 O 0.82665 0.17819 0.10797 0.0
O186 O 0.80768 0.09536 0.09349 0.0
O187 O 0.81428 0.12171 0.06966 0.0
C188 C 0.81445 0.10148 0.07435 0.0
C189 C 0.81812 0.17976 0.04438 0.0
C190 C 0.8301 0.16957 0.1263 0.0
C191 C 0.75716 0.13508 0.08256 0.0
O192 O 0.77012 0.15197 0.07474 0.0
O193 O 0.76608 0.12202 0.09361 0.0
O194 O 0.81994 0.1595 0.04705 0.0
O195 O 0.81018 0.19065 0.06025 0.0
O196 O 0.18376 0.52773 0.23171 0.0
Cd197 Cd 0.21266 0.54086 0.25701 0.0
Cd198 Cd 0.18676 0.56166 0.28003 0.0
O199 O 0.16508 0.54997 0.24903 0.0
O200 O 0.23225 0.51947 0.25901 0.0
O201 O 0.21251 0.52831 0.28694 0.0
C202 C 0.22649 0.51725 0.27943 0.0
C203 C 0.16735 0.55886 0.31242 0.0
C204 C 0.16628 0.53567 0.23195 0.0
C205 C 0.23127 0.59195 0.26865 0.0
O206 O 0.21467 0.59015 0.28067 0.0
O207 O 0.23357 0.57408 0.25666 0.0
O208 O 0.16625 0.57409 0.29913 0.0
O209 O 0.18012 0.54543 0.30772 0.0
O210 O 0.80071 0.87883 0.60299 0.0
Cd211 Cd 0.80265 0.90008 0.57761 0.0
Cd212 Cd 0.82282 0.86796 0.55578 0.0
O213 O 0.8135 0.85166 0.58479 0.0
O214 O 0.78198 0.92021 0.58418 0.0
O215 O 0.77615 0.89567 0.55166 0.0
C216 C 0.76999 0.9115 0.56397 0.0
C217 C 0.81051 0.85005 0.51667 0.0
C218 C 0.80562 0.85967 0.60239 0.0
C219 C 0.85233 0.91827 0.56834 0.0
O220 O 0.85146 0.89753 0.56048 0.0
O221 O 0.83465 0.92274 0.57568 0.0
O222 O 0.82773 0.84613 0.52911 0.0
O223 O 0.79955 0.86311 0.52681 0.0
O224 O 0.95699 0.04185 0.23308 0.0
Cd225 Cd 0.935 0.03718 0.25839 0.0
Cd226 Cd 0.97436 0.02879 0.28349 0.0
O227 O 0.98932 0.04118 0.25473 0.0
O228 O 0.91157 0.05475 0.25293 0.0
O229 O 0.938 0.06293 0.28447 0.0
C230 C 0.92058 0.06737 0.27282 0.0
C231 C 0.99553 0.03549 0.3218 0.0
C232 C 0.97881 0.04375 0.23545 0.0
C233 C 0.92803 0.98952 0.26961 0.0
O234 O 0.94988 0.99637 0.27708 0.0
O235 O 0.91763 1.00353 0.26225 0.0
O236 O 1.00018 0.02288 0.30477 0.0
O237 O 0.97986 0.04586 0.31693 0.0
O238 O 0.30552 0.66595 0.61032 0.0
Cd239 Cd 0.29388 0.64455 0.57893 0.0
Cd240 Cd 0.29102 0.68278 0.5624 0.0
O241 O 0.30092 0.69699 0.59658 0.0
O242 O 0.30851 0.61899 0.57759 0.0
O243 O 0.31506 0.64629 0.55488 0.0
C244 C 0.31897 0.6278 0.56119 0.0
C245 C 0.305 0.70662 0.53571 0.0
C246 C 0.30638 0.68725 0.61346 0.0
C247 C 0.24707 0.64249 0.5564 0.0
O248 O 0.25726 0.66244 0.55197 0.0
O249 O 0.25841 0.63168 0.56811 0.0
O250 O 0.28976 0.71044 0.54823 0.0
O251 O 0.31308 0.68938 0.53881 0.0
O252 O 0.46395 0.54444 0.74255 0.0
Cd253 Cd 0.43925 0.53953 0.76542 0.0
Cd254 Cd 0.47964 0.53253 0.79403 0.0
O255 O 0.49561 0.54436 0.76575 0.0
O256 O 0.41439 0.5523 0.75157 0.0
O257 O 0.43476 0.56665 0.78636 0.0
C258 C 0.41877 0.56741 0.77008 0.0
C259 C 0.50084 0.538 0.83207 0.0
C260 C 0.48583 0.54663 0.74601 0.0
C261 C 0.43332 0.49263 0.77908 0.0
O262 O 0.45484 0.5004 0.78774 0.0
O263 O 0.42278 0.50576 0.77002 0.0
O264 O 0.50467 0.52507 0.81481 0.0
O265 O 0.48612 0.54951 0.82757 0.0
O266 O 0.67233 0.01374 0.72755 0.0
Cd267 Cd 0.69785 0.03373 0.75348 0.0
Cd268 Cd 0.66379 0.05048 0.77012 0.0
O269 O 0.64489 0.02564 0.74285 0.0
O270 O 0.72283 0.01899 0.75905 0.0
O271 O 0.70027 0.02517 0.78536 0.0
C272 C 0.71757 0.01788 0.77976 0.0
C273 C 0.64152 0.05892 0.79832 0.0
C274 C 0.65101 0.01306 0.7273 0.0
C275 C 0.70625 0.08373 0.75564 0.0
O276 O 0.68736 0.0803 0.76431 0.0
O277 O 0.71394 0.0669 0.74925 0.0
O278 O 0.63889 0.06451 0.77795 0.0
O279 O 0.65666 0.04788 0.80278 0.0
O280 O 0.79816 0.72283 0.08442 0.0
Cd281 Cd 0.79682 0.69878 0.05563 0.0
Cd282 Cd 0.77336 0.72635 0.03401 0.0
O283 O 0.78164 0.74618 0.06719 0.0
O284 O 0.81551 0.67881 0.06779 0.0
O285 O 0.82523 0.69914 0.03969 0.0
C286 C 0.82947 0.68473 0.05293 0.0
C287 C 0.78667 0.73842 0.99967 0.0
C288 C 0.79096 0.74077 0.08557 0.0
C289 C 0.74559 0.67738 0.03455 0.0
O290 O 0.74462 0.69719 0.03017 0.0
O291 O 0.7648 0.6746 0.04325 0.0
O292 O 0.76999 0.74495 0.00792 0.0
O293 O 0.79648 0.72598 0.01152 0.0
O294 O 0.90291 0.55855 0.77943 0.0
Cd295 Cd 0.88439 0.54563 0.80451 0.0
Cd296 Cd 0.92714 0.55367 0.83289 0.0
O297 O 0.93612 0.56683 0.80318 0.0
O298 O 0.85346 0.55094 0.8006 0.0
O299 O 0.88055 0.56677 0.83147 0.0
C300 C 0.85973 0.56385 0.82068 0.0
C301 C 0.95787 0.56835 0.86331 0.0
C302 C 0.92493 0.56717 0.78365 0.0
C303 C 0.89189 0.50505 0.82253 0.0
O304 O 0.91042 0.51908 0.8342 0.0
O305 O 0.87923 0.51186 0.80785 0.0
O306 O 0.95915 0.55435 0.84566 0.0
O307 O 0.9389 0.57439 0.86383 0.0
O308 O 0.77028 0.4045 0.57153 0.0
Cd309 Cd 0.78889 0.42668 0.5519 0.0
Cd310 Cd 0.78598 0.38888 0.52288 0.0
O311 O 0.76822 0.37321 0.54731 0.0
O312 O 0.7841 0.45739 0.55936 0.0
O313 O 0.77254 0.43573 0.52459 0.0
C314 C 0.7745 0.45483 0.53805 0.0
C315 C 0.77189 0.37256 0.48463 0.0
C316 C 0.76354 0.3826 0.56596 0.0
C317 C 0.83415 0.42044 0.5427 0.0
O318 O 0.82189 0.40251 0.52887 0.0
O319 O 0.82433 0.43262 0.5548 0.0
O320 O 0.78222 0.36232 0.49856 0.0
O321 O 0.76883 0.39208 0.4927 0.0
O322 O 0.63026 0.54633 0.26233 0.0
Cd323 Cd 0.65655 0.54998 0.2896 0.0
Cd324 Cd 0.62364 0.56354 0.31483 0.0
O325 O 0.6037 0.55631 0.28131 0.0
O326 O 0.67797 0.5328 0.27719 0.0
O327 O 0.6587 0.52311 0.30626 0.0
C328 C 0.67299 0.51917 0.29241 0.0
C329 C 0.60976 0.55054 0.34893 0.0
C330 C 0.61039 0.55007 0.2622 0.0
C331 C 0.67089 0.59904 0.31401 0.0
O332 O 0.65093 0.59409 0.32083 0.0
O333 O 0.67706 0.58367 0.30169 0.0
O334 O 0.60445 0.56756 0.34066 0.0
O335 O 0.62191 0.54 0.33725 0.0
Dy336 Dy 0.078 0.05861 0.0495 0.0
Dy337 Dy 0.02472 0.03297 0.02983 0.0
C338 C 0.06254 0.0377 0.99634 0.0
O339 O 0.06074 0.08769 0.05127 0.0
O340 O 0.02984 0.07034 0.02283 0.0
O341 O 0.10751 0.08889 0.05136 0.0
O342 O 0.11179 0.05993 0.06768 0.0
O343 O 0.02252 0.04776 0.06651 0.0
O344 O 0.06129 0.0555 0.0817 0.0
O345 O 0.03668 0.00635 0.04775 0.0
O346 O 0.07602 0.0199 0.04787 0.0
O347 O 0.99216 0.00698 0.02998 0.0
O348 O 0.99644 0.02669 1.00146 0.0
C349 C 0.04394 0.08942 0.03567 0.0
O350 O 0.07435 0.05634 0.01073 0.0
O351 O 0.04579 0.02239 0.00337 0.0
C352 C 0.14198 0.07864 0.0484 0.0
C353 C 0.17896 0.07264 0.02521 0.0
C354 C 0.15596 0.0658 0.01339 0.0
C355 C 0.13762 0.06871 0.02491 0.0
C356 C 0.16498 0.0865 0.06 0.0
C357 C 0.1834 0.08356 0.04847 0.0
C358 C 0.12231 0.07933 0.06094 0.0
C359 C 0.0393 0.05287 0.08451 0.0
C360 C 0.05755 1.00315 0.0508 0.0
C361 C 0.95885 0.01458 0.01186 0.0
C362 C 0.91447 0.02103 0.01287 0.0
C363 C 0.93168 0.02883 0.03262 0.0
C364 C 0.95374 0.02572 0.03209 0.0
C365 C 0.94171 0.00658 0.99217 0.0
C366 C 0.91963 0.00989 0.99262 0.0
C367 C 0.98206 0.01152 0.01101 0.0
H368 H 0.15206 0.05746 0.99545 0.0
H369 H 0.11994 0.06253 0.01567 0.0
H370 H 0.16858 0.09414 0.07815 0.0
H371 H 0.20092 0.08869 0.0581 0.0
H372 H 0.92832 0.03796 0.04828 0.0
H373 H 0.96687 0.03223 0.04738 0.0
H374 H 0.9455 0.998 0.97642 0.0
H375 H 0.90666 1.00386 0.97719 0.0
Dy376 Dy 0.32079 0.80882 0.2633 0.0
Dy377 Dy 0.28223 0.79208 0.29796 0.0
C378 C 0.3163 0.84228 0.30597 0.0
O379 O 0.34312 0.80474 0.29504 0.0
O380 O 0.31411 0.78236 0.31225 0.0
O381 O 0.35283 0.83278 0.25742 0.0
O382 O 0.33137 0.80688 0.2292 0.0
O383 O 0.27568 0.76601 0.2663 0.0
O384 O 0.31339 0.7704 0.26102 0.0
O385 O 0.26354 0.80893 0.2731 0.0
O386 O 0.28576 0.80731 0.24375 0.0
O387 O 0.26157 0.76373 0.31267 0.0
O388 O 0.25933 0.79866 0.3222 0.0
C389 C 0.33646 0.7918 0.31105 0.0
O390 O 0.31522 0.83976 0.28338 0.0
O391 O 0.30769 0.82465 0.31632 0.0
C392 C 0.34451 0.84506 0.22213 0.0
C393 C 0.33521 0.87888 0.19684 0.0
C394 C 0.32047 0.86992 0.21255 0.0
C395 C 0.32524 0.85336 0.22526 0.0
C396 C 0.35969 0.85433 0.20684 0.0
C397 C 0.35512 0.87135 0.19431 0.0
C398 C 0.34785 0.82658 0.23496 0.0
C399 C 0.29206 0.75697 0.26038 0.0
C400 C 0.2669 0.81058 0.25146 0.0
C401 C 0.26395 0.77694 0.35185 0.0
C402 C 0.28357 0.76997 0.39504 0.0
C403 C 0.25955 0.75979 0.38697 0.0
C404 C 0.2498 0.7631 0.3653 0.0
C405 C 0.28766 0.78794 0.36046 0.0
C406 C 0.29744 0.78436 0.38181 0.0
C407 C 0.25551 0.77782 0.32772 0.0
H408 H 0.3051 0.87556 0.2148 0.0
H409 H 0.31358 0.84672 0.23731 0.0
H410 H 0.37473 0.84822 0.20438 0.0
H411 H 0.36661 0.87805 0.18211 0.0
H412 H 0.2486 0.74846 0.39692 0.0
H413 H 0.23157 0.75428 0.35874 0.0
H414 H 0.29889 0.79862 0.35025 0.0
H415 H 0.31594 0.79246 0.38777 0.0
Dy416 Dy 0.52963 0.04731 0.56162 0.0
Dy417 Dy 0.57932 0.04979 0.54017 0.0
C418 C 0.53687 0.06183 0.51127 0.0
O419 O 0.53144 0.00995 0.55546 0.0
O420 O 0.55662 0.01265 0.52842 0.0
O421 O 0.49187 0.03396 0.55749 0.0
O422 O 0.51102 0.05655 0.58901 0.0
O423 O 0.58152 0.03409 0.5725 0.0
O424 O 0.55489 0.04654 0.59176 0.0
O425 O 0.58346 0.08723 0.55571 0.0
O426 O 0.54633 0.08595 0.56363 0.0
O427 O 0.61705 0.06027 0.54611 0.0
O428 O 0.59832 0.04117 0.51273 0.0
C429 C 0.54165 0.99993 0.54005 0.0
O430 O 0.52253 0.05159 0.52472 0.0
O431 O 0.55945 0.06444 0.51469 0.0
C432 C 0.47349 0.05988 0.57637 0.0
C433 C 0.44004 0.08499 0.57698 0.0
C434 C 0.44579 0.07627 0.55578 0.0
C435 C 0.46237 0.06384 0.55547 0.0
C436 C 0.46816 0.06905 0.59747 0.0
C437 C 0.45178 0.08154 0.59779 0.0
C438 C 0.49051 0.04622 0.57687 0.0
C439 C 0.57177 0.03678 0.59114 0.0
C440 C 0.56791 0.09783 0.56186 0.0
C441 C 0.63251 0.03228 0.52747 0.0
C442 C 0.65901 1.00032 0.52915 0.0
C443 C 0.64627 1.00423 0.5472 0.0
C444 C 0.63304 0.01994 0.54631 0.0
C445 C 0.64515 0.0284 0.50942 0.0
C446 C 0.65824 0.01253 0.5102 0.0
C447 C 0.61845 0.04875 0.5263 0.0
H448 H 0.43704 0.07849 0.53942 0.0
H449 H 0.46626 0.05712 0.53889 0.0
H450 H 0.47661 0.06643 0.61381 0.0
H451 H 0.44825 0.08843 0.61446 0.0
H452 H 0.64625 0.9949 0.56188 0.0
H453 H 0.62318 0.02238 0.56033 0.0
H454 H 0.6449 0.03765 0.4947 0.0
H455 H 0.66802 0.01006 0.49612 0.0
Dy456 Dy 0.3208 0.2827 0.79248 0.0
Dy457 Dy 0.27821 0.30827 0.79382 0.0
C458 C 0.33042 0.33757 0.79047 0.0
O459 O 0.31334 0.28478 0.82927 0.0
O460 O 0.29709 0.315 0.83031 0.0
O461 O 0.35496 0.28091 0.8069 0.0
O462 O 0.3353 0.25691 0.77646 0.0
O463 O 0.26552 0.27411 0.806 0.0
O464 O 0.28759 0.25365 0.78852 0.0
O465 O 0.27665 0.29401 0.75612 0.0
O466 O 0.3138 0.29034 0.75654 0.0
O467 O 0.24188 0.30576 0.78347 0.0
O468 O 0.26425 0.33603 0.80656 0.0
C469 C 0.3067 0.30119 0.84096 0.0
O470 O 0.33764 0.3209 0.79835 0.0
O471 O 0.30807 0.33525 0.78419 0.0
C472 C 0.37689 0.2684 0.77936 0.0
C473 C 0.41821 0.27196 0.75897 0.0
C474 C 0.39773 0.27355 0.74593 0.0
C475 C 0.37725 0.27178 0.75602 0.0
C476 C 0.39749 0.26762 0.79255 0.0
C477 C 0.4179 0.26944 0.78254 0.0
C478 C 0.35526 0.26484 0.79021 0.0
C479 C 0.26936 0.25437 0.79878 0.0
C480 C 0.29386 0.29074 0.74521 0.0
C481 C 0.22488 0.32225 0.81325 0.0
C482 C 0.19046 0.31847 0.84332 0.0
C483 C 0.19927 0.29971 0.83714 0.0
C484 C 0.21637 0.30161 0.82238 0.0
C485 C 0.21615 0.34098 0.81936 0.0
C486 C 0.19917 0.33915 0.83425 0.0
C487 C 0.24281 0.32448 0.79746 0.0
H488 H 0.39729 0.27539 0.72774 0.0
H489 H 0.36162 0.2726 0.74545 0.0
H490 H 0.39771 0.26521 0.8106 0.0
H491 H 0.43343 0.26864 0.79327 0.0
H492 H 0.19321 0.28364 0.84402 0.0
H493 H 0.22295 0.28693 0.81811 0.0
H494 H 0.22243 0.35706 0.81256 0.0
H495 H 0.19264 0.35388 0.83843 0.0
Dy496 Dy 0.05204 0.02093 0.53855 0.0
Dy497 Dy 0.03993 0.07205 0.53913 0.0
C498 C 1.00127 0.02597 0.54562 0.0
O499 O 0.05121 0.02785 0.50162 0.0
O500 O 0.02879 0.05319 0.50252 0.0
O501 O 0.04218 0.98356 0.52826 0.0
O502 O 0.07506 1.00131 0.55005 0.0
O503 O 0.07483 0.07753 0.52731 0.0
O504 O 0.08647 0.04797 0.54137 0.0
O505 O 0.05381 0.0713 0.57635 0.0
O506 O 0.04976 0.03227 0.57557 0.0
O507 O 0.05002 0.10914 0.54973 0.0
O508 O 1.01684 0.09197 0.52799 0.0
C509 C 0.03844 0.03923 0.49092 0.0
O510 O 1.01323 0.01357 0.53541 0.0
O511 O 1.00985 0.04852 0.55196 0.0
C512 C 0.05545 0.96393 0.55733 0.0
C513 C 0.04798 0.93087 0.58841 0.0
C514 C 0.0466 0.95352 0.59499 0.0
C515 C 0.05024 0.96982 0.57962 0.0
C516 C 0.05675 0.94141 0.55062 0.0
C517 C 0.05306 0.92505 0.56596 0.0
C518 C 0.0602 0.98129 0.54129 0.0
C519 C 0.09113 0.06772 0.53312 0.0
C520 C 0.05386 0.05326 0.58696 0.0
C521 C 0.03688 0.12984 0.52172 0.0
C522 C 0.0458 0.1644 0.49234 0.0
C523 C 0.06174 0.15158 0.49683 0.0
C524 C 0.05728 0.13445 0.51122 0.0
C525 C 0.02104 0.14269 0.51753 0.0
C526 C 0.02542 0.15977 0.50301 0.0
C527 C 0.03197 0.11181 0.53703 0.0
H528 H 0.04306 0.95883 0.61217 0.0
H529 H 0.04922 0.98712 0.58526 0.0
H530 H 0.06072 0.93646 0.53351 0.0
H531 H 0.05393 0.90776 0.56008 0.0
H532 H 0.07781 0.15483 0.48931 0.0
H533 H 0.06982 0.12482 0.51415 0.0
H534 H 1.00517 0.13941 0.5254 0.0
H535 H 1.01258 0.169 0.49979 0.0
Dy536 Dy 0.29331 0.81586 0.79261 0.0
Dy537 Dy 0.29158 0.76661 0.81382 0.0
C538 C 0.27971 0.80825 0.84388 0.0
O539 O 0.33097 0.81525 0.79864 0.0
O540 O 0.32946 0.78897 0.82417 0.0
O541 O 0.30734 0.85313 0.7963 0.0
O542 O 0.28199 0.83443 0.76639 0.0
O543 O 0.30748 0.765 0.7818 0.0
O544 O 0.2943 0.79045 0.76196 0.0
O545 O 0.25379 0.76223 0.79762 0.0
O546 O 0.25481 0.79927 0.79117 0.0
O547 O 0.27995 0.72922 0.8076 0.0
O548 O 0.30182 0.74724 0.83989 0.0
C549 C 0.34164 0.805 0.81322 0.0
O550 O 0.28917 0.82265 0.83009 0.0
O551 O 0.27728 0.78596 0.83994 0.0
C552 C 0.2792 0.87107 0.78199 0.0
C553 C 0.25059 0.90096 0.7878 0.0
C554 C 0.25853 0.89123 0.80665 0.0
C555 C 0.27255 0.87636 0.80375 0.0
C556 C 0.2715 0.88082 0.7632 0.0
C557 C 0.25733 0.89556 0.76603 0.0
C558 C 0.29322 0.85468 0.77836 0.0
C559 C 0.30386 0.77345 0.76274 0.0
C560 C 0.24303 0.77769 0.79188 0.0
C561 C 0.30894 0.7132 0.82214 0.0
C562 C 0.33609 0.68376 0.80894 0.0
C563 C 0.34005 0.70573 0.80192 0.0
C564 C 0.32673 0.72036 0.8086 0.0
C565 C 0.3055 0.69166 0.82995 0.0
C566 C 0.31911 0.6771 0.82355 0.0
C567 C 0.29288 0.72736 0.82627 0.0
H568 H 0.25405 0.89518 0.82375 0.0
H569 H 0.27807 0.86892 0.81853 0.0
H570 H 0.2762 0.87679 0.7462 0.0
H571 H 0.25129 0.90232 0.751 0.0
H572 H 0.35314 0.7114 0.79081 0.0
H573 H 0.32981 0.73699 0.80256 0.0
H574 H 0.29182 0.6858 0.84037 0.0
H575 H 0.3156 0.66021 0.82909 0.0
Dy576 Dy 0.53501 0.04936 0.02273 0.0
Dy577 Dy 0.55121 0.02344 0.06521 0.0
C578 C 0.55441 1.0051 0.01219 0.0
O579 O 0.50516 0.01847 0.02348 0.0
O580 O 0.51242 0.01356 0.06139 0.0
O581 O 0.51635 0.04725 0.98855 0.0
O582 O 0.5342 0.08071 0.00904 0.0
O583 O 0.54622 0.05626 0.0829 0.0
O584 O 0.52259 0.06511 0.05391 0.0
O585 O 0.58401 0.0415 0.05283 0.0
O586 O 0.57163 0.06971 0.03718 0.0
O587 O 0.57414 0.02415 0.09647 0.0
O588 O 0.54702 0.99256 0.08125 0.0
C589 C 0.49855 0.00911 0.04157 0.0
O590 O 0.5536 0.02521 0.00618 0.0
O591 O 0.55009 0.99975 0.03268 0.0
C592 C 0.53599 0.07629 0.96905 0.0
C593 C 0.55849 0.08274 0.92974 0.0
C594 C 0.57143 0.08326 0.95136 0.0
C595 C 0.56025 0.07992 0.97083 0.0
C596 C 0.52312 0.07669 0.94779 0.0
C597 C 0.5343 0.07994 0.92823 0.0
C598 C 0.52387 0.06953 0.98861 0.0
C599 C 0.53213 0.06814 0.07581 0.0
C600 C 0.5884 0.06177 0.04581 0.0
C601 C 0.55196 1.00251 0.12154 0.0
C602 C 0.52432 0.99939 0.15744 0.0
C603 C 0.53586 0.02112 0.1519 0.0
C604 C 0.5495 0.02267 0.13411 0.0
C605 C 0.54146 0.98085 0.12782 0.0
C606 C 0.52766 0.97928 0.14564 0.0
C607 C 0.56177 1.00369 0.09966 0.0
H608 H 0.59014 0.0857 0.95312 0.0
H609 H 0.57044 0.07943 0.9871 0.0
H610 H 0.50433 0.07364 0.94613 0.0
H611 H 0.52384 0.0792 0.91174 0.0
H612 H 0.53335 0.03689 0.16046 0.0
H613 H 0.55706 0.03961 0.12944 0.0
H614 H 0.54295 0.96509 0.11818 0.0
H615 H 0.5191 0.96234 0.14975 0.0
Dy616 Dy 0.2835 0.25574 0.2774 0.0
Dy617 Dy 0.30733 0.30887 0.30055 0.0
C618 C 0.29785 0.26937 0.33181 0.0
O619 O 0.25293 0.26822 0.28676 0.0
O620 O 0.2689 0.30747 0.29817 0.0
O621 O 0.25793 0.22363 0.27956 0.0
O622 O 0.27936 0.22551 0.25201 0.0
O623 O 0.30651 0.30842 0.26183 0.0
O624 O 0.27717 0.27486 0.24841 0.0
O625 O 0.33767 0.29315 0.29835 0.0
O626 O 0.32071 0.26255 0.26937 0.0
O627 O 0.31977 0.34501 0.29741 0.0
O628 O 0.32636 0.33385 0.33056 0.0
C629 C 0.25055 0.28888 0.29359 0.0
O630 O 0.30035 0.25596 0.31364 0.0
O631 O 0.29455 0.28947 0.32927 0.0
C632 C 0.27053 0.19135 0.26845 0.0
C633 C 0.28392 0.15234 0.27871 0.0
C634 C 0.29102 0.17296 0.2947 0.0
C635 C 0.28449 0.19234 0.28955 0.0
C636 C 0.26295 0.17073 0.25263 0.0
C637 C 0.26961 0.1513 0.25771 0.0
C638 C 0.26454 0.21204 0.26276 0.0
C639 C 0.2913 0.2944 0.24482 0.0
C640 C 0.33962 0.27689 0.2822 0.0
C641 C 0.31908 0.37013 0.33022 0.0
C642 C 0.30027 0.40722 0.33944 0.0
C643 C 0.32428 0.41141 0.3381 0.0
C644 C 0.3336 0.39295 0.33344 0.0
C645 C 0.29557 0.36581 0.33358 0.0
C646 C 0.28622 0.38428 0.33824 0.0
C647 C 0.32739 0.35145 0.3195 0.0
H648 H 0.30177 0.17417 0.31114 0.0
H649 H 0.29052 0.20817 0.30197 0.0
H650 H 0.25225 0.1698 0.23622 0.0
H651 H 0.26412 0.13572 0.24496 0.0
H652 H 0.33551 0.42896 0.33917 0.0
H653 H 0.35177 0.39653 0.33082 0.0
H654 H 0.2841 0.34822 0.33101 0.0
H655 H 0.26762 0.38053 0.33898 0.0
Dy656 Dy 0.55597 0.5197 0.04759 0.0
Dy657 Dy 0.54238 0.56985 0.05014 0.0
C658 C 0.50409 0.52207 0.05359 0.0
O659 O 0.54263 0.52157 0.01073 0.0
O660 O 0.54469 0.56029 0.01258 0.0
O661 O 0.54627 0.48273 0.03591 0.0
O662 O 0.57957 0.5 0.05743 0.0
O663 O 0.5812 0.57884 0.05164 0.0
O664 O 0.58604 0.54422 0.03577 0.0
O665 O 0.5431 0.56096 0.08648 0.0
O666 O 0.56746 0.53773 0.08429 0.0
O667 O 0.54928 0.60568 0.06547 0.0
O668 O 0.52062 0.59027 0.03748 0.0
C669 C 0.54189 0.53975 1.00065 0.0
O670 O 0.52077 0.51262 0.05903 0.0
O671 O 0.50828 0.5423 0.04633 0.0
C672 C 0.56029 0.4616 0.06254 0.0
C673 C 0.55045 0.4252 0.08952 0.0
C674 C 0.55051 0.44779 0.09861 0.0
C675 C 0.55532 0.46579 0.08523 0.0
C676 C 0.56036 0.43922 0.05344 0.0
C677 C 0.5555 0.42121 0.06675 0.0
C678 C 0.56472 0.48015 0.04793 0.0
C679 C 0.59381 0.56684 0.04192 0.0
C680 C 0.55695 0.55026 0.09657 0.0
C681 C 0.54151 0.62934 0.03805 0.0
C682 C 0.55621 0.66731 0.01391 0.0
C683 C 0.56975 0.65189 0.01661 0.0
C684 C 0.56242 0.63305 0.02846 0.0
C685 C 0.5278 0.64448 0.03518 0.0
C686 C 0.53504 0.66327 0.02318 0.0
C687 C 0.53356 0.60939 0.05039 0.0
H688 H 0.54701 0.45163 0.11614 0.0
H689 H 0.55509 0.48295 0.09258 0.0
H690 H 0.56397 0.4356 0.03589 0.0
H691 H 0.55526 0.40403 0.059 0.0
H692 H 0.58595 0.6543 0.00939 0.0
H693 H 0.57308 0.62134 0.03013 0.0
H694 H 0.51151 0.64179 0.0423 0.0
H695 H 0.52431 0.6749 0.02156 0.0
Dy696 Dy 0.7984 0.31567 0.27822 0.0
Dy697 Dy 0.79265 0.26615 0.29893 0.0
C698 C 0.78567 0.31023 0.32893 0.0
O699 O 0.83493 0.31794 0.29645 0.0
O700 O 0.8307 0.27903 0.29538 0.0
O701 O 0.81116 0.35306 0.28443 0.0
O702 O 0.79139 0.33522 0.25107 0.0
O703 O 0.79092 0.25916 0.26056 0.0
O704 O 0.81267 0.29434 0.25358 0.0
O705 O 0.75601 0.26953 0.29408 0.0
O706 O 0.76018 0.29449 0.26709 0.0
O707 O 0.77796 0.22891 0.29519 0.0
O708 O 0.80271 0.24744 0.32555 0.0
C709 C 0.84413 0.30053 0.29799 0.0
O710 O 0.78192 0.31864 0.30985 0.0
O711 O 0.79468 0.29284 0.32938 0.0
C712 C 0.78427 0.36996 0.26691 0.0
C713 C 0.75577 0.39943 0.27545 0.0
C714 C 0.7476 0.37555 0.27665 0.0
C715 C 0.76172 0.36102 0.27252 0.0
C716 C 0.79235 0.3936 0.26517 0.0
C717 C 0.77823 0.4082 0.26935 0.0
C718 C 0.79995 0.3551 0.26479 0.0
C719 C 0.80524 0.2717 0.24848 0.0
C720 C 0.74672 0.27985 0.27854 0.0
C721 C 0.80494 0.2105 0.31084 0.0
C722 C 0.83347 0.18044 0.30773 0.0
C723 C 0.83242 0.19519 0.29106 0.0
C724 C 0.81836 0.21017 0.29265 0.0
C725 C 0.80573 0.19562 0.32731 0.0
C726 C 0.81988 0.18076 0.3258 0.0
C727 C 0.79126 0.22722 0.31367 0.0
H728 H 0.7303 0.36808 0.28093 0.0
H729 H 0.75518 0.34284 0.27413 0.0
H730 H 0.80979 0.40089 0.26112 0.0
H731 H 0.78524 0.4265 0.26853 0.0
H732 H 0.84301 0.1956 0.27721 0.0
H733 H 0.81826 0.22177 0.27993 0.0
H734 H 0.79564 0.19573 0.34155 0.0
H735 H 0.82021 0.16949 0.33881 0.0
Dy736 Dy 0.02544 0.56052 0.51847 0.0
Dy737 Dy 0.03928 0.54063 0.56546 0.0
C738 C 0.04453 0.51614 0.51576 0.0
O739 O 0.9968 0.52868 0.51979 0.0
O740 O 1.00047 0.53247 0.55912 0.0
O741 O 1.00856 0.55395 0.48284 0.0
O742 O 0.02764 0.58893 0.49882 0.0
O743 O 0.03508 0.57586 0.57701 0.0
O744 O 1.01026 0.57873 0.54566 0.0
O745 O 0.07315 0.55498 0.55284 0.0
O746 O 0.06142 0.58177 0.5342 0.0
O747 O 0.06036 0.5462 0.59905 0.0
O748 O 0.03343 0.51359 0.587 0.0
C749 C 0.98846 0.52314 0.5387 0.0
O750 O 0.04626 0.53621 0.50857 0.0
O751 O 0.03809 0.51252 0.53612 0.0
C752 C 0.03529 0.57553 0.4622 0.0
C753 C 0.06479 0.56777 0.43 0.0
C754 C 0.07285 0.5716 0.45388 0.0
C755 C 0.05825 0.57541 0.46979 0.0
C756 C 0.02737 0.57259 0.43834 0.0
C757 C 0.04216 0.56892 0.42227 0.0
C758 C 0.01916 0.57482 0.47936 0.0
C759 C 0.02 0.58557 0.56753 0.0
C760 C 0.07804 0.57381 0.54316 0.0
C761 C 0.03498 0.53231 0.62476 0.0
C762 C 1.01462 0.54996 0.66101 0.0
C763 C 1.00242 0.54368 0.63833 0.0
C764 C 1.01244 0.5349 0.62046 0.0
C765 C 0.04718 0.53817 0.6474 0.0
C766 C 0.03701 0.54685 0.66549 0.0
C767 C 0.0468 0.52762 0.60493 0.0
H768 H 0.09031 0.57114 0.46029 0.0
H769 H 0.06462 0.57724 0.4881 0.0
H770 H 1.00957 0.57221 0.43219 0.0
H771 H 0.03558 0.56596 0.40388 0.0
H772 H 0.98536 0.54624 0.63419 0.0
H773 H 1.00284 0.53101 0.60307 0.0
H774 H 0.06478 0.53675 0.65094 0.0
H775 H 0.04672 0.55131 0.68288 0.0
Dy776 Dy 0.82071 0.78748 0.30205 0.0
Dy777 Dy 0.77461 0.80862 0.29898 0.0
C778 C 0.82483 0.83948 0.29252 0.0
O779 O 0.81197 0.79126 0.33874 0.0
O780 O 0.79564 0.82074 0.33419 0.0
O781 O 0.85732 0.79257 0.31496 0.0
O782 O 0.83793 0.76209 0.29059 0.0
O783 O 0.76442 0.77513 0.31313 0.0
O784 O 0.78984 0.75627 0.29968 0.0
O785 O 0.77414 0.79299 0.26231 0.0
O786 O 0.81172 0.78991 0.26442 0.0
O787 O 0.7378 0.80351 0.28799 0.0
O788 O 0.75823 0.83476 0.31082 0.0
C789 C 0.8036 0.80784 0.34757 0.0
O790 O 0.83321 0.82592 0.30468 0.0
O791 O 0.80223 0.83501 0.2856 0.0
C792 C 0.87705 0.77966 0.28561 0.0
C793 C 0.9125 0.78936 0.25669 0.0
C794 C 0.88998 0.79128 0.24964 0.0
C795 C 0.87256 0.7866 0.26394 0.0
C796 C 0.89936 0.77756 0.29272 0.0
C797 C 0.9169 0.78234 0.27843 0.0
C798 C 0.85859 0.77488 0.30075 0.0
C799 C 0.77048 0.75609 0.30825 0.0
C800 C 0.79175 0.78942 0.25235 0.0
C801 C 0.71977 0.81747 0.31805 0.0
C802 C 0.68668 0.80901 0.34948 0.0
C803 C 0.70213 0.79539 0.34697 0.0
C804 C 0.7185 0.79965 0.33157 0.0
C805 C 0.70433 0.83102 0.32023 0.0
C806 C 0.68793 0.82684 0.33578 0.0
C807 C 0.73723 0.82175 0.30185 0.0
H808 H 0.88568 0.79621 0.23291 0.0
H809 H 0.85551 0.78838 0.25802 0.0
H810 H 0.90328 0.77235 0.3094 0.0
H811 H 0.93404 0.78094 0.28464 0.0
H812 H 0.70152 0.78123 0.3568 0.0
H813 H 0.7302 0.78895 0.33022 0.0
H814 H 0.70504 0.84491 0.31001 0.0
H815 H 0.67654 0.83786 0.33737 0.0
Dy816 Dy 0.81937 0.2963 0.78621 0.0
Dy817 Dy 0.78634 0.29226 0.82612 0.0
C818 C 0.82007 0.33997 0.82033 0.0
O819 O 0.84409 0.29655 0.81845 0.0
O820 O 0.81609 0.2794 0.83972 0.0
O821 O 0.84898 0.31455 0.771 0.0
O822 O 0.82627 0.2811 0.75365 0.0
O823 O 0.77288 0.26055 0.79922 0.0
O824 O 0.80847 0.25955 0.79087 0.0
O825 O 0.76878 0.30889 0.80028 0.0
O826 O 0.78352 0.29632 0.76841 0.0
O827 O 0.75852 0.2706 0.84089 0.0
O828 O 0.77494 0.30609 0.85704 0.0
C829 C 0.83816 0.28642 0.83657 0.0
O830 O 0.81737 0.33149 0.79838 0.0
O831 O 0.81404 0.32631 0.83572 0.0
C832 C 0.83463 0.31041 0.73141 0.0
C833 C 0.80846 0.31974 0.69299 0.0
C834 C 0.8076 0.32985 0.71554 0.0
C835 C 0.82068 0.32538 0.73451 0.0
C836 C 0.83644 0.30107 0.70894 0.0
C837 C 0.82356 0.30587 0.68978 0.0
C838 C 0.84169 0.30029 0.75141 0.0
C839 C 0.78652 0.24896 0.79112 0.0
C840 C 0.76818 0.30534 0.7776 0.0
C841 C 0.76825 0.27689 0.88124 0.0
C842 C 0.78632 0.25453 0.91501 0.0
C843 C 0.79778 0.27765 0.91342 0.0
C844 C 0.78891 0.28873 0.89655 0.0
C845 C 0.75584 0.25441 0.88418 0.0
C846 C 0.7649 0.24324 0.90081 0.0
C847 C 0.76216 0.28562 0.85967 0.0
H848 H 0.79586 0.34025 0.71872 0.0
H849 H 0.81851 0.33231 0.75173 0.0
H850 H 0.84672 0.28908 0.7063 0.0
H851 H 0.82489 0.29818 0.67255 0.0
H852 H 0.81429 0.2867 0.9243 0.0
H853 H 0.799 0.30602 0.89467 0.0
H854 H 0.7399 0.24492 0.8726 0.0
H855 H 0.75554 0.22553 0.9021 0.0
Dy856 Dy 0.78212 0.76508 0.78884 0.0
Dy857 Dy 0.80748 0.81894 0.80935 0.0
C858 C 0.80092 0.78026 0.84239 0.0
O859 O 0.75227 0.78062 0.79534 0.0
O860 O 0.76993 0.81931 0.80876 0.0
O861 O 0.75391 0.73632 0.79413 0.0
O862 O 0.77561 0.73154 0.7679 0.0
O863 O 0.79856 0.81925 0.77078 0.0
O864 O 0.78104 0.78055 0.75641 0.0
O865 O 0.83738 0.80348 0.80388 0.0
O866 O 0.81915 0.7682 0.78132 0.0
O867 O 0.82997 0.85244 0.80585 0.0
O868 O 0.81974 0.84599 0.83917 0.0
C869 C 0.75096 0.8015 0.80326 0.0
O870 O 0.80124 0.76601 0.82403 0.0
O871 O 0.79863 0.80074 0.84003 0.0
C872 C 0.76508 0.70267 0.79149 0.0
C873 C 0.77389 0.66915 0.81757 0.0
C874 C 0.75176 0.66538 0.80444 0.0
C875 C 0.74735 0.68215 0.79157 0.0
C876 C 0.7871 0.7065 0.80463 0.0
C877 C 0.79147 0.68991 0.81752 0.0
C878 C 0.76011 0.72144 0.78027 0.0
C879 C 0.78917 0.80223 0.75328 0.0
C880 C 0.83843 0.78484 0.79035 0.0
C881 C 0.82298 0.88333 0.8298 0.0
C882 C 0.80727 0.92301 0.83542 0.0
C883 C 0.80807 0.91214 0.81313 0.0
C884 C 0.81583 0.89253 0.81033 0.0
C885 C 0.82279 0.89449 0.85214 0.0
C886 C 0.81484 0.91413 0.85495 0.0
C887 C 0.82949 0.86156 0.82696 0.0
H888 H 0.73794 0.64948 0.80413 0.0
H889 H 0.7301 0.67922 0.78189 0.0
H890 H 0.80091 0.72243 0.80503 0.0
H891 H 0.80887 0.6931 0.82696 0.0
H892 H 0.80189 0.9183 0.79772 0.0
H893 H 0.81564 0.8843 0.79286 0.0
H894 H 0.8283 0.88772 0.8674 0.0
H895 H 0.81441 0.92223 0.8723 0.0
Dy896 Dy 0.58991 0.5605 0.56274 0.0
Dy897 Dy 0.53605 0.53683 0.54318 0.0
C898 C 0.57359 0.5399 0.50912 0.0
O899 O 0.57413 0.59056 0.56465 0.0
O900 O 0.54255 0.57456 0.53671 0.0
O901 O 0.62054 0.58928 0.56316 0.0
O902 O 0.62257 0.56213 0.5834 0.0
O903 O 0.53484 0.55177 0.57993 0.0
O904 O 0.57318 0.55739 0.595 0.0
O905 O 0.54737 0.50811 0.55862 0.0
O906 O 0.58707 0.52164 0.56017 0.0
O907 O 0.50131 0.51566 0.54553 0.0
O908 O 0.50852 0.52995 0.51404 0.0
C909 C 0.55747 0.5932 0.54949 0.0
O910 O 0.58687 0.55772 0.52384 0.0
O911 O 0.55579 0.52553 0.5158 0.0
C912 C 0.65504 0.57762 0.56518 0.0
C913 C 0.69107 0.56503 0.5449 0.0
C914 C 0.69003 0.56504 0.56881 0.0
C915 C 0.67227 0.57141 0.57884 0.0
C916 C 0.65673 0.57895 0.54159 0.0
C917 C 0.6747 0.57285 0.53159 0.0
C918 C 0.63426 0.58013 0.57514 0.0
C919 C 0.5514 0.55578 0.59786 0.0
C920 C 0.56827 0.50471 0.56199 0.0
C921 C 0.47202 0.52854 0.52553 0.0
C922 C 0.4352 0.54899 0.52422 0.0
C923 C 0.44907 0.5498 0.54539 0.0
C924 C 0.4674 0.53979 0.54604 0.0
C925 C 0.45793 0.52733 0.50443 0.0
C926 C 0.43971 0.53758 0.50375 0.0
C927 C 0.49244 0.51959 0.52562 0.0
H928 H 0.70201 0.55871 0.57959 0.0
H929 H 0.67125 0.57022 0.59702 0.0
H930 H 0.64365 0.58373 0.5306 0.0
H931 H 0.67518 0.57334 0.51323 0.0
H932 H 0.44618 0.55879 0.56138 0.0
H933 H 0.47822 0.5413 0.56251 0.0
H934 H 0.46133 0.51886 0.48841 0.0
H935 H 0.42917 0.53663 0.48724 0.0
Dy936 Dy 0.02388 0.54514 0.05792 0.0
Dy937 Dy 0.07746 0.5497 0.04682 0.0
C938 C 0.03865 0.55495 0.00844 0.0
O939 O 0.02245 0.50837 0.0428 0.0
O940 O 0.06167 0.51089 0.04511 0.0
O941 O 0.98651 0.53374 0.04732 0.0
O942 O 1.00102 0.55283 0.08188 0.0
O943 O 0.07662 0.55648 0.08486 0.0
O944 O 0.04144 0.53084 0.0855 0.0
O945 O 0.07479 0.58647 0.04825 0.0
O946 O 0.04416 0.58329 0.06927 0.0
O947 O 0.1136 0.55542 0.06153 0.0
O948 O 0.10368 0.54929 0.02433 0.0
C949 C 0.03948 0.49839 0.04158 0.0
O950 O 0.02634 0.55903 0.02468 0.0
O951 O 0.05634 0.54648 0.01236 0.0
C952 C 0.96831 0.56126 0.06255 0.0
C953 C 0.94232 0.59335 0.05684 0.0
C954 C 0.95275 0.58533 0.03844 0.0
C955 C 0.96568 0.56958 0.04129 0.0
C956 C 0.95789 0.56914 0.0809 0.0
C957 C 0.9451 0.58504 0.07813 0.0
C958 C 0.98249 0.5451 0.06604 0.0
C959 C 0.06279 0.54164 0.09531 0.0
C960 C 0.06152 0.5962 0.06021 0.0
C961 C 0.13308 0.53366 0.03968 0.0
C962 C 0.15809 0.50035 0.03836 0.0
C963 C 0.16987 0.52411 0.04511 0.0
C964 C 0.15746 0.54058 0.04575 0.0
C965 C 0.12121 0.51 0.03286 0.0
C966 C 0.1336 0.49351 0.03212 0.0
C967 C 0.12016 0.5511 0.04145 0.0
H968 H 0.95075 0.591 0.02169 0.0
H969 H 0.97364 0.56398 0.02682 0.0
H970 H 0.95985 0.56315 0.09752 0.0
H971 H 0.9377 0.59108 0.09282 0.0
H972 H 0.18873 0.53001 0.04974 0.0
H973 H 0.16691 0.55875 0.05114 0.0
H974 H 0.10234 0.50425 0.02831 0.0
H975 H 0.12396 0.47536 0.0271 0.0
H976 H 1.01519 0.19209 0.96894 0.0
H977 H 0.03688 0.23788 0.03489 0.0
H978 H 0.04451 0.20555 0.05368 0.0
H979 H 0.98526 0.14055 0.9928 0.0
H980 H 0.99382 0.12071 0.97264 0.0
H981 H 0.99037 0.14742 0.96435 0.0
H982 H 0.03263 0.15837 0.95464 0.0
H983 H 0.03623 0.13172 0.96295 0.0
H984 H 0.05652 0.1591 0.97647 0.0
H985 H 0.05217 0.16766 0.06513 0.0
H986 H 0.05565 0.12845 0.06866 0.0
H987 H 0.02614 0.10549 0.99616 0.0
C988 C 0.02149 0.19541 0.98739 0.0
C989 C 0.02546 0.21807 1.00026 0.0
C990 C 0.03356 0.22107 0.02442 0.0
C991 C 0.03805 0.20265 0.03529 0.0
C992 C 0.03409 0.18073 0.02208 0.0
C993 C 0.02565 0.17698 0.99865 0.0
C994 C 0.02229 0.1516 0.98847 0.0
C995 C 0.9964 0.13934 0.979 0.0
C996 C 0.03784 0.15012 0.96951 0.0
C997 C 0.03033 0.14162 0.00969 0.0
C998 C 0.03732 0.15885 0.02886 0.0
C999 C 0.04642 0.15415 0.05019 0.0
C1000 C 0.04839 0.13163 0.05204 0.0
C1001 C 0.04097 0.11332 0.0329 0.0
C1002 C 0.03167 0.11868 0.01139 0.0
H1003 H 0.13799 0.81089 0.19677 0.0
H1004 H 0.16895 0.83941 0.13907 0.0
H1005 H 0.20813 0.84124 0.15864 0.0
H1006 H 0.18607 0.84513 0.24272 0.0
H1007 H 0.18349 0.82156 0.25932 0.0
H1008 H 0.15809 0.82394 0.2415 0.0
H1009 H 0.15111 0.78223 0.22026 0.0
H1010 H 0.17656 0.77978 0.23787 0.0
H1011 H 0.17423 0.77495 0.20666 0.0
H1012 H 0.24379 0.83654 0.1829 0.0
H1013 H 0.2731 0.82835 0.21096 0.0
H1014 H 0.21968 0.80438 0.254 0.0
C1015 C 0.15301 0.81792 0.18837 0.0
C1016 C 0.15016 0.82508 0.16626 0.0
C1017 C 0.17046 0.83394 0.15597 0.0
C1018 C 0.19287 0.83497 0.16696 0.0
C1019 C 0.19494 0.82728 0.18843 0.0
C1020 C 0.17558 0.81921 0.19919 0.0
C1021 C 0.18255 0.8115 0.22204 0.0
C1022 C 0.17723 0.82642 0.24261 0.0
C1023 C 0.17039 0.78558 0.22167 0.0
C1024 C 0.20879 0.8161 0.22229 0.0
C1025 C 0.21555 0.82516 0.20269 0.0
C1026 C 0.23867 0.82973 0.19842 0.0
C1027 C 0.25525 0.82495 0.21451 0.0
C1028 C 0.2489 0.8159 0.23492 0.0
C1029 C 0.22527 0.8116 0.23881 0.0
H1030 H 0.53868 0.87195 0.47741 0.0
H1031 H 0.5214 0.84523 0.54069 0.0
H1032 H 0.52259 0.88486 0.55868 0.0
H1033 H 0.57983 0.92729 0.5063 0.0
H1034 H 0.57177 0.94327 0.4843 0.0
H1035 H 0.56951 0.91299 0.47681 0.0
H1036 H 0.52587 0.90478 0.46003 0.0
H1037 H 0.52795 0.93498 0.46765 0.0
H1038 H 0.50622 0.91316 0.47813 0.0
H1039 H 0.52306 0.92839 0.5687 0.0
H1040 H 0.52733 0.9704 0.5714 0.0
H1041 H 0.54751 0.96958 0.50259 0.0
C1042 C 0.53527 0.87435 0.49516 0.0
C1043 C 0.52979 0.85502 0.5075 0.0
C1044 C 0.52572 0.8594 0.53076 0.0
C1045 C 0.52624 0.88199 0.54108 0.0
C1046 C 0.53134 0.90048 0.52823 0.0
C1047 C 0.53626 0.89687 0.50587 0.0
C1048 C 0.54199 0.91964 0.49587 0.0
C1049 C 0.56727 0.92618 0.4905 0.0
C1050 C 0.52446 0.91803 0.47413 0.0
C1051 C 0.53915 0.93672 0.51585 0.0
C1052 C 0.53275 0.92529 0.5343 0.0
C1053 C 0.52828 0.93733 0.55433 0.0
C1054 C 0.53063 0.96136 0.55566 0.0
C1055 C 0.53776 0.97377 0.53728 0.0
C1056 C 0.5421 0.96096 0.5171 0.0
H1057 H 0.51866 0.30942 0.67815 0.0
H1058 H 0.54801 0.25795 0.70502 0.0
H1059 H 0.51627 0.24806 0.72853 0.0
H1060 H 0.49993 0.32882 0.73178 0.0
H1061 H 0.47321 0.33248 0.71773 0.0
H1062 H 0.49827 0.33581 0.70268 0.0
H1063 H 0.47322 0.30474 0.66872 0.0
H1064 H 0.44809 0.30128 0.6837 0.0
H1065 H 0.45779 0.27648 0.67456 0.0
H1066 H 0.48174 0.24316 0.74899 0.0
H1067 H 0.44617 0.24392 0.76587 0.0
H1068 H 0.43828 0.29872 0.72692 0.0
C1069 C 0.51839 0.29611 0.68901 0.0
C1070 C 0.53594 0.28449 0.68966 0.0
C1071 C 0.53488 0.26714 0.70412 0.0
C1072 C 0.51687 0.26134 0.71759 0.0
C1073 C 0.49988 0.273 0.71653 0.0
C1074 C 0.5004 0.29003 0.70269 0.0
C1075 C 0.47979 0.29978 0.705 0.0
C1076 C 0.48832 0.32577 0.71489 0.0
C1077 C 0.46378 0.2953 0.6816 0.0
C1078 C 0.46775 0.28554 0.72229 0.0
C1079 C 0.47973 0.27022 0.72862 0.0
C1080 C 0.47226 0.25519 0.74429 0.0
C1081 C 0.45208 0.25588 0.75393 0.0
C1082 C 0.43947 0.27156 0.74802 0.0
C1083 C 0.44742 0.28647 0.73178 0.0
H1084 H 0.06774 0.82426 0.64936 0.0
H1085 H 1.01298 0.83071 0.69004 0.0
H1086 H 1.00862 0.86386 0.67091 0.0
H1087 H 0.09397 0.88587 0.65018 0.0
H1088 H 0.10029 0.88229 0.62084 0.0
H1089 H 0.09939 0.85944 0.6381 0.0
H1090 H 0.06846 0.8306 0.60623 0.0
H1091 H 0.06919 0.85339 0.58891 0.0
H1092 H 0.04181 0.83724 0.59661 0.0
H1093 H 1.00961 0.89592 0.64647 0.0
H1094 H 1.01608 0.92438 0.61922 0.0
H1095 H 0.07074 0.89751 0.5949 0.0
C1096 C 0.0549 0.8327 0.65437 0.0
C1097 C 0.04071 0.82482 0.6713 0.0
C1098 C 0.02409 0.83638 0.67721 0.0
C1099 C 0.02147 0.85525 0.6664 0.0
C1100 C 0.03562 0.86245 0.6497 0.0
C1101 C 0.05207 0.85157 0.64376 0.0
C1102 C 0.06493 0.86255 0.62511 0.0
C1103 C 0.0912 0.87317 0.6341 0.0
C1104 C 0.06084 0.84489 0.6029 0.0
C1105 C 0.05308 0.88123 0.62135 0.0
C1106 C 0.03625 0.88091 0.63573 0.0
C1107 C 0.02287 0.8964 0.63526 0.0
C1108 C 0.02679 0.91264 0.61977 0.0
C1109 C 0.04401 0.91342 0.60484 0.0
C1110 C 0.05726 0.89736 0.60579 0.0
H1111 H 0.47494 0.80245 0.85875 0.0
H1112 H 0.49779 0.85195 0.81208 0.0
H1113 H 0.4569 0.85068 0.7999 0.0
H1114 H 0.42055 0.76801 0.82032 0.0
H1115 H 0.40355 0.76285 0.84371 0.0
H1116 H 0.43467 0.76693 0.84876 0.0
H1117 H 0.43917 0.80035 0.88219 0.0
H1118 H 0.40809 0.79644 0.87717 0.0
H1119 H 0.4283 0.82442 0.87663 0.0
H1120 H 0.4137 0.84567 0.79337 0.0
H1121 H 0.37101 0.83574 0.79131 0.0
H1122 H 0.37335 0.78838 0.84113 0.0
C1123 C 0.47133 0.81283 0.84577 0.0
C1124 C 0.49008 0.82732 0.8364 0.0
C1125 C 0.48419 0.84066 0.8196 0.0
C1126 C 0.46083 0.84011 0.81254 0.0
C1127 C 0.44295 0.82601 0.82222 0.0
C1128 C 0.44777 0.8124 0.83833 0.0
C1129 C 0.42488 0.79884 0.84585 0.0
C1130 C 0.42067 0.7726 0.83927 0.0
C1131 C 0.42513 0.8054 0.87202 0.0
C1132 C 0.40662 0.80713 0.83161 0.0
C1133 C 0.41764 0.82286 0.81819 0.0
C1134 C 0.40493 0.83329 0.80376 0.0
C1135 C 0.38044 0.82749 0.80277 0.0
C1136 C 0.36824 0.81122 0.81602 0.0
C1137 C 0.38181 0.80093 0.83073 0.0
H1138 H 0.52222 0.19219 0.13171 0.0
H1139 H 0.51222 0.16399 0.19583 0.0
H1140 H 0.51241 0.12573 0.17619 0.0
H1141 H 0.4852 0.13947 0.09263 0.0
H1142 H 0.50398 0.14344 0.07052 0.0
H1143 H 0.50175 0.16826 0.08926 0.0
H1144 H 0.54672 0.1815 0.1012 0.0
H1145 H 0.54908 0.15667 0.08264 0.0
H1146 H 0.56094 0.16184 0.11302 0.0
H1147 H 0.51826 0.09148 0.15065 0.0
H1148 H 0.52504 0.06311 0.12031 0.0
H1149 H 0.52829 0.1121 0.07161 0.0
C1150 C 0.51964 0.17789 0.14156 0.0
C1151 C 0.51714 0.1813 0.16546 0.0
C1152 C 0.51396 0.16198 0.17757 0.0
C1153 C 0.51417 0.14013 0.16654 0.0
C1154 C 0.51718 0.13753 0.14317 0.0
C1155 C 0.51942 0.1558 0.13069 0.0
C1156 C 0.52266 0.14843 0.1058 0.0
C1157 C 0.50217 0.15 0.08853 0.0
C1158 C 0.54625 0.16297 0.10036 0.0
C1159 C 0.52238 0.12333 0.10634 0.0
C1160 C 0.51937 0.11746 0.12815 0.0
C1161 C 0.52018 0.0958 0.13342 0.0
C1162 C 0.52412 0.07979 0.11607 0.0
C1163 C 0.52683 0.08516 0.09344 0.0
C1164 C 0.52573 0.10724 0.08855 0.0
H1165 H 0.14549 0.33435 0.34291 0.0
H1166 H 0.0975 0.27377 0.29895 0.0
H1167 H 0.13078 0.26356 0.28424 0.0
H1168 H 0.18807 0.34793 0.30145 0.0
H1169 H 0.21339 0.35658 0.3236 0.0
H1170 H 0.18589 0.36018 0.33036 0.0
H1171 H 0.18752 0.33622 0.36389 0.0
H1172 H 0.21498 0.33253 0.35717 0.0
H1173 H 0.19072 0.3075 0.35794 0.0
H1174 H 0.16897 0.25806 0.27535 0.0
H1175 H 0.20945 0.2583 0.27189 0.0
H1176 H 0.2352 0.32262 0.32032 0.0
C1177 C 0.14195 0.31912 0.32993 0.0
C1178 C 0.11841 0.30499 0.32211 0.0
C1179 C 0.11499 0.28505 0.30533 0.0
C1180 C 0.13394 0.27903 0.2968 0.0
C1181 C 0.15671 0.29301 0.30499 0.0
C1182 C 0.16094 0.31277 0.32108 0.0
C1183 C 0.18745 0.32432 0.32713 0.0
C1184 C 0.19409 0.34871 0.32022 0.0
C1185 C 0.19565 0.32519 0.35308 0.0
C1186 C 0.19733 0.30788 0.31208 0.0
C1187 C 0.17909 0.28996 0.29955 0.0
C1188 C 0.18334 0.27213 0.28499 0.0
C1189 C 0.20661 0.27241 0.28318 0.0
C1190 C 0.22597 0.29047 0.29565 0.0
C1191 C 0.22104 0.30863 0.31024 0.0
H1192 H 0.96095 0.03872 0.18882 0.0
H1193 H 0.02638 0.05832 0.23609 0.0
H1194 H 0.04824 0.06444 0.20292 0.0
H1195 H 0.98031 0.00684 0.14344 0.0
H1196 H 0.96441 0.01567 0.12002 0.0
H1197 H 0.95367 0.01408 0.14749 0.0
H1198 H 0.95341 0.0569 0.15025 0.0
H1199 H 0.96417 0.05861 0.12278 0.0
H1200 H 0.97986 0.07898 0.14809 0.0
H1201 H 0.06321 0.0678 0.16484 0.0
H1202 H 0.07066 0.06661 0.12445 0.0
H1203 H 0.99577 0.04369 0.10044 0.0
C1204 C 0.97988 0.04456 0.19224 0.0
C1205 C 0.9919 0.04821 0.21528 0.0
C1206 C 1.0167 0.05545 0.21879 0.0
C1207 C 0.0293 0.05902 0.19999 0.0
C1208 C 1.01695 0.05516 0.1776 0.0
C1209 C 0.9928 0.04797 0.17357 0.0
C1210 C 0.98393 0.0441 0.1476 0.0
C1211 C 0.96974 0.01866 0.13915 0.0
C1212 C 0.96949 0.06064 0.14185 0.0
C1213 C 1.00689 0.05015 0.13767 0.0
C1214 C 0.02565 0.05664 0.1554 0.0
C1215 C 0.04864 0.06276 0.15085 0.0
C1216 C 0.05266 0.06201 0.12767 0.0
C1217 C 0.03387 0.05505 0.10895 0.0
C1218 C 1.0106 0.04923 0.11419 0.0
H1219 H 0.28407 0.73776 0.52106 0.0
H1220 H 0.3383 0.70535 0.50723 0.0
H1221 H 0.34306 0.72384 0.47187 0.0
H1222 H 0.25622 0.7259 0.46622 0.0
H1223 H 0.24774 0.7522 0.46622 0.0
H1224 H 0.25253 0.74143 0.49303 0.0
H1225 H 0.28319 0.78056 0.51069 0.0
H1226 H 0.27827 0.79166 0.48394 0.0
H1227 H 0.30745 0.79214 0.49568 0.0
H1228 H 0.33774 0.74107 0.43547 0.0
H1229 H 0.32181 0.75412 0.40044 0.0
H1230 H 0.26945 0.77292 0.43756 0.0
C1231 C 0.29755 0.73516 0.51108 0.0
C1232 C 0.31098 0.72031 0.51693 0.0
C1233 C 0.32798 0.71686 0.5031 0.0
C1234 C 0.33085 0.72735 0.48307 0.0
C1235 C 0.31659 0.74118 0.47728 0.0
C1236 C 0.30032 0.74514 0.49098 0.0
C1237 C 0.28477 0.75774 0.47948 0.0
C1238 C 0.2588 0.74345 0.47603 0.0
C1239 C 0.28867 0.78197 0.49327 0.0
C1240 C 0.29404 0.75929 0.45664 0.0
C1241 C 0.31282 0.75026 0.45591 0.0
C1242 C 0.32333 0.74853 0.43599 0.0
C1243 C 0.31417 0.75593 0.41623 0.0
C1244 C 0.29447 0.76446 0.41652 0.0
C1245 C 0.28456 0.76647 0.43704 0.0
H1246 H 0.65938 0.00716 0.68282 0.0
H1247 H 0.60393 0.99607 0.72546 0.0
H1248 H 0.57509 0.99278 0.69116 0.0
H1249 H 0.64486 0.04485 0.65628 0.0
H1250 H 0.65071 0.03692 0.62741 0.0
H1251 H 0.66579 0.02896 0.65176 0.0
H1252 H 0.65102 0.98564 0.63369 0.0
H1253 H 0.63649 0.99348 0.60864 0.0
H1254 H 0.62017 0.97216 0.62427 0.0
H1255 H 0.55569 1.00416 0.65772 0.0
H1256 H 0.5452 0.02268 0.62455 0.0
H1257 H 0.61275 0.02666 0.60262 0.0
C1258 C 0.64096 1.00243 0.68453 0.0
C1259 C 0.63376 1.0018 0.70662 0.0
C1260 C 0.60968 0.99648 0.70857 0.0
C1261 C 0.59318 0.99459 0.68917 0.0
C1262 C 0.60109 0.99777 0.66797 0.0
C1263 C 0.62434 1.00081 0.66528 0.0
C1264 C 0.62903 0.00804 0.64192 0.0
C1265 C 0.64874 0.03105 0.64454 0.0
C1266 C 0.63449 0.98867 0.6262 0.0
C1267 C 0.60553 0.01089 0.6331 0.0
C1268 C 0.58951 1.00433 0.64809 0.0
C1269 C 0.56775 0.00852 0.64538 0.0
C1270 C 0.56211 0.01943 0.62674 0.0
C1271 C 0.57821 0.02606 0.6111 0.0
C1272 C 0.60001 0.02142 0.61417 0.0
H1273 H 0.29478 0.35333 0.97037 0.0
H1274 H 0.33468 0.30896 0.99554 0.0
H1275 H 0.33563 0.29281 0.95518 0.0
H1276 H 0.26027 0.31203 0.91953 0.0
H1277 H 0.26133 0.33415 0.90129 0.0
H1278 H 0.26232 0.34118 0.93219 0.0
H1279 H 0.30101 0.37382 0.93405 0.0
H1280 H 0.30021 0.3668 0.90321 0.0
H1281 H 0.32552 0.36693 0.92287 0.0
H1282 H 0.33372 0.28239 0.91211 0.0
H1283 H 0.32893 0.27837 0.86936 0.0
H1284 H 0.29096 0.32994 0.87147 0.0
C1285 C 0.30337 0.33993 0.96738 0.0
C1286 C 0.31453 0.33232 0.98625 0.0
C1287 C 0.32594 0.31506 0.98149 0.0
C1288 C 0.32658 0.30575 0.95857 0.0
C1289 C 0.3158 0.31387 0.94041 0.0
C1290 C 0.30434 0.33053 0.9445 0.0
C1291 C 0.29499 0.33685 0.92174 0.0
C1292 C 0.26813 0.33068 0.9185 0.0
C1293 C 0.3061 0.36263 0.9204 0.0
C1294 C 0.30319 0.32132 0.90432 0.0
C1295 C 0.31503 0.30811 0.91549 0.0
C1296 C 0.32441 0.2926 0.90317 0.0
C1297 C 0.32161 0.29045 0.87882 0.0
C1298 C 0.30962 0.30383 0.86686 0.0
C1299 C 0.3003 0.31947 0.87996 0.0
H1300 H 0.98591 0.05581 0.36332 0.0
H1301 H 0.02981 0.01616 0.33568 0.0
H1302 H 0.04567 0.01339 0.37545 0.0
H1303 H 0.02865 0.08797 0.41452 0.0
H1304 H 1.00658 0.08715 0.4332 0.0
H1305 H 0.99943 0.08716 0.40253 0.0
H1306 H 0.96552 0.04946 0.39995 0.0
H1307 H 0.97268 0.04924 0.43056 0.0
H1308 H 0.97159 0.02437 0.4099 0.0
H1309 H 0.0553 0.01273 0.41818 0.0
H1310 H 0.05956 0.01618 0.46089 0.0
H1311 H 1.01015 0.05676 0.46176 0.0
C1312 C 0.99913 0.04687 0.36564 0.0
C1313 C 1.00661 0.03627 0.34616 0.0
C1314 C 0.02377 0.02451 0.35013 0.0
C1315 C 0.0329 0.02279 0.37274 0.0
C1316 C 0.02488 0.03299 0.39148 0.0
C1317 C 1.00855 0.04502 0.38825 0.0
C1318 C 1.00267 0.054 0.41152 0.0
C1319 C 1.00976 0.08065 0.41569 0.0
C1320 C 0.97656 0.04364 0.41306 0.0
C1321 C 1.01797 0.04485 0.42822 0.0
C1322 C 0.03062 0.03278 0.41625 0.0
C1323 C 0.04558 0.02228 0.42775 0.0
C1324 C 0.04782 0.02427 0.45209 0.0
C1325 C 0.03525 0.03673 0.46493 0.0
C1326 C 0.0201 0.04714 0.45263 0.0
H1327 H 0.29333 0.72524 0.62899 0.0
H1328 H 0.33229 0.67883 0.65096 0.0
H1329 H 0.34024 0.70004 0.69098 0.0
H1330 H 0.32861 0.77845 0.66893 0.0
H1331 H 0.30308 0.78736 0.6741 0.0
H1332 H 0.30358 0.77101 0.64652 0.0
H1333 H 0.26557 0.74017 0.65136 0.0
H1334 H 0.26495 0.75636 0.67888 0.0
H1335 H 0.26468 0.72641 0.67705 0.0
H1336 H 0.34136 0.72376 0.72834 0.0
H1337 H 0.333 0.74623 0.76207 0.0
H1338 H 0.29118 0.77625 0.71661 0.0
C1339 C 0.30404 0.71992 0.64212 0.0
C1340 C 0.31251 0.70063 0.63695 0.0
C1341 C 0.32581 0.69367 0.65464 0.0
C1342 C 0.33053 0.7057 0.67731 0.0
C1343 C 0.32168 0.72448 0.6819 0.0
C1344 C 0.30858 0.73149 0.66488 0.0
C1345 C 0.29886 0.75047 0.67493 0.0
C1346 C 0.30916 0.77317 0.66556 0.0
C1347 C 0.27192 0.74288 0.67028 0.0
C1348 C 0.3079 0.7525 0.70043 0.0
C1349 C 0.32147 0.73771 0.70388 0.0
C1350 C 0.33091 0.73551 0.72587 0.0
C1351 C 0.32588 0.7483 0.74494 0.0
C1352 C 0.31119 0.76286 0.74198 0.0
C1353 C 0.30257 0.76542 0.71938 0.0
H1354 H 0.63881 0.04605 0.84162 0.0
H1355 H 0.61321 0.08694 0.79457 0.0
H1356 H 0.59027 0.09861 0.82361 0.0
H1357 H 0.58495 0.02511 0.86391 0.0
H1358 H 0.59888 0.02638 0.89306 0.0
H1359 H 0.61394 0.02178 0.8688 0.0
H1360 H 0.64889 0.05745 0.88712 0.0
H1361 H 0.63387 0.06222 0.91139 0.0
H1362 H 0.64379 0.08516 0.89461 0.0
H1363 H 0.56974 0.10555 0.85734 0.0
H1364 H 0.55211 0.10634 0.89353 0.0
H1365 H 0.59029 0.06025 0.91805 0.0
C1366 C 0.62844 0.05751 0.83748 0.0
C1367 C 0.62781 0.0656 0.81588 0.0
C1368 C 0.61392 0.08048 0.81102 0.0
C1369 C 0.60087 0.08728 0.82741 0.0
C1370 C 0.60186 0.07901 0.84853 0.0
C1371 C 0.61518 0.06439 0.85361 0.0
C1372 C 0.61263 0.05751 0.87739 0.0
C1373 C 0.60196 0.03113 0.87567 0.0
C1374 C 0.6362 0.06611 0.89358 0.0
C1375 C 0.59575 0.0705 0.88479 0.0
C1376 C 0.58983 0.08288 0.86795 0.0
C1377 C 0.57422 0.09594 0.8707 0.0
C1378 C 0.56424 0.09621 0.89122 0.0
C1379 C 0.56991 0.08346 0.90861 0.0
C1380 C 0.58595 0.07055 0.90528 0.0
H1381 H 0.30925 0.37172 0.14173 0.0
H1382 H 0.2922 0.30735 0.09387 0.0
H1383 H 0.28627 0.28525 0.12677 0.0
H1384 H 0.34227 0.35282 0.1871 0.0
H1385 H 0.33273 0.36832 0.21044 0.0
H1386 H 0.33468 0.37903 0.18309 0.0
H1387 H 0.29125 0.37875 0.17991 0.0
H1388 H 0.28915 0.36799 0.20722 0.0
H1389 H 0.2691 0.35233 0.18166 0.0
H1390 H 0.28049 0.27016 0.16473 0.0
H1391 H 0.27934 0.26295 0.2052 0.0
H1392 H 0.30347 0.33707 0.22932 0.0
C1393 C 0.30415 0.35296 0.13817 0.0
C1394 C 0.30094 0.34123 0.11513 0.0
C1395 C 0.29471 0.31669 0.1113 0.0
C1396 C 0.29123 0.30401 0.12989 0.0
C1397 C 0.29448 0.31609 0.15235 0.0
C1398 C 0.30116 0.34003 0.15663 0.0
C1399 C 0.30455 0.34877 0.18253 0.0
C1400 C 0.33008 0.36308 0.1913 0.0
C1401 C 0.28749 0.36279 0.18815 0.0
C1402 C 0.29851 0.326 0.19217 0.0
C1403 C 0.29245 0.30739 0.17439 0.0
C1404 C 0.2854 0.28461 0.17877 0.0
C1405 C 0.28469 0.2807 0.20187 0.0
C1406 C 0.29137 0.29941 0.22051 0.0
C1407 C 0.29843 0.32239 0.2155 0.0
H1408 H 0.23774 0.97714 0.98927 0.0
H1409 H 0.30431 0.0303 0.00927 0.0
H1410 H 0.28412 0.06051 0.00783 0.0
H1411 H 0.20722 0.01242 0.9527 0.0
H1412 H 0.18013 1.00015 0.96329 0.0
H1413 H 0.20012 0.98312 0.95902 0.0
H1414 H 0.20065 0.97583 1.00175 0.0
H1415 H 0.18097 0.9929 0.00621 0.0
H1416 H 0.20875 1.00027 0.02476 0.0
H1417 H 0.25681 0.08392 0.01408 0.0
H1418 H 0.22448 0.0985 0.02585 0.0
H1419 H 0.17567 0.03036 1.00179 0.0
C1420 C 0.24816 0.99514 0.99227 0.0
C1421 C 0.27254 1.0014 0.99933 0.0
C1422 C 0.28558 0.02512 0.00375 0.0
C1423 C 0.27427 0.04243 1.00286 0.0
C1424 C 0.24998 0.03571 0.99724 0.0
C1425 C 0.23708 0.0126 0.9916 0.0
C1426 C 0.2111 0.00975 0.98985 0.0
C1427 C 0.19893 1.00084 0.96472 0.0
C1428 C 0.19974 0.99377 0.00665 0.0
C1429 C 0.21149 0.03461 0.99715 0.0
C1430 C 0.23401 0.04944 1.00075 0.0
C1431 C 0.23902 0.07265 0.01061 0.0
C1432 C 0.22062 0.08074 0.01742 0.0
C1433 C 0.1976 0.06561 0.01442 0.0
C1434 C 0.19298 0.0425 0.00354 0.0
H1435 H 0.70035 0.67832 0.03666 0.0
H1436 H 0.74264 0.6315 0.02549 0.0
H1437 H 0.70778 0.59797 0.02364 0.0
H1438 H 0.66753 0.64729 0.07479 0.0
H1439 H 0.64041 0.65282 0.0647 0.0
H1440 H 0.66787 0.67311 0.06221 0.0
H1441 H 0.65503 0.6696 0.01796 0.0
H1442 H 0.62745 0.64939 0.02041 0.0
H1443 H 0.64563 0.64138 1.00033 0.0
H1444 H 0.66889 0.56958 0.02516 0.0
H1445 H 0.62902 0.54845 0.03112 0.0
H1446 H 0.61247 0.61379 0.04336 0.0
C1447 C 0.70211 0.66099 0.03324 0.0
C1448 C 0.72413 0.65748 0.03092 0.0
C1449 C 0.7259 0.63456 0.02717 0.0
C1450 C 0.7062 0.61541 0.02605 0.0
C1451 C 0.68484 0.61944 0.02892 0.0
C1452 C 0.68265 0.64165 0.03246 0.0
C1453 C 0.65812 0.64124 0.03689 0.0
C1454 C 0.65852 0.65439 0.06109 0.0
C1455 C 0.64584 0.65098 0.01775 0.0
C1456 C 0.64703 0.61538 0.03561 0.0
C1457 C 0.66263 0.6031 0.03068 0.0
C1458 C 0.65648 0.57901 0.02893 0.0
C1459 C 0.63378 0.56715 0.03236 0.0
C1460 C 0.6176 0.57941 0.0378 0.0
C1461 C 0.62441 0.60386 0.03933 0.0
H1462 H 0.70286 0.50634 0.26474 0.0
H1463 H 0.66642 0.48762 0.32287 0.0
H1464 H 0.68341 0.45493 0.32474 0.0
H1465 H 0.69572 0.44811 0.23726 0.0
H1466 H 0.72424 0.455 0.22817 0.0
H1467 H 0.70929 0.47693 0.23149 0.0
H1468 H 0.74497 0.50376 0.25998 0.0
H1469 H 0.76003 0.48192 0.25676 0.0
H1470 H 0.7558 0.4933 0.28524 0.0
H1471 H 0.7046 0.42429 0.3203 0.0
H1472 H 0.72837 0.39826 0.31016 0.0
H1473 H 0.75047 0.43657 0.2544 0.0
C1474 C 0.69845 0.4954 0.2779 0.0
C1475 C 0.68328 0.4996 0.29369 0.0
C1476 C 0.67798 0.4848 0.3106 0.0
C1477 C 0.68755 0.46617 0.31179 0.0
C1478 C 0.70239 0.46253 0.29594 0.0
C1479 C 0.70782 0.47673 0.27931 0.0
C1480 C 0.72422 0.46907 0.26431 0.0
C1481 C 0.71267 0.46184 0.2388 0.0
C1482 C 0.74764 0.48815 0.26673 0.0
C1483 C 0.72724 0.44835 0.27512 0.0
C1484 C 0.71448 0.44485 0.29332 0.0
C1485 C 0.71455 0.42681 0.30601 0.0
C1486 C 0.72801 0.41199 0.29998 0.0
C1487 C 0.74126 0.41518 0.28136 0.0
C1488 C 0.74076 0.4337 0.26884 0.0
H1489 H 0.86646 0.45571 0.57246 0.0
H1490 H 0.85896 0.40507 0.51119 0.0
H1491 H 0.89923 0.42445 0.5054 0.0
H1492 H 0.89554 0.5033 0.55104 0.0
H1493 H 0.91548 0.5177 0.57709 0.0
H1494 H 0.88762 0.49789 0.57911 0.0
H1495 H 0.90812 0.47362 0.60284 0.0
H1496 H 0.93612 0.49366 0.60133 0.0
H1497 H 0.93065 0.46314 0.59143 0.0
H1498 H 0.93662 0.45304 0.50191 0.0
H1499 H 0.97197 0.48614 0.50441 0.0
H1500 H 0.95658 0.5172 0.56909 0.0
C1501 C 0.87355 0.44827 0.55825 0.0
C1502 C 0.85956 0.42895 0.54223 0.0
C1503 C 0.86937 0.4198 0.52375 0.0
C1504 C 0.89222 0.43071 0.52027 0.0
C1505 C 0.90514 0.45041 0.53571 0.0
C1506 C 0.89644 0.45877 0.55471 0.0
C1507 C 0.91345 0.48106 0.56783 0.0
C1508 C 0.90235 0.50116 0.5688 0.0
C1509 C 0.92263 0.47766 0.59231 0.0
C1510 C 0.9325 0.48448 0.55256 0.0
C1511 C 0.92735 0.46657 0.53415 0.0
C1512 C 0.94117 0.46688 0.51653 0.0
C1513 C 0.96101 0.48586 0.51795 0.0
C1514 C 0.96687 0.50408 0.53695 0.0
C1515 C 0.95254 0.5033 0.55453 0.0
H1516 H 0.38021 0.09103 0.31665 0.0
H1517 H 0.32684 0.02495 0.29493 0.0
H1518 H 0.29743 0.04545 0.28615 0.0
H1519 H 0.34288 0.12208 0.34293 0.0
H1520 H 0.35675 0.1487 0.33279 0.0
H1521 H 0.37323 0.12878 0.33894 0.0
H1522 H 0.384 0.12729 0.29722 0.0
H1523 H 0.36754 0.14715 0.29095 0.0
H1524 H 0.36097 0.11945 0.27272 0.0
H1525 H 0.27432 0.07309 0.27786 0.0
H1526 H 0.25921 0.10616 0.27084 0.0
H1527 H 0.32808 0.15372 0.29706 0.0
C1528 C 0.36228 0.08087 0.31034 0.0
C1529 C 0.35577 0.05644 0.30652 0.0
C1530 C 0.33219 0.04373 0.29799 0.0
C1531 C 0.31535 0.05519 0.29299 0.0
C1532 C 0.32241 0.07931 0.29666 0.0
C1533 C 0.34529 0.09201 0.30517 0.0
C1534 C 0.34857 0.11775 0.30653 0.0
C1535 C 0.35578 0.13005 0.3318 0.0
C1536 C 0.36631 0.12853 0.29092 0.0
C1537 C 0.32404 0.1175 0.29717 0.0
C1538 C 0.30915 0.09521 0.29171 0.0
C1539 C 0.28576 0.09066 0.28218 0.0
C1540 C 0.27739 0.10949 0.27811 0.0
C1541 C 0.29245 0.13246 0.28352 0.0
C1542 C 0.31603 0.13639 0.29319 0.0
H1543 H 0.363 0.16878 0.54028 0.0
H1544 H 0.32387 0.14778 0.59619 0.0
H1545 H 0.34877 0.12308 0.60561 0.0
H1546 H 0.37157 0.1133 0.52189 0.0
H1547 H 0.40097 0.12505 0.51595 0.0
H1548 H 0.3804 0.14171 0.51343 0.0
H1549 H 0.40909 0.17573 0.54233 0.0
H1550 H 0.4298 0.15922 0.54484 0.0
H1551 H 0.42003 0.17057 0.57049 0.0
H1552 H 0.37651 0.0998 0.60865 0.0
H1553 H 0.40704 0.08005 0.60611 0.0
H1554 H 0.42994 0.11619 0.54916 0.0
C1555 C 0.35979 0.15907 0.55456 0.0
C1556 C 0.3414 0.16027 0.56746 0.0
C1557 C 0.33777 0.14722 0.586 0.0
C1558 C 0.35183 0.13307 0.59152 0.0
C1559 C 0.3696 0.1321 0.57843 0.0
C1560 C 0.3738 0.14477 0.56042 0.0
C1561 C 0.39421 0.14036 0.54925 0.0
C1562 C 0.38631 0.12946 0.52361 0.0
C1563 C 0.41449 0.16281 0.55189 0.0
C1564 C 0.40062 0.12318 0.56377 0.0
C1565 C 0.3861 0.11872 0.58045 0.0
C1566 C 0.38819 0.10332 0.59583 0.0
C1567 C 0.40574 0.09229 0.59433 0.0
C1568 C 0.42122 0.09674 0.57767 0.0
C1569 C 0.41841 0.11232 0.56206 0.0
H1570 H 0.71026 0.61897 0.29485 0.0
H1571 H 0.6655 0.63456 0.34404 0.0
H1572 H 0.68773 0.6759 0.34941 0.0
H1573 H 0.76491 0.6627 0.32425 0.0
H1574 H 0.77467 0.66965 0.29724 0.0
H1575 H 0.75666 0.64087 0.29877 0.0
H1576 H 0.7268 0.64416 0.26491 0.0
H1577 H 0.7446 0.67297 0.26338 0.0
H1578 H 0.71438 0.66809 0.26736 0.0
H1579 H 0.71215 0.71571 0.34704 0.0
H1580 H 0.73846 0.7516 0.33828 0.0
H1581 H 0.76818 0.71098 0.29089 0.0
C1582 C 0.70545 0.631 0.30713 0.0
C1583 C 0.68612 0.62341 0.31909 0.0
C1584 C 0.6802 0.63985 0.33469 0.0
C1585 C 0.69275 0.66341 0.33789 0.0
C1586 C 0.71129 0.67037 0.32546 0.0
C1587 C 0.7178 0.65469 0.31053 0.0
C1588 C 0.73773 0.66702 0.29845 0.0
C1589 C 0.7598 0.65962 0.30508 0.0
C1590 C 0.73043 0.66281 0.27196 0.0
C1591 C 0.74104 0.69209 0.3086 0.0
C1592 C 0.72563 0.69354 0.3242 0.0
C1593 C 0.72447 0.71479 0.33505 0.0
C1594 C 0.73943 0.73511 0.32982 0.0
C1595 C 0.75543 0.73417 0.31389 0.0
C1596 C 0.75634 0.71229 0.30333 0.0
H1597 H 0.86036 0.46852 0.79438 0.0
H1598 H 0.90581 0.48723 0.86074 0.0
H1599 H 0.89038 0.44719 0.869 0.0
H1600 H 0.81097 0.43053 0.8128 0.0
H1601 H 0.8038 0.41019 0.78624 0.0
H1602 H 0.81808 0.4404 0.78591 0.0
H1603 H 0.85163 0.42959 0.76713 0.0
H1604 H 0.83728 0.39937 0.76712 0.0
H1605 H 0.86713 0.41198 0.78101 0.0
H1606 H 0.869 0.40489 0.87003 0.0
H1607 H 0.84707 0.36302 0.86153 0.0
H1608 H 0.81718 0.37308 0.79415 0.0
C1609 C 0.8671 0.46424 0.81066 0.0
C1610 C 0.88416 0.48093 0.82697 0.0
C1611 C 0.89275 0.4746 0.84797 0.0
C1612 C 0.88398 0.452 0.85289 0.0
C1613 C 0.86683 0.43603 0.83653 0.0
C1614 C 0.85876 0.44184 0.81571 0.0
C1615 C 0.84105 0.42142 0.80055 0.0
C1616 C 0.81706 0.42591 0.79613 0.0
C1617 C 0.84981 0.41523 0.77761 0.0
C1618 C 0.84048 0.40312 0.81601 0.0
C1619 C 0.85515 0.41184 0.83684 0.0
C1620 C 0.85747 0.39787 0.85376 0.0
C1621 C 0.84489 0.37423 0.84889 0.0
C1622 C 0.83061 0.36501 0.8272 0.0
C1623 C 0.82811 0.37974 0.81084 0.0
H1624 H 0.10572 0.89084 0.07313 0.0
H1625 H 0.04322 0.8664 0.10479 0.0
H1626 H 0.03137 0.90086 0.09681 0.0
H1627 H 0.11636 0.95242 0.09548 0.0
H1628 H 0.1264 0.96284 0.06974 0.0
H1629 H 0.13022 0.93593 0.07712 0.0
H1630 H 0.10822 0.91464 0.03683 0.0
H1631 H 0.10438 0.9415 0.02932 0.0
H1632 H 0.07928 0.91657 0.0275 0.0
H1633 H 0.02528 0.93771 0.08519 0.0
H1634 H 0.02577 0.9747 0.07201 0.0
H1635 H 0.09276 0.97904 0.04848 0.0
C1636 C 0.08946 0.89266 0.07826 0.0
C1637 C 0.07539 0.87529 0.08961 0.0
C1638 C 0.05443 0.87895 0.09613 0.0
C1639 C 0.04748 0.89866 0.09162 0.0
C1640 C 0.06162 0.91531 0.08063 0.0
C1641 C 0.08228 0.9127 0.07409 0.0
C1642 C 0.09428 0.93381 0.06296 0.0
C1643 C 0.11824 0.94703 0.07717 0.0
C1644 C 0.09669 0.92617 0.03765 0.0
C1645 C 0.0771 0.94854 0.06419 0.0
C1646 C 0.05837 0.93722 0.0744 0.0
C1647 C 0.03994 0.94665 0.07725 0.0
C1648 C 0.04039 0.96792 0.06954 0.0
C1649 C 0.05923 0.98042 0.05901 0.0
C1650 C 0.07804 0.97038 0.0565 0.0
H1651 H 0.96441 0.27865 0.89467 0.0
H1652 H 0.93343 0.26756 0.95745 0.0
H1653 H 0.89567 0.26905 0.93738 0.0
H1654 H 0.93449 0.32002 0.87851 0.0
H1655 H 0.93063 0.31018 0.84773 0.0
H1656 H 0.95506 0.30696 0.86641 0.0
H1657 H 0.9423 0.2629 0.85134 0.0
H1658 H 0.91785 0.26599 0.83258 0.0
H1659 H 0.91298 0.24579 0.85306 0.0
H1660 H 0.861 0.27128 0.91067 0.0
H1661 H 0.83235 0.27645 0.88007 0.0
H1662 H 0.88525 0.28873 0.8343 0.0
C1663 C 0.9496 0.27629 0.9041 0.0
C1664 C 0.95197 0.27273 0.92771 0.0
C1665 C 0.93219 0.27022 0.93945 0.0
C1666 C 0.91059 0.27101 0.92814 0.0
C1667 C 0.90888 0.27468 0.90503 0.0
C1668 C 0.92786 0.27749 0.89313 0.0
C1669 C 0.92136 0.28226 0.86865 0.0
C1670 C 0.93628 0.30628 0.86512 0.0
C1671 C 0.92377 0.26309 0.85032 0.0
C1672 C 0.89578 0.28161 0.86865 0.0
C1673 C 0.88899 0.27697 0.88981 0.0
C1674 C 0.86621 0.27503 0.89409 0.0
C1675 C 0.84996 0.27798 0.87645 0.0
C1676 C 0.85633 0.28311 0.85459 0.0
C1677 C 0.87972 0.28498 0.85076 0.0
H1678 H 0.55995 0.22599 0.6113 0.0
H1679 H 0.6178 0.25548 0.57531 0.0
H1680 H 0.61836 0.21575 0.55994 0.0
H1681 H 0.57867 0.17889 0.62797 0.0
H1682 H 0.54988 0.15842 0.62329 0.0
H1683 H 0.5533 0.18896 0.63047 0.0
H1684 H 0.52491 0.18744 0.59344 0.0
H1685 H 0.52119 0.15682 0.58627 0.0
H1686 H 0.53058 0.17595 0.5656 0.0
H1687 H 0.61455 0.17148 0.55127 0.0
H1688 H 0.60412 0.12865 0.54654 0.0
H1689 H 0.54707 0.12756 0.58623 0.0
C1690 C 0.57253 0.2242 0.59983 0.0
C1691 C 0.5888 0.24433 0.59451 0.0
C1692 C 0.60494 0.24074 0.57952 0.0
C1693 C 0.60548 0.21806 0.57084 0.0
C1694 C 0.58956 0.19874 0.5769 0.0
C1695 C 0.57305 0.20167 0.59072 0.0
C1696 C 0.55775 0.17813 0.59466 0.0
C1697 C 0.56005 0.17598 0.62064 0.0
C1698 C 0.53209 0.17437 0.58438 0.0
C1699 C 0.56834 0.16139 0.58123 0.0
C1700 C 0.58683 0.17362 0.57126 0.0
C1701 C 0.59991 0.16192 0.55885 0.0
C1702 C 0.59389 0.13739 0.55633 0.0
C1703 C 0.57466 0.12424 0.56586 0.0
C1704 C 0.56178 0.13674 0.57849 0.0
H1705 H 0.56533 0.79864 0.40029 0.0
H1706 H 0.59738 0.77829 0.4614 0.0
H1707 H 0.63329 0.78148 0.44381 0.0
H1708 H 0.59135 0.76801 0.3581 0.0
H1709 H 0.59549 0.7904 0.33993 0.0
H1710 H 0.57183 0.7859 0.35695 0.0
H1711 H 0.58695 0.82901 0.37593 0.0
H1712 H 0.61075 0.8336 0.3591 0.0
H1713 H 0.61674 0.84055 0.39031 0.0
H1714 H 0.66647 0.78853 0.42077 0.0
H1715 H 0.69419 0.79705 0.39277 0.0
H1716 H 0.64093 0.81169 0.34554 0.0
C1717 C 0.5798 0.79462 0.40989 0.0
C1718 C 0.57836 0.78819 0.43233 0.0
C1719 C 0.59787 0.78324 0.44425 0.0
C1720 C 0.61844 0.78503 0.43441 0.0
C1721 C 0.61939 0.79172 0.41252 0.0
C1722 C 0.60057 0.79627 0.40027 0.0
C1723 C 0.60642 0.80332 0.37706 0.0
C1724 C 0.59031 0.78586 0.35681 0.0
C1725 C 0.60514 0.82809 0.37552 0.0
C1726 C 0.63149 0.80215 0.3783 0.0
C1727 C 0.63856 0.79545 0.39895 0.0
C1728 C 0.66103 0.79351 0.4044 0.0
C1729 C 0.67665 0.79826 0.38824 0.0
C1730 C 0.66981 0.80476 0.36667 0.0
C1731 C 0.64686 0.80687 0.36183 0.0
H1732 H 0.04356 0.28191 0.44129 0.0
H1733 H 0.07552 0.25715 0.38433 0.0
H1734 H 0.07637 0.22271 0.4023 0.0
H1735 H 0.07594 0.26141 0.48689 0.0
H1736 H 0.05131 0.25306 0.50232 0.0
H1737 H 0.0539 0.2765 0.48556 0.0
H1738 H 1.01274 0.25564 0.46247 0.0
H1739 H 1.01009 0.23208 0.47907 0.0
H1740 H 1.00669 0.22634 0.44783 0.0
H1741 H 0.07246 0.19006 0.42508 0.0
H1742 H 0.06486 0.16156 0.45203 0.0
H1743 H 0.03619 0.20693 0.49528 0.0
C1744 C 0.05096 0.26937 0.43273 0.0
C1745 C 0.05947 0.27241 0.4113 0.0
C1746 C 0.06882 0.25537 0.40066 0.0
C1747 C 0.06941 0.23566 0.41075 0.0
C1748 C 0.06063 0.23304 0.4316 0.0
C1749 C 0.05167 0.24941 0.44259 0.0
C1750 C 0.04298 0.24193 0.46472 0.0
C1751 C 0.05687 0.25926 0.48614 0.0
C1752 C 1.01655 0.23881 0.46344 0.0
C1753 C 0.04831 0.21877 0.46426 0.0
C1754 C 0.05853 0.21408 0.44498 0.0
C1755 C 0.0647 0.19365 0.4404 0.0
C1756 C 0.06044 0.17759 0.45596 0.0
C1757 C 0.05015 0.18193 0.47606 0.0
C1758 C 0.04397 0.2029 0.4801 0.0
H1759 H 0.61924 0.28065 0.21647 0.0
H1760 H 0.5892 0.24593 0.27142 0.0
H1761 H 0.62898 0.24771 0.28967 0.0
H1762 H 0.66389 0.25293 0.21118 0.0
H1763 H 0.68576 0.27828 0.2063 0.0
H1764 H 0.65518 0.27533 0.19808 0.0
H1765 H 0.65995 0.31477 0.22324 0.0
H1766 H 0.69061 0.31793 0.23141 0.0
H1767 H 0.67218 0.3195 0.2535 0.0
H1768 H 0.67243 0.25102 0.30066 0.0
H1769 H 0.71517 0.25792 0.30511 0.0
H1770 H 0.718 0.29191 0.24384 0.0
C1771 C 0.62095 0.27366 0.23253 0.0
C1772 C 0.60069 0.26316 0.24245 0.0
C1773 C 0.60411 0.25421 0.26345 0.0
C1774 C 0.62677 0.25506 0.27391 0.0
C1775 C 0.64619 0.26514 0.26343 0.0
C1776 C 0.64351 0.27458 0.24334 0.0
C1777 C 0.66727 0.28435 0.23554 0.0
C1778 C 0.66806 0.27198 0.21134 0.0
C1779 C 0.67283 0.3107 0.23595 0.0
C1780 C 0.68375 0.27863 0.25412 0.0
C1781 C 0.67116 0.26748 0.27 0.0
C1782 C 0.68235 0.25989 0.28836 0.0
C1783 C 0.70682 0.26385 0.29069 0.0
C1784 C 0.72039 0.27549 0.27489 0.0
C1785 C 0.70843 0.28301 0.25635 0.0
H1786 H 0.54959 0.90656 0.90469 0.0
H1787 H 0.60447 0.89052 0.94841 0.0
H1788 H 0.60693 0.92397 0.97744 0.0
H1789 H 0.57322 0.9709 0.91996 0.0
H1790 H 0.54468 0.97515 0.9202 0.0
H1791 H 0.54819 0.95098 0.9014 0.0
H1792 H 0.51692 0.92268 0.91956 0.0
H1793 H 0.51333 0.94674 0.93839 0.0
H1794 H 0.52059 0.9232 0.95058 0.0
H1795 H 0.60174 0.95653 0.00348 0.0
H1796 H 0.58925 0.98723 0.02518 0.0
H1797 H 0.53821 0.98468 0.96587 0.0
C1798 C 0.56241 0.91038 0.92017 0.0
C1799 C 0.57688 0.89571 0.92408 0.0
C1800 C 0.59312 0.90123 0.94485 0.0
C1801 C 0.59474 0.92034 0.96152 0.0
C1802 C 0.58006 0.93412 0.95741 0.0
C1803 C 0.56424 0.92958 0.93727 0.0
C1804 C 0.5498 0.94679 0.9381 0.0
C1805 C 0.55424 0.96185 0.91876 0.0
C1806 C 0.52361 0.93409 0.93656 0.0
C1807 C 0.55967 0.96123 0.96201 0.0
C1808 C 0.57723 0.95355 0.97265 0.0
C1809 C 0.58826 0.96293 0.99521 0.0
C1810 C 0.58104 0.98038 0.00742 0.0
C1811 C 0.56305 0.98863 0.99716 0.0
C1812 C 0.55242 0.97913 0.97396 0.0
H1813 H 0.94225 0.73002 0.75187 0.0
H1814 H 0.98355 0.80081 0.75145 0.0
H1815 H 0.95134 0.81495 0.76414 0.0
H1816 H 0.88671 0.73866 0.72851 0.0
H1817 H 0.86928 0.71958 0.74545 0.0
H1818 H 0.89591 0.7147 0.73754 0.0
H1819 H 0.91128 0.71618 0.78079 0.0
H1820 H 0.88469 0.72109 0.78882 0.0
H1821 H 0.91265 0.74116 0.80142 0.0
H1822 H 0.91504 0.82202 0.77845 0.0
H1823 H 0.8764 0.82146 0.78923 0.0
H1824 H 0.85519 0.74622 0.77733 0.0
C1825 C 0.94458 0.74852 0.75461 0.0
C1826 C 0.96595 0.76428 0.75083 0.0
C1827 C 0.96773 0.78828 0.75423 0.0
C1828 C 0.9494 0.79653 0.76153 0.0
C1829 C 0.92872 0.78068 0.76506 0.0
C1830 C 0.92599 0.75712 0.76138 0.0
C1831 C 0.9013 0.74391 0.76532 0.0
C1832 C 0.88748 0.72828 0.74287 0.0
C1833 C 0.90256 0.72974 0.78527 0.0
C1834 C 0.89072 0.76369 0.77197 0.0
C1835 C 0.90712 0.78474 0.77198 0.0
C1836 C 0.90208 0.80558 0.77827 0.0
C1837 C 0.87991 0.80506 0.78452 0.0
C1838 C 0.86226 0.78388 0.78421 0.0
C1839 C 0.86796 0.76282 0.77768 0.0
H1840 H 0.0995 0.07906 0.87701 0.0
H1841 H 0.09057 0.00713 0.84989 0.0
H1842 H 0.07847 0.99562 0.88696 0.0
H1843 H 0.12504 0.07577 0.93478 0.0
H1844 H 0.11168 0.09575 0.94899 0.0
H1845 H 0.11822 0.09805 0.91993 0.0
H1846 H 0.07489 0.09491 0.90584 0.0
H1847 H 0.06825 0.09261 0.93486 0.0
H1848 H 0.05208 0.07048 0.91106 0.0
H1849 H 0.06557 0.992 0.92703 0.0
H1850 H 0.05719 0.99696 0.96752 0.0
H1851 H 0.07861 0.07157 0.96982 0.0
C1852 C 0.09476 0.06085 0.87881 0.0
C1853 C 0.0956 0.04391 0.86038 0.0
C1854 C 0.08989 0.02036 0.86366 0.0
C1855 C 0.08296 0.01368 0.88467 0.0
C1856 C 0.08234 0.03081 0.90252 0.0
C1857 C 0.08847 0.05397 0.89991 0.0
C1858 C 0.0877 0.06912 0.92219 0.0
C1859 C 0.11211 0.08565 0.93205 0.0
C1860 C 0.06965 0.08257 0.91824 0.0
C1861 C 0.0799 0.0509 0.93768 0.0
C1862 C 0.07658 0.02887 0.92594 0.0
C1863 C 0.0684 0.00922 0.93641 0.0
C1864 C 0.06362 0.01218 0.95941 0.0
C1865 C 0.06748 0.03462 0.97196 0.0
C1866 C 0.07582 0.05418 0.96084 0.0
H1867 H 0.76431 0.39616 0.61186 0.0
H1868 H 0.74429 0.33553 0.55875 0.0
H1869 H 0.74455 0.31059 0.58886 0.0
H1870 H 0.80568 0.38477 0.63989 0.0
H1871 H 0.80258 0.39399 0.66945 0.0
H1872 H 0.79065 0.40623 0.64645 0.0
H1873 H 0.74947 0.39347 0.65862 0.0
H1874 H 0.76127 0.38157 0.68235 0.0
H1875 H 0.73667 0.36363 0.66179 0.0
H1876 H 0.76002 0.29449 0.62142 0.0
H1877 H 0.78469 0.2879 0.6549 0.0
H1878 H 0.79733 0.35941 0.68631 0.0
C1879 C 0.75858 0.37753 0.6067 0.0
C1880 C 0.75461 0.36778 0.58309 0.0
C1881 C 0.74754 0.34337 0.57682 0.0
C1882 C 0.74754 0.32903 0.59385 0.0
C1883 C 0.75428 0.33938 0.61698 0.0
C1884 C 0.75894 0.36309 0.62354 0.0
C1885 C 0.77039 0.37052 0.6486 0.0
C1886 C 0.79369 0.38999 0.6512 0.0
C1887 C 0.75343 0.37772 0.66373 0.0
C1888 C 0.77424 0.34801 0.65398 0.0
C1889 C 0.76392 0.33001 0.63599 0.0
C1890 C 0.76756 0.30827 0.63592 0.0
C1891 C 0.78201 0.30482 0.65477 0.0
C1892 C 0.79297 0.32319 0.67318 0.0
C1893 C 0.78876 0.3449 0.67277 0.0
H1894 H 0.51118 0.07158 0.38063 0.0
H1895 H 0.44662 0.08471 0.39625 0.0
H1896 H 0.46308 0.09514 0.43767 0.0
H1897 H 0.51677 0.04111 0.42037 0.0
H1898 H 0.54804 0.05089 0.42914 0.0
H1899 H 0.53599 0.05346 0.40059 0.0
H1900 H 0.55646 0.09764 0.40752 0.0
H1901 H 0.56935 0.09521 0.43604 0.0
H1902 H 0.55254 0.11543 0.43274 0.0
H1903 H 0.47994 0.09079 0.47624 0.0
H1904 H 0.49847 0.07741 0.5094 0.0
H1905 H 0.55275 0.06734 0.46975 0.0
C1906 C 0.50102 0.07789 0.39265 0.0
C1907 C 0.47763 0.07721 0.38536 0.0
C1908 C 0.46465 0.08524 0.40147 0.0
C1909 C 0.47389 0.09119 0.42508 0.0
C1910 C 0.49623 0.08946 0.43208 0.0
C1911 C 0.50999 0.08371 0.41624 0.0
C1912 C 0.53151 0.079 0.42824 0.0
C1913 C 0.53312 0.05468 0.41904 0.0
C1914 C 0.55379 0.09796 0.42601 0.0
C1915 C 0.52644 0.08059 0.45297 0.0
C1916 C 0.50635 0.08725 0.45493 0.0
C1917 C 0.49614 0.08642 0.47516 0.0
C1918 C 0.50659 0.07846 0.49377 0.0
C1919 C 0.52702 0.0714 0.49199 0.0
C1920 C 0.53739 0.07309 0.4716 0.0
H1921 H 0.81593 0.73942 0.12757 0.0
H1922 H 0.76537 0.77065 0.09665 0.0
H1923 H 0.76092 0.78739 0.13577 0.0
H1924 H 0.7884 0.72368 0.17539 0.0
H1925 H 0.81486 0.73063 0.19591 0.0
H1926 H 0.81552 0.72249 0.16552 0.0
H1927 H 0.848 0.76072 0.16549 0.0
H1928 H 0.8476 0.76888 0.19598 0.0
H1929 H 0.84327 0.78805 0.17571 0.0
H1930 H 0.75867 0.7971 0.17857 0.0
H1931 H 0.76222 0.80279 0.22142 0.0
H1932 H 0.81589 0.76726 0.2247 0.0
C1933 C 0.80425 0.75015 0.12897 0.0
C1934 C 0.79102 0.7537 0.10888 0.0
C1935 C 0.77586 0.76779 0.11163 0.0
C1936 C 0.77311 0.7773 0.13385 0.0
C1937 C 0.78593 0.77293 0.15326 0.0
C1938 C 0.80157 0.76009 0.15103 0.0
C1939 C 0.81301 0.75772 0.17471 0.0
C1940 C 0.80761 0.73211 0.17807 0.0
C1941 C 0.83954 0.76955 0.17817 0.0
C1942 C 0.80092 0.77073 0.19059 0.0
C1943 C 0.78528 0.77928 0.17787 0.0
C1944 C 0.77113 0.79078 0.18868 0.0
C1945 C 0.77317 0.79381 0.21306 0.0
C1946 C 0.78941 0.78562 0.22651 0.0
C1947 C 0.8035 0.774 0.21498 0.0
H1948 H 0.10366 0.02642 0.70982 0.0
H1949 H 0.07706 0.0796 0.74314 0.0
H1950 H 0.06044 0.08559 0.70461 0.0
H1951 H 0.12038 0.05289 0.66196 0.0
H1952 H 0.1112 0.02666 0.64113 0.0
H1953 H 0.11964 0.02542 0.67126 0.0
H1954 H 0.07962 0.99563 0.67211 0.0
H1955 H 0.07122 0.99656 0.64185 0.0
H1956 H 0.05299 1.00249 0.66286 0.0
H1957 H 0.05083 0.08893 0.66167 0.0
H1958 H 0.04416 0.08529 0.61869 0.0
H1959 H 0.07443 0.028 0.61373 0.0
C1960 C 0.09391 0.039 0.70906 0.0
C1961 C 0.09164 0.0525 0.72962 0.0
C1962 C 0.07883 0.06885 0.72775 0.0
C1963 C 0.06947 0.07249 0.70588 0.0
C1964 C 0.0726 0.05934 0.68595 0.0
C1965 C 0.08402 0.0425 0.6874 0.0
C1966 C 0.08509 0.0307 0.66339 0.0
C1967 C 0.11059 0.03414 0.6592 0.0
C1968 C 0.07141 1.00481 0.65985 0.0
C1969 C 0.07299 0.04388 0.64819 0.0
C1970 C 0.06608 0.06049 0.66147 0.0
C1971 C 0.05582 0.07569 0.65116 0.0
C1972 C 0.05222 0.07362 0.62673 0.0
C1973 C 0.05854 0.05624 0.61281 0.0
C1974 C 0.06906 0.04124 0.62384 0.0
H1975 H 0.77948 0.33357 0.46339 0.0
H1976 H 0.75194 0.39066 0.44976 0.0
H1977 H 0.7484 0.37788 0.40758 0.0
H1978 H 0.81551 0.33895 0.42231 0.0
H1979 H 0.81151 0.30843 0.41381 0.0
H1980 H 0.80756 0.31897 0.44259 0.0
H1981 H 0.76556 0.29075 0.43655 0.0
H1982 H 0.76949 0.27979 0.4078 0.0
H1983 H 0.74501 0.29091 0.41177 0.0
H1984 H 0.7533 0.36254 0.3678 0.0
H1985 H 0.76481 0.34498 0.33275 0.0
H1986 H 0.79011 0.29833 0.37264 0.0
C1987 C 0.77202 0.343 0.45158 0.0
C1988 C 0.76589 0.36305 0.45978 0.0
C1989 C 0.75659 0.37516 0.44378 0.0
C1990 C 0.7545 0.36801 0.41984 0.0
C1991 C 0.76164 0.34871 0.41236 0.0
C1992 C 0.76998 0.33621 0.42775 0.0
C1993 C 0.77879 0.31765 0.41545 0.0
C1994 C 0.80488 0.32124 0.42405 0.0
C1995 C 0.76381 0.29333 0.41804 0.0
C1996 C 0.77502 0.32227 0.39078 0.0
C1997 C 0.76478 0.34 0.38933 0.0
C1998 C 0.76094 0.34838 0.36863 0.0
C1999 C 0.76772 0.33836 0.34885 0.0
C2000 C 0.7784 0.32025 0.34998 0.0
C2001 C 0.78189 0.31203 0.37121 0.0
H2002 H 0.47754 0.04337 0.27016 0.0
H2003 H 0.41117 0.99067 0.246 0.0
H2004 H 0.42685 0.97804 0.21102 0.0
H2005 H 0.49013 0.05778 0.21347 0.0
H2006 H 0.52107 0.06205 0.22118 0.0
H2007 H 0.50379 0.06763 0.24323 0.0
H2008 H 0.51813 0.03921 0.2668 0.0
H2009 H 0.53513 0.03322 0.24465 0.0
H2010 H 0.5137 0.00976 0.25334 0.0
H2011 H 0.45095 0.96994 0.17983 0.0
H2012 H 0.48026 0.96928 0.15334 0.0
H2013 H 0.53059 0.02672 0.19932 0.0
C2014 C 0.46613 0.02937 0.2574 0.0
C2015 C 0.44316 0.01798 0.26078 0.0
C2016 C 0.42882 0.99972 0.24367 0.0
C2017 C 0.4376 0.99235 0.22384 0.0
C2018 C 0.46064 1.00354 0.22146 0.0
C2019 C 0.47457 0.02184 0.23766 0.0
C2020 C 0.49883 0.03075 0.23144 0.0
C2021 C 0.50373 0.05605 0.22706 0.0
C2022 C 0.51754 0.02806 0.25017 0.0
C2023 C 0.49652 0.01443 0.20928 0.0
C2024 C 0.47441 0.99884 0.20375 0.0
C2025 C 0.4683 0.98209 0.18397 0.0
C2026 C 0.48511 0.98169 0.16918 0.0
C2027 C 0.50765 0.99794 0.17436 0.0
C2028 C 0.51343 0.01421 0.19486 0.0
H2029 H 0.77476 0.76973 0.97323 0.0
H2030 H 0.81326 0.71872 0.97351 0.0
H2031 H 0.82188 0.72471 0.93409 0.0
H2032 H 0.74905 0.75511 0.91376 0.0
H2033 H 0.752 0.78455 0.90905 0.0
H2034 H 0.74932 0.77686 0.93761 0.0
H2035 H 0.78801 0.80873 0.95431 0.0
H2036 H 0.79077 0.81657 0.92579 0.0
H2037 H 0.81419 0.80888 0.94181 0.0
H2038 H 0.82357 0.73373 0.89328 0.0
H2039 H 0.82131 0.74774 0.85544 0.0
H2040 H 0.78421 0.79508 0.88187 0.0
C2041 C 0.78521 0.75999 0.96509 0.0
C2042 C 0.79332 0.7437 0.97661 0.0
C2043 C 0.80692 0.73135 0.96524 0.0
C2044 C 0.81186 0.73459 0.94275 0.0
C2045 C 0.8034 0.75052 0.9318 0.0
C2046 C 0.79064 0.7633 0.9427 0.0
C2047 C 0.78372 0.77938 0.92699 0.0
C2048 C 0.75693 0.77362 0.92153 0.0
C2049 C 0.79484 0.80491 0.93788 0.0
C2050 C 0.79425 0.77338 0.90547 0.0
C2051 C 0.80536 0.75655 0.90861 0.0
C2052 C 0.81525 0.74719 0.8908 0.0
C2053 C 0.81384 0.75524 0.86931 0.0
C2054 C 0.80292 0.77278 0.86571 0.0
C2055 C 0.79312 0.78202 0.88419 0.0
H2056 H 0.82832 0.06392 0.08374 0.0
H2057 H 0.8195 0.10455 0.02903 0.0
H2058 H 0.83673 0.08078 1.00326 0.0
H2059 H 0.8827 0.06303 0.07662 0.0
H2060 H 0.88009 0.03407 0.08277 0.0
H2061 H 0.86178 0.05 0.09461 0.0
H2062 H 0.82488 0.01665 0.07565 0.0
H2063 H 0.84321 1.00059 0.06362 0.0
H2064 H 0.82061 0.00681 0.04483 0.0
H2065 H 0.8609 0.05803 0.98629 0.0
H2066 H 0.89288 0.04053 0.98083 0.0
H2067 H 0.88648 0.01475 0.04646 0.0
C2068 C 0.82931 0.06727 0.06607 0.0
C2069 C 0.82252 0.0859 0.05828 0.0
C2070 C 0.82463 0.09028 0.0353 0.0
C2071 C 0.83414 0.07671 0.02046 0.0
C2072 C 0.84133 0.05883 0.02887 0.0
C2073 C 0.83902 0.05407 0.05117 0.0
C2074 C 0.85153 0.03661 0.05736 0.0
C2075 C 0.87012 0.04654 0.0791 0.0
C2076 C 0.834 0.01381 0.06054 0.0
C2077 C 0.86257 0.03351 0.03568 0.0
C2078 C 0.85582 0.04582 0.01912 0.0
C2079 C 0.86586 0.04782 0.99882 0.0
C2080 C 0.88397 0.03779 0.99582 0.0
C2081 C 0.89197 0.02631 0.01324 0.0
C2082 C 0.88046 0.02331 0.03286 0.0
H2083 H 0.39598 0.41192 0.05909 0.0
H2084 H 0.35374 0.45951 0.0657 0.0
H2085 H 0.38835 0.49225 0.06469 0.0
H2086 H 0.44828 0.45039 0.09558 0.0
H2087 H 0.46807 0.44134 0.07812 0.0
H2088 H 0.43998 0.42145 0.07953 0.0
H2089 H 0.43026 0.41545 0.03467 0.0
H2090 H 0.4583 0.43534 0.03315 0.0
H2091 H 0.43185 0.44029 0.02005 0.0
H2092 H 0.42683 0.51968 0.06105 0.0
H2093 H 0.46754 0.54036 0.05736 0.0
H2094 H 0.48553 0.47557 0.0549 0.0
C2095 C 0.39403 0.42923 0.06039 0.0
C2096 C 0.37208 0.43309 0.06244 0.0
C2097 C 0.37034 0.45606 0.06421 0.0
C2098 C 0.3899 0.47481 0.0636 0.0
C2099 C 0.4112 0.47042 0.06146 0.0
C2100 C 0.41349 0.44826 0.06011 0.0
C2101 C 0.43851 0.44843 0.05807 0.0
C2102 C 0.44935 0.4399 0.07908 0.0
C2103 C 0.4398 0.43403 0.03512 0.0
C2104 C 0.44979 0.4741 0.05824 0.0
C2105 C 0.43367 0.48643 0.06008 0.0
C2106 C 0.43968 0.51026 0.05979 0.0
C2107 C 0.46283 0.52184 0.05762 0.0
C2108 C 0.47974 0.50963 0.05598 0.0
C2109 C 0.47307 0.48544 0.05639 0.0
H2110 H 0.4102 0.59137 0.80977 0.0
H2111 H 0.39852 0.58361 0.73451 0.0
H2112 H 0.3772 0.61306 0.73659 0.0
H2113 H 0.35304 0.59714 0.81725 0.0
H2114 H 0.36328 0.61805 0.84337 0.0
H2115 H 0.37876 0.59718 0.83625 0.0
H2116 H 0.41704 0.63049 0.83865 0.0
H2117 H 0.40167 0.65146 0.84578 0.0
H2118 H 0.4175 0.65325 0.8213 0.0
H2119 H 0.35788 0.64367 0.74645 0.0
H2120 H 0.33892 0.67167 0.76351 0.0
H2121 H 0.36033 0.65837 0.83243 0.0
C2122 C 0.40328 0.59603 0.79377 0.0
C2123 C 0.40616 0.58529 0.77195 0.0
C2124 C 0.39652 0.59157 0.7514 0.0
C2125 C 0.38444 0.60834 0.7524 0.0
C2126 C 0.3818 0.61852 0.77409 0.0
C2127 C 0.39068 0.61249 0.79444 0.0
C2128 C 0.38433 0.62543 0.8154 0.0
C2129 C 0.36894 0.60843 0.82886 0.0
C2130 C 0.40646 0.64109 0.83122 0.0
C2131 C 0.37061 0.63969 0.80361 0.0
C2132 C 0.36965 0.63558 0.77979 0.0
C2133 C 0.35844 0.64697 0.76508 0.0
C2134 C 0.3478 0.66291 0.77493 0.0
C2135 C 0.34816 0.66718 0.79926 0.0
C2136 C 0.35967 0.65532 0.81377 0.0
H2137 H 0.21705 0.60443 0.56924 0.0
H2138 H 0.21961 0.6589 0.52667 0.0
H2139 H 0.17673 0.64558 0.51698 0.0
H2140 H 0.16686 0.56026 0.53201 0.0
H2141 H 0.15483 0.5492 0.55668 0.0
H2142 H 0.18602 0.56135 0.55829 0.0
H2143 H 0.18635 0.58993 0.59491 0.0
H2144 H 0.15517 0.57808 0.59326 0.0
H2145 H 0.16775 0.60872 0.59349 0.0
H2146 H 0.134 0.62933 0.51494 0.0
H2147 H 0.09337 0.60954 0.51905 0.0
H2148 H 0.11795 0.56516 0.56261 0.0
C2149 C 0.20862 0.61323 0.5575 0.0
C2150 C 0.22167 0.63271 0.54874 0.0
C2151 C 0.20998 0.64396 0.53365 0.0
C2152 C 0.18562 0.63651 0.52797 0.0
C2153 C 0.17323 0.6177 0.5374 0.0
C2154 C 0.18425 0.60602 0.55163 0.0
C2155 C 0.16661 0.5871 0.56042 0.0
C2156 C 0.16871 0.56305 0.5513 0.0
C2157 C 0.16913 0.59122 0.5871 0.0
C2158 C 0.14402 0.59053 0.54946 0.0
C2159 C 0.14829 0.60815 0.53612 0.0
C2160 C 0.13036 0.61529 0.52509 0.0
C2161 C 0.10734 0.60401 0.52766 0.0
C2162 C 0.10248 0.58578 0.54114 0.0
C2163 C 0.12111 0.57895 0.5521 0.0
H2164 H 0.7609 0.01349 0.77725 0.0
H2165 H 0.70496 1.00075 0.81938 0.0
H2166 H 0.72678 0.98098 0.84431 0.0
H2167 H 0.77 0.96114 0.77465 0.0
H2168 H 0.80136 0.971 0.77598 0.0
H2169 H 0.78373 0.98801 0.76484 0.0
H2170 H 0.80767 0.02352 0.79518 0.0
H2171 H 0.82544 0.0065 0.80649 0.0
H2172 H 0.81048 0.02092 0.82562 0.0
H2173 H 0.75093 0.95638 0.85941 0.0
H2174 H 0.77464 0.9291 0.86286 0.0
H2175 H 0.81565 0.95988 0.81206 0.0
C2176 C 0.75347 0.00702 0.79205 0.0
C2177 C 0.73126 0.00848 0.79639 0.0
C2178 C 0.72205 0.99983 0.81586 0.0
C2179 C 0.73436 0.98871 0.83015 0.0
C2180 C 0.75602 0.98695 0.82496 0.0
C2181 C 0.7656 0.99619 0.80651 0.0
C2182 C 0.78771 0.98987 0.8028 0.0
C2183 C 0.78554 0.97672 0.77813 0.0
C2184 C 0.80909 0.0115 0.80783 0.0
C2185 C 0.78831 0.97433 0.82104 0.0
C2186 C 0.77022 0.97321 0.83403 0.0
C2187 C 0.76555 0.95763 0.84985 0.0
C2188 C 0.77915 0.94225 0.85176 0.0
C2189 C 0.79696 0.94251 0.83774 0.0
C2190 C 0.8022 0.95945 0.82305 0.0
H2191 H 0.75232 0.94352 0.5868 0.0
H2192 H 0.74402 0.89984 0.52049 0.0
H2193 H 0.71369 0.91681 0.50465 0.0
H2194 H 0.69067 0.94102 0.58563 0.0
H2195 H 0.69732 0.97079 0.5991 0.0
H2196 H 0.71742 0.95429 0.60548 0.0
H2197 H 0.75073 0.98562 0.59294 0.0
H2198 H 0.73074 1.00216 0.58645 0.0
H2199 H 0.74681 0.99366 0.56443 0.0
H2200 H 0.68592 0.94042 0.49541 0.0
H2201 H 0.66186 0.96759 0.49399 0.0
H2202 H 0.68823 0.99549 0.56647 0.0
C2203 C 0.74395 0.9373 0.56902 0.0
C2204 C 0.75055 0.9203 0.55489 0.0
C2205 C 0.73921 0.91276 0.53168 0.0
C2206 C 0.72198 0.92233 0.52252 0.0
C2207 C 0.71615 0.9393 0.53683 0.0
C2208 C 0.72668 0.94657 0.55965 0.0
C2209 C 0.71771 0.96544 0.57124 0.0
C2210 C 0.70503 0.9574 0.59156 0.0
C2211 C 0.73769 0.98806 0.57922 0.0
C2212 C 0.70074 0.96791 0.5513 0.0
C2213 C 0.70006 0.95267 0.5316 0.0
C2214 C 0.68622 0.95231 0.51078 0.0
C2215 C 0.67273 0.96791 0.5101 0.0
C2216 C 0.67311 0.98364 0.53011 0.0
C2217 C 0.68728 0.98346 0.55097 0.0
H2218 H 0.38539 0.4702 0.77136 0.0
H2219 H 0.4533 0.45915 0.78922 0.0
H2220 H 0.43403 0.41879 0.79294 0.0
H2221 H 0.3563 0.43575 0.8111 0.0
H2222 H 0.32889 0.42373 0.79198 0.0
H2223 H 0.34769 0.45184 0.78945 0.0
H2224 H 0.34808 0.43796 0.74606 0.0
H2225 H 0.32921 0.40982 0.74844 0.0
H2226 H 0.35682 0.4123 0.73801 0.0
H2227 H 0.40854 0.38054 0.79612 0.0
H2228 H 0.37759 0.34531 0.79834 0.0
H2229 H 0.32485 0.37928 0.77873 0.0
C2230 C 0.39616 0.45919 0.77582 0.0
C2231 C 0.42094 0.46798 0.77999 0.0
C2232 C 0.43436 0.45301 0.786 0.0
C2233 C 0.42358 0.42996 0.78812 0.0
C2234 C 0.39927 0.42194 0.78421 0.0
C2235 C 0.38562 0.43593 0.77814 0.0
C2236 C 0.35974 0.42271 0.77556 0.0
C2237 C 0.34743 0.4342 0.79307 0.0
C2238 C 0.34776 0.42057 0.75052 0.0
C2239 C 0.36115 0.39927 0.78134 0.0
C2240 C 0.38422 0.39938 0.78618 0.0
C2241 C 0.39038 0.38016 0.79231 0.0
C2242 C 0.37254 0.36018 0.79359 0.0
C2243 C 0.34862 0.35937 0.78879 0.0
C2244 C 0.3429 0.37926 0.78248 0.0
H2245 H 0.22299 0.63274 0.28271 0.0
H2246 H 0.27215 0.60401 0.2494 0.0
H2247 H 0.29396 0.6435 0.24329 0.0
H2248 H 0.21921 0.67186 0.24404 0.0
H2249 H 0.21649 0.69406 0.26592 0.0
H2250 H 0.20638 0.66405 0.26947 0.0
H2251 H 0.23296 0.67274 0.30937 0.0
H2252 H 0.24289 0.70287 0.3061 0.0
H2253 H 0.26382 0.68699 0.31128 0.0
H2254 H 0.31002 0.68721 0.24091 0.0
H2255 H 0.31784 0.72976 0.24185 0.0
H2256 H 0.25544 0.72689 0.27385 0.0
C2257 C 0.23858 0.63466 0.27449 0.0
C2258 C 0.24602 0.61534 0.26675 0.0
C2259 C 0.26625 0.61866 0.25562 0.0
C2260 C 0.2787 0.64098 0.25206 0.0
C2261 C 0.27047 0.65961 0.25951 0.0
C2262 C 0.25082 0.65652 0.27047 0.0
C2263 C 0.24457 0.6788 0.27584 0.0
C2264 C 0.22023 0.67708 0.26304 0.0
C2265 C 0.24617 0.68576 0.30221 0.0
C2266 C 0.26371 0.69503 0.26612 0.0
C2267 C 0.27874 0.68392 0.25701 0.0
C2268 C 0.29823 0.696 0.24786 0.0
C2269 C 0.30249 0.72009 0.24838 0.0
C2270 C 0.28707 0.73155 0.25759 0.0
C2271 C 0.26737 0.71866 0.26627 0.0
H2272 H 0.51647 0.69825 0.49544 0.0
H2273 H 0.57148 0.74589 0.5464 0.0
H2274 H 0.58082 0.7128 0.56168 0.0
H2275 H 0.49788 0.65353 0.53291 0.0
H2276 H 0.49287 0.62939 0.51004 0.0
H2277 H 0.48952 0.65665 0.50325 0.0
H2278 H 0.51914 0.65784 0.47423 0.0
H2279 H 0.52259 0.6306 0.48096 0.0
H2280 H 0.54785 0.65558 0.48401 0.0
H2281 H 0.58538 0.67439 0.57155 0.0
H2282 H 0.58495 0.63428 0.57502 0.0
H2283 H 0.52755 0.609 0.51793 0.0
C2284 C 0.5303 0.70176 0.51 0.0
C2285 C 0.54305 0.72527 0.5197 0.0
C2286 C 0.56124 0.72852 0.53853 0.0
C2287 C 0.56675 0.70964 0.54741 0.0
C2288 C 0.55413 0.68694 0.53746 0.0
C2289 C 0.53623 0.68282 0.51914 0.0
C2290 C 0.52593 0.65646 0.51144 0.0
C2291 C 0.50001 0.64854 0.51459 0.0
C2292 C 0.52906 0.64972 0.48615 0.0
C2293 C 0.54082 0.64653 0.52821 0.0
C2294 C 0.55691 0.6646 0.54307 0.0
C2295 C 0.57276 0.66021 0.55997 0.0
C2296 C 0.57236 0.63707 0.56182 0.0
C2297 C 0.55624 0.61782 0.54693 0.0
C2298 C 0.54014 0.62293 0.52983 0.0
H2299 H 0.67726 0.30447 0.66356 0.0
H2300 H 0.64829 0.3476 0.70873 0.0
H2301 H 0.67945 0.34977 0.74087 0.0
H2302 H 0.69058 0.2711 0.7057 0.0
H2303 H 0.71755 0.26846 0.69651 0.0
H2304 H 0.69504 0.27253 0.67591 0.0
H2305 H 0.72439 0.3089 0.66588 0.0
H2306 H 0.7469 0.30441 0.68625 0.0
H2307 H 0.74053 0.33188 0.68898 0.0
H2308 H 0.71134 0.34465 0.76915 0.0
H2309 H 0.74233 0.33354 0.79173 0.0
H2310 H 0.75201 0.29295 0.72949 0.0
C2311 C 0.67806 0.31507 0.67999 0.0
C2312 C 0.66067 0.32656 0.68338 0.0
C2313 C 0.66169 0.33924 0.70551 0.0
C2314 C 0.6793 0.34044 0.72393 0.0
C2315 C 0.69586 0.32862 0.72025 0.0
C2316 C 0.69555 0.31625 0.69882 0.0
C2317 C 0.71457 0.30384 0.70022 0.0
C2318 C 0.70378 0.27741 0.69423 0.0
C2319 C 0.73266 0.31281 0.68436 0.0
C2320 C 0.72537 0.31093 0.72577 0.0
C2321 C 0.71424 0.32531 0.73686 0.0
C2322 C 0.72026 0.33356 0.76056 0.0
C2323 C 0.73797 0.327 0.77332 0.0
C2324 C 0.74987 0.31226 0.76264 0.0
C2325 C 0.7435 0.30432 0.73832 0.0
H2326 H 0.05254 0.36909 1.0007 0.0
H2327 H 0.98801 0.34202 0.02834 0.0
H2328 H 0.98634 0.38179 0.03983 0.0
H2329 H 0.07616 0.41983 0.04718 0.0
H2330 H 0.08963 0.43905 0.0281 0.0
H2331 H 0.08614 0.4084 0.0217 0.0
H2332 H 0.06375 0.40713 0.98111 0.0
H2333 H 0.06714 0.43777 0.98743 0.0
H2334 H 0.03836 0.41761 0.97875 0.0
H2335 H 0.98971 0.42467 0.04624 0.0
H2336 H 1.0003 0.46738 0.05111 0.0
H2337 H 0.0645 0.46906 0.02285 0.0
C2338 C 0.03817 0.37153 0.00936 0.0
C2339 C 0.02035 0.3519 0.0135 0.0
C2340 C 1.00197 0.35631 0.02494 0.0
C2341 C 1.00078 0.37903 0.03149 0.0
C2342 C 1.01832 0.39782 0.02701 0.0
C2343 C 0.03695 0.39443 0.01658 0.0
C2344 C 0.05375 0.41801 0.0145 0.0
C2345 C 0.07785 0.42153 0.02871 0.0
C2346 C 0.05587 0.42026 0.98892 0.0
C2347 C 0.04145 0.435 0.02502 0.0
C2348 C 0.02089 0.42281 0.03186 0.0
C2349 C 1.00592 0.43433 0.04116 0.0
C2350 C 1.01208 0.45877 0.04378 0.0
C2351 C 0.03331 0.47204 0.03754 0.0
C2352 C 0.04821 0.45972 0.02805 0.0
H2353 H 0.02256 0.77477 0.19593 0.0
H2354 H 1.0172 0.83197 0.15964 0.0
H2355 H 0.98387 0.83552 0.17965 0.0
H2356 H 0.96064 0.74894 0.19363 0.0
H2357 H 0.96328 0.74051 0.22206 0.0
H2358 H 0.98695 0.74275 0.20522 0.0
H2359 H 1.01535 0.77144 0.23906 0.0
H2360 H 0.99174 0.76932 0.25599 0.0
H2361 H 1.00848 0.79728 0.25058 0.0
H2362 H 0.95106 0.83289 0.20381 0.0
H2363 H 0.92099 0.82401 0.22956 0.0
H2364 H 0.94682 0.76767 0.2494 0.0
C2365 C 1.01445 0.78811 0.19222 0.0
C2366 C 0.02262 0.80316 0.1762 0.0
C2367 C 1.01134 0.82025 0.17181 0.0
C2368 C 0.99238 0.82241 0.18313 0.0
C2369 C 0.98477 0.8073 0.19878 0.0
C2370 C 0.99542 0.79044 0.20329 0.0
C2371 C 0.98362 0.77618 0.22064 0.0
C2372 C 0.97299 0.75058 0.20973 0.0
C2373 C 1.00082 0.77871 0.24288 0.0
C2374 C 0.96468 0.78766 0.2252 0.0
C2375 C 0.9657 0.8056 0.21245 0.0
C2376 C 0.95004 0.81879 0.21376 0.0
C2377 C 0.93287 0.81346 0.22837 0.0
C2378 C 0.93124 0.79499 0.24152 0.0
C2379 C 0.94757 0.78204 0.23985 0.0
H2380 H 0.56231 0.30953 0.13667 0.0
H2381 H 0.50756 0.31389 0.17812 0.0
H2382 H 0.50461 0.34922 0.16227 0.0
H2383 H 0.59071 0.37046 0.14375 0.0
H2384 H 0.59779 0.36992 0.11462 0.0
H2385 H 0.59504 0.34464 0.12869 0.0
H2386 H 0.56392 0.31997 0.09445 0.0
H2387 H 0.56661 0.34517 0.08025 0.0
H2388 H 0.53836 0.32896 0.08606 0.0
H2389 H 0.50812 0.3846 0.14206 0.0
H2390 H 0.51747 0.4167 0.11907 0.0
H2391 H 0.57068 0.38961 0.09171 0.0
C2392 C 0.54957 0.31779 0.14233 0.0
C2393 C 0.53509 0.30884 0.15861 0.0
C2394 C 0.51879 0.32035 0.16564 0.0
C2395 C 0.51701 0.34045 0.15673 0.0
C2396 C 0.53167 0.34889 0.14083 0.0
C2397 C 0.54762 0.33789 0.13369 0.0
C2398 C 0.56162 0.35066 0.11672 0.0
C2399 C 0.58784 0.35944 0.12654 0.0
C2400 C 0.55736 0.33527 0.09296 0.0
C2401 C 0.55108 0.37058 0.11541 0.0
C2402 C 0.53382 0.36926 0.12942 0.0
C2403 C 0.52166 0.38581 0.13108 0.0
C2404 C 0.52723 0.40411 0.11806 0.0
C2405 C 0.54488 0.40584 0.10354 0.0
C2406 C 0.55691 0.38874 0.10235 0.0
H2407 H 0.97906 0.33974 0.35984 0.0
H2408 H 0.99348 0.29486 0.30368 0.0
H2409 H 0.95254 0.28653 0.28449 0.0
H2410 H 0.92139 0.30565 0.36269 0.0
H2411 H 0.90987 0.32989 0.3686 0.0
H2412 H 0.94048 0.33326 0.37723 0.0
H2413 H 0.95149 0.36749 0.35406 0.0
H2414 H 0.92089 0.36427 0.34539 0.0
H2415 H 0.93986 0.3634 0.32369 0.0
H2416 H 0.90841 0.28031 0.27313 0.0
H2417 H 0.86655 0.27865 0.26937 0.0
H2418 H 0.88062 0.32919 0.33167 0.0
C2419 C 0.97381 0.32836 0.34333 0.0
C2420 C 0.98992 0.31802 0.33335 0.0
C2421 C 0.98188 0.30321 0.31173 0.0
C2422 C 0.9585 0.2983 0.30072 0.0
C2423 C 0.94311 0.30849 0.31126 0.0
C2424 C 0.95058 0.32347 0.33198 0.0
C2425 C 0.9305 0.33195 0.33988 0.0
C2426 C 0.92525 0.32475 0.3635 0.0
C2427 C 0.93602 0.35835 0.34081 0.0
C2428 C 0.91037 0.31916 0.32059 0.0
C2429 C 0.91806 0.30563 0.3043 0.0
C2430 C 0.90246 0.29116 0.28563 0.0
C2431 C 0.8786 0.29034 0.28361 0.0
C2432 C 0.87017 0.30412 0.29987 0.0
C2433 C 0.88648 0.31891 0.31855 0.0
H2434 H 0.02483 0.67624 0.68182 0.0
H2435 H 1.00014 0.71775 0.63516 0.0
H2436 H 0.99494 0.68664 0.60213 0.0
H2437 H 0.05901 0.65588 0.64383 0.0
H2438 H 0.05324 0.62717 0.65163 0.0
H2439 H 0.0519 0.651 0.67229 0.0
H2440 H 1.00972 0.62849 0.67668 0.0
H2441 H 1.01075 0.60464 0.6558 0.0
H2442 H 0.98774 0.61817 0.65131 0.0
H2443 H 0.9943 0.65208 0.57363 0.0
H2444 H 1.00046 0.61769 0.55136 0.0
H2445 H 0.02824 0.59892 0.61542 0.0
C2446 C 1.01765 0.6784 0.66474 0.0
C2447 C 1.01232 0.69926 0.66115 0.0
C2448 C 1.00394 0.70183 0.63838 0.0
C2449 C 1.00094 0.68422 0.61949 0.0
C2450 C 1.00673 0.66408 0.62344 0.0
C2451 C 1.015 0.66104 0.64548 0.0
C2452 C 0.02192 0.63858 0.64445 0.0
C2453 C 0.04807 0.64346 0.65359 0.0
C2454 C 1.00662 0.62147 0.65787 0.0
C2455 C 1.01669 0.62981 0.61843 0.0
C2456 C 1.00751 0.6446 0.60674 0.0
C2457 C 1.00142 0.64036 0.58263 0.0
C2458 C 1.00496 0.62069 0.57009 0.0
C2459 C 1.01491 0.60549 0.58148 0.0
C2460 C 0.02068 0.61017 0.60608 0.0
H2461 H 0.65256 0.84079 0.86936 0.0
H2462 H 0.60121 0.80643 0.80902 0.0
H2463 H 0.63256 0.79645 0.78926 0.0
H2464 H 0.70016 0.86537 0.83646 0.0
H2465 H 0.72262 0.86199 0.85764 0.0
H2466 H 0.69625 0.86658 0.8666 0.0
H2467 H 0.68894 0.82908 0.88522 0.0
H2468 H 0.71519 0.82429 0.87619 0.0
H2469 H 0.68759 0.80211 0.86776 0.0
H2470 H 0.67015 0.78668 0.77766 0.0
H2471 H 0.70959 0.78271 0.77349 0.0
H2472 H 0.73756 0.82686 0.83966 0.0
C2473 C 0.64786 0.83141 0.85183 0.0
C2474 C 0.62405 0.82446 0.84085 0.0
C2475 C 0.61906 0.81222 0.81788 0.0
C2476 C 0.63688 0.80632 0.80656 0.0
C2477 C 0.66001 0.81313 0.81807 0.0
C2478 C 0.66557 0.8259 0.84007 0.0
C2479 C 0.69181 0.8316 0.84858 0.0
C2480 C 0.70339 0.85795 0.85256 0.0
C2481 C 0.69613 0.82115 0.87075 0.0
C2482 C 0.70026 0.81974 0.82819 0.0
C2483 C 0.68157 0.80889 0.81086 0.0
C2484 C 0.68481 0.79554 0.79103 0.0
C2485 C 0.70741 0.79331 0.78879 0.0
C2486 C 0.72707 0.80475 0.80593 0.0
C2487 C 0.7232 0.81827 0.82588 0.0
H2488 H 0.46985 0.54362 0.69922 0.0
H2489 H 0.53367 0.55904 0.74828 0.0
H2490 H 0.55694 0.56472 0.71606 0.0
H2491 H 0.48855 0.51116 0.65404 0.0
H2492 H 0.4744 0.52162 0.63065 0.0
H2493 H 0.46266 0.52002 0.65761 0.0
H2494 H 0.46517 0.56361 0.66139 0.0
H2495 H 0.47692 0.56533 0.63442 0.0
H2496 H 0.49275 0.58458 0.66038 0.0
H2497 H 0.57343 0.56773 0.67849 0.0
H2498 H 0.58206 0.56683 0.63838 0.0
H2499 H 0.50772 0.54877 0.61274 0.0
C2500 C 0.48874 0.54845 0.70326 0.0
C2501 C 0.49987 0.55101 0.7265 0.0
C2502 C 0.52465 0.55701 0.73079 0.0
C2503 C 0.53805 0.56032 0.71255 0.0
C2504 C 0.52654 0.5575 0.68993 0.0
C2505 C 0.50244 0.55166 0.68518 0.0
C2506 C 0.49445 0.54882 0.65915 0.0
C2507 C 0.47911 0.52392 0.64982 0.0
C2508 C 0.48156 0.56665 0.65351 0.0
C2509 C 0.51782 0.55384 0.65 0.0
C2510 C 0.53607 0.55895 0.66813 0.0
C2511 C 0.55926 0.56382 0.66419 0.0
C2512 C 0.56398 0.56325 0.64121 0.0
C2513 C 0.54565 0.55777 0.62214 0.0
C2514 C 0.52222 0.55319 0.62678 0.0
H2515 H 0.82299 0.22423 0.03754 0.0
H2516 H 0.82177 0.15678 1.00253 0.0
H2517 H 0.8198 0.17117 0.96484 0.0
H2518 H 0.78156 0.23316 1.00065 0.0
H2519 H 0.79413 0.26385 1.00118 0.0
H2520 H 0.80144 0.25054 0.02562 0.0
H2521 H 0.8456 0.26592 0.02264 0.0
H2522 H 0.83848 0.27974 0.99835 0.0
H2523 H 0.85584 0.25985 0.99547 0.0
H2524 H 0.80901 0.18977 0.93125 0.0
H2525 H 0.79366 0.21241 0.90428 0.0
H2526 H 0.80257 0.26794 0.96118 0.0
C2527 C 0.8232 0.21275 0.02202 0.0
C2528 C 0.82251 0.18943 0.02285 0.0
C2529 C 0.82252 0.17479 1.00224 0.0
C2530 C 0.8214 0.18282 0.98077 0.0
C2531 C 0.82079 0.2056 0.98041 0.0
C2532 C 0.82222 0.22054 1.00057 0.0
C2533 C 0.81846 0.24324 0.99544 0.0
C2534 C 0.79766 0.24794 0.00636 0.0
C2535 C 0.84094 0.26338 0.00345 0.0
C2536 C 0.81305 0.23815 0.96927 0.0
C2537 C 0.81488 0.21653 0.96088 0.0
C2538 C 0.80815 0.20697 0.93753 0.0
C2539 C 0.79923 0.2198 0.92242 0.0
C2540 C 0.79708 0.24185 0.93079 0.0
C2541 C 0.80451 0.25129 0.95437 0.0
H2542 H 0.14823 0.5666 0.21343 0.0
H2543 H 0.14464 0.49373 0.20428 0.0
H2544 H 0.11375 0.48638 0.17008 0.0
H2545 H 0.08712 0.5611 0.19501 0.0
H2546 H 0.09376 0.58583 0.17991 0.0
H2547 H 0.11349 0.58461 0.20488 0.0
H2548 H 0.14766 0.59045 0.18049 0.0
H2549 H 0.12811 0.59193 0.15558 0.0
H2550 H 0.14447 0.57106 0.15381 0.0
H2551 H 0.08313 0.48765 0.1369 0.0
H2552 H 0.06053 0.4981 0.10395 0.0
H2553 H 0.08798 0.57071 0.13354 0.0
C2554 C 0.14068 0.54903 0.20439 0.0
C2555 C 0.14832 0.5306 0.2115 0.0
C2556 C 0.13874 0.50796 0.19899 0.0
C2557 C 0.12114 0.50367 0.17976 0.0
C2558 C 0.11386 0.52232 0.17325 0.0
C2559 C 0.12371 0.54462 0.18498 0.0
C2560 C 0.11484 0.56212 0.17329 0.0
C2561 C 0.10151 0.57411 0.18923 0.0
C2562 C 0.13496 0.57993 0.16531 0.0
C2563 C 0.0985 0.54627 0.15295 0.0
C2564 C 0.09764 0.5233 0.15349 0.0
C2565 C 0.08368 0.50556 0.13633 0.0
C2566 C 0.07082 0.5116 0.11784 0.0
C2567 C 0.07261 0.53514 0.11654 0.0
C2568 C 0.08633 0.55259 0.13439 0.0
H2569 H 0.83631 0.83152 0.4873 0.0
H2570 H 0.77084 0.8488 0.48836 0.0
H2571 H 0.7613 0.83695 0.44594 0.0
H2572 H 0.84939 0.85317 0.43516 0.0
H2573 H 0.86183 0.83083 0.42443 0.0
H2574 H 0.86284 0.83853 0.45521 0.0
H2575 H 0.84204 0.7958 0.45828 0.0
H2576 H 0.84101 0.78793 0.42748 0.0
H2577 H 0.81443 0.78113 0.44027 0.0
H2578 H 0.7598 0.8262 0.40362 0.0
H2579 H 0.76633 0.81729 0.36337 0.0
H2580 H 0.83273 0.8063 0.38789 0.0
C2581 C 0.81976 0.83238 0.47865 0.0
C2582 C 0.80421 0.84096 0.49132 0.0
C2583 C 0.78299 0.84224 0.47919 0.0
C2584 C 0.77739 0.8355 0.45504 0.0
C2585 C 0.79318 0.82749 0.44307 0.0
C2586 C 0.81393 0.82582 0.45437 0.0
C2587 C 0.82831 0.81782 0.43695 0.0
C2588 C 0.85199 0.83619 0.43801 0.0
C2589 C 0.83164 0.79427 0.44099 0.0
C2590 C 0.81255 0.81563 0.4141 0.0
C2591 C 0.79234 0.8212 0.41824 0.0
C2592 C 0.77547 0.82164 0.4002 0.0
C2593 C 0.7794 0.81661 0.37733 0.0
C2594 C 0.80001 0.81105 0.37238 0.0
C2595 C 0.81667 0.81017 0.39109 0.0
H2596 H 0.49812 0.56417 0.87353 0.0
H2597 H 0.52687 0.51013 0.84563 0.0
H2598 H 0.54083 0.50542 0.88527 0.0
H2599 H 0.54603 0.58935 0.92275 0.0
H2600 H 0.52672 0.59572 0.94237 0.0
H2601 H 0.51963 0.59569 0.91169 0.0
H2602 H 0.47945 0.56577 0.91143 0.0
H2603 H 0.48649 0.56559 0.94206 0.0
H2604 H 0.47838 0.53882 0.92205 0.0
H2605 H 0.54868 0.50377 0.92775 0.0
H2606 H 0.55359 0.50832 0.97057 0.0
H2607 H 0.5224 0.56502 0.97211 0.0
C2608 C 0.50767 0.55161 0.87577 0.0
C2609 C 0.51135 0.53754 0.85627 0.0
C2610 C 0.52383 0.52122 0.8601 0.0
C2611 C 0.53181 0.51832 0.88264 0.0
C2612 C 0.52754 0.53207 0.90142 0.0
C2613 C 0.51612 0.54869 0.89831 0.0
C2614 C 0.51387 0.5611 0.92169 0.0
C2615 C 0.52737 0.587 0.92481 0.0
C2616 C 0.48801 0.5576 0.92446 0.0
C2617 C 0.5254 0.54855 0.93829 0.0
C2618 C 0.53299 0.53176 0.92614 0.0
C2619 C 0.54309 0.51708 0.93746 0.0
C2620 C 0.5457 0.51971 0.96182 0.0
C2621 C 0.53855 0.5371 0.97478 0.0
C2622 C 0.52833 0.55175 0.96274 0.0
H2623 H 0.81819 0.16369 0.16882 0.0
H2624 H 0.86163 0.21246 0.13178 0.0
H2625 H 0.86533 0.24407 0.1637 0.0
H2626 H 0.78455 0.19524 0.18141 0.0
H2627 H 0.77972 0.18856 0.20997 0.0
H2628 H 0.78724 0.16825 0.1897 0.0
H2629 H 0.82348 0.16852 0.21839 0.0
H2630 H 0.81493 0.18772 0.23924 0.0
H2631 H 0.84409 0.19583 0.23164 0.0
H2632 H 0.85555 0.27117 0.19316 0.0
H2633 H 0.83669 0.29139 0.22072 0.0
H2634 H 0.79772 0.22503 0.23728 0.0
C2635 C 0.82973 0.18073 0.16818 0.0
C2636 C 0.8398 0.18569 0.14805 0.0
C2637 C 0.85399 0.20835 0.14725 0.0
C2638 C 0.85614 0.22641 0.16528 0.0
C2639 C 0.84408 0.2214 0.18394 0.0
C2640 C 0.83157 0.19898 0.1858 0.0
C2641 C 0.8167 0.1987 0.2051 0.0
C2642 C 0.79053 0.18701 0.19597 0.0
C2643 C 0.82535 0.18701 0.22477 0.0
C2644 C 0.82156 0.22443 0.21266 0.0
C2645 C 0.83778 0.23724 0.20067 0.0
C2646 C 0.84331 0.26134 0.20313 0.0
C2647 C 0.83226 0.27265 0.21856 0.0
C2648 C 0.81563 0.25978 0.23104 0.0
C2649 C 0.81036 0.23539 0.22802 0.0
H2650 H 0.13641 0.5825 0.32356 0.0
H2651 H 0.16708 0.52974 0.34497 0.0
H2652 H 0.14301 0.52532 0.37677 0.0
H2653 H 0.1338 0.60931 0.38042 0.0
H2654 H 0.10625 0.61478 0.37206 0.0
H2655 H 0.12581 0.61356 0.35106 0.0
H2656 H 0.09269 0.58172 0.32385 0.0
H2657 H 0.07306 0.58273 0.34486 0.0
H2658 H 0.0782 0.55563 0.33455 0.0
H2659 H 0.11605 0.52716 0.40639 0.0
H2660 H 0.08853 0.53551 0.43225 0.0
H2661 H 0.07527 0.58668 0.3909 0.0
C2662 C 0.13815 0.57004 0.33495 0.0
C2663 C 0.15365 0.55649 0.33187 0.0
C2664 C 0.15533 0.54032 0.34708 0.0
C2665 C 0.14171 0.53766 0.36512 0.0
C2666 C 0.12649 0.55122 0.36756 0.0
C2667 C 0.12465 0.5671 0.3529 0.0
C2668 C 0.1071 0.57966 0.35927 0.0
C2669 C 0.11895 0.60588 0.36612 0.0
C2670 C 0.08655 0.57462 0.33945 0.0
C2671 C 0.09944 0.5685 0.37997 0.0
C2672 C 0.1108 0.55212 0.38444 0.0
C2673 C 0.10703 0.53991 0.40304 0.0
C2674 C 0.09147 0.54482 0.41763 0.0
C2675 C 0.07989 0.56176 0.4135 0.0
C2676 C 0.08372 0.57349 0.39425 0.0
H2677 H 0.80555 0.87735 0.64793 0.0
H2678 H 0.79836 0.81304 0.60284 0.0
H2679 H 0.79197 0.79168 0.63618 0.0
H2680 H 0.83785 0.86363 0.69745 0.0
H2681 H 0.82443 0.87766 0.71855 0.0
H2682 H 0.82751 0.8878 0.69104 0.0
H2683 H 0.78293 0.88244 0.68344 0.0
H2684 H 0.7797 0.87218 0.71089 0.0
H2685 H 0.76274 0.85457 0.6845 0.0
H2686 H 0.78518 0.77713 0.67405 0.0
H2687 H 0.78241 0.77048 0.71431 0.0
H2688 H 0.79659 0.84451 0.7363 0.0
C2689 C 0.80252 0.85874 0.64504 0.0
C2690 C 0.80225 0.84683 0.62261 0.0
C2691 C 0.79863 0.82255 0.61974 0.0
C2692 C 0.79489 0.81026 0.63859 0.0
C2693 C 0.79517 0.8225 0.66039 0.0
C2694 C 0.79922 0.84625 0.6638 0.0
C2695 C 0.79968 0.8553 0.68926 0.0
C2696 C 0.82381 0.87209 0.69969 0.0
C2697 C 0.78009 0.86681 0.69219 0.0
C2698 C 0.79511 0.83291 0.69963 0.0
C2699 C 0.79229 0.81421 0.68253 0.0
C2700 C 0.78748 0.79167 0.68756 0.0
C2701 C 0.78583 0.78809 0.71062 0.0
C2702 C 0.78923 0.80692 0.72874 0.0
C2703 C 0.79389 0.82969 0.723 0.0
H2704 H 0.78338 0.49899 0.55976 0.0
H2705 H 0.74472 0.45173 0.4981 0.0
H2706 H 0.72522 0.48092 0.48774 0.0
H2707 H 0.73924 0.51637 0.57627 0.0
H2708 H 0.75511 0.54627 0.58695 0.0
H2709 H 0.77031 0.52461 0.58613 0.0
H2710 H 0.79886 0.54746 0.56113 0.0
H2711 H 0.78367 0.56934 0.56191 0.0
H2712 H 0.78741 0.55514 0.53443 0.0
H2713 H 0.70361 0.51031 0.48937 0.0
H2714 H 0.68162 0.53672 0.5029 0.0
H2715 H 0.73588 0.56674 0.56216 0.0
C2716 C 0.77135 0.49507 0.54368 0.0
C2717 C 0.76545 0.47315 0.52976 0.0
C2718 C 0.74953 0.46851 0.50895 0.0
C2719 C 0.7385 0.48504 0.50287 0.0
C2720 C 0.74402 0.50623 0.51752 0.0
C2721 C 0.76038 0.51141 0.53734 0.0
C2722 C 0.76081 0.53381 0.55195 0.0
C2723 C 0.75606 0.53001 0.57676 0.0
C2724 C 0.78407 0.55255 0.55236 0.0
C2725 C 0.7408 0.53945 0.53827 0.0
C2726 C 0.73175 0.52371 0.51813 0.0
C2727 C 0.711 0.52323 0.50462 0.0
C2728 C 0.69864 0.53844 0.51244 0.0
C2729 C 0.70704 0.55386 0.53364 0.0
C2730 C 0.72902 0.55516 0.54591 0.0
H2731 H 0.19994 0.17454 0.52121 0.0
H2732 H 0.24363 0.12897 0.53103 0.0
H2733 H 0.20849 0.09631 0.5304 0.0
H2734 H 0.16035 0.15188 0.55814 0.0
H2735 H 0.13464 0.15417 0.54076 0.0
H2736 H 0.16289 0.17362 0.53926 0.0
H2737 H 0.15699 0.16105 0.49471 0.0
H2738 H 0.1286 0.14168 0.4961 0.0
H2739 H 0.15008 0.13072 0.48311 0.0
H2740 H 0.16938 0.06947 0.53254 0.0
H2741 H 0.12835 0.04976 0.53585 0.0
H2742 H 0.10951 0.11228 0.52447 0.0
C2743 C 0.20206 0.15757 0.52265 0.0
C2744 C 0.22459 0.15434 0.52608 0.0
C2745 C 0.2266 0.13192 0.52838 0.0
C2746 C 0.20672 0.11321 0.528 0.0
C2747 C 0.18486 0.11708 0.52524 0.0
C2748 C 0.18232 0.13862 0.5224 0.0
C2749 C 0.15685 0.13831 0.52115 0.0
C2750 C 0.1535 0.15551 0.54101 0.0
C2751 C 0.14758 0.14323 0.49735 0.0
C2752 C 0.14564 0.1134 0.52423 0.0
C2753 C 0.16211 0.10145 0.52643 0.0
C2754 C 0.15624 0.07854 0.53056 0.0
C2755 C 0.13288 0.06752 0.53251 0.0
C2756 C 0.11563 0.07938 0.53033 0.0
C2757 C 0.12218 0.1026 0.52597 0.0
H2758 H 0.20009 0.00719 0.76533 0.0
H2759 H 0.15217 0.98589 0.8144 0.0
H2760 H 0.16865 0.95342 0.82015 0.0
H2761 H 0.19836 0.95006 0.739 0.0
H2762 H 0.22899 0.958 0.73604 0.0
H2763 H 0.21327 0.97938 0.73566 0.0
H2764 H 0.24353 0.00593 0.76955 0.0
H2765 H 0.25937 0.98465 0.77001 0.0
H2766 H 0.24936 0.99474 0.79605 0.0
H2767 H 0.19017 0.92284 0.82007 0.0
H2768 H 0.21544 0.89725 0.81495 0.0
H2769 H 0.25043 0.93966 0.76716 0.0
C2770 C 0.19299 0.99568 0.77726 0.0
C2771 C 0.17475 0.99907 0.78937 0.0
C2772 C 0.16612 0.98367 0.80492 0.0
C2773 C 0.17536 0.96515 0.80828 0.0
C2774 C 0.19332 0.96232 0.79606 0.0
C2775 C 0.20211 0.97723 0.78094 0.0
C2776 C 0.22168 0.97061 0.77017 0.0
C2777 C 0.21518 0.96412 0.74365 0.0
C2778 C 0.24485 0.99015 0.77685 0.0
C2779 C 0.2225 0.94959 0.78154 0.0
C2780 C 0.20597 0.94505 0.79636 0.0
C2781 C 0.20329 0.92636 0.80863 0.0
C2782 C 0.2179 0.912 0.80572 0.0
C2783 C 0.23515 0.91639 0.79075 0.0
C2784 C 0.23733 0.93554 0.77855 0.0
H2785 H 0.36504 0.95635 0.98995 0.0
H2786 H 0.35881 0.91203 0.04334 0.0
H2787 H 0.40179 0.924 0.05353 0.0
H2788 H 0.4231 0.94935 0.97444 0.0
H2789 H 0.4324 0.97922 0.97 0.0
H2790 H 0.40185 0.96302 0.96351 0.0
H2791 H 0.39197 0.99475 0.9907 0.0
H2792 H 0.4224 0.0107 0.99783 0.0
H2793 H 0.4056 1.00195 0.02062 0.0
H2794 H 0.44386 0.94742 0.06371 0.0
H2795 H 0.48292 0.97617 0.06904 0.0
H2796 H 0.46153 1.0043 0.00832 0.0
C2797 C 0.37279 0.94843 1.00312 0.0
C2798 C 0.3587 0.93333 0.01588 0.0
C2799 C 0.36934 0.92347 0.03319 0.0
C2800 C 0.39374 0.93024 0.03917 0.0
C2801 C 0.4071 0.94641 0.02728 0.0
C2802 C 0.39705 0.95485 0.00913 0.0
C2803 C 0.41491 0.9737 1.00062 0.0
C2804 C 0.41827 0.96584 0.97566 0.0
C2805 C 0.40831 0.99661 1.00258 0.0
C2806 C 0.43627 0.97552 0.01771 0.0
C2807 C 0.43153 0.95954 0.03284 0.0
C2808 C 0.44798 0.95957 0.05156 0.0
C2809 C 0.46999 0.97611 0.05462 0.0
C2810 C 0.47521 0.99231 0.039 0.0
C2811 C 0.45813 0.99187 0.02032 0.0
H2812 H 0.8158 0.56107 0.80117 0.0
H2813 H 0.86797 0.59421 0.86133 0.0
H2814 H 0.84346 0.61886 0.87344 0.0
H2815 H 0.8077 0.60833 0.78544 0.0
H2816 H 0.77667 0.5976 0.77539 0.0
H2817 H 0.7939 0.57779 0.77582 0.0
H2818 H 0.76684 0.55406 0.80148 0.0
H2819 H 0.74947 0.57406 0.80117 0.0
H2820 H 0.76193 0.56828 0.82843 0.0
H2821 H 0.8192 0.6457 0.87362 0.0
H2822 H 0.79928 0.67354 0.86052 0.0
H2823 H 0.76334 0.62367 0.79973 0.0
C2824 C 0.82166 0.57291 0.81737 0.0
C2825 C 0.84374 0.5758 0.8303 0.0
C2826 C 0.85103 0.59169 0.8512 0.0
C2827 C 0.83711 0.60561 0.85832 0.0
C2828 C 0.81587 0.60316 0.8445 0.0
C2829 C 0.80808 0.58699 0.82453 0.0
C2830 C 0.78715 0.59061 0.81032 0.0
C2831 C 0.79166 0.5938 0.78531 0.0
C2832 C 0.76504 0.57056 0.81037 0.0
C2833 C 0.78583 0.61271 0.82417 0.0
C2834 C 0.80182 0.61911 0.84438 0.0
C2835 C 0.80619 0.64057 0.85821 0.0
C2836 C 0.79493 0.65634 0.85056 0.0
C2837 C 0.77985 0.65067 0.82908 0.0
C2838 C 0.7743 0.62817 0.81649 0.0
H2839 H 0.8376 0.64881 0.07335 0.0
H2840 H 0.86584 0.69768 0.02787 0.0
H2841 H 0.89835 0.68023 0.02443 0.0
H2842 H 0.8926 0.64734 0.10359 0.0
H2843 H 0.88254 0.61675 0.10499 0.0
H2844 H 0.86205 0.63358 0.10433 0.0
H2845 H 0.83682 0.60553 0.06826 0.0
H2846 H 0.85721 0.5886 0.06883 0.0
H2847 H 0.85014 0.6001 0.04288 0.0
H2848 H 0.92793 0.65718 0.02625 0.0
H2849 H 0.95126 0.62997 0.03203 0.0
H2850 H 0.90215 0.59515 0.0748 0.0
C2851 C 0.85069 0.65599 0.06277 0.0
C2852 C 0.84925 0.67473 0.05097 0.0
C2853 C 0.86661 0.68338 0.0371 0.0
C2854 C 0.88515 0.67359 0.03508 0.0
C2855 C 0.88597 0.65508 0.04692 0.0
C2856 C 0.86912 0.64632 0.06041 0.0
C2857 C 0.87354 0.62593 0.07084 0.0
C2858 C 0.87795 0.63123 0.09752 0.0
C2859 C 0.85322 0.60373 0.06218 0.0
C2860 C 0.89556 0.62454 0.06116 0.0
C2861 C 0.90255 0.64155 0.0475 0.0
C2862 C 0.92251 0.64371 0.0368 0.0
C2863 C 0.93557 0.62802 0.04006 0.0
C2864 C 0.92858 0.61023 0.0538 0.0
C2865 C 0.90826 0.60865 0.06445 0.0
H2866 H 0.20509 0.11786 0.78452 0.0
H2867 H 0.16226 0.13479 0.83516 0.0
H2868 H 0.18534 0.17584 0.84029 0.0
H2869 H 0.26081 0.16045 0.81303 0.0
H2870 H 0.27013 0.16717 0.78579 0.0
H2871 H 0.25161 0.13867 0.78751 0.0
H2872 H 0.22154 0.14279 0.7543 0.0
H2873 H 0.23983 0.17136 0.75262 0.0
H2874 H 0.20987 0.16722 0.75727 0.0
H2875 H 0.21034 0.21524 0.83758 0.0
H2876 H 0.23737 0.25068 0.82883 0.0
H2877 H 0.26491 0.20897 0.78025 0.0
C2878 C 0.20088 0.13011 0.79706 0.0
C2879 C 0.18184 0.123 0.80949 0.0
C2880 C 0.17673 0.13971 0.82545 0.0
C2881 C 0.18975 0.16312 0.8285 0.0
C2882 C 0.20796 0.16963 0.81557 0.0
C2883 C 0.21374 0.15364 0.80033 0.0
C2884 C 0.23353 0.16552 0.78786 0.0
C2885 C 0.25531 0.15747 0.79391 0.0
C2886 C 0.22571 0.16148 0.76145 0.0
C2887 C 0.23763 0.19069 0.79817 0.0
C2888 C 0.22268 0.19257 0.81414 0.0
C2889 C 0.22232 0.21399 0.82529 0.0
C2890 C 0.2377 0.23406 0.82008 0.0
C2891 C 0.25335 0.23268 0.80386 0.0
C2892 C 0.25333 0.21062 0.79287 0.0
H2893 H 0.42113 0.95562 0.32831 0.0
H2894 H 0.38455 0.98194 0.37973 0.0
H2895 H 0.35987 0.94214 0.38029 0.0
H2896 H 0.37454 0.9246 0.29489 0.0
H2897 H 0.38396 0.90002 0.28433 0.0
H2898 H 0.40521 0.92756 0.29442 0.0
H2899 H 0.42726 0.90978 0.32435 0.0
H2900 H 0.40651 0.88177 0.31377 0.0
H2901 H 0.41147 0.89329 0.34424 0.0
H2902 H 0.33347 0.90201 0.36856 0.0
H2903 H 0.30778 0.86517 0.3455 0.0
H2904 H 0.35864 0.867 0.29816 0.0
C2905 C 0.40903 0.95267 0.34083 0.0
C2906 C 0.40503 0.97149 0.35445 0.0
C2907 C 0.38813 0.96748 0.36966 0.0
C2908 C 0.37405 0.94496 0.37002 0.0
C2909 C 0.37699 0.92683 0.35486 0.0
C2910 C 0.3943 0.93042 0.34067 0.0
C2911 C 0.39058 0.90953 0.3223 0.0
C2912 C 0.38843 0.91583 0.29755 0.0
C2913 C 0.41011 0.8979 0.32643 0.0
C2914 C 0.3676 0.89451 0.32719 0.0
C2915 C 0.36052 0.90424 0.34661 0.0
C2916 C 0.33904 0.89405 0.35357 0.0
C2917 C 0.32448 0.87337 0.34031 0.0
C2918 C 0.33121 0.86382 0.31995 0.0
C2919 C 0.35306 0.87434 0.31351 0.0
H2920 H 0.62298 0.397 0.58808 0.0
H2921 H 0.55688 0.36539 0.61094 0.0
H2922 H 0.54279 0.39832 0.60168 0.0
H2923 H 0.62618 0.45682 0.61157 0.0
H2924 H 0.63893 0.46951 0.58795 0.0
H2925 H 0.64405 0.44315 0.59551 0.0
H2926 H 0.62818 0.42279 0.55338 0.0
H2927 H 0.623 0.44909 0.54571 0.0
H2928 H 0.59939 0.42247 0.54052 0.0
H2929 H 0.5348 0.43461 0.58924 0.0
H2930 H 0.53427 0.47184 0.57696 0.0
H2931 H 0.60593 0.48366 0.56341 0.0
C2932 C 0.60548 0.39691 0.59104 0.0
C2933 C 0.59108 0.37791 0.60026 0.0
C2934 C 0.56844 0.37919 0.60397 0.0
C2935 C 0.56019 0.39803 0.59869 0.0
C2936 C 0.57466 0.41628 0.58977 0.0
C2937 C 0.59696 0.41607 0.58613 0.0
C2938 C 0.609 0.43854 0.577 0.0
C2939 C 0.63084 0.45285 0.59402 0.0
C2940 C 0.61527 0.43288 0.55271 0.0
C2941 C 0.58999 0.45125 0.57598 0.0
C2942 C 0.5703 0.4378 0.5833 0.0
C2943 C 0.55023 0.44521 0.58359 0.0
C2944 C 0.55011 0.46666 0.57642 0.0
C2945 C 0.56995 0.48139 0.56901 0.0
C2946 C 0.59032 0.47327 0.56894 0.0
H2947 H 0.46442 0.81436 0.38472 0.0
H2948 H 0.43239 0.76087 0.42407 0.0
H2949 H 0.3941 0.75501 0.40024 0.0
H2950 H 0.41597 0.8387 0.37747 0.0
H2951 H 0.41954 0.84405 0.34828 0.0
H2952 H 0.44449 0.84417 0.36842 0.0
H2953 H 0.45315 0.81296 0.33954 0.0
H2954 H 0.42823 0.81277 0.31932 0.0
H2955 H 0.43055 0.78615 0.3288 0.0
H2956 H 0.35871 0.75567 0.37271 0.0
H2957 H 0.32959 0.76157 0.34279 0.0
H2958 H 0.38435 0.81378 0.32005 0.0
C2959 C 0.44938 0.80137 0.38832 0.0
C2960 C 0.45158 0.78807 0.40642 0.0
C2961 C 0.43133 0.77126 0.41038 0.0
C2962 C 0.40942 0.76782 0.39692 0.0
C2963 C 0.40786 0.78122 0.37931 0.0
C2964 C 0.42732 0.79759 0.37488 0.0
C2965 C 0.42084 0.80953 0.35475 0.0
C2966 C 0.42549 0.83566 0.36271 0.0
C2967 C 0.43397 0.80508 0.3344 0.0
C2968 C 0.39472 0.79734 0.34856 0.0
C2969 C 0.38759 0.78117 0.36306 0.0
C2970 C 0.3642 0.76815 0.36116 0.0
C2971 C 0.34772 0.77165 0.34402 0.0
C2972 C 0.35453 0.78796 0.32871 0.0
C2973 C 0.37848 0.80094 0.33115 0.0
H2974 H 0.05018 0.7227 0.11121 0.0
H2975 H 0.09512 0.75227 0.06265 0.0
H2976 H 0.09657 0.7129 0.04728 0.0
H2977 H 0.07756 0.67986 0.12447 0.0
H2978 H 0.05086 0.6578 0.1259 0.0
H2979 H 0.05233 0.68798 0.13225 0.0
H2980 H 1.01651 0.68173 0.10083 0.0
H2981 H 1.01479 0.65146 0.09452 0.0
H2982 H 1.01704 0.66901 0.0716 0.0
H2983 H 0.0954 0.66952 0.03912 0.0
H2984 H 0.08906 0.62726 0.03659 0.0
H2985 H 0.04349 0.62512 0.08936 0.0
C2986 C 0.06007 0.72098 0.09706 0.0
C2987 C 0.07247 0.74105 0.08816 0.0
C2988 C 0.08523 0.73754 0.06973 0.0
C2989 C 0.08627 0.71509 0.06096 0.0
C2990 C 0.07426 0.69588 0.07048 0.0
C2991 C 0.06107 0.69861 0.08791 0.0
C2992 C 0.04978 0.67518 0.09524 0.0
C2993 C 0.05813 0.67522 0.12099 0.0
C2994 C 0.02294 0.66898 0.09025 0.0
C2995 C 0.05894 0.6588 0.07954 0.0
C2996 C 0.07312 0.67112 0.06545 0.0
C2997 C 0.08414 0.65986 0.05 0.0
C2998 C 0.08049 0.63566 0.04876 0.0
C2999 C 0.06574 0.62236 0.0627 0.0
C3000 C 0.05483 0.63441 0.07831 0.0
H3001 H 0.07326 0.25894 0.89398 0.0
H3002 H 0.08863 0.32144 0.94435 0.0
H3003 H 0.1246 0.33818 0.92786 0.0
H3004 H 0.13304 0.25733 0.8946 0.0
H3005 H 0.12928 0.24693 0.86394 0.0
H3006 H 0.10475 0.23986 0.87968 0.0
H3007 H 0.08113 0.25738 0.85088 0.0
H3008 H 0.10557 0.26448 0.83504 0.0
H3009 H 0.09328 0.28683 0.84608 0.0
H3010 H 0.15875 0.34841 0.90536 0.0
H3011 H 0.18869 0.35101 0.87922 0.0
H3012 H 0.15132 0.28175 0.84362 0.0
C3013 C 0.08417 0.27615 0.90158 0.0
C3014 C 0.07803 0.28888 0.92049 0.0
C3015 C 0.0929 0.31132 0.9299 0.0
C3016 C 0.11339 0.32099 0.92063 0.0
C3017 C 0.1189 0.308 0.90198 0.0
C3018 C 0.10476 0.28603 0.8926 0.0
C3019 C 0.11468 0.27568 0.87261 0.0
C3020 C 0.1208 0.25364 0.87804 0.0
C3021 C 0.09765 0.27081 0.84981 0.0
C3022 C 0.13657 0.29528 0.87214 0.0
C3023 C 0.13865 0.31379 0.88919 0.0
C3024 C 0.15727 0.33401 0.89196 0.0
C3025 C 0.17414 0.33537 0.87692 0.0
C3026 C 0.17243 0.31663 0.85929 0.0
C3027 C 0.15334 0.2963 0.85704 0.0
H3028 H 0.5466 0.76052 0.92908 0.0
H3029 H 0.62042 0.79438 0.95338 0.0
H3030 H 0.62135 0.76458 0.97831 0.0
H3031 H 0.53191 0.74459 0.98427 0.0
H3032 H 0.51128 0.71702 0.97184 0.0
H3033 H 0.51628 0.74075 0.95535 0.0
H3034 H 0.52663 0.71519 0.92195 0.0
H3035 H 0.52165 0.69137 0.93834 0.0
H3036 H 0.54932 0.70152 0.92802 0.0
H3037 H 0.61476 0.73118 1.00038 0.0
H3038 H 0.60054 0.69683 0.0194 0.0
H3039 H 0.53078 0.68445 0.98183 0.0
C3040 C 0.56295 0.76161 0.93962 0.0
C3041 C 0.58345 0.77983 0.9392 0.0
C3042 C 0.60446 0.78068 0.95337 0.0
C3043 C 0.6052 0.76378 0.9676 0.0
C3044 C 0.58476 0.74611 0.96764 0.0
C3045 C 0.56398 0.74491 0.95414 0.0
C3046 C 0.54448 0.72423 0.95786 0.0
C3047 C 0.52483 0.73213 0.96793 0.0
C3048 C 0.53497 0.70706 0.93519 0.0
C3049 C 0.5576 0.71407 0.97552 0.0
C3050 C 0.58085 0.72693 0.98078 0.0
C3051 C 0.59659 0.72095 0.99641 0.0
C3052 C 0.58837 0.70133 0.00704 0.0
C3053 C 0.56456 0.6879 1.00212 0.0
C3054 C 0.54902 0.69447 0.98613 0.0
H3055 H 0.11805 0.79142 0.73846 0.0
H3056 H 0.08375 0.73292 0.77063 0.0
H3057 H 0.12257 0.72995 0.78678 0.0
H3058 H 0.1655 0.77138 0.72271 0.0
H3059 H 0.18703 0.79941 0.72936 0.0
H3060 H 0.15668 0.79733 0.72094 0.0
H3061 H 0.15717 0.82426 0.75874 0.0
H3062 H 0.1876 0.82661 0.76716 0.0
H3063 H 0.16667 0.81695 0.78637 0.0
H3064 H 0.16662 0.73179 0.7972 0.0
H3065 H 0.20991 0.74098 0.80423 0.0
H3066 H 0.2155 0.79972 0.7673 0.0
C3067 C 0.1186 0.77813 0.74916 0.0
C3068 C 0.09743 0.76242 0.7532 0.0
C3069 C 0.09938 0.74534 0.76733 0.0
C3070 C 0.12151 0.74343 0.77649 0.0
C3071 C 0.14193 0.75891 0.77179 0.0
C3072 C 0.14059 0.77624 0.75878 0.0
C3073 C 0.16508 0.79096 0.75647 0.0
C3074 C 0.16878 0.78969 0.73085 0.0
C3075 C 0.16938 0.81619 0.76786 0.0
C3076 C 0.18048 0.77911 0.7699 0.0
C3077 C 0.16685 0.7605 0.77845 0.0
C3078 C 0.1773 0.74651 0.79071 0.0
C3079 C 0.20205 0.75179 0.79455 0.0
C3080 C 0.21651 0.77115 0.7865 0.0
C3081 C 0.20524 0.78487 0.77394 0.0
H3082 H 0.03181 0.3859 0.45653 0.0
H3083 H 0.08078 0.41587 0.41139 0.0
H3084 H 0.08475 0.45504 0.43184 0.0
H3085 H 1.00271 0.42997 0.46044 0.0
H3086 H 0.99961 0.42959 0.49065 0.0
H3087 H 1.00093 0.40382 0.47287 0.0
H3088 H 0.03587 0.40172 0.50173 0.0
H3089 H 0.03461 0.42746 0.51965 0.0
H3090 H 0.06151 0.42646 0.50915 0.0
H3091 H 0.08131 0.49131 0.45546 0.0
H3092 H 0.07302 0.52164 0.48225 0.0
H3093 H 0.02809 0.46853 0.51393 0.0
C3094 C 0.04352 0.40069 0.45105 0.0
C3095 C 0.05599 0.39769 0.43225 0.0
C3096 C 0.07111 0.41759 0.42572 0.0
C3097 C 0.07343 0.43997 0.43723 0.0
C3098 C 0.06076 0.44231 0.45551 0.0
C3099 C 0.04629 0.4232 0.46258 0.0
C3100 C 0.03469 0.43056 0.4828 0.0
C3101 C 1.0079 0.42304 0.4763 0.0
C3102 C 0.04212 0.42098 0.50463 0.0
C3103 C 0.04467 0.4568 0.48583 0.0
C3104 C 0.05954 0.46319 0.46977 0.0
C3105 C 0.06996 0.48645 0.46831 0.0
C3106 C 0.06509 0.50359 0.48361 0.0
C3107 C 0.05015 0.49755 0.50046 0.0
C3108 C 0.03995 0.47375 0.50159 0.0
H3109 H 0.44497 0.25068 0.21586 0.0
H3110 H 0.48445 0.25773 0.28406 0.0
H3111 H 0.45197 0.26667 0.30217 0.0
H3112 H 0.41556 0.29496 0.22871 0.0
H3113 H 0.38786 0.27841 0.21186 0.0
H3114 H 0.41466 0.27391 0.20397 0.0
H3115 H 0.39878 0.23021 0.20629 0.0
H3116 H 0.37193 0.23458 0.21416 0.0
H3117 H 0.38875 0.22129 0.23261 0.0
H3118 H 0.41538 0.2769 0.31324 0.0
H3119 H 0.3765 0.28258 0.31642 0.0
H3120 H 0.35753 0.26447 0.24174 0.0
C3121 C 0.44684 0.25429 0.23461 0.0
C3122 C 0.46774 0.2538 0.24847 0.0
C3123 C 0.46895 0.2581 0.27296 0.0
C3124 C 0.45048 0.26327 0.28345 0.0
C3125 C 0.43021 0.26359 0.26942 0.0
C3126 C 0.42806 0.25879 0.24549 0.0
C3127 C 0.40368 0.25884 0.23459 0.0
C3128 C 0.40556 0.27765 0.21885 0.0
C3129 C 0.38997 0.2348 0.22111 0.0
C3130 C 0.39261 0.26466 0.25602 0.0
C3131 C 0.40846 0.26772 0.2759 0.0
C3132 C 0.40282 0.27424 0.29774 0.0
C3133 C 0.38059 0.27752 0.2994 0.0
C3134 C 0.36355 0.27382 0.27949 0.0
C3135 C 0.36985 0.26718 0.25744 0.0
H3136 H 0.60733 0.57936 0.38788 0.0
H3137 H 0.59766 0.50712 0.36148 0.0
H3138 H 0.58679 0.4963 0.39918 0.0
H3139 H 0.6346 0.57686 0.44532 0.0
H3140 H 0.62175 0.59712 0.45985 0.0
H3141 H 0.62734 0.59894 0.43044 0.0
H3142 H 0.5838 0.59581 0.41754 0.0
H3143 H 0.5781 0.59401 0.44691 0.0
H3144 H 0.56128 0.57161 0.42362 0.0
H3145 H 0.57494 0.49338 0.43974 0.0
H3146 H 0.56757 0.49894 0.48053 0.0
H3147 H 0.58936 0.57342 0.482 0.0
C3148 C 0.6027 0.56124 0.38998 0.0
C3149 C 0.60296 0.544 0.37155 0.0
C3150 C 0.59741 0.52057 0.37524 0.0
C3151 C 0.59118 0.51429 0.39662 0.0
C3152 C 0.59112 0.53169 0.41445 0.0
C3153 C 0.59714 0.55475 0.41146 0.0
C3154 C 0.59706 0.57023 0.4338 0.0
C3155 C 0.62165 0.58676 0.44288 0.0
C3156 C 0.57898 0.58371 0.43025 0.0
C3157 C 0.58977 0.55232 0.44975 0.0
C3158 C 0.58608 0.53014 0.43817 0.0
C3159 C 0.5781 0.5107 0.449 0.0
C3160 C 0.5739 0.51401 0.47218 0.0
C3161 C 0.57818 0.53658 0.4846 0.0
C3162 C 0.58633 0.55594 0.47313 0.0
H3163 H 0.26356 0.90687 0.08963 0.0
H3164 H 0.31746 0.97271 0.09714 0.0
H3165 H 0.33292 0.96677 0.1358 0.0
H3166 H 0.25796 0.90885 0.15507 0.0
H3167 H 0.25348 0.87798 0.1523 0.0
H3168 H 0.24269 0.89039 0.12846 0.0
H3169 H 0.26549 0.87065 0.10166 0.0
H3170 H 0.27691 0.85879 0.12539 0.0
H3171 H 0.29671 0.87662 0.10929 0.0
H3172 H 0.34916 0.94886 0.1673 0.0
H3173 H 0.36051 0.92299 0.19326 0.0
H3174 H 0.29533 0.86982 0.16665 0.0
C3175 C 0.27785 0.92059 0.09989 0.0
C3176 C 0.28939 0.94013 0.09025 0.0
C3177 C 0.30828 0.95757 0.10411 0.0
C3178 C 0.31725 0.95434 0.12614 0.0
C3179 C 0.30673 0.93392 0.13432 0.0
C3180 C 0.2869 0.91768 0.12199 0.0
C3181 C 0.2806 0.896 0.13327 0.0
C3182 C 0.2573 0.89315 0.14285 0.0
C3183 C 0.27991 0.87426 0.11639 0.0
C3184 C 0.30095 0.90189 0.15272 0.0
C3185 C 0.31574 0.92392 0.15324 0.0
C3186 C 0.3373 0.93193 0.16767 0.0
C3187 C 0.34375 0.91711 0.18212 0.0
C3188 C 0.32859 0.89472 0.182 0.0
C3189 C 0.30689 0.88716 0.16734 0.0
H3190 H 0.9547 0.58083 0.90877 0.0
H3191 H 1.00315 0.56913 0.86226 0.0
H3192 H 0.03221 0.57036 0.89577 0.0
H3193 H 1.00115 0.61757 0.95932 0.0
H3194 H 0.98395 0.60408 0.98003 0.0
H3195 H 0.96963 0.60863 0.95305 0.0
H3196 H 0.94711 0.56483 0.9444 0.0
H3197 H 0.96169 0.5601 0.97098 0.0
H3198 H 0.96332 0.54379 0.94377 0.0
H3199 H 0.05202 0.56413 0.93264 0.0
H3200 H 0.06268 0.55421 0.97121 0.0
H3201 H 1.0013 0.56968 0.99377 0.0
C3202 C 0.97186 0.5797 0.90577 0.0
C3203 C 0.97681 0.57502 0.88308 0.0
C3204 C 0.99912 0.5728 0.87962 0.0
C3205 C 1.01576 0.57356 0.89852 0.0
C3206 C 1.00985 0.57673 0.92072 0.0
C3207 C 0.98861 0.58022 0.92451 0.0
C3208 C 0.98529 0.58 0.94971 0.0
C3209 C 0.985 0.604 0.9612 0.0
C3210 C 0.96305 0.56105 0.95234 0.0
C3211 C 1.00722 0.57436 0.95904 0.0
C3212 C 0.02139 0.57299 0.94221 0.0
C3213 C 0.04142 0.56576 0.94618 0.0
C3214 C 0.0472 0.55992 0.96804 0.0
C3215 C 0.03284 0.5612 0.98548 0.0
C3216 C 1.01278 0.56875 0.98089 0.0
H3217 H 0.31746 0.24074 0.62056 0.0
H3218 H 0.26433 0.26854 0.58904 0.0
H3219 H 0.25992 0.28594 0.62803 0.0
H3220 H 0.29116 0.22513 0.66891 0.0
H3221 H 0.31797 0.23326 0.68908 0.0
H3222 H 0.31834 0.22471 0.65872 0.0
H3223 H 0.34953 0.26355 0.6576 0.0
H3224 H 0.34945 0.2721 0.68807 0.0
H3225 H 0.34391 0.29052 0.66745 0.0
H3226 H 0.25829 0.29655 0.67146 0.0
H3227 H 0.2627 0.3029 0.71448 0.0
H3228 H 0.31819 0.26969 0.7171 0.0
C3229 C 0.30523 0.2509 0.62175 0.0
C3230 C 0.29129 0.25328 0.60157 0.0
C3231 C 0.2754 0.26662 0.60409 0.0
C3232 C 0.27267 0.27646 0.62625 0.0
C3233 C 0.2862 0.27317 0.6458 0.0
C3234 C 0.30251 0.26107 0.64367 0.0
C3235 C 0.31459 0.25956 0.66733 0.0
C3236 C 0.31024 0.23416 0.67123 0.0
C3237 C 0.34093 0.27219 0.67028 0.0
C3238 C 0.30222 0.27224 0.68316 0.0
C3239 C 0.28581 0.2799 0.67049 0.0
C3240 C 0.27136 0.29093 0.68149 0.0
C3241 C 0.27391 0.29437 0.70596 0.0
C3242 C 0.29093 0.28704 0.71928 0.0
C3243 C 0.30524 0.27588 0.70754 0.0
H3244 H 0.61699 0.532 0.21907 0.0
H3245 H 0.57263 0.56709 0.25291 0.0
H3246 H 0.55329 0.57026 0.21436 0.0
H3247 H 0.62648 0.56551 0.17425 0.0
H3248 H 0.62568 0.54179 0.15228 0.0
H3249 H 0.63466 0.54069 0.18233 0.0
H3250 H 0.60261 0.50156 0.17974 0.0
H3251 H 0.59366 0.50242 0.14958 0.0
H3252 H 0.57258 0.49951 0.16954 0.0
H3253 H 0.54095 0.57224 0.17133 0.0
H3254 H 0.53508 0.57045 0.1286 0.0
H3255 H 0.58729 0.5335 0.12345 0.0
C3256 C 0.60294 0.54003 0.21848 0.0
C3257 C 0.59635 0.54925 0.23921 0.0
C3258 C 0.57793 0.5597 0.23741 0.0
C3259 C 0.5669 0.56168 0.21553 0.0
C3260 C 0.57428 0.55293 0.19549 0.0
C3261 C 0.59169 0.54201 0.19684 0.0
C3262 C 0.59686 0.53447 0.17285 0.0
C3263 C 0.62243 0.54633 0.17029 0.0
C3264 C 0.59108 0.50792 0.16763 0.0
C3265 C 0.58002 0.54325 0.15774 0.0
C3266 C 0.56709 0.55383 0.17105 0.0
C3267 C 0.55088 0.5638 0.16081 0.0
C3268 C 0.54772 0.56278 0.13647 0.0
C3269 C 0.56066 0.55183 0.12245 0.0
C3270 C 0.57699 0.54196 0.13347 0.0
H3271 H 0.27195 0.90314 0.94527 0.0
H3272 H 0.23669 0.84599 0.97868 0.0
H3273 H 0.23205 0.81896 0.94249 0.0
H3274 H 0.23979 0.87859 0.88333 0.0
H3275 H 0.2664 0.8895 0.87142 0.0
H3276 H 0.26112 0.90516 0.89739 0.0
H3277 H 0.30072 0.90375 0.91866 0.0
H3278 H 0.3059 0.88767 0.89308 0.0
H3279 H 0.30609 0.87607 0.92003 0.0
H3280 H 0.23858 0.79753 0.90672 0.0
H3281 H 0.25335 0.78298 0.87229 0.0
H3282 H 0.28557 0.85381 0.86192 0.0
C3283 C 0.26214 0.88514 0.94453 0.0
C3284 C 0.25435 0.87663 0.96458 0.0
C3285 C 0.24251 0.85282 0.96337 0.0
C3286 C 0.2398 0.83737 0.94289 0.0
C3287 C 0.249 0.84604 0.92383 0.0
C3288 C 0.25961 0.86944 0.92428 0.0
C3289 C 0.27104 0.87379 0.90273 0.0
C3290 C 0.25885 0.88757 0.88784 0.0
C3291 C 0.29749 0.88603 0.90902 0.0
C3292 C 0.26637 0.84911 0.89083 0.0
C3293 C 0.25324 0.83345 0.90307 0.0
C3294 C 0.24841 0.80962 0.89668 0.0
C3295 C 0.25713 0.80154 0.8772 0.0
C3296 C 0.2707 0.81725 0.86439 0.0
C3297 C 0.27512 0.84135 0.87122 0.0
H3298 H 0.91453 0.54923 0.7379 0.0
H3299 H 0.96653 0.60076 0.78832 0.0
H3300 H 0.99369 0.60652 0.75935 0.0
H3301 H 0.95136 0.52165 0.71914 0.0
H3302 H 0.93872 0.51429 0.68893 0.0
H3303 H 0.92083 0.51891 0.71058 0.0
H3304 H 0.90941 0.55058 0.68985 0.0
H3305 H 0.92694 0.54571 0.66775 0.0
H3306 H 0.93203 0.57446 0.68337 0.0
H3307 H 1.01753 0.6012 0.72811 0.0
H3308 H 0.03583 0.58597 0.69643 0.0
H3309 H 0.96897 0.53589 0.66785 0.0
C3310 C 0.93116 0.56257 0.74238 0.0
C3311 C 0.9384 0.57482 0.76509 0.0
C3312 C 0.96067 0.59142 0.77083 0.0
C3313 C 0.97616 0.59483 0.75449 0.0
C3314 C 0.96906 0.58145 0.73258 0.0
C3315 C 0.94697 0.5658 0.72641 0.0
C3316 C 0.94496 0.55087 0.70332 0.0
C3317 C 0.93861 0.52492 0.70566 0.0
C3318 C 0.92729 0.55571 0.68499 0.0
C3319 C 0.96967 0.5597 0.69814 0.0
C3320 C 0.98317 0.57771 0.71487 0.0
C3321 C 1.00704 0.58737 0.71467 0.0
C3322 C 1.01735 0.57839 0.69684 0.0
C3323 C 1.00381 0.55975 0.6797 0.0
C3324 C 0.97967 0.55049 0.68039 0.0
H3325 H 0.27303 0.26319 0.46377 0.0
H3326 H 0.31317 0.21368 0.46635 0.0
H3327 H 0.32066 0.2177 0.42623 0.0
H3328 H 0.2462 0.24527 0.40468 0.0
H3329 H 0.24825 0.27412 0.39847 0.0
H3330 H 0.24638 0.26789 0.42763 0.0
H3331 H 0.28472 0.30082 0.44268 0.0
H3332 H 0.28664 0.30723 0.41357 0.0
H3333 H 0.31073 0.30086 0.42991 0.0
H3334 H 0.3214 0.22483 0.38461 0.0
H3335 H 0.31856 0.23737 0.34604 0.0
H3336 H 0.28019 0.28426 0.37063 0.0
C3337 C 0.28359 0.25335 0.45598 0.0
C3338 C 0.2925 0.23807 0.46838 0.0
C3339 C 0.30623 0.22557 0.45742 0.0
C3340 C 0.31051 0.22767 0.43452 0.0
C3341 C 0.30125 0.24261 0.42272 0.0
C3342 C 0.28837 0.25552 0.43317 0.0
C3343 C 0.28062 0.27049 0.41661 0.0
C3344 C 0.25377 0.26405 0.41155 0.0
C3345 C 0.29132 0.29638 0.42627 0.0
C3346 C 0.29089 0.26374 0.39515 0.0
C3347 C 0.30255 0.24747 0.39903 0.0
C3348 C 0.31257 0.23778 0.38152 0.0
C3349 C 0.3108 0.24497 0.35959 0.0
C3350 C 0.29937 0.26198 0.35525 0.0
C3351 C 0.28935 0.27148 0.37342 0.0
H3352 H 0.33497 0.59275 0.57489 0.0
H3353 H 0.34011 0.63895 0.52315 0.0
H3354 H 0.36846 0.62164 0.50596 0.0
H3355 H 0.39472 0.5964 0.58452 0.0
H3356 H 0.39003 0.56654 0.58852 0.0
H3357 H 0.36874 0.5812 0.59536 0.0
H3358 H 0.33637 0.54918 0.5675 0.0
H3359 H 0.35759 0.53439 0.56057 0.0
H3360 H 0.34026 0.54245 0.53768 0.0
H3361 H 0.39765 0.60034 0.49566 0.0
H3362 H 0.42661 0.57813 0.49429 0.0
H3363 H 0.4023 0.54659 0.5532 0.0
C3364 C 0.34181 0.59906 0.55976 0.0
C3365 C 0.33527 0.6171 0.55027 0.0
C3366 C 0.34487 0.62509 0.53066 0.0
C3367 C 0.3609 0.61531 0.52074 0.0
C3368 C 0.36709 0.59763 0.53067 0.0
C3369 C 0.35787 0.58964 0.54978 0.0
C3370 C 0.36833 0.57145 0.55805 0.0
C3371 C 0.38122 0.57938 0.58309 0.0
C3372 C 0.34951 0.54798 0.5558 0.0
C3373 C 0.38521 0.57072 0.54087 0.0
C3374 C 0.38407 0.5857 0.52501 0.0
C3375 C 0.39855 0.58841 0.50787 0.0
C3376 C 0.41484 0.57568 0.50715 0.0
C3377 C 0.4166 0.56069 0.52363 0.0
C3378 C 0.40136 0.55801 0.54046 0.0
H3379 H 0.89287 0.91633 0.55114 0.0
H3380 H 0.86002 0.96429 0.58467 0.0
H3381 H 0.89438 0.99694 0.58252 0.0
H3382 H 0.95232 0.9462 0.57915 0.0
H3383 H 0.96517 0.94017 0.55361 0.0
H3384 H 0.93823 0.92043 0.5584 0.0
H3385 H 0.91826 0.9242 0.51814 0.0
H3386 H 0.94509 0.94405 0.5133 0.0
H3387 H 0.91851 0.95254 0.51146 0.0
H3388 H 0.93196 0.02465 0.5759 0.0
H3389 H 0.9705 0.04516 0.56619 0.0
H3390 H 0.97876 0.9792 0.5369 0.0
C3391 C 0.89295 0.93366 0.55821 0.0
C3392 C 0.87367 0.93766 0.5681 0.0
C3393 C 0.87452 0.96069 0.57702 0.0
C3394 C 0.89397 0.9794 0.57587 0.0
C3395 C 0.91252 0.97488 0.56578 0.0
C3396 C 0.91225 0.95258 0.5572 0.0
C3397 C 0.93437 0.95251 0.54699 0.0
C3398 C 0.94835 0.93903 0.56034 0.0
C3399 C 0.92871 0.94275 0.52093 0.0
C3400 C 0.94701 0.97825 0.55103 0.0
C3401 C 0.93414 0.99086 0.56191 0.0
C3402 C 0.94222 0.01496 0.5674 0.0
C3403 C 0.96413 0.02646 0.56177 0.0
C3404 C 0.97771 0.01387 0.55071 0.0
C3405 C 0.96886 0.98942 0.54526 0.0
H3406 H 0.88891 0.08545 0.24975 0.0
H3407 H 0.93015 0.09146 0.31698 0.0
H3408 H 0.91284 0.1214 0.33297 0.0
H3409 H 0.89362 0.14689 0.25263 0.0
H3410 H 0.8642 0.14173 0.23815 0.0
H3411 H 0.88007 0.12101 0.23186 0.0
H3412 H 0.84649 0.08853 0.24244 0.0
H3413 H 0.83055 0.10915 0.24878 0.0
H3414 H 0.83711 0.09218 0.27048 0.0
H3415 H 0.88965 0.14935 0.34215 0.0
H3416 H 0.86378 0.17479 0.34335 0.0
H3417 H 0.83856 0.15172 0.26988 0.0
C3418 C 0.89438 0.09312 0.26782 0.0
C3419 C 0.91087 0.08604 0.28214 0.0
C3420 C 0.91761 0.09661 0.30566 0.0
C3421 C 0.90784 0.11362 0.31491 0.0
C3422 C 0.89152 0.12008 0.30038 0.0
C3423 C 0.885 0.11032 0.27728 0.0
C3424 C 0.86712 0.12039 0.26539 0.0
C3425 C 0.87684 0.13327 0.24585 0.0
C3426 C 0.84395 0.10143 0.25624 0.0
C3427 C 0.86441 0.13713 0.28549 0.0
C3428 C 0.87858 0.1366 0.30553 0.0
C3429 C 0.87859 0.15 0.32653 0.0
C3430 C 0.86375 0.1643 0.32707 0.0
C3431 C 0.84918 0.16525 0.30673 0.0
C3432 C 0.84968 0.15154 0.28565 0.0
H3433 H 0.72451 0.09721 0.0917 0.0
H3434 H 0.73186 0.15993 0.06053 0.0
H3435 H 0.68912 0.1483 0.04806 0.0
H3436 H 0.68206 0.06016 0.04758 0.0
H3437 H 0.66602 0.04305 0.06689 0.0
H3438 H 0.69689 0.05713 0.07496 0.0
H3439 H 0.68921 0.07806 0.11319 0.0
H3440 H 0.65832 0.0638 0.10537 0.0
H3441 H 0.66879 0.09498 0.11195 0.0
H3442 H 0.64584 0.12873 0.03732 0.0
H3443 H 0.60505 0.10339 0.03043 0.0
H3444 H 0.62692 0.05349 0.0682 0.0
C3445 C 0.71716 0.10873 0.08258 0.0
C3446 C 0.7315 0.1295 0.07714 0.0
C3447 C 0.72117 0.14394 0.06494 0.0
C3448 C 0.69694 0.13749 0.05776 0.0
C3449 C 0.68339 0.1166 0.06295 0.0
C3450 C 0.69312 0.10253 0.07521 0.0
C3451 C 0.67492 0.08058 0.07788 0.0
C3452 C 0.6803 0.05896 0.06612 0.0
C3453 C 0.67268 0.07929 0.10363 0.0
C3454 C 0.65344 0.08438 0.065 0.0
C3455 C 0.65862 0.10526 0.05657 0.0
C3456 C 0.64153 0.11239 0.04393 0.0
C3457 C 0.61846 0.09786 0.04007 0.0
C3458 C 0.61282 0.07647 0.04878 0.0
C3459 C 0.63064 0.06968 0.06124 0.0
H3460 H 0.26333 0.50046 0.27295 0.0
H3461 H 0.21088 0.50085 0.3183 0.0
H3462 H 0.22616 0.47495 0.34131 0.0
H3463 H 0.26113 0.44199 0.27093 0.0
H3464 H 0.29212 0.44692 0.27087 0.0
H3465 H 0.27779 0.46647 0.2592 0.0
H3466 H 0.30704 0.50101 0.2872 0.0
H3467 H 0.32138 0.48149 0.29908 0.0
H3468 H 0.31025 0.5002 0.31801 0.0
H3469 H 0.24519 0.44595 0.35694 0.0
H3470 H 0.26701 0.41752 0.3643 0.0
H3471 H 0.3075 0.43826 0.30943 0.0
C3472 C 0.25513 0.49524 0.28781 0.0
C3473 C 0.23589 0.50253 0.29381 0.0
C3474 C 0.2257 0.49544 0.31344 0.0
C3475 C 0.23427 0.48079 0.32661 0.0
C3476 C 0.25322 0.47377 0.32008 0.0
C3477 C 0.26362 0.48096 0.30124 0.0
C3478 C 0.28325 0.47053 0.29727 0.0
C3479 C 0.27825 0.45559 0.27315 0.0
C3480 C 0.30688 0.48944 0.3006 0.0
C3481 C 0.28195 0.45585 0.31646 0.0
C3482 C 0.2646 0.45791 0.32953 0.0
C3483 C 0.25912 0.44453 0.3471 0.0
C3484 C 0.27152 0.42845 0.35115 0.0
C3485 C 0.28924 0.4261 0.33777 0.0
C3486 C 0.29462 0.44025 0.32048 0.0
H3487 H 0.25771 0.44493 0.0837 0.0
H3488 H 0.23437 0.39254 0.02228 0.0
H3489 H 0.20278 0.40968 0.01028 0.0
H3490 H 0.20027 0.44817 0.09473 0.0
H3491 H 0.21024 0.47909 0.10398 0.0
H3492 H 0.23013 0.46192 0.10813 0.0
H3493 H 0.25891 0.48787 0.08549 0.0
H3494 H 0.23908 0.50505 0.08119 0.0
H3495 H 0.24877 0.49171 0.05653 0.0
H3496 H 0.17424 0.43349 0.00463 0.0
H3497 H 0.1518 0.46215 0.00543 0.0
H3498 H 0.19434 0.49887 0.0705 0.0
C3499 C 0.24583 0.43687 0.06782 0.0
C3500 C 0.24845 0.41729 0.05397 0.0
C3501 C 0.23266 0.40748 0.03321 0.0
C3502 C 0.21466 0.4171 0.02626 0.0
C3503 C 0.21273 0.43654 0.04025 0.0
C3504 C 0.22791 0.44629 0.0606 0.0
C3505 C 0.22264 0.46757 0.07219 0.0
C3506 C 0.21538 0.46396 0.09618 0.0
C3507 C 0.24359 0.48933 0.07394 0.0
C3508 C 0.20222 0.46844 0.05511 0.0
C3509 C 0.19663 0.45032 0.03687 0.0
C3510 C 0.17844 0.44767 0.01889 0.0
C3511 C 0.16571 0.46399 0.01954 0.0
C3512 C 0.17131 0.48282 0.03799 0.0
C3513 C 0.18979 0.48488 0.056 0.0
H3514 H 0.88027 0.96998 0.26852 0.0
H3515 H 0.94648 0.95355 0.27206 0.0
H3516 H 0.9263 0.91324 0.27546 0.0
H3517 H 0.85773 0.93608 0.31064 0.0
H3518 H 0.82787 0.92618 0.29631 0.0
H3519 H 0.84681 0.95351 0.29187 0.0
H3520 H 0.83855 0.94 0.24743 0.0
H3521 H 0.8195 0.91262 0.25173 0.0
H3522 H 0.84366 0.91326 0.2358 0.0
H3523 H 0.90052 0.876 0.28097 0.0
H3524 H 0.86998 0.84284 0.28879 0.0
H3525 H 0.81915 0.88166 0.28226 0.0
C3526 C 0.8904 0.95776 0.2696 0.0
C3527 C 0.915 0.96496 0.26994 0.0
C3528 C 0.92768 0.94854 0.2718 0.0
C3529 C 0.91636 0.92553 0.27365 0.0
C3530 C 0.89228 0.91908 0.27365 0.0
C3531 C 0.87932 0.93457 0.27165 0.0
C3532 C 0.85377 0.92307 0.27348 0.0
C3533 C 0.8461 0.93545 0.29432 0.0
C3534 C 0.83793 0.92218 0.25075 0.0
C3535 C 0.85462 0.89892 0.27732 0.0
C3536 C 0.87707 0.89714 0.27711 0.0
C3537 C 0.88284 0.8771 0.28107 0.0
C3538 C 0.86532 0.85838 0.28565 0.0
C3539 C 0.84215 0.85965 0.28632 0.0
C3540 C 0.83664 0.88012 0.28172 0.0
H3541 H 0.69575 0.12356 0.77037 0.0
H3542 H 0.74822 0.09802 0.7394 0.0
H3543 H 0.77323 0.13828 0.74221 0.0
H3544 H 0.70533 0.1774 0.74394 0.0
H3545 H 0.70082 0.1937 0.76987 0.0
H3546 H 0.68581 0.16315 0.76254 0.0
H3547 H 0.70289 0.15657 0.80289 0.0
H3548 H 0.71813 0.18698 0.81026 0.0
H3549 H 0.73416 0.1659 0.81167 0.0
H3550 H 0.79415 0.18048 0.75239 0.0
H3551 H 0.80919 0.22212 0.76795 0.0
H3552 H 0.74297 0.21995 0.79239 0.0
C3553 C 0.71227 0.1264 0.76369 0.0
C3554 C 0.72004 0.10767 0.75464 0.0
C3555 C 0.74189 0.11213 0.74634 0.0
C3556 C 0.75619 0.13492 0.74783 0.0
C3557 C 0.74826 0.15293 0.75748 0.0
C3558 C 0.72672 0.14895 0.76507 0.0
C3559 C 0.723 0.17115 0.77629 0.0
C3560 C 0.70252 0.17667 0.76232 0.0
C3561 C 0.71934 0.17007 0.80179 0.0
C3562 C 0.74614 0.18817 0.77449 0.0
C3563 C 0.76036 0.17735 0.76338 0.0
C3564 C 0.78307 0.18923 0.76081 0.0
C3565 C 0.79148 0.21284 0.76984 0.0
C3566 C 0.7772 0.22424 0.78134 0.0
C3567 C 0.75419 0.21173 0.7835 0.0
loop_
_geom_bond_atom_site_label_1
_geom_bond_atom_site_label_2
_geom_bond_distance
_geom_bond_site_symmetry_2
_ccdc_geom_bond_type
O0 Cd1 2.223 . S
O0 C8 1.315 . S
Cd1 O0 2.223 . S
Cd1 O4 2.297 . S
Cd1 O5 2.439 . S
Cd1 O11 2.240 . S
Cd2 O3 2.240 . S
Cd2 O10 2.223 1_455 S
Cd2 O12 2.297 . S
Cd2 O13 2.439 . S
O3 Cd2 2.240 . S
O3 C8 1.279 . S
O4 Cd1 2.297 . S
O4 C6 1.247 . S
O5 Cd1 2.439 . S
O5 C6 1.208 . S
C6 O4 1.247 . S
C6 O5 1.208 . S
C7 O12 1.247 . S
C7 O13 1.208 . S
C8 O0 1.315 . S
C8 O3 1.279 . S
C9 O10 1.315 . S
C9 O11 1.279 1_655 S
O10 Cd2 2.223 1_655 S
O10 C9 1.315 . S
O11 Cd1 2.240 . S
O11 C9 1.279 1_455 S
O12 Cd2 2.297 . S
O12 C7 1.247 . S
O13 Cd2 2.439 . S
O13 C7 1.208 . S
O14 Cd15 2.223 . S
O14 C22 1.315 . S
Cd15 O14 2.223 . S
Cd15 O18 2.297 1_455 S
Cd15 O19 2.439 1_455 S
Cd15 O25 2.240 . S
Cd16 O17 2.240 . S
Cd16 O24 2.223 . S
Cd16 O26 2.297 . S
Cd16 O27 2.439 . S
O17 Cd16 2.240 . S
O17 C22 1.279 . S
O18 Cd15 2.297 1_655 S
O18 C20 1.247 . S
O19 Cd15 2.439 1_655 S
O19 C20 1.208 . S
C20 O18 1.247 . S
C20 O19 1.208 . S
C21 O26 1.247 . S
C21 O27 1.208 . S
C22 O14 1.315 . S
C22 O17 1.279 . S
C23 O24 1.315 . S
C23 O25 1.279 . S
O24 Cd16 2.223 . S
O24 C23 1.315 . S
O25 Cd15 2.240 . S
O25 C23 1.279 . S
O26 Cd16 2.297 . S
O26 C21 1.247 . S
O27 Cd16 2.439 . S
O27 C21 1.208 . S
O28 Cd29 2.223 . S
O28 C36 1.315 . S
Cd29 O28 2.223 . S
Cd29 O32 2.297 . S
Cd29 O33 2.439 . S
Cd29 O39 2.240 . S
Cd30 O31 2.240 . S
Cd30 O38 2.223 . S
Cd30 O40 2.297 . S
Cd30 O41 2.439 . S
O31 Cd30 2.240 . S
O31 C36 1.279 . S
O32 Cd29 2.297 . S
O32 C34 1.247 . S
O33 Cd29 2.439 . S
O33 C34 1.208 . S
C34 O32 1.247 . S
C34 O33 1.208 . S
C35 O40 1.247 . S
C35 O41 1.208 . S
C36 O28 1.315 . S
C36 O31 1.279 . S
C37 O38 1.315 . S
C37 O39 1.279 . S
O38 Cd30 2.223 . S
O38 C37 1.315 . S
O39 Cd29 2.240 . S
O39 C37 1.279 . S
O40 Cd30 2.297 . S
O40 C35 1.247 . S
O41 Cd30 2.439 . S
O41 C35 1.208 . S
O42 Cd43 2.223 . S
O42 C50 1.315 . S
Cd43 O42 2.223 . S
Cd43 O46 2.297 . S
Cd43 O47 2.439 . S
Cd43 O53 2.240 . S
Cd44 O45 2.240 . S
Cd44 O52 2.223 . S
Cd44 O54 2.297 . S
Cd44 O55 2.439 . S
O45 Cd44 2.240 . S
O45 C50 1.279 . S
O46 Cd43 2.297 . S
O46 C48 1.247 . S
O47 Cd43 2.439 . S
O47 C48 1.208 . S
C48 O46 1.247 . S
C48 O47 1.208 . S
C49 O54 1.247 . S
C49 O55 1.208 . S
C50 O42 1.315 . S
C50 O45 1.279 . S
C51 O52 1.315 . S
C51 O53 1.279 . S
O52 Cd44 2.223 . S
O52 C51 1.315 . S
O53 Cd43 2.240 . S
O53 C51 1.279 . S
O54 Cd44 2.297 . S
O54 C49 1.247 . S
O55 Cd44 2.439 . S
O55 C49 1.208 . S
O56 Cd57 2.223 . S
O56 C64 1.315 . S
Cd57 O56 2.223 . S
Cd57 O60 2.297 . S
Cd57 O61 2.439 . S
Cd57 O67 2.240 . S
Cd58 O59 2.240 . S
Cd58 O66 2.223 . S
Cd58 O68 2.297 . S
Cd58 O69 2.439 . S
O59 Cd58 2.240 . S
O59 C64 1.279 . S
O60 Cd57 2.297 . S
O60 C62 1.247 . S
O61 Cd57 2.439 . S
O61 C62 1.208 . S
C62 O60 1.247 . S
C62 O61 1.208 . S
C63 O68 1.247 . S
C63 O69 1.208 . S
C64 O56 1.315 . S
C64 O59 1.279 . S
C65 O66 1.315 . S
C65 O67 1.279 . S
O66 Cd58 2.223 . S
O66 C65 1.315 . S
O67 Cd57 2.240 . S
O67 C65 1.279 . S
O68 Cd58 2.297 . S
O68 C63 1.247 . S
O69 Cd58 2.439 . S
O69 C63 1.208 . S
O70 Cd71 2.223 . S
O70 C78 1.315 . S
Cd71 O70 2.223 . S
Cd71 O74 2.297 . S
Cd71 O75 2.439 . S
Cd71 O81 2.240 . S
Cd72 O73 2.240 . S
Cd72 O80 2.223 . S
Cd72 O82 2.297 . S
Cd72 O83 2.439 . S
O73 Cd72 2.240 . S
O73 C78 1.279 . S
O74 Cd71 2.297 . S
O74 C76 1.247 . S
O75 Cd71 2.439 . S
O75 C76 1.208 . S
C76 O74 1.247 . S
C76 O75 1.208 . S
C77 O82 1.247 . S
C77 O83 1.208 . S
C78 O70 1.315 . S
C78 O73 1.279 . S
C79 O80 1.315 . S
C79 O81 1.279 . S
O80 Cd72 2.223 . S
O80 C79 1.315 . S
O81 Cd71 2.240 . S
O81 C79 1.279 . S
O82 Cd72 2.297 . S
O82 C77 1.247 . S
O83 Cd72 2.439 . S
O83 C77 1.208 . S
O84 Cd85 2.223 . S
O84 C92 1.315 . S
Cd85 O84 2.223 . S
Cd85 O88 2.297 . S
Cd85 O89 2.439 . S
Cd85 O95 2.240 . S
Cd86 O87 2.240 . S
Cd86 O94 2.223 . S
Cd86 O96 2.297 . S
Cd86 O97 2.439 . S
O87 Cd86 2.240 . S
O87 C92 1.279 . S
O88 Cd85 2.297 . S
O88 C90 1.247 . S
O89 Cd85 2.439 . S
O89 C90 1.208 . S
C90 O88 1.247 . S
C90 O89 1.208 . S
C91 O96 1.247 . S
C91 O97 1.208 . S
C92 O84 1.315 . S
C92 O87 1.279 . S
C93 O94 1.315 . S
C93 O95 1.279 . S
O94 Cd86 2.223 . S
O94 C93 1.315 . S
O95 Cd85 2.240 . S
O95 C93 1.279 . S
O96 Cd86 2.297 . S
O96 C91 1.247 . S
O97 Cd86 2.439 . S
O97 C91 1.208 . S
O98 Cd99 2.223 1_655 S
O98 C106 1.315 . S
Cd99 O98 2.223 1_455 S
Cd99 O102 2.297 . S
Cd99 O103 2.439 . S
Cd99 O109 2.240 1_455 S
Cd100 O101 2.240 1_655 S
Cd100 O108 2.223 . S
Cd100 O110 2.297 1_556 S
Cd100 O111 2.439 1_655 S
O101 Cd100 2.240 1_455 S
O101 C106 1.279 1_455 S
O102 Cd99 2.297 . S
O102 C104 1.247 . S
O103 Cd99 2.439 . S
O103 C104 1.208 . S
C104 O102 1.247 . S
C104 O103 1.208 . S
C105 O110 1.247 1_456 S
C105 O111 1.208 . S
C106 O98 1.315 . S
C106 O101 1.279 1_655 S
C107 O108 1.315 . S
C107 O109 1.279 . S
O108 Cd100 2.223 . S
O108 C107 1.315 . S
O109 Cd99 2.240 1_655 S
O109 C107 1.279 . S
O110 Cd100 2.297 1_554 S
O110 C105 1.247 1_654 S
O111 Cd100 2.439 1_455 S
O111 C105 1.208 . S
O112 Cd113 2.223 1_565 S
O112 C120 1.315 1_565 S
Cd113 O112 2.223 1_545 S
Cd113 O116 2.297 . S
Cd113 O117 2.439 . S
Cd113 O123 2.240 1_545 S
Cd114 O115 2.240 1_565 S
Cd114 O122 2.223 . S
Cd114 O124 2.297 . S
Cd114 O125 2.439 1_565 S
O115 Cd114 2.240 1_545 S
O115 C120 1.279 . S
O116 Cd113 2.297 . S
O116 C118 1.247 . S
O117 Cd113 2.439 . S
O117 C118 1.208 . S
C118 O116 1.247 . S
C118 O117 1.208 . S
C119 O124 1.247 1_545 S
C119 O125 1.208 . S
C120 O112 1.315 1_545 S
C120 O115 1.279 . S
C121 O122 1.315 . S
C121 O123 1.279 . S
O122 Cd114 2.223 . S
O122 C121 1.315 . S
O123 Cd113 2.240 1_565 S
O123 C121 1.279 . S
O124 Cd114 2.297 . S
O124 C119 1.247 1_565 S
O125 Cd114 2.439 1_545 S
O125 C119 1.208 . S
O126 Cd127 2.223 . S
O126 C134 1.315 . S
Cd127 O126 2.223 . S
Cd127 O130 2.297 . S
Cd127 O131 2.439 . S
Cd127 O137 2.240 . S
Cd128 O129 2.240 . S
Cd128 O136 2.223 . S
Cd128 O138 2.297 . S
Cd128 O139 2.439 . S
O129 Cd128 2.240 . S
O129 C134 1.279 . S
O130 Cd127 2.297 . S
O130 C132 1.247 . S
O131 Cd127 2.439 . S
O131 C132 1.208 . S
C132 O130 1.247 . S
C132 O131 1.208 . S
C133 O138 1.247 . S
C133 O139 1.208 . S
C134 O126 1.315 . S
C134 O129 1.279 . S
C135 O136 1.315 . S
C135 O137 1.279 . S
O136 Cd128 2.223 . S
O136 C135 1.315 . S
O137 Cd127 2.240 . S
O137 C135 1.279 . S
O138 Cd128 2.297 . S
O138 C133 1.247 . S
O139 Cd128 2.439 . S
O139 C133 1.208 . S
O140 Cd141 2.223 . S
O140 C148 1.315 . S
Cd141 O140 2.223 . S
Cd141 O144 2.297 . S
Cd141 O145 2.439 . S
Cd141 O151 2.240 . S
Cd142 O143 2.240 . S
Cd142 O150 2.223 . S
Cd142 O152 2.297 . S
Cd142 O153 2.439 . S
O143 Cd142 2.240 . S
O143 C148 1.279 . S
O144 Cd141 2.297 . S
O144 C146 1.247 1_545 S
O145 Cd141 2.439 . S
O145 C146 1.208 1_545 S
C146 O144 1.247 1_565 S
C146 O145 1.208 1_565 S
C147 O152 1.247 . S
C147 O153 1.208 . S
C148 O140 1.315 . S
C148 O143 1.279 . S
C149 O150 1.315 . S
C149 O151 1.279 . S
O150 Cd142 2.223 . S
O150 C149 1.315 . S
O151 Cd141 2.240 . S
O151 C149 1.279 . S
O152 Cd142 2.297 . S
O152 C147 1.247 . S
O153 Cd142 2.439 . S
O153 C147 1.208 . S
O154 Cd155 2.223 . S
O154 C162 1.315 . S
Cd155 O154 2.223 . S
Cd155 O158 2.297 . S
Cd155 O159 2.439 1_554 S
Cd155 O165 2.240 1_554 S
Cd156 O157 2.240 1_556 S
Cd156 O164 2.223 1_556 S
Cd156 O166 2.297 . S
Cd156 O167 2.439 . S
O157 Cd156 2.240 1_554 S
O157 C162 1.279 . S
O158 Cd155 2.297 . S
O158 C160 1.247 . S
O159 Cd155 2.439 1_556 S
O159 C160 1.208 1_556 S
C160 O158 1.247 . S
C160 O159 1.208 1_554 S
C161 O166 1.247 . S
C161 O167 1.208 . S
C162 O154 1.315 . S
C162 O157 1.279 . S
C163 O164 1.315 . S
C163 O165 1.279 1_554 S
O164 Cd156 2.223 1_554 S
O164 C163 1.315 . S
O165 Cd155 2.240 1_556 S
O165 C163 1.279 1_556 S
O166 Cd156 2.297 . S
O166 C161 1.247 . S
O167 Cd156 2.439 . S
O167 C161 1.208 . S
O168 Cd169 2.223 . S
O168 C176 1.315 . S
Cd169 O168 2.223 . S
Cd169 O172 2.297 . S
Cd169 O173 2.439 . S
Cd169 O179 2.240 . S
Cd170 O171 2.240 . S
Cd170 O178 2.223 . S
Cd170 O180 2.333 . S
Cd170 O181 2.439 . S
O171 Cd170 2.240 . S
O171 C176 1.279 . S
O172 Cd169 2.297 . S
O172 C174 1.247 . S
O173 Cd169 2.439 . S
O173 C174 1.208 . S
C174 O172 1.247 . S
C174 O173 1.208 . S
C175 O180 1.234 1_556 S
C175 O181 1.208 1_556 S
C176 O168 1.315 . S
C176 O171 1.279 . S
C177 O178 1.315 . S
C177 O179 1.279 . S
O178 Cd170 2.223 . S
O178 C177 1.315 . S
O179 Cd169 2.240 . S
O179 C177 1.279 . S
O180 Cd170 2.333 . S
O180 C175 1.234 1_554 S
O181 Cd170 2.439 . S
O181 C175 1.208 1_554 S
O182 Cd183 2.223 . S
O182 C190 1.315 . S
Cd183 O182 2.223 . S
Cd183 O186 2.297 . S
Cd183 O187 2.439 . S
Cd183 O193 2.240 . S
Cd184 O185 2.240 . S
Cd184 O192 2.223 . S
Cd184 O194 2.297 . S
Cd184 O195 2.439 . S
O185 Cd184 2.240 . S
O185 C190 1.279 . S
O186 Cd183 2.297 . S
O186 C188 1.247 . S
O187 Cd183 2.439 . S
O187 C188 1.208 . S
C188 O186 1.247 . S
C188 O187 1.208 . S
C189 O194 1.247 . S
C189 O195 1.208 . S
C190 O182 1.315 . S
C190 O185 1.279 . S
C191 O192 1.315 . S
C191 O193 1.279 . S
O192 Cd184 2.223 . S
O192 C191 1.315 . S
O193 Cd183 2.240 . S
O193 C191 1.279 . S
O194 Cd184 2.297 . S
O194 C189 1.247 . S
O195 Cd184 2.439 . S
O195 C189 1.208 . S
O196 Cd197 2.223 . S
O196 C204 1.315 . S
Cd197 O196 2.223 . S
Cd197 O200 2.297 . S
Cd197 O201 2.439 . S
Cd197 O207 2.240 . S
Cd198 O199 2.240 . S
Cd198 O206 2.223 . S
Cd198 O208 2.297 . S
Cd198 O209 2.439 . S
O199 Cd198 2.240 . S
O199 C204 1.279 . S
O200 Cd197 2.297 . S
O200 C202 1.247 . S
O201 Cd197 2.439 . S
O201 C202 1.208 . S
C202 O200 1.247 . S
C202 O201 1.208 . S
C203 O208 1.247 . S
C203 O209 1.208 . S
C204 O196 1.315 . S
C204 O199 1.279 . S
C205 O206 1.315 . S
C205 O207 1.279 . S
O206 Cd198 2.223 . S
O206 C205 1.315 . S
O207 Cd197 2.240 . S
O207 C205 1.279 . S
O208 Cd198 2.297 . S
O208 C203 1.247 . S
O209 Cd198 2.439 . S
O209 C203 1.208 . S
O210 Cd211 2.223 . S
O210 C218 1.315 . S
Cd211 O210 2.223 . S
Cd211 O214 2.297 . S
Cd211 O215 2.439 . S
Cd211 O221 2.240 . S
Cd212 O213 2.240 . S
Cd212 O220 2.223 . S
Cd212 O222 2.297 . S
Cd212 O223 2.439 . S
O213 Cd212 2.240 . S
O213 C218 1.279 . S
O214 Cd211 2.297 . S
O214 C216 1.247 . S
O215 Cd211 2.439 . S
O215 C216 1.208 . S
C216 O214 1.247 . S
C216 O215 1.208 . S
C217 O222 1.247 . S
C217 O223 1.208 . S
C218 O210 1.315 . S
C218 O213 1.279 . S
C219 O220 1.315 . S
C219 O221 1.279 . S
O220 Cd212 2.223 . S
O220 C219 1.315 . S
O221 Cd211 2.240 . S
O221 C219 1.279 . S
O222 Cd212 2.297 . S
O222 C217 1.247 . S
O223 Cd212 2.439 . S
O223 C217 1.208 . S
O224 Cd225 2.223 . S
O224 C232 1.315 . S
Cd225 O224 2.223 . S
Cd225 O228 2.297 . S
Cd225 O229 2.439 . S
Cd225 O235 2.263 . S
Cd226 O227 2.240 . S
Cd226 O234 2.223 1_545 S
Cd226 O236 2.297 . S
Cd226 O237 2.439 . S
O227 Cd226 2.240 . S
O227 C232 1.279 . S
O228 Cd225 2.297 . S
O228 C230 1.247 . S
O229 Cd225 2.439 . S
O229 C230 1.208 . S
C230 O228 1.247 . S
C230 O229 1.208 . S
C231 O236 1.247 . S
C231 O237 1.208 . S
C232 O224 1.315 . S
C232 O227 1.279 . S
C233 O234 1.315 . S
C233 O235 1.255 1_565 S
O234 Cd226 2.223 1_565 S
O234 C233 1.315 . S
O235 Cd225 2.263 . S
O235 C233 1.255 1_545 S
O236 Cd226 2.297 . S
O236 C231 1.247 . S
O237 Cd226 2.439 . S
O237 C231 1.208 . S
O238 Cd239 2.223 . S
O238 C246 1.315 . S
Cd239 O238 2.223 . S
Cd239 O242 2.297 . S
Cd239 O243 2.439 . S
Cd239 O249 2.240 . S
Cd240 O241 2.240 . S
Cd240 O248 2.223 . S
Cd240 O250 2.297 . S
Cd240 O251 2.439 . S
O241 Cd240 2.240 . S
O241 C246 1.279 . S
O242 Cd239 2.297 . S
O242 C244 1.247 . S
O243 Cd239 2.439 . S
O243 C244 1.208 . S
C244 O242 1.247 . S
C244 O243 1.208 . S
C245 O250 1.247 . S
C245 O251 1.208 . S
C246 O238 1.315 . S
C246 O241 1.279 . S
C247 O248 1.315 . S
C247 O249 1.279 . S
O248 Cd240 2.223 . S
O248 C247 1.315 . S
O249 Cd239 2.240 . S
O249 C247 1.279 . S
O250 Cd240 2.297 . S
O250 C245 1.247 . S
O251 Cd240 2.439 . S
O251 C245 1.208 . S
O252 Cd253 2.223 . S
O252 C260 1.315 . S
Cd253 O252 2.223 . S
Cd253 O256 2.297 . S
Cd253 O257 2.439 . S
Cd253 O263 2.240 . S
Cd254 O255 2.240 . S
Cd254 O262 2.223 . S
Cd254 O264 2.297 . S
Cd254 O265 2.439 . S
O255 Cd254 2.240 . S
O255 C260 1.279 . S
O256 Cd253 2.297 . S
O256 C258 1.247 . S
O257 Cd253 2.439 . S
O257 C258 1.208 . S
C258 O256 1.247 . S
C258 O257 1.208 . S
C259 O264 1.247 . S
C259 O265 1.208 . S
C260 O252 1.315 . S
C260 O255 1.279 . S
C261 O262 1.315 . S
C261 O263 1.279 . S
O262 Cd254 2.223 . S
O262 C261 1.315 . S
O263 Cd253 2.240 . S
O263 C261 1.279 . S
O264 Cd254 2.297 . S
O264 C259 1.247 . S
O265 Cd254 2.439 . S
O265 C259 1.208 . S
O266 Cd267 2.223 . S
O266 C274 1.315 . S
Cd267 O266 2.223 . S
Cd267 O270 2.297 . S
Cd267 O271 2.439 . S
Cd267 O277 2.240 . S
Cd268 O269 2.240 . S
Cd268 O276 2.223 . S
Cd268 O278 2.297 . S
Cd268 O279 2.439 . S
O269 Cd268 2.240 . S
O269 C274 1.279 . S
O270 Cd267 2.297 . S
O270 C272 1.247 . S
O271 Cd267 2.439 . S
O271 C272 1.208 . S
C272 O270 1.247 . S
C272 O271 1.208 . S
C273 O278 1.247 . S
C273 O279 1.208 . S
C274 O266 1.315 . S
C274 O269 1.279 . S
C275 O276 1.315 . S
C275 O277 1.279 . S
O276 Cd268 2.223 . S
O276 C275 1.315 . S
O277 Cd267 2.240 . S
O277 C275 1.279 . S
O278 Cd268 2.297 . S
O278 C273 1.247 . S
O279 Cd268 2.439 . S
O279 C273 1.208 . S
O280 Cd281 2.223 . S
O280 C288 1.315 . S
Cd281 O280 2.223 . S
Cd281 O284 2.297 . S
Cd281 O285 2.439 . S
Cd281 O291 2.240 . S
Cd282 O283 2.240 . S
Cd282 O290 2.223 . S
Cd282 O292 2.297 1_554 S
Cd282 O293 2.439 . S
O283 Cd282 2.240 . S
O283 C288 1.279 . S
O284 Cd281 2.297 . S
O284 C286 1.247 . S
O285 Cd281 2.439 . S
O285 C286 1.208 . S
C286 O284 1.247 . S
C286 O285 1.208 . S
C287 O292 1.247 . S
C287 O293 1.208 1_556 S
C288 O280 1.315 . S
C288 O283 1.279 . S
C289 O290 1.315 . S
C289 O291 1.279 . S
O290 Cd282 2.223 . S
O290 C289 1.315 . S
O291 Cd281 2.240 . S
O291 C289 1.279 . S
O292 Cd282 2.297 1_556 S
O292 C287 1.247 . S
O293 Cd282 2.439 . S
O293 C287 1.208 1_554 S
O294 Cd295 2.223 . S
O294 C302 1.315 . S
Cd295 O294 2.223 . S
Cd295 O298 2.297 . S
Cd295 O299 2.439 . S
Cd295 O305 2.240 . S
Cd296 O297 2.240 . S
Cd296 O304 2.223 . S
Cd296 O306 2.297 . S
Cd296 O307 2.439 . S
O297 Cd296 2.240 . S
O297 C302 1.279 . S
O298 Cd295 2.297 . S
O298 C300 1.247 . S
O299 Cd295 2.439 . S
O299 C300 1.208 . S
C300 O298 1.247 . S
C300 O299 1.208 . S
C301 O306 1.247 . S
C301 O307 1.208 . S
C302 O294 1.315 . S
C302 O297 1.279 . S
C303 O304 1.315 . S
C303 O305 1.279 . S
O304 Cd296 2.223 . S
O304 C303 1.315 . S
O305 Cd295 2.240 . S
O305 C303 1.279 . S
O306 Cd296 2.297 . S
O306 C301 1.247 . S
O307 Cd296 2.439 . S
O307 C301 1.208 . S
O308 Cd309 2.223 . S
O308 C316 1.315 . S
Cd309 O308 2.223 . S
Cd309 O312 2.297 . S
Cd309 O313 2.439 . S
Cd309 O319 2.240 . S
Cd310 O311 2.240 . S
Cd310 O318 2.223 . S
Cd310 O320 2.297 . S
Cd310 O321 2.439 . S
O311 Cd310 2.240 . S
O311 C316 1.279 . S
O312 Cd309 2.297 . S
O312 C314 1.247 . S
O313 Cd309 2.439 . S
O313 C314 1.208 . S
C314 O312 1.247 . S
C314 O313 1.208 . S
C315 O320 1.247 . S
C315 O321 1.208 . S
C316 O308 1.315 . S
C316 O311 1.279 . S
C317 O318 1.315 . S
C317 O319 1.279 . S
O318 Cd310 2.223 . S
O318 C317 1.315 . S
O319 Cd309 2.240 . S
O319 C317 1.279 . S
O320 Cd310 2.297 . S
O320 C315 1.247 . S
O321 Cd310 2.439 . S
O321 C315 1.208 . S
O322 Cd323 2.223 . S
O322 C330 1.315 . S
Cd323 O322 2.223 . S
Cd323 O326 2.297 . S
Cd323 O327 2.439 . S
Cd323 O333 2.240 . S
Cd324 O325 2.240 . S
Cd324 O332 2.223 . S
Cd324 O334 2.297 . S
Cd324 O335 2.439 . S
O325 Cd324 2.240 . S
O325 C330 1.279 . S
O326 Cd323 2.297 . S
O326 C328 1.247 . S
O327 Cd323 2.439 . S
O327 C328 1.208 . S
C328 O326 1.247 . S
C328 O327 1.208 . S
C329 O334 1.247 . S
C329 O335 1.208 . S
C330 O322 1.315 . S
C330 O325 1.279 . S
C331 O332 1.315 . S
C331 O333 1.279 . S
O332 Cd324 2.223 . S
O332 C331 1.315 . S
O333 Cd323 2.240 . S
O333 C331 1.279 . S
O334 Cd324 2.297 . S
O334 C329 1.247 . S
O335 Cd324 2.439 . S
O335 C329 1.208 . S
Dy336 O339 2.307 . S
Dy336 O341 2.395 . S
Dy336 O342 2.379 . S
Dy336 O344 2.339 . S
Dy336 O346 2.298 . S
Dy336 O350 2.275 . S
Dy336 C358 2.738 . S
Dy337 O340 2.298 1_655 S
Dy337 O343 2.275 1_655 S
Dy337 O345 2.307 1_655 S
Dy337 O347 2.395 . S
Dy337 O348 2.379 . S
Dy337 O351 2.339 1_655 S
Dy337 C367 2.738 . S
C338 O350 1.254 . S
C338 O351 1.257 . S
O339 Dy336 2.307 . S
O339 C349 1.266 . S
O340 Dy337 2.298 1_455 S
O340 C349 1.236 . S
O341 Dy336 2.395 . S
O341 C358 1.255 . S
O342 Dy336 2.379 . S
O342 C358 1.249 . S
O343 Dy337 2.275 1_455 S
O343 C359 1.254 . S
O344 Dy336 2.339 . S
O344 C359 1.257 . S
O345 Dy337 2.307 1_455 S
O345 C360 1.266 . S
O346 Dy336 2.298 . S
O346 C360 1.236 . S
O347 Dy337 2.395 . S
O347 C367 1.255 . S
O348 Dy337 2.379 . S
O348 C367 1.249 . S
C349 O339 1.266 . S
C349 O340 1.236 . S
O350 Dy336 2.275 . S
O350 C338 1.254 . S
O351 Dy337 2.339 1_455 S
O351 C338 1.257 . S
C352 C355 1.344 . S
C352 C356 1.328 . S
C352 C358 1.516 . S
C353 C354 1.304 . S
C353 C357 1.323 . S
C354 C353 1.304 . S
C354 C355 1.371 . S
C354 H368 0.930 . S
C355 C352 1.344 . S
C355 C354 1.371 . S
C355 H369 0.931 . S
C356 C352 1.328 . S
C356 C357 1.433 . S
C356 H370 0.931 . S
C357 C353 1.323 . S
C357 C356 1.433 . S
C357 H371 0.933 . S
C358 Dy336 2.738 . S
C358 O341 1.255 . S
C358 O342 1.249 . S
C358 C352 1.516 . S
C359 O343 1.254 . S
C359 O344 1.257 . S
C360 O345 1.266 . S
C360 O346 1.236 . S
C361 C364 1.344 . S
C361 C365 1.328 . S
C361 C367 1.516 . S
C362 C363 1.304 . S
C362 C366 1.323 . S
C363 C362 1.304 . S
C363 C364 1.371 . S
C363 H372 0.930 . S
C364 C361 1.344 . S
C364 C363 1.371 . S
C364 H373 0.931 . S
C365 C361 1.328 . S
C365 C366 1.433 . S
C365 H374 0.896 1_554 S
C366 C362 1.323 . S
C366 C365 1.433 . S
C366 H375 0.933 1_554 S
C367 Dy337 2.738 . S
C367 O347 1.255 . S
C367 O348 1.249 . S
C367 C361 1.516 . S
H368 C354 0.930 . S
H369 C355 0.931 . S
H370 C356 0.931 . S
H371 C357 0.933 . S
H372 C363 0.930 . S
H373 C364 0.931 . S
H374 C365 0.896 1_556 S
H375 C366 0.933 1_556 S
Dy376 O379 2.307 . S
Dy376 O381 2.395 . S
Dy376 O382 2.379 . S
Dy376 O384 2.339 . S
Dy376 O386 2.298 . S
Dy376 O390 2.275 . S
Dy376 C398 2.738 . S
Dy377 O380 2.298 . S
Dy377 O383 2.275 . S
Dy377 O385 2.307 . S
Dy377 O387 2.395 . S
Dy377 O388 2.379 . S
Dy377 O391 2.339 . S
Dy377 C407 2.738 . S
C378 O390 1.254 . S
C378 O391 1.257 . S
O379 Dy376 2.307 . S
O379 C389 1.266 . S
O380 Dy377 2.298 . S
O380 C389 1.236 . S
O381 Dy376 2.395 . S
O381 C398 1.255 . S
O382 Dy376 2.379 . S
O382 C398 1.249 . S
O383 Dy377 2.275 . S
O383 C399 1.254 . S
O384 Dy376 2.339 . S
O384 C399 1.257 . S
O385 Dy377 2.307 . S
O385 C400 1.266 . S
O386 Dy376 2.298 . S
O386 C400 1.236 . S
O387 Dy377 2.395 . S
O387 C407 1.255 . S
O388 Dy377 2.379 . S
O388 C407 1.249 . S
C389 O379 1.266 . S
C389 O380 1.236 . S
O390 Dy376 2.275 . S
O390 C378 1.254 . S
O391 Dy377 2.339 . S
O391 C378 1.257 . S
C392 C395 1.344 . S
C392 C396 1.328 . S
C392 C398 1.516 . S
C393 C394 1.304 . S
C393 C397 1.323 . S
C394 C393 1.304 . S
C394 C395 1.371 . S
C394 H408 0.930 . S
C395 C392 1.344 . S
C395 C394 1.371 . S
C395 H409 0.931 . S
C396 C392 1.328 . S
C396 C397 1.433 . S
C396 H410 0.931 . S
C397 C393 1.323 . S
C397 C396 1.433 . S
C397 H411 0.933 . S
C398 Dy376 2.738 . S
C398 O381 1.255 . S
C398 O382 1.249 . S
C398 C392 1.516 . S
C399 O383 1.254 . S
C399 O384 1.257 . S
C400 O385 1.266 . S
C400 O386 1.236 . S
C401 C404 1.344 . S
C401 C405 1.328 . S
C401 C407 1.516 . S
C402 C403 1.304 . S
C402 C406 1.323 . S
C403 C402 1.304 . S
C403 C404 1.371 . S
C403 H412 0.930 . S
C404 C401 1.344 . S
C404 C403 1.371 . S
C404 H413 0.931 . S
C405 C401 1.328 . S
C405 C406 1.433 . S
C405 H414 0.931 . S
C406 C402 1.323 . S
C406 C405 1.433 . S
C406 H415 0.933 . S
C407 Dy377 2.738 . S
C407 O387 1.255 . S
C407 O388 1.249 . S
C407 C401 1.516 . S
H408 C394 0.930 . S
H409 C395 0.931 . S
H410 C396 0.931 . S
H411 C397 0.933 . S
H412 C403 0.930 . S
H413 C404 0.931 . S
H414 C405 0.931 . S
H415 C406 0.933 . S
Dy416 O419 2.307 . S
Dy416 O421 2.395 . S
Dy416 O422 2.379 . S
Dy416 O424 2.339 . S
Dy416 O426 2.298 . S
Dy416 O430 2.275 . S
Dy416 C438 2.738 . S
Dy417 O420 2.298 . S
Dy417 O423 2.275 . S
Dy417 O425 2.307 . S
Dy417 O427 2.395 . S
Dy417 O428 2.379 . S
Dy417 O431 2.339 . S
Dy417 C447 2.738 . S
C418 O430 1.254 . S
C418 O431 1.257 . S
O419 Dy416 2.307 . S
O419 C429 1.266 1_545 S
O420 Dy417 2.298 . S
O420 C429 1.236 1_545 S
O421 Dy416 2.395 . S
O421 C438 1.255 . S
O422 Dy416 2.379 . S
O422 C438 1.249 . S
O423 Dy417 2.275 . S
O423 C439 1.254 . S
O424 Dy416 2.339 . S
O424 C439 1.257 . S
O425 Dy417 2.307 . S
O425 C440 1.266 . S
O426 Dy416 2.298 . S
O426 C440 1.236 . S
O427 Dy417 2.395 . S
O427 C447 1.255 . S
O428 Dy417 2.379 . S
O428 C447 1.249 . S
C429 O419 1.266 1_565 S
C429 O420 1.236 1_565 S
O430 Dy416 2.275 . S
O430 C418 1.254 . S
O431 Dy417 2.339 . S
O431 C418 1.257 . S
C432 C435 1.344 . S
C432 C436 1.328 . S
C432 C438 1.516 . S
C433 C434 1.304 . S
C433 C437 1.323 . S
C434 C433 1.304 . S
C434 C435 1.371 . S
C434 H448 0.930 . S
C435 C432 1.344 . S
C435 C434 1.371 . S
C435 H449 0.931 . S
C436 C432 1.328 . S
C436 C437 1.433 . S
C436 H450 0.931 . S
C437 C433 1.323 . S
C437 C436 1.433 . S
C437 H451 0.933 . S
C438 Dy416 2.738 . S
C438 O421 1.255 . S
C438 O422 1.249 . S
C438 C432 1.516 . S
C439 O423 1.254 . S
C439 O424 1.257 . S
C440 O425 1.266 . S
C440 O426 1.236 . S
C441 C444 1.344 1_545 S
C441 C445 1.328 . S
C441 C447 1.516 . S
C442 C443 1.304 . S
C442 C446 1.323 . S
C443 C442 1.304 . S
C443 C444 1.371 . S
C443 H452 0.930 . S
C444 C441 1.344 1_565 S
C444 C443 1.371 . S
C444 H453 0.931 . S
C445 C441 1.328 . S
C445 C446 1.433 1_545 S
C445 H454 0.931 . S
C446 C442 1.323 . S
C446 C445 1.433 1_565 S
C446 H455 0.933 . S
C447 Dy417 2.738 . S
C447 O427 1.255 . S
C447 O428 1.249 . S
C447 C441 1.516 . S
H448 C434 0.930 . S
H449 C435 0.931 . S
H450 C436 0.931 . S
H451 C437 0.933 . S
H452 C443 0.930 . S
H453 C444 0.931 . S
H454 C445 0.931 . S
H455 C446 0.933 . S
Dy456 O459 2.307 . S
Dy456 O461 2.395 . S
Dy456 O462 2.379 . S
Dy456 O464 2.339 . S
Dy456 O466 2.298 . S
Dy456 O470 2.275 . S
Dy456 C478 2.738 . S
Dy457 O460 2.298 . S
Dy457 O463 2.275 . S
Dy457 O465 2.307 . S
Dy457 O467 2.395 . S
Dy457 O468 2.379 . S
Dy457 O471 2.339 . S
Dy457 C487 2.738 . S
C458 O470 1.254 . S
C458 O471 1.257 . S
O459 Dy456 2.307 . S
O459 C469 1.266 . S
O460 Dy457 2.298 . S
O460 C469 1.236 . S
O461 Dy456 2.395 . S
O461 C478 1.255 . S
O462 Dy456 2.379 . S
O462 C478 1.249 . S
O463 Dy457 2.275 . S
O463 C479 1.254 . S
O464 Dy456 2.339 . S
O464 C479 1.257 . S
O465 Dy457 2.307 . S
O465 C480 1.266 . S
O466 Dy456 2.298 . S
O466 C480 1.236 . S
O467 Dy457 2.395 . S
O467 C487 1.255 . S
O468 Dy457 2.379 . S
O468 C487 1.249 . S
C469 O459 1.266 . S
C469 O460 1.236 . S
O470 Dy456 2.275 . S
O470 C458 1.254 . S
O471 Dy457 2.339 . S
O471 C458 1.257 . S
C472 C475 1.344 . S
C472 C476 1.328 . S
C472 C478 1.516 . S
C473 C474 1.304 . S
C473 C477 1.323 . S
C474 C473 1.304 . S
C474 C475 1.371 . S
C474 H488 0.930 . S
C475 C472 1.344 . S
C475 C474 1.371 . S
C475 H489 0.931 . S
C476 C472 1.328 . S
C476 C477 1.433 . S
C476 H490 0.931 . S
C477 C473 1.323 . S
C477 C476 1.433 . S
C477 H491 0.933 . S
C478 Dy456 2.738 . S
C478 O461 1.255 . S
C478 O462 1.249 . S
C478 C472 1.516 . S
C479 O463 1.254 . S
C479 O464 1.257 . S
C480 O465 1.266 . S
C480 O466 1.236 . S
C481 C484 1.344 . S
C481 C485 1.328 . S
C481 C487 1.516 . S
C482 C483 1.304 . S
C482 C486 1.323 . S
C483 C482 1.304 . S
C483 C484 1.371 . S
C483 H492 0.930 . S
C484 C481 1.344 . S
C484 C483 1.371 . S
C484 H493 0.931 . S
C485 C481 1.328 . S
C485 C486 1.433 . S
C485 H494 0.931 . S
C486 C482 1.323 . S
C486 C485 1.433 . S
C486 H495 0.933 . S
C487 Dy457 2.738 . S
C487 O467 1.255 . S
C487 O468 1.249 . S
C487 C481 1.516 . S
H488 C474 0.930 . S
H489 C475 0.931 . S
H490 C476 0.931 . S
H491 C477 0.933 . S
H492 C483 0.930 . S
H493 C484 0.931 . S
H494 C485 0.931 . S
H495 C486 0.933 . S
Dy496 O499 2.307 . S
Dy496 O501 2.395 1_545 S
Dy496 O502 2.379 1_545 S
Dy496 O504 2.339 . S
Dy496 O506 2.298 . S
Dy496 O510 2.275 . S
Dy496 C518 2.738 1_545 S
Dy497 O500 2.298 . S
Dy497 O503 2.275 . S
Dy497 O505 2.307 . S
Dy497 O507 2.395 . S
Dy497 O508 2.379 . S
Dy497 O511 2.339 1_455 S
Dy497 C527 2.738 . S
C498 O510 1.254 1_655 S
C498 O511 1.257 . S
O499 Dy496 2.307 . S
O499 C509 1.266 . S
O500 Dy497 2.298 . S
O500 C509 1.236 . S
O501 Dy496 2.395 1_565 S
O501 C518 1.255 . S
O502 Dy496 2.379 1_565 S
O502 C518 1.249 . S
O503 Dy497 2.275 . S
O503 C519 1.254 . S
O504 Dy496 2.339 . S
O504 C519 1.257 . S
O505 Dy497 2.307 . S
O505 C520 1.266 . S
O506 Dy496 2.298 . S
O506 C520 1.236 . S
O507 Dy497 2.395 . S
O507 C527 1.255 . S
O508 Dy497 2.379 . S
O508 C527 1.249 . S
C509 O499 1.266 . S
C509 O500 1.236 . S
O510 Dy496 2.275 . S
O510 C498 1.254 1_455 S
O511 Dy497 2.339 1_655 S
O511 C498 1.257 . S
C512 C515 1.344 . S
C512 C516 1.328 . S
C512 C518 1.516 . S
C513 C514 1.304 . S
C513 C517 1.323 . S
C514 C513 1.304 . S
C514 C515 1.371 . S
C514 H528 0.930 . S
C515 C512 1.344 . S
C515 C514 1.371 . S
C515 H529 0.931 . S
C516 C512 1.328 . S
C516 C517 1.433 . S
C516 H530 0.931 . S
C517 C513 1.323 . S
C517 C516 1.433 . S
C517 H531 0.933 . S
C518 Dy496 2.738 1_565 S
C518 O501 1.255 . S
C518 O502 1.249 . S
C518 C512 1.516 . S
C519 O503 1.254 . S
C519 O504 1.257 . S
C520 O505 1.266 . S
C520 O506 1.236 . S
C521 C524 1.344 . S
C521 C525 1.328 . S
C521 C527 1.516 . S
C522 C523 1.304 . S
C522 C526 1.323 . S
C523 C522 1.304 . S
C523 C524 1.371 . S
C523 H532 0.930 . S
C524 C521 1.344 . S
C524 C523 1.371 . S
C524 H533 0.931 . S
C525 C521 1.328 . S
C525 C526 1.433 . S
C525 H534 0.931 1_455 S
C526 C522 1.323 . S
C526 C525 1.433 . S
C526 H535 0.933 1_455 S
C527 Dy497 2.738 . S
C527 O507 1.255 . S
C527 O508 1.249 . S
C527 C521 1.516 . S
H528 C514 0.930 . S
H529 C515 0.931 . S
H530 C516 0.931 . S
H531 C517 0.933 . S
H532 C523 0.930 . S
H533 C524 0.931 . S
H534 C525 0.931 1_655 S
H535 C526 0.933 1_655 S
Dy536 O539 2.307 . S
Dy536 O541 2.395 . S
Dy536 O542 2.379 . S
Dy536 O544 2.339 . S
Dy536 O546 2.298 . S
Dy536 O550 2.275 . S
Dy536 C558 2.738 . S
Dy537 O540 2.298 . S
Dy537 O543 2.275 . S
Dy537 O545 2.307 . S
Dy537 O547 2.395 . S
Dy537 O548 2.379 . S
Dy537 O551 2.339 . S
Dy537 C567 2.738 . S
C538 O550 1.254 . S
C538 O551 1.257 . S
O539 Dy536 2.307 . S
O539 C549 1.266 . S
O540 Dy537 2.298 . S
O540 C549 1.236 . S
O541 Dy536 2.395 . S
O541 C558 1.255 . S
O542 Dy536 2.379 . S
O542 C558 1.249 . S
O543 Dy537 2.275 . S
O543 C559 1.254 . S
O544 Dy536 2.339 . S
O544 C559 1.257 . S
O545 Dy537 2.307 . S
O545 C560 1.266 . S
O546 Dy536 2.298 . S
O546 C560 1.236 . S
O547 Dy537 2.395 . S
O547 C567 1.255 . S
O548 Dy537 2.379 . S
O548 C567 1.249 . S
C549 O539 1.266 . S
C549 O540 1.236 . S
O550 Dy536 2.275 . S
O550 C538 1.254 . S
O551 Dy537 2.339 . S
O551 C538 1.257 . S
C552 C555 1.344 . S
C552 C556 1.328 . S
C552 C558 1.516 . S
C553 C554 1.304 . S
C553 C557 1.323 . S
C554 C553 1.304 . S
C554 C555 1.371 . S
C554 H568 0.930 . S
C555 C552 1.344 . S
C555 C554 1.371 . S
C555 H569 0.931 . S
C556 C552 1.328 . S
C556 C557 1.433 . S
C556 H570 0.931 . S
C557 C553 1.323 . S
C557 C556 1.433 . S
C557 H571 0.933 . S
C558 Dy536 2.738 . S
C558 O541 1.255 . S
C558 O542 1.249 . S
C558 C552 1.516 . S
C559 O543 1.254 . S
C559 O544 1.257 . S
C560 O545 1.266 . S
C560 O546 1.236 . S
C561 C564 1.344 . S
C561 C565 1.328 . S
C561 C567 1.516 . S
C562 C563 1.304 . S
C562 C566 1.323 . S
C563 C562 1.304 . S
C563 C564 1.371 . S
C563 H572 0.930 . S
C564 C561 1.344 . S
C564 C563 1.371 . S
C564 H573 0.931 . S
C565 C561 1.328 . S
C565 C566 1.433 . S
C565 H574 0.931 . S
C566 C562 1.323 . S
C566 C565 1.433 . S
C566 H575 0.933 . S
C567 Dy537 2.738 . S
C567 O547 1.255 . S
C567 O548 1.249 . S
C567 C561 1.516 . S
H568 C554 0.930 . S
H569 C555 0.931 . S
H570 C556 0.931 . S
H571 C557 0.933 . S
H572 C563 0.930 . S
H573 C564 0.931 . S
H574 C565 0.931 . S
H575 C566 0.933 . S
Dy576 O579 2.307 . S
Dy576 O581 2.395 1_554 S
Dy576 O582 2.379 1_554 S
Dy576 O584 2.339 . S
Dy576 O586 2.298 . S
Dy576 O590 2.275 . S
Dy576 C598 2.738 1_554 S
Dy577 O580 2.298 . S
Dy577 O583 2.275 . S
Dy577 O585 2.307 . S
Dy577 O587 2.395 . S
Dy577 O588 2.383 . S
Dy577 O591 2.339 1_545 S
Dy577 C607 2.738 . S
C578 O590 1.306 . S
C578 O591 1.239 1_545 S
O579 Dy576 2.307 . S
O579 C589 1.266 . S
O580 Dy577 2.298 . S
O580 C589 1.236 . S
O581 Dy576 2.395 1_556 S
O581 C598 1.255 . S
O582 Dy576 2.379 1_556 S
O582 C598 1.249 . S
O583 Dy577 2.275 . S
O583 C599 1.254 . S
O584 Dy576 2.339 . S
O584 C599 1.257 . S
O585 Dy577 2.307 . S
O585 C600 1.266 . S
O586 Dy576 2.298 . S
O586 C600 1.236 . S
O587 Dy577 2.395 . S
O587 C607 1.255 . S
O588 Dy577 2.383 . S
O588 C607 1.254 . S
C589 O579 1.266 . S
C589 O580 1.236 . S
O590 Dy576 2.275 . S
O590 C578 1.306 . S
O591 Dy577 2.339 1_565 S
O591 C578 1.239 1_565 S
C592 C595 1.344 . S
C592 C596 1.328 . S
C592 C598 1.516 . S
C593 C594 1.304 . S
C593 C597 1.323 . S
C594 C593 1.304 . S
C594 C595 1.371 . S
C594 H608 0.930 . S
C595 C592 1.344 . S
C595 C594 1.371 . S
C595 H609 0.931 . S
C596 C592 1.328 . S
C596 C597 1.433 . S
C596 H610 0.931 . S
C597 C593 1.323 . S
C597 C596 1.433 . S
C597 H611 0.933 . S
C598 Dy576 2.738 1_556 S
C598 O581 1.255 . S
C598 O582 1.249 . S
C598 C592 1.516 . S
C599 O583 1.254 . S
C599 O584 1.257 . S
C600 O585 1.266 . S
C600 O586 1.236 . S
C601 C604 1.344 . S
C601 C605 1.328 1_545 S
C601 C607 1.516 . S
C602 C603 1.304 1_565 S
C602 C606 1.323 . S
C603 C602 1.304 1_545 S
C603 C604 1.371 . S
C603 H612 0.930 . S
C604 C601 1.344 . S
C604 C603 1.371 . S
C604 H613 0.931 . S
C605 C601 1.328 1_565 S
C605 C606 1.433 . S
C605 H614 0.931 . S
C606 C602 1.323 . S
C606 C605 1.433 . S
C606 H615 0.933 . S
C607 Dy577 2.738 . S
C607 O587 1.255 . S
C607 O588 1.254 . S
C607 C601 1.516 . S
H608 C594 0.930 . S
H609 C595 0.931 . S
H610 C596 0.931 . S
H611 C597 0.933 . S
H612 C603 0.930 . S
H613 C604 0.931 . S
H614 C605 0.931 . S
H615 C606 0.933 . S
Dy616 O619 2.307 . S
Dy616 O621 2.395 . S
Dy616 O622 2.379 . S
Dy616 O624 2.339 . S
Dy616 O626 2.298 . S
Dy616 O630 2.275 . S
Dy616 C638 2.738 . S
Dy617 O620 2.298 . S
Dy617 O623 2.275 . S
Dy617 O625 2.307 . S
Dy617 O627 2.395 . S
Dy617 O628 2.379 . S
Dy617 O631 2.339 . S
Dy617 C647 2.738 . S
C618 O630 1.254 . S
C618 O631 1.257 . S
O619 Dy616 2.307 . S
O619 C629 1.266 . S
O620 Dy617 2.298 . S
O620 C629 1.236 . S
O621 Dy616 2.395 . S
O621 C638 1.255 . S
O622 Dy616 2.379 . S
O622 C638 1.249 . S
O623 Dy617 2.275 . S
O623 C639 1.254 . S
O624 Dy616 2.339 . S
O624 C639 1.257 . S
O625 Dy617 2.307 . S
O625 C640 1.266 . S
O626 Dy616 2.298 . S
O626 C640 1.236 . S
O627 Dy617 2.395 . S
O627 C647 1.255 . S
O628 Dy617 2.379 . S
O628 C647 1.249 . S
C629 O619 1.266 . S
C629 O620 1.236 . S
O630 Dy616 2.275 . S
O630 C618 1.254 . S
O631 Dy617 2.339 . S
O631 C618 1.257 . S
C632 C635 1.344 . S
C632 C636 1.328 . S
C632 C638 1.516 . S
C633 C634 1.304 . S
C633 C637 1.323 . S
C634 C633 1.304 . S
C634 C635 1.371 . S
C634 H648 0.930 . S
C635 C632 1.344 . S
C635 C634 1.371 . S
C635 H649 0.931 . S
C636 C632 1.328 . S
C636 C637 1.433 . S
C636 H650 0.931 . S
C637 C633 1.323 . S
C637 C636 1.433 . S
C637 H651 0.933 . S
C638 Dy616 2.738 . S
C638 O621 1.255 . S
C638 O622 1.249 . S
C638 C632 1.516 . S
C639 O623 1.254 . S
C639 O624 1.257 . S
C640 O625 1.266 . S
C640 O626 1.236 . S
C641 C644 1.344 . S
C641 C645 1.328 . S
C641 C647 1.516 . S
C642 C643 1.304 . S
C642 C646 1.323 . S
C643 C642 1.304 . S
C643 C644 1.371 . S
C643 H652 0.930 . S
C644 C641 1.344 . S
C644 C643 1.371 . S
C644 H653 0.931 . S
C645 C641 1.328 . S
C645 C646 1.433 . S
C645 H654 0.931 . S
C646 C642 1.323 . S
C646 C645 1.433 . S
C646 H655 0.933 . S
C647 Dy617 2.738 . S
C647 O627 1.255 . S
C647 O628 1.249 . S
C647 C641 1.516 . S
H648 C634 0.930 . S
H649 C635 0.931 . S
H650 C636 0.931 . S
H651 C637 0.933 . S
H652 C643 0.930 . S
H653 C644 0.931 . S
H654 C645 0.931 . S
H655 C646 0.933 . S
Dy656 O659 2.307 . S
Dy656 O661 2.395 . S
Dy656 O662 2.379 . S
Dy656 O664 2.339 . S
Dy656 O666 2.298 . S
Dy656 O670 2.275 . S
Dy656 C678 2.738 . S
Dy657 O660 2.298 . S
Dy657 O663 2.275 . S
Dy657 O665 2.307 . S
Dy657 O667 2.395 . S
Dy657 O668 2.379 . S
Dy657 O671 2.339 . S
Dy657 C687 2.738 . S
C658 O670 1.254 . S
C658 O671 1.257 . S
O659 Dy656 2.307 . S
O659 C669 1.266 . S
O660 Dy657 2.298 . S
O660 C669 1.236 . S
O661 Dy656 2.395 . S
O661 C678 1.255 . S
O662 Dy656 2.379 . S
O662 C678 1.249 . S
O663 Dy657 2.275 . S
O663 C679 1.254 . S
O664 Dy656 2.339 . S
O664 C679 1.257 . S
O665 Dy657 2.307 . S
O665 C680 1.266 . S
O666 Dy656 2.298 . S
O666 C680 1.236 . S
O667 Dy657 2.395 . S
O667 C687 1.255 . S
O668 Dy657 2.379 . S
O668 C687 1.249 . S
C669 O659 1.266 . S
C669 O660 1.236 . S
O670 Dy656 2.275 . S
O670 C658 1.254 . S
O671 Dy657 2.339 . S
O671 C658 1.257 . S
C672 C675 1.344 . S
C672 C676 1.328 . S
C672 C678 1.516 . S
C673 C674 1.304 . S
C673 C677 1.323 . S
C674 C673 1.304 . S
C674 C675 1.371 . S
C674 H688 0.930 . S
C675 C672 1.344 . S
C675 C674 1.371 . S
C675 H689 0.931 . S
C676 C672 1.328 . S
C676 C677 1.433 . S
C676 H690 0.931 . S
C677 C673 1.323 . S
C677 C676 1.433 . S
C677 H691 0.933 . S
C678 Dy656 2.738 . S
C678 O661 1.255 . S
C678 O662 1.249 . S
C678 C672 1.516 . S
C679 O663 1.254 . S
C679 O664 1.257 . S
C680 O665 1.266 . S
C680 O666 1.236 . S
C681 C684 1.344 . S
C681 C685 1.328 . S
C681 C687 1.516 . S
C682 C683 1.304 . S
C682 C686 1.323 1_556 S
C683 C682 1.304 . S
C683 C684 1.371 1_556 S
C683 H692 0.930 . S
C684 C681 1.344 . S
C684 C683 1.371 1_554 S
C684 H693 0.931 . S
C685 C681 1.328 . S
C685 C686 1.433 . S
C685 H694 0.931 . S
C686 C682 1.323 1_554 S
C686 C685 1.433 . S
C686 H695 0.933 . S
C687 Dy657 2.738 . S
C687 O667 1.255 . S
C687 O668 1.249 . S
C687 C681 1.516 . S
H688 C674 0.930 . S
H689 C675 0.931 . S
H690 C676 0.931 . S
H691 C677 0.933 . S
H692 C683 0.930 . S
H693 C684 0.931 . S
H694 C685 0.931 . S
H695 C686 0.933 . S
Dy696 O699 2.307 . S
Dy696 O701 2.395 . S
Dy696 O702 2.379 . S
Dy696 O704 2.339 . S
Dy696 O706 2.298 . S
Dy696 O710 2.275 . S
Dy696 C718 2.738 . S
Dy697 O700 2.298 . S
Dy697 O703 2.275 . S
Dy697 O705 2.307 . S
Dy697 O707 2.395 . S
Dy697 O708 2.379 . S
Dy697 O711 2.339 . S
Dy697 C727 2.738 . S
C698 O710 1.254 . S
C698 O711 1.257 . S
O699 Dy696 2.307 . S
O699 C709 1.266 . S
O700 Dy697 2.298 . S
O700 C709 1.236 . S
O701 Dy696 2.395 . S
O701 C718 1.255 . S
O702 Dy696 2.379 . S
O702 C718 1.249 . S
O703 Dy697 2.275 . S
O703 C719 1.254 . S
O704 Dy696 2.339 . S
O704 C719 1.257 . S
O705 Dy697 2.307 . S
O705 C720 1.266 . S
O706 Dy696 2.298 . S
O706 C720 1.236 . S
O707 Dy697 2.395 . S
O707 C727 1.255 . S
O708 Dy697 2.379 . S
O708 C727 1.249 . S
C709 O699 1.266 . S
C709 O700 1.236 . S
O710 Dy696 2.275 . S
O710 C698 1.254 . S
O711 Dy697 2.339 . S
O711 C698 1.257 . S
C712 C715 1.344 . S
C712 C716 1.328 . S
C712 C718 1.516 . S
C713 C714 1.304 . S
C713 C717 1.323 . S
C714 C713 1.304 . S
C714 C715 1.371 . S
C714 H728 0.930 . S
C715 C712 1.344 . S
C715 C714 1.371 . S
C715 H729 0.931 . S
C716 C712 1.328 . S
C716 C717 1.433 . S
C716 H730 0.931 . S
C717 C713 1.323 . S
C717 C716 1.433 . S
C717 H731 0.933 . S
C718 Dy696 2.738 . S
C718 O701 1.255 . S
C718 O702 1.249 . S
C718 C712 1.516 . S
C719 O703 1.254 . S
C719 O704 1.257 . S
C720 O705 1.266 . S
C720 O706 1.236 . S
C721 C724 1.344 . S
C721 C725 1.328 . S
C721 C727 1.516 . S
C722 C723 1.304 . S
C722 C726 1.323 . S
C723 C722 1.304 . S
C723 C724 1.371 . S
C723 H732 0.930 . S
C724 C721 1.344 . S
C724 C723 1.371 . S
C724 H733 0.931 . S
C725 C721 1.328 . S
C725 C726 1.433 . S
C725 H734 0.931 . S
C726 C722 1.323 . S
C726 C725 1.433 . S
C726 H735 0.933 . S
C727 Dy697 2.738 . S
C727 O707 1.255 . S
C727 O708 1.249 . S
C727 C721 1.516 . S
H728 C714 0.930 . S
H729 C715 0.931 . S
H730 C716 0.931 . S
H731 C717 0.933 . S
H732 C723 0.930 . S
H733 C724 0.931 . S
H734 C725 0.931 . S
H735 C726 0.933 . S
Dy736 O739 2.307 1_455 S
Dy736 O741 2.395 . S
Dy736 O742 2.379 . S
Dy736 O744 2.339 . S
Dy736 O746 2.298 . S
Dy736 O750 2.275 . S
Dy736 C758 2.738 . S
Dy737 O740 2.298 1_455 S
Dy737 O743 2.275 . S
Dy737 O745 2.307 . S
Dy737 O747 2.395 . S
Dy737 O748 2.379 . S
Dy737 O751 2.339 . S
Dy737 C767 2.751 . S
C738 O750 1.254 . S
C738 O751 1.257 . S
O739 Dy736 2.307 1_655 S
O739 C749 1.266 . S
O740 Dy737 2.298 1_655 S
O740 C749 1.236 . S
O741 Dy736 2.395 . S
O741 C758 1.255 . S
O742 Dy736 2.379 . S
O742 C758 1.249 . S
O743 Dy737 2.275 . S
O743 C759 1.254 . S
O744 Dy736 2.339 . S
O744 C759 1.257 . S
O745 Dy737 2.307 . S
O745 C760 1.266 . S
O746 Dy736 2.298 . S
O746 C760 1.236 . S
O747 Dy737 2.395 . S
O747 C767 1.252 . S
O748 Dy737 2.379 . S
O748 C767 1.265 . S
C749 O739 1.266 . S
C749 O740 1.236 . S
O750 Dy736 2.275 . S
O750 C738 1.254 . S
O751 Dy737 2.339 . S
O751 C738 1.257 . S
C752 C755 1.344 . S
C752 C756 1.328 . S
C752 C758 1.516 . S
C753 C754 1.304 . S
C753 C757 1.323 . S
C754 C753 1.304 . S
C754 C755 1.371 . S
C754 H768 0.930 . S
C755 C752 1.344 . S
C755 C754 1.371 . S
C755 H769 0.931 . S
C756 C752 1.328 . S
C756 C757 1.433 . S
C756 H770 0.931 . S
C757 C753 1.323 . S
C757 C756 1.433 . S
C757 H771 0.933 . S
C758 Dy736 2.738 . S
C758 O741 1.255 . S
C758 O742 1.249 . S
C758 C752 1.516 . S
C759 O743 1.254 . S
C759 O744 1.257 . S
C760 O745 1.266 . S
C760 O746 1.236 . S
C761 C764 1.344 . S
C761 C765 1.328 . S
C761 C767 1.503 1_655 S
C762 C763 1.304 . S
C762 C766 1.323 . S
C763 C762 1.304 . S
C763 C764 1.371 . S
C763 H772 0.930 . S
C764 C761 1.344 . S
C764 C763 1.371 . S
C764 H773 0.931 . S
C765 C761 1.328 . S
C765 C766 1.433 . S
C765 H774 0.931 . S
C766 C762 1.323 . S
C766 C765 1.433 . S
C766 H775 0.933 . S
C767 Dy737 2.751 . S
C767 O747 1.252 . S
C767 O748 1.265 . S
C767 C761 1.503 1_455 S
H768 C754 0.930 . S
H769 C755 0.931 . S
H770 C756 0.931 . S
H771 C757 0.933 . S
H772 C763 0.930 . S
H773 C764 0.931 . S
H774 C765 0.931 . S
H775 C766 0.933 . S
Dy776 O779 2.307 . S
Dy776 O781 2.395 . S
Dy776 O782 2.379 . S
Dy776 O784 2.339 . S
Dy776 O786 2.298 . S
Dy776 O790 2.275 . S
Dy776 C798 2.738 . S
Dy777 O780 2.298 . S
Dy777 O783 2.275 . S
Dy777 O785 2.307 . S
Dy777 O787 2.395 . S
Dy777 O788 2.379 . S
Dy777 O791 2.339 . S
Dy777 C807 2.738 . S
C778 O790 1.254 . S
C778 O791 1.257 . S
O779 Dy776 2.307 . S
O779 C789 1.266 . S
O780 Dy777 2.298 . S
O780 C789 1.236 . S
O781 Dy776 2.395 . S
O781 C798 1.255 . S
O782 Dy776 2.379 . S
O782 C798 1.249 . S
O783 Dy777 2.275 . S
O783 C799 1.254 . S
O784 Dy776 2.339 . S
O784 C799 1.257 . S
O785 Dy777 2.307 . S
O785 C800 1.266 . S
O786 Dy776 2.298 . S
O786 C800 1.236 . S
O787 Dy777 2.395 . S
O787 C807 1.255 . S
O788 Dy777 2.379 . S
O788 C807 1.249 . S
C789 O779 1.266 . S
C789 O780 1.236 . S
O790 Dy776 2.275 . S
O790 C778 1.254 . S
O791 Dy777 2.339 . S
O791 C778 1.257 . S
C792 C795 1.344 . S
C792 C796 1.328 . S
C792 C798 1.516 . S
C793 C794 1.304 . S
C793 C797 1.323 . S
C794 C793 1.304 . S
C794 C795 1.371 . S
C794 H808 0.930 . S
C795 C792 1.344 . S
C795 C794 1.371 . S
C795 H809 0.931 . S
C796 C792 1.328 . S
C796 C797 1.433 . S
C796 H810 0.931 . S
C797 C793 1.323 . S
C797 C796 1.433 . S
C797 H811 0.933 . S
C798 Dy776 2.738 . S
C798 O781 1.255 . S
C798 O782 1.249 . S
C798 C792 1.516 . S
C799 O783 1.254 . S
C799 O784 1.257 . S
C800 O785 1.266 . S
C800 O786 1.236 . S
C801 C804 1.344 . S
C801 C805 1.328 . S
C801 C807 1.516 . S
C802 C803 1.304 . S
C802 C806 1.323 . S
C803 C802 1.304 . S
C803 C804 1.371 . S
C803 H812 0.930 . S
C804 C801 1.344 . S
C804 C803 1.371 . S
C804 H813 0.931 . S
C805 C801 1.328 . S
C805 C806 1.433 . S
C805 H814 0.931 . S
C806 C802 1.323 . S
C806 C805 1.433 . S
C806 H815 0.933 . S
C807 Dy777 2.738 . S
C807 O787 1.255 . S
C807 O788 1.249 . S
C807 C801 1.516 . S
H808 C794 0.930 . S
H809 C795 0.931 . S
H810 C796 0.931 . S
H811 C797 0.933 . S
H812 C803 0.930 . S
H813 C804 0.931 . S
H814 C805 0.931 . S
H815 C806 0.933 . S
Dy816 O819 2.307 . S
Dy816 O821 2.395 . S
Dy816 O822 2.379 . S
Dy816 O824 2.339 . S
Dy816 O826 2.298 . S
Dy816 O830 2.275 . S
Dy816 C838 2.738 . S
Dy817 O820 2.298 . S
Dy817 O823 2.275 . S
Dy817 O825 2.307 . S
Dy817 O827 2.395 . S
Dy817 O828 2.379 . S
Dy817 O831 2.339 . S
Dy817 C847 2.738 . S
C818 O830 1.254 . S
C818 O831 1.257 . S
O819 Dy816 2.307 . S
O819 C829 1.266 . S
O820 Dy817 2.298 . S
O820 C829 1.236 . S
O821 Dy816 2.395 . S
O821 C838 1.255 . S
O822 Dy816 2.379 . S
O822 C838 1.249 . S
O823 Dy817 2.275 . S
O823 C839 1.254 . S
O824 Dy816 2.339 . S
O824 C839 1.257 . S
O825 Dy817 2.307 . S
O825 C840 1.266 . S
O826 Dy816 2.298 . S
O826 C840 1.236 . S
O827 Dy817 2.395 . S
O827 C847 1.255 . S
O828 Dy817 2.379 . S
O828 C847 1.249 . S
C829 O819 1.266 . S
C829 O820 1.236 . S
O830 Dy816 2.275 . S
O830 C818 1.254 . S
O831 Dy817 2.339 . S
O831 C818 1.257 . S
C832 C835 1.344 . S
C832 C836 1.328 . S
C832 C838 1.516 . S
C833 C834 1.304 . S
C833 C837 1.323 . S
C834 C833 1.304 . S
C834 C835 1.371 . S
C834 H848 0.930 . S
C835 C832 1.344 . S
C835 C834 1.371 . S
C835 H849 0.931 . S
C836 C832 1.328 . S
C836 C837 1.433 . S
C836 H850 0.931 . S
C837 C833 1.323 . S
C837 C836 1.433 . S
C837 H851 0.933 . S
C838 Dy816 2.738 . S
C838 O821 1.255 . S
C838 O822 1.249 . S
C838 C832 1.516 . S
C839 O823 1.254 . S
C839 O824 1.257 . S
C840 O825 1.266 . S
C840 O826 1.236 . S
C841 C844 1.344 . S
C841 C845 1.328 . S
C841 C847 1.516 . S
C842 C843 1.304 . S
C842 C846 1.323 . S
C843 C842 1.304 . S
C843 C844 1.371 . S
C843 H852 0.930 . S
C844 C841 1.344 . S
C844 C843 1.371 . S
C844 H853 0.931 . S
C845 C841 1.328 . S
C845 C846 1.433 . S
C845 H854 0.931 . S
C846 C842 1.323 . S
C846 C845 1.433 . S
C846 H855 0.933 . S
C847 Dy817 2.738 . S
C847 O827 1.255 . S
C847 O828 1.249 . S
C847 C841 1.516 . S
H848 C834 0.930 . S
H849 C835 0.931 . S
H850 C836 0.931 . S
H851 C837 0.933 . S
H852 C843 0.930 . S
H853 C844 0.931 . S
H854 C845 0.931 . S
H855 C846 0.933 . S
Dy856 O859 2.307 . S
Dy856 O861 2.395 . S
Dy856 O862 2.379 . S
Dy856 O864 2.339 . S
Dy856 O866 2.298 . S
Dy856 O870 2.275 . S
Dy856 C878 2.738 . S
Dy857 O860 2.298 . S
Dy857 O863 2.275 . S
Dy857 O865 2.307 . S
Dy857 O867 2.395 . S
Dy857 O868 2.379 . S
Dy857 O871 2.339 . S
Dy857 C887 2.738 . S
C858 O870 1.254 . S
C858 O871 1.257 . S
O859 Dy856 2.307 . S
O859 C869 1.266 . S
O860 Dy857 2.298 . S
O860 C869 1.236 . S
O861 Dy856 2.395 . S
O861 C878 1.255 . S
O862 Dy856 2.379 . S
O862 C878 1.249 . S
O863 Dy857 2.275 . S
O863 C879 1.254 . S
O864 Dy856 2.339 . S
O864 C879 1.257 . S
O865 Dy857 2.307 . S
O865 C880 1.266 . S
O866 Dy856 2.298 . S
O866 C880 1.236 . S
O867 Dy857 2.395 . S
O867 C887 1.255 . S
O868 Dy857 2.379 . S
O868 C887 1.249 . S
C869 O859 1.266 . S
C869 O860 1.236 . S
O870 Dy856 2.275 . S
O870 C858 1.254 . S
O871 Dy857 2.339 . S
O871 C858 1.257 . S
C872 C875 1.344 . S
C872 C876 1.328 . S
C872 C878 1.516 . S
C873 C874 1.304 . S
C873 C877 1.323 . S
C874 C873 1.304 . S
C874 C875 1.371 . S
C874 H888 0.930 . S
C875 C872 1.344 . S
C875 C874 1.371 . S
C875 H889 0.931 . S
C876 C872 1.328 . S
C876 C877 1.433 . S
C876 H890 0.931 . S
C877 C873 1.323 . S
C877 C876 1.433 . S
C877 H891 0.933 . S
C878 Dy856 2.738 . S
C878 O861 1.255 . S
C878 O862 1.249 . S
C878 C872 1.516 . S
C879 O863 1.254 . S
C879 O864 1.257 . S
C880 O865 1.266 . S
C880 O866 1.236 . S
C881 C884 1.344 . S
C881 C885 1.328 . S
C881 C887 1.516 . S
C882 C883 1.304 . S
C882 C886 1.323 . S
C883 C882 1.304 . S
C883 C884 1.371 . S
C883 H892 0.930 . S
C884 C881 1.344 . S
C884 C883 1.371 . S
C884 H893 0.931 . S
C885 C881 1.328 . S
C885 C886 1.433 . S
C885 H894 0.931 . S
C886 C882 1.323 . S
C886 C885 1.433 . S
C886 H895 0.933 . S
C887 Dy857 2.738 . S
C887 O867 1.255 . S
C887 O868 1.249 . S
C887 C881 1.516 . S
H888 C874 0.930 . S
H889 C875 0.931 . S
H890 C876 0.931 . S
H891 C877 0.933 . S
H892 C883 0.930 . S
H893 C884 0.931 . S
H894 C885 0.931 . S
H895 C886 0.933 . S
Dy896 O899 2.307 . S
Dy896 O901 2.395 . S
Dy896 O902 2.379 . S
Dy896 O904 2.339 . S
Dy896 O906 2.298 . S
Dy896 O910 2.275 . S
Dy896 C918 2.738 . S
Dy897 O900 2.298 . S
Dy897 O903 2.275 . S
Dy897 O905 2.307 . S
Dy897 O907 2.395 . S
Dy897 O908 2.379 . S
Dy897 O911 2.339 . S
Dy897 C927 2.738 . S
C898 O910 1.254 . S
C898 O911 1.257 . S
O899 Dy896 2.307 . S
O899 C909 1.266 . S
O900 Dy897 2.298 . S
O900 C909 1.236 . S
O901 Dy896 2.395 . S
O901 C918 1.255 . S
O902 Dy896 2.379 . S
O902 C918 1.249 . S
O903 Dy897 2.275 . S
O903 C919 1.254 . S
O904 Dy896 2.339 . S
O904 C919 1.257 . S
O905 Dy897 2.307 . S
O905 C920 1.266 . S
O906 Dy896 2.298 . S
O906 C920 1.236 . S
O907 Dy897 2.395 . S
O907 C927 1.255 . S
O908 Dy897 2.379 . S
O908 C927 1.249 . S
C909 O899 1.266 . S
C909 O900 1.236 . S
O910 Dy896 2.275 . S
O910 C898 1.254 . S
O911 Dy897 2.339 . S
O911 C898 1.257 . S
C912 C915 1.344 . S
C912 C916 1.328 . S
C912 C918 1.516 . S
C913 C914 1.304 . S
C913 C917 1.323 . S
C914 C913 1.304 . S
C914 C915 1.371 . S
C914 H928 0.930 . S
C915 C912 1.344 . S
C915 C914 1.371 . S
C915 H929 0.931 . S
C916 C912 1.328 . S
C916 C917 1.433 . S
C916 H930 0.931 . S
C917 C913 1.323 . S
C917 C916 1.433 . S
C917 H931 0.933 . S
C918 Dy896 2.738 . S
C918 O901 1.255 . S
C918 O902 1.249 . S
C918 C912 1.516 . S
C919 O903 1.254 . S
C919 O904 1.257 . S
C920 O905 1.266 . S
C920 O906 1.236 . S
C921 C924 1.344 . S
C921 C925 1.328 . S
C921 C927 1.516 . S
C922 C923 1.304 . S
C922 C926 1.323 . S
C923 C922 1.304 . S
C923 C924 1.371 . S
C923 H932 0.930 . S
C924 C921 1.344 . S
C924 C923 1.371 . S
C924 H933 0.931 . S
C925 C921 1.328 . S
C925 C926 1.433 . S
C925 H934 0.931 . S
C926 C922 1.323 . S
C926 C925 1.433 . S
C926 H935 0.933 . S
C927 Dy897 2.738 . S
C927 O907 1.255 . S
C927 O908 1.249 . S
C927 C921 1.516 . S
H928 C914 0.930 . S
H929 C915 0.931 . S
H930 C916 0.931 . S
H931 C917 0.933 . S
H932 C923 0.930 . S
H933 C924 0.931 . S
H934 C925 0.931 . S
H935 C926 0.933 . S
Dy936 O939 2.323 . S
Dy936 O941 2.370 1_455 S
Dy936 O942 2.356 1_455 S
Dy936 O944 2.354 . S
Dy936 O946 2.306 . S
Dy936 O950 2.287 . S
Dy936 C958 2.711 1_455 S
Dy937 O940 2.298 . S
Dy937 O943 2.275 . S
Dy937 O945 2.307 . S
Dy937 O947 2.395 . S
Dy937 O948 2.379 . S
Dy937 O951 2.339 . S
Dy937 C967 2.738 . S
C938 O950 1.254 . S
C938 O951 1.257 . S
O939 Dy936 2.323 . S
O939 C949 1.266 . S
O940 Dy937 2.298 . S
O940 C949 1.236 . S
O941 Dy936 2.370 1_655 S
O941 C958 1.255 . S
O942 Dy936 2.356 1_655 S
O942 C958 1.249 . S
O943 Dy937 2.275 . S
O943 C959 1.254 . S
O944 Dy936 2.354 . S
O944 C959 1.257 . S
O945 Dy937 2.307 . S
O945 C960 1.266 . S
O946 Dy936 2.306 . S
O946 C960 1.236 . S
O947 Dy937 2.395 . S
O947 C967 1.255 . S
O948 Dy937 2.379 . S
O948 C967 1.249 . S
C949 O939 1.266 . S
C949 O940 1.236 . S
O950 Dy936 2.287 . S
O950 C938 1.254 . S
O951 Dy937 2.339 . S
O951 C938 1.257 . S
C952 C955 1.344 . S
C952 C956 1.328 . S
C952 C958 1.516 . S
C953 C954 1.304 . S
C953 C957 1.323 . S
C954 C953 1.304 . S
C954 C955 1.371 . S
C954 H968 0.930 . S
C955 C952 1.344 . S
C955 C954 1.371 . S
C955 H969 0.931 . S
C956 C952 1.328 . S
C956 C957 1.433 . S
C956 H970 0.931 . S
C957 C953 1.323 . S
C957 C956 1.433 . S
C957 H971 0.933 . S
C958 Dy936 2.711 1_655 S
C958 O941 1.255 . S
C958 O942 1.249 . S
C958 C952 1.516 . S
C959 O943 1.254 . S
C959 O944 1.257 . S
C960 O945 1.266 . S
C960 O946 1.236 . S
C961 C964 1.344 . S
C961 C965 1.328 . S
C961 C967 1.516 . S
C962 C963 1.304 . S
C962 C966 1.323 . S
C963 C962 1.304 . S
C963 C964 1.371 . S
C963 H972 0.930 . S
C964 C961 1.344 . S
C964 C963 1.371 . S
C964 H973 0.931 . S
C965 C961 1.328 . S
C965 C966 1.433 . S
C965 H974 0.931 . S
C966 C962 1.323 . S
C966 C965 1.433 . S
C966 H975 0.933 . S
C967 Dy937 2.738 . S
C967 O947 1.255 . S
C967 O948 1.249 . S
C967 C961 1.516 . S
H968 C954 0.930 . S
H969 C955 0.931 . S
H970 C956 0.931 . S
H971 C957 0.933 . S
H972 C963 0.930 . S
H973 C964 0.931 . S
H974 C965 0.931 . S
H975 C966 0.933 . S
H976 C988 0.930 . S
H977 C990 0.930 . S
H978 C991 0.930 . S
H979 C995 0.959 . S
H980 C995 0.959 . S
H981 C995 0.961 . S
H982 C996 0.960 . S
H983 C996 0.961 . S
H984 C996 0.959 . S
H985 C999 0.929 . S
H986 C1000 0.931 . S
H987 C1002 0.930 . S
C988 H976 0.930 . S
C988 C989 1.399 . S
C988 C993 1.399 1_655 S
C989 C988 1.399 . S
C989 C990 1.376 1_656 S
C990 H977 0.930 . S
C990 C989 1.376 1_454 S
C990 C991 1.388 . S
C991 H978 0.930 . S
C991 C990 1.388 . S
C991 C992 1.390 . S
C992 C991 1.390 . S
C992 C993 1.394 1_554 S
C992 C998 1.465 . S
C993 C988 1.399 1_455 S
C993 C992 1.394 1_556 S
C993 C994 1.517 . S
C994 C993 1.517 . S
C994 C995 1.504 1_455 S
C994 C996 1.560 . S
C994 C997 1.525 1_556 S
C995 H979 0.959 . S
C995 H980 0.959 . S
C995 H981 0.961 . S
C995 C994 1.504 1_655 S
C996 H982 0.960 . S
C996 H983 0.961 . S
C996 H984 0.959 . S
C996 C994 1.560 . S
C997 C994 1.525 1_554 S
C997 C998 1.396 . S
C997 C1002 1.390 . S
C998 C992 1.465 . S
C998 C997 1.396 . S
C998 C999 1.399 . S
C999 H985 0.929 . S
C999 C998 1.399 . S
C999 C1000 1.385 . S
C1000 H986 0.931 . S
C1000 C999 1.385 . S
C1000 C1001 1.389 . S
C1001 C1000 1.389 . S
C1001 C1002 1.387 . S
C1002 H987 0.930 . S
C1002 C997 1.390 . S
C1002 C1001 1.387 . S
H1003 C1015 0.930 . S
H1004 C1017 0.930 . S
H1005 C1018 0.930 . S
H1006 C1022 0.959 . S
H1007 C1022 0.959 . S
H1008 C1022 0.961 . S
H1009 C1023 0.960 . S
H1010 C1023 0.961 . S
H1011 C1023 0.959 . S
H1012 C1026 0.929 . S
H1013 C1027 0.931 . S
H1014 C1029 0.930 . S
C1015 H1003 0.930 . S
C1015 C1016 1.399 . S
C1015 C1020 1.399 . S
C1016 C1015 1.399 . S
C1016 C1017 1.376 . S
C1017 H1004 0.930 . S
C1017 C1016 1.376 . S
C1017 C1018 1.388 . S
C1018 H1005 0.930 . S
C1018 C1017 1.388 . S
C1018 C1019 1.390 . S
C1019 C1018 1.390 . S
C1019 C1020 1.394 . S
C1019 C1025 1.465 . S
C1020 C1015 1.399 . S
C1020 C1019 1.394 . S
C1020 C1021 1.516 . S
C1021 C1020 1.516 . S
C1021 C1022 1.502 . S
C1021 C1023 1.561 . S
C1021 C1024 1.526 . S
C1022 H1006 0.959 . S
C1022 H1007 0.959 . S
C1022 H1008 0.961 . S
C1022 C1021 1.502 . S
C1023 H1009 0.960 . S
C1023 H1010 0.961 . S
C1023 H1011 0.959 . S
C1023 C1021 1.561 . S
C1024 C1021 1.526 . S
C1024 C1025 1.396 . S
C1024 C1029 1.390 . S
C1025 C1019 1.465 . S
C1025 C1024 1.396 . S
C1025 C1026 1.399 . S
C1026 H1012 0.929 . S
C1026 C1025 1.399 . S
C1026 C1027 1.385 . S
C1027 H1013 0.931 . S
C1027 C1026 1.385 . S
C1027 C1028 1.389 . S
C1028 C1027 1.389 . S
C1028 C1029 1.387 . S
C1029 H1014 0.930 . S
C1029 C1024 1.390 . S
C1029 C1028 1.387 . S
H1030 C1042 0.930 . S
H1031 C1044 0.930 . S
H1032 C1045 0.930 . S
H1033 C1049 0.959 . S
H1034 C1049 0.959 . S
H1035 C1049 0.961 . S
H1036 C1050 0.960 . S
H1037 C1050 0.961 . S
H1038 C1050 0.959 . S
H1039 C1053 0.929 . S
H1040 C1054 0.931 . S
H1041 C1056 0.930 . S
C1042 H1030 0.930 . S
C1042 C1043 1.399 . S
C1042 C1047 1.399 . S
C1043 C1042 1.399 . S
C1043 C1044 1.376 . S
C1044 H1031 0.930 . S
C1044 C1043 1.376 . S
C1044 C1045 1.388 . S
C1045 H1032 0.930 . S
C1045 C1044 1.388 . S
C1045 C1046 1.390 . S
C1046 C1045 1.390 . S
C1046 C1047 1.394 . S
C1046 C1052 1.465 . S
C1047 C1042 1.399 . S
C1047 C1046 1.394 . S
C1047 C1048 1.516 . S
C1048 C1047 1.516 . S
C1048 C1049 1.502 . S
C1048 C1050 1.561 . S
C1048 C1051 1.526 . S
C1049 H1033 0.959 . S
C1049 H1034 0.959 . S
C1049 H1035 0.961 . S
C1049 C1048 1.502 . S
C1050 H1036 0.960 . S
C1050 H1037 0.961 . S
C1050 H1038 0.959 . S
C1050 C1048 1.561 . S
C1051 C1048 1.526 . S
C1051 C1052 1.396 . S
C1051 C1056 1.390 . S
C1052 C1046 1.465 . S
C1052 C1051 1.396 . S
C1052 C1053 1.399 . S
C1053 H1039 0.929 . S
C1053 C1052 1.399 . S
C1053 C1054 1.385 . S
C1054 H1040 0.931 . S
C1054 C1053 1.385 . S
C1054 C1055 1.389 . S
C1055 C1054 1.389 . S
C1055 C1056 1.387 . S
C1056 H1041 0.930 . S
C1056 C1051 1.390 . S
C1056 C1055 1.387 . S
H1057 C1069 0.930 . S
H1058 C1071 0.930 . S
H1059 C1072 0.930 . S
H1060 C1076 0.959 . S
H1061 C1076 0.959 . S
H1062 C1076 0.961 . S
H1063 C1077 0.960 . S
H1064 C1077 0.961 . S
H1065 C1077 0.959 . S
H1066 C1080 0.929 . S
H1067 C1081 0.931 . S
H1068 C1083 0.930 . S
C1069 H1057 0.930 . S
C1069 C1070 1.399 . S
C1069 C1074 1.399 . S
C1070 C1069 1.399 . S
C1070 C1071 1.376 . S
C1071 H1058 0.930 . S
C1071 C1070 1.376 . S
C1071 C1072 1.388 . S
C1072 H1059 0.930 . S
C1072 C1071 1.388 . S
C1072 C1073 1.390 . S
C1073 C1072 1.390 . S
C1073 C1074 1.394 . S
C1073 C1079 1.465 . S
C1074 C1069 1.399 . S
C1074 C1073 1.394 . S
C1074 C1075 1.516 . S
C1075 C1074 1.516 . S
C1075 C1076 1.502 . S
C1075 C1077 1.561 . S
C1075 C1078 1.526 . S
C1076 H1060 0.959 . S
C1076 H1061 0.959 . S
C1076 H1062 0.961 . S
C1076 C1075 1.502 . S
C1077 H1063 0.960 . S
C1077 H1064 0.961 . S
C1077 H1065 0.959 . S
C1077 C1075 1.561 . S
C1078 C1075 1.526 . S
C1078 C1079 1.396 . S
C1078 C1083 1.390 . S
C1079 C1073 1.465 . S
C1079 C1078 1.396 . S
C1079 C1080 1.399 . S
C1080 H1066 0.929 . S
C1080 C1079 1.399 . S
C1080 C1081 1.385 . S
C1081 H1067 0.931 . S
C1081 C1080 1.385 . S
C1081 C1082 1.389 . S
C1082 C1081 1.389 . S
C1082 C1083 1.387 . S
C1083 H1068 0.930 . S
C1083 C1078 1.390 . S
C1083 C1082 1.387 . S
H1084 C1096 0.930 . S
H1085 C1098 0.930 . S
H1086 C1099 0.930 . S
H1087 C1103 0.959 . S
H1088 C1103 0.959 . S
H1089 C1103 0.961 . S
H1090 C1104 0.960 . S
H1091 C1104 0.961 . S
H1092 C1104 0.959 . S
H1093 C1107 0.929 . S
H1094 C1108 0.931 . S
H1095 C1110 0.930 . S
C1096 H1084 0.930 . S
C1096 C1097 1.399 . S
C1096 C1101 1.399 . S
C1097 C1096 1.399 . S
C1097 C1098 1.376 . S
C1098 H1085 0.930 . S
C1098 C1097 1.376 . S
C1098 C1099 1.388 . S
C1099 H1086 0.930 . S
C1099 C1098 1.388 . S
C1099 C1100 1.390 . S
C1100 C1099 1.390 . S
C1100 C1101 1.394 . S
C1100 C1106 1.465 . S
C1101 C1096 1.399 . S
C1101 C1100 1.394 . S
C1101 C1102 1.516 . S
C1102 C1101 1.516 . S
C1102 C1103 1.502 . S
C1102 C1104 1.561 . S
C1102 C1105 1.526 . S
C1103 H1087 0.959 . S
C1103 H1088 0.959 . S
C1103 H1089 0.961 . S
C1103 C1102 1.502 . S
C1104 H1090 0.960 . S
C1104 H1091 0.961 . S
C1104 H1092 0.959 . S
C1104 C1102 1.561 . S
C1105 C1102 1.526 . S
C1105 C1106 1.396 . S
C1105 C1110 1.390 . S
C1106 C1100 1.465 . S
C1106 C1105 1.396 . S
C1106 C1107 1.399 . S
C1107 H1093 0.929 . S
C1107 C1106 1.399 . S
C1107 C1108 1.385 . S
C1108 H1094 0.931 . S
C1108 C1107 1.385 . S
C1108 C1109 1.389 . S
C1109 C1108 1.389 . S
C1109 C1110 1.387 . S
C1110 H1095 0.930 . S
C1110 C1105 1.390 . S
C1110 C1109 1.387 . S
H1111 C1123 0.930 . S
H1112 C1125 0.930 . S
H1113 C1126 0.930 . S
H1114 C1130 0.959 . S
H1115 C1130 0.959 . S
H1116 C1130 0.961 . S
H1117 C1131 0.960 . S
H1118 C1131 0.961 . S
H1119 C1131 0.959 . S
H1120 C1134 0.929 . S
H1121 C1135 0.931 . S
H1122 C1137 0.930 . S
C1123 H1111 0.930 . S
C1123 C1124 1.399 . S
C1123 C1128 1.399 . S
C1124 C1123 1.399 . S
C1124 C1125 1.376 . S
C1125 H1112 0.930 . S
C1125 C1124 1.376 . S
C1125 C1126 1.388 . S
C1126 H1113 0.930 . S
C1126 C1125 1.388 . S
C1126 C1127 1.390 . S
C1127 C1126 1.390 . S
C1127 C1128 1.394 . S
C1127 C1133 1.465 . S
C1128 C1123 1.399 . S
C1128 C1127 1.394 . S
C1128 C1129 1.516 . S
C1129 C1128 1.516 . S
C1129 C1130 1.502 . S
C1129 C1131 1.561 . S
C1129 C1132 1.526 . S
C1130 H1114 0.959 . S
C1130 H1115 0.959 . S
C1130 H1116 0.961 . S
C1130 C1129 1.502 . S
C1131 H1117 0.960 . S
C1131 H1118 0.961 . S
C1131 H1119 0.959 . S
C1131 C1129 1.561 . S
C1132 C1129 1.526 . S
C1132 C1133 1.396 . S
C1132 C1137 1.390 . S
C1133 C1127 1.465 . S
C1133 C1132 1.396 . S
C1133 C1134 1.399 . S
C1134 H1120 0.929 . S
C1134 C1133 1.399 . S
C1134 C1135 1.385 . S
C1135 H1121 0.931 . S
C1135 C1134 1.385 . S
C1135 C1136 1.389 . S
C1136 C1135 1.389 . S
C1136 C1137 1.387 . S
C1137 H1122 0.930 . S
C1137 C1132 1.390 . S
C1137 C1136 1.387 . S
H1138 C1150 0.930 . S
H1139 C1152 0.930 . S
H1140 C1153 0.930 . S
H1141 C1157 0.959 . S
H1142 C1157 0.959 . S
H1143 C1157 0.961 . S
H1144 C1158 0.960 . S
H1145 C1158 0.961 . S
H1146 C1158 0.959 . S
H1147 C1161 0.929 . S
H1148 C1162 0.931 . S
H1149 C1164 0.930 . S
C1150 H1138 0.930 . S
C1150 C1151 1.399 . S
C1150 C1155 1.399 . S
C1151 C1150 1.399 . S
C1151 C1152 1.376 . S
C1152 H1139 0.930 . S
C1152 C1151 1.376 . S
C1152 C1153 1.388 . S
C1153 H1140 0.930 . S
C1153 C1152 1.388 . S
C1153 C1154 1.390 . S
C1154 C1153 1.390 . S
C1154 C1155 1.394 . S
C1154 C1160 1.465 . S
C1155 C1150 1.399 . S
C1155 C1154 1.394 . S
C1155 C1156 1.516 . S
C1156 C1155 1.516 . S
C1156 C1157 1.502 . S
C1156 C1158 1.561 . S
C1156 C1159 1.526 . S
C1157 H1141 0.959 . S
C1157 H1142 0.959 . S
C1157 H1143 0.961 . S
C1157 C1156 1.502 . S
C1158 H1144 0.960 . S
C1158 H1145 0.961 . S
C1158 H1146 0.959 . S
C1158 C1156 1.561 . S
C1159 C1156 1.526 . S
C1159 C1160 1.396 . S
C1159 C1164 1.390 . S
C1160 C1154 1.465 . S
C1160 C1159 1.396 . S
C1160 C1161 1.399 . S
C1161 H1147 0.929 . S
C1161 C1160 1.399 . S
C1161 C1162 1.385 . S
C1162 H1148 0.931 . S
C1162 C1161 1.385 . S
C1162 C1163 1.389 . S
C1163 C1162 1.389 . S
C1163 C1164 1.387 . S
C1164 H1149 0.930 . S
C1164 C1159 1.390 . S
C1164 C1163 1.387 . S
H1165 C1177 0.930 . S
H1166 C1179 0.930 . S
H1167 C1180 0.930 . S
H1168 C1184 0.959 . S
H1169 C1184 0.959 . S
H1170 C1184 0.961 . S
H1171 C1185 0.960 . S
H1172 C1185 0.961 . S
H1173 C1185 0.959 . S
H1174 C1188 0.929 . S
H1175 C1189 0.931 . S
H1176 C1191 0.930 . S
C1177 H1165 0.930 . S
C1177 C1178 1.399 . S
C1177 C1182 1.399 . S
C1178 C1177 1.399 . S
C1178 C1179 1.376 . S
C1179 H1166 0.930 . S
C1179 C1178 1.376 . S
C1179 C1180 1.388 . S
C1180 H1167 0.930 . S
C1180 C1179 1.388 . S
C1180 C1181 1.390 . S
C1181 C1180 1.390 . S
C1181 C1182 1.394 . S
C1181 C1187 1.465 . S
C1182 C1177 1.399 . S
C1182 C1181 1.394 . S
C1182 C1183 1.516 . S
C1183 C1182 1.516 . S
C1183 C1184 1.502 . S
C1183 C1185 1.561 . S
C1183 C1186 1.526 . S
C1184 H1168 0.959 . S
C1184 H1169 0.959 . S
C1184 H1170 0.961 . S
C1184 C1183 1.502 . S
C1185 H1171 0.960 . S
C1185 H1172 0.961 . S
C1185 H1173 0.959 . S
C1185 C1183 1.561 . S
C1186 C1183 1.526 . S
C1186 C1187 1.396 . S
C1186 C1191 1.390 . S
C1187 C1181 1.465 . S
C1187 C1186 1.396 . S
C1187 C1188 1.399 . S
C1188 H1174 0.929 . S
C1188 C1187 1.399 . S
C1188 C1189 1.385 . S
C1189 H1175 0.931 . S
C1189 C1188 1.385 . S
C1189 C1190 1.389 . S
C1190 C1189 1.389 . S
C1190 C1191 1.387 . S
C1191 H1176 0.930 . S
C1191 C1186 1.390 . S
C1191 C1190 1.387 . S
H1192 C1204 0.930 . S
H1193 C1206 0.930 . S
H1194 C1207 0.930 1_455 S
H1195 C1211 0.959 . S
H1196 C1211 0.959 . S
H1197 C1211 0.961 . S
H1198 C1212 0.960 . S
H1199 C1212 0.961 . S
H1200 C1212 0.959 1_455 S
H1201 C1215 0.929 . S
H1202 C1216 0.931 . S
H1203 C1218 0.930 1_655 S
C1204 H1192 0.930 . S
C1204 C1205 1.399 . S
C1204 C1209 1.399 . S
C1205 C1204 1.399 . S
C1205 C1206 1.376 . S
C1206 H1193 0.930 . S
C1206 C1205 1.376 . S
C1206 C1207 1.388 . S
C1207 H1194 0.930 1_655 S
C1207 C1206 1.388 . S
C1207 C1208 1.390 . S
C1208 C1207 1.390 . S
C1208 C1209 1.394 . S
C1208 C1214 1.439 1_655 S
C1209 C1204 1.399 . S
C1209 C1208 1.394 . S
C1209 C1210 1.516 . S
C1210 C1209 1.516 . S
C1210 C1211 1.502 . S
C1210 C1212 1.561 . S
C1210 C1213 1.526 . S
C1211 H1195 0.959 . S
C1211 H1196 0.959 . S
C1211 H1197 0.961 . S
C1211 C1210 1.502 . S
C1212 H1198 0.960 . S
C1212 H1199 0.961 . S
C1212 H1200 0.959 1_655 S
C1212 C1210 1.561 . S
C1213 C1210 1.526 . S
C1213 C1214 1.368 1_655 S
C1213 C1218 1.390 1_655 S
C1214 C1208 1.439 1_455 S
C1214 C1213 1.368 1_455 S
C1214 C1215 1.446 . S
C1215 H1201 0.929 . S
C1215 C1214 1.446 . S
C1215 C1216 1.385 . S
C1216 H1202 0.931 . S
C1216 C1215 1.385 . S
C1216 C1217 1.389 . S
C1217 C1216 1.389 . S
C1217 C1218 1.387 . S
C1218 H1203 0.930 1_455 S
C1218 C1213 1.390 1_455 S
C1218 C1217 1.387 . S
H1219 C1231 0.930 . S
H1220 C1233 0.930 . S
H1221 C1234 0.930 . S
H1222 C1238 0.959 . S
H1223 C1238 0.959 . S
H1224 C1238 0.961 . S
H1225 C1239 0.960 . S
H1226 C1239 0.961 . S
H1227 C1239 0.959 . S
H1228 C1242 0.929 . S
H1229 C1243 0.931 . S
H1230 C1245 0.930 . S
C1231 H1219 0.930 . S
C1231 C1232 1.399 . S
C1231 C1236 1.399 . S
C1232 C1231 1.399 . S
C1232 C1233 1.376 . S
C1233 H1220 0.930 . S
C1233 C1232 1.376 . S
C1233 C1234 1.388 . S
C1234 H1221 0.930 . S
C1234 C1233 1.388 . S
C1234 C1235 1.390 . S
C1235 C1234 1.390 . S
C1235 C1236 1.394 . S
C1235 C1241 1.465 . S
C1236 C1231 1.399 . S
C1236 C1235 1.394 . S
C1236 C1237 1.516 . S
C1237 C1236 1.516 . S
C1237 C1238 1.502 . S
C1237 C1239 1.561 . S
C1237 C1240 1.526 . S
C1238 H1222 0.959 . S
C1238 H1223 0.959 . S
C1238 H1224 0.961 . S
C1238 C1237 1.502 . S
C1239 H1225 0.960 . S
C1239 H1226 0.961 . S
C1239 H1227 0.959 . S
C1239 C1237 1.561 . S
C1240 C1237 1.526 . S
C1240 C1241 1.396 . S
C1240 C1245 1.390 . S
C1241 C1235 1.465 . S
C1241 C1240 1.396 . S
C1241 C1242 1.399 . S
C1242 H1228 0.929 . S
C1242 C1241 1.399 . S
C1242 C1243 1.385 . S
C1243 H1229 0.931 . S
C1243 C1242 1.385 . S
C1243 C1244 1.389 . S
C1244 C1243 1.389 . S
C1244 C1245 1.387 . S
C1245 H1230 0.930 . S
C1245 C1240 1.390 . S
C1245 C1244 1.387 . S
H1246 C1258 0.930 . S
H1247 C1260 0.930 . S
H1248 C1261 0.930 . S
H1249 C1265 0.959 . S
H1250 C1265 0.959 . S
H1251 C1265 0.961 . S
H1252 C1266 0.960 . S
H1253 C1266 0.961 . S
H1254 C1266 0.959 . S
H1255 C1269 0.929 . S
H1256 C1270 0.931 . S
H1257 C1272 0.930 . S
C1258 H1246 0.930 . S
C1258 C1259 1.399 . S
C1258 C1263 1.399 . S
C1259 C1258 1.399 . S
C1259 C1260 1.376 . S
C1260 H1247 0.930 . S
C1260 C1259 1.376 . S
C1260 C1261 1.388 . S
C1261 H1248 0.930 . S
C1261 C1260 1.388 . S
C1261 C1262 1.390 . S
C1262 C1261 1.390 . S
C1262 C1263 1.394 . S
C1262 C1268 1.465 . S
C1263 C1258 1.399 . S
C1263 C1262 1.394 . S
C1263 C1264 1.516 . S
C1264 C1263 1.516 . S
C1264 C1265 1.502 . S
C1264 C1266 1.561 . S
C1264 C1267 1.526 . S
C1265 H1249 0.959 . S
C1265 H1250 0.959 . S
C1265 H1251 0.961 . S
C1265 C1264 1.502 . S
C1266 H1252 0.960 . S
C1266 H1253 0.961 . S
C1266 H1254 0.959 . S
C1266 C1264 1.561 . S
C1267 C1264 1.526 . S
C1267 C1268 1.396 . S
C1267 C1272 1.390 . S
C1268 C1262 1.465 . S
C1268 C1267 1.396 . S
C1268 C1269 1.399 . S
C1269 H1255 0.929 . S
C1269 C1268 1.399 . S
C1269 C1270 1.385 . S
C1270 H1256 0.931 . S
C1270 C1269 1.385 . S
C1270 C1271 1.389 . S
C1271 C1270 1.389 . S
C1271 C1272 1.387 . S
C1272 H1257 0.930 . S
C1272 C1267 1.390 . S
C1272 C1271 1.387 . S
H1273 C1285 0.930 . S
H1274 C1287 0.930 . S
H1275 C1288 0.930 . S
H1276 C1292 0.959 . S
H1277 C1292 0.959 . S
H1278 C1292 0.961 . S
H1279 C1293 0.960 . S
H1280 C1293 0.961 . S
H1281 C1293 0.959 . S
H1282 C1296 0.929 . S
H1283 C1297 0.931 . S
H1284 C1299 0.930 . S
C1285 H1273 0.930 . S
C1285 C1286 1.399 . S
C1285 C1290 1.399 . S
C1286 C1285 1.399 . S
C1286 C1287 1.376 . S
C1287 H1274 0.930 . S
C1287 C1286 1.376 . S
C1287 C1288 1.388 . S
C1288 H1275 0.930 . S
C1288 C1287 1.388 . S
C1288 C1289 1.390 . S
C1289 C1288 1.390 . S
C1289 C1290 1.394 . S
C1289 C1295 1.465 . S
C1290 C1285 1.399 . S
C1290 C1289 1.394 . S
C1290 C1291 1.516 . S
C1291 C1290 1.516 . S
C1291 C1292 1.502 . S
C1291 C1293 1.561 . S
C1291 C1294 1.526 . S
C1292 H1276 0.959 . S
C1292 H1277 0.959 . S
C1292 H1278 0.961 . S
C1292 C1291 1.502 . S
C1293 H1279 0.960 . S
C1293 H1280 0.961 . S
C1293 H1281 0.959 . S
C1293 C1291 1.561 . S
C1294 C1291 1.526 . S
C1294 C1295 1.396 . S
C1294 C1299 1.390 . S
C1295 C1289 1.465 . S
C1295 C1294 1.396 . S
C1295 C1296 1.399 . S
C1296 H1282 0.929 . S
C1296 C1295 1.399 . S
C1296 C1297 1.385 . S
C1297 H1283 0.931 . S
C1297 C1296 1.385 . S
C1297 C1298 1.389 . S
C1298 C1297 1.389 . S
C1298 C1299 1.387 . S
C1299 H1284 0.930 . S
C1299 C1294 1.390 . S
C1299 C1298 1.387 . S
H1300 C1312 0.930 . S
H1301 C1314 0.930 1_565 S
H1302 C1315 0.930 1_565 S
H1303 C1319 0.959 . S
H1304 C1319 0.959 . S
H1305 C1319 0.961 . S
H1306 C1320 0.960 . S
H1307 C1320 0.961 1_455 S
H1308 C1320 0.959 . S
H1309 C1323 0.929 1_565 S
H1310 C1324 0.931 . S
H1311 C1326 0.930 . S
C1312 H1300 0.930 . S
C1312 C1313 1.399 . S
C1312 C1317 1.399 . S
C1313 C1312 1.399 . S
C1313 C1314 1.376 . S
C1314 H1301 0.930 1_545 S
C1314 C1313 1.376 . S
C1314 C1315 1.388 . S
C1315 H1302 0.930 1_545 S
C1315 C1314 1.388 . S
C1315 C1316 1.390 . S
C1316 C1315 1.390 . S
C1316 C1317 1.394 . S
C1316 C1322 1.465 . S
C1317 C1312 1.399 . S
C1317 C1316 1.394 . S
C1317 C1318 1.516 1_655 S
C1318 C1317 1.516 1_455 S
C1318 C1319 1.502 . S
C1318 C1320 1.561 1_455 S
C1318 C1321 1.526 . S
C1319 H1303 0.959 . S
C1319 H1304 0.959 . S
C1319 H1305 0.961 . S
C1319 C1318 1.502 . S
C1320 H1306 0.960 . S
C1320 H1307 0.961 1_655 S
C1320 H1308 0.959 . S
C1320 C1318 1.561 1_655 S
C1321 C1318 1.526 . S
C1321 C1322 1.396 1_455 S
C1321 C1326 1.390 . S
C1322 C1316 1.465 . S
C1322 C1321 1.396 1_655 S
C1322 C1323 1.399 . S
C1323 H1309 0.929 1_545 S
C1323 C1322 1.399 . S
C1323 C1324 1.385 1_655 S
C1324 H1310 0.931 . S
C1324 C1323 1.385 1_455 S
C1324 C1325 1.389 . S
C1325 C1324 1.389 . S
C1325 C1326 1.387 . S
C1326 H1311 0.930 . S
C1326 C1321 1.390 . S
C1326 C1325 1.387 . S
H1327 C1339 0.930 . S
H1328 C1341 0.930 . S
H1329 C1342 0.930 . S
H1330 C1346 0.959 . S
H1331 C1346 0.959 . S
H1332 C1346 0.961 . S
H1333 C1347 0.960 . S
H1334 C1347 0.961 . S
H1335 C1347 0.959 . S
H1336 C1350 0.929 . S
H1337 C1351 0.931 . S
H1338 C1353 0.930 . S
C1339 H1327 0.930 . S
C1339 C1340 1.399 . S
C1339 C1344 1.399 . S
C1340 C1339 1.399 . S
C1340 C1341 1.376 . S
C1341 H1328 0.930 . S
C1341 C1340 1.376 . S
C1341 C1342 1.388 . S
C1342 H1329 0.930 . S
C1342 C1341 1.388 . S
C1342 C1343 1.390 . S
C1343 C1342 1.390 . S
C1343 C1344 1.394 . S
C1343 C1349 1.465 . S
C1344 C1339 1.399 . S
C1344 C1343 1.394 . S
C1344 C1345 1.516 . S
C1345 C1344 1.516 . S
C1345 C1346 1.502 . S
C1345 C1347 1.561 . S
C1345 C1348 1.526 . S
C1346 H1330 0.959 . S
C1346 H1331 0.959 . S
C1346 H1332 0.961 . S
C1346 C1345 1.502 . S
C1347 H1333 0.960 . S
C1347 H1334 0.961 . S
C1347 H1335 0.959 . S
C1347 C1345 1.561 . S
C1348 C1345 1.526 . S
C1348 C1349 1.396 . S
C1348 C1353 1.390 . S
C1349 C1343 1.465 . S
C1349 C1348 1.396 . S
C1349 C1350 1.399 . S
C1350 H1336 0.929 . S
C1350 C1349 1.399 . S
C1350 C1351 1.385 . S
C1351 H1337 0.931 . S
C1351 C1350 1.385 . S
C1351 C1352 1.389 . S
C1352 C1351 1.389 . S
C1352 C1353 1.387 . S
C1353 H1338 0.930 . S
C1353 C1348 1.390 . S
C1353 C1352 1.387 . S
H1354 C1366 0.930 . S
H1355 C1368 0.930 . S
H1356 C1369 0.930 . S
H1357 C1373 0.959 . S
H1358 C1373 0.959 . S
H1359 C1373 0.961 . S
H1360 C1374 0.960 . S
H1361 C1374 0.961 . S
H1362 C1374 0.959 . S
H1363 C1377 0.929 . S
H1364 C1378 0.931 . S
H1365 C1380 0.930 . S
C1366 H1354 0.930 . S
C1366 C1367 1.399 . S
C1366 C1371 1.399 . S
C1367 C1366 1.399 . S
C1367 C1368 1.376 . S
C1368 H1355 0.930 . S
C1368 C1367 1.376 . S
C1368 C1369 1.388 . S
C1369 H1356 0.930 . S
C1369 C1368 1.388 . S
C1369 C1370 1.390 . S
C1370 C1369 1.390 . S
C1370 C1371 1.394 . S
C1370 C1376 1.465 . S
C1371 C1366 1.399 . S
C1371 C1370 1.394 . S
C1371 C1372 1.516 . S
C1372 C1371 1.516 . S
C1372 C1373 1.502 . S
C1372 C1374 1.561 . S
C1372 C1375 1.526 . S
C1373 H1357 0.959 . S
C1373 H1358 0.959 . S
C1373 H1359 0.961 . S
C1373 C1372 1.502 . S
C1374 H1360 0.960 . S
C1374 H1361 0.961 . S
C1374 H1362 0.959 . S
C1374 C1372 1.561 . S
C1375 C1372 1.526 . S
C1375 C1376 1.396 . S
C1375 C1380 1.390 . S
C1376 C1370 1.465 . S
C1376 C1375 1.396 . S
C1376 C1377 1.399 . S
C1377 H1363 0.929 . S
C1377 C1376 1.399 . S
C1377 C1378 1.385 . S
C1378 H1364 0.931 . S
C1378 C1377 1.385 . S
C1378 C1379 1.389 . S
C1379 C1378 1.389 . S
C1379 C1380 1.387 . S
C1380 H1365 0.930 . S
C1380 C1375 1.390 . S
C1380 C1379 1.387 . S
H1381 C1393 0.930 . S
H1382 C1395 0.930 . S
H1383 C1396 0.930 . S
H1384 C1400 0.959 . S
H1385 C1400 0.959 . S
H1386 C1400 0.961 . S
H1387 C1401 0.960 . S
H1388 C1401 0.961 . S
H1389 C1401 0.959 . S
H1390 C1404 0.929 . S
H1391 C1405 0.931 . S
H1392 C1407 0.930 . S
C1393 H1381 0.930 . S
C1393 C1394 1.399 . S
C1393 C1398 1.399 . S
C1394 C1393 1.399 . S
C1394 C1395 1.376 . S
C1395 H1382 0.930 . S
C1395 C1394 1.376 . S
C1395 C1396 1.388 . S
C1396 H1383 0.930 . S
C1396 C1395 1.388 . S
C1396 C1397 1.390 . S
C1397 C1396 1.390 . S
C1397 C1398 1.394 . S
C1397 C1403 1.465 . S
C1398 C1393 1.399 . S
C1398 C1397 1.394 . S
C1398 C1399 1.516 . S
C1399 C1398 1.516 . S
C1399 C1400 1.502 . S
C1399 C1401 1.561 . S
C1399 C1402 1.526 . S
C1400 H1384 0.959 . S
C1400 H1385 0.959 . S
C1400 H1386 0.961 . S
C1400 C1399 1.502 . S
C1401 H1387 0.960 . S
C1401 H1388 0.961 . S
C1401 H1389 0.959 . S
C1401 C1399 1.561 . S
C1402 C1399 1.526 . S
C1402 C1403 1.396 . S
C1402 C1407 1.390 . S
C1403 C1397 1.465 . S
C1403 C1402 1.396 . S
C1403 C1404 1.399 . S
C1404 H1390 0.929 . S
C1404 C1403 1.399 . S
C1404 C1405 1.385 . S
C1405 H1391 0.931 . S
C1405 C1404 1.385 . S
C1405 C1406 1.389 . S
C1406 C1405 1.389 . S
C1406 C1407 1.387 . S
C1407 H1392 0.930 . S
C1407 C1402 1.390 . S
C1407 C1406 1.387 . S
H1408 C1420 0.930 . S
H1409 C1422 0.930 . S
H1410 C1423 0.930 . S
H1411 C1427 0.959 . S
H1412 C1427 0.959 . S
H1413 C1427 0.961 . S
H1414 C1428 0.960 . S
H1415 C1428 0.961 . S
H1416 C1428 0.959 . S
H1417 C1431 0.929 . S
H1418 C1432 0.931 . S
H1419 C1434 0.930 . S
C1420 H1408 0.930 . S
C1420 C1421 1.399 . S
C1420 C1425 1.399 . S
C1421 C1420 1.399 . S
C1421 C1422 1.376 . S
C1422 H1409 0.930 . S
C1422 C1421 1.376 . S
C1422 C1423 1.388 . S
C1423 H1410 0.930 . S
C1423 C1422 1.388 . S
C1423 C1424 1.390 . S
C1424 C1423 1.390 . S
C1424 C1425 1.394 . S
C1424 C1430 1.465 . S
C1425 C1420 1.399 . S
C1425 C1424 1.394 . S
C1425 C1426 1.516 . S
C1426 C1425 1.516 . S
C1426 C1427 1.502 . S
C1426 C1428 1.561 . S
C1426 C1429 1.526 . S
C1427 H1411 0.959 . S
C1427 H1412 0.959 . S
C1427 H1413 0.961 . S
C1427 C1426 1.502 . S
C1428 H1414 0.960 . S
C1428 H1415 0.961 . S
C1428 H1416 0.959 . S
C1428 C1426 1.561 . S
C1429 C1426 1.526 . S
C1429 C1430 1.396 . S
C1429 C1434 1.390 . S
C1430 C1424 1.465 . S
C1430 C1429 1.396 . S
C1430 C1431 1.399 1_565 S
C1431 H1417 0.929 . S
C1431 C1430 1.399 1_545 S
C1431 C1432 1.385 . S
C1432 H1418 0.931 . S
C1432 C1431 1.385 . S
C1432 C1433 1.389 . S
C1433 C1432 1.389 . S
C1433 C1434 1.387 1_545 S
C1434 H1419 0.930 . S
C1434 C1429 1.390 . S
C1434 C1433 1.387 1_565 S
H1435 C1447 0.930 . S
H1436 C1449 0.930 . S
H1437 C1450 0.930 . S
H1438 C1454 0.959 . S
H1439 C1454 0.959 . S
H1440 C1454 0.961 . S
H1441 C1455 0.960 . S
H1442 C1455 0.961 . S
H1443 C1455 0.959 . S
H1444 C1458 0.929 . S
H1445 C1459 0.931 . S
H1446 C1461 0.930 . S
C1447 H1435 0.930 . S
C1447 C1448 1.399 . S
C1447 C1452 1.399 . S
C1448 C1447 1.399 . S
C1448 C1449 1.376 . S
C1449 H1436 0.930 . S
C1449 C1448 1.376 . S
C1449 C1450 1.388 . S
C1450 H1437 0.930 . S
C1450 C1449 1.388 . S
C1450 C1451 1.390 . S
C1451 C1450 1.390 . S
C1451 C1452 1.394 . S
C1451 C1457 1.465 . S
C1452 C1447 1.399 . S
C1452 C1451 1.394 . S
C1452 C1453 1.516 . S
C1453 C1452 1.516 . S
C1453 C1454 1.502 . S
C1453 C1455 1.561 . S
C1453 C1456 1.526 . S
C1454 H1438 0.959 . S
C1454 H1439 0.959 . S
C1454 H1440 0.961 . S
C1454 C1453 1.502 . S
C1455 H1441 0.960 . S
C1455 H1442 0.961 . S
C1455 H1443 0.959 . S
C1455 C1453 1.561 . S
C1456 C1453 1.526 . S
C1456 C1457 1.396 . S
C1456 C1461 1.390 . S
C1457 C1451 1.465 . S
C1457 C1456 1.396 . S
C1457 C1458 1.399 . S
C1458 H1444 0.929 . S
C1458 C1457 1.399 . S
C1458 C1459 1.385 . S
C1459 H1445 0.931 . S
C1459 C1458 1.385 . S
C1459 C1460 1.389 . S
C1460 C1459 1.389 . S
C1460 C1461 1.387 . S
C1461 H1446 0.930 . S
C1461 C1456 1.390 . S
C1461 C1460 1.387 . S
H1462 C1474 0.930 . S
H1463 C1476 0.930 . S
H1464 C1477 0.930 . S
H1465 C1481 0.959 . S
H1466 C1481 0.959 . S
H1467 C1481 0.961 . S
H1468 C1482 0.960 . S
H1469 C1482 0.961 . S
H1470 C1482 0.959 . S
H1471 C1485 0.929 . S
H1472 C1486 0.931 . S
H1473 C1488 0.930 . S
C1474 H1462 0.930 . S
C1474 C1475 1.399 . S
C1474 C1479 1.399 . S
C1475 C1474 1.399 . S
C1475 C1476 1.376 . S
C1476 H1463 0.930 . S
C1476 C1475 1.376 . S
C1476 C1477 1.388 . S
C1477 H1464 0.930 . S
C1477 C1476 1.388 . S
C1477 C1478 1.390 . S
C1478 C1477 1.390 . S
C1478 C1479 1.394 . S
C1478 C1484 1.465 . S
C1479 C1474 1.399 . S
C1479 C1478 1.394 . S
C1479 C1480 1.516 . S
C1480 C1479 1.516 . S
C1480 C1481 1.502 . S
C1480 C1482 1.561 . S
C1480 C1483 1.526 . S
C1481 H1465 0.959 . S
C1481 H1466 0.959 . S
C1481 H1467 0.961 . S
C1481 C1480 1.502 . S
C1482 H1468 0.960 . S
C1482 H1469 0.961 . S
C1482 H1470 0.959 . S
C1482 C1480 1.561 . S
C1483 C1480 1.526 . S
C1483 C1484 1.396 . S
C1483 C1488 1.390 . S
C1484 C1478 1.465 . S
C1484 C1483 1.396 . S
C1484 C1485 1.399 . S
C1485 H1471 0.929 . S
C1485 C1484 1.399 . S
C1485 C1486 1.385 . S
C1486 H1472 0.931 . S
C1486 C1485 1.385 . S
C1486 C1487 1.389 . S
C1487 C1486 1.389 . S
C1487 C1488 1.387 . S
C1488 H1473 0.930 . S
C1488 C1483 1.390 . S
C1488 C1487 1.387 . S
H1489 C1501 0.930 . S
H1490 C1503 0.930 . S
H1491 C1504 0.930 . S
H1492 C1508 0.959 . S
H1493 C1508 0.959 . S
H1494 C1508 0.961 . S
H1495 C1509 0.960 . S
H1496 C1509 0.961 . S
H1497 C1509 0.959 . S
H1498 C1512 0.929 . S
H1499 C1513 0.931 . S
H1500 C1515 0.930 . S
C1501 H1489 0.930 . S
C1501 C1502 1.399 . S
C1501 C1506 1.399 . S
C1502 C1501 1.399 . S
C1502 C1503 1.376 . S
C1503 H1490 0.930 . S
C1503 C1502 1.376 . S
C1503 C1504 1.388 . S
C1504 H1491 0.930 . S
C1504 C1503 1.388 . S
C1504 C1505 1.390 . S
C1505 C1504 1.390 . S
C1505 C1506 1.394 . S
C1505 C1511 1.465 . S
C1506 C1501 1.399 . S
C1506 C1505 1.394 . S
C1506 C1507 1.516 . S
C1507 C1506 1.516 . S
C1507 C1508 1.502 . S
C1507 C1509 1.561 . S
C1507 C1510 1.526 . S
C1508 H1492 0.959 . S
C1508 H1493 0.959 . S
C1508 H1494 0.961 . S
C1508 C1507 1.502 . S
C1509 H1495 0.960 . S
C1509 H1496 0.961 . S
C1509 H1497 0.959 . S
C1509 C1507 1.561 . S
C1510 C1507 1.526 . S
C1510 C1511 1.396 . S
C1510 C1515 1.390 . S
C1511 C1505 1.465 . S
C1511 C1510 1.396 . S
C1511 C1512 1.399 . S
C1512 H1498 0.929 . S
C1512 C1511 1.399 . S
C1512 C1513 1.385 . S
C1513 H1499 0.931 . S
C1513 C1512 1.385 . S
C1513 C1514 1.389 . S
C1514 C1513 1.389 . S
C1514 C1515 1.387 . S
C1515 H1500 0.930 . S
C1515 C1510 1.390 . S
C1515 C1514 1.387 . S
H1516 C1528 0.930 . S
H1517 C1530 0.930 . S
H1518 C1531 0.930 . S
H1519 C1535 0.959 . S
H1520 C1535 0.959 . S
H1521 C1535 0.961 . S
H1522 C1536 0.960 . S
H1523 C1536 0.961 . S
H1524 C1536 0.959 . S
H1525 C1539 0.929 . S
H1526 C1540 0.931 . S
H1527 C1542 0.930 . S
C1528 H1516 0.930 . S
C1528 C1529 1.399 . S
C1528 C1533 1.399 . S
C1529 C1528 1.399 . S
C1529 C1530 1.376 . S
C1530 H1517 0.930 . S
C1530 C1529 1.376 . S
C1530 C1531 1.388 . S
C1531 H1518 0.930 . S
C1531 C1530 1.388 . S
C1531 C1532 1.390 . S
C1532 C1531 1.390 . S
C1532 C1533 1.394 . S
C1532 C1538 1.465 . S
C1533 C1528 1.399 . S
C1533 C1532 1.394 . S
C1533 C1534 1.516 . S
C1534 C1533 1.516 . S
C1534 C1535 1.502 . S
C1534 C1536 1.561 . S
C1534 C1537 1.526 . S
C1535 H1519 0.959 . S
C1535 H1520 0.959 . S
C1535 H1521 0.961 . S
C1535 C1534 1.502 . S
C1536 H1522 0.960 . S
C1536 H1523 0.961 . S
C1536 H1524 0.959 . S
C1536 C1534 1.561 . S
C1537 C1534 1.526 . S
C1537 C1538 1.396 . S
C1537 C1542 1.390 . S
C1538 C1532 1.465 . S
C1538 C1537 1.396 . S
C1538 C1539 1.399 . S
C1539 H1525 0.929 . S
C1539 C1538 1.399 . S
C1539 C1540 1.385 . S
C1540 H1526 0.931 . S
C1540 C1539 1.385 . S
C1540 C1541 1.389 . S
C1541 C1540 1.389 . S
C1541 C1542 1.387 . S
C1542 H1527 0.930 . S
C1542 C1537 1.390 . S
C1542 C1541 1.387 . S
H1543 C1555 0.930 . S
H1544 C1557 0.930 . S
H1545 C1558 0.930 . S
H1546 C1562 0.959 . S
H1547 C1562 0.959 . S
H1548 C1562 0.961 . S
H1549 C1563 0.960 . S
H1550 C1563 0.961 . S
H1551 C1563 0.959 . S
H1552 C1566 0.929 . S
H1553 C1567 0.931 . S
H1554 C1569 0.930 . S
C1555 H1543 0.930 . S
C1555 C1556 1.399 . S
C1555 C1560 1.399 . S
C1556 C1555 1.399 . S
C1556 C1557 1.376 . S
C1557 H1544 0.930 . S
C1557 C1556 1.376 . S
C1557 C1558 1.388 . S
C1558 H1545 0.930 . S
C1558 C1557 1.388 . S
C1558 C1559 1.390 . S
C1559 C1558 1.390 . S
C1559 C1560 1.394 . S
C1559 C1565 1.465 . S
C1560 C1555 1.399 . S
C1560 C1559 1.394 . S
C1560 C1561 1.516 . S
C1561 C1560 1.516 . S
C1561 C1562 1.502 . S
C1561 C1563 1.561 . S
C1561 C1564 1.526 . S
C1562 H1546 0.959 . S
C1562 H1547 0.959 . S
C1562 H1548 0.961 . S
C1562 C1561 1.502 . S
C1563 H1549 0.960 . S
C1563 H1550 0.961 . S
C1563 H1551 0.959 . S
C1563 C1561 1.561 . S
C1564 C1561 1.526 . S
C1564 C1565 1.396 . S
C1564 C1569 1.390 . S
C1565 C1559 1.465 . S
C1565 C1564 1.396 . S
C1565 C1566 1.399 . S
C1566 H1552 0.929 . S
C1566 C1565 1.399 . S
C1566 C1567 1.385 . S
C1567 H1553 0.931 . S
C1567 C1566 1.385 . S
C1567 C1568 1.389 . S
C1568 C1567 1.389 . S
C1568 C1569 1.387 . S
C1569 H1554 0.930 . S
C1569 C1564 1.390 . S
C1569 C1568 1.387 . S
H1570 C1582 0.930 . S
H1571 C1584 0.930 . S
H1572 C1585 0.930 . S
H1573 C1589 0.959 . S
H1574 C1589 0.959 . S
H1575 C1589 0.961 . S
H1576 C1590 0.960 . S
H1577 C1590 0.961 . S
H1578 C1590 0.959 . S
H1579 C1593 0.929 . S
H1580 C1594 0.931 . S
H1581 C1596 0.930 . S
C1582 H1570 0.930 . S
C1582 C1583 1.399 . S
C1582 C1587 1.399 . S
C1583 C1582 1.399 . S
C1583 C1584 1.376 . S
C1584 H1571 0.930 . S
C1584 C1583 1.376 . S
C1584 C1585 1.388 . S
C1585 H1572 0.930 . S
C1585 C1584 1.388 . S
C1585 C1586 1.390 . S
C1586 C1585 1.390 . S
C1586 C1587 1.394 . S
C1586 C1592 1.465 . S
C1587 C1582 1.399 . S
C1587 C1586 1.394 . S
C1587 C1588 1.516 . S
C1588 C1587 1.516 . S
C1588 C1589 1.502 . S
C1588 C1590 1.561 . S
C1588 C1591 1.526 . S
C1589 H1573 0.959 . S
C1589 H1574 0.959 . S
C1589 H1575 0.961 . S
C1589 C1588 1.502 . S
C1590 H1576 0.960 . S
C1590 H1577 0.961 . S
C1590 H1578 0.959 . S
C1590 C1588 1.561 . S
C1591 C1588 1.526 . S
C1591 C1592 1.396 . S
C1591 C1596 1.390 . S
C1592 C1586 1.465 . S
C1592 C1591 1.396 . S
C1592 C1593 1.399 . S
C1593 H1579 0.929 . S
C1593 C1592 1.399 . S
C1593 C1594 1.385 . S
C1594 H1580 0.931 . S
C1594 C1593 1.385 . S
C1594 C1595 1.389 . S
C1595 C1594 1.389 . S
C1595 C1596 1.387 . S
C1596 H1581 0.930 . S
C1596 C1591 1.390 . S
C1596 C1595 1.387 . S
H1597 C1609 0.930 . S
H1598 C1611 0.930 . S
H1599 C1612 0.930 . S
H1600 C1616 0.959 . S
H1601 C1616 0.959 . S
H1602 C1616 0.961 . S
H1603 C1617 0.960 . S
H1604 C1617 0.961 . S
H1605 C1617 0.959 . S
H1606 C1620 0.929 . S
H1607 C1621 0.931 . S
H1608 C1623 0.930 . S
C1609 H1597 0.930 . S
C1609 C1610 1.399 . S
C1609 C1614 1.399 . S
C1610 C1609 1.399 . S
C1610 C1611 1.376 . S
C1611 H1598 0.930 . S
C1611 C1610 1.376 . S
C1611 C1612 1.388 . S
C1612 H1599 0.930 . S
C1612 C1611 1.388 . S
C1612 C1613 1.390 . S
C1613 C1612 1.390 . S
C1613 C1614 1.394 . S
C1613 C1619 1.465 . S
C1614 C1609 1.399 . S
C1614 C1613 1.394 . S
C1614 C1615 1.516 . S
C1615 C1614 1.516 . S
C1615 C1616 1.502 . S
C1615 C1617 1.561 . S
C1615 C1618 1.526 . S
C1616 H1600 0.959 . S
C1616 H1601 0.959 . S
C1616 H1602 0.961 . S
C1616 C1615 1.502 . S
C1617 H1603 0.960 . S
C1617 H1604 0.961 . S
C1617 H1605 0.959 . S
C1617 C1615 1.561 . S
C1618 C1615 1.526 . S
C1618 C1619 1.396 . S
C1618 C1623 1.390 . S
C1619 C1613 1.465 . S
C1619 C1618 1.396 . S
C1619 C1620 1.399 . S
C1620 H1606 0.929 . S
C1620 C1619 1.399 . S
C1620 C1621 1.385 . S
C1621 H1607 0.931 . S
C1621 C1620 1.385 . S
C1621 C1622 1.389 . S
C1622 C1621 1.389 . S
C1622 C1623 1.387 . S
C1623 H1608 0.930 . S
C1623 C1618 1.390 . S
C1623 C1622 1.387 . S
H1624 C1636 0.930 . S
H1625 C1638 0.930 . S
H1626 C1639 0.930 . S
H1627 C1643 0.959 . S
H1628 C1643 0.959 . S
H1629 C1643 0.961 . S
H1630 C1644 0.960 . S
H1631 C1644 0.961 . S
H1632 C1644 0.959 . S
H1633 C1647 0.929 . S
H1634 C1648 0.931 . S
H1635 C1650 0.930 . S
C1636 H1624 0.930 . S
C1636 C1637 1.399 . S
C1636 C1641 1.399 . S
C1637 C1636 1.399 . S
C1637 C1638 1.376 . S
C1638 H1625 0.930 . S
C1638 C1637 1.376 . S
C1638 C1639 1.388 . S
C1639 H1626 0.930 . S
C1639 C1638 1.388 . S
C1639 C1640 1.390 . S
C1640 C1639 1.390 . S
C1640 C1641 1.394 . S
C1640 C1646 1.465 . S
C1641 C1636 1.399 . S
C1641 C1640 1.394 . S
C1641 C1642 1.516 . S
C1642 C1641 1.516 . S
C1642 C1643 1.502 . S
C1642 C1644 1.561 . S
C1642 C1645 1.526 . S
C1643 H1627 0.959 . S
C1643 H1628 0.959 . S
C1643 H1629 0.961 . S
C1643 C1642 1.502 . S
C1644 H1630 0.960 . S
C1644 H1631 0.961 . S
C1644 H1632 0.959 . S
C1644 C1642 1.561 . S
C1645 C1642 1.526 . S
C1645 C1646 1.396 . S
C1645 C1650 1.390 . S
C1646 C1640 1.465 . S
C1646 C1645 1.396 . S
C1646 C1647 1.399 . S
C1647 H1633 0.929 . S
C1647 C1646 1.399 . S
C1647 C1648 1.385 . S
C1648 H1634 0.931 . S
C1648 C1647 1.385 . S
C1648 C1649 1.389 . S
C1649 C1648 1.389 . S
C1649 C1650 1.387 . S
C1650 H1635 0.930 . S
C1650 C1645 1.390 . S
C1650 C1649 1.387 . S
H1651 C1663 0.930 . S
H1652 C1665 0.930 . S
H1653 C1666 0.930 . S
H1654 C1670 0.959 . S
H1655 C1670 0.959 . S
H1656 C1670 0.961 . S
H1657 C1671 0.960 . S
H1658 C1671 0.961 . S
H1659 C1671 0.959 . S
H1660 C1674 0.929 . S
H1661 C1675 0.931 . S
H1662 C1677 0.930 . S
C1663 H1651 0.930 . S
C1663 C1664 1.399 . S
C1663 C1668 1.399 . S
C1664 C1663 1.399 . S
C1664 C1665 1.376 . S
C1665 H1652 0.930 . S
C1665 C1664 1.376 . S
C1665 C1666 1.388 . S
C1666 H1653 0.930 . S
C1666 C1665 1.388 . S
C1666 C1667 1.390 . S
C1667 C1666 1.390 . S
C1667 C1668 1.394 . S
C1667 C1673 1.465 . S
C1668 C1663 1.399 . S
C1668 C1667 1.394 . S
C1668 C1669 1.516 . S
C1669 C1668 1.516 . S
C1669 C1670 1.502 . S
C1669 C1671 1.561 . S
C1669 C1672 1.526 . S
C1670 H1654 0.959 . S
C1670 H1655 0.959 . S
C1670 H1656 0.961 . S
C1670 C1669 1.502 . S
C1671 H1657 0.960 . S
C1671 H1658 0.961 . S
C1671 H1659 0.959 . S
C1671 C1669 1.561 . S
C1672 C1669 1.526 . S
C1672 C1673 1.396 . S
C1672 C1677 1.390 . S
C1673 C1667 1.465 . S
C1673 C1672 1.396 . S
C1673 C1674 1.399 . S
C1674 H1660 0.929 . S
C1674 C1673 1.399 . S
C1674 C1675 1.385 . S
C1675 H1661 0.931 . S
C1675 C1674 1.385 . S
C1675 C1676 1.389 . S
C1676 C1675 1.389 . S
C1676 C1677 1.387 . S
C1677 H1662 0.930 . S
C1677 C1672 1.390 . S
C1677 C1676 1.387 . S
H1678 C1690 0.930 . S
H1679 C1692 0.930 . S
H1680 C1693 0.930 . S
H1681 C1697 0.959 . S
H1682 C1697 0.959 . S
H1683 C1697 0.961 . S
H1684 C1698 0.960 . S
H1685 C1698 0.961 . S
H1686 C1698 0.959 . S
H1687 C1701 0.929 . S
H1688 C1702 0.931 . S
H1689 C1704 0.930 . S
C1690 H1678 0.930 . S
C1690 C1691 1.399 . S
C1690 C1695 1.399 . S
C1691 C1690 1.399 . S
C1691 C1692 1.376 . S
C1692 H1679 0.930 . S
C1692 C1691 1.376 . S
C1692 C1693 1.388 . S
C1693 H1680 0.930 . S
C1693 C1692 1.388 . S
C1693 C1694 1.390 . S
C1694 C1693 1.390 . S
C1694 C1695 1.394 . S
C1694 C1700 1.465 . S
C1695 C1690 1.399 . S
C1695 C1694 1.394 . S
C1695 C1696 1.516 . S
C1696 C1695 1.516 . S
C1696 C1697 1.502 . S
C1696 C1698 1.561 . S
C1696 C1699 1.526 . S
C1697 H1681 0.959 . S
C1697 H1682 0.959 . S
C1697 H1683 0.961 . S
C1697 C1696 1.502 . S
C1698 H1684 0.960 . S
C1698 H1685 0.961 . S
C1698 H1686 0.959 . S
C1698 C1696 1.561 . S
C1699 C1696 1.526 . S
C1699 C1700 1.396 . S
C1699 C1704 1.390 . S
C1700 C1694 1.465 . S
C1700 C1699 1.396 . S
C1700 C1701 1.399 . S
C1701 H1687 0.929 . S
C1701 C1700 1.399 . S
C1701 C1702 1.385 . S
C1702 H1688 0.931 . S
C1702 C1701 1.385 . S
C1702 C1703 1.389 . S
C1703 C1702 1.389 . S
C1703 C1704 1.387 . S
C1704 H1689 0.930 . S
C1704 C1699 1.390 . S
C1704 C1703 1.387 . S
H1705 C1717 0.930 . S
H1706 C1719 0.930 . S
H1707 C1720 0.930 . S
H1708 C1724 0.959 . S
H1709 C1724 0.959 . S
H1710 C1724 0.961 . S
H1711 C1725 0.960 . S
H1712 C1725 0.961 . S
H1713 C1725 0.959 . S
H1714 C1728 0.929 . S
H1715 C1729 0.931 . S
H1716 C1731 0.930 . S
C1717 H1705 0.930 . S
C1717 C1718 1.399 . S
C1717 C1722 1.399 . S
C1718 C1717 1.399 . S
C1718 C1719 1.376 . S
C1719 H1706 0.930 . S
C1719 C1718 1.376 . S
C1719 C1720 1.388 . S
C1720 H1707 0.930 . S
C1720 C1719 1.388 . S
C1720 C1721 1.390 . S
C1721 C1720 1.390 . S
C1721 C1722 1.394 . S
C1721 C1727 1.465 . S
C1722 C1717 1.399 . S
C1722 C1721 1.394 . S
C1722 C1723 1.516 . S
C1723 C1722 1.516 . S
C1723 C1724 1.502 . S
C1723 C1725 1.561 . S
C1723 C1726 1.526 . S
C1724 H1708 0.959 . S
C1724 H1709 0.959 . S
C1724 H1710 0.961 . S
C1724 C1723 1.502 . S
C1725 H1711 0.960 . S
C1725 H1712 0.961 . S
C1725 H1713 0.959 . S
C1725 C1723 1.561 . S
C1726 C1723 1.526 . S
C1726 C1727 1.396 . S
C1726 C1731 1.390 . S
C1727 C1721 1.465 . S
C1727 C1726 1.396 . S
C1727 C1728 1.399 . S
C1728 H1714 0.929 . S
C1728 C1727 1.399 . S
C1728 C1729 1.385 . S
C1729 H1715 0.931 . S
C1729 C1728 1.385 . S
C1729 C1730 1.389 . S
C1730 C1729 1.389 . S
C1730 C1731 1.387 . S
C1731 H1716 0.930 . S
C1731 C1726 1.390 . S
C1731 C1730 1.387 . S
H1732 C1744 0.930 . S
H1733 C1746 0.930 . S
H1734 C1747 0.930 . S
H1735 C1751 0.959 . S
H1736 C1751 0.959 . S
H1737 C1751 0.961 . S
H1738 C1752 0.960 . S
H1739 C1752 0.961 . S
H1740 C1752 0.959 1_655 S
H1741 C1755 0.937 . S
H1742 C1756 0.931 . S
H1743 C1758 0.930 . S
C1744 H1732 0.930 . S
C1744 C1745 1.399 . S
C1744 C1749 1.399 . S
C1745 C1744 1.399 . S
C1745 C1746 1.376 . S
C1746 H1733 0.930 . S
C1746 C1745 1.376 . S
C1746 C1747 1.388 . S
C1747 H1734 0.930 . S
C1747 C1746 1.388 . S
C1747 C1748 1.390 . S
C1748 C1747 1.390 . S
C1748 C1749 1.394 . S
C1748 C1754 1.465 . S
C1749 C1744 1.399 . S
C1749 C1748 1.394 . S
C1749 C1750 1.516 . S
C1750 C1749 1.516 . S
C1750 C1751 1.502 . S
C1750 C1752 1.561 . S
C1750 C1753 1.526 . S
C1751 H1735 0.959 . S
C1751 H1736 0.959 . S
C1751 H1737 0.961 . S
C1751 C1750 1.502 . S
C1752 H1738 0.960 . S
C1752 H1739 0.961 . S
C1752 H1740 0.959 1_455 S
C1752 C1750 1.561 . S
C1753 C1750 1.526 . S
C1753 C1754 1.396 . S
C1753 C1758 1.390 . S
C1754 C1748 1.465 . S
C1754 C1753 1.396 . S
C1754 C1755 1.399 . S
C1755 H1741 0.937 . S
C1755 C1754 1.399 . S
C1755 C1756 1.385 . S
C1756 H1742 0.931 . S
C1756 C1755 1.385 . S
C1756 C1757 1.389 . S
C1757 C1756 1.389 . S
C1757 C1758 1.387 . S
C1758 H1743 0.930 . S
C1758 C1753 1.390 . S
C1758 C1757 1.387 . S
H1759 C1771 0.930 . S
H1760 C1773 0.930 . S
H1761 C1774 0.930 . S
H1762 C1778 0.959 . S
H1763 C1778 0.959 . S
H1764 C1778 0.961 . S
H1765 C1779 0.960 . S
H1766 C1779 0.961 . S
H1767 C1779 0.959 . S
H1768 C1782 0.929 . S
H1769 C1783 0.931 . S
H1770 C1785 0.930 . S
C1771 H1759 0.930 . S
C1771 C1772 1.399 . S
C1771 C1776 1.399 . S
C1772 C1771 1.399 . S
C1772 C1773 1.376 . S
C1773 H1760 0.930 . S
C1773 C1772 1.376 . S
C1773 C1774 1.388 . S
C1774 H1761 0.930 . S
C1774 C1773 1.388 . S
C1774 C1775 1.390 . S
C1775 C1774 1.390 . S
C1775 C1776 1.394 . S
C1775 C1781 1.465 . S
C1776 C1771 1.399 . S
C1776 C1775 1.394 . S
C1776 C1777 1.516 . S
C1777 C1776 1.516 . S
C1777 C1778 1.502 . S
C1777 C1779 1.561 . S
C1777 C1780 1.526 . S
C1778 H1762 0.959 . S
C1778 H1763 0.959 . S
C1778 H1764 0.961 . S
C1778 C1777 1.502 . S
C1779 H1765 0.960 . S
C1779 H1766 0.961 . S
C1779 H1767 0.959 . S
C1779 C1777 1.561 . S
C1780 C1777 1.526 . S
C1780 C1781 1.396 . S
C1780 C1785 1.390 . S
C1781 C1775 1.465 . S
C1781 C1780 1.396 . S
C1781 C1782 1.399 . S
C1782 H1768 0.929 . S
C1782 C1781 1.399 . S
C1782 C1783 1.385 . S
C1783 H1769 0.931 . S
C1783 C1782 1.385 . S
C1783 C1784 1.389 . S
C1784 C1783 1.389 . S
C1784 C1785 1.387 . S
C1785 H1770 0.930 . S
C1785 C1780 1.390 . S
C1785 C1784 1.387 . S
H1786 C1798 0.930 . S
H1787 C1800 0.930 . S
H1788 C1801 0.930 . S
H1789 C1805 0.959 . S
H1790 C1805 0.959 . S
H1791 C1805 0.961 . S
H1792 C1806 0.960 . S
H1793 C1806 0.961 . S
H1794 C1806 0.959 . S
H1795 C1809 0.929 1_554 S
H1796 C1810 0.931 . S
H1797 C1812 0.930 . S
C1798 H1786 0.930 . S
C1798 C1799 1.399 . S
C1798 C1803 1.399 . S
C1799 C1798 1.399 . S
C1799 C1800 1.376 . S
C1800 H1787 0.930 . S
C1800 C1799 1.376 . S
C1800 C1801 1.388 . S
C1801 H1788 0.930 . S
C1801 C1800 1.388 . S
C1801 C1802 1.390 . S
C1802 C1801 1.390 . S
C1802 C1803 1.394 . S
C1802 C1808 1.465 . S
C1803 C1798 1.399 . S
C1803 C1802 1.394 . S
C1803 C1804 1.516 . S
C1804 C1803 1.516 . S
C1804 C1805 1.502 . S
C1804 C1806 1.561 . S
C1804 C1807 1.526 . S
C1805 H1789 0.959 . S
C1805 H1790 0.959 . S
C1805 H1791 0.961 . S
C1805 C1804 1.502 . S
C1806 H1792 0.960 . S
C1806 H1793 0.961 . S
C1806 H1794 0.959 . S
C1806 C1804 1.561 . S
C1807 C1804 1.526 . S
C1807 C1808 1.396 . S
C1807 C1812 1.390 . S
C1808 C1802 1.465 . S
C1808 C1807 1.396 . S
C1808 C1809 1.399 . S
C1809 H1795 0.929 1_556 S
C1809 C1808 1.399 . S
C1809 C1810 1.385 1_556 S
C1810 H1796 0.931 . S
C1810 C1809 1.385 1_554 S
C1810 C1811 1.389 . S
C1811 C1810 1.389 . S
C1811 C1812 1.387 1_554 S
C1812 H1797 0.930 . S
C1812 C1807 1.390 . S
C1812 C1811 1.387 1_556 S
H1813 C1825 0.930 . S
H1814 C1827 0.930 . S
H1815 C1828 0.930 . S
H1816 C1832 0.959 . S
H1817 C1832 0.959 . S
H1818 C1832 0.961 . S
H1819 C1833 0.960 . S
H1820 C1833 0.961 . S
H1821 C1833 0.959 . S
H1822 C1836 0.929 . S
H1823 C1837 0.931 . S
H1824 C1839 0.930 . S
C1825 H1813 0.930 . S
C1825 C1826 1.399 . S
C1825 C1830 1.399 . S
C1826 C1825 1.399 . S
C1826 C1827 1.376 . S
C1827 H1814 0.930 . S
C1827 C1826 1.376 . S
C1827 C1828 1.388 . S
C1828 H1815 0.930 . S
C1828 C1827 1.388 . S
C1828 C1829 1.390 . S
C1829 C1828 1.390 . S
C1829 C1830 1.394 . S
C1829 C1835 1.465 . S
C1830 C1825 1.399 . S
C1830 C1829 1.394 . S
C1830 C1831 1.516 . S
C1831 C1830 1.516 . S
C1831 C1832 1.502 . S
C1831 C1833 1.561 . S
C1831 C1834 1.526 . S
C1832 H1816 0.959 . S
C1832 H1817 0.959 . S
C1832 H1818 0.961 . S
C1832 C1831 1.502 . S
C1833 H1819 0.960 . S
C1833 H1820 0.961 . S
C1833 H1821 0.959 . S
C1833 C1831 1.561 . S
C1834 C1831 1.526 . S
C1834 C1835 1.396 . S
C1834 C1839 1.390 . S
C1835 C1829 1.465 . S
C1835 C1834 1.396 . S
C1835 C1836 1.399 . S
C1836 H1822 0.929 . S
C1836 C1835 1.399 . S
C1836 C1837 1.385 . S
C1837 H1823 0.931 . S
C1837 C1836 1.385 . S
C1837 C1838 1.389 . S
C1838 C1837 1.389 . S
C1838 C1839 1.387 . S
C1839 H1824 0.930 . S
C1839 C1834 1.390 . S
C1839 C1838 1.387 . S
H1840 C1852 0.930 . S
H1841 C1854 0.930 . S
H1842 C1855 0.930 . S
H1843 C1859 0.959 . S
H1844 C1859 0.959 . S
H1845 C1859 0.961 . S
H1846 C1860 0.960 . S
H1847 C1860 0.961 . S
H1848 C1860 0.959 . S
H1849 C1863 0.924 1_565 S
H1850 C1864 0.931 . S
H1851 C1866 0.930 . S
C1852 H1840 0.930 . S
C1852 C1853 1.399 . S
C1852 C1857 1.399 . S
C1853 C1852 1.399 . S
C1853 C1854 1.376 . S
C1854 H1841 0.930 . S
C1854 C1853 1.376 . S
C1854 C1855 1.388 . S
C1855 H1842 0.930 . S
C1855 C1854 1.388 . S
C1855 C1856 1.390 . S
C1856 C1855 1.390 . S
C1856 C1857 1.394 . S
C1856 C1862 1.465 . S
C1857 C1852 1.399 . S
C1857 C1856 1.394 . S
C1857 C1858 1.516 . S
C1858 C1857 1.516 . S
C1858 C1859 1.502 . S
C1858 C1860 1.561 . S
C1858 C1861 1.526 . S
C1859 H1843 0.959 . S
C1859 H1844 0.959 . S
C1859 H1845 0.961 . S
C1859 C1858 1.502 . S
C1860 H1846 0.960 . S
C1860 H1847 0.961 . S
C1860 H1848 0.959 . S
C1860 C1858 1.561 . S
C1861 C1858 1.526 . S
C1861 C1862 1.396 . S
C1861 C1866 1.390 . S
C1862 C1856 1.465 . S
C1862 C1861 1.396 . S
C1862 C1863 1.399 . S
C1863 H1849 0.924 1_545 S
C1863 C1862 1.399 . S
C1863 C1864 1.385 . S
C1864 H1850 0.931 . S
C1864 C1863 1.385 . S
C1864 C1865 1.389 . S
C1865 C1864 1.389 . S
C1865 C1866 1.387 . S
C1866 H1851 0.930 . S
C1866 C1861 1.390 . S
C1866 C1865 1.387 . S
H1867 C1879 0.930 . S
H1868 C1881 0.930 . S
H1869 C1882 0.930 . S
H1870 C1886 0.959 . S
H1871 C1886 0.959 . S
H1872 C1886 0.961 . S
H1873 C1887 0.960 . S
H1874 C1887 0.961 . S
H1875 C1887 0.959 . S
H1876 C1890 0.929 . S
H1877 C1891 0.931 . S
H1878 C1893 0.930 . S
C1879 H1867 0.930 . S
C1879 C1880 1.399 . S
C1879 C1884 1.399 . S
C1880 C1879 1.399 . S
C1880 C1881 1.376 . S
C1881 H1868 0.930 . S
C1881 C1880 1.376 . S
C1881 C1882 1.388 . S
C1882 H1869 0.930 . S
C1882 C1881 1.388 . S
C1882 C1883 1.390 . S
C1883 C1882 1.390 . S
C1883 C1884 1.394 . S
C1883 C1889 1.465 . S
C1884 C1879 1.399 . S
C1884 C1883 1.394 . S
C1884 C1885 1.516 . S
C1885 C1884 1.516 . S
C1885 C1886 1.502 . S
C1885 C1887 1.561 . S
C1885 C1888 1.526 . S
C1886 H1870 0.959 . S
C1886 H1871 0.959 . S
C1886 H1872 0.961 . S
C1886 C1885 1.502 . S
C1887 H1873 0.960 . S
C1887 H1874 0.961 . S
C1887 H1875 0.959 . S
C1887 C1885 1.561 . S
C1888 C1885 1.526 . S
C1888 C1889 1.396 . S
C1888 C1893 1.390 . S
C1889 C1883 1.465 . S
C1889 C1888 1.396 . S
C1889 C1890 1.399 . S
C1890 H1876 0.929 . S
C1890 C1889 1.399 . S
C1890 C1891 1.385 . S
C1891 H1877 0.931 . S
C1891 C1890 1.385 . S
C1891 C1892 1.389 . S
C1892 C1891 1.389 . S
C1892 C1893 1.387 . S
C1893 H1878 0.930 . S
C1893 C1888 1.390 . S
C1893 C1892 1.387 . S
H1894 C1906 0.930 . S
H1895 C1908 0.930 . S
H1896 C1909 0.930 . S
H1897 C1913 0.959 . S
H1898 C1913 0.959 . S
H1899 C1913 0.961 . S
H1900 C1914 0.960 . S
H1901 C1914 0.961 . S
H1902 C1914 0.959 . S
H1903 C1917 0.929 1_565 S
H1904 C1918 0.931 . S
H1905 C1920 0.930 . S
C1906 H1894 0.930 . S
C1906 C1907 1.399 . S
C1906 C1911 1.399 . S
C1907 C1906 1.399 . S
C1907 C1908 1.376 1_545 S
C1908 H1895 0.930 . S
C1908 C1907 1.376 1_565 S
C1908 C1909 1.388 . S
C1909 H1896 0.930 . S
C1909 C1908 1.388 . S
C1909 C1910 1.390 1_565 S
C1910 C1909 1.390 1_545 S
C1910 C1911 1.394 . S
C1910 C1916 1.465 . S
C1911 C1906 1.399 . S
C1911 C1910 1.394 . S
C1911 C1912 1.516 . S
C1912 C1911 1.516 . S
C1912 C1913 1.502 . S
C1912 C1914 1.561 . S
C1912 C1915 1.526 . S
C1913 H1897 0.959 . S
C1913 H1898 0.959 . S
C1913 H1899 0.961 . S
C1913 C1912 1.502 . S
C1914 H1900 0.960 . S
C1914 H1901 0.961 . S
C1914 H1902 0.959 . S
C1914 C1912 1.561 . S
C1915 C1912 1.526 . S
C1915 C1916 1.396 . S
C1915 C1920 1.390 . S
C1916 C1910 1.465 . S
C1916 C1915 1.396 . S
C1916 C1917 1.399 . S
C1917 H1903 0.929 1_545 S
C1917 C1916 1.399 . S
C1917 C1918 1.385 . S
C1918 H1904 0.931 . S
C1918 C1917 1.385 . S
C1918 C1919 1.389 . S
C1919 C1918 1.389 . S
C1919 C1920 1.387 . S
C1920 H1905 0.930 . S
C1920 C1915 1.390 . S
C1920 C1919 1.387 . S
H1921 C1933 0.930 . S
H1922 C1935 0.930 . S
H1923 C1936 0.930 . S
H1924 C1940 0.959 . S
H1925 C1940 0.959 . S
H1926 C1940 0.961 . S
H1927 C1941 0.960 . S
H1928 C1941 0.961 . S
H1929 C1941 0.959 . S
H1930 C1944 0.929 . S
H1931 C1945 0.931 . S
H1932 C1947 0.930 . S
C1933 H1921 0.930 . S
C1933 C1934 1.399 . S
C1933 C1938 1.399 . S
C1934 C1933 1.399 . S
C1934 C1935 1.376 . S
C1935 H1922 0.930 . S
C1935 C1934 1.376 . S
C1935 C1936 1.388 . S
C1936 H1923 0.930 . S
C1936 C1935 1.388 . S
C1936 C1937 1.390 . S
C1937 C1936 1.390 . S
C1937 C1938 1.394 . S
C1937 C1943 1.465 . S
C1938 C1933 1.399 . S
C1938 C1937 1.394 . S
C1938 C1939 1.516 . S
C1939 C1938 1.516 . S
C1939 C1940 1.502 . S
C1939 C1941 1.561 . S
C1939 C1942 1.526 . S
C1940 H1924 0.959 . S
C1940 H1925 0.959 . S
C1940 H1926 0.961 . S
C1940 C1939 1.502 . S
C1941 H1927 0.960 . S
C1941 H1928 0.961 . S
C1941 H1929 0.959 . S
C1941 C1939 1.561 . S
C1942 C1939 1.526 . S
C1942 C1943 1.396 . S
C1942 C1947 1.390 . S
C1943 C1937 1.465 . S
C1943 C1942 1.396 . S
C1943 C1944 1.399 . S
C1944 H1930 0.929 . S
C1944 C1943 1.399 . S
C1944 C1945 1.385 . S
C1945 H1931 0.931 . S
C1945 C1944 1.385 . S
C1945 C1946 1.389 . S
C1946 C1945 1.389 . S
C1946 C1947 1.387 . S
C1947 H1932 0.930 . S
C1947 C1942 1.390 . S
C1947 C1946 1.387 . S
H1948 C1960 0.930 . S
H1949 C1962 0.930 . S
H1950 C1963 0.930 . S
H1951 C1967 0.959 . S
H1952 C1967 0.959 . S
H1953 C1967 0.961 . S
H1954 C1968 0.960 . S
H1955 C1968 0.961 . S
H1956 C1968 0.959 . S
H1957 C1971 0.929 . S
H1958 C1972 0.931 . S
H1959 C1974 0.930 . S
C1960 H1948 0.930 . S
C1960 C1961 1.399 . S
C1960 C1965 1.399 . S
C1961 C1960 1.399 . S
C1961 C1962 1.376 . S
C1962 H1949 0.930 . S
C1962 C1961 1.376 . S
C1962 C1963 1.388 . S
C1963 H1950 0.930 . S
C1963 C1962 1.388 . S
C1963 C1964 1.390 . S
C1964 C1963 1.390 . S
C1964 C1965 1.394 . S
C1964 C1970 1.465 . S
C1965 C1960 1.399 . S
C1965 C1964 1.394 . S
C1965 C1966 1.516 . S
C1966 C1965 1.516 . S
C1966 C1967 1.502 1_545 S
C1966 C1968 1.561 . S
C1966 C1969 1.526 . S
C1967 H1951 0.959 . S
C1967 H1952 0.959 . S
C1967 H1953 0.961 . S
C1967 C1966 1.502 1_565 S
C1968 H1954 0.960 . S
C1968 H1955 0.961 . S
C1968 H1956 0.959 . S
C1968 C1966 1.561 . S
C1969 C1966 1.526 . S
C1969 C1970 1.396 . S
C1969 C1974 1.390 . S
C1970 C1964 1.465 . S
C1970 C1969 1.396 . S
C1970 C1971 1.399 . S
C1971 H1957 0.929 . S
C1971 C1970 1.399 . S
C1971 C1972 1.385 . S
C1972 H1958 0.931 . S
C1972 C1971 1.385 . S
C1972 C1973 1.389 . S
C1973 C1972 1.389 . S
C1973 C1974 1.387 . S
C1974 H1959 0.930 . S
C1974 C1969 1.390 . S
C1974 C1973 1.387 . S
H1975 C1987 0.930 . S
H1976 C1989 0.930 . S
H1977 C1990 0.930 . S
H1978 C1994 0.959 . S
H1979 C1994 0.959 . S
H1980 C1994 0.961 . S
H1981 C1995 0.960 . S
H1982 C1995 0.961 . S
H1983 C1995 0.959 . S
H1984 C1998 0.929 . S
H1985 C1999 0.931 . S
H1986 C2001 0.930 . S
C1987 H1975 0.930 . S
C1987 C1988 1.399 . S
C1987 C1992 1.399 . S
C1988 C1987 1.399 . S
C1988 C1989 1.376 . S
C1989 H1976 0.930 . S
C1989 C1988 1.376 . S
C1989 C1990 1.388 . S
C1990 H1977 0.930 . S
C1990 C1989 1.388 . S
C1990 C1991 1.390 . S
C1991 C1990 1.390 . S
C1991 C1992 1.394 . S
C1991 C1997 1.465 . S
C1992 C1987 1.399 . S
C1992 C1991 1.394 . S
C1992 C1993 1.516 . S
C1993 C1992 1.516 . S
C1993 C1994 1.502 . S
C1993 C1995 1.561 . S
C1993 C1996 1.526 . S
C1994 H1978 0.959 . S
C1994 H1979 0.959 . S
C1994 H1980 0.961 . S
C1994 C1993 1.502 . S
C1995 H1981 0.960 . S
C1995 H1982 0.961 . S
C1995 H1983 0.959 . S
C1995 C1993 1.561 . S
C1996 C1993 1.526 . S
C1996 C1997 1.396 . S
C1996 C2001 1.390 . S
C1997 C1991 1.465 . S
C1997 C1996 1.396 . S
C1997 C1998 1.399 . S
C1998 H1984 0.929 . S
C1998 C1997 1.399 . S
C1998 C1999 1.385 . S
C1999 H1985 0.931 . S
C1999 C1998 1.385 . S
C1999 C2000 1.389 . S
C2000 C1999 1.389 . S
C2000 C2001 1.387 . S
C2001 H1986 0.930 . S
C2001 C1996 1.390 . S
C2001 C2000 1.387 . S
H2002 C2014 0.930 . S
H2003 C2016 0.930 . S
H2004 C2017 0.930 . S
H2005 C2021 0.959 . S
H2006 C2021 0.959 . S
H2007 C2021 0.961 . S
H2008 C2022 0.960 . S
H2009 C2022 0.961 . S
H2010 C2022 0.959 . S
H2011 C2025 0.929 . S
H2012 C2026 0.931 . S
H2013 C2028 0.930 . S
C2014 H2002 0.930 . S
C2014 C2015 1.399 1_545 S
C2014 C2019 1.399 . S
C2015 C2014 1.399 1_565 S
C2015 C2016 1.376 . S
C2016 H2003 0.930 . S
C2016 C2015 1.376 . S
C2016 C2017 1.388 . S
C2017 H2004 0.930 . S
C2017 C2016 1.388 . S
C2017 C2018 1.390 . S
C2018 C2017 1.390 . S
C2018 C2019 1.394 1_565 S
C2018 C2024 1.465 . S
C2019 C2014 1.399 . S
C2019 C2018 1.394 1_545 S
C2019 C2020 1.516 . S
C2020 C2019 1.516 . S
C2020 C2021 1.502 . S
C2020 C2022 1.561 . S
C2020 C2023 1.526 . S
C2021 H2005 0.959 . S
C2021 H2006 0.959 . S
C2021 H2007 0.961 . S
C2021 C2020 1.502 . S
C2022 H2008 0.960 . S
C2022 H2009 0.961 . S
C2022 H2010 0.959 . S
C2022 C2020 1.561 . S
C2023 C2020 1.526 . S
C2023 C2024 1.396 1_545 S
C2023 C2028 1.390 . S
C2024 C2018 1.465 . S
C2024 C2023 1.396 1_565 S
C2024 C2025 1.399 . S
C2025 H2011 0.929 . S
C2025 C2024 1.399 . S
C2025 C2026 1.385 . S
C2026 H2012 0.931 . S
C2026 C2025 1.385 . S
C2026 C2027 1.389 . S
C2027 C2026 1.389 . S
C2027 C2028 1.387 1_565 S
C2028 H2013 0.930 . S
C2028 C2023 1.390 . S
C2028 C2027 1.387 1_545 S
H2029 C2041 0.930 . S
H2030 C2043 0.930 . S
H2031 C2044 0.930 . S
H2032 C2048 0.959 . S
H2033 C2048 0.959 . S
H2034 C2048 0.961 . S
H2035 C2049 0.960 . S
H2036 C2049 0.961 . S
H2037 C2049 0.959 . S
H2038 C2052 0.929 . S
H2039 C2053 0.931 . S
H2040 C2055 0.930 . S
C2041 H2029 0.930 . S
C2041 C2042 1.399 . S
C2041 C2046 1.399 . S
C2042 C2041 1.399 . S
C2042 C2043 1.376 . S
C2043 H2030 0.930 . S
C2043 C2042 1.376 . S
C2043 C2044 1.388 . S
C2044 H2031 0.930 . S
C2044 C2043 1.388 . S
C2044 C2045 1.390 . S
C2045 C2044 1.390 . S
C2045 C2046 1.394 . S
C2045 C2051 1.465 . S
C2046 C2041 1.399 . S
C2046 C2045 1.394 . S
C2046 C2047 1.516 . S
C2047 C2046 1.516 . S
C2047 C2048 1.502 . S
C2047 C2049 1.561 . S
C2047 C2050 1.526 . S
C2048 H2032 0.959 . S
C2048 H2033 0.959 . S
C2048 H2034 0.961 . S
C2048 C2047 1.502 . S
C2049 H2035 0.960 . S
C2049 H2036 0.961 . S
C2049 H2037 0.959 . S
C2049 C2047 1.561 . S
C2050 C2047 1.526 . S
C2050 C2051 1.396 . S
C2050 C2055 1.390 . S
C2051 C2045 1.465 . S
C2051 C2050 1.396 . S
C2051 C2052 1.399 . S
C2052 H2038 0.929 . S
C2052 C2051 1.399 . S
C2052 C2053 1.385 . S
C2053 H2039 0.931 . S
C2053 C2052 1.385 . S
C2053 C2054 1.389 . S
C2054 C2053 1.389 . S
C2054 C2055 1.387 . S
C2055 H2040 0.930 . S
C2055 C2050 1.390 . S
C2055 C2054 1.387 . S
H2056 C2068 0.930 . S
H2057 C2070 0.930 . S
H2058 C2071 0.930 . S
H2059 C2075 0.959 . S
H2060 C2075 0.959 . S
H2061 C2075 0.961 . S
H2062 C2076 0.960 . S
H2063 C2076 0.961 . S
H2064 C2076 0.959 . S
H2065 C2079 0.929 . S
H2066 C2080 0.931 1_556 S
H2067 C2082 0.930 . S
C2068 H2056 0.930 . S
C2068 C2069 1.399 . S
C2068 C2073 1.399 . S
C2069 C2068 1.399 . S
C2069 C2070 1.376 . S
C2070 H2057 0.930 . S
C2070 C2069 1.376 . S
C2070 C2071 1.388 . S
C2071 H2058 0.930 . S
C2071 C2070 1.388 . S
C2071 C2072 1.390 . S
C2072 C2071 1.390 . S
C2072 C2073 1.394 . S
C2072 C2078 1.465 . S
C2073 C2068 1.399 . S
C2073 C2072 1.394 . S
C2073 C2074 1.516 . S
C2074 C2073 1.516 . S
C2074 C2075 1.502 . S
C2074 C2076 1.561 . S
C2074 C2077 1.526 . S
C2075 H2059 0.959 . S
C2075 H2060 0.959 . S
C2075 H2061 0.961 . S
C2075 C2074 1.502 . S
C2076 H2062 0.960 . S
C2076 H2063 0.961 . S
C2076 H2064 0.959 . S
C2076 C2074 1.561 . S
C2077 C2074 1.526 . S
C2077 C2078 1.396 . S
C2077 C2082 1.390 . S
C2078 C2072 1.465 . S
C2078 C2077 1.396 . S
C2078 C2079 1.399 . S
C2079 H2065 0.929 . S
C2079 C2078 1.399 . S
C2079 C2080 1.385 . S
C2080 H2066 0.931 1_554 S
C2080 C2079 1.385 . S
C2080 C2081 1.389 . S
C2081 C2080 1.389 . S
C2081 C2082 1.387 . S
C2082 H2067 0.930 . S
C2082 C2077 1.390 . S
C2082 C2081 1.387 . S
H2083 C2095 0.930 . S
H2084 C2097 0.930 . S
H2085 C2098 0.930 . S
H2086 C2102 0.959 . S
H2087 C2102 0.959 . S
H2088 C2102 0.961 . S
H2089 C2103 0.960 . S
H2090 C2103 0.961 . S
H2091 C2103 0.959 . S
H2092 C2106 0.929 . S
H2093 C2107 0.931 . S
H2094 C2109 0.930 . S
C2095 H2083 0.930 . S
C2095 C2096 1.399 . S
C2095 C2100 1.399 . S
C2096 C2095 1.399 . S
C2096 C2097 1.376 . S
C2097 H2084 0.930 . S
C2097 C2096 1.376 . S
C2097 C2098 1.388 . S
C2098 H2085 0.930 . S
C2098 C2097 1.388 . S
C2098 C2099 1.390 . S
C2099 C2098 1.390 . S
C2099 C2100 1.394 . S
C2099 C2105 1.465 . S
C2100 C2095 1.399 . S
C2100 C2099 1.394 . S
C2100 C2101 1.516 . S
C2101 C2100 1.516 . S
C2101 C2102 1.502 . S
C2101 C2103 1.561 . S
C2101 C2104 1.526 . S
C2102 H2086 0.959 . S
C2102 H2087 0.959 . S
C2102 H2088 0.961 . S
C2102 C2101 1.502 . S
C2103 H2089 0.960 . S
C2103 H2090 0.961 . S
C2103 H2091 0.959 . S
C2103 C2101 1.561 . S
C2104 C2101 1.526 . S
C2104 C2105 1.396 . S
C2104 C2109 1.390 . S
C2105 C2099 1.465 . S
C2105 C2104 1.396 . S
C2105 C2106 1.399 . S
C2106 H2092 0.929 . S
C2106 C2105 1.399 . S
C2106 C2107 1.385 . S
C2107 H2093 0.931 . S
C2107 C2106 1.385 . S
C2107 C2108 1.389 . S
C2108 C2107 1.389 . S
C2108 C2109 1.387 . S
C2109 H2094 0.930 . S
C2109 C2104 1.390 . S
C2109 C2108 1.387 . S
H2110 C2122 0.930 . S
H2111 C2124 0.930 . S
H2112 C2125 0.930 . S
H2113 C2129 0.959 . S
H2114 C2129 0.959 . S
H2115 C2129 0.961 . S
H2116 C2130 0.960 . S
H2117 C2130 0.961 . S
H2118 C2130 0.959 . S
H2119 C2133 0.929 . S
H2120 C2134 0.931 . S
H2121 C2136 0.930 . S
C2122 H2110 0.930 . S
C2122 C2123 1.399 . S
C2122 C2127 1.399 . S
C2123 C2122 1.399 . S
C2123 C2124 1.376 . S
C2124 H2111 0.930 . S
C2124 C2123 1.376 . S
C2124 C2125 1.388 . S
C2125 H2112 0.930 . S
C2125 C2124 1.388 . S
C2125 C2126 1.390 . S
C2126 C2125 1.390 . S
C2126 C2127 1.394 . S
C2126 C2132 1.465 . S
C2127 C2122 1.399 . S
C2127 C2126 1.394 . S
C2127 C2128 1.516 . S
C2128 C2127 1.516 . S
C2128 C2129 1.502 . S
C2128 C2130 1.561 . S
C2128 C2131 1.526 . S
C2129 H2113 0.959 . S
C2129 H2114 0.959 . S
C2129 H2115 0.961 . S
C2129 C2128 1.502 . S
C2130 H2116 0.960 . S
C2130 H2117 0.961 . S
C2130 H2118 0.959 . S
C2130 C2128 1.561 . S
C2131 C2128 1.526 . S
C2131 C2132 1.396 . S
C2131 C2136 1.390 . S
C2132 C2126 1.465 . S
C2132 C2131 1.396 . S
C2132 C2133 1.399 . S
C2133 H2119 0.929 . S
C2133 C2132 1.399 . S
C2133 C2134 1.385 . S
C2134 H2120 0.931 . S
C2134 C2133 1.385 . S
C2134 C2135 1.389 . S
C2135 C2134 1.389 . S
C2135 C2136 1.387 . S
C2136 H2121 0.930 . S
C2136 C2131 1.390 . S
C2136 C2135 1.387 . S
H2137 C2149 0.930 . S
H2138 C2151 0.930 . S
H2139 C2152 0.930 . S
H2140 C2156 0.959 . S
H2141 C2156 0.959 . S
H2142 C2156 0.961 . S
H2143 C2157 0.960 . S
H2144 C2157 0.961 . S
H2145 C2157 0.959 . S
H2146 C2160 0.929 . S
H2147 C2161 0.931 . S
H2148 C2163 0.930 . S
C2149 H2137 0.930 . S
C2149 C2150 1.399 . S
C2149 C2154 1.399 . S
C2150 C2149 1.399 . S
C2150 C2151 1.376 . S
C2151 H2138 0.930 . S
C2151 C2150 1.376 . S
C2151 C2152 1.388 . S
C2152 H2139 0.930 . S
C2152 C2151 1.388 . S
C2152 C2153 1.390 . S
C2153 C2152 1.390 . S
C2153 C2154 1.394 . S
C2153 C2159 1.465 . S
C2154 C2149 1.399 . S
C2154 C2153 1.394 . S
C2154 C2155 1.516 . S
C2155 C2154 1.516 . S
C2155 C2156 1.502 . S
C2155 C2157 1.561 . S
C2155 C2158 1.526 . S
C2156 H2140 0.959 . S
C2156 H2141 0.959 . S
C2156 H2142 0.961 . S
C2156 C2155 1.502 . S
C2157 H2143 0.960 . S
C2157 H2144 0.961 . S
C2157 H2145 0.959 . S
C2157 C2155 1.561 . S
C2158 C2155 1.526 . S
C2158 C2159 1.396 . S
C2158 C2163 1.390 . S
C2159 C2153 1.465 . S
C2159 C2158 1.396 . S
C2159 C2160 1.399 . S
C2160 H2146 0.929 . S
C2160 C2159 1.399 . S
C2160 C2161 1.385 . S
C2161 H2147 0.931 . S
C2161 C2160 1.385 . S
C2161 C2162 1.389 . S
C2162 C2161 1.389 . S
C2162 C2163 1.387 . S
C2163 H2148 0.930 . S
C2163 C2158 1.390 . S
C2163 C2162 1.387 . S
H2164 C2176 0.929 . S
H2165 C2178 0.930 . S
H2166 C2179 0.930 . S
H2167 C2183 0.959 . S
H2168 C2183 0.959 . S
H2169 C2183 0.961 . S
H2170 C2184 0.960 . S
H2171 C2184 0.961 . S
H2172 C2184 0.959 . S
H2173 C2187 0.929 . S
H2174 C2188 0.931 . S
H2175 C2190 0.930 . S
C2176 H2164 0.929 . S
C2176 C2177 1.399 . S
C2176 C2181 1.399 1_545 S
C2177 C2176 1.399 . S
C2177 C2178 1.376 . S
C2178 H2165 0.930 . S
C2178 C2177 1.376 . S
C2178 C2179 1.388 . S
C2179 H2166 0.930 . S
C2179 C2178 1.388 . S
C2179 C2180 1.390 1_545 S
C2180 C2179 1.390 1_565 S
C2180 C2181 1.394 . S
C2180 C2186 1.465 . S
C2181 C2176 1.399 1_565 S
C2181 C2180 1.394 . S
C2181 C2182 1.516 . S
C2182 C2181 1.516 . S
C2182 C2183 1.502 . S
C2182 C2184 1.561 . S
C2182 C2185 1.526 . S
C2183 H2167 0.959 . S
C2183 H2168 0.959 . S
C2183 H2169 0.961 . S
C2183 C2182 1.502 . S
C2184 H2170 0.960 . S
C2184 H2171 0.961 . S
C2184 H2172 0.959 . S
C2184 C2182 1.561 . S
C2185 C2182 1.526 . S
C2185 C2186 1.396 . S
C2185 C2190 1.390 . S
C2186 C2180 1.465 . S
C2186 C2185 1.396 . S
C2186 C2187 1.399 . S
C2187 H2173 0.929 . S
C2187 C2186 1.399 . S
C2187 C2188 1.385 . S
C2188 H2174 0.931 . S
C2188 C2187 1.385 . S
C2188 C2189 1.389 . S
C2189 C2188 1.389 . S
C2189 C2190 1.387 . S
C2190 H2175 0.930 . S
C2190 C2185 1.390 . S
C2190 C2189 1.387 . S
H2191 C2203 0.930 . S
H2192 C2205 0.930 . S
H2193 C2206 0.930 . S
H2194 C2210 0.959 . S
H2195 C2210 0.959 . S
H2196 C2210 0.961 . S
H2197 C2211 0.960 . S
H2198 C2211 0.961 . S
H2199 C2211 0.959 . S
H2200 C2214 0.929 . S
H2201 C2215 0.931 . S
H2202 C2217 0.930 . S
C2203 H2191 0.930 . S
C2203 C2204 1.399 . S
C2203 C2208 1.399 . S
C2204 C2203 1.399 . S
C2204 C2205 1.376 . S
C2205 H2192 0.930 . S
C2205 C2204 1.376 . S
C2205 C2206 1.388 . S
C2206 H2193 0.930 . S
C2206 C2205 1.388 . S
C2206 C2207 1.390 . S
C2207 C2206 1.390 . S
C2207 C2208 1.394 . S
C2207 C2213 1.465 . S
C2208 C2203 1.399 . S
C2208 C2207 1.394 . S
C2208 C2209 1.516 . S
C2209 C2208 1.516 . S
C2209 C2210 1.502 . S
C2209 C2211 1.561 . S
C2209 C2212 1.526 . S
C2210 H2194 0.959 . S
C2210 H2195 0.959 . S
C2210 H2196 0.961 . S
C2210 C2209 1.502 . S
C2211 H2197 0.960 . S
C2211 H2198 0.961 . S
C2211 H2199 0.959 . S
C2211 C2209 1.561 . S
C2212 C2209 1.526 . S
C2212 C2213 1.396 . S
C2212 C2217 1.390 . S
C2213 C2207 1.465 . S
C2213 C2212 1.396 . S
C2213 C2214 1.399 . S
C2214 H2200 0.929 . S
C2214 C2213 1.399 . S
C2214 C2215 1.385 . S
C2215 H2201 0.931 . S
C2215 C2214 1.385 . S
C2215 C2216 1.389 . S
C2216 C2215 1.389 . S
C2216 C2217 1.387 . S
C2217 H2202 0.930 . S
C2217 C2212 1.390 . S
C2217 C2216 1.387 . S
H2218 C2230 0.930 . S
H2219 C2232 0.930 . S
H2220 C2233 0.930 . S
H2221 C2237 0.959 . S
H2222 C2237 0.959 . S
H2223 C2237 0.961 . S
H2224 C2238 0.960 . S
H2225 C2238 0.961 . S
H2226 C2238 0.959 . S
H2227 C2241 0.929 . S
H2228 C2242 0.931 . S
H2229 C2244 0.930 . S
C2230 H2218 0.930 . S
C2230 C2231 1.399 . S
C2230 C2235 1.399 . S
C2231 C2230 1.399 . S
C2231 C2232 1.376 . S
C2232 H2219 0.930 . S
C2232 C2231 1.376 . S
C2232 C2233 1.388 . S
C2233 H2220 0.930 . S
C2233 C2232 1.388 . S
C2233 C2234 1.390 . S
C2234 C2233 1.390 . S
C2234 C2235 1.394 . S
C2234 C2240 1.465 . S
C2235 C2230 1.399 . S
C2235 C2234 1.394 . S
C2235 C2236 1.516 . S
C2236 C2235 1.516 . S
C2236 C2237 1.502 . S
C2236 C2238 1.561 . S
C2236 C2239 1.526 . S
C2237 H2221 0.959 . S
C2237 H2222 0.959 . S
C2237 H2223 0.961 . S
C2237 C2236 1.502 . S
C2238 H2224 0.960 . S
C2238 H2225 0.961 . S
C2238 H2226 0.959 . S
C2238 C2236 1.561 . S
C2239 C2236 1.526 . S
C2239 C2240 1.396 . S
C2239 C2244 1.390 . S
C2240 C2234 1.465 . S
C2240 C2239 1.396 . S
C2240 C2241 1.399 . S
C2241 H2227 0.929 . S
C2241 C2240 1.399 . S
C2241 C2242 1.385 . S
C2242 H2228 0.931 . S
C2242 C2241 1.385 . S
C2242 C2243 1.389 . S
C2243 C2242 1.389 . S
C2243 C2244 1.387 . S
C2244 H2229 0.930 . S
C2244 C2239 1.390 . S
C2244 C2243 1.387 . S
H2245 C2257 0.930 . S
H2246 C2259 0.930 . S
H2247 C2260 0.930 . S
H2248 C2264 0.959 . S
H2249 C2264 0.959 . S
H2250 C2264 0.961 . S
H2251 C2265 0.960 . S
H2252 C2265 0.961 . S
H2253 C2265 0.959 . S
H2254 C2268 0.929 . S
H2255 C2269 0.931 . S
H2256 C2271 0.930 . S
C2257 H2245 0.930 . S
C2257 C2258 1.399 . S
C2257 C2262 1.399 . S
C2258 C2257 1.399 . S
C2258 C2259 1.376 . S
C2259 H2246 0.930 . S
C2259 C2258 1.376 . S
C2259 C2260 1.388 . S
C2260 H2247 0.930 . S
C2260 C2259 1.388 . S
C2260 C2261 1.390 . S
C2261 C2260 1.390 . S
C2261 C2262 1.394 . S
C2261 C2267 1.465 . S
C2262 C2257 1.399 . S
C2262 C2261 1.394 . S
C2262 C2263 1.516 . S
C2263 C2262 1.516 . S
C2263 C2264 1.502 . S
C2263 C2265 1.561 . S
C2263 C2266 1.526 . S
C2264 H2248 0.959 . S
C2264 H2249 0.959 . S
C2264 H2250 0.961 . S
C2264 C2263 1.502 . S
C2265 H2251 0.960 . S
C2265 H2252 0.961 . S
C2265 H2253 0.959 . S
C2265 C2263 1.561 . S
C2266 C2263 1.526 . S
C2266 C2267 1.396 . S
C2266 C2271 1.390 . S
C2267 C2261 1.465 . S
C2267 C2266 1.396 . S
C2267 C2268 1.399 . S
C2268 H2254 0.929 . S
C2268 C2267 1.399 . S
C2268 C2269 1.385 . S
C2269 H2255 0.931 . S
C2269 C2268 1.385 . S
C2269 C2270 1.389 . S
C2270 C2269 1.389 . S
C2270 C2271 1.387 . S
C2271 H2256 0.930 . S
C2271 C2266 1.390 . S
C2271 C2270 1.387 . S
H2272 C2284 0.930 . S
H2273 C2286 0.930 . S
H2274 C2287 0.930 . S
H2275 C2291 0.959 . S
H2276 C2291 0.959 . S
H2277 C2291 0.961 . S
H2278 C2292 0.960 . S
H2279 C2292 0.961 . S
H2280 C2292 0.959 . S
H2281 C2295 0.929 . S
H2282 C2296 0.931 . S
H2283 C2298 0.930 . S
C2284 H2272 0.930 . S
C2284 C2285 1.399 . S
C2284 C2289 1.399 . S
C2285 C2284 1.399 . S
C2285 C2286 1.376 . S
C2286 H2273 0.930 . S
C2286 C2285 1.376 . S
C2286 C2287 1.388 . S
C2287 H2274 0.930 . S
C2287 C2286 1.388 . S
C2287 C2288 1.390 . S
C2288 C2287 1.390 . S
C2288 C2289 1.394 . S
C2288 C2294 1.465 . S
C2289 C2284 1.399 . S
C2289 C2288 1.394 . S
C2289 C2290 1.516 . S
C2290 C2289 1.516 . S
C2290 C2291 1.502 . S
C2290 C2292 1.561 . S
C2290 C2293 1.526 . S
C2291 H2275 0.959 . S
C2291 H2276 0.959 . S
C2291 H2277 0.961 . S
C2291 C2290 1.502 . S
C2292 H2278 0.960 . S
C2292 H2279 0.961 . S
C2292 H2280 0.959 . S
C2292 C2290 1.561 . S
C2293 C2290 1.526 . S
C2293 C2294 1.396 . S
C2293 C2298 1.390 . S
C2294 C2288 1.465 . S
C2294 C2293 1.396 . S
C2294 C2295 1.399 . S
C2295 H2281 0.929 . S
C2295 C2294 1.399 . S
C2295 C2296 1.385 . S
C2296 H2282 0.931 . S
C2296 C2295 1.385 . S
C2296 C2297 1.389 . S
C2297 C2296 1.389 . S
C2297 C2298 1.387 . S
C2298 H2283 0.930 . S
C2298 C2293 1.390 . S
C2298 C2297 1.387 . S
H2299 C2311 0.930 . S
H2300 C2313 0.930 . S
H2301 C2314 0.930 . S
H2302 C2318 0.959 . S
H2303 C2318 0.959 . S
H2304 C2318 0.961 . S
H2305 C2319 0.960 . S
H2306 C2319 0.961 . S
H2307 C2319 0.959 . S
H2308 C2322 0.929 . S
H2309 C2323 0.931 . S
H2310 C2325 0.930 . S
C2311 H2299 0.930 . S
C2311 C2312 1.399 . S
C2311 C2316 1.399 . S
C2312 C2311 1.399 . S
C2312 C2313 1.376 . S
C2313 H2300 0.930 . S
C2313 C2312 1.376 . S
C2313 C2314 1.388 . S
C2314 H2301 0.930 . S
C2314 C2313 1.388 . S
C2314 C2315 1.390 . S
C2315 C2314 1.390 . S
C2315 C2316 1.394 . S
C2315 C2321 1.465 . S
C2316 C2311 1.399 . S
C2316 C2315 1.394 . S
C2316 C2317 1.516 . S
C2317 C2316 1.516 . S
C2317 C2318 1.502 . S
C2317 C2319 1.561 . S
C2317 C2320 1.526 . S
C2318 H2302 0.959 . S
C2318 H2303 0.959 . S
C2318 H2304 0.961 . S
C2318 C2317 1.502 . S
C2319 H2305 0.960 . S
C2319 H2306 0.961 . S
C2319 H2307 0.959 . S
C2319 C2317 1.561 . S
C2320 C2317 1.526 . S
C2320 C2321 1.396 . S
C2320 C2325 1.390 . S
C2321 C2315 1.465 . S
C2321 C2320 1.396 . S
C2321 C2322 1.399 . S
C2322 H2308 0.929 . S
C2322 C2321 1.399 . S
C2322 C2323 1.385 . S
C2323 H2309 0.931 . S
C2323 C2322 1.385 . S
C2323 C2324 1.389 . S
C2324 C2323 1.389 . S
C2324 C2325 1.387 . S
C2325 H2310 0.930 . S
C2325 C2320 1.390 . S
C2325 C2324 1.387 . S
H2326 C2338 0.930 . S
H2327 C2340 0.930 1_655 S
H2328 C2341 0.922 1_655 S
H2329 C2345 0.959 1_554 S
H2330 C2345 0.959 . S
H2331 C2345 0.961 . S
H2332 C2346 0.960 . S
H2333 C2346 0.961 . S
H2334 C2346 0.959 . S
H2335 C2349 0.929 . S
H2336 C2350 0.931 . S
H2337 C2352 0.930 . S
C2338 H2326 0.930 . S
C2338 C2339 1.399 1_556 S
C2338 C2343 1.399 1_556 S
C2339 C2338 1.399 1_554 S
C2339 C2340 1.376 . S
C2340 H2327 0.930 1_455 S
C2340 C2339 1.376 . S
C2340 C2341 1.388 . S
C2341 H2328 0.922 1_455 S
C2341 C2340 1.388 . S
C2341 C2342 1.390 . S
C2342 C2341 1.390 . S
C2342 C2343 1.394 . S
C2342 C2348 1.465 . S
C2343 C2338 1.399 1_554 S
C2343 C2342 1.394 . S
C2343 C2344 1.516 . S
C2344 C2343 1.516 . S
C2344 C2345 1.502 1_554 S
C2344 C2346 1.561 1_454 S
C2344 C2347 1.526 . S
C2345 H2329 0.959 1_556 S
C2345 H2330 0.959 . S
C2345 H2331 0.961 . S
C2345 C2344 1.502 1_556 S
C2346 H2332 0.960 . S
C2346 H2333 0.961 . S
C2346 H2334 0.959 . S
C2346 C2344 1.561 1_656 S
C2347 C2344 1.526 . S
C2347 C2348 1.396 . S
C2347 C2352 1.390 . S
C2348 C2342 1.465 . S
C2348 C2347 1.396 . S
C2348 C2349 1.399 . S
C2349 H2335 0.929 . S
C2349 C2348 1.399 . S
C2349 C2350 1.385 . S
C2350 H2336 0.931 . S
C2350 C2349 1.385 . S
C2350 C2351 1.389 . S
C2351 C2350 1.389 . S
C2351 C2352 1.387 . S
C2352 H2337 0.930 . S
C2352 C2347 1.390 . S
C2352 C2351 1.387 . S
H2353 C2365 0.930 . S
H2354 C2367 0.930 1_455 S
H2355 C2368 0.930 . S
H2356 C2372 0.959 . S
H2357 C2372 0.959 . S
H2358 C2372 0.961 . S
H2359 C2373 0.960 . S
H2360 C2373 0.961 . S
H2361 C2373 0.959 . S
H2362 C2376 0.929 . S
H2363 C2377 0.931 . S
H2364 C2379 0.930 . S
C2365 H2353 0.930 . S
C2365 C2366 1.399 . S
C2365 C2370 1.399 . S
C2366 C2365 1.399 . S
C2366 C2367 1.376 . S
C2367 H2354 0.930 1_655 S
C2367 C2366 1.376 . S
C2367 C2368 1.388 . S
C2368 H2355 0.930 . S
C2368 C2367 1.388 . S
C2368 C2369 1.390 . S
C2369 C2368 1.390 . S
C2369 C2370 1.394 . S
C2369 C2375 1.465 . S
C2370 C2365 1.399 . S
C2370 C2369 1.394 . S
C2370 C2371 1.516 . S
C2371 C2370 1.516 . S
C2371 C2372 1.502 . S
C2371 C2373 1.561 . S
C2371 C2374 1.526 . S
C2372 H2356 0.959 . S
C2372 H2357 0.959 . S
C2372 H2358 0.961 . S
C2372 C2371 1.502 . S
C2373 H2359 0.960 . S
C2373 H2360 0.961 . S
C2373 H2361 0.959 . S
C2373 C2371 1.561 . S
C2374 C2371 1.526 . S
C2374 C2375 1.396 . S
C2374 C2379 1.390 . S
C2375 C2369 1.465 . S
C2375 C2374 1.396 . S
C2375 C2376 1.399 . S
C2376 H2362 0.929 . S
C2376 C2375 1.399 . S
C2376 C2377 1.385 . S
C2377 H2363 0.931 . S
C2377 C2376 1.385 . S
C2377 C2378 1.389 . S
C2378 C2377 1.389 . S
C2378 C2379 1.387 . S
C2379 H2364 0.930 . S
C2379 C2374 1.390 . S
C2379 C2378 1.387 . S
H2380 C2392 0.930 . S
H2381 C2394 0.930 . S
H2382 C2395 0.930 . S
H2383 C2399 0.959 . S
H2384 C2399 0.959 . S
H2385 C2399 0.961 . S
H2386 C2400 0.960 . S
H2387 C2400 0.961 . S
H2388 C2400 0.959 . S
H2389 C2403 0.929 . S
H2390 C2404 0.931 . S
H2391 C2406 0.930 . S
C2392 H2380 0.930 . S
C2392 C2393 1.399 . S
C2392 C2397 1.399 . S
C2393 C2392 1.399 . S
C2393 C2394 1.376 . S
C2394 H2381 0.930 . S
C2394 C2393 1.376 . S
C2394 C2395 1.388 . S
C2395 H2382 0.930 . S
C2395 C2394 1.388 . S
C2395 C2396 1.390 . S
C2396 C2395 1.390 . S
C2396 C2397 1.394 . S
C2396 C2402 1.465 . S
C2397 C2392 1.399 . S
C2397 C2396 1.394 . S
C2397 C2398 1.516 . S
C2398 C2397 1.516 . S
C2398 C2399 1.502 . S
C2398 C2400 1.561 . S
C2398 C2401 1.526 . S
C2399 H2383 0.959 . S
C2399 H2384 0.959 . S
C2399 H2385 0.961 . S
C2399 C2398 1.502 . S
C2400 H2386 0.960 . S
C2400 H2387 0.961 . S
C2400 H2388 0.959 . S
C2400 C2398 1.561 . S
C2401 C2398 1.526 . S
C2401 C2402 1.396 . S
C2401 C2406 1.390 . S
C2402 C2396 1.465 . S
C2402 C2401 1.396 . S
C2402 C2403 1.399 . S
C2403 H2389 0.929 . S
C2403 C2402 1.399 . S
C2403 C2404 1.385 . S
C2404 H2390 0.931 . S
C2404 C2403 1.385 . S
C2404 C2405 1.389 . S
C2405 C2404 1.389 . S
C2405 C2406 1.387 . S
C2406 H2391 0.930 . S
C2406 C2401 1.390 . S
C2406 C2405 1.387 . S
H2407 C2419 0.930 . S
H2408 C2421 0.930 . S
H2409 C2422 0.930 . S
H2410 C2426 0.959 . S
H2411 C2426 0.959 . S
H2412 C2426 0.961 . S
H2413 C2427 0.960 . S
H2414 C2427 0.961 . S
H2415 C2427 0.959 . S
H2416 C2430 0.929 . S
H2417 C2431 0.931 . S
H2418 C2433 0.930 . S
C2419 H2407 0.930 . S
C2419 C2420 1.399 . S
C2419 C2424 1.399 . S
C2420 C2419 1.399 . S
C2420 C2421 1.376 . S
C2421 H2408 0.930 . S
C2421 C2420 1.376 . S
C2421 C2422 1.388 . S
C2422 H2409 0.930 . S
C2422 C2421 1.388 . S
C2422 C2423 1.390 . S
C2423 C2422 1.390 . S
C2423 C2424 1.394 . S
C2423 C2429 1.465 . S
C2424 C2419 1.399 . S
C2424 C2423 1.394 . S
C2424 C2425 1.516 . S
C2425 C2424 1.516 . S
C2425 C2426 1.502 . S
C2425 C2427 1.561 . S
C2425 C2428 1.526 . S
C2426 H2410 0.959 . S
C2426 H2411 0.959 . S
C2426 H2412 0.961 . S
C2426 C2425 1.502 . S
C2427 H2413 0.960 . S
C2427 H2414 0.961 . S
C2427 H2415 0.959 . S
C2427 C2425 1.561 . S
C2428 C2425 1.526 . S
C2428 C2429 1.396 . S
C2428 C2433 1.390 . S
C2429 C2423 1.465 . S
C2429 C2428 1.396 . S
C2429 C2430 1.399 . S
C2430 H2416 0.929 . S
C2430 C2429 1.399 . S
C2430 C2431 1.385 . S
C2431 H2417 0.931 . S
C2431 C2430 1.385 . S
C2431 C2432 1.389 . S
C2432 C2431 1.389 . S
C2432 C2433 1.387 . S
C2433 H2418 0.930 . S
C2433 C2428 1.390 . S
C2433 C2432 1.387 . S
H2434 C2446 0.930 . S
H2435 C2448 0.915 1_655 S
H2436 C2449 0.930 . S
H2437 C2453 0.959 . S
H2438 C2453 0.959 . S
H2439 C2453 0.961 . S
H2440 C2454 0.960 . S
H2441 C2454 0.961 . S
H2442 C2454 0.959 1_655 S
H2443 C2457 0.917 1_655 S
H2444 C2458 0.929 1_655 S
H2445 C2460 0.930 . S
C2446 H2434 0.930 . S
C2446 C2447 1.399 . S
C2446 C2451 1.399 . S
C2447 C2446 1.399 . S
C2447 C2448 1.386 . S
C2448 H2435 0.915 1_455 S
C2448 C2447 1.386 . S
C2448 C2449 1.394 1_455 S
C2449 H2436 0.930 . S
C2449 C2448 1.394 1_655 S
C2449 C2450 1.390 1_655 S
C2450 C2449 1.390 1_455 S
C2450 C2451 1.394 . S
C2450 C2456 1.465 . S
C2451 C2446 1.399 . S
C2451 C2450 1.394 . S
C2451 C2452 1.516 . S
C2452 C2451 1.516 . S
C2452 C2453 1.502 . S
C2452 C2454 1.561 . S
C2452 C2455 1.526 . S
C2453 H2437 0.959 . S
C2453 H2438 0.959 . S
C2453 H2439 0.961 . S
C2453 C2452 1.502 . S
C2454 H2440 0.960 . S
C2454 H2441 0.961 . S
C2454 H2442 0.959 1_455 S
C2454 C2452 1.561 . S
C2455 C2452 1.526 . S
C2455 C2456 1.396 . S
C2455 C2460 1.390 . S
C2456 C2450 1.465 . S
C2456 C2455 1.396 . S
C2456 C2457 1.402 . S
C2457 H2443 0.917 1_455 S
C2457 C2456 1.402 . S
C2457 C2458 1.395 . S
C2458 H2444 0.929 1_455 S
C2458 C2457 1.395 . S
C2458 C2459 1.389 . S
C2459 C2458 1.389 . S
C2459 C2460 1.387 . S
C2460 H2445 0.930 . S
C2460 C2455 1.390 . S
C2460 C2459 1.387 . S
H2461 C2473 0.930 . S
H2462 C2475 0.930 . S
H2463 C2476 0.930 . S
H2464 C2480 0.959 . S
H2465 C2480 0.959 . S
H2466 C2480 0.961 . S
H2467 C2481 0.960 . S
H2468 C2481 0.961 . S
H2469 C2481 0.959 . S
H2470 C2484 0.929 . S
H2471 C2485 0.931 . S
H2472 C2487 0.930 . S
C2473 H2461 0.930 . S
C2473 C2474 1.399 . S
C2473 C2478 1.399 . S
C2474 C2473 1.399 . S
C2474 C2475 1.376 . S
C2475 H2462 0.930 . S
C2475 C2474 1.376 . S
C2475 C2476 1.388 . S
C2476 H2463 0.930 . S
C2476 C2475 1.388 . S
C2476 C2477 1.390 . S
C2477 C2476 1.390 . S
C2477 C2478 1.394 . S
C2477 C2483 1.465 . S
C2478 C2473 1.399 . S
C2478 C2477 1.394 . S
C2478 C2479 1.516 . S
C2479 C2478 1.516 . S
C2479 C2480 1.502 . S
C2479 C2481 1.561 . S
C2479 C2482 1.526 . S
C2480 H2464 0.959 . S
C2480 H2465 0.959 . S
C2480 H2466 0.961 . S
C2480 C2479 1.502 . S
C2481 H2467 0.960 . S
C2481 H2468 0.961 . S
C2481 H2469 0.959 . S
C2481 C2479 1.561 . S
C2482 C2479 1.526 . S
C2482 C2483 1.396 . S
C2482 C2487 1.390 . S
C2483 C2477 1.465 . S
C2483 C2482 1.396 . S
C2483 C2484 1.399 . S
C2484 H2470 0.929 . S
C2484 C2483 1.399 . S
C2484 C2485 1.385 . S
C2485 H2471 0.931 . S
C2485 C2484 1.385 . S
C2485 C2486 1.389 . S
C2486 C2485 1.389 . S
C2486 C2487 1.387 . S
C2487 H2472 0.930 . S
C2487 C2482 1.390 . S
C2487 C2486 1.387 . S
H2488 C2500 0.930 . S
H2489 C2502 0.930 . S
H2490 C2503 0.930 . S
H2491 C2507 0.959 . S
H2492 C2507 0.959 . S
H2493 C2507 0.961 . S
H2494 C2508 0.960 . S
H2495 C2508 0.961 . S
H2496 C2508 0.959 . S
H2497 C2511 0.929 . S
H2498 C2512 0.931 . S
H2499 C2514 0.930 . S
C2500 H2488 0.930 . S
C2500 C2501 1.399 . S
C2500 C2505 1.399 . S
C2501 C2500 1.399 . S
C2501 C2502 1.376 . S
C2502 H2489 0.930 . S
C2502 C2501 1.376 . S
C2502 C2503 1.388 . S
C2503 H2490 0.930 . S
C2503 C2502 1.388 . S
C2503 C2504 1.390 . S
C2504 C2503 1.390 . S
C2504 C2505 1.394 . S
C2504 C2510 1.465 . S
C2505 C2500 1.399 . S
C2505 C2504 1.394 . S
C2505 C2506 1.516 . S
C2506 C2505 1.516 . S
C2506 C2507 1.502 . S
C2506 C2508 1.561 . S
C2506 C2509 1.526 . S
C2507 H2491 0.959 . S
C2507 H2492 0.959 . S
C2507 H2493 0.961 . S
C2507 C2506 1.502 . S
C2508 H2494 0.960 . S
C2508 H2495 0.961 . S
C2508 H2496 0.959 . S
C2508 C2506 1.561 . S
C2509 C2506 1.526 . S
C2509 C2510 1.396 . S
C2509 C2514 1.390 . S
C2510 C2504 1.465 . S
C2510 C2509 1.396 . S
C2510 C2511 1.399 . S
C2511 H2497 0.929 . S
C2511 C2510 1.399 . S
C2511 C2512 1.385 . S
C2512 H2498 0.931 . S
C2512 C2511 1.385 . S
C2512 C2513 1.389 . S
C2513 C2512 1.389 . S
C2513 C2514 1.387 . S
C2514 H2499 0.930 . S
C2514 C2509 1.390 . S
C2514 C2513 1.387 . S
H2515 C2527 0.930 . S
H2516 C2529 0.930 . S
H2517 C2530 0.930 . S
H2518 C2534 0.959 . S
H2519 C2534 0.959 . S
H2520 C2534 0.961 . S
H2521 C2535 0.960 1_554 S
H2522 C2535 0.961 . S
H2523 C2535 0.959 . S
H2524 C2538 0.929 . S
H2525 C2539 0.931 . S
H2526 C2541 0.930 . S
C2527 H2515 0.930 . S
C2527 C2528 1.399 . S
C2527 C2532 1.399 1_554 S
C2528 C2527 1.399 . S
C2528 C2529 1.376 1_554 S
C2529 H2516 0.930 . S
C2529 C2528 1.376 1_556 S
C2529 C2530 1.388 . S
C2530 H2517 0.930 . S
C2530 C2529 1.388 . S
C2530 C2531 1.390 . S
C2531 C2530 1.390 . S
C2531 C2532 1.394 . S
C2531 C2537 1.465 . S
C2532 C2527 1.399 1_556 S
C2532 C2531 1.394 . S
C2532 C2533 1.516 . S
C2533 C2532 1.516 . S
C2533 C2534 1.502 1_556 S
C2533 C2535 1.561 . S
C2533 C2536 1.526 . S
C2534 H2518 0.959 . S
C2534 H2519 0.959 . S
C2534 H2520 0.961 . S
C2534 C2533 1.502 1_554 S
C2535 H2521 0.960 1_556 S
C2535 H2522 0.961 . S
C2535 H2523 0.959 . S
C2535 C2533 1.561 . S
C2536 C2533 1.526 . S
C2536 C2537 1.396 . S
C2536 C2541 1.390 . S
C2537 C2531 1.465 . S
C2537 C2536 1.396 . S
C2537 C2538 1.399 . S
C2538 H2524 0.929 . S
C2538 C2537 1.399 . S
C2538 C2539 1.385 . S
C2539 H2525 0.931 . S
C2539 C2538 1.385 . S
C2539 C2540 1.389 . S
C2540 C2539 1.389 . S
C2540 C2541 1.387 . S
C2541 H2526 0.930 . S
C2541 C2536 1.390 . S
C2541 C2540 1.387 . S
H2542 C2554 0.930 . S
H2543 C2556 0.930 . S
H2544 C2557 0.930 . S
H2545 C2561 0.959 . S
H2546 C2561 0.959 . S
H2547 C2561 0.961 . S
H2548 C2562 0.960 . S
H2549 C2562 0.961 . S
H2550 C2562 0.959 . S
H2551 C2565 0.929 . S
H2552 C2566 0.931 . S
H2553 C2568 0.930 . S
C2554 H2542 0.930 . S
C2554 C2555 1.399 . S
C2554 C2559 1.399 . S
C2555 C2554 1.399 . S
C2555 C2556 1.376 . S
C2556 H2543 0.930 . S
C2556 C2555 1.376 . S
C2556 C2557 1.388 . S
C2557 H2544 0.930 . S
C2557 C2556 1.388 . S
C2557 C2558 1.390 . S
C2558 C2557 1.390 . S
C2558 C2559 1.394 . S
C2558 C2564 1.465 . S
C2559 C2554 1.399 . S
C2559 C2558 1.394 . S
C2559 C2560 1.516 . S
C2560 C2559 1.516 . S
C2560 C2561 1.502 . S
C2560 C2562 1.561 . S
C2560 C2563 1.526 . S
C2561 H2545 0.959 . S
C2561 H2546 0.959 . S
C2561 H2547 0.961 . S
C2561 C2560 1.502 . S
C2562 H2548 0.960 . S
C2562 H2549 0.961 . S
C2562 H2550 0.959 . S
C2562 C2560 1.561 . S
C2563 C2560 1.526 . S
C2563 C2564 1.396 . S
C2563 C2568 1.390 . S
C2564 C2558 1.465 . S
C2564 C2563 1.396 . S
C2564 C2565 1.399 . S
C2565 H2551 0.929 . S
C2565 C2564 1.399 . S
C2565 C2566 1.385 . S
C2566 H2552 0.931 . S
C2566 C2565 1.385 . S
C2566 C2567 1.389 . S
C2567 C2566 1.389 . S
C2567 C2568 1.387 . S
C2568 H2553 0.930 . S
C2568 C2563 1.390 . S
C2568 C2567 1.387 . S
H2569 C2581 0.930 . S
H2570 C2583 0.930 . S
H2571 C2584 0.930 . S
H2572 C2588 0.959 . S
H2573 C2588 0.959 . S
H2574 C2588 0.961 . S
H2575 C2589 0.960 . S
H2576 C2589 0.961 . S
H2577 C2589 0.959 . S
H2578 C2592 0.929 . S
H2579 C2593 0.931 . S
H2580 C2595 0.930 . S
C2581 H2569 0.930 . S
C2581 C2582 1.399 . S
C2581 C2586 1.399 . S
C2582 C2581 1.399 . S
C2582 C2583 1.376 . S
C2583 H2570 0.930 . S
C2583 C2582 1.376 . S
C2583 C2584 1.388 . S
C2584 H2571 0.930 . S
C2584 C2583 1.388 . S
C2584 C2585 1.390 . S
C2585 C2584 1.390 . S
C2585 C2586 1.394 . S
C2585 C2591 1.465 . S
C2586 C2581 1.399 . S
C2586 C2585 1.394 . S
C2586 C2587 1.516 . S
C2587 C2586 1.516 . S
C2587 C2588 1.502 . S
C2587 C2589 1.561 . S
C2587 C2590 1.526 . S
C2588 H2572 0.959 . S
C2588 H2573 0.959 . S
C2588 H2574 0.961 . S
C2588 C2587 1.502 . S
C2589 H2575 0.960 . S
C2589 H2576 0.961 . S
C2589 H2577 0.959 . S
C2589 C2587 1.561 . S
C2590 C2587 1.526 . S
C2590 C2591 1.396 . S
C2590 C2595 1.390 . S
C2591 C2585 1.465 . S
C2591 C2590 1.396 . S
C2591 C2592 1.399 . S
C2592 H2578 0.929 . S
C2592 C2591 1.399 . S
C2592 C2593 1.385 . S
C2593 H2579 0.931 . S
C2593 C2592 1.385 . S
C2593 C2594 1.389 . S
C2594 C2593 1.389 . S
C2594 C2595 1.387 . S
C2595 H2580 0.930 . S
C2595 C2590 1.390 . S
C2595 C2594 1.387 . S
H2596 C2608 0.930 . S
H2597 C2610 0.930 . S
H2598 C2611 0.930 . S
H2599 C2615 0.959 . S
H2600 C2615 0.959 . S
H2601 C2615 0.961 . S
H2602 C2616 0.960 . S
H2603 C2616 0.961 . S
H2604 C2616 0.959 . S
H2605 C2619 0.929 . S
H2606 C2620 0.931 . S
H2607 C2622 0.930 . S
C2608 H2596 0.930 . S
C2608 C2609 1.399 . S
C2608 C2613 1.399 . S
C2609 C2608 1.399 . S
C2609 C2610 1.376 . S
C2610 H2597 0.930 . S
C2610 C2609 1.376 . S
C2610 C2611 1.388 . S
C2611 H2598 0.930 . S
C2611 C2610 1.388 . S
C2611 C2612 1.390 . S
C2612 C2611 1.390 . S
C2612 C2613 1.394 . S
C2612 C2618 1.465 . S
C2613 C2608 1.399 . S
C2613 C2612 1.394 . S
C2613 C2614 1.516 . S
C2614 C2613 1.516 . S
C2614 C2615 1.502 . S
C2614 C2616 1.561 . S
C2614 C2617 1.526 . S
C2615 H2599 0.959 . S
C2615 H2600 0.959 . S
C2615 H2601 0.961 . S
C2615 C2614 1.502 . S
C2616 H2602 0.960 . S
C2616 H2603 0.961 . S
C2616 H2604 0.959 . S
C2616 C2614 1.561 . S
C2617 C2614 1.526 . S
C2617 C2618 1.396 . S
C2617 C2622 1.390 . S
C2618 C2612 1.465 . S
C2618 C2617 1.396 . S
C2618 C2619 1.399 . S
C2619 H2605 0.929 . S
C2619 C2618 1.399 . S
C2619 C2620 1.385 . S
C2620 H2606 0.931 . S
C2620 C2619 1.385 . S
C2620 C2621 1.389 . S
C2621 C2620 1.389 . S
C2621 C2622 1.387 . S
C2622 H2607 0.930 . S
C2622 C2617 1.390 . S
C2622 C2621 1.387 . S
H2623 C2635 0.930 . S
H2624 C2637 0.930 . S
H2625 C2638 0.930 . S
H2626 C2642 0.959 . S
H2627 C2642 0.959 . S
H2628 C2642 0.961 . S
H2629 C2643 0.960 . S
H2630 C2643 0.961 . S
H2631 C2643 0.959 . S
H2632 C2646 0.929 . S
H2633 C2647 0.931 . S
H2634 C2649 0.930 . S
C2635 H2623 0.930 . S
C2635 C2636 1.399 . S
C2635 C2640 1.399 . S
C2636 C2635 1.399 . S
C2636 C2637 1.376 . S
C2637 H2624 0.930 . S
C2637 C2636 1.376 . S
C2637 C2638 1.388 . S
C2638 H2625 0.930 . S
C2638 C2637 1.388 . S
C2638 C2639 1.390 . S
C2639 C2638 1.390 . S
C2639 C2640 1.394 . S
C2639 C2645 1.465 . S
C2640 C2635 1.399 . S
C2640 C2639 1.394 . S
C2640 C2641 1.516 . S
C2641 C2640 1.516 . S
C2641 C2642 1.502 . S
C2641 C2643 1.561 . S
C2641 C2644 1.526 . S
C2642 H2626 0.959 . S
C2642 H2627 0.959 . S
C2642 H2628 0.961 . S
C2642 C2641 1.502 . S
C2643 H2629 0.960 . S
C2643 H2630 0.961 . S
C2643 H2631 0.959 . S
C2643 C2641 1.561 . S
C2644 C2641 1.526 . S
C2644 C2645 1.396 . S
C2644 C2649 1.390 . S
C2645 C2639 1.465 . S
C2645 C2644 1.396 . S
C2645 C2646 1.399 . S
C2646 H2632 0.929 . S
C2646 C2645 1.399 . S
C2646 C2647 1.385 . S
C2647 H2633 0.931 . S
C2647 C2646 1.385 . S
C2647 C2648 1.389 . S
C2648 C2647 1.389 . S
C2648 C2649 1.387 . S
C2649 H2634 0.930 . S
C2649 C2644 1.390 . S
C2649 C2648 1.387 . S
H2650 C2662 0.930 . S
H2651 C2664 0.930 . S
H2652 C2665 0.930 . S
H2653 C2669 0.959 . S
H2654 C2669 0.959 . S
H2655 C2669 0.961 . S
H2656 C2670 0.960 . S
H2657 C2670 0.961 . S
H2658 C2670 0.959 . S
H2659 C2673 0.929 . S
H2660 C2674 0.931 . S
H2661 C2676 0.930 . S
C2662 H2650 0.930 . S
C2662 C2663 1.399 . S
C2662 C2667 1.399 . S
C2663 C2662 1.399 . S
C2663 C2664 1.376 . S
C2664 H2651 0.930 . S
C2664 C2663 1.376 . S
C2664 C2665 1.388 . S
C2665 H2652 0.930 . S
C2665 C2664 1.388 . S
C2665 C2666 1.390 . S
C2666 C2665 1.390 . S
C2666 C2667 1.394 . S
C2666 C2672 1.465 . S
C2667 C2662 1.399 . S
C2667 C2666 1.394 . S
C2667 C2668 1.516 . S
C2668 C2667 1.516 . S
C2668 C2669 1.502 . S
C2668 C2670 1.561 . S
C2668 C2671 1.526 . S
C2669 H2653 0.959 . S
C2669 H2654 0.959 . S
C2669 H2655 0.961 . S
C2669 C2668 1.502 . S
C2670 H2656 0.960 . S
C2670 H2657 0.961 . S
C2670 H2658 0.959 . S
C2670 C2668 1.561 . S
C2671 C2668 1.526 . S
C2671 C2672 1.396 . S
C2671 C2676 1.390 . S
C2672 C2666 1.465 . S
C2672 C2671 1.396 . S
C2672 C2673 1.399 . S
C2673 H2659 0.929 . S
C2673 C2672 1.399 . S
C2673 C2674 1.385 . S
C2674 H2660 0.931 . S
C2674 C2673 1.385 . S
C2674 C2675 1.389 . S
C2675 C2674 1.389 . S
C2675 C2676 1.387 . S
C2676 H2661 0.930 . S
C2676 C2671 1.390 . S
C2676 C2675 1.387 . S
H2677 C2689 0.930 . S
H2678 C2691 0.930 . S
H2679 C2692 0.930 . S
H2680 C2696 0.959 . S
H2681 C2696 0.959 . S
H2682 C2696 0.961 . S
H2683 C2697 0.960 . S
H2684 C2697 0.961 . S
H2685 C2697 0.959 . S
H2686 C2700 0.929 . S
H2687 C2701 0.931 . S
H2688 C2703 0.930 . S
C2689 H2677 0.930 . S
C2689 C2690 1.399 . S
C2689 C2694 1.399 . S
C2690 C2689 1.399 . S
C2690 C2691 1.376 . S
C2691 H2678 0.930 . S
C2691 C2690 1.376 . S
C2691 C2692 1.388 . S
C2692 H2679 0.930 . S
C2692 C2691 1.388 . S
C2692 C2693 1.390 . S
C2693 C2692 1.390 . S
C2693 C2694 1.394 . S
C2693 C2699 1.465 . S
C2694 C2689 1.399 . S
C2694 C2693 1.394 . S
C2694 C2695 1.516 . S
C2695 C2694 1.516 . S
C2695 C2696 1.502 . S
C2695 C2697 1.561 . S
C2695 C2698 1.526 . S
C2696 H2680 0.959 . S
C2696 H2681 0.959 . S
C2696 H2682 0.961 . S
C2696 C2695 1.502 . S
C2697 H2683 0.960 . S
C2697 H2684 0.961 . S
C2697 H2685 0.959 . S
C2697 C2695 1.561 . S
C2698 C2695 1.526 . S
C2698 C2699 1.396 . S
C2698 C2703 1.390 . S
C2699 C2693 1.465 . S
C2699 C2698 1.396 . S
C2699 C2700 1.399 . S
C2700 H2686 0.929 . S
C2700 C2699 1.399 . S
C2700 C2701 1.385 . S
C2701 H2687 0.931 . S
C2701 C2700 1.385 . S
C2701 C2702 1.389 . S
C2702 C2701 1.389 . S
C2702 C2703 1.387 . S
C2703 H2688 0.930 . S
C2703 C2698 1.390 . S
C2703 C2702 1.387 . S
H2704 C2716 0.930 . S
H2705 C2718 0.930 . S
H2706 C2719 0.930 . S
H2707 C2723 0.959 . S
H2708 C2723 0.959 . S
H2709 C2723 0.961 . S
H2710 C2724 0.960 . S
H2711 C2724 0.961 . S
H2712 C2724 0.959 . S
H2713 C2727 0.929 . S
H2714 C2728 0.931 . S
H2715 C2730 0.930 . S
C2716 H2704 0.930 . S
C2716 C2717 1.399 . S
C2716 C2721 1.399 . S
C2717 C2716 1.399 . S
C2717 C2718 1.376 . S
C2718 H2705 0.930 . S
C2718 C2717 1.376 . S
C2718 C2719 1.388 . S
C2719 H2706 0.930 . S
C2719 C2718 1.388 . S
C2719 C2720 1.390 . S
C2720 C2719 1.390 . S
C2720 C2721 1.394 . S
C2720 C2726 1.465 . S
C2721 C2716 1.399 . S
C2721 C2720 1.394 . S
C2721 C2722 1.516 . S
C2722 C2721 1.516 . S
C2722 C2723 1.502 . S
C2722 C2724 1.561 . S
C2722 C2725 1.526 . S
C2723 H2707 0.959 . S
C2723 H2708 0.959 . S
C2723 H2709 0.961 . S
C2723 C2722 1.502 . S
C2724 H2710 0.960 . S
C2724 H2711 0.961 . S
C2724 H2712 0.959 . S
C2724 C2722 1.561 . S
C2725 C2722 1.526 . S
C2725 C2726 1.396 . S
C2725 C2730 1.390 . S
C2726 C2720 1.465 . S
C2726 C2725 1.396 . S
C2726 C2727 1.399 . S
C2727 H2713 0.929 . S
C2727 C2726 1.399 . S
C2727 C2728 1.385 . S
C2728 H2714 0.931 . S
C2728 C2727 1.385 . S
C2728 C2729 1.389 . S
C2729 C2728 1.389 . S
C2729 C2730 1.387 . S
C2730 H2715 0.930 . S
C2730 C2725 1.390 . S
C2730 C2729 1.387 . S
H2731 C2743 0.930 . S
H2732 C2745 0.930 . S
H2733 C2746 0.930 . S
H2734 C2750 0.959 . S
H2735 C2750 0.959 . S
H2736 C2750 0.961 . S
H2737 C2751 0.960 . S
H2738 C2751 0.961 . S
H2739 C2751 0.959 . S
H2740 C2754 0.929 . S
H2741 C2755 0.931 . S
H2742 C2757 0.930 . S
C2743 H2731 0.930 . S
C2743 C2744 1.399 . S
C2743 C2748 1.399 . S
C2744 C2743 1.399 . S
C2744 C2745 1.376 . S
C2745 H2732 0.930 . S
C2745 C2744 1.376 . S
C2745 C2746 1.388 . S
C2746 H2733 0.930 . S
C2746 C2745 1.388 . S
C2746 C2747 1.390 . S
C2747 C2746 1.390 . S
C2747 C2748 1.394 . S
C2747 C2753 1.465 . S
C2748 C2743 1.399 . S
C2748 C2747 1.394 . S
C2748 C2749 1.516 . S
C2749 C2748 1.516 . S
C2749 C2750 1.502 . S
C2749 C2751 1.561 . S
C2749 C2752 1.526 . S
C2750 H2734 0.959 . S
C2750 H2735 0.959 . S
C2750 H2736 0.961 . S
C2750 C2749 1.502 . S
C2751 H2737 0.960 . S
C2751 H2738 0.961 . S
C2751 H2739 0.959 . S
C2751 C2749 1.561 . S
C2752 C2749 1.526 . S
C2752 C2753 1.396 . S
C2752 C2757 1.390 . S
C2753 C2747 1.465 . S
C2753 C2752 1.396 . S
C2753 C2754 1.399 . S
C2754 H2740 0.929 . S
C2754 C2753 1.399 . S
C2754 C2755 1.385 . S
C2755 H2741 0.931 . S
C2755 C2754 1.385 . S
C2755 C2756 1.389 . S
C2756 C2755 1.389 . S
C2756 C2757 1.387 . S
C2757 H2742 0.930 . S
C2757 C2752 1.390 . S
C2757 C2756 1.387 . S
H2758 C2770 0.908 1_545 S
H2759 C2772 0.930 . S
H2760 C2773 0.930 . S
H2761 C2777 0.959 . S
H2762 C2777 0.959 . S
H2763 C2777 0.961 1_545 S
H2764 C2778 0.960 . S
H2765 C2778 0.961 . S
H2766 C2778 0.959 . S
H2767 C2781 0.929 . S
H2768 C2782 0.931 . S
H2769 C2784 0.930 . S
C2770 H2758 0.908 1_565 S
C2770 C2771 1.399 . S
C2770 C2775 1.399 . S
C2771 C2770 1.399 . S
C2771 C2772 1.376 . S
C2772 H2759 0.930 . S
C2772 C2771 1.376 . S
C2772 C2773 1.388 . S
C2773 H2760 0.930 . S
C2773 C2772 1.388 . S
C2773 C2774 1.390 . S
C2774 C2773 1.390 . S
C2774 C2775 1.394 . S
C2774 C2780 1.465 . S
C2775 C2770 1.399 . S
C2775 C2774 1.394 . S
C2775 C2776 1.516 . S
C2776 C2775 1.516 . S
C2776 C2777 1.502 . S
C2776 C2778 1.561 . S
C2776 C2779 1.526 . S
C2777 H2761 0.959 . S
C2777 H2762 0.959 . S
C2777 H2763 0.961 1_565 S
C2777 C2776 1.502 . S
C2778 H2764 0.960 . S
C2778 H2765 0.961 . S
C2778 H2766 0.959 . S
C2778 C2776 1.561 . S
C2779 C2776 1.526 . S
C2779 C2780 1.396 . S
C2779 C2784 1.390 . S
C2780 C2774 1.465 . S
C2780 C2779 1.396 . S
C2780 C2781 1.399 . S
C2781 H2767 0.929 . S
C2781 C2780 1.399 . S
C2781 C2782 1.385 . S
C2782 H2768 0.931 . S
C2782 C2781 1.385 . S
C2782 C2783 1.389 . S
C2783 C2782 1.389 . S
C2783 C2784 1.387 . S
C2784 H2769 0.930 . S
C2784 C2779 1.390 . S
C2784 C2783 1.387 . S
H2785 C2797 0.924 1_556 S
H2786 C2799 0.930 . S
H2787 C2800 0.930 . S
H2788 C2804 0.959 . S
H2789 C2804 0.959 . S
H2790 C2804 0.961 . S
H2791 C2805 0.960 . S
H2792 C2805 0.965 . S
H2793 C2805 0.959 1_545 S
H2794 C2808 0.929 1_565 S
H2795 C2809 0.931 . S
H2796 C2811 0.930 . S
C2797 H2785 0.924 1_554 S
C2797 C2798 1.403 . S
C2797 C2802 1.400 . S
C2798 C2797 1.403 . S
C2798 C2799 1.376 . S
C2799 H2786 0.930 . S
C2799 C2798 1.376 . S
C2799 C2800 1.388 . S
C2800 H2787 0.930 . S
C2800 C2799 1.388 . S
C2800 C2801 1.390 . S
C2801 C2800 1.390 . S
C2801 C2802 1.394 . S
C2801 C2807 1.465 . S
C2802 C2797 1.400 . S
C2802 C2801 1.394 . S
C2802 C2803 1.516 1_554 S
C2803 C2802 1.516 1_556 S
C2803 C2804 1.502 . S
C2803 C2805 1.561 . S
C2803 C2806 1.526 1_556 S
C2804 H2788 0.959 . S
C2804 H2789 0.959 . S
C2804 H2790 0.961 . S
C2804 C2803 1.502 . S
C2805 H2791 0.960 . S
C2805 H2792 0.965 . S
C2805 H2793 0.959 1_565 S
C2805 C2803 1.561 . S
C2806 C2803 1.526 1_554 S
C2806 C2807 1.396 . S
C2806 C2811 1.390 1_565 S
C2807 C2801 1.465 . S
C2807 C2806 1.396 . S
C2807 C2808 1.398 1_565 S
C2808 H2794 0.929 1_545 S
C2808 C2807 1.398 1_545 S
C2808 C2809 1.386 . S
C2809 H2795 0.931 . S
C2809 C2808 1.386 . S
C2809 C2810 1.389 . S
C2810 C2809 1.389 . S
C2810 C2811 1.387 . S
C2811 H2796 0.930 . S
C2811 C2806 1.390 1_545 S
C2811 C2810 1.387 . S
H2812 C2824 0.930 . S
H2813 C2826 0.930 . S
H2814 C2827 0.930 . S
H2815 C2831 0.959 . S
H2816 C2831 0.959 . S
H2817 C2831 0.961 . S
H2818 C2832 0.960 . S
H2819 C2832 0.961 . S
H2820 C2832 0.959 . S
H2821 C2835 0.929 . S
H2822 C2836 0.931 . S
H2823 C2838 0.930 . S
C2824 H2812 0.930 . S
C2824 C2825 1.399 . S
C2824 C2829 1.399 . S
C2825 C2824 1.399 . S
C2825 C2826 1.376 . S
C2826 H2813 0.930 . S
C2826 C2825 1.376 . S
C2826 C2827 1.388 . S
C2827 H2814 0.930 . S
C2827 C2826 1.388 . S
C2827 C2828 1.390 . S
C2828 C2827 1.390 . S
C2828 C2829 1.394 . S
C2828 C2834 1.465 . S
C2829 C2824 1.399 . S
C2829 C2828 1.394 . S
C2829 C2830 1.516 . S
C2830 C2829 1.516 . S
C2830 C2831 1.502 . S
C2830 C2832 1.561 . S
C2830 C2833 1.526 . S
C2831 H2815 0.959 . S
C2831 H2816 0.959 . S
C2831 H2817 0.961 . S
C2831 C2830 1.502 . S
C2832 H2818 0.960 . S
C2832 H2819 0.961 . S
C2832 H2820 0.959 . S
C2832 C2830 1.561 . S
C2833 C2830 1.526 . S
C2833 C2834 1.396 . S
C2833 C2838 1.390 . S
C2834 C2828 1.465 . S
C2834 C2833 1.396 . S
C2834 C2835 1.399 . S
C2835 H2821 0.929 . S
C2835 C2834 1.399 . S
C2835 C2836 1.385 . S
C2836 H2822 0.931 . S
C2836 C2835 1.385 . S
C2836 C2837 1.389 . S
C2837 C2836 1.389 . S
C2837 C2838 1.387 . S
C2838 H2823 0.930 . S
C2838 C2833 1.390 . S
C2838 C2837 1.387 . S
H2839 C2851 0.930 . S
H2840 C2853 0.930 . S
H2841 C2854 0.930 . S
H2842 C2858 0.959 . S
H2843 C2858 0.959 . S
H2844 C2858 0.961 . S
H2845 C2859 0.960 . S
H2846 C2859 0.961 . S
H2847 C2859 0.959 . S
H2848 C2862 0.929 . S
H2849 C2863 0.931 . S
H2850 C2865 0.930 . S
C2851 H2839 0.930 . S
C2851 C2852 1.399 . S
C2851 C2856 1.399 . S
C2852 C2851 1.399 . S
C2852 C2853 1.376 . S
C2853 H2840 0.930 . S
C2853 C2852 1.376 . S
C2853 C2854 1.388 . S
C2854 H2841 0.930 . S
C2854 C2853 1.388 . S
C2854 C2855 1.390 . S
C2855 C2854 1.390 . S
C2855 C2856 1.394 . S
C2855 C2861 1.465 . S
C2856 C2851 1.399 . S
C2856 C2855 1.394 . S
C2856 C2857 1.516 . S
C2857 C2856 1.516 . S
C2857 C2858 1.502 . S
C2857 C2859 1.561 . S
C2857 C2860 1.526 . S
C2858 H2842 0.959 . S
C2858 H2843 0.959 . S
C2858 H2844 0.961 . S
C2858 C2857 1.502 . S
C2859 H2845 0.960 . S
C2859 H2846 0.961 . S
C2859 H2847 0.959 . S
C2859 C2857 1.561 . S
C2860 C2857 1.526 . S
C2860 C2861 1.396 . S
C2860 C2865 1.390 . S
C2861 C2855 1.465 . S
C2861 C2860 1.396 . S
C2861 C2862 1.399 . S
C2862 H2848 0.929 . S
C2862 C2861 1.399 . S
C2862 C2863 1.385 . S
C2863 H2849 0.931 . S
C2863 C2862 1.385 . S
C2863 C2864 1.389 . S
C2864 C2863 1.389 . S
C2864 C2865 1.387 . S
C2865 H2850 0.930 . S
C2865 C2860 1.390 . S
C2865 C2864 1.387 . S
H2866 C2878 0.930 . S
H2867 C2880 0.930 . S
H2868 C2881 0.930 . S
H2869 C2885 0.959 . S
H2870 C2885 0.959 . S
H2871 C2885 0.961 . S
H2872 C2886 0.960 . S
H2873 C2886 0.961 . S
H2874 C2886 0.959 . S
H2875 C2889 0.929 . S
H2876 C2890 0.931 . S
H2877 C2892 0.930 . S
C2878 H2866 0.930 . S
C2878 C2879 1.399 . S
C2878 C2883 1.399 . S
C2879 C2878 1.399 . S
C2879 C2880 1.376 . S
C2880 H2867 0.930 . S
C2880 C2879 1.376 . S
C2880 C2881 1.388 . S
C2881 H2868 0.930 . S
C2881 C2880 1.388 . S
C2881 C2882 1.390 . S
C2882 C2881 1.390 . S
C2882 C2883 1.394 . S
C2882 C2888 1.465 . S
C2883 C2878 1.399 . S
C2883 C2882 1.394 . S
C2883 C2884 1.516 . S
C2884 C2883 1.516 . S
C2884 C2885 1.502 . S
C2884 C2886 1.561 . S
C2884 C2887 1.526 . S
C2885 H2869 0.959 . S
C2885 H2870 0.959 . S
C2885 H2871 0.961 . S
C2885 C2884 1.502 . S
C2886 H2872 0.960 . S
C2886 H2873 0.961 . S
C2886 H2874 0.959 . S
C2886 C2884 1.561 . S
C2887 C2884 1.526 . S
C2887 C2888 1.396 . S
C2887 C2892 1.390 . S
C2888 C2882 1.465 . S
C2888 C2887 1.396 . S
C2888 C2889 1.399 . S
C2889 H2875 0.929 . S
C2889 C2888 1.399 . S
C2889 C2890 1.385 . S
C2890 H2876 0.931 . S
C2890 C2889 1.385 . S
C2890 C2891 1.389 . S
C2891 C2890 1.389 . S
C2891 C2892 1.387 . S
C2892 H2877 0.930 . S
C2892 C2887 1.390 . S
C2892 C2891 1.387 . S
H2893 C2905 0.930 . S
H2894 C2907 0.930 . S
H2895 C2908 0.930 . S
H2896 C2912 0.959 . S
H2897 C2912 0.959 . S
H2898 C2912 0.961 . S
H2899 C2913 0.960 . S
H2900 C2913 0.961 . S
H2901 C2913 0.959 . S
H2902 C2916 0.929 . S
H2903 C2917 0.931 . S
H2904 C2919 0.930 . S
C2905 H2893 0.930 . S
C2905 C2906 1.399 . S
C2905 C2910 1.399 . S
C2906 C2905 1.399 . S
C2906 C2907 1.376 . S
C2907 H2894 0.930 . S
C2907 C2906 1.376 . S
C2907 C2908 1.388 . S
C2908 H2895 0.930 . S
C2908 C2907 1.388 . S
C2908 C2909 1.390 . S
C2909 C2908 1.390 . S
C2909 C2910 1.394 . S
C2909 C2915 1.465 . S
C2910 C2905 1.399 . S
C2910 C2909 1.394 . S
C2910 C2911 1.516 . S
C2911 C2910 1.516 . S
C2911 C2912 1.502 . S
C2911 C2913 1.561 . S
C2911 C2914 1.526 . S
C2912 H2896 0.959 . S
C2912 H2897 0.959 . S
C2912 H2898 0.961 . S
C2912 C2911 1.502 . S
C2913 H2899 0.960 . S
C2913 H2900 0.961 . S
C2913 H2901 0.959 . S
C2913 C2911 1.561 . S
C2914 C2911 1.526 . S
C2914 C2915 1.396 . S
C2914 C2919 1.390 . S
C2915 C2909 1.465 . S
C2915 C2914 1.396 . S
C2915 C2916 1.399 . S
C2916 H2902 0.929 . S
C2916 C2915 1.399 . S
C2916 C2917 1.385 . S
C2917 H2903 0.931 . S
C2917 C2916 1.385 . S
C2917 C2918 1.389 . S
C2918 C2917 1.389 . S
C2918 C2919 1.387 . S
C2919 H2904 0.930 . S
C2919 C2914 1.390 . S
C2919 C2918 1.387 . S
H2920 C2932 0.930 . S
H2921 C2934 0.930 . S
H2922 C2935 0.930 . S
H2923 C2939 0.959 . S
H2924 C2939 0.959 . S
H2925 C2939 0.961 . S
H2926 C2940 0.960 . S
H2927 C2940 0.961 . S
H2928 C2940 0.959 . S
H2929 C2943 0.929 . S
H2930 C2944 0.931 . S
H2931 C2946 0.930 . S
C2932 H2920 0.930 . S
C2932 C2933 1.399 . S
C2932 C2937 1.399 . S
C2933 C2932 1.399 . S
C2933 C2934 1.376 . S
C2934 H2921 0.930 . S
C2934 C2933 1.376 . S
C2934 C2935 1.388 . S
C2935 H2922 0.930 . S
C2935 C2934 1.388 . S
C2935 C2936 1.390 . S
C2936 C2935 1.390 . S
C2936 C2937 1.394 . S
C2936 C2942 1.465 . S
C2937 C2932 1.399 . S
C2937 C2936 1.394 . S
C2937 C2938 1.516 . S
C2938 C2937 1.516 . S
C2938 C2939 1.502 . S
C2938 C2940 1.561 . S
C2938 C2941 1.526 . S
C2939 H2923 0.959 . S
C2939 H2924 0.959 . S
C2939 H2925 0.961 . S
C2939 C2938 1.502 . S
C2940 H2926 0.960 . S
C2940 H2927 0.961 . S
C2940 H2928 0.959 . S
C2940 C2938 1.561 . S
C2941 C2938 1.526 . S
C2941 C2942 1.396 . S
C2941 C2946 1.390 . S
C2942 C2936 1.465 . S
C2942 C2941 1.396 . S
C2942 C2943 1.399 . S
C2943 H2929 0.929 . S
C2943 C2942 1.399 . S
C2943 C2944 1.385 . S
C2944 H2930 0.931 . S
C2944 C2943 1.385 . S
C2944 C2945 1.389 . S
C2945 C2944 1.389 . S
C2945 C2946 1.387 . S
C2946 H2931 0.930 . S
C2946 C2941 1.390 . S
C2946 C2945 1.387 . S
H2947 C2959 0.930 . S
H2948 C2961 0.930 . S
H2949 C2962 0.930 . S
H2950 C2966 0.959 . S
H2951 C2966 0.959 . S
H2952 C2966 0.961 . S
H2953 C2967 0.960 . S
H2954 C2967 0.961 . S
H2955 C2967 0.959 . S
H2956 C2970 0.929 . S
H2957 C2971 0.931 . S
H2958 C2973 0.930 . S
C2959 H2947 0.930 . S
C2959 C2960 1.399 . S
C2959 C2964 1.399 . S
C2960 C2959 1.399 . S
C2960 C2961 1.376 . S
C2961 H2948 0.930 . S
C2961 C2960 1.376 . S
C2961 C2962 1.388 . S
C2962 H2949 0.930 . S
C2962 C2961 1.388 . S
C2962 C2963 1.390 . S
C2963 C2962 1.390 . S
C2963 C2964 1.394 . S
C2963 C2969 1.465 . S
C2964 C2959 1.399 . S
C2964 C2963 1.394 . S
C2964 C2965 1.516 . S
C2965 C2964 1.516 . S
C2965 C2966 1.502 . S
C2965 C2967 1.561 . S
C2965 C2968 1.526 . S
C2966 H2950 0.959 . S
C2966 H2951 0.959 . S
C2966 H2952 0.961 . S
C2966 C2965 1.502 . S
C2967 H2953 0.960 . S
C2967 H2954 0.961 . S
C2967 H2955 0.959 . S
C2967 C2965 1.561 . S
C2968 C2965 1.526 . S
C2968 C2969 1.396 . S
C2968 C2973 1.390 . S
C2969 C2963 1.465 . S
C2969 C2968 1.396 . S
C2969 C2970 1.399 . S
C2970 H2956 0.929 . S
C2970 C2969 1.399 . S
C2970 C2971 1.385 . S
C2971 H2957 0.931 . S
C2971 C2970 1.385 . S
C2971 C2972 1.389 . S
C2972 C2971 1.389 . S
C2972 C2973 1.387 . S
C2973 H2958 0.930 . S
C2973 C2968 1.390 . S
C2973 C2972 1.387 . S
H2974 C2986 0.930 . S
H2975 C2988 0.930 . S
H2976 C2989 0.930 . S
H2977 C2993 0.959 . S
H2978 C2993 0.959 . S
H2979 C2993 0.961 . S
H2980 C2994 0.960 . S
H2981 C2994 0.961 . S
H2982 C2994 0.959 . S
H2983 C2997 0.929 . S
H2984 C2998 0.931 . S
H2985 C3000 0.930 . S
C2986 H2974 0.930 . S
C2986 C2987 1.399 . S
C2986 C2991 1.399 . S
C2987 C2986 1.399 . S
C2987 C2988 1.376 . S
C2988 H2975 0.930 . S
C2988 C2987 1.376 . S
C2988 C2989 1.388 . S
C2989 H2976 0.930 . S
C2989 C2988 1.388 . S
C2989 C2990 1.390 . S
C2990 C2989 1.390 . S
C2990 C2991 1.394 . S
C2990 C2996 1.465 . S
C2991 C2986 1.399 . S
C2991 C2990 1.394 . S
C2991 C2992 1.516 . S
C2992 C2991 1.516 . S
C2992 C2993 1.502 . S
C2992 C2994 1.561 . S
C2992 C2995 1.526 . S
C2993 H2977 0.959 . S
C2993 H2978 0.959 . S
C2993 H2979 0.961 . S
C2993 C2992 1.502 . S
C2994 H2980 0.960 . S
C2994 H2981 0.961 . S
C2994 H2982 0.959 . S
C2994 C2992 1.561 . S
C2995 C2992 1.526 . S
C2995 C2996 1.396 . S
C2995 C3000 1.390 . S
C2996 C2990 1.465 . S
C2996 C2995 1.396 . S
C2996 C2997 1.399 . S
C2997 H2983 0.929 . S
C2997 C2996 1.399 . S
C2997 C2998 1.385 . S
C2998 H2984 0.931 . S
C2998 C2997 1.385 . S
C2998 C2999 1.389 . S
C2999 C2998 1.389 . S
C2999 C3000 1.387 . S
C3000 H2985 0.930 . S
C3000 C2995 1.390 . S
C3000 C2999 1.387 . S
H3001 C3013 0.930 . S
H3002 C3015 0.930 . S
H3003 C3016 0.930 . S
H3004 C3020 0.959 . S
H3005 C3020 0.959 . S
H3006 C3020 0.961 . S
H3007 C3021 0.960 . S
H3008 C3021 0.961 . S
H3009 C3021 0.959 . S
H3010 C3024 0.929 . S
H3011 C3025 0.931 . S
H3012 C3027 0.930 . S
C3013 H3001 0.930 . S
C3013 C3014 1.399 . S
C3013 C3018 1.399 . S
C3014 C3013 1.399 . S
C3014 C3015 1.376 . S
C3015 H3002 0.930 . S
C3015 C3014 1.376 . S
C3015 C3016 1.388 . S
C3016 H3003 0.930 . S
C3016 C3015 1.388 . S
C3016 C3017 1.390 . S
C3017 C3016 1.390 . S
C3017 C3018 1.394 . S
C3017 C3023 1.465 . S
C3018 C3013 1.399 . S
C3018 C3017 1.394 . S
C3018 C3019 1.516 . S
C3019 C3018 1.516 . S
C3019 C3020 1.502 . S
C3019 C3021 1.561 . S
C3019 C3022 1.526 . S
C3020 H3004 0.959 . S
C3020 H3005 0.959 . S
C3020 H3006 0.961 . S
C3020 C3019 1.502 . S
C3021 H3007 0.960 . S
C3021 H3008 0.961 . S
C3021 H3009 0.959 . S
C3021 C3019 1.561 . S
C3022 C3019 1.526 . S
C3022 C3023 1.396 . S
C3022 C3027 1.390 . S
C3023 C3017 1.465 . S
C3023 C3022 1.396 . S
C3023 C3024 1.399 . S
C3024 H3010 0.929 . S
C3024 C3023 1.399 . S
C3024 C3025 1.385 . S
C3025 H3011 0.931 . S
C3025 C3024 1.385 . S
C3025 C3026 1.389 . S
C3026 C3025 1.389 . S
C3026 C3027 1.387 . S
C3027 H3012 0.930 . S
C3027 C3022 1.390 . S
C3027 C3026 1.387 . S
H3028 C3040 0.930 . S
H3029 C3042 0.930 . S
H3030 C3043 0.930 . S
H3031 C3047 0.959 . S
H3032 C3047 0.959 . S
H3033 C3047 0.961 . S
H3034 C3048 0.960 . S
H3035 C3048 0.961 . S
H3036 C3048 0.959 . S
H3037 C3051 0.929 . S
H3038 C3052 0.931 . S
H3039 C3054 0.930 . S
C3040 H3028 0.930 . S
C3040 C3041 1.399 . S
C3040 C3045 1.399 . S
C3041 C3040 1.399 . S
C3041 C3042 1.376 . S
C3042 H3029 0.930 . S
C3042 C3041 1.376 . S
C3042 C3043 1.388 . S
C3043 H3030 0.930 . S
C3043 C3042 1.388 . S
C3043 C3044 1.390 . S
C3044 C3043 1.390 . S
C3044 C3045 1.394 . S
C3044 C3050 1.465 . S
C3045 C3040 1.399 . S
C3045 C3044 1.394 . S
C3045 C3046 1.516 . S
C3046 C3045 1.516 . S
C3046 C3047 1.502 . S
C3046 C3048 1.561 . S
C3046 C3049 1.526 . S
C3047 H3031 0.959 . S
C3047 H3032 0.959 . S
C3047 H3033 0.961 . S
C3047 C3046 1.502 . S
C3048 H3034 0.960 . S
C3048 H3035 0.961 . S
C3048 H3036 0.959 . S
C3048 C3046 1.561 . S
C3049 C3046 1.526 . S
C3049 C3050 1.396 . S
C3049 C3054 1.390 . S
C3050 C3044 1.465 . S
C3050 C3049 1.396 . S
C3050 C3051 1.399 . S
C3051 H3037 0.929 . S
C3051 C3050 1.399 . S
C3051 C3052 1.385 . S
C3052 H3038 0.931 . S
C3052 C3051 1.385 . S
C3052 C3053 1.389 . S
C3053 C3052 1.389 . S
C3053 C3054 1.387 . S
C3054 H3039 0.930 . S
C3054 C3049 1.390 . S
C3054 C3053 1.387 . S
H3055 C3067 0.930 . S
H3056 C3069 0.930 . S
H3057 C3070 0.930 . S
H3058 C3074 0.959 . S
H3059 C3074 0.959 . S
H3060 C3074 0.961 . S
H3061 C3075 0.960 . S
H3062 C3075 0.961 . S
H3063 C3075 0.959 . S
H3064 C3078 0.929 . S
H3065 C3079 0.931 . S
H3066 C3081 0.930 . S
C3067 H3055 0.930 . S
C3067 C3068 1.399 . S
C3067 C3072 1.399 . S
C3068 C3067 1.399 . S
C3068 C3069 1.376 . S
C3069 H3056 0.930 . S
C3069 C3068 1.376 . S
C3069 C3070 1.388 . S
C3070 H3057 0.930 . S
C3070 C3069 1.388 . S
C3070 C3071 1.390 . S
C3071 C3070 1.390 . S
C3071 C3072 1.394 . S
C3071 C3077 1.465 . S
C3072 C3067 1.399 . S
C3072 C3071 1.394 . S
C3072 C3073 1.516 . S
C3073 C3072 1.516 . S
C3073 C3074 1.502 . S
C3073 C3075 1.561 . S
C3073 C3076 1.526 . S
C3074 H3058 0.959 . S
C3074 H3059 0.959 . S
C3074 H3060 0.961 . S
C3074 C3073 1.502 . S
C3075 H3061 0.960 . S
C3075 H3062 0.961 . S
C3075 H3063 0.959 . S
C3075 C3073 1.561 . S
C3076 C3073 1.526 . S
C3076 C3077 1.396 . S
C3076 C3081 1.390 . S
C3077 C3071 1.465 . S
C3077 C3076 1.396 . S
C3077 C3078 1.399 . S
C3078 H3064 0.929 . S
C3078 C3077 1.399 . S
C3078 C3079 1.385 . S
C3079 H3065 0.931 . S
C3079 C3078 1.385 . S
C3079 C3080 1.389 . S
C3080 C3079 1.389 . S
C3080 C3081 1.387 . S
C3081 H3066 0.930 . S
C3081 C3076 1.390 . S
C3081 C3080 1.387 . S
H3082 C3094 0.930 . S
H3083 C3096 0.930 . S
H3084 C3097 0.930 . S
H3085 C3101 0.959 . S
H3086 C3101 0.959 . S
H3087 C3101 0.961 . S
H3088 C3102 0.960 . S
H3089 C3102 0.961 . S
H3090 C3102 0.959 . S
H3091 C3105 0.929 . S
H3092 C3106 0.931 . S
H3093 C3108 0.930 . S
C3094 H3082 0.930 . S
C3094 C3095 1.399 . S
C3094 C3099 1.399 . S
C3095 C3094 1.399 . S
C3095 C3096 1.376 . S
C3096 H3083 0.930 . S
C3096 C3095 1.376 . S
C3096 C3097 1.388 . S
C3097 H3084 0.930 . S
C3097 C3096 1.388 . S
C3097 C3098 1.390 . S
C3098 C3097 1.390 . S
C3098 C3099 1.394 . S
C3098 C3104 1.465 . S
C3099 C3094 1.399 . S
C3099 C3098 1.394 . S
C3099 C3100 1.516 . S
C3100 C3099 1.516 . S
C3100 C3101 1.502 1_455 S
C3100 C3102 1.561 . S
C3100 C3103 1.526 . S
C3101 H3085 0.959 . S
C3101 H3086 0.959 . S
C3101 H3087 0.961 . S
C3101 C3100 1.502 1_655 S
C3102 H3088 0.960 . S
C3102 H3089 0.961 . S
C3102 H3090 0.959 . S
C3102 C3100 1.561 . S
C3103 C3100 1.526 . S
C3103 C3104 1.396 . S
C3103 C3108 1.390 . S
C3104 C3098 1.465 . S
C3104 C3103 1.396 . S
C3104 C3105 1.399 . S
C3105 H3091 0.929 . S
C3105 C3104 1.399 . S
C3105 C3106 1.385 . S
C3106 H3092 0.931 . S
C3106 C3105 1.385 . S
C3106 C3107 1.389 . S
C3107 C3106 1.389 . S
C3107 C3108 1.387 . S
C3108 H3093 0.930 . S
C3108 C3103 1.390 . S
C3108 C3107 1.387 . S
H3109 C3121 0.930 . S
H3110 C3123 0.930 . S
H3111 C3124 0.930 . S
H3112 C3128 0.959 . S
H3113 C3128 0.959 . S
H3114 C3128 0.961 . S
H3115 C3129 0.960 . S
H3116 C3129 0.961 . S
H3117 C3129 0.959 . S
H3118 C3132 0.929 . S
H3119 C3133 0.931 . S
H3120 C3135 0.930 . S
C3121 H3109 0.930 . S
C3121 C3122 1.399 . S
C3121 C3126 1.399 . S
C3122 C3121 1.399 . S
C3122 C3123 1.376 . S
C3123 H3110 0.930 . S
C3123 C3122 1.376 . S
C3123 C3124 1.388 . S
C3124 H3111 0.930 . S
C3124 C3123 1.388 . S
C3124 C3125 1.390 . S
C3125 C3124 1.390 . S
C3125 C3126 1.394 . S
C3125 C3131 1.465 . S
C3126 C3121 1.399 . S
C3126 C3125 1.394 . S
C3126 C3127 1.516 . S
C3127 C3126 1.516 . S
C3127 C3128 1.502 . S
C3127 C3129 1.561 . S
C3127 C3130 1.526 . S
C3128 H3112 0.959 . S
C3128 H3113 0.959 . S
C3128 H3114 0.961 . S
C3128 C3127 1.502 . S
C3129 H3115 0.960 . S
C3129 H3116 0.961 . S
C3129 H3117 0.959 . S
C3129 C3127 1.561 . S
C3130 C3127 1.526 . S
C3130 C3131 1.396 . S
C3130 C3135 1.390 . S
C3131 C3125 1.465 . S
C3131 C3130 1.396 . S
C3131 C3132 1.399 . S
C3132 H3118 0.929 . S
C3132 C3131 1.399 . S
C3132 C3133 1.385 . S
C3133 H3119 0.931 . S
C3133 C3132 1.385 . S
C3133 C3134 1.389 . S
C3134 C3133 1.389 . S
C3134 C3135 1.387 . S
C3135 H3120 0.930 . S
C3135 C3130 1.390 . S
C3135 C3134 1.387 . S
H3136 C3148 0.930 . S
H3137 C3150 0.930 . S
H3138 C3151 0.930 . S
H3139 C3155 0.959 . S
H3140 C3155 0.959 . S
H3141 C3155 0.961 . S
H3142 C3156 0.960 . S
H3143 C3156 0.961 . S
H3144 C3156 0.959 . S
H3145 C3159 0.929 . S
H3146 C3160 0.931 . S
H3147 C3162 0.930 . S
C3148 H3136 0.930 . S
C3148 C3149 1.399 . S
C3148 C3153 1.399 . S
C3149 C3148 1.399 . S
C3149 C3150 1.376 . S
C3150 H3137 0.930 . S
C3150 C3149 1.376 . S
C3150 C3151 1.388 . S
C3151 H3138 0.930 . S
C3151 C3150 1.388 . S
C3151 C3152 1.390 . S
C3152 C3151 1.390 . S
C3152 C3153 1.394 . S
C3152 C3158 1.465 . S
C3153 C3148 1.399 . S
C3153 C3152 1.394 . S
C3153 C3154 1.516 . S
C3154 C3153 1.516 . S
C3154 C3155 1.502 . S
C3154 C3156 1.561 . S
C3154 C3157 1.526 . S
C3155 H3139 0.959 . S
C3155 H3140 0.959 . S
C3155 H3141 0.961 . S
C3155 C3154 1.502 . S
C3156 H3142 0.960 . S
C3156 H3143 0.961 . S
C3156 H3144 0.959 . S
C3156 C3154 1.561 . S
C3157 C3154 1.526 . S
C3157 C3158 1.396 . S
C3157 C3162 1.390 . S
C3158 C3152 1.465 . S
C3158 C3157 1.396 . S
C3158 C3159 1.399 . S
C3159 H3145 0.929 . S
C3159 C3158 1.399 . S
C3159 C3160 1.385 . S
C3160 H3146 0.931 . S
C3160 C3159 1.385 . S
C3160 C3161 1.389 . S
C3161 C3160 1.389 . S
C3161 C3162 1.387 . S
C3162 H3147 0.930 . S
C3162 C3157 1.390 . S
C3162 C3161 1.387 . S
H3163 C3175 0.930 . S
H3164 C3177 0.930 . S
H3165 C3178 0.930 . S
H3166 C3182 0.959 . S
H3167 C3182 0.959 . S
H3168 C3182 0.961 . S
H3169 C3183 0.960 . S
H3170 C3183 0.961 . S
H3171 C3183 0.959 . S
H3172 C3186 0.929 . S
H3173 C3187 0.931 . S
H3174 C3189 0.930 . S
C3175 H3163 0.930 . S
C3175 C3176 1.399 . S
C3175 C3180 1.399 . S
C3176 C3175 1.399 . S
C3176 C3177 1.376 . S
C3177 H3164 0.930 . S
C3177 C3176 1.376 . S
C3177 C3178 1.388 . S
C3178 H3165 0.930 . S
C3178 C3177 1.388 . S
C3178 C3179 1.390 . S
C3179 C3178 1.390 . S
C3179 C3180 1.394 . S
C3179 C3185 1.465 . S
C3180 C3175 1.399 . S
C3180 C3179 1.394 . S
C3180 C3181 1.516 . S
C3181 C3180 1.516 . S
C3181 C3182 1.502 . S
C3181 C3183 1.561 . S
C3181 C3184 1.526 . S
C3182 H3166 0.959 . S
C3182 H3167 0.959 . S
C3182 H3168 0.961 . S
C3182 C3181 1.502 . S
C3183 H3169 0.960 . S
C3183 H3170 0.961 . S
C3183 H3171 0.959 . S
C3183 C3181 1.561 . S
C3184 C3181 1.526 . S
C3184 C3185 1.396 . S
C3184 C3189 1.390 . S
C3185 C3179 1.465 . S
C3185 C3184 1.396 . S
C3185 C3186 1.399 . S
C3186 H3172 0.929 . S
C3186 C3185 1.399 . S
C3186 C3187 1.385 . S
C3187 H3173 0.931 . S
C3187 C3186 1.385 . S
C3187 C3188 1.389 . S
C3188 C3187 1.389 . S
C3188 C3189 1.387 . S
C3189 H3174 0.930 . S
C3189 C3184 1.390 . S
C3189 C3188 1.387 . S
H3190 C3202 0.930 . S
H3191 C3204 0.930 . S
H3192 C3205 0.930 . S
H3193 C3209 0.959 . S
H3194 C3209 0.959 . S
H3195 C3209 0.961 . S
H3196 C3210 0.960 . S
H3197 C3210 0.961 . S
H3198 C3210 0.959 . S
H3199 C3213 0.929 . S
H3200 C3214 0.917 1_554 S
H3201 C3216 0.936 . S
C3202 H3190 0.930 . S
C3202 C3203 1.399 . S
C3202 C3207 1.399 . S
C3203 C3202 1.399 . S
C3203 C3204 1.376 . S
C3204 H3191 0.930 . S
C3204 C3203 1.376 . S
C3204 C3205 1.388 . S
C3205 H3192 0.930 . S
C3205 C3204 1.388 . S
C3205 C3206 1.390 . S
C3206 C3205 1.390 . S
C3206 C3207 1.394 . S
C3206 C3212 1.465 . S
C3207 C3202 1.399 . S
C3207 C3206 1.394 . S
C3207 C3208 1.516 . S
C3208 C3207 1.516 . S
C3208 C3209 1.502 . S
C3208 C3210 1.561 . S
C3208 C3211 1.526 . S
C3209 H3193 0.959 . S
C3209 H3194 0.959 . S
C3209 H3195 0.961 . S
C3209 C3208 1.502 . S
C3210 H3196 0.960 . S
C3210 H3197 0.961 . S
C3210 H3198 0.959 . S
C3210 C3208 1.561 . S
C3211 C3208 1.526 . S
C3211 C3212 1.396 . S
C3211 C3216 1.390 . S
C3212 C3206 1.465 . S
C3212 C3211 1.396 . S
C3212 C3213 1.399 . S
C3213 H3199 0.929 . S
C3213 C3212 1.399 . S
C3213 C3214 1.401 . S
C3214 H3200 0.917 1_556 S
C3214 C3213 1.401 . S
C3214 C3215 1.387 1_656 S
C3215 C3214 1.387 1_454 S
C3215 C3216 1.384 1_454 S
C3216 H3201 0.936 . S
C3216 C3211 1.390 . S
C3216 C3215 1.384 1_656 S
H3217 C3229 0.930 . S
H3218 C3231 0.930 . S
H3219 C3232 0.930 . S
H3220 C3236 0.959 . S
H3221 C3236 0.959 . S
H3222 C3236 0.961 . S
H3223 C3237 0.960 . S
H3224 C3237 0.961 . S
H3225 C3237 0.959 . S
H3226 C3240 0.929 . S
H3227 C3241 0.931 . S
H3228 C3243 0.930 . S
C3229 H3217 0.930 . S
C3229 C3230 1.399 . S
C3229 C3234 1.399 . S
C3230 C3229 1.399 . S
C3230 C3231 1.376 . S
C3231 H3218 0.930 . S
C3231 C3230 1.376 . S
C3231 C3232 1.388 . S
C3232 H3219 0.930 . S
C3232 C3231 1.388 . S
C3232 C3233 1.390 . S
C3233 C3232 1.390 . S
C3233 C3234 1.394 . S
C3233 C3239 1.465 . S
C3234 C3229 1.399 . S
C3234 C3233 1.394 . S
C3234 C3235 1.516 . S
C3235 C3234 1.516 . S
C3235 C3236 1.502 . S
C3235 C3237 1.561 . S
C3235 C3238 1.526 . S
C3236 H3220 0.959 . S
C3236 H3221 0.959 . S
C3236 H3222 0.961 . S
C3236 C3235 1.502 . S
C3237 H3223 0.960 . S
C3237 H3224 0.961 . S
C3237 H3225 0.959 . S
C3237 C3235 1.561 . S
C3238 C3235 1.526 . S
C3238 C3239 1.396 . S
C3238 C3243 1.390 . S
C3239 C3233 1.465 . S
C3239 C3238 1.396 . S
C3239 C3240 1.399 . S
C3240 H3226 0.929 . S
C3240 C3239 1.399 . S
C3240 C3241 1.385 . S
C3241 H3227 0.931 . S
C3241 C3240 1.385 . S
C3241 C3242 1.389 . S
C3242 C3241 1.389 . S
C3242 C3243 1.387 . S
C3243 H3228 0.930 . S
C3243 C3238 1.390 . S
C3243 C3242 1.387 . S
H3244 C3256 0.930 . S
H3245 C3258 0.930 . S
H3246 C3259 0.930 . S
H3247 C3263 0.959 . S
H3248 C3263 0.959 . S
H3249 C3263 0.961 . S
H3250 C3264 0.960 . S
H3251 C3264 0.961 . S
H3252 C3264 0.959 . S
H3253 C3267 0.929 . S
H3254 C3268 0.931 . S
H3255 C3270 0.930 . S
C3256 H3244 0.930 . S
C3256 C3257 1.399 . S
C3256 C3261 1.399 . S
C3257 C3256 1.399 . S
C3257 C3258 1.376 . S
C3258 H3245 0.930 . S
C3258 C3257 1.376 . S
C3258 C3259 1.388 . S
C3259 H3246 0.930 . S
C3259 C3258 1.388 . S
C3259 C3260 1.390 . S
C3260 C3259 1.390 . S
C3260 C3261 1.394 . S
C3260 C3266 1.465 . S
C3261 C3256 1.399 . S
C3261 C3260 1.394 . S
C3261 C3262 1.516 . S
C3262 C3261 1.516 . S
C3262 C3263 1.502 . S
C3262 C3264 1.561 . S
C3262 C3265 1.526 . S
C3263 H3247 0.959 . S
C3263 H3248 0.959 . S
C3263 H3249 0.961 . S
C3263 C3262 1.502 . S
C3264 H3250 0.960 . S
C3264 H3251 0.961 . S
C3264 H3252 0.959 . S
C3264 C3262 1.561 . S
C3265 C3262 1.526 . S
C3265 C3266 1.396 . S
C3265 C3270 1.390 . S
C3266 C3260 1.465 . S
C3266 C3265 1.396 . S
C3266 C3267 1.399 . S
C3267 H3253 0.929 . S
C3267 C3266 1.399 . S
C3267 C3268 1.385 . S
C3268 H3254 0.931 . S
C3268 C3267 1.385 . S
C3268 C3269 1.389 . S
C3269 C3268 1.389 . S
C3269 C3270 1.387 . S
C3270 H3255 0.930 . S
C3270 C3265 1.390 . S
C3270 C3269 1.387 . S
H3271 C3283 0.930 . S
H3272 C3285 0.930 . S
H3273 C3286 0.930 . S
H3274 C3290 0.959 . S
H3275 C3290 0.959 . S
H3276 C3290 0.961 . S
H3277 C3291 0.960 . S
H3278 C3291 0.961 . S
H3279 C3291 0.959 . S
H3280 C3294 0.929 . S
H3281 C3295 0.931 . S
H3282 C3297 0.930 . S
C3283 H3271 0.930 . S
C3283 C3284 1.399 . S
C3283 C3288 1.399 . S
C3284 C3283 1.399 . S
C3284 C3285 1.376 . S
C3285 H3272 0.930 . S
C3285 C3284 1.376 . S
C3285 C3286 1.388 . S
C3286 H3273 0.930 . S
C3286 C3285 1.388 . S
C3286 C3287 1.390 . S
C3287 C3286 1.390 . S
C3287 C3288 1.394 . S
C3287 C3293 1.465 . S
C3288 C3283 1.399 . S
C3288 C3287 1.394 . S
C3288 C3289 1.516 . S
C3289 C3288 1.516 . S
C3289 C3290 1.502 . S
C3289 C3291 1.561 . S
C3289 C3292 1.526 . S
C3290 H3274 0.959 . S
C3290 H3275 0.959 . S
C3290 H3276 0.961 . S
C3290 C3289 1.502 . S
C3291 H3277 0.960 . S
C3291 H3278 0.961 . S
C3291 H3279 0.959 . S
C3291 C3289 1.561 . S
C3292 C3289 1.526 . S
C3292 C3293 1.396 . S
C3292 C3297 1.390 . S
C3293 C3287 1.465 . S
C3293 C3292 1.396 . S
C3293 C3294 1.399 . S
C3294 H3280 0.929 . S
C3294 C3293 1.399 . S
C3294 C3295 1.385 . S
C3295 H3281 0.931 . S
C3295 C3294 1.385 . S
C3295 C3296 1.389 . S
C3296 C3295 1.389 . S
C3296 C3297 1.387 . S
C3297 H3282 0.930 . S
C3297 C3292 1.390 . S
C3297 C3296 1.387 . S
H3298 C3310 0.930 . S
H3299 C3312 0.930 . S
H3300 C3313 0.930 . S
H3301 C3317 0.959 . S
H3302 C3317 0.959 . S
H3303 C3317 0.961 . S
H3304 C3318 0.960 . S
H3305 C3318 0.961 . S
H3306 C3318 0.959 . S
H3307 C3321 0.929 . S
H3308 C3322 0.931 . S
H3309 C3324 0.930 . S
C3310 H3298 0.930 . S
C3310 C3311 1.399 . S
C3310 C3315 1.399 . S
C3311 C3310 1.399 . S
C3311 C3312 1.376 . S
C3312 H3299 0.930 . S
C3312 C3311 1.376 . S
C3312 C3313 1.388 . S
C3313 H3300 0.930 . S
C3313 C3312 1.388 . S
C3313 C3314 1.390 . S
C3314 C3313 1.390 . S
C3314 C3315 1.394 . S
C3314 C3320 1.465 . S
C3315 C3310 1.399 . S
C3315 C3314 1.394 . S
C3315 C3316 1.516 . S
C3316 C3315 1.516 . S
C3316 C3317 1.502 . S
C3316 C3318 1.561 . S
C3316 C3319 1.526 . S
C3317 H3301 0.959 . S
C3317 H3302 0.959 . S
C3317 H3303 0.961 . S
C3317 C3316 1.502 . S
C3318 H3304 0.960 . S
C3318 H3305 0.961 . S
C3318 H3306 0.959 . S
C3318 C3316 1.561 . S
C3319 C3316 1.526 . S
C3319 C3320 1.396 . S
C3319 C3324 1.390 . S
C3320 C3314 1.465 . S
C3320 C3319 1.396 . S
C3320 C3321 1.399 . S
C3321 H3307 0.929 . S
C3321 C3320 1.399 . S
C3321 C3322 1.385 . S
C3322 H3308 0.931 . S
C3322 C3321 1.385 . S
C3322 C3323 1.389 . S
C3323 C3322 1.389 . S
C3323 C3324 1.387 . S
C3324 H3309 0.930 . S
C3324 C3319 1.390 . S
C3324 C3323 1.387 . S
H3325 C3337 0.930 . S
H3326 C3339 0.930 . S
H3327 C3340 0.930 . S
H3328 C3344 0.959 . S
H3329 C3344 0.959 . S
H3330 C3344 0.961 . S
H3331 C3345 0.960 . S
H3332 C3345 0.961 . S
H3333 C3345 0.959 . S
H3334 C3348 0.929 . S
H3335 C3349 0.931 . S
H3336 C3351 0.930 . S
C3337 H3325 0.930 . S
C3337 C3338 1.399 . S
C3337 C3342 1.399 . S
C3338 C3337 1.399 . S
C3338 C3339 1.376 . S
C3339 H3326 0.930 . S
C3339 C3338 1.376 . S
C3339 C3340 1.388 . S
C3340 H3327 0.930 . S
C3340 C3339 1.388 . S
C3340 C3341 1.390 . S
C3341 C3340 1.390 . S
C3341 C3342 1.394 . S
C3341 C3347 1.465 . S
C3342 C3337 1.399 . S
C3342 C3341 1.394 . S
C3342 C3343 1.516 . S
C3343 C3342 1.516 . S
C3343 C3344 1.502 . S
C3343 C3345 1.561 . S
C3343 C3346 1.526 . S
C3344 H3328 0.959 . S
C3344 H3329 0.959 . S
C3344 H3330 0.961 . S
C3344 C3343 1.502 . S
C3345 H3331 0.960 . S
C3345 H3332 0.961 . S
C3345 H3333 0.959 . S
C3345 C3343 1.561 . S
C3346 C3343 1.526 . S
C3346 C3347 1.396 . S
C3346 C3351 1.390 . S
C3347 C3341 1.465 . S
C3347 C3346 1.396 . S
C3347 C3348 1.399 . S
C3348 H3334 0.929 . S
C3348 C3347 1.399 . S
C3348 C3349 1.385 . S
C3349 H3335 0.931 . S
C3349 C3348 1.385 . S
C3349 C3350 1.389 . S
C3350 C3349 1.389 . S
C3350 C3351 1.387 . S
C3351 H3336 0.930 . S
C3351 C3346 1.390 . S
C3351 C3350 1.387 . S
H3352 C3364 0.930 . S
H3353 C3366 0.930 . S
H3354 C3367 0.930 . S
H3355 C3371 0.959 . S
H3356 C3371 0.959 . S
H3357 C3371 0.961 . S
H3358 C3372 0.960 . S
H3359 C3372 0.961 . S
H3360 C3372 0.959 . S
H3361 C3375 0.929 . S
H3362 C3376 0.931 . S
H3363 C3378 0.930 . S
C3364 H3352 0.930 . S
C3364 C3365 1.399 . S
C3364 C3369 1.399 . S
C3365 C3364 1.399 . S
C3365 C3366 1.376 . S
C3366 H3353 0.930 . S
C3366 C3365 1.376 . S
C3366 C3367 1.388 . S
C3367 H3354 0.930 . S
C3367 C3366 1.388 . S
C3367 C3368 1.390 . S
C3368 C3367 1.390 . S
C3368 C3369 1.394 . S
C3368 C3374 1.465 . S
C3369 C3364 1.399 . S
C3369 C3368 1.394 . S
C3369 C3370 1.516 . S
C3370 C3369 1.516 . S
C3370 C3371 1.502 . S
C3370 C3372 1.561 . S
C3370 C3373 1.526 . S
C3371 H3355 0.959 . S
C3371 H3356 0.959 . S
C3371 H3357 0.961 . S
C3371 C3370 1.502 . S
C3372 H3358 0.960 . S
C3372 H3359 0.961 . S
C3372 H3360 0.959 . S
C3372 C3370 1.561 . S
C3373 C3370 1.526 . S
C3373 C3374 1.396 . S
C3373 C3378 1.390 . S
C3374 C3368 1.465 . S
C3374 C3373 1.396 . S
C3374 C3375 1.399 . S
C3375 H3361 0.929 . S
C3375 C3374 1.399 . S
C3375 C3376 1.385 . S
C3376 H3362 0.931 . S
C3376 C3375 1.385 . S
C3376 C3377 1.389 . S
C3377 C3376 1.389 . S
C3377 C3378 1.387 . S
C3378 H3363 0.930 . S
C3378 C3373 1.390 . S
C3378 C3377 1.387 . S
H3379 C3391 0.930 . S
H3380 C3393 0.930 . S
H3381 C3394 0.930 . S
H3382 C3398 0.959 . S
H3383 C3398 0.959 . S
H3384 C3398 0.961 . S
H3385 C3399 0.960 . S
H3386 C3399 0.961 . S
H3387 C3399 0.959 . S
H3388 C3402 0.929 . S
H3389 C3403 0.931 . S
H3390 C3405 0.930 . S
C3391 H3379 0.930 . S
C3391 C3392 1.399 . S
C3391 C3396 1.399 . S
C3392 C3391 1.399 . S
C3392 C3393 1.376 . S
C3393 H3380 0.930 . S
C3393 C3392 1.376 . S
C3393 C3394 1.388 . S
C3394 H3381 0.930 . S
C3394 C3393 1.388 . S
C3394 C3395 1.390 . S
C3395 C3394 1.390 . S
C3395 C3396 1.394 . S
C3395 C3401 1.465 . S
C3396 C3391 1.399 . S
C3396 C3395 1.394 . S
C3396 C3397 1.516 . S
C3397 C3396 1.516 . S
C3397 C3398 1.502 . S
C3397 C3399 1.561 . S
C3397 C3400 1.526 . S
C3398 H3382 0.959 . S
C3398 H3383 0.959 . S
C3398 H3384 0.961 . S
C3398 C3397 1.502 . S
C3399 H3385 0.960 . S
C3399 H3386 0.961 . S
C3399 H3387 0.959 . S
C3399 C3397 1.561 . S
C3400 C3397 1.526 . S
C3400 C3401 1.396 . S
C3400 C3405 1.390 . S
C3401 C3395 1.465 . S
C3401 C3400 1.396 . S
C3401 C3402 1.399 . S
C3402 H3388 0.929 . S
C3402 C3401 1.399 . S
C3402 C3403 1.385 1_565 S
C3403 H3389 0.931 . S
C3403 C3402 1.385 1_545 S
C3403 C3404 1.389 . S
C3404 C3403 1.389 . S
C3404 C3405 1.387 1_545 S
C3405 H3390 0.930 . S
C3405 C3400 1.390 . S
C3405 C3404 1.387 1_565 S
H3406 C3418 0.930 . S
H3407 C3420 0.930 . S
H3408 C3421 0.930 . S
H3409 C3425 0.959 . S
H3410 C3425 0.959 . S
H3411 C3425 0.961 . S
H3412 C3426 0.960 . S
H3413 C3426 0.961 . S
H3414 C3426 0.959 . S
H3415 C3429 0.929 . S
H3416 C3430 0.931 . S
H3417 C3432 0.930 . S
C3418 H3406 0.930 . S
C3418 C3419 1.399 . S
C3418 C3423 1.399 . S
C3419 C3418 1.399 . S
C3419 C3420 1.376 . S
C3420 H3407 0.930 . S
C3420 C3419 1.376 . S
C3420 C3421 1.388 . S
C3421 H3408 0.930 . S
C3421 C3420 1.388 . S
C3421 C3422 1.390 . S
C3422 C3421 1.390 . S
C3422 C3423 1.394 . S
C3422 C3428 1.465 . S
C3423 C3418 1.399 . S
C3423 C3422 1.394 . S
C3423 C3424 1.516 . S
C3424 C3423 1.516 . S
C3424 C3425 1.502 . S
C3424 C3426 1.561 . S
C3424 C3427 1.526 . S
C3425 H3409 0.959 . S
C3425 H3410 0.959 . S
C3425 H3411 0.961 . S
C3425 C3424 1.502 . S
C3426 H3412 0.960 . S
C3426 H3413 0.961 . S
C3426 H3414 0.959 . S
C3426 C3424 1.561 . S
C3427 C3424 1.526 . S
C3427 C3428 1.396 . S
C3427 C3432 1.390 . S
C3428 C3422 1.465 . S
C3428 C3427 1.396 . S
C3428 C3429 1.399 . S
C3429 H3415 0.929 . S
C3429 C3428 1.399 . S
C3429 C3430 1.385 . S
C3430 H3416 0.931 . S
C3430 C3429 1.385 . S
C3430 C3431 1.389 . S
C3431 C3430 1.389 . S
C3431 C3432 1.387 . S
C3432 H3417 0.930 . S
C3432 C3427 1.390 . S
C3432 C3431 1.387 . S
H3433 C3445 0.930 . S
H3434 C3447 0.930 . S
H3435 C3448 0.930 . S
H3436 C3452 0.959 . S
H3437 C3452 0.959 . S
H3438 C3452 0.961 . S
H3439 C3453 0.960 . S
H3440 C3453 0.961 . S
H3441 C3453 0.959 . S
H3442 C3456 0.929 . S
H3443 C3457 0.931 . S
H3444 C3459 0.930 . S
C3445 H3433 0.930 . S
C3445 C3446 1.399 . S
C3445 C3450 1.399 . S
C3446 C3445 1.399 . S
C3446 C3447 1.376 . S
C3447 H3434 0.930 . S
C3447 C3446 1.376 . S
C3447 C3448 1.388 . S
C3448 H3435 0.930 . S
C3448 C3447 1.388 . S
C3448 C3449 1.390 . S
C3449 C3448 1.390 . S
C3449 C3450 1.394 . S
C3449 C3455 1.465 . S
C3450 C3445 1.399 . S
C3450 C3449 1.394 . S
C3450 C3451 1.516 . S
C3451 C3450 1.516 . S
C3451 C3452 1.502 . S
C3451 C3453 1.561 . S
C3451 C3454 1.526 . S
C3452 H3436 0.959 . S
C3452 H3437 0.959 . S
C3452 H3438 0.961 . S
C3452 C3451 1.502 . S
C3453 H3439 0.960 . S
C3453 H3440 0.961 . S
C3453 H3441 0.959 . S
C3453 C3451 1.561 . S
C3454 C3451 1.526 . S
C3454 C3455 1.396 . S
C3454 C3459 1.390 . S
C3455 C3449 1.465 . S
C3455 C3454 1.396 . S
C3455 C3456 1.399 . S
C3456 H3442 0.929 . S
C3456 C3455 1.399 . S
C3456 C3457 1.385 . S
C3457 H3443 0.931 . S
C3457 C3456 1.385 . S
C3457 C3458 1.389 . S
C3458 C3457 1.389 . S
C3458 C3459 1.387 . S
C3459 H3444 0.930 . S
C3459 C3454 1.390 . S
C3459 C3458 1.387 . S
H3460 C3472 0.930 . S
H3461 C3474 0.930 . S
H3462 C3475 0.930 . S
H3463 C3479 0.959 . S
H3464 C3479 0.959 . S
H3465 C3479 0.961 . S
H3466 C3480 0.960 . S
H3467 C3480 0.961 . S
H3468 C3480 0.959 . S
H3469 C3483 0.929 . S
H3470 C3484 0.931 . S
H3471 C3486 0.930 . S
C3472 H3460 0.930 . S
C3472 C3473 1.399 . S
C3472 C3477 1.399 . S
C3473 C3472 1.399 . S
C3473 C3474 1.376 . S
C3474 H3461 0.930 . S
C3474 C3473 1.376 . S
C3474 C3475 1.388 . S
C3475 H3462 0.930 . S
C3475 C3474 1.388 . S
C3475 C3476 1.390 . S
C3476 C3475 1.390 . S
C3476 C3477 1.394 . S
C3476 C3482 1.465 . S
C3477 C3472 1.399 . S
C3477 C3476 1.394 . S
C3477 C3478 1.516 . S
C3478 C3477 1.516 . S
C3478 C3479 1.502 . S
C3478 C3480 1.561 . S
C3478 C3481 1.526 . S
C3479 H3463 0.959 . S
C3479 H3464 0.959 . S
C3479 H3465 0.961 . S
C3479 C3478 1.502 . S
C3480 H3466 0.960 . S
C3480 H3467 0.961 . S
C3480 H3468 0.959 . S
C3480 C3478 1.561 . S
C3481 C3478 1.526 . S
C3481 C3482 1.396 . S
C3481 C3486 1.390 . S
C3482 C3476 1.465 . S
C3482 C3481 1.396 . S
C3482 C3483 1.399 . S
C3483 H3469 0.929 . S
C3483 C3482 1.399 . S
C3483 C3484 1.385 . S
C3484 H3470 0.931 . S
C3484 C3483 1.385 . S
C3484 C3485 1.389 . S
C3485 C3484 1.389 . S
C3485 C3486 1.387 . S
C3486 H3471 0.930 . S
C3486 C3481 1.390 . S
C3486 C3485 1.387 . S
H3487 C3499 0.930 . S
H3488 C3501 0.930 . S
H3489 C3502 0.930 . S
H3490 C3506 0.959 . S
H3491 C3506 0.959 . S
H3492 C3506 0.961 . S
H3493 C3507 0.960 . S
H3494 C3507 0.961 . S
H3495 C3507 0.959 . S
H3496 C3510 0.929 . S
H3497 C3511 0.931 . S
H3498 C3513 0.930 . S
C3499 H3487 0.930 . S
C3499 C3500 1.399 . S
C3499 C3504 1.399 . S
C3500 C3499 1.399 . S
C3500 C3501 1.376 . S
C3501 H3488 0.930 . S
C3501 C3500 1.376 . S
C3501 C3502 1.388 . S
C3502 H3489 0.930 . S
C3502 C3501 1.388 . S
C3502 C3503 1.390 . S
C3503 C3502 1.390 . S
C3503 C3504 1.394 . S
C3503 C3509 1.465 . S
C3504 C3499 1.399 . S
C3504 C3503 1.394 . S
C3504 C3505 1.516 . S
C3505 C3504 1.516 . S
C3505 C3506 1.502 . S
C3505 C3507 1.561 . S
C3505 C3508 1.526 . S
C3506 H3490 0.959 . S
C3506 H3491 0.959 . S
C3506 H3492 0.961 . S
C3506 C3505 1.502 . S
C3507 H3493 0.960 . S
C3507 H3494 0.961 . S
C3507 H3495 0.959 . S
C3507 C3505 1.561 . S
C3508 C3505 1.526 . S
C3508 C3509 1.396 . S
C3508 C3513 1.390 . S
C3509 C3503 1.465 . S
C3509 C3508 1.396 . S
C3509 C3510 1.399 . S
C3510 H3496 0.929 . S
C3510 C3509 1.399 . S
C3510 C3511 1.385 . S
C3511 H3497 0.931 . S
C3511 C3510 1.385 . S
C3511 C3512 1.389 . S
C3512 C3511 1.389 . S
C3512 C3513 1.387 . S
C3513 H3498 0.930 . S
C3513 C3508 1.390 . S
C3513 C3512 1.387 . S
H3514 C3526 0.930 . S
H3515 C3528 0.930 . S
H3516 C3529 0.930 . S
H3517 C3533 0.959 . S
H3518 C3533 0.959 . S
H3519 C3533 0.961 . S
H3520 C3534 0.960 . S
H3521 C3534 0.961 . S
H3522 C3534 0.959 . S
H3523 C3537 0.929 . S
H3524 C3538 0.931 . S
H3525 C3540 0.930 . S
C3526 H3514 0.930 . S
C3526 C3527 1.399 . S
C3526 C3531 1.399 . S
C3527 C3526 1.399 . S
C3527 C3528 1.376 . S
C3528 H3515 0.930 . S
C3528 C3527 1.376 . S
C3528 C3529 1.388 . S
C3529 H3516 0.930 . S
C3529 C3528 1.388 . S
C3529 C3530 1.390 . S
C3530 C3529 1.390 . S
C3530 C3531 1.394 . S
C3530 C3536 1.465 . S
C3531 C3526 1.399 . S
C3531 C3530 1.394 . S
C3531 C3532 1.516 . S
C3532 C3531 1.516 . S
C3532 C3533 1.502 . S
C3532 C3534 1.561 . S
C3532 C3535 1.526 . S
C3533 H3517 0.959 . S
C3533 H3518 0.959 . S
C3533 H3519 0.961 . S
C3533 C3532 1.502 . S
C3534 H3520 0.960 . S
C3534 H3521 0.961 . S
C3534 H3522 0.959 . S
C3534 C3532 1.561 . S
C3535 C3532 1.526 . S
C3535 C3536 1.396 . S
C3535 C3540 1.390 . S
C3536 C3530 1.465 . S
C3536 C3535 1.396 . S
C3536 C3537 1.399 . S
C3537 H3523 0.929 . S
C3537 C3536 1.399 . S
C3537 C3538 1.385 . S
C3538 H3524 0.931 . S
C3538 C3537 1.385 . S
C3538 C3539 1.389 . S
C3539 C3538 1.389 . S
C3539 C3540 1.387 . S
C3540 H3525 0.930 . S
C3540 C3535 1.390 . S
C3540 C3539 1.387 . S
H3541 C3553 0.930 . S
H3542 C3555 0.930 . S
H3543 C3556 0.930 . S
H3544 C3560 0.959 . S
H3545 C3560 0.959 . S
H3546 C3560 0.961 . S
H3547 C3561 0.960 . S
H3548 C3561 0.961 . S
H3549 C3561 0.959 . S
H3550 C3564 0.929 . S
H3551 C3565 0.931 . S
H3552 C3567 0.930 . S
C3553 H3541 0.930 . S
C3553 C3554 1.399 . S
C3553 C3558 1.399 . S
C3554 C3553 1.399 . S
C3554 C3555 1.376 . S
C3555 H3542 0.930 . S
C3555 C3554 1.376 . S
C3555 C3556 1.388 . S
C3556 H3543 0.930 . S
C3556 C3555 1.388 . S
C3556 C3557 1.390 . S
C3557 C3556 1.390 . S
C3557 C3558 1.394 . S
C3557 C3563 1.465 . S
C3558 C3553 1.399 . S
C3558 C3557 1.394 . S
C3558 C3559 1.516 . S
C3559 C3558 1.516 . S
C3559 C3560 1.502 . S
C3559 C3561 1.561 . S
C3559 C3562 1.526 . S
C3560 H3544 0.959 . S
C3560 H3545 0.959 . S
C3560 H3546 0.961 . S
C3560 C3559 1.502 . S
C3561 H3547 0.960 . S
C3561 H3548 0.961 . S
C3561 H3549 0.959 . S
C3561 C3559 1.561 . S
C3562 C3559 1.526 . S
C3562 C3563 1.396 . S
C3562 C3567 1.390 . S
C3563 C3557 1.465 . S
C3563 C3562 1.396 . S
C3563 C3564 1.399 . S
C3564 H3550 0.929 . S
C3564 C3563 1.399 . S
C3564 C3565 1.385 . S
C3565 H3551 0.931 . S
C3565 C3564 1.385 . S
C3565 C3566 1.389 . S
C3566 C3565 1.389 . S
C3566 C3567 1.387 . S
C3567 H3552 0.930 . S
C3567 C3562 1.390 . S
C3567 C3566 1.387 . S
C989 C106 2.464 . S
C1001 C349 2.511 . S
C1016 C65 2.050 . S
C1028 C400 2.014 . S
C1043 C79 1.904 . S
C1055 C429 1.905 . S
C1082 C473 1.266 . S
C1070 C90 1.274 . S
C1097 C21 1.166 . S
C1109 C513 1.123 . S
C1136 C549 1.524 . S
C1124 C35 1.583 . S
C1163 C599 1.895 . S
C1151 C50 1.903 . S
C1178 C6 2.251 . S
C1190 C629 2.238 . S
C1217 C359 2.101 . S
C1205 C232 2.136 . S
C1232 C245 0.607 . S
C1244 C402 0.734 . S
C1271 C439 1.254 . S
C1259 C274 1.299 . S
C1298 C469 1.426 . S
C1286 C175 1.364 . S
C1313 C231 1.288 . S
C1325 C509 1.270 . S
C1352 C559 0.825 . S
C1340 C246 0.841 . S
C1379 C593 0.765 . S
C1367 C273 0.760 . S
C1406 C639 2.042 . S
C1394 C176 2.033 . S
C1433 C353 1.291 . S
C1421 C160 1.203 . S
C1448 C289 1.686 . S
C1460 C679 1.690 . S
C1487 C713 1.469 . S
C1475 C328 1.445 . S
C1514 C749 1.043 . S
C1502 C317 1.105 . S
C1529 C118 1.373 . S
C1541 C633 1.465 . S
C1556 C132 1.503 . S
C1568 C433 1.586 . S
C1583 C331 1.674 . S
C1595 C799 1.679 . S
C1622 C818 0.491 . S
C1610 C303 0.474 . S
C1649 C360 2.153 1_565 S
C1637 C63 2.144 . S
C1676 C829 2.467 . S
C1664 C107 2.429 . S
C1691 C92 1.740 . S
C1703 C440 1.766 . S
C1718 C78 1.757 . S
C1730 C802 1.689 . S
C1757 C522 1.583 . S
C1745 C8 1.636 . S
C1772 C51 1.795 . S
C1784 C720 1.801 . S
C1811 C578 2.248 1_565 S
C1799 C37 2.213 . S
C1838 C880 2.287 . S
C1826 C20 2.265 . S
C1865 C338 1.957 1_556 S
C1853 C147 1.941 . S
C1892 C833 0.801 . S
C1880 C316 0.726 . S
C1907 C119 1.261 . S
C1919 C418 1.264 . S
C1934 C288 1.588 . S
C1946 C800 1.596 . S
C1961 C148 1.633 . S
C1973 C520 1.631 . S
C2000 C698 0.953 . S
C1988 C315 0.985 . S
C2015 C120 1.031 1_565 S
C2027 C602 1.045 . S
C2042 C287 1.952 . S
C2054 C858 1.951 . S
C2069 C188 1.039 . S
C2081 C362 1.132 . S
C2096 C177 2.012 . S
C2108 C658 2.018 . S
C2123 C258 1.504 . S
C2135 C562 1.470 . S
C2150 C247 1.072 . S
C2162 C760 1.074 . S
C2189 C882 1.322 . S
C2177 C272 1.276 . S
C2204 C216 1.370 . S
C2216 C442 1.425 . S
C2243 C458 1.945 . S
C2231 C261 1.917 . S
C2270 C399 0.510 . S
C2258 C205 0.561 . S
C2285 C76 2.080 . S
C2297 C909 2.103 . S
C2324 C840 2.113 . S
C2312 C93 2.120 . S
C2339 C105 1.497 1_554 S
C2351 C949 1.535 . S
C2366 C62 1.229 1_655 S
C2378 C793 1.272 . S
C2393 C49 1.076 . S
C2405 C673 1.139 . S
C2432 C709 1.945 . S
C2420 C9 1.976 . S
C2459 C759 1.819 . S
C2447 C22 1.816 . S
C2486 C869 2.664 . S
C2474 C36 2.624 . S
C2513 C919 2.049 . S
C2501 C260 2.043 . S
C2528 C189 0.710 . S
C2540 C842 0.499 . S
C2567 C959 1.230 . S
C2555 C204 1.198 . S
C2594 C789 1.219 . S
C2582 C217 1.257 . S
C2621 C669 1.433 1_556 S
C2609 C259 1.451 . S
C2636 C190 0.886 . S
C2648 C719 0.911 . S
C2675 C753 0.778 . S
C2663 C203 0.799 . S
C2690 C218 2.102 . S
C2702 C879 2.117 . S
C2729 C913 1.288 . S
C2717 C314 1.217 . S
C2744 C135 1.762 . S
C2756 C519 1.763 . S
C2783 C553 1.456 . S
C2771 C146 1.512 . S
C2810 C589 1.155 . S
C2798 C163 1.164 . S
C2837 C873 1.379 . S
C2825 C300 1.478 . S
C2852 C286 1.546 . S
C2864 C953 1.497 . S
C2891 C479 1.616 . S
C2879 C149 1.610 . S
C2918 C378 0.356 . S
C2906 C121 0.383 . S
C2933 C91 2.151 . S
C2945 C920 2.134 . S
C2972 C389 2.108 . S
C2960 C77 1.995 . S
C2987 C64 1.755 . S
C2999 C960 1.789 . S
C3014 C104 1.367 . S
C3026 C482 1.465 . S
C3041 C34 1.322 . S
C3053 C682 1.274 . S
C3080 C560 1.783 . S
C3068 C23 1.741 . S
C3095 C7 1.801 . S
C3107 C738 1.903 . S
C3122 C48 2.278 . S
C3134 C640 2.274 . S
C3161 C898 1.913 . S
C3149 C329 1.906 . S
C3176 C162 0.795 . S
C3188 C393 0.794 . S
C3215 C938 1.246 . S
C3203 C301 1.233 . S
C3230 C134 1.562 . S
C3242 C480 1.576 . S
C3257 C330 1.665 . S
C3269 C680 1.669 . S
C3296 C538 0.908 . S
C3284 C161 0.867 . S
C3311 C302 1.017 . S
C3323 C762 0.955 . S
C3350 C618 1.918 . S
C3338 C133 1.922 . S
C3377 C922 1.246 . S
C3365 C244 1.157 . S
C3404 C498 1.996 . S
C3392 C219 1.980 . S
C3419 C230 1.281 . S
C3431 C722 1.369 . S
C3458 C600 1.072 . S
C3446 C191 1.071 . S
C3473 C202 1.403 . S
C3485 C642 1.448 . S
C3500 C174 1.506 . S
C3512 C962 1.596 . S
C3539 C778 1.915 . S
C3527 C233 1.876 . S
C3566 C839 0.479 . S
C3554 C275 0.527 . S
