# Generated by pormake.
# Topology eea, (3,6)-cn, num edge types: 1
# Building blocks:
#     Node 0, Type 0, BuildingBlock: OLANEW_clean_sbu_2, # of connection points: 3
#     Node 1, Type 0, BuildingBlock: OLANEW_clean_sbu_2, # of connection points: 3
#     Node 2, Type 0, BuildingBlock: OLANEW_clean_sbu_2, # of connection points: 3
#     Node 3, Type 0, BuildingBlock: OLANEW_clean_sbu_2, # of connection points: 3
#     Node 4, Type 0, BuildingBlock: OLANEW_clean_sbu_2, # of connection points: 3
#     Node 5, Type 0, BuildingBlock: OLANEW_clean_sbu_2, # of connection points: 3
#     Node 6, Type 0, BuildingBlock: OLANEW_clean_sbu_2, # of connection points: 3
#     Node 7, Type 0, BuildingBlock: OLANEW_clean_sbu_2, # of connection points: 3
#     Node 8, Type 0, BuildingBlock: OLANEW_clean_sbu_2, # of connection points: 3
#     Node 9, Type 0, BuildingBlock: OLANEW_clean_sbu_2, # of connection points: 3
#     Node 10, Type 0, BuildingBlock: OLANEW_clean_sbu_2, # of connection points: 3
#     Node 11, Type 0, BuildingBlock: OLANEW_clean_sbu_2, # of connection points: 3
#     Node 12, Type 0, BuildingBlock: OLANEW_clean_sbu_2, # of connection points: 3
#     Node 13, Type 0, BuildingBlock: OLANEW_clean_sbu_2, # of connection points: 3
#     Node 14, Type 0, BuildingBlock: OLANEW_clean_sbu_2, # of connection points: 3
#     Node 15, Type 0, BuildingBlock: OLANEW_clean_sbu_2, # of connection points: 3
#     Node 16, Type 0, BuildingBlock: OLANEW_clean_sbu_2, # of connection points: 3
#     Node 17, Type 0, BuildingBlock: OLANEW_clean_sbu_2, # of connection points: 3
#     Node 18, Type 1, BuildingBlock: KUMJIN_clean_sbu_0, # of connection points: 6
#     Node 19, Type 1, BuildingBlock: KUMJIN_clean_sbu_0, # of connection points: 6
#     Node 20, Type 1, BuildingBlock: KUMJIN_clean_sbu_0, # of connection points: 6
#     Node 21, Type 1, BuildingBlock: KUMJIN_clean_sbu_0, # of connection points: 6
#     Node 22, Type 1, BuildingBlock: KUMJIN_clean_sbu_0, # of connection points: 6
#     Node 23, Type 1, BuildingBlock: KUMJIN_clean_sbu_0, # of connection points: 6
#     Node 24, Type 1, BuildingBlock: KUMJIN_clean_sbu_0, # of connection points: 6
#     Node 25, Type 1, BuildingBlock: KUMJIN_clean_sbu_0, # of connection points: 6
#     Node 26, Type 1, BuildingBlock: KUMJIN_clean_sbu_0, # of connection points: 6
#     Edge 27, Type (0, 1), BuildingBlock: AJUNOK_clean_linker_0, # of connection points: 2
#     Edge 28, Type (0, 1), BuildingBlock: AJUNOK_clean_linker_0, # of connection points: 2
#     Edge 29, Type (0, 1), BuildingBlock: AJUNOK_clean_linker_0, # of connection points: 2
#     Edge 30, Type (0, 1), BuildingBlock: AJUNOK_clean_linker_0, # of connection points: 2
#     Edge 31, Type (0, 1), BuildingBlock: AJUNOK_clean_linker_0, # of connection points: 2
#     Edge 32, Type (0, 1), BuildingBlock: AJUNOK_clean_linker_0, # of connection points: 2
#     Edge 33, Type (0, 1), BuildingBlock: AJUNOK_clean_linker_0, # of connection points: 2
#     Edge 34, Type (0, 1), BuildingBlock: AJUNOK_clean_linker_0, # of connection points: 2
#     Edge 35, Type (0, 1), BuildingBlock: AJUNOK_clean_linker_0, # of connection points: 2
#     Edge 36, Type (0, 1), BuildingBlock: AJUNOK_clean_linker_0, # of connection points: 2
#     Edge 37, Type (0, 1), BuildingBlock: AJUNOK_clean_linker_0, # of connection points: 2
#     Edge 38, Type (0, 1), BuildingBlock: AJUNOK_clean_linker_0, # of connection points: 2
#     Edge 39, Type (0, 1), BuildingBlock: AJUNOK_clean_linker_0, # of connection points: 2
#     Edge 40, Type (0, 1), BuildingBlock: AJUNOK_clean_linker_0, # of connection points: 2
#     Edge 41, Type (0, 1), BuildingBlock: AJUNOK_clean_linker_0, # of connection points: 2
#     Edge 42, Type (0, 1), BuildingBlock: AJUNOK_clean_linker_0, # of connection points: 2
#     Edge 43, Type (0, 1), BuildingBlock: AJUNOK_clean_linker_0, # of connection points: 2
#     Edge 44, Type (0, 1), BuildingBlock: AJUNOK_clean_linker_0, # of connection points: 2
#     Edge 45, Type (0, 1), BuildingBlock: AJUNOK_clean_linker_0, # of connection points: 2
#     Edge 46, Type (0, 1), BuildingBlock: AJUNOK_clean_linker_0, # of connection points: 2
#     Edge 47, Type (0, 1), BuildingBlock: AJUNOK_clean_linker_0, # of connection points: 2
#     Edge 48, Type (0, 1), BuildingBlock: AJUNOK_clean_linker_0, # of connection points: 2
#     Edge 49, Type (0, 1), BuildingBlock: AJUNOK_clean_linker_0, # of connection points: 2
#     Edge 50, Type (0, 1), BuildingBlock: AJUNOK_clean_linker_0, # of connection points: 2
#     Edge 51, Type (0, 1), BuildingBlock: AJUNOK_clean_linker_0, # of connection points: 2
#     Edge 52, Type (0, 1), BuildingBlock: AJUNOK_clean_linker_0, # of connection points: 2
#     Edge 53, Type (0, 1), BuildingBlock: AJUNOK_clean_linker_0, # of connection points: 2
#     Edge 54, Type (0, 1), BuildingBlock: AJUNOK_clean_linker_0, # of connection points: 2
#     Edge 55, Type (0, 1), BuildingBlock: AJUNOK_clean_linker_0, # of connection points: 2
#     Edge 56, Type (0, 1), BuildingBlock: AJUNOK_clean_linker_0, # of connection points: 2
#     Edge 57, Type (0, 1), BuildingBlock: AJUNOK_clean_linker_0, # of connection points: 2
#     Edge 58, Type (0, 1), BuildingBlock: AJUNOK_clean_linker_0, # of connection points: 2
#     Edge 59, Type (0, 1), BuildingBlock: AJUNOK_clean_linker_0, # of connection points: 2
#     Edge 60, Type (0, 1), BuildingBlock: AJUNOK_clean_linker_0, # of connection points: 2
#     Edge 61, Type (0, 1), BuildingBlock: AJUNOK_clean_linker_0, # of connection points: 2
#     Edge 62, Type (0, 1), BuildingBlock: AJUNOK_clean_linker_0, # of connection points: 2
#     Edge 63, Type (0, 1), BuildingBlock: AJUNOK_clean_linker_0, # of connection points: 2
#     Edge 64, Type (0, 1), BuildingBlock: AJUNOK_clean_linker_0, # of connection points: 2
#     Edge 65, Type (0, 1), BuildingBlock: AJUNOK_clean_linker_0, # of connection points: 2
#     Edge 66, Type (0, 1), BuildingBlock: AJUNOK_clean_linker_0, # of connection points: 2
#     Edge 67, Type (0, 1), BuildingBlock: AJUNOK_clean_linker_0, # of connection points: 2
#     Edge 68, Type (0, 1), BuildingBlock: AJUNOK_clean_linker_0, # of connection points: 2
#     Edge 69, Type (0, 1), BuildingBlock: AJUNOK_clean_linker_0, # of connection points: 2
#     Edge 70, Type (0, 1), BuildingBlock: AJUNOK_clean_linker_0, # of connection points: 2
#     Edge 71, Type (0, 1), BuildingBlock: AJUNOK_clean_linker_0, # of connection points: 2
#     Edge 72, Type (0, 1), BuildingBlock: AJUNOK_clean_linker_0, # of connection points: 2
#     Edge 73, Type (0, 1), BuildingBlock: AJUNOK_clean_linker_0, # of connection points: 2
#     Edge 74, Type (0, 1), BuildingBlock: AJUNOK_clean_linker_0, # of connection points: 2
#     Edge 75, Type (0, 1), BuildingBlock: AJUNOK_clean_linker_0, # of connection points: 2
#     Edge 76, Type (0, 1), BuildingBlock: AJUNOK_clean_linker_0, # of connection points: 2
#     Edge 77, Type (0, 1), BuildingBlock: AJUNOK_clean_linker_0, # of connection points: 2
#     Edge 78, Type (0, 1), BuildingBlock: AJUNOK_clean_linker_0, # of connection points: 2
#     Edge 79, Type (0, 1), BuildingBlock: AJUNOK_clean_linker_0, # of connection points: 2
#     Edge 80, Type (0, 1), BuildingBlock: AJUNOK_clean_linker_0, # of connection points: 2
# Relax obj value: 0.012
# Max RMSD: 0.175
# Mean RMSD: 0.120
data_MOF--net-eea--node1-OLANEW_clean_sbu_2--node2-KUMJIN_clean_sbu_0--edge1-AJUNOK_clean_linker_0
_symmetry_space_group_name_H-M    P1
_symmetry_Int_Tables_number       1
_symmetry_cell_setting            triclinic
loop_
_symmetry_equiv_pos_as_xyz
'x, y, z'
_cell_length_a     45.036161
_cell_length_b     45.978425
_cell_length_c     53.876632
_cell_angle_alpha  94.487556
_cell_angle_beta   90.162544
_cell_angle_gamma 120.8234
loop_
_atom_site_label
_atom_site_type_symbol
_atom_site_fract_x
_atom_site_fract_y
_atom_site_fract_z
_atom_type_partial_charge
O0 O 0.25621 0.14334 0.44699 0.0
Cd1 Cd 0.21715 0.12302 0.40958 0.0
O2 O 0.29058 0.12883 0.42822 0.0
Cd3 Cd 0.2553 0.09997 0.39613 0.0
O4 O 0.2298 0.04719 0.38036 0.0
C5 C 0.23692 0.02933 0.39322 0.0
O6 O 0.25742 0.04422 0.41336 0.0
C7 C 0.28392 0.1423 0.44722 0.0
C8 C 0.20152 0.1707 0.39462 0.0
O9 O 0.18091 0.14717 0.40795 0.0
O10 O 0.22945 0.17167 0.38843 0.0
O11 O 0.87658 0.14449 0.43363 0.0
Cd12 Cd 0.89524 0.13544 0.39229 0.0
O13 O 0.90382 0.12482 0.45423 0.0
Cd14 Cd 0.91557 0.10549 0.42006 0.0
O15 O 0.88314 0.05612 0.39957 0.0
C16 C 0.85095 0.04353 0.40244 0.0
O17 O 0.84078 0.06176 0.41574 0.0
C18 C 0.88491 0.13792 0.45414 0.0
C19 C 0.96124 0.18771 0.38201 0.0
O20 O 0.9344 0.1899 0.37812 0.0
O21 O 0.9569 0.16071 0.39072 0.0
O22 O 0.89574 0.72549 0.44114 0.0
Cd23 Cd 0.91732 0.75318 0.40237 0.0
O24 O 0.84426 0.72034 0.43803 0.0
Cd25 Cd 0.84592 0.74471 0.40411 0.0
O26 O 0.81408 0.7564 0.38041 0.0
C27 C 0.82088 0.78643 0.37773 0.0
O28 O 0.84978 0.81227 0.38814 0.0
C29 C 0.86593 0.71559 0.44958 0.0
C30 C 0.98451 0.76758 0.39141 0.0
O31 O 0.97956 0.78919 0.40435 0.0
O32 O 0.9577 0.7389 0.38387 0.0
O33 O 0.15838 0.2623 0.60538 0.0
Cd34 Cd 0.1516 0.23915 0.6458 0.0
O35 O 0.10844 0.25973 0.59977 0.0
Cd36 Cd 0.08181 0.23912 0.63373 0.0
O37 O 0.03524 0.23017 0.65291 0.0
C38 C 0.00907 0.20057 0.65416 0.0
O39 O 0.01101 0.1741 0.64553 0.0
C40 C 0.13806 0.26715 0.59222 0.0
C41 C 0.20801 0.23112 0.65612 0.0
O42 O 0.17954 0.20631 0.64599 0.0
O43 O 0.20953 0.25944 0.66186 0.0
O44 O 0.769 0.84632 0.57919 0.0
Cd45 Cd 0.79853 0.86863 0.62031 0.0
O46 O 0.80996 0.88917 0.5611 0.0
Cd47 Cd 0.83047 0.92063 0.59632 0.0
O48 O 0.83136 0.96109 0.62088 0.0
C49 C 0.80695 0.96654 0.61653 0.0
O50 O 0.78356 0.9472 0.59867 0.0
C51 C 0.78235 0.86013 0.55943 0.0
C52 C 0.81048 0.82014 0.63834 0.0
O53 O 0.78476 0.82281 0.64541 0.0
O54 O 0.83097 0.84093 0.62332 0.0
O55 O 0.10303 0.83902 0.5917 0.0
Cd56 Cd 0.08242 0.85326 0.63023 0.0
O57 O 0.15617 0.87856 0.60412 0.0
Cd58 Cd 0.14394 0.90414 0.63441 0.0
O59 O 0.17051 0.95808 0.64692 0.0
C60 C 0.20134 0.97404 0.63983 0.0
O61 O 0.21316 0.95675 0.62723 0.0
C62 C 0.1354 0.85406 0.5886 0.0
C63 C 0.02228 0.79799 0.64577 0.0
O64 O 0.02094 0.82005 0.63343 0.0
O65 O 0.05207 0.80205 0.65083 0.0
O66 O 0.92486 0.48239 0.78885 0.0
Cd67 Cd 0.87783 0.45913 0.75667 0.0
O68 O 0.94427 0.44971 0.77402 0.0
Cd69 Cd 0.90311 0.41945 0.74567 0.0
O70 O 0.87642 0.36688 0.72957 0.0
C71 C 0.87223 0.34514 0.74452 0.0
O72 O 0.88228 0.35569 0.76808 0.0
C73 C 0.94687 0.47295 0.78984 0.0
C74 C 0.86795 0.50928 0.739 0.0
O75 O 0.85355 0.49495 0.75858 0.0
O76 O 0.88703 0.49982 0.72768 0.0
O77 O 0.57313 0.50393 0.78103 0.0
Cd78 Cd 0.58937 0.48625 0.74155 0.0
O79 O 0.56799 0.46202 0.80127 0.0
Cd80 Cd 0.57126 0.43375 0.76802 0.0
O81 O 0.5357 0.38594 0.74609 0.0
C82 C 0.50434 0.37435 0.75146 0.0
O83 O 0.49759 0.39207 0.76837 0.0
C84 C 0.56723 0.48926 0.80105 0.0
C85 C 0.65232 0.53748 0.7252 0.0
O86 O 0.62395 0.53669 0.72071 0.0
O87 O 0.65099 0.51397 0.73732 0.0
O88 O 0.54064 0.04747 0.77097 0.0
Cd89 Cd 0.56133 0.07595 0.73259 0.0
O90 O 0.50524 0.06594 0.78094 0.0
Cd91 Cd 0.51049 0.09583 0.7496 0.0
O92 O 0.48707 0.12039 0.73047 0.0
C93 C 0.4583 0.10099 0.71841 0.0
O94 O 0.4461 0.06806 0.71637 0.0
C95 C 0.51898 0.04855 0.78558 0.0
C96 C 0.62775 0.08883 0.72156 0.0
O97 O 0.62347 0.11175 0.73313 0.0
O98 O 0.60073 0.05975 0.71532 0.0
O99 O 0.84396 0.60973 0.93607 0.0
Cd100 Cd 0.83396 0.58262 0.97507 0.0
O101 O 0.7937 0.60586 0.92871 0.0
Cd102 Cd 0.76398 0.57865 0.96003 0.0
O103 O 0.71414 0.55207 0.978 0.0
C104 C 0.69921 0.5684 0.9846 0.0
O105 O 0.71529 0.60112 0.98189 0.0
C106 C 0.82449 0.61542 0.92266 0.0
C107 C 0.88691 0.56962 0.98604 0.0
O108 O 0.85828 0.54652 0.97491 0.0
O109 O 0.89051 0.59881 0.99208 0.0
O110 O 0.37661 0.16841 0.94143 0.0
Cd111 Cd 0.39999 0.17359 0.98375 0.0
O112 O 0.42698 0.20515 0.92774 0.0
Cd113 Cd 0.45155 0.2235 0.96487 0.0
O114 O 0.46708 0.27268 0.98454 0.0
C115 C 0.44861 0.28504 0.97891 0.0
O116 O 0.42132 0.26659 0.96359 0.0
C117 C 0.39483 0.18404 0.92364 0.0
C118 C 0.42312 0.12844 0.98958 0.0
O119 O 0.39116 0.11918 0.99137 0.0
O120 O 0.44433 0.15918 0.985 0.0
O121 O 0.76845 0.16599 0.9341 0.0
Cd122 Cd 0.74924 0.18017 0.97337 0.0
O123 O 0.8207 0.21147 0.9391 0.0
Cd124 Cd 0.81435 0.239 0.97128 0.0
O125 O 0.84553 0.29185 0.98679 0.0
C126 C 0.86396 0.31274 0.97131 0.0
O127 O 0.86157 0.30125 0.94785 0.0
C128 C 0.79909 0.18357 0.92687 0.0
C129 C 0.68284 0.12857 0.98392 0.0
O130 O 0.68739 0.15448 0.97335 0.0
O131 O 0.70964 0.12701 0.9895 0.0
O132 O 0.62079 0.83276 0.0989 0.0
Cd133 Cd 0.57973 0.81101 0.06267 0.0
O134 O 0.64774 0.80721 0.0839 0.0
Cd135 Cd 0.6084 0.77473 0.05474 0.0
O136 O 0.57785 0.72072 0.04199 0.0
C137 C 0.57828 0.70163 0.05765 0.0
O138 O 0.59547 0.71591 0.07916 0.0
C139 C 0.64563 0.82721 0.10047 0.0
C140 C 0.5587 0.85642 0.05177 0.0
O141 O 0.54006 0.83142 0.06461 0.0
O142 O 0.58707 0.85979 0.04401 0.0
O143 O 0.22399 0.8269 0.1117 0.0
Cd144 Cd 0.24391 0.8097 0.07369 0.0
O145 O 0.24118 0.80347 0.13792 0.0
Cd146 Cd 0.2448 0.77229 0.10685 0.0
O147 O 0.21189 0.72388 0.08465 0.0
C148 C 0.17957 0.71244 0.08551 0.0
O149 O 0.16932 0.73083 0.09851 0.0
C150 C 0.22826 0.8217 0.13394 0.0
C151 C 0.30762 0.86143 0.05836 0.0
O152 O 0.27921 0.86003 0.05278 0.0
O153 O 0.30607 0.83839 0.07117 0.0
O154 O 0.22171 0.3869 0.11335 0.0
Cd155 Cd 0.24702 0.41811 0.07627 0.0
O156 O 0.17401 0.38928 0.11047 0.0
Cd157 Cd 0.18176 0.42106 0.07994 0.0
O158 O 0.15747 0.44643 0.063 0.0
C159 C 0.12572 0.42773 0.05579 0.0
O160 O 0.11073 0.39477 0.05714 0.0
C161 C 0.19202 0.37921 0.12108 0.0
C162 C 0.31376 0.43165 0.06436 0.0
O163 O 0.3094 0.4527 0.0786 0.0
O164 O 0.28658 0.40361 0.05623 0.0
O165 O 0.50903 0.93535 0.2627 0.0
Cd166 Cd 0.50162 0.90549 0.29999 0.0
O167 O 0.45837 0.93178 0.2589 0.0
Cd168 Cd 0.43083 0.90312 0.29024 0.0
O169 O 0.38093 0.87902 0.30816 0.0
C170 C 0.3676 0.89727 0.31322 0.0
O171 O 0.38542 0.92948 0.30897 0.0
C172 C 0.48851 0.94168 0.25123 0.0
C173 C 0.55943 0.89892 0.30828 0.0
O174 O 0.53217 0.87509 0.29609 0.0
O175 O 0.55911 0.92551 0.31692 0.0
O176 O 0.05574 0.50885 0.27913 0.0
Cd177 Cd 0.08446 0.51491 0.31943 0.0
O178 O 0.10605 0.54043 0.26302 0.0
Cd179 Cd 0.1342 0.56005 0.29887 0.0
O180 O 0.14853 0.61017 0.31605 0.0
C181 C 0.1283 0.62052 0.31031 0.0
O182 O 0.10009 0.5998 0.29638 0.0
C183 C 0.07328 0.52215 0.26043 0.0
C184 C 0.09983 0.46406 0.32477 0.0
O185 O 0.07258 0.46206 0.33373 0.0
O186 O 0.11973 0.48999 0.31314 0.0
O187 O 0.41795 0.48986 0.27102 0.0
Cd188 Cd 0.41142 0.49819 0.31547 0.0
O189 O 0.46999 0.53421 0.27719 0.0
Cd190 Cd 0.51906 0.57553 0.26651 0.0
O191 O 0.56124 0.627 0.27561 0.0
C192 C 0.56639 0.65133 0.26313 0.0
O193 O 0.54727 0.64484 0.24267 0.0
C194 C 0.44672 0.51053 0.26241 0.0
C195 C 0.34533 0.44886 0.32694 0.0
O196 O 0.35168 0.47803 0.32135 0.0
O197 O 0.37056 0.44348 0.32765 0.0
Eu198 Eu 0.4758 0.9677 0.98765 0.0
C199 C 0.55589 0.10134 0.06054 0.0
C200 C 0.61674 0.12055 0.05801 0.0
C201 C 0.59874 0.16179 0.06654 0.0
C202 C 0.58171 0.09415 0.05629 0.0
C203 C 0.56407 0.13518 0.06622 0.0
C204 C 0.62506 0.15447 0.06249 0.0
C205 C 0.50358 0.11362 0.0731 0.0
N206 N 0.52285 0.075 0.06045 0.0
C207 C 0.49686 0.08049 0.06757 0.0
C208 C 0.53728 0.14114 0.07211 0.0
Eu209 Eu 0.51271 0.01969 0.04875 0.0
N210 N 0.57269 0.06111 0.05206 0.0
C211 C 0.59756 0.05254 0.05173 0.0
C212 C 0.64233 0.11195 0.05601 0.0
C213 C 0.63268 0.07774 0.05336 0.0
H214 H 0.47069 0.05932 0.06812 0.0
H215 H 0.65224 0.07073 0.05242 0.0
H216 H 0.65179 0.17513 0.06352 0.0
H217 H 0.48276 0.11789 0.07806 0.0
H218 H 0.59048 0.02627 0.04974 0.0
H219 H 0.33511 0.90741 0.98547 0.0
H220 H 0.66954 0.13145 0.05719 0.0
H221 H 0.52361 0.93306 0.96966 0.0
H222 H 0.39569 0.95496 0.98826 0.0
H223 H 0.51573 0.87634 0.95934 0.0
H224 H 0.60554 0.18799 0.07062 0.0
H225 H 0.32232 0.84811 0.97918 0.0
H226 H 0.34444 0.80805 0.97147 0.0
H227 H 0.54247 0.16678 0.07651 0.0
H228 H 0.39358 0.79964 0.96418 0.0
N229 N 0.41703 0.92325 0.98427 0.0
C230 C 0.39042 0.92932 0.98542 0.0
C231 C 0.34895 0.86897 0.98038 0.0
C232 C 0.37631 0.86296 0.97776 0.0
C233 C 0.35605 0.90237 0.98385 0.0
C234 C 0.41051 0.89105 0.97956 0.0
H235 H 0.45744 0.82494 0.95933 0.0
N236 N 0.47036 0.91418 0.97599 0.0
C237 C 0.49366 0.87878 0.96383 0.0
C238 C 0.43804 0.88635 0.97526 0.0
C239 C 0.49798 0.91095 0.96961 0.0
C240 C 0.46073 0.84983 0.96391 0.0
C241 C 0.43232 0.85339 0.96933 0.0
O242 O 0.50024 0.98169 0.95219 0.0
O243 O 0.51962 0.01412 1.00819 0.0
O244 O 0.49941 0.04893 0.02347 0.0
O245 O 0.45679 0.00501 0.99621 0.0
O246 O 0.5329 0.98947 0.98074 0.0
O247 O 0.4495 0.97516 0.9567 0.0
O248 O 0.49296 0.01377 0.08618 0.0
O249 O 0.4683 0.97445 0.02807 0.0
O250 O 0.48555 0.93701 0.01373 0.0
O251 O 0.53025 0.98133 0.03935 0.0
O252 O 0.45598 -0.00141 0.0565 0.0
O253 O 0.533 0.00236 0.07726 0.0
C254 C 0.54479 0.01526 0.99716 0.0
C255 C 0.46402 0.96441 0.91604 0.0
C256 C 0.47005 0.96835 0.87119 0.0
C257 C 0.47716 0.98402 0.89571 0.0
C258 C 0.44912 0.93274 0.86728 0.0
C259 C 0.44328 0.92893 0.91182 0.0
C260 C 0.43579 0.91322 0.8875 0.0
C261 C 0.47278 0.03665 1.00711 0.0
C262 C 0.47414 0.98137 0.94146 0.0
C263 C 0.39847 0.82518 0.96852 0.0
C264 C 0.3705 0.82996 0.97271 0.0
C265 C 0.44345 0.97345 0.0395 0.0
C266 C 0.53177 0.0213 0.11898 0.0
C267 C 0.51983 0.00311 0.14004 0.0
C268 C 0.53644 0.01787 0.16365 0.0
C269 C 0.56549 0.05101 0.16584 0.0
C270 C 0.56052 0.0545 0.1215 0.0
C271 C 0.57732 0.06922 0.14487 0.0
C272 C 0.51267 0.9492 0.02952 0.0
C273 C 0.51411 0.00494 0.09458 0.0
H274 H 0.49355 0.01144 0.89901 0.0
H275 H 0.44281 0.92005 0.84857 0.0
H276 H 0.43317 0.91343 0.92729 0.0
H277 H 0.41972 0.88582 0.8843 0.0
H278 H 0.49785 0.97729 0.13797 0.0
H279 H 0.57874 0.06295 0.18382 0.0
H280 H 0.57001 0.06891 0.10546 0.0
H281 H 0.59957 0.09481 0.14674 0.0
Eu282 Eu 0.04266 0.52134 0.99422 0.0
C283 C 0.91624 0.48241 0.06152 0.0
C284 C 0.90574 0.52864 0.05883 0.0
C285 C 0.85792 0.47221 0.06514 0.0
C286 C 0.92838 0.51593 0.05796 0.0
C287 C 0.8811 0.46039 0.06604 0.0
C288 C 0.87024 0.50634 0.06153 0.0
C289 C 0.89549 0.41845 0.07554 0.0
N290 N 0.93949 0.47218 0.06281 0.0
C291 C 0.93011 0.44145 0.07113 0.0
C292 C 0.87071 0.42771 0.07249 0.0
Eu293 Eu 0.99733 0.51111 0.05345 0.0
N294 N 0.96285 0.53671 0.05569 0.0
C295 C 0.97681 0.5711 0.05663 0.0
C296 C 0.91968 0.56359 0.05806 0.0
C297 C 0.95548 0.585 0.05754 0.0
H298 H 0.94926 0.43428 0.07359 0.0
H299 H 0.96666 0.6122 0.05758 0.0
H300 H 0.85236 0.51551 0.06183 0.0
H301 H 0.88799 0.39368 0.08134 0.0
H302 H 1.00433 0.58799 0.05594 0.0
H303 H 0.07475 0.42161 0.98203 0.0
H304 H 0.90321 0.5744 0.05868 0.0
H305 H 0.09114 0.60304 0.98294 0.0
H306 H 0.03636 0.44494 0.98687 0.0
H307 H 0.15215 0.64478 0.97544 0.0
H308 H 0.83071 0.45555 0.06819 0.0
H309 H 0.138 0.4604 0.98058 0.0
H310 H 0.18815 0.52002 0.97922 0.0
H311 H 0.84395 0.41 0.07611 0.0
H312 H 0.20921 0.58079 0.97709 0.0
N313 N 0.07747 0.49658 0.9892 0.0
C314 C 0.06389 0.46222 0.98636 0.0
C315 C 0.12126 0.47083 0.98281 0.0
C316 C 0.13477 0.50594 0.98397 0.0
C317 C 0.08558 0.44885 0.98355 0.0
C318 C 0.11186 0.51819 0.98699 0.0
H319 H 0.1958 0.62731 0.97484 0.0
N320 N 0.10059 0.56288 0.98735 0.0
C321 C 0.14456 0.61893 0.97851 0.0
C322 C 0.12379 0.5524 0.98598 0.0
C323 C 0.11009 0.59529 0.98274 0.0
C324 C 0.16913 0.60898 0.97823 0.0
C325 C 0.15882 0.57527 0.98166 0.0
O326 O 0.03363 0.53847 0.95991 0.0
O327 O 0.99958 0.52224 0.01378 0.0
O328 O 0.96082 0.46546 0.02722 0.0
O329 O 0.99742 0.46665 0.99568 0.0
O330 O 0.0273 0.56106 0.99139 0.0
O331 O 0.02654 0.48813 0.95943 0.0
O332 O 0.00923 0.49727 0.08837 0.0
O333 O 0.03873 0.50757 0.0333 0.0
O334 O 0.08077 0.56149 0.0234 0.0
O335 O 0.04219 0.56544 0.0501 0.0
O336 O 0.01073 0.47037 0.05711 0.0
O337 O 0.01526 0.54687 0.08689 0.0
C338 C 1.00111 0.54772 1.00525 0.0
C339 C 0.04403 0.5161 0.92254 0.0
C340 C 0.04041 0.51531 0.87733 0.0
C341 C 0.0245 0.50932 0.9003 0.0
C342 C 0.07632 0.52864 0.87697 0.0
C343 C 0.07971 0.52888 0.92185 0.0
C344 C 0.09577 0.53522 0.89914 0.0
C345 C 0.96782 0.45164 1.00726 0.0
C346 C 0.02687 0.51092 0.94626 0.0
C347 C 0.1821 0.56352 0.98004 0.0
C348 C 0.1701 0.52891 0.98125 0.0
C349 C 0.0355 0.48134 0.04194 0.0
C350 C 0.99861 0.52121 0.12469 0.0
C351 C 0.01546 0.5203 0.14619 0.0
C352 C 1.00017 0.51648 0.16931 0.0
C353 C 0.96704 0.51231 0.17047 0.0
C354 C 0.96567 0.51731 0.12608 0.0
C355 C 0.94992 0.5127 0.14891 0.0
C356 C 0.07361 0.57774 0.0415 0.0
C357 C 0.01562 0.52529 0.101 0.0
H358 H 0.99683 0.49906 0.90087 0.0
H359 H 0.08934 0.5341 0.85959 0.0
H360 H 0.09515 0.53416 0.93876 0.0
H361 H 0.12338 0.54536 0.89874 0.0
H362 H 0.04056 0.52253 0.14487 0.0
H363 H 0.9547 0.50938 0.18808 0.0
H364 H 0.9522 0.51778 0.10961 0.0
H365 H 0.9245 0.50968 0.14993 0.0
Eu366 Eu 0.51964 0.4891 0.0534 0.0
C367 C 0.40754 0.44844 0.97559 0.0
C368 C 0.39809 0.40274 0.94491 0.0
C369 C 0.34922 0.40727 0.95888 0.0
C370 C 0.42039 0.43159 0.96122 0.0
C371 C 0.37189 0.43705 0.97406 0.0
C372 C 0.3623 0.39013 0.94431 0.0
C373 C 0.38433 0.48742 1.00029 0.0
N374 N 0.43024 0.47732 0.98976 0.0
C375 C 0.41944 0.49764 1.00116 0.0
C376 C 0.36033 0.45663 0.98709 0.0
Eu377 Eu 0.48905 0.49227 0.99148 0.0
N378 N 0.45509 0.44459 0.96218 0.0
C379 C 0.46956 0.43201 0.94553 0.0
C380 C 0.41256 0.38816 0.92912 0.0
C381 C 0.44851 0.40322 0.92914 0.0
H382 H 0.43771 0.52149 0.01141 0.0
H383 H 0.46001 0.39272 0.91652 0.0
H384 H 0.34467 0.36778 0.93211 0.0
H385 H 0.37582 0.50321 1.00993 0.0
H386 H 0.49733 0.44356 0.94546 0.0
H387 H 0.65776 0.58891 0.05993 0.0
H388 H 0.39631 0.36597 0.91632 0.0
H389 H 0.484 0.40963 0.07142 0.0
H390 H 0.59584 0.56715 0.05799 0.0
H391 H 0.50243 0.37 0.08228 0.0
H392 H 0.32169 0.39789 0.95769 0.0
H393 H 0.67968 0.54976 0.06236 0.0
H394 H 0.66724 0.49103 0.06709 0.0
H395 H 0.33316 0.44876 0.98645 0.0
H396 H 0.62514 0.43171 0.07393 0.0
N397 N 0.581 0.51475 0.0576 0.0
C398 C 0.6041 0.54904 0.05855 0.0
C399 C 0.65201 0.53969 0.06125 0.0
C400 C 0.6285 0.50503 0.06239 0.0
C401 C 0.63975 0.56185 0.05992 0.0
C402 C 0.59265 0.4931 0.06073 0.0
H403 H 0.56407 0.38701 0.0808 0.0
N404 N 0.53465 0.44885 0.06373 0.0
C405 C 0.52136 0.39498 0.07713 0.0
C406 C 0.56888 0.45939 0.06418 0.0
C407 C 0.51106 0.41764 0.07116 0.0
C408 C 0.55615 0.40465 0.0762 0.0
C409 C 0.58044 0.43724 0.06992 0.0
O410 O 0.49735 0.50891 0.08116 0.0
O411 O 0.4757 0.48607 0.03133 0.0
O412 O 0.49834 0.53824 0.01705 0.0
O413 O 0.5388 0.54384 0.04659 0.0
O414 O 0.46372 0.44626 0.05258 0.0
O415 O 0.5311 0.49271 0.09355 0.0
O416 O 0.48343 0.52904 0.97176 0.0
O417 O 0.5362 0.50859 0.01648 0.0
O418 O 0.50855 0.44171 0.02848 0.0
O419 O 0.47191 0.43723 0.99572 0.0
O420 O 0.53429 0.4858 0.98143 0.0
O421 O 0.52214 0.51718 0.96093 0.0
C422 C 0.45095 0.45902 0.03858 0.0
C423 C 0.48415 0.48217 0.11837 0.0
C424 C 0.45869 0.47803 0.15877 0.0
C425 C 0.48377 0.49732 0.14198 0.0
C426 C 0.43393 0.4438 0.15169 0.0
C427 C 0.45973 0.44761 0.11207 0.0
C428 C 0.43461 0.42869 0.12849 0.0
C429 C 0.52301 0.55654 0.03456 0.0
C430 C 0.50957 0.50228 0.10028 0.0
C431 C 0.6159 0.44858 0.07005 0.0
C432 C 0.63986 0.48235 0.06617 0.0
C433 C 0.55254 0.49949 1.002 0.0
C434 C 0.49444 0.52828 0.92865 0.0
C435 C 0.51441 0.52526 0.90965 0.0
C436 C 0.50398 0.52157 0.88438 0.0
C437 C 0.47319 0.52076 0.87828 0.0
C438 C 0.46392 0.52775 0.92201 0.0
C439 C 0.45342 0.52394 0.89699 0.0
C440 C 0.48678 0.42469 1.00898 0.0
C441 C 0.50559 0.53218 0.95521 0.0
H442 H 0.50276 0.52385 0.14725 0.0
H443 H 0.41459 0.42849 0.16441 0.0
H444 H 0.45997 0.43492 0.0946 0.0
H445 H 0.41585 0.40212 0.12331 0.0
H446 H 0.53813 0.52587 0.91448 0.0
H447 H 0.46409 0.5171 0.85901 0.0
H448 H 0.448 0.53012 0.93612 0.0
H449 H 0.42972 0.52324 0.89208 0.0
Eu450 Eu 0.13705 0.29384 0.32309 0.0
C451 C 0.21765 0.42205 0.40105 0.0
C452 C 0.27768 0.43779 0.39951 0.0
C453 C 0.26312 0.48138 0.40922 0.0
C454 C 0.2421 0.41301 0.39669 0.0
C455 C 0.22781 0.45621 0.40801 0.0
C456 C 0.28805 0.47217 0.40502 0.0
C457 C 0.16786 0.43746 0.41482 0.0
N458 N 0.18395 0.39698 0.40023 0.0
C459 C 0.15921 0.40393 0.40812 0.0
C460 C 0.20228 0.46382 0.41441 0.0
Eu461 Eu 0.17041 0.34099 0.38651 0.0
N462 N 0.23108 0.37956 0.39159 0.0
C463 C 0.25429 0.36885 0.39159 0.0
C464 C 0.30168 0.42711 0.39771 0.0
C465 C 0.28988 0.3924 0.39428 0.0
H466 H 0.13256 0.3836 0.40842 0.0
H467 H 0.30816 0.38374 0.39355 0.0
H468 H 0.31525 0.49164 0.40688 0.0
H469 H 0.14801 0.44294 0.42033 0.0
H470 H 0.24558 0.34218 0.389 0.0
H471 H 1.00015 0.25388 0.31286 0.0
H472 H 0.32924 0.44531 0.39974 0.0
H473 H 0.17503 0.24928 0.30683 0.0
H474 H 0.06273 0.29468 0.31895 0.0
H475 H 0.15852 0.18946 0.29577 0.0
H476 H 0.27146 0.50784 0.41424 0.0
H477 H 0.97821 0.1922 0.30608 0.0
H478 H 0.99119 0.14516 0.29981 0.0
H479 H 0.20899 0.48976 0.4198 0.0
H480 H 0.03428 0.12759 0.29509 0.0
N481 N 0.07645 0.25661 0.31639 0.0
C482 C 0.05371 0.26791 0.31599 0.0
C483 C 0.00581 0.21003 0.30875 0.0
C484 C 0.02937 0.19875 0.30774 0.0
C485 C 0.0181 0.24482 0.3125 0.0
C486 C 0.06502 0.22302 0.31145 0.0
H487 H 0.09672 0.14397 0.29319 0.0
N488 N 0.12319 0.23746 0.31111 0.0
C489 C 0.13875 0.19574 0.29947 0.0
C490 C 0.08916 0.21313 0.30876 0.0
C491 C 0.148 0.22955 0.30563 0.0
C492 C 0.10385 0.17013 0.29811 0.0
C493 C 0.0785 0.17871 0.30236 0.0
O494 O 0.16475 0.30261 0.28868 0.0
O495 O 0.18034 0.33758 0.34616 0.0
O496 O 0.15969 0.37366 0.36323 0.0
O497 O 0.12297 0.33492 0.33025 0.0
O498 O 0.194 0.31177 0.31979 0.0
O499 O 0.12143 0.31055 0.29121 0.0
O500 O 0.14769 0.33341 0.423 0.0
O501 O 0.12678 0.29883 0.36303 0.0
O502 O 0.14129 0.25954 0.34903 0.0
O503 O 0.18501 0.30058 0.37707 0.0
O504 O 0.11337 0.3218 0.39162 0.0
O505 O 0.18645 0.32003 0.41509 0.0
C506 C 0.2056 0.33727 0.33647 0.0
C507 C 0.13318 0.29442 0.2513 0.0
C508 C 0.13694 0.29908 0.20639 0.0
C509 C 0.14776 0.31397 0.23105 0.0
C510 C 0.11188 0.26425 0.20231 0.0
C511 C 0.10814 0.25977 0.24682 0.0
C512 C 0.09765 0.24479 0.22241 0.0
C513 C 0.1373 0.36453 0.34407 0.0
C514 C 0.14472 0.31031 0.27695 0.0
C515 C 0.04301 0.15421 0.29977 0.0
C516 C 0.01847 0.16421 0.30246 0.0
C517 C 0.10152 0.29835 0.37335 0.0
C518 C 0.18439 0.33886 0.4566 0.0
C519 C 0.17156 0.32068 0.4776 0.0
C520 C 0.18781 0.33525 0.50136 0.0
C521 C 0.21732 0.36811 0.50374 0.0
C522 C 0.21363 0.37176 0.45937 0.0
C523 C 0.23004 0.38624 0.48285 0.0
C524 C 0.16663 0.26918 0.36603 0.0
C525 C 0.16727 0.32308 0.43193 0.0
H526 H 0.16703 0.34081 0.23447 0.0
H527 H 0.10334 0.2521 0.18352 0.0
H528 H 0.09679 0.24434 0.26216 0.0
H529 H 0.07837 0.21801 0.21905 0.0
H530 H 0.14918 0.29511 0.47539 0.0
H531 H 0.23024 0.37995 0.52183 0.0
H532 H 0.22382 0.38616 0.44342 0.0
H533 H 0.25264 0.41161 0.48486 0.0
Eu534 Eu 0.72511 0.86385 0.30708 0.0
C535 C 0.59097 0.81166 0.36298 0.0
C536 C 0.58532 0.8612 0.37046 0.0
C537 C 0.53382 0.80518 0.36266 0.0
C538 C 0.60626 0.8466 0.36737 0.0
C539 C 0.55455 0.79051 0.36159 0.0
C540 C 0.54919 0.84048 0.3671 0.0
C541 C 0.56168 0.74198 0.36238 0.0
N542 N 0.61158 0.79816 0.36255 0.0
C543 C 0.59755 0.76402 0.36411 0.0
C544 C 0.54005 0.75524 0.36049 0.0
Eu545 Eu 0.67215 0.83693 0.36257 0.0
N546 N 0.64134 0.86602 0.37055 0.0
C547 C 0.65642 0.89934 0.37993 0.0
C548 C 0.60118 0.89596 0.3778 0.0
C549 C 0.63678 0.91489 0.38319 0.0
H550 H 0.6143 0.75383 0.36597 0.0
H551 H 0.64915 0.9415 0.38999 0.0
H552 H 0.53284 0.85139 0.3689 0.0
H553 H 0.55076 0.71487 0.36266 0.0
H554 H 0.68345 0.91434 0.38537 0.0
H555 H 0.76864 0.77321 0.28929 0.0
H556 H 0.58604 0.90811 0.38035 0.0
H557 H 0.77061 0.94876 0.30784 0.0
H558 H 0.72604 0.79141 0.29367 0.0
H559 H 0.8318 -0.00467 0.30859 0.0
H560 H 0.50584 0.78936 0.36118 0.0
H561 H 0.83131 0.81591 0.29358 0.0
H562 H 0.8786 0.87741 0.29942 0.0
H563 H 0.51223 0.73817 0.35942 0.0
H564 H 0.89578 0.9378 0.3044 0.0
N565 N 0.76402 0.84396 0.30117 0.0
C566 C 0.75324 0.81041 0.29554 0.0
C567 C 0.81268 0.8241 0.29555 0.0
C568 C 0.82356 0.85862 0.29988 0.0
C569 C 0.77735 0.79993 0.29305 0.0
C570 C 0.79826 0.86789 0.30244 0.0
H571 H 0.87852 0.98199 0.30747 0.0
N572 N 0.78283 0.90975 0.30684 0.0
C573 C 0.82546 0.96915 0.30769 0.0
C574 C 0.80797 0.90183 0.30527 0.0
C575 C 0.79088 0.94277 0.3072 0.0
C576 C 0.85176 0.96151 0.3071 0.0
C577 C 0.84318 0.92751 0.30557 0.0
O578 O 0.72111 0.88866 0.27548 0.0
O579 O 0.67796 0.85713 0.3257 0.0
O580 O 0.6438 0.79545 0.33096 0.0
O581 O 0.6834 0.8084 0.29949 0.0
O582 O 0.70686 0.90192 0.30933 0.0
O583 O 0.7143 0.8383 0.26941 0.0
O584 O 0.70779 0.85179 0.39527 0.0
O585 O 0.71665 0.83978 0.34287 0.0
O586 O 0.75773 0.89572 0.34108 0.0
O587 O 0.71497 0.89341 0.36645 0.0
O588 O 0.68521 0.79526 0.35898 0.0
O589 O 0.65302 0.8189 0.39874 0.0
C590 C 0.67924 0.88411 0.32106 0.0
C591 C 0.73523 0.87365 0.23641 0.0
C592 C 0.73412 0.87487 0.19129 0.0
C593 C 0.71669 0.86528 0.21349 0.0
C594 C 0.77052 0.89322 0.19239 0.0
C595 C 0.77151 0.89171 0.23725 0.0
C596 C 0.78905 0.90148 0.21527 0.0
C597 C 0.65362 0.78833 0.30933 0.0
C598 C 0.71599 0.86386 0.25914 0.0
C599 C 0.86856 0.91844 0.30394 0.0
C600 C 0.85878 0.88405 0.30113 0.0
C601 C 0.71314 0.81157 0.34706 0.0
C602 C 0.69012 0.81002 0.42377 0.0
C603 C 0.70833 0.82266 0.44695 0.0
C604 C 0.7141 0.80158 0.46129 0.0
C605 C 0.70229 0.76789 0.45181 0.0
C606 C 0.67772 0.776 0.41485 0.0
C607 C 0.68417 0.75522 0.42871 0.0
C608 C 0.7476 0.90816 0.35984 0.0
C609 C 0.68361 0.83242 0.40955 0.0
H610 H 0.68861 0.851 0.21292 0.0
H611 H 0.78461 0.90138 0.17561 0.0
H612 H 0.78621 0.8984 0.2548 0.0
H613 H 0.81707 0.9156 0.21598 0.0
H614 H 0.71727 0.8487 0.45411 0.0
H615 H 0.70702 0.75137 0.46229 0.0
H616 H 0.66278 0.76528 0.39736 0.0
H617 H 0.67481 0.72913 0.42162 0.0
Eu618 Eu 0.19146 0.82097 0.38301 0.0
C619 C 0.07572 0.77817 0.30497 0.0
C620 C 0.06826 0.73285 0.27473 0.0
C621 C 0.01809 0.73556 0.28785 0.0
C622 C 0.0897 0.76214 0.29096 0.0
C623 C 0.03984 0.76568 0.30301 0.0
C624 C 0.03228 0.71913 0.27374 0.0
C625 C 0.05021 0.81558 0.32892 0.0
N626 N 0.09752 0.80731 0.31922 0.0
C627 C 0.08556 0.82681 0.33031 0.0
C628 C 0.02713 0.78452 0.31561 0.0
Eu629 Eu 0.15692 0.8243 0.32174 0.0
N630 N 0.12457 0.77635 0.29218 0.0
C631 C 0.13995 0.76417 0.27603 0.0
C632 C 0.08374 0.71889 0.25941 0.0
C633 C 0.11978 0.73494 0.2598 0.0
H634 H 0.10313 0.85084 0.34068 0.0
H635 H 0.13206 0.72485 0.24758 0.0
H636 H 0.01534 0.69644 0.26158 0.0
H637 H 0.0408 0.83078 0.33826 0.0
H638 H 0.16776 0.77633 0.27615 0.0
H639 H 0.33099 0.91031 0.38661 0.0
H640 H 0.06819 0.69636 0.24672 0.0
H641 H 0.14929 0.74137 0.40087 0.0
H642 H 0.26926 0.89259 0.38466 0.0
H643 H 0.16159 0.69681 0.41012 0.0
H644 H 0.99041 0.72533 0.28634 0.0
H645 H 0.34815 0.86752 0.39008 0.0
H646 H 0.33041 0.80703 0.39559 0.0
H647 H 0.99975 0.77583 0.3146 0.0
H648 H 0.28425 0.74892 0.40239 0.0
N649 N 0.25136 0.84 0.38586 0.0
C650 C 0.27629 0.87357 0.38597 0.0
C651 C 0.32096 0.85955 0.38907 0.0
C652 C 0.29533 0.82552 0.39064 0.0
C653 C 0.31138 0.88378 0.3872 0.0
C654 C 0.2603 0.81649 0.38913 0.0
H655 H 0.22132 0.70779 0.40832 0.0
N656 N 0.20125 0.77684 0.3927 0.0
C657 C 0.1823 0.72112 0.40514 0.0
C658 C 0.23444 0.78388 0.39286 0.0
C659 C 0.17543 0.74646 0.39985 0.0
C660 C 0.21604 0.7274 0.40409 0.0
C661 C 0.24274 0.7593 0.39835 0.0
O662 O 0.16382 0.81521 0.41738 0.0
O663 O 0.14729 0.8191 0.36206 0.0
O664 O 0.16362 0.86724 0.34983 0.0
O665 O 0.20889 0.87528 0.37539 0.0
O666 O 0.13471 0.78184 0.386 0.0
O667 O 0.21653 0.85594 0.41649 0.0
O668 O 0.14972 0.86154 0.30377 0.0
O669 O 0.20449 0.84018 0.34567 0.0
O670 O 0.1832 0.77612 0.35683 0.0
O671 O 0.14197 0.76965 0.32675 0.0
O672 O 0.20289 0.82044 0.30946 0.0
O673 O 0.191 0.85342 0.29293 0.0
C674 C 0.12233 0.79339 0.37056 0.0
C675 C 0.19847 0.83022 0.45408 0.0
C676 C 0.19026 0.82491 0.49856 0.0
C677 C 0.18349 0.83422 0.47591 0.0
C678 C 0.21139 0.81066 0.49896 0.0
C679 C 0.22005 0.81658 0.45496 0.0
C680 C 0.22624 0.80663 0.47726 0.0
C681 C 0.19045 0.88685 0.36554 0.0
C682 C 0.19062 0.83933 0.4304 0.0
C683 C 0.27741 0.76761 0.39856 0.0
C684 C 0.30367 0.80066 0.39466 0.0
C685 C 0.22112 0.83277 0.33014 0.0
C686 C 0.16895 0.87378 0.26275 0.0
C687 C 0.17939 0.86044 0.24241 0.0
C688 C 0.1771 0.8685 0.21799 0.0
C689 C 0.1643 0.89017 0.21433 0.0
C690 C 0.15564 0.89474 0.2584 0.0
C691 C 0.15326 0.90275 0.23434 0.0
C692 C 0.15956 0.75836 0.33847 0.0
C693 C 0.17473 0.8692 0.28881 0.0
H694 H 0.16711 0.84511 0.47535 0.0
H695 H 0.2165 0.80275 0.51608 0.0
H696 H 0.23212 0.81361 0.43847 0.0
H697 H 0.2427 0.79588 0.47773 0.0
H698 H 0.18957 0.84413 0.24557 0.0
H699 H 0.16346 0.89804 0.19605 0.0
H700 H 0.14787 0.90564 0.27375 0.0
H701 H 0.1435 0.91941 0.23125 0.0
Eu702 Eu 0.82344 0.63993 0.65544 0.0
C703 C 0.91095 0.76951 0.72921 0.0
C704 C 0.9688 0.77887 0.72676 0.0
C705 C 0.96073 0.82704 0.735 0.0
C706 C 0.93257 0.75677 0.72523 0.0
C707 C 0.92476 0.8047 0.73483 0.0
C708 C 0.98273 0.81413 0.73095 0.0
C709 C 0.86679 0.79266 0.74233 0.0
N710 N 0.87644 0.74719 0.72929 0.0
C711 C 0.85443 0.75798 0.73685 0.0
C712 C 0.90207 0.8162 0.74097 0.0
Eu713 Eu 0.85687 0.68912 0.71795 0.0
N714 N 0.91822 0.72257 0.72149 0.0
C715 C 0.9387 0.70863 0.7213 0.0
C716 C 0.98993 0.76477 0.72494 0.0
C717 C 0.97479 0.72947 0.72271 0.0
H718 H 0.82711 0.73976 0.73779 0.0
H719 H 0.99088 0.71828 0.72185 0.0
H720 H 0.01049 0.83154 0.73188 0.0
H721 H 0.84913 0.8012 0.74762 0.0
H722 H 0.92743 0.68142 0.71933 0.0
H723 H 0.6893 0.61032 0.64928 0.0
H724 H 0.01788 0.78085 0.72598 0.0
H725 H 0.85409 0.59003 0.63597 0.0
H726 H 0.75266 0.64737 0.65292 0.0
H727 H 0.83252 0.52882 0.62536 0.0
H728 H 0.97185 0.85421 0.73899 0.0
H729 H 0.66256 0.54779 0.64437 0.0
H730 H 0.67031 0.49735 0.63824 0.0
H731 H 0.91165 0.84305 0.74538 0.0
H732 H 0.70935 0.47506 0.63163 0.0
N733 N 0.76215 0.60639 0.65076 0.0
C734 C 0.74157 0.6202 0.65066 0.0
C735 C 0.6905 0.56396 0.64594 0.0
C736 C 0.71178 0.55003 0.64438 0.0
C737 C 0.7055 0.59924 0.64861 0.0
C738 C 0.74799 0.57224 0.64663 0.0
H739 H 0.76989 0.48665 0.6263 0.0
N740 N 0.80437 0.58213 0.64366 0.0
C741 C 0.81461 0.53712 0.63043 0.0
C742 C 0.76983 0.55969 0.64298 0.0
C743 C 0.82673 0.57168 0.63638 0.0
C744 C 0.77926 0.5134 0.63107 0.0
C745 C 0.75628 0.52462 0.6369 0.0
O746 O 0.84991 0.64511 0.62065 0.0
O747 O 0.86734 0.68295 0.67821 0.0
O748 O 0.8509 0.72318 0.69308 0.0
O749 O 0.81422 0.68451 0.66016 0.0
O750 O 0.87992 0.65511 0.65332 0.0
O751 O 0.80938 0.65708 0.62312 0.0
O752 O 0.83356 0.68645 0.75392 0.0
O753 O 0.81258 0.64633 0.69521 0.0
O754 O 0.8281 0.60523 0.68061 0.0
O755 O 0.86533 0.64408 0.7132 0.0
O756 O 0.80058 0.67406 0.7208 0.0
O757 O 0.87122 0.67083 0.74929 0.0
C758 C 0.89236 0.68131 0.66946 0.0
C759 C 0.81817 0.63783 0.58344 0.0
C760 C 0.8192 0.64151 0.5384 0.0
C761 C 0.83178 0.65678 0.5628 0.0
C762 C 0.7929 0.60703 0.53503 0.0
C763 C 0.79205 0.60347 0.57966 0.0
C764 C 0.77956 0.58818 0.55553 0.0
C765 C 0.83006 0.71479 0.6731 0.0
C766 C 0.83124 0.6543 0.60878 0.0
C767 C 0.72028 0.50215 0.63598 0.0
C768 C 0.69806 0.51484 0.63974 0.0
C769 C 0.78784 0.64841 0.70416 0.0
C770 C 0.86803 0.69278 0.78943 0.0
C771 C 0.85692 0.67425 0.81042 0.0
C772 C 0.87304 0.68948 0.83411 0.0
C773 C 0.90012 0.72366 0.83654 0.0
C774 C 0.89518 0.72679 0.79217 0.0
C775 C 0.91106 0.74214 0.81566 0.0
C776 C 0.84876 0.6135 0.70071 0.0
C777 C 0.8518 0.67592 0.76476 0.0
H778 H 0.85164 0.68348 0.56575 0.0
H779 H 0.78276 0.59464 0.51648 0.0
H780 H 0.78125 0.58856 0.59533 0.0
H781 H 0.75936 0.56165 0.55271 0.0
H782 H 0.83613 0.64785 0.80825 0.0
H783 H 0.91258 0.73617 0.85462 0.0
H784 H 0.90417 0.74137 0.77618 0.0
H785 H 0.93194 0.76844 0.8177 0.0
Eu786 Eu 0.36918 0.1893 0.65638 0.0
C787 C 0.23826 0.13485 0.72227 0.0
C788 C 0.22249 0.17798 0.72496 0.0
C789 C 0.17832 0.1188 0.72776 0.0
C790 C 0.24752 0.16842 0.72179 0.0
C791 C 0.20367 0.10971 0.72579 0.0
C792 C 0.18772 0.1529 0.72734 0.0
C793 C 0.22219 0.06893 0.72691 0.0
N794 N 0.26345 0.12703 0.72057 0.0
C795 C 0.25613 0.09478 0.72356 0.0
C796 C 0.19578 0.07635 0.72785 0.0
Eu797 Eu 0.32036 0.17204 0.71456 0.0
N798 N 0.28137 0.19201 0.71971 0.0
C799 C 0.2923 0.22582 0.72248 0.0
C800 C 0.23334 0.21257 0.72644 0.0
C801 C 0.26851 0.23663 0.72558 0.0
H802 H 0.27633 0.08873 0.72279 0.0
H803 H 0.27731 0.26349 0.72709 0.0
H804 H 0.16807 0.15971 0.72953 0.0
H805 H 0.21644 0.04329 0.72874 0.0
H806 H 0.31926 0.24455 0.72145 0.0
H807 H 0.41165 0.09754 0.64153 0.0
H808 H 0.21494 0.22098 0.72881 0.0
H809 H 0.41389 0.27276 0.64902 0.0
H810 H 0.36951 0.11647 0.64598 0.0
H811 H 0.47461 0.31866 0.64575 0.0
H812 H 0.15155 0.0998 0.73022 0.0
H813 H 0.47439 0.14001 0.64319 0.0
H814 H 0.52185 0.20146 0.64552 0.0
H815 H 0.16952 0.0563 0.73053 0.0
H816 H 0.53903 0.26174 0.6466 0.0
N817 N 0.40787 0.16903 0.65093 0.0
C818 C 0.39676 0.13524 0.64672 0.0
C819 C 0.45597 0.14845 0.64517 0.0
C820 C 0.46708 0.18311 0.64784 0.0
C821 C 0.42059 0.12441 0.64416 0.0
C822 C 0.44202 0.1927 0.65044 0.0
H823 H 0.52153 0.30563 0.6462 0.0
N824 N 0.42652 0.23444 0.65194 0.0
C825 C 0.46854 0.29288 0.64733 0.0
C826 C 0.45167 0.22652 0.65102 0.0
C827 C 0.43419 0.26684 0.6491 0.0
C828 C 0.49496 0.28544 0.64767 0.0
C829 C 0.48665 0.25183 0.64908 0.0
O830 O 0.35949 0.20656 0.62239 0.0
O831 O 0.32537 0.18788 0.67621 0.0
O832 O 0.28532 0.13309 0.68373 0.0
O833 O 0.32649 0.13332 0.65726 0.0
O834 O 0.35145 0.22749 0.65429 0.0
O835 O 0.35422 0.15695 0.62118 0.0
O836 O 0.33069 0.15581 0.74889 0.0
O837 O 0.36373 0.1723 0.69456 0.0
O838 O 0.40428 0.2278 0.68749 0.0
O839 O 0.36333 0.2279 0.71382 0.0
O840 O 0.33662 0.13303 0.71682 0.0
O841 O 0.3367 0.20575 0.74899 0.0
C842 C 0.32591 0.21331 0.66861 0.0
C843 C 0.37185 0.18624 0.5849 0.0
C844 C 0.36937 0.18484 0.53956 0.0
C845 C 0.35264 0.17762 0.56221 0.0
C846 C 0.40571 0.20126 0.54002 0.0
C847 C 0.408 0.20213 0.58498 0.0
C848 C 0.42482 0.20966 0.56261 0.0
C849 C 0.29477 0.1186 0.66579 0.0
C850 C 0.35389 0.17969 0.60833 0.0
C851 C 0.51196 0.24263 0.64782 0.0
C852 C 0.50219 0.20831 0.6472 0.0
C853 C 0.36195 0.14624 0.70226 0.0
C854 C 0.31998 0.17829 0.78609 0.0
C855 C 0.33766 0.17845 0.80756 0.0
C856 C 0.32246 0.17405 0.83076 0.0
C857 C 0.28874 0.1684 0.83202 0.0
C858 C 0.28644 0.17282 0.78762 0.0
C859 C 0.27087 0.16775 0.81052 0.0
C860 C 0.39534 0.24206 0.70594 0.0
C861 C 0.33695 0.18335 0.76232 0.0
H862 H 0.32465 0.16508 0.56219 0.0
H863 H 0.41936 0.20782 0.52293 0.0
H864 H 0.4232 0.20897 0.60227 0.0
H865 H 0.45276 0.22221 0.56279 0.0
H866 H 0.36329 0.18194 0.80614 0.0
H867 H 0.27644 0.16506 0.84967 0.0
H868 H 0.27237 0.17248 0.77121 0.0
H869 H 0.24499 0.16357 0.81164 0.0
Eu870 Eu 0.83342 0.13738 0.71766 0.0
C871 C 0.75505 0.18119 0.64629 0.0
C872 C 0.69551 0.13551 0.64687 0.0
C873 C 0.70847 0.19243 0.64017 0.0
C874 C 0.73129 0.14767 0.64922 0.0
C875 C 0.74398 0.20377 0.6409 0.0
C876 C 0.68424 0.1583 0.64317 0.0
C877 C 0.80345 0.24551 0.63416 0.0
N878 N 0.78899 0.19102 0.64671 0.0
C879 C 0.81301 0.22203 0.63946 0.0
C880 C 0.76883 0.23657 0.63536 0.0
Eu881 Eu 0.80416 0.15112 0.65732 0.0
N882 N 0.74318 0.1264 0.65247 0.0
C883 C 0.72064 0.09208 0.65113 0.0
C884 C 0.67222 0.10061 0.64727 0.0
C885 C 0.68489 0.07872 0.64886 0.0
H886 H 0.83981 0.22901 0.63858 0.0
H887 H 0.66715 0.05158 0.64857 0.0
H888 H 0.65686 0.14955 0.64169 0.0
H889 H 0.82276 0.27046 0.62917 0.0
H890 H 0.72995 0.07489 0.65273 0.0
H891 H 0.96803 0.24104 0.73351 0.0
H892 H 0.64453 0.09023 0.64556 0.0
H893 H 0.7994 0.05496 0.7258 0.0
H894 H 0.90501 0.2155 0.72775 0.0
H895 H 0.81925 0.01435 0.73063 0.0
H896 H 0.69944 0.20949 0.6364 0.0
H897 H 0.99316 0.20422 0.73384 0.0
H898 H 0.98369 0.14533 0.73273 0.0
H899 H 0.76142 0.2547 0.6311 0.0
H900 H 0.94323 0.0836 0.73184 0.0
N901 N 0.89425 0.16449 0.72431 0.0
C902 C 0.91544 0.19901 0.72796 0.0
C903 C 0.96538 0.1928 0.73135 0.0
C904 C 0.94338 0.15743 0.72896 0.0
C905 C 0.95129 0.21366 0.73125 0.0
C906 C 0.90741 0.14385 0.72564 0.0
H907 H 0.88188 0.03458 0.7315 0.0
N908 N 0.85022 0.09717 0.72322 0.0
C909 C 0.83792 0.04089 0.72892 0.0
C910 C 0.88471 0.10911 0.72497 0.0
C911 C 0.82677 0.06387 0.72627 0.0
C912 C 0.87329 0.0524 0.72932 0.0
C913 C 0.89723 0.08699 0.72782 0.0
O914 O 0.80585 0.11578 0.75089 0.0
O915 O 0.79099 0.13755 0.69639 0.0
O916 O 0.81368 0.19581 0.68382 0.0
O917 O 0.84405 0.19176 0.71772 0.0
O918 O 0.77636 0.09703 0.71747 0.0
O919 O 0.84781 0.16836 0.75335 0.0
O920 O 0.83344 0.16649 0.62374 0.0
O921 O 0.84669 0.15289 0.6795 0.0
O922 O 0.83274 0.10001 0.68763 0.0
O923 O 0.79148 0.09635 0.65955 0.0
O924 O 0.86133 0.1914 0.65665 0.0
O925 O 0.78757 0.1165 0.62333 0.0
C926 C 0.76519 0.1113 0.7035 0.0
C927 C 0.83829 0.13868 0.78906 0.0
C928 C 0.83984 0.14258 0.83444 0.0
C929 C 0.82757 0.14656 0.8117 0.0
C930 C 0.86249 0.13004 0.83427 0.0
C931 C 0.86112 0.12645 0.78922 0.0
C932 C 0.87303 0.12203 0.81173 0.0
C933 C 0.83226 0.20794 0.70522 0.0
C934 C 0.82543 0.14335 0.76554 0.0
C935 C 0.93309 0.10022 0.72993 0.0
C936 C 0.95612 0.13538 0.73046 0.0
C937 C 0.87251 0.17898 0.67235 0.0
C938 C 0.80169 0.14247 0.58554 0.0
C939 C 0.8217 0.1434 0.56544 0.0
C940 C 0.81216 0.14587 0.54117 0.0
C941 C 0.7829 0.14885 0.53755 0.0
C942 C 0.77256 0.14538 0.58166 0.0
C943 C 0.76337 0.14875 0.55772 0.0
C944 C 0.81041 0.08452 0.66833 0.0
C945 C 0.81194 0.13852 0.61031 0.0
H946 H 0.81021 0.15638 0.81164 0.0
H947 H 0.872 0.12645 0.85157 0.0
H948 H 0.86973 0.12031 0.77203 0.0
H949 H 0.89056 0.11247 0.81171 0.0
H950 H 0.84475 0.14214 0.56878 0.0
H951 H 0.77477 0.15064 0.51907 0.0
H952 H 0.75697 0.14497 0.59704 0.0
H953 H 0.74082 0.1509 0.55474 0.0
C954 C 0.36964 0.88454 0.04789 0.0
C955 C 0.34137 0.88944 0.05098 0.0
C956 C 0.40243 0.91139 0.04253 0.0
C957 C 0.40809 0.94411 0.04045 0.0
H958 H 0.36651 0.85987 0.04991 0.0
H959 H 0.42372 0.90683 0.041 0.0
S960 S 0.34304 0.97038 0.04631 0.0
N961 N 0.3213 0.9295 0.05059 0.0
N962 N 0.38315 0.98002 0.04155 0.0
C963 C 0.38012 0.94927 0.04321 0.0
C964 C 0.34665 0.92188 0.04807 0.0
C965 C 0.06847 0.42099 0.04443 0.0
C966 C 0.10447 0.44262 0.04907 0.0
C967 C 0.04678 0.43402 0.0411 0.0
C968 C 0.06014 0.46918 0.0416 0.0
H969 H 0.05659 0.39367 0.0442 0.0
H970 H 0.01912 0.41639 0.03848 0.0
S971 S 0.15223 0.53696 0.05274 0.0
N972 N 0.1525 0.50127 0.05349 0.0
N973 N 0.11139 0.52558 0.04735 0.0
C974 C 0.09603 0.4912 0.04564 0.0
C975 C 0.11827 0.47795 0.04919 0.0
C976 C 0.56693 0.64505 0.06836 0.0
C977 C 0.5619 0.66434 0.05159 0.0
C978 C 0.55374 0.61021 0.06281 0.0
C979 C 0.53467 0.593 0.04035 0.0
H980 H 0.58174 0.65699 0.08583 0.0
H981 H 0.55877 0.59674 0.07627 0.0
S982 S 0.51295 0.63129 0.99036 0.0
N983 N 0.53563 0.66332 0.01174 0.0
N984 N 0.5106 0.59772 1.00139 0.0
C985 C 0.52861 0.6117 0.02363 0.0
C986 C 0.54231 0.64736 0.02921 0.0
C987 C 0.89715 0.35889 1.00553 0.0
C988 C 0.88958 0.34875 0.97986 0.0
C989 C 0.92251 0.39219 0.01418 0.0
C990 C 0.94111 0.41678 0.99759 0.0
H991 H 0.88395 0.34081 0.01914 0.0
H992 H 0.92828 0.39832 0.03399 0.0
S993 S 0.9304 0.40425 0.92865 0.0
N994 N 0.90239 0.36665 0.93785 0.0
N995 N 0.94976 0.42934 0.95438 0.0
C996 C 0.93369 0.40728 0.97192 0.0
C997 C 0.90792 0.3733 0.96301 0.0
C998 C 0.64547 0.56874 0.99616 0.0
C999 C 0.66271 0.55049 0.99229 0.0
C1000 C 0.61003 0.55219 1.00058 0.0
C1001 C 0.59055 0.51682 1.00163 0.0
H1002 H 0.65911 0.59596 0.99498 0.0
H1003 H 0.59754 0.56703 1.00246 0.0
S1004 S 0.62284 0.45725 0.99436 0.0
N1005 N 0.65731 0.49489 0.99122 0.0
N1006 N 0.59061 0.46407 0.99906 0.0
C1007 C 0.60733 0.49832 0.99841 0.0
C1008 C 0.64348 0.5151 0.99406 0.0
C1009 C 0.46993 0.11705 1.00099 0.0
C1010 C 0.43531 0.10453 0.99315 0.0
C1011 C 0.48174 0.09491 1.00538 0.0
C1012 C 0.45962 0.05935 1.00161 0.0
H1013 H 0.48793 0.14419 1.00427 0.0
H1014 H 0.50847 0.10585 0.01181 0.0
S1015 S 0.36671 0.01368 0.98059 0.0
N1016 N 0.37905 0.05432 0.98157 0.0
N1017 N 0.40138 0.01284 0.9893 0.0
C1018 C 0.42507 0.04656 0.99337 0.0
C1019 C 0.41288 0.0691 0.98931 0.0
C1020 C 0.64141 0.06749 0.99002 0.0
C1021 C 0.64764 0.10062 0.98875 0.0
C1022 C 0.60802 0.04016 0.99316 0.0
C1023 C 0.57988 0.04513 0.99607 0.0
H1024 H 0.66229 0.06242 0.98792 0.0
H1025 H 0.60417 0.01491 0.99333 0.0
S1026 S 0.58209 0.12656 0.99365 0.0
N1027 N 0.62263 0.13668 0.99029 0.0
N1028 N 0.56002 0.08526 0.99638 0.0
C1029 C 0.58567 0.07803 0.99487 0.0
C1030 C 0.61956 0.10581 0.99127 0.0
C1031 C 0.94979 0.59055 0.99446 0.0
C1032 C 0.91534 0.56317 0.99129 0.0
C1033 C 0.97728 0.58518 0.99888 0.0
C1034 C 0.9713 0.55237 1.00114 0.0
H1035 H 0.95567 0.61635 0.99318 0.0
H1036 H 1.00341 0.60696 1.001 0.0
S1037 S 0.88627 0.47186 0.9932 0.0
N1038 N 0.87703 0.50181 0.98987 0.0
N1039 N 0.92866 0.49191 0.99826 0.0
C1040 C 0.93712 0.52473 0.99762 0.0
C1041 C 0.90915 0.5301 0.99278 0.0
C1042 C 0.43549 0.3318 0.98392 0.0
C1043 C 0.45865 0.32039 0.98782 0.0
C1044 C 0.4448 0.36552 0.99087 0.0
C1045 C 0.47761 0.38918 1.00207 0.0
H1046 H 0.40992 0.31461 0.9753 0.0
H1047 H 0.42603 0.37303 0.98754 0.0
S1048 S 0.54871 0.37305 0.01477 0.0
N1049 N 0.51642 0.33597 1.00277 0.0
N1050 N 0.5339 0.39932 0.01565 0.0
C1051 C 0.50108 0.37822 1.006 0.0
C1052 C 0.49162 0.34386 0.99893 0.0
C1053 C 0.11801 0.66675 0.07497 0.0
C1054 C 0.15352 0.67841 0.07328 0.0
C1055 C 0.09259 0.63433 0.06462 0.0
C1056 C 0.10144 0.6121 0.05196 0.0
H1057 H 0.10958 0.68267 0.08456 0.0
H1058 H 0.06573 0.62679 0.06657 0.0
S1059 S 0.19078 0.6299 0.0427 0.0
N1060 N 0.19627 0.66491 0.05808 0.0
N1061 N 0.1485 0.60398 0.03871 0.0
C1062 C 0.13687 0.62345 0.04999 0.0
C1063 C 0.16286 0.65654 0.06061 0.0
C1064 C 0.35361 0.41436 0.04432 0.0
C1065 C 0.349 0.43954 0.0573 0.0
C1066 C 0.38662 0.42107 0.03775 0.0
C1067 C 0.41614 0.45341 0.04334 0.0
H1068 H 0.33162 0.38906 0.03948 0.0
H1069 H 0.3891 0.4008 0.02827 0.0
S1070 S 0.41876 0.52844 0.07665 0.0
N1071 N 0.37745 0.49838 0.07533 0.0
N1072 N 0.43901 0.51081 0.06268 0.0
C1073 C 0.41205 0.47884 0.05617 0.0
C1074 C 0.3786 0.472 0.06311 0.0
C1075 C 0.51224 0.87004 0.04516 0.0
C1076 C 0.54764 0.88056 0.04602 0.0
C1077 C 0.50109 0.89233 0.03953 0.0
C1078 C 0.52501 0.92618 0.03525 0.0
H1079 H 0.49294 0.84425 0.04854 0.0
H1080 H 0.4736 0.88314 0.03884 0.0
S1081 S 0.62035 0.96621 0.0346 0.0
N1082 N 0.60644 0.92698 0.04144 0.0
N1083 N 0.58539 0.96887 0.03135 0.0
C1084 C 0.56037 0.93702 0.03599 0.0
C1085 C 0.57172 0.9142 0.04123 0.0
C1086 C 0.0239 0.20972 0.37474 0.0
C1087 C 0.9964 0.21588 0.37735 0.0
C1088 C 0.05786 0.23634 0.372 0.0
C1089 C 0.06544 0.27001 0.37191 0.0
H1090 H 0.01927 0.18421 0.37514 0.0
H1091 H 0.07841 0.2307 0.37084 0.0
S1092 S 1.00325 0.29988 0.37737 0.0
N1093 N 0.97929 0.25835 0.3788 0.0
N1094 N 0.04327 0.30827 0.37426 0.0
C1095 C 0.03834 0.27652 0.37419 0.0
C1096 C 1.00373 0.24946 0.37658 0.0
C1097 C 0.80131 0.82573 0.36522 0.0
C1098 C 0.7945 0.79227 0.36608 0.0
C1099 C 0.7754 0.83202 0.35768 0.0
C1100 C 0.74178 0.80513 0.3505 0.0
H1101 H 0.82647 0.84735 0.37133 0.0
H1102 H 0.78138 0.85806 0.35855 0.0
S1103 S 0.71099 0.71313 0.34679 0.0
N1104 N 0.75185 0.73194 0.35704 0.0
N1105 N 0.70346 0.7441 0.34302 0.0
C1106 C 0.73498 0.77172 0.35011 0.0
C1107 C 0.76128 0.76521 0.35772 0.0
C1108 C 0.23569 0.97548 0.3991 0.0
C1109 C 0.22361 0.99281 0.38573 0.0
C1110 C 0.22456 0.9413 0.39248 0.0
C1111 C 0.20063 0.92275 0.3723 0.0
H1112 H 0.25425 0.98845 0.41477 0.0
H1113 H 0.23494 0.92939 0.40339 0.0
S1114 S 0.1605 0.95591 0.33129 0.0
N1115 N 0.18603 0.98869 0.35137 0.0
N1116 N 0.16487 0.92422 0.33901 0.0
C1117 C 0.18792 0.93955 0.35888 0.0
C1118 C 0.19949 0.9746 0.36555 0.0
C1119 C 0.59933 0.69289 0.29949 0.0
C1120 C 0.59005 0.68667 0.27381 0.0
C1121 C 0.61968 0.72597 0.31078 0.0
C1122 C 0.63176 0.75405 0.29683 0.0
H1123 H 0.59036 0.67209 0.31117 0.0
H1124 H 0.62653 0.72949 0.3305 0.0
S1125 S 0.61697 0.75205 0.2289 0.0
N1126 N 0.59577 0.71162 0.23457 0.0
N1127 N 0.63468 0.77407 0.25602 0.0
C1128 C 0.62369 0.74845 0.27109 0.0
C1129 C 0.60254 0.71467 0.25953 0.0
C1130 C 0.31036 0.84614 0.3214 0.0
C1131 C 0.33113 0.88171 0.32078 0.0
C1132 C 0.27486 0.83046 0.32558 0.0
C1133 C 0.25903 0.84977 0.32987 0.0
H1134 H 0.32126 0.8301 0.31778 0.0
H1135 H 0.25954 0.80299 0.32492 0.0
S1136 S 0.30118 0.94335 0.33118 0.0
N1137 N 0.33274 0.93571 0.32575 0.0
N1138 N 0.26608 0.90587 0.33333 0.0
C1139 C 0.27932 0.8852 0.32981 0.0
C1140 C 0.31541 0.90127 0.32553 0.0
C1141 C 0.0971 0.41922 0.34966 0.0
C1142 C 0.10867 0.43779 0.32863 0.0
C1143 C 0.1064 0.39533 0.35448 0.0
C1144 C 0.12692 0.38875 0.33818 0.0
H1145 H 0.0814 0.42369 0.3628 0.0
H1146 H 0.09742 0.38188 0.37103 0.0
S1147 S 0.16248 0.42884 0.28004 0.0
N1148 N 0.14122 0.44716 0.29109 0.0
N1149 N 0.15772 0.40141 0.29999 0.0
C1150 C 0.13797 0.40633 0.31684 0.0
C1151 C 0.12912 0.43115 0.31212 0.0
C1152 C 0.30236 0.38774 0.33123 0.0
C1153 C 0.30966 0.4214 0.33108 0.0
C1154 C 0.26856 0.36076 0.33334 0.0
C1155 C 0.24098 0.36654 0.3361 0.0
H1156 H 0.32276 0.38197 0.32913 0.0
H1157 H 0.26395 0.33517 0.33289 0.0
S1158 S 0.24558 0.44936 0.33589 0.0
N1159 N 0.28602 0.45876 0.33337 0.0
N1160 N 0.22251 0.40781 0.33724 0.0
C1161 C 0.24769 0.39988 0.33587 0.0
C1162 C 0.28208 0.42741 0.33352 0.0
C1163 C 0.58752 0.8638 0.30769 0.0
C1164 C 0.59038 0.8958 0.31199 0.0
C1165 C 0.61626 0.86007 0.31109 0.0
C1166 C 0.64895 0.88821 0.31884 0.0
H1167 H 0.5628 0.84133 0.30189 0.0
H1168 H 0.61289 0.835 0.30757 0.0
S1169 S 0.6711 0.97757 0.33152 0.0
N1170 N 0.6292 0.95631 0.32387 0.0
N1171 N 0.68315 0.9491 0.3297 0.0
C1172 C 0.6525 0.92037 0.32256 0.0
C1173 C 0.62321 0.92419 0.31945 0.0
C1174 C 0.11147 0.66468 0.31545 0.0
C1175 C 0.13694 0.6558 0.31786 0.0
C1176 C 0.11906 0.69803 0.3218 0.0
C1177 C 0.15237 0.72371 0.33084 0.0
H1178 H 0.08534 0.64571 0.30872 0.0
H1179 H 0.09854 0.70359 0.31997 0.0
S1180 S 0.22933 0.71486 0.33781 0.0
N1181 N 0.19749 0.67616 0.32831 0.0
N1182 N 0.21177 0.7388 0.33983 0.0
C1183 C 0.1783 0.71543 0.33273 0.0
C1184 C 0.17057 0.68149 0.32638 0.0
C1185 C 0.78982 -0.00171 0.39041 0.0
C1186 C 0.82516 0.00863 0.39189 0.0
C1187 C 0.76466 0.9654 0.38068 0.0
C1188 C 0.77386 0.94154 0.37228 0.0
H1189 H 0.78148 0.0159 0.39641 0.0
H1190 H 0.73805 0.95914 0.37898 0.0
S1191 S 0.8624 0.95476 0.37378 0.0
N1192 N 0.86783 0.99171 0.38505 0.0
N1193 N 0.82045 0.92974 0.36724 0.0
C1194 C 0.80898 0.95123 0.37415 0.0
C1195 C 0.83465 0.9848 0.38383 0.0
C1196 C 0.02479 0.75002 0.37277 0.0
C1197 C 0.02001 0.77529 0.38542 0.0
C1198 C 0.05799 0.75631 0.36737 0.0
C1199 C 0.08756 0.78828 0.37394 0.0
H1200 H 1.00276 0.72499 0.36722 0.0
H1201 H 0.06058 0.73602 0.35806 0.0
S1202 S 0.09007 0.8631 0.40734 0.0
N1203 N 0.04849 0.83375 0.40439 0.0
N1204 N 0.11056 0.84516 0.39423 0.0
C1205 C 0.08341 0.81371 0.38661 0.0
C1206 C 0.04971 0.80738 0.39222 0.0
C1207 C 0.15849 0.18766 0.38446 0.0
C1208 C 0.19321 0.19594 0.38663 0.0
C1209 C 0.14996 0.21121 0.3771 0.0
C1210 C 0.17591 0.24413 0.37233 0.0
H1211 H 0.13771 0.16271 0.38833 0.0
H1212 H 0.12295 0.2039 0.3757 0.0
S1213 S 0.27046 0.27823 0.37422 0.0
N1214 N 0.25355 0.23914 0.3824 0.0
N1215 N 0.23739 0.28343 0.36909 0.0
C1216 C 0.21059 0.25264 0.37411 0.0
C1217 C 0.21928 0.22852 0.38112 0.0
C1218 C 0.71382 0.56005 0.71386 0.0
C1219 C 0.68585 0.56528 0.7174 0.0
C1220 C 0.7465 0.58664 0.70818 0.0
C1221 C 0.75241 0.61947 0.70611 0.0
H1222 H 0.71057 0.53532 0.7158 0.0
H1223 H 0.76752 0.58174 0.7063 0.0
S1224 S 0.68804 0.64651 0.71293 0.0
N1225 N 0.66621 0.60571 0.71748 0.0
N1226 N 0.72791 0.65578 0.7076 0.0
C1227 C 0.72471 0.62497 0.7093 0.0
C1228 C 0.6913 0.59781 0.71457 0.0
C1229 C 0.40079 0.09085 0.70377 0.0
C1230 C 0.43596 0.11413 0.71051 0.0
C1231 C 0.37749 0.10185 0.69991 0.0
C1232 C 0.38849 0.13658 0.7019 0.0
H1233 H 0.39064 0.06371 0.70255 0.0
H1234 H 0.35037 0.08293 0.69589 0.0
S1235 S 0.47786 0.20827 0.71757 0.0
N1236 N 0.4809 0.17397 0.71776 0.0
N1237 N 0.43676 0.19441 0.7105 0.0
C1238 C 0.42369 0.16032 0.70763 0.0
C1239 C 0.44753 0.14915 0.71181 0.0
C1240 C 0.85773 0.30057 0.70929 0.0
C1241 C 0.85979 0.30938 0.7351 0.0
C1242 C 0.84865 0.26768 0.69985 0.0
C1243 C 0.84096 0.24218 0.71575 0.0
H1244 H 0.86409 0.31943 0.6962 0.0
H1245 H 0.84886 0.26264 0.68 0.0
S1246 S 0.84003 0.25104 0.78469 0.0
N1247 N 0.85184 0.28922 0.77646 0.0
N1248 N 0.83431 0.22726 0.75847 0.0
C1249 C 0.84217 0.25029 0.74155 0.0
C1250 C 0.85157 0.28387 0.75126 0.0
C1251 C 0.26008 0.02618 0.64383 0.0
C1252 C 0.22409 0.01122 0.64572 0.0
C1253 C 0.28261 0.06111 0.64958 0.0
C1254 C 0.27006 0.08254 0.65736 0.0
H1255 H 0.27115 0.01071 0.63833 0.0
H1256 H 0.31015 0.07111 0.64863 0.0
S1257 S 0.1778 0.05688 0.66258 0.0
N1258 N 0.17671 0.021 0.65426 0.0
N1259 N 0.21915 0.08689 0.66468 0.0
C1260 C 0.23406 0.0682 0.65853 0.0
C1261 C 0.21106 0.0325 0.65283 0.0
C1262 C 0.94655 0.16297 0.66309 0.0
C1263 C 0.97536 0.19601 0.66206 0.0
C1264 C 0.91348 0.15757 0.66749 0.0
C1265 C 0.90796 0.185 0.67125 0.0
H1266 H 0.94926 0.14093 0.65977 0.0
H1267 H 0.89197 0.13169 0.66706 0.0
S1268 S 0.97435 0.27643 0.67206 0.0
N1269 N 0.99601 0.25671 0.66654 0.0
N1270 N 0.93369 0.24619 0.6745 0.0
C1271 C 0.93643 0.21809 0.67087 0.0
C1272 C 0.9702 0.22371 0.66658 0.0
C1273 C 0.80575 0.78203 0.67069 0.0
C1274 C 0.81597 0.79344 0.64696 0.0
C1275 C 0.81064 0.75664 0.67921 0.0
C1276 C 0.82505 0.74131 0.66402 0.0
H1277 H 0.79427 0.79306 0.68287 0.0
H1278 H 0.80258 0.74857 0.6976 0.0
S1279 S 0.85521 0.76111 0.60031 0.0
N1280 N 0.84105 0.78713 0.60841 0.0
N1281 N 0.84925 0.73877 0.62432 0.0
C1282 C 0.83497 0.75208 0.64023 0.0
C1283 C 0.83073 0.77838 0.63173 0.0
C1284 C 0.96076 0.77111 0.65762 0.0
C1285 C 0.9902 0.7685 0.6536 0.0
C1286 C 0.92951 0.74313 0.66383 0.0
C1287 C 0.92647 0.71144 0.66599 0.0
H1288 H 0.96179 0.79491 0.6558 0.0
H1289 H 0.90736 0.74616 0.66621 0.0
S1290 S 0.9956 0.69109 0.65746 0.0
N1291 N 0.0144 0.73174 0.65272 0.0
N1292 N 0.95516 0.67888 0.66363 0.0
C1293 C 0.95559 0.70845 0.66205 0.0
C1294 C 0.98765 0.7371 0.65623 0.0
C1295 C 0.23389 0.19456 0.66 0.0
C1296 C 0.23838 0.22727 0.66044 0.0
C1297 C 0.26222 0.19014 0.66324 0.0
C1298 C 0.2961 0.21825 0.66697 0.0
H1299 H 0.20828 0.17212 0.65713 0.0
H1300 H 0.25757 0.16453 0.66243 0.0
S1301 S 0.32231 0.30907 0.66953 0.0
N1302 N 0.27977 0.28828 0.66497 0.0
N1303 N 0.33286 0.27968 0.67061 0.0
C1304 C 0.3011 0.25099 0.66719 0.0
C1305 C 0.27227 0.25558 0.66423 0.0
C1306 C 0.83245 0.01701 0.6483 0.0
C1307 C 0.806 -0.00468 0.6303 0.0
C1308 C 0.83326 0.04536 0.66067 0.0
C1309 C 0.80758 0.05326 0.65567 0.0
H1310 H 0.85314 0.01245 0.65266 0.0
H1311 H 0.85474 0.06159 0.67387 0.0
S1312 S 0.73166 0.00378 0.61096 0.0
N1313 N 0.75273 0.98314 0.60863 0.0
N1314 N 0.75424 0.0363 0.63196 0.0
C1315 C 0.78061 0.03146 0.63803 0.0
C1316 C 0.77978 0.00253 0.62539 0.0
C1317 C 0.48387 0.31998 0.72428 0.0
C1318 C 0.47607 0.34108 0.73971 0.0
C1319 C 0.45764 0.28807 0.7136 0.0
C1320 C 0.42246 0.27594 0.71775 0.0
H1321 H 0.51048 0.32794 0.72058 0.0
H1322 H 0.4652 0.27271 0.70219 0.0
S1323 S 0.38808 0.32176 0.7562 0.0
N1324 N 0.43043 0.34775 0.75828 0.0
N1325 N 0.3814 0.28805 0.7382 0.0
C1326 C 0.41432 0.29688 0.73306 0.0
C1327 C 0.44102 0.32936 0.74398 0.0
C1328 C 0.66869 0.06805 0.71265 0.0
C1329 C 0.66286 0.09537 0.71606 0.0
C1330 C 0.70188 0.07357 0.70845 0.0
C1331 C 0.7303 0.1065 0.7067 0.0
H1332 H 0.6476 0.04219 0.71374 0.0
H1333 H 0.70528 0.05184 0.70633 0.0
S1334 S 0.7291 0.1868 0.71441 0.0
N1335 N 0.68854 0.15671 0.71752 0.0
N1336 N 0.75067 0.16691 0.70954 0.0
C1337 C 0.72488 0.13404 0.71005 0.0
C1338 C 0.6912 0.1285 0.71465 0.0
C1339 C 0.86949 0.54382 0.70473 0.0
C1340 C 0.86261 0.53582 0.72959 0.0
C1341 C 0.86453 0.56871 0.69531 0.0
C1342 C 0.85302 0.5868 0.71052 0.0
H1343 H 0.87861 0.53063 0.69237 0.0
H1344 H 0.87048 0.57434 0.67621 0.0
S1345 S 0.83123 0.57594 0.77671 0.0
N1346 N 0.84343 0.54824 0.76913 0.0
N1347 N 0.83446 0.59509 0.75133 0.0
C1348 C 0.84611 0.57924 0.73532 0.0
C1349 C 0.85074 0.55368 0.74487 0.0
C1350 C 0.53494 0.97677 0.22256 0.0
C1351 C 0.49997 0.961 0.22877 0.0
C1352 C 0.54656 -0.00467 0.20164 0.0
C1353 C 0.52365 -0.00141 0.18593 0.0
H1354 H 0.55364 0.97494 0.23399 0.0
H1355 H 0.57363 0.00686 0.19754 0.0
S1356 S 0.42984 0.96311 0.19386 0.0
N1357 N 0.44263 0.95048 0.21735 0.0
N1358 N 0.46471 0.98539 0.17817 0.0
C1359 C 0.48873 0.98314 0.19186 0.0
C1360 C 0.47686 0.96439 0.21323 0.0
C1361 C 0.02086 0.49404 0.23097 0.0
C1362 C 0.05564 0.51971 0.23643 0.0
C1363 C 1.00304 0.493 0.2092 0.0
C1364 C 0.0193 0.51773 0.19221 0.0
H1365 H 0.00724 0.47468 0.24365 0.0
H1366 H 0.97638 0.47266 0.20559 0.0
S1367 S 0.10911 0.59178 0.19868 0.0
N1368 N 0.10522 0.57121 0.22336 0.0
N1369 N 0.07145 0.56958 0.18292 0.0
C1370 C 0.05391 0.54368 0.19755 0.0
C1371 C 0.07215 0.54458 0.21952 0.0
C1372 C 0.42492 0.4971 0.21808 0.0
C1373 C 0.4523 0.50699 0.23566 0.0
C1374 C 0.42803 0.48991 0.19282 0.0
C1375 C 0.45861 0.4923 0.18428 0.0
H1376 H 0.4006 0.49409 0.224 0.0
H1377 H 0.40592 0.48121 0.17999 0.0
S1378 S 0.53736 0.51599 0.22279 0.0
N1379 N 0.51069 0.51808 0.24284 0.0
N1380 N 0.5167 0.50516 0.19518 0.0
C1381 C 0.48654 0.50313 0.20149 0.0
C1382 C 0.48333 0.51029 0.22727 0.0
C1383 C 0.97286 0.50776 0.83068 0.0
C1384 C 0.97365 0.48663 0.81063 0.0
C1385 C 0.99513 0.51763 0.85191 0.0
C1386 C 0.0192 0.50696 0.85386 0.0
H1387 H 0.95422 0.51596 0.83038 0.0
H1388 H 0.99316 0.53337 0.86709 0.0
S1389 S 0.03308 0.45285 0.8063 0.0
N1390 N 1.00193 0.45669 0.79376 0.0
N1391 N 0.04321 0.47491 0.83382 0.0
C1392 C 0.02113 0.48682 0.83369 0.0
C1393 C 0.99851 0.47675 0.81205 0.0
C1394 C 0.54828 0.48407 0.84506 0.0
C1395 C 0.55574 0.50144 0.82336 0.0
C1396 C 0.53287 0.49169 0.86513 0.0
C1397 C 0.52414 0.5169 0.8643 0.0
H1398 H 0.55329 0.46355 0.84631 0.0
H1399 H 0.52642 0.47673 0.88097 0.0
S1400 S 0.54178 0.57275 0.81345 0.0
N1401 N 0.55577 0.54724 0.80342 0.0
N1402 N 0.52692 0.56145 0.84121 0.0
C1403 C 0.53299 0.53567 0.84338 0.0
C1404 C 0.54881 0.52804 0.82294 0.0
C1405 C 0.4901 0.03529 0.82635 0.0
C1406 C 0.50851 0.02871 0.80782 0.0
C1407 C 0.47834 0.01608 0.84695 0.0
C1408 C 0.48408 0.98919 0.84974 0.0
H1409 H 0.4845 0.05539 0.82493 0.0
H1410 H 0.46398 0.02187 0.86054 0.0
S1411 S 0.53206 0.96214 0.80742 0.0
N1412 N 0.53287 0.99381 0.79431 0.0
N1413 N 0.5105 0.9577 0.83296 0.0
C1414 C 0.50285 0.98257 0.83167 0.0
C1415 C 0.51517 0.00234 0.81078 0.0
C1416 C 0.1844 0.29699 0.5621 0.0
C1417 C 0.14955 0.28284 0.56827 0.0
C1418 C 0.19645 0.31358 0.54036 0.0
C1419 C 0.1741 0.31643 0.52376 0.0
H1420 H 0.20279 0.29581 0.57435 0.0
H1421 H 0.22352 0.32431 0.53652 0.0
S1422 S 0.08054 0.28353 0.53071 0.0
N1423 N 0.09271 0.27247 0.55546 0.0
N1424 N 0.1156 0.30379 0.51477 0.0
C1425 C 0.13916 0.30201 0.52939 0.0
C1426 C 0.12685 0.28524 0.55159 0.0
C1427 C 0.77974 0.86005 0.51302 0.0
C1428 C 0.76529 0.8434 0.53455 0.0
C1429 C 0.76331 0.84607 0.4894 0.0
C1430 C 0.7319 0.81481 0.4863 0.0
H1431 H 0.80373 0.88439 0.51437 0.0
H1432 H 0.77523 0.85994 0.47341 0.0
S1433 S 0.68313 0.76061 0.53626 0.0
N1434 N 0.71767 0.79343 0.55097 0.0
N1435 N 0.6868 0.76746 0.5065 0.0
C1436 C 0.71737 0.79753 0.50748 0.0
C1437 C 0.73404 0.81176 0.5316 0.0
C1438 C 0.12747 0.82592 0.54522 0.0
C1439 C 0.14929 0.84473 0.5664 0.0
C1440 C 0.14081 0.81945 0.52332 0.0
C1441 C 0.17633 0.83115 0.52196 0.0
H1442 H 0.10003 0.81684 0.5453 0.0
H1443 H 0.12322 0.80522 0.50734 0.0
S1444 S 0.24442 0.88086 0.57216 0.0
N1445 N 0.20829 0.8743 0.5846 0.0
N1446 N 0.23305 0.86224 0.54348 0.0
C1447 C 0.1983 0.84943 0.54306 0.0
C1448 C 0.18487 0.85618 0.56526 0.0
C1449 C 0.66529 0.85983 0.14265 0.0
C1450 C 0.67066 0.84197 0.12243 0.0
C1451 C 0.68644 0.87109 0.16459 0.0
C1452 C 0.71396 0.86518 0.16715 0.0
H1453 H 0.64403 0.86444 0.14185 0.0
H1454 H 0.68095 0.8842 0.17982 0.0
S1455 S 0.74011 0.82086 0.11966 0.0
N1456 N 0.70668 0.82008 0.10624 0.0
N1457 N 0.74599 0.841 0.14761 0.0
C1458 C 0.72033 0.84829 0.14692 0.0
C1459 C 0.6988 0.83675 0.12456 0.0
C1460 C 0.23324 0.84499 0.17842 0.0
C1461 C 0.21539 0.83421 0.15496 0.0
C1462 C 0.22065 0.85584 0.19872 0.0
C1463 C 0.18934 0.85563 0.19646 0.0
H1464 H 0.25736 0.84548 0.18101 0.0
H1465 H 0.23585 0.8649 0.21621 0.0
S1466 S 0.13062 0.82535 0.13968 0.0
N1467 N 0.16385 0.82186 0.13096 0.0
N1468 N 0.13933 0.8406 0.16926 0.0
C1469 C 0.17072 0.84377 0.17323 0.0
C1470 C 0.18394 0.83347 0.15247 0.0
C1471 C 0.19986 0.3569 0.16043 0.0
C1472 C 0.17776 0.35839 0.14264 0.0
C1473 C 0.18666 0.33821 0.18128 0.0
C1474 C 0.15085 0.3198 0.18484 0.0
H1475 H 0.22759 0.37064 0.15844 0.0
H1476 H 0.20453 0.33775 0.19452 0.0
S1477 S 0.08185 0.31497 0.14393 0.0
N1478 N 0.11804 0.33951 0.13026 0.0
N1479 N 0.09363 0.30444 0.16914 0.0
C1480 C 0.12853 0.32094 0.16722 0.0
C1481 C 0.14187 0.34019 0.14623 0.0
C1482 C 0.81454 0.63537 0.8831 0.0
C1483 C 0.83763 0.63367 0.89984 0.0
C1484 C 0.8261 0.65295 0.86173 0.0
C1485 C 0.86128 0.66989 0.85633 0.0
H1486 H 0.7872 0.62307 0.88649 0.0
H1487 H 0.80743 0.65384 0.84957 0.0
S1488 S 0.93235 0.67236 0.89316 0.0
N1489 N 0.89751 0.64988 0.90884 0.0
N1490 N 0.919 0.6829 0.86871 0.0
C1491 C 0.88464 0.66814 0.8726 0.0
C1492 C 0.87289 0.65002 0.8943 0.0
C1493 C 0.34385 0.15351 0.89297 0.0
C1494 C 0.37805 0.18031 0.89889 0.0
C1495 C 0.32621 0.15138 0.87078 0.0
C1496 C 0.34203 0.17603 0.85369 0.0
H1497 H 0.33038 0.1342 0.90572 0.0
H1498 H 0.29991 0.13033 0.86701 0.0
S1499 S 0.43068 0.25196 0.86057 0.0
N1500 N 0.42696 0.23224 0.88571 0.0
N1501 N 0.39349 0.22851 0.84441 0.0
C1502 C 0.37626 0.20281 0.85925 0.0
C1503 C 0.39434 0.20487 0.88172 0.0
C1504 C 0.7849 0.14836 0.88576 0.0
C1505 C 0.80987 0.17229 0.90386 0.0
C1506 C 0.79472 0.13883 0.8633 0.0
C1507 C 0.82983 0.15247 0.85834 0.0
H1508 H 0.75755 0.13738 0.88873 0.0
H1509 H 0.77474 0.12058 0.84975 0.0
S1510 S 0.90539 0.2155 0.89946 0.0
N1511 N 0.87145 0.20903 0.9152 0.0
N1512 N 0.88958 0.19094 0.87307 0.0
C1513 C 0.85503 0.17601 0.87631 0.0
C1514 C 0.84513 0.18597 0.89903 0.0
C1515 C 0.30216 0.17258 0.49031 0.0
C1516 C 0.30732 0.15464 0.47004 0.0
C1517 C 0.32252 0.18255 0.5126 0.0
C1518 C 0.34884 0.17499 0.51552 0.0
H1519 H 0.28204 0.17877 0.48908 0.0
H1520 H 0.31761 0.19631 0.52769 0.0
S1521 S 0.37234 0.1276 0.46867 0.0
N1522 N 0.34078 0.12943 0.45465 0.0
N1523 N 0.37843 0.14777 0.49662 0.0
C1524 C 0.35442 0.15723 0.49545 0.0
C1525 C 0.33384 0.14717 0.47272 0.0
C1526 C 0.85858 0.16558 0.48027 0.0
C1527 C 0.86915 0.1416 0.47737 0.0
C1528 C 0.84067 0.1672 0.50112 0.0
C1529 C 0.83222 0.14456 0.51965 0.0
H1530 H 0.86399 0.1831 0.46626 0.0
H1531 H 0.83327 0.18625 0.50267 0.0
S1532 S 0.85173 0.07527 0.5198 0.0
N1533 N 0.86902 0.09408 0.49443 0.0
N1534 N 0.83433 0.09627 0.53298 0.0
C1535 C 0.84249 0.12032 0.51685 0.0
C1536 C 0.8612 0.11905 0.49588 0.0
C1537 C 0.81999 0.67889 0.47778 0.0
C1538 C 0.85538 0.69754 0.47269 0.0
C1539 C 0.80873 0.6611 0.49905 0.0
C1540 C 0.83232 0.66146 0.51639 0.0
H1541 H 0.80059 0.6776 0.46507 0.0
H1542 H 0.78123 0.64702 0.50202 0.0
S1543 S 0.92772 0.70647 0.51235 0.0
N1544 N 0.91404 0.71533 0.48714 0.0
N1545 N 0.89268 0.68201 0.52724 0.0
C1546 C 0.86777 0.68023 0.51182 0.0
C1547 C 0.87932 0.69814 0.48995 0.0
loop_
_geom_bond_atom_site_label_1
_geom_bond_atom_site_label_2
_geom_bond_distance
_geom_bond_site_symmetry_2
_ccdc_geom_bond_type
O0 Cd1 2.300 . S
O0 C7 1.275 . S
Cd1 O0 2.300 . S
Cd1 O9 2.381 . S
Cd1 O10 2.378 . S
O2 Cd3 2.385 . S
O2 C7 1.255 . S
Cd3 O2 2.385 . S
Cd3 O4 2.317 . S
O4 Cd3 2.317 . S
O4 C5 1.232 . S
C5 O4 1.232 . S
C5 O6 1.218 . S
O6 C5 1.218 . S
C7 O0 1.275 . S
C7 O2 1.255 . S
C8 O9 1.258 . S
C8 O10 1.256 . S
O9 Cd1 2.381 . S
O9 C8 1.258 . S
O10 Cd1 2.378 . S
O10 C8 1.256 . S
O11 Cd12 2.300 . S
O11 C18 1.275 . S
Cd12 O11 2.300 . S
Cd12 O20 2.381 . S
Cd12 O21 2.378 . S
O13 Cd14 2.385 . S
O13 C18 1.255 . S
Cd14 O13 2.385 . S
Cd14 O15 2.317 . S
O15 Cd14 2.317 . S
O15 C16 1.232 . S
C16 O15 1.232 . S
C16 O17 1.219 . S
O17 C16 1.219 . S
C18 O11 1.275 . S
C18 O13 1.255 . S
C19 O20 1.258 . S
C19 O21 1.256 . S
O20 Cd12 2.381 . S
O20 C19 1.258 . S
O21 Cd12 2.378 . S
O21 C19 1.256 . S
O22 Cd23 2.300 . S
O22 C29 1.275 . S
Cd23 O22 2.300 . S
Cd23 O31 2.381 . S
Cd23 O32 2.378 . S
O24 Cd25 2.385 . S
O24 C29 1.255 . S
Cd25 O24 2.385 . S
Cd25 O26 2.317 . S
O26 Cd25 2.317 . S
O26 C27 1.232 . S
C27 O26 1.232 . S
C27 O28 1.218 . S
O28 C27 1.218 . S
C29 O22 1.275 . S
C29 O24 1.255 . S
C30 O31 1.258 . S
C30 O32 1.256 . S
O31 Cd23 2.381 . S
O31 C30 1.258 . S
O32 Cd23 2.378 . S
O32 C30 1.256 . S
O33 Cd34 2.300 . S
O33 C40 1.275 . S
Cd34 O33 2.300 . S
Cd34 O42 2.381 . S
Cd34 O43 2.378 . S
O35 Cd36 2.385 . S
O35 C40 1.255 . S
Cd36 O35 2.385 . S
Cd36 O37 2.317 . S
O37 Cd36 2.317 . S
O37 C38 1.232 . S
C38 O37 1.232 . S
C38 O39 1.218 . S
O39 C38 1.218 . S
C40 O33 1.275 . S
C40 O35 1.255 . S
C41 O42 1.258 . S
C41 O43 1.256 . S
O42 Cd34 2.381 . S
O42 C41 1.258 . S
O43 Cd34 2.378 . S
O43 C41 1.256 . S
O44 Cd45 2.300 . S
O44 C51 1.275 . S
Cd45 O44 2.300 . S
Cd45 O53 2.381 . S
Cd45 O54 2.378 . S
O46 Cd47 2.385 . S
O46 C51 1.255 . S
Cd47 O46 2.385 . S
Cd47 O48 2.317 . S
O48 Cd47 2.317 . S
O48 C49 1.232 . S
C49 O48 1.232 . S
C49 O50 1.218 1_565 S
O50 C49 1.218 1_545 S
C51 O44 1.275 . S
C51 O46 1.255 . S
C52 O53 1.258 . S
C52 O54 1.256 . S
O53 Cd45 2.381 . S
O53 C52 1.258 . S
O54 Cd45 2.378 . S
O54 C52 1.256 . S
O55 Cd56 2.300 . S
O55 C62 1.275 . S
Cd56 O55 2.300 . S
Cd56 O64 2.381 . S
Cd56 O65 2.378 . S
O57 Cd58 2.385 . S
O57 C62 1.255 . S
Cd58 O57 2.385 . S
Cd58 O59 2.317 . S
O59 Cd58 2.317 . S
O59 C60 1.232 . S
C60 O59 1.232 . S
C60 O61 1.218 . S
O61 C60 1.218 . S
C62 O55 1.275 . S
C62 O57 1.255 . S
C63 O64 1.258 . S
C63 O65 1.256 . S
O64 Cd56 2.381 . S
O64 C63 1.258 . S
O65 Cd56 2.378 . S
O65 C63 1.256 . S
O66 Cd67 2.300 . S
O66 C73 1.275 . S
Cd67 O66 2.300 . S
Cd67 O75 2.381 . S
Cd67 O76 2.378 . S
O68 Cd69 2.385 . S
O68 C73 1.255 . S
Cd69 O68 2.385 . S
Cd69 O70 2.317 . S
O70 Cd69 2.317 . S
O70 C71 1.232 . S
C71 O70 1.232 . S
C71 O72 1.218 . S
O72 C71 1.218 . S
C73 O66 1.275 . S
C73 O68 1.255 . S
C74 O75 1.258 . S
C74 O76 1.256 . S
O75 Cd67 2.381 . S
O75 C74 1.258 . S
O76 Cd67 2.378 . S
O76 C74 1.256 . S
O77 Cd78 2.300 . S
O77 C84 1.275 . S
Cd78 O77 2.300 . S
Cd78 O86 2.381 . S
Cd78 O87 2.378 . S
O79 Cd80 2.385 . S
O79 C84 1.255 . S
Cd80 O79 2.385 . S
Cd80 O81 2.317 . S
O81 Cd80 2.317 . S
O81 C82 1.232 . S
C82 O81 1.232 . S
C82 O83 1.218 . S
O83 C82 1.218 . S
C84 O77 1.275 . S
C84 O79 1.255 . S
C85 O86 1.258 . S
C85 O87 1.256 . S
O86 Cd78 2.381 . S
O86 C85 1.258 . S
O87 Cd78 2.378 . S
O87 C85 1.256 . S
O88 Cd89 2.300 . S
O88 C95 1.275 . S
Cd89 O88 2.300 . S
Cd89 O97 2.381 . S
Cd89 O98 2.378 . S
O90 Cd91 2.385 . S
O90 C95 1.255 . S
Cd91 O90 2.385 . S
Cd91 O92 2.317 . S
O92 Cd91 2.317 . S
O92 C93 1.232 . S
C93 O92 1.232 . S
C93 O94 1.218 . S
O94 C93 1.218 . S
C95 O88 1.275 . S
C95 O90 1.255 . S
C96 O97 1.258 . S
C96 O98 1.256 . S
O97 Cd89 2.381 . S
O97 C96 1.258 . S
O98 Cd89 2.378 . S
O98 C96 1.256 . S
O99 Cd100 2.300 . S
O99 C106 1.275 . S
Cd100 O99 2.300 . S
Cd100 O108 2.381 . S
Cd100 O109 2.378 . S
O101 Cd102 2.385 . S
O101 C106 1.255 . S
Cd102 O101 2.385 . S
Cd102 O103 2.317 . S
O103 Cd102 2.317 . S
O103 C104 1.232 . S
C104 O103 1.232 . S
C104 O105 1.218 . S
O105 C104 1.218 . S
C106 O99 1.275 . S
C106 O101 1.255 . S
C107 O108 1.258 . S
C107 O109 1.256 . S
O108 Cd100 2.381 . S
O108 C107 1.258 . S
O109 Cd100 2.378 . S
O109 C107 1.256 . S
O110 Cd111 2.300 . S
O110 C117 1.275 . S
Cd111 O110 2.300 . S
Cd111 O119 2.381 . S
Cd111 O120 2.378 . S
O112 Cd113 2.385 . S
O112 C117 1.255 . S
Cd113 O112 2.385 . S
Cd113 O114 2.317 . S
O114 Cd113 2.317 . S
O114 C115 1.232 . S
C115 O114 1.232 . S
C115 O116 1.218 . S
O116 C115 1.218 . S
C117 O110 1.275 . S
C117 O112 1.255 . S
C118 O119 1.258 . S
C118 O120 1.256 . S
O119 Cd111 2.381 . S
O119 C118 1.258 . S
O120 Cd111 2.378 . S
O120 C118 1.256 . S
O121 Cd122 2.300 . S
O121 C128 1.275 . S
Cd122 O121 2.300 . S
Cd122 O130 2.381 . S
Cd122 O131 2.378 . S
O123 Cd124 2.385 . S
O123 C128 1.255 . S
Cd124 O123 2.385 . S
Cd124 O125 2.317 . S
O125 Cd124 2.317 . S
O125 C126 1.232 . S
C126 O125 1.232 . S
C126 O127 1.218 . S
O127 C126 1.218 . S
C128 O121 1.275 . S
C128 O123 1.255 . S
C129 O130 1.258 . S
C129 O131 1.256 . S
O130 Cd122 2.381 . S
O130 C129 1.258 . S
O131 Cd122 2.378 . S
O131 C129 1.256 . S
O132 Cd133 2.300 . S
O132 C139 1.275 . S
Cd133 O132 2.300 . S
Cd133 O141 2.381 . S
Cd133 O142 2.378 . S
O134 Cd135 2.385 . S
O134 C139 1.255 . S
Cd135 O134 2.385 . S
Cd135 O136 2.317 . S
O136 Cd135 2.317 . S
O136 C137 1.232 . S
C137 O136 1.232 . S
C137 O138 1.218 . S
O138 C137 1.218 . S
C139 O132 1.275 . S
C139 O134 1.255 . S
C140 O141 1.258 . S
C140 O142 1.256 . S
O141 Cd133 2.381 . S
O141 C140 1.258 . S
O142 Cd133 2.378 . S
O142 C140 1.256 . S
O143 Cd144 2.300 . S
O143 C150 1.275 . S
Cd144 O143 2.300 . S
Cd144 O152 2.381 . S
Cd144 O153 2.378 . S
O145 Cd146 2.385 . S
O145 C150 1.255 . S
Cd146 O145 2.385 . S
Cd146 O147 2.317 . S
O147 Cd146 2.317 . S
O147 C148 1.232 . S
C148 O147 1.232 . S
C148 O149 1.218 . S
O149 C148 1.218 . S
C150 O143 1.275 . S
C150 O145 1.255 . S
C151 O152 1.258 . S
C151 O153 1.256 . S
O152 Cd144 2.381 . S
O152 C151 1.258 . S
O153 Cd144 2.378 . S
O153 C151 1.256 . S
O154 Cd155 2.300 . S
O154 C161 1.275 . S
Cd155 O154 2.300 . S
Cd155 O163 2.381 . S
Cd155 O164 2.378 . S
O156 Cd157 2.385 . S
O156 C161 1.255 . S
Cd157 O156 2.385 . S
Cd157 O158 2.317 . S
O158 Cd157 2.317 . S
O158 C159 1.232 . S
C159 O158 1.232 . S
C159 O160 1.218 . S
O160 C159 1.218 . S
C161 O154 1.275 . S
C161 O156 1.255 . S
C162 O163 1.258 . S
C162 O164 1.256 . S
O163 Cd155 2.381 . S
O163 C162 1.258 . S
O164 Cd155 2.378 . S
O164 C162 1.256 . S
O165 Cd166 2.300 . S
O165 C172 1.275 . S
Cd166 O165 2.300 . S
Cd166 O174 2.381 . S
Cd166 O175 2.378 . S
O167 Cd168 2.385 . S
O167 C172 1.255 . S
Cd168 O167 2.385 . S
Cd168 O169 2.317 . S
O169 Cd168 2.317 . S
O169 C170 1.232 . S
C170 O169 1.232 . S
C170 O171 1.218 . S
O171 C170 1.218 . S
C172 O165 1.275 . S
C172 O167 1.255 . S
C173 O174 1.258 . S
C173 O175 1.256 . S
O174 Cd166 2.381 . S
O174 C173 1.258 . S
O175 Cd166 2.378 . S
O175 C173 1.256 . S
O176 Cd177 2.300 . S
O176 C183 1.275 . S
Cd177 O176 2.300 . S
Cd177 O185 2.381 . S
Cd177 O186 2.378 . S
O178 Cd179 2.385 . S
O178 C183 1.255 . S
Cd179 O178 2.385 . S
Cd179 O180 2.317 . S
O180 Cd179 2.317 . S
O180 C181 1.232 . S
C181 O180 1.232 . S
C181 O182 1.218 . S
O182 C181 1.218 . S
C183 O176 1.275 . S
C183 O178 1.255 . S
C184 O185 1.258 . S
C184 O186 1.256 . S
O185 Cd177 2.381 . S
O185 C184 1.258 . S
O186 Cd177 2.378 . S
O186 C184 1.256 . S
O187 Cd188 2.300 . S
O187 C194 1.275 . S
Cd188 O187 2.300 . S
Cd188 O196 2.381 . S
Cd188 O197 2.378 . S
O189 Cd190 2.385 . S
O189 C194 1.255 . S
Cd190 O189 2.385 . S
Cd190 O191 2.317 . S
O191 Cd190 2.317 . S
O191 C192 1.232 . S
C192 O191 1.232 . S
C192 O193 1.218 . S
O193 C192 1.218 . S
C194 O187 1.275 . S
C194 O189 1.255 . S
C195 O196 1.258 . S
C195 O197 1.256 . S
O196 Cd188 2.381 . S
O196 C195 1.258 . S
O197 Cd188 2.378 . S
O197 C195 1.256 . S
Eu198 N229 2.657 . S
Eu198 N236 2.609 . S
Eu198 O242 2.558 . S
Eu198 O243 2.612 1_566 S
Eu198 O245 2.339 1_565 S
Eu198 O246 2.563 1_565 S
Eu198 O247 2.419 1_565 S
Eu198 O249 2.380 1_556 S
Eu198 O250 2.432 . S
Eu198 C262 2.848 . S
C199 C202 1.429 . S
C199 C203 1.411 . S
C199 N206 1.377 . S
C200 C202 1.420 . S
C200 C204 1.423 . S
C200 C212 1.392 . S
C201 C203 1.420 . S
C201 C204 1.351 . S
C201 H224 0.931 . S
C202 C199 1.429 . S
C202 C200 1.420 . S
C202 N210 1.362 . S
C203 C199 1.411 . S
C203 C201 1.420 . S
C203 C208 1.395 . S
C204 C200 1.423 . S
C204 C201 1.351 . S
C204 H216 0.930 . S
C205 C207 1.400 . S
C205 C208 1.386 . S
C205 H217 0.930 . S
N206 C199 1.377 . S
N206 C207 1.321 . S
N206 Eu209 2.609 . S
C207 C205 1.400 . S
C207 N206 1.321 . S
C207 H214 0.930 . S
C208 C203 1.395 . S
C208 C205 1.386 . S
C208 H227 0.930 . S
Eu209 N206 2.609 . S
Eu209 N210 2.657 . S
Eu209 O243 2.380 . S
Eu209 O244 2.432 . S
Eu209 O248 2.558 . S
Eu209 O249 2.612 1_545 S
Eu209 O251 2.339 1_545 S
Eu209 O252 2.563 1_545 S
Eu209 O253 2.419 . S
Eu209 C273 2.848 . S
N210 C202 1.362 . S
N210 Eu209 2.657 . S
N210 C211 1.334 . S
C211 N210 1.334 . S
C211 C213 1.413 . S
C211 H218 0.929 . S
C212 C200 1.392 . S
C212 C213 1.367 . S
C212 H220 0.930 . S
C213 C211 1.413 . S
C213 C212 1.367 . S
C213 H215 0.930 . S
H214 C207 0.930 . S
H215 C213 0.930 . S
H216 C204 0.930 . S
H217 C205 0.930 . S
H218 C211 0.929 . S
H219 C233 0.930 . S
H220 C212 0.930 . S
H221 C239 0.930 . S
H222 C230 0.929 . S
H223 C237 0.930 . S
H224 C201 0.931 . S
H225 C231 0.930 . S
H226 C264 0.930 . S
H227 C208 0.930 . S
H228 C263 0.931 . S
N229 Eu198 2.657 . S
N229 C230 1.334 . S
N229 C234 1.362 . S
C230 H222 0.929 . S
C230 N229 1.334 . S
C230 C233 1.413 . S
C231 H225 0.930 . S
C231 C232 1.392 . S
C231 C233 1.367 . S
C232 C231 1.392 . S
C232 C234 1.420 . S
C232 C264 1.423 . S
C233 H219 0.930 . S
C233 C230 1.413 . S
C233 C231 1.367 . S
C234 N229 1.362 . S
C234 C232 1.420 . S
C234 C238 1.429 . S
H235 C240 0.930 . S
N236 Eu198 2.609 . S
N236 C238 1.377 . S
N236 C239 1.321 . S
C237 H223 0.930 . S
C237 C239 1.400 . S
C237 C240 1.386 . S
C238 C234 1.429 . S
C238 N236 1.377 . S
C238 C241 1.411 . S
C239 H221 0.930 . S
C239 N236 1.321 . S
C239 C237 1.400 . S
C240 H235 0.930 . S
C240 C237 1.386 . S
C240 C241 1.395 . S
C241 C238 1.411 . S
C241 C240 1.395 . S
C241 C263 1.420 . S
O242 Eu198 2.558 . S
O242 C262 1.257 . S
O243 Eu198 2.612 1_544 S
O243 Eu209 2.380 . S
O243 C254 1.276 1_554 S
O244 Eu209 2.432 . S
O244 C261 1.264 1_554 S
O245 Eu198 2.339 1_545 S
O245 C261 1.254 . S
O246 Eu198 2.563 1_545 S
O246 C254 1.235 . S
O247 Eu198 2.419 1_545 S
O247 C262 1.249 1_545 S
O248 Eu209 2.558 . S
O248 C273 1.257 . S
O249 Eu198 2.380 1_554 S
O249 Eu209 2.612 1_565 S
O249 C265 1.276 . S
O250 Eu198 2.432 . S
O250 C272 1.264 1_556 S
O251 Eu209 2.339 1_565 S
O251 C272 1.254 . S
O252 Eu209 2.563 1_565 S
O252 C265 1.235 . S
O253 Eu209 2.419 . S
O253 C273 1.249 . S
C254 O243 1.276 1_556 S
C254 O246 1.235 . S
C255 C257 1.393 1_565 S
C255 C259 1.395 . S
C255 C262 1.492 . S
C256 C257 1.392 . S
C256 C258 1.386 . S
C257 C255 1.393 1_545 S
C257 C256 1.392 . S
C257 H274 0.930 . S
C258 C256 1.386 . S
C258 C260 1.395 1_545 S
C258 H275 0.930 . S
C259 C255 1.395 . S
C259 C260 1.379 . S
C259 H276 0.930 . S
C260 C258 1.395 1_565 S
C260 C259 1.379 . S
C260 H277 0.930 . S
C261 O244 1.264 1_556 S
C261 O245 1.254 . S
C262 Eu198 2.848 . S
C262 O242 1.257 . S
C262 O247 1.249 1_565 S
C262 C255 1.492 . S
C263 H228 0.931 . S
C263 C241 1.420 . S
C263 C264 1.351 . S
C264 H226 0.930 . S
C264 C232 1.423 . S
C264 C263 1.351 . S
C265 O249 1.276 . S
C265 O252 1.235 . S
C266 C267 1.393 1_545 S
C266 C270 1.395 . S
C266 C273 1.492 . S
C267 C266 1.393 1_565 S
C267 C268 1.392 . S
C267 H278 0.930 . S
C268 C267 1.392 . S
C268 C269 1.386 . S
C269 C268 1.386 . S
C269 C271 1.395 1_565 S
C269 H279 0.930 . S
C270 C266 1.395 . S
C270 C271 1.379 . S
C270 H280 0.930 . S
C271 C269 1.395 1_545 S
C271 C270 1.379 . S
C271 H281 0.930 . S
C272 O250 1.264 1_554 S
C272 O251 1.254 . S
C273 Eu209 2.848 . S
C273 O248 1.257 . S
C273 O253 1.249 . S
C273 C266 1.492 . S
H274 C257 0.930 . S
H275 C258 0.930 . S
H276 C259 0.930 . S
H277 C260 0.930 . S
H278 C267 0.930 . S
H279 C269 0.930 . S
H280 C270 0.930 . S
H281 C271 0.930 . S
Eu282 N313 2.657 . S
Eu282 N320 2.609 . S
Eu282 O326 2.558 . S
Eu282 O327 2.612 1_456 S
Eu282 O329 2.339 1_455 S
Eu282 O330 2.563 1_455 S
Eu282 O331 2.419 1_455 S
Eu282 O333 2.380 1_556 S
Eu282 O334 2.416 1_556 S
Eu282 C346 2.848 . S
C283 C286 1.429 . S
C283 C287 1.411 . S
C283 N290 1.377 . S
C284 C286 1.420 . S
C284 C288 1.423 . S
C284 C296 1.392 . S
C285 C287 1.420 . S
C285 C288 1.351 . S
C285 H308 0.931 . S
C286 C283 1.429 . S
C286 C284 1.420 . S
C286 N294 1.362 . S
C287 C283 1.411 . S
C287 C285 1.420 . S
C287 C292 1.395 . S
C288 C284 1.423 . S
C288 C285 1.351 . S
C288 H300 0.930 . S
C289 C291 1.400 . S
C289 C292 1.386 . S
C289 H301 0.930 . S
N290 C283 1.377 . S
N290 C291 1.321 . S
N290 Eu293 2.609 . S
C291 C289 1.400 . S
C291 N290 1.321 . S
C291 H298 0.930 . S
C292 C287 1.395 . S
C292 C289 1.386 . S
C292 H311 0.930 . S
Eu293 N290 2.609 . S
Eu293 N294 2.657 . S
Eu293 O327 2.380 . S
Eu293 O328 2.432 . S
Eu293 O332 2.558 . S
Eu293 O333 2.612 1_655 S
Eu293 O335 2.339 1_655 S
Eu293 O336 2.563 1_655 S
Eu293 O337 2.419 1_655 S
Eu293 C357 2.848 . S
N294 C286 1.362 . S
N294 Eu293 2.657 . S
N294 C295 1.334 . S
C295 N294 1.334 . S
C295 C297 1.413 . S
C295 H302 0.929 1_655 S
C296 C284 1.392 . S
C296 C297 1.367 . S
C296 H304 0.930 . S
C297 C295 1.413 . S
C297 C296 1.367 . S
C297 H299 0.930 . S
H298 C291 0.930 . S
H299 C297 0.930 . S
H300 C288 0.930 . S
H301 C289 0.930 . S
H302 C295 0.929 1_455 S
H303 C317 0.930 . S
H304 C296 0.930 . S
H305 C323 0.930 . S
H306 C314 0.929 1_655 S
H307 C321 0.930 . S
H308 C285 0.931 . S
H309 C315 0.930 . S
H310 C348 0.930 . S
H311 C292 0.930 . S
H312 C347 0.931 . S
N313 Eu282 2.657 . S
N313 C314 1.334 . S
N313 C318 1.362 . S
C314 H306 0.929 1_455 S
C314 N313 1.334 . S
C314 C317 1.413 . S
C315 H309 0.930 . S
C315 C316 1.392 . S
C315 C317 1.367 . S
C316 C315 1.392 . S
C316 C318 1.420 . S
C316 C348 1.423 . S
C317 H303 0.930 . S
C317 C314 1.413 . S
C317 C315 1.367 . S
C318 N313 1.362 . S
C318 C316 1.420 . S
C318 C322 1.429 . S
H319 C324 0.930 . S
N320 Eu282 2.609 . S
N320 C322 1.377 . S
N320 C323 1.321 . S
C321 H307 0.930 . S
C321 C323 1.400 . S
C321 C324 1.386 . S
C322 C318 1.429 . S
C322 N320 1.377 . S
C322 C325 1.411 . S
C323 H305 0.930 . S
C323 N320 1.321 . S
C323 C321 1.400 . S
C324 H319 0.930 . S
C324 C321 1.386 . S
C324 C325 1.395 . S
C325 C322 1.411 . S
C325 C324 1.395 . S
C325 C347 1.420 . S
O326 Eu282 2.558 . S
O326 C346 1.257 . S
O327 Eu282 2.612 1_654 S
O327 Eu293 2.380 . S
O327 C338 1.276 1_554 S
O328 Eu293 2.432 . S
O328 C345 1.264 1_554 S
O329 Eu282 2.339 1_655 S
O329 C345 1.254 . S
O330 Eu282 2.563 1_655 S
O330 C338 1.235 . S
O331 Eu282 2.419 1_655 S
O331 C346 1.249 1_655 S
O332 Eu293 2.558 . S
O332 C357 1.257 . S
O333 Eu282 2.380 1_554 S
O333 Eu293 2.612 1_455 S
O333 C349 1.276 . S
O334 Eu282 2.416 1_554 S
O334 C356 1.298 . S
O335 Eu293 2.339 1_455 S
O335 C356 1.254 . S
O336 Eu293 2.563 1_455 S
O336 C349 1.235 . S
O337 Eu293 2.419 1_455 S
O337 C357 1.249 1_455 S
C338 O327 1.276 1_556 S
C338 O330 1.235 . S
C339 C341 1.393 . S
C339 C343 1.395 1_655 S
C339 C346 1.492 1_655 S
C340 C341 1.392 . S
C340 C342 1.386 . S
C341 C339 1.393 . S
C341 C340 1.392 . S
C341 H358 0.930 . S
C342 C340 1.386 . S
C342 C344 1.395 1_655 S
C342 H359 0.930 . S
C343 C339 1.395 1_455 S
C343 C344 1.379 . S
C343 H360 0.930 . S
C344 C342 1.395 1_455 S
C344 C343 1.379 . S
C344 H361 0.930 . S
C345 O328 1.264 1_556 S
C345 O329 1.254 . S
C346 Eu282 2.848 . S
C346 O326 1.257 . S
C346 O331 1.249 1_455 S
C346 C339 1.492 1_455 S
C347 H312 0.931 . S
C347 C325 1.420 . S
C347 C348 1.351 . S
C348 H310 0.930 . S
C348 C316 1.423 . S
C348 C347 1.351 . S
C349 O333 1.276 . S
C349 O336 1.235 . S
C350 C351 1.393 . S
C350 C354 1.395 1_455 S
C350 C357 1.492 1_455 S
C351 C350 1.393 . S
C351 C352 1.392 . S
C351 H362 0.930 . S
C352 C351 1.392 . S
C352 C353 1.386 . S
C353 C352 1.386 . S
C353 C355 1.395 1_455 S
C353 H363 0.930 . S
C354 C350 1.395 1_655 S
C354 C355 1.379 . S
C354 H364 0.930 . S
C355 C353 1.395 1_655 S
C355 C354 1.379 . S
C355 H365 0.930 . S
C356 O334 1.298 . S
C356 O335 1.254 . S
C357 Eu293 2.848 . S
C357 O332 1.257 . S
C357 O337 1.249 1_655 S
C357 C350 1.492 1_655 S
H358 C341 0.930 . S
H359 C342 0.930 . S
H360 C343 0.930 . S
H361 C344 0.930 . S
H362 C351 0.930 . S
H363 C353 0.930 . S
H364 C354 0.930 . S
H365 C355 0.930 . S
Eu366 N397 2.657 . S
Eu366 N404 2.609 . S
Eu366 O410 2.558 . S
Eu366 O411 2.612 . S
Eu366 O413 2.339 . S
Eu366 O414 2.563 . S
Eu366 O415 2.419 . S
Eu366 O417 2.378 . S
Eu366 O418 2.432 . S
Eu366 C430 2.848 . S
C367 C370 1.429 . S
C367 C371 1.411 . S
C367 N374 1.377 . S
C368 C370 1.420 . S
C368 C372 1.423 . S
C368 C380 1.392 . S
C369 C371 1.420 . S
C369 C372 1.351 . S
C369 H392 0.931 . S
C370 C367 1.429 . S
C370 C368 1.420 . S
C370 N378 1.362 . S
C371 C367 1.411 . S
C371 C369 1.420 . S
C371 C376 1.395 . S
C372 C368 1.423 . S
C372 C369 1.351 . S
C372 H384 0.930 . S
C373 C375 1.400 . S
C373 C376 1.386 . S
C373 H385 0.930 . S
N374 C367 1.377 . S
N374 C375 1.321 . S
N374 Eu377 2.609 . S
C375 C373 1.400 . S
C375 N374 1.321 . S
C375 H382 0.930 . S
C376 C371 1.395 . S
C376 C373 1.386 . S
C376 H395 0.930 . S
Eu377 N374 2.609 . S
Eu377 N378 2.657 . S
Eu377 O411 2.380 1_556 S
Eu377 O412 2.432 . S
Eu377 O416 2.558 . S
Eu377 O417 2.614 1_556 S
Eu377 O419 2.339 . S
Eu377 O420 2.563 . S
Eu377 O421 2.419 . S
Eu377 C441 2.848 . S
N378 C370 1.362 . S
N378 Eu377 2.657 . S
N378 C379 1.334 . S
C379 N378 1.334 . S
C379 C381 1.413 . S
C379 H386 0.929 . S
C380 C368 1.392 . S
C380 C381 1.367 . S
C380 H388 0.930 . S
C381 C379 1.413 . S
C381 C380 1.367 . S
C381 H383 0.930 . S
H382 C375 0.930 . S
H383 C381 0.930 . S
H384 C372 0.930 . S
H385 C373 0.930 . S
H386 C379 0.929 . S
H387 C401 0.930 . S
H388 C380 0.930 . S
H389 C407 0.930 . S
H390 C398 0.929 . S
H391 C405 0.930 . S
H392 C369 0.931 . S
H393 C399 0.930 . S
H394 C432 0.930 . S
H395 C376 0.930 . S
H396 C431 0.931 . S
N397 Eu366 2.657 . S
N397 C398 1.334 . S
N397 C402 1.362 . S
C398 H390 0.929 . S
C398 N397 1.334 . S
C398 C401 1.413 . S
C399 H393 0.930 . S
C399 C400 1.392 . S
C399 C401 1.367 . S
C400 C399 1.392 . S
C400 C402 1.420 . S
C400 C432 1.423 . S
C401 H387 0.930 . S
C401 C398 1.413 . S
C401 C399 1.367 . S
C402 N397 1.362 . S
C402 C400 1.420 . S
C402 C406 1.429 . S
H403 C408 0.930 . S
N404 Eu366 2.609 . S
N404 C406 1.377 . S
N404 C407 1.321 . S
C405 H391 0.930 . S
C405 C407 1.400 . S
C405 C408 1.386 . S
C406 C402 1.429 . S
C406 N404 1.377 . S
C406 C409 1.411 . S
C407 H389 0.930 . S
C407 N404 1.321 . S
C407 C405 1.400 . S
C408 H403 0.930 . S
C408 C405 1.386 . S
C408 C409 1.395 . S
C409 C406 1.411 . S
C409 C408 1.395 . S
C409 C431 1.420 . S
O410 Eu366 2.558 . S
O410 C430 1.257 . S
O411 Eu366 2.612 . S
O411 Eu377 2.380 1_554 S
O411 C422 1.276 . S
O412 Eu377 2.432 . S
O412 C429 1.264 1_556 S
O413 Eu366 2.339 . S
O413 C429 1.254 . S
O414 Eu366 2.563 . S
O414 C422 1.235 . S
O415 Eu366 2.419 . S
O415 C430 1.249 . S
O416 Eu377 2.558 . S
O416 C441 1.257 . S
O417 Eu366 2.378 . S
O417 Eu377 2.614 1_554 S
O417 C433 1.278 1_554 S
O418 Eu366 2.432 . S
O418 C440 1.264 1_554 S
O419 Eu377 2.339 . S
O419 C440 1.254 . S
O420 Eu377 2.563 . S
O420 C433 1.235 . S
O421 Eu377 2.419 . S
O421 C441 1.249 . S
C422 O411 1.276 . S
C422 O414 1.235 . S
C423 C425 1.393 . S
C423 C427 1.395 . S
C423 C430 1.492 . S
C424 C425 1.392 . S
C424 C426 1.386 . S
C425 C423 1.393 . S
C425 C424 1.392 . S
C425 H442 0.930 . S
C426 C424 1.386 . S
C426 C428 1.395 . S
C426 H443 0.930 . S
C427 C423 1.395 . S
C427 C428 1.379 . S
C427 H444 0.930 . S
C428 C426 1.395 . S
C428 C427 1.379 . S
C428 H445 0.930 . S
C429 O412 1.264 1_554 S
C429 O413 1.254 . S
C430 Eu366 2.848 . S
C430 O410 1.257 . S
C430 O415 1.249 . S
C430 C423 1.492 . S
C431 H396 0.931 . S
C431 C409 1.420 . S
C431 C432 1.351 . S
C432 H394 0.930 . S
C432 C400 1.423 . S
C432 C431 1.351 . S
C433 O417 1.278 1_556 S
C433 O420 1.235 . S
C434 C435 1.393 . S
C434 C438 1.395 . S
C434 C441 1.492 . S
C435 C434 1.393 . S
C435 C436 1.392 . S
C435 H446 0.930 . S
C436 C435 1.392 . S
C436 C437 1.386 . S
C437 C436 1.386 . S
C437 C439 1.395 . S
C437 H447 0.930 . S
C438 C434 1.395 . S
C438 C439 1.379 . S
C438 H448 0.930 . S
C439 C437 1.395 . S
C439 C438 1.379 . S
C439 H449 0.930 . S
C440 O418 1.264 1_556 S
C440 O419 1.254 . S
C441 Eu377 2.848 . S
C441 O416 1.257 . S
C441 O421 1.249 . S
C441 C434 1.492 . S
H442 C425 0.930 . S
H443 C426 0.930 . S
H444 C427 0.930 . S
H445 C428 0.930 . S
H446 C435 0.930 . S
H447 C437 0.930 . S
H448 C438 0.930 . S
H449 C439 0.930 . S
Eu450 N481 2.657 . S
Eu450 N488 2.609 . S
Eu450 O494 2.558 . S
Eu450 O495 2.612 . S
Eu450 O497 2.339 . S
Eu450 O498 2.563 . S
Eu450 O499 2.419 . S
Eu450 O501 2.380 . S
Eu450 O502 2.432 . S
Eu450 C514 2.848 . S
C451 C454 1.429 . S
C451 C455 1.411 . S
C451 N458 1.377 . S
C452 C454 1.420 . S
C452 C456 1.423 . S
C452 C464 1.392 . S
C453 C455 1.420 . S
C453 C456 1.351 . S
C453 H476 0.931 . S
C454 C451 1.429 . S
C454 C452 1.420 . S
C454 N462 1.362 . S
C455 C451 1.411 . S
C455 C453 1.420 . S
C455 C460 1.395 . S
C456 C452 1.423 . S
C456 C453 1.351 . S
C456 H468 0.930 . S
C457 C459 1.400 . S
C457 C460 1.386 . S
C457 H469 0.930 . S
N458 C451 1.377 . S
N458 C459 1.321 . S
N458 Eu461 2.609 . S
C459 C457 1.400 . S
C459 N458 1.321 . S
C459 H466 0.930 . S
C460 C455 1.395 . S
C460 C457 1.386 . S
C460 H479 0.930 . S
Eu461 N458 2.609 . S
Eu461 N462 2.657 . S
Eu461 O495 2.380 . S
Eu461 O496 2.432 . S
Eu461 O500 2.558 . S
Eu461 O501 2.612 . S
Eu461 O503 2.339 . S
Eu461 O504 2.563 . S
Eu461 O505 2.419 . S
Eu461 C525 2.848 . S
N462 C454 1.362 . S
N462 Eu461 2.657 . S
N462 C463 1.334 . S
C463 N462 1.334 . S
C463 C465 1.413 . S
C463 H470 0.929 . S
C464 C452 1.392 . S
C464 C465 1.367 . S
C464 H472 0.930 . S
C465 C463 1.413 . S
C465 C464 1.367 . S
C465 H467 0.930 . S
H466 C459 0.930 . S
H467 C465 0.930 . S
H468 C456 0.930 . S
H469 C457 0.930 . S
H470 C463 0.929 . S
H471 C485 0.930 . S
H472 C464 0.930 . S
H473 C491 0.930 . S
H474 C482 0.929 . S
H475 C489 0.930 . S
H476 C453 0.931 . S
H477 C483 0.930 1_655 S
H478 C516 0.930 1_655 S
H479 C460 0.930 . S
H480 C515 0.931 . S
N481 Eu450 2.657 . S
N481 C482 1.334 . S
N481 C486 1.362 . S
C482 H474 0.929 . S
C482 N481 1.334 . S
C482 C485 1.413 . S
C483 H477 0.930 1_455 S
C483 C484 1.392 . S
C483 C485 1.367 . S
C484 C483 1.392 . S
C484 C486 1.420 . S
C484 C516 1.423 . S
C485 H471 0.930 . S
C485 C482 1.413 . S
C485 C483 1.367 . S
C486 N481 1.362 . S
C486 C484 1.420 . S
C486 C490 1.429 . S
H487 C492 0.930 . S
N488 Eu450 2.609 . S
N488 C490 1.377 . S
N488 C491 1.321 . S
C489 H475 0.930 . S
C489 C491 1.400 . S
C489 C492 1.386 . S
C490 C486 1.429 . S
C490 N488 1.377 . S
C490 C493 1.411 . S
C491 H473 0.930 . S
C491 N488 1.321 . S
C491 C489 1.400 . S
C492 H487 0.930 . S
C492 C489 1.386 . S
C492 C493 1.395 . S
C493 C490 1.411 . S
C493 C492 1.395 . S
C493 C515 1.420 . S
O494 Eu450 2.558 . S
O494 C514 1.257 . S
O495 Eu450 2.612 . S
O495 Eu461 2.380 . S
O495 C506 1.276 . S
O496 Eu461 2.432 . S
O496 C513 1.264 . S
O497 Eu450 2.339 . S
O497 C513 1.254 . S
O498 Eu450 2.563 . S
O498 C506 1.235 . S
O499 Eu450 2.419 . S
O499 C514 1.249 . S
O500 Eu461 2.558 . S
O500 C525 1.257 . S
O501 Eu450 2.380 . S
O501 Eu461 2.612 . S
O501 C517 1.276 . S
O502 Eu450 2.432 . S
O502 C524 1.264 . S
O503 Eu461 2.339 . S
O503 C524 1.254 . S
O504 Eu461 2.563 . S
O504 C517 1.235 . S
O505 Eu461 2.419 . S
O505 C525 1.249 . S
C506 O495 1.276 . S
C506 O498 1.235 . S
C507 C509 1.393 . S
C507 C511 1.395 . S
C507 C514 1.492 . S
C508 C509 1.392 . S
C508 C510 1.386 . S
C509 C507 1.393 . S
C509 C508 1.392 . S
C509 H526 0.930 . S
C510 C508 1.386 . S
C510 C512 1.395 . S
C510 H527 0.930 . S
C511 C507 1.395 . S
C511 C512 1.379 . S
C511 H528 0.930 . S
C512 C510 1.395 . S
C512 C511 1.379 . S
C512 H529 0.930 . S
C513 O496 1.264 . S
C513 O497 1.254 . S
C514 Eu450 2.848 . S
C514 O494 1.257 . S
C514 O499 1.249 . S
C514 C507 1.492 . S
C515 H480 0.931 . S
C515 C493 1.420 . S
C515 C516 1.351 . S
C516 H478 0.930 1_455 S
C516 C484 1.423 . S
C516 C515 1.351 . S
C517 O501 1.276 . S
C517 O504 1.235 . S
C518 C519 1.393 . S
C518 C522 1.395 . S
C518 C525 1.492 . S
C519 C518 1.393 . S
C519 C520 1.392 . S
C519 H530 0.930 . S
C520 C519 1.392 . S
C520 C521 1.386 . S
C521 C520 1.386 . S
C521 C523 1.395 . S
C521 H531 0.930 . S
C522 C518 1.395 . S
C522 C523 1.379 . S
C522 H532 0.930 . S
C523 C521 1.395 . S
C523 C522 1.379 . S
C523 H533 0.930 . S
C524 O502 1.264 . S
C524 O503 1.254 . S
C525 Eu461 2.848 . S
C525 O500 1.257 . S
C525 O505 1.249 . S
C525 C518 1.492 . S
H526 C509 0.930 . S
H527 C510 0.930 . S
H528 C511 0.930 . S
H529 C512 0.930 . S
H530 C519 0.930 . S
H531 C521 0.930 . S
H532 C522 0.930 . S
H533 C523 0.930 . S
Eu534 N565 2.657 . S
Eu534 N572 2.609 . S
Eu534 O578 2.558 . S
Eu534 O579 2.612 . S
Eu534 O581 2.339 . S
Eu534 O582 2.563 . S
Eu534 O583 2.419 . S
Eu534 O585 2.380 . S
Eu534 O586 2.432 . S
Eu534 C598 2.848 . S
C535 C538 1.429 . S
C535 C539 1.411 . S
C535 N542 1.377 . S
C536 C538 1.420 . S
C536 C540 1.423 . S
C536 C548 1.392 . S
C537 C539 1.420 . S
C537 C540 1.351 . S
C537 H560 0.931 . S
C538 C535 1.429 . S
C538 C536 1.420 . S
C538 N546 1.362 . S
C539 C535 1.411 . S
C539 C537 1.420 . S
C539 C544 1.395 . S
C540 C536 1.423 . S
C540 C537 1.351 . S
C540 H552 0.930 . S
C541 C543 1.400 . S
C541 C544 1.386 . S
C541 H553 0.930 . S
N542 C535 1.377 . S
N542 C543 1.321 . S
N542 Eu545 2.609 . S
C543 C541 1.400 . S
C543 N542 1.321 . S
C543 H550 0.930 . S
C544 C539 1.395 . S
C544 C541 1.386 . S
C544 H563 0.930 . S
Eu545 N542 2.609 . S
Eu545 N546 2.657 . S
Eu545 O579 2.380 . S
Eu545 O580 2.432 . S
Eu545 O584 2.558 . S
Eu545 O585 2.612 . S
Eu545 O587 2.339 . S
Eu545 O588 2.563 . S
Eu545 O589 2.419 . S
Eu545 C609 2.848 . S
N546 C538 1.362 . S
N546 Eu545 2.657 . S
N546 C547 1.334 . S
C547 N546 1.334 . S
C547 C549 1.413 . S
C547 H554 0.929 . S
C548 C536 1.392 . S
C548 C549 1.367 . S
C548 H556 0.930 . S
C549 C547 1.413 . S
C549 C548 1.367 . S
C549 H551 0.930 . S
H550 C543 0.930 . S
H551 C549 0.930 . S
H552 C540 0.930 . S
H553 C541 0.930 . S
H554 C547 0.929 . S
H555 C569 0.930 . S
H556 C548 0.930 . S
H557 C575 0.930 . S
H558 C566 0.929 . S
H559 C573 0.930 . S
H560 C537 0.931 . S
H561 C567 0.930 . S
H562 C600 0.930 . S
H563 C544 0.930 . S
H564 C599 0.931 . S
N565 Eu534 2.657 . S
N565 C566 1.334 . S
N565 C570 1.362 . S
C566 H558 0.929 . S
C566 N565 1.334 . S
C566 C569 1.413 . S
C567 H561 0.930 . S
C567 C568 1.392 . S
C567 C569 1.367 . S
C568 C567 1.392 . S
C568 C570 1.420 . S
C568 C600 1.423 . S
C569 H555 0.930 . S
C569 C566 1.413 . S
C569 C567 1.367 . S
C570 N565 1.362 . S
C570 C568 1.420 . S
C570 C574 1.429 . S
H571 C576 0.930 . S
N572 Eu534 2.609 . S
N572 C574 1.377 . S
N572 C575 1.321 . S
C573 H559 0.930 . S
C573 C575 1.400 . S
C573 C576 1.386 . S
C574 C570 1.429 . S
C574 N572 1.377 . S
C574 C577 1.411 . S
C575 H557 0.930 . S
C575 N572 1.321 . S
C575 C573 1.400 . S
C576 H571 0.930 . S
C576 C573 1.386 . S
C576 C577 1.395 . S
C577 C574 1.411 . S
C577 C576 1.395 . S
C577 C599 1.420 . S
O578 Eu534 2.558 . S
O578 C598 1.257 . S
O579 Eu534 2.612 . S
O579 Eu545 2.380 . S
O579 C590 1.276 . S
O580 Eu545 2.432 . S
O580 C597 1.264 . S
O581 Eu534 2.339 . S
O581 C597 1.254 . S
O582 Eu534 2.563 . S
O582 C590 1.235 . S
O583 Eu534 2.419 . S
O583 C598 1.249 . S
O584 Eu545 2.558 . S
O584 C609 1.257 . S
O585 Eu534 2.380 . S
O585 Eu545 2.612 . S
O585 C601 1.276 . S
O586 Eu534 2.432 . S
O586 C608 1.264 . S
O587 Eu545 2.339 . S
O587 C608 1.254 . S
O588 Eu545 2.563 . S
O588 C601 1.235 . S
O589 Eu545 2.419 . S
O589 C609 1.249 . S
C590 O579 1.276 . S
C590 O582 1.235 . S
C591 C593 1.393 . S
C591 C595 1.395 . S
C591 C598 1.492 . S
C592 C593 1.392 . S
C592 C594 1.386 . S
C593 C591 1.393 . S
C593 C592 1.392 . S
C593 H610 0.930 . S
C594 C592 1.386 . S
C594 C596 1.395 . S
C594 H611 0.930 . S
C595 C591 1.395 . S
C595 C596 1.379 . S
C595 H612 0.930 . S
C596 C594 1.395 . S
C596 C595 1.379 . S
C596 H613 0.930 . S
C597 O580 1.264 . S
C597 O581 1.254 . S
C598 Eu534 2.848 . S
C598 O578 1.257 . S
C598 O583 1.249 . S
C598 C591 1.492 . S
C599 H564 0.931 . S
C599 C577 1.420 . S
C599 C600 1.351 . S
C600 H562 0.930 . S
C600 C568 1.423 . S
C600 C599 1.351 . S
C601 O585 1.276 . S
C601 O588 1.235 . S
C602 C603 1.393 . S
C602 C606 1.395 . S
C602 C609 1.492 . S
C603 C602 1.393 . S
C603 C604 1.392 . S
C603 H614 0.930 . S
C604 C603 1.392 . S
C604 C605 1.386 . S
C605 C604 1.386 . S
C605 C607 1.395 . S
C605 H615 0.930 . S
C606 C602 1.395 . S
C606 C607 1.379 . S
C606 H616 0.930 . S
C607 C605 1.395 . S
C607 C606 1.379 . S
C607 H617 0.930 . S
C608 O586 1.264 . S
C608 O587 1.254 . S
C609 Eu545 2.848 . S
C609 O584 1.257 . S
C609 O589 1.249 . S
C609 C602 1.492 . S
H610 C593 0.930 . S
H611 C594 0.930 . S
H612 C595 0.930 . S
H613 C596 0.930 . S
H614 C603 0.930 . S
H615 C605 0.930 . S
H616 C606 0.930 . S
H617 C607 0.930 . S
Eu618 N649 2.657 . S
Eu618 N656 2.609 . S
Eu618 O662 2.558 . S
Eu618 O663 2.612 . S
Eu618 O665 2.339 . S
Eu618 O666 2.563 . S
Eu618 O667 2.419 . S
Eu618 O669 2.380 . S
Eu618 O670 2.432 . S
Eu618 C682 2.848 . S
C619 C622 1.429 . S
C619 C623 1.411 . S
C619 N626 1.377 . S
C620 C622 1.420 . S
C620 C624 1.423 . S
C620 C632 1.392 . S
C621 C623 1.420 . S
C621 C624 1.351 . S
C621 H644 0.931 . S
C622 C619 1.429 . S
C622 C620 1.420 . S
C622 N630 1.362 . S
C623 C619 1.411 . S
C623 C621 1.420 . S
C623 C628 1.395 . S
C624 C620 1.423 . S
C624 C621 1.351 . S
C624 H636 0.930 . S
C625 C627 1.400 . S
C625 C628 1.386 . S
C625 H637 0.930 . S
N626 C619 1.377 . S
N626 C627 1.321 . S
N626 Eu629 2.609 . S
C627 C625 1.400 . S
C627 N626 1.321 . S
C627 H634 0.930 . S
C628 C623 1.395 . S
C628 C625 1.386 . S
C628 H647 0.930 . S
Eu629 N626 2.609 . S
Eu629 N630 2.657 . S
Eu629 O663 2.380 . S
Eu629 O664 2.432 . S
Eu629 O668 2.558 . S
Eu629 O669 2.612 . S
Eu629 O671 2.339 . S
Eu629 O672 2.563 . S
Eu629 O673 2.419 . S
Eu629 C693 2.848 . S
N630 C622 1.362 . S
N630 Eu629 2.657 . S
N630 C631 1.334 . S
C631 N630 1.334 . S
C631 C633 1.413 . S
C631 H638 0.929 . S
C632 C620 1.392 . S
C632 C633 1.367 . S
C632 H640 0.930 . S
C633 C631 1.413 . S
C633 C632 1.367 . S
C633 H635 0.930 . S
H634 C627 0.930 . S
H635 C633 0.930 . S
H636 C624 0.930 . S
H637 C625 0.930 . S
H638 C631 0.929 . S
H639 C653 0.930 . S
H640 C632 0.930 . S
H641 C659 0.930 . S
H642 C650 0.929 . S
H643 C657 0.930 . S
H644 C621 0.931 . S
H645 C651 0.930 . S
H646 C684 0.930 . S
H647 C628 0.930 . S
H648 C683 0.931 . S
N649 Eu618 2.657 . S
N649 C650 1.334 . S
N649 C654 1.362 . S
C650 H642 0.929 . S
C650 N649 1.334 . S
C650 C653 1.413 . S
C651 H645 0.930 . S
C651 C652 1.392 . S
C651 C653 1.367 . S
C652 C651 1.392 . S
C652 C654 1.420 . S
C652 C684 1.423 . S
C653 H639 0.930 . S
C653 C650 1.413 . S
C653 C651 1.367 . S
C654 N649 1.362 . S
C654 C652 1.420 . S
C654 C658 1.429 . S
H655 C660 0.930 . S
N656 Eu618 2.609 . S
N656 C658 1.377 . S
N656 C659 1.321 . S
C657 H643 0.930 . S
C657 C659 1.400 . S
C657 C660 1.386 . S
C658 C654 1.429 . S
C658 N656 1.377 . S
C658 C661 1.411 . S
C659 H641 0.930 . S
C659 N656 1.321 . S
C659 C657 1.400 . S
C660 H655 0.930 . S
C660 C657 1.386 . S
C660 C661 1.395 . S
C661 C658 1.411 . S
C661 C660 1.395 . S
C661 C683 1.420 . S
O662 Eu618 2.558 . S
O662 C682 1.257 . S
O663 Eu618 2.612 . S
O663 Eu629 2.380 . S
O663 C674 1.276 . S
O664 Eu629 2.432 . S
O664 C681 1.264 . S
O665 Eu618 2.339 . S
O665 C681 1.254 . S
O666 Eu618 2.563 . S
O666 C674 1.235 . S
O667 Eu618 2.419 . S
O667 C682 1.249 . S
O668 Eu629 2.558 . S
O668 C693 1.257 . S
O669 Eu618 2.380 . S
O669 Eu629 2.612 . S
O669 C685 1.276 . S
O670 Eu618 2.432 . S
O670 C692 1.264 . S
O671 Eu629 2.339 . S
O671 C692 1.254 . S
O672 Eu629 2.563 . S
O672 C685 1.235 . S
O673 Eu629 2.419 . S
O673 C693 1.249 . S
C674 O663 1.276 . S
C674 O666 1.235 . S
C675 C677 1.393 . S
C675 C679 1.395 . S
C675 C682 1.492 . S
C676 C677 1.392 . S
C676 C678 1.386 . S
C677 C675 1.393 . S
C677 C676 1.392 . S
C677 H694 0.930 . S
C678 C676 1.386 . S
C678 C680 1.395 . S
C678 H695 0.930 . S
C679 C675 1.395 . S
C679 C680 1.379 . S
C679 H696 0.930 . S
C680 C678 1.395 . S
C680 C679 1.379 . S
C680 H697 0.930 . S
C681 O664 1.264 . S
C681 O665 1.254 . S
C682 Eu618 2.848 . S
C682 O662 1.257 . S
C682 O667 1.249 . S
C682 C675 1.492 . S
C683 H648 0.931 . S
C683 C661 1.420 . S
C683 C684 1.351 . S
C684 H646 0.930 . S
C684 C652 1.423 . S
C684 C683 1.351 . S
C685 O669 1.276 . S
C685 O672 1.235 . S
C686 C687 1.393 . S
C686 C690 1.395 . S
C686 C693 1.492 . S
C687 C686 1.393 . S
C687 C688 1.392 . S
C687 H698 0.930 . S
C688 C687 1.392 . S
C688 C689 1.386 . S
C689 C688 1.386 . S
C689 C691 1.395 . S
C689 H699 0.930 . S
C690 C686 1.395 . S
C690 C691 1.379 . S
C690 H700 0.930 . S
C691 C689 1.395 . S
C691 C690 1.379 . S
C691 H701 0.930 . S
C692 O670 1.264 . S
C692 O671 1.254 . S
C693 Eu629 2.848 . S
C693 O668 1.257 . S
C693 O673 1.249 . S
C693 C686 1.492 . S
H694 C677 0.930 . S
H695 C678 0.930 . S
H696 C679 0.930 . S
H697 C680 0.930 . S
H698 C687 0.930 . S
H699 C689 0.930 . S
H700 C690 0.930 . S
H701 C691 0.930 . S
Eu702 N733 2.657 . S
Eu702 N740 2.609 . S
Eu702 O746 2.558 . S
Eu702 O747 2.612 . S
Eu702 O749 2.339 . S
Eu702 O750 2.563 . S
Eu702 O751 2.419 . S
Eu702 O753 2.380 . S
Eu702 O754 2.432 . S
Eu702 C766 2.848 . S
C703 C706 1.429 . S
C703 C707 1.411 . S
C703 N710 1.377 . S
C704 C706 1.420 . S
C704 C708 1.423 . S
C704 C716 1.392 . S
C705 C707 1.420 . S
C705 C708 1.351 . S
C705 H728 0.931 . S
C706 C703 1.429 . S
C706 C704 1.420 . S
C706 N714 1.362 . S
C707 C703 1.411 . S
C707 C705 1.420 . S
C707 C712 1.395 . S
C708 C704 1.423 . S
C708 C705 1.351 . S
C708 H720 0.930 . S
C709 C711 1.400 . S
C709 C712 1.386 . S
C709 H721 0.930 . S
N710 C703 1.377 . S
N710 C711 1.321 . S
N710 Eu713 2.609 . S
C711 C709 1.400 . S
C711 N710 1.321 . S
C711 H718 0.930 . S
C712 C707 1.395 . S
C712 C709 1.386 . S
C712 H731 0.930 . S
Eu713 N710 2.609 . S
Eu713 N714 2.657 . S
Eu713 O747 2.380 . S
Eu713 O748 2.432 . S
Eu713 O752 2.558 . S
Eu713 O753 2.612 . S
Eu713 O755 2.339 . S
Eu713 O756 2.563 . S
Eu713 O757 2.419 . S
Eu713 C777 2.848 . S
N714 C706 1.362 . S
N714 Eu713 2.657 . S
N714 C715 1.334 . S
C715 N714 1.334 . S
C715 C717 1.413 . S
C715 H722 0.929 . S
C716 C704 1.392 . S
C716 C717 1.367 . S
C716 H724 0.930 . S
C717 C715 1.413 . S
C717 C716 1.367 . S
C717 H719 0.930 . S
H718 C711 0.930 . S
H719 C717 0.930 . S
H720 C708 0.930 . S
H721 C709 0.930 . S
H722 C715 0.929 . S
H723 C737 0.930 . S
H724 C716 0.930 . S
H725 C743 0.930 . S
H726 C734 0.929 . S
H727 C741 0.930 . S
H728 C705 0.931 . S
H729 C735 0.930 . S
H730 C768 0.930 . S
H731 C712 0.930 . S
H732 C767 0.931 . S
N733 Eu702 2.657 . S
N733 C734 1.334 . S
N733 C738 1.362 . S
C734 H726 0.929 . S
C734 N733 1.334 . S
C734 C737 1.413 . S
C735 H729 0.930 . S
C735 C736 1.392 . S
C735 C737 1.367 . S
C736 C735 1.392 . S
C736 C738 1.420 . S
C736 C768 1.423 . S
C737 H723 0.930 . S
C737 C734 1.413 . S
C737 C735 1.367 . S
C738 N733 1.362 . S
C738 C736 1.420 . S
C738 C742 1.429 . S
H739 C744 0.930 . S
N740 Eu702 2.609 . S
N740 C742 1.377 . S
N740 C743 1.321 . S
C741 H727 0.930 . S
C741 C743 1.400 . S
C741 C744 1.386 . S
C742 C738 1.429 . S
C742 N740 1.377 . S
C742 C745 1.411 . S
C743 H725 0.930 . S
C743 N740 1.321 . S
C743 C741 1.400 . S
C744 H739 0.930 . S
C744 C741 1.386 . S
C744 C745 1.395 . S
C745 C742 1.411 . S
C745 C744 1.395 . S
C745 C767 1.420 . S
O746 Eu702 2.558 . S
O746 C766 1.257 . S
O747 Eu702 2.612 . S
O747 Eu713 2.380 . S
O747 C758 1.276 . S
O748 Eu713 2.432 . S
O748 C765 1.264 . S
O749 Eu702 2.339 . S
O749 C765 1.254 . S
O750 Eu702 2.563 . S
O750 C758 1.235 . S
O751 Eu702 2.419 . S
O751 C766 1.249 . S
O752 Eu713 2.558 . S
O752 C777 1.257 . S
O753 Eu702 2.380 . S
O753 Eu713 2.612 . S
O753 C769 1.276 . S
O754 Eu702 2.432 . S
O754 C776 1.264 . S
O755 Eu713 2.339 . S
O755 C776 1.254 . S
O756 Eu713 2.563 . S
O756 C769 1.235 . S
O757 Eu713 2.419 . S
O757 C777 1.249 . S
C758 O747 1.276 . S
C758 O750 1.235 . S
C759 C761 1.393 . S
C759 C763 1.395 . S
C759 C766 1.492 . S
C760 C761 1.392 . S
C760 C762 1.386 . S
C761 C759 1.393 . S
C761 C760 1.392 . S
C761 H778 0.930 . S
C762 C760 1.386 . S
C762 C764 1.395 . S
C762 H779 0.930 . S
C763 C759 1.395 . S
C763 C764 1.379 . S
C763 H780 0.930 . S
C764 C762 1.395 . S
C764 C763 1.379 . S
C764 H781 0.930 . S
C765 O748 1.264 . S
C765 O749 1.254 . S
C766 Eu702 2.848 . S
C766 O746 1.257 . S
C766 O751 1.249 . S
C766 C759 1.492 . S
C767 H732 0.931 . S
C767 C745 1.420 . S
C767 C768 1.351 . S
C768 H730 0.930 . S
C768 C736 1.423 . S
C768 C767 1.351 . S
C769 O753 1.276 . S
C769 O756 1.235 . S
C770 C771 1.393 . S
C770 C774 1.395 . S
C770 C777 1.492 . S
C771 C770 1.393 . S
C771 C772 1.392 . S
C771 H782 0.930 . S
C772 C771 1.392 . S
C772 C773 1.386 . S
C773 C772 1.386 . S
C773 C775 1.395 . S
C773 H783 0.930 . S
C774 C770 1.395 . S
C774 C775 1.379 . S
C774 H784 0.930 . S
C775 C773 1.395 . S
C775 C774 1.379 . S
C775 H785 0.930 . S
C776 O754 1.264 . S
C776 O755 1.254 . S
C777 Eu713 2.848 . S
C777 O752 1.257 . S
C777 O757 1.249 . S
C777 C770 1.492 . S
H778 C761 0.930 . S
H779 C762 0.930 . S
H780 C763 0.930 . S
H781 C764 0.930 . S
H782 C771 0.930 . S
H783 C773 0.930 . S
H784 C774 0.930 . S
H785 C775 0.930 . S
Eu786 N817 2.657 . S
Eu786 N824 2.609 . S
Eu786 O830 2.558 . S
Eu786 O831 2.612 . S
Eu786 O833 2.339 . S
Eu786 O834 2.563 . S
Eu786 O835 2.419 . S
Eu786 O837 2.380 . S
Eu786 O838 2.432 . S
Eu786 C850 2.848 . S
C787 C790 1.429 . S
C787 C791 1.411 . S
C787 N794 1.377 . S
C788 C790 1.420 . S
C788 C792 1.423 . S
C788 C800 1.392 . S
C789 C791 1.420 . S
C789 C792 1.351 . S
C789 H812 0.931 . S
C790 C787 1.429 . S
C790 C788 1.420 . S
C790 N798 1.362 . S
C791 C787 1.411 . S
C791 C789 1.420 . S
C791 C796 1.395 . S
C792 C788 1.423 . S
C792 C789 1.351 . S
C792 H804 0.930 . S
C793 C795 1.400 . S
C793 C796 1.386 . S
C793 H805 0.930 . S
N794 C787 1.377 . S
N794 C795 1.321 . S
N794 Eu797 2.609 . S
C795 C793 1.400 . S
C795 N794 1.321 . S
C795 H802 0.930 . S
C796 C791 1.395 . S
C796 C793 1.386 . S
C796 H815 0.930 . S
Eu797 N794 2.609 . S
Eu797 N798 2.657 . S
Eu797 O831 2.380 . S
Eu797 O832 2.432 . S
Eu797 O836 2.558 . S
Eu797 O837 2.612 . S
Eu797 O839 2.339 . S
Eu797 O840 2.563 . S
Eu797 O841 2.419 . S
Eu797 C861 2.848 . S
N798 C790 1.362 . S
N798 Eu797 2.657 . S
N798 C799 1.334 . S
C799 N798 1.334 . S
C799 C801 1.413 . S
C799 H806 0.929 . S
C800 C788 1.392 . S
C800 C801 1.367 . S
C800 H808 0.930 . S
C801 C799 1.413 . S
C801 C800 1.367 . S
C801 H803 0.930 . S
H802 C795 0.930 . S
H803 C801 0.930 . S
H804 C792 0.930 . S
H805 C793 0.930 . S
H806 C799 0.929 . S
H807 C821 0.930 . S
H808 C800 0.930 . S
H809 C827 0.930 . S
H810 C818 0.929 . S
H811 C825 0.930 . S
H812 C789 0.931 . S
H813 C819 0.930 . S
H814 C852 0.930 . S
H815 C796 0.930 . S
H816 C851 0.931 . S
N817 Eu786 2.657 . S
N817 C818 1.334 . S
N817 C822 1.362 . S
C818 H810 0.929 . S
C818 N817 1.334 . S
C818 C821 1.413 . S
C819 H813 0.930 . S
C819 C820 1.392 . S
C819 C821 1.367 . S
C820 C819 1.392 . S
C820 C822 1.420 . S
C820 C852 1.423 . S
C821 H807 0.930 . S
C821 C818 1.413 . S
C821 C819 1.367 . S
C822 N817 1.362 . S
C822 C820 1.420 . S
C822 C826 1.429 . S
H823 C828 0.930 . S
N824 Eu786 2.609 . S
N824 C826 1.377 . S
N824 C827 1.321 . S
C825 H811 0.930 . S
C825 C827 1.400 . S
C825 C828 1.386 . S
C826 C822 1.429 . S
C826 N824 1.377 . S
C826 C829 1.411 . S
C827 H809 0.930 . S
C827 N824 1.321 . S
C827 C825 1.400 . S
C828 H823 0.930 . S
C828 C825 1.386 . S
C828 C829 1.395 . S
C829 C826 1.411 . S
C829 C828 1.395 . S
C829 C851 1.420 . S
O830 Eu786 2.558 . S
O830 C850 1.257 . S
O831 Eu786 2.612 . S
O831 Eu797 2.380 . S
O831 C842 1.276 . S
O832 Eu797 2.432 . S
O832 C849 1.264 . S
O833 Eu786 2.339 . S
O833 C849 1.254 . S
O834 Eu786 2.563 . S
O834 C842 1.235 . S
O835 Eu786 2.419 . S
O835 C850 1.249 . S
O836 Eu797 2.558 . S
O836 C861 1.257 . S
O837 Eu786 2.380 . S
O837 Eu797 2.612 . S
O837 C853 1.276 . S
O838 Eu786 2.432 . S
O838 C860 1.264 . S
O839 Eu797 2.339 . S
O839 C860 1.254 . S
O840 Eu797 2.563 . S
O840 C853 1.235 . S
O841 Eu797 2.419 . S
O841 C861 1.249 . S
C842 O831 1.276 . S
C842 O834 1.235 . S
C843 C845 1.393 . S
C843 C847 1.395 . S
C843 C850 1.492 . S
C844 C845 1.392 . S
C844 C846 1.386 . S
C845 C843 1.393 . S
C845 C844 1.392 . S
C845 H862 0.930 . S
C846 C844 1.386 . S
C846 C848 1.395 . S
C846 H863 0.930 . S
C847 C843 1.395 . S
C847 C848 1.379 . S
C847 H864 0.930 . S
C848 C846 1.395 . S
C848 C847 1.379 . S
C848 H865 0.930 . S
C849 O832 1.264 . S
C849 O833 1.254 . S
C850 Eu786 2.848 . S
C850 O830 1.257 . S
C850 O835 1.249 . S
C850 C843 1.492 . S
C851 H816 0.931 . S
C851 C829 1.420 . S
C851 C852 1.351 . S
C852 H814 0.930 . S
C852 C820 1.423 . S
C852 C851 1.351 . S
C853 O837 1.276 . S
C853 O840 1.235 . S
C854 C855 1.393 . S
C854 C858 1.395 . S
C854 C861 1.492 . S
C855 C854 1.393 . S
C855 C856 1.392 . S
C855 H866 0.930 . S
C856 C855 1.392 . S
C856 C857 1.386 . S
C857 C856 1.386 . S
C857 C859 1.395 . S
C857 H867 0.930 . S
C858 C854 1.395 . S
C858 C859 1.379 . S
C858 H868 0.930 . S
C859 C857 1.395 . S
C859 C858 1.379 . S
C859 H869 0.930 . S
C860 O838 1.264 . S
C860 O839 1.254 . S
C861 Eu797 2.848 . S
C861 O836 1.257 . S
C861 O841 1.249 . S
C861 C854 1.492 . S
H862 C845 0.930 . S
H863 C846 0.930 . S
H864 C847 0.930 . S
H865 C848 0.930 . S
H866 C855 0.930 . S
H867 C857 0.930 . S
H868 C858 0.930 . S
H869 C859 0.930 . S
Eu870 N901 2.657 . S
Eu870 N908 2.609 . S
Eu870 O914 2.558 . S
Eu870 O915 2.612 . S
Eu870 O917 2.339 . S
Eu870 O918 2.563 . S
Eu870 O919 2.419 . S
Eu870 O921 2.380 . S
Eu870 O922 2.432 . S
Eu870 C934 2.848 . S
C871 C874 1.429 . S
C871 C875 1.411 . S
C871 N878 1.377 . S
C872 C874 1.420 . S
C872 C876 1.423 . S
C872 C884 1.392 . S
C873 C875 1.420 . S
C873 C876 1.351 . S
C873 H896 0.931 . S
C874 C871 1.429 . S
C874 C872 1.420 . S
C874 N882 1.362 . S
C875 C871 1.411 . S
C875 C873 1.420 . S
C875 C880 1.395 . S
C876 C872 1.423 . S
C876 C873 1.351 . S
C876 H888 0.930 . S
C877 C879 1.400 . S
C877 C880 1.386 . S
C877 H889 0.930 . S
N878 C871 1.377 . S
N878 C879 1.321 . S
N878 Eu881 2.609 . S
C879 C877 1.400 . S
C879 N878 1.321 . S
C879 H886 0.930 . S
C880 C875 1.395 . S
C880 C877 1.386 . S
C880 H899 0.930 . S
Eu881 N878 2.609 . S
Eu881 N882 2.657 . S
Eu881 O915 2.380 . S
Eu881 O916 2.432 . S
Eu881 O920 2.558 . S
Eu881 O921 2.612 . S
Eu881 O923 2.339 . S
Eu881 O924 2.563 . S
Eu881 O925 2.419 . S
Eu881 C945 2.848 . S
N882 C874 1.362 . S
N882 Eu881 2.657 . S
N882 C883 1.334 . S
C883 N882 1.334 . S
C883 C885 1.413 . S
C883 H890 0.929 . S
C884 C872 1.392 . S
C884 C885 1.367 . S
C884 H892 0.930 . S
C885 C883 1.413 . S
C885 C884 1.367 . S
C885 H887 0.930 . S
H886 C879 0.930 . S
H887 C885 0.930 . S
H888 C876 0.930 . S
H889 C877 0.930 . S
H890 C883 0.929 . S
H891 C905 0.930 . S
H892 C884 0.930 . S
H893 C911 0.930 . S
H894 C902 0.929 . S
H895 C909 0.930 . S
H896 C873 0.931 . S
H897 C903 0.930 1_455 S
H898 C936 0.930 1_455 S
H899 C880 0.930 . S
H900 C935 0.931 . S
N901 Eu870 2.657 . S
N901 C902 1.334 . S
N901 C906 1.362 . S
C902 H894 0.929 . S
C902 N901 1.334 . S
C902 C905 1.413 . S
C903 H897 0.930 1_655 S
C903 C904 1.392 . S
C903 C905 1.367 . S
C904 C903 1.392 . S
C904 C906 1.420 . S
C904 C936 1.423 . S
C905 H891 0.930 . S
C905 C902 1.413 . S
C905 C903 1.367 . S
C906 N901 1.362 . S
C906 C904 1.420 . S
C906 C910 1.429 . S
H907 C912 0.930 . S
N908 Eu870 2.609 . S
N908 C910 1.377 . S
N908 C911 1.321 . S
C909 H895 0.930 . S
C909 C911 1.400 . S
C909 C912 1.386 . S
C910 C906 1.429 . S
C910 N908 1.377 . S
C910 C913 1.411 . S
C911 H893 0.930 . S
C911 N908 1.321 . S
C911 C909 1.400 . S
C912 H907 0.930 . S
C912 C909 1.386 . S
C912 C913 1.395 . S
C913 C910 1.411 . S
C913 C912 1.395 . S
C913 C935 1.420 . S
O914 Eu870 2.558 . S
O914 C934 1.257 . S
O915 Eu870 2.612 . S
O915 Eu881 2.380 . S
O915 C926 1.276 . S
O916 Eu881 2.432 . S
O916 C933 1.264 . S
O917 Eu870 2.339 . S
O917 C933 1.254 . S
O918 Eu870 2.563 . S
O918 C926 1.235 . S
O919 Eu870 2.419 . S
O919 C934 1.249 . S
O920 Eu881 2.558 . S
O920 C945 1.257 . S
O921 Eu870 2.380 . S
O921 Eu881 2.612 . S
O921 C937 1.276 . S
O922 Eu870 2.432 . S
O922 C944 1.264 . S
O923 Eu881 2.339 . S
O923 C944 1.254 . S
O924 Eu881 2.563 . S
O924 C937 1.235 . S
O925 Eu881 2.419 . S
O925 C945 1.249 . S
C926 O915 1.276 . S
C926 O918 1.235 . S
C927 C929 1.393 . S
C927 C931 1.395 . S
C927 C934 1.492 . S
C928 C929 1.392 . S
C928 C930 1.386 . S
C929 C927 1.393 . S
C929 C928 1.392 . S
C929 H946 0.930 . S
C930 C928 1.386 . S
C930 C932 1.395 . S
C930 H947 0.930 . S
C931 C927 1.395 . S
C931 C932 1.379 . S
C931 H948 0.930 . S
C932 C930 1.395 . S
C932 C931 1.379 . S
C932 H949 0.930 . S
C933 O916 1.264 . S
C933 O917 1.254 . S
C934 Eu870 2.848 . S
C934 O914 1.257 . S
C934 O919 1.249 . S
C934 C927 1.492 . S
C935 H900 0.931 . S
C935 C913 1.420 . S
C935 C936 1.351 . S
C936 H898 0.930 1_655 S
C936 C904 1.423 . S
C936 C935 1.351 . S
C937 O921 1.276 . S
C937 O924 1.235 . S
C938 C939 1.393 . S
C938 C942 1.395 . S
C938 C945 1.492 . S
C939 C938 1.393 . S
C939 C940 1.392 . S
C939 H950 0.930 . S
C940 C939 1.392 . S
C940 C941 1.386 . S
C941 C940 1.386 . S
C941 C943 1.395 . S
C941 H951 0.930 . S
C942 C938 1.395 . S
C942 C943 1.379 . S
C942 H952 0.930 . S
C943 C941 1.395 . S
C943 C942 1.379 . S
C943 H953 0.930 . S
C944 O922 1.264 . S
C944 O923 1.254 . S
C945 Eu881 2.848 . S
C945 O920 1.257 . S
C945 O925 1.249 . S
C945 C938 1.492 . S
H946 C929 0.930 . S
H947 C930 0.930 . S
H948 C931 0.930 . S
H949 C932 0.930 . S
H950 C939 0.930 . S
H951 C941 0.930 . S
H952 C942 0.930 . S
H953 C943 0.930 . S
C954 C955 1.369 . S
C954 C956 1.419 . S
C954 H958 0.930 . S
C955 C954 1.369 . S
C955 C964 1.429 . S
C956 C954 1.419 . S
C956 C957 1.363 . S
C956 H959 0.929 . S
C957 C956 1.363 . S
C957 C963 1.428 . S
H958 C954 0.930 . S
H959 C956 0.929 . S
S960 N961 1.613 . S
S960 N962 1.610 . S
N961 S960 1.613 . S
N961 C964 1.350 1_556 S
N962 S960 1.610 . S
N962 C963 1.351 1_556 S
C963 C957 1.428 . S
C963 N962 1.351 1_554 S
C963 C964 1.434 . S
C964 C955 1.429 . S
C964 N961 1.350 1_554 S
C964 C963 1.434 . S
C965 C966 1.369 . S
C965 C967 1.419 . S
C965 H969 0.930 . S
C966 C965 1.369 . S
C966 C975 1.429 . S
C967 C965 1.419 . S
C967 C968 1.363 . S
C967 H970 0.929 . S
C968 C967 1.363 . S
C968 C974 1.428 . S
H969 C965 0.930 . S
H970 C967 0.929 . S
S971 N972 1.613 . S
S971 N973 1.610 . S
N972 S971 1.613 . S
N972 C975 1.350 . S
N973 S971 1.610 . S
N973 C974 1.351 . S
C974 C968 1.428 . S
C974 N973 1.351 . S
C974 C975 1.434 . S
C975 C966 1.429 . S
C975 N972 1.350 . S
C975 C974 1.434 . S
C976 C977 1.369 . S
C976 C978 1.419 . S
C976 H980 0.930 . S
C977 C976 1.369 . S
C977 C986 1.429 . S
C978 C976 1.419 . S
C978 C979 1.363 . S
C978 H981 0.929 . S
C979 C978 1.363 . S
C979 C985 1.428 . S
H980 C976 0.930 . S
H981 C978 0.929 . S
S982 N983 1.613 1_556 S
S982 N984 1.610 . S
N983 S982 1.613 1_554 S
N983 C986 1.350 . S
N984 S982 1.610 . S
N984 C985 1.351 1_556 S
C985 C979 1.428 . S
C985 N984 1.351 1_554 S
C985 C986 1.434 . S
C986 C977 1.429 . S
C986 N983 1.350 . S
C986 C985 1.434 . S
C987 C988 1.369 . S
C987 C989 1.414 1_556 S
C987 H991 0.930 1_556 S
C988 C987 1.369 . S
C988 C997 1.429 . S
C989 C987 1.414 1_554 S
C989 C990 1.350 1_554 S
C989 H992 0.948 . S
C990 C989 1.350 1_556 S
C990 C996 1.428 . S
H991 C987 0.930 1_554 S
H992 C989 0.948 . S
S993 N994 1.613 . S
S993 N995 1.610 . S
N994 S993 1.613 . S
N994 C997 1.350 . S
N995 S993 1.610 . S
N995 C996 1.351 . S
C996 C990 1.428 . S
C996 N995 1.351 . S
C996 C997 1.434 . S
C997 C988 1.429 . S
C997 N994 1.350 . S
C997 C996 1.434 . S
C998 C999 1.369 . S
C998 C1000 1.419 . S
C998 H1002 0.930 . S
C999 C998 1.369 . S
C999 C1008 1.429 . S
C1000 C998 1.419 . S
C1000 C1001 1.363 . S
C1000 H1003 0.929 . S
C1001 C1000 1.363 . S
C1001 C1007 1.428 . S
H1002 C998 0.930 . S
H1003 C1000 0.929 . S
S1004 N1005 1.613 . S
S1004 N1006 1.610 . S
N1005 S1004 1.613 . S
N1005 C1008 1.350 1_554 S
N1006 S1004 1.610 . S
N1006 C1007 1.351 1_554 S
C1007 C1001 1.428 . S
C1007 N1006 1.351 1_556 S
C1007 C1008 1.434 . S
C1008 C999 1.429 . S
C1008 N1005 1.350 1_556 S
C1008 C1007 1.434 . S
C1009 C1010 1.369 . S
C1009 C1011 1.419 . S
C1009 H1013 0.930 . S
C1010 C1009 1.369 . S
C1010 C1019 1.429 . S
C1011 C1009 1.419 . S
C1011 C1012 1.363 . S
C1011 H1014 0.920 1_556 S
C1012 C1011 1.363 . S
C1012 C1018 1.428 . S
H1013 C1009 0.930 . S
H1014 C1011 0.920 1_554 S
S1015 N1016 1.613 . S
S1015 N1017 1.610 . S
N1016 S1015 1.613 . S
N1016 C1019 1.350 . S
N1017 S1015 1.610 . S
N1017 C1018 1.351 . S
C1018 C1012 1.428 . S
C1018 N1017 1.351 . S
C1018 C1019 1.434 . S
C1019 C1010 1.429 . S
C1019 N1016 1.350 . S
C1019 C1018 1.434 . S
C1020 C1021 1.369 . S
C1020 C1022 1.419 . S
C1020 H1024 0.930 . S
C1021 C1020 1.369 . S
C1021 C1030 1.429 . S
C1022 C1020 1.419 . S
C1022 C1023 1.363 . S
C1022 H1025 0.929 . S
C1023 C1022 1.363 . S
C1023 C1029 1.428 . S
H1024 C1020 0.930 . S
H1025 C1022 0.929 . S
S1026 N1027 1.613 . S
S1026 N1028 1.610 . S
N1027 S1026 1.613 . S
N1027 C1030 1.350 . S
N1028 S1026 1.610 . S
N1028 C1029 1.351 . S
C1029 C1023 1.428 . S
C1029 N1028 1.351 . S
C1029 C1030 1.434 . S
C1030 C1021 1.429 . S
C1030 N1027 1.350 . S
C1030 C1029 1.434 . S
C1031 C1032 1.369 . S
C1031 C1033 1.419 . S
C1031 H1035 0.930 . S
C1032 C1031 1.369 . S
C1032 C1041 1.429 1_556 S
C1033 C1031 1.419 . S
C1033 C1034 1.363 . S
C1033 H1036 0.929 . S
C1034 C1033 1.363 . S
C1034 C1040 1.428 1_556 S
H1035 C1031 0.930 . S
H1036 C1033 0.929 . S
S1037 N1038 1.613 . S
S1037 N1039 1.610 . S
N1038 S1037 1.613 . S
N1038 C1041 1.350 . S
N1039 S1037 1.610 . S
N1039 C1040 1.351 . S
C1040 C1034 1.428 1_554 S
C1040 N1039 1.351 . S
C1040 C1041 1.434 . S
C1041 C1032 1.429 1_554 S
C1041 N1038 1.350 . S
C1041 C1040 1.434 . S
C1042 C1043 1.369 . S
C1042 C1044 1.419 . S
C1042 H1046 0.930 . S
C1043 C1042 1.369 . S
C1043 C1052 1.429 . S
C1044 C1042 1.419 . S
C1044 C1045 1.363 . S
C1044 H1047 0.929 . S
C1045 C1044 1.363 . S
C1045 C1051 1.441 . S
H1046 C1042 0.930 . S
H1047 C1044 0.929 . S
S1048 N1049 1.613 . S
S1048 N1050 1.610 . S
N1049 S1048 1.613 . S
N1049 C1052 1.350 1_554 S
N1050 S1048 1.610 . S
N1050 C1051 1.335 1_554 S
C1051 C1045 1.441 . S
C1051 N1050 1.335 1_556 S
C1051 C1052 1.436 . S
C1052 C1043 1.429 . S
C1052 N1049 1.350 1_556 S
C1052 C1051 1.436 . S
C1053 C1054 1.369 . S
C1053 C1055 1.419 . S
C1053 H1057 0.930 . S
C1054 C1053 1.369 . S
C1054 C1063 1.429 . S
C1055 C1053 1.419 . S
C1055 C1056 1.363 . S
C1055 H1058 0.929 . S
C1056 C1055 1.363 . S
C1056 C1062 1.428 . S
H1057 C1053 0.930 . S
H1058 C1055 0.929 . S
S1059 N1060 1.613 1_556 S
S1059 N1061 1.610 1_556 S
N1060 S1059 1.613 1_554 S
N1060 C1063 1.350 . S
N1061 S1059 1.610 1_554 S
N1061 C1062 1.351 . S
C1062 C1056 1.428 . S
C1062 N1061 1.351 . S
C1062 C1063 1.434 . S
C1063 C1054 1.429 . S
C1063 N1060 1.350 . S
C1063 C1062 1.434 . S
C1064 C1065 1.369 . S
C1064 C1066 1.419 . S
C1064 H1068 0.930 . S
C1065 C1064 1.369 . S
C1065 C1074 1.429 . S
C1066 C1064 1.419 . S
C1066 C1067 1.363 . S
C1066 H1069 0.929 . S
C1067 C1066 1.363 . S
C1067 C1073 1.428 . S
H1068 C1064 0.930 . S
H1069 C1066 0.929 . S
S1070 N1071 1.613 . S
S1070 N1072 1.610 . S
N1071 S1070 1.613 . S
N1071 C1074 1.350 1_556 S
N1072 S1070 1.610 . S
N1072 C1073 1.351 1_556 S
C1073 C1067 1.428 . S
C1073 N1072 1.351 1_554 S
C1073 C1074 1.434 . S
C1074 C1065 1.429 . S
C1074 N1071 1.350 1_554 S
C1074 C1073 1.434 . S
C1075 C1076 1.369 . S
C1075 C1077 1.419 . S
C1075 H1079 0.930 . S
C1076 C1075 1.369 . S
C1076 C1085 1.429 . S
C1077 C1075 1.419 . S
C1077 C1078 1.363 . S
C1077 H1080 0.929 . S
C1078 C1077 1.363 . S
C1078 C1084 1.428 . S
H1079 C1075 0.930 . S
H1080 C1077 0.929 . S
S1081 N1082 1.613 . S
S1081 N1083 1.610 . S
N1082 S1081 1.613 . S
N1082 C1085 1.350 . S
N1083 S1081 1.610 . S
N1083 C1084 1.351 . S
C1084 C1078 1.428 . S
C1084 N1083 1.351 . S
C1084 C1085 1.434 . S
C1085 C1076 1.429 . S
C1085 N1082 1.350 . S
C1085 C1084 1.434 . S
C1086 C1087 1.369 . S
C1086 C1088 1.419 . S
C1086 H1090 0.930 . S
C1087 C1086 1.369 . S
C1087 C1096 1.429 . S
C1088 C1086 1.419 . S
C1088 C1089 1.363 . S
C1088 H1091 0.929 . S
C1089 C1088 1.363 . S
C1089 C1095 1.428 . S
H1090 C1086 0.930 . S
H1091 C1088 0.929 . S
S1092 N1093 1.613 . S
S1092 N1094 1.610 1_655 S
N1093 S1092 1.613 . S
N1093 C1096 1.350 1_655 S
N1094 S1092 1.610 1_455 S
N1094 C1095 1.351 . S
C1095 C1089 1.428 . S
C1095 N1094 1.351 . S
C1095 C1096 1.434 . S
C1096 C1087 1.429 . S
C1096 N1093 1.350 1_455 S
C1096 C1095 1.434 . S
C1097 C1098 1.369 . S
C1097 C1099 1.419 . S
C1097 H1101 0.930 . S
C1098 C1097 1.369 . S
C1098 C1107 1.429 . S
C1099 C1097 1.419 . S
C1099 C1100 1.363 . S
C1099 H1102 0.929 . S
C1100 C1099 1.363 . S
C1100 C1106 1.428 . S
H1101 C1097 0.930 . S
H1102 C1099 0.929 . S
S1103 N1104 1.613 . S
S1103 N1105 1.610 . S
N1104 S1103 1.613 . S
N1104 C1107 1.350 . S
N1105 S1103 1.610 . S
N1105 C1106 1.351 . S
C1106 C1100 1.428 . S
C1106 N1105 1.351 . S
C1106 C1107 1.434 . S
C1107 C1098 1.429 . S
C1107 N1104 1.350 . S
C1107 C1106 1.434 . S
C1108 C1109 1.369 1_565 S
C1108 C1110 1.419 . S
C1108 H1112 0.930 . S
C1109 C1108 1.369 1_545 S
C1109 C1118 1.429 . S
C1110 C1108 1.419 . S
C1110 C1111 1.363 . S
C1110 H1113 0.929 . S
C1111 C1110 1.363 . S
C1111 C1117 1.428 . S
H1112 C1108 0.930 . S
H1113 C1110 0.929 . S
S1114 N1115 1.613 . S
S1114 N1116 1.610 1_545 S
N1115 S1114 1.613 . S
N1115 C1118 1.350 . S
N1116 S1114 1.610 1_565 S
N1116 C1117 1.351 . S
C1117 C1111 1.428 . S
C1117 N1116 1.351 . S
C1117 C1118 1.434 1_565 S
C1118 C1109 1.429 . S
C1118 N1115 1.350 . S
C1118 C1117 1.434 1_545 S
C1119 C1120 1.369 . S
C1119 C1121 1.419 . S
C1119 H1123 0.930 . S
C1120 C1119 1.369 . S
C1120 C1129 1.429 . S
C1121 C1119 1.419 . S
C1121 C1122 1.363 . S
C1121 H1124 0.929 . S
C1122 C1121 1.363 . S
C1122 C1128 1.428 . S
H1123 C1119 0.930 . S
H1124 C1121 0.929 . S
S1125 N1126 1.613 . S
S1125 N1127 1.610 . S
N1126 S1125 1.613 . S
N1126 C1129 1.350 . S
N1127 S1125 1.610 . S
N1127 C1128 1.351 . S
C1128 C1122 1.428 . S
C1128 N1127 1.351 . S
C1128 C1129 1.434 . S
C1129 C1120 1.429 . S
C1129 N1126 1.350 . S
C1129 C1128 1.434 . S
C1130 C1131 1.369 . S
C1130 C1132 1.419 . S
C1130 H1134 0.930 . S
C1131 C1130 1.369 . S
C1131 C1140 1.429 . S
C1132 C1130 1.419 . S
C1132 C1133 1.363 . S
C1132 H1135 0.929 . S
C1133 C1132 1.363 . S
C1133 C1139 1.428 . S
H1134 C1130 0.930 . S
H1135 C1132 0.929 . S
S1136 N1137 1.613 . S
S1136 N1138 1.610 . S
N1137 S1136 1.613 . S
N1137 C1140 1.350 . S
N1138 S1136 1.610 . S
N1138 C1139 1.351 . S
C1139 C1133 1.428 . S
C1139 N1138 1.351 . S
C1139 C1140 1.434 . S
C1140 C1131 1.429 . S
C1140 N1137 1.350 . S
C1140 C1139 1.434 . S
C1141 C1142 1.369 . S
C1141 C1143 1.419 . S
C1141 H1145 0.930 . S
C1142 C1141 1.369 . S
C1142 C1151 1.429 . S
C1143 C1141 1.419 . S
C1143 C1144 1.363 . S
C1143 H1146 0.929 . S
C1144 C1143 1.363 . S
C1144 C1150 1.428 . S
H1145 C1141 0.930 . S
H1146 C1143 0.929 . S
S1147 N1148 1.613 . S
S1147 N1149 1.610 . S
N1148 S1147 1.613 . S
N1148 C1151 1.350 . S
N1149 S1147 1.610 . S
N1149 C1150 1.351 . S
C1150 C1144 1.428 . S
C1150 N1149 1.351 . S
C1150 C1151 1.434 . S
C1151 C1142 1.429 . S
C1151 N1148 1.350 . S
C1151 C1150 1.434 . S
C1152 C1153 1.369 . S
C1152 C1154 1.419 . S
C1152 H1156 0.930 . S
C1153 C1152 1.369 . S
C1153 C1162 1.429 . S
C1154 C1152 1.419 . S
C1154 C1155 1.363 . S
C1154 H1157 0.929 . S
C1155 C1154 1.363 . S
C1155 C1161 1.428 . S
H1156 C1152 0.930 . S
H1157 C1154 0.929 . S
S1158 N1159 1.613 . S
S1158 N1160 1.610 . S
N1159 S1158 1.613 . S
N1159 C1162 1.350 . S
N1160 S1158 1.610 . S
N1160 C1161 1.351 . S
C1161 C1155 1.428 . S
C1161 N1160 1.351 . S
C1161 C1162 1.434 . S
C1162 C1153 1.429 . S
C1162 N1159 1.350 . S
C1162 C1161 1.434 . S
C1163 C1164 1.369 . S
C1163 C1165 1.419 . S
C1163 H1167 0.930 . S
C1164 C1163 1.369 . S
C1164 C1173 1.429 . S
C1165 C1163 1.419 . S
C1165 C1166 1.363 . S
C1165 H1168 0.929 . S
C1166 C1165 1.363 . S
C1166 C1172 1.428 . S
H1167 C1163 0.930 . S
H1168 C1165 0.929 . S
S1169 N1170 1.613 . S
S1169 N1171 1.610 . S
N1170 S1169 1.613 . S
N1170 C1173 1.350 . S
N1171 S1169 1.610 . S
N1171 C1172 1.351 . S
C1172 C1166 1.428 . S
C1172 N1171 1.351 . S
C1172 C1173 1.434 . S
C1173 C1164 1.429 . S
C1173 N1170 1.350 . S
C1173 C1172 1.434 . S
C1174 C1175 1.369 . S
C1174 C1176 1.419 . S
C1174 H1178 0.930 . S
C1175 C1174 1.369 . S
C1175 C1184 1.429 . S
C1176 C1174 1.419 . S
C1176 C1177 1.363 . S
C1176 H1179 0.929 . S
C1177 C1176 1.363 . S
C1177 C1183 1.428 . S
H1178 C1174 0.930 . S
H1179 C1176 0.929 . S
S1180 N1181 1.613 . S
S1180 N1182 1.610 . S
N1181 S1180 1.613 . S
N1181 C1184 1.350 . S
N1182 S1180 1.610 . S
N1182 C1183 1.351 . S
C1183 C1177 1.428 . S
C1183 N1182 1.351 . S
C1183 C1184 1.434 . S
C1184 C1175 1.429 . S
C1184 N1181 1.350 . S
C1184 C1183 1.434 . S
C1185 C1186 1.369 . S
C1185 C1187 1.419 . S
C1185 H1189 0.930 1_565 S
C1186 C1185 1.369 . S
C1186 C1195 1.429 . S
C1187 C1185 1.419 . S
C1187 C1188 1.363 . S
C1187 H1190 0.929 . S
C1188 C1187 1.363 . S
C1188 C1194 1.428 . S
H1189 C1185 0.930 1_545 S
H1190 C1187 0.929 . S
S1191 N1192 1.613 . S
S1191 N1193 1.610 . S
N1192 S1191 1.613 . S
N1192 C1195 1.350 . S
N1193 S1191 1.610 . S
N1193 C1194 1.351 . S
C1194 C1188 1.428 . S
C1194 N1193 1.351 . S
C1194 C1195 1.434 . S
C1195 C1186 1.429 . S
C1195 N1192 1.350 . S
C1195 C1194 1.434 . S
C1196 C1197 1.369 . S
C1196 C1198 1.419 . S
C1196 H1200 0.930 . S
C1197 C1196 1.369 . S
C1197 C1206 1.429 . S
C1198 C1196 1.419 . S
C1198 C1199 1.363 . S
C1198 H1201 0.929 . S
C1199 C1198 1.363 . S
C1199 C1205 1.428 . S
H1200 C1196 0.930 . S
H1201 C1198 0.929 . S
S1202 N1203 1.613 . S
S1202 N1204 1.610 . S
N1203 S1202 1.613 . S
N1203 C1206 1.350 . S
N1204 S1202 1.610 . S
N1204 C1205 1.351 . S
C1205 C1199 1.428 . S
C1205 N1204 1.351 . S
C1205 C1206 1.434 . S
C1206 C1197 1.429 . S
C1206 N1203 1.350 . S
C1206 C1205 1.434 . S
C1207 C1208 1.369 . S
C1207 C1209 1.419 . S
C1207 H1211 0.930 . S
C1208 C1207 1.369 . S
C1208 C1217 1.429 . S
C1209 C1207 1.419 . S
C1209 C1210 1.363 . S
C1209 H1212 0.929 . S
C1210 C1209 1.363 . S
C1210 C1216 1.428 . S
H1211 C1207 0.930 . S
H1212 C1209 0.929 . S
S1213 N1214 1.613 . S
S1213 N1215 1.610 . S
N1214 S1213 1.613 . S
N1214 C1217 1.350 . S
N1215 S1213 1.610 . S
N1215 C1216 1.351 . S
C1216 C1210 1.428 . S
C1216 N1215 1.351 . S
C1216 C1217 1.434 . S
C1217 C1208 1.429 . S
C1217 N1214 1.350 . S
C1217 C1216 1.434 . S
C1218 C1219 1.369 . S
C1218 C1220 1.419 . S
C1218 H1222 0.930 . S
C1219 C1218 1.369 . S
C1219 C1228 1.429 . S
C1220 C1218 1.419 . S
C1220 C1221 1.363 . S
C1220 H1223 0.929 . S
C1221 C1220 1.363 . S
C1221 C1227 1.428 . S
H1222 C1218 0.930 . S
H1223 C1220 0.929 . S
S1224 N1225 1.613 . S
S1224 N1226 1.610 . S
N1225 S1224 1.613 . S
N1225 C1228 1.350 . S
N1226 S1224 1.610 . S
N1226 C1227 1.351 . S
C1227 C1221 1.428 . S
C1227 N1226 1.351 . S
C1227 C1228 1.434 . S
C1228 C1219 1.429 . S
C1228 N1225 1.350 . S
C1228 C1227 1.434 . S
C1229 C1230 1.369 . S
C1229 C1231 1.419 . S
C1229 H1233 0.930 . S
C1230 C1229 1.369 . S
C1230 C1239 1.429 . S
C1231 C1229 1.419 . S
C1231 C1232 1.363 . S
C1231 H1234 0.929 . S
C1232 C1231 1.363 . S
C1232 C1238 1.428 . S
H1233 C1229 0.930 . S
H1234 C1231 0.929 . S
S1235 N1236 1.613 . S
S1235 N1237 1.610 . S
N1236 S1235 1.613 . S
N1236 C1239 1.350 . S
N1237 S1235 1.610 . S
N1237 C1238 1.351 . S
C1238 C1232 1.428 . S
C1238 N1237 1.351 . S
C1238 C1239 1.434 . S
C1239 C1230 1.429 . S
C1239 N1236 1.350 . S
C1239 C1238 1.434 . S
C1240 C1241 1.369 . S
C1240 C1242 1.419 . S
C1240 H1244 0.930 . S
C1241 C1240 1.369 . S
C1241 C1250 1.429 . S
C1242 C1240 1.419 . S
C1242 C1243 1.363 . S
C1242 H1245 0.929 . S
C1243 C1242 1.363 . S
C1243 C1249 1.428 . S
H1244 C1240 0.930 . S
H1245 C1242 0.929 . S
S1246 N1247 1.613 . S
S1246 N1248 1.610 . S
N1247 S1246 1.613 . S
N1247 C1250 1.350 . S
N1248 S1246 1.610 . S
N1248 C1249 1.351 . S
C1249 C1243 1.428 . S
C1249 N1248 1.351 . S
C1249 C1250 1.434 . S
C1250 C1241 1.429 . S
C1250 N1247 1.350 . S
C1250 C1249 1.434 . S
C1251 C1252 1.369 . S
C1251 C1253 1.419 . S
C1251 H1255 0.930 1_545 S
C1252 C1251 1.369 . S
C1252 C1261 1.429 . S
C1253 C1251 1.419 . S
C1253 C1254 1.363 . S
C1253 H1256 0.929 . S
C1254 C1253 1.363 . S
C1254 C1260 1.428 . S
H1255 C1251 0.930 1_565 S
H1256 C1253 0.929 . S
S1257 N1258 1.613 . S
S1257 N1259 1.610 . S
N1258 S1257 1.613 . S
N1258 C1261 1.350 . S
N1259 S1257 1.610 . S
N1259 C1260 1.351 . S
C1260 C1254 1.428 . S
C1260 N1259 1.351 . S
C1260 C1261 1.434 . S
C1261 C1252 1.429 . S
C1261 N1258 1.350 . S
C1261 C1260 1.434 . S
C1262 C1263 1.369 1_655 S
C1262 C1264 1.419 . S
C1262 H1266 0.930 . S
C1263 C1262 1.369 1_455 S
C1263 C1272 1.445 . S
C1264 C1262 1.419 . S
C1264 C1265 1.363 . S
C1264 H1267 0.929 . S
C1265 C1264 1.363 . S
C1265 C1271 1.428 . S
H1266 C1262 0.930 . S
H1267 C1264 0.929 . S
S1268 N1269 1.613 . S
S1268 N1270 1.610 1_455 S
N1269 S1268 1.613 . S
N1269 C1272 1.365 . S
N1270 S1268 1.610 1_655 S
N1270 C1271 1.351 . S
C1271 C1265 1.428 . S
C1271 N1270 1.351 . S
C1271 C1272 1.401 1_655 S
C1272 C1263 1.445 . S
C1272 N1269 1.365 . S
C1272 C1271 1.401 1_455 S
C1273 C1274 1.369 . S
C1273 C1275 1.419 . S
C1273 H1277 0.930 . S
C1274 C1273 1.369 . S
C1274 C1283 1.429 . S
C1275 C1273 1.419 . S
C1275 C1276 1.363 . S
C1275 H1278 0.929 . S
C1276 C1275 1.363 . S
C1276 C1282 1.428 . S
H1277 C1273 0.930 . S
H1278 C1275 0.929 . S
S1279 N1280 1.613 . S
S1279 N1281 1.610 . S
N1280 S1279 1.613 . S
N1280 C1283 1.350 . S
N1281 S1279 1.610 . S
N1281 C1282 1.351 . S
C1282 C1276 1.428 . S
C1282 N1281 1.351 . S
C1282 C1283 1.434 . S
C1283 C1274 1.429 . S
C1283 N1280 1.350 . S
C1283 C1282 1.434 . S
C1284 C1285 1.369 . S
C1284 C1286 1.419 . S
C1284 H1288 0.930 . S
C1285 C1284 1.369 . S
C1285 C1294 1.429 . S
C1286 C1284 1.419 . S
C1286 C1287 1.363 . S
C1286 H1289 0.929 . S
C1287 C1286 1.363 . S
C1287 C1293 1.428 . S
H1288 C1284 0.930 . S
H1289 C1286 0.929 . S
S1290 N1291 1.613 . S
S1290 N1292 1.610 . S
N1291 S1290 1.613 . S
N1291 C1294 1.350 . S
N1292 S1290 1.610 . S
N1292 C1293 1.351 . S
C1293 C1287 1.428 . S
C1293 N1292 1.351 . S
C1293 C1294 1.434 . S
C1294 C1285 1.429 . S
C1294 N1291 1.350 . S
C1294 C1293 1.434 . S
C1295 C1296 1.369 . S
C1295 C1297 1.419 . S
C1295 H1299 0.930 . S
C1296 C1295 1.369 . S
C1296 C1305 1.429 . S
C1297 C1295 1.419 . S
C1297 C1298 1.363 . S
C1297 H1300 0.929 . S
C1298 C1297 1.363 . S
C1298 C1304 1.428 . S
H1299 C1295 0.930 . S
H1300 C1297 0.929 . S
S1301 N1302 1.613 . S
S1301 N1303 1.610 . S
N1302 S1301 1.613 . S
N1302 C1305 1.350 . S
N1303 S1301 1.610 . S
N1303 C1304 1.351 . S
C1304 C1298 1.428 . S
C1304 N1303 1.351 . S
C1304 C1305 1.434 . S
C1305 C1296 1.429 . S
C1305 N1302 1.350 . S
C1305 C1304 1.434 . S
C1306 C1307 1.369 . S
C1306 C1308 1.419 . S
C1306 H1310 0.930 . S
C1307 C1306 1.369 . S
C1307 C1316 1.429 . S
C1308 C1306 1.419 . S
C1308 C1309 1.363 . S
C1308 H1311 0.929 . S
C1309 C1308 1.363 . S
C1309 C1315 1.428 . S
H1310 C1306 0.930 . S
H1311 C1308 0.929 . S
S1312 N1313 1.613 1_545 S
S1312 N1314 1.610 . S
N1313 S1312 1.613 1_565 S
N1313 C1316 1.350 1_565 S
N1314 S1312 1.610 . S
N1314 C1315 1.351 . S
C1315 C1309 1.428 . S
C1315 N1314 1.351 . S
C1315 C1316 1.434 . S
C1316 C1307 1.429 . S
C1316 N1313 1.350 1_545 S
C1316 C1315 1.434 . S
C1317 C1318 1.369 . S
C1317 C1319 1.419 . S
C1317 H1321 0.930 . S
C1318 C1317 1.369 . S
C1318 C1327 1.429 . S
C1319 C1317 1.419 . S
C1319 C1320 1.363 . S
C1319 H1322 0.929 . S
C1320 C1319 1.363 . S
C1320 C1326 1.428 . S
H1321 C1317 0.930 . S
H1322 C1319 0.929 . S
S1323 N1324 1.613 . S
S1323 N1325 1.610 . S
N1324 S1323 1.613 . S
N1324 C1327 1.350 . S
N1325 S1323 1.610 . S
N1325 C1326 1.351 . S
C1326 C1320 1.428 . S
C1326 N1325 1.351 . S
C1326 C1327 1.434 . S
C1327 C1318 1.429 . S
C1327 N1324 1.350 . S
C1327 C1326 1.434 . S
C1328 C1329 1.369 . S
C1328 C1330 1.419 . S
C1328 H1332 0.930 . S
C1329 C1328 1.369 . S
C1329 C1338 1.429 . S
C1330 C1328 1.419 . S
C1330 C1331 1.363 . S
C1330 H1333 0.929 . S
C1331 C1330 1.363 . S
C1331 C1337 1.428 . S
H1332 C1328 0.930 . S
H1333 C1330 0.929 . S
S1334 N1335 1.613 . S
S1334 N1336 1.610 . S
N1335 S1334 1.613 . S
N1335 C1338 1.350 . S
N1336 S1334 1.610 . S
N1336 C1337 1.351 . S
C1337 C1331 1.428 . S
C1337 N1336 1.351 . S
C1337 C1338 1.434 . S
C1338 C1329 1.429 . S
C1338 N1335 1.350 . S
C1338 C1337 1.434 . S
C1339 C1340 1.369 . S
C1339 C1341 1.419 . S
C1339 H1343 0.930 . S
C1340 C1339 1.369 . S
C1340 C1349 1.429 . S
C1341 C1339 1.419 . S
C1341 C1342 1.363 . S
C1341 H1344 0.929 . S
C1342 C1341 1.363 . S
C1342 C1348 1.428 . S
H1343 C1339 0.930 . S
H1344 C1341 0.929 . S
S1345 N1346 1.613 . S
S1345 N1347 1.610 . S
N1346 S1345 1.613 . S
N1346 C1349 1.350 . S
N1347 S1345 1.610 . S
N1347 C1348 1.351 . S
C1348 C1342 1.428 . S
C1348 N1347 1.351 . S
C1348 C1349 1.434 . S
C1349 C1340 1.429 . S
C1349 N1346 1.350 . S
C1349 C1348 1.434 . S
C1350 C1351 1.369 . S
C1350 C1352 1.419 . S
C1350 H1354 0.930 . S
C1351 C1350 1.369 . S
C1351 C1360 1.429 . S
C1352 C1350 1.419 . S
C1352 C1353 1.363 . S
C1352 H1355 0.929 . S
C1353 C1352 1.363 . S
C1353 C1359 1.428 . S
H1354 C1350 0.930 . S
H1355 C1352 0.929 . S
S1356 N1357 1.613 . S
S1356 N1358 1.610 . S
N1357 S1356 1.613 . S
N1357 C1360 1.350 . S
N1358 S1356 1.610 . S
N1358 C1359 1.351 . S
C1359 C1353 1.428 . S
C1359 N1358 1.351 . S
C1359 C1360 1.434 . S
C1360 C1351 1.429 . S
C1360 N1357 1.350 . S
C1360 C1359 1.434 . S
C1361 C1362 1.369 . S
C1361 C1363 1.419 . S
C1361 H1365 0.930 . S
C1362 C1361 1.369 . S
C1362 C1371 1.429 . S
C1363 C1361 1.419 . S
C1363 C1364 1.363 . S
C1363 H1366 0.929 . S
C1364 C1363 1.363 . S
C1364 C1370 1.428 . S
H1365 C1361 0.930 . S
H1366 C1363 0.929 . S
S1367 N1368 1.613 . S
S1367 N1369 1.610 . S
N1368 S1367 1.613 . S
N1368 C1371 1.350 . S
N1369 S1367 1.610 . S
N1369 C1370 1.351 . S
C1370 C1364 1.428 . S
C1370 N1369 1.351 . S
C1370 C1371 1.434 . S
C1371 C1362 1.429 . S
C1371 N1368 1.350 . S
C1371 C1370 1.434 . S
C1372 C1373 1.369 . S
C1372 C1374 1.419 . S
C1372 H1376 0.930 . S
C1373 C1372 1.369 . S
C1373 C1382 1.429 . S
C1374 C1372 1.419 . S
C1374 C1375 1.363 . S
C1374 H1377 0.929 . S
C1375 C1374 1.363 . S
C1375 C1381 1.428 . S
H1376 C1372 0.930 . S
H1377 C1374 0.929 . S
S1378 N1379 1.613 . S
S1378 N1380 1.610 . S
N1379 S1378 1.613 . S
N1379 C1382 1.350 . S
N1380 S1378 1.610 . S
N1380 C1381 1.351 . S
C1381 C1375 1.428 . S
C1381 N1380 1.351 . S
C1381 C1382 1.434 . S
C1382 C1373 1.429 . S
C1382 N1379 1.350 . S
C1382 C1381 1.434 . S
C1383 C1384 1.369 . S
C1383 C1385 1.419 . S
C1383 H1387 0.930 . S
C1384 C1383 1.369 . S
C1384 C1393 1.429 . S
C1385 C1383 1.419 . S
C1385 C1386 1.363 . S
C1385 H1388 0.929 . S
C1386 C1385 1.363 . S
C1386 C1392 1.428 . S
H1387 C1383 0.930 . S
H1388 C1385 0.929 . S
S1389 N1390 1.613 . S
S1389 N1391 1.610 . S
N1390 S1389 1.613 . S
N1390 C1393 1.350 . S
N1391 S1389 1.610 . S
N1391 C1392 1.351 . S
C1392 C1386 1.428 . S
C1392 N1391 1.351 . S
C1392 C1393 1.434 . S
C1393 C1384 1.429 . S
C1393 N1390 1.350 . S
C1393 C1392 1.434 . S
C1394 C1395 1.369 . S
C1394 C1396 1.419 . S
C1394 H1398 0.930 . S
C1395 C1394 1.369 . S
C1395 C1404 1.429 . S
C1396 C1394 1.419 . S
C1396 C1397 1.363 . S
C1396 H1399 0.929 . S
C1397 C1396 1.363 . S
C1397 C1403 1.428 . S
H1398 C1394 0.930 . S
H1399 C1396 0.929 . S
S1400 N1401 1.613 . S
S1400 N1402 1.610 . S
N1401 S1400 1.613 . S
N1401 C1404 1.350 . S
N1402 S1400 1.610 . S
N1402 C1403 1.351 . S
C1403 C1397 1.428 . S
C1403 N1402 1.351 . S
C1403 C1404 1.434 . S
C1404 C1395 1.429 . S
C1404 N1401 1.350 . S
C1404 C1403 1.434 . S
C1405 C1406 1.369 . S
C1405 C1407 1.419 . S
C1405 H1409 0.930 . S
C1406 C1405 1.369 . S
C1406 C1415 1.429 . S
C1407 C1405 1.419 . S
C1407 C1408 1.363 . S
C1407 H1410 0.929 . S
C1408 C1407 1.363 . S
C1408 C1414 1.428 . S
H1409 C1405 0.930 . S
H1410 C1407 0.929 . S
S1411 N1412 1.613 . S
S1411 N1413 1.610 . S
N1412 S1411 1.613 . S
N1412 C1415 1.350 . S
N1413 S1411 1.610 . S
N1413 C1414 1.351 . S
C1414 C1408 1.428 . S
C1414 N1413 1.351 . S
C1414 C1415 1.434 . S
C1415 C1406 1.429 . S
C1415 N1412 1.350 . S
C1415 C1414 1.434 . S
C1416 C1417 1.369 . S
C1416 C1418 1.419 . S
C1416 H1420 0.930 . S
C1417 C1416 1.369 . S
C1417 C1426 1.429 . S
C1418 C1416 1.419 . S
C1418 C1419 1.363 . S
C1418 H1421 0.929 . S
C1419 C1418 1.363 . S
C1419 C1425 1.428 . S
H1420 C1416 0.930 . S
H1421 C1418 0.929 . S
S1422 N1423 1.613 . S
S1422 N1424 1.610 . S
N1423 S1422 1.613 . S
N1423 C1426 1.350 . S
N1424 S1422 1.610 . S
N1424 C1425 1.351 . S
C1425 C1419 1.428 . S
C1425 N1424 1.351 . S
C1425 C1426 1.434 . S
C1426 C1417 1.429 . S
C1426 N1423 1.350 . S
C1426 C1425 1.434 . S
C1427 C1428 1.369 . S
C1427 C1429 1.419 . S
C1427 H1431 0.930 . S
C1428 C1427 1.369 . S
C1428 C1437 1.429 . S
C1429 C1427 1.419 . S
C1429 C1430 1.363 . S
C1429 H1432 0.929 . S
C1430 C1429 1.363 . S
C1430 C1436 1.428 . S
H1431 C1427 0.930 . S
H1432 C1429 0.929 . S
S1433 N1434 1.613 . S
S1433 N1435 1.610 . S
N1434 S1433 1.613 . S
N1434 C1437 1.350 . S
N1435 S1433 1.610 . S
N1435 C1436 1.351 . S
C1436 C1430 1.428 . S
C1436 N1435 1.351 . S
C1436 C1437 1.434 . S
C1437 C1428 1.429 . S
C1437 N1434 1.350 . S
C1437 C1436 1.434 . S
C1438 C1439 1.369 . S
C1438 C1440 1.419 . S
C1438 H1442 0.930 . S
C1439 C1438 1.369 . S
C1439 C1448 1.429 . S
C1440 C1438 1.419 . S
C1440 C1441 1.363 . S
C1440 H1443 0.929 . S
C1441 C1440 1.363 . S
C1441 C1447 1.428 . S
H1442 C1438 0.930 . S
H1443 C1440 0.929 . S
S1444 N1445 1.613 . S
S1444 N1446 1.610 . S
N1445 S1444 1.613 . S
N1445 C1448 1.350 . S
N1446 S1444 1.610 . S
N1446 C1447 1.351 . S
C1447 C1441 1.428 . S
C1447 N1446 1.351 . S
C1447 C1448 1.434 . S
C1448 C1439 1.429 . S
C1448 N1445 1.350 . S
C1448 C1447 1.434 . S
C1449 C1450 1.369 . S
C1449 C1451 1.419 . S
C1449 H1453 0.930 . S
C1450 C1449 1.369 . S
C1450 C1459 1.429 . S
C1451 C1449 1.419 . S
C1451 C1452 1.363 . S
C1451 H1454 0.929 . S
C1452 C1451 1.363 . S
C1452 C1458 1.428 . S
H1453 C1449 0.930 . S
H1454 C1451 0.929 . S
S1455 N1456 1.613 . S
S1455 N1457 1.610 . S
N1456 S1455 1.613 . S
N1456 C1459 1.350 . S
N1457 S1455 1.610 . S
N1457 C1458 1.351 . S
C1458 C1452 1.428 . S
C1458 N1457 1.351 . S
C1458 C1459 1.434 . S
C1459 C1450 1.429 . S
C1459 N1456 1.350 . S
C1459 C1458 1.434 . S
C1460 C1461 1.369 . S
C1460 C1462 1.419 . S
C1460 H1464 0.930 . S
C1461 C1460 1.369 . S
C1461 C1470 1.429 . S
C1462 C1460 1.419 . S
C1462 C1463 1.363 . S
C1462 H1465 0.929 . S
C1463 C1462 1.363 . S
C1463 C1469 1.428 . S
H1464 C1460 0.930 . S
H1465 C1462 0.929 . S
S1466 N1467 1.613 . S
S1466 N1468 1.610 . S
N1467 S1466 1.613 . S
N1467 C1470 1.350 . S
N1468 S1466 1.610 . S
N1468 C1469 1.351 . S
C1469 C1463 1.428 . S
C1469 N1468 1.351 . S
C1469 C1470 1.434 . S
C1470 C1461 1.429 . S
C1470 N1467 1.350 . S
C1470 C1469 1.434 . S
C1471 C1472 1.369 . S
C1471 C1473 1.419 . S
C1471 H1475 0.930 . S
C1472 C1471 1.369 . S
C1472 C1481 1.429 . S
C1473 C1471 1.419 . S
C1473 C1474 1.363 . S
C1473 H1476 0.929 . S
C1474 C1473 1.363 . S
C1474 C1480 1.428 . S
H1475 C1471 0.930 . S
H1476 C1473 0.929 . S
S1477 N1478 1.613 . S
S1477 N1479 1.610 . S
N1478 S1477 1.613 . S
N1478 C1481 1.350 . S
N1479 S1477 1.610 . S
N1479 C1480 1.351 . S
C1480 C1474 1.428 . S
C1480 N1479 1.351 . S
C1480 C1481 1.434 . S
C1481 C1472 1.429 . S
C1481 N1478 1.350 . S
C1481 C1480 1.434 . S
C1482 C1483 1.369 . S
C1482 C1484 1.419 . S
C1482 H1486 0.930 . S
C1483 C1482 1.369 . S
C1483 C1492 1.429 . S
C1484 C1482 1.419 . S
C1484 C1485 1.363 . S
C1484 H1487 0.929 . S
C1485 C1484 1.363 . S
C1485 C1491 1.428 . S
H1486 C1482 0.930 . S
H1487 C1484 0.929 . S
S1488 N1489 1.613 . S
S1488 N1490 1.610 . S
N1489 S1488 1.613 . S
N1489 C1492 1.350 . S
N1490 S1488 1.610 . S
N1490 C1491 1.351 . S
C1491 C1485 1.428 . S
C1491 N1490 1.351 . S
C1491 C1492 1.434 . S
C1492 C1483 1.429 . S
C1492 N1489 1.350 . S
C1492 C1491 1.434 . S
C1493 C1494 1.369 . S
C1493 C1495 1.419 . S
C1493 H1497 0.930 . S
C1494 C1493 1.369 . S
C1494 C1503 1.429 . S
C1495 C1493 1.419 . S
C1495 C1496 1.363 . S
C1495 H1498 0.929 . S
C1496 C1495 1.363 . S
C1496 C1502 1.428 . S
H1497 C1493 0.930 . S
H1498 C1495 0.929 . S
S1499 N1500 1.613 . S
S1499 N1501 1.610 . S
N1500 S1499 1.613 . S
N1500 C1503 1.350 . S
N1501 S1499 1.610 . S
N1501 C1502 1.351 . S
C1502 C1496 1.428 . S
C1502 N1501 1.351 . S
C1502 C1503 1.434 . S
C1503 C1494 1.429 . S
C1503 N1500 1.350 . S
C1503 C1502 1.434 . S
C1504 C1505 1.369 . S
C1504 C1506 1.419 . S
C1504 H1508 0.930 . S
C1505 C1504 1.369 . S
C1505 C1514 1.429 . S
C1506 C1504 1.419 . S
C1506 C1507 1.363 . S
C1506 H1509 0.929 . S
C1507 C1506 1.363 . S
C1507 C1513 1.428 . S
H1508 C1504 0.930 . S
H1509 C1506 0.929 . S
S1510 N1511 1.613 . S
S1510 N1512 1.610 . S
N1511 S1510 1.613 . S
N1511 C1514 1.350 . S
N1512 S1510 1.610 . S
N1512 C1513 1.351 . S
C1513 C1507 1.428 . S
C1513 N1512 1.351 . S
C1513 C1514 1.434 . S
C1514 C1505 1.429 . S
C1514 N1511 1.350 . S
C1514 C1513 1.434 . S
C1515 C1516 1.369 . S
C1515 C1517 1.419 . S
C1515 H1519 0.930 . S
C1516 C1515 1.369 . S
C1516 C1525 1.429 . S
C1517 C1515 1.419 . S
C1517 C1518 1.363 . S
C1517 H1520 0.929 . S
C1518 C1517 1.363 . S
C1518 C1524 1.428 . S
H1519 C1515 0.930 . S
H1520 C1517 0.929 . S
S1521 N1522 1.613 . S
S1521 N1523 1.610 . S
N1522 S1521 1.613 . S
N1522 C1525 1.350 . S
N1523 S1521 1.610 . S
N1523 C1524 1.351 . S
C1524 C1518 1.428 . S
C1524 N1523 1.351 . S
C1524 C1525 1.434 . S
C1525 C1516 1.429 . S
C1525 N1522 1.350 . S
C1525 C1524 1.434 . S
C1526 C1527 1.369 . S
C1526 C1528 1.419 . S
C1526 H1530 0.930 . S
C1527 C1526 1.369 . S
C1527 C1536 1.429 . S
C1528 C1526 1.419 . S
C1528 C1529 1.363 . S
C1528 H1531 0.929 . S
C1529 C1528 1.363 . S
C1529 C1535 1.428 . S
H1530 C1526 0.930 . S
H1531 C1528 0.929 . S
S1532 N1533 1.613 . S
S1532 N1534 1.610 . S
N1533 S1532 1.613 . S
N1533 C1536 1.350 . S
N1534 S1532 1.610 . S
N1534 C1535 1.351 . S
C1535 C1529 1.428 . S
C1535 N1534 1.351 . S
C1535 C1536 1.434 . S
C1536 C1527 1.429 . S
C1536 N1533 1.350 . S
C1536 C1535 1.434 . S
C1537 C1538 1.369 . S
C1537 C1539 1.419 . S
C1537 H1541 0.930 . S
C1538 C1537 1.369 . S
C1538 C1547 1.429 . S
C1539 C1537 1.419 . S
C1539 C1540 1.363 . S
C1539 H1542 0.929 . S
C1540 C1539 1.363 . S
C1540 C1546 1.428 . S
H1541 C1537 0.930 . S
H1542 C1539 0.929 . S
S1543 N1544 1.613 . S
S1543 N1545 1.610 . S
N1544 S1543 1.613 . S
N1544 C1547 1.350 . S
N1545 S1543 1.610 . S
N1545 C1546 1.351 . S
C1546 C1540 1.428 . S
C1546 N1545 1.351 . S
C1546 C1547 1.434 . S
C1547 C1538 1.429 . S
C1547 N1544 1.350 . S
C1547 C1546 1.434 . S
C955 C151 1.207 . S
C957 C265 1.186 . S
C966 C159 1.668 . S
C968 C349 1.739 . S
C977 C137 1.329 . S
C979 C429 1.452 . S
C988 C126 1.288 . S
C990 C345 1.436 . S
C1001 C433 1.699 . S
C999 C104 1.636 . S
C1010 C118 1.171 . S
C1012 C261 1.172 . S
C1023 C254 1.383 . S
C1021 C129 1.437 . S
C1034 C338 1.550 . S
C1032 C107 1.618 . S
C1043 C115 1.257 . S
C1045 C440 1.449 . S
C1054 C148 1.258 . S
C1056 C356 1.429 . S
C1065 C162 1.578 . S
C1067 C422 1.502 . S
C1078 C272 1.378 . S
C1076 C140 1.409 . S
C1089 C517 1.184 . S
C1087 C19 1.207 1_455 S
C1098 C27 1.657 . S
C1100 C601 1.738 . S
C1109 C5 1.328 . S
C1111 C681 1.452 . S
C1120 C192 1.287 . S
C1122 C597 1.435 . S
C1131 C170 1.626 . S
C1133 C685 1.693 . S
C1142 C184 1.166 . S
C1144 C513 1.177 . S
C1153 C195 1.436 . S
C1155 C506 1.384 . S
C1164 C173 1.616 . S
C1166 C590 1.544 . S
C1177 C692 1.450 . S
C1175 C181 1.253 . S
C1186 C16 1.250 1_565 S
C1188 C608 1.431 . S
C1199 C674 1.502 . S
C1197 C30 1.577 1_455 S
C1208 C8 1.409 . S
C1210 C524 1.376 . S
C1221 C769 1.181 . S
C1219 C85 1.205 . S
C1230 C93 1.667 . S
C1232 C853 1.741 . S
C1243 C933 1.457 . S
C1241 C71 1.334 . S
C1254 C849 1.437 . S
C1252 C60 1.296 1_545 S
C1265 C937 1.698 . S
C1263 C38 1.630 . S
C1274 C52 1.166 . S
C1276 C765 1.177 . S
C1285 C63 1.434 1_655 S
C1287 C758 1.376 . S
C1296 C41 1.616 . S
C1298 C842 1.544 . S
C1309 C944 1.449 . S
C1307 C49 1.251 1_545 S
C1318 C82 1.249 . S
C1320 C860 1.430 . S
C1329 C96 1.578 . S
C1331 C926 1.504 . S
C1340 C74 1.411 . S
C1342 C776 1.382 . S
C1351 C172 1.577 . S
C1353 C268 1.472 . S
C1364 C352 1.254 . S
C1362 C183 1.340 . S
C1373 C194 1.470 . S
C1375 C424 1.330 . S
C1384 C73 1.504 . S
C1386 C340 1.343 . S
C1395 C84 1.318 . S
C1397 C436 1.238 . S
C1408 C256 1.448 . S
C1406 C95 1.553 . S
C1417 C40 1.575 . S
C1419 C520 1.466 . S
C1428 C51 1.335 . S
C1430 C604 1.248 . S
C1439 C62 1.477 . S
C1441 C676 1.340 . S
C1450 C139 1.506 . S
C1452 C592 1.350 . S
C1463 C688 1.237 . S
C1461 C150 1.323 . S
C1472 C161 1.556 . S
C1474 C508 1.448 . S
C1483 C106 1.570 . S
C1485 C772 1.465 . S
C1494 C117 1.340 . S
C1496 C856 1.256 . S
C1507 C928 1.336 . S
C1505 C128 1.476 . S
C1516 C7 1.505 . S
C1518 C844 1.346 . S
C1527 C18 1.325 . S
C1529 C940 1.244 . S
C1538 C29 1.555 . S
C1540 C760 1.453 . S
