# Generated by pormake.
# Topology gar, (4,6)-cn, num edge types: 1
# Building blocks:
#     Node 0, Type 0, BuildingBlock: TATPOV_clean_sbu_0, # of connection points: 4
#     Node 1, Type 0, BuildingBlock: TATPOV_clean_sbu_0, # of connection points: 4
#     Node 2, Type 0, BuildingBlock: TATPOV_clean_sbu_0, # of connection points: 4
#     Node 3, Type 0, BuildingBlock: TATPOV_clean_sbu_0, # of connection points: 4
#     Node 4, Type 0, BuildingBlock: TATPOV_clean_sbu_0, # of connection points: 4
#     Node 5, Type 0, BuildingBlock: TATPOV_clean_sbu_0, # of connection points: 4
#     Node 6, Type 0, BuildingBlock: TATPOV_clean_sbu_0, # of connection points: 4
#     Node 7, Type 0, BuildingBlock: TATPOV_clean_sbu_0, # of connection points: 4
#     Node 8, Type 0, BuildingBlock: TATPOV_clean_sbu_0, # of connection points: 4
#     Node 9, Type 0, BuildingBlock: TATPOV_clean_sbu_0, # of connection points: 4
#     Node 10, Type 0, BuildingBlock: TATPOV_clean_sbu_0, # of connection points: 4
#     Node 11, Type 0, BuildingBlock: TATPOV_clean_sbu_0, # of connection points: 4
#     Node 12, Type 0, BuildingBlock: TATPOV_clean_sbu_0, # of connection points: 4
#     Node 13, Type 0, BuildingBlock: TATPOV_clean_sbu_0, # of connection points: 4
#     Node 14, Type 0, BuildingBlock: TATPOV_clean_sbu_0, # of connection points: 4
#     Node 15, Type 0, BuildingBlock: TATPOV_clean_sbu_0, # of connection points: 4
#     Node 16, Type 0, BuildingBlock: TATPOV_clean_sbu_0, # of connection points: 4
#     Node 17, Type 0, BuildingBlock: TATPOV_clean_sbu_0, # of connection points: 4
#     Node 18, Type 0, BuildingBlock: TATPOV_clean_sbu_0, # of connection points: 4
#     Node 19, Type 0, BuildingBlock: TATPOV_clean_sbu_0, # of connection points: 4
#     Node 20, Type 0, BuildingBlock: TATPOV_clean_sbu_0, # of connection points: 4
#     Node 21, Type 0, BuildingBlock: TATPOV_clean_sbu_0, # of connection points: 4
#     Node 22, Type 0, BuildingBlock: TATPOV_clean_sbu_0, # of connection points: 4
#     Node 23, Type 0, BuildingBlock: TATPOV_clean_sbu_0, # of connection points: 4
#     Node 24, Type 1, BuildingBlock: CUWYAW_clean_sbu_0, # of connection points: 6
#     Node 25, Type 1, BuildingBlock: CUWYAW_clean_sbu_0, # of connection points: 6
#     Node 26, Type 1, BuildingBlock: CUWYAW_clean_sbu_0, # of connection points: 6
#     Node 27, Type 1, BuildingBlock: CUWYAW_clean_sbu_0, # of connection points: 6
#     Node 28, Type 1, BuildingBlock: CUWYAW_clean_sbu_0, # of connection points: 6
#     Node 29, Type 1, BuildingBlock: CUWYAW_clean_sbu_0, # of connection points: 6
#     Node 30, Type 1, BuildingBlock: CUWYAW_clean_sbu_0, # of connection points: 6
#     Node 31, Type 1, BuildingBlock: CUWYAW_clean_sbu_0, # of connection points: 6
#     Node 32, Type 1, BuildingBlock: CUWYAW_clean_sbu_0, # of connection points: 6
#     Node 33, Type 1, BuildingBlock: CUWYAW_clean_sbu_0, # of connection points: 6
#     Node 34, Type 1, BuildingBlock: CUWYAW_clean_sbu_0, # of connection points: 6
#     Node 35, Type 1, BuildingBlock: CUWYAW_clean_sbu_0, # of connection points: 6
#     Node 36, Type 1, BuildingBlock: CUWYAW_clean_sbu_0, # of connection points: 6
#     Node 37, Type 1, BuildingBlock: CUWYAW_clean_sbu_0, # of connection points: 6
#     Node 38, Type 1, BuildingBlock: CUWYAW_clean_sbu_0, # of connection points: 6
#     Node 39, Type 1, BuildingBlock: CUWYAW_clean_sbu_0, # of connection points: 6
#     Edge 40, Type (0, 1), BuildingBlock: CIFDUS_clean_linker_0, # of connection points: 2
#     Edge 41, Type (0, 1), BuildingBlock: CIFDUS_clean_linker_0, # of connection points: 2
#     Edge 42, Type (0, 1), BuildingBlock: CIFDUS_clean_linker_0, # of connection points: 2
#     Edge 43, Type (0, 1), BuildingBlock: CIFDUS_clean_linker_0, # of connection points: 2
#     Edge 44, Type (0, 1), BuildingBlock: CIFDUS_clean_linker_0, # of connection points: 2
#     Edge 45, Type (0, 1), BuildingBlock: CIFDUS_clean_linker_0, # of connection points: 2
#     Edge 46, Type (0, 1), BuildingBlock: CIFDUS_clean_linker_0, # of connection points: 2
#     Edge 47, Type (0, 1), BuildingBlock: CIFDUS_clean_linker_0, # of connection points: 2
#     Edge 48, Type (0, 1), BuildingBlock: CIFDUS_clean_linker_0, # of connection points: 2
#     Edge 49, Type (0, 1), BuildingBlock: CIFDUS_clean_linker_0, # of connection points: 2
#     Edge 50, Type (0, 1), BuildingBlock: CIFDUS_clean_linker_0, # of connection points: 2
#     Edge 51, Type (0, 1), BuildingBlock: CIFDUS_clean_linker_0, # of connection points: 2
#     Edge 52, Type (0, 1), BuildingBlock: CIFDUS_clean_linker_0, # of connection points: 2
#     Edge 53, Type (0, 1), BuildingBlock: CIFDUS_clean_linker_0, # of connection points: 2
#     Edge 54, Type (0, 1), BuildingBlock: CIFDUS_clean_linker_0, # of connection points: 2
#     Edge 55, Type (0, 1), BuildingBlock: CIFDUS_clean_linker_0, # of connection points: 2
#     Edge 56, Type (0, 1), BuildingBlock: CIFDUS_clean_linker_0, # of connection points: 2
#     Edge 57, Type (0, 1), BuildingBlock: CIFDUS_clean_linker_0, # of connection points: 2
#     Edge 58, Type (0, 1), BuildingBlock: CIFDUS_clean_linker_0, # of connection points: 2
#     Edge 59, Type (0, 1), BuildingBlock: CIFDUS_clean_linker_0, # of connection points: 2
#     Edge 60, Type (0, 1), BuildingBlock: CIFDUS_clean_linker_0, # of connection points: 2
#     Edge 61, Type (0, 1), BuildingBlock: CIFDUS_clean_linker_0, # of connection points: 2
#     Edge 62, Type (0, 1), BuildingBlock: CIFDUS_clean_linker_0, # of connection points: 2
#     Edge 63, Type (0, 1), BuildingBlock: CIFDUS_clean_linker_0, # of connection points: 2
#     Edge 64, Type (0, 1), BuildingBlock: CIFDUS_clean_linker_0, # of connection points: 2
#     Edge 65, Type (0, 1), BuildingBlock: CIFDUS_clean_linker_0, # of connection points: 2
#     Edge 66, Type (0, 1), BuildingBlock: CIFDUS_clean_linker_0, # of connection points: 2
#     Edge 67, Type (0, 1), BuildingBlock: CIFDUS_clean_linker_0, # of connection points: 2
#     Edge 68, Type (0, 1), BuildingBlock: CIFDUS_clean_linker_0, # of connection points: 2
#     Edge 69, Type (0, 1), BuildingBlock: CIFDUS_clean_linker_0, # of connection points: 2
#     Edge 70, Type (0, 1), BuildingBlock: CIFDUS_clean_linker_0, # of connection points: 2
#     Edge 71, Type (0, 1), BuildingBlock: CIFDUS_clean_linker_0, # of connection points: 2
#     Edge 72, Type (0, 1), BuildingBlock: CIFDUS_clean_linker_0, # of connection points: 2
#     Edge 73, Type (0, 1), BuildingBlock: CIFDUS_clean_linker_0, # of connection points: 2
#     Edge 74, Type (0, 1), BuildingBlock: CIFDUS_clean_linker_0, # of connection points: 2
#     Edge 75, Type (0, 1), BuildingBlock: CIFDUS_clean_linker_0, # of connection points: 2
#     Edge 76, Type (0, 1), BuildingBlock: CIFDUS_clean_linker_0, # of connection points: 2
#     Edge 77, Type (0, 1), BuildingBlock: CIFDUS_clean_linker_0, # of connection points: 2
#     Edge 78, Type (0, 1), BuildingBlock: CIFDUS_clean_linker_0, # of connection points: 2
#     Edge 79, Type (0, 1), BuildingBlock: CIFDUS_clean_linker_0, # of connection points: 2
#     Edge 80, Type (0, 1), BuildingBlock: CIFDUS_clean_linker_0, # of connection points: 2
#     Edge 81, Type (0, 1), BuildingBlock: CIFDUS_clean_linker_0, # of connection points: 2
#     Edge 82, Type (0, 1), BuildingBlock: CIFDUS_clean_linker_0, # of connection points: 2
#     Edge 83, Type (0, 1), BuildingBlock: CIFDUS_clean_linker_0, # of connection points: 2
#     Edge 84, Type (0, 1), BuildingBlock: CIFDUS_clean_linker_0, # of connection points: 2
#     Edge 85, Type (0, 1), BuildingBlock: CIFDUS_clean_linker_0, # of connection points: 2
#     Edge 86, Type (0, 1), BuildingBlock: CIFDUS_clean_linker_0, # of connection points: 2
#     Edge 87, Type (0, 1), BuildingBlock: CIFDUS_clean_linker_0, # of connection points: 2
#     Edge 88, Type (0, 1), BuildingBlock: CIFDUS_clean_linker_0, # of connection points: 2
#     Edge 89, Type (0, 1), BuildingBlock: CIFDUS_clean_linker_0, # of connection points: 2
#     Edge 90, Type (0, 1), BuildingBlock: CIFDUS_clean_linker_0, # of connection points: 2
#     Edge 91, Type (0, 1), BuildingBlock: CIFDUS_clean_linker_0, # of connection points: 2
#     Edge 92, Type (0, 1), BuildingBlock: CIFDUS_clean_linker_0, # of connection points: 2
#     Edge 93, Type (0, 1), BuildingBlock: CIFDUS_clean_linker_0, # of connection points: 2
#     Edge 94, Type (0, 1), BuildingBlock: CIFDUS_clean_linker_0, # of connection points: 2
#     Edge 95, Type (0, 1), BuildingBlock: CIFDUS_clean_linker_0, # of connection points: 2
#     Edge 96, Type (0, 1), BuildingBlock: CIFDUS_clean_linker_0, # of connection points: 2
#     Edge 97, Type (0, 1), BuildingBlock: CIFDUS_clean_linker_0, # of connection points: 2
#     Edge 98, Type (0, 1), BuildingBlock: CIFDUS_clean_linker_0, # of connection points: 2
#     Edge 99, Type (0, 1), BuildingBlock: CIFDUS_clean_linker_0, # of connection points: 2
#     Edge 100, Type (0, 1), BuildingBlock: CIFDUS_clean_linker_0, # of connection points: 2
#     Edge 101, Type (0, 1), BuildingBlock: CIFDUS_clean_linker_0, # of connection points: 2
#     Edge 102, Type (0, 1), BuildingBlock: CIFDUS_clean_linker_0, # of connection points: 2
#     Edge 103, Type (0, 1), BuildingBlock: CIFDUS_clean_linker_0, # of connection points: 2
#     Edge 104, Type (0, 1), BuildingBlock: CIFDUS_clean_linker_0, # of connection points: 2
#     Edge 105, Type (0, 1), BuildingBlock: CIFDUS_clean_linker_0, # of connection points: 2
#     Edge 106, Type (0, 1), BuildingBlock: CIFDUS_clean_linker_0, # of connection points: 2
#     Edge 107, Type (0, 1), BuildingBlock: CIFDUS_clean_linker_0, # of connection points: 2
#     Edge 108, Type (0, 1), BuildingBlock: CIFDUS_clean_linker_0, # of connection points: 2
#     Edge 109, Type (0, 1), BuildingBlock: CIFDUS_clean_linker_0, # of connection points: 2
#     Edge 110, Type (0, 1), BuildingBlock: CIFDUS_clean_linker_0, # of connection points: 2
#     Edge 111, Type (0, 1), BuildingBlock: CIFDUS_clean_linker_0, # of connection points: 2
#     Edge 112, Type (0, 1), BuildingBlock: CIFDUS_clean_linker_0, # of connection points: 2
#     Edge 113, Type (0, 1), BuildingBlock: CIFDUS_clean_linker_0, # of connection points: 2
#     Edge 114, Type (0, 1), BuildingBlock: CIFDUS_clean_linker_0, # of connection points: 2
#     Edge 115, Type (0, 1), BuildingBlock: CIFDUS_clean_linker_0, # of connection points: 2
#     Edge 116, Type (0, 1), BuildingBlock: CIFDUS_clean_linker_0, # of connection points: 2
#     Edge 117, Type (0, 1), BuildingBlock: CIFDUS_clean_linker_0, # of connection points: 2
#     Edge 118, Type (0, 1), BuildingBlock: CIFDUS_clean_linker_0, # of connection points: 2
#     Edge 119, Type (0, 1), BuildingBlock: CIFDUS_clean_linker_0, # of connection points: 2
#     Edge 120, Type (0, 1), BuildingBlock: CIFDUS_clean_linker_0, # of connection points: 2
#     Edge 121, Type (0, 1), BuildingBlock: CIFDUS_clean_linker_0, # of connection points: 2
#     Edge 122, Type (0, 1), BuildingBlock: CIFDUS_clean_linker_0, # of connection points: 2
#     Edge 123, Type (0, 1), BuildingBlock: CIFDUS_clean_linker_0, # of connection points: 2
#     Edge 124, Type (0, 1), BuildingBlock: CIFDUS_clean_linker_0, # of connection points: 2
#     Edge 125, Type (0, 1), BuildingBlock: CIFDUS_clean_linker_0, # of connection points: 2
#     Edge 126, Type (0, 1), BuildingBlock: CIFDUS_clean_linker_0, # of connection points: 2
#     Edge 127, Type (0, 1), BuildingBlock: CIFDUS_clean_linker_0, # of connection points: 2
#     Edge 128, Type (0, 1), BuildingBlock: CIFDUS_clean_linker_0, # of connection points: 2
#     Edge 129, Type (0, 1), BuildingBlock: CIFDUS_clean_linker_0, # of connection points: 2
#     Edge 130, Type (0, 1), BuildingBlock: CIFDUS_clean_linker_0, # of connection points: 2
#     Edge 131, Type (0, 1), BuildingBlock: CIFDUS_clean_linker_0, # of connection points: 2
#     Edge 132, Type (0, 1), BuildingBlock: CIFDUS_clean_linker_0, # of connection points: 2
#     Edge 133, Type (0, 1), BuildingBlock: CIFDUS_clean_linker_0, # of connection points: 2
#     Edge 134, Type (0, 1), BuildingBlock: CIFDUS_clean_linker_0, # of connection points: 2
#     Edge 135, Type (0, 1), BuildingBlock: CIFDUS_clean_linker_0, # of connection points: 2
# Relax obj value: 0.248
# Max RMSD: 0.329
# Mean RMSD: 0.168
data_MOF--net-gar--node1-TATPOV_clean_sbu_0--node2-CUWYAW_clean_sbu_0--edge1-CIFDUS_clean_linker_0
_symmetry_space_group_name_H-M    P1
_symmetry_Int_Tables_number       1
_symmetry_cell_setting            triclinic
loop_
_symmetry_equiv_pos_as_xyz
'x, y, z'
_cell_length_a     57.584036
_cell_length_b     48.125597
_cell_length_c     48.436077
_cell_angle_alpha  98.494904
_cell_angle_beta   97.227124
_cell_angle_gamma 100.73982
loop_
_atom_site_label
_atom_site_type_symbol
_atom_site_fract_x
_atom_site_fract_y
_atom_site_fract_z
_atom_type_partial_charge
Zn0 Zn 0.10708 0.34487 0.52211 0.0
Zn1 Zn 0.10923 0.35981 0.472 0.0
O2 O 0.12444 0.39796 0.49864 0.0
O3 O 0.12071 0.38536 0.53997 0.0
O4 O 0.1124 0.36598 0.43245 0.0
O5 O 0.12928 0.31826 0.51653 0.0
O6 O 0.12599 0.32552 0.47265 0.0
C7 C 0.12683 0.4045 0.52547 0.0
C8 C 0.06075 0.33848 0.48904 0.0
O9 O 0.07326 0.35006 0.47224 0.0
O10 O 0.07086 0.33189 0.51123 0.0
C11 C 0.12828 0.38512 0.42622 0.0
O12 O 0.14071 0.40572 0.44643 0.0
C13 C 0.13381 0.31255 0.49173 0.0
Zn14 Zn 0.03061 0.67922 0.72448 0.0
Zn15 Zn 0.02391 0.72238 0.69544 0.0
O16 O 1.01839 0.7364 0.73499 0.0
O17 O 0.02233 0.70209 0.75966 0.0
O18 O 1.01944 0.75449 0.67549 0.0
O19 O 0.06494 0.68529 0.71465 0.0
O20 O 0.05762 0.71946 0.69138 0.0
C21 C 1.01825 0.72682 0.75805 0.0
C22 C 0.9943 0.66262 0.67369 0.0
O23 O 1.00023 0.68879 0.67132 0.0
O24 O 1.00386 0.65367 0.69475 0.0
C25 C 0.02251 0.752 0.64984 0.0
O26 O 0.02804 0.72836 0.63765 0.0
C27 C 0.07161 0.70376 0.6995 0.0
Zn28 Zn 0.53334 0.88942 0.99331 0.0
Zn29 Zn 0.56016 0.87352 0.95565 0.0
O30 O 0.58536 0.90494 0.98317 0.0
O31 O 0.56358 0.91228 0.01677 0.0
O32 O 0.5778 0.85665 0.92652 0.0
O33 O 0.52254 0.84918 0.99997 0.0
O34 O 0.54839 0.83801 0.9726 0.0
C35 C 0.58352 0.91645 1.008 0.0
C36 C 0.51659 0.89906 0.93856 0.0
O37 O 0.53304 0.88604 0.93222 0.0
O38 O 0.51415 0.90546 0.96419 0.0
C39 C 0.596 0.86946 0.91771 0.0
O40 O 0.60477 0.89683 0.9277 0.0
C41 C 0.53334 0.83092 0.98879 0.0
Zn42 Zn 0.53277 0.18122 0.23511 0.0
Zn43 Zn 0.53772 0.2268 0.20713 0.0
O44 O 0.52447 0.24189 0.24186 0.0
O45 O 0.52153 0.20656 0.26629 0.0
O46 O 0.54569 0.26006 0.18766 0.0
O47 O 0.56831 0.1798 0.2344 0.0
O48 O 0.57017 0.21746 0.21348 0.0
C49 C 0.51912 0.23173 0.26359 0.0
C50 C 0.50453 0.1712 0.17823 0.0
O51 O 0.5146 0.19686 0.17756 0.0
O52 O 0.50866 0.16052 0.20029 0.0
C53 C 0.55159 0.25481 0.16332 0.0
O54 O 0.55054 0.22814 0.15148 0.0
C55 C 0.58021 0.19891 0.22331 0.0
Zn56 Zn 0.13593 0.81609 0.15232 0.0
Zn57 Zn 0.10226 0.81965 0.18643 0.0
O58 O 0.10351 0.85454 0.1659 0.0
O59 O 0.13358 0.85447 0.14187 0.0
O60 O 0.07571 0.82299 0.21039 0.0
O61 O 0.1151 0.77966 0.1293 0.0
O62 O 0.08971 0.78098 0.15957 0.0
C63 C 0.11689 0.86593 0.14973 0.0
C64 C 0.15324 0.8152 0.21047 0.0
O65 O 0.13254 0.81918 0.21459 0.0
O66 O 0.15876 0.81263 0.1859 0.0
C67 C 0.06048 0.80097 0.21286 0.0
O68 O 0.0627 0.77543 0.20104 0.0
C69 C 0.09627 0.76828 0.13783 0.0
Zn70 Zn 0.47985 0.76237 0.47735 0.0
Zn71 Zn 0.51121 0.76204 0.44219 0.0
O72 O 0.52279 0.80123 0.46935 0.0
O73 O 0.49795 0.79991 0.50031 0.0
O74 O 0.53838 0.76162 0.41853 0.0
O75 O 0.48353 0.72508 0.48832 0.0
O76 O 0.51151 0.72568 0.46114 0.0
C77 C 0.51585 0.81299 0.49134 0.0
C78 C 0.45851 0.76192 0.42038 0.0
O79 O 0.47954 0.7611 0.4147 0.0
O80 O 0.45459 0.76265 0.44556 0.0
C81 C 0.5466 0.78354 0.40811 0.0
O82 O 0.53619 0.80565 0.41108 0.0
C83 C 0.49938 0.7137 0.47816 0.0
Zn84 Zn 0.62802 0.32036 0.66019 0.0
Zn85 Zn 0.59531 0.31914 0.69596 0.0
O86 O 0.59052 0.35148 0.67342 0.0
O87 O 0.6165 0.35207 0.64371 0.0
O88 O 0.56949 0.31891 0.72102 0.0
O89 O 0.61284 0.27889 0.64378 0.0
O90 O 0.58585 0.27882 0.67221 0.0
C91 C 0.59971 0.3618 0.65353 0.0
C92 C 0.64935 0.3296 0.71859 0.0
O93 O 0.62763 0.32525 0.7229 0.0
O94 O 0.65418 0.32978 0.69382 0.0
C95 C 0.54874 0.32107 0.71008 0.0
O96 O 0.54504 0.32371 0.68336 0.0
C97 C 0.5947 0.26591 0.65252 0.0
Zn98 Zn 0.9711 0.25597 0.98792 0.0
Zn99 Zn 1.00273 0.26694 0.95236 0.0
O100 O 1.00895 0.30436 0.98128 0.0
O101 O 0.98367 0.29553 1.01104 0.0
O102 O 0.02771 0.27513 0.92676 0.0
O103 O 0.98459 0.22212 0.99677 0.0
O104 O 1.01098 0.23171 0.96849 0.0
C105 C 0.99996 0.3126 1.00304 0.0
C106 C 0.94841 0.25566 0.9314 0.0
O107 O 0.96992 0.26099 0.92643 0.0
O108 O 0.94435 0.2518 0.9558 0.0
C109 C 0.04985 0.28149 0.93726 0.0
O110 O 0.05595 0.28266 0.96454 0.0
C111 C 1.00227 0.21642 0.98562 0.0
Zn112 Zn 0.45837 0.02724 0.32035 0.0
Zn113 Zn 0.43607 0.07017 0.32375 0.0
O114 O 0.45946 0.07705 0.36523 0.0
O115 O 0.47556 0.03873 0.36081 0.0
O116 O 0.41402 0.10399 0.32397 0.0
O117 O 0.47491 0.03557 0.28737 0.0
O118 O 0.45607 0.07132 0.28643 0.0
C119 C 0.47286 0.06129 0.37604 0.0
C120 C 0.40976 1.00316 0.317 0.0
O121 O 0.40943 0.03022 0.32172 0.0
O122 O 0.42917 0.99564 0.31321 0.0
C123 C 0.41859 0.13079 0.32117 0.0
O124 O 0.44041 0.14201 0.31768 0.0
C125 C 0.47027 0.05615 0.27565 0.0
Zn126 Zn 0.23889 0.19882 0.53549 0.0
Zn127 Zn 0.272 0.16687 0.53647 0.0
O128 O 0.27622 0.1887 0.50247 0.0
O129 O 0.25075 0.21761 0.50429 0.0
O130 O 0.29929 0.14507 0.53723 0.0
O131 O 0.25164 0.21732 0.57589 0.0
O132 O 0.28015 0.1926 0.57593 0.0
C133 C 0.26721 0.2085 0.4931 0.0
C134 C 0.21831 0.13861 0.52927 0.0
O135 O 0.24023 0.13641 0.53328 0.0
O136 O 0.21311 0.16279 0.5275 0.0
C137 C 0.32042 0.16034 0.54098 0.0
O138 O 0.323 0.18835 0.54334 0.0
C139 C 0.27004 0.21104 0.5886 0.0
Zn140 Zn 0.15178 0.04947 0.82376 0.0
Zn141 Zn 0.17683 1.00944 0.81794 0.0
O142 O 0.1566 1.00481 0.85537 0.0
O143 O 0.13896 0.04177 0.85966 0.0
O144 O 0.19666 0.97317 0.81116 0.0
O145 O 0.13164 0.0369 0.78485 0.0
O146 O 0.15383 1.00496 0.77659 0.0
C147 C 0.14348 0.01976 0.86885 0.0
C148 C 0.2001 0.07758 0.82433 0.0
O149 O 0.20295 0.05125 0.82243 0.0
O150 O 0.17942 0.08241 0.82591 0.0
C151 C 0.20799 0.95971 0.828 0.0
O152 O 0.20907 0.96792 0.85531 0.0
C153 C 0.13736 1.01788 0.76753 0.0
Zn154 Zn 0.30368 0.85284 0.9883 0.0
Zn155 Zn 0.28425 0.8894 0.98242 0.0
O156 O 0.26591 0.8541 0.95161 0.0
O157 O 0.27558 0.82097 0.97452 0.0
O158 O 0.26665 0.9222 0.9812 0.0
O159 O 0.31454 0.86561 0.02938 0.0
O160 O 0.28245 0.88351 0.02355 0.0
C161 C 0.26342 0.82758 0.95387 0.0
C162 C 0.33403 0.88928 0.9678 0.0
O163 O 0.31982 0.90439 0.97747 0.0
O164 O 0.32755 0.86225 0.96326 0.0
C165 C 0.2753 0.94387 1.00066 0.0
O166 O 0.2957 0.94438 0.01652 0.0
C167 C 0.29875 0.87671 0.0399 0.0
Zn168 Zn 0.37409 0.36478 0.09014 0.0
Zn169 Zn 0.34093 0.39618 0.08956 0.0
O170 O 0.33371 0.36981 0.04964 0.0
O171 O 0.36048 0.34266 0.05186 0.0
O172 O 0.31438 0.4197 0.08927 0.0
O173 O 0.3649 0.34879 0.12375 0.0
O174 O 0.33721 0.37487 0.12432 0.0
C175 C 0.34305 0.34981 0.03813 0.0
C176 C 0.39432 0.42434 0.09354 0.0
O177 O 0.37262 0.42693 0.09347 0.0
O178 O 0.39963 0.39991 0.09272 0.0
C179 C 0.29384 0.4114 0.07384 0.0
O180 O 0.28891 0.38633 0.057 0.0
C181 C 0.3479 0.35679 0.13467 0.0
Zn182 Zn 0.84468 0.22853 0.09899 0.0
Zn183 Zn 0.8481 0.1872 0.12064 0.0
O184 O 0.83596 0.17749 0.07739 0.0
O185 O 0.85372 0.21417 0.06144 0.0
O186 O 0.86473 0.15492 0.12778 0.0
O187 O 0.86642 0.26132 0.12374 0.0
O188 O 0.86822 0.2253 0.14632 0.0
C189 C 0.84107 0.18912 0.05645 0.0
C190 C 0.80295 0.19923 0.12511 0.0
O191 O 0.81669 0.18362 0.1344 0.0
O192 O 0.81028 0.21714 0.1095 0.0
C193 C 0.85537 0.12967 0.11449 0.0
O194 O 0.8338 0.1249 0.09977 0.0
C195 C 0.87347 0.25223 0.14575 0.0
Zn196 Zn 0.1462 0.56011 0.33679 0.0
Zn197 Zn 0.16866 0.51812 0.33414 0.0
O198 O 0.14917 0.5179 0.37198 0.0
O199 O 0.12891 0.55215 0.36931 0.0
O200 O 0.18654 0.48063 0.33162 0.0
O201 O 0.13006 0.55087 0.29593 0.0
O202 O 0.14589 0.51245 0.29229 0.0
C203 C 0.13451 0.53272 0.38218 0.0
C204 C 0.19555 0.58417 0.3424 0.0
O205 O 0.1964 0.55726 0.33739 0.0
O206 O 0.17575 0.59106 0.3453 0.0
C207 C 0.20772 0.47865 0.34277 0.0
O208 O 0.22155 0.50187 0.35846 0.0
C209 C 0.13298 0.52835 0.28088 0.0
Zn210 Zn 0.87137 0.86617 0.5965 0.0
Zn211 Zn 0.84695 0.90803 0.59827 0.0
O212 O 0.8343 0.88134 0.55913 0.0
O213 O 0.85401 0.84637 0.5582 0.0
O214 O 0.82365 0.93593 0.60039 0.0
O215 O 0.86088 0.85349 0.63131 0.0
O216 O 0.84193 0.88924 0.63417 0.0
C217 C 0.83871 0.85828 0.5462 0.0
C218 C 0.90139 0.92254 0.59854 0.0
O219 O 0.88181 0.93155 0.59884 0.0
O220 O 0.90125 0.89616 0.59847 0.0
C221 C 0.80865 0.93727 0.57911 0.0
O222 O 0.80983 0.92292 0.55427 0.0
C223 C 0.84802 0.86799 0.64408 0.0
Zn224 Zn 0.95508 1.00817 0.27751 0.0
Zn225 Zn 0.93497 0.05074 0.28777 0.0
O226 O 0.9584 0.05447 0.32858 0.0
O227 O 0.97652 0.01955 0.31546 0.0
O228 O 0.91582 0.08777 0.29047 0.0
O229 O 0.96796 1.01346 0.24134 0.0
O230 O 0.955 0.05361 0.24962 0.0
C231 C 0.97357 0.03879 0.33482 0.0
C232 C 0.90834 0.98335 0.28321 0.0
O233 O 0.90763 1.01046 0.28661 0.0
O234 O 0.92735 0.97607 0.27724 0.0
C235 C 0.91668 0.10698 0.31256 0.0
O236 O 0.93007 0.10462 0.33581 0.0
C237 C 0.96601 0.03727 0.23426 0.0
Zn238 Zn 0.33065 0.71619 0.59782 0.0
Zn239 Zn 0.33966 0.67415 0.62163 0.0
O240 O 0.35063 0.66749 0.5825 0.0
O241 O 0.34574 0.70567 0.56457 0.0
O242 O 0.35219 0.64177 0.63637 0.0
O243 O 0.34883 0.74655 0.62856 0.0
O244 O 0.35531 0.71144 0.65092 0.0
C245 C 0.35278 0.68226 0.56298 0.0
C246 C 0.28807 0.68019 0.60965 0.0
O247 O 0.30281 0.66591 0.61951 0.0
O248 O 0.29558 0.70187 0.59876 0.0
C249 C 0.34477 0.61735 0.62045 0.0
O250 O 0.32621 0.61418 0.60059 0.0
C251 C 0.35721 0.7383 0.65055 0.0
Zn252 Zn 0.45343 0.50451 0.7844 0.0
Zn253 Zn 0.42994 0.54359 0.79438 0.0
O254 O 0.45307 0.54637 0.83597 0.0
O255 O 0.47358 0.51381 0.82332 0.0
O256 O 0.40941 0.57917 0.80084 0.0
O257 O 0.46752 0.51275 0.74958 0.0
O258 O 0.45044 0.54989 0.75664 0.0
C259 C 0.46897 0.53172 0.84275 0.0
C260 C 0.40574 0.47545 0.78511 0.0
O261 O 0.40323 0.50187 0.79021 0.0
O262 O 0.42595 0.47103 0.7803 0.0
C263 C 0.40034 0.59403 0.78355 0.0
O264 O 0.4031 0.58833 0.75694 0.0
C265 C 0.46345 0.53565 0.74203 0.0
Zn266 Zn 0.64851 0.06142 0.84055 0.0
Zn267 Zn 0.67244 0.01989 0.83794 0.0
O268 O 0.65429 0.02066 0.87685 0.0
O269 O 0.63452 0.05562 0.87587 0.0
O270 O 0.69013 0.98247 0.83541 0.0
O271 O 0.62963 0.04872 0.8009 0.0
O272 O 0.64925 1.01351 0.79648 0.0
C273 C 0.64066 0.03621 0.88836 0.0
C274 C 0.69814 0.08538 0.84346 0.0
O275 O 0.69966 0.0587 0.84021 0.0
O276 O 0.67811 0.09205 0.8453 0.0
C277 C 0.71239 0.98098 0.84135 0.0
O278 O 0.72809 1.00512 0.85089 0.0
C279 C 0.63427 0.02739 0.78558 0.0
Zn280 Zn 0.73909 0.70647 0.04027 0.0
Zn281 Zn 0.7722 0.67579 0.04658 0.0
O282 O 0.77818 0.69553 1.01147 0.0
O283 O 0.7519 0.72333 1.00892 0.0
O284 O 0.80051 0.65543 0.05201 0.0
O285 O 0.74807 0.72809 0.07961 0.0
O286 O 0.7763 0.70331 0.0852 0.0
C287 C 0.76918 0.71414 0.99985 0.0
C288 C 0.71872 0.64658 0.03613 0.0
O289 O 0.74061 0.64444 0.04132 0.0
O290 O 0.71375 0.67062 0.03321 0.0
C291 C 0.80562 0.63808 0.03227 0.0
O292 O 0.79166 0.63189 1.0076 0.0
C293 C 0.76519 0.72222 0.09514 0.0
Zn294 Zn 0.95234 0.5219 0.81404 0.0
Zn295 Zn 0.93298 0.56671 0.82054 0.0
O296 O 0.95645 0.56864 0.86141 0.0
O297 O 0.97418 0.53247 0.85159 0.0
O298 O 0.91743 0.60585 0.82473 0.0
O299 O 0.96456 0.52647 0.77746 0.0
O300 O 0.95119 0.56661 0.78191 0.0
C301 C 0.97127 0.55309 0.86942 0.0
C302 C 0.90276 0.50288 0.81499 0.0
O303 O 0.90332 0.53005 0.81707 0.0
O304 O 0.92178 0.49368 0.81314 0.0
C305 C 0.89699 0.60952 0.81294 0.0
O306 O 0.88282 0.58742 0.79591 0.0
C307 C 0.96191 0.54898 0.76797 0.0
Zn308 Zn 0.76202 0.31431 0.51611 0.0
Zn309 Zn 0.7563 0.36874 0.52189 0.0
O310 O 0.75052 0.35425 0.47924 0.0
O311 O 0.74823 0.30763 0.47521 0.0
O312 O 0.74939 0.40852 0.52741 0.0
O313 O 0.73955 0.30479 0.54312 0.0
O314 O 0.73373 0.34894 0.54597 0.0
C315 C 0.74691 0.32947 0.46396 0.0
C316 C 0.80619 0.35764 0.53638 0.0
O317 O 0.79193 0.37496 0.53673 0.0
O318 O 0.7981 0.33089 0.52816 0.0
C319 C 0.74643 0.42391 0.5086 0.0
O320 O 0.74847 0.41424 0.48239 0.0
C321 C 0.7289 0.32406 0.55247 0.0
Zn322 Zn 0.65757 0.55496 0.33339 0.0
Zn323 Zn 0.6821 0.51367 0.32756 0.0
O324 O 0.66146 0.50989 0.36529 0.0
O325 O 0.64423 0.54724 0.36917 0.0
O326 O 0.70227 0.47726 0.32067 0.0
O327 O 0.63793 0.54274 0.29386 0.0
O328 O 0.65914 0.50966 0.28592 0.0
C329 C 0.64844 0.52523 0.37864 0.0
C330 C 0.70646 0.58162 0.33479 0.0
O331 O 0.70853 0.55499 0.33222 0.0
O332 O 0.68605 0.58729 0.33653 0.0
C333 C 0.71853 0.46838 0.33629 0.0
O334 O 0.72557 0.48221 0.36237 0.0
C335 C 0.64319 0.52323 0.27663 0.0
C336 C 0.12366 0.07207 0.07725 0.0
Eu337 Eu 0.07815 0.0497 0.06783 0.0
C338 C 0.14383 0.06188 0.06546 0.0
C339 C 0.15937 0.04925 0.08196 0.0
C340 C 0.17624 0.03591 0.06991 0.0
C341 C 0.17784 0.03472 0.04104 0.0
C342 C 0.16302 0.04841 0.02481 0.0
C343 C 0.14643 0.06214 0.03697 0.0
C344 C 0.04244 0.04676 0.10226 0.0
C345 C 0.06566 0.98193 0.07225 0.0
C346 C 0.98461 0.98445 0.01955 0.0
Eu347 Eu 0.02965 1.00843 0.03346 0.0
C348 C 0.9634 0.99125 0.0312 0.0
C349 C 0.94433 0.99664 0.01319 0.0
C350 C 0.92614 1.008 0.02435 0.0
C351 C 0.92672 1.0143 0.05379 0.0
C352 C 0.94523 1.00754 0.07172 0.0
C353 C 0.96334 0.99609 0.06052 0.0
C354 C 0.06618 1.01127 0.99975 0.0
C355 C 0.03853 0.07801 0.0372 0.0
O356 O 0.10827 0.08058 0.05973 0.0
O357 O 0.11316 0.05637 0.09389 0.0
O358 O 0.06383 0.06297 0.10953 0.0
O359 O 0.04135 0.03462 0.07671 0.0
O360 O 0.08265 1.00454 0.07189 0.0
O361 O 0.04317 0.97969 0.06104 0.0
O362 O 0.9997 0.97412 0.03578 0.0
O363 O 0.99538 1.00407 1.0067 0.0
O364 O 0.0449 0.99514 0.99219 0.0
O365 O 0.06652 0.02337 0.025 0.0
O366 O 0.02307 0.05349 0.03527 0.0
O367 O 0.06168 0.08114 0.04599 0.0
H368 H 0.15793 0.04881 0.10399 0.0
H369 H 0.18737 0.02547 0.08295 0.0
H370 H 0.16409 0.04824 1.00261 0.0
H371 H 0.13523 0.07231 0.02381 0.0
H372 H 0.94407 0.99329 0.99053 0.0
H373 H 0.91228 1.01322 1.00994 0.0
H374 H 0.94604 1.01175 0.09446 0.0
H375 H 0.97772 0.99199 0.07488 0.0
C376 C 0.309 0.81473 0.41815 0.0
Eu377 Eu 0.29977 0.81024 0.36413 0.0
C378 C 0.31108 0.79051 0.43294 0.0
C379 C 0.33232 0.79096 0.45068 0.0
C380 C 0.33698 0.76563 0.4588 0.0
C381 C 0.32088 0.73905 0.44841 0.0
C382 C 0.29925 0.73906 0.43137 0.0
C383 C 0.29415 0.76458 0.42452 0.0
C384 C 0.263 0.81905 0.3291 0.0
C385 C 0.27513 0.74008 0.33906 0.0
C386 C 0.28067 0.77303 0.245 0.0
Eu387 Eu 0.29597 0.78298 0.29868 0.0
C388 C 0.28869 0.78692 0.22222 0.0
C389 C 0.273 0.7836 0.19696 0.0
C390 C 0.27892 0.80052 0.17691 0.0
C391 C 0.30049 0.82114 0.18209 0.0
C392 C 0.3165 0.82379 0.20716 0.0
C393 C 0.31058 0.80678 0.22716 0.0
C394 C 0.33767 0.77896 0.32988 0.0
C395 C 0.32441 0.85108 0.32333 0.0
O396 O 0.32583 0.82067 0.40274 0.0
O397 O 0.28757 0.81459 0.40502 0.0
O398 O 0.27361 0.83749 0.35169 0.0
O399 O 0.27127 0.79637 0.32738 0.0
O400 O 0.28323 0.76191 0.36064 0.0
O401 O 0.27702 0.74298 0.31261 0.0
O402 O 0.27214 0.7897 0.26326 0.0
O403 O 0.29518 0.75861 0.25686 0.0
O404 O 0.33265 0.7695 0.30277 0.0
O405 O 0.32082 0.78991 0.33709 0.0
O406 O 0.31468 0.83015 0.30136 0.0
O407 O 0.32241 0.8481 0.34986 0.0
H408 H 0.3457 0.81069 0.45739 0.0
H409 H 0.35335 0.7671 0.47309 0.0
H410 H 0.28627 0.7194 0.42274 0.0
H411 H 0.27734 0.7637 0.41139 0.0
H412 H 0.25592 0.76857 0.19313 0.0
H413 H 0.26653 0.79762 0.15742 0.0
H414 H 0.33321 0.83952 0.21162 0.0
H415 H 0.32269 0.80978 0.24689 0.0
C416 C 0.4857 0.03714 0.58985 0.0
Eu417 Eu 0.53089 0.03796 0.58787 0.0
C418 C 0.46484 0.04894 0.58028 0.0
C419 C 0.44307 0.03896 0.58921 0.0
C420 C 0.42288 0.04989 0.58124 0.0
C421 C 0.42396 0.07113 0.56408 0.0
C422 C 0.44588 0.08106 0.55502 0.0
C423 C 0.46617 0.07 0.56301 0.0
C424 C 0.5647 0.02965 0.63061 0.0
C425 C 0.56785 0.0987 0.59019 0.0
C426 C 0.6273 0.03896 0.56363 0.0
Eu427 Eu 0.58225 0.039 0.56603 0.0
C428 C 0.64701 0.02364 0.56928 0.0
C429 C 0.64391 0.99388 0.56021 0.0
C430 C 0.66365 0.98067 0.56158 0.0
C431 C 0.68695 0.99687 0.57207 0.0
C432 C 0.68978 0.02636 0.58257 0.0
C433 C 0.67003 0.03958 0.58108 0.0
C434 C 0.54798 0.04892 0.52437 0.0
C435 C 0.54536 0.97818 0.56215 0.0
O436 O 0.49326 0.01993 0.57101 0.0
O437 O 0.50317 0.0544 0.60792 0.0
O438 O 0.54249 0.02992 0.63266 0.0
O439 O 0.56737 0.03335 0.60564 0.0
O440 O 0.54541 0.08538 0.58966 0.0
O441 O 0.58522 0.08516 0.58486 0.0
O442 O 0.62006 0.05288 0.5852 0.0
O443 O 0.60976 0.02649 0.54303 0.0
O444 O 0.57015 0.04896 0.52173 0.0
O445 O 0.54592 0.04407 0.54905 0.0
O446 O 0.56768 0.99149 0.56224 0.0
O447 O 0.52821 0.99169 0.56868 0.0
H448 H 0.44172 0.0228 0.60264 0.0
H449 H 0.40652 0.04206 0.58905 0.0
H450 H 0.44732 0.09722 0.5416 0.0
H451 H 0.48284 0.07792 0.55585 0.0
H452 H 0.62636 0.98097 0.55113 0.0
H453 H 0.66076 0.95782 0.55374 0.0
H454 H 0.70743 0.03952 0.59061 0.0
H455 H 0.67291 0.06258 0.58808 0.0
C456 C 0.36586 0.28401 0.81497 0.0
Eu457 Eu 0.31993 0.27959 0.81344 0.0
C458 C 0.38578 0.29477 0.80033 0.0
C459 C 0.38327 0.29037 0.7707 0.0
C460 C 0.40315 0.29772 0.75733 0.0
C461 C 0.42595 0.30978 0.7733 0.0
C462 C 0.42812 0.3152 0.80297 0.0
C463 C 0.40825 0.30769 0.81631 0.0
C464 C 0.28549 0.23145 0.81629 0.0
C465 C 0.28633 0.27359 0.75306 0.0
C466 C 0.2209 0.2864 0.81148 0.0
Eu467 Eu 0.26687 0.29469 0.81068 0.0
C468 C 0.20184 0.29478 0.82637 0.0
C469 C 0.20704 0.31371 0.85234 0.0
C470 C 0.18887 0.317 0.86857 0.0
C471 C 0.16525 0.30111 0.85928 0.0
C472 C 0.16011 0.28315 0.8326 0.0
C473 C 0.1782 0.2801 0.81636 0.0
C474 C 0.30108 0.34269 0.80711 0.0
C475 C 0.30085 0.30468 0.87148 0.0
O476 O 0.35662 0.30306 0.82975 0.0
O477 O 0.34978 0.26169 0.8012 0.0
O478 O 0.30826 0.23197 0.81798 0.0
O479 O 0.28309 0.25677 0.81396 0.0
O480 O 0.30853 0.27838 0.76674 0.0
O481 O 0.26747 0.2747 0.76593 0.0
O482 O 0.23544 0.2736 0.82543 0.0
O483 O 0.23177 0.30394 0.79657 0.0
O484 O 0.27849 0.34249 0.80789 0.0
O485 O 0.30386 0.31738 0.80897 0.0
O486 O 0.28007 0.30609 0.85725 0.0
O487 O 0.31821 0.29537 0.85956 0.0
H488 H 0.36609 0.28046 0.75786 0.0
H489 H 0.40077 0.29296 0.73447 0.0
H490 H 0.44524 0.32497 0.81595 0.0
H491 H 0.41057 0.31135 0.8392 0.0
H492 H 0.22526 0.32503 0.86055 0.0
H493 H 0.19349 0.3314 0.88875 0.0
H494 H 0.14237 0.27017 0.82481 0.0
H495 H 0.17391 0.26504 0.79656 0.0
C496 C 0.03761 0.95132 0.52223 0.0
Eu497 Eu 0.05197 1.00547 0.54407 0.0
C498 C 0.03729 0.92461 0.53308 0.0
C499 C 0.04736 0.92545 0.56112 0.0
C500 C 0.04583 0.90018 0.57213 0.0
C501 C 0.03413 0.87374 0.55527 0.0
C502 C 0.0246 0.8729 0.52692 0.0
C503 C 0.02612 0.8983 0.5159 0.0
C504 C 0.09353 0.04115 0.54142 0.0
C505 C 0.07315 0.02954 0.61033 0.0
C506 C 0.07621 0.12406 0.57997 0.0
Eu507 Eu 0.05477 0.07067 0.56561 0.0
C508 C 0.0919 0.14291 0.56591 0.0
C509 C 0.09176 0.13604 0.53677 0.0
C510 C 0.10807 0.15263 0.52365 0.0
C511 C 0.12462 0.17679 0.53936 0.0
C512 C 0.1246 0.18338 0.56877 0.0
C513 C 0.10853 0.16642 0.5819 0.0
C514 C 1.01438 0.03954 0.57883 0.0
C515 C 0.03086 0.04598 0.49994 0.0
O516 O 0.02357 0.96721 0.53265 0.0
O517 O 0.05884 0.9662 0.52115 0.0
O518 O 0.09252 1.0158 0.54808 0.0
O519 O 0.07274 0.04587 0.53584 0.0
O520 O 0.06405 1.00588 0.59123 0.0
O521 O 0.073 0.05551 0.60398 0.0
O522 O 0.08537 0.103 0.58793 0.0
O523 O 0.05369 0.11591 0.56795 0.0
O524 O 1.01987 0.06747 0.58425 0.0
O525 O 0.03034 0.03071 0.56665 0.0
O526 O 0.03801 0.06907 0.52005 0.0
O527 O 0.03427 0.02023 0.5045 0.0
H528 H 0.05609 0.94569 0.57458 0.0
H529 H 0.05364 0.90134 0.59393 0.0
H530 H 1.0154 0.85278 0.51359 0.0
H531 H 1.01823 0.89747 0.49419 0.0
H532 H 0.07905 0.11774 0.52418 0.0
H533 H 0.10744 0.14653 0.50113 0.0
H534 H 0.13635 0.20223 0.5817 0.0
H535 H 0.10898 0.17181 0.60452 0.0
C536 C 0.28186 0.75408 0.71678 0.0
Eu537 Eu 0.29202 0.76867 0.77144 0.0
C538 C 0.25807 0.74473 0.69895 0.0
C539 C 0.24201 0.7634 0.69822 0.0
C540 C 0.2175 0.7524 0.69022 0.0
C541 C 0.20861 0.72257 0.68308 0.0
C542 C 0.22486 0.70426 0.68077 0.0
C543 C 0.24943 0.71531 0.68818 0.0
C544 C 0.25843 0.75104 0.80383 0.0
C545 C 0.27913 0.82474 0.80743 0.0
C546 C 0.32117 0.79645 0.88713 0.0
Eu547 Eu 0.31064 0.77928 0.83331 0.0
C548 C 0.34172 0.82043 0.89908 0.0
C549 C 0.3412 0.84841 0.8938 0.0
C550 C 0.3625 0.86816 0.89433 0.0
C551 C 0.38455 0.86011 0.89994 0.0
C552 C 0.38505 0.83335 0.90809 0.0
C553 C 0.36388 0.81389 0.90808 0.0
C554 C 0.34417 0.79909 0.80182 0.0
C555 C 0.32448 0.7249 0.79768 0.0
O556 O 0.2881 0.78095 0.7296 0.0
O557 O 0.28667 0.73636 0.73361 0.0
O558 O 0.25385 0.75983 0.78016 0.0
O559 O 0.27996 0.74856 0.80714 0.0
O560 O 0.28047 0.81236 0.78135 0.0
O561 O 0.28805 0.81408 0.82936 0.0
O562 O 0.32686 0.77323 0.87461 0.0
O563 O 0.30316 0.80308 0.87214 0.0
O564 O 0.34898 0.79059 0.82552 0.0
O565 O 0.32233 0.8 0.79796 0.0
O566 O 0.31908 0.73413 0.82287 0.0
O567 O 0.31864 0.73817 0.7763 0.0
H568 H 0.24805 0.78621 0.70618 0.0
H569 H 0.20544 0.76712 0.69228 0.0
H570 H 0.21852 0.68122 0.67504 0.0
H571 H 0.26146 0.70046 0.68817 0.0
H572 H 0.32442 0.85435 0.88705 0.0
H573 H 0.36172 0.88899 0.88878 0.0
H574 H 0.40191 0.82708 0.91365 0.0
H575 H 0.36492 0.79271 0.91256 0.0
C576 C 0.59091 0.13942 0.11486 0.0
Eu577 Eu 0.57467 0.08462 0.09757 0.0
C578 C 0.61493 0.15603 0.1145 0.0
C579 C 0.63055 0.14264 0.09988 0.0
C580 C 0.65463 0.15562 0.10298 0.0
C581 C 0.66344 0.18251 0.12027 0.0
C582 C 0.64759 0.19691 0.13343 0.0
C583 C 0.62342 0.18347 0.13098 0.0
C584 C 0.60345 0.04709 0.10846 0.0
C585 C 0.5854 0.05388 0.03684 0.0
C586 C 0.53939 0.96667 0.06063 0.0
Eu587 Eu 0.55167 0.02183 0.07834 0.0
C588 C 0.52005 0.9505 0.03832 0.0
C589 C 0.51001 0.96483 0.01816 0.0
C590 C 0.48786 0.95239 1.00166 0.0
C591 C 0.47536 0.92547 1.00516 0.0
C592 C 0.48641 0.91022 0.02381 0.0
C593 C 0.5086 0.92273 0.04036 0.0
C594 C 0.52263 0.05841 0.06502 0.0
C595 C 0.54063 0.05216 0.13771 0.0
O596 O 0.57793 0.12871 0.09006 0.0
O597 O 0.59051 0.12051 0.1317 0.0
O598 O 0.61068 0.07117 0.10027 0.0
O599 O 0.58181 0.0447 0.11118 0.0
O600 O 0.58512 0.07869 0.05307 0.0
O601 O 0.5756 0.02921 0.04394 0.0
O602 O 0.53193 0.97982 0.08227 0.0
O603 O 0.55708 0.98306 0.05248 0.0
O604 O 0.5149 0.03285 0.06986 0.0
O605 O 0.54467 0.0616 0.06447 0.0
O606 O 0.5457 0.02837 0.12439 0.0
O607 O 0.54683 0.07665 0.12815 0.0
H608 H 0.62431 0.12159 0.08687 0.0
H609 H 0.66653 0.14437 0.09232 0.0
H610 H 0.65408 0.21792 0.14637 0.0
H611 H 0.61162 0.19405 0.14252 0.0
H612 H 0.51854 0.98645 0.01649 0.0
H613 H 0.48001 0.96443 0.98714 0.0
H614 H 0.47719 0.88952 0.02715 0.0
H615 H 0.51602 0.91155 0.05604 0.0
C616 C 0.37744 0.35751 0.35167 0.0
Eu617 Eu 0.33436 0.32609 0.34153 0.0
C618 C 0.39982 0.35062 0.3439 0.0
C619 C 0.42168 0.36159 0.36202 0.0
C620 C 0.44244 0.35245 0.35568 0.0
C621 C 0.44129 0.33212 0.33134 0.0
C622 C 0.41959 0.32174 0.31297 0.0
C623 C 0.39902 0.33094 0.31915 0.0
C624 C 0.30923 0.30324 0.37919 0.0
C625 C 0.3396 0.25794 0.32159 0.0
C626 C 0.24724 0.25379 0.30641 0.0
Eu627 Eu 0.29102 0.28249 0.31536 0.0
C628 C 0.22651 0.26526 0.31424 0.0
C629 C 0.2055 0.26144 0.29466 0.0
C630 C 0.18753 0.27639 0.30088 0.0
C631 C 0.19067 0.29568 0.32652 0.0
C632 C 0.21139 0.29872 0.34629 0.0
C633 C 0.22905 0.2837 0.34028 0.0
C634 C 0.31555 0.30558 0.27727 0.0
C635 C 0.28643 0.35138 0.3359 0.0
O636 O 0.36137 0.35882 0.33051 0.0
O637 O 0.36823 0.34314 0.36998 0.0
O638 O 0.31913 0.33033 0.3826 0.0
O639 O 0.31365 0.28972 0.35686 0.0
O640 O 0.34969 0.28587 0.32714 0.0
O641 O 0.31586 0.25002 0.31776 0.0
O642 O 0.26302 0.2518 0.32759 0.0
O643 O 0.25724 0.26502 0.28671 0.0
O644 O 0.3057 0.27843 0.27408 0.0
O645 O 0.31153 0.31903 0.29996 0.0
O646 O 0.27541 0.32376 0.32825 0.0
O647 O 0.31011 0.35815 0.34079 0.0
H648 H 0.42255 0.37663 0.3813 0.0
H649 H 0.45915 0.36061 0.37002 0.0
H650 H 0.41847 0.30607 0.29406 0.0
H651 H 0.38236 0.32205 0.30489 0.0
H652 H 0.20333 0.24762 0.27432 0.0
H653 H 0.17158 0.27354 0.28542 0.0
H654 H 0.21403 0.3129 0.36651 0.0
H655 H 0.2451 0.28739 0.35577 0.0
C656 C 0.54538 0.44874 0.03964 0.0
Eu657 Eu 0.55608 0.50429 0.05157 0.0
C658 C 0.55405 0.42487 0.05022 0.0
C659 C 0.55693 0.40127 0.03123 0.0
C660 C 0.56235 0.37701 0.04116 0.0
C661 C 0.56452 0.37584 0.07024 0.0
C662 C 0.56272 0.40025 0.08918 0.0
C663 C 0.55786 0.42457 0.07932 0.0
C664 C 0.597 0.54273 0.05011 0.0
C665 C 0.5769 0.53323 0.11892 0.0
C666 C 0.56212 0.62694 0.08901 0.0
Eu667 Eu 0.55281 0.57151 0.07482 0.0
C668 C 0.55059 0.64985 0.08114 0.0
C669 C 0.55685 0.67719 0.09797 0.0
C670 C 0.54779 0.69988 0.08901 0.0
C671 C 0.53252 0.69543 0.06302 0.0
C672 C 0.52537 0.66764 0.04691 0.0
C673 C 0.53425 0.64494 0.05601 0.0
C674 C 0.51132 0.53281 0.07392 0.0
C675 C 0.53209 0.5431 1.00757 0.0
O676 O 0.53511 0.46405 0.05721 0.0
O677 O 0.55942 0.46432 0.02582 0.0
O678 O 0.59462 0.51518 0.04222 0.0
O679 O 0.57809 0.54711 0.05871 0.0
O680 O 0.57101 0.5093 0.09929 0.0
O681 O 0.57296 0.55847 0.11325 0.0
O682 O 0.57101 0.61325 0.06875 0.0
O683 O 0.55058 0.60981 0.10375 0.0
O684 O 0.51375 0.56017 0.08292 0.0
O685 O 0.53078 0.52892 0.06673 0.0
O686 O 0.53843 0.56669 0.02754 0.0
O687 O 0.53597 0.51745 1.01243 0.0
H688 H 0.55429 0.40127 1.00868 0.0
H689 H 0.56409 0.3589 0.02599 0.0
H690 H 0.56371 0.40026 0.11164 0.0
H691 H 0.55601 0.44263 0.09452 0.0
H692 H 0.56939 0.6812 0.11748 0.0
H693 H 0.55374 0.72119 0.10163 0.0
H694 H 0.51352 0.66371 0.02688 0.0
H695 H 0.52906 0.62381 0.04293 0.0
C696 C 0.79202 0.2609 0.22728 0.0
Eu697 Eu 0.80818 0.28088 0.28037 0.0
C698 C 0.76716 0.24688 0.21466 0.0
C699 C 0.75449 0.22546 0.22716 0.0
C700 C 0.72968 0.2174 0.22074 0.0
C701 C 0.71688 0.2305 0.20162 0.0
C702 C 0.72979 0.24983 0.187 0.0
C703 C 0.75475 0.25801 0.19354 0.0
C704 C 0.7815 0.26656 0.32075 0.0
C705 C 0.79656 0.33946 0.31449 0.0
C706 C 0.85166 0.31881 0.39428 0.0
Eu707 Eu 0.83543 0.3012 0.34061 0.0
C708 C 0.87502 0.32265 0.41233 0.0
C709 C 0.88581 0.34987 0.42819 0.0
C710 C 0.90946 0.35525 0.44187 0.0
C711 C 0.92258 0.33339 0.44015 0.0
C712 C 0.91128 0.30568 0.4258 0.0
C713 C 0.88773 0.30038 0.41184 0.0
C714 C 0.86247 0.31104 0.2998 0.0
C715 C 0.84495 0.24138 0.30709 0.0
O716 O 0.7955 0.28823 0.23803 0.0
O717 O 0.803 0.24676 0.24392 0.0
O718 O 0.77241 0.26944 0.29581 0.0
O719 O 0.8036 0.2679 0.32147 0.0
O720 O 0.79434 0.3234 0.28901 0.0
O721 O 0.81051 0.3338 0.33617 0.0
O722 O 0.84026 0.29242 0.38374 0.0
O723 O 0.85093 0.33605 0.37583 0.0
O724 O 0.87066 0.30597 0.3243 0.0
O725 O 0.84094 0.31345 0.29911 0.0
O726 O 0.84608 0.25702 0.33253 0.0
O727 O 0.83363 0.24877 0.28436 0.0
H728 H 0.76346 0.2164 0.24359 0.0
H729 H 0.72054 0.20267 0.23267 0.0
H730 H 0.72054 0.25979 0.17159 0.0
H731 H 0.76416 0.27438 0.18346 0.0
H732 H 0.87629 0.36731 0.42891 0.0
H733 H 0.91776 0.37673 0.453 0.0
H734 H 0.92109 0.28853 0.42398 0.0
H735 H 0.87992 0.27919 0.3997 0.0
C736 C 0.07252 0.6285 0.60221 0.0
Eu737 Eu 0.05603 0.57422 0.58293 0.0
C738 C 0.0978 0.64436 0.60783 0.0
C739 C 0.11404 0.639 0.6297 0.0
C740 C 0.13861 0.64898 0.63142 0.0
C741 C 0.14761 0.66493 0.61164 0.0
C742 C 0.13132 0.67211 0.59104 0.0
C743 C 0.10666 0.66188 0.58914 0.0
C744 C 0.08574 0.53814 0.59188 0.0
C745 C 0.06841 0.5441 0.52316 0.0
C746 C 1.0175 0.45634 0.54407 0.0
Eu747 Eu 0.03302 0.51118 0.56192 0.0
C748 C 0.9947 0.43681 0.54497 0.0
C749 C 0.98331 0.41648 0.521 0.0
C750 C 0.96005 0.40085 0.52008 0.0
C751 C 0.94776 0.40526 0.54319 0.0
C752 C 0.95973 0.42471 0.56765 0.0
C753 C 0.98285 0.44047 0.56846 0.0
C754 C 1.00345 0.54877 0.55449 0.0
C755 C 0.02141 0.54018 0.62234 0.0
O756 O 0.06329 0.61864 0.57563 0.0
O757 O 0.06688 0.60967 0.61844 0.0
O758 O 0.0926 0.56327 0.58576 0.0
O759 O 0.06395 0.53373 0.59438 0.0
O760 O 0.06573 0.56856 0.5381 0.0
O761 O 0.05998 0.51922 0.53082 0.0
O762 O 0.03156 0.46698 0.56827 0.0
O763 O 1.01577 0.47563 0.52794 0.0
O764 O 0.9966 0.52325 0.55994 0.0
O765 O 0.02502 0.55201 0.55114 0.0
O766 O 0.02315 0.51585 0.60644 0.0
O767 O 0.03011 0.56533 0.61523 0.0
H768 H 0.10794 0.6259 0.64478 0.0
H769 H 0.15063 0.64359 0.6479 0.0
H770 H 0.13765 0.68435 0.57543 0.0
H771 H 0.09461 0.66647 0.57216 0.0
H772 H 0.99205 0.41354 0.50254 0.0
H773 H 0.95135 0.38629 0.50082 0.0
H774 H 0.95103 0.42826 0.58605 0.0
H775 H 0.99113 0.45618 0.58715 0.0
C776 C 0.88007 0.777 0.32512 0.0
Eu777 Eu 0.83454 0.77621 0.32319 0.0
C778 C 0.89971 0.78369 0.30872 0.0
C779 C 0.89591 0.77631 0.2791 0.0
C780 C 0.91533 0.7788 0.26427 0.0
C781 C 0.93889 0.78893 0.27872 0.0
C782 C 0.94248 0.79787 0.30819 0.0
C783 C 0.92305 0.79515 0.32305 0.0
C784 C 0.79785 0.73154 0.32855 0.0
C785 C 0.80261 0.77124 0.26205 0.0
C786 C 0.73784 0.79718 0.31774 0.0
Eu787 Eu 0.78322 0.79621 0.31934 0.0
C788 C 0.71642 0.79046 0.3318 0.0
C789 C 0.70857 0.81303 0.34734 0.0
C790 C 0.68702 0.80802 0.35809 0.0
C791 C 0.67251 0.78028 0.35348 0.0
C792 C 0.68063 0.75748 0.33853 0.0
C793 C 0.70227 0.76253 0.3277 0.0
C794 C 0.8196 0.84006 0.31129 0.0
C795 C 0.81524 0.79847 0.38085 0.0
O796 O 0.87188 0.79852 0.33745 0.0
O797 O 0.86314 0.75444 0.31403 0.0
O798 O 0.82011 0.72972 0.32897 0.0
O799 O 0.79684 0.75711 0.32556 0.0
O800 O 0.82402 0.77296 0.27655 0.0
O801 O 0.78397 0.77686 0.27384 0.0
O802 O 0.74557 0.77607 0.30384 0.0
O803 O 0.75526 0.81836 0.33093 0.0
O804 O 0.79738 0.84193 0.31099 0.0
O805 O 0.82076 0.81502 0.31596 0.0
O806 O 0.79413 0.79908 0.36661 0.0
O807 O 0.83353 0.79271 0.36869 0.0
H808 H 0.87804 0.76763 0.2675 0.0
H809 H 0.91197 0.77213 0.24152 0.0
H810 H 0.96039 0.80559 0.31994 0.0
H811 H 0.92637 0.80094 0.34589 0.0
H812 H 0.71887 0.83485 0.35066 0.0
H813 H 0.68165 0.82603 0.36991 0.0
H814 H 0.66988 0.73587 0.33438 0.0
H815 H 0.70757 0.74466 0.31554 0.0
C816 C 0.79215 0.32855 0.92925 0.0
Eu817 Eu 0.78981 0.3129 0.87549 0.0
C818 C 0.78056 0.31104 0.94798 0.0
C819 C 0.79238 0.31198 0.97526 0.0
C820 C 0.78647 0.2889 0.98924 0.0
C821 C 0.76887 0.26468 0.9759 0.0
C822 C 0.75521 0.2652 0.9501 0.0
C823 C 0.76099 0.28835 0.93618 0.0
C824 C 0.75004 0.30989 0.83813 0.0
C825 C 0.77276 0.24517 0.85004 0.0
C826 C 0.77336 0.2798 0.75863 0.0
Eu827 Eu 0.79222 0.29343 0.81123 0.0
C828 C 0.75764 0.2925 0.74001 0.0
C829 C 0.73347 0.27881 0.73142 0.0
C830 C 0.71854 0.28989 0.71289 0.0
C831 C 0.72761 0.3147 0.70238 0.0
C832 C 0.75145 0.32924 0.7123 0.0
C833 C 0.76629 0.31829 0.73096 0.0
C834 C 0.8304 0.28245 0.84353 0.0
C835 C 0.8172 0.35956 0.84003 0.0
O836 O 0.80896 0.31794 0.91819 0.0
O837 O 0.77776 0.3371 0.91066 0.0
O838 O 0.74953 0.30141 0.86225 0.0
O839 O 0.77123 0.31959 0.83506 0.0
O840 O 0.78081 0.2648 0.87316 0.0
O841 O 0.77337 0.25179 0.82438 0.0
O842 O 0.76345 0.26902 0.7787 0.0
O843 O 0.79566 0.29383 0.76705 0.0
O844 O 0.82749 0.27744 0.816 0.0
O845 O 0.81358 0.29335 0.8512 0.0
O846 O 0.80881 0.34127 0.81589 0.0
O847 O 0.81344 0.35251 0.86493 0.0
H848 H 0.80767 0.32907 0.98451 0.0
H849 H 0.79739 0.28857 1.00907 0.0
H850 H 0.7417 0.2466 0.93955 0.0
H851 H 0.75174 0.28706 0.91499 0.0
H852 H 0.72624 0.25913 0.73851 0.0
H853 H 0.7002 0.2784 0.70585 0.0
H854 H 0.75917 0.34816 0.70431 0.0
H855 H 0.78473 0.32961 0.73755 0.0
C856 C 0.87434 0.84231 0.84286 0.0
Eu857 Eu 0.82974 0.81612 0.83572 0.0
C858 C 0.89673 0.83184 0.84629 0.0
C859 C 0.89917 0.81006 0.86214 0.0
C860 C 0.91839 0.79627 0.86067 0.0
C861 C 0.93524 0.80365 0.84293 0.0
C862 C 0.93343 0.82668 0.82845 0.0
C863 C 0.91439 0.84069 0.83022 0.0
C864 C 0.80637 0.79789 0.8767 0.0
C865 C 0.82789 0.74546 0.8191 0.0
C866 C 0.73862 0.75241 0.80859 0.0
Eu867 Eu 0.78328 0.77794 0.81414 0.0
C868 C 0.71726 0.76438 0.81237 0.0
C869 C 0.71416 0.78939 0.80189 0.0
C870 C 0.69716 0.8044 0.81089 0.0
C871 C 0.68314 0.79485 0.8307 0.0
C872 C 0.68509 0.76875 0.83963 0.0
C873 C 0.70204 0.75365 0.83052 0.0
C874 C 0.80707 0.79502 0.77298 0.0
C875 C 0.78513 0.84828 0.83123 0.0
O876 O 0.86111 0.83334 0.81797 0.0
O877 O 0.8618 0.84124 0.86356 0.0
O878 O 0.8178 0.82415 0.8784 0.0
O879 O 0.80802 0.78261 0.85389 0.0
O880 O 0.84134 0.77196 0.82605 0.0
O881 O 0.8042 0.74195 0.8147 0.0
O882 O 0.75383 0.75544 0.83182 0.0
O883 O 0.74919 0.75822 0.7871 0.0
O884 O 0.79533 0.76894 0.77177 0.0
O885 O 0.80532 0.81102 0.79542 0.0
O886 O 0.77186 0.82173 0.82636 0.0
O887 O 0.80873 0.85182 0.83326 0.0
H888 H 0.88562 0.80267 0.87455 0.0
H889 H 0.9194 0.77893 0.87242 0.0
H890 H 0.94575 0.83271 0.81417 0.0
H891 H 0.91267 0.85724 0.81763 0.0
H892 H 0.72572 0.79827 0.78796 0.0
H893 H 0.69565 0.82414 0.80327 0.0
H894 H 0.67458 0.76095 0.855 0.0
H895 H 0.70427 0.73455 0.83903 0.0
C896 C 0.62462 0.58133 0.5974 0.0
Eu897 Eu 0.57985 0.55781 0.58019 0.0
C898 C 0.64543 0.57242 0.58697 0.0
C899 C 0.66791 0.5792 0.60407 0.0
C900 C 0.68636 0.56607 0.59599 0.0
C901 C 0.68247 0.5459 0.57074 0.0
C902 C 0.6602 0.54035 0.5531 0.0
C903 C 0.64187 0.55337 0.56122 0.0
C904 C 0.54212 0.5532 0.61234 0.0
C905 C 0.57013 0.48941 0.57711 0.0
C906 C 0.48838 0.49365 0.52761 0.0
Eu907 Eu 0.53339 0.51812 0.54254 0.0
C908 C 0.46653 0.49882 0.53885 0.0
C909 C 0.44762 0.50448 0.52081 0.0
C910 C 0.42815 0.51301 0.53165 0.0
C911 C 0.4272 0.51611 0.56083 0.0
C912 C 0.44578 0.50946 0.57875 0.0
C913 C 0.46519 0.50082 0.56784 0.0
C914 C 0.57081 0.52086 0.51032 0.0
C915 C 0.54589 0.58677 0.54164 0.0
O916 O 0.61079 0.59148 0.57951 0.0
O917 O 0.61249 0.56255 0.61002 0.0
O918 O 0.56334 0.5692 0.62085 0.0
O919 O 0.54214 0.54225 0.5867 0.0
O920 O 0.58636 0.51288 0.57788 0.0
O921 O 0.54725 0.48747 0.56795 0.0
O922 O 0.50351 0.48315 0.54352 0.0
O923 O 0.4991 0.51424 0.51586 0.0
O924 O 0.54942 0.50507 0.50218 0.0
O925 O 0.57123 0.53286 0.53585 0.0
O926 O 0.52883 0.56356 0.53945 0.0
O927 O 0.56784 0.58871 0.55441 0.0
H928 H 0.67086 0.59359 0.62419 0.0
H929 H 0.70337 0.57089 0.60995 0.0
H930 H 0.65634 0.52454 0.53384 0.0
H931 H 0.62443 0.54729 0.54812 0.0
H932 H 0.44828 0.50325 0.49841 0.0
H933 H 0.41433 0.51831 0.51726 0.0
H934 H 0.44549 0.51128 0.60125 0.0
H935 H 0.4794 0.49637 0.5822 0.0
C936 C 0.98819 0.5443 0.0876 0.0
Eu937 Eu 0.03191 0.53976 0.08121 0.0
C938 C 0.96913 0.56093 0.08296 0.0
C939 C 0.95754 0.56934 0.10564 0.0
C940 C 0.93792 0.58248 0.10164 0.0
C941 C 0.92923 0.58757 0.07474 0.0
C942 C 0.94114 0.57956 0.05204 0.0
C943 C 0.96086 0.5664 0.05609 0.0
C944 C 0.06589 0.53228 0.12366 0.0
C945 C 0.06626 0.60171 0.07991 0.0
C946 C 0.1285 0.54054 0.07394 0.0
Eu947 Eu 0.08309 0.54258 0.06608 0.0
C948 C 0.14607 0.52274 0.06693 0.0
C949 C 0.1397 0.49259 0.06136 0.0
C950 C 0.15729 0.47615 0.0586 0.0
C951 C 0.18167 0.48947 0.0614 0.0
C952 C 0.18779 0.51971 0.06617 0.0
C953 C 0.1702 0.5361 0.06892 0.0
C954 C 0.05238 0.54267 0.01711 0.0
C955 C 0.04629 0.48105 0.05532 0.0
O956 O 0.99355 0.52892 0.06559 0.0
O957 O 1.00692 0.55603 0.10683 0.0
O958 O 0.04388 0.51806 0.11811 0.0
O959 O 0.0686 0.55002 0.10673 0.0
O960 O 0.04425 0.58704 0.0792 0.0
O961 O 0.08479 0.58941 0.07836 0.0
O962 O 0.11316 0.53069 0.08977 0.0
O963 O 0.11898 0.55301 0.05436 0.0
O964 O 0.07506 0.54239 0.01861 0.0
O965 O 0.04696 0.54176 0.04167 0.0
O966 O 0.06873 0.49504 0.05915 0.0
O967 O 0.0284 0.49388 0.06 0.0
H968 H 0.96332 0.56506 0.12648 0.0
H969 H 0.92911 0.58787 0.11957 0.0
H970 H 0.93523 0.58345 0.0311 0.0
H971 H 0.96937 0.56012 0.03812 0.0
H972 H 0.12122 0.48174 0.05997 0.0
H973 H 0.15182 0.45297 0.05521 0.0
H974 H 0.20624 0.53078 0.06795 0.0
H975 H 0.17557 0.55932 0.07337 0.0
H976 H 0.9815 0.1725 1.00912 0.0
H977 H 0.04664 0.20585 0.97893 0.0
H978 H 0.06421 0.16661 0.99343 0.0
H979 H 0.06089 0.12265 0.01488 0.0
H980 H 0.99461 0.08867 0.04245 0.0
H981 H 0.97774 0.12849 0.029 0.0
C982 C 0.99956 0.17125 1.0057 0.0
C983 C 1.01278 0.19215 0.99309 0.0
C984 C 1.00938 0.14857 0.01376 0.0
C985 C 0.03606 0.18998 0.98853 0.0
C986 C 0.04614 0.16763 0.99692 0.0
C987 C 0.04283 0.12416 0.01809 0.0
C988 C 0.02905 0.10288 0.02978 0.0
C989 C 0.03298 0.14683 1.00966 0.0
C990 C 1.00554 0.10477 0.03344 0.0
C991 C 0.99588 0.12752 0.02576 0.0
H992 H 0.17762 0.85422 0.25613 0.0
H993 H 0.16821 0.76631 0.21497 0.0
H994 H 0.2008 0.75913 0.24894 0.0
H995 H 0.23328 0.77853 0.28873 0.0
H996 H 0.24494 0.86739 0.32819 0.0
H997 H 0.21016 0.87359 0.29686 0.0
C998 C 0.18251 0.83343 0.2551 0.0
C999 C 0.17049 0.81067 0.23353 0.0
C1000 C 0.20181 0.82976 0.27417 0.0
C1001 C 0.17718 0.78396 0.23174 0.0
C1002 C 0.19585 0.77991 0.25101 0.0
C1003 C 0.2283 0.7993 0.29033 0.0
C1004 C 0.24183 0.82258 0.3104 0.0
C1005 C 0.20857 0.80278 0.27199 0.0
C1006 C 0.23487 0.8492 0.3127 0.0
C1007 C 0.21499 0.85275 0.29482 0.0
H1008 H 0.49971 0.84625 0.53153 0.0
H1009 H 0.55659 0.84742 0.48127 0.0
H1010 H 0.572 0.89849 0.50057 0.0
H1011 H 0.56741 0.94356 0.52921 0.0
H1012 H 0.50866 0.94191 0.57667 0.0
H1013 H 0.49592 0.89018 0.56095 0.0
C1014 C 0.51566 0.85749 0.52497 0.0
C1015 C 0.52694 0.84299 0.50493 0.0
C1016 C 0.52396 0.88687 0.53549 0.0
C1017 C 0.54752 0.85806 0.49664 0.0
C1018 C 0.5563 0.88728 0.50761 0.0
C1019 C 0.55198 0.93179 0.53632 0.0
C1020 C 0.53893 0.94658 0.55396 0.0
C1021 C 0.54438 0.90203 0.52666 0.0
C1022 C 0.51888 0.9311 0.56287 0.0
C1023 C 0.5116 0.9015 0.55394 0.0
H1024 H 0.50514 0.3332 0.69524 0.0
H1025 H 0.54713 0.30539 0.76206 0.0
H1026 H 0.51312 0.30028 0.78784 0.0
H1027 H 0.47091 0.30153 0.79028 0.0
H1028 H 0.42946 0.3309 0.72407 0.0
H1029 H 0.46377 0.33721 0.69906 0.0
C1030 C 0.50692 0.3261 0.71549 0.0
C1031 C 0.52864 0.31951 0.72659 0.0
C1032 C 0.48732 0.32328 0.73023 0.0
C1033 C 0.53064 0.3106 0.75299 0.0
C1034 C 0.51117 0.30761 0.76773 0.0
C1035 C 0.46944 0.30979 0.77063 0.0
C1036 C 0.44746 0.31552 0.75906 0.0
C1037 C 0.48935 0.31365 0.75643 0.0
C1038 C 0.44593 0.32578 0.73329 0.0
C1039 C 0.46562 0.32957 0.71901 0.0
H1040 H 0.03196 0.75547 0.59677 0.0
H1041 H 1.01062 0.80278 0.6689 0.0
H1042 H 1.01135 0.8441 0.64521 0.0
H1043 H 1.0196 0.86746 0.60508 0.0
H1044 H 0.04183 0.82117 0.53325 0.0
H1045 H 0.03883 0.77846 0.55562 0.0
C1046 C 0.02732 0.77475 0.60722 0.0
C1047 C 0.02141 0.77613 0.6346 0.0
C1048 C 0.02795 0.79855 0.59359 0.0
C1049 C 1.01536 0.80122 0.64786 0.0
C1050 C 1.01577 0.82487 0.63436 0.0
C1051 C 0.0239 0.84804 0.5944 0.0
C1052 C 0.0312 0.84743 0.5678 0.0
C1053 C 0.02236 0.82388 0.60744 0.0
C1054 C 0.03615 0.82201 0.55378 0.0
C1055 C 0.03454 0.79771 0.5666 0.0
H1056 H 0.48472 0.93433 0.94024 0.0
H1057 H 0.50249 0.86306 0.88799 0.0
H1058 H 0.461 0.84748 0.86522 0.0
H1059 H 0.41915 0.84606 0.87132 0.0
H1060 H 0.4007 0.91721 0.92259 0.0
H1061 H 0.44301 0.94144 0.93404 0.0
C1062 C 0.47966 0.91613 0.92304 0.0
C1063 C 0.49632 0.8991 0.9167 0.0
C1064 C 0.45558 0.90681 0.91051 0.0
C1065 C 0.48987 0.87619 0.8937 0.0
C1066 C 0.46603 0.86701 0.88087 0.0
C1067 C 0.42439 0.86727 0.88435 0.0
C1068 C 0.40735 0.87909 0.89783 0.0
C1069 C 0.44858 0.88081 0.89087 0.0
C1070 C 0.41387 0.90716 0.91327 0.0
C1071 C 0.43801 0.92096 0.9198 0.0
H1072 H 0.51503 0.176 0.12625 0.0
H1073 H 0.47016 0.12182 0.17042 0.0
H1074 H 0.46688 0.08081 0.13275 0.0
H1075 H 0.48622 0.05874 0.09535 0.0
H1076 H 0.53442 0.11255 0.05434 0.0
H1077 H 0.52657 0.15549 0.08216 0.0
C1078 C 0.50367 0.15553 0.12706 0.0
C1079 C 0.49367 0.1515 0.15155 0.0
C1080 C 0.50297 0.13184 0.10611 0.0
C1081 C 0.47872 0.12505 0.15215 0.0
C1082 C 0.47691 0.1016 0.13065 0.0
C1083 C 0.49425 0.07988 0.09173 0.0
C1084 C 0.51143 0.08271 0.07359 0.0
C1085 C 0.49049 0.10435 0.10874 0.0
C1086 C 0.52156 0.11007 0.06878 0.0
C1087 C 0.51713 0.13457 0.08474 0.0
H1088 H 0.11072 0.33972 0.38341 0.0
H1089 H 0.16752 0.41521 0.40911 0.0
H1090 H 0.19045 0.39557 0.37482 0.0
H1091 H 0.19811 0.35247 0.34661 0.0
H1092 H 0.14264 0.27579 0.32341 0.0
H1093 H 0.11529 0.3004 0.34748 0.0
C1094 C 0.12782 0.35229 0.381 0.0
C1095 C 0.13778 0.37843 0.39954 0.0
C1096 C 0.14134 0.34034 0.36209 0.0
C1097 C 0.15965 0.39474 0.39557 0.0
C1098 C 0.17287 0.38343 0.37609 0.0
C1099 C 0.17978 0.34151 0.3461 0.0
C1100 C 0.17245 0.31231 0.33378 0.0
C1101 C 0.16452 0.35552 0.36065 0.0
C1102 C 0.14866 0.29825 0.33292 0.0
C1103 C 0.13312 0.31226 0.34686 0.0
H1104 H 0.97279 1.00108 0.18733 0.0
H1105 H 0.98721 0.09102 0.22358 0.0
H1106 H 1.01127 0.10194 0.18645 0.0
H1107 H 0.03077 0.08554 0.14472 0.0
H1108 H 1.01415 0.99578 0.10758 0.0
H1109 H 0.98867 0.98546 0.1433 0.0
C1110 C 0.98086 0.02324 0.18704 0.0
C1111 C 0.97783 0.04514 0.20886 0.0
C1112 C 0.99457 0.02944 0.16514 0.0
C1113 C 0.98869 0.07358 0.20744 0.0
C1114 C 1.00273 0.07981 0.1861 0.0
C1115 C 1.02127 0.06373 0.1441 0.0
C1116 C 0.02435 0.04152 0.12262 0.0
C1117 C 1.00617 0.05791 0.16498 0.0
C1118 C 1.0119 1.01349 0.12291 0.0
C1119 C 0.9974 1.00753 0.14372 0.0
H1120 H 0.32186 0.64682 0.522 0.0
H1121 H 0.39488 0.69299 0.54194 0.0
H1122 H 0.39188 0.70885 0.49628 0.0
H1123 H 0.36443 0.72504 0.46236 0.0
H1124 H 0.28835 0.69085 0.45414 0.0
H1125 H 0.29611 0.65484 0.48166 0.0
C1126 C 0.33748 0.65889 0.51541 0.0
C1127 C 0.35803 0.67022 0.53555 0.0
C1128 C 0.33433 0.67159 0.4914 0.0
C1129 C 0.37855 0.68483 0.5269 0.0
C1130 C 0.37658 0.6946 0.50111 0.0
C1131 C 0.34948 0.70973 0.46649 0.0
C1132 C 0.3258 0.71209 0.45743 0.0
C1133 C 0.35382 0.69088 0.48502 0.0
C1134 C 0.30685 0.69046 0.46117 0.0
C1135 C 0.31122 0.66973 0.47725 0.0
H1136 H 0.64834 0.04086 0.73534 0.0
H1137 H 0.58872 0.99751 0.76905 0.0
H1138 H 0.56265 0.99316 0.72402 0.0
H1139 H 0.5555 1.00549 0.67645 0.0
H1140 H 0.61441 0.04802 0.64112 0.0
H1141 H 0.64182 0.04864 0.68471 0.0
C1142 C 0.62983 0.02959 0.7325 0.0
C1143 C 0.62078 0.01879 0.75572 0.0
C1144 C 0.61462 0.02744 0.70617 0.0
C1145 C 0.59645 1.00529 0.75166 0.0
C1146 C 0.58141 1.0031 0.72585 0.0
C1147 C 0.57442 1.01455 0.678 0.0
C1148 C 0.58269 0.02676 0.65518 0.0
C1149 C 0.59009 1.01465 0.70317 0.0
C1150 C 0.60737 0.03829 0.65793 0.0
C1151 C 0.62307 0.03877 0.68309 0.0
H1152 H 0.30858 0.3613 0.99953 0.0
H1153 H 0.36075 0.30802 1.0087 0.0
H1154 H 0.3523 0.28942 0.9583 0.0
H1155 H 0.3317 0.28978 0.91105 0.0
H1156 H 0.27861 0.34161 0.90136 0.0
H1157 H 0.28583 0.35912 0.95228 0.0
C1158 C 0.31789 0.3454 0.99055 0.0
C1159 C 0.33541 0.33636 1.00797 0.0
C1160 C 0.31298 0.33464 0.96131 0.0
C1161 C 0.34724 0.31559 0.9959 0.0
C1162 C 0.34251 0.30492 0.96697 0.0
C1163 C 0.32173 0.30491 0.92008 0.0
C1164 C 0.30485 0.31455 0.90242 0.0
C1165 C 0.32573 0.31464 0.9494 0.0
C1166 C 0.29177 0.33383 0.9145 0.0
C1167 C 0.29588 0.3439 0.94364 0.0
H1168 H 0.97519 0.07558 0.38729 0.0
H1169 H 1.00136 1.00228 0.35043 0.0
H1170 H 1.01992 0.99748 0.39642 0.0
H1171 H 0.02889 1.01252 0.44798 0.0
H1172 H 1.00631 0.08746 0.48637 0.0
H1173 H 0.98677 0.09286 0.44 0.0
C1174 C 0.98511 0.05873 0.38922 0.0
C1175 C 0.98642 0.03936 0.36455 0.0
C1176 C 0.99655 0.05604 0.41653 0.0
C1177 C 0.99962 1.01776 0.36829 0.0
C1178 C 1.0104 1.01477 0.39494 0.0
C1179 C 1.01968 0.03005 0.44633 0.0
C1180 C 1.01907 0.04932 0.4711 0.0
C1181 C 1.00891 0.03353 0.41931 0.0
C1182 C 1.00721 0.07213 0.46797 0.0
C1183 C 0.99593 0.07526 0.44126 0.0
H1184 H 0.37878 0.73168 0.7021 0.0
H1185 H 0.34938 0.79268 0.65875 0.0
H1186 H 0.34594 0.82039 0.70351 0.0
H1187 H 0.34277 0.82089 0.75364 0.0
H1188 H 0.37504 0.76276 0.79791 0.0
H1189 H 0.38623 0.74074 0.75426 0.0
C1190 C 0.37241 0.75155 0.70251 0.0
C1191 C 0.36352 0.75941 0.67712 0.0
C1192 C 0.37056 0.7677 0.72845 0.0
C1193 C 0.35588 0.78566 0.67798 0.0
C1194 C 0.35374 0.80156 0.7036 0.0
C1195 C 0.35299 0.8041 0.75382 0.0
C1196 C 0.3574 0.79279 0.77847 0.0
C1197 C 0.35967 0.79179 0.72878 0.0
C1198 C 0.37113 0.7715 0.77889 0.0
C1199 C 0.37742 0.75875 0.75392 0.0
H1200 H 0.63364 0.0792 0.92811 0.0
H1201 H 0.62727 0.98745 0.91278 0.0
H1202 H 0.60898 0.98434 0.95587 0.0
H1203 H 0.59348 1.00802 0.99811 0.0
H1204 H 0.6033 0.10041 0.01374 0.0
H1205 H 0.62111 0.10269 0.97091 0.0
C1206 C 0.62853 0.0584 0.93422 0.0
C1207 C 0.63205 0.03357 0.91667 0.0
C1208 C 0.61839 0.05687 0.95946 0.0
C1209 C 0.62522 1.00704 0.92555 0.0
C1210 C 0.61457 1.00528 0.95035 0.0
C1211 C 0.59978 0.02872 0.99243 0.0
C1212 C 0.59685 0.05408 1.00993 0.0
C1213 C 0.61087 0.03006 0.96754 0.0
C1214 C 0.60506 0.08046 1.00136 0.0
C1215 C 0.61539 0.08183 0.97662 0.0
H1216 H 0.33837 0.38292 0.18491 0.0
H1217 H 0.34097 0.30057 0.13775 0.0
H1218 H 0.33141 0.27735 0.17762 0.0
H1219 H 0.32308 0.28038 0.22627 0.0
H1220 H 0.3229 0.36286 0.27503 0.0
H1221 H 0.33107 0.3861 0.23461 0.0
C1222 C 0.33653 0.35988 0.18339 0.0
C1223 C 0.34008 0.34339 0.15841 0.0
C1224 C 0.3318 0.34673 0.20684 0.0
C1225 C 0.33819 0.31363 0.15679 0.0
C1226 C 0.33281 0.30035 0.17959 0.0
C1227 C 0.32492 0.30345 0.22805 0.0
C1228 C 0.32231 0.31982 0.25352 0.0
C1229 C 0.3298 0.31668 0.20481 0.0
C1230 C 0.32488 0.34974 0.25562 0.0
C1231 C 0.32943 0.36305 0.23246 0.0
H1232 H 0.23071 0.9477 0.97584 0.0
H1233 H 0.28798 0.98938 0.04406 0.0
H1234 H 0.26336 0.02178 0.06183 0.0
H1235 H 0.22463 0.03635 0.06017 0.0
H1236 H 0.16733 0.99557 0.99195 0.0
H1237 H 0.19287 0.96512 0.97196 0.0
C1238 C 0.23791 0.96411 0.99437 0.0
C1239 C 0.26114 0.96581 1.00868 0.0
C1240 C 0.22357 0.98281 1.00465 0.0
C1241 C 0.27016 0.98736 0.03262 0.0
C1242 C 0.25605 1.00593 0.04292 0.0
C1243 C 0.21779 0.02086 0.04087 0.0
C1244 C 0.19408 1.01807 0.02771 0.0
C1245 C 0.23258 1.00347 0.02948 0.0
C1246 C 0.18557 0.99822 1.00244 0.0
C1247 C 0.20013 0.9807 0.99107 0.0
H1248 H 0.67145 0.64698 0.02788 0.0
H1249 H 0.72052 0.59185 0.04592 0.0
H1250 H 0.68697 0.55455 0.05166 0.0
H1251 H 0.64365 0.53862 0.05357 0.0
H1252 H 0.59561 0.59454 0.03544 0.0
H1253 H 0.62893 0.63096 0.02838 0.0
C1254 C 0.67496 0.62677 0.03287 0.0
C1255 C 0.6986 0.62232 0.03649 0.0
C1256 C 0.65578 0.60585 0.03676 0.0
C1257 C 0.70256 0.59587 0.04291 0.0
C1258 C 0.68339 0.57461 0.04637 0.0
C1259 C 0.64062 0.55891 0.04824 0.0
C1260 C 0.6174 0.5646 0.04626 0.0
C1261 C 0.65995 0.57955 0.04375 0.0
C1262 C 0.6135 0.59054 0.03876 0.0
C1263 C 0.6325 0.61105 0.03413 0.0
H1264 H 0.75184 0.44531 0.36699 0.0
H1265 H 0.7127 0.43292 0.28277 0.0
H1266 H 0.7326 0.39325 0.26809 0.0
H1267 H 0.76201 0.36098 0.27923 0.0
H1268 H 0.79994 0.37545 0.36461 0.0
H1269 H 0.77995 0.41421 0.37799 0.0
C1270 C 0.74743 0.43412 0.34528 0.0
C1271 C 0.73034 0.44294 0.32625 0.0
C1272 C 0.75908 0.41106 0.3369 0.0
C1273 C 0.72546 0.42733 0.29829 0.0
C1274 C 0.73703 0.40437 0.2898 0.0
C1275 C 0.76607 0.37261 0.30076 0.0
C1276 C 0.78316 0.36442 0.3206 0.0
C1277 C 0.75405 0.39584 0.30887 0.0
C1278 C 0.7874 0.38039 0.34839 0.0
C1279 C 0.77578 0.40298 0.35629 0.0
H1280 H 0.84183 0.33124 0.52125 0.0
H1281 H 0.82932 0.41045 0.56549 0.0
H1282 H 0.87201 0.43161 0.57217 0.0
H1283 H 0.91235 0.42872 0.56313 0.0
H1284 H 0.92524 0.35007 0.51817 0.0
H1285 H 0.88282 0.32785 0.51353 0.0
C1286 C 0.84849 0.35299 0.53273 0.0
C1287 C 0.83237 0.36919 0.54296 0.0
C1288 C 0.87306 0.36528 0.53599 0.0
C1289 C 0.84129 0.39749 0.55741 0.0
C1290 C 0.86571 0.40965 0.56117 0.0
C1291 C 0.90605 0.40652 0.5528 0.0
C1292 C 0.92212 0.39108 0.54124 0.0
C1293 C 0.88169 0.39388 0.55024 0.0
C1294 C 0.91334 0.36258 0.52716 0.0
C1295 C 0.88908 0.34978 0.52463 0.0
H1296 H 0.42492 0.18857 0.31776 0.0
H1297 H 0.36967 0.11744 0.32518 0.0
H1298 H 0.34052 0.14893 0.32513 0.0
H1299 H 0.3303 0.19786 0.3233 0.0
H1300 H 0.38701 0.26795 0.31675 0.0
H1301 H 0.41515 0.2361 0.31598 0.0
C1302 C 0.40652 0.17964 0.31938 0.0
C1303 C 0.39997 0.15004 0.32148 0.0
C1304 C 0.38969 0.19809 0.31942 0.0
C1305 C 0.37573 0.13974 0.32357 0.0
C1306 C 0.35888 0.15796 0.3235 0.0
C1307 C 0.34876 0.20623 0.32153 0.0
C1308 C 0.35602 0.236 0.31998 0.0
C1309 C 0.36553 0.18735 0.32143 0.0
C1310 C 0.38036 0.2457 0.31801 0.0
C1311 C 0.39673 0.22728 0.31759 0.0
H1312 H 0.32248 0.10341 0.53773 0.0
H1313 H 0.36716 0.18837 0.55093 0.0
H1314 H 0.40288 0.16839 0.55788 0.0
H1315 H 0.42168 0.12712 0.56236 0.0
H1316 H 0.37732 0.04201 0.54871 0.0
H1317 H 0.34151 0.0617 0.53995 0.0
C1318 C 0.34002 0.11754 0.54199 0.0
C1319 C 0.34198 0.14741 0.54391 0.0
C1320 C 0.36069 0.1059 0.54606 0.0
C1321 C 0.36496 0.16532 0.54939 0.0
C1322 C 0.3855 0.15392 0.5534 0.0
C1323 C 0.40423 0.1128 0.55704 0.0
C1324 C 0.40232 0.0831 0.55643 0.0
C1325 C 0.38361 0.12427 0.55202 0.0
C1326 C 0.37941 0.065 0.54982 0.0
C1327 C 0.35886 0.07624 0.54468 0.0
H1328 H 0.70448 0.63845 0.3354 0.0
H1329 H 0.75476 0.58225 0.33277 0.0
H1330 H 0.78678 0.62323 0.33079 0.0
H1331 H 0.80066 0.67528 0.32935 0.0
H1332 H 0.75004 0.73091 0.33136 0.0
H1333 H 0.71818 0.69006 0.33391 0.0
C1334 C 0.72243 0.63491 0.33451 0.0
C1335 C 0.72689 0.6067 0.33439 0.0
C1336 C 0.7408 0.6587 0.33311 0.0
C1337 C 0.75048 0.60325 0.33302 0.0
C1338 C 0.76887 0.62685 0.33183 0.0
C1339 C 0.78264 0.67856 0.33034 0.0
C1340 C 0.77793 0.70654 0.33002 0.0
C1341 C 0.76428 0.6547 0.33178 0.0
C1342 C 0.75436 0.70996 0.33134 0.0
C1343 C 0.7361 0.68646 0.33289 0.0
H1344 H 0.89056 0.48023 0.86046 0.0
H1345 H 0.86775 0.4739 0.77132 0.0
H1346 H 0.83889 0.42913 0.77075 0.0
H1347 H 0.82249 0.38917 0.79512 0.0
H1348 H 0.84581 0.3967 0.88468 0.0
H1349 H 0.87174 0.44303 0.88548 0.0
C1350 C 0.87864 0.4696 0.84111 0.0
C1351 C 0.88084 0.48105 0.81614 0.0
C1352 C 0.8624 0.44348 0.84089 0.0
C1353 C 0.86591 0.46623 0.79103 0.0
C1354 C 0.84963 0.44031 0.79065 0.0
C1355 C 0.83312 0.401 0.81486 0.0
C1356 C 0.83208 0.3889 0.83979 0.0
C1357 C 0.84809 0.42826 0.81534 0.0
C1358 C 0.84601 0.40502 0.8651 0.0
C1359 C 0.86097 0.43173 0.86563 0.0
H1360 H 0.07372 0.87982 0.13846 0.0
H1361 H 0.14846 0.90747 0.13324 0.0
H1362 H 0.13937 0.9463 0.1091 0.0
H1363 H 0.10989 0.97121 0.08788 0.0
H1364 H 0.03484 0.9412 0.09063 0.0
H1365 H 0.04433 0.90435 0.11699 0.0
C1366 C 0.08804 0.89462 0.13239 0.0
C1367 C 0.11172 0.89102 0.13781 0.0
C1368 C 0.08259 0.91621 0.11768 0.0
C1369 C 0.13007 0.90994 0.12934 0.0
C1370 C 0.12488 0.93205 0.11546 0.0
C1371 C 0.09562 0.95657 0.09422 0.0
C1372 C 0.0717 0.95889 0.08713 0.0
C1373 C 0.10115 0.93515 0.10918 0.0
C1374 C 0.05341 0.93972 0.09547 0.0
C1375 C 0.0588 0.91872 0.11075 0.0
H1376 H 0.90353 0.25878 0.94042 0.0
H1377 H 0.94757 0.25693 0.87461 0.0
H1378 H 0.91445 0.26397 0.84107 0.0
H1379 H 0.87339 0.2729 0.83124 0.0
H1380 H 0.83097 0.27718 0.89844 0.0
H1381 H 0.86314 0.26707 0.93077 0.0
C1382 C 0.90592 0.25958 0.91867 0.0
C1383 C 0.92803 0.2572 0.91004 0.0
C1384 C 0.88714 0.26441 0.89986 0.0
C1385 C 0.93075 0.25863 0.88181 0.0
C1386 C 0.91184 0.26275 0.86267 0.0
C1387 C 0.87127 0.27155 0.85296 0.0
C1388 C 0.85 0.27609 0.86262 0.0
C1389 C 0.89005 0.26606 0.87157 0.0
C1390 C 0.84736 0.27429 0.89073 0.0
C1391 C 0.86568 0.26832 0.90916 0.0
H1392 H 0.61348 0.23069 0.61685 0.0
H1393 H 0.55359 0.23214 0.66206 0.0
H1394 H 0.53891 0.18061 0.64507 0.0
H1395 H 0.54451 0.13461 0.61955 0.0
H1396 H 0.60568 0.13376 0.57642 0.0
H1397 H 0.61833 0.18565 0.59035 0.0
C1398 C 0.59709 0.21986 0.62284 0.0
C1399 C 0.58472 0.23524 0.64078 0.0
C1400 C 0.58903 0.19027 0.61346 0.0
C1401 C 0.56353 0.22078 0.64835 0.0
C1402 C 0.55513 0.19131 0.63866 0.0
C1403 C 0.56046 0.14586 0.61299 0.0
C1404 C 0.57421 0.13034 0.59714 0.0
C1405 C 0.56794 0.17575 0.62153 0.0
C1406 C 0.59491 0.14516 0.58889 0.0
C1407 C 0.60216 0.17485 0.59679 0.0
H1408 H 0.57724 0.74597 0.40549 0.0
H1409 H 0.56583 0.82552 0.3806 0.0
H1410 H 0.60308 0.83102 0.36115 0.0
H1411 H 0.6395 0.81424 0.35214 0.0
H1412 H 0.65195 0.73541 0.37764 0.0
H1413 H 0.6137 0.72851 0.39542 0.0
C1414 C 0.58281 0.76439 0.39562 0.0
C1415 C 0.56863 0.78532 0.39465 0.0
C1416 C 0.60454 0.76763 0.38457 0.0
C1417 C 0.57628 0.80908 0.38181 0.0
C1418 C 0.59766 0.8123 0.37065 0.0
C1419 C 0.634 0.79564 0.36179 0.0
C1420 C 0.64882 0.77552 0.36369 0.0
C1421 C 0.61207 0.79191 0.37218 0.0
C1422 C 0.64095 0.7512 0.37568 0.0
C1423 C 0.61909 0.7473 0.38601 0.0
H1424 H 0.17007 0.29515 0.52068 0.0
H1425 H 0.11568 0.27002 0.44687 0.0
H1426 H 0.11231 0.21969 0.45119 0.0
H1427 H 0.11423 0.18795 0.48573 0.0
H1428 H 0.16898 0.21217 0.55972 0.0
H1429 H 0.183 0.25794 0.5453 0.0
C1430 C 0.15853 0.27844 0.50463 0.0
C1431 C 0.14239 0.28602 0.48429 0.0
C1432 C 0.15599 0.24969 0.508 0.0
C1433 C 0.12795 0.26454 0.46307 0.0
C1434 C 0.12571 0.23576 0.46584 0.0
C1435 C 0.12995 0.20236 0.49825 0.0
C1436 C 0.1393 0.19744 0.525 0.0
C1437 C 0.13796 0.22861 0.48983 0.0
C1438 C 0.16024 0.21629 0.54006 0.0
C1439 C 0.16846 0.24242 0.53171 0.0
H1440 H 0.61177 0.24336 0.21285 0.0
H1441 H 0.60492 0.15534 0.22504 0.0
H1442 H 0.64593 0.15618 0.21573 0.0
H1443 H 0.68381 0.18248 0.20499 0.0
H1444 H 0.69069 0.27182 0.19691 0.0
H1445 H 0.6491 0.26936 0.20242 0.0
C1446 C 0.61922 0.22431 0.21359 0.0
C1447 C 0.60541 0.19938 0.21986 0.0
C1448 C 0.64265 0.22504 0.20843 0.0
C1449 C 0.61534 0.17493 0.22068 0.0
C1450 C 0.63868 0.17534 0.21512 0.0
C1451 C 0.67627 0.20146 0.20452 0.0
C1452 C 0.69056 0.2273 0.20053 0.0
C1453 C 0.65253 0.20036 0.20909 0.0
C1454 C 0.6802 0.25146 0.19936 0.0
C1455 C 0.65644 0.25025 0.20299 0.0
H1456 H 0.5937 0.92194 0.06401 0.0
H1457 H 0.61733 0.95768 0.99348 0.0
H1458 H 0.63512 1.00367 0.02474 0.0
H1459 H 0.62945 0.0363 0.06662 0.0
H1460 H 0.59885 1.0006 0.13372 0.0
H1461 H 0.59862 0.95223 0.10998 0.0
C1462 C 0.6036 0.93955 0.05576 0.0
C1463 C 0.60336 0.93719 0.02651 0.0
C1464 C 0.61181 0.96626 0.07328 0.0
C1465 C 0.61682 0.95946 0.01592 0.0
C1466 C 0.62664 0.98583 0.03375 0.0
C1467 C 0.62385 1.01795 0.07661 0.0
C1468 C 0.61351 0.02162 0.10134 0.0
C1469 C 0.62206 0.99012 0.06172 0.0
C1470 C 0.60649 0.99797 0.1144 0.0
C1471 C 0.60616 0.97035 0.10069 0.0
H1472 H 0.98496 0.70842 0.78938 0.0
H1473 H 0.03424 0.78358 0.77827 0.0
H1474 H 1.0154 0.81426 0.8094 0.0
H1475 H 0.981 0.8201 0.8329 0.0
H1476 H 0.9279 0.74526 0.83685 0.0
H1477 H 0.95243 0.71408 0.81667 0.0
C1478 C 0.99197 0.73143 0.79459 0.0
C1479 C 1.01086 0.74389 0.78178 0.0
C1480 C 0.98016 0.74901 0.81111 0.0
C1481 C 1.01965 0.7737 0.78805 0.0
C1482 C 1.00882 0.7912 0.80568 0.0
C1483 C 0.97489 0.79697 0.82958 0.0
C1484 C 0.95249 0.78512 0.83625 0.0
C1485 C 0.98838 0.77919 0.81622 0.0
C1486 C 0.94518 0.75505 0.83243 0.0
C1487 C 0.95907 0.73714 0.82044 0.0
H1488 H 0.13687 0.05635 0.91556 0.0
H1489 H 0.12296 0.96623 0.88024 0.0
H1490 H 0.09866 0.95557 0.9172 0.0
H1491 H 0.07851 0.97227 0.95816 0.0
H1492 H 0.09508 0.06209 0.99503 0.0
H1493 H 0.12095 0.07221 0.9596 0.0
C1494 C 0.12893 0.03421 0.91611 0.0
C1495 C 0.13212 1.01216 0.89458 0.0
C1496 C 0.11512 0.02816 0.93797 0.0
C1497 C 0.12138 0.98375 0.89623 0.0
C1498 C 0.10718 0.97768 0.91743 0.0
C1499 C 0.0881 0.99405 0.95881 0.0
C1500 C 0.08476 1.01637 0.97998 0.0
C1501 C 0.1035 0.99972 0.93823 0.0
C1502 C 0.09741 0.04433 0.97982 0.0
C1503 C 0.11214 0.05017 0.95919 0.0
H1504 H 0.72092 0.36353 0.59416 0.0
H1505 H 0.7042 0.27273 0.56057 0.0
H1506 H 0.69356 0.26223 0.60563 0.0
H1507 H 0.70211 0.278 0.6565 0.0
H1508 H 0.72409 0.36834 0.69141 0.0
H1509 H 0.71879 0.38004 0.64399 0.0
C1510 C 0.71402 0.34155 0.5964 0.0
C1511 C 0.71417 0.31884 0.57462 0.0
C1512 C 0.70937 0.33561 0.62287 0.0
C1513 C 0.70485 0.29048 0.57747 0.0
C1514 C 0.69886 0.28447 0.60325 0.0
C1515 C 0.70463 0.30032 0.65393 0.0
C1516 C 0.7144 0.32224 0.67726 0.0
C1517 C 0.70303 0.30671 0.62661 0.0
C1518 C 0.71725 0.35105 0.67358 0.0
C1519 C 0.7144 0.35773 0.64645 0.0
H1520 H 0.46122 0.04303 0.42521 0.0
H1521 H 0.51781 0.09357 0.39246 0.0
H1522 H 0.54564 0.09501 0.43551 0.0
H1523 H 0.55522 0.0779 0.48063 0.0
H1524 H 0.4987 0.02958 0.51533 0.0
H1525 H 0.46976 0.03149 0.47406 0.0
C1526 C 0.47941 0.0553 0.42795 0.0
C1527 C 0.48707 0.06892 0.40556 0.0
C1528 C 0.49556 0.05595 0.45313 0.0
C1529 C 0.51106 0.08369 0.40937 0.0
C1530 C 0.52714 0.08417 0.43398 0.0
C1531 C 0.53649 0.06811 0.47944 0.0
C1532 C 0.52936 0.05338 0.5013 0.0
C1533 C 0.51981 0.06978 0.45572 0.0
C1534 C 0.50488 0.04109 0.49916 0.0
C1535 C 0.48829 0.0421 0.47534 0.0
H1536 H 0.80203 0.71819 0.13473 0.0
H1537 H 0.74015 0.75653 0.12362 0.0
H1538 H 0.74625 0.77524 0.17404 0.0
H1539 H 0.76806 0.77909 0.22181 0.0
H1540 H 0.83063 0.74203 0.23285 0.0
H1541 H 0.82532 0.72462 0.18217 0.0
C1542 C 0.79 0.73082 0.14331 0.0
C1543 C 0.7706 0.73573 0.12537 0.0
C1544 C 0.79361 0.74167 0.17243 0.0
C1545 C 0.75526 0.75234 0.13686 0.0
C1546 C 0.75865 0.763 0.16578 0.0
C1547 C 0.78052 0.76722 0.21311 0.0
C1548 C 0.79956 0.76173 0.23113 0.0
C1549 C 0.77756 0.75748 0.18383 0.0
C1550 C 0.81578 0.74663 0.21947 0.0
C1551 C 0.81276 0.73658 0.19045 0.0
H1552 H 0.10929 0.0503 0.743 0.0
H1553 H 0.13964 0.97614 0.72139 0.0
H1554 H 0.12175 0.9717 0.67152 0.0
H1555 H 0.09788 0.99023 0.63303 0.0
H1556 H 0.07048 0.0664 0.65699 0.0
H1557 H 0.08657 0.0684 0.70622 0.0
C1558 C 0.112 0.03289 0.72761 0.0
C1559 C 0.12588 1.01345 0.73661 0.0
C1560 C 0.10206 0.03086 0.69887 0.0
C1561 C 0.1291 0.99144 0.71564 0.0
C1562 C 0.11882 0.98894 0.68691 0.0
C1563 C 0.09528 1.00712 0.64905 0.0
C1564 C 0.08273 0.02819 0.64073 0.0
C1565 C 0.10528 1.00866 0.67808 0.0
C1566 C 0.07999 0.04998 0.66219 0.0
C1567 C 0.08923 0.05116 0.69062 0.0
H1568 H 0.7205 0.29304 0.41722 0.0
H1569 H 0.78421 0.35929 0.44664 0.0
H1570 H 0.80209 0.34184 0.40646 0.0
H1571 H 0.80166 0.30338 0.36809 0.0
H1572 H 0.73553 0.2463 0.32871 0.0
H1573 H 0.71646 0.2627 0.36927 0.0
C1574 C 0.73777 0.30442 0.41395 0.0
C1575 C 0.75117 0.32721 0.43477 0.0
C1576 C 0.74773 0.29488 0.3902 0.0
C1577 C 0.77354 0.3419 0.43063 0.0
C1578 C 0.784 0.33156 0.40806 0.0
C1579 C 0.78296 0.29529 0.36761 0.0
C1580 C 0.77013 0.27392 0.34553 0.0
C1581 C 0.77162 0.30735 0.38856 0.0
C1582 C 0.74586 0.2627 0.34586 0.0
C1583 C 0.73493 0.27236 0.36871 0.0
H1584 H 0.49149 0.01935 0.24346 0.0
H1585 H 0.47558 0.10374 0.24782 0.0
H1586 H 0.49616 0.11058 0.20708 0.0
H1587 H 0.51928 0.09269 0.16912 0.0
H1588 H 0.53312 1.0072 0.1659 0.0
H1589 H 0.51308 1.0013 0.20647 0.0
C1590 C 0.49232 0.03942 0.23562 0.0
C1591 C 0.4817 0.06099 0.24937 0.0
C1592 C 0.50404 0.0432 0.21182 0.0
C1593 C 0.48322 0.08654 0.23813 0.0
C1594 C 0.49516 0.09052 0.21461 0.0
C1595 C 0.51792 0.07274 0.17722 0.0
C1596 C 0.52807 0.05043 0.16372 0.0
C1597 C 0.50575 0.06907 0.20109 0.0
C1598 C 0.52577 0.02488 0.17514 0.0
C1599 C 0.51417 0.02139 0.19863 0.0
H1600 H 0.76891 0.76666 0.98707 0.0
H1601 H 0.79059 0.68748 0.95901 0.0
H1602 H 0.80315 0.70605 0.91745 0.0
H1603 H 0.80712 0.74472 0.88876 0.0
H1604 H 0.7882 0.825 0.91934 0.0
H1605 H 0.77509 0.806 0.96028 0.0
C1606 C 0.77643 0.75346 0.97188 0.0
C1607 C 0.77864 0.72565 0.9759 0.0
C1608 C 0.78389 0.76443 0.94847 0.0
C1609 C 0.78876 0.70897 0.95634 0.0
C1610 C 0.7958 0.71953 0.93255 0.0
C1611 C 0.80002 0.75793 0.90439 0.0
C1612 C 0.79832 0.78608 0.90105 0.0
C1613 C 0.79326 0.74715 0.9283 0.0
C1614 C 0.78955 0.80326 0.92156 0.0
C1615 C 0.78211 0.79242 0.94491 0.0
H1616 H 0.84345 0.07765 0.07978 0.0
H1617 H 0.90096 0.13255 0.14075 0.0
H1618 H 0.92755 0.10002 0.12906 0.0
H1619 H 0.93565 0.05901 0.09785 0.0
H1620 H 0.87844 1.00493 0.03598 0.0
H1621 H 0.8506 0.03428 0.0516 0.0
C1622 C 0.86168 0.08231 0.09088 0.0
C1623 C 0.87023 0.10769 0.11094 0.0
C1624 C 0.87704 0.06387 0.08359 0.0
C1625 C 0.89392 0.11328 0.12511 0.0
C1626 C 0.90919 0.09474 0.11835 0.0
C1627 C 0.91697 0.05324 0.08819 0.0
C1628 C 0.90919 0.0299 0.06562 0.0
C1629 C 0.90112 0.0704 0.09707 0.0
C1630 C 0.88498 0.02302 0.0531 0.0
C1631 C 0.86903 0.03974 0.06208 0.0
H1632 H 0.42938 0.42323 0.06218 0.0
H1633 H 0.40183 0.48046 0.12061 0.0
H1634 H 0.4357 0.51966 0.11943 0.0
H1635 H 0.47429 0.53665 0.1031 0.0
H1636 H 0.49866 0.48011 0.04081 0.0
H1637 H 0.46504 0.44133 0.04229 0.0
C1638 C 0.43079 0.44432 0.07466 0.0
C1639 C 0.41343 0.44894 0.09183 0.0
C1640 C 0.4499 0.46662 0.07339 0.0
C1641 C 0.41508 0.47645 0.10735 0.0
C1642 C 0.43445 0.49876 0.10671 0.0
C1643 C 0.47213 0.51582 0.08984 0.0
C1644 C 0.48965 0.51056 0.07303 0.0
C1645 C 0.45213 0.49398 0.09003 0.0
C1646 C 0.48633 0.48389 0.05532 0.0
C1647 C 0.46685 0.46195 0.05577 0.0
H1648 H 0.38001 0.62785 0.75001 0.0
H1649 H 0.3889 0.61502 0.83655 0.0
H1650 H 0.36674 0.65305 0.84891 0.0
H1651 H 0.34427 0.69113 0.83504 0.0
H1652 H 0.33644 0.70214 0.7477 0.0
H1653 H 0.3583 0.66456 0.73641 0.0
C1654 C 0.37723 0.63313 0.77173 0.0
C1655 C 0.38655 0.61783 0.79216 0.0
C1656 C 0.36433 0.65526 0.77875 0.0
C1657 C 0.3823 0.62582 0.82006 0.0
C1658 C 0.36946 0.64783 0.82718 0.0
C1659 C 0.34722 0.68532 0.81348 0.0
C1660 C 0.33814 0.70026 0.79237 0.0
C1661 C 0.36026 0.6629 0.80673 0.0
C1662 C 0.3427 0.69175 0.7647 0.0
C1663 C 0.35541 0.66993 0.75807 0.0
H1664 H 0.25551 0.71353 0.60277 0.0
H1665 H 0.26266 0.63034 0.62164 0.0
H1666 H 0.21982 0.61851 0.62428 0.0
H1667 H 0.18031 0.63152 0.62006 0.0
H1668 H 0.17389 0.71551 0.6029 0.0
H1669 H 0.21663 0.72724 0.60055 0.0
C1670 C 0.24774 0.6927 0.60731 0.0
C1671 C 0.26225 0.67268 0.61165 0.0
C1672 C 0.22325 0.68618 0.60897 0.0
C1673 C 0.25189 0.64606 0.61806 0.0
C1674 C 0.2274 0.63929 0.61953 0.0
C1675 C 0.18829 0.65252 0.61611 0.0
C1676 C 0.17384 0.67257 0.61153 0.0
C1677 C 0.21291 0.65916 0.61489 0.0
C1678 C 0.18447 0.69953 0.60606 0.0
C1679 C 0.20893 0.70628 0.60483 0.0
H1680 H 0.75858 0.97285 0.85351 0.0
H1681 H 0.68714 0.92455 0.82048 0.0
H1682 H 0.70252 0.88005 0.81419 0.0
H1683 H 0.73688 0.8539 0.81893 0.0
H1684 H 0.80789 0.90405 0.85135 0.0
H1685 H 0.79211 0.94768 0.85731 0.0
C1686 C 0.74613 0.95266 0.84505 0.0
C1687 C 0.72141 0.95273 0.83764 0.0
C1688 C 0.75517 0.92687 0.84163 0.0
C1689 C 0.7061 0.9258 0.82659 0.0
C1690 C 0.715 0.90008 0.82308 0.0
C1691 C 0.74892 0.8743 0.8274 0.0
C1692 C 0.77388 0.87492 0.83469 0.0
C1693 C 0.73957 0.90014 0.83066 0.0
C1694 C 0.78882 0.90214 0.84539 0.0
C1695 C 0.77972 0.92744 0.8489 0.0
H1696 H 0.76889 0.93254 0.54078 0.0
H1697 H 0.80235 0.97478 0.62503 0.0
H1698 H 0.76784 0.99709 0.63045 0.0
H1699 H 0.72759 1.00394 0.61126 0.0
H1700 H 0.69448 0.96014 0.5273 0.0
H1701 H 0.72923 0.9389 0.52199 0.0
C1702 C 0.76881 0.94678 0.56032 0.0
C1703 C 0.78836 0.95208 0.5824 0.0
C1704 C 0.74876 0.95907 0.56345 0.0
C1705 C 0.78764 0.97035 0.60764 0.0
C1706 C 0.76786 0.98308 0.61076 0.0
C1707 C 0.72803 0.9898 0.59179 0.0
C1708 C 0.70825 0.98352 0.5698 0.0
C1709 C 0.74822 0.97749 0.58883 0.0
C1710 C 0.70914 0.96498 0.54479 0.0
C1711 C 0.72914 0.95297 0.54162 0.0
H1712 H 0.36143 0.46946 0.80625 0.0
H1713 H 0.40712 0.4197 0.76642 0.0
H1714 H 0.38117 0.37547 0.77117 0.0
H1715 H 0.34506 0.34911 0.78676 0.0
H1716 H 0.29786 0.39794 0.82411 0.0
H1717 H 0.32426 0.44279 0.82038 0.0
C1718 C 0.36561 0.44902 0.79826 0.0
C1719 C 0.38671 0.44879 0.78596 0.0
C1720 C 0.35018 0.42271 0.8009 0.0
C1721 C 0.39137 0.42142 0.7761 0.0
C1722 C 0.37642 0.39566 0.77885 0.0
C1723 C 0.34064 0.36954 0.79435 0.0
C1724 C 0.31934 0.36966 0.80607 0.0
C1725 C 0.3558 0.3958 0.79142 0.0
C1726 C 0.31403 0.39673 0.81516 0.0
C1727 C 0.3292 0.42267 0.81292 0.0
H1728 H 0.20561 0.63723 0.3748 0.0
H1729 H 0.2312 0.58674 0.30873 0.0
H1730 H 0.2584 0.6302 0.30177 0.0
H1731 H 0.27243 0.684 0.31192 0.0
H1732 H 0.24639 0.7329 0.37891 0.0
H1733 H 0.22219 0.68904 0.38799 0.0
C1734 C 0.21752 0.63552 0.35925 0.0
C1735 C 0.21629 0.60845 0.34243 0.0
C1736 C 0.23295 0.66066 0.35527 0.0
C1737 C 0.23189 0.60696 0.32234 0.0
C1738 C 0.24727 0.63201 0.31812 0.0
C1739 C 0.26161 0.685 0.32866 0.0
C1740 C 0.26155 0.71211 0.34486 0.0
C1741 C 0.24756 0.65921 0.33399 0.0
C1742 C 0.24737 0.71267 0.36647 0.0
C1743 C 0.23328 0.68745 0.37156 0.0
H1744 H 0.54195 0.69723 0.48662 0.0
H1745 H 0.46685 0.67071 0.49048 0.0
H1746 H 0.47427 0.62832 0.50947 0.0
H1747 H 0.50243 0.59992 0.52711 0.0
H1748 H 0.57795 0.62849 0.52636 0.0
H1749 H 0.57011 0.66885 0.50431 0.0
C1750 C 0.52723 0.68192 0.49128 0.0
C1751 C 0.50392 0.68692 0.48705 0.0
C1752 C 0.53174 0.65812 0.50312 0.0
C1753 C 0.48499 0.66724 0.49361 0.0
C1754 C 0.48921 0.64306 0.50452 0.0
C1755 C 0.51713 0.61496 0.52206 0.0
C1756 C 0.54071 0.61127 0.52853 0.0
C1757 C 0.51257 0.63848 0.50976 0.0
C1758 C 0.55962 0.631 0.52193 0.0
C1759 C 0.55517 0.65404 0.50916 0.0
H1760 H 0.64994 0.30201 0.76376 0.0
H1761 H 0.69369 0.3629 0.72481 0.0
H1762 H 0.72891 0.36213 0.75831 0.0
H1763 H 0.74783 0.34153 0.79647 0.0
H1764 H 0.70427 0.28143 0.83645 0.0
H1765 H 0.66853 0.28389 0.80441 0.0
C1766 C 0.66712 0.31545 0.763 0.0
C1767 C 0.66933 0.33236 0.7418 0.0
C1768 C 0.68742 0.31447 0.78203 0.0
C1769 C 0.69169 0.34953 0.74083 0.0
C1770 C 0.71182 0.34904 0.75992 0.0
C1771 C 0.73049 0.32902 0.79816 0.0
C1772 C 0.72862 0.31118 0.81858 0.0
C1773 C 0.71002 0.33101 0.7801 0.0
C1774 C 0.70608 0.29524 0.82077 0.0
C1775 C 0.68566 0.29671 0.80253 0.0
H1776 H 0.03866 0.35262 0.99835 0.0
H1777 H 0.97626 0.34074 0.03972 0.0
H1778 H 0.9849 0.39187 0.05945 0.0
H1779 H 1.00925 0.44048 0.06333 0.0
H1780 H 0.07253 0.45185 0.02357 0.0
H1781 H 0.06442 0.40052 1.0048 0.0
C1782 C 0.02706 0.36118 1.01186 0.0
C1783 C 1.0068 0.34292 0.01739 0.0
C1784 C 0.03216 0.39059 0.02325 0.0
C1785 C 0.99204 0.3543 0.03515 0.0
C1786 C 0.99687 0.38359 0.04634 0.0
C1787 C 1.02121 0.43166 0.05053 0.0
C1788 C 0.0413 0.44989 0.04463 0.0
C1789 C 1.01669 0.40201 0.0402 0.0
C1790 C 0.05691 0.4382 0.02841 0.0
C1791 C 0.0523 0.40887 0.01764 0.0
H1792 H 1.01952 0.7613 0.20844 0.0
H1793 H 0.05451 0.84725 0.24979 0.0
H1794 H 1.01995 0.85137 0.27377 0.0
H1795 H 0.9797 0.83017 0.28319 0.0
H1796 H 0.94484 0.7447 0.24026 0.0
H1797 H 0.97931 0.74093 0.21651 0.0
C1798 C 1.01968 0.78094 0.22278 0.0
C1799 C 0.03968 0.80384 0.22749 0.0
C1800 C 0.99966 0.78331 0.23608 0.0
C1801 C 0.03937 0.82926 0.24582 0.0
C1802 C 1.01961 0.83163 0.25954 0.0
C1803 C 0.9797 0.81076 0.26862 0.0
C1804 C 0.95966 0.78779 0.26344 0.0
C1805 C 0.99964 0.80875 0.25487 0.0
C1806 C 0.95984 0.76285 0.24433 0.0
C1807 C 0.97963 0.76058 0.23088 0.0
H1808 H 0.54225 0.25541 0.10746 0.0
H1809 H 0.57934 0.30684 0.18672 0.0
H1810 H 0.59119 0.34751 0.163 0.0
H1811 H 0.58764 0.36949 0.12094 0.0
H1812 H 0.5442 0.32052 0.04358 0.0
H1813 H 0.53948 0.27744 0.06477 0.0
C1814 C 0.55313 0.27548 0.11936 0.0
C1815 C 0.55979 0.27845 0.14868 0.0
C1816 C 0.55894 0.29907 0.10583 0.0
C1817 C 0.57378 0.30442 0.16412 0.0
C1818 C 0.58063 0.32754 0.15058 0.0
C1819 C 0.57699 0.3495 0.10866 0.0
C1820 C 0.56589 0.34863 0.08086 0.0
C1821 C 0.57272 0.32532 0.1216 0.0
C1822 C 0.55312 0.32207 0.06496 0.0
C1823 C 0.55007 0.29739 0.07721 0.0
H1824 H 0.03488 0.3695 0.46044 0.0
H1825 H 0.02777 0.29862 0.50598 0.0
H1826 H 0.9841 0.29166 0.4963 0.0
H1827 H 0.94793 0.30467 0.47308 0.0
H1828 H 0.95554 0.37679 0.42922 0.0
H1829 H 0.99906 0.38473 0.44052 0.0
C1830 C 0.02376 0.35245 0.46813 0.0
C1831 C 0.03444 0.33425 0.48343 0.0
C1832 C 0.99879 0.349 0.46301 0.0
C1833 C 1.01988 0.31272 0.49392 0.0
C1834 C 0.99495 0.30877 0.48843 0.0
C1835 C 0.9592 0.32222 0.46624 0.0
C1836 C 0.94865 0.34004 0.45027 0.0
C1837 C 0.98422 0.32664 0.47278 0.0
C1838 C 0.96331 0.36294 0.44173 0.0
C1839 C 0.98816 0.36733 0.44796 0.0
H1840 H 0.99881 0.66624 0.61994 0.0
H1841 H 0.96383 0.61107 0.67151 0.0
H1842 H 0.95729 0.57001 0.63295 0.0
H1843 H 0.97134 0.54862 0.59074 0.0
H1844 H 1.0131 0.60322 0.54396 0.0
H1845 H 1.00678 0.64581 0.57391 0.0
C1846 C 0.98886 0.64547 0.62231 0.0
C1847 C 0.98215 0.64142 0.64858 0.0
C1848 C 0.98693 0.62175 0.60099 0.0
C1849 C 0.96941 0.61446 0.65152 0.0
C1850 C 0.96583 0.59101 0.62954 0.0
C1851 C 0.9783 0.56984 0.58648 0.0
C1852 C 0.99306 0.57298 0.56564 0.0
C1853 C 0.97605 0.5941 0.60505 0.0
C1854 C 1.00194 0.60047 0.56019 0.0
C1855 C 0.99846 0.62476 0.57742 0.0
H1856 H 0.63857 0.88735 0.90013 0.0
H1857 H 0.58047 0.81386 0.89099 0.0
H1858 H 0.60157 0.78477 0.86167 0.0
H1859 H 0.63757 0.77926 0.84092 0.0
H1860 H 0.69641 0.85195 0.85192 0.0
H1861 H 0.67384 0.88238 0.87758 0.0
C1862 C 0.63042 0.86506 0.89151 0.0
C1863 C 0.60807 0.85279 0.89797 0.0
C1864 C 0.64277 0.84828 0.87488 0.0
C1865 C 0.59776 0.82384 0.88655 0.0
C1866 C 0.6098 0.80713 0.86977 0.0
C1867 C 0.64534 0.8018 0.84883 0.0
C1868 C 0.66846 0.81345 0.84424 0.0
C1869 C 0.63249 0.81897 0.8642 0.0
C1870 C 0.67836 0.8427 0.85452 0.0
C1871 C 0.66558 0.86002 0.86951 0.0
H1872 H 0.47234 0.50137 0.69491 0.0
H1873 H 0.48243 0.59063 0.73207 0.0
H1874 H 0.50669 0.60388 0.69577 0.0
H1875 H 0.52779 0.58989 0.6546 0.0
H1876 H 0.51527 0.50071 0.61631 0.0
H1877 H 0.48951 0.48799 0.65114 0.0
C1878 C 0.47945 0.52388 0.69497 0.0
C1879 C 0.47511 0.54487 0.71686 0.0
C1880 C 0.49328 0.53144 0.67348 0.0
C1881 C 0.48485 0.5738 0.71588 0.0
C1882 C 0.49904 0.58139 0.69501 0.0
C1883 C 0.51909 0.56767 0.65347 0.0
C1884 C 0.52346 0.54638 0.63188 0.0
C1885 C 0.50377 0.56042 0.67384 0.0
C1886 C 0.51203 0.51778 0.63164 0.0
C1887 C 0.49737 0.51044 0.65199 0.0
H1888 H 0.79397 0.18234 0.05361 0.0
H1889 H 0.84962 0.18314 1.00189 0.0
H1890 H 0.82509 0.19964 0.96527 0.0
H1891 H 0.79548 0.22908 0.95688 0.0
H1892 H 0.74654 0.24046 0.0158 0.0
H1893 H 0.76029 0.20435 0.04086 0.0
C1894 C 0.80013 0.18467 0.03362 0.0
C1895 C 0.82359 0.18197 0.03041 0.0
C1896 C 0.78733 0.19769 0.01459 0.0
C1897 C 0.83158 0.18513 1.00467 0.0
C1898 C 0.81774 0.19515 0.98406 0.0
C1899 C 0.78721 0.22259 0.97451 0.0
C1900 C 0.77022 0.23712 0.98478 0.0
C1901 C 0.79671 0.20391 0.99005 0.0
C1902 C 0.75963 0.22928 1.00773 0.0
C1903 C 0.76764 0.20885 0.02207 0.0
H1904 H 0.13378 0.56593 0.24378 0.0
H1905 H 0.10593 0.47753 0.24826 0.0
H1906 H 0.08289 0.47072 0.20047 0.0
H1907 H 0.06861 0.491 0.15791 0.0
H1908 H 0.09976 0.57839 0.15271 0.0
H1909 H 0.12336 0.58436 0.19967 0.0
C1910 C 0.12295 0.54498 0.23419 0.0
C1911 C 0.12174 0.52227 0.24997 0.0
C1912 C 0.11007 0.54112 0.20636 0.0
C1913 C 0.10755 0.49535 0.23685 0.0
C1914 C 0.09417 0.49155 0.20946 0.0
C1915 C 0.08074 0.51129 0.16693 0.0
C1916 C 0.08206 0.53435 0.15149 0.0
C1917 C 0.09495 0.5144 0.19407 0.0
C1918 C 0.09818 0.56027 0.16372 0.0
C1919 C 0.1117 0.56373 0.19078 0.0
H1920 H 0.85075 0.81586 0.51131 0.0
H1921 H 0.80331 0.87551 0.51321 0.0
H1922 H 0.7901 0.8605 0.46221 0.0
H1923 H 0.7947 0.83306 0.41627 0.0
H1924 H 0.84432 0.77598 0.4155 0.0
H1925 H 0.85387 0.78726 0.4668 0.0
C1926 C 0.83728 0.82541 0.50075 0.0
C1927 C 0.82819 0.84696 0.51614 0.0
C1928 C 0.83029 0.81725 0.47145 0.0
C1929 C 0.81076 0.85901 0.50192 0.0
C1930 C 0.80323 0.85046 0.47271 0.0
C1931 C 0.80736 0.82289 0.42744 0.0
C1932 C 0.81894 0.80391 0.4121 0.0
C1933 C 0.81327 0.83003 0.45713 0.0
C1934 C 0.8354 0.79095 0.42678 0.0
C1935 C 0.84085 0.79733 0.45615 0.0
H1936 H 0.4777 0.57348 0.8938 0.0
H1937 H 0.48682 0.48839 0.861 0.0
H1938 H 0.50607 0.48408 0.90699 0.0
H1939 H 0.52125 0.50353 0.95732 0.0
H1940 H 0.51429 0.58894 0.99145 0.0
H1941 H 0.49394 0.59365 0.94539 0.0
C1942 C 0.48384 0.55399 0.89666 0.0
C1943 C 0.48055 0.53142 0.873 0.0
C1944 C 0.49563 0.55148 0.92396 0.0
C1945 C 0.48899 0.50649 0.87798 0.0
C1946 C 0.50012 0.50381 0.90465 0.0
C1947 C 0.51533 0.52325 0.95488 0.0
C1948 C 0.51959 0.54574 0.97853 0.0
C1949 C 0.5037 0.52608 0.9279 0.0
C1950 C 0.51158 0.57106 0.97413 0.0
C1951 C 0.49977 0.57382 0.94751 0.0
H1952 H 0.89438 0.24345 0.19651 0.0
H1953 H 0.86711 0.30724 0.15552 0.0
H1954 H 0.86279 0.33316 0.20092 0.0
H1955 H 0.85904 0.33202 0.25092 0.0
H1956 H 0.88993 0.27134 0.29279 0.0
H1957 H 0.90035 0.2498 0.24846 0.0
C1958 C 0.88835 0.26359 0.19763 0.0
C1959 C 0.88039 0.27283 0.17264 0.0
C1960 C 0.88584 0.2785 0.22387 0.0
C1961 C 0.87307 0.29931 0.17441 0.0
C1962 C 0.87029 0.31407 0.20038 0.0
C1963 C 0.86855 0.31454 0.25034 0.0
C1964 C 0.87299 0.30259 0.27461 0.0
C1965 C 0.8753 0.30291 0.22501 0.0
C1966 C 0.88588 0.28046 0.27405 0.0
C1967 C 0.8919 0.26815 0.24876 0.0
H1968 H 0.11447 0.57103 0.41388 0.0
H1969 H 0.13065 0.48703 0.41285 0.0
H1970 H 0.11172 0.48258 0.45542 0.0
H1971 H 0.08935 0.50265 0.49316 0.0
H1972 H 0.07586 0.58798 0.49346 0.0
H1973 H 0.0946 0.59145 0.45146 0.0
C1974 C 0.11397 0.55155 0.42274 0.0
C1975 C 0.12408 0.52929 0.4094 0.0
C1976 C 0.10324 0.54931 0.44745 0.0
C1977 C 0.12321 0.50462 0.42211 0.0
C1978 C 0.11222 0.50206 0.4466 0.0
C1979 C 0.09048 0.52203 0.48406 0.0
C1980 C 0.08075 0.54502 0.497 0.0
C1981 C 0.10195 0.52423 0.45951 0.0
C1982 C 0.08291 0.56989 0.48457 0.0
C1983 C 0.09371 0.57192 0.46028 0.0
H1984 H 0.84598 0.81636 0.66048 0.0
H1985 H 0.83166 0.90042 0.68615 0.0
H1986 H 0.81908 0.88594 0.72938 0.0
H1987 H 0.81165 0.8488 0.75963 0.0
H1988 H 0.82345 0.76402 0.73141 0.0
H1989 H 0.83777 0.77942 0.68959 0.0
C1990 C 0.84019 0.83161 0.67555 0.0
C1991 C 0.8399 0.85951 0.67014 0.0
C1992 C 0.83261 0.82298 0.69998 0.0
C1993 C 0.83203 0.87881 0.68976 0.0
C1994 C 0.8249 0.87055 0.71452 0.0
C1995 C 0.81754 0.83384 0.74437 0.0
C1996 C 0.81666 0.80535 0.74859 0.0
C1997 C 0.82509 0.84265 0.71985 0.0
C1998 C 0.82399 0.78603 0.72855 0.0
C1999 C 0.83215 0.79482 0.70464 0.0
H2000 H 0.74446 0.45164 0.56098 0.0
H2001 H 0.7296 0.45704 0.47255 0.0
H2002 H 0.71099 0.49801 0.48441 0.0
H2003 H 0.69532 0.52896 0.5195 0.0
H2004 H 0.70885 0.52171 0.6076 0.0
H2005 H 0.73216 0.4854 0.5963 0.0
C2006 C 0.73739 0.46194 0.54428 0.0
C2007 C 0.7381 0.451 0.51588 0.0
C2008 C 0.72649 0.48523 0.55121 0.0
C2009 C 0.72915 0.46489 0.49457 0.0
C2010 C 0.71844 0.48829 0.50133 0.0
C2011 C 0.70357 0.51962 0.53625 0.0
C2012 C 0.70015 0.52792 0.56433 0.0
C2013 C 0.71644 0.49812 0.52952 0.0
C2014 C 0.71134 0.51599 0.58585 0.0
C2015 C 0.72447 0.49495 0.57938 0.0
H2016 H 0.17268 0.12955 0.50292 0.0
H2017 H 0.21935 0.09338 0.55759 0.0
H2018 H 0.18478 0.05897 0.56575 0.0
H2019 H 0.14057 0.04219 0.5605 0.0
H2020 H 0.09485 0.07801 0.50433 0.0
H2021 H 0.12978 0.10888 0.49301 0.0
C2022 C 0.17536 0.1138 0.51625 0.0
C2023 C 0.19853 0.11413 0.52976 0.0
C2024 C 0.15548 0.09429 0.52092 0.0
C2025 C 0.20171 0.09346 0.5468 0.0
C2026 C 0.18191 0.07398 0.55169 0.0
C2027 C 0.13833 0.05685 0.54586 0.0
C2028 C 0.11512 0.05867 0.53409 0.0
C2029 C 0.1586 0.07472 0.53946 0.0
C2030 C 0.11246 0.07717 0.51461 0.0
C2031 C 0.13241 0.09471 0.508 0.0
H2032 H 0.23371 0.92944 0.86039 0.0
H2033 H 0.21023 0.9323 0.77304 0.0
H2034 H 0.22958 0.8921 0.75854 0.0
H2035 H 0.25362 0.85478 0.77076 0.0
H2036 H 0.27634 0.8542 0.85911 0.0
H2037 H 0.25717 0.8938 0.87238 0.0
C2038 C 0.23268 0.92152 0.83804 0.0
C2039 C 0.22012 0.93468 0.81805 0.0
C2040 C 0.244 0.89817 0.82977 0.0
C2041 C 0.21949 0.92327 0.78926 0.0
C2042 C 0.23069 0.9 0.7809 0.0
C2043 C 0.25454 0.86332 0.79294 0.0
C2044 C 0.26695 0.85062 0.81369 0.0
C2045 C 0.24311 0.88704 0.80093 0.0
C2046 C 0.26736 0.86271 0.84225 0.0
C2047 C 0.25622 0.88573 0.85008 0.0
H2048 H 0.3693 0.86023 0.96095 0.0
H2049 H 0.35669 0.94625 0.97898 0.0
H2050 H 0.39993 0.96529 0.99064 0.0
H2051 H 0.44072 0.95666 1.00028 0.0
H2052 H 0.45279 0.87043 0.98138 0.0
H2053 H 0.40993 0.8521 0.96633 0.0
C2054 C 0.37589 0.88324 0.96683 0.0
C2055 C 0.35971 0.9018 0.969 0.0
C2056 C 0.40057 0.89383 0.97415 0.0
C2057 C 0.36872 0.93151 0.97695 0.0
C2058 C 0.39342 0.94235 0.98388 0.0
C2059 C 0.43407 0.93394 0.99217 0.0
C2060 C 0.44993 0.91488 0.99214 0.0
C2061 C 0.40944 0.9236 0.98321 0.0
C2062 C 0.44093 0.88546 0.982 0.0
C2063 C 0.41646 0.87501 0.97326 0.0
H2064 H 0.85411 0.62138 0.79067 0.0
H2065 H 0.91981 0.66278 0.84619 0.0
H2066 H 0.90503 0.70767 0.85326 0.0
H2067 H 0.87337 0.73664 0.84226 0.0
H2068 H 0.80745 0.69268 0.7881 0.0
H2069 H 0.82265 0.64866 0.78147 0.0
C2070 C 0.86549 0.64017 0.80423 0.0
C2071 C 0.8884 0.63802 0.81767 0.0
C2072 C 0.85687 0.66624 0.80807 0.0
C2073 C 0.9023 0.66317 0.83527 0.0
C2074 C 0.89382 0.68918 0.83917 0.0
C2075 C 0.86231 0.71749 0.82892 0.0
C2076 C 0.83897 0.71871 0.81563 0.0
C2077 C 0.87115 0.69126 0.82547 0.0
C2078 C 0.82524 0.69308 0.79875 0.0
C2079 C 0.83401 0.66758 0.79486 0.0
H2080 H 0.84244 0.6522 0.07715 0.0
H2081 H 0.81818 0.59594 0.99653 0.0
H2082 H 0.85404 0.57588 1.00216 0.0
H2083 H 0.8923 0.57379 0.03004 0.0
H2084 H 0.91721 0.63092 0.11007 0.0
H2085 H 0.88123 0.65081 0.10462 0.0
C2086 C 0.84493 0.63548 0.06084 0.0
C2087 C 0.82745 0.62562 0.03647 0.0
C2088 C 0.86583 0.62409 0.06408 0.0
C2089 C 0.83121 0.60404 0.01552 0.0
C2090 C 0.85179 0.59251 0.0187 0.0
C2091 C 0.89006 0.59084 0.04617 0.0
C2092 C 0.9076 0.60064 0.07051 0.0
C2093 C 0.86927 0.60239 0.04285 0.0
C2094 C 0.90399 0.62251 0.0913 0.0
C2095 C 0.8834 0.63406 0.08815 0.0
H2096 H 0.19491 0.13095 0.81469 0.0
H2097 H 0.24994 0.08326 0.83176 0.0
H2098 H 0.28066 0.12626 0.83132 0.0
H2099 H 0.29203 0.1781 0.82636 0.0
H2100 H 0.23622 0.22361 0.80616 0.0
H2101 H 0.20596 0.18121 0.80793 0.0
C2102 C 0.21362 0.12969 0.81843 0.0
C2103 C 0.21979 0.10336 0.82352 0.0
C2104 C 0.2312 0.15452 0.81782 0.0
C2105 C 0.24433 0.10278 0.82785 0.0
C2106 C 0.26197 0.12756 0.82763 0.0
C2107 C 0.27323 0.17886 0.82245 0.0
C2108 C 0.26666 0.20493 0.81705 0.0
C2109 C 0.25567 0.15367 0.82271 0.0
C2110 C 0.2421 0.2048 0.81152 0.0
C2111 C 0.22468 0.18019 0.81217 0.0
H2112 H 0.39653 0.94982 0.28463 0.0
H2113 H 0.37686 1.00263 0.354 0.0
H2114 H 0.34896 0.96063 0.36267 0.0
H2115 H 0.33214 0.90738 0.35247 0.0
H2116 H 0.35053 0.85634 0.28069 0.0
H2117 H 0.37667 0.89871 0.27122 0.0
C2118 C 0.38576 0.95235 0.3013 0.0
C2119 C 0.38885 0.97965 0.31851 0.0
C2120 C 0.36967 0.92806 0.30606 0.0
C2121 C 0.37472 0.98222 0.34007 0.0
C2122 C 0.35892 0.95799 0.34526 0.0
C2123 C 0.3418 0.90557 0.33469 0.0
C2124 C 0.33938 0.87826 0.31754 0.0
C2125 C 0.35658 0.93056 0.32876 0.0
C2126 C 0.35187 0.87673 0.29434 0.0
C2127 C 0.36694 0.90109 0.28888 0.0
H2128 H 0.6218 0.39705 0.62184 0.0
H2129 H 0.55684 0.37773 0.65741 0.0
H2130 H 0.54113 0.41428 0.63509 0.0
H2131 H 0.54618 0.45217 0.6058 0.0
H2132 H 0.61236 0.47322 0.57313 0.0
H2133 H 0.6272 0.43523 0.59369 0.0
C2134 C 0.60419 0.40079 0.6247 0.0
C2135 C 0.59048 0.38465 0.64117 0.0
C2136 C 0.59544 0.42198 0.61215 0.0
C2137 C 0.56779 0.38996 0.64492 0.0
C2138 C 0.55875 0.41075 0.63206 0.0
C2139 C 0.5637 0.44811 0.60293 0.0
C2140 C 0.57809 0.46512 0.58777 0.0
C2141 C 0.57242 0.42685 0.61559 0.0
C2142 C 0.60099 0.46023 0.58467 0.0
C2143 C 0.60949 0.43861 0.59646 0.0
H2144 H 0.41314 0.76307 0.4283 0.0
H2145 H 0.45815 0.76381 0.36341 0.0
H2146 H 0.42438 0.7684 0.32914 0.0
H2147 H 0.38205 0.77371 0.31828 0.0
H2148 H 0.33855 0.77341 0.3845 0.0
H2149 H 0.37193 0.76735 0.41776 0.0
C2150 C 0.41576 0.76416 0.40666 0.0
C2151 C 0.43829 0.76317 0.39853 0.0
C2152 C 0.39653 0.76718 0.3874 0.0
C2153 C 0.44105 0.76451 0.3703 0.0
C2154 C 0.42175 0.76721 0.35073 0.0
C2155 C 0.38002 0.77233 0.34003 0.0
C2156 C 0.35811 0.77477 0.34925 0.0
C2157 C 0.39943 0.76882 0.35912 0.0
C2158 C 0.3555 0.77268 0.3773 0.0
C2159 C 0.37448 0.76888 0.3962 0.0
H2160 H 0.1096 0.73318 0.09655 0.0
H2161 H 0.05493 0.73671 0.14955 0.0
H2162 H 0.03863 0.68538 0.13331 0.0
H2163 H 0.0432 0.63839 0.10856 0.0
H2164 H 0.09998 0.63546 0.05862 0.0
H2165 H 0.11202 0.68767 0.06896 0.0
C2166 C 0.09388 0.72291 0.10427 0.0
C2167 C 0.08374 0.73871 0.12456 0.0
C2168 C 0.08511 0.69335 0.09556 0.0
C2169 C 0.06327 0.72499 0.13415 0.0
C2170 C 0.05397 0.69561 0.12493 0.0
C2171 C 0.0579 0.64932 0.09958 0.0
C2172 C 0.07088 0.63322 0.08315 0.0
C2173 C 0.06524 0.67938 0.10634 0.0
C2174 C 0.08996 0.64747 0.07167 0.0
C2175 C 0.09684 0.67729 0.07754 0.0
H2176 H 0.09819 0.29204 0.95302 0.0
H2177 H 0.04375 0.28295 0.88047 0.0
H2178 H 0.07462 0.29022 0.85039 0.0
H2179 H 0.11701 0.29767 0.84439 0.0
H2180 H 0.17111 0.30417 0.91679 0.0
H2181 H 0.14049 0.30026 0.94717 0.0
C2182 C 0.09302 0.29174 0.93064 0.0
C2183 C 0.06861 0.28681 0.91907 0.0
C2184 C 0.11086 0.29571 0.9134 0.0
C2185 C 0.06235 0.28657 0.88999 0.0
C2186 C 0.08002 0.29076 0.87275 0.0
C2187 C 0.12217 0.29813 0.86679 0.0
C2188 C 0.14652 0.30124 0.87809 0.0
C2189 C 0.10433 0.29507 0.88417 0.0
C2190 C 0.1527 0.30233 0.90736 0.0
C2191 C 0.13511 0.29976 0.92481 0.0
H2192 H 0.51674 0.81452 0.03506 0.0
H2193 H 0.54306 0.78281 0.95947 0.0
H2194 H 0.54228 0.7365 0.9746 0.0
H2195 H 0.53811 0.70703 1.01139 0.0
H2196 H 0.51477 0.73969 0.08862 0.0
H2197 H 0.51027 0.78377 0.07076 0.0
C2198 C 0.52191 0.79729 0.02169 0.0
C2199 C 0.53003 0.80203 0.99626 0.0
C2200 C 0.52213 0.77108 0.03093 0.0
C2201 C 0.53689 0.77967 0.97924 0.0
C2202 C 0.53647 0.75324 0.98787 0.0
C2203 C 0.53151 0.72355 0.02401 0.0
C2204 C 0.52666 0.72025 0.05116 0.0
C2205 C 0.52968 0.74898 0.01397 0.0
C2206 C 0.51863 0.74196 0.06764 0.0
C2207 C 0.51609 0.76708 0.05746 0.0
H2208 H 0.10748 0.6759 0.71358 0.0
H2209 H 0.08928 0.73917 0.66471 0.0
H2210 H 0.12918 0.74762 0.65196 0.0
H2211 H 0.1704 0.74061 0.65831 0.0
H2212 H 0.18925 0.67869 0.70831 0.0
H2213 H 0.14795 0.66574 0.71634 0.0
C2214 C 0.11222 0.69146 0.70007 0.0
C2215 C 0.09554 0.70729 0.69069 0.0
C2216 C 0.13535 0.69648 0.69292 0.0
C2217 C 0.10187 0.72701 0.67274 0.0
C2218 C 0.12469 0.73184 0.66531 0.0
C2219 C 0.16537 0.72405 0.67068 0.0
C2220 C 0.18288 0.71083 0.68285 0.0
C2221 C 0.14175 0.71723 0.67584 0.0
C2222 C 0.17607 0.68907 0.69848 0.0
C2223 C 0.15251 0.68189 0.70341 0.0
H2224 H 0.12119 0.42384 0.57866 0.0
H2225 H 0.14059 0.45313 0.50293 0.0
H2226 H 0.13388 0.5008 0.52083 0.0
H2227 H 0.11431 0.53006 0.55298 0.0
H2228 H 0.08683 0.49576 0.62253 0.0
H2229 H 0.10471 0.45386 0.61215 0.0
C2230 C 0.12455 0.44077 0.56626 0.0
C2231 C 0.13088 0.4348 0.53923 0.0
C2232 C 0.1186 0.467 0.57542 0.0
C2233 C 0.13547 0.45713 0.52369 0.0
C2234 C 0.13137 0.48426 0.53378 0.0
C2235 C 0.11275 0.51361 0.56613 0.0
C2236 C 0.09934 0.51554 0.58835 0.0
C2237 C 0.12161 0.48882 0.5588 0.0
C2238 C 0.09704 0.49429 0.60523 0.0
C2239 C 0.10723 0.47048 0.59929 0.0
H2240 H 0.52117 0.28915 0.27206 0.0
H2241 H 0.49118 0.21145 0.30078 0.0
H2242 H 0.46641 0.23727 0.32797 0.0
H2243 H 0.44938 0.28028 0.33807 0.0
H2244 H 0.47874 0.35761 0.30881 0.0
H2245 H 0.50806 0.33383 0.28765 0.0
C2246 C 0.50952 0.278 0.28467 0.0
C2247 C 0.50772 0.24836 0.28407 0.0
C2248 C 0.49523 0.29292 0.30006 0.0
C2249 C 0.49283 0.23424 0.30082 0.0
C2250 C 0.47857 0.24896 0.31626 0.0
C2251 C 0.46271 0.292 0.32771 0.0
C2252 C 0.46219 0.32047 0.32488 0.0
C2253 C 0.47908 0.27803 0.31527 0.0
C2254 C 0.47918 0.3357 0.31133 0.0
C2255 C 0.49572 0.32204 0.29908 0.0
H2256 H 0.64438 0.56216 0.42689 0.0
H2257 H 0.6244 0.47268 0.38877 0.0
H2258 H 0.59951 0.46344 0.4255 0.0
H2259 H 0.58064 0.48138 0.46715 0.0
H2260 H 0.60365 0.57 0.50757 0.0
H2261 H 0.62981 0.57868 0.47203 0.0
C2262 C 0.63502 0.5404 0.42681 0.0
C2263 C 0.63678 0.51814 0.40449 0.0
C2264 C 0.62089 0.53509 0.44868 0.0
C2265 C 0.62408 0.49031 0.40534 0.0
C2266 C 0.60952 0.48506 0.42644 0.0
C2267 C 0.59167 0.50256 0.46859 0.0
C2268 C 0.58986 0.52498 0.49072 0.0
C2269 C 0.60737 0.50732 0.44806 0.0
C2270 C 0.60452 0.55213 0.49153 0.0
C2271 C 0.61949 0.55716 0.47085 0.0
H2272 H 0.33414 0.87215 0.07968 0.0
H2273 H 0.26094 0.8827 0.0677 0.0
H2274 H 0.25641 0.87085 0.1144 0.0
H2275 H 0.27104 0.84886 0.15396 0.0
H2276 H 0.34305 0.83403 0.16306 0.0
H2277 H 0.35047 0.85668 0.12226 0.0
C2278 C 0.31731 0.87236 0.0875 0.0
C2279 C 0.29767 0.87739 0.07009 0.0
C2280 C 0.31458 0.86442 0.11363 0.0
C2281 C 0.27619 0.87846 0.08067 0.0
C2282 C 0.27355 0.87149 0.10722 0.0
C2283 C 0.28841 0.85087 0.1471 0.0
C2284 C 0.3063 0.83925 0.16091 0.0
C2285 C 0.29224 0.86296 0.12313 0.0
C2286 C 0.32899 0.84271 0.15257 0.0
C2287 C 0.33318 0.85549 0.12919 0.0
H2288 H 1.00548 0.52499 0.88827 0.0
H2289 H 0.96645 0.58796 0.91951 0.0
H2290 H 0.98615 0.58918 0.96809 0.0
H2291 H 1.01543 0.57204 1.00238 0.0
H2292 H 0.05402 0.50977 0.96813 0.0
H2293 H 0.03337 0.50833 0.9208 0.0
C2294 C 1.00115 0.53921 0.90551 0.0
C2295 C 0.9843 0.55649 0.89958 0.0
C2296 C 1.01244 0.53962 0.93337 0.0
C2297 C 0.97933 0.57456 0.92285 0.0
C2298 C 0.99058 0.57509 0.95084 0.0
C2299 C 1.01898 0.55781 0.9846 0.0
C2300 C 0.03626 0.54061 0.98928 0.0
C2301 C 1.0072 0.55757 0.95655 0.0
C2302 C 0.04085 0.523 0.96558 0.0
C2303 C 0.02907 0.52227 0.93828 0.0
H2304 H 0.24805 0.24362 0.62276 0.0
H2305 H 0.31083 0.20669 0.62244 0.0
H2306 H 0.32257 0.22475 0.67326 0.0
H2307 H 0.31345 0.24854 0.71839 0.0
H2308 H 0.24919 0.28269 0.71782 0.0
H2309 H 0.23968 0.26829 0.6667 0.0
C2310 C 0.26445 0.23969 0.63366 0.0
C2311 C 0.27849 0.22374 0.61879 0.0
C2312 C 0.27076 0.24953 0.66281 0.0
C2313 C 0.29964 0.21883 0.63339 0.0
C2314 C 0.30634 0.22912 0.66245 0.0
C2315 C 0.29752 0.25306 0.70698 0.0
C2316 C 0.28197 0.2665 0.72188 0.0
C2317 C 0.29182 0.24412 0.67748 0.0
C2318 C 0.26131 0.27209 0.70689 0.0
C2319 C 0.25587 0.26392 0.67763 0.0
H2320 H 0.61538 0.55591 0.25171 0.0
H2321 H 0.64494 0.48107 0.23045 0.0
H2322 H 0.62682 0.47636 0.18061 0.0
H2323 H 0.60264 0.49455 0.14198 0.0
H2324 H 0.57559 0.57109 0.16582 0.0
H2325 H 0.59243 0.57373 0.2148 0.0
C2326 C 0.61791 0.53831 0.23642 0.0
C2327 C 0.63164 0.51876 0.24559 0.0
C2328 C 0.60775 0.53605 0.20764 0.0
C2329 C 0.63455 0.49649 0.22465 0.0
C2330 C 0.62412 0.49383 0.19591 0.0
C2331 C 0.60034 0.51175 0.15787 0.0
C2332 C 0.5876 0.53268 0.14939 0.0
C2333 C 0.61067 0.51359 0.18692 0.0
C2334 C 0.58523 0.55473 0.17088 0.0
C2335 C 0.5949 0.55629 0.19927 0.0
H2336 H 0.23733 0.83158 0.90369 0.0
H2337 H 0.26534 0.77105 0.9491 0.0
H2338 H 0.26217 0.7381 0.90521 0.0
H2339 H 0.26107 0.73242 0.8538 0.0
H2340 H 0.22955 0.78998 0.80795 0.0
H2341 H 0.22386 0.8176 0.85208 0.0
C2342 C 0.24186 0.81074 0.9041 0.0
C2343 C 0.25255 0.80445 0.9295 0.0
C2344 C 0.23978 0.79148 0.87866 0.0
C2345 C 0.2577 0.77695 0.92975 0.0
C2346 C 0.256 0.75799 0.90459 0.0
C2347 C 0.25207 0.75031 0.85345 0.0
C2348 C 0.2467 0.75992 0.82799 0.0
C2349 C 0.24858 0.76591 0.87885 0.0
C2350 C 0.23442 0.78259 0.82751 0.0
C2351 C 0.23129 0.79856 0.85277 0.0
H2352 H 0.96748 0.50797 0.72507 0.0
H2353 H 0.97979 0.5999 0.74935 0.0
H2354 H 0.99988 0.6055 0.70799 0.0
H2355 H 1.01405 0.58435 0.66378 0.0
H2356 H 1.00009 0.49196 0.64043 0.0
H2357 H 0.98039 0.487 0.68149 0.0
C2358 C 0.9742 0.52942 0.72124 0.0
C2359 C 0.97177 0.55348 0.74076 0.0
C2360 C 0.98539 0.53256 0.69695 0.0
C2361 C 0.98084 0.58089 0.73491 0.0
C2362 C 0.99244 0.58412 0.71106 0.0
C2363 C 1.00668 0.56309 0.66756 0.0
C2364 C 1.00895 0.53856 0.64837 0.0
C2365 C 0.99488 0.56016 0.69173 0.0
C2366 C 0.99901 0.51138 0.65425 0.0
C2367 C 0.98756 0.50843 0.67797 0.0
H2368 H 0.26508 0.26165 0.48239 0.0
H2369 H 0.2898 0.18532 0.45157 0.0
H2370 H 0.30387 0.20746 0.41261 0.0
H2371 H 0.30937 0.24879 0.38759 0.0
H2372 H 0.28751 0.32632 0.42091 0.0
H2373 H 0.27185 0.30336 0.45859 0.0
C2374 C 0.27347 0.24978 0.46709 0.0
C2375 C 0.27623 0.22177 0.46973 0.0
C2376 C 0.28196 0.26287 0.44522 0.0
C2377 C 0.28749 0.20689 0.45001 0.0
C2378 C 0.29547 0.21952 0.42771 0.0
C2379 C 0.30107 0.26057 0.40307 0.0
C2380 C 0.29943 0.28913 0.40152 0.0
C2381 C 0.2928 0.2475 0.42512 0.0
C2382 C 0.28896 0.30433 0.4218 0.0
C2383 C 0.28002 0.29121 0.44329 0.0
H2384 H 0.33698 0.5669 0.58376 0.0
H2385 H 0.38851 0.62071 0.65224 0.0
H2386 H 0.41803 0.59188 0.64153 0.0
H2387 H 0.43085 0.55585 0.60849 0.0
H2388 H 0.37947 0.50313 0.53925 0.0
H2389 H 0.34835 0.52731 0.55436 0.0
C2390 C 0.3545 0.57205 0.59675 0.0
C2391 C 0.36057 0.59625 0.61852 0.0
C2392 C 0.37161 0.55591 0.58996 0.0
C2393 C 0.38334 0.60235 0.63524 0.0
C2394 C 0.40032 0.58597 0.62899 0.0
C2395 C 0.41273 0.54917 0.59708 0.0
C2396 C 0.40762 0.52795 0.57249 0.0
C2397 C 0.39492 0.56338 0.60574 0.0
C2398 C 0.38403 0.51978 0.55787 0.0
C2399 C 0.36619 0.53351 0.56658 0.0
H2400 H 0.9114 0.98119 0.5997 0.0
H2401 H 0.94355 0.9067 0.59175 0.0
H2402 H 0.98079 0.93578 0.58473 0.0
H2403 H 1.0046 0.98224 0.57991 0.0
H2404 H 0.97374 0.05737 0.58937 0.0
H2405 H 0.93607 0.02845 0.5968 0.0
C2406 C 0.92658 0.97138 0.5966 0.0
C2407 C 0.9244 0.94167 0.59622 0.0
C2408 C 0.94835 0.98838 0.5927 0.0
C2409 C 0.94445 0.92945 0.59222 0.0
C2410 C 0.9659 0.94607 0.58809 0.0
C2411 C 0.98956 0.99219 0.58342 0.0
C2412 C 0.99184 0.02177 0.58372 0.0
C2413 C 0.96805 0.97549 0.58807 0.0
C2414 C 0.97239 0.03455 0.58893 0.0
C2415 C 0.95081 1.01802 0.59318 0.0
H2416 H 0.89079 0.13022 0.26952 0.0
H2417 H 0.91138 0.14175 0.35998 0.0
H2418 H 0.8922 0.18241 0.36648 0.0
H2419 H 0.86946 0.21644 0.34764 0.0
H2420 H 0.8485 0.20643 0.25758 0.0
H2421 H 0.86743 0.16495 0.25038 0.0
C2422 C 0.89105 0.14143 0.2907 0.0
C2423 C 0.90302 0.13193 0.31413 0.0
C2424 C 0.87969 0.16586 0.29467 0.0
C2425 C 0.90276 0.1477 0.3412 0.0
C2426 C 0.89162 0.1714 0.34512 0.0
C2427 C 0.8689 0.2053 0.32635 0.0
C2428 C 0.85709 0.21529 0.30331 0.0
C2429 C 0.88003 0.18094 0.32216 0.0
C2430 C 0.85707 0.19985 0.27603 0.0
C2431 C 0.86805 0.1758 0.2718 0.0
H2432 H 0.77019 0.23081 0.1106 0.0
H2433 H 0.77991 0.16044 0.15378 0.0
H2434 H 0.73778 0.15166 0.1594 0.0
H2435 H 0.69734 0.16032 0.1471 0.0
H2436 H 0.68727 0.23004 0.1036 0.0
H2437 H 0.73054 0.24303 0.10325 0.0
C2438 C 0.76318 0.21368 0.12145 0.0
C2439 C 0.77812 0.19593 0.13124 0.0
C2440 C 0.73889 0.20858 0.12439 0.0
C2441 C 0.76878 0.17418 0.14569 0.0
C2442 C 0.74468 0.16912 0.14891 0.0
C2443 C 0.7048 0.17869 0.13805 0.0
C2444 C 0.68942 0.19416 0.1252 0.0
C2445 C 0.72947 0.18564 0.13762 0.0
C2446 C 0.69898 0.21798 0.11364 0.0
C2447 C 0.7236 0.22519 0.11324 0.0
H2448 H 0.25207 0.47045 0.36431 0.0
H2449 H 0.18649 0.42359 0.31167 0.0
H2450 H 0.20377 0.38036 0.30523 0.0
H2451 H 0.23849 0.35507 0.3146 0.0
H2452 H 0.30361 0.40477 0.36677 0.0
H2453 H 0.28552 0.44641 0.37338 0.0
C2454 C 0.24128 0.45087 0.35141 0.0
C2455 C 0.21768 0.451 0.33856 0.0
C2456 C 0.25142 0.4259 0.34778 0.0
C2457 C 0.20456 0.42482 0.32197 0.0
C2458 C 0.21455 0.39983 0.31829 0.0
C2459 C 0.24873 0.37493 0.32753 0.0
C2460 C 0.27286 0.37604 0.34006 0.0
C2461 C 0.23809 0.3999 0.33113 0.0
C2462 C 0.28535 0.40253 0.35657 0.0
C2463 C 0.27491 0.42673 0.36047 0.0
H2464 H 0.24962 0.4009 0.04162 0.0
H2465 H 0.2967 0.46309 0.10818 0.0
H2466 H 0.2665 0.49264 0.11001 0.0
H2467 H 0.22638 0.50054 0.09329 0.0
H2468 H 0.17973 0.43866 0.02607 0.0
H2469 H 0.20995 0.40929 0.02424 0.0
C2470 C 0.25334 0.42092 0.05656 0.0
C2471 C 0.27551 0.42963 0.07478 0.0
C2472 C 0.23587 0.43789 0.05748 0.0
C2473 C 0.27989 0.45575 0.09389 0.0
C2474 C 0.26258 0.4727 0.09496 0.0
C2475 C 0.22287 0.48081 0.07798 0.0
C2476 C 0.20061 0.47194 0.05989 0.0
C2477 C 0.24047 0.46399 0.07689 0.0
C2478 C 0.19643 0.44596 0.04057 0.0
C2479 C 0.21381 0.42916 0.03938 0.0
H2480 H 0.90995 0.92702 0.28612 0.0
H2481 H 0.86167 0.9855 0.2922 0.0
H2482 H 0.83066 0.9468 0.30128 0.0
H2483 H 0.81707 0.896 0.30772 0.0
H2484 H 0.86603 0.83838 0.30282 0.0
H2485 H 0.89677 0.87694 0.29326 0.0
C2486 C 0.89263 0.93154 0.28926 0.0
C2487 C 0.88842 0.95969 0.28811 0.0
C2488 C 0.87492 0.90912 0.29491 0.0
C2489 C 0.86572 0.96448 0.29269 0.0
C2490 C 0.84791 0.94218 0.29797 0.0
C2491 C 0.8345 0.8918 0.30464 0.0
C2492 C 0.83905 0.86392 0.3062 0.0
C2493 C 0.85227 0.91438 0.29919 0.0
C2494 C 0.86186 0.85931 0.30208 0.0
C2495 C 0.87948 0.88149 0.29646 0.0
H2496 H 0.71522 0.13248 0.88389 0.0
H2497 H 0.72495 0.09417 0.80125 0.0
H2498 H 0.74914 0.14013 0.79539 0.0
H2499 H 0.76428 0.19314 0.81228 0.0
H2500 H 0.75564 0.22946 0.89631 0.0
H2501 H 0.73458 0.1829 0.90306 0.0
C2502 C 0.72334 0.13391 0.86497 0.0
C2503 C 0.71858 0.10962 0.84327 0.0
C2504 C 0.73708 0.16049 0.86173 0.0
C2505 C 0.72881 0.11216 0.81863 0.0
C2506 C 0.74235 0.13868 0.81511 0.0
C2507 C 0.75793 0.19082 0.83212 0.0
C2508 C 0.76138 0.21532 0.85362 0.0
C2509 C 0.74607 0.16332 0.83622 0.0
C2510 C 0.75324 0.21143 0.87929 0.0
C2511 C 0.74112 0.18461 0.88322 0.0
loop_
_geom_bond_atom_site_label_1
_geom_bond_atom_site_label_2
_geom_bond_distance
_geom_bond_site_symmetry_2
_ccdc_geom_bond_type
Zn0 O3 2.031 . S
Zn0 O5 2.049 . S
Zn0 O10 2.067 . S
Zn1 O2 1.962 . S
Zn1 O4 1.986 . S
Zn1 O6 1.996 . S
Zn1 O9 1.943 . S
O2 Zn1 1.962 . S
O2 C7 1.254 . S
O3 Zn0 2.031 . S
O3 C7 1.269 . S
O4 Zn1 1.986 . S
O4 C11 1.262 . S
O5 Zn0 2.049 . S
O5 C13 1.260 . S
O6 Zn1 1.996 . S
O6 C13 1.257 . S
C7 O2 1.254 . S
C7 O3 1.269 . S
C8 O9 1.249 . S
C8 O10 1.270 . S
O9 Zn1 1.943 . S
O9 C8 1.249 . S
O10 Zn0 2.067 . S
O10 C8 1.270 . S
C11 O4 1.262 . S
C11 O12 1.232 . S
O12 C11 1.232 . S
C13 O5 1.260 . S
C13 O6 1.257 . S
Zn14 O17 2.031 1_455 S
Zn14 O19 2.049 . S
Zn14 O24 2.067 . S
Zn15 O16 1.962 1_455 S
Zn15 O18 1.986 . S
Zn15 O20 1.996 . S
Zn15 O23 1.943 . S
O16 Zn15 1.962 1_655 S
O16 C21 1.254 . S
O17 Zn14 2.031 1_655 S
O17 C21 1.269 . S
O18 Zn15 1.986 . S
O18 C25 1.262 . S
O19 Zn14 2.049 . S
O19 C27 1.260 . S
O20 Zn15 1.996 . S
O20 C27 1.257 . S
C21 O16 1.254 . S
C21 O17 1.269 . S
C22 O23 1.249 . S
C22 O24 1.270 . S
O23 Zn15 1.943 . S
O23 C22 1.249 . S
O24 Zn14 2.067 . S
O24 C22 1.270 . S
C25 O18 1.262 . S
C25 O26 1.232 1_455 S
O26 C25 1.232 1_655 S
C27 O19 1.260 . S
C27 O20 1.257 . S
Zn28 O31 2.031 . S
Zn28 O33 2.049 . S
Zn28 O38 2.067 1_554 S
Zn29 O30 1.962 1_556 S
Zn29 O32 1.986 . S
Zn29 O34 1.996 1_556 S
Zn29 O37 1.943 . S
O30 Zn29 1.962 1_554 S
O30 C35 1.254 . S
O31 Zn28 2.031 . S
O31 C35 1.269 . S
O32 Zn29 1.986 . S
O32 C39 1.262 . S
O33 Zn28 2.049 . S
O33 C41 1.260 . S
O34 Zn29 1.996 1_554 S
O34 C41 1.257 . S
C35 O30 1.254 . S
C35 O31 1.269 . S
C36 O37 1.249 . S
C36 O38 1.270 . S
O37 Zn29 1.943 . S
O37 C36 1.249 . S
O38 Zn28 2.067 1_556 S
O38 C36 1.270 . S
C39 O32 1.262 . S
C39 O40 1.232 . S
O40 C39 1.232 . S
C41 O33 1.260 . S
C41 O34 1.257 . S
Zn42 O45 2.031 . S
Zn42 O47 2.049 . S
Zn42 O52 2.067 . S
Zn43 O44 1.962 . S
Zn43 O46 1.986 . S
Zn43 O48 1.996 . S
Zn43 O51 1.943 . S
O44 Zn43 1.962 . S
O44 C49 1.254 . S
O45 Zn42 2.031 . S
O45 C49 1.269 . S
O46 Zn43 1.986 . S
O46 C53 1.262 . S
O47 Zn42 2.049 . S
O47 C55 1.260 . S
O48 Zn43 1.996 . S
O48 C55 1.257 . S
C49 O44 1.254 . S
C49 O45 1.269 . S
C50 O51 1.249 . S
C50 O52 1.270 . S
O51 Zn43 1.943 . S
O51 C50 1.249 . S
O52 Zn42 2.067 . S
O52 C50 1.270 . S
C53 O46 1.262 . S
C53 O54 1.232 . S
O54 C53 1.232 . S
C55 O47 1.260 . S
C55 O48 1.257 . S
Zn56 O59 2.031 . S
Zn56 O61 2.049 . S
Zn56 O66 2.067 . S
Zn57 O58 1.962 . S
Zn57 O60 1.986 . S
Zn57 O62 1.996 . S
Zn57 O65 1.943 . S
O58 Zn57 1.962 . S
O58 C63 1.254 . S
O59 Zn56 2.031 . S
O59 C63 1.269 . S
O60 Zn57 1.986 . S
O60 C67 1.262 . S
O61 Zn56 2.049 . S
O61 C69 1.260 . S
O62 Zn57 1.996 . S
O62 C69 1.257 . S
C63 O58 1.254 . S
C63 O59 1.269 . S
C64 O65 1.249 . S
C64 O66 1.270 . S
O65 Zn57 1.943 . S
O65 C64 1.249 . S
O66 Zn56 2.067 . S
O66 C64 1.270 . S
C67 O60 1.262 . S
C67 O68 1.232 . S
O68 C67 1.232 . S
C69 O61 1.260 . S
C69 O62 1.257 . S
Zn70 O73 2.031 . S
Zn70 O75 2.049 . S
Zn70 O80 2.067 . S
Zn71 O72 1.962 . S
Zn71 O74 1.986 . S
Zn71 O76 1.996 . S
Zn71 O79 1.943 . S
O72 Zn71 1.962 . S
O72 C77 1.254 . S
O73 Zn70 2.031 . S
O73 C77 1.269 . S
O74 Zn71 1.986 . S
O74 C81 1.262 . S
O75 Zn70 2.049 . S
O75 C83 1.260 . S
O76 Zn71 1.996 . S
O76 C83 1.257 . S
C77 O72 1.254 . S
C77 O73 1.269 . S
C78 O79 1.249 . S
C78 O80 1.270 . S
O79 Zn71 1.943 . S
O79 C78 1.249 . S
O80 Zn70 2.067 . S
O80 C78 1.270 . S
C81 O74 1.262 . S
C81 O82 1.232 . S
O82 C81 1.232 . S
C83 O75 1.260 . S
C83 O76 1.257 . S
Zn84 O87 2.031 . S
Zn84 O89 2.049 . S
Zn84 O94 2.067 . S
Zn85 O86 1.962 . S
Zn85 O88 1.986 . S
Zn85 O90 1.996 . S
Zn85 O93 1.943 . S
O86 Zn85 1.962 . S
O86 C91 1.254 . S
O87 Zn84 2.031 . S
O87 C91 1.269 . S
O88 Zn85 1.986 . S
O88 C95 1.262 . S
O89 Zn84 2.049 . S
O89 C97 1.260 . S
O90 Zn85 1.996 . S
O90 C97 1.257 . S
C91 O86 1.254 . S
C91 O87 1.269 . S
C92 O93 1.249 . S
C92 O94 1.270 . S
O93 Zn85 1.943 . S
O93 C92 1.249 . S
O94 Zn84 2.067 . S
O94 C92 1.270 . S
C95 O88 1.262 . S
C95 O96 1.232 . S
O96 C95 1.232 . S
C97 O89 1.260 . S
C97 O90 1.257 . S
Zn98 O101 2.031 . S
Zn98 O103 2.049 . S
Zn98 O108 2.067 . S
Zn99 O100 1.962 . S
Zn99 O102 1.986 . S
Zn99 O104 1.996 . S
Zn99 O107 1.943 1_455 S
O100 Zn99 1.962 . S
O100 C105 1.254 . S
O101 Zn98 2.031 . S
O101 C105 1.269 1_655 S
O102 Zn99 1.986 . S
O102 C109 1.262 . S
O103 Zn98 2.049 . S
O103 C111 1.260 . S
O104 Zn99 1.996 . S
O104 C111 1.257 1_455 S
C105 O100 1.254 . S
C105 O101 1.269 1_455 S
C106 O107 1.249 . S
C106 O108 1.270 . S
O107 Zn99 1.943 1_655 S
O107 C106 1.249 . S
O108 Zn98 2.067 . S
O108 C106 1.270 . S
C109 O102 1.262 . S
C109 O110 1.232 . S
O110 C109 1.232 . S
C111 O103 1.260 . S
C111 O104 1.257 1_655 S
Zn112 O115 2.031 1_565 S
Zn112 O117 2.049 . S
Zn112 O122 2.067 . S
Zn113 O114 1.962 . S
Zn113 O116 1.986 . S
Zn113 O118 1.996 . S
Zn113 O121 1.943 . S
O114 Zn113 1.962 . S
O114 C119 1.254 . S
O115 Zn112 2.031 1_545 S
O115 C119 1.269 . S
O116 Zn113 1.986 . S
O116 C123 1.262 . S
O117 Zn112 2.049 . S
O117 C125 1.260 1_565 S
O118 Zn113 1.996 . S
O118 C125 1.257 . S
C119 O114 1.254 . S
C119 O115 1.269 . S
C120 O121 1.249 1_565 S
C120 O122 1.270 . S
O121 Zn113 1.943 . S
O121 C120 1.249 1_545 S
O122 Zn112 2.067 . S
O122 C120 1.270 . S
C123 O116 1.262 . S
C123 O124 1.232 . S
O124 C123 1.232 . S
C125 O117 1.260 1_545 S
C125 O118 1.257 . S
Zn126 O129 2.031 . S
Zn126 O131 2.049 . S
Zn126 O136 2.067 . S
Zn127 O128 1.962 . S
Zn127 O130 1.986 . S
Zn127 O132 1.996 . S
Zn127 O135 1.943 . S
O128 Zn127 1.962 . S
O128 C133 1.254 . S
O129 Zn126 2.031 . S
O129 C133 1.269 . S
O130 Zn127 1.986 . S
O130 C137 1.262 . S
O131 Zn126 2.049 . S
O131 C139 1.260 . S
O132 Zn127 1.996 . S
O132 C139 1.257 . S
C133 O128 1.254 . S
C133 O129 1.269 . S
C134 O135 1.249 . S
C134 O136 1.270 . S
O135 Zn127 1.943 . S
O135 C134 1.249 . S
O136 Zn126 2.067 . S
O136 C134 1.270 . S
C137 O130 1.262 . S
C137 O138 1.232 . S
O138 C137 1.232 . S
C139 O131 1.260 . S
C139 O132 1.257 . S
Zn140 O143 2.031 . S
Zn140 O145 2.049 . S
Zn140 O150 2.067 . S
Zn141 O142 1.962 . S
Zn141 O144 1.986 . S
Zn141 O146 1.996 . S
Zn141 O149 1.943 1_565 S
O142 Zn141 1.962 . S
O142 C147 1.254 1_565 S
O143 Zn140 2.031 . S
O143 C147 1.269 . S
O144 Zn141 1.986 . S
O144 C151 1.262 . S
O145 Zn140 2.049 . S
O145 C153 1.260 . S
O146 Zn141 1.996 . S
O146 C153 1.257 1_565 S
C147 O142 1.254 1_545 S
C147 O143 1.269 . S
C148 O149 1.249 . S
C148 O150 1.270 . S
O149 Zn141 1.943 1_545 S
O149 C148 1.249 . S
O150 Zn140 2.067 . S
O150 C148 1.270 . S
C151 O144 1.262 . S
C151 O152 1.232 . S
O152 C151 1.232 . S
C153 O145 1.260 . S
C153 O146 1.257 1_545 S
Zn154 O157 2.031 1_554 S
Zn154 O159 2.049 . S
Zn154 O164 2.067 . S
Zn155 O156 1.962 . S
Zn155 O158 1.986 1_556 S
Zn155 O160 1.996 1_556 S
Zn155 O163 1.943 1_556 S
O156 Zn155 1.962 . S
O156 C161 1.254 . S
O157 Zn154 2.031 1_556 S
O157 C161 1.269 . S
O158 Zn155 1.986 1_554 S
O158 C165 1.231 1_554 S
O159 Zn154 2.049 . S
O159 C167 1.260 . S
O160 Zn155 1.996 1_554 S
O160 C167 1.257 . S
C161 O156 1.254 . S
C161 O157 1.269 . S
C162 O163 1.249 . S
C162 O164 1.270 . S
O163 Zn155 1.943 1_554 S
O163 C162 1.249 . S
O164 Zn154 2.067 . S
O164 C162 1.270 . S
C165 O158 1.231 1_556 S
C165 O166 1.270 . S
O166 C165 1.270 . S
C167 O159 1.260 . S
C167 O160 1.257 . S
Zn168 O171 2.031 . S
Zn168 O173 2.049 . S
Zn168 O178 2.067 . S
Zn169 O170 1.962 . S
Zn169 O172 1.986 . S
Zn169 O174 1.996 . S
Zn169 O177 1.943 . S
O170 Zn169 1.962 . S
O170 C175 1.254 . S
O171 Zn168 2.031 . S
O171 C175 1.269 . S
O172 Zn169 1.986 . S
O172 C179 1.262 . S
O173 Zn168 2.049 . S
O173 C181 1.260 . S
O174 Zn169 1.996 . S
O174 C181 1.257 . S
C175 O170 1.254 . S
C175 O171 1.269 . S
C176 O177 1.249 . S
C176 O178 1.270 . S
O177 Zn169 1.943 . S
O177 C176 1.249 . S
O178 Zn168 2.067 . S
O178 C176 1.270 . S
C179 O172 1.262 . S
C179 O180 1.232 . S
O180 C179 1.232 . S
C181 O173 1.260 . S
C181 O174 1.257 . S
Zn182 O185 2.031 . S
Zn182 O187 2.049 . S
Zn182 O192 2.067 . S
Zn183 O184 1.962 . S
Zn183 O186 1.986 . S
Zn183 O188 1.996 . S
Zn183 O191 1.943 . S
O184 Zn183 1.962 . S
O184 C189 1.254 . S
O185 Zn182 2.031 . S
O185 C189 1.269 . S
O186 Zn183 1.986 . S
O186 C193 1.262 . S
O187 Zn182 2.049 . S
O187 C195 1.260 . S
O188 Zn183 1.996 . S
O188 C195 1.257 . S
C189 O184 1.254 . S
C189 O185 1.269 . S
C190 O191 1.249 . S
C190 O192 1.270 . S
O191 Zn183 1.943 . S
O191 C190 1.249 . S
O192 Zn182 2.067 . S
O192 C190 1.270 . S
C193 O186 1.262 . S
C193 O194 1.232 . S
O194 C193 1.232 . S
C195 O187 1.260 . S
C195 O188 1.257 . S
Zn196 O199 2.031 . S
Zn196 O201 2.049 . S
Zn196 O206 2.067 . S
Zn197 O198 1.962 . S
Zn197 O200 1.986 . S
Zn197 O202 1.996 . S
Zn197 O205 1.943 . S
O198 Zn197 1.962 . S
O198 C203 1.254 . S
O199 Zn196 2.031 . S
O199 C203 1.269 . S
O200 Zn197 1.986 . S
O200 C207 1.262 . S
O201 Zn196 2.049 . S
O201 C209 1.260 . S
O202 Zn197 1.996 . S
O202 C209 1.257 . S
C203 O198 1.254 . S
C203 O199 1.269 . S
C204 O205 1.249 . S
C204 O206 1.270 . S
O205 Zn197 1.943 . S
O205 C204 1.249 . S
O206 Zn196 2.067 . S
O206 C204 1.270 . S
C207 O200 1.262 . S
C207 O208 1.232 . S
O208 C207 1.232 . S
C209 O201 1.260 . S
C209 O202 1.257 . S
Zn210 O213 2.031 . S
Zn210 O215 2.049 . S
Zn210 O220 2.067 . S
Zn211 O212 1.962 . S
Zn211 O214 1.986 . S
Zn211 O216 1.996 . S
Zn211 O219 1.943 . S
O212 Zn211 1.962 . S
O212 C217 1.254 . S
O213 Zn210 2.031 . S
O213 C217 1.269 . S
O214 Zn211 1.986 . S
O214 C221 1.262 . S
O215 Zn210 2.049 . S
O215 C223 1.260 . S
O216 Zn211 1.996 . S
O216 C223 1.257 . S
C217 O212 1.254 . S
C217 O213 1.269 . S
C218 O219 1.249 . S
C218 O220 1.270 . S
O219 Zn211 1.943 . S
O219 C218 1.249 . S
O220 Zn210 2.067 . S
O220 C218 1.270 . S
C221 O214 1.262 . S
C221 O222 1.232 . S
O222 C221 1.232 . S
C223 O215 1.260 . S
C223 O216 1.257 . S
Zn224 O227 2.032 . S
Zn224 O229 2.051 . S
Zn224 O234 2.066 1_545 S
Zn225 O226 1.962 . S
Zn225 O228 1.986 . S
Zn225 O230 1.996 . S
Zn225 O233 1.943 . S
O226 Zn225 1.962 . S
O226 C231 1.254 . S
O227 Zn224 2.032 . S
O227 C231 1.269 . S
O228 Zn225 1.986 . S
O228 C235 1.262 . S
O229 Zn224 2.051 . S
O229 C237 1.260 . S
O230 Zn225 1.996 . S
O230 C237 1.257 . S
C231 O226 1.254 . S
C231 O227 1.269 . S
C232 O233 1.249 1_565 S
C232 O234 1.270 . S
O233 Zn225 1.943 . S
O233 C232 1.249 1_545 S
O234 Zn224 2.066 1_565 S
O234 C232 1.270 . S
C235 O228 1.262 . S
C235 O236 1.232 . S
O236 C235 1.232 . S
C237 O229 1.260 . S
C237 O230 1.257 . S
Zn238 O241 2.031 . S
Zn238 O243 2.049 . S
Zn238 O248 2.067 . S
Zn239 O240 1.962 . S
Zn239 O242 1.986 . S
Zn239 O244 1.996 . S
Zn239 O247 1.943 . S
O240 Zn239 1.962 . S
O240 C245 1.254 . S
O241 Zn238 2.031 . S
O241 C245 1.269 . S
O242 Zn239 1.986 . S
O242 C249 1.262 . S
O243 Zn238 2.049 . S
O243 C251 1.260 . S
O244 Zn239 1.996 . S
O244 C251 1.257 . S
C245 O240 1.254 . S
C245 O241 1.269 . S
C246 O247 1.249 . S
C246 O248 1.270 . S
O247 Zn239 1.943 . S
O247 C246 1.249 . S
O248 Zn238 2.067 . S
O248 C246 1.270 . S
C249 O242 1.262 . S
C249 O250 1.232 . S
O250 C249 1.232 . S
C251 O243 1.260 . S
C251 O244 1.257 . S
Zn252 O255 2.031 . S
Zn252 O257 2.049 . S
Zn252 O262 2.067 . S
Zn253 O254 1.962 . S
Zn253 O256 1.986 . S
Zn253 O258 1.996 . S
Zn253 O261 1.943 . S
O254 Zn253 1.962 . S
O254 C259 1.254 . S
O255 Zn252 2.031 . S
O255 C259 1.269 . S
O256 Zn253 1.986 . S
O256 C263 1.262 . S
O257 Zn252 2.049 . S
O257 C265 1.260 . S
O258 Zn253 1.996 . S
O258 C265 1.257 . S
C259 O254 1.254 . S
C259 O255 1.269 . S
C260 O261 1.249 . S
C260 O262 1.270 . S
O261 Zn253 1.943 . S
O261 C260 1.249 . S
O262 Zn252 2.067 . S
O262 C260 1.270 . S
C263 O256 1.262 . S
C263 O264 1.232 . S
O264 C263 1.232 . S
C265 O257 1.260 . S
C265 O258 1.257 . S
Zn266 O269 2.031 . S
Zn266 O271 2.049 . S
Zn266 O276 2.067 . S
Zn267 O268 1.962 . S
Zn267 O270 1.986 . S
Zn267 O272 1.995 . S
Zn267 O275 1.943 1_565 S
O268 Zn267 1.962 . S
O268 C273 1.254 1_565 S
O269 Zn266 2.031 . S
O269 C273 1.269 . S
O270 Zn267 1.986 . S
O270 C277 1.262 . S
O271 Zn266 2.049 . S
O271 C279 1.260 . S
O272 Zn267 1.995 . S
O272 C279 1.259 1_565 S
C273 O268 1.254 1_545 S
C273 O269 1.269 . S
C274 O275 1.249 . S
C274 O276 1.270 . S
O275 Zn267 1.943 1_545 S
O275 C274 1.249 . S
O276 Zn266 2.067 . S
O276 C274 1.270 . S
C277 O270 1.262 . S
C277 O278 1.232 . S
O278 C277 1.232 . S
C279 O271 1.260 . S
C279 O272 1.259 1_545 S
Zn280 O283 2.031 . S
Zn280 O285 2.049 . S
Zn280 O290 2.067 . S
Zn281 O282 1.962 . S
Zn281 O284 1.986 . S
Zn281 O286 1.996 . S
Zn281 O289 1.943 . S
O282 Zn281 1.962 . S
O282 C287 1.254 . S
O283 Zn280 2.031 . S
O283 C287 1.269 . S
O284 Zn281 1.986 . S
O284 C291 1.262 . S
O285 Zn280 2.049 . S
O285 C293 1.260 . S
O286 Zn281 1.996 . S
O286 C293 1.257 . S
C287 O282 1.254 . S
C287 O283 1.269 . S
C288 O289 1.249 . S
C288 O290 1.270 . S
O289 Zn281 1.943 . S
O289 C288 1.249 . S
O290 Zn280 2.067 . S
O290 C288 1.270 . S
C291 O284 1.262 . S
C291 O292 1.232 . S
O292 C291 1.232 . S
C293 O285 1.260 . S
C293 O286 1.257 . S
Zn294 O297 2.031 . S
Zn294 O299 2.049 . S
Zn294 O304 2.067 . S
Zn295 O296 1.962 . S
Zn295 O298 1.986 . S
Zn295 O300 1.996 . S
Zn295 O303 1.943 . S
O296 Zn295 1.962 . S
O296 C301 1.254 . S
O297 Zn294 2.031 . S
O297 C301 1.269 . S
O298 Zn295 1.986 . S
O298 C305 1.262 . S
O299 Zn294 2.049 . S
O299 C307 1.260 . S
O300 Zn295 1.996 . S
O300 C307 1.257 . S
C301 O296 1.254 . S
C301 O297 1.269 . S
C302 O303 1.249 . S
C302 O304 1.270 . S
O303 Zn295 1.943 . S
O303 C302 1.249 . S
O304 Zn294 2.067 . S
O304 C302 1.270 . S
C305 O298 1.262 . S
C305 O306 1.232 . S
O306 C305 1.232 . S
C307 O299 1.260 . S
C307 O300 1.257 . S
Zn308 O311 2.031 . S
Zn308 O313 2.049 . S
Zn308 O318 2.067 . S
Zn309 O310 1.962 . S
Zn309 O312 1.986 . S
Zn309 O314 1.996 . S
Zn309 O317 1.943 . S
O310 Zn309 1.962 . S
O310 C315 1.254 . S
O311 Zn308 2.031 . S
O311 C315 1.269 . S
O312 Zn309 1.986 . S
O312 C319 1.262 . S
O313 Zn308 2.049 . S
O313 C321 1.260 . S
O314 Zn309 1.996 . S
O314 C321 1.257 . S
C315 O310 1.254 . S
C315 O311 1.269 . S
C316 O317 1.249 . S
C316 O318 1.270 . S
O317 Zn309 1.943 . S
O317 C316 1.249 . S
O318 Zn308 2.067 . S
O318 C316 1.270 . S
C319 O312 1.262 . S
C319 O320 1.232 . S
O320 C319 1.232 . S
C321 O313 1.260 . S
C321 O314 1.257 . S
Zn322 O325 2.031 . S
Zn322 O327 2.049 . S
Zn322 O332 2.067 . S
Zn323 O324 1.962 . S
Zn323 O326 1.986 . S
Zn323 O328 1.996 . S
Zn323 O331 1.943 . S
O324 Zn323 1.962 . S
O324 C329 1.254 . S
O325 Zn322 2.031 . S
O325 C329 1.269 . S
O326 Zn323 1.986 . S
O326 C333 1.262 . S
O327 Zn322 2.049 . S
O327 C335 1.260 . S
O328 Zn323 1.996 . S
O328 C335 1.257 . S
C329 O324 1.254 . S
C329 O325 1.269 . S
C330 O331 1.249 . S
C330 O332 1.270 . S
O331 Zn323 1.943 . S
O331 C330 1.249 . S
O332 Zn322 2.067 . S
O332 C330 1.270 . S
C333 O326 1.262 . S
C333 O334 1.232 . S
O334 C333 1.232 . S
C335 O327 1.260 . S
C335 O328 1.257 . S
C336 Eu337 2.835 . S
C336 C338 1.500 1_545 S
C336 O356 1.257 . S
C336 O357 1.260 . S
Eu337 C336 2.835 . S
Eu337 O356 2.473 . S
Eu337 O357 2.480 . S
Eu337 O358 2.430 . S
Eu337 O359 2.670 . S
Eu337 O360 2.394 1_545 S
Eu337 O365 2.355 . S
Eu337 O367 2.374 . S
C338 C336 1.500 1_565 S
C338 C339 1.377 . S
C338 C343 1.377 . S
C339 C338 1.377 . S
C339 C340 1.395 . S
C339 H368 0.931 1_565 S
C340 C339 1.395 . S
C340 C341 1.383 . S
C340 H369 0.931 . S
C341 C340 1.383 . S
C341 C342 1.394 . S
C342 C341 1.394 . S
C342 C343 1.378 . S
C342 H370 0.931 . S
C343 C338 1.377 . S
C343 C342 1.378 . S
C343 H371 0.931 . S
C344 O358 1.259 . S
C344 O359 1.270 . S
C345 O360 1.251 . S
C345 O361 1.251 . S
C346 Eu347 2.835 1_655 S
C346 C348 1.500 . S
C346 O362 1.257 . S
C346 O363 1.260 . S
Eu347 C346 2.835 1_455 S
Eu347 O359 2.355 . S
Eu347 O361 2.374 1_545 S
Eu347 O362 2.473 1_455 S
Eu347 O363 2.480 1_455 S
Eu347 O364 2.430 1_554 S
Eu347 O365 2.670 . S
Eu347 O366 2.394 . S
C348 C346 1.500 . S
C348 C349 1.377 . S
C348 C353 1.377 . S
C349 C348 1.377 . S
C349 C350 1.395 . S
C349 H372 0.931 1_554 S
C350 C349 1.395 . S
C350 C351 1.380 . S
C350 H373 0.935 1_554 S
C351 C350 1.380 . S
C351 C352 1.394 . S
C352 C351 1.394 . S
C352 C353 1.378 . S
C352 H374 0.931 . S
C353 C348 1.377 . S
C353 C352 1.378 . S
C353 H375 0.931 . S
C354 O364 1.259 1_554 S
C354 O365 1.270 . S
C355 O366 1.251 . S
C355 O367 1.251 . S
O356 C336 1.257 . S
O356 Eu337 2.473 . S
O357 C336 1.260 . S
O357 Eu337 2.480 . S
O358 Eu337 2.430 . S
O358 C344 1.259 . S
O359 Eu337 2.670 . S
O359 C344 1.270 . S
O359 Eu347 2.355 . S
O360 Eu337 2.394 1_565 S
O360 C345 1.251 . S
O361 C345 1.251 . S
O361 Eu347 2.374 1_565 S
O362 C346 1.257 . S
O362 Eu347 2.473 1_655 S
O363 C346 1.260 . S
O363 Eu347 2.480 1_655 S
O364 Eu347 2.430 1_556 S
O364 C354 1.259 1_556 S
O365 Eu337 2.355 . S
O365 Eu347 2.670 . S
O365 C354 1.270 . S
O366 Eu347 2.394 . S
O366 C355 1.251 . S
O367 Eu337 2.374 . S
O367 C355 1.251 . S
H368 C339 0.931 1_545 S
H369 C340 0.931 . S
H370 C342 0.931 . S
H371 C343 0.931 . S
H372 C349 0.931 1_556 S
H373 C350 0.935 1_556 S
H374 C352 0.931 . S
H375 C353 0.931 . S
C376 Eu377 2.835 . S
C376 C378 1.500 . S
C376 O396 1.257 . S
C376 O397 1.260 . S
Eu377 C376 2.835 . S
Eu377 O396 2.473 . S
Eu377 O397 2.480 . S
Eu377 O398 2.430 . S
Eu377 O399 2.670 . S
Eu377 O400 2.394 . S
Eu377 O405 2.355 . S
Eu377 O407 2.374 . S
C378 C376 1.500 . S
C378 C379 1.377 . S
C378 C383 1.377 . S
C379 C378 1.377 . S
C379 C380 1.395 . S
C379 H408 0.931 . S
C380 C379 1.395 . S
C380 C381 1.383 . S
C380 H409 0.931 . S
C381 C380 1.383 . S
C381 C382 1.394 . S
C382 C381 1.394 . S
C382 C383 1.378 . S
C382 H410 0.931 . S
C383 C378 1.377 . S
C383 C382 1.378 . S
C383 H411 0.931 . S
C384 O398 1.259 . S
C384 O399 1.270 . S
C385 O400 1.251 . S
C385 O401 1.251 . S
C386 Eu387 2.835 . S
C386 C388 1.500 . S
C386 O402 1.257 . S
C386 O403 1.260 . S
Eu387 C386 2.835 . S
Eu387 O399 2.355 . S
Eu387 O401 2.374 . S
Eu387 O402 2.473 . S
Eu387 O403 2.480 . S
Eu387 O404 2.430 . S
Eu387 O405 2.670 . S
Eu387 O406 2.394 . S
C388 C386 1.500 . S
C388 C389 1.377 . S
C388 C393 1.377 . S
C389 C388 1.377 . S
C389 C390 1.395 . S
C389 H412 0.931 . S
C390 C389 1.395 . S
C390 C391 1.383 . S
C390 H413 0.931 . S
C391 C390 1.383 . S
C391 C392 1.394 . S
C392 C391 1.394 . S
C392 C393 1.378 . S
C392 H414 0.931 . S
C393 C388 1.377 . S
C393 C392 1.378 . S
C393 H415 0.931 . S
C394 O404 1.259 . S
C394 O405 1.270 . S
C395 O406 1.251 . S
C395 O407 1.251 . S
O396 C376 1.257 . S
O396 Eu377 2.473 . S
O397 C376 1.260 . S
O397 Eu377 2.480 . S
O398 Eu377 2.430 . S
O398 C384 1.259 . S
O399 Eu377 2.670 . S
O399 C384 1.270 . S
O399 Eu387 2.355 . S
O400 Eu377 2.394 . S
O400 C385 1.251 . S
O401 C385 1.251 . S
O401 Eu387 2.374 . S
O402 C386 1.257 . S
O402 Eu387 2.473 . S
O403 C386 1.260 . S
O403 Eu387 2.480 . S
O404 Eu387 2.430 . S
O404 C394 1.259 . S
O405 Eu377 2.355 . S
O405 Eu387 2.670 . S
O405 C394 1.270 . S
O406 Eu387 2.394 . S
O406 C395 1.251 . S
O407 Eu377 2.374 . S
O407 C395 1.251 . S
H408 C379 0.931 . S
H409 C380 0.931 . S
H410 C382 0.931 . S
H411 C383 0.931 . S
H412 C389 0.931 . S
H413 C390 0.931 . S
H414 C392 0.931 . S
H415 C393 0.931 . S
C416 Eu417 2.835 . S
C416 C418 1.500 . S
C416 O436 1.257 . S
C416 O437 1.260 . S
Eu417 C416 2.835 . S
Eu417 O436 2.473 . S
Eu417 O437 2.480 . S
Eu417 O438 2.430 . S
Eu417 O439 2.670 . S
Eu417 O440 2.394 . S
Eu417 O445 2.355 . S
Eu417 O447 2.374 1_545 S
C418 C416 1.500 . S
C418 C419 1.377 . S
C418 C423 1.377 . S
C419 C418 1.377 . S
C419 C420 1.395 . S
C419 H448 0.931 . S
C420 C419 1.395 . S
C420 C421 1.383 . S
C420 H449 0.931 . S
C421 C420 1.383 . S
C421 C422 1.394 . S
C422 C421 1.394 . S
C422 C423 1.378 . S
C422 H450 0.931 . S
C423 C418 1.377 . S
C423 C422 1.378 . S
C423 H451 0.931 . S
C424 O438 1.259 . S
C424 O439 1.270 . S
C425 O440 1.251 . S
C425 O441 1.251 . S
C426 Eu427 2.835 1_565 S
C426 C428 1.500 . S
C426 O442 1.257 . S
C426 O443 1.260 1_565 S
Eu427 C426 2.835 1_545 S
Eu427 O439 2.355 . S
Eu427 O441 2.374 . S
Eu427 O442 2.473 1_545 S
Eu427 O443 2.480 . S
Eu427 O444 2.430 . S
Eu427 O445 2.670 . S
Eu427 O446 2.394 1_545 S
C428 C426 1.500 . S
C428 C429 1.377 . S
C428 C433 1.377 . S
C429 C428 1.377 . S
C429 C430 1.395 . S
C429 H452 0.931 . S
C430 C429 1.395 . S
C430 C431 1.383 . S
C430 H453 0.931 . S
C431 C430 1.383 . S
C431 C432 1.394 . S
C432 C431 1.394 . S
C432 C433 1.378 . S
C432 H454 0.931 . S
C433 C428 1.377 . S
C433 C432 1.378 . S
C433 H455 0.931 . S
C434 O444 1.259 . S
C434 O445 1.270 . S
C435 O446 1.251 . S
C435 O447 1.251 . S
O436 C416 1.257 . S
O436 Eu417 2.473 . S
O437 C416 1.260 . S
O437 Eu417 2.480 . S
O438 Eu417 2.430 . S
O438 C424 1.259 . S
O439 Eu417 2.670 . S
O439 C424 1.270 . S
O439 Eu427 2.355 . S
O440 Eu417 2.394 . S
O440 C425 1.251 . S
O441 C425 1.251 . S
O441 Eu427 2.374 . S
O442 C426 1.257 . S
O442 Eu427 2.473 1_565 S
O443 C426 1.260 1_545 S
O443 Eu427 2.480 . S
O444 Eu427 2.430 . S
O444 C434 1.259 . S
O445 Eu417 2.355 . S
O445 Eu427 2.670 . S
O445 C434 1.270 . S
O446 Eu427 2.394 1_565 S
O446 C435 1.251 . S
O447 Eu417 2.374 1_565 S
O447 C435 1.251 . S
H448 C419 0.931 . S
H449 C420 0.931 . S
H450 C422 0.931 . S
H451 C423 0.931 . S
H452 C429 0.931 . S
H453 C430 0.931 . S
H454 C432 0.931 . S
H455 C433 0.931 . S
C456 Eu457 2.835 . S
C456 C458 1.500 . S
C456 O476 1.257 . S
C456 O477 1.260 . S
Eu457 C456 2.835 . S
Eu457 O476 2.473 . S
Eu457 O477 2.480 . S
Eu457 O478 2.430 . S
Eu457 O479 2.670 . S
Eu457 O480 2.394 . S
Eu457 O485 2.355 . S
Eu457 O487 2.374 . S
C458 C456 1.500 . S
C458 C459 1.377 . S
C458 C463 1.377 . S
C459 C458 1.377 . S
C459 C460 1.395 . S
C459 H488 0.931 . S
C460 C459 1.395 . S
C460 C461 1.383 . S
C460 H489 0.931 . S
C461 C460 1.383 . S
C461 C462 1.394 . S
C462 C461 1.394 . S
C462 C463 1.378 . S
C462 H490 0.931 . S
C463 C458 1.377 . S
C463 C462 1.378 . S
C463 H491 0.931 . S
C464 O478 1.259 . S
C464 O479 1.270 . S
C465 O480 1.251 . S
C465 O481 1.251 . S
C466 Eu467 2.835 . S
C466 C468 1.500 . S
C466 O482 1.257 . S
C466 O483 1.260 . S
Eu467 C466 2.835 . S
Eu467 O479 2.355 . S
Eu467 O481 2.374 . S
Eu467 O482 2.473 . S
Eu467 O483 2.480 . S
Eu467 O484 2.430 . S
Eu467 O485 2.670 . S
Eu467 O486 2.394 . S
C468 C466 1.500 . S
C468 C469 1.377 . S
C468 C473 1.377 . S
C469 C468 1.377 . S
C469 C470 1.395 . S
C469 H492 0.931 . S
C470 C469 1.395 . S
C470 C471 1.383 . S
C470 H493 0.931 . S
C471 C470 1.383 . S
C471 C472 1.394 . S
C472 C471 1.394 . S
C472 C473 1.378 . S
C472 H494 0.931 . S
C473 C468 1.377 . S
C473 C472 1.378 . S
C473 H495 0.931 . S
C474 O484 1.259 . S
C474 O485 1.270 . S
C475 O486 1.251 . S
C475 O487 1.251 . S
O476 C456 1.257 . S
O476 Eu457 2.473 . S
O477 C456 1.260 . S
O477 Eu457 2.480 . S
O478 Eu457 2.430 . S
O478 C464 1.259 . S
O479 Eu457 2.670 . S
O479 C464 1.270 . S
O479 Eu467 2.355 . S
O480 Eu457 2.394 . S
O480 C465 1.251 . S
O481 C465 1.251 . S
O481 Eu467 2.374 . S
O482 C466 1.257 . S
O482 Eu467 2.473 . S
O483 C466 1.260 . S
O483 Eu467 2.480 . S
O484 Eu467 2.430 . S
O484 C474 1.259 . S
O485 Eu457 2.355 . S
O485 Eu467 2.670 . S
O485 C474 1.270 . S
O486 Eu467 2.394 . S
O486 C475 1.251 . S
O487 Eu457 2.374 . S
O487 C475 1.251 . S
H488 C459 0.931 . S
H489 C460 0.931 . S
H490 C462 0.931 . S
H491 C463 0.931 . S
H492 C469 0.931 . S
H493 C470 0.931 . S
H494 C472 0.931 . S
H495 C473 0.931 . S
C496 Eu497 2.835 . S
C496 C498 1.500 . S
C496 O516 1.257 . S
C496 O517 1.260 . S
Eu497 C496 2.835 . S
Eu497 O516 2.473 . S
Eu497 O517 2.480 . S
Eu497 O518 2.430 1_565 S
Eu497 O519 2.670 1_565 S
Eu497 O520 2.396 . S
Eu497 O525 2.355 1_565 S
Eu497 O527 2.374 1_565 S
C498 C496 1.500 . S
C498 C499 1.377 . S
C498 C503 1.377 . S
C499 C498 1.377 . S
C499 C500 1.395 . S
C499 H528 0.931 . S
C500 C499 1.395 . S
C500 C501 1.383 . S
C500 H529 0.931 . S
C501 C500 1.383 . S
C501 C502 1.394 . S
C502 C501 1.394 . S
C502 C503 1.378 . S
C502 H530 0.931 . S
C503 C498 1.377 . S
C503 C502 1.378 . S
C503 H531 0.931 . S
C504 O518 1.259 . S
C504 O519 1.270 . S
C505 O520 1.238 1_545 S
C505 O521 1.251 . S
C506 Eu507 2.835 . S
C506 C508 1.500 . S
C506 O522 1.257 . S
C506 O523 1.260 . S
Eu507 C506 2.835 . S
Eu507 O519 2.355 . S
Eu507 O521 2.374 . S
Eu507 O522 2.473 . S
Eu507 O523 2.480 . S
Eu507 O524 2.430 1_455 S
Eu507 O525 2.670 . S
Eu507 O526 2.394 . S
C508 C506 1.500 . S
C508 C509 1.377 . S
C508 C513 1.377 . S
C509 C508 1.377 . S
C509 C510 1.395 . S
C509 H532 0.931 1_455 S
C510 C509 1.395 . S
C510 C511 1.383 . S
C510 H533 0.931 1_455 S
C511 C510 1.383 . S
C511 C512 1.394 . S
C512 C511 1.394 . S
C512 C513 1.378 . S
C512 H534 0.931 . S
C513 C508 1.377 . S
C513 C512 1.378 . S
C513 H535 0.931 . S
C514 O524 1.259 . S
C514 O525 1.270 1_655 S
C515 O526 1.251 . S
C515 O527 1.251 . S
O516 C496 1.257 . S
O516 Eu497 2.473 . S
O517 C496 1.260 . S
O517 Eu497 2.480 . S
O518 Eu497 2.430 1_545 S
O518 C504 1.259 . S
O519 Eu497 2.670 1_545 S
O519 C504 1.270 . S
O519 Eu507 2.355 . S
O520 Eu497 2.396 . S
O520 C505 1.238 1_565 S
O521 C505 1.251 . S
O521 Eu507 2.374 . S
O522 C506 1.257 . S
O522 Eu507 2.473 . S
O523 C506 1.260 . S
O523 Eu507 2.480 . S
O524 Eu507 2.430 1_655 S
O524 C514 1.259 . S
O525 Eu497 2.355 1_545 S
O525 Eu507 2.670 . S
O525 C514 1.270 1_455 S
O526 Eu507 2.394 . S
O526 C515 1.251 . S
O527 Eu497 2.374 1_545 S
O527 C515 1.251 . S
H528 C499 0.931 . S
H529 C500 0.931 . S
H530 C502 0.931 . S
H531 C503 0.931 . S
H532 C509 0.931 1_655 S
H533 C510 0.931 1_655 S
H534 C512 0.931 . S
H535 C513 0.931 . S
C536 Eu537 2.835 . S
C536 C538 1.500 . S
C536 O556 1.257 . S
C536 O557 1.260 . S
Eu537 C536 2.835 . S
Eu537 O556 2.473 . S
Eu537 O557 2.480 . S
Eu537 O558 2.430 . S
Eu537 O559 2.670 . S
Eu537 O560 2.394 . S
Eu537 O565 2.355 . S
Eu537 O567 2.374 . S
C538 C536 1.500 . S
C538 C539 1.377 . S
C538 C543 1.377 . S
C539 C538 1.377 . S
C539 C540 1.395 . S
C539 H568 0.931 . S
C540 C539 1.395 . S
C540 C541 1.383 . S
C540 H569 0.931 . S
C541 C540 1.383 . S
C541 C542 1.394 . S
C542 C541 1.394 . S
C542 C543 1.378 . S
C542 H570 0.931 . S
C543 C538 1.377 . S
C543 C542 1.378 . S
C543 H571 0.931 . S
C544 O558 1.259 . S
C544 O559 1.270 . S
C545 O560 1.251 . S
C545 O561 1.251 . S
C546 Eu547 2.835 . S
C546 C548 1.500 . S
C546 O562 1.257 . S
C546 O563 1.260 . S
Eu547 C546 2.835 . S
Eu547 O559 2.355 . S
Eu547 O561 2.374 . S
Eu547 O562 2.473 . S
Eu547 O563 2.480 . S
Eu547 O564 2.430 . S
Eu547 O565 2.670 . S
Eu547 O566 2.394 . S
C548 C546 1.500 . S
C548 C549 1.377 . S
C548 C553 1.377 . S
C549 C548 1.377 . S
C549 C550 1.395 . S
C549 H572 0.931 . S
C550 C549 1.395 . S
C550 C551 1.383 . S
C550 H573 0.931 . S
C551 C550 1.383 . S
C551 C552 1.394 . S
C552 C551 1.394 . S
C552 C553 1.378 . S
C552 H574 0.931 . S
C553 C548 1.377 . S
C553 C552 1.378 . S
C553 H575 0.931 . S
C554 O564 1.259 . S
C554 O565 1.270 . S
C555 O566 1.251 . S
C555 O567 1.251 . S
O556 C536 1.257 . S
O556 Eu537 2.473 . S
O557 C536 1.260 . S
O557 Eu537 2.480 . S
O558 Eu537 2.430 . S
O558 C544 1.259 . S
O559 Eu537 2.670 . S
O559 C544 1.270 . S
O559 Eu547 2.355 . S
O560 Eu537 2.394 . S
O560 C545 1.251 . S
O561 C545 1.251 . S
O561 Eu547 2.374 . S
O562 C546 1.257 . S
O562 Eu547 2.473 . S
O563 C546 1.260 . S
O563 Eu547 2.480 . S
O564 Eu547 2.430 . S
O564 C554 1.259 . S
O565 Eu537 2.355 . S
O565 Eu547 2.670 . S
O565 C554 1.270 . S
O566 Eu547 2.394 . S
O566 C555 1.251 . S
O567 Eu537 2.374 . S
O567 C555 1.251 . S
H568 C539 0.931 . S
H569 C540 0.931 . S
H570 C542 0.931 . S
H571 C543 0.931 . S
H572 C549 0.931 . S
H573 C550 0.931 . S
H574 C552 0.931 . S
H575 C553 0.931 . S
C576 Eu577 2.835 . S
C576 C578 1.500 . S
C576 O596 1.257 . S
C576 O597 1.260 . S
Eu577 C576 2.835 . S
Eu577 O596 2.473 . S
Eu577 O597 2.480 . S
Eu577 O598 2.430 1_545 S
Eu577 O599 2.670 1_545 S
Eu577 O600 2.394 . S
Eu577 O605 2.355 . S
Eu577 O607 2.374 . S
C578 C576 1.500 . S
C578 C579 1.377 . S
C578 C583 1.377 . S
C579 C578 1.377 . S
C579 C580 1.395 . S
C579 H608 0.931 . S
C580 C579 1.395 . S
C580 C581 1.383 . S
C580 H609 0.931 . S
C581 C580 1.383 . S
C581 C582 1.394 . S
C582 C581 1.394 . S
C582 C583 1.378 . S
C582 H610 0.931 . S
C583 C578 1.377 . S
C583 C582 1.378 . S
C583 H611 0.931 . S
C584 O598 1.259 . S
C584 O599 1.270 . S
C585 O600 1.251 . S
C585 O601 1.251 1_554 S
C586 Eu587 2.835 1_565 S
C586 C588 1.500 . S
C586 O602 1.257 . S
C586 O603 1.260 1_565 S
Eu587 C586 2.835 1_545 S
Eu587 O599 2.355 1_545 S
Eu587 O601 2.374 1_554 S
Eu587 O602 2.473 1_545 S
Eu587 O603 2.480 . S
Eu587 O604 2.430 . S
Eu587 O605 2.670 . S
Eu587 O606 2.394 . S
C588 C586 1.500 . S
C588 C589 1.377 . S
C588 C593 1.377 . S
C589 C588 1.377 . S
C589 C590 1.395 . S
C589 H612 0.894 1_565 S
C590 C589 1.395 . S
C590 C591 1.383 . S
C590 H613 0.931 . S
C591 C590 1.383 . S
C591 C592 1.394 . S
C592 C591 1.394 . S
C592 C593 1.378 . S
C592 H614 0.931 . S
C593 C588 1.377 . S
C593 C592 1.378 . S
C593 H615 0.931 . S
C594 O604 1.259 . S
C594 O605 1.270 . S
C595 O606 1.251 . S
C595 O607 1.251 . S
O596 C576 1.257 . S
O596 Eu577 2.473 . S
O597 C576 1.260 . S
O597 Eu577 2.480 . S
O598 Eu577 2.430 1_565 S
O598 C584 1.259 . S
O599 Eu577 2.670 1_565 S
O599 C584 1.270 . S
O599 Eu587 2.355 1_565 S
O600 Eu577 2.394 . S
O600 C585 1.251 . S
O601 C585 1.251 1_556 S
O601 Eu587 2.374 1_556 S
O602 C586 1.257 . S
O602 Eu587 2.473 1_565 S
O603 C586 1.260 1_545 S
O603 Eu587 2.480 . S
O604 Eu587 2.430 . S
O604 C594 1.259 . S
O605 Eu577 2.355 . S
O605 Eu587 2.670 . S
O605 C594 1.270 . S
O606 Eu587 2.394 . S
O606 C595 1.251 . S
O607 Eu577 2.374 . S
O607 C595 1.251 . S
H608 C579 0.931 . S
H609 C580 0.931 . S
H610 C582 0.931 . S
H611 C583 0.931 . S
H612 C589 0.894 1_545 S
H613 C590 0.931 . S
H614 C592 0.931 . S
H615 C593 0.931 . S
C616 Eu617 2.835 . S
C616 C618 1.500 . S
C616 O636 1.257 . S
C616 O637 1.260 . S
Eu617 C616 2.835 . S
Eu617 O636 2.473 . S
Eu617 O637 2.480 . S
Eu617 O638 2.430 . S
Eu617 O639 2.670 . S
Eu617 O640 2.394 . S
Eu617 O645 2.355 . S
Eu617 O647 2.374 . S
C618 C616 1.500 . S
C618 C619 1.377 . S
C618 C623 1.377 . S
C619 C618 1.377 . S
C619 C620 1.395 . S
C619 H648 0.931 . S
C620 C619 1.395 . S
C620 C621 1.383 . S
C620 H649 0.931 . S
C621 C620 1.383 . S
C621 C622 1.394 . S
C622 C621 1.394 . S
C622 C623 1.378 . S
C622 H650 0.931 . S
C623 C618 1.377 . S
C623 C622 1.378 . S
C623 H651 0.931 . S
C624 O638 1.259 . S
C624 O639 1.270 . S
C625 O640 1.251 . S
C625 O641 1.251 . S
C626 Eu627 2.835 . S
C626 C628 1.500 . S
C626 O642 1.257 . S
C626 O643 1.260 . S
Eu627 C626 2.835 . S
Eu627 O639 2.355 . S
Eu627 O641 2.374 . S
Eu627 O642 2.473 . S
Eu627 O643 2.480 . S
Eu627 O644 2.430 . S
Eu627 O645 2.670 . S
Eu627 O646 2.394 . S
C628 C626 1.500 . S
C628 C629 1.377 . S
C628 C633 1.377 . S
C629 C628 1.377 . S
C629 C630 1.395 . S
C629 H652 0.931 . S
C630 C629 1.395 . S
C630 C631 1.383 . S
C630 H653 0.931 . S
C631 C630 1.383 . S
C631 C632 1.394 . S
C632 C631 1.394 . S
C632 C633 1.378 . S
C632 H654 0.931 . S
C633 C628 1.377 . S
C633 C632 1.378 . S
C633 H655 0.931 . S
C634 O644 1.259 . S
C634 O645 1.270 . S
C635 O646 1.251 . S
C635 O647 1.251 . S
O636 C616 1.257 . S
O636 Eu617 2.473 . S
O637 C616 1.260 . S
O637 Eu617 2.480 . S
O638 Eu617 2.430 . S
O638 C624 1.259 . S
O639 Eu617 2.670 . S
O639 C624 1.270 . S
O639 Eu627 2.355 . S
O640 Eu617 2.394 . S
O640 C625 1.251 . S
O641 C625 1.251 . S
O641 Eu627 2.374 . S
O642 C626 1.257 . S
O642 Eu627 2.473 . S
O643 C626 1.260 . S
O643 Eu627 2.480 . S
O644 Eu627 2.430 . S
O644 C634 1.259 . S
O645 Eu617 2.355 . S
O645 Eu627 2.670 . S
O645 C634 1.270 . S
O646 Eu627 2.394 . S
O646 C635 1.251 . S
O647 Eu617 2.374 . S
O647 C635 1.251 . S
H648 C619 0.931 . S
H649 C620 0.931 . S
H650 C622 0.931 . S
H651 C623 0.931 . S
H652 C629 0.931 . S
H653 C630 0.931 . S
H654 C632 0.931 . S
H655 C633 0.931 . S
C656 Eu657 2.835 . S
C656 C658 1.500 . S
C656 O676 1.257 . S
C656 O677 1.260 . S
Eu657 C656 2.835 . S
Eu657 O676 2.473 . S
Eu657 O677 2.480 . S
Eu657 O678 2.430 . S
Eu657 O679 2.670 . S
Eu657 O680 2.394 . S
Eu657 O685 2.355 . S
Eu657 O687 2.374 . S
C658 C656 1.500 . S
C658 C659 1.377 . S
C658 C663 1.377 . S
C659 C658 1.377 . S
C659 C660 1.395 . S
C659 H688 0.931 . S
C660 C659 1.395 . S
C660 C661 1.383 . S
C660 H689 0.931 . S
C661 C660 1.383 . S
C661 C662 1.394 . S
C662 C661 1.394 . S
C662 C663 1.378 . S
C662 H690 0.931 . S
C663 C658 1.377 . S
C663 C662 1.378 . S
C663 H691 0.931 . S
C664 O678 1.259 . S
C664 O679 1.270 . S
C665 O680 1.251 . S
C665 O681 1.251 . S
C666 Eu667 2.835 . S
C666 C668 1.500 . S
C666 O682 1.257 . S
C666 O683 1.260 . S
Eu667 C666 2.835 . S
Eu667 O679 2.355 . S
Eu667 O681 2.374 . S
Eu667 O682 2.473 . S
Eu667 O683 2.480 . S
Eu667 O684 2.430 . S
Eu667 O685 2.670 . S
Eu667 O686 2.394 . S
C668 C666 1.500 . S
C668 C669 1.377 . S
C668 C673 1.377 . S
C669 C668 1.377 . S
C669 C670 1.395 . S
C669 H692 0.931 . S
C670 C669 1.395 . S
C670 C671 1.383 . S
C670 H693 0.931 . S
C671 C670 1.383 . S
C671 C672 1.394 . S
C672 C671 1.394 . S
C672 C673 1.378 . S
C672 H694 0.931 . S
C673 C668 1.377 . S
C673 C672 1.378 . S
C673 H695 0.931 . S
C674 O684 1.259 . S
C674 O685 1.270 . S
C675 O686 1.251 . S
C675 O687 1.251 . S
O676 C656 1.257 . S
O676 Eu657 2.473 . S
O677 C656 1.260 . S
O677 Eu657 2.480 . S
O678 Eu657 2.430 . S
O678 C664 1.259 . S
O679 Eu657 2.670 . S
O679 C664 1.270 . S
O679 Eu667 2.355 . S
O680 Eu657 2.394 . S
O680 C665 1.251 . S
O681 C665 1.251 . S
O681 Eu667 2.374 . S
O682 C666 1.257 . S
O682 Eu667 2.473 . S
O683 C666 1.260 . S
O683 Eu667 2.480 . S
O684 Eu667 2.430 . S
O684 C674 1.259 . S
O685 Eu657 2.355 . S
O685 Eu667 2.670 . S
O685 C674 1.270 . S
O686 Eu667 2.394 . S
O686 C675 1.251 . S
O687 Eu657 2.374 . S
O687 C675 1.251 . S
H688 C659 0.931 . S
H689 C660 0.931 . S
H690 C662 0.931 . S
H691 C663 0.931 . S
H692 C669 0.931 . S
H693 C670 0.931 . S
H694 C672 0.931 . S
H695 C673 0.931 . S
C696 Eu697 2.835 . S
C696 C698 1.500 . S
C696 O716 1.257 . S
C696 O717 1.260 . S
Eu697 C696 2.835 . S
Eu697 O716 2.473 . S
Eu697 O717 2.480 . S
Eu697 O718 2.430 . S
Eu697 O719 2.670 . S
Eu697 O720 2.394 . S
Eu697 O725 2.355 . S
Eu697 O727 2.374 . S
C698 C696 1.500 . S
C698 C699 1.377 . S
C698 C703 1.377 . S
C699 C698 1.377 . S
C699 C700 1.395 . S
C699 H728 0.931 . S
C700 C699 1.395 . S
C700 C701 1.383 . S
C700 H729 0.931 . S
C701 C700 1.383 . S
C701 C702 1.394 . S
C702 C701 1.394 . S
C702 C703 1.378 . S
C702 H730 0.931 . S
C703 C698 1.377 . S
C703 C702 1.378 . S
C703 H731 0.931 . S
C704 O718 1.259 . S
C704 O719 1.270 . S
C705 O720 1.251 . S
C705 O721 1.251 . S
C706 Eu707 2.835 . S
C706 C708 1.500 . S
C706 O722 1.257 . S
C706 O723 1.260 . S
Eu707 C706 2.835 . S
Eu707 O719 2.355 . S
Eu707 O721 2.374 . S
Eu707 O722 2.473 . S
Eu707 O723 2.480 . S
Eu707 O724 2.430 . S
Eu707 O725 2.670 . S
Eu707 O726 2.394 . S
C708 C706 1.500 . S
C708 C709 1.377 . S
C708 C713 1.377 . S
C709 C708 1.377 . S
C709 C710 1.395 . S
C709 H732 0.931 . S
C710 C709 1.395 . S
C710 C711 1.383 . S
C710 H733 0.931 . S
C711 C710 1.383 . S
C711 C712 1.394 . S
C712 C711 1.394 . S
C712 C713 1.378 . S
C712 H734 0.931 . S
C713 C708 1.377 . S
C713 C712 1.378 . S
C713 H735 0.931 . S
C714 O724 1.259 . S
C714 O725 1.270 . S
C715 O726 1.251 . S
C715 O727 1.251 . S
O716 C696 1.257 . S
O716 Eu697 2.473 . S
O717 C696 1.260 . S
O717 Eu697 2.480 . S
O718 Eu697 2.430 . S
O718 C704 1.259 . S
O719 Eu697 2.670 . S
O719 C704 1.270 . S
O719 Eu707 2.355 . S
O720 Eu697 2.394 . S
O720 C705 1.251 . S
O721 C705 1.251 . S
O721 Eu707 2.374 . S
O722 C706 1.257 . S
O722 Eu707 2.473 . S
O723 C706 1.260 . S
O723 Eu707 2.480 . S
O724 Eu707 2.430 . S
O724 C714 1.259 . S
O725 Eu697 2.355 . S
O725 Eu707 2.670 . S
O725 C714 1.270 . S
O726 Eu707 2.394 . S
O726 C715 1.251 . S
O727 Eu697 2.374 . S
O727 C715 1.251 . S
H728 C699 0.931 . S
H729 C700 0.931 . S
H730 C702 0.931 . S
H731 C703 0.931 . S
H732 C709 0.931 . S
H733 C710 0.931 . S
H734 C712 0.931 . S
H735 C713 0.931 . S
C736 Eu737 2.835 . S
C736 C738 1.500 . S
C736 O756 1.257 . S
C736 O757 1.260 . S
Eu737 C736 2.835 . S
Eu737 O756 2.473 . S
Eu737 O757 2.480 . S
Eu737 O758 2.430 . S
Eu737 O759 2.670 . S
Eu737 O760 2.394 . S
Eu737 O765 2.355 . S
Eu737 O767 2.374 . S
C738 C736 1.500 . S
C738 C739 1.377 . S
C738 C743 1.377 . S
C739 C738 1.377 . S
C739 C740 1.395 . S
C739 H768 0.931 . S
C740 C739 1.395 . S
C740 C741 1.383 . S
C740 H769 0.931 . S
C741 C740 1.383 . S
C741 C742 1.394 . S
C742 C741 1.394 . S
C742 C743 1.378 . S
C742 H770 0.931 . S
C743 C738 1.377 . S
C743 C742 1.378 . S
C743 H771 0.931 . S
C744 O758 1.259 . S
C744 O759 1.270 . S
C745 O760 1.251 . S
C745 O761 1.251 . S
C746 Eu747 2.835 . S
C746 C748 1.500 . S
C746 O762 1.257 . S
C746 O763 1.260 . S
Eu747 C746 2.835 . S
Eu747 O759 2.355 1_655 S
Eu747 O761 2.374 1_655 S
Eu747 O762 2.473 . S
Eu747 O763 2.480 . S
Eu747 O764 2.430 . S
Eu747 O765 2.670 1_655 S
Eu747 O766 2.394 . S
C748 C746 1.500 . S
C748 C749 1.377 . S
C748 C753 1.377 . S
C749 C748 1.377 . S
C749 C750 1.395 . S
C749 H772 0.931 . S
C750 C749 1.395 . S
C750 C751 1.383 . S
C750 H773 0.931 . S
C751 C750 1.383 . S
C751 C752 1.394 . S
C752 C751 1.394 . S
C752 C753 1.378 . S
C752 H774 0.931 . S
C753 C748 1.377 . S
C753 C752 1.378 . S
C753 H775 0.931 . S
C754 O764 1.259 1_455 S
C754 O765 1.270 . S
C755 O766 1.251 1_455 S
C755 O767 1.251 . S
O756 C736 1.257 . S
O756 Eu737 2.473 . S
O757 C736 1.260 . S
O757 Eu737 2.480 . S
O758 Eu737 2.430 . S
O758 C744 1.259 . S
O759 Eu737 2.670 . S
O759 C744 1.270 . S
O759 Eu747 2.355 1_455 S
O760 Eu737 2.394 . S
O760 C745 1.251 . S
O761 C745 1.251 . S
O761 Eu747 2.374 1_455 S
O762 C746 1.257 . S
O762 Eu747 2.473 . S
O763 C746 1.260 . S
O763 Eu747 2.480 . S
O764 Eu747 2.430 . S
O764 C754 1.259 1_655 S
O765 Eu737 2.355 . S
O765 Eu747 2.670 1_455 S
O765 C754 1.270 . S
O766 Eu747 2.394 . S
O766 C755 1.251 1_655 S
O767 Eu737 2.374 . S
O767 C755 1.251 . S
H768 C739 0.931 . S
H769 C740 0.931 . S
H770 C742 0.931 . S
H771 C743 0.931 . S
H772 C749 0.931 . S
H773 C750 0.931 . S
H774 C752 0.931 . S
H775 C753 0.931 . S
C776 Eu777 2.835 . S
C776 C778 1.500 . S
C776 O796 1.257 . S
C776 O797 1.260 . S
Eu777 C776 2.835 . S
Eu777 O796 2.473 . S
Eu777 O797 2.480 . S
Eu777 O798 2.430 . S
Eu777 O799 2.670 . S
Eu777 O800 2.394 . S
Eu777 O805 2.355 . S
Eu777 O807 2.374 . S
C778 C776 1.500 . S
C778 C779 1.377 . S
C778 C783 1.377 . S
C779 C778 1.377 . S
C779 C780 1.395 . S
C779 H808 0.931 . S
C780 C779 1.395 . S
C780 C781 1.383 . S
C780 H809 0.931 . S
C781 C780 1.383 . S
C781 C782 1.394 . S
C782 C781 1.394 . S
C782 C783 1.378 . S
C782 H810 0.931 . S
C783 C778 1.377 . S
C783 C782 1.378 . S
C783 H811 0.931 . S
C784 O798 1.259 . S
C784 O799 1.270 . S
C785 O800 1.251 . S
C785 O801 1.251 . S
C786 Eu787 2.835 . S
C786 C788 1.500 . S
C786 O802 1.257 . S
C786 O803 1.260 . S
Eu787 C786 2.835 . S
Eu787 O799 2.355 . S
Eu787 O801 2.374 . S
Eu787 O802 2.473 . S
Eu787 O803 2.480 . S
Eu787 O804 2.430 . S
Eu787 O805 2.670 . S
Eu787 O806 2.394 . S
C788 C786 1.500 . S
C788 C789 1.377 . S
C788 C793 1.377 . S
C789 C788 1.377 . S
C789 C790 1.395 . S
C789 H812 0.931 . S
C790 C789 1.395 . S
C790 C791 1.383 . S
C790 H813 0.931 . S
C791 C790 1.383 . S
C791 C792 1.394 . S
C792 C791 1.394 . S
C792 C793 1.378 . S
C792 H814 0.931 . S
C793 C788 1.377 . S
C793 C792 1.378 . S
C793 H815 0.931 . S
C794 O804 1.259 . S
C794 O805 1.270 . S
C795 O806 1.251 . S
C795 O807 1.251 . S
O796 C776 1.257 . S
O796 Eu777 2.473 . S
O797 C776 1.260 . S
O797 Eu777 2.480 . S
O798 Eu777 2.430 . S
O798 C784 1.259 . S
O799 Eu777 2.670 . S
O799 C784 1.270 . S
O799 Eu787 2.355 . S
O800 Eu777 2.394 . S
O800 C785 1.251 . S
O801 C785 1.251 . S
O801 Eu787 2.374 . S
O802 C786 1.257 . S
O802 Eu787 2.473 . S
O803 C786 1.260 . S
O803 Eu787 2.480 . S
O804 Eu787 2.430 . S
O804 C794 1.259 . S
O805 Eu777 2.355 . S
O805 Eu787 2.670 . S
O805 C794 1.270 . S
O806 Eu787 2.394 . S
O806 C795 1.251 . S
O807 Eu777 2.374 . S
O807 C795 1.251 . S
H808 C779 0.931 . S
H809 C780 0.931 . S
H810 C782 0.931 . S
H811 C783 0.931 . S
H812 C789 0.931 . S
H813 C790 0.931 . S
H814 C792 0.931 . S
H815 C793 0.931 . S
C816 Eu817 2.835 . S
C816 C818 1.500 . S
C816 O836 1.257 . S
C816 O837 1.260 . S
Eu817 C816 2.835 . S
Eu817 O836 2.473 . S
Eu817 O837 2.480 . S
Eu817 O838 2.430 . S
Eu817 O839 2.670 . S
Eu817 O840 2.394 . S
Eu817 O845 2.355 . S
Eu817 O847 2.374 . S
C818 C816 1.500 . S
C818 C819 1.377 . S
C818 C823 1.377 . S
C819 C818 1.377 . S
C819 C820 1.395 . S
C819 H848 0.931 . S
C820 C819 1.395 . S
C820 C821 1.383 . S
C820 H849 0.931 . S
C821 C820 1.383 . S
C821 C822 1.394 . S
C822 C821 1.394 . S
C822 C823 1.378 . S
C822 H850 0.931 . S
C823 C818 1.377 . S
C823 C822 1.378 . S
C823 H851 0.931 . S
C824 O838 1.259 . S
C824 O839 1.270 . S
C825 O840 1.251 . S
C825 O841 1.251 . S
C826 Eu827 2.835 . S
C826 C828 1.500 . S
C826 O842 1.257 . S
C826 O843 1.260 . S
Eu827 C826 2.835 . S
Eu827 O839 2.355 . S
Eu827 O841 2.374 . S
Eu827 O842 2.473 . S
Eu827 O843 2.480 . S
Eu827 O844 2.430 . S
Eu827 O845 2.670 . S
Eu827 O846 2.394 . S
C828 C826 1.500 . S
C828 C829 1.377 . S
C828 C833 1.377 . S
C829 C828 1.377 . S
C829 C830 1.395 . S
C829 H852 0.931 . S
C830 C829 1.395 . S
C830 C831 1.383 . S
C830 H853 0.931 . S
C831 C830 1.383 . S
C831 C832 1.394 . S
C832 C831 1.394 . S
C832 C833 1.378 . S
C832 H854 0.931 . S
C833 C828 1.377 . S
C833 C832 1.378 . S
C833 H855 0.931 . S
C834 O844 1.259 . S
C834 O845 1.270 . S
C835 O846 1.251 . S
C835 O847 1.251 . S
O836 C816 1.257 . S
O836 Eu817 2.473 . S
O837 C816 1.260 . S
O837 Eu817 2.480 . S
O838 Eu817 2.430 . S
O838 C824 1.259 . S
O839 Eu817 2.670 . S
O839 C824 1.270 . S
O839 Eu827 2.355 . S
O840 Eu817 2.394 . S
O840 C825 1.251 . S
O841 C825 1.251 . S
O841 Eu827 2.374 . S
O842 C826 1.257 . S
O842 Eu827 2.473 . S
O843 C826 1.260 . S
O843 Eu827 2.480 . S
O844 Eu827 2.430 . S
O844 C834 1.259 . S
O845 Eu817 2.355 . S
O845 Eu827 2.670 . S
O845 C834 1.270 . S
O846 Eu827 2.394 . S
O846 C835 1.251 . S
O847 Eu817 2.374 . S
O847 C835 1.251 . S
H848 C819 0.931 . S
H849 C820 0.931 . S
H850 C822 0.931 . S
H851 C823 0.931 . S
H852 C829 0.931 . S
H853 C830 0.931 . S
H854 C832 0.931 . S
H855 C833 0.931 . S
C856 Eu857 2.835 . S
C856 C858 1.500 . S
C856 O876 1.257 . S
C856 O877 1.260 . S
Eu857 C856 2.835 . S
Eu857 O876 2.473 . S
Eu857 O877 2.480 . S
Eu857 O878 2.430 . S
Eu857 O879 2.670 . S
Eu857 O880 2.394 . S
Eu857 O885 2.355 . S
Eu857 O887 2.374 . S
C858 C856 1.500 . S
C858 C859 1.377 . S
C858 C863 1.377 . S
C859 C858 1.377 . S
C859 C860 1.395 . S
C859 H888 0.931 . S
C860 C859 1.395 . S
C860 C861 1.383 . S
C860 H889 0.931 . S
C861 C860 1.383 . S
C861 C862 1.394 . S
C862 C861 1.394 . S
C862 C863 1.378 . S
C862 H890 0.931 . S
C863 C858 1.377 . S
C863 C862 1.378 . S
C863 H891 0.931 . S
C864 O878 1.259 . S
C864 O879 1.270 . S
C865 O880 1.251 . S
C865 O881 1.251 . S
C866 Eu867 2.835 . S
C866 C868 1.500 . S
C866 O882 1.257 . S
C866 O883 1.260 . S
Eu867 C866 2.835 . S
Eu867 O879 2.355 . S
Eu867 O881 2.374 . S
Eu867 O882 2.473 . S
Eu867 O883 2.480 . S
Eu867 O884 2.430 . S
Eu867 O885 2.670 . S
Eu867 O886 2.394 . S
C868 C866 1.500 . S
C868 C869 1.377 . S
C868 C873 1.377 . S
C869 C868 1.377 . S
C869 C870 1.395 . S
C869 H892 0.931 . S
C870 C869 1.395 . S
C870 C871 1.383 . S
C870 H893 0.931 . S
C871 C870 1.383 . S
C871 C872 1.394 . S
C872 C871 1.394 . S
C872 C873 1.378 . S
C872 H894 0.931 . S
C873 C868 1.377 . S
C873 C872 1.378 . S
C873 H895 0.931 . S
C874 O884 1.259 . S
C874 O885 1.270 . S
C875 O886 1.251 . S
C875 O887 1.251 . S
O876 C856 1.257 . S
O876 Eu857 2.473 . S
O877 C856 1.260 . S
O877 Eu857 2.480 . S
O878 Eu857 2.430 . S
O878 C864 1.259 . S
O879 Eu857 2.670 . S
O879 C864 1.270 . S
O879 Eu867 2.355 . S
O880 Eu857 2.394 . S
O880 C865 1.251 . S
O881 C865 1.251 . S
O881 Eu867 2.374 . S
O882 C866 1.257 . S
O882 Eu867 2.473 . S
O883 C866 1.260 . S
O883 Eu867 2.480 . S
O884 Eu867 2.430 . S
O884 C874 1.259 . S
O885 Eu857 2.355 . S
O885 Eu867 2.670 . S
O885 C874 1.270 . S
O886 Eu867 2.394 . S
O886 C875 1.251 . S
O887 Eu857 2.374 . S
O887 C875 1.251 . S
H888 C859 0.931 . S
H889 C860 0.931 . S
H890 C862 0.931 . S
H891 C863 0.931 . S
H892 C869 0.931 . S
H893 C870 0.931 . S
H894 C872 0.931 . S
H895 C873 0.931 . S
C896 Eu897 2.835 . S
C896 C898 1.500 . S
C896 O916 1.257 . S
C896 O917 1.260 . S
Eu897 C896 2.835 . S
Eu897 O916 2.473 . S
Eu897 O917 2.480 . S
Eu897 O918 2.430 . S
Eu897 O919 2.670 . S
Eu897 O920 2.394 . S
Eu897 O925 2.355 . S
Eu897 O927 2.374 . S
C898 C896 1.500 . S
C898 C899 1.377 . S
C898 C903 1.377 . S
C899 C898 1.377 . S
C899 C900 1.395 . S
C899 H928 0.931 . S
C900 C899 1.395 . S
C900 C901 1.383 . S
C900 H929 0.931 . S
C901 C900 1.383 . S
C901 C902 1.394 . S
C902 C901 1.394 . S
C902 C903 1.378 . S
C902 H930 0.931 . S
C903 C898 1.377 . S
C903 C902 1.378 . S
C903 H931 0.931 . S
C904 O918 1.259 . S
C904 O919 1.270 . S
C905 O920 1.251 . S
C905 O921 1.251 . S
C906 Eu907 2.835 . S
C906 C908 1.500 . S
C906 O922 1.257 . S
C906 O923 1.260 . S
Eu907 C906 2.835 . S
Eu907 O919 2.355 . S
Eu907 O921 2.374 . S
Eu907 O922 2.473 . S
Eu907 O923 2.480 . S
Eu907 O924 2.430 . S
Eu907 O925 2.670 . S
Eu907 O926 2.394 . S
C908 C906 1.500 . S
C908 C909 1.377 . S
C908 C913 1.377 . S
C909 C908 1.377 . S
C909 C910 1.395 . S
C909 H932 0.931 . S
C910 C909 1.395 . S
C910 C911 1.383 . S
C910 H933 0.931 . S
C911 C910 1.383 . S
C911 C912 1.394 . S
C912 C911 1.394 . S
C912 C913 1.378 . S
C912 H934 0.931 . S
C913 C908 1.377 . S
C913 C912 1.378 . S
C913 H935 0.931 . S
C914 O924 1.259 . S
C914 O925 1.270 . S
C915 O926 1.251 . S
C915 O927 1.251 . S
O916 C896 1.257 . S
O916 Eu897 2.473 . S
O917 C896 1.260 . S
O917 Eu897 2.480 . S
O918 Eu897 2.430 . S
O918 C904 1.259 . S
O919 Eu897 2.670 . S
O919 C904 1.270 . S
O919 Eu907 2.355 . S
O920 Eu897 2.394 . S
O920 C905 1.251 . S
O921 C905 1.251 . S
O921 Eu907 2.374 . S
O922 C906 1.257 . S
O922 Eu907 2.473 . S
O923 C906 1.260 . S
O923 Eu907 2.480 . S
O924 Eu907 2.430 . S
O924 C914 1.259 . S
O925 Eu897 2.355 . S
O925 Eu907 2.670 . S
O925 C914 1.270 . S
O926 Eu907 2.394 . S
O926 C915 1.251 . S
O927 Eu897 2.374 . S
O927 C915 1.251 . S
H928 C899 0.931 . S
H929 C900 0.931 . S
H930 C902 0.931 . S
H931 C903 0.931 . S
H932 C909 0.931 . S
H933 C910 0.931 . S
H934 C912 0.931 . S
H935 C913 0.931 . S
C936 Eu937 2.835 . S
C936 C938 1.500 . S
C936 O956 1.257 . S
C936 O957 1.260 . S
Eu937 C936 2.835 . S
Eu937 O956 2.473 . S
Eu937 O957 2.480 . S
Eu937 O958 2.430 1_655 S
Eu937 O959 2.670 1_655 S
Eu937 O960 2.394 1_655 S
Eu937 O965 2.355 1_655 S
Eu937 O967 2.374 1_655 S
C938 C936 1.500 . S
C938 C939 1.377 . S
C938 C943 1.377 . S
C939 C938 1.377 . S
C939 C940 1.395 . S
C939 H968 0.931 . S
C940 C939 1.395 . S
C940 C941 1.383 . S
C940 H969 0.931 . S
C941 C940 1.383 . S
C941 C942 1.394 . S
C942 C941 1.394 . S
C942 C943 1.378 . S
C942 H970 0.931 . S
C943 C938 1.377 . S
C943 C942 1.378 . S
C943 H971 0.931 . S
C944 O958 1.259 . S
C944 O959 1.270 . S
C945 O960 1.251 . S
C945 O961 1.251 . S
C946 Eu947 2.835 . S
C946 C948 1.500 . S
C946 O962 1.257 . S
C946 O963 1.260 . S
Eu947 C946 2.835 . S
Eu947 O959 2.355 . S
Eu947 O961 2.374 . S
Eu947 O962 2.473 . S
Eu947 O963 2.480 . S
Eu947 O964 2.426 . S
Eu947 O965 2.670 . S
Eu947 O966 2.394 . S
C948 C946 1.500 . S
C948 C949 1.377 . S
C948 C953 1.377 . S
C949 C948 1.377 . S
C949 C950 1.395 . S
C949 H972 0.931 1_554 S
C950 C949 1.395 . S
C950 C951 1.383 . S
C950 H973 0.931 1_554 S
C951 C950 1.383 . S
C951 C952 1.394 . S
C952 C951 1.394 . S
C952 C953 1.378 . S
C952 H974 0.931 . S
C953 C948 1.377 . S
C953 C952 1.378 . S
C953 H975 0.931 . S
C954 O964 1.258 . S
C954 O965 1.270 . S
C955 O966 1.251 . S
C955 O967 1.251 . S
O956 C936 1.257 . S
O956 Eu937 2.473 . S
O957 C936 1.260 . S
O957 Eu937 2.480 . S
O958 Eu937 2.430 1_455 S
O958 C944 1.259 . S
O959 Eu937 2.670 1_455 S
O959 C944 1.270 . S
O959 Eu947 2.355 . S
O960 Eu937 2.394 1_455 S
O960 C945 1.251 . S
O961 C945 1.251 . S
O961 Eu947 2.374 . S
O962 C946 1.257 . S
O962 Eu947 2.473 . S
O963 C946 1.260 . S
O963 Eu947 2.480 . S
O964 Eu947 2.426 . S
O964 C954 1.258 . S
O965 Eu937 2.355 1_455 S
O965 Eu947 2.670 . S
O965 C954 1.270 . S
O966 Eu947 2.394 . S
O966 C955 1.251 . S
O967 Eu937 2.374 1_455 S
O967 C955 1.251 . S
H968 C939 0.931 . S
H969 C940 0.931 . S
H970 C942 0.931 . S
H971 C943 0.931 . S
H972 C949 0.931 1_556 S
H973 C950 0.931 1_556 S
H974 C952 0.931 . S
H975 C953 0.931 . S
H976 C982 0.930 . S
H977 C985 0.930 . S
H978 C986 0.930 . S
H979 C987 0.930 . S
H980 C990 0.930 . S
H981 C991 0.930 . S
C982 H976 0.930 . S
C982 C983 1.355 1_554 S
C982 C984 1.415 . S
C983 C982 1.355 1_556 S
C983 C985 1.419 . S
C984 C982 1.415 . S
C984 C989 1.425 . S
C984 C991 1.409 . S
C985 H977 0.930 . S
C985 C983 1.419 . S
C985 C986 1.362 . S
C986 H978 0.930 . S
C986 C985 1.362 . S
C986 C989 1.409 1_556 S
C987 H979 0.930 . S
C987 C988 1.355 . S
C987 C989 1.415 . S
C988 C987 1.355 . S
C988 C990 1.419 . S
C989 C984 1.425 . S
C989 C986 1.409 1_554 S
C989 C987 1.415 . S
C990 H980 0.930 . S
C990 C988 1.419 . S
C990 C991 1.362 . S
C991 H981 0.930 . S
C991 C984 1.409 . S
C991 C990 1.362 . S
H992 C998 0.930 . S
H993 C1001 0.930 . S
H994 C1002 0.930 . S
H995 C1003 0.930 . S
H996 C1006 0.930 . S
H997 C1007 0.930 . S
C998 H992 0.930 . S
C998 C999 1.355 . S
C998 C1000 1.415 . S
C999 C998 1.355 . S
C999 C1001 1.419 . S
C1000 C998 1.415 . S
C1000 C1005 1.425 . S
C1000 C1007 1.409 . S
C1001 H993 0.930 . S
C1001 C999 1.419 . S
C1001 C1002 1.362 . S
C1002 H994 0.930 . S
C1002 C1001 1.362 . S
C1002 C1005 1.409 . S
C1003 H995 0.930 . S
C1003 C1004 1.355 . S
C1003 C1005 1.415 . S
C1004 C1003 1.355 . S
C1004 C1006 1.419 . S
C1005 C1000 1.425 . S
C1005 C1002 1.409 . S
C1005 C1003 1.415 . S
C1006 H996 0.930 . S
C1006 C1004 1.419 . S
C1006 C1007 1.362 . S
C1007 H997 0.930 . S
C1007 C1000 1.409 . S
C1007 C1006 1.362 . S
H1008 C1014 0.930 . S
H1009 C1017 0.930 . S
H1010 C1018 0.930 . S
H1011 C1019 0.930 . S
H1012 C1022 0.930 . S
H1013 C1023 0.930 . S
C1014 H1008 0.930 . S
C1014 C1015 1.355 . S
C1014 C1016 1.415 . S
C1015 C1014 1.355 . S
C1015 C1017 1.419 . S
C1016 C1014 1.415 . S
C1016 C1021 1.425 . S
C1016 C1023 1.409 . S
C1017 H1009 0.930 . S
C1017 C1015 1.419 . S
C1017 C1018 1.362 . S
C1018 H1010 0.930 . S
C1018 C1017 1.362 . S
C1018 C1021 1.409 . S
C1019 H1011 0.930 . S
C1019 C1020 1.355 . S
C1019 C1021 1.415 . S
C1020 C1019 1.355 . S
C1020 C1022 1.419 . S
C1021 C1016 1.425 . S
C1021 C1018 1.409 . S
C1021 C1019 1.415 . S
C1022 H1012 0.930 . S
C1022 C1020 1.419 . S
C1022 C1023 1.362 . S
C1023 H1013 0.930 . S
C1023 C1016 1.409 . S
C1023 C1022 1.362 . S
H1024 C1030 0.930 . S
H1025 C1033 0.930 . S
H1026 C1034 0.930 . S
H1027 C1035 0.930 . S
H1028 C1038 0.930 . S
H1029 C1039 0.930 . S
C1030 H1024 0.930 . S
C1030 C1031 1.355 . S
C1030 C1032 1.415 . S
C1031 C1030 1.355 . S
C1031 C1033 1.419 . S
C1032 C1030 1.415 . S
C1032 C1037 1.425 . S
C1032 C1039 1.409 . S
C1033 H1025 0.930 . S
C1033 C1031 1.419 . S
C1033 C1034 1.362 . S
C1034 H1026 0.930 . S
C1034 C1033 1.362 . S
C1034 C1037 1.409 . S
C1035 H1027 0.930 . S
C1035 C1036 1.355 . S
C1035 C1037 1.415 . S
C1036 C1035 1.355 . S
C1036 C1038 1.419 . S
C1037 C1032 1.425 . S
C1037 C1034 1.409 . S
C1037 C1035 1.415 . S
C1038 H1028 0.930 . S
C1038 C1036 1.419 . S
C1038 C1039 1.362 . S
C1039 H1029 0.930 . S
C1039 C1032 1.409 . S
C1039 C1038 1.362 . S
H1040 C1046 0.930 . S
H1041 C1049 0.930 1_655 S
H1042 C1050 0.930 . S
H1043 C1051 0.930 . S
H1044 C1054 0.930 . S
H1045 C1055 0.930 . S
C1046 H1040 0.930 . S
C1046 C1047 1.355 . S
C1046 C1048 1.415 . S
C1047 C1046 1.355 . S
C1047 C1049 1.419 . S
C1048 C1046 1.415 . S
C1048 C1053 1.425 . S
C1048 C1055 1.409 . S
C1049 H1041 0.930 1_455 S
C1049 C1047 1.419 . S
C1049 C1050 1.362 . S
C1050 H1042 0.930 . S
C1050 C1049 1.362 . S
C1050 C1053 1.409 . S
C1051 H1043 0.930 . S
C1051 C1052 1.355 . S
C1051 C1053 1.415 . S
C1052 C1051 1.355 . S
C1052 C1054 1.419 . S
C1053 C1048 1.425 . S
C1053 C1050 1.409 . S
C1053 C1051 1.415 . S
C1054 H1044 0.930 . S
C1054 C1052 1.419 . S
C1054 C1055 1.362 . S
C1055 H1045 0.930 . S
C1055 C1048 1.409 . S
C1055 C1054 1.362 . S
H1056 C1062 0.930 . S
H1057 C1065 0.930 . S
H1058 C1066 0.930 . S
H1059 C1067 0.930 . S
H1060 C1070 0.930 . S
H1061 C1071 0.930 . S
C1062 H1056 0.930 . S
C1062 C1063 1.355 . S
C1062 C1064 1.415 . S
C1063 C1062 1.355 . S
C1063 C1065 1.419 . S
C1064 C1062 1.415 . S
C1064 C1069 1.425 . S
C1064 C1071 1.409 . S
C1065 H1057 0.930 . S
C1065 C1063 1.419 . S
C1065 C1066 1.362 . S
C1066 H1058 0.930 . S
C1066 C1065 1.362 . S
C1066 C1069 1.409 . S
C1067 H1059 0.930 . S
C1067 C1068 1.355 . S
C1067 C1069 1.415 . S
C1068 C1067 1.355 . S
C1068 C1070 1.419 . S
C1069 C1064 1.425 . S
C1069 C1066 1.409 . S
C1069 C1067 1.415 . S
C1070 H1060 0.930 . S
C1070 C1068 1.419 . S
C1070 C1071 1.362 . S
C1071 H1061 0.930 . S
C1071 C1064 1.409 . S
C1071 C1070 1.362 . S
H1072 C1078 0.930 . S
H1073 C1081 0.930 . S
H1074 C1082 0.930 . S
H1075 C1083 0.930 . S
H1076 C1086 0.930 . S
H1077 C1087 0.930 . S
C1078 H1072 0.930 . S
C1078 C1079 1.355 . S
C1078 C1080 1.415 . S
C1079 C1078 1.355 . S
C1079 C1081 1.419 . S
C1080 C1078 1.415 . S
C1080 C1085 1.425 . S
C1080 C1087 1.409 . S
C1081 H1073 0.930 . S
C1081 C1079 1.419 . S
C1081 C1082 1.362 . S
C1082 H1074 0.930 . S
C1082 C1081 1.362 . S
C1082 C1085 1.409 . S
C1083 H1075 0.930 . S
C1083 C1084 1.355 . S
C1083 C1085 1.415 . S
C1084 C1083 1.355 . S
C1084 C1086 1.419 . S
C1085 C1080 1.425 . S
C1085 C1082 1.409 . S
C1085 C1083 1.415 . S
C1086 H1076 0.930 . S
C1086 C1084 1.419 . S
C1086 C1087 1.362 . S
C1087 H1077 0.930 . S
C1087 C1080 1.409 . S
C1087 C1086 1.362 . S
H1088 C1094 0.930 . S
H1089 C1097 0.930 . S
H1090 C1098 0.930 . S
H1091 C1099 0.930 . S
H1092 C1102 0.930 . S
H1093 C1103 0.930 . S
C1094 H1088 0.930 . S
C1094 C1095 1.355 . S
C1094 C1096 1.415 . S
C1095 C1094 1.355 . S
C1095 C1097 1.419 . S
C1096 C1094 1.415 . S
C1096 C1101 1.425 . S
C1096 C1103 1.409 . S
C1097 H1089 0.930 . S
C1097 C1095 1.419 . S
C1097 C1098 1.362 . S
C1098 H1090 0.930 . S
C1098 C1097 1.362 . S
C1098 C1101 1.409 . S
C1099 H1091 0.930 . S
C1099 C1100 1.355 . S
C1099 C1101 1.415 . S
C1100 C1099 1.355 . S
C1100 C1102 1.419 . S
C1101 C1096 1.425 . S
C1101 C1098 1.409 . S
C1101 C1099 1.415 . S
C1102 H1092 0.930 . S
C1102 C1100 1.419 . S
C1102 C1103 1.362 . S
C1103 H1093 0.930 . S
C1103 C1096 1.409 . S
C1103 C1102 1.362 . S
H1104 C1110 0.930 . S
H1105 C1113 0.930 . S
H1106 C1114 0.965 . S
H1107 C1115 0.930 . S
H1108 C1118 0.930 . S
H1109 C1119 0.930 1_565 S
C1110 H1104 0.930 . S
C1110 C1111 1.355 . S
C1110 C1112 1.415 . S
C1111 C1110 1.355 . S
C1111 C1113 1.419 . S
C1112 C1110 1.415 . S
C1112 C1117 1.425 . S
C1112 C1119 1.409 . S
C1113 H1105 0.930 . S
C1113 C1111 1.419 . S
C1113 C1114 1.324 1_655 S
C1114 H1106 0.965 . S
C1114 C1113 1.324 1_455 S
C1114 C1117 1.415 1_455 S
C1115 H1107 0.930 . S
C1115 C1116 1.355 . S
C1115 C1117 1.415 1_455 S
C1116 C1115 1.355 . S
C1116 C1118 1.419 1_455 S
C1117 C1112 1.425 . S
C1117 C1114 1.415 1_655 S
C1117 C1115 1.415 1_655 S
C1118 H1108 0.930 . S
C1118 C1116 1.419 1_655 S
C1118 C1119 1.362 . S
C1119 H1109 0.930 1_545 S
C1119 C1112 1.409 . S
C1119 C1118 1.362 . S
H1120 C1126 0.930 . S
H1121 C1129 0.930 . S
H1122 C1130 0.930 . S
H1123 C1131 0.930 . S
H1124 C1134 0.930 . S
H1125 C1135 0.930 . S
C1126 H1120 0.930 . S
C1126 C1127 1.355 . S
C1126 C1128 1.415 . S
C1127 C1126 1.355 . S
C1127 C1129 1.419 . S
C1128 C1126 1.415 . S
C1128 C1133 1.425 . S
C1128 C1135 1.409 . S
C1129 H1121 0.930 . S
C1129 C1127 1.419 . S
C1129 C1130 1.362 . S
C1130 H1122 0.930 . S
C1130 C1129 1.362 . S
C1130 C1133 1.409 . S
C1131 H1123 0.930 . S
C1131 C1132 1.355 . S
C1131 C1133 1.415 . S
C1132 C1131 1.355 . S
C1132 C1134 1.419 . S
C1133 C1128 1.425 . S
C1133 C1130 1.409 . S
C1133 C1131 1.415 . S
C1134 H1124 0.930 . S
C1134 C1132 1.419 . S
C1134 C1135 1.362 . S
C1135 H1125 0.930 . S
C1135 C1128 1.409 . S
C1135 C1134 1.362 . S
H1136 C1142 0.930 . S
H1137 C1145 0.930 . S
H1138 C1146 0.930 . S
H1139 C1147 0.930 . S
H1140 C1150 0.930 . S
H1141 C1151 0.930 . S
C1142 H1136 0.930 . S
C1142 C1143 1.355 . S
C1142 C1144 1.415 . S
C1143 C1142 1.355 . S
C1143 C1145 1.419 1_545 S
C1144 C1142 1.415 . S
C1144 C1149 1.415 1_545 S
C1144 C1151 1.409 . S
C1145 H1137 0.930 . S
C1145 C1143 1.419 1_565 S
C1145 C1146 1.362 . S
C1146 H1138 0.930 . S
C1146 C1145 1.362 . S
C1146 C1149 1.430 . S
C1147 H1139 0.930 . S
C1147 C1148 1.355 1_565 S
C1147 C1149 1.405 . S
C1148 C1147 1.355 1_545 S
C1148 C1150 1.419 . S
C1149 C1144 1.415 1_565 S
C1149 C1146 1.430 . S
C1149 C1147 1.405 . S
C1150 H1140 0.930 . S
C1150 C1148 1.419 . S
C1150 C1151 1.362 . S
C1151 H1141 0.930 . S
C1151 C1144 1.409 . S
C1151 C1150 1.362 . S
H1152 C1158 0.930 . S
H1153 C1161 0.930 1_554 S
H1154 C1162 0.930 . S
H1155 C1163 0.930 . S
H1156 C1166 0.930 . S
H1157 C1167 0.930 . S
C1158 H1152 0.930 . S
C1158 C1159 1.355 . S
C1158 C1160 1.415 . S
C1159 C1158 1.355 . S
C1159 C1161 1.419 . S
C1160 C1158 1.415 . S
C1160 C1165 1.425 . S
C1160 C1167 1.409 . S
C1161 H1153 0.930 1_556 S
C1161 C1159 1.419 . S
C1161 C1162 1.362 . S
C1162 H1154 0.930 . S
C1162 C1161 1.362 . S
C1162 C1165 1.409 . S
C1163 H1155 0.930 . S
C1163 C1164 1.355 . S
C1163 C1165 1.415 . S
C1164 C1163 1.355 . S
C1164 C1166 1.419 . S
C1165 C1160 1.425 . S
C1165 C1162 1.409 . S
C1165 C1163 1.415 . S
C1166 H1156 0.930 . S
C1166 C1164 1.419 . S
C1166 C1167 1.362 . S
C1167 H1157 0.930 . S
C1167 C1160 1.409 . S
C1167 C1166 1.362 . S
H1168 C1174 0.930 . S
H1169 C1177 0.930 1_565 S
H1170 C1178 0.930 1_565 S
H1171 C1179 0.930 1_565 S
H1172 C1182 0.930 . S
H1173 C1183 0.930 . S
C1174 H1168 0.930 . S
C1174 C1175 1.355 . S
C1174 C1176 1.415 . S
C1175 C1174 1.355 . S
C1175 C1177 1.419 . S
C1176 C1174 1.415 . S
C1176 C1181 1.425 . S
C1176 C1183 1.409 1_655 S
C1177 H1169 0.930 1_545 S
C1177 C1175 1.419 . S
C1177 C1178 1.362 . S
C1178 H1170 0.930 1_545 S
C1178 C1177 1.362 . S
C1178 C1181 1.409 . S
C1179 H1171 0.930 1_545 S
C1179 C1180 1.355 1_655 S
C1179 C1181 1.415 . S
C1180 C1179 1.355 1_455 S
C1180 C1182 1.419 . S
C1181 C1176 1.425 . S
C1181 C1178 1.409 . S
C1181 C1179 1.415 . S
C1182 H1172 0.930 . S
C1182 C1180 1.419 . S
C1182 C1183 1.362 . S
C1183 H1173 0.930 . S
C1183 C1176 1.409 1_455 S
C1183 C1182 1.362 . S
H1184 C1190 0.930 . S
H1185 C1193 0.930 . S
H1186 C1194 0.930 . S
H1187 C1195 0.930 . S
H1188 C1198 0.930 . S
H1189 C1199 0.930 . S
C1190 H1184 0.930 . S
C1190 C1191 1.355 . S
C1190 C1192 1.415 . S
C1191 C1190 1.355 . S
C1191 C1193 1.419 . S
C1192 C1190 1.415 . S
C1192 C1197 1.425 . S
C1192 C1199 1.409 . S
C1193 H1185 0.930 . S
C1193 C1191 1.419 . S
C1193 C1194 1.362 . S
C1194 H1186 0.930 . S
C1194 C1193 1.362 . S
C1194 C1197 1.409 . S
C1195 H1187 0.930 . S
C1195 C1196 1.355 . S
C1195 C1197 1.415 . S
C1196 C1195 1.355 . S
C1196 C1198 1.419 . S
C1197 C1192 1.425 . S
C1197 C1194 1.409 . S
C1197 C1195 1.415 . S
C1198 H1188 0.930 . S
C1198 C1196 1.419 . S
C1198 C1199 1.362 . S
C1199 H1189 0.930 . S
C1199 C1192 1.409 . S
C1199 C1198 1.362 . S
H1200 C1206 0.930 . S
H1201 C1209 0.930 . S
H1202 C1210 0.930 . S
H1203 C1211 0.930 . S
H1204 C1214 0.930 1_554 S
H1205 C1215 0.930 . S
C1206 H1200 0.930 . S
C1206 C1207 1.355 . S
C1206 C1208 1.415 . S
C1207 C1206 1.355 . S
C1207 C1209 1.419 . S
C1208 C1206 1.415 . S
C1208 C1213 1.425 . S
C1208 C1215 1.409 . S
C1209 H1201 0.930 . S
C1209 C1207 1.419 . S
C1209 C1210 1.362 . S
C1210 H1202 0.930 . S
C1210 C1209 1.362 . S
C1210 C1213 1.409 . S
C1211 H1203 0.930 . S
C1211 C1212 1.355 . S
C1211 C1213 1.415 . S
C1212 C1211 1.355 . S
C1212 C1214 1.419 . S
C1213 C1208 1.425 . S
C1213 C1210 1.409 . S
C1213 C1211 1.415 . S
C1214 H1204 0.930 1_556 S
C1214 C1212 1.419 . S
C1214 C1215 1.362 . S
C1215 H1205 0.930 . S
C1215 C1208 1.409 . S
C1215 C1214 1.362 . S
H1216 C1222 0.930 . S
H1217 C1225 0.930 . S
H1218 C1226 0.930 . S
H1219 C1227 0.930 . S
H1220 C1230 0.930 . S
H1221 C1231 0.930 . S
C1222 H1216 0.930 . S
C1222 C1223 1.355 . S
C1222 C1224 1.415 . S
C1223 C1222 1.355 . S
C1223 C1225 1.419 . S
C1224 C1222 1.415 . S
C1224 C1229 1.425 . S
C1224 C1231 1.409 . S
C1225 H1217 0.930 . S
C1225 C1223 1.419 . S
C1225 C1226 1.362 . S
C1226 H1218 0.930 . S
C1226 C1225 1.362 . S
C1226 C1229 1.409 . S
C1227 H1219 0.930 . S
C1227 C1228 1.355 . S
C1227 C1229 1.415 . S
C1228 C1227 1.355 . S
C1228 C1230 1.419 . S
C1229 C1224 1.425 . S
C1229 C1226 1.409 . S
C1229 C1227 1.415 . S
C1230 H1220 0.930 . S
C1230 C1228 1.419 . S
C1230 C1231 1.362 . S
C1231 H1221 0.930 . S
C1231 C1224 1.409 . S
C1231 C1230 1.362 . S
H1232 C1238 0.930 1_556 S
H1233 C1241 0.930 . S
H1234 C1242 0.930 . S
H1235 C1243 0.930 . S
H1236 C1246 0.930 . S
H1237 C1247 0.930 . S
C1238 H1232 0.930 1_554 S
C1238 C1239 1.355 . S
C1238 C1240 1.415 . S
C1239 C1238 1.355 . S
C1239 C1241 1.419 . S
C1240 C1238 1.415 . S
C1240 C1245 1.425 . S
C1240 C1247 1.409 . S
C1241 H1233 0.930 . S
C1241 C1239 1.419 . S
C1241 C1242 1.362 . S
C1242 H1234 0.930 . S
C1242 C1241 1.362 . S
C1242 C1245 1.409 . S
C1243 H1235 0.930 . S
C1243 C1244 1.355 . S
C1243 C1245 1.415 . S
C1244 C1243 1.355 . S
C1244 C1246 1.419 . S
C1245 C1240 1.425 . S
C1245 C1242 1.409 . S
C1245 C1243 1.415 . S
C1246 H1236 0.930 . S
C1246 C1244 1.419 . S
C1246 C1247 1.362 . S
C1247 H1237 0.930 . S
C1247 C1240 1.409 . S
C1247 C1246 1.362 . S
H1248 C1254 0.930 . S
H1249 C1257 0.930 . S
H1250 C1258 0.930 . S
H1251 C1259 0.930 . S
H1252 C1262 0.930 . S
H1253 C1263 0.930 . S
C1254 H1248 0.930 . S
C1254 C1255 1.355 . S
C1254 C1256 1.415 . S
C1255 C1254 1.355 . S
C1255 C1257 1.419 . S
C1256 C1254 1.415 . S
C1256 C1261 1.425 . S
C1256 C1263 1.409 . S
C1257 H1249 0.930 . S
C1257 C1255 1.419 . S
C1257 C1258 1.362 . S
C1258 H1250 0.930 . S
C1258 C1257 1.362 . S
C1258 C1261 1.409 . S
C1259 H1251 0.930 . S
C1259 C1260 1.355 . S
C1259 C1261 1.415 . S
C1260 C1259 1.355 . S
C1260 C1262 1.419 . S
C1261 C1256 1.425 . S
C1261 C1258 1.409 . S
C1261 C1259 1.415 . S
C1262 H1252 0.930 . S
C1262 C1260 1.419 . S
C1262 C1263 1.362 . S
C1263 H1253 0.930 . S
C1263 C1256 1.409 . S
C1263 C1262 1.362 . S
H1264 C1270 0.930 . S
H1265 C1273 0.930 . S
H1266 C1274 0.930 . S
H1267 C1275 0.930 . S
H1268 C1278 0.930 . S
H1269 C1279 0.930 . S
C1270 H1264 0.930 . S
C1270 C1271 1.355 . S
C1270 C1272 1.415 . S
C1271 C1270 1.355 . S
C1271 C1273 1.419 . S
C1272 C1270 1.415 . S
C1272 C1277 1.425 . S
C1272 C1279 1.409 . S
C1273 H1265 0.930 . S
C1273 C1271 1.419 . S
C1273 C1274 1.362 . S
C1274 H1266 0.930 . S
C1274 C1273 1.362 . S
C1274 C1277 1.409 . S
C1275 H1267 0.930 . S
C1275 C1276 1.355 . S
C1275 C1277 1.415 . S
C1276 C1275 1.355 . S
C1276 C1278 1.419 . S
C1277 C1272 1.425 . S
C1277 C1274 1.409 . S
C1277 C1275 1.415 . S
C1278 H1268 0.930 . S
C1278 C1276 1.419 . S
C1278 C1279 1.362 . S
C1279 H1269 0.930 . S
C1279 C1272 1.409 . S
C1279 C1278 1.362 . S
H1280 C1286 0.930 . S
H1281 C1289 0.930 . S
H1282 C1290 0.930 . S
H1283 C1291 0.930 . S
H1284 C1294 0.930 . S
H1285 C1295 0.930 . S
C1286 H1280 0.930 . S
C1286 C1287 1.355 . S
C1286 C1288 1.415 . S
C1287 C1286 1.355 . S
C1287 C1289 1.419 . S
C1288 C1286 1.415 . S
C1288 C1293 1.425 . S
C1288 C1295 1.409 . S
C1289 H1281 0.930 . S
C1289 C1287 1.419 . S
C1289 C1290 1.362 . S
C1290 H1282 0.930 . S
C1290 C1289 1.362 . S
C1290 C1293 1.409 . S
C1291 H1283 0.930 . S
C1291 C1292 1.355 . S
C1291 C1293 1.415 . S
C1292 C1291 1.355 . S
C1292 C1294 1.419 . S
C1293 C1288 1.425 . S
C1293 C1290 1.409 . S
C1293 C1291 1.415 . S
C1294 H1284 0.930 . S
C1294 C1292 1.419 . S
C1294 C1295 1.362 . S
C1295 H1285 0.930 . S
C1295 C1288 1.409 . S
C1295 C1294 1.362 . S
H1296 C1302 0.930 . S
H1297 C1305 0.930 . S
H1298 C1306 0.930 . S
H1299 C1307 0.930 . S
H1300 C1310 0.930 . S
H1301 C1311 0.930 . S
C1302 H1296 0.930 . S
C1302 C1303 1.355 . S
C1302 C1304 1.415 . S
C1303 C1302 1.355 . S
C1303 C1305 1.419 . S
C1304 C1302 1.415 . S
C1304 C1309 1.425 . S
C1304 C1311 1.409 . S
C1305 H1297 0.930 . S
C1305 C1303 1.419 . S
C1305 C1306 1.362 . S
C1306 H1298 0.930 . S
C1306 C1305 1.362 . S
C1306 C1309 1.409 . S
C1307 H1299 0.930 . S
C1307 C1308 1.355 . S
C1307 C1309 1.415 . S
C1308 C1307 1.355 . S
C1308 C1310 1.419 . S
C1309 C1304 1.425 . S
C1309 C1306 1.409 . S
C1309 C1307 1.415 . S
C1310 H1300 0.930 . S
C1310 C1308 1.419 . S
C1310 C1311 1.362 . S
C1311 H1301 0.930 . S
C1311 C1304 1.409 . S
C1311 C1310 1.362 . S
H1312 C1318 0.930 . S
H1313 C1321 0.930 . S
H1314 C1322 0.930 . S
H1315 C1323 0.930 . S
H1316 C1326 0.930 . S
H1317 C1327 0.930 . S
C1318 H1312 0.930 . S
C1318 C1319 1.355 . S
C1318 C1320 1.415 . S
C1319 C1318 1.355 . S
C1319 C1321 1.419 . S
C1320 C1318 1.415 . S
C1320 C1325 1.425 . S
C1320 C1327 1.409 . S
C1321 H1313 0.930 . S
C1321 C1319 1.419 . S
C1321 C1322 1.362 . S
C1322 H1314 0.930 . S
C1322 C1321 1.362 . S
C1322 C1325 1.409 . S
C1323 H1315 0.930 . S
C1323 C1324 1.355 . S
C1323 C1325 1.415 . S
C1324 C1323 1.355 . S
C1324 C1326 1.419 . S
C1325 C1320 1.425 . S
C1325 C1322 1.409 . S
C1325 C1323 1.415 . S
C1326 H1316 0.930 . S
C1326 C1324 1.419 . S
C1326 C1327 1.362 . S
C1327 H1317 0.930 . S
C1327 C1320 1.409 . S
C1327 C1326 1.362 . S
H1328 C1334 0.930 . S
H1329 C1337 0.930 . S
H1330 C1338 0.930 . S
H1331 C1339 0.930 . S
H1332 C1342 0.930 . S
H1333 C1343 0.930 . S
C1334 H1328 0.930 . S
C1334 C1335 1.355 . S
C1334 C1336 1.415 . S
C1335 C1334 1.355 . S
C1335 C1337 1.419 . S
C1336 C1334 1.415 . S
C1336 C1341 1.425 . S
C1336 C1343 1.409 . S
C1337 H1329 0.930 . S
C1337 C1335 1.419 . S
C1337 C1338 1.362 . S
C1338 H1330 0.930 . S
C1338 C1337 1.362 . S
C1338 C1341 1.409 . S
C1339 H1331 0.930 . S
C1339 C1340 1.355 . S
C1339 C1341 1.415 . S
C1340 C1339 1.355 . S
C1340 C1342 1.419 . S
C1341 C1336 1.425 . S
C1341 C1338 1.409 . S
C1341 C1339 1.415 . S
C1342 H1332 0.930 . S
C1342 C1340 1.419 . S
C1342 C1343 1.362 . S
C1343 H1333 0.930 . S
C1343 C1336 1.409 . S
C1343 C1342 1.362 . S
H1344 C1350 0.930 . S
H1345 C1353 0.930 . S
H1346 C1354 0.930 . S
H1347 C1355 0.930 . S
H1348 C1358 0.930 . S
H1349 C1359 0.930 . S
C1350 H1344 0.930 . S
C1350 C1351 1.355 . S
C1350 C1352 1.415 . S
C1351 C1350 1.355 . S
C1351 C1353 1.419 . S
C1352 C1350 1.415 . S
C1352 C1357 1.425 . S
C1352 C1359 1.409 . S
C1353 H1345 0.930 . S
C1353 C1351 1.419 . S
C1353 C1354 1.362 . S
C1354 H1346 0.930 . S
C1354 C1353 1.362 . S
C1354 C1357 1.409 . S
C1355 H1347 0.930 . S
C1355 C1356 1.355 . S
C1355 C1357 1.415 . S
C1356 C1355 1.355 . S
C1356 C1358 1.419 . S
C1357 C1352 1.425 . S
C1357 C1354 1.409 . S
C1357 C1355 1.415 . S
C1358 H1348 0.930 . S
C1358 C1356 1.419 . S
C1358 C1359 1.362 . S
C1359 H1349 0.930 . S
C1359 C1352 1.409 . S
C1359 C1358 1.362 . S
H1360 C1366 0.930 . S
H1361 C1369 0.930 . S
H1362 C1370 0.930 . S
H1363 C1371 0.930 . S
H1364 C1374 0.930 . S
H1365 C1375 0.930 . S
C1366 H1360 0.930 . S
C1366 C1367 1.355 . S
C1366 C1368 1.415 . S
C1367 C1366 1.355 . S
C1367 C1369 1.419 . S
C1368 C1366 1.415 . S
C1368 C1373 1.425 . S
C1368 C1375 1.409 . S
C1369 H1361 0.930 . S
C1369 C1367 1.419 . S
C1369 C1370 1.362 . S
C1370 H1362 0.930 . S
C1370 C1369 1.362 . S
C1370 C1373 1.409 . S
C1371 H1363 0.930 . S
C1371 C1372 1.355 . S
C1371 C1373 1.415 . S
C1372 C1371 1.355 . S
C1372 C1374 1.419 . S
C1373 C1368 1.425 . S
C1373 C1370 1.409 . S
C1373 C1371 1.415 . S
C1374 H1364 0.930 . S
C1374 C1372 1.419 . S
C1374 C1375 1.362 . S
C1375 H1365 0.930 . S
C1375 C1368 1.409 . S
C1375 C1374 1.362 . S
H1376 C1382 0.930 . S
H1377 C1385 0.930 . S
H1378 C1386 0.930 . S
H1379 C1387 0.930 . S
H1380 C1390 0.930 . S
H1381 C1391 0.930 . S
C1382 H1376 0.930 . S
C1382 C1383 1.355 . S
C1382 C1384 1.415 . S
C1383 C1382 1.355 . S
C1383 C1385 1.419 . S
C1384 C1382 1.415 . S
C1384 C1389 1.425 . S
C1384 C1391 1.409 . S
C1385 H1377 0.930 . S
C1385 C1383 1.419 . S
C1385 C1386 1.362 . S
C1386 H1378 0.930 . S
C1386 C1385 1.362 . S
C1386 C1389 1.409 . S
C1387 H1379 0.930 . S
C1387 C1388 1.355 . S
C1387 C1389 1.415 . S
C1388 C1387 1.355 . S
C1388 C1390 1.419 . S
C1389 C1384 1.425 . S
C1389 C1386 1.409 . S
C1389 C1387 1.415 . S
C1390 H1380 0.930 . S
C1390 C1388 1.419 . S
C1390 C1391 1.362 . S
C1391 H1381 0.930 . S
C1391 C1384 1.409 . S
C1391 C1390 1.362 . S
H1392 C1398 0.930 . S
H1393 C1401 0.930 . S
H1394 C1402 0.930 . S
H1395 C1403 0.930 . S
H1396 C1406 0.930 . S
H1397 C1407 0.930 . S
C1398 H1392 0.930 . S
C1398 C1399 1.355 . S
C1398 C1400 1.415 . S
C1399 C1398 1.355 . S
C1399 C1401 1.419 . S
C1400 C1398 1.415 . S
C1400 C1405 1.425 . S
C1400 C1407 1.409 . S
C1401 H1393 0.930 . S
C1401 C1399 1.419 . S
C1401 C1402 1.362 . S
C1402 H1394 0.930 . S
C1402 C1401 1.362 . S
C1402 C1405 1.409 . S
C1403 H1395 0.930 . S
C1403 C1404 1.355 . S
C1403 C1405 1.415 . S
C1404 C1403 1.355 . S
C1404 C1406 1.419 . S
C1405 C1400 1.425 . S
C1405 C1402 1.409 . S
C1405 C1403 1.415 . S
C1406 H1396 0.930 . S
C1406 C1404 1.419 . S
C1406 C1407 1.362 . S
C1407 H1397 0.930 . S
C1407 C1400 1.409 . S
C1407 C1406 1.362 . S
H1408 C1414 0.930 . S
H1409 C1417 0.930 . S
H1410 C1418 0.930 . S
H1411 C1419 0.930 . S
H1412 C1422 0.930 . S
H1413 C1423 0.930 . S
C1414 H1408 0.930 . S
C1414 C1415 1.355 . S
C1414 C1416 1.415 . S
C1415 C1414 1.355 . S
C1415 C1417 1.419 . S
C1416 C1414 1.415 . S
C1416 C1421 1.425 . S
C1416 C1423 1.409 . S
C1417 H1409 0.930 . S
C1417 C1415 1.419 . S
C1417 C1418 1.362 . S
C1418 H1410 0.930 . S
C1418 C1417 1.362 . S
C1418 C1421 1.409 . S
C1419 H1411 0.930 . S
C1419 C1420 1.355 . S
C1419 C1421 1.415 . S
C1420 C1419 1.355 . S
C1420 C1422 1.419 . S
C1421 C1416 1.425 . S
C1421 C1418 1.409 . S
C1421 C1419 1.415 . S
C1422 H1412 0.930 . S
C1422 C1420 1.419 . S
C1422 C1423 1.362 . S
C1423 H1413 0.930 . S
C1423 C1416 1.409 . S
C1423 C1422 1.362 . S
H1424 C1430 0.930 . S
H1425 C1433 0.930 . S
H1426 C1434 0.930 . S
H1427 C1435 0.899 1_655 S
H1428 C1438 0.930 . S
H1429 C1439 0.930 . S
C1430 H1424 0.930 . S
C1430 C1431 1.355 . S
C1430 C1432 1.415 . S
C1431 C1430 1.355 . S
C1431 C1433 1.419 . S
C1432 C1430 1.415 . S
C1432 C1437 1.425 . S
C1432 C1439 1.409 . S
C1433 H1425 0.930 . S
C1433 C1431 1.419 . S
C1433 C1434 1.362 . S
C1434 H1426 0.930 . S
C1434 C1433 1.362 . S
C1434 C1437 1.409 . S
C1435 H1427 0.899 1_455 S
C1435 C1436 1.355 . S
C1435 C1437 1.415 . S
C1436 C1435 1.355 . S
C1436 C1438 1.419 . S
C1437 C1432 1.425 . S
C1437 C1434 1.409 . S
C1437 C1435 1.415 . S
C1438 H1428 0.930 . S
C1438 C1436 1.419 . S
C1438 C1439 1.362 . S
C1439 H1429 0.930 . S
C1439 C1432 1.409 . S
C1439 C1438 1.362 . S
H1440 C1446 0.930 . S
H1441 C1449 0.930 . S
H1442 C1450 0.930 . S
H1443 C1451 0.930 . S
H1444 C1454 0.930 . S
H1445 C1455 0.930 . S
C1446 H1440 0.930 . S
C1446 C1447 1.355 . S
C1446 C1448 1.415 . S
C1447 C1446 1.355 . S
C1447 C1449 1.419 . S
C1448 C1446 1.415 . S
C1448 C1453 1.425 . S
C1448 C1455 1.409 . S
C1449 H1441 0.930 . S
C1449 C1447 1.419 . S
C1449 C1450 1.362 . S
C1450 H1442 0.930 . S
C1450 C1449 1.362 . S
C1450 C1453 1.409 . S
C1451 H1443 0.930 . S
C1451 C1452 1.355 . S
C1451 C1453 1.415 . S
C1452 C1451 1.355 . S
C1452 C1454 1.419 . S
C1453 C1448 1.425 . S
C1453 C1450 1.409 . S
C1453 C1451 1.415 . S
C1454 H1444 0.930 . S
C1454 C1452 1.419 . S
C1454 C1455 1.362 . S
C1455 H1445 0.930 . S
C1455 C1448 1.409 . S
C1455 C1454 1.362 . S
H1456 C1462 0.930 . S
H1457 C1465 0.930 . S
H1458 C1466 0.930 . S
H1459 C1467 0.930 . S
H1460 C1470 0.930 . S
H1461 C1471 0.930 . S
C1462 H1456 0.930 . S
C1462 C1463 1.355 . S
C1462 C1464 1.415 . S
C1463 C1462 1.355 . S
C1463 C1465 1.419 . S
C1464 C1462 1.415 . S
C1464 C1469 1.425 . S
C1464 C1471 1.409 . S
C1465 H1457 0.930 . S
C1465 C1463 1.419 . S
C1465 C1466 1.362 . S
C1466 H1458 0.930 . S
C1466 C1465 1.362 . S
C1466 C1469 1.409 . S
C1467 H1459 0.930 . S
C1467 C1468 1.355 . S
C1467 C1469 1.415 . S
C1468 C1467 1.355 . S
C1468 C1470 1.419 . S
C1469 C1464 1.425 . S
C1469 C1466 1.409 . S
C1469 C1467 1.415 . S
C1470 H1460 0.930 . S
C1470 C1468 1.419 . S
C1470 C1471 1.362 . S
C1471 H1461 0.930 . S
C1471 C1464 1.409 . S
C1471 C1470 1.362 . S
H1472 C1478 0.930 . S
H1473 C1481 0.930 . S
H1474 C1482 0.930 . S
H1475 C1483 0.930 . S
H1476 C1486 0.930 . S
H1477 C1487 0.930 . S
C1478 H1472 0.930 . S
C1478 C1479 1.355 . S
C1478 C1480 1.415 . S
C1479 C1478 1.355 . S
C1479 C1481 1.419 . S
C1480 C1478 1.415 . S
C1480 C1485 1.425 . S
C1480 C1487 1.409 . S
C1481 H1473 0.930 . S
C1481 C1479 1.419 . S
C1481 C1482 1.362 . S
C1482 H1474 0.930 . S
C1482 C1481 1.362 . S
C1482 C1485 1.409 . S
C1483 H1475 0.930 . S
C1483 C1484 1.355 . S
C1483 C1485 1.415 . S
C1484 C1483 1.355 . S
C1484 C1486 1.419 . S
C1485 C1480 1.425 . S
C1485 C1482 1.409 . S
C1485 C1483 1.415 . S
C1486 H1476 0.930 . S
C1486 C1484 1.419 . S
C1486 C1487 1.362 . S
C1487 H1477 0.930 . S
C1487 C1480 1.409 . S
C1487 C1486 1.362 . S
H1488 C1494 0.930 . S
H1489 C1497 0.930 . S
H1490 C1498 0.930 . S
H1491 C1499 0.930 . S
H1492 C1502 0.930 1_554 S
H1493 C1503 0.930 . S
C1494 H1488 0.930 . S
C1494 C1495 1.355 . S
C1494 C1496 1.415 . S
C1495 C1494 1.355 . S
C1495 C1497 1.419 1_545 S
C1496 C1494 1.415 . S
C1496 C1501 1.417 1_545 S
C1496 C1503 1.409 . S
C1497 H1489 0.930 . S
C1497 C1495 1.419 1_565 S
C1497 C1498 1.362 . S
C1498 H1490 0.930 . S
C1498 C1497 1.362 . S
C1498 C1501 1.416 . S
C1499 H1491 0.930 . S
C1499 C1500 1.355 1_565 S
C1499 C1501 1.417 . S
C1500 C1499 1.355 1_545 S
C1500 C1502 1.419 . S
C1501 C1496 1.417 1_565 S
C1501 C1498 1.416 . S
C1501 C1499 1.417 . S
C1502 H1492 0.930 1_556 S
C1502 C1500 1.419 . S
C1502 C1503 1.362 . S
C1503 H1493 0.930 . S
C1503 C1496 1.409 . S
C1503 C1502 1.362 . S
H1504 C1510 0.930 . S
H1505 C1513 0.930 . S
H1506 C1514 0.930 . S
H1507 C1515 0.930 . S
H1508 C1518 0.930 . S
H1509 C1519 0.930 . S
C1510 H1504 0.930 . S
C1510 C1511 1.355 . S
C1510 C1512 1.415 . S
C1511 C1510 1.355 . S
C1511 C1513 1.419 . S
C1512 C1510 1.415 . S
C1512 C1517 1.425 . S
C1512 C1519 1.409 . S
C1513 H1505 0.930 . S
C1513 C1511 1.419 . S
C1513 C1514 1.362 . S
C1514 H1506 0.930 . S
C1514 C1513 1.362 . S
C1514 C1517 1.409 . S
C1515 H1507 0.930 . S
C1515 C1516 1.355 . S
C1515 C1517 1.415 . S
C1516 C1515 1.355 . S
C1516 C1518 1.419 . S
C1517 C1512 1.425 . S
C1517 C1514 1.409 . S
C1517 C1515 1.415 . S
C1518 H1508 0.930 . S
C1518 C1516 1.419 . S
C1518 C1519 1.362 . S
C1519 H1509 0.930 . S
C1519 C1512 1.409 . S
C1519 C1518 1.362 . S
H1520 C1526 0.930 1_565 S
H1521 C1529 0.930 . S
H1522 C1530 0.930 . S
H1523 C1531 0.930 . S
H1524 C1534 0.966 . S
H1525 C1535 0.930 . S
C1526 H1520 0.930 1_545 S
C1526 C1527 1.355 . S
C1526 C1528 1.415 . S
C1527 C1526 1.355 . S
C1527 C1529 1.419 . S
C1528 C1526 1.415 . S
C1528 C1533 1.425 . S
C1528 C1535 1.409 1_545 S
C1529 H1521 0.930 . S
C1529 C1527 1.419 . S
C1529 C1530 1.362 . S
C1530 H1522 0.930 . S
C1530 C1529 1.362 . S
C1530 C1533 1.409 . S
C1531 H1523 0.930 . S
C1531 C1532 1.355 . S
C1531 C1533 1.415 . S
C1532 C1531 1.355 . S
C1532 C1534 1.393 1_545 S
C1533 C1528 1.425 . S
C1533 C1530 1.409 . S
C1533 C1531 1.415 . S
C1534 H1524 0.966 . S
C1534 C1532 1.393 1_565 S
C1534 C1535 1.354 . S
C1535 H1525 0.930 . S
C1535 C1528 1.409 1_565 S
C1535 C1534 1.354 . S
H1536 C1542 0.930 . S
H1537 C1545 0.930 . S
H1538 C1546 0.930 . S
H1539 C1547 0.930 . S
H1540 C1550 0.930 . S
H1541 C1551 0.930 . S
C1542 H1536 0.930 . S
C1542 C1543 1.355 . S
C1542 C1544 1.415 . S
C1543 C1542 1.355 . S
C1543 C1545 1.419 . S
C1544 C1542 1.415 . S
C1544 C1549 1.425 . S
C1544 C1551 1.409 . S
C1545 H1537 0.930 . S
C1545 C1543 1.419 . S
C1545 C1546 1.362 . S
C1546 H1538 0.930 . S
C1546 C1545 1.362 . S
C1546 C1549 1.409 . S
C1547 H1539 0.930 . S
C1547 C1548 1.355 . S
C1547 C1549 1.415 . S
C1548 C1547 1.355 . S
C1548 C1550 1.419 . S
C1549 C1544 1.425 . S
C1549 C1546 1.409 . S
C1549 C1547 1.415 . S
C1550 H1540 0.930 . S
C1550 C1548 1.419 . S
C1550 C1551 1.362 . S
C1551 H1541 0.930 . S
C1551 C1544 1.409 . S
C1551 C1550 1.362 . S
H1552 C1558 0.930 . S
H1553 C1561 0.930 . S
H1554 C1562 0.930 . S
H1555 C1563 0.930 . S
H1556 C1566 0.930 . S
H1557 C1567 0.930 . S
C1558 H1552 0.930 . S
C1558 C1559 1.355 . S
C1558 C1560 1.415 . S
C1559 C1558 1.355 . S
C1559 C1561 1.419 1_565 S
C1560 C1558 1.415 . S
C1560 C1565 1.425 1_565 S
C1560 C1567 1.409 . S
C1561 H1553 0.930 . S
C1561 C1559 1.419 1_545 S
C1561 C1562 1.362 . S
C1562 H1554 0.930 . S
C1562 C1561 1.362 . S
C1562 C1565 1.409 . S
C1563 H1555 0.930 . S
C1563 C1564 1.355 . S
C1563 C1565 1.415 . S
C1564 C1563 1.355 . S
C1564 C1566 1.419 1_545 S
C1565 C1560 1.425 1_545 S
C1565 C1562 1.409 . S
C1565 C1563 1.415 . S
C1566 H1556 0.930 . S
C1566 C1564 1.419 1_565 S
C1566 C1567 1.362 . S
C1567 H1557 0.930 . S
C1567 C1560 1.409 . S
C1567 C1566 1.362 . S
H1568 C1574 0.930 . S
H1569 C1577 0.930 . S
H1570 C1578 0.930 . S
H1571 C1579 0.930 . S
H1572 C1582 0.930 . S
H1573 C1583 0.930 . S
C1574 H1568 0.930 . S
C1574 C1575 1.355 . S
C1574 C1576 1.415 . S
C1575 C1574 1.355 . S
C1575 C1577 1.419 . S
C1576 C1574 1.415 . S
C1576 C1581 1.425 . S
C1576 C1583 1.409 . S
C1577 H1569 0.930 . S
C1577 C1575 1.419 . S
C1577 C1578 1.362 . S
C1578 H1570 0.930 . S
C1578 C1577 1.362 . S
C1578 C1581 1.409 . S
C1579 H1571 0.930 . S
C1579 C1580 1.355 . S
C1579 C1581 1.415 . S
C1580 C1579 1.355 . S
C1580 C1582 1.419 . S
C1581 C1576 1.425 . S
C1581 C1578 1.409 . S
C1581 C1579 1.415 . S
C1582 H1572 0.930 . S
C1582 C1580 1.419 . S
C1582 C1583 1.362 . S
C1583 H1573 0.930 . S
C1583 C1576 1.409 . S
C1583 C1582 1.362 . S
H1584 C1590 0.930 1_565 S
H1585 C1593 0.930 . S
H1586 C1594 0.930 . S
H1587 C1595 0.930 . S
H1588 C1598 0.930 . S
H1589 C1599 0.930 . S
C1590 H1584 0.930 1_545 S
C1590 C1591 1.355 . S
C1590 C1592 1.415 . S
C1591 C1590 1.355 . S
C1591 C1593 1.419 . S
C1592 C1590 1.415 . S
C1592 C1597 1.425 . S
C1592 C1599 1.409 1_545 S
C1593 H1585 0.930 . S
C1593 C1591 1.419 . S
C1593 C1594 1.362 . S
C1594 H1586 0.930 . S
C1594 C1593 1.362 . S
C1594 C1597 1.409 . S
C1595 H1587 0.930 . S
C1595 C1596 1.355 . S
C1595 C1597 1.415 . S
C1596 C1595 1.355 . S
C1596 C1598 1.419 1_545 S
C1597 C1592 1.425 . S
C1597 C1594 1.409 . S
C1597 C1595 1.415 . S
C1598 H1588 0.930 . S
C1598 C1596 1.419 1_565 S
C1598 C1599 1.362 . S
C1599 H1589 0.930 . S
C1599 C1592 1.409 1_565 S
C1599 C1598 1.362 . S
H1600 C1606 0.930 . S
H1601 C1609 0.930 . S
H1602 C1610 0.930 . S
H1603 C1611 0.930 . S
H1604 C1614 0.930 . S
H1605 C1615 0.930 . S
C1606 H1600 0.930 . S
C1606 C1607 1.355 . S
C1606 C1608 1.415 . S
C1607 C1606 1.355 . S
C1607 C1609 1.419 . S
C1608 C1606 1.415 . S
C1608 C1613 1.425 . S
C1608 C1615 1.409 . S
C1609 H1601 0.930 . S
C1609 C1607 1.419 . S
C1609 C1610 1.362 . S
C1610 H1602 0.930 . S
C1610 C1609 1.362 . S
C1610 C1613 1.409 . S
C1611 H1603 0.930 . S
C1611 C1612 1.355 . S
C1611 C1613 1.415 . S
C1612 C1611 1.355 . S
C1612 C1614 1.419 . S
C1613 C1608 1.425 . S
C1613 C1610 1.409 . S
C1613 C1611 1.415 . S
C1614 H1604 0.930 . S
C1614 C1612 1.419 . S
C1614 C1615 1.362 . S
C1615 H1605 0.930 . S
C1615 C1608 1.409 . S
C1615 C1614 1.362 . S
H1616 C1622 0.930 . S
H1617 C1625 0.930 . S
H1618 C1626 0.930 . S
H1619 C1627 0.930 . S
H1620 C1630 0.930 . S
H1621 C1631 0.930 . S
C1622 H1616 0.930 . S
C1622 C1623 1.355 . S
C1622 C1624 1.415 . S
C1623 C1622 1.355 . S
C1623 C1625 1.419 . S
C1624 C1622 1.415 . S
C1624 C1629 1.425 . S
C1624 C1631 1.409 . S
C1625 H1617 0.930 . S
C1625 C1623 1.419 . S
C1625 C1626 1.362 . S
C1626 H1618 0.930 . S
C1626 C1625 1.362 . S
C1626 C1629 1.409 . S
C1627 H1619 0.930 . S
C1627 C1628 1.355 . S
C1627 C1629 1.415 . S
C1628 C1627 1.355 . S
C1628 C1630 1.419 . S
C1629 C1624 1.425 . S
C1629 C1626 1.409 . S
C1629 C1627 1.415 . S
C1630 H1620 0.930 . S
C1630 C1628 1.419 . S
C1630 C1631 1.362 . S
C1631 H1621 0.930 . S
C1631 C1624 1.409 . S
C1631 C1630 1.362 . S
H1632 C1638 0.930 . S
H1633 C1641 0.930 . S
H1634 C1642 0.930 . S
H1635 C1643 0.930 . S
H1636 C1646 0.930 . S
H1637 C1647 0.930 . S
C1638 H1632 0.930 . S
C1638 C1639 1.355 . S
C1638 C1640 1.415 . S
C1639 C1638 1.355 . S
C1639 C1641 1.419 . S
C1640 C1638 1.415 . S
C1640 C1645 1.425 . S
C1640 C1647 1.409 . S
C1641 H1633 0.930 . S
C1641 C1639 1.419 . S
C1641 C1642 1.362 . S
C1642 H1634 0.930 . S
C1642 C1641 1.362 . S
C1642 C1645 1.409 . S
C1643 H1635 0.930 . S
C1643 C1644 1.355 . S
C1643 C1645 1.415 . S
C1644 C1643 1.355 . S
C1644 C1646 1.419 . S
C1645 C1640 1.425 . S
C1645 C1642 1.409 . S
C1645 C1643 1.415 . S
C1646 H1636 0.930 . S
C1646 C1644 1.419 . S
C1646 C1647 1.362 . S
C1647 H1637 0.930 . S
C1647 C1640 1.409 . S
C1647 C1646 1.362 . S
H1648 C1654 0.930 . S
H1649 C1657 0.930 . S
H1650 C1658 0.930 . S
H1651 C1659 0.930 . S
H1652 C1662 0.930 . S
H1653 C1663 0.930 . S
C1654 H1648 0.930 . S
C1654 C1655 1.355 . S
C1654 C1656 1.415 . S
C1655 C1654 1.355 . S
C1655 C1657 1.419 . S
C1656 C1654 1.415 . S
C1656 C1661 1.425 . S
C1656 C1663 1.409 . S
C1657 H1649 0.930 . S
C1657 C1655 1.419 . S
C1657 C1658 1.362 . S
C1658 H1650 0.930 . S
C1658 C1657 1.362 . S
C1658 C1661 1.409 . S
C1659 H1651 0.930 . S
C1659 C1660 1.355 . S
C1659 C1661 1.415 . S
C1660 C1659 1.355 . S
C1660 C1662 1.419 . S
C1661 C1656 1.425 . S
C1661 C1658 1.409 . S
C1661 C1659 1.415 . S
C1662 H1652 0.930 . S
C1662 C1660 1.419 . S
C1662 C1663 1.362 . S
C1663 H1653 0.930 . S
C1663 C1656 1.409 . S
C1663 C1662 1.362 . S
H1664 C1670 0.930 . S
H1665 C1673 0.930 . S
H1666 C1674 0.930 . S
H1667 C1675 0.930 . S
H1668 C1678 0.930 . S
H1669 C1679 0.930 . S
C1670 H1664 0.930 . S
C1670 C1671 1.355 . S
C1670 C1672 1.415 . S
C1671 C1670 1.355 . S
C1671 C1673 1.419 . S
C1672 C1670 1.415 . S
C1672 C1677 1.425 . S
C1672 C1679 1.409 . S
C1673 H1665 0.930 . S
C1673 C1671 1.419 . S
C1673 C1674 1.362 . S
C1674 H1666 0.930 . S
C1674 C1673 1.362 . S
C1674 C1677 1.409 . S
C1675 H1667 0.930 . S
C1675 C1676 1.355 . S
C1675 C1677 1.415 . S
C1676 C1675 1.355 . S
C1676 C1678 1.419 . S
C1677 C1672 1.425 . S
C1677 C1674 1.409 . S
C1677 C1675 1.415 . S
C1678 H1668 0.930 . S
C1678 C1676 1.419 . S
C1678 C1679 1.362 . S
C1679 H1669 0.930 . S
C1679 C1672 1.409 . S
C1679 C1678 1.362 . S
H1680 C1686 0.930 . S
H1681 C1689 0.930 . S
H1682 C1690 0.930 . S
H1683 C1691 0.930 . S
H1684 C1694 0.930 . S
H1685 C1695 0.930 . S
C1686 H1680 0.930 . S
C1686 C1687 1.355 . S
C1686 C1688 1.415 . S
C1687 C1686 1.355 . S
C1687 C1689 1.419 . S
C1688 C1686 1.415 . S
C1688 C1693 1.425 . S
C1688 C1695 1.409 . S
C1689 H1681 0.930 . S
C1689 C1687 1.419 . S
C1689 C1690 1.362 . S
C1690 H1682 0.930 . S
C1690 C1689 1.362 . S
C1690 C1693 1.409 . S
C1691 H1683 0.930 . S
C1691 C1692 1.355 . S
C1691 C1693 1.415 . S
C1692 C1691 1.355 . S
C1692 C1694 1.419 . S
C1693 C1688 1.425 . S
C1693 C1690 1.409 . S
C1693 C1691 1.415 . S
C1694 H1684 0.930 . S
C1694 C1692 1.419 . S
C1694 C1695 1.362 . S
C1695 H1685 0.930 . S
C1695 C1688 1.409 . S
C1695 C1694 1.362 . S
H1696 C1702 0.930 . S
H1697 C1705 0.930 . S
H1698 C1706 0.930 . S
H1699 C1707 0.930 . S
H1700 C1710 0.930 . S
H1701 C1711 0.930 . S
C1702 H1696 0.930 . S
C1702 C1703 1.355 . S
C1702 C1704 1.415 . S
C1703 C1702 1.355 . S
C1703 C1705 1.419 . S
C1704 C1702 1.415 . S
C1704 C1709 1.425 . S
C1704 C1711 1.409 . S
C1705 H1697 0.930 . S
C1705 C1703 1.419 . S
C1705 C1706 1.362 . S
C1706 H1698 0.930 . S
C1706 C1705 1.362 . S
C1706 C1709 1.409 . S
C1707 H1699 0.930 . S
C1707 C1708 1.355 . S
C1707 C1709 1.415 . S
C1708 C1707 1.355 . S
C1708 C1710 1.419 . S
C1709 C1704 1.425 . S
C1709 C1706 1.409 . S
C1709 C1707 1.415 . S
C1710 H1700 0.930 . S
C1710 C1708 1.419 . S
C1710 C1711 1.362 . S
C1711 H1701 0.930 . S
C1711 C1704 1.409 . S
C1711 C1710 1.362 . S
H1712 C1718 0.930 . S
H1713 C1721 0.930 . S
H1714 C1722 0.930 . S
H1715 C1723 0.930 . S
H1716 C1726 0.930 . S
H1717 C1727 0.930 . S
C1718 H1712 0.930 . S
C1718 C1719 1.355 . S
C1718 C1720 1.415 . S
C1719 C1718 1.355 . S
C1719 C1721 1.419 . S
C1720 C1718 1.415 . S
C1720 C1725 1.425 . S
C1720 C1727 1.409 . S
C1721 H1713 0.930 . S
C1721 C1719 1.419 . S
C1721 C1722 1.362 . S
C1722 H1714 0.930 . S
C1722 C1721 1.362 . S
C1722 C1725 1.409 . S
C1723 H1715 0.930 . S
C1723 C1724 1.355 . S
C1723 C1725 1.415 . S
C1724 C1723 1.355 . S
C1724 C1726 1.419 . S
C1725 C1720 1.425 . S
C1725 C1722 1.409 . S
C1725 C1723 1.415 . S
C1726 H1716 0.930 . S
C1726 C1724 1.419 . S
C1726 C1727 1.362 . S
C1727 H1717 0.930 . S
C1727 C1720 1.409 . S
C1727 C1726 1.362 . S
H1728 C1734 0.930 . S
H1729 C1737 0.930 . S
H1730 C1738 0.930 . S
H1731 C1739 0.930 . S
H1732 C1742 0.930 . S
H1733 C1743 0.930 . S
C1734 H1728 0.930 . S
C1734 C1735 1.355 . S
C1734 C1736 1.415 . S
C1735 C1734 1.355 . S
C1735 C1737 1.419 . S
C1736 C1734 1.415 . S
C1736 C1741 1.425 . S
C1736 C1743 1.409 . S
C1737 H1729 0.930 . S
C1737 C1735 1.419 . S
C1737 C1738 1.362 . S
C1738 H1730 0.930 . S
C1738 C1737 1.362 . S
C1738 C1741 1.409 . S
C1739 H1731 0.930 . S
C1739 C1740 1.355 . S
C1739 C1741 1.415 . S
C1740 C1739 1.355 . S
C1740 C1742 1.419 . S
C1741 C1736 1.425 . S
C1741 C1738 1.409 . S
C1741 C1739 1.415 . S
C1742 H1732 0.930 . S
C1742 C1740 1.419 . S
C1742 C1743 1.362 . S
C1743 H1733 0.930 . S
C1743 C1736 1.409 . S
C1743 C1742 1.362 . S
H1744 C1750 0.930 . S
H1745 C1753 0.930 . S
H1746 C1754 0.930 . S
H1747 C1755 0.930 . S
H1748 C1758 0.930 . S
H1749 C1759 0.930 . S
C1750 H1744 0.930 . S
C1750 C1751 1.355 . S
C1750 C1752 1.415 . S
C1751 C1750 1.355 . S
C1751 C1753 1.419 . S
C1752 C1750 1.415 . S
C1752 C1757 1.425 . S
C1752 C1759 1.409 . S
C1753 H1745 0.930 . S
C1753 C1751 1.419 . S
C1753 C1754 1.362 . S
C1754 H1746 0.930 . S
C1754 C1753 1.362 . S
C1754 C1757 1.409 . S
C1755 H1747 0.930 . S
C1755 C1756 1.355 . S
C1755 C1757 1.415 . S
C1756 C1755 1.355 . S
C1756 C1758 1.419 . S
C1757 C1752 1.425 . S
C1757 C1754 1.409 . S
C1757 C1755 1.415 . S
C1758 H1748 0.930 . S
C1758 C1756 1.419 . S
C1758 C1759 1.362 . S
C1759 H1749 0.930 . S
C1759 C1752 1.409 . S
C1759 C1758 1.362 . S
H1760 C1766 0.930 . S
H1761 C1769 0.930 . S
H1762 C1770 0.930 . S
H1763 C1771 0.930 . S
H1764 C1774 0.930 . S
H1765 C1775 0.930 . S
C1766 H1760 0.930 . S
C1766 C1767 1.355 . S
C1766 C1768 1.415 . S
C1767 C1766 1.355 . S
C1767 C1769 1.419 . S
C1768 C1766 1.415 . S
C1768 C1773 1.425 . S
C1768 C1775 1.409 . S
C1769 H1761 0.930 . S
C1769 C1767 1.419 . S
C1769 C1770 1.362 . S
C1770 H1762 0.930 . S
C1770 C1769 1.362 . S
C1770 C1773 1.409 . S
C1771 H1763 0.930 . S
C1771 C1772 1.355 . S
C1771 C1773 1.415 . S
C1772 C1771 1.355 . S
C1772 C1774 1.419 . S
C1773 C1768 1.425 . S
C1773 C1770 1.409 . S
C1773 C1771 1.415 . S
C1774 H1764 0.930 . S
C1774 C1772 1.419 . S
C1774 C1775 1.362 . S
C1775 H1765 0.930 . S
C1775 C1768 1.409 . S
C1775 C1774 1.362 . S
H1776 C1782 0.930 . S
H1777 C1785 0.930 . S
H1778 C1786 0.930 . S
H1779 C1787 0.930 . S
H1780 C1790 0.930 1_556 S
H1781 C1791 0.930 . S
C1782 H1776 0.930 . S
C1782 C1783 1.355 . S
C1782 C1784 1.415 . S
C1783 C1782 1.355 . S
C1783 C1785 1.419 1_456 S
C1784 C1782 1.415 . S
C1784 C1789 1.425 1_556 S
C1784 C1791 1.409 . S
C1785 H1777 0.930 . S
C1785 C1783 1.419 1_654 S
C1785 C1786 1.362 . S
C1786 H1778 0.930 . S
C1786 C1785 1.362 . S
C1786 C1789 1.409 1_655 S
C1787 H1779 0.930 . S
C1787 C1788 1.355 . S
C1787 C1789 1.415 . S
C1788 C1787 1.355 . S
C1788 C1790 1.419 . S
C1789 C1784 1.425 1_554 S
C1789 C1786 1.409 1_455 S
C1789 C1787 1.415 . S
C1790 H1780 0.930 1_554 S
C1790 C1788 1.419 . S
C1790 C1791 1.362 1_554 S
C1791 H1781 0.930 . S
C1791 C1784 1.409 . S
C1791 C1790 1.362 1_556 S
H1792 C1798 0.930 1_455 S
H1793 C1801 0.930 . S
H1794 C1802 0.930 . S
H1795 C1803 0.930 . S
H1796 C1806 0.930 . S
H1797 C1807 0.930 . S
C1798 H1792 0.930 1_655 S
C1798 C1799 1.355 1_655 S
C1798 C1800 1.415 . S
C1799 C1798 1.355 1_455 S
C1799 C1801 1.419 1_455 S
C1800 C1798 1.415 . S
C1800 C1805 1.425 . S
C1800 C1807 1.409 . S
C1801 H1793 0.930 . S
C1801 C1799 1.419 1_655 S
C1801 C1802 1.362 . S
C1802 H1794 0.930 . S
C1802 C1801 1.362 . S
C1802 C1805 1.409 . S
C1803 H1795 0.930 . S
C1803 C1804 1.355 . S
C1803 C1805 1.415 . S
C1804 C1803 1.355 . S
C1804 C1806 1.419 . S
C1805 C1800 1.425 . S
C1805 C1802 1.409 . S
C1805 C1803 1.415 . S
C1806 H1796 0.930 . S
C1806 C1804 1.419 . S
C1806 C1807 1.362 . S
C1807 H1797 0.930 . S
C1807 C1800 1.409 . S
C1807 C1806 1.362 . S
H1808 C1814 0.930 . S
H1809 C1817 0.930 . S
H1810 C1818 0.930 . S
H1811 C1819 0.930 . S
H1812 C1822 0.930 . S
H1813 C1823 0.930 . S
C1814 H1808 0.930 . S
C1814 C1815 1.355 . S
C1814 C1816 1.415 . S
C1815 C1814 1.355 . S
C1815 C1817 1.419 . S
C1816 C1814 1.415 . S
C1816 C1821 1.425 . S
C1816 C1823 1.409 . S
C1817 H1809 0.930 . S
C1817 C1815 1.419 . S
C1817 C1818 1.362 . S
C1818 H1810 0.930 . S
C1818 C1817 1.362 . S
C1818 C1821 1.409 . S
C1819 H1811 0.930 . S
C1819 C1820 1.355 . S
C1819 C1821 1.415 . S
C1820 C1819 1.355 . S
C1820 C1822 1.419 . S
C1821 C1816 1.425 . S
C1821 C1818 1.409 . S
C1821 C1819 1.415 . S
C1822 H1812 0.930 . S
C1822 C1820 1.419 . S
C1822 C1823 1.362 . S
C1823 H1813 0.930 . S
C1823 C1816 1.409 . S
C1823 C1822 1.362 . S
H1824 C1830 0.930 . S
H1825 C1833 0.930 1_455 S
H1826 C1834 0.930 . S
H1827 C1835 0.930 . S
H1828 C1838 0.930 . S
H1829 C1839 0.930 . S
C1830 H1824 0.930 . S
C1830 C1831 1.355 . S
C1830 C1832 1.415 1_455 S
C1831 C1830 1.355 . S
C1831 C1833 1.417 1_455 S
C1832 C1830 1.415 1_655 S
C1832 C1837 1.425 . S
C1832 C1839 1.409 . S
C1833 H1825 0.930 1_655 S
C1833 C1831 1.417 1_655 S
C1833 C1834 1.364 . S
C1834 H1826 0.930 . S
C1834 C1833 1.364 . S
C1834 C1837 1.409 . S
C1835 H1827 0.930 . S
C1835 C1836 1.355 . S
C1835 C1837 1.415 . S
C1836 C1835 1.355 . S
C1836 C1838 1.419 . S
C1837 C1832 1.425 . S
C1837 C1834 1.409 . S
C1837 C1835 1.415 . S
C1838 H1828 0.930 . S
C1838 C1836 1.419 . S
C1838 C1839 1.362 . S
C1839 H1829 0.930 . S
C1839 C1832 1.409 . S
C1839 C1838 1.362 . S
H1840 C1846 0.930 . S
H1841 C1849 0.930 . S
H1842 C1850 0.930 . S
H1843 C1851 0.930 . S
H1844 C1854 0.930 . S
H1845 C1855 0.930 . S
C1846 H1840 0.930 . S
C1846 C1847 1.355 1_455 S
C1846 C1848 1.415 . S
C1847 C1846 1.355 1_655 S
C1847 C1849 1.419 . S
C1848 C1846 1.415 . S
C1848 C1853 1.425 . S
C1848 C1855 1.409 . S
C1849 H1841 0.930 . S
C1849 C1847 1.419 . S
C1849 C1850 1.362 . S
C1850 H1842 0.930 . S
C1850 C1849 1.362 . S
C1850 C1853 1.409 1_655 S
C1851 H1843 0.930 . S
C1851 C1852 1.355 . S
C1851 C1853 1.415 . S
C1852 C1851 1.355 . S
C1852 C1854 1.419 . S
C1853 C1848 1.425 . S
C1853 C1850 1.409 1_455 S
C1853 C1851 1.415 . S
C1854 H1844 0.930 . S
C1854 C1852 1.419 . S
C1854 C1855 1.362 . S
C1855 H1845 0.930 . S
C1855 C1848 1.409 . S
C1855 C1854 1.362 . S
H1856 C1862 0.930 . S
H1857 C1865 0.930 . S
H1858 C1866 0.930 . S
H1859 C1867 0.930 . S
H1860 C1870 0.930 . S
H1861 C1871 0.930 . S
C1862 H1856 0.930 . S
C1862 C1863 1.355 . S
C1862 C1864 1.415 . S
C1863 C1862 1.355 . S
C1863 C1865 1.419 . S
C1864 C1862 1.415 . S
C1864 C1869 1.425 . S
C1864 C1871 1.409 . S
C1865 H1857 0.930 . S
C1865 C1863 1.419 . S
C1865 C1866 1.362 . S
C1866 H1858 0.930 . S
C1866 C1865 1.362 . S
C1866 C1869 1.409 . S
C1867 H1859 0.930 . S
C1867 C1868 1.355 . S
C1867 C1869 1.415 . S
C1868 C1867 1.355 . S
C1868 C1870 1.419 . S
C1869 C1864 1.425 . S
C1869 C1866 1.409 . S
C1869 C1867 1.415 . S
C1870 H1860 0.930 . S
C1870 C1868 1.419 . S
C1870 C1871 1.362 . S
C1871 H1861 0.930 . S
C1871 C1864 1.409 . S
C1871 C1870 1.362 . S
H1872 C1878 0.930 . S
H1873 C1881 0.930 . S
H1874 C1882 0.930 . S
H1875 C1883 0.930 . S
H1876 C1886 0.930 . S
H1877 C1887 0.930 . S
C1878 H1872 0.930 . S
C1878 C1879 1.355 . S
C1878 C1880 1.415 . S
C1879 C1878 1.355 . S
C1879 C1881 1.419 . S
C1880 C1878 1.415 . S
C1880 C1885 1.425 . S
C1880 C1887 1.409 . S
C1881 H1873 0.930 . S
C1881 C1879 1.419 . S
C1881 C1882 1.362 . S
C1882 H1874 0.930 . S
C1882 C1881 1.362 . S
C1882 C1885 1.409 . S
C1883 H1875 0.930 . S
C1883 C1884 1.355 . S
C1883 C1885 1.415 . S
C1884 C1883 1.355 . S
C1884 C1886 1.419 . S
C1885 C1880 1.425 . S
C1885 C1882 1.409 . S
C1885 C1883 1.415 . S
C1886 H1876 0.930 . S
C1886 C1884 1.419 . S
C1886 C1887 1.362 . S
C1887 H1877 0.930 . S
C1887 C1880 1.409 . S
C1887 C1886 1.362 . S
H1888 C1894 0.930 . S
H1889 C1897 0.930 . S
H1890 C1898 0.930 . S
H1891 C1899 0.930 . S
H1892 C1902 0.930 . S
H1893 C1903 0.930 . S
C1894 H1888 0.930 . S
C1894 C1895 1.355 . S
C1894 C1896 1.415 . S
C1895 C1894 1.355 . S
C1895 C1897 1.419 . S
C1896 C1894 1.415 . S
C1896 C1901 1.425 . S
C1896 C1903 1.409 . S
C1897 H1889 0.930 . S
C1897 C1895 1.419 . S
C1897 C1898 1.362 . S
C1898 H1890 0.930 . S
C1898 C1897 1.362 . S
C1898 C1901 1.409 . S
C1899 H1891 0.930 . S
C1899 C1900 1.355 . S
C1899 C1901 1.415 1_556 S
C1900 C1899 1.355 . S
C1900 C1902 1.419 1_556 S
C1901 C1896 1.425 . S
C1901 C1898 1.409 . S
C1901 C1899 1.415 1_554 S
C1902 H1892 0.930 . S
C1902 C1900 1.419 1_554 S
C1902 C1903 1.362 . S
C1903 H1893 0.930 . S
C1903 C1896 1.409 . S
C1903 C1902 1.362 . S
H1904 C1910 0.930 . S
H1905 C1913 0.930 . S
H1906 C1914 0.930 . S
H1907 C1915 0.930 . S
H1908 C1918 0.930 . S
H1909 C1919 0.930 . S
C1910 H1904 0.930 . S
C1910 C1911 1.355 . S
C1910 C1912 1.415 . S
C1911 C1910 1.355 . S
C1911 C1913 1.419 . S
C1912 C1910 1.415 . S
C1912 C1917 1.425 . S
C1912 C1919 1.409 . S
C1913 H1905 0.930 . S
C1913 C1911 1.419 . S
C1913 C1914 1.362 . S
C1914 H1906 0.930 . S
C1914 C1913 1.362 . S
C1914 C1917 1.409 . S
C1915 H1907 0.930 . S
C1915 C1916 1.355 . S
C1915 C1917 1.415 . S
C1916 C1915 1.355 . S
C1916 C1918 1.419 . S
C1917 C1912 1.425 . S
C1917 C1914 1.409 . S
C1917 C1915 1.415 . S
C1918 H1908 0.930 . S
C1918 C1916 1.419 . S
C1918 C1919 1.362 . S
C1919 H1909 0.930 . S
C1919 C1912 1.409 . S
C1919 C1918 1.362 . S
H1920 C1926 0.930 . S
H1921 C1929 0.930 . S
H1922 C1930 0.930 . S
H1923 C1931 0.930 . S
H1924 C1934 0.930 . S
H1925 C1935 0.930 . S
C1926 H1920 0.930 . S
C1926 C1927 1.355 . S
C1926 C1928 1.415 . S
C1927 C1926 1.355 . S
C1927 C1929 1.419 . S
C1928 C1926 1.415 . S
C1928 C1933 1.425 . S
C1928 C1935 1.409 . S
C1929 H1921 0.930 . S
C1929 C1927 1.419 . S
C1929 C1930 1.362 . S
C1930 H1922 0.930 . S
C1930 C1929 1.362 . S
C1930 C1933 1.409 . S
C1931 H1923 0.930 . S
C1931 C1932 1.355 . S
C1931 C1933 1.415 . S
C1932 C1931 1.355 . S
C1932 C1934 1.419 . S
C1933 C1928 1.425 . S
C1933 C1930 1.409 . S
C1933 C1931 1.415 . S
C1934 H1924 0.930 . S
C1934 C1932 1.419 . S
C1934 C1935 1.362 . S
C1935 H1925 0.930 . S
C1935 C1928 1.409 . S
C1935 C1934 1.362 . S
H1936 C1942 0.930 . S
H1937 C1945 0.930 . S
H1938 C1946 0.930 . S
H1939 C1947 0.930 . S
H1940 C1950 0.930 . S
H1941 C1951 0.930 . S
C1942 H1936 0.930 . S
C1942 C1943 1.355 . S
C1942 C1944 1.415 . S
C1943 C1942 1.355 . S
C1943 C1945 1.419 . S
C1944 C1942 1.415 . S
C1944 C1949 1.425 . S
C1944 C1951 1.409 . S
C1945 H1937 0.930 . S
C1945 C1943 1.419 . S
C1945 C1946 1.362 . S
C1946 H1938 0.930 . S
C1946 C1945 1.362 . S
C1946 C1949 1.409 . S
C1947 H1939 0.930 . S
C1947 C1948 1.355 . S
C1947 C1949 1.415 . S
C1948 C1947 1.355 . S
C1948 C1950 1.419 . S
C1949 C1944 1.425 . S
C1949 C1946 1.409 . S
C1949 C1947 1.415 . S
C1950 H1940 0.930 . S
C1950 C1948 1.419 . S
C1950 C1951 1.362 . S
C1951 H1941 0.930 . S
C1951 C1944 1.409 . S
C1951 C1950 1.362 . S
H1952 C1958 0.930 . S
H1953 C1961 0.930 . S
H1954 C1962 0.930 . S
H1955 C1963 0.930 . S
H1956 C1966 0.930 . S
H1957 C1967 0.930 . S
C1958 H1952 0.930 . S
C1958 C1959 1.355 . S
C1958 C1960 1.415 . S
C1959 C1958 1.355 . S
C1959 C1961 1.419 . S
C1960 C1958 1.415 . S
C1960 C1965 1.425 . S
C1960 C1967 1.409 . S
C1961 H1953 0.930 . S
C1961 C1959 1.419 . S
C1961 C1962 1.362 . S
C1962 H1954 0.930 . S
C1962 C1961 1.362 . S
C1962 C1965 1.409 . S
C1963 H1955 0.930 . S
C1963 C1964 1.355 . S
C1963 C1965 1.415 . S
C1964 C1963 1.355 . S
C1964 C1966 1.419 . S
C1965 C1960 1.425 . S
C1965 C1962 1.409 . S
C1965 C1963 1.415 . S
C1966 H1956 0.930 . S
C1966 C1964 1.419 . S
C1966 C1967 1.362 . S
C1967 H1957 0.930 . S
C1967 C1960 1.409 . S
C1967 C1966 1.362 . S
H1968 C1974 0.930 . S
H1969 C1977 0.930 . S
H1970 C1978 0.930 . S
H1971 C1979 0.930 . S
H1972 C1982 0.930 . S
H1973 C1983 0.930 . S
C1974 H1968 0.930 . S
C1974 C1975 1.355 . S
C1974 C1976 1.415 . S
C1975 C1974 1.355 . S
C1975 C1977 1.419 . S
C1976 C1974 1.415 . S
C1976 C1981 1.425 . S
C1976 C1983 1.409 . S
C1977 H1969 0.930 . S
C1977 C1975 1.419 . S
C1977 C1978 1.362 . S
C1978 H1970 0.930 . S
C1978 C1977 1.362 . S
C1978 C1981 1.409 . S
C1979 H1971 0.930 . S
C1979 C1980 1.355 . S
C1979 C1981 1.415 . S
C1980 C1979 1.355 . S
C1980 C1982 1.419 . S
C1981 C1976 1.425 . S
C1981 C1978 1.409 . S
C1981 C1979 1.415 . S
C1982 H1972 0.930 . S
C1982 C1980 1.419 . S
C1982 C1983 1.362 . S
C1983 H1973 0.930 . S
C1983 C1976 1.409 . S
C1983 C1982 1.362 . S
H1984 C1990 0.930 . S
H1985 C1993 0.930 . S
H1986 C1994 0.930 . S
H1987 C1995 0.930 . S
H1988 C1998 0.930 . S
H1989 C1999 0.930 . S
C1990 H1984 0.930 . S
C1990 C1991 1.355 . S
C1990 C1992 1.415 . S
C1991 C1990 1.355 . S
C1991 C1993 1.419 . S
C1992 C1990 1.415 . S
C1992 C1997 1.425 . S
C1992 C1999 1.409 . S
C1993 H1985 0.930 . S
C1993 C1991 1.419 . S
C1993 C1994 1.362 . S
C1994 H1986 0.930 . S
C1994 C1993 1.362 . S
C1994 C1997 1.409 . S
C1995 H1987 0.930 . S
C1995 C1996 1.355 . S
C1995 C1997 1.415 . S
C1996 C1995 1.355 . S
C1996 C1998 1.419 . S
C1997 C1992 1.425 . S
C1997 C1994 1.409 . S
C1997 C1995 1.415 . S
C1998 H1988 0.930 . S
C1998 C1996 1.419 . S
C1998 C1999 1.362 . S
C1999 H1989 0.930 . S
C1999 C1992 1.409 . S
C1999 C1998 1.362 . S
H2000 C2006 0.930 . S
H2001 C2009 0.930 . S
H2002 C2010 0.930 . S
H2003 C2011 0.930 . S
H2004 C2014 0.930 . S
H2005 C2015 0.930 . S
C2006 H2000 0.930 . S
C2006 C2007 1.355 . S
C2006 C2008 1.415 . S
C2007 C2006 1.355 . S
C2007 C2009 1.419 . S
C2008 C2006 1.415 . S
C2008 C2013 1.425 . S
C2008 C2015 1.409 . S
C2009 H2001 0.930 . S
C2009 C2007 1.419 . S
C2009 C2010 1.362 . S
C2010 H2002 0.930 . S
C2010 C2009 1.362 . S
C2010 C2013 1.409 . S
C2011 H2003 0.930 . S
C2011 C2012 1.355 . S
C2011 C2013 1.415 . S
C2012 C2011 1.355 . S
C2012 C2014 1.419 . S
C2013 C2008 1.425 . S
C2013 C2010 1.409 . S
C2013 C2011 1.415 . S
C2014 H2004 0.930 . S
C2014 C2012 1.419 . S
C2014 C2015 1.362 . S
C2015 H2005 0.930 . S
C2015 C2008 1.409 . S
C2015 C2014 1.362 . S
H2016 C2022 0.930 . S
H2017 C2025 0.930 . S
H2018 C2026 0.930 . S
H2019 C2027 0.930 . S
H2020 C2030 0.930 . S
H2021 C2031 0.930 . S
C2022 H2016 0.930 . S
C2022 C2023 1.355 . S
C2022 C2024 1.415 . S
C2023 C2022 1.355 . S
C2023 C2025 1.419 . S
C2024 C2022 1.415 . S
C2024 C2029 1.425 . S
C2024 C2031 1.409 . S
C2025 H2017 0.930 . S
C2025 C2023 1.419 . S
C2025 C2026 1.362 . S
C2026 H2018 0.930 . S
C2026 C2025 1.362 . S
C2026 C2029 1.409 . S
C2027 H2019 0.930 . S
C2027 C2028 1.355 . S
C2027 C2029 1.415 . S
C2028 C2027 1.355 . S
C2028 C2030 1.419 . S
C2029 C2024 1.425 . S
C2029 C2026 1.409 . S
C2029 C2027 1.415 . S
C2030 H2020 0.930 . S
C2030 C2028 1.419 . S
C2030 C2031 1.362 . S
C2031 H2021 0.930 . S
C2031 C2024 1.409 . S
C2031 C2030 1.362 . S
H2032 C2038 0.930 . S
H2033 C2041 0.930 . S
H2034 C2042 0.930 . S
H2035 C2043 0.930 . S
H2036 C2046 0.930 . S
H2037 C2047 0.930 . S
C2038 H2032 0.930 . S
C2038 C2039 1.355 . S
C2038 C2040 1.415 . S
C2039 C2038 1.355 . S
C2039 C2041 1.419 . S
C2040 C2038 1.415 . S
C2040 C2045 1.425 . S
C2040 C2047 1.409 . S
C2041 H2033 0.930 . S
C2041 C2039 1.419 . S
C2041 C2042 1.362 . S
C2042 H2034 0.930 . S
C2042 C2041 1.362 . S
C2042 C2045 1.409 . S
C2043 H2035 0.930 . S
C2043 C2044 1.355 . S
C2043 C2045 1.415 . S
C2044 C2043 1.355 . S
C2044 C2046 1.419 . S
C2045 C2040 1.425 . S
C2045 C2042 1.409 . S
C2045 C2043 1.415 . S
C2046 H2036 0.930 . S
C2046 C2044 1.419 . S
C2046 C2047 1.362 . S
C2047 H2037 0.930 . S
C2047 C2040 1.409 . S
C2047 C2046 1.362 . S
H2048 C2054 0.930 . S
H2049 C2057 0.930 . S
H2050 C2058 0.930 . S
H2051 C2059 0.930 . S
H2052 C2062 0.930 . S
H2053 C2063 0.930 . S
C2054 H2048 0.930 . S
C2054 C2055 1.355 . S
C2054 C2056 1.415 . S
C2055 C2054 1.355 . S
C2055 C2057 1.419 . S
C2056 C2054 1.415 . S
C2056 C2061 1.425 . S
C2056 C2063 1.409 . S
C2057 H2049 0.930 . S
C2057 C2055 1.419 . S
C2057 C2058 1.362 . S
C2058 H2050 0.930 . S
C2058 C2057 1.362 . S
C2058 C2061 1.409 . S
C2059 H2051 0.930 . S
C2059 C2060 1.355 . S
C2059 C2061 1.415 . S
C2060 C2059 1.355 . S
C2060 C2062 1.419 . S
C2061 C2056 1.425 . S
C2061 C2058 1.409 . S
C2061 C2059 1.415 . S
C2062 H2052 0.930 . S
C2062 C2060 1.419 . S
C2062 C2063 1.362 . S
C2063 H2053 0.930 . S
C2063 C2056 1.409 . S
C2063 C2062 1.362 . S
H2064 C2070 0.930 . S
H2065 C2073 0.930 . S
H2066 C2074 0.930 . S
H2067 C2075 0.930 . S
H2068 C2078 0.930 . S
H2069 C2079 0.930 . S
C2070 H2064 0.930 . S
C2070 C2071 1.355 . S
C2070 C2072 1.415 . S
C2071 C2070 1.355 . S
C2071 C2073 1.419 . S
C2072 C2070 1.415 . S
C2072 C2077 1.425 . S
C2072 C2079 1.409 . S
C2073 H2065 0.930 . S
C2073 C2071 1.419 . S
C2073 C2074 1.362 . S
C2074 H2066 0.930 . S
C2074 C2073 1.362 . S
C2074 C2077 1.409 . S
C2075 H2067 0.930 . S
C2075 C2076 1.355 . S
C2075 C2077 1.415 . S
C2076 C2075 1.355 . S
C2076 C2078 1.419 . S
C2077 C2072 1.425 . S
C2077 C2074 1.409 . S
C2077 C2075 1.415 . S
C2078 H2068 0.930 . S
C2078 C2076 1.419 . S
C2078 C2079 1.362 . S
C2079 H2069 0.930 . S
C2079 C2072 1.409 . S
C2079 C2078 1.362 . S
H2080 C2086 0.930 . S
H2081 C2089 0.930 . S
H2082 C2090 0.930 . S
H2083 C2091 0.930 . S
H2084 C2094 0.930 . S
H2085 C2095 0.930 . S
C2086 H2080 0.930 . S
C2086 C2087 1.355 . S
C2086 C2088 1.415 . S
C2087 C2086 1.355 . S
C2087 C2089 1.419 . S
C2088 C2086 1.415 . S
C2088 C2093 1.425 . S
C2088 C2095 1.409 . S
C2089 H2081 0.930 . S
C2089 C2087 1.419 . S
C2089 C2090 1.362 . S
C2090 H2082 0.930 . S
C2090 C2089 1.362 . S
C2090 C2093 1.409 . S
C2091 H2083 0.930 . S
C2091 C2092 1.355 . S
C2091 C2093 1.415 . S
C2092 C2091 1.355 . S
C2092 C2094 1.419 . S
C2093 C2088 1.425 . S
C2093 C2090 1.409 . S
C2093 C2091 1.415 . S
C2094 H2084 0.930 . S
C2094 C2092 1.419 . S
C2094 C2095 1.362 . S
C2095 H2085 0.930 . S
C2095 C2088 1.409 . S
C2095 C2094 1.362 . S
H2096 C2102 0.930 . S
H2097 C2105 0.930 . S
H2098 C2106 0.930 . S
H2099 C2107 0.930 . S
H2100 C2110 0.930 . S
H2101 C2111 0.930 . S
C2102 H2096 0.930 . S
C2102 C2103 1.355 . S
C2102 C2104 1.415 . S
C2103 C2102 1.355 . S
C2103 C2105 1.419 . S
C2104 C2102 1.415 . S
C2104 C2109 1.425 . S
C2104 C2111 1.409 . S
C2105 H2097 0.930 . S
C2105 C2103 1.419 . S
C2105 C2106 1.362 . S
C2106 H2098 0.930 . S
C2106 C2105 1.362 . S
C2106 C2109 1.409 . S
C2107 H2099 0.930 . S
C2107 C2108 1.355 . S
C2107 C2109 1.415 . S
C2108 C2107 1.355 . S
C2108 C2110 1.419 . S
C2109 C2104 1.425 . S
C2109 C2106 1.409 . S
C2109 C2107 1.415 . S
C2110 H2100 0.930 . S
C2110 C2108 1.419 . S
C2110 C2111 1.362 . S
C2111 H2101 0.930 . S
C2111 C2104 1.409 . S
C2111 C2110 1.362 . S
H2112 C2118 0.930 . S
H2113 C2121 0.930 . S
H2114 C2122 0.930 . S
H2115 C2123 0.930 . S
H2116 C2126 0.930 . S
H2117 C2127 0.930 . S
C2118 H2112 0.930 . S
C2118 C2119 1.355 . S
C2118 C2120 1.415 . S
C2119 C2118 1.355 . S
C2119 C2121 1.419 . S
C2120 C2118 1.415 . S
C2120 C2125 1.425 . S
C2120 C2127 1.409 . S
C2121 H2113 0.930 . S
C2121 C2119 1.419 . S
C2121 C2122 1.362 . S
C2122 H2114 0.930 . S
C2122 C2121 1.362 . S
C2122 C2125 1.409 . S
C2123 H2115 0.930 . S
C2123 C2124 1.355 . S
C2123 C2125 1.415 . S
C2124 C2123 1.355 . S
C2124 C2126 1.419 . S
C2125 C2120 1.425 . S
C2125 C2122 1.409 . S
C2125 C2123 1.415 . S
C2126 H2116 0.930 . S
C2126 C2124 1.419 . S
C2126 C2127 1.362 . S
C2127 H2117 0.930 . S
C2127 C2120 1.409 . S
C2127 C2126 1.362 . S
H2128 C2134 0.930 . S
H2129 C2137 0.930 . S
H2130 C2138 0.930 . S
H2131 C2139 0.930 . S
H2132 C2142 0.930 . S
H2133 C2143 0.930 . S
C2134 H2128 0.930 . S
C2134 C2135 1.355 . S
C2134 C2136 1.415 . S
C2135 C2134 1.355 . S
C2135 C2137 1.419 . S
C2136 C2134 1.415 . S
C2136 C2141 1.425 . S
C2136 C2143 1.409 . S
C2137 H2129 0.930 . S
C2137 C2135 1.419 . S
C2137 C2138 1.362 . S
C2138 H2130 0.930 . S
C2138 C2137 1.362 . S
C2138 C2141 1.409 . S
C2139 H2131 0.930 . S
C2139 C2140 1.355 . S
C2139 C2141 1.415 . S
C2140 C2139 1.355 . S
C2140 C2142 1.419 . S
C2141 C2136 1.425 . S
C2141 C2138 1.409 . S
C2141 C2139 1.415 . S
C2142 H2132 0.930 . S
C2142 C2140 1.419 . S
C2142 C2143 1.362 . S
C2143 H2133 0.930 . S
C2143 C2136 1.409 . S
C2143 C2142 1.362 . S
H2144 C2150 0.930 . S
H2145 C2153 0.930 . S
H2146 C2154 0.930 . S
H2147 C2155 0.930 . S
H2148 C2158 0.930 . S
H2149 C2159 0.930 . S
C2150 H2144 0.930 . S
C2150 C2151 1.355 . S
C2150 C2152 1.415 . S
C2151 C2150 1.355 . S
C2151 C2153 1.419 . S
C2152 C2150 1.415 . S
C2152 C2157 1.425 . S
C2152 C2159 1.409 . S
C2153 H2145 0.930 . S
C2153 C2151 1.419 . S
C2153 C2154 1.362 . S
C2154 H2146 0.930 . S
C2154 C2153 1.362 . S
C2154 C2157 1.409 . S
C2155 H2147 0.930 . S
C2155 C2156 1.355 . S
C2155 C2157 1.415 . S
C2156 C2155 1.355 . S
C2156 C2158 1.419 . S
C2157 C2152 1.425 . S
C2157 C2154 1.409 . S
C2157 C2155 1.415 . S
C2158 H2148 0.930 . S
C2158 C2156 1.419 . S
C2158 C2159 1.362 . S
C2159 H2149 0.930 . S
C2159 C2152 1.409 . S
C2159 C2158 1.362 . S
H2160 C2166 0.930 . S
H2161 C2169 0.930 . S
H2162 C2170 0.930 . S
H2163 C2171 0.930 . S
H2164 C2174 0.930 . S
H2165 C2175 0.930 . S
C2166 H2160 0.930 . S
C2166 C2167 1.355 . S
C2166 C2168 1.415 . S
C2167 C2166 1.355 . S
C2167 C2169 1.419 . S
C2168 C2166 1.415 . S
C2168 C2173 1.425 . S
C2168 C2175 1.409 . S
C2169 H2161 0.930 . S
C2169 C2167 1.419 . S
C2169 C2170 1.362 . S
C2170 H2162 0.930 . S
C2170 C2169 1.362 . S
C2170 C2173 1.409 . S
C2171 H2163 0.930 . S
C2171 C2172 1.355 . S
C2171 C2173 1.415 . S
C2172 C2171 1.355 . S
C2172 C2174 1.419 . S
C2173 C2168 1.425 . S
C2173 C2170 1.409 . S
C2173 C2171 1.415 . S
C2174 H2164 0.930 . S
C2174 C2172 1.419 . S
C2174 C2175 1.362 . S
C2175 H2165 0.930 . S
C2175 C2168 1.409 . S
C2175 C2174 1.362 . S
H2176 C2182 0.930 . S
H2177 C2185 0.930 . S
H2178 C2186 0.930 . S
H2179 C2187 0.930 . S
H2180 C2190 0.930 . S
H2181 C2191 0.930 . S
C2182 H2176 0.930 . S
C2182 C2183 1.355 . S
C2182 C2184 1.415 . S
C2183 C2182 1.355 . S
C2183 C2185 1.419 . S
C2184 C2182 1.415 . S
C2184 C2189 1.425 . S
C2184 C2191 1.409 . S
C2185 H2177 0.930 . S
C2185 C2183 1.419 . S
C2185 C2186 1.362 . S
C2186 H2178 0.930 . S
C2186 C2185 1.362 . S
C2186 C2189 1.409 . S
C2187 H2179 0.930 . S
C2187 C2188 1.355 . S
C2187 C2189 1.415 . S
C2188 C2187 1.355 . S
C2188 C2190 1.419 . S
C2189 C2184 1.425 . S
C2189 C2186 1.409 . S
C2189 C2187 1.415 . S
C2190 H2180 0.930 . S
C2190 C2188 1.419 . S
C2190 C2191 1.362 . S
C2191 H2181 0.930 . S
C2191 C2184 1.409 . S
C2191 C2190 1.362 . S
H2192 C2198 0.930 1_556 S
H2193 C2201 0.930 . S
H2194 C2202 0.930 . S
H2195 C2203 0.930 . S
H2196 C2206 0.930 . S
H2197 C2207 0.930 . S
C2198 H2192 0.930 1_554 S
C2198 C2199 1.355 . S
C2198 C2200 1.415 . S
C2199 C2198 1.355 . S
C2199 C2201 1.419 . S
C2200 C2198 1.415 . S
C2200 C2205 1.425 . S
C2200 C2207 1.409 1_554 S
C2201 H2193 0.930 . S
C2201 C2199 1.419 . S
C2201 C2202 1.362 . S
C2202 H2194 0.930 . S
C2202 C2201 1.362 . S
C2202 C2205 1.409 . S
C2203 H2195 0.930 . S
C2203 C2204 1.355 . S
C2203 C2205 1.415 . S
C2204 C2203 1.355 . S
C2204 C2206 1.419 1_554 S
C2205 C2200 1.425 . S
C2205 C2202 1.409 . S
C2205 C2203 1.415 . S
C2206 H2196 0.930 . S
C2206 C2204 1.419 1_556 S
C2206 C2207 1.362 . S
C2207 H2197 0.930 . S
C2207 C2200 1.409 1_556 S
C2207 C2206 1.362 . S
H2208 C2214 0.930 . S
H2209 C2217 0.930 . S
H2210 C2218 0.930 . S
H2211 C2219 0.930 . S
H2212 C2222 0.930 . S
H2213 C2223 0.930 . S
C2214 H2208 0.930 . S
C2214 C2215 1.355 . S
C2214 C2216 1.415 . S
C2215 C2214 1.355 . S
C2215 C2217 1.419 . S
C2216 C2214 1.415 . S
C2216 C2221 1.425 . S
C2216 C2223 1.409 . S
C2217 H2209 0.930 . S
C2217 C2215 1.419 . S
C2217 C2218 1.362 . S
C2218 H2210 0.930 . S
C2218 C2217 1.362 . S
C2218 C2221 1.409 . S
C2219 H2211 0.930 . S
C2219 C2220 1.355 . S
C2219 C2221 1.415 . S
C2220 C2219 1.355 . S
C2220 C2222 1.419 . S
C2221 C2216 1.425 . S
C2221 C2218 1.409 . S
C2221 C2219 1.415 . S
C2222 H2212 0.930 . S
C2222 C2220 1.419 . S
C2222 C2223 1.362 . S
C2223 H2213 0.930 . S
C2223 C2216 1.409 . S
C2223 C2222 1.362 . S
H2224 C2230 0.930 . S
H2225 C2233 0.930 . S
H2226 C2234 0.930 . S
H2227 C2235 0.930 . S
H2228 C2238 0.930 1_655 S
H2229 C2239 0.930 . S
C2230 H2224 0.930 . S
C2230 C2231 1.355 . S
C2230 C2232 1.415 . S
C2231 C2230 1.355 . S
C2231 C2233 1.419 . S
C2232 C2230 1.415 . S
C2232 C2237 1.425 . S
C2232 C2239 1.409 . S
C2233 H2225 0.930 . S
C2233 C2231 1.419 . S
C2233 C2234 1.362 . S
C2234 H2226 0.930 . S
C2234 C2233 1.362 . S
C2234 C2237 1.409 . S
C2235 H2227 0.930 . S
C2235 C2236 1.355 . S
C2235 C2237 1.415 . S
C2236 C2235 1.355 . S
C2236 C2238 1.419 . S
C2237 C2232 1.425 . S
C2237 C2234 1.409 . S
C2237 C2235 1.415 . S
C2238 H2228 0.930 1_455 S
C2238 C2236 1.419 . S
C2238 C2239 1.362 . S
C2239 H2229 0.930 . S
C2239 C2232 1.409 . S
C2239 C2238 1.362 . S
H2240 C2246 0.930 . S
H2241 C2249 0.930 . S
H2242 C2250 0.930 . S
H2243 C2251 0.930 . S
H2244 C2254 0.930 . S
H2245 C2255 0.930 . S
C2246 H2240 0.930 . S
C2246 C2247 1.355 . S
C2246 C2248 1.415 . S
C2247 C2246 1.355 . S
C2247 C2249 1.419 . S
C2248 C2246 1.415 . S
C2248 C2253 1.425 . S
C2248 C2255 1.409 . S
C2249 H2241 0.930 . S
C2249 C2247 1.419 . S
C2249 C2250 1.362 . S
C2250 H2242 0.930 . S
C2250 C2249 1.362 . S
C2250 C2253 1.409 . S
C2251 H2243 0.930 . S
C2251 C2252 1.355 . S
C2251 C2253 1.415 . S
C2252 C2251 1.355 . S
C2252 C2254 1.419 . S
C2253 C2248 1.425 . S
C2253 C2250 1.409 . S
C2253 C2251 1.415 . S
C2254 H2244 0.930 . S
C2254 C2252 1.419 . S
C2254 C2255 1.362 . S
C2255 H2245 0.930 . S
C2255 C2248 1.409 . S
C2255 C2254 1.362 . S
H2256 C2262 0.930 . S
H2257 C2265 0.930 . S
H2258 C2266 0.930 . S
H2259 C2267 0.930 . S
H2260 C2270 0.930 . S
H2261 C2271 0.930 . S
C2262 H2256 0.930 . S
C2262 C2263 1.355 . S
C2262 C2264 1.415 . S
C2263 C2262 1.355 . S
C2263 C2265 1.419 . S
C2264 C2262 1.415 . S
C2264 C2269 1.425 . S
C2264 C2271 1.409 . S
C2265 H2257 0.930 . S
C2265 C2263 1.419 . S
C2265 C2266 1.362 . S
C2266 H2258 0.930 . S
C2266 C2265 1.362 . S
C2266 C2269 1.409 . S
C2267 H2259 0.930 . S
C2267 C2268 1.355 . S
C2267 C2269 1.415 . S
C2268 C2267 1.355 . S
C2268 C2270 1.419 . S
C2269 C2264 1.425 . S
C2269 C2266 1.409 . S
C2269 C2267 1.415 . S
C2270 H2260 0.930 . S
C2270 C2268 1.419 . S
C2270 C2271 1.362 . S
C2271 H2261 0.930 . S
C2271 C2264 1.409 . S
C2271 C2270 1.362 . S
H2272 C2278 0.930 . S
H2273 C2281 0.930 . S
H2274 C2282 0.930 . S
H2275 C2283 0.930 . S
H2276 C2286 0.930 . S
H2277 C2287 0.930 . S
C2278 H2272 0.930 . S
C2278 C2279 1.355 . S
C2278 C2280 1.415 . S
C2279 C2278 1.355 . S
C2279 C2281 1.419 . S
C2280 C2278 1.415 . S
C2280 C2285 1.425 . S
C2280 C2287 1.409 . S
C2281 H2273 0.930 . S
C2281 C2279 1.419 . S
C2281 C2282 1.362 . S
C2282 H2274 0.930 . S
C2282 C2281 1.362 . S
C2282 C2285 1.409 . S
C2283 H2275 0.930 . S
C2283 C2284 1.355 . S
C2283 C2285 1.415 . S
C2284 C2283 1.355 . S
C2284 C2286 1.419 . S
C2285 C2280 1.425 . S
C2285 C2282 1.409 . S
C2285 C2283 1.415 . S
C2286 H2276 0.930 . S
C2286 C2284 1.419 . S
C2286 C2287 1.362 . S
C2287 H2277 0.930 . S
C2287 C2280 1.409 . S
C2287 C2286 1.362 . S
H2288 C2294 0.930 . S
H2289 C2297 0.930 . S
H2290 C2298 0.930 . S
H2291 C2299 0.930 . S
H2292 C2302 0.930 . S
H2293 C2303 0.930 . S
C2294 H2288 0.930 . S
C2294 C2295 1.355 . S
C2294 C2296 1.415 . S
C2295 C2294 1.355 . S
C2295 C2297 1.419 . S
C2296 C2294 1.415 . S
C2296 C2301 1.425 . S
C2296 C2303 1.409 1_655 S
C2297 H2289 0.930 . S
C2297 C2295 1.419 . S
C2297 C2298 1.362 . S
C2298 H2290 0.930 . S
C2298 C2297 1.362 . S
C2298 C2301 1.409 . S
C2299 H2291 0.930 . S
C2299 C2300 1.355 1_655 S
C2299 C2301 1.415 . S
C2300 C2299 1.355 1_455 S
C2300 C2302 1.419 . S
C2301 C2296 1.425 . S
C2301 C2298 1.409 . S
C2301 C2299 1.415 . S
C2302 H2292 0.930 . S
C2302 C2300 1.419 . S
C2302 C2303 1.362 . S
C2303 H2293 0.930 . S
C2303 C2296 1.409 1_455 S
C2303 C2302 1.362 . S
H2304 C2310 0.930 . S
H2305 C2313 0.930 . S
H2306 C2314 0.930 . S
H2307 C2315 0.930 . S
H2308 C2318 0.930 . S
H2309 C2319 0.930 . S
C2310 H2304 0.930 . S
C2310 C2311 1.355 . S
C2310 C2312 1.415 . S
C2311 C2310 1.355 . S
C2311 C2313 1.419 . S
C2312 C2310 1.415 . S
C2312 C2317 1.425 . S
C2312 C2319 1.409 . S
C2313 H2305 0.930 . S
C2313 C2311 1.419 . S
C2313 C2314 1.362 . S
C2314 H2306 0.930 . S
C2314 C2313 1.362 . S
C2314 C2317 1.409 . S
C2315 H2307 0.930 . S
C2315 C2316 1.355 . S
C2315 C2317 1.415 . S
C2316 C2315 1.355 . S
C2316 C2318 1.419 . S
C2317 C2312 1.425 . S
C2317 C2314 1.409 . S
C2317 C2315 1.415 . S
C2318 H2308 0.930 . S
C2318 C2316 1.419 . S
C2318 C2319 1.362 . S
C2319 H2309 0.930 . S
C2319 C2312 1.409 . S
C2319 C2318 1.362 . S
H2320 C2326 0.930 . S
H2321 C2329 0.930 . S
H2322 C2330 0.930 . S
H2323 C2331 0.930 . S
H2324 C2334 0.930 . S
H2325 C2335 0.930 . S
C2326 H2320 0.930 . S
C2326 C2327 1.355 . S
C2326 C2328 1.415 . S
C2327 C2326 1.355 . S
C2327 C2329 1.419 . S
C2328 C2326 1.415 . S
C2328 C2333 1.425 . S
C2328 C2335 1.409 . S
C2329 H2321 0.930 . S
C2329 C2327 1.419 . S
C2329 C2330 1.362 . S
C2330 H2322 0.930 . S
C2330 C2329 1.362 . S
C2330 C2333 1.409 . S
C2331 H2323 0.930 . S
C2331 C2332 1.355 . S
C2331 C2333 1.415 . S
C2332 C2331 1.355 . S
C2332 C2334 1.419 . S
C2333 C2328 1.425 . S
C2333 C2330 1.409 . S
C2333 C2331 1.415 . S
C2334 H2324 0.930 . S
C2334 C2332 1.419 . S
C2334 C2335 1.362 . S
C2335 H2325 0.930 . S
C2335 C2328 1.409 . S
C2335 C2334 1.362 . S
H2336 C2342 0.930 . S
H2337 C2345 0.930 . S
H2338 C2346 0.930 . S
H2339 C2347 0.930 . S
H2340 C2350 0.930 . S
H2341 C2351 0.930 . S
C2342 H2336 0.930 . S
C2342 C2343 1.355 . S
C2342 C2344 1.415 . S
C2343 C2342 1.355 . S
C2343 C2345 1.419 . S
C2344 C2342 1.415 . S
C2344 C2349 1.425 . S
C2344 C2351 1.409 . S
C2345 H2337 0.930 . S
C2345 C2343 1.419 . S
C2345 C2346 1.362 . S
C2346 H2338 0.930 . S
C2346 C2345 1.362 . S
C2346 C2349 1.409 . S
C2347 H2339 0.930 . S
C2347 C2348 1.355 . S
C2347 C2349 1.415 . S
C2348 C2347 1.355 . S
C2348 C2350 1.419 . S
C2349 C2344 1.425 . S
C2349 C2346 1.409 . S
C2349 C2347 1.415 . S
C2350 H2340 0.930 . S
C2350 C2348 1.419 . S
C2350 C2351 1.362 . S
C2351 H2341 0.930 . S
C2351 C2344 1.409 . S
C2351 C2350 1.362 . S
H2352 C2358 0.930 . S
H2353 C2361 0.930 . S
H2354 C2362 0.930 . S
H2355 C2363 0.930 1_455 S
H2356 C2366 0.930 . S
H2357 C2367 0.930 . S
C2358 H2352 0.930 . S
C2358 C2359 1.355 . S
C2358 C2360 1.415 . S
C2359 C2358 1.355 . S
C2359 C2361 1.419 . S
C2360 C2358 1.415 . S
C2360 C2365 1.425 . S
C2360 C2367 1.409 . S
C2361 H2353 0.930 . S
C2361 C2359 1.419 . S
C2361 C2362 1.362 . S
C2362 H2354 0.930 . S
C2362 C2361 1.362 . S
C2362 C2365 1.409 . S
C2363 H2355 0.930 1_655 S
C2363 C2364 1.355 . S
C2363 C2365 1.415 . S
C2364 C2363 1.355 . S
C2364 C2366 1.419 . S
C2365 C2360 1.425 . S
C2365 C2362 1.409 . S
C2365 C2363 1.415 . S
C2366 H2356 0.930 . S
C2366 C2364 1.419 . S
C2366 C2367 1.362 . S
C2367 H2357 0.930 . S
C2367 C2360 1.409 . S
C2367 C2366 1.362 . S
H2368 C2374 0.930 . S
H2369 C2377 0.930 . S
H2370 C2378 0.930 . S
H2371 C2379 0.930 . S
H2372 C2382 0.930 . S
H2373 C2383 0.930 . S
C2374 H2368 0.930 . S
C2374 C2375 1.355 . S
C2374 C2376 1.415 . S
C2375 C2374 1.355 . S
C2375 C2377 1.419 . S
C2376 C2374 1.415 . S
C2376 C2381 1.425 . S
C2376 C2383 1.409 . S
C2377 H2369 0.930 . S
C2377 C2375 1.419 . S
C2377 C2378 1.362 . S
C2378 H2370 0.930 . S
C2378 C2377 1.362 . S
C2378 C2381 1.409 . S
C2379 H2371 0.930 . S
C2379 C2380 1.355 . S
C2379 C2381 1.415 . S
C2380 C2379 1.355 . S
C2380 C2382 1.419 . S
C2381 C2376 1.425 . S
C2381 C2378 1.409 . S
C2381 C2379 1.415 . S
C2382 H2372 0.930 . S
C2382 C2380 1.419 . S
C2382 C2383 1.362 . S
C2383 H2373 0.930 . S
C2383 C2376 1.409 . S
C2383 C2382 1.362 . S
H2384 C2390 0.930 . S
H2385 C2393 0.930 . S
H2386 C2394 0.930 . S
H2387 C2395 0.930 . S
H2388 C2398 0.930 . S
H2389 C2399 0.930 . S
C2390 H2384 0.930 . S
C2390 C2391 1.355 . S
C2390 C2392 1.415 . S
C2391 C2390 1.355 . S
C2391 C2393 1.419 . S
C2392 C2390 1.415 . S
C2392 C2397 1.425 . S
C2392 C2399 1.409 . S
C2393 H2385 0.930 . S
C2393 C2391 1.419 . S
C2393 C2394 1.362 . S
C2394 H2386 0.930 . S
C2394 C2393 1.362 . S
C2394 C2397 1.409 . S
C2395 H2387 0.930 . S
C2395 C2396 1.355 . S
C2395 C2397 1.415 . S
C2396 C2395 1.355 . S
C2396 C2398 1.419 . S
C2397 C2392 1.425 . S
C2397 C2394 1.409 . S
C2397 C2395 1.415 . S
C2398 H2388 0.930 . S
C2398 C2396 1.419 . S
C2398 C2399 1.362 . S
C2399 H2389 0.930 . S
C2399 C2392 1.409 . S
C2399 C2398 1.362 . S
H2400 C2406 0.930 . S
H2401 C2409 0.930 . S
H2402 C2410 0.930 . S
H2403 C2411 0.930 . S
H2404 C2414 0.930 . S
H2405 C2415 0.930 1_545 S
C2406 H2400 0.930 . S
C2406 C2407 1.355 . S
C2406 C2408 1.415 . S
C2407 C2406 1.355 . S
C2407 C2409 1.419 . S
C2408 C2406 1.415 . S
C2408 C2413 1.425 . S
C2408 C2415 1.409 . S
C2409 H2401 0.930 . S
C2409 C2407 1.419 . S
C2409 C2410 1.362 . S
C2410 H2402 0.930 . S
C2410 C2409 1.362 . S
C2410 C2413 1.409 . S
C2411 H2403 0.930 . S
C2411 C2412 1.355 . S
C2411 C2413 1.415 . S
C2412 C2411 1.355 . S
C2412 C2414 1.419 1_565 S
C2413 C2408 1.425 . S
C2413 C2410 1.409 . S
C2413 C2411 1.415 . S
C2414 H2404 0.930 . S
C2414 C2412 1.419 1_545 S
C2414 C2415 1.362 1_545 S
C2415 H2405 0.930 1_565 S
C2415 C2408 1.409 . S
C2415 C2414 1.362 1_565 S
H2416 C2422 0.930 . S
H2417 C2425 0.930 . S
H2418 C2426 0.930 . S
H2419 C2427 0.930 . S
H2420 C2430 0.930 . S
H2421 C2431 0.930 . S
C2422 H2416 0.930 . S
C2422 C2423 1.355 . S
C2422 C2424 1.415 . S
C2423 C2422 1.355 . S
C2423 C2425 1.419 . S
C2424 C2422 1.415 . S
C2424 C2429 1.425 . S
C2424 C2431 1.409 . S
C2425 H2417 0.930 . S
C2425 C2423 1.419 . S
C2425 C2426 1.362 . S
C2426 H2418 0.930 . S
C2426 C2425 1.362 . S
C2426 C2429 1.409 . S
C2427 H2419 0.930 . S
C2427 C2428 1.355 . S
C2427 C2429 1.415 . S
C2428 C2427 1.355 . S
C2428 C2430 1.419 . S
C2429 C2424 1.425 . S
C2429 C2426 1.409 . S
C2429 C2427 1.415 . S
C2430 H2420 0.930 . S
C2430 C2428 1.419 . S
C2430 C2431 1.362 . S
C2431 H2421 0.930 . S
C2431 C2424 1.409 . S
C2431 C2430 1.362 . S
H2432 C2438 0.930 . S
H2433 C2441 0.930 . S
H2434 C2442 0.930 . S
H2435 C2443 0.930 . S
H2436 C2446 0.930 . S
H2437 C2447 0.930 . S
C2438 H2432 0.930 . S
C2438 C2439 1.355 . S
C2438 C2440 1.415 . S
C2439 C2438 1.355 . S
C2439 C2441 1.419 . S
C2440 C2438 1.415 . S
C2440 C2445 1.425 . S
C2440 C2447 1.409 . S
C2441 H2433 0.930 . S
C2441 C2439 1.419 . S
C2441 C2442 1.362 . S
C2442 H2434 0.930 . S
C2442 C2441 1.362 . S
C2442 C2445 1.409 . S
C2443 H2435 0.930 . S
C2443 C2444 1.355 . S
C2443 C2445 1.415 . S
C2444 C2443 1.355 . S
C2444 C2446 1.419 . S
C2445 C2440 1.425 . S
C2445 C2442 1.409 . S
C2445 C2443 1.415 . S
C2446 H2436 0.930 . S
C2446 C2444 1.419 . S
C2446 C2447 1.362 . S
C2447 H2437 0.930 . S
C2447 C2440 1.409 . S
C2447 C2446 1.362 . S
H2448 C2454 0.930 . S
H2449 C2457 0.930 . S
H2450 C2458 0.930 . S
H2451 C2459 0.930 . S
H2452 C2462 0.930 . S
H2453 C2463 0.930 . S
C2454 H2448 0.930 . S
C2454 C2455 1.355 . S
C2454 C2456 1.415 . S
C2455 C2454 1.355 . S
C2455 C2457 1.419 . S
C2456 C2454 1.415 . S
C2456 C2461 1.425 . S
C2456 C2463 1.409 . S
C2457 H2449 0.930 . S
C2457 C2455 1.419 . S
C2457 C2458 1.362 . S
C2458 H2450 0.930 . S
C2458 C2457 1.362 . S
C2458 C2461 1.409 . S
C2459 H2451 0.930 . S
C2459 C2460 1.355 . S
C2459 C2461 1.415 . S
C2460 C2459 1.355 . S
C2460 C2462 1.419 . S
C2461 C2456 1.425 . S
C2461 C2458 1.409 . S
C2461 C2459 1.415 . S
C2462 H2452 0.930 . S
C2462 C2460 1.419 . S
C2462 C2463 1.362 . S
C2463 H2453 0.930 . S
C2463 C2456 1.409 . S
C2463 C2462 1.362 . S
H2464 C2470 0.930 . S
H2465 C2473 0.930 . S
H2466 C2474 0.930 . S
H2467 C2475 0.930 . S
H2468 C2478 0.930 . S
H2469 C2479 0.930 . S
C2470 H2464 0.930 . S
C2470 C2471 1.355 . S
C2470 C2472 1.415 . S
C2471 C2470 1.355 . S
C2471 C2473 1.419 . S
C2472 C2470 1.415 . S
C2472 C2477 1.425 . S
C2472 C2479 1.409 . S
C2473 H2465 0.930 . S
C2473 C2471 1.419 . S
C2473 C2474 1.362 . S
C2474 H2466 0.930 . S
C2474 C2473 1.362 . S
C2474 C2477 1.409 . S
C2475 H2467 0.930 . S
C2475 C2476 1.355 . S
C2475 C2477 1.415 . S
C2476 C2475 1.355 . S
C2476 C2478 1.419 . S
C2477 C2472 1.425 . S
C2477 C2474 1.409 . S
C2477 C2475 1.415 . S
C2478 H2468 0.930 . S
C2478 C2476 1.419 . S
C2478 C2479 1.362 . S
C2479 H2469 0.930 . S
C2479 C2472 1.409 . S
C2479 C2478 1.362 . S
H2480 C2486 0.930 . S
H2481 C2489 0.930 . S
H2482 C2490 0.930 . S
H2483 C2491 0.930 . S
H2484 C2494 0.930 . S
H2485 C2495 0.930 . S
C2486 H2480 0.930 . S
C2486 C2487 1.355 . S
C2486 C2488 1.415 . S
C2487 C2486 1.355 . S
C2487 C2489 1.419 . S
C2488 C2486 1.415 . S
C2488 C2493 1.425 . S
C2488 C2495 1.409 . S
C2489 H2481 0.930 . S
C2489 C2487 1.419 . S
C2489 C2490 1.362 . S
C2490 H2482 0.930 . S
C2490 C2489 1.362 . S
C2490 C2493 1.409 . S
C2491 H2483 0.930 . S
C2491 C2492 1.355 . S
C2491 C2493 1.415 . S
C2492 C2491 1.355 . S
C2492 C2494 1.419 . S
C2493 C2488 1.425 . S
C2493 C2490 1.409 . S
C2493 C2491 1.415 . S
C2494 H2484 0.930 . S
C2494 C2492 1.419 . S
C2494 C2495 1.362 . S
C2495 H2485 0.930 . S
C2495 C2488 1.409 . S
C2495 C2494 1.362 . S
H2496 C2502 0.930 . S
H2497 C2505 0.930 . S
H2498 C2506 0.930 . S
H2499 C2507 0.930 . S
H2500 C2510 0.930 . S
H2501 C2511 0.930 . S
C2502 H2496 0.930 . S
C2502 C2503 1.355 . S
C2502 C2504 1.415 . S
C2503 C2502 1.355 . S
C2503 C2505 1.419 . S
C2504 C2502 1.415 . S
C2504 C2509 1.425 . S
C2504 C2511 1.409 . S
C2505 H2497 0.930 . S
C2505 C2503 1.419 . S
C2505 C2506 1.362 . S
C2506 H2498 0.930 . S
C2506 C2505 1.362 . S
C2506 C2509 1.409 . S
C2507 H2499 0.930 . S
C2507 C2508 1.355 . S
C2507 C2509 1.415 . S
C2508 C2507 1.355 . S
C2508 C2510 1.419 . S
C2509 C2504 1.425 . S
C2509 C2506 1.409 . S
C2509 C2507 1.415 . S
C2510 H2500 0.930 . S
C2510 C2508 1.419 . S
C2510 C2511 1.362 . S
C2511 H2501 0.930 . S
C2511 C2504 1.409 . S
C2511 C2510 1.362 . S
C983 C111 2.139 1_455 S
C988 C355 2.115 . S
C999 C64 2.115 . S
C1004 C384 2.205 . S
C1015 C77 1.224 . S
C1020 C435 1.237 . S
C1036 C461 1.370 . S
C1031 C95 1.375 . S
C1047 C25 0.543 . S
C1052 C501 0.614 . S
C1068 C551 0.420 . S
C1063 C36 0.469 . S
C1084 C594 0.660 . S
C1079 C50 0.896 . S
C1095 C11 1.512 . S
C1100 C631 1.439 . S
C1116 C344 2.374 . S
C1111 C237 2.210 . S
C1127 C245 0.504 . S
C1132 C381 0.499 . S
C1148 C424 2.251 . S
C1143 C279 2.073 . S
C1164 C475 1.275 . S
C1159 C175 1.318 1_556 S
C1175 C231 1.770 . S
C1180 C515 1.787 . S
C1196 C554 0.412 . S
C1191 C251 0.510 . S
C1212 C585 1.958 1_556 S
C1207 C273 1.998 . S
C1228 C634 2.051 . S
C1223 C181 1.974 . S
C1244 C341 1.517 . S
C1239 C165 1.635 1_554 S
C1255 C288 2.163 . S
C1260 C664 2.238 . S
C1276 C705 2.343 . S
C1271 C333 2.383 . S
C1292 C751 0.689 . S
C1287 C316 0.616 . S
C1303 C123 2.493 . S
C1308 C625 2.410 . S
C1319 C137 1.351 . S
C1324 C421 1.343 . S
C1335 C330 2.069 . S
C1340 C784 2.150 . S
C1356 C835 1.909 . S
C1351 C302 1.904 . S
C1372 C345 2.174 . S
C1367 C63 2.224 . S
C1388 C834 2.273 . S
C1383 C106 2.259 . S
C1399 C97 1.296 . S
C1404 C425 1.263 . S
C1415 C81 1.393 . S
C1420 C791 1.411 . S
C1436 C511 0.682 . S
C1431 C13 0.640 . S
C1447 C55 0.582 . S
C1452 C701 0.471 . S
C1468 C584 0.654 . S
C1463 C35 0.593 . S
C1484 C861 1.423 . S
C1479 C21 1.420 . S
C1500 C354 2.472 1_556 S
C1495 C147 2.449 . S
C1516 C831 0.480 . S
C1511 C321 0.538 . S
C1527 C119 2.321 . S
C1532 C434 2.294 . S
C1543 C293 1.362 . S
C1548 C785 1.424 . S
C1559 C153 1.821 1_565 S
C1564 C505 1.972 . S
C1580 C704 0.419 . S
C1575 C315 0.385 . S
C1591 C125 1.923 . S
C1596 C595 2.012 . S
C1607 C287 2.094 1_556 S
C1612 C864 2.104 . S
C1623 C193 1.626 . S
C1628 C351 1.613 . S
C1639 C176 2.262 . S
C1644 C674 2.285 . S
C1655 C263 2.363 . S
C1660 C555 2.329 . S
C1671 C246 0.799 . S
C1676 C741 0.747 . S
C1692 C875 2.517 . S
C1687 C277 2.587 . S
C1703 C221 1.424 . S
C1708 C431 1.447 . S
C1724 C474 2.195 . S
C1719 C260 2.194 . S
C1740 C385 1.962 . S
C1735 C204 1.902 . S
C1751 C83 2.121 . S
C1756 C915 2.110 . S
C1772 C824 2.220 . S
C1767 C92 2.146 . S
C1783 C105 1.232 . S
C1788 C955 1.196 . S
C1799 C67 1.329 . S
C1804 C781 1.321 . S
C1815 C53 0.559 . S
C1820 C661 0.526 . S
C1836 C711 0.484 . S
C1831 C8 0.515 . S
C1852 C754 0.714 . S
C1847 C22 0.895 1_655 S
C1868 C871 1.336 . S
C1863 C39 1.443 . S
C1884 C904 2.368 . S
C1879 C265 2.256 . S
C1895 C189 0.708 . S
C1900 C821 0.725 . S
C1916 C944 2.247 . S
C1911 C209 2.058 . S
C1932 C795 1.270 . S
C1927 C217 1.318 . S
C1948 C675 1.786 1_556 S
C1943 C259 1.770 . S
C1959 C195 0.697 . S
C1964 C714 0.612 . S
C1980 C745 1.919 . S
C1975 C203 2.001 . S
C1991 C223 2.011 . S
C1996 C874 2.053 . S
C2012 C901 1.591 . S
C2007 C319 1.702 . S
C2023 C134 2.156 . S
C2028 C504 2.235 . S
C2044 C545 2.324 . S
C2039 C151 2.388 . S
C2060 C591 0.628 . S
C2055 C162 0.677 . S
C2076 C865 2.428 . S
C2071 C305 2.493 . S
C2087 C291 1.396 . S
C2092 C941 1.379 . S
C2108 C464 2.172 . S
C2103 C148 2.110 . S
C2124 C395 1.920 . S
C2119 C120 1.906 . S
C2135 C91 2.208 . S
C2140 C905 2.181 . S
C2156 C394 2.251 . S
C2151 C78 2.261 . S
C2167 C69 1.300 . S
C2172 C945 1.273 . S
C2183 C109 1.440 . S
C2188 C471 1.457 . S
C2199 C41 0.682 . S
C2204 C671 0.730 . S
C2220 C541 0.442 . S
C2215 C27 0.624 . S
C2231 C7 0.679 . S
C2236 C744 0.751 . S
C2247 C49 1.450 . S
C2252 C621 1.445 . S
C2268 C914 2.474 . S
C2263 C329 2.444 . S
C2279 C167 0.750 . S
C2284 C391 0.630 . S
C2300 C954 2.285 1_556 S
C2295 C301 2.304 . S
C2311 C139 1.421 . S
C2316 C465 1.407 . S
C2327 C335 1.851 . S
C2332 C665 1.954 . S
C2348 C544 0.581 . S
C2343 C161 0.547 . S
C2359 C307 1.926 . S
C2364 C755 2.014 1_655 S
C2380 C624 2.092 . S
C2375 C133 2.103 . S
C2396 C911 1.617 . S
C2391 C249 1.634 . S
C2412 C514 2.255 1_565 S
C2407 C218 2.243 . S
C2423 C235 2.344 . S
C2428 C715 2.290 . S
C2444 C581 0.767 . S
C2439 C190 0.760 . S
C2455 C207 2.581 . S
C2460 C635 2.500 . S
C2471 C179 1.390 . S
C2476 C951 1.422 . S
C2492 C794 2.211 . S
C2487 C232 2.223 . S
C2508 C825 1.988 . S
C2503 C274 1.878 . S
