# Generated by pormake.
# Topology pth, (4,4)-cn, num edge types: 1
# Building blocks:
#     Node 0, Type 0, BuildingBlock: AZAVOO_clean_sbu_0, # of connection points: 4
#     Node 1, Type 0, BuildingBlock: AZAVOO_clean_sbu_0, # of connection points: 4
#     Node 2, Type 0, BuildingBlock: AZAVOO_clean_sbu_0, # of connection points: 4
#     Node 3, Type 1, BuildingBlock: KOZSID_clean_sbu_0, # of connection points: 4
#     Node 4, Type 1, BuildingBlock: KOZSID_clean_sbu_0, # of connection points: 4
#     Node 5, Type 1, BuildingBlock: KOZSID_clean_sbu_0, # of connection points: 4
#     Edge 6, Type (0, 1), BuildingBlock: FUNLAD_clean_linker_0, # of connection points: 2
#     Edge 7, Type (0, 1), BuildingBlock: FUNLAD_clean_linker_0, # of connection points: 2
#     Edge 8, Type (0, 1), BuildingBlock: FUNLAD_clean_linker_0, # of connection points: 2
#     Edge 9, Type (0, 1), BuildingBlock: FUNLAD_clean_linker_0, # of connection points: 2
#     Edge 10, Type (0, 1), BuildingBlock: FUNLAD_clean_linker_0, # of connection points: 2
#     Edge 11, Type (0, 1), BuildingBlock: FUNLAD_clean_linker_0, # of connection points: 2
#     Edge 12, Type (0, 1), BuildingBlock: FUNLAD_clean_linker_0, # of connection points: 2
#     Edge 13, Type (0, 1), BuildingBlock: FUNLAD_clean_linker_0, # of connection points: 2
#     Edge 14, Type (0, 1), BuildingBlock: FUNLAD_clean_linker_0, # of connection points: 2
#     Edge 15, Type (0, 1), BuildingBlock: FUNLAD_clean_linker_0, # of connection points: 2
#     Edge 16, Type (0, 1), BuildingBlock: FUNLAD_clean_linker_0, # of connection points: 2
#     Edge 17, Type (0, 1), BuildingBlock: FUNLAD_clean_linker_0, # of connection points: 2
# Relax obj value: 0.066
# Max RMSD: 0.214
# Mean RMSD: 0.106
data_MOF--net-pth--node1-AZAVOO_clean_sbu_0--node2-KOZSID_clean_sbu_0--edge1-FUNLAD_clean_linker_0
_symmetry_space_group_name_H-M    P1
_symmetry_Int_Tables_number       1
_symmetry_cell_setting            triclinic
loop_
_symmetry_equiv_pos_as_xyz
'x, y, z'
_cell_length_a     30.270376
_cell_length_b     30.867898
_cell_length_c     68.098271
_cell_angle_alpha  88.497194
_cell_angle_beta   90.228252
_cell_angle_gamma 121.95857
loop_
_atom_site_label
_atom_site_type_symbol
_atom_site_fract_x
_atom_site_fract_y
_atom_site_fract_z
_atom_type_partial_charge
Mg0 Mg 0.12318 0.08312 0.04024 0.0
O1 O 0.06367 0.03581 0.01676 0.0
O2 O 0.05637 0.08839 0.9958 0.0
Mg3 Mg 0.11126 0.1698 0.0059 0.0
C4 C 0.04381 0.04356 0.00154 0.0
C5 C 0.09476 0.97272 0.05027 0.0
O6 O 0.10951 0.9779 0.0318 0.0
O7 O 0.065 0.09733 0.05536 0.0
O8 O 0.06267 0.15252 0.03407 0.0
O9 O 0.18818 0.09286 0.02124 0.0
O10 O 0.16016 0.14594 0.0208 0.0
C11 C 0.04877 0.12664 0.05027 0.0
C12 C 0.19087 0.13316 0.0137 0.0
O13 O 0.0958 0.00988 0.0584 0.0
Mg14 Mg 0.98275 0.04737 0.35937 0.0
O15 O 0.05102 0.06401 0.37931 0.0
O16 O 0.06488 0.12537 0.39975 0.0
Mg17 Mg 0.0045 0.14679 0.39351 0.0
C18 C 0.0762 0.09393 0.39326 0.0
C19 C 0.01347 0.97105 0.34558 0.0
O20 O 0.01031 0.962 0.36465 0.0
O21 O 0.03402 0.1221 0.34205 0.0
O22 O 0.04185 0.17987 0.36324 0.0
O23 O 0.92511 0.98873 0.38107 0.0
O24 O 0.95335 0.07103 0.3812 0.0
C25 C 0.05054 0.1682 0.34643 0.0
C26 C 0.92586 0.02636 0.38938 0.0
O27 O 0.00406 0.00404 0.33875 0.0
Mg28 Mg 0.06066 0.03068 0.68586 0.0
O29 O 0.10744 0.09064 0.70882 0.0
O30 O 0.05265 0.09322 0.72985 0.0
Mg31 Mg 0.97003 0.0341 0.72035 0.0
C32 C 0.09877 0.10881 0.7239 0.0
C33 C 0.17566 0.06974 0.67511 0.0
O34 O 0.17423 0.05673 0.69374 0.0
O35 O 0.03864 0.08304 0.67049 0.0
O36 O 0.98086 0.07991 0.69175 0.0
O37 O 0.05832 0.96973 0.70521 0.0
O38 O 0.99896 0.99062 0.70576 0.0
C39 C 0.00589 0.09506 0.67542 0.0
C40 C 0.01624 0.96349 0.71296 0.0
O41 O 0.13453 0.06334 0.66724 0.0
C42 C 0.06865 0.6252 0.16312 0.0
C43 C 0.1124 0.66269 0.15279 0.0
C44 C 0.15412 0.6632 0.16067 0.0
C45 C 0.13363 0.62625 0.17531 0.0
N46 N 0.08123 0.60178 0.17718 0.0
Co47 Co 0.03572 0.54589 0.19673 0.0
N48 N 0.09765 0.54899 0.20905 0.0
C49 C 0.14841 0.58213 0.20441 0.0
C50 C 0.18197 0.57386 0.215 0.0
C51 C 0.15082 0.53246 0.22693 0.0
C52 C 0.09981 0.51794 0.22293 0.0
N53 N 0.99015 0.48898 0.21592 0.0
C54 C 0.0026 0.46293 0.22878 0.0
C55 C 0.95896 0.42406 0.23869 0.0
C56 C 0.9172 0.42473 0.23148 0.0
C57 C 0.93766 0.46385 0.21768 0.0
N58 N 0.97388 0.54361 0.18468 0.0
C59 C 0.92331 0.51264 0.19016 0.0
C60 C 0.8899 0.52126 0.17962 0.0
C61 C 0.92098 0.56055 0.16679 0.0
C62 C 0.97173 0.57365 0.1703 0.0
N63 N 0.02934 0.49419 0.17832 0.0
C64 C 0.02079 0.41325 0.15695 0.0
C65 C 0.9765 0.41142 0.16391 0.0
C66 C 0.98161 0.45204 0.17437 0.0
C67 C 0.06931 0.45752 0.15998 0.0
C68 C 0.07264 0.49739 0.1705 0.0
N69 N 0.04197 0.59727 0.2154 0.0
C70 C 0.00278 0.62316 0.23958 0.0
C71 C 0.0501 0.66863 0.24252 0.0
C72 C 0.09326 0.67823 0.23142 0.0
C73 C 0.08839 0.64226 0.21808 0.0
C74 C -0.0004 0.5885 0.22609 0.0
H75 H 0.12274 0.65171 0.21016 0.0
H76 H 0.96229 0.55496 0.22457 0.0
H77 H 0.94642 0.44775 0.17959 0.0
H78 H 0.11071 0.52992 0.17251 0.0
C79 C 0.16293 0.61642 0.18846 0.0
C80 C 0.01657 0.61552 0.15984 0.0
C81 C 0.05468 0.47224 0.23151 0.0
C82 C 0.9085 0.47623 0.20544 0.0
H83 H 0.11427 0.68805 0.1411 0.0
H84 H 0.19471 0.68857 0.15663 0.0
H85 H 0.22393 0.59393 0.21352 0.0
H86 H 0.16421 0.51401 0.23687 0.0
H87 H 0.95743 0.39728 0.24966 0.0
H88 H 0.87662 0.39884 0.23542 0.0
H89 H 0.84801 0.50172 0.18122 0.0
H90 H 0.90791 0.578 0.15618 0.0
H91 H 0.93801 0.37802 0.16191 0.0
H92 H 0.10468 0.46132 0.15438 0.0
H93 H 0.96792 0.61445 0.24752 0.0
H94 H 0.13086 0.71294 0.23323 0.0
C95 C 0.49954 0.09119 0.55976 0.0
C96 C 0.46173 0.05333 0.57218 0.0
C97 C 0.45407 0.00807 0.56623 0.0
C98 C 0.4874 0.02074 0.55059 0.0
N99 N 0.51634 0.07149 0.54626 0.0
Co100 Co 0.56909 0.10648 0.52449 0.0
N101 N 0.55594 0.03947 0.51526 0.0
C102 C 0.52061 0.99224 0.52254 0.0
C103 C 0.52127 0.95366 0.51333 0.0
C104 C 0.55985 0.97765 0.49948 0.0
C105 C 0.5806 0.02967 0.50115 0.0
N106 N 0.62235 0.1414 0.50284 0.0
C107 C 0.64107 0.12175 0.49009 0.0
C108 C 0.67987 0.15948 0.47797 0.0
C109 C 0.68636 0.20472 0.4834 0.0
C110 C 0.65141 0.19212 0.49849 0.0
N111 N 0.58181 0.17347 0.53364 0.0
C112 C 0.61569 0.22054 0.52582 0.0
C113 C 0.61446 0.25901 0.53491 0.0
C114 C 0.57721 0.23511 0.54927 0.0
C115 C 0.55782 0.18327 0.54807 0.0
N116 N 0.6242 0.11255 0.54218 0.0
C117 C 0.70224 0.12186 0.56762 0.0
C118 C 0.70996 0.16343 0.55611 0.0
C119 C 0.67082 0.15797 0.5436 0.0
C120 C 0.65495 0.07534 0.56602 0.0
C121 C 0.61681 0.07154 0.5533 0.0
N122 N 0.51387 0.10073 0.50684 0.0
C123 C 0.48269 0.14112 0.48476 0.0
C124 C 0.43273 0.0975 0.48521 0.0
C125 C 0.42455 0.05453 0.49585 0.0
C126 C 0.46539 0.05698 0.5065 0.0
C127 C 0.52237 0.14175 0.49544 0.0
H128 H 0.45642 0.0234 0.51469 0.0
H129 H 0.55928 0.17633 0.49453 0.0
H130 H 0.67918 0.19117 0.53531 0.0
H131 H 0.58168 0.03508 0.5527 0.0
C132 C 0.49033 0.98564 0.53906 0.0
C133 C 0.51596 0.1448 0.56072 0.0
C134 C 0.62531 0.06826 0.48967 0.0
C135 C 0.647 0.22719 0.50957 0.0
H136 H 0.44089 0.05773 0.58406 0.0
H137 H 0.42656 0.9703 0.57227 0.0
H138 H 0.49767 0.91307 0.5167 0.0
H139 H 0.57225 0.95909 0.4896 0.0
H140 H 0.70207 0.15491 0.46669 0.0
H141 H 0.7143 0.24246 0.47745 0.0
H142 H 0.63736 0.29952 0.53132 0.0
H143 H 0.56518 0.2536 0.55935 0.0
H144 H 0.7457 0.20043 0.55697 0.0
H145 H 0.64741 0.04178 0.57444 0.0
H146 H 0.4911 0.17496 0.47633 0.0
H147 H 0.38638 0.01978 0.49657 0.0
C148 C 0.70141 0.59369 0.83594 0.0
C149 C 0.74065 0.58619 0.82995 0.0
C150 C 0.73099 0.54205 0.83898 0.0
C151 C 0.68681 0.52528 0.84999 0.0
N152 N 0.66732 0.5558 0.84847 0.0
Co153 Co 0.60456 0.54638 0.86257 0.0
N154 N 0.5942 0.48477 0.87758 0.0
C155 C 0.62474 0.46498 0.87682 0.0
C156 C 0.60732 0.42188 0.88837 0.0
C157 C 0.56278 0.41334 0.89701 0.0
C158 C 0.55571 0.45213 0.89027 0.0
N159 N 0.54063 0.53584 0.87611 0.0
C160 C 0.50671 0.49789 0.88866 0.0
C161 C 0.46647 0.50431 0.89424 0.0
C162 C 0.47453 0.54711 0.88451 0.0
C163 C 0.51911 0.56446 0.87366 0.0
N164 N 0.61611 0.60917 0.84813 0.0
C165 C 0.5871 0.63053 0.84957 0.0
C166 C 0.60553 0.67439 0.83837 0.0
C167 C 0.64954 0.68215 0.8295 0.0
C168 C 0.65553 0.64248 0.83591 0.0
N169 N 0.55954 0.50235 0.84122 0.0
C170 C 0.48687 0.43413 0.81412 0.0
C171 C 0.48912 0.47909 0.81863 0.0
C172 C 0.52534 0.51229 0.83204 0.0
C173 C 0.52362 0.42526 0.8226 0.0
C174 C 0.55954 0.45978 0.83593 0.0
N175 N 0.64936 0.59055 0.88391 0.0
C176 C 0.67351 0.66019 0.90561 0.0
C177 C 0.71899 0.66191 0.91089 0.0
C178 C 0.72758 0.62532 0.90328 0.0
C179 C 0.69234 0.59004 0.88998 0.0
C180 C 0.63962 0.62461 0.89225 0.0
H181 H 0.70128 0.5635 0.88446 0.0
H182 H 0.60635 0.62623 0.88862 0.0
H183 H 0.52407 0.54521 0.835 0.0
H184 H 0.58613 0.45063 0.8421 0.0
C185 C 0.66634 0.48451 0.86356 0.0
C186 C 0.69985 0.63877 0.83026 0.0
C187 C 0.5105 0.45477 0.89549 0.0
C188 C 0.54237 0.60811 0.86141 0.0
H189 H 0.77386 0.61077 0.82054 0.0
H190 H 0.75464 0.52536 0.83826 0.0
H191 H 0.6239 0.39833 0.88975 0.0
H192 H 0.53768 0.38121 0.90671 0.0
H193 H 0.4344 0.48038 0.90423 0.0
H194 H 0.45067 0.56356 0.88522 0.0
H195 H 0.58911 0.69807 0.83694 0.0
H196 H 0.67464 0.71374 0.81956 0.0
H197 H 0.46255 0.48852 0.81199 0.0
H198 H 0.52364 0.39103 0.81951 0.0
H199 H 0.66423 0.68669 0.91156 0.0
H200 H 0.76217 0.62491 0.90701 0.0
C201 C 0.0258 0.13373 0.0848 0.0
C202 C 0.01919 0.13726 0.0645 0.0
C203 C 0.00864 0.1558 0.09804 0.0
C204 C 0.98422 0.18132 0.09116 0.0
C205 C 0.97283 0.18002 0.07113 0.0
C206 C 0.99059 0.15867 0.05788 0.0
C207 C 0.97456 0.21363 0.104 0.0
C208 C 0.00852 0.24225 0.11799 0.0
C209 C 0.00819 0.28398 0.12841 0.0
C210 C 0.04773 0.31181 0.14203 0.0
C211 C 0.05184 0.35366 0.15124 0.0
C212 C 0.0164 0.36882 0.14707 0.0
H213 H 0.94102 0.27904 0.11411 0.0
C214 C 0.97629 0.34066 0.1337 0.0
C215 C 0.97213 0.29875 0.12446 0.0
H216 H 0.94855 0.35158 0.13007 0.0
H217 H 0.04739 0.11716 0.09035 0.0
H218 H 0.01639 0.15464 0.11352 0.0
H219 H 0.95335 0.19874 0.06552 0.0
H220 H 0.98432 0.16135 0.04234 0.0
H221 H 0.94281 0.21854 0.09996 0.0
H222 H 0.04117 0.23772 0.12098 0.0
H223 H 0.07608 0.30152 0.14543 0.0
H224 H 0.0826 0.37392 0.16176 0.0
C225 C 0.84317 0.97745 0.40874 0.0
C226 C 0.89484 0.01881 0.40714 0.0
C227 C 0.81034 0.97603 0.42349 0.0
C228 C 0.82915 0.01567 0.43697 0.0
C229 C 0.88201 0.05444 0.43636 0.0
C230 C 0.91446 0.05634 0.42143 0.0
C231 C 0.79419 0.01993 0.45086 0.0
C232 C 0.74616 0.00819 0.44569 0.0
C233 C 0.71462 0.02216 0.45749 0.0
C234 C 0.67904 0.03113 0.44778 0.0
C235 C 0.65034 0.04667 0.45819 0.0
C236 C 0.65651 0.05303 0.4785 0.0
H237 H 0.74563 0.01952 0.48607 0.0
C238 C 0.69091 0.04291 0.48839 0.0
C239 C 0.71979 0.02755 0.47799 0.0
H240 H 0.69529 0.04684 0.50416 0.0
H241 H 0.8273 0.94795 0.3979 0.0
H242 H 0.77001 0.94486 0.42396 0.0
H243 H 0.89757 0.08496 0.44677 0.0
H244 H 0.9545 0.08797 0.42076 0.0
H245 H 0.81115 0.03998 0.46434 0.0
H246 H 0.73174 0.99297 0.43125 0.0
H247 H 0.67406 0.02694 0.43204 0.0
H248 H 0.62333 0.05371 0.45043 0.0
C249 C 0.94524 0.92329 0.73836 0.0
C250 C 0.98826 0.92604 0.72926 0.0
C251 C 0.91585 0.88546 0.75259 0.0
C252 C 0.92848 0.84906 0.75796 0.0
C253 C 0.97171 0.85193 0.74903 0.0
C254 C 0.00173 0.89043 0.73495 0.0
C255 C 0.89414 0.80532 0.77139 0.0
C256 C 0.86643 0.80883 0.78599 0.0
C257 C 0.82604 0.76387 0.79753 0.0
C258 C 0.81542 0.77017 0.81694 0.0
C259 C 0.77503 0.72921 0.82769 0.0
C260 C 0.74397 0.68162 0.81905 0.0
H261 H 0.80111 0.71028 0.77382 0.0
C262 C 0.75409 0.67529 0.79961 0.0
C263 C 0.79503 0.71596 0.78895 0.0
H264 H 0.72996 0.63899 0.79263 0.0
H265 H 0.93309 0.94938 0.73416 0.0
H266 H 0.88184 0.8835 0.75869 0.0
H267 H 0.98186 0.82394 0.75277 0.0
H268 H 0.0344 0.89125 0.7281 0.0
H269 H 0.89121 0.7692 0.76902 0.0
H270 H 0.87333 0.84598 0.78963 0.0
H271 H 0.83831 0.80689 0.82375 0.0
H272 H 0.76752 0.73478 0.84267 0.0
C273 C 0.06404 0.91924 0.08144 0.0
C274 C 0.07864 0.9248 0.06153 0.0
C275 C 0.05082 0.87466 0.0922 0.0
C276 C 0.05163 0.83448 0.08321 0.0
C277 C 0.06578 0.84002 0.06327 0.0
C278 C 0.07891 0.8845 0.05253 0.0
C279 C 0.04163 0.78788 0.0943 0.0
C280 C 0.01538 0.7713 0.11155 0.0
C281 C 0.01075 0.72783 0.12336 0.0
C282 C 0.00485 0.72705 0.14385 0.0
C283 C 0.00491 0.6894 0.15567 0.0
C284 C 0.01032 0.65161 0.14716 0.0
H285 H 0.016 0.68618 0.09907 0.0
C286 C 0.0134 0.65046 0.12667 0.0
C287 C 0.01346 0.68816 0.11483 0.0
H288 H 0.0171 0.62113 0.11991 0.0
H289 H 0.06368 0.94969 0.08884 0.0
H290 H 0.04168 0.87282 0.10764 0.0
H291 H 0.06714 0.80994 0.05599 0.0
H292 H 0.08994 0.88748 0.03721 0.0
H293 H 0.05797 0.76731 0.08804 0.0
H294 H 0.99918 0.79183 0.11794 0.0
H295 H 0.00208 0.75673 0.15079 0.0
H296 H 0.00235 0.69063 0.17149 0.0
C297 C 0.15164 0.12799 0.41617 0.0
C298 C 0.11935 0.09158 0.40247 0.0
C299 C 0.19161 0.12538 0.42526 0.0
C300 C 0.19988 0.08573 0.42107 0.0
C301 C 0.16832 0.05 0.40706 0.0
C302 C 0.12847 0.05279 0.39786 0.0
C303 C 0.24162 0.08107 0.4306 0.0
C304 C 0.26411 0.10331 0.44761 0.0
C305 C 0.30704 0.10042 0.4568 0.0
C306 C 0.34222 0.14056 0.46862 0.0
C307 C 0.38309 0.1396 0.47769 0.0
C308 C 0.38926 0.09801 0.47537 0.0
H309 H 0.28557 0.02611 0.44602 0.0
C310 C 0.35351 0.05721 0.46386 0.0
C311 C 0.31281 0.05843 0.45458 0.0
H312 H 0.35731 0.02461 0.4619 0.0
H313 H 0.14628 0.15886 0.41986 0.0
H314 H 0.21614 0.15509 0.4353 0.0
H315 H 0.17413 0.01942 0.40334 0.0
H316 H 0.10452 0.02421 0.38731 0.0
H317 H 0.25396 0.05831 0.42328 0.0
H318 H 0.25205 0.12608 0.45505 0.0
H319 H 0.33833 0.17307 0.47075 0.0
H320 H 0.40953 0.17118 0.48675 0.0
C321 C 0.19496 0.16445 0.72957 0.0
C322 C 0.14362 0.14818 0.73512 0.0
C323 C 0.23717 0.20043 0.74052 0.0
C324 C 0.22897 0.22124 0.75727 0.0
C325 C 0.17765 0.20497 0.76274 0.0
C326 C 0.13551 0.16902 0.75182 0.0
C327 C 0.27205 0.25894 0.76978 0.0
C328 C 0.32293 0.28525 0.7646 0.0
C329 C 0.36442 0.32342 0.77748 0.0
C330 C 0.41541 0.33398 0.77548 0.0
C331 C 0.45531 0.36974 0.78736 0.0
C332 C 0.44508 0.39613 0.80134 0.0
H333 H 0.31623 0.34489 0.79287 0.0
C334 C 0.39417 0.38599 0.80314 0.0
C335 C 0.35443 0.3504 0.79129 0.0
H336 H 0.38478 0.40531 0.81386 0.0
H337 H 0.20267 0.14898 0.71685 0.0
H338 H 0.27572 0.21077 0.73589 0.0
H339 H 0.16999 0.22012 0.77558 0.0
H340 H 0.09656 0.15738 0.75657 0.0
H341 H 0.26074 0.26524 0.78402 0.0
H342 H 0.33535 0.27865 0.75069 0.0
H343 H 0.42435 0.31425 0.76478 0.0
H344 H 0.49425 0.37717 0.78543 0.0
C345 C 0.96047 0.1409 0.66693 0.0
C346 C 0.99056 0.12112 0.6609 0.0
C347 C 0.93586 0.155 0.65312 0.0
C348 C 0.94028 0.14898 0.63296 0.0
C349 C 0.97443 0.13405 0.62685 0.0
C350 C -0.00064 0.12015 0.6407 0.0
C351 C 0.90683 0.15402 0.61821 0.0
C352 C 0.85793 0.1413 0.62269 0.0
C353 C 0.81955 0.13785 0.60812 0.0
C354 C 0.76657 0.10952 0.61346 0.0
C355 C 0.72864 0.10415 0.60031 0.0
C356 C 0.74279 0.1273 0.58148 0.0
H357 H 0.87429 0.18479 0.58475 0.0
C358 C 0.79587 0.15629 0.57616 0.0
C359 C 0.83392 0.16165 0.58934 0.0
H360 H 0.80803 0.1745 0.56172 0.0
H361 H 0.9539 0.14326 0.68239 0.0
H362 H 0.91187 0.16879 0.65833 0.0
H363 H 0.97927 0.13001 0.61138 0.0
H364 H 0.02264 0.10547 0.63555 0.0
H365 H 0.92057 0.16239 0.60309 0.0
H366 H 0.84341 0.12853 0.63761 0.0
H367 H 0.75432 0.09108 0.62787 0.0
H368 H 0.68821 0.08238 0.60502 0.0
C369 C 0.99168 0.94932 0.99551 0.0
C370 C 0.00575 0.99931 0.98996 0.0
C371 C 0.95652 0.90778 0.98432 0.0
C372 C 0.93446 0.91536 0.96733 0.0
C373 C 0.94876 0.96531 0.9618 0.0
C374 C 0.98379 0.00674 0.97297 0.0
C375 C 0.89734 0.87298 0.95466 0.0
C376 C 0.87041 0.82313 0.96022 0.0
C377 C 0.83186 0.78233 0.94731 0.0
C378 C 0.82064 0.73221 0.95009 0.0
C379 C 0.78425 0.69296 0.93827 0.0
C380 C 0.75785 0.70302 0.92357 0.0
H381 H 0.81086 0.82971 0.93053 0.0
C382 C 0.76875 0.75309 0.92096 0.0
C383 C 0.80494 0.79215 0.93274 0.0
H384 H 0.74948 0.76233 0.90967 0.0
H385 H 0.00814 0.9422 0.00844 0.0
H386 H 0.94776 0.87024 0.98893 0.0
H387 H 0.93262 0.97242 0.94877 0.0
H388 H 0.99377 0.04465 0.96819 0.0
H389 H 0.89157 0.88399 0.94006 0.0
H390 H 0.87647 0.81119 0.97457 0.0
H391 H 0.84029 0.72342 0.96137 0.0
H392 H 0.77626 0.65467 0.94082 0.0
C393 C 0.04095 0.90878 0.33988 0.0
C394 C 0.0268 0.94243 0.33224 0.0
C395 C 0.05199 0.88051 0.32733 0.0
C396 C 0.04851 0.88484 0.30682 0.0
C397 C 0.03592 0.91966 0.29921 0.0
C398 C 0.02507 0.94808 0.31175 0.0
C399 C 0.05728 0.85364 0.29291 0.0
C400 C 0.05131 0.80832 0.29801 0.0
C401 C 0.05438 0.77423 0.28379 0.0
C402 C 0.02856 0.72181 0.28852 0.0
C403 C 0.02804 0.68781 0.27528 0.0
C404 C 0.05375 0.70548 0.25701 0.0
H405 H 0.10361 0.83259 0.26183 0.0
C406 C 0.08139 0.7582 0.25253 0.0
C407 C 0.08179 0.7923 0.26578 0.0
H408 H 0.10166 0.77299 0.23858 0.0
H409 H 0.04347 0.90415 0.35558 0.0
H410 H 0.06348 0.85565 0.33384 0.0
H411 H 0.03347 0.92421 0.28349 0.0
H412 H 0.01465 0.97395 0.30538 0.0
H413 H 0.0647 0.86668 0.27764 0.0
H414 H 0.03931 0.79317 0.31291 0.0
H415 H 0.00774 0.70686 0.30238 0.0
H416 H 0.00728 0.64753 0.27934 0.0
C417 C 0.2258 0.10333 0.64338 0.0
C418 C 0.22415 0.09021 0.6634 0.0
C419 C 0.2709 0.12032 0.63213 0.0
C420 C 0.31552 0.12482 0.64071 0.0
C421 C 0.31398 0.11247 0.66079 0.0
C422 C 0.26896 0.09559 0.67203 0.0
C423 C 0.3625 0.13761 0.62901 0.0
C424 C 0.37453 0.16139 0.61118 0.0
C425 C 0.41639 0.16549 0.59844 0.0
C426 C 0.41046 0.1653 0.57796 0.0
C427 C 0.44488 0.16161 0.56554 0.0
C428 C 0.4861 0.15876 0.57342 0.0
H429 H 0.46716 0.16846 0.62179 0.0
C430 C 0.49456 0.16276 0.59371 0.0
C431 C 0.4601 0.16633 0.60616 0.0
H432 H 0.52647 0.16083 0.59996 0.0
H433 H 0.19188 0.09949 0.63626 0.0
H434 H 0.26965 0.12793 0.61661 0.0
H435 H 0.34756 0.11517 0.66777 0.0
H436 H 0.26908 0.08591 0.68743 0.0
H437 H 0.38672 0.12448 0.63512 0.0
H438 H 0.35037 0.17437 0.6049 0.0
H439 H 0.37752 0.1652 0.57162 0.0
H440 H 0.43789 0.15847 0.54987 0.0
C441 C 0.22795 0.20579 0.98908 0.0
C442 C 0.22818 0.16403 0.99769 0.0
C443 C 0.26544 0.23755 0.97506 0.0
C444 C 0.30443 0.22856 0.9694 0.0
C445 C 0.30461 0.18669 0.97786 0.0
C446 C 0.2665 0.15435 0.99174 0.0
C447 C 0.34761 0.26489 0.95605 0.0
C448 C 0.3416 0.29214 0.94171 0.0
C449 C 0.38584 0.33268 0.92986 0.0
C450 C 0.37762 0.34206 0.91032 0.0
C451 C 0.41829 0.38143 0.89909 0.0
C452 C 0.46746 0.41272 0.9074 0.0
H453 H 0.44227 0.35899 0.95338 0.0
C454 C 0.47551 0.40416 0.92704 0.0
C455 C 0.43516 0.36423 0.93816 0.0
H456 H 0.51306 0.42844 0.93374 0.0
H457 H 0.19974 0.21504 0.99353 0.0
H458 H 0.26502 0.27036 0.96931 0.0
H459 H 0.33461 0.17931 0.97389 0.0
H460 H 0.26801 0.12273 0.9982 0.0
H461 H 0.38537 0.26922 0.9581 0.0
H462 H 0.30291 0.28414 0.9383 0.0
H463 H 0.33976 0.31869 0.90371 0.0
H464 H 0.41139 0.38771 0.88396 0.0
C465 C 0.06559 0.19727 0.31105 0.0
C466 C 0.07482 0.20905 0.33103 0.0
C467 C 0.07885 0.23592 0.29684 0.0
C468 C 0.10183 0.28701 0.3024 0.0
C469 C 0.1155 0.29913 0.32208 0.0
C470 C 0.10178 0.26055 0.33629 0.0
C471 C 0.10821 0.328 0.28861 0.0
C472 C 0.07487 0.31909 0.27386 0.0
C473 C 0.07323 0.36032 0.26282 0.0
C474 C 0.05126 0.35045 0.24402 0.0
C475 C 0.04564 0.38705 0.23378 0.0
C476 C 0.06143 0.43388 0.24229 0.0
H477 H 0.10396 0.41578 0.28605 0.0
C478 C 0.08287 0.44382 0.2611 0.0
C479 C 0.0888 0.40742 0.27131 0.0
H480 H 0.09454 0.47959 0.26795 0.0
H481 H 0.04534 0.15799 0.3065 0.0
H482 H 0.06956 0.22545 0.28166 0.0
H483 H 0.13395 0.33826 0.3267 0.0
H484 H 0.11015 0.27094 0.35153 0.0
H485 H 0.13756 0.36705 0.29212 0.0
H486 H 0.04556 0.28009 0.27029 0.0
H487 H 0.03818 0.31423 0.23728 0.0
H488 H 0.02871 0.37877 0.21927 0.0
loop_
_geom_bond_atom_site_label_1
_geom_bond_atom_site_label_2
_geom_bond_distance
_geom_bond_site_symmetry_2
_ccdc_geom_bond_type
Mg0 O1 2.028 . S
Mg0 O7 1.986 . S
Mg0 O9 2.114 . S
Mg0 O10 2.251 . S
Mg0 O13 2.010 . S
O1 Mg0 2.028 . S
O1 C4 1.250 . S
O2 Mg3 2.028 . S
O2 C4 1.248 . S
Mg3 O2 2.028 . S
Mg3 O8 2.032 . S
Mg3 O10 2.079 . S
C4 O1 1.250 . S
C4 O2 1.248 . S
C5 O6 1.264 1_565 S
C5 O13 1.249 1_565 S
O6 C5 1.264 1_545 S
O7 Mg0 1.986 . S
O7 C11 1.246 . S
O8 Mg3 2.032 . S
O8 C11 1.259 . S
O9 Mg0 2.114 . S
O9 C12 1.252 . S
O10 Mg0 2.251 . S
O10 Mg3 2.079 . S
O10 C12 1.273 . S
C11 O7 1.246 . S
C11 O8 1.259 . S
C12 O9 1.252 . S
C12 O10 1.273 . S
O13 Mg0 2.010 . S
O13 C5 1.249 1_545 S
Mg14 O15 2.028 . S
Mg14 O21 1.986 . S
Mg14 O23 2.114 1_455 S
Mg14 O24 2.251 1_455 S
Mg14 O27 2.010 1_455 S
O15 Mg14 2.028 . S
O15 C18 1.250 . S
O16 Mg17 2.028 . S
O16 C18 1.248 . S
Mg17 O16 2.028 . S
Mg17 O22 2.032 . S
Mg17 O24 2.079 1_455 S
C18 O15 1.250 . S
C18 O16 1.248 . S
C19 O20 1.264 . S
C19 O27 1.249 1_565 S
O20 C19 1.264 . S
O21 Mg14 1.986 . S
O21 C25 1.246 . S
O22 Mg17 2.032 . S
O22 C25 1.259 . S
O23 Mg14 2.114 1_655 S
O23 C26 1.252 . S
O24 Mg14 2.251 1_655 S
O24 Mg17 2.079 1_655 S
O24 C26 1.273 . S
C25 O21 1.246 . S
C25 O22 1.259 . S
C26 O23 1.252 . S
C26 O24 1.273 . S
O27 Mg14 2.010 1_655 S
O27 C19 1.249 1_545 S
Mg28 O29 2.028 . S
Mg28 O35 1.986 . S
Mg28 O37 2.114 1_545 S
Mg28 O38 2.268 1_545 S
Mg28 O41 2.010 . S
O29 Mg28 2.028 . S
O29 C32 1.250 . S
O30 Mg31 2.028 1_455 S
O30 C32 1.248 . S
Mg31 O30 2.028 1_655 S
Mg31 O36 2.032 . S
Mg31 O38 2.064 1_645 S
C32 O29 1.250 . S
C32 O30 1.248 . S
C33 O34 1.264 1_545 S
C33 O41 1.249 . S
O34 C33 1.264 1_565 S
O35 Mg28 1.986 . S
O35 C39 1.246 . S
O36 Mg31 2.032 . S
O36 C39 1.259 1_655 S
O37 Mg28 2.114 1_565 S
O37 C40 1.252 . S
O38 Mg28 2.268 1_565 S
O38 Mg31 2.064 1_465 S
O38 C40 1.292 . S
C39 O35 1.246 . S
C39 O36 1.259 1_455 S
C40 O37 1.252 . S
C40 O38 1.292 . S
O41 Mg28 2.010 . S
O41 C33 1.249 . S
C42 C43 1.443 . S
C42 N46 1.376 . S
C42 C80 1.389 . S
C43 C42 1.443 . S
C43 C44 1.340 . S
C43 H83 0.951 . S
C44 C43 1.340 . S
C44 C45 1.439 . S
C44 H84 0.950 . S
C45 C44 1.439 . S
C45 N46 1.374 . S
C45 C79 1.395 . S
N46 C42 1.376 . S
N46 C45 1.374 . S
N46 Co47 2.008 . S
Co47 N46 2.008 . S
Co47 N48 1.995 . S
Co47 N53 2.008 1_455 S
Co47 N58 2.014 . S
Co47 N63 2.282 . S
Co47 N69 2.282 . S
N48 Co47 1.995 . S
N48 C49 1.376 . S
N48 C52 1.383 . S
C49 N48 1.376 . S
C49 C50 1.446 . S
C49 C79 1.391 . S
C50 C49 1.446 . S
C50 C51 1.339 . S
C50 H85 0.949 . S
C51 C50 1.339 . S
C51 C52 1.439 . S
C51 H86 0.950 . S
C52 N48 1.383 . S
C52 C51 1.439 . S
C52 C81 1.392 . S
N53 Co47 2.008 1_655 S
N53 C54 1.376 . S
N53 C57 1.374 . S
C54 N53 1.376 . S
C54 C55 1.443 . S
C54 C81 1.389 1_655 S
C55 C54 1.443 . S
C55 C56 1.340 . S
C55 H87 0.951 . S
C56 C55 1.340 . S
C56 C57 1.439 . S
C56 H88 0.950 . S
C57 N53 1.374 . S
C57 C56 1.439 . S
C57 C82 1.395 . S
N58 Co47 2.014 . S
N58 C59 1.358 1_455 S
N58 C62 1.377 . S
C59 N58 1.358 1_655 S
C59 C60 1.446 . S
C59 C82 1.391 . S
C60 C59 1.446 . S
C60 C61 1.339 . S
C60 H89 0.949 . S
C61 C60 1.339 . S
C61 C62 1.439 1_655 S
C61 H90 0.950 . S
C62 N58 1.377 . S
C62 C61 1.439 1_455 S
C62 C80 1.392 . S
N63 Co47 2.282 . S
N63 C66 1.332 . S
N63 C68 1.332 . S
C64 C65 1.386 . S
C64 C67 1.388 . S
C65 C64 1.386 . S
C65 C66 1.382 . S
C65 H91 0.950 1_455 S
C66 N63 1.332 . S
C66 C65 1.382 . S
C66 H77 0.952 1_455 S
C67 C64 1.388 . S
C67 C68 1.382 . S
C67 H92 0.950 . S
C68 N63 1.332 . S
C68 C67 1.382 . S
C68 H78 0.948 . S
N69 Co47 2.282 . S
N69 C73 1.332 . S
N69 C74 1.342 . S
C70 C71 1.388 1_655 S
C70 C74 1.377 1_655 S
C70 H93 0.950 . S
C71 C70 1.388 1_455 S
C71 C72 1.386 . S
C72 C71 1.386 . S
C72 C73 1.382 . S
C72 H94 0.950 . S
C73 N69 1.332 . S
C73 C72 1.382 . S
C73 H75 0.952 . S
C74 N69 1.342 . S
C74 C70 1.377 1_455 S
C74 H76 0.942 1_455 S
H75 C73 0.952 . S
H76 C74 0.942 1_655 S
H77 C66 0.952 1_655 S
H78 C68 0.948 . S
C79 C45 1.395 . S
C79 C49 1.391 . S
C80 C42 1.389 . S
C80 C62 1.392 . S
C81 C52 1.392 . S
C81 C54 1.389 1_455 S
C82 C57 1.395 . S
C82 C59 1.391 . S
H83 C43 0.951 . S
H84 C44 0.950 . S
H85 C50 0.949 . S
H86 C51 0.950 . S
H87 C55 0.951 . S
H88 C56 0.950 . S
H89 C60 0.949 . S
H90 C61 0.950 . S
H91 C65 0.950 1_655 S
H92 C67 0.950 . S
H93 C70 0.950 . S
H94 C72 0.950 . S
C95 C96 1.443 . S
C95 N99 1.376 . S
C95 C133 1.389 . S
C96 C95 1.443 . S
C96 C97 1.340 1_545 S
C96 H136 0.951 1_545 S
C97 C96 1.340 1_565 S
C97 C98 1.439 . S
C97 H137 0.950 . S
C98 C97 1.439 . S
C98 N99 1.374 1_565 S
C98 C132 1.395 . S
N99 C95 1.376 . S
N99 C98 1.374 1_545 S
N99 Co100 2.008 . S
Co100 N99 2.008 . S
Co100 N101 1.995 . S
Co100 N106 2.008 . S
Co100 N111 1.995 . S
Co100 N116 2.282 . S
Co100 N122 2.282 . S
N101 Co100 1.995 . S
N101 C102 1.376 1_545 S
N101 C105 1.383 . S
C102 N101 1.376 1_565 S
C102 C103 1.446 . S
C102 C132 1.391 . S
C103 C102 1.446 . S
C103 C104 1.339 1_565 S
C103 H138 0.949 . S
C104 C103 1.339 1_545 S
C104 C105 1.439 . S
C104 H139 0.950 . S
C105 N101 1.383 . S
C105 C104 1.439 . S
C105 C134 1.392 . S
N106 Co100 2.008 . S
N106 C107 1.376 . S
N106 C110 1.374 . S
C107 N106 1.376 . S
C107 C108 1.443 . S
C107 C134 1.389 . S
C108 C107 1.443 . S
C108 C109 1.340 . S
C108 H140 0.951 . S
C109 C108 1.340 . S
C109 C110 1.439 . S
C109 H141 0.950 . S
C110 N106 1.374 . S
C110 C109 1.439 . S
C110 C135 1.395 . S
N111 Co100 1.995 . S
N111 C112 1.376 . S
N111 C115 1.383 . S
C112 N111 1.376 . S
C112 C113 1.446 . S
C112 C135 1.391 . S
C113 C112 1.446 . S
C113 C114 1.339 . S
C113 H142 0.949 . S
C114 C113 1.339 . S
C114 C115 1.439 . S
C114 H143 0.950 . S
C115 N111 1.383 . S
C115 C114 1.439 . S
C115 C133 1.392 . S
N116 Co100 2.282 . S
N116 C119 1.332 . S
N116 C121 1.332 . S
C117 C118 1.386 . S
C117 C120 1.388 . S
C118 C117 1.386 . S
C118 C119 1.382 . S
C118 H144 0.950 . S
C119 N116 1.332 . S
C119 C118 1.382 . S
C119 H130 0.952 . S
C120 C117 1.388 . S
C120 C121 1.382 . S
C120 H145 0.950 . S
C121 N116 1.332 . S
C121 C120 1.382 . S
C121 H131 0.948 . S
N122 Co100 2.282 . S
N122 C126 1.332 . S
N122 C127 1.332 . S
C123 C124 1.388 . S
C123 C127 1.382 . S
C123 H146 0.950 . S
C124 C123 1.388 . S
C124 C125 1.386 . S
C125 C124 1.386 . S
C125 C126 1.382 . S
C125 H147 0.950 . S
C126 N122 1.332 . S
C126 C125 1.382 . S
C126 H128 0.952 . S
C127 N122 1.332 . S
C127 C123 1.382 . S
C127 H129 0.948 . S
H128 C126 0.952 . S
H129 C127 0.948 . S
H130 C119 0.952 . S
H131 C121 0.948 . S
C132 C98 1.395 . S
C132 C102 1.391 . S
C133 C95 1.389 . S
C133 C115 1.392 . S
C134 C105 1.392 . S
C134 C107 1.389 . S
C135 C110 1.395 . S
C135 C112 1.391 . S
H136 C96 0.951 1_565 S
H137 C97 0.950 . S
H138 C103 0.949 . S
H139 C104 0.950 . S
H140 C108 0.951 . S
H141 C109 0.950 . S
H142 C113 0.949 . S
H143 C114 0.950 . S
H144 C118 0.950 . S
H145 C120 0.950 . S
H146 C123 0.950 . S
H147 C125 0.950 . S
C148 C149 1.443 . S
C148 N152 1.376 . S
C148 C186 1.389 . S
C149 C148 1.443 . S
C149 C150 1.340 . S
C149 H189 0.951 . S
C150 C149 1.340 . S
C150 C151 1.439 . S
C150 H190 0.950 . S
C151 C150 1.439 . S
C151 N152 1.374 . S
C151 C185 1.395 . S
N152 C148 1.376 . S
N152 C151 1.374 . S
N152 Co153 2.008 . S
Co153 N152 2.008 . S
Co153 N154 1.995 . S
Co153 N159 2.008 . S
Co153 N164 1.995 . S
Co153 N169 2.282 . S
Co153 N175 2.282 . S
N154 Co153 1.995 . S
N154 C155 1.376 . S
N154 C158 1.383 . S
C155 N154 1.376 . S
C155 C156 1.446 . S
C155 C185 1.391 . S
C156 C155 1.446 . S
C156 C157 1.339 . S
C156 H191 0.949 . S
C157 C156 1.339 . S
C157 C158 1.439 . S
C157 H192 0.950 . S
C158 N154 1.383 . S
C158 C157 1.439 . S
C158 C187 1.392 . S
N159 Co153 2.008 . S
N159 C160 1.376 . S
N159 C163 1.374 . S
C160 N159 1.376 . S
C160 C161 1.443 . S
C160 C187 1.389 . S
C161 C160 1.443 . S
C161 C162 1.340 . S
C161 H193 0.951 . S
C162 C161 1.340 . S
C162 C163 1.439 . S
C162 H194 0.950 . S
C163 N159 1.374 . S
C163 C162 1.439 . S
C163 C188 1.395 . S
N164 Co153 1.995 . S
N164 C165 1.376 . S
N164 C168 1.383 . S
C165 N164 1.376 . S
C165 C166 1.446 . S
C165 C188 1.391 . S
C166 C165 1.446 . S
C166 C167 1.339 . S
C166 H195 0.949 . S
C167 C166 1.339 . S
C167 C168 1.439 . S
C167 H196 0.950 . S
C168 N164 1.383 . S
C168 C167 1.439 . S
C168 C186 1.392 . S
N169 Co153 2.282 . S
N169 C172 1.332 . S
N169 C174 1.332 . S
C170 C171 1.386 . S
C170 C173 1.388 . S
C171 C170 1.386 . S
C171 C172 1.382 . S
C171 H197 0.950 . S
C172 N169 1.332 . S
C172 C171 1.382 . S
C172 H183 0.952 . S
C173 C170 1.388 . S
C173 C174 1.382 . S
C173 H198 0.950 . S
C174 N169 1.332 . S
C174 C173 1.382 . S
C174 H184 0.948 . S
N175 Co153 2.282 . S
N175 C179 1.332 . S
N175 C180 1.332 . S
C176 C177 1.388 . S
C176 C180 1.382 . S
C176 H199 0.950 . S
C177 C176 1.388 . S
C177 C178 1.386 . S
C178 C177 1.386 . S
C178 C179 1.382 . S
C178 H200 0.950 . S
C179 N175 1.332 . S
C179 C178 1.382 . S
C179 H181 0.952 . S
C180 N175 1.332 . S
C180 C176 1.382 . S
C180 H182 0.948 . S
H181 C179 0.952 . S
H182 C180 0.948 . S
H183 C172 0.952 . S
H184 C174 0.948 . S
C185 C151 1.395 . S
C185 C155 1.391 . S
C186 C148 1.389 . S
C186 C168 1.392 . S
C187 C158 1.392 . S
C187 C160 1.389 . S
C188 C163 1.395 . S
C188 C165 1.391 . S
H189 C149 0.951 . S
H190 C150 0.950 . S
H191 C156 0.949 . S
H192 C157 0.950 . S
H193 C161 0.951 . S
H194 C162 0.950 . S
H195 C166 0.949 . S
H196 C167 0.950 . S
H197 C171 0.950 . S
H198 C173 0.950 . S
H199 C176 0.950 . S
H200 C178 0.950 . S
C201 C202 1.386 . S
C201 C203 1.383 . S
C201 H217 0.951 . S
C202 C201 1.386 . S
C202 C206 1.383 . S
C203 C201 1.383 . S
C203 C204 1.402 . S
C203 H218 0.951 . S
C204 C203 1.402 . S
C204 C205 1.375 . S
C204 C207 1.481 . S
C205 C204 1.375 . S
C205 C206 1.367 . S
C205 H219 0.951 . S
C206 C202 1.383 . S
C206 C205 1.367 . S
C206 H220 0.950 . S
C207 C204 1.481 . S
C207 C208 1.297 . S
C207 H221 0.950 . S
C208 C207 1.297 . S
C208 C209 1.479 . S
C208 H222 0.950 . S
C209 C208 1.479 . S
C209 C210 1.375 . S
C209 C215 1.404 . S
C210 C209 1.375 . S
C210 C211 1.369 . S
C210 H223 0.950 . S
C211 C210 1.369 . S
C211 C212 1.392 . S
C211 H224 0.951 . S
C212 C211 1.392 . S
C212 C214 1.384 . S
H213 C215 0.949 . S
C214 C212 1.384 . S
C214 C215 1.385 . S
C214 H216 0.950 . S
C215 C209 1.404 . S
C215 H213 0.949 . S
C215 C214 1.385 . S
H216 C214 0.950 . S
H217 C201 0.951 . S
H218 C203 0.951 . S
H219 C205 0.951 . S
H220 C206 0.950 . S
H221 C207 0.950 . S
H222 C208 0.950 . S
H223 C210 0.950 . S
H224 C211 0.951 . S
C225 C226 1.386 . S
C225 C227 1.383 . S
C225 H241 0.951 . S
C226 C225 1.386 . S
C226 C230 1.383 . S
C227 C225 1.383 . S
C227 C228 1.402 . S
C227 H242 0.951 . S
C228 C227 1.402 . S
C228 C229 1.375 . S
C228 C231 1.481 . S
C229 C228 1.375 . S
C229 C230 1.367 . S
C229 H243 0.951 . S
C230 C226 1.383 . S
C230 C229 1.367 . S
C230 H244 0.950 . S
C231 C228 1.481 . S
C231 C232 1.297 . S
C231 H245 0.950 . S
C232 C231 1.297 . S
C232 C233 1.479 . S
C232 H246 0.950 . S
C233 C232 1.479 . S
C233 C234 1.375 . S
C233 C239 1.404 . S
C234 C233 1.375 . S
C234 C235 1.369 . S
C234 H247 0.950 . S
C235 C234 1.369 . S
C235 C236 1.392 . S
C235 H248 0.951 . S
C236 C235 1.392 . S
C236 C238 1.384 . S
H237 C239 0.949 . S
C238 C236 1.384 . S
C238 C239 1.385 . S
C238 H240 0.950 . S
C239 C233 1.404 . S
C239 H237 0.949 . S
C239 C238 1.385 . S
H240 C238 0.950 . S
H241 C225 0.951 . S
H242 C227 0.951 . S
H243 C229 0.951 . S
H244 C230 0.950 . S
H245 C231 0.950 . S
H246 C232 0.950 . S
H247 C234 0.950 . S
H248 C235 0.951 . S
C249 C250 1.386 . S
C249 C251 1.383 . S
C249 H265 0.951 . S
C250 C249 1.386 . S
C250 C254 1.383 . S
C251 C249 1.383 . S
C251 C252 1.402 . S
C251 H266 0.951 . S
C252 C251 1.402 . S
C252 C253 1.375 . S
C252 C255 1.481 . S
C253 C252 1.375 . S
C253 C254 1.367 . S
C253 H267 0.951 . S
C254 C250 1.383 . S
C254 C253 1.367 . S
C254 H268 0.950 . S
C255 C252 1.481 . S
C255 C256 1.297 . S
C255 H269 0.950 . S
C256 C255 1.297 . S
C256 C257 1.479 . S
C256 H270 0.950 . S
C257 C256 1.479 . S
C257 C258 1.375 . S
C257 C263 1.404 . S
C258 C257 1.375 . S
C258 C259 1.369 . S
C258 H271 0.950 . S
C259 C258 1.369 . S
C259 C260 1.392 . S
C259 H272 0.951 . S
C260 C259 1.392 . S
C260 C262 1.384 . S
H261 C263 0.949 . S
C262 C260 1.384 . S
C262 C263 1.385 . S
C262 H264 0.950 . S
C263 C257 1.404 . S
C263 H261 0.949 . S
C263 C262 1.385 . S
H264 C262 0.950 . S
H265 C249 0.951 . S
H266 C251 0.951 . S
H267 C253 0.951 . S
H268 C254 0.950 . S
H269 C255 0.950 . S
H270 C256 0.950 . S
H271 C258 0.950 . S
H272 C259 0.951 . S
C273 C274 1.386 . S
C273 C275 1.383 . S
C273 H289 0.951 . S
C274 C273 1.386 . S
C274 C278 1.383 . S
C275 C273 1.383 . S
C275 C276 1.402 . S
C275 H290 0.951 . S
C276 C275 1.402 . S
C276 C277 1.375 . S
C276 C279 1.481 . S
C277 C276 1.375 . S
C277 C278 1.367 . S
C277 H291 0.951 . S
C278 C274 1.383 . S
C278 C277 1.367 . S
C278 H292 0.950 . S
C279 C276 1.481 . S
C279 C280 1.297 . S
C279 H293 0.950 . S
C280 C279 1.297 . S
C280 C281 1.479 . S
C280 H294 0.950 . S
C281 C280 1.479 . S
C281 C282 1.375 . S
C281 C287 1.404 . S
C282 C281 1.375 . S
C282 C283 1.369 . S
C282 H295 0.950 . S
C283 C282 1.369 . S
C283 C284 1.392 . S
C283 H296 0.951 . S
C284 C283 1.392 . S
C284 C286 1.384 . S
H285 C287 0.949 . S
C286 C284 1.384 . S
C286 C287 1.385 . S
C286 H288 0.950 . S
C287 C281 1.404 . S
C287 H285 0.949 . S
C287 C286 1.385 . S
H288 C286 0.950 . S
H289 C273 0.951 . S
H290 C275 0.951 . S
H291 C277 0.951 . S
H292 C278 0.950 . S
H293 C279 0.950 . S
H294 C280 0.950 . S
H295 C282 0.950 . S
H296 C283 0.951 . S
C297 C298 1.386 . S
C297 C299 1.383 . S
C297 H313 0.951 . S
C298 C297 1.386 . S
C298 C302 1.383 . S
C299 C297 1.383 . S
C299 C300 1.402 . S
C299 H314 0.951 . S
C300 C299 1.402 . S
C300 C301 1.375 . S
C300 C303 1.481 . S
C301 C300 1.375 . S
C301 C302 1.367 . S
C301 H315 0.951 . S
C302 C298 1.383 . S
C302 C301 1.367 . S
C302 H316 0.950 . S
C303 C300 1.481 . S
C303 C304 1.297 . S
C303 H317 0.950 . S
C304 C303 1.297 . S
C304 C305 1.479 . S
C304 H318 0.950 . S
C305 C304 1.479 . S
C305 C306 1.375 . S
C305 C311 1.404 . S
C306 C305 1.375 . S
C306 C307 1.369 . S
C306 H319 0.950 . S
C307 C306 1.369 . S
C307 C308 1.392 . S
C307 H320 0.951 . S
C308 C307 1.392 . S
C308 C310 1.384 . S
H309 C311 0.949 . S
C310 C308 1.384 . S
C310 C311 1.385 . S
C310 H312 0.950 . S
C311 C305 1.404 . S
C311 H309 0.949 . S
C311 C310 1.385 . S
H312 C310 0.950 . S
H313 C297 0.951 . S
H314 C299 0.951 . S
H315 C301 0.951 . S
H316 C302 0.950 . S
H317 C303 0.950 . S
H318 C304 0.950 . S
H319 C306 0.950 . S
H320 C307 0.951 . S
C321 C322 1.386 . S
C321 C323 1.383 . S
C321 H337 0.951 . S
C322 C321 1.386 . S
C322 C326 1.383 . S
C323 C321 1.383 . S
C323 C324 1.402 . S
C323 H338 0.951 . S
C324 C323 1.402 . S
C324 C325 1.375 . S
C324 C327 1.481 . S
C325 C324 1.375 . S
C325 C326 1.367 . S
C325 H339 0.951 . S
C326 C322 1.383 . S
C326 C325 1.367 . S
C326 H340 0.950 . S
C327 C324 1.481 . S
C327 C328 1.297 . S
C327 H341 0.950 . S
C328 C327 1.297 . S
C328 C329 1.479 . S
C328 H342 0.950 . S
C329 C328 1.479 . S
C329 C330 1.375 . S
C329 C335 1.404 . S
C330 C329 1.375 . S
C330 C331 1.369 . S
C330 H343 0.950 . S
C331 C330 1.369 . S
C331 C332 1.392 . S
C331 H344 0.951 . S
C332 C331 1.392 . S
C332 C334 1.384 . S
H333 C335 0.949 . S
C334 C332 1.384 . S
C334 C335 1.385 . S
C334 H336 0.950 . S
C335 C329 1.404 . S
C335 H333 0.949 . S
C335 C334 1.385 . S
H336 C334 0.950 . S
H337 C321 0.951 . S
H338 C323 0.951 . S
H339 C325 0.951 . S
H340 C326 0.950 . S
H341 C327 0.950 . S
H342 C328 0.950 . S
H343 C330 0.950 . S
H344 C331 0.951 . S
C345 C346 1.386 . S
C345 C347 1.383 . S
C345 H361 0.951 . S
C346 C345 1.386 . S
C346 C350 1.383 1_655 S
C347 C345 1.383 . S
C347 C348 1.402 . S
C347 H362 0.951 . S
C348 C347 1.402 . S
C348 C349 1.375 . S
C348 C351 1.481 . S
C349 C348 1.375 . S
C349 C350 1.367 1_655 S
C349 H363 0.951 . S
C350 C346 1.383 1_455 S
C350 C349 1.367 1_455 S
C350 H364 0.950 . S
C351 C348 1.481 . S
C351 C352 1.297 . S
C351 H365 0.950 . S
C352 C351 1.297 . S
C352 C353 1.479 . S
C352 H366 0.950 . S
C353 C352 1.479 . S
C353 C354 1.375 . S
C353 C359 1.404 . S
C354 C353 1.375 . S
C354 C355 1.369 . S
C354 H367 0.950 . S
C355 C354 1.369 . S
C355 C356 1.392 . S
C355 H368 0.951 . S
C356 C355 1.392 . S
C356 C358 1.384 . S
H357 C359 0.949 . S
C358 C356 1.384 . S
C358 C359 1.385 . S
C358 H360 0.950 . S
C359 C353 1.404 . S
C359 H357 0.949 . S
C359 C358 1.385 . S
H360 C358 0.950 . S
H361 C345 0.951 . S
H362 C347 0.951 . S
H363 C349 0.951 . S
H364 C350 0.950 . S
H365 C351 0.950 . S
H366 C352 0.950 . S
H367 C354 0.950 . S
H368 C355 0.951 . S
C369 C370 1.400 1_655 S
C369 C371 1.383 1_554 S
C369 H385 0.951 . S
C370 C369 1.400 1_455 S
C370 C374 1.337 1_554 S
C371 C369 1.383 1_556 S
C371 C372 1.402 . S
C371 H386 0.951 . S
C372 C371 1.402 . S
C372 C373 1.375 . S
C372 C375 1.481 . S
C373 C372 1.375 . S
C373 C374 1.368 1_655 S
C373 H387 0.951 . S
C374 C370 1.337 1_556 S
C374 C373 1.368 1_455 S
C374 H388 0.948 1_565 S
C375 C372 1.481 . S
C375 C376 1.297 . S
C375 H389 0.950 . S
C376 C375 1.297 . S
C376 C377 1.479 . S
C376 H390 0.950 . S
C377 C376 1.479 . S
C377 C378 1.375 . S
C377 C383 1.404 . S
C378 C377 1.375 . S
C378 C379 1.369 . S
C378 H391 0.950 . S
C379 C378 1.369 . S
C379 C380 1.392 . S
C379 H392 0.951 . S
C380 C379 1.392 . S
C380 C382 1.384 . S
H381 C383 0.949 . S
C382 C380 1.384 . S
C382 C383 1.385 . S
C382 H384 0.950 . S
C383 C377 1.404 . S
C383 H381 0.949 . S
C383 C382 1.385 . S
H384 C382 0.950 . S
H385 C369 0.951 . S
H386 C371 0.951 . S
H387 C373 0.951 . S
H388 C374 0.948 1_545 S
H389 C375 0.950 . S
H390 C376 0.950 . S
H391 C378 0.950 . S
H392 C379 0.951 . S
C393 C394 1.386 1_655 S
C393 C395 1.389 . S
C393 H409 0.951 . S
C394 C393 1.386 1_455 S
C394 C398 1.383 . S
C395 C393 1.389 . S
C395 C396 1.402 1_655 S
C395 H410 0.945 . S
C396 C395 1.402 1_455 S
C396 C397 1.375 . S
C396 C399 1.481 . S
C397 C396 1.375 . S
C397 C398 1.367 . S
C397 H411 0.951 . S
C398 C394 1.383 . S
C398 C397 1.367 . S
C398 H412 0.950 . S
C399 C396 1.481 . S
C399 C400 1.304 1_455 S
C399 H413 0.950 . S
C400 C399 1.304 1_655 S
C400 C401 1.470 1_655 S
C400 H414 0.954 . S
C401 C400 1.470 1_455 S
C401 C402 1.375 . S
C401 C407 1.404 . S
C402 C401 1.375 . S
C402 C403 1.369 . S
C402 H415 0.950 1_455 S
C403 C402 1.369 . S
C403 C404 1.392 . S
C403 H416 0.951 . S
C404 C403 1.392 . S
C404 C406 1.384 . S
H405 C407 0.949 . S
C406 C404 1.384 . S
C406 C407 1.385 . S
C406 H408 0.950 . S
C407 C401 1.404 . S
C407 H405 0.949 . S
C407 C406 1.385 . S
H408 C406 0.950 . S
H409 C393 0.951 . S
H410 C395 0.945 . S
H411 C397 0.951 . S
H412 C398 0.950 . S
H413 C399 0.950 . S
H414 C400 0.954 . S
H415 C402 0.950 1_655 S
H416 C403 0.951 . S
C417 C418 1.386 . S
C417 C419 1.383 . S
C417 H433 0.951 . S
C418 C417 1.386 . S
C418 C422 1.383 . S
C419 C417 1.383 . S
C419 C420 1.402 . S
C419 H434 0.951 . S
C420 C419 1.402 . S
C420 C421 1.375 . S
C420 C423 1.481 . S
C421 C420 1.375 . S
C421 C422 1.367 . S
C421 H435 0.951 . S
C422 C418 1.383 . S
C422 C421 1.367 . S
C422 H436 0.950 . S
C423 C420 1.481 . S
C423 C424 1.297 . S
C423 H437 0.950 . S
C424 C423 1.297 . S
C424 C425 1.479 . S
C424 H438 0.950 . S
C425 C424 1.479 . S
C425 C426 1.375 . S
C425 C431 1.404 . S
C426 C425 1.375 . S
C426 C427 1.369 . S
C426 H439 0.950 . S
C427 C426 1.369 . S
C427 C428 1.392 . S
C427 H440 0.951 . S
C428 C427 1.392 . S
C428 C430 1.384 . S
H429 C431 0.949 . S
C430 C428 1.384 . S
C430 C431 1.385 . S
C430 H432 0.950 . S
C431 C425 1.404 . S
C431 H429 0.949 . S
C431 C430 1.385 . S
H432 C430 0.950 . S
H433 C417 0.951 . S
H434 C419 0.951 . S
H435 C421 0.951 . S
H436 C422 0.950 . S
H437 C423 0.950 . S
H438 C424 0.950 . S
H439 C426 0.950 . S
H440 C427 0.951 . S
C441 C442 1.386 . S
C441 C443 1.383 . S
C441 H457 0.951 . S
C442 C441 1.386 . S
C442 C446 1.383 1_556 S
C443 C441 1.383 . S
C443 C444 1.402 . S
C443 H458 0.951 . S
C444 C443 1.402 . S
C444 C445 1.375 . S
C444 C447 1.481 . S
C445 C444 1.375 . S
C445 C446 1.367 1_556 S
C445 H459 0.971 . S
C446 C442 1.383 1_554 S
C446 C445 1.367 1_554 S
C446 H460 0.950 . S
C447 C444 1.481 . S
C447 C448 1.297 . S
C447 H461 0.950 . S
C448 C447 1.297 . S
C448 C449 1.479 . S
C448 H462 0.950 . S
C449 C448 1.479 . S
C449 C450 1.375 . S
C449 C455 1.404 . S
C450 C449 1.375 . S
C450 C451 1.369 . S
C450 H463 0.950 . S
C451 C450 1.369 . S
C451 C452 1.392 . S
C451 H464 0.951 . S
C452 C451 1.392 . S
C452 C454 1.384 . S
H453 C455 0.949 . S
C454 C452 1.384 . S
C454 C455 1.385 . S
C454 H456 0.950 . S
C455 C449 1.404 . S
C455 H453 0.949 . S
C455 C454 1.385 . S
H456 C454 0.950 . S
H457 C441 0.951 . S
H458 C443 0.951 . S
H459 C445 0.971 . S
H460 C446 0.950 . S
H461 C447 0.950 . S
H462 C448 0.950 . S
H463 C450 0.950 . S
H464 C451 0.951 . S
C465 C466 1.386 . S
C465 C467 1.383 . S
C465 H481 0.951 . S
C466 C465 1.386 . S
C466 C470 1.383 . S
C467 C465 1.383 . S
C467 C468 1.402 . S
C467 H482 0.951 . S
C468 C467 1.402 . S
C468 C469 1.375 . S
C468 C471 1.481 . S
C469 C468 1.375 . S
C469 C470 1.367 . S
C469 H483 0.951 . S
C470 C466 1.383 . S
C470 C469 1.367 . S
C470 H484 0.950 . S
C471 C468 1.481 . S
C471 C472 1.297 . S
C471 H485 0.950 . S
C472 C471 1.297 . S
C472 C473 1.479 . S
C472 H486 0.950 . S
C473 C472 1.479 . S
C473 C474 1.375 . S
C473 C479 1.404 . S
C474 C473 1.375 . S
C474 C475 1.369 . S
C474 H487 0.950 . S
C475 C474 1.369 . S
C475 C476 1.392 . S
C475 H488 0.951 . S
C476 C475 1.392 . S
C476 C478 1.384 . S
H477 C479 0.949 . S
C478 C476 1.384 . S
C478 C479 1.385 . S
C478 H480 0.950 . S
C479 C473 1.404 . S
C479 H477 0.949 . S
C479 C478 1.385 . S
H480 C478 0.950 . S
H481 C465 0.951 . S
H482 C467 0.951 . S
H483 C469 0.951 . S
H484 C470 0.950 . S
H485 C471 0.950 . S
H486 C472 0.950 . S
H487 C474 0.950 . S
H488 C475 0.951 . S
C212 C64 1.366 . S
C202 C11 1.338 . S
C226 C26 1.538 . S
C236 C134 1.517 . S
C250 C40 1.402 1_655 S
C260 C186 1.396 . S
C274 C5 1.285 . S
C284 C80 1.387 . S
C308 C124 1.517 . S
C298 C18 1.517 . S
C322 C32 1.375 . S
C332 C170 1.385 . S
C356 C117 1.261 . S
C346 C39 1.263 1_655 S
C370 C4 1.400 1_565 S
C380 C177 1.395 . S
C404 C71 1.362 . S
C394 C19 1.156 1_455 S
C428 C133 1.311 . S
C418 C33 1.214 . S
C452 C187 1.419 . S
C442 C12 1.403 1_556 S
C466 C25 1.335 . S
C476 C81 1.383 . S
