# Generated by pormake.
# Topology iac, (4,6)-cn, num edge types: 1
# Building blocks:
#     Node 0, Type 0, BuildingBlock: KUFVIS_clean_sbu_0, # of connection points: 4
#     Node 1, Type 0, BuildingBlock: KUFVIS_clean_sbu_0, # of connection points: 4
#     Node 2, Type 0, BuildingBlock: KUFVIS_clean_sbu_0, # of connection points: 4
#     Node 3, Type 0, BuildingBlock: KUFVIS_clean_sbu_0, # of connection points: 4
#     Node 4, Type 0, BuildingBlock: KUFVIS_clean_sbu_0, # of connection points: 4
#     Node 5, Type 0, BuildingBlock: KUFVIS_clean_sbu_0, # of connection points: 4
#     Node 6, Type 0, BuildingBlock: KUFVIS_clean_sbu_0, # of connection points: 4
#     Node 7, Type 0, BuildingBlock: KUFVIS_clean_sbu_0, # of connection points: 4
#     Node 8, Type 0, BuildingBlock: KUFVIS_clean_sbu_0, # of connection points: 4
#     Node 9, Type 0, BuildingBlock: KUFVIS_clean_sbu_0, # of connection points: 4
#     Node 10, Type 0, BuildingBlock: KUFVIS_clean_sbu_0, # of connection points: 4
#     Node 11, Type 0, BuildingBlock: KUFVIS_clean_sbu_0, # of connection points: 4
#     Node 12, Type 0, BuildingBlock: KUFVIS_clean_sbu_0, # of connection points: 4
#     Node 13, Type 0, BuildingBlock: KUFVIS_clean_sbu_0, # of connection points: 4
#     Node 14, Type 0, BuildingBlock: KUFVIS_clean_sbu_0, # of connection points: 4
#     Node 15, Type 0, BuildingBlock: KUFVIS_clean_sbu_0, # of connection points: 4
#     Node 16, Type 0, BuildingBlock: KUFVIS_clean_sbu_0, # of connection points: 4
#     Node 17, Type 0, BuildingBlock: KUFVIS_clean_sbu_0, # of connection points: 4
#     Node 18, Type 0, BuildingBlock: KUFVIS_clean_sbu_0, # of connection points: 4
#     Node 19, Type 0, BuildingBlock: KUFVIS_clean_sbu_0, # of connection points: 4
#     Node 20, Type 0, BuildingBlock: KUFVIS_clean_sbu_0, # of connection points: 4
#     Node 21, Type 0, BuildingBlock: KUFVIS_clean_sbu_0, # of connection points: 4
#     Node 22, Type 0, BuildingBlock: KUFVIS_clean_sbu_0, # of connection points: 4
#     Node 23, Type 0, BuildingBlock: KUFVIS_clean_sbu_0, # of connection points: 4
#     Node 24, Type 1, BuildingBlock: LEVNOQ01_clean_sbu_1, # of connection points: 6
#     Node 25, Type 1, BuildingBlock: LEVNOQ01_clean_sbu_1, # of connection points: 6
#     Node 26, Type 1, BuildingBlock: LEVNOQ01_clean_sbu_1, # of connection points: 6
#     Node 27, Type 1, BuildingBlock: LEVNOQ01_clean_sbu_1, # of connection points: 6
#     Node 28, Type 1, BuildingBlock: LEVNOQ01_clean_sbu_1, # of connection points: 6
#     Node 29, Type 1, BuildingBlock: LEVNOQ01_clean_sbu_1, # of connection points: 6
#     Node 30, Type 1, BuildingBlock: LEVNOQ01_clean_sbu_1, # of connection points: 6
#     Node 31, Type 1, BuildingBlock: LEVNOQ01_clean_sbu_1, # of connection points: 6
#     Node 32, Type 1, BuildingBlock: LEVNOQ01_clean_sbu_1, # of connection points: 6
#     Node 33, Type 1, BuildingBlock: LEVNOQ01_clean_sbu_1, # of connection points: 6
#     Node 34, Type 1, BuildingBlock: LEVNOQ01_clean_sbu_1, # of connection points: 6
#     Node 35, Type 1, BuildingBlock: LEVNOQ01_clean_sbu_1, # of connection points: 6
#     Node 36, Type 1, BuildingBlock: LEVNOQ01_clean_sbu_1, # of connection points: 6
#     Node 37, Type 1, BuildingBlock: LEVNOQ01_clean_sbu_1, # of connection points: 6
#     Node 38, Type 1, BuildingBlock: LEVNOQ01_clean_sbu_1, # of connection points: 6
#     Node 39, Type 1, BuildingBlock: LEVNOQ01_clean_sbu_1, # of connection points: 6
#     Edge 40, Type (0, 1), BuildingBlock: UVAHIK_clean_linker_0, # of connection points: 2
#     Edge 41, Type (0, 1), BuildingBlock: UVAHIK_clean_linker_0, # of connection points: 2
#     Edge 42, Type (0, 1), BuildingBlock: UVAHIK_clean_linker_0, # of connection points: 2
#     Edge 43, Type (0, 1), BuildingBlock: UVAHIK_clean_linker_0, # of connection points: 2
#     Edge 44, Type (0, 1), BuildingBlock: UVAHIK_clean_linker_0, # of connection points: 2
#     Edge 45, Type (0, 1), BuildingBlock: UVAHIK_clean_linker_0, # of connection points: 2
#     Edge 46, Type (0, 1), BuildingBlock: UVAHIK_clean_linker_0, # of connection points: 2
#     Edge 47, Type (0, 1), BuildingBlock: UVAHIK_clean_linker_0, # of connection points: 2
#     Edge 48, Type (0, 1), BuildingBlock: UVAHIK_clean_linker_0, # of connection points: 2
#     Edge 49, Type (0, 1), BuildingBlock: UVAHIK_clean_linker_0, # of connection points: 2
#     Edge 50, Type (0, 1), BuildingBlock: UVAHIK_clean_linker_0, # of connection points: 2
#     Edge 51, Type (0, 1), BuildingBlock: UVAHIK_clean_linker_0, # of connection points: 2
#     Edge 52, Type (0, 1), BuildingBlock: UVAHIK_clean_linker_0, # of connection points: 2
#     Edge 53, Type (0, 1), BuildingBlock: UVAHIK_clean_linker_0, # of connection points: 2
#     Edge 54, Type (0, 1), BuildingBlock: UVAHIK_clean_linker_0, # of connection points: 2
#     Edge 55, Type (0, 1), BuildingBlock: UVAHIK_clean_linker_0, # of connection points: 2
#     Edge 56, Type (0, 1), BuildingBlock: UVAHIK_clean_linker_0, # of connection points: 2
#     Edge 57, Type (0, 1), BuildingBlock: UVAHIK_clean_linker_0, # of connection points: 2
#     Edge 58, Type (0, 1), BuildingBlock: UVAHIK_clean_linker_0, # of connection points: 2
#     Edge 59, Type (0, 1), BuildingBlock: UVAHIK_clean_linker_0, # of connection points: 2
#     Edge 60, Type (0, 1), BuildingBlock: UVAHIK_clean_linker_0, # of connection points: 2
#     Edge 61, Type (0, 1), BuildingBlock: UVAHIK_clean_linker_0, # of connection points: 2
#     Edge 62, Type (0, 1), BuildingBlock: UVAHIK_clean_linker_0, # of connection points: 2
#     Edge 63, Type (0, 1), BuildingBlock: UVAHIK_clean_linker_0, # of connection points: 2
#     Edge 64, Type (0, 1), BuildingBlock: UVAHIK_clean_linker_0, # of connection points: 2
#     Edge 65, Type (0, 1), BuildingBlock: UVAHIK_clean_linker_0, # of connection points: 2
#     Edge 66, Type (0, 1), BuildingBlock: UVAHIK_clean_linker_0, # of connection points: 2
#     Edge 67, Type (0, 1), BuildingBlock: UVAHIK_clean_linker_0, # of connection points: 2
#     Edge 68, Type (0, 1), BuildingBlock: UVAHIK_clean_linker_0, # of connection points: 2
#     Edge 69, Type (0, 1), BuildingBlock: UVAHIK_clean_linker_0, # of connection points: 2
#     Edge 70, Type (0, 1), BuildingBlock: UVAHIK_clean_linker_0, # of connection points: 2
#     Edge 71, Type (0, 1), BuildingBlock: UVAHIK_clean_linker_0, # of connection points: 2
#     Edge 72, Type (0, 1), BuildingBlock: UVAHIK_clean_linker_0, # of connection points: 2
#     Edge 73, Type (0, 1), BuildingBlock: UVAHIK_clean_linker_0, # of connection points: 2
#     Edge 74, Type (0, 1), BuildingBlock: UVAHIK_clean_linker_0, # of connection points: 2
#     Edge 75, Type (0, 1), BuildingBlock: UVAHIK_clean_linker_0, # of connection points: 2
#     Edge 76, Type (0, 1), BuildingBlock: UVAHIK_clean_linker_0, # of connection points: 2
#     Edge 77, Type (0, 1), BuildingBlock: UVAHIK_clean_linker_0, # of connection points: 2
#     Edge 78, Type (0, 1), BuildingBlock: UVAHIK_clean_linker_0, # of connection points: 2
#     Edge 79, Type (0, 1), BuildingBlock: UVAHIK_clean_linker_0, # of connection points: 2
#     Edge 80, Type (0, 1), BuildingBlock: UVAHIK_clean_linker_0, # of connection points: 2
#     Edge 81, Type (0, 1), BuildingBlock: UVAHIK_clean_linker_0, # of connection points: 2
#     Edge 82, Type (0, 1), BuildingBlock: UVAHIK_clean_linker_0, # of connection points: 2
#     Edge 83, Type (0, 1), BuildingBlock: UVAHIK_clean_linker_0, # of connection points: 2
#     Edge 84, Type (0, 1), BuildingBlock: UVAHIK_clean_linker_0, # of connection points: 2
#     Edge 85, Type (0, 1), BuildingBlock: UVAHIK_clean_linker_0, # of connection points: 2
#     Edge 86, Type (0, 1), BuildingBlock: UVAHIK_clean_linker_0, # of connection points: 2
#     Edge 87, Type (0, 1), BuildingBlock: UVAHIK_clean_linker_0, # of connection points: 2
#     Edge 88, Type (0, 1), BuildingBlock: UVAHIK_clean_linker_0, # of connection points: 2
#     Edge 89, Type (0, 1), BuildingBlock: UVAHIK_clean_linker_0, # of connection points: 2
#     Edge 90, Type (0, 1), BuildingBlock: UVAHIK_clean_linker_0, # of connection points: 2
#     Edge 91, Type (0, 1), BuildingBlock: UVAHIK_clean_linker_0, # of connection points: 2
#     Edge 92, Type (0, 1), BuildingBlock: UVAHIK_clean_linker_0, # of connection points: 2
#     Edge 93, Type (0, 1), BuildingBlock: UVAHIK_clean_linker_0, # of connection points: 2
#     Edge 94, Type (0, 1), BuildingBlock: UVAHIK_clean_linker_0, # of connection points: 2
#     Edge 95, Type (0, 1), BuildingBlock: UVAHIK_clean_linker_0, # of connection points: 2
#     Edge 96, Type (0, 1), BuildingBlock: UVAHIK_clean_linker_0, # of connection points: 2
#     Edge 97, Type (0, 1), BuildingBlock: UVAHIK_clean_linker_0, # of connection points: 2
#     Edge 98, Type (0, 1), BuildingBlock: UVAHIK_clean_linker_0, # of connection points: 2
#     Edge 99, Type (0, 1), BuildingBlock: UVAHIK_clean_linker_0, # of connection points: 2
#     Edge 100, Type (0, 1), BuildingBlock: UVAHIK_clean_linker_0, # of connection points: 2
#     Edge 101, Type (0, 1), BuildingBlock: UVAHIK_clean_linker_0, # of connection points: 2
#     Edge 102, Type (0, 1), BuildingBlock: UVAHIK_clean_linker_0, # of connection points: 2
#     Edge 103, Type (0, 1), BuildingBlock: UVAHIK_clean_linker_0, # of connection points: 2
#     Edge 104, Type (0, 1), BuildingBlock: UVAHIK_clean_linker_0, # of connection points: 2
#     Edge 105, Type (0, 1), BuildingBlock: UVAHIK_clean_linker_0, # of connection points: 2
#     Edge 106, Type (0, 1), BuildingBlock: UVAHIK_clean_linker_0, # of connection points: 2
#     Edge 107, Type (0, 1), BuildingBlock: UVAHIK_clean_linker_0, # of connection points: 2
#     Edge 108, Type (0, 1), BuildingBlock: UVAHIK_clean_linker_0, # of connection points: 2
#     Edge 109, Type (0, 1), BuildingBlock: UVAHIK_clean_linker_0, # of connection points: 2
#     Edge 110, Type (0, 1), BuildingBlock: UVAHIK_clean_linker_0, # of connection points: 2
#     Edge 111, Type (0, 1), BuildingBlock: UVAHIK_clean_linker_0, # of connection points: 2
#     Edge 112, Type (0, 1), BuildingBlock: UVAHIK_clean_linker_0, # of connection points: 2
#     Edge 113, Type (0, 1), BuildingBlock: UVAHIK_clean_linker_0, # of connection points: 2
#     Edge 114, Type (0, 1), BuildingBlock: UVAHIK_clean_linker_0, # of connection points: 2
#     Edge 115, Type (0, 1), BuildingBlock: UVAHIK_clean_linker_0, # of connection points: 2
#     Edge 116, Type (0, 1), BuildingBlock: UVAHIK_clean_linker_0, # of connection points: 2
#     Edge 117, Type (0, 1), BuildingBlock: UVAHIK_clean_linker_0, # of connection points: 2
#     Edge 118, Type (0, 1), BuildingBlock: UVAHIK_clean_linker_0, # of connection points: 2
#     Edge 119, Type (0, 1), BuildingBlock: UVAHIK_clean_linker_0, # of connection points: 2
#     Edge 120, Type (0, 1), BuildingBlock: UVAHIK_clean_linker_0, # of connection points: 2
#     Edge 121, Type (0, 1), BuildingBlock: UVAHIK_clean_linker_0, # of connection points: 2
#     Edge 122, Type (0, 1), BuildingBlock: UVAHIK_clean_linker_0, # of connection points: 2
#     Edge 123, Type (0, 1), BuildingBlock: UVAHIK_clean_linker_0, # of connection points: 2
#     Edge 124, Type (0, 1), BuildingBlock: UVAHIK_clean_linker_0, # of connection points: 2
#     Edge 125, Type (0, 1), BuildingBlock: UVAHIK_clean_linker_0, # of connection points: 2
#     Edge 126, Type (0, 1), BuildingBlock: UVAHIK_clean_linker_0, # of connection points: 2
#     Edge 127, Type (0, 1), BuildingBlock: UVAHIK_clean_linker_0, # of connection points: 2
#     Edge 128, Type (0, 1), BuildingBlock: UVAHIK_clean_linker_0, # of connection points: 2
#     Edge 129, Type (0, 1), BuildingBlock: UVAHIK_clean_linker_0, # of connection points: 2
#     Edge 130, Type (0, 1), BuildingBlock: UVAHIK_clean_linker_0, # of connection points: 2
#     Edge 131, Type (0, 1), BuildingBlock: UVAHIK_clean_linker_0, # of connection points: 2
#     Edge 132, Type (0, 1), BuildingBlock: UVAHIK_clean_linker_0, # of connection points: 2
#     Edge 133, Type (0, 1), BuildingBlock: UVAHIK_clean_linker_0, # of connection points: 2
#     Edge 134, Type (0, 1), BuildingBlock: UVAHIK_clean_linker_0, # of connection points: 2
#     Edge 135, Type (0, 1), BuildingBlock: UVAHIK_clean_linker_0, # of connection points: 2
# Relax obj value: 0.087
# Max RMSD: 0.164
# Mean RMSD: 0.081
data_MOF--net-iac--node1-KUFVIS_clean_sbu_0--node2-LEVNOQ01_clean_sbu_1--edge1-UVAHIK_clean_linker_0
_symmetry_space_group_name_H-M    P1
_symmetry_Int_Tables_number       1
_symmetry_cell_setting            triclinic
loop_
_symmetry_equiv_pos_as_xyz
'x, y, z'
_cell_length_a     69.327396
_cell_length_b     68.159751
_cell_length_c     70.622182
_cell_angle_alpha  90.325543
_cell_angle_beta   89.96201
_cell_angle_gamma 90.69717
loop_
_atom_site_label
_atom_site_type_symbol
_atom_site_fract_x
_atom_site_fract_y
_atom_site_fract_z
_atom_type_partial_charge
Mn0 Mn 0.99366 0.24874 0.1253 0.0
Mn1 Mn 0.96903 0.23865 0.0851 0.0
C2 C 0.99167 0.21703 0.11412 0.0
C3 C 0.02175 0.25656 0.14194 0.0
C4 C 0.94949 0.24741 0.12233 0.0
O5 O 0.99168 0.27552 0.11311 0.0
O6 O 0.97514 0.26733 0.08657 0.0
C7 C -0.00015 0.24718 0.05721 0.0
N8 N 0.9868 0.23439 0.06483 0.0
C9 C -0.00426 0.20904 0.04275 0.0
C10 C 0.00921 0.22198 0.0346 0.0
C11 C 0.01128 0.24112 0.04188 0.0
C12 C 0.98461 0.21597 0.05787 0.0
H13 H 0.0015 0.26188 0.06281 0.0
C14 C 0.98326 0.27996 0.09765 0.0
O15 O 0.00482 0.25995 0.149 0.0
O16 O 0.02236 0.24971 0.12476 0.0
N17 N 0.96226 0.2115 0.08208 0.0
C18 C 0.94959 0.20047 0.09239 0.0
C19 C 0.94644 0.18069 0.08748 0.0
C20 C 0.95625 0.17251 0.07198 0.0
C21 C 0.96911 0.1842 0.0615 0.0
C22 C 0.97159 0.20385 0.067 0.0
H23 H 0.94209 0.20668 0.10437 0.0
O24 O 0.99476 0.22049 0.13195 0.0
O25 O 0.9894 0.2323 0.10336 0.0
O26 O 0.96498 0.24976 0.13182 0.0
O27 O 0.94928 0.24261 0.10485 0.0
C28 C 0.97992 0.177 0.04611 0.0
C29 C 0.99321 0.18942 0.03673 0.0
H30 H 0.01817 0.21732 0.02287 0.0
H31 H 0.0217 0.25116 0.03571 0.0
H32 H 0.93654 0.17175 0.09568 0.0
H33 H 0.95394 0.15719 0.06837 0.0
H34 H 0.97835 0.16186 0.04157 0.0
H35 H 0.00163 0.18365 0.02508 0.0
Mn36 Mn -0.00209 0.75612 0.37189 0.0
Mn37 Mn 0.9717 0.77027 0.40959 0.0
C38 C 0.99283 0.78889 0.37706 0.0
C39 C 0.02699 0.74686 0.35882 0.0
C40 C 0.95448 0.75234 0.37397 0.0
O41 O -0.00334 0.73204 0.38848 0.0
O42 O 0.98304 0.74422 0.41503 0.0
C43 C 0.0022 0.77567 0.43852 0.0
N44 N 0.98749 0.78313 0.42814 0.0
C45 C 0.99005 0.81426 0.44427 0.0
C46 C 0.00518 0.80689 0.45519 0.0
C47 C 0.01131 0.78753 0.45226 0.0
C48 C 0.98152 0.80176 0.4308 0.0
H49 H 0.00691 0.76078 0.43635 0.0
C50 C 0.9912 0.73045 0.40566 0.0
O51 O 0.01068 0.74116 0.3515 0.0
O52 O 0.02644 0.75758 0.37406 0.0
N53 N 0.9601 0.79535 0.40613 0.0
C54 C 0.94588 0.80049 0.39386 0.0
C55 C 0.93839 0.81952 0.39465 0.0
C56 C 0.94544 0.833 0.40815 0.0
C57 C 0.96006 0.82738 0.42064 0.0
C58 C 0.96696 0.8082 0.41919 0.0
H59 H 0.94027 0.79018 0.38354 0.0
O60 O -0.00209 0.78275 0.36037 0.0
O61 O 0.99136 0.77569 0.39023 0.0
O62 O 0.96997 0.75199 0.36436 0.0
O63 O 0.95376 0.7577 0.39131 0.0
C64 C 0.96817 0.84009 0.43436 0.0
C65 C 0.98321 0.83357 0.4461 0.0
H66 H 0.01224 0.81598 0.4658 0.0
H67 H 0.023 0.78175 0.46062 0.0
H68 H 0.92716 0.82377 0.38492 0.0
H69 H 0.93957 0.84764 0.40875 0.0
H70 H 0.96307 0.85497 0.43588 0.0
H71 H 0.98949 0.84357 0.45643 0.0
Mn72 Mn 0.49538 0.74991 0.62551 0.0
Mn73 Mn 0.46489 0.73661 0.59034 0.0
C74 C 0.49189 0.71738 0.61719 0.0
C75 C 0.52526 0.75925 0.63756 0.0
C76 C 0.45141 0.74811 0.62944 0.0
O77 O 0.49125 0.77557 0.61172 0.0
O78 O 0.47089 0.76526 0.58869 0.0
C79 C 0.49102 0.74293 0.55772 0.0
N80 N 0.47952 0.73074 0.56811 0.0
C81 C 0.48577 0.70361 0.54711 0.0
C82 C 0.49761 0.7159 0.53614 0.0
C83 C 0.50025 0.73564 0.54147 0.0
C84 C 0.4768 0.71174 0.56304 0.0
H85 H 0.49313 0.75809 0.5618 0.0
C86 C 0.48058 0.77876 0.59734 0.0
O87 O 0.50939 0.76332 0.64639 0.0
O88 O 0.52375 0.75077 0.6211 0.0
N89 N 0.45809 0.70929 0.5903 0.0
C90 C 0.44697 0.69917 0.60292 0.0
C91 C 0.44339 0.67906 0.59995 0.0
C92 C 0.45119 0.66959 0.58402 0.0
C93 C 0.46243 0.68036 0.57114 0.0
C94 C 0.4654 0.70039 0.57477 0.0
H95 H 0.44102 0.70637 0.61523 0.0
O96 O 0.49776 0.72225 0.63403 0.0
O97 O 0.48794 0.73173 0.60579 0.0
O98 O 0.4682 0.75136 0.63604 0.0
O99 O 0.44831 0.74209 0.61254 0.0
C100 C 0.47113 0.67191 0.55506 0.0
C101 C 0.48278 0.68353 0.54304 0.0
H102 H 0.50486 0.7103 0.52367 0.0
H103 H 0.50942 0.7452 0.53311 0.0
H104 H 0.43473 0.67084 0.60997 0.0
H105 H 0.44857 0.65403 0.58189 0.0
H106 H 0.46917 0.65643 0.55194 0.0
H107 H 0.48955 0.67682 0.53083 0.0
Mn108 Mn 0.49919 0.25385 0.87161 0.0
Mn109 Mn 0.47383 0.27051 0.90903 0.0
C110 C 0.49619 0.28698 0.8763 0.0
C111 C 0.5278 0.24334 0.85833 0.0
C112 C 0.45547 0.25343 0.87357 0.0
O113 O 0.49676 0.23019 0.88864 0.0
O114 O 0.48285 0.24359 0.9145 0.0
C115 C 0.50463 0.27318 0.938 0.0
N116 N 0.49057 0.28189 0.92768 0.0
C117 C 0.49528 0.31252 0.94429 0.0
C118 C 0.50976 0.30385 0.95515 0.0
C119 C 0.5145 0.28412 0.95194 0.0
C120 C 0.48598 0.3009 0.93057 0.0
H121 H 0.50823 0.25799 0.93564 0.0
C122 C 0.49057 0.22922 0.90564 0.0
O123 O 0.51125 0.23804 0.85126 0.0
O124 O 0.5277 0.25395 0.87364 0.0
N125 N 0.46441 0.29653 0.90564 0.0
C126 C 0.45074 0.30294 0.89335 0.0
C127 C 0.4446 0.32247 0.89444 0.0
C128 C 0.4524 0.33513 0.90828 0.0
C129 C 0.46649 0.32823 0.92073 0.0
C130 C 0.47205 0.30863 0.91896 0.0
H131 H 0.44451 0.29322 0.88283 0.0
O132 O 0.5006 0.28024 0.85965 0.0
O133 O 0.49389 0.27413 0.88968 0.0
O134 O 0.47099 0.25114 0.86425 0.0
O135 O 0.45503 0.25963 0.89065 0.0
C136 C 0.47532 0.34006 0.93476 0.0
C137 C 0.48979 0.33225 0.94644 0.0
H138 H 0.51738 0.31223 0.96593 0.0
H139 H 0.52568 0.27734 0.96025 0.0
H140 H 0.43378 0.32771 0.88472 0.0
H141 H 0.44751 0.35013 0.90917 0.0
H142 H 0.47122 0.35523 0.93658 0.0
H143 H 0.49666 0.34158 0.95698 0.0
Mn144 Mn 0.1193 -0.00272 0.255 0.0
Mn145 Mn 0.15705 0.00755 0.28371 0.0
C146 C 0.13087 0.02913 0.25787 0.0
C147 C 0.10658 0.98866 0.22549 0.0
C148 C 0.11673 -0.00137 0.29816 0.0
O149 O 0.1312 0.97035 0.25929 0.0
O150 O 0.15716 0.97926 0.27681 0.0
C151 C 0.18911 0.001 0.2568 0.0
N152 N 0.17949 0.01311 0.26884 0.0
C153 C 0.20208 0.03951 0.26315 0.0
C154 C 0.21228 0.0273 0.25074 0.0
C155 C 0.20574 0.00797 0.24753 0.0
C156 C 0.18564 0.03173 0.27202 0.0
H157 H 0.18412 0.98614 0.25429 0.0
C158 C 0.1467 0.96633 0.26825 0.0
O159 O 0.09685 0.98586 0.24098 0.0
O160 O 0.12401 0.99557 0.22726 0.0
N161 N 0.15853 0.03456 0.29123 0.0
C162 C 0.14657 0.04469 0.30295 0.0
C163 C 0.15078 0.06443 0.30724 0.0
C164 C 0.16729 0.0735 0.29953 0.0
C165 C 0.17946 0.06272 0.28763 0.0
C166 C 0.17458 0.04308 0.28394 0.0
H167 H 0.13386 0.03779 0.30891 0.0
O168 O 0.11334 0.02578 0.2522 0.0
O169 O 0.14097 0.01376 0.26181 0.0
O170 O 0.10867 -0.00279 0.282 0.0
O171 O 0.1347 0.00226 0.30043 0.0
C172 C 0.19612 0.07077 0.27909 0.0
C173 C 0.20741 0.05918 0.26685 0.0
H174 H 0.22507 0.03265 0.24351 0.0
H175 H 0.2135 -0.00152 0.23793 0.0
H176 H 0.1413 0.07266 0.31643 0.0
H177 H 0.17042 0.08876 0.30276 0.0
H178 H 0.20024 0.08594 0.28166 0.0
H179 H 0.22005 0.06561 0.2602 0.0
Mn180 Mn 0.25281 0.87132 0.4937 0.0
Mn181 Mn 0.26625 0.91121 0.46839 0.0
C182 C 0.28478 0.87976 0.49101 0.0
C183 C 0.24303 0.85613 0.52143 0.0
C184 C 0.25609 0.87237 0.45043 0.0
O185 O 0.22776 0.88602 0.49139 0.0
O186 O 0.23822 0.91124 0.47352 0.0
C187 C 0.25826 0.94057 0.49839 0.0
N188 N 0.27074 0.93234 0.48582 0.0
C189 C 0.29583 0.9554 0.49441 0.0
C190 C 0.28322 0.96418 0.50738 0.0
C191 C 0.26437 0.95668 0.50942 0.0
C192 C 0.28897 0.93928 0.48391 0.0
H193 H 0.24373 0.93494 0.49996 0.0
C194 C 0.22493 0.90177 0.48224 0.0
O195 O 0.23945 0.84826 0.50501 0.0
O196 O 0.25174 0.87311 0.52169 0.0
N197 N 0.29304 0.91378 0.46226 0.0
C198 C 0.30329 0.90386 0.44889 0.0
C199 C 0.3223 0.9098 0.44482 0.0
C200 C 0.33047 0.92605 0.4543 0.0
C201 C 0.3196 0.93615 0.46786 0.0
C202 C 0.30067 0.92966 0.47121 0.0
H203 H 0.29696 0.89157 0.44132 0.0
O204 O 0.27975 0.86192 0.49519 0.0
O205 O 0.27101 0.89236 0.48882 0.0
O206 O 0.25155 0.86385 0.46584 0.0
O207 O 0.26229 0.89006 0.44957 0.0
C208 C 0.32678 0.95245 0.47814 0.0
C209 C 0.31494 0.96199 0.49148 0.0
H210 H 0.28786 0.97667 0.51585 0.0
H211 H 0.25456 0.96336 0.51942 0.0
H212 H 0.3306 0.90197 0.43429 0.0
H213 H 0.34506 0.93073 0.45098 0.0
H214 H 0.34141 0.9577 0.47594 0.0
H215 H 0.32064 0.97445 0.49936 0.0
Mn216 Mn 0.38047 -0.00245 0.74838 0.0
Mn217 Mn 0.34076 0.98678 0.7742 0.0
C218 C 0.37337 0.96538 0.75552 0.0
C219 C 0.39529 0.00448 0.71968 0.0
C220 C 0.37776 0.00332 0.79098 0.0
O221 O 0.3649 0.02257 0.74759 0.0
O222 O 0.33724 0.01244 0.7615 0.0
C223 C 0.31212 0.98142 0.74345 0.0
N224 N 0.32149 0.97428 0.75883 0.0
C225 C 0.30274 0.94434 0.75786 0.0
C226 C 0.29281 0.95141 0.74207 0.0
C227 C 0.29757 0.97 0.73479 0.0
C228 C 0.31715 0.95634 0.76583 0.0
H229 H 0.3157 0.99573 0.73788 0.0
C230 C 0.34746 0.02523 0.75267 0.0
O231 O 0.40247 0.01073 0.73559 0.0
O232 O 0.37919 0.99456 0.72036 0.0
N233 N 0.34203 0.9623 0.78727 0.0
C234 C 0.3532 0.95748 0.80239 0.0
C235 C 0.35017 0.93942 0.81143 0.0
C236 C 0.33557 0.92659 0.80498 0.0
C237 C 0.32431 0.93181 0.78936 0.0
C238 C 0.32788 0.95009 0.78102 0.0
H239 H 0.36425 0.96736 0.80764 0.0
O240 O 0.39072 0.97043 0.75043 0.0
O241 O 0.36057 0.97917 0.7557 0.0
O242 O 0.38759 0.00288 0.77578 0.0
O243 O 0.35981 -0.00104 0.79168 0.0
C244 C 0.30969 0.9196 0.78175 0.0
C245 C 0.29898 0.92581 0.76594 0.0
H246 H 0.28155 0.94267 0.73537 0.0
H247 H 0.28999 0.97554 0.72258 0.0
H248 H 0.35895 0.93547 0.82346 0.0
H249 H 0.3331 0.91281 0.81218 0.0
H250 H 0.30667 0.90533 0.78784 0.0
H251 H 0.2879 0.91622 0.7601 0.0
Mn252 Mn 0.25048 0.12695 0.99474 0.0
Mn253 Mn 0.24041 0.08828 0.96629 0.0
C254 C 0.21874 0.11914 0.98801 0.0
C255 C 0.25781 0.13858 0.02508 0.0
C256 C 0.25562 0.1275 0.95198 0.0
O257 O 0.27575 0.11222 0.99328 0.0
O258 O 0.26648 0.08488 0.9775 0.0
C259 C 0.23776 0.05708 0.99516 0.0
N260 N 0.22958 0.06729 0.9808 0.0
C261 C 0.20042 0.04788 0.98267 0.0
C262 C 0.20857 0.03708 -0.00258 0.0
C263 C 0.22731 0.04173 0.00372 0.0
C264 C 0.21154 0.06299 0.97468 0.0
H265 H 0.25215 0.06065 5e-05 0.0
C266 C 0.27912 0.09525 0.98641 0.0
O267 O 0.26295 0.14829 0.01008 0.0
O268 O 0.2486 0.12214 0.02239 0.0
N269 N 0.21564 0.08953 0.95442 0.0
C270 C 0.20966 0.10178 0.94048 0.0
C271 C 0.19113 0.09925 0.93274 0.0
C272 C 0.17903 0.08405 0.93927 0.0
C273 C 0.18556 0.07153 0.95352 0.0
C274 C 0.20422 0.07466 0.96058 0.0
H275 H 0.21894 0.11342 0.93533 0.0
O276 O 0.22332 0.13642 0.99449 0.0
O277 O 0.23284 0.10682 0.9862 0.0
O278 O 0.25481 0.13683 0.96768 0.0
O279 O 0.25121 0.10931 0.95011 0.0
C280 C 0.17419 0.05622 0.96115 0.0
C281 C 0.1816 0.04444 0.97575 0.0
H282 H 0.20054 0.02526 0.00408 0.0
H283 H 0.23367 0.03351 0.01514 0.0
H284 H 0.18619 0.10897 0.92175 0.0
H285 H 0.16475 0.08217 0.93329 0.0
H286 H 0.15966 0.05353 0.95606 0.0
H287 H 0.17265 0.03286 0.98166 0.0
Mn288 Mn 0.7555 0.36912 0.99559 0.0
Mn289 Mn 0.76876 0.41072 0.97287 0.0
C290 C 0.78756 0.37595 0.99018 0.0
C291 C 0.74784 0.35211 0.02307 0.0
C292 C 0.75287 0.37466 0.95276 0.0
O293 O 0.73137 0.38557 -0.00291 0.0
O294 O 0.74222 0.41318 0.98299 0.0
C295 C 0.76972 0.43741 0.00612 0.0
N296 N 0.77873 0.42925 0.9909 0.0
C297 C 0.80754 0.44838 -0.00326 0.0
C298 C 0.79852 0.45711 0.01238 0.0
C299 C 0.77955 0.45154 0.01713 0.0
C300 C 0.79704 0.43434 0.98634 0.0
H301 H 0.75516 0.43318 0.00983 0.0
C302 C 0.72918 0.4032 0.9916 0.0
O303 O 0.74192 0.34599 0.0066 0.0
O304 O 0.7576 0.36848 0.0236 0.0
N305 N 0.79427 0.41076 0.96249 0.0
C306 C 0.80102 0.40072 0.94717 0.0
C307 C 0.81974 0.40465 0.94049 0.0
C308 C 0.83126 0.41899 0.9495 0.0
C309 C 0.82403 0.42912 0.96526 0.0
C310 C 0.8052 0.42472 0.97115 0.0
H311 H 0.79216 0.38986 0.94003 0.0
O312 O 0.7819 0.35808 0.99342 0.0
O313 O 0.77438 0.38934 0.99047 0.0
O314 O 0.7508 0.36425 0.96756 0.0
O315 O 0.75921 0.39235 0.95307 0.0
C316 C 0.83479 0.4434 0.97535 0.0
C317 C 0.82658 0.45295 0.99114 0.0
H318 H 0.80604 0.46803 0.02089 0.0
H319 H 0.77252 0.45815 0.02923 0.0
H320 H 0.82524 0.39676 0.92834 0.0
H321 H 0.8456 0.42214 0.94418 0.0
H322 H 0.84944 0.44703 0.97119 0.0
H323 H 0.83505 0.46376 -0.0011 0.0
Mn324 Mn 0.88201 0.49965 0.24893 0.0
Mn325 Mn 0.84196 0.48755 0.27371 0.0
C326 C 0.87538 0.46731 0.25558 0.0
C327 C 0.89717 0.5068 0.22043 0.0
C328 C 0.87814 0.50484 0.29153 0.0
O329 O 0.86582 0.5242 0.24781 0.0
O330 O 0.83824 0.51328 0.26134 0.0
C331 C 0.81415 0.48221 0.24222 0.0
N332 N 0.8233 0.47497 0.25768 0.0
C333 C 0.80494 0.44482 0.25594 0.0
C334 C 0.79523 0.452 0.24006 0.0
C335 C 0.79993 0.47074 0.23312 0.0
C336 C 0.81906 0.45686 0.26433 0.0
H337 H 0.81767 0.49664 0.23689 0.0
C338 C 0.84822 0.52632 0.25261 0.0
O339 O 0.90401 0.51328 0.23642 0.0
O340 O 0.88123 0.49664 0.22094 0.0
N341 N 0.84345 0.46283 0.28632 0.0
C342 C 0.85449 0.45786 0.30148 0.0
C343 C 0.8516 0.43956 0.31013 0.0
C344 C 0.83726 0.42667 0.30326 0.0
C345 C 0.82613 0.43205 0.2876 0.0
C346 C 0.82961 0.4505 0.27961 0.0
H347 H 0.86531 0.46781 0.30706 0.0
O348 O 0.8928 0.47273 0.25108 0.0
O349 O 0.86238 0.48085 0.25562 0.0
O350 O 0.88834 0.50504 0.27654 0.0
O351 O 0.86034 0.49979 0.2918 0.0
C352 C 0.81169 0.41984 0.27964 0.0
C353 C 0.80121 0.42615 0.26373 0.0
H354 H 0.7842 0.44323 0.23305 0.0
H355 H 0.79253 0.47637 0.22084 0.0
H356 H 0.86028 0.4355 0.32218 0.0
H357 H 0.83491 0.41269 0.31016 0.0
H358 H 0.80862 0.40551 0.28555 0.0
H359 H 0.79031 0.41654 0.25759 0.0
Mn360 Mn 0.7535 0.62844 0.49761 0.0
Mn361 Mn 0.74337 0.5931 0.46532 0.0
C362 C 0.72178 0.62119 0.49029 0.0
C363 C 0.76116 0.6367 0.52885 0.0
C364 C 0.75763 0.63391 0.45497 0.0
O365 O 0.77875 0.614 0.49472 0.0
O366 O 0.76985 0.58915 0.4753 0.0
C367 C 0.74232 0.559 0.49104 0.0
N368 N 0.73347 0.57043 0.47799 0.0
C369 C 0.70469 0.55037 0.47903 0.0
C370 C 0.71354 0.53829 0.4924 0.0
C371 C 0.73242 0.54266 0.49846 0.0
C372 C 0.71527 0.56644 0.47215 0.0
H373 H 0.75681 0.56235 0.49576 0.0
C374 C 0.78228 0.59823 0.48564 0.0
O375 O 0.76602 0.64806 0.51487 0.0
O376 O 0.75187 0.62065 0.52464 0.0
N377 N 0.71823 0.59493 0.45433 0.0
C378 C 0.71166 0.60824 0.44162 0.0
C379 C 0.69301 0.60598 0.4341 0.0
C380 C 0.68138 0.58999 0.43962 0.0
C381 C 0.68849 0.5764 0.45262 0.0
C382 C 0.70728 0.57929 0.45946 0.0
H383 H 0.72059 0.62049 0.43722 0.0
O384 O 0.72629 0.63772 0.49846 0.0
O385 O 0.73592 0.60921 0.48718 0.0
O386 O 0.75753 0.64123 0.47166 0.0
O387 O 0.75313 0.61608 0.45116 0.0
C388 C 0.67765 0.56018 0.45916 0.0
C389 C 0.68572 0.54722 0.47242 0.0
H390 H 0.70594 0.5257 0.49817 0.0
H391 H 0.73932 0.53346 0.50883 0.0
H392 H 0.68762 0.61652 0.42406 0.0
H393 H 0.66703 0.58828 0.43376 0.0
H394 H 0.66303 0.55765 0.45423 0.0
H395 H 0.67717 0.53492 0.47749 0.0
Mn396 Mn 0.62092 0.49836 0.75259 0.0
Mn397 Mn 0.65864 0.50947 0.78115 0.0
C398 C 0.63183 0.5304 0.75531 0.0
C399 C 0.60746 0.48988 0.72339 0.0
C400 C 0.61861 0.49987 0.79578 0.0
O401 O 0.63349 0.47174 0.75659 0.0
O402 O 0.65906 0.48111 0.77445 0.0
C403 C 0.69088 0.50306 0.75441 0.0
N404 N 0.6811 0.51514 0.76635 0.0
C405 C 0.70363 0.54165 0.76081 0.0
C406 C 0.71399 0.52946 0.74851 0.0
C407 C 0.70758 0.5101 0.74528 0.0
C408 C 0.6872 0.53378 0.76963 0.0
H409 H 0.68598 0.48818 0.75188 0.0
C410 C 0.64893 0.468 0.76576 0.0
O411 O 0.59844 0.48642 0.73914 0.0
O412 O 0.62485 0.49707 0.72467 0.0
N413 N 0.65982 0.53655 0.78847 0.0
C414 C 0.64749 0.54675 0.79976 0.0
C415 C 0.65141 0.5666 0.8038 0.0
C416 C 0.66799 0.57572 0.79629 0.0
C417 C 0.68053 0.56488 0.78482 0.0
C418 C 0.67593 0.54512 0.78136 0.0
H419 H 0.6347 0.53982 0.80551 0.0
O420 O 0.61424 0.52665 0.75002 0.0
O421 O 0.64239 0.5153 0.75915 0.0
O422 O 0.61062 0.49791 0.77965 0.0
O423 O 0.63645 0.50408 0.798 0.0
C424 C 0.69717 0.57303 0.77634 0.0
C425 C 0.70872 0.56142 0.76436 0.0
H426 H 0.7268 0.53487 0.74135 0.0
H427 H 0.71547 0.50063 0.73576 0.0
H428 H 0.64163 0.57489 0.81263 0.0
H429 H 0.67085 0.59109 0.79929 0.0
H430 H 0.70104 0.58829 0.77869 0.0
H431 H 0.72134 0.56792 0.75772 0.0
Mn432 Mn 0.01036 0.75496 0.87056 0.0
Mn433 Mn 0.9769 0.75736 0.90522 0.0
C434 C 0.00292 0.78501 0.88361 0.0
C435 C 0.04163 0.74812 0.86083 0.0
C436 C 0.9672 0.75158 0.86364 0.0
O437 O 0.00708 0.72674 0.87918 0.0
O438 O 0.98819 0.73063 0.90486 0.0
C439 C 0.00206 0.7535 0.93883 0.0
N440 N 0.98864 0.76371 0.92899 0.0
C441 C 0.98715 0.78846 0.95339 0.0
C442 C 0.00087 0.77814 0.96384 0.0
C443 C 0.00839 0.76062 0.95649 0.0
C444 C 0.9814 0.78065 0.93588 0.0
H445 H 0.00787 0.74003 0.93321 0.0
C446 C -0.00128 0.72013 0.89394 0.0
O447 O 0.02702 0.74629 0.84947 0.0
O448 O 0.03818 0.75443 0.87789 0.0
N449 N 0.96477 0.78239 0.90734 0.0
C450 C 0.95227 0.79102 0.89514 0.0
C451 C 0.9437 0.80887 0.90021 0.0
C452 C 0.94789 0.81755 0.91783 0.0
C453 C 0.96061 0.80829 0.93025 0.0
C454 C 0.9686 0.79045 0.92449 0.0
H455 H 0.94886 0.78439 0.88162 0.0
O456 O 0.0116 0.78405 0.86733 0.0
O457 O -0.00041 0.76841 0.89209 0.0
O458 O 0.98427 0.75394 0.85734 0.0
O459 O 0.96311 0.7513 0.88129 0.0
C460 C 0.9659 0.81623 0.94799 0.0
C461 C 0.97922 0.80635 0.95952 0.0
H462 H 0.00583 0.78361 0.97744 0.0
H463 H 0.01905 0.75263 0.96444 0.0
H464 H 0.93389 0.81591 0.89055 0.0
H465 H 0.94135 0.83137 0.92164 0.0
H466 H 0.96005 0.83007 0.95277 0.0
H467 H 0.9834 0.81275 0.97301 0.0
Mn468 Mn -0.00131 0.2407 0.62358 0.0
Mn469 Mn 0.96388 0.22756 0.59251 0.0
C470 C 0.99212 0.20811 0.61798 0.0
C471 C 0.03048 0.24957 0.62974 0.0
C472 C 0.95594 0.24217 0.63238 0.0
O473 O 0.9937 0.26569 0.60943 0.0
O474 O 0.9726 0.25505 0.58713 0.0
C475 C 0.98712 0.2274 0.5573 0.0
N476 N 0.97545 0.21779 0.56978 0.0
C477 C 0.9771 0.18796 0.55146 0.0
C478 C 0.98892 0.19763 0.53829 0.0
C479 C 0.99399 0.21743 0.54125 0.0
C480 C 0.97056 0.19871 0.56711 0.0
H481 H 0.99123 0.24253 0.55962 0.0
C482 C 0.98331 0.26834 0.59483 0.0
O483 O 0.01662 0.25447 0.64115 0.0
O484 O 0.02576 0.24005 0.61444 0.0
N485 N 0.95451 0.20124 0.59595 0.0
C486 C 0.94353 0.19384 0.6103 0.0
C487 C 0.9377 0.17404 0.60978 0.0
C488 C 0.94309 0.16209 0.59445 0.0
C489 C 0.95416 0.17009 0.57971 0.0
C490 C 0.95943 0.18996 0.58094 0.0
H491 H 0.93928 0.20295 0.62207 0.0
O492 O 0.0011 0.21354 0.63328 0.0
O493 O 0.98769 0.22194 0.6062 0.0
O494 O 0.97341 0.24381 0.63765 0.0
O495 O 0.95063 0.23678 0.6158 0.0
C496 C 0.96036 0.15906 0.56397 0.0
C497 C 0.97182 0.16799 0.54985 0.0
H498 H 0.99435 0.18996 0.52595 0.0
H499 H 0.00325 0.22495 0.53123 0.0
H500 H 0.92909 0.16801 0.62118 0.0
H501 H 0.93868 0.14679 0.59416 0.0
H502 H 0.95654 0.14365 0.56266 0.0
H503 H 0.97666 0.15931 0.5379 0.0
Mn504 Mn 0.49983 0.2483 0.37317 0.0
Mn505 Mn 0.49875 0.27852 0.33554 0.0
C506 C 0.47111 0.25292 0.35719 0.0
C507 C 0.50692 0.21782 0.386 0.0
C508 C 0.50072 0.29277 0.37632 0.0
O509 O 0.52812 0.25219 0.36624 0.0
O510 O 0.52521 0.26792 0.33843 0.0
C511 C 0.50559 0.24969 0.3048 0.0
N512 N 0.49455 0.26398 0.31265 0.0
C513 C 0.47194 0.26209 0.28684 0.0
C514 C 0.48321 0.24752 0.27835 0.0
C515 C 0.50005 0.24123 0.28742 0.0
C516 C 0.47817 0.26995 0.30417 0.0
H517 H 0.51846 0.24471 0.31179 0.0
C518 C 0.53519 0.25891 0.35088 0.0
O519 O 0.50738 0.23372 0.39619 0.0
O520 O 0.50192 0.21954 0.36836 0.0
N521 N 0.47391 0.28954 0.3309 0.0
C522 C 0.46414 0.30304 0.34138 0.0
C523 C 0.44677 0.31057 0.33447 0.0
C524 C 0.43968 0.3043 0.3168 0.0
C525 C 0.45001 0.29049 0.30622 0.0
C526 C 0.46733 0.28361 0.31376 0.0
H527 H 0.46953 0.30807 0.3549 0.0
O528 O 0.47096 0.2459 0.37426 0.0
O529 O 0.48798 0.25642 0.34992 0.0
O530 O 0.4987 0.27598 0.38392 0.0
O531 O 0.50242 0.29519 0.35845 0.0
C532 C 0.4437 0.28312 0.28857 0.0
C533 C 0.4546 0.26886 0.27893 0.0
H534 H 0.47896 0.24093 0.26497 0.0
H535 H 0.50873 0.22988 0.28104 0.0
H536 H 0.43887 0.32122 0.34273 0.0
H537 H 0.42625 0.31011 0.31155 0.0
H538 H 0.43035 0.28813 0.2824 0.0
H539 H 0.44944 0.26307 0.26553 0.0
Mn540 Mn 0.49599 0.74148 0.125 0.0
Mn541 Mn 0.46051 0.73319 0.09319 0.0
C542 C 0.48672 0.71003 0.11743 0.0
C543 C 0.52812 0.74702 0.13223 0.0
C544 C 0.45312 0.74522 0.13381 0.0
O545 O 0.49458 0.76713 0.11143 0.0
O546 O 0.47029 0.76082 0.09089 0.0
C547 C 0.48432 0.73661 0.05844 0.0
N548 N 0.47222 0.72587 0.06965 0.0
C549 C 0.47403 0.69811 0.0485 0.0
C550 C 0.48639 0.70894 0.0367 0.0
C551 C 0.49156 0.72826 0.0417 0.0
C552 C 0.46715 0.70725 0.06494 0.0
H553 H 0.48851 0.75141 0.06225 0.0
C554 C 0.48341 0.77201 0.09806 0.0
O555 O 0.51449 0.75268 0.14357 0.0
O556 O 0.52303 0.73832 0.11659 0.0
N557 N 0.45023 0.70694 0.09341 0.0
C558 C 0.43846 0.6983 0.10644 0.0
C559 C 0.43224 0.67881 0.10371 0.0
C560 C 0.43805 0.66844 0.0875 0.0
C561 C 0.44984 0.67774 0.07406 0.0
C562 C 0.45543 0.69727 0.07748 0.0
H563 H 0.43385 0.70622 0.11879 0.0
O564 O 0.49522 0.7137 0.13346 0.0
O565 O 0.48381 0.72494 0.10645 0.0
O566 O 0.47074 0.74694 0.13857 0.0
O567 O 0.44739 0.73987 0.11734 0.0
C568 C 0.45643 0.66833 0.05751 0.0
C569 C 0.46854 0.6785 0.04476 0.0
H570 H 0.49211 0.70251 0.02384 0.0
H571 H 0.50119 0.73668 0.03271 0.0
H572 H 0.42303 0.67179 0.1141 0.0
H573 H 0.43336 0.65335 0.08551 0.0
H574 H 0.45243 0.65321 0.05455 0.0
H575 H 0.47369 0.67103 0.03218 0.0
Mn576 Mn 0.88271 0.99221 0.73995 0.0
Mn577 Mn 0.84859 0.9903 0.77415 0.0
C578 C 0.87 0.96215 0.74896 0.0
C579 C 0.89075 -0.00217 0.70847 0.0
C580 C 0.89145 0.99544 0.78223 0.0
O581 O 0.87431 0.02043 0.74219 0.0
O582 O 0.8504 0.01732 0.76346 0.0
C583 C 0.81473 -0.00303 0.74952 0.0
N584 N 0.82385 0.98601 0.76278 0.0
C585 C 0.79671 0.96378 0.76496 0.0
C586 C 0.78694 0.97497 0.75151 0.0
C587 C 0.79604 0.99157 0.74367 0.0
C588 C 0.81535 0.96983 0.77017 0.0
H589 H 0.82168 0.0097 0.74342 0.0
C590 C 0.86056 0.02749 0.75186 0.0
O591 O 0.90322 0.00042 0.722 0.0
O592 O 0.87373 0.99135 0.71318 0.0
N593 N 0.84443 0.96532 0.78587 0.0
C594 C 0.85618 0.95548 0.79787 0.0
C595 C 0.84944 0.93828 0.80664 0.0
C596 C 0.83056 0.93152 0.80321 0.0
C597 C 0.81864 0.94194 0.7909 0.0
C598 C 0.82615 0.95902 0.78261 0.0
H599 H 0.87055 0.96071 0.80068 0.0
O600 O 0.88627 0.96322 0.73991 0.0
O601 O 0.86116 0.97867 0.75183 0.0
O602 O 0.89721 0.99483 0.7651 0.0
O603 O 0.87373 0.99415 0.78721 0.0
C604 C 0.79967 0.93592 0.78633 0.0
C605 C 0.78878 0.94674 0.77325 0.0
H606 H 0.77251 0.97086 0.74697 0.0
H607 H 0.78865 0.0002 0.73317 0.0
H608 H 0.85875 0.93032 0.8161 0.0
H609 H 0.8254 0.91827 0.81004 0.0
H610 H 0.79341 0.92286 0.7926 0.0
H611 H 0.77435 0.94177 0.7696 0.0
Mn612 Mn 0.751 0.12523 0.49755 0.0
Mn613 Mn 0.73411 0.09233 0.46574 0.0
C614 C 0.71842 0.12007 0.49483 0.0
C615 C 0.76297 0.13112 0.52767 0.0
C616 C 0.74796 0.13341 0.45542 0.0
O617 O 0.77455 0.11002 0.49027 0.0
O618 O 0.76166 0.08659 0.4714 0.0
C619 C 0.73583 0.05688 0.4897 0.0
N620 N 0.72547 0.06931 0.47873 0.0
C621 C 0.69639 0.05037 0.48363 0.0
C622 C 0.70679 0.03726 0.49482 0.0
C623 C 0.72658 0.04058 0.49791 0.0
C624 C 0.70639 0.06635 0.4758 0.0
H625 H 0.75101 0.05944 0.49224 0.0
C626 C 0.77586 0.09445 0.48037 0.0
O627 O 0.76671 0.14317 0.51389 0.0
O628 O 0.75275 0.11561 0.52372 0.0
N629 N 0.70756 0.09571 0.45915 0.0
C630 C 0.69946 0.1101 0.44858 0.0
C631 C 0.67971 0.10901 0.44424 0.0
C632 C 0.66851 0.09313 0.45076 0.0
C633 C 0.67714 0.0785 0.46162 0.0
C634 C 0.69695 0.08022 0.46526 0.0
H635 H 0.70796 0.12235 0.44353 0.0
O636 O 0.72499 0.13592 0.50291 0.0
O637 O 0.73116 0.10749 0.48911 0.0
O638 O 0.7517 0.13931 0.47221 0.0
O639 O 0.74208 0.11599 0.45141 0.0
C640 C 0.66684 0.06237 0.46911 0.0
C641 C 0.67644 0.04836 0.48018 0.0
H642 H 0.6997 0.0247 0.50123 0.0
H643 H 0.73468 0.03061 0.50663 0.0
H644 H 0.67313 0.12039 0.4359 0.0
H645 H 0.65329 0.09234 0.44737 0.0
H646 H 0.65148 0.06072 0.46664 0.0
H647 H 0.66833 0.03615 0.48606 0.0
Mn648 Mn 0.61099 0.009 0.24396 0.0
Mn649 Mn 0.64538 0.02102 0.27571 0.0
C650 C 0.61962 0.04133 0.24837 0.0
C651 C 0.60366 -0.00124 0.21362 0.0
C652 C 0.60437 0.00939 0.28625 0.0
O653 O 0.62386 0.98316 0.24927 0.0
O654 O 0.64865 0.99333 0.26758 0.0
C655 C 0.67949 0.01852 0.25058 0.0
N656 N 0.66831 0.02909 0.26269 0.0
C657 C 0.68909 0.05742 0.25967 0.0
C658 C 0.70091 0.04681 0.24729 0.0
C659 C 0.69604 0.02729 0.24268 0.0
C660 C 0.67275 0.04792 0.26708 0.0
H661 H 0.67578 0.00354 0.24695 0.0
C662 C 0.63956 0.98011 0.25805 0.0
O663 O 0.59155 0.99576 0.22741 0.0
O664 O 0.6198 0.00765 0.21755 0.0
N665 N 0.64416 0.04763 0.2844 0.0
C666 C 0.63084 0.05609 0.29594 0.0
C667 C 0.63344 0.0757 0.30169 0.0
C668 C 0.64977 0.08636 0.29565 0.0
C669 C 0.66335 0.07732 0.28387 0.0
C670 C 0.66005 0.0577 0.2787 0.0
H671 H 0.61835 0.04793 0.30075 0.0
O672 O 0.60325 0.03687 0.24046 0.0
O673 O 0.63041 0.02674 0.25308 0.0
O674 O 0.59766 0.00807 0.26952 0.0
O675 O 0.62201 0.0133 0.29024 0.0
C676 C 0.67995 0.08703 0.27695 0.0
C677 C 0.69274 0.07714 0.26476 0.0
H678 H 0.71367 0.05353 0.24113 0.0
H679 H 0.70502 0.01903 0.23304 0.0
H680 H 0.62291 0.08258 0.3108 0.0
H681 H 0.65169 0.10149 0.30009 0.0
H682 H 0.68292 0.10218 0.28077 0.0
H683 H 0.70529 0.08486 0.2593 0.0
Mn684 Mn 0.74846 0.86808 0.0064 0.0
Mn685 Mn 0.75234 0.91052 0.98284 0.0
C686 C 0.77868 0.88196 0.00219 0.0
C687 C 0.74074 0.85325 0.03499 0.0
C688 C 0.74398 0.87101 0.96397 0.0
O689 O 0.7212 0.87821 0.00509 0.0
O690 O 0.72627 0.90908 0.99494 0.0
C691 C 0.75111 0.93935 0.01432 0.0
N692 N 0.76048 0.93149 -0.00083 0.0
C693 C 0.78691 0.95443 0.00274 0.0
C694 C 0.77748 0.96286 0.0183 0.0
C695 C 0.75952 0.95526 0.02413 0.0
C696 C 0.77777 0.93869 0.99344 0.0
H697 H 0.73734 0.93351 0.01888 0.0
C698 C 0.71541 0.89551 0.00185 0.0
O699 O 0.73862 0.84384 0.01903 0.0
O700 O 0.74803 0.87083 0.03426 0.0
N701 N 0.77701 0.91364 0.97091 0.0
C702 C 0.78478 0.90307 0.95642 0.0
C703 C 0.80308 0.90828 0.9494 0.0
C704 C 0.81316 0.92435 0.95728 0.0
C705 C 0.80484 0.93507 0.97211 0.0
C706 C 0.78652 0.92924 0.97848 0.0
H707 H 0.77713 0.89071 0.95028 0.0
O708 O 0.77694 0.86361 0.00681 0.0
O709 O 0.76267 0.89159 0.0008 0.0
O710 O 0.74705 0.86037 0.97845 0.0
O711 O 0.74428 0.88979 0.9645 0.0
C712 C 0.81415 0.9511 0.98105 0.0
C713 C 0.80519 0.96079 0.99634 0.0
H714 H 0.78397 0.97506 0.02598 0.0
H715 H 0.7522 0.96162 0.03619 0.0
H716 H 0.80942 0.8999 0.93797 0.0
H717 H 0.82734 0.92823 0.95191 0.0
H718 H 0.82834 0.95593 0.97644 0.0
H719 H 0.81261 0.97292 0.00326 0.0
Mn720 Mn 0.25342 0.63162 -0.00104 0.0
Mn721 Mn 0.24071 0.5999 0.96443 0.0
C722 C 0.22182 0.62169 0.99604 0.0
C723 C 0.2649 0.63632 0.02934 0.0
C724 C 0.24897 0.64321 0.95789 0.0
O725 O 0.27893 0.62067 0.9903 0.0
O726 O 0.26871 0.59756 0.96962 0.0
C727 C 0.24749 0.56289 0.98499 0.0
N728 N 0.23534 0.57484 0.97537 0.0
C729 C 0.20903 0.5518 0.97879 0.0
C730 C 0.22128 0.5392 0.98862 0.0
C731 C 0.24058 0.54481 0.99178 0.0
C732 C 0.2167 0.56969 0.97244 0.0
H733 H 0.26232 0.56715 0.98751 0.0
C734 C 0.282 0.60624 0.9792 0.0
O735 O 0.26661 0.65008 0.01673 0.0
O736 O 0.257 0.61987 0.02406 0.0
N737 N 0.21381 0.60029 0.9583 0.0
C738 C 0.20377 0.61428 0.94893 0.0
C739 C 0.18417 0.61101 0.94481 0.0
C740 C 0.17515 0.59334 0.95021 0.0
C741 C 0.18584 0.57905 0.95961 0.0
C742 C 0.20534 0.58308 0.96325 0.0
H743 H 0.21066 0.62784 0.94464 0.0
O744 O 0.22609 0.63758 0.00541 0.0
O745 O 0.23622 0.61206 0.98905 0.0
O746 O 0.25162 0.64804 0.97515 0.0
O747 O 0.24555 0.62561 0.95226 0.0
C748 C 0.17788 0.561 0.96559 0.0
C749 C 0.18946 0.5474 0.97521 0.0
H750 H 0.216 0.52523 0.99388 0.0
H751 H 0.2501 0.53521 -0.00056 0.0
H752 H 0.17603 0.62209 0.93749 0.0
H753 H 0.16 0.59092 0.9471 0.0
H754 H 0.16282 0.5575 0.96303 0.0
H755 H 0.18313 0.53366 0.97991 0.0
Mn756 Mn 0.11617 0.51189 0.74664 0.0
Mn757 Mn 0.14922 0.51867 0.78095 0.0
C758 C 0.12607 0.54312 0.75466 0.0
C759 C 0.10977 0.50535 0.71507 0.0
C760 C 0.10703 0.50857 0.78852 0.0
O761 O 0.12735 0.48497 0.74989 0.0
O762 O 0.15139 0.49161 0.7705 0.0
C763 C 0.18471 0.51628 0.75773 0.0
N764 N 0.17334 0.52643 0.76999 0.0
C765 C 0.1956 0.55379 0.77026 0.0
C766 C 0.20769 0.54349 0.75788 0.0
C767 C 0.20218 0.52468 0.75154 0.0
C768 C 0.17844 0.5446 0.77608 0.0
H769 H 0.18044 0.50193 0.75262 0.0
C770 C 0.14218 0.48005 0.75923 0.0
O771 O 0.09703 0.50146 0.7281 0.0
O772 O 0.12609 0.51296 0.72048 0.0
N773 N 0.14889 0.54449 0.79177 0.0
C774 C 0.13514 0.55288 0.80286 0.0
C775 C 0.13811 0.57202 0.80981 0.0
C776 C 0.15519 0.5823 0.80536 0.0
C777 C 0.16919 0.57332 0.79402 0.0
C778 C 0.16551 0.55415 0.78763 0.0
H779 H 0.12198 0.54507 0.80632 0.0
O780 O 0.10991 0.54028 0.74573 0.0
O781 O 0.13603 0.52757 0.75824 0.0
O782 O 0.10142 0.50903 0.77136 0.0
O783 O 0.12462 0.51123 0.79355 0.0
C784 C 0.18652 0.58273 0.78861 0.0
C785 C 0.19972 0.57298 0.77674 0.0
H786 H 0.22111 0.54998 0.75296 0.0
H787 H 0.21133 0.51671 0.74183 0.0
H788 H 0.12724 0.57886 0.81855 0.0
H789 H 0.15736 0.59711 0.81064 0.0
H790 H 0.18975 0.59755 0.79334 0.0
H791 H 0.21289 0.58045 0.77249 0.0
Mn792 Mn 0.24735 0.36771 0.50783 0.0
Mn793 Mn 0.25141 0.40978 0.48351 0.0
C794 C 0.27742 0.38242 0.50467 0.0
C795 C 0.23899 0.35289 0.53632 0.0
C796 C 0.24501 0.36969 0.46502 0.0
O797 O 0.21991 0.37718 0.50546 0.0
O798 O 0.22479 0.40769 0.49424 0.0
C799 C 0.24737 0.43919 0.51424 0.0
N800 N 0.25785 0.43137 0.4998 0.0
C801 C 0.28284 0.45587 0.50377 0.0
C802 C 0.27225 0.46426 0.51859 0.0
C803 C 0.25446 0.45584 0.52389 0.0
C804 C 0.27502 0.43931 0.49464 0.0
H805 H 0.23369 0.43278 0.51836 0.0
C806 C 0.21394 0.39422 0.50136 0.0
O807 O 0.23768 0.34334 0.52037 0.0
O808 O 0.2458 0.37068 0.53568 0.0
N809 N 0.27658 0.41363 0.47286 0.0
C810 C 0.28552 0.40312 0.45899 0.0
C811 C 0.30383 0.40915 0.4526 0.0
C812 C 0.31268 0.42599 0.46038 0.0
C813 C 0.30315 0.43663 0.47454 0.0
C814 C 0.28494 0.42991 0.48037 0.0
H815 H 0.27879 0.39022 0.45289 0.0
O816 O 0.27594 0.36406 0.50937 0.0
O817 O 0.26124 0.39156 0.50243 0.0
O818 O 0.24712 0.35947 0.47995 0.0
O819 O 0.2452 0.38847 0.46515 0.0
C820 C 0.31111 0.45352 0.48324 0.0
C821 C 0.30097 0.46313 0.49784 0.0
H822 H 0.27769 0.47708 0.5261 0.0
H823 H 0.24624 0.46219 0.53537 0.0
H824 H 0.31109 0.40083 0.44168 0.0
H825 H 0.32683 0.43055 0.45545 0.0
H826 H 0.32515 0.45909 0.47898 0.0
H827 H 0.30736 0.47595 0.5046 0.0
Mn828 Mn 0.38169 0.49221 0.2419 0.0
Mn829 Mn 0.34665 0.4906 0.27492 0.0
C830 C 0.36885 0.46209 0.2505 0.0
C831 C 0.39012 0.49852 0.21061 0.0
C832 C 0.38925 0.49657 0.28404 0.0
O833 O 0.37347 0.52055 0.24469 0.0
O834 O 0.34689 0.51683 0.26259 0.0
C835 C 0.31263 0.49322 0.24975 0.0
N836 N 0.3224 0.4838 0.26366 0.0
C837 C 0.297 0.45967 0.26683 0.0
C838 C 0.28655 0.46925 0.2527 0.0
C839 C 0.29446 0.48603 0.24404 0.0
C840 C 0.31507 0.46747 0.27186 0.0
H841 H 0.31869 0.50608 0.24303 0.0
C842 C 0.35824 0.52721 0.25229 0.0
O843 O 0.40249 0.50067 0.2243 0.0
O844 O 0.37301 0.49209 0.21505 0.0
N845 N 0.34426 0.46619 0.28804 0.0
C846 C 0.35662 0.45807 0.3007 0.0
C847 C 0.35107 0.44095 0.31033 0.0
C848 C 0.33279 0.4325 0.30707 0.0
C849 C 0.32025 0.44118 0.29409 0.0
C850 C 0.32655 0.45828 0.28495 0.0
H851 H 0.37059 0.46461 0.30348 0.0
O852 O 0.38507 0.46315 0.24134 0.0
O853 O 0.36006 0.47863 0.25334 0.0
O854 O 0.39566 0.49385 0.2673 0.0
O855 O 0.37124 0.49709 0.28803 0.0
C856 C 0.30183 0.43344 0.2897 0.0
C857 C 0.29029 0.44258 0.27597 0.0
H858 H 0.27253 0.46375 0.24827 0.0
H859 H 0.28655 0.49341 0.23302 0.0
H860 H 0.36082 0.43433 0.32034 0.0
H861 H 0.32856 0.41933 0.31459 0.0
H862 H 0.29648 0.42034 0.29665 0.0
H863 H 0.27631 0.43628 0.27247 0.0
O864 O 0.96118 0.02711 0.97337 0.0
Mg865 Mg 0.96009 0.0293 0.00339 0.0
O866 O 0.98612 0.00695 0.97102 0.0
Mg867 Mg -0.00013 0.0022 0.00082 0.0
O868 O 0.98788 0.03027 0.01169 0.0
O869 O 0.96869 0.05483 0.01822 0.0
O870 O 0.01435 -0.00241 0.03057 0.0
O871 O 0.0265 0.02108 0.99089 0.0
Mg872 Mg 0.04013 0.97756 0.99537 0.0
O873 O 0.01176 0.97404 0.98966 0.0
O874 O 0.04168 0.98146 0.02521 0.0
O875 O 0.04985 0.00216 0.97979 0.0
O876 O 0.03239 0.95082 0.98247 0.0
C877 C 0.95562 0.987 0.01669 0.0
C878 C 0.97249 0.01668 0.96344 0.0
C879 C 0.98553 0.04716 0.01939 0.0
C880 C 0.03002 0.98992 0.03645 0.0
C881 C 0.04272 0.01902 0.98251 0.0
C882 C 0.01492 0.95702 0.98245 0.0
O883 O 0.94853 0.00413 0.01698 0.0
O884 O 0.9727 0.98381 0.01054 0.0
O885 O 0.23837 0.7246 0.29587 0.0
Mg886 Mg 0.22916 0.70187 0.27681 0.0
O887 O 0.24596 0.74793 0.27498 0.0
Mg888 Mg 0.24234 0.73562 0.24504 0.0
O889 O 0.24748 0.70499 0.25495 0.0
O890 O 0.24581 0.67706 0.2703 0.0
O891 O 0.23793 0.72041 0.21616 0.0
O892 O 0.27566 0.73816 0.24164 0.0
Mg893 Mg 0.25139 0.76046 0.21148 0.0
O894 O 0.2365 0.76807 0.23553 0.0
O895 O 0.23751 0.74112 0.19249 0.0
O896 O 0.28099 0.75757 0.21707 0.0
O897 O 0.24207 0.78826 0.21109 0.0
C898 C 0.19674 0.72101 0.25557 0.0
C899 C 0.24416 0.74195 0.292 0.0
C900 C 0.25352 0.68739 0.25702 0.0
C901 C 0.23523 0.72393 0.19874 0.0
C902 C 0.28715 0.74734 0.23064 0.0
C903 C 0.23483 0.78524 0.22767 0.0
O904 O 0.2015 0.70589 0.26482 0.0
O905 O 0.20927 0.73322 0.24932 0.0
O906 O 0.52559 0.97054 0.46456 0.0
Mg907 Mg 0.53671 0.97214 0.49245 0.0
O908 O 0.50562 0.9957 0.46768 0.0
Mg909 Mg 0.5009 0.00293 0.4995 0.0
O910 O 0.51295 0.9739 0.50907 0.0
O911 O 0.53279 0.94889 0.51129 0.0
O912 O 0.49502 0.00993 0.53108 0.0
O913 O 0.47126 0.98783 0.49723 0.0
Mg914 Mg 0.46426 0.03419 0.50446 0.0
O915 O 0.4893 0.03183 0.49009 0.0
O916 O 0.47311 0.03358 0.53342 0.0
O917 O 0.44739 0.00943 0.49553 0.0
O918 O 0.47113 0.05771 0.48629 0.0
C919 C 0.54839 0.01446 0.50127 0.0
C920 C 0.5139 0.98273 0.45752 0.0
C921 C 0.51699 0.95716 0.51638 0.0
C922 C 0.48501 0.02185 0.54092 0.0
C923 C 0.45349 0.99191 0.49507 0.0
C924 C 0.48672 0.04854 0.48221 0.0
O925 O 0.5543 -0.00289 0.49846 0.0
O926 O 0.53047 0.01841 0.50182 0.0
O927 O 0.29671 0.27134 0.74155 0.0
Mg928 Mg 0.28222 0.25938 0.71777 0.0
O929 O 0.27418 0.26337 0.76268 0.0
Mg930 Mg 0.24595 0.25297 0.74766 0.0
O931 O 0.25427 0.2677 0.72025 0.0
O932 O 0.27218 0.27726 0.69605 0.0
O933 O 0.21745 0.24341 0.73232 0.0
O934 O 0.23171 0.28233 0.7563 0.0
Mg935 Mg 0.21128 0.24744 0.77748 0.0
O936 O 0.23835 0.23697 0.77523 0.0
O937 O 0.19494 0.23783 0.75411 0.0
O938 O 0.21215 0.27799 0.78087 0.0
O939 O 0.21868 0.22874 0.7989 0.0
C940 C 0.27214 0.21699 0.72701 0.0
C941 C 0.29093 0.27019 0.75859 0.0
C942 C 0.25571 0.27708 0.70452 0.0
C943 C 0.20021 0.23854 0.73691 0.0
C944 C 0.22025 0.28909 0.76883 0.0
C945 C 0.23527 0.22738 0.79075 0.0
O946 O 0.28196 0.22803 0.71608 0.0
O947 O 0.25991 0.22402 0.73863 0.0
O948 O -0.00126 0.93957 0.50797 0.0
Mg949 Mg 0.00935 0.95236 0.53389 0.0
O950 O 0.99435 0.96643 0.49053 0.0
Mg951 Mg 0.00124 0.99376 0.50842 0.0
O952 O 0.99494 0.97758 0.53449 0.0
O953 O 0.99225 0.95802 0.55866 0.0
O954 O 0.00916 0.01974 0.52856 0.0
O955 O 0.96941 0.00264 0.50801 0.0
Mg956 Mg 0.00081 0.03545 0.49151 0.0
O957 O 0.00721 0.00895 0.48013 0.0
O958 O 0.0219 0.04349 0.5115 0.0
O959 O 0.97172 0.0344 0.50113 0.0
O960 O 0.00759 0.03624 0.46305 0.0
C961 C 0.04457 0.97542 0.51957 0.0
C962 C 0.99418 0.9478 0.49242 0.0
C963 C 0.98758 0.97421 0.55072 0.0
C964 C 0.01905 0.03557 0.52742 0.0
C965 C 0.96188 0.01951 0.50634 0.0
C966 C 0.01055 0.01763 0.46419 0.0
O967 O 0.03836 0.96276 0.53138 0.0
O968 O 0.03321 0.98576 0.50964 0.0
O969 O 0.25939 0.71625 0.77735 0.0
Mg970 Mg 0.26696 0.71437 0.74811 0.0
O971 O 0.24445 0.74503 0.77706 0.0
Mg972 Mg 0.24441 0.75754 0.747 0.0
O973 O 0.27194 0.74247 0.74064 0.0
O974 O 0.29505 0.72087 0.73819 0.0
O975 O 0.24393 0.77062 0.71665 0.0
O976 O 0.2627 0.78354 0.75794 0.0
Mg977 Mg 0.2204 0.80085 0.74723 0.0
O978 O 0.21762 0.77262 0.75453 0.0
O979 O 0.22654 0.79809 0.7178 0.0
O980 O 0.24523 0.81032 0.76301 0.0
O981 O 0.19354 0.79213 0.75996 0.0
C982 C 0.22802 0.71416 0.72909 0.0
C983 C 0.2503 0.72989 0.78576 0.0
C984 C 0.2894 0.73865 0.73611 0.0
C985 C 0.23641 0.78551 0.70868 0.0
C986 C 0.26112 0.80116 0.76391 0.0
C987 C 0.20075 0.77491 0.76139 0.0
O988 O 0.24409 0.70544 0.73015 0.0
O989 O 0.22575 0.73145 0.73579 0.0
O990 O 0.50482 0.97555 0.03822 0.0
Mg991 Mg 0.49547 0.00454 0.03205 0.0
O992 O 0.50549 0.96704 0.00808 0.0
Mg993 Mg 0.50882 -0.00171 -0.00297 0.0
O994 O 0.47848 0.00843 0.00877 0.0
O995 O 0.46782 0.00977 0.03884 0.0
O996 O 0.5132 0.02963 0.98628 0.0
O997 O 0.49155 0.98983 0.97013 0.0
Mg998 Mg 0.53769 0.00026 0.95825 0.0
O999 O 0.53602 0.98854 0.98407 0.0
O1000 O 0.53638 0.03096 0.96435 0.0
O1001 O 0.51206 0.9884 0.9457 0.0
O1002 O 0.56154 0.98296 0.9668 0.0
C1003 C 0.52995 0.01983 0.03462 0.0
C1004 C 0.50676 0.96254 0.02548 0.0
C1005 C 0.46474 0.0118 0.02093 0.0
C1006 C 0.52442 0.0393 0.97538 0.0
C1007 C 0.49518 0.98632 0.95268 0.0
C1008 C 0.55242 0.98034 0.98246 0.0
O1009 O 0.51431 0.02797 0.0389 0.0
O1010 O 0.52967 0.00649 0.02195 0.0
O1011 O 0.25479 0.26055 0.19418 0.0
Mg1012 Mg 0.24157 0.28231 0.21145 0.0
O1013 O 0.25487 0.23721 0.21611 0.0
Mg1014 Mg 0.2483 0.25029 0.24607 0.0
O1015 O 0.25501 0.28113 0.23676 0.0
O1016 O 0.2558 0.30824 0.21992 0.0
O1017 O 0.24219 0.26294 0.27637 0.0
O1018 O 0.2812 0.24868 0.25328 0.0
Mg1019 Mg 0.25915 0.21791 0.27793 0.0
O1020 O 0.24143 0.2191 0.25517 0.0
O1021 O 0.2491 0.23962 0.29719 0.0
O1022 O 0.28802 0.22134 0.26869 0.0
O1023 O 0.24338 0.19233 0.27266 0.0
C1024 C 0.20483 0.26427 0.22855 0.0
C1025 C 0.25752 0.24286 0.19906 0.0
C1026 C 0.26092 0.29898 0.23491 0.0
C1027 C 0.24329 0.25681 0.29345 0.0
C1028 C 0.2934 0.23687 0.26032 0.0
C1029 C 0.23587 0.20132 0.25851 0.0
O1030 O 0.21213 0.27735 0.21786 0.0
O1031 O 0.21534 0.25302 0.2386 0.0
O1032 O 0.47332 0.52937 0.00061 0.0
Mg1033 Mg 0.50259 0.52557 0.99232 0.0
O1034 O 0.46781 0.49765 0.00458 0.0
Mg1035 Mg 0.49918 0.48859 0.00863 0.0
O1036 O 0.50836 0.49998 0.97865 0.0
O1037 O 0.50843 0.52935 0.96442 0.0
O1038 O 0.53061 0.47965 0.01337 0.0
O1039 O 0.49289 0.46041 0.99228 0.0
Mg1040 Mg 0.50302 0.44842 0.03641 0.0
O1041 O 0.49011 0.47475 0.03535 0.0
O1042 O 0.53287 0.45652 0.03548 0.0
O1043 O 0.49332 0.43407 0.01084 0.0
O1044 O 0.48526 0.45618 0.06001 0.0
C1045 C 0.51794 0.52992 0.02692 0.0
C1046 C 0.46177 0.51514 0.00356 0.0
C1047 C 0.51149 0.51072 0.96378 0.0
C1048 C 0.54062 0.46877 0.02414 0.0
C1049 C 0.49099 0.44197 0.99467 0.0
C1050 C 0.48206 0.47243 0.05147 0.0
O1051 O 0.52456 0.53449 0.0109 0.0
O1052 O 0.50565 0.51593 0.028 0.0
O1053 O 0.77504 0.23285 0.2877 0.0
Mg1054 Mg 0.77852 0.22176 0.25996 0.0
O1055 O 0.74989 0.25132 0.28042 0.0
Mg1056 Mg 0.74781 0.25632 0.24784 0.0
O1057 O 0.77817 0.24552 0.24292 0.0
O1058 O 0.80418 0.22732 0.24538 0.0
O1059 O 0.74444 0.26182 0.215 0.0
O1060 O 0.76158 0.28617 0.25263 0.0
Mg1061 Mg 0.71832 0.29394 0.23986 0.0
O1062 O 0.71833 0.26804 0.25376 0.0
O1063 O 0.72208 0.28485 0.21141 0.0
O1064 O 0.74153 0.31126 0.25159 0.0
O1065 O 0.69268 0.28668 0.25449 0.0
C1066 C 0.73922 0.20778 0.24465 0.0
C1067 C 0.76113 0.2437 0.29259 0.0
C1068 C 0.79587 0.24241 0.23828 0.0
C1069 C 0.73354 0.27226 0.20447 0.0
C1070 C 0.75826 0.30438 0.25442 0.0
C1071 C 0.70102 0.27079 0.25959 0.0
O1072 O 0.75595 0.20279 0.2501 0.0
O1073 O 0.73439 0.22573 0.24346 0.0
O1074 O 0.00438 0.47801 0.53914 0.0
Mg1075 Mg -0.00114 0.50819 0.5326 0.0
O1076 O 0.00359 0.46953 0.50893 0.0
Mg1077 Mg 0.01017 0.49998 0.49737 0.0
O1078 O 0.98136 0.51302 0.50989 0.0
O1079 O 0.97244 0.51744 0.54019 0.0
O1080 O 0.01708 0.53059 0.48585 0.0
O1081 O 0.99138 0.4928 0.47098 0.0
Mg1082 Mg 0.03785 0.49863 0.45751 0.0
O1083 O 0.03586 0.48788 0.48371 0.0
O1084 O 0.03867 0.52973 0.46241 0.0
O1085 O 0.01105 0.48831 0.44622 0.0
O1086 O 0.06065 0.47994 0.46641 0.0
C1087 C 0.03486 0.5199 0.53336 0.0
C1088 C 0.00404 0.46489 0.52632 0.0
C1089 C 0.96863 0.51853 0.52235 0.0
C1090 C 0.02806 0.53921 0.47393 0.0
C1091 C 0.99425 0.48818 0.45361 0.0
C1092 C 0.05166 0.4786 0.48229 0.0
O1093 O 0.02025 0.52982 0.53749 0.0
O1094 O 0.03284 0.50582 0.52162 0.0
O1095 O 0.70647 0.77638 0.27106 0.0
Mg1096 Mg 0.70673 0.74518 0.26969 0.0
O1097 O 0.73212 0.78167 0.25273 0.0
Mg1098 Mg 0.74617 0.7524 0.24503 0.0
O1099 O 0.73478 0.73747 0.27164 0.0
O1100 O 0.71318 0.72812 0.29302 0.0
O1101 O 0.75993 0.72322 0.23683 0.0
O1102 O 0.77299 0.7613 0.2628 0.0
Mg1103 Mg 0.78587 0.75851 0.2185 0.0
O1104 O 0.75807 0.76707 0.21908 0.0
O1105 O 0.78407 0.72721 0.21632 0.0
O1106 O 0.79779 0.76931 0.24416 0.0
O1107 O 0.77759 0.77728 0.1965 0.0
C1108 C 0.70289 0.73564 0.22855 0.0
C1109 C 0.71796 0.78797 0.26244 0.0
C1110 C 0.73078 0.72834 0.28716 0.0
C1111 C 0.77286 0.7162 0.22597 0.0
C1112 C 0.79024 0.7677 0.2605 0.0
C1113 C 0.76055 0.77688 0.20376 0.0
O1114 O 0.69549 0.7324 0.24468 0.0
O1115 O 0.71953 0.74366 0.22676 0.0
O1116 O 0.74161 0.22826 0.799 0.0
Mg1117 Mg 0.73337 0.20412 0.7812 0.0
O1118 O 0.74702 0.25076 0.77674 0.0
Mg1119 Mg 0.74442 0.23636 0.74726 0.0
O1120 O 0.75108 0.20667 0.75867 0.0
O1121 O 0.75087 0.17967 0.77553 0.0
O1122 O 0.74167 0.21887 0.71891 0.0
O1123 O 0.7775 0.24111 0.74339 0.0
Mg1124 Mg 0.74989 0.25911 0.71269 0.0
O1125 O 0.73647 0.26812 0.73688 0.0
O1126 O 0.73518 0.23877 0.69555 0.0
O1127 O 0.77991 0.25768 0.71656 0.0
O1128 O 0.73994 0.28656 0.71082 0.0
C1129 C 0.6996 0.21994 0.7591 0.0
C1130 C 0.74585 0.24577 0.79412 0.0
C1131 C 0.75768 0.18939 0.76139 0.0
C1132 C 0.73653 0.22159 0.70186 0.0
C1133 C 0.78763 0.24969 0.73077 0.0
C1134 C 0.73382 0.28458 0.72798 0.0
O1135 O 0.70511 0.20617 0.76982 0.0
O1136 O 0.71156 0.23192 0.75152 0.0
O1137 O 0.74688 0.7545 0.69493 0.0
Mg1138 Mg 0.73667 0.77842 0.71151 0.0
O1139 O 0.75488 0.73406 0.71812 0.0
Mg1140 Mg 0.74852 0.74949 0.74703 0.0
O1141 O 0.75361 0.77958 0.73471 0.0
O1142 O 0.75161 0.80497 0.71561 0.0
O1143 O 0.74176 0.76543 0.77565 0.0
O1144 O 0.78158 0.74951 0.75395 0.0
Mg1145 Mg 0.75799 0.72217 0.78396 0.0
O1146 O 0.74368 0.71902 0.75914 0.0
O1147 O 0.74343 0.74432 0.79953 0.0
O1148 O 0.78713 0.72785 0.77679 0.0
O1149 O 0.74582 0.69451 0.77942 0.0
C1150 C 0.70309 0.76055 0.73224 0.0
C1151 C 0.75321 0.73807 0.70052 0.0
C1152 C 0.7587 0.79731 0.73068 0.0
C1153 C 0.73954 0.7612 0.79313 0.0
C1154 C 0.79312 0.74017 0.76466 0.0
C1155 C 0.73944 0.70113 0.76359 0.0
O1156 O 0.70839 0.77472 0.72182 0.0
O1157 O 0.71523 0.74944 0.74043 0.0
O1158 O 0.55376 0.5029 0.49329 0.0
Mg1159 Mg 0.53893 0.48167 0.50974 0.0
O1160 O 0.52889 0.52299 0.49485 0.0
Mg1161 Mg 0.49994 0.50612 0.50086 0.0
O1162 O 0.51294 0.47593 0.49753 0.0
O1163 O 0.53501 0.4529 0.5005 0.0
O1164 O 0.46979 0.49074 0.50573 0.0
O1165 O 0.49437 0.50552 0.46793 0.0
Mg1166 Mg 0.46534 0.53643 0.48625 0.0
O1167 O 0.48736 0.53574 0.50446 0.0
O1168 O 0.44807 0.51214 0.49526 0.0
O1169 O 0.47811 0.53206 0.45942 0.0
O1170 O 0.47014 0.56241 0.5022 0.0
C1171 C 0.51927 0.49995 0.54442 0.0
C1172 C 0.54661 0.51979 0.49116 0.0
C1173 C 0.51826 0.45809 0.49457 0.0
C1174 C 0.4523 0.4955 0.5022 0.0
C1175 C 0.48758 0.51681 0.45517 0.0
C1176 C 0.48423 0.55337 0.51 0.0
O1177 O 0.53325 0.48999 0.53807 0.0
O1178 O 0.50605 0.50659 0.53363 0.0
O1179 O 0.02114 0.46445 0.96316 0.0
Mg1180 Mg 0.03387 0.4663 0.99032 0.0
O1181 O 0.00565 0.49244 0.96737 0.0
Mg1182 Mg 0.00117 0.49956 -0.00065 0.0
O1183 O 0.01234 0.47041 0.00923 0.0
O1184 O 0.03069 0.44424 0.01055 0.0
O1185 O -0.00434 0.50655 0.03125 0.0
O1186 O 0.97149 0.48496 -0.00358 0.0
Mg1187 Mg 0.96549 0.53081 0.00534 0.0
O1188 O 0.99007 0.52889 0.98983 0.0
O1189 O 0.97464 0.53092 0.03399 0.0
O1190 O 0.94769 0.50648 -0.00306 0.0
O1191 O 0.97122 0.55463 0.98754 0.0
C1192 C 0.0488 0.50823 -0.00119 0.0
C1193 C 0.01168 0.47871 0.95657 0.0
C1194 C 0.01642 0.45404 0.01723 0.0
C1195 C 0.98626 0.51884 0.0413 0.0
C1196 C 0.95366 0.489 0.99505 0.0
C1197 C 0.98664 0.54569 0.98238 0.0
O1198 O 0.05277 0.49062 0.99435 0.0
O1199 O 0.0315 0.51382 0.00157 0.0
C1200 C 0.98987 0.18062 0.11601 0.0
C1201 C -0.00392 0.1975 0.10647 0.0
C1202 C 0.99513 0.16206 0.10947 0.0
C1203 C 0.02776 0.13658 0.07466 0.0
H1204 H 0.98842 0.09594 0.0785 0.0
C1205 C 0.00759 0.07559 0.02197 0.0
C1206 C 0.00088 0.05776 0.02942 0.0
C1207 C 0.01545 0.08994 0.03395 0.0
C1208 C -0.00021 0.10696 0.07771 0.0
H1209 H 0.01433 0.20851 0.08397 0.0
H1210 H 0.02214 0.1763 0.07137 0.0
H1211 H 0.98355 0.12708 0.09415 0.0
H1212 H -0.00108 0.0398 0.0545 0.0
H1213 H 0.01224 0.06514 0.07566 0.0
H1214 H 0.04292 0.11665 0.0564 0.0
C1215 C 0.01341 0.17709 0.08405 0.0
C1216 C -0.00298 0.12493 0.08674 0.0
C1217 C 0.00849 0.19562 0.09091 0.0
C1218 C 0.00421 0.05345 0.0485 0.0
C1219 C 0.01175 0.06793 0.06058 0.0
C1220 C 0.03027 0.11869 0.06517 0.0
C1221 C 0.00666 0.15999 0.09313 0.0
C1222 C 0.01077 0.14017 0.08508 0.0
C1223 C 0.01618 0.08671 0.05355 0.0
C1224 C 0.01613 0.10387 0.06642 0.0
H1225 H 0.98092 0.18179 0.12854 0.0
H1226 H 0.99016 0.14938 0.11731 0.0
H1227 H 0.03894 0.14771 0.07339 0.0
H1228 H 0.00493 0.07919 0.00728 0.0
H1229 H 0.01867 0.10432 0.02821 0.0
C1230 C 0.061 0.75582 0.35097 0.0
C1231 C 0.04524 0.74282 0.34908 0.0
C1232 C 0.07713 0.75381 0.3393 0.0
C1233 C 0.10363 0.71964 0.30979 0.0
H1234 H 0.11669 0.76475 0.27881 0.0
C1235 C 0.16213 0.71167 0.25519 0.0
C1236 C 0.17635 0.72642 0.25609 0.0
C1237 C 0.14385 0.71501 0.26266 0.0
C1238 C 0.1133 0.75207 0.28741 0.0
H1239 H 0.0344 0.71679 0.33467 0.0
H1240 H 0.0629 0.71289 0.31471 0.0
H1241 H 0.09127 0.76729 0.3027 0.0
H1242 H 0.18223 0.75684 0.26329 0.0
H1243 H 0.15064 0.7625 0.27705 0.0
H1244 H 0.12594 0.70453 0.29528 0.0
C1245 C 0.06261 0.72482 0.32492 0.0
C1246 C 0.09883 0.75357 0.30111 0.0
C1247 C 0.04634 0.72706 0.33628 0.0
C1248 C 0.17142 0.74525 0.26241 0.0
C1249 C 0.15328 0.74846 0.27035 0.0
C1250 C 0.11823 0.71821 0.29633 0.0
C1251 C 0.07784 0.73851 0.32594 0.0
C1252 C 0.09388 0.73733 0.31232 0.0
C1253 C 0.13978 0.73294 0.27169 0.0
C1254 C 0.12318 0.73436 0.28487 0.0
H1255 H 0.06045 0.76811 0.36074 0.0
H1256 H 0.08887 0.7644 0.34043 0.0
H1257 H 0.10011 0.70699 0.31841 0.0
H1258 H 0.16563 0.69709 0.25014 0.0
H1259 H 0.13347 0.70301 0.26276 0.0
C1260 C 0.48946 0.81457 0.59906 0.0
C1261 C 0.47873 0.79924 0.5906 0.0
C1262 C 0.48747 0.83388 0.59289 0.0
C1263 C 0.47333 0.86194 0.55107 0.0
H1264 H 0.47862 0.90615 0.58557 0.0
C1265 C 0.48691 0.93813 0.52138 0.0
C1266 C 0.50375 0.94659 0.52894 0.0
C1267 C 0.47726 0.92311 0.53107 0.0
C1268 C 0.47697 0.89397 0.57577 0.0
H1269 H 0.45712 0.7924 0.56921 0.0
H1270 H 0.45364 0.82607 0.55855 0.0
H1271 H 0.4748 0.87302 0.59819 0.0
H1272 H 0.52337 0.94696 0.55269 0.0
H1273 H 0.50665 0.92082 0.56975 0.0
H1274 H 0.47633 0.88265 0.52867 0.0
C1275 C 0.46376 0.8231 0.56982 0.0
C1276 C 0.47489 0.87499 0.58298 0.0
C1277 C 0.46578 0.80377 0.57596 0.0
C1278 C 0.51013 0.94086 0.54685 0.0
C1279 C 0.50051 0.92591 0.55659 0.0
C1280 C 0.47538 0.88088 0.54387 0.0
C1281 C 0.47466 0.83837 0.57814 0.0
C1282 C 0.47374 0.8587 0.57069 0.0
C1283 C 0.48453 0.9162 0.54837 0.0
C1284 C 0.47793 0.89704 0.55613 0.0
H1285 H 0.49955 0.81167 0.61037 0.0
H1286 H 0.49636 0.84522 0.59938 0.0
H1287 H 0.47263 0.84975 0.54118 0.0
H1288 H 0.48221 0.94193 0.50725 0.0
H1289 H 0.46492 0.91602 0.52444 0.0
C1290 C 0.4195 0.24999 0.87339 0.0
C1291 C 0.437 0.25142 0.86338 0.0
C1292 C 0.40195 0.25195 0.86393 0.0
C1293 C 0.38301 0.27885 0.8249 0.0
H1294 H 0.33884 0.24344 0.82512 0.0
C1295 C 0.32379 0.28061 0.76919 0.0
C1296 C 0.30495 0.2745 0.77385 0.0
C1297 C 0.33829 0.28063 0.7828 0.0
C1298 C 0.35088 0.25371 0.82532 0.0
H1299 H 0.44981 0.25468 0.83548 0.0
H1300 H 0.41918 0.25843 0.81912 0.0
H1301 H 0.36771 0.23516 0.84319 0.0
H1302 H 0.28605 0.26606 0.79693 0.0
H1303 H 0.31157 0.26583 0.82081 0.0
H1304 H 0.36643 0.29743 0.80708 0.0
C1305 C 0.4191 0.25581 0.83424 0.0
C1306 C 0.36741 0.24886 0.83549 0.0
C1307 C 0.43659 0.25353 0.8436 0.0
C1308 C 0.30055 0.27022 0.79282 0.0
C1309 C 0.31513 0.27011 0.80647 0.0
C1310 C 0.36647 0.28382 0.81494 0.0
C1311 C 0.40174 0.25568 0.84443 0.0
C1312 C 0.38373 0.26116 0.83491 0.0
C1313 C 0.33428 0.27459 0.80139 0.0
C1314 C 0.35042 0.27106 0.8146 0.0
H1315 H 0.4194 0.2482 0.88862 0.0
H1316 H 0.38865 0.25169 0.87199 0.0
H1317 H 0.39537 0.28874 0.82462 0.0
H1318 H 0.32766 0.28431 0.75477 0.0
H1319 H 0.35289 0.28412 0.77838 0.0
C1320 C 0.98348 0.82357 0.37128 0.0
C1321 C 0.99403 0.8098 0.38153 0.0
C1322 C 0.98445 0.84344 0.37631 0.0
C1323 C 0.01226 0.87895 0.40625 0.0
H1324 H 0.96199 0.89925 0.4196 0.0
C1325 C -0.0033 0.91568 0.47571 0.0
C1326 C 0.9911 0.93541 0.47546 0.0
C1327 C -0.00316 0.90467 0.45908 0.0
C1328 C 0.97611 0.89408 0.4155 0.0
H1329 H 0.01538 0.80572 0.40342 0.0
H1330 H 0.01694 0.84009 0.41249 0.0
H1331 H 0.96433 0.87186 0.39725 0.0
H1332 H 0.98018 0.95874 0.45773 0.0
H1333 H 0.97989 0.93896 0.42854 0.0
H1334 H 0.02386 0.9001 0.42579 0.0
C1335 C 0.00783 0.83588 0.40066 0.0
C1336 C 0.97749 0.87844 0.40271 0.0
C1337 C 0.0067 0.81614 0.39575 0.0
C1338 C 0.98462 0.94357 0.45835 0.0
C1339 C 0.98449 0.93237 0.44168 0.0
C1340 C 0.01087 0.89447 0.41906 0.0
C1341 C -0.00358 0.84972 0.39129 0.0
C1342 C 0.99549 0.8699 0.39903 0.0
C1343 C 0.99112 0.91306 0.44194 0.0
C1344 C 0.99272 0.90134 0.42452 0.0
H1345 H 0.97398 0.81885 0.35991 0.0
H1346 H 0.97557 0.8538 0.36882 0.0
H1347 H 0.02636 0.87299 0.40326 0.0
H1348 H 0.00182 0.90892 0.48859 0.0
H1349 H 0.00176 0.88964 0.45951 0.0
C1350 C 0.41599 0.75348 0.63469 0.0
C1351 C 0.43483 0.75242 0.64193 0.0
C1352 C 0.40064 0.75861 0.64652 0.0
C1353 C 0.38616 0.75684 0.69603 0.0
H1354 H 0.345 0.7912 0.68036 0.0
C1355 C 0.31946 0.75777 0.74028 0.0
C1356 C 0.30299 0.75359 0.72946 0.0
C1357 C 0.33572 0.76612 0.73179 0.0
C1358 C 0.35642 0.78165 0.68497 0.0
H1359 H 0.45226 0.75591 0.66734 0.0
H1360 H 0.42553 0.76461 0.68784 0.0
H1361 H 0.37353 0.78745 0.66024 0.0
H1362 H 0.28949 0.75651 0.70209 0.0
H1363 H 0.31813 0.77022 0.68685 0.0
H1364 H 0.36895 0.75 0.72007 0.0
C1365 C 0.42264 0.76153 0.67304 0.0
C1366 C 0.37269 0.77946 0.67343 0.0
C1367 C 0.43795 0.75653 0.66125 0.0
C1368 C 0.30213 0.75976 0.71063 0.0
C1369 C 0.31857 0.76766 0.70196 0.0
C1370 C 0.36993 0.75889 0.70744 0.0
C1371 C 0.40384 0.76262 0.66582 0.0
C1372 C 0.38748 0.76667 0.67868 0.0
C1373 C 0.33595 0.76961 0.71217 0.0
C1374 C 0.35461 0.77093 0.70186 0.0
H1375 H 0.41311 0.75053 0.61987 0.0
H1376 H 0.38622 0.75906 0.64065 0.0
H1377 H 0.39722 0.74671 0.70036 0.0
H1378 H 0.32027 0.75315 0.75492 0.0
H1379 H 0.34867 0.7681 0.74021 0.0
C1380 C 0.49354 0.21032 0.93573 0.0
C1381 C 0.49299 0.21064 0.91583 0.0
C1382 C 0.49735 0.1929 0.94525 0.0
C1383 C 0.52006 0.14517 0.93669 0.0
H1384 H 0.49451 0.1295 0.98316 0.0
C1385 C 0.53877 0.07236 0.9697 0.0
C1386 C 0.52283 0.06073 0.97485 0.0
C1387 C 0.53665 0.09243 0.96691 0.0
C1388 C 0.50176 0.13369 0.97019 0.0
H1389 H 0.49471 0.19283 0.89035 0.0
H1390 H 0.50073 0.16239 0.90693 0.0
H1391 H 0.48625 0.16061 0.96838 0.0
H1392 H 0.49251 0.06091 0.98238 0.0
H1393 H 0.4885 0.09575 0.9765 0.0
H1394 H 0.53471 0.11798 0.93766 0.0
C1395 C 0.49896 0.17569 0.91518 0.0
C1396 C 0.49715 0.15157 0.96182 0.0
C1397 C 0.49542 0.1931 0.90568 0.0
C1398 C 0.50501 0.06961 0.97831 0.0
C1399 C 0.50277 0.08962 0.9751 0.0
C1400 C 0.52451 0.12731 0.9449 0.0
C1401 C 0.50047 0.17549 0.93502 0.0
C1402 C 0.506 0.15726 0.94477 0.0
C1403 C 0.51842 0.1011 0.9687 0.0
C1404 C 0.51523 0.1212 0.96158 0.0
H1405 H 0.49169 0.22365 0.94393 0.0
H1406 H 0.49848 0.1932 0.96055 0.0
H1407 H 0.52747 0.14935 0.9238 0.0
H1408 H 0.55277 0.06587 0.96738 0.0
H1409 H 0.54913 0.10099 0.96256 0.0
C1410 C 0.05753 0.25413 0.14579 0.0
C1411 C 0.03939 0.25817 0.15366 0.0
C1412 C 0.07392 0.25339 0.15728 0.0
C1413 C 0.09308 0.26885 0.20398 0.0
H1414 H 0.13202 0.23018 0.19243 0.0
C1415 C 0.17225 0.27822 0.22443 0.0
C1416 C 0.18365 0.26178 0.22805 0.0
C1417 C 0.15281 0.27599 0.21987 0.0
C1418 C 0.12114 0.24082 0.19612 0.0
H1419 H 0.02427 0.26497 0.17973 0.0
H1420 H 0.05282 0.26355 0.19979 0.0
H1421 H 0.10187 0.23002 0.1747 0.0
H1422 H 0.18341 0.23016 0.23099 0.0
H1423 H 0.14913 0.22618 0.22286 0.0
H1424 H 0.11242 0.27972 0.22531 0.0
C1425 C 0.05445 0.26113 0.18471 0.0
C1426 C 0.10398 0.24095 0.18572 0.0
C1427 C 0.03807 0.26196 0.1732 0.0
C1428 C 0.17491 0.24308 0.22831 0.0
C1429 C 0.15536 0.24081 0.22349 0.0
C1430 C 0.11022 0.26869 0.21439 0.0
C1431 C 0.07254 0.25658 0.17693 0.0
C1432 C 0.08997 0.25531 0.18917 0.0
C1433 C 0.14427 0.25724 0.21865 0.0
C1434 C 0.12469 0.25504 0.21022 0.0
H1435 H 0.05905 0.25118 0.13077 0.0
H1436 H 0.08769 0.2503 0.15072 0.0
H1437 H 0.08265 0.28013 0.20703 0.0
H1438 H 0.17861 0.29281 0.22422 0.0
H1439 H 0.14482 0.28895 0.21607 0.0
C1440 C 0.07768 0.98255 0.20479 0.0
C1441 C 0.09764 0.98597 0.20659 0.0
C1442 C 0.06896 0.98216 0.1869 0.0
C1443 C 0.07949 0.97534 0.1362 0.0
H1444 H 0.03383 0.00643 0.12763 0.0
C1445 C 0.05548 0.99232 0.06107 0.0
C1446 C 0.03576 0.99142 0.0566 0.0
C1447 C 0.06164 0.99195 0.07981 0.0
C1448 C 0.0464 -0.00254 0.12984 0.0
H1449 H 0.12417 0.99117 0.19103 0.0
H1450 H 0.10904 0.99024 0.15989 0.0
H1451 H 0.04722 0.00398 0.15961 0.0
H1452 H 0.00691 0.9904 0.06833 0.0
H1453 H 0.01773 0.98916 0.10145 0.0
H1454 H 0.07877 0.96865 0.10666 0.0
C1455 C 0.1001 0.98785 0.17228 0.0
C1456 C 0.05408 -0.00393 0.14814 0.0
C1457 C 0.10878 0.98841 0.19013 0.0
C1458 C 0.02221 0.99101 0.0714 0.0
C1459 C 0.02843 0.99035 0.09033 0.0
C1460 C 0.07177 0.9766 0.11802 0.0
C1461 C 0.08007 0.98496 0.17046 0.0
C1462 C 0.07091 0.98527 0.15143 0.0
C1463 C 0.04828 0.99032 0.0947 0.0
C1464 C 0.05538 0.98801 0.11448 0.0
H1465 H 0.06869 0.98068 0.21721 0.0
H1466 H 0.05352 0.97971 0.18593 0.0
H1467 H 0.09224 0.9666 0.13834 0.0
H1468 H 0.06628 0.99313 0.04999 0.0
H1469 H 0.07699 0.9927 0.08261 0.0
C1470 C 0.26092 0.86842 0.4154 0.0
C1471 C 0.2544 0.86082 0.43277 0.0
C1472 C 0.25982 0.85701 0.39894 0.0
C1473 C 0.23488 0.81369 0.37891 0.0
H1474 H 0.27976 0.80959 0.34633 0.0
C1475 C 0.2431 0.75069 0.32631 0.0
C1476 C 0.24773 0.75591 0.30763 0.0
C1477 C 0.24462 0.76448 0.34085 0.0
C1478 C 0.26709 0.81078 0.35523 0.0
H1479 H 0.24144 0.83534 0.44639 0.0
H1480 H 0.23974 0.81556 0.41787 0.0
H1481 H 0.28018 0.83283 0.3729 0.0
H1482 H 0.2585 0.77941 0.28967 0.0
H1483 H 0.26124 0.80349 0.31527 0.0
H1484 H 0.22194 0.79137 0.36157 0.0
C1485 C 0.24547 0.83038 0.4169 0.0
C1486 C 0.26729 0.82409 0.37033 0.0
C1487 C 0.24658 0.84171 0.43328 0.0
C1488 C 0.25473 0.77497 0.30392 0.0
C1489 C 0.25637 0.78873 0.31853 0.0
C1490 C 0.23472 0.80036 0.36393 0.0
C1491 C 0.2521 0.83788 0.39959 0.0
C1492 C 0.25129 0.82538 0.38248 0.0
C1493 C 0.25091 0.78369 0.33701 0.0
C1494 C 0.25093 0.79857 0.35219 0.0
H1495 H 0.26704 0.88309 0.41453 0.0
H1496 H 0.26492 0.86315 0.38571 0.0
H1497 H 0.22222 0.81467 0.38785 0.0
H1498 H 0.23778 0.73611 0.32967 0.0
H1499 H 0.24063 0.7602 0.35509 0.0
C1500 C 0.41964 0.02261 0.70026 0.0
C1501 C 0.40575 0.00752 0.70175 0.0
C1502 C 0.43063 0.02462 0.6838 0.0
C1503 C 0.45197 -0.00262 0.64591 0.0
H1504 H 0.44969 0.0448 0.61606 0.0
C1505 C 0.48052 0.00142 0.56948 0.0
C1506 C 0.48448 0.01985 0.56159 0.0
C1507 C 0.47445 -4e-05 0.58829 0.0
C1508 C 0.45104 0.03163 0.62442 0.0
H1509 H 0.3923 0.9828 0.68723 0.0
H1510 H 0.41199 0.98606 0.65854 0.0
H1511 H 0.43121 0.04242 0.64521 0.0
H1512 H 0.48737 0.05093 0.56733 0.0
H1513 H 0.47845 0.04834 0.60064 0.0
H1514 H 0.4722 0.98667 0.62563 0.0
C1515 C 0.41417 -0.00364 0.6701 0.0
C1516 C 0.4402 0.03024 0.64101 0.0
C1517 C 0.40286 0.99461 0.68641 0.0
C1518 C 0.48422 0.03658 0.57318 0.0
C1519 C 0.4788 0.03507 0.59216 0.0
C1520 C 0.46321 -0.00108 0.62954 0.0
C1521 C 0.4282 0.01131 0.66876 0.0
C1522 C 0.44033 0.013 0.65168 0.0
C1523 C 0.47272 0.0169 0.59968 0.0
C1524 C 0.46265 0.01595 0.61834 0.0
H1525 H 0.42211 0.03277 0.71188 0.0
H1526 H 0.44136 0.03628 0.68297 0.0
H1527 H 0.45241 0.98402 0.65413 0.0
H1528 H 0.48044 0.98833 0.56068 0.0
H1529 H 0.46982 0.9857 0.59334 0.0
C1530 C 0.25683 0.15758 0.93182 0.0
C1531 C 0.26207 0.13805 0.93488 0.0
C1532 C 0.26165 0.16688 0.91482 0.0
C1533 C 0.27458 0.15438 0.86517 0.0
H1534 H 0.27685 0.211 0.86106 0.0
C1535 C 0.24389 0.195 0.80295 0.0
C1536 C 0.24953 0.21438 0.7992 0.0
C1537 C 0.25333 0.18424 0.81677 0.0
C1538 C 0.27679 0.19514 0.86184 0.0
H1539 H 0.27755 0.11333 0.92329 0.0
H1540 H 0.28683 0.12976 0.89411 0.0
H1541 H 0.27859 0.19593 0.89206 0.0
H1542 H 0.27033 0.23727 0.80558 0.0
H1543 H 0.28739 0.21833 0.8296 0.0
H1544 H 0.27291 0.15359 0.83496 0.0
C1545 C 0.27828 0.13773 0.90433 0.0
C1546 C 0.27738 0.18648 0.87973 0.0
C1547 C 0.27305 0.12831 0.92111 0.0
C1548 C 0.266 0.22222 0.80806 0.0
C1549 C 0.2755 0.21146 0.82202 0.0
C1550 C 0.27433 0.16301 0.84729 0.0
C1551 C 0.2722 0.15697 0.90069 0.0
C1552 C 0.27534 0.16602 0.8817 0.0
C1553 C 0.26855 0.19274 0.82728 0.0
C1554 C 0.27441 0.18353 0.84544 0.0
H1555 H 0.2483 0.16538 0.94221 0.0
H1556 H 0.25636 0.18155 0.91251 0.0
H1557 H 0.27294 0.13859 0.86594 0.0
H1558 H 0.23106 0.18877 0.79638 0.0
H1559 H 0.24737 0.17 0.82041 0.0
C1560 C 0.11275 0.98648 0.33128 0.0
C1561 C 0.10477 0.99522 0.31517 0.0
C1562 C 0.10137 0.98273 0.34722 0.0
C1563 C 0.04996 0.98202 0.36411 0.0
H1564 H 0.07392 0.99135 0.41298 0.0
C1565 C 0.01266 0.01395 0.42927 0.0
C1566 C 0.01721 0.00684 0.44732 0.0
C1567 C 0.02127 0.00602 0.41317 0.0
C1568 C 0.06709 0.98823 0.39948 0.0
H1569 H 0.07867 0.00695 0.30308 0.0
H1570 H 0.05905 0.00157 0.3312 0.0
H1571 H 0.09375 0.9911 0.38464 0.0
H1572 H 0.0333 0.98505 0.46272 0.0
H1573 H 0.04907 0.97157 0.43436 0.0
H1574 H 0.02305 0.98079 0.37913 0.0
C1575 C 0.07388 -0.00319 0.33139 0.0
C1576 C 0.07846 0.98809 0.38315 0.0
C1577 C 0.08518 0.00013 0.3153 0.0
C1578 C 0.02962 0.9908 0.44893 0.0
C1579 C 0.03863 0.98313 0.43277 0.0
C1580 C 0.03855 0.98252 0.38044 0.0
C1581 C 0.08181 0.98806 0.34762 0.0
C1582 C 0.07 0.98556 0.36516 0.0
C1583 C 0.03488 0.99107 0.41481 0.0
C1584 C 0.04698 0.98616 0.39821 0.0
H1585 H 0.12776 0.98222 0.33143 0.0
H1586 H 0.10795 0.9756 0.35921 0.0
H1587 H 0.04294 0.97943 0.35062 0.0
H1588 H 0.00299 0.02619 0.42763 0.0
H1589 H 0.01824 0.01252 0.39954 0.0
C1590 C 0.23884 0.85598 0.5564 0.0
C1591 C 0.23863 0.84571 0.53915 0.0
C1592 C 0.23632 0.846 0.5734 0.0
C1593 C 0.24496 0.79981 0.59612 0.0
H1594 H 0.21162 0.82141 0.63488 0.0
C1595 C 0.23924 0.77309 0.67519 0.0
C1596 C 0.23899 0.78874 0.68824 0.0
C1597 C 0.23855 0.77686 0.65569 0.0
C1598 C 0.22098 0.81518 0.62419 0.0
H1599 H 0.2354 0.81699 0.52602 0.0
H1600 H 0.23133 0.79942 0.55602 0.0
H1601 H 0.20996 0.83395 0.60273 0.0
H1602 H 0.23973 0.8204 0.69132 0.0
H1603 H 0.23898 0.82691 0.6576 0.0
H1604 H 0.25659 0.78163 0.618 0.0
C1605 C 0.23331 0.81521 0.55625 0.0
C1606 C 0.21997 0.82231 0.60582 0.0
C1607 C 0.23552 0.82527 0.53915 0.0
C1608 C 0.23948 0.80807 0.68156 0.0
C1609 C 0.23896 0.8118 0.66227 0.0
C1610 C 0.24605 0.79269 0.61466 0.0
C1611 C 0.23378 0.82552 0.5735 0.0
C1612 C 0.23241 0.81522 0.59179 0.0
C1613 C 0.23771 0.79629 0.64917 0.0
C1614 C 0.23458 0.80091 0.62898 0.0
H1615 H 0.24122 0.87171 0.55681 0.0
H1616 H 0.23694 0.85425 0.58655 0.0
H1617 H 0.25471 0.79414 0.58548 0.0
H1618 H 0.23893 0.75805 0.68006 0.0
H1619 H 0.23778 0.76466 0.64581 0.0
C1620 C 0.37826 0.00867 0.82617 0.0
C1621 C 0.38825 0.00632 0.80899 0.0
C1622 C 0.38813 0.008 0.84342 0.0
C1623 C 0.43764 0.00807 0.86402 0.0
H1624 H 0.41378 0.97674 0.90357 0.0
C1625 C 0.48325 0.97509 0.92124 0.0
C1626 C 0.47918 0.98253 0.93938 0.0
C1627 C 0.46972 0.97654 0.90679 0.0
C1628 C 0.4205 0.98558 0.89263 0.0
H1629 H 0.41656 0.00229 0.79645 0.0
H1630 H 0.4335 0.00057 0.82621 0.0
H1631 H 0.39518 0.98508 0.87531 0.0
H1632 H 0.457 0.9952 0.95721 0.0
H1633 H 0.4332 -0.0024 0.93173 0.0
H1634 H 0.46316 0.0078 0.88095 0.0
C1635 C 0.41817 0.00339 0.82654 0.0
C1636 C 0.40986 0.99053 0.87655 0.0
C1637 C 0.40839 0.00431 0.80938 0.0
C1638 C 0.46055 0.98941 0.94334 0.0
C1639 C 0.44694 0.99082 0.9288 0.0
C1640 C 0.44828 0.00285 0.87985 0.0
C1641 C 0.40813 0.00478 0.84379 0.0
C1642 C 0.41846 0.00153 0.86189 0.0
C1643 C 0.45188 0.98535 0.91026 0.0
C1644 C 0.43992 0.99129 0.8941 0.0
H1645 H 0.36275 0.01037 0.82634 0.0
H1646 H 0.38003 0.00953 0.85645 0.0
H1647 H 0.44458 0.01698 0.85328 0.0
H1648 H 0.49736 0.96938 0.91787 0.0
H1649 H 0.47364 0.97191 0.89262 0.0
C1650 C 0.27134 0.16408 0.04736 0.0
C1651 C 0.26163 0.1461 0.04445 0.0
C1652 C 0.27385 0.17163 0.06568 0.0
C1653 C 0.28461 0.17982 0.107 0.0
H1654 H 0.23874 0.18013 0.13846 0.0
C1655 C 0.27261 0.23467 0.16795 0.0
C1656 C 0.26266 0.22846 0.18422 0.0
C1657 C 0.27534 0.22184 0.15273 0.0
C1658 C 0.2518 0.17982 0.13006 0.0
H1659 H 0.24751 0.12163 0.05855 0.0
H1660 H 0.25183 0.13484 0.09045 0.0
H1661 H 0.2381 0.163 0.10808 0.0
H1662 H 0.24841 0.20371 0.19765 0.0
H1663 H 0.25294 0.18127 0.17084 0.0
H1664 H 0.29813 0.19712 0.1288 0.0
C1665 C 0.25736 0.14317 0.07856 0.0
C1666 C 0.25143 0.17003 0.11261 0.0
C1667 C 0.25495 0.13559 0.06028 0.0
C1668 C 0.2562 0.20887 0.18531 0.0
C1669 C 0.25867 0.19608 0.16992 0.0
C1670 C 0.285 0.1896 0.12447 0.0
C1671 C 0.26661 0.1614 0.08146 0.0
C1672 C 0.26771 0.17024 0.10072 0.0
C1673 C 0.26794 0.20257 0.15332 0.0
C1674 C 0.26847 0.19004 0.13602 0.0
H1675 H 0.27669 0.17251 0.03547 0.0
H1676 H 0.28088 0.1858 0.06744 0.0
H1677 H 0.29748 0.17997 0.09828 0.0
H1678 H 0.27784 0.24966 0.16677 0.0
H1679 H 0.28242 0.22735 0.14012 0.0
C1680 C 0.19124 0.09779 -0.00233 0.0
C1681 C 0.19833 0.11328 0.98663 0.0
C1682 C 0.17176 0.09238 -0.00319 0.0
C1683 C 0.12805 0.08996 -0.00098 0.0
H1684 H 0.10642 0.08191 0.94889 0.0
C1685 C 0.05378 0.05337 0.98963 0.0
C1686 C 0.05501 0.03634 0.97839 0.0
C1687 C 0.06845 0.06765 0.98902 0.0
C1688 C 0.11218 0.08432 0.96298 0.0
H1689 H 0.19071 0.13637 0.96724 0.0
H1690 H 0.15654 0.12663 0.9653 0.0
H1691 H 0.13821 0.09746 0.95236 0.0
H1692 H 0.07143 0.02186 0.95636 0.0
H1693 H 0.09678 0.04684 0.95507 0.0
H1694 H 0.10235 0.07623 0.00964 0.0
C1695 C 0.16607 0.11846 0.97438 0.0
C1696 C 0.13034 0.09325 0.96498 0.0
C1697 C 0.18554 0.12401 0.97546 0.0
C1698 C 0.07017 0.03477 0.96528 0.0
C1699 C 0.08465 0.04914 0.96448 0.0
C1700 C 0.10981 0.08126 -0.00295 0.0
C1701 C 0.15902 0.10246 0.98493 0.0
C1702 C 0.13871 0.0956 0.98298 0.0
C1703 C 0.0844 0.06528 0.97693 0.0
C1704 C 0.10192 0.07783 0.97898 0.0
H1705 H 0.20081 0.08974 0.00684 0.0
H1706 H 0.16682 0.07991 0.005 0.0
H1707 H 0.13403 0.09181 0.01309 0.0
H1708 H 0.04227 0.05498 -0.0001 0.0
H1709 H 0.06781 0.08006 -0.00136 0.0
C1710 C 0.70999 0.43358 0.99626 0.0
C1711 C 0.71076 0.41297 0.99555 0.0
C1712 C 0.69261 0.44297 -0.00018 0.0
C1713 C 0.64176 0.43786 0.99301 0.0
H1714 H 0.63473 0.47225 0.03643 0.0
C1715 C 0.57045 0.47636 0.00574 0.0
C1716 C 0.56177 0.46943 0.02244 0.0
C1717 C 0.59017 0.47401 0.00278 0.0
C1718 C 0.63666 0.46288 0.02414 0.0
H1719 H 0.69397 0.38604 -0.00201 0.0
H1720 H 0.66335 0.4026 0.00369 0.0
H1721 H 0.6665 0.45783 0.03031 0.0
H1722 H 0.56709 0.45643 0.04989 0.0
H1723 H 0.60169 0.45258 0.04476 0.0
H1724 H 0.61201 0.44269 0.98685 0.0
C1725 C 0.67634 0.41135 0.00168 0.0
C1726 C 0.65469 0.45467 0.02068 0.0
C1727 C 0.69381 0.40192 -0.00151 0.0
C1728 C 0.57339 0.46165 0.03678 0.0
C1729 C 0.59317 0.45961 0.03394 0.0
C1730 C 0.6239 0.44636 0.99624 0.0
C1731 C 0.67567 0.43191 0.00235 0.0
C1732 C 0.65718 0.44177 0.00532 0.0
C1733 C 0.60151 0.46506 0.01663 0.0
C1734 C 0.62113 0.45863 0.01201 0.0
H1735 H 0.72285 0.4425 0.99413 0.0
H1736 H 0.6923 0.45886 0.00024 0.0
H1737 H 0.64348 0.42803 0.98103 0.0
H1738 H 0.56186 0.48252 0.99448 0.0
H1739 H 0.59641 0.47835 0.98935 0.0
C1740 C 0.85602 0.43981 0.24296 0.0
C1741 C 0.87012 0.44654 0.25563 0.0
C1742 C 0.85003 0.4203 0.24323 0.0
C1743 C 0.84307 0.37701 0.24226 0.0
H1744 H 0.82505 0.36165 0.29213 0.0
C1745 C 0.79353 0.31006 0.25894 0.0
C1746 C 0.77466 0.31755 0.25888 0.0
C1747 C 0.80938 0.32262 0.26095 0.0
C1748 C 0.83033 0.36562 0.27821 0.0
H1749 H 0.89044 0.43835 0.27734 0.0
H1750 H 0.87957 0.40385 0.27824 0.0
H1751 H 0.84838 0.38871 0.28902 0.0
H1752 H 0.75762 0.34387 0.26206 0.0
H1753 H 0.78562 0.36586 0.26574 0.0
H1754 H 0.82456 0.3542 0.23147 0.0
C1755 C 0.87306 0.41373 0.2682 0.0
C1756 C 0.84366 0.381 0.2764 0.0
C1757 C 0.87922 0.43333 0.26774 0.0
C1758 C 0.77195 0.3377 0.26196 0.0
C1759 C 0.78787 0.35023 0.26418 0.0
C1760 C 0.83006 0.36143 0.2441 0.0
C1761 C 0.85816 0.40716 0.25616 0.0
C1762 C 0.84921 0.38756 0.25834 0.0
C1763 C 0.8066 0.34274 0.26325 0.0
C1764 C 0.82303 0.35629 0.262 0.0
H1765 H 0.84921 0.44979 0.23319 0.0
H1766 H 0.83829 0.4158 0.23401 0.0
H1767 H 0.8474 0.38157 0.2282 0.0
H1768 H 0.79615 0.29459 0.25665 0.0
H1769 H 0.82381 0.31673 0.26003 0.0
C1770 C 0.81277 0.59315 0.50366 0.0
C1771 C 0.80172 0.58983 0.48727 0.0
C1772 C 0.83085 0.58462 0.50555 0.0
C1773 C 0.87253 0.56679 0.48111 0.0
H1774 H 0.87907 0.53301 0.52458 0.0
C1775 C 0.94421 0.52636 0.49721 0.0
C1776 C 0.94963 0.52595 0.51638 0.0
C1777 C 0.92599 0.53314 0.49196 0.0
C1778 C 0.87758 0.54255 0.51247 0.0
H1779 H 0.8012 0.57564 0.45969 0.0
H1780 H 0.83324 0.56112 0.46287 0.0
H1781 H 0.84781 0.54767 0.51859 0.0
H1782 H 0.94038 0.53288 0.54501 0.0
H1783 H 0.90914 0.54505 0.53591 0.0
H1784 H 0.90256 0.56239 0.47542 0.0
C1785 C 0.82766 0.57009 0.47428 0.0
C1786 C 0.85966 0.55084 0.50903 0.0
C1787 C 0.80935 0.57829 0.47256 0.0
C1788 C 0.93663 0.53276 0.53012 0.0
C1789 C 0.91859 0.53962 0.5249 0.0
C1790 C 0.89063 0.55872 0.48472 0.0
C1791 C 0.83838 0.57297 0.49092 0.0
C1792 C 0.85707 0.56325 0.49352 0.0
C1793 C 0.91292 0.53971 0.50581 0.0
C1794 C 0.89343 0.54681 0.50068 0.0
H1795 H 0.80725 0.60197 0.51523 0.0
H1796 H 0.83897 0.58706 0.51847 0.0
H1797 H 0.87078 0.57637 0.46905 0.0
H1798 H 0.95399 0.52134 0.4863 0.0
H1799 H 0.92205 0.53297 0.47712 0.0
C1800 C 0.15594 0.04943 0.24206 0.0
C1801 C 0.13995 0.04833 0.25416 0.0
C1802 C 0.16428 0.06755 0.23759 0.0
C1803 C 0.15583 0.12154 0.23924 0.0
H1804 H 0.21169 0.1239 0.23813 0.0
C1805 C 0.22612 0.17808 0.23325 0.0
C1806 C 0.22078 0.19125 0.24756 0.0
C1807 C 0.21365 0.1627 0.22805 0.0
C1808 C 0.19607 0.12351 0.2379 0.0
H1809 H 0.11931 0.0651 0.27027 0.0
H1810 H 0.13436 0.09695 0.26322 0.0
H1811 H 0.1955 0.09258 0.24197 0.0
H1812 H 0.19792 0.20002 0.2665 0.0
H1813 H 0.1761 0.17324 0.25752 0.0
H1814 H 0.15665 0.15282 0.23587 0.0
C1815 C 0.14041 0.08386 0.25694 0.0
C1816 C 0.18673 0.10546 0.24023 0.0
C1817 C 0.1319 0.06567 0.26119 0.0
C1818 C 0.20214 0.19014 0.25519 0.0
C1819 C 0.18968 0.17475 0.25005 0.0
C1820 C 0.16523 0.13969 0.23696 0.0
C1821 C 0.15679 0.08503 0.24515 0.0
C1822 C 0.1665 0.10423 0.24128 0.0
C1823 C 0.19581 0.16015 0.23732 0.0
C1824 C 0.18548 0.14091 0.23657 0.0
H1825 H 0.16195 0.03622 0.23594 0.0
H1826 H 0.17657 0.06782 0.22812 0.0
H1827 H 0.14022 0.12112 0.23958 0.0
H1828 H 0.24056 0.17857 0.22738 0.0
H1829 H 0.21863 0.1519 0.2179 0.0
C1830 C 0.31934 0.87559 0.48287 0.0
C1831 C 0.30495 0.88579 0.49262 0.0
C1832 C 0.33851 0.88201 0.484 0.0
C1833 C 0.37213 0.91043 0.47732 0.0
H1834 H 0.39405 0.93191 0.52361 0.0
C1835 C 0.42389 0.97683 0.48093 0.0
C1836 C 0.43956 0.97572 0.49339 0.0
C1837 C 0.41028 0.96159 0.48016 0.0
C1838 C 0.38825 0.92574 0.51061 0.0
H1839 H 0.29902 0.90898 0.51274 0.0
H1840 H 0.3324 0.92041 0.51466 0.0
H1841 H 0.36502 0.91143 0.52514 0.0
H1842 H 0.45308 0.95857 0.51521 0.0
H1843 H 0.42941 0.93176 0.51381 0.0
H1844 H 0.39486 0.92566 0.46273 0.0
C1845 C 0.32907 0.90765 0.50599 0.0
C1846 C 0.37162 0.91413 0.51148 0.0
C1847 C 0.30996 0.90137 0.50468 0.0
C1848 C 0.44149 0.95927 0.50502 0.0
C1849 C 0.42786 0.94413 0.50439 0.0
C1850 C 0.38861 0.92233 0.47642 0.0
C1851 C 0.34345 0.89833 0.49532 0.0
C1852 C 0.36304 0.90697 0.49478 0.0
C1853 C 0.41206 0.94526 0.49208 0.0
C1854 C 0.39645 0.93049 0.49303 0.0
H1855 H 0.31565 0.8632 0.47385 0.0
H1856 H 0.34939 0.87449 0.47579 0.0
H1857 H 0.3659 0.90493 0.46425 0.0
H1858 H 0.42212 0.98951 0.47194 0.0
H1859 H 0.398 0.96291 0.4708 0.0
C1860 C 0.81858 0.5452 0.24523 0.0
C1861 C 0.83868 0.54481 0.24786 0.0
C1862 C 0.80942 0.56278 0.24116 0.0
C1863 C 0.81141 0.61345 0.25131 0.0
H1864 H 0.78463 0.62359 0.20416 0.0
C1865 C 0.76814 0.68321 0.24041 0.0
C1866 C 0.77577 0.69482 0.22574 0.0
C1867 C 0.77301 0.6635 0.24177 0.0
C1868 C 0.79194 0.6208 0.2174 0.0
H1869 H 0.86496 0.5624 0.24829 0.0
H1870 H 0.84872 0.59337 0.24181 0.0
H1871 H 0.7996 0.59149 0.20928 0.0
H1872 H 0.79321 0.6946 0.20021 0.0
H1873 H 0.80148 0.65991 0.20253 0.0
H1874 H 0.80375 0.64256 0.25957 0.0
C1875 C 0.84024 0.57994 0.2426 0.0
C1876 C 0.80043 0.60258 0.22031 0.0
C1877 C 0.84947 0.56229 0.24625 0.0
C1878 C 0.78728 0.68604 0.21176 0.0
C1879 C 0.7919 0.66621 0.21298 0.0
C1880 C 0.8026 0.63145 0.24858 0.0
C1881 C 0.82019 0.58025 0.24007 0.0
C1882 C 0.81045 0.59897 0.23717 0.0
C1883 C 0.78529 0.65502 0.22833 0.0
C1884 C 0.79301 0.63533 0.23154 0.0
H1885 H 0.80992 0.53191 0.24631 0.0
H1886 H 0.7939 0.56284 0.23933 0.0
H1887 H 0.81902 0.61082 0.26443 0.0
H1888 H 0.75918 0.68953 0.25138 0.0
H1889 H 0.76772 0.65504 0.25368 0.0
C1890 C 0.6708 0.44259 0.7791 0.0
C1891 C 0.65577 0.44746 0.76665 0.0
C1892 C 0.678 0.42358 0.77958 0.0
C1893 C 0.70001 0.38822 0.76638 0.0
H1894 H 0.66909 0.341 0.75884 0.0
C1895 C 0.72873 0.32045 0.72979 0.0
C1896 C 0.72503 0.30173 0.73731 0.0
C1897 C 0.72023 0.33697 0.73759 0.0
C1898 C 0.67786 0.35403 0.76132 0.0
H1899 H 0.63609 0.43583 0.7454 0.0
H1900 H 0.64901 0.40263 0.74594 0.0
H1901 H 0.65317 0.37243 0.76462 0.0
H1902 H 0.70972 0.28568 0.75918 0.0
H1903 H 0.69425 0.31499 0.77274 0.0
H1904 H 0.72463 0.37003 0.76247 0.0
C1905 C 0.655 0.41355 0.75554 0.0
C1906 C 0.66878 0.37203 0.76437 0.0
C1907 C 0.6477 0.43262 0.75511 0.0
C1908 C 0.71278 0.29993 0.7531 0.0
C1909 C 0.70393 0.31662 0.76079 0.0
C1910 C 0.70903 0.37033 0.76326 0.0
C1911 C 0.67046 0.40892 0.76756 0.0
C1912 C 0.67978 0.3894 0.76648 0.0
C1913 C 0.70763 0.33528 0.75304 0.0
C1914 C 0.69805 0.35316 0.76015 0.0
H1915 H 0.6772 0.45352 0.78844 0.0
H1916 H 0.68968 0.42044 0.78923 0.0
H1917 H 0.70895 0.40129 0.76778 0.0
H1918 H 0.73821 0.3224 0.71773 0.0
H1919 H 0.72316 0.35111 0.73119 0.0
C1920 C 0.00868 0.80752 0.91068 0.0
C1921 C 0.00026 0.80405 0.89296 0.0
C1922 C 0.00611 0.82541 0.91991 0.0
C1923 C 0.9746 0.86891 0.92145 0.0
H1924 H 0.01719 0.8904 0.9508 0.0
C1925 C 0.9945 0.94649 0.95553 0.0
C1926 C -0.00036 0.94442 0.97461 0.0
C1927 C 0.98746 0.93026 0.94532 0.0
C1928 C 0.00514 0.88446 0.94274 0.0
H1929 H 0.98391 0.81676 0.87013 0.0
H1930 H 0.97936 0.84839 0.88629 0.0
H1931 H 0.0218 0.86067 0.93233 0.0
H1932 H -0.00069 0.92501 -0.0013 0.0
H1933 H 0.98689 0.89672 0.98095 0.0
H1934 H 0.95824 0.89349 0.93175 0.0
C1935 C 0.98744 0.83706 0.89333 0.0
C1936 C 0.00773 0.86741 0.93221 0.0
C1937 C 0.99013 0.81909 0.88405 0.0
C1938 C 0.99522 0.9269 0.98402 0.0
C1939 C 0.98813 0.91075 0.97388 0.0
C1940 C 0.97206 0.88626 0.93193 0.0
C1941 C 0.99528 0.84034 0.91146 0.0
C1942 C 0.99246 0.85922 0.92166 0.0
C1943 C 0.98558 0.91197 0.95422 0.0
C1944 C 0.9873 0.89391 0.94283 0.0
H1945 H 0.01702 0.79624 0.91753 0.0
H1946 H 0.01222 0.82733 0.93392 0.0
H1947 H 0.96251 0.86291 0.91353 0.0
H1948 H -0.00191 0.95986 0.948 0.0
H1949 H 0.98577 0.93142 0.93012 0.0
C1950 C 0.93531 0.26469 0.65098 0.0
C1951 C 0.94118 0.24559 0.64673 0.0
C1952 C 0.92198 0.26792 0.66548 0.0
C1953 C 0.8984 0.24385 0.70692 0.0
H1954 H 0.85618 0.27817 0.69448 0.0
C1955 C 0.81998 0.23437 0.73126 0.0
C1956 C 0.80862 0.25117 0.73251 0.0
C1957 C 0.83968 0.2362 0.72727 0.0
C1958 C 0.86808 0.26891 0.69848 0.0
H1959 H 0.93871 0.21499 0.65437 0.0
H1960 H 0.91488 0.22041 0.67924 0.0
H1961 H 0.88395 0.2768 0.67375 0.0
H1962 H 0.80875 0.28291 0.73262 0.0
H1963 H 0.84321 0.28618 0.72606 0.0
H1964 H 0.88172 0.23511 0.73112 0.0
C1965 C 0.92062 0.23297 0.67169 0.0
C1966 C 0.88403 0.26811 0.68654 0.0
C1967 C 0.93396 0.22979 0.65724 0.0
C1968 C 0.81737 0.26979 0.73164 0.0
C1969 C 0.83702 0.27163 0.72784 0.0
C1970 C 0.88231 0.24455 0.71884 0.0
C1971 C 0.91441 0.25207 0.67594 0.0
C1972 C 0.8991 0.25512 0.69028 0.0
C1973 C 0.8481 0.25486 0.72447 0.0
C1974 C 0.86676 0.2567 0.71442 0.0
H1975 H 0.94109 0.27706 0.64315 0.0
H1976 H 0.91763 0.28282 0.66852 0.0
H1977 H 0.91 0.234 0.7104 0.0
H1978 H 0.81339 0.21991 0.73156 0.0
H1979 H 0.84783 0.22301 0.72461 0.0
C1980 C 0.50712 0.18106 0.38498 0.0
C1981 C 0.51219 0.1987 0.39415 0.0
C1982 C 0.51139 0.16301 0.39323 0.0
C1983 C 0.52164 0.14184 0.44026 0.0
H1984 H 0.52857 0.09426 0.41079 0.0
C1985 C 0.51624 0.06859 0.47718 0.0
C1986 C 0.50083 0.05769 0.46948 0.0
C1987 C 0.52526 0.08328 0.46648 0.0
C1988 C 0.52689 0.10746 0.41921 0.0
H1989 H 0.52668 0.21133 0.41862 0.0
H1990 H 0.53469 0.17997 0.43271 0.0
H1991 H 0.52934 0.12609 0.39499 0.0
H1992 H 0.48388 0.05203 0.44433 0.0
H1993 H 0.49978 0.07735 0.42547 0.0
H1994 H 0.51868 0.12327 0.46435 0.0
C1995 C 0.52684 0.17995 0.41946 0.0
C1996 C 0.52714 0.1257 0.41017 0.0
C1997 C 0.52229 0.19796 0.41136 0.0
C1998 C 0.49592 0.06015 0.45041 0.0
C1999 C 0.50505 0.07466 0.43964 0.0
C2000 C 0.52162 0.12369 0.44929 0.0
C2001 C 0.5211 0.16221 0.41073 0.0
C2002 C 0.52384 0.14308 0.42049 0.0
C2003 C 0.51895 0.08719 0.44795 0.0
C2004 C 0.5236 0.10625 0.43881 0.0
H2005 H 0.49934 0.18119 0.37168 0.0
H2006 H 0.50645 0.14974 0.38619 0.0
H2007 H 0.51876 0.15476 0.44873 0.0
H2008 H 0.52 0.06708 0.49198 0.0
H2009 H 0.53607 0.0926 0.47318 0.0
C2010 C 0.55365 0.75762 0.155 0.0
C2011 C 0.54855 0.74901 0.13758 0.0
C2012 C 0.57259 0.75677 0.16147 0.0
C2013 C 0.62292 0.74657 0.14893 0.0
H2014 H 0.62443 0.72595 0.2 0.0
C2015 C 0.67801 0.71674 0.21065 0.0
C2016 C 0.6905 0.73302 0.21192 0.0
C2017 C 0.66297 0.71658 0.19756 0.0
C2018 C 0.62428 0.73141 0.18562 0.0
H2019 H 0.55949 0.73423 0.11255 0.0
H2020 H 0.59267 0.73265 0.124 0.0
H2021 H 0.59354 0.73245 0.18532 0.0
H2022 H 0.69739 0.76161 0.20056 0.0
H2023 H 0.67141 0.76126 0.17737 0.0
H2024 H 0.65387 0.74572 0.1495 0.0
C2025 C 0.58199 0.74001 0.1326 0.0
C2026 C 0.6066 0.73545 0.17735 0.0
C2027 C 0.563 0.74083 0.12612 0.0
C2028 C 0.68852 0.74854 0.19916 0.0
C2029 C 0.67349 0.7484 0.18605 0.0
C2030 C 0.64074 0.74267 0.15732 0.0
C2031 C 0.58675 0.74732 0.15063 0.0
C2032 C 0.60574 0.74325 0.15904 0.0
C2033 C 0.66007 0.73283 0.18576 0.0
C2034 C 0.64153 0.73511 0.17578 0.0
H2035 H 0.54287 0.76427 0.16401 0.0
H2036 H 0.57603 0.76284 0.17529 0.0
H2037 H 0.62258 0.75253 0.13475 0.0
H2038 H 0.67923 0.70468 0.22049 0.0
H2039 H 0.65289 0.70431 0.19746 0.0
C2040 C 0.00314 0.1827 0.59573 0.0
C2041 C 0.99299 0.18754 0.61222 0.0
C2042 C 0.00745 0.16323 0.59177 0.0
C2043 C 0.99411 0.11301 0.59853 0.0
H2044 H 0.04806 0.10355 0.58739 0.0
C2045 C 0.0145 0.04244 0.5619 0.0
C2046 C 0.02373 0.04686 0.54469 0.0
C2047 C 0.01452 0.05617 0.57665 0.0
C2048 C 0.03299 0.10588 0.59066 0.0
H2049 H 0.97925 0.17629 0.63751 0.0
H2050 H 0.98632 0.14174 0.63021 0.0
H2051 H 0.03824 0.13563 0.59926 0.0
H2052 H 0.0426 0.06765 0.53042 0.0
H2053 H 0.04245 0.09158 0.55584 0.0
H2054 H 0.98852 0.08388 0.58855 0.0
C2055 C 0.99088 0.15308 0.62043 0.0
C2056 C 0.02739 0.1242 0.59739 0.0
C2057 C 0.9868 0.17267 0.62454 0.0
C2058 C 0.03502 0.06402 0.54338 0.0
C2059 C 0.03508 0.07769 0.55809 0.0
C2060 C -0.00033 0.09472 0.59158 0.0
C2061 C 0.00175 0.14835 0.60431 0.0
C2062 C 0.00784 0.1281 0.60062 0.0
C2063 C 0.02386 0.07442 0.5744 0.0
C2064 C 0.01906 0.09128 0.58676 0.0
H2065 H 0.00848 0.19405 0.58633 0.0
H2066 H 0.01562 0.15981 0.57911 0.0
H2067 H 0.97894 0.11578 0.60097 0.0
H2068 H 0.00594 0.02915 0.56344 0.0
H2069 H 0.00609 0.0531 0.58924 0.0
C2070 C 0.56879 0.24954 0.36058 0.0
C2071 C 0.55555 0.25454 0.34634 0.0
C2072 C 0.58774 0.24442 0.35586 0.0
C2073 C 0.61683 0.22422 0.31781 0.0
H2074 H 0.65717 0.26177 0.3307 0.0
C2075 C 0.67374 0.24824 0.26601 0.0
C2076 C 0.69093 0.25713 0.27218 0.0
C2077 C 0.66099 0.23993 0.27905 0.0
C2078 C 0.64639 0.25065 0.32739 0.0
H2079 H 0.55183 0.25793 0.316 0.0
H2080 H 0.58454 0.24855 0.30788 0.0
H2081 H 0.62634 0.26298 0.34715 0.0
H2082 H 0.70897 0.26363 0.29636 0.0
H2083 H 0.68689 0.24862 0.31938 0.0
H2084 H 0.63644 0.21237 0.29747 0.0
C2085 C 0.58029 0.24867 0.32265 0.0
C2086 C 0.62867 0.25145 0.33681 0.0
C2087 C 0.56161 0.25423 0.32735 0.0
C2088 C 0.69594 0.25637 0.29136 0.0
C2089 C 0.68317 0.24804 0.3045 0.0
C2090 C 0.63462 0.2232 0.30859 0.0
C2091 C 0.59348 0.24368 0.33682 0.0
C2092 C 0.61345 0.23898 0.3313 0.0
C2093 C 0.66509 0.24062 0.29858 0.0
C2094 C 0.64917 0.23724 0.3124 0.0
H2095 H 0.56455 0.24965 0.37535 0.0
H2096 H 0.59781 0.24083 0.36701 0.0
H2097 H 0.60528 0.2143 0.31351 0.0
H2098 H 0.66954 0.24897 0.25125 0.0
H2099 H 0.64717 0.23462 0.27389 0.0
C2100 C 0.50602 0.79321 0.08044 0.0
C2101 C 0.48783 0.79061 0.08883 0.0
C2102 C 0.51128 0.81125 0.07273 0.0
C2103 C 0.50165 0.86319 0.07768 0.0
H2104 H 0.52272 0.8682 0.02699 0.0
C2105 C 0.51941 0.93865 0.04865 0.0
C2106 C 0.51078 0.94229 0.03106 0.0
C2107 C 0.52163 0.91949 0.05492 0.0
C2108 C 0.51697 0.86698 0.0412 0.0
H2109 H 0.46074 0.80427 0.09581 0.0
H2110 H 0.47006 0.83627 0.08254 0.0
H2111 H 0.51506 0.83561 0.03955 0.0
H2112 H 0.49917 0.92893 0.00553 0.0
H2113 H 0.50231 0.89534 0.0168 0.0
H2114 H 0.50288 0.89441 0.07928 0.0
C2115 C 0.48018 0.8243 0.08184 0.0
C2116 C 0.51266 0.84839 0.04838 0.0
C2117 C 0.47478 0.80609 0.08926 0.0
C2118 C 0.50564 0.92646 0.01926 0.0
C2119 C 0.50763 0.90726 0.02564 0.0
C2120 C 0.50604 0.88171 0.07058 0.0
C2121 C 0.49853 0.82703 0.07365 0.0
C2122 C 0.50449 0.84644 0.06649 0.0
C2123 C 0.515 0.90364 0.04382 0.0
C2124 C 0.51331 0.88384 0.05211 0.0
H2125 H 0.51622 0.78129 0.08003 0.0
H2126 H 0.5255 0.81303 0.06655 0.0
H2127 H 0.4957 0.86199 0.09182 0.0
H2128 H 0.52406 0.95064 0.05777 0.0
H2129 H 0.52782 0.9171 0.06879 0.0
C2130 C 0.93292 0.74319 0.85555 0.0
C2131 C 0.95115 0.75019 0.84987 0.0
C2132 C 0.91738 0.7433 0.84299 0.0
C2133 C 0.90392 0.74601 0.79266 0.0
H2134 H 0.85552 0.76465 0.81317 0.0
C2135 C 0.81985 0.76383 0.77066 0.0
C2136 C 0.81378 0.74503 0.76491 0.0
C2137 C 0.83879 0.76702 0.77683 0.0
C2138 C 0.86901 0.75971 0.80715 0.0
H2139 H 0.96745 0.76244 0.82639 0.0
H2140 H 0.9402 0.76279 0.80452 0.0
H2141 H 0.88399 0.76394 0.83333 0.0
H2142 H 0.82275 0.7152 0.75968 0.0
H2143 H 0.85605 0.72085 0.76998 0.0
H2144 H 0.88855 0.74124 0.76659 0.0
C2145 C 0.93803 0.757 0.81863 0.0
C2146 C 0.88524 0.75903 0.81877 0.0
C2147 C 0.95362 0.75681 0.83118 0.0
C2148 C 0.82726 0.72988 0.76383 0.0
C2149 C 0.84627 0.73313 0.76971 0.0
C2150 C 0.88755 0.74645 0.78107 0.0
C2151 C 0.91969 0.75054 0.82451 0.0
C2152 C 0.90279 0.75194 0.81174 0.0
C2153 C 0.8519 0.75145 0.77718 0.0
C2154 C 0.86993 0.75318 0.78829 0.0
H2155 H 0.93058 0.73778 0.86977 0.0
H2156 H 0.90349 0.73785 0.8478 0.0
H2157 H 0.91727 0.74045 0.78688 0.0
H2158 H 0.80954 0.77554 0.77215 0.0
H2159 H 0.84281 0.78128 0.78254 0.0
C2160 C 0.90806 0.9829 0.81085 0.0
C2161 C 0.90604 -0.0024 0.79724 0.0
C2162 C 0.92063 0.98552 0.82608 0.0
C2163 C 0.94163 0.02501 0.8549 0.0
H2164 H 0.9662 0.98147 0.88005 0.0
C2165 C 0.95298 0.02454 0.9348 0.0
C2166 C 0.9693 0.01567 0.94269 0.0
C2167 C 0.94944 0.02345 0.91541 0.0
C2168 C 0.95975 0.9939 0.8731 0.0
H2169 H 0.91626 0.02613 0.7881 0.0
H2170 H 0.93838 0.0309 0.81492 0.0
H2171 H 0.95374 0.97717 0.848 0.0
H2172 H 0.99481 -0.00123 0.93621 0.0
H2173 H 0.98868 -0.00295 0.90209 0.0
H2174 H 0.94747 0.0417 0.88001 0.0
C2175 C 0.93007 0.01738 0.81392 0.0
C2176 C 0.95241 0.99137 0.85479 0.0
C2177 C 0.91751 0.01465 0.79856 0.0
C2178 C 0.9821 0.00575 0.9306 0.0
C2179 C 0.97856 0.00472 0.91107 0.0
C2180 C 0.94905 0.02756 0.87314 0.0
C2181 C 0.93148 0.00297 0.82807 0.0
C2182 C 0.94261 0.00668 0.84577 0.0
C2183 C 0.96216 0.01358 0.90326 0.0
C2184 C 0.95751 0.01182 0.88275 0.0
H2185 H 0.89985 0.96939 0.80988 0.0
H2186 H 0.92119 0.97417 0.83673 0.0
H2187 H 0.93414 0.03711 0.84845 0.0
H2188 H 0.94268 0.03213 0.94365 0.0
H2189 H 0.9364 0.02998 0.91002 0.0
C2190 C 0.76159 0.12316 0.56194 0.0
C2191 C 0.76775 0.13587 0.54749 0.0
C2192 C 0.76154 0.12944 0.58074 0.0
C2193 C 0.75574 0.17602 0.60532 0.0
H2194 H 0.75727 0.14393 0.65047 0.0
C2195 C 0.72386 0.20612 0.6725 0.0
C2196 C 0.73588 0.20514 0.68839 0.0
C2197 C 0.72698 0.19381 0.65703 0.0
C2198 C 0.75684 0.15307 0.63799 0.0
H2199 H 0.78109 0.16409 0.54154 0.0
H2200 H 0.78157 0.17491 0.57453 0.0
H2201 H 0.76926 0.13078 0.62043 0.0
H2202 H 0.75918 0.18932 0.70162 0.0
H2203 H 0.76522 0.16834 0.67423 0.0
H2204 H 0.74388 0.19845 0.62267 0.0
C2205 C 0.77608 0.16034 0.57124 0.0
C2206 C 0.76366 0.14555 0.6208 0.0
C2207 C 0.77594 0.15412 0.55237 0.0
C2208 C 0.74975 0.19035 0.68943 0.0
C2209 C 0.7532 0.17832 0.67374 0.0
C2210 C 0.74908 0.18353 0.62241 0.0
C2211 C 0.76784 0.1485 0.58545 0.0
C2212 C 0.76302 0.15692 0.60424 0.0
C2213 C 0.74255 0.18076 0.657 0.0
C2214 C 0.74927 0.17209 0.6389 0.0
H2215 H 0.75546 0.10885 0.55863 0.0
H2216 H 0.75512 0.11991 0.59128 0.0
H2217 H 0.75462 0.18508 0.59283 0.0
H2218 H 0.71286 0.21723 0.67157 0.0
H2219 H 0.71804 0.19549 0.64458 0.0
C2220 C 0.58926 0.9861 0.30854 0.0
C2221 C 0.59109 0.00526 0.30177 0.0
C2222 C 0.57602 0.98179 0.32283 0.0
C2223 C 0.53355 0.00138 0.34878 0.0
H2224 H 0.55216 0.96723 0.38827 0.0
C2225 C 0.51 0.00078 0.42715 0.0
C2226 C 0.51167 0.98293 0.43682 0.0
C2227 C 0.51357 0.00154 0.40768 0.0
C2228 C 0.54649 0.97642 0.37717 0.0
H2229 H 0.58072 0.03497 0.30391 0.0
H2230 H 0.55793 0.02771 0.32955 0.0
H2231 H 0.57178 0.97278 0.3605 0.0
H2232 H 0.51528 0.95156 0.43358 0.0
H2233 H 0.52108 0.95283 0.39956 0.0
H2234 H 0.50863 0.00579 0.36634 0.0
C2235 C 0.56635 0.01587 0.32364 0.0
C2236 C 0.55779 0.97964 0.36121 0.0
C2237 C 0.57951 0.02012 0.3092 0.0
C2238 C 0.51437 0.96556 0.42646 0.0
C2239 C 0.51766 0.96628 0.40703 0.0
C2240 C 0.52225 -0.00171 0.36495 0.0
C2241 C 0.56454 -0.00334 0.33069 0.0
C2242 C 0.55161 0.99232 0.34691 0.0
C2243 C 0.51863 0.98442 0.39774 0.0
C2244 C 0.52875 0.98591 0.37937 0.0
H2245 H 0.59797 0.97445 0.30267 0.0
H2246 H 0.57478 0.96679 0.3277 0.0
H2247 H 0.52826 0.01103 0.33787 0.0
H2248 H 0.50779 0.01436 0.43485 0.0
H2249 H 0.51418 0.01572 0.40085 0.0
C2250 C 0.7375 0.85555 0.07006 0.0
C2251 C 0.73416 0.84501 0.05321 0.0
C2252 C 0.73114 0.84819 0.08737 0.0
C2253 C 0.72032 0.8016 0.11042 0.0
H2254 H 0.70794 0.83614 0.15243 0.0
C2255 C 0.73112 0.77388 0.18434 0.0
C2256 C 0.74467 0.78593 0.19356 0.0
C2257 C 0.72011 0.78129 0.16949 0.0
C2258 C 0.71109 0.82624 0.14081 0.0
H2259 H 0.72099 0.81876 0.04119 0.0
H2260 H 0.70983 0.80581 0.07158 0.0
H2261 H 0.70747 0.84872 0.12012 0.0
H2262 H 0.75659 0.81529 0.19582 0.0
H2263 H 0.7375 0.82836 0.16996 0.0
H2264 H 0.72501 0.77944 0.13102 0.0
C2265 C 0.71754 0.81972 0.07137 0.0
C2266 C 0.71094 0.83345 0.12232 0.0
C2267 C 0.72398 0.82709 0.05398 0.0
C2268 C 0.74594 0.80587 0.189 0.0
C2269 C 0.73493 0.81332 0.17422 0.0
C2270 C 0.72038 0.79437 0.12885 0.0
C2271 C 0.7212 0.83012 0.08829 0.0
C2272 C 0.71657 0.82147 0.10704 0.0
C2273 C 0.72278 0.8008 0.16356 0.0
C2274 C 0.71676 0.80688 0.14433 0.0
H2275 H 0.74525 0.86944 0.06995 0.0
H2276 H 0.73462 0.8564 0.10011 0.0
H2277 H 0.72481 0.79196 0.09904 0.0
H2278 H 0.73033 0.75833 0.18741 0.0
H2279 H 0.71073 0.77135 0.16166 0.0
C2280 C 0.9139 0.01046 0.68427 0.0
C2281 C 0.89559 0.00277 0.68867 0.0
C2282 C 0.91875 0.01494 0.66562 0.0
C2283 C 0.90728 -0.00035 0.61741 0.0
H2284 H 0.94633 0.03915 0.6062 0.0
C2285 C 0.95591 0.99079 0.55311 0.0
C2286 C 0.97459 0.98794 0.56011 0.0
C2287 C 0.94218 0.00031 0.56431 0.0
C2288 C 0.93511 0.02833 0.60895 0.0
H2289 H 0.8677 0.9944 0.67706 0.0
H2290 H 0.87625 0.00216 0.6443 0.0
H2291 H 0.92825 0.04105 0.63584 0.0
H2292 H 0.99431 0.99395 0.58316 0.0
H2293 H 0.97065 0.01102 0.60253 0.0
H2294 H 0.91493 0.98632 0.59102 0.0
C2295 C 0.88688 0.00461 0.65532 0.0
C2296 C 0.92488 0.02929 0.62596 0.0
C2297 C 0.88201 0.00013 0.67406 0.0
C2298 C 0.97993 -0.00393 0.57758 0.0
C2299 C 0.96642 0.00596 0.58855 0.0
C2300 C 0.91738 -0.0012 0.60031 0.0
C2301 C 0.9054 0.01188 0.65087 0.0
C2302 C 0.91178 0.01424 0.6309 0.0
C2303 C 0.94719 0.00736 0.58243 0.0
C2304 C 0.93223 0.01243 0.5965 0.0
H2305 H 0.92466 0.01276 0.6952 0.0
H2306 H 0.93328 0.02009 0.6627 0.0
H2307 H 0.89728 0.98783 0.62072 0.0
H2308 H 0.95155 0.98442 0.53967 0.0
H2309 H 0.92745 0.00118 0.55931 0.0
C2310 C 0.75801 0.16635 0.44288 0.0
C2311 C 0.74926 0.14786 0.43992 0.0
C2312 C 0.75809 0.18041 0.42856 0.0
C2313 C 0.75187 0.18487 0.3768 0.0
H2314 H 0.74531 0.24028 0.38784 0.0
C2315 C 0.73778 0.2381 0.31849 0.0
C2316 C 0.75622 0.24433 0.31277 0.0
C2317 C 0.73467 0.2319 0.33704 0.0
C2318 C 0.74705 0.22483 0.38471 0.0
H2319 H 0.73372 0.12969 0.41954 0.0
H2320 H 0.73332 0.15427 0.39494 0.0
H2321 H 0.74492 0.21641 0.41385 0.0
H2322 H 0.78534 0.25094 0.32206 0.0
H2323 H 0.77984 0.24015 0.35467 0.0
H2324 H 0.75367 0.19324 0.34773 0.0
C2325 C 0.74055 0.15782 0.40813 0.0
C2326 C 0.74702 0.2112 0.39949 0.0
C2327 C 0.74071 0.14371 0.42231 0.0
C2328 C 0.77095 0.24634 0.32628 0.0
C2329 C 0.7678 0.2403 0.34489 0.0
C2330 C 0.75165 0.19837 0.36214 0.0
C2331 C 0.74927 0.17633 0.41104 0.0
C2332 C 0.74941 0.19105 0.39565 0.0
C2333 C 0.74997 0.23199 0.35001 0.0
C2334 C 0.74923 0.21836 0.36599 0.0
H2335 H 0.7648 0.17001 0.45628 0.0
H2336 H 0.76521 0.1944 0.43116 0.0
H2337 H 0.75424 0.16959 0.37333 0.0
H2338 H 0.72647 0.23571 0.30816 0.0
H2339 H 0.72095 0.22512 0.34068 0.0
C2340 C 0.5798 0.99273 0.18777 0.0
C2341 C 0.59902 0.9938 0.19391 0.0
C2342 C 0.57568 0.99233 0.16841 0.0
C2343 C 0.5968 0.01183 0.12554 0.0
H2344 H 0.55458 0.98455 0.10037 0.0
C2345 C 0.55989 0.00576 0.04792 0.0
C2346 C 0.54614 0.02077 0.0481 0.0
C2347 C 0.57119 0.0024 0.06384 0.0
C2348 C 0.56656 0.99205 0.10725 0.0
H2349 H 0.62897 0.99305 0.18505 0.0
H2350 H 0.62174 0.99211 0.1513 0.0
H2351 H 0.56356 0.97517 0.1326 0.0
H2352 H 0.53536 0.04573 0.06393 0.0
H2353 H 0.55551 0.03998 0.09171 0.0
H2354 H 0.59906 0.02933 0.10043 0.0
C2355 C 0.60991 0.99211 0.16133 0.0
C2356 C 0.5716 0.98678 0.12561 0.0
C2357 C 0.61401 0.99261 0.1806 0.0
C2358 C 0.54571 0.03395 0.06346 0.0
C2359 C 0.55721 0.03071 0.07931 0.0
C2360 C 0.59156 0.01727 0.10727 0.0
C2361 C 0.59075 0.99289 0.15508 0.0
C2362 C 0.58663 -0.00322 0.13498 0.0
C2363 C 0.56917 0.0143 0.07989 0.0
C2364 C 0.57631 0.00751 0.09817 0.0
H2365 H 0.56802 0.9936 0.1978 0.0
H2366 H 0.56076 0.99298 0.16392 0.0
H2367 H 0.60826 0.01997 0.13259 0.0
H2368 H 0.5606 0.99539 0.0363 0.0
H2369 H 0.58039 0.98967 0.06415 0.0
C2370 C 0.74532 0.84158 0.9426 0.0
C2371 C 0.74016 0.86122 0.94553 0.0
C2372 C 0.74213 0.83246 0.9251 0.0
C2373 C 0.7253 0.8127 0.89064 0.0
H2374 H 0.73312 0.84152 0.84405 0.0
C2375 C 0.71933 0.77195 0.82023 0.0
C2376 C 0.73352 0.77638 0.80673 0.0
C2377 C 0.71608 0.78466 0.83544 0.0
C2378 C 0.73096 0.8332 0.8569 0.0
H2379 H 0.72729 0.88661 0.9324 0.0
H2380 H 0.72115 0.87051 0.90204 0.0
H2381 H 0.73646 0.85843 0.87437 0.0
H2382 H 0.75475 0.7979 0.79775 0.0
H2383 H 0.74997 0.81966 0.82487 0.0
H2384 H 0.72113 0.78725 0.8735 0.0
C2385 C 0.72812 0.86227 0.91312 0.0
C2386 C 0.73263 0.84299 0.87434 0.0
C2387 C 0.73156 0.87148 0.93057 0.0
C2388 C 0.74365 0.79427 0.808 0.0
C2389 C 0.74081 0.80676 0.82355 0.0
C2390 C 0.72391 0.8029 0.8733 0.0
C2391 C 0.73341 0.84263 0.91012 0.0
C2392 C 0.73017 0.83276 0.89146 0.0
C2393 C 0.72748 0.80174 0.83788 0.0
C2394 C 0.72698 0.81291 0.85614 0.0
H2395 H 0.75217 0.83331 0.95373 0.0
H2396 H 0.74683 0.81748 0.92325 0.0
H2397 H 0.72285 0.80439 0.90346 0.0
H2398 H 0.71119 0.7583 0.81936 0.0
H2399 H 0.70516 0.78062 0.84571 0.0
C2400 C 0.80059 0.90688 0.01657 0.0
C2401 C 0.79768 0.89168 0.00342 0.0
C2402 C 0.81888 0.91529 0.01903 0.0
C2403 C 0.87096 0.90634 0.01166 0.0
H2404 H 0.8746 0.96272 0.01847 0.0
C2405 C 0.92719 0.97353 0.03384 0.0
C2406 C 0.94228 0.97054 0.02092 0.0
C2407 C 0.91109 0.96108 0.03387 0.0
C2408 C 0.87385 0.94691 0.01689 0.0
H2409 H 0.81155 0.87247 0.98326 0.0
H2410 H 0.84368 0.88749 0.98715 0.0
H2411 H 0.84334 0.9474 0.01304 0.0
H2412 H 0.95334 0.95107 -0.00076 0.0
H2413 H 0.92496 0.92928 -0.00086 0.0
H2414 H 0.90174 0.90609 0.01534 0.0
C2415 C 0.83182 0.89299 0.99555 0.0
C2416 C 0.85588 0.93812 0.01369 0.0
C2417 C 0.81346 0.88451 0.99317 0.0
C2418 C 0.94191 0.95366 0.00939 0.0
C2419 C 0.92562 0.94124 0.00928 0.0
C2420 C 0.88906 0.9152 0.01483 0.0
C2421 C 0.83474 0.90852 0.00851 0.0
C2422 C 0.85414 0.91772 0.01119 0.0
C2423 C 0.90962 0.94549 0.02081 0.0
C2424 C 0.89064 0.93558 0.01769 0.0
H2425 H 0.78873 0.9121 0.02516 0.0
H2426 H 0.82063 0.92691 0.02942 0.0
H2427 H 0.87011 0.89055 0.00995 0.0
H2428 H 0.92722 0.98631 0.04304 0.0
H2429 H 0.89924 0.96439 0.04332 0.0
C2430 C 0.31519 0.60367 0.99266 0.0
C2431 C 0.30134 0.5974 0.97933 0.0
C2432 C 0.33194 0.59296 0.99536 0.0
C2433 C 0.36298 0.55509 0.97459 0.0
H2434 H 0.3766 0.54607 0.02711 0.0
C2435 C 0.4277 0.50801 0.99466 0.0
C2436 C 0.44117 0.51919 0.00502 0.0
C2437 C 0.40871 0.51441 0.99306 0.0
C2438 C 0.37284 0.54838 0.01241 0.0
H2439 H 0.29498 0.57584 0.95736 0.0
H2440 H 0.32428 0.55721 0.96211 0.0
H2441 H 0.3481 0.56526 0.01964 0.0
H2442 H 0.44539 0.54451 0.02326 0.0
H2443 H 0.4121 0.55542 0.02093 0.0
H2444 H 0.38792 0.53842 0.96742 0.0
C2445 C 0.32208 0.57032 0.97054 0.0
C2446 C 0.3567 0.5595 0.00812 0.0
C2447 C 0.30528 0.581 0.96785 0.0
C2448 C 0.43517 0.53582 0.01507 0.0
C2449 C 0.41615 0.54195 0.01382 0.0
C2450 C 0.37907 0.54387 0.9789 0.0
C2451 C 0.33523 0.57583 0.98476 0.0
C2452 C 0.35186 0.5633 0.98917 0.0
C2453 C 0.40299 0.53176 0.00219 0.0
C2454 C 0.38431 0.54075 -0.00217 0.0
H2455 H 0.31271 0.61631 0.00167 0.0
H2456 H 0.3421 0.59781 0.00611 0.0
H2457 H 0.35963 0.55788 0.95988 0.0
H2458 H 0.43215 0.49514 0.9868 0.0
H2459 H 0.39871 0.5063 0.98409 0.0
C2460 C 0.12446 0.57905 0.7603 0.0
C2461 C 0.13489 0.56267 0.75428 0.0
C2462 C 0.13122 0.59795 0.75622 0.0
C2463 C 0.15566 0.63594 0.75191 0.0
H2464 H 0.17139 0.64262 0.69954 0.0
C2465 C 0.21388 0.68485 0.71309 0.0
C2466 C 0.21111 0.70246 0.72306 0.0
C2467 C 0.19942 0.67051 0.71273 0.0
C2468 C 0.1669 0.64104 0.71415 0.0
H2469 H 0.16029 0.55282 0.7393 0.0
H2470 H 0.17231 0.5858 0.73243 0.0
H2471 H 0.15795 0.6112 0.70987 0.0
H2472 H 0.19016 0.72016 0.73803 0.0
H2473 H 0.16476 0.69506 0.73726 0.0
H2474 H 0.16557 0.66534 0.75653 0.0
C2475 C 0.15901 0.58412 0.74035 0.0
C2476 C 0.15935 0.62305 0.72008 0.0
C2477 C 0.15233 0.56532 0.74454 0.0
C2478 C 0.19276 0.70659 0.73044 0.0
C2479 C 0.17827 0.69218 0.73013 0.0
C2480 C 0.16336 0.6539 0.74602 0.0
C2481 C 0.1482 0.60055 0.74563 0.0
C2482 C 0.15423 0.6202 0.73912 0.0
C2483 C 0.18195 0.67356 0.72234 0.0
C2484 C 0.16964 0.65643 0.72722 0.0
H2485 H 0.11078 0.57719 0.76754 0.0
H2486 H 0.12269 0.61044 0.76044 0.0
H2487 H 0.15179 0.63404 0.76666 0.0
H2488 H 0.22779 0.68143 0.70699 0.0
H2489 H 0.20275 0.65637 0.70655 0.0
C2490 C 0.18027 0.38388 0.5102 0.0
C2491 C 0.1938 0.39895 0.50644 0.0
C2492 C 0.16155 0.38835 0.51607 0.0
C2493 C 0.13245 0.42794 0.53698 0.0
H2494 H 0.0916 0.40921 0.50385 0.0
C2495 C 0.07768 0.47601 0.50565 0.0
C2496 C 0.06042 0.46848 0.49825 0.0
C2497 C 0.08935 0.46428 0.51677 0.0
C2498 C 0.10255 0.41411 0.5138 0.0
H2499 H 0.19827 0.43051 0.50608 0.0
H2500 H 0.16568 0.43825 0.51634 0.0
H2501 H 0.123 0.3938 0.50264 0.0
H2502 H 0.04056 0.44376 0.4979 0.0
H2503 H 0.06136 0.42275 0.5171 0.0
H2504 H 0.11237 0.44912 0.54722 0.0
C2505 C 0.16962 0.42299 0.51489 0.0
C2506 C 0.12064 0.40533 0.51298 0.0
C2507 C 0.18821 0.41855 0.50874 0.0
C2508 C 0.05393 0.44974 0.50355 0.0
C2509 C 0.06581 0.43778 0.51448 0.0
C2510 C 0.11432 0.4366 0.53793 0.0
C2511 C 0.15612 0.40795 0.51864 0.0
C2512 C 0.13606 0.41308 0.52363 0.0
C2513 C 0.08417 0.4446 0.52023 0.0
C2514 C 0.09965 0.43074 0.5253 0.0
H2515 H 0.18412 0.36861 0.50857 0.0
H2516 H 0.15135 0.37651 0.5187 0.0
H2517 H 0.14403 0.43383 0.54569 0.0
H2518 H 0.08282 0.4905 0.50169 0.0
H2519 H 0.10338 0.47005 0.52084 0.0
C2520 C 0.8424 0.93856 0.74712 0.0
C2521 C 0.8613 0.94283 0.75299 0.0
C2522 C 0.83421 0.92011 0.75053 0.0
C2523 C 0.84174 0.86982 0.75144 0.0
H2524 H 0.79623 0.86626 0.78326 0.0
C2525 C 0.79055 0.80303 0.74636 0.0
C2526 C 0.77167 0.80909 0.74267 0.0
C2527 C 0.80411 0.81638 0.75389 0.0
C2528 C 0.80901 0.86692 0.77445 0.0
H2529 H 0.88713 0.93088 0.76543 0.0
H2530 H 0.87282 0.89814 0.77101 0.0
H2531 H 0.81561 0.89635 0.78311 0.0
H2532 H 0.75163 0.83304 0.74485 0.0
H2533 H 0.7749 0.85617 0.75808 0.0
H2534 H 0.83428 0.84101 0.74145 0.0
C2535 C 0.86421 0.90938 0.76445 0.0
C2536 C 0.8201 0.88413 0.77443 0.0
C2537 C 0.87233 0.92799 0.76127 0.0
C2538 C 0.76612 0.82807 0.74775 0.0
C2539 C 0.77948 0.84127 0.75544 0.0
C2540 C 0.83049 0.85263 0.75123 0.0
C2541 C 0.845 0.90544 0.75931 0.0
C2542 C 0.83608 0.88597 0.7624 0.0
C2543 C 0.79882 0.83585 0.75795 0.0
C2544 C 0.81348 0.85137 0.76209 0.0
H2545 H 0.83398 0.94951 0.7399 0.0
H2546 H 0.81947 0.91721 0.74613 0.0
H2547 H 0.85403 0.87101 0.742 0.0
H2548 H 0.79513 0.78851 0.74218 0.0
H2549 H 0.81888 0.81175 0.75572 0.0
C2550 C 0.6837 0.12737 0.49034 0.0
C2551 C 0.69808 0.11489 0.49698 0.0
C2552 C 0.66427 0.1224 0.49295 0.0
C2553 C 0.62786 0.09675 0.48752 0.0
H2554 H 0.60957 0.07371 0.53445 0.0
C2555 C 0.58132 0.02797 0.49548 0.0
C2556 C 0.56264 0.03058 0.50271 0.0
C2557 C 0.59464 0.04338 0.49586 0.0
C2558 C 0.61432 0.08053 0.52141 0.0
H2559 H 0.70403 0.08869 0.51298 0.0
H2560 H 0.67014 0.0799 0.51758 0.0
H2561 H 0.63988 0.09257 0.53417 0.0
H2562 H 0.54332 0.0512 0.51624 0.0
H2563 H 0.56717 0.07818 0.51739 0.0
H2564 H 0.60317 0.08315 0.47447 0.0
C2565 C 0.6737 0.09334 0.51017 0.0
C2566 C 0.63162 0.09117 0.5212 0.0
C2567 C 0.69302 0.09814 0.50728 0.0
C2568 C 0.55762 0.04885 0.51053 0.0
C2569 C 0.57113 0.06423 0.51118 0.0
C2570 C 0.61074 0.08584 0.48767 0.0
C2571 C 0.65916 0.10528 0.50284 0.0
C2572 C 0.63892 0.09861 0.50409 0.0
C2573 C 0.58961 0.06153 0.50367 0.0
C2574 C 0.60429 0.07712 0.50449 0.0
H2575 H 0.68749 0.14064 0.48275 0.0
H2576 H 0.65327 0.13179 0.48718 0.0
H2577 H 0.63319 0.10237 0.47418 0.0
H2578 H 0.58558 0.01413 0.48924 0.0
H2579 H 0.60898 0.0411 0.49017 0.0
C2580 C 0.16925 0.45635 0.75898 0.0
C2581 C 0.14959 0.46015 0.75624 0.0
C2582 C 0.17633 0.43754 0.75607 0.0
C2583 C 0.16445 0.3899 0.76603 0.0
H2584 H 0.20367 0.37219 0.73086 0.0
C2585 C 0.19337 0.31233 0.77098 0.0
C2586 C 0.21284 0.30904 0.76678 0.0
C2587 C 0.18505 0.33024 0.76701 0.0
C2588 C 0.19291 0.37701 0.74093 0.0
H2589 H 0.12196 0.44745 0.74798 0.0
H2590 H 0.13432 0.41415 0.74394 0.0
H2591 H 0.18987 0.40491 0.7273 0.0
H2592 H 0.239 0.32182 0.75517 0.0
H2593 H 0.22483 0.35402 0.7496 0.0
H2594 H 0.16827 0.36315 0.78073 0.0
C2595 C 0.1442 0.42596 0.74778 0.0
C2596 C 0.18488 0.39555 0.7387 0.0
C2597 C 0.13717 0.44489 0.75023 0.0
C2598 C 0.224 0.32414 0.75874 0.0
C2599 C 0.21577 0.34243 0.7553 0.0
C2600 C 0.17277 0.37168 0.76858 0.0
C2601 C 0.16378 0.42222 0.7508 0.0
C2602 C 0.17068 0.40204 0.75131 0.0
C2603 C 0.19614 0.34563 0.75934 0.0
C2604 C 0.18717 0.36498 0.75613 0.0
H2605 H 0.17917 0.46785 0.76345 0.0
H2606 H 0.19144 0.43475 0.75874 0.0
H2607 H 0.15374 0.3949 0.77609 0.0
H2608 H 0.18424 0.30074 0.77662 0.0
H2609 H 0.16978 0.33183 0.76972 0.0
C2610 C 0.33322 0.55276 0.24776 0.0
C2611 C 0.35276 0.5476 0.24799 0.0
C2612 C 0.3278 0.57163 0.24262 0.0
C2613 C 0.33846 0.62117 0.2463 0.0
H2614 H 0.30333 0.62753 0.20411 0.0
C2615 C 0.28755 0.68591 0.24599 0.0
C2616 C 0.26852 0.6788 0.24507 0.0
C2617 C 0.30273 0.67426 0.23948 0.0
C2618 C 0.31332 0.62613 0.2158 0.0
H2619 H 0.382 0.55829 0.2434 0.0
H2620 H 0.37237 0.59182 0.23523 0.0
H2621 H 0.32125 0.59706 0.20733 0.0
H2622 H 0.24998 0.65514 0.23531 0.0
H2623 H 0.2761 0.63498 0.22373 0.0
H2624 H 0.32914 0.64927 0.25596 0.0
C2625 C 0.36137 0.58096 0.23859 0.0
C2626 C 0.32359 0.60875 0.21757 0.0
C2627 C 0.36682 0.56186 0.2433 0.0
C2628 C 0.26461 0.66089 0.23601 0.0
C2629 C 0.27964 0.64941 0.2293 0.0
C2630 C 0.32797 0.63848 0.2447 0.0
C2631 C 0.3418 0.58584 0.23799 0.0
C2632 C 0.33551 0.60581 0.23331 0.0
C2633 C 0.29895 0.65546 0.23187 0.0
C2634 C 0.31444 0.64066 0.23 0.0
H2635 H 0.32205 0.54212 0.2512 0.0
H2636 H 0.31261 0.57522 0.24243 0.0
H2637 H 0.34755 0.61912 0.25859 0.0
H2638 H 0.29082 0.69963 0.25319 0.0
H2639 H 0.31743 0.67941 0.24152 0.0
C2640 C 0.48947 0.68102 0.62081 0.0
C2641 C 0.49534 0.69738 0.61024 0.0
C2642 C 0.49348 0.66206 0.61433 0.0
C2643 C 0.52364 0.63474 0.57934 0.0
H2644 H 0.48084 0.59764 0.57964 0.0
C2645 C 0.5043 0.58153 0.52025 0.0
C2646 C 0.49588 0.56331 0.52451 0.0
C2647 C 0.51067 0.59394 0.53474 0.0
C2648 C 0.49315 0.60758 0.57989 0.0
H2649 H 0.51153 0.70711 0.58576 0.0
H2650 H 0.5179 0.67421 0.57397 0.0
H2651 H 0.47844 0.62808 0.59755 0.0
H2652 H 0.48863 0.54293 0.54686 0.0
H2653 H 0.4993 0.56503 0.57251 0.0
H2654 H 0.5376 0.61481 0.56032 0.0
C2655 C 0.51021 0.67576 0.58723 0.0
C2656 C 0.49176 0.62509 0.59013 0.0
C2657 C 0.50622 0.69463 0.59374 0.0
C2658 C 0.49528 0.5569 0.54334 0.0
C2659 C 0.50127 0.56954 0.55795 0.0
C2660 C 0.52491 0.61733 0.5689 0.0
C2661 C 0.50374 0.65921 0.59733 0.0
C2662 C 0.50669 0.63922 0.58939 0.0
C2663 C 0.50824 0.5885 0.55376 0.0
C2664 C 0.50938 0.60393 0.56854 0.0
H2665 H 0.48155 0.6829 0.6339 0.0
H2666 H 0.48855 0.64965 0.62261 0.0
H2667 H 0.53561 0.64508 0.57886 0.0
H2668 H 0.50475 0.58671 0.50577 0.0
H2669 H 0.51581 0.60851 0.53109 0.0
C2670 C 0.54683 0.22477 0.83438 0.0
C2671 C 0.54579 0.23989 0.84787 0.0
C2672 C 0.56277 0.22348 0.82237 0.0
C2673 C 0.61254 0.24345 0.81474 0.0
H2674 H 0.60352 0.22441 0.76356 0.0
C2675 C 0.67295 0.24383 0.76069 0.0
C2676 C 0.6789 0.22429 0.75879 0.0
C2677 C 0.65437 0.2479 0.7671 0.0
C2678 C 0.60608 0.22999 0.77774 0.0
H2679 H 0.56069 0.26519 0.85985 0.0
H2680 H 0.58801 0.26356 0.83845 0.0
H2681 H 0.57653 0.22659 0.78573 0.0
H2682 H 0.66959 0.19385 0.75945 0.0
H2683 H 0.6368 0.20105 0.76993 0.0
H2684 H 0.64204 0.24717 0.80649 0.0
C2685 C 0.57694 0.25227 0.83736 0.0
C2686 C 0.59076 0.23095 0.79057 0.0
C2687 C 0.56123 0.25325 0.84966 0.0
C2688 C 0.66531 0.20902 0.76091 0.0
C2689 C 0.64659 0.21313 0.76685 0.0
C2690 C 0.62769 0.24294 0.8018 0.0
C2691 C 0.57775 0.2376 0.82329 0.0
C2692 C 0.59387 0.23732 0.80937 0.0
C2693 C 0.64143 0.23249 0.7711 0.0
C2694 C 0.62463 0.23593 0.78333 0.0
H2695 H 0.53514 0.2142 0.83285 0.0
H2696 H 0.56316 0.21158 0.81217 0.0
H2697 H 0.61566 0.2481 0.82911 0.0
H2698 H 0.6832 0.25586 0.7592 0.0
H2699 H 0.6506 0.26293 0.77033 0.0
C2700 C 0.99465 0.31493 0.10025 0.0
C2701 C 0.98163 0.30097 0.09281 0.0
C2702 C 0.99265 0.33483 0.0961 0.0
C2703 C 0.97034 0.36751 0.06083 0.0
H2704 H 0.98982 0.40775 0.09509 0.0
C2705 C 0.9856 0.44351 0.0325 0.0
C2706 C 0.00565 0.44625 0.03348 0.0
C2707 C 0.97642 0.43019 0.04469 0.0
C2708 C 0.98397 0.39672 0.08551 0.0
H2709 H 0.95584 0.29701 0.07576 0.0
H2710 H 0.95201 0.33169 0.06897 0.0
H2711 H 0.98592 0.37408 0.10626 0.0
H2712 H 0.03147 0.43968 0.04929 0.0
H2713 H 0.01552 0.41709 0.0709 0.0
H2714 H 0.96899 0.39 0.03995 0.0
C2715 C 0.96414 0.32729 0.07754 0.0
C2716 C 0.98198 0.37738 0.0918 0.0
C2717 C 0.96635 0.30737 0.08142 0.0
C2718 C 0.01597 0.43765 0.04826 0.0
C2719 C 0.00679 0.42479 0.06069 0.0
C2720 C 0.97208 0.38687 0.05465 0.0
C2721 C 0.97735 0.34131 0.08468 0.0
C2722 C 0.97602 0.36236 0.07926 0.0
C2723 C 0.98721 0.41994 0.05823 0.0
C2724 C 0.97977 0.40148 0.06665 0.0
H2725 H 0.00658 0.31045 0.10906 0.0
H2726 H 0.00339 0.34506 0.10152 0.0
H2727 H 0.96582 0.35643 0.05067 0.0
H2728 H 0.9774 0.45008 0.0212 0.0
H2729 H 0.96127 0.42678 0.04259 0.0
C2730 C 0.91915 0.74455 0.37399 0.0
C2731 C 0.93612 0.74908 0.36393 0.0
C2732 C 0.90124 0.74536 0.365 0.0
C2733 C 0.87806 0.7751 0.3319 0.0
H2734 H 0.84043 0.73394 0.32145 0.0
C2735 C 0.82024 0.78122 0.27513 0.0
C2736 C 0.8028 0.77077 0.27708 0.0
C2737 C 0.83425 0.78036 0.28921 0.0
C2738 C 0.85055 0.7457 0.32471 0.0
H2739 H 0.94782 0.7567 0.33635 0.0
H2740 H 0.91647 0.75857 0.32089 0.0
H2741 H 0.87003 0.72617 0.33858 0.0
H2742 H 0.78571 0.75256 0.29582 0.0
H2743 H 0.81002 0.75134 0.32071 0.0
H2744 H 0.85886 0.79469 0.31811 0.0
C2745 C 0.91712 0.75428 0.33563 0.0
C2746 C 0.86751 0.74116 0.33433 0.0
C2747 C 0.935 0.75311 0.34447 0.0
C2748 C 0.79896 0.76082 0.29404 0.0
C2749 C 0.81299 0.75993 0.30816 0.0
C2750 C 0.86105 0.7797 0.32255 0.0
C2751 C 0.90016 0.75103 0.346 0.0
C2752 C 0.88153 0.75576 0.33748 0.0
C2753 C 0.83107 0.76904 0.30552 0.0
C2754 C 0.84736 0.76495 0.31837 0.0
H2755 H 0.91965 0.74125 0.38896 0.0
H2756 H 0.88822 0.74275 0.37314 0.0
H2757 H 0.88869 0.78658 0.33451 0.0
H2758 H 0.82354 0.78914 0.26225 0.0
H2759 H 0.84806 0.78747 0.28665 0.0
C2760 C 0.51164 0.31319 0.89515 0.0
C2761 C 0.49907 0.30778 0.88052 0.0
C2762 C 0.51371 0.33276 0.90035 0.0
C2763 C 0.48427 0.37652 0.90093 0.0
H2764 H 0.527 0.39373 0.93252 0.0
C2765 C 0.48417 0.43783 0.96013 0.0
C2766 C 0.48892 0.42946 0.97769 0.0
C2767 C 0.48591 0.42695 0.94341 0.0
C2768 C 0.51506 0.38927 0.92352 0.0
H2769 H 0.48076 0.31826 0.85806 0.0
H2770 H 0.48425 0.35295 0.86719 0.0
H2771 H 0.53218 0.36859 0.90846 0.0
H2772 H 0.49812 0.40284 0.9916 0.0
H2773 H 0.50124 0.38395 0.96235 0.0
H2774 H 0.46708 0.39689 0.91666 0.0
C2775 C 0.4921 0.34202 0.87503 0.0
C2776 C 0.51796 0.37487 0.9098 0.0
C2777 C 0.49005 0.32227 0.86982 0.0
C2778 C 0.49435 0.40971 0.97833 0.0
C2779 C 0.49633 0.39897 0.96163 0.0
C2780 C 0.48144 0.39116 0.91452 0.0
C2781 C 0.50343 0.34739 0.89081 0.0
C2782 C 0.50224 0.36722 0.89945 0.0
C2783 C 0.49266 0.40771 0.94408 0.0
C2784 C 0.49655 0.39662 0.92665 0.0
H2785 H 0.51928 0.30216 0.90309 0.0
H2786 H 0.52236 0.33613 0.91274 0.0
H2787 H 0.47189 0.37122 0.89301 0.0
H2788 H 0.47986 0.45302 0.95921 0.0
H2789 H 0.48283 0.4338 0.92996 0.0
C2790 C 0.9305 0.25686 0.15108 0.0
C2791 C 0.93092 0.25197 0.13173 0.0
C2792 C 0.91337 0.2627 0.15969 0.0
C2793 C 0.86084 0.25865 0.15523 0.0
H2794 H 0.86284 0.29617 0.19671 0.0
C2795 C 0.79936 0.26154 0.20851 0.0
C2796 C 0.80694 0.25555 0.22587 0.0
C2797 C 0.81162 0.26919 0.19453 0.0
C2798 C 0.86194 0.28595 0.18493 0.0
H2799 H 0.91349 0.24932 0.10627 0.0
H2800 H 0.88354 0.2595 0.12139 0.0
H2801 H 0.89075 0.29258 0.17592 0.0
H2802 H 0.83247 0.25503 0.24346 0.0
H2803 H 0.85375 0.26893 0.21954 0.0
H2804 H 0.83239 0.25134 0.16483 0.0
C2805 C 0.89652 0.25874 0.12988 0.0
C2806 C 0.87797 0.28373 0.17315 0.0
C2807 C 0.91369 0.25285 0.12124 0.0
C2808 C 0.82638 0.25941 0.23002 0.0
C2809 C 0.83851 0.26751 0.21635 0.0
C2810 C 0.84476 0.26097 0.16694 0.0
C2811 C 0.8962 0.26387 0.14919 0.0
C2812 C 0.87795 0.26931 0.15882 0.0
C2813 C 0.8315 0.27144 0.19812 0.0
C2814 C 0.84556 0.2739 0.1825 0.0
H2815 H 0.94344 0.25632 0.15963 0.0
H2816 H 0.91356 0.26602 0.1747 0.0
H2817 H 0.86031 0.24742 0.14433 0.0
H2818 H 0.78439 0.25867 0.20529 0.0
H2819 H 0.80584 0.27218 0.18061 0.0
C2820 C -0.00293 0.69451 0.40461 0.0
C2821 C 0.99492 0.71176 0.41529 0.0
C2822 C 0.00157 0.67695 0.41346 0.0
C2823 C 0.00297 0.65218 0.45997 0.0
H2824 H 0.03698 0.61751 0.43235 0.0
C2825 C 0.01017 0.57043 0.4774 0.0
C2826 C 0.02719 0.56069 0.47244 0.0
C2827 C 0.00815 0.59032 0.4735 0.0
C2828 C 0.02782 0.62712 0.44053 0.0
H2829 H 0.99539 0.72416 0.44364 0.0
H2830 H 0.00394 0.69353 0.4591 0.0
H2831 H 0.02953 0.64925 0.41939 0.0
H2832 H 0.05605 0.56431 0.46112 0.0
H2833 H 0.05293 0.59932 0.45514 0.0
H2834 H 0.00177 0.63018 0.48142 0.0
C2835 C 0.00177 0.69349 0.44392 0.0
C2836 C 0.0232 0.64523 0.43286 0.0
C2837 C -0.00306 0.71105 0.43507 0.0
C2838 C 0.04266 0.57144 0.46477 0.0
C2839 C 0.0408 0.59145 0.46126 0.0
C2840 C 0.00783 0.63413 0.46781 0.0
C2841 C 0.00439 0.6763 0.43316 0.0
C2842 C 0.01035 0.65776 0.44223 0.0
C2843 C 0.02326 0.60097 0.46489 0.0
C2844 C 0.01999 0.62119 0.45798 0.0
H2845 H 0.99526 0.69455 0.38938 0.0
H2846 H 0.00287 0.66387 0.40479 0.0
H2847 H 0.99298 0.66146 0.46755 0.0
H2848 H -0.00202 0.56246 0.48331 0.0
H2849 H 0.99435 0.59701 0.4763 0.0
C2850 C 0.54576 0.77374 0.66321 0.0
C2851 C 0.54401 0.76147 0.64724 0.0
C2852 C 0.56234 0.77332 0.67442 0.0
C2853 C 0.5998 0.74016 0.68942 0.0
H2854 H 0.62818 0.78706 0.70423 0.0
C2855 C 0.67605 0.73908 0.72199 0.0
C2856 C 0.68245 0.75566 0.73212 0.0
C2857 C 0.65717 0.73817 0.71504 0.0
C2858 C 0.62019 0.7738 0.70071 0.0
H2859 H 0.55844 0.73961 0.63009 0.0
H2860 H 0.58737 0.7387 0.64989 0.0
H2861 H 0.6001 0.7898 0.6839 0.0
H2862 H 0.67395 0.78311 0.74489 0.0
H2863 H 0.64059 0.78088 0.73411 0.0
H2864 H 0.61961 0.72411 0.70643 0.0
C2865 C 0.57589 0.74863 0.65367 0.0
C2866 C 0.6042 0.77542 0.68885 0.0
C2867 C 0.55946 0.74933 0.64224 0.0
C2868 C 0.66922 0.77016 0.73714 0.0
C2869 C 0.65024 0.76903 0.73062 0.0
C2870 C 0.61562 0.73854 0.70157 0.0
C2871 C 0.5773 0.76034 0.67004 0.0
C2872 C 0.59403 0.75861 0.68289 0.0
C2873 C 0.64435 0.75371 0.71839 0.0
C2874 C 0.62619 0.75533 0.70721 0.0
H2875 H 0.53405 0.78322 0.66739 0.0
H2876 H 0.56312 0.78251 0.68696 0.0
H2877 H 0.59196 0.72699 0.68523 0.0
H2878 H 0.68616 0.72788 0.71773 0.0
H2879 H 0.65327 0.72612 0.70569 0.0
C2880 C 0.60443 0.499 0.68931 0.0
C2881 C 0.59729 0.48861 0.705 0.0
C2882 C 0.59326 0.50084 0.67297 0.0
C2883 C 0.55339 0.47954 0.64571 0.0
H2884 H 0.54736 0.53244 0.62682 0.0
C2885 C 0.51036 0.49245 0.5777 0.0
C2886 C 0.51977 0.50472 0.56469 0.0
C2887 C 0.51606 0.49247 0.59673 0.0
C2888 C 0.54895 0.51756 0.63182 0.0
H2889 H 0.57332 0.47105 0.71547 0.0
H2890 H 0.55403 0.47377 0.68659 0.0
H2891 H 0.56642 0.52692 0.65529 0.0
H2892 H 0.54156 0.52735 0.56123 0.0
H2893 H 0.55162 0.52745 0.59419 0.0
H2894 H 0.53676 0.46996 0.62186 0.0
C2895 C 0.56815 0.48072 0.6871 0.0
C2896 C 0.55989 0.51442 0.64812 0.0
C2897 C 0.5792 0.47915 0.7036 0.0
C2898 C 0.53387 0.51803 0.57116 0.0
C2899 C 0.53964 0.51802 0.5901 0.0
C2900 C 0.54267 0.48264 0.62924 0.0
C2901 C 0.57485 0.49206 0.67185 0.0
C2902 C 0.56247 0.49535 0.65506 0.0
C2903 C 0.53144 0.50458 0.60296 0.0
C2904 C 0.54056 0.50167 0.62188 0.0
H2905 H 0.61828 0.50651 0.68996 0.0
H2906 H 0.59888 0.50942 0.66129 0.0
H2907 H 0.55519 0.46469 0.65075 0.0
H2908 H 0.49967 0.48182 0.57289 0.0
H2909 H 0.50913 0.48223 0.60631 0.0
C2910 C 0.75468 0.37399 0.9172 0.0
C2911 C 0.74886 0.36515 0.93427 0.0
C2912 C 0.75282 0.3638 0.90003 0.0
C2913 C 0.72896 0.32033 0.87798 0.0
H2914 H 0.77446 0.31894 0.84599 0.0
C2915 C 0.74366 0.2564 0.82792 0.0
C2916 C 0.74794 0.26098 0.80899 0.0
C2917 C 0.74349 0.27108 0.84171 0.0
C2918 C 0.76158 0.31941 0.85467 0.0
H2919 H 0.73563 0.33909 0.94651 0.0
H2920 H 0.73264 0.32143 0.91682 0.0
H2921 H 0.77324 0.34203 0.87262 0.0
H2922 H 0.75631 0.28445 0.78987 0.0
H2923 H 0.75631 0.31011 0.81425 0.0
H2924 H 0.71768 0.29714 0.86055 0.0
C2925 C 0.73849 0.33623 0.91659 0.0
C2926 C 0.76082 0.33266 0.86983 0.0
C2927 C 0.74036 0.34633 0.93368 0.0
C2928 C 0.75289 0.28045 0.80432 0.0
C2929 C 0.75292 0.29513 0.81823 0.0
C2930 C 0.7298 0.30701 0.86298 0.0
C2931 C 0.745 0.34469 0.89962 0.0
C2932 C 0.74468 0.33289 0.88193 0.0
C2933 C 0.74778 0.2906 0.83693 0.0
C2934 C 0.7463 0.30611 0.8515 0.0
H2935 H 0.76123 0.38849 0.91715 0.0
H2936 H 0.75778 0.37076 0.88713 0.0
H2937 H 0.71617 0.32043 0.8868 0.0
H2938 H 0.73987 0.24157 0.83205 0.0
H2939 H 0.7398 0.26719 0.85614 0.0
C2940 C 0.922 0.52449 0.20108 0.0
C2941 C 0.90786 0.50964 0.20259 0.0
C2942 C 0.93312 0.5262 0.18464 0.0
C2943 C 0.95416 0.49797 0.14724 0.0
H2944 H 0.95256 0.54456 0.11616 0.0
C2945 C 0.9818 0.49913 0.07038 0.0
C2946 C 0.98622 0.51723 0.06201 0.0
C2947 C 0.9759 0.49836 0.08929 0.0
C2948 C 0.95371 0.53161 0.12486 0.0
H2949 H 0.89408 0.48508 0.18811 0.0
H2950 H 0.91396 0.48777 0.15955 0.0
H2951 H 0.93424 0.54337 0.14551 0.0
H2952 H 0.99003 0.54836 0.067 0.0
H2953 H 0.98137 0.54692 0.10042 0.0
H2954 H 0.97395 0.48625 0.12705 0.0
C2955 C 0.91626 0.49813 0.17105 0.0
C2956 C 0.94299 0.53092 0.14158 0.0
C2957 C 0.90484 0.4967 0.18729 0.0
C2958 C 0.98658 0.53425 0.07322 0.0
C2959 C 0.98128 0.53341 0.09228 0.0
C2960 C 0.96527 0.4988 0.13074 0.0
C2961 C 0.93056 0.51279 0.16968 0.0
C2962 C 0.94286 0.51397 0.15268 0.0
C2963 C 0.97478 0.51564 0.10029 0.0
C2964 C 0.96492 0.5155 0.11908 0.0
H2965 H 0.92457 0.53469 0.21266 0.0
H2966 H 0.94406 0.53765 0.18379 0.0
H2967 H 0.95437 0.48481 0.15578 0.0
H2968 H 0.9812 0.48584 0.06188 0.0
H2969 H 0.97092 0.48438 0.09475 0.0
C2970 C 0.75547 0.6659 0.43803 0.0
C2971 C 0.76251 0.64671 0.43887 0.0
C2972 C 0.75762 0.67686 0.42146 0.0
C2973 C 0.78326 0.68314 0.37679 0.0
H2974 H 0.7329 0.69238 0.35489 0.0
C2975 C 0.75555 0.73084 0.31216 0.0
C2976 C 0.74546 0.71921 0.29896 0.0
C2977 C 0.76377 0.72229 0.32815 0.0
C2978 C 0.74704 0.68994 0.36091 0.0
H2979 H 0.7785 0.6244 0.42379 0.0
H2980 H 0.78276 0.64385 0.39501 0.0
H2981 H 0.73522 0.67894 0.38679 0.0
H2982 H 0.73676 0.68964 0.29134 0.0
H2983 H 0.7509 0.67465 0.31945 0.0
H2984 H 0.79497 0.69444 0.35069 0.0
C2985 C 0.77543 0.65028 0.40704 0.0
C2986 C 0.74836 0.68245 0.37915 0.0
C2987 C 0.77286 0.63915 0.42341 0.0
C2988 C 0.74493 0.69878 0.30113 0.0
C2989 C 0.75294 0.69025 0.31719 0.0
C2990 C 0.78193 0.69109 0.35856 0.0
C2991 C 0.76729 0.66895 0.40572 0.0
C2992 C 0.76644 0.67879 0.38718 0.0
C2993 C 0.76158 0.70207 0.33122 0.0
C2994 C 0.76376 0.69421 0.35046 0.0
H2995 H 0.74735 0.67199 0.44974 0.0
H2996 H 0.75114 0.69121 0.42066 0.0
H2997 H 0.79735 0.68032 0.38275 0.0
H2998 H 0.75538 0.74669 0.31112 0.0
H2999 H 0.77007 0.73167 0.339 0.0
C3000 C 0.61458 0.48746 0.82876 0.0
C3001 C 0.60667 0.49646 0.81277 0.0
C3002 C 0.60312 0.48358 0.84464 0.0
C3003 C 0.55162 0.48301 0.86131 0.0
H3004 H 0.57557 0.48998 0.91052 0.0
C3005 C 0.51442 0.51093 0.92867 0.0
C3006 C 0.51859 0.50193 0.94601 0.0
C3007 C 0.52319 0.50455 0.91201 0.0
C3008 C 0.56875 0.48758 0.89689 0.0
H3009 H 0.58073 0.50862 0.80079 0.0
H3010 H 0.56102 0.5031 0.82883 0.0
H3011 H 0.59544 0.49091 0.88221 0.0
H3012 H 0.53428 0.47849 0.95944 0.0
H3013 H 0.55031 0.46777 0.93018 0.0
H3014 H 0.52468 0.48132 0.87626 0.0
C3015 C 0.5758 0.49818 0.82898 0.0
C3016 C 0.58014 0.48808 0.88058 0.0
C3017 C 0.58714 0.50159 0.81294 0.0
C3018 C 0.53088 0.48569 0.94624 0.0
C3019 C 0.54003 0.47959 0.92957 0.0
C3020 C 0.54019 0.48293 0.87763 0.0
C3021 C 0.58361 0.48908 0.84508 0.0
C3022 C 0.5717 0.48628 0.8625 0.0
C3023 C 0.53658 0.4893 0.91241 0.0
C3024 C 0.54864 0.48562 0.89552 0.0
H3025 H 0.62954 0.48304 0.82886 0.0
H3026 H 0.60962 0.47617 0.85651 0.0
H3027 H 0.5446 0.48098 0.84774 0.0
H3028 H 0.50485 0.52336 0.92808 0.0
H3029 H 0.52039 0.51237 0.89899 0.0
C3030 C 0.75079 0.34767 0.05799 0.0
C3031 C 0.74501 0.34022 0.04029 0.0
C3032 C 0.74988 0.33587 0.07406 0.0
C3033 C 0.72691 0.29157 0.09381 0.0
H3034 H 0.76861 0.29647 0.1302 0.0
C3035 C 0.75124 0.26526 0.17402 0.0
C3036 C 0.73437 0.27079 0.18356 0.0
C3037 C 0.75298 0.26815 0.15447 0.0
C3038 C 0.75704 0.29456 0.12003 0.0
H3039 H 0.73331 0.31473 0.02557 0.0
H3040 H 0.73179 0.29405 0.0537 0.0
H3041 H 0.77088 0.31362 0.10013 0.0
H3042 H 0.70521 0.28132 0.17974 0.0
H3043 H 0.70815 0.28617 0.1459 0.0
H3044 H 0.71291 0.27281 0.11396 0.0
C3045 C 0.73693 0.30905 0.05515 0.0
C3046 C 0.7582 0.30466 0.10292 0.0
C3047 C 0.7378 0.3209 0.03905 0.0
C3048 C 0.71859 0.27729 0.17289 0.0
C3049 C 0.7202 0.2799 0.15341 0.0
C3050 C 0.72574 0.28148 0.11096 0.0
C3051 C 0.74324 0.31633 0.07278 0.0
C3052 C 0.74289 0.30377 0.08988 0.0
C3053 C 0.73769 0.2762 0.14411 0.0
C3054 C 0.74054 0.28335 0.12449 0.0
H3055 H 0.75629 0.36254 0.05943 0.0
H3056 H 0.75439 0.34208 0.08752 0.0
H3057 H 0.7149 0.29055 0.08405 0.0
H3058 H 0.76346 0.25981 0.18171 0.0
H3059 H 0.76655 0.26487 0.1476 0.0
C3060 C 0.87755 0.51017 0.32673 0.0
C3061 C 0.88807 0.50797 0.30983 0.0
C3062 C 0.88693 0.50979 0.34424 0.0
C3063 C 0.93586 0.51116 0.36612 0.0
H3064 H 0.91182 0.47937 0.40522 0.0
C3065 C 0.98079 0.4767 0.42283 0.0
C3066 C 0.97769 0.48504 0.4408 0.0
C3067 C 0.96697 0.47841 0.4087 0.0
C3068 C 0.91855 0.48837 0.39443 0.0
H3069 H 0.91677 0.50436 0.29808 0.0
H3070 H 0.93291 0.50313 0.32832 0.0
H3071 H 0.89362 0.48731 0.37656 0.0
H3072 H 0.95675 0.49953 0.45875 0.0
H3073 H 0.9324 0.50244 0.43379 0.0
H3074 H 0.96106 0.51132 0.38353 0.0
C3075 C 0.91752 0.50566 0.32821 0.0
C3076 C 0.90816 0.49308 0.37812 0.0
C3077 C 0.90821 0.5063 0.31078 0.0
C3078 C 0.95959 0.49312 0.44499 0.0
C3079 C 0.94567 0.49479 0.43076 0.0
C3080 C 0.94626 0.50619 0.38218 0.0
C3081 C 0.90697 0.50701 0.34518 0.0
C3082 C 0.91688 0.50418 0.36358 0.0
C3083 C 0.94976 0.48832 0.41232 0.0
C3084 C 0.93783 0.49445 0.39624 0.0
H3085 H 0.86201 0.51159 0.32645 0.0
H3086 H 0.87844 0.51124 0.35704 0.0
H3087 H 0.94287 0.52015 0.35548 0.0
H3088 H 0.99444 0.47003 0.41928 0.0
H3089 H 0.97022 0.47308 0.39457 0.0
C3090 C 0.75954 0.62949 0.56354 0.0
C3091 C 0.76543 0.64199 0.54879 0.0
C3092 C 0.76199 0.63515 0.58244 0.0
C3093 C 0.786 0.67152 0.61435 0.0
H3094 H 0.73805 0.66831 0.64254 0.0
C3095 C 0.74568 0.72242 0.66957 0.0
C3096 C 0.75697 0.72286 0.68606 0.0
C3097 C 0.74877 0.70834 0.65559 0.0
C3098 C 0.75166 0.66895 0.635 0.0
H3099 H 0.77945 0.66975 0.54233 0.0
H3100 H 0.78353 0.67975 0.57535 0.0
H3101 H 0.74086 0.65108 0.61234 0.0
H3102 H 0.78034 0.70883 0.70096 0.0
H3103 H 0.78637 0.68441 0.67576 0.0
H3104 H 0.79633 0.6903 0.63679 0.0
C3105 C 0.77717 0.66549 0.57229 0.0
C3106 C 0.75331 0.65906 0.61774 0.0
C3107 C 0.77467 0.65985 0.55336 0.0
C3108 C 0.77146 0.7088 0.68835 0.0
C3109 C 0.77491 0.6949 0.67401 0.0
C3110 C 0.7844 0.68126 0.6318 0.0
C3111 C 0.77043 0.65341 0.58704 0.0
C3112 C 0.77023 0.66084 0.60686 0.0
C3113 C 0.76347 0.69457 0.65757 0.0
C3114 C 0.76695 0.68063 0.64187 0.0
H3115 H 0.75256 0.61552 0.56049 0.0
H3116 H 0.75684 0.62544 0.59348 0.0
H3117 H 0.79929 0.67298 0.60638 0.0
H3118 H 0.73427 0.73292 0.6675 0.0
H3119 H 0.73988 0.70846 0.64297 0.0
C3120 C 0.69479 0.5988 0.49891 0.0
C3121 C 0.70142 0.61519 0.48883 0.0
C3122 C 0.67534 0.59332 0.49829 0.0
C3123 C 0.63147 0.59256 0.50252 0.0
H3124 H 0.6097 0.58077 0.45309 0.0
C3125 C 0.55726 0.55482 0.49448 0.0
C3126 C 0.55964 0.53623 0.48615 0.0
C3127 C 0.57174 0.5692 0.49277 0.0
C3128 C 0.61548 0.58434 0.46696 0.0
H3129 H 0.69308 0.63951 0.4712 0.0
H3130 H 0.65889 0.62943 0.46944 0.0
H3131 H 0.64114 0.5975 0.45545 0.0
H3132 H 0.57805 0.51863 0.46819 0.0
H3133 H 0.603 0.54396 0.46469 0.0
H3134 H 0.60605 0.57906 0.51407 0.0
C3135 C 0.66878 0.62082 0.47774 0.0
C3136 C 0.63342 0.59387 0.4683 0.0
C3137 C 0.68824 0.62653 0.4787 0.0
C3138 C 0.57593 0.53281 0.47483 0.0
C3139 C 0.59013 0.54733 0.47274 0.0
C3140 C 0.61336 0.58345 0.50118 0.0
C3141 C 0.66219 0.60414 0.48753 0.0
C3142 C 0.64188 0.59737 0.48609 0.0
C3143 C 0.58852 0.56536 0.48228 0.0
C3144 C 0.60552 0.57866 0.4834 0.0
H3145 H 0.70468 0.59019 0.50723 0.0
H3146 H 0.67065 0.58033 0.50585 0.0
H3147 H 0.63764 0.59524 0.5164 0.0
H3148 H 0.54486 0.5578 0.50334 0.0
H3149 H 0.57021 0.58301 0.50026 0.0
C3150 C 0.20053 0.9245 0.46924 0.0
C3151 C 0.20598 0.91109 0.48327 0.0
C3152 C 0.18433 0.93613 0.47179 0.0
C3153 C 0.15609 0.95787 0.50956 0.0
H3154 H 0.11452 0.96068 0.47304 0.0
C3155 C 0.07833 0.9689 0.52937 0.0
C3156 C 0.06549 0.97735 0.51652 0.0
C3157 C 0.09785 0.96779 0.52505 0.0
C3158 C 0.12626 0.96059 0.48315 0.0
H3159 H 0.19833 0.89858 0.51046 0.0
H3160 H 0.16995 0.91899 0.51492 0.0
H3161 H 0.14367 0.94281 0.46501 0.0
H3162 H 0.06321 0.99307 0.48996 0.0
H3163 H 0.09747 0.99088 0.48231 0.0
H3164 H 0.13847 0.97506 0.52797 0.0
C3165 C 0.17837 0.92058 0.50208 0.0
C3166 C 0.14283 0.9502 0.4786 0.0
C3167 C 0.19441 0.90875 0.49942 0.0
C3168 C 0.07276 0.98622 0.50002 0.0
C3169 C 0.09233 0.98498 0.49563 0.0
C3170 C 0.13961 0.96839 0.51406 0.0
C3171 C 0.17355 0.93469 0.48852 0.0
C3172 C 0.15745 0.94806 0.4921 0.0
C3173 C 0.10488 0.97502 0.50775 0.0
C3174 C 0.12417 0.96905 0.50124 0.0
H3175 H 0.20917 0.92647 0.45659 0.0
H3176 H 0.18073 0.9468 0.46109 0.0
H3177 H 0.16748 0.95678 0.51999 0.0
H3178 H 0.07318 0.96227 0.54237 0.0
H3179 H 0.10712 0.95991 0.53464 0.0
C3180 C 0.35366 0.93667 0.74571 0.0
C3181 C 0.36818 0.94462 0.75728 0.0
C3182 C 0.34822 0.91703 0.74749 0.0
C3183 C 0.34392 0.87302 0.74908 0.0
H3184 H 0.32909 0.85902 0.80029 0.0
C3185 C 0.29688 0.80558 0.76342 0.0
C3186 C 0.27872 0.81204 0.76961 0.0
C3187 C 0.31305 0.81786 0.76497 0.0
C3188 C 0.33352 0.86257 0.78599 0.0
H3189 H 0.38967 0.93839 0.77852 0.0
H3190 H 0.3798 0.90383 0.78209 0.0
H3191 H 0.34946 0.88803 0.79491 0.0
H3192 H 0.26363 0.83547 0.78404 0.0
H3193 H 0.29205 0.85677 0.78707 0.0
H3194 H 0.32766 0.84777 0.74011 0.0
C3195 C 0.3725 0.91283 0.7718 0.0
C3196 C 0.34509 0.87916 0.78289 0.0
C3197 C 0.37811 0.93248 0.76981 0.0
C3198 C 0.2774 0.83018 0.77902 0.0
C3199 C 0.29367 0.8423 0.78087 0.0
C3200 C 0.33278 0.85619 0.75221 0.0
C3201 C 0.35731 0.90502 0.76083 0.0
C3202 C 0.3495 0.88509 0.76434 0.0
C3203 C 0.31139 0.83656 0.77312 0.0
C3204 C 0.32682 0.85134 0.77061 0.0
H3205 H 0.34622 0.94576 0.73559 0.0
H3206 H 0.3363 0.91151 0.73901 0.0
H3207 H 0.34736 0.87712 0.73466 0.0
H3208 H 0.29836 0.79166 0.75614 0.0
H3209 H 0.32661 0.81319 0.75888 0.0
C3210 C 0.303 0.06817 0.98208 0.0
C3211 C 0.29884 0.0873 0.98832 0.0
C3212 C 0.32166 0.06081 0.98356 0.0
C3213 C 0.3645 0.052 0.98003 0.0
H3214 H 0.39143 0.06194 0.02726 0.0
C3215 C 0.44281 0.02593 0.99625 0.0
C3216 C 0.44567 0.01874 0.01465 0.0
C3217 C 0.42522 0.03447 0.99133 0.0
C3218 C 0.38408 0.05898 0.014 0.0
H3219 H 0.31129 0.11381 0.00068 0.0
H3220 H 0.34379 0.10098 0.00316 0.0
H3221 H 0.3603 0.07689 0.02186 0.0
H3222 H 0.43197 0.01374 0.04188 0.0
H3223 H 0.40149 0.02827 0.03325 0.0
H3224 H 0.38821 0.03354 0.9725 0.0
C3225 C 0.33254 0.09159 -0.00265 0.0
C3226 C 0.36633 0.06775 0.0108 0.0
C3227 C 0.31387 0.09894 0.99591 0.0
C3228 C 0.43038 0.01941 0.02768 0.0
C3229 C 0.41291 0.02785 0.02278 0.0
C3230 C 0.38235 0.04321 0.98323 0.0
C3231 C 0.33662 0.07239 0.99129 0.0
C3232 C 0.35617 0.06414 0.99391 0.0
C3233 C 0.41028 0.03593 0.00474 0.0
C3234 C 0.39213 0.04632 0.00042 0.0
H3235 H 0.29181 0.05877 0.97615 0.0
H3236 H 0.32425 0.04586 0.97902 0.0
H3237 H 0.35715 0.04915 0.96675 0.0
H3238 H 0.45434 0.02559 0.98589 0.0
H3239 H 0.42358 0.04055 0.97729 0.0
C3240 C 0.65723 0.55165 0.74108 0.0
C3241 C 0.64029 0.54993 0.75179 0.0
C3242 C 0.66544 0.57005 0.73752 0.0
C3243 C 0.67781 0.61065 0.72563 0.0
H3244 H 0.67463 0.64933 0.76591 0.0
C3245 C 0.70826 0.69284 0.74792 0.0
C3246 C 0.72755 0.6882 0.7516 0.0
C3247 C 0.69524 0.67805 0.74229 0.0
C3248 C 0.67528 0.63883 0.75436 0.0
H3249 H 0.61736 0.56592 0.76543 0.0
H3250 H 0.6313 0.5983 0.75882 0.0
H3251 H 0.65636 0.61879 0.76845 0.0
H3252 H 0.74892 0.66534 0.75068 0.0
H3253 H 0.72642 0.63975 0.73998 0.0
H3254 H 0.69827 0.63025 0.71254 0.0
C3255 C 0.6389 0.58544 0.75395 0.0
C3256 C 0.66478 0.62129 0.75576 0.0
C3257 C 0.63082 0.56694 0.75768 0.0
C3258 C 0.73411 0.66921 0.74772 0.0
C3259 C 0.72126 0.65461 0.74162 0.0
C3260 C 0.68868 0.62803 0.72448 0.0
C3261 C 0.65654 0.58724 0.74412 0.0
C3262 C 0.66615 0.60677 0.74158 0.0
C3263 C 0.70157 0.65868 0.73982 0.0
C3264 C 0.68766 0.64213 0.73896 0.0
H3265 H 0.66433 0.53869 0.73569 0.0
H3266 H 0.67909 0.57066 0.73009 0.0
H3267 H 0.67895 0.60007 0.71421 0.0
H3268 H 0.70291 0.70736 0.7511 0.0
H3269 H 0.68008 0.68144 0.74103 0.0
C3270 C 0.82143 0.37162 0.97928 0.0
C3271 C 0.80806 0.38097 0.99105 0.0
C3272 C 0.84085 0.37738 0.97979 0.0
C3273 C 0.87466 0.40567 0.97361 0.0
H3274 H 0.89884 0.4247 0.01981 0.0
C3275 C 0.91983 0.47653 0.99103 0.0
C3276 C 0.93971 0.47283 0.99173 0.0
C3277 C 0.90665 0.46101 0.98942 0.0
C3278 C 0.89235 0.41918 0.00685 0.0
H3279 H 0.80427 0.40179 0.01393 0.0
H3280 H 0.83792 0.41214 0.01471 0.0
H3281 H 0.87071 0.40284 0.02171 0.0
H3282 H 0.96137 0.45004 0.9902 0.0
H3283 H 0.93806 0.42293 0.98786 0.0
H3284 H 0.89578 0.4231 0.95886 0.0
C3285 C 0.8337 0.4005 0.00501 0.0
C3286 C 0.87629 0.40677 0.0079 0.0
C3287 C 0.81439 0.39487 0.00436 0.0
C3288 C 0.94614 0.45337 0.98999 0.0
C3289 C 0.93292 0.43786 0.98851 0.0
C3290 C 0.89065 0.41825 0.97257 0.0
C3291 C 0.84706 0.39217 0.99243 0.0
C3292 C 0.86672 0.40069 0.9913 0.0
C3293 C 0.91316 0.44165 0.98849 0.0
C3294 C 0.89908 0.42554 0.98922 0.0
H3295 H 0.81673 0.3605 0.96923 0.0
H3296 H 0.85088 0.37062 0.97006 0.0
H3297 H 0.86772 0.40104 0.96059 0.0
H3298 H 0.91442 0.49132 0.9922 0.0
H3299 H 0.89134 0.46405 0.98947 0.0
C3300 C 0.3499 0.06138 0.74738 0.0
C3301 C 0.33853 0.04422 0.7484 0.0
C3302 C 0.34131 0.0795 0.7443 0.0
C3303 C 0.30124 0.10358 0.72282 0.0
H3304 H 0.30837 0.14415 0.76105 0.0
C3305 C 0.28679 0.18676 0.71304 0.0
C3306 C 0.27615 0.19579 0.72755 0.0
C3307 C 0.29234 0.16721 0.7147 0.0
C3308 C 0.30621 0.1329 0.75032 0.0
H3309 H 0.30937 0.03243 0.74649 0.0
H3310 H 0.29445 0.06417 0.74044 0.0
H3311 H 0.32297 0.11197 0.76549 0.0
H3312 H 0.26245 0.19123 0.75489 0.0
H3313 H 0.27256 0.15725 0.75787 0.0
H3314 H 0.28495 0.12478 0.70738 0.0
C3315 C 0.30994 0.06351 0.7423 0.0
C3316 C 0.31463 0.11463 0.75281 0.0
C3317 C 0.31847 0.04544 0.74582 0.0
C3318 C 0.27061 0.1847 0.74343 0.0
C3319 C 0.27644 0.1653 0.74521 0.0
C3320 C 0.29314 0.12204 0.72014 0.0
C3321 C 0.32129 0.08066 0.74176 0.0
C3322 C 0.31221 0.09987 0.73908 0.0
C3323 C 0.28761 0.15652 0.73102 0.0
C3324 C 0.29555 0.1368 0.7339 0.0
H3325 H 0.36537 0.06086 0.74942 0.0
H3326 H 0.35028 0.09262 0.74389 0.0
H3327 H 0.29926 0.09234 0.71207 0.0
H3328 H 0.2912 0.19492 0.70062 0.0
H3329 H 0.30104 0.16071 0.70362 0.0
C3330 C 0.14584 0.9313 0.25655 0.0
C3331 C 0.1533 0.94571 0.26894 0.0
C3332 C 0.15325 0.91226 0.25659 0.0
C3333 C 0.16717 0.87049 0.26414 0.0
H3334 H 0.22306 0.86918 0.26544 0.0
C3335 C 0.21209 0.79926 0.2521 0.0
C3336 C 0.22564 0.8019 0.23749 0.0
C3337 C 0.2027 0.81555 0.25998 0.0
C3338 C 0.20743 0.86926 0.26528 0.0
H3339 H 0.17357 0.95098 0.29193 0.0
H3340 H 0.18619 0.91795 0.29211 0.0
H3341 H 0.20671 0.89998 0.27109 0.0
H3342 H 0.24062 0.82362 0.22033 0.0
H3343 H 0.22462 0.8516 0.23408 0.0
H3344 H 0.16819 0.83977 0.2573 0.0
C3345 C 0.17497 0.92142 0.28204 0.0
C3346 C 0.19802 0.8869 0.26863 0.0
C3347 C 0.16769 0.9404 0.28192 0.0
C3348 C 0.23014 0.82102 0.23145 0.0
C3349 C 0.22107 0.83713 0.23944 0.0
C3350 C 0.17665 0.85275 0.26083 0.0
C3351 C 0.16818 0.90722 0.2691 0.0
C3352 C 0.1778 0.88787 0.26764 0.0
C3353 C 0.20713 0.83463 0.25363 0.0
C3354 C 0.19689 0.85213 0.26081 0.0
H3355 H 0.13473 0.93488 0.24641 0.0
H3356 H 0.14782 0.90172 0.2463 0.0
H3357 H 0.15157 0.87071 0.26352 0.0
H3358 H 0.2084 0.78467 0.25703 0.0
H3359 H 0.192 0.81326 0.27096 0.0
C3360 C 0.49875 0.30808 0.40858 0.0
C3361 C 0.49994 0.31031 0.38883 0.0
C3362 C 0.49696 0.32439 0.42043 0.0
C3363 C 0.483 0.37653 0.42146 0.0
H3364 H 0.51487 0.37798 0.46652 0.0
C3365 C 0.502 0.44628 0.46534 0.0
C3366 C 0.50617 0.44369 0.48456 0.0
C3367 C 0.49618 0.43021 0.45421 0.0
C3368 C 0.50551 0.37768 0.45424 0.0
H3369 H 0.50015 0.33163 0.36608 0.0
H3370 H 0.4973 0.36019 0.3869 0.0
H3371 H 0.51594 0.34966 0.44569 0.0
H3372 H 0.50585 0.42321 0.50782 0.0
H3373 H 0.49488 0.39533 0.4887 0.0
H3374 H 0.47293 0.40492 0.42997 0.0
C3375 C 0.49752 0.34571 0.39313 0.0
C3376 C 0.50622 0.36143 0.44223 0.0
C3377 C 0.49936 0.32934 0.38123 0.0
C3378 C 0.50265 0.42544 0.49297 0.0
C3379 C 0.49658 0.4095 0.48198 0.0
C3380 C 0.48228 0.39287 0.43355 0.0
C3381 C 0.49632 0.34339 0.41286 0.0
C3382 C 0.49506 0.36067 0.42567 0.0
C3383 C 0.49446 0.41143 0.46228 0.0
C3384 C 0.49359 0.39363 0.45006 0.0
H3385 H 0.49905 0.29368 0.41497 0.0
H3386 H 0.49588 0.3221 0.43556 0.0
H3387 H 0.47408 0.37625 0.40888 0.0
H3388 H 0.50507 0.4602 0.4586 0.0
H3389 H 0.49471 0.4322 0.43908 0.0
C3390 C 0.42795 0.73154 0.15498 0.0
C3391 C 0.43881 0.74776 0.14887 0.0
C3392 C 0.41562 0.73321 0.17045 0.0
C3393 C 0.38672 0.76855 0.1958 0.0
H3394 H 0.37923 0.72494 0.23025 0.0
C3395 C 0.3179 0.76436 0.23762 0.0
C3396 C 0.30798 0.74679 0.23364 0.0
C3397 C 0.33783 0.76557 0.23522 0.0
C3398 C 0.38128 0.73733 0.22089 0.0
H3399 H 0.44596 0.77827 0.15425 0.0
H3400 H 0.42377 0.78146 0.18122 0.0
H3401 H 0.40737 0.72572 0.20937 0.0
H3402 H 0.31077 0.71638 0.22545 0.0
H3403 H 0.34563 0.7184 0.22088 0.0
H3404 H 0.36017 0.77962 0.20634 0.0
C3405 C 0.42482 0.76745 0.17401 0.0
C3406 C 0.39732 0.73776 0.20892 0.0
C3407 C 0.43738 0.76569 0.15859 0.0
C3408 C 0.31829 0.72995 0.22888 0.0
C3409 C 0.33825 0.73118 0.22629 0.0
C3410 C 0.37071 0.76813 0.20774 0.0
C3411 C 0.41391 0.75116 0.18014 0.0
C3412 C 0.39968 0.75292 0.19566 0.0
C3413 C 0.34802 0.7493 0.22839 0.0
C3414 C 0.36736 0.75207 0.2198 0.0
H3415 H 0.42938 0.71739 0.14821 0.0
H3416 H 0.4072 0.72046 0.17466 0.0
H3417 H 0.3881 0.78036 0.18567 0.0
H3418 H 0.31006 0.7775 0.24132 0.0
H3419 H 0.34502 0.77961 0.23727 0.0
C3420 C 0.98874 0.68983 0.9114 0.0
C3421 C 0.00156 0.6993 0.89893 0.0
C3422 C 0.99138 0.67023 0.91622 0.0
C3423 C 0.02705 0.63257 0.92215 0.0
H3424 H 0.98228 0.59796 0.921 0.0
C3425 C 0.99455 0.55263 0.94904 0.0
C3426 C -0.00079 0.55484 0.96822 0.0
C3427 C 0.00085 0.56655 0.9359 0.0
C3428 C 0.99512 0.60717 0.92103 0.0
H3429 H 0.02744 0.69565 0.88199 0.0
H3430 H 0.03221 0.66132 0.8908 0.0
H3431 H 0.98032 0.63042 0.90721 0.0
H3432 H 0.01522 0.57215 0.98872 0.0
H3433 H 0.02608 0.59669 0.96594 0.0
H3434 H 0.04154 0.60956 0.93691 0.0
C3435 C 0.02003 0.66915 0.89662 0.0
C3436 C 0.99387 0.62588 0.91332 0.0
C3437 C 0.01722 0.68873 0.89153 0.0
C3438 C 0.01177 0.57003 0.97388 0.0
C3439 C 0.01797 0.58407 0.96079 0.0
C3440 C 0.02826 0.61382 0.93009 0.0
C3441 C 0.00703 0.6597 0.90889 0.0
C3442 C 0.0096 0.63897 0.91434 0.0
C3443 C 0.0115 0.58316 0.94191 0.0
C3444 C 0.01209 0.60112 0.93009 0.0
H3445 H 0.97656 0.69753 0.91737 0.0
H3446 H 0.98128 0.66333 0.9259 0.0
H3447 H 0.03939 0.64243 0.92309 0.0
H3448 H 0.98448 0.54126 0.94451 0.0
H3449 H -0.00411 0.56528 0.9214 0.0
C3450 C 0.0657 0.24432 0.62409 0.0
C3451 C 0.05087 0.25245 0.63515 0.0
C3452 C 0.0845 0.24339 0.63119 0.0
C3453 C 0.10551 0.23274 0.67456 0.0
H3454 H 0.15438 0.25725 0.66108 0.0
C3455 C 0.16575 0.23926 0.72768 0.0
C3456 C 0.18507 0.23669 0.72227 0.0
C3457 C 0.15123 0.23971 0.7142 0.0
C3458 C 0.14091 0.24997 0.66471 0.0
H3459 H 0.04442 0.26764 0.66144 0.0
H3460 H 0.07715 0.26575 0.67385 0.0
H3461 H 0.12556 0.26311 0.64159 0.0
H3462 H 0.2042 0.2321 0.69843 0.0
H3463 H 0.1784 0.23277 0.67453 0.0
H3464 H 0.12036 0.21968 0.69759 0.0
C3465 C 0.07418 0.2601 0.65976 0.0
C3466 C 0.1245 0.25343 0.65368 0.0
C3467 C 0.05548 0.26113 0.65266 0.0
C3468 C 0.18946 0.23425 0.70297 0.0
C3469 C 0.17475 0.23466 0.68933 0.0
C3470 C 0.1218 0.2291 0.68536 0.0
C3471 C 0.0886 0.25057 0.64939 0.0
C3472 C 0.10661 0.24535 0.65901 0.0
C3473 C 0.15548 0.23738 0.6949 0.0
C3474 C 0.1395 0.23828 0.68104 0.0
H3475 H 0.06258 0.23759 0.61048 0.0
H3476 H 0.09546 0.2359 0.62306 0.0
H3477 H 0.09185 0.22612 0.67868 0.0
H3478 H 0.16181 0.24161 0.74235 0.0
H3479 H 0.13662 0.24238 0.71894 0.0
C3480 C 0.48037 0.67405 0.11972 0.0
C3481 C 0.48758 0.69019 0.10965 0.0
C3482 C 0.48308 0.65504 0.11274 0.0
C3483 C 0.49708 0.62837 0.06908 0.0
H3484 H 0.51315 0.58752 0.10354 0.0
C3485 C 0.53206 0.56065 0.04039 0.0
C3486 C 0.52005 0.54408 0.04264 0.0
C3487 C 0.5297 0.57701 0.052 0.0
C3488 C 0.50865 0.59885 0.09387 0.0
H3489 H 0.50414 0.69951 0.08524 0.0
H3490 H 0.50914 0.66659 0.07316 0.0
H3491 H 0.50348 0.61955 0.11618 0.0
H3492 H 0.49819 0.53051 0.06049 0.0
H3493 H 0.49425 0.55923 0.08093 0.0
H3494 H 0.50286 0.60799 0.04678 0.0
C3495 C 0.5007 0.66837 0.08595 0.0
C3496 C 0.50294 0.61705 0.10104 0.0
C3497 C 0.49786 0.68722 0.09284 0.0
C3498 C 0.50749 0.54317 0.05829 0.0
C3499 C 0.50523 0.55956 0.07 0.0
C3500 C 0.50304 0.6104 0.06196 0.0
C3501 C 0.4934 0.65205 0.09582 0.0
C3502 C 0.49741 0.63209 0.08865 0.0
C3503 C 0.51551 0.57691 0.06615 0.0
C3504 C 0.50916 0.59565 0.07426 0.0
H3505 H 0.47271 0.67616 0.13294 0.0
H3506 H 0.47723 0.64273 0.12058 0.0
H3507 H 0.49245 0.63947 0.0592 0.0
H3508 H 0.54212 0.56165 0.02869 0.0
H3509 H 0.53795 0.59024 0.04902 0.0
C3510 C 0.07712 0.74391 0.86676 0.0
C3511 C 0.06122 0.74279 0.85446 0.0
C3512 C 0.09562 0.73923 0.86026 0.0
C3513 C 0.12164 0.71723 0.81878 0.0
H3514 H 0.16042 0.75679 0.83071 0.0
C3515 C 0.17224 0.75332 0.76629 0.0
C3516 C 0.19065 0.75953 0.77202 0.0
C3517 C 0.16048 0.74265 0.77865 0.0
C3518 C 0.15001 0.74524 0.82758 0.0
H3519 H 0.05213 0.73535 0.82589 0.0
H3520 H 0.08412 0.72785 0.81448 0.0
H3521 H 0.13105 0.75506 0.84939 0.0
H3522 H 0.21181 0.75885 0.79448 0.0
H3523 H 0.19101 0.74057 0.81645 0.0
H3524 H 0.14001 0.70874 0.79577 0.0
C3525 C 0.08246 0.73185 0.82925 0.0
C3526 C 0.1331 0.74424 0.83831 0.0
C3527 C 0.06407 0.73643 0.83574 0.0
C3528 C 0.19774 0.75383 0.78973 0.0
C3529 C 0.18583 0.74351 0.80229 0.0
C3530 C 0.13844 0.71843 0.80788 0.0
C3531 C 0.09854 0.73338 0.84133 0.0
C3532 C 0.11827 0.73093 0.83338 0.0
C3533 C 0.1668 0.73856 0.79712 0.0
C3534 C 0.15233 0.73308 0.81163 0.0
H3535 H 0.07532 0.74858 0.88134 0.0
H3536 H 0.10765 0.74045 0.86998 0.0
H3537 H 0.11076 0.70638 0.81497 0.0
H3538 H 0.16653 0.75773 0.75271 0.0
H3539 H 0.14582 0.73921 0.77435 0.0
C3540 C 0.98148 0.30446 0.5978 0.0
C3541 C 0.98412 0.28788 0.58635 0.0
C3542 C 0.98403 0.32321 0.59035 0.0
C3543 C 0.99023 0.35014 0.54477 0.0
H3544 H 0.00867 0.39093 0.57889 0.0
C3545 C 0.99047 0.43123 0.52323 0.0
C3546 C 0.00378 0.44418 0.53163 0.0
C3547 C 0.98936 0.41175 0.52907 0.0
C3548 C 0.0039 0.37971 0.56899 0.0
H3549 H 0.9915 0.27756 0.55828 0.0
H3550 H -0.00288 0.31019 0.54541 0.0
H3551 H 0.00458 0.35788 0.59043 0.0
H3552 H 0.02714 0.44712 0.55177 0.0
H3553 H 0.02622 0.41274 0.56117 0.0
H3554 H 0.99084 0.37169 0.52301 0.0
C3555 C 0.99229 0.30896 0.55993 0.0
C3556 C 0.00109 0.36072 0.57577 0.0
C3557 C 0.98914 0.29021 0.56728 0.0
C3558 C 0.01655 0.43732 0.54537 0.0
C3559 C 0.01588 0.41767 0.55081 0.0
C3560 C 0.99355 0.36902 0.53786 0.0
C3561 C 0.98993 0.32573 0.57142 0.0
C3562 C 0.99383 0.34574 0.56387 0.0
C3563 C 0.00199 0.40469 0.54302 0.0
C3564 C 5e-05 0.38418 0.54996 0.0
H3565 H 0.97751 0.3029 0.61257 0.0
H3566 H 0.98146 0.33567 0.59953 0.0
H3567 H 0.98448 0.33913 0.53514 0.0
H3568 H 0.98044 0.43637 0.51264 0.0
H3569 H 0.97819 0.40246 0.523 0.0
C3570 C 0.43727 0.26335 0.35099 0.0
C3571 C 0.45353 0.2526 0.34565 0.0
C3572 C 0.42087 0.26326 0.33942 0.0
C3573 C 0.39459 0.26893 0.3043 0.0
H3574 H 0.37229 0.21857 0.29013 0.0
C3575 C 0.32838 0.22973 0.25785 0.0
C3576 C 0.3137 0.2429 0.26234 0.0
C3577 C 0.34713 0.23306 0.26446 0.0
C3578 C 0.37853 0.23281 0.29342 0.0
H3579 H 0.46516 0.23221 0.32515 0.0
H3580 H 0.43636 0.23165 0.30515 0.0
H3581 H 0.40113 0.21979 0.30951 0.0
H3582 H 0.30702 0.27023 0.27644 0.0
H3583 H 0.3394 0.27573 0.2887 0.0
H3584 H 0.37228 0.28203 0.2879 0.0
C3585 C 0.4364 0.24053 0.31792 0.0
C3586 C 0.39498 0.23345 0.30477 0.0
C3587 C 0.45286 0.24092 0.32926 0.0
C3588 C 0.31825 0.26008 0.27248 0.0
C3589 C 0.33688 0.26317 0.27956 0.0
C3590 C 0.3783 0.26831 0.29259 0.0
C3591 C 0.42035 0.25189 0.32274 0.0
C3592 C 0.40305 0.25148 0.31048 0.0
C3593 C 0.35138 0.24922 0.27636 0.0
C3594 C 0.36989 0.25021 0.28715 0.0
H3595 H 0.43747 0.27219 0.36378 0.0
H3596 H 0.40856 0.27193 0.34355 0.0
H3597 H 0.40067 0.28303 0.3084 0.0
H3598 H 0.32513 0.21637 0.25003 0.0
H3599 H 0.35804 0.22237 0.26105 0.0
C3600 C 0.39678 0.5008 0.31855 0.0
C3601 C 0.40327 0.49792 0.29989 0.0
C3602 C 0.40969 0.50046 0.3337 0.0
C3603 C 0.46083 0.50623 0.34648 0.0
H3604 H 0.44404 0.47999 0.39231 0.0
C3605 C 0.48409 0.49134 0.42982 0.0
C3606 C 0.48784 0.51092 0.43505 0.0
C3607 C 0.47863 0.48669 0.41124 0.0
C3608 C 0.44918 0.48704 0.37953 0.0
H3609 H 0.42866 0.49286 0.28257 0.0
H3610 H 0.45119 0.49232 0.30911 0.0
H3611 H 0.42392 0.47831 0.36414 0.0
H3612 H 0.49067 0.54067 0.42471 0.0
H3613 H 0.48132 0.53262 0.39236 0.0
H3614 H 0.48592 0.51534 0.36211 0.0
C3615 C 0.43606 0.49488 0.31194 0.0
C3616 C 0.43748 0.48633 0.36346 0.0
C3617 C 0.42312 0.49519 0.29674 0.0
C3618 C 0.48785 0.52545 0.42103 0.0
C3619 C 0.48256 0.5208 0.40246 0.0
C3620 C 0.47253 0.50701 0.36262 0.0
C3621 C 0.42943 0.49723 0.3306 0.0
C3622 C 0.44291 0.49635 0.34692 0.0
C3623 C 0.47695 0.50154 0.39759 0.0
C3624 C 0.4666 0.49782 0.37947 0.0
H3625 H 0.38164 0.50305 0.32156 0.0
H3626 H 0.40419 0.50275 0.34789 0.0
H3627 H 0.46542 0.51408 0.33394 0.0
H3628 H 0.48366 0.47993 0.4404 0.0
H3629 H 0.4746 0.47167 0.40784 0.0
C3630 C 0.27268 0.65897 0.05616 0.0
C3631 C 0.26916 0.63985 0.04945 0.0
C3632 C 0.27185 0.66294 0.07554 0.0
C3633 C 0.24396 0.64607 0.11501 0.0
H3634 H 0.27366 0.68517 0.14285 0.0
C3635 C 0.23963 0.68885 0.19007 0.0
C3636 C 0.23276 0.70754 0.18534 0.0
C3637 C 0.24264 0.67487 0.17591 0.0
C3638 C 0.26546 0.67396 0.13532 0.0
H3639 H 0.26427 0.60954 0.05768 0.0
H3640 H 0.2627 0.6166 0.09151 0.0
H3641 H 0.28653 0.67177 0.11328 0.0
H3642 H 0.22109 0.72534 0.16283 0.0
H3643 H 0.22609 0.70067 0.13814 0.0
H3644 H 0.22229 0.64944 0.13651 0.0
C3645 C 0.26581 0.62847 0.0818 0.0
C3646 C 0.27276 0.66638 0.11848 0.0
C3647 C 0.26673 0.62449 0.06247 0.0
C3648 C 0.22665 0.71115 0.16676 0.0
C3649 C 0.22938 0.69706 0.1527 0.0
C3650 C 0.23656 0.65384 0.13179 0.0
C3651 C 0.26748 0.64784 0.08838 0.0
C3652 C 0.26182 0.65281 0.10791 0.0
C3653 C 0.23835 0.67935 0.15708 0.0
C3654 C 0.24712 0.66816 0.1417 0.0
H3655 H 0.27466 0.67106 0.04644 0.0
H3656 H 0.27311 0.67804 0.08029 0.0
H3657 H 0.23514 0.6358 0.10694 0.0
H3658 H 0.24437 0.68566 0.20432 0.0
H3659 H 0.24971 0.66127 0.17941 0.0
C3660 C 0.07253 0.50436 0.79874 0.0
C3661 C 0.09229 0.50537 0.8034 0.0
C3662 C 0.05859 0.50202 0.81288 0.0
C3663 C 0.0365 0.48322 0.84729 0.0
H3664 H 0.0393 0.51957 0.88969 0.0
C3665 C 0.01636 0.46551 0.92381 0.0
C3666 C 0.01018 0.48073 0.93579 0.0
C3667 C 0.01961 0.46899 0.90462 0.0
C3668 C 0.03797 0.50954 0.8778 0.0
H3669 H 0.1128 0.50436 0.8266 0.0
H3670 H 0.08838 0.50048 0.85121 0.0
H3671 H 0.05979 0.52489 0.86214 0.0
H3672 H 0.00026 0.51076 0.93661 0.0
H3673 H 0.00605 0.51688 0.90308 0.0
H3674 H 0.01545 0.4672 0.86351 0.0
C3675 C 0.08381 0.50161 0.83659 0.0
C3676 C 0.04986 0.51249 0.86215 0.0
C3677 C 0.09775 0.50378 0.82249 0.0
C3678 C 0.00528 0.49883 0.9278 0.0
C3679 C 0.00862 0.50235 0.90861 0.0
C3680 C 0.02474 0.48008 0.86313 0.0
C3681 C 0.06414 0.50086 0.8319 0.0
C3682 C 0.04961 0.49907 0.84704 0.0
C3683 C 0.01678 0.48777 0.89709 0.0
C3684 C 0.02577 0.49295 0.87874 0.0
H3685 H 0.06778 0.5056 0.7842 0.0
H3686 H 0.04347 0.50153 0.80901 0.0
H3687 H 0.03611 0.47271 0.83573 0.0
H3688 H 0.01998 0.45129 0.92948 0.0
H3689 H 0.02593 0.45746 0.89611 0.0
C3690 C 0.22308 0.32593 0.555 0.0
C3691 C 0.23216 0.34446 0.55439 0.0
C3692 C 0.21644 0.3183 0.57222 0.0
C3693 C 0.20677 0.33224 0.62268 0.0
H3694 H 0.22232 0.27892 0.63275 0.0
C3695 C 0.24053 0.30598 0.69034 0.0
C3696 C 0.23924 0.28611 0.69519 0.0
C3697 C 0.22961 0.3132 0.67539 0.0
C3698 C 0.21728 0.29364 0.63013 0.0
H3699 H 0.24109 0.36966 0.57127 0.0
H3700 H 0.23012 0.35623 0.60117 0.0
H3701 H 0.22352 0.29117 0.60062 0.0
H3702 H 0.2246 0.25857 0.68964 0.0
H3703 H 0.20537 0.2711 0.66335 0.0
H3704 H 0.20208 0.33507 0.65258 0.0
C3705 C 0.22765 0.3477 0.5884 0.0
C3706 C 0.21803 0.30071 0.61163 0.0
C3707 C 0.23421 0.35531 0.57125 0.0
C3708 C 0.22542 0.27403 0.68633 0.0
C3709 C 0.21464 0.28117 0.67117 0.0
C3710 C 0.20617 0.3252 0.64123 0.0
C3711 C 0.21878 0.32906 0.58916 0.0
C3712 C 0.21369 0.32038 0.60782 0.0
C3713 C 0.21758 0.3005 0.66481 0.0
C3714 C 0.21229 0.30611 0.64525 0.0
H3715 H 0.22111 0.31732 0.5422 0.0
H3716 H 0.20957 0.30395 0.57227 0.0
H3717 H 0.2028 0.34732 0.62014 0.0
H3718 H 0.25131 0.31544 0.69689 0.0
H3719 H 0.23232 0.32812 0.67081 0.0
C3720 C 0.41379 0.51062 0.18655 0.0
C3721 C 0.39513 0.50382 0.19093 0.0
C3722 C 0.41873 0.51536 0.16796 0.0
C3723 C 0.40566 0.50229 0.11941 0.0
H3724 H 0.44662 0.53979 0.10842 0.0
C3725 C 0.45174 0.49147 0.05405 0.0
C3726 C 0.47044 0.48764 0.06049 0.0
C3727 C 0.43896 0.50192 0.06557 0.0
C3728 C 0.43489 0.52953 0.11112 0.0
H3729 H 0.36676 0.49741 0.17936 0.0
H3730 H 0.37542 0.5057 0.14679 0.0
H3731 H 0.42958 0.54159 0.13866 0.0
H3732 H 0.4913 0.49311 0.08267 0.0
H3733 H 0.46935 0.51171 0.10257 0.0
H3734 H 0.41172 0.48952 0.09239 0.0
C3735 C 0.38628 0.50718 0.15774 0.0
C3736 C 0.42525 0.53043 0.12849 0.0
C3737 C 0.38134 0.5024 0.17639 0.0
C3738 C 0.47688 0.49595 0.07753 0.0
C3739 C 0.46432 0.50671 0.08882 0.0
C3740 C 0.41521 0.50148 0.102 0.0
C3741 C 0.40512 0.51349 0.15327 0.0
C3742 C 0.41137 0.51606 0.13327 0.0
C3743 C 0.44494 0.50887 0.08346 0.0
C3744 C 0.43071 0.51433 0.0982 0.0
H3745 H 0.42473 0.51197 0.19744 0.0
H3746 H 0.43349 0.51976 0.16503 0.0
H3747 H 0.39505 0.49099 0.12257 0.0
H3748 H 0.44657 0.48508 0.04089 0.0
H3749 H 0.42412 0.50344 0.06109 0.0
C3750 C 0.24527 0.6783 0.94849 0.0
C3751 C 0.24979 0.65883 0.94361 0.0
C3752 C 0.24553 0.69295 0.93473 0.0
C3753 C 0.26689 0.70636 0.89005 0.0
H3754 H 0.2171 0.72451 0.87272 0.0
C3755 C 0.24575 0.70959 0.81444 0.0
C3756 C 0.24693 0.72823 0.80622 0.0
C3757 C 0.24473 0.70773 0.83399 0.0
C3758 C 0.23116 0.72018 0.87779 0.0
H3759 H 0.25853 0.63949 0.92076 0.0
H3760 H 0.25943 0.66519 0.89687 0.0
H3761 H 0.21975 0.70854 0.90371 0.0
H3762 H 0.2469 0.75959 0.81176 0.0
H3763 H 0.24556 0.75615 0.84643 0.0
H3764 H 0.27801 0.71649 0.86355 0.0
C3765 C 0.25558 0.66902 0.91129 0.0
C3766 C 0.23268 0.71106 0.8954 0.0
C3767 C 0.25493 0.65434 0.92489 0.0
C3768 C 0.24603 0.74505 0.81784 0.0
C3769 C 0.24523 0.74315 0.83754 0.0
C3770 C 0.26542 0.71563 0.87262 0.0
C3771 C 0.25079 0.68836 0.91609 0.0
C3772 C 0.25035 0.70316 0.90107 0.0
C3773 C 0.24503 0.72444 0.84563 0.0
C3774 C 0.24738 0.72164 0.86601 0.0
H3775 H 0.24114 0.68211 0.96283 0.0
H3776 H 0.24165 0.7078 0.93858 0.0
H3777 H 0.28062 0.70032 0.89423 0.0
H3778 H 0.24611 0.69642 0.80579 0.0
H3779 H 0.24452 0.69318 0.84012 0.0
C3780 C 0.11981 0.50704 0.68126 0.0
C3781 C 0.10566 0.50237 0.69481 0.0
C3782 C 0.11533 0.50674 0.66202 0.0
C3783 C 0.07384 0.51499 0.63226 0.0
H3784 H 0.10698 0.49875 0.59088 0.0
C3785 C 0.06212 0.50342 0.54952 0.0
C3786 C 0.05148 0.52052 0.54632 0.0
C3787 C 0.07337 0.50178 0.56581 0.0
C3788 C 0.09768 0.5034 0.60234 0.0
H3789 H 0.07618 0.49226 0.6989 0.0
H3790 H 0.06833 0.49169 0.66519 0.0
H3791 H 0.11612 0.49146 0.62366 0.0
H3792 H 0.04644 0.55026 0.55598 0.0
H3793 H 0.06634 0.54749 0.58427 0.0
H3794 H 0.05531 0.52675 0.61123 0.0
C3795 C 0.08281 0.49588 0.6695 0.0
C3796 C 0.10287 0.49923 0.62102 0.0
C3797 C 0.0873 0.49616 0.68876 0.0
C3798 C 0.05425 0.5368 0.5583 0.0
C3799 C 0.06555 0.53519 0.5745 0.0
C3800 C 0.06877 0.51927 0.61372 0.0
C3801 C 0.09661 0.50179 0.65602 0.0
C3802 C 0.09092 0.50496 0.63613 0.0
C3803 C 0.07413 0.51724 0.57901 0.0
C3804 C 0.08065 0.51362 0.59858 0.0
H3805 H 0.13416 0.51172 0.68551 0.0
H3806 H 0.12621 0.51145 0.65195 0.0
H3807 H 0.06451 0.51987 0.64362 0.0
H3808 H 0.06024 0.49062 0.54054 0.0
H3809 H 0.0799 0.4878 0.56891 0.0
C3810 C 0.24064 0.33885 0.44568 0.0
C3811 C 0.24237 0.35942 0.44656 0.0
C3812 C 0.23825 0.32922 0.42828 0.0
C3813 C 0.24677 0.33507 0.37711 0.0
H3814 H 0.21185 0.29038 0.37305 0.0
C3815 C 0.238 0.29052 0.30727 0.0
C3816 C 0.23881 0.27006 0.30956 0.0
C3817 C 0.23584 0.30288 0.32307 0.0
C3818 C 0.22171 0.3028 0.37396 0.0
H3819 H 0.24291 0.38594 0.42963 0.0
H3820 H 0.23872 0.36909 0.39936 0.0
H3821 H 0.21352 0.30905 0.40258 0.0
H3822 H 0.23717 0.24655 0.33014 0.0
H3823 H 0.23351 0.26792 0.35741 0.0
H3824 H 0.2553 0.32851 0.34862 0.0
C3825 C 0.23932 0.36043 0.41215 0.0
C3826 C 0.22269 0.31347 0.39089 0.0
C3827 C 0.24163 0.37008 0.42956 0.0
C3828 C 0.23667 0.26224 0.32783 0.0
C3829 C 0.23441 0.27452 0.34351 0.0
C3830 C 0.24582 0.32435 0.36015 0.0
C3831 C 0.23759 0.33988 0.4113 0.0
C3832 C 0.2355 0.3295 0.3928 0.0
C3833 C 0.23426 0.29499 0.34141 0.0
C3834 C 0.23355 0.30784 0.35851 0.0
H3835 H 0.24117 0.33012 0.45843 0.0
H3836 H 0.23725 0.31335 0.42811 0.0
H3837 H 0.25689 0.34725 0.37815 0.0
H3838 H 0.23967 0.29701 0.29339 0.0
H3839 H 0.23562 0.3186 0.32096 0.0
C3840 C 0.31243 0.38596 0.49684 0.0
C3841 C 0.2961 0.39272 0.50649 0.0
C3842 C 0.3303 0.39545 0.49924 0.0
C3843 C 0.35095 0.44316 0.51482 0.0
H3844 H 0.39967 0.41598 0.51107 0.0
C3845 C 0.41929 0.48373 0.49408 0.0
C3846 C 0.43619 0.48123 0.50474 0.0
C3847 C 0.4034 0.47139 0.49652 0.0
C3848 C 0.38617 0.42371 0.51237 0.0
H3849 H 0.28577 0.41333 0.52743 0.0
H3850 H 0.31689 0.42979 0.53188 0.0
H3851 H 0.36932 0.39709 0.51172 0.0
H3852 H 0.44994 0.46308 0.52578 0.0
H3853 H 0.42162 0.44128 0.53027 0.0
H3854 H 0.36762 0.46971 0.51523 0.0
C3855 C 0.31592 0.41773 0.52188 0.0
C3856 C 0.36877 0.41294 0.51251 0.0
C3857 C 0.29806 0.40837 0.51931 0.0
C3858 C 0.43705 0.46546 0.51748 0.0
C3859 C 0.42092 0.453 0.52 0.0
C3860 C 0.36821 0.45384 0.51458 0.0
C3861 C 0.33225 0.41157 0.51169 0.0
C3862 C 0.35091 0.4226 0.5133 0.0
C3863 C 0.4038 0.45618 0.50978 0.0
C3864 C 0.38598 0.44431 0.51285 0.0
H3865 H 0.31125 0.37361 0.48718 0.0
H3866 H 0.34247 0.39041 0.49099 0.0
H3867 H 0.3376 0.45119 0.51549 0.0
H3868 H 0.41824 0.49536 0.48375 0.0
H3869 H 0.39065 0.47386 0.48804 0.0
C3870 C 0.79578 0.06417 0.47676 0.0
C3871 C 0.79457 0.0844 0.48055 0.0
C3872 C 0.81319 0.05439 0.47942 0.0
C3873 C 0.8654 0.06337 0.48367 0.0
H3874 H 0.86604 0.01633 0.51442 0.0
C3875 C 0.92768 0.00777 0.50387 0.0
C3876 C 0.94118 0.02213 0.50961 0.0
C3877 C 0.90814 0.01254 0.50252 0.0
C3878 C 0.86595 0.02936 0.50573 0.0
H3879 H 0.81078 0.11038 0.48922 0.0
H3880 H 0.84094 0.09344 0.49374 0.0
H3881 H 0.83503 0.03045 0.50496 0.0
H3882 H 0.9449 0.05148 0.5211 0.0
H3883 H 0.9109 0.05967 0.51895 0.0
H3884 H 0.89612 0.0627 0.48477 0.0
C3885 C 0.82853 0.08508 0.48875 0.0
C3886 C 0.84832 0.03735 0.50021 0.0
C3887 C 0.81121 0.09478 0.48625 0.0
C3888 C 0.93475 0.04036 0.51616 0.0
C3889 C 0.91535 0.04503 0.51498 0.0
C3890 C 0.88287 0.05552 0.48925 0.0
C3891 C 0.82965 0.06477 0.48563 0.0
C3892 C 0.84796 0.05468 0.48948 0.0
C3893 C 0.90213 0.03159 0.50706 0.0
C3894 C 0.8833 0.03875 0.50067 0.0
H3895 H 0.78317 0.05578 0.47241 0.0
H3896 H 0.81376 0.03874 0.47678 0.0
H3897 H 0.86554 0.07649 0.47508 0.0
H3898 H 0.93238 0.99353 0.49893 0.0
H3899 H 0.8981 0.00194 0.49648 0.0
C3900 C 0.64415 0.06354 0.23495 0.0
C3901 C 0.62763 0.06104 0.24611 0.0
C3902 C 0.65203 0.08216 0.23227 0.0
C3903 C 0.66079 0.12447 0.22229 0.0
H3904 H 0.67497 0.15088 0.26913 0.0
C3905 C 0.70722 0.19678 0.23183 0.0
C3906 C 0.72449 0.19243 0.24129 0.0
C3907 C 0.69248 0.1827 0.23045 0.0
C3908 C 0.67079 0.14381 0.25595 0.0
H3909 H 0.60544 0.07565 0.26224 0.0
H3910 H 0.61975 0.10861 0.25815 0.0
H3911 H 0.65242 0.12303 0.26991 0.0
H3912 H 0.74005 0.16984 0.25631 0.0
H3913 H 0.71408 0.14547 0.25419 0.0
H3914 H 0.67967 0.14505 0.20845 0.0
C3915 C 0.62654 0.09612 0.25149 0.0
C3916 C 0.65788 0.12801 0.25637 0.0
C3917 C 0.61846 0.07741 0.2539 0.0
C3918 C 0.72695 0.17362 0.24889 0.0
C3919 C 0.71211 0.15973 0.24781 0.0
C3920 C 0.67342 0.14056 0.22183 0.0
C3921 C 0.64346 0.09857 0.24073 0.0
C3922 C 0.65341 0.11773 0.23965 0.0
C3923 C 0.69474 0.1643 0.23883 0.0
C3924 C 0.67897 0.14981 0.23875 0.0
H3925 H 0.65111 0.05103 0.22847 0.0
H3926 H 0.66524 0.08363 0.22417 0.0
H3927 H 0.65742 0.11679 0.20921 0.0
H3928 H 0.70498 0.21115 0.22579 0.0
H3929 H 0.67914 0.18634 0.22339 0.0
C3930 C 0.68167 0.88495 0.01002 0.0
C3931 C 0.69534 0.90013 0.00726 0.0
C3932 C 0.66283 0.88919 0.01564 0.0
C3933 C 0.63288 0.92795 0.03697 0.0
H3934 H 0.59342 0.91021 0.00179 0.0
C3935 C 0.57863 0.97673 0.00549 0.0
C3936 C 0.56135 0.96949 -0.00212 0.0
C3937 C 0.59026 0.96465 0.01629 0.0
C3938 C 0.60397 0.9148 0.01227 0.0
H3939 H 0.70001 0.93162 0.00864 0.0
H3940 H 0.66715 0.93901 0.01846 0.0
H3941 H 0.62497 0.89505 0.00119 0.0
H3942 H 0.54168 0.94465 -0.00355 0.0
H3943 H 0.56245 0.923 0.01501 0.0
H3944 H 0.61228 0.94864 0.04716 0.0
C3945 C 0.67108 0.92381 0.01638 0.0
C3946 C 0.62214 0.90618 0.01181 0.0
C3947 C 0.68982 0.91961 0.0105 0.0
C3948 C 0.55497 0.95048 0.0024 0.0
C3949 C 0.56685 0.93815 0.01294 0.0
C3950 C 0.61467 0.93647 0.03754 0.0
C3951 C 0.65738 0.90866 0.01893 0.0
C3952 C 0.6371 0.9136 0.02329 0.0
C3953 C 0.58509 0.94486 0.01913 0.0
C3954 C 0.60052 0.93096 0.02422 0.0
H3955 H 0.68546 0.86976 0.00765 0.0
H3956 H 0.65252 0.87727 0.01738 0.0
H3957 H 0.64407 0.93357 0.04631 0.0
H3958 H 0.58374 0.99138 0.00207 0.0
H3959 H 0.60424 0.97031 0.02066 0.0
C3960 C 0.34219 0.43735 0.24893 0.0
C3961 C 0.36061 0.44279 0.25538 0.0
C3962 C 0.33465 0.41873 0.25293 0.0
C3963 C 0.34196 0.36989 0.25435 0.0
H3964 H 0.30102 0.36403 0.29145 0.0
C3965 C 0.2925 0.30274 0.2512 0.0
C3966 C 0.27345 0.3089 0.24874 0.0
C3967 C 0.30626 0.31559 0.25912 0.0
C3968 C 0.31261 0.36531 0.28122 0.0
H3969 H 0.38625 0.43284 0.26975 0.0
H3970 H 0.37301 0.39991 0.27659 0.0
H3971 H 0.31987 0.39454 0.29017 0.0
H3972 H 0.25323 0.33219 0.25393 0.0
H3973 H 0.27689 0.35443 0.26799 0.0
H3974 H 0.33389 0.34129 0.24433 0.0
C3975 C 0.36429 0.41032 0.26898 0.0
C3976 C 0.32334 0.38277 0.28051 0.0
C3977 C 0.37179 0.42904 0.26508 0.0
C3978 C 0.26785 0.32714 0.2559 0.0
C3979 C 0.28145 0.33984 0.26401 0.0
C3980 C 0.33119 0.35242 0.25498 0.0
C3981 C 0.34561 0.40516 0.26304 0.0
C3982 C 0.33753 0.38544 0.2666 0.0
C3983 C 0.30101 0.33465 0.26473 0.0
C3984 C 0.31579 0.35031 0.26785 0.0
H3985 H 0.33368 0.44748 0.24074 0.0
H3986 H 0.32031 0.41485 0.24798 0.0
H3987 H 0.35283 0.37175 0.24346 0.0
H3988 H 0.29712 0.2888 0.24544 0.0
H3989 H 0.32119 0.31112 0.25965 0.0
C3990 C 0.20236 0.59504 0.00982 0.0
C3991 C 0.20313 0.61225 -0.00084 0.0
C3992 C 0.18474 0.58588 0.01345 0.0
C3993 C 0.13121 0.59128 0.00798 0.0
H3994 H 0.1337 0.53453 0.00654 0.0
C3995 C 0.06396 0.53904 0.0119 0.0
C3996 C 0.06484 0.52245 4e-05 0.0
C3997 C 0.08005 0.55151 0.01377 0.0
C3998 C 0.13271 0.55038 0.00684 0.0
H3999 H 0.18651 0.63435 0.98495 0.0
H4000 H 0.15559 0.61743 0.98968 0.0
H4001 H 0.16312 0.55351 0.00666 0.0
H4002 H 0.08249 0.50665 0.97983 0.0
H4003 H 0.11007 0.52858 0.98257 0.0
H4004 H 0.10044 0.58772 0.00704 0.0
C4005 C 0.1684 0.61122 0.99586 0.0
C4006 C 0.14968 0.56137 0.00722 0.0
C4007 C 0.18608 0.62077 0.99284 0.0
C4008 C 0.08158 0.51907 0.98943 0.0
C4009 C 0.09742 0.53159 0.99107 0.0
C4010 C 0.1141 0.5802 0.00735 0.0
C4011 C 0.16756 0.59344 0.00596 0.0
C4012 C 0.14924 0.58199 0.00742 0.0
C4013 C 0.09706 0.54762 0.00363 0.0
C4014 C 0.11476 0.55964 0.0063 0.0
H4015 H 0.21543 0.5887 0.0154 0.0
H4016 H 0.1847 0.5727 0.02192 0.0
H4017 H 0.13025 0.60711 0.00861 0.0
H4018 H 0.05113 0.54197 0.02015 0.0
H4019 H 0.07938 0.56379 0.02353 0.0
C4020 C 0.63853 0.94517 0.24688 0.0
C4021 C 0.64832 0.96054 0.25632 0.0
C4022 C 0.64706 0.92685 0.24489 0.0
C4023 C 0.69375 0.90138 0.24769 0.0
H4024 H 0.66191 0.85656 0.26157 0.0
C4025 C 0.72 0.82075 0.24694 0.0
C4026 C 0.71345 0.80899 0.26198 0.0
C4027 C 0.71314 0.83978 0.24482 0.0
C4028 C 0.671 0.86896 0.25774 0.0
H4029 H 0.67494 0.96882 0.27067 0.0
H4030 H 0.68959 0.93678 0.26749 0.0
H4031 H 0.64746 0.88878 0.25939 0.0
H4032 H 0.6958 0.80831 0.28734 0.0
H4033 H 0.68426 0.84168 0.28394 0.0
H4034 H 0.71745 0.88153 0.24671 0.0
C4035 C 0.67544 0.93898 0.26143 0.0
C4036 C 0.66267 0.88735 0.25622 0.0
C4037 C 0.66691 0.95727 0.26347 0.0
C4038 C 0.70088 0.81696 0.27548 0.0
C4039 C 0.69417 0.83599 0.27345 0.0
C4040 C 0.70211 0.88293 0.24922 0.0
C4041 C 0.66555 0.92356 0.25226 0.0
C4042 C 0.67403 0.9038 0.25159 0.0
C4043 C 0.69974 0.84734 0.25779 0.0
C4044 C 0.69088 0.86666 0.25472 0.0
H4045 H 0.62425 0.94724 0.24105 0.0
H4046 H 0.63918 0.91524 0.23762 0.0
H4047 H 0.70277 0.91381 0.24382 0.0
H4048 H 0.72963 0.81493 0.23626 0.0
H4049 H 0.71766 0.84822 0.23261 0.0
C4050 C 0.86836 0.06151 0.74031 0.0
C4051 C 0.85513 0.04809 0.74838 0.0
C4052 C 0.86268 0.08059 0.73586 0.0
C4053 C 0.824 0.10868 0.71937 0.0
H4054 H 0.83262 0.15033 0.7561 0.0
C4055 C 0.76698 0.16224 0.74028 0.0
C4056 C 0.77177 0.18024 0.74878 0.0
C4057 C 0.78135 0.15039 0.73279 0.0
C4058 C 0.83054 0.13921 0.74526 0.0
H4059 H 0.82562 0.04425 0.75808 0.0
H4060 H 0.81571 0.07738 0.7499 0.0
H4061 H 0.85095 0.1201 0.7583 0.0
H4062 H 0.79483 0.20083 0.7551 0.0
H4063 H 0.82029 0.18005 0.7419 0.0
H4064 H 0.80292 0.12722 0.70682 0.0
C4065 C 0.83047 0.07309 0.74722 0.0
C4066 C 0.84099 0.12186 0.74663 0.0
C4067 C 0.8362 0.05421 0.75201 0.0
C4068 C 0.7909 0.18705 0.74832 0.0
C4069 C 0.80542 0.17507 0.74096 0.0
C4070 C 0.81372 0.1261 0.71782 0.0
C4071 C 0.84362 0.08634 0.73904 0.0
C4072 C 0.83705 0.10617 0.73429 0.0
C4073 C 0.80087 0.15617 0.73397 0.0
C4074 C 0.816 0.14108 0.73147 0.0
H4075 H 0.88307 0.05723 0.73738 0.0
H4076 H 0.87303 0.09073 0.72968 0.0
H4077 H 0.82085 0.09669 0.70967 0.0
H4078 H 0.75225 0.15672 0.74064 0.0
H4079 H 0.77722 0.13591 0.72773 0.0
loop_
_geom_bond_atom_site_label_1
_geom_bond_atom_site_label_2
_geom_bond_distance
_geom_bond_site_symmetry_2
_ccdc_geom_bond_type
Mn0 O5 2.094 . S
Mn0 O15 2.162 . S
Mn0 O16 2.297 . S
Mn0 O24 2.385 . S
Mn0 O25 2.209 1_455 S
Mn0 O26 2.094 1_455 S
Mn1 O6 2.121 . S
Mn1 N8 2.257 . S
Mn1 N17 2.282 . S
Mn1 O25 2.213 . S
Mn1 O27 2.117 . S
C2 O24 1.234 . S
C2 O25 1.284 1_455 S
C3 O15 1.281 . S
C3 O16 1.236 . S
C4 O26 1.240 . S
C4 O27 1.264 . S
O5 Mn0 2.094 . S
O5 C14 1.251 1_455 S
O6 Mn1 2.121 . S
O6 C14 1.258 . S
C7 N8 1.326 . S
C7 C11 1.460 . S
C7 H13 0.929 . S
N8 Mn1 2.257 . S
N8 C7 1.326 . S
N8 C12 1.362 . S
C9 C10 1.258 . S
C9 C12 1.431 . S
C9 C29 1.449 . S
C10 C9 1.258 . S
C10 C11 1.477 . S
C10 H30 0.931 . S
C11 C7 1.460 . S
C11 C10 1.477 . S
C11 H31 0.930 . S
C12 N8 1.362 . S
C12 C9 1.431 . S
C12 C22 1.476 . S
H13 C7 0.929 . S
C14 O5 1.251 1_655 S
C14 O6 1.258 . S
O15 Mn0 2.162 . S
O15 C3 1.281 . S
O16 Mn0 2.297 . S
O16 C3 1.236 . S
N17 Mn1 2.282 . S
N17 C18 1.328 . S
N17 C22 1.318 . S
C18 N17 1.328 . S
C18 C19 1.457 . S
C18 H23 0.929 . S
C19 C18 1.457 . S
C19 C20 1.291 . S
C19 H32 0.931 . S
C20 C19 1.291 . S
C20 C21 1.373 . S
C20 H33 0.929 . S
C21 C20 1.373 . S
C21 C22 1.396 . S
C21 C28 1.403 . S
C22 C12 1.476 . S
C22 N17 1.318 . S
C22 C21 1.396 . S
H23 C18 0.929 . S
O24 Mn0 2.385 . S
O24 C2 1.234 . S
O25 Mn0 2.209 1_655 S
O25 Mn1 2.213 . S
O25 C2 1.284 1_655 S
O26 Mn0 2.094 1_655 S
O26 C4 1.240 . S
O27 Mn1 2.117 . S
O27 C4 1.264 . S
C28 C21 1.403 . S
C28 C29 1.399 . S
C28 H34 0.929 . S
C29 C9 1.449 . S
C29 C28 1.399 . S
C29 H35 0.930 . S
H30 C10 0.931 . S
H31 C11 0.930 . S
H32 C19 0.931 . S
H33 C20 0.929 . S
H34 C28 0.929 . S
H35 C29 0.930 . S
Mn36 O41 2.095 . S
Mn36 O51 2.162 . S
Mn36 O52 2.297 . S
Mn36 O60 2.385 . S
Mn36 O61 2.209 . S
Mn36 O62 2.094 1_455 S
Mn37 O42 2.121 . S
Mn37 N44 2.257 . S
Mn37 N53 2.282 . S
Mn37 O61 2.215 1_655 S
Mn37 O63 2.117 . S
C38 O60 1.234 . S
C38 O61 1.283 . S
C39 O51 1.281 . S
C39 O52 1.236 . S
C40 O62 1.240 . S
C40 O63 1.264 . S
O41 Mn36 2.095 . S
O41 C50 1.248 1_455 S
O42 Mn37 2.121 . S
O42 C50 1.269 . S
C43 N44 1.326 . S
C43 C47 1.460 . S
C43 H49 0.929 . S
N44 Mn37 2.257 . S
N44 C43 1.326 . S
N44 C48 1.362 . S
C45 C46 1.258 . S
C45 C48 1.431 . S
C45 C65 1.449 . S
C46 C45 1.258 . S
C46 C47 1.477 . S
C46 H66 0.931 . S
C47 C43 1.460 . S
C47 C46 1.477 . S
C47 H67 0.930 . S
C48 N44 1.362 . S
C48 C45 1.431 . S
C48 C58 1.476 . S
H49 C43 0.929 . S
C50 O41 1.248 1_655 S
C50 O42 1.269 . S
O51 Mn36 2.162 . S
O51 C39 1.281 . S
O52 Mn36 2.297 . S
O52 C39 1.236 . S
N53 Mn37 2.282 . S
N53 C54 1.328 . S
N53 C58 1.318 . S
C54 N53 1.328 . S
C54 C55 1.457 . S
C54 H59 0.929 . S
C55 C54 1.457 . S
C55 C56 1.291 . S
C55 H68 0.931 . S
C56 C55 1.291 . S
C56 C57 1.373 . S
C56 H69 0.929 . S
C57 C56 1.373 . S
C57 C58 1.396 . S
C57 C64 1.403 . S
C58 C48 1.476 . S
C58 N53 1.318 . S
C58 C57 1.396 . S
H59 C54 0.929 . S
O60 Mn36 2.385 . S
O60 C38 1.234 . S
O61 Mn36 2.209 . S
O61 Mn37 2.215 1_455 S
O61 C38 1.283 . S
O62 Mn36 2.094 1_655 S
O62 C40 1.240 . S
O63 Mn37 2.117 . S
O63 C40 1.264 . S
C64 C57 1.403 . S
C64 C65 1.399 . S
C64 H70 0.929 . S
C65 C45 1.449 . S
C65 C64 1.399 . S
C65 H71 0.930 . S
H66 C46 0.931 . S
H67 C47 0.930 . S
H68 C55 0.931 . S
H69 C56 0.929 . S
H70 C64 0.929 . S
H71 C65 0.930 . S
Mn72 O77 2.095 . S
Mn72 O87 2.162 . S
Mn72 O88 2.297 . S
Mn72 O96 2.385 . S
Mn72 O97 2.209 . S
Mn72 O98 2.094 . S
Mn73 O78 2.121 . S
Mn73 N80 2.257 . S
Mn73 N89 2.282 . S
Mn73 O97 2.215 . S
Mn73 O99 2.117 . S
C74 O96 1.234 . S
C74 O97 1.283 . S
C75 O87 1.281 . S
C75 O88 1.236 . S
C76 O98 1.240 . S
C76 O99 1.264 . S
O77 Mn72 2.095 . S
O77 C86 1.250 . S
O78 Mn73 2.121 . S
O78 C86 1.258 . S
C79 N80 1.326 . S
C79 C83 1.460 . S
C79 H85 0.929 . S
N80 Mn73 2.257 . S
N80 C79 1.326 . S
N80 C84 1.362 . S
C81 C82 1.258 . S
C81 C84 1.431 . S
C81 C101 1.449 . S
C82 C81 1.258 . S
C82 C83 1.477 . S
C82 H102 0.931 . S
C83 C79 1.460 . S
C83 C82 1.477 . S
C83 H103 0.930 . S
C84 N80 1.362 . S
C84 C81 1.431 . S
C84 C94 1.476 . S
H85 C79 0.929 . S
C86 O77 1.250 . S
C86 O78 1.258 . S
O87 Mn72 2.162 . S
O87 C75 1.281 . S
O88 Mn72 2.297 . S
O88 C75 1.236 . S
N89 Mn73 2.282 . S
N89 C90 1.328 . S
N89 C94 1.318 . S
C90 N89 1.328 . S
C90 C91 1.457 . S
C90 H95 0.929 . S
C91 C90 1.457 . S
C91 C92 1.291 . S
C91 H104 0.931 . S
C92 C91 1.291 . S
C92 C93 1.373 . S
C92 H105 0.929 . S
C93 C92 1.373 . S
C93 C94 1.396 . S
C93 C100 1.403 . S
C94 C84 1.476 . S
C94 N89 1.318 . S
C94 C93 1.396 . S
H95 C90 0.929 . S
O96 Mn72 2.385 . S
O96 C74 1.234 . S
O97 Mn72 2.209 . S
O97 Mn73 2.215 . S
O97 C74 1.283 . S
O98 Mn72 2.094 . S
O98 C76 1.240 . S
O99 Mn73 2.117 . S
O99 C76 1.264 . S
C100 C93 1.403 . S
C100 C101 1.399 . S
C100 H106 0.929 . S
C101 C81 1.449 . S
C101 C100 1.399 . S
C101 H107 0.930 . S
H102 C82 0.931 . S
H103 C83 0.930 . S
H104 C91 0.931 . S
H105 C92 0.929 . S
H106 C100 0.929 . S
H107 C101 0.930 . S
Mn108 O113 2.095 . S
Mn108 O123 2.162 . S
Mn108 O124 2.297 . S
Mn108 O132 2.385 . S
Mn108 O133 2.209 . S
Mn108 O134 2.094 . S
Mn109 O114 2.121 . S
Mn109 N116 2.257 . S
Mn109 N125 2.282 . S
Mn109 O133 2.215 . S
Mn109 O135 2.117 . S
C110 O132 1.234 . S
C110 O133 1.283 . S
C111 O123 1.281 . S
C111 O124 1.236 . S
C112 O134 1.240 . S
C112 O135 1.264 . S
O113 Mn108 2.095 . S
O113 C122 1.250 . S
O114 Mn109 2.121 . S
O114 C122 1.258 . S
C115 N116 1.326 . S
C115 C119 1.460 . S
C115 H121 0.929 . S
N116 Mn109 2.257 . S
N116 C115 1.326 . S
N116 C120 1.362 . S
C117 C118 1.258 . S
C117 C120 1.431 . S
C117 C137 1.449 . S
C118 C117 1.258 . S
C118 C119 1.477 . S
C118 H138 0.931 . S
C119 C115 1.460 . S
C119 C118 1.477 . S
C119 H139 0.930 . S
C120 N116 1.362 . S
C120 C117 1.431 . S
C120 C130 1.476 . S
H121 C115 0.929 . S
C122 O113 1.250 . S
C122 O114 1.258 . S
O123 Mn108 2.162 . S
O123 C111 1.281 . S
O124 Mn108 2.297 . S
O124 C111 1.236 . S
N125 Mn109 2.282 . S
N125 C126 1.328 . S
N125 C130 1.318 . S
C126 N125 1.328 . S
C126 C127 1.457 . S
C126 H131 0.929 . S
C127 C126 1.457 . S
C127 C128 1.291 . S
C127 H140 0.931 . S
C128 C127 1.291 . S
C128 C129 1.373 . S
C128 H141 0.929 . S
C129 C128 1.373 . S
C129 C130 1.396 . S
C129 C136 1.403 . S
C130 C120 1.476 . S
C130 N125 1.318 . S
C130 C129 1.396 . S
H131 C126 0.929 . S
O132 Mn108 2.385 . S
O132 C110 1.234 . S
O133 Mn108 2.209 . S
O133 Mn109 2.215 . S
O133 C110 1.283 . S
O134 Mn108 2.094 . S
O134 C112 1.240 . S
O135 Mn109 2.117 . S
O135 C112 1.264 . S
C136 C129 1.403 . S
C136 C137 1.399 . S
C136 H142 0.929 . S
C137 C117 1.449 . S
C137 C136 1.399 . S
C137 H143 0.930 . S
H138 C118 0.931 . S
H139 C119 0.930 . S
H140 C127 0.931 . S
H141 C128 0.929 . S
H142 C136 0.929 . S
H143 C137 0.930 . S
Mn144 O149 2.095 1_545 S
Mn144 O159 2.162 . S
Mn144 O160 2.297 . S
Mn144 O168 2.385 . S
Mn144 O169 2.209 . S
Mn144 O170 2.094 . S
Mn145 O150 2.121 1_545 S
Mn145 N152 2.257 . S
Mn145 N161 2.282 . S
Mn145 O169 2.215 . S
Mn145 O171 2.117 . S
C146 O168 1.234 . S
C146 O169 1.283 . S
C147 O159 1.281 . S
C147 O160 1.236 . S
C148 O170 1.240 . S
C148 O171 1.264 . S
O149 Mn144 2.095 1_565 S
O149 C158 1.250 . S
O150 Mn145 2.121 1_565 S
O150 C158 1.258 . S
C151 N152 1.358 . S
C151 C155 1.475 . S
C151 H157 0.885 1_545 S
N152 Mn145 2.257 . S
N152 C151 1.358 . S
N152 C156 1.362 . S
C153 C154 1.258 . S
C153 C156 1.431 . S
C153 C173 1.449 . S
C154 C153 1.258 . S
C154 C155 1.477 . S
C154 H174 0.931 . S
C155 C151 1.475 . S
C155 C154 1.477 . S
C155 H175 0.908 1_545 S
C156 N152 1.362 . S
C156 C153 1.431 . S
C156 C166 1.476 . S
H157 C151 0.885 1_565 S
C158 O149 1.250 . S
C158 O150 1.258 . S
O159 Mn144 2.162 . S
O159 C147 1.281 . S
O160 Mn144 2.297 . S
O160 C147 1.236 . S
N161 Mn145 2.282 . S
N161 C162 1.328 . S
N161 C166 1.318 . S
C162 N161 1.328 . S
C162 C163 1.457 . S
C162 H167 0.929 . S
C163 C162 1.457 . S
C163 C164 1.291 . S
C163 H176 0.931 . S
C164 C163 1.291 . S
C164 C165 1.373 . S
C164 H177 0.929 . S
C165 C164 1.373 . S
C165 C166 1.396 . S
C165 C172 1.403 . S
C166 C156 1.476 . S
C166 N161 1.318 . S
C166 C165 1.396 . S
H167 C162 0.929 . S
O168 Mn144 2.385 . S
O168 C146 1.234 . S
O169 Mn144 2.209 . S
O169 Mn145 2.215 . S
O169 C146 1.283 . S
O170 Mn144 2.094 . S
O170 C148 1.240 . S
O171 Mn145 2.117 . S
O171 C148 1.264 . S
C172 C165 1.403 . S
C172 C173 1.399 . S
C172 H178 0.929 . S
C173 C153 1.449 . S
C173 C172 1.399 . S
C173 H179 0.930 . S
H174 C154 0.931 . S
H175 C155 0.908 1_565 S
H176 C163 0.931 . S
H177 C164 0.929 . S
H178 C172 0.929 . S
H179 C173 0.930 . S
Mn180 O185 2.095 . S
Mn180 O195 2.162 . S
Mn180 O196 2.297 . S
Mn180 O204 2.385 . S
Mn180 O205 2.209 . S
Mn180 O206 2.094 . S
Mn181 O186 2.121 . S
Mn181 N188 2.257 . S
Mn181 N197 2.282 . S
Mn181 O205 2.215 . S
Mn181 O207 2.117 . S
C182 O204 1.234 . S
C182 O205 1.283 . S
C183 O195 1.281 . S
C183 O196 1.236 . S
C184 O206 1.240 . S
C184 O207 1.264 . S
O185 Mn180 2.095 . S
O185 C194 1.250 . S
O186 Mn181 2.121 . S
O186 C194 1.258 . S
C187 N188 1.326 . S
C187 C191 1.460 . S
C187 H193 0.929 . S
N188 Mn181 2.257 . S
N188 C187 1.326 . S
N188 C192 1.362 . S
C189 C190 1.258 . S
C189 C192 1.431 . S
C189 C209 1.449 . S
C190 C189 1.258 . S
C190 C191 1.477 . S
C190 H210 0.931 . S
C191 C187 1.460 . S
C191 C190 1.477 . S
C191 H211 0.930 . S
C192 N188 1.362 . S
C192 C189 1.431 . S
C192 C202 1.476 . S
H193 C187 0.929 . S
C194 O185 1.250 . S
C194 O186 1.258 . S
O195 Mn180 2.162 . S
O195 C183 1.281 . S
O196 Mn180 2.297 . S
O196 C183 1.236 . S
N197 Mn181 2.282 . S
N197 C198 1.328 . S
N197 C202 1.318 . S
C198 N197 1.328 . S
C198 C199 1.457 . S
C198 H203 0.929 . S
C199 C198 1.457 . S
C199 C200 1.291 . S
C199 H212 0.931 . S
C200 C199 1.291 . S
C200 C201 1.373 . S
C200 H213 0.929 . S
C201 C200 1.373 . S
C201 C202 1.396 . S
C201 C208 1.403 . S
C202 C192 1.476 . S
C202 N197 1.318 . S
C202 C201 1.396 . S
H203 C198 0.929 . S
O204 Mn180 2.385 . S
O204 C182 1.234 . S
O205 Mn180 2.209 . S
O205 Mn181 2.215 . S
O205 C182 1.283 . S
O206 Mn180 2.094 . S
O206 C184 1.240 . S
O207 Mn181 2.117 . S
O207 C184 1.264 . S
C208 C201 1.403 . S
C208 C209 1.399 . S
C208 H214 0.929 . S
C209 C189 1.449 . S
C209 C208 1.399 . S
C209 H215 0.930 . S
H210 C190 0.931 . S
H211 C191 0.930 . S
H212 C199 0.931 . S
H213 C200 0.929 . S
H214 C208 0.929 . S
H215 C209 0.930 . S
Mn216 O221 2.095 . S
Mn216 O231 2.162 . S
Mn216 O232 2.297 . S
Mn216 O240 2.385 1_545 S
Mn216 O241 2.209 1_545 S
Mn216 O242 2.094 . S
Mn217 O222 2.121 . S
Mn217 N224 2.257 1_545 S
Mn217 N233 2.282 1_545 S
Mn217 O241 2.215 1_545 S
Mn217 O243 2.117 . S
C218 O240 1.234 . S
C218 O241 1.283 . S
C219 O231 1.281 . S
C219 O232 1.236 . S
C220 O242 1.240 . S
C220 O243 1.264 . S
O221 Mn216 2.095 . S
O221 C230 1.250 . S
O222 Mn217 2.121 . S
O222 C230 1.258 . S
C223 N224 1.326 1_545 S
C223 C227 1.463 . S
C223 H229 0.929 . S
N224 Mn217 2.257 1_565 S
N224 C223 1.326 1_565 S
N224 C228 1.362 . S
C225 C226 1.258 . S
C225 C228 1.431 . S
C225 C245 1.449 . S
C226 C225 1.258 . S
C226 C227 1.466 1_565 S
C226 H246 0.931 . S
C227 C223 1.463 . S
C227 C226 1.466 1_545 S
C227 H247 0.938 . S
C228 N224 1.362 . S
C228 C225 1.431 . S
C228 C238 1.476 . S
H229 C223 0.929 . S
C230 O221 1.250 . S
C230 O222 1.258 . S
O231 Mn216 2.162 . S
O231 C219 1.281 . S
O232 Mn216 2.297 . S
O232 C219 1.236 . S
N233 Mn217 2.282 1_565 S
N233 C234 1.328 . S
N233 C238 1.318 . S
C234 N233 1.328 . S
C234 C235 1.457 . S
C234 H239 0.929 . S
C235 C234 1.457 . S
C235 C236 1.291 . S
C235 H248 0.931 . S
C236 C235 1.291 . S
C236 C237 1.373 . S
C236 H249 0.929 . S
C237 C236 1.373 . S
C237 C238 1.396 . S
C237 C244 1.403 . S
C238 C228 1.476 . S
C238 N233 1.318 . S
C238 C237 1.396 . S
H239 C234 0.929 . S
O240 Mn216 2.385 1_565 S
O240 C218 1.234 . S
O241 Mn216 2.209 1_565 S
O241 Mn217 2.215 1_565 S
O241 C218 1.283 . S
O242 Mn216 2.094 . S
O242 C220 1.240 . S
O243 Mn217 2.117 . S
O243 C220 1.264 . S
C244 C237 1.403 . S
C244 C245 1.399 . S
C244 H250 0.929 . S
C245 C225 1.449 . S
C245 C244 1.399 . S
C245 H251 0.930 . S
H246 C226 0.931 . S
H247 C227 0.938 . S
H248 C235 0.931 . S
H249 C236 0.929 . S
H250 C244 0.929 . S
H251 C245 0.930 . S
Mn252 O257 2.101 . S
Mn252 O267 2.162 . S
Mn252 O268 2.297 . S
Mn252 O276 2.385 . S
Mn252 O277 2.217 . S
Mn252 O278 2.094 1_554 S
Mn253 O258 2.121 . S
Mn253 N260 2.257 . S
Mn253 N269 2.282 . S
Mn253 O277 2.174 1_556 S
Mn253 O279 2.117 . S
C254 O276 1.234 . S
C254 O277 1.293 . S
C255 O267 1.281 . S
C255 O268 1.236 . S
C256 O278 1.240 . S
C256 O279 1.264 . S
O257 Mn252 2.101 . S
O257 C266 1.247 1_554 S
O258 Mn253 2.121 . S
O258 C266 1.258 . S
C259 N260 1.326 . S
C259 C263 1.460 . S
C259 H265 0.929 . S
N260 Mn253 2.257 . S
N260 C259 1.326 . S
N260 C264 1.362 . S
C261 C262 1.258 . S
C261 C264 1.431 . S
C261 C281 1.449 . S
C262 C261 1.258 . S
C262 C263 1.477 . S
C262 H282 0.931 . S
C263 C259 1.460 . S
C263 C262 1.477 . S
C263 H283 0.930 . S
C264 N260 1.362 . S
C264 C261 1.431 . S
C264 C274 1.476 . S
H265 C259 0.929 . S
C266 O257 1.247 1_556 S
C266 O258 1.258 . S
O267 Mn252 2.162 . S
O267 C255 1.281 . S
O268 Mn252 2.297 . S
O268 C255 1.236 . S
N269 Mn253 2.282 . S
N269 C270 1.328 . S
N269 C274 1.318 . S
C270 N269 1.328 . S
C270 C271 1.457 . S
C270 H275 0.929 . S
C271 C270 1.457 . S
C271 C272 1.291 . S
C271 H284 0.931 . S
C272 C271 1.291 . S
C272 C273 1.373 . S
C272 H285 0.929 . S
C273 C272 1.373 . S
C273 C274 1.396 . S
C273 C280 1.403 . S
C274 C264 1.476 . S
C274 N269 1.318 . S
C274 C273 1.396 . S
H275 C270 0.929 . S
O276 Mn252 2.385 . S
O276 C254 1.234 . S
O277 Mn252 2.217 . S
O277 Mn253 2.174 1_554 S
O277 C254 1.293 . S
O278 Mn252 2.094 1_556 S
O278 C256 1.240 . S
O279 Mn253 2.117 . S
O279 C256 1.264 . S
C280 C273 1.403 . S
C280 C281 1.399 . S
C280 H286 0.929 . S
C281 C261 1.449 . S
C281 C280 1.399 . S
C281 H287 0.930 . S
H282 C262 0.931 . S
H283 C263 0.930 . S
H284 C271 0.931 . S
H285 C272 0.929 . S
H286 C280 0.929 . S
H287 C281 0.930 . S
Mn288 O293 2.095 . S
Mn288 O303 2.162 . S
Mn288 O304 2.297 . S
Mn288 O312 2.385 . S
Mn288 O313 2.214 . S
Mn288 O314 2.094 1_554 S
Mn289 O294 2.121 . S
Mn289 N296 2.257 . S
Mn289 N305 2.282 . S
Mn289 O313 2.190 1_556 S
Mn289 O315 2.117 . S
C290 O312 1.234 . S
C290 O313 1.289 . S
C291 O303 1.281 . S
C291 O304 1.236 . S
C292 O314 1.240 . S
C292 O315 1.264 . S
O293 Mn288 2.095 . S
O293 C302 1.250 1_554 S
O294 Mn289 2.121 . S
O294 C302 1.258 . S
C295 N296 1.326 . S
C295 C299 1.460 . S
C295 H301 0.929 . S
N296 Mn289 2.257 . S
N296 C295 1.326 . S
N296 C300 1.362 . S
C297 C298 1.258 . S
C297 C300 1.431 . S
C297 C317 1.449 . S
C298 C297 1.258 . S
C298 C299 1.477 . S
C298 H318 0.931 . S
C299 C295 1.460 . S
C299 C298 1.477 . S
C299 H319 0.930 . S
C300 N296 1.362 . S
C300 C297 1.431 . S
C300 C310 1.476 . S
H301 C295 0.929 . S
C302 O293 1.250 1_556 S
C302 O294 1.258 . S
O303 Mn288 2.162 . S
O303 C291 1.281 . S
O304 Mn288 2.297 . S
O304 C291 1.236 . S
N305 Mn289 2.282 . S
N305 C306 1.328 . S
N305 C310 1.318 . S
C306 N305 1.328 . S
C306 C307 1.457 . S
C306 H311 0.929 . S
C307 C306 1.457 . S
C307 C308 1.291 . S
C307 H320 0.931 . S
C308 C307 1.291 . S
C308 C309 1.373 . S
C308 H321 0.929 . S
C309 C308 1.373 . S
C309 C310 1.396 . S
C309 C316 1.403 . S
C310 C300 1.476 . S
C310 N305 1.318 . S
C310 C309 1.396 . S
H311 C306 0.929 . S
O312 Mn288 2.385 . S
O312 C290 1.234 . S
O313 Mn288 2.214 . S
O313 Mn289 2.190 1_554 S
O313 C290 1.289 . S
O314 Mn288 2.094 1_556 S
O314 C292 1.240 . S
O315 Mn289 2.117 . S
O315 C292 1.264 . S
C316 C309 1.403 . S
C316 C317 1.399 . S
C316 H322 0.929 . S
C317 C297 1.449 . S
C317 C316 1.399 . S
C317 H323 0.930 . S
H318 C298 0.931 . S
H319 C299 0.930 . S
H320 C307 0.931 . S
H321 C308 0.929 . S
H322 C316 0.929 . S
H323 C317 0.930 . S
Mn324 O329 2.095 . S
Mn324 O339 2.162 . S
Mn324 O340 2.297 . S
Mn324 O348 2.385 . S
Mn324 O349 2.209 . S
Mn324 O350 2.094 . S
Mn325 O330 2.121 . S
Mn325 N332 2.257 . S
Mn325 N341 2.282 . S
Mn325 O349 2.215 . S
Mn325 O351 2.117 . S
C326 O348 1.234 . S
C326 O349 1.283 . S
C327 O339 1.281 . S
C327 O340 1.236 . S
C328 O350 1.240 . S
C328 O351 1.264 . S
O329 Mn324 2.095 . S
O329 C338 1.250 . S
O330 Mn325 2.121 . S
O330 C338 1.258 . S
C331 N332 1.326 . S
C331 C335 1.460 . S
C331 H337 0.929 . S
N332 Mn325 2.257 . S
N332 C331 1.326 . S
N332 C336 1.362 . S
C333 C334 1.258 . S
C333 C336 1.431 . S
C333 C353 1.449 . S
C334 C333 1.258 . S
C334 C335 1.477 . S
C334 H354 0.931 . S
C335 C331 1.460 . S
C335 C334 1.477 . S
C335 H355 0.930 . S
C336 N332 1.362 . S
C336 C333 1.431 . S
C336 C346 1.476 . S
H337 C331 0.929 . S
C338 O329 1.250 . S
C338 O330 1.258 . S
O339 Mn324 2.162 . S
O339 C327 1.281 . S
O340 Mn324 2.297 . S
O340 C327 1.236 . S
N341 Mn325 2.282 . S
N341 C342 1.328 . S
N341 C346 1.318 . S
C342 N341 1.328 . S
C342 C343 1.457 . S
C342 H347 0.929 . S
C343 C342 1.457 . S
C343 C344 1.291 . S
C343 H356 0.931 . S
C344 C343 1.291 . S
C344 C345 1.373 . S
C344 H357 0.929 . S
C345 C344 1.373 . S
C345 C346 1.396 . S
C345 C352 1.403 . S
C346 C336 1.476 . S
C346 N341 1.318 . S
C346 C345 1.396 . S
H347 C342 0.929 . S
O348 Mn324 2.385 . S
O348 C326 1.234 . S
O349 Mn324 2.209 . S
O349 Mn325 2.215 . S
O349 C326 1.283 . S
O350 Mn324 2.094 . S
O350 C328 1.240 . S
O351 Mn325 2.117 . S
O351 C328 1.264 . S
C352 C345 1.403 . S
C352 C353 1.399 . S
C352 H358 0.929 . S
C353 C333 1.449 . S
C353 C352 1.399 . S
C353 H359 0.930 . S
H354 C334 0.931 . S
H355 C335 0.930 . S
H356 C343 0.931 . S
H357 C344 0.929 . S
H358 C352 0.929 . S
H359 C353 0.930 . S
Mn360 O365 2.095 . S
Mn360 O375 2.162 . S
Mn360 O376 2.297 . S
Mn360 O384 2.385 . S
Mn360 O385 2.209 . S
Mn360 O386 2.094 . S
Mn361 O366 2.121 . S
Mn361 N368 2.257 . S
Mn361 N377 2.282 . S
Mn361 O385 2.215 . S
Mn361 O387 2.117 . S
C362 O384 1.234 . S
C362 O385 1.283 . S
C363 O375 1.281 . S
C363 O376 1.236 . S
C364 O386 1.240 . S
C364 O387 1.264 . S
O365 Mn360 2.095 . S
O365 C374 1.250 . S
O366 Mn361 2.121 . S
O366 C374 1.258 . S
C367 N368 1.326 . S
C367 C371 1.460 . S
C367 H373 0.929 . S
N368 Mn361 2.257 . S
N368 C367 1.326 . S
N368 C372 1.362 . S
C369 C370 1.258 . S
C369 C372 1.431 . S
C369 C389 1.449 . S
C370 C369 1.258 . S
C370 C371 1.477 . S
C370 H390 0.931 . S
C371 C367 1.460 . S
C371 C370 1.477 . S
C371 H391 0.930 . S
C372 N368 1.362 . S
C372 C369 1.431 . S
C372 C382 1.476 . S
H373 C367 0.929 . S
C374 O365 1.250 . S
C374 O366 1.258 . S
O375 Mn360 2.162 . S
O375 C363 1.281 . S
O376 Mn360 2.297 . S
O376 C363 1.236 . S
N377 Mn361 2.282 . S
N377 C378 1.328 . S
N377 C382 1.318 . S
C378 N377 1.328 . S
C378 C379 1.457 . S
C378 H383 0.929 . S
C379 C378 1.457 . S
C379 C380 1.291 . S
C379 H392 0.931 . S
C380 C379 1.291 . S
C380 C381 1.373 . S
C380 H393 0.929 . S
C381 C380 1.373 . S
C381 C382 1.396 . S
C381 C388 1.403 . S
C382 C372 1.476 . S
C382 N377 1.318 . S
C382 C381 1.396 . S
H383 C378 0.929 . S
O384 Mn360 2.385 . S
O384 C362 1.234 . S
O385 Mn360 2.209 . S
O385 Mn361 2.215 . S
O385 C362 1.283 . S
O386 Mn360 2.094 . S
O386 C364 1.240 . S
O387 Mn361 2.117 . S
O387 C364 1.264 . S
C388 C381 1.403 . S
C388 C389 1.399 . S
C388 H394 0.929 . S
C389 C369 1.449 . S
C389 C388 1.399 . S
C389 H395 0.930 . S
H390 C370 0.931 . S
H391 C371 0.930 . S
H392 C379 0.931 . S
H393 C380 0.929 . S
H394 C388 0.929 . S
H395 C389 0.930 . S
Mn396 O401 2.095 . S
Mn396 O411 2.162 . S
Mn396 O412 2.297 . S
Mn396 O420 2.385 . S
Mn396 O421 2.209 . S
Mn396 O422 2.094 . S
Mn397 O402 2.121 . S
Mn397 N404 2.257 . S
Mn397 N413 2.282 . S
Mn397 O421 2.215 . S
Mn397 O423 2.117 . S
C398 O420 1.234 . S
C398 O421 1.283 . S
C399 O411 1.281 . S
C399 O412 1.236 . S
C400 O422 1.240 . S
C400 O423 1.264 . S
O401 Mn396 2.095 . S
O401 C410 1.250 . S
O402 Mn397 2.121 . S
O402 C410 1.258 . S
C403 N404 1.326 . S
C403 C407 1.460 . S
C403 H409 0.929 . S
N404 Mn397 2.257 . S
N404 C403 1.326 . S
N404 C408 1.362 . S
C405 C406 1.258 . S
C405 C408 1.431 . S
C405 C425 1.449 . S
C406 C405 1.258 . S
C406 C407 1.477 . S
C406 H426 0.931 . S
C407 C403 1.460 . S
C407 C406 1.477 . S
C407 H427 0.930 . S
C408 N404 1.362 . S
C408 C405 1.431 . S
C408 C418 1.476 . S
H409 C403 0.929 . S
C410 O401 1.250 . S
C410 O402 1.258 . S
O411 Mn396 2.162 . S
O411 C399 1.281 . S
O412 Mn396 2.297 . S
O412 C399 1.236 . S
N413 Mn397 2.282 . S
N413 C414 1.328 . S
N413 C418 1.318 . S
C414 N413 1.328 . S
C414 C415 1.457 . S
C414 H419 0.929 . S
C415 C414 1.457 . S
C415 C416 1.291 . S
C415 H428 0.931 . S
C416 C415 1.291 . S
C416 C417 1.373 . S
C416 H429 0.929 . S
C417 C416 1.373 . S
C417 C418 1.396 . S
C417 C424 1.403 . S
C418 C408 1.476 . S
C418 N413 1.318 . S
C418 C417 1.396 . S
H419 C414 0.929 . S
O420 Mn396 2.385 . S
O420 C398 1.234 . S
O421 Mn396 2.209 . S
O421 Mn397 2.215 . S
O421 C398 1.283 . S
O422 Mn396 2.094 . S
O422 C400 1.240 . S
O423 Mn397 2.117 . S
O423 C400 1.264 . S
C424 C417 1.403 . S
C424 C425 1.399 . S
C424 H430 0.929 . S
C425 C405 1.449 . S
C425 C424 1.399 . S
C425 H431 0.930 . S
H426 C406 0.931 . S
H427 C407 0.930 . S
H428 C415 0.931 . S
H429 C416 0.929 . S
H430 C424 0.929 . S
H431 C425 0.930 . S
Mn432 O437 2.095 . S
Mn432 O447 2.162 . S
Mn432 O448 2.297 . S
Mn432 O456 2.385 . S
Mn432 O457 2.209 . S
Mn432 O458 2.094 1_455 S
Mn433 O438 2.121 . S
Mn433 N440 2.257 . S
Mn433 N449 2.282 . S
Mn433 O457 2.215 1_655 S
Mn433 O459 2.117 . S
C434 O456 1.234 . S
C434 O457 1.283 . S
C435 O447 1.281 . S
C435 O448 1.236 . S
C436 O458 1.240 . S
C436 O459 1.264 . S
O437 Mn432 2.095 . S
O437 C446 1.251 . S
O438 Mn433 2.121 . S
O438 C446 1.253 1_655 S
C439 N440 1.326 . S
C439 C443 1.460 . S
C439 H445 0.929 . S
N440 Mn433 2.257 . S
N440 C439 1.326 . S
N440 C444 1.362 . S
C441 C442 1.258 . S
C441 C444 1.431 . S
C441 C461 1.449 . S
C442 C441 1.258 . S
C442 C443 1.477 . S
C442 H462 0.931 . S
C443 C439 1.460 . S
C443 C442 1.477 . S
C443 H463 0.930 . S
C444 N440 1.362 . S
C444 C441 1.431 . S
C444 C454 1.476 . S
H445 C439 0.929 . S
C446 O437 1.251 . S
C446 O438 1.253 1_455 S
O447 Mn432 2.162 . S
O447 C435 1.281 . S
O448 Mn432 2.297 . S
O448 C435 1.236 . S
N449 Mn433 2.282 . S
N449 C450 1.328 . S
N449 C454 1.318 . S
C450 N449 1.328 . S
C450 C451 1.457 . S
C450 H455 0.929 . S
C451 C450 1.457 . S
C451 C452 1.291 . S
C451 H464 0.931 . S
C452 C451 1.291 . S
C452 C453 1.373 . S
C452 H465 0.929 . S
C453 C452 1.373 . S
C453 C454 1.396 . S
C453 C460 1.403 . S
C454 C444 1.476 . S
C454 N449 1.318 . S
C454 C453 1.396 . S
H455 C450 0.929 . S
O456 Mn432 2.385 . S
O456 C434 1.234 . S
O457 Mn432 2.209 . S
O457 Mn433 2.215 1_455 S
O457 C434 1.283 . S
O458 Mn432 2.094 1_655 S
O458 C436 1.240 . S
O459 Mn433 2.117 . S
O459 C436 1.264 . S
C460 C453 1.403 . S
C460 C461 1.399 . S
C460 H466 0.929 . S
C461 C441 1.449 . S
C461 C460 1.399 . S
C461 H467 0.930 . S
H462 C442 0.931 . S
H463 C443 0.930 . S
H464 C451 0.931 . S
H465 C452 0.929 . S
H466 C460 0.929 . S
H467 C461 0.930 . S
Mn468 O473 2.095 1_455 S
Mn468 O483 2.162 . S
Mn468 O484 2.297 . S
Mn468 O492 2.385 . S
Mn468 O493 2.208 . S
Mn468 O494 2.094 1_455 S
Mn469 O474 2.121 . S
Mn469 N476 2.257 . S
Mn469 N485 2.282 . S
Mn469 O493 2.218 1_655 S
Mn469 O495 2.117 . S
C470 O492 1.234 . S
C470 O493 1.283 . S
C471 O483 1.281 . S
C471 O484 1.236 . S
C472 O494 1.240 . S
C472 O495 1.264 . S
O473 Mn468 2.095 1_655 S
O473 C482 1.250 . S
O474 Mn469 2.121 . S
O474 C482 1.258 . S
C475 N476 1.326 . S
C475 C479 1.460 . S
C475 H481 0.929 . S
N476 Mn469 2.257 . S
N476 C475 1.326 . S
N476 C480 1.362 . S
C477 C478 1.258 . S
C477 C480 1.431 . S
C477 C497 1.449 . S
C478 C477 1.258 . S
C478 C479 1.477 . S
C478 H498 0.931 . S
C479 C475 1.460 . S
C479 C478 1.477 . S
C479 H499 0.930 . S
C480 N476 1.362 . S
C480 C477 1.431 . S
C480 C490 1.476 . S
H481 C475 0.929 . S
C482 O473 1.250 . S
C482 O474 1.258 . S
O483 Mn468 2.162 . S
O483 C471 1.281 . S
O484 Mn468 2.297 . S
O484 C471 1.236 . S
N485 Mn469 2.282 . S
N485 C486 1.328 . S
N485 C490 1.318 . S
C486 N485 1.328 . S
C486 C487 1.457 . S
C486 H491 0.929 . S
C487 C486 1.457 . S
C487 C488 1.291 . S
C487 H500 0.931 . S
C488 C487 1.291 . S
C488 C489 1.373 . S
C488 H501 0.929 . S
C489 C488 1.373 . S
C489 C490 1.396 . S
C489 C496 1.403 . S
C490 C480 1.476 . S
C490 N485 1.318 . S
C490 C489 1.396 . S
H491 C486 0.929 . S
O492 Mn468 2.385 . S
O492 C470 1.234 . S
O493 Mn468 2.208 . S
O493 Mn469 2.218 1_455 S
O493 C470 1.283 . S
O494 Mn468 2.094 1_655 S
O494 C472 1.240 . S
O495 Mn469 2.117 . S
O495 C472 1.264 . S
C496 C489 1.403 . S
C496 C497 1.399 . S
C496 H502 0.929 . S
C497 C477 1.449 . S
C497 C496 1.399 . S
C497 H503 0.930 . S
H498 C478 0.931 . S
H499 C479 0.930 . S
H500 C487 0.931 . S
H501 C488 0.929 . S
H502 C496 0.929 . S
H503 C497 0.930 . S
Mn504 O509 2.095 . S
Mn504 O519 2.162 . S
Mn504 O520 2.297 . S
Mn504 O528 2.385 . S
Mn504 O529 2.209 . S
Mn504 O530 2.094 . S
Mn505 O510 2.121 . S
Mn505 N512 2.257 . S
Mn505 N521 2.282 . S
Mn505 O529 2.215 . S
Mn505 O531 2.117 . S
C506 O528 1.234 . S
C506 O529 1.283 . S
C507 O519 1.281 . S
C507 O520 1.236 . S
C508 O530 1.240 . S
C508 O531 1.264 . S
O509 Mn504 2.095 . S
O509 C518 1.250 . S
O510 Mn505 2.121 . S
O510 C518 1.258 . S
C511 N512 1.326 . S
C511 C515 1.460 . S
C511 H517 0.929 . S
N512 Mn505 2.257 . S
N512 C511 1.326 . S
N512 C516 1.362 . S
C513 C514 1.258 . S
C513 C516 1.431 . S
C513 C533 1.449 . S
C514 C513 1.258 . S
C514 C515 1.477 . S
C514 H534 0.931 . S
C515 C511 1.460 . S
C515 C514 1.477 . S
C515 H535 0.930 . S
C516 N512 1.362 . S
C516 C513 1.431 . S
C516 C526 1.476 . S
H517 C511 0.929 . S
C518 O509 1.250 . S
C518 O510 1.258 . S
O519 Mn504 2.162 . S
O519 C507 1.281 . S
O520 Mn504 2.297 . S
O520 C507 1.236 . S
N521 Mn505 2.282 . S
N521 C522 1.328 . S
N521 C526 1.318 . S
C522 N521 1.328 . S
C522 C523 1.457 . S
C522 H527 0.929 . S
C523 C522 1.457 . S
C523 C524 1.291 . S
C523 H536 0.931 . S
C524 C523 1.291 . S
C524 C525 1.373 . S
C524 H537 0.929 . S
C525 C524 1.373 . S
C525 C526 1.396 . S
C525 C532 1.403 . S
C526 C516 1.476 . S
C526 N521 1.318 . S
C526 C525 1.396 . S
H527 C522 0.929 . S
O528 Mn504 2.385 . S
O528 C506 1.234 . S
O529 Mn504 2.209 . S
O529 Mn505 2.215 . S
O529 C506 1.283 . S
O530 Mn504 2.094 . S
O530 C508 1.240 . S
O531 Mn505 2.117 . S
O531 C508 1.264 . S
C532 C525 1.403 . S
C532 C533 1.399 . S
C532 H538 0.929 . S
C533 C513 1.449 . S
C533 C532 1.399 . S
C533 H539 0.930 . S
H534 C514 0.931 . S
H535 C515 0.930 . S
H536 C523 0.931 . S
H537 C524 0.929 . S
H538 C532 0.929 . S
H539 C533 0.930 . S
Mn540 O545 2.095 . S
Mn540 O555 2.162 . S
Mn540 O556 2.297 . S
Mn540 O564 2.385 . S
Mn540 O565 2.209 . S
Mn540 O566 2.094 . S
Mn541 O546 2.121 . S
Mn541 N548 2.257 . S
Mn541 N557 2.282 . S
Mn541 O565 2.215 . S
Mn541 O567 2.117 . S
C542 O564 1.234 . S
C542 O565 1.283 . S
C543 O555 1.281 . S
C543 O556 1.236 . S
C544 O566 1.240 . S
C544 O567 1.264 . S
O545 Mn540 2.095 . S
O545 C554 1.250 . S
O546 Mn541 2.121 . S
O546 C554 1.258 . S
C547 N548 1.326 . S
C547 C551 1.460 . S
C547 H553 0.929 . S
N548 Mn541 2.257 . S
N548 C547 1.326 . S
N548 C552 1.362 . S
C549 C550 1.258 . S
C549 C552 1.431 . S
C549 C569 1.449 . S
C550 C549 1.258 . S
C550 C551 1.477 . S
C550 H570 0.931 . S
C551 C547 1.460 . S
C551 C550 1.477 . S
C551 H571 0.930 . S
C552 N548 1.362 . S
C552 C549 1.431 . S
C552 C562 1.476 . S
H553 C547 0.929 . S
C554 O545 1.250 . S
C554 O546 1.258 . S
O555 Mn540 2.162 . S
O555 C543 1.281 . S
O556 Mn540 2.297 . S
O556 C543 1.236 . S
N557 Mn541 2.282 . S
N557 C558 1.328 . S
N557 C562 1.318 . S
C558 N557 1.328 . S
C558 C559 1.457 . S
C558 H563 0.929 . S
C559 C558 1.457 . S
C559 C560 1.291 . S
C559 H572 0.931 . S
C560 C559 1.291 . S
C560 C561 1.373 . S
C560 H573 0.929 . S
C561 C560 1.373 . S
C561 C562 1.396 . S
C561 C568 1.403 . S
C562 C552 1.476 . S
C562 N557 1.318 . S
C562 C561 1.396 . S
H563 C558 0.929 . S
O564 Mn540 2.385 . S
O564 C542 1.234 . S
O565 Mn540 2.209 . S
O565 Mn541 2.215 . S
O565 C542 1.283 . S
O566 Mn540 2.094 . S
O566 C544 1.240 . S
O567 Mn541 2.117 . S
O567 C544 1.264 . S
C568 C561 1.403 . S
C568 C569 1.399 . S
C568 H574 0.929 . S
C569 C549 1.449 . S
C569 C568 1.399 . S
C569 H575 0.930 . S
H570 C550 0.931 . S
H571 C551 0.930 . S
H572 C559 0.931 . S
H573 C560 0.929 . S
H574 C568 0.929 . S
H575 C569 0.930 . S
Mn576 O581 2.095 . S
Mn576 O591 2.162 . S
Mn576 O592 2.297 . S
Mn576 O600 2.385 1_545 S
Mn576 O601 2.209 1_545 S
Mn576 O602 2.094 . S
Mn577 O582 2.117 . S
Mn577 N584 2.258 1_545 S
Mn577 N593 2.287 1_545 S
Mn577 O601 2.217 1_545 S
Mn577 O603 2.117 . S
C578 O600 1.234 . S
C578 O601 1.283 . S
C579 O591 1.281 . S
C579 O592 1.237 . S
C580 O602 1.240 . S
C580 O603 1.266 . S
O581 Mn576 2.095 . S
O581 C590 1.250 . S
O582 Mn577 2.117 . S
O582 C590 1.258 . S
C583 N584 1.326 1_545 S
C583 C587 1.460 1_545 S
C583 H589 0.929 . S
N584 Mn577 2.258 1_565 S
N584 C583 1.326 1_565 S
N584 C588 1.362 . S
C585 C586 1.258 . S
C585 C588 1.431 . S
C585 C605 1.449 . S
C586 C585 1.258 . S
C586 C587 1.477 . S
C586 H606 0.931 . S
C587 C583 1.460 1_565 S
C587 C586 1.477 . S
C587 H607 0.930 1_565 S
C588 N584 1.362 . S
C588 C585 1.431 . S
C588 C598 1.476 . S
H589 C583 0.929 . S
C590 O581 1.250 . S
C590 O582 1.258 . S
O591 Mn576 2.162 . S
O591 C579 1.281 . S
O592 Mn576 2.297 . S
O592 C579 1.237 . S
N593 Mn577 2.287 1_565 S
N593 C594 1.328 . S
N593 C598 1.318 . S
C594 N593 1.328 . S
C594 C595 1.457 . S
C594 H599 0.929 . S
C595 C594 1.457 . S
C595 C596 1.291 . S
C595 H608 0.931 . S
C596 C595 1.291 . S
C596 C597 1.373 . S
C596 H609 0.929 . S
C597 C596 1.373 . S
C597 C598 1.396 . S
C597 C604 1.403 . S
C598 C588 1.476 . S
C598 N593 1.318 . S
C598 C597 1.396 . S
H599 C594 0.929 . S
O600 Mn576 2.385 1_565 S
O600 C578 1.234 . S
O601 Mn576 2.209 1_565 S
O601 Mn577 2.217 1_565 S
O601 C578 1.283 . S
O602 Mn576 2.094 . S
O602 C580 1.240 . S
O603 Mn577 2.117 . S
O603 C580 1.266 . S
C604 C597 1.403 . S
C604 C605 1.399 . S
C604 H610 0.929 . S
C605 C585 1.449 . S
C605 C604 1.399 . S
C605 H611 0.930 . S
H606 C586 0.931 . S
H607 C587 0.930 1_545 S
H608 C595 0.931 . S
H609 C596 0.929 . S
H610 C604 0.929 . S
H611 C605 0.930 . S
Mn612 O617 2.095 . S
Mn612 O627 2.162 . S
Mn612 O628 2.297 . S
Mn612 O636 2.385 . S
Mn612 O637 2.209 . S
Mn612 O638 2.094 . S
Mn613 O618 2.121 . S
Mn613 N620 2.257 . S
Mn613 N629 2.282 . S
Mn613 O637 2.215 . S
Mn613 O639 2.117 . S
C614 O636 1.234 . S
C614 O637 1.283 . S
C615 O627 1.281 . S
C615 O628 1.236 . S
C616 O638 1.240 . S
C616 O639 1.264 . S
O617 Mn612 2.095 . S
O617 C626 1.250 . S
O618 Mn613 2.121 . S
O618 C626 1.258 . S
C619 N620 1.326 . S
C619 C623 1.460 . S
C619 H625 0.929 . S
N620 Mn613 2.257 . S
N620 C619 1.326 . S
N620 C624 1.362 . S
C621 C622 1.258 . S
C621 C624 1.431 . S
C621 C641 1.449 . S
C622 C621 1.258 . S
C622 C623 1.477 . S
C622 H642 0.931 . S
C623 C619 1.460 . S
C623 C622 1.477 . S
C623 H643 0.930 . S
C624 N620 1.362 . S
C624 C621 1.431 . S
C624 C634 1.476 . S
H625 C619 0.929 . S
C626 O617 1.250 . S
C626 O618 1.258 . S
O627 Mn612 2.162 . S
O627 C615 1.281 . S
O628 Mn612 2.297 . S
O628 C615 1.236 . S
N629 Mn613 2.282 . S
N629 C630 1.328 . S
N629 C634 1.318 . S
C630 N629 1.328 . S
C630 C631 1.457 . S
C630 H635 0.929 . S
C631 C630 1.457 . S
C631 C632 1.291 . S
C631 H644 0.931 . S
C632 C631 1.291 . S
C632 C633 1.373 . S
C632 H645 0.929 . S
C633 C632 1.373 . S
C633 C634 1.396 . S
C633 C640 1.403 . S
C634 C624 1.476 . S
C634 N629 1.318 . S
C634 C633 1.396 . S
H635 C630 0.929 . S
O636 Mn612 2.385 . S
O636 C614 1.234 . S
O637 Mn612 2.209 . S
O637 Mn613 2.215 . S
O637 C614 1.283 . S
O638 Mn612 2.094 . S
O638 C616 1.240 . S
O639 Mn613 2.117 . S
O639 C616 1.264 . S
C640 C633 1.403 . S
C640 C641 1.399 . S
C640 H646 0.929 . S
C641 C621 1.449 . S
C641 C640 1.399 . S
C641 H647 0.930 . S
H642 C622 0.931 . S
H643 C623 0.930 . S
H644 C631 0.931 . S
H645 C632 0.929 . S
H646 C640 0.929 . S
H647 C641 0.930 . S
Mn648 O653 2.095 1_545 S
Mn648 O663 2.165 . S
Mn648 O664 2.297 . S
Mn648 O672 2.385 . S
Mn648 O673 2.209 . S
Mn648 O674 2.094 . S
Mn649 O654 2.121 1_545 S
Mn649 N656 2.257 . S
Mn649 N665 2.282 . S
Mn649 O673 2.215 . S
Mn649 O675 2.117 . S
C650 O672 1.234 . S
C650 O673 1.283 . S
C651 O663 1.285 . S
C651 O664 1.236 . S
C652 O674 1.240 . S
C652 O675 1.264 . S
O653 Mn648 2.095 1_565 S
O653 C662 1.250 . S
O654 Mn649 2.121 1_565 S
O654 C662 1.258 . S
C655 N656 1.326 . S
C655 C659 1.460 . S
C655 H661 0.929 1_545 S
N656 Mn649 2.257 . S
N656 C655 1.326 . S
N656 C660 1.362 . S
C657 C658 1.258 . S
C657 C660 1.431 . S
C657 C677 1.449 . S
C658 C657 1.258 . S
C658 C659 1.477 . S
C658 H678 0.931 . S
C659 C655 1.460 . S
C659 C658 1.477 . S
C659 H679 0.938 . S
C660 N656 1.362 . S
C660 C657 1.431 . S
C660 C670 1.476 . S
H661 C655 0.929 1_565 S
C662 O653 1.250 . S
C662 O654 1.258 . S
O663 Mn648 2.165 . S
O663 C651 1.285 . S
O664 Mn648 2.297 . S
O664 C651 1.236 . S
N665 Mn649 2.282 . S
N665 C666 1.328 . S
N665 C670 1.318 . S
C666 N665 1.328 . S
C666 C667 1.457 . S
C666 H671 0.929 . S
C667 C666 1.457 . S
C667 C668 1.291 . S
C667 H680 0.931 . S
C668 C667 1.291 . S
C668 C669 1.373 . S
C668 H681 0.929 . S
C669 C668 1.373 . S
C669 C670 1.396 . S
C669 C676 1.403 . S
C670 C660 1.476 . S
C670 N665 1.318 . S
C670 C669 1.396 . S
H671 C666 0.929 . S
O672 Mn648 2.385 . S
O672 C650 1.234 . S
O673 Mn648 2.209 . S
O673 Mn649 2.215 . S
O673 C650 1.283 . S
O674 Mn648 2.094 . S
O674 C652 1.240 . S
O675 Mn649 2.117 . S
O675 C652 1.264 . S
C676 C669 1.403 . S
C676 C677 1.399 . S
C676 H682 0.929 . S
C677 C657 1.449 . S
C677 C676 1.399 . S
C677 H683 0.930 . S
H678 C658 0.931 . S
H679 C659 0.938 . S
H680 C667 0.931 . S
H681 C668 0.929 . S
H682 C676 0.929 . S
H683 C677 0.930 . S
Mn684 O689 2.095 . S
Mn684 O699 2.162 . S
Mn684 O700 2.297 . S
Mn684 O708 2.385 . S
Mn684 O709 2.209 . S
Mn684 O710 2.094 1_554 S
Mn685 O690 2.121 . S
Mn685 N692 2.257 . S
Mn685 N701 2.282 . S
Mn685 O709 2.215 1_556 S
Mn685 O711 2.117 . S
C686 O708 1.234 . S
C686 O709 1.283 . S
C687 O699 1.281 . S
C687 O700 1.236 . S
C688 O710 1.240 . S
C688 O711 1.264 . S
O689 Mn684 2.095 . S
O689 C698 1.250 . S
O690 Mn685 2.121 . S
O690 C698 1.258 1_556 S
C691 N692 1.326 . S
C691 C695 1.460 . S
C691 H697 0.929 . S
N692 Mn685 2.257 . S
N692 C691 1.326 . S
N692 C696 1.362 . S
C693 C694 1.258 . S
C693 C696 1.431 . S
C693 C713 1.449 . S
C694 C693 1.258 . S
C694 C695 1.477 . S
C694 H714 0.931 . S
C695 C691 1.460 . S
C695 C694 1.477 . S
C695 H715 0.930 . S
C696 N692 1.362 . S
C696 C693 1.431 . S
C696 C706 1.476 . S
H697 C691 0.929 . S
C698 O689 1.250 . S
C698 O690 1.258 1_554 S
O699 Mn684 2.162 . S
O699 C687 1.281 . S
O700 Mn684 2.297 . S
O700 C687 1.236 . S
N701 Mn685 2.282 . S
N701 C702 1.328 . S
N701 C706 1.318 . S
C702 N701 1.328 . S
C702 C703 1.457 . S
C702 H707 0.929 . S
C703 C702 1.457 . S
C703 C704 1.291 . S
C703 H716 0.931 . S
C704 C703 1.291 . S
C704 C705 1.373 . S
C704 H717 0.929 . S
C705 C704 1.373 . S
C705 C706 1.396 . S
C705 C712 1.403 . S
C706 C696 1.476 . S
C706 N701 1.318 . S
C706 C705 1.396 . S
H707 C702 0.929 . S
O708 Mn684 2.385 . S
O708 C686 1.234 . S
O709 Mn684 2.209 . S
O709 Mn685 2.215 1_554 S
O709 C686 1.283 . S
O710 Mn684 2.094 1_556 S
O710 C688 1.240 . S
O711 Mn685 2.117 . S
O711 C688 1.264 . S
C712 C705 1.403 . S
C712 C713 1.399 . S
C712 H718 0.929 . S
C713 C693 1.449 . S
C713 C712 1.399 . S
C713 H719 0.930 . S
H714 C694 0.931 . S
H715 C695 0.930 . S
H716 C703 0.931 . S
H717 C704 0.929 . S
H718 C712 0.929 . S
H719 C713 0.930 . S
Mn720 O725 2.095 1_554 S
Mn720 O735 2.162 . S
Mn720 O736 2.297 . S
Mn720 O744 2.385 . S
Mn720 O745 2.209 1_554 S
Mn720 O746 2.094 1_554 S
Mn721 O726 2.121 . S
Mn721 N728 2.257 . S
Mn721 N737 2.282 . S
Mn721 O745 2.215 . S
Mn721 O747 2.117 . S
C722 O744 1.236 . S
C722 O745 1.281 1_554 S
C723 O735 1.281 . S
C723 O736 1.236 . S
C724 O746 1.240 . S
C724 O747 1.264 . S
O725 Mn720 2.095 1_556 S
O725 C734 1.250 . S
O726 Mn721 2.121 . S
O726 C734 1.258 . S
C727 N728 1.326 . S
C727 C731 1.460 . S
C727 H733 0.929 . S
N728 Mn721 2.257 . S
N728 C727 1.326 . S
N728 C732 1.362 . S
C729 C730 1.258 . S
C729 C732 1.431 . S
C729 C749 1.449 . S
C730 C729 1.258 . S
C730 C731 1.477 . S
C730 H750 0.931 . S
C731 C727 1.460 . S
C731 C730 1.477 . S
C731 H751 0.930 . S
C732 N728 1.362 . S
C732 C729 1.431 . S
C732 C742 1.476 . S
H733 C727 0.929 . S
C734 O725 1.250 . S
C734 O726 1.258 . S
O735 Mn720 2.162 . S
O735 C723 1.281 . S
O736 Mn720 2.297 . S
O736 C723 1.236 . S
N737 Mn721 2.282 . S
N737 C738 1.328 . S
N737 C742 1.318 . S
C738 N737 1.328 . S
C738 C739 1.457 . S
C738 H743 0.929 . S
C739 C738 1.457 . S
C739 C740 1.291 . S
C739 H752 0.931 . S
C740 C739 1.291 . S
C740 C741 1.373 . S
C740 H753 0.929 . S
C741 C740 1.373 . S
C741 C742 1.396 . S
C741 C748 1.403 . S
C742 C732 1.476 . S
C742 N737 1.318 . S
C742 C741 1.396 . S
H743 C738 0.929 . S
O744 Mn720 2.385 . S
O744 C722 1.236 . S
O745 Mn720 2.209 1_556 S
O745 Mn721 2.215 . S
O745 C722 1.281 1_556 S
O746 Mn720 2.094 1_556 S
O746 C724 1.240 . S
O747 Mn721 2.117 . S
O747 C724 1.264 . S
C748 C741 1.403 . S
C748 C749 1.399 . S
C748 H754 0.929 . S
C749 C729 1.449 . S
C749 C748 1.399 . S
C749 H755 0.930 . S
H750 C730 0.931 . S
H751 C731 0.930 . S
H752 C739 0.931 . S
H753 C740 0.929 . S
H754 C748 0.929 . S
H755 C749 0.930 . S
Mn756 O761 2.095 . S
Mn756 O771 2.162 . S
Mn756 O772 2.297 . S
Mn756 O780 2.385 . S
Mn756 O781 2.209 . S
Mn756 O782 2.094 . S
Mn757 O762 2.121 . S
Mn757 N764 2.257 . S
Mn757 N773 2.282 . S
Mn757 O781 2.215 . S
Mn757 O783 2.117 . S
C758 O780 1.234 . S
C758 O781 1.283 . S
C759 O771 1.281 . S
C759 O772 1.236 . S
C760 O782 1.240 . S
C760 O783 1.264 . S
O761 Mn756 2.095 . S
O761 C770 1.250 . S
O762 Mn757 2.121 . S
O762 C770 1.258 . S
C763 N764 1.326 . S
C763 C767 1.460 . S
C763 H769 0.929 . S
N764 Mn757 2.257 . S
N764 C763 1.326 . S
N764 C768 1.362 . S
C765 C766 1.258 . S
C765 C768 1.431 . S
C765 C785 1.449 . S
C766 C765 1.258 . S
C766 C767 1.477 . S
C766 H786 0.931 . S
C767 C763 1.460 . S
C767 C766 1.477 . S
C767 H787 0.930 . S
C768 N764 1.362 . S
C768 C765 1.431 . S
C768 C778 1.476 . S
H769 C763 0.929 . S
C770 O761 1.250 . S
C770 O762 1.258 . S
O771 Mn756 2.162 . S
O771 C759 1.281 . S
O772 Mn756 2.297 . S
O772 C759 1.236 . S
N773 Mn757 2.282 . S
N773 C774 1.328 . S
N773 C778 1.318 . S
C774 N773 1.328 . S
C774 C775 1.457 . S
C774 H779 0.929 . S
C775 C774 1.457 . S
C775 C776 1.291 . S
C775 H788 0.931 . S
C776 C775 1.291 . S
C776 C777 1.373 . S
C776 H789 0.929 . S
C777 C776 1.373 . S
C777 C778 1.396 . S
C777 C784 1.403 . S
C778 C768 1.476 . S
C778 N773 1.318 . S
C778 C777 1.396 . S
H779 C774 0.929 . S
O780 Mn756 2.385 . S
O780 C758 1.234 . S
O781 Mn756 2.209 . S
O781 Mn757 2.215 . S
O781 C758 1.283 . S
O782 Mn756 2.094 . S
O782 C760 1.240 . S
O783 Mn757 2.117 . S
O783 C760 1.264 . S
C784 C777 1.403 . S
C784 C785 1.399 . S
C784 H790 0.929 . S
C785 C765 1.449 . S
C785 C784 1.399 . S
C785 H791 0.930 . S
H786 C766 0.931 . S
H787 C767 0.930 . S
H788 C775 0.931 . S
H789 C776 0.929 . S
H790 C784 0.929 . S
H791 C785 0.930 . S
Mn792 O797 2.095 . S
Mn792 O807 2.162 . S
Mn792 O808 2.297 . S
Mn792 O816 2.385 . S
Mn792 O817 2.209 . S
Mn792 O818 2.094 . S
Mn793 O798 2.121 . S
Mn793 N800 2.257 . S
Mn793 N809 2.282 . S
Mn793 O817 2.215 . S
Mn793 O819 2.117 . S
C794 O816 1.234 . S
C794 O817 1.283 . S
C795 O807 1.281 . S
C795 O808 1.236 . S
C796 O818 1.240 . S
C796 O819 1.264 . S
O797 Mn792 2.095 . S
O797 C806 1.250 . S
O798 Mn793 2.121 . S
O798 C806 1.258 . S
C799 N800 1.326 . S
C799 C803 1.460 . S
C799 H805 0.929 . S
N800 Mn793 2.257 . S
N800 C799 1.326 . S
N800 C804 1.362 . S
C801 C802 1.258 . S
C801 C804 1.431 . S
C801 C821 1.449 . S
C802 C801 1.258 . S
C802 C803 1.477 . S
C802 H822 0.931 . S
C803 C799 1.460 . S
C803 C802 1.477 . S
C803 H823 0.930 . S
C804 N800 1.362 . S
C804 C801 1.431 . S
C804 C814 1.476 . S
H805 C799 0.929 . S
C806 O797 1.250 . S
C806 O798 1.258 . S
O807 Mn792 2.162 . S
O807 C795 1.281 . S
O808 Mn792 2.297 . S
O808 C795 1.236 . S
N809 Mn793 2.282 . S
N809 C810 1.328 . S
N809 C814 1.318 . S
C810 N809 1.328 . S
C810 C811 1.457 . S
C810 H815 0.929 . S
C811 C810 1.457 . S
C811 C812 1.291 . S
C811 H824 0.931 . S
C812 C811 1.291 . S
C812 C813 1.373 . S
C812 H825 0.929 . S
C813 C812 1.373 . S
C813 C814 1.396 . S
C813 C820 1.403 . S
C814 C804 1.476 . S
C814 N809 1.318 . S
C814 C813 1.396 . S
H815 C810 0.929 . S
O816 Mn792 2.385 . S
O816 C794 1.234 . S
O817 Mn792 2.209 . S
O817 Mn793 2.215 . S
O817 C794 1.283 . S
O818 Mn792 2.094 . S
O818 C796 1.240 . S
O819 Mn793 2.117 . S
O819 C796 1.264 . S
C820 C813 1.403 . S
C820 C821 1.399 . S
C820 H826 0.929 . S
C821 C801 1.449 . S
C821 C820 1.399 . S
C821 H827 0.930 . S
H822 C802 0.931 . S
H823 C803 0.930 . S
H824 C811 0.931 . S
H825 C812 0.929 . S
H826 C820 0.929 . S
H827 C821 0.930 . S
Mn828 O833 2.095 . S
Mn828 O843 2.162 . S
Mn828 O844 2.297 . S
Mn828 O852 2.385 . S
Mn828 O853 2.209 . S
Mn828 O854 2.094 . S
Mn829 O834 2.121 . S
Mn829 N836 2.257 . S
Mn829 N845 2.282 . S
Mn829 O853 2.215 . S
Mn829 O855 2.117 . S
C830 O852 1.234 . S
C830 O853 1.283 . S
C831 O843 1.281 . S
C831 O844 1.236 . S
C832 O854 1.240 . S
C832 O855 1.264 . S
O833 Mn828 2.095 . S
O833 C842 1.250 . S
O834 Mn829 2.121 . S
O834 C842 1.258 . S
C835 N836 1.326 . S
C835 C839 1.460 . S
C835 H841 0.929 . S
N836 Mn829 2.257 . S
N836 C835 1.326 . S
N836 C840 1.362 . S
C837 C838 1.258 . S
C837 C840 1.431 . S
C837 C857 1.449 . S
C838 C837 1.258 . S
C838 C839 1.477 . S
C838 H858 0.931 . S
C839 C835 1.460 . S
C839 C838 1.477 . S
C839 H859 0.930 . S
C840 N836 1.362 . S
C840 C837 1.431 . S
C840 C850 1.476 . S
H841 C835 0.929 . S
C842 O833 1.250 . S
C842 O834 1.258 . S
O843 Mn828 2.162 . S
O843 C831 1.281 . S
O844 Mn828 2.297 . S
O844 C831 1.236 . S
N845 Mn829 2.282 . S
N845 C846 1.328 . S
N845 C850 1.318 . S
C846 N845 1.328 . S
C846 C847 1.457 . S
C846 H851 0.929 . S
C847 C846 1.457 . S
C847 C848 1.291 . S
C847 H860 0.931 . S
C848 C847 1.291 . S
C848 C849 1.373 . S
C848 H861 0.929 . S
C849 C848 1.373 . S
C849 C850 1.396 . S
C849 C856 1.403 . S
C850 C840 1.476 . S
C850 N845 1.318 . S
C850 C849 1.396 . S
H851 C846 0.929 . S
O852 Mn828 2.385 . S
O852 C830 1.234 . S
O853 Mn828 2.209 . S
O853 Mn829 2.215 . S
O853 C830 1.283 . S
O854 Mn828 2.094 . S
O854 C832 1.240 . S
O855 Mn829 2.117 . S
O855 C832 1.264 . S
C856 C849 1.403 . S
C856 C857 1.399 . S
C856 H862 0.929 . S
C857 C837 1.449 . S
C857 C856 1.399 . S
C857 H863 0.930 . S
H858 C838 0.931 . S
H859 C839 0.930 . S
H860 C847 0.931 . S
H861 C848 0.929 . S
H862 C856 0.929 . S
H863 C857 0.930 . S
O864 Mg865 1.990 . S
O864 C878 1.253 . S
Mg865 O864 1.990 . S
Mg865 O868 2.180 1_556 S
Mg865 O869 2.117 1_556 S
Mg865 O883 2.030 1_556 S
O866 Mg867 2.072 1_656 S
O866 C878 1.260 . S
Mg867 O866 2.072 1_454 S
Mg867 O868 2.099 1_455 S
Mg867 O870 2.079 1_545 S
Mg867 O871 2.072 . S
Mg867 O873 2.099 1_545 S
Mg867 O884 2.079 1_445 S
O868 Mg865 2.180 1_554 S
O868 Mg867 2.099 1_655 S
O868 C879 1.279 . S
O869 Mg865 2.117 1_554 S
O869 C879 1.250 . S
O870 Mg867 2.079 1_565 S
O870 C880 1.264 . S
O871 Mg867 2.072 . S
O871 C881 1.261 . S
Mg872 O873 2.180 . S
Mg872 O874 2.030 . S
Mg872 O875 1.968 1_554 S
Mg872 O876 2.117 1_554 S
O873 Mg867 2.099 1_565 S
O873 Mg872 2.180 . S
O873 C882 1.279 1_554 S
O874 Mg872 2.030 . S
O874 C880 1.248 . S
O875 Mg872 1.968 1_556 S
O875 C881 1.255 1_566 S
O876 Mg872 2.117 1_556 S
O876 C882 1.250 . S
C877 O883 1.248 1_565 S
C877 O884 1.264 . S
C878 O864 1.253 . S
C878 O866 1.260 . S
C879 O868 1.279 . S
C879 O869 1.250 . S
C880 O870 1.264 . S
C880 O874 1.248 . S
C881 O871 1.261 . S
C881 O875 1.255 1_544 S
C882 O873 1.279 1_556 S
C882 O876 1.250 . S
O883 Mg865 2.030 1_554 S
O883 C877 1.248 1_545 S
O884 Mg867 2.079 1_665 S
O884 C877 1.264 . S
O885 Mg886 1.990 . S
O885 C899 1.253 . S
Mg886 O885 1.990 . S
Mg886 O889 2.180 . S
Mg886 O890 2.117 . S
Mg886 O904 2.030 . S
O887 Mg888 2.072 . S
O887 C899 1.260 . S
Mg888 O887 2.072 . S
Mg888 O889 2.099 . S
Mg888 O891 2.079 . S
Mg888 O892 2.072 . S
Mg888 O894 2.099 . S
Mg888 O905 2.079 . S
O889 Mg886 2.180 . S
O889 Mg888 2.099 . S
O889 C900 1.279 . S
O890 Mg886 2.117 . S
O890 C900 1.250 . S
O891 Mg888 2.079 . S
O891 C901 1.264 . S
O892 Mg888 2.072 . S
O892 C902 1.260 . S
Mg893 O894 2.180 . S
Mg893 O895 2.030 . S
Mg893 O896 1.990 . S
Mg893 O897 2.117 . S
O894 Mg888 2.099 . S
O894 Mg893 2.180 . S
O894 C903 1.279 . S
O895 Mg893 2.030 . S
O895 C901 1.248 . S
O896 Mg893 1.990 . S
O896 C902 1.253 . S
O897 Mg893 2.117 . S
O897 C903 1.250 . S
C898 O904 1.248 . S
C898 O905 1.264 . S
C899 O885 1.253 . S
C899 O887 1.260 . S
C900 O889 1.279 . S
C900 O890 1.250 . S
C901 O891 1.264 . S
C901 O895 1.248 . S
C902 O892 1.260 . S
C902 O896 1.253 . S
C903 O894 1.279 . S
C903 O897 1.250 . S
O904 Mg886 2.030 . S
O904 C898 1.248 . S
O905 Mg888 2.079 . S
O905 C898 1.264 . S
O906 Mg907 1.990 . S
O906 C920 1.253 . S
Mg907 O906 1.990 . S
Mg907 O910 2.180 . S
Mg907 O911 2.117 . S
Mg907 O925 2.004 1_565 S
O908 Mg909 2.072 . S
O908 C920 1.260 1_545 S
Mg909 O908 2.072 . S
Mg909 O910 2.099 1_545 S
Mg909 O912 2.079 . S
Mg909 O913 2.072 1_545 S
Mg909 O915 2.099 . S
Mg909 O926 2.079 . S
O910 Mg907 2.180 . S
O910 Mg909 2.099 1_565 S
O910 C921 1.279 . S
O911 Mg907 2.117 . S
O911 C921 1.250 . S
O912 Mg909 2.079 . S
O912 C922 1.264 . S
O913 Mg909 2.072 1_565 S
O913 C923 1.260 . S
Mg914 O915 2.180 . S
Mg914 O916 2.030 . S
Mg914 O917 1.990 . S
Mg914 O918 2.117 . S
O915 Mg909 2.099 . S
O915 Mg914 2.180 . S
O915 C924 1.279 . S
O916 Mg914 2.030 . S
O916 C922 1.248 . S
O917 Mg914 1.990 . S
O917 C923 1.253 1_545 S
O918 Mg914 2.117 . S
O918 C924 1.250 . S
C919 O925 1.269 . S
C919 O926 1.264 . S
C920 O906 1.253 . S
C920 O908 1.260 1_565 S
C921 O910 1.279 . S
C921 O911 1.250 . S
C922 O912 1.264 . S
C922 O916 1.248 . S
C923 O913 1.260 . S
C923 O917 1.253 1_565 S
C924 O915 1.279 . S
C924 O918 1.250 . S
O925 Mg907 2.004 1_545 S
O925 C919 1.269 . S
O926 Mg909 2.079 . S
O926 C919 1.264 . S
O927 Mg928 1.990 . S
O927 C941 1.253 . S
Mg928 O927 1.990 . S
Mg928 O931 2.180 . S
Mg928 O932 2.117 . S
Mg928 O946 2.030 . S
O929 Mg930 2.072 . S
O929 C941 1.260 . S
Mg930 O929 2.072 . S
Mg930 O931 2.099 . S
Mg930 O933 2.079 . S
Mg930 O934 2.072 . S
Mg930 O936 2.099 . S
Mg930 O947 2.079 . S
O931 Mg928 2.180 . S
O931 Mg930 2.099 . S
O931 C942 1.279 . S
O932 Mg928 2.117 . S
O932 C942 1.250 . S
O933 Mg930 2.079 . S
O933 C943 1.264 . S
O934 Mg930 2.072 . S
O934 C944 1.260 . S
Mg935 O936 2.180 . S
Mg935 O937 2.030 . S
Mg935 O938 1.990 . S
Mg935 O939 2.117 . S
O936 Mg930 2.099 . S
O936 Mg935 2.180 . S
O936 C945 1.279 . S
O937 Mg935 2.030 . S
O937 C943 1.248 . S
O938 Mg935 1.990 . S
O938 C944 1.253 . S
O939 Mg935 2.117 . S
O939 C945 1.250 . S
C940 O946 1.248 . S
C940 O947 1.264 . S
C941 O927 1.253 . S
C941 O929 1.260 . S
C942 O931 1.279 . S
C942 O932 1.250 . S
C943 O933 1.264 . S
C943 O937 1.248 . S
C944 O934 1.260 . S
C944 O938 1.253 . S
C945 O936 1.279 . S
C945 O939 1.250 . S
O946 Mg928 2.030 . S
O946 C940 1.248 . S
O947 Mg930 2.079 . S
O947 C940 1.264 . S
O948 Mg949 1.991 1_655 S
O948 C962 1.252 1_655 S
Mg949 O948 1.991 1_455 S
Mg949 O952 2.180 . S
Mg949 O953 2.117 1_455 S
Mg949 O967 2.030 . S
O950 Mg951 2.072 1_565 S
O950 C962 1.268 . S
Mg951 O950 2.072 1_545 S
Mg951 O952 2.099 1_545 S
Mg951 O954 2.079 . S
Mg951 O955 2.072 1_455 S
Mg951 O957 2.099 . S
Mg951 O968 2.079 1_545 S
O952 Mg949 2.180 . S
O952 Mg951 2.099 1_565 S
O952 C963 1.279 1_455 S
O953 Mg949 2.117 1_655 S
O953 C963 1.250 . S
O954 Mg951 2.079 . S
O954 C964 1.264 . S
O955 Mg951 2.072 1_655 S
O955 C965 1.260 . S
Mg956 O957 2.185 . S
Mg956 O958 2.031 . S
Mg956 O959 1.981 1_455 S
Mg956 O960 2.119 . S
O957 Mg951 2.099 . S
O957 Mg956 2.185 . S
O957 C966 1.279 . S
O958 Mg956 2.031 . S
O958 C964 1.248 . S
O959 Mg956 1.981 1_655 S
O959 C965 1.253 . S
O960 Mg956 2.119 . S
O960 C966 1.250 . S
C961 O967 1.248 . S
C961 O968 1.264 . S
C962 O948 1.252 1_455 S
C962 O950 1.268 . S
C963 O952 1.279 1_655 S
C963 O953 1.250 . S
C964 O954 1.264 . S
C964 O958 1.248 . S
C965 O955 1.260 . S
C965 O959 1.253 . S
C966 O957 1.279 . S
C966 O960 1.250 . S
O967 Mg949 2.030 . S
O967 C961 1.248 . S
O968 Mg951 2.079 1_565 S
O968 C961 1.264 . S
O969 Mg970 1.990 . S
O969 C983 1.253 . S
Mg970 O969 1.990 . S
Mg970 O973 2.180 . S
Mg970 O974 2.117 . S
Mg970 O988 2.030 . S
O971 Mg972 2.072 . S
O971 C983 1.260 . S
Mg972 O971 2.072 . S
Mg972 O973 2.099 . S
Mg972 O975 2.079 . S
Mg972 O976 2.072 . S
Mg972 O978 2.099 . S
Mg972 O989 2.079 . S
O973 Mg970 2.180 . S
O973 Mg972 2.099 . S
O973 C984 1.279 . S
O974 Mg970 2.117 . S
O974 C984 1.250 . S
O975 Mg972 2.079 . S
O975 C985 1.264 . S
O976 Mg972 2.072 . S
O976 C986 1.260 . S
Mg977 O978 2.180 . S
Mg977 O979 2.030 . S
Mg977 O980 1.990 . S
Mg977 O981 2.117 . S
O978 Mg972 2.099 . S
O978 Mg977 2.180 . S
O978 C987 1.279 . S
O979 Mg977 2.030 . S
O979 C985 1.248 . S
O980 Mg977 1.990 . S
O980 C986 1.253 . S
O981 Mg977 2.117 . S
O981 C987 1.250 . S
C982 O988 1.248 . S
C982 O989 1.264 . S
C983 O969 1.253 . S
C983 O971 1.260 . S
C984 O973 1.279 . S
C984 O974 1.250 . S
C985 O975 1.264 . S
C985 O979 1.248 . S
C986 O976 1.260 . S
C986 O980 1.253 . S
C987 O978 1.279 . S
C987 O981 1.250 . S
O988 Mg970 2.030 . S
O988 C982 1.248 . S
O989 Mg972 2.079 . S
O989 C982 1.264 . S
O990 Mg991 1.990 . S
O990 C1004 1.253 . S
Mg991 O990 1.990 . S
Mg991 O994 2.180 1_565 S
Mg991 O995 2.117 1_565 S
Mg991 O1009 2.030 1_565 S
O992 Mg993 2.072 1_565 S
O992 C1004 1.260 . S
Mg993 O992 2.072 1_545 S
Mg993 O994 2.099 . S
Mg993 O996 2.079 1_554 S
Mg993 O997 2.072 1_554 S
Mg993 O999 2.109 1_554 S
Mg993 O1010 2.079 . S
O994 Mg991 2.180 1_545 S
O994 Mg993 2.099 . S
O994 C1005 1.279 . S
O995 Mg991 2.117 1_545 S
O995 C1005 1.250 . S
O996 Mg993 2.079 1_556 S
O996 C1006 1.264 . S
O997 Mg993 2.072 1_556 S
O997 C1007 1.260 1_545 S
Mg998 O999 2.196 . S
Mg998 O1000 2.030 . S
Mg998 O1001 1.990 1_545 S
Mg998 O1002 2.117 1_545 S
O999 Mg993 2.109 1_556 S
O999 Mg998 2.196 . S
O999 C1008 1.245 1_545 S
O1000 Mg998 2.030 . S
O1000 C1006 1.248 . S
O1001 Mg998 1.990 1_565 S
O1001 C1007 1.253 . S
O1002 Mg998 2.117 1_565 S
O1002 C1008 1.250 . S
C1003 O1009 1.248 . S
C1003 O1010 1.264 . S
C1004 O990 1.253 . S
C1004 O992 1.260 . S
C1005 O994 1.279 . S
C1005 O995 1.250 . S
C1006 O996 1.264 . S
C1006 O1000 1.248 . S
C1007 O997 1.260 1_565 S
C1007 O1001 1.253 . S
C1008 O999 1.245 1_565 S
C1008 O1002 1.250 . S
O1009 Mg991 2.030 1_545 S
O1009 C1003 1.248 . S
O1010 Mg993 2.079 . S
O1010 C1003 1.264 . S
O1011 Mg1012 1.990 . S
O1011 C1025 1.253 . S
Mg1012 O1011 1.990 . S
Mg1012 O1015 2.180 . S
Mg1012 O1016 2.117 . S
Mg1012 O1030 2.030 . S
O1013 Mg1014 2.072 . S
O1013 C1025 1.260 . S
Mg1014 O1013 2.072 . S
Mg1014 O1015 2.099 . S
Mg1014 O1017 2.079 . S
Mg1014 O1018 2.072 . S
Mg1014 O1020 2.099 . S
Mg1014 O1031 2.079 . S
O1015 Mg1012 2.180 . S
O1015 Mg1014 2.099 . S
O1015 C1026 1.279 . S
O1016 Mg1012 2.117 . S
O1016 C1026 1.250 . S
O1017 Mg1014 2.079 . S
O1017 C1027 1.264 . S
O1018 Mg1014 2.072 . S
O1018 C1028 1.260 . S
Mg1019 O1020 2.180 . S
Mg1019 O1021 2.030 . S
Mg1019 O1022 1.990 . S
Mg1019 O1023 2.117 . S
O1020 Mg1014 2.099 . S
O1020 Mg1019 2.180 . S
O1020 C1029 1.279 . S
O1021 Mg1019 2.030 . S
O1021 C1027 1.248 . S
O1022 Mg1019 1.990 . S
O1022 C1028 1.253 . S
O1023 Mg1019 2.117 . S
O1023 C1029 1.250 . S
C1024 O1030 1.248 . S
C1024 O1031 1.264 . S
C1025 O1011 1.253 . S
C1025 O1013 1.260 . S
C1026 O1015 1.279 . S
C1026 O1016 1.250 . S
C1027 O1017 1.264 . S
C1027 O1021 1.248 . S
C1028 O1018 1.260 . S
C1028 O1022 1.253 . S
C1029 O1020 1.279 . S
C1029 O1023 1.250 . S
O1030 Mg1012 2.030 . S
O1030 C1024 1.248 . S
O1031 Mg1014 2.079 . S
O1031 C1024 1.264 . S
O1032 Mg1033 1.990 . S
O1032 C1046 1.253 . S
Mg1033 O1032 1.990 . S
Mg1033 O1036 2.180 . S
Mg1033 O1037 2.117 . S
Mg1033 O1051 1.978 1_556 S
O1034 Mg1035 2.072 . S
O1034 C1046 1.260 1_554 S
Mg1035 O1034 2.072 . S
Mg1035 O1036 2.099 1_554 S
Mg1035 O1038 2.079 . S
Mg1035 O1039 2.072 1_554 S
Mg1035 O1041 2.099 . S
Mg1035 O1052 2.079 . S
O1036 Mg1033 2.180 . S
O1036 Mg1035 2.099 1_556 S
O1036 C1047 1.279 . S
O1037 Mg1033 2.117 . S
O1037 C1047 1.250 . S
O1038 Mg1035 2.079 . S
O1038 C1048 1.264 . S
O1039 Mg1035 2.072 1_556 S
O1039 C1049 1.260 . S
Mg1040 O1041 2.180 . S
Mg1040 O1042 2.030 . S
Mg1040 O1043 1.990 . S
Mg1040 O1044 2.117 . S
O1041 Mg1035 2.099 . S
O1041 Mg1040 2.180 . S
O1041 C1050 1.279 . S
O1042 Mg1040 2.030 . S
O1042 C1048 1.248 . S
O1043 Mg1040 1.990 . S
O1043 C1049 1.253 1_554 S
O1044 Mg1040 2.117 . S
O1044 C1050 1.250 . S
C1045 O1051 1.291 . S
C1045 O1052 1.264 . S
C1046 O1032 1.253 . S
C1046 O1034 1.260 1_556 S
C1047 O1036 1.279 . S
C1047 O1037 1.250 . S
C1048 O1038 1.264 . S
C1048 O1042 1.248 . S
C1049 O1039 1.260 . S
C1049 O1043 1.253 1_556 S
C1050 O1041 1.279 . S
C1050 O1044 1.250 . S
O1051 Mg1033 1.978 1_554 S
O1051 C1045 1.291 . S
O1052 Mg1035 2.079 . S
O1052 C1045 1.264 . S
O1053 Mg1054 1.990 . S
O1053 C1067 1.253 . S
Mg1054 O1053 1.990 . S
Mg1054 O1057 2.180 . S
Mg1054 O1058 2.117 . S
Mg1054 O1072 2.030 . S
O1055 Mg1056 2.072 . S
O1055 C1067 1.260 . S
Mg1056 O1055 2.072 . S
Mg1056 O1057 2.099 . S
Mg1056 O1059 2.079 . S
Mg1056 O1060 2.072 . S
Mg1056 O1062 2.099 . S
Mg1056 O1073 2.079 . S
O1057 Mg1054 2.180 . S
O1057 Mg1056 2.099 . S
O1057 C1068 1.279 . S
O1058 Mg1054 2.117 . S
O1058 C1068 1.250 . S
O1059 Mg1056 2.079 . S
O1059 C1069 1.264 . S
O1060 Mg1056 2.072 . S
O1060 C1070 1.260 . S
Mg1061 O1062 2.180 . S
Mg1061 O1063 2.030 . S
Mg1061 O1064 1.990 . S
Mg1061 O1065 2.117 . S
O1062 Mg1056 2.099 . S
O1062 Mg1061 2.180 . S
O1062 C1071 1.279 . S
O1063 Mg1061 2.030 . S
O1063 C1069 1.248 . S
O1064 Mg1061 1.990 . S
O1064 C1070 1.253 . S
O1065 Mg1061 2.117 . S
O1065 C1071 1.250 . S
C1066 O1072 1.248 . S
C1066 O1073 1.264 . S
C1067 O1053 1.253 . S
C1067 O1055 1.260 . S
C1068 O1057 1.279 . S
C1068 O1058 1.250 . S
C1069 O1059 1.264 . S
C1069 O1063 1.248 . S
C1070 O1060 1.260 . S
C1070 O1064 1.253 . S
C1071 O1062 1.279 . S
C1071 O1065 1.250 . S
O1072 Mg1054 2.030 . S
O1072 C1066 1.248 . S
O1073 Mg1056 2.079 . S
O1073 C1066 1.264 . S
O1074 Mg1075 1.990 . S
O1074 C1088 1.253 . S
Mg1075 O1074 1.990 . S
Mg1075 O1078 2.180 . S
Mg1075 O1079 2.117 . S
Mg1075 O1093 2.027 . S
O1076 Mg1077 2.072 . S
O1076 C1088 1.260 1_455 S
Mg1077 O1076 2.072 . S
Mg1077 O1078 2.099 1_455 S
Mg1077 O1080 2.079 . S
Mg1077 O1081 2.072 1_455 S
Mg1077 O1083 2.099 . S
Mg1077 O1094 2.079 . S
O1078 Mg1075 2.180 . S
O1078 Mg1077 2.099 1_655 S
O1078 C1089 1.279 . S
O1079 Mg1075 2.117 . S
O1079 C1089 1.250 . S
O1080 Mg1077 2.079 . S
O1080 C1090 1.264 . S
O1081 Mg1077 2.072 1_655 S
O1081 C1091 1.260 . S
Mg1082 O1083 2.180 . S
Mg1082 O1084 2.030 . S
Mg1082 O1085 1.990 . S
Mg1082 O1086 2.117 . S
O1083 Mg1077 2.099 . S
O1083 Mg1082 2.180 . S
O1083 C1092 1.279 . S
O1084 Mg1082 2.030 . S
O1084 C1090 1.248 . S
O1085 Mg1082 1.990 . S
O1085 C1091 1.253 1_455 S
O1086 Mg1082 2.117 . S
O1086 C1092 1.250 . S
C1087 O1093 1.250 1_455 S
C1087 O1094 1.264 . S
C1088 O1074 1.253 . S
C1088 O1076 1.260 1_655 S
C1089 O1078 1.279 . S
C1089 O1079 1.250 . S
C1090 O1080 1.264 . S
C1090 O1084 1.248 . S
C1091 O1081 1.260 . S
C1091 O1085 1.253 1_655 S
C1092 O1083 1.279 . S
C1092 O1086 1.250 . S
O1093 Mg1075 2.027 . S
O1093 C1087 1.250 1_655 S
O1094 Mg1077 2.079 . S
O1094 C1087 1.264 . S
O1095 Mg1096 1.990 . S
O1095 C1109 1.253 . S
Mg1096 O1095 1.990 . S
Mg1096 O1099 2.180 . S
Mg1096 O1100 2.117 . S
Mg1096 O1114 2.030 . S
O1097 Mg1098 2.072 . S
O1097 C1109 1.260 . S
Mg1098 O1097 2.072 . S
Mg1098 O1099 2.099 . S
Mg1098 O1101 2.079 . S
Mg1098 O1102 2.072 . S
Mg1098 O1104 2.099 . S
Mg1098 O1115 2.079 . S
O1099 Mg1096 2.180 . S
O1099 Mg1098 2.099 . S
O1099 C1110 1.279 . S
O1100 Mg1096 2.117 . S
O1100 C1110 1.250 . S
O1101 Mg1098 2.079 . S
O1101 C1111 1.264 . S
O1102 Mg1098 2.072 . S
O1102 C1112 1.260 . S
Mg1103 O1104 2.180 . S
Mg1103 O1105 2.030 . S
Mg1103 O1106 1.990 . S
Mg1103 O1107 2.117 . S
O1104 Mg1098 2.099 . S
O1104 Mg1103 2.180 . S
O1104 C1113 1.279 . S
O1105 Mg1103 2.030 . S
O1105 C1111 1.248 . S
O1106 Mg1103 1.990 . S
O1106 C1112 1.253 . S
O1107 Mg1103 2.117 . S
O1107 C1113 1.250 . S
C1108 O1114 1.248 . S
C1108 O1115 1.264 . S
C1109 O1095 1.253 . S
C1109 O1097 1.260 . S
C1110 O1099 1.279 . S
C1110 O1100 1.250 . S
C1111 O1101 1.264 . S
C1111 O1105 1.248 . S
C1112 O1102 1.260 . S
C1112 O1106 1.253 . S
C1113 O1104 1.279 . S
C1113 O1107 1.250 . S
O1114 Mg1096 2.030 . S
O1114 C1108 1.248 . S
O1115 Mg1098 2.079 . S
O1115 C1108 1.264 . S
O1116 Mg1117 1.990 . S
O1116 C1130 1.253 . S
Mg1117 O1116 1.990 . S
Mg1117 O1120 2.180 . S
Mg1117 O1121 2.117 . S
Mg1117 O1135 2.030 . S
O1118 Mg1119 2.072 . S
O1118 C1130 1.260 . S
Mg1119 O1118 2.072 . S
Mg1119 O1120 2.099 . S
Mg1119 O1122 2.079 . S
Mg1119 O1123 2.072 . S
Mg1119 O1125 2.099 . S
Mg1119 O1136 2.079 . S
O1120 Mg1117 2.180 . S
O1120 Mg1119 2.099 . S
O1120 C1131 1.279 . S
O1121 Mg1117 2.117 . S
O1121 C1131 1.250 . S
O1122 Mg1119 2.079 . S
O1122 C1132 1.264 . S
O1123 Mg1119 2.072 . S
O1123 C1133 1.260 . S
Mg1124 O1125 2.180 . S
Mg1124 O1126 2.030 . S
Mg1124 O1127 1.990 . S
Mg1124 O1128 2.117 . S
O1125 Mg1119 2.099 . S
O1125 Mg1124 2.180 . S
O1125 C1134 1.279 . S
O1126 Mg1124 2.030 . S
O1126 C1132 1.248 . S
O1127 Mg1124 1.990 . S
O1127 C1133 1.253 . S
O1128 Mg1124 2.117 . S
O1128 C1134 1.250 . S
C1129 O1135 1.248 . S
C1129 O1136 1.264 . S
C1130 O1116 1.253 . S
C1130 O1118 1.260 . S
C1131 O1120 1.279 . S
C1131 O1121 1.250 . S
C1132 O1122 1.264 . S
C1132 O1126 1.248 . S
C1133 O1123 1.260 . S
C1133 O1127 1.253 . S
C1134 O1125 1.279 . S
C1134 O1128 1.250 . S
O1135 Mg1117 2.030 . S
O1135 C1129 1.248 . S
O1136 Mg1119 2.079 . S
O1136 C1129 1.264 . S
O1137 Mg1138 1.990 . S
O1137 C1151 1.253 . S
Mg1138 O1137 1.990 . S
Mg1138 O1141 2.180 . S
Mg1138 O1142 2.117 . S
Mg1138 O1156 2.030 . S
O1139 Mg1140 2.072 . S
O1139 C1151 1.260 . S
Mg1140 O1139 2.072 . S
Mg1140 O1141 2.099 . S
Mg1140 O1143 2.079 . S
Mg1140 O1144 2.072 . S
Mg1140 O1146 2.099 . S
Mg1140 O1157 2.079 . S
O1141 Mg1138 2.180 . S
O1141 Mg1140 2.099 . S
O1141 C1152 1.279 . S
O1142 Mg1138 2.117 . S
O1142 C1152 1.250 . S
O1143 Mg1140 2.079 . S
O1143 C1153 1.264 . S
O1144 Mg1140 2.072 . S
O1144 C1154 1.260 . S
Mg1145 O1146 2.180 . S
Mg1145 O1147 2.030 . S
Mg1145 O1148 1.990 . S
Mg1145 O1149 2.117 . S
O1146 Mg1140 2.099 . S
O1146 Mg1145 2.180 . S
O1146 C1155 1.279 . S
O1147 Mg1145 2.030 . S
O1147 C1153 1.248 . S
O1148 Mg1145 1.990 . S
O1148 C1154 1.253 . S
O1149 Mg1145 2.117 . S
O1149 C1155 1.250 . S
C1150 O1156 1.248 . S
C1150 O1157 1.264 . S
C1151 O1137 1.253 . S
C1151 O1139 1.260 . S
C1152 O1141 1.279 . S
C1152 O1142 1.250 . S
C1153 O1143 1.264 . S
C1153 O1147 1.248 . S
C1154 O1144 1.260 . S
C1154 O1148 1.253 . S
C1155 O1146 1.279 . S
C1155 O1149 1.250 . S
O1156 Mg1138 2.030 . S
O1156 C1150 1.248 . S
O1157 Mg1140 2.079 . S
O1157 C1150 1.264 . S
O1158 Mg1159 1.990 . S
O1158 C1172 1.253 . S
Mg1159 O1158 1.990 . S
Mg1159 O1162 2.180 . S
Mg1159 O1163 2.117 . S
Mg1159 O1177 2.030 . S
O1160 Mg1161 2.072 . S
O1160 C1172 1.260 . S
Mg1161 O1160 2.072 . S
Mg1161 O1162 2.099 . S
Mg1161 O1164 2.079 . S
Mg1161 O1165 2.072 . S
Mg1161 O1167 2.099 . S
Mg1161 O1178 2.079 . S
O1162 Mg1159 2.180 . S
O1162 Mg1161 2.099 . S
O1162 C1173 1.279 . S
O1163 Mg1159 2.117 . S
O1163 C1173 1.250 . S
O1164 Mg1161 2.079 . S
O1164 C1174 1.264 . S
O1165 Mg1161 2.072 . S
O1165 C1175 1.260 . S
Mg1166 O1167 2.180 . S
Mg1166 O1168 2.030 . S
Mg1166 O1169 1.990 . S
Mg1166 O1170 2.117 . S
O1167 Mg1161 2.099 . S
O1167 Mg1166 2.180 . S
O1167 C1176 1.279 . S
O1168 Mg1166 2.030 . S
O1168 C1174 1.248 . S
O1169 Mg1166 1.990 . S
O1169 C1175 1.253 . S
O1170 Mg1166 2.117 . S
O1170 C1176 1.250 . S
C1171 O1177 1.248 . S
C1171 O1178 1.264 . S
C1172 O1158 1.253 . S
C1172 O1160 1.260 . S
C1173 O1162 1.279 . S
C1173 O1163 1.250 . S
C1174 O1164 1.264 . S
C1174 O1168 1.248 . S
C1175 O1165 1.260 . S
C1175 O1169 1.253 . S
C1176 O1167 1.279 . S
C1176 O1170 1.250 . S
O1177 Mg1159 2.030 . S
O1177 C1171 1.248 . S
O1178 Mg1161 2.079 . S
O1178 C1171 1.264 . S
O1179 Mg1180 1.990 . S
O1179 C1193 1.253 . S
Mg1180 O1179 1.990 . S
Mg1180 O1183 2.180 1_556 S
Mg1180 O1184 2.117 1_556 S
Mg1180 O1198 2.033 . S
O1181 Mg1182 2.072 1_556 S
O1181 C1193 1.260 . S
Mg1182 O1181 2.072 1_554 S
Mg1182 O1183 2.099 . S
Mg1182 O1185 2.079 1_455 S
Mg1182 O1186 2.082 1_455 S
Mg1182 O1188 2.099 1_455 S
Mg1182 O1199 2.079 . S
O1183 Mg1180 2.180 1_554 S
O1183 Mg1182 2.099 . S
O1183 C1194 1.279 . S
O1184 Mg1180 2.117 1_554 S
O1184 C1194 1.250 . S
O1185 Mg1182 2.079 1_655 S
O1185 C1195 1.264 . S
O1186 Mg1182 2.082 1_655 S
O1186 C1196 1.255 1_554 S
Mg1187 O1188 2.181 . S
Mg1187 O1189 2.030 . S
Mg1187 O1190 1.990 1_554 S
Mg1187 O1191 2.117 1_554 S
O1188 Mg1182 2.099 1_655 S
O1188 Mg1187 2.181 . S
O1188 C1197 1.278 1_554 S
O1189 Mg1187 2.030 . S
O1189 C1195 1.248 . S
O1190 Mg1187 1.990 1_556 S
O1190 C1196 1.253 . S
O1191 Mg1187 2.117 1_556 S
O1191 C1197 1.250 . S
C1192 O1198 1.231 1_554 S
C1192 O1199 1.264 . S
C1193 O1179 1.253 . S
C1193 O1181 1.260 . S
C1194 O1183 1.279 . S
C1194 O1184 1.250 . S
C1195 O1185 1.264 . S
C1195 O1189 1.248 . S
C1196 O1186 1.255 1_556 S
C1196 O1190 1.253 . S
C1197 O1188 1.278 1_556 S
C1197 O1191 1.250 . S
O1198 Mg1180 2.033 . S
O1198 C1192 1.231 1_556 S
O1199 Mg1182 2.079 . S
O1199 C1192 1.264 . S
C1200 C1201 1.349 1_655 S
C1200 C1202 1.327 . S
C1200 H1225 0.950 . S
C1201 C1200 1.349 1_455 S
C1201 C1217 1.349 . S
C1202 C1200 1.327 . S
C1202 C1221 1.429 1_655 S
C1202 H1226 0.950 . S
C1203 C1220 1.574 . S
C1203 C1222 1.368 . S
C1203 H1227 0.949 . S
H1204 C1208 0.949 . S
C1205 C1206 1.349 1_455 S
C1205 C1207 1.327 . S
C1205 H1228 0.950 . S
C1206 C1205 1.349 1_655 S
C1206 C1218 1.349 . S
C1207 C1205 1.327 . S
C1207 C1223 1.427 . S
C1207 H1229 0.950 . S
C1208 H1204 0.949 . S
C1208 C1216 1.574 . S
C1208 C1224 1.357 1_655 S
H1209 C1217 0.950 . S
H1210 C1215 0.950 . S
H1211 C1216 0.949 . S
H1212 C1218 0.950 . S
H1213 C1219 0.950 . S
H1214 C1220 0.949 . S
C1215 H1210 0.950 . S
C1215 C1217 1.327 . S
C1215 C1221 1.429 . S
C1216 C1208 1.574 . S
C1216 H1211 0.949 . S
C1216 C1222 1.368 1_655 S
C1217 C1201 1.349 . S
C1217 H1209 0.950 . S
C1217 C1215 1.327 . S
C1218 C1206 1.349 . S
C1218 H1212 0.950 . S
C1218 C1219 1.327 . S
C1219 H1213 0.950 . S
C1219 C1218 1.327 . S
C1219 C1223 1.431 1_655 S
C1220 C1203 1.574 . S
C1220 H1214 0.949 . S
C1220 C1224 1.380 . S
C1221 C1202 1.429 1_455 S
C1221 C1215 1.429 . S
C1221 C1222 1.523 . S
C1222 C1203 1.368 . S
C1222 C1216 1.368 1_455 S
C1222 C1221 1.523 . S
C1223 C1207 1.427 . S
C1223 C1219 1.431 1_455 S
C1223 C1224 1.523 . S
C1224 C1208 1.357 1_455 S
C1224 C1220 1.380 . S
C1224 C1223 1.523 . S
H1225 C1200 0.950 . S
H1226 C1202 0.950 . S
H1227 C1203 0.949 . S
H1228 C1205 0.950 . S
H1229 C1207 0.950 . S
C1230 C1231 1.349 . S
C1230 C1232 1.327 . S
C1230 H1255 0.950 . S
C1231 C1230 1.349 . S
C1231 C1247 1.349 . S
C1232 C1230 1.327 . S
C1232 C1251 1.429 . S
C1232 H1256 0.950 . S
C1233 C1250 1.574 . S
C1233 C1252 1.368 . S
C1233 H1257 0.949 . S
H1234 C1238 0.949 . S
C1235 C1236 1.349 . S
C1235 C1237 1.327 . S
C1235 H1258 0.950 . S
C1236 C1235 1.349 . S
C1236 C1248 1.349 . S
C1237 C1235 1.327 . S
C1237 C1253 1.429 . S
C1237 H1259 0.950 . S
C1238 H1234 0.949 . S
C1238 C1246 1.574 . S
C1238 C1254 1.368 . S
H1239 C1247 0.950 . S
H1240 C1245 0.950 . S
H1241 C1246 0.949 . S
H1242 C1248 0.950 . S
H1243 C1249 0.950 . S
H1244 C1250 0.949 . S
C1245 H1240 0.950 . S
C1245 C1247 1.327 . S
C1245 C1251 1.429 . S
C1246 C1238 1.574 . S
C1246 H1241 0.949 . S
C1246 C1252 1.368 . S
C1247 C1231 1.349 . S
C1247 H1239 0.950 . S
C1247 C1245 1.327 . S
C1248 C1236 1.349 . S
C1248 H1242 0.950 . S
C1248 C1249 1.327 . S
C1249 H1243 0.950 . S
C1249 C1248 1.327 . S
C1249 C1253 1.429 . S
C1250 C1233 1.574 . S
C1250 H1244 0.949 . S
C1250 C1254 1.368 . S
C1251 C1232 1.429 . S
C1251 C1245 1.429 . S
C1251 C1252 1.523 . S
C1252 C1233 1.368 . S
C1252 C1246 1.368 . S
C1252 C1251 1.523 . S
C1253 C1237 1.429 . S
C1253 C1249 1.429 . S
C1253 C1254 1.523 . S
C1254 C1238 1.368 . S
C1254 C1250 1.368 . S
C1254 C1253 1.523 . S
H1255 C1230 0.950 . S
H1256 C1232 0.950 . S
H1257 C1233 0.949 . S
H1258 C1235 0.950 . S
H1259 C1237 0.950 . S
C1260 C1261 1.349 . S
C1260 C1262 1.327 . S
C1260 H1285 0.950 . S
C1261 C1260 1.349 . S
C1261 C1277 1.349 . S
C1262 C1260 1.327 . S
C1262 C1281 1.429 . S
C1262 H1286 0.950 . S
C1263 C1280 1.574 . S
C1263 C1282 1.368 . S
C1263 H1287 0.949 . S
H1264 C1268 0.949 . S
C1265 C1266 1.349 . S
C1265 C1267 1.327 . S
C1265 H1288 0.950 . S
C1266 C1265 1.349 . S
C1266 C1278 1.349 . S
C1267 C1265 1.327 . S
C1267 C1283 1.429 . S
C1267 H1289 0.950 . S
C1268 H1264 0.949 . S
C1268 C1276 1.574 . S
C1268 C1284 1.368 . S
H1269 C1277 0.950 . S
H1270 C1275 0.950 . S
H1271 C1276 0.949 . S
H1272 C1278 0.950 . S
H1273 C1279 0.950 . S
H1274 C1280 0.949 . S
C1275 H1270 0.950 . S
C1275 C1277 1.327 . S
C1275 C1281 1.429 . S
C1276 C1268 1.574 . S
C1276 H1271 0.949 . S
C1276 C1282 1.368 . S
C1277 C1261 1.349 . S
C1277 H1269 0.950 . S
C1277 C1275 1.327 . S
C1278 C1266 1.349 . S
C1278 H1272 0.950 . S
C1278 C1279 1.327 . S
C1279 H1273 0.950 . S
C1279 C1278 1.327 . S
C1279 C1283 1.429 . S
C1280 C1263 1.574 . S
C1280 H1274 0.949 . S
C1280 C1284 1.368 . S
C1281 C1262 1.429 . S
C1281 C1275 1.429 . S
C1281 C1282 1.523 . S
C1282 C1263 1.368 . S
C1282 C1276 1.368 . S
C1282 C1281 1.523 . S
C1283 C1267 1.429 . S
C1283 C1279 1.429 . S
C1283 C1284 1.523 . S
C1284 C1268 1.368 . S
C1284 C1280 1.368 . S
C1284 C1283 1.523 . S
H1285 C1260 0.950 . S
H1286 C1262 0.950 . S
H1287 C1263 0.949 . S
H1288 C1265 0.950 . S
H1289 C1267 0.950 . S
C1290 C1291 1.349 . S
C1290 C1292 1.327 . S
C1290 H1315 0.950 . S
C1291 C1290 1.349 . S
C1291 C1307 1.349 . S
C1292 C1290 1.327 . S
C1292 C1311 1.429 . S
C1292 H1316 0.950 . S
C1293 C1310 1.574 . S
C1293 C1312 1.368 . S
C1293 H1317 0.949 . S
H1294 C1298 0.949 . S
C1295 C1296 1.349 . S
C1295 C1297 1.327 . S
C1295 H1318 0.950 . S
C1296 C1295 1.349 . S
C1296 C1308 1.349 . S
C1297 C1295 1.327 . S
C1297 C1313 1.429 . S
C1297 H1319 0.950 . S
C1298 H1294 0.949 . S
C1298 C1306 1.574 . S
C1298 C1314 1.368 . S
H1299 C1307 0.950 . S
H1300 C1305 0.950 . S
H1301 C1306 0.949 . S
H1302 C1308 0.950 . S
H1303 C1309 0.950 . S
H1304 C1310 0.949 . S
C1305 H1300 0.950 . S
C1305 C1307 1.327 . S
C1305 C1311 1.429 . S
C1306 C1298 1.574 . S
C1306 H1301 0.949 . S
C1306 C1312 1.368 . S
C1307 C1291 1.349 . S
C1307 H1299 0.950 . S
C1307 C1305 1.327 . S
C1308 C1296 1.349 . S
C1308 H1302 0.950 . S
C1308 C1309 1.327 . S
C1309 H1303 0.950 . S
C1309 C1308 1.327 . S
C1309 C1313 1.429 . S
C1310 C1293 1.574 . S
C1310 H1304 0.949 . S
C1310 C1314 1.368 . S
C1311 C1292 1.429 . S
C1311 C1305 1.429 . S
C1311 C1312 1.523 . S
C1312 C1293 1.368 . S
C1312 C1306 1.368 . S
C1312 C1311 1.523 . S
C1313 C1297 1.429 . S
C1313 C1309 1.429 . S
C1313 C1314 1.523 . S
C1314 C1298 1.368 . S
C1314 C1310 1.368 . S
C1314 C1313 1.523 . S
H1315 C1290 0.950 . S
H1316 C1292 0.950 . S
H1317 C1293 0.949 . S
H1318 C1295 0.950 . S
H1319 C1297 0.950 . S
C1320 C1321 1.349 1_655 S
C1320 C1322 1.327 . S
C1320 H1345 0.950 . S
C1321 C1320 1.349 1_455 S
C1321 C1337 1.349 . S
C1322 C1320 1.327 . S
C1322 C1341 1.429 1_655 S
C1322 H1346 0.950 . S
C1323 C1340 1.574 . S
C1323 C1342 1.368 . S
C1323 H1347 0.949 . S
H1324 C1328 0.949 . S
C1325 C1326 1.380 . S
C1325 C1327 1.327 . S
C1325 H1348 0.950 . S
C1326 C1325 1.380 . S
C1326 C1338 1.320 1_455 S
C1327 C1325 1.327 . S
C1327 C1343 1.429 . S
C1327 H1349 0.950 . S
C1328 H1324 0.949 . S
C1328 C1336 1.574 . S
C1328 C1344 1.368 1_655 S
H1329 C1337 0.950 . S
H1330 C1335 0.950 . S
H1331 C1336 0.949 . S
H1332 C1338 0.950 . S
H1333 C1339 0.950 . S
H1334 C1340 0.949 . S
C1335 H1330 0.950 . S
C1335 C1337 1.327 . S
C1335 C1341 1.429 . S
C1336 C1328 1.574 . S
C1336 H1331 0.949 . S
C1336 C1342 1.368 1_655 S
C1337 C1321 1.349 . S
C1337 H1329 0.950 . S
C1337 C1335 1.327 . S
C1338 C1326 1.320 1_655 S
C1338 H1332 0.950 . S
C1338 C1339 1.327 . S
C1339 H1333 0.950 . S
C1339 C1338 1.327 . S
C1339 C1343 1.429 1_655 S
C1340 C1323 1.574 . S
C1340 H1334 0.949 . S
C1340 C1344 1.368 . S
C1341 C1322 1.429 1_455 S
C1341 C1335 1.429 . S
C1341 C1342 1.523 . S
C1342 C1323 1.368 . S
C1342 C1336 1.368 1_455 S
C1342 C1341 1.523 . S
C1343 C1327 1.429 . S
C1343 C1339 1.429 1_455 S
C1343 C1344 1.523 . S
C1344 C1328 1.368 1_455 S
C1344 C1340 1.368 . S
C1344 C1343 1.523 . S
H1345 C1320 0.950 . S
H1346 C1322 0.950 . S
H1347 C1323 0.949 . S
H1348 C1325 0.950 . S
H1349 C1327 0.950 . S
C1350 C1351 1.349 . S
C1350 C1352 1.327 . S
C1350 H1375 0.950 . S
C1351 C1350 1.349 . S
C1351 C1367 1.349 . S
C1352 C1350 1.327 . S
C1352 C1371 1.429 . S
C1352 H1376 0.950 . S
C1353 C1370 1.574 . S
C1353 C1372 1.368 . S
C1353 H1377 0.949 . S
H1354 C1358 0.949 . S
C1355 C1356 1.349 . S
C1355 C1357 1.327 . S
C1355 H1378 0.950 . S
C1356 C1355 1.349 . S
C1356 C1368 1.349 . S
C1357 C1355 1.327 . S
C1357 C1373 1.429 . S
C1357 H1379 0.950 . S
C1358 H1354 0.949 . S
C1358 C1366 1.574 . S
C1358 C1374 1.368 . S
H1359 C1367 0.950 . S
H1360 C1365 0.950 . S
H1361 C1366 0.949 . S
H1362 C1368 0.950 . S
H1363 C1369 0.950 . S
H1364 C1370 0.949 . S
C1365 H1360 0.950 . S
C1365 C1367 1.327 . S
C1365 C1371 1.429 . S
C1366 C1358 1.574 . S
C1366 H1361 0.949 . S
C1366 C1372 1.368 . S
C1367 C1351 1.349 . S
C1367 H1359 0.950 . S
C1367 C1365 1.327 . S
C1368 C1356 1.349 . S
C1368 H1362 0.950 . S
C1368 C1369 1.327 . S
C1369 H1363 0.950 . S
C1369 C1368 1.327 . S
C1369 C1373 1.429 . S
C1370 C1353 1.574 . S
C1370 H1364 0.949 . S
C1370 C1374 1.368 . S
C1371 C1352 1.429 . S
C1371 C1365 1.429 . S
C1371 C1372 1.523 . S
C1372 C1353 1.368 . S
C1372 C1366 1.368 . S
C1372 C1371 1.523 . S
C1373 C1357 1.429 . S
C1373 C1369 1.429 . S
C1373 C1374 1.523 . S
C1374 C1358 1.368 . S
C1374 C1370 1.368 . S
C1374 C1373 1.523 . S
H1375 C1350 0.950 . S
H1376 C1352 0.950 . S
H1377 C1353 0.949 . S
H1378 C1355 0.950 . S
H1379 C1357 0.950 . S
C1380 C1381 1.349 . S
C1380 C1382 1.327 . S
C1380 H1405 0.950 . S
C1381 C1380 1.349 . S
C1381 C1397 1.349 . S
C1382 C1380 1.327 . S
C1382 C1401 1.429 . S
C1382 H1406 0.950 . S
C1383 C1400 1.574 . S
C1383 C1402 1.368 . S
C1383 H1407 0.949 . S
H1384 C1388 0.949 . S
C1385 C1386 1.349 . S
C1385 C1387 1.327 . S
C1385 H1408 0.950 . S
C1386 C1385 1.349 . S
C1386 C1398 1.349 . S
C1387 C1385 1.327 . S
C1387 C1403 1.429 . S
C1387 H1409 0.950 . S
C1388 H1384 0.949 . S
C1388 C1396 1.574 . S
C1388 C1404 1.368 . S
H1389 C1397 0.950 . S
H1390 C1395 0.950 . S
H1391 C1396 0.949 . S
H1392 C1398 0.950 . S
H1393 C1399 0.950 . S
H1394 C1400 0.949 . S
C1395 H1390 0.950 . S
C1395 C1397 1.327 . S
C1395 C1401 1.429 . S
C1396 C1388 1.574 . S
C1396 H1391 0.949 . S
C1396 C1402 1.368 . S
C1397 C1381 1.349 . S
C1397 H1389 0.950 . S
C1397 C1395 1.327 . S
C1398 C1386 1.349 . S
C1398 H1392 0.950 . S
C1398 C1399 1.327 . S
C1399 H1393 0.950 . S
C1399 C1398 1.327 . S
C1399 C1403 1.429 . S
C1400 C1383 1.574 . S
C1400 H1394 0.949 . S
C1400 C1404 1.368 . S
C1401 C1382 1.429 . S
C1401 C1395 1.429 . S
C1401 C1402 1.523 . S
C1402 C1383 1.368 . S
C1402 C1396 1.368 . S
C1402 C1401 1.523 . S
C1403 C1387 1.429 . S
C1403 C1399 1.429 . S
C1403 C1404 1.523 . S
C1404 C1388 1.368 . S
C1404 C1400 1.368 . S
C1404 C1403 1.523 . S
H1405 C1380 0.950 . S
H1406 C1382 0.950 . S
H1407 C1383 0.949 . S
H1408 C1385 0.950 . S
H1409 C1387 0.950 . S
C1410 C1411 1.349 . S
C1410 C1412 1.327 . S
C1410 H1435 0.950 . S
C1411 C1410 1.349 . S
C1411 C1427 1.349 . S
C1412 C1410 1.327 . S
C1412 C1431 1.429 . S
C1412 H1436 0.950 . S
C1413 C1430 1.574 . S
C1413 C1432 1.368 . S
C1413 H1437 0.949 . S
H1414 C1418 0.949 . S
C1415 C1416 1.349 . S
C1415 C1417 1.327 . S
C1415 H1438 0.950 . S
C1416 C1415 1.349 . S
C1416 C1428 1.349 . S
C1417 C1415 1.327 . S
C1417 C1433 1.429 . S
C1417 H1439 0.950 . S
C1418 H1414 0.949 . S
C1418 C1426 1.574 . S
C1418 C1434 1.368 . S
H1419 C1427 0.950 . S
H1420 C1425 0.950 . S
H1421 C1426 0.949 . S
H1422 C1428 0.950 . S
H1423 C1429 0.950 . S
H1424 C1430 0.949 . S
C1425 H1420 0.950 . S
C1425 C1427 1.327 . S
C1425 C1431 1.429 . S
C1426 C1418 1.574 . S
C1426 H1421 0.949 . S
C1426 C1432 1.368 . S
C1427 C1411 1.349 . S
C1427 H1419 0.950 . S
C1427 C1425 1.327 . S
C1428 C1416 1.349 . S
C1428 H1422 0.950 . S
C1428 C1429 1.327 . S
C1429 H1423 0.950 . S
C1429 C1428 1.327 . S
C1429 C1433 1.429 . S
C1430 C1413 1.574 . S
C1430 H1424 0.949 . S
C1430 C1434 1.368 . S
C1431 C1412 1.429 . S
C1431 C1425 1.429 . S
C1431 C1432 1.523 . S
C1432 C1413 1.368 . S
C1432 C1426 1.368 . S
C1432 C1431 1.523 . S
C1433 C1417 1.429 . S
C1433 C1429 1.429 . S
C1433 C1434 1.523 . S
C1434 C1418 1.368 . S
C1434 C1430 1.368 . S
C1434 C1433 1.523 . S
H1435 C1410 0.950 . S
H1436 C1412 0.950 . S
H1437 C1413 0.949 . S
H1438 C1415 0.950 . S
H1439 C1417 0.950 . S
C1440 C1441 1.349 . S
C1440 C1442 1.327 . S
C1440 H1465 0.950 . S
C1441 C1440 1.349 . S
C1441 C1457 1.349 . S
C1442 C1440 1.327 . S
C1442 C1461 1.429 . S
C1442 H1466 0.950 . S
C1443 C1460 1.574 . S
C1443 C1462 1.368 1_565 S
C1443 H1467 0.949 1_565 S
H1444 C1448 0.951 . S
C1445 C1446 1.349 . S
C1445 C1447 1.327 . S
C1445 H1468 0.950 . S
C1446 C1445 1.349 . S
C1446 C1458 1.349 . S
C1447 C1445 1.327 . S
C1447 C1463 1.429 . S
C1447 H1469 0.950 . S
C1448 H1444 0.951 . S
C1448 C1456 1.573 1_565 S
C1448 C1464 1.370 . S
H1449 C1457 0.950 . S
H1450 C1455 0.950 . S
H1451 C1456 0.949 . S
H1452 C1458 0.950 . S
H1453 C1459 0.950 . S
H1454 C1460 0.949 . S
C1455 H1450 0.950 . S
C1455 C1457 1.327 . S
C1455 C1461 1.429 . S
C1456 C1448 1.573 1_545 S
C1456 H1451 0.949 . S
C1456 C1462 1.368 . S
C1457 C1441 1.349 . S
C1457 H1449 0.950 . S
C1457 C1455 1.327 . S
C1458 C1446 1.349 . S
C1458 H1452 0.950 . S
C1458 C1459 1.327 . S
C1459 H1453 0.950 . S
C1459 C1458 1.327 . S
C1459 C1463 1.429 . S
C1460 C1443 1.574 . S
C1460 H1454 0.949 . S
C1460 C1464 1.368 . S
C1461 C1442 1.429 . S
C1461 C1455 1.429 . S
C1461 C1462 1.523 . S
C1462 C1443 1.368 1_545 S
C1462 C1456 1.368 . S
C1462 C1461 1.523 . S
C1463 C1447 1.429 . S
C1463 C1459 1.429 . S
C1463 C1464 1.523 . S
C1464 C1448 1.370 . S
C1464 C1460 1.368 . S
C1464 C1463 1.523 . S
H1465 C1440 0.950 . S
H1466 C1442 0.950 . S
H1467 C1443 0.949 1_545 S
H1468 C1445 0.950 . S
H1469 C1447 0.950 . S
C1470 C1471 1.349 . S
C1470 C1472 1.327 . S
C1470 H1495 0.950 . S
C1471 C1470 1.349 . S
C1471 C1487 1.349 . S
C1472 C1470 1.327 . S
C1472 C1491 1.429 . S
C1472 H1496 0.950 . S
C1473 C1490 1.574 . S
C1473 C1492 1.368 . S
C1473 H1497 0.949 . S
H1474 C1478 0.949 . S
C1475 C1476 1.349 . S
C1475 C1477 1.327 . S
C1475 H1498 0.950 . S
C1476 C1475 1.349 . S
C1476 C1488 1.349 . S
C1477 C1475 1.327 . S
C1477 C1493 1.429 . S
C1477 H1499 0.950 . S
C1478 H1474 0.949 . S
C1478 C1486 1.574 . S
C1478 C1494 1.368 . S
H1479 C1487 0.950 . S
H1480 C1485 0.950 . S
H1481 C1486 0.949 . S
H1482 C1488 0.950 . S
H1483 C1489 0.950 . S
H1484 C1490 0.949 . S
C1485 H1480 0.950 . S
C1485 C1487 1.327 . S
C1485 C1491 1.429 . S
C1486 C1478 1.574 . S
C1486 H1481 0.949 . S
C1486 C1492 1.368 . S
C1487 C1471 1.349 . S
C1487 H1479 0.950 . S
C1487 C1485 1.327 . S
C1488 C1476 1.349 . S
C1488 H1482 0.950 . S
C1488 C1489 1.327 . S
C1489 H1483 0.950 . S
C1489 C1488 1.327 . S
C1489 C1493 1.429 . S
C1490 C1473 1.574 . S
C1490 H1484 0.949 . S
C1490 C1494 1.368 . S
C1491 C1472 1.429 . S
C1491 C1485 1.429 . S
C1491 C1492 1.523 . S
C1492 C1473 1.368 . S
C1492 C1486 1.368 . S
C1492 C1491 1.523 . S
C1493 C1477 1.429 . S
C1493 C1489 1.429 . S
C1493 C1494 1.523 . S
C1494 C1478 1.368 . S
C1494 C1490 1.368 . S
C1494 C1493 1.523 . S
H1495 C1470 0.950 . S
H1496 C1472 0.950 . S
H1497 C1473 0.949 . S
H1498 C1475 0.950 . S
H1499 C1477 0.950 . S
C1500 C1501 1.349 . S
C1500 C1502 1.327 . S
C1500 H1525 0.950 . S
C1501 C1500 1.349 . S
C1501 C1517 1.349 1_545 S
C1502 C1500 1.327 . S
C1502 C1521 1.429 . S
C1502 H1526 0.950 . S
C1503 C1520 1.574 . S
C1503 C1522 1.368 1_565 S
C1503 H1527 0.949 . S
H1504 C1508 0.949 . S
C1505 C1506 1.349 1_565 S
C1505 C1507 1.327 . S
C1505 H1528 0.950 . S
C1506 C1505 1.349 1_545 S
C1506 C1518 1.349 . S
C1507 C1505 1.327 . S
C1507 C1523 1.429 1_565 S
C1507 H1529 0.950 . S
C1508 H1504 0.949 . S
C1508 C1516 1.574 . S
C1508 C1524 1.368 . S
H1509 C1517 0.950 . S
H1510 C1515 0.950 . S
H1511 C1516 0.949 . S
H1512 C1518 0.950 . S
H1513 C1519 0.950 . S
H1514 C1520 0.949 . S
C1515 H1510 0.950 . S
C1515 C1517 1.327 . S
C1515 C1521 1.429 1_565 S
C1516 C1508 1.574 . S
C1516 H1511 0.949 . S
C1516 C1522 1.368 . S
C1517 C1501 1.349 1_565 S
C1517 H1509 0.950 . S
C1517 C1515 1.327 . S
C1518 C1506 1.349 . S
C1518 H1512 0.950 . S
C1518 C1519 1.327 . S
C1519 H1513 0.950 . S
C1519 C1518 1.327 . S
C1519 C1523 1.429 . S
C1520 C1503 1.574 . S
C1520 H1514 0.949 . S
C1520 C1524 1.368 1_565 S
C1521 C1502 1.429 . S
C1521 C1515 1.429 1_545 S
C1521 C1522 1.523 . S
C1522 C1503 1.368 1_545 S
C1522 C1516 1.368 . S
C1522 C1521 1.523 . S
C1523 C1507 1.429 1_545 S
C1523 C1519 1.429 . S
C1523 C1524 1.523 . S
C1524 C1508 1.368 . S
C1524 C1520 1.368 1_545 S
C1524 C1523 1.523 . S
H1525 C1500 0.950 . S
H1526 C1502 0.950 . S
H1527 C1503 0.949 . S
H1528 C1505 0.950 . S
H1529 C1507 0.950 . S
C1530 C1531 1.349 . S
C1530 C1532 1.327 . S
C1530 H1555 0.950 . S
C1531 C1530 1.349 . S
C1531 C1547 1.349 . S
C1532 C1530 1.327 . S
C1532 C1551 1.429 . S
C1532 H1556 0.950 . S
C1533 C1550 1.574 . S
C1533 C1552 1.368 . S
C1533 H1557 0.949 . S
H1534 C1538 0.949 . S
C1535 C1536 1.349 . S
C1535 C1537 1.327 . S
C1535 H1558 0.950 . S
C1536 C1535 1.349 . S
C1536 C1548 1.349 . S
C1537 C1535 1.327 . S
C1537 C1553 1.429 . S
C1537 H1559 0.950 . S
C1538 H1534 0.949 . S
C1538 C1546 1.574 . S
C1538 C1554 1.368 . S
H1539 C1547 0.950 . S
H1540 C1545 0.950 . S
H1541 C1546 0.949 . S
H1542 C1548 0.950 . S
H1543 C1549 0.950 . S
H1544 C1550 0.949 . S
C1545 H1540 0.950 . S
C1545 C1547 1.327 . S
C1545 C1551 1.429 . S
C1546 C1538 1.574 . S
C1546 H1541 0.949 . S
C1546 C1552 1.368 . S
C1547 C1531 1.349 . S
C1547 H1539 0.950 . S
C1547 C1545 1.327 . S
C1548 C1536 1.349 . S
C1548 H1542 0.950 . S
C1548 C1549 1.327 . S
C1549 H1543 0.950 . S
C1549 C1548 1.327 . S
C1549 C1553 1.429 . S
C1550 C1533 1.574 . S
C1550 H1544 0.949 . S
C1550 C1554 1.368 . S
C1551 C1532 1.429 . S
C1551 C1545 1.429 . S
C1551 C1552 1.523 . S
C1552 C1533 1.368 . S
C1552 C1546 1.368 . S
C1552 C1551 1.523 . S
C1553 C1537 1.429 . S
C1553 C1549 1.429 . S
C1553 C1554 1.523 . S
C1554 C1538 1.368 . S
C1554 C1550 1.368 . S
C1554 C1553 1.523 . S
H1555 C1530 0.950 . S
H1556 C1532 0.950 . S
H1557 C1533 0.949 . S
H1558 C1535 0.950 . S
H1559 C1537 0.950 . S
C1560 C1561 1.349 1_565 S
C1560 C1562 1.327 . S
C1560 H1585 0.950 . S
C1561 C1560 1.349 1_545 S
C1561 C1577 1.349 . S
C1562 C1560 1.327 . S
C1562 C1581 1.429 1_565 S
C1562 H1586 0.950 . S
C1563 C1580 1.574 . S
C1563 C1582 1.368 . S
C1563 H1587 0.949 . S
H1564 C1568 0.949 . S
C1565 C1566 1.349 . S
C1565 C1567 1.327 . S
C1565 H1588 0.950 . S
C1566 C1565 1.349 . S
C1566 C1578 1.349 1_545 S
C1567 C1565 1.327 . S
C1567 C1583 1.429 . S
C1567 H1589 0.950 . S
C1568 H1564 0.949 . S
C1568 C1576 1.574 . S
C1568 C1584 1.368 1_565 S
H1569 C1577 0.950 . S
H1570 C1575 0.950 . S
H1571 C1576 0.949 . S
H1572 C1578 0.950 . S
H1573 C1579 0.950 . S
H1574 C1580 0.949 . S
C1575 H1570 0.950 . S
C1575 C1577 1.327 . S
C1575 C1581 1.429 . S
C1576 C1568 1.574 . S
C1576 H1571 0.949 . S
C1576 C1582 1.368 1_565 S
C1577 C1561 1.349 . S
C1577 H1569 0.950 . S
C1577 C1575 1.327 . S
C1578 C1566 1.349 1_565 S
C1578 H1572 0.950 . S
C1578 C1579 1.327 . S
C1579 H1573 0.950 . S
C1579 C1578 1.327 . S
C1579 C1583 1.429 1_565 S
C1580 C1563 1.574 . S
C1580 H1574 0.949 . S
C1580 C1584 1.368 . S
C1581 C1562 1.429 1_545 S
C1581 C1575 1.429 . S
C1581 C1582 1.523 . S
C1582 C1563 1.368 . S
C1582 C1576 1.368 1_545 S
C1582 C1581 1.523 . S
C1583 C1567 1.429 . S
C1583 C1579 1.429 1_545 S
C1583 C1584 1.523 . S
C1584 C1568 1.368 1_545 S
C1584 C1580 1.368 . S
C1584 C1583 1.523 . S
H1585 C1560 0.950 . S
H1586 C1562 0.950 . S
H1587 C1563 0.949 . S
H1588 C1565 0.950 . S
H1589 C1567 0.950 . S
C1590 C1591 1.349 . S
C1590 C1592 1.327 . S
C1590 H1615 0.950 . S
C1591 C1590 1.349 . S
C1591 C1607 1.349 . S
C1592 C1590 1.327 . S
C1592 C1611 1.429 . S
C1592 H1616 0.950 . S
C1593 C1610 1.574 . S
C1593 C1612 1.368 . S
C1593 H1617 0.949 . S
H1594 C1598 0.949 . S
C1595 C1596 1.349 . S
C1595 C1597 1.327 . S
C1595 H1618 0.950 . S
C1596 C1595 1.349 . S
C1596 C1608 1.349 . S
C1597 C1595 1.327 . S
C1597 C1613 1.429 . S
C1597 H1619 0.950 . S
C1598 H1594 0.949 . S
C1598 C1606 1.574 . S
C1598 C1614 1.368 . S
H1599 C1607 0.950 . S
H1600 C1605 0.950 . S
H1601 C1606 0.949 . S
H1602 C1608 0.950 . S
H1603 C1609 0.950 . S
H1604 C1610 0.949 . S
C1605 H1600 0.950 . S
C1605 C1607 1.327 . S
C1605 C1611 1.429 . S
C1606 C1598 1.574 . S
C1606 H1601 0.949 . S
C1606 C1612 1.368 . S
C1607 C1591 1.349 . S
C1607 H1599 0.950 . S
C1607 C1605 1.327 . S
C1608 C1596 1.349 . S
C1608 H1602 0.950 . S
C1608 C1609 1.327 . S
C1609 H1603 0.950 . S
C1609 C1608 1.327 . S
C1609 C1613 1.429 . S
C1610 C1593 1.574 . S
C1610 H1604 0.949 . S
C1610 C1614 1.368 . S
C1611 C1592 1.429 . S
C1611 C1605 1.429 . S
C1611 C1612 1.523 . S
C1612 C1593 1.368 . S
C1612 C1606 1.368 . S
C1612 C1611 1.523 . S
C1613 C1597 1.429 . S
C1613 C1609 1.429 . S
C1613 C1614 1.523 . S
C1614 C1598 1.368 . S
C1614 C1610 1.368 . S
C1614 C1613 1.523 . S
H1615 C1590 0.950 . S
H1616 C1592 0.950 . S
H1617 C1593 0.949 . S
H1618 C1595 0.950 . S
H1619 C1597 0.950 . S
C1620 C1621 1.349 . S
C1620 C1622 1.327 . S
C1620 H1645 0.950 . S
C1621 C1620 1.349 . S
C1621 C1637 1.349 1_545 S
C1622 C1620 1.327 . S
C1622 C1641 1.429 . S
C1622 H1646 0.950 . S
C1623 C1640 1.574 . S
C1623 C1642 1.368 1_565 S
C1623 H1647 0.949 . S
H1624 C1628 0.949 . S
C1625 C1626 1.349 . S
C1625 C1627 1.327 . S
C1625 H1648 0.950 . S
C1626 C1625 1.349 . S
C1626 C1638 1.349 1_565 S
C1627 C1625 1.327 . S
C1627 C1643 1.427 1_565 S
C1627 H1649 0.950 . S
C1628 H1624 0.949 . S
C1628 C1636 1.574 . S
C1628 C1644 1.368 . S
H1629 C1637 0.950 . S
H1630 C1635 0.950 . S
H1631 C1636 0.949 . S
H1632 C1638 0.950 . S
H1633 C1639 0.950 . S
H1634 C1640 0.949 . S
C1635 H1630 0.950 . S
C1635 C1637 1.327 . S
C1635 C1641 1.429 1_565 S
C1636 C1628 1.574 . S
C1636 H1631 0.949 . S
C1636 C1642 1.368 . S
C1637 C1621 1.349 1_565 S
C1637 H1629 0.950 . S
C1637 C1635 1.327 . S
C1638 C1626 1.349 1_545 S
C1638 H1632 0.950 . S
C1638 C1639 1.327 . S
C1639 H1633 0.950 . S
C1639 C1638 1.327 . S
C1639 C1643 1.430 . S
C1640 C1623 1.574 . S
C1640 H1634 0.949 . S
C1640 C1644 1.368 1_565 S
C1641 C1622 1.429 . S
C1641 C1635 1.429 1_545 S
C1641 C1642 1.523 . S
C1642 C1623 1.368 1_545 S
C1642 C1636 1.368 . S
C1642 C1641 1.523 . S
C1643 C1627 1.427 1_545 S
C1643 C1639 1.430 . S
C1643 C1644 1.523 . S
C1644 C1628 1.368 . S
C1644 C1640 1.368 1_545 S
C1644 C1643 1.523 . S
H1645 C1620 0.950 . S
H1646 C1622 0.950 . S
H1647 C1623 0.949 . S
H1648 C1625 0.950 . S
H1649 C1627 0.950 . S
C1650 C1651 1.349 . S
C1650 C1652 1.327 . S
C1650 H1675 0.950 . S
C1651 C1650 1.349 . S
C1651 C1667 1.349 . S
C1652 C1650 1.327 . S
C1652 C1671 1.429 . S
C1652 H1676 0.950 . S
C1653 C1670 1.574 . S
C1653 C1672 1.368 . S
C1653 H1677 0.949 . S
H1654 C1658 0.949 . S
C1655 C1656 1.349 . S
C1655 C1657 1.327 . S
C1655 H1678 0.950 . S
C1656 C1655 1.349 . S
C1656 C1668 1.349 . S
C1657 C1655 1.327 . S
C1657 C1673 1.429 . S
C1657 H1679 0.950 . S
C1658 H1654 0.949 . S
C1658 C1666 1.574 . S
C1658 C1674 1.368 . S
H1659 C1667 0.950 . S
H1660 C1665 0.950 . S
H1661 C1666 0.949 . S
H1662 C1668 0.950 . S
H1663 C1669 0.950 . S
H1664 C1670 0.949 . S
C1665 H1660 0.950 . S
C1665 C1667 1.327 . S
C1665 C1671 1.429 . S
C1666 C1658 1.574 . S
C1666 H1661 0.949 . S
C1666 C1672 1.368 . S
C1667 C1651 1.349 . S
C1667 H1659 0.950 . S
C1667 C1665 1.327 . S
C1668 C1656 1.349 . S
C1668 H1662 0.950 . S
C1668 C1669 1.327 . S
C1669 H1663 0.950 . S
C1669 C1668 1.327 . S
C1669 C1673 1.429 . S
C1670 C1653 1.574 . S
C1670 H1664 0.949 . S
C1670 C1674 1.368 . S
C1671 C1652 1.429 . S
C1671 C1665 1.429 . S
C1671 C1672 1.523 . S
C1672 C1653 1.368 . S
C1672 C1666 1.368 . S
C1672 C1671 1.523 . S
C1673 C1657 1.429 . S
C1673 C1669 1.429 . S
C1673 C1674 1.523 . S
C1674 C1658 1.368 . S
C1674 C1670 1.368 . S
C1674 C1673 1.523 . S
H1675 C1650 0.950 . S
H1676 C1652 0.950 . S
H1677 C1653 0.949 . S
H1678 C1655 0.950 . S
H1679 C1657 0.950 . S
C1680 C1681 1.349 1_556 S
C1680 C1682 1.327 . S
C1680 H1705 0.950 . S
C1681 C1680 1.349 1_554 S
C1681 C1697 1.349 . S
C1682 C1680 1.327 . S
C1682 C1701 1.429 1_556 S
C1682 H1706 0.950 . S
C1683 C1700 1.574 . S
C1683 C1702 1.368 . S
C1683 H1707 0.949 . S
H1684 C1688 0.949 . S
C1685 C1686 1.348 1_554 S
C1685 C1687 1.327 . S
C1685 H1708 0.950 . S
C1686 C1685 1.348 1_556 S
C1686 C1698 1.350 . S
C1687 C1685 1.327 . S
C1687 C1703 1.470 . S
C1687 H1709 0.950 . S
C1688 H1684 0.949 . S
C1688 C1696 1.574 . S
C1688 C1704 1.368 1_556 S
H1689 C1697 0.950 . S
H1690 C1695 0.950 . S
H1691 C1696 0.949 . S
H1692 C1698 0.950 . S
H1693 C1699 0.950 . S
H1694 C1700 0.949 . S
C1695 H1690 0.950 . S
C1695 C1697 1.327 . S
C1695 C1701 1.429 . S
C1696 C1688 1.574 . S
C1696 H1691 0.949 . S
C1696 C1702 1.368 1_556 S
C1697 C1681 1.349 . S
C1697 H1689 0.950 . S
C1697 C1695 1.327 . S
C1698 C1686 1.350 . S
C1698 H1692 0.950 . S
C1698 C1699 1.327 . S
C1699 H1693 0.950 . S
C1699 C1698 1.327 . S
C1699 C1703 1.387 1_556 S
C1700 C1683 1.574 . S
C1700 H1694 0.949 . S
C1700 C1704 1.368 . S
C1701 C1682 1.429 1_554 S
C1701 C1695 1.429 . S
C1701 C1702 1.523 . S
C1702 C1683 1.368 . S
C1702 C1696 1.368 1_554 S
C1702 C1701 1.523 . S
C1703 C1687 1.470 . S
C1703 C1699 1.387 1_554 S
C1703 C1704 1.525 . S
C1704 C1688 1.368 1_554 S
C1704 C1700 1.368 . S
C1704 C1703 1.525 . S
H1705 C1680 0.950 . S
H1706 C1682 0.950 . S
H1707 C1683 0.949 . S
H1708 C1685 0.950 . S
H1709 C1687 0.950 . S
C1710 C1711 1.349 . S
C1710 C1712 1.327 . S
C1710 H1735 0.950 . S
C1711 C1710 1.349 . S
C1711 C1727 1.349 1_554 S
C1712 C1710 1.327 . S
C1712 C1731 1.429 . S
C1712 H1736 0.950 . S
C1713 C1730 1.574 . S
C1713 C1732 1.368 1_556 S
C1713 H1737 0.949 . S
H1714 C1718 0.949 . S
C1715 C1716 1.349 1_556 S
C1715 C1717 1.327 . S
C1715 H1738 0.950 . S
C1716 C1715 1.349 1_554 S
C1716 C1728 1.349 . S
C1717 C1715 1.327 . S
C1717 C1733 1.429 1_556 S
C1717 H1739 0.950 . S
C1718 H1714 0.949 . S
C1718 C1726 1.574 . S
C1718 C1734 1.368 . S
H1719 C1727 0.950 . S
H1720 C1725 0.950 . S
H1721 C1726 0.949 . S
H1722 C1728 0.950 . S
H1723 C1729 0.950 . S
H1724 C1730 0.949 . S
C1725 H1720 0.950 . S
C1725 C1727 1.327 . S
C1725 C1731 1.429 1_556 S
C1726 C1718 1.574 . S
C1726 H1721 0.949 . S
C1726 C1732 1.368 . S
C1727 C1711 1.349 1_556 S
C1727 H1719 0.950 . S
C1727 C1725 1.327 . S
C1728 C1716 1.349 . S
C1728 H1722 0.950 . S
C1728 C1729 1.327 . S
C1729 H1723 0.950 . S
C1729 C1728 1.327 . S
C1729 C1733 1.429 . S
C1730 C1713 1.574 . S
C1730 H1724 0.949 . S
C1730 C1734 1.368 1_556 S
C1731 C1712 1.429 . S
C1731 C1725 1.429 1_554 S
C1731 C1732 1.523 . S
C1732 C1713 1.368 1_554 S
C1732 C1726 1.368 . S
C1732 C1731 1.523 . S
C1733 C1717 1.429 1_554 S
C1733 C1729 1.429 . S
C1733 C1734 1.523 . S
C1734 C1718 1.368 . S
C1734 C1730 1.368 1_554 S
C1734 C1733 1.523 . S
H1735 C1710 0.950 . S
H1736 C1712 0.950 . S
H1737 C1713 0.949 . S
H1738 C1715 0.950 . S
H1739 C1717 0.950 . S
C1740 C1741 1.349 . S
C1740 C1742 1.327 . S
C1740 H1765 0.950 . S
C1741 C1740 1.349 . S
C1741 C1757 1.349 . S
C1742 C1740 1.327 . S
C1742 C1761 1.429 . S
C1742 H1766 0.950 . S
C1743 C1760 1.574 . S
C1743 C1762 1.368 . S
C1743 H1767 0.949 . S
H1744 C1748 0.949 . S
C1745 C1746 1.349 . S
C1745 C1747 1.327 . S
C1745 H1768 0.950 . S
C1746 C1745 1.349 . S
C1746 C1758 1.349 . S
C1747 C1745 1.327 . S
C1747 C1763 1.429 . S
C1747 H1769 0.950 . S
C1748 H1744 0.949 . S
C1748 C1756 1.574 . S
C1748 C1764 1.368 . S
H1749 C1757 0.950 . S
H1750 C1755 0.950 . S
H1751 C1756 0.949 . S
H1752 C1758 0.950 . S
H1753 C1759 0.950 . S
H1754 C1760 0.949 . S
C1755 H1750 0.950 . S
C1755 C1757 1.327 . S
C1755 C1761 1.429 . S
C1756 C1748 1.574 . S
C1756 H1751 0.949 . S
C1756 C1762 1.368 . S
C1757 C1741 1.349 . S
C1757 H1749 0.950 . S
C1757 C1755 1.327 . S
C1758 C1746 1.349 . S
C1758 H1752 0.950 . S
C1758 C1759 1.327 . S
C1759 H1753 0.950 . S
C1759 C1758 1.327 . S
C1759 C1763 1.429 . S
C1760 C1743 1.574 . S
C1760 H1754 0.949 . S
C1760 C1764 1.368 . S
C1761 C1742 1.429 . S
C1761 C1755 1.429 . S
C1761 C1762 1.523 . S
C1762 C1743 1.368 . S
C1762 C1756 1.368 . S
C1762 C1761 1.523 . S
C1763 C1747 1.429 . S
C1763 C1759 1.429 . S
C1763 C1764 1.523 . S
C1764 C1748 1.368 . S
C1764 C1760 1.368 . S
C1764 C1763 1.523 . S
H1765 C1740 0.950 . S
H1766 C1742 0.950 . S
H1767 C1743 0.949 . S
H1768 C1745 0.950 . S
H1769 C1747 0.950 . S
C1770 C1771 1.349 . S
C1770 C1772 1.327 . S
C1770 H1795 0.950 . S
C1771 C1770 1.349 . S
C1771 C1787 1.349 . S
C1772 C1770 1.327 . S
C1772 C1791 1.429 . S
C1772 H1796 0.950 . S
C1773 C1790 1.574 . S
C1773 C1792 1.368 . S
C1773 H1797 0.949 . S
H1774 C1778 0.949 . S
C1775 C1776 1.349 . S
C1775 C1777 1.327 . S
C1775 H1798 0.950 . S
C1776 C1775 1.349 . S
C1776 C1788 1.349 . S
C1777 C1775 1.327 . S
C1777 C1793 1.429 . S
C1777 H1799 0.950 . S
C1778 H1774 0.949 . S
C1778 C1786 1.574 . S
C1778 C1794 1.368 . S
H1779 C1787 0.950 . S
H1780 C1785 0.950 . S
H1781 C1786 0.949 . S
H1782 C1788 0.950 . S
H1783 C1789 0.950 . S
H1784 C1790 0.949 . S
C1785 H1780 0.950 . S
C1785 C1787 1.327 . S
C1785 C1791 1.429 . S
C1786 C1778 1.574 . S
C1786 H1781 0.949 . S
C1786 C1792 1.368 . S
C1787 C1771 1.349 . S
C1787 H1779 0.950 . S
C1787 C1785 1.327 . S
C1788 C1776 1.349 . S
C1788 H1782 0.950 . S
C1788 C1789 1.327 . S
C1789 H1783 0.950 . S
C1789 C1788 1.327 . S
C1789 C1793 1.429 . S
C1790 C1773 1.574 . S
C1790 H1784 0.949 . S
C1790 C1794 1.368 . S
C1791 C1772 1.429 . S
C1791 C1785 1.429 . S
C1791 C1792 1.523 . S
C1792 C1773 1.368 . S
C1792 C1786 1.368 . S
C1792 C1791 1.523 . S
C1793 C1777 1.429 . S
C1793 C1789 1.429 . S
C1793 C1794 1.523 . S
C1794 C1778 1.368 . S
C1794 C1790 1.368 . S
C1794 C1793 1.523 . S
H1795 C1770 0.950 . S
H1796 C1772 0.950 . S
H1797 C1773 0.949 . S
H1798 C1775 0.950 . S
H1799 C1777 0.950 . S
C1800 C1801 1.349 . S
C1800 C1802 1.327 . S
C1800 H1825 0.950 . S
C1801 C1800 1.349 . S
C1801 C1817 1.349 . S
C1802 C1800 1.327 . S
C1802 C1821 1.429 . S
C1802 H1826 0.950 . S
C1803 C1820 1.574 . S
C1803 C1822 1.368 . S
C1803 H1827 0.949 . S
H1804 C1808 0.949 . S
C1805 C1806 1.349 . S
C1805 C1807 1.327 . S
C1805 H1828 0.950 . S
C1806 C1805 1.349 . S
C1806 C1818 1.349 . S
C1807 C1805 1.327 . S
C1807 C1823 1.429 . S
C1807 H1829 0.950 . S
C1808 H1804 0.949 . S
C1808 C1816 1.574 . S
C1808 C1824 1.368 . S
H1809 C1817 0.950 . S
H1810 C1815 0.950 . S
H1811 C1816 0.949 . S
H1812 C1818 0.950 . S
H1813 C1819 0.950 . S
H1814 C1820 0.949 . S
C1815 H1810 0.950 . S
C1815 C1817 1.327 . S
C1815 C1821 1.429 . S
C1816 C1808 1.574 . S
C1816 H1811 0.949 . S
C1816 C1822 1.368 . S
C1817 C1801 1.349 . S
C1817 H1809 0.950 . S
C1817 C1815 1.327 . S
C1818 C1806 1.349 . S
C1818 H1812 0.950 . S
C1818 C1819 1.327 . S
C1819 H1813 0.950 . S
C1819 C1818 1.327 . S
C1819 C1823 1.429 . S
C1820 C1803 1.574 . S
C1820 H1814 0.949 . S
C1820 C1824 1.368 . S
C1821 C1802 1.429 . S
C1821 C1815 1.429 . S
C1821 C1822 1.523 . S
C1822 C1803 1.368 . S
C1822 C1816 1.368 . S
C1822 C1821 1.523 . S
C1823 C1807 1.429 . S
C1823 C1819 1.429 . S
C1823 C1824 1.523 . S
C1824 C1808 1.368 . S
C1824 C1820 1.368 . S
C1824 C1823 1.523 . S
H1825 C1800 0.950 . S
H1826 C1802 0.950 . S
H1827 C1803 0.949 . S
H1828 C1805 0.950 . S
H1829 C1807 0.950 . S
C1830 C1831 1.349 . S
C1830 C1832 1.327 . S
C1830 H1855 0.950 . S
C1831 C1830 1.349 . S
C1831 C1847 1.349 . S
C1832 C1830 1.327 . S
C1832 C1851 1.429 . S
C1832 H1856 0.950 . S
C1833 C1850 1.574 . S
C1833 C1852 1.368 . S
C1833 H1857 0.949 . S
H1834 C1838 0.949 . S
C1835 C1836 1.349 . S
C1835 C1837 1.327 . S
C1835 H1858 0.950 . S
C1836 C1835 1.349 . S
C1836 C1848 1.349 . S
C1837 C1835 1.327 . S
C1837 C1853 1.429 . S
C1837 H1859 0.950 . S
C1838 H1834 0.949 . S
C1838 C1846 1.574 . S
C1838 C1854 1.368 . S
H1839 C1847 0.950 . S
H1840 C1845 0.950 . S
H1841 C1846 0.949 . S
H1842 C1848 0.950 . S
H1843 C1849 0.950 . S
H1844 C1850 0.949 . S
C1845 H1840 0.950 . S
C1845 C1847 1.327 . S
C1845 C1851 1.429 . S
C1846 C1838 1.574 . S
C1846 H1841 0.949 . S
C1846 C1852 1.368 . S
C1847 C1831 1.349 . S
C1847 H1839 0.950 . S
C1847 C1845 1.327 . S
C1848 C1836 1.349 . S
C1848 H1842 0.950 . S
C1848 C1849 1.327 . S
C1849 H1843 0.950 . S
C1849 C1848 1.327 . S
C1849 C1853 1.429 . S
C1850 C1833 1.574 . S
C1850 H1844 0.949 . S
C1850 C1854 1.368 . S
C1851 C1832 1.429 . S
C1851 C1845 1.429 . S
C1851 C1852 1.523 . S
C1852 C1833 1.368 . S
C1852 C1846 1.368 . S
C1852 C1851 1.523 . S
C1853 C1837 1.429 . S
C1853 C1849 1.429 . S
C1853 C1854 1.523 . S
C1854 C1838 1.368 . S
C1854 C1850 1.368 . S
C1854 C1853 1.523 . S
H1855 C1830 0.950 . S
H1856 C1832 0.950 . S
H1857 C1833 0.949 . S
H1858 C1835 0.950 . S
H1859 C1837 0.950 . S
C1860 C1861 1.349 . S
C1860 C1862 1.327 . S
C1860 H1885 0.950 . S
C1861 C1860 1.349 . S
C1861 C1877 1.349 . S
C1862 C1860 1.327 . S
C1862 C1881 1.429 . S
C1862 H1886 0.950 . S
C1863 C1880 1.574 . S
C1863 C1882 1.368 . S
C1863 H1887 0.949 . S
H1864 C1868 0.949 . S
C1865 C1866 1.349 . S
C1865 C1867 1.327 . S
C1865 H1888 0.950 . S
C1866 C1865 1.349 . S
C1866 C1878 1.349 . S
C1867 C1865 1.327 . S
C1867 C1883 1.429 . S
C1867 H1889 0.950 . S
C1868 H1864 0.949 . S
C1868 C1876 1.574 . S
C1868 C1884 1.368 . S
H1869 C1877 0.950 . S
H1870 C1875 0.950 . S
H1871 C1876 0.949 . S
H1872 C1878 0.950 . S
H1873 C1879 0.950 . S
H1874 C1880 0.949 . S
C1875 H1870 0.950 . S
C1875 C1877 1.327 . S
C1875 C1881 1.429 . S
C1876 C1868 1.574 . S
C1876 H1871 0.949 . S
C1876 C1882 1.368 . S
C1877 C1861 1.349 . S
C1877 H1869 0.950 . S
C1877 C1875 1.327 . S
C1878 C1866 1.349 . S
C1878 H1872 0.950 . S
C1878 C1879 1.327 . S
C1879 H1873 0.950 . S
C1879 C1878 1.327 . S
C1879 C1883 1.429 . S
C1880 C1863 1.574 . S
C1880 H1874 0.949 . S
C1880 C1884 1.368 . S
C1881 C1862 1.429 . S
C1881 C1875 1.429 . S
C1881 C1882 1.523 . S
C1882 C1863 1.368 . S
C1882 C1876 1.368 . S
C1882 C1881 1.523 . S
C1883 C1867 1.429 . S
C1883 C1879 1.429 . S
C1883 C1884 1.523 . S
C1884 C1868 1.368 . S
C1884 C1880 1.368 . S
C1884 C1883 1.523 . S
H1885 C1860 0.950 . S
H1886 C1862 0.950 . S
H1887 C1863 0.949 . S
H1888 C1865 0.950 . S
H1889 C1867 0.950 . S
C1890 C1891 1.349 . S
C1890 C1892 1.327 . S
C1890 H1915 0.950 . S
C1891 C1890 1.349 . S
C1891 C1907 1.349 . S
C1892 C1890 1.327 . S
C1892 C1911 1.429 . S
C1892 H1916 0.950 . S
C1893 C1910 1.574 . S
C1893 C1912 1.368 . S
C1893 H1917 0.949 . S
H1894 C1898 0.949 . S
C1895 C1896 1.349 . S
C1895 C1897 1.327 . S
C1895 H1918 0.950 . S
C1896 C1895 1.349 . S
C1896 C1908 1.349 . S
C1897 C1895 1.327 . S
C1897 C1913 1.429 . S
C1897 H1919 0.950 . S
C1898 H1894 0.949 . S
C1898 C1906 1.574 . S
C1898 C1914 1.368 . S
H1899 C1907 0.950 . S
H1900 C1905 0.950 . S
H1901 C1906 0.949 . S
H1902 C1908 0.950 . S
H1903 C1909 0.950 . S
H1904 C1910 0.949 . S
C1905 H1900 0.950 . S
C1905 C1907 1.327 . S
C1905 C1911 1.429 . S
C1906 C1898 1.574 . S
C1906 H1901 0.949 . S
C1906 C1912 1.368 . S
C1907 C1891 1.349 . S
C1907 H1899 0.950 . S
C1907 C1905 1.327 . S
C1908 C1896 1.349 . S
C1908 H1902 0.950 . S
C1908 C1909 1.327 . S
C1909 H1903 0.950 . S
C1909 C1908 1.327 . S
C1909 C1913 1.429 . S
C1910 C1893 1.574 . S
C1910 H1904 0.949 . S
C1910 C1914 1.368 . S
C1911 C1892 1.429 . S
C1911 C1905 1.429 . S
C1911 C1912 1.523 . S
C1912 C1893 1.368 . S
C1912 C1906 1.368 . S
C1912 C1911 1.523 . S
C1913 C1897 1.429 . S
C1913 C1909 1.429 . S
C1913 C1914 1.523 . S
C1914 C1898 1.368 . S
C1914 C1910 1.368 . S
C1914 C1913 1.523 . S
H1915 C1890 0.950 . S
H1916 C1892 0.950 . S
H1917 C1893 0.949 . S
H1918 C1895 0.950 . S
H1919 C1897 0.950 . S
C1920 C1921 1.349 . S
C1920 C1922 1.327 . S
C1920 H1945 0.950 . S
C1921 C1920 1.349 . S
C1921 C1937 1.349 1_455 S
C1922 C1920 1.327 . S
C1922 C1941 1.429 . S
C1922 H1946 0.950 . S
C1923 C1940 1.573 1_655 S
C1923 C1942 1.360 1_655 S
C1923 H1947 0.957 . S
H1924 C1928 0.949 . S
C1925 C1926 1.349 . S
C1925 C1927 1.327 . S
C1925 H1948 0.950 1_455 S
C1926 C1925 1.349 . S
C1926 C1938 1.349 . S
C1927 C1925 1.327 . S
C1927 C1943 1.429 . S
C1927 H1949 0.950 1_455 S
C1928 H1924 0.949 . S
C1928 C1936 1.574 . S
C1928 C1944 1.368 . S
H1929 C1937 0.950 . S
H1930 C1935 0.950 . S
H1931 C1936 0.949 . S
H1932 C1938 0.950 . S
H1933 C1939 0.950 . S
H1934 C1940 0.937 1_655 S
C1935 H1930 0.950 . S
C1935 C1937 1.327 . S
C1935 C1941 1.429 1_655 S
C1936 C1928 1.574 . S
C1936 H1931 0.949 . S
C1936 C1942 1.368 . S
C1937 C1921 1.349 1_655 S
C1937 H1929 0.950 . S
C1937 C1935 1.327 . S
C1938 C1926 1.349 . S
C1938 H1932 0.950 . S
C1938 C1939 1.327 . S
C1939 H1933 0.950 . S
C1939 C1938 1.327 . S
C1939 C1943 1.429 . S
C1940 C1923 1.573 1_455 S
C1940 H1934 0.937 1_455 S
C1940 C1944 1.382 . S
C1941 C1922 1.429 . S
C1941 C1935 1.429 1_455 S
C1941 C1942 1.523 . S
C1942 C1923 1.360 1_455 S
C1942 C1936 1.368 . S
C1942 C1941 1.523 . S
C1943 C1927 1.429 . S
C1943 C1939 1.429 . S
C1943 C1944 1.523 . S
C1944 C1928 1.368 . S
C1944 C1940 1.382 . S
C1944 C1943 1.523 . S
H1945 C1920 0.950 . S
H1946 C1922 0.950 . S
H1947 C1923 0.957 . S
H1948 C1925 0.950 1_655 S
H1949 C1927 0.950 1_655 S
C1950 C1951 1.349 . S
C1950 C1952 1.327 . S
C1950 H1975 0.950 . S
C1951 C1950 1.349 . S
C1951 C1967 1.349 . S
C1952 C1950 1.327 . S
C1952 C1971 1.429 . S
C1952 H1976 0.950 . S
C1953 C1970 1.574 . S
C1953 C1972 1.368 . S
C1953 H1977 0.949 . S
H1954 C1958 0.949 . S
C1955 C1956 1.349 . S
C1955 C1957 1.327 . S
C1955 H1978 0.950 . S
C1956 C1955 1.349 . S
C1956 C1968 1.349 . S
C1957 C1955 1.327 . S
C1957 C1973 1.429 . S
C1957 H1979 0.950 . S
C1958 H1954 0.949 . S
C1958 C1966 1.574 . S
C1958 C1974 1.368 . S
H1959 C1967 0.950 . S
H1960 C1965 0.950 . S
H1961 C1966 0.949 . S
H1962 C1968 0.950 . S
H1963 C1969 0.950 . S
H1964 C1970 0.949 . S
C1965 H1960 0.950 . S
C1965 C1967 1.327 . S
C1965 C1971 1.429 . S
C1966 C1958 1.574 . S
C1966 H1961 0.949 . S
C1966 C1972 1.368 . S
C1967 C1951 1.349 . S
C1967 H1959 0.950 . S
C1967 C1965 1.327 . S
C1968 C1956 1.349 . S
C1968 H1962 0.950 . S
C1968 C1969 1.327 . S
C1969 H1963 0.950 . S
C1969 C1968 1.327 . S
C1969 C1973 1.429 . S
C1970 C1953 1.574 . S
C1970 H1964 0.949 . S
C1970 C1974 1.368 . S
C1971 C1952 1.429 . S
C1971 C1965 1.429 . S
C1971 C1972 1.523 . S
C1972 C1953 1.368 . S
C1972 C1966 1.368 . S
C1972 C1971 1.523 . S
C1973 C1957 1.429 . S
C1973 C1969 1.429 . S
C1973 C1974 1.523 . S
C1974 C1958 1.368 . S
C1974 C1970 1.368 . S
C1974 C1973 1.523 . S
H1975 C1950 0.950 . S
H1976 C1952 0.950 . S
H1977 C1953 0.949 . S
H1978 C1955 0.950 . S
H1979 C1957 0.950 . S
C1980 C1981 1.349 . S
C1980 C1982 1.327 . S
C1980 H2005 0.950 . S
C1981 C1980 1.349 . S
C1981 C1997 1.349 . S
C1982 C1980 1.327 . S
C1982 C2001 1.429 . S
C1982 H2006 0.950 . S
C1983 C2000 1.574 . S
C1983 C2002 1.368 . S
C1983 H2007 0.949 . S
H1984 C1988 0.949 . S
C1985 C1986 1.349 . S
C1985 C1987 1.327 . S
C1985 H2008 0.950 . S
C1986 C1985 1.349 . S
C1986 C1998 1.349 . S
C1987 C1985 1.327 . S
C1987 C2003 1.429 . S
C1987 H2009 0.950 . S
C1988 H1984 0.949 . S
C1988 C1996 1.574 . S
C1988 C2004 1.368 . S
H1989 C1997 0.950 . S
H1990 C1995 0.950 . S
H1991 C1996 0.949 . S
H1992 C1998 0.950 . S
H1993 C1999 0.950 . S
H1994 C2000 0.949 . S
C1995 H1990 0.950 . S
C1995 C1997 1.327 . S
C1995 C2001 1.429 . S
C1996 C1988 1.574 . S
C1996 H1991 0.949 . S
C1996 C2002 1.368 . S
C1997 C1981 1.349 . S
C1997 H1989 0.950 . S
C1997 C1995 1.327 . S
C1998 C1986 1.349 . S
C1998 H1992 0.950 . S
C1998 C1999 1.327 . S
C1999 H1993 0.950 . S
C1999 C1998 1.327 . S
C1999 C2003 1.429 . S
C2000 C1983 1.574 . S
C2000 H1994 0.949 . S
C2000 C2004 1.368 . S
C2001 C1982 1.429 . S
C2001 C1995 1.429 . S
C2001 C2002 1.523 . S
C2002 C1983 1.368 . S
C2002 C1996 1.368 . S
C2002 C2001 1.523 . S
C2003 C1987 1.429 . S
C2003 C1999 1.429 . S
C2003 C2004 1.523 . S
C2004 C1988 1.368 . S
C2004 C2000 1.368 . S
C2004 C2003 1.523 . S
H2005 C1980 0.950 . S
H2006 C1982 0.950 . S
H2007 C1983 0.949 . S
H2008 C1985 0.950 . S
H2009 C1987 0.950 . S
C2010 C2011 1.349 . S
C2010 C2012 1.327 . S
C2010 H2035 0.950 . S
C2011 C2010 1.349 . S
C2011 C2027 1.349 . S
C2012 C2010 1.327 . S
C2012 C2031 1.429 . S
C2012 H2036 0.950 . S
C2013 C2030 1.574 . S
C2013 C2032 1.368 . S
C2013 H2037 0.949 . S
H2014 C2018 0.949 . S
C2015 C2016 1.349 . S
C2015 C2017 1.327 . S
C2015 H2038 0.950 . S
C2016 C2015 1.349 . S
C2016 C2028 1.349 . S
C2017 C2015 1.327 . S
C2017 C2033 1.429 . S
C2017 H2039 0.950 . S
C2018 H2014 0.949 . S
C2018 C2026 1.574 . S
C2018 C2034 1.368 . S
H2019 C2027 0.950 . S
H2020 C2025 0.950 . S
H2021 C2026 0.949 . S
H2022 C2028 0.950 . S
H2023 C2029 0.950 . S
H2024 C2030 0.949 . S
C2025 H2020 0.950 . S
C2025 C2027 1.327 . S
C2025 C2031 1.429 . S
C2026 C2018 1.574 . S
C2026 H2021 0.949 . S
C2026 C2032 1.368 . S
C2027 C2011 1.349 . S
C2027 H2019 0.950 . S
C2027 C2025 1.327 . S
C2028 C2016 1.349 . S
C2028 H2022 0.950 . S
C2028 C2029 1.327 . S
C2029 H2023 0.950 . S
C2029 C2028 1.327 . S
C2029 C2033 1.429 . S
C2030 C2013 1.574 . S
C2030 H2024 0.949 . S
C2030 C2034 1.368 . S
C2031 C2012 1.429 . S
C2031 C2025 1.429 . S
C2031 C2032 1.523 . S
C2032 C2013 1.368 . S
C2032 C2026 1.368 . S
C2032 C2031 1.523 . S
C2033 C2017 1.429 . S
C2033 C2029 1.429 . S
C2033 C2034 1.523 . S
C2034 C2018 1.368 . S
C2034 C2030 1.368 . S
C2034 C2033 1.523 . S
H2035 C2010 0.950 . S
H2036 C2012 0.950 . S
H2037 C2013 0.949 . S
H2038 C2015 0.950 . S
H2039 C2017 0.950 . S
C2040 C2041 1.349 . S
C2040 C2042 1.327 . S
C2040 H2065 0.950 . S
C2041 C2040 1.349 . S
C2041 C2057 1.349 1_455 S
C2042 C2040 1.327 . S
C2042 C2061 1.429 . S
C2042 H2066 0.950 . S
C2043 C2060 1.574 . S
C2043 C2062 1.368 1_655 S
C2043 H2067 0.949 . S
H2044 C2048 0.949 . S
C2045 C2046 1.349 . S
C2045 C2047 1.329 . S
C2045 H2068 0.950 1_455 S
C2046 C2045 1.349 . S
C2046 C2058 1.349 . S
C2047 C2045 1.329 . S
C2047 C2063 1.438 . S
C2047 H2069 0.939 1_455 S
C2048 H2044 0.949 . S
C2048 C2056 1.574 . S
C2048 C2064 1.368 . S
H2049 C2057 0.950 . S
H2050 C2055 0.950 . S
H2051 C2056 0.949 . S
H2052 C2058 0.950 . S
H2053 C2059 0.950 . S
H2054 C2060 0.949 . S
C2055 H2050 0.950 . S
C2055 C2057 1.327 . S
C2055 C2061 1.429 1_655 S
C2056 C2048 1.574 . S
C2056 H2051 0.949 . S
C2056 C2062 1.368 . S
C2057 C2041 1.349 1_655 S
C2057 H2049 0.950 . S
C2057 C2055 1.327 . S
C2058 C2046 1.349 . S
C2058 H2052 0.950 . S
C2058 C2059 1.327 . S
C2059 H2053 0.950 . S
C2059 C2058 1.327 . S
C2059 C2063 1.429 . S
C2060 C2043 1.574 . S
C2060 H2054 0.949 . S
C2060 C2064 1.368 1_655 S
C2061 C2042 1.429 . S
C2061 C2055 1.429 1_455 S
C2061 C2062 1.523 . S
C2062 C2043 1.368 1_455 S
C2062 C2056 1.368 . S
C2062 C2061 1.523 . S
C2063 C2047 1.438 . S
C2063 C2059 1.429 . S
C2063 C2064 1.523 . S
C2064 C2048 1.368 . S
C2064 C2060 1.368 1_455 S
C2064 C2063 1.523 . S
H2065 C2040 0.950 . S
H2066 C2042 0.950 . S
H2067 C2043 0.949 . S
H2068 C2045 0.950 1_655 S
H2069 C2047 0.939 1_655 S
C2070 C2071 1.349 . S
C2070 C2072 1.327 . S
C2070 H2095 0.950 . S
C2071 C2070 1.349 . S
C2071 C2087 1.349 . S
C2072 C2070 1.327 . S
C2072 C2091 1.429 . S
C2072 H2096 0.950 . S
C2073 C2090 1.574 . S
C2073 C2092 1.368 . S
C2073 H2097 0.949 . S
H2074 C2078 0.949 . S
C2075 C2076 1.349 . S
C2075 C2077 1.327 . S
C2075 H2098 0.950 . S
C2076 C2075 1.349 . S
C2076 C2088 1.349 . S
C2077 C2075 1.327 . S
C2077 C2093 1.429 . S
C2077 H2099 0.950 . S
C2078 H2074 0.949 . S
C2078 C2086 1.574 . S
C2078 C2094 1.368 . S
H2079 C2087 0.950 . S
H2080 C2085 0.950 . S
H2081 C2086 0.949 . S
H2082 C2088 0.950 . S
H2083 C2089 0.950 . S
H2084 C2090 0.949 . S
C2085 H2080 0.950 . S
C2085 C2087 1.327 . S
C2085 C2091 1.429 . S
C2086 C2078 1.574 . S
C2086 H2081 0.949 . S
C2086 C2092 1.368 . S
C2087 C2071 1.349 . S
C2087 H2079 0.950 . S
C2087 C2085 1.327 . S
C2088 C2076 1.349 . S
C2088 H2082 0.950 . S
C2088 C2089 1.327 . S
C2089 H2083 0.950 . S
C2089 C2088 1.327 . S
C2089 C2093 1.429 . S
C2090 C2073 1.574 . S
C2090 H2084 0.949 . S
C2090 C2094 1.368 . S
C2091 C2072 1.429 . S
C2091 C2085 1.429 . S
C2091 C2092 1.523 . S
C2092 C2073 1.368 . S
C2092 C2086 1.368 . S
C2092 C2091 1.523 . S
C2093 C2077 1.429 . S
C2093 C2089 1.429 . S
C2093 C2094 1.523 . S
C2094 C2078 1.368 . S
C2094 C2090 1.368 . S
C2094 C2093 1.523 . S
H2095 C2070 0.950 . S
H2096 C2072 0.950 . S
H2097 C2073 0.949 . S
H2098 C2075 0.950 . S
H2099 C2077 0.950 . S
C2100 C2101 1.349 . S
C2100 C2102 1.327 . S
C2100 H2125 0.950 . S
C2101 C2100 1.349 . S
C2101 C2117 1.349 . S
C2102 C2100 1.327 . S
C2102 C2121 1.429 . S
C2102 H2126 0.950 . S
C2103 C2120 1.574 . S
C2103 C2122 1.368 . S
C2103 H2127 0.949 . S
H2104 C2108 0.949 . S
C2105 C2106 1.349 . S
C2105 C2107 1.327 . S
C2105 H2128 0.950 . S
C2106 C2105 1.349 . S
C2106 C2118 1.349 . S
C2107 C2105 1.327 . S
C2107 C2123 1.429 . S
C2107 H2129 0.950 . S
C2108 H2104 0.949 . S
C2108 C2116 1.574 . S
C2108 C2124 1.368 . S
H2109 C2117 0.950 . S
H2110 C2115 0.950 . S
H2111 C2116 0.949 . S
H2112 C2118 0.950 . S
H2113 C2119 0.950 . S
H2114 C2120 0.949 . S
C2115 H2110 0.950 . S
C2115 C2117 1.327 . S
C2115 C2121 1.429 . S
C2116 C2108 1.574 . S
C2116 H2111 0.949 . S
C2116 C2122 1.368 . S
C2117 C2101 1.349 . S
C2117 H2109 0.950 . S
C2117 C2115 1.327 . S
C2118 C2106 1.349 . S
C2118 H2112 0.950 . S
C2118 C2119 1.327 . S
C2119 H2113 0.950 . S
C2119 C2118 1.327 . S
C2119 C2123 1.429 . S
C2120 C2103 1.574 . S
C2120 H2114 0.949 . S
C2120 C2124 1.368 . S
C2121 C2102 1.429 . S
C2121 C2115 1.429 . S
C2121 C2122 1.523 . S
C2122 C2103 1.368 . S
C2122 C2116 1.368 . S
C2122 C2121 1.523 . S
C2123 C2107 1.429 . S
C2123 C2119 1.429 . S
C2123 C2124 1.523 . S
C2124 C2108 1.368 . S
C2124 C2120 1.368 . S
C2124 C2123 1.523 . S
H2125 C2100 0.950 . S
H2126 C2102 0.950 . S
H2127 C2103 0.949 . S
H2128 C2105 0.950 . S
H2129 C2107 0.950 . S
C2130 C2131 1.349 . S
C2130 C2132 1.327 . S
C2130 H2155 0.950 . S
C2131 C2130 1.349 . S
C2131 C2147 1.349 . S
C2132 C2130 1.327 . S
C2132 C2151 1.429 . S
C2132 H2156 0.950 . S
C2133 C2150 1.574 . S
C2133 C2152 1.368 . S
C2133 H2157 0.949 . S
H2134 C2138 0.949 . S
C2135 C2136 1.349 . S
C2135 C2137 1.327 . S
C2135 H2158 0.950 . S
C2136 C2135 1.349 . S
C2136 C2148 1.349 . S
C2137 C2135 1.327 . S
C2137 C2153 1.429 . S
C2137 H2159 0.950 . S
C2138 H2134 0.949 . S
C2138 C2146 1.574 . S
C2138 C2154 1.368 . S
H2139 C2147 0.950 . S
H2140 C2145 0.950 . S
H2141 C2146 0.949 . S
H2142 C2148 0.950 . S
H2143 C2149 0.950 . S
H2144 C2150 0.949 . S
C2145 H2140 0.950 . S
C2145 C2147 1.327 . S
C2145 C2151 1.429 . S
C2146 C2138 1.574 . S
C2146 H2141 0.949 . S
C2146 C2152 1.368 . S
C2147 C2131 1.349 . S
C2147 H2139 0.950 . S
C2147 C2145 1.327 . S
C2148 C2136 1.349 . S
C2148 H2142 0.950 . S
C2148 C2149 1.327 . S
C2149 H2143 0.950 . S
C2149 C2148 1.327 . S
C2149 C2153 1.429 . S
C2150 C2133 1.574 . S
C2150 H2144 0.949 . S
C2150 C2154 1.368 . S
C2151 C2132 1.429 . S
C2151 C2145 1.429 . S
C2151 C2152 1.523 . S
C2152 C2133 1.368 . S
C2152 C2146 1.368 . S
C2152 C2151 1.523 . S
C2153 C2137 1.429 . S
C2153 C2149 1.429 . S
C2153 C2154 1.523 . S
C2154 C2138 1.368 . S
C2154 C2150 1.368 . S
C2154 C2153 1.523 . S
H2155 C2130 0.950 . S
H2156 C2132 0.950 . S
H2157 C2133 0.949 . S
H2158 C2135 0.950 . S
H2159 C2137 0.950 . S
C2160 C2161 1.349 1_565 S
C2160 C2162 1.327 . S
C2160 H2185 0.950 . S
C2161 C2160 1.349 1_545 S
C2161 C2177 1.349 . S
C2162 C2160 1.327 . S
C2162 C2181 1.429 1_565 S
C2162 H2186 0.950 . S
C2163 C2180 1.574 . S
C2163 C2182 1.368 . S
C2163 H2187 0.949 . S
H2164 C2168 0.949 . S
C2165 C2166 1.349 . S
C2165 C2167 1.327 . S
C2165 H2188 0.950 . S
C2166 C2165 1.349 . S
C2166 C2178 1.349 1_545 S
C2167 C2165 1.327 . S
C2167 C2183 1.429 . S
C2167 H2189 0.950 . S
C2168 H2164 0.949 . S
C2168 C2176 1.574 . S
C2168 C2184 1.368 1_565 S
H2169 C2177 0.950 . S
H2170 C2175 0.950 . S
H2171 C2176 0.949 . S
H2172 C2178 0.950 . S
H2173 C2179 0.950 . S
H2174 C2180 0.949 . S
C2175 H2170 0.950 . S
C2175 C2177 1.327 . S
C2175 C2181 1.429 . S
C2176 C2168 1.574 . S
C2176 H2171 0.949 . S
C2176 C2182 1.368 1_565 S
C2177 C2161 1.349 . S
C2177 H2169 0.950 . S
C2177 C2175 1.327 . S
C2178 C2166 1.349 1_565 S
C2178 H2172 0.950 . S
C2178 C2179 1.327 . S
C2179 H2173 0.950 . S
C2179 C2178 1.327 . S
C2179 C2183 1.429 1_565 S
C2180 C2163 1.574 . S
C2180 H2174 0.949 . S
C2180 C2184 1.368 . S
C2181 C2162 1.429 1_545 S
C2181 C2175 1.429 . S
C2181 C2182 1.523 . S
C2182 C2163 1.368 . S
C2182 C2176 1.368 1_545 S
C2182 C2181 1.523 . S
C2183 C2167 1.429 . S
C2183 C2179 1.429 1_545 S
C2183 C2184 1.523 . S
C2184 C2168 1.368 1_545 S
C2184 C2180 1.368 . S
C2184 C2183 1.523 . S
H2185 C2160 0.950 . S
H2186 C2162 0.950 . S
H2187 C2163 0.949 . S
H2188 C2165 0.950 . S
H2189 C2167 0.950 . S
C2190 C2191 1.349 . S
C2190 C2192 1.327 . S
C2190 H2215 0.950 . S
C2191 C2190 1.349 . S
C2191 C2207 1.349 . S
C2192 C2190 1.327 . S
C2192 C2211 1.429 . S
C2192 H2216 0.950 . S
C2193 C2210 1.574 . S
C2193 C2212 1.368 . S
C2193 H2217 0.949 . S
H2194 C2198 0.949 . S
C2195 C2196 1.349 . S
C2195 C2197 1.327 . S
C2195 H2218 0.950 . S
C2196 C2195 1.349 . S
C2196 C2208 1.349 . S
C2197 C2195 1.327 . S
C2197 C2213 1.429 . S
C2197 H2219 0.950 . S
C2198 H2194 0.949 . S
C2198 C2206 1.574 . S
C2198 C2214 1.368 . S
H2199 C2207 0.950 . S
H2200 C2205 0.950 . S
H2201 C2206 0.949 . S
H2202 C2208 0.950 . S
H2203 C2209 0.950 . S
H2204 C2210 0.949 . S
C2205 H2200 0.950 . S
C2205 C2207 1.327 . S
C2205 C2211 1.429 . S
C2206 C2198 1.574 . S
C2206 H2201 0.949 . S
C2206 C2212 1.368 . S
C2207 C2191 1.349 . S
C2207 H2199 0.950 . S
C2207 C2205 1.327 . S
C2208 C2196 1.349 . S
C2208 H2202 0.950 . S
C2208 C2209 1.327 . S
C2209 H2203 0.950 . S
C2209 C2208 1.327 . S
C2209 C2213 1.429 . S
C2210 C2193 1.574 . S
C2210 H2204 0.949 . S
C2210 C2214 1.368 . S
C2211 C2192 1.429 . S
C2211 C2205 1.429 . S
C2211 C2212 1.523 . S
C2212 C2193 1.368 . S
C2212 C2206 1.368 . S
C2212 C2211 1.523 . S
C2213 C2197 1.429 . S
C2213 C2209 1.429 . S
C2213 C2214 1.523 . S
C2214 C2198 1.368 . S
C2214 C2210 1.368 . S
C2214 C2213 1.523 . S
H2215 C2190 0.950 . S
H2216 C2192 0.950 . S
H2217 C2193 0.949 . S
H2218 C2195 0.950 . S
H2219 C2197 0.950 . S
C2220 C2221 1.349 1_565 S
C2220 C2222 1.327 . S
C2220 H2245 0.950 . S
C2221 C2220 1.349 1_545 S
C2221 C2237 1.349 . S
C2222 C2220 1.327 . S
C2222 C2241 1.412 1_565 S
C2222 H2246 0.950 . S
C2223 C2240 1.574 . S
C2223 C2242 1.351 1_545 S
C2223 H2247 0.949 . S
H2224 C2228 0.949 . S
C2225 C2226 1.349 1_545 S
C2225 C2227 1.327 . S
C2225 H2248 0.950 . S
C2226 C2225 1.349 1_565 S
C2226 C2238 1.349 . S
C2227 C2225 1.327 . S
C2227 C2243 1.429 1_545 S
C2227 H2249 0.950 . S
C2228 H2224 0.949 . S
C2228 C2236 1.574 . S
C2228 C2244 1.368 . S
H2229 C2237 0.950 . S
H2230 C2235 0.950 . S
H2231 C2236 0.949 . S
H2232 C2238 0.950 . S
H2233 C2239 0.950 . S
H2234 C2240 0.949 . S
C2235 H2230 0.950 . S
C2235 C2237 1.327 . S
C2235 C2241 1.447 . S
C2236 C2228 1.574 . S
C2236 H2231 0.949 . S
C2236 C2242 1.387 . S
C2237 C2221 1.349 . S
C2237 H2229 0.950 . S
C2237 C2235 1.327 . S
C2238 C2226 1.349 . S
C2238 H2232 0.950 . S
C2238 C2239 1.327 . S
C2239 H2233 0.950 . S
C2239 C2238 1.327 . S
C2239 C2243 1.429 . S
C2240 C2223 1.574 . S
C2240 H2234 0.949 . S
C2240 C2244 1.368 1_545 S
C2241 C2222 1.412 1_545 S
C2241 C2235 1.447 . S
C2241 C2242 1.522 1_545 S
C2242 C2223 1.351 1_565 S
C2242 C2236 1.387 . S
C2242 C2241 1.522 1_565 S
C2243 C2227 1.429 1_565 S
C2243 C2239 1.429 . S
C2243 C2244 1.523 . S
C2244 C2228 1.368 . S
C2244 C2240 1.368 1_565 S
C2244 C2243 1.523 . S
H2245 C2220 0.950 . S
H2246 C2222 0.950 . S
H2247 C2223 0.949 . S
H2248 C2225 0.950 . S
H2249 C2227 0.950 . S
C2250 C2251 1.349 . S
C2250 C2252 1.327 . S
C2250 H2275 0.950 . S
C2251 C2250 1.349 . S
C2251 C2267 1.349 . S
C2252 C2250 1.327 . S
C2252 C2271 1.429 . S
C2252 H2276 0.950 . S
C2253 C2270 1.574 . S
C2253 C2272 1.368 . S
C2253 H2277 0.949 . S
H2254 C2258 0.949 . S
C2255 C2256 1.349 . S
C2255 C2257 1.327 . S
C2255 H2278 0.950 . S
C2256 C2255 1.349 . S
C2256 C2268 1.349 . S
C2257 C2255 1.327 . S
C2257 C2273 1.429 . S
C2257 H2279 0.950 . S
C2258 H2254 0.949 . S
C2258 C2266 1.574 . S
C2258 C2274 1.368 . S
H2259 C2267 0.950 . S
H2260 C2265 0.950 . S
H2261 C2266 0.949 . S
H2262 C2268 0.950 . S
H2263 C2269 0.950 . S
H2264 C2270 0.949 . S
C2265 H2260 0.950 . S
C2265 C2267 1.327 . S
C2265 C2271 1.429 . S
C2266 C2258 1.574 . S
C2266 H2261 0.949 . S
C2266 C2272 1.368 . S
C2267 C2251 1.349 . S
C2267 H2259 0.950 . S
C2267 C2265 1.327 . S
C2268 C2256 1.349 . S
C2268 H2262 0.950 . S
C2268 C2269 1.327 . S
C2269 H2263 0.950 . S
C2269 C2268 1.327 . S
C2269 C2273 1.429 . S
C2270 C2253 1.574 . S
C2270 H2264 0.949 . S
C2270 C2274 1.368 . S
C2271 C2252 1.429 . S
C2271 C2265 1.429 . S
C2271 C2272 1.523 . S
C2272 C2253 1.368 . S
C2272 C2266 1.368 . S
C2272 C2271 1.523 . S
C2273 C2257 1.429 . S
C2273 C2269 1.429 . S
C2273 C2274 1.523 . S
C2274 C2258 1.368 . S
C2274 C2270 1.368 . S
C2274 C2273 1.523 . S
H2275 C2250 0.950 . S
H2276 C2252 0.950 . S
H2277 C2253 0.949 . S
H2278 C2255 0.950 . S
H2279 C2257 0.950 . S
C2280 C2281 1.345 . S
C2280 C2282 1.327 . S
C2280 H2305 0.950 . S
C2281 C2280 1.345 . S
C2281 C2297 1.353 1_545 S
C2282 C2280 1.327 . S
C2282 C2301 1.429 1_545 S
C2282 H2306 0.950 . S
C2283 C2300 1.574 . S
C2283 C2302 1.368 . S
C2283 H2307 0.949 . S
H2284 C2288 0.949 . S
C2285 C2286 1.349 . S
C2285 C2287 1.327 . S
C2285 H2308 0.950 . S
C2286 C2285 1.349 . S
C2286 C2298 1.349 1_565 S
C2287 C2285 1.327 . S
C2287 C2303 1.429 . S
C2287 H2309 0.950 . S
C2288 H2284 0.949 . S
C2288 C2296 1.574 . S
C2288 C2304 1.368 1_545 S
H2289 C2297 0.950 . S
H2290 C2295 0.950 . S
H2291 C2296 0.949 . S
H2292 C2298 0.950 . S
H2293 C2299 0.950 . S
H2294 C2300 0.949 . S
C2295 H2290 0.950 . S
C2295 C2297 1.327 . S
C2295 C2301 1.429 . S
C2296 C2288 1.574 . S
C2296 H2291 0.949 . S
C2296 C2302 1.368 1_545 S
C2297 C2281 1.353 1_565 S
C2297 H2289 0.950 . S
C2297 C2295 1.327 . S
C2298 C2286 1.349 1_545 S
C2298 H2292 0.950 . S
C2298 C2299 1.327 . S
C2299 H2293 0.950 . S
C2299 C2298 1.327 . S
C2299 C2303 1.429 1_545 S
C2300 C2283 1.574 . S
C2300 H2294 0.949 . S
C2300 C2304 1.368 . S
C2301 C2282 1.429 1_565 S
C2301 C2295 1.429 . S
C2301 C2302 1.523 . S
C2302 C2283 1.368 . S
C2302 C2296 1.368 1_565 S
C2302 C2301 1.523 . S
C2303 C2287 1.429 . S
C2303 C2299 1.429 1_565 S
C2303 C2304 1.523 . S
C2304 C2288 1.368 1_565 S
C2304 C2300 1.368 . S
C2304 C2303 1.523 . S
H2305 C2280 0.950 . S
H2306 C2282 0.950 . S
H2307 C2283 0.949 . S
H2308 C2285 0.950 . S
H2309 C2287 0.950 . S
C2310 C2311 1.349 . S
C2310 C2312 1.327 . S
C2310 H2335 0.950 . S
C2311 C2310 1.349 . S
C2311 C2327 1.349 . S
C2312 C2310 1.327 . S
C2312 C2331 1.429 . S
C2312 H2336 0.950 . S
C2313 C2330 1.574 . S
C2313 C2332 1.368 . S
C2313 H2337 0.949 . S
H2314 C2318 0.949 . S
C2315 C2316 1.349 . S
C2315 C2317 1.327 . S
C2315 H2338 0.950 . S
C2316 C2315 1.349 . S
C2316 C2328 1.349 . S
C2317 C2315 1.327 . S
C2317 C2333 1.429 . S
C2317 H2339 0.950 . S
C2318 H2314 0.949 . S
C2318 C2326 1.574 . S
C2318 C2334 1.368 . S
H2319 C2327 0.950 . S
H2320 C2325 0.950 . S
H2321 C2326 0.949 . S
H2322 C2328 0.950 . S
H2323 C2329 0.950 . S
H2324 C2330 0.949 . S
C2325 H2320 0.950 . S
C2325 C2327 1.327 . S
C2325 C2331 1.429 . S
C2326 C2318 1.574 . S
C2326 H2321 0.949 . S
C2326 C2332 1.368 . S
C2327 C2311 1.349 . S
C2327 H2319 0.950 . S
C2327 C2325 1.327 . S
C2328 C2316 1.349 . S
C2328 H2322 0.950 . S
C2328 C2329 1.327 . S
C2329 H2323 0.950 . S
C2329 C2328 1.327 . S
C2329 C2333 1.429 . S
C2330 C2313 1.574 . S
C2330 H2324 0.949 . S
C2330 C2334 1.368 . S
C2331 C2312 1.429 . S
C2331 C2325 1.429 . S
C2331 C2332 1.523 . S
C2332 C2313 1.368 . S
C2332 C2326 1.368 . S
C2332 C2331 1.523 . S
C2333 C2317 1.429 . S
C2333 C2329 1.429 . S
C2333 C2334 1.523 . S
C2334 C2318 1.368 . S
C2334 C2330 1.368 . S
C2334 C2333 1.523 . S
H2335 C2310 0.950 . S
H2336 C2312 0.950 . S
H2337 C2313 0.949 . S
H2338 C2315 0.950 . S
H2339 C2317 0.950 . S
C2340 C2341 1.349 . S
C2340 C2342 1.327 . S
C2340 H2365 0.950 . S
C2341 C2340 1.349 . S
C2341 C2357 1.349 1_545 S
C2342 C2340 1.327 . S
C2342 C2361 1.429 . S
C2342 H2366 0.950 . S
C2343 C2360 1.574 . S
C2343 C2362 1.368 1_565 S
C2343 H2367 0.949 . S
H2344 C2348 0.949 . S
C2345 C2346 1.349 . S
C2345 C2347 1.327 . S
C2345 H2368 0.950 1_545 S
C2346 C2345 1.349 . S
C2346 C2358 1.349 . S
C2347 C2345 1.327 . S
C2347 C2363 1.429 . S
C2347 H2369 0.950 1_545 S
C2348 H2344 0.949 . S
C2348 C2356 1.574 . S
C2348 C2364 1.368 . S
H2349 C2357 0.950 . S
H2350 C2355 0.950 . S
H2351 C2356 0.949 . S
H2352 C2358 0.950 . S
H2353 C2359 0.950 . S
H2354 C2360 0.949 . S
C2355 H2350 0.950 . S
C2355 C2357 1.327 . S
C2355 C2361 1.429 1_565 S
C2356 C2348 1.574 . S
C2356 H2351 0.949 . S
C2356 C2362 1.368 . S
C2357 C2341 1.349 1_565 S
C2357 H2349 0.950 . S
C2357 C2355 1.327 . S
C2358 C2346 1.349 . S
C2358 H2352 0.950 . S
C2358 C2359 1.327 . S
C2359 H2353 0.950 . S
C2359 C2358 1.327 . S
C2359 C2363 1.429 . S
C2360 C2343 1.574 . S
C2360 H2354 0.949 . S
C2360 C2364 1.368 1_565 S
C2361 C2342 1.429 . S
C2361 C2355 1.429 1_545 S
C2361 C2362 1.523 . S
C2362 C2343 1.368 1_545 S
C2362 C2356 1.368 . S
C2362 C2361 1.523 . S
C2363 C2347 1.429 . S
C2363 C2359 1.429 . S
C2363 C2364 1.523 . S
C2364 C2348 1.368 . S
C2364 C2360 1.368 1_545 S
C2364 C2363 1.523 . S
H2365 C2340 0.950 . S
H2366 C2342 0.950 . S
H2367 C2343 0.949 . S
H2368 C2345 0.950 1_565 S
H2369 C2347 0.950 1_565 S
C2370 C2371 1.349 . S
C2370 C2372 1.327 . S
C2370 H2395 0.950 . S
C2371 C2370 1.349 . S
C2371 C2387 1.349 . S
C2372 C2370 1.327 . S
C2372 C2391 1.429 . S
C2372 H2396 0.950 . S
C2373 C2390 1.574 . S
C2373 C2392 1.368 . S
C2373 H2397 0.949 . S
H2374 C2378 0.949 . S
C2375 C2376 1.349 . S
C2375 C2377 1.327 . S
C2375 H2398 0.950 . S
C2376 C2375 1.349 . S
C2376 C2388 1.349 . S
C2377 C2375 1.327 . S
C2377 C2393 1.429 . S
C2377 H2399 0.950 . S
C2378 H2374 0.949 . S
C2378 C2386 1.574 . S
C2378 C2394 1.368 . S
H2379 C2387 0.950 . S
H2380 C2385 0.950 . S
H2381 C2386 0.949 . S
H2382 C2388 0.950 . S
H2383 C2389 0.950 . S
H2384 C2390 0.949 . S
C2385 H2380 0.950 . S
C2385 C2387 1.327 . S
C2385 C2391 1.429 . S
C2386 C2378 1.574 . S
C2386 H2381 0.949 . S
C2386 C2392 1.368 . S
C2387 C2371 1.349 . S
C2387 H2379 0.950 . S
C2387 C2385 1.327 . S
C2388 C2376 1.349 . S
C2388 H2382 0.950 . S
C2388 C2389 1.327 . S
C2389 H2383 0.950 . S
C2389 C2388 1.327 . S
C2389 C2393 1.429 . S
C2390 C2373 1.574 . S
C2390 H2384 0.949 . S
C2390 C2394 1.368 . S
C2391 C2372 1.429 . S
C2391 C2385 1.429 . S
C2391 C2392 1.523 . S
C2392 C2373 1.368 . S
C2392 C2386 1.368 . S
C2392 C2391 1.523 . S
C2393 C2377 1.429 . S
C2393 C2389 1.429 . S
C2393 C2394 1.523 . S
C2394 C2378 1.368 . S
C2394 C2390 1.368 . S
C2394 C2393 1.523 . S
H2395 C2370 0.950 . S
H2396 C2372 0.950 . S
H2397 C2373 0.949 . S
H2398 C2375 0.950 . S
H2399 C2377 0.950 . S
C2400 C2401 1.349 1_556 S
C2400 C2402 1.327 . S
C2400 H2425 0.950 . S
C2401 C2400 1.349 1_554 S
C2401 C2417 1.349 . S
C2402 C2400 1.327 . S
C2402 C2421 1.429 1_556 S
C2402 H2426 0.950 . S
C2403 C2420 1.574 . S
C2403 C2422 1.368 . S
C2403 H2427 0.949 . S
H2404 C2408 0.949 . S
C2405 C2406 1.349 . S
C2405 C2407 1.327 . S
C2405 H2428 0.950 . S
C2406 C2405 1.349 . S
C2406 C2418 1.349 1_554 S
C2407 C2405 1.327 . S
C2407 C2423 1.429 . S
C2407 H2429 0.950 . S
C2408 H2404 0.949 . S
C2408 C2416 1.574 . S
C2408 C2424 1.368 1_556 S
H2409 C2417 0.950 . S
H2410 C2415 0.950 . S
H2411 C2416 0.949 . S
H2412 C2418 0.950 . S
H2413 C2419 0.950 . S
H2414 C2420 0.949 . S
C2415 H2410 0.950 . S
C2415 C2417 1.327 . S
C2415 C2421 1.429 . S
C2416 C2408 1.574 . S
C2416 H2411 0.949 . S
C2416 C2422 1.368 1_556 S
C2417 C2401 1.349 . S
C2417 H2409 0.950 . S
C2417 C2415 1.327 . S
C2418 C2406 1.349 1_556 S
C2418 H2412 0.950 . S
C2418 C2419 1.327 . S
C2419 H2413 0.950 . S
C2419 C2418 1.327 . S
C2419 C2423 1.429 1_556 S
C2420 C2403 1.574 . S
C2420 H2414 0.949 . S
C2420 C2424 1.368 . S
C2421 C2402 1.429 1_554 S
C2421 C2415 1.429 . S
C2421 C2422 1.523 . S
C2422 C2403 1.368 . S
C2422 C2416 1.368 1_554 S
C2422 C2421 1.523 . S
C2423 C2407 1.429 . S
C2423 C2419 1.429 1_554 S
C2423 C2424 1.523 . S
C2424 C2408 1.368 1_554 S
C2424 C2420 1.368 . S
C2424 C2423 1.523 . S
H2425 C2400 0.950 . S
H2426 C2402 0.950 . S
H2427 C2403 0.949 . S
H2428 C2405 0.950 . S
H2429 C2407 0.950 . S
C2430 C2431 1.312 1_554 S
C2430 C2432 1.327 . S
C2430 H2455 0.950 . S
C2431 C2430 1.312 1_556 S
C2431 C2447 1.388 . S
C2432 C2430 1.327 . S
C2432 C2451 1.429 1_554 S
C2432 H2456 0.950 . S
C2433 C2450 1.574 . S
C2433 C2452 1.368 . S
C2433 H2457 0.949 . S
H2434 C2438 0.949 . S
C2435 C2436 1.349 . S
C2435 C2437 1.327 . S
C2435 H2458 0.950 . S
C2436 C2435 1.349 . S
C2436 C2448 1.349 1_556 S
C2437 C2435 1.327 . S
C2437 C2453 1.429 . S
C2437 H2459 0.950 . S
C2438 H2434 0.949 . S
C2438 C2446 1.574 . S
C2438 C2454 1.368 1_554 S
H2439 C2447 0.950 . S
H2440 C2445 0.950 . S
H2441 C2446 0.949 . S
H2442 C2448 0.950 . S
H2443 C2449 0.950 . S
H2444 C2450 0.949 . S
C2445 H2440 0.950 . S
C2445 C2447 1.327 . S
C2445 C2451 1.429 . S
C2446 C2438 1.574 . S
C2446 H2441 0.949 . S
C2446 C2452 1.368 1_554 S
C2447 C2431 1.388 . S
C2447 H2439 0.950 . S
C2447 C2445 1.327 . S
C2448 C2436 1.349 1_554 S
C2448 H2442 0.950 . S
C2448 C2449 1.327 . S
C2449 H2443 0.950 . S
C2449 C2448 1.327 . S
C2449 C2453 1.429 1_554 S
C2450 C2433 1.574 . S
C2450 H2444 0.949 . S
C2450 C2454 1.368 . S
C2451 C2432 1.429 1_556 S
C2451 C2445 1.429 . S
C2451 C2452 1.523 . S
C2452 C2433 1.368 . S
C2452 C2446 1.368 1_556 S
C2452 C2451 1.523 . S
C2453 C2437 1.429 . S
C2453 C2449 1.429 1_556 S
C2453 C2454 1.523 . S
C2454 C2438 1.368 1_556 S
C2454 C2450 1.368 . S
C2454 C2453 1.523 . S
H2455 C2430 0.950 . S
H2456 C2432 0.950 . S
H2457 C2433 0.949 . S
H2458 C2435 0.950 . S
H2459 C2437 0.950 . S
C2460 C2461 1.349 . S
C2460 C2462 1.327 . S
C2460 H2485 0.950 . S
C2461 C2460 1.349 . S
C2461 C2477 1.349 . S
C2462 C2460 1.327 . S
C2462 C2481 1.429 . S
C2462 H2486 0.950 . S
C2463 C2480 1.574 . S
C2463 C2482 1.368 . S
C2463 H2487 0.949 . S
H2464 C2468 0.949 . S
C2465 C2466 1.349 . S
C2465 C2467 1.327 . S
C2465 H2488 0.950 . S
C2466 C2465 1.349 . S
C2466 C2478 1.349 . S
C2467 C2465 1.327 . S
C2467 C2483 1.429 . S
C2467 H2489 0.950 . S
C2468 H2464 0.949 . S
C2468 C2476 1.574 . S
C2468 C2484 1.368 . S
H2469 C2477 0.950 . S
H2470 C2475 0.950 . S
H2471 C2476 0.949 . S
H2472 C2478 0.950 . S
H2473 C2479 0.950 . S
H2474 C2480 0.949 . S
C2475 H2470 0.950 . S
C2475 C2477 1.327 . S
C2475 C2481 1.429 . S
C2476 C2468 1.574 . S
C2476 H2471 0.949 . S
C2476 C2482 1.368 . S
C2477 C2461 1.349 . S
C2477 H2469 0.950 . S
C2477 C2475 1.327 . S
C2478 C2466 1.349 . S
C2478 H2472 0.950 . S
C2478 C2479 1.327 . S
C2479 H2473 0.950 . S
C2479 C2478 1.327 . S
C2479 C2483 1.429 . S
C2480 C2463 1.574 . S
C2480 H2474 0.949 . S
C2480 C2484 1.368 . S
C2481 C2462 1.429 . S
C2481 C2475 1.429 . S
C2481 C2482 1.523 . S
C2482 C2463 1.368 . S
C2482 C2476 1.368 . S
C2482 C2481 1.523 . S
C2483 C2467 1.429 . S
C2483 C2479 1.429 . S
C2483 C2484 1.523 . S
C2484 C2468 1.368 . S
C2484 C2480 1.368 . S
C2484 C2483 1.523 . S
H2485 C2460 0.950 . S
H2486 C2462 0.950 . S
H2487 C2463 0.949 . S
H2488 C2465 0.950 . S
H2489 C2467 0.950 . S
C2490 C2491 1.349 . S
C2490 C2492 1.327 . S
C2490 H2515 0.950 . S
C2491 C2490 1.349 . S
C2491 C2507 1.349 . S
C2492 C2490 1.327 . S
C2492 C2511 1.429 . S
C2492 H2516 0.950 . S
C2493 C2510 1.574 . S
C2493 C2512 1.368 . S
C2493 H2517 0.949 . S
H2494 C2498 0.949 . S
C2495 C2496 1.349 . S
C2495 C2497 1.327 . S
C2495 H2518 0.950 . S
C2496 C2495 1.349 . S
C2496 C2508 1.349 . S
C2497 C2495 1.327 . S
C2497 C2513 1.429 . S
C2497 H2519 0.950 . S
C2498 H2494 0.949 . S
C2498 C2506 1.574 . S
C2498 C2514 1.368 . S
H2499 C2507 0.950 . S
H2500 C2505 0.950 . S
H2501 C2506 0.949 . S
H2502 C2508 0.950 . S
H2503 C2509 0.950 . S
H2504 C2510 0.949 . S
C2505 H2500 0.950 . S
C2505 C2507 1.327 . S
C2505 C2511 1.429 . S
C2506 C2498 1.574 . S
C2506 H2501 0.949 . S
C2506 C2512 1.368 . S
C2507 C2491 1.349 . S
C2507 H2499 0.950 . S
C2507 C2505 1.327 . S
C2508 C2496 1.349 . S
C2508 H2502 0.950 . S
C2508 C2509 1.327 . S
C2509 H2503 0.950 . S
C2509 C2508 1.327 . S
C2509 C2513 1.429 . S
C2510 C2493 1.574 . S
C2510 H2504 0.949 . S
C2510 C2514 1.368 . S
C2511 C2492 1.429 . S
C2511 C2505 1.429 . S
C2511 C2512 1.523 . S
C2512 C2493 1.368 . S
C2512 C2506 1.368 . S
C2512 C2511 1.523 . S
C2513 C2497 1.429 . S
C2513 C2509 1.429 . S
C2513 C2514 1.523 . S
C2514 C2498 1.368 . S
C2514 C2510 1.368 . S
C2514 C2513 1.523 . S
H2515 C2490 0.950 . S
H2516 C2492 0.950 . S
H2517 C2493 0.949 . S
H2518 C2495 0.950 . S
H2519 C2497 0.950 . S
C2520 C2521 1.349 . S
C2520 C2522 1.327 . S
C2520 H2545 0.950 . S
C2521 C2520 1.349 . S
C2521 C2537 1.349 . S
C2522 C2520 1.327 . S
C2522 C2541 1.429 . S
C2522 H2546 0.950 . S
C2523 C2540 1.574 . S
C2523 C2542 1.368 . S
C2523 H2547 0.949 . S
H2524 C2528 0.949 . S
C2525 C2526 1.349 . S
C2525 C2527 1.327 . S
C2525 H2548 0.950 . S
C2526 C2525 1.349 . S
C2526 C2538 1.349 . S
C2527 C2525 1.327 . S
C2527 C2543 1.429 . S
C2527 H2549 0.950 . S
C2528 H2524 0.949 . S
C2528 C2536 1.574 . S
C2528 C2544 1.368 . S
H2529 C2537 0.950 . S
H2530 C2535 0.950 . S
H2531 C2536 0.949 . S
H2532 C2538 0.950 . S
H2533 C2539 0.950 . S
H2534 C2540 0.949 . S
C2535 H2530 0.950 . S
C2535 C2537 1.327 . S
C2535 C2541 1.429 . S
C2536 C2528 1.574 . S
C2536 H2531 0.949 . S
C2536 C2542 1.368 . S
C2537 C2521 1.349 . S
C2537 H2529 0.950 . S
C2537 C2535 1.327 . S
C2538 C2526 1.349 . S
C2538 H2532 0.950 . S
C2538 C2539 1.327 . S
C2539 H2533 0.950 . S
C2539 C2538 1.327 . S
C2539 C2543 1.429 . S
C2540 C2523 1.574 . S
C2540 H2534 0.949 . S
C2540 C2544 1.368 . S
C2541 C2522 1.429 . S
C2541 C2535 1.429 . S
C2541 C2542 1.523 . S
C2542 C2523 1.368 . S
C2542 C2536 1.368 . S
C2542 C2541 1.523 . S
C2543 C2527 1.429 . S
C2543 C2539 1.429 . S
C2543 C2544 1.523 . S
C2544 C2528 1.368 . S
C2544 C2540 1.368 . S
C2544 C2543 1.523 . S
H2545 C2520 0.950 . S
H2546 C2522 0.950 . S
H2547 C2523 0.949 . S
H2548 C2525 0.950 . S
H2549 C2527 0.950 . S
C2550 C2551 1.349 . S
C2550 C2552 1.327 . S
C2550 H2575 0.950 . S
C2551 C2550 1.349 . S
C2551 C2567 1.349 . S
C2552 C2550 1.327 . S
C2552 C2571 1.429 . S
C2552 H2576 0.950 . S
C2553 C2570 1.574 . S
C2553 C2572 1.368 . S
C2553 H2577 0.949 . S
H2554 C2558 0.949 . S
C2555 C2556 1.349 . S
C2555 C2557 1.327 . S
C2555 H2578 0.950 . S
C2556 C2555 1.349 . S
C2556 C2568 1.349 . S
C2557 C2555 1.327 . S
C2557 C2573 1.429 . S
C2557 H2579 0.950 . S
C2558 H2554 0.949 . S
C2558 C2566 1.574 . S
C2558 C2574 1.368 . S
H2559 C2567 0.950 . S
H2560 C2565 0.950 . S
H2561 C2566 0.949 . S
H2562 C2568 0.950 . S
H2563 C2569 0.950 . S
H2564 C2570 0.949 . S
C2565 H2560 0.950 . S
C2565 C2567 1.327 . S
C2565 C2571 1.429 . S
C2566 C2558 1.574 . S
C2566 H2561 0.949 . S
C2566 C2572 1.368 . S
C2567 C2551 1.349 . S
C2567 H2559 0.950 . S
C2567 C2565 1.327 . S
C2568 C2556 1.349 . S
C2568 H2562 0.950 . S
C2568 C2569 1.327 . S
C2569 H2563 0.950 . S
C2569 C2568 1.327 . S
C2569 C2573 1.429 . S
C2570 C2553 1.574 . S
C2570 H2564 0.949 . S
C2570 C2574 1.368 . S
C2571 C2552 1.429 . S
C2571 C2565 1.429 . S
C2571 C2572 1.523 . S
C2572 C2553 1.368 . S
C2572 C2566 1.368 . S
C2572 C2571 1.523 . S
C2573 C2557 1.429 . S
C2573 C2569 1.429 . S
C2573 C2574 1.523 . S
C2574 C2558 1.368 . S
C2574 C2570 1.368 . S
C2574 C2573 1.523 . S
H2575 C2550 0.950 . S
H2576 C2552 0.950 . S
H2577 C2553 0.949 . S
H2578 C2555 0.950 . S
H2579 C2557 0.950 . S
C2580 C2581 1.349 . S
C2580 C2582 1.327 . S
C2580 H2605 0.950 . S
C2581 C2580 1.349 . S
C2581 C2597 1.349 . S
C2582 C2580 1.327 . S
C2582 C2601 1.429 . S
C2582 H2606 0.950 . S
C2583 C2600 1.574 . S
C2583 C2602 1.368 . S
C2583 H2607 0.949 . S
H2584 C2588 0.949 . S
C2585 C2586 1.349 . S
C2585 C2587 1.327 . S
C2585 H2608 0.950 . S
C2586 C2585 1.349 . S
C2586 C2598 1.349 . S
C2587 C2585 1.327 . S
C2587 C2603 1.429 . S
C2587 H2609 0.950 . S
C2588 H2584 0.949 . S
C2588 C2596 1.574 . S
C2588 C2604 1.368 . S
H2589 C2597 0.950 . S
H2590 C2595 0.950 . S
H2591 C2596 0.949 . S
H2592 C2598 0.950 . S
H2593 C2599 0.950 . S
H2594 C2600 0.949 . S
C2595 H2590 0.950 . S
C2595 C2597 1.327 . S
C2595 C2601 1.429 . S
C2596 C2588 1.574 . S
C2596 H2591 0.949 . S
C2596 C2602 1.368 . S
C2597 C2581 1.349 . S
C2597 H2589 0.950 . S
C2597 C2595 1.327 . S
C2598 C2586 1.349 . S
C2598 H2592 0.950 . S
C2598 C2599 1.327 . S
C2599 H2593 0.950 . S
C2599 C2598 1.327 . S
C2599 C2603 1.429 . S
C2600 C2583 1.574 . S
C2600 H2594 0.949 . S
C2600 C2604 1.368 . S
C2601 C2582 1.429 . S
C2601 C2595 1.429 . S
C2601 C2602 1.523 . S
C2602 C2583 1.368 . S
C2602 C2596 1.368 . S
C2602 C2601 1.523 . S
C2603 C2587 1.429 . S
C2603 C2599 1.429 . S
C2603 C2604 1.523 . S
C2604 C2588 1.368 . S
C2604 C2600 1.368 . S
C2604 C2603 1.523 . S
H2605 C2580 0.950 . S
H2606 C2582 0.950 . S
H2607 C2583 0.949 . S
H2608 C2585 0.950 . S
H2609 C2587 0.950 . S
C2610 C2611 1.349 . S
C2610 C2612 1.327 . S
C2610 H2635 0.950 . S
C2611 C2610 1.349 . S
C2611 C2627 1.349 . S
C2612 C2610 1.327 . S
C2612 C2631 1.429 . S
C2612 H2636 0.950 . S
C2613 C2630 1.574 . S
C2613 C2632 1.368 . S
C2613 H2637 0.949 . S
H2614 C2618 0.949 . S
C2615 C2616 1.349 . S
C2615 C2617 1.327 . S
C2615 H2638 0.950 . S
C2616 C2615 1.349 . S
C2616 C2628 1.349 . S
C2617 C2615 1.327 . S
C2617 C2633 1.429 . S
C2617 H2639 0.950 . S
C2618 H2614 0.949 . S
C2618 C2626 1.574 . S
C2618 C2634 1.368 . S
H2619 C2627 0.950 . S
H2620 C2625 0.950 . S
H2621 C2626 0.949 . S
H2622 C2628 0.950 . S
H2623 C2629 0.950 . S
H2624 C2630 0.949 . S
C2625 H2620 0.950 . S
C2625 C2627 1.327 . S
C2625 C2631 1.429 . S
C2626 C2618 1.574 . S
C2626 H2621 0.949 . S
C2626 C2632 1.368 . S
C2627 C2611 1.349 . S
C2627 H2619 0.950 . S
C2627 C2625 1.327 . S
C2628 C2616 1.349 . S
C2628 H2622 0.950 . S
C2628 C2629 1.327 . S
C2629 H2623 0.950 . S
C2629 C2628 1.327 . S
C2629 C2633 1.429 . S
C2630 C2613 1.574 . S
C2630 H2624 0.949 . S
C2630 C2634 1.368 . S
C2631 C2612 1.429 . S
C2631 C2625 1.429 . S
C2631 C2632 1.523 . S
C2632 C2613 1.368 . S
C2632 C2626 1.368 . S
C2632 C2631 1.523 . S
C2633 C2617 1.429 . S
C2633 C2629 1.429 . S
C2633 C2634 1.523 . S
C2634 C2618 1.368 . S
C2634 C2630 1.368 . S
C2634 C2633 1.523 . S
H2635 C2610 0.950 . S
H2636 C2612 0.950 . S
H2637 C2613 0.949 . S
H2638 C2615 0.950 . S
H2639 C2617 0.950 . S
C2640 C2641 1.349 . S
C2640 C2642 1.327 . S
C2640 H2665 0.950 . S
C2641 C2640 1.349 . S
C2641 C2657 1.349 . S
C2642 C2640 1.327 . S
C2642 C2661 1.429 . S
C2642 H2666 0.950 . S
C2643 C2660 1.574 . S
C2643 C2662 1.368 . S
C2643 H2667 0.949 . S
H2644 C2648 0.949 . S
C2645 C2646 1.349 . S
C2645 C2647 1.327 . S
C2645 H2668 0.950 . S
C2646 C2645 1.349 . S
C2646 C2658 1.349 . S
C2647 C2645 1.327 . S
C2647 C2663 1.429 . S
C2647 H2669 0.950 . S
C2648 H2644 0.949 . S
C2648 C2656 1.574 . S
C2648 C2664 1.368 . S
H2649 C2657 0.950 . S
H2650 C2655 0.950 . S
H2651 C2656 0.949 . S
H2652 C2658 0.950 . S
H2653 C2659 0.950 . S
H2654 C2660 0.949 . S
C2655 H2650 0.950 . S
C2655 C2657 1.327 . S
C2655 C2661 1.429 . S
C2656 C2648 1.574 . S
C2656 H2651 0.949 . S
C2656 C2662 1.368 . S
C2657 C2641 1.349 . S
C2657 H2649 0.950 . S
C2657 C2655 1.327 . S
C2658 C2646 1.349 . S
C2658 H2652 0.950 . S
C2658 C2659 1.327 . S
C2659 H2653 0.950 . S
C2659 C2658 1.327 . S
C2659 C2663 1.429 . S
C2660 C2643 1.574 . S
C2660 H2654 0.949 . S
C2660 C2664 1.368 . S
C2661 C2642 1.429 . S
C2661 C2655 1.429 . S
C2661 C2662 1.523 . S
C2662 C2643 1.368 . S
C2662 C2656 1.368 . S
C2662 C2661 1.523 . S
C2663 C2647 1.429 . S
C2663 C2659 1.429 . S
C2663 C2664 1.523 . S
C2664 C2648 1.368 . S
C2664 C2660 1.368 . S
C2664 C2663 1.523 . S
H2665 C2640 0.950 . S
H2666 C2642 0.950 . S
H2667 C2643 0.949 . S
H2668 C2645 0.950 . S
H2669 C2647 0.950 . S
C2670 C2671 1.349 . S
C2670 C2672 1.327 . S
C2670 H2695 0.950 . S
C2671 C2670 1.349 . S
C2671 C2687 1.349 . S
C2672 C2670 1.327 . S
C2672 C2691 1.429 . S
C2672 H2696 0.950 . S
C2673 C2690 1.574 . S
C2673 C2692 1.368 . S
C2673 H2697 0.949 . S
H2674 C2678 0.949 . S
C2675 C2676 1.349 . S
C2675 C2677 1.327 . S
C2675 H2698 0.950 . S
C2676 C2675 1.349 . S
C2676 C2688 1.349 . S
C2677 C2675 1.327 . S
C2677 C2693 1.429 . S
C2677 H2699 0.950 . S
C2678 H2674 0.949 . S
C2678 C2686 1.574 . S
C2678 C2694 1.368 . S
H2679 C2687 0.950 . S
H2680 C2685 0.950 . S
H2681 C2686 0.949 . S
H2682 C2688 0.950 . S
H2683 C2689 0.950 . S
H2684 C2690 0.949 . S
C2685 H2680 0.950 . S
C2685 C2687 1.327 . S
C2685 C2691 1.429 . S
C2686 C2678 1.574 . S
C2686 H2681 0.949 . S
C2686 C2692 1.368 . S
C2687 C2671 1.349 . S
C2687 H2679 0.950 . S
C2687 C2685 1.327 . S
C2688 C2676 1.349 . S
C2688 H2682 0.950 . S
C2688 C2689 1.327 . S
C2689 H2683 0.950 . S
C2689 C2688 1.327 . S
C2689 C2693 1.429 . S
C2690 C2673 1.574 . S
C2690 H2684 0.949 . S
C2690 C2694 1.368 . S
C2691 C2672 1.429 . S
C2691 C2685 1.429 . S
C2691 C2692 1.523 . S
C2692 C2673 1.368 . S
C2692 C2686 1.368 . S
C2692 C2691 1.523 . S
C2693 C2677 1.429 . S
C2693 C2689 1.429 . S
C2693 C2694 1.523 . S
C2694 C2678 1.368 . S
C2694 C2690 1.368 . S
C2694 C2693 1.523 . S
H2695 C2670 0.950 . S
H2696 C2672 0.950 . S
H2697 C2673 0.949 . S
H2698 C2675 0.950 . S
H2699 C2677 0.950 . S
C2700 C2701 1.349 . S
C2700 C2702 1.327 . S
C2700 H2725 0.950 . S
C2701 C2700 1.349 . S
C2701 C2717 1.349 1_455 S
C2702 C2700 1.327 . S
C2702 C2721 1.429 . S
C2702 H2726 0.950 . S
C2703 C2720 1.574 . S
C2703 C2722 1.368 1_655 S
C2703 H2727 0.949 . S
H2704 C2708 0.949 . S
C2705 C2706 1.349 1_655 S
C2705 C2707 1.327 . S
C2705 H2728 0.950 . S
C2706 C2705 1.349 1_455 S
C2706 C2718 1.349 . S
C2707 C2705 1.327 . S
C2707 C2723 1.429 1_655 S
C2707 H2729 0.950 . S
C2708 H2704 0.949 . S
C2708 C2716 1.574 . S
C2708 C2724 1.368 . S
H2709 C2717 0.950 . S
H2710 C2715 0.950 . S
H2711 C2716 0.949 . S
H2712 C2718 0.950 . S
H2713 C2719 0.950 . S
H2714 C2720 0.949 . S
C2715 H2710 0.950 . S
C2715 C2717 1.327 . S
C2715 C2721 1.429 1_655 S
C2716 C2708 1.574 . S
C2716 H2711 0.949 . S
C2716 C2722 1.368 . S
C2717 C2701 1.349 1_655 S
C2717 H2709 0.950 . S
C2717 C2715 1.327 . S
C2718 C2706 1.349 . S
C2718 H2712 0.950 . S
C2718 C2719 1.327 . S
C2719 H2713 0.950 . S
C2719 C2718 1.327 . S
C2719 C2723 1.429 . S
C2720 C2703 1.574 . S
C2720 H2714 0.949 . S
C2720 C2724 1.368 1_655 S
C2721 C2702 1.429 . S
C2721 C2715 1.429 1_455 S
C2721 C2722 1.523 . S
C2722 C2703 1.368 1_455 S
C2722 C2716 1.368 . S
C2722 C2721 1.523 . S
C2723 C2707 1.429 1_455 S
C2723 C2719 1.429 . S
C2723 C2724 1.523 . S
C2724 C2708 1.368 . S
C2724 C2720 1.368 1_455 S
C2724 C2723 1.523 . S
H2725 C2700 0.950 . S
H2726 C2702 0.950 . S
H2727 C2703 0.949 . S
H2728 C2705 0.950 . S
H2729 C2707 0.950 . S
C2730 C2731 1.349 . S
C2730 C2732 1.327 . S
C2730 H2755 0.950 . S
C2731 C2730 1.349 . S
C2731 C2747 1.349 . S
C2732 C2730 1.327 . S
C2732 C2751 1.429 . S
C2732 H2756 0.950 . S
C2733 C2750 1.574 . S
C2733 C2752 1.368 . S
C2733 H2757 0.949 . S
H2734 C2738 0.949 . S
C2735 C2736 1.349 . S
C2735 C2737 1.327 . S
C2735 H2758 0.950 . S
C2736 C2735 1.349 . S
C2736 C2748 1.349 . S
C2737 C2735 1.327 . S
C2737 C2753 1.429 . S
C2737 H2759 0.950 . S
C2738 H2734 0.949 . S
C2738 C2746 1.574 . S
C2738 C2754 1.368 . S
H2739 C2747 0.950 . S
H2740 C2745 0.950 . S
H2741 C2746 0.949 . S
H2742 C2748 0.950 . S
H2743 C2749 0.950 . S
H2744 C2750 0.949 . S
C2745 H2740 0.950 . S
C2745 C2747 1.327 . S
C2745 C2751 1.429 . S
C2746 C2738 1.574 . S
C2746 H2741 0.949 . S
C2746 C2752 1.368 . S
C2747 C2731 1.349 . S
C2747 H2739 0.950 . S
C2747 C2745 1.327 . S
C2748 C2736 1.349 . S
C2748 H2742 0.950 . S
C2748 C2749 1.327 . S
C2749 H2743 0.950 . S
C2749 C2748 1.327 . S
C2749 C2753 1.429 . S
C2750 C2733 1.574 . S
C2750 H2744 0.949 . S
C2750 C2754 1.368 . S
C2751 C2732 1.429 . S
C2751 C2745 1.429 . S
C2751 C2752 1.523 . S
C2752 C2733 1.368 . S
C2752 C2746 1.368 . S
C2752 C2751 1.523 . S
C2753 C2737 1.429 . S
C2753 C2749 1.429 . S
C2753 C2754 1.523 . S
C2754 C2738 1.368 . S
C2754 C2750 1.368 . S
C2754 C2753 1.523 . S
H2755 C2730 0.950 . S
H2756 C2732 0.950 . S
H2757 C2733 0.949 . S
H2758 C2735 0.950 . S
H2759 C2737 0.950 . S
C2760 C2761 1.349 . S
C2760 C2762 1.327 . S
C2760 H2785 0.950 . S
C2761 C2760 1.349 . S
C2761 C2777 1.349 . S
C2762 C2760 1.327 . S
C2762 C2781 1.429 . S
C2762 H2786 0.950 . S
C2763 C2780 1.574 . S
C2763 C2782 1.368 . S
C2763 H2787 0.949 . S
H2764 C2768 0.949 . S
C2765 C2766 1.349 . S
C2765 C2767 1.327 . S
C2765 H2788 0.950 . S
C2766 C2765 1.349 . S
C2766 C2778 1.349 . S
C2767 C2765 1.327 . S
C2767 C2783 1.429 . S
C2767 H2789 0.950 . S
C2768 H2764 0.949 . S
C2768 C2776 1.574 . S
C2768 C2784 1.368 . S
H2769 C2777 0.950 . S
H2770 C2775 0.950 . S
H2771 C2776 0.949 . S
H2772 C2778 0.950 . S
H2773 C2779 0.950 . S
H2774 C2780 0.949 . S
C2775 H2770 0.950 . S
C2775 C2777 1.327 . S
C2775 C2781 1.429 . S
C2776 C2768 1.574 . S
C2776 H2771 0.949 . S
C2776 C2782 1.368 . S
C2777 C2761 1.349 . S
C2777 H2769 0.950 . S
C2777 C2775 1.327 . S
C2778 C2766 1.349 . S
C2778 H2772 0.950 . S
C2778 C2779 1.327 . S
C2779 H2773 0.950 . S
C2779 C2778 1.327 . S
C2779 C2783 1.429 . S
C2780 C2763 1.574 . S
C2780 H2774 0.949 . S
C2780 C2784 1.368 . S
C2781 C2762 1.429 . S
C2781 C2775 1.429 . S
C2781 C2782 1.523 . S
C2782 C2763 1.368 . S
C2782 C2776 1.368 . S
C2782 C2781 1.523 . S
C2783 C2767 1.429 . S
C2783 C2779 1.429 . S
C2783 C2784 1.523 . S
C2784 C2768 1.368 . S
C2784 C2780 1.368 . S
C2784 C2783 1.523 . S
H2785 C2760 0.950 . S
H2786 C2762 0.950 . S
H2787 C2763 0.949 . S
H2788 C2765 0.950 . S
H2789 C2767 0.950 . S
C2790 C2791 1.349 . S
C2790 C2792 1.327 . S
C2790 H2815 0.950 . S
C2791 C2790 1.349 . S
C2791 C2807 1.349 . S
C2792 C2790 1.327 . S
C2792 C2811 1.429 . S
C2792 H2816 0.950 . S
C2793 C2810 1.574 . S
C2793 C2812 1.368 . S
C2793 H2817 0.949 . S
H2794 C2798 0.949 . S
C2795 C2796 1.349 . S
C2795 C2797 1.327 . S
C2795 H2818 0.950 . S
C2796 C2795 1.349 . S
C2796 C2808 1.349 . S
C2797 C2795 1.327 . S
C2797 C2813 1.429 . S
C2797 H2819 0.950 . S
C2798 H2794 0.949 . S
C2798 C2806 1.574 . S
C2798 C2814 1.368 . S
H2799 C2807 0.950 . S
H2800 C2805 0.950 . S
H2801 C2806 0.949 . S
H2802 C2808 0.950 . S
H2803 C2809 0.950 . S
H2804 C2810 0.949 . S
C2805 H2800 0.950 . S
C2805 C2807 1.327 . S
C2805 C2811 1.429 . S
C2806 C2798 1.574 . S
C2806 H2801 0.949 . S
C2806 C2812 1.368 . S
C2807 C2791 1.349 . S
C2807 H2799 0.950 . S
C2807 C2805 1.327 . S
C2808 C2796 1.349 . S
C2808 H2802 0.950 . S
C2808 C2809 1.327 . S
C2809 H2803 0.950 . S
C2809 C2808 1.327 . S
C2809 C2813 1.429 . S
C2810 C2793 1.574 . S
C2810 H2804 0.949 . S
C2810 C2814 1.368 . S
C2811 C2792 1.429 . S
C2811 C2805 1.429 . S
C2811 C2812 1.523 . S
C2812 C2793 1.368 . S
C2812 C2806 1.368 . S
C2812 C2811 1.523 . S
C2813 C2797 1.429 . S
C2813 C2809 1.429 . S
C2813 C2814 1.523 . S
C2814 C2798 1.368 . S
C2814 C2810 1.368 . S
C2814 C2813 1.523 . S
H2815 C2790 0.950 . S
H2816 C2792 0.950 . S
H2817 C2793 0.949 . S
H2818 C2795 0.950 . S
H2819 C2797 0.950 . S
C2820 C2821 1.349 . S
C2820 C2822 1.327 . S
C2820 H2845 0.950 . S
C2821 C2820 1.349 . S
C2821 C2837 1.349 1_455 S
C2822 C2820 1.327 . S
C2822 C2841 1.429 . S
C2822 H2846 0.950 . S
C2823 C2840 1.574 . S
C2823 C2842 1.368 1_655 S
C2823 H2847 0.949 . S
H2824 C2828 0.949 . S
C2825 C2826 1.363 . S
C2825 C2827 1.325 1_455 S
C2825 H2848 0.938 1_455 S
C2826 C2825 1.363 . S
C2826 C2838 1.349 . S
C2827 C2825 1.325 1_655 S
C2827 C2843 1.413 1_655 S
C2827 H2849 0.969 . S
C2828 H2824 0.949 . S
C2828 C2836 1.574 . S
C2828 C2844 1.368 . S
H2829 C2837 0.950 . S
H2830 C2835 0.950 . S
H2831 C2836 0.949 . S
H2832 C2838 0.950 . S
H2833 C2839 0.950 . S
H2834 C2840 0.949 . S
C2835 H2830 0.950 . S
C2835 C2837 1.327 . S
C2835 C2841 1.429 1_655 S
C2836 C2828 1.574 . S
C2836 H2831 0.949 . S
C2836 C2842 1.368 . S
C2837 C2821 1.349 1_655 S
C2837 H2829 0.950 . S
C2837 C2835 1.327 . S
C2838 C2826 1.349 . S
C2838 H2832 0.950 . S
C2838 C2839 1.327 . S
C2839 H2833 0.950 . S
C2839 C2838 1.327 . S
C2839 C2843 1.429 . S
C2840 C2823 1.574 . S
C2840 H2834 0.949 . S
C2840 C2844 1.368 1_655 S
C2841 C2822 1.429 . S
C2841 C2835 1.429 1_455 S
C2841 C2842 1.523 . S
C2842 C2823 1.368 1_455 S
C2842 C2836 1.368 . S
C2842 C2841 1.523 . S
C2843 C2827 1.413 1_455 S
C2843 C2839 1.429 . S
C2843 C2844 1.523 . S
C2844 C2828 1.368 . S
C2844 C2840 1.368 1_455 S
C2844 C2843 1.523 . S
H2845 C2820 0.950 . S
H2846 C2822 0.950 . S
H2847 C2823 0.949 . S
H2848 C2825 0.938 1_655 S
H2849 C2827 0.969 . S
C2850 C2851 1.349 . S
C2850 C2852 1.327 . S
C2850 H2875 0.950 . S
C2851 C2850 1.349 . S
C2851 C2867 1.349 . S
C2852 C2850 1.327 . S
C2852 C2871 1.429 . S
C2852 H2876 0.950 . S
C2853 C2870 1.574 . S
C2853 C2872 1.368 . S
C2853 H2877 0.949 . S
H2854 C2858 0.949 . S
C2855 C2856 1.349 . S
C2855 C2857 1.327 . S
C2855 H2878 0.950 . S
C2856 C2855 1.349 . S
C2856 C2868 1.349 . S
C2857 C2855 1.327 . S
C2857 C2873 1.429 . S
C2857 H2879 0.950 . S
C2858 H2854 0.949 . S
C2858 C2866 1.574 . S
C2858 C2874 1.368 . S
H2859 C2867 0.950 . S
H2860 C2865 0.950 . S
H2861 C2866 0.949 . S
H2862 C2868 0.950 . S
H2863 C2869 0.950 . S
H2864 C2870 0.949 . S
C2865 H2860 0.950 . S
C2865 C2867 1.327 . S
C2865 C2871 1.429 . S
C2866 C2858 1.574 . S
C2866 H2861 0.949 . S
C2866 C2872 1.368 . S
C2867 C2851 1.349 . S
C2867 H2859 0.950 . S
C2867 C2865 1.327 . S
C2868 C2856 1.349 . S
C2868 H2862 0.950 . S
C2868 C2869 1.327 . S
C2869 H2863 0.950 . S
C2869 C2868 1.327 . S
C2869 C2873 1.429 . S
C2870 C2853 1.574 . S
C2870 H2864 0.949 . S
C2870 C2874 1.368 . S
C2871 C2852 1.429 . S
C2871 C2865 1.429 . S
C2871 C2872 1.523 . S
C2872 C2853 1.368 . S
C2872 C2866 1.368 . S
C2872 C2871 1.523 . S
C2873 C2857 1.429 . S
C2873 C2869 1.429 . S
C2873 C2874 1.523 . S
C2874 C2858 1.368 . S
C2874 C2870 1.368 . S
C2874 C2873 1.523 . S
H2875 C2850 0.950 . S
H2876 C2852 0.950 . S
H2877 C2853 0.949 . S
H2878 C2855 0.950 . S
H2879 C2857 0.950 . S
C2880 C2881 1.349 . S
C2880 C2882 1.327 . S
C2880 H2905 0.950 . S
C2881 C2880 1.349 . S
C2881 C2897 1.349 . S
C2882 C2880 1.327 . S
C2882 C2901 1.429 . S
C2882 H2906 0.950 . S
C2883 C2900 1.574 . S
C2883 C2902 1.368 . S
C2883 H2907 0.949 . S
H2884 C2888 0.949 . S
C2885 C2886 1.349 . S
C2885 C2887 1.327 . S
C2885 H2908 0.950 . S
C2886 C2885 1.349 . S
C2886 C2898 1.349 . S
C2887 C2885 1.327 . S
C2887 C2903 1.429 . S
C2887 H2909 0.950 . S
C2888 H2884 0.949 . S
C2888 C2896 1.574 . S
C2888 C2904 1.368 . S
H2889 C2897 0.950 . S
H2890 C2895 0.950 . S
H2891 C2896 0.949 . S
H2892 C2898 0.950 . S
H2893 C2899 0.950 . S
H2894 C2900 0.949 . S
C2895 H2890 0.950 . S
C2895 C2897 1.327 . S
C2895 C2901 1.429 . S
C2896 C2888 1.574 . S
C2896 H2891 0.949 . S
C2896 C2902 1.368 . S
C2897 C2881 1.349 . S
C2897 H2889 0.950 . S
C2897 C2895 1.327 . S
C2898 C2886 1.349 . S
C2898 H2892 0.950 . S
C2898 C2899 1.327 . S
C2899 H2893 0.950 . S
C2899 C2898 1.327 . S
C2899 C2903 1.429 . S
C2900 C2883 1.574 . S
C2900 H2894 0.949 . S
C2900 C2904 1.368 . S
C2901 C2882 1.429 . S
C2901 C2895 1.429 . S
C2901 C2902 1.523 . S
C2902 C2883 1.368 . S
C2902 C2896 1.368 . S
C2902 C2901 1.523 . S
C2903 C2887 1.429 . S
C2903 C2899 1.429 . S
C2903 C2904 1.523 . S
C2904 C2888 1.368 . S
C2904 C2900 1.368 . S
C2904 C2903 1.523 . S
H2905 C2880 0.950 . S
H2906 C2882 0.950 . S
H2907 C2883 0.949 . S
H2908 C2885 0.950 . S
H2909 C2887 0.950 . S
C2910 C2911 1.349 . S
C2910 C2912 1.327 . S
C2910 H2935 0.950 . S
C2911 C2910 1.349 . S
C2911 C2927 1.349 . S
C2912 C2910 1.327 . S
C2912 C2931 1.429 . S
C2912 H2936 0.950 . S
C2913 C2930 1.574 . S
C2913 C2932 1.368 . S
C2913 H2937 0.949 . S
H2914 C2918 0.949 . S
C2915 C2916 1.349 . S
C2915 C2917 1.327 . S
C2915 H2938 0.950 . S
C2916 C2915 1.349 . S
C2916 C2928 1.349 . S
C2917 C2915 1.327 . S
C2917 C2933 1.429 . S
C2917 H2939 0.950 . S
C2918 H2914 0.949 . S
C2918 C2926 1.574 . S
C2918 C2934 1.368 . S
H2919 C2927 0.950 . S
H2920 C2925 0.950 . S
H2921 C2926 0.949 . S
H2922 C2928 0.950 . S
H2923 C2929 0.950 . S
H2924 C2930 0.949 . S
C2925 H2920 0.950 . S
C2925 C2927 1.327 . S
C2925 C2931 1.429 . S
C2926 C2918 1.574 . S
C2926 H2921 0.949 . S
C2926 C2932 1.368 . S
C2927 C2911 1.349 . S
C2927 H2919 0.950 . S
C2927 C2925 1.327 . S
C2928 C2916 1.349 . S
C2928 H2922 0.950 . S
C2928 C2929 1.327 . S
C2929 H2923 0.950 . S
C2929 C2928 1.327 . S
C2929 C2933 1.429 . S
C2930 C2913 1.574 . S
C2930 H2924 0.949 . S
C2930 C2934 1.368 . S
C2931 C2912 1.429 . S
C2931 C2925 1.429 . S
C2931 C2932 1.523 . S
C2932 C2913 1.368 . S
C2932 C2926 1.368 . S
C2932 C2931 1.523 . S
C2933 C2917 1.429 . S
C2933 C2929 1.429 . S
C2933 C2934 1.523 . S
C2934 C2918 1.368 . S
C2934 C2930 1.368 . S
C2934 C2933 1.523 . S
H2935 C2910 0.950 . S
H2936 C2912 0.950 . S
H2937 C2913 0.949 . S
H2938 C2915 0.950 . S
H2939 C2917 0.950 . S
C2940 C2941 1.349 . S
C2940 C2942 1.327 . S
C2940 H2965 0.950 . S
C2941 C2940 1.349 . S
C2941 C2957 1.349 . S
C2942 C2940 1.327 . S
C2942 C2961 1.429 . S
C2942 H2966 0.950 . S
C2943 C2960 1.574 . S
C2943 C2962 1.368 . S
C2943 H2967 0.949 . S
H2944 C2948 0.949 . S
C2945 C2946 1.349 . S
C2945 C2947 1.327 . S
C2945 H2968 0.950 . S
C2946 C2945 1.349 . S
C2946 C2958 1.349 . S
C2947 C2945 1.327 . S
C2947 C2963 1.429 . S
C2947 H2969 0.950 . S
C2948 H2944 0.949 . S
C2948 C2956 1.574 . S
C2948 C2964 1.368 . S
H2949 C2957 0.950 . S
H2950 C2955 0.950 . S
H2951 C2956 0.949 . S
H2952 C2958 0.950 . S
H2953 C2959 0.950 . S
H2954 C2960 0.949 . S
C2955 H2950 0.950 . S
C2955 C2957 1.327 . S
C2955 C2961 1.429 . S
C2956 C2948 1.574 . S
C2956 H2951 0.949 . S
C2956 C2962 1.368 . S
C2957 C2941 1.349 . S
C2957 H2949 0.950 . S
C2957 C2955 1.327 . S
C2958 C2946 1.349 . S
C2958 H2952 0.950 . S
C2958 C2959 1.327 . S
C2959 H2953 0.950 . S
C2959 C2958 1.327 . S
C2959 C2963 1.429 . S
C2960 C2943 1.574 . S
C2960 H2954 0.949 . S
C2960 C2964 1.368 . S
C2961 C2942 1.429 . S
C2961 C2955 1.429 . S
C2961 C2962 1.523 . S
C2962 C2943 1.368 . S
C2962 C2956 1.368 . S
C2962 C2961 1.523 . S
C2963 C2947 1.429 . S
C2963 C2959 1.429 . S
C2963 C2964 1.523 . S
C2964 C2948 1.368 . S
C2964 C2960 1.368 . S
C2964 C2963 1.523 . S
H2965 C2940 0.950 . S
H2966 C2942 0.950 . S
H2967 C2943 0.949 . S
H2968 C2945 0.950 . S
H2969 C2947 0.950 . S
C2970 C2971 1.349 . S
C2970 C2972 1.327 . S
C2970 H2995 0.950 . S
C2971 C2970 1.349 . S
C2971 C2987 1.349 . S
C2972 C2970 1.327 . S
C2972 C2991 1.429 . S
C2972 H2996 0.950 . S
C2973 C2990 1.574 . S
C2973 C2992 1.368 . S
C2973 H2997 0.949 . S
H2974 C2978 0.949 . S
C2975 C2976 1.349 . S
C2975 C2977 1.327 . S
C2975 H2998 0.950 . S
C2976 C2975 1.349 . S
C2976 C2988 1.349 . S
C2977 C2975 1.327 . S
C2977 C2993 1.429 . S
C2977 H2999 0.950 . S
C2978 H2974 0.949 . S
C2978 C2986 1.574 . S
C2978 C2994 1.368 . S
H2979 C2987 0.950 . S
H2980 C2985 0.950 . S
H2981 C2986 0.949 . S
H2982 C2988 0.950 . S
H2983 C2989 0.950 . S
H2984 C2990 0.949 . S
C2985 H2980 0.950 . S
C2985 C2987 1.327 . S
C2985 C2991 1.429 . S
C2986 C2978 1.574 . S
C2986 H2981 0.949 . S
C2986 C2992 1.368 . S
C2987 C2971 1.349 . S
C2987 H2979 0.950 . S
C2987 C2985 1.327 . S
C2988 C2976 1.349 . S
C2988 H2982 0.950 . S
C2988 C2989 1.327 . S
C2989 H2983 0.950 . S
C2989 C2988 1.327 . S
C2989 C2993 1.429 . S
C2990 C2973 1.574 . S
C2990 H2984 0.949 . S
C2990 C2994 1.368 . S
C2991 C2972 1.429 . S
C2991 C2985 1.429 . S
C2991 C2992 1.523 . S
C2992 C2973 1.368 . S
C2992 C2986 1.368 . S
C2992 C2991 1.523 . S
C2993 C2977 1.429 . S
C2993 C2989 1.429 . S
C2993 C2994 1.523 . S
C2994 C2978 1.368 . S
C2994 C2990 1.368 . S
C2994 C2993 1.523 . S
H2995 C2970 0.950 . S
H2996 C2972 0.950 . S
H2997 C2973 0.949 . S
H2998 C2975 0.950 . S
H2999 C2977 0.950 . S
C3000 C3001 1.349 . S
C3000 C3002 1.327 . S
C3000 H3025 0.950 . S
C3001 C3000 1.349 . S
C3001 C3017 1.349 . S
C3002 C3000 1.327 . S
C3002 C3021 1.429 . S
C3002 H3026 0.950 . S
C3003 C3020 1.574 . S
C3003 C3022 1.368 . S
C3003 H3027 0.949 . S
H3004 C3008 0.949 . S
C3005 C3006 1.349 . S
C3005 C3007 1.327 . S
C3005 H3028 0.950 . S
C3006 C3005 1.349 . S
C3006 C3018 1.349 . S
C3007 C3005 1.327 . S
C3007 C3023 1.429 . S
C3007 H3029 0.950 . S
C3008 H3004 0.949 . S
C3008 C3016 1.574 . S
C3008 C3024 1.368 . S
H3009 C3017 0.950 . S
H3010 C3015 0.950 . S
H3011 C3016 0.949 . S
H3012 C3018 0.950 . S
H3013 C3019 0.950 . S
H3014 C3020 0.949 . S
C3015 H3010 0.950 . S
C3015 C3017 1.327 . S
C3015 C3021 1.429 . S
C3016 C3008 1.574 . S
C3016 H3011 0.949 . S
C3016 C3022 1.368 . S
C3017 C3001 1.349 . S
C3017 H3009 0.950 . S
C3017 C3015 1.327 . S
C3018 C3006 1.349 . S
C3018 H3012 0.950 . S
C3018 C3019 1.327 . S
C3019 H3013 0.950 . S
C3019 C3018 1.327 . S
C3019 C3023 1.429 . S
C3020 C3003 1.574 . S
C3020 H3014 0.949 . S
C3020 C3024 1.368 . S
C3021 C3002 1.429 . S
C3021 C3015 1.429 . S
C3021 C3022 1.523 . S
C3022 C3003 1.368 . S
C3022 C3016 1.368 . S
C3022 C3021 1.523 . S
C3023 C3007 1.429 . S
C3023 C3019 1.429 . S
C3023 C3024 1.523 . S
C3024 C3008 1.368 . S
C3024 C3020 1.368 . S
C3024 C3023 1.523 . S
H3025 C3000 0.950 . S
H3026 C3002 0.950 . S
H3027 C3003 0.949 . S
H3028 C3005 0.950 . S
H3029 C3007 0.950 . S
C3030 C3031 1.349 . S
C3030 C3032 1.327 . S
C3030 H3055 0.950 . S
C3031 C3030 1.349 . S
C3031 C3047 1.349 . S
C3032 C3030 1.327 . S
C3032 C3051 1.429 . S
C3032 H3056 0.950 . S
C3033 C3050 1.574 . S
C3033 C3052 1.368 . S
C3033 H3057 0.949 . S
H3034 C3038 0.949 . S
C3035 C3036 1.349 . S
C3035 C3037 1.327 . S
C3035 H3058 0.950 . S
C3036 C3035 1.349 . S
C3036 C3048 1.349 . S
C3037 C3035 1.327 . S
C3037 C3053 1.429 . S
C3037 H3059 0.950 . S
C3038 H3034 0.949 . S
C3038 C3046 1.574 . S
C3038 C3054 1.368 . S
H3039 C3047 0.950 . S
H3040 C3045 0.950 . S
H3041 C3046 0.949 . S
H3042 C3048 0.950 . S
H3043 C3049 0.950 . S
H3044 C3050 0.949 . S
C3045 H3040 0.950 . S
C3045 C3047 1.327 . S
C3045 C3051 1.429 . S
C3046 C3038 1.574 . S
C3046 H3041 0.949 . S
C3046 C3052 1.368 . S
C3047 C3031 1.349 . S
C3047 H3039 0.950 . S
C3047 C3045 1.327 . S
C3048 C3036 1.349 . S
C3048 H3042 0.950 . S
C3048 C3049 1.327 . S
C3049 H3043 0.950 . S
C3049 C3048 1.327 . S
C3049 C3053 1.429 . S
C3050 C3033 1.574 . S
C3050 H3044 0.949 . S
C3050 C3054 1.368 . S
C3051 C3032 1.429 . S
C3051 C3045 1.429 . S
C3051 C3052 1.523 . S
C3052 C3033 1.368 . S
C3052 C3046 1.368 . S
C3052 C3051 1.523 . S
C3053 C3037 1.429 . S
C3053 C3049 1.429 . S
C3053 C3054 1.523 . S
C3054 C3038 1.368 . S
C3054 C3050 1.368 . S
C3054 C3053 1.523 . S
H3055 C3030 0.950 . S
H3056 C3032 0.950 . S
H3057 C3033 0.949 . S
H3058 C3035 0.950 . S
H3059 C3037 0.950 . S
C3060 C3061 1.349 . S
C3060 C3062 1.327 . S
C3060 H3085 0.950 . S
C3061 C3060 1.349 . S
C3061 C3077 1.349 . S
C3062 C3060 1.327 . S
C3062 C3081 1.429 . S
C3062 H3086 0.950 . S
C3063 C3080 1.574 . S
C3063 C3082 1.368 . S
C3063 H3087 0.949 . S
H3064 C3068 0.949 . S
C3065 C3066 1.349 . S
C3065 C3067 1.327 . S
C3065 H3088 0.950 . S
C3066 C3065 1.349 . S
C3066 C3078 1.349 . S
C3067 C3065 1.327 . S
C3067 C3083 1.429 . S
C3067 H3089 0.950 . S
C3068 H3064 0.949 . S
C3068 C3076 1.574 . S
C3068 C3084 1.368 . S
H3069 C3077 0.950 . S
H3070 C3075 0.950 . S
H3071 C3076 0.949 . S
H3072 C3078 0.950 . S
H3073 C3079 0.950 . S
H3074 C3080 0.949 . S
C3075 H3070 0.950 . S
C3075 C3077 1.327 . S
C3075 C3081 1.429 . S
C3076 C3068 1.574 . S
C3076 H3071 0.949 . S
C3076 C3082 1.368 . S
C3077 C3061 1.349 . S
C3077 H3069 0.950 . S
C3077 C3075 1.327 . S
C3078 C3066 1.349 . S
C3078 H3072 0.950 . S
C3078 C3079 1.327 . S
C3079 H3073 0.950 . S
C3079 C3078 1.327 . S
C3079 C3083 1.429 . S
C3080 C3063 1.574 . S
C3080 H3074 0.949 . S
C3080 C3084 1.368 . S
C3081 C3062 1.429 . S
C3081 C3075 1.429 . S
C3081 C3082 1.523 . S
C3082 C3063 1.368 . S
C3082 C3076 1.368 . S
C3082 C3081 1.523 . S
C3083 C3067 1.429 . S
C3083 C3079 1.429 . S
C3083 C3084 1.523 . S
C3084 C3068 1.368 . S
C3084 C3080 1.368 . S
C3084 C3083 1.523 . S
H3085 C3060 0.950 . S
H3086 C3062 0.950 . S
H3087 C3063 0.949 . S
H3088 C3065 0.950 . S
H3089 C3067 0.950 . S
C3090 C3091 1.349 . S
C3090 C3092 1.327 . S
C3090 H3115 0.950 . S
C3091 C3090 1.349 . S
C3091 C3107 1.349 . S
C3092 C3090 1.327 . S
C3092 C3111 1.429 . S
C3092 H3116 0.950 . S
C3093 C3110 1.574 . S
C3093 C3112 1.368 . S
C3093 H3117 0.949 . S
H3094 C3098 0.949 . S
C3095 C3096 1.349 . S
C3095 C3097 1.327 . S
C3095 H3118 0.950 . S
C3096 C3095 1.349 . S
C3096 C3108 1.349 . S
C3097 C3095 1.327 . S
C3097 C3113 1.429 . S
C3097 H3119 0.950 . S
C3098 H3094 0.949 . S
C3098 C3106 1.574 . S
C3098 C3114 1.368 . S
H3099 C3107 0.950 . S
H3100 C3105 0.950 . S
H3101 C3106 0.949 . S
H3102 C3108 0.950 . S
H3103 C3109 0.950 . S
H3104 C3110 0.949 . S
C3105 H3100 0.950 . S
C3105 C3107 1.327 . S
C3105 C3111 1.429 . S
C3106 C3098 1.574 . S
C3106 H3101 0.949 . S
C3106 C3112 1.368 . S
C3107 C3091 1.349 . S
C3107 H3099 0.950 . S
C3107 C3105 1.327 . S
C3108 C3096 1.349 . S
C3108 H3102 0.950 . S
C3108 C3109 1.327 . S
C3109 H3103 0.950 . S
C3109 C3108 1.327 . S
C3109 C3113 1.429 . S
C3110 C3093 1.574 . S
C3110 H3104 0.949 . S
C3110 C3114 1.368 . S
C3111 C3092 1.429 . S
C3111 C3105 1.429 . S
C3111 C3112 1.523 . S
C3112 C3093 1.368 . S
C3112 C3106 1.368 . S
C3112 C3111 1.523 . S
C3113 C3097 1.429 . S
C3113 C3109 1.429 . S
C3113 C3114 1.523 . S
C3114 C3098 1.368 . S
C3114 C3110 1.368 . S
C3114 C3113 1.523 . S
H3115 C3090 0.950 . S
H3116 C3092 0.950 . S
H3117 C3093 0.949 . S
H3118 C3095 0.950 . S
H3119 C3097 0.950 . S
C3120 C3121 1.349 . S
C3120 C3122 1.327 . S
C3120 H3145 0.950 . S
C3121 C3120 1.349 . S
C3121 C3137 1.349 . S
C3122 C3120 1.327 . S
C3122 C3141 1.429 . S
C3122 H3146 0.950 . S
C3123 C3140 1.574 . S
C3123 C3142 1.368 . S
C3123 H3147 0.949 . S
H3124 C3128 0.949 . S
C3125 C3126 1.349 . S
C3125 C3127 1.327 . S
C3125 H3148 0.950 . S
C3126 C3125 1.349 . S
C3126 C3138 1.349 . S
C3127 C3125 1.327 . S
C3127 C3143 1.429 . S
C3127 H3149 0.950 . S
C3128 H3124 0.949 . S
C3128 C3136 1.574 . S
C3128 C3144 1.368 . S
H3129 C3137 0.950 . S
H3130 C3135 0.950 . S
H3131 C3136 0.949 . S
H3132 C3138 0.950 . S
H3133 C3139 0.950 . S
H3134 C3140 0.949 . S
C3135 H3130 0.950 . S
C3135 C3137 1.327 . S
C3135 C3141 1.429 . S
C3136 C3128 1.574 . S
C3136 H3131 0.949 . S
C3136 C3142 1.368 . S
C3137 C3121 1.349 . S
C3137 H3129 0.950 . S
C3137 C3135 1.327 . S
C3138 C3126 1.349 . S
C3138 H3132 0.950 . S
C3138 C3139 1.327 . S
C3139 H3133 0.950 . S
C3139 C3138 1.327 . S
C3139 C3143 1.429 . S
C3140 C3123 1.574 . S
C3140 H3134 0.949 . S
C3140 C3144 1.368 . S
C3141 C3122 1.429 . S
C3141 C3135 1.429 . S
C3141 C3142 1.523 . S
C3142 C3123 1.368 . S
C3142 C3136 1.368 . S
C3142 C3141 1.523 . S
C3143 C3127 1.429 . S
C3143 C3139 1.429 . S
C3143 C3144 1.523 . S
C3144 C3128 1.368 . S
C3144 C3140 1.368 . S
C3144 C3143 1.523 . S
H3145 C3120 0.950 . S
H3146 C3122 0.950 . S
H3147 C3123 0.949 . S
H3148 C3125 0.950 . S
H3149 C3127 0.950 . S
C3150 C3151 1.349 . S
C3150 C3152 1.327 . S
C3150 H3175 0.950 . S
C3151 C3150 1.349 . S
C3151 C3167 1.349 . S
C3152 C3150 1.327 . S
C3152 C3171 1.429 . S
C3152 H3176 0.950 . S
C3153 C3170 1.574 . S
C3153 C3172 1.368 . S
C3153 H3177 0.949 . S
H3154 C3158 0.949 . S
C3155 C3156 1.349 . S
C3155 C3157 1.327 . S
C3155 H3178 0.950 . S
C3156 C3155 1.349 . S
C3156 C3168 1.349 . S
C3157 C3155 1.327 . S
C3157 C3173 1.429 . S
C3157 H3179 0.950 . S
C3158 H3154 0.949 . S
C3158 C3166 1.574 . S
C3158 C3174 1.368 . S
H3159 C3167 0.950 . S
H3160 C3165 0.950 . S
H3161 C3166 0.949 . S
H3162 C3168 0.950 . S
H3163 C3169 0.950 . S
H3164 C3170 0.949 . S
C3165 H3160 0.950 . S
C3165 C3167 1.327 . S
C3165 C3171 1.429 . S
C3166 C3158 1.574 . S
C3166 H3161 0.949 . S
C3166 C3172 1.368 . S
C3167 C3151 1.349 . S
C3167 H3159 0.950 . S
C3167 C3165 1.327 . S
C3168 C3156 1.349 . S
C3168 H3162 0.950 . S
C3168 C3169 1.327 . S
C3169 H3163 0.950 . S
C3169 C3168 1.327 . S
C3169 C3173 1.429 . S
C3170 C3153 1.574 . S
C3170 H3164 0.949 . S
C3170 C3174 1.368 . S
C3171 C3152 1.429 . S
C3171 C3165 1.429 . S
C3171 C3172 1.523 . S
C3172 C3153 1.368 . S
C3172 C3166 1.368 . S
C3172 C3171 1.523 . S
C3173 C3157 1.429 . S
C3173 C3169 1.429 . S
C3173 C3174 1.523 . S
C3174 C3158 1.368 . S
C3174 C3170 1.368 . S
C3174 C3173 1.523 . S
H3175 C3150 0.950 . S
H3176 C3152 0.950 . S
H3177 C3153 0.949 . S
H3178 C3155 0.950 . S
H3179 C3157 0.950 . S
C3180 C3181 1.349 . S
C3180 C3182 1.327 . S
C3180 H3205 0.950 . S
C3181 C3180 1.349 . S
C3181 C3197 1.349 . S
C3182 C3180 1.327 . S
C3182 C3201 1.429 . S
C3182 H3206 0.950 . S
C3183 C3200 1.574 . S
C3183 C3202 1.368 . S
C3183 H3207 0.949 . S
H3184 C3188 0.949 . S
C3185 C3186 1.349 . S
C3185 C3187 1.327 . S
C3185 H3208 0.950 . S
C3186 C3185 1.349 . S
C3186 C3198 1.349 . S
C3187 C3185 1.327 . S
C3187 C3203 1.429 . S
C3187 H3209 0.950 . S
C3188 H3184 0.949 . S
C3188 C3196 1.574 . S
C3188 C3204 1.368 . S
H3189 C3197 0.950 . S
H3190 C3195 0.950 . S
H3191 C3196 0.949 . S
H3192 C3198 0.950 . S
H3193 C3199 0.950 . S
H3194 C3200 0.949 . S
C3195 H3190 0.950 . S
C3195 C3197 1.327 . S
C3195 C3201 1.429 . S
C3196 C3188 1.574 . S
C3196 H3191 0.949 . S
C3196 C3202 1.368 . S
C3197 C3181 1.349 . S
C3197 H3189 0.950 . S
C3197 C3195 1.327 . S
C3198 C3186 1.349 . S
C3198 H3192 0.950 . S
C3198 C3199 1.327 . S
C3199 H3193 0.950 . S
C3199 C3198 1.327 . S
C3199 C3203 1.429 . S
C3200 C3183 1.574 . S
C3200 H3194 0.949 . S
C3200 C3204 1.368 . S
C3201 C3182 1.429 . S
C3201 C3195 1.429 . S
C3201 C3202 1.523 . S
C3202 C3183 1.368 . S
C3202 C3196 1.368 . S
C3202 C3201 1.523 . S
C3203 C3187 1.429 . S
C3203 C3199 1.429 . S
C3203 C3204 1.523 . S
C3204 C3188 1.368 . S
C3204 C3200 1.368 . S
C3204 C3203 1.523 . S
H3205 C3180 0.950 . S
H3206 C3182 0.950 . S
H3207 C3183 0.949 . S
H3208 C3185 0.950 . S
H3209 C3187 0.950 . S
C3210 C3211 1.349 . S
C3210 C3212 1.327 . S
C3210 H3235 0.950 . S
C3211 C3210 1.349 . S
C3211 C3227 1.349 1_554 S
C3212 C3210 1.327 . S
C3212 C3231 1.429 . S
C3212 H3236 0.950 . S
C3213 C3230 1.574 . S
C3213 C3232 1.368 1_556 S
C3213 H3237 0.949 . S
H3214 C3218 0.949 . S
C3215 C3216 1.349 1_556 S
C3215 C3217 1.327 . S
C3215 H3238 0.950 . S
C3216 C3215 1.349 1_554 S
C3216 C3228 1.349 . S
C3217 C3215 1.327 . S
C3217 C3233 1.429 1_556 S
C3217 H3239 0.950 . S
C3218 H3214 0.949 . S
C3218 C3226 1.574 . S
C3218 C3234 1.368 . S
H3219 C3227 0.950 . S
H3220 C3225 0.950 . S
H3221 C3226 0.949 . S
H3222 C3228 0.950 . S
H3223 C3229 0.950 . S
H3224 C3230 0.949 . S
C3225 H3220 0.950 . S
C3225 C3227 1.327 . S
C3225 C3231 1.429 1_556 S
C3226 C3218 1.574 . S
C3226 H3221 0.949 . S
C3226 C3232 1.368 . S
C3227 C3211 1.349 1_556 S
C3227 H3219 0.950 . S
C3227 C3225 1.327 . S
C3228 C3216 1.349 . S
C3228 H3222 0.950 . S
C3228 C3229 1.327 . S
C3229 H3223 0.950 . S
C3229 C3228 1.327 . S
C3229 C3233 1.429 . S
C3230 C3213 1.574 . S
C3230 H3224 0.949 . S
C3230 C3234 1.368 1_556 S
C3231 C3212 1.429 . S
C3231 C3225 1.429 1_554 S
C3231 C3232 1.523 . S
C3232 C3213 1.368 1_554 S
C3232 C3226 1.368 . S
C3232 C3231 1.523 . S
C3233 C3217 1.429 1_554 S
C3233 C3229 1.429 . S
C3233 C3234 1.523 . S
C3234 C3218 1.368 . S
C3234 C3230 1.368 1_554 S
C3234 C3233 1.523 . S
H3235 C3210 0.950 . S
H3236 C3212 0.950 . S
H3237 C3213 0.949 . S
H3238 C3215 0.950 . S
H3239 C3217 0.950 . S
C3240 C3241 1.349 . S
C3240 C3242 1.327 . S
C3240 H3265 0.950 . S
C3241 C3240 1.349 . S
C3241 C3257 1.349 . S
C3242 C3240 1.327 . S
C3242 C3261 1.429 . S
C3242 H3266 0.950 . S
C3243 C3260 1.574 . S
C3243 C3262 1.368 . S
C3243 H3267 0.949 . S
H3244 C3248 0.949 . S
C3245 C3246 1.349 . S
C3245 C3247 1.327 . S
C3245 H3268 0.950 . S
C3246 C3245 1.349 . S
C3246 C3258 1.349 . S
C3247 C3245 1.327 . S
C3247 C3263 1.429 . S
C3247 H3269 0.950 . S
C3248 H3244 0.949 . S
C3248 C3256 1.574 . S
C3248 C3264 1.368 . S
H3249 C3257 0.950 . S
H3250 C3255 0.950 . S
H3251 C3256 0.949 . S
H3252 C3258 0.950 . S
H3253 C3259 0.950 . S
H3254 C3260 0.949 . S
C3255 H3250 0.950 . S
C3255 C3257 1.327 . S
C3255 C3261 1.429 . S
C3256 C3248 1.574 . S
C3256 H3251 0.949 . S
C3256 C3262 1.368 . S
C3257 C3241 1.349 . S
C3257 H3249 0.950 . S
C3257 C3255 1.327 . S
C3258 C3246 1.349 . S
C3258 H3252 0.950 . S
C3258 C3259 1.327 . S
C3259 H3253 0.950 . S
C3259 C3258 1.327 . S
C3259 C3263 1.429 . S
C3260 C3243 1.574 . S
C3260 H3254 0.949 . S
C3260 C3264 1.368 . S
C3261 C3242 1.429 . S
C3261 C3255 1.429 . S
C3261 C3262 1.523 . S
C3262 C3243 1.368 . S
C3262 C3256 1.368 . S
C3262 C3261 1.523 . S
C3263 C3247 1.429 . S
C3263 C3259 1.429 . S
C3263 C3264 1.523 . S
C3264 C3248 1.368 . S
C3264 C3260 1.368 . S
C3264 C3263 1.523 . S
H3265 C3240 0.950 . S
H3266 C3242 0.950 . S
H3267 C3243 0.949 . S
H3268 C3245 0.950 . S
H3269 C3247 0.950 . S
C3270 C3271 1.349 . S
C3270 C3272 1.327 . S
C3270 H3295 0.950 . S
C3271 C3270 1.349 . S
C3271 C3287 1.349 1_554 S
C3272 C3270 1.327 . S
C3272 C3291 1.429 . S
C3272 H3296 0.950 . S
C3273 C3290 1.574 . S
C3273 C3292 1.368 1_556 S
C3273 H3297 0.949 . S
H3274 C3278 0.949 . S
C3275 C3276 1.349 . S
C3275 C3277 1.327 . S
C3275 H3298 0.950 . S
C3276 C3275 1.349 . S
C3276 C3288 1.349 1_556 S
C3277 C3275 1.327 . S
C3277 C3293 1.430 . S
C3277 H3299 0.950 . S
C3278 H3274 0.949 . S
C3278 C3286 1.574 . S
C3278 C3294 1.393 . S
H3279 C3287 0.950 . S
H3280 C3285 0.950 . S
H3281 C3286 0.949 . S
H3282 C3288 0.950 . S
H3283 C3289 0.950 . S
H3284 C3290 0.949 . S
C3285 H3280 0.950 . S
C3285 C3287 1.327 . S
C3285 C3291 1.429 1_556 S
C3286 C3278 1.574 . S
C3286 H3281 0.949 . S
C3286 C3292 1.368 . S
C3287 C3271 1.349 1_556 S
C3287 H3279 0.950 . S
C3287 C3285 1.327 . S
C3288 C3276 1.349 1_554 S
C3288 H3282 0.950 . S
C3288 C3289 1.327 . S
C3289 H3283 0.950 . S
C3289 C3288 1.327 . S
C3289 C3293 1.427 1_554 S
C3290 C3273 1.574 . S
C3290 H3284 0.949 . S
C3290 C3294 1.345 1_556 S
C3291 C3272 1.429 . S
C3291 C3285 1.429 1_554 S
C3291 C3292 1.523 . S
C3292 C3273 1.368 1_554 S
C3292 C3286 1.368 . S
C3292 C3291 1.523 . S
C3293 C3277 1.430 . S
C3293 C3289 1.427 1_556 S
C3293 C3294 1.522 1_556 S
C3294 C3278 1.393 . S
C3294 C3290 1.345 1_554 S
C3294 C3293 1.522 1_554 S
H3295 C3270 0.950 . S
H3296 C3272 0.950 . S
H3297 C3273 0.949 . S
H3298 C3275 0.950 . S
H3299 C3277 0.950 . S
C3300 C3301 1.349 . S
C3300 C3302 1.327 . S
C3300 H3325 0.950 . S
C3301 C3300 1.349 . S
C3301 C3317 1.349 . S
C3302 C3300 1.327 . S
C3302 C3321 1.429 . S
C3302 H3326 0.950 . S
C3303 C3320 1.574 . S
C3303 C3322 1.368 . S
C3303 H3327 0.949 . S
H3304 C3308 0.949 . S
C3305 C3306 1.349 . S
C3305 C3307 1.327 . S
C3305 H3328 0.950 . S
C3306 C3305 1.349 . S
C3306 C3318 1.349 . S
C3307 C3305 1.327 . S
C3307 C3323 1.429 . S
C3307 H3329 0.950 . S
C3308 H3304 0.949 . S
C3308 C3316 1.574 . S
C3308 C3324 1.368 . S
H3309 C3317 0.950 . S
H3310 C3315 0.950 . S
H3311 C3316 0.949 . S
H3312 C3318 0.950 . S
H3313 C3319 0.950 . S
H3314 C3320 0.949 . S
C3315 H3310 0.950 . S
C3315 C3317 1.327 . S
C3315 C3321 1.429 . S
C3316 C3308 1.574 . S
C3316 H3311 0.949 . S
C3316 C3322 1.368 . S
C3317 C3301 1.349 . S
C3317 H3309 0.950 . S
C3317 C3315 1.327 . S
C3318 C3306 1.349 . S
C3318 H3312 0.950 . S
C3318 C3319 1.327 . S
C3319 H3313 0.950 . S
C3319 C3318 1.327 . S
C3319 C3323 1.429 . S
C3320 C3303 1.574 . S
C3320 H3314 0.949 . S
C3320 C3324 1.368 . S
C3321 C3302 1.429 . S
C3321 C3315 1.429 . S
C3321 C3322 1.523 . S
C3322 C3303 1.368 . S
C3322 C3316 1.368 . S
C3322 C3321 1.523 . S
C3323 C3307 1.429 . S
C3323 C3319 1.429 . S
C3323 C3324 1.523 . S
C3324 C3308 1.368 . S
C3324 C3320 1.368 . S
C3324 C3323 1.523 . S
H3325 C3300 0.950 . S
H3326 C3302 0.950 . S
H3327 C3303 0.949 . S
H3328 C3305 0.950 . S
H3329 C3307 0.950 . S
C3330 C3331 1.349 . S
C3330 C3332 1.327 . S
C3330 H3355 0.950 . S
C3331 C3330 1.349 . S
C3331 C3347 1.349 . S
C3332 C3330 1.327 . S
C3332 C3351 1.429 . S
C3332 H3356 0.950 . S
C3333 C3350 1.574 . S
C3333 C3352 1.368 . S
C3333 H3357 0.949 . S
H3334 C3338 0.949 . S
C3335 C3336 1.349 . S
C3335 C3337 1.327 . S
C3335 H3358 0.950 . S
C3336 C3335 1.349 . S
C3336 C3348 1.349 . S
C3337 C3335 1.327 . S
C3337 C3353 1.429 . S
C3337 H3359 0.950 . S
C3338 H3334 0.949 . S
C3338 C3346 1.574 . S
C3338 C3354 1.368 . S
H3339 C3347 0.950 . S
H3340 C3345 0.950 . S
H3341 C3346 0.949 . S
H3342 C3348 0.950 . S
H3343 C3349 0.950 . S
H3344 C3350 0.949 . S
C3345 H3340 0.950 . S
C3345 C3347 1.327 . S
C3345 C3351 1.429 . S
C3346 C3338 1.574 . S
C3346 H3341 0.949 . S
C3346 C3352 1.368 . S
C3347 C3331 1.349 . S
C3347 H3339 0.950 . S
C3347 C3345 1.327 . S
C3348 C3336 1.349 . S
C3348 H3342 0.950 . S
C3348 C3349 1.327 . S
C3349 H3343 0.950 . S
C3349 C3348 1.327 . S
C3349 C3353 1.429 . S
C3350 C3333 1.574 . S
C3350 H3344 0.949 . S
C3350 C3354 1.368 . S
C3351 C3332 1.429 . S
C3351 C3345 1.429 . S
C3351 C3352 1.523 . S
C3352 C3333 1.368 . S
C3352 C3346 1.368 . S
C3352 C3351 1.523 . S
C3353 C3337 1.429 . S
C3353 C3349 1.429 . S
C3353 C3354 1.523 . S
C3354 C3338 1.368 . S
C3354 C3350 1.368 . S
C3354 C3353 1.523 . S
H3355 C3330 0.950 . S
H3356 C3332 0.950 . S
H3357 C3333 0.949 . S
H3358 C3335 0.950 . S
H3359 C3337 0.950 . S
C3360 C3361 1.349 . S
C3360 C3362 1.327 . S
C3360 H3385 0.950 . S
C3361 C3360 1.349 . S
C3361 C3377 1.349 . S
C3362 C3360 1.327 . S
C3362 C3381 1.429 . S
C3362 H3386 0.950 . S
C3363 C3380 1.574 . S
C3363 C3382 1.368 . S
C3363 H3387 0.949 . S
H3364 C3368 0.949 . S
C3365 C3366 1.349 . S
C3365 C3367 1.327 . S
C3365 H3388 0.950 . S
C3366 C3365 1.349 . S
C3366 C3378 1.349 . S
C3367 C3365 1.327 . S
C3367 C3383 1.429 . S
C3367 H3389 0.950 . S
C3368 H3364 0.949 . S
C3368 C3376 1.574 . S
C3368 C3384 1.368 . S
H3369 C3377 0.950 . S
H3370 C3375 0.950 . S
H3371 C3376 0.949 . S
H3372 C3378 0.950 . S
H3373 C3379 0.950 . S
H3374 C3380 0.949 . S
C3375 H3370 0.950 . S
C3375 C3377 1.327 . S
C3375 C3381 1.429 . S
C3376 C3368 1.574 . S
C3376 H3371 0.949 . S
C3376 C3382 1.368 . S
C3377 C3361 1.349 . S
C3377 H3369 0.950 . S
C3377 C3375 1.327 . S
C3378 C3366 1.349 . S
C3378 H3372 0.950 . S
C3378 C3379 1.327 . S
C3379 H3373 0.950 . S
C3379 C3378 1.327 . S
C3379 C3383 1.429 . S
C3380 C3363 1.574 . S
C3380 H3374 0.949 . S
C3380 C3384 1.368 . S
C3381 C3362 1.429 . S
C3381 C3375 1.429 . S
C3381 C3382 1.523 . S
C3382 C3363 1.368 . S
C3382 C3376 1.368 . S
C3382 C3381 1.523 . S
C3383 C3367 1.429 . S
C3383 C3379 1.429 . S
C3383 C3384 1.523 . S
C3384 C3368 1.368 . S
C3384 C3380 1.368 . S
C3384 C3383 1.523 . S
H3385 C3360 0.950 . S
H3386 C3362 0.950 . S
H3387 C3363 0.949 . S
H3388 C3365 0.950 . S
H3389 C3367 0.950 . S
C3390 C3391 1.349 . S
C3390 C3392 1.327 . S
C3390 H3415 0.950 . S
C3391 C3390 1.349 . S
C3391 C3407 1.349 . S
C3392 C3390 1.327 . S
C3392 C3411 1.429 . S
C3392 H3416 0.950 . S
C3393 C3410 1.574 . S
C3393 C3412 1.368 . S
C3393 H3417 0.949 . S
H3394 C3398 0.949 . S
C3395 C3396 1.349 . S
C3395 C3397 1.327 . S
C3395 H3418 0.950 . S
C3396 C3395 1.349 . S
C3396 C3408 1.349 . S
C3397 C3395 1.327 . S
C3397 C3413 1.429 . S
C3397 H3419 0.950 . S
C3398 H3394 0.949 . S
C3398 C3406 1.574 . S
C3398 C3414 1.368 . S
H3399 C3407 0.950 . S
H3400 C3405 0.950 . S
H3401 C3406 0.949 . S
H3402 C3408 0.950 . S
H3403 C3409 0.950 . S
H3404 C3410 0.949 . S
C3405 H3400 0.950 . S
C3405 C3407 1.327 . S
C3405 C3411 1.429 . S
C3406 C3398 1.574 . S
C3406 H3401 0.949 . S
C3406 C3412 1.368 . S
C3407 C3391 1.349 . S
C3407 H3399 0.950 . S
C3407 C3405 1.327 . S
C3408 C3396 1.349 . S
C3408 H3402 0.950 . S
C3408 C3409 1.327 . S
C3409 H3403 0.950 . S
C3409 C3408 1.327 . S
C3409 C3413 1.429 . S
C3410 C3393 1.574 . S
C3410 H3404 0.949 . S
C3410 C3414 1.368 . S
C3411 C3392 1.429 . S
C3411 C3405 1.429 . S
C3411 C3412 1.523 . S
C3412 C3393 1.368 . S
C3412 C3406 1.368 . S
C3412 C3411 1.523 . S
C3413 C3397 1.429 . S
C3413 C3409 1.429 . S
C3413 C3414 1.523 . S
C3414 C3398 1.368 . S
C3414 C3410 1.368 . S
C3414 C3413 1.523 . S
H3415 C3390 0.950 . S
H3416 C3392 0.950 . S
H3417 C3393 0.949 . S
H3418 C3395 0.950 . S
H3419 C3397 0.950 . S
C3420 C3421 1.349 1_655 S
C3420 C3422 1.327 . S
C3420 H3445 0.950 . S
C3421 C3420 1.349 1_455 S
C3421 C3437 1.349 . S
C3422 C3420 1.327 . S
C3422 C3441 1.429 1_655 S
C3422 H3446 0.950 . S
C3423 C3440 1.574 . S
C3423 C3442 1.368 . S
C3423 H3447 0.949 . S
H3424 C3428 0.949 . S
C3425 C3426 1.349 1_455 S
C3425 C3427 1.327 . S
C3425 H3448 0.950 . S
C3426 C3425 1.349 1_655 S
C3426 C3438 1.349 . S
C3427 C3425 1.327 . S
C3427 C3443 1.429 1_455 S
C3427 H3449 0.950 . S
C3428 H3424 0.949 . S
C3428 C3436 1.574 . S
C3428 C3444 1.368 . S
H3429 C3437 0.950 . S
H3430 C3435 0.950 . S
H3431 C3436 0.949 . S
H3432 C3438 0.950 . S
H3433 C3439 0.950 . S
H3434 C3440 0.949 . S
C3435 H3430 0.950 . S
C3435 C3437 1.327 . S
C3435 C3441 1.429 . S
C3436 C3428 1.574 . S
C3436 H3431 0.949 . S
C3436 C3442 1.368 1_655 S
C3437 C3421 1.349 . S
C3437 H3429 0.950 . S
C3437 C3435 1.327 . S
C3438 C3426 1.349 . S
C3438 H3432 0.950 . S
C3438 C3439 1.327 . S
C3439 H3433 0.950 . S
C3439 C3438 1.327 . S
C3439 C3443 1.429 . S
C3440 C3423 1.574 . S
C3440 H3434 0.949 . S
C3440 C3444 1.368 1_455 S
C3441 C3422 1.429 1_455 S
C3441 C3435 1.429 . S
C3441 C3442 1.523 . S
C3442 C3423 1.368 . S
C3442 C3436 1.368 1_455 S
C3442 C3441 1.523 . S
C3443 C3427 1.429 1_655 S
C3443 C3439 1.429 . S
C3443 C3444 1.523 . S
C3444 C3428 1.368 . S
C3444 C3440 1.368 1_655 S
C3444 C3443 1.523 . S
H3445 C3420 0.950 . S
H3446 C3422 0.950 . S
H3447 C3423 0.949 . S
H3448 C3425 0.950 . S
H3449 C3427 0.950 . S
C3450 C3451 1.349 . S
C3450 C3452 1.327 . S
C3450 H3475 0.950 . S
C3451 C3450 1.349 . S
C3451 C3467 1.349 . S
C3452 C3450 1.327 . S
C3452 C3471 1.429 . S
C3452 H3476 0.950 . S
C3453 C3470 1.574 . S
C3453 C3472 1.368 . S
C3453 H3477 0.949 . S
H3454 C3458 0.949 . S
C3455 C3456 1.349 . S
C3455 C3457 1.327 . S
C3455 H3478 0.950 . S
C3456 C3455 1.349 . S
C3456 C3468 1.349 . S
C3457 C3455 1.327 . S
C3457 C3473 1.429 . S
C3457 H3479 0.950 . S
C3458 H3454 0.949 . S
C3458 C3466 1.574 . S
C3458 C3474 1.368 . S
H3459 C3467 0.950 . S
H3460 C3465 0.950 . S
H3461 C3466 0.949 . S
H3462 C3468 0.950 . S
H3463 C3469 0.950 . S
H3464 C3470 0.949 . S
C3465 H3460 0.950 . S
C3465 C3467 1.327 . S
C3465 C3471 1.429 . S
C3466 C3458 1.574 . S
C3466 H3461 0.949 . S
C3466 C3472 1.368 . S
C3467 C3451 1.349 . S
C3467 H3459 0.950 . S
C3467 C3465 1.327 . S
C3468 C3456 1.349 . S
C3468 H3462 0.950 . S
C3468 C3469 1.327 . S
C3469 H3463 0.950 . S
C3469 C3468 1.327 . S
C3469 C3473 1.429 . S
C3470 C3453 1.574 . S
C3470 H3464 0.949 . S
C3470 C3474 1.368 . S
C3471 C3452 1.429 . S
C3471 C3465 1.429 . S
C3471 C3472 1.523 . S
C3472 C3453 1.368 . S
C3472 C3466 1.368 . S
C3472 C3471 1.523 . S
C3473 C3457 1.429 . S
C3473 C3469 1.429 . S
C3473 C3474 1.523 . S
C3474 C3458 1.368 . S
C3474 C3470 1.368 . S
C3474 C3473 1.523 . S
H3475 C3450 0.950 . S
H3476 C3452 0.950 . S
H3477 C3453 0.949 . S
H3478 C3455 0.950 . S
H3479 C3457 0.950 . S
C3480 C3481 1.349 . S
C3480 C3482 1.327 . S
C3480 H3505 0.950 . S
C3481 C3480 1.349 . S
C3481 C3497 1.349 . S
C3482 C3480 1.327 . S
C3482 C3501 1.429 . S
C3482 H3506 0.950 . S
C3483 C3500 1.574 . S
C3483 C3502 1.368 . S
C3483 H3507 0.949 . S
H3484 C3488 0.949 . S
C3485 C3486 1.349 . S
C3485 C3487 1.327 . S
C3485 H3508 0.950 . S
C3486 C3485 1.349 . S
C3486 C3498 1.349 . S
C3487 C3485 1.327 . S
C3487 C3503 1.429 . S
C3487 H3509 0.950 . S
C3488 H3484 0.949 . S
C3488 C3496 1.574 . S
C3488 C3504 1.368 . S
H3489 C3497 0.950 . S
H3490 C3495 0.950 . S
H3491 C3496 0.949 . S
H3492 C3498 0.950 . S
H3493 C3499 0.950 . S
H3494 C3500 0.949 . S
C3495 H3490 0.950 . S
C3495 C3497 1.327 . S
C3495 C3501 1.429 . S
C3496 C3488 1.574 . S
C3496 H3491 0.949 . S
C3496 C3502 1.368 . S
C3497 C3481 1.349 . S
C3497 H3489 0.950 . S
C3497 C3495 1.327 . S
C3498 C3486 1.349 . S
C3498 H3492 0.950 . S
C3498 C3499 1.327 . S
C3499 H3493 0.950 . S
C3499 C3498 1.327 . S
C3499 C3503 1.429 . S
C3500 C3483 1.574 . S
C3500 H3494 0.949 . S
C3500 C3504 1.368 . S
C3501 C3482 1.429 . S
C3501 C3495 1.429 . S
C3501 C3502 1.523 . S
C3502 C3483 1.368 . S
C3502 C3496 1.368 . S
C3502 C3501 1.523 . S
C3503 C3487 1.429 . S
C3503 C3499 1.429 . S
C3503 C3504 1.523 . S
C3504 C3488 1.368 . S
C3504 C3500 1.368 . S
C3504 C3503 1.523 . S
H3505 C3480 0.950 . S
H3506 C3482 0.950 . S
H3507 C3483 0.949 . S
H3508 C3485 0.950 . S
H3509 C3487 0.950 . S
C3510 C3511 1.349 . S
C3510 C3512 1.327 . S
C3510 H3535 0.950 . S
C3511 C3510 1.349 . S
C3511 C3527 1.349 . S
C3512 C3510 1.327 . S
C3512 C3531 1.429 . S
C3512 H3536 0.950 . S
C3513 C3530 1.574 . S
C3513 C3532 1.368 . S
C3513 H3537 0.949 . S
H3514 C3518 0.949 . S
C3515 C3516 1.349 . S
C3515 C3517 1.327 . S
C3515 H3538 0.950 . S
C3516 C3515 1.349 . S
C3516 C3528 1.349 . S
C3517 C3515 1.327 . S
C3517 C3533 1.429 . S
C3517 H3539 0.950 . S
C3518 H3514 0.949 . S
C3518 C3526 1.574 . S
C3518 C3534 1.368 . S
H3519 C3527 0.950 . S
H3520 C3525 0.950 . S
H3521 C3526 0.949 . S
H3522 C3528 0.950 . S
H3523 C3529 0.950 . S
H3524 C3530 0.949 . S
C3525 H3520 0.950 . S
C3525 C3527 1.327 . S
C3525 C3531 1.429 . S
C3526 C3518 1.574 . S
C3526 H3521 0.949 . S
C3526 C3532 1.368 . S
C3527 C3511 1.349 . S
C3527 H3519 0.950 . S
C3527 C3525 1.327 . S
C3528 C3516 1.349 . S
C3528 H3522 0.950 . S
C3528 C3529 1.327 . S
C3529 H3523 0.950 . S
C3529 C3528 1.327 . S
C3529 C3533 1.429 . S
C3530 C3513 1.574 . S
C3530 H3524 0.949 . S
C3530 C3534 1.368 . S
C3531 C3512 1.429 . S
C3531 C3525 1.429 . S
C3531 C3532 1.523 . S
C3532 C3513 1.368 . S
C3532 C3526 1.368 . S
C3532 C3531 1.523 . S
C3533 C3517 1.429 . S
C3533 C3529 1.429 . S
C3533 C3534 1.523 . S
C3534 C3518 1.368 . S
C3534 C3530 1.368 . S
C3534 C3533 1.523 . S
H3535 C3510 0.950 . S
H3536 C3512 0.950 . S
H3537 C3513 0.949 . S
H3538 C3515 0.950 . S
H3539 C3517 0.950 . S
C3540 C3541 1.349 . S
C3540 C3542 1.327 . S
C3540 H3565 0.950 . S
C3541 C3540 1.349 . S
C3541 C3557 1.349 1_455 S
C3542 C3540 1.327 . S
C3542 C3561 1.444 . S
C3542 H3566 0.950 . S
C3543 C3560 1.574 . S
C3543 C3562 1.373 . S
C3543 H3567 0.949 . S
H3544 C3548 0.949 . S
C3545 C3546 1.349 . S
C3545 C3547 1.327 . S
C3545 H3568 0.950 . S
C3546 C3545 1.349 . S
C3546 C3558 1.349 1_655 S
C3547 C3545 1.327 . S
C3547 C3563 1.429 . S
C3547 H3569 0.950 . S
C3548 H3544 0.949 . S
C3548 C3556 1.574 . S
C3548 C3564 1.368 1_455 S
H3549 C3557 0.950 . S
H3550 C3555 0.950 . S
H3551 C3556 0.949 . S
H3552 C3558 0.950 . S
H3553 C3559 0.950 . S
H3554 C3560 0.949 . S
C3555 H3550 0.950 . S
C3555 C3557 1.327 . S
C3555 C3561 1.416 1_655 S
C3556 C3548 1.574 . S
C3556 H3551 0.949 . S
C3556 C3562 1.364 1_455 S
C3557 C3541 1.349 1_655 S
C3557 H3549 0.950 . S
C3557 C3555 1.327 . S
C3558 C3546 1.349 1_455 S
C3558 H3552 0.950 . S
C3558 C3559 1.327 . S
C3559 H3553 0.950 . S
C3559 C3558 1.327 . S
C3559 C3563 1.429 1_455 S
C3560 C3543 1.574 . S
C3560 H3554 0.949 . S
C3560 C3564 1.368 . S
C3561 C3542 1.444 . S
C3561 C3555 1.416 1_455 S
C3561 C3562 1.521 1_455 S
C3562 C3543 1.373 . S
C3562 C3556 1.364 1_655 S
C3562 C3561 1.521 1_655 S
C3563 C3547 1.429 . S
C3563 C3559 1.429 1_655 S
C3563 C3564 1.523 . S
C3564 C3548 1.368 1_655 S
C3564 C3560 1.368 . S
C3564 C3563 1.523 . S
H3565 C3540 0.950 . S
H3566 C3542 0.950 . S
H3567 C3543 0.949 . S
H3568 C3545 0.950 . S
H3569 C3547 0.950 . S
C3570 C3571 1.349 . S
C3570 C3572 1.327 . S
C3570 H3595 0.950 . S
C3571 C3570 1.349 . S
C3571 C3587 1.349 . S
C3572 C3570 1.327 . S
C3572 C3591 1.429 . S
C3572 H3596 0.950 . S
C3573 C3590 1.574 . S
C3573 C3592 1.368 . S
C3573 H3597 0.949 . S
H3574 C3578 0.949 . S
C3575 C3576 1.349 . S
C3575 C3577 1.327 . S
C3575 H3598 0.950 . S
C3576 C3575 1.349 . S
C3576 C3588 1.349 . S
C3577 C3575 1.327 . S
C3577 C3593 1.429 . S
C3577 H3599 0.950 . S
C3578 H3574 0.949 . S
C3578 C3586 1.574 . S
C3578 C3594 1.368 . S
H3579 C3587 0.950 . S
H3580 C3585 0.950 . S
H3581 C3586 0.949 . S
H3582 C3588 0.950 . S
H3583 C3589 0.950 . S
H3584 C3590 0.949 . S
C3585 H3580 0.950 . S
C3585 C3587 1.327 . S
C3585 C3591 1.429 . S
C3586 C3578 1.574 . S
C3586 H3581 0.949 . S
C3586 C3592 1.368 . S
C3587 C3571 1.349 . S
C3587 H3579 0.950 . S
C3587 C3585 1.327 . S
C3588 C3576 1.349 . S
C3588 H3582 0.950 . S
C3588 C3589 1.327 . S
C3589 H3583 0.950 . S
C3589 C3588 1.327 . S
C3589 C3593 1.429 . S
C3590 C3573 1.574 . S
C3590 H3584 0.949 . S
C3590 C3594 1.368 . S
C3591 C3572 1.429 . S
C3591 C3585 1.429 . S
C3591 C3592 1.523 . S
C3592 C3573 1.368 . S
C3592 C3586 1.368 . S
C3592 C3591 1.523 . S
C3593 C3577 1.429 . S
C3593 C3589 1.429 . S
C3593 C3594 1.523 . S
C3594 C3578 1.368 . S
C3594 C3590 1.368 . S
C3594 C3593 1.523 . S
H3595 C3570 0.950 . S
H3596 C3572 0.950 . S
H3597 C3573 0.949 . S
H3598 C3575 0.950 . S
H3599 C3577 0.950 . S
C3600 C3601 1.349 . S
C3600 C3602 1.327 . S
C3600 H3625 0.950 . S
C3601 C3600 1.349 . S
C3601 C3617 1.349 . S
C3602 C3600 1.327 . S
C3602 C3621 1.429 . S
C3602 H3626 0.950 . S
C3603 C3620 1.574 . S
C3603 C3622 1.368 . S
C3603 H3627 0.949 . S
H3604 C3608 0.949 . S
C3605 C3606 1.349 . S
C3605 C3607 1.327 . S
C3605 H3628 0.950 . S
C3606 C3605 1.349 . S
C3606 C3618 1.349 . S
C3607 C3605 1.327 . S
C3607 C3623 1.429 . S
C3607 H3629 0.950 . S
C3608 H3604 0.949 . S
C3608 C3616 1.574 . S
C3608 C3624 1.368 . S
H3609 C3617 0.950 . S
H3610 C3615 0.950 . S
H3611 C3616 0.949 . S
H3612 C3618 0.950 . S
H3613 C3619 0.950 . S
H3614 C3620 0.949 . S
C3615 H3610 0.950 . S
C3615 C3617 1.327 . S
C3615 C3621 1.429 . S
C3616 C3608 1.574 . S
C3616 H3611 0.949 . S
C3616 C3622 1.368 . S
C3617 C3601 1.349 . S
C3617 H3609 0.950 . S
C3617 C3615 1.327 . S
C3618 C3606 1.349 . S
C3618 H3612 0.950 . S
C3618 C3619 1.327 . S
C3619 H3613 0.950 . S
C3619 C3618 1.327 . S
C3619 C3623 1.429 . S
C3620 C3603 1.574 . S
C3620 H3614 0.949 . S
C3620 C3624 1.368 . S
C3621 C3602 1.429 . S
C3621 C3615 1.429 . S
C3621 C3622 1.523 . S
C3622 C3603 1.368 . S
C3622 C3616 1.368 . S
C3622 C3621 1.523 . S
C3623 C3607 1.429 . S
C3623 C3619 1.429 . S
C3623 C3624 1.523 . S
C3624 C3608 1.368 . S
C3624 C3620 1.368 . S
C3624 C3623 1.523 . S
H3625 C3600 0.950 . S
H3626 C3602 0.950 . S
H3627 C3603 0.949 . S
H3628 C3605 0.950 . S
H3629 C3607 0.950 . S
C3630 C3631 1.349 . S
C3630 C3632 1.327 . S
C3630 H3655 0.950 . S
C3631 C3630 1.349 . S
C3631 C3647 1.349 . S
C3632 C3630 1.327 . S
C3632 C3651 1.429 . S
C3632 H3656 0.950 . S
C3633 C3650 1.574 . S
C3633 C3652 1.368 . S
C3633 H3657 0.949 . S
H3634 C3638 0.949 . S
C3635 C3636 1.349 . S
C3635 C3637 1.327 . S
C3635 H3658 0.950 . S
C3636 C3635 1.349 . S
C3636 C3648 1.349 . S
C3637 C3635 1.327 . S
C3637 C3653 1.429 . S
C3637 H3659 0.950 . S
C3638 H3634 0.949 . S
C3638 C3646 1.574 . S
C3638 C3654 1.368 . S
H3639 C3647 0.950 . S
H3640 C3645 0.950 . S
H3641 C3646 0.949 . S
H3642 C3648 0.950 . S
H3643 C3649 0.950 . S
H3644 C3650 0.949 . S
C3645 H3640 0.950 . S
C3645 C3647 1.327 . S
C3645 C3651 1.429 . S
C3646 C3638 1.574 . S
C3646 H3641 0.949 . S
C3646 C3652 1.368 . S
C3647 C3631 1.349 . S
C3647 H3639 0.950 . S
C3647 C3645 1.327 . S
C3648 C3636 1.349 . S
C3648 H3642 0.950 . S
C3648 C3649 1.327 . S
C3649 H3643 0.950 . S
C3649 C3648 1.327 . S
C3649 C3653 1.429 . S
C3650 C3633 1.574 . S
C3650 H3644 0.949 . S
C3650 C3654 1.368 . S
C3651 C3632 1.429 . S
C3651 C3645 1.429 . S
C3651 C3652 1.523 . S
C3652 C3633 1.368 . S
C3652 C3646 1.368 . S
C3652 C3651 1.523 . S
C3653 C3637 1.429 . S
C3653 C3649 1.429 . S
C3653 C3654 1.523 . S
C3654 C3638 1.368 . S
C3654 C3650 1.368 . S
C3654 C3653 1.523 . S
H3655 C3630 0.950 . S
H3656 C3632 0.950 . S
H3657 C3633 0.949 . S
H3658 C3635 0.950 . S
H3659 C3637 0.950 . S
C3660 C3661 1.349 . S
C3660 C3662 1.327 . S
C3660 H3685 0.950 . S
C3661 C3660 1.349 . S
C3661 C3677 1.349 . S
C3662 C3660 1.327 . S
C3662 C3681 1.429 . S
C3662 H3686 0.950 . S
C3663 C3680 1.574 . S
C3663 C3682 1.368 . S
C3663 H3687 0.949 . S
H3664 C3668 0.949 . S
C3665 C3666 1.349 . S
C3665 C3667 1.327 . S
C3665 H3688 0.950 . S
C3666 C3665 1.349 . S
C3666 C3678 1.349 . S
C3667 C3665 1.327 . S
C3667 C3683 1.429 . S
C3667 H3689 0.950 . S
C3668 H3664 0.949 . S
C3668 C3676 1.574 . S
C3668 C3684 1.368 . S
H3669 C3677 0.950 . S
H3670 C3675 0.950 . S
H3671 C3676 0.949 . S
H3672 C3678 0.950 . S
H3673 C3679 0.950 . S
H3674 C3680 0.949 . S
C3675 H3670 0.950 . S
C3675 C3677 1.327 . S
C3675 C3681 1.429 . S
C3676 C3668 1.574 . S
C3676 H3671 0.949 . S
C3676 C3682 1.368 . S
C3677 C3661 1.349 . S
C3677 H3669 0.950 . S
C3677 C3675 1.327 . S
C3678 C3666 1.349 . S
C3678 H3672 0.950 . S
C3678 C3679 1.327 . S
C3679 H3673 0.950 . S
C3679 C3678 1.327 . S
C3679 C3683 1.429 . S
C3680 C3663 1.574 . S
C3680 H3674 0.949 . S
C3680 C3684 1.368 . S
C3681 C3662 1.429 . S
C3681 C3675 1.429 . S
C3681 C3682 1.523 . S
C3682 C3663 1.368 . S
C3682 C3676 1.368 . S
C3682 C3681 1.523 . S
C3683 C3667 1.429 . S
C3683 C3679 1.429 . S
C3683 C3684 1.523 . S
C3684 C3668 1.368 . S
C3684 C3680 1.368 . S
C3684 C3683 1.523 . S
H3685 C3660 0.950 . S
H3686 C3662 0.950 . S
H3687 C3663 0.949 . S
H3688 C3665 0.950 . S
H3689 C3667 0.950 . S
C3690 C3691 1.349 . S
C3690 C3692 1.327 . S
C3690 H3715 0.950 . S
C3691 C3690 1.349 . S
C3691 C3707 1.349 . S
C3692 C3690 1.327 . S
C3692 C3711 1.429 . S
C3692 H3716 0.950 . S
C3693 C3710 1.574 . S
C3693 C3712 1.368 . S
C3693 H3717 0.949 . S
H3694 C3698 0.949 . S
C3695 C3696 1.349 . S
C3695 C3697 1.327 . S
C3695 H3718 0.950 . S
C3696 C3695 1.349 . S
C3696 C3708 1.349 . S
C3697 C3695 1.327 . S
C3697 C3713 1.429 . S
C3697 H3719 0.950 . S
C3698 H3694 0.949 . S
C3698 C3706 1.574 . S
C3698 C3714 1.368 . S
H3699 C3707 0.950 . S
H3700 C3705 0.950 . S
H3701 C3706 0.949 . S
H3702 C3708 0.950 . S
H3703 C3709 0.950 . S
H3704 C3710 0.949 . S
C3705 H3700 0.950 . S
C3705 C3707 1.327 . S
C3705 C3711 1.429 . S
C3706 C3698 1.574 . S
C3706 H3701 0.949 . S
C3706 C3712 1.368 . S
C3707 C3691 1.349 . S
C3707 H3699 0.950 . S
C3707 C3705 1.327 . S
C3708 C3696 1.349 . S
C3708 H3702 0.950 . S
C3708 C3709 1.327 . S
C3709 H3703 0.950 . S
C3709 C3708 1.327 . S
C3709 C3713 1.429 . S
C3710 C3693 1.574 . S
C3710 H3704 0.949 . S
C3710 C3714 1.368 . S
C3711 C3692 1.429 . S
C3711 C3705 1.429 . S
C3711 C3712 1.523 . S
C3712 C3693 1.368 . S
C3712 C3706 1.368 . S
C3712 C3711 1.523 . S
C3713 C3697 1.429 . S
C3713 C3709 1.429 . S
C3713 C3714 1.523 . S
C3714 C3698 1.368 . S
C3714 C3710 1.368 . S
C3714 C3713 1.523 . S
H3715 C3690 0.950 . S
H3716 C3692 0.950 . S
H3717 C3693 0.949 . S
H3718 C3695 0.950 . S
H3719 C3697 0.950 . S
C3720 C3721 1.349 . S
C3720 C3722 1.327 . S
C3720 H3745 0.950 . S
C3721 C3720 1.349 . S
C3721 C3737 1.349 . S
C3722 C3720 1.327 . S
C3722 C3741 1.429 . S
C3722 H3746 0.950 . S
C3723 C3740 1.574 . S
C3723 C3742 1.368 . S
C3723 H3747 0.949 . S
H3724 C3728 0.949 . S
C3725 C3726 1.349 . S
C3725 C3727 1.327 . S
C3725 H3748 0.950 . S
C3726 C3725 1.349 . S
C3726 C3738 1.349 . S
C3727 C3725 1.327 . S
C3727 C3743 1.429 . S
C3727 H3749 0.950 . S
C3728 H3724 0.949 . S
C3728 C3736 1.574 . S
C3728 C3744 1.368 . S
H3729 C3737 0.950 . S
H3730 C3735 0.950 . S
H3731 C3736 0.949 . S
H3732 C3738 0.950 . S
H3733 C3739 0.950 . S
H3734 C3740 0.949 . S
C3735 H3730 0.950 . S
C3735 C3737 1.327 . S
C3735 C3741 1.429 . S
C3736 C3728 1.574 . S
C3736 H3731 0.949 . S
C3736 C3742 1.368 . S
C3737 C3721 1.349 . S
C3737 H3729 0.950 . S
C3737 C3735 1.327 . S
C3738 C3726 1.349 . S
C3738 H3732 0.950 . S
C3738 C3739 1.327 . S
C3739 H3733 0.950 . S
C3739 C3738 1.327 . S
C3739 C3743 1.429 . S
C3740 C3723 1.574 . S
C3740 H3734 0.949 . S
C3740 C3744 1.368 . S
C3741 C3722 1.429 . S
C3741 C3735 1.429 . S
C3741 C3742 1.523 . S
C3742 C3723 1.368 . S
C3742 C3736 1.368 . S
C3742 C3741 1.523 . S
C3743 C3727 1.429 . S
C3743 C3739 1.429 . S
C3743 C3744 1.523 . S
C3744 C3728 1.368 . S
C3744 C3740 1.368 . S
C3744 C3743 1.523 . S
H3745 C3720 0.950 . S
H3746 C3722 0.950 . S
H3747 C3723 0.949 . S
H3748 C3725 0.950 . S
H3749 C3727 0.950 . S
C3750 C3751 1.349 . S
C3750 C3752 1.327 . S
C3750 H3775 0.950 . S
C3751 C3750 1.349 . S
C3751 C3767 1.349 . S
C3752 C3750 1.327 . S
C3752 C3771 1.429 . S
C3752 H3776 0.950 . S
C3753 C3770 1.574 . S
C3753 C3772 1.368 . S
C3753 H3777 0.949 . S
H3754 C3758 0.949 . S
C3755 C3756 1.349 . S
C3755 C3757 1.327 . S
C3755 H3778 0.950 . S
C3756 C3755 1.349 . S
C3756 C3768 1.349 . S
C3757 C3755 1.327 . S
C3757 C3773 1.429 . S
C3757 H3779 0.950 . S
C3758 H3754 0.949 . S
C3758 C3766 1.574 . S
C3758 C3774 1.368 . S
H3759 C3767 0.950 . S
H3760 C3765 0.950 . S
H3761 C3766 0.949 . S
H3762 C3768 0.950 . S
H3763 C3769 0.950 . S
H3764 C3770 0.949 . S
C3765 H3760 0.950 . S
C3765 C3767 1.327 . S
C3765 C3771 1.429 . S
C3766 C3758 1.574 . S
C3766 H3761 0.949 . S
C3766 C3772 1.368 . S
C3767 C3751 1.349 . S
C3767 H3759 0.950 . S
C3767 C3765 1.327 . S
C3768 C3756 1.349 . S
C3768 H3762 0.950 . S
C3768 C3769 1.327 . S
C3769 H3763 0.950 . S
C3769 C3768 1.327 . S
C3769 C3773 1.429 . S
C3770 C3753 1.574 . S
C3770 H3764 0.949 . S
C3770 C3774 1.368 . S
C3771 C3752 1.429 . S
C3771 C3765 1.429 . S
C3771 C3772 1.523 . S
C3772 C3753 1.368 . S
C3772 C3766 1.368 . S
C3772 C3771 1.523 . S
C3773 C3757 1.429 . S
C3773 C3769 1.429 . S
C3773 C3774 1.523 . S
C3774 C3758 1.368 . S
C3774 C3770 1.368 . S
C3774 C3773 1.523 . S
H3775 C3750 0.950 . S
H3776 C3752 0.950 . S
H3777 C3753 0.949 . S
H3778 C3755 0.950 . S
H3779 C3757 0.950 . S
C3780 C3781 1.349 . S
C3780 C3782 1.327 . S
C3780 H3805 0.950 . S
C3781 C3780 1.349 . S
C3781 C3797 1.349 . S
C3782 C3780 1.327 . S
C3782 C3801 1.429 . S
C3782 H3806 0.950 . S
C3783 C3800 1.574 . S
C3783 C3802 1.368 . S
C3783 H3807 0.949 . S
H3784 C3788 0.949 . S
C3785 C3786 1.349 . S
C3785 C3787 1.327 . S
C3785 H3808 0.950 . S
C3786 C3785 1.349 . S
C3786 C3798 1.349 . S
C3787 C3785 1.327 . S
C3787 C3803 1.429 . S
C3787 H3809 0.950 . S
C3788 H3784 0.949 . S
C3788 C3796 1.574 . S
C3788 C3804 1.368 . S
H3789 C3797 0.950 . S
H3790 C3795 0.950 . S
H3791 C3796 0.949 . S
H3792 C3798 0.950 . S
H3793 C3799 0.950 . S
H3794 C3800 0.949 . S
C3795 H3790 0.950 . S
C3795 C3797 1.327 . S
C3795 C3801 1.429 . S
C3796 C3788 1.574 . S
C3796 H3791 0.949 . S
C3796 C3802 1.368 . S
C3797 C3781 1.349 . S
C3797 H3789 0.950 . S
C3797 C3795 1.327 . S
C3798 C3786 1.349 . S
C3798 H3792 0.950 . S
C3798 C3799 1.327 . S
C3799 H3793 0.950 . S
C3799 C3798 1.327 . S
C3799 C3803 1.429 . S
C3800 C3783 1.574 . S
C3800 H3794 0.949 . S
C3800 C3804 1.368 . S
C3801 C3782 1.429 . S
C3801 C3795 1.429 . S
C3801 C3802 1.523 . S
C3802 C3783 1.368 . S
C3802 C3796 1.368 . S
C3802 C3801 1.523 . S
C3803 C3787 1.429 . S
C3803 C3799 1.429 . S
C3803 C3804 1.523 . S
C3804 C3788 1.368 . S
C3804 C3800 1.368 . S
C3804 C3803 1.523 . S
H3805 C3780 0.950 . S
H3806 C3782 0.950 . S
H3807 C3783 0.949 . S
H3808 C3785 0.950 . S
H3809 C3787 0.950 . S
C3810 C3811 1.349 . S
C3810 C3812 1.327 . S
C3810 H3835 0.950 . S
C3811 C3810 1.349 . S
C3811 C3827 1.349 . S
C3812 C3810 1.327 . S
C3812 C3831 1.429 . S
C3812 H3836 0.950 . S
C3813 C3830 1.574 . S
C3813 C3832 1.368 . S
C3813 H3837 0.949 . S
H3814 C3818 0.949 . S
C3815 C3816 1.349 . S
C3815 C3817 1.327 . S
C3815 H3838 0.950 . S
C3816 C3815 1.349 . S
C3816 C3828 1.349 . S
C3817 C3815 1.327 . S
C3817 C3833 1.429 . S
C3817 H3839 0.950 . S
C3818 H3814 0.949 . S
C3818 C3826 1.574 . S
C3818 C3834 1.368 . S
H3819 C3827 0.950 . S
H3820 C3825 0.950 . S
H3821 C3826 0.949 . S
H3822 C3828 0.950 . S
H3823 C3829 0.950 . S
H3824 C3830 0.949 . S
C3825 H3820 0.950 . S
C3825 C3827 1.327 . S
C3825 C3831 1.429 . S
C3826 C3818 1.574 . S
C3826 H3821 0.949 . S
C3826 C3832 1.368 . S
C3827 C3811 1.349 . S
C3827 H3819 0.950 . S
C3827 C3825 1.327 . S
C3828 C3816 1.349 . S
C3828 H3822 0.950 . S
C3828 C3829 1.327 . S
C3829 H3823 0.950 . S
C3829 C3828 1.327 . S
C3829 C3833 1.429 . S
C3830 C3813 1.574 . S
C3830 H3824 0.949 . S
C3830 C3834 1.368 . S
C3831 C3812 1.429 . S
C3831 C3825 1.429 . S
C3831 C3832 1.523 . S
C3832 C3813 1.368 . S
C3832 C3826 1.368 . S
C3832 C3831 1.523 . S
C3833 C3817 1.429 . S
C3833 C3829 1.429 . S
C3833 C3834 1.523 . S
C3834 C3818 1.368 . S
C3834 C3830 1.368 . S
C3834 C3833 1.523 . S
H3835 C3810 0.950 . S
H3836 C3812 0.950 . S
H3837 C3813 0.949 . S
H3838 C3815 0.950 . S
H3839 C3817 0.950 . S
C3840 C3841 1.349 . S
C3840 C3842 1.327 . S
C3840 H3865 0.950 . S
C3841 C3840 1.349 . S
C3841 C3857 1.349 . S
C3842 C3840 1.327 . S
C3842 C3861 1.429 . S
C3842 H3866 0.950 . S
C3843 C3860 1.574 . S
C3843 C3862 1.368 . S
C3843 H3867 0.949 . S
H3844 C3848 0.949 . S
C3845 C3846 1.349 . S
C3845 C3847 1.327 . S
C3845 H3868 0.950 . S
C3846 C3845 1.349 . S
C3846 C3858 1.349 . S
C3847 C3845 1.327 . S
C3847 C3863 1.429 . S
C3847 H3869 0.950 . S
C3848 H3844 0.949 . S
C3848 C3856 1.574 . S
C3848 C3864 1.368 . S
H3849 C3857 0.950 . S
H3850 C3855 0.950 . S
H3851 C3856 0.949 . S
H3852 C3858 0.950 . S
H3853 C3859 0.950 . S
H3854 C3860 0.949 . S
C3855 H3850 0.950 . S
C3855 C3857 1.327 . S
C3855 C3861 1.429 . S
C3856 C3848 1.574 . S
C3856 H3851 0.949 . S
C3856 C3862 1.368 . S
C3857 C3841 1.349 . S
C3857 H3849 0.950 . S
C3857 C3855 1.327 . S
C3858 C3846 1.349 . S
C3858 H3852 0.950 . S
C3858 C3859 1.327 . S
C3859 H3853 0.950 . S
C3859 C3858 1.327 . S
C3859 C3863 1.429 . S
C3860 C3843 1.574 . S
C3860 H3854 0.949 . S
C3860 C3864 1.368 . S
C3861 C3842 1.429 . S
C3861 C3855 1.429 . S
C3861 C3862 1.523 . S
C3862 C3843 1.368 . S
C3862 C3856 1.368 . S
C3862 C3861 1.523 . S
C3863 C3847 1.429 . S
C3863 C3859 1.429 . S
C3863 C3864 1.523 . S
C3864 C3848 1.368 . S
C3864 C3860 1.368 . S
C3864 C3863 1.523 . S
H3865 C3840 0.950 . S
H3866 C3842 0.950 . S
H3867 C3843 0.949 . S
H3868 C3845 0.950 . S
H3869 C3847 0.950 . S
C3870 C3871 1.349 . S
C3870 C3872 1.327 . S
C3870 H3895 0.950 . S
C3871 C3870 1.349 . S
C3871 C3887 1.349 . S
C3872 C3870 1.327 . S
C3872 C3891 1.429 . S
C3872 H3896 0.950 . S
C3873 C3890 1.574 . S
C3873 C3892 1.368 . S
C3873 H3897 0.949 . S
H3874 C3878 0.949 . S
C3875 C3876 1.349 . S
C3875 C3877 1.327 . S
C3875 H3898 0.950 . S
C3876 C3875 1.349 . S
C3876 C3888 1.349 . S
C3877 C3875 1.327 . S
C3877 C3893 1.429 . S
C3877 H3899 0.950 . S
C3878 H3874 0.949 . S
C3878 C3886 1.574 . S
C3878 C3894 1.368 . S
H3879 C3887 0.950 . S
H3880 C3885 0.950 . S
H3881 C3886 0.949 . S
H3882 C3888 0.950 . S
H3883 C3889 0.950 . S
H3884 C3890 0.949 . S
C3885 H3880 0.950 . S
C3885 C3887 1.327 . S
C3885 C3891 1.429 . S
C3886 C3878 1.574 . S
C3886 H3881 0.949 . S
C3886 C3892 1.368 . S
C3887 C3871 1.349 . S
C3887 H3879 0.950 . S
C3887 C3885 1.327 . S
C3888 C3876 1.349 . S
C3888 H3882 0.950 . S
C3888 C3889 1.327 . S
C3889 H3883 0.950 . S
C3889 C3888 1.327 . S
C3889 C3893 1.429 . S
C3890 C3873 1.574 . S
C3890 H3884 0.949 . S
C3890 C3894 1.368 . S
C3891 C3872 1.429 . S
C3891 C3885 1.429 . S
C3891 C3892 1.523 . S
C3892 C3873 1.368 . S
C3892 C3886 1.368 . S
C3892 C3891 1.523 . S
C3893 C3877 1.429 . S
C3893 C3889 1.429 . S
C3893 C3894 1.523 . S
C3894 C3878 1.368 . S
C3894 C3890 1.368 . S
C3894 C3893 1.523 . S
H3895 C3870 0.950 . S
H3896 C3872 0.950 . S
H3897 C3873 0.949 . S
H3898 C3875 0.950 . S
H3899 C3877 0.950 . S
C3900 C3901 1.349 . S
C3900 C3902 1.327 . S
C3900 H3925 0.950 . S
C3901 C3900 1.349 . S
C3901 C3917 1.349 . S
C3902 C3900 1.327 . S
C3902 C3921 1.429 . S
C3902 H3926 0.950 . S
C3903 C3920 1.574 . S
C3903 C3922 1.368 . S
C3903 H3927 0.949 . S
H3904 C3908 0.949 . S
C3905 C3906 1.349 . S
C3905 C3907 1.327 . S
C3905 H3928 0.950 . S
C3906 C3905 1.349 . S
C3906 C3918 1.349 . S
C3907 C3905 1.327 . S
C3907 C3923 1.429 . S
C3907 H3929 0.950 . S
C3908 H3904 0.949 . S
C3908 C3916 1.574 . S
C3908 C3924 1.368 . S
H3909 C3917 0.950 . S
H3910 C3915 0.950 . S
H3911 C3916 0.949 . S
H3912 C3918 0.950 . S
H3913 C3919 0.950 . S
H3914 C3920 0.949 . S
C3915 H3910 0.950 . S
C3915 C3917 1.327 . S
C3915 C3921 1.429 . S
C3916 C3908 1.574 . S
C3916 H3911 0.949 . S
C3916 C3922 1.368 . S
C3917 C3901 1.349 . S
C3917 H3909 0.950 . S
C3917 C3915 1.327 . S
C3918 C3906 1.349 . S
C3918 H3912 0.950 . S
C3918 C3919 1.327 . S
C3919 H3913 0.950 . S
C3919 C3918 1.327 . S
C3919 C3923 1.429 . S
C3920 C3903 1.574 . S
C3920 H3914 0.949 . S
C3920 C3924 1.368 . S
C3921 C3902 1.429 . S
C3921 C3915 1.429 . S
C3921 C3922 1.523 . S
C3922 C3903 1.368 . S
C3922 C3916 1.368 . S
C3922 C3921 1.523 . S
C3923 C3907 1.429 . S
C3923 C3919 1.429 . S
C3923 C3924 1.523 . S
C3924 C3908 1.368 . S
C3924 C3920 1.368 . S
C3924 C3923 1.523 . S
H3925 C3900 0.950 . S
H3926 C3902 0.950 . S
H3927 C3903 0.949 . S
H3928 C3905 0.950 . S
H3929 C3907 0.950 . S
C3930 C3931 1.349 1_556 S
C3930 C3932 1.327 . S
C3930 H3955 0.950 . S
C3931 C3930 1.349 1_554 S
C3931 C3947 1.349 . S
C3932 C3930 1.327 . S
C3932 C3951 1.429 1_556 S
C3932 H3956 0.950 . S
C3933 C3950 1.574 . S
C3933 C3952 1.368 . S
C3933 H3957 0.949 . S
H3934 C3938 0.949 . S
C3935 C3936 1.349 1_554 S
C3935 C3937 1.327 . S
C3935 H3958 0.950 . S
C3936 C3935 1.349 1_556 S
C3936 C3948 1.349 . S
C3937 C3935 1.327 . S
C3937 C3953 1.429 1_554 S
C3937 H3959 0.950 . S
C3938 H3934 0.949 . S
C3938 C3946 1.574 . S
C3938 C3954 1.368 . S
H3939 C3947 0.950 . S
H3940 C3945 0.950 . S
H3941 C3946 0.949 . S
H3942 C3948 0.950 . S
H3943 C3949 0.950 . S
H3944 C3950 0.949 . S
C3945 H3940 0.950 . S
C3945 C3947 1.327 . S
C3945 C3951 1.429 . S
C3946 C3938 1.574 . S
C3946 H3941 0.949 . S
C3946 C3952 1.368 1_556 S
C3947 C3931 1.349 . S
C3947 H3939 0.950 . S
C3947 C3945 1.327 . S
C3948 C3936 1.349 . S
C3948 H3942 0.950 . S
C3948 C3949 1.327 . S
C3949 H3943 0.950 . S
C3949 C3948 1.327 . S
C3949 C3953 1.429 . S
C3950 C3933 1.574 . S
C3950 H3944 0.949 . S
C3950 C3954 1.368 1_554 S
C3951 C3932 1.429 1_554 S
C3951 C3945 1.429 . S
C3951 C3952 1.523 . S
C3952 C3933 1.368 . S
C3952 C3946 1.368 1_554 S
C3952 C3951 1.523 . S
C3953 C3937 1.429 1_556 S
C3953 C3949 1.429 . S
C3953 C3954 1.523 . S
C3954 C3938 1.368 . S
C3954 C3950 1.368 1_556 S
C3954 C3953 1.523 . S
H3955 C3930 0.950 . S
H3956 C3932 0.950 . S
H3957 C3933 0.949 . S
H3958 C3935 0.950 . S
H3959 C3937 0.950 . S
C3960 C3961 1.349 . S
C3960 C3962 1.327 . S
C3960 H3985 0.950 . S
C3961 C3960 1.349 . S
C3961 C3977 1.349 . S
C3962 C3960 1.327 . S
C3962 C3981 1.429 . S
C3962 H3986 0.950 . S
C3963 C3980 1.574 . S
C3963 C3982 1.368 . S
C3963 H3987 0.949 . S
H3964 C3968 0.949 . S
C3965 C3966 1.349 . S
C3965 C3967 1.327 . S
C3965 H3988 0.950 . S
C3966 C3965 1.349 . S
C3966 C3978 1.349 . S
C3967 C3965 1.327 . S
C3967 C3983 1.429 . S
C3967 H3989 0.950 . S
C3968 H3964 0.949 . S
C3968 C3976 1.574 . S
C3968 C3984 1.368 . S
H3969 C3977 0.950 . S
H3970 C3975 0.950 . S
H3971 C3976 0.949 . S
H3972 C3978 0.950 . S
H3973 C3979 0.950 . S
H3974 C3980 0.949 . S
C3975 H3970 0.950 . S
C3975 C3977 1.327 . S
C3975 C3981 1.429 . S
C3976 C3968 1.574 . S
C3976 H3971 0.949 . S
C3976 C3982 1.368 . S
C3977 C3961 1.349 . S
C3977 H3969 0.950 . S
C3977 C3975 1.327 . S
C3978 C3966 1.349 . S
C3978 H3972 0.950 . S
C3978 C3979 1.327 . S
C3979 H3973 0.950 . S
C3979 C3978 1.327 . S
C3979 C3983 1.429 . S
C3980 C3963 1.574 . S
C3980 H3974 0.949 . S
C3980 C3984 1.368 . S
C3981 C3962 1.429 . S
C3981 C3975 1.429 . S
C3981 C3982 1.523 . S
C3982 C3963 1.368 . S
C3982 C3976 1.368 . S
C3982 C3981 1.523 . S
C3983 C3967 1.429 . S
C3983 C3979 1.429 . S
C3983 C3984 1.523 . S
C3984 C3968 1.368 . S
C3984 C3980 1.368 . S
C3984 C3983 1.523 . S
H3985 C3960 0.950 . S
H3986 C3962 0.950 . S
H3987 C3963 0.949 . S
H3988 C3965 0.950 . S
H3989 C3967 0.950 . S
C3990 C3991 1.313 1_556 S
C3990 C3992 1.327 . S
C3990 H4015 0.950 . S
C3991 C3990 1.313 1_554 S
C3991 C4007 1.390 . S
C3992 C3990 1.327 . S
C3992 C4011 1.429 1_556 S
C3992 H4016 0.950 . S
C3993 C4010 1.574 . S
C3993 C4012 1.368 . S
C3993 H4017 0.949 . S
H3994 C3998 0.949 . S
C3995 C3996 1.349 . S
C3995 C3997 1.327 . S
C3995 H4018 0.950 . S
C3996 C3995 1.349 . S
C3996 C4008 1.349 1_554 S
C3997 C3995 1.327 . S
C3997 C4013 1.429 . S
C3997 H4019 0.950 . S
C3998 H3994 0.949 . S
C3998 C4006 1.574 . S
C3998 C4014 1.368 1_556 S
H3999 C4007 0.950 . S
H4000 C4005 0.950 . S
H4001 C4006 0.949 . S
H4002 C4008 0.950 . S
H4003 C4009 0.950 . S
H4004 C4010 0.949 . S
C4005 H4000 0.950 . S
C4005 C4007 1.327 . S
C4005 C4011 1.429 . S
C4006 C3998 1.574 . S
C4006 H4001 0.949 . S
C4006 C4012 1.368 1_556 S
C4007 C3991 1.390 . S
C4007 H3999 0.950 . S
C4007 C4005 1.327 . S
C4008 C3996 1.349 1_556 S
C4008 H4002 0.950 . S
C4008 C4009 1.327 . S
C4009 H4003 0.950 . S
C4009 C4008 1.327 . S
C4009 C4013 1.429 1_556 S
C4010 C3993 1.574 . S
C4010 H4004 0.949 . S
C4010 C4014 1.368 . S
C4011 C3992 1.429 1_554 S
C4011 C4005 1.429 . S
C4011 C4012 1.523 . S
C4012 C3993 1.368 . S
C4012 C4006 1.368 1_554 S
C4012 C4011 1.523 . S
C4013 C3997 1.429 . S
C4013 C4009 1.429 1_554 S
C4013 C4014 1.523 . S
C4014 C3998 1.368 1_554 S
C4014 C4010 1.368 . S
C4014 C4013 1.523 . S
H4015 C3990 0.950 . S
H4016 C3992 0.950 . S
H4017 C3993 0.949 . S
H4018 C3995 0.950 . S
H4019 C3997 0.950 . S
C4020 C4021 1.349 . S
C4020 C4022 1.327 . S
C4020 H4045 0.950 . S
C4021 C4020 1.349 . S
C4021 C4037 1.349 . S
C4022 C4020 1.327 . S
C4022 C4041 1.429 . S
C4022 H4046 0.950 . S
C4023 C4040 1.574 . S
C4023 C4042 1.368 . S
C4023 H4047 0.949 . S
H4024 C4028 0.949 . S
C4025 C4026 1.349 . S
C4025 C4027 1.327 . S
C4025 H4048 0.950 . S
C4026 C4025 1.349 . S
C4026 C4038 1.349 . S
C4027 C4025 1.327 . S
C4027 C4043 1.429 . S
C4027 H4049 0.950 . S
C4028 H4024 0.949 . S
C4028 C4036 1.574 . S
C4028 C4044 1.368 . S
H4029 C4037 0.950 . S
H4030 C4035 0.950 . S
H4031 C4036 0.949 . S
H4032 C4038 0.950 . S
H4033 C4039 0.950 . S
H4034 C4040 0.949 . S
C4035 H4030 0.950 . S
C4035 C4037 1.327 . S
C4035 C4041 1.429 . S
C4036 C4028 1.574 . S
C4036 H4031 0.949 . S
C4036 C4042 1.368 . S
C4037 C4021 1.349 . S
C4037 H4029 0.950 . S
C4037 C4035 1.327 . S
C4038 C4026 1.349 . S
C4038 H4032 0.950 . S
C4038 C4039 1.327 . S
C4039 H4033 0.950 . S
C4039 C4038 1.327 . S
C4039 C4043 1.429 . S
C4040 C4023 1.574 . S
C4040 H4034 0.949 . S
C4040 C4044 1.368 . S
C4041 C4022 1.429 . S
C4041 C4035 1.429 . S
C4041 C4042 1.523 . S
C4042 C4023 1.368 . S
C4042 C4036 1.368 . S
C4042 C4041 1.523 . S
C4043 C4027 1.429 . S
C4043 C4039 1.429 . S
C4043 C4044 1.523 . S
C4044 C4028 1.368 . S
C4044 C4040 1.368 . S
C4044 C4043 1.523 . S
H4045 C4020 0.950 . S
H4046 C4022 0.950 . S
H4047 C4023 0.949 . S
H4048 C4025 0.950 . S
H4049 C4027 0.950 . S
C4050 C4051 1.349 . S
C4050 C4052 1.327 . S
C4050 H4075 0.950 . S
C4051 C4050 1.349 . S
C4051 C4067 1.349 . S
C4052 C4050 1.327 . S
C4052 C4071 1.429 . S
C4052 H4076 0.950 . S
C4053 C4070 1.574 . S
C4053 C4072 1.368 . S
C4053 H4077 0.949 . S
H4054 C4058 0.949 . S
C4055 C4056 1.349 . S
C4055 C4057 1.327 . S
C4055 H4078 0.950 . S
C4056 C4055 1.349 . S
C4056 C4068 1.349 . S
C4057 C4055 1.327 . S
C4057 C4073 1.429 . S
C4057 H4079 0.950 . S
C4058 H4054 0.949 . S
C4058 C4066 1.574 . S
C4058 C4074 1.368 . S
H4059 C4067 0.950 . S
H4060 C4065 0.950 . S
H4061 C4066 0.949 . S
H4062 C4068 0.950 . S
H4063 C4069 0.950 . S
H4064 C4070 0.949 . S
C4065 H4060 0.950 . S
C4065 C4067 1.327 . S
C4065 C4071 1.429 . S
C4066 C4058 1.574 . S
C4066 H4061 0.949 . S
C4066 C4072 1.368 . S
C4067 C4051 1.349 . S
C4067 H4059 0.950 . S
C4067 C4065 1.327 . S
C4068 C4056 1.349 . S
C4068 H4062 0.950 . S
C4068 C4069 1.327 . S
C4069 H4063 0.950 . S
C4069 C4068 1.327 . S
C4069 C4073 1.429 . S
C4070 C4053 1.574 . S
C4070 H4064 0.949 . S
C4070 C4074 1.368 . S
C4071 C4052 1.429 . S
C4071 C4065 1.429 . S
C4071 C4072 1.523 . S
C4072 C4053 1.368 . S
C4072 C4066 1.368 . S
C4072 C4071 1.523 . S
C4073 C4057 1.429 . S
C4073 C4069 1.429 . S
C4073 C4074 1.523 . S
C4074 C4058 1.368 . S
C4074 C4070 1.368 . S
C4074 C4073 1.523 . S
H4075 C4050 0.950 . S
H4076 C4052 0.950 . S
H4077 C4053 0.949 . S
H4078 C4055 0.950 . S
H4079 C4057 0.950 . S
C1206 C879 1.148 . S
C1201 C2 1.245 . S
C1231 C39 1.016 . S
C1236 C898 0.992 . S
C1261 C86 1.111 . S
C1266 C921 1.055 . S
C1296 C941 1.166 . S
C1291 C112 1.191 . S
C1321 C38 1.282 . S
C1326 C962 1.259 . S
C1356 C984 1.129 . S
C1351 C76 1.218 . S
C1386 C1006 1.029 . S
C1381 C122 1.036 . S
C1411 C3 1.216 . S
C1416 C1024 1.180 . S
C1441 C147 1.222 . S
C1446 C880 1.187 . S
C1471 C184 1.264 . S
C1476 C899 1.238 . S
C1506 C922 1.070 . S
C1501 C219 1.097 . S
C1536 C945 1.205 . S
C1531 C256 1.308 . S
C1561 C148 1.313 . S
C1566 C966 1.212 . S
C1596 C985 1.030 . S
C1591 C183 1.054 . S
C1626 C1007 1.245 . S
C1621 C220 1.273 . S
C1656 C1025 1.165 . S
C1651 C255 1.195 . S
C1686 C881 1.248 1_556 S
C1681 C254 1.272 . S
C1716 C1048 1.045 . S
C1711 C302 1.051 1_554 S
C1741 C326 1.287 . S
C1746 C1070 1.265 . S
C1776 C1089 1.239 . S
C1771 C374 1.317 . S
C1801 C146 1.242 . S
C1806 C1029 1.145 . S
C1836 C923 1.299 . S
C1831 C182 1.323 . S
C1861 C338 1.038 . S
C1866 C1111 1.032 . S
C1896 C1134 1.123 . S
C1891 C410 1.189 . S
C1921 C434 1.259 . S
C1926 C882 1.163 . S
C1956 C1133 1.127 . S
C1951 C472 1.153 . S
C1981 C507 1.267 . S
C1986 C924 1.167 . S
C2011 C543 1.094 . S
C2016 C1108 1.067 . S
C2046 C964 1.164 . S
C2041 C470 1.192 . S
C2076 C1071 1.213 . S
C2071 C518 1.279 . S
C2106 C1004 1.207 . S
C2101 C554 1.196 . S
C2136 C1154 1.232 . S
C2131 C436 1.260 . S
C2166 C878 1.321 . S
C2161 C580 1.347 . S
C2191 C615 1.182 . S
C2196 C1132 1.146 . S
C2226 C920 1.181 . S
C2221 C652 1.206 . S
C2251 C687 1.296 . S
C2256 C1113 1.194 . S
C2281 C579 1.343 . S
C2286 C963 1.231 . S
C2311 C616 1.283 . S
C2316 C1067 1.254 . S
C2346 C1003 1.121 . S
C2341 C651 1.154 . S
C2371 C688 1.188 . S
C2376 C1153 1.155 . S
C2401 C686 1.270 . S
C2406 C877 1.240 . S
C2431 C734 1.280 . S
C2436 C1046 1.273 . S
C2461 C758 1.183 . S
C2466 C982 1.155 . S
C2491 C806 1.300 . S
C2496 C1092 1.237 . S
C2526 C1152 1.143 . S
C2521 C578 1.238 . S
C2556 C919 1.218 . S
C2551 C614 1.247 . S
C2586 C944 1.213 . S
C2581 C770 1.204 . S
C2616 C900 1.214 . S
C2611 C842 1.276 . S
C2641 C74 1.169 . S
C2646 C1176 1.083 . S
C2676 C1129 0.991 . S
C2671 C111 1.014 . S
C2706 C1194 1.118 . S
C2701 C14 1.183 1_455 S
C2731 C40 1.192 . S
C2736 C1112 1.167 . S
C2761 C110 1.283 . S
C2766 C1049 1.260 . S
C2796 C1068 1.191 . S
C2791 C4 1.289 . S
C2826 C1090 1.028 . S
C2821 C50 1.028 1_455 S
C2856 C1150 1.111 . S
C2851 C75 1.144 . S
C2886 C1171 1.184 . S
C2881 C399 1.221 . S
C2911 C292 1.268 . S
C2916 C1130 1.240 . S
C2941 C327 1.089 . S
C2946 C1195 1.063 . S
C2976 C1110 1.200 . S
C2971 C364 1.303 . S
C3006 C1047 1.208 . S
C3001 C400 1.308 . S
C3031 C291 1.046 . S
C3036 C1069 1.023 . S
C3066 C1091 1.247 . S
C3061 C328 1.276 . S
C3091 C363 1.193 . S
C3096 C1151 1.165 . S
C3126 C1172 1.228 . S
C3121 C362 1.253 . S
C3156 C961 1.052 . S
C3151 C194 1.058 . S
C3186 C986 1.234 . S
C3181 C218 1.256 . S
C3211 C266 1.299 1_554 S
C3216 C1005 1.221 . S
C3246 C1155 1.126 . S
C3241 C398 1.220 . S
C3271 C290 1.353 . S
C3276 C1196 1.329 . S
C3306 C940 1.039 . S
C3301 C230 1.046 . S
C3336 C903 1.105 . S
C3331 C158 1.170 . S
C3361 C508 1.158 . S
C3366 C1173 1.071 . S
C3396 C902 1.130 . S
C3391 C544 1.157 . S
C3426 C1197 1.232 . S
C3421 C446 1.298 . S
C3451 C471 1.100 . S
C3456 C943 1.073 . S
C3481 C542 1.187 . S
C3486 C1045 1.158 . S
C3511 C435 1.247 . S
C3516 C987 1.149 . S
C3541 C482 1.192 1_455 S
C3546 C1088 1.204 . S
C3571 C506 1.363 . S
C3576 C1028 1.339 . S
C3606 C1175 1.301 . S
C3601 C832 1.324 . S
C3631 C723 1.162 . S
C3636 C901 1.126 . S
C3666 C1193 1.200 . S
C3661 C760 1.226 . S
C3691 C795 1.305 . S
C3696 C942 1.201 . S
C3721 C831 1.334 . S
C3726 C1050 1.223 . S
C3756 C983 1.236 . S
C3751 C724 1.264 . S
C3781 C759 1.175 . S
C3786 C1087 1.141 . S
C3816 C1027 1.183 . S
C3811 C796 1.215 . S
C3846 C1174 1.240 . S
C3841 C794 1.268 . S
C3876 C965 1.286 . S
C3871 C626 1.280 . S
C3901 C650 1.171 . S
C3906 C1066 1.143 . S
C3936 C1008 1.224 . S
C3931 C698 1.284 . S
C3966 C1026 1.143 . S
C3961 C830 1.238 . S
C3991 C722 1.234 . S
C3996 C1192 1.205 . S
C4026 C1109 1.200 . S
C4021 C662 1.190 . S
C4056 C1131 1.228 . S
C4051 C590 1.293 . S
