# Generated by pormake.
# Topology zzz, (3,6)-cn, num edge types: 1
# Building blocks:
#     Node 0, Type 0, BuildingBlock: WUSLED_clean_sbu_0, # of connection points: 3
#     Node 1, Type 0, BuildingBlock: WUSLED_clean_sbu_0, # of connection points: 3
#     Node 2, Type 0, BuildingBlock: WUSLED_clean_sbu_0, # of connection points: 3
#     Node 3, Type 0, BuildingBlock: WUSLED_clean_sbu_0, # of connection points: 3
#     Node 4, Type 0, BuildingBlock: WUSLED_clean_sbu_0, # of connection points: 3
#     Node 5, Type 0, BuildingBlock: WUSLED_clean_sbu_0, # of connection points: 3
#     Node 6, Type 0, BuildingBlock: WUSLED_clean_sbu_0, # of connection points: 3
#     Node 7, Type 0, BuildingBlock: WUSLED_clean_sbu_0, # of connection points: 3
#     Node 8, Type 1, BuildingBlock: BETDIP_clean_sbu_0, # of connection points: 6
#     Node 9, Type 1, BuildingBlock: BETDIP_clean_sbu_0, # of connection points: 6
#     Node 10, Type 1, BuildingBlock: BETDIP_clean_sbu_0, # of connection points: 6
#     Node 11, Type 1, BuildingBlock: BETDIP_clean_sbu_0, # of connection points: 6
#     Edge 12, Type (0, 1), BuildingBlock: TEMPAE_clean_linker_10, # of connection points: 2
#     Edge 13, Type (0, 1), BuildingBlock: TEMPAE_clean_linker_10, # of connection points: 2
#     Edge 14, Type (0, 1), BuildingBlock: TEMPAE_clean_linker_10, # of connection points: 2
#     Edge 15, Type (0, 1), BuildingBlock: TEMPAE_clean_linker_10, # of connection points: 2
#     Edge 16, Type (0, 1), BuildingBlock: TEMPAE_clean_linker_10, # of connection points: 2
#     Edge 17, Type (0, 1), BuildingBlock: TEMPAE_clean_linker_10, # of connection points: 2
#     Edge 18, Type (0, 1), BuildingBlock: TEMPAE_clean_linker_10, # of connection points: 2
#     Edge 19, Type (0, 1), BuildingBlock: TEMPAE_clean_linker_10, # of connection points: 2
#     Edge 20, Type (0, 1), BuildingBlock: TEMPAE_clean_linker_10, # of connection points: 2
#     Edge 21, Type (0, 1), BuildingBlock: TEMPAE_clean_linker_10, # of connection points: 2
#     Edge 22, Type (0, 1), BuildingBlock: TEMPAE_clean_linker_10, # of connection points: 2
#     Edge 23, Type (0, 1), BuildingBlock: TEMPAE_clean_linker_10, # of connection points: 2
#     Edge 24, Type (0, 1), BuildingBlock: TEMPAE_clean_linker_10, # of connection points: 2
#     Edge 25, Type (0, 1), BuildingBlock: TEMPAE_clean_linker_10, # of connection points: 2
#     Edge 26, Type (0, 1), BuildingBlock: TEMPAE_clean_linker_10, # of connection points: 2
#     Edge 27, Type (0, 1), BuildingBlock: TEMPAE_clean_linker_10, # of connection points: 2
#     Edge 28, Type (0, 1), BuildingBlock: TEMPAE_clean_linker_10, # of connection points: 2
#     Edge 29, Type (0, 1), BuildingBlock: TEMPAE_clean_linker_10, # of connection points: 2
#     Edge 30, Type (0, 1), BuildingBlock: TEMPAE_clean_linker_10, # of connection points: 2
#     Edge 31, Type (0, 1), BuildingBlock: TEMPAE_clean_linker_10, # of connection points: 2
#     Edge 32, Type (0, 1), BuildingBlock: TEMPAE_clean_linker_10, # of connection points: 2
#     Edge 33, Type (0, 1), BuildingBlock: TEMPAE_clean_linker_10, # of connection points: 2
#     Edge 34, Type (0, 1), BuildingBlock: TEMPAE_clean_linker_10, # of connection points: 2
#     Edge 35, Type (0, 1), BuildingBlock: TEMPAE_clean_linker_10, # of connection points: 2
# Relax obj value: 0.409
# Max RMSD: 0.258
# Mean RMSD: 0.236
data_MOF--net-zzz--node1-WUSLED_clean_sbu_0--node2-BETDIP_clean_sbu_0--edge1-TEMPAE_clean_linker_10
_symmetry_space_group_name_H-M    P1
_symmetry_Int_Tables_number       1
_symmetry_cell_setting            triclinic
loop_
_symmetry_equiv_pos_as_xyz
'x, y, z'
_cell_length_a     64.235242
_cell_length_b     64.197564
_cell_length_c     19.858618
_cell_angle_alpha  89.826496
_cell_angle_beta   89.93084
_cell_angle_gamma 90.033666
loop_
_atom_site_label
_atom_site_type_symbol
_atom_site_fract_x
_atom_site_fract_y
_atom_site_fract_z
_atom_type_partial_charge
C0 C 0.77683 0.52308 0.44983 0.0
C1 C 0.79317 0.51995 0.40372 0.0
C2 C 0.81904 0.52349 0.49365 0.0
C3 C 0.81402 0.52015 0.42536 0.0
C4 C 0.80257 0.52686 0.53929 0.0
C5 C 0.78179 0.52665 0.51762 0.0
U6 U 0.7321 0.53057 0.32174 0.0
O7 O 0.69986 0.54193 0.33481 0.0
O8 O 0.70552 0.5099 0.30173 0.0
C9 C 0.69166 0.52468 0.31099 0.0
C10 C 0.75458 0.52199 0.42931 0.0
C11 C 0.6759 0.52714 0.25684 0.0
C12 C 0.63976 0.53254 0.22328 0.0
C13 C 0.65505 0.53115 0.27358 0.0
C14 C 0.66598 0.52614 0.13831 0.0
C15 C 0.64496 0.52983 0.15493 0.0
C16 C 0.68127 0.52488 0.1886 0.0
C17 C 0.77502 0.54908 0.20657 0.0
C18 C 0.80477 0.54609 0.13247 0.0
C19 C 0.80978 0.55627 0.24881 0.0
C20 C 0.78829 0.55499 0.25937 0.0
C21 C 0.81829 0.5515 0.18542 0.0
C22 C 0.78336 0.54498 0.14296 0.0
C23 C 0.75286 0.54507 0.21841 0.0
O24 O 0.74496 0.53986 0.42043 0.0
O25 O 0.74983 0.50815 0.38313 0.0
O26 O 0.74365 0.55719 0.26264 0.0
O27 O 0.74812 0.52528 0.22557 0.0
H28 H 0.78983 0.51718 0.35106 0.0
H29 H 0.82621 0.5178 0.38845 0.0
H30 H 0.80569 0.52921 0.5923 0.0
H31 H 0.76951 0.52901 0.55426 0.0
H32 H 0.62376 0.53523 0.23811 0.0
H33 H 0.65051 0.53292 0.32581 0.0
H34 H 0.67065 0.52428 0.08625 0.0
H35 H 0.69727 0.52193 0.17417 0.0
H36 H 0.81075 0.54179 0.08344 0.0
H37 H 0.81971 0.56058 0.29053 0.0
H38 H 0.78214 0.55801 0.30921 0.0
H39 H 0.77335 0.54013 0.10196 0.0
C40 C 1.00134 0.77517 0.44282 0.0
C41 C 0.02038 0.78586 0.4376 0.0
C42 C 1.00605 0.81578 0.49917 0.0
C43 C 0.02264 0.80599 0.46467 0.0
C44 C 0.98722 0.8046 0.50558 0.0
C45 C 0.98489 0.78475 0.47736 0.0
U46 U 1.00967 0.72977 0.31382 0.0
O47 O 1.01015 0.69574 0.33089 0.0
O48 O 0.98497 0.70981 0.27213 0.0
C49 C 0.99401 0.69244 0.29155 0.0
C50 C 0.99797 0.75401 0.41428 0.0
C51 C 0.99577 0.67573 0.23952 0.0
C52 C 0.01379 0.64599 0.18938 0.0
C53 C 0.01286 0.66202 0.23737 0.0
C54 C 0.98051 0.65683 0.14487 0.0
C55 C 0.99762 0.64314 0.14228 0.0
C56 C 0.97957 0.67278 0.19286 0.0
C57 C 0.04835 0.76431 0.22117 0.0
C58 C 0.07338 0.78568 0.16102 0.0
C59 C 0.05164 0.80097 0.24763 0.0
C60 C 0.04232 0.78166 0.25897 0.0
C61 C 0.06681 0.80335 0.19699 0.0
C62 C 0.06423 0.76627 0.17323 0.0
C63 C 0.03725 0.74452 0.22864 0.0
O64 O 0.98818 0.75314 0.35629 0.0
O65 O 0.01333 0.74052 0.4187 0.0
O66 O 0.0423 0.73335 0.28171 0.0
O67 O 0.01705 0.74567 0.21883 0.0
H68 H 0.03352 0.77869 0.41261 0.0
H69 H 0.03735 0.81392 0.45774 0.0
H70 H 0.9742 0.81102 0.5332 0.0
H71 H 0.97013 0.77675 0.48308 0.0
H72 H 0.02709 0.63565 0.18982 0.0
H73 H 0.02551 0.66355 0.273 0.0
H74 H 0.96788 0.65544 0.10909 0.0
H75 H 0.96605 0.68287 0.19341 0.0
H76 H 0.08481 0.787 0.1211 0.0
H77 H 0.04641 0.8142 0.27686 0.0
H78 H 0.02984 0.7804 0.29537 0.0
H79 H 0.06899 0.75297 0.14348 0.0
C80 C 0.73899 0.98933 0.44299 0.0
C81 C 0.73116 1.00945 0.45527 0.0
C82 C 0.69782 0.99499 0.49354 0.0
C83 C 0.7108 1.01224 0.47993 0.0
C84 C 0.70569 0.97494 0.48028 0.0
C85 C 0.72594 0.97218 0.45547 0.0
U86 U 0.78735 0.99719 0.32633 0.0
O87 O 0.80844 0.97275 0.28971 0.0
O88 O 0.82096 0.99838 0.34989 0.0
C89 C 0.82524 0.9822 0.31184 0.0
C90 C 0.76085 0.9855 0.42081 0.0
C91 C 0.84203 0.98501 0.26134 0.0
C92 C 0.87818 0.98006 0.22737 0.0
C93 C 0.86238 0.97855 0.27606 0.0
C94 C 0.85353 0.99478 0.14848 0.0
C95 C 0.87396 0.98803 0.16255 0.0
C96 C 0.83778 0.99333 0.19731 0.0
C97 C 0.75411 0.03479 0.22645 0.0
C98 C 0.73138 0.05378 0.15104 0.0
C99 C 0.7175 0.0384 0.25342 0.0
C100 C 0.73732 0.03117 0.27006 0.0
C101 C 0.71422 0.04919 0.19262 0.0
C102 C 0.7512 0.04658 0.16787 0.0
C103 C 0.77404 0.02444 0.23795 0.0
O104 O 0.76324 0.9755 0.36366 0.0
O105 O 0.77446 1.00064 0.42874 0.0
O106 O 0.78388 0.02975 0.2933 0.0
O107 O 0.77363 1.00424 0.22785 0.0
H108 H 0.74082 0.02303 0.44654 0.0
H109 H 0.70541 0.02791 0.48983 0.0
H110 H 0.69614 0.96128 0.48883 0.0
H111 H 0.73153 0.95649 0.44669 0.0
H112 H 0.89372 0.97502 0.24068 0.0
H113 H 0.86604 0.97212 0.32515 0.0
H114 H 0.84952 1.00074 0.09912 0.0
H115 H 0.82217 0.99838 0.18466 0.0
H116 H 0.7293 0.06183 0.1035 0.0
H117 H 0.7046 0.03481 0.28668 0.0
H118 H 0.73939 0.02197 0.31533 0.0
H119 H 0.76405 0.04937 0.1336 0.0
C120 C 0.50279 0.74919 0.45475 0.0
C121 C 0.48526 0.74011 0.48537 0.0
C122 C 0.50402 0.70739 0.50372 0.0
C123 C 0.48585 0.71955 0.50957 0.0
C124 C 0.52156 0.7165 0.47245 0.0
C125 C 0.52097 0.73714 0.44856 0.0
U126 U 0.51222 0.79358 0.32513 0.0
O127 O 0.4909 0.81905 0.29718 0.0
O128 O 0.52161 0.82638 0.33864 0.0
C129 C 0.50455 0.8337 0.31066 0.0
C130 C 0.50172 0.7713 0.43177 0.0
C131 C 0.50724 0.84986 0.25779 0.0
C132 C 0.49796 0.88401 0.21279 0.0
C133 C 0.49634 0.86872 0.26313 0.0
C134 C 0.5217 0.86195 0.15089 0.0
C135 C 0.51057 0.88084 0.15566 0.0
C136 C 0.52 0.84661 0.20129 0.0
C137 C 0.53489 0.75042 0.21973 0.0
C138 C 0.53 0.71858 0.15651 0.0
C139 C 0.54639 0.71727 0.26629 0.0
C140 C 0.54444 0.7389 0.27149 0.0
C141 C 0.5389 0.70685 0.20911 0.0
C142 C 0.52808 0.74014 0.16175 0.0
C143 C 0.52993 0.77265 0.22789 0.0
O144 O 0.51938 0.78161 0.42675 0.0
O145 O 0.48892 0.77524 0.38179 0.0
O146 O 0.50991 0.7768 0.2292 0.0
O147 O 0.5406 0.78282 0.27378 0.0
H148 H 0.47108 0.74905 0.49135 0.0
H149 H 0.47212 0.71336 0.53415 0.0
H150 H 0.53577 0.70765 0.46604 0.0
H151 H 0.53481 0.74369 0.42573 0.0
H152 H 0.48935 0.89839 0.2188 0.0
H153 H 0.4864 0.87159 0.30624 0.0
H154 H 0.53136 0.8588 0.10737 0.0
H155 H 0.52846 0.83212 0.19579 0.0
H156 H 0.52369 0.71104 0.11229 0.0
H157 H 0.55348 0.7087 0.30734 0.0
H158 H 0.54993 0.74651 0.31665 0.0
H159 H 0.52053 0.74871 0.12152 0.0
C160 C 0.23909 0.49567 0.97724 0.0
C161 C 0.22149 0.50057 0.01651 0.0
C162 C 0.19955 0.50229 0.91592 0.0
C163 C 0.20203 0.50403 0.98617 0.0
C164 C 0.2172 0.49746 0.87684 0.0
C165 C 0.23668 0.49426 0.90709 0.0
U166 U 0.28624 0.50735 0.09408 0.0
O167 O 0.30299 0.48469 0.15702 0.0
O168 O 0.3201 0.50249 0.08064 0.0
C169 C 0.32133 0.48965 0.13236 0.0
C170 C 0.25973 0.49083 1.00799 0.0
C171 C 0.33823 0.49312 0.18281 0.0
C172 C 0.37152 0.50847 0.21635 0.0
C173 C 0.35522 0.50641 0.16958 0.0
C174 C 0.35428 0.484 0.29045 0.0
C175 C 0.37135 0.49718 0.27739 0.0
C176 C 0.33808 0.48193 0.24384 0.0
C177 C 0.25485 0.55398 0.14325 0.0
C178 C 0.22906 0.57545 0.19847 0.0
C179 C 0.21897 0.55319 0.10573 0.0
C180 C 0.23967 0.5471 0.0979 0.0
C181 C 0.21324 0.56658 0.15856 0.0
C182 C 0.24969 0.56892 0.19152 0.0
C183 C 0.27448 0.54253 0.14864 0.0
O184 O 0.27553 0.50257 0.98941 0.0
O185 O 0.25998 0.48633 0.07263 0.0
O186 O 0.2724 0.52437 0.17848 0.0
O187 O 0.28587 0.5417 0.09364 0.0
H188 H 0.22268 0.5016 0.07079 0.0
H189 H 0.18879 0.50753 0.01801 0.0
H190 H 0.21596 0.49616 0.82262 0.0
H191 H 0.24988 0.49038 0.87553 0.0
H192 H 0.38446 0.5186 0.20403 0.0
H193 H 0.35608 0.51505 0.12275 0.0
H194 H 0.35332 0.47531 0.33717 0.0
H195 H 0.32542 0.47136 0.25558 0.0
H196 H 0.22531 0.58635 0.2382 0.0
H197 H 0.20736 0.54597 0.07394 0.0
H198 H 0.24358 0.53571 0.05991 0.0
H199 H 0.2613 0.57448 0.22672 0.0
C200 C 0.03172 0.23724 0.98037 0.0
C201 C 0.0485 0.22337 0.97413 0.0
C202 C 0.0257 0.19617 0.92935 0.0
C203 C 0.04556 0.20316 0.94922 0.0
C204 C 1.00877 0.20998 0.93691 0.0
C205 C 1.01174 0.23026 0.96198 0.0
U206 U 0.02206 0.28629 0.09133 0.0
O207 O 0.04589 0.30672 0.13526 0.0
O208 O 0.02266 0.31994 0.06674 0.0
C209 C 0.03773 0.32377 0.10977 0.0
C210 C 0.03584 0.25904 1.00268 0.0
C211 C 0.03415 0.34091 0.15846 0.0
C212 C 0.03749 0.37761 0.18826 0.0
C213 C 0.03957 0.36143 0.14128 0.0
C214 C 0.02428 0.35303 0.27038 0.0
C215 C 0.03001 0.37364 0.25386 0.0
C216 C 0.02626 0.3369 0.22325 0.0
C217 C 0.98098 0.25387 0.17796 0.0
C218 C 0.95685 0.23243 0.24127 0.0
C219 C 0.98098 0.21644 0.16288 0.0
C220 C 0.98861 0.23607 0.14554 0.0
C221 C 0.96557 0.21436 0.21286 0.0
C222 C 0.96461 0.25207 0.22414 0.0
C223 C 0.9917 0.27379 0.16971 0.0
O224 O 0.02171 0.27324 0.9887 0.0
O225 O 0.04395 0.26128 0.06298 0.0
O226 O 1.01139 0.27335 0.18752 0.0
O227 O 0.98849 0.28351 0.11232 0.0
H228 H 0.06407 0.22827 0.98789 0.0
H229 H 0.05895 0.19298 0.94573 0.0
H230 H 0.99326 0.20533 0.9219 0.0
H231 H 0.99843 0.24052 0.96614 0.0
H232 H 0.04173 0.39325 0.17299 0.0
H233 H 0.04565 0.36493 0.0916 0.0
H234 H 0.01874 0.34918 0.3204 0.0
H235 H 0.02199 0.3212 0.23789 0.0
H236 H 0.94474 0.23132 0.2791 0.0
H237 H 0.9882 0.20288 0.14052 0.0
H238 H 1.00132 0.23727 0.10984 0.0
H239 H 0.95853 0.26573 0.24932 0.0
C240 C 0.27755 0.02453 0.97643 0.0
C241 C 0.29537 0.02067 0.01577 0.0
C242 C 0.31708 0.01816 0.91477 0.0
C243 C 0.31483 0.01732 0.9853 0.0
C244 C 0.29924 0.02206 0.8756 0.0
C245 C 0.27975 0.02512 0.90604 0.0
U246 U 0.23176 1.01246 0.0983 0.0
O247 O 0.21416 0.03514 0.15816 0.0
O248 O 0.19756 0.01516 0.08686 0.0
C249 C 0.19596 0.02865 0.13646 0.0
C250 C 0.25682 0.02895 1.00723 0.0
C251 C 0.17974 0.02466 0.18898 0.0
C252 C 0.14426 0.01442 0.21959 0.0
C253 C 0.16008 0.01672 0.17114 0.0
C254 C 0.16736 0.02795 0.30492 0.0
C255 C 0.14761 0.02023 0.28707 0.0
C256 C 0.18315 0.03015 0.25671 0.0
C257 C 0.26581 0.9682 0.15257 0.0
C258 C 0.29306 0.94877 0.20851 0.0
C259 C 0.30113 0.96946 0.1096 0.0
C260 C 0.28014 0.97469 0.10359 0.0
C261 C 0.30802 0.9573 0.16428 0.0
C262 C 0.27214 0.95445 0.20328 0.0
C263 C 0.24572 0.97882 0.15788 0.0
O264 O 0.24156 0.01611 0.99206 0.0
O265 O 0.25665 0.03453 0.07088 0.0
O266 O 0.24716 0.99751 0.18419 0.0
O267 O 0.23388 0.97823 0.10397 0.0
H268 H 0.29433 0.0203 0.0702 0.0
H269 H 0.32824 0.01456 0.01714 0.0
H270 H 0.30033 0.02268 0.82121 0.0
H271 H 0.26636 0.02821 0.87442 0.0
H272 H 0.12922 1.00859 0.20381 0.0
H273 H 0.1568 1.01261 0.11937 0.0
H274 H 0.17067 0.03227 0.35648 0.0
H275 H 0.19799 0.03644 0.27268 0.0
H276 H 0.2977 0.93878 0.24988 0.0
H277 H 0.31206 0.97635 0.07447 0.0
H278 H 0.2753 0.9851 0.06363 0.0
H279 H 0.2612 0.94919 0.24127 0.0
C280 C 0.48574 0.28335 0.9696 0.0
C281 C 0.46863 0.29612 0.95443 0.0
C282 C 0.49159 0.32449 0.91832 0.0
C283 C 0.47148 0.31636 0.92931 0.0
C284 C 0.50878 0.31177 0.93479 0.0
C285 C 0.5059 0.29144 0.95996 0.0
U286 U 0.49494 0.23483 0.08424 0.0
O287 O 0.47104 0.21378 0.12516 0.0
O288 O 0.4956 0.20118 0.06043 0.0
C289 C 0.47996 0.19695 0.10106 0.0
C290 C 0.48189 0.26152 0.99227 0.0
C291 C 0.48313 0.17978 0.15022 0.0
C292 C 0.47971 0.14301 0.17971 0.0
C293 C 0.47804 0.15926 0.13252 0.0
C294 C 0.49187 0.16753 0.26314 0.0
C295 C 0.48645 0.14691 0.24604 0.0
C296 C 0.49028 0.18373 0.2158 0.0
C297 C 0.53398 0.26831 0.17601 0.0
C298 C 0.55787 0.28987 0.2392 0.0
C299 C 0.53382 0.30575 0.16023 0.0
C300 C 0.52626 0.28608 0.14335 0.0
C301 C 0.5492 0.3079 0.21008 0.0
C302 C 0.55023 0.2702 0.22242 0.0
C303 C 0.5237 0.24819 0.16686 0.0
O304 O 0.49667 0.24775 0.98134 0.0
O305 O 0.47289 0.25919 0.0513 0.0
O306 O 0.50374 0.24827 0.18139 0.0
O307 O 0.52806 0.23841 0.11054 0.0
H308 H 0.45292 0.29033 0.96141 0.0
H309 H 0.45783 0.32569 0.91875 0.0
H310 H 0.52451 0.31734 0.92679 0.0
H311 H 0.51944 0.28201 0.97116 0.0
H312 H 0.47572 0.12737 0.16405 0.0
H313 H 0.47252 0.1558 0.08224 0.0
H314 H 0.49686 0.1713 0.3137 0.0
H315 H 0.49429 0.19944 0.23084 0.0
H316 H 0.56995 0.29104 0.27702 0.0
H317 H 0.52664 0.31929 0.13738 0.0
H318 H 0.51364 0.28481 0.10749 0.0
H319 H 0.55638 0.25656 0.24778 0.0
Tb320 Tb 0.02553 0.99888 0.79238 0.0
Tb321 Tb 0.99762 1.0096 0.66922 0.0
C322 C 0.03694 0.98887 0.90847 0.0
C323 C 0.05135 0.97371 0.93761 0.0
C324 C 0.05044 0.96955 1.00668 0.0
C325 C 0.06228 0.95346 0.03424 0.0
C326 C 0.07524 0.94125 0.99297 0.0
C327 C 0.07695 0.94628 0.92415 0.0
C328 C 0.065 0.96236 0.89659 0.0
C329 C 0.04863 1.00457 0.6817 0.0
C330 C 0.01326 0.96341 0.68744 0.0
C331 C 0.97992 0.02172 0.56357 0.0
C332 C 0.97831 0.04022 0.52098 0.0
C333 C 0.99039 0.05796 0.53342 0.0
C334 C 0.98779 0.07578 0.49376 0.0
C335 C 0.97307 0.07601 0.44128 0.0
C336 C 0.96125 0.05803 0.42864 0.0
C337 C 0.96387 0.04027 0.46828 0.0
C338 C 0.97859 0.99545 0.77914 0.0
C339 C 0.01414 0.04621 0.76387 0.0
O340 O 0.02053 0.98086 0.87876 0.0
O341 O 0.04547 1.00406 0.87376 0.0
O342 O 0.02936 1.00638 0.69001 0.0
O343 O 0.05602 0.99894 0.73972 0.0
O344 O 0.01858 0.9678 0.75061 0.0
O345 O 1.00702 0.97795 0.64447 0.0
O346 O 0.99798 1.01224 0.56411 0.0
O347 O 0.97168 0.02332 0.62369 0.0
O348 O 0.99388 1.00768 0.77643 0.0
O349 O 0.97297 0.99125 0.71805 0.0
O350 O 1.00674 0.04097 0.70366 0.0
O351 O 0.02016 0.03203 0.80842 0.0
H352 H 0.03991 0.97819 0.03886 0.0
H353 H 0.06027 0.94979 0.08712 0.0
H354 H 0.0869 0.93727 0.8912 0.0
H355 H 0.06586 0.96545 0.84299 0.0
H356 H 1.00158 0.05812 0.57417 0.0
H357 H 0.99694 0.0895 0.5051 0.0
H358 H 0.94999 0.0577 0.38809 0.0
H359 H 0.95446 0.02662 0.45819 0.0
Tb360 Tb 0.50969 0.02529 0.73859 0.0
Tb361 Tb 0.50007 0.99363 0.62689 0.0
C362 C 0.52217 0.04623 0.83702 0.0
C363 C 0.54134 0.0483 0.87596 0.0
C364 C 0.55657 0.0327 0.87465 0.0
C365 C 0.57502 0.03524 0.91074 0.0
C366 C 0.57852 0.05348 0.94828 0.0
C367 C 0.56315 0.06905 0.94924 0.0
C368 C 0.54469 0.06645 0.9133 0.0
C369 C 0.49358 0.04104 0.62616 0.0
C370 C 0.54727 1.00521 0.6537 0.0
C371 C 0.49283 0.97805 0.51323 0.0
C372 C 0.47862 0.97956 0.45599 0.0
C373 C 0.46063 0.99185 0.45885 0.0
C374 C 0.44598 0.99081 0.40697 0.0
C375 C 0.44915 0.97741 0.35185 0.0
C376 C 0.46778 0.96603 0.34775 0.0
C377 C 0.48239 0.96711 0.39951 0.0
C378 C 0.50899 0.97343 0.74123 0.0
C379 C 0.46401 1.00938 0.72383 0.0
O380 O 0.51223 0.02848 0.84307 0.0
O381 O 0.52333 0.05268 0.77453 0.0
O382 O 0.50655 0.02637 0.63092 0.0
O383 O 0.48979 0.04777 0.68628 0.0
O384 O 0.54138 0.01716 0.70486 0.0
O385 O 0.53376 0.99472 0.61665 0.0
O386 O 0.50551 0.99371 0.52268 0.0
O387 O 0.48477 0.97109 0.56951 0.0
O388 O 0.5087 0.99272 0.73001 0.0
O389 O 0.50465 0.96458 0.68453 0.0
O390 O 0.46878 1.00315 0.66173 0.0
O391 O 0.47849 0.01573 0.76643 0.0
H392 H 0.55421 0.0186 0.84576 0.0
H393 H 0.58645 0.02285 0.90977 0.0
H394 H 0.56551 0.08335 0.97698 0.0
H395 H 0.53308 0.07869 0.9142 0.0
H396 H 0.45756 1.00156 0.50229 0.0
H397 H 0.43167 0.99959 0.41184 0.0
H398 H 0.47071 0.95576 0.3056 0.0
H399 H 0.4963 0.9576 0.39662 0.0
Tb400 Tb 0.4922 0.52216 0.7816 0.0
Tb401 Tb 0.52185 0.51204 0.6641 0.0
C402 C 0.48 0.53108 0.8984 0.0
C403 C 0.48834 0.54274 0.95555 0.0
C404 C 0.50804 0.55204 0.95172 0.0
C405 C 0.51536 0.56414 1.00496 0.0
C406 C 0.50288 0.56739 0.06215 0.0
C407 C 0.48341 0.55749 0.06663 0.0
C408 C 0.47624 0.54513 0.01372 0.0
C409 C 0.47004 0.51383 0.67119 0.0
C410 C 0.50717 0.55795 0.68167 0.0
C411 C 0.54094 0.50009 0.56085 0.0
C412 C 0.54215 0.48185 0.51726 0.0
C413 C 0.52928 0.46453 0.52802 0.0
C414 C 0.53125 0.447 0.4871 0.0
C415 C 0.5461 0.4466 0.4349 0.0
C416 C 0.55874 0.46415 0.42398 0.0
C417 C 0.55676 0.48165 0.46494 0.0
C418 C 0.53953 0.52748 0.77469 0.0
C419 C 0.50253 0.47477 0.75303 0.0
O420 O 0.48995 0.51395 0.88344 0.0
O421 O 0.47542 0.54213 0.8449 0.0
O422 O 0.48946 0.51384 0.67894 0.0
O423 O 0.4621 0.51839 0.72931 0.0
O424 O 0.50242 0.55312 0.74509 0.0
O425 O 0.51233 0.54342 0.63772 0.0
O426 O 0.52345 0.51056 0.55896 0.0
O427 O 0.54796 0.49753 0.62221 0.0
O428 O 0.52452 0.51493 0.77134 0.0
O429 O 0.54572 0.53116 0.71377 0.0
O430 O 0.51332 0.48044 0.69869 0.0
O431 O 0.49334 0.48849 0.79284 0.0
H432 H 0.51741 0.55054 0.90666 0.0
H433 H 0.53024 0.57195 0.99968 0.0
H434 H 0.47349 0.55988 0.11009 0.0
H435 H 0.461 0.53797 0.01734 0.0
H436 H 0.51792 0.4645 0.56839 0.0
H437 H 0.52148 0.43359 0.49723 0.0
H438 H 0.57013 0.46437 0.38372 0.0
H439 H 0.56676 0.49499 0.45608 0.0
Tb440 Tb 1.00628 0.49748 0.74351 0.0
Tb441 Tb 0.01756 0.52733 0.62425 0.0
C442 C 0.99328 0.48227 0.85207 0.0
C443 C 0.97859 0.48987 0.90257 0.0
C444 C 0.97037 0.51003 0.89678 0.0
C445 C 0.95722 0.51781 0.94653 0.0
C446 C 0.95172 0.50534 1.00194 0.0
C447 C 0.95987 0.48509 1.00744 0.0
C448 C 0.9734 0.47747 0.95822 0.0
C449 C 0.02059 0.47894 0.63346 0.0
C450 C 0.96993 0.51816 0.65385 0.0
C451 C 0.0252 0.54122 0.50819 0.0
C452 C 0.04134 0.54151 0.45625 0.0
C453 C 0.06012 0.53074 0.4646 0.0
C454 C 0.07596 0.53289 0.41674 0.0
C455 C 0.07321 0.54593 0.36026 0.0
C456 C 0.05405 0.55608 0.35122 0.0
C457 C 0.03824 0.55386 0.3989 0.0
C458 C 1.00868 0.54852 0.73704 0.0
C459 C 0.05285 0.5118 0.72348 0.0
O460 O 1.01029 0.49338 0.84693 0.0
O461 O 0.98538 0.4775 0.79322 0.0
O462 O 1.00929 0.49499 0.63631 0.0
O463 O 0.02255 0.47174 0.69413 0.0
O464 O 0.97522 0.50791 0.70967 0.0
O465 O 0.98392 0.52639 0.61257 0.0
O466 O 0.01599 0.52339 0.5196 0.0
O467 O 0.02957 0.55121 0.56371 0.0
O468 O 1.00899 0.52931 0.72649 0.0
O469 O 0.01318 0.55708 0.67972 0.0
O470 O 0.04848 0.51765 0.66067 0.0
O471 O 0.0381 0.50647 0.76695 0.0
H472 H 0.97409 0.51969 0.85363 0.0
H473 H 0.9508 0.53331 0.94059 0.0
H474 H 0.95567 0.4752 0.04962 0.0
H475 H 0.97974 0.46191 0.9634 0.0
H476 H 0.06271 0.52118 0.50888 0.0
H477 H 0.09066 0.52507 0.42535 0.0
H478 H 0.05145 0.56605 0.30793 0.0
H479 H 0.02376 0.56223 0.39184 0.0
C480 C 0.11768 1.00091 0.34178 0.0
C481 C 0.13068 0.0185 0.33886 0.0
C482 C 0.1026 0.99862 0.39297 0.0
C483 C 0.10034 0.01432 0.44257 0.0
C484 C 0.1129 0.03243 0.43841 0.0
C485 C 0.12786 0.03428 0.38688 0.0
C486 C 0.08962 0.97903 0.39546 0.0
C487 C 0.11102 0.04962 0.48978 0.0
C488 C 0.05293 0.01559 0.56015 0.0
C489 C 0.061 1.00641 0.61865 0.0
C490 C 0.06534 0.01795 0.50184 0.0
C491 C 0.08634 1.01101 0.50223 0.0
C492 C 0.09438 1.00151 0.56115 0.0
C493 C 0.08167 0.99938 0.61839 0.0
C494 C 0.05613 0.02823 0.44033 0.0
C495 C 0.1166 0.99387 0.56427 0.0
H496 H 0.11975 0.98856 0.3053 0.0
H497 H 0.13749 0.04813 0.38444 0.0
H498 H 0.09386 0.96977 0.44067 0.0
H499 H 0.07286 0.98299 0.3999 0.0
H500 H 0.09189 0.96918 0.35016 0.0
H501 H 0.12074 0.06337 0.47671 0.0
H502 H 0.09457 0.05469 0.49435 0.0
H503 H 0.11593 0.04374 0.53989 0.0
H504 H 0.03711 0.02137 0.56044 0.0
H505 H 0.08804 0.99228 0.66347 0.0
H506 H 0.05799 0.01798 0.39585 0.0
H507 H 0.06459 0.04293 0.42928 0.0
H508 H 0.03933 0.03186 0.44689 0.0
H509 H 0.11957 0.98262 0.52306 0.0
H510 H 0.12028 0.9862 0.61304 0.0
H511 H 0.12745 1.00714 0.55701 0.0
C512 C 0.50342 0.12915 0.34579 0.0
C513 C 0.48744 0.1297 0.29748 0.0
C514 C 0.50405 0.11363 0.39605 0.0
C515 C 0.48843 0.09803 0.3983 0.0
C516 C 0.47253 0.09817 0.34889 0.0
C517 C 0.47218 0.11398 0.29945 0.0
C518 C 0.52131 0.11414 0.44759 0.0
C519 C 0.45561 0.08184 0.3491 0.0
C520 C 0.50037 0.04948 0.50395 0.0
C521 C 0.49049 0.0542 0.56508 0.0
C522 C 0.49931 0.06323 0.44849 0.0
C523 C 0.48823 0.08227 0.45436 0.0
C524 C 0.47766 0.08672 0.51532 0.0
C525 C 0.47886 0.07264 0.56963 0.0
C526 C 0.5106 0.0577 0.38433 0.0
C527 C 0.46565 0.10674 0.52411 0.0
H528 H 0.51553 0.1409 0.34436 0.0
H529 H 0.45958 0.11427 0.26324 0.0
H530 H 0.5146 0.11624 0.49865 0.0
H531 H 0.52982 0.09911 0.44769 0.0
H532 H 0.5326 0.12692 0.43796 0.0
H533 H 0.44516 0.08324 0.30477 0.0
H534 H 0.46256 0.06603 0.3495 0.0
H535 H 0.44609 0.08332 0.39548 0.0
H536 H 0.50945 0.03532 0.50002 0.0
H537 H 0.47112 0.0764 0.61659 0.0
H538 H 0.5236 0.06879 0.37593 0.0
H539 H 0.49995 0.05908 0.3406 0.0
H540 H 0.51702 0.04164 0.38576 0.0
H541 H 0.47644 0.1202 0.52039 0.0
H542 H 0.45749 0.10746 0.5734 0.0
H543 H 0.45398 0.10848 0.48337 0.0
C544 C 0.39793 0.51848 0.34136 0.0
C545 C 0.3887 0.4991 0.32767 0.0
C546 C 0.4131 0.52066 0.39215 0.0
C547 C 0.41924 0.50307 0.43067 0.0
C548 C 0.41063 0.48334 0.41525 0.0
C549 C 0.39557 0.48159 0.36408 0.0
C550 C 0.42187 0.542 0.40658 0.0
C551 C 0.41667 0.46414 0.45473 0.0
C552 C 0.46699 0.5062 0.54645 0.0
C553 C 0.4577 0.51058 0.60872 0.0
C554 C 0.45478 0.50374 0.4878 0.0
C555 C 0.43278 0.50567 0.49167 0.0
C556 C 0.42343 0.50995 0.55474 0.0
C557 C 0.43596 0.51235 0.61211 0.0
C558 C 0.46541 0.49917 0.42171 0.0
C559 C 0.4001 0.51205 0.56179 0.0
H560 H 0.39274 0.53217 0.31409 0.0
H561 H 0.38898 0.46644 0.35311 0.0
H562 H 0.4162 0.54742 0.45633 0.0
H563 H 0.43912 0.54137 0.40911 0.0
H564 H 0.41729 0.55363 0.36783 0.0
H565 H 0.41006 0.44969 0.43276 0.0
H566 H 0.43386 0.46261 0.45679 0.0
H567 H 0.41101 0.46558 0.50733 0.0
H568 H 0.48374 0.50473 0.5435 0.0
H569 H 0.42861 0.51572 0.66003 0.0
H570 H 0.46194 0.51174 0.38495 0.0
H571 H 0.45932 0.48444 0.40031 0.0
H572 H 0.48257 0.49782 0.42716 0.0
H573 H 0.39437 0.5248 0.52885 0.0
H574 H 0.39526 0.51538 0.61438 0.0
H575 H 0.39237 0.49748 0.54528 0.0
C576 C 1.01217 0.39121 0.35216 0.0
C577 C 0.02857 0.39075 0.30522 0.0
C578 C 1.01113 0.40658 0.40252 0.0
C579 C 0.02675 0.42215 0.40621 0.0
C580 C 0.04306 0.42212 0.35811 0.0
C581 C 0.04383 0.40644 0.3086 0.0
C582 C 0.99345 0.40593 0.45269 0.0
C583 C 0.05999 0.43844 0.3598 0.0
C584 C 0.01407 0.47047 0.51121 0.0
C585 C 0.02368 0.46572 0.57277 0.0
C586 C 0.01547 0.4568 0.45586 0.0
C587 C 0.0265 0.43775 0.4624 0.0
C588 C 0.03662 0.43316 0.52406 0.0
C589 C 0.03514 0.44719 0.57818 0.0
C590 C 1.00462 0.46247 0.391 0.0
C591 C 0.0485 0.41308 0.53366 0.0
H592 H 1.00004 0.3795 0.34961 0.0
H593 H 0.05675 0.40622 0.27349 0.0
H594 H 0.99974 0.4037 0.50423 0.0
H595 H 0.98494 0.42096 0.45225 0.0
H596 H 0.98224 0.39318 0.44206 0.0
H597 H 0.07081 0.43715 0.31634 0.0
H598 H 0.05303 0.45426 0.35971 0.0
H599 H 0.0691 0.43685 0.40695 0.0
H600 H 1.0049 0.48455 0.50682 0.0
H601 H 0.04261 0.44337 0.62557 0.0
H602 H 0.99168 0.4514 0.38169 0.0
H603 H 0.01558 0.46119 0.34798 0.0
H604 H 0.99818 0.47852 0.39205 0.0
H605 H 0.03773 0.39965 0.52865 0.0
H606 H 0.05616 0.41217 0.5837 0.0
H607 H 0.06057 0.41148 0.49404 0.0
C608 C 0.89166 1.00572 0.06394 0.0
C609 C 0.89064 0.98896 0.10952 0.0
C610 C 0.90674 1.00643 0.01244 0.0
C611 C 0.92139 0.99004 1.00613 0.0
C612 C 0.92074 0.97326 0.05262 0.0
C613 C 0.90539 0.97288 0.10341 0.0
C614 C 0.90683 0.02463 0.96413 0.0
C615 C 0.93605 0.95549 0.048 0.0
C616 C 0.94578 0.98222 0.83256 0.0
C617 C 0.96493 0.99253 0.839 0.0
C618 C 0.93169 0.98098 0.88678 0.0
C619 C 0.93687 0.99016 0.94942 0.0
C620 C 0.9565 1.00001 0.95682 0.0
C621 C 0.97026 1.00114 0.90152 0.0
C622 C 0.91098 0.97033 0.8764 0.0
C623 C 0.96279 1.00982 0.02271 0.0
H624 H 0.88066 0.01843 0.0686 0.0
H625 H 0.90469 0.95969 0.13747 0.0
H626 H 0.92225 0.03242 0.9648 0.0
H627 H 0.90418 0.01901 0.91205 0.0
H628 H 0.89467 0.03633 0.97646 0.0
H629 H 0.9342 0.94415 0.08994 0.0
H630 H 0.93391 0.94716 0.99965 0.0
H631 H 0.95222 0.96157 0.0486 0.0
H632 H 0.94155 0.97552 0.78444 0.0
H633 H 0.98503 1.00914 0.90688 0.0
H634 H 0.89818 0.98175 0.88304 0.0
H635 H 0.90874 0.95791 0.91467 0.0
H636 H 0.90961 0.96331 0.82554 0.0
H637 H 0.9522 0.02297 0.0344 0.0
H638 H 0.97904 0.01575 0.02161 0.0
H639 H 0.9613 0.99833 0.06429 0.0
C640 C 0.53052 0.90153 0.06808 0.0
C641 C 0.51162 0.89689 0.10055 0.0
C642 C 0.53144 0.91586 0.01415 0.0
C643 C 0.51301 0.92576 0.99137 0.0
C644 C 0.494 0.92161 0.02522 0.0
C645 C 0.49354 0.90732 0.07919 0.0
C646 C 0.55208 0.91989 0.98011 0.0
C647 C 0.4739 0.93158 1.00251 0.0
C648 C 0.51491 0.97193 0.86765 0.0
C649 C 0.51132 0.96194 0.80607 0.0
C650 C 0.51589 0.96043 0.92849 0.0
C651 C 0.5131 0.93846 0.92764 0.0
C652 C 0.50982 0.92839 0.86523 0.0
C653 C 0.50904 0.94018 0.80565 0.0
C654 C 0.51961 0.97179 0.99372 0.0
C655 C 0.50671 0.90509 0.86132 0.0
H656 H 0.54465 0.89388 0.08469 0.0
H657 H 0.4788 0.90377 0.10321 0.0
H658 H 0.55179 0.91341 0.92838 0.0
H659 H 0.55491 0.93689 0.97549 0.0
H660 H 0.56527 0.91272 1.00787 0.0
H661 H 0.46082 0.92826 0.0376 0.0
H662 H 0.47582 0.9487 0.99813 0.0
H663 H 0.46968 0.92566 0.95189 0.0
H664 H 0.51677 0.98868 0.86839 0.0
H665 H 0.50629 0.93227 0.75834 0.0
H666 H 0.533 0.96479 0.02081 0.0
H667 H 0.50578 0.97016 0.02682 0.0
H668 H 0.52274 0.98864 0.98564 0.0
H669 H 0.52028 0.89691 0.88352 0.0
H670 H 0.50463 0.89959 0.80877 0.0
H671 H 0.49278 0.90051 0.89102 0.0
C672 C 0.61261 0.54542 0.1025 0.0
C673 C 0.62854 0.53041 0.10134 0.0
C674 C 0.59717 0.54607 0.05209 0.0
C675 C 0.59748 0.5313 0.9992 0.0
C676 C 0.61339 0.51601 0.99812 0.0
C677 C 0.62869 0.51578 0.04886 0.0
C678 C 0.58066 0.56276 0.05491 0.0
C679 C 0.61429 0.49983 0.94316 0.0
C680 C 0.5489 0.51944 0.89494 0.0
C681 C 0.5531 0.53015 0.83473 0.0
C682 C 0.5628 0.52027 0.94973 0.0
C683 C 0.58149 0.53194 0.94416 0.0
C684 C 0.58541 0.54335 0.88423 0.0
C685 C 0.5712 0.54232 0.83039 0.0
C686 C 0.55779 0.50811 0.01285 0.0
C687 C 0.60498 0.55614 0.87607 0.0
H688 H 0.61242 0.55693 0.14231 0.0
H689 H 0.64067 0.50391 0.04791 0.0
H690 H 0.58241 0.57341 0.01117 0.0
H691 H 0.56496 0.55567 0.05149 0.0
H692 H 0.58159 0.5721 0.10178 0.0
H693 H 0.62746 0.48881 0.94988 0.0
H694 H 0.59955 0.4908 0.94222 0.0
H695 H 0.61593 0.50757 0.89341 0.0
H696 H 0.53494 0.51002 0.89874 0.0
H697 H 0.57452 0.55068 0.78411 0.0
H698 H 0.55858 0.51843 0.05749 0.0
H699 H 0.56951 0.49562 0.02011 0.0
H700 H 0.54208 0.50089 1.01091 0.0
H701 H 0.60663 0.56715 0.9187 0.0
H702 H 0.60512 0.56516 0.82823 0.0
H703 H 0.61877 0.54574 0.87683 0.0
C704 C 0.01764 0.62157 0.05782 0.0
C705 C 0.99871 0.62635 0.08977 0.0
C706 C 0.01866 0.60691 1.00526 0.0
C707 C 1.0003 0.59673 0.98329 0.0
C708 C 0.98128 0.60081 0.01703 0.0
C709 C 0.98072 0.61551 0.06966 0.0
C710 C 0.03933 0.60293 0.9714 0.0
C711 C 0.96132 0.59028 0.99584 0.0
C712 C 1.00034 0.58128 0.79813 0.0
C713 C 1.0048 0.55992 0.80088 0.0
C714 C 0.99819 0.59317 0.85704 0.0
C715 C 1.00073 0.58358 0.92086 0.0
C716 C 1.00472 0.56184 0.92407 0.0
C717 C 1.00681 0.5503 0.86397 0.0
C718 C 0.99367 0.61618 0.85079 0.0
C719 C 1.00741 0.55089 0.9908 0.0
H720 H 0.03164 0.62986 0.07219 0.0
H721 H 0.96606 0.61863 0.0947 0.0
H722 H 0.04238 0.58595 0.96853 0.0
H723 H 0.03891 0.609 0.91905 0.0
H724 H 0.05246 0.61049 0.9983 0.0
H725 H 0.94847 0.593 0.03225 0.0
H726 H 0.95648 0.59635 0.94589 0.0
H727 H 0.96367 0.57324 0.99053 0.0
H728 H 0.99879 0.58883 0.74948 0.0
H729 H 1.01065 0.53391 0.86638 0.0
H730 H 1.00692 0.62528 0.87116 0.0
H731 H 0.9797 0.62026 0.88088 0.0
H732 H 0.99102 0.62106 0.79776 0.0
H733 H 0.02162 0.55679 0.01612 0.0
H734 H 1.00879 0.53374 0.98498 0.0
H735 H 0.99402 0.55426 0.02438 0.0
C736 C 0.96028 0.19105 0.31198 0.0
C737 C 0.96099 0.19354 0.24182 0.0
C738 C 0.9598 0.17122 0.34131 0.0
C739 C 0.96013 0.15344 0.29944 0.0
C740 C 0.95953 0.15579 0.2286 0.0
C741 C 0.95995 0.17587 0.20055 0.0
C742 C 0.96037 0.16933 0.41715 0.0
C743 C 0.95969 0.13715 0.18246 0.0
C744 C 0.98672 0.1068 0.37803 0.0
C745 C 0.96969 0.09512 0.4009 0.0
C746 C 0.98376 0.12548 0.34273 0.0
C747 C 0.96327 0.13261 0.33012 0.0
C748 C 0.946 0.12058 0.35128 0.0
C749 C 0.94943 0.10196 0.38657 0.0
C750 C 1.00258 0.13788 0.32066 0.0
C751 C 0.92396 0.12775 0.33878 0.0
H752 H 0.9614 0.20457 0.34432 0.0
H753 H 0.96021 0.17773 0.14628 0.0
H754 H 0.94829 0.15825 0.43501 0.0
H755 H 0.97571 0.16308 0.43304 0.0
H756 H 0.95789 0.18454 0.4424 0.0
H757 H 0.95662 0.14155 0.12924 0.0
H758 H 0.97511 0.12941 0.18508 0.0
H759 H 0.94786 0.12557 0.1987 0.0
H760 H 1.00239 0.10137 0.3881 0.0
H761 H 0.93621 0.09305 0.40474 0.0
H762 H 1.00285 0.15305 0.34729 0.0
H763 H 1.00172 0.14126 0.26592 0.0
H764 H 0.01741 0.1296 0.33115 0.0
H765 H 0.92078 0.14196 0.36875 0.0
H766 H 0.91232 0.11567 0.35269 0.0
H767 H 0.92182 0.13193 0.28499 0.0
C768 C 0.33682 0.95815 0.24846 0.0
C769 C 0.33058 0.95638 0.18102 0.0
C770 C 0.35779 0.96027 0.26572 0.0
C771 C 0.37304 0.96098 0.21429 0.0
C772 C 0.36707 0.95846 0.14622 0.0
C773 C 0.34588 0.95614 0.13037 0.0
C774 C 0.36352 0.96264 0.33916 0.0
C775 C 0.38278 0.95922 0.08969 0.0
C776 C 0.41994 0.98996 0.27886 0.0
C777 C 0.43205 0.97348 0.30352 0.0
C778 C 0.4015 0.98608 0.24331 0.0
C779 C 0.39497 0.96525 0.2332 0.0
C780 C 0.40806 0.94862 0.25275 0.0
C781 C 0.42647 0.95293 0.28777 0.0
C782 C 0.38823 1.00423 0.22112 0.0
C783 C 0.40176 0.92622 0.24183 0.0
H784 H 0.32523 0.95891 0.28806 0.0
H785 H 0.34129 0.95462 0.07811 0.0
H786 H 0.37563 0.95112 0.35324 0.0
H787 H 0.37009 0.97839 0.34787 0.0
H788 H 0.34992 0.96048 0.37313 0.0
H789 H 0.37701 0.95087 0.0445 0.0
H790 H 0.38554 0.97571 0.07534 0.0
H791 H 0.39792 0.95238 0.10487 0.0
H792 H 0.42446 1.00587 0.28976 0.0
H793 H 0.43575 0.9401 0.30679 0.0
H794 H 0.37425 1.00525 0.25386 0.0
H795 H 0.38277 1.00193 0.16868 0.0
H796 H 0.39678 0.01925 0.22401 0.0
H797 H 0.38897 0.92213 0.2771 0.0
H798 H 0.41491 0.91531 0.25053 0.0
H799 H 0.39584 0.92399 0.18988 0.0
C800 C 0.55551 0.34622 0.1953 0.0
C801 C 0.55399 0.32878 0.23773 0.0
C802 C 0.55654 0.36641 0.22204 0.0
C803 C 0.55598 0.36909 0.29272 0.0
C804 C 0.55568 0.35149 0.33574 0.0
C805 C 0.55465 0.33155 0.30771 0.0
C806 C 0.55709 0.38484 0.17471 0.0
C807 C 0.55509 0.35373 0.41145 0.0
C808 C 0.56873 0.42012 0.37861 0.0
C809 C 0.54874 0.42769 0.39323 0.0
C810 C 0.57141 0.40146 0.34312 0.0
C811 C 0.55368 0.39015 0.32217 0.0
C812 C 0.53349 0.39812 0.33461 0.0
C813 C 0.53128 0.41682 0.36999 0.0
C814 C 0.59316 0.39343 0.3306 0.0
C815 C 0.5142 0.3865 0.31278 0.0
H816 H 0.55526 0.34413 0.14116 0.0
H817 H 0.55316 0.31819 0.34088 0.0
H818 H 0.54199 0.39319 0.17697 0.0
H819 H 0.56937 0.39601 0.19011 0.0
H820 H 0.55996 0.3801 0.12174 0.0
H821 H 0.55676 0.33852 0.43772 0.0
H822 H 0.56768 0.36425 0.42869 0.0
H823 H 0.54006 0.36081 0.4268 0.0
H824 H 0.58228 0.4284 0.39696 0.0
H825 H 0.51583 0.42284 0.38016 0.0
H826 H 0.59505 0.38886 0.27712 0.0
H827 H 0.59588 0.37931 0.3617 0.0
H828 H 0.60524 0.40517 0.34323 0.0
H829 H 0.51503 0.3829 0.25825 0.0
H830 H 0.49973 0.39547 0.32255 0.0
H831 H 0.51319 0.37145 0.34023 0.0
C832 C 0.17494 0.56776 0.13076 0.0
C833 C 0.19098 0.56834 0.1788 0.0
C834 C 0.15404 0.56557 0.15048 0.0
C835 C 0.14911 0.56411 0.21981 0.0
C836 C 0.16506 0.56595 0.26848 0.0
C837 C 0.18574 0.56788 0.24744 0.0
C838 C 0.13749 0.56364 0.09694 0.0
C839 C 0.16043 0.56472 0.34306 0.0
C840 C 0.09572 0.57086 0.29647 0.0
C841 C 0.09085 0.55025 0.31418 0.0
C842 C 0.11399 0.57556 0.26089 0.0
C843 C 0.12765 0.55925 0.2427 0.0
C844 C 0.12204 0.5383 0.25607 0.0
C845 C 0.10372 0.53405 0.29206 0.0
C846 C 0.11939 0.59806 0.24707 0.0
C847 C 0.13602 0.52045 0.23615 0.0
H848 H 0.17875 0.56837 0.07761 0.0
H849 H 0.19789 0.56783 0.28521 0.0
H850 H 0.13362 0.54694 0.0899 0.0
H851 H 0.123 0.57182 0.11184 0.0
H852 H 0.14289 0.56999 0.04782 0.0
H853 H 0.17436 0.56805 0.37432 0.0
H854 H 0.148 0.57594 0.3567 0.0
H855 H 0.15469 0.54889 0.35597 0.0
H856 H 0.08584 0.58345 0.31369 0.0
H857 H 0.09977 0.51808 0.30463 0.0
H858 H 0.12489 0.60006 0.19446 0.0
H859 H 0.13225 0.60292 0.2808 0.0
H860 H 0.10591 0.60857 0.25561 0.0
H861 H 0.14095 0.52211 0.18284 0.0
H862 H 0.12828 0.5051 0.24273 0.0
H863 H 0.15029 0.52068 0.26758 0.0
C864 C 0.09446 0.82823 0.1562 0.0
C865 C 0.07382 0.82446 0.17627 0.0
C866 C 0.10034 0.84759 0.12892 0.0
C867 C 0.08516 0.86338 0.12127 0.0
C868 C 0.06458 0.85996 0.14445 0.0
C869 C 0.05918 0.84057 0.17137 0.0
C870 C 0.12247 0.85073 0.10546 0.0
C871 C 0.04787 0.87642 0.13747 0.0
C872 C 0.09162 0.9206 0.08632 0.0
C873 C 0.08415 0.92162 0.02001 0.0
C874 C 0.09447 0.90133 0.11852 0.0
C875 C 0.08971 0.8828 0.08337 0.0
C876 C 0.08474 0.88371 0.01402 0.0
C877 C 0.08195 0.90314 0.98317 0.0
C878 C 0.10038 0.90096 0.19202 0.0
C879 C 0.07987 0.86428 0.97436 0.0
H880 H 0.10592 0.81591 0.16056 0.0
H881 H 0.04312 0.83773 0.18555 0.0
H882 H 0.12316 0.84901 0.04993 0.0
H883 H 0.12809 0.8666 0.11783 0.0
H884 H 0.13319 0.83911 0.12824 0.0
H885 H 0.03302 0.87172 0.16188 0.0
H886 H 0.05314 0.89127 0.16026 0.0
H887 H 0.04479 0.87945 0.08335 0.0
H888 H 0.09389 0.93485 0.1145 0.0
H889 H 0.07619 0.90372 0.93192 0.0
H890 H 0.11099 0.88776 0.20316 0.0
H891 H 0.08613 0.89883 0.22296 0.0
H892 H 0.10799 0.91572 0.20754 0.0
H893 H 0.09135 0.85184 0.98532 0.0
H894 H 0.07978 0.86731 0.91924 0.0
H895 H 0.06427 0.85839 0.9892 0.0
C896 C 0.6779 0.03734 0.17196 0.0
C897 C 0.69284 0.05323 0.16817 0.0
C898 C 0.65859 0.03943 0.14018 0.0
C899 C 0.65412 0.05787 0.10382 0.0
C900 C 0.66865 0.07444 0.10287 0.0
C901 C 0.68793 0.07189 0.13496 0.0
C902 C 0.6435 0.02137 0.14213 0.0
C903 C 0.66426 0.09443 0.0653 0.0
C904 C 0.61713 0.05008 0.95818 0.0
C905 C 0.5981 0.05614 0.98661 0.0
C906 C 0.63562 0.05128 0.99517 0.0
C907 C 0.63507 0.05886 0.06201 0.0
C908 C 0.61607 0.06578 0.09013 0.0
C909 C 0.59775 0.06425 0.05213 0.0
C910 C 0.65563 0.04375 0.96346 0.0
C911 C 0.61496 0.07408 0.1611 0.0
H912 H 0.68171 0.02276 0.19669 0.0
H913 H 0.69939 0.08427 0.13256 0.0
H914 H 0.62784 0.02675 0.15793 0.0
H915 H 0.64194 0.01467 0.09094 0.0
H916 H 0.64863 1.00884 0.17706 0.0
H917 H 0.67603 0.10666 0.07609 0.0
H918 H 0.66428 0.09138 1.01033 0.0
H919 H 0.64861 0.10047 0.07863 0.0
H920 H 0.61753 0.04422 0.90706 0.0
H921 H 0.58306 0.06882 0.07452 0.0
H922 H 0.66153 0.03001 0.99158 0.0
H923 H 0.66773 0.05604 0.96636 0.0
H924 H 0.65356 0.0393 0.90985 0.0
H925 H 0.61813 0.0613 0.19738 0.0
H926 H 0.59947 0.08084 0.1729 0.0
H927 H 0.62703 0.0862 0.16894 0.0
C928 C 0.53307 0.67156 0.26087 0.0
C929 C 0.53898 0.68376 0.20519 0.0
C930 C 0.5295 0.65008 0.25396 0.0
C931 C 0.53146 0.64084 0.18965 0.0
C932 C 0.53904 0.65277 0.13475 0.0
C933 C 0.54294 0.67402 0.14348 0.0
C934 C 0.52236 0.63766 0.3144 0.0
C935 C 0.54151 0.64351 0.0653 0.0
C936 C 0.52895 0.58447 0.13767 0.0
C937 C 0.50878 0.58366 0.11102 0.0
C938 C 0.53602 0.60235 0.17114 0.0
C939 C 0.52274 0.61987 0.17604 0.0
C940 C 0.50175 0.61829 0.15483 0.0
C941 C 0.49499 0.60011 0.12294 0.0
C942 C 0.55819 0.60302 0.19596 0.0
C943 C 0.48702 0.63658 0.15903 0.0
H944 H 0.53006 0.67893 0.30894 0.0
H945 H 0.54815 0.68326 0.10089 0.0
H946 H 0.50518 0.636 0.31311 0.0
H947 H 0.52917 0.62178 0.31407 0.0
H948 H 0.52662 0.64546 0.36233 0.0
H949 H 0.54852 0.65468 0.02891 0.0
H950 H 0.55147 0.62943 0.0675 0.0
H951 H 0.52606 0.63867 0.04582 0.0
H952 H 0.53946 0.57152 0.12966 0.0
H953 H 0.47939 0.59949 0.10224 0.0
H954 H 0.55979 0.61324 0.24063 0.0
H955 H 0.56838 0.60926 0.15551 0.0
H956 H 0.56384 0.58717 0.20918 0.0
H957 H 0.48734 0.64351 0.21006 0.0
H958 H 0.47072 0.63211 0.14707 0.0
H959 H 0.49202 0.64881 0.12281 0.0
C960 C 0.84972 0.55603 0.11259 0.0
C961 C 0.84117 0.55038 0.175 0.0
C962 C 0.87019 0.5507 0.09586 0.0
C963 C 0.88264 0.54008 0.14368 0.0
C964 C 0.87493 0.53655 0.2095 0.0
C965 C 0.85413 0.54146 0.22417 0.0
C966 C 0.87776 0.55471 0.0249 0.0
C967 C 0.88808 0.52615 0.26282 0.0
C968 C 0.91774 0.50102 0.05943 0.0
C969 C 0.93581 0.5128 0.04964 0.0
C970 C 0.90069 0.50933 0.09399 0.0
C971 C 0.902 0.52975 0.12057 0.0
C972 C 0.9209 0.54102 0.1158 0.0
C973 C 0.93754 0.53252 0.07924 0.0
C974 C 0.88074 0.49688 0.09706 0.0
C975 C 0.92318 0.56248 0.14569 0.0
H976 H 0.84002 0.56361 0.07522 0.0
H977 H 0.84775 0.53709 0.27276 0.0
H978 H 0.89307 0.56266 0.02555 0.0
H979 H 0.87985 0.53964 0.99847 0.0
H980 H 0.86669 0.56439 0.99541 0.0
H981 H 0.88185 0.52902 0.3142 0.0
H982 H 0.88825 0.50909 0.25428 0.0
H983 H 0.90441 0.53177 0.26041 0.0
H984 H 0.91643 0.48583 0.03605 0.0
H985 H 0.95167 0.54151 0.07207 0.0
H986 H 0.86853 0.50485 0.06699 0.0
H987 H 0.87502 0.49581 0.14965 0.0
H988 H 0.88271 0.48083 0.07723 0.0
H989 H 0.91596 0.57412 0.1116 0.0
H990 H 0.93981 0.56677 0.15235 0.0
H991 H 0.91516 0.56347 0.19511 0.0
C992 C 1.00521 0.16261 0.91576 0.0
C993 C 0.02287 0.17469 0.90037 0.0
C994 C 1.00284 0.1422 0.89053 0.0
C995 C 0.0185 0.13344 0.84887 0.0
C996 C 0.03614 0.14567 0.83212 0.0
C997 C 0.03807 0.16605 0.85771 0.0
C998 C 0.98376 0.12981 0.90983 0.0
C999 C 0.05328 0.13708 0.78815 0.0
C1000 C 0.02451 0.0742 0.8458 0.0
C1001 C 0.01528 0.06867 0.78416 0.0
C1002 C 0.02557 0.09507 0.86717 0.0
C1003 C 0.01713 0.11109 0.82634 0.0
C1004 C 1.00777 0.1057 0.76402 0.0
C1005 C 1.007 0.08462 0.74362 0.0
C1006 C 0.03585 0.09995 0.93365 0.0
C1007 C 0.99848 0.1222 0.71896 0.0
H1008 H 0.99342 0.16889 0.94904 0.0
H1009 H 0.05158 0.17525 0.84405 0.0
H1010 H 0.97598 0.12373 0.86405 0.0
H1011 H 0.98838 0.11617 0.94082 0.0
H1012 H 0.97237 0.13921 0.93887 0.0
H1013 H 0.06559 0.1488 0.77744 0.0
H1014 H 0.06056 0.12345 0.81324 0.0
H1015 H 0.04676 0.13157 0.73966 0.0
H1016 H 0.03104 0.06217 0.8778 0.0
H1017 H 0.99977 0.08065 0.69607 0.0
H1018 H 0.02466 0.10797 0.96735 0.0
H1019 H 0.04916 0.11069 0.92549 0.0
H1020 H 0.04163 0.08575 0.95968 0.0
H1021 H 0.98611 0.13074 0.74644 0.0
H1022 H 0.99171 0.11555 0.67227 0.0
H1023 H 1.01058 0.13375 0.70473 0.0
C1024 C 0.35174 0.99984 0.9035 0.0
C1025 C 0.33801 0.01557 0.8823 0.0
C1026 C 0.37164 0.9976 0.87428 0.0
C1027 C 0.37829 1.0117 0.82341 0.0
C1028 C 0.36441 0.02748 0.8014 0.0
C1029 C 0.34448 0.02912 0.83064 0.0
C1030 C 0.38571 0.98042 0.89917 0.0
C1031 C 0.37087 0.0431 0.74838 0.0
C1032 C 0.43671 0.02125 0.80568 0.0
C1033 C 0.44188 1.00998 0.74737 0.0
C1034 C 0.4162 0.02197 0.83041 0.0
C1035 C 0.40021 1.01094 0.79679 0.0
C1036 C 0.40525 0.99947 0.73794 0.0
C1037 C 0.42596 0.99925 0.71363 0.0
C1038 C 0.41164 0.03464 0.89268 0.0
C1039 C 0.3888 0.98719 0.70119 0.0
H1040 H 0.34688 0.98916 0.9429 0.0
H1041 H 0.33413 0.04147 0.81438 0.0
H1042 H 0.39351 0.97251 0.85641 0.0
H1043 H 0.39804 0.98715 0.93158 0.0
H1044 H 0.37705 0.96859 0.92903 0.0
H1045 H 0.35801 0.05384 0.7345 0.0
H1046 H 0.38415 0.05249 0.76719 0.0
H1047 H 0.37624 0.03496 0.70236 0.0
H1048 H 0.44874 0.02975 0.83217 0.0
H1049 H 0.42973 0.99041 0.66885 0.0
H1050 H 0.40547 0.02437 0.93306 0.0
H1051 H 0.3995 0.04644 0.88154 0.0
H1052 H 0.42568 0.04276 0.91205 0.0
H1053 H 0.38172 0.97557 0.73582 0.0
H1054 H 0.39517 0.97892 0.65665 0.0
H1055 H 0.37615 0.99772 0.68427 0.0
C1056 C 0.48096 0.35352 0.83903 0.0
C1057 C 0.49442 0.34601 0.88939 0.0
C1058 C 0.48275 0.37393 0.81325 0.0
C1059 C 0.49848 0.38738 0.83787 0.0
C1060 C 0.51246 0.37979 0.88748 0.0
C1061 C 0.51027 0.35929 0.91257 0.0
C1062 C 0.46748 0.38124 0.76051 0.0
C1063 C 0.52947 0.3935 0.91535 0.0
C1064 C 0.51218 0.43676 0.73733 0.0
C1065 C 0.50108 0.4522 0.7723 0.0
C1066 C 0.51154 0.41567 0.75791 0.0
C1067 C 0.49947 0.40972 0.81476 0.0
C1068 C 0.48807 0.4252 0.84966 0.0
C1069 C 0.48904 0.4461 0.8282 0.0
C1070 C 0.52394 0.39975 0.71915 0.0
C1071 C 0.47487 0.4197 0.91015 0.0
H1072 H 0.46891 0.34339 0.8195 0.0
H1073 H 0.52068 0.35387 0.95177 0.0
H1074 H 0.4581 0.39433 0.78067 0.0
H1075 H 0.47594 0.38717 0.71565 0.0
H1076 H 0.45672 0.36866 0.74437 0.0
H1077 H 0.53982 0.38498 0.95074 0.0
H1078 H 0.53905 0.39995 0.87369 0.0
H1079 H 0.52246 0.40689 0.94233 0.0
H1080 H 0.5216 0.44117 0.69426 0.0
H1081 H 0.48033 0.45773 0.85588 0.0
H1082 H 0.51351 0.38727 0.70046 0.0
H1083 H 0.53551 0.39227 0.75292 0.0
H1084 H 0.5323 0.40673 0.67556 0.0
H1085 H 0.46296 0.408 0.89595 0.0
H1086 H 0.46684 0.43349 0.93165 0.0
H1087 H 0.48471 0.41259 0.94991 0.0
C1088 C 0.17184 0.4909 0.83384 0.0
C1089 C 0.17857 0.50485 0.8837 0.0
C1090 C 0.15192 0.49257 0.80465 0.0
C1091 C 0.13829 0.50875 0.82496 0.0
C1092 C 0.14516 0.52318 0.8742 0.0
C1093 C 0.16508 0.52095 0.90329 0.0
C1094 C 0.14521 0.47659 0.75343 0.0
C1095 C 0.13133 0.54078 0.89715 0.0
C1096 C 0.09111 0.52112 0.71304 0.0
C1097 C 0.07491 0.51097 0.74757 0.0
C1098 C 0.11174 0.52077 0.73781 0.0
C1099 C 0.11643 0.50971 0.79799 0.0
C1100 C 0.10016 0.49924 0.83241 0.0
C1101 C 0.07973 0.50011 0.80718 0.0
C1102 C 0.12851 0.53239 0.69998 0.0
C1103 C 0.10434 0.48699 0.89602 0.0
H1104 H 0.18198 0.47824 0.81888 0.0
H1105 H 0.17015 0.53194 0.94123 0.0
H1106 H 0.13171 0.46766 0.77316 0.0
H1107 H 0.14009 0.48442 0.70642 0.0
H1108 H 0.15787 0.46547 0.74094 0.0
H1109 H 0.13976 0.55203 0.92964 0.0
H1110 H 0.12491 0.54927 0.85309 0.0
H1111 H 0.11797 0.53441 0.92604 0.0
H1112 H 0.08762 0.52964 0.66723 0.0
H1113 H 0.06747 0.49205 0.83429 0.0
H1114 H 0.14094 0.52146 0.68417 0.0
H1115 H 0.13581 0.54411 0.73347 0.0
H1116 H 0.12238 0.54046 0.65459 0.0
H1117 H 0.11617 0.47478 0.88611 0.0
H1118 H 0.09009 0.4794 0.91621 0.0
H1119 H 0.11077 0.4974 0.93531 0.0
C1120 C 0.02735 0.84478 0.55303 0.0
C1121 C 1.00817 0.8374 0.52834 0.0
C1122 C 0.02936 0.86498 0.58039 0.0
C1123 C 1.01172 0.87818 0.58484 0.0
C1124 C 0.99232 0.87082 0.56075 0.0
C1125 C 0.99085 0.85081 0.53216 0.0
C1126 C 0.05045 0.87226 0.6041 0.0
C1127 C 0.97301 0.88418 0.56486 0.0
C1128 C 1.01153 0.92449 0.70676 0.0
C1129 C 0.01419 0.94145 0.6628 0.0
C1130 C 1.01091 0.90383 0.68239 0.0
C1131 C 0.01356 0.89992 0.61253 0.0
C1132 C 0.01704 0.91698 0.56846 0.0
C1133 C 0.01705 0.93744 0.59389 0.0
C1134 C 1.00676 0.88624 0.73114 0.0
C1135 C 0.02048 0.91367 0.49403 0.0
H1136 H 0.04086 0.83472 0.55173 0.0
H1137 H 0.97602 0.84581 0.51204 0.0
H1138 H 0.05498 0.88665 0.57669 0.0
H1139 H 0.0498 0.87617 0.65842 0.0
H1140 H 0.06273 0.86032 0.59631 0.0
H1141 H 0.95885 0.87579 0.54773 0.0
H1142 H 0.97052 0.88943 0.61745 0.0
H1143 H 0.97501 0.89832 0.53331 0.0
H1144 H 1.00921 0.9274 0.75998 0.0
H1145 H 0.01937 0.95039 0.55951 0.0
H1146 H 0.01928 0.8744 0.72772 0.0
H1147 H 0.99194 0.87841 0.71772 0.0
H1148 H 1.0057 0.89171 0.78405 0.0
H1149 H 0.03318 0.90223 0.48591 0.0
H1150 H 0.02453 0.92835 0.46731 0.0
H1151 H 1.00619 0.90713 0.47096 0.0
C1152 C 0.66316 0.01377 0.49916 0.0
C1153 C 0.67627 0.99771 0.52189 0.0
C1154 C 0.64261 0.01584 0.52352 0.0
C1155 C 0.63482 1.00155 0.57206 0.0
C1156 C 0.64813 0.98562 0.59635 0.0
C1157 C 0.66858 0.9839 0.57114 0.0
C1158 C 0.62903 0.03304 0.49593 0.0
C1159 C 0.64063 0.97007 0.64816 0.0
C1160 C 0.58517 0.01491 0.67081 0.0
C1161 C 0.56985 1.00391 0.635 0.0
C1162 C 0.60632 0.0143 0.65121 0.0
C1163 C 0.61243 1.00244 0.59428 0.0
C1164 C 0.59706 0.9912 0.55838 0.0
C1165 C 0.57611 0.99205 0.57907 0.0
C1166 C 0.62213 0.02647 0.69118 0.0
C1167 C 0.60273 0.97829 0.49761 0.0
H1168 H 0.66876 0.02444 0.46082 0.0
H1169 H 0.6786 0.97167 0.59022 0.0
H1170 H 0.61574 0.02619 0.46803 0.0
H1171 H 0.62245 0.04237 0.53778 0.0
H1172 H 0.63769 0.04361 0.46145 0.0
H1173 H 0.65314 0.95925 0.66447 0.0
H1174 H 0.63452 0.9783 0.69306 0.0
H1175 H 0.62763 0.96077 0.62703 0.0
H1176 H 0.58065 0.02415 0.71401 0.0
H1177 H 0.56456 0.98347 0.55067 0.0
H1178 H 0.62967 0.03829 0.65833 0.0
H1179 H 0.63457 0.01593 0.70966 0.0
H1180 H 0.61504 0.03452 0.73504 0.0
H1181 H 0.61004 0.98832 0.4586 0.0
H1182 H 0.589 0.97041 0.47515 0.0
H1183 H 0.61432 0.96626 0.51185 0.0
C1184 C 0.48721 0.67233 0.52601 0.0
C1185 C 0.50467 0.68548 0.5309 0.0
C1186 C 0.48743 0.6519 0.55234 0.0
C1187 C 0.50558 0.64416 0.58432 0.0
C1188 C 0.52328 0.65728 0.58928 0.0
C1189 C 0.52261 0.67769 0.56275 0.0
C1190 C 0.46823 0.63852 0.5454 0.0
C1191 C 0.54301 0.64972 0.62252 0.0
C1192 C 0.50081 0.59649 0.70064 0.0
C1193 C 0.50704 0.58017 0.65816 0.0
C1194 C 0.50033 0.61734 0.67756 0.0
C1195 C 0.50627 0.62213 0.61036 0.0
C1196 C 0.5127 0.60575 0.56749 0.0
C1197 C 0.51298 0.58511 0.59174 0.0
C1198 C 0.49329 0.63426 0.72498 0.0
C1199 C 0.51923 0.61 0.49561 0.0
H1200 H 0.47335 0.6779 0.50068 0.0
H1201 H 0.53612 0.68766 0.5679 0.0
H1202 H 0.47185 0.62459 0.51462 0.0
H1203 H 0.46311 0.63289 0.59565 0.0
H1204 H 0.45511 0.64702 0.52141 0.0
H1205 H 0.55535 0.66185 0.62318 0.0
H1206 H 0.5397 0.64484 0.67509 0.0
H1207 H 0.54904 0.63587 0.59553 0.0
H1208 H 0.49615 0.59298 0.75191 0.0
H1209 H 0.51786 0.57278 0.55811 0.0
H1210 H 0.47938 0.6422 0.70408 0.0
H1211 H 0.50568 0.64619 0.73013 0.0
H1212 H 0.48939 0.62811 0.7758 0.0
H1213 H 0.50615 0.61716 0.46739 0.0
H1214 H 0.52415 0.59564 0.46893 0.0
H1215 H 0.53231 0.62129 0.49459 0.0
C1216 C 0.84819 0.53726 0.56678 0.0
C1217 C 0.84123 0.52313 0.51769 0.0
C1218 C 0.86881 0.53681 0.59101 0.0
C1219 C 0.88303 0.52181 0.566 0.0
C1220 C 0.87615 0.50754 0.51634 0.0
C1221 C 0.85546 0.50841 0.49277 0.0
C1222 C 0.87544 0.55253 0.64316 0.0
C1223 C 0.89067 0.49126 0.48818 0.0
C1224 C 0.94155 0.53213 0.57868 0.0
C1225 C 0.94744 0.51992 0.63447 0.0
C1226 C 0.92074 0.53303 0.55653 0.0
C1227 C 0.90519 0.52138 0.59052 0.0
C1228 C 0.91092 0.50924 0.64741 0.0
C1229 C 0.93189 0.50871 0.66879 0.0
C1230 C 0.91544 0.54633 0.49606 0.0
C1231 C 0.89493 0.4965 0.68506 0.0
H1232 H 0.83753 0.54893 0.58582 0.0
H1233 H 0.8503 0.49723 0.45555 0.0
H1234 H 0.88126 0.5444 0.68878 0.0
H1235 H 0.88845 0.56212 0.62323 0.0
H1236 H 0.86253 0.56305 0.65808 0.0
H1237 H 0.88289 0.48103 0.45087 0.0
H1238 H 0.90417 0.49891 0.46346 0.0
H1239 H 0.89687 0.48144 0.5296 0.0
H1240 H 0.95328 0.54094 0.55157 0.0
H1241 H 0.93614 0.49915 0.71169 0.0
H1242 H 0.90318 0.55776 0.50949 0.0
H1243 H 0.90911 0.53642 0.45523 0.0
H1244 H 0.92916 0.55493 0.47627 0.0
H1245 H 0.90173 0.48813 0.72885 0.0
H1246 H 0.88784 0.4849 0.65066 0.0
H1247 H 0.8822 0.50671 0.70328 0.0
loop_
_geom_bond_atom_site_label_1
_geom_bond_atom_site_label_2
_geom_bond_distance
_geom_bond_site_symmetry_2
_ccdc_geom_bond_type
C0 C1 1.264 . S
C0 C5 1.479 . S
C0 C10 1.465 . S
C1 C0 1.264 . S
C1 C3 1.339 . S
C1 H28 0.931 . S
C2 C3 1.395 . S
C2 C4 1.320 . S
C3 C1 1.339 . S
C3 C2 1.395 . S
C3 H29 0.929 . S
C4 C2 1.320 . S
C4 C5 1.405 . S
C4 H30 0.930 . S
C5 C0 1.479 . S
C5 C4 1.405 . S
C5 H31 0.931 . S
U6 O7 2.454 . S
U6 O8 2.458 . S
U6 C9 2.984 . S
U6 C10 2.847 . S
U6 C23 2.882 . S
U6 O24 2.441 . S
U6 O25 2.420 . S
U6 O26 2.455 . S
U6 O27 2.449 . S
O7 U6 2.454 . S
O7 C9 1.353 . S
O8 U6 2.458 . S
O8 C9 1.286 . S
C9 U6 2.984 . S
C9 O7 1.353 . S
C9 O8 1.286 . S
C9 C11 1.363 . S
C10 C0 1.465 . S
C10 U6 2.847 . S
C10 O24 1.249 . S
C10 O25 1.202 . S
C11 C9 1.363 . S
C11 C13 1.408 . S
C11 C16 1.342 . S
C12 C13 1.310 . S
C12 C15 1.461 . S
C12 H32 0.932 . S
C13 C11 1.408 . S
C13 C12 1.310 . S
C13 H33 0.930 . S
C14 C15 1.474 . S
C14 C16 1.285 . S
C14 H34 0.929 . S
C15 C12 1.461 . S
C15 C14 1.474 . S
C16 C11 1.342 . S
C16 C14 1.285 . S
C16 H35 0.930 . S
C17 C20 1.424 . S
C17 C22 1.245 . S
C17 C23 1.428 . S
C18 C21 1.260 . S
C18 C22 1.477 . S
C18 H36 0.932 . S
C19 C20 1.384 . S
C19 C21 1.479 . S
C19 H37 0.929 . S
C20 C17 1.424 . S
C20 C19 1.384 . S
C20 H38 0.928 . S
C21 C18 1.260 . S
C21 C19 1.479 . S
C22 C17 1.245 . S
C22 C18 1.477 . S
C22 H39 0.932 . S
C23 U6 2.882 . S
C23 C17 1.428 . S
C23 O26 1.301 . S
C23 O27 1.282 . S
O24 U6 2.441 . S
O24 C10 1.249 . S
O25 U6 2.420 . S
O25 C10 1.202 . S
O26 U6 2.455 . S
O26 C23 1.301 . S
O27 U6 2.449 . S
O27 C23 1.282 . S
H28 C1 0.931 . S
H29 C3 0.929 . S
H30 C4 0.930 . S
H31 C5 0.931 . S
H32 C12 0.932 . S
H33 C13 0.930 . S
H34 C14 0.929 . S
H35 C16 0.930 . S
H36 C18 0.932 . S
H37 C19 0.929 . S
H38 C20 0.928 . S
H39 C22 0.932 . S
C40 C41 1.264 . S
C40 C45 1.479 . S
C40 C50 1.465 . S
C41 C40 1.264 . S
C41 C43 1.339 . S
C41 H68 0.931 . S
C42 C43 1.395 . S
C42 C44 1.320 . S
C43 C41 1.339 . S
C43 C42 1.395 . S
C43 H69 0.929 . S
C44 C42 1.320 . S
C44 C45 1.405 . S
C44 H70 0.921 1_455 S
C45 C40 1.479 . S
C45 C44 1.405 . S
C45 H71 0.931 . S
U46 O47 2.454 . S
U46 O48 2.458 . S
U46 C49 2.984 . S
U46 C50 2.847 . S
U46 C63 2.882 . S
U46 O64 2.441 . S
U46 O65 2.420 . S
U46 O66 2.455 . S
U46 O67 2.449 . S
O47 U46 2.454 . S
O47 C49 1.353 . S
O48 U46 2.458 . S
O48 C49 1.286 . S
C49 U46 2.984 . S
C49 O47 1.353 . S
C49 O48 1.286 . S
C49 C51 1.363 . S
C50 C40 1.465 . S
C50 U46 2.847 . S
C50 O64 1.249 . S
C50 O65 1.202 . S
C51 C49 1.363 . S
C51 C53 1.408 . S
C51 C56 1.342 . S
C52 C53 1.310 . S
C52 C55 1.461 . S
C52 H72 0.932 . S
C53 C51 1.408 . S
C53 C52 1.310 . S
C53 H73 0.930 . S
C54 C55 1.474 1_655 S
C54 C56 1.285 1_655 S
C54 H74 0.930 . S
C55 C52 1.461 . S
C55 C54 1.474 1_455 S
C56 C51 1.342 . S
C56 C54 1.285 1_455 S
C56 H75 0.932 . S
C57 C60 1.424 . S
C57 C62 1.245 . S
C57 C63 1.428 . S
C58 C61 1.260 . S
C58 C62 1.477 . S
C58 H76 0.932 . S
C59 C60 1.384 . S
C59 C61 1.479 . S
C59 H77 0.929 . S
C60 C57 1.424 . S
C60 C59 1.384 . S
C60 H78 0.928 . S
C61 C58 1.260 . S
C61 C59 1.479 . S
C62 C57 1.245 . S
C62 C58 1.477 . S
C62 H79 0.932 . S
C63 U46 2.882 . S
C63 C57 1.428 . S
C63 O66 1.301 . S
C63 O67 1.282 . S
O64 U46 2.441 . S
O64 C50 1.249 . S
O65 U46 2.420 . S
O65 C50 1.202 . S
O66 U46 2.455 . S
O66 C63 1.301 . S
O67 U46 2.449 . S
O67 C63 1.282 . S
H68 C41 0.931 . S
H69 C43 0.929 . S
H70 C44 0.921 1_655 S
H71 C45 0.931 . S
H72 C52 0.932 . S
H73 C53 0.930 . S
H74 C54 0.930 . S
H75 C56 0.932 . S
H76 C58 0.932 . S
H77 C59 0.929 . S
H78 C60 0.928 . S
H79 C62 0.932 . S
C80 C81 1.264 . S
C80 C85 1.479 . S
C80 C90 1.465 . S
C81 C80 1.264 . S
C81 C83 1.339 . S
C81 H108 0.931 . S
C82 C83 1.395 . S
C82 C84 1.320 . S
C83 C81 1.339 . S
C83 C82 1.395 . S
C83 H109 0.929 . S
C84 C82 1.320 . S
C84 C85 1.405 . S
C84 H110 0.921 1_545 S
C85 C80 1.479 . S
C85 C84 1.405 . S
C85 H111 0.931 . S
U86 O87 2.454 . S
U86 O88 2.458 . S
U86 C89 2.984 . S
U86 C90 2.847 . S
U86 C103 2.882 . S
U86 O104 2.441 . S
U86 O105 2.420 . S
U86 O106 2.455 . S
U86 O107 2.449 . S
O87 U86 2.454 . S
O87 C89 1.353 . S
O88 U86 2.458 . S
O88 C89 1.286 . S
C89 U86 2.984 . S
C89 O87 1.353 . S
C89 O88 1.286 . S
C89 C91 1.363 . S
C90 C80 1.465 . S
C90 U86 2.847 . S
C90 O104 1.249 . S
C90 O105 1.202 . S
C91 C89 1.363 . S
C91 C93 1.408 . S
C91 C96 1.342 . S
C92 C93 1.310 . S
C92 C95 1.461 . S
C92 H112 0.932 . S
C93 C91 1.408 . S
C93 C92 1.310 . S
C93 H113 0.930 . S
C94 C95 1.474 1_565 S
C94 C96 1.285 1_565 S
C94 H114 0.931 . S
C95 C92 1.461 . S
C95 C94 1.474 1_545 S
C96 C91 1.342 . S
C96 C94 1.285 1_545 S
C96 H115 0.932 . S
C97 C100 1.424 . S
C97 C102 1.245 . S
C97 C103 1.428 . S
C98 C101 1.260 . S
C98 C102 1.477 . S
C98 H116 0.932 . S
C99 C100 1.384 . S
C99 C101 1.479 . S
C99 H117 0.929 . S
C100 C97 1.424 . S
C100 C99 1.384 . S
C100 H118 0.928 . S
C101 C98 1.260 . S
C101 C99 1.479 . S
C102 C97 1.245 . S
C102 C98 1.477 . S
C102 H119 0.932 . S
C103 U86 2.882 . S
C103 C97 1.428 . S
C103 O106 1.301 . S
C103 O107 1.282 . S
O104 U86 2.441 . S
O104 C90 1.249 . S
O105 U86 2.420 . S
O105 C90 1.202 . S
O106 U86 2.455 . S
O106 C103 1.301 . S
O107 U86 2.449 . S
O107 C103 1.282 . S
H108 C81 0.931 . S
H109 C83 0.929 . S
H110 C84 0.921 1_565 S
H111 C85 0.931 . S
H112 C92 0.932 . S
H113 C93 0.930 . S
H114 C94 0.931 . S
H115 C96 0.932 . S
H116 C98 0.932 . S
H117 C99 0.929 . S
H118 C100 0.928 . S
H119 C102 0.932 . S
C120 C121 1.264 . S
C120 C125 1.479 . S
C120 C130 1.465 . S
C121 C120 1.264 . S
C121 C123 1.339 . S
C121 H148 0.931 . S
C122 C123 1.395 . S
C122 C124 1.320 . S
C123 C121 1.339 . S
C123 C122 1.395 . S
C123 H149 0.929 . S
C124 C122 1.320 . S
C124 C125 1.405 . S
C124 H150 0.930 . S
C125 C120 1.479 . S
C125 C124 1.405 . S
C125 H151 0.931 . S
U126 O127 2.454 . S
U126 O128 2.458 . S
U126 C129 2.984 . S
U126 C130 2.847 . S
U126 C143 2.882 . S
U126 O144 2.441 . S
U126 O145 2.420 . S
U126 O146 2.455 . S
U126 O147 2.449 . S
O127 U126 2.454 . S
O127 C129 1.353 . S
O128 U126 2.458 . S
O128 C129 1.286 . S
C129 U126 2.984 . S
C129 O127 1.353 . S
C129 O128 1.286 . S
C129 C131 1.363 . S
C130 C120 1.465 . S
C130 U126 2.847 . S
C130 O144 1.249 . S
C130 O145 1.202 . S
C131 C129 1.363 . S
C131 C133 1.408 . S
C131 C136 1.342 . S
C132 C133 1.310 . S
C132 C135 1.461 . S
C132 H152 0.932 . S
C133 C131 1.408 . S
C133 C132 1.310 . S
C133 H153 0.930 . S
C134 C135 1.474 . S
C134 C136 1.285 . S
C134 H154 0.929 . S
C135 C132 1.461 . S
C135 C134 1.474 . S
C136 C131 1.342 . S
C136 C134 1.285 . S
C136 H155 0.930 . S
C137 C140 1.424 . S
C137 C142 1.245 . S
C137 C143 1.428 . S
C138 C141 1.260 . S
C138 C142 1.477 . S
C138 H156 0.932 . S
C139 C140 1.384 . S
C139 C141 1.479 . S
C139 H157 0.929 . S
C140 C137 1.424 . S
C140 C139 1.384 . S
C140 H158 0.928 . S
C141 C138 1.260 . S
C141 C139 1.479 . S
C142 C137 1.245 . S
C142 C138 1.477 . S
C142 H159 0.932 . S
C143 U126 2.882 . S
C143 C137 1.428 . S
C143 O146 1.301 . S
C143 O147 1.282 . S
O144 U126 2.441 . S
O144 C130 1.249 . S
O145 U126 2.420 . S
O145 C130 1.202 . S
O146 U126 2.455 . S
O146 C143 1.301 . S
O147 U126 2.449 . S
O147 C143 1.282 . S
H148 C121 0.931 . S
H149 C123 0.929 . S
H150 C124 0.930 . S
H151 C125 0.931 . S
H152 C132 0.932 . S
H153 C133 0.930 . S
H154 C134 0.929 . S
H155 C136 0.930 . S
H156 C138 0.932 . S
H157 C139 0.929 . S
H158 C140 0.928 . S
H159 C142 0.932 . S
C160 C161 1.264 . S
C160 C165 1.479 . S
C160 C170 1.465 . S
C161 C160 1.264 . S
C161 C163 1.339 . S
C161 H188 0.931 . S
C162 C163 1.395 . S
C162 C164 1.320 . S
C163 C161 1.339 . S
C163 C162 1.395 . S
C163 H189 0.929 . S
C164 C162 1.320 . S
C164 C165 1.405 . S
C164 H190 0.930 . S
C165 C160 1.479 . S
C165 C164 1.405 . S
C165 H191 0.931 . S
U166 O167 2.454 . S
U166 O168 2.458 . S
U166 C169 2.984 . S
U166 C170 2.847 1_554 S
U166 C183 2.882 . S
U166 O184 2.441 1_554 S
U166 O185 2.420 1_554 S
U166 O186 2.455 . S
U166 O187 2.449 . S
O167 U166 2.454 . S
O167 C169 1.353 . S
O168 U166 2.458 . S
O168 C169 1.286 . S
C169 U166 2.984 . S
C169 O167 1.353 . S
C169 O168 1.286 . S
C169 C171 1.363 . S
C170 C160 1.465 . S
C170 U166 2.847 1_556 S
C170 O184 1.249 . S
C170 O185 1.202 . S
C171 C169 1.363 . S
C171 C173 1.408 . S
C171 C176 1.342 . S
C172 C173 1.310 . S
C172 C175 1.461 . S
C172 H192 0.932 . S
C173 C171 1.408 . S
C173 C172 1.310 . S
C173 H193 0.930 . S
C174 C175 1.474 . S
C174 C176 1.285 . S
C174 H194 0.929 . S
C175 C172 1.461 . S
C175 C174 1.474 . S
C176 C171 1.342 . S
C176 C174 1.285 . S
C176 H195 0.930 . S
C177 C180 1.424 . S
C177 C182 1.245 . S
C177 C183 1.428 . S
C178 C181 1.260 . S
C178 C182 1.477 . S
C178 H196 0.932 . S
C179 C180 1.384 . S
C179 C181 1.479 . S
C179 H197 0.929 . S
C180 C177 1.424 . S
C180 C179 1.384 . S
C180 H198 0.928 . S
C181 C178 1.260 . S
C181 C179 1.479 . S
C182 C177 1.245 . S
C182 C178 1.477 . S
C182 H199 0.932 . S
C183 U166 2.882 . S
C183 C177 1.428 . S
C183 O186 1.301 . S
C183 O187 1.282 . S
O184 U166 2.441 1_556 S
O184 C170 1.249 . S
O185 U166 2.420 1_556 S
O185 C170 1.202 . S
O186 U166 2.455 . S
O186 C183 1.301 . S
O187 U166 2.449 . S
O187 C183 1.282 . S
H188 C161 0.931 . S
H189 C163 0.929 . S
H190 C164 0.930 . S
H191 C165 0.931 . S
H192 C172 0.932 . S
H193 C173 0.930 . S
H194 C174 0.929 . S
H195 C176 0.930 . S
H196 C178 0.932 . S
H197 C179 0.929 . S
H198 C180 0.928 . S
H199 C182 0.932 . S
C200 C201 1.264 . S
C200 C205 1.479 . S
C200 C210 1.465 . S
C201 C200 1.264 . S
C201 C203 1.339 . S
C201 H228 0.931 . S
C202 C203 1.395 . S
C202 C204 1.320 . S
C203 C201 1.339 . S
C203 C202 1.395 . S
C203 H229 0.929 . S
C204 C202 1.320 . S
C204 C205 1.405 . S
C204 H230 0.923 1_455 S
C205 C200 1.479 . S
C205 C204 1.405 . S
C205 H231 0.931 . S
U206 O207 2.454 . S
U206 O208 2.458 . S
U206 C209 2.984 . S
U206 C210 2.847 1_554 S
U206 C223 2.882 . S
U206 O224 2.441 1_554 S
U206 O225 2.420 1_554 S
U206 O226 2.455 . S
U206 O227 2.449 . S
O207 U206 2.454 . S
O207 C209 1.353 . S
O208 U206 2.458 . S
O208 C209 1.286 . S
C209 U206 2.984 . S
C209 O207 1.353 . S
C209 O208 1.286 . S
C209 C211 1.363 . S
C210 C200 1.465 . S
C210 U206 2.847 1_556 S
C210 O224 1.249 . S
C210 O225 1.202 . S
C211 C209 1.363 . S
C211 C213 1.408 . S
C211 C216 1.342 . S
C212 C213 1.310 . S
C212 C215 1.462 . S
C212 H232 0.932 . S
C213 C211 1.408 . S
C213 C212 1.310 . S
C213 H233 0.930 . S
C214 C215 1.474 1_655 S
C214 C216 1.286 1_655 S
C214 H234 0.929 . S
C215 C212 1.462 . S
C215 C214 1.474 1_455 S
C216 C211 1.342 . S
C216 C214 1.286 1_455 S
C216 H235 0.933 . S
C217 C220 1.424 . S
C217 C222 1.245 . S
C217 C223 1.428 . S
C218 C221 1.260 . S
C218 C222 1.477 . S
C218 H236 0.932 . S
C219 C220 1.384 . S
C219 C221 1.479 . S
C219 H237 0.929 . S
C220 C217 1.424 . S
C220 C219 1.384 . S
C220 H238 0.928 . S
C221 C218 1.260 . S
C221 C219 1.479 . S
C222 C217 1.245 . S
C222 C218 1.477 . S
C222 H239 0.932 . S
C223 U206 2.882 . S
C223 C217 1.428 . S
C223 O226 1.301 . S
C223 O227 1.282 . S
O224 U206 2.441 1_556 S
O224 C210 1.249 . S
O225 U206 2.420 1_556 S
O225 C210 1.202 . S
O226 U206 2.455 . S
O226 C223 1.301 . S
O227 U206 2.449 . S
O227 C223 1.282 . S
H228 C201 0.931 . S
H229 C203 0.929 . S
H230 C204 0.923 1_655 S
H231 C205 0.931 . S
H232 C212 0.932 . S
H233 C213 0.930 . S
H234 C214 0.929 . S
H235 C216 0.933 . S
H236 C218 0.932 . S
H237 C219 0.929 . S
H238 C220 0.928 . S
H239 C222 0.932 . S
C240 C241 1.264 . S
C240 C245 1.479 . S
C240 C250 1.465 . S
C241 C240 1.264 . S
C241 C243 1.339 . S
C241 H268 0.931 . S
C242 C243 1.395 . S
C242 C244 1.320 . S
C243 C241 1.339 . S
C243 C242 1.395 . S
C243 H269 0.929 . S
C244 C242 1.320 . S
C244 C245 1.405 . S
C244 H270 0.923 1_545 S
C245 C240 1.479 . S
C245 C244 1.405 . S
C245 H271 0.931 . S
U246 O247 2.454 . S
U246 O248 2.458 . S
U246 C249 2.984 . S
U246 C250 2.847 1_554 S
U246 C263 2.882 . S
U246 O264 2.441 1_554 S
U246 O265 2.420 1_554 S
U246 O266 2.455 . S
U246 O267 2.449 . S
O247 U246 2.454 . S
O247 C249 1.353 . S
O248 U246 2.458 . S
O248 C249 1.286 . S
C249 U246 2.984 . S
C249 O247 1.353 . S
C249 O248 1.286 . S
C249 C251 1.363 . S
C250 C240 1.465 . S
C250 U246 2.847 1_556 S
C250 O264 1.249 . S
C250 O265 1.202 . S
C251 C249 1.363 . S
C251 C253 1.408 . S
C251 C256 1.342 . S
C252 C253 1.310 . S
C252 C255 1.462 . S
C252 H272 0.932 . S
C253 C251 1.408 . S
C253 C252 1.310 . S
C253 H273 0.930 . S
C254 C255 1.474 1_565 S
C254 C256 1.286 1_565 S
C254 H274 0.929 . S
C255 C252 1.462 . S
C255 C254 1.474 1_545 S
C256 C251 1.342 . S
C256 C254 1.286 1_545 S
C256 H275 0.933 . S
C257 C260 1.424 . S
C257 C262 1.245 . S
C257 C263 1.428 . S
C258 C261 1.260 . S
C258 C262 1.477 . S
C258 H276 0.932 . S
C259 C260 1.384 . S
C259 C261 1.479 . S
C259 H277 0.929 . S
C260 C257 1.424 . S
C260 C259 1.384 . S
C260 H278 0.928 . S
C261 C258 1.260 . S
C261 C259 1.479 . S
C262 C257 1.245 . S
C262 C258 1.477 . S
C262 H279 0.932 . S
C263 U246 2.882 . S
C263 C257 1.428 . S
C263 O266 1.301 . S
C263 O267 1.282 . S
O264 U246 2.441 1_556 S
O264 C250 1.249 . S
O265 U246 2.420 1_556 S
O265 C250 1.202 . S
O266 U246 2.455 . S
O266 C263 1.301 . S
O267 U246 2.449 . S
O267 C263 1.282 . S
H268 C241 0.931 . S
H269 C243 0.929 . S
H270 C244 0.923 1_565 S
H271 C245 0.931 . S
H272 C252 0.932 . S
H273 C253 0.930 . S
H274 C254 0.929 . S
H275 C256 0.933 . S
H276 C258 0.932 . S
H277 C259 0.929 . S
H278 C260 0.928 . S
H279 C262 0.932 . S
C280 C281 1.264 . S
C280 C285 1.479 . S
C280 C290 1.465 . S
C281 C280 1.264 . S
C281 C283 1.339 . S
C281 H308 0.931 . S
C282 C283 1.395 . S
C282 C284 1.320 . S
C283 C281 1.339 . S
C283 C282 1.395 . S
C283 H309 0.929 . S
C284 C282 1.320 . S
C284 C285 1.405 . S
C284 H310 0.930 . S
C285 C280 1.479 . S
C285 C284 1.405 . S
C285 H311 0.931 . S
U286 O287 2.454 . S
U286 O288 2.458 . S
U286 C289 2.984 . S
U286 C290 2.847 1_554 S
U286 C303 2.882 . S
U286 O304 2.441 1_554 S
U286 O305 2.420 1_554 S
U286 O306 2.455 . S
U286 O307 2.449 . S
O287 U286 2.454 . S
O287 C289 1.353 . S
O288 U286 2.458 . S
O288 C289 1.286 . S
C289 U286 2.984 . S
C289 O287 1.353 . S
C289 O288 1.286 . S
C289 C291 1.363 . S
C290 C280 1.465 . S
C290 U286 2.847 1_556 S
C290 O304 1.249 . S
C290 O305 1.202 . S
C291 C289 1.363 . S
C291 C293 1.408 . S
C291 C296 1.342 . S
C292 C293 1.310 . S
C292 C295 1.461 . S
C292 H312 0.932 . S
C293 C291 1.408 . S
C293 C292 1.310 . S
C293 H313 0.930 . S
C294 C295 1.474 . S
C294 C296 1.285 . S
C294 H314 0.929 . S
C295 C292 1.461 . S
C295 C294 1.474 . S
C296 C291 1.342 . S
C296 C294 1.285 . S
C296 H315 0.930 . S
C297 C300 1.424 . S
C297 C302 1.245 . S
C297 C303 1.428 . S
C298 C301 1.260 . S
C298 C302 1.477 . S
C298 H316 0.932 . S
C299 C300 1.384 . S
C299 C301 1.479 . S
C299 H317 0.929 . S
C300 C297 1.424 . S
C300 C299 1.384 . S
C300 H318 0.928 . S
C301 C298 1.260 . S
C301 C299 1.479 . S
C302 C297 1.245 . S
C302 C298 1.477 . S
C302 H319 0.932 . S
C303 U286 2.882 . S
C303 C297 1.428 . S
C303 O306 1.301 . S
C303 O307 1.282 . S
O304 U286 2.441 1_556 S
O304 C290 1.249 . S
O305 U286 2.420 1_556 S
O305 C290 1.202 . S
O306 U286 2.455 . S
O306 C303 1.301 . S
O307 U286 2.449 . S
O307 C303 1.282 . S
H308 C281 0.931 . S
H309 C283 0.929 . S
H310 C284 0.930 . S
H311 C285 0.931 . S
H312 C292 0.932 . S
H313 C293 0.930 . S
H314 C294 0.929 . S
H315 C296 0.930 . S
H316 C298 0.932 . S
H317 C299 0.929 . S
H318 C300 0.928 . S
H319 C302 0.932 . S
Tb320 C322 2.809 . S
Tb320 O340 2.484 . S
Tb320 O341 2.440 . S
Tb320 O342 2.658 1_565 S
Tb320 O343 2.409 . S
Tb320 O344 2.378 . S
Tb320 O348 2.325 1_455 S
Tb320 O351 2.341 1_565 S
Tb321 C331 2.809 . S
Tb321 O342 2.325 1_655 S
Tb321 O345 2.341 1_545 S
Tb321 O346 2.484 . S
Tb321 O347 2.440 . S
Tb321 O348 2.658 1_545 S
Tb321 O349 2.409 . S
Tb321 O350 2.378 . S
C322 Tb320 2.809 . S
C322 C323 1.514 . S
C322 O340 1.248 . S
C322 O341 1.266 . S
C323 C322 1.514 . S
C323 C324 1.359 . S
C323 C328 1.348 . S
C324 C323 1.359 . S
C324 C325 1.380 . S
C324 H352 0.929 1_455 S
C325 C324 1.380 . S
C325 C326 1.347 . S
C325 H353 0.931 1_455 S
C326 C325 1.347 . S
C326 C327 1.369 . S
C327 C326 1.369 . S
C327 C328 1.408 . S
C327 H354 0.930 . S
C328 C323 1.348 . S
C328 C327 1.408 . S
C328 H355 0.930 . S
C329 O342 1.281 1_565 S
C329 O343 1.254 . S
C330 O344 1.236 1_655 S
C330 O345 1.266 . S
C331 Tb321 2.809 . S
C331 C332 1.514 . S
C331 O346 1.248 . S
C331 O347 1.266 . S
C332 C331 1.514 . S
C332 C333 1.359 . S
C332 C337 1.348 . S
C333 C332 1.359 . S
C333 C334 1.380 . S
C333 H356 0.929 1_655 S
C334 C333 1.380 . S
C334 C335 1.347 . S
C334 H357 0.931 1_655 S
C335 C334 1.347 . S
C335 C336 1.369 . S
C336 C335 1.369 . S
C336 C337 1.408 . S
C336 H358 0.930 . S
C337 C332 1.348 . S
C337 C336 1.408 . S
C337 H359 0.930 . S
C338 O348 1.281 1_545 S
C338 O349 1.254 . S
C339 O350 1.236 1_455 S
C339 O351 1.266 . S
O340 Tb320 2.484 . S
O340 C322 1.248 . S
O341 Tb320 2.440 . S
O341 C322 1.266 . S
O342 Tb320 2.658 1_545 S
O342 Tb321 2.325 1_455 S
O342 C329 1.281 1_545 S
O343 Tb320 2.409 . S
O343 C329 1.254 . S
O344 Tb320 2.378 . S
O344 C330 1.236 1_455 S
O345 Tb321 2.341 1_565 S
O345 C330 1.266 . S
O346 Tb321 2.484 . S
O346 C331 1.248 . S
O347 Tb321 2.440 . S
O347 C331 1.266 . S
O348 Tb320 2.325 1_655 S
O348 Tb321 2.658 1_565 S
O348 C338 1.281 1_565 S
O349 Tb321 2.409 . S
O349 C338 1.254 . S
O350 Tb321 2.378 . S
O350 C339 1.236 1_655 S
O351 Tb320 2.341 1_545 S
O351 C339 1.266 . S
H352 C324 0.929 1_655 S
H353 C325 0.931 1_655 S
H354 C327 0.930 . S
H355 C328 0.930 . S
H356 C333 0.929 1_455 S
H357 C334 0.931 1_455 S
H358 C336 0.930 . S
H359 C337 0.930 . S
Tb360 C362 2.809 . S
Tb360 O380 2.484 . S
Tb360 O381 2.440 . S
Tb360 O382 2.658 . S
Tb360 O383 2.409 . S
Tb360 O384 2.378 . S
Tb360 O388 2.325 1_545 S
Tb360 O391 2.341 . S
Tb361 C371 2.809 . S
Tb361 O382 2.325 1_565 S
Tb361 O385 2.341 . S
Tb361 O386 2.484 . S
Tb361 O387 2.440 . S
Tb361 O388 2.658 . S
Tb361 O389 2.409 . S
Tb361 O390 2.378 . S
C362 Tb360 2.809 . S
C362 C363 1.514 . S
C362 O380 1.248 . S
C362 O381 1.266 . S
C363 C362 1.514 . S
C363 C364 1.359 . S
C363 C368 1.348 . S
C364 C363 1.359 . S
C364 C365 1.380 . S
C364 H392 0.929 1_545 S
C365 C364 1.380 . S
C365 C366 1.347 . S
C365 H393 0.931 1_545 S
C366 C365 1.347 . S
C366 C367 1.369 . S
C367 C366 1.369 . S
C367 C368 1.408 . S
C367 H394 0.930 . S
C368 C363 1.348 . S
C368 C367 1.408 . S
C368 H395 0.930 . S
C369 O382 1.281 . S
C369 O383 1.254 . S
C370 O384 1.236 1_565 S
C370 O385 1.266 . S
C371 Tb361 2.809 . S
C371 C372 1.514 . S
C371 O386 1.248 . S
C371 O387 1.266 . S
C372 C371 1.514 . S
C372 C373 1.359 . S
C372 C377 1.348 . S
C373 C372 1.359 . S
C373 C374 1.380 . S
C373 H396 0.929 1_565 S
C374 C373 1.380 . S
C374 C375 1.347 . S
C374 H397 0.931 1_565 S
C375 C374 1.347 . S
C375 C376 1.369 . S
C376 C375 1.369 . S
C376 C377 1.408 . S
C376 H398 0.930 . S
C377 C372 1.348 . S
C377 C376 1.408 . S
C377 H399 0.930 . S
C378 O388 1.281 . S
C378 O389 1.254 . S
C379 O390 1.236 1_545 S
C379 O391 1.266 . S
O380 Tb360 2.484 . S
O380 C362 1.248 . S
O381 Tb360 2.440 . S
O381 C362 1.266 . S
O382 Tb360 2.658 . S
O382 Tb361 2.325 1_545 S
O382 C369 1.281 . S
O383 Tb360 2.409 . S
O383 C369 1.254 . S
O384 Tb360 2.378 . S
O384 C370 1.236 1_545 S
O385 Tb361 2.341 . S
O385 C370 1.266 . S
O386 Tb361 2.484 . S
O386 C371 1.248 . S
O387 Tb361 2.440 . S
O387 C371 1.266 . S
O388 Tb360 2.325 1_565 S
O388 Tb361 2.658 . S
O388 C378 1.281 . S
O389 Tb361 2.409 . S
O389 C378 1.254 . S
O390 Tb361 2.378 . S
O390 C379 1.236 1_565 S
O391 Tb360 2.341 . S
O391 C379 1.266 . S
H392 C364 0.929 1_565 S
H393 C365 0.931 1_565 S
H394 C367 0.930 . S
H395 C368 0.930 . S
H396 C373 0.929 1_545 S
H397 C374 0.931 1_545 S
H398 C376 0.930 . S
H399 C377 0.930 . S
Tb400 C402 2.809 . S
Tb400 O420 2.484 . S
Tb400 O421 2.440 . S
Tb400 O422 2.658 . S
Tb400 O423 2.409 . S
Tb400 O424 2.378 . S
Tb400 O428 2.325 . S
Tb400 O431 2.341 . S
Tb401 C411 2.809 . S
Tb401 O422 2.325 . S
Tb401 O425 2.341 . S
Tb401 O426 2.484 . S
Tb401 O427 2.440 . S
Tb401 O428 2.658 . S
Tb401 O429 2.409 . S
Tb401 O430 2.378 . S
C402 Tb400 2.809 . S
C402 C403 1.514 . S
C402 O420 1.248 . S
C402 O421 1.266 . S
C403 C402 1.514 . S
C403 C404 1.359 . S
C403 C408 1.348 . S
C404 C403 1.359 . S
C404 C405 1.380 . S
C404 H432 0.929 . S
C405 C404 1.380 . S
C405 C406 1.347 . S
C405 H433 0.931 . S
C406 C405 1.347 . S
C406 C407 1.369 . S
C407 C406 1.369 . S
C407 C408 1.408 . S
C407 H434 0.930 . S
C408 C403 1.348 . S
C408 C407 1.408 . S
C408 H435 0.930 . S
C409 O422 1.281 . S
C409 O423 1.254 . S
C410 O424 1.236 . S
C410 O425 1.266 . S
C411 Tb401 2.809 . S
C411 C412 1.514 . S
C411 O426 1.248 . S
C411 O427 1.266 . S
C412 C411 1.514 . S
C412 C413 1.359 . S
C412 C417 1.348 . S
C413 C412 1.359 . S
C413 C414 1.380 . S
C413 H436 0.929 . S
C414 C413 1.380 . S
C414 C415 1.347 . S
C414 H437 0.931 . S
C415 C414 1.347 . S
C415 C416 1.369 . S
C416 C415 1.369 . S
C416 C417 1.408 . S
C416 H438 0.930 . S
C417 C412 1.348 . S
C417 C416 1.408 . S
C417 H439 0.930 . S
C418 O428 1.281 . S
C418 O429 1.254 . S
C419 O430 1.236 . S
C419 O431 1.266 . S
O420 Tb400 2.484 . S
O420 C402 1.248 . S
O421 Tb400 2.440 . S
O421 C402 1.266 . S
O422 Tb400 2.658 . S
O422 Tb401 2.325 . S
O422 C409 1.281 . S
O423 Tb400 2.409 . S
O423 C409 1.254 . S
O424 Tb400 2.378 . S
O424 C410 1.236 . S
O425 Tb401 2.341 . S
O425 C410 1.266 . S
O426 Tb401 2.484 . S
O426 C411 1.248 . S
O427 Tb401 2.440 . S
O427 C411 1.266 . S
O428 Tb400 2.325 . S
O428 Tb401 2.658 . S
O428 C418 1.281 . S
O429 Tb401 2.409 . S
O429 C418 1.254 . S
O430 Tb401 2.378 . S
O430 C419 1.236 . S
O431 Tb400 2.341 . S
O431 C419 1.266 . S
H432 C404 0.929 . S
H433 C405 0.931 . S
H434 C407 0.930 . S
H435 C408 0.930 . S
H436 C413 0.929 . S
H437 C414 0.931 . S
H438 C416 0.930 . S
H439 C417 0.930 . S
Tb440 C442 2.809 . S
Tb440 O460 2.484 . S
Tb440 O461 2.440 . S
Tb440 O462 2.658 1_655 S
Tb440 O463 2.409 . S
Tb440 O464 2.378 . S
Tb440 O468 2.325 . S
Tb440 O471 2.341 1_655 S
Tb441 C451 2.809 . S
Tb441 O462 2.325 . S
Tb441 O465 2.341 1_455 S
Tb441 O466 2.484 . S
Tb441 O467 2.440 . S
Tb441 O468 2.658 1_455 S
Tb441 O469 2.409 . S
Tb441 O470 2.378 . S
C442 Tb440 2.809 . S
C442 C443 1.514 . S
C442 O460 1.248 . S
C442 O461 1.266 . S
C443 C442 1.514 . S
C443 C444 1.359 . S
C443 C448 1.348 . S
C444 C443 1.359 . S
C444 C445 1.380 . S
C444 H472 0.929 . S
C445 C444 1.380 . S
C445 C446 1.347 . S
C445 H473 0.931 . S
C446 C445 1.347 . S
C446 C447 1.369 . S
C447 C446 1.369 . S
C447 C448 1.408 . S
C447 H474 0.930 . S
C448 C443 1.348 . S
C448 C447 1.408 . S
C448 H475 0.930 . S
C449 O462 1.273 1_655 S
C449 O463 1.265 . S
C450 O464 1.236 . S
C450 O465 1.266 . S
C451 Tb441 2.809 . S
C451 C452 1.514 . S
C451 O466 1.248 . S
C451 O467 1.266 . S
C452 C451 1.514 . S
C452 C453 1.359 . S
C452 C457 1.348 . S
C453 C452 1.359 . S
C453 C454 1.380 . S
C453 H476 0.929 . S
C454 C453 1.380 . S
C454 C455 1.347 . S
C454 H477 0.931 . S
C455 C454 1.347 . S
C455 C456 1.369 . S
C456 C455 1.369 . S
C456 C457 1.408 . S
C456 H478 0.930 . S
C457 C452 1.348 . S
C457 C456 1.408 . S
C457 H479 0.930 . S
C458 O468 1.269 1_455 S
C458 O469 1.271 . S
C459 O470 1.236 . S
C459 O471 1.266 . S
O460 Tb440 2.484 . S
O460 C442 1.248 . S
O461 Tb440 2.440 . S
O461 C442 1.266 . S
O462 Tb440 2.658 1_455 S
O462 Tb441 2.325 . S
O462 C449 1.273 1_455 S
O463 Tb440 2.409 . S
O463 C449 1.265 . S
O464 Tb440 2.378 . S
O464 C450 1.236 . S
O465 Tb441 2.341 1_655 S
O465 C450 1.266 . S
O466 Tb441 2.484 . S
O466 C451 1.248 . S
O467 Tb441 2.440 . S
O467 C451 1.266 . S
O468 Tb440 2.325 . S
O468 Tb441 2.658 1_655 S
O468 C458 1.269 1_655 S
O469 Tb441 2.409 . S
O469 C458 1.271 . S
O470 Tb441 2.378 . S
O470 C459 1.236 . S
O471 Tb440 2.341 1_455 S
O471 C459 1.266 . S
H472 C444 0.929 . S
H473 C445 0.931 . S
H474 C447 0.930 . S
H475 C448 0.930 . S
H476 C453 0.929 . S
H477 C454 0.931 . S
H478 C456 0.930 . S
H479 C457 0.930 . S
C480 C481 1.428 . S
C480 C482 1.394 . S
C480 H496 0.931 . S
C481 C480 1.428 . S
C481 C485 1.343 1_565 S
C482 C480 1.394 . S
C482 C483 1.369 . S
C482 C486 1.531 . S
C483 C482 1.369 . S
C483 C484 1.410 1_565 S
C483 C491 1.503 . S
C484 C483 1.410 1_545 S
C484 C485 1.392 . S
C484 C487 1.511 . S
C485 C481 1.343 1_545 S
C485 C484 1.392 . S
C485 H497 0.929 . S
C486 C482 1.531 . S
C486 H498 0.960 . S
C486 H499 0.962 . S
C486 H500 0.960 . S
C487 C484 1.511 . S
C487 H501 0.961 . S
C487 H502 0.961 . S
C487 H503 0.961 . S
C488 C489 1.371 . S
C488 C490 1.363 . S
C488 H504 0.931 . S
C489 C488 1.371 . S
C489 C493 1.408 1_545 S
C490 C488 1.363 . S
C490 C491 1.370 1_545 S
C490 C494 1.524 . S
C491 C483 1.503 . S
C491 C490 1.370 1_565 S
C491 C492 1.403 . S
C492 C491 1.403 . S
C492 C493 1.404 . S
C492 C495 1.539 . S
C493 C489 1.408 1_565 S
C493 C492 1.404 . S
C493 H505 0.930 . S
C494 C490 1.524 . S
C494 H506 0.956 . S
C494 H507 0.961 . S
C494 H508 0.961 . S
C495 C492 1.539 . S
C495 H509 0.958 . S
C495 H510 0.961 . S
C495 H511 0.960 . S
H496 C480 0.931 . S
H497 C485 0.929 . S
H498 C486 0.960 . S
H499 C486 0.962 . S
H500 C486 0.960 . S
H501 C487 0.961 . S
H502 C487 0.961 . S
H503 C487 0.961 . S
H504 C488 0.931 . S
H505 C493 0.930 . S
H506 C494 0.956 . S
H507 C494 0.961 . S
H508 C494 0.961 . S
H509 C495 0.958 . S
H510 C495 0.961 . S
H511 C495 0.960 . S
C512 C513 1.391 . S
C512 C514 1.394 . S
C512 H528 0.931 . S
C513 C512 1.391 . S
C513 C517 1.376 . S
C514 C512 1.394 . S
C514 C515 1.369 . S
C514 C518 1.531 . S
C515 C514 1.369 . S
C515 C516 1.410 . S
C515 C523 1.503 . S
C516 C515 1.410 . S
C516 C517 1.392 . S
C516 C519 1.511 . S
C517 C513 1.376 . S
C517 C516 1.392 . S
C517 H529 0.929 . S
C518 C514 1.531 . S
C518 H530 0.960 . S
C518 H531 0.962 . S
C518 H532 0.960 . S
C519 C516 1.511 . S
C519 H533 0.961 . S
C519 H534 0.961 . S
C519 H535 0.961 . S
C520 C521 1.370 . S
C520 C522 1.363 . S
C520 H536 0.931 . S
C521 C520 1.370 . S
C521 C525 1.408 . S
C522 C520 1.363 . S
C522 C523 1.370 . S
C522 C526 1.524 . S
C523 C515 1.503 . S
C523 C522 1.370 . S
C523 C524 1.403 . S
C524 C523 1.403 . S
C524 C525 1.404 . S
C524 C527 1.539 . S
C525 C521 1.408 . S
C525 C524 1.404 . S
C525 H537 0.930 . S
C526 C522 1.524 . S
C526 H538 0.956 . S
C526 H539 0.961 . S
C526 H540 0.961 . S
C527 C524 1.539 . S
C527 H541 0.958 . S
C527 H542 0.961 . S
C527 H543 0.960 . S
H528 C512 0.931 . S
H529 C517 0.929 . S
H530 C518 0.960 . S
H531 C518 0.962 . S
H532 C518 0.960 . S
H533 C519 0.961 . S
H534 C519 0.961 . S
H535 C519 0.961 . S
H536 C520 0.931 . S
H537 C525 0.930 . S
H538 C526 0.956 . S
H539 C526 0.961 . S
H540 C526 0.961 . S
H541 C527 0.958 . S
H542 C527 0.961 . S
H543 C527 0.960 . S
C544 C545 1.391 . S
C544 C546 1.394 . S
C544 H560 0.931 . S
C545 C544 1.391 . S
C545 C549 1.376 . S
C546 C544 1.394 . S
C546 C547 1.369 . S
C546 C550 1.531 . S
C547 C546 1.369 . S
C547 C548 1.410 . S
C547 C555 1.503 . S
C548 C547 1.410 . S
C548 C549 1.392 . S
C548 C551 1.511 . S
C549 C545 1.376 . S
C549 C548 1.392 . S
C549 H561 0.929 . S
C550 C546 1.531 . S
C550 H562 0.960 . S
C550 H563 0.962 . S
C550 H564 0.960 . S
C551 C548 1.511 . S
C551 H565 0.961 . S
C551 H566 0.961 . S
C551 H567 0.961 . S
C552 C553 1.370 . S
C552 C554 1.363 . S
C552 H568 0.931 . S
C553 C552 1.370 . S
C553 C557 1.408 . S
C554 C552 1.363 . S
C554 C555 1.370 . S
C554 C558 1.524 . S
C555 C547 1.503 . S
C555 C554 1.370 . S
C555 C556 1.403 . S
C556 C555 1.403 . S
C556 C557 1.404 . S
C556 C559 1.539 . S
C557 C553 1.408 . S
C557 C556 1.404 . S
C557 H569 0.930 . S
C558 C554 1.524 . S
C558 H570 0.956 . S
C558 H571 0.961 . S
C558 H572 0.961 . S
C559 C556 1.539 . S
C559 H573 0.958 . S
C559 H574 0.961 . S
C559 H575 0.960 . S
H560 C544 0.931 . S
H561 C549 0.929 . S
H562 C550 0.960 . S
H563 C550 0.962 . S
H564 C550 0.960 . S
H565 C551 0.961 . S
H566 C551 0.961 . S
H567 C551 0.961 . S
H568 C552 0.931 . S
H569 C557 0.930 . S
H570 C558 0.956 . S
H571 C558 0.961 . S
H572 C558 0.961 . S
H573 C559 0.958 . S
H574 C559 0.961 . S
H575 C559 0.960 . S
C576 C577 1.391 1_655 S
C576 C578 1.394 . S
C576 H592 0.931 . S
C577 C576 1.391 1_455 S
C577 C581 1.376 . S
C578 C576 1.394 . S
C578 C579 1.369 1_655 S
C578 C582 1.531 . S
C579 C578 1.369 1_455 S
C579 C580 1.410 . S
C579 C587 1.503 . S
C580 C579 1.410 . S
C580 C581 1.392 . S
C580 C583 1.511 . S
C581 C577 1.376 . S
C581 C580 1.392 . S
C581 H593 0.929 . S
C582 C578 1.531 . S
C582 H594 0.960 . S
C582 H595 0.962 . S
C582 H596 0.960 . S
C583 C580 1.511 . S
C583 H597 0.961 . S
C583 H598 0.961 . S
C583 H599 0.961 . S
C584 C585 1.370 1_655 S
C584 C586 1.363 . S
C584 H600 0.931 . S
C585 C584 1.370 1_455 S
C585 C589 1.408 . S
C586 C584 1.363 . S
C586 C587 1.370 1_655 S
C586 C590 1.524 . S
C587 C579 1.503 . S
C587 C586 1.370 1_455 S
C587 C588 1.403 . S
C588 C587 1.403 . S
C588 C589 1.404 . S
C588 C591 1.539 . S
C589 C585 1.408 . S
C589 C588 1.404 . S
C589 H601 0.930 . S
C590 C586 1.524 . S
C590 H602 0.956 . S
C590 H603 0.961 . S
C590 H604 0.961 . S
C591 C588 1.539 . S
C591 H605 0.958 . S
C591 H606 0.961 . S
C591 H607 0.960 . S
H592 C576 0.931 . S
H593 C581 0.929 . S
H594 C582 0.960 . S
H595 C582 0.962 . S
H596 C582 0.960 . S
H597 C583 0.961 . S
H598 C583 0.961 . S
H599 C583 0.961 . S
H600 C584 0.931 . S
H601 C589 0.930 . S
H602 C590 0.956 . S
H603 C590 0.961 . S
H604 C590 0.961 . S
H605 C591 0.958 . S
H606 C591 0.961 . S
H607 C591 0.960 . S
C608 C609 1.391 . S
C608 C610 1.394 . S
C608 H624 0.931 . S
C609 C608 1.391 . S
C609 C613 1.376 1_545 S
C610 C608 1.394 . S
C610 C611 1.369 . S
C610 C614 1.531 . S
C611 C610 1.369 . S
C611 C612 1.410 1_545 S
C611 C619 1.503 1_554 S
C612 C611 1.410 1_565 S
C612 C613 1.392 . S
C612 C615 1.511 . S
C613 C609 1.376 1_565 S
C613 C612 1.392 . S
C613 H625 0.929 . S
C614 C610 1.531 . S
C614 H626 0.960 1_554 S
C614 H627 0.962 1_554 S
C614 H628 0.960 . S
C615 C612 1.511 . S
C615 H629 0.961 . S
C615 H630 0.961 . S
C615 H631 0.961 . S
C616 C617 1.370 1_565 S
C616 C618 1.363 . S
C616 H632 0.931 . S
C617 C616 1.370 1_545 S
C617 C621 1.408 . S
C618 C616 1.363 . S
C618 C619 1.370 1_565 S
C618 C622 1.524 . S
C619 C611 1.503 1_556 S
C619 C618 1.370 1_545 S
C619 C620 1.403 . S
C620 C619 1.403 . S
C620 C621 1.404 . S
C620 C623 1.539 1_556 S
C621 C617 1.408 . S
C621 C620 1.404 . S
C621 H633 0.930 . S
C622 C618 1.524 . S
C622 H634 0.956 . S
C622 H635 0.961 . S
C622 H636 0.961 . S
C623 C620 1.539 1_554 S
C623 H637 0.958 . S
C623 H638 0.961 . S
C623 H639 0.960 . S
H624 C608 0.931 . S
H625 C613 0.929 . S
H626 C614 0.960 1_556 S
H627 C614 0.962 1_556 S
H628 C614 0.960 . S
H629 C615 0.961 . S
H630 C615 0.961 . S
H631 C615 0.961 . S
H632 C616 0.931 . S
H633 C621 0.930 . S
H634 C622 0.956 . S
H635 C622 0.961 . S
H636 C622 0.961 . S
H637 C623 0.958 . S
H638 C623 0.961 . S
H639 C623 0.960 . S
C640 C641 1.391 . S
C640 C642 1.394 . S
C640 H656 0.931 . S
C641 C640 1.391 . S
C641 C645 1.376 . S
C642 C640 1.394 . S
C642 C643 1.369 . S
C642 C646 1.531 . S
C643 C642 1.369 . S
C643 C644 1.410 . S
C643 C651 1.503 1_554 S
C644 C643 1.410 . S
C644 C645 1.392 . S
C644 C647 1.511 . S
C645 C641 1.376 . S
C645 C644 1.392 . S
C645 H657 0.929 . S
C646 C642 1.531 . S
C646 H658 0.960 1_554 S
C646 H659 0.962 . S
C646 H660 0.960 . S
C647 C644 1.511 . S
C647 H661 0.961 . S
C647 H662 0.961 . S
C647 H663 0.961 . S
C648 C649 1.370 . S
C648 C650 1.363 . S
C648 H664 0.931 . S
C649 C648 1.370 . S
C649 C653 1.408 . S
C650 C648 1.363 . S
C650 C651 1.370 . S
C650 C654 1.524 1_556 S
C651 C643 1.503 1_556 S
C651 C650 1.370 . S
C651 C652 1.403 . S
C652 C651 1.403 . S
C652 C653 1.404 . S
C652 C655 1.539 . S
C653 C649 1.408 . S
C653 C652 1.404 . S
C653 H665 0.930 . S
C654 C650 1.524 1_554 S
C654 H666 0.956 . S
C654 H667 0.961 . S
C654 H668 0.961 . S
C655 C652 1.539 . S
C655 H669 0.958 . S
C655 H670 0.961 . S
C655 H671 0.960 . S
H656 C640 0.931 . S
H657 C645 0.929 . S
H658 C646 0.960 1_556 S
H659 C646 0.962 . S
H660 C646 0.960 . S
H661 C647 0.961 . S
H662 C647 0.961 . S
H663 C647 0.961 . S
H664 C648 0.931 . S
H665 C653 0.930 . S
H666 C654 0.956 . S
H667 C654 0.961 . S
H668 C654 0.961 . S
H669 C655 0.958 . S
H670 C655 0.961 . S
H671 C655 0.960 . S
C672 C673 1.391 . S
C672 C674 1.394 . S
C672 H688 0.931 . S
C673 C672 1.391 . S
C673 C677 1.376 . S
C674 C672 1.394 . S
C674 C675 1.369 . S
C674 C678 1.531 . S
C675 C674 1.369 . S
C675 C676 1.410 . S
C675 C683 1.503 1_554 S
C676 C675 1.410 . S
C676 C677 1.392 . S
C676 C679 1.511 1_554 S
C677 C673 1.376 . S
C677 C676 1.392 . S
C677 H689 0.929 . S
C678 C674 1.531 . S
C678 H690 0.960 . S
C678 H691 0.962 . S
C678 H692 0.960 . S
C679 C676 1.511 1_556 S
C679 H693 0.961 1_556 S
C679 H694 0.961 . S
C679 H695 0.961 . S
C680 C681 1.370 . S
C680 C682 1.363 . S
C680 H696 0.931 . S
C681 C680 1.370 . S
C681 C685 1.408 . S
C682 C680 1.363 . S
C682 C683 1.370 . S
C682 C686 1.524 1_556 S
C683 C675 1.503 1_556 S
C683 C682 1.370 . S
C683 C684 1.403 . S
C684 C683 1.403 . S
C684 C685 1.404 . S
C684 C687 1.539 . S
C685 C681 1.408 . S
C685 C684 1.404 . S
C685 H697 0.930 . S
C686 C682 1.524 1_554 S
C686 H698 0.956 . S
C686 H699 0.961 . S
C686 H700 0.961 1_554 S
C687 C684 1.539 . S
C687 H701 0.958 . S
C687 H702 0.961 . S
C687 H703 0.960 . S
H688 C672 0.931 . S
H689 C677 0.929 . S
H690 C678 0.960 . S
H691 C678 0.962 . S
H692 C678 0.960 . S
H693 C679 0.961 1_554 S
H694 C679 0.961 . S
H695 C679 0.961 . S
H696 C680 0.931 . S
H697 C685 0.930 . S
H698 C686 0.956 . S
H699 C686 0.961 . S
H700 C686 0.961 1_556 S
H701 C687 0.958 . S
H702 C687 0.961 . S
H703 C687 0.960 . S
C704 C705 1.391 1_455 S
C704 C706 1.394 . S
C704 H720 0.931 . S
C705 C704 1.391 1_655 S
C705 C709 1.376 . S
C706 C704 1.394 . S
C706 C707 1.369 1_455 S
C706 C710 1.531 . S
C707 C706 1.369 1_655 S
C707 C708 1.410 . S
C707 C715 1.503 1_554 S
C708 C707 1.410 . S
C708 C709 1.392 . S
C708 C711 1.511 . S
C709 C705 1.376 . S
C709 C708 1.392 . S
C709 H721 0.929 . S
C710 C706 1.531 . S
C710 H722 0.960 . S
C710 H723 0.962 . S
C710 H724 0.960 . S
C711 C708 1.511 . S
C711 H725 0.961 . S
C711 H726 0.961 1_554 S
C711 H727 0.961 . S
C712 C713 1.370 1_455 S
C712 C714 1.363 . S
C712 H728 0.931 . S
C713 C712 1.370 1_655 S
C713 C717 1.408 . S
C714 C712 1.363 . S
C714 C715 1.370 1_455 S
C714 C718 1.524 . S
C715 C707 1.503 1_556 S
C715 C714 1.370 1_655 S
C715 C716 1.403 . S
C716 C715 1.403 . S
C716 C717 1.404 . S
C716 C719 1.539 1_556 S
C717 C713 1.408 . S
C717 C716 1.404 . S
C717 H729 0.930 . S
C718 C714 1.524 . S
C718 H730 0.956 . S
C718 H731 0.961 . S
C718 H732 0.961 . S
C719 C716 1.539 1_554 S
C719 H733 0.958 . S
C719 H734 0.961 1_554 S
C719 H735 0.960 . S
H720 C704 0.931 . S
H721 C709 0.929 . S
H722 C710 0.960 . S
H723 C710 0.962 . S
H724 C710 0.960 . S
H725 C711 0.961 . S
H726 C711 0.961 1_556 S
H727 C711 0.961 . S
H728 C712 0.931 . S
H729 C717 0.930 . S
H730 C718 0.956 . S
H731 C718 0.961 . S
H732 C718 0.961 . S
H733 C719 0.958 . S
H734 C719 0.961 1_556 S
H735 C719 0.960 . S
C736 C737 1.401 . S
C736 C738 1.383 1_455 S
C736 H752 0.931 . S
C737 C736 1.401 . S
C737 C741 1.354 1_455 S
C738 C736 1.383 1_655 S
C738 C739 1.389 . S
C738 C742 1.522 1_655 S
C739 C738 1.389 . S
C739 C740 1.410 . S
C739 C747 1.503 . S
C740 C739 1.410 . S
C740 C741 1.392 . S
C740 C743 1.511 . S
C741 C737 1.354 1_655 S
C741 C740 1.392 . S
C741 H753 0.929 . S
C742 C738 1.522 1_455 S
C742 H754 0.960 1_455 S
C742 H755 0.962 . S
C742 H756 0.960 . S
C743 C740 1.511 . S
C743 H757 0.961 . S
C743 H758 0.961 . S
C743 H759 0.961 . S
C744 C745 1.370 . S
C744 C746 1.363 . S
C744 H760 0.931 . S
C745 C744 1.370 . S
C745 C749 1.408 . S
C746 C744 1.363 . S
C746 C747 1.370 . S
C746 C750 1.524 1_655 S
C747 C739 1.503 . S
C747 C746 1.370 . S
C747 C748 1.403 . S
C748 C747 1.403 . S
C748 C749 1.404 . S
C748 C751 1.539 . S
C749 C745 1.408 . S
C749 C748 1.404 . S
C749 H761 0.930 . S
C750 C746 1.524 1_455 S
C750 H762 0.956 . S
C750 H763 0.961 . S
C750 H764 0.961 . S
C751 C748 1.539 . S
C751 H765 0.958 . S
C751 H766 0.961 . S
C751 H767 0.960 . S
H752 C736 0.931 . S
H753 C741 0.929 . S
H754 C742 0.960 1_655 S
H755 C742 0.962 . S
H756 C742 0.960 . S
H757 C743 0.961 . S
H758 C743 0.961 . S
H759 C743 0.961 . S
H760 C744 0.931 . S
H761 C749 0.930 . S
H762 C750 0.956 . S
H763 C750 0.961 . S
H764 C750 0.961 . S
H765 C751 0.958 . S
H766 C751 0.961 . S
H767 C751 0.960 . S
C768 C769 1.391 . S
C768 C770 1.394 . S
C768 H784 0.931 . S
C769 C768 1.391 . S
C769 C773 1.376 1_545 S
C770 C768 1.394 . S
C770 C771 1.369 1_545 S
C770 C774 1.531 . S
C771 C770 1.369 1_565 S
C771 C772 1.410 . S
C771 C779 1.503 . S
C772 C771 1.410 . S
C772 C773 1.392 . S
C772 C775 1.511 . S
C773 C769 1.376 1_565 S
C773 C772 1.392 . S
C773 H785 0.929 . S
C774 C770 1.531 . S
C774 H786 0.960 . S
C774 H787 0.962 . S
C774 H788 0.960 . S
C775 C772 1.511 . S
C775 H789 0.961 . S
C775 H790 0.961 . S
C775 H791 0.961 . S
C776 C777 1.370 . S
C776 C778 1.363 . S
C776 H792 0.931 . S
C777 C776 1.370 . S
C777 C781 1.408 . S
C778 C776 1.363 . S
C778 C779 1.370 . S
C778 C782 1.527 1_565 S
C779 C771 1.503 . S
C779 C778 1.370 . S
C779 C780 1.403 . S
C780 C779 1.403 . S
C780 C781 1.404 . S
C780 C783 1.539 . S
C781 C777 1.408 . S
C781 C780 1.404 . S
C781 H793 0.930 . S
C782 C778 1.527 1_545 S
C782 H794 0.952 . S
C782 H795 0.963 1_545 S
C782 H796 0.960 . S
C783 C780 1.539 . S
C783 H797 0.958 . S
C783 H798 0.961 . S
C783 H799 0.960 . S
H784 C768 0.931 . S
H785 C773 0.929 . S
H786 C774 0.960 . S
H787 C774 0.962 . S
H788 C774 0.960 . S
H789 C775 0.961 . S
H790 C775 0.961 . S
H791 C775 0.961 . S
H792 C776 0.931 . S
H793 C781 0.930 . S
H794 C782 0.952 . S
H795 C782 0.963 1_565 S
H796 C782 0.960 . S
H797 C783 0.958 . S
H798 C783 0.961 . S
H799 C783 0.960 . S
C800 C801 1.391 . S
C800 C802 1.394 . S
C800 H816 0.931 . S
C801 C800 1.391 . S
C801 C805 1.376 . S
C802 C800 1.394 . S
C802 C803 1.369 . S
C802 C806 1.531 . S
C803 C802 1.369 . S
C803 C804 1.410 . S
C803 C811 1.503 . S
C804 C803 1.410 . S
C804 C805 1.392 . S
C804 C807 1.511 . S
C805 C801 1.376 . S
C805 C804 1.392 . S
C805 H817 0.929 . S
C806 C802 1.531 . S
C806 H818 0.960 . S
C806 H819 0.962 . S
C806 H820 0.960 . S
C807 C804 1.511 . S
C807 H821 0.961 . S
C807 H822 0.961 . S
C807 H823 0.961 . S
C808 C809 1.370 . S
C808 C810 1.363 . S
C808 H824 0.931 . S
C809 C808 1.370 . S
C809 C813 1.408 . S
C810 C808 1.363 . S
C810 C811 1.370 . S
C810 C814 1.524 . S
C811 C803 1.503 . S
C811 C810 1.370 . S
C811 C812 1.403 . S
C812 C811 1.403 . S
C812 C813 1.404 . S
C812 C815 1.539 . S
C813 C809 1.408 . S
C813 C812 1.404 . S
C813 H825 0.930 . S
C814 C810 1.524 . S
C814 H826 0.956 . S
C814 H827 0.961 . S
C814 H828 0.961 . S
C815 C812 1.539 . S
C815 H829 0.958 . S
C815 H830 0.961 . S
C815 H831 0.960 . S
H816 C800 0.931 . S
H817 C805 0.929 . S
H818 C806 0.960 . S
H819 C806 0.962 . S
H820 C806 0.960 . S
H821 C807 0.961 . S
H822 C807 0.961 . S
H823 C807 0.961 . S
H824 C808 0.931 . S
H825 C813 0.930 . S
H826 C814 0.956 . S
H827 C814 0.961 . S
H828 C814 0.961 . S
H829 C815 0.958 . S
H830 C815 0.961 . S
H831 C815 0.960 . S
C832 C833 1.391 . S
C832 C834 1.394 . S
C832 H848 0.931 . S
C833 C832 1.391 . S
C833 C837 1.376 . S
C834 C832 1.394 . S
C834 C835 1.369 . S
C834 C838 1.531 . S
C835 C834 1.369 . S
C835 C836 1.410 . S
C835 C843 1.503 . S
C836 C835 1.410 . S
C836 C837 1.392 . S
C836 C839 1.511 . S
C837 C833 1.376 . S
C837 C836 1.392 . S
C837 H849 0.929 . S
C838 C834 1.531 . S
C838 H850 0.960 . S
C838 H851 0.962 . S
C838 H852 0.960 . S
C839 C836 1.511 . S
C839 H853 0.961 . S
C839 H854 0.961 . S
C839 H855 0.961 . S
C840 C841 1.370 . S
C840 C842 1.363 . S
C840 H856 0.931 . S
C841 C840 1.370 . S
C841 C845 1.408 . S
C842 C840 1.363 . S
C842 C843 1.370 . S
C842 C846 1.524 . S
C843 C835 1.503 . S
C843 C842 1.370 . S
C843 C844 1.403 . S
C844 C843 1.403 . S
C844 C845 1.404 . S
C844 C847 1.539 . S
C845 C841 1.408 . S
C845 C844 1.404 . S
C845 H857 0.930 . S
C846 C842 1.524 . S
C846 H858 0.956 . S
C846 H859 0.961 . S
C846 H860 0.961 . S
C847 C844 1.539 . S
C847 H861 0.958 . S
C847 H862 0.961 . S
C847 H863 0.960 . S
H848 C832 0.931 . S
H849 C837 0.929 . S
H850 C838 0.960 . S
H851 C838 0.962 . S
H852 C838 0.960 . S
H853 C839 0.961 . S
H854 C839 0.961 . S
H855 C839 0.961 . S
H856 C840 0.931 . S
H857 C845 0.930 . S
H858 C846 0.956 . S
H859 C846 0.961 . S
H860 C846 0.961 . S
H861 C847 0.958 . S
H862 C847 0.961 . S
H863 C847 0.960 . S
C864 C865 1.391 1_455 S
C864 C866 1.394 . S
C864 H880 0.931 . S
C865 C864 1.391 1_655 S
C865 C869 1.376 . S
C866 C864 1.394 . S
C866 C867 1.369 1_554 S
C866 C870 1.531 . S
C867 C866 1.369 1_556 S
C867 C868 1.409 1_456 S
C867 C875 1.503 . S
C868 C867 1.409 1_654 S
C868 C869 1.394 . S
C868 C871 1.510 1_554 S
C869 C865 1.376 . S
C869 C868 1.394 . S
C869 H881 0.929 . S
C870 C866 1.531 . S
C870 H882 0.960 1_554 S
C870 H883 0.962 . S
C870 H884 0.960 . S
C871 C868 1.510 1_556 S
C871 H885 0.960 . S
C871 H886 0.961 . S
C871 H887 0.961 . S
C872 C873 1.370 . S
C872 C874 1.363 1_556 S
C872 H888 0.931 1_556 S
C873 C872 1.370 . S
C873 C877 1.408 . S
C874 C872 1.363 1_554 S
C874 C875 1.370 1_554 S
C874 C878 1.524 . S
C875 C867 1.503 . S
C875 C874 1.370 1_556 S
C875 C876 1.403 . S
C876 C875 1.403 . S
C876 C877 1.404 . S
C876 C879 1.539 . S
C877 C873 1.408 . S
C877 C876 1.404 . S
C877 H889 0.930 . S
C878 C874 1.524 . S
C878 H890 0.956 . S
C878 H891 0.961 . S
C878 H892 0.961 . S
C879 C876 1.539 . S
C879 H893 0.958 . S
C879 H894 0.961 . S
C879 H895 0.960 . S
H880 C864 0.931 . S
H881 C869 0.929 . S
H882 C870 0.960 1_556 S
H883 C870 0.962 . S
H884 C870 0.960 . S
H885 C871 0.960 . S
H886 C871 0.961 . S
H887 C871 0.961 . S
H888 C872 0.931 1_554 S
H889 C877 0.930 . S
H890 C878 0.956 . S
H891 C878 0.961 . S
H892 C878 0.961 . S
H893 C879 0.958 . S
H894 C879 0.961 . S
H895 C879 0.960 . S
C896 C897 1.390 . S
C896 C898 1.394 . S
C896 H912 0.931 . S
C897 C896 1.390 . S
C897 C901 1.376 1_554 S
C898 C896 1.394 . S
C898 C899 1.369 . S
C898 C902 1.531 . S
C899 C898 1.369 . S
C899 C900 1.410 1_554 S
C899 C907 1.503 1_554 S
C900 C899 1.410 1_556 S
C900 C901 1.392 . S
C900 C903 1.511 . S
C901 C897 1.376 1_556 S
C901 C900 1.392 . S
C901 H913 0.928 . S
C902 C898 1.531 . S
C902 H914 0.960 . S
C902 H915 0.962 . S
C902 H916 0.960 . S
C903 C900 1.511 . S
C903 H917 0.961 . S
C903 H918 0.961 . S
C903 H919 0.961 . S
C904 C905 1.370 . S
C904 C906 1.363 . S
C904 H920 0.931 1_545 S
C905 C904 1.370 . S
C905 C909 1.408 . S
C906 C904 1.363 . S
C906 C907 1.370 . S
C906 C910 1.524 1_545 S
C907 C899 1.503 1_556 S
C907 C906 1.370 . S
C907 C908 1.403 . S
C908 C907 1.403 . S
C908 C909 1.404 . S
C908 C911 1.539 . S
C909 C905 1.408 . S
C909 C908 1.404 . S
C909 H921 0.930 . S
C910 C906 1.524 1_565 S
C910 H922 0.956 1_556 S
C910 H923 0.961 . S
C910 H924 0.961 . S
C911 C908 1.539 . S
C911 H925 0.958 1_556 S
C911 H926 0.961 . S
C911 H927 0.960 . S
H912 C896 0.931 . S
H913 C901 0.928 . S
H914 C902 0.960 . S
H915 C902 0.962 . S
H916 C902 0.960 . S
H917 C903 0.961 . S
H918 C903 0.961 . S
H919 C903 0.961 . S
H920 C904 0.931 1_565 S
H921 C909 0.930 . S
H922 C910 0.956 1_554 S
H923 C910 0.961 . S
H924 C910 0.961 . S
H925 C911 0.958 1_554 S
H926 C911 0.961 . S
H927 C911 0.960 . S
C928 C929 1.391 . S
C928 C930 1.394 . S
C928 H944 0.931 . S
C929 C928 1.391 . S
C929 C933 1.376 . S
C930 C928 1.394 . S
C930 C931 1.369 . S
C930 C934 1.531 . S
C931 C930 1.369 . S
C931 C932 1.410 1_554 S
C931 C939 1.503 1_554 S
C932 C931 1.410 1_556 S
C932 C933 1.392 1_556 S
C932 C935 1.511 . S
C933 C929 1.376 . S
C933 C932 1.392 1_554 S
C933 H945 0.929 1_554 S
C934 C930 1.531 . S
C934 H946 0.960 . S
C934 H947 0.962 . S
C934 H948 0.960 . S
C935 C932 1.511 . S
C935 H949 0.961 . S
C935 H950 0.961 . S
C935 H951 0.961 . S
C936 C937 1.370 . S
C936 C938 1.363 . S
C936 H952 0.931 . S
C937 C936 1.370 . S
C937 C941 1.408 . S
C938 C936 1.363 . S
C938 C939 1.370 . S
C938 C942 1.524 1_556 S
C939 C931 1.503 1_556 S
C939 C938 1.370 . S
C939 C940 1.403 . S
C940 C939 1.403 . S
C940 C941 1.404 . S
C940 C943 1.539 . S
C941 C937 1.408 . S
C941 C940 1.404 . S
C941 H953 0.930 . S
C942 C938 1.524 1_554 S
C942 H954 0.956 . S
C942 H955 0.961 . S
C942 H956 0.961 . S
C943 C940 1.539 . S
C943 H957 0.958 . S
C943 H958 0.961 . S
C943 H959 0.960 . S
H944 C928 0.931 . S
H945 C933 0.929 1_556 S
H946 C934 0.960 . S
H947 C934 0.962 . S
H948 C934 0.960 . S
H949 C935 0.961 . S
H950 C935 0.961 . S
H951 C935 0.961 . S
H952 C936 0.931 . S
H953 C941 0.930 . S
H954 C942 0.956 . S
H955 C942 0.961 . S
H956 C942 0.961 . S
H957 C943 0.958 . S
H958 C943 0.961 . S
H959 C943 0.960 . S
C960 C961 1.407 . S
C960 C962 1.387 1_554 S
C960 H976 0.922 1_554 S
C961 C960 1.407 . S
C961 C965 1.376 . S
C962 C960 1.387 1_556 S
C962 C963 1.369 1_556 S
C962 C966 1.531 . S
C963 C962 1.369 1_554 S
C963 C964 1.410 . S
C963 C971 1.503 1_554 S
C964 C963 1.410 . S
C964 C965 1.392 . S
C964 C967 1.511 . S
C965 C961 1.376 . S
C965 C964 1.392 . S
C965 H977 0.929 . S
C966 C962 1.531 . S
C966 H978 0.960 . S
C966 H979 0.962 . S
C966 H980 0.960 . S
C967 C964 1.511 . S
C967 H981 0.961 . S
C967 H982 0.961 . S
C967 H983 0.961 . S
C968 C969 1.370 . S
C968 C970 1.363 . S
C968 H984 0.931 . S
C969 C968 1.370 . S
C969 C973 1.408 . S
C970 C968 1.363 . S
C970 C971 1.370 . S
C970 C974 1.524 . S
C971 C963 1.503 1_556 S
C971 C970 1.370 . S
C971 C972 1.403 . S
C972 C971 1.403 . S
C972 C973 1.404 . S
C972 C975 1.539 1_556 S
C973 C969 1.408 . S
C973 C972 1.404 . S
C973 H985 0.930 . S
C974 C970 1.524 . S
C974 H986 0.956 . S
C974 H987 0.961 1_556 S
C974 H988 0.961 . S
C975 C972 1.539 1_554 S
C975 H989 0.958 1_554 S
C975 H990 0.961 . S
C975 H991 0.960 . S
H976 C960 0.922 1_556 S
H977 C965 0.929 . S
H978 C966 0.960 . S
H979 C966 0.962 . S
H980 C966 0.960 . S
H981 C967 0.961 . S
H982 C967 0.961 . S
H983 C967 0.961 . S
H984 C968 0.931 . S
H985 C973 0.930 . S
H986 C974 0.956 . S
H987 C974 0.961 1_554 S
H988 C974 0.961 . S
H989 C975 0.958 1_556 S
H990 C975 0.961 . S
H991 C975 0.960 . S
C992 C993 1.391 1_655 S
C992 C994 1.394 . S
C992 H1008 0.931 . S
C993 C992 1.391 1_455 S
C993 C997 1.376 . S
C994 C992 1.394 . S
C994 C995 1.369 1_655 S
C994 C998 1.531 . S
C995 C994 1.369 1_455 S
C995 C996 1.410 . S
C995 C1003 1.503 . S
C996 C995 1.410 . S
C996 C997 1.392 . S
C996 C999 1.511 . S
C997 C993 1.376 . S
C997 C996 1.392 . S
C997 H1009 0.929 . S
C998 C994 1.531 . S
C998 H1010 0.960 . S
C998 H1011 0.962 . S
C998 H1012 0.960 . S
C999 C996 1.511 . S
C999 H1013 0.961 . S
C999 H1014 0.961 . S
C999 H1015 0.961 . S
C1000 C1001 1.370 . S
C1000 C1002 1.365 . S
C1000 H1016 0.931 1_455 S
C1001 C1000 1.370 . S
C1001 C1005 1.408 . S
C1002 C1000 1.365 . S
C1002 C1003 1.382 . S
C1002 C1006 1.513 1_455 S
C1003 C995 1.503 . S
C1003 C1002 1.382 . S
C1003 C1004 1.403 . S
C1004 C1003 1.403 . S
C1004 C1005 1.404 . S
C1004 C1007 1.539 . S
C1005 C1001 1.408 . S
C1005 C1004 1.404 . S
C1005 H1017 0.930 . S
C1006 C1002 1.513 1_655 S
C1006 H1018 0.956 . S
C1006 H1019 0.961 1_655 S
C1006 H1020 0.961 . S
C1007 C1004 1.539 . S
C1007 H1021 0.958 . S
C1007 H1022 0.961 . S
C1007 H1023 0.960 . S
H1008 C992 0.931 . S
H1009 C997 0.929 . S
H1010 C998 0.960 . S
H1011 C998 0.962 . S
H1012 C998 0.960 . S
H1013 C999 0.961 . S
H1014 C999 0.961 . S
H1015 C999 0.961 . S
H1016 C1000 0.931 1_655 S
H1017 C1005 0.930 . S
H1018 C1006 0.956 . S
H1019 C1006 0.961 1_455 S
H1020 C1006 0.961 . S
H1021 C1007 0.958 . S
H1022 C1007 0.961 . S
H1023 C1007 0.960 . S
C1024 C1025 1.397 . S
C1024 C1026 1.394 . S
C1024 H1040 0.931 . S
C1025 C1024 1.397 . S
C1025 C1029 1.369 1_545 S
C1026 C1024 1.394 . S
C1026 C1027 1.368 1_545 S
C1026 C1030 1.531 . S
C1027 C1026 1.368 1_565 S
C1027 C1028 1.411 . S
C1027 C1035 1.503 1_565 S
C1028 C1027 1.411 . S
C1028 C1029 1.392 . S
C1028 C1031 1.511 . S
C1029 C1025 1.369 1_565 S
C1029 C1028 1.392 . S
C1029 H1041 0.929 . S
C1030 C1026 1.531 . S
C1030 H1042 0.960 . S
C1030 H1043 0.962 . S
C1030 H1044 0.960 . S
C1031 C1028 1.511 . S
C1031 H1045 0.961 . S
C1031 H1046 0.961 . S
C1031 H1047 0.961 . S
C1032 C1033 1.370 . S
C1032 C1034 1.363 . S
C1032 H1048 0.931 . S
C1033 C1032 1.370 . S
C1033 C1037 1.408 1_545 S
C1034 C1032 1.363 . S
C1034 C1035 1.370 . S
C1034 C1038 1.524 . S
C1035 C1027 1.503 1_545 S
C1035 C1034 1.370 . S
C1035 C1036 1.403 1_545 S
C1036 C1035 1.403 1_565 S
C1036 C1037 1.404 . S
C1036 C1039 1.539 . S
C1037 C1033 1.408 1_565 S
C1037 C1036 1.404 . S
C1037 H1049 0.930 . S
C1038 C1034 1.524 . S
C1038 H1050 0.956 . S
C1038 H1051 0.961 . S
C1038 H1052 0.961 . S
C1039 C1036 1.539 . S
C1039 H1053 0.958 . S
C1039 H1054 0.961 . S
C1039 H1055 0.960 . S
H1040 C1024 0.931 . S
H1041 C1029 0.929 . S
H1042 C1030 0.960 . S
H1043 C1030 0.962 . S
H1044 C1030 0.960 . S
H1045 C1031 0.961 . S
H1046 C1031 0.961 . S
H1047 C1031 0.961 . S
H1048 C1032 0.931 . S
H1049 C1037 0.930 . S
H1050 C1038 0.956 . S
H1051 C1038 0.961 . S
H1052 C1038 0.961 . S
H1053 C1039 0.958 . S
H1054 C1039 0.961 . S
H1055 C1039 0.960 . S
C1056 C1057 1.391 . S
C1056 C1058 1.394 . S
C1056 H1072 0.931 . S
C1057 C1056 1.391 . S
C1057 C1061 1.376 . S
C1058 C1056 1.394 . S
C1058 C1059 1.369 . S
C1058 C1062 1.531 . S
C1059 C1058 1.369 . S
C1059 C1060 1.410 . S
C1059 C1067 1.503 . S
C1060 C1059 1.410 . S
C1060 C1061 1.392 . S
C1060 C1063 1.511 . S
C1061 C1057 1.376 . S
C1061 C1060 1.392 . S
C1061 H1073 0.929 . S
C1062 C1058 1.531 . S
C1062 H1074 0.960 . S
C1062 H1075 0.962 . S
C1062 H1076 0.960 . S
C1063 C1060 1.511 . S
C1063 H1077 0.961 . S
C1063 H1078 0.961 . S
C1063 H1079 0.961 . S
C1064 C1065 1.370 . S
C1064 C1066 1.363 . S
C1064 H1080 0.931 . S
C1065 C1064 1.370 . S
C1065 C1069 1.408 . S
C1066 C1064 1.363 . S
C1066 C1067 1.370 . S
C1066 C1070 1.524 . S
C1067 C1059 1.503 . S
C1067 C1066 1.370 . S
C1067 C1068 1.403 . S
C1068 C1067 1.403 . S
C1068 C1069 1.404 . S
C1068 C1071 1.539 . S
C1069 C1065 1.408 . S
C1069 C1068 1.404 . S
C1069 H1081 0.930 . S
C1070 C1066 1.524 . S
C1070 H1082 0.956 . S
C1070 H1083 0.961 . S
C1070 H1084 0.961 . S
C1071 C1068 1.539 . S
C1071 H1085 0.958 . S
C1071 H1086 0.961 . S
C1071 H1087 0.960 . S
H1072 C1056 0.931 . S
H1073 C1061 0.929 . S
H1074 C1062 0.960 . S
H1075 C1062 0.962 . S
H1076 C1062 0.960 . S
H1077 C1063 0.961 . S
H1078 C1063 0.961 . S
H1079 C1063 0.961 . S
H1080 C1064 0.931 . S
H1081 C1069 0.930 . S
H1082 C1070 0.956 . S
H1083 C1070 0.961 . S
H1084 C1070 0.961 . S
H1085 C1071 0.958 . S
H1086 C1071 0.961 . S
H1087 C1071 0.960 . S
C1088 C1089 1.391 . S
C1088 C1090 1.394 . S
C1088 H1104 0.931 . S
C1089 C1088 1.391 . S
C1089 C1093 1.376 . S
C1090 C1088 1.394 . S
C1090 C1091 1.369 . S
C1090 C1094 1.531 . S
C1091 C1090 1.369 . S
C1091 C1092 1.410 . S
C1091 C1099 1.503 . S
C1092 C1091 1.410 . S
C1092 C1093 1.392 . S
C1092 C1095 1.511 . S
C1093 C1089 1.376 . S
C1093 C1092 1.392 . S
C1093 H1105 0.929 . S
C1094 C1090 1.531 . S
C1094 H1106 0.960 . S
C1094 H1107 0.962 . S
C1094 H1108 0.960 . S
C1095 C1092 1.511 . S
C1095 H1109 0.961 . S
C1095 H1110 0.961 . S
C1095 H1111 0.961 . S
C1096 C1097 1.370 . S
C1096 C1098 1.363 . S
C1096 H1112 0.931 . S
C1097 C1096 1.370 . S
C1097 C1101 1.408 . S
C1098 C1096 1.363 . S
C1098 C1099 1.370 . S
C1098 C1102 1.524 . S
C1099 C1091 1.503 . S
C1099 C1098 1.370 . S
C1099 C1100 1.403 . S
C1100 C1099 1.403 . S
C1100 C1101 1.404 . S
C1100 C1103 1.539 . S
C1101 C1097 1.408 . S
C1101 C1100 1.404 . S
C1101 H1113 0.930 . S
C1102 C1098 1.524 . S
C1102 H1114 0.956 . S
C1102 H1115 0.961 . S
C1102 H1116 0.961 . S
C1103 C1100 1.539 . S
C1103 H1117 0.958 . S
C1103 H1118 0.961 . S
C1103 H1119 0.960 . S
H1104 C1088 0.931 . S
H1105 C1093 0.929 . S
H1106 C1094 0.960 . S
H1107 C1094 0.962 . S
H1108 C1094 0.960 . S
H1109 C1095 0.961 . S
H1110 C1095 0.961 . S
H1111 C1095 0.961 . S
H1112 C1096 0.931 . S
H1113 C1101 0.930 . S
H1114 C1102 0.956 . S
H1115 C1102 0.961 . S
H1116 C1102 0.961 . S
H1117 C1103 0.958 . S
H1118 C1103 0.961 . S
H1119 C1103 0.960 . S
C1120 C1121 1.391 1_455 S
C1120 C1122 1.394 . S
C1120 H1136 0.931 . S
C1121 C1120 1.391 1_655 S
C1121 C1125 1.376 . S
C1122 C1120 1.394 . S
C1122 C1123 1.369 1_455 S
C1122 C1126 1.531 . S
C1123 C1122 1.369 1_655 S
C1123 C1124 1.410 . S
C1123 C1131 1.503 . S
C1124 C1123 1.410 . S
C1124 C1125 1.392 . S
C1124 C1127 1.511 . S
C1125 C1121 1.376 . S
C1125 C1124 1.392 . S
C1125 H1137 0.929 . S
C1126 C1122 1.531 . S
C1126 H1138 0.960 . S
C1126 H1139 0.962 . S
C1126 H1140 0.960 . S
C1127 C1124 1.511 . S
C1127 H1141 0.961 . S
C1127 H1142 0.961 . S
C1127 H1143 0.961 . S
C1128 C1129 1.370 1_455 S
C1128 C1130 1.363 . S
C1128 H1144 0.931 . S
C1129 C1128 1.370 1_655 S
C1129 C1133 1.408 . S
C1130 C1128 1.363 . S
C1130 C1131 1.370 1_455 S
C1130 C1134 1.524 . S
C1131 C1123 1.503 . S
C1131 C1130 1.370 1_655 S
C1131 C1132 1.403 . S
C1132 C1131 1.403 . S
C1132 C1133 1.404 . S
C1132 C1135 1.539 . S
C1133 C1129 1.408 . S
C1133 C1132 1.404 . S
C1133 H1145 0.930 . S
C1134 C1130 1.524 . S
C1134 H1146 0.956 . S
C1134 H1147 0.961 . S
C1134 H1148 0.961 . S
C1135 C1132 1.539 . S
C1135 H1149 0.958 . S
C1135 H1150 0.961 . S
C1135 H1151 0.960 . S
H1136 C1120 0.931 . S
H1137 C1125 0.929 . S
H1138 C1126 0.960 . S
H1139 C1126 0.962 . S
H1140 C1126 0.960 . S
H1141 C1127 0.961 . S
H1142 C1127 0.961 . S
H1143 C1127 0.961 . S
H1144 C1128 0.931 . S
H1145 C1133 0.930 . S
H1146 C1134 0.956 . S
H1147 C1134 0.961 . S
H1148 C1134 0.961 . S
H1149 C1135 0.958 . S
H1150 C1135 0.961 . S
H1151 C1135 0.960 . S
C1152 C1153 1.391 . S
C1152 C1154 1.394 . S
C1152 H1168 0.931 . S
C1153 C1152 1.391 . S
C1153 C1157 1.376 1_565 S
C1154 C1152 1.394 . S
C1154 C1155 1.369 . S
C1154 C1158 1.531 . S
C1155 C1154 1.369 . S
C1155 C1156 1.410 1_565 S
C1155 C1163 1.503 . S
C1156 C1155 1.410 1_545 S
C1156 C1157 1.392 . S
C1156 C1159 1.511 . S
C1157 C1153 1.376 1_545 S
C1157 C1156 1.392 . S
C1157 H1169 0.929 . S
C1158 C1154 1.531 . S
C1158 H1170 0.960 . S
C1158 H1171 0.962 . S
C1158 H1172 0.960 . S
C1159 C1156 1.511 . S
C1159 H1173 0.961 . S
C1159 H1174 0.961 . S
C1159 H1175 0.966 . S
C1160 C1161 1.370 1_545 S
C1160 C1162 1.363 . S
C1160 H1176 0.931 . S
C1161 C1160 1.370 1_565 S
C1161 C1165 1.408 . S
C1162 C1160 1.363 . S
C1162 C1163 1.370 1_545 S
C1162 C1166 1.524 . S
C1163 C1155 1.503 . S
C1163 C1162 1.370 1_565 S
C1163 C1164 1.403 . S
C1164 C1163 1.403 . S
C1164 C1165 1.404 . S
C1164 C1167 1.539 . S
C1165 C1161 1.408 . S
C1165 C1164 1.404 . S
C1165 H1177 0.930 . S
C1166 C1162 1.524 . S
C1166 H1178 0.956 . S
C1166 H1179 0.961 . S
C1166 H1180 0.961 . S
C1167 C1164 1.539 . S
C1167 H1181 0.958 . S
C1167 H1182 0.961 . S
C1167 H1183 0.960 . S
H1168 C1152 0.931 . S
H1169 C1157 0.929 . S
H1170 C1158 0.960 . S
H1171 C1158 0.962 . S
H1172 C1158 0.960 . S
H1173 C1159 0.961 . S
H1174 C1159 0.961 . S
H1175 C1159 0.966 . S
H1176 C1160 0.931 . S
H1177 C1165 0.930 . S
H1178 C1166 0.956 . S
H1179 C1166 0.961 . S
H1180 C1166 0.961 . S
H1181 C1167 0.958 . S
H1182 C1167 0.961 . S
H1183 C1167 0.960 . S
C1184 C1185 1.391 . S
C1184 C1186 1.394 . S
C1184 H1200 0.931 . S
C1185 C1184 1.391 . S
C1185 C1189 1.376 . S
C1186 C1184 1.394 . S
C1186 C1187 1.369 . S
C1186 C1190 1.531 . S
C1187 C1186 1.369 . S
C1187 C1188 1.410 . S
C1187 C1195 1.503 . S
C1188 C1187 1.410 . S
C1188 C1189 1.392 . S
C1188 C1191 1.511 . S
C1189 C1185 1.376 . S
C1189 C1188 1.392 . S
C1189 H1201 0.929 . S
C1190 C1186 1.531 . S
C1190 H1202 0.960 . S
C1190 H1203 0.962 . S
C1190 H1204 0.960 . S
C1191 C1188 1.511 . S
C1191 H1205 0.961 . S
C1191 H1206 0.961 . S
C1191 H1207 0.961 . S
C1192 C1193 1.370 . S
C1192 C1194 1.363 . S
C1192 H1208 0.931 . S
C1193 C1192 1.370 . S
C1193 C1197 1.408 . S
C1194 C1192 1.363 . S
C1194 C1195 1.370 . S
C1194 C1198 1.524 . S
C1195 C1187 1.503 . S
C1195 C1194 1.370 . S
C1195 C1196 1.403 . S
C1196 C1195 1.403 . S
C1196 C1197 1.404 . S
C1196 C1199 1.539 . S
C1197 C1193 1.408 . S
C1197 C1196 1.404 . S
C1197 H1209 0.930 . S
C1198 C1194 1.524 . S
C1198 H1210 0.956 . S
C1198 H1211 0.961 . S
C1198 H1212 0.961 . S
C1199 C1196 1.539 . S
C1199 H1213 0.958 . S
C1199 H1214 0.961 . S
C1199 H1215 0.960 . S
H1200 C1184 0.931 . S
H1201 C1189 0.929 . S
H1202 C1190 0.960 . S
H1203 C1190 0.962 . S
H1204 C1190 0.960 . S
H1205 C1191 0.961 . S
H1206 C1191 0.961 . S
H1207 C1191 0.961 . S
H1208 C1192 0.931 . S
H1209 C1197 0.930 . S
H1210 C1198 0.956 . S
H1211 C1198 0.961 . S
H1212 C1198 0.961 . S
H1213 C1199 0.958 . S
H1214 C1199 0.961 . S
H1215 C1199 0.960 . S
C1216 C1217 1.391 . S
C1216 C1218 1.394 . S
C1216 H1232 0.931 . S
C1217 C1216 1.391 . S
C1217 C1221 1.376 . S
C1218 C1216 1.394 . S
C1218 C1219 1.369 . S
C1218 C1222 1.531 . S
C1219 C1218 1.369 . S
C1219 C1220 1.410 . S
C1219 C1227 1.503 . S
C1220 C1219 1.410 . S
C1220 C1221 1.392 . S
C1220 C1223 1.511 . S
C1221 C1217 1.376 . S
C1221 C1220 1.392 . S
C1221 H1233 0.929 . S
C1222 C1218 1.531 . S
C1222 H1234 0.960 . S
C1222 H1235 0.962 . S
C1222 H1236 0.960 . S
C1223 C1220 1.511 . S
C1223 H1237 0.961 . S
C1223 H1238 0.961 . S
C1223 H1239 0.961 . S
C1224 C1225 1.370 . S
C1224 C1226 1.363 . S
C1224 H1240 0.931 . S
C1225 C1224 1.370 . S
C1225 C1229 1.408 . S
C1226 C1224 1.363 . S
C1226 C1227 1.370 . S
C1226 C1230 1.524 . S
C1227 C1219 1.503 . S
C1227 C1226 1.370 . S
C1227 C1228 1.403 . S
C1228 C1227 1.403 . S
C1228 C1229 1.404 . S
C1228 C1231 1.539 . S
C1229 C1225 1.408 . S
C1229 C1228 1.404 . S
C1229 H1241 0.930 . S
C1230 C1226 1.524 . S
C1230 H1242 0.956 . S
C1230 H1243 0.961 . S
C1230 H1244 0.961 . S
C1231 C1228 1.539 . S
C1231 H1245 0.958 . S
C1231 H1246 0.961 . S
C1231 H1247 0.960 . S
H1232 C1216 0.931 . S
H1233 C1221 0.929 . S
H1234 C1222 0.960 . S
H1235 C1222 0.962 . S
H1236 C1222 0.960 . S
H1237 C1223 0.961 . S
H1238 C1223 0.961 . S
H1239 C1223 0.961 . S
H1240 C1224 0.931 . S
H1241 C1229 0.930 . S
H1242 C1230 0.956 . S
H1243 C1230 0.961 . S
H1244 C1230 0.961 . S
H1245 C1231 0.958 . S
H1246 C1231 0.961 . S
H1247 C1231 0.960 . S
C481 C255 2.201 1_565 S
C489 C329 2.442 1_545 S
C521 C369 2.462 . S
C513 C295 2.210 . S
C553 C409 2.461 . S
C545 C175 2.240 . S
C585 C449 2.449 1_455 S
C577 C215 2.207 . S
C617 C338 2.443 . S
C609 C95 2.260 . S
C641 C135 2.214 . S
C649 C378 2.464 . S
C673 C15 2.234 . S
C681 C418 2.464 . S
C705 C55 2.260 1_655 S
C713 C458 2.446 1_655 S
C745 C335 0.445 . S
C737 C221 0.457 . S
C777 C375 0.436 . S
C769 C261 0.480 . S
C809 C415 0.386 . S
C801 C301 0.333 . S
C833 C181 0.318 . S
C841 C455 0.377 . S
C865 C61 0.571 1_655 S
C873 C326 0.399 . S
C905 C366 0.451 . S
C897 C101 0.406 . S
C937 C406 0.425 . S
C929 C141 0.481 . S
C961 C21 0.544 . S
C969 C446 0.374 . S
C993 C202 3.173 . S
C1001 C339 3.497 . S
C1025 C242 3.124 . S
C1033 C379 3.472 . S
C1065 C419 3.463 . S
C1057 C282 3.093 . S
C1097 C459 3.497 . S
C1089 C162 3.115 . S
C1121 C42 3.150 1_655 S
C1129 C330 3.515 . S
C1161 C370 3.478 . S
C1153 C82 3.155 1_565 S
C1193 C410 3.470 . S
C1185 C122 3.122 . S
C1217 C2 3.182 . S
C1225 C450 3.494 . S
