# Generated by pormake.
# Topology gar, (4,6)-cn, num edge types: 1
# Building blocks:
#     Node 0, Type 0, BuildingBlock: TATPOV_clean_sbu_0, # of connection points: 4
#     Node 1, Type 0, BuildingBlock: TATPOV_clean_sbu_0, # of connection points: 4
#     Node 2, Type 0, BuildingBlock: TATPOV_clean_sbu_0, # of connection points: 4
#     Node 3, Type 0, BuildingBlock: TATPOV_clean_sbu_0, # of connection points: 4
#     Node 4, Type 0, BuildingBlock: TATPOV_clean_sbu_0, # of connection points: 4
#     Node 5, Type 0, BuildingBlock: TATPOV_clean_sbu_0, # of connection points: 4
#     Node 6, Type 0, BuildingBlock: TATPOV_clean_sbu_0, # of connection points: 4
#     Node 7, Type 0, BuildingBlock: TATPOV_clean_sbu_0, # of connection points: 4
#     Node 8, Type 0, BuildingBlock: TATPOV_clean_sbu_0, # of connection points: 4
#     Node 9, Type 0, BuildingBlock: TATPOV_clean_sbu_0, # of connection points: 4
#     Node 10, Type 0, BuildingBlock: TATPOV_clean_sbu_0, # of connection points: 4
#     Node 11, Type 0, BuildingBlock: TATPOV_clean_sbu_0, # of connection points: 4
#     Node 12, Type 0, BuildingBlock: TATPOV_clean_sbu_0, # of connection points: 4
#     Node 13, Type 0, BuildingBlock: TATPOV_clean_sbu_0, # of connection points: 4
#     Node 14, Type 0, BuildingBlock: TATPOV_clean_sbu_0, # of connection points: 4
#     Node 15, Type 0, BuildingBlock: TATPOV_clean_sbu_0, # of connection points: 4
#     Node 16, Type 0, BuildingBlock: TATPOV_clean_sbu_0, # of connection points: 4
#     Node 17, Type 0, BuildingBlock: TATPOV_clean_sbu_0, # of connection points: 4
#     Node 18, Type 0, BuildingBlock: TATPOV_clean_sbu_0, # of connection points: 4
#     Node 19, Type 0, BuildingBlock: TATPOV_clean_sbu_0, # of connection points: 4
#     Node 20, Type 0, BuildingBlock: TATPOV_clean_sbu_0, # of connection points: 4
#     Node 21, Type 0, BuildingBlock: TATPOV_clean_sbu_0, # of connection points: 4
#     Node 22, Type 0, BuildingBlock: TATPOV_clean_sbu_0, # of connection points: 4
#     Node 23, Type 0, BuildingBlock: TATPOV_clean_sbu_0, # of connection points: 4
#     Node 24, Type 1, BuildingBlock: PAMTUU_clean_sbu_0, # of connection points: 6
#     Node 25, Type 1, BuildingBlock: PAMTUU_clean_sbu_0, # of connection points: 6
#     Node 26, Type 1, BuildingBlock: PAMTUU_clean_sbu_0, # of connection points: 6
#     Node 27, Type 1, BuildingBlock: PAMTUU_clean_sbu_0, # of connection points: 6
#     Node 28, Type 1, BuildingBlock: PAMTUU_clean_sbu_0, # of connection points: 6
#     Node 29, Type 1, BuildingBlock: PAMTUU_clean_sbu_0, # of connection points: 6
#     Node 30, Type 1, BuildingBlock: PAMTUU_clean_sbu_0, # of connection points: 6
#     Node 31, Type 1, BuildingBlock: PAMTUU_clean_sbu_0, # of connection points: 6
#     Node 32, Type 1, BuildingBlock: PAMTUU_clean_sbu_0, # of connection points: 6
#     Node 33, Type 1, BuildingBlock: PAMTUU_clean_sbu_0, # of connection points: 6
#     Node 34, Type 1, BuildingBlock: PAMTUU_clean_sbu_0, # of connection points: 6
#     Node 35, Type 1, BuildingBlock: PAMTUU_clean_sbu_0, # of connection points: 6
#     Node 36, Type 1, BuildingBlock: PAMTUU_clean_sbu_0, # of connection points: 6
#     Node 37, Type 1, BuildingBlock: PAMTUU_clean_sbu_0, # of connection points: 6
#     Node 38, Type 1, BuildingBlock: PAMTUU_clean_sbu_0, # of connection points: 6
#     Node 39, Type 1, BuildingBlock: PAMTUU_clean_sbu_0, # of connection points: 6
#     Edge 40, Type (0, 1), BuildingBlock: OJICUG_clean_linker_0, # of connection points: 2
#     Edge 41, Type (0, 1), BuildingBlock: OJICUG_clean_linker_0, # of connection points: 2
#     Edge 42, Type (0, 1), BuildingBlock: OJICUG_clean_linker_0, # of connection points: 2
#     Edge 43, Type (0, 1), BuildingBlock: OJICUG_clean_linker_0, # of connection points: 2
#     Edge 44, Type (0, 1), BuildingBlock: OJICUG_clean_linker_0, # of connection points: 2
#     Edge 45, Type (0, 1), BuildingBlock: OJICUG_clean_linker_0, # of connection points: 2
#     Edge 46, Type (0, 1), BuildingBlock: OJICUG_clean_linker_0, # of connection points: 2
#     Edge 47, Type (0, 1), BuildingBlock: OJICUG_clean_linker_0, # of connection points: 2
#     Edge 48, Type (0, 1), BuildingBlock: OJICUG_clean_linker_0, # of connection points: 2
#     Edge 49, Type (0, 1), BuildingBlock: OJICUG_clean_linker_0, # of connection points: 2
#     Edge 50, Type (0, 1), BuildingBlock: OJICUG_clean_linker_0, # of connection points: 2
#     Edge 51, Type (0, 1), BuildingBlock: OJICUG_clean_linker_0, # of connection points: 2
#     Edge 52, Type (0, 1), BuildingBlock: OJICUG_clean_linker_0, # of connection points: 2
#     Edge 53, Type (0, 1), BuildingBlock: OJICUG_clean_linker_0, # of connection points: 2
#     Edge 54, Type (0, 1), BuildingBlock: OJICUG_clean_linker_0, # of connection points: 2
#     Edge 55, Type (0, 1), BuildingBlock: OJICUG_clean_linker_0, # of connection points: 2
#     Edge 56, Type (0, 1), BuildingBlock: OJICUG_clean_linker_0, # of connection points: 2
#     Edge 57, Type (0, 1), BuildingBlock: OJICUG_clean_linker_0, # of connection points: 2
#     Edge 58, Type (0, 1), BuildingBlock: OJICUG_clean_linker_0, # of connection points: 2
#     Edge 59, Type (0, 1), BuildingBlock: OJICUG_clean_linker_0, # of connection points: 2
#     Edge 60, Type (0, 1), BuildingBlock: OJICUG_clean_linker_0, # of connection points: 2
#     Edge 61, Type (0, 1), BuildingBlock: OJICUG_clean_linker_0, # of connection points: 2
#     Edge 62, Type (0, 1), BuildingBlock: OJICUG_clean_linker_0, # of connection points: 2
#     Edge 63, Type (0, 1), BuildingBlock: OJICUG_clean_linker_0, # of connection points: 2
#     Edge 64, Type (0, 1), BuildingBlock: OJICUG_clean_linker_0, # of connection points: 2
#     Edge 65, Type (0, 1), BuildingBlock: OJICUG_clean_linker_0, # of connection points: 2
#     Edge 66, Type (0, 1), BuildingBlock: OJICUG_clean_linker_0, # of connection points: 2
#     Edge 67, Type (0, 1), BuildingBlock: OJICUG_clean_linker_0, # of connection points: 2
#     Edge 68, Type (0, 1), BuildingBlock: OJICUG_clean_linker_0, # of connection points: 2
#     Edge 69, Type (0, 1), BuildingBlock: OJICUG_clean_linker_0, # of connection points: 2
#     Edge 70, Type (0, 1), BuildingBlock: OJICUG_clean_linker_0, # of connection points: 2
#     Edge 71, Type (0, 1), BuildingBlock: OJICUG_clean_linker_0, # of connection points: 2
#     Edge 72, Type (0, 1), BuildingBlock: OJICUG_clean_linker_0, # of connection points: 2
#     Edge 73, Type (0, 1), BuildingBlock: OJICUG_clean_linker_0, # of connection points: 2
#     Edge 74, Type (0, 1), BuildingBlock: OJICUG_clean_linker_0, # of connection points: 2
#     Edge 75, Type (0, 1), BuildingBlock: OJICUG_clean_linker_0, # of connection points: 2
#     Edge 76, Type (0, 1), BuildingBlock: OJICUG_clean_linker_0, # of connection points: 2
#     Edge 77, Type (0, 1), BuildingBlock: OJICUG_clean_linker_0, # of connection points: 2
#     Edge 78, Type (0, 1), BuildingBlock: OJICUG_clean_linker_0, # of connection points: 2
#     Edge 79, Type (0, 1), BuildingBlock: OJICUG_clean_linker_0, # of connection points: 2
#     Edge 80, Type (0, 1), BuildingBlock: OJICUG_clean_linker_0, # of connection points: 2
#     Edge 81, Type (0, 1), BuildingBlock: OJICUG_clean_linker_0, # of connection points: 2
#     Edge 82, Type (0, 1), BuildingBlock: OJICUG_clean_linker_0, # of connection points: 2
#     Edge 83, Type (0, 1), BuildingBlock: OJICUG_clean_linker_0, # of connection points: 2
#     Edge 84, Type (0, 1), BuildingBlock: OJICUG_clean_linker_0, # of connection points: 2
#     Edge 85, Type (0, 1), BuildingBlock: OJICUG_clean_linker_0, # of connection points: 2
#     Edge 86, Type (0, 1), BuildingBlock: OJICUG_clean_linker_0, # of connection points: 2
#     Edge 87, Type (0, 1), BuildingBlock: OJICUG_clean_linker_0, # of connection points: 2
#     Edge 88, Type (0, 1), BuildingBlock: OJICUG_clean_linker_0, # of connection points: 2
#     Edge 89, Type (0, 1), BuildingBlock: OJICUG_clean_linker_0, # of connection points: 2
#     Edge 90, Type (0, 1), BuildingBlock: OJICUG_clean_linker_0, # of connection points: 2
#     Edge 91, Type (0, 1), BuildingBlock: OJICUG_clean_linker_0, # of connection points: 2
#     Edge 92, Type (0, 1), BuildingBlock: OJICUG_clean_linker_0, # of connection points: 2
#     Edge 93, Type (0, 1), BuildingBlock: OJICUG_clean_linker_0, # of connection points: 2
#     Edge 94, Type (0, 1), BuildingBlock: OJICUG_clean_linker_0, # of connection points: 2
#     Edge 95, Type (0, 1), BuildingBlock: OJICUG_clean_linker_0, # of connection points: 2
#     Edge 96, Type (0, 1), BuildingBlock: OJICUG_clean_linker_0, # of connection points: 2
#     Edge 97, Type (0, 1), BuildingBlock: OJICUG_clean_linker_0, # of connection points: 2
#     Edge 98, Type (0, 1), BuildingBlock: OJICUG_clean_linker_0, # of connection points: 2
#     Edge 99, Type (0, 1), BuildingBlock: OJICUG_clean_linker_0, # of connection points: 2
#     Edge 100, Type (0, 1), BuildingBlock: OJICUG_clean_linker_0, # of connection points: 2
#     Edge 101, Type (0, 1), BuildingBlock: OJICUG_clean_linker_0, # of connection points: 2
#     Edge 102, Type (0, 1), BuildingBlock: OJICUG_clean_linker_0, # of connection points: 2
#     Edge 103, Type (0, 1), BuildingBlock: OJICUG_clean_linker_0, # of connection points: 2
#     Edge 104, Type (0, 1), BuildingBlock: OJICUG_clean_linker_0, # of connection points: 2
#     Edge 105, Type (0, 1), BuildingBlock: OJICUG_clean_linker_0, # of connection points: 2
#     Edge 106, Type (0, 1), BuildingBlock: OJICUG_clean_linker_0, # of connection points: 2
#     Edge 107, Type (0, 1), BuildingBlock: OJICUG_clean_linker_0, # of connection points: 2
#     Edge 108, Type (0, 1), BuildingBlock: OJICUG_clean_linker_0, # of connection points: 2
#     Edge 109, Type (0, 1), BuildingBlock: OJICUG_clean_linker_0, # of connection points: 2
#     Edge 110, Type (0, 1), BuildingBlock: OJICUG_clean_linker_0, # of connection points: 2
#     Edge 111, Type (0, 1), BuildingBlock: OJICUG_clean_linker_0, # of connection points: 2
#     Edge 112, Type (0, 1), BuildingBlock: OJICUG_clean_linker_0, # of connection points: 2
#     Edge 113, Type (0, 1), BuildingBlock: OJICUG_clean_linker_0, # of connection points: 2
#     Edge 114, Type (0, 1), BuildingBlock: OJICUG_clean_linker_0, # of connection points: 2
#     Edge 115, Type (0, 1), BuildingBlock: OJICUG_clean_linker_0, # of connection points: 2
#     Edge 116, Type (0, 1), BuildingBlock: OJICUG_clean_linker_0, # of connection points: 2
#     Edge 117, Type (0, 1), BuildingBlock: OJICUG_clean_linker_0, # of connection points: 2
#     Edge 118, Type (0, 1), BuildingBlock: OJICUG_clean_linker_0, # of connection points: 2
#     Edge 119, Type (0, 1), BuildingBlock: OJICUG_clean_linker_0, # of connection points: 2
#     Edge 120, Type (0, 1), BuildingBlock: OJICUG_clean_linker_0, # of connection points: 2
#     Edge 121, Type (0, 1), BuildingBlock: OJICUG_clean_linker_0, # of connection points: 2
#     Edge 122, Type (0, 1), BuildingBlock: OJICUG_clean_linker_0, # of connection points: 2
#     Edge 123, Type (0, 1), BuildingBlock: OJICUG_clean_linker_0, # of connection points: 2
#     Edge 124, Type (0, 1), BuildingBlock: OJICUG_clean_linker_0, # of connection points: 2
#     Edge 125, Type (0, 1), BuildingBlock: OJICUG_clean_linker_0, # of connection points: 2
#     Edge 126, Type (0, 1), BuildingBlock: OJICUG_clean_linker_0, # of connection points: 2
#     Edge 127, Type (0, 1), BuildingBlock: OJICUG_clean_linker_0, # of connection points: 2
#     Edge 128, Type (0, 1), BuildingBlock: OJICUG_clean_linker_0, # of connection points: 2
#     Edge 129, Type (0, 1), BuildingBlock: OJICUG_clean_linker_0, # of connection points: 2
#     Edge 130, Type (0, 1), BuildingBlock: OJICUG_clean_linker_0, # of connection points: 2
#     Edge 131, Type (0, 1), BuildingBlock: OJICUG_clean_linker_0, # of connection points: 2
#     Edge 132, Type (0, 1), BuildingBlock: OJICUG_clean_linker_0, # of connection points: 2
#     Edge 133, Type (0, 1), BuildingBlock: OJICUG_clean_linker_0, # of connection points: 2
#     Edge 134, Type (0, 1), BuildingBlock: OJICUG_clean_linker_0, # of connection points: 2
#     Edge 135, Type (0, 1), BuildingBlock: OJICUG_clean_linker_0, # of connection points: 2
# Relax obj value: 0.257
# Max RMSD: 0.383
# Mean RMSD: 0.193
data_MOF--net-gar--node1-TATPOV_clean_sbu_0--node2-PAMTUU_clean_sbu_0--edge1-OJICUG_clean_linker_0
_symmetry_space_group_name_H-M    P1
_symmetry_Int_Tables_number       1
_symmetry_cell_setting            triclinic
loop_
_symmetry_equiv_pos_as_xyz
'x, y, z'
_cell_length_a     45.521012
_cell_length_b     41.862149
_cell_length_c     45.102529
_cell_angle_alpha  94.414625
_cell_angle_beta   95.538665
_cell_angle_gamma 111.28451
loop_
_atom_site_label
_atom_site_type_symbol
_atom_site_fract_x
_atom_site_fract_y
_atom_site_fract_z
_atom_type_partial_charge
Zn0 Zn 0.04469 0.30235 0.443 0.0
Zn1 Zn 0.08968 0.31413 0.40727 0.0
O2 O 0.09977 0.36741 0.43472 0.0
O3 O 0.06217 0.3522 0.46393 0.0
O4 O 0.13366 0.31539 0.3791 0.0
O5 O 0.04994 0.26218 0.46424 0.0
O6 O 0.08659 0.26712 0.43489 0.0
C7 C 0.08482 0.37628 0.45531 0.0
C8 C 1.01101 0.30168 0.3851 0.0
O9 O 0.04031 0.30901 0.3786 0.0
O10 O 1.00618 0.29409 0.41136 0.0
C11 C 0.16512 0.3276 0.3859 0.0
O12 O 0.17637 0.34482 0.41274 0.0
C13 C 0.07054 0.25107 0.45553 0.0
Zn14 Zn 0.06419 0.77853 0.72152 0.0
Zn15 Zn 0.07767 0.82991 0.68792 0.0
O16 O 0.03202 0.82629 0.71258 0.0
O17 O 1.02367 0.78344 0.73957 0.0
O18 O 0.08639 0.88067 0.66472 0.0
O19 O 0.1113 0.79377 0.7436 0.0
O20 O 0.12606 0.83571 0.71529 0.0
C21 C 1.01461 0.80712 0.73105 0.0
C22 C 0.06573 0.7496 0.65958 0.0
O23 O 0.07233 0.78186 0.65501 0.0
O24 O 0.05868 0.74175 0.68539 0.0
C25 C 0.07417 0.88731 0.63947 0.0
O26 O 0.05346 0.86066 0.62176 0.0
C27 C 0.13411 0.81778 0.73485 0.0
Zn28 Zn 0.54234 0.79995 0.9426 0.0
Zn29 Zn 0.58771 0.81416 0.90714 0.0
O30 O 0.596 0.86651 0.93646 0.0
O31 O 0.558 0.84886 0.96502 0.0
O32 O 0.63201 0.81625 0.87869 0.0
O33 O 0.54791 0.7593 0.96267 0.0
O34 O 0.58406 0.76553 0.93251 0.0
C35 C 0.58028 0.87396 0.95716 0.0
C36 C 0.50945 0.80104 0.88478 0.0
O37 O 0.53887 0.80938 0.87851 0.0
O38 O 0.5043 0.79204 0.9106 0.0
C39 C 0.66359 0.82916 0.88465 0.0
O40 O 0.67536 0.84742 0.91101 0.0
C41 C 0.56822 0.7485 0.95282 0.0
Zn42 Zn 0.56569 0.28104 0.22288 0.0
Zn43 Zn 0.578 0.33049 0.18752 0.0
O44 O 0.53349 0.32825 0.21347 0.0
O45 O 0.52647 0.28706 0.24217 0.0
O46 O 0.58522 0.37967 0.16233 0.0
O47 O 0.61313 0.29584 0.24355 0.0
O48 O 0.62722 0.33621 0.21363 0.0
C49 C 0.51699 0.3102 0.23306 0.0
C50 C 0.56411 0.24965 0.16117 0.0
O51 O 0.57082 0.28158 0.15567 0.0
O52 O 0.55822 0.24295 0.18749 0.0
C53 C 0.57635 0.38442 0.13499 0.0
O54 O 0.56104 0.35642 0.11607 0.0
C55 C 0.63569 0.31886 0.23353 0.0
Zn56 Zn 0.18542 0.85918 0.11023 0.0
Zn57 Zn 0.14364 0.84543 0.14904 0.0
O58 O 0.13626 0.88632 0.12886 0.0
O59 O 0.17127 0.89992 0.09734 0.0
O60 O 0.11203 0.83708 0.17857 0.0
O61 O 0.16371 0.80704 0.0921 0.0
O62 O 0.12891 0.79742 0.12415 0.0
C63 C 0.14902 0.90544 0.10925 0.0
C64 C 0.21513 0.86029 0.17061 0.0
O65 O 0.18643 0.85347 0.17567 0.0
O66 O 0.2221 0.86626 0.14446 0.0
C67 C 0.10897 0.86234 0.19366 0.0
O68 O 0.1278 0.89395 0.19083 0.0
C69 C 0.14061 0.78603 0.10308 0.0
Zn70 Zn 0.48444 0.77381 0.49943 0.0
Zn71 Zn 0.52875 0.78872 0.46372 0.0
O72 O 0.54155 0.83727 0.48907 0.0
O73 O 0.50462 0.82549 0.51903 0.0
O74 O 0.56214 0.79466 0.43597 0.0
O75 O 0.49731 0.73336 0.51445 0.0
O76 O 0.53493 0.7481 0.48561 0.0
C77 C 0.52845 0.84746 0.50975 0.0
C78 C 0.45791 0.76971 0.43681 0.0
O79 O 0.48722 0.77799 0.43337 0.0
O80 O 0.4499 0.76505 0.46284 0.0
C81 C 0.58023 0.82251 0.42752 0.0
O82 O 0.57786 0.85187 0.4369 0.0
C83 C 0.52077 0.72856 0.50444 0.0
Zn84 Zn 0.68334 0.35876 0.61373 0.0
Zn85 Zn 0.63996 0.34409 0.65073 0.0
O86 O 0.63248 0.38427 0.62961 0.0
O87 O 0.66983 0.39987 0.60054 0.0
O88 O 0.60763 0.33563 0.67927 0.0
O89 O 0.66176 0.30664 0.59437 0.0
O90 O 0.62682 0.29607 0.62625 0.0
C91 C 0.64636 0.40423 0.61098 0.0
C92 C 0.71071 0.36081 0.67557 0.0
O93 O 0.68163 0.3535 0.67933 0.0
O94 O 0.71872 0.36621 0.64963 0.0
C95 C 0.60558 0.36106 0.695 0.0
O96 O 0.62533 0.39247 0.69277 0.0
C97 C 0.63871 0.28514 0.60508 0.0
Zn98 Zn 0.98993 0.27578 0.99882 0.0
Zn99 Zn 0.03148 0.29103 0.96056 0.0
O100 O 0.04401 0.33962 0.98503 0.0
O101 O 1.01082 0.32756 0.01852 0.0
O102 O 0.0633 0.29802 0.93143 0.0
O103 O 1.00369 0.23478 0.01132 0.0
O104 O 0.04004 0.25094 0.98131 0.0
C105 C 0.03259 0.34983 0.00702 0.0
C106 C 0.9602 0.27259 0.93751 0.0
O107 O 0.98893 0.28006 0.9324 0.0
O108 O 0.95368 0.26803 0.964 0.0
C109 C 0.07832 0.32596 0.9212 0.0
O110 O 0.07302 0.35399 0.92936 0.0
C111 C 0.02689 0.23073 1.0001 0.0
Zn112 Zn 0.54432 0.04127 0.33802 0.0
Zn113 Zn 0.48853 0.07834 0.33324 0.0
O114 O 0.50029 0.09733 0.37803 0.0
O115 O 0.53013 0.06876 0.36813 0.0
O116 O 0.46007 0.09724 0.30987 0.0
O117 O 0.55546 0.06009 0.29796 0.0
O118 O 0.52916 0.08863 0.31614 0.0
C119 C 0.52144 0.08589 0.38718 0.0
C120 C 0.47291 0.99916 0.33238 0.0
O121 O 0.46652 0.02642 0.33188 0.0
O122 O 0.5014 1.00001 0.33382 0.0
C123 C 0.43448 0.07732 0.29373 0.0
O124 O 0.42582 0.04372 0.29283 0.0
C125 C 0.53451 0.07304 0.29337 0.0
Zn126 Zn 0.31003 0.29589 0.55128 0.0
Zn127 Zn 0.3372 0.25262 0.55278 0.0
O128 O 0.34576 0.27403 0.51054 0.0
O129 O 0.3284 0.31641 0.51241 0.0
O130 O 0.36566 0.22547 0.55686 0.0
O131 O 0.32311 0.31516 0.59718 0.0
O132 O 0.3438 0.27556 0.59867 0.0
C133 C 0.34091 0.2985 0.49789 0.0
C134 C 0.26719 0.22169 0.54462 0.0
O135 O 0.29273 0.21574 0.54697 0.0
O136 O 0.26858 0.2526 0.54479 0.0
C137 C 0.36544 0.2021 0.53702 0.0
O138 O 0.34666 0.19571 0.51147 0.0
C139 C 0.3359 0.29837 0.61276 0.0
Zn140 Zn 0.17469 0.11541 0.88857 0.0
Zn141 Zn 0.19188 0.07107 0.85776 0.0
O142 O 0.17459 0.04374 0.89197 0.0
O143 O 0.15473 0.07897 0.9136 0.0
O144 O 0.21279 0.04261 0.83752 0.0
O145 O 0.14925 0.11764 0.85067 0.0
O146 O 0.1564 0.07297 0.8277 0.0
C147 C 0.1584 0.05044 0.91117 0.0
C148 C 0.23699 0.14646 0.8831 0.0
O149 O 0.22866 0.118 0.86629 0.0
O150 O 0.21823 0.15114 0.90032 0.0
C151 C 0.23438 0.05556 0.8212 0.0
O152 O 0.24024 0.08699 0.81425 0.0
C153 C 0.14323 0.09513 0.82823 0.0
Zn154 Zn 0.37648 0.92888 0.99763 0.0
Zn155 Zn 0.3429 0.95626 0.01445 0.0
O156 O 0.3163 0.92264 0.97735 0.0
O157 O 0.3405 0.88615 0.97934 0.0
O158 O 0.31492 0.98016 0.02818 0.0
O159 O 0.39744 0.92861 0.03823 0.0
O160 O 0.3541 0.93403 0.05113 0.0
C161 C 0.31749 0.89356 0.96853 0.0
C162 C 0.39969 0.99482 0.98442 0.0
O163 O 0.38148 0.99568 1.00396 0.0
O164 O 0.39812 0.96584 0.97244 0.0
C165 C 0.32616 1.00607 0.04825 0.0
O166 O 0.35592 0.016 0.06056 0.0
C167 C 0.37899 0.92733 0.05768 0.0
Zn168 Zn 0.37019 0.34989 0.06134 0.0
Zn169 Zn 0.33576 0.38698 0.06017 0.0
O170 O 0.32831 0.36154 0.0151 0.0
O171 O 0.35451 0.32683 0.01699 0.0
O172 O 0.30422 0.41079 0.05785 0.0
O173 O 0.35647 0.33175 0.10252 0.0
O174 O 0.33064 0.3668 0.10292 0.0
C175 C 0.33824 0.3402 1.00138 0.0
C176 C 0.40524 0.42493 0.06192 0.0
O177 O 0.37827 0.42719 0.06313 0.0
O178 O 0.40794 0.39576 0.06151 0.0
C179 C 0.30169 0.42672 0.03541 0.0
O180 O 0.31931 0.42674 0.01398 0.0
C181 C 0.34044 0.34591 0.11643 0.0
Zn182 Zn 0.77413 0.18923 0.1069 0.0
Zn183 Zn 0.80727 0.15814 0.09351 0.0
O184 O 0.79431 0.17252 0.05291 0.0
O185 O 0.75391 0.1852 0.06511 0.0
O186 O 0.83533 0.13191 0.08522 0.0
O187 O 0.80971 0.23288 0.12352 0.0
O188 O 0.83366 0.19636 0.12825 0.0
C189 C 0.76986 0.17966 0.04531 0.0
C190 C 0.74932 0.12451 0.12359 0.0
O191 O 0.76834 0.12152 0.10564 0.0
O192 O 0.75156 0.15445 0.13375 0.0
C193 C 0.83686 0.11857 0.05941 0.0
O194 O 0.82014 0.12278 0.03568 0.0
C195 C 0.83265 0.22599 0.13528 0.0
Zn196 Zn 0.13257 0.56399 0.25407 0.0
Zn197 Zn 0.19882 0.52456 0.25529 0.0
O198 O 0.18661 0.51508 0.29759 0.0
O199 O 0.15326 0.53299 0.27434 0.0
O200 O 0.23963 0.51822 0.25089 0.0
O201 O 0.14135 0.52006 0.24365 0.0
O202 O 0.16655 0.49493 0.21941 0.0
C203 C 0.16665 0.52953 0.29932 0.0
C204 C 0.20063 0.60478 0.25106 0.0
O205 O 0.2061 0.57695 0.25336 0.0
O206 O 0.17254 0.60533 0.24902 0.0
C207 C 0.266 0.54237 0.24921 0.0
O208 O 0.26801 0.57458 0.25157 0.0
C209 C 0.14367 0.50524 0.21885 0.0
Zn210 Zn 0.86983 0.84823 0.55519 0.0
Zn211 Zn 0.8387 0.88867 0.55532 0.0
O212 O 0.82961 0.86447 0.50953 0.0
O213 O 0.85285 0.82695 0.51026 0.0
O214 O 0.80954 0.91542 0.55501 0.0
O215 O 0.85561 0.83017 0.59663 0.0
O216 O 0.83271 0.86789 0.59796 0.0
C217 C 0.83805 0.84227 0.49514 0.0
C218 C 0.90877 0.92228 0.55598 0.0
O219 O 0.88263 0.92639 0.55787 0.0
O220 O 0.90972 0.89228 0.55541 0.0
C221 C 0.80653 0.93214 0.53328 0.0
O222 O 0.82234 0.93148 0.51051 0.0
C223 C 0.84097 0.84572 0.61108 0.0
Zn224 Zn 0.96712 1.00262 0.21083 0.0
Zn225 Zn 0.95154 0.05143 0.23357 0.0
O226 O 0.97746 0.0435 0.26898 0.0
O227 O 0.97786 0.99276 0.25243 0.0
O228 O 0.93242 0.08329 0.25034 0.0
O229 O 1.00139 0.03891 0.19485 0.0
O230 O 0.97939 0.07703 0.20378 0.0
C231 C 0.98367 0.01685 0.27352 0.0
C232 C 0.9039 0.98027 0.20337 0.0
O233 O 0.91252 1.008 0.22114 0.0
O234 O 0.92387 0.97529 0.18783 0.0
C235 C 0.91354 0.07244 0.26952 0.0
O236 O 0.90944 0.04226 0.27871 0.0
C237 C 1.00094 0.06875 0.19342 0.0
Zn238 Zn 0.28634 0.70419 0.60575 0.0
Zn239 Zn 0.32263 0.6802 0.59043 0.0
O240 O 0.31289 0.70313 0.55421 0.0
O241 O 0.26556 0.69988 0.56366 0.0
O242 O 0.35219 0.65833 0.57752 0.0
O243 O 0.32146 0.74842 0.62348 0.0
O244 O 0.34595 0.7126 0.62889 0.0
C245 C 0.28593 0.70453 0.54568 0.0
C246 C 0.26461 0.63852 0.61667 0.0
O247 O 0.28323 0.63956 0.59713 0.0
O248 O 0.26709 0.66653 0.63137 0.0
C249 C 0.34202 0.63286 0.55701 0.0
O250 O 0.31236 0.62198 0.54422 0.0
C251 C 0.34382 0.74148 0.63657 0.0
Zn252 Zn 0.43262 0.47895 0.69984 0.0
Zn253 Zn 0.43732 0.54057 0.72202 0.0
O254 O 0.46592 0.5313 0.75405 0.0
O255 O 0.44629 0.47454 0.74351 0.0
O256 O 0.4293 0.5816 0.73862 0.0
O257 O 0.46731 0.50277 0.67713 0.0
O258 O 0.46143 0.55243 0.68596 0.0
C259 C 0.4635 0.5016 0.76092 0.0
C260 C 0.37669 0.47534 0.70547 0.0
O261 O 0.39384 0.5031 0.72183 0.0
O262 O 0.38702 0.46781 0.68204 0.0
C263 C 0.41807 0.57774 0.76342 0.0
O264 O 0.41718 0.55068 0.77684 0.0
C265 C 0.47486 0.53419 0.67329 0.0
Zn266 Zn 0.64588 0.08306 0.75329 0.0
Zn267 Zn 0.70864 0.03878 0.75719 0.0
O268 O 0.7006 0.03648 0.80123 0.0
O269 O 0.66979 0.0588 0.77944 0.0
O270 O 0.74725 0.02825 0.7512 0.0
O271 O 0.651 0.03657 0.74993 0.0
O272 O 0.67233 1.00589 0.72669 0.0
C273 C 0.68266 0.05336 0.80384 0.0
C274 C 0.71297 0.11772 0.74331 0.0
O275 O 0.71701 0.08986 0.74898 0.0
O276 O 0.68557 0.12011 0.74148 0.0
C277 C 0.77381 0.05018 0.74669 0.0
O278 O 0.77762 0.08278 0.74654 0.0
C279 C 0.65052 0.01785 0.72629 0.0
Zn280 Zn 0.79895 0.78511 0.04289 0.0
Zn281 Zn 0.83251 0.74709 0.04744 0.0
O282 O 0.84043 0.76806 1.0048 0.0
O283 O 0.81894 0.80716 0.00531 0.0
O284 O 0.86105 0.71976 0.05222 0.0
O285 O 0.81027 0.80334 0.0892 0.0
O286 O 0.84023 0.77264 0.09215 0.0
C287 C 0.83382 0.79132 0.99167 0.0
C288 C 0.7615 0.71101 0.03776 0.0
O289 O 0.78861 0.70905 0.04378 0.0
O290 O 0.75939 0.73989 0.03402 0.0
C291 C 0.86833 0.70326 0.03114 0.0
O292 O 0.85826 0.70469 1.00316 0.0
C293 C 0.82781 0.79185 0.10537 0.0
Zn294 Zn 1.00056 0.54369 0.8728 0.0
Zn295 Zn 0.96799 0.57592 0.85508 0.0
O296 O 0.99419 0.60668 0.89305 0.0
O297 O 0.03353 0.58854 0.89231 0.0
O298 O 0.94101 0.5993 0.83665 0.0
O299 O 1.00377 0.52637 0.83171 0.0
O300 O 0.99223 0.57101 0.82058 0.0
C301 C 1.02242 0.60998 0.90283 0.0
C302 C 0.93863 0.5081 0.88036 0.0
O303 O 0.93591 0.52956 0.86284 0.0
O304 O 0.96586 0.51241 0.8936 0.0
C305 C 0.92084 0.58222 0.81414 0.0
O306 O 0.91795 0.55042 0.80541 0.0
C307 C 1.00153 0.5467 0.81316 0.0
Zn308 Zn 0.87083 0.41702 0.48894 0.0
Zn309 Zn 0.84132 0.4521 0.5073 0.0
O310 O 0.8121 0.42246 0.46973 0.0
O311 O 0.8309 0.38116 0.46775 0.0
O312 O 0.81818 0.48176 0.52218 0.0
O313 O 0.88596 0.41041 0.52976 0.0
O314 O 0.84778 0.42652 0.5432 0.0
C315 C 0.80985 0.39257 0.45892 0.0
C316 C 0.90289 0.48385 0.48025 0.0
O317 O 0.88343 0.48623 0.49791 0.0
O318 O 0.8998 0.45442 0.46795 0.0
C319 C 0.82933 0.51457 0.52393 0.0
O320 O 0.85744 0.53065 0.51593 0.0
C321 C 0.86891 0.41379 0.54932 0.0
Zn322 Zn 0.71277 0.64605 0.38968 0.0
Zn323 Zn 0.71383 0.58855 0.3721 0.0
O324 O 0.68882 0.57829 0.40766 0.0
O325 O 0.67547 0.62384 0.41001 0.0
O326 O 0.72408 0.54783 0.35969 0.0
O327 O 0.70468 0.65096 0.34563 0.0
O328 O 0.68706 0.5943 0.33621 0.0
C329 C 0.67186 0.59424 0.41721 0.0
C330 C 0.77196 0.65425 0.3926 0.0
O331 O 0.7573 0.62679 0.37484 0.0
O332 O 0.7571 0.66232 0.41226 0.0
C333 C 0.74736 0.54448 0.37517 0.0
O334 O 0.7594 0.56384 0.40104 0.0
C335 C 0.6899 0.62351 0.32788 0.0
Tb336 Tb 0.12588 0.09754 0.06602 0.0
Tb337 Tb 0.05225 0.04177 0.04834 0.0
C338 C 0.07375 0.09639 0.10455 0.0
C339 C 0.2108 0.12587 0.07449 0.0
C340 C 0.25257 0.09086 0.06758 0.0
C341 C 0.25296 0.10831 0.09561 0.0
C342 C 0.23219 0.12568 0.09902 0.0
C343 C 0.21204 0.11044 0.04607 0.0
C344 C 0.23277 0.09323 0.04266 0.0
C345 C 0.18343 0.13544 0.07967 0.0
O346 O 0.1293 0.04709 0.07017 0.0
O347 O 0.07767 0.01584 0.07622 0.0
O348 O 0.07598 0.02479 0.01498 0.0
O349 O 0.12417 0.07118 0.02246 0.0
O350 O 1.01361 1.00699 0.06547 0.0
O351 O 1.00975 0.01624 0.01893 0.0
O352 O 0.0525 0.08754 0.02679 0.0
O353 O 0.09989 0.12954 0.04955 0.0
O354 O 0.10228 0.09583 0.10552 0.0
O355 O 0.05273 0.08243 0.08093 0.0
C356 C 0.10777 0.01896 0.07729 0.0
O357 O 0.16591 0.13771 0.05582 0.0
O358 O 0.16608 0.11807 0.09872 0.0
C359 C 0.10459 0.0412 0.00842 0.0
C360 C 0.96734 0.01473 0.04537 0.0
C361 C 0.92012 0.04296 0.04991 0.0
C362 C 0.91706 0.0181 0.02572 0.0
C363 C 0.94056 1.00413 0.02346 0.0
C364 C 0.96991 0.03885 0.06989 0.0
C365 C 0.94667 0.05283 0.0721 0.0
C366 C 0.99432 1.00411 0.04112 0.0
C367 C 0.07184 0.12035 0.03299 0.0
H368 H 0.26796 0.10688 0.11522 0.0
H369 H 0.23139 0.13705 0.1212 0.0
H370 H 0.19576 0.10986 0.02668 0.0
H371 H 0.23245 0.08067 0.02064 0.0
H372 H 0.89672 1.00974 0.00841 0.0
H373 H 0.93827 0.9858 1.00423 0.0
H374 H 0.99044 0.04787 0.08701 0.0
H375 H 0.95018 0.07237 0.09072 0.0
Tb376 Tb 0.31027 0.80681 0.32307 0.0
Tb377 Tb 0.35695 0.802 0.27494 0.0
C378 C 0.30023 0.8272 0.25819 0.0
C379 C 0.26291 0.78766 0.38459 0.0
C380 C 0.25899 0.75318 0.43548 0.0
C381 C 0.25952 0.78697 0.43771 0.0
C382 C 0.26131 0.80413 0.41227 0.0
C383 C 0.26022 0.75299 0.38209 0.0
C384 C 0.25811 0.73576 0.40748 0.0
C385 C 0.27271 0.80825 0.36 0.0
O386 O 0.3003 0.75253 0.30974 0.0
O387 O 0.31243 0.75844 0.26215 0.0
O388 O 0.37068 0.7765 0.31179 0.0
O389 O 0.34773 0.79553 0.34941 0.0
O390 O 0.37105 0.77655 0.24016 0.0
O391 O 0.39892 0.82947 0.25825 0.0
O392 O 0.38235 0.8415 0.31144 0.0
O393 O 0.34212 0.85919 0.31883 0.0
O394 O 0.2869 0.81201 0.28046 0.0
O395 O 0.3299 0.83139 0.25508 0.0
C396 C 0.29711 0.73967 0.28169 0.0
O397 O 0.30267 0.82853 0.36369 0.0
O398 O 0.26347 0.79156 0.33305 0.0
C399 C 0.36758 0.7814 0.34051 0.0
C400 C 0.39337 0.81728 0.20695 0.0
C401 C 0.39142 0.85592 0.15908 0.0
C402 C 0.42073 0.85949 0.17512 0.0
C403 C 0.42166 0.84022 0.19884 0.0
C404 C 0.36417 0.81257 0.19021 0.0
C405 C 0.36324 0.83154 0.16632 0.0
C406 C 0.394 0.80514 0.23647 0.0
C407 C 0.37261 0.86595 0.31977 0.0
H408 H 0.26056 0.80073 0.45939 0.0
H409 H 0.26365 0.83093 0.41456 0.0
H410 H 0.2618 0.73991 0.36097 0.0
H411 H 0.25812 0.7098 0.40563 0.0
H412 H 0.44283 0.87827 0.17027 0.0
H413 H 0.44432 0.84482 0.21203 0.0
H414 H 0.34195 0.79558 0.19651 0.0
H415 H 0.34035 0.82766 0.15398 0.0
Tb416 Tb 0.54843 0.06044 0.57225 0.0
Tb417 Tb 0.61916 0.07151 0.55211 0.0
C418 C 0.60137 0.05039 0.61584 0.0
C419 C 0.47487 0.07665 0.57629 0.0
C420 C 0.43925 0.11794 0.56337 0.0
C421 C 0.43704 0.10203 0.5899 0.0
C422 C 0.45467 0.08148 0.59625 0.0
C423 C 0.47733 0.09278 0.54994 0.0
C424 C 0.45958 0.11306 0.54347 0.0
C425 C 0.49381 0.05547 0.58324 0.0
O426 O 0.57928 0.11417 0.58862 0.0
O427 O 0.61744 0.12336 0.55701 0.0
O428 O 0.58486 0.0619 0.51279 0.0
O429 O 0.55166 0.08523 0.53175 0.0
O430 O 0.66912 0.09237 0.56139 0.0
O431 O 0.64558 0.06443 0.5183 0.0
O432 O 0.59755 0.0158 0.55279 0.0
O433 O 0.54485 1.00939 0.55107 0.0
O434 O 0.57078 0.04185 0.60781 0.0
O435 O 0.62316 0.06704 0.59961 0.0
C436 C 0.6024 0.13533 0.57587 0.0
O437 O 0.49902 0.03851 0.56014 0.0
O438 O 0.51946 0.07038 0.60255 0.0
C439 C 0.56384 0.07629 0.50907 0.0
C440 C 0.69253 0.0577 0.537 0.0
C441 C 0.72955 0.01629 0.53648 0.0
C442 C 0.73881 0.04726 0.52328 0.0
C443 C 0.72042 0.06772 0.52351 0.0
C444 C 0.6833 0.0271 0.55053 0.0
C445 C 0.70165 1.00657 0.55029 0.0
C446 C 0.67257 0.0785 0.53574 0.0
C447 C 0.56705 0.99621 0.54842 0.0
H448 H 0.42139 0.10513 0.60555 0.0
H449 H 0.45255 0.06939 0.61675 0.0
H450 H 0.49302 0.08977 0.53431 0.0
H451 H 0.46214 0.12536 0.52309 0.0
H452 H 0.76039 0.05582 0.51287 0.0
H453 H 0.72786 0.09126 0.51294 0.0
H454 H 0.66169 0.01888 0.56093 0.0
H455 H 0.6936 0.98273 0.56036 0.0
Tb456 Tb 0.37137 0.31684 0.81193 0.0
Tb457 Tb 0.30188 0.32653 0.80236 0.0
C458 C 0.30869 0.25893 0.82564 0.0
C459 C 0.45397 0.32504 0.80309 0.0
C460 C 0.50509 0.33844 0.76936 0.0
C461 C 0.50005 0.31396 0.78988 0.0
C462 C 0.47471 0.30737 0.80663 0.0
C463 C 0.45897 0.3497 0.78279 0.0
C464 C 0.48447 0.35648 0.76615 0.0
C465 C 0.42676 0.3166 0.82004 0.0
O466 O 0.35489 0.29904 0.7634 0.0
O467 O 0.31378 0.31876 0.75642 0.0
O468 O 0.34046 0.37599 0.81002 0.0
O469 O 0.37618 0.36073 0.78778 0.0
O470 O 0.25381 0.30816 0.7837 0.0
O471 O 0.27747 0.36025 0.80589 0.0
O472 O 0.30989 0.32821 0.8514 0.0
O473 O 0.36215 0.33195 0.85755 0.0
O474 O 0.33922 0.26896 0.82397 0.0
O475 O 0.29077 0.27594 0.81692 0.0
C476 C 0.33388 0.30622 0.74537 0.0
O477 O 0.41926 0.34246 0.8299 0.0
O478 O 0.40179 0.28961 0.80842 0.0
C479 C 0.36207 0.38246 0.79213 0.0
C480 C 0.22375 0.33255 0.8108 0.0
C481 C 0.17473 0.32919 0.84545 0.0
C482 C 0.17869 0.34775 0.82048 0.0
C483 C 0.20302 0.34938 0.80329 0.0
C484 C 0.2198 0.31372 0.83551 0.0
C485 C 0.19539 0.31194 0.85265 0.0
C486 C 0.25045 0.33653 0.79379 0.0
C487 C 0.33613 0.33155 0.86887 0.0
H488 H 0.51576 0.29995 0.79302 0.0
H489 H 0.47112 0.28824 0.82219 0.0
H490 H 0.44301 0.36342 0.77957 0.0
H491 H 0.48759 0.37522 0.75027 0.0
H492 H 0.16294 0.36096 0.81419 0.0
H493 H 0.2059 0.36416 0.78434 0.0
H494 H 0.23589 0.30087 0.8418 0.0
H495 H 0.19318 0.29778 0.87196 0.0
Tb496 Tb 0.08122 0.09568 0.58135 0.0
Tb497 Tb 0.09067 0.05596 0.52229 0.0
C498 C 1.02378 0.0356 0.54422 0.0
C499 C 0.06918 0.11619 0.65826 0.0
C500 C 0.07407 0.10244 0.7179 0.0
C501 C 0.0686 0.13219 0.71072 0.0
C502 C 0.06678 0.13933 0.68103 0.0
C503 C 0.07004 0.08437 0.6648 0.0
C504 C 0.07286 0.07767 0.6944 0.0
C505 C 0.07617 0.12723 0.62902 0.0
O506 O 0.09184 0.05098 0.5992 0.0
O507 O 0.08807 0.01817 0.55499 0.0
O508 O 0.13792 0.08317 0.54693 0.0
O509 O 0.12535 0.12684 0.56672 0.0
O510 O 0.08168 1.00927 0.49572 0.0
O511 O 0.11335 0.0573 0.48374 0.0
O512 O 0.08766 0.10446 0.5056 0.0
O513 O 0.06955 0.12542 0.54552 0.0
O514 O 0.03737 0.0518 0.57069 0.0
O515 O 0.03914 0.04002 0.5207 0.0
C516 C 0.08988 0.02108 0.5846 0.0
O517 O 0.10305 0.12634 0.62193 0.0
O518 O 0.05301 0.11387 0.60689 0.0
C519 C 0.14639 0.11574 0.55703 0.0
C520 C 0.07838 0.01748 0.44557 0.0
C521 C 0.04408 1.01028 0.38913 0.0
C522 C 0.0717 1.00249 0.39188 0.0
C523 C 0.08889 1.00617 0.42014 0.0
C524 C 0.05016 0.02388 0.44289 0.0
C525 C 0.03302 0.02011 0.4149 0.0
C526 C 0.09721 0.02469 0.47491 0.0
C527 C 0.07767 0.12802 0.51791 0.0
H528 H 0.06808 0.1512 0.72814 0.0
H529 H 0.0656 0.16381 0.67615 0.0
H530 H 0.07137 0.06598 0.64729 0.0
H531 H 0.07701 0.05448 0.69867 0.0
H532 H 0.08068 0.99505 0.37218 0.0
H533 H 0.11072 1.00122 0.42205 0.0
H534 H 0.04181 0.03271 0.46241 0.0
H535 H 1.01155 0.02579 0.4133 0.0
Tb536 Tb 0.34497 0.85661 0.79823 0.0
Tb537 Tb 0.30971 0.77656 0.80679 0.0
C538 C 0.34785 0.79955 0.75199 0.0
C539 C 0.36063 0.94833 0.80211 0.0
C540 C 0.32472 0.9901 0.80829 0.0
C541 C 0.3384 0.98809 0.78194 0.0
C542 C 0.35625 0.9673 0.77888 0.0
C543 C 0.34911 0.95265 0.82935 0.0
C544 C 0.33141 0.97342 0.83241 0.0
C545 C 0.37234 0.92029 0.79614 0.0
O546 O 0.2944 0.84837 0.7801 0.0
O547 O 0.26949 0.79181 0.78799 0.0
O548 O 0.30687 0.80274 0.84862 0.0
O549 O 0.31758 0.85693 0.83488 0.0
O550 O 0.27914 0.72797 0.78527 0.0
O551 O 0.29651 0.73515 0.83252 0.0
O552 O 0.35961 0.78493 0.8258 0.0
O553 O 0.38545 0.84083 0.8167 0.0
O554 O 0.3467 0.83021 0.75615 0.0
O555 O 0.33818 0.77689 0.77085 0.0
C556 C 0.2677 0.82066 0.77875 0.0
O557 O 0.37718 0.90479 0.8191 0.0
O558 O 0.35717 0.89822 0.77261 0.0
C559 C 0.3069 0.83391 0.85324 0.0
C560 C 0.29677 0.68586 0.80375 0.0
C561 C 0.33517 0.64766 0.79327 0.0
C562 C 0.33243 0.65855 0.82275 0.0
C563 C 0.3133 0.6774 0.82795 0.0
C564 C 0.29745 0.67239 0.7744 0.0
C565 C 0.31656 0.65359 0.76923 0.0
C566 C 0.28338 0.71281 0.80868 0.0
C567 C 0.38661 0.81195 0.82661 0.0
H568 H 0.33363 1.00077 0.76304 0.0
H569 H 0.36492 0.96433 0.7577 0.0
H570 H 0.35214 0.93851 0.84779 0.0
H571 H 0.32173 0.97518 0.85323 0.0
H572 H 0.34638 0.65413 0.84172 0.0
H573 H 0.31298 0.68709 0.85085 0.0
H574 H 0.28461 0.67794 0.75526 0.0
H575 H 0.31753 0.64458 0.74631 0.0
Tb576 Tb 0.55202 0.04512 0.0703 0.0
Tb577 Tb 0.59603 0.09263 0.02727 0.0
C578 C 0.62487 0.06609 0.08265 0.0
C579 C 0.49216 1.01116 0.12086 0.0
C580 C 0.47328 0.02448 0.17637 0.0
C581 C 0.48809 0.05179 0.15984 0.0
C582 C 0.49732 0.0451 0.13223 0.0
C583 C 0.47348 0.98369 0.13496 0.0
C584 C 0.46346 0.9903 0.16231 0.0
C585 C 0.51113 1.00508 0.09824 0.0
O586 O 0.56034 0.09663 0.09444 0.0
O587 O 0.58673 0.13041 0.06028 0.0
O588 O 0.54819 0.06915 1.00349 0.0
O589 O 0.52662 0.07168 0.04573 0.0
O590 O 0.64055 0.12832 0.02043 0.0
O591 O 0.59844 0.11872 0.98928 0.0
O592 O 0.59532 0.0415 0.00737 0.0
O593 O 0.56142 1.00786 0.03725 0.0
O594 O 0.59876 0.05911 0.09491 0.0
O595 O 0.62723 0.07551 0.05563 0.0
C596 C 0.57317 0.12755 0.08538 0.0
O597 O 0.50456 1.01222 0.07137 0.0
O598 O 0.54167 0.01743 0.10711 0.0
C599 C 0.52459 0.07095 0.01674 0.0
C600 C 0.64627 0.13238 0.96887 0.0
C601 C 0.67066 0.11873 0.91646 0.0
C602 C 0.64691 0.13284 0.91527 0.0
C603 C 0.63505 0.13983 0.94125 0.0
C604 C 0.67183 0.12106 0.97065 0.0
C605 C 0.68406 0.11451 0.94463 0.0
C606 C 0.62924 0.13418 0.99464 0.0
C607 C 0.57951 1.01047 0.01526 0.0
H608 H 0.49604 0.07849 0.16951 0.0
H609 H 0.51126 0.06659 0.1213 0.0
H610 H 0.46895 0.95727 0.1262 0.0
H611 H 0.45097 0.9686 0.17383 0.0
H612 H 0.63582 0.13636 0.89409 0.0
H613 H 0.61572 0.14918 0.93948 0.0
H614 H 0.6815 0.11592 0.99184 0.0
H615 H 0.70312 0.10479 0.94648 0.0
Tb616 Tb 0.32399 0.27969 0.29951 0.0
Tb617 Tb 0.35494 0.36039 0.31364 0.0
C618 C 0.33088 0.32739 0.24564 0.0
C619 C 0.32142 0.19347 0.27719 0.0
C620 C 0.35564 0.15117 0.26383 0.0
C621 C 0.32253 0.13925 0.25487 0.0
C622 C 0.30551 0.16038 0.26148 0.0
C623 C 0.35451 0.20564 0.28495 0.0
C624 C 0.37137 0.18492 0.27835 0.0
C625 C 0.30411 0.21483 0.28775 0.0
O626 O 0.37581 0.29086 0.29356 0.0
O627 O 0.39275 0.34852 0.29043 0.0
O628 O 0.36388 0.34433 0.35828 0.0
O629 O 0.33251 0.28704 0.34907 0.0
O630 O 0.39611 0.40606 0.32274 0.0
O631 O 0.34924 0.40718 0.32291 0.0
O632 O 0.30665 0.34791 0.32967 0.0
O633 O 0.28058 0.29184 0.30911 0.0
O634 O 0.3285 0.29743 0.25461 0.0
O635 O 0.33508 0.35386 0.26572 0.0
C636 C 0.3978 0.31918 0.28613 0.0
O637 O 0.31557 0.23148 0.31441 0.0
O638 O 0.29807 0.23474 0.26924 0.0
C639 C 0.34953 0.31442 0.36819 0.0
C640 C 0.38601 0.45381 0.30582 0.0
C641 C 0.36915 0.49875 0.27125 0.0
C642 C 0.38019 0.50856 0.30208 0.0
C643 C 0.38847 0.48607 0.31928 0.0
C644 C 0.38027 0.44649 0.27445 0.0
C645 C 0.37214 0.46908 0.25717 0.0
C646 C 0.37941 0.42549 0.32436 0.0
C647 C 0.27974 0.32003 0.32455 0.0
H648 H 0.30973 0.11336 0.2436 0.0
H649 H 0.27994 0.15049 0.2553 0.0
H650 H 0.36735 0.23055 0.29778 0.0
H651 H 0.39657 0.19481 0.28652 0.0
H652 H 0.37835 0.53122 0.31372 0.0
H653 H 0.39287 0.49205 0.34349 0.0
H654 H 0.37839 0.42166 0.26369 0.0
H655 H 0.36448 0.46126 0.23335 0.0
Tb656 Tb 0.58395 0.5915 0.07466 0.0
Tb657 Tb 0.5762 0.54584 0.01255 0.0
C658 C 0.51729 0.53855 0.0441 0.0
C659 C 0.60554 0.63332 0.15307 0.0
C660 C 0.63283 0.63243 0.2113 0.0
C661 C 0.59965 0.61877 0.20374 0.0
C662 C 0.58608 0.61941 0.17486 0.0
C663 C 0.63874 0.64795 0.161 0.0
C664 C 0.65225 0.64749 0.18989 0.0
C665 C 0.59125 0.63132 0.12199 0.0
O666 O 0.58828 0.54493 0.09315 0.0
O667 O 0.584 0.51331 0.04798 0.0
O668 O 0.62336 0.58522 0.01732 0.0
O669 O 0.63196 0.59579 0.06818 0.0
O670 O 0.54932 0.49962 0.98543 0.0
O671 O 0.59505 0.5318 0.97505 0.0
O672 O 0.57261 0.59312 0.99447 0.0
O673 O 0.57528 0.62397 0.03971 0.0
O674 O 0.53586 0.5535 0.06913 0.0
O675 O 0.52826 0.54137 0.01828 0.0
C676 C 0.58656 0.51572 0.07786 0.0
O677 O 0.61069 0.63778 0.10193 0.0
O678 O 0.56533 0.60466 0.11252 0.0
C679 C 0.64243 0.59956 0.04215 0.0
C680 C 0.55549 0.5002 0.93424 0.0
C681 C 0.52832 0.49415 0.87443 0.0
C682 C 0.56121 0.51171 0.88277 0.0
C683 C 0.57473 0.51458 0.91243 0.0
C684 C 0.52284 0.48119 0.92551 0.0
C685 C 0.50937 0.47829 0.89589 0.0
C686 C 0.56929 0.50479 0.96591 0.0
C687 C 0.57348 0.62199 0.00991 0.0
H688 H 0.58426 0.6075 0.22013 0.0
H689 H 0.56042 0.60843 0.16943 0.0
H690 H 0.65438 0.65915 0.14478 0.0
H691 H 0.67793 0.65804 0.19527 0.0
H692 H 0.57637 0.52372 0.86646 0.0
H693 H 0.60008 0.52864 0.91838 0.0
H694 H 0.50746 0.46921 0.94168 0.0
H695 H 0.48392 0.4648 0.89006 0.0
Tb696 Tb 0.84654 0.35437 0.29307 0.0
Tb697 Tb 0.81057 0.27583 0.30534 0.0
C698 C 0.84722 0.29433 0.24853 0.0
C699 C 0.85839 0.44338 0.29476 0.0
C700 C 0.82358 0.48074 0.3179 0.0
C701 C 0.85619 0.49052 0.32815 0.0
C702 C 0.87344 0.47187 0.31671 0.0
C703 C 0.82651 0.43538 0.28288 0.0
C704 C 0.80927 0.45374 0.29441 0.0
C705 C 0.87292 0.41764 0.28975 0.0
O706 O 0.79608 0.3457 0.27403 0.0
O707 O 0.77044 0.29114 0.28626 0.0
O708 O 0.80657 0.30456 0.34517 0.0
O709 O 0.81772 0.3571 0.32801 0.0
O710 O 0.77669 0.22758 0.28679 0.0
O711 O 0.79972 0.23548 0.33239 0.0
O712 O 0.86062 0.28457 0.32468 0.0
O713 O 0.88688 0.33938 0.31329 0.0
O714 O 0.84856 0.32609 0.25202 0.0
O715 O 0.83641 0.27268 0.26796 0.0
C716 C 0.76903 0.31912 0.27487 0.0
O717 O 0.87737 0.40335 0.31364 0.0
O718 O 0.86028 0.39474 0.26615 0.0
C719 C 0.80589 0.33552 0.34715 0.0
C720 C 0.79389 0.18428 0.30306 0.0
C721 C 0.82866 0.14196 0.29344 0.0
C722 C 0.81944 0.14661 0.32177 0.0
C723 C 0.80213 0.16767 0.32655 0.0
C724 C 0.80097 0.17728 0.27418 0.0
C725 C 0.81814 0.15629 0.26945 0.0
C726 C 0.78296 0.21279 0.30973 0.0
C727 C 0.88783 0.31112 0.32462 0.0
H728 H 0.86806 0.51171 0.34579 0.0
H729 H 0.89791 0.47826 0.32638 0.0
H730 H 0.81409 0.41337 0.26612 0.0
H731 H 0.78418 0.44527 0.28613 0.0
H732 H 0.82723 0.13573 0.34061 0.0
H733 H 0.79692 0.17269 0.34898 0.0
H734 H 0.79488 0.1895 0.2555 0.0
H735 H 0.82435 0.15243 0.24722 0.0
Tb736 Tb 0.06557 0.5495 0.56901 0.0
Tb737 Tb 0.10165 0.59637 0.52272 0.0
C738 C 0.13815 0.57675 0.57569 0.0
C739 C 1.02463 0.50793 0.63072 0.0
C740 C 1.01329 0.51803 0.68979 0.0
C741 C 1.02532 0.49269 0.6812 0.0
C742 C 0.03072 0.48753 0.65177 0.0
C743 C 1.0116 0.53243 0.63881 0.0
C744 C 1.00563 0.53719 0.66815 0.0
C745 C 0.03592 0.50623 0.60185 0.0
O746 O 0.06839 0.59938 0.59223 0.0
O747 O 0.0919 0.63323 0.55683 0.0
O748 O 0.05364 0.56864 0.5007 0.0
O749 O 0.03199 0.56609 0.54378 0.0
O750 O 0.14403 0.63382 0.51336 0.0
O751 O 0.0998 0.62102 0.48435 0.0
O752 O 0.10231 0.54584 0.50226 0.0
O753 O 0.07238 0.51252 0.53453 0.0
O754 O 0.11416 0.57349 0.5904 0.0
O755 O 0.1362 0.58045 0.54719 0.0
C756 C 0.07903 0.63011 0.58243 0.0
O757 O 1.022 0.51597 0.57966 0.0
O758 O 0.06674 0.51888 0.60317 0.0
C759 C 0.02925 0.56553 0.51472 0.0
C760 C 0.14542 0.63249 0.46089 0.0
C761 C 0.16275 0.60881 0.40787 0.0
C762 C 0.13999 0.6243 0.40664 0.0
C763 C 0.13166 0.63632 0.43291 0.0
C764 C 0.17008 0.61977 0.4623 0.0
C765 C 0.17884 0.60827 0.43595 0.0
C766 C 0.13056 0.63715 0.48754 0.0
C767 C 0.08835 0.51493 0.5112 0.0
H768 H 0.03191 0.47788 0.69742 0.0
H769 H 0.04115 0.4688 0.64579 0.0
H770 H 1.00704 0.54866 0.62281 0.0
H771 H 0.99574 0.5564 0.67402 0.0
H772 H 0.12692 0.62507 0.38552 0.0
H773 H 0.11276 0.64632 0.43136 0.0
H774 H 0.18146 0.61698 0.48364 0.0
H775 H 0.19718 0.59749 0.43765 0.0
Tb776 Tb 0.86951 0.81693 0.30425 0.0
Tb777 Tb 0.79727 0.82007 0.29631 0.0
C778 C 0.81292 0.75745 0.3187 0.0
C779 C 0.95277 0.82556 0.29645 0.0
C780 C 1.00497 0.83845 0.26409 0.0
C781 C 0.99918 0.81408 0.28474 0.0
C782 C 0.97333 0.80777 0.30082 0.0
C783 C 0.95838 0.84991 0.27585 0.0
C784 C 0.9844 0.85644 0.2599 0.0
C785 C 0.92528 0.81767 0.31307 0.0
O786 O 0.8569 0.80622 0.25518 0.0
O787 O 0.8054 0.80518 0.25008 0.0
O788 O 0.82788 0.87072 0.28827 0.0
O789 O 0.87299 0.86051 0.28007 0.0
O790 O 0.7482 0.79189 0.28417 0.0
O791 O 0.76673 0.84728 0.29628 0.0
O792 O 0.81238 0.83705 0.34483 0.0
O793 O 0.85897 0.82675 0.35056 0.0
O794 O 0.83678 0.76468 0.30331 0.0
O795 O 0.79664 0.77747 0.32112 0.0
C796 C 0.83035 0.80295 0.23821 0.0
O797 O 0.9174 0.84358 0.32196 0.0
O798 O 0.90053 0.79029 0.30188 0.0
C799 C 0.85432 0.8779 0.27652 0.0
C800 C 0.71638 0.81673 0.30907 0.0
C801 C 0.67167 0.81781 0.34792 0.0
C802 C 0.67481 0.83618 0.32285 0.0
C803 C 0.69692 0.83557 0.30361 0.0
C804 C 0.71325 0.79808 0.33393 0.0
C805 C 0.69091 0.79845 0.3531 0.0
C806 C 0.7413 0.81927 0.28988 0.0
C807 C 0.83646 0.83468 0.36221 0.0
H808 H 1.01479 0.80008 0.28863 0.0
H809 H 0.96927 0.78884 0.31659 0.0
H810 H 0.94254 0.86366 0.27193 0.0
H811 H 0.98806 0.87505 0.24387 0.0
H812 H 0.6601 0.85099 0.31805 0.0
H813 H 0.69919 0.85034 0.28467 0.0
H814 H 0.72842 0.78379 0.3388 0.0
H815 H 0.68925 0.7843 0.37239 0.0
Tb816 Tb 0.80336 0.30163 0.82806 0.0
Tb817 Tb 0.85952 0.32198 0.78627 0.0
C818 C 0.79596 0.3343 0.76763 0.0
C819 C 0.75341 0.25431 0.8802 0.0
C820 C 0.74732 0.21177 0.92618 0.0
C821 C 0.72157 0.22049 0.91495 0.0
C822 C 0.72475 0.242 0.89227 0.0
C823 C 0.77793 0.24304 0.88929 0.0
C824 C 0.77507 0.22224 0.91223 0.0
C825 C 0.75883 0.28008 0.85921 0.0
O826 O 0.80816 0.25552 0.80799 0.0
O827 O 0.82059 0.27599 0.76413 0.0
O828 O 0.87466 0.29304 0.81888 0.0
O829 O 0.84453 0.29835 0.85577 0.0
O830 O 0.88348 0.30785 0.75305 0.0
O831 O 0.89983 0.36022 0.77489 0.0
O832 O 0.87399 0.35781 0.8271 0.0
O833 O 0.82515 0.35747 0.83442 0.0
O834 O 0.78209 0.31316 0.78666 0.0
O835 O 0.82697 0.34533 0.76734 0.0
C836 C 0.80775 0.25007 0.77908 0.0
O837 O 0.7841 0.30808 0.86738 0.0
O838 O 0.75685 0.26812 0.83125 0.0
C839 C 0.86862 0.29132 0.84687 0.0
C840 C 0.89983 0.35271 0.72286 0.0
C841 C 0.89011 0.37213 0.66561 0.0
C842 C 0.9029 0.34653 0.66951 0.0
C843 C 0.90777 0.33693 0.698 0.0
C844 C 0.88754 0.37867 0.71899 0.0
C845 C 0.88291 0.3884 0.6907 0.0
C846 C 0.90152 0.34004 0.75217 0.0
C847 C 0.85611 0.37257 0.83862 0.0
H848 H 0.69953 0.21207 0.92462 0.0
H849 H 0.70537 0.24997 0.88494 0.0
H850 H 0.79999 0.25179 0.87969 0.0
H851 H 0.79558 0.21649 0.92028 0.0
H852 H 0.9084 0.33333 0.65049 0.0
H853 H 0.91691 0.31658 0.7005 0.0
H854 H 0.88087 0.39113 0.7377 0.0
H855 H 0.87358 0.40863 0.68849 0.0
Tb856 Tb 0.81873 0.77774 0.79375 0.0
Tb857 Tb 0.8517 0.8579 0.80899 0.0
C858 C 0.82911 0.82604 0.74036 0.0
C859 C 0.8028 0.68701 0.76673 0.0
C860 C 0.83781 0.64441 0.76247 0.0
C861 C 0.84806 0.67631 0.75089 0.0
C862 C 0.83064 0.69758 0.75306 0.0
C863 C 0.79035 0.65338 0.77447 0.0
C864 C 0.80773 0.63206 0.77226 0.0
C865 C 0.79268 0.71304 0.78108 0.0
O866 O 0.86986 0.78595 0.78649 0.0
O867 O 0.88994 0.84461 0.78779 0.0
O868 O 0.85873 0.8411 0.85368 0.0
O869 O 0.8284 0.78354 0.84325 0.0
O870 O 0.89369 0.90264 0.8189 0.0
O871 O 0.8473 0.90546 0.81761 0.0
O872 O 0.80408 0.84733 0.82606 0.0
O873 O 0.77675 0.79184 0.80504 0.0
O874 O 0.82607 0.79583 0.74917 0.0
O875 O 0.83278 0.85215 0.7607 0.0
C876 C 0.8935 0.81463 0.78162 0.0
O877 O 0.81052 0.72865 0.80619 0.0
O878 O 0.78675 0.73476 0.76451 0.0
C879 C 0.84478 0.81067 0.86289 0.0
C880 C 0.88582 0.95134 0.80143 0.0
C881 C 0.87156 0.9981 0.76726 0.0
C882 C 0.88307 1.00757 0.79802 0.0
C883 C 0.89004 0.98416 0.81504 0.0
C884 C 0.87967 0.94414 0.77006 0.0
C885 C 0.87276 0.96759 0.75298 0.0
C886 C 0.87773 0.9229 0.81985 0.0
C887 C 0.77675 0.82003 0.8211 0.0
H888 H 0.87101 0.68619 0.74289 0.0
H889 H 0.84065 0.72358 0.74709 0.0
H890 H 0.76904 0.64501 0.78532 0.0
H891 H 0.7993 0.60765 0.78143 0.0
H892 H 0.88255 0.03087 0.80976 0.0
H893 H 0.89475 0.99006 0.83925 0.0
H894 H 0.87645 0.91889 0.75918 0.0
H895 H 0.86458 0.95996 0.72921 0.0
Tb896 Tb 0.62436 0.59937 0.57076 0.0
Tb897 Tb 0.5442 0.53573 0.54849 0.0
C898 C 0.57849 0.58834 0.60685 0.0
C899 C 0.70666 0.62175 0.5627 0.0
C900 C 0.74996 0.58995 0.55188 0.0
C901 C 0.75978 0.62086 0.57144 0.0
C902 C 0.73811 0.63658 0.57698 0.0
C903 C 0.69735 0.59166 0.54234 0.0
C904 C 0.71875 0.57596 0.53695 0.0
C905 C 0.68229 0.63444 0.57146 0.0
O906 O 0.62277 0.54769 0.58283 0.0
O907 O 0.57249 0.50514 0.56302 0.0
O908 O 0.56316 0.54134 0.50692 0.0
O909 O 0.61276 0.55819 0.53352 0.0
O910 O 0.50811 0.51295 0.57421 0.0
O911 O 0.49957 0.50408 0.52528 0.0
O912 O 0.54099 0.58641 0.54243 0.0
O913 O 0.5943 0.62572 0.54951 0.0
O914 O 0.60701 0.61071 0.61313 0.0
O915 O 0.57581 0.57235 0.58086 0.0
C916 C 0.60212 0.51478 0.57719 0.0
O917 O 0.66043 0.63279 0.54967 0.0
O918 O 0.67002 0.62245 0.59523 0.0
C919 C 0.59419 0.55404 0.5082 0.0
C920 C 0.46036 0.5151 0.5504 0.0
C921 C 0.41885 0.55113 0.54773 0.0
C922 C 0.41916 0.52937 0.52257 0.0
C923 C 0.43985 0.51149 0.52389 0.0
C924 C 0.45815 0.53491 0.57607 0.0
C925 C 0.43775 0.55282 0.57472 0.0
C926 C 0.48669 0.50241 0.55026 0.0
C927 C 0.56309 0.61772 0.54181 0.0
H928 H 0.78378 0.63207 0.58322 0.0
H929 H 0.74556 0.65955 0.59305 0.0
H930 H 0.67319 0.57962 0.53124 0.0
H931 H 0.71072 0.5525 0.52138 0.0
H932 H 0.40456 0.52743 0.50157 0.0
H933 H 0.44087 0.49618 0.50381 0.0
H934 H 0.4732 0.5379 0.59695 0.0
H935 H 0.43731 0.56868 0.59469 0.0
Tb936 Tb 0.04826 0.56085 0.06952 0.0
Tb937 Tb 0.11894 0.57294 0.04815 0.0
C938 C 0.10079 0.54714 0.11008 0.0
C939 C 0.97464 0.57558 0.07411 0.0
C940 C 0.93897 0.61631 0.05937 0.0
C941 C 0.92703 0.58865 0.07637 0.0
C942 C 0.94469 0.56831 0.08354 0.0
C943 C 0.98673 0.60335 0.05743 0.0
C944 C 0.96896 0.62333 0.04988 0.0
C945 C 0.99368 0.55477 0.08173 0.0
O946 O 0.07255 0.61693 0.07433 0.0
O947 O 0.12484 0.62287 0.07276 0.0
O948 O 0.09932 0.60116 0.01942 0.0
O949 O 0.04676 0.57151 0.02331 0.0
O950 O 0.1682 0.58815 0.0598 0.0
O951 O 0.14604 0.56824 0.01412 0.0
O952 O 0.08639 0.52127 0.0276 0.0
O953 O 0.04942 0.50895 0.06045 0.0
O954 O 0.07794 0.55924 0.10937 0.0
O955 O 0.11539 0.54503 0.08681 0.0
C956 C 0.10311 0.63614 0.0774 0.0
O957 O 0.99857 0.53699 0.059 0.0
O958 O 1.01982 0.571 0.10009 0.0
C959 C 0.06911 0.59443 0.0114 0.0
C960 C 0.18929 0.55375 0.03212 0.0
C961 C 0.22355 0.50951 0.03162 0.0
C962 C 0.23509 0.54133 0.0199 0.0
C963 C 0.21809 0.56323 0.02018 0.0
C964 C 0.17741 0.52192 0.04356 0.0
C965 C 0.19442 0.5 0.04336 0.0
C966 C 0.17207 0.5774 0.03306 0.0
C967 C 0.06412 0.49862 0.04013 0.0
H968 H 0.90392 0.58258 0.08386 0.0
H969 H 0.93504 0.54704 0.0965 0.0
H970 H 1.01007 0.60971 0.05043 0.0
H971 H 0.97897 0.64472 0.03714 0.0
H972 H 0.25761 0.54966 0.01105 0.0
H973 H 0.22761 0.58775 0.01132 0.0
H974 H 0.15507 0.51414 0.05277 0.0
H975 H 0.18468 0.47554 0.05222 0.0
C976 C 1.01746 0.17096 0.01628 0.0
C977 C 0.0384 0.20234 0.0083 0.0
H978 H 1.01111 0.12059 0.02923 0.0
C979 C 0.07045 0.20601 0.00789 0.0
H980 H 0.99262 0.16686 0.01678 0.0
C981 C 0.0813 0.17971 0.01586 0.0
C982 C 0.06026 0.14817 0.02342 0.0
H983 H 0.08742 0.22963 1.00192 0.0
H984 H 0.10623 0.18398 0.01583 0.0
C985 C 0.02807 0.1442 0.02323 0.0
C986 C 0.23024 0.84694 0.22217 0.0
C987 C 0.23902 0.8564 0.19411 0.0
H988 H 0.24221 0.83063 0.26384 0.0
C989 C 0.26942 0.85828 0.1879 0.0
H990 H 0.20717 0.84506 0.22796 0.0
C991 C 0.28986 0.84982 0.20877 0.0
C992 C 0.28037 0.83906 0.23635 0.0
H993 H 0.2771 0.86526 0.1665 0.0
H994 H 0.31266 0.85077 0.20291 0.0
C995 C 0.25046 0.83841 0.24282 0.0
C996 C 0.51853 0.89847 0.53472 0.0
C997 C 0.53918 0.88532 0.52119 0.0
H998 H 0.51059 0.94313 0.55329 0.0
C999 C 0.56931 0.90911 0.51728 0.0
H1000 H 0.49503 0.8812 0.53794 0.0
C1001 C 0.57847 0.94473 0.52662 0.0
C1002 C 0.55752 0.95795 0.53952 0.0
H1003 H 0.58589 0.90021 0.5069 0.0
H1004 H 0.60185 0.96205 0.52312 0.0
C1005 C 0.52739 0.93417 0.54341 0.0
C1006 C 0.56107 0.32176 0.71892 0.0
C1007 C 0.58047 0.35543 0.71468 0.0
H1008 H 0.52195 0.29006 0.73939 0.0
C1009 C 0.57519 0.38358 0.72888 0.0
H1010 H 0.56451 0.29952 0.70827 0.0
C1011 C 0.55074 0.37812 0.74669 0.0
C1012 C 0.5313 0.34443 0.75083 0.0
H1013 H 0.58972 0.40984 0.72602 0.0
H1014 H 0.54718 0.40026 0.7574 0.0
C1015 C 0.5368 0.31633 0.73687 0.0
C1016 C 0.09015 0.95606 0.64546 0.0
C1017 C 0.08208 0.92361 0.62768 0.0
H1018 H 0.09851 1.01105 0.6472 0.0
C1019 C 0.07776 0.9251 0.59624 0.0
H1020 H 0.09332 0.95713 0.66966 0.0
C1021 C 0.08101 0.95609 0.58332 0.0
C1022 C 0.08836 0.98844 0.60065 0.0
H1023 H 0.07137 0.90161 0.58102 0.0
H1024 H 0.07696 0.95427 0.55909 0.0
C1025 C 0.09297 0.98748 0.63233 0.0
C1026 C 0.47925 0.83151 0.85025 0.0
C1027 C 0.47977 0.80249 0.86458 0.0
H1028 H 0.45152 0.85784 0.82792 0.0
C1029 C 0.44899 0.77698 0.86524 0.0
H1030 H 0.50152 0.85271 0.84967 0.0
C1031 C 0.42001 0.77992 0.85273 0.0
C1032 C 0.41917 0.80912 0.83909 0.0
H1033 H 0.44711 0.75443 0.87638 0.0
H1034 H 0.39781 0.75915 0.85452 0.0
C1035 C 0.44995 0.83472 0.83798 0.0
C1036 C 0.55363 0.18508 0.14729 0.0
C1037 C 0.56496 0.21925 0.13919 0.0
H1038 H 0.54719 0.13147 0.13821 0.0
C1039 C 0.57913 0.22271 0.11227 0.0
H1040 H 0.54265 0.18015 0.16757 0.0
C1041 C 0.58194 0.19373 0.09496 0.0
C1042 C 0.57082 0.15969 0.10357 0.0
H1043 H 0.5887 0.24798 0.10479 0.0
H1044 H 0.59312 0.19819 0.07474 0.0
C1045 C 0.55639 0.15647 0.13018 0.0
C1046 C 0.19009 0.29591 0.34597 0.0
C1047 C 0.19161 0.325 0.36584 0.0
H1048 H 0.2143 0.2707 0.31823 0.0
C1049 C 0.22255 0.35183 0.3705 0.0
H1050 H 0.16792 0.27376 0.34152 0.0
C1051 C 0.24946 0.35016 0.35693 0.0
C1052 C 0.24849 0.32114 0.33762 0.0
H1053 H 0.2264 0.37487 0.3855 0.0
H1054 H 0.27175 0.37205 0.36235 0.0
C1055 C 0.21749 0.29402 0.33251 0.0
C1056 C 1.01425 0.10407 0.15197 0.0
C1057 C 1.02447 0.09201 0.17749 0.0
H1058 H 1.0234 0.11615 0.10783 0.0
C1059 C 0.05576 0.09311 0.18237 0.0
H1060 H 0.99019 0.10349 0.148 0.0
C1061 C 0.07473 0.10019 0.1595 0.0
C1062 C 0.06208 0.10568 0.1317 0.0
H1063 H 0.06401 0.08423 0.2023 0.0
H1064 H 0.09719 0.09658 0.16226 0.0
C1065 C 0.03318 0.111 0.12899 0.0
C1066 C 0.30377 0.73767 0.50327 0.0
C1067 C 0.27915 0.71437 0.51612 0.0
H1068 H 0.31603 0.76877 0.46748 0.0
C1069 C 0.2477 0.70252 0.50157 0.0
H1070 H 0.3281 0.74732 0.51426 0.0
C1071 C 0.24092 0.71446 0.4747 0.0
C1072 C 0.26546 0.73879 0.46267 0.0
H1073 H 0.22841 0.68431 0.5111 0.0
H1074 H 0.21661 0.70535 0.46371 0.0
C1075 C 0.29689 0.75006 0.4768 0.0
C1076 C 0.60837 0.0308 0.69589 0.0
C1077 C 0.63571 0.02254 0.69742 0.0
H1078 H 0.57553 0.0457 0.66831 0.0
C1079 C 0.65053 0.02186 0.67163 0.0
H1080 H 0.59662 0.03151 0.71557 0.0
C1081 C 0.63907 0.03078 0.64511 0.0
C1082 C 0.61218 0.03977 0.64371 0.0
H1083 H 0.67176 0.01579 0.6722 0.0
H1084 H 0.65137 0.03081 0.6257 0.0
C1085 C 0.59639 0.03893 0.66902 0.0
C1086 C 0.31402 0.34515 0.94867 0.0
C1087 C 0.33551 0.33548 0.96719 0.0
H1088 H 0.29684 0.35105 0.90388 0.0
C1089 C 0.35694 0.32439 0.95269 0.0
H1090 H 0.2973 0.35416 0.95864 0.0
C1091 C 0.35739 0.32369 0.9213 0.0
C1092 C 0.336 0.33337 0.90276 0.0
H1093 H 0.37422 0.3171 0.96577 0.0
H1094 H 0.37454 0.31525 0.91149 0.0
C1095 C 0.31393 0.34358 0.91707 0.0
C1096 C 1.00554 0.04149 0.32633 0.0
C1097 C 0.99842 0.01442 0.30318 0.0
H1098 H 0.02609 0.06143 0.37158 0.0
C1099 C 1.00611 0.98553 0.30848 0.0
H1100 H 0.99999 0.06411 0.32289 0.0
C1101 C 1.021 0.98397 0.33651 0.0
C1102 C 0.02816 1.01117 0.35953 0.0
H1103 H 1.0008 0.96423 0.291 0.0
H1104 H 0.02671 0.96151 0.34027 0.0
C1105 C 1.02033 0.03989 0.35423 0.0
C1106 C 0.3612 0.74279 0.69031 0.0
C1107 C 0.35893 0.76104 0.66591 0.0
H1108 H 0.35891 0.74069 0.73725 0.0
C1109 C 0.36109 0.79533 0.67127 0.0
H1110 H 0.35967 0.7163 0.68676 0.0
C1111 C 0.36049 0.80927 0.70014 0.0
C1112 C 0.35753 0.78892 0.72385 0.0
H1113 H 0.35967 0.80995 0.65274 0.0
H1114 H 0.35935 0.83469 0.70321 0.0
C1115 C 0.36021 0.75657 0.71917 0.0
C1116 C 0.67796 0.10291 0.83426 0.0
C1117 C 0.68155 0.07095 0.83288 0.0
H1118 H 0.67399 0.14442 0.86207 0.0
C1119 C 0.68494 0.05659 0.85941 0.0
H1120 H 0.67621 0.11496 0.81408 0.0
C1121 C 0.68286 0.07296 0.88683 0.0
C1122 C 0.67811 0.10444 0.88826 0.0
H1123 H 0.68803 0.03209 0.85883 0.0
H1124 H 0.68353 0.06004 0.90662 0.0
C1125 C 0.67675 0.11977 0.86174 0.0
C1126 C 0.33888 0.31149 0.16141 0.0
C1127 C 0.33545 0.34013 0.14902 0.0
H1128 H 0.33955 0.28472 0.20022 0.0
C1129 C 0.32938 0.36423 0.1689 0.0
H1130 H 0.34373 0.29231 0.14734 0.0
C1131 C 0.32764 0.36024 0.19985 0.0
C1132 C 0.33111 0.33152 0.21217 0.0
H1133 H 0.3269 0.38689 0.16074 0.0
H1134 H 0.32374 0.37989 0.21418 0.0
C1135 C 0.33642 0.3071 0.19207 0.0
C1136 C 0.2748 0.01525 0.04272 0.0
C1137 C 0.3068 0.0266 0.05544 0.0
H1138 H 0.23254 0.02643 0.03704 0.0
C1139 C 0.32047 0.05852 0.07368 0.0
H1140 H 0.26343 0.99061 0.02886 0.0
C1141 C 0.30279 0.07927 0.07813 0.0
C1142 C 0.27116 0.06845 0.06441 0.0
H1143 H 0.34507 0.06792 0.08387 0.0
H1144 H 0.31414 0.10419 0.09156 0.0
C1145 C 0.25716 0.03591 0.04721 0.0
C1146 C 0.70645 0.67328 0.01513 0.0
C1147 C 0.73231 0.68027 0.03743 0.0
H1148 H 0.65811 0.64149 0.99879 0.0
C1149 C 0.72921 0.65922 0.06072 0.0
H1150 H 0.70826 0.68926 0.99707 0.0
C1151 C 0.70012 0.63244 0.06231 0.0
C1152 C 0.67417 0.62559 0.04001 0.0
H1153 H 0.74883 0.66444 0.07837 0.0
H1154 H 0.69783 0.61735 0.08103 0.0
C1155 C 0.67785 0.64585 0.01611 0.0
C1156 C 0.78958 0.51947 0.37819 0.0
C1157 C 0.76505 0.52549 0.36114 0.0
H1158 H 0.82707 0.50014 0.37794 0.0
C1159 C 0.75975 0.51649 0.32989 0.0
H1160 H 0.7942 0.52619 0.40232 0.0
C1161 C 0.77912 0.50262 0.31585 0.0
C1162 C 0.80389 0.49686 0.33278 0.0
H1163 H 0.74131 0.52126 0.31605 0.0
H1164 H 0.77495 0.49693 0.29163 0.0
C1165 C 0.8087 0.50507 0.36416 0.0
C1166 C 0.94165 0.5413 0.50312 0.0
C1167 C 0.9331 0.51322 0.48058 0.0
H1168 H 0.97993 0.58045 0.53185 0.0
C1169 C 0.95639 0.50964 0.46373 0.0
H1170 H 0.92421 0.54522 0.51616 0.0
C1171 C 0.98839 0.5303 0.47254 0.0
C1172 C 0.99715 0.55434 0.49834 0.0
H1173 H 0.95037 0.48862 0.44584 0.0
H1174 H 1.00627 0.52463 0.46135 0.0
C1175 C 0.97358 0.5615 0.51219 0.0
C1176 C 0.3801 0.07652 0.2788 0.0
C1177 C 0.4131 0.0921 0.27889 0.0
H1178 H 0.33563 0.08331 0.27399 0.0
C1179 C 0.42575 0.12382 0.26758 0.0
H1180 H 0.36984 0.05185 0.28722 0.0
C1181 C 0.40606 0.14125 0.25889 0.0
C1182 C 0.3736 0.12786 0.26251 0.0
H1183 H 0.45109 0.13586 0.26678 0.0
H1184 H 0.41673 0.16647 0.25152 0.0
C1185 C 0.36047 0.09443 0.27092 0.0
C1186 C 0.40116 0.18447 0.57238 0.0
C1187 C 0.38494 0.18114 0.54344 0.0
H1188 H 0.43099 0.16717 0.60132 0.0
C1189 C 0.3869 0.15701 0.52104 0.0
H1190 H 0.40014 0.20279 0.59019 0.0
C1191 C 0.40464 0.13662 0.52747 0.0
C1192 C 0.42056 0.13972 0.55649 0.0
H1193 H 0.37467 0.15376 0.49855 0.0
H1194 H 0.40547 0.11802 0.50982 0.0
C1195 C 0.41866 0.16389 0.57885 0.0
C1196 C 0.79853 0.71645 0.3895 0.0
C1197 C 0.79553 0.68255 0.38006 0.0
H1198 H 0.80343 0.76554 0.37618 0.0
C1199 C 0.8053 0.67562 0.35232 0.0
H1200 H 0.79207 0.72308 0.41098 0.0
C1201 C 0.81256 0.70058 0.33244 0.0
C1202 C 0.80982 0.73232 0.34016 0.0
H1203 H 0.80388 0.64987 0.34463 0.0
H1204 H 0.81782 0.69415 0.31035 0.0
C1205 C 0.80453 0.74072 0.36933 0.0
C1206 C 0.88298 0.46776 0.86152 0.0
C1207 C 0.9126 0.47407 0.87846 0.0
H1208 H 0.84111 0.42968 0.83567 0.0
C1209 C 0.91965 0.44594 0.88741 0.0
H1210 H 0.87681 0.48894 0.85445 0.0
C1211 C 0.89965 0.41235 0.8761 0.0
C1212 C 0.87186 0.40634 0.85651 0.0
H1213 H 0.9421 0.44981 0.90063 0.0
H1214 H 0.90695 0.3912 0.88108 0.0
C1215 C 0.86256 0.43394 0.85073 0.0
C1216 C 0.1568 0.96104 0.08558 0.0
C1217 C 0.13817 0.93428 0.10086 0.0
H1218 H 0.16238 1.00826 0.06677 0.0
C1219 C 0.10918 0.93576 0.10834 0.0
H1220 H 0.17925 0.96119 0.0794 0.0
C1221 C 0.09914 0.96273 0.10063 0.0
C1222 C 0.11801 0.98973 0.08571 0.0
H1223 H 0.09399 0.91582 0.12005 0.0
H1224 H 0.07664 0.96259 0.10668 0.0
C1225 C 0.14708 0.98832 0.07842 0.0
C1226 C 0.90559 0.27291 0.9204 0.0
C1227 C 0.93524 0.27323 0.91341 0.0
H1228 H 0.86161 0.27839 0.90535 0.0
C1229 C 0.94174 0.27739 0.88373 0.0
H1230 H 0.89962 0.26993 0.94296 0.0
C1231 C 0.91976 0.28208 0.86203 0.0
C1232 C 0.89067 0.28314 0.86934 0.0
H1233 H 0.96422 0.27785 0.87737 0.0
H1234 H 0.92609 0.28593 0.83967 0.0
C1235 C 0.88374 0.27794 0.89877 0.0
C1236 C 0.60323 0.22313 0.60845 0.0
C1237 C 0.62785 0.24688 0.59553 0.0
H1238 H 0.57608 0.17013 0.61267 0.0
C1239 C 0.6436 0.23338 0.5755 0.0
H1240 H 0.59054 0.23224 0.62407 0.0
C1241 C 0.63537 0.19744 0.56906 0.0
C1242 C 0.61112 0.17375 0.58243 0.0
H1243 H 0.66281 0.25062 0.56521 0.0
H1244 H 0.6483 0.18827 0.55375 0.0
C1245 C 0.595 0.18727 0.602 0.0
C1246 C 0.62346 0.85179 0.39693 0.0
C1247 C 0.60384 0.82152 0.40735 0.0
H1248 H 0.66046 0.87439 0.37024 0.0
C1249 C 0.60696 0.7901 0.3983 0.0
H1250 H 0.62179 0.87643 0.40355 0.0
C1251 C 0.62911 0.78895 0.37924 0.0
C1252 C 0.64854 0.81914 0.36864 0.0
H1253 H 0.59223 0.76627 0.40588 0.0
H1254 H 0.63064 0.76429 0.37241 0.0
C1255 C 0.64552 0.85059 0.37774 0.0
C1256 C 0.08935 0.19761 0.45953 0.0
C1257 C 0.07434 0.21971 0.47068 0.0
H1258 H 0.10192 0.15253 0.46422 0.0
C1259 C 0.0606 0.21032 0.49738 0.0
H1260 H 0.10024 0.20269 0.43921 0.0
C1261 C 0.06172 0.18149 0.51196 0.0
C1262 C 0.07627 0.15909 0.50087 0.0
H1263 H 0.04864 0.22564 0.5075 0.0
H1264 H 0.05077 0.17668 0.53228 0.0
C1265 C 0.09012 0.16817 0.47406 0.0
C1266 C 0.69956 0.34704 0.2377 0.0
C1267 C 0.67086 0.32145 0.24397 0.0
H1268 H 0.75146 0.36729 0.24209 0.0
C1269 C 0.67596 0.29573 0.26046 0.0
H1270 H 0.69803 0.36754 0.22516 0.0
C1271 C 0.70679 0.29518 0.26975 0.0
C1272 C 0.73549 0.32057 0.26376 0.0
H1273 H 0.6556 0.27505 0.26616 0.0
H1274 H 0.70799 0.27437 0.28204 0.0
C1275 C 0.7308 0.34679 0.24754 0.0
C1276 C 0.59961 0.94294 0.96125 0.0
C1277 C 0.58434 0.91077 0.9722 0.0
H1278 H 0.61047 0.99847 0.96517 0.0
C1279 C 0.56852 0.91317 0.99755 0.0
H1280 H 0.61181 0.94339 0.94175 0.0
C1281 C 0.56733 0.94466 0.01074 0.0
C1282 C 0.58196 0.97672 0.99983 0.0
H1283 H 0.55617 0.89001 0.0074 0.0
H1284 H 0.55446 0.94359 0.02984 0.0
C1285 C 0.59854 0.97499 0.97476 0.0
C1286 C 0.96123 0.78232 0.75547 0.0
C1287 C 0.98339 0.81023 0.74295 0.0
H1288 H 0.91784 0.76081 0.77589 0.0
C1289 C 0.97479 0.83989 0.74358 0.0
H1290 H 0.9655 0.75856 0.75609 0.0
C1291 C 0.94685 0.84144 0.75604 0.0
C1292 C 0.92469 0.8133 0.76842 0.0
H1293 H 0.99003 0.86254 0.73478 0.0
H1294 H 0.94251 0.86518 0.75569 0.0
C1295 C 0.93309 0.7836 0.76725 0.0
C1296 C 0.1624 0.0311 0.95995 0.0
C1297 C 0.14418 0.02648 0.93203 0.0
H1298 H 0.16324 0.03979 0.00737 0.0
C1299 C 0.11087 0.01432 0.92996 0.0
H1300 H 0.18813 0.04039 0.9619 0.0
C1301 C 0.09659 0.01448 0.95592 0.0
C1302 C 0.11585 0.02649 0.98364 0.0
H1303 H 0.09652 1.01062 0.90842 0.0
H1304 H 0.07145 1.00998 0.9539 0.0
C1305 C 0.14823 0.03149 0.98587 0.0
C1306 C 0.85154 0.3992 0.5991 0.0
C1307 C 0.87388 0.40289 0.579 0.0
H1308 H 0.83873 0.38551 0.64205 0.0
C1309 C 0.90127 0.39582 0.58731 0.0
H1310 H 0.8301 0.40416 0.59315 0.0
C1311 C 0.90642 0.3856 0.61534 0.0
C1312 C 0.88418 0.382 0.63554 0.0
H1313 H 0.91902 0.39861 0.57231 0.0
H1314 H 0.92811 0.38116 0.62139 0.0
C1315 C 0.85657 0.38865 0.62709 0.0
C1316 C 0.52352 0.10262 0.44274 0.0
C1317 C 0.53274 0.08636 0.41896 0.0
H1318 H 0.52647 0.11243 0.49068 0.0
C1319 C 0.55222 0.06758 0.4254 0.0
H1320 H 0.50842 0.11709 0.43839 0.0
C1321 C 0.562 0.06462 0.45457 0.0
C1322 C 0.55291 0.08052 0.47846 0.0
H1323 H 0.55966 0.05431 0.40781 0.0
H1324 H 0.57651 0.04934 0.45824 0.0
C1325 C 0.53367 0.09976 0.47249 0.0
C1326 C 0.80832 0.80749 0.15386 0.0
C1327 C 0.83007 0.79669 0.13958 0.0
H1328 H 0.79075 0.81718 0.19497 0.0
C1329 C 0.85177 0.78762 0.15839 0.0
H1330 H 0.79091 0.8144 0.14057 0.0
C1331 C 0.85181 0.7895 0.18998 0.0
C1332 C 0.82961 0.79963 0.20414 0.0
H1333 H 0.86878 0.77889 0.14867 0.0
H1334 H 0.86918 0.78259 0.20334 0.0
C1335 C 0.80794 0.80868 0.18532 0.0
C1336 C 0.12463 0.1286 0.79349 0.0
C1337 C 0.12248 0.09645 0.80197 0.0
H1338 H 0.11174 0.15583 0.76008 0.0
C1339 C 0.10118 0.06612 0.78487 0.0
H1340 H 0.14104 0.15234 0.80647 0.0
C1341 C 0.08298 0.06799 0.75882 0.0
C1342 C 0.08684 0.10021 0.74889 0.0
H1343 H 0.09883 0.04107 0.7915 0.0
H1344 H 0.06682 0.04413 0.74593 0.0
C1345 C 0.10734 0.13051 0.76703 0.0
C1346 C 0.78178 0.34025 0.42382 0.0
C1347 C 0.79073 0.37611 0.43008 0.0
H1348 H 0.78016 0.29897 0.39208 0.0
C1349 C 0.79445 0.39634 0.40629 0.0
H1350 H 0.7783 0.32414 0.44188 0.0
C1351 C 0.7964 0.3822 0.37787 0.0
C1352 C 0.79391 0.34766 0.37317 0.0
H1353 H 0.80101 0.42405 0.41055 0.0
H1354 H 0.80312 0.39922 0.36069 0.0
C1355 C 0.78357 0.32605 0.39545 0.0
C1356 C 0.4953 0.07651 0.25242 0.0
C1357 C 0.50956 0.05687 0.26772 0.0
H1358 H 0.4702 0.08058 0.21115 0.0
C1359 C 0.5032 0.02272 0.25586 0.0
H1360 H 0.49935 0.10268 0.26156 0.0
C1361 C 0.48692 1.01016 0.22715 0.0
C1362 C 0.47684 0.03164 0.20965 0.0
H1363 H 0.51308 1.00661 0.26775 0.0
H1364 H 0.4858 0.98511 0.21773 0.0
C1365 C 0.47874 0.06383 0.22356 0.0
C1366 C 0.84071 0.77091 0.93833 0.0
C1367 C 0.84031 0.79752 0.95943 0.0
H1368 H 0.84178 0.75363 0.89217 0.0
C1369 C 0.84326 0.82916 0.9484 0.0
H1370 H 0.83814 0.74599 0.94539 0.0
C1371 C 0.84632 0.8339 0.91779 0.0
C1372 C 0.84552 0.80688 0.89647 0.0
H1373 H 0.84285 0.85037 0.96347 0.0
H1374 H 0.84801 0.85851 0.91055 0.0
C1375 C 0.84272 0.77529 0.90751 0.0
C1376 C 0.86875 0.08695 0.08205 0.0
C1377 C 0.85688 0.09785 0.05646 0.0
H1378 H 0.89692 0.05998 0.09987 0.0
C1379 C 0.86439 0.08882 0.02832 0.0
H1380 H 0.86304 0.09306 0.10401 0.0
C1381 C 0.88424 0.07014 0.02598 0.0
C1382 C 0.8967 0.05991 0.05172 0.0
H1383 H 0.85556 0.09687 0.0082 0.0
H1384 H 0.89061 0.0647 1.00417 0.0
C1385 C 0.88824 0.06802 0.07968 0.0
C1386 C 0.45007 0.45194 0.03338 0.0
C1387 C 0.43257 0.45524 0.05661 0.0
H1388 H 0.48972 0.47638 0.01031 0.0
C1389 C 0.44109 0.48745 0.07378 0.0
H1390 H 0.44361 0.42745 0.01953 0.0
C1391 C 0.46801 0.5154 0.06893 0.0
C1392 C 0.48586 0.51185 0.04598 0.0
H1393 H 0.4277 0.49061 0.09163 0.0
H1394 H 0.47527 0.53953 0.08346 0.0
C1395 C 0.47614 0.48009 0.02781 0.0
C1396 C 0.39813 0.62542 0.75756 0.0
C1397 C 0.40031 0.59879 0.77365 0.0
H1398 H 0.3759 0.66191 0.75139 0.0
C1399 C 0.3825 0.58992 0.79763 0.0
H1400 H 0.41168 0.63297 0.73908 0.0
C1401 C 0.36171 0.60619 0.80443 0.0
C1402 C 0.35841 0.63164 0.78738 0.0
H1403 H 0.38365 0.56947 0.81046 0.0
H1404 H 0.34741 0.598 0.82231 0.0
C1405 C 0.37738 0.64169 0.76438 0.0
C1406 C 0.21112 0.61094 0.63218 0.0
C1407 C 0.2338 0.60937 0.6136 0.0
H1408 H 0.16194 0.60157 0.63429 0.0
C1409 C 0.2235 0.58726 0.58646 0.0
H1410 H 0.21842 0.62709 0.65359 0.0
C1411 C 0.1913 0.57338 0.57519 0.0
C1412 C 0.16916 0.5805 0.59144 0.0
H1413 H 0.24034 0.58469 0.57193 0.0
H1414 H 0.18414 0.55992 0.55261 0.0
C1415 C 0.17878 0.59656 0.62107 0.0
C1416 C 0.83213 0.06201 0.75506 0.0
C1417 C 0.80085 0.03914 0.74483 0.0
H1418 H 0.88001 0.06694 0.76969 0.0
C1419 C 0.79502 1.00433 0.73594 0.0
H1420 H 0.83725 0.08908 0.76183 0.0
C1421 C 0.81938 0.99182 0.73998 0.0
C1422 C 0.85004 1.01382 0.75338 0.0
H1423 H 0.77117 0.98627 0.72754 0.0
H1424 H 0.81328 0.96424 0.73526 0.0
C1425 C 0.85658 0.04938 0.75949 0.0
C1426 C 0.78097 0.96914 0.50894 0.0
C1427 C 0.78619 0.9529 0.53395 0.0
H1428 H 0.75864 1.00123 0.4899 0.0
C1429 C 0.77223 0.9572 0.55969 0.0
H1430 H 0.79118 0.9662 0.48867 0.0
C1431 C 0.75379 0.97762 0.56051 0.0
C1432 C 0.7488 0.99413 0.53557 0.0
H1433 H 0.77586 0.94514 0.5794 0.0
H1434 H 0.74393 0.98095 0.5809 0.0
C1435 C 0.76246 0.98944 0.50971 0.0
C1436 C 0.35228 0.45411 0.75088 0.0
C1437 C 0.36148 0.44686 0.72296 0.0
H1438 H 0.34574 0.4395 0.79515 0.0
C1439 C 0.36672 0.41605 0.71713 0.0
H1440 H 0.34819 0.47774 0.75605 0.0
C1441 C 0.36766 0.39595 0.73996 0.0
C1442 C 0.36113 0.40465 0.7686 0.0
H1443 H 0.37375 0.40937 0.69597 0.0
H1444 H 0.37435 0.37398 0.73521 0.0
C1445 C 0.35175 0.43285 0.77347 0.0
C1446 C 0.22872 0.66437 0.2384 0.0
C1447 C 0.22769 0.63794 0.25607 0.0
H1448 H 0.25265 0.71755 0.23232 0.0
C1449 C 0.25087 0.6446 0.28107 0.0
H1450 H 0.21085 0.65975 0.21919 0.0
C1451 C 0.27385 0.67773 0.2892 0.0
C1452 C 0.27462 0.70429 0.27181 0.0
H1453 H 0.25017 0.62464 0.29524 0.0
H1454 H 0.29076 0.68274 0.30926 0.0
C1455 C 0.25249 0.69724 0.2459 0.0
C1456 C 0.56244 0.70116 0.5112 0.0
C1457 C 0.53156 0.70022 0.51427 0.0
H1458 H 0.59663 0.67694 0.5177 0.0
C1459 C 0.51115 0.67162 0.52654 0.0
H1460 H 0.57899 0.72255 0.50193 0.0
C1461 C 0.5211 0.64487 0.53502 0.0
C1462 C 0.55214 0.64607 0.53229 0.0
H1463 H 0.48718 0.66961 0.52924 0.0
H1464 H 0.50448 0.62337 0.54413 0.0
C1465 C 0.57264 0.67487 0.52037 0.0
C1466 C 0.76604 0.36494 0.69689 0.0
C1467 C 0.734 0.35845 0.70053 0.0
H1468 H 0.81074 0.36285 0.71503 0.0
C1469 C 0.72349 0.34619 0.72735 0.0
H1470 H 0.7751 0.37424 0.67657 0.0
C1471 C 0.7438 0.33924 0.74919 0.0
C1472 C 0.77549 0.34464 0.7452 0.0
H1473 H 0.6991 0.34076 0.73113 0.0
H1474 H 0.73437 0.32901 0.76909 0.0
C1475 C 0.78654 0.35833 0.719 0.0
C1476 C 0.02683 0.39987 0.03849 0.0
C1477 C 0.04222 0.38794 0.01698 0.0
H1478 H 1.02121 0.4433 0.06239 0.0
C1479 C 0.06511 0.41301 1.00338 0.0
H1480 H 1.00893 0.38164 0.0494 0.0
C1481 C 0.07209 0.44859 0.01078 0.0
C1482 C 0.05633 0.46049 0.03194 0.0
H1483 H 0.07744 0.40514 0.98662 0.0
H1484 H 0.08983 0.46681 0.9997 0.0
C1485 C 0.03375 0.43545 0.04582 0.0
C1486 C 0.06375 0.82252 0.21663 0.0
C1487 C 0.08317 0.8563 0.21265 0.0
H1488 H 1.02371 0.79043 0.23582 0.0
C1489 C 0.077 0.88421 0.22613 0.0
H1490 H 0.06782 0.80044 0.20648 0.0
C1491 C 0.05167 0.87845 0.24288 0.0
C1492 C 0.03213 0.84467 0.24667 0.0
H1493 H 0.09149 0.91056 0.22347 0.0
H1494 H 0.04748 0.90045 0.25302 0.0
C1495 C 0.03856 0.81677 0.23353 0.0
C1496 C 0.57825 0.42091 0.09076 0.0
C1497 C 0.58199 0.42 0.12238 0.0
H1498 H 0.57694 0.44916 0.0529 0.0
C1499 C 0.58848 0.4524 0.13957 0.0
H1500 H 0.5732 0.39744 0.07589 0.0
C1501 C 0.59039 0.48314 0.12579 0.0
C1502 C 0.58631 0.48354 0.09399 0.0
H1503 H 0.59133 0.45396 0.16381 0.0
H1504 H 0.59479 0.50669 0.14028 0.0
C1505 C 0.58047 0.45131 0.07717 0.0
C1506 C 0.98064 0.3301 0.34808 0.0
C1507 C 0.98108 0.30253 0.36463 0.0
H1508 H 0.95308 0.35507 0.32342 0.0
C1509 C 0.95012 0.27819 0.36688 0.0
H1510 H 1.00302 0.35046 0.34607 0.0
C1511 C 0.92114 0.28081 0.3538 0.0
C1512 C 0.92041 0.30857 0.33787 0.0
H1513 H 0.94809 0.25681 0.37968 0.0
H1514 H 0.89887 0.26097 0.35694 0.0
C1515 C 0.95135 0.33304 0.33524 0.0
C1516 C 0.08239 0.72439 0.61046 0.0
C1517 C 0.06784 0.72001 0.63721 0.0
H1518 H 0.09749 0.70129 0.57276 0.0
C1519 C 0.05712 0.68553 0.64467 0.0
H1520 H 0.09156 0.74989 0.60337 0.0
C1521 C 0.06077 0.6576 0.62723 0.0
C1522 C 0.07552 0.6617 0.60078 0.0
H1523 H 0.04588 0.67978 0.66473 0.0
H1524 H 0.05193 0.63234 0.63488 0.0
C1525 C 0.08605 0.69606 0.59277 0.0
C1526 C 0.72073 0.8528 0.86822 0.0
C1527 C 0.68969 0.82609 0.86417 0.0
H1528 H 0.76968 0.87266 0.85916 0.0
C1529 C 0.68776 0.79679 0.8443 0.0
H1530 H 0.72495 0.87601 0.88313 0.0
C1531 C 0.7148 0.79463 0.83031 0.0
C1532 C 0.74589 0.82162 0.83482 0.0
H1533 H 0.66553 0.77471 0.84023 0.0
H1534 H 0.71125 0.77116 0.81607 0.0
C1535 C 0.7473 0.85083 0.85415 0.0
C1536 C 0.51185 0.58437 0.65114 0.0
C1537 C 0.50195 0.54975 0.65695 0.0
H1538 H 0.545 0.62441 0.63042 0.0
C1539 C 0.51941 0.52973 0.64837 0.0
H1540 H 0.49896 0.6004 0.65777 0.0
C1541 C 0.54562 0.54357 0.63366 0.0
C1542 C 0.55479 0.5775 0.627 0.0
H1543 H 0.5128 0.50313 0.65279 0.0
H1544 H 0.55814 0.52729 0.62651 0.0
C1545 C 0.53825 0.59821 0.636 0.0
C1546 C 0.77247 0.17014 0.9903 0.0
C1547 C 0.76064 0.18328 0.01395 0.0
H1548 H 0.77574 0.16684 0.94328 0.0
C1549 C 0.74035 0.20108 0.0076 0.0
H1550 H 0.78751 0.15556 0.9945 0.0
C1551 C 0.73414 0.20815 0.97855 0.0
C1552 C 0.74769 0.19712 0.95507 0.0
H1553 H 0.73055 0.21122 0.02534 0.0
H1554 H 0.72043 0.22426 0.97509 0.0
C1555 C 0.76571 0.17664 0.96102 0.0
C1556 C 0.10642 0.52657 0.19002 0.0
C1557 C 0.12988 0.51213 0.19037 0.0
H1558 H 0.0789 0.54931 0.16433 0.0
C1559 C 0.14203 0.50715 0.16372 0.0
H1560 H 0.09624 0.53012 0.21015 0.0
C1561 C 0.13217 0.51813 0.13756 0.0
C1562 C 0.10983 0.53412 0.13751 0.0
H1563 H 0.15998 0.49586 0.16324 0.0
H1564 H 0.14256 0.51459 0.11754 0.0
C1565 C 0.0965 0.53754 0.1638 0.0
C1566 C 0.85434 0.82388 0.44583 0.0
C1567 C 0.83546 0.83848 0.46083 0.0
H1568 H 0.87013 0.812 0.4044 0.0
C1569 C 0.81695 0.85229 0.44273 0.0
H1570 H 0.86933 0.81326 0.4585 0.0
C1571 C 0.81717 0.85123 0.41112 0.0
C1572 C 0.83664 0.83724 0.39631 0.0
H1573 H 0.80227 0.86413 0.45303 0.0
H1574 H 0.80225 0.86179 0.39829 0.0
C1575 C 0.85514 0.82356 0.41449 0.0
C1576 C 0.47353 0.46711 0.80083 0.0
C1577 C 0.48099 0.49886 0.78914 0.0
H1578 H 0.48302 0.44063 0.83717 0.0
C1579 C 0.50522 0.52838 0.80486 0.0
H1580 H 0.45497 0.44392 0.78913 0.0
C1581 C 0.52129 0.52642 0.83206 0.0
C1582 C 0.51331 0.49496 0.84419 0.0
H1583 H 0.51162 0.55316 0.7963 0.0
H1584 H 0.53926 0.54982 0.84409 0.0
C1585 C 0.48949 0.46522 0.82827 0.0
C1586 C 0.85455 0.23143 0.18845 0.0
C1587 C 0.8508 0.24762 0.16303 0.0
H1588 H 0.85598 0.2337 0.23608 0.0
C1589 C 0.85441 0.28251 0.16669 0.0
H1590 H 0.85194 0.20454 0.18623 0.0
C1591 C 0.85657 0.29922 0.19522 0.0
C1592 C 0.85493 0.28106 0.22031 0.0
H1593 H 0.85185 0.29558 0.14734 0.0
H1594 H 0.85628 0.32505 0.19715 0.0
C1595 C 0.85632 0.24798 0.21699 0.0
C1596 C 0.1632 0.58189 0.32603 0.0
C1597 C 0.16661 0.55001 0.32717 0.0
H1598 H 0.16138 0.62657 0.35065 0.0
C1599 C 0.17118 0.53869 0.35503 0.0
H1600 H 0.16044 0.59161 0.30483 0.0
C1601 C 0.17091 0.55832 0.38139 0.0
C1602 C 0.16688 0.59005 0.38031 0.0
H1603 H 0.17407 0.51424 0.35637 0.0
H1604 H 0.17276 0.54797 0.40246 0.0
C1605 C 0.16378 0.60194 0.35233 0.0
C1606 C 0.83811 0.81067 0.65604 0.0
C1607 C 0.83571 0.83985 0.64376 0.0
H1608 H 0.8374 0.7832 0.69465 0.0
C1609 C 0.8302 0.86424 0.66382 0.0
H1610 H 0.84248 0.79119 0.64191 0.0
C1611 C 0.8279 0.85997 0.69471 0.0
C1612 C 0.83026 0.83069 0.70691 0.0
H1613 H 0.82849 0.88732 0.65583 0.0
H1614 H 0.82436 0.87984 0.70909 0.0
C1615 C 0.83513 0.80604 0.68666 0.0
C1616 C 0.82148 0.57045 0.53358 0.0
C1617 C 0.81011 0.53436 0.53338 0.0
H1618 H 0.81124 0.61648 0.5397 0.0
C1619 C 0.77971 0.5172 0.5413 0.0
H1620 H 0.84486 0.58444 0.52767 0.0
C1621 C 0.76063 0.53555 0.5482 0.0
C1622 C 0.77156 0.57141 0.54735 0.0
H1623 H 0.77037 0.48948 0.54165 0.0
H1624 H 0.7371 0.5216 0.55384 0.0
C1625 C 0.80237 0.58885 0.54059 0.0
C1626 C 0.20909 0.20161 0.54797 0.0
C1627 C 0.23603 0.19342 0.54505 0.0
H1628 H 0.16028 0.18383 0.55431 0.0
C1629 C 0.23315 0.15872 0.54507 0.0
H1630 H 0.21027 0.22793 0.54803 0.0
C1631 C 0.20399 0.13298 0.54858 0.0
C1632 C 0.17749 0.1417 0.55264 0.0
H1633 H 0.2535 0.15155 0.54288 0.0
H1634 H 0.20237 0.10654 0.54876 0.0
C1635 C 0.18036 0.17621 0.55189 0.0
C1636 C 0.28416 0.0545 0.80249 0.0
C1637 C 0.25608 0.0377 0.81478 0.0
H1638 H 0.32829 0.05272 0.7911 0.0
C1639 C 0.25029 1.00473 0.82355 0.0
H1640 H 0.28936 0.08001 0.79566 0.0
C1641 C 0.27253 0.98937 0.8211 0.0
C1642 C 0.30109 1.00658 0.80982 0.0
H1643 H 0.22884 0.99102 0.83296 0.0
H1644 H 0.2674 0.96395 0.82816 0.0
C1645 C 0.30648 0.03899 0.79996 0.0
C1646 C 0.45085 0.0224 0.96446 0.0
C1647 C 0.42851 0.02536 0.98292 0.0
H1648 H 0.50031 0.03555 0.96093 0.0
C1649 C 0.43814 0.05283 0.00613 0.0
H1650 H 0.4439 1.00211 0.9458 0.0
C1651 C 0.47043 0.07181 0.01483 0.0
C1652 C 0.49312 0.06378 1.00006 0.0
H1653 H 0.42139 0.05647 0.02026 0.0
H1654 H 0.47764 0.08972 0.03526 0.0
C1655 C 0.48321 0.04158 0.97309 0.0
C1656 C 0.91031 0.63392 0.80067 0.0
C1657 C 0.90087 0.5979 0.79804 0.0
H1658 H 0.89792 0.67678 0.79078 0.0
C1659 C 0.87192 0.57712 0.78057 0.0
H1660 H 0.93267 0.65053 0.81374 0.0
C1661 C 0.85189 0.59218 0.76735 0.0
C1662 C 0.86085 0.62823 0.77096 0.0
H1663 H 0.86417 0.54923 0.77812 0.0
H1664 H 0.82901 0.57568 0.75514 0.0
C1665 C 0.8906 0.64894 0.78712 0.0
C1666 C 0.89048 0.67275 0.06762 0.0
C1667 C 0.88666 0.68124 0.03829 0.0
H1668 H 0.90973 0.64535 0.09716 0.0
C1669 C 0.89996 0.66794 0.01586 0.0
H1670 H 0.88042 0.68242 0.08541 0.0
C1671 C 0.91695 0.64689 0.02269 0.0
C1672 C 0.92058 0.63825 0.05198 0.0
H1673 H 0.89741 0.67394 0.99305 0.0
H1674 H 0.92699 0.63703 1.00498 0.0
C1675 C 0.90705 0.6513 0.07433 0.0
C1676 C 0.26176 0.20951 0.88206 0.0
C1677 C 0.26273 0.17664 0.8753 0.0
H1678 H 0.27467 0.2608 0.8704 0.0
C1679 C 0.28288 0.17227 0.85484 0.0
H1680 H 0.24676 0.21394 0.89787 0.0
C1681 C 0.29914 0.19946 0.83917 0.0
C1682 C 0.29476 0.23084 0.84345 0.0
H1683 H 0.28436 0.14728 0.84947 0.0
H1684 H 0.31347 0.19536 0.82254 0.0
C1685 C 0.27723 0.23619 0.86592 0.0
C1686 C 0.45307 0.93654 0.33811 0.0
C1687 C 0.44649 0.96574 0.33194 0.0
H1688 H 0.43452 0.88228 0.34007 0.0
C1689 C 0.41456 0.96255 0.32537 0.0
H1690 H 0.47727 0.93821 0.34399 0.0
C1691 C 0.38984 0.93025 0.32317 0.0
C1692 C 0.39682 0.90088 0.32762 0.0
H1693 H 0.4087 0.98474 0.32098 0.0
H1694 H 0.36559 0.92804 0.31658 0.0
C1695 C 0.42851 0.90452 0.33605 0.0
C1696 C 0.65593 0.46308 0.59254 0.0
C1697 C 0.63514 0.43254 0.60198 0.0
H1698 H 0.66234 0.51291 0.57821 0.0
C1699 C 0.6034 0.42963 0.60328 0.0
H1700 H 0.68053 0.46658 0.59131 0.0
C1701 C 0.59273 0.4559 0.59501 0.0
C1702 C 0.61361 0.48666 0.58606 0.0
H1703 H 0.58655 0.40669 0.61039 0.0
H1704 H 0.56807 0.45231 0.59607 0.0
C1705 C 0.64548 0.48986 0.58517 0.0
C1706 C 0.40347 0.76831 0.41672 0.0
C1707 C 0.43358 0.7687 0.41123 0.0
H1708 H 0.35939 0.77194 0.39916 0.0
C1709 C 0.44069 0.77064 0.38151 0.0
H1710 H 0.39696 0.76696 0.43919 0.0
C1711 C 0.41874 0.77301 0.35826 0.0
C1712 C 0.38921 0.77409 0.36411 0.0
H1713 H 0.46354 0.77107 0.37627 0.0
H1714 H 0.42549 0.77541 0.33592 0.0
C1715 C 0.38181 0.77124 0.39365 0.0
C1716 C 0.10089 0.72488 0.10151 0.0
C1717 C 0.12998 0.74778 0.09438 0.0
H1718 H 0.06962 0.67223 0.10171 0.0
C1719 C 0.15021 0.73347 0.08161 0.0
H1720 H 0.08474 0.73478 0.11153 0.0
C1721 C 0.14191 0.69744 0.07671 0.0
C1722 C 0.11285 0.67457 0.08393 0.0
H1723 H 0.17298 0.75015 0.07614 0.0
H1724 H 0.15819 0.68752 0.06698 0.0
C1725 C 0.0923 0.68889 0.09605 0.0
C1726 C 0.10788 0.29659 0.89273 0.0
C1727 C 0.10237 0.3268 0.9011 0.0
H1728 H 0.13474 0.27361 0.86837 0.0
C1729 C 0.12047 0.3577 0.89059 0.0
H1730 H 0.09428 0.27229 0.90033 0.0
C1731 C 0.14377 0.35843 0.87232 0.0
C1732 C 0.14948 0.32828 0.86423 0.0
H1733 H 0.11689 0.38143 0.89671 0.0
H1734 H 0.15776 0.38276 0.865 0.0
C1735 C 0.13118 0.29734 0.87453 0.0
C1736 C 0.58063 0.69066 0.95132 0.0
C1737 C 0.57222 0.71656 0.96653 0.0
H1738 H 0.58702 0.64148 0.95161 0.0
C1739 C 0.56429 0.70997 0.99583 0.0
H1740 H 0.58658 0.69341 0.92875 0.0
C1741 C 0.56486 0.68023 0.00917 0.0
C1742 C 0.57259 0.65395 0.99405 0.0
H1743 H 0.55743 0.72826 0.00895 0.0
H1744 H 0.5587 0.67771 0.0317 0.0
C1745 C 0.58053 0.66017 0.96457 0.0
C1746 C 0.17446 0.79499 0.76212 0.0
C1747 C 0.16926 0.82104 0.74619 0.0
H1748 H 0.20674 0.77395 0.78375 0.0
C1749 C 0.19791 0.84766 0.74116 0.0
H1750 H 0.15414 0.77355 0.76685 0.0
C1751 C 0.22923 0.84807 0.75163 0.0
C1752 C 0.23406 0.82153 0.76726 0.0
H1753 H 0.19627 0.86844 0.72909 0.0
H1754 H 0.24983 0.86928 0.74706 0.0
C1755 C 0.20541 0.79508 0.772 0.0
C1756 C 0.10409 0.44484 0.45644 0.0
C1757 C 0.09053 0.41374 0.46956 0.0
H1758 H 0.11436 0.50019 0.45815 0.0
C1759 C 0.07765 0.41779 0.49642 0.0
H1760 H 0.11396 0.44384 0.43566 0.0
C1761 C 0.07747 0.44987 0.50906 0.0
C1762 C 0.0902 0.48089 0.49601 0.0
H1763 H 0.06681 0.39549 0.5079 0.0
H1764 H 0.06679 0.45005 0.52947 0.0
C1765 C 0.10402 0.47757 0.46939 0.0
C1766 C 0.4768 0.34282 0.24464 0.0
C1767 C 0.48633 0.31387 0.24564 0.0
H1768 H 0.44408 0.36789 0.25594 0.0
C1769 C 0.46565 0.28715 0.26043 0.0
H1770 H 0.49091 0.36455 0.23402 0.0
C1771 C 0.43802 0.28885 0.27287 0.0
C1772 C 0.42865 0.31782 0.27236 0.0
H1773 H 0.47069 0.26398 0.2624 0.0
H1774 H 0.42395 0.26696 0.28333 0.0
C1775 C 0.4493 0.34481 0.25768 0.0
C1776 C 0.62468 0.59264 0.44101 0.0
C1777 C 0.64844 0.57921 0.43721 0.0
H1778 H 0.58782 0.59388 0.46658 0.0
C1779 C 0.65065 0.55316 0.45399 0.0
H1780 H 0.62233 0.61258 0.4281 0.0
C1781 C 0.63098 0.54272 0.47603 0.0
C1782 C 0.60858 0.55768 0.48082 0.0
H1783 H 0.6687 0.54238 0.45133 0.0
H1784 H 0.6343 0.52431 0.49033 0.0
C1785 C 0.60467 0.5817 0.46261 0.0
C1786 C 0.41013 0.90276 0.09087 0.0
C1787 C 0.38449 0.91374 0.086 0.0
H1788 H 0.432 0.87526 0.11728 0.0
C1789 C 0.36273 0.90834 0.10686 0.0
H1790 H 0.42749 0.90675 0.07532 0.0
C1791 C 0.36557 0.89053 0.13123 0.0
C1792 C 0.39011 0.87767 0.13501 0.0
H1793 H 0.34291 0.91681 0.10386 0.0
H1794 H 0.34819 0.88628 0.14678 0.0
C1795 C 0.41283 0.88479 0.11503 0.0
C1796 C 1.01718 0.61918 0.95552 0.0
C1797 C 0.03691 0.62726 0.93296 0.0
H1798 H 1.01162 0.5998 0.99779 0.0
C1799 C 0.06972 0.6355 0.94038 0.0
H1800 H 0.99188 0.61344 0.95061 0.0
C1801 C 0.08112 0.62751 0.96749 0.0
C1802 C 0.05972 0.61182 0.98726 0.0
H1803 H 0.08549 0.64251 0.92341 0.0
H1804 H 0.10579 0.63014 0.97133 0.0
C1805 C 0.02835 0.61051 0.98233 0.0
C1806 C 0.35336 0.28561 0.66542 0.0
C1807 C 0.33745 0.30189 0.64702 0.0
H1808 H 0.36518 0.27421 0.70998 0.0
C1809 C 0.32039 0.31922 0.66163 0.0
H1810 H 0.36659 0.27169 0.65543 0.0
C1811 C 0.31885 0.31984 0.69289 0.0
C1812 C 0.33472 0.30365 0.71138 0.0
H1813 H 0.30747 0.33187 0.64874 0.0
H1814 H 0.30531 0.33353 0.70265 0.0
C1815 C 0.35234 0.28683 0.69695 0.0
C1816 C 0.65164 0.59639 0.28149 0.0
C1817 C 0.67555 0.62562 0.29793 0.0
H1818 H 0.61912 0.57586 0.241 0.0
C1819 C 0.68532 0.65713 0.28575 0.0
H1820 H 0.64365 0.57182 0.29044 0.0
C1821 C 0.6714 0.65936 0.25752 0.0
C1822 C 0.64728 0.63022 0.24124 0.0
H1823 H 0.70383 0.68003 0.29794 0.0
H1824 H 0.67924 0.68391 0.24853 0.0
C1825 C 0.63746 0.59874 0.2534 0.0
C1826 C 0.29676 0.89198 0.91574 0.0
C1827 C 0.2997 0.87382 0.94001 0.0
H1828 H 0.29717 0.89344 0.86853 0.0
C1829 C 0.29618 0.83908 0.93449 0.0
H1830 H 0.29929 0.91879 0.91943 0.0
C1831 C 0.29521 0.8246 0.9054 0.0
C1832 C 0.29788 0.84484 0.88163 0.0
H1833 H 0.29811 0.82453 0.95295 0.0
H1834 H 0.29566 0.79888 0.90213 0.0
C1835 C 0.29614 0.87763 0.88662 0.0
C1836 C 0.9989 0.50582 0.76967 0.0
C1837 C 1.00622 0.53993 0.78219 0.0
H1838 H 0.9938 0.47194 0.73014 0.0
C1839 C 1.01579 0.56691 0.76439 0.0
H1840 H 0.99088 0.48456 0.78298 0.0
C1841 C 1.01821 0.55981 0.7343 0.0
C1842 C 1.01032 0.52555 0.72151 0.0
H1843 H 1.02155 0.59342 0.77378 0.0
H1844 H 0.02654 0.58119 0.72118 0.0
C1845 C 1.00056 0.49863 0.73946 0.0
C1846 C 0.34526 0.27618 0.44432 0.0
C1847 C 0.34658 0.30375 0.46531 0.0
H1848 H 0.34455 0.25745 0.39816 0.0
C1849 C 0.35068 0.33547 0.45393 0.0
H1850 H 0.34177 0.25117 0.45163 0.0
C1851 C 0.3532 0.33938 0.42309 0.0
C1852 C 0.35073 0.31145 0.40194 0.0
H1853 H 0.35162 0.35742 0.46891 0.0
H1854 H 0.35584 0.36412 0.4156 0.0
C1855 C 0.34677 0.27979 0.41334 0.0
C1856 C 0.34898 0.5794 0.53587 0.0
C1857 C 0.36232 0.61338 0.55046 0.0
H1858 H 0.35656 0.53269 0.52376 0.0
C1859 C 0.39498 0.62773 0.56102 0.0
H1860 H 0.32387 0.56775 0.52739 0.0
C1861 C 0.41357 0.60782 0.55878 0.0
C1862 C 0.39982 0.57311 0.54611 0.0
H1863 H 0.40604 0.65405 0.57187 0.0
H1864 H 0.43858 0.6193 0.56774 0.0
C1865 C 0.36763 0.55935 0.53374 0.0
C1866 C 0.94226 0.98557 0.56381 0.0
C1867 C 0.93741 0.9519 0.55158 0.0
H1868 H 0.97377 0.03877 0.57091 0.0
C1869 C 0.95959 0.9468 0.53396 0.0
H1870 H 0.92543 0.99028 0.57724 0.0
C1871 C 0.98651 0.97472 0.52928 0.0
C1872 C 0.99212 1.00809 0.54276 0.0
H1873 H 0.95616 0.92117 0.52383 0.0
H1874 H 1.00382 0.96991 0.51657 0.0
C1875 C 0.96966 1.01331 0.55988 0.0
C1876 C 0.86843 0.07678 0.29496 0.0
C1877 C 0.89353 0.09146 0.27826 0.0
H1878 H 0.82781 0.08119 0.31266 0.0
C1879 C 0.89801 0.12353 0.26809 0.0
H1880 H 0.86441 0.05204 0.30308 0.0
C1881 C 0.87713 0.14001 0.27352 0.0
C1882 C 0.85133 0.12477 0.28919 0.0
H1883 H 0.91728 0.13566 0.25539 0.0
H1884 H 0.88109 0.16468 0.26526 0.0
C1885 C 0.84749 0.09337 0.30043 0.0
C1886 C 0.70784 0.07075 0.09768 0.0
C1887 C 0.7185 0.0959 0.1229 0.0
H1888 H 0.66847 0.04187 0.06424 0.0
C1889 C 0.696 0.1007 0.14024 0.0
H1890 H 0.7245 0.06571 0.08421 0.0
C1891 C 0.6637 0.08647 0.12892 0.0
C1892 C 0.65406 0.06749 0.10036 0.0
H1893 H 0.70357 0.11933 0.1602 0.0
H1894 H 0.64714 0.09421 0.1405 0.0
C1895 C 0.67573 0.05722 0.08604 0.0
C1896 C 0.32498 0.55832 0.25902 0.0
C1897 C 0.29459 0.53394 0.24778 0.0
H1898 H 0.37346 0.56644 0.2746 0.0
C1899 C 0.29112 0.49999 0.23808 0.0
H1900 H 0.32834 0.58482 0.26633 0.0
C1901 C 0.31681 0.48959 0.2425 0.0
C1902 C 0.3465 0.5129 0.25699 0.0
H1903 H 0.26805 0.48081 0.22878 0.0
H1904 H 0.31238 0.46243 0.23719 0.0
C1905 C 0.35079 0.54782 0.2637 0.0
C1906 C 0.26411 0.44987 0.05822 0.0
C1907 C 0.28035 0.44633 0.03395 0.0
H1908 H 0.23379 0.47285 0.07668 0.0
C1909 C 0.27674 0.4626 0.00848 0.0
H1910 H 0.26641 0.43771 0.0782 0.0
C1911 C 0.25789 0.48254 0.00753 0.0
C1912 C 0.24222 0.48676 0.03204 0.0
H1913 H 0.28869 0.4602 0.98928 0.0
H1914 H 0.25561 0.49469 0.98754 0.0
C1915 C 0.24528 0.46988 0.05728 0.0
C1916 C 0.8824 0.91787 0.20771 0.0
C1917 C 0.87934 0.94997 0.21265 0.0
H1918 H 0.87885 0.87112 0.22547 0.0
C1919 C 0.86171 0.95509 0.23539 0.0
H1920 H 0.8951 0.91256 0.19003 0.0
C1921 C 0.85231 0.93107 0.25588 0.0
C1922 C 0.86051 0.90188 0.25374 0.0
H1923 H 0.85838 0.97933 0.23942 0.0
H1924 H 0.84079 0.93653 0.27448 0.0
C1925 C 0.87379 0.89444 0.22851 0.0
C1926 C 0.76724 0.15417 0.76766 0.0
C1927 C 0.74125 0.14982 0.74609 0.0
H1928 H 0.80893 0.18998 0.79506 0.0
C1929 C 0.74046 0.17821 0.73177 0.0
H1930 H 0.76813 0.13301 0.77962 0.0
C1931 C 0.76432 0.2109 0.74036 0.0
C1932 C 0.78861 0.2155 0.76385 0.0
H1933 H 0.72052 0.17551 0.71525 0.0
H1934 H 0.76226 0.23293 0.73052 0.0
C1935 C 0.79052 0.18681 0.77669 0.0
loop_
_geom_bond_atom_site_label_1
_geom_bond_atom_site_label_2
_geom_bond_distance
_geom_bond_site_symmetry_2
_ccdc_geom_bond_type
Zn0 O3 2.031 . S
Zn0 O5 2.049 . S
Zn0 O10 2.067 1_455 S
Zn1 O2 1.962 . S
Zn1 O4 1.986 . S
Zn1 O6 1.996 . S
Zn1 O9 1.943 . S
O2 Zn1 1.962 . S
O2 C7 1.254 . S
O3 Zn0 2.031 . S
O3 C7 1.269 . S
O4 Zn1 1.986 . S
O4 C11 1.262 . S
O5 Zn0 2.049 . S
O5 C13 1.260 . S
O6 Zn1 1.996 . S
O6 C13 1.257 . S
C7 O2 1.254 . S
C7 O3 1.269 . S
C8 O9 1.249 . S
C8 O10 1.270 1_455 S
O9 Zn1 1.943 . S
O9 C8 1.249 . S
O10 Zn0 2.067 1_655 S
O10 C8 1.270 1_655 S
C11 O4 1.262 . S
C11 O12 1.232 . S
O12 C11 1.232 . S
C13 O5 1.260 . S
C13 O6 1.257 . S
Zn14 O17 2.031 . S
Zn14 O19 2.049 . S
Zn14 O24 2.067 . S
Zn15 O16 1.962 . S
Zn15 O18 1.986 . S
Zn15 O20 1.996 . S
Zn15 O23 1.943 . S
O16 Zn15 1.962 . S
O16 C21 1.254 . S
O17 Zn14 2.031 . S
O17 C21 1.269 . S
O18 Zn15 1.986 . S
O18 C25 1.262 . S
O19 Zn14 2.049 . S
O19 C27 1.260 . S
O20 Zn15 1.996 . S
O20 C27 1.257 . S
C21 O16 1.254 . S
C21 O17 1.269 . S
C22 O23 1.249 . S
C22 O24 1.270 . S
O23 Zn15 1.943 . S
O23 C22 1.249 . S
O24 Zn14 2.067 . S
O24 C22 1.270 . S
C25 O18 1.262 . S
C25 O26 1.232 . S
O26 C25 1.232 . S
C27 O19 1.260 . S
C27 O20 1.257 . S
Zn28 O31 2.031 . S
Zn28 O33 2.049 . S
Zn28 O38 2.067 . S
Zn29 O30 1.962 . S
Zn29 O32 1.986 . S
Zn29 O34 1.996 . S
Zn29 O37 1.943 . S
O30 Zn29 1.962 . S
O30 C35 1.254 . S
O31 Zn28 2.031 . S
O31 C35 1.269 . S
O32 Zn29 1.986 . S
O32 C39 1.262 . S
O33 Zn28 2.049 . S
O33 C41 1.260 . S
O34 Zn29 1.996 . S
O34 C41 1.257 . S
C35 O30 1.254 . S
C35 O31 1.269 . S
C36 O37 1.249 . S
C36 O38 1.270 . S
O37 Zn29 1.943 . S
O37 C36 1.249 . S
O38 Zn28 2.067 . S
O38 C36 1.270 . S
C39 O32 1.262 . S
C39 O40 1.232 . S
O40 C39 1.232 . S
C41 O33 1.260 . S
C41 O34 1.257 . S
Zn42 O45 2.031 . S
Zn42 O47 2.049 . S
Zn42 O52 2.067 . S
Zn43 O44 1.962 . S
Zn43 O46 1.986 . S
Zn43 O48 1.996 . S
Zn43 O51 1.943 . S
O44 Zn43 1.962 . S
O44 C49 1.254 . S
O45 Zn42 2.031 . S
O45 C49 1.269 . S
O46 Zn43 1.986 . S
O46 C53 1.262 . S
O47 Zn42 2.049 . S
O47 C55 1.260 . S
O48 Zn43 1.996 . S
O48 C55 1.257 . S
C49 O44 1.254 . S
C49 O45 1.269 . S
C50 O51 1.249 . S
C50 O52 1.270 . S
O51 Zn43 1.943 . S
O51 C50 1.249 . S
O52 Zn42 2.067 . S
O52 C50 1.270 . S
C53 O46 1.262 . S
C53 O54 1.232 . S
O54 C53 1.232 . S
C55 O47 1.260 . S
C55 O48 1.257 . S
Zn56 O59 2.031 . S
Zn56 O61 2.049 . S
Zn56 O66 2.067 . S
Zn57 O58 1.962 . S
Zn57 O60 1.986 . S
Zn57 O62 1.996 . S
Zn57 O65 1.943 . S
O58 Zn57 1.962 . S
O58 C63 1.254 . S
O59 Zn56 2.031 . S
O59 C63 1.269 . S
O60 Zn57 1.986 . S
O60 C67 1.262 . S
O61 Zn56 2.049 . S
O61 C69 1.260 . S
O62 Zn57 1.996 . S
O62 C69 1.257 . S
C63 O58 1.254 . S
C63 O59 1.269 . S
C64 O65 1.249 . S
C64 O66 1.270 . S
O65 Zn57 1.943 . S
O65 C64 1.249 . S
O66 Zn56 2.067 . S
O66 C64 1.270 . S
C67 O60 1.262 . S
C67 O68 1.232 . S
O68 C67 1.232 . S
C69 O61 1.260 . S
C69 O62 1.257 . S
Zn70 O73 2.031 . S
Zn70 O75 2.049 . S
Zn70 O80 2.067 . S
Zn71 O72 1.962 . S
Zn71 O74 1.986 . S
Zn71 O76 1.996 . S
Zn71 O79 1.943 . S
O72 Zn71 1.962 . S
O72 C77 1.254 . S
O73 Zn70 2.031 . S
O73 C77 1.269 . S
O74 Zn71 1.986 . S
O74 C81 1.262 . S
O75 Zn70 2.049 . S
O75 C83 1.260 . S
O76 Zn71 1.996 . S
O76 C83 1.257 . S
C77 O72 1.254 . S
C77 O73 1.269 . S
C78 O79 1.249 . S
C78 O80 1.270 . S
O79 Zn71 1.943 . S
O79 C78 1.249 . S
O80 Zn70 2.067 . S
O80 C78 1.270 . S
C81 O74 1.262 . S
C81 O82 1.232 . S
O82 C81 1.232 . S
C83 O75 1.260 . S
C83 O76 1.257 . S
Zn84 O87 2.031 . S
Zn84 O89 2.049 . S
Zn84 O94 2.067 . S
Zn85 O86 1.962 . S
Zn85 O88 1.986 . S
Zn85 O90 1.996 . S
Zn85 O93 1.943 . S
O86 Zn85 1.962 . S
O86 C91 1.254 . S
O87 Zn84 2.031 . S
O87 C91 1.269 . S
O88 Zn85 1.986 . S
O88 C95 1.262 . S
O89 Zn84 2.049 . S
O89 C97 1.260 . S
O90 Zn85 1.996 . S
O90 C97 1.257 . S
C91 O86 1.254 . S
C91 O87 1.269 . S
C92 O93 1.249 . S
C92 O94 1.270 . S
O93 Zn85 1.943 . S
O93 C92 1.249 . S
O94 Zn84 2.067 . S
O94 C92 1.270 . S
C95 O88 1.262 . S
C95 O96 1.232 . S
O96 C95 1.232 . S
C97 O89 1.260 . S
C97 O90 1.257 . S
Zn98 O101 2.031 . S
Zn98 O103 2.049 . S
Zn98 O108 2.067 . S
Zn99 O100 1.962 . S
Zn99 O102 1.986 . S
Zn99 O104 1.994 1_455 S
Zn99 O107 1.943 1_455 S
O100 Zn99 1.962 . S
O100 C105 1.254 . S
O101 Zn98 2.031 . S
O101 C105 1.269 1_655 S
O102 Zn99 1.986 . S
O102 C109 1.262 . S
O103 Zn98 2.049 . S
O103 C111 1.260 . S
O104 Zn99 1.994 1_655 S
O104 C111 1.263 . S
C105 O100 1.254 . S
C105 O101 1.269 1_455 S
C106 O107 1.249 . S
C106 O108 1.270 . S
O107 Zn99 1.943 1_655 S
O107 C106 1.249 . S
O108 Zn98 2.067 . S
O108 C106 1.270 . S
C109 O102 1.262 . S
C109 O110 1.232 . S
O110 C109 1.232 . S
C111 O103 1.260 . S
C111 O104 1.263 . S
Zn112 O115 2.031 1_565 S
Zn112 O117 2.049 1_565 S
Zn112 O122 2.067 . S
Zn113 O114 1.962 . S
Zn113 O116 1.986 . S
Zn113 O118 1.996 . S
Zn113 O121 1.943 . S
O114 Zn113 1.962 . S
O114 C119 1.254 . S
O115 Zn112 2.031 1_545 S
O115 C119 1.269 . S
O116 Zn113 1.986 . S
O116 C123 1.262 . S
O117 Zn112 2.049 1_545 S
O117 C125 1.260 . S
O118 Zn113 1.996 . S
O118 C125 1.257 . S
C119 O114 1.254 . S
C119 O115 1.269 . S
C120 O121 1.249 1_565 S
C120 O122 1.270 . S
O121 Zn113 1.943 . S
O121 C120 1.249 1_545 S
O122 Zn112 2.067 . S
O122 C120 1.270 . S
C123 O116 1.262 . S
C123 O124 1.232 . S
O124 C123 1.232 . S
C125 O117 1.260 . S
C125 O118 1.257 . S
Zn126 O129 2.031 . S
Zn126 O131 2.049 . S
Zn126 O136 2.067 . S
Zn127 O128 1.962 . S
Zn127 O130 1.986 . S
Zn127 O132 1.996 . S
Zn127 O135 1.943 . S
O128 Zn127 1.962 . S
O128 C133 1.254 . S
O129 Zn126 2.031 . S
O129 C133 1.269 . S
O130 Zn127 1.986 . S
O130 C137 1.262 . S
O131 Zn126 2.049 . S
O131 C139 1.260 . S
O132 Zn127 1.996 . S
O132 C139 1.257 . S
C133 O128 1.254 . S
C133 O129 1.269 . S
C134 O135 1.249 . S
C134 O136 1.270 . S
O135 Zn127 1.943 . S
O135 C134 1.249 . S
O136 Zn126 2.067 . S
O136 C134 1.270 . S
C137 O130 1.262 . S
C137 O138 1.232 . S
O138 C137 1.232 . S
C139 O131 1.260 . S
C139 O132 1.257 . S
Zn140 O143 2.031 . S
Zn140 O145 2.049 . S
Zn140 O150 2.067 . S
Zn141 O142 1.962 . S
Zn141 O144 1.986 . S
Zn141 O146 1.996 . S
Zn141 O149 1.943 . S
O142 Zn141 1.962 . S
O142 C147 1.254 . S
O143 Zn140 2.031 . S
O143 C147 1.269 . S
O144 Zn141 1.986 . S
O144 C151 1.262 . S
O145 Zn140 2.049 . S
O145 C153 1.260 . S
O146 Zn141 1.996 . S
O146 C153 1.257 . S
C147 O142 1.254 . S
C147 O143 1.269 . S
C148 O149 1.249 . S
C148 O150 1.270 . S
O149 Zn141 1.943 . S
O149 C148 1.249 . S
O150 Zn140 2.067 . S
O150 C148 1.270 . S
C151 O144 1.262 . S
C151 O152 1.232 . S
O152 C151 1.232 . S
C153 O145 1.260 . S
C153 O146 1.257 . S
Zn154 O157 2.031 1_554 S
Zn154 O159 2.049 . S
Zn154 O164 2.067 . S
Zn155 O156 1.962 . S
Zn155 O158 1.986 1_556 S
Zn155 O160 1.996 1_556 S
Zn155 O163 1.943 1_556 S
O156 Zn155 1.962 . S
O156 C161 1.254 . S
O157 Zn154 2.031 1_556 S
O157 C161 1.269 . S
O158 Zn155 1.986 1_554 S
O158 C165 1.262 1_554 S
O159 Zn154 2.049 . S
O159 C167 1.260 . S
O160 Zn155 1.996 1_554 S
O160 C167 1.257 . S
C161 O156 1.254 . S
C161 O157 1.269 . S
C162 O163 1.249 . S
C162 O164 1.270 . S
O163 Zn155 1.943 1_554 S
O163 C162 1.249 . S
O164 Zn154 2.067 . S
O164 C162 1.270 . S
C165 O158 1.262 1_556 S
C165 O166 1.232 . S
O166 C165 1.232 . S
C167 O159 1.260 . S
C167 O160 1.257 . S
Zn168 O171 2.031 . S
Zn168 O173 2.049 . S
Zn168 O178 2.067 . S
Zn169 O170 1.962 . S
Zn169 O172 1.986 . S
Zn169 O174 1.996 . S
Zn169 O177 1.943 . S
O170 Zn169 1.962 . S
O170 C175 1.254 1_554 S
O171 Zn168 2.031 . S
O171 C175 1.269 1_554 S
O172 Zn169 1.986 . S
O172 C179 1.262 . S
O173 Zn168 2.049 . S
O173 C181 1.260 . S
O174 Zn169 1.996 . S
O174 C181 1.257 . S
C175 O170 1.254 1_556 S
C175 O171 1.269 1_556 S
C176 O177 1.249 . S
C176 O178 1.270 . S
O177 Zn169 1.943 . S
O177 C176 1.249 . S
O178 Zn168 2.067 . S
O178 C176 1.270 . S
C179 O172 1.262 . S
C179 O180 1.232 . S
O180 C179 1.232 . S
C181 O173 1.260 . S
C181 O174 1.257 . S
Zn182 O185 2.031 . S
Zn182 O187 2.049 . S
Zn182 O192 2.067 . S
Zn183 O184 1.962 . S
Zn183 O186 1.986 . S
Zn183 O188 1.996 . S
Zn183 O191 1.943 . S
O184 Zn183 1.962 . S
O184 C189 1.254 . S
O185 Zn182 2.031 . S
O185 C189 1.269 . S
O186 Zn183 1.986 . S
O186 C193 1.262 . S
O187 Zn182 2.049 . S
O187 C195 1.260 . S
O188 Zn183 1.996 . S
O188 C195 1.257 . S
C189 O184 1.254 . S
C189 O185 1.269 . S
C190 O191 1.249 . S
C190 O192 1.270 . S
O191 Zn183 1.943 . S
O191 C190 1.249 . S
O192 Zn182 2.067 . S
O192 C190 1.270 . S
C193 O186 1.262 . S
C193 O194 1.232 . S
O194 C193 1.232 . S
C195 O187 1.260 . S
C195 O188 1.257 . S
Zn196 O199 2.031 . S
Zn196 O201 2.049 . S
Zn196 O206 2.067 . S
Zn197 O198 1.962 . S
Zn197 O200 1.986 . S
Zn197 O202 1.996 . S
Zn197 O205 1.943 . S
O198 Zn197 1.962 . S
O198 C203 1.254 . S
O199 Zn196 2.031 . S
O199 C203 1.269 . S
O200 Zn197 1.986 . S
O200 C207 1.262 . S
O201 Zn196 2.049 . S
O201 C209 1.260 . S
O202 Zn197 1.996 . S
O202 C209 1.257 . S
C203 O198 1.254 . S
C203 O199 1.269 . S
C204 O205 1.249 . S
C204 O206 1.270 . S
O205 Zn197 1.943 . S
O205 C204 1.249 . S
O206 Zn196 2.067 . S
O206 C204 1.270 . S
C207 O200 1.262 . S
C207 O208 1.232 . S
O208 C207 1.232 . S
C209 O201 1.260 . S
C209 O202 1.257 . S
Zn210 O213 2.031 . S
Zn210 O215 2.049 . S
Zn210 O220 2.067 . S
Zn211 O212 1.962 . S
Zn211 O214 1.986 . S
Zn211 O216 1.996 . S
Zn211 O219 1.943 . S
O212 Zn211 1.962 . S
O212 C217 1.254 . S
O213 Zn210 2.031 . S
O213 C217 1.269 . S
O214 Zn211 1.986 . S
O214 C221 1.262 . S
O215 Zn210 2.049 . S
O215 C223 1.260 . S
O216 Zn211 1.996 . S
O216 C223 1.257 . S
C217 O212 1.254 . S
C217 O213 1.269 . S
C218 O219 1.249 . S
C218 O220 1.270 . S
O219 Zn211 1.943 . S
O219 C218 1.249 . S
O220 Zn210 2.067 . S
O220 C218 1.270 . S
C221 O214 1.262 . S
C221 O222 1.232 . S
O222 C221 1.232 . S
C223 O215 1.260 . S
C223 O216 1.257 . S
Zn224 O227 2.031 . S
Zn224 O229 2.049 . S
Zn224 O234 2.067 . S
Zn225 O226 1.962 . S
Zn225 O228 1.986 . S
Zn225 O230 1.996 . S
Zn225 O233 1.943 1_545 S
O226 Zn225 1.962 . S
O226 C231 1.254 . S
O227 Zn224 2.031 . S
O227 C231 1.269 1_565 S
O228 Zn225 1.986 . S
O228 C235 1.262 . S
O229 Zn224 2.049 . S
O229 C237 1.260 . S
O230 Zn225 1.996 . S
O230 C237 1.257 1_545 S
C231 O226 1.254 . S
C231 O227 1.269 1_545 S
C232 O233 1.249 . S
C232 O234 1.270 . S
O233 Zn225 1.943 1_565 S
O233 C232 1.249 . S
O234 Zn224 2.067 . S
O234 C232 1.270 . S
C235 O228 1.262 . S
C235 O236 1.232 . S
O236 C235 1.232 . S
C237 O229 1.260 . S
C237 O230 1.257 1_565 S
Zn238 O241 2.031 . S
Zn238 O243 2.049 . S
Zn238 O248 2.067 . S
Zn239 O240 1.962 . S
Zn239 O242 1.986 . S
Zn239 O244 1.996 . S
Zn239 O247 1.943 . S
O240 Zn239 1.962 . S
O240 C245 1.254 . S
O241 Zn238 2.031 . S
O241 C245 1.269 . S
O242 Zn239 1.986 . S
O242 C249 1.262 . S
O243 Zn238 2.049 . S
O243 C251 1.260 . S
O244 Zn239 1.996 . S
O244 C251 1.257 . S
C245 O240 1.254 . S
C245 O241 1.269 . S
C246 O247 1.249 . S
C246 O248 1.270 . S
O247 Zn239 1.943 . S
O247 C246 1.249 . S
O248 Zn238 2.067 . S
O248 C246 1.270 . S
C249 O242 1.262 . S
C249 O250 1.232 . S
O250 C249 1.232 . S
C251 O243 1.260 . S
C251 O244 1.257 . S
Zn252 O255 2.031 . S
Zn252 O257 2.049 . S
Zn252 O262 2.067 . S
Zn253 O254 1.962 . S
Zn253 O256 1.986 . S
Zn253 O258 1.996 . S
Zn253 O261 1.943 . S
O254 Zn253 1.962 . S
O254 C259 1.254 . S
O255 Zn252 2.031 . S
O255 C259 1.269 . S
O256 Zn253 1.986 . S
O256 C263 1.262 . S
O257 Zn252 2.049 . S
O257 C265 1.260 . S
O258 Zn253 1.996 . S
O258 C265 1.257 . S
C259 O254 1.254 . S
C259 O255 1.269 . S
C260 O261 1.249 . S
C260 O262 1.270 . S
O261 Zn253 1.943 . S
O261 C260 1.249 . S
O262 Zn252 2.067 . S
O262 C260 1.270 . S
C263 O256 1.262 . S
C263 O264 1.232 . S
O264 C263 1.232 . S
C265 O257 1.260 . S
C265 O258 1.257 . S
Zn266 O269 2.031 . S
Zn266 O271 2.049 . S
Zn266 O276 2.067 . S
Zn267 O268 1.962 . S
Zn267 O270 1.986 . S
Zn267 O272 1.996 . S
Zn267 O275 1.943 . S
O268 Zn267 1.962 . S
O268 C273 1.254 . S
O269 Zn266 2.031 . S
O269 C273 1.269 . S
O270 Zn267 1.986 . S
O270 C277 1.262 . S
O271 Zn266 2.049 . S
O271 C279 1.260 . S
O272 Zn267 1.996 . S
O272 C279 1.257 . S
C273 O268 1.254 . S
C273 O269 1.269 . S
C274 O275 1.249 . S
C274 O276 1.270 . S
O275 Zn267 1.943 . S
O275 C274 1.249 . S
O276 Zn266 2.067 . S
O276 C274 1.270 . S
C277 O270 1.262 . S
C277 O278 1.232 . S
O278 C277 1.232 . S
C279 O271 1.260 . S
C279 O272 1.257 . S
Zn280 O283 2.031 . S
Zn280 O285 2.049 . S
Zn280 O290 2.067 . S
Zn281 O282 1.962 . S
Zn281 O284 1.986 . S
Zn281 O286 1.996 . S
Zn281 O289 1.943 . S
O282 Zn281 1.962 . S
O282 C287 1.254 1_554 S
O283 Zn280 2.031 . S
O283 C287 1.269 1_554 S
O284 Zn281 1.986 . S
O284 C291 1.262 . S
O285 Zn280 2.049 . S
O285 C293 1.260 . S
O286 Zn281 1.996 . S
O286 C293 1.257 . S
C287 O282 1.254 1_556 S
C287 O283 1.269 1_556 S
C288 O289 1.249 . S
C288 O290 1.270 . S
O289 Zn281 1.943 . S
O289 C288 1.249 . S
O290 Zn280 2.067 . S
O290 C288 1.270 . S
C291 O284 1.262 . S
C291 O292 1.232 . S
O292 C291 1.232 . S
C293 O285 1.260 . S
C293 O286 1.257 . S
Zn294 O297 2.031 . S
Zn294 O299 2.049 . S
Zn294 O304 2.067 . S
Zn295 O296 1.962 . S
Zn295 O298 1.986 . S
Zn295 O300 1.996 . S
Zn295 O303 1.943 . S
O296 Zn295 1.962 . S
O296 C301 1.254 . S
O297 Zn294 2.031 . S
O297 C301 1.269 . S
O298 Zn295 1.986 . S
O298 C305 1.262 . S
O299 Zn294 2.049 . S
O299 C307 1.260 . S
O300 Zn295 1.996 . S
O300 C307 1.257 . S
C301 O296 1.254 . S
C301 O297 1.269 . S
C302 O303 1.249 . S
C302 O304 1.270 . S
O303 Zn295 1.943 . S
O303 C302 1.249 . S
O304 Zn294 2.067 . S
O304 C302 1.270 . S
C305 O298 1.262 . S
C305 O306 1.232 . S
O306 C305 1.232 . S
C307 O299 1.260 . S
C307 O300 1.257 . S
Zn308 O311 2.031 . S
Zn308 O313 2.049 . S
Zn308 O318 2.067 . S
Zn309 O310 1.962 . S
Zn309 O312 1.986 . S
Zn309 O314 1.996 . S
Zn309 O317 1.943 . S
O310 Zn309 1.962 . S
O310 C315 1.254 . S
O311 Zn308 2.031 . S
O311 C315 1.269 . S
O312 Zn309 1.986 . S
O312 C319 1.262 . S
O313 Zn308 2.049 . S
O313 C321 1.260 . S
O314 Zn309 1.996 . S
O314 C321 1.257 . S
C315 O310 1.254 . S
C315 O311 1.269 . S
C316 O317 1.249 . S
C316 O318 1.270 . S
O317 Zn309 1.943 . S
O317 C316 1.249 . S
O318 Zn308 2.067 . S
O318 C316 1.270 . S
C319 O312 1.262 . S
C319 O320 1.232 . S
O320 C319 1.232 . S
C321 O313 1.260 . S
C321 O314 1.257 . S
Zn322 O325 2.031 . S
Zn322 O327 2.049 . S
Zn322 O332 2.067 . S
Zn323 O324 1.962 . S
Zn323 O326 1.986 . S
Zn323 O328 1.996 . S
Zn323 O331 1.943 . S
O324 Zn323 1.962 . S
O324 C329 1.254 . S
O325 Zn322 2.031 . S
O325 C329 1.269 . S
O326 Zn323 1.986 . S
O326 C333 1.262 . S
O327 Zn322 2.049 . S
O327 C335 1.260 . S
O328 Zn323 1.996 . S
O328 C335 1.257 . S
C329 O324 1.254 . S
C329 O325 1.269 . S
C330 O331 1.249 . S
C330 O332 1.270 . S
O331 Zn323 1.943 . S
O331 C330 1.249 . S
O332 Zn322 2.067 . S
O332 C330 1.270 . S
C333 O326 1.262 . S
C333 O334 1.232 . S
O334 C333 1.232 . S
C335 O327 1.260 . S
C335 O328 1.257 . S
Tb336 C345 2.764 . S
Tb336 O346 2.325 . S
Tb336 O349 2.303 . S
Tb336 O353 2.322 . S
Tb336 O354 2.349 . S
Tb336 O357 2.415 . S
Tb336 O358 2.399 . S
Tb337 O347 2.322 1_545 S
Tb337 O348 2.349 1_554 S
Tb337 O350 2.415 1_455 S
Tb337 O351 2.399 1_454 S
Tb337 O352 2.325 . S
Tb337 O355 2.303 . S
Tb337 C366 2.764 1_455 S
C338 O354 1.261 . S
C338 O355 1.257 . S
C339 C342 1.358 . S
C339 C343 1.332 . S
C339 C345 1.504 . S
C340 C341 1.373 . S
C340 C344 1.308 . S
C341 C340 1.373 . S
C341 C342 1.429 . S
C341 H368 0.932 . S
C342 C339 1.358 . S
C342 C341 1.429 . S
C342 H369 0.930 . S
C343 C339 1.332 . S
C343 C344 1.394 . S
C343 H370 0.932 . S
C344 C340 1.308 . S
C344 C343 1.394 . S
C344 H371 0.929 . S
C345 Tb336 2.764 . S
C345 C339 1.504 . S
C345 O357 1.239 . S
C345 O358 1.263 . S
O346 Tb336 2.325 . S
O346 C356 1.236 1_545 S
O347 Tb337 2.322 1_565 S
O347 C356 1.257 . S
O348 Tb337 2.349 1_556 S
O348 C359 1.261 . S
O349 Tb336 2.303 . S
O349 C359 1.257 1_554 S
O350 Tb337 2.415 1_655 S
O350 C366 1.239 . S
O351 Tb337 2.399 1_656 S
O351 C366 1.263 1_556 S
O352 Tb337 2.325 . S
O352 C367 1.236 . S
O353 Tb336 2.322 . S
O353 C367 1.257 . S
O354 Tb336 2.349 . S
O354 C338 1.261 . S
O355 Tb337 2.303 . S
O355 C338 1.257 . S
C356 O346 1.236 1_565 S
C356 O347 1.257 . S
O357 Tb336 2.415 . S
O357 C345 1.239 . S
O358 Tb336 2.399 . S
O358 C345 1.263 . S
C359 O348 1.261 . S
C359 O349 1.257 1_556 S
C360 C363 1.358 1_554 S
C360 C364 1.332 . S
C360 C366 1.504 . S
C361 C362 1.373 . S
C361 C365 1.308 1_556 S
C362 C361 1.373 . S
C362 C363 1.429 . S
C362 H372 0.932 . S
C363 C360 1.358 1_556 S
C363 C362 1.429 . S
C363 H373 0.930 . S
C364 C360 1.332 . S
C364 C365 1.394 . S
C364 H374 0.932 . S
C365 C361 1.308 1_554 S
C365 C364 1.394 . S
C365 H375 0.929 . S
C366 Tb337 2.764 1_655 S
C366 O350 1.239 . S
C366 O351 1.263 1_554 S
C366 C360 1.504 . S
C367 O352 1.236 . S
C367 O353 1.257 . S
H368 C341 0.932 . S
H369 C342 0.930 . S
H370 C343 0.932 . S
H371 C344 0.929 . S
H372 C362 0.932 . S
H373 C363 0.930 . S
H374 C364 0.932 . S
H375 C365 0.929 . S
Tb376 C385 2.764 . S
Tb376 O386 2.325 . S
Tb376 O389 2.303 . S
Tb376 O393 2.322 . S
Tb376 O394 2.349 . S
Tb376 O397 2.415 . S
Tb376 O398 2.399 . S
Tb377 O387 2.322 . S
Tb377 O388 2.349 . S
Tb377 O390 2.415 . S
Tb377 O391 2.399 . S
Tb377 O392 2.325 . S
Tb377 O395 2.303 . S
Tb377 C406 2.764 . S
C378 O394 1.261 . S
C378 O395 1.257 . S
C379 C382 1.358 . S
C379 C383 1.332 . S
C379 C385 1.504 . S
C380 C381 1.373 . S
C380 C384 1.308 . S
C381 C380 1.373 . S
C381 C382 1.429 . S
C381 H408 0.932 . S
C382 C379 1.358 . S
C382 C381 1.429 . S
C382 H409 0.930 . S
C383 C379 1.332 . S
C383 C384 1.394 . S
C383 H410 0.932 . S
C384 C380 1.308 . S
C384 C383 1.394 . S
C384 H411 0.929 . S
C385 Tb376 2.764 . S
C385 C379 1.504 . S
C385 O397 1.239 . S
C385 O398 1.263 . S
O386 Tb376 2.325 . S
O386 C396 1.236 . S
O387 Tb377 2.322 . S
O387 C396 1.257 . S
O388 Tb377 2.349 . S
O388 C399 1.261 . S
O389 Tb376 2.303 . S
O389 C399 1.257 . S
O390 Tb377 2.415 . S
O390 C406 1.239 . S
O391 Tb377 2.399 . S
O391 C406 1.263 . S
O392 Tb377 2.325 . S
O392 C407 1.236 . S
O393 Tb376 2.322 . S
O393 C407 1.257 . S
O394 Tb376 2.349 . S
O394 C378 1.261 . S
O395 Tb377 2.303 . S
O395 C378 1.257 . S
C396 O386 1.236 . S
C396 O387 1.257 . S
O397 Tb376 2.415 . S
O397 C385 1.239 . S
O398 Tb376 2.399 . S
O398 C385 1.263 . S
C399 O388 1.261 . S
C399 O389 1.257 . S
C400 C403 1.358 . S
C400 C404 1.332 . S
C400 C406 1.504 . S
C401 C402 1.373 . S
C401 C405 1.308 . S
C402 C401 1.373 . S
C402 C403 1.429 . S
C402 H412 0.932 . S
C403 C400 1.358 . S
C403 C402 1.429 . S
C403 H413 0.930 . S
C404 C400 1.332 . S
C404 C405 1.394 . S
C404 H414 0.932 . S
C405 C401 1.308 . S
C405 C404 1.394 . S
C405 H415 0.929 . S
C406 Tb377 2.764 . S
C406 O390 1.239 . S
C406 O391 1.263 . S
C406 C400 1.504 . S
C407 O392 1.236 . S
C407 O393 1.257 . S
H408 C381 0.932 . S
H409 C382 0.930 . S
H410 C383 0.932 . S
H411 C384 0.929 . S
H412 C402 0.932 . S
H413 C403 0.930 . S
H414 C404 0.932 . S
H415 C405 0.929 . S
Tb416 C425 2.764 . S
Tb416 O426 2.325 . S
Tb416 O429 2.303 . S
Tb416 O433 2.322 1_545 S
Tb416 O434 2.349 . S
Tb416 O437 2.415 . S
Tb416 O438 2.399 . S
Tb417 O427 2.322 . S
Tb417 O428 2.349 . S
Tb417 O430 2.415 . S
Tb417 O431 2.399 . S
Tb417 O432 2.325 1_545 S
Tb417 O435 2.303 . S
Tb417 C446 2.764 . S
C418 O434 1.261 . S
C418 O435 1.257 . S
C419 C422 1.358 . S
C419 C423 1.332 . S
C419 C425 1.504 . S
C420 C421 1.373 . S
C420 C424 1.308 . S
C421 C420 1.373 . S
C421 C422 1.429 . S
C421 H448 0.932 . S
C422 C419 1.358 . S
C422 C421 1.429 . S
C422 H449 0.930 . S
C423 C419 1.332 . S
C423 C424 1.394 . S
C423 H450 0.932 . S
C424 C420 1.308 . S
C424 C423 1.394 . S
C424 H451 0.929 . S
C425 Tb416 2.764 . S
C425 C419 1.504 . S
C425 O437 1.239 . S
C425 O438 1.263 . S
O426 Tb416 2.325 . S
O426 C436 1.236 . S
O427 Tb417 2.322 . S
O427 C436 1.257 . S
O428 Tb417 2.349 . S
O428 C439 1.261 . S
O429 Tb416 2.303 . S
O429 C439 1.257 . S
O430 Tb417 2.415 . S
O430 C446 1.239 . S
O431 Tb417 2.399 . S
O431 C446 1.263 . S
O432 Tb417 2.325 1_565 S
O432 C447 1.236 . S
O433 Tb416 2.322 1_565 S
O433 C447 1.257 . S
O434 Tb416 2.349 . S
O434 C418 1.261 . S
O435 Tb417 2.303 . S
O435 C418 1.257 . S
C436 O426 1.236 . S
C436 O427 1.257 . S
O437 Tb416 2.415 . S
O437 C425 1.239 . S
O438 Tb416 2.399 . S
O438 C425 1.263 . S
C439 O428 1.261 . S
C439 O429 1.257 . S
C440 C443 1.358 . S
C440 C444 1.332 1_545 S
C440 C446 1.504 . S
C441 C442 1.373 . S
C441 C445 1.308 . S
C442 C441 1.373 . S
C442 C443 1.429 1_565 S
C442 H452 0.932 . S
C443 C440 1.358 . S
C443 C442 1.429 1_545 S
C443 H453 0.930 . S
C444 C440 1.332 1_565 S
C444 C445 1.394 . S
C444 H454 0.932 . S
C445 C441 1.308 . S
C445 C444 1.394 . S
C445 H455 0.929 . S
C446 Tb417 2.764 . S
C446 O430 1.239 . S
C446 O431 1.263 . S
C446 C440 1.504 . S
C447 O432 1.236 . S
C447 O433 1.257 . S
H448 C421 0.932 . S
H449 C422 0.930 . S
H450 C423 0.932 . S
H451 C424 0.929 . S
H452 C442 0.932 . S
H453 C443 0.930 . S
H454 C444 0.932 . S
H455 C445 0.929 . S
Tb456 C465 2.764 . S
Tb456 O466 2.325 . S
Tb456 O469 2.303 . S
Tb456 O473 2.322 . S
Tb456 O474 2.349 . S
Tb456 O477 2.415 . S
Tb456 O478 2.399 . S
Tb457 O467 2.322 . S
Tb457 O468 2.349 . S
Tb457 O470 2.415 . S
Tb457 O471 2.399 . S
Tb457 O472 2.325 . S
Tb457 O475 2.303 . S
Tb457 C486 2.764 . S
C458 O474 1.261 . S
C458 O475 1.257 . S
C459 C462 1.358 . S
C459 C463 1.332 . S
C459 C465 1.504 . S
C460 C461 1.373 . S
C460 C464 1.308 . S
C461 C460 1.373 . S
C461 C462 1.429 . S
C461 H488 0.932 . S
C462 C459 1.358 . S
C462 C461 1.429 . S
C462 H489 0.930 . S
C463 C459 1.332 . S
C463 C464 1.394 . S
C463 H490 0.932 . S
C464 C460 1.308 . S
C464 C463 1.394 . S
C464 H491 0.929 . S
C465 Tb456 2.764 . S
C465 C459 1.504 . S
C465 O477 1.239 . S
C465 O478 1.263 . S
O466 Tb456 2.325 . S
O466 C476 1.236 . S
O467 Tb457 2.322 . S
O467 C476 1.257 . S
O468 Tb457 2.349 . S
O468 C479 1.261 . S
O469 Tb456 2.303 . S
O469 C479 1.257 . S
O470 Tb457 2.415 . S
O470 C486 1.239 . S
O471 Tb457 2.399 . S
O471 C486 1.263 . S
O472 Tb457 2.325 . S
O472 C487 1.236 . S
O473 Tb456 2.322 . S
O473 C487 1.257 . S
O474 Tb456 2.349 . S
O474 C458 1.261 . S
O475 Tb457 2.303 . S
O475 C458 1.257 . S
C476 O466 1.236 . S
C476 O467 1.257 . S
O477 Tb456 2.415 . S
O477 C465 1.239 . S
O478 Tb456 2.399 . S
O478 C465 1.263 . S
C479 O468 1.261 . S
C479 O469 1.257 . S
C480 C483 1.358 . S
C480 C484 1.332 . S
C480 C486 1.504 . S
C481 C482 1.373 . S
C481 C485 1.308 . S
C482 C481 1.373 . S
C482 C483 1.429 . S
C482 H492 0.932 . S
C483 C480 1.358 . S
C483 C482 1.429 . S
C483 H493 0.930 . S
C484 C480 1.332 . S
C484 C485 1.394 . S
C484 H494 0.932 . S
C485 C481 1.308 . S
C485 C484 1.394 . S
C485 H495 0.929 . S
C486 Tb457 2.764 . S
C486 O470 1.239 . S
C486 O471 1.263 . S
C486 C480 1.504 . S
C487 O472 1.236 . S
C487 O473 1.257 . S
H488 C461 0.932 . S
H489 C462 0.930 . S
H490 C463 0.932 . S
H491 C464 0.929 . S
H492 C482 0.932 . S
H493 C483 0.930 . S
H494 C484 0.932 . S
H495 C485 0.929 . S
Tb496 C505 2.764 . S
Tb496 O506 2.325 . S
Tb496 O509 2.303 . S
Tb496 O513 2.322 . S
Tb496 O514 2.349 . S
Tb496 O517 2.415 . S
Tb496 O518 2.399 . S
Tb497 O507 2.322 . S
Tb497 O508 2.349 . S
Tb497 O510 2.415 . S
Tb497 O511 2.399 . S
Tb497 O512 2.325 . S
Tb497 O515 2.303 . S
Tb497 C526 2.764 . S
C498 O514 1.261 1_655 S
C498 O515 1.257 1_655 S
C499 C502 1.358 . S
C499 C503 1.332 . S
C499 C505 1.504 . S
C500 C501 1.373 . S
C500 C504 1.308 . S
C501 C500 1.373 . S
C501 C502 1.429 . S
C501 H528 0.932 . S
C502 C499 1.358 . S
C502 C501 1.429 . S
C502 H529 0.930 . S
C503 C499 1.332 . S
C503 C504 1.394 . S
C503 H530 0.932 . S
C504 C500 1.308 . S
C504 C503 1.394 . S
C504 H531 0.929 . S
C505 Tb496 2.764 . S
C505 C499 1.504 . S
C505 O517 1.239 . S
C505 O518 1.263 . S
O506 Tb496 2.325 . S
O506 C516 1.236 . S
O507 Tb497 2.322 . S
O507 C516 1.257 . S
O508 Tb497 2.349 . S
O508 C519 1.261 . S
O509 Tb496 2.303 . S
O509 C519 1.257 . S
O510 Tb497 2.415 . S
O510 C526 1.239 . S
O511 Tb497 2.399 . S
O511 C526 1.263 . S
O512 Tb497 2.325 . S
O512 C527 1.236 . S
O513 Tb496 2.322 . S
O513 C527 1.257 . S
O514 Tb496 2.349 . S
O514 C498 1.261 1_455 S
O515 Tb497 2.303 . S
O515 C498 1.257 1_455 S
C516 O506 1.236 . S
C516 O507 1.257 . S
O517 Tb496 2.415 . S
O517 C505 1.239 . S
O518 Tb496 2.399 . S
O518 C505 1.263 . S
C519 O508 1.261 . S
C519 O509 1.257 . S
C520 C523 1.358 . S
C520 C524 1.332 1_455 S
C520 C526 1.504 . S
C521 C522 1.373 1_655 S
C521 C525 1.308 . S
C522 C521 1.373 1_455 S
C522 C523 1.429 . S
C522 H532 0.932 . S
C523 C520 1.358 . S
C523 C522 1.429 . S
C523 H533 0.930 . S
C524 C520 1.332 1_655 S
C524 C525 1.394 . S
C524 H534 0.932 . S
C525 C521 1.308 . S
C525 C524 1.394 . S
C525 H535 0.929 . S
C526 Tb497 2.764 . S
C526 O510 1.239 . S
C526 O511 1.263 . S
C526 C520 1.504 . S
C527 O512 1.236 . S
C527 O513 1.257 . S
H528 C501 0.932 . S
H529 C502 0.930 . S
H530 C503 0.932 . S
H531 C504 0.929 . S
H532 C522 0.932 . S
H533 C523 0.930 . S
H534 C524 0.932 . S
H535 C525 0.929 . S
Tb536 C545 2.764 . S
Tb536 O546 2.325 . S
Tb536 O549 2.303 . S
Tb536 O553 2.322 . S
Tb536 O554 2.349 . S
Tb536 O557 2.415 . S
Tb536 O558 2.399 . S
Tb537 O547 2.322 . S
Tb537 O548 2.349 . S
Tb537 O550 2.415 . S
Tb537 O551 2.399 . S
Tb537 O552 2.325 . S
Tb537 O555 2.303 . S
Tb537 C566 2.764 . S
C538 O554 1.261 . S
C538 O555 1.257 . S
C539 C542 1.358 . S
C539 C543 1.332 . S
C539 C545 1.504 . S
C540 C541 1.373 . S
C540 C544 1.308 . S
C541 C540 1.373 . S
C541 C542 1.429 . S
C541 H568 0.932 . S
C542 C539 1.358 . S
C542 C541 1.429 . S
C542 H569 0.930 . S
C543 C539 1.332 . S
C543 C544 1.394 . S
C543 H570 0.932 . S
C544 C540 1.308 . S
C544 C543 1.394 . S
C544 H571 0.929 . S
C545 Tb536 2.764 . S
C545 C539 1.504 . S
C545 O557 1.239 . S
C545 O558 1.263 . S
O546 Tb536 2.325 . S
O546 C556 1.236 . S
O547 Tb537 2.322 . S
O547 C556 1.257 . S
O548 Tb537 2.349 . S
O548 C559 1.261 . S
O549 Tb536 2.303 . S
O549 C559 1.257 . S
O550 Tb537 2.415 . S
O550 C566 1.239 . S
O551 Tb537 2.399 . S
O551 C566 1.263 . S
O552 Tb537 2.325 . S
O552 C567 1.236 . S
O553 Tb536 2.322 . S
O553 C567 1.257 . S
O554 Tb536 2.349 . S
O554 C538 1.261 . S
O555 Tb537 2.303 . S
O555 C538 1.257 . S
C556 O546 1.236 . S
C556 O547 1.257 . S
O557 Tb536 2.415 . S
O557 C545 1.239 . S
O558 Tb536 2.399 . S
O558 C545 1.263 . S
C559 O548 1.261 . S
C559 O549 1.257 . S
C560 C563 1.358 . S
C560 C564 1.332 . S
C560 C566 1.504 . S
C561 C562 1.373 . S
C561 C565 1.308 . S
C562 C561 1.373 . S
C562 C563 1.429 . S
C562 H572 0.932 . S
C563 C560 1.358 . S
C563 C562 1.429 . S
C563 H573 0.930 . S
C564 C560 1.332 . S
C564 C565 1.394 . S
C564 H574 0.932 . S
C565 C561 1.308 . S
C565 C564 1.394 . S
C565 H575 0.929 . S
C566 Tb537 2.764 . S
C566 O550 1.239 . S
C566 O551 1.263 . S
C566 C560 1.504 . S
C567 O552 1.236 . S
C567 O553 1.257 . S
H568 C541 0.932 . S
H569 C542 0.930 . S
H570 C543 0.932 . S
H571 C544 0.929 . S
H572 C562 0.932 . S
H573 C563 0.930 . S
H574 C564 0.932 . S
H575 C565 0.929 . S
Tb576 C585 2.764 . S
Tb576 O586 2.325 . S
Tb576 O589 2.303 . S
Tb576 O593 2.322 . S
Tb576 O594 2.349 . S
Tb576 O597 2.415 . S
Tb576 O598 2.399 . S
Tb577 O587 2.322 . S
Tb577 O588 2.351 1_554 S
Tb577 O590 2.415 1_554 S
Tb577 O591 2.399 1_554 S
Tb577 O592 2.325 1_554 S
Tb577 O595 2.303 . S
Tb577 C606 2.764 1_554 S
C578 O594 1.261 . S
C578 O595 1.257 . S
C579 C582 1.358 . S
C579 C583 1.332 . S
C579 C585 1.504 . S
C580 C581 1.373 . S
C580 C584 1.308 . S
C581 C580 1.373 . S
C581 C582 1.429 . S
C581 H608 0.932 . S
C582 C579 1.358 . S
C582 C581 1.429 . S
C582 H609 0.930 . S
C583 C579 1.332 . S
C583 C584 1.394 . S
C583 H610 0.932 . S
C584 C580 1.308 . S
C584 C583 1.394 . S
C584 H611 0.929 . S
C585 Tb576 2.764 . S
C585 C579 1.504 . S
C585 O597 1.239 . S
C585 O598 1.263 . S
O586 Tb576 2.325 . S
O586 C596 1.236 . S
O587 Tb577 2.322 . S
O587 C596 1.257 . S
O588 Tb577 2.351 1_556 S
O588 C599 1.236 1_556 S
O589 Tb576 2.303 . S
O589 C599 1.257 . S
O590 Tb577 2.415 1_556 S
O590 C606 1.239 . S
O591 Tb577 2.399 1_556 S
O591 C606 1.263 . S
O592 Tb577 2.325 1_556 S
O592 C607 1.236 1_556 S
O593 Tb576 2.322 . S
O593 C607 1.257 . S
O594 Tb576 2.349 . S
O594 C578 1.261 . S
O595 Tb577 2.303 . S
O595 C578 1.257 . S
C596 O586 1.236 . S
C596 O587 1.257 . S
O597 Tb576 2.415 . S
O597 C585 1.239 . S
O598 Tb576 2.399 . S
O598 C585 1.263 . S
C599 O588 1.236 1_554 S
C599 O589 1.257 . S
C600 C603 1.358 . S
C600 C604 1.332 . S
C600 C606 1.504 . S
C601 C602 1.373 . S
C601 C605 1.308 . S
C602 C601 1.373 . S
C602 C603 1.429 . S
C602 H612 0.932 . S
C603 C600 1.358 . S
C603 C602 1.429 . S
C603 H613 0.930 . S
C604 C600 1.332 . S
C604 C605 1.394 . S
C604 H614 0.932 . S
C605 C601 1.308 . S
C605 C604 1.394 . S
C605 H615 0.929 . S
C606 Tb577 2.764 1_556 S
C606 O590 1.239 . S
C606 O591 1.263 . S
C606 C600 1.504 . S
C607 O592 1.236 1_554 S
C607 O593 1.257 . S
H608 C581 0.932 . S
H609 C582 0.930 . S
H610 C583 0.932 . S
H611 C584 0.929 . S
H612 C602 0.932 . S
H613 C603 0.930 . S
H614 C604 0.932 . S
H615 C605 0.929 . S
Tb616 C625 2.764 . S
Tb616 O626 2.325 . S
Tb616 O629 2.303 . S
Tb616 O633 2.322 . S
Tb616 O634 2.349 . S
Tb616 O637 2.415 . S
Tb616 O638 2.399 . S
Tb617 O627 2.322 . S
Tb617 O628 2.349 . S
Tb617 O630 2.415 . S
Tb617 O631 2.399 . S
Tb617 O632 2.325 . S
Tb617 O635 2.303 . S
Tb617 C646 2.764 . S
C618 O634 1.261 . S
C618 O635 1.257 . S
C619 C622 1.358 . S
C619 C623 1.332 . S
C619 C625 1.504 . S
C620 C621 1.373 . S
C620 C624 1.308 . S
C621 C620 1.373 . S
C621 C622 1.429 . S
C621 H648 0.932 . S
C622 C619 1.358 . S
C622 C621 1.429 . S
C622 H649 0.930 . S
C623 C619 1.332 . S
C623 C624 1.394 . S
C623 H650 0.932 . S
C624 C620 1.308 . S
C624 C623 1.394 . S
C624 H651 0.929 . S
C625 Tb616 2.764 . S
C625 C619 1.504 . S
C625 O637 1.239 . S
C625 O638 1.263 . S
O626 Tb616 2.325 . S
O626 C636 1.236 . S
O627 Tb617 2.322 . S
O627 C636 1.257 . S
O628 Tb617 2.349 . S
O628 C639 1.261 . S
O629 Tb616 2.303 . S
O629 C639 1.257 . S
O630 Tb617 2.415 . S
O630 C646 1.239 . S
O631 Tb617 2.399 . S
O631 C646 1.263 . S
O632 Tb617 2.325 . S
O632 C647 1.236 . S
O633 Tb616 2.322 . S
O633 C647 1.257 . S
O634 Tb616 2.349 . S
O634 C618 1.261 . S
O635 Tb617 2.303 . S
O635 C618 1.257 . S
C636 O626 1.236 . S
C636 O627 1.257 . S
O637 Tb616 2.415 . S
O637 C625 1.239 . S
O638 Tb616 2.399 . S
O638 C625 1.263 . S
C639 O628 1.261 . S
C639 O629 1.257 . S
C640 C643 1.358 . S
C640 C644 1.332 . S
C640 C646 1.504 . S
C641 C642 1.373 . S
C641 C645 1.308 . S
C642 C641 1.373 . S
C642 C643 1.429 . S
C642 H652 0.932 . S
C643 C640 1.358 . S
C643 C642 1.429 . S
C643 H653 0.930 . S
C644 C640 1.332 . S
C644 C645 1.394 . S
C644 H654 0.932 . S
C645 C641 1.308 . S
C645 C644 1.394 . S
C645 H655 0.929 . S
C646 Tb617 2.764 . S
C646 O630 1.239 . S
C646 O631 1.263 . S
C646 C640 1.504 . S
C647 O632 1.236 . S
C647 O633 1.257 . S
H648 C621 0.932 . S
H649 C622 0.930 . S
H650 C623 0.932 . S
H651 C624 0.929 . S
H652 C642 0.932 . S
H653 C643 0.930 . S
H654 C644 0.932 . S
H655 C645 0.929 . S
Tb656 C665 2.764 . S
Tb656 O666 2.325 . S
Tb656 O669 2.303 . S
Tb656 O673 2.322 . S
Tb656 O674 2.349 . S
Tb656 O677 2.415 . S
Tb656 O678 2.399 . S
Tb657 O667 2.322 . S
Tb657 O668 2.349 . S
Tb657 O670 2.415 1_554 S
Tb657 O671 2.399 1_554 S
Tb657 O672 2.323 1_554 S
Tb657 O675 2.303 . S
Tb657 C686 2.764 1_554 S
C658 O674 1.261 . S
C658 O675 1.257 . S
C659 C662 1.358 . S
C659 C663 1.332 . S
C659 C665 1.504 . S
C660 C661 1.373 . S
C660 C664 1.308 . S
C661 C660 1.373 . S
C661 C662 1.429 . S
C661 H688 0.932 . S
C662 C659 1.358 . S
C662 C661 1.429 . S
C662 H689 0.930 . S
C663 C659 1.332 . S
C663 C664 1.394 . S
C663 H690 0.932 . S
C664 C660 1.308 . S
C664 C663 1.394 . S
C664 H691 0.929 . S
C665 Tb656 2.764 . S
C665 C659 1.504 . S
C665 O677 1.239 . S
C665 O678 1.263 . S
O666 Tb656 2.325 . S
O666 C676 1.236 . S
O667 Tb657 2.322 . S
O667 C676 1.257 . S
O668 Tb657 2.349 . S
O668 C679 1.261 . S
O669 Tb656 2.303 . S
O669 C679 1.257 . S
O670 Tb657 2.415 1_556 S
O670 C686 1.239 . S
O671 Tb657 2.399 1_556 S
O671 C686 1.263 . S
O672 Tb657 2.323 1_556 S
O672 C687 1.227 1_556 S
O673 Tb656 2.322 . S
O673 C687 1.257 . S
O674 Tb656 2.349 . S
O674 C658 1.261 . S
O675 Tb657 2.303 . S
O675 C658 1.257 . S
C676 O666 1.236 . S
C676 O667 1.257 . S
O677 Tb656 2.415 . S
O677 C665 1.239 . S
O678 Tb656 2.399 . S
O678 C665 1.263 . S
C679 O668 1.261 . S
C679 O669 1.257 . S
C680 C683 1.358 . S
C680 C684 1.332 . S
C680 C686 1.504 . S
C681 C682 1.373 . S
C681 C685 1.308 . S
C682 C681 1.373 . S
C682 C683 1.429 . S
C682 H692 0.932 . S
C683 C680 1.358 . S
C683 C682 1.429 . S
C683 H693 0.930 . S
C684 C680 1.332 . S
C684 C685 1.394 . S
C684 H694 0.932 . S
C685 C681 1.308 . S
C685 C684 1.394 . S
C685 H695 0.929 . S
C686 Tb657 2.764 1_556 S
C686 O670 1.239 . S
C686 O671 1.263 . S
C686 C680 1.504 . S
C687 O672 1.227 1_554 S
C687 O673 1.257 . S
H688 C661 0.932 . S
H689 C662 0.930 . S
H690 C663 0.932 . S
H691 C664 0.929 . S
H692 C682 0.932 . S
H693 C683 0.930 . S
H694 C684 0.932 . S
H695 C685 0.929 . S
Tb696 C705 2.764 . S
Tb696 O706 2.325 . S
Tb696 O709 2.303 . S
Tb696 O713 2.322 . S
Tb696 O714 2.349 . S
Tb696 O717 2.415 . S
Tb696 O718 2.399 . S
Tb697 O707 2.322 . S
Tb697 O708 2.349 . S
Tb697 O710 2.415 . S
Tb697 O711 2.399 . S
Tb697 O712 2.325 . S
Tb697 O715 2.303 . S
Tb697 C726 2.764 . S
C698 O714 1.261 . S
C698 O715 1.257 . S
C699 C702 1.358 . S
C699 C703 1.332 . S
C699 C705 1.504 . S
C700 C701 1.373 . S
C700 C704 1.308 . S
C701 C700 1.373 . S
C701 C702 1.429 . S
C701 H728 0.932 . S
C702 C699 1.358 . S
C702 C701 1.429 . S
C702 H729 0.930 . S
C703 C699 1.332 . S
C703 C704 1.394 . S
C703 H730 0.932 . S
C704 C700 1.308 . S
C704 C703 1.394 . S
C704 H731 0.929 . S
C705 Tb696 2.764 . S
C705 C699 1.504 . S
C705 O717 1.239 . S
C705 O718 1.263 . S
O706 Tb696 2.325 . S
O706 C716 1.236 . S
O707 Tb697 2.322 . S
O707 C716 1.257 . S
O708 Tb697 2.349 . S
O708 C719 1.261 . S
O709 Tb696 2.303 . S
O709 C719 1.257 . S
O710 Tb697 2.415 . S
O710 C726 1.239 . S
O711 Tb697 2.399 . S
O711 C726 1.263 . S
O712 Tb697 2.325 . S
O712 C727 1.236 . S
O713 Tb696 2.322 . S
O713 C727 1.257 . S
O714 Tb696 2.349 . S
O714 C698 1.261 . S
O715 Tb697 2.303 . S
O715 C698 1.257 . S
C716 O706 1.236 . S
C716 O707 1.257 . S
O717 Tb696 2.415 . S
O717 C705 1.239 . S
O718 Tb696 2.399 . S
O718 C705 1.263 . S
C719 O708 1.261 . S
C719 O709 1.257 . S
C720 C723 1.358 . S
C720 C724 1.332 . S
C720 C726 1.504 . S
C721 C722 1.373 . S
C721 C725 1.308 . S
C722 C721 1.373 . S
C722 C723 1.429 . S
C722 H732 0.932 . S
C723 C720 1.358 . S
C723 C722 1.429 . S
C723 H733 0.930 . S
C724 C720 1.332 . S
C724 C725 1.394 . S
C724 H734 0.932 . S
C725 C721 1.308 . S
C725 C724 1.394 . S
C725 H735 0.929 . S
C726 Tb697 2.764 . S
C726 O710 1.239 . S
C726 O711 1.263 . S
C726 C720 1.504 . S
C727 O712 1.236 . S
C727 O713 1.257 . S
H728 C701 0.932 . S
H729 C702 0.930 . S
H730 C703 0.932 . S
H731 C704 0.929 . S
H732 C722 0.932 . S
H733 C723 0.930 . S
H734 C724 0.932 . S
H735 C725 0.929 . S
Tb736 C745 2.764 . S
Tb736 O746 2.325 . S
Tb736 O749 2.303 . S
Tb736 O753 2.322 . S
Tb736 O754 2.349 . S
Tb736 O757 2.415 . S
Tb736 O758 2.399 . S
Tb737 O747 2.322 . S
Tb737 O748 2.349 . S
Tb737 O750 2.415 . S
Tb737 O751 2.399 . S
Tb737 O752 2.325 . S
Tb737 O755 2.303 . S
Tb737 C766 2.764 . S
C738 O754 1.261 . S
C738 O755 1.257 . S
C739 C742 1.358 . S
C739 C743 1.332 1_455 S
C739 C745 1.504 . S
C740 C741 1.373 . S
C740 C744 1.308 1_455 S
C741 C740 1.373 . S
C741 C742 1.429 . S
C741 H768 0.932 . S
C742 C739 1.358 . S
C742 C741 1.429 . S
C742 H769 0.930 . S
C743 C739 1.332 1_655 S
C743 C744 1.394 . S
C743 H770 0.932 . S
C744 C740 1.308 1_655 S
C744 C743 1.394 . S
C744 H771 0.929 . S
C745 Tb736 2.764 . S
C745 C739 1.504 . S
C745 O757 1.239 . S
C745 O758 1.263 . S
O746 Tb736 2.325 . S
O746 C756 1.236 . S
O747 Tb737 2.322 . S
O747 C756 1.257 . S
O748 Tb737 2.349 . S
O748 C759 1.261 1_455 S
O749 Tb736 2.303 . S
O749 C759 1.257 1_455 S
O750 Tb737 2.415 . S
O750 C766 1.239 . S
O751 Tb737 2.399 . S
O751 C766 1.263 . S
O752 Tb737 2.325 . S
O752 C767 1.236 . S
O753 Tb736 2.322 . S
O753 C767 1.257 . S
O754 Tb736 2.349 . S
O754 C738 1.261 . S
O755 Tb737 2.303 . S
O755 C738 1.257 . S
C756 O746 1.236 . S
C756 O747 1.257 . S
O757 Tb736 2.415 . S
O757 C745 1.239 . S
O758 Tb736 2.399 . S
O758 C745 1.263 . S
C759 O748 1.261 1_655 S
C759 O749 1.257 1_655 S
C760 C763 1.358 . S
C760 C764 1.332 . S
C760 C766 1.504 . S
C761 C762 1.373 . S
C761 C765 1.308 . S
C762 C761 1.373 . S
C762 C763 1.429 . S
C762 H772 0.932 . S
C763 C760 1.358 . S
C763 C762 1.429 . S
C763 H773 0.930 . S
C764 C760 1.332 . S
C764 C765 1.394 . S
C764 H774 0.932 . S
C765 C761 1.308 . S
C765 C764 1.394 . S
C765 H775 0.929 . S
C766 Tb737 2.764 . S
C766 O750 1.239 . S
C766 O751 1.263 . S
C766 C760 1.504 . S
C767 O752 1.236 . S
C767 O753 1.257 . S
H768 C741 0.932 . S
H769 C742 0.930 . S
H770 C743 0.932 . S
H771 C744 0.929 . S
H772 C762 0.932 . S
H773 C763 0.930 . S
H774 C764 0.932 . S
H775 C765 0.929 . S
Tb776 C785 2.764 . S
Tb776 O786 2.325 . S
Tb776 O789 2.303 . S
Tb776 O793 2.322 . S
Tb776 O794 2.349 . S
Tb776 O797 2.415 . S
Tb776 O798 2.399 . S
Tb777 O787 2.322 . S
Tb777 O788 2.349 . S
Tb777 O790 2.415 . S
Tb777 O791 2.399 . S
Tb777 O792 2.325 . S
Tb777 O795 2.303 . S
Tb777 C806 2.764 . S
C778 O794 1.261 . S
C778 O795 1.257 . S
C779 C782 1.358 . S
C779 C783 1.332 . S
C779 C785 1.504 . S
C780 C781 1.373 . S
C780 C784 1.308 . S
C781 C780 1.373 . S
C781 C782 1.429 . S
C781 H808 0.932 . S
C782 C779 1.358 . S
C782 C781 1.429 . S
C782 H809 0.930 . S
C783 C779 1.332 . S
C783 C784 1.394 . S
C783 H810 0.932 . S
C784 C780 1.308 . S
C784 C783 1.394 . S
C784 H811 0.929 . S
C785 Tb776 2.764 . S
C785 C779 1.504 . S
C785 O797 1.239 . S
C785 O798 1.263 . S
O786 Tb776 2.325 . S
O786 C796 1.236 . S
O787 Tb777 2.322 . S
O787 C796 1.257 . S
O788 Tb777 2.349 . S
O788 C799 1.261 . S
O789 Tb776 2.303 . S
O789 C799 1.257 . S
O790 Tb777 2.415 . S
O790 C806 1.239 . S
O791 Tb777 2.399 . S
O791 C806 1.263 . S
O792 Tb777 2.325 . S
O792 C807 1.236 . S
O793 Tb776 2.322 . S
O793 C807 1.257 . S
O794 Tb776 2.349 . S
O794 C778 1.261 . S
O795 Tb777 2.303 . S
O795 C778 1.257 . S
C796 O786 1.236 . S
C796 O787 1.257 . S
O797 Tb776 2.415 . S
O797 C785 1.239 . S
O798 Tb776 2.399 . S
O798 C785 1.263 . S
C799 O788 1.261 . S
C799 O789 1.257 . S
C800 C803 1.358 . S
C800 C804 1.332 . S
C800 C806 1.504 . S
C801 C802 1.373 . S
C801 C805 1.308 . S
C802 C801 1.373 . S
C802 C803 1.429 . S
C802 H812 0.932 . S
C803 C800 1.358 . S
C803 C802 1.429 . S
C803 H813 0.930 . S
C804 C800 1.332 . S
C804 C805 1.394 . S
C804 H814 0.932 . S
C805 C801 1.308 . S
C805 C804 1.394 . S
C805 H815 0.929 . S
C806 Tb777 2.764 . S
C806 O790 1.239 . S
C806 O791 1.263 . S
C806 C800 1.504 . S
C807 O792 1.236 . S
C807 O793 1.257 . S
H808 C781 0.932 . S
H809 C782 0.930 . S
H810 C783 0.932 . S
H811 C784 0.929 . S
H812 C802 0.932 . S
H813 C803 0.930 . S
H814 C804 0.932 . S
H815 C805 0.929 . S
Tb816 C825 2.764 . S
Tb816 O826 2.325 . S
Tb816 O829 2.303 . S
Tb816 O833 2.322 . S
Tb816 O834 2.349 . S
Tb816 O837 2.415 . S
Tb816 O838 2.399 . S
Tb817 O827 2.322 . S
Tb817 O828 2.349 . S
Tb817 O830 2.415 . S
Tb817 O831 2.399 . S
Tb817 O832 2.325 . S
Tb817 O835 2.303 . S
Tb817 C846 2.764 . S
C818 O834 1.261 . S
C818 O835 1.257 . S
C819 C822 1.358 . S
C819 C823 1.332 . S
C819 C825 1.504 . S
C820 C821 1.373 . S
C820 C824 1.308 . S
C821 C820 1.373 . S
C821 C822 1.429 . S
C821 H848 0.932 . S
C822 C819 1.358 . S
C822 C821 1.429 . S
C822 H849 0.930 . S
C823 C819 1.332 . S
C823 C824 1.394 . S
C823 H850 0.932 . S
C824 C820 1.308 . S
C824 C823 1.394 . S
C824 H851 0.929 . S
C825 Tb816 2.764 . S
C825 C819 1.504 . S
C825 O837 1.239 . S
C825 O838 1.263 . S
O826 Tb816 2.325 . S
O826 C836 1.236 . S
O827 Tb817 2.322 . S
O827 C836 1.257 . S
O828 Tb817 2.349 . S
O828 C839 1.261 . S
O829 Tb816 2.303 . S
O829 C839 1.257 . S
O830 Tb817 2.415 . S
O830 C846 1.239 . S
O831 Tb817 2.399 . S
O831 C846 1.263 . S
O832 Tb817 2.325 . S
O832 C847 1.236 . S
O833 Tb816 2.322 . S
O833 C847 1.257 . S
O834 Tb816 2.349 . S
O834 C818 1.261 . S
O835 Tb817 2.303 . S
O835 C818 1.257 . S
C836 O826 1.236 . S
C836 O827 1.257 . S
O837 Tb816 2.415 . S
O837 C825 1.239 . S
O838 Tb816 2.399 . S
O838 C825 1.263 . S
C839 O828 1.261 . S
C839 O829 1.257 . S
C840 C843 1.358 . S
C840 C844 1.332 . S
C840 C846 1.504 . S
C841 C842 1.373 . S
C841 C845 1.308 . S
C842 C841 1.373 . S
C842 C843 1.429 . S
C842 H852 0.932 . S
C843 C840 1.358 . S
C843 C842 1.429 . S
C843 H853 0.930 . S
C844 C840 1.332 . S
C844 C845 1.394 . S
C844 H854 0.932 . S
C845 C841 1.308 . S
C845 C844 1.394 . S
C845 H855 0.929 . S
C846 Tb817 2.764 . S
C846 O830 1.239 . S
C846 O831 1.263 . S
C846 C840 1.504 . S
C847 O832 1.236 . S
C847 O833 1.257 . S
H848 C821 0.932 . S
H849 C822 0.930 . S
H850 C823 0.932 . S
H851 C824 0.929 . S
H852 C842 0.932 . S
H853 C843 0.930 . S
H854 C844 0.932 . S
H855 C845 0.929 . S
Tb856 C865 2.764 . S
Tb856 O866 2.325 . S
Tb856 O869 2.303 . S
Tb856 O873 2.322 . S
Tb856 O874 2.349 . S
Tb856 O877 2.415 . S
Tb856 O878 2.399 . S
Tb857 O867 2.322 . S
Tb857 O868 2.349 . S
Tb857 O870 2.415 . S
Tb857 O871 2.399 . S
Tb857 O872 2.325 . S
Tb857 O875 2.303 . S
Tb857 C886 2.764 . S
C858 O874 1.261 . S
C858 O875 1.257 . S
C859 C862 1.358 . S
C859 C863 1.332 . S
C859 C865 1.504 . S
C860 C861 1.373 . S
C860 C864 1.308 . S
C861 C860 1.373 . S
C861 C862 1.429 . S
C861 H888 0.932 . S
C862 C859 1.358 . S
C862 C861 1.429 . S
C862 H889 0.930 . S
C863 C859 1.332 . S
C863 C864 1.394 . S
C863 H890 0.932 . S
C864 C860 1.308 . S
C864 C863 1.394 . S
C864 H891 0.929 . S
C865 Tb856 2.764 . S
C865 C859 1.504 . S
C865 O877 1.239 . S
C865 O878 1.263 . S
O866 Tb856 2.325 . S
O866 C876 1.236 . S
O867 Tb857 2.322 . S
O867 C876 1.257 . S
O868 Tb857 2.349 . S
O868 C879 1.261 . S
O869 Tb856 2.303 . S
O869 C879 1.257 . S
O870 Tb857 2.415 . S
O870 C886 1.239 . S
O871 Tb857 2.399 . S
O871 C886 1.263 . S
O872 Tb857 2.325 . S
O872 C887 1.236 . S
O873 Tb856 2.322 . S
O873 C887 1.257 . S
O874 Tb856 2.349 . S
O874 C858 1.261 . S
O875 Tb857 2.303 . S
O875 C858 1.257 . S
C876 O866 1.236 . S
C876 O867 1.257 . S
O877 Tb856 2.415 . S
O877 C865 1.239 . S
O878 Tb856 2.399 . S
O878 C865 1.263 . S
C879 O868 1.261 . S
C879 O869 1.257 . S
C880 C883 1.358 . S
C880 C884 1.332 . S
C880 C886 1.504 . S
C881 C882 1.373 . S
C881 C885 1.308 . S
C882 C881 1.373 . S
C882 C883 1.429 . S
C882 H892 0.932 . S
C883 C880 1.358 . S
C883 C882 1.429 . S
C883 H893 0.930 . S
C884 C880 1.332 . S
C884 C885 1.394 . S
C884 H894 0.932 . S
C885 C881 1.308 . S
C885 C884 1.394 . S
C885 H895 0.929 . S
C886 Tb857 2.764 . S
C886 O870 1.239 . S
C886 O871 1.263 . S
C886 C880 1.504 . S
C887 O872 1.236 . S
C887 O873 1.257 . S
H888 C861 0.932 . S
H889 C862 0.930 . S
H890 C863 0.932 . S
H891 C864 0.929 . S
H892 C882 0.932 . S
H893 C883 0.930 . S
H894 C884 0.932 . S
H895 C885 0.929 . S
Tb896 C905 2.764 . S
Tb896 O906 2.325 . S
Tb896 O909 2.303 . S
Tb896 O913 2.322 . S
Tb896 O914 2.349 . S
Tb896 O917 2.415 . S
Tb896 O918 2.399 . S
Tb897 O907 2.322 . S
Tb897 O908 2.349 . S
Tb897 O910 2.415 . S
Tb897 O911 2.399 . S
Tb897 O912 2.325 . S
Tb897 O915 2.303 . S
Tb897 C926 2.764 . S
C898 O914 1.261 . S
C898 O915 1.257 . S
C899 C902 1.358 . S
C899 C903 1.332 . S
C899 C905 1.504 . S
C900 C901 1.373 . S
C900 C904 1.308 . S
C901 C900 1.373 . S
C901 C902 1.429 . S
C901 H928 0.932 . S
C902 C899 1.358 . S
C902 C901 1.429 . S
C902 H929 0.930 . S
C903 C899 1.332 . S
C903 C904 1.394 . S
C903 H930 0.932 . S
C904 C900 1.308 . S
C904 C903 1.394 . S
C904 H931 0.929 . S
C905 Tb896 2.764 . S
C905 C899 1.504 . S
C905 O917 1.239 . S
C905 O918 1.263 . S
O906 Tb896 2.325 . S
O906 C916 1.236 . S
O907 Tb897 2.322 . S
O907 C916 1.257 . S
O908 Tb897 2.349 . S
O908 C919 1.261 . S
O909 Tb896 2.303 . S
O909 C919 1.257 . S
O910 Tb897 2.415 . S
O910 C926 1.239 . S
O911 Tb897 2.399 . S
O911 C926 1.263 . S
O912 Tb897 2.325 . S
O912 C927 1.236 . S
O913 Tb896 2.322 . S
O913 C927 1.257 . S
O914 Tb896 2.349 . S
O914 C898 1.261 . S
O915 Tb897 2.303 . S
O915 C898 1.257 . S
C916 O906 1.236 . S
C916 O907 1.257 . S
O917 Tb896 2.415 . S
O917 C905 1.239 . S
O918 Tb896 2.399 . S
O918 C905 1.263 . S
C919 O908 1.261 . S
C919 O909 1.257 . S
C920 C923 1.358 . S
C920 C924 1.332 . S
C920 C926 1.504 . S
C921 C922 1.373 . S
C921 C925 1.308 . S
C922 C921 1.373 . S
C922 C923 1.429 . S
C922 H932 0.932 . S
C923 C920 1.358 . S
C923 C922 1.429 . S
C923 H933 0.930 . S
C924 C920 1.332 . S
C924 C925 1.394 . S
C924 H934 0.932 . S
C925 C921 1.308 . S
C925 C924 1.394 . S
C925 H935 0.929 . S
C926 Tb897 2.764 . S
C926 O910 1.239 . S
C926 O911 1.263 . S
C926 C920 1.504 . S
C927 O912 1.236 . S
C927 O913 1.257 . S
H928 C901 0.932 . S
H929 C902 0.930 . S
H930 C903 0.932 . S
H931 C904 0.929 . S
H932 C922 0.932 . S
H933 C923 0.930 . S
H934 C924 0.932 . S
H935 C925 0.929 . S
Tb936 C945 2.764 1_455 S
Tb936 O946 2.325 . S
Tb936 O949 2.303 . S
Tb936 O953 2.322 . S
Tb936 O954 2.349 . S
Tb936 O957 2.415 1_455 S
Tb936 O958 2.399 1_455 S
Tb937 O947 2.322 . S
Tb937 O948 2.349 1_554 S
Tb937 O950 2.415 . S
Tb937 O951 2.399 . S
Tb937 O952 2.325 . S
Tb937 O955 2.303 . S
Tb937 C966 2.764 . S
C938 O954 1.261 . S
C938 O955 1.257 . S
C939 C942 1.358 . S
C939 C943 1.332 . S
C939 C945 1.504 . S
C940 C941 1.373 . S
C940 C944 1.308 . S
C941 C940 1.373 . S
C941 C942 1.429 . S
C941 H968 0.932 . S
C942 C939 1.358 . S
C942 C941 1.429 . S
C942 H969 0.930 . S
C943 C939 1.332 . S
C943 C944 1.394 . S
C943 H970 0.932 . S
C944 C940 1.308 . S
C944 C943 1.394 . S
C944 H971 0.929 . S
C945 Tb936 2.764 1_655 S
C945 C939 1.504 . S
C945 O957 1.239 . S
C945 O958 1.263 . S
O946 Tb936 2.325 . S
O946 C956 1.236 . S
O947 Tb937 2.322 . S
O947 C956 1.257 . S
O948 Tb937 2.349 1_556 S
O948 C959 1.261 . S
O949 Tb936 2.303 . S
O949 C959 1.257 1_554 S
O950 Tb937 2.415 . S
O950 C966 1.239 . S
O951 Tb937 2.399 . S
O951 C966 1.263 . S
O952 Tb937 2.325 . S
O952 C967 1.236 . S
O953 Tb936 2.322 . S
O953 C967 1.257 . S
O954 Tb936 2.349 . S
O954 C938 1.261 . S
O955 Tb937 2.303 . S
O955 C938 1.257 . S
C956 O946 1.236 . S
C956 O947 1.257 . S
O957 Tb936 2.415 1_655 S
O957 C945 1.239 . S
O958 Tb936 2.399 1_655 S
O958 C945 1.263 . S
C959 O948 1.261 . S
C959 O949 1.257 1_556 S
C960 C963 1.358 1_554 S
C960 C964 1.332 . S
C960 C966 1.504 . S
C961 C962 1.373 1_554 S
C961 C965 1.308 . S
C962 C961 1.373 1_556 S
C962 C963 1.429 . S
C962 H972 0.932 . S
C963 C960 1.358 1_556 S
C963 C962 1.429 . S
C963 H973 0.930 . S
C964 C960 1.332 . S
C964 C965 1.394 . S
C964 H974 0.932 . S
C965 C961 1.308 . S
C965 C964 1.394 . S
C965 H975 0.929 . S
C966 Tb937 2.764 . S
C966 O950 1.239 . S
C966 O951 1.263 . S
C966 C960 1.504 . S
C967 O952 1.236 . S
C967 O953 1.257 . S
H968 C941 0.932 . S
H969 C942 0.930 . S
H970 C943 0.932 . S
H971 C944 0.929 . S
H972 C962 0.932 . S
H973 C963 0.930 . S
H974 C964 0.932 . S
H975 C965 0.929 . S
C976 C977 1.389 1_656 S
C976 H980 0.950 . S
C976 C985 1.390 1_656 S
C977 C976 1.389 1_454 S
C977 C979 1.395 . S
H978 C985 0.950 1_655 S
C979 C977 1.395 . S
C979 C981 1.390 . S
C979 H983 0.950 . S
H980 C976 0.950 . S
C981 C979 1.390 . S
C981 C982 1.387 . S
C981 H984 0.950 . S
C982 C981 1.387 . S
C982 C985 1.387 . S
H983 C979 0.950 . S
H984 C981 0.950 . S
C985 C976 1.390 1_454 S
C985 H978 0.950 1_455 S
C985 C982 1.387 . S
C986 C987 1.387 . S
C986 H990 0.950 . S
C986 C995 1.390 . S
C987 C986 1.387 . S
C987 C989 1.387 . S
H988 C995 0.950 . S
C989 C987 1.387 . S
C989 C991 1.390 . S
C989 H993 0.950 . S
H990 C986 0.950 . S
C991 C989 1.390 . S
C991 C992 1.387 . S
C991 H994 0.950 . S
C992 C991 1.387 . S
C992 C995 1.387 . S
H993 C989 0.950 . S
H994 C991 0.950 . S
C995 C986 1.390 . S
C995 H988 0.950 . S
C995 C992 1.387 . S
C996 C997 1.387 . S
C996 H1000 0.950 . S
C996 C1005 1.390 . S
C997 C996 1.387 . S
C997 C999 1.387 . S
H998 C1005 0.950 . S
C999 C997 1.387 . S
C999 C1001 1.390 . S
C999 H1003 0.950 . S
H1000 C996 0.950 . S
C1001 C999 1.390 . S
C1001 C1002 1.387 . S
C1001 H1004 0.950 . S
C1002 C1001 1.387 . S
C1002 C1005 1.387 . S
H1003 C999 0.950 . S
H1004 C1001 0.950 . S
C1005 C996 1.390 . S
C1005 H998 0.950 . S
C1005 C1002 1.387 . S
C1006 C1007 1.387 . S
C1006 H1010 0.950 . S
C1006 C1015 1.390 . S
C1007 C1006 1.387 . S
C1007 C1009 1.387 . S
H1008 C1015 0.950 . S
C1009 C1007 1.387 . S
C1009 C1011 1.390 . S
C1009 H1013 0.950 . S
H1010 C1006 0.950 . S
C1011 C1009 1.390 . S
C1011 C1012 1.387 . S
C1011 H1014 0.950 . S
C1012 C1011 1.387 . S
C1012 C1015 1.387 . S
H1013 C1009 0.950 . S
H1014 C1011 0.950 . S
C1015 C1006 1.390 . S
C1015 H1008 0.950 . S
C1015 C1012 1.387 . S
C1016 C1017 1.387 . S
C1016 H1020 0.950 . S
C1016 C1025 1.390 . S
C1017 C1016 1.387 . S
C1017 C1019 1.387 . S
H1018 C1025 0.950 . S
C1019 C1017 1.387 . S
C1019 C1021 1.390 . S
C1019 H1023 0.950 . S
H1020 C1016 0.950 . S
C1021 C1019 1.390 . S
C1021 C1022 1.387 . S
C1021 H1024 0.950 . S
C1022 C1021 1.387 . S
C1022 C1025 1.387 . S
H1023 C1019 0.950 . S
H1024 C1021 0.950 . S
C1025 C1016 1.390 . S
C1025 H1018 0.950 . S
C1025 C1022 1.387 . S
C1026 C1027 1.387 . S
C1026 H1030 0.950 . S
C1026 C1035 1.390 . S
C1027 C1026 1.387 . S
C1027 C1029 1.387 . S
H1028 C1035 0.950 . S
C1029 C1027 1.387 . S
C1029 C1031 1.390 . S
C1029 H1033 0.950 . S
H1030 C1026 0.950 . S
C1031 C1029 1.390 . S
C1031 C1032 1.387 . S
C1031 H1034 0.950 . S
C1032 C1031 1.387 . S
C1032 C1035 1.387 . S
H1033 C1029 0.950 . S
H1034 C1031 0.950 . S
C1035 C1026 1.390 . S
C1035 H1028 0.950 . S
C1035 C1032 1.387 . S
C1036 C1037 1.387 . S
C1036 H1040 0.950 . S
C1036 C1045 1.390 . S
C1037 C1036 1.387 . S
C1037 C1039 1.387 . S
H1038 C1045 0.950 . S
C1039 C1037 1.387 . S
C1039 C1041 1.390 . S
C1039 H1043 0.950 . S
H1040 C1036 0.950 . S
C1041 C1039 1.390 . S
C1041 C1042 1.387 . S
C1041 H1044 0.950 . S
C1042 C1041 1.387 . S
C1042 C1045 1.387 . S
H1043 C1039 0.950 . S
H1044 C1041 0.950 . S
C1045 C1036 1.390 . S
C1045 H1038 0.950 . S
C1045 C1042 1.387 . S
C1046 C1047 1.387 . S
C1046 H1050 0.950 . S
C1046 C1055 1.390 . S
C1047 C1046 1.387 . S
C1047 C1049 1.387 . S
H1048 C1055 0.950 . S
C1049 C1047 1.387 . S
C1049 C1051 1.390 . S
C1049 H1053 0.950 . S
H1050 C1046 0.950 . S
C1051 C1049 1.390 . S
C1051 C1052 1.387 . S
C1051 H1054 0.950 . S
C1052 C1051 1.387 . S
C1052 C1055 1.387 . S
H1053 C1049 0.950 . S
H1054 C1051 0.950 . S
C1055 C1046 1.390 . S
C1055 H1048 0.950 . S
C1055 C1052 1.387 . S
C1056 C1057 1.387 . S
C1056 H1060 0.950 . S
C1056 C1065 1.390 . S
C1057 C1056 1.387 . S
C1057 C1059 1.386 . S
H1058 C1065 0.950 . S
C1059 C1057 1.386 . S
C1059 C1061 1.391 1_655 S
C1059 H1063 0.941 1_645 S
H1060 C1056 0.950 . S
C1061 C1059 1.391 1_455 S
C1061 C1062 1.387 . S
C1061 H1064 0.950 . S
C1062 C1061 1.387 . S
C1062 C1065 1.387 1_455 S
H1063 C1059 0.941 1_465 S
H1064 C1061 0.950 . S
C1065 C1056 1.390 . S
C1065 H1058 0.950 . S
C1065 C1062 1.387 1_655 S
C1066 C1067 1.387 . S
C1066 H1070 0.950 . S
C1066 C1075 1.390 . S
C1067 C1066 1.387 . S
C1067 C1069 1.387 . S
H1068 C1075 0.950 . S
C1069 C1067 1.387 . S
C1069 C1071 1.390 . S
C1069 H1073 0.950 . S
H1070 C1066 0.950 . S
C1071 C1069 1.390 . S
C1071 C1072 1.387 . S
C1071 H1074 0.950 . S
C1072 C1071 1.387 . S
C1072 C1075 1.387 . S
H1073 C1069 0.950 . S
H1074 C1071 0.950 . S
C1075 C1066 1.390 . S
C1075 H1068 0.950 . S
C1075 C1072 1.387 . S
C1076 C1077 1.387 . S
C1076 H1080 0.950 . S
C1076 C1085 1.390 . S
C1077 C1076 1.387 . S
C1077 C1079 1.387 . S
H1078 C1085 0.950 . S
C1079 C1077 1.387 . S
C1079 C1081 1.390 . S
C1079 H1083 0.950 . S
H1080 C1076 0.950 . S
C1081 C1079 1.390 . S
C1081 C1082 1.387 . S
C1081 H1084 0.950 1_545 S
C1082 C1081 1.387 . S
C1082 C1085 1.387 . S
H1083 C1079 0.950 . S
H1084 C1081 0.950 1_565 S
C1085 C1076 1.390 . S
C1085 H1078 0.950 . S
C1085 C1082 1.387 . S
C1086 C1087 1.387 . S
C1086 H1090 0.950 . S
C1086 C1095 1.390 . S
C1087 C1086 1.387 . S
C1087 C1089 1.387 . S
H1088 C1095 0.950 . S
C1089 C1087 1.387 . S
C1089 C1091 1.390 . S
C1089 H1093 0.950 . S
H1090 C1086 0.950 . S
C1091 C1089 1.390 . S
C1091 C1092 1.387 . S
C1091 H1094 0.950 . S
C1092 C1091 1.387 . S
C1092 C1095 1.387 . S
H1093 C1089 0.950 . S
H1094 C1091 0.950 . S
C1095 C1086 1.390 . S
C1095 H1088 0.950 . S
C1095 C1092 1.387 . S
C1096 C1097 1.387 . S
C1096 H1100 0.950 . S
C1096 C1105 1.390 . S
C1097 C1096 1.387 . S
C1097 C1099 1.387 1_545 S
H1098 C1105 0.950 1_455 S
C1099 C1097 1.387 1_565 S
C1099 C1101 1.390 . S
C1099 H1103 0.950 . S
H1100 C1096 0.950 . S
C1101 C1099 1.390 . S
C1101 C1102 1.387 1_565 S
C1101 H1104 0.950 . S
C1102 C1101 1.387 1_545 S
C1102 C1105 1.387 . S
H1103 C1099 0.950 . S
H1104 C1101 0.950 . S
C1105 C1096 1.390 . S
C1105 H1098 0.950 1_655 S
C1105 C1102 1.387 . S
C1106 C1107 1.387 . S
C1106 H1110 0.950 . S
C1106 C1115 1.390 . S
C1107 C1106 1.387 . S
C1107 C1109 1.387 . S
H1108 C1115 0.950 . S
C1109 C1107 1.387 . S
C1109 C1111 1.390 . S
C1109 H1113 0.950 . S
H1110 C1106 0.950 . S
C1111 C1109 1.390 . S
C1111 C1112 1.387 . S
C1111 H1114 0.950 . S
C1112 C1111 1.387 . S
C1112 C1115 1.387 . S
H1113 C1109 0.950 . S
H1114 C1111 0.950 . S
C1115 C1106 1.390 . S
C1115 H1108 0.950 . S
C1115 C1112 1.387 . S
C1116 C1117 1.387 . S
C1116 H1120 0.950 . S
C1116 C1125 1.390 . S
C1117 C1116 1.387 . S
C1117 C1119 1.387 . S
H1118 C1125 0.950 . S
C1119 C1117 1.387 . S
C1119 C1121 1.390 . S
C1119 H1123 0.950 . S
H1120 C1116 0.950 . S
C1121 C1119 1.390 . S
C1121 C1122 1.387 . S
C1121 H1124 0.950 . S
C1122 C1121 1.387 . S
C1122 C1125 1.387 . S
H1123 C1119 0.950 . S
H1124 C1121 0.950 . S
C1125 C1116 1.390 . S
C1125 H1118 0.950 . S
C1125 C1122 1.387 . S
C1126 C1127 1.387 . S
C1126 H1130 0.950 . S
C1126 C1135 1.390 . S
C1127 C1126 1.387 . S
C1127 C1129 1.387 . S
H1128 C1135 0.950 . S
C1129 C1127 1.387 . S
C1129 C1131 1.390 . S
C1129 H1133 0.950 . S
H1130 C1126 0.950 . S
C1131 C1129 1.390 . S
C1131 C1132 1.387 . S
C1131 H1134 0.950 . S
C1132 C1131 1.387 . S
C1132 C1135 1.387 . S
H1133 C1129 0.950 . S
H1134 C1131 0.950 . S
C1135 C1126 1.390 . S
C1135 H1128 0.950 . S
C1135 C1132 1.387 . S
C1136 C1137 1.387 . S
C1136 H1140 0.950 1_545 S
C1136 C1145 1.390 . S
C1137 C1136 1.387 . S
C1137 C1139 1.387 . S
H1138 C1145 0.950 . S
C1139 C1137 1.387 . S
C1139 C1141 1.390 . S
C1139 H1143 0.950 . S
H1140 C1136 0.950 1_565 S
C1141 C1139 1.390 . S
C1141 C1142 1.387 . S
C1141 H1144 0.950 . S
C1142 C1141 1.387 . S
C1142 C1145 1.387 . S
H1143 C1139 0.950 . S
H1144 C1141 0.950 . S
C1145 C1136 1.390 . S
C1145 H1138 0.950 . S
C1145 C1142 1.387 . S
C1146 C1147 1.387 . S
C1146 H1150 0.950 1_554 S
C1146 C1155 1.390 . S
C1147 C1146 1.387 . S
C1147 C1149 1.387 . S
H1148 C1155 0.950 1_556 S
C1149 C1147 1.387 . S
C1149 C1151 1.390 . S
C1149 H1153 0.950 . S
H1150 C1146 0.950 1_556 S
C1151 C1149 1.390 . S
C1151 C1152 1.387 . S
C1151 H1154 0.950 . S
C1152 C1151 1.387 . S
C1152 C1155 1.387 . S
H1153 C1149 0.950 . S
H1154 C1151 0.950 . S
C1155 C1146 1.390 . S
C1155 H1148 0.950 1_554 S
C1155 C1152 1.387 . S
C1156 C1157 1.387 . S
C1156 H1160 0.950 . S
C1156 C1165 1.390 . S
C1157 C1156 1.387 . S
C1157 C1159 1.387 . S
H1158 C1165 0.950 . S
C1159 C1157 1.387 . S
C1159 C1161 1.390 . S
C1159 H1163 0.950 . S
H1160 C1156 0.950 . S
C1161 C1159 1.390 . S
C1161 C1162 1.387 . S
C1161 H1164 0.950 . S
C1162 C1161 1.387 . S
C1162 C1165 1.387 . S
H1163 C1159 0.950 . S
H1164 C1161 0.950 . S
C1165 C1156 1.390 . S
C1165 H1158 0.950 . S
C1165 C1162 1.387 . S
C1166 C1167 1.387 . S
C1166 H1170 0.950 . S
C1166 C1175 1.390 . S
C1167 C1166 1.387 . S
C1167 C1169 1.387 . S
H1168 C1175 0.950 . S
C1169 C1167 1.387 . S
C1169 C1171 1.390 . S
C1169 H1173 0.950 . S
H1170 C1166 0.950 . S
C1171 C1169 1.390 . S
C1171 C1172 1.387 . S
C1171 H1174 0.950 . S
C1172 C1171 1.387 . S
C1172 C1175 1.387 . S
H1173 C1169 0.950 . S
H1174 C1171 0.950 . S
C1175 C1166 1.390 . S
C1175 H1168 0.950 . S
C1175 C1172 1.387 . S
C1176 C1177 1.387 . S
C1176 H1180 0.950 . S
C1176 C1185 1.390 . S
C1177 C1176 1.387 . S
C1177 C1179 1.387 . S
H1178 C1185 0.950 . S
C1179 C1177 1.387 . S
C1179 C1181 1.390 . S
C1179 H1183 0.950 . S
H1180 C1176 0.950 . S
C1181 C1179 1.390 . S
C1181 C1182 1.387 . S
C1181 H1184 0.950 . S
C1182 C1181 1.387 . S
C1182 C1185 1.387 . S
H1183 C1179 0.950 . S
H1184 C1181 0.950 . S
C1185 C1176 1.390 . S
C1185 H1178 0.950 . S
C1185 C1182 1.387 . S
C1186 C1187 1.387 . S
C1186 H1190 0.950 . S
C1186 C1195 1.390 . S
C1187 C1186 1.387 . S
C1187 C1189 1.387 . S
H1188 C1195 0.950 . S
C1189 C1187 1.387 . S
C1189 C1191 1.390 . S
C1189 H1193 0.950 . S
H1190 C1186 0.950 . S
C1191 C1189 1.390 . S
C1191 C1192 1.387 . S
C1191 H1194 0.950 . S
C1192 C1191 1.387 . S
C1192 C1195 1.387 . S
H1193 C1189 0.950 . S
H1194 C1191 0.950 . S
C1195 C1186 1.390 . S
C1195 H1188 0.950 . S
C1195 C1192 1.387 . S
C1196 C1197 1.387 . S
C1196 H1200 0.950 . S
C1196 C1205 1.390 . S
C1197 C1196 1.387 . S
C1197 C1199 1.387 . S
H1198 C1205 0.950 . S
C1199 C1197 1.387 . S
C1199 C1201 1.390 . S
C1199 H1203 0.950 . S
H1200 C1196 0.950 . S
C1201 C1199 1.390 . S
C1201 C1202 1.387 . S
C1201 H1204 0.950 . S
C1202 C1201 1.387 . S
C1202 C1205 1.387 . S
H1203 C1199 0.950 . S
H1204 C1201 0.950 . S
C1205 C1196 1.390 . S
C1205 H1198 0.950 . S
C1205 C1202 1.387 . S
C1206 C1207 1.387 . S
C1206 H1210 0.950 . S
C1206 C1215 1.390 . S
C1207 C1206 1.387 . S
C1207 C1209 1.387 . S
H1208 C1215 0.950 . S
C1209 C1207 1.387 . S
C1209 C1211 1.390 . S
C1209 H1213 0.950 . S
H1210 C1206 0.950 . S
C1211 C1209 1.390 . S
C1211 C1212 1.387 . S
C1211 H1214 0.950 . S
C1212 C1211 1.387 . S
C1212 C1215 1.387 . S
H1213 C1209 0.950 . S
H1214 C1211 0.950 . S
C1215 C1206 1.390 . S
C1215 H1208 0.950 . S
C1215 C1212 1.387 . S
C1216 C1217 1.387 . S
C1216 H1220 0.950 . S
C1216 C1225 1.390 . S
C1217 C1216 1.387 . S
C1217 C1219 1.387 . S
H1218 C1225 0.950 . S
C1219 C1217 1.387 . S
C1219 C1221 1.390 . S
C1219 H1223 0.950 . S
H1220 C1216 0.950 . S
C1221 C1219 1.390 . S
C1221 C1222 1.387 . S
C1221 H1224 0.950 . S
C1222 C1221 1.387 . S
C1222 C1225 1.387 . S
H1223 C1219 0.950 . S
H1224 C1221 0.950 . S
C1225 C1216 1.390 . S
C1225 H1218 0.950 . S
C1225 C1222 1.387 . S
C1226 C1227 1.387 . S
C1226 H1230 0.950 . S
C1226 C1235 1.390 . S
C1227 C1226 1.387 . S
C1227 C1229 1.387 . S
H1228 C1235 0.950 . S
C1229 C1227 1.387 . S
C1229 C1231 1.390 . S
C1229 H1233 0.950 . S
H1230 C1226 0.950 . S
C1231 C1229 1.390 . S
C1231 C1232 1.387 . S
C1231 H1234 0.950 . S
C1232 C1231 1.387 . S
C1232 C1235 1.387 . S
H1233 C1229 0.950 . S
H1234 C1231 0.950 . S
C1235 C1226 1.390 . S
C1235 H1228 0.950 . S
C1235 C1232 1.387 . S
C1236 C1237 1.387 . S
C1236 H1240 0.950 . S
C1236 C1245 1.390 . S
C1237 C1236 1.387 . S
C1237 C1239 1.387 . S
H1238 C1245 0.950 . S
C1239 C1237 1.387 . S
C1239 C1241 1.390 . S
C1239 H1243 0.950 . S
H1240 C1236 0.950 . S
C1241 C1239 1.390 . S
C1241 C1242 1.387 . S
C1241 H1244 0.950 . S
C1242 C1241 1.387 . S
C1242 C1245 1.387 . S
H1243 C1239 0.950 . S
H1244 C1241 0.950 . S
C1245 C1236 1.390 . S
C1245 H1238 0.950 . S
C1245 C1242 1.387 . S
C1246 C1247 1.387 . S
C1246 H1250 0.950 . S
C1246 C1255 1.390 . S
C1247 C1246 1.387 . S
C1247 C1249 1.387 . S
H1248 C1255 0.950 . S
C1249 C1247 1.387 . S
C1249 C1251 1.390 . S
C1249 H1253 0.950 . S
H1250 C1246 0.950 . S
C1251 C1249 1.390 . S
C1251 C1252 1.387 . S
C1251 H1254 0.950 . S
C1252 C1251 1.387 . S
C1252 C1255 1.387 . S
H1253 C1249 0.950 . S
H1254 C1251 0.950 . S
C1255 C1246 1.390 . S
C1255 H1248 0.950 . S
C1255 C1252 1.387 . S
C1256 C1257 1.387 . S
C1256 H1260 0.950 . S
C1256 C1265 1.390 . S
C1257 C1256 1.387 . S
C1257 C1259 1.387 . S
H1258 C1265 0.950 . S
C1259 C1257 1.387 . S
C1259 C1261 1.390 . S
C1259 H1263 0.950 1_455 S
H1260 C1256 0.950 . S
C1261 C1259 1.390 . S
C1261 C1262 1.387 . S
C1261 H1264 0.950 1_455 S
C1262 C1261 1.387 . S
C1262 C1265 1.387 . S
H1263 C1259 0.950 1_655 S
H1264 C1261 0.950 1_655 S
C1265 C1256 1.390 . S
C1265 H1258 0.950 . S
C1265 C1262 1.387 . S
C1266 C1267 1.387 . S
C1266 H1270 0.950 . S
C1266 C1275 1.390 . S
C1267 C1266 1.387 . S
C1267 C1269 1.387 . S
H1268 C1275 0.950 . S
C1269 C1267 1.387 . S
C1269 C1271 1.390 . S
C1269 H1273 0.950 . S
H1270 C1266 0.950 . S
C1271 C1269 1.390 . S
C1271 C1272 1.387 . S
C1271 H1274 0.950 . S
C1272 C1271 1.387 . S
C1272 C1275 1.387 . S
H1273 C1269 0.950 . S
H1274 C1271 0.950 . S
C1275 C1266 1.390 . S
C1275 H1268 0.950 . S
C1275 C1272 1.387 . S
C1276 C1277 1.387 . S
C1276 H1280 0.950 . S
C1276 C1285 1.390 . S
C1277 C1276 1.387 . S
C1277 C1279 1.387 . S
H1278 C1285 0.950 . S
C1279 C1277 1.387 . S
C1279 C1281 1.374 1_556 S
C1279 H1283 0.950 . S
H1280 C1276 0.950 . S
C1281 C1279 1.374 1_554 S
C1281 C1282 1.370 1_554 S
C1281 H1284 0.985 . S
C1282 C1281 1.370 1_556 S
C1282 C1285 1.387 . S
H1283 C1279 0.950 . S
H1284 C1281 0.985 . S
C1285 C1276 1.390 . S
C1285 H1278 0.950 . S
C1285 C1282 1.387 . S
C1286 C1287 1.387 . S
C1286 H1290 0.950 . S
C1286 C1295 1.390 . S
C1287 C1286 1.387 . S
C1287 C1289 1.387 . S
H1288 C1295 0.950 . S
C1289 C1287 1.387 . S
C1289 C1291 1.390 . S
C1289 H1293 0.950 . S
H1290 C1286 0.950 . S
C1291 C1289 1.390 . S
C1291 C1292 1.387 . S
C1291 H1294 0.950 . S
C1292 C1291 1.387 . S
C1292 C1295 1.387 . S
H1293 C1289 0.950 . S
H1294 C1291 0.950 . S
C1295 C1286 1.390 . S
C1295 H1288 0.950 . S
C1295 C1292 1.387 . S
C1296 C1297 1.387 . S
C1296 H1300 0.950 . S
C1296 C1305 1.390 . S
C1297 C1296 1.387 . S
C1297 C1299 1.387 . S
H1298 C1305 0.950 . S
C1299 C1297 1.387 . S
C1299 C1301 1.390 . S
C1299 H1303 0.950 . S
H1300 C1296 0.950 . S
C1301 C1299 1.390 . S
C1301 C1302 1.387 . S
C1301 H1304 0.950 . S
C1302 C1301 1.387 . S
C1302 C1305 1.387 . S
H1303 C1299 0.950 . S
H1304 C1301 0.950 . S
C1305 C1296 1.390 . S
C1305 H1298 0.950 . S
C1305 C1302 1.387 . S
C1306 C1307 1.387 . S
C1306 H1310 0.950 . S
C1306 C1315 1.390 . S
C1307 C1306 1.387 . S
C1307 C1309 1.387 . S
H1308 C1315 0.950 . S
C1309 C1307 1.387 . S
C1309 C1311 1.390 . S
C1309 H1313 0.950 . S
H1310 C1306 0.950 . S
C1311 C1309 1.390 . S
C1311 C1312 1.387 . S
C1311 H1314 0.950 . S
C1312 C1311 1.387 . S
C1312 C1315 1.387 . S
H1313 C1309 0.950 . S
H1314 C1311 0.950 . S
C1315 C1306 1.390 . S
C1315 H1308 0.950 . S
C1315 C1312 1.387 . S
C1316 C1317 1.387 . S
C1316 H1320 0.950 . S
C1316 C1325 1.390 . S
C1317 C1316 1.387 . S
C1317 C1319 1.387 . S
H1318 C1325 0.950 . S
C1319 C1317 1.387 . S
C1319 C1321 1.390 . S
C1319 H1323 0.950 1_545 S
H1320 C1316 0.950 . S
C1321 C1319 1.390 . S
C1321 C1322 1.387 . S
C1321 H1324 0.950 . S
C1322 C1321 1.387 . S
C1322 C1325 1.387 . S
H1323 C1319 0.950 1_565 S
H1324 C1321 0.950 . S
C1325 C1316 1.390 . S
C1325 H1318 0.950 . S
C1325 C1322 1.387 . S
C1326 C1327 1.387 . S
C1326 H1330 0.950 . S
C1326 C1335 1.390 . S
C1327 C1326 1.387 . S
C1327 C1329 1.387 . S
H1328 C1335 0.950 . S
C1329 C1327 1.387 . S
C1329 C1331 1.390 . S
C1329 H1333 0.950 . S
H1330 C1326 0.950 . S
C1331 C1329 1.390 . S
C1331 C1332 1.387 . S
C1331 H1334 0.950 . S
C1332 C1331 1.387 . S
C1332 C1335 1.387 . S
H1333 C1329 0.950 . S
H1334 C1331 0.950 . S
C1335 C1326 1.390 . S
C1335 H1328 0.950 . S
C1335 C1332 1.387 . S
C1336 C1337 1.387 . S
C1336 H1340 0.950 . S
C1336 C1345 1.390 . S
C1337 C1336 1.387 . S
C1337 C1339 1.387 . S
H1338 C1345 0.950 . S
C1339 C1337 1.387 . S
C1339 C1341 1.390 . S
C1339 H1343 0.950 . S
H1340 C1336 0.950 . S
C1341 C1339 1.390 . S
C1341 C1342 1.387 . S
C1341 H1344 0.950 . S
C1342 C1341 1.387 . S
C1342 C1345 1.387 . S
H1343 C1339 0.950 . S
H1344 C1341 0.950 . S
C1345 C1336 1.390 . S
C1345 H1338 0.950 . S
C1345 C1342 1.387 . S
C1346 C1347 1.387 . S
C1346 H1350 0.950 . S
C1346 C1355 1.390 . S
C1347 C1346 1.387 . S
C1347 C1349 1.387 . S
H1348 C1355 0.950 . S
C1349 C1347 1.387 . S
C1349 C1351 1.390 . S
C1349 H1353 0.950 . S
H1350 C1346 0.950 . S
C1351 C1349 1.390 . S
C1351 C1352 1.387 . S
C1351 H1354 0.950 . S
C1352 C1351 1.387 . S
C1352 C1355 1.387 . S
H1353 C1349 0.950 . S
H1354 C1351 0.950 . S
C1355 C1346 1.390 . S
C1355 H1348 0.950 . S
C1355 C1352 1.387 . S
C1356 C1357 1.387 . S
C1356 H1360 0.950 . S
C1356 C1365 1.390 . S
C1357 C1356 1.387 . S
C1357 C1359 1.387 . S
H1358 C1365 0.950 . S
C1359 C1357 1.387 . S
C1359 C1361 1.390 . S
C1359 H1363 0.950 1_545 S
H1360 C1356 0.950 . S
C1361 C1359 1.390 . S
C1361 C1362 1.387 . S
C1361 H1364 0.950 1_545 S
C1362 C1361 1.387 . S
C1362 C1365 1.387 . S
H1363 C1359 0.950 1_565 S
H1364 C1361 0.950 1_565 S
C1365 C1356 1.390 . S
C1365 H1358 0.950 . S
C1365 C1362 1.387 . S
C1366 C1367 1.387 . S
C1366 H1370 0.950 . S
C1366 C1375 1.390 . S
C1367 C1366 1.387 . S
C1367 C1369 1.387 . S
H1368 C1375 0.950 . S
C1369 C1367 1.387 . S
C1369 C1371 1.390 . S
C1369 H1373 0.950 . S
H1370 C1366 0.950 . S
C1371 C1369 1.390 . S
C1371 C1372 1.387 . S
C1371 H1374 0.950 . S
C1372 C1371 1.387 . S
C1372 C1375 1.387 . S
H1373 C1369 0.950 . S
H1374 C1371 0.950 . S
C1375 C1366 1.390 . S
C1375 H1368 0.950 . S
C1375 C1372 1.387 . S
C1376 C1377 1.387 . S
C1376 H1380 0.950 . S
C1376 C1385 1.390 . S
C1377 C1376 1.387 . S
C1377 C1379 1.387 . S
H1378 C1385 0.950 . S
C1379 C1377 1.387 . S
C1379 C1381 1.390 . S
C1379 H1383 0.950 . S
H1380 C1376 0.950 . S
C1381 C1379 1.390 . S
C1381 C1382 1.387 . S
C1381 H1384 0.950 1_554 S
C1382 C1381 1.387 . S
C1382 C1385 1.387 . S
H1383 C1379 0.950 . S
H1384 C1381 0.950 1_556 S
C1385 C1376 1.390 . S
C1385 H1378 0.950 . S
C1385 C1382 1.387 . S
C1386 C1387 1.387 . S
C1386 H1390 0.950 . S
C1386 C1395 1.390 . S
C1387 C1386 1.387 . S
C1387 C1389 1.387 . S
H1388 C1395 0.950 . S
C1389 C1387 1.387 . S
C1389 C1391 1.390 . S
C1389 H1393 0.950 . S
H1390 C1386 0.950 . S
C1391 C1389 1.390 . S
C1391 C1392 1.387 . S
C1391 H1394 0.950 . S
C1392 C1391 1.387 . S
C1392 C1395 1.387 . S
H1393 C1389 0.950 . S
H1394 C1391 0.950 . S
C1395 C1386 1.390 . S
C1395 H1388 0.950 . S
C1395 C1392 1.387 . S
C1396 C1397 1.387 . S
C1396 H1400 0.950 . S
C1396 C1405 1.390 . S
C1397 C1396 1.387 . S
C1397 C1399 1.387 . S
H1398 C1405 0.950 . S
C1399 C1397 1.387 . S
C1399 C1401 1.390 . S
C1399 H1403 0.950 . S
H1400 C1396 0.950 . S
C1401 C1399 1.390 . S
C1401 C1402 1.387 . S
C1401 H1404 0.950 . S
C1402 C1401 1.387 . S
C1402 C1405 1.387 . S
H1403 C1399 0.950 . S
H1404 C1401 0.950 . S
C1405 C1396 1.390 . S
C1405 H1398 0.950 . S
C1405 C1402 1.387 . S
C1406 C1407 1.387 . S
C1406 H1410 0.950 . S
C1406 C1415 1.390 . S
C1407 C1406 1.387 . S
C1407 C1409 1.387 . S
H1408 C1415 0.950 . S
C1409 C1407 1.387 . S
C1409 C1411 1.390 . S
C1409 H1413 0.950 . S
H1410 C1406 0.950 . S
C1411 C1409 1.390 . S
C1411 C1412 1.387 . S
C1411 H1414 0.950 . S
C1412 C1411 1.387 . S
C1412 C1415 1.387 . S
H1413 C1409 0.950 . S
H1414 C1411 0.950 . S
C1415 C1406 1.390 . S
C1415 H1408 0.950 . S
C1415 C1412 1.387 . S
C1416 C1417 1.387 . S
C1416 H1420 0.950 . S
C1416 C1425 1.390 . S
C1417 C1416 1.387 . S
C1417 C1419 1.387 1_545 S
H1418 C1425 0.950 . S
C1419 C1417 1.387 1_565 S
C1419 C1421 1.390 . S
C1419 H1423 0.950 . S
H1420 C1416 0.950 . S
C1421 C1419 1.390 . S
C1421 C1422 1.387 . S
C1421 H1424 0.950 . S
C1422 C1421 1.387 . S
C1422 C1425 1.387 1_565 S
H1423 C1419 0.950 . S
H1424 C1421 0.950 . S
C1425 C1416 1.390 . S
C1425 H1418 0.950 . S
C1425 C1422 1.387 1_545 S
C1426 C1427 1.387 . S
C1426 H1430 0.950 . S
C1426 C1435 1.390 . S
C1427 C1426 1.387 . S
C1427 C1429 1.387 . S
H1428 C1435 0.950 . S
C1429 C1427 1.387 . S
C1429 C1431 1.390 . S
C1429 H1433 0.950 . S
H1430 C1426 0.950 . S
C1431 C1429 1.390 . S
C1431 C1432 1.387 . S
C1431 H1434 0.950 . S
C1432 C1431 1.387 . S
C1432 C1435 1.387 . S
H1433 C1429 0.950 . S
H1434 C1431 0.950 . S
C1435 C1426 1.390 . S
C1435 H1428 0.950 . S
C1435 C1432 1.387 . S
C1436 C1437 1.387 . S
C1436 H1440 0.950 . S
C1436 C1445 1.390 . S
C1437 C1436 1.387 . S
C1437 C1439 1.387 . S
H1438 C1445 0.950 . S
C1439 C1437 1.387 . S
C1439 C1441 1.390 . S
C1439 H1443 0.950 . S
H1440 C1436 0.950 . S
C1441 C1439 1.390 . S
C1441 C1442 1.387 . S
C1441 H1444 0.950 . S
C1442 C1441 1.387 . S
C1442 C1445 1.387 . S
H1443 C1439 0.950 . S
H1444 C1441 0.950 . S
C1445 C1436 1.390 . S
C1445 H1438 0.950 . S
C1445 C1442 1.387 . S
C1446 C1447 1.387 . S
C1446 H1450 0.950 . S
C1446 C1455 1.390 . S
C1447 C1446 1.387 . S
C1447 C1449 1.387 . S
H1448 C1455 0.950 . S
C1449 C1447 1.387 . S
C1449 C1451 1.390 . S
C1449 H1453 0.950 . S
H1450 C1446 0.950 . S
C1451 C1449 1.390 . S
C1451 C1452 1.387 . S
C1451 H1454 0.950 . S
C1452 C1451 1.387 . S
C1452 C1455 1.387 . S
H1453 C1449 0.950 . S
H1454 C1451 0.950 . S
C1455 C1446 1.390 . S
C1455 H1448 0.950 . S
C1455 C1452 1.387 . S
C1456 C1457 1.387 . S
C1456 H1460 0.950 . S
C1456 C1465 1.390 . S
C1457 C1456 1.387 . S
C1457 C1459 1.387 . S
H1458 C1465 0.950 . S
C1459 C1457 1.387 . S
C1459 C1461 1.390 . S
C1459 H1463 0.950 . S
H1460 C1456 0.950 . S
C1461 C1459 1.390 . S
C1461 C1462 1.387 . S
C1461 H1464 0.950 . S
C1462 C1461 1.387 . S
C1462 C1465 1.387 . S
H1463 C1459 0.950 . S
H1464 C1461 0.950 . S
C1465 C1456 1.390 . S
C1465 H1458 0.950 . S
C1465 C1462 1.387 . S
C1466 C1467 1.387 . S
C1466 H1470 0.950 . S
C1466 C1475 1.390 . S
C1467 C1466 1.387 . S
C1467 C1469 1.387 . S
H1468 C1475 0.950 . S
C1469 C1467 1.387 . S
C1469 C1471 1.390 . S
C1469 H1473 0.950 . S
H1470 C1466 0.950 . S
C1471 C1469 1.390 . S
C1471 C1472 1.387 . S
C1471 H1474 0.950 . S
C1472 C1471 1.387 . S
C1472 C1475 1.387 . S
H1473 C1469 0.950 . S
H1474 C1471 0.950 . S
C1475 C1466 1.390 . S
C1475 H1468 0.950 . S
C1475 C1472 1.387 . S
C1476 C1477 1.387 1_654 S
C1476 H1480 0.950 1_554 S
C1476 C1485 1.390 . S
C1477 C1476 1.387 1_456 S
C1477 C1479 1.387 1_556 S
H1478 C1485 0.950 . S
C1479 C1477 1.387 1_554 S
C1479 C1481 1.390 . S
C1479 H1483 0.960 . S
H1480 C1476 0.950 1_556 S
C1481 C1479 1.390 . S
C1481 C1482 1.387 . S
C1481 H1484 0.950 . S
C1482 C1481 1.387 . S
C1482 C1485 1.387 1_455 S
H1483 C1479 0.960 . S
H1484 C1481 0.950 . S
C1485 C1476 1.390 . S
C1485 H1478 0.950 . S
C1485 C1482 1.387 1_655 S
C1486 C1487 1.387 . S
C1486 H1490 0.950 . S
C1486 C1495 1.390 1_455 S
C1487 C1486 1.387 . S
C1487 C1489 1.387 . S
H1488 C1495 0.950 . S
C1489 C1487 1.387 . S
C1489 C1491 1.390 . S
C1489 H1493 0.950 . S
H1490 C1486 0.950 . S
C1491 C1489 1.390 . S
C1491 C1492 1.387 1_455 S
C1491 H1494 0.950 . S
C1492 C1491 1.387 1_655 S
C1492 C1495 1.387 . S
H1493 C1489 0.950 . S
H1494 C1491 0.950 . S
C1495 C1486 1.390 1_655 S
C1495 H1488 0.950 . S
C1495 C1492 1.387 . S
C1496 C1497 1.387 . S
C1496 H1500 0.950 . S
C1496 C1505 1.390 . S
C1497 C1496 1.387 . S
C1497 C1499 1.387 . S
H1498 C1505 0.950 . S
C1499 C1497 1.387 . S
C1499 C1501 1.390 . S
C1499 H1503 0.950 . S
H1500 C1496 0.950 . S
C1501 C1499 1.390 . S
C1501 C1502 1.387 . S
C1501 H1504 0.950 . S
C1502 C1501 1.387 . S
C1502 C1505 1.387 . S
H1503 C1499 0.950 . S
H1504 C1501 0.950 . S
C1505 C1496 1.390 . S
C1505 H1498 0.950 . S
C1505 C1502 1.387 . S
C1506 C1507 1.387 . S
C1506 H1510 0.950 . S
C1506 C1515 1.390 . S
C1507 C1506 1.387 . S
C1507 C1509 1.387 . S
H1508 C1515 0.950 . S
C1509 C1507 1.387 . S
C1509 C1511 1.390 . S
C1509 H1513 0.950 . S
H1510 C1506 0.950 . S
C1511 C1509 1.390 . S
C1511 C1512 1.387 . S
C1511 H1514 0.950 . S
C1512 C1511 1.387 . S
C1512 C1515 1.387 . S
H1513 C1509 0.950 . S
H1514 C1511 0.950 . S
C1515 C1506 1.390 . S
C1515 H1508 0.950 . S
C1515 C1512 1.387 . S
C1516 C1517 1.387 . S
C1516 H1520 0.950 . S
C1516 C1525 1.390 . S
C1517 C1516 1.387 . S
C1517 C1519 1.387 . S
H1518 C1525 0.950 . S
C1519 C1517 1.387 . S
C1519 C1521 1.390 . S
C1519 H1523 0.950 . S
H1520 C1516 0.950 . S
C1521 C1519 1.390 . S
C1521 C1522 1.387 . S
C1521 H1524 0.950 . S
C1522 C1521 1.387 . S
C1522 C1525 1.387 . S
H1523 C1519 0.950 . S
H1524 C1521 0.950 . S
C1525 C1516 1.390 . S
C1525 H1518 0.950 . S
C1525 C1522 1.387 . S
C1526 C1527 1.387 . S
C1526 H1530 0.950 . S
C1526 C1535 1.390 . S
C1527 C1526 1.387 . S
C1527 C1529 1.387 . S
H1528 C1535 0.950 . S
C1529 C1527 1.387 . S
C1529 C1531 1.390 . S
C1529 H1533 0.950 . S
H1530 C1526 0.950 . S
C1531 C1529 1.390 . S
C1531 C1532 1.387 . S
C1531 H1534 0.950 . S
C1532 C1531 1.387 . S
C1532 C1535 1.387 . S
H1533 C1529 0.950 . S
H1534 C1531 0.950 . S
C1535 C1526 1.390 . S
C1535 H1528 0.950 . S
C1535 C1532 1.387 . S
C1536 C1537 1.387 . S
C1536 H1540 0.950 . S
C1536 C1545 1.390 . S
C1537 C1536 1.387 . S
C1537 C1539 1.387 . S
H1538 C1545 0.950 . S
C1539 C1537 1.387 . S
C1539 C1541 1.390 . S
C1539 H1543 0.950 . S
H1540 C1536 0.950 . S
C1541 C1539 1.390 . S
C1541 C1542 1.387 . S
C1541 H1544 0.950 . S
C1542 C1541 1.387 . S
C1542 C1545 1.387 . S
H1543 C1539 0.950 . S
H1544 C1541 0.950 . S
C1545 C1536 1.390 . S
C1545 H1538 0.950 . S
C1545 C1542 1.387 . S
C1546 C1547 1.387 1_556 S
C1546 H1550 0.950 . S
C1546 C1555 1.390 . S
C1547 C1546 1.387 1_554 S
C1547 C1549 1.387 . S
H1548 C1555 0.950 . S
C1549 C1547 1.387 . S
C1549 C1551 1.362 1_554 S
C1549 H1553 0.950 . S
H1550 C1546 0.950 . S
C1551 C1549 1.362 1_556 S
C1551 C1552 1.416 . S
C1551 H1554 0.950 . S
C1552 C1551 1.416 . S
C1552 C1555 1.387 . S
H1553 C1549 0.950 . S
H1554 C1551 0.950 . S
C1555 C1546 1.390 . S
C1555 H1548 0.950 . S
C1555 C1552 1.387 . S
C1556 C1557 1.387 . S
C1556 H1560 0.950 . S
C1556 C1565 1.390 . S
C1557 C1556 1.387 . S
C1557 C1559 1.387 . S
H1558 C1565 0.950 . S
C1559 C1557 1.387 . S
C1559 C1561 1.390 . S
C1559 H1563 0.950 . S
H1560 C1556 0.950 . S
C1561 C1559 1.390 . S
C1561 C1562 1.387 . S
C1561 H1564 0.950 . S
C1562 C1561 1.387 . S
C1562 C1565 1.387 . S
H1563 C1559 0.950 . S
H1564 C1561 0.950 . S
C1565 C1556 1.390 . S
C1565 H1558 0.950 . S
C1565 C1562 1.387 . S
C1566 C1567 1.387 . S
C1566 H1570 0.950 . S
C1566 C1575 1.390 . S
C1567 C1566 1.387 . S
C1567 C1569 1.387 . S
H1568 C1575 0.950 . S
C1569 C1567 1.387 . S
C1569 C1571 1.390 . S
C1569 H1573 0.950 . S
H1570 C1566 0.950 . S
C1571 C1569 1.390 . S
C1571 C1572 1.387 . S
C1571 H1574 0.950 . S
C1572 C1571 1.387 . S
C1572 C1575 1.387 . S
H1573 C1569 0.950 . S
H1574 C1571 0.950 . S
C1575 C1566 1.390 . S
C1575 H1568 0.950 . S
C1575 C1572 1.387 . S
C1576 C1577 1.387 . S
C1576 H1580 0.950 . S
C1576 C1585 1.390 . S
C1577 C1576 1.387 . S
C1577 C1579 1.387 . S
H1578 C1585 0.950 . S
C1579 C1577 1.387 . S
C1579 C1581 1.390 . S
C1579 H1583 0.950 . S
H1580 C1576 0.950 . S
C1581 C1579 1.390 . S
C1581 C1582 1.387 . S
C1581 H1584 0.950 . S
C1582 C1581 1.387 . S
C1582 C1585 1.387 . S
H1583 C1579 0.950 . S
H1584 C1581 0.950 . S
C1585 C1576 1.390 . S
C1585 H1578 0.950 . S
C1585 C1582 1.387 . S
C1586 C1587 1.387 . S
C1586 H1590 0.950 . S
C1586 C1595 1.390 . S
C1587 C1586 1.387 . S
C1587 C1589 1.387 . S
H1588 C1595 0.950 . S
C1589 C1587 1.387 . S
C1589 C1591 1.390 . S
C1589 H1593 0.950 . S
H1590 C1586 0.950 . S
C1591 C1589 1.390 . S
C1591 C1592 1.387 . S
C1591 H1594 0.950 . S
C1592 C1591 1.387 . S
C1592 C1595 1.387 . S
H1593 C1589 0.950 . S
H1594 C1591 0.950 . S
C1595 C1586 1.390 . S
C1595 H1588 0.950 . S
C1595 C1592 1.387 . S
C1596 C1597 1.387 . S
C1596 H1600 0.950 . S
C1596 C1605 1.390 . S
C1597 C1596 1.387 . S
C1597 C1599 1.387 . S
H1598 C1605 0.950 . S
C1599 C1597 1.387 . S
C1599 C1601 1.390 . S
C1599 H1603 0.950 . S
H1600 C1596 0.950 . S
C1601 C1599 1.390 . S
C1601 C1602 1.387 . S
C1601 H1604 0.950 . S
C1602 C1601 1.387 . S
C1602 C1605 1.387 . S
H1603 C1599 0.950 . S
H1604 C1601 0.950 . S
C1605 C1596 1.390 . S
C1605 H1598 0.950 . S
C1605 C1602 1.387 . S
C1606 C1607 1.387 . S
C1606 H1610 0.950 . S
C1606 C1615 1.390 . S
C1607 C1606 1.387 . S
C1607 C1609 1.387 . S
H1608 C1615 0.950 . S
C1609 C1607 1.387 . S
C1609 C1611 1.390 . S
C1609 H1613 0.950 . S
H1610 C1606 0.950 . S
C1611 C1609 1.390 . S
C1611 C1612 1.387 . S
C1611 H1614 0.950 . S
C1612 C1611 1.387 . S
C1612 C1615 1.387 . S
H1613 C1609 0.950 . S
H1614 C1611 0.950 . S
C1615 C1606 1.390 . S
C1615 H1608 0.950 . S
C1615 C1612 1.387 . S
C1616 C1617 1.387 . S
C1616 H1620 0.950 . S
C1616 C1625 1.390 . S
C1617 C1616 1.387 . S
C1617 C1619 1.387 . S
H1618 C1625 0.950 . S
C1619 C1617 1.387 . S
C1619 C1621 1.390 . S
C1619 H1623 0.950 . S
H1620 C1616 0.950 . S
C1621 C1619 1.390 . S
C1621 C1622 1.387 . S
C1621 H1624 0.950 . S
C1622 C1621 1.387 . S
C1622 C1625 1.387 . S
H1623 C1619 0.950 . S
H1624 C1621 0.950 . S
C1625 C1616 1.390 . S
C1625 H1618 0.950 . S
C1625 C1622 1.387 . S
C1626 C1627 1.387 . S
C1626 H1630 0.950 . S
C1626 C1635 1.390 . S
C1627 C1626 1.387 . S
C1627 C1629 1.387 . S
H1628 C1635 0.950 . S
C1629 C1627 1.387 . S
C1629 C1631 1.390 . S
C1629 H1633 0.950 . S
H1630 C1626 0.950 . S
C1631 C1629 1.390 . S
C1631 C1632 1.387 . S
C1631 H1634 0.950 . S
C1632 C1631 1.387 . S
C1632 C1635 1.387 . S
H1633 C1629 0.950 . S
H1634 C1631 0.950 . S
C1635 C1626 1.390 . S
C1635 H1628 0.950 . S
C1635 C1632 1.387 . S
C1636 C1637 1.387 . S
C1636 H1640 0.950 . S
C1636 C1645 1.390 . S
C1637 C1636 1.387 . S
C1637 C1639 1.387 1_545 S
H1638 C1645 0.950 . S
C1639 C1637 1.387 1_565 S
C1639 C1641 1.390 . S
C1639 H1643 0.950 . S
H1640 C1636 0.950 . S
C1641 C1639 1.390 . S
C1641 C1642 1.387 1_565 S
C1641 H1644 0.950 . S
C1642 C1641 1.387 1_545 S
C1642 C1645 1.387 . S
H1643 C1639 0.950 . S
H1644 C1641 0.950 . S
C1645 C1636 1.390 . S
C1645 H1638 0.950 . S
C1645 C1642 1.387 . S
C1646 C1647 1.384 1_546 S
C1646 H1650 0.950 . S
C1646 C1655 1.390 1_556 S
C1647 C1646 1.384 1_564 S
C1647 C1649 1.390 . S
H1648 C1655 0.950 1_556 S
C1649 C1647 1.390 . S
C1649 C1651 1.390 1_565 S
C1649 H1653 0.950 . S
H1650 C1646 0.950 . S
C1651 C1649 1.390 1_545 S
C1651 C1652 1.387 . S
C1651 H1654 0.950 1_545 S
C1652 C1651 1.387 . S
C1652 C1655 1.387 . S
H1653 C1649 0.950 . S
H1654 C1651 0.950 1_565 S
C1655 C1646 1.390 1_554 S
C1655 H1648 0.950 1_554 S
C1655 C1652 1.387 . S
C1656 C1657 1.387 . S
C1656 H1660 0.950 . S
C1656 C1665 1.390 . S
C1657 C1656 1.387 . S
C1657 C1659 1.387 . S
H1658 C1665 0.950 . S
C1659 C1657 1.387 . S
C1659 C1661 1.390 . S
C1659 H1663 0.950 . S
H1660 C1656 0.950 . S
C1661 C1659 1.390 . S
C1661 C1662 1.387 . S
C1661 H1664 0.950 . S
C1662 C1661 1.387 . S
C1662 C1665 1.387 . S
H1663 C1659 0.950 . S
H1664 C1661 0.950 . S
C1665 C1656 1.390 . S
C1665 H1658 0.950 . S
C1665 C1662 1.387 . S
C1666 C1667 1.387 . S
C1666 H1670 0.950 . S
C1666 C1675 1.390 . S
C1667 C1666 1.387 . S
C1667 C1669 1.387 . S
H1668 C1675 0.950 . S
C1669 C1667 1.387 . S
C1669 C1671 1.390 . S
C1669 H1673 0.950 . S
H1670 C1666 0.950 . S
C1671 C1669 1.390 . S
C1671 C1672 1.387 . S
C1671 H1674 0.950 . S
C1672 C1671 1.387 . S
C1672 C1675 1.387 . S
H1673 C1669 0.950 . S
H1674 C1671 0.950 . S
C1675 C1666 1.390 . S
C1675 H1668 0.950 . S
C1675 C1672 1.387 . S
C1676 C1677 1.387 . S
C1676 H1680 0.950 . S
C1676 C1685 1.390 . S
C1677 C1676 1.387 . S
C1677 C1679 1.387 . S
H1678 C1685 0.950 . S
C1679 C1677 1.387 . S
C1679 C1681 1.390 . S
C1679 H1683 0.950 . S
H1680 C1676 0.950 . S
C1681 C1679 1.390 . S
C1681 C1682 1.387 . S
C1681 H1684 0.950 . S
C1682 C1681 1.387 . S
C1682 C1685 1.387 . S
H1683 C1679 0.950 . S
H1684 C1681 0.950 . S
C1685 C1676 1.390 . S
C1685 H1678 0.950 . S
C1685 C1682 1.387 . S
C1686 C1687 1.387 . S
C1686 H1690 0.950 . S
C1686 C1695 1.390 . S
C1687 C1686 1.387 . S
C1687 C1689 1.387 . S
H1688 C1695 0.950 . S
C1689 C1687 1.387 . S
C1689 C1691 1.390 . S
C1689 H1693 0.950 . S
H1690 C1686 0.950 . S
C1691 C1689 1.390 . S
C1691 C1692 1.387 . S
C1691 H1694 0.950 . S
C1692 C1691 1.387 . S
C1692 C1695 1.387 . S
H1693 C1689 0.950 . S
H1694 C1691 0.950 . S
C1695 C1686 1.390 . S
C1695 H1688 0.950 . S
C1695 C1692 1.387 . S
C1696 C1697 1.387 . S
C1696 H1700 0.950 . S
C1696 C1705 1.390 . S
C1697 C1696 1.387 . S
C1697 C1699 1.387 . S
H1698 C1705 0.950 . S
C1699 C1697 1.387 . S
C1699 C1701 1.390 . S
C1699 H1703 0.950 . S
H1700 C1696 0.950 . S
C1701 C1699 1.390 . S
C1701 C1702 1.387 . S
C1701 H1704 0.950 . S
C1702 C1701 1.387 . S
C1702 C1705 1.387 . S
H1703 C1699 0.950 . S
H1704 C1701 0.950 . S
C1705 C1696 1.390 . S
C1705 H1698 0.950 . S
C1705 C1702 1.387 . S
C1706 C1707 1.387 . S
C1706 H1710 0.950 . S
C1706 C1715 1.390 . S
C1707 C1706 1.387 . S
C1707 C1709 1.387 . S
H1708 C1715 0.950 . S
C1709 C1707 1.387 . S
C1709 C1711 1.390 . S
C1709 H1713 0.950 . S
H1710 C1706 0.950 . S
C1711 C1709 1.390 . S
C1711 C1712 1.387 . S
C1711 H1714 0.950 . S
C1712 C1711 1.387 . S
C1712 C1715 1.387 . S
H1713 C1709 0.950 . S
H1714 C1711 0.950 . S
C1715 C1706 1.390 . S
C1715 H1708 0.950 . S
C1715 C1712 1.387 . S
C1716 C1717 1.387 . S
C1716 H1720 0.950 . S
C1716 C1725 1.390 . S
C1717 C1716 1.387 . S
C1717 C1719 1.387 . S
H1718 C1725 0.950 . S
C1719 C1717 1.387 . S
C1719 C1721 1.390 . S
C1719 H1723 0.950 . S
H1720 C1716 0.950 . S
C1721 C1719 1.390 . S
C1721 C1722 1.387 . S
C1721 H1724 0.950 . S
C1722 C1721 1.387 . S
C1722 C1725 1.387 . S
H1723 C1719 0.950 . S
H1724 C1721 0.950 . S
C1725 C1716 1.390 . S
C1725 H1718 0.950 . S
C1725 C1722 1.387 . S
C1726 C1727 1.387 . S
C1726 H1730 0.950 . S
C1726 C1735 1.390 . S
C1727 C1726 1.387 . S
C1727 C1729 1.387 . S
H1728 C1735 0.950 . S
C1729 C1727 1.387 . S
C1729 C1731 1.390 . S
C1729 H1733 0.950 . S
H1730 C1726 0.950 . S
C1731 C1729 1.390 . S
C1731 C1732 1.387 . S
C1731 H1734 0.950 . S
C1732 C1731 1.387 . S
C1732 C1735 1.387 . S
H1733 C1729 0.950 . S
H1734 C1731 0.950 . S
C1735 C1726 1.390 . S
C1735 H1728 0.950 . S
C1735 C1732 1.387 . S
C1736 C1737 1.387 . S
C1736 H1740 0.950 . S
C1736 C1745 1.390 . S
C1737 C1736 1.387 . S
C1737 C1739 1.387 . S
H1738 C1745 0.950 . S
C1739 C1737 1.387 . S
C1739 C1741 1.390 . S
C1739 H1743 0.950 . S
H1740 C1736 0.950 . S
C1741 C1739 1.390 . S
C1741 C1742 1.387 . S
C1741 H1744 0.950 . S
C1742 C1741 1.387 . S
C1742 C1745 1.387 . S
H1743 C1739 0.950 . S
H1744 C1741 0.950 . S
C1745 C1736 1.390 . S
C1745 H1738 0.950 . S
C1745 C1742 1.387 . S
C1746 C1747 1.387 . S
C1746 H1750 0.950 . S
C1746 C1755 1.390 . S
C1747 C1746 1.387 . S
C1747 C1749 1.387 . S
H1748 C1755 0.950 . S
C1749 C1747 1.387 . S
C1749 C1751 1.390 . S
C1749 H1753 0.950 . S
H1750 C1746 0.950 . S
C1751 C1749 1.390 . S
C1751 C1752 1.387 . S
C1751 H1754 0.950 . S
C1752 C1751 1.387 . S
C1752 C1755 1.387 . S
H1753 C1749 0.950 . S
H1754 C1751 0.950 . S
C1755 C1746 1.390 . S
C1755 H1748 0.950 . S
C1755 C1752 1.387 . S
C1756 C1757 1.387 . S
C1756 H1760 0.950 . S
C1756 C1765 1.390 . S
C1757 C1756 1.387 . S
C1757 C1759 1.387 . S
H1758 C1765 0.950 . S
C1759 C1757 1.387 . S
C1759 C1761 1.390 . S
C1759 H1763 0.950 . S
H1760 C1756 0.950 . S
C1761 C1759 1.390 . S
C1761 C1762 1.387 . S
C1761 H1764 0.950 . S
C1762 C1761 1.387 . S
C1762 C1765 1.387 . S
H1763 C1759 0.950 . S
H1764 C1761 0.950 . S
C1765 C1756 1.390 . S
C1765 H1758 0.950 . S
C1765 C1762 1.387 . S
C1766 C1767 1.387 . S
C1766 H1770 0.950 . S
C1766 C1775 1.390 . S
C1767 C1766 1.387 . S
C1767 C1769 1.387 . S
H1768 C1775 0.950 . S
C1769 C1767 1.387 . S
C1769 C1771 1.390 . S
C1769 H1773 0.950 . S
H1770 C1766 0.950 . S
C1771 C1769 1.390 . S
C1771 C1772 1.387 . S
C1771 H1774 0.950 . S
C1772 C1771 1.387 . S
C1772 C1775 1.387 . S
H1773 C1769 0.950 . S
H1774 C1771 0.950 . S
C1775 C1766 1.390 . S
C1775 H1768 0.950 . S
C1775 C1772 1.387 . S
C1776 C1777 1.387 . S
C1776 H1780 0.950 . S
C1776 C1785 1.390 . S
C1777 C1776 1.387 . S
C1777 C1779 1.387 . S
H1778 C1785 0.950 . S
C1779 C1777 1.387 . S
C1779 C1781 1.390 . S
C1779 H1783 0.950 . S
H1780 C1776 0.950 . S
C1781 C1779 1.390 . S
C1781 C1782 1.387 . S
C1781 H1784 0.950 . S
C1782 C1781 1.387 . S
C1782 C1785 1.387 . S
H1783 C1779 0.950 . S
H1784 C1781 0.950 . S
C1785 C1776 1.390 . S
C1785 H1778 0.950 . S
C1785 C1782 1.387 . S
C1786 C1787 1.387 . S
C1786 H1790 0.950 . S
C1786 C1795 1.390 . S
C1787 C1786 1.387 . S
C1787 C1789 1.387 . S
H1788 C1795 0.950 . S
C1789 C1787 1.387 . S
C1789 C1791 1.390 . S
C1789 H1793 0.950 . S
H1790 C1786 0.950 . S
C1791 C1789 1.390 . S
C1791 C1792 1.387 . S
C1791 H1794 0.950 . S
C1792 C1791 1.387 . S
C1792 C1795 1.387 . S
H1793 C1789 0.950 . S
H1794 C1791 0.950 . S
C1795 C1786 1.390 . S
C1795 H1788 0.950 . S
C1795 C1792 1.387 . S
C1796 C1797 1.387 . S
C1796 H1800 0.950 . S
C1796 C1805 1.390 1_655 S
C1797 C1796 1.387 . S
C1797 C1799 1.387 1_655 S
H1798 C1805 0.950 . S
C1799 C1797 1.387 1_455 S
C1799 C1801 1.390 . S
C1799 H1803 0.950 . S
H1800 C1796 0.950 . S
C1801 C1799 1.390 . S
C1801 C1802 1.387 . S
C1801 H1804 0.950 . S
C1802 C1801 1.387 . S
C1802 C1805 1.387 . S
H1803 C1799 0.950 . S
H1804 C1801 0.950 . S
C1805 C1796 1.390 1_455 S
C1805 H1798 0.950 . S
C1805 C1802 1.387 . S
C1806 C1807 1.387 . S
C1806 H1810 0.950 . S
C1806 C1815 1.390 . S
C1807 C1806 1.387 . S
C1807 C1809 1.387 . S
H1808 C1815 0.950 . S
C1809 C1807 1.387 . S
C1809 C1811 1.390 . S
C1809 H1813 0.950 . S
H1810 C1806 0.950 . S
C1811 C1809 1.390 . S
C1811 C1812 1.387 . S
C1811 H1814 0.950 . S
C1812 C1811 1.387 . S
C1812 C1815 1.387 . S
H1813 C1809 0.950 . S
H1814 C1811 0.950 . S
C1815 C1806 1.390 . S
C1815 H1808 0.950 . S
C1815 C1812 1.387 . S
C1816 C1817 1.387 . S
C1816 H1820 0.950 . S
C1816 C1825 1.390 . S
C1817 C1816 1.387 . S
C1817 C1819 1.387 . S
H1818 C1825 0.950 . S
C1819 C1817 1.387 . S
C1819 C1821 1.390 . S
C1819 H1823 0.950 . S
H1820 C1816 0.950 . S
C1821 C1819 1.390 . S
C1821 C1822 1.387 . S
C1821 H1824 0.950 . S
C1822 C1821 1.387 . S
C1822 C1825 1.387 . S
H1823 C1819 0.950 . S
H1824 C1821 0.950 . S
C1825 C1816 1.390 . S
C1825 H1818 0.950 . S
C1825 C1822 1.387 . S
C1826 C1827 1.387 . S
C1826 H1830 0.950 . S
C1826 C1835 1.390 . S
C1827 C1826 1.387 . S
C1827 C1829 1.387 . S
H1828 C1835 0.950 . S
C1829 C1827 1.387 . S
C1829 C1831 1.390 . S
C1829 H1833 0.950 . S
H1830 C1826 0.950 . S
C1831 C1829 1.390 . S
C1831 C1832 1.387 . S
C1831 H1834 0.950 . S
C1832 C1831 1.387 . S
C1832 C1835 1.387 . S
H1833 C1829 0.950 . S
H1834 C1831 0.950 . S
C1835 C1826 1.390 . S
C1835 H1828 0.950 . S
C1835 C1832 1.387 . S
C1836 C1837 1.387 . S
C1836 H1840 0.950 . S
C1836 C1845 1.390 . S
C1837 C1836 1.387 . S
C1837 C1839 1.387 1_655 S
H1838 C1845 0.950 . S
C1839 C1837 1.387 1_455 S
C1839 C1841 1.390 . S
C1839 H1843 0.950 . S
H1840 C1836 0.950 . S
C1841 C1839 1.390 . S
C1841 C1842 1.388 . S
C1841 H1844 0.950 . S
C1842 C1841 1.388 . S
C1842 C1845 1.387 1_455 S
H1843 C1839 0.950 . S
H1844 C1841 0.950 . S
C1845 C1836 1.390 . S
C1845 H1838 0.950 . S
C1845 C1842 1.387 1_655 S
C1846 C1847 1.387 . S
C1846 H1850 0.950 . S
C1846 C1855 1.390 . S
C1847 C1846 1.387 . S
C1847 C1849 1.387 . S
H1848 C1855 0.950 . S
C1849 C1847 1.387 . S
C1849 C1851 1.390 . S
C1849 H1853 0.950 . S
H1850 C1846 0.950 . S
C1851 C1849 1.390 . S
C1851 C1852 1.387 . S
C1851 H1854 0.950 . S
C1852 C1851 1.387 . S
C1852 C1855 1.387 . S
H1853 C1849 0.950 . S
H1854 C1851 0.950 . S
C1855 C1846 1.390 . S
C1855 H1848 0.950 . S
C1855 C1852 1.387 . S
C1856 C1857 1.387 . S
C1856 H1860 0.950 . S
C1856 C1865 1.390 . S
C1857 C1856 1.387 . S
C1857 C1859 1.387 . S
H1858 C1865 0.950 . S
C1859 C1857 1.387 . S
C1859 C1861 1.390 . S
C1859 H1863 0.950 . S
H1860 C1856 0.950 . S
C1861 C1859 1.390 . S
C1861 C1862 1.387 . S
C1861 H1864 0.950 . S
C1862 C1861 1.387 . S
C1862 C1865 1.387 . S
H1863 C1859 0.950 . S
H1864 C1861 0.950 . S
C1865 C1856 1.390 . S
C1865 H1858 0.950 . S
C1865 C1862 1.387 . S
C1866 C1867 1.387 . S
C1866 H1870 0.950 . S
C1866 C1875 1.390 . S
C1867 C1866 1.387 . S
C1867 C1869 1.387 . S
H1868 C1875 0.950 1_545 S
C1869 C1867 1.387 . S
C1869 C1871 1.390 . S
C1869 H1873 0.950 . S
H1870 C1866 0.950 . S
C1871 C1869 1.390 . S
C1871 C1872 1.387 . S
C1871 H1874 0.950 . S
C1872 C1871 1.387 . S
C1872 C1875 1.387 . S
H1873 C1869 0.950 . S
H1874 C1871 0.950 . S
C1875 C1866 1.390 . S
C1875 H1868 0.950 1_565 S
C1875 C1872 1.387 . S
C1876 C1877 1.387 . S
C1876 H1880 0.950 . S
C1876 C1885 1.390 . S
C1877 C1876 1.387 . S
C1877 C1879 1.387 . S
H1878 C1885 0.950 . S
C1879 C1877 1.387 . S
C1879 C1881 1.390 . S
C1879 H1883 0.950 . S
H1880 C1876 0.950 . S
C1881 C1879 1.390 . S
C1881 C1882 1.387 . S
C1881 H1884 0.950 . S
C1882 C1881 1.387 . S
C1882 C1885 1.387 . S
H1883 C1879 0.950 . S
H1884 C1881 0.950 . S
C1885 C1876 1.390 . S
C1885 H1878 0.950 . S
C1885 C1882 1.387 . S
C1886 C1887 1.387 . S
C1886 H1890 0.950 . S
C1886 C1895 1.390 . S
C1887 C1886 1.387 . S
C1887 C1889 1.387 . S
H1888 C1895 0.950 . S
C1889 C1887 1.387 . S
C1889 C1891 1.390 . S
C1889 H1893 0.950 . S
H1890 C1886 0.950 . S
C1891 C1889 1.390 . S
C1891 C1892 1.387 . S
C1891 H1894 0.950 . S
C1892 C1891 1.387 . S
C1892 C1895 1.387 . S
H1893 C1889 0.950 . S
H1894 C1891 0.950 . S
C1895 C1886 1.390 . S
C1895 H1888 0.950 . S
C1895 C1892 1.387 . S
C1896 C1897 1.387 . S
C1896 H1900 0.950 . S
C1896 C1905 1.390 . S
C1897 C1896 1.387 . S
C1897 C1899 1.387 . S
H1898 C1905 0.950 . S
C1899 C1897 1.387 . S
C1899 C1901 1.390 . S
C1899 H1903 0.950 . S
H1900 C1896 0.950 . S
C1901 C1899 1.390 . S
C1901 C1902 1.387 . S
C1901 H1904 0.950 . S
C1902 C1901 1.387 . S
C1902 C1905 1.387 . S
H1903 C1899 0.950 . S
H1904 C1901 0.950 . S
C1905 C1896 1.390 . S
C1905 H1898 0.950 . S
C1905 C1902 1.387 . S
C1906 C1907 1.387 . S
C1906 H1910 0.950 . S
C1906 C1915 1.390 . S
C1907 C1906 1.387 . S
C1907 C1909 1.387 . S
H1908 C1915 0.950 . S
C1909 C1907 1.387 . S
C1909 C1911 1.390 1_554 S
C1909 H1913 0.941 1_554 S
H1910 C1906 0.950 . S
C1911 C1909 1.390 1_556 S
C1911 C1912 1.387 1_556 S
C1911 H1914 0.950 . S
C1912 C1911 1.387 1_554 S
C1912 C1915 1.387 . S
H1913 C1909 0.941 1_556 S
H1914 C1911 0.950 . S
C1915 C1906 1.390 . S
C1915 H1908 0.950 . S
C1915 C1912 1.387 . S
C1916 C1917 1.387 . S
C1916 H1920 0.950 . S
C1916 C1925 1.390 . S
C1917 C1916 1.387 . S
C1917 C1919 1.387 . S
H1918 C1925 0.950 . S
C1919 C1917 1.387 . S
C1919 C1921 1.390 . S
C1919 H1923 0.950 . S
H1920 C1916 0.950 . S
C1921 C1919 1.390 . S
C1921 C1922 1.387 . S
C1921 H1924 0.950 . S
C1922 C1921 1.387 . S
C1922 C1925 1.387 . S
H1923 C1919 0.950 . S
H1924 C1921 0.950 . S
C1925 C1916 1.390 . S
C1925 H1918 0.950 . S
C1925 C1922 1.387 . S
C1926 C1927 1.387 . S
C1926 H1930 0.950 . S
C1926 C1935 1.390 . S
C1927 C1926 1.387 . S
C1927 C1929 1.387 . S
H1928 C1935 0.950 . S
C1929 C1927 1.387 . S
C1929 C1931 1.390 . S
C1929 H1933 0.950 . S
H1930 C1926 0.950 . S
C1931 C1929 1.390 . S
C1931 C1932 1.387 . S
C1931 H1934 0.950 . S
C1932 C1931 1.387 . S
C1932 C1935 1.387 . S
H1933 C1929 0.950 . S
H1934 C1931 0.950 . S
C1935 C1926 1.390 . S
C1935 H1928 0.950 . S
C1935 C1932 1.387 . S
C977 C111 2.409 1_454 S
C982 C367 2.376 . S
C987 C64 1.937 . S
C992 C378 2.046 . S
C997 C77 1.758 . S
C1002 C447 1.723 . S
C1012 C460 1.042 . S
C1007 C95 1.066 . S
C1017 C25 2.362 . S
C1022 C516 2.339 1_565 S
C1032 C567 2.327 . S
C1027 C36 2.348 . S
C1042 C596 2.395 . S
C1037 C50 2.303 . S
C1047 C11 2.534 . S
C1052 C647 2.465 . S
C1062 C338 1.519 . S
C1057 C237 1.421 1_545 S
C1067 C245 1.176 . S
C1072 C380 1.105 . S
C1082 C418 0.965 . S
C1077 C279 0.927 . S
C1092 C487 1.827 . S
C1087 C175 1.801 . S
C1097 C231 0.659 . S
C1102 C521 0.663 . S
C1112 C538 1.351 . S
C1107 C251 1.258 . S
C1122 C601 0.510 . S
C1117 C273 0.503 . S
C1132 C618 2.122 . S
C1127 C181 2.151 . S
C1142 C340 2.036 . S
C1137 C165 2.303 1_544 S
C1147 C288 1.645 . S
C1152 C679 1.633 . S
C1162 C700 1.820 . S
C1157 C333 2.040 . S
C1172 C759 0.619 . S
C1167 C316 0.656 . S
C1177 C123 1.396 . S
C1182 C620 1.273 . S
C1187 C137 1.529 . S
C1192 C420 1.430 . S
C1197 C330 1.042 . S
C1202 C778 1.232 . S
C1212 C847 0.993 . S
C1207 C302 0.996 . S
C1222 C356 2.480 . S
C1217 C63 2.480 . S
C1232 C839 2.049 . S
C1227 C106 2.051 . S
C1237 C97 1.754 . S
C1242 C436 1.794 . S
C1247 C81 1.095 . S
C1252 C801 1.090 . S
C1262 C527 2.484 . S
C1257 C13 2.413 . S
C1267 C55 2.127 . S
C1272 C716 2.301 . S
C1282 C607 2.360 1_566 S
C1277 C35 2.349 . S
C1292 C876 2.622 . S
C1287 C21 2.685 1_655 S
C1302 C359 1.577 . S
C1297 C147 1.549 . S
C1312 C841 1.117 . S
C1307 C321 1.095 . S
C1317 C119 1.014 . S
C1322 C439 1.002 . S
C1327 C293 1.893 . S
C1332 C796 1.967 . S
C1337 C153 0.736 . S
C1342 C500 0.733 . S
C1352 C719 1.404 . S
C1347 C315 1.394 . S
C1357 C125 0.571 . S
C1362 C580 0.548 . S
C1367 C287 2.297 . S
C1372 C879 2.227 . S
C1377 C193 2.141 . S
C1382 C361 2.038 1_554 S
C1387 C176 1.684 . S
C1392 C658 1.628 . S
C1397 C263 1.847 . S
C1402 C561 1.806 . S
C1407 C246 0.757 . S
C1412 C738 0.754 . S
C1422 C881 1.255 . S
C1417 C277 1.265 . S
C1427 C221 1.436 . S
C1432 C441 1.409 . S
C1442 C479 1.254 . S
C1437 C260 1.233 . S
C1452 C396 1.038 . S
C1447 C204 1.077 . S
C1457 C83 2.417 . S
C1462 C927 2.380 . S
C1472 C818 2.046 . S
C1467 C92 1.936 . S
C1477 C105 1.758 . S
C1482 C967 1.724 . S
C1487 C67 1.066 . S
C1492 C780 1.042 . S
C1497 C53 2.362 . S
C1502 C676 2.339 . S
C1512 C727 2.327 . S
C1507 C8 2.349 1_655 S
C1522 C756 2.395 . S
C1517 C22 2.304 . S
C1532 C887 2.463 . S
C1527 C39 2.534 . S
C1542 C898 1.518 . S
C1537 C265 1.424 . S
C1547 C189 1.180 . S
C1552 C820 1.111 . S
C1562 C938 0.964 . S
C1557 C209 0.926 . S
C1572 C807 1.827 . S
C1567 C217 1.800 . S
C1582 C681 0.668 . S
C1577 C259 0.662 . S
C1587 C195 1.258 . S
C1592 C698 1.351 . S
C1602 C761 0.510 . S
C1597 C203 0.503 . S
C1607 C223 2.152 . S
C1612 C858 2.121 . S
C1622 C900 2.033 . S
C1617 C319 2.301 . S
C1627 C134 1.645 . S
C1632 C519 1.631 . S
C1642 C540 1.819 1_545 S
C1637 C151 2.039 . S
C1652 C599 0.622 . S
C1647 C162 0.655 . S
C1662 C860 1.275 . S
C1657 C305 1.398 . S
C1667 C291 1.528 . S
C1672 C940 1.429 . S
C1682 C458 1.231 . S
C1677 C148 1.041 . S
C1692 C407 0.998 . S
C1687 C120 0.995 . S
C1697 C91 2.480 . S
C1702 C916 2.481 . S
C1712 C399 2.048 . S
C1707 C78 2.047 . S
C1717 C69 1.753 . S
C1722 C956 1.794 . S
C1727 C109 1.094 . S
C1732 C481 1.086 . S
C1737 C41 2.414 . S
C1742 C687 2.484 1_556 S
C1752 C556 2.299 . S
C1747 C27 2.124 . S
C1757 C7 2.348 . S
C1762 C767 2.360 . S
C1767 C49 2.685 . S
C1772 C636 2.621 . S
C1782 C919 1.576 . S
C1777 C329 1.551 . S
C1787 C167 1.098 . S
C1792 C401 1.122 . S
C1802 C959 1.001 . S
C1797 C301 1.016 . S
C1807 C139 1.890 . S
C1812 C476 1.967 . S
C1817 C335 0.742 . S
C1822 C660 0.736 . S
C1832 C559 1.404 . S
C1827 C161 1.394 . S
C1837 C307 0.565 . S
C1842 C740 0.549 . S
C1852 C639 2.227 . S
C1847 C133 2.297 . S
C1862 C921 2.039 . S
C1857 C249 2.143 . S
C1872 C498 1.625 1_565 S
C1867 C218 1.686 . S
C1877 C235 1.851 . S
C1882 C721 1.805 . S
C1892 C578 0.759 . S
C1887 C190 0.754 . S
C1897 C207 1.265 . S
C1902 C641 1.254 . S
C1907 C179 1.437 . S
C1912 C961 1.412 . S
C1922 C799 1.257 . S
C1917 C232 1.239 . S
C1932 C836 1.039 . S
C1927 C274 1.076 . S
