# Generated by pormake.
# Topology ibd, (4,6)-cn, num edge types: 1
# Building blocks:
#     Node 0, Type 0, BuildingBlock: KUFVIS_clean_sbu_0, # of connection points: 4
#     Node 1, Type 0, BuildingBlock: KUFVIS_clean_sbu_0, # of connection points: 4
#     Node 2, Type 0, BuildingBlock: KUFVIS_clean_sbu_0, # of connection points: 4
#     Node 3, Type 0, BuildingBlock: KUFVIS_clean_sbu_0, # of connection points: 4
#     Node 4, Type 0, BuildingBlock: KUFVIS_clean_sbu_0, # of connection points: 4
#     Node 5, Type 0, BuildingBlock: KUFVIS_clean_sbu_0, # of connection points: 4
#     Node 6, Type 0, BuildingBlock: KUFVIS_clean_sbu_0, # of connection points: 4
#     Node 7, Type 0, BuildingBlock: KUFVIS_clean_sbu_0, # of connection points: 4
#     Node 8, Type 0, BuildingBlock: KUFVIS_clean_sbu_0, # of connection points: 4
#     Node 9, Type 0, BuildingBlock: KUFVIS_clean_sbu_0, # of connection points: 4
#     Node 10, Type 0, BuildingBlock: KUFVIS_clean_sbu_0, # of connection points: 4
#     Node 11, Type 0, BuildingBlock: KUFVIS_clean_sbu_0, # of connection points: 4
#     Node 12, Type 0, BuildingBlock: KUFVIS_clean_sbu_0, # of connection points: 4
#     Node 13, Type 0, BuildingBlock: KUFVIS_clean_sbu_0, # of connection points: 4
#     Node 14, Type 0, BuildingBlock: KUFVIS_clean_sbu_0, # of connection points: 4
#     Node 15, Type 0, BuildingBlock: KUFVIS_clean_sbu_0, # of connection points: 4
#     Node 16, Type 0, BuildingBlock: KUFVIS_clean_sbu_0, # of connection points: 4
#     Node 17, Type 0, BuildingBlock: KUFVIS_clean_sbu_0, # of connection points: 4
#     Node 18, Type 0, BuildingBlock: KUFVIS_clean_sbu_0, # of connection points: 4
#     Node 19, Type 0, BuildingBlock: KUFVIS_clean_sbu_0, # of connection points: 4
#     Node 20, Type 0, BuildingBlock: KUFVIS_clean_sbu_0, # of connection points: 4
#     Node 21, Type 0, BuildingBlock: KUFVIS_clean_sbu_0, # of connection points: 4
#     Node 22, Type 0, BuildingBlock: KUFVIS_clean_sbu_0, # of connection points: 4
#     Node 23, Type 0, BuildingBlock: KUFVIS_clean_sbu_0, # of connection points: 4
#     Node 24, Type 1, BuildingBlock: CIFDUS_clean_sbu_1, # of connection points: 6
#     Node 25, Type 1, BuildingBlock: CIFDUS_clean_sbu_1, # of connection points: 6
#     Node 26, Type 1, BuildingBlock: CIFDUS_clean_sbu_1, # of connection points: 6
#     Node 27, Type 1, BuildingBlock: CIFDUS_clean_sbu_1, # of connection points: 6
#     Node 28, Type 1, BuildingBlock: CIFDUS_clean_sbu_1, # of connection points: 6
#     Node 29, Type 1, BuildingBlock: CIFDUS_clean_sbu_1, # of connection points: 6
#     Node 30, Type 1, BuildingBlock: CIFDUS_clean_sbu_1, # of connection points: 6
#     Node 31, Type 1, BuildingBlock: CIFDUS_clean_sbu_1, # of connection points: 6
#     Node 32, Type 1, BuildingBlock: CIFDUS_clean_sbu_1, # of connection points: 6
#     Node 33, Type 1, BuildingBlock: CIFDUS_clean_sbu_1, # of connection points: 6
#     Node 34, Type 1, BuildingBlock: CIFDUS_clean_sbu_1, # of connection points: 6
#     Node 35, Type 1, BuildingBlock: CIFDUS_clean_sbu_1, # of connection points: 6
#     Node 36, Type 1, BuildingBlock: CIFDUS_clean_sbu_1, # of connection points: 6
#     Node 37, Type 1, BuildingBlock: CIFDUS_clean_sbu_1, # of connection points: 6
#     Node 38, Type 1, BuildingBlock: CIFDUS_clean_sbu_1, # of connection points: 6
#     Node 39, Type 1, BuildingBlock: CIFDUS_clean_sbu_1, # of connection points: 6
#     Edge 40, Type (0, 1), BuildingBlock: EZIPEK_clean_linker_0, # of connection points: 2
#     Edge 41, Type (0, 1), BuildingBlock: EZIPEK_clean_linker_0, # of connection points: 2
#     Edge 42, Type (0, 1), BuildingBlock: EZIPEK_clean_linker_0, # of connection points: 2
#     Edge 43, Type (0, 1), BuildingBlock: EZIPEK_clean_linker_0, # of connection points: 2
#     Edge 44, Type (0, 1), BuildingBlock: EZIPEK_clean_linker_0, # of connection points: 2
#     Edge 45, Type (0, 1), BuildingBlock: EZIPEK_clean_linker_0, # of connection points: 2
#     Edge 46, Type (0, 1), BuildingBlock: EZIPEK_clean_linker_0, # of connection points: 2
#     Edge 47, Type (0, 1), BuildingBlock: EZIPEK_clean_linker_0, # of connection points: 2
#     Edge 48, Type (0, 1), BuildingBlock: EZIPEK_clean_linker_0, # of connection points: 2
#     Edge 49, Type (0, 1), BuildingBlock: EZIPEK_clean_linker_0, # of connection points: 2
#     Edge 50, Type (0, 1), BuildingBlock: EZIPEK_clean_linker_0, # of connection points: 2
#     Edge 51, Type (0, 1), BuildingBlock: EZIPEK_clean_linker_0, # of connection points: 2
#     Edge 52, Type (0, 1), BuildingBlock: EZIPEK_clean_linker_0, # of connection points: 2
#     Edge 53, Type (0, 1), BuildingBlock: EZIPEK_clean_linker_0, # of connection points: 2
#     Edge 54, Type (0, 1), BuildingBlock: EZIPEK_clean_linker_0, # of connection points: 2
#     Edge 55, Type (0, 1), BuildingBlock: EZIPEK_clean_linker_0, # of connection points: 2
#     Edge 56, Type (0, 1), BuildingBlock: EZIPEK_clean_linker_0, # of connection points: 2
#     Edge 57, Type (0, 1), BuildingBlock: EZIPEK_clean_linker_0, # of connection points: 2
#     Edge 58, Type (0, 1), BuildingBlock: EZIPEK_clean_linker_0, # of connection points: 2
#     Edge 59, Type (0, 1), BuildingBlock: EZIPEK_clean_linker_0, # of connection points: 2
#     Edge 60, Type (0, 1), BuildingBlock: EZIPEK_clean_linker_0, # of connection points: 2
#     Edge 61, Type (0, 1), BuildingBlock: EZIPEK_clean_linker_0, # of connection points: 2
#     Edge 62, Type (0, 1), BuildingBlock: EZIPEK_clean_linker_0, # of connection points: 2
#     Edge 63, Type (0, 1), BuildingBlock: EZIPEK_clean_linker_0, # of connection points: 2
#     Edge 64, Type (0, 1), BuildingBlock: EZIPEK_clean_linker_0, # of connection points: 2
#     Edge 65, Type (0, 1), BuildingBlock: EZIPEK_clean_linker_0, # of connection points: 2
#     Edge 66, Type (0, 1), BuildingBlock: EZIPEK_clean_linker_0, # of connection points: 2
#     Edge 67, Type (0, 1), BuildingBlock: EZIPEK_clean_linker_0, # of connection points: 2
#     Edge 68, Type (0, 1), BuildingBlock: EZIPEK_clean_linker_0, # of connection points: 2
#     Edge 69, Type (0, 1), BuildingBlock: EZIPEK_clean_linker_0, # of connection points: 2
#     Edge 70, Type (0, 1), BuildingBlock: EZIPEK_clean_linker_0, # of connection points: 2
#     Edge 71, Type (0, 1), BuildingBlock: EZIPEK_clean_linker_0, # of connection points: 2
#     Edge 72, Type (0, 1), BuildingBlock: EZIPEK_clean_linker_0, # of connection points: 2
#     Edge 73, Type (0, 1), BuildingBlock: EZIPEK_clean_linker_0, # of connection points: 2
#     Edge 74, Type (0, 1), BuildingBlock: EZIPEK_clean_linker_0, # of connection points: 2
#     Edge 75, Type (0, 1), BuildingBlock: EZIPEK_clean_linker_0, # of connection points: 2
#     Edge 76, Type (0, 1), BuildingBlock: EZIPEK_clean_linker_0, # of connection points: 2
#     Edge 77, Type (0, 1), BuildingBlock: EZIPEK_clean_linker_0, # of connection points: 2
#     Edge 78, Type (0, 1), BuildingBlock: EZIPEK_clean_linker_0, # of connection points: 2
#     Edge 79, Type (0, 1), BuildingBlock: EZIPEK_clean_linker_0, # of connection points: 2
#     Edge 80, Type (0, 1), BuildingBlock: EZIPEK_clean_linker_0, # of connection points: 2
#     Edge 81, Type (0, 1), BuildingBlock: EZIPEK_clean_linker_0, # of connection points: 2
#     Edge 82, Type (0, 1), BuildingBlock: EZIPEK_clean_linker_0, # of connection points: 2
#     Edge 83, Type (0, 1), BuildingBlock: EZIPEK_clean_linker_0, # of connection points: 2
#     Edge 84, Type (0, 1), BuildingBlock: EZIPEK_clean_linker_0, # of connection points: 2
#     Edge 85, Type (0, 1), BuildingBlock: EZIPEK_clean_linker_0, # of connection points: 2
#     Edge 86, Type (0, 1), BuildingBlock: EZIPEK_clean_linker_0, # of connection points: 2
#     Edge 87, Type (0, 1), BuildingBlock: EZIPEK_clean_linker_0, # of connection points: 2
#     Edge 88, Type (0, 1), BuildingBlock: EZIPEK_clean_linker_0, # of connection points: 2
#     Edge 89, Type (0, 1), BuildingBlock: EZIPEK_clean_linker_0, # of connection points: 2
#     Edge 90, Type (0, 1), BuildingBlock: EZIPEK_clean_linker_0, # of connection points: 2
#     Edge 91, Type (0, 1), BuildingBlock: EZIPEK_clean_linker_0, # of connection points: 2
#     Edge 92, Type (0, 1), BuildingBlock: EZIPEK_clean_linker_0, # of connection points: 2
#     Edge 93, Type (0, 1), BuildingBlock: EZIPEK_clean_linker_0, # of connection points: 2
#     Edge 94, Type (0, 1), BuildingBlock: EZIPEK_clean_linker_0, # of connection points: 2
#     Edge 95, Type (0, 1), BuildingBlock: EZIPEK_clean_linker_0, # of connection points: 2
#     Edge 96, Type (0, 1), BuildingBlock: EZIPEK_clean_linker_0, # of connection points: 2
#     Edge 97, Type (0, 1), BuildingBlock: EZIPEK_clean_linker_0, # of connection points: 2
#     Edge 98, Type (0, 1), BuildingBlock: EZIPEK_clean_linker_0, # of connection points: 2
#     Edge 99, Type (0, 1), BuildingBlock: EZIPEK_clean_linker_0, # of connection points: 2
#     Edge 100, Type (0, 1), BuildingBlock: EZIPEK_clean_linker_0, # of connection points: 2
#     Edge 101, Type (0, 1), BuildingBlock: EZIPEK_clean_linker_0, # of connection points: 2
#     Edge 102, Type (0, 1), BuildingBlock: EZIPEK_clean_linker_0, # of connection points: 2
#     Edge 103, Type (0, 1), BuildingBlock: EZIPEK_clean_linker_0, # of connection points: 2
#     Edge 104, Type (0, 1), BuildingBlock: EZIPEK_clean_linker_0, # of connection points: 2
#     Edge 105, Type (0, 1), BuildingBlock: EZIPEK_clean_linker_0, # of connection points: 2
#     Edge 106, Type (0, 1), BuildingBlock: EZIPEK_clean_linker_0, # of connection points: 2
#     Edge 107, Type (0, 1), BuildingBlock: EZIPEK_clean_linker_0, # of connection points: 2
#     Edge 108, Type (0, 1), BuildingBlock: EZIPEK_clean_linker_0, # of connection points: 2
#     Edge 109, Type (0, 1), BuildingBlock: EZIPEK_clean_linker_0, # of connection points: 2
#     Edge 110, Type (0, 1), BuildingBlock: EZIPEK_clean_linker_0, # of connection points: 2
#     Edge 111, Type (0, 1), BuildingBlock: EZIPEK_clean_linker_0, # of connection points: 2
#     Edge 112, Type (0, 1), BuildingBlock: EZIPEK_clean_linker_0, # of connection points: 2
#     Edge 113, Type (0, 1), BuildingBlock: EZIPEK_clean_linker_0, # of connection points: 2
#     Edge 114, Type (0, 1), BuildingBlock: EZIPEK_clean_linker_0, # of connection points: 2
#     Edge 115, Type (0, 1), BuildingBlock: EZIPEK_clean_linker_0, # of connection points: 2
#     Edge 116, Type (0, 1), BuildingBlock: EZIPEK_clean_linker_0, # of connection points: 2
#     Edge 117, Type (0, 1), BuildingBlock: EZIPEK_clean_linker_0, # of connection points: 2
#     Edge 118, Type (0, 1), BuildingBlock: EZIPEK_clean_linker_0, # of connection points: 2
#     Edge 119, Type (0, 1), BuildingBlock: EZIPEK_clean_linker_0, # of connection points: 2
#     Edge 120, Type (0, 1), BuildingBlock: EZIPEK_clean_linker_0, # of connection points: 2
#     Edge 121, Type (0, 1), BuildingBlock: EZIPEK_clean_linker_0, # of connection points: 2
#     Edge 122, Type (0, 1), BuildingBlock: EZIPEK_clean_linker_0, # of connection points: 2
#     Edge 123, Type (0, 1), BuildingBlock: EZIPEK_clean_linker_0, # of connection points: 2
#     Edge 124, Type (0, 1), BuildingBlock: EZIPEK_clean_linker_0, # of connection points: 2
#     Edge 125, Type (0, 1), BuildingBlock: EZIPEK_clean_linker_0, # of connection points: 2
#     Edge 126, Type (0, 1), BuildingBlock: EZIPEK_clean_linker_0, # of connection points: 2
#     Edge 127, Type (0, 1), BuildingBlock: EZIPEK_clean_linker_0, # of connection points: 2
#     Edge 128, Type (0, 1), BuildingBlock: EZIPEK_clean_linker_0, # of connection points: 2
#     Edge 129, Type (0, 1), BuildingBlock: EZIPEK_clean_linker_0, # of connection points: 2
#     Edge 130, Type (0, 1), BuildingBlock: EZIPEK_clean_linker_0, # of connection points: 2
#     Edge 131, Type (0, 1), BuildingBlock: EZIPEK_clean_linker_0, # of connection points: 2
#     Edge 132, Type (0, 1), BuildingBlock: EZIPEK_clean_linker_0, # of connection points: 2
#     Edge 133, Type (0, 1), BuildingBlock: EZIPEK_clean_linker_0, # of connection points: 2
#     Edge 134, Type (0, 1), BuildingBlock: EZIPEK_clean_linker_0, # of connection points: 2
#     Edge 135, Type (0, 1), BuildingBlock: EZIPEK_clean_linker_0, # of connection points: 2
# Relax obj value: 0.352
# Max RMSD: 0.307
# Mean RMSD: 0.278
data_MOF--net-ibd--node1-KUFVIS_clean_sbu_0--node2-CIFDUS_clean_sbu_1--edge1-EZIPEK_clean_linker_0
_symmetry_space_group_name_H-M    P1
_symmetry_Int_Tables_number       1
_symmetry_cell_setting            triclinic
loop_
_symmetry_equiv_pos_as_xyz
'x, y, z'
_cell_length_a     34.771559
_cell_length_b     35.629033
_cell_length_c     36.220527
_cell_angle_alpha  91.998784
_cell_angle_beta   90.939406
_cell_angle_gamma 94.323584
loop_
_atom_site_label
_atom_site_type_symbol
_atom_site_fract_x
_atom_site_fract_y
_atom_site_fract_z
_atom_type_partial_charge
Mn0 Mn 0.00813 0.31052 0.38756 0.0
Mn1 Mn 0.08334 0.35606 0.34725 0.0
C2 C 0.06692 0.31646 0.41807 0.0
C3 C 0.9589 0.30357 0.43162 0.0
C4 C 0.05255 0.28013 0.3212 0.0
O5 O 0.97981 0.34348 0.35386 0.0
O6 O 0.03245 0.36386 0.32231 0.0
C7 C 0.06619 0.43519 0.35844 0.0
N8 N 0.09017 0.4075 0.364 0.0
C9 C 0.1406 0.45251 0.38747 0.0
C10 C 0.11609 0.48135 0.3824 0.0
C11 C 0.07859 0.47248 0.36801 0.0
C12 C 0.12647 0.41566 0.3774 0.0
H13 H 0.03819 0.42901 0.34597 0.0
C14 C -0.00429 0.36003 0.32675 0.0
O15 O 0.95992 0.28109 0.40265 0.0
O16 O 0.9848 0.33165 0.43307 0.0
N17 N 0.13316 0.35154 0.36965 0.0
C18 C 0.15294 0.32027 0.37318 0.0
C19 C 0.19038 0.32384 0.38884 0.0
C20 C 0.20727 0.35956 0.40019 0.0
C21 C 0.18648 0.39138 0.39609 0.0
C22 C 0.14902 0.38593 0.38103 0.0
H23 H 0.14014 0.29285 0.36412 0.0
O24 O 0.04399 0.28614 0.41936 0.0
O25 O 0.05759 0.34 0.39302 0.0
O26 O 0.02304 0.27913 0.34166 0.0
O27 O 0.08085 0.30463 0.32573 0.0
C28 C 0.20141 0.42826 0.40635 0.0
C29 C 0.17852 0.45887 0.40183 0.0
H30 H 0.12619 0.51025 0.38896 0.0
H31 H 0.05922 0.49401 0.36323 0.0
H32 H 0.20631 0.29916 0.39195 0.0
H33 H 0.23613 0.36223 0.4121 0.0
H34 H 0.23045 0.43341 0.41768 0.0
H35 H 0.19027 0.48712 0.40968 0.0
Mn36 Mn 0.00675 0.78887 0.64177 0.0
Mn37 Mn 0.92511 0.74511 0.66826 0.0
C38 C 0.97503 0.74476 0.60217 0.0
C39 C 0.03766 0.83615 0.60901 0.0
C40 C 0.00402 0.73733 0.70416 0.0
O41 O 0.99028 0.81982 0.68689 0.0
O42 O 0.92793 0.79895 0.68411 0.0
C43 C 0.8615 0.78045 0.63067 0.0
N44 N 0.88195 0.7498 0.63564 0.0
C45 C 0.83904 0.71155 0.5943 0.0
C46 C 0.81814 0.74295 0.58809 0.0
C47 C 0.82925 0.77747 0.60656 0.0
C48 C 0.87078 0.71615 0.61884 0.0
H49 H 0.86983 0.807 0.64497 0.0
C50 C 0.95597 0.81947 0.69946 0.0
O51 O 0.05637 0.81945 0.6343 0.0
O52 O 0.0006 0.82943 0.60713 0.0
N53 N 0.92209 0.69327 0.65098 0.0
C54 C 0.94547 0.66558 0.65933 0.0
C55 C 0.93755 0.62908 0.64384 0.0
C56 C 0.90611 0.62146 0.61928 0.0
C57 C 0.883 0.6505 0.61028 0.0
C58 C 0.89199 0.68625 0.62696 0.0
H59 H 0.97076 0.67138 0.67667 0.0
O60 O 0.01134 0.75382 0.59845 0.0
O61 O 0.95918 0.76092 0.62972 0.0
O62 O 0.02278 0.74947 0.67673 0.0
O63 O 0.96737 0.73815 0.70495 0.0
C64 C 0.85157 0.64539 0.58513 0.0
C65 C 0.82949 0.67584 0.57724 0.0
H66 H 0.79342 0.74081 0.56936 0.0
H67 H 0.81294 0.8017 0.60226 0.0
H68 H 0.95606 0.60702 0.65036 0.0
H69 H 0.90028 0.59334 0.60713 0.0
H70 H 0.84403 0.61807 0.57191 0.0
H71 H 0.80513 0.67142 0.55813 0.0
Mn72 Mn 0.50122 0.81044 0.89092 0.0
Mn73 Mn 0.57488 0.86579 0.8589 0.0
C74 C 0.55889 0.81611 0.92226 0.0
C75 C 0.45255 0.79928 0.93511 0.0
C76 C 0.55293 0.78942 0.82607 0.0
O77 O 0.47237 0.84338 0.85765 0.0
O78 O 0.52542 0.87044 0.83103 0.0
C79 C 0.54814 0.94152 0.87547 0.0
N80 N 0.57412 0.91545 0.88116 0.0
C81 C 0.61554 0.96086 0.91696 0.0
C82 C 0.58856 0.98772 0.91232 0.0
C83 C 0.5548 0.97804 0.89128 0.0
C84 C 0.6074 0.92495 0.90019 0.0
H85 H 0.52302 0.93479 0.85826 0.0
C86 C 0.48879 0.86281 0.83263 0.0
O87 O 0.45414 0.7777 0.90544 0.0
O88 O 0.47597 0.829 0.93589 0.0
N89 N 0.62314 0.86401 0.88496 0.0
C90 C 0.6458 0.83463 0.88756 0.0
C91 C 0.67964 0.83897 0.90952 0.0
C92 C 0.69012 0.8736 0.92809 0.0
C93 C 0.66689 0.90374 0.92432 0.0
C94 C 0.63297 0.89744 0.90287 0.0
H95 H 0.63759 0.8079 0.87353 0.0
O96 O 0.53642 0.78557 0.9226 0.0
O97 O 0.54834 0.84178 0.90006 0.0
O98 O 0.52206 0.78372 0.84457 0.0
O99 O 0.57855 0.81643 0.83341 0.0
C100 C 0.67601 0.93978 0.94104 0.0
C101 C 0.65047 0.96844 0.93708 0.0
H102 H 0.59368 0.01594 0.9244 0.0
H103 H 0.5342 -0.00117 0.88681 0.0
H104 H 0.6976 0.81565 0.91225 0.0
H105 H 0.71617 0.87682 0.94502 0.0
H106 H 0.70235 0.94563 0.95726 0.0
H107 H 0.65773 0.99599 0.95003 0.0
Mn108 Mn 0.51292 0.29104 0.14564 0.0
Mn109 Mn 0.44592 0.2302 0.1805 0.0
C110 C 0.48764 0.23907 0.11114 0.0
C111 C 0.53477 0.33674 0.10637 0.0
C112 C 0.52949 0.23724 0.20653 0.0
O113 O 0.49048 0.3247 0.18503 0.0
O114 O 0.44753 0.27999 0.20716 0.0
C115 C 0.37226 0.26348 0.16613 0.0
N116 N 0.39644 0.23598 0.15875 0.0
C117 C 0.34829 0.20118 0.12022 0.0
C118 C 0.32295 0.229 0.12776 0.0
C119 C 0.33492 0.26041 0.15063 0.0
C120 C 0.38475 0.20527 0.13733 0.0
H121 H 0.3809 0.28676 0.18483 0.0
C122 C 0.46436 0.31342 0.20751 0.0
O123 O 0.55644 0.32775 0.13369 0.0
O124 O 0.49919 0.3231 0.10503 0.0
N125 N 0.44248 0.18181 0.15519 0.0
C126 C 0.46714 0.15397 0.15694 0.0
C127 C 0.45817 0.11962 0.13733 0.0
C128 C 0.42392 0.11421 0.11612 0.0
C129 C 0.39872 0.14306 0.11507 0.0
C130 C 0.40913 0.17662 0.13535 0.0
H131 H 0.49389 0.15821 0.17248 0.0
O132 O 0.52311 0.25172 0.10764 0.0
O133 O 0.46962 0.25401 0.13824 0.0
O134 O 0.53947 0.26419 0.18608 0.0
O135 O 0.49534 0.22143 0.20515 0.0
C136 C 0.36329 0.13954 0.09536 0.0
C137 C 0.3381 0.16869 0.09787 0.0
H138 H 0.29377 0.22562 0.11745 0.0
H139 H 0.31513 0.28168 0.15697 0.0
H140 H 0.47787 0.09757 0.13821 0.0
H141 H 0.41713 0.08771 0.10098 0.0
H142 H 0.35467 0.11416 0.07901 0.0
H143 H 0.31045 0.16533 0.0834 0.0
Mn144 Mn 0.99238 0.78449 0.14045 0.0
Mn145 Mn 0.05748 0.84294 0.10574 0.0
C146 C 0.04351 0.80386 0.17817 0.0
C147 C 0.94478 0.77248 0.18547 0.0
C148 C 0.04645 0.76332 0.07881 0.0
O149 O 0.95769 0.80843 0.10501 0.0
O150 O 0.00745 0.83849 0.07611 0.0
C151 C 0.0194 0.9143 0.11556 0.0
N152 N 0.0498 0.89339 0.1225 0.0
C153 C 0.08298 0.94494 0.15773 0.0
C154 C 0.05182 0.96679 0.15131 0.0
C155 C 0.01995 0.95143 0.13006 0.0
C156 C 0.08089 0.90814 0.14244 0.0
H157 H -0.00514 0.90278 0.09914 0.0
C158 C 0.97152 0.82694 0.07826 0.0
O159 O 0.95088 0.74772 0.15938 0.0
O160 O 0.96411 0.80416 0.18298 0.0
N161 N 0.10584 0.84995 0.1321 0.0
C162 C 0.13415 0.82569 0.13467 0.0
C163 C 0.16878 0.83745 0.15361 0.0
C164 C 0.17382 0.8739 0.16983 0.0
C165 C 0.14398 0.89808 0.16756 0.0
C166 C 0.11049 0.88513 0.14759 0.0
H167 H 0.1305 0.79773 0.12201 0.0
O168 O 0.03366 0.76865 0.17318 0.0
O169 O 0.0325 0.82443 0.15102 0.0
O170 O 0.01546 0.75652 0.09643 0.0
O171 O 0.06905 0.79258 0.08586 0.0
C172 C 0.14632 0.93465 0.18396 0.0
C173 C 0.11579 0.95806 0.17909 0.0
H174 H 0.05205 0.99537 0.16253 0.0
H175 H -0.00416 0.96817 0.12489 0.0
H176 H 0.19164 0.81857 0.15553 0.0
H177 H 0.20093 0.88325 0.18344 0.0
H178 H 0.17163 0.9452 0.20008 0.0
H179 H 0.11793 0.98618 0.19173 0.0
Mn180 Mn 0.53511 0.80465 0.38811 0.0
Mn181 Mn 0.45384 0.76593 0.4177 0.0
C182 C 0.49728 0.76581 0.34652 0.0
C183 C 0.56965 0.84926 0.35581 0.0
C184 C 0.5344 0.75791 0.4516 0.0
O185 O 0.52118 0.8348 0.43507 0.0
O186 O 0.45753 0.82025 0.43129 0.0
C187 C 0.38948 0.79993 0.38001 0.0
N188 N 0.4091 0.76921 0.38702 0.0
C189 C 0.36032 0.72792 0.35563 0.0
C190 C 0.3404 0.75922 0.34672 0.0
C191 C 0.35508 0.79543 0.35891 0.0
C192 C 0.39543 0.73433 0.375 0.0
H193 H 0.40016 0.82765 0.3903 0.0
C194 C 0.48709 0.83624 0.44822 0.0
O195 O 0.58608 0.83202 0.38203 0.0
O196 O 0.53226 0.84716 0.355 0.0
N197 N 0.45001 0.71356 0.40331 0.0
C198 C 0.47338 0.68626 0.41282 0.0
C199 C 0.46287 0.64857 0.4023 0.0
C200 C 0.42787 0.63918 0.38312 0.0
C201 C 0.40441 0.66766 0.37356 0.0
C202 C 0.417 0.70489 0.38371 0.0
H203 H 0.49954 0.69289 0.42878 0.0
O204 O 0.53423 0.77103 0.34209 0.0
O205 O 0.48539 0.78073 0.37672 0.0
O206 O 0.55083 0.76292 0.42105 0.0
O207 O 0.49806 0.76004 0.45309 0.0
C208 C 0.36841 0.66042 0.35541 0.0
C209 C 0.34624 0.69056 0.34689 0.0
H210 H 0.31354 0.7557 0.33096 0.0
H211 H 0.33953 0.81969 0.35264 0.0
H212 H 0.48106 0.62669 0.41009 0.0
H213 H 0.41869 0.61002 0.37653 0.0
H214 H 0.35729 0.6318 0.34833 0.0
H215 H 0.31796 0.68467 0.33458 0.0
Mn216 Mn 0.50086 0.28371 0.63644 0.0
Mn217 Mn 0.56205 0.35076 0.6079 0.0
C218 C 0.54984 0.30596 0.6769 0.0
C219 C 0.45397 0.26833 0.68312 0.0
C220 C 0.55756 0.2719 0.57487 0.0
O221 O 0.46533 0.30634 0.60022 0.0
O222 O 0.51179 0.34802 0.57939 0.0
C223 C 0.52306 0.41989 0.62663 0.0
N224 N 0.55375 0.39867 0.63068 0.0
C225 C 0.5884 0.44787 0.66788 0.0
C226 C 0.55668 0.46975 0.66498 0.0
C227 C 0.52391 0.45573 0.6442 0.0
C228 C 0.58562 0.41211 0.65028 0.0
H229 H 0.49816 0.40949 0.61017 0.0
C230 C 0.47759 0.33131 0.57791 0.0
O231 O 0.46204 0.24396 0.65751 0.0
O232 O 0.4699 0.30101 0.67846 0.0
N233 N 0.61082 0.35555 0.6333 0.0
C234 C 0.63976 0.33189 0.63121 0.0
C235 C 0.67597 0.34331 0.64711 0.0
C236 C 0.68188 0.37875 0.66529 0.0
C237 C 0.6512 0.40202 0.66846 0.0
C238 C 0.61598 0.38943 0.65132 0.0
H239 H 0.63558 0.30489 0.61664 0.0
O240 O 0.54262 0.2706 0.67049 0.0
O241 O 0.53746 0.3262 0.65037 0.0
O242 O 0.52856 0.25927 0.59305 0.0
O243 O 0.57486 0.30413 0.58163 0.0
C244 C 0.65451 0.43775 0.68675 0.0
C245 C 0.62295 0.46045 0.68688 0.0
H246 H 0.55735 0.4975 0.67818 0.0
H247 H 0.49951 0.47266 0.64149 0.0
H248 H 0.69948 0.32516 0.64473 0.0
H249 H 0.71035 0.38795 0.676 0.0
H250 H 0.68141 0.44844 0.70011 0.0
H251 H 0.62593 0.48797 0.70078 0.0
Mn252 Mn 0.03505 0.30346 0.88283 0.0
Mn253 Mn 0.96 0.24997 0.91034 0.0
C254 C -0.00224 0.26786 0.83767 0.0
C255 C 0.05619 0.35791 0.85307 0.0
C256 C 0.04398 0.23854 0.93119 0.0
O257 O 0.02508 0.32516 0.93424 0.0
O258 O 0.96606 0.29622 0.94361 0.0
C259 C 0.89257 0.2938 0.89682 0.0
N260 N 0.91116 0.26183 0.89154 0.0
C261 C 0.85521 0.22932 0.86227 0.0
C262 C 0.83627 0.26254 0.86515 0.0
C263 C 0.85485 0.29493 0.88267 0.0
C264 C 0.89342 0.23067 0.8746 0.0
H265 H 0.90679 0.31833 0.91102 0.0
C266 C 0.99462 0.31987 0.95335 0.0
O267 O 0.08019 0.33929 0.87194 0.0
O268 O 0.02028 0.34895 0.85872 0.0
N269 N 0.95236 0.20521 0.87982 0.0
C270 C 0.97817 0.18062 0.8686 0.0
C271 C 0.96496 0.14704 0.8494 0.0
C272 C 0.9254 0.13994 0.84095 0.0
C273 C 0.89999 0.16752 0.84994 0.0
C274 C 0.91519 0.20045 0.86869 0.0
H275 H 0.00851 0.18761 0.87306 0.0
O276 O 0.03381 0.27787 0.833 0.0
O277 O 0.98586 0.27641 0.87067 0.0
O278 O 0.06037 0.26012 0.90783 0.0
O279 O 0.00744 0.23365 0.93324 0.0
C280 C 0.86036 0.16413 0.84069 0.0
C281 C 0.8379 0.19504 0.8473 0.0
H282 H 0.8081 0.26372 0.85272 0.0
H283 H 0.84015 0.32058 0.88525 0.0
H284 H 0.98519 0.12691 0.84089 0.0
H285 H 0.91513 0.11397 0.82634 0.0
H286 H 0.84711 0.1383 0.82786 0.0
H287 H 0.80738 0.19241 0.84078 0.0
Mn288 Mn 0.38017 0.00529 0.24059 0.0
Mn289 Mn 0.35207 0.04698 0.31658 0.0
C290 C 0.42549 0.05127 0.2685 0.0
C291 C 0.41108 0.95693 0.21317 0.0
C292 C 0.31345 0.0497 0.23971 0.0
O293 O 0.33338 0.97312 0.25879 0.0
O294 O 0.34055 0.99202 0.31763 0.0
C295 C 0.39727 0.01787 0.3779 0.0
N296 N 0.38554 0.04748 0.35899 0.0
C297 C 0.41228 0.0918 0.40598 0.0
C298 C 0.42476 0.06179 0.42593 0.0
C299 C 0.41745 0.02469 0.41168 0.0
C300 C 0.39303 0.08331 0.37212 0.0
H301 H 0.39076 0.98927 0.36748 0.0
C302 C 0.3239 0.9703 0.29257 0.0
O303 O 0.38467 0.97303 0.19512 0.0
O304 O 0.41401 0.96431 0.24836 0.0
N305 N 0.3623 0.10049 0.3184 0.0
C306 C 0.34857 0.12633 0.29566 0.0
C307 C 0.35519 0.16486 0.30495 0.0
C308 C 0.37435 0.17644 0.33828 0.0
C309 C 0.38641 0.14935 0.36226 0.0
C310 C 0.38037 0.11137 0.3508 0.0
H311 H 0.33299 0.1178 0.27043 0.0
O312 O 0.42718 0.04132 0.23399 0.0
O313 O 0.39543 0.0357 0.28477 0.0
O314 O 0.3437 0.043 0.2223 0.0
O315 O 0.31316 0.04916 0.27508 0.0
C316 C 0.40474 0.1585 0.39677 0.0
C317 C 0.41778 0.12975 0.41856 0.0
H318 H 0.43982 0.06689 0.45225 0.0
H319 H 0.4268 0.00137 0.42702 0.0
H320 H 0.34532 0.18559 0.28657 0.0
H321 H 0.37997 0.20622 0.34489 0.0
H322 H 0.40987 0.1876 0.4064 0.0
H323 H 0.43231 0.13717 0.44477 0.0
Mn324 Mn 0.24682 0.15281 0.52294 0.0
Mn325 Mn 0.19702 0.18386 0.45259 0.0
C326 C 0.1997 0.11284 0.49642 0.0
C327 C 0.29212 0.11123 0.54429 0.0
C328 C 0.19333 0.21688 0.52891 0.0
O329 O 0.28682 0.19014 0.50393 0.0
O330 O 0.24902 0.2131 0.45951 0.0
C331 C 0.24195 0.16953 0.38547 0.0
N332 N 0.20917 0.16309 0.40508 0.0
C333 C 0.17558 0.13341 0.35162 0.0
C334 C 0.20945 0.13864 0.33134 0.0
C335 C 0.24278 0.15671 0.34837 0.0
C336 C 0.17674 0.1461 0.38872 0.0
H337 H 0.26699 0.18485 0.39792 0.0
C338 C 0.28025 0.21388 0.47957 0.0
O339 O 0.28011 0.13771 0.56586 0.0
O340 O 0.27897 0.11097 0.51113 0.0
N341 N 0.1475 0.15721 0.44481 0.0
C342 C 0.11735 0.15413 0.46836 0.0
C343 C 0.0821 0.13569 0.45606 0.0
C344 C 0.07807 0.12114 0.41952 0.0
C345 C 0.10956 0.12467 0.39584 0.0
C346 C 0.14428 0.14243 0.41 0.0
H347 H 0.12018 0.16581 0.4963 0.0
O348 O 0.20246 0.11681 0.5319 0.0
O349 O 0.21627 0.14071 0.47827 0.0
O350 O 0.21834 0.19748 0.54376 0.0
O351 O 0.17943 0.20968 0.49681 0.0
C352 C 0.10773 0.11173 0.35861 0.0
C353 C 0.14057 0.11654 0.33639 0.0
H354 H 0.21011 0.12932 0.3026 0.0
H355 H 0.26884 0.16143 0.3327 0.0
H356 H 0.05796 0.1331 0.47453 0.0
H357 H 0.05067 0.10743 0.40994 0.0
H358 H 0.08116 0.0983 0.34671 0.0
H359 H 0.13855 0.10697 0.30771 0.0
Mn360 Mn 0.14463 0.04456 0.74127 0.0
Mn361 Mn 0.11327 0.1095 0.80036 0.0
C362 C 0.18646 0.09389 0.76329 0.0
C363 C 0.18009 0.99426 0.72869 0.0
C364 C 0.0873 0.09848 0.71948 0.0
O365 O 0.0966 0.0165 0.76114 0.0
O366 O 0.08277 0.06045 0.80488 0.0
C367 C 0.13241 0.08039 0.8736 0.0
N368 N 0.13553 0.10842 0.84914 0.0
C369 C 0.16652 0.15119 0.8954 0.0
C370 C 0.16294 0.12276 0.92121 0.0
C371 C 0.14621 0.08699 0.91008 0.0
C372 C 0.15245 0.14264 0.85934 0.0
H373 H 0.11982 0.05332 0.865 0.0
C374 C 0.07673 0.02798 0.78808 0.0
O375 O 0.15584 0.00516 0.7043 0.0
O376 O 0.17761 0.00762 0.76213 0.0
N377 N 0.14203 0.15755 0.79826 0.0
C378 C 0.14856 0.17972 0.76891 0.0
C379 C 0.16701 0.21601 0.7745 0.0
C380 C 0.17933 0.22878 0.81021 0.0
C381 C 0.17445 0.20455 0.83973 0.0
C382 C 0.15595 0.16872 0.83231 0.0
H383 H 0.14081 0.16919 0.74147 0.0
O384 O 0.19113 0.07779 0.73129 0.0
O385 O 0.15503 0.08291 0.77982 0.0
O386 O 0.11196 0.07592 0.70989 0.0
O387 O 0.0867 0.11383 0.75191 0.0
C388 C 0.18775 0.21428 0.87608 0.0
C389 C 0.18368 0.18762 0.90394 0.0
H390 H 0.17331 0.12792 0.94944 0.0
H391 H 0.14373 0.06463 0.92959 0.0
H392 H 0.17194 0.23401 0.75131 0.0
H393 H 0.19344 0.25679 0.81446 0.0
H394 H 0.20166 0.24197 0.88278 0.0
H395 H 0.19438 0.19523 0.93168 0.0
Mn396 Mn 0.25988 0.90191 0.01577 0.0
Mn397 Mn 0.20118 0.92966 0.94821 0.0
C398 C 0.20699 0.86049 0.99461 0.0
C399 C 0.30904 0.87079 0.04337 0.0
C400 C 0.20611 0.96443 0.0248 0.0
O401 O 0.2945 0.94226 0.99253 0.0
O402 O 0.25325 0.95749 0.94736 0.0
C403 C 0.23964 0.90151 0.88163 0.0
N404 N 0.20741 0.90317 0.90218 0.0
C405 C 0.1673 0.8754 0.85211 0.0
C406 C 0.20014 0.87341 0.83038 0.0
C407 C 0.23653 0.88616 0.84535 0.0
C408 C 0.17242 0.88967 0.88853 0.0
H409 H 0.26729 0.91232 0.89278 0.0
C410 C 0.28481 0.96297 0.96641 0.0
O411 O 0.29533 0.89974 0.05932 0.0
O412 O 0.298 0.86324 0.00929 0.0
N413 N 0.14895 0.90827 0.94554 0.0
C414 C 0.11955 0.91696 0.96813 0.0
C415 C 0.0811 0.90729 0.95687 0.0
C416 C 0.07301 0.89056 0.92169 0.0
C417 C 0.10349 0.88372 0.8981 0.0
C418 C 0.14135 0.89296 0.91126 0.0
H419 H 0.12531 0.93112 0.9947 0.0
O420 O 0.21904 0.862 0.02858 0.0
O421 O 0.22289 0.88704 0.97447 0.0
O422 O 0.23034 0.94322 0.03698 0.0
O423 O 0.19062 0.95979 0.99291 0.0
C424 C 0.09769 0.86949 0.86149 0.0
C425 C 0.12958 0.86523 0.83859 0.0
H426 H 0.1977 0.86259 0.80204 0.0
H427 H 0.26198 0.88498 0.82867 0.0
H428 H 0.05774 0.9134 0.97499 0.0
H429 H 0.0433 0.88384 0.91279 0.0
H430 H 0.06879 0.86231 0.8505 0.0
H431 H 0.1247 0.85515 0.81027 0.0
Mn432 Mn 0.24946 0.42544 0.02239 0.0
Mn433 Mn 0.33078 0.41174 0.07045 0.0
C434 C 0.27711 0.47331 0.06199 0.0
C435 C 0.21212 0.45125 0.97723 0.0
C436 C 0.25443 0.37102 0.08472 0.0
O437 O 0.27173 0.38469 0.99017 0.0
O438 O 0.32448 0.37657 0.02598 0.0
C439 C 0.39412 0.43056 0.01949 0.0
N440 N 0.37596 0.43802 0.05163 0.0
C441 C 0.43363 0.47146 0.07727 0.0
C442 C 0.45255 0.46469 0.04409 0.0
C443 C 0.43254 0.44446 0.01491 0.0
C444 C 0.39476 0.45824 0.07964 0.0
H445 H 0.37993 0.41277 -0.00182 0.0
C446 C 0.30193 0.36777 -0.002 0.0
O447 O 0.19876 0.4226 -0.00461 0.0
O448 O 0.24852 0.46139 0.98251 0.0
N449 N 0.33978 0.44381 0.1136 0.0
C450 C 0.31901 0.44422 0.14514 0.0
C451 C 0.33518 0.46296 0.1771 0.0
C452 C 0.37256 0.48069 0.1765 0.0
C453 C 0.39345 0.47967 0.14378 0.0
C454 C 0.37541 0.46162 0.11238 0.0
H455 H 0.29074 0.4295 0.14613 0.0
O456 O 0.24004 0.46808 0.05692 0.0
O457 O 0.29666 0.44662 0.04788 0.0
O458 O 0.23597 0.38564 0.05929 0.0
O459 O 0.28886 0.38188 0.09415 0.0
C460 C 0.43232 0.49354 0.14182 0.0
C461 C 0.45258 0.48862 0.10884 0.0
H462 H 0.48268 0.47405 0.04105 0.0
H463 H 0.44718 0.43827 0.98951 0.0
H464 H 0.31916 0.46322 0.20237 0.0
H465 H 0.38522 0.49428 0.20152 0.0
H466 H 0.44738 0.50661 0.16594 0.0
H467 H 0.48311 0.49688 0.1084 0.0
Mn468 Mn 0.74573 0.17369 0.00393 0.0
Mn469 Mn 0.80942 0.144 0.0636 0.0
C470 C 0.76526 0.21052 0.05521 0.0
C471 C 0.72365 0.2147 0.96276 0.0
C472 C 0.73097 0.10622 0.05399 0.0
O473 O 0.77355 0.14044 0.96932 0.0
O474 O 0.8091 0.11585 0.01459 0.0
C475 C 0.88409 0.16224 0.02772 0.0
N476 N 0.85973 0.16803 0.05609 0.0
C477 C 0.90971 0.20515 0.09067 0.0
C478 C 0.93539 0.19891 0.06207 0.0
C479 C 0.92237 0.1779 0.0302 0.0
C480 C 0.87198 0.18852 0.08678 0.0
H481 H 0.87476 0.14482 0.00388 0.0
C482 C 0.79652 0.11698 0.98097 0.0
O483 O 0.70379 0.18302 0.9681 0.0
O484 O 0.75849 0.21901 0.97593 0.0
N485 N 0.81158 0.17126 0.11022 0.0
C486 C 0.78383 0.17271 0.13626 0.0
C487 C 0.79155 0.19447 0.16899 0.0
C488 C 0.82785 0.2141 0.17481 0.0
C489 C 0.85594 0.2122 0.14759 0.0
C490 C 0.84621 0.19086 0.11511 0.0
H491 H 0.75594 0.15756 0.13191 0.0
O492 O 0.72953 0.2079 0.04407 0.0
O493 O 0.78601 0.18524 0.04079 0.0
O494 O 0.72228 0.12519 0.02638 0.0
O495 O 0.75968 0.11653 0.07515 0.0
C496 C 0.89334 0.23025 0.15158 0.0
C497 C 0.9204 0.22622 0.12339 0.0
H498 H 0.96532 0.20973 0.06447 0.0
H499 H 0.94204 0.17305 0.00797 0.0
H500 H 0.76967 0.19596 0.18978 0.0
H501 H 0.83386 0.23046 0.2003 0.0
H502 H 0.90181 0.24673 0.1765 0.0
H503 H 0.94941 0.23928 0.12725 0.0
Mn504 Mn 0.13233 0.54979 0.28172 0.0
Mn505 Mn 0.15484 0.49599 0.20964 0.0
C506 C 0.09147 0.5401 0.23024 0.0
C507 C 0.09494 0.56856 0.33041 0.0
C508 C 0.19712 0.56803 0.22655 0.0
O509 O 0.16886 0.51582 0.30761 0.0
O510 O 0.18859 0.49162 0.25369 0.0
C511 C 0.12844 0.42435 0.24411 0.0
N512 N 0.12908 0.44723 0.21476 0.0
C513 C 0.09286 0.4 0.17684 0.0
C514 C 0.09568 0.37464 0.20523 0.0
C515 C 0.11224 0.38716 0.23953 0.0
C516 C 0.10985 0.43651 0.18298 0.0
H517 H 0.14074 0.43425 0.27057 0.0
C518 C 0.19286 0.49767 0.2886 0.0
O519 O 0.12782 0.58686 0.32424 0.0
O520 O 0.08765 0.53661 0.31273 0.0
N521 N 0.12446 0.49793 0.16541 0.0
C522 C 0.12309 0.52659 0.14163 0.0
C523 C 0.10334 0.52014 0.10762 0.0
C524 C 0.08597 0.48413 0.09817 0.0
C525 C 0.08769 0.45508 0.12319 0.0
C526 C 0.1072 0.46342 0.1569 0.0
H527 H 0.13738 0.554 0.14845 0.0
O528 O 0.09458 0.57236 0.24802 0.0
O529 O 0.11613 0.51682 0.23989 0.0
O530 O 0.181 0.57279 0.25747 0.0
O531 O 0.18222 0.54534 0.2015 0.0
C532 C 0.07137 0.41806 0.11589 0.0
C533 C 0.07394 0.39052 0.14271 0.0
H534 H 0.08517 0.34561 0.20086 0.0
H535 H 0.11301 0.36811 0.26213 0.0
H536 H 0.10213 0.54265 0.08842 0.0
H537 H 0.07167 0.47914 0.07156 0.0
H538 H 0.05685 0.41037 0.0898 0.0
H539 H 0.06101 0.36225 0.13694 0.0
Mn540 Mn 0.74676 0.92445 0.52462 0.0
Mn541 Mn 0.82713 0.90618 0.56908 0.0
C542 C 0.78168 0.97525 0.55485 0.0
C543 C 0.70939 0.94585 0.4778 0.0
C544 C 0.74613 0.87519 0.58794 0.0
O545 O 0.76281 0.87524 0.49953 0.0
O546 O 0.82365 0.87352 0.52247 0.0
C547 C 0.8975 0.92557 0.52668 0.0
N548 N 0.87541 0.932 0.55661 0.0
C549 C 0.93008 0.96374 0.58955 0.0
C550 C 0.95284 0.95855 0.55849 0.0
C551 C 0.93635 0.93966 0.52677 0.0
C552 C 0.8911 0.95052 0.58722 0.0
H553 H 0.88585 0.90902 0.50334 0.0
C554 C 0.79569 0.86091 0.50035 0.0
O555 O 0.69508 0.92198 0.50086 0.0
O556 O 0.74691 0.95128 0.47811 0.0
N557 N 0.83188 0.93636 0.61391 0.0
C558 C 0.80595 0.93963 0.64129 0.0
C559 C 0.81737 0.9587 0.67472 0.0
C560 C 0.85561 0.97391 0.67972 0.0
C561 C 0.88151 0.97115 0.65064 0.0
C562 C 0.86784 0.95316 0.61744 0.0
H563 H 0.7769 0.9279 0.63741 0.0
O564 O 0.74459 0.9737 0.54991 0.0
O565 O 0.79716 0.94413 0.54459 0.0
O566 O 0.72864 0.89862 0.57043 0.0
O567 O 0.7825 0.87441 0.58718 0.0
C568 C 0.92065 0.98433 0.65365 0.0
C569 C 0.94504 0.97973 0.6234 0.0
H570 H 0.98316 0.96824 0.55897 0.0
H571 H 0.95391 0.93476 0.50293 0.0
H572 H 0.79695 0.96108 0.69677 0.0
H573 H 0.86474 0.98765 0.7059 0.0
H574 H 0.93248 -0.00284 0.67934 0.0
H575 H 0.97547 0.98766 0.62675 0.0
Mn576 Mn 0.86893 0.02366 0.26587 0.0
Mn577 Mn 0.8875 0.95531 0.20403 0.0
C578 C 0.82629 0.00673 0.21795 0.0
C579 C 0.83314 0.05464 0.30832 0.0
C580 C 0.93066 0.03144 0.20849 0.0
O581 O 0.90586 0.99374 0.29605 0.0
O582 O 0.91955 0.9536 0.2488 0.0
C583 C 0.86244 0.88765 0.2452 0.0
N584 N 0.85877 0.90927 0.2152 0.0
C585 C 0.81818 0.8603 0.18367 0.0
C586 C 0.82154 0.83753 0.21421 0.0
C587 C 0.84337 0.85149 0.24532 0.0
C588 C 0.83674 0.89662 0.18567 0.0
H589 H 0.88054 0.89747 0.26855 0.0
C590 C 0.92542 0.96786 0.28134 0.0
O591 O 0.86753 0.06833 0.30042 0.0
O592 O 0.82453 0.01936 0.29959 0.0
N593 N 0.85709 0.95337 0.1595 0.0
C594 C 0.85975 0.9772 0.13097 0.0
C595 C 0.83886 0.96767 0.09809 0.0
C596 C 0.81559 0.93368 0.0948 0.0
C597 C 0.81462 0.90882 0.12394 0.0
C598 C 0.83546 0.92015 0.15634 0.0
H599 H 0.8784 0.00283 0.13303 0.0
O600 O 0.83282 0.04149 0.22899 0.0
O601 O 0.85025 0.98386 0.23052 0.0
O602 O 0.91439 0.04259 0.23715 0.0
O603 O 0.91974 0.00108 0.19013 0.0
C604 C 0.79579 0.87236 0.12124 0.0
C605 C 0.79835 0.84787 0.1508 0.0
H606 H 0.80777 0.80921 0.21394 0.0
H607 H 0.84644 0.83401 0.2689 0.0
H608 H 0.84165 0.98595 0.07494 0.0
H609 H 0.79975 0.92633 0.06924 0.0
H610 H 0.7803 0.86245 0.09613 0.0
H611 H 0.78549 0.81927 0.14777 0.0
Mn612 Mn 0.25842 0.67446 0.50806 0.0
Mn613 Mn 0.32011 0.65212 0.57409 0.0
C614 C 0.27364 0.71525 0.55782 0.0
C615 C 0.23591 0.71251 0.46345 0.0
C616 C 0.24341 0.60947 0.56115 0.0
O617 O 0.2902 0.63979 0.47783 0.0
O618 O 0.3269 0.62318 0.52658 0.0
C619 C 0.3974 0.67526 0.5467 0.0
N620 N 0.36928 0.6799 0.57169 0.0
C621 C 0.41398 0.71646 0.61275 0.0
C622 C 0.44338 0.71144 0.58754 0.0
C623 C 0.43501 0.69103 0.55419 0.0
C624 C 0.3771 0.69971 0.60386 0.0
H625 H 0.39147 0.65819 0.52216 0.0
C626 C 0.31529 0.61996 0.49248 0.0
O627 O 0.21772 0.6801 0.46928 0.0
O628 O 0.27021 0.71852 0.47751 0.0
N629 N 0.31477 0.6795 0.61993 0.0
C630 C 0.28433 0.6779 0.64318 0.0
C631 C 0.28762 0.69774 0.67741 0.0
C632 C 0.3225 0.71811 0.6878 0.0
C633 C 0.35352 0.71911 0.66351 0.0
C634 C 0.34799 0.7 0.62914 0.0
H635 H 0.25776 0.66156 0.63565 0.0
O636 O 0.23857 0.71054 0.54494 0.0
O637 O 0.29619 0.69014 0.54662 0.0
O638 O 0.23517 0.62706 0.5325 0.0
O639 O 0.27208 0.62086 0.58151 0.0
C640 C 0.39001 0.7374 0.67243 0.0
C641 C 0.42038 0.73568 0.64724 0.0
H642 H 0.47269 0.72195 0.59422 0.0
H643 H 0.45773 0.6862 0.53493 0.0
H644 H 0.26355 0.69683 0.696 0.0
H645 H 0.32525 0.73258 0.71463 0.0
H646 H 0.39531 0.75209 0.69894 0.0
H647 H 0.44866 0.74881 0.65484 0.0
Mn648 Mn 0.36876 0.52981 0.76555 0.0
Mn649 Mn 0.39916 0.46184 0.70905 0.0
C650 C 0.33208 0.50833 0.71528 0.0
C651 C 0.32751 0.56029 0.80355 0.0
C652 C 0.4357 0.54021 0.71317 0.0
O653 O 0.39949 0.50211 0.80205 0.0
O654 O 0.42638 0.46549 0.75814 0.0
C655 C 0.37986 0.39179 0.74911 0.0
N656 N 0.37586 0.41259 0.71866 0.0
C657 C 0.34469 0.35877 0.68499 0.0
C658 C 0.34743 0.33735 0.71652 0.0
C659 C 0.36469 0.35412 0.74889 0.0
C660 C 0.35906 0.39669 0.6874 0.0
H661 H 0.39517 0.40362 0.77303 0.0
C662 C 0.42272 0.4777 0.79171 0.0
O663 O 0.36204 0.57502 0.79794 0.0
O664 O 0.32005 0.52509 0.79359 0.0
N665 N 0.37261 0.45524 0.66209 0.0
C666 C 0.36955 0.48038 0.63494 0.0
C667 C 0.3493 0.46915 0.60201 0.0
C668 C 0.33318 0.43192 0.59696 0.0
C669 C 0.33719 0.40635 0.62505 0.0
C670 C 0.35645 0.41957 0.65777 0.0
H671 H 0.3823 0.5088 0.63853 0.0
O672 O 0.33688 0.54395 0.72371 0.0
O673 O 0.35678 0.48781 0.73063 0.0
O674 O 0.41867 0.54975 0.74215 0.0
O675 O 0.42658 0.50959 0.69492 0.0
C676 C 0.32278 0.36829 0.62189 0.0
C677 C 0.32714 0.34432 0.65159 0.0
H678 H 0.33643 0.30807 0.71618 0.0
H679 H 0.36749 0.3377 0.77326 0.0
H680 H 0.34649 0.48902 0.58037 0.0
H681 H 0.31807 0.42321 0.57133 0.0
H682 H 0.30799 0.35722 0.5969 0.0
H683 H 0.31571 0.31519 0.64891 0.0
Mn684 Mn 0.6361 0.05651 0.78864 0.0
Mn685 Mn 0.6723 0.99596 0.72819 0.0
C686 C 0.60088 0.0351 0.73629 0.0
C687 C 0.59033 0.07318 0.82977 0.0
C688 C 0.70157 0.07728 0.73646 0.0
O689 O 0.67698 0.03545 0.82116 0.0
O690 O 0.70107 -0.00195 0.7764 0.0
C691 C 0.65705 0.92265 0.76287 0.0
N692 N 0.65163 0.94537 0.73408 0.0
C693 C 0.62401 0.89306 0.69608 0.0
C694 C 0.62947 0.86916 0.72533 0.0
C695 C 0.64561 0.88406 0.75901 0.0
C696 C 0.63573 0.93129 0.70167 0.0
H697 H 0.67094 0.93374 0.78818 0.0
C698 C 0.70184 0.01345 0.80907 0.0
O699 O 0.62045 0.09601 0.82379 0.0
O700 O 0.59289 0.03827 0.81999 0.0
N701 N 0.64621 0.99211 0.6811 0.0
C702 C 0.64125 0.01943 0.65649 0.0
C703 C 0.62334 0.00979 0.62211 0.0
C704 C 0.61094 0.97208 0.61333 0.0
C705 C 0.61528 0.9446 0.63959 0.0
C706 C 0.63242 0.95618 0.67375 0.0
H707 H 0.6499 0.04839 0.66359 0.0
O708 O 0.59757 0.06815 0.75106 0.0
O709 O 0.62758 0.0162 0.7509 0.0
O710 O 0.67973 0.08612 0.76254 0.0
O711 O 0.69709 0.04561 0.71891 0.0
C712 C 0.60351 0.90619 0.63324 0.0
C713 C 0.60831 0.88038 0.66131 0.0
H714 H 0.62198 0.8392 0.72206 0.0
H715 H 0.65009 0.86569 0.78161 0.0
H716 H 0.61924 0.03136 0.60241 0.0
H717 H 0.59783 0.96469 0.58653 0.0
H718 H 0.5911 0.8961 0.6068 0.0
H719 H 0.59992 0.85088 0.65573 0.0
Mn720 Mn 0.74471 0.65543 0.01892 0.0
Mn721 Mn 0.68721 0.68237 0.95252 0.0
C722 C 0.69818 0.61291 -0.0044 0.0
C723 C 0.7927 0.61887 0.04207 0.0
C724 C 0.68505 0.71346 0.02897 0.0
O725 O 0.78115 0.69426 -0.00368 0.0
O726 O 0.73578 0.71669 0.95901 0.0
C727 C 0.73478 0.67365 0.88589 0.0
N728 N 0.70179 0.6647 0.90452 0.0
C729 C 0.67222 0.63246 0.85039 0.0
C730 C 0.70616 0.64077 0.83094 0.0
C731 C 0.73761 0.66132 0.84881 0.0
C732 C 0.67135 0.64485 0.88752 0.0
H733 H 0.75864 0.6903 0.89911 0.0
C734 C 0.76973 0.71833 0.97414 0.0
O735 O 0.78043 0.6467 0.06151 0.0
O736 O 0.77883 0.61484 0.00884 0.0
N737 N 0.64057 0.65098 0.94369 0.0
C738 C 0.61039 0.6443 0.96668 0.0
C739 C 0.57703 0.62304 0.95339 0.0
C740 C 0.57486 0.60935 0.91649 0.0
C741 C 0.60632 0.61657 0.89336 0.0
C742 C 0.63909 0.63728 0.90839 0.0
H743 H 0.61172 0.65533 0.99487 0.0
O744 O 0.70322 0.61744 0.03094 0.0
O745 O 0.71193 0.64105 0.97618 0.0
O746 O 0.71489 0.69835 0.03993 0.0
O747 O 0.66753 0.70354 -0.00117 0.0
C748 C 0.60634 0.60431 0.85592 0.0
C749 C 0.6392 0.61241 0.8344 0.0
H750 H 0.70836 0.63154 0.80228 0.0
H751 H 0.76381 0.66807 0.83389 0.0
H752 H 0.55288 0.6176 0.97141 0.0
H753 H 0.54891 0.59336 0.90622 0.0
H754 H 0.58126 0.5886 0.84342 0.0
H755 H 0.63889 0.60279 0.80568 0.0
Mn756 Mn 0.88388 0.50482 0.74213 0.0
Mn757 Mn 0.85326 0.55926 0.81134 0.0
C758 C 0.92438 0.55535 0.76514 0.0
C759 C 0.92301 0.45682 0.72482 0.0
C760 C 0.81709 0.55415 0.73349 0.0
O761 O 0.84186 0.47089 0.76417 0.0
O762 O 0.82854 0.50724 0.81392 0.0
C763 C 0.88665 0.52501 0.87699 0.0
N764 N 0.884 0.55519 0.85532 0.0
C765 C 0.92467 0.59449 0.89775 0.0
C766 C 0.92842 0.56355 0.92001 0.0
C767 C 0.90935 0.5286 0.90953 0.0
C768 C 0.90242 0.58889 0.8651 0.0
H769 H 0.87233 0.49823 0.86895 0.0
C770 C 0.82315 0.47695 0.79343 0.0
O771 O 0.89625 0.46704 0.7025 0.0
O772 O 0.92352 0.47182 0.75743 0.0
N773 N 0.87523 0.61015 0.81126 0.0
C774 C 0.86659 0.63783 0.78818 0.0
C775 C 0.88093 0.67514 0.79645 0.0
C776 C 0.90388 0.68351 0.82842 0.0
C777 C 0.91248 0.65467 0.85163 0.0
C778 C 0.89724 0.61809 0.84211 0.0
H779 H 0.84823 0.63158 0.76407 0.0
O780 O 0.92647 0.54328 0.73112 0.0
O781 O 0.89444 0.541 0.78197 0.0
O782 O 0.84148 0.53374 0.7182 0.0
O783 O 0.81976 0.56549 0.76746 0.0
C784 C 0.93496 0.66105 0.88429 0.0
C785 C 0.94139 0.63088 0.90715 0.0
H786 H 0.9455 0.5664 0.94538 0.0
H787 H 0.91193 0.50455 0.92659 0.0
H788 H 0.87428 0.69735 0.77828 0.0
H789 H 0.91539 0.71197 0.83493 0.0
H790 H 0.94728 0.68909 0.89215 0.0
H791 H 0.9585 0.63614 0.9323 0.0
Mn792 Mn 0.75319 0.39676 0.50457 0.0
Mn793 Mn 0.6946 0.43387 0.44459 0.0
C794 C 0.6925 0.3648 0.49386 0.0
C795 C 0.79968 0.35526 0.52057 0.0
C796 C 0.70886 0.46716 0.51971 0.0
O797 O 0.79243 0.42953 0.47693 0.0
O798 O 0.74862 0.45783 0.44433 0.0
C799 C 0.73127 0.40474 0.37726 0.0
N800 N 0.69907 0.40991 0.39704 0.0
C801 C 0.65776 0.38765 0.34569 0.0
C802 C 0.69052 0.38235 0.32458 0.0
C803 C 0.72745 0.39069 0.34054 0.0
C804 C 0.66347 0.40126 0.38223 0.0
H805 H 0.75949 0.41146 0.38948 0.0
C806 C 0.78295 0.45606 0.45699 0.0
O807 O 0.79384 0.38517 0.5407 0.0
O808 O 0.77852 0.34991 0.49091 0.0
N809 N 0.64127 0.41722 0.44049 0.0
C810 C 0.61287 0.42261 0.46517 0.0
C811 C 0.57412 0.41464 0.45407 0.0
C812 C 0.56491 0.40251 0.4174 0.0
C813 C 0.59466 0.39809 0.39223 0.0
C814 C 0.63275 0.40605 0.40502 0.0
H815 H 0.61978 0.43278 0.49312 0.0
O816 O 0.71004 0.36655 0.52563 0.0
O817 O 0.70907 0.38708 0.46925 0.0
O818 O 0.73479 0.44546 0.52839 0.0
O819 O 0.68701 0.46133 0.49136 0.0
C820 C 0.58816 0.38533 0.3552 0.0
C821 C 0.61968 0.3799 0.332 0.0
H822 H 0.68767 0.37189 0.29614 0.0
H823 H 0.75287 0.38672 0.32444 0.0
H824 H 0.5515 0.41796 0.47377 0.0
H825 H 0.53498 0.3964 0.40897 0.0
H826 H 0.55908 0.37923 0.34438 0.0
H827 H 0.61431 0.36961 0.30375 0.0
Mn828 Mn 0.63701 0.52884 0.23752 0.0
Mn829 Mn 0.61785 0.59823 0.29744 0.0
C830 C 0.68596 0.57152 0.25837 0.0
C831 C 0.66329 0.4723 0.22722 0.0
C832 C 0.59664 0.59613 0.21501 0.0
O833 O 0.58322 0.51177 0.25441 0.0
O834 O 0.57719 0.5559 0.29944 0.0
C835 C 0.62681 0.56205 0.36921 0.0
N836 N 0.63732 0.59019 0.34607 0.0
C837 C 0.67634 0.6237 0.39393 0.0
C838 C 0.66584 0.59512 0.41828 0.0
C839 C 0.64132 0.56396 0.40575 0.0
C840 C 0.66178 0.61978 0.35757 0.0
H841 H 0.6071 0.5386 0.35993 0.0
C842 C 0.56344 0.52765 0.27898 0.0
O843 O 0.64162 0.48592 0.20201 0.0
O844 O 0.66118 0.4872 0.26008 0.0
N845 N 0.65448 0.64123 0.29808 0.0
C846 C 0.66003 0.66751 0.27185 0.0
C847 C 0.68362 0.7006 0.28006 0.0
C848 C 0.70055 0.70679 0.31543 0.0
C849 C 0.69392 0.67968 0.34222 0.0
C850 C 0.67069 0.64692 0.33222 0.0
H851 H 0.64626 0.6634 0.24494 0.0
O852 O 0.68912 0.55219 0.22796 0.0
O853 O 0.65386 0.56551 0.27581 0.0
O854 O 0.61257 0.56639 0.20559 0.0
O855 O 0.59724 0.60888 0.24843 0.0
C856 C 0.70844 0.68443 0.37879 0.0
C857 C 0.69986 0.65638 0.40456 0.0
H858 H 0.67607 0.59703 0.44674 0.0
H859 H 0.63305 0.54182 0.42443 0.0
H860 H 0.68816 0.7216 0.25936 0.0
H861 H 0.71815 0.73266 0.32185 0.0
H862 H 0.72578 0.70977 0.38755 0.0
H863 H 0.71104 0.66047 0.43264 0.0
O864 O 0.16833 0.20582 0.12179 0.0
Mn865 Mn 0.13594 0.15828 0.13717 0.0
O866 O 0.19586 0.23329 0.17362 0.0
Mn867 Mn 0.179 0.19643 0.20573 0.0
O868 O 0.09721 0.1135 0.15549 0.0
O869 O 0.10196 0.16412 0.08956 0.0
Mn870 Mn 0.09623 0.11287 0.08451 0.0
O871 O 0.17335 0.12597 0.10863 0.0
O872 O 0.05357 0.10323 0.10981 0.0
O873 O 0.09968 0.19058 0.16964 0.0
O874 O 0.13121 0.20032 0.22444 0.0
O875 O 0.10377 0.12724 0.03867 0.0
O876 O 0.13107 0.07918 0.09694 0.0
C877 C 0.19961 0.14204 0.20312 0.0
C878 C 0.18838 0.23267 0.13905 0.0
C879 C 0.06216 0.10384 0.14389 0.0
C880 C 0.10451 0.16101 0.05317 0.0
C881 C 0.16543 0.09132 0.10136 0.0
C882 C 0.10057 0.19873 0.20474 0.0
O883 O 0.17365 0.15325 0.18048 0.0
O884 O 0.2122 0.16671 0.22837 0.0
O885 O 0.07681 0.86509 0.35662 0.0
Mn886 Mn 0.11552 0.89922 0.39192 0.0
O887 O 0.11625 0.83788 0.31857 0.0
Mn888 Mn 0.15631 0.84031 0.35127 0.0
O889 O 0.15115 0.93993 0.42409 0.0
O890 O 0.07573 0.93733 0.3881 0.0
Mn891 Mn 0.06615 0.95888 0.43071 0.0
O892 O 0.09 0.88023 0.44144 0.0
O893 O 0.11147 0.98429 0.44383 0.0
O894 O 0.14783 0.91883 0.345 0.0
O895 O 0.19135 0.87528 0.33574 0.0
O896 O 0.03197 0.97735 0.39888 0.0
O897 O 0.04932 0.92213 0.462 0.0
C898 C 0.15607 0.8237 0.40661 0.0
C899 C 0.08381 0.84882 0.32548 0.0
C900 C 0.1446 0.97219 0.43986 0.0
C901 C 0.04642 0.95374 0.37593 0.0
C902 C 0.06668 0.89242 0.46577 0.0
C903 C 0.17929 0.90751 0.33027 0.0
O904 O 0.15462 0.8589 0.39786 0.0
O905 O 0.15524 0.79967 0.37901 0.0
O906 O 0.43418 0.95888 0.66475 0.0
Mn907 Mn 0.39116 0.92481 0.63561 0.0
O908 O 0.4663 0.99222 0.62136 0.0
Mn909 Mn 0.43504 0.97678 0.58125 0.0
O910 O 0.34958 0.88877 0.60413 0.0
O911 O 0.39318 0.88795 0.67614 0.0
Mn912 Mn 0.34956 0.86076 0.6782 0.0
O913 O 0.34618 0.94736 0.66309 0.0
O914 O 0.34734 0.8349 0.63432 0.0
O915 O 0.43495 0.89891 0.60777 0.0
O916 O 0.44892 0.93377 0.55867 0.0
O917 O 0.37813 0.84573 0.71682 0.0
O918 O 0.3131 0.89543 0.68464 0.0
C919 C 0.37799 0.99331 0.57936 0.0
C920 C 0.46252 0.98132 0.65433 0.0
C921 C 0.33998 0.85305 0.60606 0.0
C922 C 0.40324 0.87119 0.70532 0.0
C923 C 0.31662 0.93041 0.6779 0.0
C924 C 0.45202 0.90444 0.57706 0.0
O925 O 0.38879 0.96564 0.59835 0.0
O926 O 0.40443 0.00916 0.55905 0.0
O927 O 0.41458 0.1975 0.94188 0.0
Mn928 Mn 0.38772 0.17452 0.89161 0.0
O929 O 0.46361 0.16283 0.95387 0.0
Mn930 Mn 0.44115 0.12242 0.92739 0.0
O931 O 0.35637 0.14815 0.84534 0.0
O932 O 0.34966 0.21561 0.89926 0.0
Mn933 Mn 0.3307 0.22244 0.85505 0.0
O934 O 0.4184 0.21048 0.85555 0.0
O935 O 0.30316 0.1796 0.84179 0.0
O936 O 0.35541 0.13466 0.92285 0.0
O937 O 0.39871 0.09702 0.94548 0.0
O938 O 0.30708 0.25588 0.88286 0.0
O939 O 0.37064 0.23588 0.82415 0.0
C940 C 0.45759 0.11712 0.87374 0.0
C941 C 0.44284 0.18907 0.96292 0.0
C942 C 0.32106 0.15092 0.83474 0.0
C943 C 0.32798 0.24274 0.9087 0.0
C944 C 0.40568 0.2284 0.82798 0.0
C945 C 0.36438 0.10503 0.93967 0.0
O946 O 0.42997 0.13813 0.88345 0.0
O947 O 0.47143 0.09622 0.89863 0.0
O948 O 0.57705 0.36637 0.85479 0.0
Mn949 Mn 0.61329 0.40069 0.89163 0.0
O950 O 0.61797 0.34073 0.81715 0.0
Mn951 Mn 0.65645 0.3411 0.85148 0.0
O952 O 0.647 0.44036 0.92602 0.0
O953 O 0.57301 0.43765 0.88731 0.0
Mn954 Mn 0.56302 0.45996 0.92929 0.0
O955 O 0.58619 0.38023 0.93923 0.0
O956 O 0.60802 0.48669 0.94132 0.0
O957 O 0.64757 0.42182 0.84727 0.0
O958 O 0.69165 0.3781 0.83981 0.0
O959 O 0.5284 0.47695 0.89732 0.0
O960 O 0.54666 0.42307 0.96034 0.0
C961 C 0.65148 0.32767 0.90888 0.0
C962 C 0.58511 0.3509 0.82368 0.0
C963 C 0.64087 0.47362 0.93946 0.0
C964 C 0.54357 0.45335 0.87481 0.0
C965 C 0.56308 0.39273 0.96346 0.0
C966 C 0.68065 0.41109 0.83598 0.0
O967 O 0.6522 0.36158 0.89729 0.0
O968 O 0.64948 0.3023 0.88254 0.0
O969 O 0.92231 0.46615 0.16055 0.0
Mn970 Mn 0.88399 0.42701 0.13186 0.0
O971 O 0.96217 0.48311 0.11558 0.0
Mn972 Mn 0.92661 0.47317 0.07737 0.0
O973 O 0.84663 0.38501 0.1025 0.0
O974 O 0.88924 0.39389 0.1766 0.0
Mn975 Mn 0.84321 0.37118 0.18288 0.0
O976 O 0.83586 0.45027 0.15616 0.0
O977 O 0.83045 0.34043 0.14317 0.0
O978 O 0.93143 0.40206 0.10431 0.0
O979 O 0.9341 0.43114 0.05061 0.0
O980 O 0.87084 0.3534 0.21956 0.0
O981 O 0.80941 0.40651 0.19348 0.0
C982 C 0.87672 0.49963 0.08374 0.0
C983 C 0.95412 0.48203 0.14941 0.0
C984 C 0.83102 0.3522 0.11071 0.0
C985 C 0.89789 0.37555 0.20587 0.0
C986 C 0.80978 0.43824 0.1787 0.0
C987 C 0.94335 0.40458 0.07047 0.0
O988 O 0.87774 0.46364 0.0899 0.0
O989 O 0.90547 0.51531 0.06605 0.0
O990 O 0.90055 0.69386 0.43842 0.0
Mn991 Mn 0.87879 0.6684 0.38666 0.0
O992 O 0.95771 0.67543 0.44254 0.0
Mn993 Mn 0.92726 0.63487 0.42511 0.0
O994 O 0.85012 0.64344 0.33853 0.0
O995 O 0.83866 0.70774 0.39563 0.0
Mn996 Mn 0.81895 0.71531 0.35206 0.0
O997 O 0.90836 0.70779 0.35318 0.0
O998 O 0.79456 0.67132 0.33621 0.0
O999 O 0.84564 0.62587 0.41314 0.0
O1000 O 0.88903 0.61138 0.45309 0.0
O1001 O 0.79408 0.74651 0.3816 0.0
O1002 O 0.85907 0.73263 0.32311 0.0
C1003 C 0.95205 0.60814 0.38435 0.0
C1004 C 0.93339 0.69564 0.45513 0.0
C1005 C 0.81484 0.64477 0.32719 0.0
C1006 C 0.81661 0.73418 0.40656 0.0
C1007 C 0.89465 0.72704 0.32696 0.0
C1008 C 0.85594 0.60532 0.43908 0.0
O1009 O 0.92519 0.6316 0.37543 0.0
O1010 O 0.95812 0.60037 0.41842 0.0
O1011 O 0.85404 0.87699 0.92046 0.0
Mn1012 Mn 0.88617 0.91894 0.8949 0.0
O1013 O 0.82709 0.84072 0.87316 0.0
Mn1014 Mn 0.8376 0.87277 0.834 0.0
O1015 O 0.9203 0.96018 0.86801 0.0
O1016 O 0.92238 0.92007 0.93794 0.0
Mn1017 Mn 0.94318 0.96505 0.94901 0.0
O1018 O 0.85691 0.96029 0.92009 0.0
O1019 O 0.97043 0.97228 0.90707 0.0
O1020 O 0.91781 0.8789 0.86674 0.0
O1021 O 0.88462 0.86871 0.81303 0.0
O1022 O 0.95823 0.93446 0.98609 0.0
O1023 O 0.90212 0.99529 0.95441 0.0
C1024 C 0.81629 0.92807 0.83899 0.0
C1025 C 0.83492 0.84721 0.90756 0.0
C1026 C 0.9548 0.97415 0.87519 0.0
C1027 C 0.93691 0.90865 0.96787 0.0
C1028 C 0.86827 0.98948 0.94003 0.0
C1029 C 0.91528 0.86737 0.83261 0.0
O1030 O 0.84687 0.91761 0.85451 0.0
O1031 O 0.79995 0.90247 0.81657 0.0
O1032 O 0.91876 0.22516 0.67165 0.0
Mn1033 Mn 0.88948 0.18855 0.62956 0.0
O1034 O 0.87083 0.24922 0.7035 0.0
Mn1035 Mn 0.82869 0.23189 0.67377 0.0
O1036 O 0.85742 0.14879 0.59203 0.0
O1037 O 0.93705 0.15572 0.62725 0.0
Mn1038 Mn 0.93996 0.15265 0.57774 0.0
O1039 O 0.90838 0.22395 0.58697 0.0
O1040 O 0.90095 0.1199 0.55969 0.0
O1041 O 0.86424 0.15612 0.67239 0.0
O1042 O 0.80973 0.18511 0.68494 0.0
O1043 O 0.98103 0.13008 0.59052 0.0
O1044 O 0.94977 0.19562 0.55211 0.0
C1045 C 0.82747 0.24864 0.61731 0.0
C1046 C 0.90664 0.24506 0.69948 0.0
C1047 C 0.86626 0.12253 0.56859 0.0
C1048 C 0.96712 0.1353 0.62318 0.0
C1049 C 0.93068 0.22351 0.5593 0.0
C1050 C 0.83115 0.15794 0.68825 0.0
O1051 O 0.84572 0.22161 0.63001 0.0
O1052 O 0.80607 0.26368 0.64169 0.0
O1053 O 0.65818 0.19369 0.42764 0.0
Mn1054 Mn 0.63026 0.15018 0.39336 0.0
O1055 O 0.70946 0.21781 0.39955 0.0
Mn1056 Mn 0.68964 0.19458 0.35664 0.0
O1057 O 0.59305 0.11092 0.35985 0.0
O1058 O 0.5877 0.15331 0.43066 0.0
Mn1059 Mn 0.56493 0.10866 0.43878 0.0
O1060 O 0.65243 0.10666 0.42495 0.0
O1061 O 0.54147 0.09424 0.39505 0.0
O1062 O 0.60562 0.19115 0.36064 0.0
O1063 O 0.65427 0.21891 0.33066 0.0
O1064 O 0.5453 0.1412 0.47279 0.0
O1065 O 0.60223 0.07848 0.45417 0.0
C1066 C 0.70875 0.14674 0.33467 0.0
C1067 C 0.68689 0.21837 0.42624 0.0
C1068 C 0.5575 0.09706 0.36392 0.0
C1069 C 0.57046 0.16563 0.45966 0.0
C1070 C 0.63796 0.08143 0.44689 0.0
C1071 C 0.61867 0.21465 0.33668 0.0
O1072 O 0.6784 0.14442 0.35713 0.0
O1073 O 0.72505 0.17952 0.32743 0.0
O1074 O 0.61167 0.85885 0.09471 0.0
Mn1075 Mn 0.63089 0.89732 0.13657 0.0
O1076 O 0.5686 0.88877 0.06272 0.0
Mn1077 Mn 0.57188 0.93197 0.09189 0.0
O1078 O 0.65523 0.93682 0.17648 0.0
O1079 O 0.6789 0.86988 0.13592 0.0
Mn1080 Mn 0.70061 0.87053 0.18011 0.0
O1081 O 0.60942 0.86371 0.17816 0.0
O1082 O 0.71665 0.92045 0.17967 0.0
O1083 O 0.65537 0.93547 0.09777 0.0
O1084 O 0.6081 0.96988 0.08122 0.0
O1085 O 0.71485 0.82771 0.15499 0.0
O1086 O 0.66215 0.86221 0.21477 0.0
C1087 C 0.54498 0.93428 0.14134 0.0
C1088 C 0.58984 0.86157 0.06642 0.0
C1089 C 0.6914 0.94438 0.18433 0.0
C1090 C 0.69096 0.83692 0.12994 0.0
C1091 C 0.6257 0.8591 0.20954 0.0
C1092 C 0.6437 0.96491 0.08259 0.0
O1093 O 0.57848 0.92019 0.13816 0.0
O1094 O 0.52878 0.94627 0.11189 0.0
O1095 O 0.42348 0.71738 0.17983 0.0
Mn1096 Mn 0.39216 0.68431 0.13732 0.0
O1097 O 0.3759 0.73476 0.21727 0.0
Mn1098 Mn 0.33387 0.72382 0.18591 0.0
O1099 O 0.35406 0.64976 0.09988 0.0
O1100 O 0.43955 0.6501 0.13288 0.0
Mn1101 Mn 0.42945 0.64105 0.08435 0.0
O1102 O 0.41343 0.71952 0.09539 0.0
O1103 O 0.39005 0.60545 0.07944 0.0
O1104 O 0.36615 0.64981 0.17886 0.0
O1105 O 0.31058 0.67685 0.18655 0.0
O1106 O 0.47383 0.62208 0.08836 0.0
O1107 O 0.42907 0.67918 0.05147 0.0
C1108 C 0.33394 0.75134 0.13541 0.0
C1109 C 0.41155 0.73362 0.20993 0.0
C1110 C 0.35722 0.61661 0.08504 0.0
C1111 C 0.46832 0.62928 0.12313 0.0
C1112 C 0.42269 0.71213 0.06197 0.0
C1113 C 0.331 0.64927 0.19045 0.0
O1114 O 0.35263 0.7223 0.14195 0.0
O1115 O 0.31243 0.76179 0.16213 0.0
O1116 O 0.15362 0.69215 0.91842 0.0
Mn1117 Mn 0.12361 0.64903 0.88756 0.0
O1118 O 0.17754 0.72918 0.87436 0.0
Mn1119 Mn 0.16821 0.69342 0.83687 0.0
O1120 O 0.09252 0.6076 0.85294 0.0
O1121 O 0.08334 0.65222 0.93012 0.0
Mn1122 Mn 0.05902 0.60756 0.92193 0.0
O1123 O 0.14791 0.6069 0.91777 0.0
O1124 O 0.03502 0.60715 0.87705 0.0
O1125 O 0.09285 0.68902 0.859 0.0
O1126 O 0.12604 0.69931 0.8087 0.0
O1127 O 0.03196 0.62639 0.95889 0.0
O1128 O 0.09422 0.57205 0.93212 0.0
C1129 C 0.19826 0.64838 0.82509 0.0
C1130 C 0.16948 0.72344 0.9077 0.0
C1131 C 0.05579 0.60188 0.84963 0.0
C1132 C 0.05801 0.65418 0.95684 0.0
C1133 C 0.13099 0.57791 0.933 0.0
C1134 C 0.09538 0.70139 0.82622 0.0
O1135 O 0.16983 0.64557 0.84948 0.0
O1136 O 0.20781 0.68087 0.81132 0.0
O1137 O 0.09241 0.37366 0.59388 0.0
Mn1138 Mn 0.12132 0.40722 0.63462 0.0
O1139 O 0.07696 0.4174 0.55442 0.0
Mn1140 Mn 0.07535 0.45907 0.58675 0.0
O1141 O 0.15562 0.44021 0.67178 0.0
O1142 O 0.15955 0.36767 0.6358 0.0
Mn1143 Mn 0.16625 0.35329 0.68108 0.0
O1144 O 0.09081 0.3832 0.68033 0.0
O1145 O 0.1812 0.39772 0.70776 0.0
O1146 O 0.15409 0.43869 0.59437 0.0
O1147 O 0.11982 0.48902 0.58554 0.0
O1148 O 0.19543 0.32367 0.65163 0.0
O1149 O 0.11878 0.33151 0.69211 0.0
C1150 C 0.04581 0.44977 0.63683 0.0
C1151 C 0.08504 0.38392 0.56117 0.0
C1152 C 0.18022 0.43109 0.69596 0.0
C1153 C 0.17799 0.33927 0.62501 0.0
C1154 C 0.09442 0.35431 0.7004 0.0
C1155 C 0.15156 0.47336 0.58446 0.0
O1156 O 0.08168 0.44477 0.63223 0.0
O1157 O 0.02984 0.46657 0.61019 0.0
O1158 O 0.67528 0.70913 0.62716 0.0
Mn1159 Mn 0.63939 0.66249 0.64021 0.0
O1160 O 0.71195 0.72759 0.67724 0.0
Mn1161 Mn 0.68761 0.69498 0.70939 0.0
O1162 O 0.5983 0.61985 0.65568 0.0
O1163 O 0.60945 0.67126 0.59183 0.0
Mn1164 Mn 0.59463 0.62511 0.57414 0.0
O1165 O 0.67201 0.62451 0.61172 0.0
O1166 O 0.56116 0.6029 0.60579 0.0
O1167 O 0.60666 0.69815 0.67333 0.0
O1168 O 0.6414 0.70811 0.72689 0.0
O1169 O 0.57581 0.6547 0.54023 0.0
O1170 O 0.63631 0.5988 0.56388 0.0
C1171 C 0.69971 0.63795 0.70379 0.0
C1172 C 0.69974 0.73245 0.64459 0.0
C1173 C 0.56697 0.60446 0.64034 0.0
C1174 C 0.59226 0.68136 0.56163 0.0
C1175 C 0.66637 0.60105 0.58423 0.0
C1176 C 0.61053 0.70948 0.70775 0.0
O1177 O 0.6744 0.65345 0.68383 0.0
O1178 O 0.71506 0.65928 0.73057 0.0
O1179 O 0.36678 0.3744 0.43331 0.0
Mn1180 Mn 0.38591 0.41725 0.39854 0.0
O1181 O 0.31077 0.34753 0.41091 0.0
Mn1182 Mn 0.31624 0.37023 0.36672 0.0
O1183 O 0.40954 0.45819 0.36289 0.0
O1184 O 0.43593 0.41688 0.42622 0.0
Mn1185 Mn 0.45982 0.46199 0.42968 0.0
O1186 O 0.36903 0.4587 0.43477 0.0
O1187 O 0.47216 0.46636 0.38103 0.0
O1188 O 0.40345 0.37806 0.35937 0.0
O1189 O 0.34956 0.3495 0.33396 0.0
O1190 O 0.47985 0.4344 0.46704 0.0
O1191 O 0.42365 0.49497 0.44492 0.0
C1192 C 0.30245 0.42501 0.35522 0.0
C1193 C 0.33783 0.35018 0.4348 0.0
C1194 C 0.44532 0.46828 0.35691 0.0
C1195 C 0.45269 0.40934 0.45679 0.0
C1196 C 0.38729 0.48866 0.44851 0.0
C1197 C 0.38604 0.35587 0.33464 0.0
O1198 O 0.3338 0.41798 0.37282 0.0
O1199 O 0.27799 0.39618 0.34823 0.0
C1200 C 0.04966 0.26945 0.25194 0.0
C1201 C 0.05256 0.25442 0.28793 0.0
C1202 C 0.06089 0.19249 0.25937 0.0
C1203 C 0.06655 0.20973 0.22504 0.0
N1204 N 0.05471 0.25954 0.18519 0.0
N1205 N 0.05751 0.20088 0.32614 0.0
C1206 C 0.05563 0.24631 0.22013 0.0
C1207 C 0.05595 0.21534 0.29172 0.0
N1208 N 0.04216 0.30607 0.24827 0.0
N1209 N 0.06335 0.15451 0.26068 0.0
H1210 H 0.05461 0.21712 0.35032 0.0
H1211 H 0.06319 0.17326 0.33111 0.0
H1212 H 0.06827 0.13844 0.2368 0.0
H1213 H 0.05813 0.13888 0.28404 0.0
H1214 H 0.03275 0.31699 0.22381 0.0
H1215 H 0.04309 0.32532 0.27034 0.0
H1216 H 0.05037 0.28711 0.17873 0.0
H1217 H 0.0575 0.2418 0.162 0.0
C1218 C 0.06188 0.82538 0.54595 0.0
C1219 C 0.05686 0.85113 0.57597 0.0
C1220 C 0.07007 0.90281 0.53485 0.0
C1221 C 0.06568 0.87708 0.50354 0.0
N1222 N 0.05226 0.81306 0.48016 0.0
N1223 N 0.05283 0.91494 0.59848 0.0
C1224 C 0.06019 0.838 0.50925 0.0
C1225 C 0.05999 0.8901 0.57032 0.0
N1226 N 0.06887 0.78907 0.5526 0.0
N1227 N 0.08561 0.93884 0.53115 0.0
H1228 H 0.04717 0.90636 0.62525 0.0
H1229 H 0.05039 0.94352 0.59453 0.0
H1230 H 0.09697 0.94841 0.50646 0.0
H1231 H 0.09172 0.95753 0.55363 0.0
H1232 H 0.0738 0.76917 0.53179 0.0
H1233 H 0.07485 0.78055 0.5792 0.0
H1234 H 0.04464 0.78455 0.48354 0.0
H1235 H 0.05007 0.8214 0.45295 0.0
C1236 C 0.46602 0.84002 0.77047 0.0
C1237 C 0.46662 0.86863 0.79865 0.0
C1238 C 0.43646 0.9095 0.75578 0.0
C1239 C 0.43793 0.88079 0.72784 0.0
N1240 N 0.46684 0.82618 0.70467 0.0
N1241 N 0.45406 0.93162 0.81847 0.0
C1242 C 0.45865 0.84932 0.73384 0.0
C1243 C 0.45315 0.90418 0.79119 0.0
N1244 N 0.46888 0.80337 0.77901 0.0
N1245 N 0.41624 0.93998 0.74926 0.0
H1246 H 0.46009 0.92604 0.84595 0.0
H1247 H 0.449 0.95952 0.81386 0.0
H1248 H 0.40368 0.94381 0.72351 0.0
H1249 H 0.41067 0.96041 0.76929 0.0
H1250 H 0.46637 0.78122 0.75933 0.0
H1251 H 0.46787 0.79482 0.80614 0.0
H1252 H 0.48319 0.80303 0.70738 0.0
H1253 H 0.45994 0.8327 0.67755 0.0
C1254 C 0.47635 0.18859 0.06211 0.0
C1255 C 0.46716 0.22374 0.07704 0.0
C1256 C 0.44018 0.23843 0.01635 0.0
C1257 C 0.44632 0.20157 0.00293 0.0
N1258 N 0.45149 0.13734 0.02223 0.0
N1259 N 0.42918 0.27782 0.07032 0.0
C1260 C 0.45844 0.17521 0.02868 0.0
C1261 C 0.44506 0.24719 0.05501 0.0
N1262 N 0.50281 0.1681 0.07889 0.0
N1263 N 0.43217 0.26568 0.99249 0.0
H1264 H 0.43092 0.28502 0.09838 0.0
H1265 H 0.41045 0.29358 0.05564 0.0
H1266 H 0.43104 0.26085 0.964 0.0
H1267 H 0.43083 0.29386 0.00079 0.0
H1268 H 0.51208 0.14349 0.06663 0.0
H1269 H 0.51755 0.17712 0.10329 0.0
H1270 H 0.45865 0.11772 0.04143 0.0
H1271 H 0.43378 0.12615 0.00053 0.0
C1272 C 0.04539 0.85682 0.22873 0.0
C1273 C 0.04122 0.81777 0.21884 0.0
C1274 C 0.03959 0.80685 0.28653 0.0
C1275 C 0.05629 0.84349 0.29381 0.0
N1276 N 0.07958 0.90295 0.26954 0.0
N1277 N 0.02512 0.75488 0.24365 0.0
C1278 C 0.06009 0.86853 0.26433 0.0
C1279 C 0.0352 0.79248 0.24923 0.0
N1280 N 0.03166 0.88274 0.20631 0.0
N1281 N 0.02818 0.78563 0.31566 0.0
H1282 H 0.00749 0.74347 0.22206 0.0
H1283 H 0.03085 0.73517 0.26323 0.0
H1284 H 0.03117 0.79629 0.34289 0.0
H1285 H 0.01256 0.75953 0.31279 0.0
H1286 H 0.03304 0.91128 0.21387 0.0
H1287 H 0.01283 0.87518 0.18425 0.0
H1288 H 0.08591 0.92064 0.24773 0.0
H1289 H 0.09116 0.91239 0.29522 0.0
C1290 C 0.45788 0.82801 0.51222 0.0
C1291 C 0.48313 0.84886 0.48749 0.0
C1292 C 0.50622 0.89013 0.53957 0.0
C1293 C 0.47491 0.87585 0.56001 0.0
N1294 N 0.43502 0.82199 0.57564 0.0
N1295 N 0.52799 0.90326 0.4784 0.0
C1296 C 0.45543 0.8414 0.54952 0.0
C1297 C 0.50738 0.88025 0.5016 0.0
N1298 N 0.4359 0.79617 0.50065 0.0
N1299 N 0.53242 0.91591 0.55619 0.0
H1300 H 0.52641 0.90005 0.44971 0.0
H1301 H 0.54292 0.92844 0.48735 0.0
H1302 H 0.52984 0.92438 0.58392 0.0
H1303 H 0.55793 0.9254 0.54374 0.0
H1304 H 0.41657 0.78123 0.51716 0.0
H1305 H 0.43693 0.7825 0.47512 0.0
H1306 H 0.42046 0.79559 0.57154 0.0
H1307 H 0.43575 0.83135 0.60329 0.0
C1308 C 0.42752 0.22066 0.72872 0.0
C1309 C 0.43812 0.25871 0.72069 0.0
C1310 C 0.43836 0.27525 0.78796 0.0
C1311 C 0.42961 0.237 0.79532 0.0
N1312 N 0.42501 0.17222 0.77428 0.0
N1313 N 0.44593 0.32399 0.74332 0.0
C1314 C 0.42759 0.20942 0.76609 0.0
C1315 C 0.44157 0.28655 0.7506 0.0
N1316 N 0.41385 0.19596 0.70104 0.0
N1317 N 0.44159 0.3008 0.81714 0.0
H1318 H 0.43635 0.33449 0.7186 0.0
H1319 H 0.45581 0.34516 0.76239 0.0
H1320 H 0.44108 0.29233 0.84447 0.0
H1321 H 0.44537 0.32983 0.81499 0.0
H1322 H 0.40274 0.16857 0.70557 0.0
H1323 H 0.40829 0.20451 0.67437 0.0
H1324 H 0.42695 0.15052 0.75452 0.0
H1325 H 0.42473 0.16344 0.80145 0.0
C1326 C 0.09196 0.24089 0.98619 0.0
C1327 C 0.06627 0.22007 0.96034 0.0
C1328 C 0.05551 0.17197 0.00571 0.0
C1329 C 0.0869 0.18767 0.02795 0.0
N1330 N 0.13724 0.23732 0.03772 0.0
N1331 N 0.03735 0.15857 0.94235 0.0
C1332 C 0.1059 0.22237 0.0178 0.0
C1333 C 0.05211 0.1834 0.96923 0.0
N1334 N 0.10184 0.27823 0.98177 0.0
N1335 N 0.02998 0.14489 0.01885 0.0
H1336 H 0.04141 0.1642 0.91468 0.0
H1337 H 0.02791 0.13079 0.94756 0.0
H1338 H 0.0311 0.13681 0.04625 0.0
H1339 H 0.00573 0.13394 0.00355 0.0
H1340 H 0.117 0.29523 0.00193 0.0
H1341 H 0.09268 0.29282 0.95926 0.0
H1342 H 0.15443 0.26079 0.02976 0.0
H1343 H 0.14693 0.22457 0.06114 0.0
C1344 C 0.24124 0.05601 0.23713 0.0
C1345 C 0.27757 0.06038 0.21961 0.0
C1346 C 0.25124 0.10429 0.17708 0.0
C1347 C 0.21875 0.10642 0.19992 0.0
N1348 N 0.17751 0.07896 0.24564 0.0
N1349 N 0.30535 0.0689 0.15938 0.0
C1350 C 0.21179 0.07993 0.22769 0.0
C1351 C 0.2791 0.07822 0.18511 0.0
N1352 N 0.23472 0.0278 0.2613 0.0
N1353 N 0.25671 0.1288 0.14924 0.0
H1354 H 0.32254 0.04647 0.16231 0.0
H1355 H 0.30577 0.07914 0.13279 0.0
H1356 H 0.23694 0.14828 0.14278 0.0
H1357 H 0.28168 0.13097 0.13391 0.0
H1358 H 0.20887 0.02187 0.27469 0.0
H1359 H 0.25453 0.00768 0.26498 0.0
H1360 H 0.17092 0.06252 0.26816 0.0
H1361 H 0.15531 0.0953 0.23763 0.0
C1362 C 0.19956 0.03989 0.50384 0.0
C1363 C 0.20074 0.07261 0.48128 0.0
C1364 C 0.17931 0.03354 0.42845 0.0
C1365 C 0.17537 0.00119 0.45008 0.0
N1366 N 0.19287 0.97108 0.50523 0.0
N1367 N 0.2241 0.08654 0.42056 0.0
C1368 C 0.1896 0.00351 0.48681 0.0
C1369 C 0.20072 0.06562 0.44287 0.0
N1370 N 0.20837 0.0427 0.54075 0.0
N1371 N 0.15982 0.03553 0.39575 0.0
H1372 H 0.24572 0.10591 0.43134 0.0
H1373 H 0.22561 0.07995 0.39232 0.0
H1374 H 0.13982 0.0143 0.38546 0.0
H1375 H 0.1623 0.0597 0.38038 0.0
H1376 H 0.20068 0.02147 0.55888 0.0
H1377 H 0.22547 0.06488 0.55319 0.0
H1378 H 0.20606 0.9701 0.53116 0.0
H1379 H 0.18534 0.94466 0.49265 0.0
C1380 C 0.21502 0.95511 0.68321 0.0
C1381 C 0.21562 0.97702 0.71673 0.0
C1382 C 0.28434 0.96821 0.72467 0.0
C1383 C 0.28438 0.9516 0.68892 0.0
N1384 N 0.2522 0.93868 0.63 0.0
N1385 N 0.25708 0.01615 0.76054 0.0
C1386 C 0.25047 0.94817 0.66672 0.0
C1387 C 0.25188 0.98673 0.73546 0.0
N1388 N 0.18108 0.93959 0.66789 0.0
N1389 N 0.31529 0.967 0.74819 0.0
H1390 H 0.23724 0.03597 0.76401 0.0
H1391 H 0.28379 0.02495 0.77271 0.0
H1392 H 0.34037 0.95473 0.74064 0.0
H1393 H 0.31454 0.97561 0.77599 0.0
H1394 H 0.17996 0.92137 0.64466 0.0
H1395 H 0.1547 0.94107 0.68095 0.0
H1396 H 0.22843 0.93865 0.61206 0.0
H1397 H 0.27833 0.93478 0.61711 0.0
C1398 C 0.32463 0.00479 0.92571 0.0
C1399 C 0.30804 -0.00118 0.96059 0.0
C1400 C 0.3183 0.06657 0.97692 0.0
C1401 C 0.3365 0.07215 0.94291 0.0
N1402 N 0.35998 0.04724 0.88532 0.0
N1403 N 0.29586 0.0224 0.02254 0.0
C1404 C 0.33993 0.04144 0.91713 0.0
C1405 C 0.30682 0.02925 0.98718 0.0
N1406 N 0.32661 0.97496 0.90125 0.0
N1407 N 0.31221 0.09718 -0.00073 0.0
H1408 H 0.28769 0.99567 0.03159 0.0
H1409 H 0.29771 0.04271 0.04397 0.0
H1410 H 0.32022 0.12464 0.99167 0.0
H1411 H 0.29662 0.09587 0.02352 0.0
H1412 H 0.33304 0.97747 0.87345 0.0
H1413 H 0.3216 0.94721 0.90919 0.0
H1414 H 0.36819 0.02581 0.86759 0.0
H1415 H 0.36968 0.07401 0.877 0.0
C1416 C 0.26618 0.92434 0.27533 0.0
C1417 C 0.28653 0.94939 0.30178 0.0
C1418 C 0.22594 0.96103 0.33073 0.0
C1419 C 0.20638 0.93221 0.30935 0.0
N1420 N 0.20659 0.88648 0.25935 0.0
N1421 N 0.28484 0.97487 0.36496 0.0
C1422 C 0.226 0.91474 0.28009 0.0
C1423 C 0.2663 0.96289 0.33268 0.0
N1424 N 0.28541 0.90838 0.24698 0.0
N1425 N 0.20588 0.98565 0.35037 0.0
H1426 H 0.31346 0.9698 0.37054 0.0
H1427 H 0.26998 0.98371 0.38812 0.0
H1428 H 0.17607 0.98514 0.34671 0.0
H1429 H 0.21967 0.00878 0.3649 0.0
H1430 H 0.27159 0.89419 0.22427 0.0
H1431 H 0.31543 0.90881 0.24674 0.0
H1432 H 0.22011 0.86759 0.2423 0.0
H1433 H 0.17674 0.88097 0.26127 0.0
C1434 C 0.31066 0.04392 0.53541 0.0
C1435 C 0.31334 0.07853 0.55722 0.0
C1436 C 0.34522 0.0454 0.60657 0.0
C1437 C 0.34212 0.01217 0.58396 0.0
N1438 N 0.30818 0.97571 0.53598 0.0
N1439 N 0.34007 0.11306 0.61158 0.0
C1440 C 0.31878 0.01014 0.55216 0.0
C1441 C 0.33171 0.07938 0.59287 0.0
N1442 N 0.30568 0.04344 0.49784 0.0
N1443 N 0.36318 0.04424 0.64028 0.0
H1444 H 0.33747 0.13886 0.5995 0.0
H1445 H 0.3531 0.11608 0.63764 0.0
H1446 H 0.37326 0.01928 0.64956 0.0
H1447 H 0.36623 0.06651 0.65966 0.0
H1448 H 0.3044 0.0188 0.48137 0.0
H1449 H 0.31092 0.06719 0.48223 0.0
H1450 H 0.28874 0.97195 0.51368 0.0
H1451 H 0.31608 0.95099 0.5478 0.0
C1452 C 0.25051 0.12932 0.76425 0.0
C1453 C 0.22249 0.10698 0.7837 0.0
C1454 C 0.27039 0.10017 0.83292 0.0
C1455 C 0.29802 0.1219 0.81301 0.0
N1456 N 0.31861 0.1465 0.7555 0.0
N1457 N 0.21158 0.06055 0.83157 0.0
C1458 C 0.28946 0.13202 0.77676 0.0
C1459 C 0.23381 0.08934 0.81672 0.0
N1460 N 0.23962 0.14893 0.73452 0.0
N1461 N 0.27834 0.09216 0.86863 0.0
H1462 H 0.18507 0.04946 0.82114 0.0
H1463 H 0.22149 0.04447 0.85273 0.0
H1464 H 0.30545 0.09915 0.88044 0.0
H1465 H 0.25773 0.08118 0.88672 0.0
H1466 H 0.25829 0.16808 0.72124 0.0
H1467 H 0.211 0.14874 0.72536 0.0
H1468 H 0.315 0.15235 0.72772 0.0
H1469 H 0.34712 0.14909 0.76534 0.0
C1470 C 0.1966 -0.00277 0.08599 0.0
C1471 C 0.20098 -0.00071 0.04701 0.0
C1472 C 0.20564 0.0684 0.05285 0.0
C1473 C 0.1938 0.06551 0.08956 0.0
N1474 N 0.18314 0.03005 0.14372 0.0
N1475 N 0.21307 0.03777 0.99336 0.0
C1476 C 0.1925 0.03079 0.10725 0.0
C1477 C 0.20665 0.03515 0.03038 0.0
N1478 N 0.19413 0.96311 0.10232 0.0
N1479 N 0.21555 0.10325 0.03971 0.0
H1480 H 0.22035 0.01558 0.9762 0.0
H1481 H 0.21085 0.06235 0.97904 0.0
H1482 H 0.21628 0.12758 0.05666 0.0
H1483 H 0.22662 0.10801 0.01364 0.0
H1484 H 0.19811 0.95999 0.13052 0.0
H1485 H 0.18881 0.93751 0.08765 0.0
H1486 H 0.18028 0.00598 0.15906 0.0
H1487 H 0.17751 0.05442 0.15875 0.0
C1488 C 0.25269 0.30112 0.08932 0.0
C1489 C 0.23683 0.33576 0.09937 0.0
C1490 C 0.18332 0.30092 0.12931 0.0
C1491 C 0.19982 0.26693 0.11933 0.0
N1492 N 0.23867 0.23425 0.0766 0.0
N1493 N 0.18313 0.3684 0.12222 0.0
C1494 C 0.23081 0.26683 0.09499 0.0
C1495 C 0.20069 0.33559 0.11711 0.0
N1496 N 0.28868 0.3006 0.07473 0.0
N1497 N 0.15121 0.29983 0.15064 0.0
H1498 H 0.19638 0.39471 0.1164 0.0
H1499 H 0.15475 0.36947 0.1306 0.0
H1500 H 0.13618 0.27462 0.15746 0.0
H1501 H 0.14005 0.32363 0.16237 0.0
H1502 H 0.30228 0.27594 0.06961 0.0
H1503 H 0.30638 0.32456 0.06973 0.0
H1504 H 0.25904 0.23325 0.05591 0.0
H1505 H 0.2229 0.20862 0.08018 0.0
C1506 C 0.72344 0.27066 0.92461 0.0
C1507 C 0.70556 0.24884 0.95221 0.0
C1508 C 0.66604 0.30118 0.96808 0.0
C1509 C 0.68017 0.31926 0.93701 0.0
N1510 N 0.73629 0.33303 0.90114 0.0
N1511 N 0.66105 0.24462 0.00334 0.0
C1512 C 0.71471 0.30841 0.92173 0.0
C1513 C 0.67752 0.26462 0.97544 0.0
N1514 N 0.74543 0.25441 0.89873 0.0
N1515 N 0.64362 0.32051 0.99121 0.0
H1516 H 0.66771 0.21757 0.00943 0.0
H1517 H 0.63889 0.25394 0.01936 0.0
H1518 H 0.63696 0.34779 0.98528 0.0
H1519 H 0.63588 0.31172 0.01731 0.0
H1520 H 0.75142 0.2676 0.87408 0.0
H1521 H 0.75211 0.22635 0.89941 0.0
H1522 H 0.76253 0.32667 0.88981 0.0
H1523 H 0.72919 0.36085 0.899 0.0
C1524 C 0.03681 0.48956 0.21934 0.0
C1525 C 0.05397 0.52621 0.21206 0.0
C1526 C -0.00323 0.53683 0.17438 0.0
C1527 C 0.98447 0.49806 0.17566 0.0
N1528 N -0.00129 0.4357 0.19287 0.0
N1529 N 0.05106 0.58359 0.17865 0.0
C1530 C 0.00605 0.47386 0.19637 0.0
C1531 C 0.03397 0.54978 0.18874 0.0
N1532 N 0.04802 0.47027 0.24913 0.0
N1533 N 0.97286 0.56118 0.1594 0.0
H1534 H 0.07899 0.59335 0.18694 0.0
H1535 H 0.03905 0.60017 0.15904 0.0
H1536 H 0.94536 0.55232 0.14897 0.0
H1537 H 0.97872 0.59031 0.16077 0.0
H1538 H 0.03394 0.44477 0.25639 0.0
H1539 H 0.06763 0.48153 0.26925 0.0
H1540 H 0.01628 0.41695 0.20505 0.0
H1541 H 0.97715 0.42283 0.17536 0.0
C1542 C 0.83757 0.82657 0.45536 0.0
C1543 C 0.80252 0.82749 0.47502 0.0
C1544 C 0.79006 0.75949 0.4625 0.0
C1545 C 0.82263 0.75894 0.44005 0.0
N1546 N 0.87605 0.79277 0.41171 0.0
N1547 N 0.7381 0.79728 0.47773 0.0
C1548 C 0.84676 0.79259 0.43642 0.0
C1549 C 0.77664 0.7946 0.47382 0.0
N1550 N 0.86009 0.85918 0.45177 0.0
N1551 N 0.76962 0.72638 0.4695 0.0
H1552 H 0.72576 0.82294 0.47796 0.0
H1553 H 0.71799 0.77422 0.47371 0.0
H1554 H 0.77884 0.70047 0.46028 0.0
H1555 H 0.74597 0.72476 0.48682 0.0
H1556 H 0.88842 0.86028 0.44276 0.0
H1557 H 0.84938 0.88535 0.45711 0.0
H1558 H 0.89197 0.81694 0.40369 0.0
H1559 H 0.88408 0.76807 0.39867 0.0
C1560 C -0.00056 0.05722 0.21694 0.0
C1561 C 0.96397 0.0556 0.19666 0.0
C1562 C 0.99265 0.10296 0.15708 0.0
C1563 C 0.02997 0.09341 0.16855 0.0
N1564 N 0.06843 0.05993 0.21129 0.0
N1565 N 0.92518 0.08162 0.14955 0.0
C1566 C 0.03356 0.07059 0.19944 0.0
C1567 C 0.95995 0.07996 0.16726 0.0
N1568 N 0.00057 0.04805 0.25314 0.0
N1569 N 0.98867 0.13456 0.13746 0.0
H1570 H 0.90004 0.06668 0.15791 0.0
H1571 H 0.92189 0.09646 0.12554 0.0
H1572 H 0.01219 0.15338 0.13188 0.0
H1573 H 0.96197 0.14423 0.13076 0.0
H1574 H 0.02557 0.05262 0.2695 0.0
H1575 H 0.97603 0.03925 0.26756 0.0
H1576 H 0.07085 0.04035 0.23176 0.0
H1577 H 0.09449 0.06803 0.19918 0.0
C1578 C 0.26864 0.77693 0.59166 0.0
C1579 C 0.28883 0.75525 0.56569 0.0
C1580 C 0.32838 0.81327 0.55003 0.0
C1581 C 0.31263 0.83187 0.5801 0.0
N1582 N 0.25807 0.83902 0.61784 0.0
N1583 N 0.33537 0.75506 0.51538 0.0
C1584 C 0.27884 0.81613 0.5963 0.0
C1585 C 0.31766 0.77408 0.54296 0.0
N1586 N 0.24141 0.75968 0.61356 0.0
N1587 N 0.35428 0.83358 0.52922 0.0
H1588 H 0.33282 0.7262 0.51051 0.0
H1589 H 0.35366 0.76773 0.49636 0.0
H1590 H 0.3617 0.86211 0.53543 0.0
H1591 H 0.36606 0.82394 0.50485 0.0
H1592 H 0.22836 0.77334 0.63532 0.0
H1593 H 0.23374 0.73081 0.61203 0.0
H1594 H 0.23123 0.83093 0.62856 0.0
H1595 H 0.26686 0.86749 0.62195 0.0
C1596 C 0.04258 0.56738 0.37453 0.0
C1597 C 0.06181 0.58677 0.34661 0.0
C1598 C 0.00199 0.61773 0.33377 0.0
C1599 C 0.98227 0.59408 0.35933 0.0
N1600 N 0.98234 0.5351 0.39044 0.0
N1601 N 0.05929 0.63031 0.29718 0.0
C1602 C 0.0021 0.56433 0.37403 0.0
C1603 C 0.04135 0.61205 0.32538 0.0
N1604 N 0.06305 0.5539 0.40284 0.0
N1605 N 0.98365 0.6457 0.31801 0.0
H1606 H 0.08883 0.63008 0.29299 0.0
H1607 H 0.0448 0.64496 0.27758 0.0
H1608 H 0.95426 0.64759 0.32052 0.0
H1609 H -0.00255 0.66682 0.30277 0.0
H1610 H 0.04981 0.54118 0.42537 0.0
H1611 H 0.0929 0.55968 0.40511 0.0
H1612 H -0.00387 0.51263 0.40099 0.0
H1613 H 0.95222 0.53232 0.39021 0.0
C1614 C 0.45269 0.4327 0.83282 0.0
C1615 C 0.45333 0.4685 0.8171 0.0
C1616 C 0.52292 0.47427 0.81874 0.0
C1617 C 0.52283 0.4428 0.84074 0.0
N1618 N 0.48905 0.3891 0.86698 0.0
N1619 N 0.48862 0.52854 0.8129 0.0
C1620 C 0.48814 0.41993 0.84574 0.0
C1621 C 0.48815 0.49065 0.81444 0.0
N1622 N 0.41816 0.41307 0.83823 0.0
N1623 N 0.55683 0.4932 0.80983 0.0
H1624 H 0.46363 0.54288 0.81536 0.0
H1625 H 0.46363 0.54288 0.81536 0.0
H1626 H 0.58337 0.48263 0.81587 0.0
H1627 H 0.55761 0.51822 0.79556 0.0
H1628 H 0.41521 0.38563 0.84729 0.0
H1629 H 0.39207 0.42496 0.83331 0.0
H1630 H 0.4648 0.37237 0.87444 0.0
H1631 H 0.51478 0.38119 0.87838 0.0
C1632 C 0.92278 0.81355 0.7596 0.0
C1633 C 0.95014 0.83433 0.73797 0.0
C1634 C 0.97352 0.86845 0.79554 0.0
C1635 C 0.94552 0.84661 0.81477 0.0
N1636 N 0.91256 0.78595 0.81852 0.0
N1637 N 0.00254 0.88325 0.73643 0.0
C1638 C 0.92955 0.81318 0.79772 0.0
C1639 C 0.97679 0.86185 0.75639 0.0
N1640 N 0.88803 0.7988 0.74532 0.0
N1641 N -0.00463 0.89598 0.81495 0.0
H1642 H 0.00134 0.8833 0.70766 0.0
H1643 H 0.02397 0.90212 0.74813 0.0
H1644 H 0.9921 0.89992 0.84343 0.0
H1645 H 0.01686 0.91368 0.80366 0.0
H1646 H 0.86722 0.78488 0.76138 0.0
H1647 H 0.87689 0.80683 0.72016 0.0
H1648 H 0.8974 0.76208 0.8067 0.0
H1649 H 0.91728 0.78664 0.84699 0.0
C1650 C 0.94664 0.30965 0.50036 0.0
C1651 C 0.93651 0.29233 0.46524 0.0
C1652 C 0.90767 0.23707 0.49579 0.0
C1653 C 0.9266 0.2505 0.52939 0.0
N1654 N 0.96141 0.3006 0.56508 0.0
N1655 N 0.89079 0.24947 0.43206 0.0
C1656 C 0.94454 0.2875 0.53237 0.0
C1657 C 0.91166 0.25897 0.46372 0.0
N1658 N 0.95627 0.34749 0.50318 0.0
N1659 N 0.88723 0.20268 0.49438 0.0
H1660 H 0.89099 0.26731 0.4098 0.0
H1661 H 0.8704 0.22662 0.42913 0.0
H1662 H 0.88131 0.18735 0.51791 0.0
H1663 H 0.87679 0.18884 0.47009 0.0
H1664 H 0.96144 0.3623 0.52829 0.0
H1665 H 0.95375 0.3647 0.48067 0.0
H1666 H 0.97928 0.32538 0.5677 0.0
H1667 H 0.9592 0.28544 0.58919 0.0
C1668 C 0.54056 0.20793 0.26738 0.0
C1669 C 0.55586 0.22944 0.2383 0.0
C1670 C 0.60879 0.25373 0.28076 0.0
C1671 C 0.59265 0.23114 0.30906 0.0
N1672 N 0.53167 0.20951 0.33276 0.0
N1673 N 0.61286 0.26338 0.21507 0.0
C1674 C 0.5551 0.21494 0.30359 0.0
C1675 C 0.59223 0.25032 0.24435 0.0
N1676 N 0.51513 0.17766 0.26037 0.0
N1677 N 0.63841 0.28002 0.28942 0.0
H1678 H 0.6048 0.25601 0.18777 0.0
H1679 H 0.64062 0.27648 0.21766 0.0
H1680 H 0.64849 0.28487 0.31655 0.0
H1681 H 0.64918 0.29997 0.27114 0.0
H1682 H 0.50718 0.15995 0.28135 0.0
H1683 H 0.50855 0.1666 0.23386 0.0
H1684 H 0.50201 0.20379 0.32858 0.0
H1685 H 0.54092 0.21686 0.35976 0.0
C1686 C 0.58607 0.86368 0.97102 0.0
C1687 C 0.58081 0.82591 0.9571 0.0
C1688 C 0.59139 0.80609 0.02031 0.0
C1689 C 0.60052 0.84412 0.03103 0.0
N1690 N 0.62757 0.90372 0.01133 0.0
N1691 N 0.59053 0.76033 0.96972 0.0
C1692 C 0.60791 0.87005 0.00334 0.0
C1693 C 0.58836 0.79668 0.98196 0.0
N1694 N 0.56376 0.89137 0.96022 0.0
N1695 N 0.58482 0.77898 0.04533 0.0
H1696 H 0.59158 0.75287 0.94164 0.0
H1697 H 0.59485 0.73886 0.98791 0.0
H1698 H 0.58639 0.78467 0.07381 0.0
H1699 H 0.58639 0.78467 0.07381 0.0
H1700 H 0.56631 0.91818 0.97306 0.0
H1701 H 0.53914 0.88663 0.94356 0.0
H1702 H 0.62771 0.92593 0.99354 0.0
H1703 H 0.64553 0.90721 0.03462 0.0
C1704 C 0.9884 0.24631 0.771 0.0
C1705 C 0.97252 0.26325 0.80291 0.0
C1706 C 0.91865 0.28075 0.76288 0.0
C1707 C 0.93315 0.26015 0.73198 0.0
N1708 N 0.99377 0.25004 0.70448 0.0
N1709 N 0.93258 0.31301 0.8221 0.0
C1710 C 0.97174 0.25079 0.73515 0.0
C1711 C 0.94013 0.28491 0.79721 0.0
N1712 N 0.01991 0.22605 0.77484 0.0
N1713 N 0.88592 0.29919 0.75885 0.0
H1714 H 0.94942 0.32035 0.84551 0.0
H1715 H 0.91222 0.3324 0.81753 0.0
H1716 H 0.87601 0.30719 0.73317 0.0
H1717 H 0.86978 0.3078 0.78118 0.0
H1718 H 0.03445 0.21535 0.75266 0.0
H1719 H 0.02977 0.21745 0.80033 0.0
H1720 H 0.02371 0.25041 0.70639 0.0
H1721 H 0.98297 0.2558 0.67841 0.0
C1722 C 0.58735 0.21412 0.55044 0.0
C1723 C 0.57141 0.2487 0.5435 0.0
C1724 C 0.57244 0.23442 0.47641 0.0
C1725 C 0.58414 0.1984 0.48398 0.0
N1726 N 0.61609 0.15897 0.52489 0.0
N1727 N 0.55791 0.29635 0.4999 0.0
C1728 C 0.59634 0.1902 0.52008 0.0
C1729 C 0.56748 0.26061 0.5064 0.0
N1730 N 0.59271 0.20368 0.58602 0.0
N1731 N 0.56411 0.2424 0.44071 0.0
H1732 H 0.55204 0.31577 0.52079 0.0
H1733 H 0.55713 0.30761 0.47383 0.0
H1734 H 0.56986 0.22395 0.41886 0.0
H1735 H 0.5514 0.26639 0.43266 0.0
H1736 H 0.59976 0.17694 0.59306 0.0
H1737 H 0.58858 0.2215 0.60885 0.0
H1738 H 0.62834 0.15214 0.54996 0.0
H1739 H 0.6233 0.14179 0.50251 0.0
C1740 C 0.60473 0.82398 0.3017 0.0
C1741 C 0.5892 0.85543 0.32011 0.0
C1742 C 0.59059 0.8883 0.26155 0.0
C1743 C 0.60263 0.85536 0.24326 0.0
N1744 N 0.60776 0.78883 0.24358 0.0
N1745 N 0.56402 0.91642 0.31663 0.0
C1746 C 0.60516 0.8222 0.26268 0.0
C1747 C 0.581 0.88727 0.29962 0.0
N1748 N 0.62033 0.79622 0.32085 0.0
N1749 N 0.5896 0.92085 0.24286 0.0
H1750 H 0.55974 0.91791 0.34509 0.0
H1751 H 0.55295 0.93826 0.30245 0.0
H1752 H 0.59402 0.92188 0.21455 0.0
H1753 H 0.58578 0.94696 0.25551 0.0
H1754 H 0.63393 0.77437 0.30792 0.0
H1755 H 0.62531 0.79742 0.3492 0.0
H1756 H 0.60631 0.76286 0.25609 0.0
H1757 H 0.60615 0.78712 0.21479 0.0
C1758 C 0.91825 0.86187 0.0511 0.0
C1759 C 0.94575 0.83476 0.0471 0.0
C1760 C 0.94683 0.84243 0.98055 0.0
C1761 C 0.92469 0.8736 0.98572 0.0
N1762 N 0.87475 0.90086 0.01935 0.0
N1763 N 0.96875 0.78623 0.00741 0.0
C1764 C 0.90469 0.87838 0.01879 0.0
C1765 C 0.95411 0.82048 0.0114 0.0
N1766 N 0.90777 0.87408 0.08535 0.0
N1767 N 0.96336 0.83599 0.94729 0.0
H1768 H 0.97335 0.7698 0.03016 0.0
H1769 H 0.97253 0.77305 0.98172 0.0
H1770 H 0.95757 0.85197 0.9245 0.0
H1771 H 0.98335 0.81599 0.94298 0.0
H1772 H 0.89147 0.89712 0.08968 0.0
H1773 H 0.91691 0.86214 0.10954 0.0
H1774 H 0.85696 0.90312 0.04192 0.0
H1775 H 0.86577 0.91378 -0.00445 0.0
C1776 C 0.72643 0.97 0.85422 0.0
C1777 C 0.73297 0.00265 0.83373 0.0
C1778 C 0.80261 0.99545 0.83578 0.0
C1779 C 0.79462 0.96003 0.85145 0.0
N1780 N 0.75096 0.91972 0.88624 0.0
N1781 N 0.77707 0.05294 0.81453 0.0
C1782 C 0.75769 0.95036 0.86537 0.0
C1783 C 0.7713 0.01787 0.82821 0.0
N1784 N 0.69027 0.95494 0.86079 0.0
N1785 N 0.83943 0.00592 0.82585 0.0
H1786 H 0.75389 0.06909 0.80958 0.0
H1787 H 0.80406 0.06683 0.81083 0.0
H1788 H 0.86223 0.98978 0.8324 0.0
H1789 H 0.8473 0.02986 0.81127 0.0
H1790 H 0.66522 0.96716 0.8528 0.0
H1791 H 0.66522 0.96716 0.8528 0.0
H1792 H 0.77286 0.90365 0.89548 0.0
H1793 H 0.77286 0.90365 0.89548 0.0
C1794 C 0.83541 0.0232 0.53283 0.0
C1795 C 0.80244 0.01461 0.55509 0.0
C1796 C 0.80041 0.08371 0.56855 0.0
C1797 C 0.83817 0.08975 0.55524 0.0
N1798 N 0.87614 0.07177 0.50382 0.0
N1799 N 0.74761 0.03958 0.58491 0.0
C1800 C 0.85156 0.06125 0.53137 0.0
C1801 C 0.78309 0.04591 0.56994 0.0
N1802 N 0.84998 0.99613 0.51075 0.0
N1803 N 0.78081 0.11409 0.57859 0.0
H1804 H 0.7397 0.01531 0.59914 0.0
H1805 H 0.72622 0.0584 0.58303 0.0
H1806 H 0.79173 0.14147 0.57405 0.0
H1807 H 0.75243 0.11267 0.5872 0.0
H1808 H 0.87778 -0.00117 0.50038 0.0
H1809 H 0.83426 0.9716 0.50144 0.0
H1810 H 0.88509 0.05353 0.48316 0.0
H1811 H 0.88332 0.10004 0.49855 0.0
C1812 C 0.7896 0.10424 0.28611 0.0
C1813 C 0.80076 0.07949 0.31394 0.0
C1814 C 0.73894 0.08619 0.34389 0.0
C1815 C 0.73026 0.11456 0.32035 0.0
N1816 N 0.73869 0.13955 0.2603 0.0
N1817 N 0.79138 0.05909 0.37508 0.0
C1818 C 0.75309 0.12009 0.28857 0.0
C1819 C 0.77649 0.07304 0.34401 0.0
N1820 N 0.81459 0.11485 0.25898 0.0
N1821 N 0.70962 0.06738 0.36128 0.0
H1822 H 0.81867 0.04875 0.37632 0.0
H1823 H 0.77957 0.0649 0.40054 0.0
H1824 H 0.68132 0.07519 0.35958 0.0
H1825 H 0.71277 0.04064 0.37081 0.0
H1826 H 0.80946 0.1353 0.24007 0.0
H1827 H 0.8424 0.10627 0.2572 0.0
H1828 H 0.75136 0.14192 0.23458 0.0
H1829 H 0.7114 0.14993 0.26159 0.0
C1830 C 0.67057 0.06122 0.04852 0.0
C1831 C 0.71016 0.06806 0.05851 0.0
C1832 C 0.71061 0.0017 0.07652 0.0
C1833 C 0.67071 0.9955 0.06683 0.0
N1834 N 0.62293 0.01426 0.02323 0.0
N1835 N 0.77021 0.03829 0.06504 0.0
C1836 C 0.65394 0.02361 0.0462 0.0
C1837 C 0.73101 0.03651 0.06771 0.0
N1838 N 0.64805 0.09026 0.04251 0.0
N1839 N 0.72974 0.97508 0.09385 0.0
H1840 H 0.78664 0.06138 0.05544 0.0
H1841 H 0.78582 0.01473 0.06743 0.0
H1842 H 0.71977 0.94695 0.09497 0.0
H1843 H 0.75629 0.98153 0.10722 0.0
H1844 H 0.61839 0.08597 0.03745 0.0
H1845 H 0.65782 0.11845 0.04701 0.0
H1846 H 0.61164 0.03347 0.0057 0.0
H1847 H 0.61228 0.98638 0.01805 0.0
C1848 C 0.75918 0.12571 0.75381 0.0
C1849 C 0.73709 0.10165 0.72762 0.0
C1850 C 0.7941 0.09888 0.68944 0.0
C1851 C 0.81357 0.12784 0.71061 0.0
N1852 N 0.8145 0.17089 0.76279 0.0
N1853 N 0.7311 0.08422 0.66347 0.0
C1854 C 0.79676 0.14051 0.74388 0.0
C1855 C 0.754 0.09318 0.69351 0.0
N1856 N 0.74492 0.13568 0.78734 0.0
N1857 N 0.81262 0.08043 0.66233 0.0
H1858 H 0.70147 0.08671 0.66388 0.0
H1859 H 0.74291 0.08184 0.63775 0.0
H1860 H 0.84217 0.08579 0.65828 0.0
H1861 H 0.79904 0.0576 0.64717 0.0
H1862 H 0.76236 0.14876 0.80842 0.0
H1863 H 0.71636 0.13074 0.79481 0.0
H1864 H 0.79934 0.18829 0.77996 0.0
H1865 H 0.84287 0.18075 0.75745 0.0
C1866 C 0.65194 0.98527 0.48235 0.0
C1867 C 0.68575 0.97598 0.46366 0.0
C1868 C 0.69583 0.04127 0.44509 0.0
C1869 C 0.66074 0.0501 0.46096 0.0
N1870 N 0.61887 0.03543 0.51165 0.0
N1871 N 0.7333 0.99235 0.41933 0.0
C1872 C 0.64258 0.02346 0.48469 0.0
C1873 C 0.70517 0.00323 0.44216 0.0
N1874 N 0.6275 0.95765 0.49606 0.0
N1875 N 0.72295 0.06886 0.43694 0.0
H1876 H 0.73703 0.964 0.41313 0.0
H1877 H 0.75097 0.01092 0.40504 0.0
H1878 H 0.71998 0.09746 0.44229 0.0
H1879 H 0.71998 0.09746 0.44229 0.0
H1880 H 0.60153 0.96314 0.50826 0.0
H1881 H 0.63022 0.92914 0.49014 0.0
H1882 H 0.60741 0.018 0.53188 0.0
H1883 H 0.61534 0.06398 0.5168 0.0
C1884 C 0.76329 0.01396 0.18595 0.0
C1885 C 0.78469 0.99491 0.21266 0.0
C1886 C 0.72334 0.9703 0.23826 0.0
C1887 C 0.70512 0.97864 0.20528 0.0
N1888 N 0.69939 0.02489 0.16079 0.0
N1889 N 0.7825 0.95337 0.26575 0.0
C1890 C 0.72247 0.00667 0.18377 0.0
C1891 C 0.76417 0.97309 0.23986 0.0
N1892 N 0.78207 0.03741 0.16191 0.0
N1893 N 0.7013 0.95542 0.26571 0.0
H1894 H 0.81205 0.95291 0.2693 0.0
H1895 H 0.76784 0.93431 0.28268 0.0
H1896 H 0.67133 0.9513 0.26241 0.0
H1897 H 0.71211 0.95063 0.292 0.0
H1898 H 0.76821 0.05172 0.1417 0.0
H1899 H 0.81205 0.0415 0.16105 0.0
H1900 H 0.7088 0.04794 0.1456 0.0
H1901 H 0.66966 0.01774 0.15933 0.0
C1902 C 0.84232 0.08971 0.93805 0.0
C1903 C 0.80663 0.08638 0.95593 0.0
C1904 C 0.80613 0.01799 0.95487 0.0
C1905 C 0.84394 0.02142 0.94072 0.0
N1906 N 0.89146 0.05762 0.90578 0.0
N1907 N 0.74787 0.04931 0.96756 0.0
C1908 C 0.85991 0.05646 0.92788 0.0
C1909 C 0.78611 0.05096 0.95931 0.0
N1910 N 0.85986 0.1246 0.93241 0.0
N1911 N 0.79058 0.98415 0.96649 0.0
H1912 H 0.73299 0.07359 0.97036 0.0
H1913 H 0.73034 0.0243 0.96788 0.0
H1914 H 0.80457 0.95935 0.96403 0.0
H1915 H 0.76492 0.98109 0.98086 0.0
H1916 H 0.88825 0.12924 0.92396 0.0
H1917 H 0.84601 0.14917 0.93774 0.0
H1918 H 0.90302 0.08197 0.89379 0.0
H1919 H 0.90396 0.03342 0.89648 0.0
C1920 C 0.78729 0.78721 0.98061 0.0
C1921 C 0.79599 0.75133 0.96641 0.0
C1922 C 0.84307 0.78185 0.92614 0.0
C1923 C 0.82601 0.81626 0.93269 0.0
N1924 N 0.78715 0.85379 0.97202 0.0
N1925 N 0.83523 0.71383 0.92771 0.0
C1926 C 0.80002 0.81975 0.96194 0.0
C1927 C 0.82539 0.74835 0.94022 0.0
N1928 N 0.76696 0.79098 0.01205 0.0
N1929 N 0.87711 0.78179 0.90802 0.0
H1930 H 0.82364 0.68877 0.93854 0.0
H1931 H 0.85343 0.71015 0.9055 0.0
H1932 H 0.89175 0.80682 0.90015 0.0
H1933 H 0.89279 0.7581 0.90514 0.0
H1934 H 0.75864 0.76834 0.02842 0.0
H1935 H 0.75864 0.76834 0.02842 0.0
H1936 H 0.76784 0.85685 0.99347 0.0
H1937 H 0.79564 0.8786 0.95896 0.0
C1938 C 0.29033 0.81554 0.08034 0.0
C1939 C 0.32028 0.83983 0.06653 0.0
C1940 C 0.36613 0.80088 0.09579 0.0
C1941 C 0.33522 0.77325 0.10188 0.0
N1942 N 0.26971 0.75035 0.08736 0.0
N1943 N 0.38843 0.85456 0.05977 0.0
C1944 C 0.29825 0.77882 0.0882 0.0
C1945 C 0.35903 0.83179 0.07306 0.0
N1946 N 0.25516 0.82785 0.08846 0.0
N1947 N 0.40049 0.79971 0.11422 0.0
H1948 H 0.38349 0.87794 0.04425 0.0
H1949 H 0.41725 0.84914 0.06306 0.0
H1950 H 0.40555 0.77864 0.13256 0.0
H1951 H 0.42256 0.82113 0.11343 0.0
H1952 H 0.23332 0.81044 0.09983 0.0
H1953 H 0.24997 0.85625 0.08859 0.0
H1954 H 0.24216 0.75377 0.07669 0.0
H1955 H 0.2752 0.72295 0.09412 0.0
C1956 C 0.9752 0.54048 0.81333 0.0
C1957 C 0.96244 0.56434 0.78495 0.0
C1958 C 0.02758 0.59771 0.78608 0.0
C1959 C 0.03594 0.57962 0.81878 0.0
N1960 N 0.02519 0.52807 0.8583 0.0
N1961 N 0.98073 0.60867 0.7379 0.0
C1962 C 0.01247 0.54819 0.82958 0.0
C1963 C 0.99021 0.59061 0.76909 0.0
N1964 N 0.95307 0.50951 0.82402 0.0
N1965 N 0.05506 0.62283 0.77276 0.0
H1966 H 0.95266 0.60809 0.72723 0.0
H1967 H 0.00035 0.6247 0.72247 0.0
H1968 H 0.08256 0.62666 0.78495 0.0
H1969 H 0.0515 0.63905 0.74983 0.0
H1970 H 0.96325 0.48859 0.84001 0.0
H1971 H 0.92469 0.50239 0.81638 0.0
H1972 H 0.00813 0.50893 0.87315 0.0
H1973 H 0.05359 0.53222 0.86837 0.0
C1974 C 0.15472 0.24864 0.57704 0.0
C1975 C 0.18152 0.25143 0.54818 0.0
C1976 C 0.19189 0.31987 0.56026 0.0
C1977 C 0.16829 0.31598 0.59121 0.0
N1978 N 0.11422 0.28248 0.61835 0.0
N1979 N 0.21363 0.29145 0.50338 0.0
C1980 C 0.14525 0.2821 0.59592 0.0
C1981 C 0.19606 0.28772 0.53662 0.0
N1982 N 0.13882 0.2142 0.58668 0.0
N1983 N 0.21124 0.35389 0.55456 0.0
H1984 H 0.21717 0.26874 0.48531 0.0
H1985 H 0.22194 0.31732 0.49229 0.0
H1986 H 0.20692 0.37772 0.57115 0.0
H1987 H 0.23163 0.35839 0.53418 0.0
H1988 H 0.12212 0.21019 0.61003 0.0
H1989 H 0.14401 0.18927 0.57227 0.0
H1990 H 0.09463 0.25932 0.62167 0.0
H1991 H 0.10548 0.30778 0.62936 0.0
C1992 C 0.01036 0.99301 0.78576 0.0
C1993 C 0.04651 0.00252 0.80396 0.0
C1994 C 0.01526 0.00895 0.86114 0.0
C1995 C 0.98007 0.99176 0.84673 0.0
N1996 N 0.94467 0.96576 0.79165 0.0
N1997 N 0.08136 0.99536 0.86064 0.0
C1998 C 0.97732 0.98317 0.80773 0.0
C1999 C 0.04834 0.002 0.84233 0.0
N2000 N 0.00752 0.99374 0.74826 0.0
N2001 N 0.0173 0.03098 0.89275 0.0
H2002 H 0.10599 0.98881 0.84632 0.0
H2003 H 0.08252 0.9941 0.88942 0.0
H2004 H 0.99248 0.03915 0.90575 0.0
H2005 H 0.04354 0.04378 0.90298 0.0
H2006 H 0.98128 0.99084 0.73375 0.0
H2007 H 0.03177 -0.00172 0.73205 0.0
H2008 H 0.9438 0.95483 0.76455 0.0
H2009 H 0.91871 0.96151 0.80519 0.0
C2010 C 0.66164 0.31795 0.44689 0.0
C2011 C 0.67498 0.32559 0.48284 0.0
C2012 C 0.68627 0.25794 0.48631 0.0
C2013 C 0.68468 0.25512 0.44697 0.0
N2014 N 0.67411 0.28792 0.38964 0.0
N2015 N 0.67806 0.29717 0.54204 0.0
C2016 C 0.674 0.28682 0.42718 0.0
C2017 C 0.68087 0.29369 0.50457 0.0
N2018 N 0.62919 0.33308 0.43555 0.0
N2019 N 0.69421 0.22716 0.5057 0.0
H2020 H 0.66861 0.32146 0.55475 0.0
H2021 H 0.68086 0.27538 0.56002 0.0
H2022 H 0.69852 0.20124 0.49272 0.0
H2023 H 0.69803 0.22735 0.53423 0.0
H2024 H 0.61494 0.32443 0.41072 0.0
H2025 H 0.61395 0.34889 0.45419 0.0
H2026 H 0.66707 0.31201 0.37619 0.0
H2027 H 0.68482 0.26759 0.3724 0.0
C2028 C 0.95437 0.41737 0.67726 0.0
C2029 C 0.95726 0.43796 0.71127 0.0
C2030 C 0.02671 0.45149 0.70279 0.0
C2031 C 0.02209 0.43509 0.66687 0.0
N2032 N 0.98745 0.39009 0.6256 0.0
N2033 N -0.00036 0.45801 0.76344 0.0
C2034 C 0.98785 0.41353 0.65628 0.0
C2035 C 0.99464 0.44944 0.72659 0.0
N2036 N 0.91927 0.4038 0.66365 0.0
N2037 N 0.0608 0.47072 0.71331 0.0
H2038 H 0.97815 0.45189 0.78241 0.0
H2039 H 0.02644 0.46515 0.77606 0.0
H2040 H 0.0852 0.4709 0.69695 0.0
H2041 H 0.0644 0.48762 0.73734 0.0
H2042 H 0.91515 0.39794 0.63564 0.0
H2043 H 0.8947 0.40135 0.67984 0.0
H2044 H 0.96398 0.3715 0.61772 0.0
H2045 H 0.01221 0.38696 0.61019 0.0
C2046 C 0.56337 0.59467 0.15254 0.0
C2047 C 0.56849 0.61113 0.18845 0.0
C2048 C 0.5022 0.63084 0.186 0.0
C2049 C 0.4978 0.61604 0.14949 0.0
N2050 N 0.51724 0.56699 0.1074 0.0
N2051 N 0.54822 0.65599 0.23288 0.0
C2052 C 0.52642 0.593 0.13533 0.0
C2053 C 0.53939 0.63261 0.20315 0.0
N2054 N 0.59423 0.58252 0.134 0.0
N2055 N 0.4707 0.64048 0.20501 0.0
H2056 H 0.57632 0.66742 0.23856 0.0
H2057 H 0.52795 0.66501 0.25058 0.0
H2058 H 0.4427 0.63479 0.1946 0.0
H2059 H 0.4716 0.64812 0.23293 0.0
H2060 H 0.59256 0.57281 0.1065 0.0
H2061 H 0.62238 0.58722 0.14453 0.0
H2062 H 0.53612 0.54748 0.09813 0.0
H2063 H 0.48904 0.56123 0.09746 0.0
C2064 C 0.56238 0.72664 0.79477 0.0
C2065 C 0.55799 0.76572 0.79209 0.0
C2066 C 0.56969 0.76129 0.72508 0.0
C2067 C 0.57853 0.72374 0.72912 0.0
N2068 N 0.57071 0.66689 0.76239 0.0
N2069 N 0.55227 0.81979 0.75421 0.0
C2070 C 0.5699 0.70515 0.76224 0.0
C2071 C 0.55933 0.78275 0.75686 0.0
N2072 N 0.56271 0.71084 0.82864 0.0
N2073 N 0.57286 0.77645 0.69107 0.0
H2074 H 0.54639 0.83682 0.77687 0.0
H2075 H 0.55143 0.83415 0.7298 0.0
H2076 H 0.58162 0.76106 0.66817 0.0
H2077 H 0.5651 0.80304 0.68469 0.0
H2078 H 0.57021 0.68357 0.8329 0.0
H2079 H 0.55813 0.72586 0.8532 0.0
H2080 H 0.5625 0.65068 0.7847 0.0
H2081 H 0.5765 0.65119 0.73849 0.0
C2082 C 0.55484 0.39077 0.06713 0.0
C2083 C 0.55166 0.35187 0.07265 0.0
C2084 C 0.55711 0.33825 0.00646 0.0
C2085 C 0.56192 0.37735 0.00084 0.0
N2086 N 0.58233 0.439 0.0286 0.0
N2087 N 0.5673 0.29051 0.0505 0.0
C2088 C 0.56594 0.40324 0.03203 0.0
C2089 C 0.55818 0.32604 0.04317 0.0
N2090 N 0.54697 0.41569 0.09497 0.0
N2091 N 0.55112 0.31294 0.97739 0.0
H2092 H 0.57513 0.28359 0.07715 0.0
H2093 H 0.57319 0.27059 0.03004 0.0
H2094 H 0.54946 0.32093 0.95004 0.0
H2095 H 0.54447 0.28427 0.98086 0.0
H2096 H 0.54489 0.44429 0.09078 0.0
H2097 H 0.54022 0.4072 0.12154 0.0
H2098 H 0.58805 0.45769 0.05116 0.0
H2099 H 0.59487 0.44819 0.00426 0.0
C2100 C 0.95891 0.40379 0.2883 0.0
C2101 C 0.97102 0.36738 0.29455 0.0
C2102 C 0.95162 0.34689 0.23172 0.0
C2103 C 0.93416 0.38071 0.2271 0.0
N2104 N 0.91915 0.44165 0.25085 0.0
N2105 N 0.96452 0.30127 0.2766 0.0
C2106 C 0.93806 0.4098 0.25504 0.0
C2107 C 0.96356 0.338 0.26745 0.0
N2108 N 0.96516 0.43165 0.31498 0.0
N2109 N 0.95319 0.32186 0.20246 0.0
H2110 H 0.96857 0.29348 0.30368 0.0
H2111 H 0.95649 0.27873 0.25827 0.0
H2112 H 0.94346 0.32813 0.17611 0.0
H2113 H 0.96697 0.29694 0.20383 0.0
H2114 H 0.96135 0.45988 0.31064 0.0
H2115 H 0.97439 0.42614 0.34165 0.0
H2116 H 0.91711 0.46232 0.2716 0.0
H2117 H 0.90409 0.44654 0.22658 0.0
C2118 C 0.93459 0.75287 0.54613 0.0
C2119 C 0.95354 0.72855 0.56962 0.0
C2120 C 0.94998 0.67994 0.52077 0.0
C2121 C 0.93737 0.70643 0.4951 0.0
N2122 N 0.92452 0.77024 0.48294 0.0
N2123 N 0.98564 0.67158 0.577 0.0
C2124 C 0.93072 0.74331 0.5078 0.0
C2125 C 0.96251 0.69268 0.55647 0.0
N2126 N 0.92226 0.78603 0.55975 0.0
N2127 N 0.9504 0.64246 0.51168 0.0
H2128 H -0.00445 0.67957 0.60365 0.0
H2129 H -0.00243 0.64755 0.56645 0.0
H2130 H 0.94541 0.63071 0.48547 0.0
H2131 H 0.95344 0.62219 0.5314 0.0
H2132 H 0.90458 0.80245 0.54463 0.0
H2133 H 0.92677 0.79572 0.58698 0.0
H2134 H 0.92338 0.79868 0.49017 0.0
H2135 H 0.92492 0.76471 0.45455 0.0
C2136 C 0.54256 0.29185 0.74722 0.0
C2137 C 0.54546 0.31829 0.71762 0.0
C2138 C 0.55694 0.36954 0.76418 0.0
C2139 C 0.5574 0.34348 0.79266 0.0
N2140 N 0.53646 0.28271 0.81335 0.0
N2141 N 0.52565 0.38086 0.70676 0.0
C2142 C 0.54522 0.30558 0.78469 0.0
C2143 C 0.54385 0.35695 0.72834 0.0
N2144 N 0.53699 0.25382 0.7407 0.0
N2145 N 0.57056 0.40607 0.77067 0.0
H2146 H 0.50802 0.3712 0.68441 0.0
H2147 H 0.52219 0.40866 0.71528 0.0
H2148 H 0.58091 0.41609 0.79663 0.0
H2149 H 0.57359 0.42523 0.74957 0.0
H2150 H 0.54501 0.23455 0.75988 0.0
H2151 H 0.52056 0.24116 0.71886 0.0
H2152 H 0.52391 0.25529 0.80992 0.0
H2153 H 0.5383 0.29295 0.84076 0.0
C2154 C 0.00322 0.38015 0.99317 0.0
C2155 C 0.99262 0.34077 0.9897 0.0
C2156 C 0.96976 0.34199 0.05403 0.0
C2157 C 0.97298 0.38142 0.05361 0.0
N2158 N 0.01211 0.43527 0.03459 0.0
N2159 N 0.97442 0.28281 0.01995 0.0
C2160 C -0.00293 0.39924 0.02726 0.0
C2161 C 0.97913 0.32116 0.0214 0.0
N2162 N 0.01522 0.40017 0.96336 0.0
N2163 N 0.96043 0.325 0.08617 0.0
H2164 H 0.98585 0.2663 -0.00087 0.0
H2165 H 0.95869 0.26759 0.0392 0.0
H2166 H 0.95593 0.34063 0.11038 0.0
H2167 H 0.96064 0.2962 0.08985 0.0
H2168 H 0.01981 0.42941 0.96406 0.0
H2169 H 0.01702 0.38861 0.93676 0.0
H2170 H 0.03221 0.44935 0.01799 0.0
H2171 H 0.00714 0.44932 0.05967 0.0
C2172 C 0.91267 0.72514 0.22683 0.0
C2173 C 0.92646 0.76274 0.22144 0.0
C2174 C 0.92864 0.77514 0.28904 0.0
C2175 C 0.91736 0.7368 0.29405 0.0
N2176 N 0.90526 0.67375 0.26826 0.0
N2177 N 0.93326 0.8267 0.24708 0.0
C2178 C 0.91199 0.71135 0.26303 0.0
C2179 C 0.93076 0.78882 0.25252 0.0
N2180 N 0.89628 0.70377 0.19782 0.0
N2181 N 0.93694 0.79822 0.31951 0.0
H2182 H 0.92689 0.83773 0.2216 0.0
H2183 H 0.93612 0.84734 0.26817 0.0
H2184 H 0.93572 0.78804 0.34619 0.0
H2185 H 0.94831 0.82603 0.31858 0.0
H2186 H 0.88261 0.677 0.2005 0.0
H2187 H 0.89125 0.71502 0.17213 0.0
H2188 H 0.90593 0.6533 0.24705 0.0
H2189 H 0.90144 0.66296 0.29433 0.0
C2190 C 0.54128 0.75062 0.52265 0.0
C2191 C 0.55763 0.75004 0.48629 0.0
C2192 C 0.61436 0.72319 0.51291 0.0
C2193 C 0.59519 0.71935 0.54675 0.0
N2194 N 0.55232 0.74531 0.58908 0.0
N2195 N 0.62057 0.75804 0.45729 0.0
C2196 C 0.56362 0.74041 0.5535 0.0
C2197 C 0.59774 0.74352 0.48442 0.0
N2198 N 0.50381 0.75743 0.52788 0.0
N2199 N 0.64704 0.70506 0.50725 0.0
H2200 H 0.61225 0.77891 0.44013 0.0
H2201 H 0.65 0.75442 0.45618 0.0
H2202 H 0.6597 0.69063 0.52834 0.0
H2203 H 0.65999 0.70297 0.48156 0.0
H2204 H 0.49321 0.76649 0.55302 0.0
H2205 H 0.48216 0.74598 0.50996 0.0
H2206 H 0.531 0.7627 0.59718 0.0
H2207 H 0.56754 0.73424 0.61072 0.0
C2208 C 0.74479 0.5547 0.73105 0.0
C2209 C 0.78078 0.56201 0.71328 0.0
C2210 C 0.75121 0.60527 0.67251 0.0
C2211 C 0.71784 0.60292 0.69459 0.0
N2212 N 0.67742 0.56866 0.7364 0.0
N2213 N 0.81185 0.57982 0.65674 0.0
C2214 C 0.7126 0.57442 0.7204 0.0
C2215 C 0.78176 0.58209 0.6802 0.0
N2216 N 0.74221 0.52996 0.75898 0.0
N2217 N 0.75557 0.63267 0.64716 0.0
H2218 H 0.83489 0.56357 0.66175 0.0
H2219 H 0.81167 0.5906 0.6304 0.0
H2220 H 0.73407 0.65067 0.64166 0.0
H2221 H 0.78113 0.63901 0.63338 0.0
H2222 H 0.71829 0.52517 0.7755 0.0
H2223 H 0.7648 0.51375 0.76542 0.0
H2224 H 0.67026 0.54782 0.75502 0.0
H2225 H 0.65439 0.58425 0.7291 0.0
C2226 C 0.69743 0.54051 0.00315 0.0
C2227 C 0.69869 0.57277 0.98018 0.0
C2228 C 0.67978 0.53239 0.92678 0.0
C2229 C 0.67238 0.50163 0.95003 0.0
N2230 N 0.68548 0.47214 0.00661 0.0
N2231 N 0.7226 0.58742 0.91972 0.0
C2232 C 0.68521 0.50429 0.98714 0.0
C2233 C 0.69948 0.56555 0.94161 0.0
N2234 N 0.70917 0.54382 0.03934 0.0
N2235 N 0.66652 0.53086 0.89104 0.0
H2236 H 0.74316 0.60772 0.93074 0.0
H2237 H 0.72568 0.58095 0.89165 0.0
H2238 H 0.65103 0.5072 0.87897 0.0
H2239 H 0.66948 0.55404 0.87428 0.0
H2240 H 0.70231 0.52358 0.05867 0.0
H2241 H 0.72879 0.56529 0.04954 0.0
H2242 H 0.69652 0.47091 0.03336 0.0
H2243 H 0.6769 0.44575 0.99448 0.0
C2244 C 0.73396 0.46536 0.23921 0.0
C2245 C 0.70057 0.45713 0.21601 0.0
C2246 C 0.7426 0.44859 0.16297 0.0
C2247 C 0.77525 0.4585 0.18608 0.0
N2248 N 0.80204 0.48634 0.24263 0.0
N2249 N 0.67398 0.42953 0.15887 0.0
C2250 C 0.77068 0.47059 0.223 0.0
C2251 C 0.70516 0.44569 0.17853 0.0
N2252 N 0.73117 0.46472 0.27677 0.0
N2253 N 0.74782 0.44218 0.12607 0.0
H2254 H 0.64725 0.424 0.17109 0.0
H2255 H 0.67531 0.41802 0.13217 0.0
H2256 H 0.77514 0.4449 0.11447 0.0
H2257 H 0.72538 0.43749 0.10671 0.0
H2258 H 0.75488 0.46867 0.29481 0.0
H2259 H 0.70612 0.45448 0.28963 0.0
H2260 H 0.80024 0.49906 0.26884 0.0
H2261 H 0.82915 0.49002 0.23064 0.0
C2262 C 0.82632 0.50059 0.42091 0.0
C2263 C 0.80944 0.49092 0.45475 0.0
C2264 C 0.82088 0.55684 0.47776 0.0
C2265 C 0.83718 0.56671 0.44357 0.0
N2266 N 0.86918 0.54425 0.38906 0.0
N2267 N 0.80449 0.50676 0.51971 0.0
C2268 C 0.84397 0.5375 0.41697 0.0
C2269 C 0.81114 0.5181 0.48464 0.0
N2270 N 0.8258 0.47441 0.39247 0.0
N2271 N 0.81451 0.58447 0.50355 0.0
H2272 H 0.80041 0.47846 0.5259 0.0
H2273 H 0.80772 0.52473 0.54303 0.0
H2274 H 0.82132 0.61299 0.49917 0.0
H2275 H 0.79975 0.57943 0.52786 0.0
H2276 H 0.83291 0.48113 0.36552 0.0
H2277 H 0.81717 0.44612 0.39595 0.0
H2278 H 0.87888 0.52304 0.37185 0.0
H2279 H 0.88198 0.57088 0.38427 0.0
C2280 C 0.77711 0.45336 0.8391 0.0
C2281 C 0.78874 0.45153 0.80212 0.0
C2282 C 0.72271 0.42752 0.78441 0.0
C2283 C 0.71055 0.43682 0.82053 0.0
N2284 N 0.72596 0.46566 0.88026 0.0
N2285 N 0.77212 0.43214 0.73841 0.0
C2286 C 0.73771 0.45302 0.84683 0.0
C2287 C 0.76155 0.43698 0.77428 0.0
N2288 N 0.80403 0.45348 0.86684 0.0
N2289 N 0.69791 0.40648 0.76098 0.0
H2290 H 0.80055 0.43107 0.73028 0.0
H2291 H 0.75208 0.42802 0.71669 0.0
H2292 H 0.66857 0.40156 0.76643 0.0
H2293 H 0.70733 0.39165 0.73808 0.0
H2294 H 0.79707 0.45291 0.89472 0.0
H2295 H 0.83249 0.44842 0.86096 0.0
H2296 H 0.74449 0.48014 0.89972 0.0
H2297 H 0.69692 0.46457 0.88621 0.0
C2298 C 0.82415 0.55891 0.0317 0.0
C2299 C 0.81516 0.58815 0.05723 0.0
C2300 C 0.83654 0.54882 0.10734 0.0
C2301 C 0.8411 0.51918 0.08111 0.0
N2302 N 0.82554 0.49178 0.02097 0.0
N2303 N 0.81241 0.60935 0.12188 0.0
C2304 C 0.8284 0.52259 0.04452 0.0
C2305 C 0.82065 0.58257 0.09595 0.0
N2306 N 0.83255 0.56646 -0.00415 0.0
N2307 N 0.85047 0.54576 0.14249 0.0
H2308 H 0.80914 0.63727 0.11611 0.0
H2309 H 0.80974 0.60377 0.14982 0.0
H2310 H 0.86145 0.521 0.15119 0.0
H2311 H 0.85285 0.56792 0.16212 0.0
H2312 H 0.84142 0.54613 0.97709 0.0
H2313 H 0.8365 0.59392 0.9867 0.0
H2314 H 0.81506 0.49274 0.99388 0.0
H2315 H 0.83025 0.46499 0.03014 0.0
C2316 C 0.74373 0.61636 0.25533 0.0
C2317 C 0.72174 0.58899 0.27544 0.0
C2318 C 0.77534 0.58573 0.31945 0.0
C2319 C 0.7949 0.61617 0.30231 0.0
N2320 N 0.80429 0.65459 0.24998 0.0
N2321 N 0.71689 0.54539 0.32551 0.0
C2322 C 0.78127 0.62908 0.26845 0.0
C2323 C 0.7377 0.57273 0.30705 0.0
N2324 N 0.72777 0.63138 0.22489 0.0
N2325 N 0.7934 0.56963 0.3478 0.0
H2326 H 0.69049 0.53264 0.31622 0.0
H2327 H 0.72491 0.53588 0.35112 0.0
H2328 H 0.82112 0.57961 0.35612 0.0
H2329 H 0.78297 0.54537 0.36063 0.0
H2330 H 0.74101 0.65306 0.21009 0.0
H2331 H 0.69979 0.62353 0.21524 0.0
H2332 H 0.79798 0.66441 0.22404 0.0
H2333 H 0.83149 0.6643 0.26033 0.0
C2334 C 0.71542 0.53804 0.52351 0.0
C2335 C 0.70648 0.50316 0.54109 0.0
C2336 C 0.68655 0.53772 0.59636 0.0
C2337 C 0.69276 0.57161 0.5773 0.0
N2338 N 0.72348 0.60651 0.52966 0.0
N2339 N 0.68357 0.46925 0.59377 0.0
C2340 C 0.71133 0.57239 0.5433 0.0
C2341 C 0.69326 0.50288 0.57796 0.0
N2342 N 0.72525 0.53843 0.48718 0.0
N2343 N 0.6729 0.53915 0.63152 0.0
H2344 H 0.68766 0.44323 0.58097 0.0
H2345 H 0.66964 0.46668 0.61874 0.0
H2346 H 0.66609 0.56425 0.64458 0.0
H2347 H 0.67064 0.5164 0.64873 0.0
H2348 H 0.72858 0.56262 0.47196 0.0
H2349 H 0.72817 0.51428 0.47113 0.0
H2350 H 0.73926 0.60995 0.5057 0.0
H2351 H 0.72043 0.6317 0.5446 0.0
C2352 C 0.71106 0.81246 0.57855 0.0
C2353 C 0.72343 0.84276 0.60293 0.0
C2354 C 0.7072 0.80296 0.65443 0.0
C2355 C 0.70746 0.77052 0.62993 0.0
N2356 N 0.71246 0.74584 0.56709 0.0
N2357 N 0.72463 0.86981 0.66442 0.0
C2358 C 0.70977 0.77557 0.59144 0.0
C2359 C 0.7195 0.83885 0.64123 0.0
N2360 N 0.69802 0.81893 0.54394 0.0
N2361 N 0.6918 0.80015 0.68883 0.0
H2362 H 0.7251 0.89689 0.65443 0.0
H2363 H 0.72743 0.86848 0.69301 0.0
H2364 H 0.67593 0.77613 0.69733 0.0
H2365 H 0.69022 0.82296 0.70729 0.0
H2366 H 0.68322 0.79768 0.52758 0.0
H2367 H 0.69702 0.84601 0.53415 0.0
H2368 H 0.71615 0.74955 0.53894 0.0
H2369 H 0.71541 0.71844 0.57528 0.0
C2370 C 0.23464 0.77039 0.42675 0.0
C2371 C 0.21598 0.7458 0.45205 0.0
C2372 C 0.169 0.79294 0.46427 0.0
C2373 C 0.1839 0.8134 0.43495 0.0
N2374 N 0.24025 0.83307 0.40183 0.0
N2375 N 0.1662 0.73568 0.49816 0.0
C2376 C 0.2205 0.80616 0.42145 0.0
C2377 C 0.18362 0.75778 0.47222 0.0
N2378 N 0.26393 0.75849 0.40577 0.0
N2379 N 0.14261 0.80898 0.48577 0.0
H2380 H 0.17614 0.71056 0.50661 0.0
H2381 H 0.14025 0.74135 0.51033 0.0
H2382 H 0.13375 0.83552 0.47988 0.0
H2383 H 0.13398 0.79883 0.51112 0.0
H2384 H 0.27522 0.77369 0.38396 0.0
H2385 H 0.27416 0.73181 0.40764 0.0
H2386 H 0.26834 0.83097 0.39286 0.0
H2387 H 0.22941 0.85926 0.39817 0.0
C2388 C 0.54666 0.04292 0.69205 0.0
C2389 C 0.56733 0.01812 0.7135 0.0
C2390 C 0.51795 0.9674 0.69632 0.0
C2391 C 0.49487 0.99381 0.68002 0.0
N2392 N 0.48345 0.05885 0.67202 0.0
N2393 N 0.56289 0.95901 0.74586 0.0
C2394 C 0.50799 0.03233 0.68117 0.0
C2395 C 0.55048 0.98084 0.71849 0.0
N2396 N 0.56409 0.0763 0.68122 0.0
N2397 N 0.5101 0.92961 0.68975 0.0
H2398 H 0.58356 0.96833 0.76579 0.0
H2399 H 0.54892 0.93294 0.7515 0.0
H2400 H 0.48727 0.91832 0.67285 0.0
H2401 H 0.52865 0.90984 0.69846 0.0
H2402 H 0.55073 0.09396 0.66349 0.0
H2403 H 0.59327 0.0841 0.68633 0.0
H2404 H 0.49081 0.08769 0.67553 0.0
H2405 H 0.4545 0.05184 0.66489 0.0
C2406 C 0.34262 0.33482 0.95272 0.0
C2407 C 0.3102 0.33354 0.97596 0.0
C2408 C 0.30148 0.26481 0.96627 0.0
C2409 C 0.33308 0.26654 0.9424 0.0
N2410 N 0.38883 0.30024 0.91832 0.0
N2411 N 0.25444 0.29871 2e-05 0.0
C2412 C 0.35585 0.30065 0.93828 0.0
C2413 C 0.28855 0.29878 0.98179 0.0
N2414 N 0.35784 0.36881 0.94122 0.0
N2415 N 0.28345 0.23031 0.97272 0.0
H2416 H 0.24367 0.32314 0.01094 0.0
H2417 H 0.2355 0.27499 0.00268 0.0
H2418 H 0.29363 0.20558 0.96152 0.0
H2419 H 0.26049 0.22573 0.99042 0.0
H2420 H 0.37988 0.37203 0.92223 0.0
H2421 H 0.34516 0.3938 0.9476 0.0
H2422 H 0.40856 0.32347 0.91602 0.0
H2423 H 0.39804 0.27528 0.90674 0.0
C2424 C 0.46261 0.5816 0.66398 0.0
C2425 C 0.46658 0.56626 0.69897 0.0
C2426 C 0.53618 0.57814 0.6978 0.0
C2427 C 0.53292 0.59352 0.66256 0.0
N2428 N 0.49091 0.62725 0.62302 0.0
N2429 N 0.50351 0.57702 0.75536 0.0
C2430 C 0.49542 0.60047 0.64856 0.0
C2431 C 0.50232 0.57204 0.71813 0.0
N2432 N 0.42749 0.57973 0.6464 0.0
N2433 N 0.5706 0.56867 0.71183 0.0
H2434 H 0.47839 0.58225 0.76924 0.0
H2435 H 0.52926 0.58331 0.7703 0.0
H2436 H 0.59562 0.56928 0.6964 0.0
H2437 H 0.57271 0.55598 0.73726 0.0
H2438 H 0.42401 0.58698 0.61896 0.0
H2439 H 0.40218 0.57006 0.65927 0.0
H2440 H 0.46395 0.63468 0.61413 0.0
H2441 H 0.51362 0.64571 0.6148 0.0
C2442 C 0.81919 0.26391 0.05115 0.0
C2443 C 0.78276 0.24957 0.06522 0.0
C2444 C 0.77333 0.3139 0.08829 0.0
C2445 C 0.81269 0.32468 0.08311 0.0
N2446 N 0.87446 0.30845 0.06199 0.0
N2447 N 0.72743 0.26244 0.10236 0.0
C2448 C 0.83594 0.29929 0.06503 0.0
C2449 C 0.76019 0.27517 0.08491 0.0
N2450 N 0.83705 0.24596 0.02299 0.0
N2451 N 0.74912 0.34071 0.09832 0.0
H2452 H 0.71867 0.23394 0.10408 0.0
H2453 H 0.71154 0.27983 0.11893 0.0
H2454 H 0.75896 0.3691 0.10121 0.0
H2455 H 0.71931 0.33526 0.09976 0.0
H2456 H 0.86217 0.25743 0.01109 0.0
H2457 H 0.82491 0.22291 0.00753 0.0
H2458 H 0.89369 0.2888 0.05385 0.0
H2459 H 0.88692 0.33522 0.06945 0.0
C2460 C 0.51752 0.07317 0.81385 0.0
C2461 C 0.55164 0.08873 0.83428 0.0
C2462 C 0.51616 0.14357 0.85066 0.0
C2463 C 0.48136 0.12271 0.84134 0.0
N2464 N 0.44752 0.07298 0.80648 0.0
N2465 N 0.57969 0.13811 0.87653 0.0
C2466 C 0.48204 0.09007 0.81889 0.0
C2467 C 0.55016 0.12423 0.85341 0.0
N2468 N 0.5181 0.04309 0.78945 0.0
N2469 N 0.51533 0.18044 0.86156 0.0
H2470 H 0.60334 0.12293 0.88271 0.0
H2471 H 0.57842 0.16257 0.89297 0.0
H2472 H 0.48949 0.19357 0.86142 0.0
H2473 H 0.54022 0.19804 0.86724 0.0
H2474 H 0.49587 0.03563 0.77037 0.0
H2475 H 0.54041 0.02585 0.78623 0.0
H2476 H 0.44397 0.04587 0.79461 0.0
H2477 H 0.4219 0.08613 0.81026 0.0
C2478 C -0.00327 0.96195 0.28691 0.0
C2479 C 0.95888 0.95442 0.30094 0.0
C2480 C 0.98694 0.92208 0.35168 0.0
C2481 C 0.02306 0.9407 0.34389 0.0
N2482 N 0.06309 0.97938 0.30475 0.0
N2483 N 0.91748 0.92218 0.34449 0.0
C2484 C 0.02848 0.9602 0.31121 0.0
C2485 C 0.9537 0.9324 0.33252 0.0
N2486 N 0.0028 0.97047 0.25092 0.0
N2487 N 0.98472 0.89632 0.37873 0.0
H2488 H 0.89259 0.92855 0.3303 0.0
H2489 H 0.91215 0.90897 0.36929 0.0
H2490 H 0.00935 0.88922 0.39299 0.0
H2491 H 0.95963 0.87988 0.38448 0.0
H2492 H 0.03032 0.97332 0.23985 0.0
H2493 H 0.98095 0.97239 0.23134 0.0
H2494 H 0.06717 -0.00218 0.28322 0.0
H2495 H 0.08723 0.97766 0.32199 0.0
C2496 C 0.47116 0.33811 0.27191 0.0
C2497 C 0.45215 0.33877 0.2372 0.0
C2498 C 0.39032 0.34085 0.26627 0.0
C2499 C 0.40838 0.34283 0.30203 0.0
N2500 N 0.46665 0.33995 0.33873 0.0
N2501 N 0.39807 0.35685 0.20237 0.0
C2502 C 0.4493 0.34114 0.3048 0.0
C2503 C 0.41335 0.34659 0.23508 0.0
N2504 N 0.50963 0.33268 0.27293 0.0
N2505 N 0.35216 0.32941 0.26111 0.0
H2506 H 0.41507 0.36018 0.17901 0.0
H2507 H 0.36999 0.36506 0.19985 0.0
H2508 H 0.33571 0.316 0.28121 0.0
H2509 H 0.33903 0.32637 0.23497 0.0
H2510 H 0.52544 0.32846 0.29685 0.0
H2511 H 0.52585 0.33223 0.24892 0.0
H2512 H 0.49629 0.34345 0.34348 0.0
H2513 H 0.45083 0.33384 0.36221 0.0
C2514 C 0.45159 0.79777 0.00509 0.0
C2515 C 0.43406 0.78577 0.97027 0.0
C2516 C 0.39785 0.73458 0.0018 0.0
C2517 C 0.42299 0.74106 0.03319 0.0
N2518 N 0.47592 0.77793 0.06379 0.0
N2519 N 0.38467 0.74651 0.93726 0.0
C2520 C 0.45024 0.77262 0.03478 0.0
C2521 C 0.40514 0.75539 0.96927 0.0
N2522 N 0.46818 0.83357 0.01048 0.0
N2523 N 0.36663 0.70898 0.00351 0.0
H2524 H 0.38559 0.76428 0.91495 0.0
H2525 H 0.36711 0.72174 0.93276 0.0
H2526 H 0.36008 0.69415 0.02723 0.0
H2527 H 0.34536 0.70482 0.98292 0.0
H2528 H 0.48075 0.84375 0.03552 0.0
H2529 H 0.46342 0.8549 0.99239 0.0
H2530 H 0.4994 0.79794 0.06407 0.0
H2531 H 0.4755 0.76045 0.0863 0.0
C2532 C 0.00752 0.70552 0.76698 0.0
C2533 C 0.02578 0.72758 0.73862 0.0
C2534 C 0.07741 0.74814 0.78301 0.0
C2535 C 0.06432 0.72037 0.80733 0.0
N2536 N 0.01287 0.67892 0.82822 0.0
N2537 N 0.08782 0.75677 0.71891 0.0
C2538 C 0.02764 0.70142 0.80135 0.0
C2539 C 0.06331 0.74571 0.74632 0.0
N2540 N 0.97219 0.68684 0.76066 0.0
N2541 N 0.1066 0.77402 0.79404 0.0
H2542 H 0.0845 0.74697 0.69161 0.0
H2543 H 0.11563 0.76899 0.72428 0.0
H2544 H 0.11789 0.77507 0.82102 0.0
H2545 H 0.11646 0.79604 0.77758 0.0
H2546 H 0.95748 0.67085 0.77992 0.0
H2547 H 0.95795 0.68432 0.73529 0.0
H2548 H 0.98927 0.65942 0.82478 0.0
H2549 H 0.02474 0.68004 0.85487 0.0
C2550 C 0.09461 0.36919 0.46332 0.0
C2551 C 0.08399 0.33046 0.45493 0.0
C2552 C 0.0797 0.32194 0.52196 0.0
C2553 C 0.09358 0.36001 0.52824 0.0
N2554 N 0.1372 0.40836 0.50321 0.0
N2555 N 0.08442 0.2679 0.48033 0.0
C2556 C 0.1104 0.37881 0.49825 0.0
C2557 C 0.08281 0.30581 0.48558 0.0
N2558 N 0.08194 0.3977 0.44354 0.0
N2559 N 0.06183 0.30196 0.54898 0.0
H2560 H 0.09039 0.25572 0.45464 0.0
H2561 H 0.08496 0.24985 0.50239 0.0
H2562 H 0.0578 0.31355 0.57531 0.0
H2563 H 0.04867 0.27493 0.54392 0.0
H2564 H 0.08963 0.42587 0.45116 0.0
H2565 H 0.05801 0.39426 0.42592 0.0
H2566 H 0.14908 0.42245 0.48076 0.0
H2567 H 0.15 0.41507 0.52902 0.0
C2568 C 0.47927 0.72867 0.28922 0.0
C2569 C 0.47224 0.75938 0.3127 0.0
C2570 C 0.42819 0.77972 0.26449 0.0
C2571 C 0.43837 0.7495 0.2405 0.0
N2572 N 0.49617 0.72183 0.22562 0.0
N2573 N 0.44705 0.82114 0.31726 0.0
C2574 C 0.46965 0.72973 0.25119 0.0
C2575 C 0.44856 0.78712 0.29902 0.0
N2576 N 0.4924 0.69722 0.30364 0.0
N2577 N 0.40025 0.80221 0.25379 0.0
H2578 H 0.4611 0.82813 0.34235 0.0
H2579 H 0.4339 0.84362 0.30612 0.0
H2580 H 0.38933 0.80162 0.22675 0.0
H2581 H 0.38789 0.82106 0.27188 0.0
H2582 H 0.48704 0.67117 0.29005 0.0
H2583 H 0.50056 0.69585 0.33141 0.0
H2584 H 0.52497 0.72105 0.23372 0.0
H2585 H 0.49145 0.72506 0.19742 0.0
C2586 C 0.05589 0.74887 0.01055 0.0
C2587 C 0.05531 0.73671 0.04772 0.0
C2588 C 0.05889 0.6713 0.02519 0.0
C2589 C 0.06071 0.68331 0.98788 0.0
N2590 N 0.05725 0.73252 0.94454 0.0
N2591 N 0.06231 0.6878 0.0908 0.0
C2592 C 0.0587 0.72197 0.98047 0.0
C2593 C 0.0582 0.6983 0.05503 0.0
N2594 N 0.05176 0.78593 0.00401 0.0
N2595 N 0.05685 0.63377 0.03237 0.0
H2596 H 0.06311 0.70692 0.11333 0.0
H2597 H 0.06846 0.66089 0.09822 0.0
H2598 H 0.06427 0.61304 0.01338 0.0
H2599 H 0.04669 0.62302 0.05708 0.0
H2600 H 0.04634 0.79641 0.97824 0.0
H2601 H 0.05106 0.80677 0.02475 0.0
H2602 H 0.05484 0.75979 0.93619 0.0
H2603 H 0.05762 0.71358 0.92202 0.0
C2604 C 0.03756 0.37383 0.78807 0.0
C2605 C 0.06699 0.37211 0.81575 0.0
C2606 C 0.11193 0.35388 0.76907 0.0
C2607 C 0.08318 0.356 0.74036 0.0
N2608 N 0.01676 0.36111 0.72382 0.0
N2609 N 0.13482 0.37865 0.82912 0.0
C2610 C 0.04543 0.36461 0.75023 0.0
C2611 C 0.10511 0.36881 0.80478 0.0
N2612 N 0.00239 0.3848 0.79831 0.0
N2613 N 0.14402 0.3343 0.76435 0.0
H2614 H 0.13003 0.39053 0.85527 0.0
H2615 H 0.1637 0.37922 0.82163 0.0
H2616 H 0.14826 0.31564 0.74245 0.0
H2617 H 0.16355 0.3307 0.78585 0.0
H2618 H 0.97817 0.38407 0.78105 0.0
H2619 H -0.00154 0.3978 0.82412 0.0
H2620 H 0.98781 0.36406 0.7289 0.0
H2621 H 0.02163 0.35232 0.69663 0.0
C2622 C 0.4587 0.32297 0.51168 0.0
C2623 C 0.45275 0.34046 0.54661 0.0
C2624 C 0.42386 0.39169 0.51644 0.0
C2625 C 0.43969 0.37973 0.48257 0.0
N2626 N 0.46849 0.33212 0.44626 0.0
N2627 N 0.42442 0.38798 0.58332 0.0
C2628 C 0.45485 0.34406 0.47939 0.0
C2629 C 0.43268 0.37331 0.54928 0.0
N2630 N 0.46935 0.28688 0.50991 0.0
N2631 N 0.4013 0.42125 0.51694 0.0
H2632 H 0.42884 0.37354 0.60745 0.0
H2633 H 0.41486 0.41471 0.58775 0.0
H2634 H 0.39376 0.43361 0.49265 0.0
H2635 H 0.38728 0.4308 0.54016 0.0
H2636 H 0.47192 0.27144 0.48525 0.0
H2637 H 0.47244 0.27148 0.53364 0.0
H2638 H 0.48367 0.30822 0.44261 0.0
H2639 H 0.46566 0.34753 0.42256 0.0
C2640 C 0.24888 0.50511 0.33649 0.0
C2641 C 0.22989 0.48562 0.30504 0.0
C2642 C 0.2875 0.45053 0.29755 0.0
C2643 C 0.29751 0.45908 0.33438 0.0
N2644 N 0.3028 0.50692 0.38118 0.0
N2645 N 0.23208 0.43289 0.25969 0.0
C2646 C 0.2824 0.49014 0.35202 0.0
C2647 C 0.24988 0.45703 0.28586 0.0
N2648 N 0.23578 0.53761 0.3509 0.0
N2649 N 0.31126 0.43004 0.27667 0.0
H2650 H 0.20266 0.43065 0.25463 0.0
H2651 H 0.24539 0.41068 0.24708 0.0
H2652 H 0.33808 0.42347 0.28707 0.0
H2653 H 0.30565 0.42239 0.24899 0.0
H2654 H 0.24525 0.55031 0.37603 0.0
H2655 H 0.21686 0.55348 0.33673 0.0
H2656 H 0.29649 0.53209 0.39417 0.0
H2657 H 0.32861 0.49651 0.3898 0.0
C2658 C 0.31923 0.5286 0.03755 0.0
C2659 C 0.29348 0.51379 0.06493 0.0
C2660 C 0.29332 0.57828 0.09349 0.0
C2661 C 0.32445 0.58985 0.07102 0.0
N2662 N 0.35139 0.58418 0.01117 0.0
N2663 N 0.24941 0.52693 0.11402 0.0
C2664 C 0.33216 0.5674 0.03959 0.0
C2665 C 0.27799 0.53961 0.09105 0.0
N2666 N 0.33169 0.50631 0.00937 0.0
N2667 N 0.27872 0.60436 0.11674 0.0
H2668 H 0.23386 0.54426 0.1308 0.0
H2669 H 0.24111 0.49848 0.11686 0.0
H2670 H 0.28845 0.63275 0.11665 0.0
H2671 H 0.25569 0.59899 0.13418 0.0
H2672 H 0.35598 0.51384 0.99404 0.0
H2673 H 0.31846 0.4804 0.00066 0.0
H2674 H 0.3552 0.57104 0.9855 0.0
H2675 H 0.35998 0.61296 0.01233 0.0
C2676 C 0.27235 0.5804 0.84039 0.0
C2677 C 0.29489 0.58445 0.80886 0.0
C2678 C 0.24507 0.62091 0.78148 0.0
C2679 C 0.2237 0.61781 0.81449 0.0
N2680 N 0.2067 0.57334 0.85972 0.0
N2681 N 0.30623 0.61582 0.75138 0.0
C2682 C 0.2344 0.59213 0.84027 0.0
C2683 C 0.28213 0.60641 0.77957 0.0
N2684 N 0.28872 0.56969 0.87221 0.0
N2685 N 0.2285 0.63553 0.75127 0.0
H2686 H 0.33456 0.60848 0.75032 0.0
H2687 H 0.29978 0.63453 0.73114 0.0
H2688 H 0.20034 0.64385 0.75164 0.0
H2689 H 0.24038 0.63498 0.72507 0.0
H2690 H 0.2765 0.57617 0.89744 0.0
H2691 H 0.31667 0.56088 0.87359 0.0
H2692 H 0.21223 0.54789 0.87114 0.0
H2693 H 0.17769 0.57865 0.85736 0.0
C2694 C 0.23808 0.54305 0.58932 0.0
C2695 C 0.2216 0.5718 0.56814 0.0
C2696 C 0.17371 0.52322 0.54281 0.0
C2697 C 0.1843 0.49763 0.56935 0.0
N2698 N 0.23223 0.47879 0.61147 0.0
N2699 N 0.16505 0.58842 0.53397 0.0
C2700 C 0.21875 0.50597 0.59012 0.0
C2701 C 0.18725 0.56154 0.54703 0.0
N2702 N 0.27148 0.55074 0.6094 0.0
N2703 N 0.1482 0.51117 0.51512 0.0
H2704 H 0.16964 0.61682 0.54197 0.0
H2705 H 0.13871 0.5819 0.52017 0.0
H2706 H 0.13692 0.48321 0.51261 0.0
H2707 H 0.14159 0.52794 0.4932 0.0
H2708 H 0.28948 0.5302 0.6171 0.0
H2709 H 0.27997 0.57698 0.62142 0.0
H2710 H 0.25571 0.48293 0.62963 0.0
H2711 H 0.22034 0.45105 0.61003 0.0
C2712 C 0.26656 0.56422 0.20553 0.0
C2713 C 0.23739 0.58512 0.22248 0.0
C2714 C 0.28787 0.63372 0.24042 0.0
C2715 C 0.31212 0.61955 0.21318 0.0
N2716 N 0.32891 0.56744 0.17512 0.0
N2717 N 0.22134 0.64383 0.25216 0.0
C2718 C 0.30312 0.58315 0.19778 0.0
C2719 C 0.24843 0.62079 0.23966 0.0
N2720 N 0.26005 0.5265 0.19796 0.0
N2721 N 0.30156 0.66348 0.26271 0.0
H2722 H 0.19179 0.63759 0.24806 0.0
H2723 H 0.22808 0.67132 0.26222 0.0
H2724 H 0.3305 0.67379 0.26221 0.0
H2725 H 0.28487 0.67575 0.28269 0.0
H2726 H 0.2803 0.51023 0.18608 0.0
H2727 H 0.23566 0.51048 0.20601 0.0
H2728 H 0.32282 0.54257 0.15954 0.0
H2729 H 0.35642 0.58038 0.17131 0.0
C2730 C 0.14883 0.4826 0.97185 0.0
C2731 C 0.18677 0.47789 0.95933 0.0
C2732 C 0.19238 0.54323 0.9409 0.0
C2733 C 0.15348 0.54762 0.9497 0.0
N2734 N 0.10318 0.52723 0.99116 0.0
N2735 N 0.23842 0.49973 0.92108 0.0
C2736 C 0.13382 0.51876 0.97013 0.0
C2737 C 0.20603 0.50692 0.93988 0.0
N2738 N 0.1263 0.45241 0.98346 0.0
N2739 N 0.21839 0.57324 0.93757 0.0
H2740 H 0.2466 0.47238 0.91631 0.0
H2741 H 0.25504 0.52031 0.90811 0.0
H2742 H 0.21217 0.60114 0.94245 0.0
H2743 H 0.21217 0.60114 0.94245 0.0
H2744 H 0.09754 0.45381 0.99059 0.0
H2745 H 0.13429 0.4249 0.98058 0.0
H2746 H 0.08973 0.50867 0.00935 0.0
H2747 H 0.09503 0.55471 0.99457 0.0
C2748 C 0.25882 0.51296 0.70253 0.0
C2749 C 0.2914 0.49164 0.7105 0.0
C2750 C 0.25101 0.43506 0.70007 0.0
C2751 C 0.21718 0.45439 0.69987 0.0
N2752 N 0.18903 0.51396 0.70778 0.0
N2753 N 0.30191 0.4343 0.74334 0.0
C2754 C 0.22085 0.49426 0.70335 0.0
C2755 C 0.28353 0.45291 0.71687 0.0
N2756 N 0.26329 0.54974 0.69306 0.0
N2757 N 0.25242 0.39978 0.68491 0.0
H2758 H 0.31905 0.44804 0.76428 0.0
H2759 H 0.29418 0.40596 0.74803 0.0
H2760 H 0.23167 0.38827 0.66588 0.0
H2761 H 0.27648 0.38466 0.68828 0.0
H2762 H 0.24006 0.56495 0.6857 0.0
H2763 H 0.28976 0.56365 0.68741 0.0
H2764 H 0.19079 0.54287 0.71381 0.0
H2765 H 0.16132 0.50069 0.70901 0.0
C2766 C 0.30675 0.55363 0.46854 0.0
C2767 C 0.32981 0.58819 0.47131 0.0
C2768 C 0.38742 0.55445 0.47415 0.0
C2769 C 0.36587 0.51985 0.46532 0.0
N2770 N 0.30167 0.4866 0.46634 0.0
N2771 N 0.3917 0.62091 0.46391 0.0
C2772 C 0.32471 0.51919 0.46571 0.0
C2773 C 0.37004 0.58825 0.46941 0.0
N2774 N 0.26746 0.55338 0.46911 0.0
N2775 N 0.42311 0.55511 0.49052 0.0
H2776 H 0.37892 0.64584 0.45855 0.0
H2777 H 0.42164 0.62204 0.46196 0.0
H2778 H 0.43421 0.53077 0.50016 0.0
H2779 H 0.4385 0.5801 0.49958 0.0
H2780 H 0.25307 0.57802 0.47002 0.0
H2781 H 0.24949 0.52852 0.46721 0.0
H2782 H 0.31168 0.45998 0.46912 0.0
H2783 H 0.31168 0.45998 0.46912 0.0
C2784 C 0.30727 0.27787 0.50187 0.0
C2785 C 0.30859 0.24651 0.47666 0.0
C2786 C 0.35114 0.284 0.43729 0.0
C2787 C 0.34076 0.31671 0.45677 0.0
N2788 N 0.31494 0.34622 0.51013 0.0
N2789 N 0.33612 0.21742 0.42372 0.0
C2790 C 0.32147 0.31403 0.4905 0.0
C2791 C 0.33265 0.24869 0.44578 0.0
N2792 N 0.29181 0.27306 0.53594 0.0
N2793 N 0.37772 0.28728 0.41001 0.0
H2794 H 0.32603 0.19052 0.43139 0.0
H2795 H 0.34736 0.21863 0.39741 0.0
H2796 H 0.39165 0.31324 0.40394 0.0
H2797 H 0.38841 0.26438 0.39602 0.0
H2798 H 0.29201 0.29436 0.55637 0.0
H2799 H 0.28134 0.24679 0.5448 0.0
H2800 H 0.29756 0.34691 0.53315 0.0
H2801 H 0.3266 0.3726 0.50238 0.0
C2802 C 0.84862 0.33464 0.56569 0.0
C2803 C 0.82456 0.3259 0.53427 0.0
C2804 C 0.81978 0.25939 0.54943 0.0
C2805 C 0.83771 0.2696 0.58397 0.0
N2806 N 0.88255 0.312 0.61852 0.0
N2807 N 0.80749 0.27812 0.48676 0.0
C2808 C 0.85684 0.30566 0.58975 0.0
C2809 C 0.81678 0.28752 0.52279 0.0
N2810 N 0.86142 0.37104 0.57378 0.0
N2811 N 0.80416 0.22352 0.54296 0.0
H2812 H 0.80923 0.29805 0.46633 0.0
H2813 H 0.80347 0.25039 0.47654 0.0
H2814 H 0.80784 0.20261 0.56183 0.0
H2815 H 0.7869 0.21516 0.51991 0.0
H2816 H 0.86806 0.38054 0.60064 0.0
H2817 H 0.86204 0.39169 0.55399 0.0
H2818 H 0.89993 0.33686 0.62235 0.0
H2819 H 0.88909 0.29072 0.63615 0.0
C2820 C 0.4961 0.04384 0.28897 0.0
C2821 C 0.46256 0.06521 0.28869 0.0
C2822 C 0.49586 0.1108 0.33221 0.0
C2823 C 0.52935 0.09002 0.33245 0.0
N2824 N 0.56444 0.04148 0.30456 0.0
N2825 N 0.44154 0.12732 0.29518 0.0
C2826 C 0.53057 0.05821 0.30844 0.0
C2827 C 0.46549 0.10109 0.30614 0.0
N2828 N 0.49495 0.00925 0.27177 0.0
N2829 N 0.49283 0.14013 0.35692 0.0
H2830 H 0.42221 0.12209 0.27295 0.0
H2831 H 0.44451 0.15535 0.3047 0.0
H2832 H 0.51497 0.15052 0.3751 0.0
H2833 H 0.46795 0.15432 0.35918 0.0
H2834 H 0.51597 0.99026 0.27503 0.0
H2835 H 0.47204 -0.00115 0.25525 0.0
H2836 H 0.56864 0.02047 0.28464 0.0
H2837 H 0.58955 0.05115 0.31916 0.0
C2838 C 0.67866 0.78301 0.03771 0.0
C2839 C 0.67264 0.74598 0.05126 0.0
C2840 C 0.66165 0.77277 0.11289 0.0
C2841 C 0.67615 0.80862 0.10116 0.0
N2842 N 0.69712 0.84909 0.05246 0.0
N2843 N 0.65446 0.70516 0.10052 0.0
C2844 C 0.6834 0.81434 0.06338 0.0
C2845 C 0.66234 0.74081 0.08845 0.0
N2846 N 0.68079 0.78818 0.00056 0.0
N2847 N 0.64701 0.76968 0.14749 0.0
H2848 H 0.6522 0.68152 0.08254 0.0
H2849 H 0.65137 0.69883 0.1282 0.0
H2850 H 0.64588 0.79304 0.16545 0.0
H2851 H 0.63299 0.74518 0.15709 0.0
H2852 H 0.68135 0.81451 0.98894 0.0
H2853 H 0.67859 0.76616 0.98085 0.0
H2854 H 0.70688 0.8545 0.02604 0.0
H2855 H 0.70013 0.87265 0.07044 0.0
C2856 C 0.5053 0.47724 0.2764 0.0
C2857 C 0.52186 0.51462 0.28468 0.0
C2858 C 0.46964 0.52584 0.3267 0.0
C2859 C 0.45712 0.48739 0.32326 0.0
N2860 N 0.44933 0.4327 0.28335 0.0
N2861 N 0.50399 0.57803 0.29802 0.0
C2862 C 0.47036 0.46515 0.29399 0.0
C2863 C 0.49864 0.54024 0.30322 0.0
N2864 N 0.52263 0.453 0.25318 0.0
N2865 N 0.45629 0.54782 0.35445 0.0
H2866 H 0.52292 0.58901 0.27836 0.0
H2867 H 0.48626 0.5974 0.30971 0.0
H2868 H 0.43374 0.53829 0.37128 0.0
H2869 H 0.46967 0.57425 0.36172 0.0
H2870 H 0.51467 0.42419 0.25131 0.0
H2871 H 0.5442 0.46134 0.23507 0.0
H2872 H 0.45494 0.41708 0.25951 0.0
H2873 H 0.42358 0.42447 0.29628 0.0
C2874 C 0.21996 0.79182 0.9771 0.0
C2875 C 0.19468 0.82187 0.97779 0.0
C2876 C 0.15137 0.78489 0.93457 0.0
C2877 C 0.17662 0.75546 0.93397 0.0
N2878 N 0.23038 0.72678 0.96054 0.0
N2879 N 0.12845 0.83438 0.97347 0.0
C2880 C 0.20953 0.75763 0.95707 0.0
C2881 C 0.15802 0.81499 0.96101 0.0
N2882 N 0.25374 0.79529 -0.00373 0.0
N2883 N 0.12122 0.78433 0.90994 0.0
H2884 H 0.13171 0.85203 -0.00289 0.0
H2885 H 0.10046 0.82959 0.96295 0.0
H2886 H 0.11476 0.76236 0.89052 0.0
H2887 H 0.10374 0.80664 0.90788 0.0
H2888 H 0.27703 0.77925 0.99099 0.0
H2889 H 0.25617 0.81219 0.01966 0.0
H2890 H 0.25221 0.72505 0.9803 0.0
H2891 H 0.22396 0.70154 0.94545 0.0
C2892 C 0.47197 0.97739 0.18326 0.0
C2893 C 0.44656 0.94701 0.19462 0.0
C2894 C 0.49793 0.90474 0.18415 0.0
C2895 C 0.52298 0.93626 0.17531 0.0
N2896 N 0.53847 0.00254 0.18323 0.0
N2897 N 0.43847 0.88261 0.21347 0.0
C2898 C 0.51164 0.97258 0.1824 0.0
C2899 C 0.46066 0.91087 0.198 0.0
N2900 N 0.45864 0.01007 0.17148 0.0
N2901 N 0.50875 0.8693 0.17693 0.0
H2902 H 0.41034 0.88595 0.22193 0.0
H2903 H 0.44893 0.85683 0.21951 0.0
H2904 H 0.53611 0.86468 0.1672 0.0
H2905 H 0.49017 0.84516 0.17904 0.0
H2906 H 0.47684 0.03162 0.16107 0.0
H2907 H 0.42952 0.0139 0.16765 0.0
H2908 H 0.53157 0.02997 0.18974 0.0
H2909 H 0.56785 -0.00131 0.18082 0.0
C2910 C 0.03667 0.07524 0.66972 0.0
C2911 C 0.0551 0.10456 0.6933 0.0
C2912 C 0.00047 0.14145 0.68333 0.0
C2913 C 0.98707 0.11797 0.65376 0.0
N2914 N 0.99284 0.06062 0.61761 0.0
N2915 N 0.06076 0.17153 0.70366 0.0
C2916 C 0.00519 0.08402 0.6467 0.0
C2917 C 0.03855 0.13934 0.69562 0.0
N2918 N 0.04762 0.0392 0.66968 0.0
N2919 N 0.97712 0.165 0.70044 0.0
H2920 H 0.09031 0.17159 0.70809 0.0
H2921 H 0.05078 0.19748 0.69778 0.0
H2922 H 0.94792 0.165 0.69348 0.0
H2923 H 0.98582 0.17846 0.72538 0.0
H2924 H 0.03275 0.01704 0.65471 0.0
H2925 H 0.06899 0.03011 0.68679 0.0
H2926 H 0.00967 0.04014 0.60656 0.0
H2927 H 0.96671 0.06329 0.60366 0.0
loop_
_geom_bond_atom_site_label_1
_geom_bond_atom_site_label_2
_geom_bond_distance
_geom_bond_site_symmetry_2
_ccdc_geom_bond_type
Mn0 O5 2.095 1_455 S
Mn0 O15 2.162 1_455 S
Mn0 O16 2.297 1_455 S
Mn0 O24 2.385 . S
Mn0 O25 2.209 . S
Mn0 O26 2.094 . S
Mn1 O6 2.121 . S
Mn1 N8 2.257 . S
Mn1 N17 2.282 . S
Mn1 O25 2.215 . S
Mn1 O27 2.117 . S
C2 O24 1.234 . S
C2 O25 1.283 . S
C3 O15 1.281 . S
C3 O16 1.236 . S
C4 O26 1.240 . S
C4 O27 1.264 . S
O5 Mn0 2.095 1_655 S
O5 C14 1.250 . S
O6 Mn1 2.121 . S
O6 C14 1.258 1_455 S
C7 N8 1.326 . S
C7 C11 1.460 . S
C7 H13 0.929 . S
N8 Mn1 2.257 . S
N8 C7 1.326 . S
N8 C12 1.362 . S
C9 C10 1.258 . S
C9 C12 1.431 . S
C9 C29 1.449 . S
C10 C9 1.258 . S
C10 C11 1.477 . S
C10 H30 0.931 . S
C11 C7 1.460 . S
C11 C10 1.477 . S
C11 H31 0.930 . S
C12 N8 1.362 . S
C12 C9 1.431 . S
C12 C22 1.476 . S
H13 C7 0.929 . S
C14 O5 1.250 . S
C14 O6 1.258 1_655 S
O15 Mn0 2.162 1_655 S
O15 C3 1.281 . S
O16 Mn0 2.297 1_655 S
O16 C3 1.236 . S
N17 Mn1 2.282 . S
N17 C18 1.328 . S
N17 C22 1.318 . S
C18 N17 1.328 . S
C18 C19 1.457 . S
C18 H23 0.929 . S
C19 C18 1.457 . S
C19 C20 1.291 . S
C19 H32 0.931 . S
C20 C19 1.291 . S
C20 C21 1.373 . S
C20 H33 0.929 . S
C21 C20 1.373 . S
C21 C22 1.396 . S
C21 C28 1.403 . S
C22 C12 1.476 . S
C22 N17 1.318 . S
C22 C21 1.396 . S
H23 C18 0.929 . S
O24 Mn0 2.385 . S
O24 C2 1.234 . S
O25 Mn0 2.209 . S
O25 Mn1 2.215 . S
O25 C2 1.283 . S
O26 Mn0 2.094 . S
O26 C4 1.240 . S
O27 Mn1 2.117 . S
O27 C4 1.264 . S
C28 C21 1.403 . S
C28 C29 1.399 . S
C28 H34 0.929 . S
C29 C9 1.449 . S
C29 C28 1.399 . S
C29 H35 0.930 . S
H30 C10 0.931 . S
H31 C11 0.930 . S
H32 C19 0.931 . S
H33 C20 0.929 . S
H34 C28 0.929 . S
H35 C29 0.930 . S
Mn36 O41 2.107 . S
Mn36 O51 2.162 . S
Mn36 O52 2.297 . S
Mn36 O60 2.385 . S
Mn36 O61 2.209 1_455 S
Mn36 O62 2.094 . S
Mn37 O42 2.121 . S
Mn37 N44 2.257 . S
Mn37 N53 2.282 . S
Mn37 O61 2.215 . S
Mn37 O63 2.117 . S
C38 O60 1.234 1_655 S
C38 O61 1.283 . S
C39 O51 1.281 . S
C39 O52 1.236 . S
C40 O62 1.240 . S
C40 O63 1.264 1_455 S
O41 Mn36 2.107 . S
O41 C50 1.221 1_455 S
O42 Mn37 2.121 . S
O42 C50 1.258 . S
C43 N44 1.326 . S
C43 C47 1.460 . S
C43 H49 0.929 . S
N44 Mn37 2.257 . S
N44 C43 1.326 . S
N44 C48 1.362 . S
C45 C46 1.258 . S
C45 C48 1.431 . S
C45 C65 1.449 . S
C46 C45 1.258 . S
C46 C47 1.477 . S
C46 H66 0.931 . S
C47 C43 1.460 . S
C47 C46 1.477 . S
C47 H67 0.930 . S
C48 N44 1.362 . S
C48 C45 1.431 . S
C48 C58 1.476 . S
H49 C43 0.929 . S
C50 O41 1.221 1_655 S
C50 O42 1.258 . S
O51 Mn36 2.162 . S
O51 C39 1.281 . S
O52 Mn36 2.297 . S
O52 C39 1.236 . S
N53 Mn37 2.282 . S
N53 C54 1.328 . S
N53 C58 1.318 . S
C54 N53 1.328 . S
C54 C55 1.457 . S
C54 H59 0.929 . S
C55 C54 1.457 . S
C55 C56 1.291 . S
C55 H68 0.931 . S
C56 C55 1.291 . S
C56 C57 1.373 . S
C56 H69 0.929 . S
C57 C56 1.373 . S
C57 C58 1.396 . S
C57 C64 1.403 . S
C58 C48 1.476 . S
C58 N53 1.318 . S
C58 C57 1.396 . S
H59 C54 0.929 . S
O60 Mn36 2.385 . S
O60 C38 1.234 1_455 S
O61 Mn36 2.209 1_655 S
O61 Mn37 2.215 . S
O61 C38 1.283 . S
O62 Mn36 2.094 . S
O62 C40 1.240 . S
O63 Mn37 2.117 . S
O63 C40 1.264 1_655 S
C64 C57 1.403 . S
C64 C65 1.399 . S
C64 H70 0.929 . S
C65 C45 1.449 . S
C65 C64 1.399 . S
C65 H71 0.930 . S
H66 C46 0.931 . S
H67 C47 0.930 . S
H68 C55 0.931 . S
H69 C56 0.929 . S
H70 C64 0.929 . S
H71 C65 0.930 . S
Mn72 O77 2.095 . S
Mn72 O87 2.162 . S
Mn72 O88 2.297 . S
Mn72 O96 2.385 . S
Mn72 O97 2.209 . S
Mn72 O98 2.094 . S
Mn73 O78 2.121 . S
Mn73 N80 2.257 . S
Mn73 N89 2.282 . S
Mn73 O97 2.215 . S
Mn73 O99 2.117 . S
C74 O96 1.234 . S
C74 O97 1.283 . S
C75 O87 1.281 . S
C75 O88 1.236 . S
C76 O98 1.240 . S
C76 O99 1.264 . S
O77 Mn72 2.095 . S
O77 C86 1.250 . S
O78 Mn73 2.121 . S
O78 C86 1.258 . S
C79 N80 1.326 . S
C79 C83 1.460 1_565 S
C79 H85 0.929 . S
N80 Mn73 2.257 . S
N80 C79 1.326 . S
N80 C84 1.362 . S
C81 C82 1.258 1_565 S
C81 C84 1.431 . S
C81 C101 1.449 . S
C82 C81 1.258 1_545 S
C82 C83 1.477 . S
C82 H102 0.931 . S
C83 C79 1.460 1_545 S
C83 C82 1.477 . S
C83 H103 0.930 . S
C84 N80 1.362 . S
C84 C81 1.431 . S
C84 C94 1.476 . S
H85 C79 0.929 . S
C86 O77 1.250 . S
C86 O78 1.258 . S
O87 Mn72 2.162 . S
O87 C75 1.281 . S
O88 Mn72 2.297 . S
O88 C75 1.236 . S
N89 Mn73 2.282 . S
N89 C90 1.328 . S
N89 C94 1.318 . S
C90 N89 1.328 . S
C90 C91 1.457 . S
C90 H95 0.929 . S
C91 C90 1.457 . S
C91 C92 1.291 . S
C91 H104 0.931 . S
C92 C91 1.291 . S
C92 C93 1.373 . S
C92 H105 0.929 . S
C93 C92 1.373 . S
C93 C94 1.396 . S
C93 C100 1.403 . S
C94 C84 1.476 . S
C94 N89 1.318 . S
C94 C93 1.396 . S
H95 C90 0.929 . S
O96 Mn72 2.385 . S
O96 C74 1.234 . S
O97 Mn72 2.209 . S
O97 Mn73 2.215 . S
O97 C74 1.283 . S
O98 Mn72 2.094 . S
O98 C76 1.240 . S
O99 Mn73 2.117 . S
O99 C76 1.264 . S
C100 C93 1.403 . S
C100 C101 1.399 . S
C100 H106 0.929 . S
C101 C81 1.449 . S
C101 C100 1.399 . S
C101 H107 0.930 1_565 S
H102 C82 0.931 . S
H103 C83 0.930 . S
H104 C91 0.931 . S
H105 C92 0.929 . S
H106 C100 0.929 . S
H107 C101 0.930 1_545 S
Mn108 O113 2.095 . S
Mn108 O123 2.162 . S
Mn108 O124 2.297 . S
Mn108 O132 2.385 . S
Mn108 O133 2.209 . S
Mn108 O134 2.094 . S
Mn109 O114 2.121 . S
Mn109 N116 2.257 . S
Mn109 N125 2.282 . S
Mn109 O133 2.215 . S
Mn109 O135 2.117 . S
C110 O132 1.234 . S
C110 O133 1.283 . S
C111 O123 1.281 . S
C111 O124 1.236 . S
C112 O134 1.240 . S
C112 O135 1.264 . S
O113 Mn108 2.095 . S
O113 C122 1.250 . S
O114 Mn109 2.121 . S
O114 C122 1.258 . S
C115 N116 1.326 . S
C115 C119 1.460 . S
C115 H121 0.929 . S
N116 Mn109 2.257 . S
N116 C115 1.326 . S
N116 C120 1.362 . S
C117 C118 1.258 . S
C117 C120 1.431 . S
C117 C137 1.449 . S
C118 C117 1.258 . S
C118 C119 1.477 . S
C118 H138 0.931 . S
C119 C115 1.460 . S
C119 C118 1.477 . S
C119 H139 0.930 . S
C120 N116 1.362 . S
C120 C117 1.431 . S
C120 C130 1.476 . S
H121 C115 0.929 . S
C122 O113 1.250 . S
C122 O114 1.258 . S
O123 Mn108 2.162 . S
O123 C111 1.281 . S
O124 Mn108 2.297 . S
O124 C111 1.236 . S
N125 Mn109 2.282 . S
N125 C126 1.328 . S
N125 C130 1.318 . S
C126 N125 1.328 . S
C126 C127 1.457 . S
C126 H131 0.929 . S
C127 C126 1.457 . S
C127 C128 1.291 . S
C127 H140 0.931 . S
C128 C127 1.291 . S
C128 C129 1.373 . S
C128 H141 0.929 . S
C129 C128 1.373 . S
C129 C130 1.396 . S
C129 C136 1.403 . S
C130 C120 1.476 . S
C130 N125 1.318 . S
C130 C129 1.396 . S
H131 C126 0.929 . S
O132 Mn108 2.385 . S
O132 C110 1.234 . S
O133 Mn108 2.209 . S
O133 Mn109 2.215 . S
O133 C110 1.283 . S
O134 Mn108 2.094 . S
O134 C112 1.240 . S
O135 Mn109 2.117 . S
O135 C112 1.264 . S
C136 C129 1.403 . S
C136 C137 1.399 . S
C136 H142 0.929 . S
C137 C117 1.449 . S
C137 C136 1.399 . S
C137 H143 0.930 . S
H138 C118 0.931 . S
H139 C119 0.930 . S
H140 C127 0.931 . S
H141 C128 0.929 . S
H142 C136 0.929 . S
H143 C137 0.930 . S
Mn144 O149 2.095 . S
Mn144 O159 2.162 . S
Mn144 O160 2.297 . S
Mn144 O168 2.385 1_655 S
Mn144 O169 2.209 1_655 S
Mn144 O170 2.094 1_655 S
Mn145 O150 2.121 1_455 S
Mn145 N152 2.257 . S
Mn145 N161 2.282 . S
Mn145 O169 2.215 . S
Mn145 O171 2.117 . S
C146 O168 1.234 . S
C146 O169 1.283 . S
C147 O159 1.281 . S
C147 O160 1.236 . S
C148 O170 1.240 . S
C148 O171 1.264 . S
O149 Mn144 2.095 . S
O149 C158 1.250 . S
O150 Mn145 2.121 1_655 S
O150 C158 1.258 . S
C151 N152 1.326 . S
C151 C155 1.460 . S
C151 H157 0.929 . S
N152 Mn145 2.257 . S
N152 C151 1.326 . S
N152 C156 1.362 . S
C153 C154 1.258 . S
C153 C156 1.431 . S
C153 C173 1.449 . S
C154 C153 1.258 . S
C154 C155 1.477 . S
C154 H174 0.931 1_565 S
C155 C151 1.460 . S
C155 C154 1.477 . S
C155 H175 0.930 . S
C156 N152 1.362 . S
C156 C153 1.431 . S
C156 C166 1.476 . S
H157 C151 0.929 . S
C158 O149 1.250 . S
C158 O150 1.258 . S
O159 Mn144 2.162 . S
O159 C147 1.281 . S
O160 Mn144 2.297 . S
O160 C147 1.236 . S
N161 Mn145 2.282 . S
N161 C162 1.328 . S
N161 C166 1.318 . S
C162 N161 1.328 . S
C162 C163 1.457 . S
C162 H167 0.929 . S
C163 C162 1.457 . S
C163 C164 1.291 . S
C163 H176 0.931 . S
C164 C163 1.291 . S
C164 C165 1.373 . S
C164 H177 0.929 . S
C165 C164 1.373 . S
C165 C166 1.396 . S
C165 C172 1.403 . S
C166 C156 1.476 . S
C166 N161 1.318 . S
C166 C165 1.396 . S
H167 C162 0.929 . S
O168 Mn144 2.385 1_455 S
O168 C146 1.234 . S
O169 Mn144 2.209 1_455 S
O169 Mn145 2.215 . S
O169 C146 1.283 . S
O170 Mn144 2.094 1_455 S
O170 C148 1.240 . S
O171 Mn145 2.117 . S
O171 C148 1.264 . S
C172 C165 1.403 . S
C172 C173 1.399 . S
C172 H178 0.929 . S
C173 C153 1.449 . S
C173 C172 1.399 . S
C173 H179 0.930 . S
H174 C154 0.931 1_545 S
H175 C155 0.930 . S
H176 C163 0.931 . S
H177 C164 0.929 . S
H178 C172 0.929 . S
H179 C173 0.930 . S
Mn180 O185 2.095 . S
Mn180 O195 2.162 . S
Mn180 O196 2.297 . S
Mn180 O204 2.385 . S
Mn180 O205 2.209 . S
Mn180 O206 2.094 . S
Mn181 O186 2.121 . S
Mn181 N188 2.257 . S
Mn181 N197 2.282 . S
Mn181 O205 2.215 . S
Mn181 O207 2.117 . S
C182 O204 1.234 . S
C182 O205 1.283 . S
C183 O195 1.281 . S
C183 O196 1.236 . S
C184 O206 1.240 . S
C184 O207 1.264 . S
O185 Mn180 2.095 . S
O185 C194 1.250 . S
O186 Mn181 2.121 . S
O186 C194 1.258 . S
C187 N188 1.326 . S
C187 C191 1.460 . S
C187 H193 0.929 . S
N188 Mn181 2.257 . S
N188 C187 1.326 . S
N188 C192 1.362 . S
C189 C190 1.258 . S
C189 C192 1.431 . S
C189 C209 1.449 . S
C190 C189 1.258 . S
C190 C191 1.477 . S
C190 H210 0.931 . S
C191 C187 1.460 . S
C191 C190 1.477 . S
C191 H211 0.930 . S
C192 N188 1.362 . S
C192 C189 1.431 . S
C192 C202 1.476 . S
H193 C187 0.929 . S
C194 O185 1.250 . S
C194 O186 1.258 . S
O195 Mn180 2.162 . S
O195 C183 1.281 . S
O196 Mn180 2.297 . S
O196 C183 1.236 . S
N197 Mn181 2.282 . S
N197 C198 1.328 . S
N197 C202 1.318 . S
C198 N197 1.328 . S
C198 C199 1.457 . S
C198 H203 0.929 . S
C199 C198 1.457 . S
C199 C200 1.291 . S
C199 H212 0.931 . S
C200 C199 1.291 . S
C200 C201 1.373 . S
C200 H213 0.929 . S
C201 C200 1.373 . S
C201 C202 1.396 . S
C201 C208 1.403 . S
C202 C192 1.476 . S
C202 N197 1.318 . S
C202 C201 1.396 . S
H203 C198 0.929 . S
O204 Mn180 2.385 . S
O204 C182 1.234 . S
O205 Mn180 2.209 . S
O205 Mn181 2.215 . S
O205 C182 1.283 . S
O206 Mn180 2.094 . S
O206 C184 1.240 . S
O207 Mn181 2.117 . S
O207 C184 1.264 . S
C208 C201 1.403 . S
C208 C209 1.399 . S
C208 H214 0.929 . S
C209 C189 1.449 . S
C209 C208 1.399 . S
C209 H215 0.930 . S
H210 C190 0.931 . S
H211 C191 0.930 . S
H212 C199 0.931 . S
H213 C200 0.929 . S
H214 C208 0.929 . S
H215 C209 0.930 . S
Mn216 O221 2.095 . S
Mn216 O231 2.162 . S
Mn216 O232 2.297 . S
Mn216 O240 2.385 . S
Mn216 O241 2.209 . S
Mn216 O242 2.094 . S
Mn217 O222 2.121 . S
Mn217 N224 2.257 . S
Mn217 N233 2.282 . S
Mn217 O241 2.215 . S
Mn217 O243 2.117 . S
C218 O240 1.234 . S
C218 O241 1.283 . S
C219 O231 1.281 . S
C219 O232 1.236 . S
C220 O242 1.240 . S
C220 O243 1.264 . S
O221 Mn216 2.095 . S
O221 C230 1.250 . S
O222 Mn217 2.121 . S
O222 C230 1.258 . S
C223 N224 1.326 . S
C223 C227 1.460 . S
C223 H229 0.929 . S
N224 Mn217 2.257 . S
N224 C223 1.326 . S
N224 C228 1.362 . S
C225 C226 1.258 . S
C225 C228 1.431 . S
C225 C245 1.449 . S
C226 C225 1.258 . S
C226 C227 1.477 . S
C226 H246 0.931 . S
C227 C223 1.460 . S
C227 C226 1.477 . S
C227 H247 0.930 . S
C228 N224 1.362 . S
C228 C225 1.431 . S
C228 C238 1.476 . S
H229 C223 0.929 . S
C230 O221 1.250 . S
C230 O222 1.258 . S
O231 Mn216 2.162 . S
O231 C219 1.281 . S
O232 Mn216 2.297 . S
O232 C219 1.236 . S
N233 Mn217 2.282 . S
N233 C234 1.328 . S
N233 C238 1.318 . S
C234 N233 1.328 . S
C234 C235 1.457 . S
C234 H239 0.929 . S
C235 C234 1.457 . S
C235 C236 1.291 . S
C235 H248 0.931 . S
C236 C235 1.291 . S
C236 C237 1.373 . S
C236 H249 0.929 . S
C237 C236 1.373 . S
C237 C238 1.396 . S
C237 C244 1.403 . S
C238 C228 1.476 . S
C238 N233 1.318 . S
C238 C237 1.396 . S
H239 C234 0.929 . S
O240 Mn216 2.385 . S
O240 C218 1.234 . S
O241 Mn216 2.209 . S
O241 Mn217 2.215 . S
O241 C218 1.283 . S
O242 Mn216 2.094 . S
O242 C220 1.240 . S
O243 Mn217 2.117 . S
O243 C220 1.264 . S
C244 C237 1.403 . S
C244 C245 1.399 . S
C244 H250 0.929 . S
C245 C225 1.449 . S
C245 C244 1.399 . S
C245 H251 0.930 . S
H246 C226 0.931 . S
H247 C227 0.930 . S
H248 C235 0.931 . S
H249 C236 0.929 . S
H250 C244 0.929 . S
H251 C245 0.930 . S
Mn252 O257 2.095 . S
Mn252 O267 2.162 . S
Mn252 O268 2.297 . S
Mn252 O276 2.385 . S
Mn252 O277 2.209 1_455 S
Mn252 O278 2.094 . S
Mn253 O258 2.121 . S
Mn253 N260 2.257 . S
Mn253 N269 2.282 . S
Mn253 O277 2.215 . S
Mn253 O279 2.117 1_655 S
C254 O276 1.234 . S
C254 O277 1.283 1_455 S
C255 O267 1.281 . S
C255 O268 1.236 . S
C256 O278 1.240 . S
C256 O279 1.264 . S
O257 Mn252 2.095 . S
O257 C266 1.250 . S
O258 Mn253 2.121 . S
O258 C266 1.258 1_655 S
C259 N260 1.326 . S
C259 C263 1.460 . S
C259 H265 0.929 . S
N260 Mn253 2.257 . S
N260 C259 1.326 . S
N260 C264 1.362 . S
C261 C262 1.258 . S
C261 C264 1.431 . S
C261 C281 1.449 . S
C262 C261 1.258 . S
C262 C263 1.477 . S
C262 H282 0.931 . S
C263 C259 1.460 . S
C263 C262 1.477 . S
C263 H283 0.930 . S
C264 N260 1.362 . S
C264 C261 1.431 . S
C264 C274 1.476 . S
H265 C259 0.929 . S
C266 O257 1.250 . S
C266 O258 1.258 1_455 S
O267 Mn252 2.162 . S
O267 C255 1.281 . S
O268 Mn252 2.297 . S
O268 C255 1.236 . S
N269 Mn253 2.282 . S
N269 C270 1.328 . S
N269 C274 1.318 . S
C270 N269 1.328 . S
C270 C271 1.457 . S
C270 H275 0.929 1_655 S
C271 C270 1.457 . S
C271 C272 1.291 . S
C271 H284 0.931 . S
C272 C271 1.291 . S
C272 C273 1.373 . S
C272 H285 0.929 . S
C273 C272 1.373 . S
C273 C274 1.396 . S
C273 C280 1.403 . S
C274 C264 1.476 . S
C274 N269 1.318 . S
C274 C273 1.396 . S
H275 C270 0.929 1_455 S
O276 Mn252 2.385 . S
O276 C254 1.234 . S
O277 Mn252 2.209 1_655 S
O277 Mn253 2.215 . S
O277 C254 1.283 1_655 S
O278 Mn252 2.094 . S
O278 C256 1.240 . S
O279 Mn253 2.117 1_455 S
O279 C256 1.264 . S
C280 C273 1.403 . S
C280 C281 1.399 . S
C280 H286 0.929 . S
C281 C261 1.449 . S
C281 C280 1.399 . S
C281 H287 0.930 . S
H282 C262 0.931 . S
H283 C263 0.930 . S
H284 C271 0.931 . S
H285 C272 0.929 . S
H286 C280 0.929 . S
H287 C281 0.930 . S
Mn288 O293 2.095 . S
Mn288 O303 2.162 . S
Mn288 O304 2.297 . S
Mn288 O312 2.385 1_565 S
Mn288 O313 2.209 1_565 S
Mn288 O314 2.094 1_565 S
Mn289 O294 2.121 1_545 S
Mn289 N296 2.257 . S
Mn289 N305 2.282 . S
Mn289 O313 2.215 . S
Mn289 O315 2.117 . S
C290 O312 1.234 . S
C290 O313 1.283 . S
C291 O303 1.281 . S
C291 O304 1.236 . S
C292 O314 1.240 . S
C292 O315 1.264 . S
O293 Mn288 2.095 . S
O293 C302 1.250 . S
O294 Mn289 2.121 1_565 S
O294 C302 1.258 . S
C295 N296 1.326 . S
C295 C299 1.460 . S
C295 H301 0.929 1_545 S
N296 Mn289 2.257 . S
N296 C295 1.326 . S
N296 C300 1.362 . S
C297 C298 1.258 . S
C297 C300 1.431 . S
C297 C317 1.449 . S
C298 C297 1.258 . S
C298 C299 1.477 . S
C298 H318 0.931 . S
C299 C295 1.460 . S
C299 C298 1.477 . S
C299 H319 0.930 . S
C300 N296 1.362 . S
C300 C297 1.431 . S
C300 C310 1.476 . S
H301 C295 0.929 1_565 S
C302 O293 1.250 . S
C302 O294 1.258 . S
O303 Mn288 2.162 . S
O303 C291 1.281 . S
O304 Mn288 2.297 . S
O304 C291 1.236 . S
N305 Mn289 2.282 . S
N305 C306 1.328 . S
N305 C310 1.318 . S
C306 N305 1.328 . S
C306 C307 1.457 . S
C306 H311 0.929 . S
C307 C306 1.457 . S
C307 C308 1.291 . S
C307 H320 0.931 . S
C308 C307 1.291 . S
C308 C309 1.373 . S
C308 H321 0.929 . S
C309 C308 1.373 . S
C309 C310 1.396 . S
C309 C316 1.403 . S
C310 C300 1.476 . S
C310 N305 1.318 . S
C310 C309 1.396 . S
H311 C306 0.929 . S
O312 Mn288 2.385 1_545 S
O312 C290 1.234 . S
O313 Mn288 2.209 1_545 S
O313 Mn289 2.215 . S
O313 C290 1.283 . S
O314 Mn288 2.094 1_545 S
O314 C292 1.240 . S
O315 Mn289 2.117 . S
O315 C292 1.264 . S
C316 C309 1.403 . S
C316 C317 1.399 . S
C316 H322 0.929 . S
C317 C297 1.449 . S
C317 C316 1.399 . S
C317 H323 0.930 . S
H318 C298 0.931 . S
H319 C299 0.930 . S
H320 C307 0.931 . S
H321 C308 0.929 . S
H322 C316 0.929 . S
H323 C317 0.930 . S
Mn324 O329 2.095 . S
Mn324 O339 2.162 . S
Mn324 O340 2.297 . S
Mn324 O348 2.385 . S
Mn324 O349 2.209 . S
Mn324 O350 2.094 . S
Mn325 O330 2.121 . S
Mn325 N332 2.257 . S
Mn325 N341 2.282 . S
Mn325 O349 2.215 . S
Mn325 O351 2.117 . S
C326 O348 1.234 . S
C326 O349 1.283 . S
C327 O339 1.281 . S
C327 O340 1.236 . S
C328 O350 1.240 . S
C328 O351 1.264 . S
O329 Mn324 2.095 . S
O329 C338 1.250 . S
O330 Mn325 2.121 . S
O330 C338 1.258 . S
C331 N332 1.326 . S
C331 C335 1.460 . S
C331 H337 0.929 . S
N332 Mn325 2.257 . S
N332 C331 1.326 . S
N332 C336 1.362 . S
C333 C334 1.258 . S
C333 C336 1.431 . S
C333 C353 1.449 . S
C334 C333 1.258 . S
C334 C335 1.477 . S
C334 H354 0.931 . S
C335 C331 1.460 . S
C335 C334 1.477 . S
C335 H355 0.930 . S
C336 N332 1.362 . S
C336 C333 1.431 . S
C336 C346 1.476 . S
H337 C331 0.929 . S
C338 O329 1.250 . S
C338 O330 1.258 . S
O339 Mn324 2.162 . S
O339 C327 1.281 . S
O340 Mn324 2.297 . S
O340 C327 1.236 . S
N341 Mn325 2.282 . S
N341 C342 1.328 . S
N341 C346 1.318 . S
C342 N341 1.328 . S
C342 C343 1.457 . S
C342 H347 0.929 . S
C343 C342 1.457 . S
C343 C344 1.291 . S
C343 H356 0.931 . S
C344 C343 1.291 . S
C344 C345 1.373 . S
C344 H357 0.929 . S
C345 C344 1.373 . S
C345 C346 1.396 . S
C345 C352 1.403 . S
C346 C336 1.476 . S
C346 N341 1.318 . S
C346 C345 1.396 . S
H347 C342 0.929 . S
O348 Mn324 2.385 . S
O348 C326 1.234 . S
O349 Mn324 2.209 . S
O349 Mn325 2.215 . S
O349 C326 1.283 . S
O350 Mn324 2.094 . S
O350 C328 1.240 . S
O351 Mn325 2.117 . S
O351 C328 1.264 . S
C352 C345 1.403 . S
C352 C353 1.399 . S
C352 H358 0.929 . S
C353 C333 1.449 . S
C353 C352 1.399 . S
C353 H359 0.930 . S
H354 C334 0.931 . S
H355 C335 0.930 . S
H356 C343 0.931 . S
H357 C344 0.929 . S
H358 C352 0.929 . S
H359 C353 0.930 . S
Mn360 O365 2.095 . S
Mn360 O375 2.162 . S
Mn360 O376 2.297 . S
Mn360 O384 2.385 . S
Mn360 O385 2.209 . S
Mn360 O386 2.094 . S
Mn361 O366 2.121 . S
Mn361 N368 2.257 . S
Mn361 N377 2.282 . S
Mn361 O385 2.215 . S
Mn361 O387 2.117 . S
C362 O384 1.234 . S
C362 O385 1.283 . S
C363 O375 1.281 . S
C363 O376 1.236 . S
C364 O386 1.240 . S
C364 O387 1.264 . S
O365 Mn360 2.095 . S
O365 C374 1.250 . S
O366 Mn361 2.121 . S
O366 C374 1.258 . S
C367 N368 1.326 . S
C367 C371 1.460 . S
C367 H373 0.929 . S
N368 Mn361 2.257 . S
N368 C367 1.326 . S
N368 C372 1.362 . S
C369 C370 1.258 . S
C369 C372 1.431 . S
C369 C389 1.449 . S
C370 C369 1.258 . S
C370 C371 1.477 . S
C370 H390 0.931 . S
C371 C367 1.460 . S
C371 C370 1.477 . S
C371 H391 0.930 . S
C372 N368 1.362 . S
C372 C369 1.431 . S
C372 C382 1.476 . S
H373 C367 0.929 . S
C374 O365 1.250 . S
C374 O366 1.258 . S
O375 Mn360 2.162 . S
O375 C363 1.281 . S
O376 Mn360 2.297 . S
O376 C363 1.236 . S
N377 Mn361 2.282 . S
N377 C378 1.328 . S
N377 C382 1.318 . S
C378 N377 1.328 . S
C378 C379 1.457 . S
C378 H383 0.929 . S
C379 C378 1.457 . S
C379 C380 1.291 . S
C379 H392 0.931 . S
C380 C379 1.291 . S
C380 C381 1.373 . S
C380 H393 0.929 . S
C381 C380 1.373 . S
C381 C382 1.396 . S
C381 C388 1.403 . S
C382 C372 1.476 . S
C382 N377 1.318 . S
C382 C381 1.396 . S
H383 C378 0.929 . S
O384 Mn360 2.385 . S
O384 C362 1.234 . S
O385 Mn360 2.209 . S
O385 Mn361 2.215 . S
O385 C362 1.283 . S
O386 Mn360 2.094 . S
O386 C364 1.240 . S
O387 Mn361 2.117 . S
O387 C364 1.264 . S
C388 C381 1.403 . S
C388 C389 1.399 . S
C388 H394 0.929 . S
C389 C369 1.449 . S
C389 C388 1.399 . S
C389 H395 0.930 . S
H390 C370 0.931 . S
H391 C371 0.930 . S
H392 C379 0.931 . S
H393 C380 0.929 . S
H394 C388 0.929 . S
H395 C389 0.930 . S
Mn396 O401 2.095 . S
Mn396 O411 2.162 . S
Mn396 O412 2.297 . S
Mn396 O420 2.385 . S
Mn396 O421 2.209 1_554 S
Mn396 O422 2.094 . S
Mn397 O402 2.121 . S
Mn397 N404 2.257 . S
Mn397 N413 2.282 . S
Mn397 O421 2.215 . S
Mn397 O423 2.117 1_556 S
C398 O420 1.263 . S
C398 O421 1.272 1_554 S
C399 O411 1.281 . S
C399 O412 1.236 . S
C400 O422 1.240 . S
C400 O423 1.264 . S
O401 Mn396 2.095 . S
O401 C410 1.250 1_554 S
O402 Mn397 2.121 . S
O402 C410 1.258 . S
C403 N404 1.326 . S
C403 C407 1.460 . S
C403 H409 0.929 . S
N404 Mn397 2.257 . S
N404 C403 1.326 . S
N404 C408 1.362 . S
C405 C406 1.258 . S
C405 C408 1.431 . S
C405 C425 1.449 . S
C406 C405 1.258 . S
C406 C407 1.477 . S
C406 H426 0.931 . S
C407 C403 1.460 . S
C407 C406 1.477 . S
C407 H427 0.930 . S
C408 N404 1.362 . S
C408 C405 1.431 . S
C408 C418 1.476 . S
H409 C403 0.929 . S
C410 O401 1.250 1_556 S
C410 O402 1.258 . S
O411 Mn396 2.162 . S
O411 C399 1.281 . S
O412 Mn396 2.297 . S
O412 C399 1.236 . S
N413 Mn397 2.282 . S
N413 C414 1.328 . S
N413 C418 1.318 . S
C414 N413 1.328 . S
C414 C415 1.457 . S
C414 H419 0.929 1_556 S
C415 C414 1.457 . S
C415 C416 1.291 . S
C415 H428 0.919 1_556 S
C416 C415 1.291 . S
C416 C417 1.373 . S
C416 H429 0.929 . S
C417 C416 1.373 . S
C417 C418 1.396 . S
C417 C424 1.403 . S
C418 C408 1.476 . S
C418 N413 1.318 . S
C418 C417 1.396 . S
H419 C414 0.929 1_554 S
O420 Mn396 2.385 . S
O420 C398 1.263 . S
O421 Mn396 2.209 1_556 S
O421 Mn397 2.215 . S
O421 C398 1.272 1_556 S
O422 Mn396 2.094 . S
O422 C400 1.240 . S
O423 Mn397 2.117 1_554 S
O423 C400 1.264 . S
C424 C417 1.403 . S
C424 C425 1.399 . S
C424 H430 0.929 . S
C425 C405 1.449 . S
C425 C424 1.399 . S
C425 H431 0.930 . S
H426 C406 0.931 . S
H427 C407 0.930 . S
H428 C415 0.919 1_554 S
H429 C416 0.929 . S
H430 C424 0.929 . S
H431 C425 0.930 . S
Mn432 O437 2.095 1_554 S
Mn432 O447 2.162 1_554 S
Mn432 O448 2.297 1_554 S
Mn432 O456 2.385 . S
Mn432 O457 2.209 . S
Mn432 O458 2.094 . S
Mn433 O438 2.121 1_554 S
Mn433 N440 2.257 . S
Mn433 N449 2.282 . S
Mn433 O457 2.215 . S
Mn433 O459 2.117 . S
C434 O456 1.234 . S
C434 O457 1.283 . S
C435 O447 1.281 . S
C435 O448 1.236 . S
C436 O458 1.240 . S
C436 O459 1.264 . S
O437 Mn432 2.095 1_556 S
O437 C446 1.250 . S
O438 Mn433 2.121 1_556 S
O438 C446 1.258 . S
C439 N440 1.326 . S
C439 C443 1.460 . S
C439 H445 0.929 . S
N440 Mn433 2.257 . S
N440 C439 1.326 . S
N440 C444 1.362 . S
C441 C442 1.258 . S
C441 C444 1.431 . S
C441 C461 1.449 . S
C442 C441 1.258 . S
C442 C443 1.477 . S
C442 H462 0.931 . S
C443 C439 1.460 . S
C443 C442 1.477 . S
C443 H463 0.930 . S
C444 N440 1.362 . S
C444 C441 1.431 . S
C444 C454 1.476 . S
H445 C439 0.929 . S
C446 O437 1.250 . S
C446 O438 1.258 . S
O447 Mn432 2.162 1_556 S
O447 C435 1.281 . S
O448 Mn432 2.297 1_556 S
O448 C435 1.236 . S
N449 Mn433 2.282 . S
N449 C450 1.328 . S
N449 C454 1.318 . S
C450 N449 1.328 . S
C450 C451 1.457 . S
C450 H455 0.929 . S
C451 C450 1.457 . S
C451 C452 1.291 . S
C451 H464 0.931 . S
C452 C451 1.291 . S
C452 C453 1.373 . S
C452 H465 0.929 . S
C453 C452 1.373 . S
C453 C454 1.396 . S
C453 C460 1.403 . S
C454 C444 1.476 . S
C454 N449 1.318 . S
C454 C453 1.396 . S
H455 C450 0.929 . S
O456 Mn432 2.385 . S
O456 C434 1.234 . S
O457 Mn432 2.209 . S
O457 Mn433 2.215 . S
O457 C434 1.283 . S
O458 Mn432 2.094 . S
O458 C436 1.240 . S
O459 Mn433 2.117 . S
O459 C436 1.264 . S
C460 C453 1.403 . S
C460 C461 1.399 . S
C460 H466 0.929 . S
C461 C441 1.449 . S
C461 C460 1.399 . S
C461 H467 0.930 . S
H462 C442 0.931 . S
H463 C443 0.930 . S
H464 C451 0.931 . S
H465 C452 0.929 . S
H466 C460 0.929 . S
H467 C461 0.930 . S
Mn468 O473 2.105 . S
Mn468 O483 2.171 . S
Mn468 O484 2.310 . S
Mn468 O492 2.373 1_556 S
Mn468 O493 2.201 1_556 S
Mn468 O494 2.082 1_556 S
Mn469 O474 2.121 1_554 S
Mn469 N476 2.257 . S
Mn469 N485 2.282 . S
Mn469 O493 2.215 . S
Mn469 O495 2.117 . S
C470 O492 1.234 . S
C470 O493 1.283 . S
C471 O483 1.281 . S
C471 O484 1.236 . S
C472 O494 1.240 . S
C472 O495 1.264 . S
O473 Mn468 2.105 . S
O473 C482 1.250 . S
O474 Mn469 2.121 1_556 S
O474 C482 1.258 . S
C475 N476 1.326 . S
C475 C479 1.460 . S
C475 H481 0.929 1_554 S
N476 Mn469 2.257 . S
N476 C475 1.326 . S
N476 C480 1.362 . S
C477 C478 1.258 . S
C477 C480 1.431 . S
C477 C497 1.449 . S
C478 C477 1.258 . S
C478 C479 1.477 . S
C478 H498 0.931 . S
C479 C475 1.460 . S
C479 C478 1.477 . S
C479 H499 0.930 . S
C480 N476 1.362 . S
C480 C477 1.431 . S
C480 C490 1.476 . S
H481 C475 0.929 1_556 S
C482 O473 1.250 . S
C482 O474 1.258 . S
O483 Mn468 2.171 . S
O483 C471 1.281 . S
O484 Mn468 2.310 . S
O484 C471 1.236 . S
N485 Mn469 2.282 . S
N485 C486 1.328 . S
N485 C490 1.318 . S
C486 N485 1.328 . S
C486 C487 1.457 . S
C486 H491 0.929 . S
C487 C486 1.457 . S
C487 C488 1.291 . S
C487 H500 0.931 . S
C488 C487 1.291 . S
C488 C489 1.373 . S
C488 H501 0.929 . S
C489 C488 1.373 . S
C489 C490 1.396 . S
C489 C496 1.403 . S
C490 C480 1.476 . S
C490 N485 1.318 . S
C490 C489 1.396 . S
H491 C486 0.929 . S
O492 Mn468 2.373 1_554 S
O492 C470 1.234 . S
O493 Mn468 2.201 1_554 S
O493 Mn469 2.215 . S
O493 C470 1.283 . S
O494 Mn468 2.082 1_554 S
O494 C472 1.240 . S
O495 Mn469 2.117 . S
O495 C472 1.264 . S
C496 C489 1.403 . S
C496 C497 1.399 . S
C496 H502 0.929 . S
C497 C477 1.449 . S
C497 C496 1.399 . S
C497 H503 0.930 . S
H498 C478 0.931 . S
H499 C479 0.930 . S
H500 C487 0.931 . S
H501 C488 0.929 . S
H502 C496 0.929 . S
H503 C497 0.930 . S
Mn504 O509 2.095 . S
Mn504 O519 2.162 . S
Mn504 O520 2.297 . S
Mn504 O528 2.385 . S
Mn504 O529 2.209 . S
Mn504 O530 2.094 . S
Mn505 O510 2.121 . S
Mn505 N512 2.257 . S
Mn505 N521 2.282 . S
Mn505 O529 2.215 . S
Mn505 O531 2.117 . S
C506 O528 1.234 . S
C506 O529 1.283 . S
C507 O519 1.281 . S
C507 O520 1.236 . S
C508 O530 1.240 . S
C508 O531 1.264 . S
O509 Mn504 2.095 . S
O509 C518 1.250 . S
O510 Mn505 2.121 . S
O510 C518 1.258 . S
C511 N512 1.326 . S
C511 C515 1.460 . S
C511 H517 0.929 . S
N512 Mn505 2.257 . S
N512 C511 1.326 . S
N512 C516 1.362 . S
C513 C514 1.258 . S
C513 C516 1.431 . S
C513 C533 1.449 . S
C514 C513 1.258 . S
C514 C515 1.477 . S
C514 H534 0.931 . S
C515 C511 1.460 . S
C515 C514 1.477 . S
C515 H535 0.930 . S
C516 N512 1.362 . S
C516 C513 1.431 . S
C516 C526 1.476 . S
H517 C511 0.929 . S
C518 O509 1.250 . S
C518 O510 1.258 . S
O519 Mn504 2.162 . S
O519 C507 1.281 . S
O520 Mn504 2.297 . S
O520 C507 1.236 . S
N521 Mn505 2.282 . S
N521 C522 1.328 . S
N521 C526 1.318 . S
C522 N521 1.328 . S
C522 C523 1.457 . S
C522 H527 0.929 . S
C523 C522 1.457 . S
C523 C524 1.291 . S
C523 H536 0.931 . S
C524 C523 1.291 . S
C524 C525 1.373 . S
C524 H537 0.929 . S
C525 C524 1.373 . S
C525 C526 1.396 . S
C525 C532 1.403 . S
C526 C516 1.476 . S
C526 N521 1.318 . S
C526 C525 1.396 . S
H527 C522 0.929 . S
O528 Mn504 2.385 . S
O528 C506 1.234 . S
O529 Mn504 2.209 . S
O529 Mn505 2.215 . S
O529 C506 1.283 . S
O530 Mn504 2.094 . S
O530 C508 1.240 . S
O531 Mn505 2.117 . S
O531 C508 1.264 . S
C532 C525 1.403 . S
C532 C533 1.399 . S
C532 H538 0.929 . S
C533 C513 1.449 . S
C533 C532 1.399 . S
C533 H539 0.930 . S
H534 C514 0.931 . S
H535 C515 0.930 . S
H536 C523 0.931 . S
H537 C524 0.929 . S
H538 C532 0.929 . S
H539 C533 0.930 . S
Mn540 O545 2.095 . S
Mn540 O555 2.162 . S
Mn540 O556 2.297 . S
Mn540 O564 2.385 . S
Mn540 O565 2.209 . S
Mn540 O566 2.094 . S
Mn541 O546 2.121 . S
Mn541 N548 2.257 . S
Mn541 N557 2.282 . S
Mn541 O565 2.215 . S
Mn541 O567 2.117 . S
C542 O564 1.234 . S
C542 O565 1.283 . S
C543 O555 1.281 . S
C543 O556 1.236 . S
C544 O566 1.240 . S
C544 O567 1.264 . S
O545 Mn540 2.095 . S
O545 C554 1.250 . S
O546 Mn541 2.121 . S
O546 C554 1.258 . S
C547 N548 1.326 . S
C547 C551 1.460 . S
C547 H553 0.929 . S
N548 Mn541 2.257 . S
N548 C547 1.326 . S
N548 C552 1.362 . S
C549 C550 1.258 . S
C549 C552 1.431 . S
C549 C569 1.449 . S
C550 C549 1.258 . S
C550 C551 1.477 . S
C550 H570 0.931 . S
C551 C547 1.460 . S
C551 C550 1.477 . S
C551 H571 0.930 . S
C552 N548 1.362 . S
C552 C549 1.431 . S
C552 C562 1.476 . S
H553 C547 0.929 . S
C554 O545 1.250 . S
C554 O546 1.258 . S
O555 Mn540 2.162 . S
O555 C543 1.281 . S
O556 Mn540 2.297 . S
O556 C543 1.236 . S
N557 Mn541 2.282 . S
N557 C558 1.328 . S
N557 C562 1.318 . S
C558 N557 1.328 . S
C558 C559 1.457 . S
C558 H563 0.929 . S
C559 C558 1.457 . S
C559 C560 1.291 . S
C559 H572 0.931 . S
C560 C559 1.291 . S
C560 C561 1.373 . S
C560 H573 0.929 . S
C561 C560 1.373 . S
C561 C562 1.396 . S
C561 C568 1.403 . S
C562 C552 1.476 . S
C562 N557 1.318 . S
C562 C561 1.396 . S
H563 C558 0.929 . S
O564 Mn540 2.385 . S
O564 C542 1.234 . S
O565 Mn540 2.209 . S
O565 Mn541 2.215 . S
O565 C542 1.283 . S
O566 Mn540 2.094 . S
O566 C544 1.240 . S
O567 Mn541 2.117 . S
O567 C544 1.264 . S
C568 C561 1.403 . S
C568 C569 1.399 . S
C568 H574 0.929 . S
C569 C549 1.449 . S
C569 C568 1.399 . S
C569 H575 0.930 . S
H570 C550 0.931 . S
H571 C551 0.930 . S
H572 C559 0.931 . S
H573 C560 0.929 . S
H574 C568 0.929 . S
H575 C569 0.930 . S
Mn576 O581 2.095 . S
Mn576 O591 2.162 . S
Mn576 O592 2.297 . S
Mn576 O600 2.385 . S
Mn576 O601 2.209 1_545 S
Mn576 O602 2.094 . S
Mn577 O582 2.121 . S
Mn577 N584 2.257 . S
Mn577 N593 2.282 . S
Mn577 O601 2.215 . S
Mn577 O603 2.117 1_565 S
C578 O600 1.234 1_565 S
C578 O601 1.283 . S
C579 O591 1.281 . S
C579 O592 1.236 . S
C580 O602 1.240 . S
C580 O603 1.264 . S
O581 Mn576 2.095 . S
O581 C590 1.250 1_545 S
O582 Mn577 2.121 . S
O582 C590 1.258 . S
C583 N584 1.326 . S
C583 C587 1.460 . S
C583 H589 0.929 . S
N584 Mn577 2.257 . S
N584 C583 1.326 . S
N584 C588 1.362 . S
C585 C586 1.258 . S
C585 C588 1.431 . S
C585 C605 1.449 . S
C586 C585 1.258 . S
C586 C587 1.477 . S
C586 H606 0.931 . S
C587 C583 1.460 . S
C587 C586 1.477 . S
C587 H607 0.930 . S
C588 N584 1.362 . S
C588 C585 1.431 . S
C588 C598 1.476 . S
H589 C583 0.929 . S
C590 O581 1.250 1_565 S
C590 O582 1.258 . S
O591 Mn576 2.162 . S
O591 C579 1.281 . S
O592 Mn576 2.297 . S
O592 C579 1.236 . S
N593 Mn577 2.282 . S
N593 C594 1.328 . S
N593 C598 1.318 . S
C594 N593 1.328 . S
C594 C595 1.457 . S
C594 H599 0.929 . S
C595 C594 1.457 . S
C595 C596 1.291 . S
C595 H608 0.931 . S
C596 C595 1.291 . S
C596 C597 1.373 . S
C596 H609 0.929 . S
C597 C596 1.373 . S
C597 C598 1.396 . S
C597 C604 1.403 . S
C598 C588 1.476 . S
C598 N593 1.318 . S
C598 C597 1.396 . S
H599 C594 0.929 . S
O600 Mn576 2.385 . S
O600 C578 1.234 1_545 S
O601 Mn576 2.209 1_565 S
O601 Mn577 2.215 . S
O601 C578 1.283 . S
O602 Mn576 2.094 . S
O602 C580 1.240 . S
O603 Mn577 2.117 1_545 S
O603 C580 1.264 . S
C604 C597 1.403 . S
C604 C605 1.399 . S
C604 H610 0.929 . S
C605 C585 1.449 . S
C605 C604 1.399 . S
C605 H611 0.930 . S
H606 C586 0.931 . S
H607 C587 0.930 . S
H608 C595 0.931 . S
H609 C596 0.929 . S
H610 C604 0.929 . S
H611 C605 0.930 . S
Mn612 O617 2.095 . S
Mn612 O627 2.162 . S
Mn612 O628 2.297 . S
Mn612 O636 2.385 . S
Mn612 O637 2.209 . S
Mn612 O638 2.094 . S
Mn613 O618 2.121 . S
Mn613 N620 2.257 . S
Mn613 N629 2.282 . S
Mn613 O637 2.215 . S
Mn613 O639 2.117 . S
C614 O636 1.234 . S
C614 O637 1.283 . S
C615 O627 1.281 . S
C615 O628 1.236 . S
C616 O638 1.240 . S
C616 O639 1.264 . S
O617 Mn612 2.095 . S
O617 C626 1.250 . S
O618 Mn613 2.121 . S
O618 C626 1.258 . S
C619 N620 1.326 . S
C619 C623 1.460 . S
C619 H625 0.929 . S
N620 Mn613 2.257 . S
N620 C619 1.326 . S
N620 C624 1.362 . S
C621 C622 1.258 . S
C621 C624 1.431 . S
C621 C641 1.449 . S
C622 C621 1.258 . S
C622 C623 1.477 . S
C622 H642 0.931 . S
C623 C619 1.460 . S
C623 C622 1.477 . S
C623 H643 0.930 . S
C624 N620 1.362 . S
C624 C621 1.431 . S
C624 C634 1.476 . S
H625 C619 0.929 . S
C626 O617 1.250 . S
C626 O618 1.258 . S
O627 Mn612 2.162 . S
O627 C615 1.281 . S
O628 Mn612 2.297 . S
O628 C615 1.236 . S
N629 Mn613 2.282 . S
N629 C630 1.328 . S
N629 C634 1.318 . S
C630 N629 1.328 . S
C630 C631 1.457 . S
C630 H635 0.929 . S
C631 C630 1.457 . S
C631 C632 1.291 . S
C631 H644 0.931 . S
C632 C631 1.291 . S
C632 C633 1.373 . S
C632 H645 0.929 . S
C633 C632 1.373 . S
C633 C634 1.396 . S
C633 C640 1.403 . S
C634 C624 1.476 . S
C634 N629 1.318 . S
C634 C633 1.396 . S
H635 C630 0.929 . S
O636 Mn612 2.385 . S
O636 C614 1.234 . S
O637 Mn612 2.209 . S
O637 Mn613 2.215 . S
O637 C614 1.283 . S
O638 Mn612 2.094 . S
O638 C616 1.240 . S
O639 Mn613 2.117 . S
O639 C616 1.264 . S
C640 C633 1.403 . S
C640 C641 1.399 . S
C640 H646 0.929 . S
C641 C621 1.449 . S
C641 C640 1.399 . S
C641 H647 0.930 . S
H642 C622 0.931 . S
H643 C623 0.930 . S
H644 C631 0.931 . S
H645 C632 0.929 . S
H646 C640 0.929 . S
H647 C641 0.930 . S
Mn648 O653 2.095 . S
Mn648 O663 2.162 . S
Mn648 O664 2.297 . S
Mn648 O672 2.385 . S
Mn648 O673 2.209 . S
Mn648 O674 2.094 . S
Mn649 O654 2.121 . S
Mn649 N656 2.257 . S
Mn649 N665 2.282 . S
Mn649 O673 2.215 . S
Mn649 O675 2.117 . S
C650 O672 1.234 . S
C650 O673 1.283 . S
C651 O663 1.281 . S
C651 O664 1.236 . S
C652 O674 1.240 . S
C652 O675 1.264 . S
O653 Mn648 2.095 . S
O653 C662 1.250 . S
O654 Mn649 2.121 . S
O654 C662 1.258 . S
C655 N656 1.326 . S
C655 C659 1.460 . S
C655 H661 0.929 . S
N656 Mn649 2.257 . S
N656 C655 1.326 . S
N656 C660 1.362 . S
C657 C658 1.258 . S
C657 C660 1.431 . S
C657 C677 1.449 . S
C658 C657 1.258 . S
C658 C659 1.477 . S
C658 H678 0.931 . S
C659 C655 1.460 . S
C659 C658 1.477 . S
C659 H679 0.930 . S
C660 N656 1.362 . S
C660 C657 1.431 . S
C660 C670 1.476 . S
H661 C655 0.929 . S
C662 O653 1.250 . S
C662 O654 1.258 . S
O663 Mn648 2.162 . S
O663 C651 1.281 . S
O664 Mn648 2.297 . S
O664 C651 1.236 . S
N665 Mn649 2.282 . S
N665 C666 1.328 . S
N665 C670 1.318 . S
C666 N665 1.328 . S
C666 C667 1.457 . S
C666 H671 0.929 . S
C667 C666 1.457 . S
C667 C668 1.291 . S
C667 H680 0.931 . S
C668 C667 1.291 . S
C668 C669 1.373 . S
C668 H681 0.929 . S
C669 C668 1.373 . S
C669 C670 1.396 . S
C669 C676 1.403 . S
C670 C660 1.476 . S
C670 N665 1.318 . S
C670 C669 1.396 . S
H671 C666 0.929 . S
O672 Mn648 2.385 . S
O672 C650 1.234 . S
O673 Mn648 2.209 . S
O673 Mn649 2.215 . S
O673 C650 1.283 . S
O674 Mn648 2.094 . S
O674 C652 1.240 . S
O675 Mn649 2.117 . S
O675 C652 1.264 . S
C676 C669 1.403 . S
C676 C677 1.399 . S
C676 H682 0.929 . S
C677 C657 1.449 . S
C677 C676 1.399 . S
C677 H683 0.930 . S
H678 C658 0.931 . S
H679 C659 0.930 . S
H680 C667 0.931 . S
H681 C668 0.929 . S
H682 C676 0.929 . S
H683 C677 0.930 . S
Mn684 O689 2.095 . S
Mn684 O699 2.162 . S
Mn684 O700 2.297 . S
Mn684 O708 2.385 . S
Mn684 O709 2.209 . S
Mn684 O710 2.094 . S
Mn685 O690 2.121 . S
Mn685 N692 2.257 . S
Mn685 N701 2.282 . S
Mn685 O709 2.215 1_565 S
Mn685 O711 2.117 1_565 S
C686 O708 1.234 . S
C686 O709 1.283 . S
C687 O699 1.281 . S
C687 O700 1.236 . S
C688 O710 1.240 . S
C688 O711 1.264 . S
O689 Mn684 2.095 . S
O689 C698 1.250 . S
O690 Mn685 2.121 . S
O690 C698 1.258 1_565 S
C691 N692 1.326 . S
C691 C695 1.460 . S
C691 H697 0.929 . S
N692 Mn685 2.257 . S
N692 C691 1.326 . S
N692 C696 1.362 . S
C693 C694 1.258 . S
C693 C696 1.431 . S
C693 C713 1.449 . S
C694 C693 1.258 . S
C694 C695 1.477 . S
C694 H714 0.931 . S
C695 C691 1.460 . S
C695 C694 1.477 . S
C695 H715 0.930 . S
C696 N692 1.362 . S
C696 C693 1.431 . S
C696 C706 1.476 . S
H697 C691 0.929 . S
C698 O689 1.250 . S
C698 O690 1.258 1_545 S
O699 Mn684 2.162 . S
O699 C687 1.281 . S
O700 Mn684 2.297 . S
O700 C687 1.236 . S
N701 Mn685 2.282 . S
N701 C702 1.328 1_565 S
N701 C706 1.318 . S
C702 N701 1.328 1_545 S
C702 C703 1.457 . S
C702 H707 0.929 . S
C703 C702 1.457 . S
C703 C704 1.291 1_545 S
C703 H716 0.931 . S
C704 C703 1.291 1_565 S
C704 C705 1.373 . S
C704 H717 0.929 . S
C705 C704 1.373 . S
C705 C706 1.396 . S
C705 C712 1.403 . S
C706 C696 1.476 . S
C706 N701 1.318 . S
C706 C705 1.396 . S
H707 C702 0.929 . S
O708 Mn684 2.385 . S
O708 C686 1.234 . S
O709 Mn684 2.209 . S
O709 Mn685 2.215 1_545 S
O709 C686 1.283 . S
O710 Mn684 2.094 . S
O710 C688 1.240 . S
O711 Mn685 2.117 1_545 S
O711 C688 1.264 . S
C712 C705 1.403 . S
C712 C713 1.399 . S
C712 H718 0.929 . S
C713 C693 1.449 . S
C713 C712 1.399 . S
C713 H719 0.930 . S
H714 C694 0.931 . S
H715 C695 0.930 . S
H716 C703 0.931 . S
H717 C704 0.929 . S
H718 C712 0.929 . S
H719 C713 0.930 . S
Mn720 O725 2.095 . S
Mn720 O735 2.162 . S
Mn720 O736 2.297 . S
Mn720 O744 2.385 . S
Mn720 O745 2.209 1_554 S
Mn720 O746 2.094 . S
Mn721 O726 2.121 . S
Mn721 N728 2.257 . S
Mn721 N737 2.282 . S
Mn721 O745 2.215 . S
Mn721 O747 2.117 1_556 S
C722 O744 1.234 1_556 S
C722 O745 1.283 . S
C723 O735 1.281 . S
C723 O736 1.236 . S
C724 O746 1.240 . S
C724 O747 1.264 . S
O725 Mn720 2.095 . S
O725 C734 1.250 1_554 S
O726 Mn721 2.121 . S
O726 C734 1.258 . S
C727 N728 1.326 . S
C727 C731 1.460 . S
C727 H733 0.929 . S
N728 Mn721 2.257 . S
N728 C727 1.326 . S
N728 C732 1.362 . S
C729 C730 1.258 . S
C729 C732 1.431 . S
C729 C749 1.449 . S
C730 C729 1.258 . S
C730 C731 1.477 . S
C730 H750 0.931 . S
C731 C727 1.460 . S
C731 C730 1.477 . S
C731 H751 0.930 . S
C732 N728 1.362 . S
C732 C729 1.431 . S
C732 C742 1.476 . S
H733 C727 0.929 . S
C734 O725 1.250 1_556 S
C734 O726 1.258 . S
O735 Mn720 2.162 . S
O735 C723 1.281 . S
O736 Mn720 2.297 . S
O736 C723 1.236 . S
N737 Mn721 2.282 . S
N737 C738 1.328 . S
N737 C742 1.318 . S
C738 N737 1.328 . S
C738 C739 1.457 . S
C738 H743 0.929 . S
C739 C738 1.457 . S
C739 C740 1.291 . S
C739 H752 0.931 . S
C740 C739 1.291 . S
C740 C741 1.373 . S
C740 H753 0.929 . S
C741 C740 1.373 . S
C741 C742 1.396 . S
C741 C748 1.403 . S
C742 C732 1.476 . S
C742 N737 1.318 . S
C742 C741 1.396 . S
H743 C738 0.929 . S
O744 Mn720 2.385 . S
O744 C722 1.234 1_554 S
O745 Mn720 2.209 1_556 S
O745 Mn721 2.215 . S
O745 C722 1.283 . S
O746 Mn720 2.094 . S
O746 C724 1.240 . S
O747 Mn721 2.117 1_554 S
O747 C724 1.264 . S
C748 C741 1.403 . S
C748 C749 1.399 . S
C748 H754 0.929 . S
C749 C729 1.449 . S
C749 C748 1.399 . S
C749 H755 0.930 . S
H750 C730 0.931 . S
H751 C731 0.930 . S
H752 C739 0.931 . S
H753 C740 0.929 . S
H754 C748 0.929 . S
H755 C749 0.930 . S
Mn756 O761 2.095 . S
Mn756 O771 2.162 . S
Mn756 O772 2.297 . S
Mn756 O780 2.385 . S
Mn756 O781 2.209 . S
Mn756 O782 2.094 . S
Mn757 O762 2.121 . S
Mn757 N764 2.257 . S
Mn757 N773 2.282 . S
Mn757 O781 2.215 . S
Mn757 O783 2.117 . S
C758 O780 1.234 . S
C758 O781 1.283 . S
C759 O771 1.281 . S
C759 O772 1.236 . S
C760 O782 1.240 . S
C760 O783 1.264 . S
O761 Mn756 2.095 . S
O761 C770 1.250 . S
O762 Mn757 2.121 . S
O762 C770 1.258 . S
C763 N764 1.326 . S
C763 C767 1.460 . S
C763 H769 0.929 . S
N764 Mn757 2.257 . S
N764 C763 1.326 . S
N764 C768 1.362 . S
C765 C766 1.258 . S
C765 C768 1.431 . S
C765 C785 1.449 . S
C766 C765 1.258 . S
C766 C767 1.477 . S
C766 H786 0.931 . S
C767 C763 1.460 . S
C767 C766 1.477 . S
C767 H787 0.930 . S
C768 N764 1.362 . S
C768 C765 1.431 . S
C768 C778 1.476 . S
H769 C763 0.929 . S
C770 O761 1.250 . S
C770 O762 1.258 . S
O771 Mn756 2.162 . S
O771 C759 1.281 . S
O772 Mn756 2.297 . S
O772 C759 1.236 . S
N773 Mn757 2.282 . S
N773 C774 1.328 . S
N773 C778 1.318 . S
C774 N773 1.328 . S
C774 C775 1.457 . S
C774 H779 0.929 . S
C775 C774 1.457 . S
C775 C776 1.291 . S
C775 H788 0.931 . S
C776 C775 1.291 . S
C776 C777 1.373 . S
C776 H789 0.929 . S
C777 C776 1.373 . S
C777 C778 1.396 . S
C777 C784 1.403 . S
C778 C768 1.476 . S
C778 N773 1.318 . S
C778 C777 1.396 . S
H779 C774 0.929 . S
O780 Mn756 2.385 . S
O780 C758 1.234 . S
O781 Mn756 2.209 . S
O781 Mn757 2.215 . S
O781 C758 1.283 . S
O782 Mn756 2.094 . S
O782 C760 1.240 . S
O783 Mn757 2.117 . S
O783 C760 1.264 . S
C784 C777 1.403 . S
C784 C785 1.399 . S
C784 H790 0.929 . S
C785 C765 1.449 . S
C785 C784 1.399 . S
C785 H791 0.930 . S
H786 C766 0.931 . S
H787 C767 0.930 . S
H788 C775 0.931 . S
H789 C776 0.929 . S
H790 C784 0.929 . S
H791 C785 0.930 . S
Mn792 O797 2.095 . S
Mn792 O807 2.162 . S
Mn792 O808 2.297 . S
Mn792 O816 2.385 . S
Mn792 O817 2.209 . S
Mn792 O818 2.094 . S
Mn793 O798 2.121 . S
Mn793 N800 2.257 . S
Mn793 N809 2.282 . S
Mn793 O817 2.215 . S
Mn793 O819 2.117 . S
C794 O816 1.234 . S
C794 O817 1.283 . S
C795 O807 1.281 . S
C795 O808 1.236 . S
C796 O818 1.240 . S
C796 O819 1.264 . S
O797 Mn792 2.095 . S
O797 C806 1.250 . S
O798 Mn793 2.121 . S
O798 C806 1.258 . S
C799 N800 1.326 . S
C799 C803 1.460 . S
C799 H805 0.929 . S
N800 Mn793 2.257 . S
N800 C799 1.326 . S
N800 C804 1.362 . S
C801 C802 1.258 . S
C801 C804 1.431 . S
C801 C821 1.449 . S
C802 C801 1.258 . S
C802 C803 1.477 . S
C802 H822 0.931 . S
C803 C799 1.460 . S
C803 C802 1.477 . S
C803 H823 0.930 . S
C804 N800 1.362 . S
C804 C801 1.431 . S
C804 C814 1.476 . S
H805 C799 0.929 . S
C806 O797 1.250 . S
C806 O798 1.258 . S
O807 Mn792 2.162 . S
O807 C795 1.281 . S
O808 Mn792 2.297 . S
O808 C795 1.236 . S
N809 Mn793 2.282 . S
N809 C810 1.328 . S
N809 C814 1.318 . S
C810 N809 1.328 . S
C810 C811 1.457 . S
C810 H815 0.929 . S
C811 C810 1.457 . S
C811 C812 1.291 . S
C811 H824 0.931 . S
C812 C811 1.291 . S
C812 C813 1.373 . S
C812 H825 0.929 . S
C813 C812 1.373 . S
C813 C814 1.396 . S
C813 C820 1.403 . S
C814 C804 1.476 . S
C814 N809 1.318 . S
C814 C813 1.396 . S
H815 C810 0.929 . S
O816 Mn792 2.385 . S
O816 C794 1.234 . S
O817 Mn792 2.209 . S
O817 Mn793 2.215 . S
O817 C794 1.283 . S
O818 Mn792 2.094 . S
O818 C796 1.240 . S
O819 Mn793 2.117 . S
O819 C796 1.264 . S
C820 C813 1.403 . S
C820 C821 1.399 . S
C820 H826 0.929 . S
C821 C801 1.449 . S
C821 C820 1.399 . S
C821 H827 0.930 . S
H822 C802 0.931 . S
H823 C803 0.930 . S
H824 C811 0.931 . S
H825 C812 0.929 . S
H826 C820 0.929 . S
H827 C821 0.930 . S
Mn828 O833 2.095 . S
Mn828 O843 2.162 . S
Mn828 O844 2.297 . S
Mn828 O852 2.385 . S
Mn828 O853 2.209 . S
Mn828 O854 2.094 . S
Mn829 O834 2.121 . S
Mn829 N836 2.257 . S
Mn829 N845 2.282 . S
Mn829 O853 2.215 . S
Mn829 O855 2.117 . S
C830 O852 1.234 . S
C830 O853 1.283 . S
C831 O843 1.281 . S
C831 O844 1.236 . S
C832 O854 1.240 . S
C832 O855 1.264 . S
O833 Mn828 2.095 . S
O833 C842 1.250 . S
O834 Mn829 2.121 . S
O834 C842 1.258 . S
C835 N836 1.326 . S
C835 C839 1.460 . S
C835 H841 0.929 . S
N836 Mn829 2.257 . S
N836 C835 1.326 . S
N836 C840 1.362 . S
C837 C838 1.258 . S
C837 C840 1.431 . S
C837 C857 1.449 . S
C838 C837 1.258 . S
C838 C839 1.477 . S
C838 H858 0.931 . S
C839 C835 1.460 . S
C839 C838 1.477 . S
C839 H859 0.930 . S
C840 N836 1.362 . S
C840 C837 1.431 . S
C840 C850 1.476 . S
H841 C835 0.929 . S
C842 O833 1.250 . S
C842 O834 1.258 . S
O843 Mn828 2.162 . S
O843 C831 1.281 . S
O844 Mn828 2.297 . S
O844 C831 1.236 . S
N845 Mn829 2.282 . S
N845 C846 1.328 . S
N845 C850 1.318 . S
C846 N845 1.328 . S
C846 C847 1.457 . S
C846 H851 0.929 . S
C847 C846 1.457 . S
C847 C848 1.291 . S
C847 H860 0.931 . S
C848 C847 1.291 . S
C848 C849 1.373 . S
C848 H861 0.929 . S
C849 C848 1.373 . S
C849 C850 1.396 . S
C849 C856 1.403 . S
C850 C840 1.476 . S
C850 N845 1.318 . S
C850 C849 1.396 . S
H851 C846 0.929 . S
O852 Mn828 2.385 . S
O852 C830 1.234 . S
O853 Mn828 2.209 . S
O853 Mn829 2.215 . S
O853 C830 1.283 . S
O854 Mn828 2.094 . S
O854 C832 1.240 . S
O855 Mn829 2.117 . S
O855 C832 1.264 . S
C856 C849 1.403 . S
C856 C857 1.399 . S
C856 H862 0.929 . S
C857 C837 1.449 . S
C857 C856 1.399 . S
C857 H863 0.930 . S
H858 C838 0.931 . S
H859 C839 0.930 . S
H860 C847 0.931 . S
H861 C848 0.929 . S
H862 C856 0.929 . S
H863 C857 0.930 . S
O864 Mn865 2.163 . S
O864 C878 1.244 . S
Mn865 O864 2.163 . S
Mn865 O868 2.160 . S
Mn865 O869 2.221 . S
Mn865 O871 2.163 . S
Mn865 O873 2.160 . S
Mn865 O883 2.221 . S
O866 Mn867 2.087 . S
O866 C878 1.256 . S
Mn867 O866 2.087 . S
Mn867 O874 2.089 . S
Mn867 O883 2.290 . S
Mn867 O884 2.251 . S
O868 Mn865 2.160 . S
O868 C879 1.239 . S
O869 Mn865 2.221 . S
O869 Mn870 2.290 . S
O869 C880 1.278 . S
Mn870 O869 2.290 . S
Mn870 O872 2.089 . S
Mn870 O875 2.251 . S
Mn870 O876 2.087 . S
O871 Mn865 2.163 . S
O871 C881 1.244 . S
O872 Mn870 2.089 . S
O872 C879 1.256 . S
O873 Mn865 2.160 . S
O873 C882 1.239 . S
O874 Mn867 2.089 . S
O874 C882 1.256 . S
O875 Mn870 2.251 . S
O875 C880 1.241 . S
O876 Mn870 2.087 . S
O876 C881 1.256 . S
C877 O883 1.278 . S
C877 O884 1.241 . S
C878 O864 1.244 . S
C878 O866 1.256 . S
C879 O868 1.239 . S
C879 O872 1.256 . S
C880 O869 1.278 . S
C880 O875 1.241 . S
C881 O871 1.244 . S
C881 O876 1.256 . S
C882 O873 1.239 . S
C882 O874 1.256 . S
O883 Mn865 2.221 . S
O883 Mn867 2.290 . S
O883 C877 1.278 . S
O884 Mn867 2.251 . S
O884 C877 1.241 . S
O885 Mn886 2.163 . S
O885 C899 1.244 . S
Mn886 O885 2.163 . S
Mn886 O889 2.160 . S
Mn886 O890 2.221 . S
Mn886 O892 2.163 . S
Mn886 O894 2.160 . S
Mn886 O904 2.221 . S
O887 Mn888 2.087 . S
O887 C899 1.256 . S
Mn888 O887 2.087 . S
Mn888 O895 2.089 . S
Mn888 O904 2.290 . S
Mn888 O905 2.251 . S
O889 Mn886 2.160 . S
O889 C900 1.239 . S
O890 Mn886 2.221 . S
O890 Mn891 2.290 . S
O890 C901 1.278 . S
Mn891 O890 2.290 . S
Mn891 O893 2.089 . S
Mn891 O896 2.251 . S
Mn891 O897 2.087 . S
O892 Mn886 2.163 . S
O892 C902 1.244 . S
O893 Mn891 2.089 . S
O893 C900 1.256 . S
O894 Mn886 2.160 . S
O894 C903 1.239 . S
O895 Mn888 2.089 . S
O895 C903 1.256 . S
O896 Mn891 2.251 . S
O896 C901 1.241 . S
O897 Mn891 2.087 . S
O897 C902 1.256 . S
C898 O904 1.278 . S
C898 O905 1.241 . S
C899 O885 1.244 . S
C899 O887 1.256 . S
C900 O889 1.239 . S
C900 O893 1.256 . S
C901 O890 1.278 . S
C901 O896 1.241 . S
C902 O892 1.244 . S
C902 O897 1.256 . S
C903 O894 1.239 . S
C903 O895 1.256 . S
O904 Mn886 2.221 . S
O904 Mn888 2.290 . S
O904 C898 1.278 . S
O905 Mn888 2.251 . S
O905 C898 1.241 . S
O906 Mn907 2.163 . S
O906 C920 1.244 . S
Mn907 O906 2.163 . S
Mn907 O910 2.160 . S
Mn907 O911 2.221 . S
Mn907 O913 2.163 . S
Mn907 O915 2.160 . S
Mn907 O925 2.221 . S
O908 Mn909 2.087 1_545 S
O908 C920 1.256 1_545 S
Mn909 O908 2.087 1_565 S
Mn909 O916 2.089 . S
Mn909 O925 2.290 . S
Mn909 O926 2.251 1_565 S
O910 Mn907 2.160 . S
O910 C921 1.239 . S
O911 Mn907 2.221 . S
O911 Mn912 2.290 . S
O911 C922 1.278 . S
Mn912 O911 2.290 . S
Mn912 O914 2.089 . S
Mn912 O917 2.251 . S
Mn912 O918 2.087 . S
O913 Mn907 2.163 . S
O913 C923 1.244 . S
O914 Mn912 2.089 . S
O914 C921 1.256 . S
O915 Mn907 2.160 . S
O915 C924 1.239 . S
O916 Mn909 2.089 . S
O916 C924 1.256 . S
O917 Mn912 2.251 . S
O917 C922 1.241 . S
O918 Mn912 2.087 . S
O918 C923 1.256 . S
C919 O925 1.278 . S
C919 O926 1.241 1_565 S
C920 O906 1.244 . S
C920 O908 1.256 1_565 S
C921 O910 1.239 . S
C921 O914 1.256 . S
C922 O911 1.278 . S
C922 O917 1.241 . S
C923 O913 1.244 . S
C923 O918 1.256 . S
C924 O915 1.239 . S
C924 O916 1.256 . S
O925 Mn907 2.221 . S
O925 Mn909 2.290 . S
O925 C919 1.278 . S
O926 Mn909 2.251 1_545 S
O926 C919 1.241 1_545 S
O927 Mn928 2.163 . S
O927 C941 1.244 . S
Mn928 O927 2.163 . S
Mn928 O931 2.160 . S
Mn928 O932 2.221 . S
Mn928 O934 2.163 . S
Mn928 O936 2.160 . S
Mn928 O946 2.221 . S
O929 Mn930 2.087 . S
O929 C941 1.256 . S
Mn930 O929 2.087 . S
Mn930 O937 2.089 . S
Mn930 O946 2.290 . S
Mn930 O947 2.251 . S
O931 Mn928 2.160 . S
O931 C942 1.239 . S
O932 Mn928 2.221 . S
O932 Mn933 2.290 . S
O932 C943 1.278 . S
Mn933 O932 2.290 . S
Mn933 O935 2.089 . S
Mn933 O938 2.251 . S
Mn933 O939 2.087 . S
O934 Mn928 2.163 . S
O934 C944 1.244 . S
O935 Mn933 2.089 . S
O935 C942 1.256 . S
O936 Mn928 2.160 . S
O936 C945 1.239 . S
O937 Mn930 2.089 . S
O937 C945 1.256 . S
O938 Mn933 2.251 . S
O938 C943 1.241 . S
O939 Mn933 2.087 . S
O939 C944 1.256 . S
C940 O946 1.278 . S
C940 O947 1.241 . S
C941 O927 1.244 . S
C941 O929 1.256 . S
C942 O931 1.239 . S
C942 O935 1.256 . S
C943 O932 1.278 . S
C943 O938 1.241 . S
C944 O934 1.244 . S
C944 O939 1.256 . S
C945 O936 1.239 . S
C945 O937 1.256 . S
O946 Mn928 2.221 . S
O946 Mn930 2.290 . S
O946 C940 1.278 . S
O947 Mn930 2.251 . S
O947 C940 1.241 . S
O948 Mn949 2.163 . S
O948 C962 1.244 . S
Mn949 O948 2.163 . S
Mn949 O952 2.160 . S
Mn949 O953 2.221 . S
Mn949 O955 2.163 . S
Mn949 O957 2.160 . S
Mn949 O967 2.221 . S
O950 Mn951 2.087 . S
O950 C962 1.256 . S
Mn951 O950 2.087 . S
Mn951 O958 2.089 . S
Mn951 O967 2.290 . S
Mn951 O968 2.251 . S
O952 Mn949 2.160 . S
O952 C963 1.239 . S
O953 Mn949 2.221 . S
O953 Mn954 2.290 . S
O953 C964 1.278 . S
Mn954 O953 2.290 . S
Mn954 O956 2.089 . S
Mn954 O959 2.251 . S
Mn954 O960 2.087 . S
O955 Mn949 2.163 . S
O955 C965 1.244 . S
O956 Mn954 2.089 . S
O956 C963 1.256 . S
O957 Mn949 2.160 . S
O957 C966 1.239 . S
O958 Mn951 2.089 . S
O958 C966 1.256 . S
O959 Mn954 2.251 . S
O959 C964 1.241 . S
O960 Mn954 2.087 . S
O960 C965 1.256 . S
C961 O967 1.278 . S
C961 O968 1.241 . S
C962 O948 1.244 . S
C962 O950 1.256 . S
C963 O952 1.239 . S
C963 O956 1.256 . S
C964 O953 1.278 . S
C964 O959 1.241 . S
C965 O955 1.244 . S
C965 O960 1.256 . S
C966 O957 1.239 . S
C966 O958 1.256 . S
O967 Mn949 2.221 . S
O967 Mn951 2.290 . S
O967 C961 1.278 . S
O968 Mn951 2.251 . S
O968 C961 1.241 . S
O969 Mn970 2.163 . S
O969 C983 1.244 . S
Mn970 O969 2.163 . S
Mn970 O973 2.160 . S
Mn970 O974 2.221 . S
Mn970 O976 2.163 . S
Mn970 O978 2.160 . S
Mn970 O988 2.221 . S
O971 Mn972 2.087 . S
O971 C983 1.256 . S
Mn972 O971 2.087 . S
Mn972 O979 2.089 . S
Mn972 O988 2.290 . S
Mn972 O989 2.251 . S
O973 Mn970 2.160 . S
O973 C984 1.239 . S
O974 Mn970 2.221 . S
O974 Mn975 2.290 . S
O974 C985 1.278 . S
Mn975 O974 2.290 . S
Mn975 O977 2.089 . S
Mn975 O980 2.251 . S
Mn975 O981 2.087 . S
O976 Mn970 2.163 . S
O976 C986 1.244 . S
O977 Mn975 2.089 . S
O977 C984 1.256 . S
O978 Mn970 2.160 . S
O978 C987 1.239 . S
O979 Mn972 2.089 . S
O979 C987 1.256 . S
O980 Mn975 2.251 . S
O980 C985 1.241 . S
O981 Mn975 2.087 . S
O981 C986 1.256 . S
C982 O988 1.278 . S
C982 O989 1.241 . S
C983 O969 1.244 . S
C983 O971 1.256 . S
C984 O973 1.239 . S
C984 O977 1.256 . S
C985 O974 1.278 . S
C985 O980 1.241 . S
C986 O976 1.244 . S
C986 O981 1.256 . S
C987 O978 1.239 . S
C987 O979 1.256 . S
O988 Mn970 2.221 . S
O988 Mn972 2.290 . S
O988 C982 1.278 . S
O989 Mn972 2.251 . S
O989 C982 1.241 . S
O990 Mn991 2.163 . S
O990 C1004 1.244 . S
Mn991 O990 2.163 . S
Mn991 O994 2.160 . S
Mn991 O995 2.221 . S
Mn991 O997 2.163 . S
Mn991 O999 2.160 . S
Mn991 O1009 2.221 . S
O992 Mn993 2.087 . S
O992 C1004 1.256 . S
Mn993 O992 2.087 . S
Mn993 O1000 2.089 . S
Mn993 O1009 2.290 . S
Mn993 O1010 2.251 . S
O994 Mn991 2.160 . S
O994 C1005 1.239 . S
O995 Mn991 2.221 . S
O995 Mn996 2.290 . S
O995 C1006 1.278 . S
Mn996 O995 2.290 . S
Mn996 O998 2.089 . S
Mn996 O1001 2.251 . S
Mn996 O1002 2.087 . S
O997 Mn991 2.163 . S
O997 C1007 1.244 . S
O998 Mn996 2.089 . S
O998 C1005 1.256 . S
O999 Mn991 2.160 . S
O999 C1008 1.239 . S
O1000 Mn993 2.089 . S
O1000 C1008 1.256 . S
O1001 Mn996 2.251 . S
O1001 C1006 1.241 . S
O1002 Mn996 2.087 . S
O1002 C1007 1.256 . S
C1003 O1009 1.278 . S
C1003 O1010 1.241 . S
C1004 O990 1.244 . S
C1004 O992 1.256 . S
C1005 O994 1.239 . S
C1005 O998 1.256 . S
C1006 O995 1.278 . S
C1006 O1001 1.241 . S
C1007 O997 1.244 . S
C1007 O1002 1.256 . S
C1008 O999 1.239 . S
C1008 O1000 1.256 . S
O1009 Mn991 2.221 . S
O1009 Mn993 2.290 . S
O1009 C1003 1.278 . S
O1010 Mn993 2.251 . S
O1010 C1003 1.241 . S
O1011 Mn1012 2.163 . S
O1011 C1025 1.244 . S
Mn1012 O1011 2.163 . S
Mn1012 O1015 2.160 . S
Mn1012 O1016 2.221 . S
Mn1012 O1018 2.163 . S
Mn1012 O1020 2.160 . S
Mn1012 O1030 2.221 . S
O1013 Mn1014 2.087 . S
O1013 C1025 1.256 . S
Mn1014 O1013 2.087 . S
Mn1014 O1021 2.089 . S
Mn1014 O1030 2.290 . S
Mn1014 O1031 2.251 . S
O1015 Mn1012 2.160 . S
O1015 C1026 1.239 . S
O1016 Mn1012 2.221 . S
O1016 Mn1017 2.290 . S
O1016 C1027 1.278 . S
Mn1017 O1016 2.290 . S
Mn1017 O1019 2.089 1_565 S
Mn1017 O1022 2.251 . S
Mn1017 O1023 2.087 . S
O1018 Mn1012 2.163 . S
O1018 C1028 1.244 . S
O1019 Mn1017 2.089 1_545 S
O1019 C1026 1.256 1_545 S
O1020 Mn1012 2.160 . S
O1020 C1029 1.239 . S
O1021 Mn1014 2.089 . S
O1021 C1029 1.256 . S
O1022 Mn1017 2.251 . S
O1022 C1027 1.241 . S
O1023 Mn1017 2.087 . S
O1023 C1028 1.256 . S
C1024 O1030 1.278 . S
C1024 O1031 1.241 . S
C1025 O1011 1.244 . S
C1025 O1013 1.256 . S
C1026 O1015 1.239 . S
C1026 O1019 1.256 1_565 S
C1027 O1016 1.278 . S
C1027 O1022 1.241 . S
C1028 O1018 1.244 . S
C1028 O1023 1.256 . S
C1029 O1020 1.239 . S
C1029 O1021 1.256 . S
O1030 Mn1012 2.221 . S
O1030 Mn1014 2.290 . S
O1030 C1024 1.278 . S
O1031 Mn1014 2.251 . S
O1031 C1024 1.241 . S
O1032 Mn1033 2.163 . S
O1032 C1046 1.244 . S
Mn1033 O1032 2.163 . S
Mn1033 O1036 2.160 . S
Mn1033 O1037 2.221 . S
Mn1033 O1039 2.163 . S
Mn1033 O1041 2.160 . S
Mn1033 O1051 2.221 . S
O1034 Mn1035 2.087 . S
O1034 C1046 1.256 . S
Mn1035 O1034 2.087 . S
Mn1035 O1042 2.089 . S
Mn1035 O1051 2.290 . S
Mn1035 O1052 2.251 . S
O1036 Mn1033 2.160 . S
O1036 C1047 1.239 . S
O1037 Mn1033 2.221 . S
O1037 Mn1038 2.290 . S
O1037 C1048 1.278 . S
Mn1038 O1037 2.290 . S
Mn1038 O1040 2.089 . S
Mn1038 O1043 2.251 . S
Mn1038 O1044 2.087 . S
O1039 Mn1033 2.163 . S
O1039 C1049 1.244 . S
O1040 Mn1038 2.089 . S
O1040 C1047 1.256 . S
O1041 Mn1033 2.160 . S
O1041 C1050 1.239 . S
O1042 Mn1035 2.089 . S
O1042 C1050 1.256 . S
O1043 Mn1038 2.251 . S
O1043 C1048 1.241 . S
O1044 Mn1038 2.087 . S
O1044 C1049 1.256 . S
C1045 O1051 1.278 . S
C1045 O1052 1.241 . S
C1046 O1032 1.244 . S
C1046 O1034 1.256 . S
C1047 O1036 1.239 . S
C1047 O1040 1.256 . S
C1048 O1037 1.278 . S
C1048 O1043 1.241 . S
C1049 O1039 1.244 . S
C1049 O1044 1.256 . S
C1050 O1041 1.239 . S
C1050 O1042 1.256 . S
O1051 Mn1033 2.221 . S
O1051 Mn1035 2.290 . S
O1051 C1045 1.278 . S
O1052 Mn1035 2.251 . S
O1052 C1045 1.241 . S
O1053 Mn1054 2.163 . S
O1053 C1067 1.244 . S
Mn1054 O1053 2.163 . S
Mn1054 O1057 2.160 . S
Mn1054 O1058 2.221 . S
Mn1054 O1060 2.163 . S
Mn1054 O1062 2.160 . S
Mn1054 O1072 2.221 . S
O1055 Mn1056 2.087 . S
O1055 C1067 1.256 . S
Mn1056 O1055 2.087 . S
Mn1056 O1063 2.089 . S
Mn1056 O1072 2.290 . S
Mn1056 O1073 2.251 . S
O1057 Mn1054 2.160 . S
O1057 C1068 1.239 . S
O1058 Mn1054 2.221 . S
O1058 Mn1059 2.290 . S
O1058 C1069 1.278 . S
Mn1059 O1058 2.290 . S
Mn1059 O1061 2.089 . S
Mn1059 O1064 2.251 . S
Mn1059 O1065 2.087 . S
O1060 Mn1054 2.163 . S
O1060 C1070 1.244 . S
O1061 Mn1059 2.089 . S
O1061 C1068 1.256 . S
O1062 Mn1054 2.160 . S
O1062 C1071 1.239 . S
O1063 Mn1056 2.089 . S
O1063 C1071 1.256 . S
O1064 Mn1059 2.251 . S
O1064 C1069 1.241 . S
O1065 Mn1059 2.087 . S
O1065 C1070 1.256 . S
C1066 O1072 1.278 . S
C1066 O1073 1.241 . S
C1067 O1053 1.244 . S
C1067 O1055 1.256 . S
C1068 O1057 1.239 . S
C1068 O1061 1.256 . S
C1069 O1058 1.278 . S
C1069 O1064 1.241 . S
C1070 O1060 1.244 . S
C1070 O1065 1.256 . S
C1071 O1062 1.239 . S
C1071 O1063 1.256 . S
O1072 Mn1054 2.221 . S
O1072 Mn1056 2.290 . S
O1072 C1066 1.278 . S
O1073 Mn1056 2.251 . S
O1073 C1066 1.241 . S
O1074 Mn1075 2.163 . S
O1074 C1088 1.244 . S
Mn1075 O1074 2.163 . S
Mn1075 O1078 2.160 . S
Mn1075 O1079 2.221 . S
Mn1075 O1081 2.163 . S
Mn1075 O1083 2.160 . S
Mn1075 O1093 2.221 . S
O1076 Mn1077 2.087 . S
O1076 C1088 1.256 . S
Mn1077 O1076 2.087 . S
Mn1077 O1084 2.089 . S
Mn1077 O1093 2.290 . S
Mn1077 O1094 2.251 . S
O1078 Mn1075 2.160 . S
O1078 C1089 1.239 . S
O1079 Mn1075 2.221 . S
O1079 Mn1080 2.290 . S
O1079 C1090 1.278 . S
Mn1080 O1079 2.290 . S
Mn1080 O1082 2.089 . S
Mn1080 O1085 2.251 . S
Mn1080 O1086 2.087 . S
O1081 Mn1075 2.163 . S
O1081 C1091 1.244 . S
O1082 Mn1080 2.089 . S
O1082 C1089 1.256 . S
O1083 Mn1075 2.160 . S
O1083 C1092 1.239 . S
O1084 Mn1077 2.089 . S
O1084 C1092 1.256 . S
O1085 Mn1080 2.251 . S
O1085 C1090 1.241 . S
O1086 Mn1080 2.087 . S
O1086 C1091 1.256 . S
C1087 O1093 1.278 . S
C1087 O1094 1.241 . S
C1088 O1074 1.244 . S
C1088 O1076 1.256 . S
C1089 O1078 1.239 . S
C1089 O1082 1.256 . S
C1090 O1079 1.278 . S
C1090 O1085 1.241 . S
C1091 O1081 1.244 . S
C1091 O1086 1.256 . S
C1092 O1083 1.239 . S
C1092 O1084 1.256 . S
O1093 Mn1075 2.221 . S
O1093 Mn1077 2.290 . S
O1093 C1087 1.278 . S
O1094 Mn1077 2.251 . S
O1094 C1087 1.241 . S
O1095 Mn1096 2.163 . S
O1095 C1109 1.244 . S
Mn1096 O1095 2.163 . S
Mn1096 O1099 2.160 . S
Mn1096 O1100 2.221 . S
Mn1096 O1102 2.163 . S
Mn1096 O1104 2.160 . S
Mn1096 O1114 2.221 . S
O1097 Mn1098 2.087 . S
O1097 C1109 1.256 . S
Mn1098 O1097 2.087 . S
Mn1098 O1105 2.089 . S
Mn1098 O1114 2.290 . S
Mn1098 O1115 2.251 . S
O1099 Mn1096 2.160 . S
O1099 C1110 1.239 . S
O1100 Mn1096 2.221 . S
O1100 Mn1101 2.290 . S
O1100 C1111 1.278 . S
Mn1101 O1100 2.290 . S
Mn1101 O1103 2.089 . S
Mn1101 O1106 2.251 . S
Mn1101 O1107 2.087 . S
O1102 Mn1096 2.163 . S
O1102 C1112 1.244 . S
O1103 Mn1101 2.089 . S
O1103 C1110 1.256 . S
O1104 Mn1096 2.160 . S
O1104 C1113 1.239 . S
O1105 Mn1098 2.089 . S
O1105 C1113 1.256 . S
O1106 Mn1101 2.251 . S
O1106 C1111 1.241 . S
O1107 Mn1101 2.087 . S
O1107 C1112 1.256 . S
C1108 O1114 1.278 . S
C1108 O1115 1.241 . S
C1109 O1095 1.244 . S
C1109 O1097 1.256 . S
C1110 O1099 1.239 . S
C1110 O1103 1.256 . S
C1111 O1100 1.278 . S
C1111 O1106 1.241 . S
C1112 O1102 1.244 . S
C1112 O1107 1.256 . S
C1113 O1104 1.239 . S
C1113 O1105 1.256 . S
O1114 Mn1096 2.221 . S
O1114 Mn1098 2.290 . S
O1114 C1108 1.278 . S
O1115 Mn1098 2.251 . S
O1115 C1108 1.241 . S
O1116 Mn1117 2.163 . S
O1116 C1130 1.244 . S
Mn1117 O1116 2.163 . S
Mn1117 O1120 2.160 . S
Mn1117 O1121 2.221 . S
Mn1117 O1123 2.163 . S
Mn1117 O1125 2.160 . S
Mn1117 O1135 2.221 . S
O1118 Mn1119 2.087 . S
O1118 C1130 1.256 . S
Mn1119 O1118 2.087 . S
Mn1119 O1126 2.089 . S
Mn1119 O1135 2.290 . S
Mn1119 O1136 2.251 . S
O1120 Mn1117 2.160 . S
O1120 C1131 1.239 . S
O1121 Mn1117 2.221 . S
O1121 Mn1122 2.290 . S
O1121 C1132 1.278 . S
Mn1122 O1121 2.290 . S
Mn1122 O1124 2.089 . S
Mn1122 O1127 2.251 . S
Mn1122 O1128 2.087 . S
O1123 Mn1117 2.163 . S
O1123 C1133 1.244 . S
O1124 Mn1122 2.089 . S
O1124 C1131 1.256 . S
O1125 Mn1117 2.160 . S
O1125 C1134 1.239 . S
O1126 Mn1119 2.089 . S
O1126 C1134 1.256 . S
O1127 Mn1122 2.251 . S
O1127 C1132 1.241 . S
O1128 Mn1122 2.087 . S
O1128 C1133 1.256 . S
C1129 O1135 1.278 . S
C1129 O1136 1.241 . S
C1130 O1116 1.244 . S
C1130 O1118 1.256 . S
C1131 O1120 1.239 . S
C1131 O1124 1.256 . S
C1132 O1121 1.278 . S
C1132 O1127 1.241 . S
C1133 O1123 1.244 . S
C1133 O1128 1.256 . S
C1134 O1125 1.239 . S
C1134 O1126 1.256 . S
O1135 Mn1117 2.221 . S
O1135 Mn1119 2.290 . S
O1135 C1129 1.278 . S
O1136 Mn1119 2.251 . S
O1136 C1129 1.241 . S
O1137 Mn1138 2.163 . S
O1137 C1151 1.244 . S
Mn1138 O1137 2.163 . S
Mn1138 O1141 2.160 . S
Mn1138 O1142 2.221 . S
Mn1138 O1144 2.163 . S
Mn1138 O1146 2.160 . S
Mn1138 O1156 2.221 . S
O1139 Mn1140 2.087 . S
O1139 C1151 1.256 . S
Mn1140 O1139 2.087 . S
Mn1140 O1147 2.089 . S
Mn1140 O1156 2.290 . S
Mn1140 O1157 2.251 . S
O1141 Mn1138 2.160 . S
O1141 C1152 1.239 . S
O1142 Mn1138 2.221 . S
O1142 Mn1143 2.290 . S
O1142 C1153 1.278 . S
Mn1143 O1142 2.290 . S
Mn1143 O1145 2.089 . S
Mn1143 O1148 2.251 . S
Mn1143 O1149 2.087 . S
O1144 Mn1138 2.163 . S
O1144 C1154 1.244 . S
O1145 Mn1143 2.089 . S
O1145 C1152 1.256 . S
O1146 Mn1138 2.160 . S
O1146 C1155 1.239 . S
O1147 Mn1140 2.089 . S
O1147 C1155 1.256 . S
O1148 Mn1143 2.251 . S
O1148 C1153 1.241 . S
O1149 Mn1143 2.087 . S
O1149 C1154 1.256 . S
C1150 O1156 1.278 . S
C1150 O1157 1.241 . S
C1151 O1137 1.244 . S
C1151 O1139 1.256 . S
C1152 O1141 1.239 . S
C1152 O1145 1.256 . S
C1153 O1142 1.278 . S
C1153 O1148 1.241 . S
C1154 O1144 1.244 . S
C1154 O1149 1.256 . S
C1155 O1146 1.239 . S
C1155 O1147 1.256 . S
O1156 Mn1138 2.221 . S
O1156 Mn1140 2.290 . S
O1156 C1150 1.278 . S
O1157 Mn1140 2.251 . S
O1157 C1150 1.241 . S
O1158 Mn1159 2.163 . S
O1158 C1172 1.244 . S
Mn1159 O1158 2.163 . S
Mn1159 O1162 2.160 . S
Mn1159 O1163 2.221 . S
Mn1159 O1165 2.163 . S
Mn1159 O1167 2.160 . S
Mn1159 O1177 2.221 . S
O1160 Mn1161 2.087 . S
O1160 C1172 1.256 . S
Mn1161 O1160 2.087 . S
Mn1161 O1168 2.089 . S
Mn1161 O1177 2.290 . S
Mn1161 O1178 2.251 . S
O1162 Mn1159 2.160 . S
O1162 C1173 1.239 . S
O1163 Mn1159 2.221 . S
O1163 Mn1164 2.290 . S
O1163 C1174 1.278 . S
Mn1164 O1163 2.290 . S
Mn1164 O1166 2.089 . S
Mn1164 O1169 2.251 . S
Mn1164 O1170 2.087 . S
O1165 Mn1159 2.163 . S
O1165 C1175 1.244 . S
O1166 Mn1164 2.089 . S
O1166 C1173 1.256 . S
O1167 Mn1159 2.160 . S
O1167 C1176 1.239 . S
O1168 Mn1161 2.089 . S
O1168 C1176 1.256 . S
O1169 Mn1164 2.251 . S
O1169 C1174 1.241 . S
O1170 Mn1164 2.087 . S
O1170 C1175 1.256 . S
C1171 O1177 1.278 . S
C1171 O1178 1.241 . S
C1172 O1158 1.244 . S
C1172 O1160 1.256 . S
C1173 O1162 1.239 . S
C1173 O1166 1.256 . S
C1174 O1163 1.278 . S
C1174 O1169 1.241 . S
C1175 O1165 1.244 . S
C1175 O1170 1.256 . S
C1176 O1167 1.239 . S
C1176 O1168 1.256 . S
O1177 Mn1159 2.221 . S
O1177 Mn1161 2.290 . S
O1177 C1171 1.278 . S
O1178 Mn1161 2.251 . S
O1178 C1171 1.241 . S
O1179 Mn1180 2.163 . S
O1179 C1193 1.244 . S
Mn1180 O1179 2.163 . S
Mn1180 O1183 2.160 . S
Mn1180 O1184 2.221 . S
Mn1180 O1186 2.163 . S
Mn1180 O1188 2.160 . S
Mn1180 O1198 2.221 . S
O1181 Mn1182 2.087 . S
O1181 C1193 1.256 . S
Mn1182 O1181 2.087 . S
Mn1182 O1189 2.089 . S
Mn1182 O1198 2.290 . S
Mn1182 O1199 2.251 . S
O1183 Mn1180 2.160 . S
O1183 C1194 1.239 . S
O1184 Mn1180 2.221 . S
O1184 Mn1185 2.290 . S
O1184 C1195 1.278 . S
Mn1185 O1184 2.290 . S
Mn1185 O1187 2.089 . S
Mn1185 O1190 2.251 . S
Mn1185 O1191 2.087 . S
O1186 Mn1180 2.163 . S
O1186 C1196 1.244 . S
O1187 Mn1185 2.089 . S
O1187 C1194 1.256 . S
O1188 Mn1180 2.160 . S
O1188 C1197 1.239 . S
O1189 Mn1182 2.089 . S
O1189 C1197 1.256 . S
O1190 Mn1185 2.251 . S
O1190 C1195 1.241 . S
O1191 Mn1185 2.087 . S
O1191 C1196 1.256 . S
C1192 O1198 1.278 . S
C1192 O1199 1.241 . S
C1193 O1179 1.244 . S
C1193 O1181 1.256 . S
C1194 O1183 1.239 . S
C1194 O1187 1.256 . S
C1195 O1184 1.278 . S
C1195 O1190 1.241 . S
C1196 O1186 1.244 . S
C1196 O1191 1.256 . S
C1197 O1188 1.239 . S
C1197 O1189 1.256 . S
O1198 Mn1180 2.221 . S
O1198 Mn1182 2.290 . S
O1198 C1192 1.278 . S
O1199 Mn1182 2.251 . S
O1199 C1192 1.241 . S
C1200 C1201 1.363 . S
C1200 C1206 1.379 . S
C1200 N1208 1.356 . S
C1201 C1200 1.363 . S
C1201 C1207 1.363 . S
C1202 C1203 1.363 . S
C1202 C1207 1.379 . S
C1202 N1209 1.356 . S
C1203 C1202 1.363 . S
C1203 C1206 1.363 . S
N1204 C1206 1.356 . S
N1204 H1216 0.984 . S
N1204 H1217 0.985 . S
N1205 C1207 1.356 . S
N1205 H1210 0.984 . S
N1205 H1211 0.985 . S
C1206 C1200 1.379 . S
C1206 C1203 1.363 . S
C1206 N1204 1.356 . S
C1207 C1201 1.363 . S
C1207 C1202 1.379 . S
C1207 N1205 1.356 . S
N1208 C1200 1.356 . S
N1208 H1214 0.984 . S
N1208 H1215 0.984 . S
N1209 C1202 1.356 . S
N1209 H1212 0.984 . S
N1209 H1213 0.985 . S
H1210 N1205 0.984 . S
H1211 N1205 0.985 . S
H1212 N1209 0.984 . S
H1213 N1209 0.985 . S
H1214 N1208 0.984 . S
H1215 N1208 0.984 . S
H1216 N1204 0.984 . S
H1217 N1204 0.985 . S
C1218 C1219 1.363 . S
C1218 C1224 1.379 . S
C1218 N1226 1.356 . S
C1219 C1218 1.363 . S
C1219 C1225 1.363 . S
C1220 C1221 1.363 . S
C1220 C1225 1.379 . S
C1220 N1227 1.356 . S
C1221 C1220 1.363 . S
C1221 C1224 1.363 . S
N1222 C1224 1.356 . S
N1222 H1234 0.984 . S
N1222 H1235 0.985 . S
N1223 C1225 1.356 . S
N1223 H1228 0.984 . S
N1223 H1229 0.985 . S
C1224 C1218 1.379 . S
C1224 C1221 1.363 . S
C1224 N1222 1.356 . S
C1225 C1219 1.363 . S
C1225 C1220 1.379 . S
C1225 N1223 1.356 . S
N1226 C1218 1.356 . S
N1226 H1232 0.984 . S
N1226 H1233 0.984 . S
N1227 C1220 1.356 . S
N1227 H1230 0.984 . S
N1227 H1231 0.985 . S
H1228 N1223 0.984 . S
H1229 N1223 0.985 . S
H1230 N1227 0.984 . S
H1231 N1227 0.985 . S
H1232 N1226 0.984 . S
H1233 N1226 0.984 . S
H1234 N1222 0.984 . S
H1235 N1222 0.985 . S
C1236 C1237 1.363 . S
C1236 C1242 1.379 . S
C1236 N1244 1.356 . S
C1237 C1236 1.363 . S
C1237 C1243 1.363 . S
C1238 C1239 1.363 . S
C1238 C1243 1.379 . S
C1238 N1245 1.356 . S
C1239 C1238 1.363 . S
C1239 C1242 1.363 . S
N1240 C1242 1.356 . S
N1240 H1252 0.984 . S
N1240 H1253 0.985 . S
N1241 C1243 1.356 . S
N1241 H1246 0.984 . S
N1241 H1247 0.985 . S
C1242 C1236 1.379 . S
C1242 C1239 1.363 . S
C1242 N1240 1.356 . S
C1243 C1237 1.363 . S
C1243 C1238 1.379 . S
C1243 N1241 1.356 . S
N1244 C1236 1.356 . S
N1244 H1250 0.984 . S
N1244 H1251 0.984 . S
N1245 C1238 1.356 . S
N1245 H1248 0.984 . S
N1245 H1249 0.985 . S
H1246 N1241 0.984 . S
H1247 N1241 0.985 . S
H1248 N1245 0.984 . S
H1249 N1245 0.985 . S
H1250 N1244 0.984 . S
H1251 N1244 0.984 . S
H1252 N1240 0.984 . S
H1253 N1240 0.985 . S
C1254 C1255 1.363 . S
C1254 C1260 1.379 . S
C1254 N1262 1.356 . S
C1255 C1254 1.363 . S
C1255 C1261 1.363 . S
C1256 C1257 1.363 . S
C1256 C1261 1.379 . S
C1256 N1263 1.356 1_554 S
C1257 C1256 1.363 . S
C1257 C1260 1.363 . S
N1258 C1260 1.356 . S
N1258 H1270 0.984 . S
N1258 H1271 0.985 1_554 S
N1259 C1261 1.356 . S
N1259 H1264 0.984 . S
N1259 H1265 0.985 . S
C1260 C1254 1.379 . S
C1260 C1257 1.363 . S
C1260 N1258 1.356 . S
C1261 C1255 1.363 . S
C1261 C1256 1.379 . S
C1261 N1259 1.356 . S
N1262 C1254 1.356 . S
N1262 H1268 0.984 . S
N1262 H1269 0.984 . S
N1263 C1256 1.356 1_556 S
N1263 H1266 0.984 . S
N1263 H1267 0.985 . S
H1264 N1259 0.984 . S
H1265 N1259 0.985 . S
H1266 N1263 0.984 . S
H1267 N1263 0.985 . S
H1268 N1262 0.984 . S
H1269 N1262 0.984 . S
H1270 N1258 0.984 . S
H1271 N1258 0.985 1_556 S
C1272 C1273 1.363 . S
C1272 C1278 1.379 . S
C1272 N1280 1.356 . S
C1273 C1272 1.363 . S
C1273 C1279 1.363 . S
C1274 C1275 1.363 . S
C1274 C1279 1.379 . S
C1274 N1281 1.356 . S
C1275 C1274 1.363 . S
C1275 C1278 1.363 . S
N1276 C1278 1.356 . S
N1276 H1288 0.984 . S
N1276 H1289 0.985 . S
N1277 C1279 1.356 . S
N1277 H1282 0.984 . S
N1277 H1283 0.985 . S
C1278 C1272 1.379 . S
C1278 C1275 1.363 . S
C1278 N1276 1.356 . S
C1279 C1273 1.363 . S
C1279 C1274 1.379 . S
C1279 N1277 1.356 . S
N1280 C1272 1.356 . S
N1280 H1286 0.984 . S
N1280 H1287 0.984 . S
N1281 C1274 1.356 . S
N1281 H1284 0.984 . S
N1281 H1285 0.985 . S
H1282 N1277 0.984 . S
H1283 N1277 0.985 . S
H1284 N1281 0.984 . S
H1285 N1281 0.985 . S
H1286 N1280 0.984 . S
H1287 N1280 0.984 . S
H1288 N1276 0.984 . S
H1289 N1276 0.985 . S
C1290 C1291 1.363 . S
C1290 C1296 1.379 . S
C1290 N1298 1.356 . S
C1291 C1290 1.363 . S
C1291 C1297 1.363 . S
C1292 C1293 1.363 . S
C1292 C1297 1.379 . S
C1292 N1299 1.356 . S
C1293 C1292 1.363 . S
C1293 C1296 1.363 . S
N1294 C1296 1.356 . S
N1294 H1306 0.984 . S
N1294 H1307 0.985 . S
N1295 C1297 1.356 . S
N1295 H1300 0.984 . S
N1295 H1301 0.985 . S
C1296 C1290 1.379 . S
C1296 C1293 1.363 . S
C1296 N1294 1.356 . S
C1297 C1291 1.363 . S
C1297 C1292 1.379 . S
C1297 N1295 1.356 . S
N1298 C1290 1.356 . S
N1298 H1304 0.984 . S
N1298 H1305 0.984 . S
N1299 C1292 1.356 . S
N1299 H1302 0.984 . S
N1299 H1303 0.985 . S
H1300 N1295 0.984 . S
H1301 N1295 0.985 . S
H1302 N1299 0.984 . S
H1303 N1299 0.985 . S
H1304 N1298 0.984 . S
H1305 N1298 0.984 . S
H1306 N1294 0.984 . S
H1307 N1294 0.985 . S
C1308 C1309 1.363 . S
C1308 C1314 1.379 . S
C1308 N1316 1.356 . S
C1309 C1308 1.363 . S
C1309 C1315 1.363 . S
C1310 C1311 1.363 . S
C1310 C1315 1.379 . S
C1310 N1317 1.356 . S
C1311 C1310 1.363 . S
C1311 C1314 1.363 . S
N1312 C1314 1.356 . S
N1312 H1324 0.984 . S
N1312 H1325 0.985 . S
N1313 C1315 1.356 . S
N1313 H1318 0.984 . S
N1313 H1319 0.985 . S
C1314 C1308 1.379 . S
C1314 C1311 1.363 . S
C1314 N1312 1.356 . S
C1315 C1309 1.363 . S
C1315 C1310 1.379 . S
C1315 N1313 1.356 . S
N1316 C1308 1.356 . S
N1316 H1322 0.984 . S
N1316 H1323 0.984 . S
N1317 C1310 1.356 . S
N1317 H1320 0.984 . S
N1317 H1321 0.985 . S
H1318 N1313 0.984 . S
H1319 N1313 0.985 . S
H1320 N1317 0.984 . S
H1321 N1317 0.985 . S
H1322 N1316 0.984 . S
H1323 N1316 0.984 . S
H1324 N1312 0.984 . S
H1325 N1312 0.985 . S
C1326 C1327 1.363 1_554 S
C1326 C1332 1.379 . S
C1326 N1334 1.356 1_554 S
C1327 C1326 1.363 1_556 S
C1327 C1333 1.363 . S
C1328 C1329 1.363 . S
C1328 C1333 1.379 1_554 S
C1328 N1335 1.356 . S
C1329 C1328 1.363 . S
C1329 C1332 1.363 . S
N1330 C1332 1.356 . S
N1330 H1342 0.984 . S
N1330 H1343 0.985 . S
N1331 C1333 1.356 . S
N1331 H1336 0.984 . S
N1331 H1337 0.985 . S
C1332 C1326 1.379 . S
C1332 C1329 1.363 . S
C1332 N1330 1.356 . S
C1333 C1327 1.363 . S
C1333 C1328 1.379 1_556 S
C1333 N1331 1.356 . S
N1334 C1326 1.356 1_556 S
N1334 H1340 0.984 1_556 S
N1334 H1341 0.984 . S
N1335 C1328 1.356 . S
N1335 H1338 0.984 . S
N1335 H1339 0.985 . S
H1336 N1331 0.984 . S
H1337 N1331 0.985 . S
H1338 N1335 0.984 . S
H1339 N1335 0.985 . S
H1340 N1334 0.984 1_554 S
H1341 N1334 0.984 . S
H1342 N1330 0.984 . S
H1343 N1330 0.985 . S
C1344 C1345 1.363 . S
C1344 C1350 1.379 . S
C1344 N1352 1.356 . S
C1345 C1344 1.363 . S
C1345 C1351 1.363 . S
C1346 C1347 1.363 . S
C1346 C1351 1.379 . S
C1346 N1353 1.356 . S
C1347 C1346 1.363 . S
C1347 C1350 1.363 . S
N1348 C1350 1.356 . S
N1348 H1360 0.984 . S
N1348 H1361 0.985 . S
N1349 C1351 1.356 . S
N1349 H1354 0.984 . S
N1349 H1355 0.985 . S
C1350 C1344 1.379 . S
C1350 C1347 1.363 . S
C1350 N1348 1.356 . S
C1351 C1345 1.363 . S
C1351 C1346 1.379 . S
C1351 N1349 1.356 . S
N1352 C1344 1.356 . S
N1352 H1358 0.984 . S
N1352 H1359 0.984 . S
N1353 C1346 1.356 . S
N1353 H1356 0.984 . S
N1353 H1357 0.985 . S
H1354 N1349 0.984 . S
H1355 N1349 0.985 . S
H1356 N1353 0.984 . S
H1357 N1353 0.985 . S
H1358 N1352 0.984 . S
H1359 N1352 0.984 . S
H1360 N1348 0.984 . S
H1361 N1348 0.985 . S
C1362 C1363 1.363 . S
C1362 C1368 1.379 . S
C1362 N1370 1.356 . S
C1363 C1362 1.363 . S
C1363 C1369 1.363 . S
C1364 C1365 1.365 1_545 S
C1364 C1369 1.379 . S
C1364 N1371 1.356 1_545 S
C1365 C1364 1.365 1_565 S
C1365 C1368 1.364 1_565 S
N1366 C1368 1.356 1_565 S
N1366 H1378 0.984 . S
N1366 H1379 0.985 . S
N1367 C1369 1.356 . S
N1367 H1372 0.984 . S
N1367 H1373 0.985 . S
C1368 C1362 1.379 . S
C1368 C1365 1.364 1_545 S
C1368 N1366 1.356 1_545 S
C1369 C1363 1.363 . S
C1369 C1364 1.379 . S
C1369 N1367 1.356 . S
N1370 C1362 1.356 . S
N1370 H1376 0.984 . S
N1370 H1377 0.984 . S
N1371 C1364 1.356 1_565 S
N1371 H1374 0.984 . S
N1371 H1375 0.985 1_565 S
H1372 N1367 0.984 . S
H1373 N1367 0.985 . S
H1374 N1371 0.984 . S
H1375 N1371 0.985 1_545 S
H1376 N1370 0.984 . S
H1377 N1370 0.984 . S
H1378 N1366 0.984 . S
H1379 N1366 0.985 . S
C1380 C1381 1.363 . S
C1380 C1386 1.379 . S
C1380 N1388 1.356 . S
C1381 C1380 1.363 . S
C1381 C1387 1.363 . S
C1382 C1383 1.363 . S
C1382 C1387 1.379 . S
C1382 N1389 1.356 . S
C1383 C1382 1.363 . S
C1383 C1386 1.363 . S
N1384 C1386 1.356 . S
N1384 H1396 0.984 . S
N1384 H1397 0.985 . S
N1385 C1387 1.356 1_545 S
N1385 H1390 0.984 . S
N1385 H1391 0.985 . S
C1386 C1380 1.379 . S
C1386 C1383 1.363 . S
C1386 N1384 1.356 . S
C1387 C1381 1.363 . S
C1387 C1382 1.379 . S
C1387 N1385 1.356 1_565 S
N1388 C1380 1.356 . S
N1388 H1394 0.984 . S
N1388 H1395 0.984 . S
N1389 C1382 1.356 . S
N1389 H1392 0.984 . S
N1389 H1393 0.985 . S
H1390 N1385 0.984 . S
H1391 N1385 0.985 . S
H1392 N1389 0.984 . S
H1393 N1389 0.985 . S
H1394 N1388 0.984 . S
H1395 N1388 0.984 . S
H1396 N1384 0.984 . S
H1397 N1384 0.985 . S
C1398 C1399 1.363 . S
C1398 C1404 1.379 . S
C1398 N1406 1.356 1_545 S
C1399 C1398 1.363 . S
C1399 C1405 1.363 1_556 S
C1400 C1401 1.363 1_554 S
C1400 C1405 1.379 . S
C1400 N1407 1.356 . S
C1401 C1400 1.363 1_556 S
C1401 C1404 1.363 . S
N1402 C1404 1.356 . S
N1402 H1414 0.984 . S
N1402 H1415 0.985 . S
N1403 C1405 1.356 . S
N1403 H1408 0.984 1_545 S
N1403 H1409 0.985 . S
C1404 C1398 1.379 . S
C1404 C1401 1.363 . S
C1404 N1402 1.356 . S
C1405 C1399 1.363 1_554 S
C1405 C1400 1.379 . S
C1405 N1403 1.356 . S
N1406 C1398 1.356 1_565 S
N1406 H1412 0.984 . S
N1406 H1413 0.984 . S
N1407 C1400 1.356 . S
N1407 H1410 0.984 . S
N1407 H1411 0.985 . S
H1408 N1403 0.984 1_565 S
H1409 N1403 0.985 . S
H1410 N1407 0.984 . S
H1411 N1407 0.985 . S
H1412 N1406 0.984 . S
H1413 N1406 0.984 . S
H1414 N1402 0.984 . S
H1415 N1402 0.985 . S
C1416 C1417 1.363 . S
C1416 C1422 1.379 . S
C1416 N1424 1.356 . S
C1417 C1416 1.363 . S
C1417 C1423 1.363 . S
C1418 C1419 1.363 . S
C1418 C1423 1.379 . S
C1418 N1425 1.356 . S
C1419 C1418 1.363 . S
C1419 C1422 1.363 . S
N1420 C1422 1.356 . S
N1420 H1432 0.984 . S
N1420 H1433 0.985 . S
N1421 C1423 1.356 . S
N1421 H1426 0.984 . S
N1421 H1427 0.974 1_565 S
C1422 C1416 1.379 . S
C1422 C1419 1.363 . S
C1422 N1420 1.356 . S
C1423 C1417 1.363 . S
C1423 C1418 1.379 . S
C1423 N1421 1.356 . S
N1424 C1416 1.356 . S
N1424 H1430 0.984 . S
N1424 H1431 0.984 . S
N1425 C1418 1.356 . S
N1425 H1428 0.984 . S
N1425 H1429 0.966 1_565 S
H1426 N1421 0.984 . S
H1427 N1421 0.974 1_545 S
H1428 N1425 0.984 . S
H1429 N1425 0.966 1_545 S
H1430 N1424 0.984 . S
H1431 N1424 0.984 . S
H1432 N1420 0.984 . S
H1433 N1420 0.985 . S
C1434 C1435 1.363 . S
C1434 C1440 1.379 . S
C1434 N1442 1.356 . S
C1435 C1434 1.363 . S
C1435 C1441 1.363 . S
C1436 C1437 1.363 . S
C1436 C1441 1.379 . S
C1436 N1443 1.356 . S
C1437 C1436 1.363 . S
C1437 C1440 1.363 . S
N1438 C1440 1.356 1_565 S
N1438 H1450 0.984 . S
N1438 H1451 0.985 . S
N1439 C1441 1.356 . S
N1439 H1444 0.984 . S
N1439 H1445 0.985 . S
C1440 C1434 1.379 . S
C1440 C1437 1.363 . S
C1440 N1438 1.356 1_545 S
C1441 C1435 1.363 . S
C1441 C1436 1.379 . S
C1441 N1439 1.356 . S
N1442 C1434 1.356 . S
N1442 H1448 0.984 . S
N1442 H1449 0.984 . S
N1443 C1436 1.356 . S
N1443 H1446 0.957 1_545 S
N1443 H1447 0.985 . S
H1444 N1439 0.984 . S
H1445 N1439 0.985 . S
H1446 N1443 0.957 1_565 S
H1447 N1443 0.985 . S
H1448 N1442 0.984 . S
H1449 N1442 0.984 . S
H1450 N1438 0.984 . S
H1451 N1438 0.985 . S
C1452 C1453 1.363 . S
C1452 C1458 1.379 . S
C1452 N1460 1.356 . S
C1453 C1452 1.363 . S
C1453 C1459 1.363 . S
C1454 C1455 1.363 . S
C1454 C1459 1.379 . S
C1454 N1461 1.356 . S
C1455 C1454 1.363 . S
C1455 C1458 1.363 . S
N1456 C1458 1.356 . S
N1456 H1468 0.984 . S
N1456 H1469 0.985 . S
N1457 C1459 1.356 . S
N1457 H1462 0.984 . S
N1457 H1463 0.985 . S
C1458 C1452 1.379 . S
C1458 C1455 1.363 . S
C1458 N1456 1.356 . S
C1459 C1453 1.363 . S
C1459 C1454 1.379 . S
C1459 N1457 1.356 . S
N1460 C1452 1.356 . S
N1460 H1466 0.984 . S
N1460 H1467 0.984 . S
N1461 C1454 1.356 . S
N1461 H1464 0.984 . S
N1461 H1465 0.985 . S
H1462 N1457 0.984 . S
H1463 N1457 0.985 . S
H1464 N1461 0.984 . S
H1465 N1461 0.985 . S
H1466 N1460 0.984 . S
H1467 N1460 0.984 . S
H1468 N1456 0.984 . S
H1469 N1456 0.985 . S
C1470 C1471 1.363 1_545 S
C1470 C1476 1.379 . S
C1470 N1478 1.356 1_545 S
C1471 C1470 1.363 1_565 S
C1471 C1477 1.363 1_565 S
C1472 C1473 1.363 . S
C1472 C1477 1.379 . S
C1472 N1479 1.356 . S
C1473 C1472 1.363 . S
C1473 C1476 1.363 . S
N1474 C1476 1.356 . S
N1474 H1486 0.984 . S
N1474 H1487 0.985 . S
N1475 C1477 1.356 1_565 S
N1475 H1480 0.984 . S
N1475 H1481 0.985 1_564 S
C1476 C1470 1.379 . S
C1476 C1473 1.363 . S
C1476 N1474 1.356 . S
C1477 C1471 1.363 1_545 S
C1477 C1472 1.379 . S
C1477 N1475 1.356 1_545 S
N1478 C1470 1.356 1_565 S
N1478 H1484 0.984 . S
N1478 H1485 0.984 . S
N1479 C1472 1.356 . S
N1479 H1482 0.984 . S
N1479 H1483 0.985 . S
H1480 N1475 0.984 . S
H1481 N1475 0.985 1_546 S
H1482 N1479 0.984 . S
H1483 N1479 0.985 . S
H1484 N1478 0.984 . S
H1485 N1478 0.984 . S
H1486 N1474 0.984 . S
H1487 N1474 0.985 . S
C1488 C1489 1.363 . S
C1488 C1494 1.379 . S
C1488 N1496 1.356 . S
C1489 C1488 1.363 . S
C1489 C1495 1.363 . S
C1490 C1491 1.363 . S
C1490 C1495 1.379 . S
C1490 N1497 1.356 . S
C1491 C1490 1.363 . S
C1491 C1494 1.363 . S
N1492 C1494 1.356 . S
N1492 H1504 0.984 . S
N1492 H1505 0.985 . S
N1493 C1495 1.356 . S
N1493 H1498 0.984 . S
N1493 H1499 0.985 . S
C1494 C1488 1.379 . S
C1494 C1491 1.363 . S
C1494 N1492 1.356 . S
C1495 C1489 1.363 . S
C1495 C1490 1.379 . S
C1495 N1493 1.356 . S
N1496 C1488 1.356 . S
N1496 H1502 0.984 . S
N1496 H1503 0.984 . S
N1497 C1490 1.356 . S
N1497 H1500 0.984 . S
N1497 H1501 0.985 . S
H1498 N1493 0.984 . S
H1499 N1493 0.985 . S
H1500 N1497 0.984 . S
H1501 N1497 0.985 . S
H1502 N1496 0.984 . S
H1503 N1496 0.984 . S
H1504 N1492 0.984 . S
H1505 N1492 0.985 . S
C1506 C1507 1.363 . S
C1506 C1512 1.379 . S
C1506 N1514 1.356 . S
C1507 C1506 1.363 . S
C1507 C1513 1.363 . S
C1508 C1509 1.363 . S
C1508 C1513 1.379 . S
C1508 N1515 1.356 . S
C1509 C1508 1.363 . S
C1509 C1512 1.363 . S
N1510 C1512 1.356 . S
N1510 H1522 0.984 . S
N1510 H1523 0.985 . S
N1511 C1513 1.356 . S
N1511 H1516 0.984 . S
N1511 H1517 0.985 1_556 S
C1512 C1506 1.379 . S
C1512 C1509 1.363 . S
C1512 N1510 1.356 . S
C1513 C1507 1.363 . S
C1513 C1508 1.379 . S
C1513 N1511 1.356 . S
N1514 C1506 1.356 . S
N1514 H1520 0.984 . S
N1514 H1521 0.984 . S
N1515 C1508 1.356 . S
N1515 H1518 0.984 . S
N1515 H1519 0.985 1_556 S
H1516 N1511 0.984 . S
H1517 N1511 0.985 1_554 S
H1518 N1515 0.984 . S
H1519 N1515 0.985 1_554 S
H1520 N1514 0.984 . S
H1521 N1514 0.984 . S
H1522 N1510 0.984 . S
H1523 N1510 0.985 . S
C1524 C1525 1.363 . S
C1524 C1530 1.379 . S
C1524 N1532 1.356 . S
C1525 C1524 1.363 . S
C1525 C1531 1.363 . S
C1526 C1527 1.363 1_455 S
C1526 C1531 1.379 . S
C1526 N1533 1.356 1_455 S
C1527 C1526 1.363 1_655 S
C1527 C1530 1.363 1_655 S
N1528 C1530 1.356 1_655 S
N1528 H1540 0.984 1_655 S
N1528 H1541 0.985 . S
N1529 C1531 1.356 . S
N1529 H1534 0.984 . S
N1529 H1535 0.985 . S
C1530 C1524 1.379 . S
C1530 C1527 1.363 1_455 S
C1530 N1528 1.356 1_455 S
C1531 C1525 1.363 . S
C1531 C1526 1.379 . S
C1531 N1529 1.356 . S
N1532 C1524 1.356 . S
N1532 H1538 0.984 . S
N1532 H1539 0.984 . S
N1533 C1526 1.356 1_655 S
N1533 H1536 0.984 . S
N1533 H1537 0.985 . S
H1534 N1529 0.984 . S
H1535 N1529 0.985 . S
H1536 N1533 0.984 . S
H1537 N1533 0.985 . S
H1538 N1532 0.984 . S
H1539 N1532 0.984 . S
H1540 N1528 0.984 1_455 S
H1541 N1528 0.985 . S
C1542 C1543 1.363 . S
C1542 C1548 1.379 . S
C1542 N1550 1.356 . S
C1543 C1542 1.363 . S
C1543 C1549 1.363 . S
C1544 C1545 1.363 . S
C1544 C1549 1.379 . S
C1544 N1551 1.356 . S
C1545 C1544 1.363 . S
C1545 C1548 1.363 . S
N1546 C1548 1.356 . S
N1546 H1558 0.984 . S
N1546 H1559 0.985 . S
N1547 C1549 1.356 . S
N1547 H1552 0.984 . S
N1547 H1553 0.985 . S
C1548 C1542 1.379 . S
C1548 C1545 1.363 . S
C1548 N1546 1.356 . S
C1549 C1543 1.363 . S
C1549 C1544 1.379 . S
C1549 N1547 1.356 . S
N1550 C1542 1.356 . S
N1550 H1556 0.984 . S
N1550 H1557 0.984 . S
N1551 C1544 1.356 . S
N1551 H1554 0.984 . S
N1551 H1555 0.985 . S
H1552 N1547 0.984 . S
H1553 N1547 0.985 . S
H1554 N1551 0.984 . S
H1555 N1551 0.985 . S
H1556 N1550 0.984 . S
H1557 N1550 0.984 . S
H1558 N1546 0.984 . S
H1559 N1546 0.985 . S
C1560 C1561 1.363 1_455 S
C1560 C1566 1.379 . S
C1560 N1568 1.356 1_455 S
C1561 C1560 1.363 1_655 S
C1561 C1567 1.363 . S
C1562 C1563 1.363 . S
C1562 C1567 1.379 1_455 S
C1562 N1569 1.356 . S
C1563 C1562 1.363 . S
C1563 C1566 1.363 . S
N1564 C1566 1.356 . S
N1564 H1576 0.984 . S
N1564 H1577 0.985 . S
N1565 C1567 1.356 . S
N1565 H1570 0.984 . S
N1565 H1571 0.985 . S
C1566 C1560 1.379 . S
C1566 C1563 1.363 . S
C1566 N1564 1.356 . S
C1567 C1561 1.363 . S
C1567 C1562 1.379 1_655 S
C1567 N1565 1.356 . S
N1568 C1560 1.356 1_655 S
N1568 H1574 0.978 1_655 S
N1568 H1575 0.984 . S
N1569 C1562 1.356 . S
N1569 H1572 0.984 . S
N1569 H1573 0.985 . S
H1570 N1565 0.984 . S
H1571 N1565 0.985 . S
H1572 N1569 0.984 . S
H1573 N1569 0.985 . S
H1574 N1568 0.978 1_455 S
H1575 N1568 0.984 . S
H1576 N1564 0.984 . S
H1577 N1564 0.985 . S
C1578 C1579 1.363 . S
C1578 C1584 1.379 . S
C1578 N1586 1.356 . S
C1579 C1578 1.363 . S
C1579 C1585 1.363 . S
C1580 C1581 1.363 . S
C1580 C1585 1.379 . S
C1580 N1587 1.356 . S
C1581 C1580 1.363 . S
C1581 C1584 1.363 . S
N1582 C1584 1.356 . S
N1582 H1594 0.984 . S
N1582 H1595 0.985 . S
N1583 C1585 1.356 . S
N1583 H1588 0.984 . S
N1583 H1589 0.985 . S
C1584 C1578 1.379 . S
C1584 C1581 1.363 . S
C1584 N1582 1.356 . S
C1585 C1579 1.363 . S
C1585 C1580 1.379 . S
C1585 N1583 1.356 . S
N1586 C1578 1.356 . S
N1586 H1592 0.984 . S
N1586 H1593 0.984 . S
N1587 C1580 1.356 . S
N1587 H1590 0.984 . S
N1587 H1591 0.985 . S
H1588 N1583 0.984 . S
H1589 N1583 0.985 . S
H1590 N1587 0.984 . S
H1591 N1587 0.985 . S
H1592 N1586 0.984 . S
H1593 N1586 0.984 . S
H1594 N1582 0.984 . S
H1595 N1582 0.985 . S
C1596 C1597 1.363 . S
C1596 C1602 1.350 1_455 S
C1596 N1604 1.356 . S
C1597 C1596 1.363 . S
C1597 C1603 1.363 . S
C1598 C1599 1.353 1_455 S
C1598 C1603 1.397 . S
C1598 N1605 1.343 1_455 S
C1599 C1598 1.353 1_655 S
C1599 C1602 1.378 . S
N1600 C1602 1.378 . S
N1600 H1612 0.984 . S
N1600 H1613 0.985 . S
N1601 C1603 1.356 . S
N1601 H1606 0.984 . S
N1601 H1607 0.985 . S
C1602 C1596 1.350 1_655 S
C1602 C1599 1.378 . S
C1602 N1600 1.378 . S
C1603 C1597 1.363 . S
C1603 C1598 1.397 . S
C1603 N1601 1.356 . S
N1604 C1596 1.356 . S
N1604 H1610 0.984 . S
N1604 H1611 0.984 . S
N1605 C1598 1.343 1_655 S
N1605 H1608 0.984 . S
N1605 H1609 0.985 . S
H1606 N1601 0.984 . S
H1607 N1601 0.985 . S
H1608 N1605 0.984 . S
H1609 N1605 0.985 . S
H1610 N1604 0.984 . S
H1611 N1604 0.984 . S
H1612 N1600 0.984 . S
H1613 N1600 0.985 . S
C1614 C1615 1.363 . S
C1614 C1620 1.379 . S
C1614 N1622 1.356 . S
C1615 C1614 1.363 . S
C1615 C1621 1.363 . S
C1616 C1617 1.363 . S
C1616 C1621 1.379 . S
C1616 N1623 1.356 . S
C1617 C1616 1.363 . S
C1617 C1620 1.363 . S
N1618 C1620 1.356 . S
N1618 H1630 0.984 . S
N1618 H1631 0.985 . S
N1619 C1621 1.356 . S
N1619 H1624 0.984 . S
N1619 H1625 0.985 . S
C1620 C1614 1.379 . S
C1620 C1617 1.363 . S
C1620 N1618 1.356 . S
C1621 C1615 1.363 . S
C1621 C1616 1.379 . S
C1621 N1619 1.356 . S
N1622 C1614 1.356 . S
N1622 H1628 0.984 . S
N1622 H1629 0.984 . S
N1623 C1616 1.356 . S
N1623 H1626 0.984 . S
N1623 H1627 0.985 . S
H1624 N1619 0.984 . S
H1625 N1619 0.985 . S
H1626 N1623 0.984 . S
H1627 N1623 0.985 . S
H1628 N1622 0.984 . S
H1629 N1622 0.984 . S
H1630 N1618 0.984 . S
H1631 N1618 0.985 . S
C1632 C1633 1.363 . S
C1632 C1638 1.379 . S
C1632 N1640 1.356 . S
C1633 C1632 1.363 . S
C1633 C1639 1.363 . S
C1634 C1635 1.363 . S
C1634 C1639 1.379 . S
C1634 N1641 1.356 . S
C1635 C1634 1.363 . S
C1635 C1638 1.363 . S
N1636 C1638 1.356 . S
N1636 H1648 0.984 . S
N1636 H1649 0.985 . S
N1637 C1639 1.356 . S
N1637 H1642 0.984 . S
N1637 H1643 0.985 1_655 S
C1638 C1632 1.379 . S
C1638 C1635 1.363 . S
C1638 N1636 1.356 . S
C1639 C1633 1.363 . S
C1639 C1634 1.379 . S
C1639 N1637 1.356 . S
N1640 C1632 1.356 . S
N1640 H1646 0.984 . S
N1640 H1647 0.984 . S
N1641 C1634 1.356 . S
N1641 H1644 0.984 . S
N1641 H1645 0.985 . S
H1642 N1637 0.984 . S
H1643 N1637 0.985 1_455 S
H1644 N1641 0.984 . S
H1645 N1641 0.985 . S
H1646 N1640 0.984 . S
H1647 N1640 0.984 . S
H1648 N1636 0.984 . S
H1649 N1636 0.985 . S
C1650 C1651 1.363 . S
C1650 C1656 1.379 . S
C1650 N1658 1.356 . S
C1651 C1650 1.363 . S
C1651 C1657 1.363 . S
C1652 C1653 1.363 . S
C1652 C1657 1.379 . S
C1652 N1659 1.356 . S
C1653 C1652 1.363 . S
C1653 C1656 1.363 . S
N1654 C1656 1.356 . S
N1654 H1666 0.984 . S
N1654 H1667 0.985 . S
N1655 C1657 1.356 . S
N1655 H1660 0.984 . S
N1655 H1661 0.985 . S
C1656 C1650 1.379 . S
C1656 C1653 1.363 . S
C1656 N1654 1.356 . S
C1657 C1651 1.363 . S
C1657 C1652 1.379 . S
C1657 N1655 1.356 . S
N1658 C1650 1.356 . S
N1658 H1664 0.972 1_655 S
N1658 H1665 0.984 . S
N1659 C1652 1.356 . S
N1659 H1662 0.984 . S
N1659 H1663 0.985 . S
H1660 N1655 0.984 . S
H1661 N1655 0.985 . S
H1662 N1659 0.984 . S
H1663 N1659 0.985 . S
H1664 N1658 0.972 1_455 S
H1665 N1658 0.984 . S
H1666 N1654 0.984 . S
H1667 N1654 0.985 . S
C1668 C1669 1.363 . S
C1668 C1674 1.379 . S
C1668 N1676 1.356 . S
C1669 C1668 1.363 . S
C1669 C1675 1.363 . S
C1670 C1671 1.363 . S
C1670 C1675 1.379 . S
C1670 N1677 1.356 . S
C1671 C1670 1.363 . S
C1671 C1674 1.363 . S
N1672 C1674 1.356 . S
N1672 H1684 0.984 . S
N1672 H1685 0.985 . S
N1673 C1675 1.356 . S
N1673 H1678 0.984 . S
N1673 H1679 0.985 . S
C1674 C1668 1.379 . S
C1674 C1671 1.363 . S
C1674 N1672 1.356 . S
C1675 C1669 1.363 . S
C1675 C1670 1.379 . S
C1675 N1673 1.356 . S
N1676 C1668 1.356 . S
N1676 H1682 0.984 . S
N1676 H1683 0.984 . S
N1677 C1670 1.356 . S
N1677 H1680 0.984 . S
N1677 H1681 0.985 . S
H1678 N1673 0.984 . S
H1679 N1673 0.985 . S
H1680 N1677 0.984 . S
H1681 N1677 0.985 . S
H1682 N1676 0.984 . S
H1683 N1676 0.984 . S
H1684 N1672 0.984 . S
H1685 N1672 0.985 . S
C1686 C1687 1.363 . S
C1686 C1692 1.379 1_556 S
C1686 N1694 1.356 . S
C1687 C1686 1.363 . S
C1687 C1693 1.363 . S
C1688 C1689 1.363 . S
C1688 C1693 1.379 1_554 S
C1688 N1695 1.356 . S
C1689 C1688 1.363 . S
C1689 C1692 1.363 . S
N1690 C1692 1.356 . S
N1690 H1702 0.984 . S
N1690 H1703 0.985 . S
N1691 C1693 1.356 . S
N1691 H1696 0.984 . S
N1691 H1697 0.985 . S
C1692 C1686 1.379 1_554 S
C1692 C1689 1.363 . S
C1692 N1690 1.356 . S
C1693 C1687 1.363 . S
C1693 C1688 1.379 1_556 S
C1693 N1691 1.356 . S
N1694 C1686 1.356 . S
N1694 H1700 0.984 . S
N1694 H1701 0.984 . S
N1695 C1688 1.356 . S
N1695 H1698 0.984 . S
N1695 H1699 0.985 . S
H1696 N1691 0.984 . S
H1697 N1691 0.985 . S
H1698 N1695 0.984 . S
H1699 N1695 0.985 . S
H1700 N1694 0.984 . S
H1701 N1694 0.984 . S
H1702 N1690 0.984 . S
H1703 N1690 0.985 . S
C1704 C1705 1.363 . S
C1704 C1710 1.379 . S
C1704 N1712 1.356 1_655 S
C1705 C1704 1.363 . S
C1705 C1711 1.363 . S
C1706 C1707 1.363 . S
C1706 C1711 1.379 . S
C1706 N1713 1.356 . S
C1707 C1706 1.363 . S
C1707 C1710 1.363 . S
N1708 C1710 1.356 . S
N1708 H1720 0.984 . S
N1708 H1721 0.985 . S
N1709 C1711 1.356 . S
N1709 H1714 0.984 . S
N1709 H1715 0.985 . S
C1710 C1704 1.379 . S
C1710 C1707 1.363 . S
C1710 N1708 1.356 . S
C1711 C1705 1.363 . S
C1711 C1706 1.379 . S
C1711 N1709 1.356 . S
N1712 C1704 1.356 1_455 S
N1712 H1718 0.984 . S
N1712 H1719 0.984 . S
N1713 C1706 1.356 . S
N1713 H1716 0.984 . S
N1713 H1717 0.985 . S
H1714 N1709 0.984 . S
H1715 N1709 0.985 . S
H1716 N1713 0.984 . S
H1717 N1713 0.985 . S
H1718 N1712 0.984 . S
H1719 N1712 0.984 . S
H1720 N1708 0.984 . S
H1721 N1708 0.985 . S
C1722 C1723 1.363 . S
C1722 C1728 1.379 . S
C1722 N1730 1.356 . S
C1723 C1722 1.363 . S
C1723 C1729 1.363 . S
C1724 C1725 1.363 . S
C1724 C1729 1.379 . S
C1724 N1731 1.356 . S
C1725 C1724 1.363 . S
C1725 C1728 1.363 . S
N1726 C1728 1.356 . S
N1726 H1738 0.984 . S
N1726 H1739 0.985 . S
N1727 C1729 1.356 . S
N1727 H1732 0.984 . S
N1727 H1733 0.985 . S
C1728 C1722 1.379 . S
C1728 C1725 1.363 . S
C1728 N1726 1.356 . S
C1729 C1723 1.363 . S
C1729 C1724 1.379 . S
C1729 N1727 1.356 . S
N1730 C1722 1.356 . S
N1730 H1736 0.984 . S
N1730 H1737 0.984 . S
N1731 C1724 1.356 . S
N1731 H1734 0.984 . S
N1731 H1735 0.985 . S
H1732 N1727 0.984 . S
H1733 N1727 0.985 . S
H1734 N1731 0.984 . S
H1735 N1731 0.985 . S
H1736 N1730 0.984 . S
H1737 N1730 0.984 . S
H1738 N1726 0.984 . S
H1739 N1726 0.985 . S
C1740 C1741 1.363 . S
C1740 C1746 1.379 . S
C1740 N1748 1.356 . S
C1741 C1740 1.363 . S
C1741 C1747 1.363 . S
C1742 C1743 1.363 . S
C1742 C1747 1.379 . S
C1742 N1749 1.356 . S
C1743 C1742 1.363 . S
C1743 C1746 1.363 . S
N1744 C1746 1.356 . S
N1744 H1756 0.984 . S
N1744 H1757 0.985 . S
N1745 C1747 1.356 . S
N1745 H1750 0.984 . S
N1745 H1751 0.985 . S
C1746 C1740 1.379 . S
C1746 C1743 1.363 . S
C1746 N1744 1.356 . S
C1747 C1741 1.363 . S
C1747 C1742 1.379 . S
C1747 N1745 1.356 . S
N1748 C1740 1.356 . S
N1748 H1754 0.984 . S
N1748 H1755 0.984 . S
N1749 C1742 1.356 . S
N1749 H1752 0.984 . S
N1749 H1753 0.985 . S
H1750 N1745 0.984 . S
H1751 N1745 0.985 . S
H1752 N1749 0.984 . S
H1753 N1749 0.985 . S
H1754 N1748 0.984 . S
H1755 N1748 0.984 . S
H1756 N1744 0.984 . S
H1757 N1744 0.985 . S
C1758 C1759 1.363 . S
C1758 C1764 1.379 . S
C1758 N1766 1.356 . S
C1759 C1758 1.363 . S
C1759 C1765 1.363 . S
C1760 C1761 1.363 . S
C1760 C1765 1.379 1_556 S
C1760 N1767 1.356 . S
C1761 C1760 1.363 . S
C1761 C1764 1.363 1_556 S
N1762 C1764 1.356 1_556 S
N1762 H1774 0.984 1_556 S
N1762 H1775 0.985 . S
N1763 C1765 1.356 . S
N1763 H1768 0.984 . S
N1763 H1769 0.985 . S
C1764 C1758 1.379 . S
C1764 C1761 1.363 1_554 S
C1764 N1762 1.356 1_554 S
C1765 C1759 1.363 . S
C1765 C1760 1.379 1_554 S
C1765 N1763 1.356 . S
N1766 C1758 1.356 . S
N1766 H1772 0.984 . S
N1766 H1773 0.984 . S
N1767 C1760 1.356 . S
N1767 H1770 0.984 . S
N1767 H1771 0.985 . S
H1768 N1763 0.984 . S
H1769 N1763 0.985 . S
H1770 N1767 0.984 . S
H1771 N1767 0.985 . S
H1772 N1766 0.984 . S
H1773 N1766 0.984 . S
H1774 N1762 0.984 1_554 S
H1775 N1762 0.985 . S
C1776 C1777 1.363 1_565 S
C1776 C1782 1.379 . S
C1776 N1784 1.356 . S
C1777 C1776 1.363 1_545 S
C1777 C1783 1.363 . S
C1778 C1779 1.363 1_545 S
C1778 C1783 1.379 . S
C1778 N1785 1.356 . S
C1779 C1778 1.363 1_565 S
C1779 C1782 1.363 . S
N1780 C1782 1.356 . S
N1780 H1792 0.984 . S
N1780 H1793 0.985 . S
N1781 C1783 1.356 . S
N1781 H1786 0.984 . S
N1781 H1787 0.985 . S
C1782 C1776 1.379 . S
C1782 C1779 1.363 . S
C1782 N1780 1.356 . S
C1783 C1777 1.363 . S
C1783 C1778 1.379 . S
C1783 N1781 1.356 . S
N1784 C1776 1.356 . S
N1784 H1790 0.984 . S
N1784 H1791 0.984 . S
N1785 C1778 1.356 . S
N1785 H1788 0.984 1_545 S
N1785 H1789 0.985 . S
H1786 N1781 0.984 . S
H1787 N1781 0.985 . S
H1788 N1785 0.984 1_565 S
H1789 N1785 0.985 . S
H1790 N1784 0.984 . S
H1791 N1784 0.984 . S
H1792 N1780 0.984 . S
H1793 N1780 0.985 . S
C1794 C1795 1.363 . S
C1794 C1800 1.379 . S
C1794 N1802 1.356 1_545 S
C1795 C1794 1.363 . S
C1795 C1801 1.363 . S
C1796 C1797 1.363 . S
C1796 C1801 1.379 . S
C1796 N1803 1.356 . S
C1797 C1796 1.363 . S
C1797 C1800 1.363 . S
N1798 C1800 1.356 . S
N1798 H1810 0.984 . S
N1798 H1811 0.985 . S
N1799 C1801 1.356 . S
N1799 H1804 0.984 1_545 S
N1799 H1805 0.985 . S
C1800 C1794 1.379 . S
C1800 C1797 1.363 . S
C1800 N1798 1.356 . S
C1801 C1795 1.363 . S
C1801 C1796 1.379 . S
C1801 N1799 1.356 . S
N1802 C1794 1.356 1_565 S
N1802 H1808 0.984 . S
N1802 H1809 0.984 . S
N1803 C1796 1.356 . S
N1803 H1806 0.984 . S
N1803 H1807 0.985 . S
H1804 N1799 0.984 1_565 S
H1805 N1799 0.985 . S
H1806 N1803 0.984 . S
H1807 N1803 0.985 . S
H1808 N1802 0.984 . S
H1809 N1802 0.984 . S
H1810 N1798 0.984 . S
H1811 N1798 0.985 . S
C1812 C1813 1.363 . S
C1812 C1818 1.379 . S
C1812 N1820 1.356 . S
C1813 C1812 1.363 . S
C1813 C1819 1.363 . S
C1814 C1815 1.363 . S
C1814 C1819 1.379 . S
C1814 N1821 1.356 . S
C1815 C1814 1.363 . S
C1815 C1818 1.363 . S
N1816 C1818 1.356 . S
N1816 H1828 0.984 . S
N1816 H1829 0.985 . S
N1817 C1819 1.356 . S
N1817 H1822 0.984 . S
N1817 H1823 0.985 . S
C1818 C1812 1.379 . S
C1818 C1815 1.363 . S
C1818 N1816 1.356 . S
C1819 C1813 1.363 . S
C1819 C1814 1.379 . S
C1819 N1817 1.356 . S
N1820 C1812 1.356 . S
N1820 H1826 0.984 . S
N1820 H1827 0.984 . S
N1821 C1814 1.356 . S
N1821 H1824 0.984 . S
N1821 H1825 0.985 . S
H1822 N1817 0.984 . S
H1823 N1817 0.985 . S
H1824 N1821 0.984 . S
H1825 N1821 0.985 . S
H1826 N1820 0.984 . S
H1827 N1820 0.984 . S
H1828 N1816 0.984 . S
H1829 N1816 0.985 . S
C1830 C1831 1.363 . S
C1830 C1836 1.379 . S
C1830 N1838 1.356 . S
C1831 C1830 1.363 . S
C1831 C1837 1.363 . S
C1832 C1833 1.363 . S
C1832 C1837 1.379 . S
C1832 N1839 1.356 1_545 S
C1833 C1832 1.363 . S
C1833 C1836 1.363 . S
N1834 C1836 1.355 1_565 S
N1834 H1846 0.984 1_564 S
N1834 H1847 0.986 . S
N1835 C1837 1.356 . S
N1835 H1840 0.984 . S
N1835 H1841 0.985 . S
C1836 C1830 1.379 . S
C1836 C1833 1.363 . S
C1836 N1834 1.355 1_545 S
C1837 C1831 1.363 . S
C1837 C1832 1.379 . S
C1837 N1835 1.356 . S
N1838 C1830 1.356 . S
N1838 H1844 0.984 1_554 S
N1838 H1845 0.984 . S
N1839 C1832 1.356 1_565 S
N1839 H1842 0.984 . S
N1839 H1843 0.985 . S
H1840 N1835 0.984 . S
H1841 N1835 0.985 . S
H1842 N1839 0.984 . S
H1843 N1839 0.985 . S
H1844 N1838 0.984 1_556 S
H1845 N1838 0.984 . S
H1846 N1834 0.984 1_546 S
H1847 N1834 0.986 . S
C1848 C1849 1.363 . S
C1848 C1854 1.379 . S
C1848 N1856 1.356 . S
C1849 C1848 1.363 . S
C1849 C1855 1.363 . S
C1850 C1851 1.363 . S
C1850 C1855 1.379 . S
C1850 N1857 1.356 . S
C1851 C1850 1.363 . S
C1851 C1854 1.363 . S
N1852 C1854 1.356 . S
N1852 H1864 0.984 . S
N1852 H1865 0.985 . S
N1853 C1855 1.356 . S
N1853 H1858 0.984 . S
N1853 H1859 0.985 . S
C1854 C1848 1.379 . S
C1854 C1851 1.363 . S
C1854 N1852 1.356 . S
C1855 C1849 1.363 . S
C1855 C1850 1.379 . S
C1855 N1853 1.356 . S
N1856 C1848 1.356 . S
N1856 H1862 0.984 . S
N1856 H1863 0.984 . S
N1857 C1850 1.356 . S
N1857 H1860 0.984 . S
N1857 H1861 0.985 . S
H1858 N1853 0.984 . S
H1859 N1853 0.985 . S
H1860 N1857 0.984 . S
H1861 N1857 0.985 . S
H1862 N1856 0.984 . S
H1863 N1856 0.984 . S
H1864 N1852 0.984 . S
H1865 N1852 0.985 . S
C1866 C1867 1.363 1_545 S
C1866 C1872 1.379 . S
C1866 N1874 1.356 1_545 S
C1867 C1866 1.363 1_565 S
C1867 C1873 1.363 1_565 S
C1868 C1869 1.363 . S
C1868 C1873 1.379 . S
C1868 N1875 1.356 . S
C1869 C1868 1.363 . S
C1869 C1872 1.363 . S
N1870 C1872 1.356 . S
N1870 H1882 0.984 . S
N1870 H1883 0.985 . S
N1871 C1873 1.356 . S
N1871 H1876 0.984 1_545 S
N1871 H1877 0.985 . S
C1872 C1866 1.379 . S
C1872 C1869 1.363 . S
C1872 N1870 1.356 . S
C1873 C1867 1.363 1_545 S
C1873 C1868 1.379 . S
C1873 N1871 1.356 . S
N1874 C1866 1.356 1_565 S
N1874 H1880 0.984 . S
N1874 H1881 0.984 . S
N1875 C1868 1.356 . S
N1875 H1878 0.984 . S
N1875 H1879 0.985 . S
H1876 N1871 0.984 1_565 S
H1877 N1871 0.985 . S
H1878 N1875 0.984 . S
H1879 N1875 0.985 . S
H1880 N1874 0.984 . S
H1881 N1874 0.984 . S
H1882 N1870 0.984 . S
H1883 N1870 0.985 . S
C1884 C1885 1.363 . S
C1884 C1890 1.379 . S
C1884 N1892 1.356 . S
C1885 C1884 1.363 . S
C1885 C1891 1.363 . S
C1886 C1887 1.363 . S
C1886 C1891 1.379 . S
C1886 N1893 1.356 . S
C1887 C1886 1.363 . S
C1887 C1890 1.363 . S
N1888 C1890 1.356 . S
N1888 H1900 0.984 . S
N1888 H1901 0.985 . S
N1889 C1891 1.356 . S
N1889 H1894 0.984 . S
N1889 H1895 0.985 . S
C1890 C1884 1.379 . S
C1890 C1887 1.363 . S
C1890 N1888 1.356 . S
C1891 C1885 1.363 . S
C1891 C1886 1.379 . S
C1891 N1889 1.356 . S
N1892 C1884 1.356 . S
N1892 H1898 0.979 1_565 S
N1892 H1899 0.984 . S
N1893 C1886 1.356 . S
N1893 H1896 0.984 . S
N1893 H1897 0.985 . S
H1894 N1889 0.984 . S
H1895 N1889 0.985 . S
H1896 N1893 0.984 . S
H1897 N1893 0.985 . S
H1898 N1892 0.979 1_545 S
H1899 N1892 0.984 . S
H1900 N1888 0.984 . S
H1901 N1888 0.985 . S
C1902 C1903 1.363 . S
C1902 C1908 1.379 . S
C1902 N1910 1.356 . S
C1903 C1902 1.363 . S
C1903 C1909 1.363 . S
C1904 C1905 1.363 . S
C1904 C1909 1.379 . S
C1904 N1911 1.356 1_545 S
C1905 C1904 1.363 . S
C1905 C1908 1.363 . S
N1906 C1908 1.356 . S
N1906 H1918 0.984 . S
N1906 H1919 0.985 . S
N1907 C1909 1.356 . S
N1907 H1912 0.984 . S
N1907 H1913 0.985 . S
C1908 C1902 1.379 . S
C1908 C1905 1.363 . S
C1908 N1906 1.356 . S
C1909 C1903 1.363 . S
C1909 C1904 1.379 . S
C1909 N1907 1.356 . S
N1910 C1902 1.356 . S
N1910 H1916 0.984 . S
N1910 H1917 0.984 . S
N1911 C1904 1.356 1_565 S
N1911 H1914 0.984 . S
N1911 H1915 0.985 . S
H1912 N1907 0.984 . S
H1913 N1907 0.985 . S
H1914 N1911 0.984 . S
H1915 N1911 0.985 . S
H1916 N1910 0.984 . S
H1917 N1910 0.984 . S
H1918 N1906 0.984 . S
H1919 N1906 0.985 . S
C1920 C1921 1.363 . S
C1920 C1926 1.379 . S
C1920 N1928 1.356 . S
C1921 C1920 1.363 . S
C1921 C1927 1.363 . S
C1922 C1923 1.363 . S
C1922 C1927 1.379 . S
C1922 N1929 1.356 . S
C1923 C1922 1.363 . S
C1923 C1926 1.363 . S
N1924 C1926 1.356 . S
N1924 H1936 0.984 . S
N1924 H1937 0.985 . S
N1925 C1927 1.356 . S
N1925 H1930 0.984 . S
N1925 H1931 0.985 . S
C1926 C1920 1.379 . S
C1926 C1923 1.363 . S
C1926 N1924 1.356 . S
C1927 C1921 1.363 . S
C1927 C1922 1.379 . S
C1927 N1925 1.356 . S
N1928 C1920 1.356 . S
N1928 H1934 0.984 . S
N1928 H1935 0.984 . S
N1929 C1922 1.356 . S
N1929 H1932 0.984 . S
N1929 H1933 0.985 . S
H1930 N1925 0.984 . S
H1931 N1925 0.985 . S
H1932 N1929 0.984 . S
H1933 N1929 0.985 . S
H1934 N1928 0.984 . S
H1935 N1928 0.984 . S
H1936 N1924 0.984 . S
H1937 N1924 0.985 . S
C1938 C1939 1.363 . S
C1938 C1944 1.379 . S
C1938 N1946 1.356 . S
C1939 C1938 1.363 . S
C1939 C1945 1.363 . S
C1940 C1941 1.363 . S
C1940 C1945 1.379 . S
C1940 N1947 1.356 . S
C1941 C1940 1.363 . S
C1941 C1944 1.363 . S
N1942 C1944 1.356 . S
N1942 H1954 0.984 . S
N1942 H1955 0.985 . S
N1943 C1945 1.356 . S
N1943 H1948 0.984 . S
N1943 H1949 0.985 . S
C1944 C1938 1.379 . S
C1944 C1941 1.363 . S
C1944 N1942 1.356 . S
C1945 C1939 1.363 . S
C1945 C1940 1.379 . S
C1945 N1943 1.356 . S
N1946 C1938 1.356 . S
N1946 H1952 0.984 . S
N1946 H1953 0.984 . S
N1947 C1940 1.356 . S
N1947 H1950 0.984 . S
N1947 H1951 0.985 . S
H1948 N1943 0.984 . S
H1949 N1943 0.985 . S
H1950 N1947 0.984 . S
H1951 N1947 0.985 . S
H1952 N1946 0.984 . S
H1953 N1946 0.984 . S
H1954 N1942 0.984 . S
H1955 N1942 0.985 . S
C1956 C1957 1.363 . S
C1956 C1962 1.379 1_655 S
C1956 N1964 1.356 . S
C1957 C1956 1.363 . S
C1957 C1963 1.363 . S
C1958 C1959 1.363 . S
C1958 C1963 1.379 1_455 S
C1958 N1965 1.356 . S
C1959 C1958 1.363 . S
C1959 C1962 1.363 . S
N1960 C1962 1.356 . S
N1960 H1972 0.984 . S
N1960 H1973 0.985 . S
N1961 C1963 1.356 . S
N1961 H1966 0.984 . S
N1961 H1967 0.985 . S
C1962 C1956 1.379 1_455 S
C1962 C1959 1.363 . S
C1962 N1960 1.356 . S
C1963 C1957 1.363 . S
C1963 C1958 1.379 1_655 S
C1963 N1961 1.356 . S
N1964 C1956 1.356 . S
N1964 H1970 0.984 . S
N1964 H1971 0.984 . S
N1965 C1958 1.356 . S
N1965 H1968 0.984 . S
N1965 H1969 0.985 . S
H1966 N1961 0.984 . S
H1967 N1961 0.985 . S
H1968 N1965 0.984 . S
H1969 N1965 0.985 . S
H1970 N1964 0.984 . S
H1971 N1964 0.984 . S
H1972 N1960 0.984 . S
H1973 N1960 0.985 . S
C1974 C1975 1.363 . S
C1974 C1980 1.379 . S
C1974 N1982 1.356 . S
C1975 C1974 1.363 . S
C1975 C1981 1.363 . S
C1976 C1977 1.363 . S
C1976 C1981 1.379 . S
C1976 N1983 1.356 . S
C1977 C1976 1.363 . S
C1977 C1980 1.363 . S
N1978 C1980 1.356 . S
N1978 H1990 0.984 . S
N1978 H1991 0.985 . S
N1979 C1981 1.356 . S
N1979 H1984 0.984 . S
N1979 H1985 0.985 . S
C1980 C1974 1.379 . S
C1980 C1977 1.363 . S
C1980 N1978 1.356 . S
C1981 C1975 1.363 . S
C1981 C1976 1.379 . S
C1981 N1979 1.356 . S
N1982 C1974 1.356 . S
N1982 H1988 0.984 . S
N1982 H1989 0.984 . S
N1983 C1976 1.356 . S
N1983 H1986 0.984 . S
N1983 H1987 0.985 . S
H1984 N1979 0.984 . S
H1985 N1979 0.985 . S
H1986 N1983 0.984 . S
H1987 N1983 0.985 . S
H1988 N1982 0.984 . S
H1989 N1982 0.984 . S
H1990 N1978 0.984 . S
H1991 N1978 0.985 . S
C1992 C1993 1.363 1_565 S
C1992 C1998 1.379 1_455 S
C1992 N2000 1.356 . S
C1993 C1992 1.363 1_545 S
C1993 C1999 1.363 . S
C1994 C1995 1.363 1_455 S
C1994 C1999 1.379 . S
C1994 N2001 1.356 1_455 S
C1995 C1994 1.363 1_655 S
C1995 C1998 1.363 1_545 S
N1996 C1998 1.356 . S
N1996 H2008 0.984 . S
N1996 H2009 0.985 . S
N1997 C1999 1.356 . S
N1997 H2002 0.984 . S
N1997 H2003 0.985 . S
C1998 C1992 1.379 1_655 S
C1998 C1995 1.363 1_565 S
C1998 N1996 1.356 . S
C1999 C1993 1.363 . S
C1999 C1994 1.379 . S
C1999 N1997 1.356 . S
N2000 C1992 1.356 . S
N2000 H2006 0.984 . S
N2000 H2007 0.984 . S
N2001 C1994 1.356 1_655 S
N2001 H2004 0.984 . S
N2001 H2005 0.985 1_655 S
H2002 N1997 0.984 . S
H2003 N1997 0.985 . S
H2004 N2001 0.984 . S
H2005 N2001 0.985 1_455 S
H2006 N2000 0.984 . S
H2007 N2000 0.984 . S
H2008 N1996 0.984 . S
H2009 N1996 0.985 . S
C2010 C2011 1.363 . S
C2010 C2016 1.379 . S
C2010 N2018 1.356 . S
C2011 C2010 1.363 . S
C2011 C2017 1.363 . S
C2012 C2013 1.363 . S
C2012 C2017 1.379 . S
C2012 N2019 1.356 . S
C2013 C2012 1.363 . S
C2013 C2016 1.363 . S
N2014 C2016 1.356 . S
N2014 H2026 0.984 . S
N2014 H2027 0.985 . S
N2015 C2017 1.356 . S
N2015 H2020 0.984 . S
N2015 H2021 0.985 . S
C2016 C2010 1.379 . S
C2016 C2013 1.363 . S
C2016 N2014 1.356 . S
C2017 C2011 1.363 . S
C2017 C2012 1.379 . S
C2017 N2015 1.356 . S
N2018 C2010 1.356 . S
N2018 H2024 0.984 . S
N2018 H2025 0.984 . S
N2019 C2012 1.356 . S
N2019 H2022 0.984 . S
N2019 H2023 0.985 . S
H2020 N2015 0.984 . S
H2021 N2015 0.985 . S
H2022 N2019 0.984 . S
H2023 N2019 0.985 . S
H2024 N2018 0.984 . S
H2025 N2018 0.984 . S
H2026 N2014 0.984 . S
H2027 N2014 0.985 . S
C2028 C2029 1.363 . S
C2028 C2034 1.379 1_655 S
C2028 N2036 1.356 . S
C2029 C2028 1.363 . S
C2029 C2035 1.363 . S
C2030 C2031 1.363 . S
C2030 C2035 1.379 1_455 S
C2030 N2037 1.356 . S
C2031 C2030 1.363 . S
C2031 C2034 1.363 . S
N2032 C2034 1.356 . S
N2032 H2044 0.984 . S
N2032 H2045 0.985 . S
N2033 C2035 1.356 . S
N2033 H2038 0.984 . S
N2033 H2039 0.985 . S
C2034 C2028 1.379 1_455 S
C2034 C2031 1.363 . S
C2034 N2032 1.356 . S
C2035 C2029 1.363 . S
C2035 C2030 1.379 1_655 S
C2035 N2033 1.356 . S
N2036 C2028 1.356 . S
N2036 H2042 0.984 . S
N2036 H2043 0.984 . S
N2037 C2030 1.356 . S
N2037 H2040 0.984 . S
N2037 H2041 0.985 . S
H2038 N2033 0.984 . S
H2039 N2033 0.985 . S
H2040 N2037 0.984 . S
H2041 N2037 0.985 . S
H2042 N2036 0.984 . S
H2043 N2036 0.984 . S
H2044 N2032 0.984 . S
H2045 N2032 0.985 . S
C2046 C2047 1.363 . S
C2046 C2052 1.379 . S
C2046 N2054 1.356 . S
C2047 C2046 1.363 . S
C2047 C2053 1.363 . S
C2048 C2049 1.363 . S
C2048 C2053 1.379 . S
C2048 N2055 1.356 . S
C2049 C2048 1.363 . S
C2049 C2052 1.363 . S
N2050 C2052 1.356 . S
N2050 H2062 0.984 . S
N2050 H2063 0.985 . S
N2051 C2053 1.356 . S
N2051 H2056 0.984 . S
N2051 H2057 0.985 . S
C2052 C2046 1.379 . S
C2052 C2049 1.363 . S
C2052 N2050 1.356 . S
C2053 C2047 1.363 . S
C2053 C2048 1.379 . S
C2053 N2051 1.356 . S
N2054 C2046 1.356 . S
N2054 H2060 0.984 . S
N2054 H2061 0.984 . S
N2055 C2048 1.356 . S
N2055 H2058 0.984 . S
N2055 H2059 0.985 . S
H2056 N2051 0.984 . S
H2057 N2051 0.985 . S
H2058 N2055 0.984 . S
H2059 N2055 0.985 . S
H2060 N2054 0.984 . S
H2061 N2054 0.984 . S
H2062 N2050 0.984 . S
H2063 N2050 0.985 . S
C2064 C2065 1.363 . S
C2064 C2070 1.379 . S
C2064 N2072 1.356 . S
C2065 C2064 1.363 . S
C2065 C2071 1.363 . S
C2066 C2067 1.363 . S
C2066 C2071 1.379 . S
C2066 N2073 1.356 . S
C2067 C2066 1.363 . S
C2067 C2070 1.363 . S
N2068 C2070 1.356 . S
N2068 H2080 0.984 . S
N2068 H2081 0.985 . S
N2069 C2071 1.356 . S
N2069 H2074 0.984 . S
N2069 H2075 0.985 . S
C2070 C2064 1.379 . S
C2070 C2067 1.363 . S
C2070 N2068 1.356 . S
C2071 C2065 1.363 . S
C2071 C2066 1.379 . S
C2071 N2069 1.356 . S
N2072 C2064 1.356 . S
N2072 H2078 0.984 . S
N2072 H2079 0.984 . S
N2073 C2066 1.356 . S
N2073 H2076 0.984 . S
N2073 H2077 0.985 . S
H2074 N2069 0.984 . S
H2075 N2069 0.985 . S
H2076 N2073 0.984 . S
H2077 N2073 0.985 . S
H2078 N2072 0.984 . S
H2079 N2072 0.984 . S
H2080 N2068 0.984 . S
H2081 N2068 0.985 . S
C2082 C2083 1.363 . S
C2082 C2088 1.379 . S
C2082 N2090 1.356 . S
C2083 C2082 1.363 . S
C2083 C2089 1.363 . S
C2084 C2085 1.363 1_554 S
C2084 C2089 1.379 . S
C2084 N2091 1.356 1_554 S
C2085 C2084 1.363 1_556 S
C2085 C2088 1.363 1_556 S
N2086 C2088 1.356 1_556 S
N2086 H2098 0.991 . S
N2086 H2099 0.985 . S
N2087 C2089 1.356 . S
N2087 H2092 0.984 . S
N2087 H2093 0.985 . S
C2088 C2082 1.379 . S
C2088 C2085 1.363 1_554 S
C2088 N2086 1.356 1_554 S
C2089 C2083 1.363 . S
C2089 C2084 1.379 . S
C2089 N2087 1.356 . S
N2090 C2082 1.356 . S
N2090 H2096 0.984 . S
N2090 H2097 0.984 . S
N2091 C2084 1.356 1_556 S
N2091 H2094 0.984 . S
N2091 H2095 0.985 . S
H2092 N2087 0.984 . S
H2093 N2087 0.985 . S
H2094 N2091 0.984 . S
H2095 N2091 0.985 . S
H2096 N2090 0.984 . S
H2097 N2090 0.984 . S
H2098 N2086 0.991 . S
H2099 N2086 0.985 . S
C2100 C2101 1.363 . S
C2100 C2106 1.379 . S
C2100 N2108 1.356 . S
C2101 C2100 1.363 . S
C2101 C2107 1.363 . S
C2102 C2103 1.363 . S
C2102 C2107 1.379 . S
C2102 N2109 1.356 . S
C2103 C2102 1.363 . S
C2103 C2106 1.363 . S
N2104 C2106 1.356 . S
N2104 H2116 0.984 . S
N2104 H2117 0.985 . S
N2105 C2107 1.356 . S
N2105 H2110 0.984 . S
N2105 H2111 0.985 1_655 S
C2106 C2100 1.379 . S
C2106 C2103 1.363 . S
C2106 N2104 1.356 . S
C2107 C2101 1.363 . S
C2107 C2102 1.379 . S
C2107 N2105 1.356 . S
N2108 C2100 1.356 . S
N2108 H2114 0.984 . S
N2108 H2115 0.984 . S
N2109 C2102 1.356 . S
N2109 H2112 0.984 . S
N2109 H2113 0.985 . S
H2110 N2105 0.984 . S
H2111 N2105 0.985 1_455 S
H2112 N2109 0.984 . S
H2113 N2109 0.985 . S
H2114 N2108 0.984 . S
H2115 N2108 0.984 . S
H2116 N2104 0.984 . S
H2117 N2104 0.985 . S
C2118 C2119 1.363 . S
C2118 C2124 1.379 . S
C2118 N2126 1.356 . S
C2119 C2118 1.363 . S
C2119 C2125 1.363 . S
C2120 C2121 1.363 . S
C2120 C2125 1.379 . S
C2120 N2127 1.356 . S
C2121 C2120 1.363 . S
C2121 C2124 1.363 . S
N2122 C2124 1.356 . S
N2122 H2134 0.984 . S
N2122 H2135 0.985 . S
N2123 C2125 1.356 . S
N2123 H2128 0.984 . S
N2123 H2129 0.985 . S
C2124 C2118 1.379 . S
C2124 C2121 1.363 . S
C2124 N2122 1.356 . S
C2125 C2119 1.363 . S
C2125 C2120 1.379 . S
C2125 N2123 1.356 . S
N2126 C2118 1.356 . S
N2126 H2132 0.984 . S
N2126 H2133 0.984 . S
N2127 C2120 1.356 . S
N2127 H2130 0.984 . S
N2127 H2131 0.985 . S
H2128 N2123 0.984 . S
H2129 N2123 0.985 . S
H2130 N2127 0.984 . S
H2131 N2127 0.985 . S
H2132 N2126 0.984 . S
H2133 N2126 0.984 . S
H2134 N2122 0.984 . S
H2135 N2122 0.985 . S
C2136 C2137 1.363 . S
C2136 C2142 1.379 . S
C2136 N2144 1.356 . S
C2137 C2136 1.363 . S
C2137 C2143 1.363 . S
C2138 C2139 1.363 . S
C2138 C2143 1.379 . S
C2138 N2145 1.356 . S
C2139 C2138 1.363 . S
C2139 C2142 1.363 . S
N2140 C2142 1.356 . S
N2140 H2152 0.984 . S
N2140 H2153 0.985 . S
N2141 C2143 1.356 . S
N2141 H2146 0.984 . S
N2141 H2147 0.985 . S
C2142 C2136 1.379 . S
C2142 C2139 1.363 . S
C2142 N2140 1.356 . S
C2143 C2137 1.363 . S
C2143 C2138 1.379 . S
C2143 N2141 1.356 . S
N2144 C2136 1.356 . S
N2144 H2150 0.984 . S
N2144 H2151 0.984 . S
N2145 C2138 1.356 . S
N2145 H2148 0.984 . S
N2145 H2149 0.985 . S
H2146 N2141 0.984 . S
H2147 N2141 0.985 . S
H2148 N2145 0.984 . S
H2149 N2145 0.985 . S
H2150 N2144 0.984 . S
H2151 N2144 0.984 . S
H2152 N2140 0.984 . S
H2153 N2140 0.985 . S
C2154 C2155 1.363 1_454 S
C2154 C2160 1.379 . S
C2154 N2162 1.356 1_554 S
C2155 C2154 1.363 1_656 S
C2155 C2161 1.363 1_556 S
C2156 C2157 1.363 . S
C2156 C2161 1.379 . S
C2156 N2163 1.356 . S
C2157 C2156 1.363 . S
C2157 C2160 1.363 1_655 S
N2158 C2160 1.356 . S
N2158 H2170 0.984 . S
N2158 H2171 0.985 . S
N2159 C2161 1.356 1_556 S
N2159 H2164 0.984 . S
N2159 H2165 0.985 . S
C2160 C2154 1.379 . S
C2160 C2157 1.363 1_455 S
C2160 N2158 1.356 . S
C2161 C2155 1.363 1_554 S
C2161 C2156 1.379 . S
C2161 N2159 1.356 1_554 S
N2162 C2154 1.356 1_556 S
N2162 H2168 0.984 . S
N2162 H2169 0.984 . S
N2163 C2156 1.356 . S
N2163 H2166 0.984 . S
N2163 H2167 0.985 . S
H2164 N2159 0.984 . S
H2165 N2159 0.985 . S
H2166 N2163 0.984 . S
H2167 N2163 0.985 . S
H2168 N2162 0.984 . S
H2169 N2162 0.984 . S
H2170 N2158 0.984 . S
H2171 N2158 0.985 . S
C2172 C2173 1.363 . S
C2172 C2178 1.379 . S
C2172 N2180 1.356 . S
C2173 C2172 1.363 . S
C2173 C2179 1.363 . S
C2174 C2175 1.363 . S
C2174 C2179 1.379 . S
C2174 N2181 1.356 . S
C2175 C2174 1.363 . S
C2175 C2178 1.363 . S
N2176 C2178 1.356 . S
N2176 H2188 0.984 . S
N2176 H2189 0.985 . S
N2177 C2179 1.356 . S
N2177 H2182 0.984 . S
N2177 H2183 0.985 . S
C2178 C2172 1.379 . S
C2178 C2175 1.363 . S
C2178 N2176 1.356 . S
C2179 C2173 1.363 . S
C2179 C2174 1.379 . S
C2179 N2177 1.356 . S
N2180 C2172 1.356 . S
N2180 H2186 0.984 . S
N2180 H2187 0.984 . S
N2181 C2174 1.356 . S
N2181 H2184 0.984 . S
N2181 H2185 0.985 . S
H2182 N2177 0.984 . S
H2183 N2177 0.985 . S
H2184 N2181 0.984 . S
H2185 N2181 0.985 . S
H2186 N2180 0.984 . S
H2187 N2180 0.984 . S
H2188 N2176 0.984 . S
H2189 N2176 0.985 . S
C2190 C2191 1.363 . S
C2190 C2196 1.379 . S
C2190 N2198 1.356 . S
C2191 C2190 1.363 . S
C2191 C2197 1.363 . S
C2192 C2193 1.363 . S
C2192 C2197 1.379 . S
C2192 N2199 1.356 . S
C2193 C2192 1.363 . S
C2193 C2196 1.363 . S
N2194 C2196 1.356 . S
N2194 H2206 0.984 . S
N2194 H2207 0.985 . S
N2195 C2197 1.356 . S
N2195 H2200 0.984 . S
N2195 H2201 0.985 . S
C2196 C2190 1.379 . S
C2196 C2193 1.363 . S
C2196 N2194 1.356 . S
C2197 C2191 1.363 . S
C2197 C2192 1.379 . S
C2197 N2195 1.356 . S
N2198 C2190 1.356 . S
N2198 H2204 0.984 . S
N2198 H2205 0.984 . S
N2199 C2192 1.356 . S
N2199 H2202 0.984 . S
N2199 H2203 0.985 . S
H2200 N2195 0.984 . S
H2201 N2195 0.985 . S
H2202 N2199 0.984 . S
H2203 N2199 0.985 . S
H2204 N2198 0.984 . S
H2205 N2198 0.984 . S
H2206 N2194 0.984 . S
H2207 N2194 0.985 . S
C2208 C2209 1.363 . S
C2208 C2214 1.379 . S
C2208 N2216 1.356 . S
C2209 C2208 1.363 . S
C2209 C2215 1.363 . S
C2210 C2211 1.363 . S
C2210 C2215 1.379 . S
C2210 N2217 1.356 . S
C2211 C2210 1.363 . S
C2211 C2214 1.363 . S
N2212 C2214 1.356 . S
N2212 H2224 0.984 . S
N2212 H2225 0.985 . S
N2213 C2215 1.356 . S
N2213 H2218 0.984 . S
N2213 H2219 0.985 . S
C2214 C2208 1.379 . S
C2214 C2211 1.363 . S
C2214 N2212 1.356 . S
C2215 C2209 1.363 . S
C2215 C2210 1.379 . S
C2215 N2213 1.356 . S
N2216 C2208 1.356 . S
N2216 H2222 0.984 . S
N2216 H2223 0.984 . S
N2217 C2210 1.356 . S
N2217 H2220 0.984 . S
N2217 H2221 0.985 . S
H2218 N2213 0.984 . S
H2219 N2213 0.985 . S
H2220 N2217 0.984 . S
H2221 N2217 0.985 . S
H2222 N2216 0.984 . S
H2223 N2216 0.984 . S
H2224 N2212 0.984 . S
H2225 N2212 0.985 . S
C2226 C2227 1.363 . S
C2226 C2232 1.379 . S
C2226 N2234 1.356 1_556 S
C2227 C2226 1.363 . S
C2227 C2233 1.363 . S
C2228 C2229 1.363 . S
C2228 C2233 1.379 . S
C2228 N2235 1.356 . S
C2229 C2228 1.363 . S
C2229 C2232 1.363 . S
N2230 C2232 1.356 1_554 S
N2230 H2242 0.984 . S
N2230 H2243 0.985 . S
N2231 C2233 1.356 . S
N2231 H2236 0.984 . S
N2231 H2237 0.985 . S
C2232 C2226 1.379 . S
C2232 C2229 1.363 . S
C2232 N2230 1.356 1_556 S
C2233 C2227 1.363 . S
C2233 C2228 1.379 . S
C2233 N2231 1.356 . S
N2234 C2226 1.356 1_554 S
N2234 H2240 0.984 . S
N2234 H2241 0.984 . S
N2235 C2228 1.356 . S
N2235 H2238 0.984 . S
N2235 H2239 0.985 . S
H2236 N2231 0.984 . S
H2237 N2231 0.985 . S
H2238 N2235 0.984 . S
H2239 N2235 0.985 . S
H2240 N2234 0.984 . S
H2241 N2234 0.984 . S
H2242 N2230 0.984 . S
H2243 N2230 0.985 . S
C2244 C2245 1.363 . S
C2244 C2250 1.379 . S
C2244 N2252 1.356 . S
C2245 C2244 1.363 . S
C2245 C2251 1.363 . S
C2246 C2247 1.363 . S
C2246 C2251 1.379 . S
C2246 N2253 1.356 . S
C2247 C2246 1.363 . S
C2247 C2250 1.363 . S
N2248 C2250 1.356 . S
N2248 H2260 0.984 . S
N2248 H2261 0.985 . S
N2249 C2251 1.356 . S
N2249 H2254 0.984 . S
N2249 H2255 0.985 . S
C2250 C2244 1.379 . S
C2250 C2247 1.363 . S
C2250 N2248 1.356 . S
C2251 C2245 1.363 . S
C2251 C2246 1.379 . S
C2251 N2249 1.356 . S
N2252 C2244 1.356 . S
N2252 H2258 0.984 . S
N2252 H2259 0.984 . S
N2253 C2246 1.356 . S
N2253 H2256 0.984 . S
N2253 H2257 0.985 . S
H2254 N2249 0.984 . S
H2255 N2249 0.985 . S
H2256 N2253 0.984 . S
H2257 N2253 0.985 . S
H2258 N2252 0.984 . S
H2259 N2252 0.984 . S
H2260 N2248 0.984 . S
H2261 N2248 0.985 . S
C2262 C2263 1.363 . S
C2262 C2268 1.379 . S
C2262 N2270 1.356 . S
C2263 C2262 1.363 . S
C2263 C2269 1.363 . S
C2264 C2265 1.363 . S
C2264 C2269 1.379 . S
C2264 N2271 1.356 . S
C2265 C2264 1.363 . S
C2265 C2268 1.363 . S
N2266 C2268 1.356 . S
N2266 H2278 0.984 . S
N2266 H2279 0.985 . S
N2267 C2269 1.356 . S
N2267 H2272 0.984 . S
N2267 H2273 0.985 . S
C2268 C2262 1.379 . S
C2268 C2265 1.363 . S
C2268 N2266 1.356 . S
C2269 C2263 1.363 . S
C2269 C2264 1.379 . S
C2269 N2267 1.356 . S
N2270 C2262 1.356 . S
N2270 H2276 0.984 . S
N2270 H2277 0.984 . S
N2271 C2264 1.356 . S
N2271 H2274 0.984 . S
N2271 H2275 0.985 . S
H2272 N2267 0.984 . S
H2273 N2267 0.985 . S
H2274 N2271 0.984 . S
H2275 N2271 0.985 . S
H2276 N2270 0.984 . S
H2277 N2270 0.984 . S
H2278 N2266 0.984 . S
H2279 N2266 0.985 . S
C2280 C2281 1.363 . S
C2280 C2286 1.379 . S
C2280 N2288 1.356 . S
C2281 C2280 1.363 . S
C2281 C2287 1.363 . S
C2282 C2283 1.363 . S
C2282 C2287 1.379 . S
C2282 N2289 1.356 . S
C2283 C2282 1.363 . S
C2283 C2286 1.363 . S
N2284 C2286 1.356 . S
N2284 H2296 0.984 . S
N2284 H2297 0.985 . S
N2285 C2287 1.356 . S
N2285 H2290 0.984 . S
N2285 H2291 0.985 . S
C2286 C2280 1.379 . S
C2286 C2283 1.363 . S
C2286 N2284 1.356 . S
C2287 C2281 1.363 . S
C2287 C2282 1.379 . S
C2287 N2285 1.356 . S
N2288 C2280 1.356 . S
N2288 H2294 0.984 . S
N2288 H2295 0.984 . S
N2289 C2282 1.356 . S
N2289 H2292 0.984 . S
N2289 H2293 0.985 . S
H2290 N2285 0.984 . S
H2291 N2285 0.985 . S
H2292 N2289 0.984 . S
H2293 N2289 0.985 . S
H2294 N2288 0.984 . S
H2295 N2288 0.984 . S
H2296 N2284 0.984 . S
H2297 N2284 0.985 . S
C2298 C2299 1.363 . S
C2298 C2304 1.379 . S
C2298 N2306 1.356 . S
C2299 C2298 1.363 . S
C2299 C2305 1.363 . S
C2300 C2301 1.363 . S
C2300 C2305 1.379 . S
C2300 N2307 1.356 . S
C2301 C2300 1.363 . S
C2301 C2304 1.363 . S
N2302 C2304 1.356 . S
N2302 H2314 0.984 1_554 S
N2302 H2315 0.985 . S
N2303 C2305 1.356 . S
N2303 H2308 0.984 . S
N2303 H2309 0.985 . S
C2304 C2298 1.379 . S
C2304 C2301 1.363 . S
C2304 N2302 1.356 . S
C2305 C2299 1.363 . S
C2305 C2300 1.379 . S
C2305 N2303 1.356 . S
N2306 C2298 1.356 . S
N2306 H2312 0.984 1_554 S
N2306 H2313 0.984 . S
N2307 C2300 1.356 . S
N2307 H2310 0.984 . S
N2307 H2311 0.985 . S
H2308 N2303 0.984 . S
H2309 N2303 0.985 . S
H2310 N2307 0.984 . S
H2311 N2307 0.985 . S
H2312 N2306 0.984 1_556 S
H2313 N2306 0.984 . S
H2314 N2302 0.984 1_556 S
H2315 N2302 0.985 . S
C2316 C2317 1.363 . S
C2316 C2322 1.379 . S
C2316 N2324 1.356 . S
C2317 C2316 1.363 . S
C2317 C2323 1.363 . S
C2318 C2319 1.363 . S
C2318 C2323 1.379 . S
C2318 N2325 1.356 . S
C2319 C2318 1.363 . S
C2319 C2322 1.363 . S
N2320 C2322 1.356 . S
N2320 H2332 0.984 . S
N2320 H2333 0.985 . S
N2321 C2323 1.356 . S
N2321 H2326 0.984 . S
N2321 H2327 0.985 . S
C2322 C2316 1.379 . S
C2322 C2319 1.363 . S
C2322 N2320 1.356 . S
C2323 C2317 1.363 . S
C2323 C2318 1.379 . S
C2323 N2321 1.356 . S
N2324 C2316 1.356 . S
N2324 H2330 0.984 . S
N2324 H2331 0.984 . S
N2325 C2318 1.356 . S
N2325 H2328 0.984 . S
N2325 H2329 0.985 . S
H2326 N2321 0.984 . S
H2327 N2321 0.985 . S
H2328 N2325 0.984 . S
H2329 N2325 0.985 . S
H2330 N2324 0.984 . S
H2331 N2324 0.984 . S
H2332 N2320 0.984 . S
H2333 N2320 0.985 . S
C2334 C2335 1.363 . S
C2334 C2340 1.379 . S
C2334 N2342 1.356 . S
C2335 C2334 1.363 . S
C2335 C2341 1.363 . S
C2336 C2337 1.363 . S
C2336 C2341 1.379 . S
C2336 N2343 1.356 . S
C2337 C2336 1.363 . S
C2337 C2340 1.363 . S
N2338 C2340 1.356 . S
N2338 H2350 0.984 . S
N2338 H2351 0.985 . S
N2339 C2341 1.356 . S
N2339 H2344 0.984 . S
N2339 H2345 0.985 . S
C2340 C2334 1.379 . S
C2340 C2337 1.363 . S
C2340 N2338 1.356 . S
C2341 C2335 1.363 . S
C2341 C2336 1.379 . S
C2341 N2339 1.356 . S
N2342 C2334 1.356 . S
N2342 H2348 0.984 . S
N2342 H2349 0.984 . S
N2343 C2336 1.356 . S
N2343 H2346 0.984 . S
N2343 H2347 0.985 . S
H2344 N2339 0.984 . S
H2345 N2339 0.985 . S
H2346 N2343 0.984 . S
H2347 N2343 0.985 . S
H2348 N2342 0.984 . S
H2349 N2342 0.984 . S
H2350 N2338 0.984 . S
H2351 N2338 0.985 . S
C2352 C2353 1.363 . S
C2352 C2358 1.379 . S
C2352 N2360 1.356 . S
C2353 C2352 1.363 . S
C2353 C2359 1.363 . S
C2354 C2355 1.363 . S
C2354 C2359 1.379 . S
C2354 N2361 1.356 . S
C2355 C2354 1.363 . S
C2355 C2358 1.363 . S
N2356 C2358 1.356 . S
N2356 H2368 0.984 . S
N2356 H2369 0.985 . S
N2357 C2359 1.356 . S
N2357 H2362 0.984 . S
N2357 H2363 0.985 . S
C2358 C2352 1.379 . S
C2358 C2355 1.363 . S
C2358 N2356 1.356 . S
C2359 C2353 1.363 . S
C2359 C2354 1.379 . S
C2359 N2357 1.356 . S
N2360 C2352 1.356 . S
N2360 H2366 0.984 . S
N2360 H2367 0.984 . S
N2361 C2354 1.356 . S
N2361 H2364 0.984 . S
N2361 H2365 0.985 . S
H2362 N2357 0.984 . S
H2363 N2357 0.985 . S
H2364 N2361 0.984 . S
H2365 N2361 0.985 . S
H2366 N2360 0.984 . S
H2367 N2360 0.984 . S
H2368 N2356 0.984 . S
H2369 N2356 0.985 . S
C2370 C2371 1.363 . S
C2370 C2376 1.379 . S
C2370 N2378 1.356 . S
C2371 C2370 1.363 . S
C2371 C2377 1.363 . S
C2372 C2373 1.363 . S
C2372 C2377 1.379 . S
C2372 N2379 1.356 . S
C2373 C2372 1.363 . S
C2373 C2376 1.363 . S
N2374 C2376 1.356 . S
N2374 H2386 0.984 . S
N2374 H2387 0.985 . S
N2375 C2377 1.356 . S
N2375 H2380 0.984 . S
N2375 H2381 0.985 . S
C2376 C2370 1.379 . S
C2376 C2373 1.363 . S
C2376 N2374 1.356 . S
C2377 C2371 1.363 . S
C2377 C2372 1.379 . S
C2377 N2375 1.356 . S
N2378 C2370 1.356 . S
N2378 H2384 0.984 . S
N2378 H2385 0.984 . S
N2379 C2372 1.356 . S
N2379 H2382 0.984 . S
N2379 H2383 0.985 . S
H2380 N2375 0.984 . S
H2381 N2375 0.985 . S
H2382 N2379 0.984 . S
H2383 N2379 0.985 . S
H2384 N2378 0.984 . S
H2385 N2378 0.984 . S
H2386 N2374 0.984 . S
H2387 N2374 0.985 . S
C2388 C2389 1.363 . S
C2388 C2394 1.379 . S
C2388 N2396 1.356 . S
C2389 C2388 1.363 . S
C2389 C2395 1.363 1_545 S
C2390 C2391 1.363 . S
C2390 C2395 1.379 . S
C2390 N2397 1.356 . S
C2391 C2390 1.363 . S
C2391 C2394 1.363 1_565 S
N2392 C2394 1.356 . S
N2392 H2404 0.984 . S
N2392 H2405 0.985 . S
N2393 C2395 1.356 . S
N2393 H2398 0.984 . S
N2393 H2399 0.985 . S
C2394 C2388 1.379 . S
C2394 C2391 1.363 1_545 S
C2394 N2392 1.356 . S
C2395 C2389 1.363 1_565 S
C2395 C2390 1.379 . S
C2395 N2393 1.356 . S
N2396 C2388 1.356 . S
N2396 H2402 0.984 . S
N2396 H2403 0.984 . S
N2397 C2390 1.356 . S
N2397 H2400 0.984 . S
N2397 H2401 0.985 . S
H2398 N2393 0.984 . S
H2399 N2393 0.985 . S
H2400 N2397 0.984 . S
H2401 N2397 0.985 . S
H2402 N2396 0.984 . S
H2403 N2396 0.984 . S
H2404 N2392 0.984 . S
H2405 N2392 0.985 . S
C2406 C2407 1.363 . S
C2406 C2412 1.379 . S
C2406 N2414 1.356 . S
C2407 C2406 1.363 . S
C2407 C2413 1.363 . S
C2408 C2409 1.363 . S
C2408 C2413 1.379 . S
C2408 N2415 1.356 . S
C2409 C2408 1.363 . S
C2409 C2412 1.363 . S
N2410 C2412 1.356 . S
N2410 H2422 0.984 . S
N2410 H2423 0.985 . S
N2411 C2413 1.352 1_554 S
N2411 H2416 0.983 1_554 S
N2411 H2417 0.990 . S
C2412 C2406 1.379 . S
C2412 C2409 1.363 . S
C2412 N2410 1.356 . S
C2413 C2407 1.363 . S
C2413 C2408 1.379 . S
C2413 N2411 1.352 1_556 S
N2414 C2406 1.356 . S
N2414 H2420 0.984 . S
N2414 H2421 0.984 . S
N2415 C2408 1.356 . S
N2415 H2418 0.984 . S
N2415 H2419 0.985 1_556 S
H2416 N2411 0.983 1_556 S
H2417 N2411 0.990 . S
H2418 N2415 0.984 . S
H2419 N2415 0.985 1_554 S
H2420 N2414 0.984 . S
H2421 N2414 0.984 . S
H2422 N2410 0.984 . S
H2423 N2410 0.985 . S
C2424 C2425 1.363 . S
C2424 C2430 1.379 . S
C2424 N2432 1.356 . S
C2425 C2424 1.363 . S
C2425 C2431 1.363 . S
C2426 C2427 1.363 . S
C2426 C2431 1.379 . S
C2426 N2433 1.356 . S
C2427 C2426 1.363 . S
C2427 C2430 1.363 . S
N2428 C2430 1.356 . S
N2428 H2440 0.984 . S
N2428 H2441 0.985 . S
N2429 C2431 1.356 . S
N2429 H2434 0.984 . S
N2429 H2435 0.985 . S
C2430 C2424 1.379 . S
C2430 C2427 1.363 . S
C2430 N2428 1.356 . S
C2431 C2425 1.363 . S
C2431 C2426 1.379 . S
C2431 N2429 1.356 . S
N2432 C2424 1.356 . S
N2432 H2438 0.984 . S
N2432 H2439 0.984 . S
N2433 C2426 1.356 . S
N2433 H2436 0.984 . S
N2433 H2437 0.985 . S
H2434 N2429 0.984 . S
H2435 N2429 0.985 . S
H2436 N2433 0.984 . S
H2437 N2433 0.985 . S
H2438 N2432 0.984 . S
H2439 N2432 0.984 . S
H2440 N2428 0.984 . S
H2441 N2428 0.985 . S
C2442 C2443 1.363 . S
C2442 C2448 1.379 . S
C2442 N2450 1.356 . S
C2443 C2442 1.363 . S
C2443 C2449 1.363 . S
C2444 C2445 1.363 . S
C2444 C2449 1.379 . S
C2444 N2451 1.356 . S
C2445 C2444 1.363 . S
C2445 C2448 1.363 . S
N2446 C2448 1.356 . S
N2446 H2458 0.984 . S
N2446 H2459 0.985 . S
N2447 C2449 1.356 . S
N2447 H2452 0.984 . S
N2447 H2453 0.985 . S
C2448 C2442 1.379 . S
C2448 C2445 1.363 . S
C2448 N2446 1.356 . S
C2449 C2443 1.363 . S
C2449 C2444 1.379 . S
C2449 N2447 1.356 . S
N2450 C2442 1.356 . S
N2450 H2456 0.984 . S
N2450 H2457 0.984 . S
N2451 C2444 1.356 . S
N2451 H2454 0.984 . S
N2451 H2455 0.985 . S
H2452 N2447 0.984 . S
H2453 N2447 0.985 . S
H2454 N2451 0.984 . S
H2455 N2451 0.985 . S
H2456 N2450 0.984 . S
H2457 N2450 0.984 . S
H2458 N2446 0.984 . S
H2459 N2446 0.985 . S
C2460 C2461 1.363 . S
C2460 C2466 1.379 . S
C2460 N2468 1.356 . S
C2461 C2460 1.363 . S
C2461 C2467 1.363 . S
C2462 C2463 1.363 . S
C2462 C2467 1.379 . S
C2462 N2469 1.356 . S
C2463 C2462 1.363 . S
C2463 C2466 1.363 . S
N2464 C2466 1.356 . S
N2464 H2476 0.984 . S
N2464 H2477 0.985 . S
N2465 C2467 1.356 . S
N2465 H2470 0.984 . S
N2465 H2471 0.985 . S
C2466 C2460 1.379 . S
C2466 C2463 1.363 . S
C2466 N2464 1.356 . S
C2467 C2461 1.363 . S
C2467 C2462 1.379 . S
C2467 N2465 1.356 . S
N2468 C2460 1.356 . S
N2468 H2474 0.984 . S
N2468 H2475 0.984 . S
N2469 C2462 1.356 . S
N2469 H2472 0.984 . S
N2469 H2473 0.985 . S
H2470 N2465 0.984 . S
H2471 N2465 0.985 . S
H2472 N2469 0.984 . S
H2473 N2469 0.985 . S
H2474 N2468 0.984 . S
H2475 N2468 0.984 . S
H2476 N2464 0.984 . S
H2477 N2464 0.985 . S
C2478 C2479 1.363 . S
C2478 C2484 1.379 1_655 S
C2478 N2486 1.356 . S
C2479 C2478 1.363 . S
C2479 C2485 1.363 . S
C2480 C2481 1.363 . S
C2480 C2485 1.379 1_455 S
C2480 N2487 1.356 . S
C2481 C2480 1.363 . S
C2481 C2484 1.363 . S
N2482 C2484 1.356 . S
N2482 H2494 0.984 1_565 S
N2482 H2495 0.985 . S
N2483 C2485 1.356 . S
N2483 H2488 0.984 . S
N2483 H2489 0.985 . S
C2484 C2478 1.379 1_455 S
C2484 C2481 1.363 . S
C2484 N2482 1.356 . S
C2485 C2479 1.363 . S
C2485 C2480 1.379 1_655 S
C2485 N2483 1.356 . S
N2486 C2478 1.356 . S
N2486 H2492 0.984 1_565 S
N2486 H2493 0.984 . S
N2487 C2480 1.356 . S
N2487 H2490 0.984 . S
N2487 H2491 0.985 . S
H2488 N2483 0.984 . S
H2489 N2483 0.985 . S
H2490 N2487 0.984 . S
H2491 N2487 0.985 . S
H2492 N2486 0.984 1_545 S
H2493 N2486 0.984 . S
H2494 N2482 0.984 1_545 S
H2495 N2482 0.985 . S
C2496 C2497 1.363 . S
C2496 C2502 1.379 . S
C2496 N2504 1.356 . S
C2497 C2496 1.363 . S
C2497 C2503 1.363 . S
C2498 C2499 1.363 . S
C2498 C2503 1.379 . S
C2498 N2505 1.356 . S
C2499 C2498 1.363 . S
C2499 C2502 1.363 . S
N2500 C2502 1.356 . S
N2500 H2512 0.984 . S
N2500 H2513 0.985 . S
N2501 C2503 1.356 . S
N2501 H2506 0.984 . S
N2501 H2507 0.985 . S
C2502 C2496 1.379 . S
C2502 C2499 1.363 . S
C2502 N2500 1.356 . S
C2503 C2497 1.363 . S
C2503 C2498 1.379 . S
C2503 N2501 1.356 . S
N2504 C2496 1.356 . S
N2504 H2510 0.984 . S
N2504 H2511 0.984 . S
N2505 C2498 1.356 . S
N2505 H2508 0.984 . S
N2505 H2509 0.985 . S
H2506 N2501 0.984 . S
H2507 N2501 0.985 . S
H2508 N2505 0.984 . S
H2509 N2505 0.985 . S
H2510 N2504 0.984 . S
H2511 N2504 0.984 . S
H2512 N2500 0.984 . S
H2513 N2500 0.985 . S
C2514 C2515 1.363 . S
C2514 C2520 1.379 1_556 S
C2514 N2522 1.356 . S
C2515 C2514 1.363 . S
C2515 C2521 1.363 . S
C2516 C2517 1.363 . S
C2516 C2521 1.379 1_554 S
C2516 N2523 1.356 . S
C2517 C2516 1.363 . S
C2517 C2520 1.363 . S
N2518 C2520 1.356 . S
N2518 H2530 0.984 . S
N2518 H2531 0.985 . S
N2519 C2521 1.356 . S
N2519 H2524 0.984 . S
N2519 H2525 0.985 . S
C2520 C2514 1.379 1_554 S
C2520 C2517 1.363 . S
C2520 N2518 1.356 . S
C2521 C2515 1.363 . S
C2521 C2516 1.379 1_556 S
C2521 N2519 1.356 . S
N2522 C2514 1.356 . S
N2522 H2528 0.984 . S
N2522 H2529 0.984 . S
N2523 C2516 1.356 . S
N2523 H2526 0.984 . S
N2523 H2527 0.985 . S
H2524 N2519 0.984 . S
H2525 N2519 0.985 . S
H2526 N2523 0.984 . S
H2527 N2523 0.985 . S
H2528 N2522 0.984 . S
H2529 N2522 0.984 . S
H2530 N2518 0.984 . S
H2531 N2518 0.985 . S
C2532 C2533 1.363 . S
C2532 C2538 1.379 . S
C2532 N2540 1.356 . S
C2533 C2532 1.363 . S
C2533 C2539 1.363 . S
C2534 C2535 1.363 . S
C2534 C2539 1.379 . S
C2534 N2541 1.356 . S
C2535 C2534 1.363 . S
C2535 C2538 1.363 . S
N2536 C2538 1.356 . S
N2536 H2548 0.984 . S
N2536 H2549 0.985 . S
N2537 C2539 1.356 . S
N2537 H2542 0.984 . S
N2537 H2543 0.985 . S
C2538 C2532 1.379 . S
C2538 C2535 1.363 . S
C2538 N2536 1.356 . S
C2539 C2533 1.363 . S
C2539 C2534 1.379 . S
C2539 N2537 1.356 . S
N2540 C2532 1.356 . S
N2540 H2546 0.984 . S
N2540 H2547 0.984 . S
N2541 C2534 1.356 . S
N2541 H2544 0.984 . S
N2541 H2545 0.985 . S
H2542 N2537 0.984 . S
H2543 N2537 0.985 . S
H2544 N2541 0.984 . S
H2545 N2541 0.985 . S
H2546 N2540 0.984 . S
H2547 N2540 0.984 . S
H2548 N2536 0.984 . S
H2549 N2536 0.985 . S
C2550 C2551 1.363 . S
C2550 C2556 1.379 . S
C2550 N2558 1.356 . S
C2551 C2550 1.363 . S
C2551 C2557 1.363 . S
C2552 C2553 1.363 . S
C2552 C2557 1.379 . S
C2552 N2559 1.356 . S
C2553 C2552 1.363 . S
C2553 C2556 1.363 . S
N2554 C2556 1.356 . S
N2554 H2566 0.984 . S
N2554 H2567 0.985 . S
N2555 C2557 1.356 . S
N2555 H2560 0.984 . S
N2555 H2561 0.985 . S
C2556 C2550 1.379 . S
C2556 C2553 1.363 . S
C2556 N2554 1.356 . S
C2557 C2551 1.363 . S
C2557 C2552 1.379 . S
C2557 N2555 1.356 . S
N2558 C2550 1.356 . S
N2558 H2564 0.984 . S
N2558 H2565 0.984 . S
N2559 C2552 1.356 . S
N2559 H2562 0.984 . S
N2559 H2563 0.985 . S
H2560 N2555 0.984 . S
H2561 N2555 0.985 . S
H2562 N2559 0.984 . S
H2563 N2559 0.985 . S
H2564 N2558 0.984 . S
H2565 N2558 0.984 . S
H2566 N2554 0.984 . S
H2567 N2554 0.985 . S
C2568 C2569 1.363 . S
C2568 C2574 1.379 . S
C2568 N2576 1.356 . S
C2569 C2568 1.363 . S
C2569 C2575 1.363 . S
C2570 C2571 1.363 . S
C2570 C2575 1.379 . S
C2570 N2577 1.356 . S
C2571 C2570 1.363 . S
C2571 C2574 1.363 . S
N2572 C2574 1.356 . S
N2572 H2584 0.984 . S
N2572 H2585 0.985 . S
N2573 C2575 1.356 . S
N2573 H2578 0.984 . S
N2573 H2579 0.985 . S
C2574 C2568 1.379 . S
C2574 C2571 1.363 . S
C2574 N2572 1.356 . S
C2575 C2569 1.363 . S
C2575 C2570 1.379 . S
C2575 N2573 1.356 . S
N2576 C2568 1.356 . S
N2576 H2582 0.984 . S
N2576 H2583 0.984 . S
N2577 C2570 1.356 . S
N2577 H2580 0.984 . S
N2577 H2581 0.985 . S
H2578 N2573 0.984 . S
H2579 N2573 0.985 . S
H2580 N2577 0.984 . S
H2581 N2577 0.985 . S
H2582 N2576 0.984 . S
H2583 N2576 0.984 . S
H2584 N2572 0.984 . S
H2585 N2572 0.985 . S
C2586 C2587 1.363 . S
C2586 C2592 1.379 1_554 S
C2586 N2594 1.356 . S
C2587 C2586 1.363 . S
C2587 C2593 1.363 . S
C2588 C2589 1.363 1_554 S
C2588 C2593 1.379 . S
C2588 N2595 1.356 1_554 S
C2589 C2588 1.363 1_556 S
C2589 C2592 1.363 . S
N2590 C2592 1.356 . S
N2590 H2602 0.984 . S
N2590 H2603 0.985 . S
N2591 C2593 1.356 . S
N2591 H2596 0.984 . S
N2591 H2597 0.985 . S
C2592 C2586 1.379 1_556 S
C2592 C2589 1.363 . S
C2592 N2590 1.356 . S
C2593 C2587 1.363 . S
C2593 C2588 1.379 . S
C2593 N2591 1.356 . S
N2594 C2586 1.356 . S
N2594 H2600 0.984 . S
N2594 H2601 0.984 . S
N2595 C2588 1.356 1_556 S
N2595 H2598 0.984 . S
N2595 H2599 0.985 1_556 S
H2596 N2591 0.984 . S
H2597 N2591 0.985 . S
H2598 N2595 0.984 . S
H2599 N2595 0.985 1_554 S
H2600 N2594 0.984 . S
H2601 N2594 0.984 . S
H2602 N2590 0.984 . S
H2603 N2590 0.985 . S
C2604 C2605 1.363 . S
C2604 C2610 1.379 . S
C2604 N2612 1.356 . S
C2605 C2604 1.363 . S
C2605 C2611 1.363 . S
C2606 C2607 1.363 . S
C2606 C2611 1.379 . S
C2606 N2613 1.356 . S
C2607 C2606 1.363 . S
C2607 C2610 1.363 . S
N2608 C2610 1.356 . S
N2608 H2620 0.984 . S
N2608 H2621 0.985 . S
N2609 C2611 1.356 . S
N2609 H2614 0.984 . S
N2609 H2615 0.985 . S
C2610 C2604 1.379 . S
C2610 C2607 1.363 . S
C2610 N2608 1.356 . S
C2611 C2605 1.363 . S
C2611 C2606 1.379 . S
C2611 N2609 1.356 . S
N2612 C2604 1.356 . S
N2612 H2618 0.984 . S
N2612 H2619 0.984 . S
N2613 C2606 1.356 . S
N2613 H2616 0.984 . S
N2613 H2617 0.985 . S
H2614 N2609 0.984 . S
H2615 N2609 0.985 . S
H2616 N2613 0.984 . S
H2617 N2613 0.985 . S
H2618 N2612 0.984 . S
H2619 N2612 0.984 . S
H2620 N2608 0.984 . S
H2621 N2608 0.985 . S
C2622 C2623 1.363 . S
C2622 C2628 1.379 . S
C2622 N2630 1.356 . S
C2623 C2622 1.363 . S
C2623 C2629 1.363 . S
C2624 C2625 1.363 . S
C2624 C2629 1.379 . S
C2624 N2631 1.356 . S
C2625 C2624 1.363 . S
C2625 C2628 1.363 . S
N2626 C2628 1.356 . S
N2626 H2638 0.984 . S
N2626 H2639 0.985 . S
N2627 C2629 1.356 . S
N2627 H2632 0.984 . S
N2627 H2633 0.985 . S
C2628 C2622 1.379 . S
C2628 C2625 1.363 . S
C2628 N2626 1.356 . S
C2629 C2623 1.363 . S
C2629 C2624 1.379 . S
C2629 N2627 1.356 . S
N2630 C2622 1.356 . S
N2630 H2636 0.984 . S
N2630 H2637 0.984 . S
N2631 C2624 1.356 . S
N2631 H2634 0.984 . S
N2631 H2635 0.985 . S
H2632 N2627 0.984 . S
H2633 N2627 0.985 . S
H2634 N2631 0.984 . S
H2635 N2631 0.985 . S
H2636 N2630 0.984 . S
H2637 N2630 0.984 . S
H2638 N2626 0.984 . S
H2639 N2626 0.985 . S
C2640 C2641 1.363 . S
C2640 C2646 1.379 . S
C2640 N2648 1.356 . S
C2641 C2640 1.363 . S
C2641 C2647 1.363 . S
C2642 C2643 1.363 . S
C2642 C2647 1.379 . S
C2642 N2649 1.356 . S
C2643 C2642 1.363 . S
C2643 C2646 1.363 . S
N2644 C2646 1.356 . S
N2644 H2656 0.984 . S
N2644 H2657 0.985 . S
N2645 C2647 1.356 . S
N2645 H2650 0.984 . S
N2645 H2651 0.985 . S
C2646 C2640 1.379 . S
C2646 C2643 1.363 . S
C2646 N2644 1.356 . S
C2647 C2641 1.363 . S
C2647 C2642 1.379 . S
C2647 N2645 1.356 . S
N2648 C2640 1.356 . S
N2648 H2654 0.984 . S
N2648 H2655 0.984 . S
N2649 C2642 1.356 . S
N2649 H2652 0.984 . S
N2649 H2653 0.985 . S
H2650 N2645 0.984 . S
H2651 N2645 0.985 . S
H2652 N2649 0.984 . S
H2653 N2649 0.985 . S
H2654 N2648 0.984 . S
H2655 N2648 0.984 . S
H2656 N2644 0.984 . S
H2657 N2644 0.985 . S
C2658 C2659 1.363 . S
C2658 C2664 1.379 . S
C2658 N2666 1.356 . S
C2659 C2658 1.363 . S
C2659 C2665 1.363 . S
C2660 C2661 1.363 . S
C2660 C2665 1.379 . S
C2660 N2667 1.356 . S
C2661 C2660 1.363 . S
C2661 C2664 1.363 . S
N2662 C2664 1.356 . S
N2662 H2674 0.984 1_554 S
N2662 H2675 0.985 . S
N2663 C2665 1.356 . S
N2663 H2668 0.984 . S
N2663 H2669 0.985 . S
C2664 C2658 1.379 . S
C2664 C2661 1.363 . S
C2664 N2662 1.356 . S
C2665 C2659 1.363 . S
C2665 C2660 1.379 . S
C2665 N2663 1.356 . S
N2666 C2658 1.356 . S
N2666 H2672 0.984 1_554 S
N2666 H2673 0.984 . S
N2667 C2660 1.356 . S
N2667 H2670 0.984 . S
N2667 H2671 0.985 . S
H2668 N2663 0.984 . S
H2669 N2663 0.985 . S
H2670 N2667 0.984 . S
H2671 N2667 0.985 . S
H2672 N2666 0.984 1_556 S
H2673 N2666 0.984 . S
H2674 N2662 0.984 1_556 S
H2675 N2662 0.985 . S
C2676 C2677 1.363 . S
C2676 C2682 1.379 . S
C2676 N2684 1.356 . S
C2677 C2676 1.363 . S
C2677 C2683 1.363 . S
C2678 C2679 1.363 . S
C2678 C2683 1.379 . S
C2678 N2685 1.356 . S
C2679 C2678 1.363 . S
C2679 C2682 1.363 . S
N2680 C2682 1.356 . S
N2680 H2692 0.984 . S
N2680 H2693 0.985 . S
N2681 C2683 1.356 . S
N2681 H2686 0.984 . S
N2681 H2687 0.985 . S
C2682 C2676 1.379 . S
C2682 C2679 1.363 . S
C2682 N2680 1.356 . S
C2683 C2677 1.363 . S
C2683 C2678 1.379 . S
C2683 N2681 1.356 . S
N2684 C2676 1.356 . S
N2684 H2690 0.984 . S
N2684 H2691 0.984 . S
N2685 C2678 1.356 . S
N2685 H2688 0.984 . S
N2685 H2689 0.985 . S
H2686 N2681 0.984 . S
H2687 N2681 0.985 . S
H2688 N2685 0.984 . S
H2689 N2685 0.985 . S
H2690 N2684 0.984 . S
H2691 N2684 0.984 . S
H2692 N2680 0.984 . S
H2693 N2680 0.985 . S
C2694 C2695 1.363 . S
C2694 C2700 1.379 . S
C2694 N2702 1.356 . S
C2695 C2694 1.363 . S
C2695 C2701 1.363 . S
C2696 C2697 1.363 . S
C2696 C2701 1.379 . S
C2696 N2703 1.356 . S
C2697 C2696 1.363 . S
C2697 C2700 1.363 . S
N2698 C2700 1.356 . S
N2698 H2710 0.984 . S
N2698 H2711 0.985 . S
N2699 C2701 1.356 . S
N2699 H2704 0.984 . S
N2699 H2705 0.985 . S
C2700 C2694 1.379 . S
C2700 C2697 1.363 . S
C2700 N2698 1.356 . S
C2701 C2695 1.363 . S
C2701 C2696 1.379 . S
C2701 N2699 1.356 . S
N2702 C2694 1.356 . S
N2702 H2708 0.984 . S
N2702 H2709 0.984 . S
N2703 C2696 1.356 . S
N2703 H2706 0.984 . S
N2703 H2707 0.985 . S
H2704 N2699 0.984 . S
H2705 N2699 0.985 . S
H2706 N2703 0.984 . S
H2707 N2703 0.985 . S
H2708 N2702 0.984 . S
H2709 N2702 0.984 . S
H2710 N2698 0.984 . S
H2711 N2698 0.985 . S
C2712 C2713 1.363 . S
C2712 C2718 1.379 . S
C2712 N2720 1.356 . S
C2713 C2712 1.363 . S
C2713 C2719 1.363 . S
C2714 C2715 1.363 . S
C2714 C2719 1.379 . S
C2714 N2721 1.356 . S
C2715 C2714 1.363 . S
C2715 C2718 1.363 . S
N2716 C2718 1.356 . S
N2716 H2728 0.984 . S
N2716 H2729 0.985 . S
N2717 C2719 1.356 . S
N2717 H2722 0.984 . S
N2717 H2723 0.985 . S
C2718 C2712 1.379 . S
C2718 C2715 1.363 . S
C2718 N2716 1.356 . S
C2719 C2713 1.363 . S
C2719 C2714 1.379 . S
C2719 N2717 1.356 . S
N2720 C2712 1.356 . S
N2720 H2726 0.984 . S
N2720 H2727 0.984 . S
N2721 C2714 1.356 . S
N2721 H2724 0.984 . S
N2721 H2725 0.985 . S
H2722 N2717 0.984 . S
H2723 N2717 0.985 . S
H2724 N2721 0.984 . S
H2725 N2721 0.985 . S
H2726 N2720 0.984 . S
H2727 N2720 0.984 . S
H2728 N2716 0.984 . S
H2729 N2716 0.985 . S
C2730 C2731 1.363 . S
C2730 C2736 1.379 . S
C2730 N2738 1.356 . S
C2731 C2730 1.363 . S
C2731 C2737 1.363 . S
C2732 C2733 1.363 . S
C2732 C2737 1.379 . S
C2732 N2739 1.356 . S
C2733 C2732 1.363 . S
C2733 C2736 1.363 . S
N2734 C2736 1.356 . S
N2734 H2746 0.984 1_556 S
N2734 H2747 0.985 . S
N2735 C2737 1.356 . S
N2735 H2740 0.984 . S
N2735 H2741 0.985 . S
C2736 C2730 1.379 . S
C2736 C2733 1.363 . S
C2736 N2734 1.356 . S
C2737 C2731 1.363 . S
C2737 C2732 1.379 . S
C2737 N2735 1.356 . S
N2738 C2730 1.356 . S
N2738 H2744 0.984 1_556 S
N2738 H2745 0.984 . S
N2739 C2732 1.356 . S
N2739 H2742 0.984 . S
N2739 H2743 0.985 . S
H2740 N2735 0.984 . S
H2741 N2735 0.985 . S
H2742 N2739 0.984 . S
H2743 N2739 0.985 . S
H2744 N2738 0.984 1_554 S
H2745 N2738 0.984 . S
H2746 N2734 0.984 1_554 S
H2747 N2734 0.985 . S
C2748 C2749 1.363 . S
C2748 C2754 1.379 . S
C2748 N2756 1.356 . S
C2749 C2748 1.363 . S
C2749 C2755 1.363 . S
C2750 C2751 1.363 . S
C2750 C2755 1.379 . S
C2750 N2757 1.356 . S
C2751 C2750 1.363 . S
C2751 C2754 1.363 . S
N2752 C2754 1.356 . S
N2752 H2764 0.984 . S
N2752 H2765 0.985 . S
N2753 C2755 1.356 . S
N2753 H2758 0.984 . S
N2753 H2759 0.985 . S
C2754 C2748 1.379 . S
C2754 C2751 1.363 . S
C2754 N2752 1.356 . S
C2755 C2749 1.363 . S
C2755 C2750 1.379 . S
C2755 N2753 1.356 . S
N2756 C2748 1.356 . S
N2756 H2762 0.984 . S
N2756 H2763 0.984 . S
N2757 C2750 1.356 . S
N2757 H2760 0.984 . S
N2757 H2761 0.985 . S
H2758 N2753 0.984 . S
H2759 N2753 0.985 . S
H2760 N2757 0.984 . S
H2761 N2757 0.985 . S
H2762 N2756 0.984 . S
H2763 N2756 0.984 . S
H2764 N2752 0.984 . S
H2765 N2752 0.985 . S
C2766 C2767 1.363 . S
C2766 C2772 1.379 . S
C2766 N2774 1.356 . S
C2767 C2766 1.363 . S
C2767 C2773 1.363 . S
C2768 C2769 1.363 . S
C2768 C2773 1.379 . S
C2768 N2775 1.356 . S
C2769 C2768 1.363 . S
C2769 C2772 1.363 . S
N2770 C2772 1.356 . S
N2770 H2782 0.984 . S
N2770 H2783 0.985 . S
N2771 C2773 1.356 . S
N2771 H2776 0.984 . S
N2771 H2777 0.985 . S
C2772 C2766 1.379 . S
C2772 C2769 1.363 . S
C2772 N2770 1.356 . S
C2773 C2767 1.363 . S
C2773 C2768 1.379 . S
C2773 N2771 1.356 . S
N2774 C2766 1.356 . S
N2774 H2780 0.984 . S
N2774 H2781 0.984 . S
N2775 C2768 1.356 . S
N2775 H2778 0.984 . S
N2775 H2779 0.985 . S
H2776 N2771 0.984 . S
H2777 N2771 0.985 . S
H2778 N2775 0.984 . S
H2779 N2775 0.985 . S
H2780 N2774 0.984 . S
H2781 N2774 0.984 . S
H2782 N2770 0.984 . S
H2783 N2770 0.985 . S
C2784 C2785 1.363 . S
C2784 C2790 1.379 . S
C2784 N2792 1.356 . S
C2785 C2784 1.363 . S
C2785 C2791 1.363 . S
C2786 C2787 1.363 . S
C2786 C2791 1.379 . S
C2786 N2793 1.356 . S
C2787 C2786 1.363 . S
C2787 C2790 1.363 . S
N2788 C2790 1.356 . S
N2788 H2800 0.984 . S
N2788 H2801 0.985 . S
N2789 C2791 1.356 . S
N2789 H2794 0.984 . S
N2789 H2795 0.985 . S
C2790 C2784 1.379 . S
C2790 C2787 1.363 . S
C2790 N2788 1.356 . S
C2791 C2785 1.363 . S
C2791 C2786 1.379 . S
C2791 N2789 1.356 . S
N2792 C2784 1.356 . S
N2792 H2798 0.984 . S
N2792 H2799 0.984 . S
N2793 C2786 1.356 . S
N2793 H2796 0.984 . S
N2793 H2797 0.985 . S
H2794 N2789 0.984 . S
H2795 N2789 0.985 . S
H2796 N2793 0.984 . S
H2797 N2793 0.985 . S
H2798 N2792 0.984 . S
H2799 N2792 0.984 . S
H2800 N2788 0.984 . S
H2801 N2788 0.985 . S
C2802 C2803 1.363 . S
C2802 C2808 1.379 . S
C2802 N2810 1.356 . S
C2803 C2802 1.363 . S
C2803 C2809 1.363 . S
C2804 C2805 1.363 . S
C2804 C2809 1.379 . S
C2804 N2811 1.356 . S
C2805 C2804 1.363 . S
C2805 C2808 1.363 . S
N2806 C2808 1.356 . S
N2806 H2818 0.984 . S
N2806 H2819 0.985 . S
N2807 C2809 1.356 . S
N2807 H2812 0.984 . S
N2807 H2813 0.985 . S
C2808 C2802 1.379 . S
C2808 C2805 1.363 . S
C2808 N2806 1.356 . S
C2809 C2803 1.363 . S
C2809 C2804 1.379 . S
C2809 N2807 1.356 . S
N2810 C2802 1.356 . S
N2810 H2816 0.984 . S
N2810 H2817 0.984 . S
N2811 C2804 1.356 . S
N2811 H2814 0.984 . S
N2811 H2815 0.985 . S
H2812 N2807 0.984 . S
H2813 N2807 0.985 . S
H2814 N2811 0.984 . S
H2815 N2811 0.985 . S
H2816 N2810 0.984 . S
H2817 N2810 0.984 . S
H2818 N2806 0.984 . S
H2819 N2806 0.985 . S
C2820 C2821 1.363 . S
C2820 C2826 1.379 . S
C2820 N2828 1.356 . S
C2821 C2820 1.363 . S
C2821 C2827 1.363 . S
C2822 C2823 1.363 . S
C2822 C2827 1.379 . S
C2822 N2829 1.356 . S
C2823 C2822 1.363 . S
C2823 C2826 1.363 . S
N2824 C2826 1.356 . S
N2824 H2836 0.984 . S
N2824 H2837 0.985 . S
N2825 C2827 1.356 . S
N2825 H2830 0.984 . S
N2825 H2831 0.985 . S
C2826 C2820 1.379 . S
C2826 C2823 1.363 . S
C2826 N2824 1.356 . S
C2827 C2821 1.363 . S
C2827 C2822 1.379 . S
C2827 N2825 1.356 . S
N2828 C2820 1.356 . S
N2828 H2834 0.984 1_545 S
N2828 H2835 0.984 . S
N2829 C2822 1.356 . S
N2829 H2832 0.984 . S
N2829 H2833 0.985 . S
H2830 N2825 0.984 . S
H2831 N2825 0.985 . S
H2832 N2829 0.984 . S
H2833 N2829 0.985 . S
H2834 N2828 0.984 1_565 S
H2835 N2828 0.984 . S
H2836 N2824 0.984 . S
H2837 N2824 0.985 . S
C2838 C2839 1.363 . S
C2838 C2844 1.379 . S
C2838 N2846 1.356 . S
C2839 C2838 1.363 . S
C2839 C2845 1.363 . S
C2840 C2841 1.363 . S
C2840 C2845 1.379 . S
C2840 N2847 1.356 . S
C2841 C2840 1.363 . S
C2841 C2844 1.363 . S
N2842 C2844 1.356 . S
N2842 H2854 0.984 . S
N2842 H2855 0.985 . S
N2843 C2845 1.356 . S
N2843 H2848 0.984 . S
N2843 H2849 0.985 . S
C2844 C2838 1.379 . S
C2844 C2841 1.363 . S
C2844 N2842 1.356 . S
C2845 C2839 1.363 . S
C2845 C2840 1.379 . S
C2845 N2843 1.356 . S
N2846 C2838 1.356 . S
N2846 H2852 0.984 1_554 S
N2846 H2853 0.984 . S
N2847 C2840 1.356 . S
N2847 H2850 0.984 . S
N2847 H2851 0.985 . S
H2848 N2843 0.984 . S
H2849 N2843 0.985 . S
H2850 N2847 0.984 . S
H2851 N2847 0.985 . S
H2852 N2846 0.984 1_556 S
H2853 N2846 0.984 . S
H2854 N2842 0.984 . S
H2855 N2842 0.985 . S
C2856 C2857 1.363 . S
C2856 C2862 1.379 . S
C2856 N2864 1.356 . S
C2857 C2856 1.363 . S
C2857 C2863 1.363 . S
C2858 C2859 1.363 . S
C2858 C2863 1.379 . S
C2858 N2865 1.356 . S
C2859 C2858 1.363 . S
C2859 C2862 1.363 . S
N2860 C2862 1.356 . S
N2860 H2872 0.984 . S
N2860 H2873 0.985 . S
N2861 C2863 1.356 . S
N2861 H2866 0.984 . S
N2861 H2867 0.985 . S
C2862 C2856 1.379 . S
C2862 C2859 1.363 . S
C2862 N2860 1.356 . S
C2863 C2857 1.363 . S
C2863 C2858 1.379 . S
C2863 N2861 1.356 . S
N2864 C2856 1.356 . S
N2864 H2870 0.984 . S
N2864 H2871 0.984 . S
N2865 C2858 1.356 . S
N2865 H2868 0.984 . S
N2865 H2869 0.985 . S
H2866 N2861 0.984 . S
H2867 N2861 0.985 . S
H2868 N2865 0.984 . S
H2869 N2865 0.985 . S
H2870 N2864 0.984 . S
H2871 N2864 0.984 . S
H2872 N2860 0.984 . S
H2873 N2860 0.985 . S
C2874 C2875 1.363 . S
C2874 C2880 1.379 . S
C2874 N2882 1.356 1_556 S
C2875 C2874 1.363 . S
C2875 C2881 1.363 . S
C2876 C2877 1.363 . S
C2876 C2881 1.379 . S
C2876 N2883 1.356 . S
C2877 C2876 1.363 . S
C2877 C2880 1.363 . S
N2878 C2880 1.356 . S
N2878 H2890 0.984 . S
N2878 H2891 0.985 . S
N2879 C2881 1.356 . S
N2879 H2884 0.984 . S
N2879 H2885 0.985 . S
C2880 C2874 1.379 . S
C2880 C2877 1.363 . S
C2880 N2878 1.356 . S
C2881 C2875 1.363 . S
C2881 C2876 1.379 . S
C2881 N2879 1.356 . S
N2882 C2874 1.356 1_554 S
N2882 H2888 0.984 . S
N2882 H2889 0.984 . S
N2883 C2876 1.356 . S
N2883 H2886 0.984 . S
N2883 H2887 0.985 . S
H2884 N2879 0.984 . S
H2885 N2879 0.985 . S
H2886 N2883 0.984 . S
H2887 N2883 0.985 . S
H2888 N2882 0.984 . S
H2889 N2882 0.984 . S
H2890 N2878 0.984 . S
H2891 N2878 0.985 . S
C2892 C2893 1.363 . S
C2892 C2898 1.379 . S
C2892 N2900 1.356 . S
C2893 C2892 1.363 . S
C2893 C2899 1.363 . S
C2894 C2895 1.363 . S
C2894 C2899 1.379 . S
C2894 N2901 1.356 . S
C2895 C2894 1.363 . S
C2895 C2898 1.363 . S
N2896 C2898 1.356 1_545 S
N2896 H2908 0.984 . S
N2896 H2909 0.985 . S
N2897 C2899 1.356 . S
N2897 H2902 0.984 . S
N2897 H2903 0.985 . S
C2898 C2892 1.379 . S
C2898 C2895 1.363 . S
C2898 N2896 1.356 1_565 S
C2899 C2893 1.363 . S
C2899 C2894 1.379 . S
C2899 N2897 1.356 . S
N2900 C2892 1.356 . S
N2900 H2906 0.984 1_565 S
N2900 H2907 0.984 . S
N2901 C2894 1.356 . S
N2901 H2904 0.984 . S
N2901 H2905 0.985 . S
H2902 N2897 0.984 . S
H2903 N2897 0.985 . S
H2904 N2901 0.984 . S
H2905 N2901 0.985 . S
H2906 N2900 0.984 1_545 S
H2907 N2900 0.984 . S
H2908 N2896 0.984 . S
H2909 N2896 0.985 . S
C2910 C2911 1.363 . S
C2910 C2916 1.379 . S
C2910 N2918 1.356 . S
C2911 C2910 1.363 . S
C2911 C2917 1.363 . S
C2912 C2913 1.373 . S
C2912 C2917 1.351 1_655 S
C2912 N2919 1.380 . S
C2913 C2912 1.373 . S
C2913 C2916 1.363 1_655 S
N2914 C2916 1.356 1_655 S
N2914 H2926 0.984 . S
N2914 H2927 0.985 . S
N2915 C2917 1.356 . S
N2915 H2920 0.984 . S
N2915 H2921 0.985 . S
C2916 C2910 1.379 . S
C2916 C2913 1.363 1_455 S
C2916 N2914 1.356 1_455 S
C2917 C2911 1.363 . S
C2917 C2912 1.351 1_455 S
C2917 N2915 1.356 . S
N2918 C2910 1.356 . S
N2918 H2924 0.984 . S
N2918 H2925 0.984 . S
N2919 C2912 1.380 . S
N2919 H2922 0.984 . S
N2919 H2923 0.985 . S
H2920 N2915 0.984 . S
H2921 N2915 0.985 . S
H2922 N2919 0.984 . S
H2923 N2919 0.985 . S
H2924 N2918 0.984 . S
H2925 N2918 0.984 . S
H2926 N2914 0.984 . S
H2927 N2914 0.985 . S
C1203 C882 1.166 . S
C1201 C4 1.237 . S
C1219 C39 1.558 . S
C1221 C902 1.563 . S
C1239 C922 1.155 . S
C1237 C86 1.227 . S
C1257 C941 1.478 1_554 S
C1255 C110 1.420 . S
C1275 C899 1.452 . S
C1273 C146 1.397 . S
C1291 C194 1.295 . S
C1293 C924 1.299 . S
C1311 C944 1.505 . S
C1309 C219 1.519 . S
C1327 C256 1.264 . S
C1329 C880 1.134 . S
C1345 C292 1.395 . S
C1347 C877 1.269 . S
C1365 C900 1.320 . S
C1363 C326 1.396 . S
C1383 C923 1.432 . S
C1381 C363 1.424 1_565 S
C1401 C945 1.463 . S
C1399 C410 1.473 1_545 S
C1419 C903 1.216 . S
C1417 C302 1.194 . S
C1437 C919 1.109 1_545 S
C1435 C327 1.307 . S
C1453 C362 1.293 . S
C1455 C942 1.205 . S
C1473 C881 1.123 . S
C1471 C400 1.090 . S
C1489 C436 1.380 . S
C1491 C878 1.416 . S
C1507 C471 1.182 . S
C1509 C961 0.960 . S
C1527 C983 1.389 . S
C1525 C506 1.348 . S
C1545 C1006 1.143 . S
C1543 C554 1.261 . S
C1561 C580 1.413 . S
C1563 C879 1.342 . S
C1579 C614 1.501 . S
C1581 C921 1.436 . S
C1599 C1003 1.208 . S
C1597 C507 1.486 . S
C1617 C964 1.035 . S
C1615 C662 1.113 . S
C1635 C1029 1.286 . S
C1633 C50 1.183 . S
C1653 C1049 1.698 . S
C1651 C3 1.637 . S
C1669 C112 1.319 . S
C1671 C1071 1.254 . S
C1687 C74 1.322 . S
C1689 C1088 1.408 . S
C1705 C254 1.675 1_655 S
C1707 C1046 1.734 . S
C1723 C220 1.329 . S
C1725 C1069 1.195 . S
C1743 C1091 1.542 . S
C1741 C183 1.508 . S
C1759 C158 1.282 . S
C1761 C1027 1.318 . S
C1777 C698 1.148 . S
C1779 C1024 1.218 . S
C1797 C1047 1.567 . S
C1795 C542 1.666 1_545 S
C1815 C1066 1.455 . S
C1813 C579 1.536 . S
C1833 C1092 1.384 1_545 S
C1831 C472 1.483 . S
C1851 C1050 1.209 . S
C1849 C688 1.303 . S
C1869 C1070 1.275 . S
C1867 C543 1.228 . S
C1887 C1089 1.087 . S
C1885 C578 1.167 . S
C1903 C482 1.312 . S
C1905 C1028 1.590 1_545 S
C1923 C1025 1.569 . S
C1921 C734 1.342 . S
C1939 C399 1.295 . S
C1941 C1108 1.127 . S
C1959 C1131 1.445 . S
C1957 C758 1.525 . S
C1975 C328 1.389 . S
C1977 C1153 1.198 . S
C1995 C1026 1.551 1_545 S
C1993 C374 1.412 . S
C2013 C1067 1.572 . S
C2011 C794 1.511 . S
C2031 C1150 1.200 . S
C2029 C759 1.353 . S
C2047 C832 1.096 . S
C2049 C1111 0.985 . S
C2065 C76 1.237 . S
C2067 C1176 1.166 . S
C2083 C111 1.557 . S
C2085 C965 1.563 . S
C2103 C985 1.155 . S
C2101 C14 1.227 . S
C2119 C38 1.420 . S
C2121 C1004 1.478 . S
C2137 C218 1.398 . S
C2139 C962 1.452 . S
C2155 C266 1.294 1_655 S
C2157 C987 1.299 . S
C2175 C1007 1.505 . S
C2173 C147 1.520 . S
C2193 C1174 1.134 . S
C2191 C184 1.264 . S
C2211 C1171 1.269 . S
C2209 C760 1.395 . S
C2229 C963 1.322 . S
C2227 C722 1.396 . S
C2247 C986 1.432 . S
C2245 C831 1.424 . S
C2263 C806 1.473 . S
C2265 C1008 1.463 . S
C2283 C966 1.216 . S
C2281 C770 1.194 . S
C2299 C723 1.307 . S
C2301 C982 1.109 . S
C2319 C1005 1.205 . S
C2317 C830 1.293 . S
C2335 C796 1.091 . S
C2337 C1175 1.123 . S
C2355 C1172 1.416 . S
C2353 C544 1.380 . S
C2371 C615 1.182 . S
C2373 C898 0.959 . S
C2391 C920 1.389 . S
C2389 C686 1.348 . S
C2407 C446 1.261 . S
C2409 C943 1.143 . S
C2427 C1173 1.342 . S
C2425 C652 1.413 . S
C2445 C984 1.436 . S
C2443 C470 1.501 . S
C2463 C940 1.208 . S
C2461 C687 1.486 . S
C2481 C901 1.035 . S
C2479 C590 1.112 . S
C2497 C122 1.183 . S
C2499 C1197 1.286 . S
C2515 C75 1.637 . S
C2517 C1112 1.697 . S
C2533 C40 1.319 . S
C2535 C1134 1.254 . S
C2553 C1151 1.408 . S
C2551 C2 1.322 . S
C2571 C1109 1.734 . S
C2569 C182 1.675 . S
C2587 C148 1.329 . S
C2589 C1132 1.195 . S
C2607 C1154 1.542 . S
C2605 C255 1.508 . S
C2623 C230 1.282 . S
C2625 C1195 1.318 . S
C2643 C1192 1.218 . S
C2641 C518 1.148 . S
C2659 C434 1.667 . S
C2661 C1110 1.567 . S
C2677 C651 1.536 . S
C2679 C1129 1.455 . S
C2697 C1155 1.383 . S
C2695 C616 1.483 . S
C2715 C1113 1.209 . S
C2713 C508 1.303 . S
C2731 C435 1.228 . S
C2733 C1133 1.276 . S
C2751 C1152 1.087 . S
C2749 C650 1.167 . S
C2769 C1196 1.590 . S
C2767 C626 1.312 . S
C2787 C1193 1.569 . S
C2785 C338 1.342 . S
C2805 C1045 1.127 . S
C2803 C795 1.295 . S
C2821 C290 1.525 . S
C2823 C1068 1.445 . S
C2839 C724 1.389 . S
C2841 C1090 1.197 . S
C2859 C1194 1.551 . S
C2857 C842 1.413 . S
C2877 C1130 1.572 . S
C2875 C398 1.495 1_556 S
C2895 C1087 1.200 . S
C2893 C291 1.353 . S
C2913 C1048 0.985 . S
C2911 C364 1.096 . S
