# Generated by pormake.
# Topology iac, (4,6)-cn, num edge types: 1
# Building blocks:
#     Node 0, Type 0, BuildingBlock: QUQFOY_clean_sbu_3, # of connection points: 4
#     Node 1, Type 0, BuildingBlock: QUQFOY_clean_sbu_3, # of connection points: 4
#     Node 2, Type 0, BuildingBlock: QUQFOY_clean_sbu_3, # of connection points: 4
#     Node 3, Type 0, BuildingBlock: QUQFOY_clean_sbu_3, # of connection points: 4
#     Node 4, Type 0, BuildingBlock: QUQFOY_clean_sbu_3, # of connection points: 4
#     Node 5, Type 0, BuildingBlock: QUQFOY_clean_sbu_3, # of connection points: 4
#     Node 6, Type 0, BuildingBlock: QUQFOY_clean_sbu_3, # of connection points: 4
#     Node 7, Type 0, BuildingBlock: QUQFOY_clean_sbu_3, # of connection points: 4
#     Node 8, Type 0, BuildingBlock: QUQFOY_clean_sbu_3, # of connection points: 4
#     Node 9, Type 0, BuildingBlock: QUQFOY_clean_sbu_3, # of connection points: 4
#     Node 10, Type 0, BuildingBlock: QUQFOY_clean_sbu_3, # of connection points: 4
#     Node 11, Type 0, BuildingBlock: QUQFOY_clean_sbu_3, # of connection points: 4
#     Node 12, Type 0, BuildingBlock: QUQFOY_clean_sbu_3, # of connection points: 4
#     Node 13, Type 0, BuildingBlock: QUQFOY_clean_sbu_3, # of connection points: 4
#     Node 14, Type 0, BuildingBlock: QUQFOY_clean_sbu_3, # of connection points: 4
#     Node 15, Type 0, BuildingBlock: QUQFOY_clean_sbu_3, # of connection points: 4
#     Node 16, Type 0, BuildingBlock: QUQFOY_clean_sbu_3, # of connection points: 4
#     Node 17, Type 0, BuildingBlock: QUQFOY_clean_sbu_3, # of connection points: 4
#     Node 18, Type 0, BuildingBlock: QUQFOY_clean_sbu_3, # of connection points: 4
#     Node 19, Type 0, BuildingBlock: QUQFOY_clean_sbu_3, # of connection points: 4
#     Node 20, Type 0, BuildingBlock: QUQFOY_clean_sbu_3, # of connection points: 4
#     Node 21, Type 0, BuildingBlock: QUQFOY_clean_sbu_3, # of connection points: 4
#     Node 22, Type 0, BuildingBlock: QUQFOY_clean_sbu_3, # of connection points: 4
#     Node 23, Type 0, BuildingBlock: QUQFOY_clean_sbu_3, # of connection points: 4
#     Node 24, Type 1, BuildingBlock: CIFDUS_clean_sbu_1, # of connection points: 6
#     Node 25, Type 1, BuildingBlock: CIFDUS_clean_sbu_1, # of connection points: 6
#     Node 26, Type 1, BuildingBlock: CIFDUS_clean_sbu_1, # of connection points: 6
#     Node 27, Type 1, BuildingBlock: CIFDUS_clean_sbu_1, # of connection points: 6
#     Node 28, Type 1, BuildingBlock: CIFDUS_clean_sbu_1, # of connection points: 6
#     Node 29, Type 1, BuildingBlock: CIFDUS_clean_sbu_1, # of connection points: 6
#     Node 30, Type 1, BuildingBlock: CIFDUS_clean_sbu_1, # of connection points: 6
#     Node 31, Type 1, BuildingBlock: CIFDUS_clean_sbu_1, # of connection points: 6
#     Node 32, Type 1, BuildingBlock: CIFDUS_clean_sbu_1, # of connection points: 6
#     Node 33, Type 1, BuildingBlock: CIFDUS_clean_sbu_1, # of connection points: 6
#     Node 34, Type 1, BuildingBlock: CIFDUS_clean_sbu_1, # of connection points: 6
#     Node 35, Type 1, BuildingBlock: CIFDUS_clean_sbu_1, # of connection points: 6
#     Node 36, Type 1, BuildingBlock: CIFDUS_clean_sbu_1, # of connection points: 6
#     Node 37, Type 1, BuildingBlock: CIFDUS_clean_sbu_1, # of connection points: 6
#     Node 38, Type 1, BuildingBlock: CIFDUS_clean_sbu_1, # of connection points: 6
#     Node 39, Type 1, BuildingBlock: CIFDUS_clean_sbu_1, # of connection points: 6
#     Edge 40, Type (0, 1), BuildingBlock: MIFKUJ_clean_linker_0, # of connection points: 2
#     Edge 41, Type (0, 1), BuildingBlock: MIFKUJ_clean_linker_0, # of connection points: 2
#     Edge 42, Type (0, 1), BuildingBlock: MIFKUJ_clean_linker_0, # of connection points: 2
#     Edge 43, Type (0, 1), BuildingBlock: MIFKUJ_clean_linker_0, # of connection points: 2
#     Edge 44, Type (0, 1), BuildingBlock: MIFKUJ_clean_linker_0, # of connection points: 2
#     Edge 45, Type (0, 1), BuildingBlock: MIFKUJ_clean_linker_0, # of connection points: 2
#     Edge 46, Type (0, 1), BuildingBlock: MIFKUJ_clean_linker_0, # of connection points: 2
#     Edge 47, Type (0, 1), BuildingBlock: MIFKUJ_clean_linker_0, # of connection points: 2
#     Edge 48, Type (0, 1), BuildingBlock: MIFKUJ_clean_linker_0, # of connection points: 2
#     Edge 49, Type (0, 1), BuildingBlock: MIFKUJ_clean_linker_0, # of connection points: 2
#     Edge 50, Type (0, 1), BuildingBlock: MIFKUJ_clean_linker_0, # of connection points: 2
#     Edge 51, Type (0, 1), BuildingBlock: MIFKUJ_clean_linker_0, # of connection points: 2
#     Edge 52, Type (0, 1), BuildingBlock: MIFKUJ_clean_linker_0, # of connection points: 2
#     Edge 53, Type (0, 1), BuildingBlock: MIFKUJ_clean_linker_0, # of connection points: 2
#     Edge 54, Type (0, 1), BuildingBlock: MIFKUJ_clean_linker_0, # of connection points: 2
#     Edge 55, Type (0, 1), BuildingBlock: MIFKUJ_clean_linker_0, # of connection points: 2
#     Edge 56, Type (0, 1), BuildingBlock: MIFKUJ_clean_linker_0, # of connection points: 2
#     Edge 57, Type (0, 1), BuildingBlock: MIFKUJ_clean_linker_0, # of connection points: 2
#     Edge 58, Type (0, 1), BuildingBlock: MIFKUJ_clean_linker_0, # of connection points: 2
#     Edge 59, Type (0, 1), BuildingBlock: MIFKUJ_clean_linker_0, # of connection points: 2
#     Edge 60, Type (0, 1), BuildingBlock: MIFKUJ_clean_linker_0, # of connection points: 2
#     Edge 61, Type (0, 1), BuildingBlock: MIFKUJ_clean_linker_0, # of connection points: 2
#     Edge 62, Type (0, 1), BuildingBlock: MIFKUJ_clean_linker_0, # of connection points: 2
#     Edge 63, Type (0, 1), BuildingBlock: MIFKUJ_clean_linker_0, # of connection points: 2
#     Edge 64, Type (0, 1), BuildingBlock: MIFKUJ_clean_linker_0, # of connection points: 2
#     Edge 65, Type (0, 1), BuildingBlock: MIFKUJ_clean_linker_0, # of connection points: 2
#     Edge 66, Type (0, 1), BuildingBlock: MIFKUJ_clean_linker_0, # of connection points: 2
#     Edge 67, Type (0, 1), BuildingBlock: MIFKUJ_clean_linker_0, # of connection points: 2
#     Edge 68, Type (0, 1), BuildingBlock: MIFKUJ_clean_linker_0, # of connection points: 2
#     Edge 69, Type (0, 1), BuildingBlock: MIFKUJ_clean_linker_0, # of connection points: 2
#     Edge 70, Type (0, 1), BuildingBlock: MIFKUJ_clean_linker_0, # of connection points: 2
#     Edge 71, Type (0, 1), BuildingBlock: MIFKUJ_clean_linker_0, # of connection points: 2
#     Edge 72, Type (0, 1), BuildingBlock: MIFKUJ_clean_linker_0, # of connection points: 2
#     Edge 73, Type (0, 1), BuildingBlock: MIFKUJ_clean_linker_0, # of connection points: 2
#     Edge 74, Type (0, 1), BuildingBlock: MIFKUJ_clean_linker_0, # of connection points: 2
#     Edge 75, Type (0, 1), BuildingBlock: MIFKUJ_clean_linker_0, # of connection points: 2
#     Edge 76, Type (0, 1), BuildingBlock: MIFKUJ_clean_linker_0, # of connection points: 2
#     Edge 77, Type (0, 1), BuildingBlock: MIFKUJ_clean_linker_0, # of connection points: 2
#     Edge 78, Type (0, 1), BuildingBlock: MIFKUJ_clean_linker_0, # of connection points: 2
#     Edge 79, Type (0, 1), BuildingBlock: MIFKUJ_clean_linker_0, # of connection points: 2
#     Edge 80, Type (0, 1), BuildingBlock: MIFKUJ_clean_linker_0, # of connection points: 2
#     Edge 81, Type (0, 1), BuildingBlock: MIFKUJ_clean_linker_0, # of connection points: 2
#     Edge 82, Type (0, 1), BuildingBlock: MIFKUJ_clean_linker_0, # of connection points: 2
#     Edge 83, Type (0, 1), BuildingBlock: MIFKUJ_clean_linker_0, # of connection points: 2
#     Edge 84, Type (0, 1), BuildingBlock: MIFKUJ_clean_linker_0, # of connection points: 2
#     Edge 85, Type (0, 1), BuildingBlock: MIFKUJ_clean_linker_0, # of connection points: 2
#     Edge 86, Type (0, 1), BuildingBlock: MIFKUJ_clean_linker_0, # of connection points: 2
#     Edge 87, Type (0, 1), BuildingBlock: MIFKUJ_clean_linker_0, # of connection points: 2
#     Edge 88, Type (0, 1), BuildingBlock: MIFKUJ_clean_linker_0, # of connection points: 2
#     Edge 89, Type (0, 1), BuildingBlock: MIFKUJ_clean_linker_0, # of connection points: 2
#     Edge 90, Type (0, 1), BuildingBlock: MIFKUJ_clean_linker_0, # of connection points: 2
#     Edge 91, Type (0, 1), BuildingBlock: MIFKUJ_clean_linker_0, # of connection points: 2
#     Edge 92, Type (0, 1), BuildingBlock: MIFKUJ_clean_linker_0, # of connection points: 2
#     Edge 93, Type (0, 1), BuildingBlock: MIFKUJ_clean_linker_0, # of connection points: 2
#     Edge 94, Type (0, 1), BuildingBlock: MIFKUJ_clean_linker_0, # of connection points: 2
#     Edge 95, Type (0, 1), BuildingBlock: MIFKUJ_clean_linker_0, # of connection points: 2
#     Edge 96, Type (0, 1), BuildingBlock: MIFKUJ_clean_linker_0, # of connection points: 2
#     Edge 97, Type (0, 1), BuildingBlock: MIFKUJ_clean_linker_0, # of connection points: 2
#     Edge 98, Type (0, 1), BuildingBlock: MIFKUJ_clean_linker_0, # of connection points: 2
#     Edge 99, Type (0, 1), BuildingBlock: MIFKUJ_clean_linker_0, # of connection points: 2
#     Edge 100, Type (0, 1), BuildingBlock: MIFKUJ_clean_linker_0, # of connection points: 2
#     Edge 101, Type (0, 1), BuildingBlock: MIFKUJ_clean_linker_0, # of connection points: 2
#     Edge 102, Type (0, 1), BuildingBlock: MIFKUJ_clean_linker_0, # of connection points: 2
#     Edge 103, Type (0, 1), BuildingBlock: MIFKUJ_clean_linker_0, # of connection points: 2
#     Edge 104, Type (0, 1), BuildingBlock: MIFKUJ_clean_linker_0, # of connection points: 2
#     Edge 105, Type (0, 1), BuildingBlock: MIFKUJ_clean_linker_0, # of connection points: 2
#     Edge 106, Type (0, 1), BuildingBlock: MIFKUJ_clean_linker_0, # of connection points: 2
#     Edge 107, Type (0, 1), BuildingBlock: MIFKUJ_clean_linker_0, # of connection points: 2
#     Edge 108, Type (0, 1), BuildingBlock: MIFKUJ_clean_linker_0, # of connection points: 2
#     Edge 109, Type (0, 1), BuildingBlock: MIFKUJ_clean_linker_0, # of connection points: 2
#     Edge 110, Type (0, 1), BuildingBlock: MIFKUJ_clean_linker_0, # of connection points: 2
#     Edge 111, Type (0, 1), BuildingBlock: MIFKUJ_clean_linker_0, # of connection points: 2
#     Edge 112, Type (0, 1), BuildingBlock: MIFKUJ_clean_linker_0, # of connection points: 2
#     Edge 113, Type (0, 1), BuildingBlock: MIFKUJ_clean_linker_0, # of connection points: 2
#     Edge 114, Type (0, 1), BuildingBlock: MIFKUJ_clean_linker_0, # of connection points: 2
#     Edge 115, Type (0, 1), BuildingBlock: MIFKUJ_clean_linker_0, # of connection points: 2
#     Edge 116, Type (0, 1), BuildingBlock: MIFKUJ_clean_linker_0, # of connection points: 2
#     Edge 117, Type (0, 1), BuildingBlock: MIFKUJ_clean_linker_0, # of connection points: 2
#     Edge 118, Type (0, 1), BuildingBlock: MIFKUJ_clean_linker_0, # of connection points: 2
#     Edge 119, Type (0, 1), BuildingBlock: MIFKUJ_clean_linker_0, # of connection points: 2
#     Edge 120, Type (0, 1), BuildingBlock: MIFKUJ_clean_linker_0, # of connection points: 2
#     Edge 121, Type (0, 1), BuildingBlock: MIFKUJ_clean_linker_0, # of connection points: 2
#     Edge 122, Type (0, 1), BuildingBlock: MIFKUJ_clean_linker_0, # of connection points: 2
#     Edge 123, Type (0, 1), BuildingBlock: MIFKUJ_clean_linker_0, # of connection points: 2
#     Edge 124, Type (0, 1), BuildingBlock: MIFKUJ_clean_linker_0, # of connection points: 2
#     Edge 125, Type (0, 1), BuildingBlock: MIFKUJ_clean_linker_0, # of connection points: 2
#     Edge 126, Type (0, 1), BuildingBlock: MIFKUJ_clean_linker_0, # of connection points: 2
#     Edge 127, Type (0, 1), BuildingBlock: MIFKUJ_clean_linker_0, # of connection points: 2
#     Edge 128, Type (0, 1), BuildingBlock: MIFKUJ_clean_linker_0, # of connection points: 2
#     Edge 129, Type (0, 1), BuildingBlock: MIFKUJ_clean_linker_0, # of connection points: 2
#     Edge 130, Type (0, 1), BuildingBlock: MIFKUJ_clean_linker_0, # of connection points: 2
#     Edge 131, Type (0, 1), BuildingBlock: MIFKUJ_clean_linker_0, # of connection points: 2
#     Edge 132, Type (0, 1), BuildingBlock: MIFKUJ_clean_linker_0, # of connection points: 2
#     Edge 133, Type (0, 1), BuildingBlock: MIFKUJ_clean_linker_0, # of connection points: 2
#     Edge 134, Type (0, 1), BuildingBlock: MIFKUJ_clean_linker_0, # of connection points: 2
#     Edge 135, Type (0, 1), BuildingBlock: MIFKUJ_clean_linker_0, # of connection points: 2
# Relax obj value: 0.093
# Max RMSD: 0.172
# Mean RMSD: 0.088
data_MOF--net-iac--node1-QUQFOY_clean_sbu_3--node2-CIFDUS_clean_sbu_1--edge1-MIFKUJ_clean_linker_0
_symmetry_space_group_name_H-M    P1
_symmetry_Int_Tables_number       1
_symmetry_cell_setting            triclinic
loop_
_symmetry_equiv_pos_as_xyz
'x, y, z'
_cell_length_a     69.615599
_cell_length_b     70.766008
_cell_length_c     70.32625
_cell_angle_alpha  90.95443
_cell_angle_beta   89.957213
_cell_angle_gamma 90.470827
loop_
_atom_site_label
_atom_site_type_symbol
_atom_site_fract_x
_atom_site_fract_y
_atom_site_fract_z
_atom_type_partial_charge
C0 C 0.9625 0.25545 0.15644 0.0
O1 O 0.9738 0.24665 0.1673 0.0
Cd2 Cd 0.00672 0.23995 0.16112 0.0
O3 O 0.96845 0.2622 0.14077 0.0
Cd4 Cd -0.00061 0.26568 0.12313 0.0
C5 C 0.00352 0.21775 0.11681 0.0
O6 O 0.01851 0.26978 0.15155 0.0
O7 O 0.03485 0.26782 0.12571 0.0
O8 O 0.98808 0.29778 0.11831 0.0
C9 C 0.03481 0.26987 0.14365 0.0
O10 O 0.00701 0.21721 0.13458 0.0
C11 C 0.99193 0.29835 0.1007 0.0
O12 O -0.00057 0.23334 0.1089 0.0
O13 O -0.00095 0.28348 0.09321 0.0
C14 C 0.96524 0.7614 0.34593 0.0
O15 O 0.9764 0.76774 0.33319 0.0
Cd16 Cd 0.01049 0.76994 0.33675 0.0
O17 O 0.97198 0.75384 0.36078 0.0
Cd18 Cd 0.00294 0.74536 0.37509 0.0
C19 C 0.00886 0.79259 0.38063 0.0
O20 O 0.02174 0.73997 0.34656 0.0
O21 O 0.03782 0.74327 0.37259 0.0
O22 O 0.99054 0.71392 0.3808 0.0
C23 C 0.03795 0.74028 0.35476 0.0
O24 O 0.01235 0.79305 0.36285 0.0
C25 C 0.99367 0.71425 0.3986 0.0
O26 O 0.00457 0.77713 0.38873 0.0
O27 O 0.00109 0.72929 0.40563 0.0
C28 C 0.46224 0.74753 0.64633 0.0
O29 O 0.47278 0.73875 0.65794 0.0
Cd30 Cd 0.50629 0.73217 0.65319 0.0
O31 O 0.46928 0.75454 0.63125 0.0
Cd32 Cd 0.50101 0.75909 0.61576 0.0
C33 C 0.50652 0.71161 0.608 0.0
O34 O 0.51956 0.76178 0.64482 0.0
O35 O 0.53631 0.76096 0.61911 0.0
O36 O 0.49166 0.79185 0.61232 0.0
C37 C 0.53601 0.76189 0.63714 0.0
O38 O 0.50915 0.71044 0.62588 0.0
C39 C 0.49362 0.79241 0.5944 0.0
O40 O 0.50216 0.72734 0.60053 0.0
O41 O 0.49914 0.77729 0.58609 0.0
C42 C 0.45819 0.2659 0.83945 0.0
O43 O 0.46643 0.27281 0.82499 0.0
Cd44 Cd 0.50043 0.27861 0.82339 0.0
O45 O 0.46801 0.25969 0.85322 0.0
Cd46 Cd 0.50168 0.25491 0.86271 0.0
C47 C 0.50385 0.30267 0.86623 0.0
O48 O 0.5168 0.25039 0.83168 0.0
O49 O 0.53574 0.25636 0.85538 0.0
O50 O 0.49376 0.22276 0.87166 0.0
C51 C 0.53384 0.25274 0.83775 0.0
O52 O 0.50454 0.30301 0.84813 0.0
C53 C 0.49898 0.22464 0.8889 0.0
O54 O 0.50215 0.28712 0.87498 0.0
O55 O 0.50576 0.24068 0.894 0.0
C56 C 0.10021 0.01313 0.29874 0.0
O57 O 0.08889 0.02365 0.2896 0.0
Cd58 Cd 0.08958 0.0282 0.25587 0.0
O59 O 0.11333 0.00392 0.2901 0.0
Cd60 Cd 0.12549 -0.0007 0.25702 0.0
C61 C 0.13537 0.04632 0.25059 0.0
O62 O 0.09418 -0.00205 0.24126 0.0
O63 O 0.11897 -0.00188 0.22282 0.0
O64 O 0.12841 0.96568 0.26333 0.0
C65 C 0.10084 0.99737 0.22447 0.0
O66 O 0.11723 0.04839 0.25009 0.0
C67 C 0.14644 0.96478 0.26094 0.0
O68 O 0.14265 0.03017 0.25384 0.0
O69 O 0.15501 0.98007 0.25664 0.0
C70 C 0.29573 0.90751 0.50119 0.0
O71 O 0.28734 0.922 0.49489 0.0
Cd72 Cd 0.2542 0.9233 0.48608 0.0
O73 O 0.28619 0.89264 0.50507 0.0
Cd74 Cd 0.25251 0.88121 0.50503 0.0
C75 C 0.25575 0.88368 0.45692 0.0
O76 O 0.23594 0.91048 0.51127 0.0
O77 O 0.2182 0.88786 0.5 0.0
O78 O 0.25468 0.8708 0.53759 0.0
C79 C 0.2194 0.90481 0.50614 0.0
O80 O 0.25371 0.90149 0.45885 0.0
C81 C 0.25243 0.8533 0.53392 0.0
O82 O 0.25661 0.87303 0.47136 0.0
O83 O 0.25007 0.84849 0.51656 0.0
C84 C 0.40301 0.99411 0.78777 0.0
O85 O 0.41805 0.98829 0.77938 0.0
Cd86 Cd 0.41852 0.97919 0.74658 0.0
O87 O 0.3878 0.99748 0.77843 0.0
Cd88 Cd 0.3775 -0.00174 0.74476 0.0
C89 C 0.37812 0.95074 0.74608 0.0
O90 O 0.40791 0.00604 0.72945 0.0
O91 O 0.3854 0.99528 0.71104 0.0
O92 O 0.36578 0.02981 0.75106 0.0
C93 C 0.40209 0.00243 0.7127 0.0
O94 O 0.39636 0.95208 0.74517 0.0
C95 C 0.34893 0.0269 0.74471 0.0
O96 O 0.36773 0.96546 0.74664 0.0
O97 O 0.34508 0.01032 0.73851 0.0
C98 C 0.27791 0.09497 0.99456 0.0
O99 O 0.26629 0.0836 0.0024 0.0
Cd100 Cd 0.23559 0.09432 0.0135 0.0
O101 O 0.27273 0.11173 0.99095 0.0
Cd102 Cd 0.24391 0.132 0.99249 0.0
C103 C 0.24948 0.13356 0.0401 0.0
O104 O 0.21802 0.10878 0.98819 0.0
O105 O 0.20984 0.13641 -0.00104 0.0
O106 O 0.24886 0.13538 0.959 0.0
C107 C 0.20473 0.12019 0.99278 0.0
O108 O 0.24365 0.11646 0.03931 0.0
C109 C 0.25036 0.15323 0.95889 0.0
O110 O 0.2515 0.14314 0.02501 0.0
O111 O 0.24894 0.16184 0.97487 0.0
C112 C 0.80043 0.40615 -0.00172 0.0
O113 O 0.79051 0.41863 0.99013 0.0
Cd114 Cd 0.75672 0.4169 0.98475 0.0
O115 O 0.79231 0.39202 0.00603 0.0
Cd116 Cd 0.75901 0.3802 0.01118 0.0
C117 C 0.75732 0.37268 0.96363 0.0
O118 O 0.74186 0.40992 0.01428 0.0
O119 O 0.72429 0.38512 0.00904 0.0
O120 O 0.76457 0.37426 0.04461 0.0
C121 C 0.72519 0.40273 0.01262 0.0
O122 O 0.75482 0.39041 0.96215 0.0
C123 C 0.76112 0.35662 0.04357 0.0
O124 O 0.75982 0.36527 0.97981 0.0
O125 O 0.75698 0.34974 0.02726 0.0
C126 C 0.90235 0.49213 0.28858 0.0
O127 O 0.91705 0.48588 0.2799 0.0
Cd128 Cd 0.9173 0.4787 0.24645 0.0
O129 O 0.8875 0.49703 0.27939 0.0
Cd130 Cd 0.87708 0.5006 0.24594 0.0
C131 C 0.87495 0.45282 0.24457 0.0
O132 O 0.90777 0.50626 0.23019 0.0
O133 O 0.88431 0.49742 0.21196 0.0
O134 O 0.87011 0.53326 0.25339 0.0
C135 C 0.90166 0.50291 0.21348 0.0
O136 O 0.89318 0.45347 0.24292 0.0
C137 C 0.85251 0.53279 0.24872 0.0
O138 O 0.86523 0.4679 0.24692 0.0
O139 O 0.84588 0.517 0.24261 0.0
C140 C 0.77167 0.58698 0.49591 0.0
O141 O 0.75829 0.5766 0.50234 0.0
Cd142 Cd 0.7284 0.59053 0.51259 0.0
O143 O 0.7688 0.60445 0.49315 0.0
Cd144 Cd 0.74243 0.6276 0.49391 0.0
C145 C 0.74394 0.62725 0.5418 0.0
O146 O 0.71473 0.60729 0.48658 0.0
O147 O 0.70832 0.63518 0.49777 0.0
O148 O 0.75143 0.63228 0.4613 0.0
C149 C 0.70222 0.61972 0.49055 0.0
O150 O 0.73535 0.61134 0.54004 0.0
C151 C 0.75413 0.65 0.4625 0.0
O152 O 0.74947 0.63621 0.52717 0.0
O153 O 0.75147 0.65777 0.47875 0.0
C154 C 0.59954 0.50043 0.78709 0.0
O155 O 0.58887 0.51092 0.7772 0.0
Cd156 Cd 0.59338 0.51654 0.74393 0.0
O157 O 0.61381 0.49201 0.77954 0.0
Cd158 Cd 0.62886 0.48789 0.74777 0.0
C159 C 0.63959 0.53461 0.74266 0.0
O160 O 0.59851 0.486 0.73045 0.0
O161 O 0.62395 0.48667 0.71313 0.0
O162 O 0.63225 0.45587 0.75946 0.0
C163 C 0.60579 0.48561 0.71396 0.0
O164 O 0.62169 0.53664 0.73963 0.0
C165 C 0.64912 0.45328 0.7532 0.0
O166 O 0.64627 0.51868 0.74767 0.0
O167 O 0.65692 0.46696 0.7445 0.0
C168 C 0.98011 0.76244 0.84573 0.0
O169 O 0.99168 0.7728 0.83653 0.0
Cd170 Cd 0.02226 0.78169 0.84904 0.0
O171 O 0.9851 0.75552 0.86162 0.0
Cd172 Cd 0.01403 0.75444 0.8828 0.0
C173 C 0.00809 0.80125 0.89207 0.0
O174 O 0.03725 0.75235 0.85691 0.0
O175 O 0.04934 0.75649 0.88491 0.0
O176 O 0.00454 0.72135 0.88478 0.0
C177 C 0.05203 0.75275 0.86743 0.0
O178 O 0.01392 0.80338 0.87508 0.0
C179 C 0.00849 0.71951 0.90225 0.0
O180 O 0.00654 0.78478 0.89904 0.0
O181 O 0.01426 0.73426 0.91117 0.0
C182 C 0.98694 0.24798 0.67324 0.0
O183 O 0.00266 0.24424 0.68147 0.0
Cd184 Cd 0.03298 0.24234 0.66496 0.0
O185 O 0.98674 0.25284 0.65588 0.0
Cd186 Cd 0.0093 0.25933 0.62955 0.0
C187 C 0.01841 0.21265 0.62829 0.0
O188 O 0.03769 0.27014 0.64674 0.0
O189 O 0.04188 0.26157 0.61751 0.0
O190 O 0.993 0.28874 0.62328 0.0
C191 C 0.04913 0.26807 0.63281 0.0
O192 O 0.02889 0.21545 0.64295 0.0
C193 C 0.99152 0.28585 0.60546 0.0
O194 O 0.00862 0.22595 0.62122 0.0
O195 O -0.00248 0.27012 0.59891 0.0
C196 C 0.48323 0.25894 0.33793 0.0
O197 O 0.49588 0.26946 0.33041 0.0
Cd198 Cd 0.52663 0.27389 0.34527 0.0
O199 O 0.48684 0.25037 0.35329 0.0
Cd200 Cd 0.51331 0.24641 0.37631 0.0
C201 C 0.51165 0.29327 0.38766 0.0
O202 O 0.53808 0.24261 0.35193 0.0
O203 O 0.54824 0.24426 0.38091 0.0
O204 O 0.49962 0.21466 0.37648 0.0
C205 C 0.55179 0.24057 0.36356 0.0
O206 O 0.52051 0.29548 0.372 0.0
C207 C 0.50301 0.21163 0.39387 0.0
O208 O 0.50629 0.27684 0.39273 0.0
O209 O 0.5102 0.22526 0.40356 0.0
C210 C 0.48871 0.75662 0.1585 0.0
O211 O 0.50298 0.75097 0.16804 0.0
Cd212 Cd 0.53438 0.74645 0.15496 0.0
O213 O 0.49075 0.7615 0.14123 0.0
Cd214 Cd 0.51599 0.76503 0.11647 0.0
C215 C 0.52061 0.71746 0.11715 0.0
O216 O 0.54183 0.77402 0.13742 0.0
O217 O 0.55045 0.76676 0.10886 0.0
O218 O 0.50131 0.79515 0.11034 0.0
C219 C 0.5553 0.77228 0.12541 0.0
O220 O 0.52906 0.71982 0.1331 0.0
C221 C 0.50159 0.79358 0.09234 0.0
O222 O 0.51368 0.73142 0.10826 0.0
O223 O 0.50806 0.77823 0.08531 0.0
C224 C 0.91248 0.9883 0.77584 0.0
O225 O 0.92113 0.97754 0.76409 0.0
Cd226 Cd 0.90777 0.96834 0.7342 0.0
O227 O 0.89641 0.99567 0.77147 0.0
Cd228 Cd 0.87395 0.99653 0.74352 0.0
C229 C 0.86464 0.94996 0.75025 0.0
O230 O 0.89867 0.99699 0.71912 0.0
O231 O 0.86989 0.99181 0.70886 0.0
O232 O 0.8725 0.03068 0.7483 0.0
C233 C 0.88734 0.99542 0.70509 0.0
O234 O 0.88146 0.94758 0.74356 0.0
C235 C 0.85435 0.03192 0.74754 0.0
O236 O 0.85776 0.96653 0.75222 0.0
O237 O 0.84499 0.01647 0.7459 0.0
C238 C 0.77601 0.07578 0.50418 0.0
O239 O 0.76034 0.06897 0.51042 0.0
Cd240 Cd 0.73145 0.08623 0.51582 0.0
O241 O 0.77707 0.09301 0.49916 0.0
Cd242 Cd 0.75485 0.12057 0.49729 0.0
C243 C 0.75035 0.12102 0.54509 0.0
O244 O 0.7251 0.10449 0.48831 0.0
O245 O 0.72235 0.13291 0.49937 0.0
O246 O 0.76768 0.12902 0.46632 0.0
C247 C 0.71433 0.11848 0.49194 0.0
O248 O 0.73918 0.10677 0.54306 0.0
C249 C 0.76953 0.14653 0.47023 0.0
O250 O 0.75892 0.12817 0.53086 0.0
O251 O 0.76563 0.15181 0.48713 0.0
C252 C 0.57621 -0.00132 0.26626 0.0
O253 O 0.56615 0.00542 0.25299 0.0
Cd254 Cd 0.58018 0.01652 0.22403 0.0
O255 O 0.59426 0.99657 0.26414 0.0
Cd256 Cd 0.62009 0.00035 0.24015 0.0
C257 C 0.6139 0.04777 0.24309 0.0
O258 O 0.60155 0.99315 0.21173 0.0
O259 O 0.62931 0.00622 0.2073 0.0
O260 O 0.62786 0.96812 0.24721 0.0
C261 C 0.61425 -0.00117 0.20016 0.0
O262 O 0.59852 0.04448 0.23376 0.0
C263 C 0.64574 0.97062 0.24973 0.0
O264 O 0.62448 0.03421 0.24855 0.0
O265 O 0.65204 0.9875 0.24848 0.0
C266 C 0.77135 0.9051 0.00291 0.0
O267 O 0.76153 0.91734 0.99431 0.0
Cd268 Cd 0.72862 0.91278 0.98547 0.0
O269 O 0.76335 0.89006 0.00893 0.0
Cd270 Cd 0.73017 0.87615 0.01063 0.0
C271 C 0.73155 0.86941 0.9627 0.0
O272 O 0.71055 0.90474 0.01322 0.0
O273 O 0.6956 0.87835 0.00744 0.0
O274 O 0.73476 0.87297 0.04449 0.0
C275 C 0.69471 0.89588 0.0113 0.0
O276 O 0.72988 0.88728 0.96186 0.0
C277 C 0.73088 0.85546 0.04525 0.0
O278 O 0.73233 0.86113 0.97867 0.0
O279 O 0.72743 0.84696 0.02951 0.0
C280 C 0.2808 0.59924 -0.00115 0.0
O281 O 0.26679 0.5898 0.00548 0.0
Cd282 Cd 0.23559 0.60221 0.01205 0.0
O283 O 0.27877 0.61656 0.99456 0.0
Cd284 Cd 0.25311 0.64097 0.99432 0.0
C285 C 0.24916 0.63895 0.04219 0.0
O286 O 0.22694 0.61999 0.98511 0.0
O287 O 0.21843 0.64754 0.99509 0.0
O288 O 0.26658 0.65012 0.96386 0.0
C289 C 0.21347 0.63149 0.98842 0.0
O290 O 0.24004 0.62347 0.03936 0.0
C291 C 0.26517 0.66782 0.96666 0.0
O292 O 0.25692 0.64777 0.02845 0.0
O293 O 0.2588 0.67325 0.98277 0.0
C294 C 0.08347 0.49105 0.76302 0.0
O295 O 0.07428 0.49773 0.7491 0.0
Cd296 Cd 0.08947 0.50556 0.71963 0.0
O297 O 0.10116 0.48683 0.76127 0.0
Cd298 Cd 0.12706 0.48632 0.73683 0.0
C299 C 0.12564 0.53399 0.73809 0.0
O300 O 0.10832 0.47946 0.70829 0.0
O301 O 0.13684 0.49077 0.70394 0.0
O302 O 0.1348 0.45468 0.74698 0.0
C303 C 0.12151 0.48405 0.69674 0.0
O304 O 0.11004 0.53242 0.72871 0.0
C305 C 0.15275 0.45752 0.74863 0.0
O306 O 0.13454 0.51943 0.7437 0.0
O307 O 0.15892 0.47407 0.74515 0.0
C308 C 0.27635 0.41023 0.50613 0.0
O309 O 0.26674 0.42248 0.49728 0.0
Cd310 Cd 0.23288 0.41932 0.49038 0.0
O311 O 0.26798 0.39569 0.51279 0.0
Cd312 Cd 0.23491 0.38217 0.51476 0.0
C313 C 0.232 0.37649 0.46652 0.0
O314 O 0.2159 0.41108 0.51865 0.0
O315 O 0.20014 0.38477 0.51434 0.0
O316 O 0.23706 0.37779 0.54871 0.0
C317 C 0.19985 0.4024 0.51789 0.0
O318 O 0.23023 0.39438 0.46638 0.0
C319 C 0.2373 0.35989 0.54813 0.0
O320 O 0.23473 0.36795 0.48214 0.0
O321 O 0.23695 0.35192 0.53179 0.0
C322 C 0.41362 0.49623 0.26783 0.0
O323 O 0.42246 0.48705 0.25493 0.0
Cd324 Cd 0.40757 0.47936 0.22542 0.0
O325 O 0.39691 0.50281 0.26469 0.0
Cd326 Cd 0.37329 0.50477 0.23791 0.0
C327 C 0.36643 0.45786 0.24253 0.0
O328 O 0.3968 0.50874 0.21268 0.0
O329 O 0.36802 0.50173 0.20347 0.0
O330 O 0.37029 0.53778 0.24762 0.0
C331 C 0.38477 0.50739 0.1992 0.0
O332 O 0.383 0.45656 0.23496 0.0
C333 C 0.35232 0.53883 0.24491 0.0
O334 O 0.35888 0.47396 0.24563 0.0
O335 O 0.34368 0.52361 0.24006 0.0
O336 O 0.01164 0.02546 0.00181 0.0
Mn337 Mn 0.98897 0.00659 0.00776 0.0
O338 O 0.03797 0.00786 0.99683 0.0
Mn339 Mn 0.02884 0.98772 0.01062 0.0
O340 O 0.96636 0.98785 0.01351 0.0
O341 O 0.97263 0.02893 0.01383 0.0
Mn342 Mn 0.94919 0.02615 0.00508 0.0
O343 O 0.98046 0.00734 0.97925 0.0
O344 O 0.93956 0.0051 0.01727 0.0
O345 O -0.00269 0.00612 0.0362 0.0
O346 O 0.02647 0.99237 0.03662 0.0
O347 O 0.95044 0.04994 0.01655 0.0
O348 O 0.95251 0.02333 0.97898 0.0
C349 C 0.01018 0.96689 -0.00248 0.0
C350 C 0.0292 0.02357 0.99643 0.0
C351 C 0.94851 0.98947 0.0179 0.0
C352 C 0.96812 0.04557 0.01979 0.0
C353 C 0.96621 0.01473 0.97044 0.0
C354 C 0.01231 0.00035 0.04492 0.0
O355 O 0.00529 0.9839 0.00216 0.0
O356 O 0.028 0.96324 0.00103 0.0
O357 O 0.28929 0.75817 0.24461 0.0
Mn358 Mn 0.26151 0.75698 0.25569 0.0
O359 O 0.2883 0.77743 0.21936 0.0
Mn360 Mn 0.26176 0.77841 0.21732 0.0
O361 O 0.23374 0.75576 0.26662 0.0
O362 O 0.26881 0.73424 0.27067 0.0
Mn363 Mn 0.26203 0.73729 0.29464 0.0
O364 O 0.27013 0.77548 0.27777 0.0
O365 O 0.23558 0.74048 0.29444 0.0
O366 O 0.25348 0.7388 0.2333 0.0
O367 O 0.25009 0.75681 0.20733 0.0
O368 O 0.27324 0.71378 0.29289 0.0
O369 O 0.27598 0.75788 0.30335 0.0
C370 C 0.24626 0.79572 0.23739 0.0
C371 C 0.29744 0.7673 0.23112 0.0
C372 C 0.22606 0.74901 0.28169 0.0
C373 C 0.27531 0.7179 0.27515 0.0
C374 C 0.27656 0.77357 0.29477 0.0
C375 C 0.24898 0.74099 0.21574 0.0
O376 O 0.25374 0.7796 0.24094 0.0
O377 O 0.24872 0.80105 0.22006 0.0
O378 O 0.48648 0.98215 0.49525 0.0
Mn379 Mn 0.50901 0.00148 0.49768 0.0
O380 O 0.45927 -0.00104 0.49826 0.0
Mn381 Mn 0.47058 0.02268 0.50108 0.0
O382 O 0.53202 0.02065 0.50101 0.0
O383 O 0.5252 0.98057 0.50654 0.0
Mn384 Mn 0.54849 0.98048 0.49723 0.0
O385 O 0.51698 0.99553 0.46978 0.0
O386 O 0.55824 0.00308 0.5068 0.0
O387 O 0.50143 0.00718 0.52601 0.0
O388 O 0.47797 0.02875 0.52566 0.0
O389 O 0.54539 0.9586 0.51157 0.0
O390 O 0.54479 0.97943 0.47094 0.0
C391 C 0.48544 0.03595 0.47821 0.0
C392 C 0.46815 0.98332 0.49642 0.0
C393 C 0.54975 0.01899 0.50607 0.0
C394 C 0.52807 0.96454 0.51409 0.0
C395 C 0.53092 0.9867 0.4617 0.0
C396 C 0.49044 0.01916 0.53446 0.0
O397 O 0.49216 0.0222 0.48798 0.0
O398 O 0.46829 0.0411 0.48301 0.0
O399 O 0.27278 0.24367 0.76838 0.0
Mn400 Mn 0.25422 0.24183 0.74521 0.0
O401 O 0.30292 0.24242 0.75687 0.0
Mn402 Mn 0.29614 0.23892 0.73159 0.0
O403 O 0.2354 0.24007 0.72205 0.0
O404 O 0.23439 0.23199 0.76277 0.0
Mn405 Mn 0.21119 0.23968 0.75797 0.0
O406 O 0.245 0.26921 0.75105 0.0
O407 O 0.20689 0.23025 0.73359 0.0
O408 O 0.26204 0.21387 0.73928 0.0
O409 O 0.2905 0.21425 0.72439 0.0
O410 O 0.21001 0.22505 0.7799 0.0
O411 O 0.21389 0.26596 0.75994 0.0
C412 C 0.28402 0.26088 0.71477 0.0
C413 C 0.29105 0.24365 0.77064 0.0
C414 C 0.21822 0.23363 0.71978 0.0
C415 C 0.2284 0.22394 0.77783 0.0
C416 C 0.22882 0.27612 0.75656 0.0
C417 C 0.2755 0.20554 0.72997 0.0
O418 O 0.27481 0.25181 0.72779 0.0
O419 O 0.30192 0.25625 0.71321 0.0
O420 O 0.00233 0.97517 0.49378 0.0
Mn421 Mn 0.00369 0.00153 0.50709 0.0
O422 O 0.01907 0.95552 0.51245 0.0
Mn423 Mn 0.02719 0.97305 0.53083 0.0
O424 O 0.00533 0.02778 0.52053 0.0
O425 O -0.001 0.01406 0.48219 0.0
Mn426 Mn 0.98002 0.03028 0.48431 0.0
O427 O 0.97402 -0.00028 0.51297 0.0
O428 O 0.98771 0.04764 0.50306 0.0
O429 O 0.03322 0.00293 0.50114 0.0
O430 O 0.0484 0.9874 0.52432 0.0
O431 O 0.9893 0.03214 0.45979 0.0
O432 O 0.95877 0.01587 0.49031 0.0
C433 C 0.00505 0.98425 0.54916 0.0
C434 C 0.0089 0.95878 0.49773 0.0
C435 C -0.00168 0.04415 0.51739 0.0
C436 C 0.00167 0.01972 0.46505 0.0
C437 C 0.95865 0.00474 0.50432 0.0
C438 C 0.04857 -0.00206 0.50981 0.0
O439 O 0.00842 0.98937 0.53202 0.0
O440 O 0.01718 0.97199 0.55524 0.0
O441 O 0.26509 0.76879 0.74385 0.0
Mn442 Mn 0.24984 0.7432 0.7424 0.0
O443 O 0.24318 0.79207 0.74504 0.0
Mn444 Mn 0.22218 0.77724 0.73819 0.0
O445 O 0.2346 0.7177 0.74126 0.0
O446 O 0.27362 0.73021 0.73394 0.0
Mn447 Mn 0.27801 0.70953 0.74651 0.0
O448 O 0.25652 0.73866 0.7712 0.0
O449 O 0.25649 0.69446 0.74237 0.0
O450 O 0.24367 0.74777 0.71375 0.0
O451 O 0.22131 0.7705 0.71267 0.0
O452 O 0.297 0.71131 0.72799 0.0
O453 O 0.28098 0.71798 0.7714 0.0
C454 C 0.2092 0.75832 0.75814 0.0
C455 C 0.26053 0.78634 0.74547 0.0
C456 C 0.23917 0.70013 0.74122 0.0
C457 C 0.2881 0.72649 0.72327 0.0
C458 C 0.26951 0.72925 0.77999 0.0
C459 C 0.23219 0.75841 0.70452 0.0
O460 O 0.22566 0.75604 0.75024 0.0
O461 O 0.20074 0.77376 0.75347 0.0
O462 O 0.46929 0.00714 0.98253 0.0
Mn463 Mn 0.49373 0.01281 -0.00111 0.0
O464 O 0.47926 0.00142 0.95248 0.0
Mn465 Mn 0.50431 0.00963 0.95582 0.0
O466 O 0.51819 0.01804 0.01543 0.0
O467 O 0.47659 0.02384 0.01912 0.0
Mn468 Mn 0.48333 0.01571 0.04168 0.0
O469 O 0.49122 0.98601 0.01029 0.0
O470 O 0.50812 0.02458 0.04524 0.0
O471 O 0.4964 0.03962 0.98726 0.0
O472 O 0.50726 0.03572 0.95723 0.0
O473 O 0.46252 0.03135 0.04553 0.0
O474 O 0.48065 0.98951 0.04036 0.0
C475 C 0.52377 0.99175 0.97085 0.0
C476 C 0.46618 0.00229 0.96515 0.0
C477 C 0.52131 0.02326 0.03274 0.0
C478 C 0.46297 0.03327 0.02726 0.0
C479 C 0.48556 0.97916 0.02614 0.0
C480 C 0.50217 0.04622 0.97129 0.0
O481 O 0.5106 0.00194 0.97855 0.0
O482 O 0.52466 0.99308 0.95255 0.0
O483 O 0.28085 0.24669 0.26469 0.0
Mn484 Mn 0.25331 0.25048 0.2541 0.0
O485 O 0.27848 0.22861 0.29066 0.0
Mn486 Mn 0.25189 0.22983 0.293 0.0
O487 O 0.22593 0.25423 0.24285 0.0
O488 O 0.26307 0.27208 0.23878 0.0
Mn489 Mn 0.25796 0.26846 0.21457 0.0
O490 O 0.25907 0.23075 0.23216 0.0
O491 O 0.23136 0.26597 0.2136 0.0
O492 O 0.2476 0.26978 0.27646 0.0
O493 O 0.24297 0.25256 0.3029 0.0
O494 O 0.26942 0.29207 0.21667 0.0
O495 O 0.27128 0.24693 0.20778 0.0
C496 C 0.23469 0.21355 0.27298 0.0
C497 C 0.28842 0.23746 0.27832 0.0
C498 C 0.22008 0.25984 0.22653 0.0
C499 C 0.26986 0.28846 0.23463 0.0
C500 C 0.26767 0.23143 0.216 0.0
C501 C 0.24339 0.26826 0.29423 0.0
O502 O 0.24349 0.2291 0.26946 0.0
O503 O 0.23647 0.20831 0.2904 0.0
O504 O 0.50059 0.47802 0.98713 0.0
Mn505 Mn 0.50544 0.50379 0.00092 0.0
O506 O 0.49859 0.45563 0.00944 0.0
Mn507 Mn 0.50632 0.47091 0.02979 0.0
O508 O 0.51001 0.52977 0.01461 0.0
O509 O 0.51476 0.51412 0.9764 0.0
Mn510 Mn 0.5048 0.53619 0.97145 0.0
O511 O 0.47727 0.51177 0.99475 0.0
O512 O 0.51242 0.55159 0.99168 0.0
O513 O 0.53372 0.49615 0.00724 0.0
O514 O 0.53243 0.47564 0.03136 0.0
O515 O 0.52088 0.53008 0.95123 0.0
O516 O 0.47854 0.53171 0.9701 0.0
C517 C 0.48675 0.49159 0.04098 0.0
C518 C 0.49767 0.46088 0.99218 0.0
C519 C 0.51273 0.54685 0.00914 0.0
C520 C 0.52383 0.51477 0.96052 0.0
C521 C 0.46915 0.52195 0.98209 0.0
C522 C 0.54187 0.48599 0.0199 0.0
O523 O 0.49618 0.49308 0.02537 0.0
O524 O 0.49002 0.4762 0.05002 0.0
O525 O 0.76763 0.26959 0.26132 0.0
Mn526 Mn 0.7484 0.24695 0.25646 0.0
O527 O 0.74966 0.29456 0.27057 0.0
Mn528 Mn 0.72686 0.28552 0.26023 0.0
O529 O 0.72878 0.22475 0.25174 0.0
O530 O 0.7695 0.23158 0.24535 0.0
Mn531 Mn 0.76915 0.20814 0.25312 0.0
O532 O 0.75466 0.23693 0.28348 0.0
O533 O 0.74567 0.19847 0.24513 0.0
O534 O 0.74289 0.25729 0.22951 0.0
O535 O 0.72679 0.28456 0.23374 0.0
O536 O 0.79001 0.21044 0.23678 0.0
O537 O 0.77213 0.21049 0.27929 0.0
C538 C 0.71056 0.26407 0.27507 0.0
C539 C 0.7659 0.28666 0.26786 0.0
C540 C 0.72978 0.2072 0.2468 0.0
C541 C 0.78456 0.22779 0.23556 0.0
C542 C 0.7645 0.22315 0.28999 0.0
C543 C 0.73475 0.2721 0.22304 0.0
O544 O 0.72699 0.26193 0.26721 0.0
O545 O 0.70431 0.28117 0.27397 0.0
O546 O 0.9648 0.49337 0.48339 0.0
Mn547 Mn 0.98775 0.49898 0.50189 0.0
O548 O 0.97713 0.48055 0.45672 0.0
Mn549 Mn 0.00033 0.49306 0.45992 0.0
O550 O 0.0103 0.50441 0.52074 0.0
O551 O 0.96917 0.51022 0.51994 0.0
Mn552 Mn 0.97283 0.50467 0.54376 0.0
O553 O 0.98363 0.4728 0.51409 0.0
O554 O -0.00267 0.51406 0.54866 0.0
O555 O 0.99137 0.5252 0.48981 0.0
O556 O -0.00125 0.5194 0.45903 0.0
O557 O 0.95088 0.51982 0.54248 0.0
O558 O 0.97086 0.47832 0.54322 0.0
C559 C 0.02276 0.48142 0.47734 0.0
C560 C 0.96291 0.48454 0.46741 0.0
C561 C 0.01173 0.51104 0.5378 0.0
C562 C 0.95401 0.5193 0.52438 0.0
C563 C 0.97652 0.4671 0.5299 0.0
C564 C 0.99489 0.53074 0.47287 0.0
O565 O 0.00675 0.48812 0.48349 0.0
O566 O 0.02407 0.48134 0.45899 0.0
O567 O 0.77645 0.76293 0.27121 0.0
Mn568 Mn 0.75372 0.75409 0.25378 0.0
O569 O 0.80204 0.76732 0.25213 0.0
Mn570 Mn 0.79311 0.7517 0.23267 0.0
O571 O 0.73086 0.7461 0.23637 0.0
O572 O 0.73818 0.74888 0.2769 0.0
Mn573 Mn 0.71496 0.75821 0.27576 0.0
O574 O 0.74432 0.78213 0.25356 0.0
O575 O 0.70401 0.74687 0.25428 0.0
O576 O 0.76342 0.72616 0.25407 0.0
O577 O 0.79179 0.72616 0.23845 0.0
O578 O 0.71705 0.74636 0.2991 0.0
O579 O 0.71933 0.78404 0.27399 0.0
C580 C 0.77234 0.763 0.21319 0.0
C581 C 0.79354 0.76923 0.26814 0.0
C582 C 0.71264 0.74387 0.23847 0.0
C583 C 0.73438 0.74283 0.29358 0.0
C584 C 0.73174 0.7916 0.26305 0.0
C585 C 0.77852 0.71775 0.24772 0.0
O586 O 0.76916 0.75873 0.23054 0.0
O587 O 0.78983 0.76 0.20786 0.0
O588 O 0.78752 0.24038 0.75392 0.0
Mn589 Mn 0.75782 0.24531 0.75515 0.0
O590 O 0.80028 0.2628 0.73522 0.0
Mn591 Mn 0.77737 0.26993 0.72442 0.0
O592 O 0.72836 0.25019 0.75651 0.0
O593 O 0.75398 0.21972 0.76663 0.0
Mn594 Mn 0.73979 0.22148 0.78733 0.0
O595 O 0.7616 0.25813 0.78192 0.0
O596 O 0.71667 0.23186 0.77986 0.0
O597 O 0.75435 0.23272 0.72853 0.0
O598 O 0.76679 0.25273 0.70709 0.0
O599 O 0.7448 0.19606 0.78361 0.0
O600 O 0.75396 0.23661 0.8039 0.0
C601 C 0.75875 0.28854 0.73999 0.0
C602 C 0.80195 0.24909 0.74659 0.0
C603 C 0.71455 0.24401 0.76685 0.0
C604 C 0.75425 0.20166 0.76887 0.0
C605 C 0.76079 0.25266 0.79926 0.0
C606 C 0.75816 0.23736 0.71136 0.0
O607 O 0.76094 0.27082 0.74338 0.0
O608 O 0.7692 0.29467 0.72614 0.0
O609 O 0.77923 0.74118 0.76631 0.0
Mn610 Mn 0.75227 0.74292 0.75351 0.0
O611 O 0.77497 0.72482 0.7932 0.0
Mn612 Mn 0.74851 0.72138 0.79125 0.0
O613 O 0.7254 0.74485 0.74033 0.0
O614 O 0.76105 0.76619 0.74031 0.0
Mn615 Mn 0.75737 0.76437 0.71569 0.0
O616 O 0.76145 0.72539 0.73106 0.0
O617 O 0.73108 0.76066 0.71321 0.0
O618 O 0.74295 0.7605 0.77606 0.0
O619 O 0.73405 0.74153 0.79987 0.0
O620 O 0.76727 0.78838 0.72043 0.0
O621 O 0.77199 0.74403 0.70768 0.0
C622 C 0.73801 0.70227 0.76953 0.0
C623 C 0.78568 0.73379 0.7816 0.0
C624 C 0.71979 0.75202 0.72456 0.0
C625 C 0.76697 0.78326 0.738 0.0
C626 C 0.76968 0.72776 0.71489 0.0
C627 C 0.73528 0.7578 0.79247 0.0
O628 O 0.74366 0.71941 0.76674 0.0
O629 O 0.73845 0.69742 0.78718 0.0
O630 O 0.51647 0.52318 0.48934 0.0
Mn631 Mn 0.49623 0.50255 0.49745 0.0
O632 O 0.54305 0.50816 0.48022 0.0
Mn633 Mn 0.53701 0.48771 0.49493 0.0
O634 O 0.47516 0.48268 0.50561 0.0
O635 O 0.4795 0.52403 0.50525 0.0
Mn636 Mn 0.4555 0.52054 0.49854 0.0
O637 O 0.48486 0.50283 0.47012 0.0
O638 O 0.44828 0.49932 0.51181 0.0
O639 O 0.50777 0.50245 0.52482 0.0
O640 O 0.53802 0.49203 0.52099 0.0
O641 O 0.45724 0.54463 0.50941 0.0
O642 O 0.45632 0.51755 0.47223 0.0
C643 C 0.52052 0.46463 0.4839 0.0
C644 C 0.53316 0.5231 0.48158 0.0
C645 C 0.45777 0.48397 0.51184 0.0
C646 C 0.47528 0.54078 0.51108 0.0
C647 C 0.46958 0.50948 0.46257 0.0
C648 C 0.5244 0.49831 0.53142 0.0
O649 O 0.51319 0.4806 0.48954 0.0
O650 O 0.53906 0.46377 0.4852 0.0
O651 O 0.98875 0.48334 0.98848 0.0
Mn652 Mn 0.01007 0.50313 0.99585 0.0
O653 O 0.96115 0.49928 0.98544 0.0
Mn654 Mn 0.96926 0.52023 -0.00073 0.0
O655 O 0.0314 0.52311 0.00282 0.0
O656 O 0.0276 0.48137 0.00099 0.0
Mn657 Mn 0.05099 0.48673 0.99291 0.0
O658 O 0.01879 0.5032 0.96753 0.0
O659 O 0.059 0.50756 0.00707 0.0
O660 O 0.0013 0.50298 0.02425 0.0
O661 O 0.97197 0.51639 0.02519 0.0
O662 O 0.05179 0.46252 0.00231 0.0
O663 O 0.04858 0.49083 0.96693 0.0
C664 C 0.98647 0.54083 0.98493 0.0
C665 C 0.97102 0.48428 0.98354 0.0
C666 C 0.04912 0.52261 0.00791 0.0
C667 C 0.03368 0.4649 0.00569 0.0
C668 C 0.03408 0.49802 0.95868 0.0
C669 C 0.98622 0.50855 0.03321 0.0
O670 O 0.99254 0.52478 0.99073 0.0
O671 O 0.9686 0.544 0.98872 0.0
H672 H 0.0038 0.2131 0.07791 0.0
H673 H 0.00438 0.18334 0.05965 0.0
H674 H 0.00483 0.15216 0.11185 0.0
H675 H 0.00493 0.18174 0.13011 0.0
H676 H 0.02722 0.13502 0.08719 0.0
H677 H 0.96284 0.15944 0.08587 0.0
H678 H 0.93781 0.1831 0.07993 0.0
H679 H 0.95304 0.18356 0.02075 0.0
H680 H 0.97832 0.16006 0.0264 0.0
H681 H 0.97975 0.049 0.05652 0.0
H682 H 0.99211 0.07821 0.07156 0.0
H683 H -0.00297 0.10363 0.01639 0.0
H684 H 0.98443 0.07456 0.00149 0.0
H685 H 0.97479 0.12412 0.04047 0.0
H686 H 0.03495 0.09314 0.04239 0.0
H687 H 0.05504 0.06585 0.04971 0.0
H688 H 0.04694 0.07621 0.10943 0.0
H689 H 0.02525 0.10262 0.10252 0.0
C690 C 0.00409 0.19991 0.08549 0.0
C691 C 0.00413 0.19985 0.10548 0.0
C692 C 0.00442 0.18288 0.07504 0.0
C693 C 0.00438 0.16543 0.08436 0.0
C694 C 0.00491 0.16538 0.1043 0.0
C695 C 0.00483 0.18236 0.11473 0.0
C696 C 0.00266 0.14722 0.07348 0.0
C697 C 0.01571 0.13259 0.07703 0.0
C698 C 0.9878 0.14406 0.06003 0.0
C699 C 0.97261 0.15818 0.0566 0.0
C700 C 0.96094 0.1647 0.07162 0.0
C701 C 0.94669 0.17806 0.0683 0.0
C702 C 0.94388 0.18487 0.04999 0.0
C703 C 0.95526 0.1783 0.03494 0.0
C704 C 0.96955 0.16496 0.03819 0.0
C705 C 0.9843 0.06057 0.04763 0.0
C706 C 0.98149 0.05959 0.0279 0.0
C707 C 0.9912 0.07729 0.0562 0.0
C708 C 0.99536 0.09316 0.04509 0.0
C709 C 0.99383 0.0916 0.02522 0.0
C710 C 0.98689 0.07495 0.01671 0.0
C711 C -0.00074 0.1119 0.0542 0.0
C712 C 0.98652 0.12662 0.05037 0.0
C713 C 0.01421 0.11492 0.06756 0.0
C714 C 0.02818 0.09979 0.07189 0.0
C715 C 0.03717 0.08949 0.05711 0.0
C716 C 0.04876 0.07406 0.0612 0.0
C717 C 0.05213 0.0692 0.08006 0.0
C718 C 0.04401 0.07984 0.09485 0.0
C719 C 0.03195 0.09497 0.09085 0.0
H720 H 0.06107 0.05724 0.08325 0.0
H721 H 0.93284 0.19521 0.04745 0.0
H722 H 0.04261 0.73701 0.31617 0.0
H723 H 0.07251 0.74085 0.29813 0.0
H724 H 0.10379 0.74923 0.35056 0.0
H725 H 0.07413 0.74544 0.36863 0.0
H726 H 0.11187 0.77658 0.32393 0.0
H727 H 0.10621 0.70806 0.3269 0.0
H728 H 0.0899 0.67743 0.32115 0.0
H729 H 0.08907 0.68774 0.26115 0.0
H730 H 0.10518 0.71856 0.2666 0.0
H731 H 0.20802 0.75251 0.31564 0.0
H732 H 0.17364 0.75479 0.32163 0.0
H733 H 0.16259 0.75313 0.26128 0.0
H734 H 0.19736 0.75122 0.25509 0.0
H735 H 0.14111 0.72597 0.28402 0.0
H736 H 0.15179 0.7917 0.28035 0.0
H737 H 0.16759 0.82255 0.28559 0.0
H738 H 0.15887 0.81813 0.34579 0.0
H739 H 0.14304 0.7871 0.34093 0.0
C740 C 0.0559 0.73951 0.32384 0.0
C741 C 0.05604 0.74097 0.34382 0.0
C742 C 0.07293 0.74171 0.31352 0.0
C743 C 0.0903 0.74539 0.32304 0.0
C744 C 0.09049 0.74653 0.34297 0.0
C745 C 0.07354 0.74425 0.35327 0.0
C746 C 0.1084 0.74835 0.31245 0.0
C747 C 0.1183 0.76552 0.31522 0.0
C748 C 0.11631 0.73422 0.30042 0.0
C749 C 0.10665 0.71571 0.29718 0.0
C750 C 0.10239 0.70387 0.3125 0.0
C751 C 0.09322 0.68646 0.30929 0.0
C752 C 0.08839 0.68067 0.2908 0.0
C753 C 0.09278 0.69226 0.27547 0.0
C754 C 0.10193 0.70969 0.27861 0.0
C755 C 0.19831 0.75274 0.30361 0.0
C756 C 0.2053 0.75148 0.2849 0.0
C757 C 0.1787 0.75419 0.30705 0.0
C758 C 0.16566 0.75418 0.29189 0.0
C759 C 0.17252 0.7532 0.27313 0.0
C760 C 0.1923 0.75214 0.26964 0.0
C761 C 0.14489 0.7539 0.29616 0.0
C762 C 0.13446 0.73724 0.29228 0.0
C763 C 0.13643 0.76853 0.30711 0.0
C764 C 0.1463 0.787 0.31027 0.0
C765 C 0.15338 0.79721 0.29473 0.0
C766 C 0.1623 0.81477 0.29763 0.0
C767 C 0.16426 0.82232 0.31602 0.0
C768 C 0.15731 0.81228 0.33155 0.0
C769 C 0.14831 0.79472 0.32873 0.0
H770 H 0.17116 0.83594 0.31824 0.0
H771 H 0.08129 0.66718 0.28835 0.0
H772 H 0.48515 0.8271 0.60945 0.0
H773 H 0.48184 0.85679 0.5928 0.0
H774 H 0.49034 0.82759 0.53912 0.0
H775 H 0.49426 0.79778 0.55585 0.0
H776 H 0.51232 0.8565 0.54038 0.0
H777 H 0.44624 0.84814 0.55216 0.0
H778 H 0.41646 0.84153 0.56987 0.0
H779 H 0.42648 0.89046 0.6055 0.0
H780 H 0.45657 0.89716 0.58829 0.0
H781 H 0.50587 0.94126 0.49291 0.0
H782 H 0.48953 0.91279 0.50422 0.0
H783 H 0.50153 0.92991 0.56216 0.0
H784 H 0.51802 0.95838 0.55078 0.0
H785 H 0.46431 0.90639 0.55419 0.0
H786 H 0.53482 0.90814 0.54506 0.0
H787 H 0.56313 0.91506 0.52515 0.0
H788 H 0.54154 0.87748 0.48145 0.0
H789 H 0.51292 0.8706 0.50103 0.0
C790 C 0.48611 0.82692 0.59407 0.0
C791 C 0.49011 0.81008 0.58398 0.0
C792 C 0.48401 0.84393 0.58453 0.0
C793 C 0.48558 0.84448 0.56464 0.0
C794 C 0.48902 0.82756 0.55447 0.0
C795 C 0.49128 0.81052 0.56404 0.0
C796 C 0.48575 0.86297 0.55482 0.0
C797 C 0.50151 0.86716 0.54311 0.0
C798 C 0.47179 0.87712 0.55841 0.0
C799 C 0.4538 0.87305 0.56901 0.0
C800 C 0.44223 0.85738 0.56391 0.0
C801 C 0.42527 0.85363 0.57385 0.0
C802 C 0.41961 0.86554 0.58884 0.0
C803 C 0.4309 0.88123 0.59391 0.0
C804 C 0.44792 0.88501 0.58406 0.0
C805 C 0.5041 0.93939 0.50807 0.0
C806 C 0.51293 0.95195 0.52104 0.0
C807 C 0.49483 0.92313 0.51451 0.0
C808 C 0.49445 0.91923 0.53401 0.0
C809 C 0.50153 0.93279 0.54708 0.0
C810 C 0.51095 0.949 0.5406 0.0
C811 C 0.49096 0.89966 0.54031 0.0
C812 C 0.47475 0.89541 0.55131 0.0
C813 C 0.50428 0.88528 0.5359 0.0
C814 C 0.52169 0.88902 0.52439 0.0
C815 C 0.53607 0.90145 0.53115 0.0
C816 C 0.55216 0.90536 0.51994 0.0
C817 C 0.55411 0.89675 0.50203 0.0
C818 C 0.53999 0.88416 0.49532 0.0
C819 C 0.52384 0.88025 0.50646 0.0
H820 H 0.56657 0.8998 0.49336 0.0
H821 H 0.40643 0.86264 0.59647 0.0
H822 H 0.43249 0.27222 0.81103 0.0
H823 H 0.39762 0.27268 0.81326 0.0
H824 H 0.40091 0.26093 0.8732 0.0
H825 H 0.43595 0.2598 0.87092 0.0
H826 H 0.37451 0.24037 0.85905 0.0
H827 H 0.38524 0.30501 0.858 0.0
H828 H 0.39952 0.33561 0.84914 0.0
H829 H 0.37624 0.32932 0.79285 0.0
H830 H 0.36207 0.29855 0.80124 0.0
H831 H 0.28223 0.26892 0.79915 0.0
H832 H 0.30172 0.27542 0.82773 0.0
H833 H 0.33759 0.22782 0.81327 0.0
H834 H 0.31834 0.22146 0.78507 0.0
H835 H 0.33689 0.28665 0.82261 0.0
H836 H 0.36048 0.21046 0.84699 0.0
H837 H 0.34592 0.18282 0.86246 0.0
H838 H 0.29805 0.21652 0.88055 0.0
H839 H 0.31223 0.24434 0.86511 0.0
C840 C 0.42583 0.26978 0.82471 0.0
C841 C 0.43699 0.26593 0.84077 0.0
C842 C 0.40586 0.27028 0.82603 0.0
C843 C 0.39661 0.26733 0.84352 0.0
C844 C 0.40772 0.26342 0.8596 0.0
C845 C 0.42774 0.26271 0.85824 0.0
C846 C 0.37532 0.26682 0.84432 0.0
C847 C 0.3662 0.2506 0.85131 0.0
C848 C 0.36416 0.28083 0.83554 0.0
C849 C 0.37255 0.29942 0.8303 0.0
C850 C 0.38323 0.3101 0.8437 0.0
C851 C 0.39131 0.32749 0.83876 0.0
C852 C 0.38878 0.33441 0.82045 0.0
C853 C 0.37815 0.32396 0.80705 0.0
C854 C 0.37004 0.30655 0.81191 0.0
C855 C 0.29384 0.25948 0.80261 0.0
C856 C 0.2991 0.24491 0.78991 0.0
C857 C 0.3049 0.26314 0.81892 0.0
C858 C 0.32109 0.25206 0.82275 0.0
C859 C 0.325 0.23636 0.81095 0.0
C860 C 0.31417 0.23288 0.79464 0.0
C861 C 0.3367 0.25915 0.83534 0.0
C862 C 0.34495 0.27673 0.83099 0.0
C863 C 0.34682 0.24673 0.84718 0.0
C864 C 0.33752 0.22956 0.85499 0.0
C865 C 0.34685 0.212 0.85427 0.0
C866 C 0.33866 0.19628 0.86303 0.0
C867 C 0.32119 0.19796 0.87266 0.0
C868 C 0.31164 0.21525 0.87317 0.0
C869 C 0.31968 0.23097 0.86428 0.0
H870 H 0.31501 0.18582 0.87961 0.0
H871 H 0.39506 0.34787 0.81665 0.0
H872 H 0.00835 0.82841 0.3669 0.0
H873 H 0.00542 0.85793 0.38499 0.0
H874 H 0.00565 0.82699 0.43736 0.0
H875 H 0.00795 0.79727 0.41931 0.0
H876 H 0.97859 0.85278 0.4384 0.0
H877 H 0.04622 0.85265 0.42188 0.0
H878 H 0.0739 0.85082 0.4 0.0
H879 H 0.05278 0.89848 0.36956 0.0
H880 H 0.02482 0.90036 0.39108 0.0
H881 H 0.01053 0.92132 0.50552 0.0
H882 H 0.00669 0.89473 0.48334 0.0
H883 H 0.99462 0.93317 0.43802 0.0
H884 H -0.00138 0.96008 0.46015 0.0
H885 H 0.02496 0.90572 0.43087 0.0
H886 H 0.95952 0.90843 0.45123 0.0
H887 H 0.93325 0.91047 0.47468 0.0
H888 H 0.95081 0.85798 0.49871 0.0
H889 H 0.97739 0.85577 0.4756 0.0
C890 C 0.00795 0.82787 0.38228 0.0
C891 C 0.00847 0.8105 0.39169 0.0
C892 C 0.0063 0.84478 0.3926 0.0
C893 C 0.00552 0.84467 0.41253 0.0
C894 C 0.00619 0.82737 0.42197 0.0
C895 C 0.0076 0.81042 0.41165 0.0
C896 C 0.00379 0.86257 0.42357 0.0
C897 C 0.98878 0.86433 0.43681 0.0
C898 C 0.01674 0.87785 0.42108 0.0
C899 C 0.03342 0.8766 0.40803 0.0
C900 C 0.04743 0.86265 0.41044 0.0
C901 C 0.06317 0.86161 0.39811 0.0
C902 C 0.06509 0.87451 0.38339 0.0
C903 C 0.05127 0.88849 0.38096 0.0
C904 C 0.03549 0.88955 0.39322 0.0
C905 C 0.00696 0.92417 0.49086 0.0
C906 C 0.00499 0.9428 0.48454 0.0
C907 C 0.00466 0.90895 0.47825 0.0
C908 C 0.00043 0.91206 0.4591 0.0
C909 C -0.00197 0.93058 0.45276 0.0
C910 C 0.00018 0.94588 0.46543 0.0
C911 C -0.00016 0.89586 0.44566 0.0
C912 C 0.0145 0.89437 0.43207 0.0
C913 C 0.98661 0.88082 0.44789 0.0
C914 C 0.97054 0.88201 0.46174 0.0
C915 C 0.95788 0.89739 0.46161 0.0
C916 C 0.94291 0.89857 0.47482 0.0
C917 C 0.94038 0.88438 0.4882 0.0
C918 C 0.95279 0.86896 0.48835 0.0
C919 C 0.9678 0.86773 0.47517 0.0
H920 H 0.92879 0.88531 0.49842 0.0
H921 H 0.07729 0.8737 0.37387 0.0
H922 H 0.44582 0.75143 0.6812 0.0
H923 H 0.41174 0.75455 0.68868 0.0
H924 H 0.39806 0.75169 0.62883 0.0
H925 H 0.4324 0.74979 0.62126 0.0
H926 H 0.3738 0.77424 0.64525 0.0
H927 H 0.39545 0.71188 0.65784 0.0
H928 H 0.41616 0.68745 0.67145 0.0
H929 H 0.40138 0.70645 0.72786 0.0
H930 H 0.38077 0.73117 0.71457 0.0
H931 H 0.2907 0.71422 0.68698 0.0
H932 H 0.31463 0.72561 0.66446 0.0
H933 H 0.32608 0.7736 0.70126 0.0
H934 H 0.30169 0.76255 0.7235 0.0
H935 H 0.3497 0.72854 0.69251 0.0
H936 H 0.35066 0.80227 0.65677 0.0
H937 H 0.3299 0.82228 0.63729 0.0
H938 H 0.29778 0.77333 0.61874 0.0
H939 H 0.31798 0.75309 0.63859 0.0
C940 C 0.43554 0.75158 0.66964 0.0
C941 C 0.44167 0.75004 0.65067 0.0
C942 C 0.41606 0.75336 0.67391 0.0
C943 C 0.40224 0.75285 0.65934 0.0
C944 C 0.40841 0.75205 0.64032 0.0
C945 C 0.428 0.75082 0.63601 0.0
C946 C 0.38145 0.7518 0.66412 0.0
C947 C 0.36851 0.76429 0.65562 0.0
C948 C 0.37439 0.73838 0.67715 0.0
C949 C 0.38671 0.72347 0.6852 0.0
C950 C 0.39671 0.71092 0.67314 0.0
C951 C 0.40842 0.69701 0.6808 0.0
C952 C 0.41012 0.69543 0.70051 0.0
C953 C 0.40007 0.70771 0.7126 0.0
C954 C 0.38836 0.72166 0.70501 0.0
C955 C 0.29737 0.72791 0.68957 0.0
C956 C 0.29449 0.73753 0.70693 0.0
C957 C 0.311 0.73447 0.67664 0.0
C958 C 0.32215 0.75052 0.68112 0.0
C959 C 0.31737 0.76149 0.69724 0.0
C960 C 0.30345 0.7551 0.71005 0.0
C961 C 0.34212 0.7512 0.67398 0.0
C962 C 0.35499 0.73859 0.68221 0.0
C963 C 0.34879 0.76393 0.66016 0.0
C964 C 0.33557 0.77622 0.64955 0.0
C965 C 0.33895 0.7958 0.64883 0.0
C966 C 0.3273 0.80719 0.63768 0.0
C967 C 0.31252 0.79908 0.6268 0.0
C968 C 0.30922 0.77959 0.62721 0.0
C969 C 0.32057 0.7682 0.63866 0.0
H970 H 0.30368 0.8079 0.61801 0.0
H971 H 0.4192 0.68465 0.70641 0.0
H972 H 0.50825 0.22447 0.9268 0.0
H973 H 0.50634 0.19771 0.94843 0.0
H974 H 0.48424 0.16233 0.90278 0.0
H975 H 0.48579 0.18897 0.88127 0.0
H976 H 0.46556 0.15521 0.93543 0.0
H977 H 0.53226 0.16284 0.915 0.0
H978 H 0.56279 0.18048 0.9119 0.0
H979 H 0.566 0.18727 0.97261 0.0
H980 H 0.53534 0.16985 0.97603 0.0
H981 H 0.50314 0.06443 0.93759 0.0
H982 H 0.50056 0.09817 0.9322 0.0
H983 H 0.49789 0.10891 0.99264 0.0
H984 H 0.50001 0.07475 -0.00166 0.0
H985 H 0.52672 0.13205 0.96237 0.0
H986 H 0.46243 0.11863 0.98262 0.0
H987 H 0.43341 0.09861 0.98451 0.0
H988 H 0.42613 0.10168 0.92402 0.0
H989 H 0.45542 0.12141 0.92172 0.0
C990 C 0.50288 0.21101 0.92142 0.0
C991 C 0.49732 0.20879 0.90228 0.0
C992 C 0.50179 0.19575 0.9338 0.0
C993 C 0.49526 0.17799 0.92719 0.0
C994 C 0.48924 0.17592 0.90823 0.0
C995 C 0.49026 0.19114 0.8959 0.0
C996 C 0.49574 0.16113 0.93946 0.0
C997 C 0.47889 0.15027 0.9415 0.0
C998 C 0.51302 0.15487 0.94783 0.0
C999 C 0.53142 0.16529 0.94575 0.0
C1000 C 0.53941 0.16823 0.92767 0.0
C1001 C 0.55675 0.17816 0.92585 0.0
C1002 C 0.56629 0.18505 0.94204 0.0
C1003 C 0.55856 0.18197 0.96008 0.0
C1004 C 0.54122 0.17207 0.96197 0.0
C1005 C 0.50216 0.07388 0.94982 0.0
C1006 C 0.50182 0.06688 0.96842 0.0
C1007 C 0.50063 0.09316 0.94668 0.0
C1008 C 0.49897 0.10589 0.96201 0.0
C1009 C 0.49912 0.09918 0.98066 0.0
C1010 C 0.50032 0.07972 0.98385 0.0
C1011 C 0.4967 0.12611 0.95791 0.0
C1012 C 0.51323 0.13747 0.9571 0.0
C1013 C 0.47915 0.13285 0.95072 0.0
C1014 C 0.46123 0.1214 0.95199 0.0
C1015 C 0.45474 0.11491 0.96969 0.0
C1016 C 0.43822 0.10363 0.97085 0.0
C1017 C 0.42792 0.09885 0.9544 0.0
C1018 C 0.43412 0.10539 0.93676 0.0
C1019 C 0.45069 0.11665 0.93552 0.0
H1020 H 0.41514 0.09009 0.95533 0.0
H1021 H 0.57971 0.19273 0.94061 0.0
H1022 H 0.07157 0.26621 0.13059 0.0
H1023 H 0.10068 0.26223 0.14945 0.0
H1024 H 0.06747 0.26694 0.2011 0.0
H1025 H 0.03827 0.27113 0.18233 0.0
H1026 H 0.10103 0.28672 0.20378 0.0
H1027 H 0.08167 0.2243 0.18649 0.0
H1028 H 0.07087 0.19831 0.16521 0.0
H1029 H 0.12326 0.20258 0.13326 0.0
H1030 H 0.13426 0.22881 0.15416 0.0
H1031 H 0.18891 0.25776 0.25074 0.0
H1032 H 0.15474 0.25691 0.24164 0.0
H1033 H 0.17088 0.25803 0.18244 0.0
H1034 H 0.20456 0.25896 0.19123 0.0
H1035 H 0.14244 0.23139 0.19006 0.0
H1036 H 0.15819 0.29767 0.20426 0.0
H1037 H 0.16881 0.32374 0.22558 0.0
H1038 H 0.12271 0.31126 0.26411 0.0
H1039 H 0.11198 0.28494 0.2431 0.0
C1040 C 0.07047 0.26652 0.14596 0.0
C1041 C 0.05263 0.26887 0.15497 0.0
C1042 C 0.08709 0.26413 0.15672 0.0
C1043 C 0.08615 0.26395 0.17667 0.0
C1044 C 0.06847 0.26692 0.18573 0.0
C1045 C 0.05182 0.2693 0.17497 0.0
C1046 C 0.10373 0.26055 0.18792 0.0
C1047 C 0.10989 0.27442 0.2011 0.0
C1048 C 0.11524 0.24447 0.18445 0.0
C1049 C 0.10874 0.22862 0.17185 0.0
C1050 C 0.09083 0.2198 0.17485 0.0
C1051 C 0.08468 0.205 0.16286 0.0
C1052 C 0.09636 0.19881 0.14787 0.0
C1053 C 0.11423 0.20739 0.14487 0.0
C1054 C 0.12044 0.22221 0.1568 0.0
C1055 C 0.1851 0.25775 0.23581 0.0
C1056 C 0.19942 0.25866 0.22172 0.0
C1057 C 0.16564 0.25728 0.23065 0.0
C1058 C 0.16036 0.25745 0.21137 0.0
C1059 C 0.17466 0.25784 0.19739 0.0
C1060 C 0.19393 0.25853 0.20248 0.0
C1061 C 0.14005 0.25792 0.20527 0.0
C1062 C 0.13333 0.24344 0.19308 0.0
C1063 C 0.12802 0.27338 0.20971 0.0
C1064 C 0.13445 0.2892 0.22227 0.0
C1065 C 0.15043 0.30039 0.21737 0.0
C1066 C 0.15645 0.31522 0.22937 0.0
C1067 C 0.14649 0.31911 0.24623 0.0
C1068 C 0.13044 0.3082 0.25108 0.0
C1069 C 0.12439 0.29333 0.23913 0.0
H1070 H 0.15116 0.33061 0.2555 0.0
H1071 H 0.09157 0.18735 0.13861 0.0
H1072 H 0.06171 0.00103 0.22367 0.0
H1073 H 0.0409 0.0018 0.19558 0.0
H1074 H 0.09041 0.9951 0.15926 0.0
H1075 H 0.11125 0.99426 0.18716 0.0
H1076 H 0.04033 0.02601 0.16508 0.0
H1077 H 0.07846 0.96617 0.12252 0.0
H1078 H 0.09581 0.93665 0.12874 0.0
H1079 H 0.06563 0.93082 0.18162 0.0
H1080 H 0.0479 0.96014 0.17559 0.0
H1081 H 0.03183 0.02786 0.06395 0.0
H1082 H 0.04017 0.02821 0.09785 0.0
H1083 H 0.00545 0.97814 0.10578 0.0
H1084 H -0.00295 0.9779 0.07185 0.0
H1085 H 0.04198 0.97352 0.11746 0.0
H1086 H 0.99283 0.01824 0.12592 0.0
H1087 H 0.97407 0.04691 0.12012 0.0
H1088 H 0.02209 0.08158 0.13722 0.0
H1089 H 0.04147 0.05315 0.14239 0.0
C1090 C 0.06815 -0.00035 0.20969 0.0
C1091 C 0.08812 0.99749 0.20762 0.0
C1092 C 0.05624 0.0002 0.19368 0.0
C1093 C 0.0641 -0.00163 0.17537 0.0
C1094 C 0.08403 0.99632 0.17329 0.0
C1095 C 0.09593 0.99587 0.18924 0.0
C1096 C 0.05159 -0.00154 0.15831 0.0
C1097 C 0.04058 0.01455 0.15465 0.0
C1098 C 0.05155 0.98325 0.14502 0.0
C1099 C 0.06196 0.96544 0.14865 0.0
C1100 C 0.07545 0.95853 0.13543 0.0
C1101 C 0.08537 0.94185 0.13893 0.0
C1102 C 0.08186 0.93189 0.15559 0.0
C1103 C 0.06838 0.93857 0.16875 0.0
C1104 C 0.05842 0.95524 0.16531 0.0
C1105 C 0.02552 0.01734 0.07314 0.0
C1106 C 0.01369 0.00296 0.06556 0.0
C1107 C 0.03027 0.01753 0.09244 0.0
C1108 C 0.02341 0.00321 0.10433 0.0
C1109 C 0.01084 0.98934 0.09685 0.0
C1110 C 0.00596 0.98925 0.07758 0.0
C1111 C 0.03126 0.0014 0.12379 0.0
C1112 C 0.04148 0.98496 0.12791 0.0
C1113 C 0.03032 0.01623 0.13753 0.0
C1114 C 0.01873 0.03346 0.13436 0.0
C1115 C -0.00047 0.03196 0.12818 0.0
C1116 C 0.98877 0.04819 0.12499 0.0
C1117 C -0.00308 0.06606 0.1282 0.0
C1118 C 0.01582 0.06772 0.13468 0.0
C1119 C 0.02673 0.05154 0.13769 0.0
H1120 H 0.98856 0.07861 0.12573 0.0
H1121 H 0.08956 0.91898 0.15828 0.0
H1122 H 0.26946 0.84871 0.44736 0.0
H1123 H 0.2773 0.83663 0.41557 0.0
H1124 H 0.25706 0.88825 0.39106 0.0
H1125 H 0.24923 0.90055 0.42284 0.0
H1126 H 0.24419 0.85521 0.37199 0.0
H1127 H 0.303 0.88328 0.39308 0.0
H1128 H 0.32944 0.88993 0.41557 0.0
H1129 H 0.34486 0.8313 0.41436 0.0
H1130 H 0.31831 0.82423 0.39208 0.0
H1131 H 0.27153 0.81108 0.28674 0.0
H1132 H 0.27402 0.83759 0.30948 0.0
H1133 H 0.29711 0.80011 0.35136 0.0
H1134 H 0.2954 0.77402 0.32865 0.0
H1135 H 0.31065 0.83441 0.3576 0.0
H1136 H 0.2471 0.80586 0.34395 0.0
H1137 H 0.22097 0.79809 0.32132 0.0
H1138 H 0.21452 0.85706 0.30944 0.0
H1139 H 0.24078 0.86504 0.3316 0.0
C1140 C 0.2665 0.85745 0.43522 0.0
C1141 C 0.25878 0.87562 0.43763 0.0
C1142 C 0.27114 0.85059 0.41709 0.0
C1143 C 0.26804 0.86171 0.40106 0.0
C1144 C 0.2597 0.87955 0.4033 0.0
C1145 C 0.25523 0.88652 0.42146 0.0
C1146 C 0.2734 0.85445 0.38198 0.0
C1147 C 0.25879 0.85105 0.36864 0.0
C1148 C 0.29245 0.84901 0.37771 0.0
C1149 C 0.30858 0.85321 0.39097 0.0
C1150 C 0.31194 0.87178 0.3977 0.0
C1151 C 0.32697 0.87563 0.4104 0.0
C1152 C 0.33881 0.86104 0.41641 0.0
C1153 C 0.33567 0.84258 0.40969 0.0
C1154 C 0.32065 0.83865 0.397 0.0
C1155 C 0.27773 0.80869 0.30056 0.0
C1156 C 0.28264 0.79036 0.30609 0.0
C1157 C 0.27911 0.82382 0.31357 0.0
C1158 C 0.28515 0.82067 0.33232 0.0
C1159 C 0.29219 0.80286 0.33706 0.0
C1160 C 0.29102 0.78787 0.32406 0.0
C1161 C 0.2813 0.83447 0.34791 0.0
C1162 C 0.29616 0.83909 0.36069 0.0
C1163 C 0.26244 0.84086 0.3518 0.0
C1164 C 0.246 0.83603 0.33923 0.0
C1165 C 0.24007 0.81713 0.33647 0.0
C1166 C 0.22529 0.81268 0.32367 0.0
C1167 C 0.21617 0.82704 0.3138 0.0
C1168 C 0.22163 0.84589 0.31691 0.0
C1169 C 0.23648 0.8504 0.32958 0.0
H1170 H 0.2049 0.82353 0.30375 0.0
H1171 H 0.35043 0.86405 0.42625 0.0
H1172 H 0.43756 0.01928 0.71183 0.0
H1173 H 0.45768 0.02495 0.68387 0.0
H1174 H 0.4152 0.99732 0.64818 0.0
H1175 H 0.39488 0.992 0.6759 0.0
H1176 H 0.47458 0.00242 0.6577 0.0
H1177 H 0.41133 0.01961 0.60717 0.0
H1178 H 0.37899 0.03351 0.6091 0.0
H1179 H 0.39532 0.06473 0.65949 0.0
H1180 H 0.42783 0.05123 0.65771 0.0
H1181 H 0.49551 0.99053 0.55932 0.0
H1182 H 0.48641 0.99089 0.5929 0.0
H1183 H 0.47547 0.05076 0.59026 0.0
H1184 H 0.48371 0.05022 0.5565 0.0
H1185 H 0.44561 0.03445 0.60259 0.0
H1186 H 0.5115 0.03164 0.61939 0.0
H1187 H 0.54483 0.02018 0.61843 0.0
H1188 H 0.52586 0.96565 0.63707 0.0
H1189 H 0.49236 0.9767 0.6379 0.0
C1190 C 0.43253 0.01441 0.69801 0.0
C1191 C 0.41457 0.00536 0.69601 0.0
C1192 C 0.44407 0.01759 0.68209 0.0
C1193 C 0.43781 0.01178 0.66395 0.0
C1194 C 0.42015 0.00223 0.66202 0.0
C1195 C 0.40856 -0.00083 0.67787 0.0
C1196 C 0.4494 0.01607 0.64686 0.0
C1197 C 0.46835 0.00951 0.64565 0.0
C1198 C 0.44141 0.0258 0.6314 0.0
C1199 C 0.42198 0.03429 0.63238 0.0
C1200 C 0.40805 0.02953 0.6186 0.0
C1201 C 0.38968 0.03732 0.61968 0.0
C1202 C 0.38509 0.04996 0.63444 0.0
C1203 C 0.39888 0.05489 0.6481 0.0
C1204 C 0.41727 0.04716 0.64707 0.0
C1205 C 0.49176 0.00386 0.5661 0.0
C1206 C 0.49011 0.02031 0.55536 0.0
C1207 C 0.4866 0.00408 0.58532 0.0
C1208 C 0.48016 0.02086 0.59414 0.0
C1209 C 0.4802 0.03763 0.58374 0.0
C1210 C 0.48498 0.03733 0.56449 0.0
C1211 C 0.47078 0.02039 0.61309 0.0
C1212 C 0.4521 0.02761 0.61467 0.0
C1213 C 0.47924 0.01169 0.62897 0.0
C1214 C 0.49938 0.00498 0.62859 0.0
C1215 C 0.51441 0.01717 0.62316 0.0
C1216 C 0.53334 0.01075 0.62266 0.0
C1217 C 0.53746 0.99219 0.62766 0.0
C1218 C 0.52265 0.98002 0.6332 0.0
C1219 C 0.50369 0.98637 0.63372 0.0
H1220 H 0.55213 0.98724 0.62725 0.0
H1221 H 0.37085 0.05595 0.63527 0.0
H1222 H 0.25745 0.19111 0.95312 0.0
H1223 H 0.26174 0.20676 0.92244 0.0
H1224 H 0.25354 0.15319 0.8932 0.0
H1225 H 0.24983 0.13758 0.92346 0.0
H1226 H 0.28182 0.17165 0.8775 0.0
H1227 H 0.21711 0.18707 0.89837 0.0
H1228 H 0.19326 0.2009 0.9204 0.0
H1229 H 0.22024 0.25538 0.91538 0.0
H1230 H 0.24439 0.2418 0.89348 0.0
H1231 H 0.23064 0.18858 0.79167 0.0
H1232 H 0.24415 0.17985 0.82248 0.0
H1233 H 0.26547 0.23676 0.83079 0.0
H1234 H 0.25176 0.24552 0.80004 0.0
H1235 H 0.23777 0.22256 0.85835 0.0
H1236 H 0.29736 0.20821 0.83106 0.0
H1237 H 0.32348 0.19476 0.81156 0.0
H1238 H 0.30779 0.13892 0.82889 0.0
H1239 H 0.28138 0.15186 0.84829 0.0
C1240 C 0.25665 0.18272 0.94012 0.0
C1241 C 0.25324 0.16313 0.94072 0.0
C1242 C 0.25906 0.19166 0.92261 0.0
C1243 C 0.25783 0.18116 0.90549 0.0
C1244 C 0.25466 0.1616 0.90618 0.0
C1245 C 0.25244 0.15269 0.92355 0.0
C1246 C 0.25924 0.19025 0.88664 0.0
C1247 C 0.27212 0.18271 0.8732 0.0
C1248 C 0.24717 0.20525 0.88136 0.0
C1249 C 0.23268 0.21339 0.89451 0.0
C1250 C 0.21803 0.20197 0.90209 0.0
C1251 C 0.20445 0.20976 0.91453 0.0
C1252 C 0.20527 0.22899 0.91934 0.0
C1253 C 0.21965 0.24048 0.91168 0.0
C1254 C 0.23328 0.23274 0.89925 0.0
C1255 C 0.23892 0.19897 0.79975 0.0
C1256 C 0.24073 0.21753 0.79333 0.0
C1257 C 0.24661 0.19401 0.81731 0.0
C1258 C 0.25607 0.2076 0.82875 0.0
C1259 C 0.25859 0.22599 0.82197 0.0
C1260 C 0.25096 0.23091 0.80435 0.0
C1261 C 0.25983 0.20338 0.84893 0.0
C1262 C 0.24779 0.21177 0.86264 0.0
C1263 C 0.27267 0.1891 0.85439 0.0
C1264 C 0.28722 0.18106 0.84112 0.0
C1265 C 0.29918 0.19303 0.83045 0.0
C1266 C 0.31418 0.18552 0.81955 0.0
C1267 C 0.31737 0.16606 0.81911 0.0
C1268 C 0.30541 0.15402 0.82938 0.0
C1269 C 0.29041 0.16143 0.84032 0.0
H1270 H 0.32901 0.1603 0.81067 0.0
H1271 H 0.19474 0.235 0.92897 0.0
H1272 H 0.08115 0.03702 0.32272 0.0
H1273 H 0.07496 0.03322 0.35653 0.0
H1274 H 0.10696 0.98129 0.35589 0.0
H1275 H 0.11343 0.98509 0.32178 0.0
H1276 H 0.07111 0.97765 0.37279 0.0
H1277 H 0.12558 0.01603 0.38133 0.0
H1278 H 0.14848 0.04211 0.37574 0.0
H1279 H 0.10542 0.08253 0.39153 0.0
H1280 H 0.08216 0.05673 0.39695 0.0
H1281 H 0.02592 0.98867 0.46579 0.0
H1282 H 0.05286 0.98219 0.44381 0.0
H1283 H 0.04133 0.03427 0.41503 0.0
H1284 H 0.01514 0.04079 0.43664 0.0
H1285 H 0.0793 0.02994 0.41998 0.0
H1286 H 0.02353 0.9897 0.39913 0.0
H1287 H 0.001 0.9629 0.403 0.0
H1288 H 0.04848 0.92547 0.41104 0.0
H1289 H 0.07122 0.95208 0.40732 0.0
C1290 C 0.08706 0.02487 0.32975 0.0
C1291 C 0.09772 0.01132 0.31955 0.0
C1292 C 0.08363 0.02279 0.34914 0.0
C1293 C 0.09067 0.00707 0.35877 0.0
C1294 C 0.10153 0.99358 0.34873 0.0
C1295 C 0.10521 0.9958 0.32929 0.0
C1296 C 0.08508 0.00434 0.37889 0.0
C1297 C 0.07337 0.98881 0.38334 0.0
C1298 C 0.08822 0.01873 0.39274 0.0
C1299 C 0.10209 0.03441 0.38949 0.0
C1300 C 0.12094 0.03049 0.38349 0.0
C1301 C 0.134 0.04522 0.38037 0.0
C1302 C 0.12841 0.06396 0.38327 0.0
C1303 C 0.10974 0.06801 0.38931 0.0
C1304 C 0.09662 0.05332 0.39245 0.0
C1305 C 0.02941 -0.00121 0.45494 0.0
C1306 C 0.01843 0.01523 0.45294 0.0
C1307 C 0.04472 0.99506 0.44237 0.0
C1308 C 0.04917 0.00781 0.42783 0.0
C1309 C 0.03836 0.02431 0.42623 0.0
C1310 C 0.02321 0.02794 0.43854 0.0
C1311 C 0.06407 0.0041 0.41316 0.0
C1312 C 0.07767 0.01841 0.40973 0.0
C1313 C 0.06271 0.98858 0.4003 0.0
C1314 C 0.04901 0.97283 0.40314 0.0
C1315 C 0.02911 0.97576 0.40188 0.0
C1316 C 0.01632 0.96061 0.404 0.0
C1317 C 0.0233 0.94248 0.4072 0.0
C1318 C 0.04307 0.93949 0.4085 0.0
C1319 C 0.05591 0.95459 0.4064 0.0
H1320 H 0.01337 0.93075 0.40856 0.0
H1321 H 0.13854 0.07536 0.38084 0.0
H1322 H 0.26142 0.81565 0.53172 0.0
H1323 H 0.26234 0.79319 0.55792 0.0
H1324 H 0.24339 0.83714 0.59679 0.0
H1325 H 0.24365 0.85966 0.57101 0.0
H1326 H 0.26829 0.81898 0.61383 0.0
H1327 H 0.21304 0.79987 0.57637 0.0
H1328 H 0.19591 0.78894 0.54747 0.0
H1329 H 0.23072 0.73914 0.54495 0.0
H1330 H 0.24819 0.7499 0.57375 0.0
H1331 H 0.20945 0.77828 0.68066 0.0
H1332 H 0.21682 0.78669 0.64812 0.0
H1333 H 0.26452 0.74826 0.64751 0.0
H1334 H 0.25768 0.74009 0.68064 0.0
H1335 H 0.23259 0.75809 0.61007 0.0
H1336 H 0.28205 0.77883 0.65592 0.0
H1337 H 0.29187 0.79225 0.68686 0.0
H1338 H 0.26059 0.84283 0.67561 0.0
H1339 H 0.25009 0.8295 0.64469 0.0
C1340 C 0.25748 0.82043 0.54589 0.0
C1341 C 0.25243 0.83937 0.54935 0.0
C1342 C 0.25794 0.80759 0.56085 0.0
C1343 C 0.25276 0.81334 0.5794 0.0
C1344 C 0.24764 0.83229 0.58272 0.0
C1345 C 0.24767 0.84517 0.56793 0.0
C1346 C 0.25228 0.79987 0.59549 0.0
C1347 C 0.26061 0.8056 0.61289 0.0
C1348 C 0.24249 0.78222 0.59436 0.0
C1349 C 0.23209 0.77581 0.57702 0.0
C1350 C 0.21714 0.78667 0.56955 0.0
C1351 C 0.20735 0.78049 0.55322 0.0
C1352 C 0.21228 0.76339 0.54434 0.0
C1353 C 0.22696 0.7524 0.55181 0.0
C1354 C 0.23681 0.75853 0.56814 0.0
C1355 C 0.22128 0.77121 0.67359 0.0
C1356 C 0.23335 0.75892 0.6835 0.0
C1357 C 0.22539 0.776 0.65492 0.0
C1358 C 0.24142 0.76839 0.64568 0.0
C1359 C 0.25217 0.75438 0.65458 0.0
C1360 C 0.24825 0.74977 0.67351 0.0
C1361 C 0.24822 0.77751 0.6282 0.0
C1362 C 0.24094 0.7711 0.61067 0.0
C1363 C 0.25839 0.79488 0.62935 0.0
C1364 C 0.26512 0.80303 0.6479 0.0
C1365 C 0.27706 0.79271 0.66002 0.0
C1366 C 0.2828 0.80033 0.6776 0.0
C1367 C 0.27686 0.81837 0.68322 0.0
C1368 C 0.2652 0.82884 0.67124 0.0
C1369 C 0.25934 0.82125 0.65366 0.0
H1370 H 0.28129 0.82422 0.69686 0.0
H1371 H 0.20468 0.75863 0.5317 0.0
H1372 H 0.37241 0.99072 0.81191 0.0
H1373 H 0.37338 0.98985 0.84674 0.0
H1374 H 0.43439 0.00126 0.8453 0.0
H1375 H 0.4336 0.00129 0.81068 0.0
H1376 H 0.42802 0.97306 0.86664 0.0
H1377 H 0.39921 0.03464 0.85951 0.0
H1378 H 0.37449 0.05696 0.84905 0.0
H1379 H 0.33175 0.02721 0.88119 0.0
H1380 H 0.35621 0.00456 0.89166 0.0
H1381 H 0.44494 0.03016 0.95161 0.0
H1382 H 0.42181 0.02577 0.92604 0.0
H1383 H 0.42063 0.96575 0.93608 0.0
H1384 H 0.44473 0.97019 0.96119 0.0
H1385 H 0.38997 0.012 0.91203 0.0
H1386 H 0.42882 0.94306 0.89597 0.0
H1387 H 0.45777 0.92571 0.90566 0.0
H1388 H 0.48698 0.97823 0.91776 0.0
H1389 H 0.45825 0.99584 0.90801 0.0
C1390 C 0.38596 0.99326 0.81911 0.0
C1391 C 0.40298 0.99593 0.80866 0.0
C1392 C 0.38648 0.99279 0.83898 0.0
C1393 C 0.40397 0.9954 0.84864 0.0
C1394 C 0.42077 -0.00105 0.83816 0.0
C1395 C 0.42032 -0.00097 0.81838 0.0
C1396 C 0.40537 0.9935 0.86956 0.0
C1397 C 0.41949 0.98143 0.87654 0.0
C1398 C 0.39416 0.00425 0.88253 0.0
C1399 C 0.37946 0.01775 0.87613 0.0
C1400 C 0.3845 0.03275 0.86419 0.0
C1401 C 0.37055 0.04549 0.8583 0.0
C1402 C 0.35155 0.04346 0.86439 0.0
C1403 C 0.34647 0.02872 0.87644 0.0
C1404 C 0.36036 0.01594 0.88235 0.0
C1405 C 0.43883 0.0162 0.94912 0.0
C1406 C 0.44653 0.0005 0.95816 0.0
C1407 C 0.42568 0.01365 0.93438 0.0
C1408 C 0.42007 0.99533 0.92866 0.0
C1409 C 0.42521 0.97995 0.93996 0.0
C1410 C 0.43878 0.98248 0.95445 0.0
C1411 C 0.41324 0.99231 0.90888 0.0
C1412 C 0.39801 0.00321 0.90211 0.0
C1413 C 0.42398 0.98114 0.89586 0.0
C1414 C 0.44136 0.9707 0.90151 0.0
C1415 C 0.44145 0.95086 0.90068 0.0
C1416 C 0.4578 0.941 0.90619 0.0
C1417 C 0.47417 0.95086 0.9124 0.0
C1418 C 0.47427 0.97061 0.91301 0.0
C1419 C 0.45797 0.98053 0.90749 0.0
H1420 H 0.4868 0.9432 0.91669 0.0
H1421 H 0.34077 0.05334 0.85982 0.0
H1422 H 0.26384 0.11611 0.07107 0.0
H1423 H 0.26944 0.12964 0.10276 0.0
H1424 H 0.24893 0.18356 0.08371 0.0
H1425 H 0.24456 0.17028 0.05162 0.0
H1426 H 0.27596 0.19048 0.10554 0.0
H1427 H 0.22105 0.15055 0.11174 0.0
H1428 H 0.20165 0.12129 0.10942 0.0
H1429 H 0.2409 0.09355 0.14663 0.0
H1430 H 0.26069 0.12258 0.14897 0.0
H1431 H 0.23948 0.20623 0.2075 0.0
H1432 H 0.23864 0.18558 0.17933 0.0
H1433 H 0.29877 0.19723 0.16937 0.0
H1434 H 0.29914 0.21903 0.19676 0.0
H1435 H 0.25205 0.15699 0.1624 0.0
H1436 H 0.30788 0.20402 0.12368 0.0
H1437 H 0.32091 0.23654 0.12577 0.0
H1438 H 0.26884 0.25546 0.15246 0.0
H1439 H 0.25541 0.22313 0.15028 0.0
C1440 C 0.26066 0.13089 0.07365 0.0
C1441 C 0.25369 0.14215 0.05894 0.0
C1442 C 0.2637 0.13859 0.09183 0.0
C1443 C 0.25916 0.15754 0.09589 0.0
C1444 C 0.25253 0.16889 0.08104 0.0
C1445 C 0.25001 0.16132 0.06269 0.0
C1446 C 0.26137 0.16556 0.11553 0.0
C1447 C 0.27073 0.18308 0.11792 0.0
C1448 C 0.25424 0.15621 0.13182 0.0
C1449 C 0.24246 0.13868 0.13035 0.0
C1450 C 0.22563 0.13816 0.1193 0.0
C1451 C 0.21455 0.12163 0.118 0.0
C1452 C 0.22007 0.10555 0.12783 0.0
C1453 C 0.23667 0.106 0.139 0.0
C1454 C 0.24781 0.12249 0.14032 0.0
C1455 C 0.25267 0.2038 0.19968 0.0
C1456 C 0.26935 0.21423 0.20416 0.0
C1457 C 0.25218 0.19206 0.18349 0.0
C1458 C 0.26847 0.19036 0.17177 0.0
C1459 C 0.28583 0.19884 0.17777 0.0
C1460 C 0.28614 0.21107 0.19358 0.0
C1461 C 0.26664 0.18183 0.15232 0.0
C1462 C 0.25739 0.16424 0.14998 0.0
C1463 C 0.27293 0.19157 0.13595 0.0
C1464 C 0.28076 0.21112 0.13701 0.0
C1465 C 0.2992 0.21514 0.12992 0.0
C1466 C 0.30665 0.23354 0.13113 0.0
C1467 C 0.29573 0.24804 0.1393 0.0
C1468 C 0.2773 0.24421 0.14619 0.0
C1469 C 0.26977 0.22586 0.14497 0.0
H1470 H 0.30154 0.26226 0.14025 0.0
H1471 H 0.21147 0.09277 0.12682 0.0
H1472 H 0.18874 0.09166 0.9714 0.0
H1473 H 0.15485 0.08204 0.97016 0.0
H1474 H 0.14075 0.12614 0.01071 0.0
H1475 H 0.17454 0.13622 0.01164 0.0
H1476 H 0.12875 0.08612 0.01895 0.0
H1477 H 0.12502 0.13404 0.9716 0.0
H1478 H 0.13525 0.15035 0.94255 0.0
H1479 H 0.12443 0.09989 0.9094 0.0
H1480 H 0.11442 0.08317 0.93831 0.0
H1481 H 0.03116 0.0571 0.01612 0.0
H1482 H 0.05752 0.08035 0.01425 0.0
H1483 H 0.08059 0.05031 0.9656 0.0
H1484 H 0.05462 0.02701 0.96764 0.0
H1485 H 0.08596 0.08849 0.96268 0.0
H1486 H 0.09306 0.03945 0.00775 0.0
H1487 H 0.08736 0.01986 0.03581 0.0
H1488 H 0.09692 0.06811 0.07248 0.0
H1489 H 0.10152 0.08828 0.0446 0.0
C1490 C 0.1784 0.0994 0.97993 0.0
C1491 C 0.18426 0.11464 0.99166 0.0
C1492 C 0.15906 0.09396 0.97913 0.0
C1493 C 0.14537 0.1035 0.99025 0.0
C1494 C 0.15115 0.11874 0.00193 0.0
C1495 C 0.17042 0.12444 0.00245 0.0
C1496 C 0.1253 0.09654 0.99068 0.0
C1497 C 0.11909 0.08706 0.0069 0.0
C1498 C 0.11319 0.09728 0.97461 0.0
C1499 C 0.11912 0.10731 0.95717 0.0
C1500 C 0.12499 0.12636 0.95815 0.0
C1501 C 0.13071 0.1357 0.9417 0.0
C1502 C 0.13053 0.12615 0.92414 0.0
C1503 C 0.12458 0.10726 0.92301 0.0
C1504 C 0.11885 0.09786 0.93942 0.0
C1505 C 0.04146 0.05593 0.0046 0.0
C1506 C 0.04097 0.04031 0.99201 0.0
C1507 C 0.05657 0.06909 0.00366 0.0
C1508 C 0.07114 0.06686 0.98996 0.0
C1509 C 0.06953 0.05228 0.97628 0.0
C1510 C 0.05469 0.039 0.97743 0.0
C1511 C 0.08924 0.07801 0.99108 0.0
C1512 C 0.09525 0.08807 0.97505 0.0
C1513 C 0.10141 0.07742 0.00724 0.0
C1514 C 0.09714 0.06553 0.02399 0.0
C1515 C 0.09336 0.04605 0.02175 0.0
C1516 C 0.0904 0.0348 0.03765 0.0
C1517 C 0.09168 0.04274 0.05592 0.0
C1518 C 0.09584 0.06198 0.05832 0.0
C1519 C 0.09841 0.07338 0.04246 0.0
H1520 H 0.08952 0.03398 0.06822 0.0
H1521 H 0.13497 0.1334 0.91142 0.0
H1522 H 0.72331 0.44119 0.01644 0.0
H1523 H 0.69454 0.46081 0.01636 0.0
H1524 H 0.65918 0.41087 0.00895 0.0
H1525 H 0.68787 0.3912 0.00872 0.0
H1526 H 0.64693 0.43861 0.98651 0.0
H1527 H 0.66477 0.43198 0.05251 0.0
H1528 H 0.68658 0.43445 0.08008 0.0
H1529 H 0.6915 0.49439 0.07261 0.0
H1530 H 0.66988 0.49223 0.04483 0.0
H1531 H 0.5637 0.46882 0.04665 0.0
H1532 H 0.59766 0.46151 0.0448 0.0
H1533 H 0.60256 0.49321 0.99313 0.0
H1534 H 0.56821 0.5004 0.99472 0.0
H1535 H 0.63212 0.47894 0.04299 0.0
H1536 H 0.62875 0.46833 0.96309 0.0
H1537 H 0.60384 0.46523 0.93823 0.0
H1538 H 0.56702 0.43572 0.97696 0.0
H1539 H 0.59175 0.4386 0.002 0.0
C1540 C 0.7094 0.43439 0.01478 0.0
C1541 C 0.70784 0.41463 0.01269 0.0
C1542 C 0.69299 0.44562 0.01473 0.0
C1543 C 0.67471 0.4373 0.01275 0.0
C1544 C 0.67315 0.4176 0.01041 0.0
C1545 C 0.68954 0.40637 0.0104 0.0
C1546 C 0.65711 0.44892 0.01377 0.0
C1547 C 0.64383 0.44759 -0.00123 0.0
C1548 C 0.65295 0.46059 0.02978 0.0
C1549 C 0.66591 0.46191 0.04647 0.0
C1550 C 0.67063 0.44566 0.05666 0.0
C1551 C 0.68293 0.44701 0.07234 0.0
C1552 C 0.69047 0.46456 0.07805 0.0
C1553 C 0.68568 0.4808 0.06814 0.0
C1554 C 0.6734 0.47953 0.05244 0.0
C1555 C 0.57198 0.47453 0.035 0.0
C1556 C 0.56309 0.48479 0.02051 0.0
C1557 C 0.59149 0.47046 0.03408 0.0
C1558 C 0.60257 0.47654 0.01868 0.0
C1559 C 0.59417 0.48815 0.00501 0.0
C1560 C 0.57455 0.49223 0.00591 0.0
C1561 C 0.62197 0.46848 0.01586 0.0
C1562 C 0.63554 0.47041 0.0305 0.0
C1563 C 0.62622 0.45701 -0.00024 0.0
C1564 C 0.61202 0.45377 0.98437 0.0
C1565 C 0.61543 0.46098 0.96619 0.0
C1566 C 0.60132 0.45931 0.95211 0.0
C1567 C 0.58384 0.45033 0.95605 0.0
C1568 C 0.58054 0.44271 0.97396 0.0
C1569 C 0.5946 0.44434 0.98808 0.0
H1570 H 0.5728 0.44936 0.94529 0.0
H1571 H 0.69999 0.46557 0.0902 0.0
H1572 H 0.88819 0.41904 0.23071 0.0
H1573 H 0.87376 0.38766 0.23483 0.0
H1574 H 0.82609 0.41285 0.26479 0.0
H1575 H 0.84019 0.44429 0.26042 0.0
H1576 H 0.84598 0.38228 0.28408 0.0
H1577 H 0.81908 0.39821 0.22274 0.0
H1578 H 0.8195 0.40599 0.18872 0.0
H1579 H 0.8493 0.35446 0.17588 0.0
H1580 H 0.8495 0.34658 0.2099 0.0
H1581 H 0.76979 0.31795 0.29051 0.0
H1582 H 0.79405 0.34262 0.28786 0.0
H1583 H 0.82518 0.3083 0.24715 0.0
H1584 H 0.80016 0.28393 0.24905 0.0
H1585 H 0.8195 0.34067 0.23304 0.0
H1586 H 0.84467 0.32216 0.29189 0.0
H1587 H 0.84476 0.31237 0.32536 0.0
H1588 H 0.8208 0.36572 0.34246 0.0
H1589 H 0.82028 0.37575 0.30906 0.0
C1590 C 0.87451 0.41791 0.23796 0.0
C1591 C 0.86532 0.43413 0.24527 0.0
C1592 C 0.86631 0.39999 0.24028 0.0
C1593 C 0.84894 0.398 0.25017 0.0
C1594 C 0.83955 0.41416 0.25715 0.0
C1595 C 0.84756 0.4321 0.25454 0.0
C1596 C 0.84088 0.37904 0.25402 0.0
C1597 C 0.84008 0.37314 0.27297 0.0
C1598 C 0.83414 0.36682 0.23935 0.0
C1599 C 0.83468 0.372 0.21898 0.0
C1600 C 0.82608 0.38872 0.21275 0.0
C1601 C 0.82613 0.39311 0.19343 0.0
C1602 C 0.83455 0.3808 0.18017 0.0
C1603 C 0.84291 0.36405 0.18618 0.0
C1604 C 0.84298 0.35964 0.20549 0.0
C1605 C 0.78206 0.31541 0.28137 0.0
C1606 C 0.78308 0.29894 0.26998 0.0
C1607 C 0.79607 0.32951 0.27998 0.0
C1608 C 0.81159 0.32735 0.26739 0.0
C1609 C 0.81337 0.3103 0.257 0.0
C1610 C 0.79922 0.29622 0.25828 0.0
C1611 C 0.82411 0.34388 0.26318 0.0
C1612 C 0.8258 0.34944 0.24417 0.0
C1613 C 0.83204 0.35558 0.27774 0.0
C1614 C 0.83235 0.34967 0.29791 0.0
C1615 C 0.83929 0.33177 0.30276 0.0
C1616 C 0.83943 0.32618 0.32173 0.0
C1617 C 0.83277 0.33841 0.33602 0.0
C1618 C 0.82597 0.35627 0.33137 0.0
C1619 C 0.82577 0.36192 0.31242 0.0
H1620 H 0.83289 0.33406 0.3507 0.0
H1621 H 0.8345 0.38419 0.16522 0.0
H1622 H 0.78078 0.55013 0.4881 0.0
H1623 H 0.81282 0.53691 0.48325 0.0
H1624 H 0.83792 0.59251 0.49078 0.0
H1625 H 0.80589 0.60589 0.49458 0.0
H1626 H 0.85812 0.57386 0.46552 0.0
H1627 H 0.83364 0.55997 0.52821 0.0
H1628 H 0.81048 0.54712 0.55131 0.0
H1629 H 0.81691 0.49164 0.52656 0.0
H1630 H 0.83995 0.50423 0.50316 0.0
H1631 H 0.94314 0.55527 0.51811 0.0
H1632 H 0.9134 0.56494 0.50248 0.0
H1633 H 0.90182 0.50693 0.48611 0.0
H1634 H 0.93156 0.49732 0.50173 0.0
H1635 H 0.87467 0.52306 0.51026 0.0
H1636 H 0.90495 0.53648 0.45236 0.0
H1637 H 0.92945 0.54943 0.43081 0.0
H1638 H 0.91382 0.60587 0.44756 0.0
H1639 H 0.88936 0.59323 0.46946 0.0
C1640 C 0.79313 0.55953 0.48854 0.0
C1641 C 0.79086 0.57899 0.49199 0.0
C1642 C 0.81144 0.55198 0.48578 0.0
C1643 C 0.82786 0.56365 0.48708 0.0
C1644 C 0.82552 0.5832 0.48973 0.0
C1645 C 0.8072 0.59081 0.49204 0.0
C1646 C 0.84744 0.55541 0.48731 0.0
C1647 C 0.8618 0.56285 0.47539 0.0
C1648 C 0.85216 0.54064 0.49978 0.0
C1649 C 0.83832 0.53307 0.51381 0.0
C1650 C 0.83 0.54505 0.52762 0.0
C1651 C 0.81692 0.53782 0.54077 0.0
C1652 C 0.81218 0.51859 0.54037 0.0
C1653 C 0.82056 0.50654 0.52683 0.0
C1654 C 0.83363 0.51371 0.51363 0.0
C1655 C 0.93462 0.54478 0.51044 0.0
C1656 C 0.93966 0.52566 0.51075 0.0
C1657 C 0.9177 0.55027 0.5015 0.0
C1658 C 0.90546 0.53663 0.49312 0.0
C1659 C 0.91117 0.51766 0.49237 0.0
C1660 C 0.9282 0.51221 0.50112 0.0
C1661 C 0.88538 0.54169 0.48874 0.0
C1662 C 0.87094 0.53379 0.50007 0.0
C1663 C 0.88074 0.55607 0.47587 0.0
C1664 C 0.89537 0.56387 0.46268 0.0
C1665 C 0.90684 0.55165 0.4516 0.0
C1666 C 0.92069 0.55894 0.43927 0.0
C1667 C 0.9232 0.57846 0.43782 0.0
C1668 C 0.91183 0.59074 0.44869 0.0
C1669 C 0.89793 0.58352 0.46104 0.0
H1670 H 0.93392 0.58406 0.42825 0.0
H1671 H 0.80205 0.51302 0.55057 0.0
H1672 H 0.12435 0.08311 0.2502 0.0
H1673 H 0.14398 0.11101 0.24501 0.0
H1674 H 0.1941 0.07611 0.23791 0.0
H1675 H 0.17441 0.04783 0.24374 0.0
H1676 H 0.20293 0.10485 0.25916 0.0
H1677 H 0.17285 0.09959 0.19934 0.0
H1678 H 0.1468 0.09506 0.17594 0.0
H1679 H 0.11946 0.14551 0.19668 0.0
H1680 H 0.14517 0.15021 0.22042 0.0
H1681 H 0.25181 0.19098 0.2467 0.0
H1682 H 0.23734 0.16222 0.23268 0.0
H1683 H 0.18209 0.17866 0.25494 0.0
H1684 H 0.19663 0.20714 0.26921 0.0
H1685 H 0.18103 0.15718 0.21855 0.0
H1686 H 0.20852 0.15593 0.28311 0.0
H1687 H 0.23558 0.16053 0.30539 0.0
H1688 H 0.2694 0.12126 0.27268 0.0
H1689 H 0.24259 0.11668 0.25003 0.0
C1690 C 0.13953 0.08124 0.24743 0.0
C1691 C 0.14777 0.06315 0.24735 0.0
C1692 C 0.15075 0.09729 0.24426 0.0
C1693 C 0.17049 0.09574 0.24055 0.0
C1694 C 0.17886 0.0777 0.24055 0.0
C1695 C 0.16761 0.06154 0.24393 0.0
C1696 C 0.18233 0.11318 0.23807 0.0
C1697 C 0.1984 0.11603 0.24984 0.0
C1698 C 0.17652 0.12795 0.22597 0.0
C1699 C 0.16093 0.1252 0.21175 0.0
C1700 C 0.16121 0.10965 0.19902 0.0
C1701 C 0.14651 0.10706 0.18567 0.0
C1702 C 0.13147 0.11997 0.18484 0.0
C1703 C 0.13112 0.13552 0.19734 0.0
C1704 C 0.14577 0.13817 0.21073 0.0
C1705 C 0.23642 0.18887 0.24772 0.0
C1706 C 0.22522 0.20124 0.25881 0.0
C1707 C 0.22819 0.17241 0.23984 0.0
C1708 C 0.20869 0.16824 0.24296 0.0
C1709 C 0.19713 0.18166 0.25229 0.0
C1710 C 0.20541 0.19795 0.26039 0.0
C1711 C 0.20107 0.14878 0.23998 0.0
C1712 C 0.18579 0.14566 0.22732 0.0
C1713 C 0.20775 0.13364 0.25101 0.0
C1714 C 0.22368 0.13614 0.26479 0.0
C1715 C 0.22178 0.14838 0.28061 0.0
C1716 C 0.23705 0.15098 0.2933 0.0
C1717 C 0.25422 0.14123 0.29042 0.0
C1718 C 0.25611 0.12883 0.27487 0.0
C1719 C 0.24089 0.12623 0.2621 0.0
H1720 H 0.26603 0.14325 0.30026 0.0
H1721 H 0.12011 0.11794 0.17449 0.0
H1722 H 0.31933 0.8779 0.50998 0.0
H1723 H 0.35455 0.87732 0.5082 0.0
H1724 H 0.35507 0.93601 0.49259 0.0
H1725 H 0.32023 0.93676 0.49425 0.0
H1726 H 0.37766 0.91359 0.46874 0.0
H1727 H 0.36605 0.92391 0.53857 0.0
H1728 H 0.35304 0.91276 0.56913 0.0
H1729 H 0.38424 0.86096 0.56253 0.0
H1730 H 0.39763 0.87196 0.53207 0.0
H1731 H 0.43751 0.97793 0.51894 0.0
H1732 H 0.41636 0.95056 0.52008 0.0
H1733 H 0.45159 0.92156 0.47853 0.0
H1734 H 0.47311 0.94938 0.47735 0.0
H1735 H 0.418 0.91188 0.52677 0.0
H1736 H 0.41929 0.9014 0.44904 0.0
H1737 H 0.43099 0.91605 0.41949 0.0
H1738 H 0.41867 0.97117 0.44271 0.0
H1739 H 0.40681 0.95677 0.4723 0.0
C1740 C 0.32699 0.89072 0.50634 0.0
C1741 C 0.31695 0.90738 0.50219 0.0
C1742 C 0.34707 0.89031 0.50524 0.0
C1743 C 0.35734 0.90653 0.49998 0.0
C1744 C 0.34737 0.92324 0.49635 0.0
C1745 C 0.32743 0.92368 0.49747 0.0
C1746 C 0.37852 0.90682 0.49849 0.0
C1747 C 0.38667 0.91258 0.48126 0.0
C1748 C 0.39036 0.90507 0.51465 0.0
C1749 C 0.38266 0.89866 0.53305 0.0
C1750 C 0.37012 0.91016 0.54368 0.0
C1751 C 0.36274 0.90389 0.56099 0.0
C1752 C 0.36785 0.88617 0.56778 0.0
C1753 C 0.3804 0.87472 0.5573 0.0
C1754 C 0.38792 0.88098 0.54005 0.0
C1755 C 0.44089 0.96567 0.51016 0.0
C1756 C 0.45665 0.96586 0.49773 0.0
C1757 C 0.42899 0.94988 0.51108 0.0
C1758 C 0.43241 0.93401 0.49943 0.0
C1759 C 0.44878 0.93367 0.4877 0.0
C1760 C 0.46093 0.94955 0.48693 0.0
C1761 C 0.41667 0.91998 0.49738 0.0
C1762 C 0.40945 0.91151 0.51387 0.0
C1763 C 0.40558 0.91933 0.48056 0.0
C1764 C 0.41232 0.92805 0.4628 0.0
C1765 C 0.41906 0.91664 0.44776 0.0
C1766 C 0.42571 0.92489 0.43104 0.0
C1767 C 0.42561 0.94453 0.42924 0.0
C1768 C 0.41877 0.95596 0.44413 0.0
C1769 C 0.41206 0.94777 0.46085 0.0
H1770 H 0.43081 0.95089 0.41631 0.0
H1771 H 0.36209 0.88131 0.58115 0.0
H1772 H 0.81337 0.53621 0.2441 0.0
H1773 H 0.79431 0.56517 0.24729 0.0
H1774 H 0.84601 0.59713 0.25964 0.0
H1775 H 0.86485 0.56845 0.25703 0.0
H1776 H 0.8191 0.60757 0.28314 0.0
H1777 H 0.82297 0.59615 0.21474 0.0
H1778 H 0.81753 0.57765 0.18516 0.0
H1779 H 0.7568 0.57714 0.19592 0.0
H1780 H 0.76193 0.59547 0.22568 0.0
H1781 H 0.81244 0.6998 0.2515 0.0
H1782 H 0.81801 0.6662 0.25551 0.0
H1783 H 0.75691 0.6557 0.25611 0.0
H1784 H 0.75113 0.68979 0.25235 0.0
H1785 H 0.77981 0.63158 0.23006 0.0
H1786 H 0.77705 0.64979 0.29535 0.0
H1787 H 0.78387 0.66945 0.32371 0.0
H1788 H 0.84412 0.65817 0.318 0.0
H1789 H 0.83769 0.63861 0.28932 0.0
C1790 C 0.82061 0.54944 0.24751 0.0
C1791 C 0.84062 0.55003 0.25032 0.0
C1792 C 0.80972 0.56598 0.24928 0.0
C1793 C 0.81872 0.5834 0.25363 0.0
C1794 C 0.83868 0.58389 0.25641 0.0
C1795 C 0.84947 0.56744 0.25483 0.0
C1796 C 0.80776 0.60134 0.25522 0.0
C1797 C 0.81051 0.61278 0.27152 0.0
C1798 C 0.79592 0.60794 0.24039 0.0
C1799 C 0.79285 0.59694 0.22253 0.0
C1800 C 0.80848 0.59195 0.21086 0.0
C1801 C 0.80545 0.58153 0.19405 0.0
C1802 C 0.78684 0.57616 0.1887 0.0
C1803 C 0.77121 0.58126 0.20011 0.0
C1804 C 0.77417 0.59167 0.21694 0.0
C1805 C 0.80012 0.69041 0.25257 0.0
C1806 C 0.78133 0.69742 0.25145 0.0
C1807 C 0.80335 0.6712 0.25495 0.0
C1808 C 0.78789 0.65847 0.25612 0.0
C1809 C 0.76903 0.66534 0.25524 0.0
C1810 C 0.76575 0.68477 0.25317 0.0
C1811 C 0.79197 0.63801 0.25757 0.0
C1812 C 0.78794 0.62611 0.24189 0.0
C1813 C 0.80286 0.63104 0.27285 0.0
C1814 C 0.80687 0.64278 0.29011 0.0
C1815 C 0.79178 0.6516 0.30003 0.0
C1816 C 0.79559 0.66274 0.3162 0.0
C1817 C 0.81444 0.66509 0.32268 0.0
C1818 C 0.82953 0.65632 0.31298 0.0
C1819 C 0.8258 0.64518 0.29677 0.0
H1820 H 0.81737 0.67371 0.33522 0.0
H1821 H 0.78452 0.56809 0.17568 0.0
H1822 H 0.67949 0.43937 0.73288 0.0
H1823 H 0.6942 0.40815 0.73551 0.0
H1824 H 0.65556 0.39463 0.78133 0.0
H1825 H 0.64045 0.42565 0.77851 0.0
H1826 H 0.69677 0.38603 0.78733 0.0
H1827 H 0.64444 0.37354 0.74501 0.0
H1828 H 0.62346 0.37927 0.71749 0.0
H1829 H 0.67152 0.37273 0.6797 0.0
H1830 H 0.69284 0.36723 0.70705 0.0
H1831 H 0.72009 0.28367 0.74559 0.0
H1832 H 0.69719 0.30869 0.75402 0.0
H1833 H 0.7444 0.34793 0.76203 0.0
H1834 H 0.76708 0.32292 0.75426 0.0
H1835 H 0.69293 0.34028 0.73314 0.0
H1836 H 0.73357 0.38232 0.79201 0.0
H1837 H 0.75584 0.37495 0.81806 0.0
H1838 H 0.72948 0.32022 0.82354 0.0
H1839 H 0.70675 0.32745 0.79799 0.0
C1840 C 0.6742 0.42979 0.74358 0.0
C1841 C 0.65882 0.43493 0.75547 0.0
C1842 C 0.68255 0.41197 0.74501 0.0
C1843 C 0.67587 0.39912 0.75856 0.0
C1844 C 0.66087 0.40437 0.77079 0.0
C1845 C 0.65226 0.42206 0.76912 0.0
C1846 C 0.68457 0.38016 0.75972 0.0
C1847 C 0.69579 0.3759 0.77561 0.0
C1848 C 0.68297 0.36687 0.74457 0.0
C1849 C 0.67026 0.37018 0.72808 0.0
C1850 C 0.65056 0.37351 0.73084 0.0
C1851 C 0.6386 0.37667 0.71528 0.0
C1852 C 0.64616 0.37642 0.69686 0.0
C1853 C 0.66569 0.37295 0.69398 0.0
C1854 C 0.67772 0.36979 0.7095 0.0
C1855 C 0.72553 0.29734 0.7502 0.0
C1856 C 0.74532 0.30129 0.74982 0.0
C1857 C 0.71246 0.31173 0.75463 0.0
C1858 C 0.71908 0.33018 0.75874 0.0
C1859 C 0.73892 0.33378 0.75926 0.0
C1860 C 0.75189 0.31948 0.75485 0.0
C1861 C 0.70557 0.34624 0.76057 0.0
C1862 C 0.6936 0.35013 0.74511 0.0
C1863 C 0.70629 0.35905 0.77624 0.0
C1864 C 0.71855 0.35539 0.79298 0.0
C1865 C 0.73231 0.36885 0.79901 0.0
C1866 C 0.74507 0.36467 0.81366 0.0
C1867 C 0.74418 0.3471 0.82237 0.0
C1868 C 0.73023 0.33383 0.8168 0.0
C1869 C 0.71737 0.33797 0.80226 0.0
H1870 H 0.75433 0.3438 0.83344 0.0
H1871 H 0.63688 0.37886 0.68483 0.0
H1872 H 0.99464 0.83439 0.87862 0.0
H1873 H 0.98592 0.86279 0.8966 0.0
H1874 H 0.00067 0.8353 0.94888 0.0
H1875 H 0.00839 0.80635 0.93088 0.0
H1876 H 0.97125 0.85587 0.95541 0.0
H1877 H 0.03151 0.86775 0.92503 0.0
H1878 H 0.05448 0.86985 0.89842 0.0
H1879 H 0.01917 0.91134 0.87194 0.0
H1880 H 0.99589 0.9093 0.89829 0.0
H1881 H 0.00734 0.93164 0.01067 0.0
H1882 H 0.99593 0.90396 0.99305 0.0
H1883 H 0.97391 0.93987 0.94927 0.0
H1884 H 0.98531 0.96784 0.96729 0.0
H1885 H 0.00104 0.91649 0.93613 0.0
H1886 H 0.94107 0.90374 0.97037 0.0
H1887 H 0.9202 0.89918 -0.00153 0.0
H1888 H 0.9603 0.85975 0.02109 0.0
H1889 H 0.98093 0.86336 0.99281 0.0
C1890 C 0.99599 0.83437 0.89396 0.0
C1891 C 0.00245 0.81821 0.90333 0.0
C1892 C 0.99105 0.85067 0.90425 0.0
C1893 C 0.99306 0.85147 0.92412 0.0
C1894 C -0.00097 0.83514 0.93357 0.0
C1895 C 0.00353 0.81861 0.92328 0.0
C1896 C 0.98955 0.86945 0.93493 0.0
C1897 C 0.97785 0.86911 0.95121 0.0
C1898 C -0.0022 0.8869 0.92936 0.0
C1899 C 0.01181 0.88817 0.9135 0.0
C1900 C 0.02857 0.8772 0.91345 0.0
C1901 C 0.04166 0.8784 0.89843 0.0
C1902 C 0.03825 0.89066 0.88346 0.0
C1903 C 0.02177 0.9018 0.88352 0.0
C1904 C 0.00862 0.90063 0.89849 0.0
C1905 C -0.00077 0.93368 -0.00227 0.0
C1906 C -0.00272 0.95182 0.99024 0.0
C1907 C 0.99258 0.91779 0.98767 0.0
C1908 C 0.98396 0.9197 0.96978 0.0
C1909 C 0.98037 0.93801 0.9631 0.0
C1910 C 0.98685 0.95401 0.97338 0.0
C1911 C 0.98295 0.9029 0.95676 0.0
C1912 C 0.99398 0.90339 0.94004 0.0
C1913 C 0.97459 0.88552 0.96227 0.0
C1914 C 0.96259 0.88394 0.97958 0.0
C1915 C 0.94548 0.89421 0.98141 0.0
C1916 C 0.93366 0.89174 -0.00269 0.0
C1917 C 0.93907 0.87943 0.01165 0.0
C1918 C 0.95616 0.86933 0.01001 0.0
C1919 C 0.96781 0.87143 0.99398 0.0
H1920 H 0.92994 0.87761 0.02396 0.0
H1921 H 0.04841 0.89158 0.87185 0.0
H1922 H 0.98086 0.24831 0.71175 0.0
H1923 H 0.95028 0.24409 0.7284 0.0
H1924 H 0.92128 0.23688 0.67448 0.0
H1925 H 0.95154 0.24204 0.65786 0.0
H1926 H 0.90105 0.25804 0.69473 0.0
H1927 H 0.93127 0.19904 0.70618 0.0
H1928 H 0.95679 0.17757 0.71658 0.0
H1929 H 0.95202 0.19946 0.77368 0.0
H1930 H 0.92664 0.22125 0.76357 0.0
H1931 H 0.81657 0.21492 0.73644 0.0
H1932 H 0.8505 0.20883 0.72996 0.0
H1933 H 0.86544 0.26325 0.75436 0.0
H1934 H 0.83159 0.2692 0.76119 0.0
H1935 H 0.89188 0.21503 0.74915 0.0
H1936 H 0.87776 0.28561 0.71459 0.0
H1937 H 0.85026 0.30376 0.7026 0.0
H1938 H 0.82113 0.25207 0.68696 0.0
H1939 H 0.84856 0.2337 0.69858 0.0
C1940 C 0.96793 0.24586 0.70349 0.0
C1941 C 0.96857 0.24562 0.68351 0.0
C1942 C 0.95047 0.24327 0.71301 0.0
C1943 C 0.93344 0.23987 0.70274 0.0
C1944 C 0.93416 0.23952 0.68277 0.0
C1945 C 0.95149 0.2425 0.67326 0.0
C1946 C 0.91468 0.23756 0.71261 0.0
C1947 C 0.89919 0.2485 0.70652 0.0
C1948 C 0.91193 0.22498 0.72793 0.0
C1949 C 0.92718 0.2119 0.73407 0.0
C1950 C 0.93577 0.19938 0.72092 0.0
C1951 C 0.95019 0.18714 0.72677 0.0
C1952 C 0.95606 0.18719 0.74577 0.0
C1953 C 0.94748 0.19946 0.75897 0.0
C1954 C 0.93306 0.21174 0.75319 0.0
C1955 C 0.8272 0.22494 0.7417 0.0
C1956 C 0.82157 0.24238 0.74962 0.0
C1957 C 0.8466 0.22151 0.73785 0.0
C1958 C 0.86039 0.23563 0.74164 0.0
C1959 C 0.85499 0.25215 0.75149 0.0
C1960 C 0.83567 0.25554 0.75537 0.0
C1961 C 0.8788 0.23557 0.73121 0.0
C1962 C 0.89404 0.22437 0.73725 0.0
C1963 C 0.88125 0.24733 0.71534 0.0
C1964 C 0.86509 0.25833 0.70762 0.0
C1965 C 0.86552 0.27816 0.70849 0.0
C1966 C 0.84995 0.28848 0.70178 0.0
C1967 C 0.83393 0.27908 0.69409 0.0
C1968 C 0.8335 0.25935 0.69297 0.0
C1969 C 0.84905 0.24898 0.69963 0.0
H1970 H 0.82186 0.28709 0.68896 0.0
H1971 H 0.96722 0.1777 0.75027 0.0
H1972 H 0.51931 0.19773 0.42596 0.0
H1973 H 0.51889 0.1649 0.43647 0.0
H1974 H 0.48123 0.14946 0.39003 0.0
H1975 H 0.48184 0.18221 0.37918 0.0
H1976 H 0.47118 0.1343 0.42781 0.0
H1977 H 0.52305 0.13463 0.38185 0.0
H1978 H 0.55209 0.1484 0.3672 0.0
H1979 H 0.58153 0.14629 0.42076 0.0
H1980 H 0.55252 0.13289 0.43574 0.0
H1981 H 0.47626 0.03829 0.44103 0.0
H1982 H 0.48325 0.06585 0.42153 0.0
H1983 H 0.52269 0.08674 0.46431 0.0
H1984 H 0.51593 0.059 0.48348 0.0
H1985 H 0.53201 0.09821 0.42503 0.0
H1986 H 0.47966 0.09744 0.47104 0.0
H1987 H 0.4504 0.08374 0.48522 0.0
H1988 H 0.42108 0.08793 0.43177 0.0
H1989 H 0.45033 0.10135 0.41719 0.0
C1990 C 0.5107 0.18741 0.41815 0.0
C1991 C 0.5006 0.19253 0.40175 0.0
C1992 C 0.51059 0.16867 0.42409 0.0
C1993 C 0.50018 0.1548 0.41389 0.0
C1994 C 0.4894 0.15999 0.39802 0.0
C1995 C 0.48974 0.17868 0.39188 0.0
C1996 C 0.50096 0.13481 0.41963 0.0
C1997 C 0.4844 0.1263 0.42699 0.0
C1998 C 0.51826 0.12452 0.41873 0.0
C1999 C 0.53573 0.13258 0.40986 0.0
C2000 C 0.53573 0.13714 0.39048 0.0
C2001 C 0.55216 0.14491 0.38213 0.0
C2002 C 0.56867 0.14816 0.39302 0.0
C2003 C 0.56877 0.14367 0.41231 0.0
C2004 C 0.55236 0.13593 0.42072 0.0
C2005 C 0.48736 0.04816 0.44563 0.0
C2006 C 0.4959 0.04643 0.46359 0.0
C2007 C 0.49121 0.06399 0.43459 0.0
C2008 C 0.50335 0.07845 0.44157 0.0
C2009 C 0.51355 0.07564 0.45848 0.0
C2010 C 0.50984 0.05968 0.46941 0.0
C2011 C 0.50229 0.09767 0.43357 0.0
C2012 C 0.51878 0.1061 0.42583 0.0
C2013 C 0.48489 0.10795 0.43418 0.0
C2014 C 0.46723 0.10018 0.44298 0.0
C2015 C 0.46702 0.0953 0.46228 0.0
C2016 C 0.45044 0.0876 0.47039 0.0
C2017 C 0.4339 0.08492 0.45939 0.0
C2018 C 0.43391 0.08998 0.44026 0.0
C2019 C 0.45048 0.09763 0.43207 0.0
H2020 H 0.42107 0.07895 0.46569 0.0
H2021 H 0.58137 0.15419 0.38654 0.0
H2022 H 0.58728 0.76508 0.10375 0.0
H2023 H 0.6203 0.76134 0.11516 0.0
H2024 H 0.60174 0.77549 0.17219 0.0
H2025 H 0.56908 0.77965 0.1609 0.0
H2026 H 0.63574 0.79062 0.16557 0.0
H2027 H 0.60464 0.72904 0.15578 0.0
H2028 H 0.58897 0.70421 0.13606 0.0
H2029 H 0.63881 0.70134 0.10013 0.0
H2030 H 0.65466 0.72635 0.11954 0.0
H2031 H 0.67381 0.73822 0.23692 0.0
H2032 H 0.65334 0.74269 0.20936 0.0
H2033 H 0.70324 0.74799 0.17348 0.0
H2034 H 0.72403 0.74331 0.2011 0.0
H2035 H 0.66153 0.72552 0.16091 0.0
H2036 H 0.69378 0.78565 0.1784 0.0
H2037 H 0.70584 0.80939 0.20162 0.0
H2038 H 0.65006 0.81256 0.22739 0.0
H2039 H 0.63757 0.78904 0.20414 0.0
C2040 C 0.59036 0.76771 0.11866 0.0
C2041 C 0.57557 0.77245 0.13149 0.0
C2042 C 0.60919 0.76551 0.12514 0.0
C2043 C 0.6134 0.76788 0.14455 0.0
C2044 C 0.59883 0.7736 0.15713 0.0
C2045 C 0.58012 0.7759 0.15068 0.0
C2046 C 0.63243 0.7631 0.1524 0.0
C2047 C 0.64158 0.77649 0.16426 0.0
C2048 C 0.64019 0.74471 0.15053 0.0
C2049 C 0.63072 0.72968 0.13894 0.0
C2050 C 0.61219 0.72319 0.1436 0.0
C2051 C 0.60329 0.70909 0.13249 0.0
C2052 C 0.61287 0.70124 0.11682 0.0
C2053 C 0.63139 0.70746 0.11224 0.0
C2054 C 0.64034 0.7216 0.12328 0.0
C2055 C 0.68053 0.73976 0.22313 0.0
C2056 C 0.70062 0.74092 0.2213 0.0
C2057 C 0.66878 0.74231 0.20739 0.0
C2058 C 0.67686 0.74594 0.18957 0.0
C2059 C 0.69682 0.74526 0.18721 0.0
C2060 C 0.70865 0.74266 0.20301 0.0
C2061 C 0.66428 0.75289 0.17445 0.0
C2062 C 0.65629 0.73991 0.16139 0.0
C2063 C 0.65723 0.77154 0.17551 0.0
C2064 C 0.66478 0.78557 0.18955 0.0
C2065 C 0.68412 0.79136 0.18905 0.0
C2066 C 0.69103 0.80478 0.20221 0.0
C2067 C 0.67878 0.81239 0.21604 0.0
C2068 C 0.65954 0.80666 0.21668 0.0
C2069 C 0.65252 0.79336 0.20345 0.0
H2070 H 0.68414 0.82276 0.22623 0.0
H2071 H 0.60596 0.69032 0.10824 0.0
H2072 H 0.04316 0.18335 0.63342 0.0
H2073 H 0.04214 0.15213 0.61786 0.0
H2074 H 0.991 0.16782 0.58757 0.0
H2075 H 0.99196 0.19906 0.60287 0.0
H2076 H 0.98926 0.13149 0.60483 0.0
H2077 H 0.0315 0.16945 0.56509 0.0
H2078 H 0.06002 0.18951 0.55949 0.0
H2079 H 0.0967 0.14501 0.5782 0.0
H2080 H 0.06835 0.12478 0.58416 0.0
H2081 H 0.97788 0.07643 0.52257 0.0
H2082 H 0.98396 0.10201 0.54547 0.0
H2083 H 0.03363 0.07283 0.56631 0.0
H2084 H 0.02751 0.04684 0.54347 0.0
H2085 H 0.03964 0.11243 0.55848 0.0
H2086 H -0.0002 0.07319 0.59496 0.0
H2087 H 0.97273 0.05213 0.60224 0.0
H2088 H 0.93307 0.09708 0.59221 0.0
H2089 H 0.96011 0.11849 0.58468 0.0
C2090 C 0.03166 0.18012 0.6235 0.0
C2091 C 0.01766 0.19367 0.61931 0.0
C2092 C 0.03114 0.16232 0.61462 0.0
C2093 C 0.01653 0.15779 0.60158 0.0
C2094 C 0.00236 0.17112 0.59764 0.0
C2095 C 0.00299 0.18897 0.60631 0.0
C2096 C 0.01605 0.13927 0.59166 0.0
C2097 C 0.00021 0.12734 0.59463 0.0
C2098 C 0.03079 0.13358 0.579 0.0
C2099 C 0.04781 0.1457 0.57529 0.0
C2100 C 0.04564 0.16401 0.56817 0.0
C2101 C 0.06177 0.1754 0.5649 0.0
C2102 C 0.08016 0.16856 0.56855 0.0
C2103 C 0.08245 0.1503 0.57541 0.0
C2104 C 0.06636 0.13887 0.57873 0.0
C2105 C 0.99013 0.07541 0.53197 0.0
C2106 C 0.00225 0.05964 0.53119 0.0
C2107 C 0.99351 0.09 0.54511 0.0
C2108 C 0.00916 0.08919 0.55759 0.0
C2109 C 0.02146 0.07362 0.55677 0.0
C2110 C 0.01791 0.05881 0.54378 0.0
C2111 C 0.01253 0.10496 0.5712 0.0
C2112 C 0.02887 0.1164 0.56893 0.0
C2113 C -0.00159 0.11008 0.58474 0.0
C2114 C 0.98198 0.09738 0.58907 0.0
C2115 C 0.9853 0.07855 0.59411 0.0
C2116 C 0.96993 0.06655 0.59832 0.0
C2117 C 0.9511 0.07319 0.59759 0.0
C2118 C 0.94765 0.09193 0.59273 0.0
C2119 C 0.96302 0.10403 0.58852 0.0
H2120 H 0.93919 0.06387 0.60085 0.0
H2121 H 0.09263 0.1774 0.56601 0.0
H2122 H 0.56423 0.23537 0.32718 0.0
H2123 H 0.59529 0.22395 0.31645 0.0
H2124 H 0.61285 0.21666 0.37473 0.0
H2125 H 0.58177 0.22878 0.38559 0.0
H2126 H 0.63984 0.23293 0.35846 0.0
H2127 H 0.6084 0.17769 0.34262 0.0
H2128 H 0.58412 0.15462 0.33137 0.0
H2129 H 0.59237 0.17277 0.27398 0.0
H2130 H 0.61633 0.1963 0.28486 0.0
H2131 H 0.72174 0.23575 0.29875 0.0
H2132 H 0.70035 0.21491 0.31684 0.0
H2133 H 0.65151 0.23785 0.28767 0.0
H2134 H 0.67272 0.25874 0.27 0.0
H2135 H 0.64815 0.19722 0.29774 0.0
H2136 H 0.66721 0.26247 0.3275 0.0
H2137 H 0.69438 0.2818 0.33972 0.0
H2138 H 0.71304 0.23543 0.37356 0.0
H2139 H 0.68601 0.21586 0.36143 0.0
C2140 C 0.57463 0.23122 0.33773 0.0
C2141 C 0.5706 0.23316 0.35723 0.0
C2142 C 0.59235 0.22438 0.33157 0.0
C2143 C 0.60641 0.219 0.34473 0.0
C2144 C 0.60226 0.22058 0.36426 0.0
C2145 C 0.58453 0.22761 0.37045 0.0
C2146 C 0.62606 0.21428 0.33785 0.0
C2147 C 0.6417 0.22447 0.3456 0.0
C2148 C 0.62902 0.20271 0.32144 0.0
C2149 C 0.6142 0.1889 0.31464 0.0
C2150 C 0.6049 0.17696 0.32762 0.0
C2151 C 0.59117 0.16378 0.3213 0.0
C2152 C 0.58665 0.16229 0.30198 0.0
C2153 C 0.59586 0.17397 0.28895 0.0
C2154 C 0.60955 0.18724 0.2952 0.0
C2155 C 0.70655 0.23579 0.29577 0.0
C2156 C 0.69881 0.24885 0.28312 0.0
C2157 C 0.69435 0.22388 0.30607 0.0
C2158 C 0.67437 0.22484 0.30355 0.0
C2159 C 0.6669 0.23675 0.2897 0.0
C2160 C 0.67898 0.24883 0.27976 0.0
C2161 C 0.66075 0.21707 0.31758 0.0
C2162 C 0.64628 0.20464 0.31122 0.0
C2163 C 0.6591 0.22575 0.33571 0.0
C2164 C 0.67465 0.2378 0.34366 0.0
C2165 C 0.67706 0.2565 0.33765 0.0
C2166 C 0.69246 0.26745 0.34449 0.0
C2167 C 0.70543 0.25984 0.35741 0.0
C2168 C 0.70299 0.2413 0.36357 0.0
C2169 C 0.68763 0.23029 0.35674 0.0
H2170 H 0.71738 0.26832 0.36264 0.0
H2171 H 0.57608 0.15201 0.2971 0.0
H2172 H 0.51038 0.79932 0.05488 0.0
H2173 H 0.50518 0.82825 0.03686 0.0
H2174 H 0.47547 0.8529 0.08494 0.0
H2175 H 0.48067 0.82424 0.10297 0.0
H2176 H 0.45817 0.86109 0.05043 0.0
H2177 H 0.52183 0.8614 0.07909 0.0
H2178 H 0.55441 0.84908 0.08428 0.0
H2179 H 0.56665 0.8536 0.02467 0.0
H2180 H 0.53401 0.86569 0.01909 0.0
H2181 H 0.46923 0.95904 0.05481 0.0
H2182 H 0.46963 0.92498 0.0591 0.0
H2183 H 0.50137 0.91794 0.00679 0.0
H2184 H 0.50124 0.9522 0.00242 0.0
H2185 H 0.51697 0.89813 0.03552 0.0
H2186 H 0.4553 0.90386 0.0081 0.0
H2187 H 0.42308 0.91715 0.00329 0.0
H2188 H 0.40699 0.90184 0.05997 0.0
H2189 H 0.43922 0.88872 0.06525 0.0
C2190 C 0.50242 0.81078 0.06145 0.0
C2191 C 0.49606 0.8096 0.08038 0.0
C2192 C 0.49953 0.82729 0.05117 0.0
C2193 C 0.4901 0.84275 0.05965 0.0
C2194 C 0.48277 0.84113 0.07814 0.0
C2195 C 0.48582 0.82477 0.08845 0.0
C2196 C 0.48908 0.86121 0.0501 0.0
C2197 C 0.47099 0.86922 0.04713 0.0
C2198 C 0.50584 0.87153 0.04527 0.0
C2199 C 0.52539 0.86414 0.04862 0.0
C2200 C 0.5314 0.85956 0.06706 0.0
C2201 C 0.54988 0.85267 0.07008 0.0
C2202 C 0.56256 0.85048 0.0548 0.0
C2203 C 0.55679 0.85524 0.03648 0.0
C2204 C 0.5383 0.8621 0.03338 0.0
C2205 C 0.4762 0.95029 0.04411 0.0
C2206 C 0.48512 0.95837 0.02823 0.0
C2207 C 0.47629 0.93078 0.04653 0.0
C2208 C 0.48524 0.9189 0.0331 0.0
C2209 C 0.49421 0.92686 0.01721 0.0
C2210 C 0.49406 0.94643 0.01473 0.0
C2211 C 0.48604 0.8983 0.03644 0.0
C2212 C 0.50409 0.88988 0.0383 0.0
C2213 C 0.46923 0.88761 0.04021 0.0
C2214 C 0.44974 0.89538 0.0371 0.0
C2215 C 0.44494 0.90344 0.0196 0.0
C2216 C 0.42666 0.91093 0.01678 0.0
C2217 C 0.413 0.91036 0.03132 0.0
C2218 C 0.41759 0.90227 0.04871 0.0
C2219 C 0.43585 0.89477 0.05162 0.0
H2220 H 0.39886 0.91617 0.02911 0.0
H2221 H 0.57688 0.84516 0.05717 0.0
H2222 H 0.95115 0.74124 0.86138 0.0
H2223 H 0.91877 0.7359 0.84883 0.0
H2224 H 0.93259 0.76959 0.80005 0.0
H2225 H 0.96486 0.7752 0.81256 0.0
H2226 H 0.8984 0.77919 0.81507 0.0
H2227 H 0.92977 0.72157 0.79623 0.0
H2228 H 0.94867 0.69277 0.80129 0.0
H2229 H 0.90594 0.67245 0.84016 0.0
H2230 H 0.8869 0.70126 0.83553 0.0
H2231 H 0.81405 0.75239 0.76171 0.0
H2232 H 0.84751 0.75765 0.77138 0.0
H2233 H 0.83752 0.72555 0.82207 0.0
H2234 H 0.8042 0.7205 0.81282 0.0
H2235 H 0.87038 0.71523 0.80451 0.0
H2236 H 0.83883 0.77217 0.8236 0.0
H2237 H 0.82089 0.80191 0.82138 0.0
H2238 H 0.86429 0.82452 0.78462 0.0
H2239 H 0.88207 0.79461 0.78587 0.0
C2240 C 0.94734 0.74745 0.84795 0.0
C2241 C 0.96063 0.75864 0.83799 0.0
C2242 C 0.92885 0.74432 0.84075 0.0
C2243 C 0.92333 0.75221 0.82341 0.0
C2244 C 0.93655 0.76336 0.81345 0.0
C2245 C 0.95502 0.7665 0.82062 0.0
C2246 C 0.9036 0.74929 0.81588 0.0
C2247 C 0.89235 0.76522 0.81239 0.0
C2248 C 0.89561 0.73104 0.81294 0.0
C2249 C 0.90699 0.71365 0.81566 0.0
C2250 C 0.92447 0.71102 0.80596 0.0
C2251 C 0.9352 0.69469 0.80873 0.0
C2252 C 0.92853 0.68081 0.82107 0.0
C2253 C 0.9111 0.68322 0.83062 0.0
C2254 C 0.90032 0.69954 0.82792 0.0
C2255 C 0.81893 0.74656 0.77498 0.0
C2256 C 0.8063 0.73621 0.78657 0.0
C2257 C 0.83806 0.74957 0.78047 0.0
C2258 C 0.84493 0.74212 0.79753 0.0
C2259 C 0.83251 0.73144 0.80886 0.0
C2260 C 0.81341 0.72859 0.80351 0.0
C2261 C 0.86511 0.74517 0.80365 0.0
C2262 C 0.87646 0.72923 0.80693 0.0
C2263 C 0.87313 0.76346 0.80649 0.0
C2264 C 0.86167 0.78096 0.8046 0.0
C2265 C 0.84435 0.78329 0.81466 0.0
C2266 C 0.83422 0.80023 0.81362 0.0
C2267 C 0.84143 0.81509 0.80283 0.0
C2268 C 0.85864 0.81295 0.79285 0.0
C2269 C 0.86871 0.79598 0.79366 0.0
H2270 H 0.83365 0.82825 0.80216 0.0
H2271 H 0.93686 0.66817 0.8232 0.0
H2272 H 0.90027 0.0129 0.80379 0.0
H2273 H 0.91382 0.01754 0.83563 0.0
H2274 H 0.95719 0.97598 0.82307 0.0
H2275 H 0.94377 0.9712 0.79126 0.0
H2276 H 0.94014 0.97052 0.85788 0.0
H2277 H 0.96982 0.0212 0.82432 0.0
H2278 H 0.97092 0.04895 0.8036 0.0
H2279 H 0.93529 0.07972 0.84296 0.0
H2280 H 0.93374 0.05205 0.8638 0.0
H2281 H 0.9884 0.99326 0.94586 0.0
H2282 H 0.98365 0.9887 0.9115 0.0
H2283 H 0.93684 0.02824 0.91319 0.0
H2284 H 0.9412 0.03266 0.94721 0.0
H2285 H 0.96039 0.03369 0.88256 0.0
H2286 H 0.92797 0.98258 0.9143 0.0
H2287 H 0.92579 0.95493 0.93509 0.0
H2288 H 0.96532 0.92488 0.8991 0.0
H2289 H 0.96822 0.95257 0.87836 0.0
C2290 C 0.91274 0.0048 0.80775 0.0
C2291 C 0.92094 0.99171 0.79494 0.0
C2292 C 0.92051 0.00751 0.82593 0.0
C2293 C 0.93659 0.99719 0.83165 0.0
C2294 C 0.94479 0.9841 0.81893 0.0
C2295 C 0.93712 0.98146 0.80072 0.0
C2296 C 0.94459 -0.00019 0.85105 0.0
C2297 C 0.94494 0.98425 0.86318 0.0
C2298 C 0.95059 0.01777 0.858 0.0
C2299 C 0.95155 0.03449 0.84555 0.0
C2300 C 0.9621 0.03383 0.82849 0.0
C2301 C 0.96282 0.04956 0.81673 0.0
C2302 C 0.95315 0.06608 0.82194 0.0
C2303 C 0.94276 0.06692 0.83894 0.0
C2304 C 0.94198 0.05122 0.85074 0.0
C2305 C 0.97711 0.00097 0.93891 0.0
C2306 C 0.96494 0.01302 0.94942 0.0
C2307 C 0.97446 -0.00161 0.91929 0.0
C2308 C 0.95978 0.00802 0.90987 0.0
C2309 C 0.94824 0.02066 0.92018 0.0
C2310 C 0.95072 0.02308 0.93971 0.0
C2311 C 0.9556 0.00449 0.88947 0.0
C2312 C 0.95593 0.01989 0.87715 0.0
C2313 C 0.95014 0.98639 0.8824 0.0
C2314 C 0.94854 0.96977 0.89493 0.0
C2315 C 0.93642 0.97018 0.91095 0.0
C2316 C 0.93504 0.95449 0.92271 0.0
C2317 C 0.9455 0.93819 0.91846 0.0
C2318 C 0.95735 0.93756 0.90243 0.0
C2319 C 0.95889 0.95325 0.89068 0.0
H2320 H 0.94439 0.92604 0.92756 0.0
H2321 H 0.95373 0.07824 0.81282 0.0
H2322 H 0.74089 0.10622 0.5796 0.0
H2323 H 0.74269 0.12202 0.61076 0.0
H2324 H 0.76584 0.17198 0.58446 0.0
H2325 H 0.76479 0.15607 0.5535 0.0
H2326 H 0.78348 0.16657 0.61637 0.0
H2327 H 0.71665 0.16542 0.5961 0.0
H2328 H 0.68607 0.15015 0.58654 0.0
H2329 H 0.68399 0.12078 0.63944 0.0
H2330 H 0.71467 0.13566 0.64919 0.0
H2331 H 0.76028 0.24342 0.67325 0.0
H2332 H 0.75805 0.21988 0.64773 0.0
H2333 H 0.74407 0.17691 0.68839 0.0
H2334 H 0.74638 0.20041 0.71424 0.0
H2335 H 0.72333 0.17385 0.65363 0.0
H2336 H 0.78803 0.18098 0.67562 0.0
H2337 H 0.81703 0.19894 0.68481 0.0
H2338 H 0.82243 0.21952 0.62797 0.0
H2339 H 0.79319 0.20192 0.61844 0.0
C2340 C 0.74653 0.12052 0.58051 0.0
C2341 C 0.75259 0.12996 0.56409 0.0
C2342 C 0.74748 0.12954 0.59831 0.0
C2343 C 0.75409 0.1483 0.59991 0.0
C2344 C 0.76069 0.1575 0.58359 0.0
C2345 C 0.76003 0.1484 0.56587 0.0
C2346 C 0.75355 0.15878 0.61831 0.0
C2347 C 0.7703 0.16821 0.62446 0.0
C2348 C 0.73649 0.16045 0.62922 0.0
C2349 C 0.71809 0.15145 0.62327 0.0
C2350 C 0.70975 0.15557 0.60562 0.0
C2351 C 0.69238 0.14702 0.60018 0.0
C2352 C 0.68312 0.13448 0.61236 0.0
C2353 C 0.6912 0.13046 0.63 0.0
C2354 C 0.70858 0.13894 0.63549 0.0
C2355 C 0.75651 0.22903 0.67682 0.0
C2356 C 0.75382 0.22373 0.69582 0.0
C2357 C 0.75525 0.21561 0.6622 0.0
C2358 C 0.75139 0.19664 0.6663 0.0
C2359 C 0.74733 0.19147 0.68504 0.0
C2360 C 0.74862 0.20493 0.69976 0.0
C2361 C 0.75297 0.18223 0.65103 0.0
C2362 C 0.73653 0.17195 0.64564 0.0
C2363 C 0.77027 0.17995 0.6407 0.0
C2364 C 0.78829 0.19008 0.64629 0.0
C2365 C 0.79532 0.18931 0.66503 0.0
C2366 C 0.81182 0.19948 0.67033 0.0
C2367 C 0.82157 0.21037 0.65699 0.0
C2368 C 0.81487 0.21106 0.63829 0.0
C2369 C 0.79833 0.20097 0.63293 0.0
H2370 H 0.83431 0.21828 0.66114 0.0
H2371 H 0.66966 0.1279 0.60818 0.0
H2372 H 0.59232 0.98011 0.29594 0.0
H2373 H 0.57839 0.97468 0.32722 0.0
H2374 H 0.52584 0.00117 0.30974 0.0
H2375 H 0.5397 0.00675 0.2783 0.0
H2376 H 0.53966 0.01572 0.34331 0.0
H2377 H 0.52573 0.95454 0.31731 0.0
H2378 H 0.53251 0.92465 0.30018 0.0
H2379 H 0.57493 0.91089 0.3419 0.0
H2380 H 0.5686 0.94082 0.35915 0.0
H2381 H 0.50422 -0.00041 0.43635 0.0
H2382 H 0.50582 -0.00187 0.40163 0.0
H2383 H 0.55998 0.96914 0.4047 0.0
H2384 H 0.55833 0.9701 0.43927 0.0
H2385 H 0.53871 0.95444 0.3766 0.0
H2386 H 0.55863 0.01699 0.39748 0.0
H2387 H 0.55481 0.04726 0.4147 0.0
H2388 H 0.50364 0.05851 0.38288 0.0
H2389 H 0.50719 0.02812 0.36543 0.0
C2390 C 0.57771 0.98461 0.29864 0.0
C2391 C 0.56715 0.99394 0.28464 0.0
C2392 C 0.56973 0.98137 0.3165 0.0
C2393 C 0.55102 0.98737 0.32074 0.0
C2394 C 0.54027 0.99635 0.3067 0.0
C2395 C 0.54821 -0.0005 0.28875 0.0
C2396 C 0.54345 0.98562 0.34032 0.0
C2397 C 0.53894 0.00225 0.35044 0.0
C2398 C 0.54297 0.96811 0.34973 0.0
C2399 C 0.54675 0.95 0.33948 0.0
C2400 C 0.53659 0.94521 0.32277 0.0
C2401 C 0.54034 0.92824 0.31305 0.0
C2402 C 0.55416 0.91589 0.31993 0.0
C2403 C 0.56423 0.92046 0.33659 0.0
C2404 C 0.56054 0.93742 0.34636 0.0
C2405 C 0.51639 0.99275 0.42965 0.0
C2406 C 0.53123 0.9851 0.44065 0.0
C2407 C 0.51729 0.99195 0.40979 0.0
C2408 C 0.53311 0.98369 0.40057 0.0
C2409 C 0.5476 0.97553 0.4115 0.0
C2410 C 0.54668 0.97622 0.43131 0.0
C2411 C 0.53539 0.98457 0.37963 0.0
C2412 C 0.53894 0.96782 0.36929 0.0
C2413 C 0.53523 0.00198 0.37002 0.0
C2414 C 0.53306 0.02025 0.38032 0.0
C2415 C 0.54651 0.02588 0.39423 0.0
C2416 C 0.5444 0.04306 0.40402 0.0
C2417 C 0.52895 0.0548 0.39994 0.0
C2418 C 0.51559 0.04938 0.38602 0.0
C2419 C 0.51766 0.0322 0.37615 0.0
H2420 H 0.52739 0.06812 0.40748 0.0
H2421 H 0.55705 0.90277 0.31238 0.0
H2422 H 0.72442 0.81775 0.0521 0.0
H2423 H 0.72367 0.80231 0.0831 0.0
H2424 H 0.73375 0.85618 0.11111 0.0
H2425 H 0.73487 0.87153 0.08041 0.0
H2426 H 0.7579 0.83162 0.12335 0.0
H2427 H 0.69053 0.83262 0.11346 0.0
H2428 H 0.65885 0.82711 0.09871 0.0
H2429 H 0.66681 0.76714 0.10175 0.0
H2430 H 0.69879 0.77225 0.11602 0.0
H2431 H 0.75437 0.79675 0.21572 0.0
H2432 H 0.73923 0.81304 0.18913 0.0
H2433 H 0.7438 0.76246 0.15442 0.0
H2434 H 0.75993 0.74659 0.18059 0.0
H2435 H 0.7091 0.78659 0.14762 0.0
H2436 H 0.77884 0.78711 0.15145 0.0
H2437 H 0.80947 0.79239 0.16836 0.0
H2438 H 0.79518 0.85066 0.17782 0.0
H2439 H 0.76409 0.84558 0.16144 0.0
C2440 C 0.7264 0.82628 0.06489 0.0
C2441 C 0.72993 0.84583 0.06378 0.0
C2442 C 0.72577 0.81748 0.0826 0.0
C2443 C 0.72851 0.82811 0.09947 0.0
C2444 C 0.7316 0.84767 0.09832 0.0
C2445 C 0.73231 0.85642 0.08072 0.0
C2446 C 0.73013 0.81876 0.11817 0.0
C2447 C 0.74695 0.82213 0.12877 0.0
C2448 C 0.71607 0.806 0.12516 0.0
C2449 C 0.69727 0.80285 0.11557 0.0
C2450 C 0.68573 0.81825 0.11065 0.0
C2451 C 0.66766 0.81519 0.10243 0.0
C2452 C 0.66086 0.79678 0.09922 0.0
C2453 C 0.67213 0.78139 0.10416 0.0
C2454 C 0.69026 0.78437 0.11228 0.0
C2455 C 0.75134 0.78893 0.20268 0.0
C2456 C 0.75806 0.77046 0.2001 0.0
C2457 C 0.74273 0.7982 0.18753 0.0
C2458 C 0.74036 0.78888 0.16988 0.0
C2459 C 0.74534 0.7698 0.16798 0.0
C2460 C 0.75457 0.76078 0.18287 0.0
C2461 C 0.73658 0.79978 0.15256 0.0
C2462 C 0.71965 0.79649 0.14222 0.0
C2463 C 0.75039 0.81273 0.14574 0.0
C2464 C 0.76904 0.8159 0.15549 0.0
C2465 C 0.7821 0.80099 0.15736 0.0
C2466 C 0.79953 0.80395 0.16684 0.0
C2467 C 0.80419 0.82183 0.17427 0.0
C2468 C 0.79144 0.8368 0.17218 0.0
C2469 C 0.77391 0.83389 0.16283 0.0
H2470 H 0.81772 0.82412 0.18156 0.0
H2471 H 0.64681 0.79445 0.09298 0.0
H2472 H 0.92382 0.0035 0.69384 0.0
H2473 H 0.93578 0.00734 0.66163 0.0
H2474 H 0.87886 0.99696 0.63934 0.0
H2475 H 0.86673 0.99281 0.67182 0.0
H2476 H 0.90377 0.97748 0.61955 0.0
H2477 H 0.89862 0.04131 0.63578 0.0
H2478 H 0.90068 0.0711 0.65436 0.0
H2479 H 0.96222 0.06761 0.65471 0.0
H2480 H 0.96054 0.03761 0.63647 0.0
H2481 H 0.98231 0.0161 0.54736 0.0
H2482 H 0.954 0.02317 0.56717 0.0
H2483 H 0.96126 0.97033 0.59595 0.0
H2484 H 0.98906 0.9633 0.57646 0.0
H2485 H 0.95008 0.02838 0.60368 0.0
H2486 H 0.91983 0.94963 0.60714 0.0
H2487 H 0.91391 0.92345 0.58434 0.0
H2488 H 0.91597 0.96217 0.53801 0.0
H2489 H 0.92148 0.98865 0.56051 0.0
C2490 C 0.91377 0.0021 0.68213 0.0
C2491 C 0.89433 -0.0022 0.68539 0.0
C2492 C 0.92061 0.0045 0.66369 0.0
C2493 C 0.90815 0.0028 0.64806 0.0
C2494 C 0.88869 -0.00152 0.65121 0.0
C2495 C 0.8818 0.99608 0.66975 0.0
C2496 C 0.91611 0.00416 0.62853 0.0
C2497 C 0.91371 0.98873 0.61594 0.0
C2498 C 0.92825 0.01936 0.6233 0.0
C2499 C 0.92943 0.03713 0.63479 0.0
C2500 C 0.91259 0.04678 0.63999 0.0
C2501 C 0.91369 0.06373 0.65044 0.0
C2502 C 0.93156 0.07123 0.65573 0.0
C2503 C 0.94838 0.06178 0.65061 0.0
C2504 C 0.94736 0.04479 0.64021 0.0
C2505 C 0.97761 0.00593 0.5577 0.0
C2506 C 0.98777 0.98909 0.56026 0.0
C2507 C 0.96149 0.00998 0.569 0.0
C2508 C 0.95518 0.99702 0.58264 0.0
C2509 C 0.96545 0.98029 0.58514 0.0
C2510 C 0.98152 0.97639 0.57411 0.0
C2511 C 0.93886 0.00111 0.59557 0.0
C2512 C 0.9397 0.01748 0.60698 0.0
C2513 C 0.92459 0.98728 0.59915 0.0
C2514 C 0.92116 0.97121 0.5856 0.0
C2515 C 0.91886 0.95264 0.59212 0.0
C2516 C 0.91561 0.9377 0.57922 0.0
C2517 C 0.9146 0.94113 0.55974 0.0
C2518 C 0.91685 0.9595 0.5531 0.0
C2519 C 0.92011 0.97447 0.56592 0.0
H2520 H 0.91206 0.92954 0.54979 0.0
H2521 H 0.93239 0.08439 0.66377 0.0
H2522 H 0.76153 0.18425 0.47042 0.0
H2523 H 0.76331 0.20557 0.44332 0.0
H2524 H 0.78857 0.16115 0.4091 0.0
H2525 H 0.78649 0.13968 0.43593 0.0
H2526 H 0.80528 0.19839 0.40405 0.0
H2527 H 0.74281 0.16611 0.40794 0.0
H2528 H 0.71197 0.15851 0.4234 0.0
H2529 H 0.6976 0.21741 0.42538 0.0
H2530 H 0.72855 0.22538 0.41023 0.0
H2531 H 0.7855 0.19687 0.30847 0.0
H2532 H 0.78893 0.19278 0.3424 0.0
H2533 H 0.75308 0.24124 0.35318 0.0
H2534 H 0.74942 0.2455 0.31882 0.0
H2535 H 0.74232 0.21204 0.37444 0.0
H2536 H 0.80068 0.24392 0.36408 0.0
H2537 H 0.83099 0.2524 0.34809 0.0
H2538 H 0.8531 0.19706 0.35842 0.0
H2539 H 0.82282 0.18811 0.37421 0.0
C2540 C 0.76787 0.17917 0.45724 0.0
C2541 C 0.7738 0.16028 0.45522 0.0
C2542 C 0.7688 0.19135 0.44179 0.0
C2543 C 0.77595 0.18486 0.42423 0.0
C2544 C 0.78303 0.1664 0.42257 0.0
C2545 C 0.78179 0.15414 0.43788 0.0
C2546 C 0.77459 0.19648 0.40701 0.0
C2547 C 0.79156 0.20149 0.39756 0.0
C2548 C 0.75663 0.20121 0.39903 0.0
C2549 C 0.73815 0.19637 0.4083 0.0
C2550 C 0.7332 0.17746 0.41192 0.0
C2551 C 0.71567 0.17308 0.42057 0.0
C2552 C 0.70288 0.18748 0.42547 0.0
C2553 C 0.70756 0.20628 0.42166 0.0
C2554 C 0.7251 0.21074 0.41307 0.0
C2555 C 0.77842 0.20683 0.31793 0.0
C2556 C 0.76709 0.22148 0.31082 0.0
C2557 C 0.78056 0.20455 0.33742 0.0
C2558 C 0.77159 0.21692 0.35035 0.0
C2559 C 0.7603 0.23165 0.34342 0.0
C2560 C 0.75818 0.23402 0.32379 0.0
C2561 C 0.77306 0.21322 0.37098 0.0
C2562 C 0.7561 0.20964 0.38113 0.0
C2563 C 0.79105 0.21005 0.37972 0.0
C2564 C 0.80941 0.21533 0.37031 0.0
C2565 C 0.81195 0.23351 0.36285 0.0
C2566 C 0.82914 0.23841 0.35383 0.0
C2567 C 0.84396 0.22527 0.35224 0.0
C2568 C 0.84162 0.20722 0.35969 0.0
C2569 C 0.82445 0.20224 0.36871 0.0
H2570 H 0.85725 0.22909 0.34524 0.0
H2571 H 0.6893 0.18406 0.43213 0.0
H2572 H 0.58413 0.98287 0.18097 0.0
H2573 H 0.57566 0.98694 0.14764 0.0
H2574 H 0.62668 0.02088 0.1395 0.0
H2575 H 0.6355 0.01652 0.17282 0.0
H2576 H 0.56692 0.0195 0.13315 0.0
H2577 H 0.6387 0.01859 0.09117 0.0
H2578 H 0.67009 0.00266 0.09192 0.0
H2579 H 0.64456 0.95574 0.12083 0.0
H2580 H 0.613 0.97126 0.12002 0.0
H2581 H 0.53953 0.05372 0.04846 0.0
H2582 H 0.56535 0.05173 0.07197 0.0
H2583 H 0.57163 0.99246 0.05858 0.0
H2584 H 0.5457 0.99435 0.03551 0.0
H2585 H 0.60522 0.00794 0.07458 0.0
H2586 H 0.53679 0.00285 0.08735 0.0
H2587 H 0.50333 0.01398 0.0859 0.0
H2588 H 0.51954 0.06514 0.11568 0.0
H2589 H 0.55315 0.05433 0.11714 0.0
C2590 C 0.5937 0.99095 0.17203 0.0
C2591 C 0.61036 -0.00046 0.17955 0.0
C2592 C 0.58886 0.99327 0.15299 0.0
C2593 C 0.60051 0.00427 0.14112 0.0
C2594 C 0.6176 0.01219 0.14835 0.0
C2595 C 0.62253 0.00976 0.16742 0.0
C2596 C 0.59365 0.00897 0.12186 0.0
C2597 C 0.57542 0.01706 0.12041 0.0
C2598 C 0.60464 0.00569 0.10519 0.0
C2599 C 0.62355 0.99622 0.10575 0.0
C2600 C 0.63979 0.00486 0.09766 0.0
C2601 C 0.65761 0.9959 0.09809 0.0
C2602 C 0.65933 0.97824 0.10649 0.0
C2603 C 0.64323 0.96947 0.11442 0.0
C2604 C 0.62538 0.97836 0.11401 0.0
C2605 C 0.54727 0.04058 0.04975 0.0
C2606 C 0.541 0.02426 0.03995 0.0
C2607 C 0.56197 0.03943 0.06318 0.0
C2608 C 0.57009 0.02183 0.06721 0.0
C2609 C 0.56558 0.00613 0.05562 0.0
C2610 C 0.55091 0.00728 0.04222 0.0
C2611 C 0.57868 0.01858 0.08609 0.0
C2612 C 0.59706 0.01073 0.08746 0.0
C2613 C 0.56765 0.02147 0.10278 0.0
C2614 C 0.54746 0.0279 0.10217 0.0
C2615 C 0.53321 0.01651 0.0935 0.0
C2616 C 0.51423 0.02274 0.09269 0.0
C2617 C 0.50933 0.04029 0.10063 0.0
C2618 C 0.52337 0.05158 0.10949 0.0
C2619 C 0.54238 0.0454 0.11034 0.0
H2620 H 0.49463 0.04511 0.09996 0.0
H2621 H 0.67314 0.97132 0.1068 0.0
H2622 H 0.71387 0.83584 0.9539 0.0
H2623 H 0.71342 0.81939 0.92302 0.0
H2624 H 0.75193 0.86159 0.90035 0.0
H2625 H 0.75107 0.87877 0.93078 0.0
H2626 H 0.72887 0.8544 0.8747 0.0
H2627 H 0.76583 0.81378 0.91298 0.0
H2628 H 0.77413 0.7944 0.94056 0.0
H2629 H 0.72536 0.75836 0.92948 0.0
H2630 H 0.71662 0.77767 0.90196 0.0
H2631 H 0.75397 0.7919 0.7952 0.0
H2632 H 0.75255 0.81396 0.8224 0.0
H2633 H 0.70532 0.78199 0.84575 0.0
H2634 H 0.707 0.75975 0.81893 0.0
H2635 H 0.73511 0.78476 0.87006 0.0
H2636 H 0.70054 0.82846 0.82929 0.0
H2637 H 0.69772 0.8475 0.80037 0.0
H2638 H 0.74974 0.87736 0.81497 0.0
H2639 H 0.75296 0.85837 0.84387 0.0
C2640 C 0.72233 0.84146 0.94232 0.0
C2641 C 0.7326 0.85846 0.9447 0.0
C2642 C 0.72217 0.83203 0.92467 0.0
C2643 C 0.73297 0.83897 0.90928 0.0
C2644 C 0.74343 0.85589 0.91185 0.0
C2645 C 0.74305 0.86564 0.92929 0.0
C2646 C 0.73307 0.82882 0.89048 0.0
C2647 C 0.73047 0.83918 0.87375 0.0
C2648 C 0.73527 0.80896 0.88897 0.0
C2649 C 0.74047 0.79729 0.90551 0.0
C2650 C 0.7568 0.8018 0.9165 0.0
C2651 C 0.76159 0.79082 0.93211 0.0
C2652 C 0.75025 0.77519 0.9368 0.0
C2653 C 0.73412 0.77049 0.92585 0.0
C2654 C 0.72925 0.78143 0.91023 0.0
C2655 C 0.74281 0.79003 0.80576 0.0
C2656 C 0.73064 0.77407 0.80503 0.0
C2657 C 0.74207 0.8026 0.82137 0.0
C2658 C 0.72893 0.79953 0.83623 0.0
C2659 C 0.71568 0.78454 0.83456 0.0
C2660 C 0.71656 0.77191 0.81916 0.0
C2661 C 0.73033 0.81026 0.85453 0.0
C2662 C 0.73343 0.79997 0.87113 0.0
C2663 C 0.72932 0.83018 0.85579 0.0
C2664 C 0.72704 0.84192 0.83868 0.0
C2665 C 0.71141 0.83904 0.82629 0.0
C2666 C 0.70974 0.84983 0.8099 0.0
C2667 C 0.72357 0.86361 0.80581 0.0
C2668 C 0.73905 0.86669 0.81814 0.0
C2669 C 0.74077 0.85594 0.83455 0.0
H2670 H 0.72228 0.87192 0.7931 0.0
H2671 H 0.75399 0.76671 0.94889 0.0
H2672 H 0.79218 0.93655 0.99398 0.0
H2673 H 0.82662 0.94169 -0.00287 0.0
H2674 H 0.83287 0.88601 0.02028 0.0
H2675 H 0.79809 0.88082 0.01749 0.0
H2676 H 0.85421 0.91041 0.03979 0.0
H2677 H 0.84803 0.89454 0.97501 0.0
H2678 H 0.83471 0.89458 0.94254 0.0
H2679 H 0.84996 0.95318 0.9373 0.0
H2680 H 0.86309 0.95359 0.96984 0.0
H2681 H 0.95069 0.95594 -0.00134 0.0
H2682 H 0.92559 0.93169 -0.00301 0.0
H2683 H 0.89437 0.96059 0.04168 0.0
H2684 H 0.91909 0.9852 0.04282 0.0
H2685 H 0.89082 0.93755 0.98605 0.0
H2686 H 0.8657 0.93237 0.06581 0.0
H2687 H 0.88077 0.92905 0.09727 0.0
H2688 H 0.93142 0.90629 0.07094 0.0
H2689 H 0.91658 0.90922 0.03935 0.0
C2690 C 0.8008 0.92534 -0.00026 0.0
C2691 C 0.79232 0.90823 0.00541 0.0
C2692 C 0.82057 0.92826 0.00141 0.0
C2693 C 0.83243 0.91409 0.00856 0.0
C2694 C 0.82403 0.89709 0.01458 0.0
C2695 C 0.80415 0.89416 0.01298 0.0
C2696 C 0.85347 0.91755 0.01016 0.0
C2697 C 0.8623 0.91618 0.02802 0.0
C2698 C 0.86436 0.92421 0.99458 0.0
C2699 C 0.85649 0.9241 0.97493 0.0
C2700 C 0.84843 0.90747 0.96699 0.0
C2701 C 0.84093 0.90741 0.94855 0.0
C2702 C 0.84148 0.92388 0.93787 0.0
C2703 C 0.84955 0.94043 0.94559 0.0
C2704 C 0.85706 0.94058 0.96402 0.0
C2705 C 0.93886 0.95666 0.00866 0.0
C2706 C 0.9368 0.97237 0.02092 0.0
C2707 C 0.92448 0.94276 0.0077 0.0
C2708 C 0.90818 0.94403 0.01944 0.0
C2709 C 0.90695 0.95901 0.03273 0.0
C2710 C 0.92106 0.97312 0.03337 0.0
C2711 C 0.89106 0.93174 0.01602 0.0
C2712 C 0.88295 0.93138 -0.00224 0.0
C2713 C 0.88109 0.92301 0.03111 0.0
C2714 C 0.89 0.92107 0.05016 0.0
C2715 C 0.87999 0.92652 0.06672 0.0
C2716 C 0.88852 0.92475 0.08459 0.0
C2717 C 0.90705 0.91748 0.0861 0.0
C2718 C 0.91708 0.91196 0.06975 0.0
C2719 C 0.90863 0.9137 0.05186 0.0
H2720 H 0.91362 0.91613 0.09995 0.0
H2721 H 0.83566 0.9238 0.9236 0.0
H2722 H 0.31441 0.61499 0.98606 0.0
H2723 H 0.34556 0.59961 0.9823 0.0
H2724 H 0.32118 0.54741 0.00247 0.0
H2725 H 0.28999 0.56254 0.0061 0.0
H2726 H 0.36845 0.58338 0.00846 0.0
H2727 H 0.34325 0.51063 0.9793 0.0
H2728 H 0.3165 0.49677 0.96061 0.0
H2729 H 0.30819 0.54977 0.93305 0.0
H2730 H 0.33504 0.56387 0.95139 0.0
H2731 H 0.44637 0.52213 0.01324 0.0
H2732 H 0.41281 0.53163 0.01552 0.0
H2733 H 0.41158 0.53971 0.95486 0.0
H2734 H 0.445 0.52927 0.95256 0.0
H2735 H 0.37712 0.52573 0.96826 0.0
H2736 H 0.42195 0.57638 0.98362 0.0
H2737 H 0.44931 0.59045 0.00125 0.0
H2738 H 0.41902 0.58337 0.0539 0.0
H2739 H 0.39157 0.56905 0.03658 0.0
C2740 C 0.31564 0.60022 0.98964 0.0
C2741 C 0.29967 0.59 0.99633 0.0
C2742 C 0.33347 0.59148 0.98754 0.0
C2743 C 0.33563 0.57234 0.99196 0.0
C2744 C 0.31976 0.56213 -0.00128 0.0
C2745 C 0.30195 0.57084 0.00084 0.0
C2746 C 0.35455 0.56313 0.98972 0.0
C2747 C 0.37033 0.57078 -0.00032 0.0
C2748 C 0.35702 0.54673 0.97819 0.0
C2749 C 0.34103 0.53834 0.96686 0.0
C2750 C 0.33576 0.5193 0.9692 0.0
C2751 C 0.32057 0.51141 0.95867 0.0
C2752 C 0.31061 0.5224 0.94569 0.0
C2753 C 0.31587 0.54129 0.94316 0.0
C2754 C 0.33105 0.54925 0.95363 0.0
C2755 C 0.43865 0.52494 0.00035 0.0
C2756 C 0.44815 0.52456 0.98277 0.0
C2757 C 0.41958 0.53074 0.00166 0.0
C2758 C 0.4098 0.5366 0.98538 0.0
C2759 C 0.41889 0.53523 0.9676 0.0
C2760 C 0.43797 0.52934 0.96631 0.0
C2761 C 0.3909 0.54591 0.98712 0.0
C2762 C 0.37517 0.53829 0.9771 0.0
C2763 C 0.38849 0.56246 -0.00156 0.0
C2764 C 0.40477 0.57154 0.00882 0.0
C2765 C 0.42116 0.57777 -0.00104 0.0
C2766 C 0.43668 0.58579 0.0089 0.0
C2767 C 0.43592 0.58778 0.02869 0.0
C2768 C 0.4196 0.58182 0.03857 0.0
C2769 C 0.40404 0.57378 0.0287 0.0
H2770 H 0.44796 0.59397 0.03635 0.0
H2771 H 0.29885 0.51627 0.93757 0.0
H2772 H 0.16257 0.54305 0.74758 0.0
H2773 H 0.17661 0.57448 0.7516 0.0
H2774 H 0.12117 0.59947 0.74189 0.0
H2775 H 0.10718 0.56793 0.73702 0.0
H2776 H 0.14578 0.61776 0.7228 0.0
H2777 H 0.14338 0.60107 0.78703 0.0
H2778 H 0.14663 0.58156 0.81555 0.0
H2779 H 0.20779 0.5802 0.80786 0.0
H2780 H 0.20491 0.59947 0.77913 0.0
H2781 H 0.19992 0.70489 0.74354 0.0
H2782 H 0.17537 0.6799 0.74606 0.0
H2783 H 0.21942 0.63756 0.74155 0.0
H2784 H 0.24379 0.66204 0.73883 0.0
H2785 H 0.194 0.63296 0.77276 0.0
H2786 H 0.19218 0.64599 0.70396 0.0
H2787 H 0.18681 0.66745 0.67722 0.0
H2788 H 0.12983 0.6788 0.69762 0.0
H2789 H 0.13497 0.65754 0.72461 0.0
C2790 C 0.15331 0.55522 0.74651 0.0
C2791 C 0.13379 0.55301 0.74197 0.0
C2792 C 0.16132 0.57322 0.74895 0.0
C2793 C 0.14989 0.58941 0.7474 0.0
C2794 C 0.13028 0.58722 0.7432 0.0
C2795 C 0.12231 0.56919 0.74044 0.0
C2796 C 0.15887 0.60849 0.74885 0.0
C2797 C 0.15596 0.62124 0.73402 0.0
C2798 C 0.172 0.61328 0.76355 0.0
C2799 C 0.1739 0.60166 0.78084 0.0
C2800 C 0.15751 0.59651 0.79134 0.0
C2801 C 0.15929 0.5855 0.80756 0.0
C2802 C 0.1774 0.57963 0.8135 0.0
C2803 C 0.19378 0.58477 0.80324 0.0
C2804 C 0.19208 0.59576 0.787 0.0
C2805 C 0.20432 0.69025 0.74287 0.0
C2806 C 0.22385 0.68549 0.74104 0.0
C2807 C 0.19031 0.67603 0.74439 0.0
C2808 C 0.19569 0.65695 0.74416 0.0
C2809 C 0.21505 0.65223 0.74195 0.0
C2810 C 0.22895 0.6663 0.74031 0.0
C2811 C 0.1815 0.64153 0.74633 0.0
C2812 C 0.18344 0.62954 0.76187 0.0
C2813 C 0.1671 0.63776 0.73264 0.0
C2814 C 0.164 0.65032 0.71633 0.0
C2815 C 0.17855 0.65315 0.70278 0.0
C2816 C 0.17554 0.66526 0.68758 0.0
C2817 C 0.158 0.67451 0.68574 0.0
C2818 C 0.14341 0.67163 0.69907 0.0
C2819 C 0.14636 0.65954 0.7143 0.0
H2820 H 0.1557 0.68389 0.67397 0.0
H2821 H 0.17875 0.57111 0.82606 0.0
H2822 H 0.16919 0.39139 0.53907 0.0
H2823 H 0.13815 0.40721 0.54226 0.0
H2824 H 0.15797 0.45069 0.50433 0.0
H2825 H 0.18948 0.43577 0.5027 0.0
H2826 H 0.13687 0.46654 0.52763 0.0
H2827 H 0.12773 0.40818 0.49075 0.0
H2828 H 0.12823 0.37363 0.48534 0.0
H2829 H 0.09157 0.36581 0.53376 0.0
H2830 H 0.09114 0.40029 0.53962 0.0
H2831 H 0.05967 0.48792 0.46857 0.0
H2832 H 0.08818 0.4773 0.48505 0.0
H2833 H 0.05266 0.4533 0.52894 0.0
H2834 H 0.02367 0.46419 0.51226 0.0
H2835 H 0.07878 0.42813 0.51272 0.0
H2836 H 0.0812 0.49106 0.53819 0.0
H2837 H 0.08073 0.52591 0.53719 0.0
H2838 H 0.13141 0.52571 0.5025 0.0
H2839 H 0.13192 0.49093 0.50289 0.0
C2840 C 0.16688 0.40446 0.53165 0.0
C2841 C 0.18155 0.41236 0.52053 0.0
C2842 C 0.1491 0.41343 0.53333 0.0
C2843 C 0.14537 0.42992 0.52311 0.0
C2844 C 0.16034 0.43802 0.51241 0.0
C2845 C 0.17834 0.42946 0.51136 0.0
C2846 C 0.12581 0.43839 0.52265 0.0
C2847 C 0.12419 0.45813 0.52429 0.0
C2848 C 0.109 0.42745 0.51902 0.0
C2849 C 0.10952 0.40674 0.5157 0.0
C2850 C 0.11989 0.39905 0.5003 0.0
C2851 C 0.12016 0.3795 0.49716 0.0
C2852 C 0.10998 0.36753 0.50922 0.0
C2853 C 0.09948 0.37509 0.52445 0.0
C2854 C 0.09921 0.39463 0.52769 0.0
C2855 C 0.0579 0.48068 0.48192 0.0
C2856 C 0.0395 0.47687 0.48918 0.0
C2857 C 0.07424 0.47475 0.49142 0.0
C2858 C 0.07261 0.46474 0.50837 0.0
C2859 C 0.05423 0.4612 0.51596 0.0
C2860 C 0.03773 0.46745 0.50651 0.0
C2861 C 0.09013 0.4563 0.51659 0.0
C2862 C 0.09135 0.43653 0.51657 0.0
C2863 C 0.10674 0.46729 0.52081 0.0
C2864 C 0.10656 0.48831 0.52067 0.0
C2865 C 0.09218 0.49845 0.53033 0.0
C2866 C 0.09191 0.51819 0.52986 0.0
C2867 C 0.10605 0.52801 0.51988 0.0
C2868 C 0.12048 0.5181 0.51029 0.0
C2869 C 0.12076 0.49836 0.51065 0.0
H2870 H 0.10581 0.54329 0.51954 0.0
H2871 H 0.11019 0.35239 0.50675 0.0
H2872 H 0.82544 0.94583 0.75434 0.0
H2873 H 0.80771 0.91673 0.76176 0.0
H2874 H 0.86131 0.88724 0.76793 0.0
H2875 H 0.8789 0.91585 0.75987 0.0
H2876 H 0.83959 0.86795 0.74592 0.0
H2877 H 0.8299 0.8984 0.80643 0.0
H2878 H 0.81996 0.92364 0.82884 0.0
H2879 H 0.76183 0.91862 0.80889 0.0
H2880 H 0.77147 0.89357 0.78612 0.0
H2881 H 0.79764 0.78191 0.7617 0.0
H2882 H 0.81364 0.80999 0.77501 0.0
H2883 H 0.76471 0.84374 0.76035 0.0
H2884 H 0.74892 0.8157 0.74677 0.0
H2885 H 0.78532 0.85978 0.79089 0.0
H2886 H 0.79629 0.83395 0.72733 0.0
H2887 H 0.80528 0.80836 0.7049 0.0
H2888 H 0.86107 0.80547 0.73065 0.0
H2889 H 0.85231 0.83098 0.7533 0.0
C2890 C 0.83339 0.93316 0.75746 0.0
C2891 C 0.85356 0.93308 0.75625 0.0
C2892 C 0.82326 0.91656 0.76186 0.0
C2893 C 0.83314 0.89972 0.76553 0.0
C2894 C 0.8533 0.89995 0.76507 0.0
C2895 C 0.86336 0.91635 0.76039 0.0
C2896 C 0.82273 0.88141 0.76796 0.0
C2897 C 0.82805 0.86615 0.75613 0.0
C2898 C 0.80727 0.87903 0.78087 0.0
C2899 C 0.80146 0.89423 0.79443 0.0
C2900 C 0.81503 0.90281 0.80668 0.0
C2901 C 0.80944 0.91706 0.81948 0.0
C2902 C 0.79029 0.92277 0.82025 0.0
C2903 C 0.77667 0.91422 0.80825 0.0
C2904 C 0.78219 0.89999 0.7954 0.0
C2905 C 0.78988 0.79508 0.76242 0.0
C2906 C 0.77216 0.79675 0.75322 0.0
C2907 C 0.79905 0.81119 0.76999 0.0
C2908 C 0.79053 0.82906 0.76837 0.0
C2909 C 0.7716 0.83015 0.76171 0.0
C2910 C 0.76256 0.81411 0.75397 0.0
C2911 C 0.80247 0.84655 0.76906 0.0
C2912 C 0.79726 0.86163 0.78116 0.0
C2913 C 0.81804 0.84893 0.75633 0.0
C2914 C 0.82352 0.83407 0.74227 0.0
C2915 C 0.81042 0.82777 0.72828 0.0
C2916 C 0.81548 0.8133 0.7155 0.0
C2917 C 0.8337 0.80521 0.71642 0.0
C2918 C 0.84693 0.81167 0.73002 0.0
C2919 C 0.84192 0.82612 0.74284 0.0
H2920 H 0.83758 0.79399 0.70653 0.0
H2921 H 0.78598 0.9338 0.83019 0.0
H2922 H 0.68801 0.14167 0.50898 0.0
H2923 H 0.65364 0.1353 0.5131 0.0
H2924 H 0.65876 0.08455 0.47872 0.0
H2925 H 0.69309 0.09068 0.47468 0.0
H2926 H 0.6235 0.1045 0.4732 0.0
H2927 H 0.66518 0.08057 0.52445 0.0
H2928 H 0.68914 0.08628 0.5498 0.0
H2929 H 0.65136 0.12606 0.57706 0.0
H2930 H 0.62728 0.12068 0.55174 0.0
H2931 H 0.58726 0.02023 0.51704 0.0
H2932 H 0.60832 0.04755 0.51905 0.0
H2933 H 0.56076 0.08412 0.50696 0.0
H2934 H 0.53921 0.05652 0.50526 0.0
H2935 H 0.61089 0.08229 0.53869 0.0
H2936 H 0.57607 0.11284 0.47742 0.0
H2937 H 0.5523 0.10468 0.45264 0.0
H2938 H 0.57722 0.04971 0.44559 0.0
H2939 H 0.60099 0.0575 0.47069 0.0
C2940 C 0.68172 0.12937 0.50194 0.0
C2941 C 0.69325 0.11648 0.49174 0.0
C2942 C 0.6621 0.12582 0.50428 0.0
C2943 C 0.65377 0.10944 0.49628 0.0
C2944 C 0.66496 0.09732 0.48491 0.0
C2945 C 0.68458 0.10075 0.48274 0.0
C2946 C 0.63432 0.10321 0.50185 0.0
C2947 C 0.6205 0.10015 0.48763 0.0
C2948 C 0.63037 0.0976 0.52068 0.0
C2949 C 0.64455 0.10035 0.53618 0.0
C2950 C 0.66203 0.09055 0.53585 0.0
C2951 C 0.67563 0.09373 0.5502 0.0
C2952 C 0.6718 0.10654 0.56503 0.0
C2953 C 0.65432 0.11614 0.56558 0.0
C2954 C 0.6407 0.11303 0.55124 0.0
C2955 C 0.58105 0.03404 0.51508 0.0
C2956 C 0.56158 0.03609 0.5102 0.0
C2957 C 0.59316 0.04972 0.51645 0.0
C2958 C 0.58616 0.06782 0.51294 0.0
C2959 C 0.56647 0.0702 0.50952 0.0
C2960 C 0.55422 0.05441 0.5083 0.0
C2961 C 0.60029 0.08319 0.50994 0.0
C2962 C 0.61331 0.08775 0.52455 0.0
C2963 C 0.60355 0.09019 0.49151 0.0
C2964 C 0.59027 0.08578 0.47572 0.0
C2965 C 0.57659 0.09911 0.47039 0.0
C2966 C 0.56312 0.09454 0.45633 0.0
C2967 C 0.56335 0.07677 0.44738 0.0
C2968 C 0.57711 0.0635 0.45247 0.0
C2969 C 0.59056 0.06797 0.46662 0.0
H2970 H 0.55277 0.07325 0.43664 0.0
H2971 H 0.68236 0.10901 0.57609 0.0
H2972 H 0.19182 0.456 0.74393 0.0
H2973 H 0.21257 0.42858 0.74875 0.0
H2974 H 0.16381 0.3966 0.76878 0.0
H2975 H 0.14307 0.42372 0.76387 0.0
H2976 H 0.1976 0.39126 0.7903 0.0
H2977 H 0.17668 0.3925 0.72355 0.0
H2978 H 0.17473 0.40757 0.69223 0.0
H2979 H 0.2363 0.41061 0.68943 0.0
H2980 H 0.23858 0.39571 0.72083 0.0
H2981 H 0.19912 0.2953 0.77284 0.0
H2982 H 0.19449 0.32917 0.77485 0.0
H2983 H 0.24929 0.33839 0.74771 0.0
H2984 H 0.25396 0.30408 0.74524 0.0
H2985 H 0.2223 0.35943 0.73192 0.0
H2986 H 0.24329 0.35068 0.79469 0.0
H2987 H 0.24588 0.33577 0.826 0.0
H2988 H 0.18653 0.34759 0.83728 0.0
H2989 H 0.18347 0.36232 0.80592 0.0
C2990 C 0.18561 0.4432 0.74963 0.0
C2991 C 0.1658 0.44194 0.75341 0.0
C2992 C 0.19747 0.42757 0.75233 0.0
C2993 C 0.18968 0.41057 0.75903 0.0
C2994 C 0.1701 0.40961 0.76364 0.0
C2995 C 0.15825 0.42509 0.76074 0.0
C2996 C 0.20134 0.39319 0.76004 0.0
C2997 C 0.20309 0.38427 0.77759 0.0
C2998 C 0.20919 0.38452 0.74355 0.0
C2999 C 0.20779 0.39324 0.72461 0.0
C3000 C 0.18978 0.39651 0.7163 0.0
C3001 C 0.18862 0.40499 0.69853 0.0
C3002 C 0.20538 0.41012 0.68888 0.0
C3003 C 0.22333 0.40668 0.69694 0.0
C3004 C 0.22457 0.3982 0.71471 0.0
C3005 C 0.21034 0.30443 0.7674 0.0
C3006 C 0.22693 0.29689 0.75886 0.0
C3007 C 0.20772 0.32388 0.76874 0.0
C3008 C 0.22169 0.33638 0.76175 0.0
C3009 C 0.2384 0.329 0.75335 0.0
C3010 C 0.24107 0.3094 0.752 0.0
C3011 C 0.21779 0.35698 0.76212 0.0
C3012 C 0.21745 0.36657 0.74481 0.0
C3013 C 0.21143 0.36635 0.77891 0.0
C3014 C 0.21315 0.35758 0.79788 0.0
C3015 C 0.23075 0.35001 0.80379 0.0
C3016 C 0.23231 0.34159 0.82156 0.0
C3017 C 0.21638 0.34072 0.83362 0.0
C3018 C 0.19886 0.34829 0.82793 0.0
C3019 C 0.19722 0.35671 0.81017 0.0
H3020 H 0.21761 0.3342 0.84737 0.0
H3021 H 0.20445 0.4167 0.67513 0.0
H3022 H 0.36611 0.57218 0.25944 0.0
H3023 H 0.35136 0.60328 0.25793 0.0
H3024 H 0.30207 0.57865 0.22942 0.0
H3025 H 0.31656 0.54733 0.23142 0.0
H3026 H 0.34232 0.6239 0.22871 0.0
H3027 H 0.26246 0.60559 0.23916 0.0
H3028 H 0.24205 0.58154 0.25448 0.0
H3029 H 0.28638 0.57154 0.29544 0.0
H3030 H 0.30694 0.59567 0.2805 0.0
H3031 H 0.25772 0.69739 0.24713 0.0
H3032 H 0.26974 0.66756 0.23339 0.0
H3033 H 0.32371 0.67667 0.26249 0.0
H3034 H 0.31185 0.70644 0.27564 0.0
H3035 H 0.27808 0.63861 0.25532 0.0
H3036 H 0.35971 0.65228 0.24265 0.0
H3037 H 0.38042 0.678 0.23101 0.0
H3038 H 0.33353 0.69953 0.19845 0.0
H3039 H 0.31271 0.67355 0.20926 0.0
C3040 C 0.35201 0.57333 0.25308 0.0
C3041 C 0.34245 0.55728 0.24566 0.0
C3042 C 0.34365 0.59116 0.25207 0.0
C3043 C 0.32559 0.59337 0.24355 0.0
C3044 C 0.3159 0.57731 0.23628 0.0
C3045 C 0.32418 0.5594 0.23747 0.0
C3046 C 0.31713 0.61255 0.24235 0.0
C3047 C 0.32829 0.62716 0.23458 0.0
C3048 C 0.29855 0.6167 0.24937 0.0
C3049 C 0.28631 0.60223 0.25855 0.0
C3050 C 0.26782 0.59826 0.25145 0.0
C3051 C 0.25623 0.58462 0.26007 0.0
C3052 C 0.26295 0.57496 0.27587 0.0
C3053 C 0.28124 0.57897 0.28314 0.0
C3054 C 0.29287 0.5926 0.27459 0.0
C3055 C 0.27248 0.69341 0.24967 0.0
C3056 C 0.2841 0.70429 0.26198 0.0
C3057 C 0.27925 0.67629 0.24207 0.0
C3058 C 0.29768 0.66986 0.24682 0.0
C3059 C 0.30963 0.68143 0.25822 0.0
C3060 C 0.30289 0.69849 0.26571 0.0
C3061 C 0.30358 0.65014 0.24235 0.0
C3062 C 0.29191 0.63536 0.24899 0.0
C3063 C 0.32182 0.64592 0.23453 0.0
C3064 C 0.33459 0.66094 0.22687 0.0
C3065 C 0.35387 0.6623 0.23275 0.0
C3066 C 0.36565 0.67694 0.2263 0.0
C3067 C 0.35832 0.69036 0.21397 0.0
C3068 C 0.33924 0.68907 0.20792 0.0
C3069 C 0.32744 0.67436 0.21418 0.0
H3070 H 0.36744 0.70178 0.20922 0.0
H3071 H 0.25396 0.5644 0.28252 0.0
H3072 H 0.52079 0.67738 0.61833 0.0
H3073 H 0.5225 0.64834 0.59922 0.0
H3074 H 0.49864 0.67729 0.55133 0.0
H3075 H 0.49681 0.7065 0.57039 0.0
H3076 H 0.47953 0.64491 0.55876 0.0
H3077 H 0.54518 0.66359 0.55109 0.0
H3078 H 0.57759 0.6737 0.56133 0.0
H3079 H 0.58415 0.62216 0.59193 0.0
H3080 H 0.55165 0.61185 0.58212 0.0
H3081 H 0.48188 0.57327 0.49319 0.0
H3082 H 0.49545 0.6021 0.50742 0.0
H3083 H 0.51158 0.57114 0.55717 0.0
H3084 H 0.49836 0.54194 0.54257 0.0
H3085 H 0.53653 0.60431 0.54829 0.0
H3086 H 0.47009 0.58729 0.55872 0.0
H3087 H 0.43787 0.5767 0.54836 0.0
H3088 H 0.43304 0.62543 0.51315 0.0
H3089 H 0.46541 0.63613 0.52305 0.0
C3090 C 0.51602 0.67766 0.60368 0.0
C3091 C 0.5085 0.69429 0.59595 0.0
C3092 C 0.51719 0.66105 0.59273 0.0
C3093 C 0.51086 0.66066 0.57379 0.0
C3094 C 0.50369 0.6773 0.5659 0.0
C3095 C 0.50263 0.69398 0.57682 0.0
C3096 C 0.51006 0.64252 0.56284 0.0
C3097 C 0.49209 0.63625 0.55622 0.0
C3098 C 0.52634 0.63085 0.56004 0.0
C3099 C 0.54587 0.63704 0.56604 0.0
C3100 C 0.55345 0.65449 0.56017 0.0
C3101 C 0.57185 0.66024 0.56586 0.0
C3102 C 0.58289 0.64862 0.57734 0.0
C3103 C 0.57556 0.63118 0.5831 0.0
C3104 C 0.55715 0.62536 0.57745 0.0
C3105 C 0.48915 0.57246 0.50677 0.0
C3106 C 0.48912 0.55553 0.51685 0.0
C3107 C 0.49685 0.58892 0.51491 0.0
C3108 C 0.50416 0.58882 0.53349 0.0
C3109 C 0.506 0.57149 0.5428 0.0
C3110 C 0.49848 0.55484 0.53448 0.0
C3111 C 0.50607 0.60699 0.54417 0.0
C3112 C 0.5241 0.61314 0.5508 0.0
C3113 C 0.48984 0.6186 0.54718 0.0
C3114 C 0.47024 0.6124 0.54147 0.0
C3115 C 0.46221 0.59567 0.54866 0.0
C3116 C 0.44392 0.58965 0.54288 0.0
C3117 C 0.43343 0.60036 0.53007 0.0
C3118 C 0.44119 0.61714 0.52305 0.0
C3119 C 0.45951 0.62319 0.52874 0.0
H3120 H 0.41927 0.59568 0.52561 0.0
H3121 H 0.59714 0.65308 0.58172 0.0
H3122 H 0.53466 0.24562 0.79928 0.0
H3123 H 0.56218 0.24923 0.77773 0.0
H3124 H 0.59756 0.26727 0.82508 0.0
H3125 H 0.57036 0.26365 0.8466 0.0
H3126 H 0.60217 0.28993 0.79303 0.0
H3127 H 0.59933 0.22269 0.80921 0.0
H3128 H 0.5834 0.19143 0.80982 0.0
H3129 H 0.57791 0.19162 0.749 0.0
H3130 H 0.59362 0.22301 0.74809 0.0
H3131 H 0.69704 0.26525 0.7933 0.0
H3132 H 0.66313 0.27318 0.79475 0.0
H3133 H 0.65476 0.24877 0.73864 0.0
H3134 H 0.68913 0.24073 0.7373 0.0
H3135 H 0.63143 0.23296 0.7634 0.0
H3136 H 0.64279 0.29621 0.74697 0.0
H3137 H 0.65863 0.32743 0.74612 0.0
H3138 H 0.64848 0.33535 0.80594 0.0
H3139 H 0.6325 0.30418 0.80716 0.0
C3140 C 0.54832 0.25032 0.80506 0.0
C3141 C 0.55037 0.25427 0.82464 0.0
C3142 C 0.56398 0.25244 0.79274 0.0
C3143 C 0.58185 0.25861 0.79982 0.0
C3144 C 0.58384 0.26266 0.81931 0.0
C3145 C 0.56831 0.26042 0.83161 0.0
C3146 C 0.59894 0.26009 0.78738 0.0
C3147 C 0.60858 0.27754 0.78642 0.0
C3148 C 0.60679 0.2441 0.77802 0.0
C3149 C 0.59738 0.22527 0.7786 0.0
C3150 C 0.59457 0.21612 0.79599 0.0
C3151 C 0.58562 0.19838 0.79639 0.0
C3152 C 0.57958 0.18957 0.77946 0.0
C3153 C 0.58254 0.19848 0.7621 0.0
C3154 C 0.59147 0.21624 0.76164 0.0
C3155 C 0.68806 0.26217 0.78104 0.0
C3156 C 0.69548 0.25241 0.76522 0.0
C3157 C 0.6687 0.26683 0.78177 0.0
C3158 C 0.65636 0.26173 0.76672 0.0
C3159 C 0.66405 0.25296 0.75034 0.0
C3160 C 0.68361 0.24843 0.74954 0.0
C3161 C 0.63531 0.26264 0.76992 0.0
C3162 C 0.6248 0.24561 0.76923 0.0
C3163 C 0.62664 0.27908 0.77766 0.0
C3164 C 0.63642 0.29781 0.77714 0.0
C3165 C 0.64402 0.30455 0.75997 0.0
C3166 C 0.65301 0.32227 0.75942 0.0
C3167 C 0.6546 0.33336 0.77598 0.0
C3168 C 0.64719 0.32676 0.79312 0.0
C3169 C 0.63807 0.3091 0.79373 0.0
H3170 H 0.66149 0.34709 0.77555 0.0
H3171 H 0.57266 0.17583 0.7798 0.0
H3172 H 0.00403 0.30581 0.06456 0.0
H3173 H 0.00233 0.33586 0.04801 0.0
H3174 H 0.97151 0.36046 0.09544 0.0
H3175 H 0.97364 0.33059 0.11229 0.0
H3176 H 0.97454 0.35817 0.03559 0.0
H3177 H 0.98466 0.40726 0.09988 0.0
H3178 H -0.00318 0.40689 0.13284 0.0
H3179 H 0.0365 0.36307 0.1174 0.0
H3180 H 0.0247 0.36334 0.08432 0.0
H3181 H -0.0024 0.46592 0.02278 0.0
H3182 H 0.98025 0.43907 0.03699 0.0
H3183 H 0.02639 0.40204 0.02051 0.0
H3184 H 0.04327 0.42818 0.00598 0.0
H3185 H 0.00623 0.4139 0.06603 0.0
H3186 H 0.00453 0.3876 -0.00176 0.0
H3187 H 0.99158 0.38498 0.96579 0.0
H3188 H 0.93436 0.38045 0.98813 0.0
H3189 H 0.94694 0.38419 0.02078 0.0
C3190 C 0.99675 0.31756 0.0714 0.0
C3191 C 0.98917 0.31587 0.08982 0.0
C3192 C 0.99572 0.33473 0.0619 0.0
C3193 C 0.98704 0.35054 0.07058 0.0
C3194 C 0.9786 0.3486 0.08859 0.0
C3195 C 0.97978 0.33148 0.09817 0.0
C3196 C 0.98792 0.36917 0.06109 0.0
C3197 C 0.98137 0.37041 0.04229 0.0
C3198 C 0.99624 0.38536 0.06999 0.0
C3199 C 0.00363 0.38516 0.08973 0.0
C3200 C 0.996 0.39758 0.10354 0.0
C3201 C 0.00283 0.39738 0.12223 0.0
C3202 C 0.01737 0.38491 0.12722 0.0
C3203 C 0.02518 0.37267 0.11352 0.0
C3204 C 0.01842 0.37282 0.09481 0.0
C3205 C 0.00375 0.45196 0.02178 0.0
C3206 C 0.02176 0.4492 0.01312 0.0
C3207 C 0.99378 0.43662 0.02979 0.0
C3208 C 0.0017 0.4184 0.0291 0.0
C3209 C 0.0196 0.41577 0.02045 0.0
C3210 C 0.02938 0.43087 0.0124 0.0
C3211 C 0.99363 0.40263 0.04026 0.0
C3212 C -0.00117 0.4019 0.0595 0.0
C3213 C 0.98413 0.38689 0.03172 0.0
C3214 C 0.97666 0.38692 0.01199 0.0
C3215 C 0.98916 0.3869 0.99629 0.0
C3216 C 0.98187 0.38502 0.97782 0.0
C3217 C 0.96215 0.38268 0.97488 0.0
C3218 C 0.94962 0.38239 0.9904 0.0
C3219 C 0.95681 0.3846 0.00888 0.0
H3220 H 0.95659 0.38091 0.9606 0.0
H3221 H 0.02263 0.38477 0.1417 0.0
H3222 H 0.94613 0.77886 0.31741 0.0
H3223 H 0.91202 0.78591 0.31585 0.0
H3224 H 0.90276 0.75827 0.36933 0.0
H3225 H 0.93704 0.75095 0.37099 0.0
H3226 H 0.87621 0.74786 0.34294 0.0
H3227 H 0.89923 0.80537 0.3689 0.0
H3228 H 0.92094 0.83282 0.37304 0.0
H3229 H 0.90709 0.85135 0.3169 0.0
H3230 H 0.88554 0.82386 0.31228 0.0
H3231 H 0.78603 0.76731 0.30634 0.0
H3232 H 0.80881 0.77393 0.33213 0.0
H3233 H 0.84938 0.79582 0.29144 0.0
H3234 H 0.82663 0.78976 0.26593 0.0
H3235 H 0.85467 0.81224 0.32642 0.0
H3236 H 0.84452 0.74667 0.2989 0.0
H3237 H 0.82193 0.71995 0.29373 0.0
H3238 H 0.81148 0.71771 0.35387 0.0
H3239 H 0.83368 0.74453 0.35926 0.0
C3240 C 0.93689 0.77421 0.32884 0.0
C3241 C 0.94433 0.76437 0.34433 0.0
C3242 C 0.91742 0.77844 0.32804 0.0
C3243 C 0.90499 0.77304 0.34273 0.0
C3244 C 0.9122 0.76278 0.358 0.0
C3245 C 0.93176 0.75855 0.35885 0.0
C3246 C 0.88431 0.77725 0.34122 0.0
C3247 C 0.87134 0.76203 0.33998 0.0
C3248 C 0.87791 0.79577 0.33756 0.0
C3249 C 0.89073 0.81251 0.34026 0.0
C3250 C 0.90087 0.81524 0.3574 0.0
C3251 C 0.91315 0.83082 0.35983 0.0
C3252 C 0.91538 0.84382 0.34524 0.0
C3253 C 0.90532 0.84128 0.3282 0.0
C3254 C 0.89302 0.82572 0.32569 0.0
C3255 C 0.79951 0.77414 0.30304 0.0
C3256 C 0.80481 0.77738 0.28408 0.0
C3257 C 0.8125 0.77797 0.31779 0.0
C3258 C 0.83095 0.7849 0.3136 0.0
C3259 C 0.83527 0.79034 0.29499 0.0
C3260 C 0.82231 0.78661 0.28035 0.0
C3261 C 0.84714 0.78271 0.32694 0.0
C3262 C 0.85932 0.79826 0.3304 0.0
C3263 C 0.85287 0.76452 0.33267 0.0
C3264 C 0.8406 0.74761 0.32947 0.0
C3265 C 0.83743 0.74037 0.31099 0.0
C3266 C 0.82462 0.72528 0.30801 0.0
C3267 C 0.81514 0.7172 0.32343 0.0
C3268 C 0.81867 0.72401 0.34189 0.0
C3269 C 0.83137 0.73915 0.34493 0.0
H3270 H 0.80504 0.70572 0.32106 0.0
H3271 H 0.92491 0.85587 0.34715 0.0
H3272 H 0.50194 0.33861 0.8525 0.0
H3273 H 0.49825 0.36798 0.87088 0.0
H3274 H 0.50161 0.33684 0.92299 0.0
H3275 H 0.50497 0.30743 0.9048 0.0
H3276 H 0.47141 0.35978 0.9232 0.0
H3277 H 0.53888 0.3648 0.90719 0.0
H3278 H 0.56742 0.36699 0.88653 0.0
H3279 H 0.5442 0.41608 0.86015 0.0
H3280 H 0.51538 0.41402 0.88049 0.0
H3281 H 0.49601 0.42265 0.99644 0.0
H3282 H 0.49286 0.39853 0.97162 0.0
H3283 H 0.48782 0.44172 0.92935 0.0
H3284 H 0.49097 0.46612 0.95425 0.0
H3285 H 0.51386 0.41619 0.91929 0.0
H3286 H 0.44927 0.41392 0.93962 0.0
H3287 H 0.42221 0.41286 0.9622 0.0
H3288 H 0.44098 0.35894 0.98183 0.0
H3289 H 0.46833 0.35978 0.95957 0.0
C3290 C 0.50211 0.33803 0.86788 0.0
C3291 C 0.50364 0.32066 0.8772 0.0
C3292 C 0.50003 0.35484 0.87834 0.0
C3293 C 0.49964 0.35456 0.89827 0.0
C3294 C 0.50175 0.33732 0.90759 0.0
C3295 C 0.50373 0.32054 0.89718 0.0
C3296 C 0.49621 0.372 0.90958 0.0
C3297 C 0.48082 0.37205 0.9225 0.0
C3298 C 0.50792 0.38832 0.90795 0.0
C3299 C 0.52481 0.38904 0.89511 0.0
C3300 C 0.53971 0.37587 0.89676 0.0
C3301 C 0.55597 0.37713 0.88517 0.0
C3302 C 0.55757 0.3916 0.87195 0.0
C3303 C 0.54289 0.40482 0.8703 0.0
C3304 C 0.52658 0.40359 0.88185 0.0
C3305 C 0.49395 0.4271 0.98192 0.0
C3306 C 0.49396 0.44634 0.97729 0.0
C3307 C 0.49204 0.41326 0.96775 0.0
C3308 C 0.48988 0.41835 0.94868 0.0
C3309 C 0.48941 0.43752 0.94401 0.0
C3310 C 0.49131 0.45142 0.95823 0.0
C3311 C 0.48985 0.40348 0.93368 0.0
C3312 C 0.50437 0.40398 0.91987 0.0
C3313 C 0.47744 0.38761 0.93456 0.0
C3314 C 0.46093 0.38697 0.94795 0.0
C3315 C 0.44771 0.40189 0.94883 0.0
C3316 C 0.4323 0.40132 0.96157 0.0
C3317 C 0.42988 0.38585 0.97346 0.0
C3318 C 0.44286 0.37091 0.97261 0.0
C3319 C 0.45831 0.37141 0.9599 0.0
H3320 H 0.41794 0.38544 0.98331 0.0
H3321 H 0.57022 0.39262 0.86307 0.0
H3322 H 0.9483 0.25338 0.19228 0.0
H3323 H 0.91501 0.25587 0.20245 0.0
H3324 H 0.89759 0.26602 0.14468 0.0
H3325 H 0.93129 0.26409 0.13437 0.0
H3326 H 0.87609 0.28704 0.17094 0.0
H3327 H 0.89326 0.22279 0.16032 0.0
H3328 H 0.91326 0.19431 0.16246 0.0
H3329 H 0.90674 0.19496 0.22318 0.0
H3330 H 0.88693 0.22362 0.22144 0.0
H3331 H 0.78432 0.23614 0.19806 0.0
H3332 H 0.81178 0.24962 0.18078 0.0
H3333 H 0.84011 0.26185 0.23413 0.0
H3334 H 0.81276 0.24853 0.25129 0.0
H3335 H 0.8537 0.23021 0.2052 0.0
H3336 H 0.83308 0.29511 0.21336 0.0
H3337 H 0.81045 0.321 0.20796 0.0
H3338 H 0.82161 0.31771 0.14804 0.0
H3339 H 0.84327 0.2909 0.15282 0.0
C3340 C 0.93745 0.25626 0.18171 0.0
C3341 C 0.94237 0.25818 0.16246 0.0
C3342 C 0.91843 0.25776 0.18756 0.0
C3343 C 0.90381 0.26079 0.17426 0.0
C3344 C 0.90868 0.26363 0.15515 0.0
C3345 C 0.92788 0.2624 0.14928 0.0
C3346 C 0.88351 0.25919 0.18036 0.0
C3347 C 0.87104 0.27455 0.17823 0.0
C3348 C 0.87691 0.24278 0.18963 0.0
C3349 C 0.88872 0.22544 0.19075 0.0
C3350 C 0.89619 0.21693 0.17415 0.0
C3351 C 0.90749 0.20075 0.17528 0.0
C3352 C 0.9113 0.19285 0.19295 0.0
C3353 C 0.90378 0.2011 0.20951 0.0
C3354 C 0.8925 0.2173 0.20845 0.0
C3355 C 0.79595 0.24275 0.20602 0.0
C3356 C 0.79644 0.24174 0.22592 0.0
C3357 C 0.8116 0.25038 0.19618 0.0
C3358 C 0.82784 0.2568 0.20624 0.0
C3359 C 0.82756 0.25721 0.22618 0.0
C3360 C 0.81195 0.24967 0.23596 0.0
C3361 C 0.84653 0.25831 0.19654 0.0
C3362 C 0.85866 0.2427 0.19783 0.0
C3363 C 0.85246 0.2743 0.1862 0.0
C3364 C 0.83961 0.29069 0.18344 0.0
C3365 C 0.83045 0.2996 0.19898 0.0
C3366 C 0.81781 0.31452 0.19603 0.0
C3367 C 0.81464 0.32106 0.1777 0.0
C3368 C 0.824 0.31261 0.16223 0.0
C3369 C 0.83638 0.29747 0.16504 0.0
H3370 H 0.80496 0.33271 0.17553 0.0
H3371 H 0.92004 0.18032 0.1938 0.0
H3372 H 0.98037 0.67987 0.38645 0.0
H3373 H 0.97626 0.65143 0.405 0.0
H3374 H 0.99323 0.68221 0.45585 0.0
H3375 H -0.0021 0.71079 0.43714 0.0
H3376 H 0.01214 0.65094 0.45358 0.0
H3377 H 0.94622 0.66527 0.44963 0.0
H3378 H 0.91524 0.67422 0.43557 0.0
H3379 H 0.91593 0.62443 0.39985 0.0
H3380 H 0.94709 0.61536 0.4134 0.0
H3381 H 0.99546 0.56054 0.49833 0.0
H3382 H 0.99161 0.59416 0.49134 0.0
H3383 H 0.98613 0.58034 0.43163 0.0
H3384 H 0.99016 0.54693 0.43835 0.0
H3385 H 0.95773 0.60573 0.44632 0.0
H3386 H 0.02735 0.59608 0.44712 0.0
H3387 H 0.05756 0.58707 0.46274 0.0
H3388 H 0.04807 0.62881 0.5067 0.0
H3389 H 0.01765 0.63788 0.49145 0.0
C3390 C 0.983 0.68069 0.40162 0.0
C3391 C 0.98955 0.69756 0.41032 0.0
C3392 C 0.98047 0.66442 0.41227 0.0
C3393 C 0.98415 0.66471 0.4319 0.0
C3394 C 0.99022 0.68167 0.44074 0.0
C3395 C 0.99288 0.69798 0.43004 0.0
C3396 C 0.98345 0.64681 0.44259 0.0
C3397 C 1e-05 0.64128 0.45238 0.0
C3398 C 0.96767 0.6341 0.44103 0.0
C3399 C 0.94908 0.63968 0.43251 0.0
C3400 C 0.93987 0.65632 0.43865 0.0
C3401 C 0.92225 0.6614 0.43078 0.0
C3402 C 0.91363 0.64991 0.41681 0.0
C3403 C 0.92263 0.63332 0.41066 0.0
C3404 C 0.94026 0.6282 0.41845 0.0
C3405 C 0.99352 0.56469 0.48371 0.0
C3406 C 0.99331 0.5511 0.46887 0.0
C3407 C 0.99129 0.58386 0.47977 0.0
C3408 C 0.98859 0.58964 0.46099 0.0
C3409 C 0.98816 0.5761 0.44622 0.0
C3410 C 0.99064 0.55704 0.45009 0.0
C3411 C 0.98664 0.6098 0.45636 0.0
C3412 C 0.96958 0.61568 0.44781 0.0
C3413 C 0.00182 0.62289 0.45923 0.0
C3414 C 0.02013 0.61748 0.46829 0.0
C3415 C 0.03163 0.60321 0.46021 0.0
C3416 C 0.0488 0.59812 0.46897 0.0
C3417 C 0.0547 0.60731 0.48574 0.0
C3418 C 0.04346 0.62166 0.49374 0.0
C3419 C 0.02627 0.62679 0.48504 0.0
H3420 H 0.068 0.60335 0.4925 0.0
H3421 H 0.89998 0.65386 0.41076 0.0
H3422 H 0.57313 0.7635 0.62473 0.0
H3423 H 0.60226 0.75841 0.64322 0.0
H3424 H 0.56806 0.75013 0.69364 0.0
H3425 H 0.53885 0.75573 0.6753 0.0
H3426 H 0.59858 0.77064 0.70221 0.0
H3427 H 0.58793 0.71241 0.66932 0.0
H3428 H 0.58127 0.69109 0.64199 0.0
H3429 H 0.63383 0.70871 0.61539 0.0
H3430 H 0.64067 0.73037 0.64241 0.0
H3431 H 0.68829 0.7403 0.74547 0.0
H3432 H 0.65471 0.73817 0.73453 0.0
H3433 H 0.67218 0.75699 0.67909 0.0
H3434 H 0.70519 0.75931 0.68968 0.0
H3435 H 0.64731 0.72546 0.67801 0.0
H3436 H 0.65382 0.78771 0.70892 0.0
H3437 H 0.6603 0.80867 0.73659 0.0
H3438 H 0.61501 0.78162 0.76776 0.0
H3439 H 0.60844 0.76032 0.74032 0.0
C3440 C 0.57181 0.76068 0.63977 0.0
C3441 C 0.5537 0.75993 0.64854 0.0
C3442 C 0.58846 0.75764 0.65031 0.0
C3443 C 0.58733 0.75346 0.66975 0.0
C3444 C 0.56928 0.7532 0.67865 0.0
C3445 C 0.55261 0.75641 0.66814 0.0
C3446 C 0.60506 0.74956 0.6807 0.0
C3447 C 0.60904 0.76046 0.69713 0.0
C3448 C 0.61873 0.73623 0.67415 0.0
C3449 C 0.61474 0.72313 0.65787 0.0
C3450 C 0.59801 0.71185 0.65759 0.0
C3451 C 0.59421 0.69969 0.64215 0.0
C3452 C 0.6071 0.69857 0.62695 0.0
C3453 C 0.62385 0.70959 0.62717 0.0
C3454 C 0.6277 0.7218 0.64256 0.0
C3455 C 0.68492 0.74393 0.73096 0.0
C3456 C 0.69945 0.7501 0.71853 0.0
C3457 C 0.66578 0.74271 0.72475 0.0
C3458 C 0.66103 0.74742 0.70599 0.0
C3459 C 0.67555 0.75323 0.69358 0.0
C3460 C 0.69446 0.75464 0.69976 0.0
C3461 C 0.641 0.74701 0.69898 0.0
C3462 C 0.63659 0.73528 0.68329 0.0
C3463 C 0.62691 0.75943 0.70628 0.0
C3464 C 0.63081 0.77228 0.72269 0.0
C3465 C 0.64536 0.78613 0.72174 0.0
C3466 C 0.64903 0.79809 0.73736 0.0
C3467 C 0.63812 0.79643 0.75395 0.0
C3468 C 0.62348 0.78285 0.75492 0.0
C3469 C 0.61978 0.77084 0.73934 0.0
H3470 H 0.64098 0.80571 0.76603 0.0
H3471 H 0.60413 0.68914 0.61501 0.0
H3472 H 0.6179 0.48917 0.67733 0.0
H3473 H 0.59824 0.49467 0.64928 0.0
H3474 H 0.5469 0.49178 0.68353 0.0
H3475 H 0.56654 0.48618 0.71179 0.0
H3476 H 0.54327 0.47238 0.64901 0.0
H3477 H 0.56171 0.53371 0.67075 0.0
H3478 H 0.58379 0.55865 0.68258 0.0
H3479 H 0.61593 0.55535 0.63052 0.0
H3480 H 0.59425 0.53015 0.61849 0.0
H3481 H 0.4987 0.50095 0.5612 0.0
H3482 H 0.50649 0.50266 0.59534 0.0
H3483 H 0.56693 0.5032 0.58169 0.0
H3484 H 0.5594 0.50156 0.54803 0.0
H3485 H 0.55825 0.52851 0.61013 0.0
H3486 H 0.5442 0.46244 0.59256 0.0
H3487 H 0.52281 0.43689 0.58074 0.0
H3488 H 0.48234 0.44956 0.62517 0.0
H3489 H 0.50343 0.47535 0.63711 0.0
C3490 C 0.60243 0.48958 0.67891 0.0
C3491 C 0.59377 0.48736 0.69678 0.0
C3492 C 0.59122 0.49283 0.66289 0.0
C3493 C 0.57115 0.49397 0.66442 0.0
C3494 C 0.56238 0.49108 0.6821 0.0
C3495 C 0.57362 0.48788 0.6982 0.0
C3496 C 0.55958 0.49832 0.64742 0.0
C3497 C 0.54618 0.48488 0.64072 0.0
C3498 C 0.56337 0.51465 0.63666 0.0
C3499 C 0.57638 0.52996 0.64375 0.0
C3500 C 0.57356 0.53821 0.66186 0.0
C3501 C 0.586 0.5524 0.66861 0.0
C3502 C 0.60126 0.55856 0.65732 0.0
C3503 C 0.6041 0.55056 0.63925 0.0
C3504 C 0.59172 0.53634 0.63245 0.0
C3505 C 0.51362 0.50163 0.56555 0.0
C3506 C 0.52843 0.50085 0.55194 0.0
C3507 C 0.51803 0.50258 0.585 0.0
C3508 C 0.53729 0.50294 0.59099 0.0
C3509 C 0.55198 0.50297 0.57738 0.0
C3510 C 0.54762 0.50187 0.55811 0.0
C3511 C 0.54268 0.50215 0.61132 0.0
C3512 C 0.55491 0.51631 0.6187 0.0
C3513 C 0.53782 0.4865 0.62267 0.0
C3514 C 0.52524 0.47095 0.61556 0.0
C3515 C 0.53067 0.45986 0.59971 0.0
C3516 C 0.51862 0.44532 0.59301 0.0
C3517 C 0.50119 0.44165 0.60216 0.0
C3518 C 0.49581 0.45246 0.61807 0.0
C3519 C 0.50781 0.46703 0.62481 0.0
H3520 H 0.49187 0.43039 0.59695 0.0
H3521 H 0.61088 0.56955 0.66257 0.0
H3522 H 0.75589 0.38425 0.9268 0.0
H3523 H 0.75995 0.36504 0.89803 0.0
H3524 H 0.76582 0.31515 0.9319 0.0
H3525 H 0.76213 0.33434 0.96091 0.0
H3526 H 0.79276 0.31654 0.90362 0.0
H3527 H 0.72298 0.32023 0.90741 0.0
H3528 H 0.69249 0.33739 0.9117 0.0
H3529 H 0.70697 0.37326 0.86507 0.0
H3530 H 0.73767 0.35656 0.86086 0.0
H3531 H 0.76772 0.24444 0.83635 0.0
H3532 H 0.77128 0.26668 0.86296 0.0
H3533 H 0.76947 0.31328 0.8243 0.0
H3534 H 0.76554 0.29111 0.79745 0.0
H3535 H 0.7421 0.31513 0.85408 0.0
H3536 H 0.80985 0.30529 0.84663 0.0
H3537 H 0.8392 0.28628 0.84313 0.0
H3538 H 0.82877 0.26132 0.89744 0.0
H3539 H 0.79919 0.27997 0.90115 0.0
C3540 C 0.75792 0.36917 0.92819 0.0
C3541 C 0.75859 0.36081 0.94618 0.0
C3542 C 0.76023 0.35822 0.9117 0.0
C3543 C 0.76304 0.33867 0.91285 0.0
C3544 C 0.7637 0.33024 0.93074 0.0
C3545 C 0.76147 0.34121 0.94728 0.0
C3546 C 0.76509 0.32703 0.89533 0.0
C3547 C 0.7817 0.31616 0.89276 0.0
C3548 C 0.75082 0.32687 0.88108 0.0
C3549 C 0.73246 0.33702 0.88365 0.0
C3550 C 0.71962 0.33179 0.8981 0.0
C3551 C 0.70234 0.34145 0.90055 0.0
C3552 C 0.69775 0.35636 0.88862 0.0
C3553 C 0.71047 0.36165 0.87424 0.0
C3554 C 0.72778 0.35204 0.87176 0.0
C3555 C 0.76835 0.25941 0.83342 0.0
C3556 C 0.76616 0.26601 0.81479 0.0
C3557 C 0.77048 0.2721 0.84866 0.0
C3558 C 0.77052 0.29161 0.84558 0.0
C3559 C 0.7693 0.29826 0.82694 0.0
C3560 C 0.76721 0.28556 0.81162 0.0
C3561 C 0.76997 0.30488 0.86203 0.0
C3562 C 0.75348 0.3159 0.86457 0.0
C3563 C 0.78435 0.30509 0.87623 0.0
C3564 C 0.80222 0.29395 0.8741 0.0
C3565 C 0.81373 0.29564 0.85776 0.0
C3566 C 0.83043 0.28495 0.85575 0.0
C3567 C 0.83583 0.27257 0.87003 0.0
C3568 C 0.82457 0.2709 0.88638 0.0
C3569 C 0.80785 0.28156 0.88846 0.0
H3570 H 0.84876 0.2643 0.86845 0.0
H3571 H 0.68437 0.36383 0.89054 0.0
H3572 H 0.89572 0.48622 0.17874 0.0
H3573 H 0.91773 0.48528 0.15165 0.0
H3574 H 0.95925 0.51834 0.18359 0.0
H3575 H 0.93737 0.51908 0.21098 0.0
H3576 H 0.95215 0.53173 0.14662 0.0
H3577 H 0.96981 0.47515 0.1763 0.0
H3578 H 0.9658 0.44444 0.19189 0.0
H3579 H 0.93984 0.42108 0.14128 0.0
H3580 H 0.94331 0.45175 0.12549 0.0
H3581 H 0.00984 0.51997 0.0624 0.0
H3582 H 0.00299 0.51727 0.09669 0.0
H3583 H 0.95131 0.48561 0.08352 0.0
H3584 H 0.95786 0.48871 0.04956 0.0
H3585 H 0.97199 0.47166 0.11521 0.0
H3586 H 0.94749 0.53055 0.08963 0.0
H3587 H 0.95124 0.56123 0.07385 0.0
H3588 H 0.99069 0.57987 0.11731 0.0
H3589 H 0.98737 0.54915 0.13319 0.0
C3590 C 0.90954 0.49328 0.18003 0.0
C3591 C 0.91482 0.50275 0.19697 0.0
C3592 C 0.92215 0.49261 0.16459 0.0
C3593 C 0.94019 0.50156 0.16572 0.0
C3594 C 0.94544 0.51124 0.18251 0.0
C3595 C 0.93293 0.51166 0.1981 0.0
C3596 C 0.953 0.50143 0.14889 0.0
C3597 C 0.95696 0.51863 0.14002 0.0
C3598 C 0.95913 0.48431 0.14024 0.0
C3599 C 0.95669 0.46585 0.14975 0.0
C3600 C 0.96303 0.46354 0.16855 0.0
C3601 C 0.9609 0.44611 0.17742 0.0
C3602 C 0.95254 0.43082 0.16759 0.0
C3603 C 0.9463 0.43293 0.14888 0.0
C3604 C 0.94835 0.45035 0.13996 0.0
C3605 C -0.00273 0.51214 0.06697 0.0
C3606 C 0.98427 0.50463 0.05355 0.0
C3607 C 0.99336 0.51062 0.08645 0.0
C3608 C 0.97661 0.50129 0.09257 0.0
C3609 C 0.96433 0.49279 0.07909 0.0
C3610 C 0.96801 0.49464 0.05974 0.0
C3611 C 0.9705 0.50187 0.11273 0.0
C3612 C 0.96772 0.48477 0.12217 0.0
C3613 C 0.96544 0.51905 0.12193 0.0
C3614 C 0.96741 0.53749 0.11243 0.0
C3615 C 0.95711 0.54113 0.09571 0.0
C3616 C 0.95913 0.55853 0.08677 0.0
C3617 C 0.97126 0.57246 0.09453 0.0
C3618 C 0.98135 0.56904 0.11129 0.0
C3619 C 0.97941 0.55164 0.12026 0.0
H3620 H 0.97279 0.58593 0.0876 0.0
H3621 H 0.95093 0.41733 0.17447 0.0
H3622 H 0.75759 0.63649 0.42629 0.0
H3623 H 0.76331 0.65423 0.39756 0.0
H3624 H 0.76867 0.70573 0.43095 0.0
H3625 H 0.76226 0.68797 0.45998 0.0
H3626 H 0.74543 0.71091 0.40293 0.0
H3627 H 0.80878 0.68597 0.40579 0.0
H3628 H 0.83386 0.66186 0.40933 0.0
H3629 H 0.81138 0.63108 0.36102 0.0
H3630 H 0.78593 0.6548 0.35746 0.0
H3631 H 0.75496 0.761 0.32053 0.0
H3632 H 0.76893 0.74668 0.3487 0.0
H3633 H 0.75582 0.69126 0.32548 0.0
H3634 H 0.74288 0.70567 0.29676 0.0
H3635 H 0.78786 0.69114 0.34966 0.0
H3636 H 0.72235 0.71394 0.35002 0.0
H3637 H 0.69759 0.73826 0.34592 0.0
H3638 H 0.7248 0.7732 0.38871 0.0
H3639 H 0.74991 0.74918 0.39284 0.0
C3640 C 0.76021 0.65156 0.42762 0.0
C3641 C 0.75937 0.66085 0.44543 0.0
C3642 C 0.76371 0.66169 0.41113 0.0
C3643 C 0.76677 0.6813 0.41204 0.0
C3644 C 0.76646 0.69058 0.42989 0.0
C3645 C 0.76278 0.68043 0.44646 0.0
C3646 C 0.76817 0.69217 0.39419 0.0
C3647 C 0.75514 0.7069 0.3915 0.0
C3648 C 0.78043 0.68668 0.37901 0.0
C3649 C 0.79547 0.67217 0.38134 0.0
C3650 C 0.80911 0.67399 0.39601 0.0
C3651 C 0.82339 0.66039 0.39802 0.0
C3652 C 0.82422 0.64495 0.38541 0.0
C3653 C 0.81073 0.64305 0.37078 0.0
C3654 C 0.79639 0.65657 0.36875 0.0
C3655 C 0.75619 0.74576 0.32098 0.0
C3656 C 0.74825 0.73438 0.30646 0.0
C3657 C 0.76393 0.73759 0.33715 0.0
C3658 C 0.76302 0.71792 0.33935 0.0
C3659 C 0.75672 0.70645 0.32405 0.0
C3660 C 0.74933 0.71467 0.30766 0.0
C3661 C 0.76518 0.70971 0.3585 0.0
C3662 C 0.77859 0.69537 0.3613 0.0
C3663 C 0.75334 0.71558 0.37385 0.0
C3664 C 0.7381 0.72988 0.37159 0.0
C3665 C 0.72311 0.72687 0.35847 0.0
C3666 C 0.70901 0.74059 0.35614 0.0
C3667 C 0.70964 0.75729 0.36701 0.0
C3668 C 0.72435 0.76027 0.38027 0.0
C3669 C 0.73851 0.74662 0.38261 0.0
H3670 H 0.69872 0.7679 0.36519 0.0
H3671 H 0.83531 0.63446 0.38697 0.0
H3672 H 0.56649 0.50986 0.80561 0.0
H3673 H 0.55816 0.5043 0.83867 0.0
H3674 H 0.61316 0.47826 0.84764 0.0
H3675 H 0.62145 0.48328 0.81419 0.0
H3676 H 0.58541 0.45933 0.86646 0.0
H3677 H 0.60627 0.52316 0.86262 0.0
H3678 H 0.60822 0.55541 0.84998 0.0
H3679 H 0.5485 0.56378 0.86258 0.0
H3680 H 0.54611 0.53147 0.87504 0.0
H3681 H 0.56223 0.51027 0.96299 0.0
H3682 H 0.58161 0.49635 0.93752 0.0
H3683 H 0.53019 0.4743 0.91099 0.0
H3684 H 0.51104 0.48754 0.93675 0.0
H3685 H 0.56264 0.51499 0.90357 0.0
H3686 H 0.54467 0.44524 0.90478 0.0
H3687 H 0.54819 0.41418 0.91969 0.0
H3688 H 0.60942 0.41824 0.91429 0.0
H3689 H 0.60639 0.44977 0.90022 0.0
C3690 C 0.57688 0.50298 0.81457 0.0
C3691 C 0.59475 0.49724 0.80731 0.0
C3692 C 0.57207 0.49977 0.83349 0.0
C3693 C 0.58516 0.49112 0.84571 0.0
C3694 C 0.60287 0.48498 0.83846 0.0
C3695 C 0.60762 0.48799 0.81939 0.0
C3696 C 0.58044 0.48938 0.86619 0.0
C3697 C 0.58054 0.4715 0.87465 0.0
C3698 C 0.57463 0.50532 0.87705 0.0
C3699 C 0.57599 0.52483 0.86965 0.0
C3700 C 0.59352 0.53183 0.86258 0.0
C3701 C 0.5947 0.55013 0.85546 0.0
C3702 C 0.57848 0.56162 0.85545 0.0
C3703 C 0.56105 0.55486 0.86259 0.0
C3704 C 0.55978 0.53656 0.86971 0.0
C3705 C 0.55531 0.50098 0.95266 0.0
C3706 C 0.53523 0.49947 0.95209 0.0
C3707 C 0.56639 0.49307 0.93801 0.0
C3708 C 0.55745 0.48387 0.92249 0.0
C3709 C 0.53757 0.48051 0.92315 0.0
C3710 C 0.52654 0.48818 0.93792 0.0
C3711 C 0.56672 0.48485 0.90361 0.0
C3712 C 0.56759 0.50279 0.89545 0.0
C3713 C 0.57377 0.46903 0.89333 0.0
C3714 C 0.57532 0.45013 0.90191 0.0
C3715 C 0.5589 0.43977 0.90717 0.0
C3716 C 0.56079 0.422 0.91535 0.0
C3717 C 0.57897 0.41424 0.91791 0.0
C3718 C 0.59533 0.42426 0.91234 0.0
C3719 C 0.59354 0.44211 0.90434 0.0
H3720 H 0.58035 0.40045 0.92416 0.0
H3721 H 0.57943 0.57579 0.84993 0.0
H3722 H 0.75846 0.36874 0.08028 0.0
H3723 H 0.75685 0.34968 0.1087 0.0
H3724 H 0.7629 0.29892 0.07436 0.0
H3725 H 0.76347 0.31806 0.04559 0.0
H3726 H 0.73732 0.29266 0.09946 0.0
H3727 H 0.8005 0.31748 0.10379 0.0
H3728 H 0.82674 0.34109 0.10358 0.0
H3729 H 0.80124 0.37022 0.15119 0.0
H3730 H 0.77469 0.347 0.1515 0.0
H3731 H 0.74993 0.24967 0.19441 0.0
H3732 H 0.75708 0.25908 0.16165 0.0
H3733 H 0.73166 0.31347 0.17284 0.0
H3734 H 0.72418 0.30429 0.20517 0.0
H3735 H 0.77289 0.31164 0.15792 0.0
H3736 H 0.70677 0.28818 0.14813 0.0
H3737 H 0.6822 0.26289 0.14856 0.0
H3738 H 0.71671 0.22883 0.11097 0.0
H3739 H 0.74162 0.25386 0.11055 0.0
C3740 C 0.75961 0.35353 0.07877 0.0
C3741 C 0.7612 0.34489 0.06074 0.0
C3742 C 0.75883 0.34261 0.09507 0.0
C3743 C 0.76024 0.32283 0.09379 0.0
C3744 C 0.7619 0.31415 0.07575 0.0
C3745 C 0.76227 0.32509 0.05934 0.0
C3746 C 0.75902 0.3114 0.11132 0.0
C3747 C 0.74546 0.29658 0.11209 0.0
C3748 C 0.76967 0.31632 0.12787 0.0
C3749 C 0.78554 0.33049 0.12762 0.0
C3750 C 0.80039 0.32901 0.11411 0.0
C3751 C 0.81534 0.34232 0.11399 0.0
C3752 C 0.81566 0.35715 0.12736 0.0
C3753 C 0.80099 0.35873 0.14084 0.0
C3754 C 0.78599 0.34549 0.141 0.0
C3755 C 0.74556 0.26351 0.18979 0.0
C3756 C 0.73655 0.27624 0.2025 0.0
C3757 C 0.7497 0.26885 0.17111 0.0
C3758 C 0.74501 0.287 0.16501 0.0
C3759 C 0.73546 0.29943 0.1774 0.0
C3760 C 0.73111 0.29408 0.19587 0.0
C3761 C 0.75071 0.29373 0.14605 0.0
C3762 C 0.76517 0.30756 0.14507 0.0
C3763 C 0.74117 0.2877 0.1293 0.0
C3764 C 0.72616 0.27276 0.12952 0.0
C3765 C 0.70921 0.27522 0.14013 0.0
C3766 C 0.6952 0.26095 0.14033 0.0
C3767 C 0.69793 0.24423 0.12986 0.0
C3768 C 0.71464 0.24177 0.11911 0.0
C3769 C 0.7287 0.25599 0.11888 0.0
H3770 H 0.68706 0.2332 0.13004 0.0
H3771 H 0.82728 0.3674 0.12729 0.0
H3772 H 0.93304 0.49434 0.31246 0.0
H3773 H 0.93297 0.49137 0.34695 0.0
H3774 H 0.87111 0.48679 0.34672 0.0
H3775 H 0.87106 0.4906 0.31211 0.0
H3776 H 0.88214 0.50515 0.37783 0.0
H3777 H 0.89777 0.44686 0.34923 0.0
H3778 H 0.91373 0.42465 0.32707 0.0
H3779 H 0.96839 0.43839 0.35218 0.0
H3780 H 0.95281 0.4609 0.37431 0.0
H3781 H 0.94277 0.45274 0.45774 0.0
H3782 H 0.91841 0.45086 0.4327 0.0
H3783 H 0.91902 0.51181 0.42954 0.0
H3784 H 0.94176 0.51355 0.45567 0.0
H3785 H 0.92825 0.4577 0.40092 0.0
H3786 H 0.88671 0.53069 0.40184 0.0
H3787 H 0.86594 0.54871 0.42386 0.0
H3788 H 0.85546 0.49876 0.45617 0.0
H3789 H 0.87575 0.48028 0.43413 0.0
C3790 C 0.91941 0.49294 0.31976 0.0
C3791 C 0.90208 0.49247 0.30959 0.0
C3792 C 0.91937 0.49117 0.33947 0.0
C3793 C 0.90206 0.48831 0.34936 0.0
C3794 C 0.88464 0.48883 0.33937 0.0
C3795 C 0.88464 0.49099 0.31961 0.0
C3796 C 0.90257 0.48375 0.36988 0.0
C3797 C 0.89211 0.49474 0.38302 0.0
C3798 C 0.91459 0.46929 0.37657 0.0
C3799 C 0.9241 0.45562 0.3634 0.0
C3800 C 0.91321 0.44521 0.34997 0.0
C3801 C 0.92219 0.43257 0.33741 0.0
C3802 C 0.94206 0.43012 0.33821 0.0
C3803 C 0.953 0.44029 0.35159 0.0
C3804 C 0.94409 0.45297 0.36417 0.0
C3805 C 0.93669 0.46568 0.45245 0.0
C3806 C 0.94396 0.48326 0.45851 0.0
C3807 C 0.92293 0.46465 0.43801 0.0
C3808 C 0.91699 0.48117 0.42887 0.0
C3809 C 0.92289 0.49881 0.43642 0.0
C3810 C 0.93606 0.49984 0.45134 0.0
C3811 C 0.90885 0.48004 0.40929 0.0
C3812 C 0.91786 0.46788 0.39609 0.0
C3813 C 0.89483 0.49283 0.40275 0.0
C3814 C 0.88279 0.50404 0.41623 0.0
C3815 C 0.87986 0.52347 0.41352 0.0
C3816 C 0.86814 0.53378 0.42602 0.0
C3817 C 0.85929 0.52484 0.4413 0.0
C3818 C 0.86229 0.50563 0.44428 0.0
C3819 C 0.87391 0.49524 0.43178 0.0
H3820 H 0.85004 0.53275 0.45081 0.0
H3821 H 0.94899 0.42032 0.32847 0.0
H3822 H 0.76953 0.65512 0.55235 0.0
H3823 H 0.77557 0.66778 0.58446 0.0
H3824 H 0.73232 0.63035 0.60695 0.0
H3825 H 0.72636 0.6174 0.57499 0.0
H3826 H 0.72955 0.66892 0.61976 0.0
H3827 H 0.77568 0.61907 0.61502 0.0
H3828 H 0.80196 0.60106 0.6 0.0
H3829 H 0.83866 0.65008 0.60318 0.0
H3830 H 0.81248 0.66847 0.61796 0.0
H3831 H 0.74971 0.69447 0.7145 0.0
H3832 H 0.74695 0.67256 0.68749 0.0
H3833 H 0.79266 0.70216 0.6588 0.0
H3834 H 0.79521 0.7244 0.68563 0.0
H3835 H 0.79339 0.66424 0.65065 0.0
H3836 H 0.7476 0.71466 0.65397 0.0
H3837 H 0.72168 0.73343 0.66858 0.0
H3838 H 0.68412 0.68502 0.66654 0.0
H3839 H 0.70988 0.66593 0.65209 0.0
C3840 C 0.7613 0.64958 0.56412 0.0
C3841 C 0.7475 0.63523 0.56111 0.0
C3842 C 0.76482 0.65678 0.58245 0.0
C3843 C 0.75446 0.6499 0.59806 0.0
C3844 C 0.74048 0.63579 0.59509 0.0
C3845 C 0.73716 0.62839 0.57682 0.0
C3846 C 0.75808 0.65764 0.61745 0.0
C3847 C 0.74338 0.66764 0.6267 0.0
C3848 C 0.77626 0.65622 0.62625 0.0
C3849 C 0.79206 0.64519 0.61743 0.0
C3850 C 0.7893 0.62606 0.61236 0.0
C3851 C 0.80419 0.61577 0.60392 0.0
C3852 C 0.82196 0.62443 0.60059 0.0
C3853 C 0.82488 0.64339 0.60574 0.0
C3854 C 0.81003 0.65375 0.61417 0.0
C3855 C 0.75972 0.69585 0.70281 0.0
C3856 C 0.77255 0.71128 0.70209 0.0
C3857 C 0.75806 0.68333 0.68731 0.0
C3858 C 0.7694 0.68589 0.67101 0.0
C3859 C 0.78369 0.69999 0.67119 0.0
C3860 C 0.78515 0.71268 0.68654 0.0
C3861 C 0.7649 0.67568 0.65296 0.0
C3862 C 0.77945 0.66531 0.64388 0.0
C3863 C 0.74661 0.67696 0.6442 0.0
C3864 C 0.73091 0.68865 0.65247 0.0
C3865 C 0.73391 0.70792 0.65687 0.0
C3866 C 0.7192 0.71866 0.66507 0.0
C3867 C 0.7013 0.71038 0.66864 0.0
C3868 C 0.69804 0.69138 0.66391 0.0
C3869 C 0.71272 0.68058 0.65575 0.0
H3870 H 0.68991 0.71869 0.67495 0.0
H3871 H 0.83347 0.61644 0.59406 0.0
H3872 H 0.6718 0.64015 0.50431 0.0
H3873 H 0.63747 0.63295 0.50034 0.0
H3874 H 0.65158 0.58393 0.46602 0.0
H3875 H 0.68578 0.59088 0.47006 0.0
H3876 H 0.62089 0.60585 0.45122 0.0
H3877 H 0.64219 0.5788 0.51158 0.0
H3878 H 0.65555 0.58137 0.54401 0.0
H3879 H 0.61081 0.61987 0.56011 0.0
H3880 H 0.59729 0.61768 0.52769 0.0
H3881 H 0.56139 0.52823 0.45559 0.0
H3882 H 0.58369 0.55467 0.45423 0.0
H3883 H 0.55005 0.58511 0.49608 0.0
H3884 H 0.52786 0.55812 0.49789 0.0
H3885 H 0.58504 0.5835 0.50763 0.0
H3886 H 0.55841 0.60342 0.45046 0.0
H3887 H 0.54414 0.60132 0.41843 0.0
H3888 H 0.59676 0.57884 0.39607 0.0
H3889 H 0.61128 0.58048 0.428 0.0
C3890 C 0.66756 0.62791 0.49582 0.0
C3891 C 0.68148 0.616 0.48759 0.0
C3892 C 0.64796 0.62384 0.49356 0.0
C3893 C 0.64202 0.60792 0.48288 0.0
C3894 C 0.65589 0.59635 0.47423 0.0
C3895 C 0.67542 0.60026 0.47666 0.0
C3896 C 0.62148 0.60239 0.48153 0.0
C3897 C 0.61294 0.60099 0.46349 0.0
C3898 C 0.61081 0.59702 0.49771 0.0
C3899 C 0.61892 0.5983 0.51716 0.0
C3900 C 0.63531 0.58795 0.522 0.0
C3901 C 0.64287 0.5893 0.54038 0.0
C3902 C 0.63406 0.60083 0.5541 0.0
C3903 C 0.61763 0.61098 0.54946 0.0
C3904 C 0.61001 0.60969 0.53109 0.0
C3905 C 0.55837 0.54078 0.46406 0.0
C3906 C 0.54293 0.54106 0.47692 0.0
C3907 C 0.57109 0.55604 0.46317 0.0
C3908 C 0.56858 0.57203 0.47499 0.0
C3909 C 0.55228 0.57297 0.48678 0.0
C3910 C 0.53948 0.55761 0.48768 0.0
C3911 C 0.58466 0.58589 0.47707 0.0
C3912 C 0.59249 0.58893 0.49529 0.0
C3913 C 0.59452 0.59304 0.46106 0.0
C3914 C 0.58595 0.59207 0.4417 0.0
C3915 C 0.56693 0.59792 0.43875 0.0
C3916 C 0.55879 0.59682 0.42059 0.0
C3917 C 0.56954 0.58995 0.40523 0.0
C3918 C 0.58846 0.58419 0.40798 0.0
C3919 C 0.59667 0.58524 0.42611 0.0
H3920 H 0.5632 0.58911 0.39118 0.0
H3921 H 0.63994 0.60186 0.56832 0.0
H3922 H 0.2183 0.94175 0.51785 0.0
H3923 H 0.19219 0.96423 0.5136 0.0
H3924 H 0.15837 0.92088 0.48529 0.0
H3925 H 0.18442 0.89829 0.48946 0.0
H3926 H 0.15728 0.95591 0.46692 0.0
H3927 H 0.1495 0.93091 0.53028 0.0
H3928 H 0.16029 0.92373 0.56275 0.0
H3929 H 0.17131 0.9827 0.57376 0.0
H3930 H 0.1608 0.99019 0.54125 0.0
H3931 H 0.06025 0.97791 0.47957 0.0
H3932 H 0.09331 0.96947 0.47317 0.0
H3933 H 0.11257 0.01266 0.5131 0.0
H3934 H 0.07905 0.02 0.52055 0.0
H3935 H 0.12523 0.98261 0.52417 0.0
H3936 H 0.12774 0.00839 0.46185 0.0
H3937 H 0.11775 0.01522 0.42904 0.0
H3938 H 0.11648 0.95587 0.41543 0.0
H3939 H 0.12641 0.94864 0.44813 0.0
C3940 C 0.20529 0.93698 0.51074 0.0
C3941 C 0.20336 0.91821 0.5041 0.0
C3942 C 0.19043 0.94986 0.50828 0.0
C3943 C 0.17337 0.9442 0.49913 0.0
C3944 C 0.17148 0.92554 0.49229 0.0
C3945 C 0.1863 0.91262 0.49484 0.0
C3946 C 0.15711 0.95745 0.49748 0.0
C3947 C 0.15015 0.9618 0.47937 0.0
C3948 C 0.14833 0.96557 0.51373 0.0
C3949 C 0.1546 0.96108 0.53327 0.0
C3950 C 0.15438 0.94232 0.53958 0.0
C3951 C 0.16041 0.9382 0.55799 0.0
C3952 C 0.16655 0.95274 0.57029 0.0
C3953 C 0.1666 0.97144 0.56421 0.0
C3954 C 0.1606 0.97563 0.54579 0.0
C3955 C 0.07159 0.98635 0.48612 0.0
C3956 C 0.06722 -0.00025 0.50034 0.0
C3957 C 0.09063 0.9815 0.48247 0.0
C3958 C 0.10569 0.99035 0.49265 0.0
C3959 C 0.10128 0.00547 0.50515 0.0
C3960 C 0.08215 0.00988 0.50925 0.0
C3961 C 0.1249 0.98121 0.49343 0.0
C3962 C 0.13249 0.97739 0.5115 0.0
C3963 C 0.13424 0.97368 0.47707 0.0
C3964 C 0.12784 0.97798 0.45748 0.0
C3965 C 0.12521 0.99678 0.45191 0.0
C3966 C 0.11959 0.00073 0.43331 0.0
C3967 C 0.11654 0.98598 0.42017 0.0
C3968 C 0.11894 0.96727 0.42561 0.0
C3969 C 0.12463 0.96325 0.44415 0.0
H3970 H 0.11243 0.989 0.40573 0.0
H3971 H 0.17121 0.94952 0.58454 0.0
H3972 H 0.33991 0.94228 0.74368 0.0
H3973 H 0.3245 0.91151 0.74709 0.0
H3974 H 0.37981 0.88579 0.75524 0.0
H3975 H 0.39547 0.9166 0.75139 0.0
H3976 H 0.35834 0.86437 0.73251 0.0
H3977 H 0.34983 0.89264 0.79312 0.0
H3978 H 0.34185 0.91751 0.81671 0.0
H3979 H 0.28325 0.91683 0.79768 0.0
H3980 H 0.29093 0.89215 0.77377 0.0
H3981 H 0.29897 0.78157 0.75353 0.0
H3982 H 0.32373 0.80641 0.75652 0.0
H3983 H 0.28132 0.84856 0.7441 0.0
H3984 H 0.25679 0.82419 0.74112 0.0
H3985 H 0.30225 0.85784 0.7755 0.0
H3986 H 0.31497 0.83384 0.71013 0.0
H3987 H 0.32498 0.80963 0.68656 0.0
H3988 H 0.37747 0.80142 0.71725 0.0
H3989 H 0.36777 0.82562 0.74097 0.0
C3990 C 0.34884 0.93011 0.74618 0.0
C3991 C 0.36891 0.93191 0.74735 0.0
C3992 C 0.33999 0.91253 0.74826 0.0
C3993 C 0.35098 0.89643 0.75185 0.0
C3994 C 0.37106 0.89807 0.75263 0.0
C3995 C 0.37997 0.91567 0.7504 0.0
C3996 C 0.3413 0.87792 0.75432 0.0
C3997 C 0.34633 0.8628 0.74221 0.0
C3998 C 0.32578 0.87579 0.76712 0.0
C3999 C 0.321 0.89057 0.78157 0.0
C4000 C 0.33527 0.89786 0.79388 0.0
C4001 C 0.33079 0.91192 0.80732 0.0
C4002 C 0.31206 0.91875 0.80868 0.0
C4003 C 0.29776 0.91151 0.79662 0.0
C4004 C 0.30216 0.89746 0.78313 0.0
C4005 C 0.295 0.79613 0.75133 0.0
C4006 C 0.27586 0.80088 0.74721 0.0
C4007 C 0.30914 0.81028 0.75303 0.0
C4008 C 0.30431 0.82931 0.75057 0.0
C4009 C 0.28532 0.83398 0.74622 0.0
C4010 C 0.27128 0.81997 0.74456 0.0
C4011 C 0.31858 0.84479 0.7529 0.0
C4012 C 0.31452 0.85931 0.7661 0.0
C4013 C 0.33513 0.84623 0.74133 0.0
C4014 C 0.34055 0.83132 0.72741 0.0
C4015 C 0.32855 0.82673 0.71192 0.0
C4016 C 0.33423 0.81311 0.69848 0.0
C4017 C 0.35185 0.80399 0.70042 0.0
C4018 C 0.36384 0.80849 0.71577 0.0
C4019 C 0.35828 0.82218 0.72919 0.0
H4020 H 0.35621 0.79337 0.69011 0.0
H4021 H 0.30862 0.92964 0.8191 0.0
H4022 H 0.29631 0.06381 0.00749 0.0
H4023 H 0.33022 0.05621 0.00421 0.0
H4024 H 0.33877 0.10497 0.96903 0.0
H4025 H 0.30486 0.11306 0.97283 0.0
H4026 H 0.35403 0.04758 0.97723 0.0
H4027 H 0.38423 0.12304 0.97808 0.0
H4028 H 0.37499 0.15544 0.9877 0.0
H4029 H 0.33781 0.13322 0.03081 0.0
H4030 H 0.34701 0.10074 0.02159 0.0
H4031 H 0.4572 0.03867 0.9885 0.0
H4032 H 0.42832 0.05196 0.97385 0.0
H4033 H 0.40724 0.06784 0.02942 0.0
H4034 H 0.43512 0.05385 0.04403 0.0
H4035 H 0.40097 0.09511 0.00169 0.0
H4036 H 0.39716 0.02771 0.01173 0.0
H4037 H 0.40364 0.99388 0.00681 0.0
H4038 H 0.38414 0.99713 0.94909 0.0
H4039 H 0.37899 0.03136 0.95318 0.0
C4040 C 0.30533 0.07283 -0.00112 0.0
C4041 C 0.29793 0.08917 0.99063 0.0
C4042 C 0.32474 0.06842 -0.00306 0.0
C4043 C 0.33715 0.08015 0.98657 0.0
C4044 C 0.32957 0.0959 0.97739 0.0
C4045 C 0.31017 0.10048 0.97955 0.0
C4046 C 0.35812 0.0764 0.98671 0.0
C4047 C 0.36441 0.05807 0.9822 0.0
C4048 C 0.37166 0.09009 0.99319 0.0
C4049 C 0.36606 0.10951 -0.00107 0.0
C4050 C 0.37408 0.12511 0.9896 0.0
C4051 C 0.36887 0.14347 0.995 0.0
C4052 C 0.35575 0.14638 0.00979 0.0
C4053 C 0.3479 0.13094 0.01929 0.0
C4054 C 0.35309 0.11256 0.01398 0.0
C4055 C 0.44631 0.04472 -0.00245 0.0
C4056 C 0.44802 0.04427 0.01747 0.0
C4057 C 0.42998 0.05254 0.98915 0.0
C4058 C 0.41553 0.06051 0.0006 0.0
C4059 C 0.41816 0.06165 0.02032 0.0
C4060 C 0.43412 0.05352 0.02866 0.0
C4061 C 0.39674 0.06612 0.9928 0.0
C4062 C 0.39083 0.08484 0.99584 0.0
C4063 C 0.38345 0.0526 0.98547 0.0
C4064 C 0.38824 0.03233 0.98261 0.0
C4065 C 0.39495 0.02144 -0.00224 0.0
C4066 C 0.39836 0.00213 0.99512 0.0
C4067 C 0.39453 0.99339 0.97757 0.0
C4068 C 0.3874 0.00397 0.96259 0.0
C4069 C 0.38446 0.02337 0.96499 0.0
H4070 H 0.39694 0.9784 0.97563 0.0
H4071 H 0.35172 0.16061 0.01393 0.0
H4072 H 0.67444 0.54176 0.75971 0.0
H4073 H 0.69417 0.57059 0.75735 0.0
H4074 H 0.65381 0.59341 0.71753 0.0
H4075 H 0.63385 0.56496 0.72013 0.0
H4076 H 0.69572 0.59862 0.70839 0.0
H4077 H 0.64819 0.60833 0.75831 0.0
H4078 H 0.63127 0.59959 0.78775 0.0
H4079 H 0.6847 0.60063 0.81823 0.0
H4080 H 0.70198 0.6091 0.78888 0.0
H4081 H 0.70883 0.70144 0.74329 0.0
H4082 H 0.69538 0.67218 0.72907 0.0
H4083 H 0.74348 0.64099 0.75035 0.0
H4084 H 0.75697 0.66996 0.76413 0.0
H4085 H 0.69775 0.64004 0.76594 0.0
H4086 H 0.74594 0.62941 0.7174 0.0
H4087 H 0.76461 0.63392 0.68806 0.0
H4088 H 0.71275 0.63158 0.65514 0.0
H4089 H 0.69364 0.62793 0.68442 0.0
C4090 C 0.66989 0.55284 0.75031 0.0
C4091 C 0.65251 0.55116 0.74024 0.0
C4092 C 0.68116 0.56927 0.74896 0.0
C4093 C 0.67542 0.58411 0.73725 0.0
C4094 C 0.65853 0.5821 0.72657 0.0
C4095 C 0.64708 0.56589 0.7282 0.0
C4096 C 0.68615 0.6023 0.7373 0.0
C4097 C 0.69605 0.60784 0.72086 0.0
C4098 C 0.68678 0.61408 0.7537 0.0
C4099 C 0.67639 0.60914 0.77137 0.0
C4100 C 0.65635 0.60652 0.77125 0.0
C4101 C 0.64669 0.60166 0.78793 0.0
C4102 C 0.65691 0.5995 0.80484 0.0
C4103 C 0.6768 0.60227 0.80512 0.0
C4104 C 0.68653 0.60712 0.78847 0.0
C4105 C 0.71707 0.68854 0.74384 0.0
C4106 C 0.73395 0.68788 0.75469 0.0
C4107 C 0.70938 0.67181 0.73576 0.0
C4108 C 0.71857 0.65442 0.73843 0.0
C4109 C 0.7364 0.65425 0.74764 0.0
C4110 C 0.74406 0.67084 0.75559 0.0
C4111 C 0.70747 0.63649 0.73701 0.0
C4112 C 0.69737 0.63099 0.75333 0.0
C4113 C 0.70702 0.62468 0.72058 0.0
C4114 C 0.71829 0.62893 0.70324 0.0
C4115 C 0.73842 0.63053 0.70403 0.0
C4116 C 0.74912 0.63275 0.68736 0.0
C4117 C 0.73986 0.6332 0.66976 0.0
C4118 C 0.71989 0.63148 0.66881 0.0
C4119 C 0.70911 0.62943 0.68545 0.0
H4120 H 0.74817 0.63471 0.65686 0.0
H4121 H 0.6494 0.59573 0.81773 0.0
H4122 H 0.827 0.38032 0.01037 0.0
H4123 H 0.86184 0.38105 0.00472 0.0
H4124 H 0.85633 0.43473 0.97719 0.0
H4125 H 0.8219 0.43421 0.98271 0.0
H4126 H 0.87788 0.4079 0.95608 0.0
H4127 H 0.87139 0.432 0.02286 0.0
H4128 H 0.86331 0.42729 0.05664 0.0
H4129 H 0.90185 0.38027 0.05855 0.0
H4130 H 0.90994 0.38459 0.0247 0.0
H4131 H 0.93845 0.48213 0.96254 0.0
H4132 H 0.91635 0.4556 0.96057 0.0
H4133 H 0.95717 0.42091 0.98985 0.0
H4134 H 0.97963 0.4475 0.9914 0.0
H4135 H 0.92447 0.42096 0.00802 0.0
H4136 H 0.94015 0.40715 0.94501 0.0
H4137 H 0.94922 0.41248 0.91167 0.0
H4138 H 0.89481 0.43857 0.90154 0.0
H4139 H 0.88549 0.43369 0.93488 0.0
C4140 C 0.83327 0.39236 0.00328 0.0
C4141 C 0.82164 0.40719 -0.00306 0.0
C4142 C 0.85313 0.39267 -1e-05 0.0
C4143 C 0.86155 0.40781 0.9903 0.0
C4144 C 0.85003 0.42278 0.98443 0.0
C4145 C 0.83034 0.42252 0.98775 0.0
C4146 C 0.88239 0.40878 0.98633 0.0
C4147 C 0.88823 0.41057 0.96734 0.0
C4148 C 0.89607 0.41103 0.00101 0.0
C4149 C 0.89106 0.40845 0.02125 0.0
C4150 C 0.878 0.42056 0.03046 0.0
C4151 C 0.87344 0.41798 0.04962 0.0
C4152 C 0.882 0.40344 0.05972 0.0
C4153 C 0.89518 0.39149 0.0507 0.0
C4154 C 0.89975 0.39399 0.03154 0.0
C4155 C 0.94302 0.46865 0.96796 0.0
C4156 C 0.96056 0.467 0.97761 0.0
C4157 C 0.93041 0.45337 0.96667 0.0
C4158 C 0.93507 0.43606 0.97493 0.0
C4159 C 0.95328 0.43394 0.98317 0.0
C4160 C 0.96609 0.44923 0.98418 0.0
C4161 C 0.91951 0.42197 0.97775 0.0
C4162 C 0.91459 0.41748 0.99653 0.0
C4163 C 0.90674 0.41707 0.9628 0.0
C4164 C 0.91207 0.41988 0.94253 0.0
C4165 C 0.93011 0.41403 0.93571 0.0
C4166 C 0.93531 0.417 0.91679 0.0
C4167 C 0.92258 0.42582 0.90448 0.0
C4168 C 0.90463 0.43167 0.91108 0.0
C4169 C 0.89935 0.42874 0.92999 0.0
H4170 H 0.92665 0.42813 0.88984 0.0
H4171 H 0.87847 0.40148 0.07455 0.0
H4172 H 0.31219 0.02582 0.73046 0.0
H4173 H 0.29031 0.05256 0.72695 0.0
H4174 H 0.33249 0.08969 0.75309 0.0
H4175 H 0.35408 0.0632 0.75696 0.0
H4176 H 0.29802 0.09881 0.76531 0.0
H4177 H 0.32811 0.08478 0.70415 0.0
H4178 H 0.33558 0.06446 0.67631 0.0
H4179 H 0.27539 0.05815 0.66422 0.0
H4180 H 0.26757 0.07829 0.69214 0.0
H4181 H 0.29971 0.18376 0.70855 0.0
H4182 H 0.30145 0.14947 0.70757 0.0
H4183 H 0.25016 0.14589 0.7418 0.0
H4184 H 0.24848 0.18043 0.74324 0.0
H4185 H 0.28059 0.11654 0.69955 0.0
H4186 H 0.26054 0.11954 0.77722 0.0
H4187 H 0.25548 0.14482 0.80138 0.0
H4188 H 0.30196 0.177 0.77767 0.0
H4189 H 0.30763 0.15173 0.75381 0.0
C4190 C 0.31666 0.03966 0.73566 0.0
C4191 C 0.33491 0.04244 0.74386 0.0
C4192 C 0.30417 0.05491 0.73361 0.0
C4193 C 0.30983 0.07316 0.73962 0.0
C4194 C 0.32776 0.07575 0.74842 0.0
C4195 C 0.34016 0.06057 0.75053 0.0
C4196 C 0.29791 0.08995 0.7358 0.0
C4197 C 0.29383 0.10242 0.75098 0.0
C4198 C 0.29257 0.09487 0.71708 0.0
C4199 C 0.29726 0.0828 0.70034 0.0
C4200 C 0.31647 0.07893 0.69563 0.0
C4201 C 0.32077 0.06748 0.67983 0.0
C4202 C 0.30597 0.05996 0.66854 0.0
C4203 C 0.28684 0.06394 0.673 0.0
C4204 C 0.28247 0.07537 0.6888 0.0
C4205 C 0.28855 0.17574 0.7156 0.0
C4206 C 0.2743 0.18487 0.72649 0.0
C4207 C 0.28941 0.15608 0.71475 0.0
C4208 C 0.27609 0.14515 0.7248 0.0
C4209 C 0.26066 0.15412 0.73404 0.0
C4210 C 0.25982 0.17386 0.73497 0.0
C4211 C 0.28101 0.12531 0.72899 0.0
C4212 C 0.28393 0.11241 0.71395 0.0
C4213 C 0.28584 0.12014 0.74772 0.0
C4214 C 0.2844 0.13385 0.76374 0.0
C4215 C 0.2699 0.13185 0.77745 0.0
C4216 C 0.26687 0.1462 0.791 0.0
C4217 C 0.27827 0.16254 0.79087 0.0
C4218 C 0.2931 0.16436 0.77765 0.0
C4219 C 0.29632 0.14998 0.76424 0.0
H4220 H 0.27575 0.17376 0.8011 0.0
H4221 H 0.30932 0.0511 0.65631 0.0
H4222 H 0.13091 0.92936 0.26306 0.0
H4223 H 0.14775 0.89936 0.2651 0.0
H4224 H 0.20208 0.9292 0.26599 0.0
H4225 H 0.18526 0.95925 0.26317 0.0
H4226 H 0.20452 0.9014 0.24267 0.0
H4227 H 0.18121 0.90654 0.30663 0.0
H4228 H 0.15756 0.91042 0.3325 0.0
H4229 H 0.12722 0.8608 0.31276 0.0
H4230 H 0.15045 0.85684 0.28654 0.0
H4231 H 0.26176 0.82498 0.2569 0.0
H4232 H 0.2441 0.85251 0.26863 0.0
H4233 H 0.19059 0.82335 0.25726 0.0
H4234 H 0.20839 0.79539 0.24642 0.0
H4235 H 0.18766 0.85031 0.28726 0.0
H4236 H 0.21016 0.84661 0.22263 0.0
H4237 H 0.23466 0.84178 0.19772 0.0
H4238 H 0.26732 0.88885 0.22006 0.0
H4239 H 0.24314 0.89375 0.24533 0.0
C4240 C 0.14645 0.92955 0.2638 0.0
C4241 C 0.15676 0.94669 0.26291 0.0
C4242 C 0.15608 0.91236 0.26514 0.0
C4243 C 0.17623 0.91194 0.26603 0.0
C4244 C 0.18653 0.9291 0.26537 0.0
C4245 C 0.17691 0.94629 0.26375 0.0
C4246 C 0.1866 0.89359 0.26634 0.0
C4247 C 0.20107 0.89045 0.25276 0.0
C4248 C 0.18174 0.8789 0.27902 0.0
C4249 C 0.16748 0.88151 0.29451 0.0
C4250 C 0.16937 0.89658 0.30767 0.0
C4251 C 0.15605 0.89877 0.32242 0.0
C4252 C 0.14086 0.8859 0.32424 0.0
C4253 C 0.13895 0.8708 0.31131 0.0
C4254 C 0.15219 0.86858 0.2965 0.0
C4255 C 0.24627 0.82403 0.25812 0.0
C4256 C 0.2364 0.80802 0.25116 0.0
C4257 C 0.23617 0.83986 0.26453 0.0
C4258 C 0.21604 0.84015 0.26334 0.0
C4259 C 0.20611 0.82345 0.25828 0.0
C4260 C 0.21627 0.80745 0.25216 0.0
C4261 C 0.20581 0.85849 0.26407 0.0
C4262 C 0.19121 0.86146 0.27747 0.0
C4263 C 0.21059 0.87311 0.25136 0.0
C4264 C 0.22495 0.87043 0.23597 0.0
C4265 C 0.22262 0.85585 0.2223 0.0
C4266 C 0.23645 0.85311 0.20811 0.0
C4267 C 0.25256 0.86498 0.20733 0.0
C4268 C 0.25484 0.87966 0.2207 0.0
C4269 C 0.24109 0.88243 0.23496 0.0
H4270 H 0.26325 0.86283 0.19634 0.0
H4271 H 0.1306 0.8876 0.33569 0.0
H4272 H 0.52838 0.32815 0.38641 0.0
H4273 H 0.51956 0.35664 0.40411 0.0
H4274 H 0.474 0.32597 0.43197 0.0
H4275 H 0.48334 0.29706 0.41473 0.0
H4276 H 0.48971 0.37791 0.40517 0.0
H4277 H 0.46551 0.34633 0.47564 0.0
H4278 H 0.47011 0.31789 0.49494 0.0
H4279 H 0.52638 0.31048 0.47102 0.0
H4280 H 0.52217 0.33897 0.45175 0.0
H4281 H 0.48549 0.46136 0.4649 0.0
H4282 H 0.47207 0.43194 0.45059 0.0
H4283 H 0.51879 0.40054 0.47479 0.0
H4284 H 0.53142 0.42908 0.4893 0.0
H4285 H 0.48952 0.37945 0.47563 0.0
H4286 H 0.51775 0.42182 0.42696 0.0
H4287 H 0.5179 0.45024 0.40703 0.0
H4288 H 0.46106 0.43653 0.38723 0.0
H4289 H 0.46052 0.40816 0.40721 0.0
C4290 C 0.51655 0.32739 0.3964 0.0
C4291 C 0.50669 0.31026 0.39927 0.0
C4292 C 0.51139 0.34378 0.40642 0.0
C4293 C 0.49609 0.34358 0.41945 0.0
C4294 C 0.48603 0.32651 0.42222 0.0
C4295 C 0.49141 0.30997 0.41239 0.0
C4296 C 0.49145 0.36119 0.43045 0.0
C4297 C 0.48949 0.37821 0.4206 0.0
C4298 C 0.49068 0.36169 0.45057 0.0
C4299 C 0.49339 0.34458 0.46207 0.0
C4300 C 0.47885 0.33861 0.47452 0.0
C4301 C 0.4814 0.3225 0.48545 0.0
C4302 C 0.49849 0.31233 0.48414 0.0
C4303 C 0.51311 0.31831 0.47196 0.0
C4304 C 0.51065 0.33442 0.46101 0.0
C4305 C 0.49246 0.44802 0.4675 0.0
C4306 C 0.50963 0.44752 0.47797 0.0
C4307 C 0.48491 0.43126 0.45922 0.0
C4308 C 0.49457 0.41394 0.46131 0.0
C4309 C 0.51094 0.41353 0.47289 0.0
C4310 C 0.5183 0.43001 0.4811 0.0
C4311 C 0.48946 0.39633 0.45039 0.0
C4312 C 0.48917 0.37915 0.4602 0.0
C4313 C 0.48881 0.39574 0.43026 0.0
C4314 C 0.489 0.41306 0.41873 0.0
C4315 C 0.50523 0.42499 0.41848 0.0
C4316 C 0.5054 0.44105 0.40716 0.0
C4317 C 0.4895 0.44518 0.39588 0.0
C4318 C 0.47335 0.43332 0.39598 0.0
C4319 C 0.4731 0.41727 0.40732 0.0
H4320 H 0.48973 0.45749 0.38696 0.0
H4321 H 0.50043 0.29986 0.49261 0.0
H4322 H 0.45522 0.76943 0.14316 0.0
H4323 H 0.4234 0.76983 0.15781 0.0
H4324 H 0.44653 0.74474 0.20828 0.0
H4325 H 0.47847 0.74457 0.19391 0.0
H4326 H 0.40032 0.74222 0.17003 0.0
H4327 H 0.42237 0.76219 0.24691 0.0
H4328 H 0.44833 0.77933 0.26395 0.0
H4329 H 0.45865 0.81327 0.21487 0.0
H4330 H 0.43261 0.7965 0.19764 0.0
H4331 H 0.31895 0.73532 0.23305 0.0
H4332 H 0.3526 0.73182 0.22298 0.0
H4333 H 0.3561 0.79162 0.21252 0.0
H4334 H 0.32247 0.7951 0.22198 0.0
H4335 H 0.38902 0.77538 0.23171 0.0
H4336 H 0.3463 0.76685 0.17854 0.0
H4337 H 0.3198 0.75201 0.16043 0.0
H4338 H 0.35007 0.6994 0.15871 0.0
H4339 H 0.3766 0.71383 0.17723 0.0
C4340 C 0.45358 0.76404 0.1574 0.0
C4341 C 0.46944 0.75708 0.1674 0.0
C4342 C 0.43535 0.76419 0.16571 0.0
C4343 C 0.43263 0.75743 0.18417 0.0
C4344 C 0.44837 0.75026 0.19411 0.0
C4345 C 0.46661 0.75017 0.18585 0.0
C4346 C 0.41335 0.75814 0.19306 0.0
C4347 C 0.39786 0.74934 0.18358 0.0
C4348 C 0.41015 0.7676 0.21066 0.0
C4349 C 0.4257 0.77793 0.22094 0.0
C4350 C 0.43015 0.77335 0.23979 0.0
C4351 C 0.44488 0.78299 0.24947 0.0
C4352 C 0.45518 0.79733 0.24047 0.0
C4353 C 0.45072 0.80211 0.22179 0.0
C4354 C 0.43599 0.79252 0.21206 0.0
C4355 C 0.32707 0.74773 0.22895 0.0
C4356 C 0.31824 0.76548 0.2282 0.0
C4357 C 0.34618 0.74569 0.22311 0.0
C4358 C 0.35667 0.76144 0.2169 0.0
C4359 C 0.34818 0.77933 0.21728 0.0
C4360 C 0.32902 0.78129 0.22263 0.0
C4361 C 0.37609 0.75934 0.20875 0.0
C4362 C 0.39157 0.76793 0.21835 0.0
C4363 C 0.37919 0.74997 0.19109 0.0
C4364 C 0.36322 0.7413 0.17985 0.0
C4365 C 0.34716 0.75202 0.17468 0.0
C4366 C 0.33215 0.74369 0.16424 0.0
C4367 C 0.33315 0.72472 0.15858 0.0
C4368 C 0.34925 0.71408 0.1632 0.0
C4369 C 0.36426 0.72232 0.17372 0.0
H4370 H 0.3215 0.7183 0.15051 0.0
H4371 H 0.46658 0.80478 0.24799 0.0
H4372 H 0.99179 0.68733 0.888 0.0
H4373 H 0.99198 0.65581 0.90164 0.0
H4374 H 0.02362 0.6774 0.95012 0.0
H4375 H 0.02342 0.70915 0.93657 0.0
H4376 H 0.03855 0.64297 0.93385 0.0
H4377 H 0.97837 0.66844 0.9561 0.0
H4378 H 0.94696 0.68381 0.95245 0.0
H4379 H 0.92821 0.63878 0.91504 0.0
H4380 H 0.95963 0.62326 0.91826 0.0
H4381 H 0.01027 0.5679 -0.0006 0.0
H4382 H 0.01969 0.59708 0.98323 0.0
H4383 H 0.99448 0.57543 0.93122 0.0
H4384 H 0.98573 0.54606 0.94719 0.0
H4385 H 0.97761 0.60969 0.94906 0.0
H4386 H 0.03545 0.58356 0.92629 0.0
H4387 H 0.06703 0.56819 0.92601 0.0
H4388 H 0.09033 0.61324 0.96078 0.0
H4389 H 0.0587 0.62866 0.96172 0.0
C4390 C -0.00132 0.68543 0.90163 0.0
C4391 C 0.0075 0.70076 0.91126 0.0
C4392 C -0.00121 0.6674 0.90939 0.0
C4393 C 0.0078 0.66429 0.92689 0.0
C4394 C 0.01664 0.67953 0.93657 0.0
C4395 C 0.01636 0.69766 0.92889 0.0
C4396 C 0.00774 0.6451 0.93506 0.0
C4397 C 0.02528 0.63577 0.93754 0.0
C4398 C 0.99035 0.63553 0.93916 0.0
C4399 C 0.97141 0.64479 0.93729 0.0
C4400 C 0.9676 0.66189 0.94698 0.0
C4401 C 0.94979 0.67062 0.94501 0.0
C4402 C 0.93562 0.6623 0.93348 0.0
C4403 C 0.93921 0.64522 0.92394 0.0
C4404 C 0.95701 0.63644 0.92585 0.0
C4405 C 0.00778 0.56901 0.98425 0.0
C4406 C -0.00219 0.55464 0.97433 0.0
C4407 C 0.013 0.58569 0.97508 0.0
C4408 C 0.00776 0.58836 0.95604 0.0
C4409 C -0.0012 0.57354 0.94585 0.0
C4410 C 0.99394 0.55675 0.95493 0.0
C4411 C 0.00843 0.60753 0.94793 0.0
C4412 C 0.99093 0.61688 0.94552 0.0
C4413 C 0.02584 0.61696 0.9437 0.0
C4414 C 0.04458 0.60715 0.9443 0.0
C4415 C 0.04717 0.59001 0.93424 0.0
C4416 C 0.06512 0.58132 0.93387 0.0
C4417 C 0.08067 0.58974 0.94335 0.0
C4418 C 0.07826 0.60673 0.95344 0.0
C4419 C 0.0603 0.61543 0.95393 0.0
H4420 H 0.09459 0.58311 0.94274 0.0
H4421 H 0.92183 0.66908 0.93197 0.0
H4422 H 0.07646 0.25564 0.6078 0.0
H4423 H 0.10999 0.24889 0.61506 0.0
H4424 H 0.10292 0.2736 0.6711 0.0
H4425 H 0.0692 0.2799 0.66417 0.0
H4426 H 0.14302 0.26587 0.62692 0.0
H4427 H 0.11983 0.24375 0.7029 0.0
H4428 H 0.09047 0.23258 0.71903 0.0
H4429 H 0.06887 0.21003 0.66609 0.0
H4430 H 0.09826 0.22071 0.64973 0.0
H4431 H 0.21501 0.2632 0.69649 0.0
H4432 H 0.19097 0.26627 0.67156 0.0
H4433 H 0.1769 0.20698 0.67609 0.0
H4434 H 0.2005 0.2042 0.70166 0.0
H4435 H 0.14751 0.2262 0.68422 0.0
H4436 H 0.18832 0.2259 0.63133 0.0
H4437 H 0.21526 0.23244 0.60959 0.0
H4438 H 0.20141 0.29145 0.61063 0.0
H4439 H 0.17432 0.28527 0.63235 0.0
C4440 C 0.08214 0.26001 0.62156 0.0
C4441 C 0.07011 0.26791 0.63563 0.0
C4442 C 0.10134 0.25621 0.6256 0.0
C4443 C 0.10875 0.26036 0.64372 0.0
C4444 C 0.09729 0.26997 0.65712 0.0
C4445 C 0.07805 0.27358 0.65317 0.0
C4446 C 0.12742 0.2525 0.64952 0.0
C4447 C 0.14414 0.25724 0.63946 0.0
C4448 C 0.1286 0.24029 0.66517 0.0
C4449 C 0.11119 0.23318 0.67507 0.0
C4450 C 0.10889 0.23627 0.69474 0.0
C4451 C 0.09223 0.23005 0.70391 0.0
C4452 C 0.07779 0.22065 0.69358 0.0
C4453 C 0.08004 0.21735 0.67407 0.0
C4454 C 0.0967 0.22348 0.66484 0.0
C4455 C 0.20748 0.25065 0.69144 0.0
C4456 C 0.20957 0.23347 0.70081 0.0
C4457 C 0.19371 0.25238 0.67717 0.0
C4458 C 0.18203 0.23687 0.67196 0.0
C4459 C 0.18571 0.21915 0.67989 0.0
C4460 C 0.19922 0.21753 0.69442 0.0
C4461 C 0.16355 0.24021 0.66216 0.0
C4462 C 0.14665 0.23465 0.67152 0.0
C4463 C 0.16224 0.25098 0.64545 0.0
C4464 C 0.17932 0.25511 0.63353 0.0
C4465 C 0.19113 0.2403 0.6271 0.0
C4466 C 0.20633 0.24392 0.61464 0.0
C4467 C 0.20997 0.26232 0.60866 0.0
C4468 C 0.19852 0.27719 0.61522 0.0
C4469 C 0.18319 0.27362 0.62755 0.0
H4470 H 0.22172 0.26505 0.59898 0.0
H4471 H 0.06488 0.21591 0.7007 0.0
H4472 H 0.50812 0.70695 0.08163 0.0
H4473 H 0.50544 0.675 0.06832 0.0
H4474 H 0.5256 0.6522 0.12115 0.0
H4475 H 0.52883 0.68417 0.13443 0.0
H4476 H 0.54293 0.63535 0.09288 0.0
H4477 H 0.47805 0.64782 0.10795 0.0
H4478 H 0.44763 0.66536 0.10955 0.0
H4479 H 0.44353 0.66355 0.04863 0.0
H4480 H 0.47408 0.64625 0.04663 0.0
H4481 H 0.51672 0.54389 0.04798 0.0
H4482 H 0.51719 0.56996 0.07155 0.0
H4483 H 0.5129 0.61019 0.02641 0.0
H4484 H 0.51275 0.58468 0.00295 0.0
H4485 H 0.48489 0.6137 0.05758 0.0
H4486 H 0.55373 0.60592 0.04432 0.0
H4487 H 0.58354 0.58733 0.04391 0.0
H4488 H 0.57838 0.5786 0.10399 0.0
H4489 H 0.54837 0.59695 0.10468 0.0
C4490 C 0.51191 0.69515 0.09046 0.0
C4491 C 0.51867 0.69812 0.10909 0.0
C4492 C 0.51025 0.67687 0.08287 0.0
C4493 C 0.515 0.66118 0.09387 0.0
C4494 C 0.52178 0.66409 0.11246 0.0
C4495 C 0.52361 0.68239 0.12 0.0
C4496 C 0.51363 0.64185 0.08554 0.0
C4497 C 0.53007 0.63045 0.08554 0.0
C4498 C 0.49684 0.63536 0.07606 0.0
C4499 C 0.47846 0.64583 0.07715 0.0
C4500 C 0.47075 0.65129 0.09488 0.0
C4501 C 0.45346 0.66117 0.09586 0.0
C4502 C 0.44367 0.6656 0.07921 0.0
C4503 C 0.45113 0.66012 0.06153 0.0
C4504 C 0.46843 0.65025 0.06046 0.0
C4505 C 0.5161 0.5583 0.0431 0.0
C4506 C 0.51473 0.56217 0.02357 0.0
C4507 C 0.51632 0.57312 0.05656 0.0
C4508 C 0.51494 0.59188 0.05061 0.0
C4509 C 0.51385 0.59575 0.03121 0.0
C4510 C 0.51389 0.5811 0.01782 0.0
C4511 C 0.51436 0.60782 0.06432 0.0
C4512 C 0.49752 0.6185 0.06537 0.0
C4513 C 0.53064 0.6135 0.07496 0.0
C4514 C 0.54869 0.60257 0.07451 0.0
C4515 C 0.55885 0.59987 0.0574 0.0
C4516 C 0.5758 0.58942 0.05713 0.0
C4517 C 0.58281 0.58172 0.0739 0.0
C4518 C 0.57291 0.58452 0.091 0.0
C4519 C 0.55594 0.59495 0.09134 0.0
H4520 H 0.59594 0.57364 0.07366 0.0
H4521 H 0.43028 0.67324 0.08 0.0
H4522 H 0.08601 0.74956 0.88686 0.0
H4523 H 0.11752 0.74116 0.87373 0.0
H4524 H 0.09279 0.73704 0.81756 0.0
H4525 H 0.06138 0.74508 0.83054 0.0
H4526 H 0.11709 0.70828 0.82356 0.0
H4527 H 0.11737 0.77689 0.83352 0.0
H4528 H 0.11526 0.80595 0.85326 0.0
H4529 H 0.16199 0.78713 0.88779 0.0
H4530 H 0.1642 0.75786 0.86836 0.0
H4531 H 0.17565 0.74044 0.75162 0.0
H4532 H 0.15419 0.72838 0.77595 0.0
H4533 H 0.19904 0.73594 0.81785 0.0
H4534 H 0.22045 0.74788 0.7932 0.0
H4535 H 0.17007 0.75536 0.82774 0.0
H4536 H 0.17538 0.69121 0.80939 0.0
H4537 H 0.17682 0.66261 0.78906 0.0
H4538 H 0.1198 0.67297 0.76874 0.0
H4539 H 0.11803 0.70175 0.78881 0.0
C4540 C 0.08732 0.74686 0.87171 0.0
C4541 C 0.07123 0.74811 0.85971 0.0
C4542 C 0.10531 0.74202 0.86425 0.0
C4543 C 0.10752 0.7385 0.84465 0.0
C4544 C 0.09141 0.73955 0.83274 0.0
C4545 C 0.07348 0.74431 0.84017 0.0
C4546 C 0.12662 0.73464 0.8361 0.0
C4547 C 0.12875 0.71851 0.82441 0.0
C4548 C 0.14214 0.74754 0.83799 0.0
C4549 C 0.14077 0.76509 0.84968 0.0
C4550 C 0.12708 0.77889 0.84542 0.0
C4551 C 0.12589 0.7954 0.85653 0.0
C4552 C 0.13844 0.79835 0.87182 0.0
C4553 C 0.15224 0.7848 0.87598 0.0
C4554 C 0.15347 0.76825 0.86493 0.0
C4555 C 0.1812 0.73848 0.76585 0.0
C4556 C 0.19971 0.74481 0.77065 0.0
C4557 C 0.16895 0.73151 0.7798 0.0
C4558 C 0.17495 0.73097 0.79886 0.0
C4559 C 0.19411 0.73579 0.80328 0.0
C4560 C 0.20645 0.74254 0.78919 0.0
C4561 C 0.16019 0.72953 0.81406 0.0
C4562 C 0.15883 0.74465 0.8272 0.0
C4563 C 0.14533 0.71575 0.81332 0.0
C4564 C 0.14654 0.69866 0.80077 0.0
C4565 C 0.16317 0.68748 0.80054 0.0
C4566 C 0.16402 0.67119 0.78906 0.0
C4567 C 0.14835 0.66592 0.7777 0.0
C4568 C 0.13188 0.67702 0.77764 0.0
C4569 C 0.13092 0.69329 0.78912 0.0
H4570 H 0.14891 0.65323 0.76895 0.0
H4571 H 0.1375 0.81115 0.8804 0.0
H4572 H 0.97052 0.31683 0.61512 0.0
H4573 H 0.96431 0.34429 0.59548 0.0
H4574 H 0.99254 0.31699 0.54796 0.0
H4575 H -0.00148 0.28924 0.56746 0.0
H4576 H 0.00737 0.35356 0.55835 0.0
H4577 H 0.94753 0.32393 0.54299 0.0
H4578 H 0.91699 0.30733 0.54939 0.0
H4579 H 0.89769 0.35461 0.58314 0.0
H4580 H 0.92824 0.37139 0.57718 0.0
H4581 H 0.99131 0.43831 0.5079 0.0
H4582 H 0.99042 0.40447 0.51448 0.0
H4583 H 0.95784 0.41554 0.5656 0.0
H4584 H 0.95841 0.44924 0.55911 0.0
H4585 H 0.94464 0.38412 0.54676 0.0
H4586 H 0.00511 0.41063 0.56796 0.0
H4587 H 0.03542 0.42831 0.56361 0.0
H4588 H 0.05364 0.38762 0.52152 0.0
H4589 H 0.02321 0.36985 0.52536 0.0
C4590 C 0.97502 0.3165 0.60037 0.0
C4591 C 0.98504 0.30094 0.59282 0.0
C4592 C 0.97143 0.33216 0.58916 0.0
C4593 C 0.97797 0.33261 0.5703 0.0
C4594 C 0.98735 0.31683 0.56248 0.0
C4595 C 0.99066 0.301 0.57361 0.0
C4596 C 0.97658 0.35033 0.55958 0.0
C4597 C 0.99366 0.36005 0.5553 0.0
C4598 C 0.95869 0.3589 0.55611 0.0
C4599 C 0.94025 0.34888 0.55972 0.0
C4600 C 0.93684 0.33073 0.55191 0.0
C4601 C 0.91951 0.3213 0.55543 0.0
C4602 C 0.90542 0.3299 0.56668 0.0
C4603 C 0.90862 0.34797 0.57442 0.0
C4604 C 0.92593 0.35746 0.57095 0.0
C4605 C 0.98377 0.43354 0.52044 0.0
C4606 C 0.97508 0.44652 0.53308 0.0
C4607 C 0.98329 0.4142 0.52416 0.0
C4608 C 0.97417 0.40756 0.54058 0.0
C4609 C 0.9649 0.42039 0.55281 0.0
C4610 C 0.96539 0.43968 0.54914 0.0
C4611 C 0.9754 0.38748 0.54592 0.0
C4612 C 0.95833 0.3774 0.54928 0.0
C4613 C 0.99331 0.37867 0.54883 0.0
C4614 C 0.01179 0.38905 0.54676 0.0
C4615 C 0.01552 0.40552 0.55767 0.0
C4616 C 0.03271 0.41555 0.55531 0.0
C4617 C 0.0464 0.40913 0.54226 0.0
C4618 C 0.04298 0.3926 0.53159 0.0
C4619 C 0.02576 0.38254 0.53385 0.0
H4620 H 0.05967 0.41694 0.54048 0.0
H4621 H 0.89201 0.32258 0.56939 0.0
H4622 H 0.45433 0.23497 0.34834 0.0
H4623 H 0.42264 0.23132 0.33396 0.0
H4624 H 0.43691 0.27384 0.29293 0.0
H4625 H 0.46878 0.27771 0.30733 0.0
H4626 H 0.40098 0.27895 0.30915 0.0
H4627 H 0.43581 0.22904 0.27866 0.0
H4628 H 0.45706 0.20136 0.27701 0.0
H4629 H 0.41704 0.16965 0.31058 0.0
H4630 H 0.39566 0.19723 0.31267 0.0
H4631 H 0.31479 0.25747 0.25753 0.0
H4632 H 0.34915 0.26117 0.26392 0.0
H4633 H 0.34446 0.22195 0.31 0.0
H4634 H 0.31009 0.21851 0.30412 0.0
H4635 H 0.37686 0.2162 0.28689 0.0
H4636 H 0.34376 0.2661 0.32004 0.0
H4637 H 0.32254 0.29366 0.32339 0.0
H4638 H 0.35936 0.32547 0.28663 0.0
H4639 H 0.38048 0.29785 0.28244 0.0
C4640 C 0.4508 0.24355 0.33623 0.0
C4641 C 0.46412 0.25661 0.32895 0.0
C4642 C 0.4327 0.24137 0.32798 0.0
C4643 C 0.42754 0.25216 0.31226 0.0
C4644 C 0.44068 0.26534 0.30502 0.0
C4645 C 0.45888 0.26748 0.31323 0.0
C4646 C 0.40821 0.24981 0.30375 0.0
C4647 C 0.39581 0.26534 0.30386 0.0
C4648 C 0.40143 0.23194 0.29724 0.0
C4649 C 0.41419 0.21526 0.29592 0.0
C4650 C 0.4316 0.21621 0.2858 0.0
C4651 C 0.44366 0.20053 0.28478 0.0
C4652 C 0.43842 0.18377 0.29372 0.0
C4653 C 0.42108 0.18264 0.30367 0.0
C4654 C 0.40897 0.19829 0.30476 0.0
C4655 C 0.32103 0.24963 0.26903 0.0
C4656 C 0.30957 0.23801 0.28057 0.0
C4657 C 0.34068 0.25172 0.2726 0.0
C4658 C 0.34922 0.24198 0.28755 0.0
C4659 C 0.33807 0.22961 0.29842 0.0
C4660 C 0.3184 0.22772 0.29506 0.0
C4661 C 0.36959 0.24526 0.29255 0.0
C4662 C 0.38215 0.22989 0.29181 0.0
C4663 C 0.37647 0.26326 0.29857 0.0
C4664 C 0.36357 0.27978 0.3007 0.0
C4665 C 0.34718 0.27886 0.31239 0.0
C4666 C 0.33518 0.2945 0.31446 0.0
C4667 C 0.33956 0.31128 0.30515 0.0
C4668 C 0.35593 0.31241 0.2937 0.0
C4669 C 0.36789 0.29675 0.29144 0.0
H4670 H 0.3303 0.32341 0.30683 0.0
H4671 H 0.44778 0.17164 0.29291 0.0
H4672 H 0.44722 0.48103 0.28038 0.0
H4673 H 0.46102 0.48346 0.31226 0.0
H4674 H 0.41405 0.51887 0.33029 0.0
H4675 H 0.40014 0.5166 0.29841 0.0
H4676 H 0.44902 0.53227 0.34294 0.0
H4677 H 0.41437 0.47266 0.34025 0.0
H4678 H 0.40663 0.44068 0.32793 0.0
H4679 H 0.46428 0.42298 0.33934 0.0
H4680 H 0.47246 0.45497 0.3514 0.0
H4681 H 0.4413 0.52513 0.44131 0.0
H4682 H 0.43702 0.52315 0.40706 0.0
H4683 H 0.48793 0.48915 0.40186 0.0
H4684 H 0.49227 0.49074 0.43645 0.0
H4685 H 0.45672 0.47463 0.38136 0.0
H4686 H 0.49065 0.53276 0.38743 0.0
H4687 H 0.49848 0.56434 0.40071 0.0
H4688 H 0.44329 0.58457 0.38347 0.0
H4689 H 0.435 0.55302 0.37032 0.0
C4690 C 0.43986 0.48944 0.29107 0.0
C4691 C 0.42251 0.49857 0.28686 0.0
C4692 C 0.44775 0.49074 0.3093 0.0
C4693 C 0.43845 0.50118 0.32365 0.0
C4694 C 0.42143 0.51072 0.31939 0.0
C4695 C 0.41347 0.50937 0.30118 0.0
C4696 C 0.44619 0.50195 0.34325 0.0
C4697 C 0.45063 0.51968 0.35138 0.0
C4698 C 0.44897 0.48544 0.35399 0.0
C4699 C 0.44411 0.46629 0.34645 0.0
C4700 C 0.42546 0.46202 0.3399 0.0
C4701 C 0.42098 0.44387 0.33301 0.0
C4702 C 0.43497 0.42982 0.33277 0.0
C4703 C 0.45347 0.43389 0.33945 0.0
C4704 C 0.45804 0.45203 0.3463 0.0
C4705 C 0.45164 0.51718 0.43298 0.0
C4706 C 0.46716 0.50811 0.44168 0.0
C4707 C 0.44922 0.51618 0.41335 0.0
C4708 C 0.46227 0.50617 0.40194 0.0
C4709 C 0.47771 0.49694 0.41047 0.0
C4710 C 0.48019 0.49794 0.43021 0.0
C4711 C 0.45912 0.50496 0.38116 0.0
C4712 C 0.45553 0.48717 0.3728 0.0
C4713 C 0.45723 0.5214 0.37017 0.0
C4714 C 0.46216 0.54046 0.37798 0.0
C4715 C 0.48012 0.5439 0.38659 0.0
C4716 C 0.48465 0.5618 0.39407 0.0
C4717 C 0.47138 0.57644 0.39296 0.0
C4718 C 0.45356 0.57321 0.38432 0.0
C4719 C 0.44894 0.55532 0.37682 0.0
H4720 H 0.47491 0.5903 0.39876 0.0
H4721 H 0.43146 0.41577 0.32746 0.0
H4722 H 0.2759 0.66373 0.05684 0.0
H4723 H 0.27753 0.67657 0.08934 0.0
H4724 H 0.22607 0.64545 0.10373 0.0
H4725 H 0.22498 0.6319 0.07168 0.0
H4726 H 0.25596 0.6986 0.10727 0.0
H4727 H 0.22294 0.63604 0.14997 0.0
H4728 H 0.22314 0.60119 0.14921 0.0
H4729 H 0.2768 0.60173 0.11908 0.0
H4730 H 0.27707 0.63658 0.11988 0.0
H4731 H 0.22067 0.73673 0.18961 0.0
H4732 H 0.22058 0.71418 0.16288 0.0
H4733 H 0.26975 0.68631 0.18657 0.0
H4734 H 0.26979 0.70886 0.21336 0.0
H4735 H 0.24563 0.66136 0.16567 0.0
H4736 H 0.27916 0.71966 0.15834 0.0
H4737 H 0.28312 0.75428 0.16049 0.0
H4738 H 0.2371 0.76113 0.12063 0.0
H4739 H 0.23256 0.72652 0.11859 0.0
C4740 C 0.26506 0.65953 0.06702 0.0
C4741 C 0.25036 0.64677 0.06175 0.0
C4742 C 0.26599 0.66685 0.08558 0.0
C4743 C 0.25209 0.66178 0.09914 0.0
C4744 C 0.23731 0.64917 0.09378 0.0
C4745 C 0.2366 0.64155 0.07537 0.0
C4746 C 0.25226 0.6706 0.11847 0.0
C4747 C 0.25382 0.69035 0.11997 0.0
C4748 C 0.24988 0.65992 0.13523 0.0
C4749 C 0.24993 0.63894 0.13485 0.0
C4750 C 0.23483 0.62873 0.14326 0.0
C4751 C 0.23485 0.60897 0.1428 0.0
C4752 C 0.24994 0.59925 0.13405 0.0
C4753 C 0.26508 0.60927 0.12579 0.0
C4754 C 0.26514 0.62903 0.12621 0.0
C4755 C 0.2309 0.72527 0.18951 0.0
C4756 C 0.2451 0.72433 0.20358 0.0
C4757 C 0.2309 0.71246 0.17423 0.0
C4758 C 0.24537 0.69882 0.17263 0.0
C4759 C 0.25843 0.69669 0.1876 0.0
C4760 C 0.25833 0.70945 0.20301 0.0
C4761 C 0.24867 0.68916 0.15411 0.0
C4762 C 0.24785 0.6694 0.15284 0.0
C4763 C 0.25247 0.69971 0.13759 0.0
C4764 C 0.2554 0.72051 0.13844 0.0
C4765 C 0.2698 0.72855 0.15013 0.0
C4766 C 0.27216 0.74817 0.15132 0.0
C4767 C 0.26037 0.75989 0.14071 0.0
C4768 C 0.24621 0.75202 0.12886 0.0
C4769 C 0.24373 0.73241 0.12768 0.0
H4770 H 0.26222 0.77508 0.14165 0.0
H4771 H 0.24992 0.58396 0.13371 0.0
H4772 H 0.04864 0.50535 0.77394 0.0
H4773 H 0.0351 0.50651 0.80605 0.0
H4774 H 0.08336 0.47514 0.82683 0.0
H4775 H 0.09706 0.47393 0.79484 0.0
H4776 H 0.04807 0.46381 0.84283 0.0
H4777 H 0.08449 0.52154 0.83043 0.0
H4778 H 0.09173 0.5504 0.81248 0.0
H4779 H 0.03456 0.57049 0.82281 0.0
H4780 H 0.02692 0.54161 0.84062 0.0
H4781 H 0.06518 0.50826 0.93799 0.0
H4782 H 0.06822 0.50841 0.90333 0.0
H4783 H 0.00875 0.49172 0.89776 0.0
H4784 H 0.00543 0.49217 0.93262 0.0
H4785 H 0.04508 0.52755 0.87326 0.0
H4786 H 0.01352 0.4538 0.86336 0.0
H4787 H 0.00724 0.42502 0.88184 0.0
H4788 H 0.05651 0.4373 0.91676 0.0
H4789 H 0.0632 0.46597 0.89832 0.0
C4790 C 0.05624 0.49842 0.78527 0.0
C4791 C 0.07404 0.48967 0.78185 0.0
C4792 C 0.04849 0.49915 0.80361 0.0
C4793 C 0.05832 0.49105 0.81881 0.0
C4794 C 0.07555 0.48146 0.81527 0.0
C4795 C 0.0834 0.48086 0.79699 0.0
C4796 C 0.05156 0.49374 0.83863 0.0
C4797 C 0.04718 0.47776 0.8494 0.0
C4798 C 0.05041 0.51194 0.84722 0.0
C4799 C 0.05507 0.52934 0.83665 0.0
C4800 C 0.07343 0.53205 0.82874 0.0
C4801 C 0.07761 0.54842 0.81862 0.0
C4802 C 0.06359 0.56224 0.81646 0.0
C4803 C 0.04539 0.55975 0.82447 0.0
C4804 C 0.04113 0.5434 0.83458 0.0
C4805 C 0.05267 0.50493 0.92937 0.0
C4806 C 0.03511 0.5001 0.9379 0.0
C4807 C 0.0544 0.50513 0.90962 0.0
C4808 C 0.03873 0.50002 0.89808 0.0
C4809 C 0.02097 0.49574 0.90651 0.0
C4810 C 0.0191 0.49601 0.92634 0.0
C4811 C 0.04169 0.49764 0.87738 0.0
C4812 C 0.04545 0.51366 0.8665 0.0
C4813 C 0.04232 0.4795 0.8687 0.0
C4814 C 0.03868 0.46212 0.87964 0.0
C4815 C 0.02302 0.45031 0.87496 0.0
C4816 C 0.0194 0.43402 0.88542 0.0
C4817 C 0.03142 0.42938 0.90051 0.0
C4818 C 0.04715 0.44096 0.90512 0.0
C4819 C 0.05085 0.45724 0.8947 0.0
H4820 H 0.02858 0.41678 0.9086 0.0
H4821 H 0.06686 0.57491 0.80862 0.0
H4822 H 0.21757 0.36738 0.58052 0.0
H4823 H 0.21928 0.35078 0.61065 0.0
H4824 H 0.26099 0.31257 0.58616 0.0
H4825 H 0.25795 0.32827 0.55554 0.0
H4826 H 0.241 0.29364 0.60778 0.0
H4827 H 0.2724 0.35391 0.61728 0.0
H4828 H 0.27503 0.38871 0.61728 0.0
H4829 H 0.2279 0.3927 0.65649 0.0
H4830 H 0.22502 0.35792 0.65677 0.0
H4831 H 0.30129 0.27531 0.68389 0.0
H4832 H 0.28698 0.29304 0.65839 0.0
H4833 H 0.23287 0.29385 0.68816 0.0
H4834 H 0.2471 0.27541 0.71398 0.0
H4835 H 0.25288 0.33132 0.66679 0.0
H4836 H 0.22739 0.26783 0.65967 0.0
H4837 H 0.23024 0.23305 0.6598 0.0
H4838 H 0.2718 0.23562 0.61479 0.0
H4839 H 0.26953 0.27039 0.6148 0.0
C4840 C 0.22694 0.3553 0.58159 0.0
C4841 C 0.23774 0.34912 0.56584 0.0
C4842 C 0.22807 0.34592 0.59886 0.0
C4843 C 0.24071 0.33073 0.60098 0.0
C4844 C 0.25115 0.32427 0.58501 0.0
C4845 C 0.24948 0.33325 0.56752 0.0
C4846 C 0.24341 0.32175 0.61982 0.0
C4847 C 0.2435 0.30194 0.62064 0.0
C4848 C 0.24652 0.33249 0.63681 0.0
C4849 C 0.24837 0.35336 0.63688 0.0
C4850 C 0.26257 0.36223 0.62586 0.0
C4851 C 0.26413 0.38194 0.62586 0.0
C4852 C 0.25163 0.39291 0.6369 0.0
C4853 C 0.2376 0.38419 0.64802 0.0
C4854 C 0.23602 0.36448 0.64814 0.0
C4855 C 0.28637 0.27934 0.68526 0.0
C4856 C 0.27524 0.27369 0.7009 0.0
C4857 C 0.27825 0.28952 0.67062 0.0
C4858 C 0.25889 0.29452 0.67135 0.0
C4859 C 0.24786 0.28994 0.68739 0.0
C4860 C 0.25597 0.2794 0.70206 0.0
C4861 C 0.25043 0.3034 0.6545 0.0
C4862 C 0.24961 0.32314 0.65399 0.0
C4863 C 0.24715 0.29265 0.63769 0.0
C4864 C 0.24845 0.27171 0.63746 0.0
C4865 C 0.23734 0.26096 0.65006 0.0
C4866 C 0.23884 0.24127 0.65008 0.0
C4867 C 0.25127 0.23215 0.63739 0.0
C4868 C 0.26221 0.24271 0.62464 0.0
C4869 C 0.26082 0.26241 0.62465 0.0
H4870 H 0.25236 0.2169 0.63736 0.0
H4871 H 0.25282 0.40817 0.63684 0.0
H4872 H 0.41822 0.52339 0.18711 0.0
H4873 H 0.42791 0.52973 0.15448 0.0
H4874 H 0.37334 0.50837 0.13408 0.0
H4875 H 0.36349 0.50196 0.16683 0.0
H4876 H 0.4035 0.49137 0.11705 0.0
H4877 H 0.38405 0.55445 0.12865 0.0
H4878 H 0.3814 0.58483 0.14607 0.0
H4879 H 0.44237 0.59332 0.14169 0.0
H4880 H 0.44546 0.56284 0.12453 0.0
H4881 H 0.44933 0.49255 0.03166 0.0
H4882 H 0.42393 0.50583 0.05175 0.0
H4883 H 0.46696 0.53094 0.08865 0.0
H4884 H 0.49221 0.51884 0.0677 0.0
H4885 H 0.434 0.54977 0.09257 0.0
H4886 H 0.45385 0.48357 0.09225 0.0
H4887 H 0.45871 0.45238 0.07684 0.0
H4888 H 0.3988 0.44933 0.06247 0.0
H4889 H 0.39367 0.48064 0.07761 0.0
C4890 C 0.40819 0.52021 0.17571 0.0
C4891 C 0.39017 0.51199 0.1795 0.0
C4892 C 0.41365 0.52406 0.15708 0.0
C4893 C 0.40123 0.51978 0.14188 0.0
C4894 C 0.38305 0.51196 0.14564 0.0
C4895 C 0.3775 0.50821 0.16432 0.0
C4896 C 0.40838 0.52111 0.12211 0.0
C4897 C 0.40961 0.50429 0.11143 0.0
C4898 C 0.41673 0.53789 0.11501 0.0
C4899 C 0.41498 0.55627 0.12535 0.0
C4900 C 0.39692 0.56271 0.13152 0.0
C4901 C 0.39534 0.57997 0.14134 0.0
C4902 C 0.41171 0.59099 0.145 0.0
C4903 C 0.4297 0.58477 0.13884 0.0
C4904 C 0.43137 0.56751 0.12903 0.0
C4905 C 0.45323 0.50197 0.04337 0.0
C4906 C 0.47256 0.50504 0.04805 0.0
C4907 C 0.43876 0.50939 0.05495 0.0
C4908 C 0.44357 0.51886 0.07203 0.0
C4909 C 0.46288 0.52363 0.07559 0.0
C4910 C 0.47732 0.51671 0.06364 0.0
C4911 C 0.42958 0.51991 0.08792 0.0
C4912 C 0.4272 0.53707 0.09791 0.0
C4913 C 0.42042 0.50336 0.0947 0.0
C4914 C 0.42343 0.48448 0.08583 0.0
C4915 C 0.44174 0.47626 0.08573 0.0
C4916 C 0.44454 0.45858 0.07705 0.0
C4917 C 0.42908 0.44891 0.06863 0.0
C4918 C 0.41077 0.45687 0.06894 0.0
C4919 C 0.4079 0.47457 0.07756 0.0
H4920 H 0.43127 0.43522 0.06191 0.0
H4921 H 0.41045 0.60435 0.1526 0.0
H4922 H 0.28761 0.662 0.93547 0.0
H4923 H 0.29014 0.68185 0.90747 0.0
H4924 H 0.25336 0.7232 0.93425 0.0
H4925 H 0.25107 0.70349 0.96259 0.0
H4926 H 0.24073 0.70968 0.89809 0.0
H4927 H 0.29678 0.73697 0.92574 0.0
H4928 H 0.3281 0.7374 0.94206 0.0
H4929 H 0.35314 0.70614 0.89557 0.0
H4930 H 0.3219 0.70527 0.87907 0.0
H4931 H 0.25027 0.75269 0.80544 0.0
H4932 H 0.24958 0.75029 0.84028 0.0
H4933 H 0.2912 0.70555 0.83703 0.0
H4934 H 0.29149 0.70735 0.8027 0.0
H4935 H 0.3 0.73034 0.865 0.0
H4936 H 0.24401 0.69601 0.84185 0.0
H4937 H 0.21209 0.68986 0.82773 0.0
H4938 H 0.18698 0.73038 0.86622 0.0
H4939 H 0.21881 0.73702 0.88038 0.0
C4940 C 0.28042 0.67552 0.93558 0.0
C4941 C 0.26911 0.68118 0.95118 0.0
C4942 C 0.28194 0.68689 0.91961 0.0
C4943 C 0.27199 0.70402 0.91882 0.0
C4944 C 0.26123 0.71007 0.93464 0.0
C4945 C 0.25999 0.69883 0.95082 0.0
C4946 C 0.27121 0.71426 0.90062 0.0
C4947 C 0.25358 0.7148 0.89102 0.0
C4948 C 0.28806 0.7205 0.89136 0.0
C4949 C 0.30694 0.721 0.90119 0.0
C4950 C 0.30892 0.73007 0.91904 0.0
C4951 C 0.32668 0.73041 0.92832 0.0
C4952 C 0.3426 0.72179 0.91987 0.0
C4953 C 0.3408 0.71283 0.9021 0.0
C4954 C 0.32307 0.71243 0.89276 0.0
C4955 C 0.25906 0.74221 0.81216 0.0
C4956 C 0.27049 0.7299 0.80113 0.0
C4957 C 0.25877 0.74095 0.83207 0.0
C4958 C 0.27022 0.72761 0.84124 0.0
C4959 C 0.28226 0.71597 0.8303 0.0
C4960 C 0.28237 0.71705 0.81056 0.0
C4961 C 0.26961 0.72504 0.86215 0.0
C4962 C 0.28701 0.72592 0.87227 0.0
C4963 C 0.25257 0.71979 0.8718 0.0
C4964 C 0.23386 0.71723 0.86197 0.0
C4965 C 0.23176 0.70391 0.84704 0.0
C4966 C 0.21366 0.70022 0.83914 0.0
C4967 C 0.19752 0.70963 0.84619 0.0
C4968 C 0.1995 0.72306 0.86084 0.0
C4969 C 0.21756 0.72683 0.86877 0.0
H4970 H 0.18348 0.70658 0.84027 0.0
H4971 H 0.35633 0.72208 0.92707 0.0
H4972 H 0.09532 0.46399 0.6757 0.0
H4973 H 0.08584 0.46967 0.64273 0.0
H4974 H 0.12855 0.51388 0.63899 0.0
H4975 H 0.13869 0.50777 0.67164 0.0
H4976 H 0.07996 0.51772 0.63622 0.0
H4977 H 0.13982 0.49336 0.6112 0.0
H4978 H 0.16526 0.46986 0.60588 0.0
H4979 H 0.12399 0.43096 0.58174 0.0
H4980 H 0.09818 0.45401 0.58745 0.0
H4981 H 0.03308 0.5409 0.55133 0.0
H4982 H 0.06046 0.53887 0.57326 0.0
H4983 H 0.05745 0.47792 0.56918 0.0
H4984 H 0.03106 0.48011 0.54664 0.0
H4985 H 0.09273 0.48729 0.5735 0.0
H4986 H 0.03315 0.50517 0.6045 0.0
H4987 H 0.00504 0.52545 0.61043 0.0
H4988 H 0.04238 0.57226 0.62435 0.0
H4989 H 0.07072 0.55228 0.61829 0.0
C4990 C 0.10306 0.47452 0.66765 0.0
C4991 C 0.11767 0.48548 0.6762 0.0
C4992 C 0.09775 0.47765 0.64882 0.0
C4993 C 0.10676 0.49195 0.63841 0.0
C4994 C 0.12179 0.50247 0.64668 0.0
C4995 C 0.12745 0.49903 0.66535 0.0
C4996 C 0.09781 0.4982 0.62063 0.0
C4997 C 0.08303 0.51143 0.62237 0.0
C4998 C 0.10159 0.48952 0.60281 0.0
C4999 C 0.11698 0.47532 0.60013 0.0
C5000 C 0.13607 0.47965 0.60518 0.0
C5001 C 0.15059 0.46642 0.60199 0.0
C5002 C 0.14623 0.44888 0.59359 0.0
C5003 C 0.12734 0.44451 0.58836 0.0
C5004 C 0.11275 0.45764 0.5916 0.0
C5005 C 0.03889 0.52719 0.55463 0.0
C5006 C 0.03046 0.51066 0.54709 0.0
C5007 C 0.0543 0.52599 0.56729 0.0
C5008 C 0.06084 0.50822 0.57311 0.0
C5009 C 0.05282 0.49178 0.56484 0.0
C5010 C 0.03786 0.49302 0.55183 0.0
C5011 C 0.07443 0.50641 0.58918 0.0
C5012 C 0.08998 0.49399 0.58721 0.0
C5013 C 0.07101 0.51533 0.60703 0.0
C5014 C 0.05402 0.52733 0.6107 0.0
C5015 C 0.03535 0.51982 0.60871 0.0
C5016 C 0.01939 0.53125 0.6121 0.0
C5017 C 0.02193 0.55015 0.6177 0.0
C5018 C 0.04044 0.55764 0.61997 0.0
C5019 C 0.05645 0.54627 0.61655 0.0
H5020 H 0.00955 0.55898 0.62033 0.0
H5021 H 0.15751 0.43871 0.59104 0.0
H5022 H 0.22504 0.39075 0.43144 0.0
H5023 H 0.22541 0.3743 0.40082 0.0
H5024 H 0.23825 0.322 0.42856 0.0
H5025 H 0.23772 0.33843 0.45958 0.0
H5026 H 0.25427 0.35703 0.38351 0.0
H5027 H 0.21895 0.2854 0.40108 0.0
H5028 H 0.19512 0.27231 0.42338 0.0
H5029 H 0.1678 0.32638 0.42795 0.0
H5030 H 0.1913 0.33972 0.4055 0.0
H5031 H 0.27213 0.28717 0.31169 0.0
H5032 H 0.2692 0.30832 0.33928 0.0
H5033 H 0.20752 0.30801 0.33258 0.0
H5034 H 0.21057 0.28586 0.30553 0.0
H5035 H 0.21461 0.30073 0.36671 0.0
H5036 H 0.23949 0.35021 0.3263 0.0
H5037 H 0.26193 0.36668 0.30489 0.0
H5038 H 0.30766 0.3598 0.34508 0.0
H5039 H 0.2855 0.34332 0.36671 0.0
C5040 C 0.22785 0.37572 0.43116 0.0
C5041 C 0.23141 0.36594 0.44806 0.0
C5042 C 0.2281 0.36634 0.41356 0.0
C5043 C 0.23182 0.34692 0.41234 0.0
C5044 C 0.23514 0.33697 0.42916 0.0
C5045 C 0.23489 0.34639 0.44688 0.0
C5046 C 0.23282 0.33743 0.39333 0.0
C5047 C 0.24559 0.34471 0.3798 0.0
C5048 C 0.22136 0.32151 0.38841 0.0
C5049 C 0.20702 0.31359 0.40177 0.0
C5050 C 0.20782 0.29447 0.4068 0.0
C5051 C 0.19437 0.28701 0.41947 0.0
C5052 C 0.18 0.29852 0.42713 0.0
C5053 C 0.17899 0.3175 0.42207 0.0
C5054 C 0.19239 0.32502 0.4094 0.0
C5055 C 0.25802 0.29224 0.31571 0.0
C5056 C 0.24158 0.28527 0.30634 0.0
C5057 C 0.25632 0.30436 0.33152 0.0
C5058 C 0.23812 0.31001 0.33808 0.0
C5059 C 0.22173 0.30389 0.32789 0.0
C5060 C 0.22344 0.29146 0.31227 0.0
C5061 C 0.23607 0.32038 0.35664 0.0
C5062 C 0.22322 0.31314 0.37024 0.0
C5063 C 0.24735 0.33649 0.36156 0.0
C5064 C 0.26086 0.34545 0.34806 0.0
C5065 C 0.25438 0.35203 0.33046 0.0
C5066 C 0.26705 0.36143 0.31833 0.0
C5067 C 0.28622 0.36428 0.32365 0.0
C5068 C 0.2928 0.3576 0.34101 0.0
C5069 C 0.2802 0.34828 0.35321 0.0
H5070 H 0.29599 0.37175 0.31444 0.0
H5071 H 0.16961 0.29272 0.43694 0.0
H5072 H 0.29849 0.44054 0.49599 0.0
H5073 H 0.33326 0.4441 0.49845 0.0
H5074 H 0.33712 0.38877 0.52292 0.0
H5075 H 0.30215 0.38524 0.52089 0.0
H5076 H 0.36019 0.41223 0.54129 0.0
H5077 H 0.35096 0.39575 0.47665 0.0
H5078 H 0.33661 0.39668 0.44464 0.0
H5079 H 0.35605 0.454 0.43858 0.0
H5080 H 0.37028 0.45353 0.47067 0.0
H5081 H 0.45793 0.44927 0.49405 0.0
H5082 H 0.43178 0.42586 0.49543 0.0
H5083 H 0.40561 0.45785 0.54124 0.0
H5084 H 0.43167 0.48082 0.54006 0.0
H5085 H 0.39737 0.43486 0.48583 0.0
H5086 H 0.3743 0.434 0.56622 0.0
H5087 H 0.38978 0.43039 0.59744 0.0
H5088 H 0.43733 0.40214 0.57082 0.0
H5089 H 0.42202 0.40529 0.53946 0.0
C5090 C 0.30668 0.42911 0.50192 0.0
C5091 C 0.29748 0.41257 0.50816 0.0
C5092 C 0.32662 0.43111 0.5032 0.0
C5093 C 0.3379 0.41655 0.51052 0.0
C5094 C 0.32875 0.40015 0.51711 0.0
C5095 C 0.30875 0.39817 0.51593 0.0
C5096 C 0.35916 0.41879 0.51152 0.0
C5097 C 0.3684 0.41702 0.52915 0.0
C5098 C 0.37009 0.42423 0.4955 0.0
C5099 C 0.36162 0.42461 0.47613 0.0
C5100 C 0.35208 0.40859 0.46854 0.0
C5101 C 0.34397 0.40904 0.45038 0.0
C5102 C 0.3454 0.4254 0.43959 0.0
C5103 C 0.35496 0.44134 0.44695 0.0
C5104 C 0.36308 0.44098 0.46512 0.0
C5105 C 0.4471 0.45072 0.50503 0.0
C5106 C 0.44674 0.46688 0.51689 0.0
C5107 C 0.43204 0.43745 0.50569 0.0
C5108 C 0.4166 0.44007 0.51839 0.0
C5109 C 0.41739 0.45524 0.5315 0.0
C5110 C 0.43231 0.46846 0.53079 0.0
C5111 C 0.39819 0.42945 0.51589 0.0
C5112 C 0.38939 0.42963 0.49793 0.0
C5113 C 0.38784 0.42213 0.53152 0.0
C5114 C 0.397 0.41995 0.55043 0.0
C5115 C 0.38798 0.42688 0.56701 0.0
C5116 C 0.39675 0.42494 0.58475 0.0
C5117 C 0.41454 0.41606 0.58611 0.0
C5118 C 0.42357 0.40906 0.56974 0.0
C5119 C 0.41487 0.41094 0.55198 0.0
H5120 H 0.42131 0.4146 0.59985 0.0
H5121 H 0.33911 0.42571 0.42553 0.0
H5122 H 0.81211 0.08468 0.49114 0.0
H5123 H 0.84113 0.06552 0.49324 0.0
H5124 H 0.80835 0.02078 0.51908 0.0
H5125 H 0.77935 0.03975 0.5171 0.0
H5126 H 0.84084 0.02843 0.53874 0.0
H5127 H 0.82334 0.01529 0.47431 0.0
H5128 H 0.81409 0.02271 0.44145 0.0
H5129 H 0.86745 0.05245 0.43365 0.0
H5130 H 0.87692 0.04543 0.46656 0.0
H5131 H 0.93224 0.97955 0.49084 0.0
H5132 H 0.89751 0.98271 0.49518 0.0
H5133 H 0.90742 0.02609 0.53802 0.0
H5134 H 0.94194 0.02249 0.53392 0.0
H5135 H 0.88319 0.01352 0.48392 0.0
H5136 H 0.87147 0.03797 0.5616 0.0
H5137 H 0.87523 0.0275 0.59471 0.0
H5138 H 0.8757 0.96962 0.57546 0.0
H5139 H 0.87249 0.97978 0.54221 0.0
C5140 C 0.81103 0.0707 0.4971 0.0
C5141 C 0.79339 0.06379 0.50397 0.0
C5142 C 0.82762 0.05975 0.49825 0.0
C5143 C 0.82687 0.04171 0.50628 0.0
C5144 C 0.80925 0.03468 0.51288 0.0
C5145 C 0.79267 0.04554 0.51165 0.0
C5146 C 0.84459 0.03046 0.50845 0.0
C5147 C 0.8501 0.02508 0.52675 0.0
C5148 C 0.85639 0.02568 0.49277 0.0
C5149 C 0.85077 0.02996 0.47297 0.0
C5150 C 0.83304 0.02355 0.46564 0.0
C5151 C 0.82777 0.02765 0.447 0.0
C5152 C 0.84016 0.03808 0.43548 0.0
C5153 C 0.85786 0.04439 0.44259 0.0
C5154 C 0.8632 0.04033 0.46123 0.0
C5155 C 0.92692 0.98886 0.502 0.0
C5156 C 0.93966 0.00053 0.51232 0.0
C5157 C 0.90708 0.99082 0.50437 0.0
C5158 C 0.89973 0.00476 0.51682 0.0
C5159 C 0.91256 0.015 0.52856 0.0
C5160 C 0.93239 0.01287 0.52632 0.0
C5161 C 0.87975 0.01162 0.51436 0.0
C5162 C 0.87386 0.0165 0.49595 0.0
C5163 C 0.86745 0.01565 0.5299 0.0
C5164 C 0.8718 0.00963 0.54947 0.0
C5165 C 0.87265 0.02302 0.56444 0.0
C5166 C 0.87468 0.01715 0.5832 0.0
C5167 C 0.87554 -0.00209 0.58717 0.0
C5168 C 0.87496 0.98452 0.57235 0.0
C5169 C 0.87328 0.99033 0.55352 0.0
H5170 H 0.87649 0.99337 0.60173 0.0
H5171 H 0.83605 0.04124 0.42105 0.0
H5172 H 0.64473 0.06144 0.26376 0.0
H5173 H 0.65577 0.09435 0.26649 0.0
H5174 H 0.60746 0.11209 0.23307 0.0
H5175 H 0.59626 0.07946 0.23036 0.0
H5176 H 0.6408 0.1239 0.21827 0.0
H5177 H 0.60961 0.12715 0.27698 0.0
H5178 H 0.59906 0.11859 0.30917 0.0
H5179 H 0.65699 0.12418 0.32949 0.0
H5180 H 0.66801 0.13232 0.29731 0.0
H5181 H 0.69353 0.21521 0.26002 0.0
H5182 H 0.66548 0.19396 0.25986 0.0
H5183 H 0.69801 0.15235 0.22825 0.0
H5184 H 0.72578 0.17333 0.22836 0.0
H5185 H 0.6625 0.15963 0.27573 0.0
H5186 H 0.67102 0.12764 0.19875 0.0
H5187 H 0.67863 0.13899 0.16665 0.0
H5188 H 0.66035 0.19479 0.18279 0.0
H5189 H 0.65234 0.18374 0.21491 0.0
C5190 C 0.63629 0.07238 0.25726 0.0
C5191 C 0.61974 0.06774 0.24666 0.0
C5192 C 0.64253 0.0912 0.25895 0.0
C5193 C 0.63239 0.10566 0.25001 0.0
C5194 C 0.61547 0.10116 0.2401 0.0
C5195 C 0.60914 0.08244 0.23854 0.0
C5196 C 0.6408 0.12493 0.24891 0.0
C5197 C 0.64539 0.13179 0.23084 0.0
C5198 C 0.64606 0.13563 0.26529 0.0
C5199 C 0.63968 0.13018 0.28462 0.0
C5200 C 0.62017 0.12627 0.28822 0.0
C5201 C 0.61409 0.12153 0.3065 0.0
C5202 C 0.62735 0.12081 0.32136 0.0
C5203 C 0.64674 0.12475 0.31796 0.0
C5204 C 0.65291 0.12942 0.29969 0.0
C5205 C 0.69453 0.20169 0.25276 0.0
C5206 C 0.71192 0.19593 0.24433 0.0
C5207 C 0.67854 0.18953 0.25273 0.0
C5208 C 0.67961 0.17162 0.24392 0.0
C5209 C 0.69673 0.16621 0.23488 0.0
C5210 C 0.71266 0.17822 0.23505 0.0
C5211 C 0.66363 0.15772 0.24516 0.0
C5212 C 0.65757 0.15189 0.26319 0.0
C5213 C 0.65659 0.14817 0.22874 0.0
C5214 C 0.66113 0.15484 0.2093 0.0
C5215 C 0.66847 0.1423 0.19543 0.0
C5216 C 0.6729 0.1487 0.17723 0.0
C5217 C 0.67 0.16761 0.17269 0.0
C5218 C 0.66263 0.18016 0.18634 0.0
C5219 C 0.65817 0.17384 0.20456 0.0
H5220 H 0.67346 0.17253 0.1586 0.0
H5221 H 0.62259 0.11724 0.33551 0.0
H5222 H 0.65938 0.87975 0.01584 0.0
H5223 H 0.62815 0.89536 0.01488 0.0
H5224 H 0.65652 0.94925 0.00832 0.0
H5225 H 0.68787 0.93378 0.00956 0.0
H5226 H 0.61062 0.92829 0.03587 0.0
H5227 H 0.63356 0.96747 0.9692 0.0
H5228 H 0.65727 0.96486 0.94318 0.0
H5229 H 0.65621 0.9044 0.94743 0.0
H5230 H 0.6323 0.90666 0.97325 0.0
H5231 H 0.547 0.00155 0.00045 0.0
H5232 H 0.57346 0.98285 0.01322 0.0
H5233 H 0.55824 0.9368 0.97511 0.0
H5234 H 0.53152 0.9553 0.96276 0.0
H5235 H 0.59647 0.95238 0.97152 0.0
H5236 H 0.55218 0.9293 0.01817 0.0
H5237 H 0.5284 0.9325 0.04397 0.0
H5238 H 0.57069 0.95979 0.07958 0.0
H5239 H 0.59462 0.95725 0.05383 0.0
C5240 C 0.65897 0.89496 0.01448 0.0
C5241 C 0.67603 0.90555 0.01254 0.0
C5242 C 0.64114 0.90385 0.01414 0.0
C5243 C 0.6401 0.9234 0.01154 0.0
C5244 C 0.6571 0.93413 0.01042 0.0
C5245 C 0.67496 0.92528 0.01104 0.0
C5246 C 0.62139 0.93214 0.00745 0.0
C5247 C 0.60747 0.93364 0.02186 0.0
C5248 C 0.61731 0.93883 0.98909 0.0
C5249 C 0.63133 0.93726 0.97328 0.0
C5250 C 0.63835 0.95363 0.96451 0.0
C5251 C 0.65182 0.95221 0.94981 0.0
C5252 C 0.6583 0.93448 0.9437 0.0
C5253 C 0.65124 0.91812 0.95222 0.0
C5254 C 0.63775 0.91947 0.96691 0.0
C5255 C 0.54866 0.98707 0.99566 0.0
C5256 C 0.53695 0.97957 0.98116 0.0
C5257 C 0.56389 0.97651 0.00274 0.0
C5258 C 0.56761 0.95843 0.99521 0.0
C5259 C 0.55545 0.95068 0.9812 0.0
C5260 C 0.54023 0.9612 0.97421 0.0
C5261 C 0.58562 0.94872 -6e-05 0.0
C5262 C 0.59952 0.94709 0.98559 0.0
C5263 C 0.58953 0.94193 0.01833 0.0
C5264 C 0.57518 0.94327 0.03394 0.0
C5265 C 0.55638 0.93618 0.0314 0.0
C5266 C 0.54286 0.93785 0.04604 0.0
C5267 C 0.54801 0.94638 0.06337 0.0
C5268 C 0.56672 0.95318 0.06614 0.0
C5269 C 0.58026 0.95165 0.05151 0.0
H5270 H 0.53752 0.94768 0.07467 0.0
H5271 H 0.66874 0.93341 0.93234 0.0
H5272 H 0.32765 0.45137 0.24528 0.0
H5273 H 0.31151 0.42157 0.25282 0.0
H5274 H 0.3666 0.39543 0.26145 0.0
H5275 H 0.38267 0.42481 0.25284 0.0
H5276 H 0.34733 0.37296 0.24199 0.0
H5277 H 0.33269 0.40617 0.29899 0.0
H5278 H 0.32124 0.43166 0.32033 0.0
H5279 H 0.26425 0.42518 0.29772 0.0
H5280 H 0.27541 0.39985 0.27601 0.0
H5281 H 0.30023 0.28761 0.25909 0.0
H5282 H 0.31742 0.31588 0.27083 0.0
H5283 H 0.27118 0.35075 0.25117 0.0
H5284 H 0.25424 0.32264 0.23941 0.0
H5285 H 0.28865 0.36702 0.2814 0.0
H5286 H 0.30713 0.33645 0.22166 0.0
H5287 H 0.31902 0.30927 0.20281 0.0
H5288 H 0.37129 0.30976 0.23522 0.0
H5289 H 0.35964 0.33694 0.25428 0.0
C5290 C 0.33626 0.43927 0.24891 0.0
C5291 C 0.3564 0.44035 0.2483 0.0
C5292 C 0.32704 0.42226 0.25342 0.0
C5293 C 0.33778 0.40617 0.25798 0.0
C5294 C 0.35792 0.40751 0.25792 0.0
C5295 C 0.36711 0.42434 0.25297 0.0
C5296 C 0.32815 0.38759 0.26126 0.0
C5297 C 0.33488 0.37164 0.25117 0.0
C5298 C 0.3117 0.38568 0.27299 0.0
C5299 C 0.30496 0.40124 0.28569 0.0
C5300 C 0.31777 0.41032 0.2984 0.0
C5301 C 0.31131 0.42472 0.31061 0.0
C5302 C 0.29205 0.43008 0.31034 0.0
C5303 C 0.27918 0.42104 0.29788 0.0
C5304 C 0.28556 0.40666 0.28562 0.0
C5305 C 0.29337 0.30122 0.25823 0.0
C5306 C 0.27604 0.30308 0.24835 0.0
C5307 C 0.30323 0.31738 0.26481 0.0
C5308 C 0.29577 0.33546 0.26148 0.0
C5309 C 0.27728 0.337 0.25381 0.0
C5310 C 0.26757 0.32093 0.24714 0.0
C5311 C 0.3081 0.35264 0.2626 0.0
C5312 C 0.30168 0.36835 0.2731 0.0
C5313 C 0.32509 0.35427 0.25166 0.0
C5314 C 0.33236 0.33845 0.23965 0.0
C5315 C 0.32112 0.3307 0.22482 0.0
C5316 C 0.32782 0.31532 0.21407 0.0
C5317 C 0.34585 0.30772 0.21788 0.0
C5318 C 0.35729 0.3156 0.23234 0.0
C5319 C 0.35064 0.33099 0.24312 0.0
H5320 H 0.351 0.29579 0.20957 0.0
H5321 H 0.28707 0.4412 0.31983 0.0
H5322 H 0.19937 0.59673 0.97845 0.0
H5323 H 0.16665 0.58496 0.98243 0.0
H5324 H 0.14899 0.63977 0.00338 0.0
H5325 H 0.18192 0.65164 -0.0003 0.0
H5326 H 0.13622 0.61228 0.02612 0.0
H5327 H 0.13302 0.62433 0.95975 0.0
H5328 H 0.1436 0.62391 0.92627 0.0
H5329 H 0.14276 0.56322 0.9256 0.0
H5330 H 0.13239 0.56329 0.95915 0.0
H5331 H 0.04379 0.55588 0.99033 0.0
H5332 H 0.06626 0.58251 0.98941 0.0
H5333 H 0.1022 0.55519 0.03049 0.0
H5334 H 0.0794 0.52878 0.03178 0.0
H5335 H 0.10148 0.57571 0.97601 0.0
H5336 H 0.13122 0.5879 0.05241 0.0
H5337 H 0.11902 0.58947 0.08532 0.0
H5338 H 0.06343 0.60538 0.06493 0.0
H5339 H 0.07535 0.60419 0.03192 0.0
C5340 C 0.1885 0.60637 0.98366 0.0
C5341 C 0.19323 0.6251 0.98879 0.0
C5342 C 0.16977 0.59964 0.98587 0.0
C5343 C 0.15535 0.61154 0.99306 0.0
C5344 C 0.15991 0.63038 -0.00221 0.0
C5345 C 0.1787 0.63714 0.9956 0.0
C5346 C 0.13585 0.60381 0.99654 0.0
C5347 C 0.1284 0.60456 0.0151 0.0
C5348 C 0.12556 0.59399 0.9821 0.0
C5349 C 0.13203 0.59383 0.96199 0.0
C5350 C 0.13524 0.6109 0.95251 0.0
C5351 C 0.14116 0.61072 0.93351 0.0
C5352 C 0.14387 0.59355 0.92382 0.0
C5353 C 0.14067 0.57651 0.93312 0.0
C5354 C 0.13475 0.57661 0.95212 0.0
C5355 C 0.05585 0.5561 -1e-05 0.0
C5356 C 0.05969 0.54045 0.01134 0.0
C5357 C 0.06885 0.57119 -0.00075 0.0
C5358 C 0.08588 0.57084 0.0099 0.0
C5359 C 0.08902 0.55589 0.02236 0.0
C5360 C 0.07603 0.54077 0.02304 0.0
C5361 C 0.10179 0.58409 0.00556 0.0
C5362 C 0.10882 0.58407 0.98687 0.0
C5363 C 0.11141 0.59484 0.0198 0.0
C5364 C 0.10417 0.59584 0.03966 0.0
C5365 C 0.11642 0.59185 0.05494 0.0
C5366 C 0.10955 0.59265 0.07362 0.0
C5367 C 0.09045 0.59748 0.07721 0.0
C5368 C 0.0782 0.60158 0.06213 0.0
C5369 C 0.08501 0.60082 0.04342 0.0
H5370 H 0.08515 0.59808 0.09168 0.0
H5371 H 0.14844 0.59344 0.90911 0.0
H5372 H 0.63491 0.93394 0.25363 0.0
H5373 H 0.65528 0.90647 0.2571 0.0
H5374 H 0.70568 0.94233 0.25664 0.0
H5375 H 0.6852 0.97016 0.25281 0.0
H5376 H 0.7104 0.91089 0.23418 0.0
H5377 H 0.69108 0.92358 0.29798 0.0
H5378 H 0.66846 0.93089 0.32403 0.0
H5379 H 0.63834 0.87865 0.31307 0.0
H5380 H 0.66061 0.87115 0.28677 0.0
H5381 H 0.73662 0.81787 0.29094 0.0
H5382 H 0.72932 0.85156 0.28946 0.0
H5383 H 0.71519 0.8447 0.2299 0.0
H5384 H 0.72395 0.8113 0.23126 0.0
H5385 H 0.69731 0.86514 0.28533 0.0
H5386 H 0.71261 0.88535 0.20707 0.0
H5387 H 0.73671 0.87929 0.18204 0.0
H5388 H 0.77905 0.86765 0.22452 0.0
H5389 H 0.75527 0.87384 0.24985 0.0
C5390 C 0.65032 0.93609 0.25439 0.0
C5391 C 0.65842 0.95429 0.25304 0.0
C5392 C 0.66196 0.92033 0.25642 0.0
C5393 C 0.68199 0.92234 0.25735 0.0
C5394 C 0.69023 0.94047 0.256 0.0
C5395 C 0.67852 0.95635 0.25393 0.0
C5396 C 0.69408 0.9053 0.2595 0.0
C5397 C 0.70775 0.90093 0.24545 0.0
C5398 C 0.69084 0.89249 0.2744 0.0
C5399 C 0.67747 0.89686 0.29032 0.0
C5400 C 0.67956 0.9137 0.30105 0.0
C5401 C 0.66681 0.91787 0.31587 0.0
C5402 C 0.65196 0.90526 0.32018 0.0
C5403 C 0.64985 0.88842 0.30971 0.0
C5404 C 0.66256 0.88418 0.29486 0.0
C5405 C 0.73261 0.82381 0.27742 0.0
C5406 C 0.73093 0.81221 0.26115 0.0
C5407 C 0.72829 0.84301 0.27658 0.0
C5408 C 0.72164 0.85086 0.25958 0.0
C5409 C 0.7207 0.83928 0.24311 0.0
C5410 C 0.7256 0.82016 0.24385 0.0
C5411 C 0.71358 0.87033 0.25977 0.0
C5412 C 0.70044 0.87516 0.27422 0.0
C5413 C 0.71765 0.88366 0.24544 0.0
C5414 C 0.73212 0.88 0.23035 0.0
C5415 C 0.72709 0.8816 0.21108 0.0
C5416 C 0.74068 0.8781 0.19684 0.0
C5417 C 0.75939 0.8731 0.2017 0.0
C5418 C 0.76454 0.8715 0.2208 0.0
C5419 C 0.751 0.87498 0.2351 0.0
H5420 H 0.7699 0.87057 0.19066 0.0
H5421 H 0.6421 0.90852 0.33166 0.0
H5422 H 0.87141 0.06665 0.74526 0.0
H5423 H 0.85592 0.09731 0.74279 0.0
H5424 H 0.80031 0.0703 0.74684 0.0
H5425 H 0.81577 0.03941 0.74871 0.0
H5426 H 0.79973 0.09602 0.72005 0.0
H5427 H 0.82182 0.09498 0.78502 0.0
H5428 H 0.84573 0.09185 0.81061 0.0
H5429 H 0.87831 0.13818 0.78812 0.0
H5430 H 0.8547 0.14143 0.76224 0.0
H5431 H 0.74067 0.1677 0.75723 0.0
H5432 H 0.75951 0.14108 0.74565 0.0
H5433 H 0.80958 0.17725 0.74214 0.0
H5434 H 0.79052 0.20389 0.75436 0.0
H5435 H 0.81619 0.14888 0.76441 0.0
H5436 H 0.7926 0.15113 0.7003 0.0
H5437 H 0.76906 0.15304 0.67417 0.0
H5438 H 0.73848 0.10516 0.69579 0.0
H5439 H 0.76207 0.10256 0.72177 0.0
C5440 C 0.85588 0.06722 0.74577 0.0
C5441 C 0.84482 0.05058 0.74733 0.0
C5442 C 0.84703 0.0848 0.74437 0.0
C5443 C 0.82693 0.0862 0.74484 0.0
C5444 C 0.81584 0.0696 0.74642 0.0
C5445 C 0.82469 0.05196 0.74762 0.0
C5446 C 0.81745 0.10494 0.7437 0.0
C5447 C 0.80323 0.10755 0.72985 0.0
C5448 C 0.82244 0.12024 0.75601 0.0
C5449 C 0.83662 0.1183 0.77157 0.0
C5450 C 0.83417 0.1044 0.78545 0.0
C5451 C 0.84765 0.10262 0.80002 0.0
C5452 C 0.86356 0.11476 0.80095 0.0
C5453 C 0.866 0.12875 0.78735 0.0
C5454 C 0.85257 0.13058 0.77274 0.0
C5455 C 0.75551 0.17013 0.75324 0.0
C5456 C 0.76418 0.18788 0.75647 0.0
C5457 C 0.76629 0.1549 0.74648 0.0
C5458 C 0.78602 0.15708 0.74287 0.0
C5459 C 0.79435 0.17522 0.74468 0.0
C5460 C 0.78346 0.19053 0.7514 0.0
C5461 C 0.79821 0.13995 0.74093 0.0
C5462 C 0.81293 0.13755 0.75431 0.0
C5463 C 0.7936 0.12484 0.72826 0.0
C5464 C 0.77903 0.12674 0.71305 0.0
C5465 C 0.78078 0.14109 0.69957 0.0
C5466 C 0.76748 0.14226 0.68475 0.0
C5467 C 0.75221 0.12939 0.68343 0.0
C5468 C 0.75029 0.11516 0.69684 0.0
C5469 C 0.7637 0.11373 0.71154 0.0
H5470 H 0.74194 0.1304 0.67196 0.0
H5471 H 0.87398 0.11336 0.81225 0.0
loop_
_geom_bond_atom_site_label_1
_geom_bond_atom_site_label_2
_geom_bond_distance
_geom_bond_site_symmetry_2
_ccdc_geom_bond_type
C0 O1 1.306 . S
C0 O3 1.160 . S
O1 C0 1.306 . S
O1 Cd2 2.228 1_655 S
Cd2 O1 2.228 1_455 S
Cd2 O6 2.273 . S
Cd2 O10 2.277 . S
O3 C0 1.160 . S
O3 Cd4 2.203 1_655 S
Cd4 O3 2.203 1_455 S
Cd4 O6 2.411 . S
Cd4 O7 2.333 . S
Cd4 O8 2.352 . S
Cd4 O12 2.277 . S
Cd4 O13 2.356 . S
C5 O10 1.209 . S
C5 O12 1.226 . S
O6 Cd2 2.273 . S
O6 Cd4 2.411 . S
O6 C9 1.320 . S
O7 Cd4 2.333 . S
O7 C9 1.214 . S
O8 Cd4 2.352 . S
O8 C11 1.258 . S
C9 O6 1.320 . S
C9 O7 1.214 . S
O10 Cd2 2.277 . S
O10 C5 1.209 . S
C11 O8 1.258 . S
C11 O13 1.282 . S
O12 Cd4 2.277 . S
O12 C5 1.226 . S
O13 Cd4 2.356 . S
O13 C11 1.282 . S
C14 O15 1.306 . S
C14 O17 1.160 . S
O15 C14 1.306 . S
O15 Cd16 2.228 1_655 S
Cd16 O15 2.228 1_455 S
Cd16 O20 2.273 . S
Cd16 O24 2.277 . S
O17 C14 1.160 . S
O17 Cd18 2.203 1_655 S
Cd18 O17 2.203 1_455 S
Cd18 O20 2.411 . S
Cd18 O21 2.333 . S
Cd18 O22 2.352 . S
Cd18 O26 2.277 . S
Cd18 O27 2.356 . S
C19 O24 1.209 . S
C19 O26 1.226 . S
O20 Cd16 2.273 . S
O20 Cd18 2.411 . S
O20 C23 1.320 . S
O21 Cd18 2.333 . S
O21 C23 1.214 . S
O22 Cd18 2.352 . S
O22 C25 1.258 . S
C23 O20 1.320 . S
C23 O21 1.214 . S
O24 Cd16 2.277 . S
O24 C19 1.209 . S
C25 O22 1.258 . S
C25 O27 1.282 . S
O26 Cd18 2.277 . S
O26 C19 1.226 . S
O27 Cd18 2.356 . S
O27 C25 1.282 . S
C28 O29 1.306 . S
C28 O31 1.160 . S
O29 C28 1.306 . S
O29 Cd30 2.228 . S
Cd30 O29 2.228 . S
Cd30 O34 2.273 . S
Cd30 O38 2.277 . S
O31 C28 1.160 . S
O31 Cd32 2.203 . S
Cd32 O31 2.203 . S
Cd32 O34 2.411 . S
Cd32 O35 2.333 . S
Cd32 O36 2.352 . S
Cd32 O40 2.277 . S
Cd32 O41 2.356 . S
C33 O38 1.209 . S
C33 O40 1.226 . S
O34 Cd30 2.273 . S
O34 Cd32 2.411 . S
O34 C37 1.320 . S
O35 Cd32 2.333 . S
O35 C37 1.214 . S
O36 Cd32 2.352 . S
O36 C39 1.258 . S
C37 O34 1.320 . S
C37 O35 1.214 . S
O38 Cd30 2.277 . S
O38 C33 1.209 . S
C39 O36 1.258 . S
C39 O41 1.282 . S
O40 Cd32 2.277 . S
O40 C33 1.226 . S
O41 Cd32 2.356 . S
O41 C39 1.282 . S
C42 O43 1.306 . S
C42 O45 1.160 . S
O43 C42 1.306 . S
O43 Cd44 2.228 . S
Cd44 O43 2.228 . S
Cd44 O48 2.273 . S
Cd44 O52 2.277 . S
O45 C42 1.160 . S
O45 Cd46 2.203 . S
Cd46 O45 2.203 . S
Cd46 O48 2.411 . S
Cd46 O49 2.333 . S
Cd46 O50 2.352 . S
Cd46 O54 2.277 . S
Cd46 O55 2.356 . S
C47 O52 1.209 . S
C47 O54 1.226 . S
O48 Cd44 2.273 . S
O48 Cd46 2.411 . S
O48 C51 1.320 . S
O49 Cd46 2.333 . S
O49 C51 1.214 . S
O50 Cd46 2.352 . S
O50 C53 1.258 . S
C51 O48 1.320 . S
C51 O49 1.214 . S
O52 Cd44 2.277 . S
O52 C47 1.209 . S
C53 O50 1.258 . S
C53 O55 1.282 . S
O54 Cd46 2.277 . S
O54 C47 1.226 . S
O55 Cd46 2.356 . S
O55 C53 1.282 . S
C56 O57 1.306 . S
C56 O59 1.158 1_545 S
O57 C56 1.306 . S
O57 Cd58 2.228 . S
Cd58 O57 2.228 . S
Cd58 O62 2.273 . S
Cd58 O66 2.277 . S
O59 C56 1.158 1_565 S
O59 Cd60 2.203 . S
Cd60 O59 2.203 . S
Cd60 O62 2.411 1_565 S
Cd60 O63 2.333 . S
Cd60 O64 2.352 . S
Cd60 O68 2.277 1_565 S
Cd60 O69 2.356 . S
C61 O66 1.209 . S
C61 O68 1.226 . S
O62 Cd58 2.273 . S
O62 Cd60 2.411 1_545 S
O62 C65 1.320 . S
O63 Cd60 2.333 . S
O63 C65 1.214 1_565 S
O64 Cd60 2.352 . S
O64 C67 1.258 . S
C65 O62 1.320 . S
C65 O63 1.214 1_545 S
O66 Cd58 2.277 . S
O66 C61 1.209 . S
C67 O64 1.258 . S
C67 O69 1.282 . S
O68 Cd60 2.277 1_545 S
O68 C61 1.226 . S
O69 Cd60 2.356 . S
O69 C67 1.282 . S
C70 O71 1.306 . S
C70 O73 1.160 . S
O71 C70 1.306 . S
O71 Cd72 2.228 . S
Cd72 O71 2.228 . S
Cd72 O76 2.273 . S
Cd72 O80 2.277 . S
O73 C70 1.160 . S
O73 Cd74 2.203 . S
Cd74 O73 2.203 . S
Cd74 O76 2.411 . S
Cd74 O77 2.333 . S
Cd74 O78 2.352 . S
Cd74 O82 2.277 . S
Cd74 O83 2.356 . S
C75 O80 1.209 . S
C75 O82 1.226 . S
O76 Cd72 2.273 . S
O76 Cd74 2.411 . S
O76 C79 1.320 . S
O77 Cd74 2.333 . S
O77 C79 1.214 . S
O78 Cd74 2.352 . S
O78 C81 1.258 . S
C79 O76 1.320 . S
C79 O77 1.214 . S
O80 Cd72 2.277 . S
O80 C75 1.209 . S
C81 O78 1.258 . S
C81 O83 1.282 . S
O82 Cd74 2.277 . S
O82 C75 1.226 . S
O83 Cd74 2.356 . S
O83 C81 1.282 . S
C84 O85 1.306 1_545 S
C84 O87 1.160 . S
O85 C84 1.306 1_565 S
O85 Cd86 2.228 . S
Cd86 O85 2.228 . S
Cd86 O90 2.273 1_565 S
Cd86 O94 2.277 . S
O87 C84 1.160 . S
O87 Cd88 2.203 . S
Cd88 O87 2.203 . S
Cd88 O90 2.411 . S
Cd88 O91 2.333 . S
Cd88 O92 2.352 . S
Cd88 O96 2.277 1_545 S
Cd88 O97 2.356 . S
C89 O94 1.209 . S
C89 O96 1.226 . S
O90 Cd86 2.273 1_545 S
O90 Cd88 2.411 . S
O90 C93 1.320 . S
O91 Cd88 2.333 . S
O91 C93 1.214 . S
O92 Cd88 2.352 . S
O92 C95 1.258 . S
C93 O90 1.320 . S
C93 O91 1.214 . S
O94 Cd86 2.277 . S
O94 C89 1.209 . S
C95 O92 1.258 . S
C95 O97 1.282 . S
O96 Cd88 2.277 1_565 S
O96 C89 1.226 . S
O97 Cd88 2.356 . S
O97 C95 1.282 . S
C98 O99 1.306 . S
C98 O101 1.160 . S
O99 C98 1.306 . S
O99 Cd100 2.228 . S
Cd100 O99 2.228 . S
Cd100 O104 2.273 . S
Cd100 O108 2.277 . S
O101 C98 1.160 . S
O101 Cd102 2.206 . S
Cd102 O101 2.206 . S
Cd102 O104 2.418 . S
Cd102 O105 2.333 . S
Cd102 O106 2.304 1_554 S
Cd102 O110 2.315 . S
Cd102 O111 2.325 1_554 S
C103 O108 1.209 . S
C103 O110 1.226 . S
O104 Cd100 2.273 . S
O104 Cd102 2.418 . S
O104 C107 1.320 . S
O105 Cd102 2.333 . S
O105 C107 1.223 . S
O106 Cd102 2.304 1_556 S
O106 C109 1.258 . S
C107 O104 1.320 . S
C107 O105 1.223 . S
O108 Cd100 2.277 . S
O108 C103 1.209 . S
C109 O106 1.258 . S
C109 O111 1.282 . S
O110 Cd102 2.315 . S
O110 C103 1.226 . S
O111 Cd102 2.325 1_556 S
O111 C109 1.282 . S
C112 O113 1.306 1_554 S
C112 O115 1.160 . S
O113 C112 1.306 1_556 S
O113 Cd114 2.228 . S
Cd114 O113 2.228 . S
Cd114 O118 2.273 1_556 S
Cd114 O122 2.277 . S
O115 C112 1.160 . S
O115 Cd116 2.203 . S
Cd116 O115 2.203 . S
Cd116 O118 2.411 . S
Cd116 O119 2.333 . S
Cd116 O120 2.352 . S
Cd116 O124 2.277 1_554 S
Cd116 O125 2.356 . S
C117 O122 1.209 . S
C117 O124 1.226 . S
O118 Cd114 2.273 1_554 S
O118 Cd116 2.411 . S
O118 C121 1.320 . S
O119 Cd116 2.333 . S
O119 C121 1.214 . S
O120 Cd116 2.352 . S
O120 C123 1.258 . S
C121 O118 1.320 . S
C121 O119 1.214 . S
O122 Cd114 2.277 . S
O122 C117 1.209 . S
C123 O120 1.258 . S
C123 O125 1.282 . S
O124 Cd116 2.277 1_556 S
O124 C117 1.226 . S
O125 Cd116 2.356 . S
O125 C123 1.282 . S
C126 O127 1.306 . S
C126 O129 1.160 . S
O127 C126 1.306 . S
O127 Cd128 2.228 . S
Cd128 O127 2.228 . S
Cd128 O132 2.273 . S
Cd128 O136 2.277 . S
O129 C126 1.160 . S
O129 Cd130 2.203 . S
Cd130 O129 2.203 . S
Cd130 O132 2.411 . S
Cd130 O133 2.333 . S
Cd130 O134 2.352 . S
Cd130 O138 2.277 . S
Cd130 O139 2.356 . S
C131 O136 1.209 . S
C131 O138 1.226 . S
O132 Cd128 2.273 . S
O132 Cd130 2.411 . S
O132 C135 1.320 . S
O133 Cd130 2.333 . S
O133 C135 1.214 . S
O134 Cd130 2.352 . S
O134 C137 1.258 . S
C135 O132 1.320 . S
C135 O133 1.214 . S
O136 Cd128 2.277 . S
O136 C131 1.209 . S
C137 O134 1.258 . S
C137 O139 1.282 . S
O138 Cd130 2.277 . S
O138 C131 1.226 . S
O139 Cd130 2.356 . S
O139 C137 1.282 . S
C140 O141 1.306 . S
C140 O143 1.160 . S
O141 C140 1.306 . S
O141 Cd142 2.228 . S
Cd142 O141 2.228 . S
Cd142 O146 2.273 . S
Cd142 O150 2.277 . S
O143 C140 1.160 . S
O143 Cd144 2.203 . S
Cd144 O143 2.203 . S
Cd144 O146 2.411 . S
Cd144 O147 2.333 . S
Cd144 O148 2.352 . S
Cd144 O152 2.277 . S
Cd144 O153 2.356 . S
C145 O150 1.209 . S
C145 O152 1.226 . S
O146 Cd142 2.273 . S
O146 Cd144 2.411 . S
O146 C149 1.320 . S
O147 Cd144 2.333 . S
O147 C149 1.214 . S
O148 Cd144 2.352 . S
O148 C151 1.258 . S
C149 O146 1.320 . S
C149 O147 1.214 . S
O150 Cd142 2.277 . S
O150 C145 1.209 . S
C151 O148 1.258 . S
C151 O153 1.282 . S
O152 Cd144 2.277 . S
O152 C145 1.226 . S
O153 Cd144 2.356 . S
O153 C151 1.282 . S
C154 O155 1.306 . S
C154 O157 1.160 . S
O155 C154 1.306 . S
O155 Cd156 2.228 . S
Cd156 O155 2.228 . S
Cd156 O160 2.273 . S
Cd156 O164 2.277 . S
O157 C154 1.160 . S
O157 Cd158 2.203 . S
Cd158 O157 2.203 . S
Cd158 O160 2.411 . S
Cd158 O161 2.333 . S
Cd158 O162 2.352 . S
Cd158 O166 2.277 . S
Cd158 O167 2.356 . S
C159 O164 1.209 . S
C159 O166 1.226 . S
O160 Cd156 2.273 . S
O160 Cd158 2.411 . S
O160 C163 1.320 . S
O161 Cd158 2.333 . S
O161 C163 1.214 . S
O162 Cd158 2.352 . S
O162 C165 1.258 . S
C163 O160 1.320 . S
C163 O161 1.214 . S
O164 Cd156 2.277 . S
O164 C159 1.209 . S
C165 O162 1.258 . S
C165 O167 1.282 . S
O166 Cd158 2.277 . S
O166 C159 1.226 . S
O167 Cd158 2.356 . S
O167 C165 1.282 . S
C168 O169 1.306 . S
C168 O171 1.160 . S
O169 C168 1.306 . S
O169 Cd170 2.228 1_655 S
Cd170 O169 2.228 1_455 S
Cd170 O174 2.273 . S
Cd170 O178 2.277 . S
O171 C168 1.160 . S
O171 Cd172 2.203 1_655 S
Cd172 O171 2.203 1_455 S
Cd172 O174 2.411 . S
Cd172 O175 2.333 . S
Cd172 O176 2.352 . S
Cd172 O180 2.277 . S
Cd172 O181 2.356 . S
C173 O178 1.209 . S
C173 O180 1.226 . S
O174 Cd170 2.273 . S
O174 Cd172 2.411 . S
O174 C177 1.320 . S
O175 Cd172 2.333 . S
O175 C177 1.214 . S
O176 Cd172 2.352 . S
O176 C179 1.258 . S
C177 O174 1.320 . S
C177 O175 1.214 . S
O178 Cd170 2.277 . S
O178 C173 1.209 . S
C179 O176 1.258 . S
C179 O181 1.282 . S
O180 Cd172 2.277 . S
O180 C173 1.226 . S
O181 Cd172 2.356 . S
O181 C179 1.282 . S
C182 O183 1.306 . S
C182 O185 1.160 . S
O183 C182 1.306 . S
O183 Cd184 2.228 1_655 S
Cd184 O183 2.228 1_455 S
Cd184 O188 2.273 . S
Cd184 O192 2.277 . S
O185 C182 1.160 . S
O185 Cd186 2.203 1_655 S
Cd186 O185 2.203 1_455 S
Cd186 O188 2.411 . S
Cd186 O189 2.333 . S
Cd186 O190 2.352 . S
Cd186 O194 2.277 . S
Cd186 O195 2.356 . S
C187 O192 1.209 . S
C187 O194 1.226 . S
O188 Cd184 2.273 . S
O188 Cd186 2.411 . S
O188 C191 1.320 . S
O189 Cd186 2.333 . S
O189 C191 1.214 . S
O190 Cd186 2.352 . S
O190 C193 1.258 . S
C191 O188 1.320 . S
C191 O189 1.214 . S
O192 Cd184 2.277 . S
O192 C187 1.209 . S
C193 O190 1.258 . S
C193 O195 1.282 . S
O194 Cd186 2.277 . S
O194 C187 1.226 . S
O195 Cd186 2.356 . S
O195 C193 1.282 . S
C196 O197 1.306 . S
C196 O199 1.160 . S
O197 C196 1.306 . S
O197 Cd198 2.228 . S
Cd198 O197 2.228 . S
Cd198 O202 2.273 . S
Cd198 O206 2.277 . S
O199 C196 1.160 . S
O199 Cd200 2.203 . S
Cd200 O199 2.203 . S
Cd200 O202 2.411 . S
Cd200 O203 2.333 . S
Cd200 O204 2.352 . S
Cd200 O208 2.277 . S
Cd200 O209 2.356 . S
C201 O206 1.209 . S
C201 O208 1.226 . S
O202 Cd198 2.273 . S
O202 Cd200 2.411 . S
O202 C205 1.320 . S
O203 Cd200 2.333 . S
O203 C205 1.214 . S
O204 Cd200 2.352 . S
O204 C207 1.258 . S
C205 O202 1.320 . S
C205 O203 1.214 . S
O206 Cd198 2.277 . S
O206 C201 1.209 . S
C207 O204 1.258 . S
C207 O209 1.282 . S
O208 Cd200 2.277 . S
O208 C201 1.226 . S
O209 Cd200 2.356 . S
O209 C207 1.282 . S
C210 O211 1.306 . S
C210 O213 1.160 . S
O211 C210 1.306 . S
O211 Cd212 2.228 . S
Cd212 O211 2.228 . S
Cd212 O216 2.273 . S
Cd212 O220 2.277 . S
O213 C210 1.160 . S
O213 Cd214 2.203 . S
Cd214 O213 2.203 . S
Cd214 O216 2.411 . S
Cd214 O217 2.333 . S
Cd214 O218 2.352 . S
Cd214 O222 2.277 . S
Cd214 O223 2.356 . S
C215 O220 1.209 . S
C215 O222 1.226 . S
O216 Cd212 2.273 . S
O216 Cd214 2.411 . S
O216 C219 1.320 . S
O217 Cd214 2.333 . S
O217 C219 1.214 . S
O218 Cd214 2.352 . S
O218 C221 1.258 . S
C219 O216 1.320 . S
C219 O217 1.214 . S
O220 Cd212 2.277 . S
O220 C215 1.209 . S
C221 O218 1.258 . S
C221 O223 1.282 . S
O222 Cd214 2.277 . S
O222 C215 1.226 . S
O223 Cd214 2.356 . S
O223 C221 1.282 . S
C224 O225 1.330 . S
C224 O227 1.144 1_565 S
O225 C224 1.330 . S
O225 Cd226 2.228 . S
Cd226 O225 2.228 . S
Cd226 O230 2.261 1_565 S
Cd226 O234 2.277 . S
O227 C224 1.144 1_545 S
O227 Cd228 2.203 . S
Cd228 O227 2.203 . S
Cd228 O230 2.413 . S
Cd228 O231 2.333 . S
Cd228 O232 2.352 . S
Cd228 O236 2.277 1_545 S
Cd228 O237 2.356 . S
C229 O234 1.209 . S
C229 O236 1.226 . S
O230 Cd226 2.261 1_545 S
O230 Cd228 2.413 . S
O230 C233 1.322 . S
O231 Cd228 2.333 . S
O231 C233 1.214 . S
O232 Cd228 2.352 . S
O232 C235 1.258 . S
C233 O230 1.322 . S
C233 O231 1.214 . S
O234 Cd226 2.277 . S
O234 C229 1.209 . S
C235 O232 1.258 . S
C235 O237 1.282 . S
O236 Cd228 2.277 1_565 S
O236 C229 1.226 . S
O237 Cd228 2.356 . S
O237 C235 1.282 . S
C238 O239 1.306 . S
C238 O241 1.160 . S
O239 C238 1.306 . S
O239 Cd240 2.228 . S
Cd240 O239 2.228 . S
Cd240 O244 2.273 . S
Cd240 O248 2.277 . S
O241 C238 1.160 . S
O241 Cd242 2.203 . S
Cd242 O241 2.203 . S
Cd242 O244 2.411 . S
Cd242 O245 2.333 . S
Cd242 O246 2.352 . S
Cd242 O250 2.277 . S
Cd242 O251 2.356 . S
C243 O248 1.209 . S
C243 O250 1.226 . S
O244 Cd240 2.273 . S
O244 Cd242 2.411 . S
O244 C247 1.320 . S
O245 Cd242 2.333 . S
O245 C247 1.214 . S
O246 Cd242 2.352 . S
O246 C249 1.258 . S
C247 O244 1.320 . S
C247 O245 1.214 . S
O248 Cd240 2.277 . S
O248 C243 1.209 . S
C249 O246 1.258 . S
C249 O251 1.282 . S
O250 Cd242 2.277 . S
O250 C243 1.226 . S
O251 Cd242 2.356 . S
O251 C249 1.282 . S
C252 O253 1.306 . S
C252 O255 1.160 . S
O253 C252 1.306 . S
O253 Cd254 2.228 . S
Cd254 O253 2.228 . S
Cd254 O258 2.273 . S
Cd254 O262 2.277 . S
O255 C252 1.160 . S
O255 Cd256 2.203 . S
Cd256 O255 2.203 . S
Cd256 O258 2.411 . S
Cd256 O259 2.333 . S
Cd256 O260 2.352 1_545 S
Cd256 O264 2.277 . S
Cd256 O265 2.356 1_545 S
C257 O262 1.209 . S
C257 O264 1.226 . S
O258 Cd254 2.273 . S
O258 Cd256 2.411 . S
O258 C261 1.320 . S
O259 Cd256 2.333 . S
O259 C261 1.220 . S
O260 Cd256 2.352 1_565 S
O260 C263 1.258 . S
C261 O258 1.320 . S
C261 O259 1.220 . S
O262 Cd254 2.277 . S
O262 C257 1.209 . S
C263 O260 1.258 . S
C263 O265 1.282 . S
O264 Cd256 2.277 . S
O264 C257 1.226 . S
O265 Cd256 2.356 1_565 S
O265 C263 1.282 . S
C266 O267 1.306 1_554 S
C266 O269 1.160 . S
O267 C266 1.306 1_556 S
O267 Cd268 2.228 . S
Cd268 O267 2.228 . S
Cd268 O272 2.273 1_556 S
Cd268 O276 2.277 . S
O269 C266 1.160 . S
O269 Cd270 2.203 . S
Cd270 O269 2.203 . S
Cd270 O272 2.411 . S
Cd270 O273 2.333 . S
Cd270 O274 2.352 . S
Cd270 O278 2.277 1_554 S
Cd270 O279 2.356 . S
C271 O276 1.209 . S
C271 O278 1.226 . S
O272 Cd268 2.273 1_554 S
O272 Cd270 2.411 . S
O272 C275 1.320 . S
O273 Cd270 2.333 . S
O273 C275 1.214 . S
O274 Cd270 2.352 . S
O274 C277 1.258 . S
C275 O272 1.320 . S
C275 O273 1.214 . S
O276 Cd268 2.277 . S
O276 C271 1.209 . S
C277 O274 1.258 . S
C277 O279 1.282 . S
O278 Cd270 2.277 1_556 S
O278 C271 1.226 . S
O279 Cd270 2.356 . S
O279 C277 1.282 . S
C280 O281 1.306 . S
C280 O283 1.160 1_554 S
O281 C280 1.306 . S
O281 Cd282 2.228 . S
Cd282 O281 2.228 . S
Cd282 O286 2.273 . S
Cd282 O290 2.277 . S
O283 C280 1.160 1_556 S
O283 Cd284 2.203 . S
Cd284 O283 2.203 . S
Cd284 O286 2.411 1_556 S
Cd284 O287 2.333 . S
Cd284 O288 2.352 . S
Cd284 O292 2.277 1_556 S
Cd284 O293 2.356 . S
C285 O290 1.209 . S
C285 O292 1.226 . S
O286 Cd282 2.273 . S
O286 Cd284 2.411 1_554 S
O286 C289 1.322 . S
O287 Cd284 2.333 . S
O287 C289 1.211 1_556 S
O288 Cd284 2.352 . S
O288 C291 1.258 . S
C289 O286 1.322 . S
C289 O287 1.211 1_554 S
O290 Cd282 2.277 . S
O290 C285 1.209 . S
C291 O288 1.258 . S
C291 O293 1.282 . S
O292 Cd284 2.277 1_554 S
O292 C285 1.226 . S
O293 Cd284 2.356 . S
O293 C291 1.282 . S
C294 O295 1.306 . S
C294 O297 1.160 . S
O295 C294 1.306 . S
O295 Cd296 2.228 . S
Cd296 O295 2.228 . S
Cd296 O300 2.273 . S
Cd296 O304 2.277 . S
O297 C294 1.160 . S
O297 Cd298 2.203 . S
Cd298 O297 2.203 . S
Cd298 O300 2.411 . S
Cd298 O301 2.333 . S
Cd298 O302 2.352 . S
Cd298 O306 2.277 . S
Cd298 O307 2.356 . S
C299 O304 1.209 . S
C299 O306 1.226 . S
O300 Cd296 2.273 . S
O300 Cd298 2.411 . S
O300 C303 1.320 . S
O301 Cd298 2.333 . S
O301 C303 1.214 . S
O302 Cd298 2.352 . S
O302 C305 1.258 . S
C303 O300 1.320 . S
C303 O301 1.214 . S
O304 Cd296 2.277 . S
O304 C299 1.209 . S
C305 O302 1.258 . S
C305 O307 1.282 . S
O306 Cd298 2.277 . S
O306 C299 1.226 . S
O307 Cd298 2.356 . S
O307 C305 1.282 . S
C308 O309 1.306 . S
C308 O311 1.160 . S
O309 C308 1.306 . S
O309 Cd310 2.228 . S
Cd310 O309 2.228 . S
Cd310 O314 2.273 . S
Cd310 O318 2.277 . S
O311 C308 1.160 . S
O311 Cd312 2.203 . S
Cd312 O311 2.203 . S
Cd312 O314 2.411 . S
Cd312 O315 2.333 . S
Cd312 O316 2.352 . S
Cd312 O320 2.277 . S
Cd312 O321 2.356 . S
C313 O318 1.209 . S
C313 O320 1.226 . S
O314 Cd310 2.273 . S
O314 Cd312 2.411 . S
O314 C317 1.320 . S
O315 Cd312 2.333 . S
O315 C317 1.214 . S
O316 Cd312 2.352 . S
O316 C319 1.258 . S
C317 O314 1.320 . S
C317 O315 1.214 . S
O318 Cd310 2.277 . S
O318 C313 1.209 . S
C319 O316 1.258 . S
C319 O321 1.282 . S
O320 Cd312 2.277 . S
O320 C313 1.226 . S
O321 Cd312 2.356 . S
O321 C319 1.282 . S
C322 O323 1.306 . S
C322 O325 1.160 . S
O323 C322 1.306 . S
O323 Cd324 2.228 . S
Cd324 O323 2.228 . S
Cd324 O328 2.273 . S
Cd324 O332 2.277 . S
O325 C322 1.160 . S
O325 Cd326 2.203 . S
Cd326 O325 2.203 . S
Cd326 O328 2.411 . S
Cd326 O329 2.333 . S
Cd326 O330 2.352 . S
Cd326 O334 2.277 . S
Cd326 O335 2.356 . S
C327 O332 1.209 . S
C327 O334 1.226 . S
O328 Cd324 2.273 . S
O328 Cd326 2.411 . S
O328 C331 1.320 . S
O329 Cd326 2.333 . S
O329 C331 1.214 . S
O330 Cd326 2.352 . S
O330 C333 1.258 . S
C331 O328 1.320 . S
C331 O329 1.214 . S
O332 Cd324 2.277 . S
O332 C327 1.209 . S
C333 O330 1.258 . S
C333 O335 1.282 . S
O334 Cd326 2.277 . S
O334 C327 1.226 . S
O335 Cd326 2.356 . S
O335 C333 1.282 . S
O336 Mn337 2.163 . S
O336 C350 1.241 1_554 S
Mn337 O336 2.163 . S
Mn337 O340 2.160 1_445 S
Mn337 O341 2.221 1_455 S
Mn337 O343 2.163 1_454 S
Mn337 O345 2.160 1_545 S
Mn337 O355 2.228 1_545 S
O338 Mn339 2.099 1_556 S
O338 C350 1.245 1_565 S
Mn339 O338 2.099 1_554 S
Mn339 O346 2.089 . S
Mn339 O355 2.302 . S
Mn339 O356 2.251 1_554 S
O340 Mn337 2.160 1_665 S
O340 C351 1.239 . S
O341 Mn337 2.221 1_655 S
O341 Mn342 2.290 1_554 S
O341 C352 1.278 . S
Mn342 O341 2.290 1_556 S
Mn342 O344 2.089 1_556 S
Mn342 O347 2.251 1_556 S
Mn342 O348 2.087 . S
O343 Mn337 2.163 1_656 S
O343 C353 1.244 . S
O344 Mn342 2.089 1_554 S
O344 C351 1.256 1_545 S
O345 Mn337 2.160 1_565 S
O345 C354 1.239 . S
O346 Mn339 2.089 . S
O346 C354 1.256 . S
O347 Mn342 2.251 1_554 S
O347 C352 1.241 . S
O348 Mn342 2.087 . S
O348 C353 1.256 . S
C349 O355 1.252 1_556 S
C349 O356 1.241 . S
C350 O336 1.241 1_556 S
C350 O338 1.245 1_545 S
C351 O340 1.239 . S
C351 O344 1.256 1_565 S
C352 O341 1.278 . S
C352 O347 1.241 . S
C353 O343 1.244 . S
C353 O348 1.256 . S
C354 O345 1.239 . S
C354 O346 1.256 . S
O355 Mn337 2.228 1_565 S
O355 Mn339 2.302 . S
O355 C349 1.252 1_554 S
O356 Mn339 2.251 1_556 S
O356 C349 1.241 . S
O357 Mn358 2.163 . S
O357 C371 1.244 . S
Mn358 O357 2.163 . S
Mn358 O361 2.160 . S
Mn358 O362 2.221 . S
Mn358 O364 2.163 . S
Mn358 O366 2.160 . S
Mn358 O376 2.221 . S
O359 Mn360 2.087 . S
O359 C371 1.256 . S
Mn360 O359 2.087 . S
Mn360 O367 2.089 . S
Mn360 O376 2.290 . S
Mn360 O377 2.251 . S
O361 Mn358 2.160 . S
O361 C372 1.239 . S
O362 Mn358 2.221 . S
O362 Mn363 2.290 . S
O362 C373 1.278 . S
Mn363 O362 2.290 . S
Mn363 O365 2.089 . S
Mn363 O368 2.251 . S
Mn363 O369 2.087 . S
O364 Mn358 2.163 . S
O364 C374 1.244 . S
O365 Mn363 2.089 . S
O365 C372 1.256 . S
O366 Mn358 2.160 . S
O366 C375 1.239 . S
O367 Mn360 2.089 . S
O367 C375 1.256 . S
O368 Mn363 2.251 . S
O368 C373 1.241 . S
O369 Mn363 2.087 . S
O369 C374 1.256 . S
C370 O376 1.278 . S
C370 O377 1.241 . S
C371 O357 1.244 . S
C371 O359 1.256 . S
C372 O361 1.239 . S
C372 O365 1.256 . S
C373 O362 1.278 . S
C373 O368 1.241 . S
C374 O364 1.244 . S
C374 O369 1.256 . S
C375 O366 1.239 . S
C375 O367 1.256 . S
O376 Mn358 2.221 . S
O376 Mn360 2.290 . S
O376 C370 1.278 . S
O377 Mn360 2.251 . S
O377 C370 1.241 . S
O378 Mn379 2.163 1_565 S
O378 C392 1.244 . S
Mn379 O378 2.163 1_545 S
Mn379 O382 2.160 . S
Mn379 O383 2.221 1_545 S
Mn379 O385 2.163 . S
Mn379 O387 2.160 . S
Mn379 O397 2.221 . S
O380 Mn381 2.087 . S
O380 C392 1.256 1_545 S
Mn381 O380 2.087 . S
Mn381 O388 2.089 . S
Mn381 O397 2.290 . S
Mn381 O398 2.251 . S
O382 Mn379 2.160 . S
O382 C393 1.239 . S
O383 Mn379 2.221 1_565 S
O383 Mn384 2.290 . S
O383 C394 1.278 . S
Mn384 O383 2.290 . S
Mn384 O386 2.089 1_565 S
Mn384 O389 2.251 . S
Mn384 O390 2.087 . S
O385 Mn379 2.163 . S
O385 C395 1.244 1_545 S
O386 Mn384 2.089 1_545 S
O386 C393 1.256 . S
O387 Mn379 2.160 . S
O387 C396 1.239 . S
O388 Mn381 2.089 . S
O388 C396 1.256 . S
O389 Mn384 2.251 . S
O389 C394 1.241 . S
O390 Mn384 2.087 . S
O390 C395 1.256 . S
C391 O397 1.278 . S
C391 O398 1.241 . S
C392 O378 1.244 . S
C392 O380 1.256 1_565 S
C393 O382 1.239 . S
C393 O386 1.256 . S
C394 O383 1.278 . S
C394 O389 1.241 . S
C395 O385 1.244 1_565 S
C395 O390 1.256 . S
C396 O387 1.239 . S
C396 O388 1.256 . S
O397 Mn379 2.221 . S
O397 Mn381 2.290 . S
O397 C391 1.278 . S
O398 Mn381 2.251 . S
O398 C391 1.241 . S
O399 Mn400 2.163 . S
O399 C413 1.244 . S
Mn400 O399 2.163 . S
Mn400 O403 2.160 . S
Mn400 O404 2.221 . S
Mn400 O406 2.163 . S
Mn400 O408 2.160 . S
Mn400 O418 2.221 . S
O401 Mn402 2.087 . S
O401 C413 1.256 . S
Mn402 O401 2.087 . S
Mn402 O409 2.089 . S
Mn402 O418 2.290 . S
Mn402 O419 2.251 . S
O403 Mn400 2.160 . S
O403 C414 1.239 . S
O404 Mn400 2.221 . S
O404 Mn405 2.290 . S
O404 C415 1.278 . S
Mn405 O404 2.290 . S
Mn405 O407 2.089 . S
Mn405 O410 2.251 . S
Mn405 O411 2.087 . S
O406 Mn400 2.163 . S
O406 C416 1.244 . S
O407 Mn405 2.089 . S
O407 C414 1.256 . S
O408 Mn400 2.160 . S
O408 C417 1.239 . S
O409 Mn402 2.089 . S
O409 C417 1.256 . S
O410 Mn405 2.251 . S
O410 C415 1.241 . S
O411 Mn405 2.087 . S
O411 C416 1.256 . S
C412 O418 1.278 . S
C412 O419 1.241 . S
C413 O399 1.244 . S
C413 O401 1.256 . S
C414 O403 1.239 . S
C414 O407 1.256 . S
C415 O404 1.278 . S
C415 O410 1.241 . S
C416 O406 1.244 . S
C416 O411 1.256 . S
C417 O408 1.239 . S
C417 O409 1.256 . S
O418 Mn400 2.221 . S
O418 Mn402 2.290 . S
O418 C412 1.278 . S
O419 Mn402 2.251 . S
O419 C412 1.241 . S
O420 Mn421 2.163 1_565 S
O420 C434 1.247 . S
Mn421 O420 2.163 1_545 S
Mn421 O424 2.160 . S
Mn421 O425 2.221 . S
Mn421 O427 2.163 1_455 S
Mn421 O429 2.160 1_545 S
Mn421 O439 2.221 1_545 S
O422 Mn423 2.067 1_655 S
O422 C434 1.253 1_655 S
Mn423 O422 2.067 1_455 S
Mn423 O430 2.089 . S
Mn423 O439 2.290 . S
Mn423 O440 2.251 1_455 S
O424 Mn421 2.160 . S
O424 C435 1.239 . S
O425 Mn421 2.221 . S
O425 Mn426 2.298 . S
O425 C436 1.278 . S
Mn426 O425 2.298 . S
Mn426 O428 2.091 . S
Mn426 O431 2.254 . S
Mn426 O432 2.073 1_455 S
O427 Mn421 2.163 1_655 S
O427 C437 1.244 . S
O428 Mn426 2.091 . S
O428 C435 1.256 . S
O429 Mn421 2.160 1_565 S
O429 C438 1.239 . S
O430 Mn423 2.089 . S
O430 C438 1.256 . S
O431 Mn426 2.254 . S
O431 C436 1.241 . S
O432 Mn426 2.073 1_655 S
O432 C437 1.256 . S
C433 O439 1.278 1_655 S
C433 O440 1.241 . S
C434 O420 1.247 . S
C434 O422 1.253 1_455 S
C435 O424 1.239 . S
C435 O428 1.256 . S
C436 O425 1.278 . S
C436 O431 1.241 . S
C437 O427 1.244 . S
C437 O432 1.256 . S
C438 O429 1.239 . S
C438 O430 1.256 . S
O439 Mn421 2.221 1_565 S
O439 Mn423 2.290 . S
O439 C433 1.278 1_455 S
O440 Mn423 2.251 1_655 S
O440 C433 1.241 . S
O441 Mn442 2.163 . S
O441 C455 1.244 . S
Mn442 O441 2.163 . S
Mn442 O445 2.160 . S
Mn442 O446 2.221 . S
Mn442 O448 2.163 . S
Mn442 O450 2.160 . S
Mn442 O460 2.221 . S
O443 Mn444 2.087 . S
O443 C455 1.256 . S
Mn444 O443 2.087 . S
Mn444 O451 2.089 . S
Mn444 O460 2.290 . S
Mn444 O461 2.251 . S
O445 Mn442 2.160 . S
O445 C456 1.239 . S
O446 Mn442 2.221 . S
O446 Mn447 2.290 . S
O446 C457 1.278 . S
Mn447 O446 2.290 . S
Mn447 O449 2.089 . S
Mn447 O452 2.251 . S
Mn447 O453 2.087 . S
O448 Mn442 2.163 . S
O448 C458 1.244 . S
O449 Mn447 2.089 . S
O449 C456 1.256 . S
O450 Mn442 2.160 . S
O450 C459 1.239 . S
O451 Mn444 2.089 . S
O451 C459 1.256 . S
O452 Mn447 2.251 . S
O452 C457 1.241 . S
O453 Mn447 2.087 . S
O453 C458 1.256 . S
C454 O460 1.278 . S
C454 O461 1.241 . S
C455 O441 1.244 . S
C455 O443 1.256 . S
C456 O445 1.239 . S
C456 O449 1.256 . S
C457 O446 1.278 . S
C457 O452 1.241 . S
C458 O448 1.244 . S
C458 O453 1.256 . S
C459 O450 1.239 . S
C459 O451 1.256 . S
O460 Mn442 2.221 . S
O460 Mn444 2.290 . S
O460 C454 1.278 . S
O461 Mn444 2.251 . S
O461 C454 1.241 . S
O462 Mn463 2.170 1_556 S
O462 C476 1.240 1_545 S
Mn463 O462 2.170 1_554 S
Mn463 O466 2.160 . S
Mn463 O467 2.221 . S
Mn463 O469 2.163 1_545 S
Mn463 O471 2.160 1_554 S
Mn463 O481 2.218 1_544 S
O464 Mn465 2.087 1_565 S
O464 C476 1.256 . S
Mn465 O464 2.087 1_545 S
Mn465 O472 2.089 . S
Mn465 O481 2.284 1_545 S
Mn465 O482 2.251 1_545 S
O466 Mn463 2.160 . S
O466 C477 1.239 . S
O467 Mn463 2.221 . S
O467 Mn468 2.290 1_545 S
O467 C478 1.278 . S
Mn468 O467 2.290 1_565 S
Mn468 O470 2.089 1_565 S
Mn468 O473 2.251 1_565 S
Mn468 O474 2.087 . S
O469 Mn463 2.163 1_565 S
O469 C479 1.244 . S
O470 Mn468 2.089 1_545 S
O470 C477 1.256 . S
O471 Mn463 2.160 1_556 S
O471 C480 1.239 . S
O472 Mn465 2.089 . S
O472 C480 1.256 . S
O473 Mn468 2.251 1_545 S
O473 C478 1.241 . S
O474 Mn468 2.087 . S
O474 C479 1.256 . S
C475 O481 1.291 . S
C475 O482 1.241 . S
C476 O462 1.240 1_565 S
C476 O464 1.256 . S
C477 O466 1.239 . S
C477 O470 1.256 . S
C478 O467 1.278 . S
C478 O473 1.241 . S
C479 O469 1.244 . S
C479 O474 1.256 . S
C480 O471 1.239 . S
C480 O472 1.256 . S
O481 Mn463 2.218 1_566 S
O481 Mn465 2.284 1_565 S
O481 C475 1.291 . S
O482 Mn465 2.251 1_565 S
O482 C475 1.241 . S
O483 Mn484 2.163 . S
O483 C497 1.244 . S
Mn484 O483 2.163 . S
Mn484 O487 2.160 . S
Mn484 O488 2.221 . S
Mn484 O490 2.163 . S
Mn484 O492 2.160 . S
Mn484 O502 2.221 . S
O485 Mn486 2.087 . S
O485 C497 1.256 . S
Mn486 O485 2.087 . S
Mn486 O493 2.089 . S
Mn486 O502 2.290 . S
Mn486 O503 2.251 . S
O487 Mn484 2.160 . S
O487 C498 1.239 . S
O488 Mn484 2.221 . S
O488 Mn489 2.290 . S
O488 C499 1.278 . S
Mn489 O488 2.290 . S
Mn489 O491 2.089 . S
Mn489 O494 2.251 . S
Mn489 O495 2.087 . S
O490 Mn484 2.163 . S
O490 C500 1.244 . S
O491 Mn489 2.089 . S
O491 C498 1.256 . S
O492 Mn484 2.160 . S
O492 C501 1.239 . S
O493 Mn486 2.089 . S
O493 C501 1.256 . S
O494 Mn489 2.251 . S
O494 C499 1.241 . S
O495 Mn489 2.087 . S
O495 C500 1.256 . S
C496 O502 1.278 . S
C496 O503 1.241 . S
C497 O483 1.244 . S
C497 O485 1.256 . S
C498 O487 1.239 . S
C498 O491 1.256 . S
C499 O488 1.278 . S
C499 O494 1.241 . S
C500 O490 1.244 . S
C500 O495 1.256 . S
C501 O492 1.239 . S
C501 O493 1.256 . S
O502 Mn484 2.221 . S
O502 Mn486 2.290 . S
O502 C496 1.278 . S
O503 Mn486 2.251 . S
O503 C496 1.241 . S
O504 Mn505 2.163 1_556 S
O504 C518 1.244 . S
Mn505 O504 2.163 1_554 S
Mn505 O508 2.160 . S
Mn505 O509 2.221 1_554 S
Mn505 O511 2.163 . S
Mn505 O513 2.160 . S
Mn505 O523 2.221 . S
O506 Mn507 2.087 . S
O506 C518 1.256 1_554 S
Mn507 O506 2.087 . S
Mn507 O514 2.089 . S
Mn507 O523 2.290 . S
Mn507 O524 2.251 . S
O508 Mn505 2.160 . S
O508 C519 1.239 . S
O509 Mn505 2.221 1_556 S
O509 Mn510 2.290 . S
O509 C520 1.278 . S
Mn510 O509 2.290 . S
Mn510 O512 2.089 1_556 S
Mn510 O515 2.251 . S
Mn510 O516 2.087 . S
O511 Mn505 2.163 . S
O511 C521 1.244 1_554 S
O512 Mn510 2.089 1_554 S
O512 C519 1.256 . S
O513 Mn505 2.160 . S
O513 C522 1.239 . S
O514 Mn507 2.089 . S
O514 C522 1.256 . S
O515 Mn510 2.251 . S
O515 C520 1.241 . S
O516 Mn510 2.087 . S
O516 C521 1.256 . S
C517 O523 1.278 . S
C517 O524 1.241 . S
C518 O504 1.244 . S
C518 O506 1.256 1_556 S
C519 O508 1.239 . S
C519 O512 1.256 . S
C520 O509 1.278 . S
C520 O515 1.241 . S
C521 O511 1.244 1_556 S
C521 O516 1.256 . S
C522 O513 1.239 . S
C522 O514 1.256 . S
O523 Mn505 2.221 . S
O523 Mn507 2.290 . S
O523 C517 1.278 . S
O524 Mn507 2.251 . S
O524 C517 1.241 . S
O525 Mn526 2.163 . S
O525 C539 1.244 . S
Mn526 O525 2.163 . S
Mn526 O529 2.160 . S
Mn526 O530 2.221 . S
Mn526 O532 2.163 . S
Mn526 O534 2.160 . S
Mn526 O544 2.221 . S
O527 Mn528 2.087 . S
O527 C539 1.256 . S
Mn528 O527 2.087 . S
Mn528 O535 2.089 . S
Mn528 O544 2.290 . S
Mn528 O545 2.251 . S
O529 Mn526 2.160 . S
O529 C540 1.239 . S
O530 Mn526 2.221 . S
O530 Mn531 2.290 . S
O530 C541 1.278 . S
Mn531 O530 2.290 . S
Mn531 O533 2.089 . S
Mn531 O536 2.251 . S
Mn531 O537 2.087 . S
O532 Mn526 2.163 . S
O532 C542 1.244 . S
O533 Mn531 2.089 . S
O533 C540 1.256 . S
O534 Mn526 2.160 . S
O534 C543 1.239 . S
O535 Mn528 2.089 . S
O535 C543 1.256 . S
O536 Mn531 2.251 . S
O536 C541 1.241 . S
O537 Mn531 2.087 . S
O537 C542 1.256 . S
C538 O544 1.278 . S
C538 O545 1.241 . S
C539 O525 1.244 . S
C539 O527 1.256 . S
C540 O529 1.239 . S
C540 O533 1.256 . S
C541 O530 1.278 . S
C541 O536 1.241 . S
C542 O532 1.244 . S
C542 O537 1.256 . S
C543 O534 1.239 . S
C543 O535 1.256 . S
O544 Mn526 2.221 . S
O544 Mn528 2.290 . S
O544 C538 1.278 . S
O545 Mn528 2.251 . S
O545 C538 1.241 . S
O546 Mn547 2.163 1_655 S
O546 C560 1.244 . S
Mn547 O546 2.163 1_455 S
Mn547 O550 2.160 . S
Mn547 O551 2.221 1_455 S
Mn547 O553 2.163 . S
Mn547 O555 2.160 . S
Mn547 O565 2.221 . S
O548 Mn549 2.087 . S
O548 C560 1.256 1_455 S
Mn549 O548 2.087 . S
Mn549 O556 2.089 . S
Mn549 O565 2.290 . S
Mn549 O566 2.251 . S
O550 Mn547 2.160 . S
O550 C561 1.239 . S
O551 Mn547 2.221 1_655 S
O551 Mn552 2.290 . S
O551 C562 1.278 . S
Mn552 O551 2.290 . S
Mn552 O554 2.089 1_655 S
Mn552 O557 2.251 . S
Mn552 O558 2.087 . S
O553 Mn547 2.163 . S
O553 C563 1.244 1_455 S
O554 Mn552 2.089 1_455 S
O554 C561 1.256 . S
O555 Mn547 2.160 . S
O555 C564 1.239 . S
O556 Mn549 2.089 . S
O556 C564 1.256 . S
O557 Mn552 2.251 . S
O557 C562 1.241 . S
O558 Mn552 2.087 . S
O558 C563 1.256 . S
C559 O565 1.278 . S
C559 O566 1.241 . S
C560 O546 1.244 . S
C560 O548 1.256 1_655 S
C561 O550 1.239 . S
C561 O554 1.256 . S
C562 O551 1.278 . S
C562 O557 1.241 . S
C563 O553 1.244 1_655 S
C563 O558 1.256 . S
C564 O555 1.239 . S
C564 O556 1.256 . S
O565 Mn547 2.221 . S
O565 Mn549 2.290 . S
O565 C559 1.278 . S
O566 Mn549 2.251 . S
O566 C559 1.241 . S
O567 Mn568 2.163 . S
O567 C581 1.244 . S
Mn568 O567 2.163 . S
Mn568 O571 2.160 . S
Mn568 O572 2.221 . S
Mn568 O574 2.163 . S
Mn568 O576 2.160 . S
Mn568 O586 2.221 . S
O569 Mn570 2.087 . S
O569 C581 1.256 . S
Mn570 O569 2.087 . S
Mn570 O577 2.089 . S
Mn570 O586 2.290 . S
Mn570 O587 2.251 . S
O571 Mn568 2.160 . S
O571 C582 1.239 . S
O572 Mn568 2.221 . S
O572 Mn573 2.290 . S
O572 C583 1.278 . S
Mn573 O572 2.290 . S
Mn573 O575 2.089 . S
Mn573 O578 2.251 . S
Mn573 O579 2.087 . S
O574 Mn568 2.163 . S
O574 C584 1.244 . S
O575 Mn573 2.089 . S
O575 C582 1.256 . S
O576 Mn568 2.160 . S
O576 C585 1.239 . S
O577 Mn570 2.089 . S
O577 C585 1.256 . S
O578 Mn573 2.251 . S
O578 C583 1.241 . S
O579 Mn573 2.087 . S
O579 C584 1.256 . S
C580 O586 1.278 . S
C580 O587 1.241 . S
C581 O567 1.244 . S
C581 O569 1.256 . S
C582 O571 1.239 . S
C582 O575 1.256 . S
C583 O572 1.278 . S
C583 O578 1.241 . S
C584 O574 1.244 . S
C584 O579 1.256 . S
C585 O576 1.239 . S
C585 O577 1.256 . S
O586 Mn568 2.221 . S
O586 Mn570 2.290 . S
O586 C580 1.278 . S
O587 Mn570 2.251 . S
O587 C580 1.241 . S
O588 Mn589 2.163 . S
O588 C602 1.244 . S
Mn589 O588 2.163 . S
Mn589 O592 2.160 . S
Mn589 O593 2.221 . S
Mn589 O595 2.163 . S
Mn589 O597 2.160 . S
Mn589 O607 2.221 . S
O590 Mn591 2.087 . S
O590 C602 1.256 . S
Mn591 O590 2.087 . S
Mn591 O598 2.089 . S
Mn591 O607 2.290 . S
Mn591 O608 2.251 . S
O592 Mn589 2.160 . S
O592 C603 1.239 . S
O593 Mn589 2.221 . S
O593 Mn594 2.290 . S
O593 C604 1.278 . S
Mn594 O593 2.290 . S
Mn594 O596 2.089 . S
Mn594 O599 2.251 . S
Mn594 O600 2.087 . S
O595 Mn589 2.163 . S
O595 C605 1.244 . S
O596 Mn594 2.089 . S
O596 C603 1.256 . S
O597 Mn589 2.160 . S
O597 C606 1.239 . S
O598 Mn591 2.089 . S
O598 C606 1.256 . S
O599 Mn594 2.251 . S
O599 C604 1.241 . S
O600 Mn594 2.087 . S
O600 C605 1.256 . S
C601 O607 1.278 . S
C601 O608 1.241 . S
C602 O588 1.244 . S
C602 O590 1.256 . S
C603 O592 1.239 . S
C603 O596 1.256 . S
C604 O593 1.278 . S
C604 O599 1.241 . S
C605 O595 1.244 . S
C605 O600 1.256 . S
C606 O597 1.239 . S
C606 O598 1.256 . S
O607 Mn589 2.221 . S
O607 Mn591 2.290 . S
O607 C601 1.278 . S
O608 Mn591 2.251 . S
O608 C601 1.241 . S
O609 Mn610 2.163 . S
O609 C623 1.244 . S
Mn610 O609 2.163 . S
Mn610 O613 2.160 . S
Mn610 O614 2.221 . S
Mn610 O616 2.163 . S
Mn610 O618 2.160 . S
Mn610 O628 2.221 . S
O611 Mn612 2.087 . S
O611 C623 1.256 . S
Mn612 O611 2.087 . S
Mn612 O619 2.089 . S
Mn612 O628 2.290 . S
Mn612 O629 2.251 . S
O613 Mn610 2.160 . S
O613 C624 1.239 . S
O614 Mn610 2.221 . S
O614 Mn615 2.290 . S
O614 C625 1.278 . S
Mn615 O614 2.290 . S
Mn615 O617 2.089 . S
Mn615 O620 2.251 . S
Mn615 O621 2.087 . S
O616 Mn610 2.163 . S
O616 C626 1.244 . S
O617 Mn615 2.089 . S
O617 C624 1.256 . S
O618 Mn610 2.160 . S
O618 C627 1.239 . S
O619 Mn612 2.089 . S
O619 C627 1.256 . S
O620 Mn615 2.251 . S
O620 C625 1.241 . S
O621 Mn615 2.087 . S
O621 C626 1.256 . S
C622 O628 1.278 . S
C622 O629 1.241 . S
C623 O609 1.244 . S
C623 O611 1.256 . S
C624 O613 1.239 . S
C624 O617 1.256 . S
C625 O614 1.278 . S
C625 O620 1.241 . S
C626 O616 1.244 . S
C626 O621 1.256 . S
C627 O618 1.239 . S
C627 O619 1.256 . S
O628 Mn610 2.221 . S
O628 Mn612 2.290 . S
O628 C622 1.278 . S
O629 Mn612 2.251 . S
O629 C622 1.241 . S
O630 Mn631 2.163 . S
O630 C644 1.244 . S
Mn631 O630 2.163 . S
Mn631 O634 2.160 . S
Mn631 O635 2.221 . S
Mn631 O637 2.163 . S
Mn631 O639 2.160 . S
Mn631 O649 2.221 . S
O632 Mn633 2.087 . S
O632 C644 1.256 . S
Mn633 O632 2.087 . S
Mn633 O640 2.089 . S
Mn633 O649 2.290 . S
Mn633 O650 2.251 . S
O634 Mn631 2.160 . S
O634 C645 1.239 . S
O635 Mn631 2.221 . S
O635 Mn636 2.290 . S
O635 C646 1.278 . S
Mn636 O635 2.290 . S
Mn636 O638 2.089 . S
Mn636 O641 2.251 . S
Mn636 O642 2.087 . S
O637 Mn631 2.163 . S
O637 C647 1.244 . S
O638 Mn636 2.089 . S
O638 C645 1.256 . S
O639 Mn631 2.160 . S
O639 C648 1.239 . S
O640 Mn633 2.089 . S
O640 C648 1.256 . S
O641 Mn636 2.251 . S
O641 C646 1.241 . S
O642 Mn636 2.087 . S
O642 C647 1.256 . S
C643 O649 1.278 . S
C643 O650 1.241 . S
C644 O630 1.244 . S
C644 O632 1.256 . S
C645 O634 1.239 . S
C645 O638 1.256 . S
C646 O635 1.278 . S
C646 O641 1.241 . S
C647 O637 1.244 . S
C647 O642 1.256 . S
C648 O639 1.239 . S
C648 O640 1.256 . S
O649 Mn631 2.221 . S
O649 Mn633 2.290 . S
O649 C643 1.278 . S
O650 Mn633 2.251 . S
O650 C643 1.241 . S
O651 Mn652 2.167 1_655 S
O651 C665 1.242 1_554 S
Mn652 O651 2.167 1_455 S
Mn652 O655 2.160 . S
Mn652 O656 2.221 . S
Mn652 O658 2.163 1_554 S
Mn652 O660 2.160 1_455 S
Mn652 O670 2.220 1_454 S
O653 Mn654 2.087 1_556 S
O653 C665 1.256 . S
Mn654 O653 2.087 1_554 S
Mn654 O661 2.089 . S
Mn654 O670 2.287 1_554 S
Mn654 O671 2.251 1_554 S
O655 Mn652 2.160 . S
O655 C666 1.239 . S
O656 Mn652 2.221 . S
O656 Mn657 2.290 1_554 S
O656 C667 1.278 . S
Mn657 O656 2.290 1_556 S
Mn657 O659 2.083 1_556 S
Mn657 O662 2.251 1_556 S
Mn657 O663 2.087 . S
O658 Mn652 2.163 1_556 S
O658 C668 1.244 . S
O659 Mn657 2.083 1_554 S
O659 C666 1.279 . S
O660 Mn652 2.160 1_655 S
O660 C669 1.239 . S
O661 Mn654 2.089 . S
O661 C669 1.256 . S
O662 Mn657 2.251 1_554 S
O662 C667 1.241 . S
O663 Mn657 2.087 . S
O663 C668 1.256 . S
C664 O670 1.283 . S
C664 O671 1.241 . S
C665 O651 1.242 1_556 S
C665 O653 1.256 . S
C666 O655 1.239 . S
C666 O659 1.279 . S
C667 O656 1.278 . S
C667 O662 1.241 . S
C668 O658 1.244 . S
C668 O663 1.256 . S
C669 O660 1.239 . S
C669 O661 1.256 . S
O670 Mn652 2.220 1_656 S
O670 Mn654 2.287 1_556 S
O670 C664 1.283 . S
O671 Mn654 2.251 1_556 S
O671 C664 1.241 . S
H672 C690 0.951 . S
H673 C692 0.951 . S
H674 C694 0.951 . S
H675 C695 0.949 1_655 S
H676 C697 0.950 . S
H677 C700 0.950 . S
H678 C701 0.950 . S
H679 C703 0.950 . S
H680 C704 0.950 . S
H681 C705 0.951 . S
H682 C707 0.951 . S
H683 C709 0.950 . S
H684 C710 0.948 1_556 S
H685 C712 0.950 . S
H686 C715 0.950 . S
H687 C716 0.950 . S
H688 C718 0.950 . S
H689 C719 0.950 . S
C690 H672 0.951 . S
C690 C691 1.366 . S
C690 C692 1.388 . S
C691 C690 1.366 . S
C691 C695 1.387 . S
C692 H673 0.951 . S
C692 C690 1.388 . S
C692 C693 1.368 . S
C693 C692 1.368 . S
C693 C694 1.413 1_455 S
C693 C696 1.498 1_455 S
C694 H674 0.951 . S
C694 C693 1.413 1_655 S
C694 C695 1.373 1_655 S
C695 H675 0.949 1_455 S
C695 C691 1.387 . S
C695 C694 1.373 1_455 S
C696 C693 1.498 1_655 S
C696 C697 1.369 1_655 S
C696 C698 1.393 . S
C697 H676 0.950 . S
C697 C696 1.369 1_455 S
C697 C713 1.377 . S
C698 C696 1.393 . S
C698 C699 1.524 . S
C698 C712 1.377 . S
C699 C698 1.524 . S
C699 C700 1.397 . S
C699 C704 1.363 . S
C700 H677 0.950 . S
C700 C699 1.397 . S
C700 C701 1.334 . S
C701 H678 0.950 . S
C701 C700 1.334 . S
C701 C702 1.287 . S
C702 C701 1.287 . S
C702 C703 1.524 . S
C702 H721 0.913 . S
C703 H679 0.950 . S
C703 C702 1.524 . S
C703 C704 1.415 . S
C704 H680 0.950 . S
C704 C699 1.363 . S
C704 C703 1.415 . S
C705 H681 0.951 . S
C705 C706 1.366 . S
C705 C707 1.388 . S
C706 C705 1.366 . S
C706 C710 1.382 1_655 S
C707 H682 0.951 . S
C707 C705 1.388 . S
C707 C708 1.362 1_655 S
C708 C707 1.362 1_455 S
C708 C709 1.416 . S
C708 C711 1.500 . S
C709 H683 0.950 . S
C709 C708 1.416 . S
C709 C710 1.375 . S
C710 H684 0.948 1_554 S
C710 C706 1.382 1_455 S
C710 C709 1.375 . S
C711 C708 1.500 . S
C711 C712 1.373 1_455 S
C711 C713 1.389 . S
C712 H685 0.950 . S
C712 C698 1.377 . S
C712 C711 1.373 1_655 S
C713 C697 1.377 . S
C713 C711 1.389 . S
C713 C714 1.524 . S
C714 C713 1.524 . S
C714 C715 1.397 . S
C714 C719 1.363 . S
C715 H686 0.950 . S
C715 C714 1.397 . S
C715 C716 1.334 . S
C716 H687 0.950 . S
C716 C715 1.334 . S
C716 C717 1.287 . S
C717 C716 1.287 . S
C717 C718 1.524 . S
C717 H720 0.999 . S
C718 H688 0.950 . S
C718 C717 1.524 . S
C718 C719 1.415 . S
C719 H689 0.950 . S
C719 C714 1.363 . S
C719 C718 1.415 . S
H720 C717 0.999 . S
H721 C702 0.913 . S
H722 C740 0.951 . S
H723 C742 0.951 . S
H724 C744 0.950 . S
H725 C745 0.950 . S
H726 C747 0.950 . S
H727 C750 0.950 . S
H728 C751 0.950 . S
H729 C753 0.950 . S
H730 C754 0.950 . S
H731 C755 0.951 . S
H732 C757 0.951 . S
H733 C759 0.950 . S
H734 C760 0.950 . S
H735 C762 0.950 . S
H736 C765 0.950 . S
H737 C766 0.950 . S
H738 C768 0.950 . S
H739 C769 0.950 . S
C740 H722 0.951 . S
C740 C741 1.366 . S
C740 C742 1.388 . S
C741 C740 1.366 . S
C741 C745 1.385 . S
C742 H723 0.951 . S
C742 C740 1.388 . S
C742 C743 1.366 . S
C743 C742 1.366 . S
C743 C744 1.414 . S
C743 C746 1.499 . S
C744 H724 0.950 . S
C744 C743 1.414 . S
C744 C745 1.374 . S
C745 H725 0.950 . S
C745 C741 1.385 . S
C745 C744 1.374 . S
C746 C743 1.499 . S
C746 C747 1.373 . S
C746 C748 1.389 . S
C747 H726 0.950 . S
C747 C746 1.373 . S
C747 C763 1.377 . S
C748 C746 1.389 . S
C748 C749 1.524 . S
C748 C762 1.377 . S
C749 C748 1.524 . S
C749 C750 1.397 . S
C749 C754 1.363 . S
C750 H727 0.950 . S
C750 C749 1.397 . S
C750 C751 1.334 . S
C751 H728 0.950 . S
C751 C750 1.334 . S
C751 C752 1.287 . S
C752 C751 1.287 . S
C752 C753 1.524 . S
C752 H771 0.913 . S
C753 H729 0.950 . S
C753 C752 1.524 . S
C753 C754 1.415 . S
C754 H730 0.950 . S
C754 C749 1.363 . S
C754 C753 1.415 . S
C755 H731 0.951 . S
C755 C756 1.366 . S
C755 C757 1.388 . S
C756 C755 1.366 . S
C756 C760 1.385 . S
C757 H732 0.951 . S
C757 C755 1.388 . S
C757 C758 1.366 . S
C758 C757 1.366 . S
C758 C759 1.414 . S
C758 C761 1.499 . S
C759 H733 0.950 . S
C759 C758 1.414 . S
C759 C760 1.374 . S
C760 H734 0.950 . S
C760 C756 1.385 . S
C760 C759 1.374 . S
C761 C758 1.499 . S
C761 C762 1.373 . S
C761 C763 1.389 . S
C762 H735 0.950 . S
C762 C748 1.377 . S
C762 C761 1.373 . S
C763 C747 1.377 . S
C763 C761 1.389 . S
C763 C764 1.524 . S
C764 C763 1.524 . S
C764 C765 1.397 . S
C764 C769 1.363 . S
C765 H736 0.950 . S
C765 C764 1.397 . S
C765 C766 1.334 . S
C766 H737 0.950 . S
C766 C765 1.334 . S
C766 C767 1.287 . S
C767 C766 1.287 . S
C767 C768 1.524 . S
C767 H770 0.999 . S
C768 H738 0.950 . S
C768 C767 1.524 . S
C768 C769 1.415 . S
C769 H739 0.950 . S
C769 C764 1.363 . S
C769 C768 1.415 . S
H770 C767 0.999 . S
H771 C752 0.913 . S
H772 C790 0.951 . S
H773 C792 0.951 . S
H774 C794 0.950 . S
H775 C795 0.950 . S
H776 C797 0.950 . S
H777 C800 0.950 . S
H778 C801 0.950 . S
H779 C803 0.950 . S
H780 C804 0.950 . S
H781 C805 0.951 . S
H782 C807 0.951 . S
H783 C809 0.950 . S
H784 C810 0.950 . S
H785 C812 0.950 . S
H786 C815 0.950 . S
H787 C816 0.950 . S
H788 C818 0.950 . S
H789 C819 0.950 . S
C790 H772 0.951 . S
C790 C791 1.366 . S
C790 C792 1.388 . S
C791 C790 1.366 . S
C791 C795 1.385 . S
C792 H773 0.951 . S
C792 C790 1.388 . S
C792 C793 1.366 . S
C793 C792 1.366 . S
C793 C794 1.414 . S
C793 C796 1.499 . S
C794 H774 0.950 . S
C794 C793 1.414 . S
C794 C795 1.374 . S
C795 H775 0.950 . S
C795 C791 1.385 . S
C795 C794 1.374 . S
C796 C793 1.499 . S
C796 C797 1.373 . S
C796 C798 1.389 . S
C797 H776 0.950 . S
C797 C796 1.373 . S
C797 C813 1.377 . S
C798 C796 1.389 . S
C798 C799 1.524 . S
C798 C812 1.377 . S
C799 C798 1.524 . S
C799 C800 1.397 . S
C799 C804 1.363 . S
C800 H777 0.950 . S
C800 C799 1.397 . S
C800 C801 1.334 . S
C801 H778 0.950 . S
C801 C800 1.334 . S
C801 C802 1.287 . S
C802 C801 1.287 . S
C802 C803 1.524 . S
C802 H821 0.913 . S
C803 H779 0.950 . S
C803 C802 1.524 . S
C803 C804 1.415 . S
C804 H780 0.950 . S
C804 C799 1.363 . S
C804 C803 1.415 . S
C805 H781 0.951 . S
C805 C806 1.366 . S
C805 C807 1.388 . S
C806 C805 1.366 . S
C806 C810 1.385 . S
C807 H782 0.951 . S
C807 C805 1.388 . S
C807 C808 1.366 . S
C808 C807 1.366 . S
C808 C809 1.414 . S
C808 C811 1.499 . S
C809 H783 0.950 . S
C809 C808 1.414 . S
C809 C810 1.374 . S
C810 H784 0.950 . S
C810 C806 1.385 . S
C810 C809 1.374 . S
C811 C808 1.499 . S
C811 C812 1.373 . S
C811 C813 1.389 . S
C812 H785 0.950 . S
C812 C798 1.377 . S
C812 C811 1.373 . S
C813 C797 1.377 . S
C813 C811 1.389 . S
C813 C814 1.524 . S
C814 C813 1.524 . S
C814 C815 1.397 . S
C814 C819 1.363 . S
C815 H786 0.950 . S
C815 C814 1.397 . S
C815 C816 1.334 . S
C816 H787 0.950 . S
C816 C815 1.334 . S
C816 C817 1.287 . S
C817 C816 1.287 . S
C817 C818 1.524 . S
C817 H820 0.999 . S
C818 H788 0.950 . S
C818 C817 1.524 . S
C818 C819 1.415 . S
C819 H789 0.950 . S
C819 C814 1.363 . S
C819 C818 1.415 . S
H820 C817 0.999 . S
H821 C802 0.913 . S
H822 C840 0.951 . S
H823 C842 0.951 . S
H824 C844 0.950 . S
H825 C845 0.950 . S
H826 C847 0.950 . S
H827 C850 0.950 . S
H828 C851 0.950 . S
H829 C853 0.950 . S
H830 C854 0.950 . S
H831 C855 0.951 . S
H832 C857 0.951 . S
H833 C859 0.950 . S
H834 C860 0.950 . S
H835 C862 0.950 . S
H836 C865 0.950 . S
H837 C866 0.950 . S
H838 C868 0.950 . S
H839 C869 0.950 . S
C840 H822 0.951 . S
C840 C841 1.366 . S
C840 C842 1.388 . S
C841 C840 1.366 . S
C841 C845 1.385 . S
C842 H823 0.951 . S
C842 C840 1.388 . S
C842 C843 1.366 . S
C843 C842 1.366 . S
C843 C844 1.414 . S
C843 C846 1.499 . S
C844 H824 0.950 . S
C844 C843 1.414 . S
C844 C845 1.374 . S
C845 H825 0.950 . S
C845 C841 1.385 . S
C845 C844 1.374 . S
C846 C843 1.499 . S
C846 C847 1.373 . S
C846 C848 1.389 . S
C847 H826 0.950 . S
C847 C846 1.373 . S
C847 C863 1.377 . S
C848 C846 1.389 . S
C848 C849 1.524 . S
C848 C862 1.377 . S
C849 C848 1.524 . S
C849 C850 1.397 . S
C849 C854 1.363 . S
C850 H827 0.950 . S
C850 C849 1.397 . S
C850 C851 1.334 . S
C851 H828 0.950 . S
C851 C850 1.334 . S
C851 C852 1.287 . S
C852 C851 1.287 . S
C852 C853 1.524 . S
C852 H871 0.913 . S
C853 H829 0.950 . S
C853 C852 1.524 . S
C853 C854 1.415 . S
C854 H830 0.950 . S
C854 C849 1.363 . S
C854 C853 1.415 . S
C855 H831 0.951 . S
C855 C856 1.366 . S
C855 C857 1.388 . S
C856 C855 1.366 . S
C856 C860 1.385 . S
C857 H832 0.951 . S
C857 C855 1.388 . S
C857 C858 1.366 . S
C858 C857 1.366 . S
C858 C859 1.414 . S
C858 C861 1.499 . S
C859 H833 0.950 . S
C859 C858 1.414 . S
C859 C860 1.374 . S
C860 H834 0.950 . S
C860 C856 1.385 . S
C860 C859 1.374 . S
C861 C858 1.499 . S
C861 C862 1.373 . S
C861 C863 1.389 . S
C862 H835 0.950 . S
C862 C848 1.377 . S
C862 C861 1.373 . S
C863 C847 1.377 . S
C863 C861 1.389 . S
C863 C864 1.524 . S
C864 C863 1.524 . S
C864 C865 1.397 . S
C864 C869 1.363 . S
C865 H836 0.950 . S
C865 C864 1.397 . S
C865 C866 1.334 . S
C866 H837 0.950 . S
C866 C865 1.334 . S
C866 C867 1.287 . S
C867 C866 1.287 . S
C867 C868 1.524 . S
C867 H870 0.999 . S
C868 H838 0.950 . S
C868 C867 1.524 . S
C868 C869 1.415 . S
C869 H839 0.950 . S
C869 C864 1.363 . S
C869 C868 1.415 . S
H870 C867 0.999 . S
H871 C852 0.913 . S
H872 C890 0.951 . S
H873 C892 0.951 . S
H874 C894 0.950 . S
H875 C895 0.950 . S
H876 C897 0.950 . S
H877 C900 0.950 . S
H878 C901 0.950 . S
H879 C903 0.950 . S
H880 C904 0.950 . S
H881 C905 0.954 . S
H882 C907 0.956 . S
H883 C909 0.950 . S
H884 C910 0.952 . S
H885 C912 0.950 . S
H886 C915 0.950 . S
H887 C916 0.950 . S
H888 C918 0.950 . S
H889 C919 0.950 . S
C890 H872 0.951 . S
C890 C891 1.366 . S
C890 C892 1.388 . S
C891 C890 1.366 . S
C891 C895 1.385 . S
C892 H873 0.951 . S
C892 C890 1.388 . S
C892 C893 1.366 . S
C893 C892 1.366 . S
C893 C894 1.414 . S
C893 C896 1.499 . S
C894 H874 0.950 . S
C894 C893 1.414 . S
C894 C895 1.374 . S
C895 H875 0.950 . S
C895 C891 1.385 . S
C895 C894 1.374 . S
C896 C893 1.499 . S
C896 C897 1.373 1_455 S
C896 C898 1.389 . S
C897 H876 0.950 . S
C897 C896 1.373 1_655 S
C897 C913 1.377 . S
C898 C896 1.389 . S
C898 C899 1.524 . S
C898 C912 1.377 . S
C899 C898 1.524 . S
C899 C900 1.397 . S
C899 C904 1.363 . S
C900 H877 0.950 . S
C900 C899 1.397 . S
C900 C901 1.334 . S
C901 H878 0.950 . S
C901 C900 1.334 . S
C901 C902 1.287 . S
C902 C901 1.287 . S
C902 C903 1.524 . S
C902 H921 0.913 . S
C903 H879 0.950 . S
C903 C902 1.524 . S
C903 C904 1.415 . S
C904 H880 0.950 . S
C904 C899 1.363 . S
C904 C903 1.415 . S
C905 H881 0.954 . S
C905 C906 1.364 1_455 S
C905 C907 1.388 . S
C906 C905 1.364 1_655 S
C906 C910 1.384 . S
C907 H882 0.956 . S
C907 C905 1.388 . S
C907 C908 1.365 . S
C908 C907 1.365 . S
C908 C909 1.413 1_455 S
C908 C911 1.498 . S
C909 H883 0.950 . S
C909 C908 1.413 1_655 S
C909 C910 1.373 . S
C910 H884 0.952 . S
C910 C906 1.384 . S
C910 C909 1.373 . S
C911 C908 1.498 . S
C911 C912 1.410 . S
C911 C913 1.359 1_455 S
C912 H885 0.950 . S
C912 C898 1.377 . S
C912 C911 1.410 . S
C913 C897 1.377 . S
C913 C911 1.359 1_655 S
C913 C914 1.524 . S
C914 C913 1.524 . S
C914 C915 1.397 . S
C914 C919 1.363 . S
C915 H886 0.950 . S
C915 C914 1.397 . S
C915 C916 1.334 . S
C916 H887 0.950 . S
C916 C915 1.334 . S
C916 C917 1.287 . S
C917 C916 1.287 . S
C917 C918 1.524 . S
C917 H920 0.999 . S
C918 H888 0.950 . S
C918 C917 1.524 . S
C918 C919 1.415 . S
C919 H889 0.950 . S
C919 C914 1.363 . S
C919 C918 1.415 . S
H920 C917 0.999 . S
H921 C902 0.913 . S
H922 C940 0.951 . S
H923 C942 0.951 . S
H924 C944 0.950 . S
H925 C945 0.950 . S
H926 C947 0.950 . S
H927 C950 0.950 . S
H928 C951 0.950 . S
H929 C953 0.950 . S
H930 C954 0.950 . S
H931 C955 0.951 . S
H932 C957 0.951 . S
H933 C959 0.950 . S
H934 C960 0.950 . S
H935 C962 0.950 . S
H936 C965 0.950 . S
H937 C966 0.950 . S
H938 C968 0.950 . S
H939 C969 0.950 . S
C940 H922 0.951 . S
C940 C941 1.366 . S
C940 C942 1.388 . S
C941 C940 1.366 . S
C941 C945 1.385 . S
C942 H923 0.951 . S
C942 C940 1.388 . S
C942 C943 1.366 . S
C943 C942 1.366 . S
C943 C944 1.414 . S
C943 C946 1.499 . S
C944 H924 0.950 . S
C944 C943 1.414 . S
C944 C945 1.374 . S
C945 H925 0.950 . S
C945 C941 1.385 . S
C945 C944 1.374 . S
C946 C943 1.499 . S
C946 C947 1.373 . S
C946 C948 1.389 . S
C947 H926 0.950 . S
C947 C946 1.373 . S
C947 C963 1.377 . S
C948 C946 1.389 . S
C948 C949 1.524 . S
C948 C962 1.377 . S
C949 C948 1.524 . S
C949 C950 1.397 . S
C949 C954 1.363 . S
C950 H927 0.950 . S
C950 C949 1.397 . S
C950 C951 1.334 . S
C951 H928 0.950 . S
C951 C950 1.334 . S
C951 C952 1.287 . S
C952 C951 1.287 . S
C952 C953 1.524 . S
C952 H971 0.913 . S
C953 H929 0.950 . S
C953 C952 1.524 . S
C953 C954 1.415 . S
C954 H930 0.950 . S
C954 C949 1.363 . S
C954 C953 1.415 . S
C955 H931 0.951 . S
C955 C956 1.366 . S
C955 C957 1.388 . S
C956 C955 1.366 . S
C956 C960 1.385 . S
C957 H932 0.951 . S
C957 C955 1.388 . S
C957 C958 1.366 . S
C958 C957 1.366 . S
C958 C959 1.414 . S
C958 C961 1.499 . S
C959 H933 0.950 . S
C959 C958 1.414 . S
C959 C960 1.374 . S
C960 H934 0.950 . S
C960 C956 1.385 . S
C960 C959 1.374 . S
C961 C958 1.499 . S
C961 C962 1.373 . S
C961 C963 1.389 . S
C962 H935 0.950 . S
C962 C948 1.377 . S
C962 C961 1.373 . S
C963 C947 1.377 . S
C963 C961 1.389 . S
C963 C964 1.524 . S
C964 C963 1.524 . S
C964 C965 1.397 . S
C964 C969 1.363 . S
C965 H936 0.950 . S
C965 C964 1.397 . S
C965 C966 1.334 . S
C966 H937 0.950 . S
C966 C965 1.334 . S
C966 C967 1.287 . S
C967 C966 1.287 . S
C967 C968 1.524 . S
C967 H970 0.999 . S
C968 H938 0.950 . S
C968 C967 1.524 . S
C968 C969 1.415 . S
C969 H939 0.950 . S
C969 C964 1.363 . S
C969 C968 1.415 . S
H970 C967 0.999 . S
H971 C952 0.913 . S
H972 C990 0.951 . S
H973 C992 0.951 . S
H974 C994 0.950 . S
H975 C995 0.950 . S
H976 C997 0.950 . S
H977 C1000 0.950 . S
H978 C1001 0.950 . S
H979 C1003 0.950 1_554 S
H980 C1004 0.950 . S
H981 C1005 0.951 . S
H982 C1007 0.951 . S
H983 C1009 0.950 . S
H984 C1010 0.950 . S
H985 C1012 0.950 . S
H986 C1015 0.950 . S
H987 C1016 0.950 . S
H988 C1018 0.950 . S
H989 C1019 0.950 . S
C990 H972 0.951 . S
C990 C991 1.366 . S
C990 C992 1.388 . S
C991 C990 1.366 . S
C991 C995 1.385 . S
C992 H973 0.951 . S
C992 C990 1.388 . S
C992 C993 1.366 . S
C993 C992 1.366 . S
C993 C994 1.414 . S
C993 C996 1.499 . S
C994 H974 0.950 . S
C994 C993 1.414 . S
C994 C995 1.374 . S
C995 H975 0.950 . S
C995 C991 1.385 . S
C995 C994 1.374 . S
C996 C993 1.499 . S
C996 C997 1.373 . S
C996 C998 1.389 . S
C997 H976 0.950 . S
C997 C996 1.373 . S
C997 C1013 1.377 . S
C998 C996 1.389 . S
C998 C999 1.524 . S
C998 C1012 1.377 . S
C999 C998 1.524 . S
C999 C1000 1.397 . S
C999 C1004 1.363 . S
C1000 H977 0.950 . S
C1000 C999 1.397 . S
C1000 C1001 1.334 . S
C1001 H978 0.950 . S
C1001 C1000 1.334 . S
C1001 C1002 1.287 . S
C1002 C1001 1.287 . S
C1002 C1003 1.524 . S
C1002 H1021 0.913 . S
C1003 H979 0.950 1_556 S
C1003 C1002 1.524 . S
C1003 C1004 1.415 . S
C1004 H980 0.950 . S
C1004 C999 1.363 . S
C1004 C1003 1.415 . S
C1005 H981 0.951 . S
C1005 C1006 1.366 . S
C1005 C1007 1.388 . S
C1006 C1005 1.366 . S
C1006 C1010 1.385 . S
C1007 H982 0.951 . S
C1007 C1005 1.388 . S
C1007 C1008 1.366 . S
C1008 C1007 1.366 . S
C1008 C1009 1.414 . S
C1008 C1011 1.499 . S
C1009 H983 0.950 . S
C1009 C1008 1.414 . S
C1009 C1010 1.374 . S
C1010 H984 0.950 . S
C1010 C1006 1.385 . S
C1010 C1009 1.374 . S
C1011 C1008 1.499 . S
C1011 C1012 1.373 . S
C1011 C1013 1.389 . S
C1012 H985 0.950 . S
C1012 C998 1.377 . S
C1012 C1011 1.373 . S
C1013 C997 1.377 . S
C1013 C1011 1.389 . S
C1013 C1014 1.524 . S
C1014 C1013 1.524 . S
C1014 C1015 1.397 . S
C1014 C1019 1.363 . S
C1015 H986 0.950 . S
C1015 C1014 1.397 . S
C1015 C1016 1.334 . S
C1016 H987 0.950 . S
C1016 C1015 1.334 . S
C1016 C1017 1.287 . S
C1017 C1016 1.287 . S
C1017 C1018 1.524 . S
C1017 H1020 0.999 . S
C1018 H988 0.950 . S
C1018 C1017 1.524 . S
C1018 C1019 1.415 . S
C1019 H989 0.950 . S
C1019 C1014 1.363 . S
C1019 C1018 1.415 . S
H1020 C1017 0.999 . S
H1021 C1002 0.913 . S
H1022 C1040 0.951 . S
H1023 C1042 0.951 . S
H1024 C1044 0.950 . S
H1025 C1045 0.950 . S
H1026 C1047 0.950 . S
H1027 C1050 0.950 . S
H1028 C1051 0.950 . S
H1029 C1053 0.950 . S
H1030 C1054 0.950 . S
H1031 C1055 0.951 . S
H1032 C1057 0.951 . S
H1033 C1059 0.950 . S
H1034 C1060 0.950 . S
H1035 C1062 0.950 . S
H1036 C1065 0.950 . S
H1037 C1066 0.950 . S
H1038 C1068 0.950 . S
H1039 C1069 0.950 . S
C1040 H1022 0.951 . S
C1040 C1041 1.366 . S
C1040 C1042 1.388 . S
C1041 C1040 1.366 . S
C1041 C1045 1.385 . S
C1042 H1023 0.951 . S
C1042 C1040 1.388 . S
C1042 C1043 1.366 . S
C1043 C1042 1.366 . S
C1043 C1044 1.414 . S
C1043 C1046 1.499 . S
C1044 H1024 0.950 . S
C1044 C1043 1.414 . S
C1044 C1045 1.374 . S
C1045 H1025 0.950 . S
C1045 C1041 1.385 . S
C1045 C1044 1.374 . S
C1046 C1043 1.499 . S
C1046 C1047 1.373 . S
C1046 C1048 1.389 . S
C1047 H1026 0.950 . S
C1047 C1046 1.373 . S
C1047 C1063 1.377 . S
C1048 C1046 1.389 . S
C1048 C1049 1.524 . S
C1048 C1062 1.377 . S
C1049 C1048 1.524 . S
C1049 C1050 1.397 . S
C1049 C1054 1.363 . S
C1050 H1027 0.950 . S
C1050 C1049 1.397 . S
C1050 C1051 1.334 . S
C1051 H1028 0.950 . S
C1051 C1050 1.334 . S
C1051 C1052 1.287 . S
C1052 C1051 1.287 . S
C1052 C1053 1.524 . S
C1052 H1071 0.913 . S
C1053 H1029 0.950 . S
C1053 C1052 1.524 . S
C1053 C1054 1.415 . S
C1054 H1030 0.950 . S
C1054 C1049 1.363 . S
C1054 C1053 1.415 . S
C1055 H1031 0.951 . S
C1055 C1056 1.366 . S
C1055 C1057 1.388 . S
C1056 C1055 1.366 . S
C1056 C1060 1.385 . S
C1057 H1032 0.951 . S
C1057 C1055 1.388 . S
C1057 C1058 1.366 . S
C1058 C1057 1.366 . S
C1058 C1059 1.414 . S
C1058 C1061 1.499 . S
C1059 H1033 0.950 . S
C1059 C1058 1.414 . S
C1059 C1060 1.374 . S
C1060 H1034 0.950 . S
C1060 C1056 1.385 . S
C1060 C1059 1.374 . S
C1061 C1058 1.499 . S
C1061 C1062 1.373 . S
C1061 C1063 1.389 . S
C1062 H1035 0.950 . S
C1062 C1048 1.377 . S
C1062 C1061 1.373 . S
C1063 C1047 1.377 . S
C1063 C1061 1.389 . S
C1063 C1064 1.524 . S
C1064 C1063 1.524 . S
C1064 C1065 1.397 . S
C1064 C1069 1.363 . S
C1065 H1036 0.950 . S
C1065 C1064 1.397 . S
C1065 C1066 1.334 . S
C1066 H1037 0.950 . S
C1066 C1065 1.334 . S
C1066 C1067 1.287 . S
C1067 C1066 1.287 . S
C1067 C1068 1.524 . S
C1067 H1070 0.999 . S
C1068 H1038 0.950 . S
C1068 C1067 1.524 . S
C1068 C1069 1.415 . S
C1069 H1039 0.950 . S
C1069 C1064 1.363 . S
C1069 C1068 1.415 . S
H1070 C1067 0.999 . S
H1071 C1052 0.913 . S
H1072 C1090 0.951 . S
H1073 C1092 0.951 . S
H1074 C1094 0.950 . S
H1075 C1095 0.950 . S
H1076 C1097 0.950 . S
H1077 C1100 0.950 . S
H1078 C1101 0.950 . S
H1079 C1103 0.950 . S
H1080 C1104 0.950 . S
H1081 C1105 0.951 . S
H1082 C1107 0.951 . S
H1083 C1109 0.950 . S
H1084 C1110 0.950 . S
H1085 C1112 0.950 . S
H1086 C1115 0.950 . S
H1087 C1116 0.950 . S
H1088 C1118 0.950 . S
H1089 C1119 0.950 . S
C1090 H1072 0.951 . S
C1090 C1091 1.366 1_565 S
C1090 C1092 1.388 . S
C1091 C1090 1.366 1_545 S
C1091 C1095 1.385 . S
C1092 H1073 0.951 . S
C1092 C1090 1.388 . S
C1092 C1093 1.367 . S
C1093 C1092 1.367 . S
C1093 C1094 1.412 1_565 S
C1093 C1096 1.499 . S
C1094 H1074 0.950 . S
C1094 C1093 1.412 1_545 S
C1094 C1095 1.374 . S
C1095 H1075 0.950 . S
C1095 C1091 1.385 . S
C1095 C1094 1.374 . S
C1096 C1093 1.499 . S
C1096 C1097 1.353 1_565 S
C1096 C1098 1.409 . S
C1097 H1076 0.950 . S
C1097 C1096 1.353 1_545 S
C1097 C1113 1.377 . S
C1098 C1096 1.409 . S
C1098 C1099 1.524 . S
C1098 C1112 1.377 . S
C1099 C1098 1.524 . S
C1099 C1100 1.397 . S
C1099 C1104 1.363 . S
C1100 H1077 0.950 . S
C1100 C1099 1.397 . S
C1100 C1101 1.334 . S
C1101 H1078 0.950 . S
C1101 C1100 1.334 . S
C1101 C1102 1.287 . S
C1102 C1101 1.287 . S
C1102 C1103 1.524 . S
C1102 H1121 0.913 . S
C1103 H1079 0.950 . S
C1103 C1102 1.524 . S
C1103 C1104 1.415 . S
C1104 H1080 0.950 . S
C1104 C1099 1.363 . S
C1104 C1103 1.415 . S
C1105 H1081 0.951 . S
C1105 C1106 1.366 1_545 S
C1105 C1107 1.388 . S
C1106 C1105 1.366 1_565 S
C1106 C1110 1.385 . S
C1107 H1082 0.951 . S
C1107 C1105 1.388 . S
C1107 C1108 1.366 1_545 S
C1108 C1107 1.366 1_565 S
C1108 C1109 1.414 . S
C1108 C1111 1.499 . S
C1109 H1083 0.950 . S
C1109 C1108 1.414 . S
C1109 C1110 1.374 . S
C1110 H1084 0.950 . S
C1110 C1106 1.385 . S
C1110 C1109 1.374 . S
C1111 C1108 1.499 . S
C1111 C1112 1.373 . S
C1111 C1113 1.389 1_565 S
C1112 H1085 0.950 . S
C1112 C1098 1.377 . S
C1112 C1111 1.373 . S
C1113 C1097 1.377 . S
C1113 C1111 1.389 1_545 S
C1113 C1114 1.524 . S
C1114 C1113 1.524 . S
C1114 C1115 1.397 . S
C1114 C1119 1.363 . S
C1115 H1086 0.950 . S
C1115 C1114 1.397 . S
C1115 C1116 1.334 . S
C1116 H1087 0.950 . S
C1116 C1115 1.334 . S
C1116 C1117 1.287 . S
C1117 C1116 1.287 . S
C1117 C1118 1.524 . S
C1117 H1120 0.999 . S
C1118 H1088 0.950 . S
C1118 C1117 1.524 . S
C1118 C1119 1.415 . S
C1119 H1089 0.950 . S
C1119 C1114 1.363 . S
C1119 C1118 1.415 . S
H1120 C1117 0.999 . S
H1121 C1102 0.913 . S
H1122 C1140 0.951 . S
H1123 C1142 0.951 . S
H1124 C1144 0.950 . S
H1125 C1145 0.950 . S
H1126 C1147 0.950 . S
H1127 C1150 0.950 . S
H1128 C1151 0.950 . S
H1129 C1153 0.950 . S
H1130 C1154 0.950 . S
H1131 C1155 0.951 . S
H1132 C1157 0.951 . S
H1133 C1159 0.950 . S
H1134 C1160 0.950 . S
H1135 C1162 0.950 . S
H1136 C1165 0.950 . S
H1137 C1166 0.950 . S
H1138 C1168 0.950 . S
H1139 C1169 0.950 . S
C1140 H1122 0.951 . S
C1140 C1141 1.366 . S
C1140 C1142 1.388 . S
C1141 C1140 1.366 . S
C1141 C1145 1.385 . S
C1142 H1123 0.951 . S
C1142 C1140 1.388 . S
C1142 C1143 1.366 . S
C1143 C1142 1.366 . S
C1143 C1144 1.414 . S
C1143 C1146 1.499 . S
C1144 H1124 0.950 . S
C1144 C1143 1.414 . S
C1144 C1145 1.374 . S
C1145 H1125 0.950 . S
C1145 C1141 1.385 . S
C1145 C1144 1.374 . S
C1146 C1143 1.499 . S
C1146 C1147 1.373 . S
C1146 C1148 1.389 . S
C1147 H1126 0.950 . S
C1147 C1146 1.373 . S
C1147 C1163 1.377 . S
C1148 C1146 1.389 . S
C1148 C1149 1.524 . S
C1148 C1162 1.377 . S
C1149 C1148 1.524 . S
C1149 C1150 1.397 . S
C1149 C1154 1.363 . S
C1150 H1127 0.950 . S
C1150 C1149 1.397 . S
C1150 C1151 1.334 . S
C1151 H1128 0.950 . S
C1151 C1150 1.334 . S
C1151 C1152 1.287 . S
C1152 C1151 1.287 . S
C1152 C1153 1.524 . S
C1152 H1171 0.913 . S
C1153 H1129 0.950 . S
C1153 C1152 1.524 . S
C1153 C1154 1.415 . S
C1154 H1130 0.950 . S
C1154 C1149 1.363 . S
C1154 C1153 1.415 . S
C1155 H1131 0.951 . S
C1155 C1156 1.366 . S
C1155 C1157 1.388 . S
C1156 C1155 1.366 . S
C1156 C1160 1.385 . S
C1157 H1132 0.951 . S
C1157 C1155 1.388 . S
C1157 C1158 1.366 . S
C1158 C1157 1.366 . S
C1158 C1159 1.414 . S
C1158 C1161 1.499 . S
C1159 H1133 0.950 . S
C1159 C1158 1.414 . S
C1159 C1160 1.374 . S
C1160 H1134 0.950 . S
C1160 C1156 1.385 . S
C1160 C1159 1.374 . S
C1161 C1158 1.499 . S
C1161 C1162 1.373 . S
C1161 C1163 1.389 . S
C1162 H1135 0.950 . S
C1162 C1148 1.377 . S
C1162 C1161 1.373 . S
C1163 C1147 1.377 . S
C1163 C1161 1.389 . S
C1163 C1164 1.524 . S
C1164 C1163 1.524 . S
C1164 C1165 1.397 . S
C1164 C1169 1.363 . S
C1165 H1136 0.950 . S
C1165 C1164 1.397 . S
C1165 C1166 1.334 . S
C1166 H1137 0.950 . S
C1166 C1165 1.334 . S
C1166 C1167 1.287 . S
C1167 C1166 1.287 . S
C1167 C1168 1.524 . S
C1167 H1170 0.999 . S
C1168 H1138 0.950 . S
C1168 C1167 1.524 . S
C1168 C1169 1.415 . S
C1169 H1139 0.950 . S
C1169 C1164 1.363 . S
C1169 C1168 1.415 . S
H1170 C1167 0.999 . S
H1171 C1152 0.913 . S
H1172 C1190 0.951 . S
H1173 C1192 0.951 . S
H1174 C1194 0.950 . S
H1175 C1195 0.950 . S
H1176 C1197 0.950 1_565 S
H1177 C1200 0.950 1_565 S
H1178 C1201 0.950 . S
H1179 C1203 0.950 . S
H1180 C1204 0.950 . S
H1181 C1205 0.951 . S
H1182 C1207 0.951 . S
H1183 C1209 0.950 . S
H1184 C1210 0.950 . S
H1185 C1212 0.950 . S
H1186 C1215 0.950 . S
H1187 C1216 0.950 . S
H1188 C1218 0.950 . S
H1189 C1219 0.950 . S
C1190 H1172 0.951 . S
C1190 C1191 1.366 . S
C1190 C1192 1.388 . S
C1191 C1190 1.366 . S
C1191 C1195 1.385 1_545 S
C1192 H1173 0.951 . S
C1192 C1190 1.388 . S
C1192 C1193 1.366 . S
C1193 C1192 1.366 . S
C1193 C1194 1.414 1_545 S
C1193 C1196 1.499 . S
C1194 H1174 0.950 . S
C1194 C1193 1.414 1_565 S
C1194 C1195 1.374 . S
C1195 H1175 0.950 . S
C1195 C1191 1.385 1_565 S
C1195 C1194 1.374 . S
C1196 C1193 1.499 . S
C1196 C1197 1.373 . S
C1196 C1198 1.389 . S
C1197 H1176 0.950 1_545 S
C1197 C1196 1.373 . S
C1197 C1213 1.377 . S
C1198 C1196 1.389 . S
C1198 C1199 1.524 . S
C1198 C1212 1.377 . S
C1199 C1198 1.524 . S
C1199 C1200 1.397 . S
C1199 C1204 1.363 . S
C1200 H1177 0.950 1_545 S
C1200 C1199 1.397 . S
C1200 C1201 1.334 . S
C1201 H1178 0.950 . S
C1201 C1200 1.334 . S
C1201 C1202 1.287 . S
C1202 C1201 1.287 . S
C1202 C1203 1.524 . S
C1202 H1221 0.913 . S
C1203 H1179 0.950 . S
C1203 C1202 1.524 . S
C1203 C1204 1.415 . S
C1204 H1180 0.950 . S
C1204 C1199 1.363 . S
C1204 C1203 1.415 . S
C1205 H1181 0.951 . S
C1205 C1206 1.366 1_565 S
C1205 C1207 1.388 . S
C1206 C1205 1.366 1_545 S
C1206 C1210 1.385 . S
C1207 H1182 0.951 . S
C1207 C1205 1.388 . S
C1207 C1208 1.366 1_565 S
C1208 C1207 1.366 1_545 S
C1208 C1209 1.414 . S
C1208 C1211 1.499 . S
C1209 H1183 0.950 . S
C1209 C1208 1.414 . S
C1209 C1210 1.374 . S
C1210 H1184 0.950 . S
C1210 C1206 1.385 . S
C1210 C1209 1.374 . S
C1211 C1208 1.499 . S
C1211 C1212 1.373 . S
C1211 C1213 1.389 . S
C1212 H1185 0.950 . S
C1212 C1198 1.377 . S
C1212 C1211 1.373 . S
C1213 C1197 1.377 . S
C1213 C1211 1.389 . S
C1213 C1214 1.517 1_545 S
C1214 C1213 1.517 1_565 S
C1214 C1215 1.376 1_565 S
C1214 C1219 1.389 . S
C1215 H1186 0.950 . S
C1215 C1214 1.376 1_545 S
C1215 C1216 1.334 . S
C1216 H1187 0.950 . S
C1216 C1215 1.334 . S
C1216 C1217 1.287 1_545 S
C1217 C1216 1.287 1_565 S
C1217 C1218 1.524 . S
C1217 H1220 0.999 . S
C1218 H1188 0.950 . S
C1218 C1217 1.524 . S
C1218 C1219 1.415 . S
C1219 H1189 0.950 . S
C1219 C1214 1.389 . S
C1219 C1218 1.415 . S
H1220 C1217 0.999 . S
H1221 C1202 0.913 . S
H1222 C1240 0.951 . S
H1223 C1242 0.951 . S
H1224 C1244 0.950 . S
H1225 C1245 0.950 . S
H1226 C1247 0.950 . S
H1227 C1250 0.950 . S
H1228 C1251 0.950 . S
H1229 C1253 0.950 . S
H1230 C1254 0.950 . S
H1231 C1255 0.951 . S
H1232 C1257 0.951 . S
H1233 C1259 0.950 . S
H1234 C1260 0.950 . S
H1235 C1262 0.950 . S
H1236 C1265 0.950 . S
H1237 C1266 0.950 . S
H1238 C1268 0.950 . S
H1239 C1269 0.950 . S
C1240 H1222 0.951 . S
C1240 C1241 1.366 . S
C1240 C1242 1.388 . S
C1241 C1240 1.366 . S
C1241 C1245 1.385 . S
C1242 H1223 0.951 . S
C1242 C1240 1.388 . S
C1242 C1243 1.366 . S
C1243 C1242 1.366 . S
C1243 C1244 1.414 . S
C1243 C1246 1.499 . S
C1244 H1224 0.950 . S
C1244 C1243 1.414 . S
C1244 C1245 1.374 . S
C1245 H1225 0.950 . S
C1245 C1241 1.385 . S
C1245 C1244 1.374 . S
C1246 C1243 1.499 . S
C1246 C1247 1.373 . S
C1246 C1248 1.389 . S
C1247 H1226 0.950 . S
C1247 C1246 1.373 . S
C1247 C1263 1.377 . S
C1248 C1246 1.389 . S
C1248 C1249 1.524 . S
C1248 C1262 1.377 . S
C1249 C1248 1.524 . S
C1249 C1250 1.397 . S
C1249 C1254 1.363 . S
C1250 H1227 0.950 . S
C1250 C1249 1.397 . S
C1250 C1251 1.334 . S
C1251 H1228 0.950 . S
C1251 C1250 1.334 . S
C1251 C1252 1.287 . S
C1252 C1251 1.287 . S
C1252 C1253 1.524 . S
C1252 H1271 0.913 . S
C1253 H1229 0.950 . S
C1253 C1252 1.524 . S
C1253 C1254 1.415 . S
C1254 H1230 0.950 . S
C1254 C1249 1.363 . S
C1254 C1253 1.415 . S
C1255 H1231 0.951 . S
C1255 C1256 1.366 . S
C1255 C1257 1.388 . S
C1256 C1255 1.366 . S
C1256 C1260 1.385 . S
C1257 H1232 0.951 . S
C1257 C1255 1.388 . S
C1257 C1258 1.366 . S
C1258 C1257 1.366 . S
C1258 C1259 1.414 . S
C1258 C1261 1.499 . S
C1259 H1233 0.950 . S
C1259 C1258 1.414 . S
C1259 C1260 1.374 . S
C1260 H1234 0.950 . S
C1260 C1256 1.385 . S
C1260 C1259 1.374 . S
C1261 C1258 1.499 . S
C1261 C1262 1.373 . S
C1261 C1263 1.389 . S
C1262 H1235 0.950 . S
C1262 C1248 1.377 . S
C1262 C1261 1.373 . S
C1263 C1247 1.377 . S
C1263 C1261 1.389 . S
C1263 C1264 1.524 . S
C1264 C1263 1.524 . S
C1264 C1265 1.397 . S
C1264 C1269 1.363 . S
C1265 H1236 0.950 . S
C1265 C1264 1.397 . S
C1265 C1266 1.334 . S
C1266 H1237 0.950 . S
C1266 C1265 1.334 . S
C1266 C1267 1.287 . S
C1267 C1266 1.287 . S
C1267 C1268 1.524 . S
C1267 H1270 0.999 . S
C1268 H1238 0.950 . S
C1268 C1267 1.524 . S
C1268 C1269 1.415 . S
C1269 H1239 0.950 . S
C1269 C1264 1.363 . S
C1269 C1268 1.415 . S
H1270 C1267 0.999 . S
H1271 C1252 0.913 . S
H1272 C1290 0.951 . S
H1273 C1292 0.951 . S
H1274 C1294 0.950 . S
H1275 C1295 0.950 . S
H1276 C1297 0.950 . S
H1277 C1300 0.950 1_565 S
H1278 C1301 0.950 . S
H1279 C1303 0.950 . S
H1280 C1304 0.950 . S
H1281 C1305 0.951 . S
H1282 C1307 0.951 . S
H1283 C1309 0.950 . S
H1284 C1310 0.950 . S
H1285 C1312 0.950 . S
H1286 C1315 0.981 . S
H1287 C1316 0.950 1_545 S
H1288 C1318 0.950 . S
H1289 C1319 0.950 . S
C1290 H1272 0.951 . S
C1290 C1291 1.366 . S
C1290 C1292 1.388 . S
C1291 C1290 1.366 . S
C1291 C1295 1.385 1_545 S
C1292 H1273 0.951 . S
C1292 C1290 1.388 . S
C1292 C1293 1.366 . S
C1293 C1292 1.366 . S
C1293 C1294 1.414 1_545 S
C1293 C1296 1.499 . S
C1294 H1274 0.950 . S
C1294 C1293 1.414 1_565 S
C1294 C1295 1.374 . S
C1295 H1275 0.950 . S
C1295 C1291 1.385 1_565 S
C1295 C1294 1.374 . S
C1296 C1293 1.499 . S
C1296 C1297 1.373 1_545 S
C1296 C1298 1.389 . S
C1297 H1276 0.950 . S
C1297 C1296 1.373 1_565 S
C1297 C1313 1.377 . S
C1298 C1296 1.389 . S
C1298 C1299 1.524 . S
C1298 C1312 1.377 . S
C1299 C1298 1.524 . S
C1299 C1300 1.397 . S
C1299 C1304 1.363 . S
C1300 H1277 0.950 1_545 S
C1300 C1299 1.397 . S
C1300 C1301 1.334 . S
C1301 H1278 0.950 . S
C1301 C1300 1.334 . S
C1301 C1302 1.287 . S
C1302 C1301 1.287 . S
C1302 C1303 1.524 . S
C1302 H1321 0.913 . S
C1303 H1279 0.950 . S
C1303 C1302 1.524 . S
C1303 C1304 1.415 . S
C1304 H1280 0.950 . S
C1304 C1299 1.363 . S
C1304 C1303 1.415 . S
C1305 H1281 0.951 . S
C1305 C1306 1.366 1_565 S
C1305 C1307 1.388 . S
C1306 C1305 1.366 1_545 S
C1306 C1310 1.385 . S
C1307 H1282 0.951 . S
C1307 C1305 1.388 . S
C1307 C1308 1.366 1_565 S
C1308 C1307 1.366 1_545 S
C1308 C1309 1.414 . S
C1308 C1311 1.499 . S
C1309 H1283 0.950 . S
C1309 C1308 1.414 . S
C1309 C1310 1.374 . S
C1310 H1284 0.950 . S
C1310 C1306 1.385 . S
C1310 C1309 1.374 . S
C1311 C1308 1.499 . S
C1311 C1312 1.373 . S
C1311 C1313 1.389 1_545 S
C1312 H1285 0.950 . S
C1312 C1298 1.377 . S
C1312 C1311 1.373 . S
C1313 C1297 1.377 . S
C1313 C1311 1.389 1_565 S
C1313 C1314 1.524 . S
C1314 C1313 1.524 . S
C1314 C1315 1.377 1_565 S
C1314 C1319 1.363 . S
C1315 H1286 0.981 . S
C1315 C1314 1.377 1_545 S
C1315 C1316 1.324 1_445 S
C1316 H1287 0.950 1_565 S
C1316 C1315 1.324 1_665 S
C1316 C1317 1.287 . S
C1317 C1316 1.287 . S
C1317 C1318 1.524 1_655 S
C1317 H1320 0.999 . S
C1318 H1288 0.950 . S
C1318 C1317 1.524 1_455 S
C1318 C1319 1.415 . S
C1319 H1289 0.950 . S
C1319 C1314 1.363 . S
C1319 C1318 1.415 . S
H1320 C1317 0.999 . S
H1321 C1302 0.913 . S
H1322 C1340 0.951 . S
H1323 C1342 0.951 . S
H1324 C1344 0.950 . S
H1325 C1345 0.950 . S
H1326 C1347 0.950 . S
H1327 C1350 0.950 . S
H1328 C1351 0.950 . S
H1329 C1353 0.950 . S
H1330 C1354 0.950 . S
H1331 C1355 0.951 . S
H1332 C1357 0.951 . S
H1333 C1359 0.950 . S
H1334 C1360 0.950 . S
H1335 C1362 0.950 . S
H1336 C1365 0.950 . S
H1337 C1366 0.950 . S
H1338 C1368 0.950 . S
H1339 C1369 0.950 . S
C1340 H1322 0.951 . S
C1340 C1341 1.366 . S
C1340 C1342 1.388 . S
C1341 C1340 1.366 . S
C1341 C1345 1.385 . S
C1342 H1323 0.951 . S
C1342 C1340 1.388 . S
C1342 C1343 1.366 . S
C1343 C1342 1.366 . S
C1343 C1344 1.414 . S
C1343 C1346 1.499 . S
C1344 H1324 0.950 . S
C1344 C1343 1.414 . S
C1344 C1345 1.374 . S
C1345 H1325 0.950 . S
C1345 C1341 1.385 . S
C1345 C1344 1.374 . S
C1346 C1343 1.499 . S
C1346 C1347 1.373 . S
C1346 C1348 1.389 . S
C1347 H1326 0.950 . S
C1347 C1346 1.373 . S
C1347 C1363 1.377 . S
C1348 C1346 1.389 . S
C1348 C1349 1.524 . S
C1348 C1362 1.377 . S
C1349 C1348 1.524 . S
C1349 C1350 1.397 . S
C1349 C1354 1.363 . S
C1350 H1327 0.950 . S
C1350 C1349 1.397 . S
C1350 C1351 1.334 . S
C1351 H1328 0.950 . S
C1351 C1350 1.334 . S
C1351 C1352 1.287 . S
C1352 C1351 1.287 . S
C1352 C1353 1.524 . S
C1352 H1371 0.913 . S
C1353 H1329 0.950 . S
C1353 C1352 1.524 . S
C1353 C1354 1.415 . S
C1354 H1330 0.950 . S
C1354 C1349 1.363 . S
C1354 C1353 1.415 . S
C1355 H1331 0.951 . S
C1355 C1356 1.366 . S
C1355 C1357 1.388 . S
C1356 C1355 1.366 . S
C1356 C1360 1.385 . S
C1357 H1332 0.951 . S
C1357 C1355 1.388 . S
C1357 C1358 1.366 . S
C1358 C1357 1.366 . S
C1358 C1359 1.414 . S
C1358 C1361 1.499 . S
C1359 H1333 0.950 . S
C1359 C1358 1.414 . S
C1359 C1360 1.374 . S
C1360 H1334 0.950 . S
C1360 C1356 1.385 . S
C1360 C1359 1.374 . S
C1361 C1358 1.499 . S
C1361 C1362 1.373 . S
C1361 C1363 1.389 . S
C1362 H1335 0.950 . S
C1362 C1348 1.377 . S
C1362 C1361 1.373 . S
C1363 C1347 1.377 . S
C1363 C1361 1.389 . S
C1363 C1364 1.524 . S
C1364 C1363 1.524 . S
C1364 C1365 1.397 . S
C1364 C1369 1.363 . S
C1365 H1336 0.950 . S
C1365 C1364 1.397 . S
C1365 C1366 1.334 . S
C1366 H1337 0.950 . S
C1366 C1365 1.334 . S
C1366 C1367 1.287 . S
C1367 C1366 1.287 . S
C1367 C1368 1.524 . S
C1367 H1370 0.999 . S
C1368 H1338 0.950 . S
C1368 C1367 1.524 . S
C1368 C1369 1.415 . S
C1369 H1339 0.950 . S
C1369 C1364 1.363 . S
C1369 C1368 1.415 . S
H1370 C1367 0.999 . S
H1371 C1352 0.913 . S
H1372 C1390 0.951 . S
H1373 C1392 0.951 . S
H1374 C1394 0.950 . S
H1375 C1395 0.950 . S
H1376 C1397 0.950 . S
H1377 C1400 0.950 . S
H1378 C1401 0.950 . S
H1379 C1403 0.950 . S
H1380 C1404 0.950 . S
H1381 C1405 0.951 . S
H1382 C1407 0.951 . S
H1383 C1409 0.950 . S
H1384 C1410 0.950 . S
H1385 C1412 0.951 . S
H1386 C1415 0.950 . S
H1387 C1416 0.950 . S
H1388 C1418 0.950 . S
H1389 C1419 0.950 . S
C1390 H1372 0.951 . S
C1390 C1391 1.366 1_565 S
C1390 C1392 1.388 . S
C1391 C1390 1.366 1_545 S
C1391 C1395 1.385 . S
C1392 H1373 0.951 . S
C1392 C1390 1.388 . S
C1392 C1393 1.366 1_565 S
C1393 C1392 1.366 1_545 S
C1393 C1394 1.414 . S
C1393 C1396 1.499 . S
C1394 H1374 0.950 . S
C1394 C1393 1.414 . S
C1394 C1395 1.374 . S
C1395 H1375 0.950 . S
C1395 C1391 1.385 . S
C1395 C1394 1.374 . S
C1396 C1393 1.499 . S
C1396 C1397 1.373 . S
C1396 C1398 1.389 . S
C1397 H1376 0.950 . S
C1397 C1396 1.373 . S
C1397 C1413 1.382 . S
C1398 C1396 1.389 . S
C1398 C1399 1.524 . S
C1398 C1412 1.375 1_545 S
C1399 C1398 1.524 . S
C1399 C1400 1.397 . S
C1399 C1404 1.363 1_545 S
C1400 H1377 0.950 . S
C1400 C1399 1.397 . S
C1400 C1401 1.334 . S
C1401 H1378 0.950 . S
C1401 C1400 1.334 . S
C1401 C1402 1.287 . S
C1402 C1401 1.287 . S
C1402 C1403 1.524 1_545 S
C1402 H1421 0.913 . S
C1403 H1379 0.950 . S
C1403 C1402 1.524 1_565 S
C1403 C1404 1.415 . S
C1404 H1380 0.950 . S
C1404 C1399 1.363 1_565 S
C1404 C1403 1.415 . S
C1405 H1381 0.951 . S
C1405 C1406 1.366 1_545 S
C1405 C1407 1.388 . S
C1406 C1405 1.366 1_565 S
C1406 C1410 1.385 . S
C1407 H1382 0.951 . S
C1407 C1405 1.388 . S
C1407 C1408 1.366 1_545 S
C1408 C1407 1.366 1_565 S
C1408 C1409 1.414 . S
C1408 C1411 1.501 . S
C1409 H1383 0.950 . S
C1409 C1408 1.414 . S
C1409 C1410 1.374 . S
C1410 H1384 0.950 . S
C1410 C1406 1.385 . S
C1410 C1409 1.374 . S
C1411 C1408 1.501 . S
C1411 C1412 1.373 . S
C1411 C1413 1.385 1_565 S
C1412 H1385 0.951 . S
C1412 C1398 1.375 1_565 S
C1412 C1411 1.373 . S
C1413 C1397 1.382 . S
C1413 C1411 1.385 1_545 S
C1413 C1414 1.521 1_545 S
C1414 C1413 1.521 1_565 S
C1414 C1415 1.397 . S
C1414 C1419 1.363 1_565 S
C1415 H1386 0.950 . S
C1415 C1414 1.397 . S
C1415 C1416 1.334 . S
C1416 H1387 0.950 . S
C1416 C1415 1.334 . S
C1416 C1417 1.287 . S
C1417 C1416 1.287 . S
C1417 C1418 1.524 1_565 S
C1417 H1420 0.999 . S
C1418 H1388 0.950 . S
C1418 C1417 1.524 1_545 S
C1418 C1419 1.415 . S
C1419 H1389 0.950 . S
C1419 C1414 1.363 1_545 S
C1419 C1418 1.415 . S
H1420 C1417 0.999 . S
H1421 C1402 0.913 . S
H1422 C1440 0.951 . S
H1423 C1442 0.951 . S
H1424 C1444 0.950 . S
H1425 C1445 0.950 . S
H1426 C1447 0.950 . S
H1427 C1450 0.950 . S
H1428 C1451 0.950 . S
H1429 C1453 0.950 . S
H1430 C1454 0.950 . S
H1431 C1455 0.951 . S
H1432 C1457 0.951 . S
H1433 C1459 0.950 . S
H1434 C1460 0.950 . S
H1435 C1462 0.950 . S
H1436 C1465 0.950 . S
H1437 C1466 0.950 . S
H1438 C1468 0.950 . S
H1439 C1469 0.950 . S
C1440 H1422 0.951 . S
C1440 C1441 1.366 . S
C1440 C1442 1.388 . S
C1441 C1440 1.366 . S
C1441 C1445 1.385 . S
C1442 H1423 0.951 . S
C1442 C1440 1.388 . S
C1442 C1443 1.366 . S
C1443 C1442 1.366 . S
C1443 C1444 1.414 . S
C1443 C1446 1.499 . S
C1444 H1424 0.950 . S
C1444 C1443 1.414 . S
C1444 C1445 1.374 . S
C1445 H1425 0.950 . S
C1445 C1441 1.385 . S
C1445 C1444 1.374 . S
C1446 C1443 1.499 . S
C1446 C1447 1.373 . S
C1446 C1448 1.389 . S
C1447 H1426 0.950 . S
C1447 C1446 1.373 . S
C1447 C1463 1.377 . S
C1448 C1446 1.389 . S
C1448 C1449 1.524 . S
C1448 C1462 1.377 . S
C1449 C1448 1.524 . S
C1449 C1450 1.397 . S
C1449 C1454 1.363 . S
C1450 H1427 0.950 . S
C1450 C1449 1.397 . S
C1450 C1451 1.334 . S
C1451 H1428 0.950 . S
C1451 C1450 1.334 . S
C1451 C1452 1.287 . S
C1452 C1451 1.287 . S
C1452 C1453 1.524 . S
C1452 H1471 0.913 . S
C1453 H1429 0.950 . S
C1453 C1452 1.524 . S
C1453 C1454 1.415 . S
C1454 H1430 0.950 . S
C1454 C1449 1.363 . S
C1454 C1453 1.415 . S
C1455 H1431 0.951 . S
C1455 C1456 1.366 . S
C1455 C1457 1.388 . S
C1456 C1455 1.366 . S
C1456 C1460 1.385 . S
C1457 H1432 0.951 . S
C1457 C1455 1.388 . S
C1457 C1458 1.366 . S
C1458 C1457 1.366 . S
C1458 C1459 1.414 . S
C1458 C1461 1.499 . S
C1459 H1433 0.950 . S
C1459 C1458 1.414 . S
C1459 C1460 1.374 . S
C1460 H1434 0.950 . S
C1460 C1456 1.385 . S
C1460 C1459 1.374 . S
C1461 C1458 1.499 . S
C1461 C1462 1.373 . S
C1461 C1463 1.389 . S
C1462 H1435 0.950 . S
C1462 C1448 1.377 . S
C1462 C1461 1.373 . S
C1463 C1447 1.377 . S
C1463 C1461 1.389 . S
C1463 C1464 1.524 . S
C1464 C1463 1.524 . S
C1464 C1465 1.397 . S
C1464 C1469 1.363 . S
C1465 H1436 0.950 . S
C1465 C1464 1.397 . S
C1465 C1466 1.334 . S
C1466 H1437 0.950 . S
C1466 C1465 1.334 . S
C1466 C1467 1.287 . S
C1467 C1466 1.287 . S
C1467 C1468 1.524 . S
C1467 H1470 0.999 . S
C1468 H1438 0.950 . S
C1468 C1467 1.524 . S
C1468 C1469 1.415 . S
C1469 H1439 0.950 . S
C1469 C1464 1.363 . S
C1469 C1468 1.415 . S
H1470 C1467 0.999 . S
H1471 C1452 0.913 . S
H1472 C1490 0.951 . S
H1473 C1492 0.951 . S
H1474 C1494 0.950 . S
H1475 C1495 0.950 . S
H1476 C1497 0.950 . S
H1477 C1500 0.950 . S
H1478 C1501 0.950 . S
H1479 C1503 0.950 . S
H1480 C1504 0.950 . S
H1481 C1505 0.951 . S
H1482 C1507 0.951 . S
H1483 C1509 0.950 . S
H1484 C1510 0.950 . S
H1485 C1512 0.950 . S
H1486 C1515 0.950 . S
H1487 C1516 0.950 . S
H1488 C1518 0.950 . S
H1489 C1519 0.950 . S
C1490 H1472 0.951 . S
C1490 C1491 1.366 1_556 S
C1490 C1492 1.388 . S
C1491 C1490 1.366 1_554 S
C1491 C1495 1.385 . S
C1492 H1473 0.951 . S
C1492 C1490 1.388 . S
C1492 C1493 1.366 1_556 S
C1493 C1492 1.366 1_554 S
C1493 C1494 1.414 . S
C1493 C1496 1.499 . S
C1494 H1474 0.950 . S
C1494 C1493 1.414 . S
C1494 C1495 1.374 . S
C1495 H1475 0.950 . S
C1495 C1491 1.385 . S
C1495 C1494 1.374 . S
C1496 C1493 1.499 . S
C1496 C1497 1.373 . S
C1496 C1498 1.389 1_554 S
C1497 H1476 0.950 . S
C1497 C1496 1.373 . S
C1497 C1513 1.377 . S
C1498 C1496 1.389 1_556 S
C1498 C1499 1.524 . S
C1498 C1512 1.377 . S
C1499 C1498 1.524 . S
C1499 C1500 1.397 . S
C1499 C1504 1.363 . S
C1500 H1477 0.950 . S
C1500 C1499 1.397 . S
C1500 C1501 1.334 . S
C1501 H1478 0.950 . S
C1501 C1500 1.334 . S
C1501 C1502 1.287 . S
C1502 C1501 1.287 . S
C1502 C1503 1.524 . S
C1502 H1521 0.913 . S
C1503 H1479 0.950 . S
C1503 C1502 1.524 . S
C1503 C1504 1.415 . S
C1504 H1480 0.950 . S
C1504 C1499 1.363 . S
C1504 C1503 1.415 . S
C1505 H1481 0.951 . S
C1505 C1506 1.366 1_554 S
C1505 C1507 1.388 . S
C1506 C1505 1.366 1_556 S
C1506 C1510 1.385 . S
C1507 H1482 0.951 . S
C1507 C1505 1.388 . S
C1507 C1508 1.366 . S
C1508 C1507 1.366 . S
C1508 C1509 1.414 1_554 S
C1508 C1511 1.499 . S
C1509 H1483 0.950 . S
C1509 C1508 1.414 1_556 S
C1509 C1510 1.374 . S
C1510 H1484 0.950 . S
C1510 C1506 1.385 . S
C1510 C1509 1.374 . S
C1511 C1508 1.499 . S
C1511 C1512 1.373 1_554 S
C1511 C1513 1.389 . S
C1512 H1485 0.950 . S
C1512 C1498 1.377 . S
C1512 C1511 1.373 1_556 S
C1513 C1497 1.377 . S
C1513 C1511 1.389 . S
C1513 C1514 1.524 . S
C1514 C1513 1.524 . S
C1514 C1515 1.397 . S
C1514 C1519 1.363 . S
C1515 H1486 0.950 . S
C1515 C1514 1.397 . S
C1515 C1516 1.334 . S
C1516 H1487 0.950 . S
C1516 C1515 1.334 . S
C1516 C1517 1.287 . S
C1517 C1516 1.287 . S
C1517 C1518 1.524 . S
C1517 H1520 0.999 . S
C1518 H1488 0.950 . S
C1518 C1517 1.524 . S
C1518 C1519 1.415 . S
C1519 H1489 0.950 . S
C1519 C1514 1.363 . S
C1519 C1518 1.415 . S
H1520 C1517 0.999 . S
H1521 C1502 0.913 . S
H1522 C1540 0.951 . S
H1523 C1542 0.951 . S
H1524 C1544 0.950 1_556 S
H1525 C1545 0.950 1_556 S
H1526 C1547 0.950 . S
H1527 C1550 0.950 . S
H1528 C1551 0.950 . S
H1529 C1553 0.950 . S
H1530 C1554 0.950 . S
H1531 C1555 0.951 . S
H1532 C1557 0.951 . S
H1533 C1559 0.950 . S
H1534 C1560 0.950 . S
H1535 C1562 0.950 . S
H1536 C1565 0.950 . S
H1537 C1566 0.950 . S
H1538 C1568 0.950 . S
H1539 C1569 0.950 . S
C1540 H1522 0.951 . S
C1540 C1541 1.366 . S
C1540 C1542 1.388 . S
C1541 C1540 1.366 . S
C1541 C1545 1.385 . S
C1542 H1523 0.951 . S
C1542 C1540 1.388 . S
C1542 C1543 1.366 . S
C1543 C1542 1.366 . S
C1543 C1544 1.414 . S
C1543 C1546 1.499 . S
C1544 H1524 0.950 1_554 S
C1544 C1543 1.414 . S
C1544 C1545 1.374 . S
C1545 H1525 0.950 1_554 S
C1545 C1541 1.385 . S
C1545 C1544 1.374 . S
C1546 C1543 1.499 . S
C1546 C1547 1.373 1_554 S
C1546 C1548 1.389 . S
C1547 H1526 0.950 . S
C1547 C1546 1.373 1_556 S
C1547 C1563 1.377 . S
C1548 C1546 1.389 . S
C1548 C1549 1.524 . S
C1548 C1562 1.377 . S
C1549 C1548 1.524 . S
C1549 C1550 1.397 . S
C1549 C1554 1.363 . S
C1550 H1527 0.950 . S
C1550 C1549 1.397 . S
C1550 C1551 1.334 . S
C1551 H1528 0.950 . S
C1551 C1550 1.334 . S
C1551 C1552 1.287 . S
C1552 C1551 1.287 . S
C1552 C1553 1.524 . S
C1552 H1571 0.913 . S
C1553 H1529 0.950 . S
C1553 C1552 1.524 . S
C1553 C1554 1.415 . S
C1554 H1530 0.950 . S
C1554 C1549 1.363 . S
C1554 C1553 1.415 . S
C1555 H1531 0.951 . S
C1555 C1556 1.366 . S
C1555 C1557 1.388 . S
C1556 C1555 1.366 . S
C1556 C1560 1.385 . S
C1557 H1532 0.951 . S
C1557 C1555 1.388 . S
C1557 C1558 1.366 . S
C1558 C1557 1.366 . S
C1558 C1559 1.414 . S
C1558 C1561 1.499 . S
C1559 H1533 0.950 . S
C1559 C1558 1.414 . S
C1559 C1560 1.374 . S
C1560 H1534 0.950 . S
C1560 C1556 1.385 . S
C1560 C1559 1.374 . S
C1561 C1558 1.499 . S
C1561 C1562 1.373 . S
C1561 C1563 1.389 1_554 S
C1562 H1535 0.950 . S
C1562 C1548 1.377 . S
C1562 C1561 1.373 . S
C1563 C1547 1.377 . S
C1563 C1561 1.389 1_556 S
C1563 C1564 1.524 . S
C1564 C1563 1.524 . S
C1564 C1565 1.397 . S
C1564 C1569 1.363 . S
C1565 H1536 0.950 . S
C1565 C1564 1.397 . S
C1565 C1566 1.334 . S
C1566 H1537 0.950 . S
C1566 C1565 1.334 . S
C1566 C1567 1.287 . S
C1567 C1566 1.287 . S
C1567 C1568 1.524 . S
C1567 H1570 0.999 . S
C1568 H1538 0.950 . S
C1568 C1567 1.524 . S
C1568 C1569 1.415 . S
C1569 H1539 0.950 . S
C1569 C1564 1.363 . S
C1569 C1568 1.415 . S
H1570 C1567 0.999 . S
H1571 C1552 0.913 . S
H1572 C1590 0.951 . S
H1573 C1592 0.951 . S
H1574 C1594 0.950 . S
H1575 C1595 0.950 . S
H1576 C1597 0.950 . S
H1577 C1600 0.950 . S
H1578 C1601 0.950 . S
H1579 C1603 0.950 . S
H1580 C1604 0.950 . S
H1581 C1605 0.951 . S
H1582 C1607 0.951 . S
H1583 C1609 0.950 . S
H1584 C1610 0.950 . S
H1585 C1612 0.950 . S
H1586 C1615 0.950 . S
H1587 C1616 0.950 . S
H1588 C1618 0.950 . S
H1589 C1619 0.950 . S
C1590 H1572 0.951 . S
C1590 C1591 1.366 . S
C1590 C1592 1.388 . S
C1591 C1590 1.366 . S
C1591 C1595 1.385 . S
C1592 H1573 0.951 . S
C1592 C1590 1.388 . S
C1592 C1593 1.366 . S
C1593 C1592 1.366 . S
C1593 C1594 1.414 . S
C1593 C1596 1.499 . S
C1594 H1574 0.950 . S
C1594 C1593 1.414 . S
C1594 C1595 1.374 . S
C1595 H1575 0.950 . S
C1595 C1591 1.385 . S
C1595 C1594 1.374 . S
C1596 C1593 1.499 . S
C1596 C1597 1.373 . S
C1596 C1598 1.389 . S
C1597 H1576 0.950 . S
C1597 C1596 1.373 . S
C1597 C1613 1.377 . S
C1598 C1596 1.389 . S
C1598 C1599 1.524 . S
C1598 C1612 1.377 . S
C1599 C1598 1.524 . S
C1599 C1600 1.397 . S
C1599 C1604 1.363 . S
C1600 H1577 0.950 . S
C1600 C1599 1.397 . S
C1600 C1601 1.334 . S
C1601 H1578 0.950 . S
C1601 C1600 1.334 . S
C1601 C1602 1.287 . S
C1602 C1601 1.287 . S
C1602 C1603 1.524 . S
C1602 H1621 0.913 . S
C1603 H1579 0.950 . S
C1603 C1602 1.524 . S
C1603 C1604 1.415 . S
C1604 H1580 0.950 . S
C1604 C1599 1.363 . S
C1604 C1603 1.415 . S
C1605 H1581 0.951 . S
C1605 C1606 1.366 . S
C1605 C1607 1.388 . S
C1606 C1605 1.366 . S
C1606 C1610 1.385 . S
C1607 H1582 0.951 . S
C1607 C1605 1.388 . S
C1607 C1608 1.366 . S
C1608 C1607 1.366 . S
C1608 C1609 1.414 . S
C1608 C1611 1.499 . S
C1609 H1583 0.950 . S
C1609 C1608 1.414 . S
C1609 C1610 1.374 . S
C1610 H1584 0.950 . S
C1610 C1606 1.385 . S
C1610 C1609 1.374 . S
C1611 C1608 1.499 . S
C1611 C1612 1.373 . S
C1611 C1613 1.389 . S
C1612 H1585 0.950 . S
C1612 C1598 1.377 . S
C1612 C1611 1.373 . S
C1613 C1597 1.377 . S
C1613 C1611 1.389 . S
C1613 C1614 1.524 . S
C1614 C1613 1.524 . S
C1614 C1615 1.397 . S
C1614 C1619 1.363 . S
C1615 H1586 0.950 . S
C1615 C1614 1.397 . S
C1615 C1616 1.334 . S
C1616 H1587 0.950 . S
C1616 C1615 1.334 . S
C1616 C1617 1.287 . S
C1617 C1616 1.287 . S
C1617 C1618 1.524 . S
C1617 H1620 0.999 . S
C1618 H1588 0.950 . S
C1618 C1617 1.524 . S
C1618 C1619 1.415 . S
C1619 H1589 0.950 . S
C1619 C1614 1.363 . S
C1619 C1618 1.415 . S
H1620 C1617 0.999 . S
H1621 C1602 0.913 . S
H1622 C1640 0.951 . S
H1623 C1642 0.951 . S
H1624 C1644 0.950 . S
H1625 C1645 0.950 . S
H1626 C1647 0.950 . S
H1627 C1650 0.950 . S
H1628 C1651 0.950 . S
H1629 C1653 0.950 . S
H1630 C1654 0.950 . S
H1631 C1655 0.951 . S
H1632 C1657 0.951 . S
H1633 C1659 0.950 . S
H1634 C1660 0.950 . S
H1635 C1662 0.950 . S
H1636 C1665 0.950 . S
H1637 C1666 0.950 . S
H1638 C1668 0.950 . S
H1639 C1669 0.950 . S
C1640 H1622 0.951 . S
C1640 C1641 1.366 . S
C1640 C1642 1.388 . S
C1641 C1640 1.366 . S
C1641 C1645 1.385 . S
C1642 H1623 0.951 . S
C1642 C1640 1.388 . S
C1642 C1643 1.366 . S
C1643 C1642 1.366 . S
C1643 C1644 1.414 . S
C1643 C1646 1.499 . S
C1644 H1624 0.950 . S
C1644 C1643 1.414 . S
C1644 C1645 1.374 . S
C1645 H1625 0.950 . S
C1645 C1641 1.385 . S
C1645 C1644 1.374 . S
C1646 C1643 1.499 . S
C1646 C1647 1.373 . S
C1646 C1648 1.389 . S
C1647 H1626 0.950 . S
C1647 C1646 1.373 . S
C1647 C1663 1.377 . S
C1648 C1646 1.389 . S
C1648 C1649 1.524 . S
C1648 C1662 1.377 . S
C1649 C1648 1.524 . S
C1649 C1650 1.397 . S
C1649 C1654 1.363 . S
C1650 H1627 0.950 . S
C1650 C1649 1.397 . S
C1650 C1651 1.334 . S
C1651 H1628 0.950 . S
C1651 C1650 1.334 . S
C1651 C1652 1.287 . S
C1652 C1651 1.287 . S
C1652 C1653 1.524 . S
C1652 H1671 0.913 . S
C1653 H1629 0.950 . S
C1653 C1652 1.524 . S
C1653 C1654 1.415 . S
C1654 H1630 0.950 . S
C1654 C1649 1.363 . S
C1654 C1653 1.415 . S
C1655 H1631 0.951 . S
C1655 C1656 1.366 . S
C1655 C1657 1.388 . S
C1656 C1655 1.366 . S
C1656 C1660 1.385 . S
C1657 H1632 0.951 . S
C1657 C1655 1.388 . S
C1657 C1658 1.366 . S
C1658 C1657 1.366 . S
C1658 C1659 1.414 . S
C1658 C1661 1.499 . S
C1659 H1633 0.950 . S
C1659 C1658 1.414 . S
C1659 C1660 1.374 . S
C1660 H1634 0.950 . S
C1660 C1656 1.385 . S
C1660 C1659 1.374 . S
C1661 C1658 1.499 . S
C1661 C1662 1.373 . S
C1661 C1663 1.389 . S
C1662 H1635 0.950 . S
C1662 C1648 1.377 . S
C1662 C1661 1.373 . S
C1663 C1647 1.377 . S
C1663 C1661 1.389 . S
C1663 C1664 1.524 . S
C1664 C1663 1.524 . S
C1664 C1665 1.397 . S
C1664 C1669 1.363 . S
C1665 H1636 0.950 . S
C1665 C1664 1.397 . S
C1665 C1666 1.334 . S
C1666 H1637 0.950 . S
C1666 C1665 1.334 . S
C1666 C1667 1.287 . S
C1667 C1666 1.287 . S
C1667 C1668 1.524 . S
C1667 H1670 0.999 . S
C1668 H1638 0.950 . S
C1668 C1667 1.524 . S
C1668 C1669 1.415 . S
C1669 H1639 0.950 . S
C1669 C1664 1.363 . S
C1669 C1668 1.415 . S
H1670 C1667 0.999 . S
H1671 C1652 0.913 . S
H1672 C1690 0.951 . S
H1673 C1692 0.951 . S
H1674 C1694 0.950 . S
H1675 C1695 0.950 . S
H1676 C1697 0.950 . S
H1677 C1700 0.950 . S
H1678 C1701 0.950 . S
H1679 C1703 0.950 . S
H1680 C1704 0.950 . S
H1681 C1705 0.951 . S
H1682 C1707 0.951 . S
H1683 C1709 0.950 . S
H1684 C1710 0.950 . S
H1685 C1712 0.950 . S
H1686 C1715 0.950 . S
H1687 C1716 0.950 . S
H1688 C1718 0.950 . S
H1689 C1719 0.950 . S
C1690 H1672 0.951 . S
C1690 C1691 1.366 . S
C1690 C1692 1.388 . S
C1691 C1690 1.366 . S
C1691 C1695 1.385 . S
C1692 H1673 0.951 . S
C1692 C1690 1.388 . S
C1692 C1693 1.366 . S
C1693 C1692 1.366 . S
C1693 C1694 1.414 . S
C1693 C1696 1.499 . S
C1694 H1674 0.950 . S
C1694 C1693 1.414 . S
C1694 C1695 1.374 . S
C1695 H1675 0.950 . S
C1695 C1691 1.385 . S
C1695 C1694 1.374 . S
C1696 C1693 1.499 . S
C1696 C1697 1.373 . S
C1696 C1698 1.389 . S
C1697 H1676 0.950 . S
C1697 C1696 1.373 . S
C1697 C1713 1.377 . S
C1698 C1696 1.389 . S
C1698 C1699 1.524 . S
C1698 C1712 1.377 . S
C1699 C1698 1.524 . S
C1699 C1700 1.397 . S
C1699 C1704 1.363 . S
C1700 H1677 0.950 . S
C1700 C1699 1.397 . S
C1700 C1701 1.334 . S
C1701 H1678 0.950 . S
C1701 C1700 1.334 . S
C1701 C1702 1.287 . S
C1702 C1701 1.287 . S
C1702 C1703 1.524 . S
C1702 H1721 0.913 . S
C1703 H1679 0.950 . S
C1703 C1702 1.524 . S
C1703 C1704 1.415 . S
C1704 H1680 0.950 . S
C1704 C1699 1.363 . S
C1704 C1703 1.415 . S
C1705 H1681 0.951 . S
C1705 C1706 1.366 . S
C1705 C1707 1.388 . S
C1706 C1705 1.366 . S
C1706 C1710 1.385 . S
C1707 H1682 0.951 . S
C1707 C1705 1.388 . S
C1707 C1708 1.366 . S
C1708 C1707 1.366 . S
C1708 C1709 1.414 . S
C1708 C1711 1.499 . S
C1709 H1683 0.950 . S
C1709 C1708 1.414 . S
C1709 C1710 1.374 . S
C1710 H1684 0.950 . S
C1710 C1706 1.385 . S
C1710 C1709 1.374 . S
C1711 C1708 1.499 . S
C1711 C1712 1.373 . S
C1711 C1713 1.389 . S
C1712 H1685 0.950 . S
C1712 C1698 1.377 . S
C1712 C1711 1.373 . S
C1713 C1697 1.377 . S
C1713 C1711 1.389 . S
C1713 C1714 1.524 . S
C1714 C1713 1.524 . S
C1714 C1715 1.397 . S
C1714 C1719 1.363 . S
C1715 H1686 0.950 . S
C1715 C1714 1.397 . S
C1715 C1716 1.334 . S
C1716 H1687 0.950 . S
C1716 C1715 1.334 . S
C1716 C1717 1.287 . S
C1717 C1716 1.287 . S
C1717 C1718 1.524 . S
C1717 H1720 0.999 . S
C1718 H1688 0.950 . S
C1718 C1717 1.524 . S
C1718 C1719 1.415 . S
C1719 H1689 0.950 . S
C1719 C1714 1.363 . S
C1719 C1718 1.415 . S
H1720 C1717 0.999 . S
H1721 C1702 0.913 . S
H1722 C1740 0.951 . S
H1723 C1742 0.951 . S
H1724 C1744 0.950 . S
H1725 C1745 0.950 . S
H1726 C1747 0.950 . S
H1727 C1750 0.950 . S
H1728 C1751 0.950 . S
H1729 C1753 0.950 . S
H1730 C1754 0.950 . S
H1731 C1755 0.951 1_545 S
H1732 C1757 0.951 . S
H1733 C1759 0.950 . S
H1734 C1760 0.950 . S
H1735 C1762 0.950 . S
H1736 C1765 0.950 . S
H1737 C1766 0.950 . S
H1738 C1768 0.950 . S
H1739 C1769 0.950 . S
C1740 H1722 0.951 . S
C1740 C1741 1.366 . S
C1740 C1742 1.388 . S
C1741 C1740 1.366 . S
C1741 C1745 1.385 . S
C1742 H1723 0.951 . S
C1742 C1740 1.388 . S
C1742 C1743 1.366 . S
C1743 C1742 1.366 . S
C1743 C1744 1.414 . S
C1743 C1746 1.499 . S
C1744 H1724 0.950 . S
C1744 C1743 1.414 . S
C1744 C1745 1.374 . S
C1745 H1725 0.950 . S
C1745 C1741 1.385 . S
C1745 C1744 1.374 . S
C1746 C1743 1.499 . S
C1746 C1747 1.373 . S
C1746 C1748 1.389 . S
C1747 H1726 0.950 . S
C1747 C1746 1.373 . S
C1747 C1763 1.377 . S
C1748 C1746 1.389 . S
C1748 C1749 1.524 . S
C1748 C1762 1.377 . S
C1749 C1748 1.524 . S
C1749 C1750 1.397 . S
C1749 C1754 1.363 . S
C1750 H1727 0.950 . S
C1750 C1749 1.397 . S
C1750 C1751 1.334 . S
C1751 H1728 0.950 . S
C1751 C1750 1.334 . S
C1751 C1752 1.287 . S
C1752 C1751 1.287 . S
C1752 C1753 1.524 . S
C1752 H1771 0.913 . S
C1753 H1729 0.950 . S
C1753 C1752 1.524 . S
C1753 C1754 1.415 . S
C1754 H1730 0.950 . S
C1754 C1749 1.363 . S
C1754 C1753 1.415 . S
C1755 H1731 0.951 1_565 S
C1755 C1756 1.366 . S
C1755 C1757 1.388 . S
C1756 C1755 1.366 . S
C1756 C1760 1.385 . S
C1757 H1732 0.951 . S
C1757 C1755 1.388 . S
C1757 C1758 1.366 . S
C1758 C1757 1.366 . S
C1758 C1759 1.414 . S
C1758 C1761 1.499 . S
C1759 H1733 0.950 . S
C1759 C1758 1.414 . S
C1759 C1760 1.374 . S
C1760 H1734 0.950 . S
C1760 C1756 1.385 . S
C1760 C1759 1.374 . S
C1761 C1758 1.499 . S
C1761 C1762 1.373 . S
C1761 C1763 1.389 . S
C1762 H1735 0.950 . S
C1762 C1748 1.377 . S
C1762 C1761 1.373 . S
C1763 C1747 1.377 . S
C1763 C1761 1.389 . S
C1763 C1764 1.524 . S
C1764 C1763 1.524 . S
C1764 C1765 1.397 . S
C1764 C1769 1.363 . S
C1765 H1736 0.950 . S
C1765 C1764 1.397 . S
C1765 C1766 1.334 . S
C1766 H1737 0.950 . S
C1766 C1765 1.334 . S
C1766 C1767 1.287 1_565 S
C1767 C1766 1.287 1_545 S
C1767 C1768 1.524 . S
C1767 H1770 0.999 . S
C1768 H1738 0.950 . S
C1768 C1767 1.524 . S
C1768 C1769 1.415 1_545 S
C1769 H1739 0.950 . S
C1769 C1764 1.363 . S
C1769 C1768 1.415 1_565 S
H1770 C1767 0.999 . S
H1771 C1752 0.913 . S
H1772 C1790 0.951 . S
H1773 C1792 0.951 . S
H1774 C1794 0.950 . S
H1775 C1795 0.950 . S
H1776 C1797 0.950 . S
H1777 C1800 0.950 . S
H1778 C1801 0.950 . S
H1779 C1803 0.950 . S
H1780 C1804 0.950 . S
H1781 C1805 0.951 . S
H1782 C1807 0.951 . S
H1783 C1809 0.950 . S
H1784 C1810 0.950 . S
H1785 C1812 0.950 . S
H1786 C1815 0.950 . S
H1787 C1816 0.950 . S
H1788 C1818 0.950 . S
H1789 C1819 0.950 . S
C1790 H1772 0.951 . S
C1790 C1791 1.366 . S
C1790 C1792 1.388 . S
C1791 C1790 1.366 . S
C1791 C1795 1.385 . S
C1792 H1773 0.951 . S
C1792 C1790 1.388 . S
C1792 C1793 1.366 . S
C1793 C1792 1.366 . S
C1793 C1794 1.414 . S
C1793 C1796 1.499 . S
C1794 H1774 0.950 . S
C1794 C1793 1.414 . S
C1794 C1795 1.374 . S
C1795 H1775 0.950 . S
C1795 C1791 1.385 . S
C1795 C1794 1.374 . S
C1796 C1793 1.499 . S
C1796 C1797 1.373 . S
C1796 C1798 1.389 . S
C1797 H1776 0.950 . S
C1797 C1796 1.373 . S
C1797 C1813 1.377 . S
C1798 C1796 1.389 . S
C1798 C1799 1.524 . S
C1798 C1812 1.377 . S
C1799 C1798 1.524 . S
C1799 C1800 1.397 . S
C1799 C1804 1.363 . S
C1800 H1777 0.950 . S
C1800 C1799 1.397 . S
C1800 C1801 1.334 . S
C1801 H1778 0.950 . S
C1801 C1800 1.334 . S
C1801 C1802 1.287 . S
C1802 C1801 1.287 . S
C1802 C1803 1.524 . S
C1802 H1821 0.913 . S
C1803 H1779 0.950 . S
C1803 C1802 1.524 . S
C1803 C1804 1.415 . S
C1804 H1780 0.950 . S
C1804 C1799 1.363 . S
C1804 C1803 1.415 . S
C1805 H1781 0.951 . S
C1805 C1806 1.366 . S
C1805 C1807 1.388 . S
C1806 C1805 1.366 . S
C1806 C1810 1.385 . S
C1807 H1782 0.951 . S
C1807 C1805 1.388 . S
C1807 C1808 1.366 . S
C1808 C1807 1.366 . S
C1808 C1809 1.414 . S
C1808 C1811 1.499 . S
C1809 H1783 0.950 . S
C1809 C1808 1.414 . S
C1809 C1810 1.374 . S
C1810 H1784 0.950 . S
C1810 C1806 1.385 . S
C1810 C1809 1.374 . S
C1811 C1808 1.499 . S
C1811 C1812 1.373 . S
C1811 C1813 1.389 . S
C1812 H1785 0.950 . S
C1812 C1798 1.377 . S
C1812 C1811 1.373 . S
C1813 C1797 1.377 . S
C1813 C1811 1.389 . S
C1813 C1814 1.524 . S
C1814 C1813 1.524 . S
C1814 C1815 1.397 . S
C1814 C1819 1.363 . S
C1815 H1786 0.950 . S
C1815 C1814 1.397 . S
C1815 C1816 1.334 . S
C1816 H1787 0.950 . S
C1816 C1815 1.334 . S
C1816 C1817 1.287 . S
C1817 C1816 1.287 . S
C1817 C1818 1.524 . S
C1817 H1820 0.999 . S
C1818 H1788 0.950 . S
C1818 C1817 1.524 . S
C1818 C1819 1.415 . S
C1819 H1789 0.950 . S
C1819 C1814 1.363 . S
C1819 C1818 1.415 . S
H1820 C1817 0.999 . S
H1821 C1802 0.913 . S
H1822 C1840 0.951 . S
H1823 C1842 0.951 . S
H1824 C1844 0.950 . S
H1825 C1845 0.950 . S
H1826 C1847 0.950 . S
H1827 C1850 0.950 . S
H1828 C1851 0.950 . S
H1829 C1853 0.950 . S
H1830 C1854 0.950 . S
H1831 C1855 0.951 . S
H1832 C1857 0.951 . S
H1833 C1859 0.950 . S
H1834 C1860 0.950 . S
H1835 C1862 0.950 . S
H1836 C1865 0.950 . S
H1837 C1866 0.950 . S
H1838 C1868 0.950 . S
H1839 C1869 0.950 . S
C1840 H1822 0.951 . S
C1840 C1841 1.366 . S
C1840 C1842 1.388 . S
C1841 C1840 1.366 . S
C1841 C1845 1.385 . S
C1842 H1823 0.951 . S
C1842 C1840 1.388 . S
C1842 C1843 1.366 . S
C1843 C1842 1.366 . S
C1843 C1844 1.414 . S
C1843 C1846 1.499 . S
C1844 H1824 0.950 . S
C1844 C1843 1.414 . S
C1844 C1845 1.374 . S
C1845 H1825 0.950 . S
C1845 C1841 1.385 . S
C1845 C1844 1.374 . S
C1846 C1843 1.499 . S
C1846 C1847 1.373 . S
C1846 C1848 1.389 . S
C1847 H1826 0.950 . S
C1847 C1846 1.373 . S
C1847 C1863 1.377 . S
C1848 C1846 1.389 . S
C1848 C1849 1.524 . S
C1848 C1862 1.377 . S
C1849 C1848 1.524 . S
C1849 C1850 1.397 . S
C1849 C1854 1.363 . S
C1850 H1827 0.950 . S
C1850 C1849 1.397 . S
C1850 C1851 1.334 . S
C1851 H1828 0.950 . S
C1851 C1850 1.334 . S
C1851 C1852 1.287 . S
C1852 C1851 1.287 . S
C1852 C1853 1.524 . S
C1852 H1871 0.913 . S
C1853 H1829 0.950 . S
C1853 C1852 1.524 . S
C1853 C1854 1.415 . S
C1854 H1830 0.950 . S
C1854 C1849 1.363 . S
C1854 C1853 1.415 . S
C1855 H1831 0.951 . S
C1855 C1856 1.366 . S
C1855 C1857 1.388 . S
C1856 C1855 1.366 . S
C1856 C1860 1.385 . S
C1857 H1832 0.951 . S
C1857 C1855 1.388 . S
C1857 C1858 1.366 . S
C1858 C1857 1.366 . S
C1858 C1859 1.414 . S
C1858 C1861 1.499 . S
C1859 H1833 0.950 . S
C1859 C1858 1.414 . S
C1859 C1860 1.374 . S
C1860 H1834 0.950 . S
C1860 C1856 1.385 . S
C1860 C1859 1.374 . S
C1861 C1858 1.499 . S
C1861 C1862 1.373 . S
C1861 C1863 1.389 . S
C1862 H1835 0.950 . S
C1862 C1848 1.377 . S
C1862 C1861 1.373 . S
C1863 C1847 1.377 . S
C1863 C1861 1.389 . S
C1863 C1864 1.524 . S
C1864 C1863 1.524 . S
C1864 C1865 1.397 . S
C1864 C1869 1.363 . S
C1865 H1836 0.950 . S
C1865 C1864 1.397 . S
C1865 C1866 1.334 . S
C1866 H1837 0.950 . S
C1866 C1865 1.334 . S
C1866 C1867 1.287 . S
C1867 C1866 1.287 . S
C1867 C1868 1.524 . S
C1867 H1870 0.999 . S
C1868 H1838 0.950 . S
C1868 C1867 1.524 . S
C1868 C1869 1.415 . S
C1869 H1839 0.950 . S
C1869 C1864 1.363 . S
C1869 C1868 1.415 . S
H1870 C1867 0.999 . S
H1871 C1852 0.913 . S
H1872 C1890 0.951 . S
H1873 C1892 0.951 . S
H1874 C1894 0.950 . S
H1875 C1895 0.950 . S
H1876 C1897 0.950 . S
H1877 C1900 0.950 . S
H1878 C1901 0.950 . S
H1879 C1903 0.950 1_655 S
H1880 C1904 0.955 . S
H1881 C1905 0.951 . S
H1882 C1907 0.951 . S
H1883 C1909 0.950 . S
H1884 C1910 0.962 . S
H1885 C1912 0.950 . S
H1886 C1915 0.950 . S
H1887 C1916 0.950 . S
H1888 C1918 0.950 . S
H1889 C1919 0.950 . S
C1890 H1872 0.951 . S
C1890 C1891 1.366 1_655 S
C1890 C1892 1.388 . S
C1891 C1890 1.366 1_455 S
C1891 C1895 1.385 . S
C1892 H1873 0.951 . S
C1892 C1890 1.388 . S
C1892 C1893 1.366 1_655 S
C1893 C1892 1.366 1_455 S
C1893 C1894 1.414 . S
C1893 C1896 1.499 . S
C1894 H1874 0.950 . S
C1894 C1893 1.414 . S
C1894 C1895 1.374 . S
C1895 H1875 0.950 . S
C1895 C1891 1.385 . S
C1895 C1894 1.374 . S
C1896 C1893 1.499 . S
C1896 C1897 1.373 . S
C1896 C1898 1.389 . S
C1897 H1876 0.950 . S
C1897 C1896 1.373 . S
C1897 C1913 1.377 . S
C1898 C1896 1.389 . S
C1898 C1899 1.524 . S
C1898 C1912 1.377 . S
C1899 C1898 1.524 . S
C1899 C1900 1.397 . S
C1899 C1904 1.359 1_455 S
C1900 H1877 0.950 . S
C1900 C1899 1.397 . S
C1900 C1901 1.334 . S
C1901 H1878 0.950 . S
C1901 C1900 1.334 . S
C1901 C1902 1.287 . S
C1902 C1901 1.287 . S
C1902 C1903 1.524 . S
C1902 H1921 0.913 . S
C1903 H1879 0.950 1_455 S
C1903 C1902 1.524 . S
C1903 C1904 1.414 1_455 S
C1904 H1880 0.955 . S
C1904 C1899 1.359 1_655 S
C1904 C1903 1.414 1_655 S
C1905 H1881 0.951 . S
C1905 C1906 1.366 . S
C1905 C1907 1.388 . S
C1906 C1905 1.366 . S
C1906 C1910 1.372 1_455 S
C1907 H1882 0.951 . S
C1907 C1905 1.388 . S
C1907 C1908 1.366 . S
C1908 C1907 1.366 . S
C1908 C1909 1.414 1_455 S
C1908 C1911 1.499 . S
C1909 H1883 0.950 . S
C1909 C1908 1.414 1_655 S
C1909 C1910 1.375 . S
C1910 H1884 0.962 . S
C1910 C1906 1.372 1_655 S
C1910 C1909 1.375 . S
C1911 C1908 1.499 . S
C1911 C1912 1.373 . S
C1911 C1913 1.389 . S
C1912 H1885 0.950 . S
C1912 C1898 1.377 . S
C1912 C1911 1.373 . S
C1913 C1897 1.377 . S
C1913 C1911 1.389 . S
C1913 C1914 1.524 . S
C1914 C1913 1.524 . S
C1914 C1915 1.397 1_455 S
C1914 C1919 1.363 . S
C1915 H1886 0.950 . S
C1915 C1914 1.397 1_655 S
C1915 C1916 1.334 1_556 S
C1916 H1887 0.950 . S
C1916 C1915 1.334 1_554 S
C1916 C1917 1.310 . S
C1917 C1916 1.310 . S
C1917 C1918 1.493 1_655 S
C1917 H1920 1.004 . S
C1918 H1888 0.950 . S
C1918 C1917 1.493 1_455 S
C1918 C1919 1.415 1_554 S
C1919 H1889 0.950 . S
C1919 C1914 1.363 . S
C1919 C1918 1.415 1_556 S
H1920 C1917 1.004 . S
H1921 C1902 0.913 . S
H1922 C1940 0.951 . S
H1923 C1942 0.951 . S
H1924 C1944 0.950 . S
H1925 C1945 0.950 . S
H1926 C1947 0.950 . S
H1927 C1950 0.950 . S
H1928 C1951 0.950 . S
H1929 C1953 0.950 . S
H1930 C1954 0.950 . S
H1931 C1955 0.951 . S
H1932 C1957 0.951 . S
H1933 C1959 0.950 . S
H1934 C1960 0.950 . S
H1935 C1962 0.950 . S
H1936 C1965 0.950 . S
H1937 C1966 0.950 . S
H1938 C1968 0.950 . S
H1939 C1969 0.950 . S
C1940 H1922 0.951 . S
C1940 C1941 1.366 . S
C1940 C1942 1.388 . S
C1941 C1940 1.366 . S
C1941 C1945 1.385 . S
C1942 H1923 0.951 . S
C1942 C1940 1.388 . S
C1942 C1943 1.366 . S
C1943 C1942 1.366 . S
C1943 C1944 1.414 . S
C1943 C1946 1.499 . S
C1944 H1924 0.950 . S
C1944 C1943 1.414 . S
C1944 C1945 1.374 . S
C1945 H1925 0.950 . S
C1945 C1941 1.385 . S
C1945 C1944 1.374 . S
C1946 C1943 1.499 . S
C1946 C1947 1.373 . S
C1946 C1948 1.389 . S
C1947 H1926 0.950 . S
C1947 C1946 1.373 . S
C1947 C1963 1.377 . S
C1948 C1946 1.389 . S
C1948 C1949 1.524 . S
C1948 C1962 1.377 . S
C1949 C1948 1.524 . S
C1949 C1950 1.397 . S
C1949 C1954 1.363 . S
C1950 H1927 0.950 . S
C1950 C1949 1.397 . S
C1950 C1951 1.334 . S
C1951 H1928 0.950 . S
C1951 C1950 1.334 . S
C1951 C1952 1.287 . S
C1952 C1951 1.287 . S
C1952 C1953 1.524 . S
C1952 H1971 0.913 . S
C1953 H1929 0.950 . S
C1953 C1952 1.524 . S
C1953 C1954 1.415 . S
C1954 H1930 0.950 . S
C1954 C1949 1.363 . S
C1954 C1953 1.415 . S
C1955 H1931 0.951 . S
C1955 C1956 1.366 . S
C1955 C1957 1.388 . S
C1956 C1955 1.366 . S
C1956 C1960 1.385 . S
C1957 H1932 0.951 . S
C1957 C1955 1.388 . S
C1957 C1958 1.366 . S
C1958 C1957 1.366 . S
C1958 C1959 1.414 . S
C1958 C1961 1.499 . S
C1959 H1933 0.950 . S
C1959 C1958 1.414 . S
C1959 C1960 1.374 . S
C1960 H1934 0.950 . S
C1960 C1956 1.385 . S
C1960 C1959 1.374 . S
C1961 C1958 1.499 . S
C1961 C1962 1.373 . S
C1961 C1963 1.389 . S
C1962 H1935 0.950 . S
C1962 C1948 1.377 . S
C1962 C1961 1.373 . S
C1963 C1947 1.377 . S
C1963 C1961 1.389 . S
C1963 C1964 1.524 . S
C1964 C1963 1.524 . S
C1964 C1965 1.397 . S
C1964 C1969 1.363 . S
C1965 H1936 0.950 . S
C1965 C1964 1.397 . S
C1965 C1966 1.334 . S
C1966 H1937 0.950 . S
C1966 C1965 1.334 . S
C1966 C1967 1.287 . S
C1967 C1966 1.287 . S
C1967 C1968 1.524 . S
C1967 H1970 0.999 . S
C1968 H1938 0.950 . S
C1968 C1967 1.524 . S
C1968 C1969 1.415 . S
C1969 H1939 0.950 . S
C1969 C1964 1.363 . S
C1969 C1968 1.415 . S
H1970 C1967 0.999 . S
H1971 C1952 0.913 . S
H1972 C1990 0.951 . S
H1973 C1992 0.951 . S
H1974 C1994 0.950 . S
H1975 C1995 0.950 . S
H1976 C1997 0.950 . S
H1977 C2000 0.950 . S
H1978 C2001 0.950 . S
H1979 C2003 0.950 . S
H1980 C2004 0.950 . S
H1981 C2005 0.951 . S
H1982 C2007 0.951 . S
H1983 C2009 0.950 . S
H1984 C2010 0.950 . S
H1985 C2012 0.950 . S
H1986 C2015 0.950 . S
H1987 C2016 0.950 . S
H1988 C2018 0.950 . S
H1989 C2019 0.950 . S
C1990 H1972 0.951 . S
C1990 C1991 1.366 . S
C1990 C1992 1.388 . S
C1991 C1990 1.366 . S
C1991 C1995 1.385 . S
C1992 H1973 0.951 . S
C1992 C1990 1.388 . S
C1992 C1993 1.366 . S
C1993 C1992 1.366 . S
C1993 C1994 1.414 . S
C1993 C1996 1.499 . S
C1994 H1974 0.950 . S
C1994 C1993 1.414 . S
C1994 C1995 1.374 . S
C1995 H1975 0.950 . S
C1995 C1991 1.385 . S
C1995 C1994 1.374 . S
C1996 C1993 1.499 . S
C1996 C1997 1.373 . S
C1996 C1998 1.389 . S
C1997 H1976 0.950 . S
C1997 C1996 1.373 . S
C1997 C2013 1.377 . S
C1998 C1996 1.389 . S
C1998 C1999 1.524 . S
C1998 C2012 1.377 . S
C1999 C1998 1.524 . S
C1999 C2000 1.397 . S
C1999 C2004 1.363 . S
C2000 H1977 0.950 . S
C2000 C1999 1.397 . S
C2000 C2001 1.334 . S
C2001 H1978 0.950 . S
C2001 C2000 1.334 . S
C2001 C2002 1.287 . S
C2002 C2001 1.287 . S
C2002 C2003 1.524 . S
C2002 H2021 0.913 . S
C2003 H1979 0.950 . S
C2003 C2002 1.524 . S
C2003 C2004 1.415 . S
C2004 H1980 0.950 . S
C2004 C1999 1.363 . S
C2004 C2003 1.415 . S
C2005 H1981 0.951 . S
C2005 C2006 1.366 . S
C2005 C2007 1.388 . S
C2006 C2005 1.366 . S
C2006 C2010 1.385 . S
C2007 H1982 0.951 . S
C2007 C2005 1.388 . S
C2007 C2008 1.366 . S
C2008 C2007 1.366 . S
C2008 C2009 1.414 . S
C2008 C2011 1.499 . S
C2009 H1983 0.950 . S
C2009 C2008 1.414 . S
C2009 C2010 1.374 . S
C2010 H1984 0.950 . S
C2010 C2006 1.385 . S
C2010 C2009 1.374 . S
C2011 C2008 1.499 . S
C2011 C2012 1.373 . S
C2011 C2013 1.389 . S
C2012 H1985 0.950 . S
C2012 C1998 1.377 . S
C2012 C2011 1.373 . S
C2013 C1997 1.377 . S
C2013 C2011 1.389 . S
C2013 C2014 1.524 . S
C2014 C2013 1.524 . S
C2014 C2015 1.397 . S
C2014 C2019 1.363 . S
C2015 H1986 0.950 . S
C2015 C2014 1.397 . S
C2015 C2016 1.334 . S
C2016 H1987 0.950 . S
C2016 C2015 1.334 . S
C2016 C2017 1.287 . S
C2017 C2016 1.287 . S
C2017 C2018 1.524 . S
C2017 H2020 0.999 . S
C2018 H1988 0.950 . S
C2018 C2017 1.524 . S
C2018 C2019 1.415 . S
C2019 H1989 0.950 . S
C2019 C2014 1.363 . S
C2019 C2018 1.415 . S
H2020 C2017 0.999 . S
H2021 C2002 0.913 . S
H2022 C2040 0.951 . S
H2023 C2042 0.951 . S
H2024 C2044 0.950 . S
H2025 C2045 0.950 . S
H2026 C2047 0.950 . S
H2027 C2050 0.950 . S
H2028 C2051 0.950 . S
H2029 C2053 0.950 . S
H2030 C2054 0.950 . S
H2031 C2055 0.951 . S
H2032 C2057 0.951 . S
H2033 C2059 0.950 . S
H2034 C2060 0.950 . S
H2035 C2062 0.950 . S
H2036 C2065 0.950 . S
H2037 C2066 0.950 . S
H2038 C2068 0.950 . S
H2039 C2069 0.950 . S
C2040 H2022 0.951 . S
C2040 C2041 1.366 . S
C2040 C2042 1.388 . S
C2041 C2040 1.366 . S
C2041 C2045 1.385 . S
C2042 H2023 0.951 . S
C2042 C2040 1.388 . S
C2042 C2043 1.366 . S
C2043 C2042 1.366 . S
C2043 C2044 1.414 . S
C2043 C2046 1.499 . S
C2044 H2024 0.950 . S
C2044 C2043 1.414 . S
C2044 C2045 1.374 . S
C2045 H2025 0.950 . S
C2045 C2041 1.385 . S
C2045 C2044 1.374 . S
C2046 C2043 1.499 . S
C2046 C2047 1.373 . S
C2046 C2048 1.389 . S
C2047 H2026 0.950 . S
C2047 C2046 1.373 . S
C2047 C2063 1.377 . S
C2048 C2046 1.389 . S
C2048 C2049 1.524 . S
C2048 C2062 1.377 . S
C2049 C2048 1.524 . S
C2049 C2050 1.397 . S
C2049 C2054 1.363 . S
C2050 H2027 0.950 . S
C2050 C2049 1.397 . S
C2050 C2051 1.334 . S
C2051 H2028 0.950 . S
C2051 C2050 1.334 . S
C2051 C2052 1.287 . S
C2052 C2051 1.287 . S
C2052 C2053 1.524 . S
C2052 H2071 0.913 . S
C2053 H2029 0.950 . S
C2053 C2052 1.524 . S
C2053 C2054 1.415 . S
C2054 H2030 0.950 . S
C2054 C2049 1.363 . S
C2054 C2053 1.415 . S
C2055 H2031 0.951 . S
C2055 C2056 1.366 . S
C2055 C2057 1.388 . S
C2056 C2055 1.366 . S
C2056 C2060 1.385 . S
C2057 H2032 0.951 . S
C2057 C2055 1.388 . S
C2057 C2058 1.366 . S
C2058 C2057 1.366 . S
C2058 C2059 1.414 . S
C2058 C2061 1.499 . S
C2059 H2033 0.950 . S
C2059 C2058 1.414 . S
C2059 C2060 1.374 . S
C2060 H2034 0.950 . S
C2060 C2056 1.385 . S
C2060 C2059 1.374 . S
C2061 C2058 1.499 . S
C2061 C2062 1.373 . S
C2061 C2063 1.389 . S
C2062 H2035 0.950 . S
C2062 C2048 1.377 . S
C2062 C2061 1.373 . S
C2063 C2047 1.377 . S
C2063 C2061 1.389 . S
C2063 C2064 1.524 . S
C2064 C2063 1.524 . S
C2064 C2065 1.397 . S
C2064 C2069 1.363 . S
C2065 H2036 0.950 . S
C2065 C2064 1.397 . S
C2065 C2066 1.334 . S
C2066 H2037 0.950 . S
C2066 C2065 1.334 . S
C2066 C2067 1.287 . S
C2067 C2066 1.287 . S
C2067 C2068 1.524 . S
C2067 H2070 0.999 . S
C2068 H2038 0.950 . S
C2068 C2067 1.524 . S
C2068 C2069 1.415 . S
C2069 H2039 0.950 . S
C2069 C2064 1.363 . S
C2069 C2068 1.415 . S
H2070 C2067 0.999 . S
H2071 C2052 0.913 . S
H2072 C2090 0.951 . S
H2073 C2092 0.951 . S
H2074 C2094 0.950 . S
H2075 C2095 0.950 . S
H2076 C2097 0.950 . S
H2077 C2100 0.950 . S
H2078 C2101 0.950 . S
H2079 C2103 0.950 . S
H2080 C2104 0.950 . S
H2081 C2105 0.951 . S
H2082 C2107 0.951 . S
H2083 C2109 0.950 . S
H2084 C2110 0.950 . S
H2085 C2112 0.950 . S
H2086 C2115 0.950 1_455 S
H2087 C2116 0.950 . S
H2088 C2118 0.950 . S
H2089 C2119 0.950 . S
C2090 H2072 0.951 . S
C2090 C2091 1.366 . S
C2090 C2092 1.388 . S
C2091 C2090 1.366 . S
C2091 C2095 1.385 1_455 S
C2092 H2073 0.951 . S
C2092 C2090 1.388 . S
C2092 C2093 1.366 . S
C2093 C2092 1.366 . S
C2093 C2094 1.414 1_455 S
C2093 C2096 1.499 . S
C2094 H2074 0.950 . S
C2094 C2093 1.414 1_655 S
C2094 C2095 1.374 . S
C2095 H2075 0.950 . S
C2095 C2091 1.385 1_655 S
C2095 C2094 1.374 . S
C2096 C2093 1.499 . S
C2096 C2097 1.373 1_455 S
C2096 C2098 1.389 . S
C2097 H2076 0.950 . S
C2097 C2096 1.373 1_655 S
C2097 C2113 1.377 . S
C2098 C2096 1.389 . S
C2098 C2099 1.524 . S
C2098 C2112 1.377 . S
C2099 C2098 1.524 . S
C2099 C2100 1.397 . S
C2099 C2104 1.363 . S
C2100 H2077 0.950 . S
C2100 C2099 1.397 . S
C2100 C2101 1.334 . S
C2101 H2078 0.950 . S
C2101 C2100 1.334 . S
C2101 C2102 1.287 . S
C2102 C2101 1.287 . S
C2102 C2103 1.524 . S
C2102 H2121 0.913 . S
C2103 H2079 0.950 . S
C2103 C2102 1.524 . S
C2103 C2104 1.415 . S
C2104 H2080 0.950 . S
C2104 C2099 1.363 . S
C2104 C2103 1.415 . S
C2105 H2081 0.951 . S
C2105 C2106 1.366 1_655 S
C2105 C2107 1.388 . S
C2106 C2105 1.366 1_455 S
C2106 C2110 1.385 . S
C2107 H2082 0.951 . S
C2107 C2105 1.388 . S
C2107 C2108 1.366 1_655 S
C2108 C2107 1.366 1_455 S
C2108 C2109 1.414 . S
C2108 C2111 1.499 . S
C2109 H2083 0.950 . S
C2109 C2108 1.414 . S
C2109 C2110 1.374 . S
C2110 H2084 0.950 . S
C2110 C2106 1.385 . S
C2110 C2109 1.374 . S
C2111 C2108 1.499 . S
C2111 C2112 1.373 . S
C2111 C2113 1.389 1_455 S
C2112 H2085 0.950 . S
C2112 C2098 1.377 . S
C2112 C2111 1.373 . S
C2113 C2097 1.377 . S
C2113 C2111 1.389 1_655 S
C2113 C2114 1.524 . S
C2114 C2113 1.524 . S
C2114 C2115 1.397 . S
C2114 C2119 1.363 . S
C2115 H2086 0.950 1_655 S
C2115 C2114 1.397 . S
C2115 C2116 1.334 . S
C2116 H2087 0.950 . S
C2116 C2115 1.334 . S
C2116 C2117 1.287 . S
C2117 C2116 1.287 . S
C2117 C2118 1.524 . S
C2117 H2120 0.999 . S
C2118 H2088 0.950 . S
C2118 C2117 1.524 . S
C2118 C2119 1.415 . S
C2119 H2089 0.950 . S
C2119 C2114 1.363 . S
C2119 C2118 1.415 . S
H2120 C2117 0.999 . S
H2121 C2102 0.913 . S
H2122 C2140 0.951 . S
H2123 C2142 0.951 . S
H2124 C2144 0.950 . S
H2125 C2145 0.950 . S
H2126 C2147 0.950 . S
H2127 C2150 0.950 . S
H2128 C2151 0.950 . S
H2129 C2153 0.950 . S
H2130 C2154 0.950 . S
H2131 C2155 0.951 . S
H2132 C2157 0.951 . S
H2133 C2159 0.950 . S
H2134 C2160 0.950 . S
H2135 C2162 0.950 . S
H2136 C2165 0.950 . S
H2137 C2166 0.950 . S
H2138 C2168 0.950 . S
H2139 C2169 0.950 . S
C2140 H2122 0.951 . S
C2140 C2141 1.366 . S
C2140 C2142 1.388 . S
C2141 C2140 1.366 . S
C2141 C2145 1.385 . S
C2142 H2123 0.951 . S
C2142 C2140 1.388 . S
C2142 C2143 1.366 . S
C2143 C2142 1.366 . S
C2143 C2144 1.414 . S
C2143 C2146 1.499 . S
C2144 H2124 0.950 . S
C2144 C2143 1.414 . S
C2144 C2145 1.374 . S
C2145 H2125 0.950 . S
C2145 C2141 1.385 . S
C2145 C2144 1.374 . S
C2146 C2143 1.499 . S
C2146 C2147 1.373 . S
C2146 C2148 1.389 . S
C2147 H2126 0.950 . S
C2147 C2146 1.373 . S
C2147 C2163 1.377 . S
C2148 C2146 1.389 . S
C2148 C2149 1.524 . S
C2148 C2162 1.377 . S
C2149 C2148 1.524 . S
C2149 C2150 1.397 . S
C2149 C2154 1.363 . S
C2150 H2127 0.950 . S
C2150 C2149 1.397 . S
C2150 C2151 1.334 . S
C2151 H2128 0.950 . S
C2151 C2150 1.334 . S
C2151 C2152 1.287 . S
C2152 C2151 1.287 . S
C2152 C2153 1.524 . S
C2152 H2171 0.913 . S
C2153 H2129 0.950 . S
C2153 C2152 1.524 . S
C2153 C2154 1.415 . S
C2154 H2130 0.950 . S
C2154 C2149 1.363 . S
C2154 C2153 1.415 . S
C2155 H2131 0.951 . S
C2155 C2156 1.366 . S
C2155 C2157 1.388 . S
C2156 C2155 1.366 . S
C2156 C2160 1.385 . S
C2157 H2132 0.951 . S
C2157 C2155 1.388 . S
C2157 C2158 1.366 . S
C2158 C2157 1.366 . S
C2158 C2159 1.414 . S
C2158 C2161 1.499 . S
C2159 H2133 0.950 . S
C2159 C2158 1.414 . S
C2159 C2160 1.374 . S
C2160 H2134 0.950 . S
C2160 C2156 1.385 . S
C2160 C2159 1.374 . S
C2161 C2158 1.499 . S
C2161 C2162 1.373 . S
C2161 C2163 1.389 . S
C2162 H2135 0.950 . S
C2162 C2148 1.377 . S
C2162 C2161 1.373 . S
C2163 C2147 1.377 . S
C2163 C2161 1.389 . S
C2163 C2164 1.524 . S
C2164 C2163 1.524 . S
C2164 C2165 1.397 . S
C2164 C2169 1.363 . S
C2165 H2136 0.950 . S
C2165 C2164 1.397 . S
C2165 C2166 1.334 . S
C2166 H2137 0.950 . S
C2166 C2165 1.334 . S
C2166 C2167 1.287 . S
C2167 C2166 1.287 . S
C2167 C2168 1.524 . S
C2167 H2170 0.999 . S
C2168 H2138 0.950 . S
C2168 C2167 1.524 . S
C2168 C2169 1.415 . S
C2169 H2139 0.950 . S
C2169 C2164 1.363 . S
C2169 C2168 1.415 . S
H2170 C2167 0.999 . S
H2171 C2152 0.913 . S
H2172 C2190 0.951 . S
H2173 C2192 0.951 . S
H2174 C2194 0.950 . S
H2175 C2195 0.950 . S
H2176 C2197 0.950 . S
H2177 C2200 0.950 . S
H2178 C2201 0.950 . S
H2179 C2203 0.950 . S
H2180 C2204 0.950 . S
H2181 C2205 0.951 . S
H2182 C2207 0.951 . S
H2183 C2209 0.950 . S
H2184 C2210 0.950 . S
H2185 C2212 0.950 . S
H2186 C2215 0.950 . S
H2187 C2216 0.950 . S
H2188 C2218 0.950 . S
H2189 C2219 0.950 . S
C2190 H2172 0.951 . S
C2190 C2191 1.366 . S
C2190 C2192 1.388 . S
C2191 C2190 1.366 . S
C2191 C2195 1.385 . S
C2192 H2173 0.951 . S
C2192 C2190 1.388 . S
C2192 C2193 1.366 . S
C2193 C2192 1.366 . S
C2193 C2194 1.414 . S
C2193 C2196 1.499 . S
C2194 H2174 0.950 . S
C2194 C2193 1.414 . S
C2194 C2195 1.374 . S
C2195 H2175 0.950 . S
C2195 C2191 1.385 . S
C2195 C2194 1.374 . S
C2196 C2193 1.499 . S
C2196 C2197 1.373 . S
C2196 C2198 1.389 . S
C2197 H2176 0.950 . S
C2197 C2196 1.373 . S
C2197 C2213 1.377 . S
C2198 C2196 1.389 . S
C2198 C2199 1.524 . S
C2198 C2212 1.377 . S
C2199 C2198 1.524 . S
C2199 C2200 1.397 . S
C2199 C2204 1.363 . S
C2200 H2177 0.950 . S
C2200 C2199 1.397 . S
C2200 C2201 1.334 . S
C2201 H2178 0.950 . S
C2201 C2200 1.334 . S
C2201 C2202 1.287 . S
C2202 C2201 1.287 . S
C2202 C2203 1.524 . S
C2202 H2221 0.913 . S
C2203 H2179 0.950 . S
C2203 C2202 1.524 . S
C2203 C2204 1.415 . S
C2204 H2180 0.950 . S
C2204 C2199 1.363 . S
C2204 C2203 1.415 . S
C2205 H2181 0.951 . S
C2205 C2206 1.366 . S
C2205 C2207 1.388 . S
C2206 C2205 1.366 . S
C2206 C2210 1.385 . S
C2207 H2182 0.951 . S
C2207 C2205 1.388 . S
C2207 C2208 1.366 . S
C2208 C2207 1.366 . S
C2208 C2209 1.414 . S
C2208 C2211 1.499 . S
C2209 H2183 0.950 . S
C2209 C2208 1.414 . S
C2209 C2210 1.374 . S
C2210 H2184 0.950 . S
C2210 C2206 1.385 . S
C2210 C2209 1.374 . S
C2211 C2208 1.499 . S
C2211 C2212 1.373 . S
C2211 C2213 1.389 . S
C2212 H2185 0.950 . S
C2212 C2198 1.377 . S
C2212 C2211 1.373 . S
C2213 C2197 1.377 . S
C2213 C2211 1.389 . S
C2213 C2214 1.524 . S
C2214 C2213 1.524 . S
C2214 C2215 1.397 . S
C2214 C2219 1.363 . S
C2215 H2186 0.950 . S
C2215 C2214 1.397 . S
C2215 C2216 1.334 . S
C2216 H2187 0.950 . S
C2216 C2215 1.334 . S
C2216 C2217 1.287 . S
C2217 C2216 1.287 . S
C2217 C2218 1.524 . S
C2217 H2220 0.999 . S
C2218 H2188 0.950 . S
C2218 C2217 1.524 . S
C2218 C2219 1.415 . S
C2219 H2189 0.950 . S
C2219 C2214 1.363 . S
C2219 C2218 1.415 . S
H2220 C2217 0.999 . S
H2221 C2202 0.913 . S
H2222 C2240 0.951 . S
H2223 C2242 0.951 . S
H2224 C2244 0.950 . S
H2225 C2245 0.950 . S
H2226 C2247 0.950 . S
H2227 C2250 0.950 . S
H2228 C2251 0.950 . S
H2229 C2253 0.950 . S
H2230 C2254 0.950 . S
H2231 C2255 0.951 . S
H2232 C2257 0.951 . S
H2233 C2259 0.950 . S
H2234 C2260 0.950 . S
H2235 C2262 0.950 . S
H2236 C2265 0.950 . S
H2237 C2266 0.950 . S
H2238 C2268 0.950 . S
H2239 C2269 0.950 . S
C2240 H2222 0.951 . S
C2240 C2241 1.366 . S
C2240 C2242 1.388 . S
C2241 C2240 1.366 . S
C2241 C2245 1.385 . S
C2242 H2223 0.951 . S
C2242 C2240 1.388 . S
C2242 C2243 1.366 . S
C2243 C2242 1.366 . S
C2243 C2244 1.414 . S
C2243 C2246 1.499 . S
C2244 H2224 0.950 . S
C2244 C2243 1.414 . S
C2244 C2245 1.374 . S
C2245 H2225 0.950 . S
C2245 C2241 1.385 . S
C2245 C2244 1.374 . S
C2246 C2243 1.499 . S
C2246 C2247 1.373 . S
C2246 C2248 1.389 . S
C2247 H2226 0.950 . S
C2247 C2246 1.373 . S
C2247 C2263 1.377 . S
C2248 C2246 1.389 . S
C2248 C2249 1.524 . S
C2248 C2262 1.377 . S
C2249 C2248 1.524 . S
C2249 C2250 1.397 . S
C2249 C2254 1.363 . S
C2250 H2227 0.950 . S
C2250 C2249 1.397 . S
C2250 C2251 1.334 . S
C2251 H2228 0.950 . S
C2251 C2250 1.334 . S
C2251 C2252 1.287 . S
C2252 C2251 1.287 . S
C2252 C2253 1.524 . S
C2252 H2271 0.913 . S
C2253 H2229 0.950 . S
C2253 C2252 1.524 . S
C2253 C2254 1.415 . S
C2254 H2230 0.950 . S
C2254 C2249 1.363 . S
C2254 C2253 1.415 . S
C2255 H2231 0.951 . S
C2255 C2256 1.366 . S
C2255 C2257 1.388 . S
C2256 C2255 1.366 . S
C2256 C2260 1.385 . S
C2257 H2232 0.951 . S
C2257 C2255 1.388 . S
C2257 C2258 1.366 . S
C2258 C2257 1.366 . S
C2258 C2259 1.414 . S
C2258 C2261 1.499 . S
C2259 H2233 0.950 . S
C2259 C2258 1.414 . S
C2259 C2260 1.374 . S
C2260 H2234 0.950 . S
C2260 C2256 1.385 . S
C2260 C2259 1.374 . S
C2261 C2258 1.499 . S
C2261 C2262 1.373 . S
C2261 C2263 1.389 . S
C2262 H2235 0.950 . S
C2262 C2248 1.377 . S
C2262 C2261 1.373 . S
C2263 C2247 1.377 . S
C2263 C2261 1.389 . S
C2263 C2264 1.524 . S
C2264 C2263 1.524 . S
C2264 C2265 1.397 . S
C2264 C2269 1.363 . S
C2265 H2236 0.950 . S
C2265 C2264 1.397 . S
C2265 C2266 1.334 . S
C2266 H2237 0.950 . S
C2266 C2265 1.334 . S
C2266 C2267 1.287 . S
C2267 C2266 1.287 . S
C2267 C2268 1.524 . S
C2267 H2270 0.999 . S
C2268 H2238 0.950 . S
C2268 C2267 1.524 . S
C2268 C2269 1.415 . S
C2269 H2239 0.950 . S
C2269 C2264 1.363 . S
C2269 C2268 1.415 . S
H2270 C2267 0.999 . S
H2271 C2252 0.913 . S
H2272 C2290 0.951 . S
H2273 C2292 0.951 . S
H2274 C2294 0.950 . S
H2275 C2295 0.950 . S
H2276 C2297 0.950 . S
H2277 C2300 0.950 1_565 S
H2278 C2301 0.950 . S
H2279 C2303 0.950 . S
H2280 C2304 0.950 . S
H2281 C2305 0.951 . S
H2282 C2307 0.951 . S
H2283 C2309 0.950 . S
H2284 C2310 0.950 . S
H2285 C2312 0.950 . S
H2286 C2315 0.999 . S
H2287 C2316 0.950 1_545 S
H2288 C2318 0.950 . S
H2289 C2319 0.950 . S
C2290 H2272 0.951 . S
C2290 C2291 1.418 . S
C2290 C2292 1.388 . S
C2291 C2290 1.418 . S
C2291 C2295 1.334 1_545 S
C2292 H2273 0.951 . S
C2292 C2290 1.388 . S
C2292 C2293 1.366 . S
C2293 C2292 1.366 . S
C2293 C2294 1.414 1_545 S
C2293 C2296 1.499 . S
C2294 H2274 0.950 . S
C2294 C2293 1.414 1_565 S
C2294 C2295 1.374 . S
C2295 H2275 0.950 . S
C2295 C2291 1.334 1_565 S
C2295 C2294 1.374 . S
C2296 C2293 1.499 . S
C2296 C2297 1.373 1_545 S
C2296 C2298 1.389 . S
C2297 H2276 0.950 . S
C2297 C2296 1.373 1_565 S
C2297 C2313 1.377 . S
C2298 C2296 1.389 . S
C2298 C2299 1.524 . S
C2298 C2312 1.377 . S
C2299 C2298 1.524 . S
C2299 C2300 1.397 . S
C2299 C2304 1.363 . S
C2300 H2277 0.950 1_545 S
C2300 C2299 1.397 . S
C2300 C2301 1.334 . S
C2301 H2278 0.950 . S
C2301 C2300 1.334 . S
C2301 C2302 1.287 . S
C2302 C2301 1.287 . S
C2302 C2303 1.524 . S
C2302 H2321 0.913 . S
C2303 H2279 0.950 . S
C2303 C2302 1.524 . S
C2303 C2304 1.415 . S
C2304 H2280 0.950 . S
C2304 C2299 1.363 . S
C2304 C2303 1.415 . S
C2305 H2281 0.951 . S
C2305 C2306 1.366 1_565 S
C2305 C2307 1.388 . S
C2306 C2305 1.366 1_545 S
C2306 C2310 1.385 . S
C2307 H2282 0.951 . S
C2307 C2305 1.388 . S
C2307 C2308 1.366 1_565 S
C2308 C2307 1.366 1_545 S
C2308 C2309 1.414 . S
C2308 C2311 1.499 . S
C2309 H2283 0.950 . S
C2309 C2308 1.414 . S
C2309 C2310 1.374 . S
C2310 H2284 0.950 . S
C2310 C2306 1.385 . S
C2310 C2309 1.374 . S
C2311 C2308 1.499 . S
C2311 C2312 1.373 . S
C2311 C2313 1.389 1_545 S
C2312 H2285 0.950 . S
C2312 C2298 1.377 . S
C2312 C2311 1.373 . S
C2313 C2297 1.377 . S
C2313 C2311 1.389 1_565 S
C2313 C2314 1.524 . S
C2314 C2313 1.524 . S
C2314 C2315 1.365 1_565 S
C2314 C2319 1.363 . S
C2315 H2286 0.999 . S
C2315 C2314 1.365 1_545 S
C2315 C2316 1.319 1_545 S
C2316 H2287 0.950 1_565 S
C2316 C2315 1.319 1_565 S
C2316 C2317 1.287 . S
C2317 C2316 1.287 . S
C2317 C2318 1.524 . S
C2317 H2320 0.999 . S
C2318 H2288 0.950 . S
C2318 C2317 1.524 . S
C2318 C2319 1.415 . S
C2319 H2289 0.950 . S
C2319 C2314 1.363 . S
C2319 C2318 1.415 . S
H2320 C2317 0.999 . S
H2321 C2302 0.913 . S
H2322 C2340 0.951 . S
H2323 C2342 0.951 . S
H2324 C2344 0.950 . S
H2325 C2345 0.950 . S
H2326 C2347 0.950 . S
H2327 C2350 0.950 . S
H2328 C2351 0.950 . S
H2329 C2353 0.950 . S
H2330 C2354 0.950 . S
H2331 C2355 0.951 . S
H2332 C2357 0.951 . S
H2333 C2359 0.950 . S
H2334 C2360 0.950 . S
H2335 C2362 0.950 . S
H2336 C2365 0.950 . S
H2337 C2366 0.950 . S
H2338 C2368 0.950 . S
H2339 C2369 0.950 . S
C2340 H2322 0.951 . S
C2340 C2341 1.366 . S
C2340 C2342 1.388 . S
C2341 C2340 1.366 . S
C2341 C2345 1.385 . S
C2342 H2323 0.951 . S
C2342 C2340 1.388 . S
C2342 C2343 1.366 . S
C2343 C2342 1.366 . S
C2343 C2344 1.414 . S
C2343 C2346 1.499 . S
C2344 H2324 0.950 . S
C2344 C2343 1.414 . S
C2344 C2345 1.374 . S
C2345 H2325 0.950 . S
C2345 C2341 1.385 . S
C2345 C2344 1.374 . S
C2346 C2343 1.499 . S
C2346 C2347 1.373 . S
C2346 C2348 1.389 . S
C2347 H2326 0.950 . S
C2347 C2346 1.373 . S
C2347 C2363 1.377 . S
C2348 C2346 1.389 . S
C2348 C2349 1.524 . S
C2348 C2362 1.377 . S
C2349 C2348 1.524 . S
C2349 C2350 1.397 . S
C2349 C2354 1.363 . S
C2350 H2327 0.950 . S
C2350 C2349 1.397 . S
C2350 C2351 1.334 . S
C2351 H2328 0.950 . S
C2351 C2350 1.334 . S
C2351 C2352 1.287 . S
C2352 C2351 1.287 . S
C2352 C2353 1.524 . S
C2352 H2371 0.913 . S
C2353 H2329 0.950 . S
C2353 C2352 1.524 . S
C2353 C2354 1.415 . S
C2354 H2330 0.950 . S
C2354 C2349 1.363 . S
C2354 C2353 1.415 . S
C2355 H2331 0.951 . S
C2355 C2356 1.366 . S
C2355 C2357 1.388 . S
C2356 C2355 1.366 . S
C2356 C2360 1.385 . S
C2357 H2332 0.951 . S
C2357 C2355 1.388 . S
C2357 C2358 1.366 . S
C2358 C2357 1.366 . S
C2358 C2359 1.414 . S
C2358 C2361 1.499 . S
C2359 H2333 0.950 . S
C2359 C2358 1.414 . S
C2359 C2360 1.374 . S
C2360 H2334 0.950 . S
C2360 C2356 1.385 . S
C2360 C2359 1.374 . S
C2361 C2358 1.499 . S
C2361 C2362 1.373 . S
C2361 C2363 1.389 . S
C2362 H2335 0.950 . S
C2362 C2348 1.377 . S
C2362 C2361 1.373 . S
C2363 C2347 1.377 . S
C2363 C2361 1.389 . S
C2363 C2364 1.524 . S
C2364 C2363 1.524 . S
C2364 C2365 1.397 . S
C2364 C2369 1.363 . S
C2365 H2336 0.950 . S
C2365 C2364 1.397 . S
C2365 C2366 1.334 . S
C2366 H2337 0.950 . S
C2366 C2365 1.334 . S
C2366 C2367 1.287 . S
C2367 C2366 1.287 . S
C2367 C2368 1.524 . S
C2367 H2370 0.999 . S
C2368 H2338 0.950 . S
C2368 C2367 1.524 . S
C2368 C2369 1.415 . S
C2369 H2339 0.950 . S
C2369 C2364 1.363 . S
C2369 C2368 1.415 . S
H2370 C2367 0.999 . S
H2371 C2352 0.913 . S
H2372 C2390 0.951 . S
H2373 C2392 0.951 . S
H2374 C2394 0.950 . S
H2375 C2395 0.950 . S
H2376 C2397 0.950 . S
H2377 C2400 0.950 . S
H2378 C2401 0.950 . S
H2379 C2403 0.950 . S
H2380 C2404 0.950 . S
H2381 C2405 0.951 . S
H2382 C2407 0.951 . S
H2383 C2409 0.953 . S
H2384 C2410 0.947 1_565 S
H2385 C2412 0.950 . S
H2386 C2415 0.950 . S
H2387 C2416 0.950 . S
H2388 C2418 0.950 . S
H2389 C2419 0.950 . S
C2390 H2372 0.951 . S
C2390 C2391 1.366 . S
C2390 C2392 1.388 . S
C2391 C2390 1.366 . S
C2391 C2395 1.385 . S
C2392 H2373 0.951 . S
C2392 C2390 1.388 . S
C2392 C2393 1.366 . S
C2393 C2392 1.366 . S
C2393 C2394 1.414 . S
C2393 C2396 1.499 . S
C2394 H2374 0.950 . S
C2394 C2393 1.414 . S
C2394 C2395 1.374 . S
C2395 H2375 0.950 . S
C2395 C2391 1.385 . S
C2395 C2394 1.374 . S
C2396 C2393 1.499 . S
C2396 C2397 1.373 . S
C2396 C2398 1.389 1_545 S
C2397 H2376 0.950 . S
C2397 C2396 1.373 . S
C2397 C2413 1.377 . S
C2398 C2396 1.389 1_565 S
C2398 C2399 1.524 . S
C2398 C2412 1.377 . S
C2399 C2398 1.524 . S
C2399 C2400 1.397 . S
C2399 C2404 1.363 . S
C2400 H2377 0.950 . S
C2400 C2399 1.397 . S
C2400 C2401 1.334 . S
C2401 H2378 0.950 . S
C2401 C2400 1.334 . S
C2401 C2402 1.287 . S
C2402 C2401 1.287 . S
C2402 C2403 1.524 . S
C2402 H2421 0.913 . S
C2403 H2379 0.950 . S
C2403 C2402 1.524 . S
C2403 C2404 1.415 . S
C2404 H2380 0.950 . S
C2404 C2399 1.363 . S
C2404 C2403 1.415 . S
C2405 H2381 0.951 . S
C2405 C2406 1.368 . S
C2405 C2407 1.388 . S
C2406 C2405 1.368 . S
C2406 C2410 1.384 . S
C2407 H2382 0.951 . S
C2407 C2405 1.388 . S
C2407 C2408 1.366 . S
C2408 C2407 1.366 . S
C2408 C2409 1.414 . S
C2408 C2411 1.499 . S
C2409 H2383 0.953 . S
C2409 C2408 1.414 . S
C2409 C2410 1.374 . S
C2410 H2384 0.947 1_545 S
C2410 C2406 1.384 . S
C2410 C2409 1.374 . S
C2411 C2408 1.499 . S
C2411 C2412 1.373 1_545 S
C2411 C2413 1.389 . S
C2412 H2385 0.950 . S
C2412 C2398 1.377 . S
C2412 C2411 1.373 1_565 S
C2413 C2397 1.377 . S
C2413 C2411 1.389 . S
C2413 C2414 1.524 . S
C2414 C2413 1.524 . S
C2414 C2415 1.397 . S
C2414 C2419 1.363 . S
C2415 H2386 0.950 . S
C2415 C2414 1.397 . S
C2415 C2416 1.334 . S
C2416 H2387 0.950 . S
C2416 C2415 1.334 . S
C2416 C2417 1.287 . S
C2417 C2416 1.287 . S
C2417 C2418 1.524 . S
C2417 H2420 0.999 . S
C2418 H2388 0.950 . S
C2418 C2417 1.524 . S
C2418 C2419 1.415 . S
C2419 H2389 0.950 . S
C2419 C2414 1.363 . S
C2419 C2418 1.415 . S
H2420 C2417 0.999 . S
H2421 C2402 0.913 . S
H2422 C2440 0.951 . S
H2423 C2442 0.951 . S
H2424 C2444 0.950 . S
H2425 C2445 0.950 . S
H2426 C2447 0.950 . S
H2427 C2450 0.950 . S
H2428 C2451 0.950 . S
H2429 C2453 0.950 . S
H2430 C2454 0.950 . S
H2431 C2455 0.951 . S
H2432 C2457 0.951 . S
H2433 C2459 0.950 . S
H2434 C2460 0.950 . S
H2435 C2462 0.950 . S
H2436 C2465 0.950 . S
H2437 C2466 0.950 . S
H2438 C2468 0.950 . S
H2439 C2469 0.950 . S
C2440 H2422 0.951 . S
C2440 C2441 1.366 . S
C2440 C2442 1.388 . S
C2441 C2440 1.366 . S
C2441 C2445 1.385 . S
C2442 H2423 0.951 . S
C2442 C2440 1.388 . S
C2442 C2443 1.366 . S
C2443 C2442 1.366 . S
C2443 C2444 1.414 . S
C2443 C2446 1.499 . S
C2444 H2424 0.950 . S
C2444 C2443 1.414 . S
C2444 C2445 1.374 . S
C2445 H2425 0.950 . S
C2445 C2441 1.385 . S
C2445 C2444 1.374 . S
C2446 C2443 1.499 . S
C2446 C2447 1.373 . S
C2446 C2448 1.389 . S
C2447 H2426 0.950 . S
C2447 C2446 1.373 . S
C2447 C2463 1.377 . S
C2448 C2446 1.389 . S
C2448 C2449 1.524 . S
C2448 C2462 1.377 . S
C2449 C2448 1.524 . S
C2449 C2450 1.397 . S
C2449 C2454 1.363 . S
C2450 H2427 0.950 . S
C2450 C2449 1.397 . S
C2450 C2451 1.334 . S
C2451 H2428 0.950 . S
C2451 C2450 1.334 . S
C2451 C2452 1.287 . S
C2452 C2451 1.287 . S
C2452 C2453 1.524 . S
C2452 H2471 0.913 . S
C2453 H2429 0.950 . S
C2453 C2452 1.524 . S
C2453 C2454 1.415 . S
C2454 H2430 0.950 . S
C2454 C2449 1.363 . S
C2454 C2453 1.415 . S
C2455 H2431 0.951 . S
C2455 C2456 1.366 . S
C2455 C2457 1.388 . S
C2456 C2455 1.366 . S
C2456 C2460 1.385 . S
C2457 H2432 0.951 . S
C2457 C2455 1.388 . S
C2457 C2458 1.366 . S
C2458 C2457 1.366 . S
C2458 C2459 1.414 . S
C2458 C2461 1.499 . S
C2459 H2433 0.950 . S
C2459 C2458 1.414 . S
C2459 C2460 1.374 . S
C2460 H2434 0.950 . S
C2460 C2456 1.385 . S
C2460 C2459 1.374 . S
C2461 C2458 1.499 . S
C2461 C2462 1.373 . S
C2461 C2463 1.389 . S
C2462 H2435 0.950 . S
C2462 C2448 1.377 . S
C2462 C2461 1.373 . S
C2463 C2447 1.377 . S
C2463 C2461 1.389 . S
C2463 C2464 1.524 . S
C2464 C2463 1.524 . S
C2464 C2465 1.397 . S
C2464 C2469 1.363 . S
C2465 H2436 0.950 . S
C2465 C2464 1.397 . S
C2465 C2466 1.334 . S
C2466 H2437 0.950 . S
C2466 C2465 1.334 . S
C2466 C2467 1.287 . S
C2467 C2466 1.287 . S
C2467 C2468 1.524 . S
C2467 H2470 0.999 . S
C2468 H2438 0.950 . S
C2468 C2467 1.524 . S
C2468 C2469 1.415 . S
C2469 H2439 0.950 . S
C2469 C2464 1.363 . S
C2469 C2468 1.415 . S
H2470 C2467 0.999 . S
H2471 C2452 0.913 . S
H2472 C2490 0.951 . S
H2473 C2492 0.951 . S
H2474 C2494 0.950 . S
H2475 C2495 0.950 . S
H2476 C2497 0.950 . S
H2477 C2500 0.950 . S
H2478 C2501 0.950 . S
H2479 C2503 0.935 1_455 S
H2480 C2504 0.950 . S
H2481 C2505 0.951 . S
H2482 C2507 0.951 . S
H2483 C2509 0.950 . S
H2484 C2510 0.950 . S
H2485 C2512 0.950 . S
H2486 C2515 0.950 . S
H2487 C2516 0.950 . S
H2488 C2518 0.950 . S
H2489 C2519 0.950 . S
C2490 H2472 0.951 . S
C2490 C2491 1.360 1_565 S
C2490 C2492 1.388 . S
C2491 C2490 1.360 1_545 S
C2491 C2495 1.391 . S
C2492 H2473 0.951 . S
C2492 C2490 1.388 . S
C2492 C2493 1.398 . S
C2493 C2492 1.398 . S
C2493 C2494 1.382 1_565 S
C2493 C2496 1.499 . S
C2494 H2474 0.950 . S
C2494 C2493 1.382 1_545 S
C2494 C2495 1.374 . S
C2495 H2475 0.950 . S
C2495 C2491 1.391 . S
C2495 C2494 1.374 . S
C2496 C2493 1.499 . S
C2496 C2497 1.366 1_565 S
C2496 C2498 1.404 . S
C2497 H2476 0.950 . S
C2497 C2496 1.366 1_545 S
C2497 C2513 1.375 1_545 S
C2498 C2496 1.404 . S
C2498 C2499 1.524 . S
C2498 C2512 1.377 . S
C2499 C2498 1.524 . S
C2499 C2500 1.397 1_565 S
C2499 C2504 1.363 . S
C2500 H2477 0.950 . S
C2500 C2499 1.397 1_545 S
C2500 C2501 1.334 . S
C2501 H2478 0.950 . S
C2501 C2500 1.334 . S
C2501 C2502 1.287 1_545 S
C2502 C2501 1.287 1_565 S
C2502 C2503 1.524 . S
C2502 H2521 0.913 . S
C2503 H2479 0.935 1_655 S
C2503 C2502 1.524 . S
C2503 C2504 1.415 . S
C2504 H2480 0.950 . S
C2504 C2499 1.363 . S
C2504 C2503 1.415 . S
C2505 H2481 0.951 . S
C2505 C2506 1.366 1_545 S
C2505 C2507 1.388 . S
C2506 C2505 1.366 1_565 S
C2506 C2510 1.385 . S
C2507 H2482 0.951 . S
C2507 C2505 1.388 . S
C2507 C2508 1.366 1_545 S
C2508 C2507 1.366 1_565 S
C2508 C2509 1.414 . S
C2508 C2511 1.499 . S
C2509 H2483 0.950 . S
C2509 C2508 1.414 . S
C2509 C2510 1.374 . S
C2510 H2484 0.950 . S
C2510 C2506 1.385 . S
C2510 C2509 1.374 . S
C2511 C2508 1.499 . S
C2511 C2512 1.373 . S
C2511 C2513 1.394 . S
C2512 H2485 0.950 . S
C2512 C2498 1.377 . S
C2512 C2511 1.373 . S
C2513 C2497 1.375 1_565 S
C2513 C2511 1.394 . S
C2513 C2514 1.523 1_565 S
C2514 C2513 1.523 1_545 S
C2514 C2515 1.397 1_545 S
C2514 C2519 1.363 . S
C2515 H2486 0.950 . S
C2515 C2514 1.397 1_565 S
C2515 C2516 1.334 . S
C2516 H2487 0.950 . S
C2516 C2515 1.334 . S
C2516 C2517 1.287 . S
C2517 C2516 1.287 . S
C2517 C2518 1.524 1_565 S
C2517 H2520 1.000 . S
C2518 H2488 0.950 . S
C2518 C2517 1.524 1_545 S
C2518 C2519 1.415 . S
C2519 H2489 0.950 . S
C2519 C2514 1.363 . S
C2519 C2518 1.415 . S
H2520 C2517 1.000 . S
H2521 C2502 0.913 . S
H2522 C2540 0.951 . S
H2523 C2542 0.951 . S
H2524 C2544 0.950 . S
H2525 C2545 0.950 . S
H2526 C2547 0.950 . S
H2527 C2550 0.950 . S
H2528 C2551 0.950 . S
H2529 C2553 0.950 . S
H2530 C2554 0.950 . S
H2531 C2555 0.951 . S
H2532 C2557 0.951 . S
H2533 C2559 0.950 . S
H2534 C2560 0.950 . S
H2535 C2562 0.950 . S
H2536 C2565 0.950 . S
H2537 C2566 0.950 . S
H2538 C2568 0.950 . S
H2539 C2569 0.950 . S
C2540 H2522 0.951 . S
C2540 C2541 1.366 . S
C2540 C2542 1.388 . S
C2541 C2540 1.366 . S
C2541 C2545 1.385 . S
C2542 H2523 0.951 . S
C2542 C2540 1.388 . S
C2542 C2543 1.366 . S
C2543 C2542 1.366 . S
C2543 C2544 1.414 . S
C2543 C2546 1.499 . S
C2544 H2524 0.950 . S
C2544 C2543 1.414 . S
C2544 C2545 1.374 . S
C2545 H2525 0.950 . S
C2545 C2541 1.385 . S
C2545 C2544 1.374 . S
C2546 C2543 1.499 . S
C2546 C2547 1.373 . S
C2546 C2548 1.389 . S
C2547 H2526 0.950 . S
C2547 C2546 1.373 . S
C2547 C2563 1.377 . S
C2548 C2546 1.389 . S
C2548 C2549 1.524 . S
C2548 C2562 1.377 . S
C2549 C2548 1.524 . S
C2549 C2550 1.397 . S
C2549 C2554 1.363 . S
C2550 H2527 0.950 . S
C2550 C2549 1.397 . S
C2550 C2551 1.334 . S
C2551 H2528 0.950 . S
C2551 C2550 1.334 . S
C2551 C2552 1.287 . S
C2552 C2551 1.287 . S
C2552 C2553 1.524 . S
C2552 H2571 0.913 . S
C2553 H2529 0.950 . S
C2553 C2552 1.524 . S
C2553 C2554 1.415 . S
C2554 H2530 0.950 . S
C2554 C2549 1.363 . S
C2554 C2553 1.415 . S
C2555 H2531 0.951 . S
C2555 C2556 1.366 . S
C2555 C2557 1.388 . S
C2556 C2555 1.366 . S
C2556 C2560 1.385 . S
C2557 H2532 0.951 . S
C2557 C2555 1.388 . S
C2557 C2558 1.366 . S
C2558 C2557 1.366 . S
C2558 C2559 1.414 . S
C2558 C2561 1.499 . S
C2559 H2533 0.950 . S
C2559 C2558 1.414 . S
C2559 C2560 1.374 . S
C2560 H2534 0.950 . S
C2560 C2556 1.385 . S
C2560 C2559 1.374 . S
C2561 C2558 1.499 . S
C2561 C2562 1.373 . S
C2561 C2563 1.389 . S
C2562 H2535 0.950 . S
C2562 C2548 1.377 . S
C2562 C2561 1.373 . S
C2563 C2547 1.377 . S
C2563 C2561 1.389 . S
C2563 C2564 1.524 . S
C2564 C2563 1.524 . S
C2564 C2565 1.397 . S
C2564 C2569 1.363 . S
C2565 H2536 0.950 . S
C2565 C2564 1.397 . S
C2565 C2566 1.334 . S
C2566 H2537 0.950 . S
C2566 C2565 1.334 . S
C2566 C2567 1.287 . S
C2567 C2566 1.287 . S
C2567 C2568 1.524 . S
C2567 H2570 0.999 . S
C2568 H2538 0.950 . S
C2568 C2567 1.524 . S
C2568 C2569 1.415 . S
C2569 H2539 0.950 . S
C2569 C2564 1.363 . S
C2569 C2568 1.415 . S
H2570 C2567 0.999 . S
H2571 C2552 0.913 . S
H2572 C2590 0.951 . S
H2573 C2592 0.951 . S
H2574 C2594 0.950 . S
H2575 C2595 0.950 . S
H2576 C2597 0.950 . S
H2577 C2600 0.950 1_545 S
H2578 C2601 0.950 . S
H2579 C2603 0.950 . S
H2580 C2604 0.950 . S
H2581 C2605 0.951 . S
H2582 C2607 0.951 . S
H2583 C2609 0.950 . S
H2584 C2610 0.950 . S
H2585 C2612 0.950 . S
H2586 C2615 0.950 . S
H2587 C2616 0.950 . S
H2588 C2618 0.950 . S
H2589 C2619 0.950 . S
C2590 H2572 0.951 . S
C2590 C2591 1.366 1_565 S
C2590 C2592 1.388 . S
C2591 C2590 1.366 1_545 S
C2591 C2595 1.385 . S
C2592 H2573 0.951 . S
C2592 C2590 1.388 . S
C2592 C2593 1.366 1_565 S
C2593 C2592 1.366 1_545 S
C2593 C2594 1.414 . S
C2593 C2596 1.499 . S
C2594 H2574 0.950 . S
C2594 C2593 1.414 . S
C2594 C2595 1.374 . S
C2595 H2575 0.950 . S
C2595 C2591 1.385 . S
C2595 C2594 1.374 . S
C2596 C2593 1.499 . S
C2596 C2597 1.373 . S
C2596 C2598 1.389 1_545 S
C2597 H2576 0.950 . S
C2597 C2596 1.373 . S
C2597 C2613 1.377 . S
C2598 C2596 1.389 1_565 S
C2598 C2599 1.524 . S
C2598 C2612 1.377 . S
C2599 C2598 1.524 . S
C2599 C2600 1.397 . S
C2599 C2604 1.363 . S
C2600 H2577 0.950 1_565 S
C2600 C2599 1.397 . S
C2600 C2601 1.334 . S
C2601 H2578 0.950 . S
C2601 C2600 1.334 . S
C2601 C2602 1.287 . S
C2602 C2601 1.287 . S
C2602 C2603 1.524 . S
C2602 H2621 0.913 . S
C2603 H2579 0.950 . S
C2603 C2602 1.524 . S
C2603 C2604 1.415 . S
C2604 H2580 0.950 . S
C2604 C2599 1.363 . S
C2604 C2603 1.415 . S
C2605 H2581 0.951 . S
C2605 C2606 1.366 . S
C2605 C2607 1.388 . S
C2606 C2605 1.366 . S
C2606 C2610 1.385 1_545 S
C2607 H2582 0.951 . S
C2607 C2605 1.388 . S
C2607 C2608 1.366 . S
C2608 C2607 1.366 . S
C2608 C2609 1.414 1_545 S
C2608 C2611 1.499 . S
C2609 H2583 0.950 . S
C2609 C2608 1.414 1_565 S
C2609 C2610 1.374 . S
C2610 H2584 0.950 . S
C2610 C2606 1.385 1_565 S
C2610 C2609 1.374 . S
C2611 C2608 1.499 . S
C2611 C2612 1.373 1_545 S
C2611 C2613 1.389 . S
C2612 H2585 0.950 . S
C2612 C2598 1.377 . S
C2612 C2611 1.373 1_565 S
C2613 C2597 1.377 . S
C2613 C2611 1.389 . S
C2613 C2614 1.524 . S
C2614 C2613 1.524 . S
C2614 C2615 1.397 . S
C2614 C2619 1.363 . S
C2615 H2586 0.950 . S
C2615 C2614 1.397 . S
C2615 C2616 1.334 . S
C2616 H2587 0.950 . S
C2616 C2615 1.334 . S
C2616 C2617 1.287 . S
C2617 C2616 1.287 . S
C2617 C2618 1.524 . S
C2617 H2620 0.999 . S
C2618 H2588 0.950 . S
C2618 C2617 1.524 . S
C2618 C2619 1.415 . S
C2619 H2589 0.950 . S
C2619 C2614 1.363 . S
C2619 C2618 1.415 . S
H2620 C2617 0.999 . S
H2621 C2602 0.913 . S
H2622 C2640 0.951 . S
H2623 C2642 0.951 . S
H2624 C2644 0.950 . S
H2625 C2645 0.950 . S
H2626 C2647 0.950 . S
H2627 C2650 0.950 . S
H2628 C2651 0.950 . S
H2629 C2653 0.950 . S
H2630 C2654 0.950 . S
H2631 C2655 0.951 . S
H2632 C2657 0.951 . S
H2633 C2659 0.950 . S
H2634 C2660 0.950 . S
H2635 C2662 0.950 . S
H2636 C2665 0.950 . S
H2637 C2666 0.950 . S
H2638 C2668 0.950 . S
H2639 C2669 0.950 . S
C2640 H2622 0.951 . S
C2640 C2641 1.366 . S
C2640 C2642 1.388 . S
C2641 C2640 1.366 . S
C2641 C2645 1.385 . S
C2642 H2623 0.951 . S
C2642 C2640 1.388 . S
C2642 C2643 1.366 . S
C2643 C2642 1.366 . S
C2643 C2644 1.414 . S
C2643 C2646 1.499 . S
C2644 H2624 0.950 . S
C2644 C2643 1.414 . S
C2644 C2645 1.374 . S
C2645 H2625 0.950 . S
C2645 C2641 1.385 . S
C2645 C2644 1.374 . S
C2646 C2643 1.499 . S
C2646 C2647 1.373 . S
C2646 C2648 1.389 . S
C2647 H2626 0.950 . S
C2647 C2646 1.373 . S
C2647 C2663 1.377 . S
C2648 C2646 1.389 . S
C2648 C2649 1.524 . S
C2648 C2662 1.377 . S
C2649 C2648 1.524 . S
C2649 C2650 1.397 . S
C2649 C2654 1.363 . S
C2650 H2627 0.950 . S
C2650 C2649 1.397 . S
C2650 C2651 1.334 . S
C2651 H2628 0.950 . S
C2651 C2650 1.334 . S
C2651 C2652 1.287 . S
C2652 C2651 1.287 . S
C2652 C2653 1.524 . S
C2652 H2671 0.913 . S
C2653 H2629 0.950 . S
C2653 C2652 1.524 . S
C2653 C2654 1.415 . S
C2654 H2630 0.950 . S
C2654 C2649 1.363 . S
C2654 C2653 1.415 . S
C2655 H2631 0.951 . S
C2655 C2656 1.366 . S
C2655 C2657 1.388 . S
C2656 C2655 1.366 . S
C2656 C2660 1.385 . S
C2657 H2632 0.951 . S
C2657 C2655 1.388 . S
C2657 C2658 1.366 . S
C2658 C2657 1.366 . S
C2658 C2659 1.414 . S
C2658 C2661 1.499 . S
C2659 H2633 0.950 . S
C2659 C2658 1.414 . S
C2659 C2660 1.374 . S
C2660 H2634 0.950 . S
C2660 C2656 1.385 . S
C2660 C2659 1.374 . S
C2661 C2658 1.499 . S
C2661 C2662 1.373 . S
C2661 C2663 1.389 . S
C2662 H2635 0.950 . S
C2662 C2648 1.377 . S
C2662 C2661 1.373 . S
C2663 C2647 1.377 . S
C2663 C2661 1.389 . S
C2663 C2664 1.524 . S
C2664 C2663 1.524 . S
C2664 C2665 1.397 . S
C2664 C2669 1.363 . S
C2665 H2636 0.950 . S
C2665 C2664 1.397 . S
C2665 C2666 1.334 . S
C2666 H2637 0.950 . S
C2666 C2665 1.334 . S
C2666 C2667 1.287 . S
C2667 C2666 1.287 . S
C2667 C2668 1.524 . S
C2667 H2670 0.999 . S
C2668 H2638 0.950 . S
C2668 C2667 1.524 . S
C2668 C2669 1.415 . S
C2669 H2639 0.950 . S
C2669 C2664 1.363 . S
C2669 C2668 1.415 . S
H2670 C2667 0.999 . S
H2671 C2652 0.913 . S
H2672 C2690 0.951 . S
H2673 C2692 0.951 . S
H2674 C2694 0.950 . S
H2675 C2695 0.950 . S
H2676 C2697 0.950 . S
H2677 C2700 0.950 . S
H2678 C2701 0.950 . S
H2679 C2703 0.950 1_545 S
H2680 C2704 0.950 . S
H2681 C2705 0.951 1_556 S
H2682 C2707 0.951 1_556 S
H2683 C2709 0.950 . S
H2684 C2710 0.958 . S
H2685 C2712 0.950 . S
H2686 C2715 0.950 . S
H2687 C2716 0.950 . S
H2688 C2718 0.950 . S
H2689 C2719 0.950 . S
C2690 H2672 0.951 . S
C2690 C2691 1.366 . S
C2690 C2692 1.388 . S
C2691 C2690 1.366 . S
C2691 C2695 1.385 1_554 S
C2692 H2673 0.951 . S
C2692 C2690 1.388 . S
C2692 C2693 1.366 . S
C2693 C2692 1.366 . S
C2693 C2694 1.414 1_554 S
C2693 C2696 1.499 . S
C2694 H2674 0.950 . S
C2694 C2693 1.414 1_556 S
C2694 C2695 1.374 . S
C2695 H2675 0.950 . S
C2695 C2691 1.385 1_556 S
C2695 C2694 1.374 . S
C2696 C2693 1.499 . S
C2696 C2697 1.373 . S
C2696 C2698 1.389 . S
C2697 H2676 0.950 . S
C2697 C2696 1.373 . S
C2697 C2713 1.377 . S
C2698 C2696 1.389 . S
C2698 C2699 1.524 1_554 S
C2698 C2712 1.377 . S
C2699 C2698 1.524 1_556 S
C2699 C2700 1.397 . S
C2699 C2704 1.363 1_556 S
C2700 H2677 0.950 . S
C2700 C2699 1.397 . S
C2700 C2701 1.334 . S
C2701 H2678 0.950 . S
C2701 C2700 1.334 . S
C2701 C2702 1.287 . S
C2702 C2701 1.287 . S
C2702 C2703 1.524 . S
C2702 H2721 0.913 . S
C2703 H2679 0.950 1_565 S
C2703 C2702 1.524 . S
C2703 C2704 1.415 1_556 S
C2704 H2680 0.950 . S
C2704 C2699 1.363 1_554 S
C2704 C2703 1.415 1_554 S
C2705 H2681 0.951 1_554 S
C2705 C2706 1.366 . S
C2705 C2707 1.388 . S
C2706 C2705 1.366 . S
C2706 C2710 1.385 . S
C2707 H2682 0.951 1_554 S
C2707 C2705 1.388 . S
C2707 C2708 1.366 . S
C2708 C2707 1.366 . S
C2708 C2709 1.414 . S
C2708 C2711 1.499 . S
C2709 H2683 0.950 . S
C2709 C2708 1.414 . S
C2709 C2710 1.374 . S
C2710 H2684 0.958 . S
C2710 C2706 1.385 . S
C2710 C2709 1.374 . S
C2711 C2708 1.499 . S
C2711 C2712 1.373 . S
C2711 C2713 1.389 . S
C2712 H2685 0.950 . S
C2712 C2698 1.377 . S
C2712 C2711 1.373 . S
C2713 C2697 1.377 . S
C2713 C2711 1.389 . S
C2713 C2714 1.524 . S
C2714 C2713 1.524 . S
C2714 C2715 1.397 . S
C2714 C2719 1.363 . S
C2715 H2686 0.950 . S
C2715 C2714 1.397 . S
C2715 C2716 1.334 . S
C2716 H2687 0.950 . S
C2716 C2715 1.334 . S
C2716 C2717 1.287 . S
C2717 C2716 1.287 . S
C2717 C2718 1.524 . S
C2717 H2720 0.999 . S
C2718 H2688 0.950 . S
C2718 C2717 1.524 . S
C2718 C2719 1.415 . S
C2719 H2689 0.950 . S
C2719 C2714 1.363 . S
C2719 C2718 1.415 . S
H2720 C2717 0.999 . S
H2721 C2702 0.913 . S
H2722 C2740 0.951 . S
H2723 C2742 0.951 . S
H2724 C2744 0.950 . S
H2725 C2745 0.950 . S
H2726 C2747 0.950 . S
H2727 C2750 0.950 . S
H2728 C2751 0.950 . S
H2729 C2753 0.950 . S
H2730 C2754 0.950 . S
H2731 C2755 0.951 . S
H2732 C2757 0.951 . S
H2733 C2759 0.950 . S
H2734 C2760 0.950 . S
H2735 C2762 0.950 . S
H2736 C2765 0.950 . S
H2737 C2766 0.950 . S
H2738 C2768 0.950 . S
H2739 C2769 0.950 . S
C2740 H2722 0.951 . S
C2740 C2741 1.366 1_556 S
C2740 C2742 1.388 . S
C2741 C2740 1.366 1_554 S
C2741 C2745 1.385 . S
C2742 H2723 0.951 . S
C2742 C2740 1.388 . S
C2742 C2743 1.366 1_556 S
C2743 C2742 1.366 1_554 S
C2743 C2744 1.414 . S
C2743 C2746 1.499 . S
C2744 H2724 0.950 . S
C2744 C2743 1.414 . S
C2744 C2745 1.374 . S
C2745 H2725 0.950 . S
C2745 C2741 1.385 . S
C2745 C2744 1.374 . S
C2746 C2743 1.499 . S
C2746 C2747 1.373 . S
C2746 C2748 1.384 1_554 S
C2747 H2726 0.950 . S
C2747 C2746 1.373 . S
C2747 C2763 1.382 . S
C2748 C2746 1.384 1_556 S
C2748 C2749 1.524 . S
C2748 C2762 1.382 . S
C2749 C2748 1.524 . S
C2749 C2750 1.374 1_556 S
C2749 C2754 1.383 . S
C2750 H2727 0.950 . S
C2750 C2749 1.374 1_554 S
C2750 C2751 1.334 . S
C2751 H2728 0.950 . S
C2751 C2750 1.334 . S
C2751 C2752 1.287 . S
C2752 C2751 1.287 . S
C2752 C2753 1.524 1_554 S
C2752 H2771 0.913 . S
C2753 H2729 0.950 . S
C2753 C2752 1.524 1_556 S
C2753 C2754 1.415 . S
C2754 H2730 0.950 . S
C2754 C2749 1.383 . S
C2754 C2753 1.415 . S
C2755 H2731 0.951 . S
C2755 C2756 1.366 1_554 S
C2755 C2757 1.388 . S
C2756 C2755 1.366 1_556 S
C2756 C2760 1.385 . S
C2757 H2732 0.951 . S
C2757 C2755 1.388 . S
C2757 C2758 1.366 1_554 S
C2758 C2757 1.366 1_556 S
C2758 C2759 1.414 . S
C2758 C2761 1.499 . S
C2759 H2733 0.950 . S
C2759 C2758 1.414 . S
C2759 C2760 1.374 . S
C2760 H2734 0.950 . S
C2760 C2756 1.385 . S
C2760 C2759 1.374 . S
C2761 C2758 1.499 . S
C2761 C2762 1.373 . S
C2761 C2763 1.385 1_556 S
C2762 H2735 0.950 . S
C2762 C2748 1.382 . S
C2762 C2761 1.373 . S
C2763 C2747 1.382 . S
C2763 C2761 1.385 1_554 S
C2763 C2764 1.524 . S
C2764 C2763 1.524 . S
C2764 C2765 1.378 1_554 S
C2764 C2769 1.379 . S
C2765 H2736 0.950 . S
C2765 C2764 1.378 1_556 S
C2765 C2766 1.334 . S
C2766 H2737 0.950 . S
C2766 C2765 1.334 . S
C2766 C2767 1.287 . S
C2767 C2766 1.287 . S
C2767 C2768 1.524 1_556 S
C2767 H2770 0.999 . S
C2768 H2738 0.950 . S
C2768 C2767 1.524 1_554 S
C2768 C2769 1.415 . S
C2769 H2739 0.950 . S
C2769 C2764 1.379 . S
C2769 C2768 1.415 . S
H2770 C2767 0.999 . S
H2771 C2752 0.913 . S
H2772 C2790 0.951 . S
H2773 C2792 0.951 . S
H2774 C2794 0.950 . S
H2775 C2795 0.950 . S
H2776 C2797 0.950 . S
H2777 C2800 0.950 . S
H2778 C2801 0.950 . S
H2779 C2803 0.950 . S
H2780 C2804 0.950 . S
H2781 C2805 0.951 . S
H2782 C2807 0.951 . S
H2783 C2809 0.950 . S
H2784 C2810 0.950 . S
H2785 C2812 0.950 . S
H2786 C2815 0.950 . S
H2787 C2816 0.950 . S
H2788 C2818 0.950 . S
H2789 C2819 0.950 . S
C2790 H2772 0.951 . S
C2790 C2791 1.366 . S
C2790 C2792 1.388 . S
C2791 C2790 1.366 . S
C2791 C2795 1.385 . S
C2792 H2773 0.951 . S
C2792 C2790 1.388 . S
C2792 C2793 1.366 . S
C2793 C2792 1.366 . S
C2793 C2794 1.414 . S
C2793 C2796 1.499 . S
C2794 H2774 0.950 . S
C2794 C2793 1.414 . S
C2794 C2795 1.374 . S
C2795 H2775 0.950 . S
C2795 C2791 1.385 . S
C2795 C2794 1.374 . S
C2796 C2793 1.499 . S
C2796 C2797 1.373 . S
C2796 C2798 1.389 . S
C2797 H2776 0.950 . S
C2797 C2796 1.373 . S
C2797 C2813 1.377 . S
C2798 C2796 1.389 . S
C2798 C2799 1.524 . S
C2798 C2812 1.377 . S
C2799 C2798 1.524 . S
C2799 C2800 1.397 . S
C2799 C2804 1.363 . S
C2800 H2777 0.950 . S
C2800 C2799 1.397 . S
C2800 C2801 1.334 . S
C2801 H2778 0.950 . S
C2801 C2800 1.334 . S
C2801 C2802 1.287 . S
C2802 C2801 1.287 . S
C2802 C2803 1.524 . S
C2802 H2821 0.913 . S
C2803 H2779 0.950 . S
C2803 C2802 1.524 . S
C2803 C2804 1.415 . S
C2804 H2780 0.950 . S
C2804 C2799 1.363 . S
C2804 C2803 1.415 . S
C2805 H2781 0.951 . S
C2805 C2806 1.366 . S
C2805 C2807 1.388 . S
C2806 C2805 1.366 . S
C2806 C2810 1.385 . S
C2807 H2782 0.951 . S
C2807 C2805 1.388 . S
C2807 C2808 1.366 . S
C2808 C2807 1.366 . S
C2808 C2809 1.414 . S
C2808 C2811 1.499 . S
C2809 H2783 0.950 . S
C2809 C2808 1.414 . S
C2809 C2810 1.374 . S
C2810 H2784 0.950 . S
C2810 C2806 1.385 . S
C2810 C2809 1.374 . S
C2811 C2808 1.499 . S
C2811 C2812 1.373 . S
C2811 C2813 1.389 . S
C2812 H2785 0.950 . S
C2812 C2798 1.377 . S
C2812 C2811 1.373 . S
C2813 C2797 1.377 . S
C2813 C2811 1.389 . S
C2813 C2814 1.524 . S
C2814 C2813 1.524 . S
C2814 C2815 1.397 . S
C2814 C2819 1.363 . S
C2815 H2786 0.950 . S
C2815 C2814 1.397 . S
C2815 C2816 1.334 . S
C2816 H2787 0.950 . S
C2816 C2815 1.334 . S
C2816 C2817 1.287 . S
C2817 C2816 1.287 . S
C2817 C2818 1.524 . S
C2817 H2820 0.999 . S
C2818 H2788 0.950 . S
C2818 C2817 1.524 . S
C2818 C2819 1.415 . S
C2819 H2789 0.950 . S
C2819 C2814 1.363 . S
C2819 C2818 1.415 . S
H2820 C2817 0.999 . S
H2821 C2802 0.913 . S
H2822 C2840 0.951 . S
H2823 C2842 0.951 . S
H2824 C2844 0.950 . S
H2825 C2845 0.950 . S
H2826 C2847 0.950 . S
H2827 C2850 0.950 . S
H2828 C2851 0.950 . S
H2829 C2853 0.950 . S
H2830 C2854 0.950 . S
H2831 C2855 0.951 . S
H2832 C2857 0.951 . S
H2833 C2859 0.950 . S
H2834 C2860 0.950 . S
H2835 C2862 0.950 . S
H2836 C2865 0.950 . S
H2837 C2866 0.950 . S
H2838 C2868 0.950 . S
H2839 C2869 0.950 . S
C2840 H2822 0.951 . S
C2840 C2841 1.366 . S
C2840 C2842 1.388 . S
C2841 C2840 1.366 . S
C2841 C2845 1.385 . S
C2842 H2823 0.951 . S
C2842 C2840 1.388 . S
C2842 C2843 1.366 . S
C2843 C2842 1.366 . S
C2843 C2844 1.414 . S
C2843 C2846 1.499 . S
C2844 H2824 0.950 . S
C2844 C2843 1.414 . S
C2844 C2845 1.374 . S
C2845 H2825 0.950 . S
C2845 C2841 1.385 . S
C2845 C2844 1.374 . S
C2846 C2843 1.499 . S
C2846 C2847 1.373 . S
C2846 C2848 1.389 . S
C2847 H2826 0.950 . S
C2847 C2846 1.373 . S
C2847 C2863 1.377 . S
C2848 C2846 1.389 . S
C2848 C2849 1.524 . S
C2848 C2862 1.377 . S
C2849 C2848 1.524 . S
C2849 C2850 1.397 . S
C2849 C2854 1.363 . S
C2850 H2827 0.950 . S
C2850 C2849 1.397 . S
C2850 C2851 1.334 . S
C2851 H2828 0.950 . S
C2851 C2850 1.334 . S
C2851 C2852 1.287 . S
C2852 C2851 1.287 . S
C2852 C2853 1.524 . S
C2852 H2871 0.913 . S
C2853 H2829 0.950 . S
C2853 C2852 1.524 . S
C2853 C2854 1.415 . S
C2854 H2830 0.950 . S
C2854 C2849 1.363 . S
C2854 C2853 1.415 . S
C2855 H2831 0.951 . S
C2855 C2856 1.366 . S
C2855 C2857 1.388 . S
C2856 C2855 1.366 . S
C2856 C2860 1.385 . S
C2857 H2832 0.951 . S
C2857 C2855 1.388 . S
C2857 C2858 1.366 . S
C2858 C2857 1.366 . S
C2858 C2859 1.414 . S
C2858 C2861 1.499 . S
C2859 H2833 0.950 . S
C2859 C2858 1.414 . S
C2859 C2860 1.374 . S
C2860 H2834 0.950 . S
C2860 C2856 1.385 . S
C2860 C2859 1.374 . S
C2861 C2858 1.499 . S
C2861 C2862 1.373 . S
C2861 C2863 1.389 . S
C2862 H2835 0.950 . S
C2862 C2848 1.377 . S
C2862 C2861 1.373 . S
C2863 C2847 1.377 . S
C2863 C2861 1.389 . S
C2863 C2864 1.524 . S
C2864 C2863 1.524 . S
C2864 C2865 1.397 . S
C2864 C2869 1.363 . S
C2865 H2836 0.950 . S
C2865 C2864 1.397 . S
C2865 C2866 1.334 . S
C2866 H2837 0.950 . S
C2866 C2865 1.334 . S
C2866 C2867 1.287 . S
C2867 C2866 1.287 . S
C2867 C2868 1.524 . S
C2867 H2870 0.999 . S
C2868 H2838 0.950 . S
C2868 C2867 1.524 . S
C2868 C2869 1.415 . S
C2869 H2839 0.950 . S
C2869 C2864 1.363 . S
C2869 C2868 1.415 . S
H2870 C2867 0.999 . S
H2871 C2852 0.913 . S
H2872 C2890 0.951 . S
H2873 C2892 0.951 . S
H2874 C2894 0.950 . S
H2875 C2895 0.950 . S
H2876 C2897 0.950 . S
H2877 C2900 0.950 . S
H2878 C2901 0.950 . S
H2879 C2903 0.950 . S
H2880 C2904 0.950 . S
H2881 C2905 0.951 . S
H2882 C2907 0.951 . S
H2883 C2909 0.950 . S
H2884 C2910 0.950 . S
H2885 C2912 0.950 . S
H2886 C2915 0.950 . S
H2887 C2916 0.950 . S
H2888 C2918 0.950 . S
H2889 C2919 0.950 . S
C2890 H2872 0.951 . S
C2890 C2891 1.366 . S
C2890 C2892 1.388 . S
C2891 C2890 1.366 . S
C2891 C2895 1.385 . S
C2892 H2873 0.951 . S
C2892 C2890 1.388 . S
C2892 C2893 1.366 . S
C2893 C2892 1.366 . S
C2893 C2894 1.414 . S
C2893 C2896 1.499 . S
C2894 H2874 0.950 . S
C2894 C2893 1.414 . S
C2894 C2895 1.374 . S
C2895 H2875 0.950 . S
C2895 C2891 1.385 . S
C2895 C2894 1.374 . S
C2896 C2893 1.499 . S
C2896 C2897 1.373 . S
C2896 C2898 1.389 . S
C2897 H2876 0.950 . S
C2897 C2896 1.373 . S
C2897 C2913 1.377 . S
C2898 C2896 1.389 . S
C2898 C2899 1.524 . S
C2898 C2912 1.377 . S
C2899 C2898 1.524 . S
C2899 C2900 1.397 . S
C2899 C2904 1.363 . S
C2900 H2877 0.950 . S
C2900 C2899 1.397 . S
C2900 C2901 1.334 . S
C2901 H2878 0.950 . S
C2901 C2900 1.334 . S
C2901 C2902 1.287 . S
C2902 C2901 1.287 . S
C2902 C2903 1.524 . S
C2902 H2921 0.913 . S
C2903 H2879 0.950 . S
C2903 C2902 1.524 . S
C2903 C2904 1.415 . S
C2904 H2880 0.950 . S
C2904 C2899 1.363 . S
C2904 C2903 1.415 . S
C2905 H2881 0.951 . S
C2905 C2906 1.366 . S
C2905 C2907 1.388 . S
C2906 C2905 1.366 . S
C2906 C2910 1.385 . S
C2907 H2882 0.951 . S
C2907 C2905 1.388 . S
C2907 C2908 1.366 . S
C2908 C2907 1.366 . S
C2908 C2909 1.414 . S
C2908 C2911 1.499 . S
C2909 H2883 0.950 . S
C2909 C2908 1.414 . S
C2909 C2910 1.374 . S
C2910 H2884 0.950 . S
C2910 C2906 1.385 . S
C2910 C2909 1.374 . S
C2911 C2908 1.499 . S
C2911 C2912 1.373 . S
C2911 C2913 1.389 . S
C2912 H2885 0.950 . S
C2912 C2898 1.377 . S
C2912 C2911 1.373 . S
C2913 C2897 1.377 . S
C2913 C2911 1.389 . S
C2913 C2914 1.524 . S
C2914 C2913 1.524 . S
C2914 C2915 1.397 . S
C2914 C2919 1.363 . S
C2915 H2886 0.950 . S
C2915 C2914 1.397 . S
C2915 C2916 1.334 . S
C2916 H2887 0.950 . S
C2916 C2915 1.334 . S
C2916 C2917 1.287 . S
C2917 C2916 1.287 . S
C2917 C2918 1.524 . S
C2917 H2920 0.999 . S
C2918 H2888 0.950 . S
C2918 C2917 1.524 . S
C2918 C2919 1.415 . S
C2919 H2889 0.950 . S
C2919 C2914 1.363 . S
C2919 C2918 1.415 . S
H2920 C2917 0.999 . S
H2921 C2902 0.913 . S
H2922 C2940 0.951 . S
H2923 C2942 0.951 . S
H2924 C2944 0.950 . S
H2925 C2945 0.950 . S
H2926 C2947 0.950 . S
H2927 C2950 0.950 . S
H2928 C2951 0.950 . S
H2929 C2953 0.950 . S
H2930 C2954 0.950 . S
H2931 C2955 0.951 . S
H2932 C2957 0.951 . S
H2933 C2959 0.950 . S
H2934 C2960 0.950 . S
H2935 C2962 0.950 . S
H2936 C2965 0.950 . S
H2937 C2966 0.950 . S
H2938 C2968 0.950 . S
H2939 C2969 0.950 . S
C2940 H2922 0.951 . S
C2940 C2941 1.366 . S
C2940 C2942 1.388 . S
C2941 C2940 1.366 . S
C2941 C2945 1.385 . S
C2942 H2923 0.951 . S
C2942 C2940 1.388 . S
C2942 C2943 1.366 . S
C2943 C2942 1.366 . S
C2943 C2944 1.414 . S
C2943 C2946 1.499 . S
C2944 H2924 0.950 . S
C2944 C2943 1.414 . S
C2944 C2945 1.374 . S
C2945 H2925 0.950 . S
C2945 C2941 1.385 . S
C2945 C2944 1.374 . S
C2946 C2943 1.499 . S
C2946 C2947 1.373 . S
C2946 C2948 1.389 . S
C2947 H2926 0.950 . S
C2947 C2946 1.373 . S
C2947 C2963 1.377 . S
C2948 C2946 1.389 . S
C2948 C2949 1.524 . S
C2948 C2962 1.377 . S
C2949 C2948 1.524 . S
C2949 C2950 1.397 . S
C2949 C2954 1.363 . S
C2950 H2927 0.950 . S
C2950 C2949 1.397 . S
C2950 C2951 1.334 . S
C2951 H2928 0.950 . S
C2951 C2950 1.334 . S
C2951 C2952 1.287 . S
C2952 C2951 1.287 . S
C2952 C2953 1.524 . S
C2952 H2971 0.913 . S
C2953 H2929 0.950 . S
C2953 C2952 1.524 . S
C2953 C2954 1.415 . S
C2954 H2930 0.950 . S
C2954 C2949 1.363 . S
C2954 C2953 1.415 . S
C2955 H2931 0.951 . S
C2955 C2956 1.366 . S
C2955 C2957 1.388 . S
C2956 C2955 1.366 . S
C2956 C2960 1.385 . S
C2957 H2932 0.951 . S
C2957 C2955 1.388 . S
C2957 C2958 1.366 . S
C2958 C2957 1.366 . S
C2958 C2959 1.414 . S
C2958 C2961 1.499 . S
C2959 H2933 0.950 . S
C2959 C2958 1.414 . S
C2959 C2960 1.374 . S
C2960 H2934 0.950 . S
C2960 C2956 1.385 . S
C2960 C2959 1.374 . S
C2961 C2958 1.499 . S
C2961 C2962 1.373 . S
C2961 C2963 1.389 . S
C2962 H2935 0.950 . S
C2962 C2948 1.377 . S
C2962 C2961 1.373 . S
C2963 C2947 1.377 . S
C2963 C2961 1.389 . S
C2963 C2964 1.524 . S
C2964 C2963 1.524 . S
C2964 C2965 1.397 . S
C2964 C2969 1.363 . S
C2965 H2936 0.950 . S
C2965 C2964 1.397 . S
C2965 C2966 1.334 . S
C2966 H2937 0.950 . S
C2966 C2965 1.334 . S
C2966 C2967 1.287 . S
C2967 C2966 1.287 . S
C2967 C2968 1.524 . S
C2967 H2970 0.999 . S
C2968 H2938 0.950 . S
C2968 C2967 1.524 . S
C2968 C2969 1.415 . S
C2969 H2939 0.950 . S
C2969 C2964 1.363 . S
C2969 C2968 1.415 . S
H2970 C2967 0.999 . S
H2971 C2952 0.913 . S
H2972 C2990 0.951 . S
H2973 C2992 0.951 . S
H2974 C2994 0.950 . S
H2975 C2995 0.950 . S
H2976 C2997 0.950 . S
H2977 C3000 0.950 . S
H2978 C3001 0.950 . S
H2979 C3003 0.950 . S
H2980 C3004 0.950 . S
H2981 C3005 0.951 . S
H2982 C3007 0.951 . S
H2983 C3009 0.950 . S
H2984 C3010 0.950 . S
H2985 C3012 0.950 . S
H2986 C3015 0.950 . S
H2987 C3016 0.950 . S
H2988 C3018 0.950 . S
H2989 C3019 0.950 . S
C2990 H2972 0.951 . S
C2990 C2991 1.366 . S
C2990 C2992 1.388 . S
C2991 C2990 1.366 . S
C2991 C2995 1.385 . S
C2992 H2973 0.951 . S
C2992 C2990 1.388 . S
C2992 C2993 1.366 . S
C2993 C2992 1.366 . S
C2993 C2994 1.414 . S
C2993 C2996 1.499 . S
C2994 H2974 0.950 . S
C2994 C2993 1.414 . S
C2994 C2995 1.374 . S
C2995 H2975 0.950 . S
C2995 C2991 1.385 . S
C2995 C2994 1.374 . S
C2996 C2993 1.499 . S
C2996 C2997 1.373 . S
C2996 C2998 1.389 . S
C2997 H2976 0.950 . S
C2997 C2996 1.373 . S
C2997 C3013 1.377 . S
C2998 C2996 1.389 . S
C2998 C2999 1.524 . S
C2998 C3012 1.377 . S
C2999 C2998 1.524 . S
C2999 C3000 1.397 . S
C2999 C3004 1.363 . S
C3000 H2977 0.950 . S
C3000 C2999 1.397 . S
C3000 C3001 1.334 . S
C3001 H2978 0.950 . S
C3001 C3000 1.334 . S
C3001 C3002 1.287 . S
C3002 C3001 1.287 . S
C3002 C3003 1.524 . S
C3002 H3021 0.913 . S
C3003 H2979 0.950 . S
C3003 C3002 1.524 . S
C3003 C3004 1.415 . S
C3004 H2980 0.950 . S
C3004 C2999 1.363 . S
C3004 C3003 1.415 . S
C3005 H2981 0.951 . S
C3005 C3006 1.366 . S
C3005 C3007 1.388 . S
C3006 C3005 1.366 . S
C3006 C3010 1.385 . S
C3007 H2982 0.951 . S
C3007 C3005 1.388 . S
C3007 C3008 1.366 . S
C3008 C3007 1.366 . S
C3008 C3009 1.414 . S
C3008 C3011 1.499 . S
C3009 H2983 0.950 . S
C3009 C3008 1.414 . S
C3009 C3010 1.374 . S
C3010 H2984 0.950 . S
C3010 C3006 1.385 . S
C3010 C3009 1.374 . S
C3011 C3008 1.499 . S
C3011 C3012 1.373 . S
C3011 C3013 1.389 . S
C3012 H2985 0.950 . S
C3012 C2998 1.377 . S
C3012 C3011 1.373 . S
C3013 C2997 1.377 . S
C3013 C3011 1.389 . S
C3013 C3014 1.524 . S
C3014 C3013 1.524 . S
C3014 C3015 1.397 . S
C3014 C3019 1.363 . S
C3015 H2986 0.950 . S
C3015 C3014 1.397 . S
C3015 C3016 1.334 . S
C3016 H2987 0.950 . S
C3016 C3015 1.334 . S
C3016 C3017 1.287 . S
C3017 C3016 1.287 . S
C3017 C3018 1.524 . S
C3017 H3020 0.999 . S
C3018 H2988 0.950 . S
C3018 C3017 1.524 . S
C3018 C3019 1.415 . S
C3019 H2989 0.950 . S
C3019 C3014 1.363 . S
C3019 C3018 1.415 . S
H3020 C3017 0.999 . S
H3021 C3002 0.913 . S
H3022 C3040 0.951 . S
H3023 C3042 0.951 . S
H3024 C3044 0.950 . S
H3025 C3045 0.950 . S
H3026 C3047 0.950 . S
H3027 C3050 0.950 . S
H3028 C3051 0.950 . S
H3029 C3053 0.950 . S
H3030 C3054 0.950 . S
H3031 C3055 0.951 . S
H3032 C3057 0.951 . S
H3033 C3059 0.950 . S
H3034 C3060 0.950 . S
H3035 C3062 0.950 . S
H3036 C3065 0.950 . S
H3037 C3066 0.950 . S
H3038 C3068 0.950 . S
H3039 C3069 0.950 . S
C3040 H3022 0.951 . S
C3040 C3041 1.366 . S
C3040 C3042 1.388 . S
C3041 C3040 1.366 . S
C3041 C3045 1.385 . S
C3042 H3023 0.951 . S
C3042 C3040 1.388 . S
C3042 C3043 1.366 . S
C3043 C3042 1.366 . S
C3043 C3044 1.414 . S
C3043 C3046 1.499 . S
C3044 H3024 0.950 . S
C3044 C3043 1.414 . S
C3044 C3045 1.374 . S
C3045 H3025 0.950 . S
C3045 C3041 1.385 . S
C3045 C3044 1.374 . S
C3046 C3043 1.499 . S
C3046 C3047 1.373 . S
C3046 C3048 1.389 . S
C3047 H3026 0.950 . S
C3047 C3046 1.373 . S
C3047 C3063 1.377 . S
C3048 C3046 1.389 . S
C3048 C3049 1.524 . S
C3048 C3062 1.377 . S
C3049 C3048 1.524 . S
C3049 C3050 1.397 . S
C3049 C3054 1.363 . S
C3050 H3027 0.950 . S
C3050 C3049 1.397 . S
C3050 C3051 1.334 . S
C3051 H3028 0.950 . S
C3051 C3050 1.334 . S
C3051 C3052 1.287 . S
C3052 C3051 1.287 . S
C3052 C3053 1.524 . S
C3052 H3071 0.913 . S
C3053 H3029 0.950 . S
C3053 C3052 1.524 . S
C3053 C3054 1.415 . S
C3054 H3030 0.950 . S
C3054 C3049 1.363 . S
C3054 C3053 1.415 . S
C3055 H3031 0.951 . S
C3055 C3056 1.366 . S
C3055 C3057 1.388 . S
C3056 C3055 1.366 . S
C3056 C3060 1.385 . S
C3057 H3032 0.951 . S
C3057 C3055 1.388 . S
C3057 C3058 1.366 . S
C3058 C3057 1.366 . S
C3058 C3059 1.414 . S
C3058 C3061 1.499 . S
C3059 H3033 0.950 . S
C3059 C3058 1.414 . S
C3059 C3060 1.374 . S
C3060 H3034 0.950 . S
C3060 C3056 1.385 . S
C3060 C3059 1.374 . S
C3061 C3058 1.499 . S
C3061 C3062 1.373 . S
C3061 C3063 1.389 . S
C3062 H3035 0.950 . S
C3062 C3048 1.377 . S
C3062 C3061 1.373 . S
C3063 C3047 1.377 . S
C3063 C3061 1.389 . S
C3063 C3064 1.524 . S
C3064 C3063 1.524 . S
C3064 C3065 1.397 . S
C3064 C3069 1.363 . S
C3065 H3036 0.950 . S
C3065 C3064 1.397 . S
C3065 C3066 1.334 . S
C3066 H3037 0.950 . S
C3066 C3065 1.334 . S
C3066 C3067 1.287 . S
C3067 C3066 1.287 . S
C3067 C3068 1.524 . S
C3067 H3070 0.999 . S
C3068 H3038 0.950 . S
C3068 C3067 1.524 . S
C3068 C3069 1.415 . S
C3069 H3039 0.950 . S
C3069 C3064 1.363 . S
C3069 C3068 1.415 . S
H3070 C3067 0.999 . S
H3071 C3052 0.913 . S
H3072 C3090 0.951 . S
H3073 C3092 0.951 . S
H3074 C3094 0.950 . S
H3075 C3095 0.950 . S
H3076 C3097 0.950 . S
H3077 C3100 0.950 . S
H3078 C3101 0.950 . S
H3079 C3103 0.950 . S
H3080 C3104 0.950 . S
H3081 C3105 0.951 . S
H3082 C3107 0.951 . S
H3083 C3109 0.950 . S
H3084 C3110 0.950 . S
H3085 C3112 0.950 . S
H3086 C3115 0.950 . S
H3087 C3116 0.950 . S
H3088 C3118 0.950 . S
H3089 C3119 0.950 . S
C3090 H3072 0.951 . S
C3090 C3091 1.366 . S
C3090 C3092 1.388 . S
C3091 C3090 1.366 . S
C3091 C3095 1.385 . S
C3092 H3073 0.951 . S
C3092 C3090 1.388 . S
C3092 C3093 1.366 . S
C3093 C3092 1.366 . S
C3093 C3094 1.414 . S
C3093 C3096 1.499 . S
C3094 H3074 0.950 . S
C3094 C3093 1.414 . S
C3094 C3095 1.374 . S
C3095 H3075 0.950 . S
C3095 C3091 1.385 . S
C3095 C3094 1.374 . S
C3096 C3093 1.499 . S
C3096 C3097 1.373 . S
C3096 C3098 1.389 . S
C3097 H3076 0.950 . S
C3097 C3096 1.373 . S
C3097 C3113 1.377 . S
C3098 C3096 1.389 . S
C3098 C3099 1.524 . S
C3098 C3112 1.377 . S
C3099 C3098 1.524 . S
C3099 C3100 1.397 . S
C3099 C3104 1.363 . S
C3100 H3077 0.950 . S
C3100 C3099 1.397 . S
C3100 C3101 1.334 . S
C3101 H3078 0.950 . S
C3101 C3100 1.334 . S
C3101 C3102 1.287 . S
C3102 C3101 1.287 . S
C3102 C3103 1.524 . S
C3102 H3121 0.913 . S
C3103 H3079 0.950 . S
C3103 C3102 1.524 . S
C3103 C3104 1.415 . S
C3104 H3080 0.950 . S
C3104 C3099 1.363 . S
C3104 C3103 1.415 . S
C3105 H3081 0.951 . S
C3105 C3106 1.366 . S
C3105 C3107 1.388 . S
C3106 C3105 1.366 . S
C3106 C3110 1.385 . S
C3107 H3082 0.951 . S
C3107 C3105 1.388 . S
C3107 C3108 1.366 . S
C3108 C3107 1.366 . S
C3108 C3109 1.414 . S
C3108 C3111 1.499 . S
C3109 H3083 0.950 . S
C3109 C3108 1.414 . S
C3109 C3110 1.374 . S
C3110 H3084 0.950 . S
C3110 C3106 1.385 . S
C3110 C3109 1.374 . S
C3111 C3108 1.499 . S
C3111 C3112 1.373 . S
C3111 C3113 1.389 . S
C3112 H3085 0.950 . S
C3112 C3098 1.377 . S
C3112 C3111 1.373 . S
C3113 C3097 1.377 . S
C3113 C3111 1.389 . S
C3113 C3114 1.524 . S
C3114 C3113 1.524 . S
C3114 C3115 1.397 . S
C3114 C3119 1.363 . S
C3115 H3086 0.950 . S
C3115 C3114 1.397 . S
C3115 C3116 1.334 . S
C3116 H3087 0.950 . S
C3116 C3115 1.334 . S
C3116 C3117 1.287 . S
C3117 C3116 1.287 . S
C3117 C3118 1.524 . S
C3117 H3120 0.999 . S
C3118 H3088 0.950 . S
C3118 C3117 1.524 . S
C3118 C3119 1.415 . S
C3119 H3089 0.950 . S
C3119 C3114 1.363 . S
C3119 C3118 1.415 . S
H3120 C3117 0.999 . S
H3121 C3102 0.913 . S
H3122 C3140 0.951 . S
H3123 C3142 0.951 . S
H3124 C3144 0.950 . S
H3125 C3145 0.950 . S
H3126 C3147 0.950 . S
H3127 C3150 0.950 . S
H3128 C3151 0.950 . S
H3129 C3153 0.950 . S
H3130 C3154 0.950 . S
H3131 C3155 0.951 . S
H3132 C3157 0.951 . S
H3133 C3159 0.950 . S
H3134 C3160 0.950 . S
H3135 C3162 0.950 . S
H3136 C3165 0.950 . S
H3137 C3166 0.950 . S
H3138 C3168 0.950 . S
H3139 C3169 0.950 . S
C3140 H3122 0.951 . S
C3140 C3141 1.366 . S
C3140 C3142 1.388 . S
C3141 C3140 1.366 . S
C3141 C3145 1.385 . S
C3142 H3123 0.951 . S
C3142 C3140 1.388 . S
C3142 C3143 1.366 . S
C3143 C3142 1.366 . S
C3143 C3144 1.414 . S
C3143 C3146 1.499 . S
C3144 H3124 0.950 . S
C3144 C3143 1.414 . S
C3144 C3145 1.374 . S
C3145 H3125 0.950 . S
C3145 C3141 1.385 . S
C3145 C3144 1.374 . S
C3146 C3143 1.499 . S
C3146 C3147 1.373 . S
C3146 C3148 1.389 . S
C3147 H3126 0.950 . S
C3147 C3146 1.373 . S
C3147 C3163 1.377 . S
C3148 C3146 1.389 . S
C3148 C3149 1.524 . S
C3148 C3162 1.377 . S
C3149 C3148 1.524 . S
C3149 C3150 1.397 . S
C3149 C3154 1.363 . S
C3150 H3127 0.950 . S
C3150 C3149 1.397 . S
C3150 C3151 1.334 . S
C3151 H3128 0.950 . S
C3151 C3150 1.334 . S
C3151 C3152 1.287 . S
C3152 C3151 1.287 . S
C3152 C3153 1.524 . S
C3152 H3171 0.913 . S
C3153 H3129 0.950 . S
C3153 C3152 1.524 . S
C3153 C3154 1.415 . S
C3154 H3130 0.950 . S
C3154 C3149 1.363 . S
C3154 C3153 1.415 . S
C3155 H3131 0.951 . S
C3155 C3156 1.366 . S
C3155 C3157 1.388 . S
C3156 C3155 1.366 . S
C3156 C3160 1.385 . S
C3157 H3132 0.951 . S
C3157 C3155 1.388 . S
C3157 C3158 1.366 . S
C3158 C3157 1.366 . S
C3158 C3159 1.414 . S
C3158 C3161 1.499 . S
C3159 H3133 0.950 . S
C3159 C3158 1.414 . S
C3159 C3160 1.374 . S
C3160 H3134 0.950 . S
C3160 C3156 1.385 . S
C3160 C3159 1.374 . S
C3161 C3158 1.499 . S
C3161 C3162 1.373 . S
C3161 C3163 1.389 . S
C3162 H3135 0.950 . S
C3162 C3148 1.377 . S
C3162 C3161 1.373 . S
C3163 C3147 1.377 . S
C3163 C3161 1.389 . S
C3163 C3164 1.524 . S
C3164 C3163 1.524 . S
C3164 C3165 1.397 . S
C3164 C3169 1.363 . S
C3165 H3136 0.950 . S
C3165 C3164 1.397 . S
C3165 C3166 1.334 . S
C3166 H3137 0.950 . S
C3166 C3165 1.334 . S
C3166 C3167 1.287 . S
C3167 C3166 1.287 . S
C3167 C3168 1.524 . S
C3167 H3170 0.999 . S
C3168 H3138 0.950 . S
C3168 C3167 1.524 . S
C3168 C3169 1.415 . S
C3169 H3139 0.950 . S
C3169 C3164 1.363 . S
C3169 C3168 1.415 . S
H3170 C3167 0.999 . S
H3171 C3152 0.913 . S
H3172 C3190 0.951 . S
H3173 C3192 0.951 . S
H3174 C3194 0.950 . S
H3175 C3195 0.950 . S
H3176 C3197 0.950 . S
H3177 C3200 0.955 1_655 S
H3178 C3201 0.950 . S
H3179 C3203 0.950 . S
H3180 C3204 0.950 . S
H3181 C3205 0.951 . S
H3182 C3207 0.951 . S
H3183 C3209 0.950 . S
H3184 C3210 0.950 . S
H3185 C3212 0.950 . S
H3186 C3215 0.950 . S
H3187 C3216 0.950 1_455 S
H3188 C3218 0.939 1_556 S
H3189 C3219 0.950 . S
C3190 H3172 0.951 . S
C3190 C3191 1.366 . S
C3190 C3192 1.388 . S
C3191 C3190 1.366 . S
C3191 C3195 1.385 1_455 S
C3192 H3173 0.951 . S
C3192 C3190 1.388 . S
C3192 C3193 1.366 . S
C3193 C3192 1.366 . S
C3193 C3194 1.414 1_455 S
C3193 C3196 1.499 . S
C3194 H3174 0.950 . S
C3194 C3193 1.414 1_655 S
C3194 C3195 1.374 . S
C3195 H3175 0.950 . S
C3195 C3191 1.385 1_655 S
C3195 C3194 1.374 . S
C3196 C3193 1.499 . S
C3196 C3197 1.373 1_455 S
C3196 C3198 1.389 . S
C3197 H3176 0.950 . S
C3197 C3196 1.373 1_655 S
C3197 C3213 1.377 . S
C3198 C3196 1.389 . S
C3198 C3199 1.524 . S
C3198 C3212 1.377 . S
C3199 C3198 1.524 . S
C3199 C3200 1.397 . S
C3199 C3204 1.363 . S
C3200 H3177 0.955 1_455 S
C3200 C3199 1.397 . S
C3200 C3201 1.334 . S
C3201 H3178 0.950 . S
C3201 C3200 1.334 . S
C3201 C3202 1.287 . S
C3202 C3201 1.287 . S
C3202 C3203 1.524 . S
C3202 H3221 0.913 . S
C3203 H3179 0.950 . S
C3203 C3202 1.524 . S
C3203 C3204 1.415 . S
C3204 H3180 0.950 . S
C3204 C3199 1.363 . S
C3204 C3203 1.415 . S
C3205 H3181 0.951 . S
C3205 C3206 1.366 1_655 S
C3205 C3207 1.388 . S
C3206 C3205 1.366 1_455 S
C3206 C3210 1.385 . S
C3207 H3182 0.951 . S
C3207 C3205 1.388 . S
C3207 C3208 1.366 1_655 S
C3208 C3207 1.366 1_455 S
C3208 C3209 1.414 . S
C3208 C3211 1.499 . S
C3209 H3183 0.950 . S
C3209 C3208 1.414 . S
C3209 C3210 1.374 . S
C3210 H3184 0.950 . S
C3210 C3206 1.385 . S
C3210 C3209 1.374 . S
C3211 C3208 1.499 . S
C3211 C3212 1.373 . S
C3211 C3213 1.389 1_455 S
C3212 H3185 0.950 . S
C3212 C3198 1.377 . S
C3212 C3211 1.373 . S
C3213 C3197 1.377 . S
C3213 C3211 1.389 1_655 S
C3213 C3214 1.524 . S
C3214 C3213 1.524 . S
C3214 C3215 1.397 1_655 S
C3214 C3219 1.363 . S
C3215 H3186 0.950 . S
C3215 C3214 1.397 1_455 S
C3215 C3216 1.334 1_454 S
C3216 H3187 0.950 1_655 S
C3216 C3215 1.334 1_656 S
C3216 C3217 1.287 . S
C3217 C3216 1.287 . S
C3217 C3218 1.483 1_556 S
C3217 H3220 0.999 . S
C3218 H3188 0.939 1_554 S
C3218 C3217 1.483 1_554 S
C3218 C3219 1.470 . S
C3219 H3189 0.950 . S
C3219 C3214 1.363 . S
C3219 C3218 1.470 . S
H3220 C3217 0.999 . S
H3221 C3202 0.913 . S
H3222 C3240 0.951 . S
H3223 C3242 0.951 . S
H3224 C3244 0.950 . S
H3225 C3245 0.950 . S
H3226 C3247 0.950 . S
H3227 C3250 0.950 . S
H3228 C3251 0.950 . S
H3229 C3253 0.950 . S
H3230 C3254 0.950 . S
H3231 C3255 0.951 . S
H3232 C3257 0.951 . S
H3233 C3259 0.950 . S
H3234 C3260 0.950 . S
H3235 C3262 0.950 . S
H3236 C3265 0.950 . S
H3237 C3266 0.950 . S
H3238 C3268 0.950 . S
H3239 C3269 0.950 . S
C3240 H3222 0.951 . S
C3240 C3241 1.366 . S
C3240 C3242 1.388 . S
C3241 C3240 1.366 . S
C3241 C3245 1.385 . S
C3242 H3223 0.951 . S
C3242 C3240 1.388 . S
C3242 C3243 1.366 . S
C3243 C3242 1.366 . S
C3243 C3244 1.414 . S
C3243 C3246 1.499 . S
C3244 H3224 0.950 . S
C3244 C3243 1.414 . S
C3244 C3245 1.374 . S
C3245 H3225 0.950 . S
C3245 C3241 1.385 . S
C3245 C3244 1.374 . S
C3246 C3243 1.499 . S
C3246 C3247 1.373 . S
C3246 C3248 1.389 . S
C3247 H3226 0.950 . S
C3247 C3246 1.373 . S
C3247 C3263 1.377 . S
C3248 C3246 1.389 . S
C3248 C3249 1.524 . S
C3248 C3262 1.377 . S
C3249 C3248 1.524 . S
C3249 C3250 1.397 . S
C3249 C3254 1.363 . S
C3250 H3227 0.950 . S
C3250 C3249 1.397 . S
C3250 C3251 1.334 . S
C3251 H3228 0.950 . S
C3251 C3250 1.334 . S
C3251 C3252 1.287 . S
C3252 C3251 1.287 . S
C3252 C3253 1.524 . S
C3252 H3271 0.913 . S
C3253 H3229 0.950 . S
C3253 C3252 1.524 . S
C3253 C3254 1.415 . S
C3254 H3230 0.950 . S
C3254 C3249 1.363 . S
C3254 C3253 1.415 . S
C3255 H3231 0.951 . S
C3255 C3256 1.366 . S
C3255 C3257 1.388 . S
C3256 C3255 1.366 . S
C3256 C3260 1.385 . S
C3257 H3232 0.951 . S
C3257 C3255 1.388 . S
C3257 C3258 1.366 . S
C3258 C3257 1.366 . S
C3258 C3259 1.414 . S
C3258 C3261 1.499 . S
C3259 H3233 0.950 . S
C3259 C3258 1.414 . S
C3259 C3260 1.374 . S
C3260 H3234 0.950 . S
C3260 C3256 1.385 . S
C3260 C3259 1.374 . S
C3261 C3258 1.499 . S
C3261 C3262 1.373 . S
C3261 C3263 1.389 . S
C3262 H3235 0.950 . S
C3262 C3248 1.377 . S
C3262 C3261 1.373 . S
C3263 C3247 1.377 . S
C3263 C3261 1.389 . S
C3263 C3264 1.524 . S
C3264 C3263 1.524 . S
C3264 C3265 1.397 . S
C3264 C3269 1.363 . S
C3265 H3236 0.950 . S
C3265 C3264 1.397 . S
C3265 C3266 1.334 . S
C3266 H3237 0.950 . S
C3266 C3265 1.334 . S
C3266 C3267 1.287 . S
C3267 C3266 1.287 . S
C3267 C3268 1.524 . S
C3267 H3270 0.999 . S
C3268 H3238 0.950 . S
C3268 C3267 1.524 . S
C3268 C3269 1.415 . S
C3269 H3239 0.950 . S
C3269 C3264 1.363 . S
C3269 C3268 1.415 . S
H3270 C3267 0.999 . S
H3271 C3252 0.913 . S
H3272 C3290 0.951 . S
H3273 C3292 0.951 . S
H3274 C3294 0.950 . S
H3275 C3295 0.950 . S
H3276 C3297 0.950 . S
H3277 C3300 0.950 . S
H3278 C3301 0.950 . S
H3279 C3303 0.950 . S
H3280 C3304 0.950 . S
H3281 C3305 0.951 . S
H3282 C3307 0.951 . S
H3283 C3309 0.950 . S
H3284 C3310 0.950 . S
H3285 C3312 0.950 . S
H3286 C3315 0.950 . S
H3287 C3316 0.950 . S
H3288 C3318 0.950 . S
H3289 C3319 0.950 . S
C3290 H3272 0.951 . S
C3290 C3291 1.366 . S
C3290 C3292 1.388 . S
C3291 C3290 1.366 . S
C3291 C3295 1.385 . S
C3292 H3273 0.951 . S
C3292 C3290 1.388 . S
C3292 C3293 1.366 . S
C3293 C3292 1.366 . S
C3293 C3294 1.414 . S
C3293 C3296 1.499 . S
C3294 H3274 0.950 . S
C3294 C3293 1.414 . S
C3294 C3295 1.374 . S
C3295 H3275 0.950 . S
C3295 C3291 1.385 . S
C3295 C3294 1.374 . S
C3296 C3293 1.499 . S
C3296 C3297 1.373 . S
C3296 C3298 1.389 . S
C3297 H3276 0.950 . S
C3297 C3296 1.373 . S
C3297 C3313 1.377 . S
C3298 C3296 1.389 . S
C3298 C3299 1.524 . S
C3298 C3312 1.377 . S
C3299 C3298 1.524 . S
C3299 C3300 1.397 . S
C3299 C3304 1.363 . S
C3300 H3277 0.950 . S
C3300 C3299 1.397 . S
C3300 C3301 1.334 . S
C3301 H3278 0.950 . S
C3301 C3300 1.334 . S
C3301 C3302 1.287 . S
C3302 C3301 1.287 . S
C3302 C3303 1.524 . S
C3302 H3321 0.913 . S
C3303 H3279 0.950 . S
C3303 C3302 1.524 . S
C3303 C3304 1.415 . S
C3304 H3280 0.950 . S
C3304 C3299 1.363 . S
C3304 C3303 1.415 . S
C3305 H3281 0.951 . S
C3305 C3306 1.366 . S
C3305 C3307 1.388 . S
C3306 C3305 1.366 . S
C3306 C3310 1.385 . S
C3307 H3282 0.951 . S
C3307 C3305 1.388 . S
C3307 C3308 1.366 . S
C3308 C3307 1.366 . S
C3308 C3309 1.414 . S
C3308 C3311 1.499 . S
C3309 H3283 0.950 . S
C3309 C3308 1.414 . S
C3309 C3310 1.374 . S
C3310 H3284 0.950 . S
C3310 C3306 1.385 . S
C3310 C3309 1.374 . S
C3311 C3308 1.499 . S
C3311 C3312 1.373 . S
C3311 C3313 1.389 . S
C3312 H3285 0.950 . S
C3312 C3298 1.377 . S
C3312 C3311 1.373 . S
C3313 C3297 1.377 . S
C3313 C3311 1.389 . S
C3313 C3314 1.524 . S
C3314 C3313 1.524 . S
C3314 C3315 1.397 . S
C3314 C3319 1.363 . S
C3315 H3286 0.950 . S
C3315 C3314 1.397 . S
C3315 C3316 1.334 1_556 S
C3316 H3287 0.950 . S
C3316 C3315 1.334 1_554 S
C3316 C3317 1.287 . S
C3317 C3316 1.287 . S
C3317 C3318 1.524 . S
C3317 H3320 0.999 . S
C3318 H3288 0.950 . S
C3318 C3317 1.524 . S
C3318 C3319 1.415 1_554 S
C3319 H3289 0.950 . S
C3319 C3314 1.363 . S
C3319 C3318 1.415 1_556 S
H3320 C3317 0.999 . S
H3321 C3302 0.913 . S
H3322 C3340 0.951 . S
H3323 C3342 0.951 . S
H3324 C3344 0.950 . S
H3325 C3345 0.950 . S
H3326 C3347 0.950 . S
H3327 C3350 0.950 . S
H3328 C3351 0.950 . S
H3329 C3353 0.950 . S
H3330 C3354 0.950 . S
H3331 C3355 0.951 . S
H3332 C3357 0.951 . S
H3333 C3359 0.950 . S
H3334 C3360 0.950 . S
H3335 C3362 0.950 . S
H3336 C3365 0.950 . S
H3337 C3366 0.950 . S
H3338 C3368 0.950 . S
H3339 C3369 0.950 . S
C3340 H3322 0.951 . S
C3340 C3341 1.366 . S
C3340 C3342 1.388 . S
C3341 C3340 1.366 . S
C3341 C3345 1.385 . S
C3342 H3323 0.951 . S
C3342 C3340 1.388 . S
C3342 C3343 1.366 . S
C3343 C3342 1.366 . S
C3343 C3344 1.414 . S
C3343 C3346 1.499 . S
C3344 H3324 0.950 . S
C3344 C3343 1.414 . S
C3344 C3345 1.374 . S
C3345 H3325 0.950 . S
C3345 C3341 1.385 . S
C3345 C3344 1.374 . S
C3346 C3343 1.499 . S
C3346 C3347 1.373 . S
C3346 C3348 1.389 . S
C3347 H3326 0.950 . S
C3347 C3346 1.373 . S
C3347 C3363 1.377 . S
C3348 C3346 1.389 . S
C3348 C3349 1.524 . S
C3348 C3362 1.377 . S
C3349 C3348 1.524 . S
C3349 C3350 1.397 . S
C3349 C3354 1.363 . S
C3350 H3327 0.950 . S
C3350 C3349 1.397 . S
C3350 C3351 1.334 . S
C3351 H3328 0.950 . S
C3351 C3350 1.334 . S
C3351 C3352 1.287 . S
C3352 C3351 1.287 . S
C3352 C3353 1.524 . S
C3352 H3371 0.913 . S
C3353 H3329 0.950 . S
C3353 C3352 1.524 . S
C3353 C3354 1.415 . S
C3354 H3330 0.950 . S
C3354 C3349 1.363 . S
C3354 C3353 1.415 . S
C3355 H3331 0.951 . S
C3355 C3356 1.366 . S
C3355 C3357 1.388 . S
C3356 C3355 1.366 . S
C3356 C3360 1.385 . S
C3357 H3332 0.951 . S
C3357 C3355 1.388 . S
C3357 C3358 1.366 . S
C3358 C3357 1.366 . S
C3358 C3359 1.414 . S
C3358 C3361 1.499 . S
C3359 H3333 0.950 . S
C3359 C3358 1.414 . S
C3359 C3360 1.374 . S
C3360 H3334 0.950 . S
C3360 C3356 1.385 . S
C3360 C3359 1.374 . S
C3361 C3358 1.499 . S
C3361 C3362 1.373 . S
C3361 C3363 1.389 . S
C3362 H3335 0.950 . S
C3362 C3348 1.377 . S
C3362 C3361 1.373 . S
C3363 C3347 1.377 . S
C3363 C3361 1.389 . S
C3363 C3364 1.524 . S
C3364 C3363 1.524 . S
C3364 C3365 1.397 . S
C3364 C3369 1.363 . S
C3365 H3336 0.950 . S
C3365 C3364 1.397 . S
C3365 C3366 1.334 . S
C3366 H3337 0.950 . S
C3366 C3365 1.334 . S
C3366 C3367 1.287 . S
C3367 C3366 1.287 . S
C3367 C3368 1.524 . S
C3367 H3370 0.999 . S
C3368 H3338 0.950 . S
C3368 C3367 1.524 . S
C3368 C3369 1.415 . S
C3369 H3339 0.950 . S
C3369 C3364 1.363 . S
C3369 C3368 1.415 . S
H3370 C3367 0.999 . S
H3371 C3352 0.913 . S
H3372 C3390 0.951 . S
H3373 C3392 0.951 . S
H3374 C3394 0.950 . S
H3375 C3395 0.950 . S
H3376 C3397 0.950 . S
H3377 C3400 0.950 . S
H3378 C3401 0.950 . S
H3379 C3403 0.950 . S
H3380 C3404 0.950 . S
H3381 C3405 0.951 1_655 S
H3382 C3407 0.951 1_655 S
H3383 C3409 0.950 . S
H3384 C3410 0.950 . S
H3385 C3412 0.950 . S
H3386 C3415 0.950 . S
H3387 C3416 0.950 . S
H3388 C3418 0.950 . S
H3389 C3419 0.951 . S
C3390 H3372 0.951 . S
C3390 C3391 1.366 . S
C3390 C3392 1.388 . S
C3391 C3390 1.366 . S
C3391 C3395 1.385 1_455 S
C3392 H3373 0.951 . S
C3392 C3390 1.388 . S
C3392 C3393 1.366 . S
C3393 C3392 1.366 . S
C3393 C3394 1.414 1_455 S
C3393 C3396 1.499 . S
C3394 H3374 0.950 . S
C3394 C3393 1.414 1_655 S
C3394 C3395 1.374 . S
C3395 H3375 0.950 . S
C3395 C3391 1.385 1_655 S
C3395 C3394 1.374 . S
C3396 C3393 1.499 . S
C3396 C3397 1.373 . S
C3396 C3398 1.389 . S
C3397 H3376 0.950 . S
C3397 C3396 1.373 . S
C3397 C3413 1.377 . S
C3398 C3396 1.389 . S
C3398 C3399 1.517 1_455 S
C3398 C3412 1.377 . S
C3399 C3398 1.517 1_655 S
C3399 C3400 1.419 . S
C3399 C3404 1.350 1_655 S
C3400 H3377 0.950 . S
C3400 C3399 1.419 . S
C3400 C3401 1.334 . S
C3401 H3378 0.950 . S
C3401 C3400 1.334 . S
C3401 C3402 1.287 . S
C3402 C3401 1.287 . S
C3402 C3403 1.524 1_655 S
C3402 H3421 0.913 . S
C3403 H3379 0.950 . S
C3403 C3402 1.524 1_455 S
C3403 C3404 1.415 . S
C3404 H3380 0.950 . S
C3404 C3399 1.350 1_455 S
C3404 C3403 1.415 . S
C3405 H3381 0.951 1_455 S
C3405 C3406 1.366 . S
C3405 C3407 1.388 . S
C3406 C3405 1.366 . S
C3406 C3410 1.385 . S
C3407 H3382 0.951 1_455 S
C3407 C3405 1.388 . S
C3407 C3408 1.366 . S
C3408 C3407 1.366 . S
C3408 C3409 1.414 . S
C3408 C3411 1.499 . S
C3409 H3383 0.950 . S
C3409 C3408 1.414 . S
C3409 C3410 1.374 . S
C3410 H3384 0.950 . S
C3410 C3406 1.385 . S
C3410 C3409 1.374 . S
C3411 C3408 1.499 . S
C3411 C3412 1.373 . S
C3411 C3413 1.389 . S
C3412 H3385 0.950 . S
C3412 C3398 1.377 . S
C3412 C3411 1.373 . S
C3413 C3397 1.377 . S
C3413 C3411 1.389 . S
C3413 C3414 1.524 . S
C3414 C3413 1.524 . S
C3414 C3415 1.397 . S
C3414 C3419 1.363 . S
C3415 H3386 0.950 . S
C3415 C3414 1.397 . S
C3415 C3416 1.334 . S
C3416 H3387 0.950 . S
C3416 C3415 1.334 . S
C3416 C3417 1.287 . S
C3417 C3416 1.287 . S
C3417 C3418 1.524 . S
C3417 H3420 0.999 . S
C3418 H3388 0.950 . S
C3418 C3417 1.524 . S
C3418 C3419 1.415 . S
C3419 H3389 0.951 . S
C3419 C3414 1.363 . S
C3419 C3418 1.415 . S
H3420 C3417 0.999 . S
H3421 C3402 0.913 . S
H3422 C3440 0.951 . S
H3423 C3442 0.951 . S
H3424 C3444 0.950 . S
H3425 C3445 0.950 . S
H3426 C3447 0.950 . S
H3427 C3450 0.950 . S
H3428 C3451 0.950 . S
H3429 C3453 0.950 . S
H3430 C3454 0.950 . S
H3431 C3455 0.951 . S
H3432 C3457 0.951 . S
H3433 C3459 0.950 . S
H3434 C3460 0.950 . S
H3435 C3462 0.950 . S
H3436 C3465 0.950 . S
H3437 C3466 0.950 . S
H3438 C3468 0.950 . S
H3439 C3469 0.950 . S
C3440 H3422 0.951 . S
C3440 C3441 1.366 . S
C3440 C3442 1.388 . S
C3441 C3440 1.366 . S
C3441 C3445 1.385 . S
C3442 H3423 0.951 . S
C3442 C3440 1.388 . S
C3442 C3443 1.366 . S
C3443 C3442 1.366 . S
C3443 C3444 1.414 . S
C3443 C3446 1.499 . S
C3444 H3424 0.950 . S
C3444 C3443 1.414 . S
C3444 C3445 1.374 . S
C3445 H3425 0.950 . S
C3445 C3441 1.385 . S
C3445 C3444 1.374 . S
C3446 C3443 1.499 . S
C3446 C3447 1.373 . S
C3446 C3448 1.389 . S
C3447 H3426 0.950 . S
C3447 C3446 1.373 . S
C3447 C3463 1.377 . S
C3448 C3446 1.389 . S
C3448 C3449 1.524 . S
C3448 C3462 1.377 . S
C3449 C3448 1.524 . S
C3449 C3450 1.397 . S
C3449 C3454 1.363 . S
C3450 H3427 0.950 . S
C3450 C3449 1.397 . S
C3450 C3451 1.334 . S
C3451 H3428 0.950 . S
C3451 C3450 1.334 . S
C3451 C3452 1.287 . S
C3452 C3451 1.287 . S
C3452 C3453 1.524 . S
C3452 H3471 0.913 . S
C3453 H3429 0.950 . S
C3453 C3452 1.524 . S
C3453 C3454 1.415 . S
C3454 H3430 0.950 . S
C3454 C3449 1.363 . S
C3454 C3453 1.415 . S
C3455 H3431 0.951 . S
C3455 C3456 1.366 . S
C3455 C3457 1.388 . S
C3456 C3455 1.366 . S
C3456 C3460 1.385 . S
C3457 H3432 0.951 . S
C3457 C3455 1.388 . S
C3457 C3458 1.366 . S
C3458 C3457 1.366 . S
C3458 C3459 1.414 . S
C3458 C3461 1.499 . S
C3459 H3433 0.950 . S
C3459 C3458 1.414 . S
C3459 C3460 1.374 . S
C3460 H3434 0.950 . S
C3460 C3456 1.385 . S
C3460 C3459 1.374 . S
C3461 C3458 1.499 . S
C3461 C3462 1.373 . S
C3461 C3463 1.389 . S
C3462 H3435 0.950 . S
C3462 C3448 1.377 . S
C3462 C3461 1.373 . S
C3463 C3447 1.377 . S
C3463 C3461 1.389 . S
C3463 C3464 1.524 . S
C3464 C3463 1.524 . S
C3464 C3465 1.397 . S
C3464 C3469 1.363 . S
C3465 H3436 0.950 . S
C3465 C3464 1.397 . S
C3465 C3466 1.334 . S
C3466 H3437 0.950 . S
C3466 C3465 1.334 . S
C3466 C3467 1.287 . S
C3467 C3466 1.287 . S
C3467 C3468 1.524 . S
C3467 H3470 0.999 . S
C3468 H3438 0.950 . S
C3468 C3467 1.524 . S
C3468 C3469 1.415 . S
C3469 H3439 0.950 . S
C3469 C3464 1.363 . S
C3469 C3468 1.415 . S
H3470 C3467 0.999 . S
H3471 C3452 0.913 . S
H3472 C3490 0.951 . S
H3473 C3492 0.951 . S
H3474 C3494 0.950 . S
H3475 C3495 0.950 . S
H3476 C3497 0.950 . S
H3477 C3500 0.950 . S
H3478 C3501 0.950 . S
H3479 C3503 0.950 . S
H3480 C3504 0.950 . S
H3481 C3505 0.951 . S
H3482 C3507 0.951 . S
H3483 C3509 0.950 . S
H3484 C3510 0.950 . S
H3485 C3512 0.950 . S
H3486 C3515 0.950 . S
H3487 C3516 0.950 . S
H3488 C3518 0.950 . S
H3489 C3519 0.950 . S
C3490 H3472 0.951 . S
C3490 C3491 1.366 . S
C3490 C3492 1.388 . S
C3491 C3490 1.366 . S
C3491 C3495 1.385 . S
C3492 H3473 0.951 . S
C3492 C3490 1.388 . S
C3492 C3493 1.366 . S
C3493 C3492 1.366 . S
C3493 C3494 1.414 . S
C3493 C3496 1.499 . S
C3494 H3474 0.950 . S
C3494 C3493 1.414 . S
C3494 C3495 1.374 . S
C3495 H3475 0.950 . S
C3495 C3491 1.385 . S
C3495 C3494 1.374 . S
C3496 C3493 1.499 . S
C3496 C3497 1.373 . S
C3496 C3498 1.389 . S
C3497 H3476 0.950 . S
C3497 C3496 1.373 . S
C3497 C3513 1.377 . S
C3498 C3496 1.389 . S
C3498 C3499 1.524 . S
C3498 C3512 1.377 . S
C3499 C3498 1.524 . S
C3499 C3500 1.397 . S
C3499 C3504 1.363 . S
C3500 H3477 0.950 . S
C3500 C3499 1.397 . S
C3500 C3501 1.334 . S
C3501 H3478 0.950 . S
C3501 C3500 1.334 . S
C3501 C3502 1.287 . S
C3502 C3501 1.287 . S
C3502 C3503 1.524 . S
C3502 H3521 0.913 . S
C3503 H3479 0.950 . S
C3503 C3502 1.524 . S
C3503 C3504 1.415 . S
C3504 H3480 0.950 . S
C3504 C3499 1.363 . S
C3504 C3503 1.415 . S
C3505 H3481 0.951 . S
C3505 C3506 1.366 . S
C3505 C3507 1.388 . S
C3506 C3505 1.366 . S
C3506 C3510 1.385 . S
C3507 H3482 0.951 . S
C3507 C3505 1.388 . S
C3507 C3508 1.366 . S
C3508 C3507 1.366 . S
C3508 C3509 1.414 . S
C3508 C3511 1.499 . S
C3509 H3483 0.950 . S
C3509 C3508 1.414 . S
C3509 C3510 1.374 . S
C3510 H3484 0.950 . S
C3510 C3506 1.385 . S
C3510 C3509 1.374 . S
C3511 C3508 1.499 . S
C3511 C3512 1.373 . S
C3511 C3513 1.389 . S
C3512 H3485 0.950 . S
C3512 C3498 1.377 . S
C3512 C3511 1.373 . S
C3513 C3497 1.377 . S
C3513 C3511 1.389 . S
C3513 C3514 1.524 . S
C3514 C3513 1.524 . S
C3514 C3515 1.397 . S
C3514 C3519 1.363 . S
C3515 H3486 0.950 . S
C3515 C3514 1.397 . S
C3515 C3516 1.334 . S
C3516 H3487 0.950 . S
C3516 C3515 1.334 . S
C3516 C3517 1.287 . S
C3517 C3516 1.287 . S
C3517 C3518 1.524 . S
C3517 H3520 0.999 . S
C3518 H3488 0.950 . S
C3518 C3517 1.524 . S
C3518 C3519 1.415 . S
C3519 H3489 0.950 . S
C3519 C3514 1.363 . S
C3519 C3518 1.415 . S
H3520 C3517 0.999 . S
H3521 C3502 0.913 . S
H3522 C3540 0.951 . S
H3523 C3542 0.951 . S
H3524 C3544 0.950 . S
H3525 C3545 0.950 . S
H3526 C3547 0.950 . S
H3527 C3550 0.950 . S
H3528 C3551 0.950 . S
H3529 C3553 0.950 . S
H3530 C3554 0.950 . S
H3531 C3555 0.951 . S
H3532 C3557 0.951 . S
H3533 C3559 0.950 . S
H3534 C3560 0.950 . S
H3535 C3562 0.950 . S
H3536 C3565 0.950 . S
H3537 C3566 0.950 . S
H3538 C3568 0.950 . S
H3539 C3569 0.950 . S
C3540 H3522 0.951 . S
C3540 C3541 1.366 . S
C3540 C3542 1.388 . S
C3541 C3540 1.366 . S
C3541 C3545 1.385 . S
C3542 H3523 0.951 . S
C3542 C3540 1.388 . S
C3542 C3543 1.366 . S
C3543 C3542 1.366 . S
C3543 C3544 1.414 . S
C3543 C3546 1.499 . S
C3544 H3524 0.950 . S
C3544 C3543 1.414 . S
C3544 C3545 1.374 . S
C3545 H3525 0.950 . S
C3545 C3541 1.385 . S
C3545 C3544 1.374 . S
C3546 C3543 1.499 . S
C3546 C3547 1.373 . S
C3546 C3548 1.389 . S
C3547 H3526 0.950 . S
C3547 C3546 1.373 . S
C3547 C3563 1.377 . S
C3548 C3546 1.389 . S
C3548 C3549 1.524 . S
C3548 C3562 1.377 . S
C3549 C3548 1.524 . S
C3549 C3550 1.397 . S
C3549 C3554 1.363 . S
C3550 H3527 0.950 . S
C3550 C3549 1.397 . S
C3550 C3551 1.334 . S
C3551 H3528 0.950 . S
C3551 C3550 1.334 . S
C3551 C3552 1.287 . S
C3552 C3551 1.287 . S
C3552 C3553 1.524 . S
C3552 H3571 0.913 . S
C3553 H3529 0.950 . S
C3553 C3552 1.524 . S
C3553 C3554 1.415 . S
C3554 H3530 0.950 . S
C3554 C3549 1.363 . S
C3554 C3553 1.415 . S
C3555 H3531 0.951 . S
C3555 C3556 1.366 . S
C3555 C3557 1.388 . S
C3556 C3555 1.366 . S
C3556 C3560 1.385 . S
C3557 H3532 0.951 . S
C3557 C3555 1.388 . S
C3557 C3558 1.366 . S
C3558 C3557 1.366 . S
C3558 C3559 1.414 . S
C3558 C3561 1.499 . S
C3559 H3533 0.950 . S
C3559 C3558 1.414 . S
C3559 C3560 1.374 . S
C3560 H3534 0.950 . S
C3560 C3556 1.385 . S
C3560 C3559 1.374 . S
C3561 C3558 1.499 . S
C3561 C3562 1.373 . S
C3561 C3563 1.389 . S
C3562 H3535 0.950 . S
C3562 C3548 1.377 . S
C3562 C3561 1.373 . S
C3563 C3547 1.377 . S
C3563 C3561 1.389 . S
C3563 C3564 1.524 . S
C3564 C3563 1.524 . S
C3564 C3565 1.397 . S
C3564 C3569 1.363 . S
C3565 H3536 0.950 . S
C3565 C3564 1.397 . S
C3565 C3566 1.334 . S
C3566 H3537 0.950 . S
C3566 C3565 1.334 . S
C3566 C3567 1.287 . S
C3567 C3566 1.287 . S
C3567 C3568 1.524 . S
C3567 H3570 0.999 . S
C3568 H3538 0.950 . S
C3568 C3567 1.524 . S
C3568 C3569 1.415 . S
C3569 H3539 0.950 . S
C3569 C3564 1.363 . S
C3569 C3568 1.415 . S
H3570 C3567 0.999 . S
H3571 C3552 0.913 . S
H3572 C3590 0.951 . S
H3573 C3592 0.951 . S
H3574 C3594 0.950 . S
H3575 C3595 0.950 . S
H3576 C3597 0.950 . S
H3577 C3600 0.950 . S
H3578 C3601 0.950 . S
H3579 C3603 0.950 . S
H3580 C3604 0.950 . S
H3581 C3605 0.951 1_455 S
H3582 C3607 0.951 . S
H3583 C3609 0.950 . S
H3584 C3610 0.950 . S
H3585 C3612 0.950 . S
H3586 C3615 0.950 . S
H3587 C3616 0.950 . S
H3588 C3618 0.950 . S
H3589 C3619 0.950 . S
C3590 H3572 0.951 . S
C3590 C3591 1.366 . S
C3590 C3592 1.388 . S
C3591 C3590 1.366 . S
C3591 C3595 1.385 . S
C3592 H3573 0.951 . S
C3592 C3590 1.388 . S
C3592 C3593 1.366 . S
C3593 C3592 1.366 . S
C3593 C3594 1.414 . S
C3593 C3596 1.499 . S
C3594 H3574 0.950 . S
C3594 C3593 1.414 . S
C3594 C3595 1.374 . S
C3595 H3575 0.950 . S
C3595 C3591 1.385 . S
C3595 C3594 1.374 . S
C3596 C3593 1.499 . S
C3596 C3597 1.373 . S
C3596 C3598 1.389 . S
C3597 H3576 0.950 . S
C3597 C3596 1.373 . S
C3597 C3613 1.377 . S
C3598 C3596 1.389 . S
C3598 C3599 1.524 . S
C3598 C3612 1.377 . S
C3599 C3598 1.524 . S
C3599 C3600 1.397 . S
C3599 C3604 1.363 . S
C3600 H3577 0.950 . S
C3600 C3599 1.397 . S
C3600 C3601 1.334 . S
C3601 H3578 0.950 . S
C3601 C3600 1.334 . S
C3601 C3602 1.287 . S
C3602 C3601 1.287 . S
C3602 C3603 1.524 . S
C3602 H3621 0.913 . S
C3603 H3579 0.950 . S
C3603 C3602 1.524 . S
C3603 C3604 1.415 . S
C3604 H3580 0.950 . S
C3604 C3599 1.363 . S
C3604 C3603 1.415 . S
C3605 H3581 0.951 1_655 S
C3605 C3606 1.366 . S
C3605 C3607 1.388 . S
C3606 C3605 1.366 . S
C3606 C3610 1.385 . S
C3607 H3582 0.951 . S
C3607 C3605 1.388 . S
C3607 C3608 1.366 . S
C3608 C3607 1.366 . S
C3608 C3609 1.414 . S
C3608 C3611 1.499 . S
C3609 H3583 0.950 . S
C3609 C3608 1.414 . S
C3609 C3610 1.374 . S
C3610 H3584 0.950 . S
C3610 C3606 1.385 . S
C3610 C3609 1.374 . S
C3611 C3608 1.499 . S
C3611 C3612 1.373 . S
C3611 C3613 1.389 . S
C3612 H3585 0.950 . S
C3612 C3598 1.377 . S
C3612 C3611 1.373 . S
C3613 C3597 1.377 . S
C3613 C3611 1.389 . S
C3613 C3614 1.524 . S
C3614 C3613 1.524 . S
C3614 C3615 1.397 . S
C3614 C3619 1.363 . S
C3615 H3586 0.950 . S
C3615 C3614 1.397 . S
C3615 C3616 1.334 . S
C3616 H3587 0.950 . S
C3616 C3615 1.334 . S
C3616 C3617 1.287 . S
C3617 C3616 1.287 . S
C3617 C3618 1.524 . S
C3617 H3620 0.999 . S
C3618 H3588 0.950 . S
C3618 C3617 1.524 . S
C3618 C3619 1.415 . S
C3619 H3589 0.950 . S
C3619 C3614 1.363 . S
C3619 C3618 1.415 . S
H3620 C3617 0.999 . S
H3621 C3602 0.913 . S
H3622 C3640 0.951 . S
H3623 C3642 0.951 . S
H3624 C3644 0.950 . S
H3625 C3645 0.950 . S
H3626 C3647 0.950 . S
H3627 C3650 0.950 . S
H3628 C3651 0.950 . S
H3629 C3653 0.950 . S
H3630 C3654 0.950 . S
H3631 C3655 0.951 . S
H3632 C3657 0.951 . S
H3633 C3659 0.950 . S
H3634 C3660 0.950 . S
H3635 C3662 0.950 . S
H3636 C3665 0.950 . S
H3637 C3666 0.950 . S
H3638 C3668 0.950 . S
H3639 C3669 0.950 . S
C3640 H3622 0.951 . S
C3640 C3641 1.366 . S
C3640 C3642 1.388 . S
C3641 C3640 1.366 . S
C3641 C3645 1.385 . S
C3642 H3623 0.951 . S
C3642 C3640 1.388 . S
C3642 C3643 1.366 . S
C3643 C3642 1.366 . S
C3643 C3644 1.414 . S
C3643 C3646 1.499 . S
C3644 H3624 0.950 . S
C3644 C3643 1.414 . S
C3644 C3645 1.374 . S
C3645 H3625 0.950 . S
C3645 C3641 1.385 . S
C3645 C3644 1.374 . S
C3646 C3643 1.499 . S
C3646 C3647 1.373 . S
C3646 C3648 1.389 . S
C3647 H3626 0.950 . S
C3647 C3646 1.373 . S
C3647 C3663 1.377 . S
C3648 C3646 1.389 . S
C3648 C3649 1.524 . S
C3648 C3662 1.377 . S
C3649 C3648 1.524 . S
C3649 C3650 1.397 . S
C3649 C3654 1.363 . S
C3650 H3627 0.950 . S
C3650 C3649 1.397 . S
C3650 C3651 1.334 . S
C3651 H3628 0.950 . S
C3651 C3650 1.334 . S
C3651 C3652 1.287 . S
C3652 C3651 1.287 . S
C3652 C3653 1.524 . S
C3652 H3671 0.913 . S
C3653 H3629 0.950 . S
C3653 C3652 1.524 . S
C3653 C3654 1.415 . S
C3654 H3630 0.950 . S
C3654 C3649 1.363 . S
C3654 C3653 1.415 . S
C3655 H3631 0.951 . S
C3655 C3656 1.366 . S
C3655 C3657 1.388 . S
C3656 C3655 1.366 . S
C3656 C3660 1.385 . S
C3657 H3632 0.951 . S
C3657 C3655 1.388 . S
C3657 C3658 1.366 . S
C3658 C3657 1.366 . S
C3658 C3659 1.414 . S
C3658 C3661 1.499 . S
C3659 H3633 0.950 . S
C3659 C3658 1.414 . S
C3659 C3660 1.374 . S
C3660 H3634 0.950 . S
C3660 C3656 1.385 . S
C3660 C3659 1.374 . S
C3661 C3658 1.499 . S
C3661 C3662 1.373 . S
C3661 C3663 1.389 . S
C3662 H3635 0.950 . S
C3662 C3648 1.377 . S
C3662 C3661 1.373 . S
C3663 C3647 1.377 . S
C3663 C3661 1.389 . S
C3663 C3664 1.524 . S
C3664 C3663 1.524 . S
C3664 C3665 1.397 . S
C3664 C3669 1.363 . S
C3665 H3636 0.950 . S
C3665 C3664 1.397 . S
C3665 C3666 1.334 . S
C3666 H3637 0.950 . S
C3666 C3665 1.334 . S
C3666 C3667 1.287 . S
C3667 C3666 1.287 . S
C3667 C3668 1.524 . S
C3667 H3670 0.999 . S
C3668 H3638 0.950 . S
C3668 C3667 1.524 . S
C3668 C3669 1.415 . S
C3669 H3639 0.950 . S
C3669 C3664 1.363 . S
C3669 C3668 1.415 . S
H3670 C3667 0.999 . S
H3671 C3652 0.913 . S
H3672 C3690 0.951 . S
H3673 C3692 0.951 . S
H3674 C3694 0.950 . S
H3675 C3695 0.950 . S
H3676 C3697 0.950 . S
H3677 C3700 0.950 . S
H3678 C3701 0.950 . S
H3679 C3703 0.950 . S
H3680 C3704 0.950 . S
H3681 C3705 0.951 . S
H3682 C3707 0.951 . S
H3683 C3709 0.950 . S
H3684 C3710 0.950 . S
H3685 C3712 0.950 . S
H3686 C3715 0.950 . S
H3687 C3716 0.950 . S
H3688 C3718 0.950 . S
H3689 C3719 0.950 . S
C3690 H3672 0.951 . S
C3690 C3691 1.366 . S
C3690 C3692 1.388 . S
C3691 C3690 1.366 . S
C3691 C3695 1.385 . S
C3692 H3673 0.951 . S
C3692 C3690 1.388 . S
C3692 C3693 1.366 . S
C3693 C3692 1.366 . S
C3693 C3694 1.414 . S
C3693 C3696 1.499 . S
C3694 H3674 0.950 . S
C3694 C3693 1.414 . S
C3694 C3695 1.374 . S
C3695 H3675 0.950 . S
C3695 C3691 1.385 . S
C3695 C3694 1.374 . S
C3696 C3693 1.499 . S
C3696 C3697 1.373 . S
C3696 C3698 1.389 . S
C3697 H3676 0.950 . S
C3697 C3696 1.373 . S
C3697 C3713 1.377 . S
C3698 C3696 1.389 . S
C3698 C3699 1.524 . S
C3698 C3712 1.377 . S
C3699 C3698 1.524 . S
C3699 C3700 1.397 . S
C3699 C3704 1.363 . S
C3700 H3677 0.950 . S
C3700 C3699 1.397 . S
C3700 C3701 1.334 . S
C3701 H3678 0.950 . S
C3701 C3700 1.334 . S
C3701 C3702 1.287 . S
C3702 C3701 1.287 . S
C3702 C3703 1.524 . S
C3702 H3721 0.913 . S
C3703 H3679 0.950 . S
C3703 C3702 1.524 . S
C3703 C3704 1.415 . S
C3704 H3680 0.950 . S
C3704 C3699 1.363 . S
C3704 C3703 1.415 . S
C3705 H3681 0.951 . S
C3705 C3706 1.366 . S
C3705 C3707 1.388 . S
C3706 C3705 1.366 . S
C3706 C3710 1.385 . S
C3707 H3682 0.951 . S
C3707 C3705 1.388 . S
C3707 C3708 1.366 . S
C3708 C3707 1.366 . S
C3708 C3709 1.414 . S
C3708 C3711 1.499 . S
C3709 H3683 0.950 . S
C3709 C3708 1.414 . S
C3709 C3710 1.374 . S
C3710 H3684 0.950 . S
C3710 C3706 1.385 . S
C3710 C3709 1.374 . S
C3711 C3708 1.499 . S
C3711 C3712 1.373 . S
C3711 C3713 1.389 . S
C3712 H3685 0.950 . S
C3712 C3698 1.377 . S
C3712 C3711 1.373 . S
C3713 C3697 1.377 . S
C3713 C3711 1.389 . S
C3713 C3714 1.524 . S
C3714 C3713 1.524 . S
C3714 C3715 1.397 . S
C3714 C3719 1.363 . S
C3715 H3686 0.950 . S
C3715 C3714 1.397 . S
C3715 C3716 1.334 . S
C3716 H3687 0.950 . S
C3716 C3715 1.334 . S
C3716 C3717 1.287 . S
C3717 C3716 1.287 . S
C3717 C3718 1.524 . S
C3717 H3720 0.999 . S
C3718 H3688 0.950 . S
C3718 C3717 1.524 . S
C3718 C3719 1.415 . S
C3719 H3689 0.950 . S
C3719 C3714 1.363 . S
C3719 C3718 1.415 . S
H3720 C3717 0.999 . S
H3721 C3702 0.913 . S
H3722 C3740 0.951 . S
H3723 C3742 0.951 . S
H3724 C3744 0.950 . S
H3725 C3745 0.950 . S
H3726 C3747 0.950 . S
H3727 C3750 0.950 . S
H3728 C3751 0.950 . S
H3729 C3753 0.950 . S
H3730 C3754 0.950 . S
H3731 C3755 0.951 . S
H3732 C3757 0.951 . S
H3733 C3759 0.950 . S
H3734 C3760 0.950 . S
H3735 C3762 0.950 . S
H3736 C3765 0.950 . S
H3737 C3766 0.950 . S
H3738 C3768 0.950 . S
H3739 C3769 0.950 . S
C3740 H3722 0.951 . S
C3740 C3741 1.366 . S
C3740 C3742 1.388 . S
C3741 C3740 1.366 . S
C3741 C3745 1.385 . S
C3742 H3723 0.951 . S
C3742 C3740 1.388 . S
C3742 C3743 1.366 . S
C3743 C3742 1.366 . S
C3743 C3744 1.414 . S
C3743 C3746 1.499 . S
C3744 H3724 0.950 . S
C3744 C3743 1.414 . S
C3744 C3745 1.374 . S
C3745 H3725 0.950 . S
C3745 C3741 1.385 . S
C3745 C3744 1.374 . S
C3746 C3743 1.499 . S
C3746 C3747 1.373 . S
C3746 C3748 1.389 . S
C3747 H3726 0.950 . S
C3747 C3746 1.373 . S
C3747 C3763 1.377 . S
C3748 C3746 1.389 . S
C3748 C3749 1.524 . S
C3748 C3762 1.377 . S
C3749 C3748 1.524 . S
C3749 C3750 1.397 . S
C3749 C3754 1.363 . S
C3750 H3727 0.950 . S
C3750 C3749 1.397 . S
C3750 C3751 1.334 . S
C3751 H3728 0.950 . S
C3751 C3750 1.334 . S
C3751 C3752 1.287 . S
C3752 C3751 1.287 . S
C3752 C3753 1.524 . S
C3752 H3771 0.913 . S
C3753 H3729 0.950 . S
C3753 C3752 1.524 . S
C3753 C3754 1.415 . S
C3754 H3730 0.950 . S
C3754 C3749 1.363 . S
C3754 C3753 1.415 . S
C3755 H3731 0.951 . S
C3755 C3756 1.366 . S
C3755 C3757 1.388 . S
C3756 C3755 1.366 . S
C3756 C3760 1.385 . S
C3757 H3732 0.951 . S
C3757 C3755 1.388 . S
C3757 C3758 1.366 . S
C3758 C3757 1.366 . S
C3758 C3759 1.414 . S
C3758 C3761 1.499 . S
C3759 H3733 0.950 . S
C3759 C3758 1.414 . S
C3759 C3760 1.374 . S
C3760 H3734 0.950 . S
C3760 C3756 1.385 . S
C3760 C3759 1.374 . S
C3761 C3758 1.499 . S
C3761 C3762 1.373 . S
C3761 C3763 1.389 . S
C3762 H3735 0.950 . S
C3762 C3748 1.377 . S
C3762 C3761 1.373 . S
C3763 C3747 1.377 . S
C3763 C3761 1.389 . S
C3763 C3764 1.524 . S
C3764 C3763 1.524 . S
C3764 C3765 1.397 . S
C3764 C3769 1.363 . S
C3765 H3736 0.950 . S
C3765 C3764 1.397 . S
C3765 C3766 1.334 . S
C3766 H3737 0.950 . S
C3766 C3765 1.334 . S
C3766 C3767 1.287 . S
C3767 C3766 1.287 . S
C3767 C3768 1.524 . S
C3767 H3770 0.999 . S
C3768 H3738 0.950 . S
C3768 C3767 1.524 . S
C3768 C3769 1.415 . S
C3769 H3739 0.950 . S
C3769 C3764 1.363 . S
C3769 C3768 1.415 . S
H3770 C3767 0.999 . S
H3771 C3752 0.913 . S
H3772 C3790 0.951 . S
H3773 C3792 0.951 . S
H3774 C3794 0.950 . S
H3775 C3795 0.950 . S
H3776 C3797 0.950 . S
H3777 C3800 0.950 . S
H3778 C3801 0.950 . S
H3779 C3803 0.950 1_455 S
H3780 C3804 0.950 . S
H3781 C3805 0.951 . S
H3782 C3807 0.951 . S
H3783 C3809 0.950 . S
H3784 C3810 0.950 . S
H3785 C3812 0.950 . S
H3786 C3815 0.950 . S
H3787 C3816 0.950 . S
H3788 C3818 0.950 . S
H3789 C3819 0.950 . S
C3790 H3772 0.951 . S
C3790 C3791 1.366 . S
C3790 C3792 1.388 . S
C3791 C3790 1.366 . S
C3791 C3795 1.385 . S
C3792 H3773 0.951 . S
C3792 C3790 1.388 . S
C3792 C3793 1.366 . S
C3793 C3792 1.366 . S
C3793 C3794 1.414 . S
C3793 C3796 1.499 . S
C3794 H3774 0.950 . S
C3794 C3793 1.414 . S
C3794 C3795 1.374 . S
C3795 H3775 0.950 . S
C3795 C3791 1.385 . S
C3795 C3794 1.374 . S
C3796 C3793 1.499 . S
C3796 C3797 1.373 . S
C3796 C3798 1.389 . S
C3797 H3776 0.950 . S
C3797 C3796 1.373 . S
C3797 C3813 1.377 . S
C3798 C3796 1.389 . S
C3798 C3799 1.524 . S
C3798 C3812 1.377 . S
C3799 C3798 1.524 . S
C3799 C3800 1.397 . S
C3799 C3804 1.363 . S
C3800 H3777 0.950 . S
C3800 C3799 1.397 . S
C3800 C3801 1.334 . S
C3801 H3778 0.950 . S
C3801 C3800 1.334 . S
C3801 C3802 1.287 . S
C3802 C3801 1.287 . S
C3802 C3803 1.524 . S
C3802 H3821 0.913 . S
C3803 H3779 0.950 1_655 S
C3803 C3802 1.524 . S
C3803 C3804 1.415 . S
C3804 H3780 0.950 . S
C3804 C3799 1.363 . S
C3804 C3803 1.415 . S
C3805 H3781 0.951 . S
C3805 C3806 1.366 . S
C3805 C3807 1.388 . S
C3806 C3805 1.366 . S
C3806 C3810 1.385 . S
C3807 H3782 0.951 . S
C3807 C3805 1.388 . S
C3807 C3808 1.366 . S
C3808 C3807 1.366 . S
C3808 C3809 1.414 . S
C3808 C3811 1.499 . S
C3809 H3783 0.950 . S
C3809 C3808 1.414 . S
C3809 C3810 1.374 . S
C3810 H3784 0.950 . S
C3810 C3806 1.385 . S
C3810 C3809 1.374 . S
C3811 C3808 1.499 . S
C3811 C3812 1.373 . S
C3811 C3813 1.389 . S
C3812 H3785 0.950 . S
C3812 C3798 1.377 . S
C3812 C3811 1.373 . S
C3813 C3797 1.377 . S
C3813 C3811 1.389 . S
C3813 C3814 1.524 . S
C3814 C3813 1.524 . S
C3814 C3815 1.397 . S
C3814 C3819 1.363 . S
C3815 H3786 0.950 . S
C3815 C3814 1.397 . S
C3815 C3816 1.334 . S
C3816 H3787 0.950 . S
C3816 C3815 1.334 . S
C3816 C3817 1.287 . S
C3817 C3816 1.287 . S
C3817 C3818 1.524 . S
C3817 H3820 0.999 . S
C3818 H3788 0.950 . S
C3818 C3817 1.524 . S
C3818 C3819 1.415 . S
C3819 H3789 0.950 . S
C3819 C3814 1.363 . S
C3819 C3818 1.415 . S
H3820 C3817 0.999 . S
H3821 C3802 0.913 . S
H3822 C3840 0.951 . S
H3823 C3842 0.951 . S
H3824 C3844 0.950 . S
H3825 C3845 0.950 . S
H3826 C3847 0.950 . S
H3827 C3850 0.950 . S
H3828 C3851 0.950 . S
H3829 C3853 0.950 . S
H3830 C3854 0.950 . S
H3831 C3855 0.951 . S
H3832 C3857 0.951 . S
H3833 C3859 0.950 . S
H3834 C3860 0.950 . S
H3835 C3862 0.950 . S
H3836 C3865 0.950 . S
H3837 C3866 0.950 . S
H3838 C3868 0.950 . S
H3839 C3869 0.950 . S
C3840 H3822 0.951 . S
C3840 C3841 1.366 . S
C3840 C3842 1.388 . S
C3841 C3840 1.366 . S
C3841 C3845 1.385 . S
C3842 H3823 0.951 . S
C3842 C3840 1.388 . S
C3842 C3843 1.366 . S
C3843 C3842 1.366 . S
C3843 C3844 1.414 . S
C3843 C3846 1.499 . S
C3844 H3824 0.950 . S
C3844 C3843 1.414 . S
C3844 C3845 1.374 . S
C3845 H3825 0.950 . S
C3845 C3841 1.385 . S
C3845 C3844 1.374 . S
C3846 C3843 1.499 . S
C3846 C3847 1.373 . S
C3846 C3848 1.389 . S
C3847 H3826 0.950 . S
C3847 C3846 1.373 . S
C3847 C3863 1.377 . S
C3848 C3846 1.389 . S
C3848 C3849 1.524 . S
C3848 C3862 1.377 . S
C3849 C3848 1.524 . S
C3849 C3850 1.397 . S
C3849 C3854 1.363 . S
C3850 H3827 0.950 . S
C3850 C3849 1.397 . S
C3850 C3851 1.334 . S
C3851 H3828 0.950 . S
C3851 C3850 1.334 . S
C3851 C3852 1.287 . S
C3852 C3851 1.287 . S
C3852 C3853 1.524 . S
C3852 H3871 0.913 . S
C3853 H3829 0.950 . S
C3853 C3852 1.524 . S
C3853 C3854 1.415 . S
C3854 H3830 0.950 . S
C3854 C3849 1.363 . S
C3854 C3853 1.415 . S
C3855 H3831 0.951 . S
C3855 C3856 1.366 . S
C3855 C3857 1.388 . S
C3856 C3855 1.366 . S
C3856 C3860 1.385 . S
C3857 H3832 0.951 . S
C3857 C3855 1.388 . S
C3857 C3858 1.366 . S
C3858 C3857 1.366 . S
C3858 C3859 1.414 . S
C3858 C3861 1.499 . S
C3859 H3833 0.950 . S
C3859 C3858 1.414 . S
C3859 C3860 1.374 . S
C3860 H3834 0.950 . S
C3860 C3856 1.385 . S
C3860 C3859 1.374 . S
C3861 C3858 1.499 . S
C3861 C3862 1.373 . S
C3861 C3863 1.389 . S
C3862 H3835 0.950 . S
C3862 C3848 1.377 . S
C3862 C3861 1.373 . S
C3863 C3847 1.377 . S
C3863 C3861 1.389 . S
C3863 C3864 1.524 . S
C3864 C3863 1.524 . S
C3864 C3865 1.397 . S
C3864 C3869 1.363 . S
C3865 H3836 0.950 . S
C3865 C3864 1.397 . S
C3865 C3866 1.334 . S
C3866 H3837 0.950 . S
C3866 C3865 1.334 . S
C3866 C3867 1.287 . S
C3867 C3866 1.287 . S
C3867 C3868 1.524 . S
C3867 H3870 0.999 . S
C3868 H3838 0.950 . S
C3868 C3867 1.524 . S
C3868 C3869 1.415 . S
C3869 H3839 0.950 . S
C3869 C3864 1.363 . S
C3869 C3868 1.415 . S
H3870 C3867 0.999 . S
H3871 C3852 0.913 . S
H3872 C3890 0.951 . S
H3873 C3892 0.951 . S
H3874 C3894 0.950 . S
H3875 C3895 0.950 . S
H3876 C3897 0.950 . S
H3877 C3900 0.950 . S
H3878 C3901 0.950 . S
H3879 C3903 0.950 . S
H3880 C3904 0.950 . S
H3881 C3905 0.951 . S
H3882 C3907 0.951 . S
H3883 C3909 0.950 . S
H3884 C3910 0.950 . S
H3885 C3912 0.950 . S
H3886 C3915 0.950 . S
H3887 C3916 0.950 . S
H3888 C3918 0.950 . S
H3889 C3919 0.950 . S
C3890 H3872 0.951 . S
C3890 C3891 1.366 . S
C3890 C3892 1.388 . S
C3891 C3890 1.366 . S
C3891 C3895 1.385 . S
C3892 H3873 0.951 . S
C3892 C3890 1.388 . S
C3892 C3893 1.366 . S
C3893 C3892 1.366 . S
C3893 C3894 1.414 . S
C3893 C3896 1.499 . S
C3894 H3874 0.950 . S
C3894 C3893 1.414 . S
C3894 C3895 1.374 . S
C3895 H3875 0.950 . S
C3895 C3891 1.385 . S
C3895 C3894 1.374 . S
C3896 C3893 1.499 . S
C3896 C3897 1.373 . S
C3896 C3898 1.389 . S
C3897 H3876 0.950 . S
C3897 C3896 1.373 . S
C3897 C3913 1.377 . S
C3898 C3896 1.389 . S
C3898 C3899 1.524 . S
C3898 C3912 1.377 . S
C3899 C3898 1.524 . S
C3899 C3900 1.397 . S
C3899 C3904 1.363 . S
C3900 H3877 0.950 . S
C3900 C3899 1.397 . S
C3900 C3901 1.334 . S
C3901 H3878 0.950 . S
C3901 C3900 1.334 . S
C3901 C3902 1.287 . S
C3902 C3901 1.287 . S
C3902 C3903 1.524 . S
C3902 H3921 0.913 . S
C3903 H3879 0.950 . S
C3903 C3902 1.524 . S
C3903 C3904 1.415 . S
C3904 H3880 0.950 . S
C3904 C3899 1.363 . S
C3904 C3903 1.415 . S
C3905 H3881 0.951 . S
C3905 C3906 1.366 . S
C3905 C3907 1.388 . S
C3906 C3905 1.366 . S
C3906 C3910 1.385 . S
C3907 H3882 0.951 . S
C3907 C3905 1.388 . S
C3907 C3908 1.366 . S
C3908 C3907 1.366 . S
C3908 C3909 1.414 . S
C3908 C3911 1.499 . S
C3909 H3883 0.950 . S
C3909 C3908 1.414 . S
C3909 C3910 1.374 . S
C3910 H3884 0.950 . S
C3910 C3906 1.385 . S
C3910 C3909 1.374 . S
C3911 C3908 1.499 . S
C3911 C3912 1.373 . S
C3911 C3913 1.389 . S
C3912 H3885 0.950 . S
C3912 C3898 1.377 . S
C3912 C3911 1.373 . S
C3913 C3897 1.377 . S
C3913 C3911 1.389 . S
C3913 C3914 1.524 . S
C3914 C3913 1.524 . S
C3914 C3915 1.397 . S
C3914 C3919 1.363 . S
C3915 H3886 0.950 . S
C3915 C3914 1.397 . S
C3915 C3916 1.334 . S
C3916 H3887 0.950 . S
C3916 C3915 1.334 . S
C3916 C3917 1.287 . S
C3917 C3916 1.287 . S
C3917 C3918 1.524 . S
C3917 H3920 0.999 . S
C3918 H3888 0.950 . S
C3918 C3917 1.524 . S
C3918 C3919 1.415 . S
C3919 H3889 0.950 . S
C3919 C3914 1.363 . S
C3919 C3918 1.415 . S
H3920 C3917 0.999 . S
H3921 C3902 0.913 . S
H3922 C3940 0.951 . S
H3923 C3942 0.951 . S
H3924 C3944 0.950 . S
H3925 C3945 0.950 . S
H3926 C3947 0.950 . S
H3927 C3950 0.950 . S
H3928 C3951 0.950 . S
H3929 C3953 0.950 . S
H3930 C3954 0.950 . S
H3931 C3955 0.951 . S
H3932 C3957 0.951 . S
H3933 C3959 0.950 . S
H3934 C3960 0.950 1_545 S
H3935 C3962 0.950 . S
H3936 C3965 0.950 . S
H3937 C3966 0.950 . S
H3938 C3968 0.950 . S
H3939 C3969 0.950 . S
C3940 H3922 0.951 . S
C3940 C3941 1.366 . S
C3940 C3942 1.388 . S
C3941 C3940 1.366 . S
C3941 C3945 1.385 . S
C3942 H3923 0.951 . S
C3942 C3940 1.388 . S
C3942 C3943 1.366 . S
C3943 C3942 1.366 . S
C3943 C3944 1.414 . S
C3943 C3946 1.499 . S
C3944 H3924 0.950 . S
C3944 C3943 1.414 . S
C3944 C3945 1.374 . S
C3945 H3925 0.950 . S
C3945 C3941 1.385 . S
C3945 C3944 1.374 . S
C3946 C3943 1.499 . S
C3946 C3947 1.373 . S
C3946 C3948 1.389 . S
C3947 H3926 0.950 . S
C3947 C3946 1.373 . S
C3947 C3963 1.377 . S
C3948 C3946 1.389 . S
C3948 C3949 1.524 . S
C3948 C3962 1.377 . S
C3949 C3948 1.524 . S
C3949 C3950 1.397 . S
C3949 C3954 1.363 . S
C3950 H3927 0.950 . S
C3950 C3949 1.397 . S
C3950 C3951 1.334 . S
C3951 H3928 0.950 . S
C3951 C3950 1.334 . S
C3951 C3952 1.287 . S
C3952 C3951 1.287 . S
C3952 C3953 1.524 . S
C3952 H3971 0.913 . S
C3953 H3929 0.950 . S
C3953 C3952 1.524 . S
C3953 C3954 1.415 . S
C3954 H3930 0.950 . S
C3954 C3949 1.363 . S
C3954 C3953 1.415 . S
C3955 H3931 0.951 . S
C3955 C3956 1.366 . S
C3955 C3957 1.388 . S
C3956 C3955 1.366 . S
C3956 C3960 1.385 . S
C3957 H3932 0.951 . S
C3957 C3955 1.388 . S
C3957 C3958 1.366 . S
C3958 C3957 1.366 . S
C3958 C3959 1.414 . S
C3958 C3961 1.499 . S
C3959 H3933 0.950 . S
C3959 C3958 1.414 . S
C3959 C3960 1.374 . S
C3960 H3934 0.950 1_565 S
C3960 C3956 1.385 . S
C3960 C3959 1.374 . S
C3961 C3958 1.499 . S
C3961 C3962 1.373 . S
C3961 C3963 1.389 . S
C3962 H3935 0.950 . S
C3962 C3948 1.377 . S
C3962 C3961 1.373 . S
C3963 C3947 1.377 . S
C3963 C3961 1.389 . S
C3963 C3964 1.524 . S
C3964 C3963 1.524 . S
C3964 C3965 1.397 . S
C3964 C3969 1.363 . S
C3965 H3936 0.950 . S
C3965 C3964 1.397 . S
C3965 C3966 1.334 . S
C3966 H3937 0.950 . S
C3966 C3965 1.334 . S
C3966 C3967 1.287 . S
C3967 C3966 1.287 . S
C3967 C3968 1.524 . S
C3967 H3970 0.999 . S
C3968 H3938 0.950 . S
C3968 C3967 1.524 . S
C3968 C3969 1.415 . S
C3969 H3939 0.950 . S
C3969 C3964 1.363 . S
C3969 C3968 1.415 . S
H3970 C3967 0.999 . S
H3971 C3952 0.913 . S
H3972 C3990 0.951 . S
H3973 C3992 0.951 . S
H3974 C3994 0.950 . S
H3975 C3995 0.950 . S
H3976 C3997 0.950 . S
H3977 C4000 0.950 . S
H3978 C4001 0.950 . S
H3979 C4003 0.950 . S
H3980 C4004 0.950 . S
H3981 C4005 0.951 . S
H3982 C4007 0.951 . S
H3983 C4009 0.950 . S
H3984 C4010 0.950 . S
H3985 C4012 0.950 . S
H3986 C4015 0.950 . S
H3987 C4016 0.950 . S
H3988 C4018 0.950 . S
H3989 C4019 0.950 . S
C3990 H3972 0.951 . S
C3990 C3991 1.366 . S
C3990 C3992 1.388 . S
C3991 C3990 1.366 . S
C3991 C3995 1.385 . S
C3992 H3973 0.951 . S
C3992 C3990 1.388 . S
C3992 C3993 1.366 . S
C3993 C3992 1.366 . S
C3993 C3994 1.414 . S
C3993 C3996 1.499 . S
C3994 H3974 0.950 . S
C3994 C3993 1.414 . S
C3994 C3995 1.374 . S
C3995 H3975 0.950 . S
C3995 C3991 1.385 . S
C3995 C3994 1.374 . S
C3996 C3993 1.499 . S
C3996 C3997 1.373 . S
C3996 C3998 1.389 . S
C3997 H3976 0.950 . S
C3997 C3996 1.373 . S
C3997 C4013 1.377 . S
C3998 C3996 1.389 . S
C3998 C3999 1.524 . S
C3998 C4012 1.377 . S
C3999 C3998 1.524 . S
C3999 C4000 1.397 . S
C3999 C4004 1.363 . S
C4000 H3977 0.950 . S
C4000 C3999 1.397 . S
C4000 C4001 1.334 . S
C4001 H3978 0.950 . S
C4001 C4000 1.334 . S
C4001 C4002 1.287 . S
C4002 C4001 1.287 . S
C4002 C4003 1.524 . S
C4002 H4021 0.913 . S
C4003 H3979 0.950 . S
C4003 C4002 1.524 . S
C4003 C4004 1.415 . S
C4004 H3980 0.950 . S
C4004 C3999 1.363 . S
C4004 C4003 1.415 . S
C4005 H3981 0.951 . S
C4005 C4006 1.366 . S
C4005 C4007 1.388 . S
C4006 C4005 1.366 . S
C4006 C4010 1.385 . S
C4007 H3982 0.951 . S
C4007 C4005 1.388 . S
C4007 C4008 1.366 . S
C4008 C4007 1.366 . S
C4008 C4009 1.414 . S
C4008 C4011 1.499 . S
C4009 H3983 0.950 . S
C4009 C4008 1.414 . S
C4009 C4010 1.374 . S
C4010 H3984 0.950 . S
C4010 C4006 1.385 . S
C4010 C4009 1.374 . S
C4011 C4008 1.499 . S
C4011 C4012 1.373 . S
C4011 C4013 1.389 . S
C4012 H3985 0.950 . S
C4012 C3998 1.377 . S
C4012 C4011 1.373 . S
C4013 C3997 1.377 . S
C4013 C4011 1.389 . S
C4013 C4014 1.524 . S
C4014 C4013 1.524 . S
C4014 C4015 1.397 . S
C4014 C4019 1.363 . S
C4015 H3986 0.950 . S
C4015 C4014 1.397 . S
C4015 C4016 1.334 . S
C4016 H3987 0.950 . S
C4016 C4015 1.334 . S
C4016 C4017 1.287 . S
C4017 C4016 1.287 . S
C4017 C4018 1.524 . S
C4017 H4020 0.999 . S
C4018 H3988 0.950 . S
C4018 C4017 1.524 . S
C4018 C4019 1.415 . S
C4019 H3989 0.950 . S
C4019 C4014 1.363 . S
C4019 C4018 1.415 . S
H4020 C4017 0.999 . S
H4021 C4002 0.913 . S
H4022 C4040 0.951 . S
H4023 C4042 0.951 . S
H4024 C4044 0.950 . S
H4025 C4045 0.950 . S
H4026 C4047 0.950 . S
H4027 C4050 0.950 1_556 S
H4028 C4051 0.950 . S
H4029 C4053 0.950 . S
H4030 C4054 0.950 . S
H4031 C4055 0.951 . S
H4032 C4057 0.951 . S
H4033 C4059 0.950 . S
H4034 C4060 0.950 . S
H4035 C4062 0.950 . S
H4036 C4065 0.950 . S
H4037 C4066 0.987 . S
H4038 C4068 0.950 1_565 S
H4039 C4069 0.950 . S
C4040 H4022 0.951 . S
C4040 C4041 1.366 . S
C4040 C4042 1.388 . S
C4041 C4040 1.366 . S
C4041 C4045 1.385 1_554 S
C4042 H4023 0.951 . S
C4042 C4040 1.388 . S
C4042 C4043 1.366 . S
C4043 C4042 1.366 . S
C4043 C4044 1.414 1_554 S
C4043 C4046 1.499 . S
C4044 H4024 0.950 . S
C4044 C4043 1.414 1_556 S
C4044 C4045 1.374 . S
C4045 H4025 0.950 . S
C4045 C4041 1.385 1_556 S
C4045 C4044 1.374 . S
C4046 C4043 1.499 . S
C4046 C4047 1.373 1_554 S
C4046 C4048 1.389 . S
C4047 H4026 0.950 . S
C4047 C4046 1.373 1_556 S
C4047 C4063 1.376 1_556 S
C4048 C4046 1.389 . S
C4048 C4049 1.524 . S
C4048 C4062 1.377 . S
C4049 C4048 1.524 . S
C4049 C4050 1.397 . S
C4049 C4054 1.363 . S
C4050 H4027 0.950 1_554 S
C4050 C4049 1.397 . S
C4050 C4051 1.334 . S
C4051 H4028 0.950 . S
C4051 C4050 1.334 . S
C4051 C4052 1.287 . S
C4052 C4051 1.287 . S
C4052 C4053 1.524 . S
C4052 H4071 0.913 . S
C4053 H4029 0.950 . S
C4053 C4052 1.524 . S
C4053 C4054 1.415 . S
C4054 H4030 0.950 . S
C4054 C4049 1.363 . S
C4054 C4053 1.415 . S
C4055 H4031 0.951 . S
C4055 C4056 1.366 1_556 S
C4055 C4057 1.388 . S
C4056 C4055 1.366 1_554 S
C4056 C4060 1.385 . S
C4057 H4032 0.951 . S
C4057 C4055 1.388 . S
C4057 C4058 1.366 1_556 S
C4058 C4057 1.366 1_554 S
C4058 C4059 1.414 . S
C4058 C4061 1.499 . S
C4059 H4033 0.950 . S
C4059 C4058 1.414 . S
C4059 C4060 1.374 . S
C4060 H4034 0.950 . S
C4060 C4056 1.385 . S
C4060 C4059 1.374 . S
C4061 C4058 1.499 . S
C4061 C4062 1.373 . S
C4061 C4063 1.395 . S
C4062 H4035 0.950 . S
C4062 C4048 1.377 . S
C4062 C4061 1.373 . S
C4063 C4047 1.376 1_554 S
C4063 C4061 1.395 . S
C4063 C4064 1.520 1_554 S
C4064 C4063 1.520 1_556 S
C4064 C4065 1.397 1_556 S
C4064 C4069 1.363 . S
C4065 H4036 0.950 . S
C4065 C4064 1.397 1_554 S
C4065 C4066 1.349 1_545 S
C4066 H4037 0.987 . S
C4066 C4065 1.349 1_565 S
C4066 C4067 1.237 1_554 S
C4067 C4066 1.237 1_556 S
C4067 C4068 1.524 1_565 S
C4067 H4070 0.999 . S
C4068 H4038 0.950 1_545 S
C4068 C4067 1.524 1_545 S
C4068 C4069 1.415 . S
C4069 H4039 0.950 . S
C4069 C4064 1.363 . S
C4069 C4068 1.415 . S
H4070 C4067 0.999 . S
H4071 C4052 0.913 . S
H4072 C4090 0.951 . S
H4073 C4092 0.951 . S
H4074 C4094 0.950 . S
H4075 C4095 0.950 . S
H4076 C4097 0.950 . S
H4077 C4100 0.950 . S
H4078 C4101 0.950 . S
H4079 C4103 0.950 . S
H4080 C4104 0.950 . S
H4081 C4105 0.951 . S
H4082 C4107 0.951 . S
H4083 C4109 0.950 . S
H4084 C4110 0.950 . S
H4085 C4112 0.950 . S
H4086 C4115 0.950 . S
H4087 C4116 0.950 . S
H4088 C4118 0.950 . S
H4089 C4119 0.950 . S
C4090 H4072 0.951 . S
C4090 C4091 1.366 . S
C4090 C4092 1.388 . S
C4091 C4090 1.366 . S
C4091 C4095 1.385 . S
C4092 H4073 0.951 . S
C4092 C4090 1.388 . S
C4092 C4093 1.366 . S
C4093 C4092 1.366 . S
C4093 C4094 1.414 . S
C4093 C4096 1.499 . S
C4094 H4074 0.950 . S
C4094 C4093 1.414 . S
C4094 C4095 1.374 . S
C4095 H4075 0.950 . S
C4095 C4091 1.385 . S
C4095 C4094 1.374 . S
C4096 C4093 1.499 . S
C4096 C4097 1.373 . S
C4096 C4098 1.389 . S
C4097 H4076 0.950 . S
C4097 C4096 1.373 . S
C4097 C4113 1.377 . S
C4098 C4096 1.389 . S
C4098 C4099 1.524 . S
C4098 C4112 1.377 . S
C4099 C4098 1.524 . S
C4099 C4100 1.397 . S
C4099 C4104 1.363 . S
C4100 H4077 0.950 . S
C4100 C4099 1.397 . S
C4100 C4101 1.334 . S
C4101 H4078 0.950 . S
C4101 C4100 1.334 . S
C4101 C4102 1.287 . S
C4102 C4101 1.287 . S
C4102 C4103 1.524 . S
C4102 H4121 0.913 . S
C4103 H4079 0.950 . S
C4103 C4102 1.524 . S
C4103 C4104 1.415 . S
C4104 H4080 0.950 . S
C4104 C4099 1.363 . S
C4104 C4103 1.415 . S
C4105 H4081 0.951 . S
C4105 C4106 1.366 . S
C4105 C4107 1.388 . S
C4106 C4105 1.366 . S
C4106 C4110 1.385 . S
C4107 H4082 0.951 . S
C4107 C4105 1.388 . S
C4107 C4108 1.366 . S
C4108 C4107 1.366 . S
C4108 C4109 1.414 . S
C4108 C4111 1.499 . S
C4109 H4083 0.950 . S
C4109 C4108 1.414 . S
C4109 C4110 1.374 . S
C4110 H4084 0.950 . S
C4110 C4106 1.385 . S
C4110 C4109 1.374 . S
C4111 C4108 1.499 . S
C4111 C4112 1.373 . S
C4111 C4113 1.389 . S
C4112 H4085 0.950 . S
C4112 C4098 1.377 . S
C4112 C4111 1.373 . S
C4113 C4097 1.377 . S
C4113 C4111 1.389 . S
C4113 C4114 1.524 . S
C4114 C4113 1.524 . S
C4114 C4115 1.397 . S
C4114 C4119 1.363 . S
C4115 H4086 0.950 . S
C4115 C4114 1.397 . S
C4115 C4116 1.334 . S
C4116 H4087 0.950 . S
C4116 C4115 1.334 . S
C4116 C4117 1.287 . S
C4117 C4116 1.287 . S
C4117 C4118 1.524 . S
C4117 H4120 0.999 . S
C4118 H4088 0.950 . S
C4118 C4117 1.524 . S
C4118 C4119 1.415 . S
C4119 H4089 0.950 . S
C4119 C4114 1.363 . S
C4119 C4118 1.415 . S
H4120 C4117 0.999 . S
H4121 C4102 0.913 . S
H4122 C4140 0.951 . S
H4123 C4142 0.951 . S
H4124 C4144 0.962 . S
H4125 C4145 0.954 . S
H4126 C4147 0.950 . S
H4127 C4150 0.950 . S
H4128 C4151 0.950 . S
H4129 C4153 0.950 . S
H4130 C4154 0.950 . S
H4131 C4155 0.951 . S
H4132 C4157 0.951 . S
H4133 C4159 0.950 . S
H4134 C4160 0.950 . S
H4135 C4162 0.950 . S
H4136 C4165 0.950 . S
H4137 C4166 0.950 . S
H4138 C4168 0.950 . S
H4139 C4169 0.950 . S
C4140 H4122 0.951 . S
C4140 C4141 1.366 . S
C4140 C4142 1.388 . S
C4141 C4140 1.366 . S
C4141 C4145 1.380 1_554 S
C4142 H4123 0.951 . S
C4142 C4140 1.388 . S
C4142 C4143 1.366 . S
C4143 C4142 1.366 . S
C4143 C4144 1.406 1_554 S
C4143 C4146 1.499 . S
C4144 H4124 0.962 . S
C4144 C4143 1.406 1_556 S
C4144 C4145 1.373 . S
C4145 H4125 0.954 . S
C4145 C4141 1.380 1_556 S
C4145 C4144 1.373 . S
C4146 C4143 1.499 . S
C4146 C4147 1.373 1_554 S
C4146 C4148 1.389 . S
C4147 H4126 0.950 . S
C4147 C4146 1.373 1_556 S
C4147 C4163 1.377 . S
C4148 C4146 1.389 . S
C4148 C4149 1.524 . S
C4148 C4162 1.377 . S
C4149 C4148 1.524 . S
C4149 C4150 1.397 . S
C4149 C4154 1.363 . S
C4150 H4127 0.950 . S
C4150 C4149 1.397 . S
C4150 C4151 1.334 . S
C4151 H4128 0.950 . S
C4151 C4150 1.334 . S
C4151 C4152 1.287 . S
C4152 C4151 1.287 . S
C4152 C4153 1.524 . S
C4152 H4171 0.913 . S
C4153 H4129 0.950 . S
C4153 C4152 1.524 . S
C4153 C4154 1.415 . S
C4154 H4130 0.950 . S
C4154 C4149 1.363 . S
C4154 C4153 1.415 . S
C4155 H4131 0.951 . S
C4155 C4156 1.366 . S
C4155 C4157 1.388 . S
C4156 C4155 1.366 . S
C4156 C4160 1.385 1_556 S
C4157 H4132 0.951 . S
C4157 C4155 1.388 . S
C4157 C4158 1.366 . S
C4158 C4157 1.366 . S
C4158 C4159 1.414 1_556 S
C4158 C4161 1.499 . S
C4159 H4133 0.950 . S
C4159 C4158 1.414 1_554 S
C4159 C4160 1.374 . S
C4160 H4134 0.950 . S
C4160 C4156 1.385 1_554 S
C4160 C4159 1.374 . S
C4161 C4158 1.499 . S
C4161 C4162 1.373 1_556 S
C4161 C4163 1.389 . S
C4162 H4135 0.950 . S
C4162 C4148 1.377 . S
C4162 C4161 1.373 1_554 S
C4163 C4147 1.377 . S
C4163 C4161 1.389 . S
C4163 C4164 1.524 . S
C4164 C4163 1.524 . S
C4164 C4165 1.397 . S
C4164 C4169 1.363 . S
C4165 H4136 0.950 . S
C4165 C4164 1.397 . S
C4165 C4166 1.334 . S
C4166 H4137 0.950 . S
C4166 C4165 1.334 . S
C4166 C4167 1.287 . S
C4167 C4166 1.287 . S
C4167 C4168 1.524 . S
C4167 H4170 0.999 . S
C4168 H4138 0.950 . S
C4168 C4167 1.524 . S
C4168 C4169 1.415 . S
C4169 H4139 0.950 . S
C4169 C4164 1.363 . S
C4169 C4168 1.415 . S
H4170 C4167 0.999 . S
H4171 C4152 0.913 . S
H4172 C4190 0.951 . S
H4173 C4192 0.951 . S
H4174 C4194 0.950 . S
H4175 C4195 0.950 . S
H4176 C4197 0.950 . S
H4177 C4200 0.950 . S
H4178 C4201 0.950 . S
H4179 C4203 0.950 . S
H4180 C4204 0.950 . S
H4181 C4205 0.951 . S
H4182 C4207 0.951 . S
H4183 C4209 0.950 . S
H4184 C4210 0.950 . S
H4185 C4212 0.950 . S
H4186 C4215 0.950 . S
H4187 C4216 0.950 . S
H4188 C4218 0.950 . S
H4189 C4219 0.950 . S
C4190 H4172 0.951 . S
C4190 C4191 1.366 . S
C4190 C4192 1.388 . S
C4191 C4190 1.366 . S
C4191 C4195 1.385 . S
C4192 H4173 0.951 . S
C4192 C4190 1.388 . S
C4192 C4193 1.366 . S
C4193 C4192 1.366 . S
C4193 C4194 1.414 . S
C4193 C4196 1.499 . S
C4194 H4174 0.950 . S
C4194 C4193 1.414 . S
C4194 C4195 1.374 . S
C4195 H4175 0.950 . S
C4195 C4191 1.385 . S
C4195 C4194 1.374 . S
C4196 C4193 1.499 . S
C4196 C4197 1.373 . S
C4196 C4198 1.389 . S
C4197 H4176 0.950 . S
C4197 C4196 1.373 . S
C4197 C4213 1.377 . S
C4198 C4196 1.389 . S
C4198 C4199 1.524 . S
C4198 C4212 1.377 . S
C4199 C4198 1.524 . S
C4199 C4200 1.397 . S
C4199 C4204 1.363 . S
C4200 H4177 0.950 . S
C4200 C4199 1.397 . S
C4200 C4201 1.334 . S
C4201 H4178 0.950 . S
C4201 C4200 1.334 . S
C4201 C4202 1.287 . S
C4202 C4201 1.287 . S
C4202 C4203 1.524 . S
C4202 H4221 0.913 . S
C4203 H4179 0.950 . S
C4203 C4202 1.524 . S
C4203 C4204 1.415 . S
C4204 H4180 0.950 . S
C4204 C4199 1.363 . S
C4204 C4203 1.415 . S
C4205 H4181 0.951 . S
C4205 C4206 1.366 . S
C4205 C4207 1.388 . S
C4206 C4205 1.366 . S
C4206 C4210 1.385 . S
C4207 H4182 0.951 . S
C4207 C4205 1.388 . S
C4207 C4208 1.366 . S
C4208 C4207 1.366 . S
C4208 C4209 1.414 . S
C4208 C4211 1.499 . S
C4209 H4183 0.950 . S
C4209 C4208 1.414 . S
C4209 C4210 1.374 . S
C4210 H4184 0.950 . S
C4210 C4206 1.385 . S
C4210 C4209 1.374 . S
C4211 C4208 1.499 . S
C4211 C4212 1.373 . S
C4211 C4213 1.389 . S
C4212 H4185 0.950 . S
C4212 C4198 1.377 . S
C4212 C4211 1.373 . S
C4213 C4197 1.377 . S
C4213 C4211 1.389 . S
C4213 C4214 1.524 . S
C4214 C4213 1.524 . S
C4214 C4215 1.397 . S
C4214 C4219 1.363 . S
C4215 H4186 0.950 . S
C4215 C4214 1.397 . S
C4215 C4216 1.334 . S
C4216 H4187 0.950 . S
C4216 C4215 1.334 . S
C4216 C4217 1.287 . S
C4217 C4216 1.287 . S
C4217 C4218 1.524 . S
C4217 H4220 0.999 . S
C4218 H4188 0.950 . S
C4218 C4217 1.524 . S
C4218 C4219 1.415 . S
C4219 H4189 0.950 . S
C4219 C4214 1.363 . S
C4219 C4218 1.415 . S
H4220 C4217 0.999 . S
H4221 C4202 0.913 . S
H4222 C4240 0.951 . S
H4223 C4242 0.951 . S
H4224 C4244 0.950 . S
H4225 C4245 0.950 . S
H4226 C4247 0.950 . S
H4227 C4250 0.950 . S
H4228 C4251 0.950 . S
H4229 C4253 0.950 . S
H4230 C4254 0.950 . S
H4231 C4255 0.951 . S
H4232 C4257 0.951 . S
H4233 C4259 0.950 . S
H4234 C4260 0.950 . S
H4235 C4262 0.950 . S
H4236 C4265 0.950 . S
H4237 C4266 0.950 . S
H4238 C4268 0.950 . S
H4239 C4269 0.950 . S
C4240 H4222 0.951 . S
C4240 C4241 1.366 . S
C4240 C4242 1.388 . S
C4241 C4240 1.366 . S
C4241 C4245 1.385 . S
C4242 H4223 0.951 . S
C4242 C4240 1.388 . S
C4242 C4243 1.366 . S
C4243 C4242 1.366 . S
C4243 C4244 1.414 . S
C4243 C4246 1.499 . S
C4244 H4224 0.950 . S
C4244 C4243 1.414 . S
C4244 C4245 1.374 . S
C4245 H4225 0.950 . S
C4245 C4241 1.385 . S
C4245 C4244 1.374 . S
C4246 C4243 1.499 . S
C4246 C4247 1.373 . S
C4246 C4248 1.389 . S
C4247 H4226 0.950 . S
C4247 C4246 1.373 . S
C4247 C4263 1.377 . S
C4248 C4246 1.389 . S
C4248 C4249 1.524 . S
C4248 C4262 1.377 . S
C4249 C4248 1.524 . S
C4249 C4250 1.397 . S
C4249 C4254 1.363 . S
C4250 H4227 0.950 . S
C4250 C4249 1.397 . S
C4250 C4251 1.334 . S
C4251 H4228 0.950 . S
C4251 C4250 1.334 . S
C4251 C4252 1.287 . S
C4252 C4251 1.287 . S
C4252 C4253 1.524 . S
C4252 H4271 0.913 . S
C4253 H4229 0.950 . S
C4253 C4252 1.524 . S
C4253 C4254 1.415 . S
C4254 H4230 0.950 . S
C4254 C4249 1.363 . S
C4254 C4253 1.415 . S
C4255 H4231 0.951 . S
C4255 C4256 1.366 . S
C4255 C4257 1.388 . S
C4256 C4255 1.366 . S
C4256 C4260 1.385 . S
C4257 H4232 0.951 . S
C4257 C4255 1.388 . S
C4257 C4258 1.366 . S
C4258 C4257 1.366 . S
C4258 C4259 1.414 . S
C4258 C4261 1.499 . S
C4259 H4233 0.950 . S
C4259 C4258 1.414 . S
C4259 C4260 1.374 . S
C4260 H4234 0.950 . S
C4260 C4256 1.385 . S
C4260 C4259 1.374 . S
C4261 C4258 1.499 . S
C4261 C4262 1.373 . S
C4261 C4263 1.389 . S
C4262 H4235 0.950 . S
C4262 C4248 1.377 . S
C4262 C4261 1.373 . S
C4263 C4247 1.377 . S
C4263 C4261 1.389 . S
C4263 C4264 1.524 . S
C4264 C4263 1.524 . S
C4264 C4265 1.397 . S
C4264 C4269 1.363 . S
C4265 H4236 0.950 . S
C4265 C4264 1.397 . S
C4265 C4266 1.334 . S
C4266 H4237 0.950 . S
C4266 C4265 1.334 . S
C4266 C4267 1.287 . S
C4267 C4266 1.287 . S
C4267 C4268 1.524 . S
C4267 H4270 0.999 . S
C4268 H4238 0.950 . S
C4268 C4267 1.524 . S
C4268 C4269 1.415 . S
C4269 H4239 0.950 . S
C4269 C4264 1.363 . S
C4269 C4268 1.415 . S
H4270 C4267 0.999 . S
H4271 C4252 0.913 . S
H4272 C4290 0.951 . S
H4273 C4292 0.951 . S
H4274 C4294 0.950 . S
H4275 C4295 0.950 . S
H4276 C4297 0.950 . S
H4277 C4300 0.950 . S
H4278 C4301 0.950 . S
H4279 C4303 0.950 . S
H4280 C4304 0.950 . S
H4281 C4305 0.951 . S
H4282 C4307 0.951 . S
H4283 C4309 0.950 . S
H4284 C4310 0.950 . S
H4285 C4312 0.950 . S
H4286 C4315 0.950 . S
H4287 C4316 0.950 . S
H4288 C4318 0.950 . S
H4289 C4319 0.950 . S
C4290 H4272 0.951 . S
C4290 C4291 1.366 . S
C4290 C4292 1.388 . S
C4291 C4290 1.366 . S
C4291 C4295 1.385 . S
C4292 H4273 0.951 . S
C4292 C4290 1.388 . S
C4292 C4293 1.366 . S
C4293 C4292 1.366 . S
C4293 C4294 1.414 . S
C4293 C4296 1.499 . S
C4294 H4274 0.950 . S
C4294 C4293 1.414 . S
C4294 C4295 1.374 . S
C4295 H4275 0.950 . S
C4295 C4291 1.385 . S
C4295 C4294 1.374 . S
C4296 C4293 1.499 . S
C4296 C4297 1.373 . S
C4296 C4298 1.389 . S
C4297 H4276 0.950 . S
C4297 C4296 1.373 . S
C4297 C4313 1.377 . S
C4298 C4296 1.389 . S
C4298 C4299 1.524 . S
C4298 C4312 1.377 . S
C4299 C4298 1.524 . S
C4299 C4300 1.397 . S
C4299 C4304 1.363 . S
C4300 H4277 0.950 . S
C4300 C4299 1.397 . S
C4300 C4301 1.334 . S
C4301 H4278 0.950 . S
C4301 C4300 1.334 . S
C4301 C4302 1.287 . S
C4302 C4301 1.287 . S
C4302 C4303 1.524 . S
C4302 H4321 0.913 . S
C4303 H4279 0.950 . S
C4303 C4302 1.524 . S
C4303 C4304 1.415 . S
C4304 H4280 0.950 . S
C4304 C4299 1.363 . S
C4304 C4303 1.415 . S
C4305 H4281 0.951 . S
C4305 C4306 1.366 . S
C4305 C4307 1.388 . S
C4306 C4305 1.366 . S
C4306 C4310 1.385 . S
C4307 H4282 0.951 . S
C4307 C4305 1.388 . S
C4307 C4308 1.366 . S
C4308 C4307 1.366 . S
C4308 C4309 1.414 . S
C4308 C4311 1.499 . S
C4309 H4283 0.950 . S
C4309 C4308 1.414 . S
C4309 C4310 1.374 . S
C4310 H4284 0.950 . S
C4310 C4306 1.385 . S
C4310 C4309 1.374 . S
C4311 C4308 1.499 . S
C4311 C4312 1.373 . S
C4311 C4313 1.389 . S
C4312 H4285 0.950 . S
C4312 C4298 1.377 . S
C4312 C4311 1.373 . S
C4313 C4297 1.377 . S
C4313 C4311 1.389 . S
C4313 C4314 1.524 . S
C4314 C4313 1.524 . S
C4314 C4315 1.397 . S
C4314 C4319 1.363 . S
C4315 H4286 0.950 . S
C4315 C4314 1.397 . S
C4315 C4316 1.334 . S
C4316 H4287 0.950 . S
C4316 C4315 1.334 . S
C4316 C4317 1.287 . S
C4317 C4316 1.287 . S
C4317 C4318 1.524 . S
C4317 H4320 0.999 . S
C4318 H4288 0.950 . S
C4318 C4317 1.524 . S
C4318 C4319 1.415 . S
C4319 H4289 0.950 . S
C4319 C4314 1.363 . S
C4319 C4318 1.415 . S
H4320 C4317 0.999 . S
H4321 C4302 0.913 . S
H4322 C4340 0.951 . S
H4323 C4342 0.951 . S
H4324 C4344 0.950 . S
H4325 C4345 0.950 . S
H4326 C4347 0.950 . S
H4327 C4350 0.950 . S
H4328 C4351 0.950 . S
H4329 C4353 0.950 . S
H4330 C4354 0.950 . S
H4331 C4355 0.951 . S
H4332 C4357 0.951 . S
H4333 C4359 0.950 . S
H4334 C4360 0.950 . S
H4335 C4362 0.950 . S
H4336 C4365 0.950 . S
H4337 C4366 0.950 . S
H4338 C4368 0.950 . S
H4339 C4369 0.950 . S
C4340 H4322 0.951 . S
C4340 C4341 1.366 . S
C4340 C4342 1.388 . S
C4341 C4340 1.366 . S
C4341 C4345 1.385 . S
C4342 H4323 0.951 . S
C4342 C4340 1.388 . S
C4342 C4343 1.366 . S
C4343 C4342 1.366 . S
C4343 C4344 1.414 . S
C4343 C4346 1.499 . S
C4344 H4324 0.950 . S
C4344 C4343 1.414 . S
C4344 C4345 1.374 . S
C4345 H4325 0.950 . S
C4345 C4341 1.385 . S
C4345 C4344 1.374 . S
C4346 C4343 1.499 . S
C4346 C4347 1.373 . S
C4346 C4348 1.389 . S
C4347 H4326 0.950 . S
C4347 C4346 1.373 . S
C4347 C4363 1.377 . S
C4348 C4346 1.389 . S
C4348 C4349 1.524 . S
C4348 C4362 1.377 . S
C4349 C4348 1.524 . S
C4349 C4350 1.397 . S
C4349 C4354 1.363 . S
C4350 H4327 0.950 . S
C4350 C4349 1.397 . S
C4350 C4351 1.334 . S
C4351 H4328 0.950 . S
C4351 C4350 1.334 . S
C4351 C4352 1.287 . S
C4352 C4351 1.287 . S
C4352 C4353 1.524 . S
C4352 H4371 0.913 . S
C4353 H4329 0.950 . S
C4353 C4352 1.524 . S
C4353 C4354 1.415 . S
C4354 H4330 0.950 . S
C4354 C4349 1.363 . S
C4354 C4353 1.415 . S
C4355 H4331 0.951 . S
C4355 C4356 1.366 . S
C4355 C4357 1.388 . S
C4356 C4355 1.366 . S
C4356 C4360 1.385 . S
C4357 H4332 0.951 . S
C4357 C4355 1.388 . S
C4357 C4358 1.366 . S
C4358 C4357 1.366 . S
C4358 C4359 1.414 . S
C4358 C4361 1.499 . S
C4359 H4333 0.950 . S
C4359 C4358 1.414 . S
C4359 C4360 1.374 . S
C4360 H4334 0.950 . S
C4360 C4356 1.385 . S
C4360 C4359 1.374 . S
C4361 C4358 1.499 . S
C4361 C4362 1.373 . S
C4361 C4363 1.389 . S
C4362 H4335 0.950 . S
C4362 C4348 1.377 . S
C4362 C4361 1.373 . S
C4363 C4347 1.377 . S
C4363 C4361 1.389 . S
C4363 C4364 1.524 . S
C4364 C4363 1.524 . S
C4364 C4365 1.397 . S
C4364 C4369 1.363 . S
C4365 H4336 0.950 . S
C4365 C4364 1.397 . S
C4365 C4366 1.334 . S
C4366 H4337 0.950 . S
C4366 C4365 1.334 . S
C4366 C4367 1.287 . S
C4367 C4366 1.287 . S
C4367 C4368 1.524 . S
C4367 H4370 0.999 . S
C4368 H4338 0.950 . S
C4368 C4367 1.524 . S
C4368 C4369 1.415 . S
C4369 H4339 0.950 . S
C4369 C4364 1.363 . S
C4369 C4368 1.415 . S
H4370 C4367 0.999 . S
H4371 C4352 0.913 . S
H4372 C4390 0.951 . S
H4373 C4392 0.951 . S
H4374 C4394 0.950 . S
H4375 C4395 0.950 . S
H4376 C4397 0.950 . S
H4377 C4400 0.950 1_455 S
H4378 C4401 0.950 . S
H4379 C4403 0.950 . S
H4380 C4404 0.950 . S
H4381 C4405 0.951 . S
H4382 C4407 0.951 . S
H4383 C4409 0.950 . S
H4384 C4410 0.950 . S
H4385 C4412 0.950 . S
H4386 C4415 0.942 1_655 S
H4387 C4416 0.950 . S
H4388 C4418 0.950 . S
H4389 C4419 0.950 . S
C4390 H4372 0.951 . S
C4390 C4391 1.366 1_655 S
C4390 C4392 1.388 . S
C4391 C4390 1.366 1_455 S
C4391 C4395 1.385 . S
C4392 H4373 0.951 . S
C4392 C4390 1.388 . S
C4392 C4393 1.366 1_655 S
C4393 C4392 1.366 1_455 S
C4393 C4394 1.414 . S
C4393 C4396 1.499 . S
C4394 H4374 0.950 . S
C4394 C4393 1.414 . S
C4394 C4395 1.374 . S
C4395 H4375 0.950 . S
C4395 C4391 1.385 . S
C4395 C4394 1.374 . S
C4396 C4393 1.499 . S
C4396 C4397 1.373 . S
C4396 C4398 1.389 1_455 S
C4397 H4376 0.950 . S
C4397 C4396 1.373 . S
C4397 C4413 1.377 . S
C4398 C4396 1.389 1_655 S
C4398 C4399 1.524 . S
C4398 C4412 1.377 . S
C4399 C4398 1.524 . S
C4399 C4400 1.397 . S
C4399 C4404 1.363 . S
C4400 H4377 0.950 1_655 S
C4400 C4399 1.397 . S
C4400 C4401 1.334 . S
C4401 H4378 0.950 . S
C4401 C4400 1.334 . S
C4401 C4402 1.287 . S
C4402 C4401 1.287 . S
C4402 C4403 1.524 . S
C4402 H4421 0.913 . S
C4403 H4379 0.950 . S
C4403 C4402 1.524 . S
C4403 C4404 1.415 . S
C4404 H4380 0.950 . S
C4404 C4399 1.363 . S
C4404 C4403 1.415 . S
C4405 H4381 0.951 . S
C4405 C4406 1.366 1_455 S
C4405 C4407 1.388 . S
C4406 C4405 1.366 1_655 S
C4406 C4410 1.385 . S
C4407 H4382 0.951 . S
C4407 C4405 1.388 . S
C4407 C4408 1.366 1_455 S
C4408 C4407 1.366 1_655 S
C4408 C4409 1.414 . S
C4408 C4411 1.500 . S
C4409 H4383 0.950 . S
C4409 C4408 1.414 . S
C4409 C4410 1.374 . S
C4410 H4384 0.950 . S
C4410 C4406 1.385 . S
C4410 C4409 1.374 . S
C4411 C4408 1.500 . S
C4411 C4412 1.401 . S
C4411 C4413 1.359 1_655 S
C4412 H4385 0.950 . S
C4412 C4398 1.377 . S
C4412 C4411 1.401 . S
C4413 C4397 1.377 . S
C4413 C4411 1.359 1_455 S
C4413 C4414 1.524 . S
C4414 C4413 1.524 . S
C4414 C4415 1.397 . S
C4414 C4419 1.363 . S
C4415 H4386 0.942 1_455 S
C4415 C4414 1.397 . S
C4415 C4416 1.334 . S
C4416 H4387 0.950 . S
C4416 C4415 1.334 . S
C4416 C4417 1.287 . S
C4417 C4416 1.287 . S
C4417 C4418 1.524 . S
C4417 H4420 0.999 . S
C4418 H4388 0.950 . S
C4418 C4417 1.524 . S
C4418 C4419 1.415 . S
C4419 H4389 0.950 . S
C4419 C4414 1.363 . S
C4419 C4418 1.415 . S
H4420 C4417 0.999 . S
H4421 C4402 0.913 . S
H4422 C4440 0.951 . S
H4423 C4442 0.951 . S
H4424 C4444 0.950 . S
H4425 C4445 0.950 . S
H4426 C4447 0.950 . S
H4427 C4450 0.950 . S
H4428 C4451 0.950 . S
H4429 C4453 0.950 . S
H4430 C4454 0.950 . S
H4431 C4455 0.951 . S
H4432 C4457 0.951 . S
H4433 C4459 0.950 . S
H4434 C4460 0.950 . S
H4435 C4462 0.950 . S
H4436 C4465 0.950 . S
H4437 C4466 0.950 . S
H4438 C4468 0.950 . S
H4439 C4469 0.950 . S
C4440 H4422 0.951 . S
C4440 C4441 1.366 . S
C4440 C4442 1.388 . S
C4441 C4440 1.366 . S
C4441 C4445 1.385 . S
C4442 H4423 0.951 . S
C4442 C4440 1.388 . S
C4442 C4443 1.366 . S
C4443 C4442 1.366 . S
C4443 C4444 1.414 . S
C4443 C4446 1.499 . S
C4444 H4424 0.950 . S
C4444 C4443 1.414 . S
C4444 C4445 1.374 . S
C4445 H4425 0.950 . S
C4445 C4441 1.385 . S
C4445 C4444 1.374 . S
C4446 C4443 1.499 . S
C4446 C4447 1.373 . S
C4446 C4448 1.389 . S
C4447 H4426 0.950 . S
C4447 C4446 1.373 . S
C4447 C4463 1.377 . S
C4448 C4446 1.389 . S
C4448 C4449 1.524 . S
C4448 C4462 1.377 . S
C4449 C4448 1.524 . S
C4449 C4450 1.397 . S
C4449 C4454 1.363 . S
C4450 H4427 0.950 . S
C4450 C4449 1.397 . S
C4450 C4451 1.334 . S
C4451 H4428 0.950 . S
C4451 C4450 1.334 . S
C4451 C4452 1.287 . S
C4452 C4451 1.287 . S
C4452 C4453 1.524 . S
C4452 H4471 0.913 . S
C4453 H4429 0.950 . S
C4453 C4452 1.524 . S
C4453 C4454 1.415 . S
C4454 H4430 0.950 . S
C4454 C4449 1.363 . S
C4454 C4453 1.415 . S
C4455 H4431 0.951 . S
C4455 C4456 1.366 . S
C4455 C4457 1.388 . S
C4456 C4455 1.366 . S
C4456 C4460 1.385 . S
C4457 H4432 0.951 . S
C4457 C4455 1.388 . S
C4457 C4458 1.366 . S
C4458 C4457 1.366 . S
C4458 C4459 1.414 . S
C4458 C4461 1.499 . S
C4459 H4433 0.950 . S
C4459 C4458 1.414 . S
C4459 C4460 1.374 . S
C4460 H4434 0.950 . S
C4460 C4456 1.385 . S
C4460 C4459 1.374 . S
C4461 C4458 1.499 . S
C4461 C4462 1.373 . S
C4461 C4463 1.389 . S
C4462 H4435 0.950 . S
C4462 C4448 1.377 . S
C4462 C4461 1.373 . S
C4463 C4447 1.377 . S
C4463 C4461 1.389 . S
C4463 C4464 1.524 . S
C4464 C4463 1.524 . S
C4464 C4465 1.397 . S
C4464 C4469 1.363 . S
C4465 H4436 0.950 . S
C4465 C4464 1.397 . S
C4465 C4466 1.334 . S
C4466 H4437 0.950 . S
C4466 C4465 1.334 . S
C4466 C4467 1.287 . S
C4467 C4466 1.287 . S
C4467 C4468 1.524 . S
C4467 H4470 0.999 . S
C4468 H4438 0.950 . S
C4468 C4467 1.524 . S
C4468 C4469 1.415 . S
C4469 H4439 0.950 . S
C4469 C4464 1.363 . S
C4469 C4468 1.415 . S
H4470 C4467 0.999 . S
H4471 C4452 0.913 . S
H4472 C4490 0.951 . S
H4473 C4492 0.951 . S
H4474 C4494 0.950 . S
H4475 C4495 0.950 . S
H4476 C4497 0.950 . S
H4477 C4500 0.950 . S
H4478 C4501 0.950 . S
H4479 C4503 0.950 . S
H4480 C4504 0.950 . S
H4481 C4505 0.951 . S
H4482 C4507 0.951 . S
H4483 C4509 0.950 . S
H4484 C4510 0.950 . S
H4485 C4512 0.950 . S
H4486 C4515 0.950 . S
H4487 C4516 0.950 . S
H4488 C4518 0.950 . S
H4489 C4519 0.950 . S
C4490 H4472 0.951 . S
C4490 C4491 1.366 . S
C4490 C4492 1.388 . S
C4491 C4490 1.366 . S
C4491 C4495 1.385 . S
C4492 H4473 0.951 . S
C4492 C4490 1.388 . S
C4492 C4493 1.366 . S
C4493 C4492 1.366 . S
C4493 C4494 1.414 . S
C4493 C4496 1.499 . S
C4494 H4474 0.950 . S
C4494 C4493 1.414 . S
C4494 C4495 1.374 . S
C4495 H4475 0.950 . S
C4495 C4491 1.385 . S
C4495 C4494 1.374 . S
C4496 C4493 1.499 . S
C4496 C4497 1.373 . S
C4496 C4498 1.389 . S
C4497 H4476 0.950 . S
C4497 C4496 1.373 . S
C4497 C4513 1.377 . S
C4498 C4496 1.389 . S
C4498 C4499 1.524 . S
C4498 C4512 1.377 . S
C4499 C4498 1.524 . S
C4499 C4500 1.397 . S
C4499 C4504 1.363 . S
C4500 H4477 0.950 . S
C4500 C4499 1.397 . S
C4500 C4501 1.334 . S
C4501 H4478 0.950 . S
C4501 C4500 1.334 . S
C4501 C4502 1.287 . S
C4502 C4501 1.287 . S
C4502 C4503 1.524 . S
C4502 H4521 0.913 . S
C4503 H4479 0.950 . S
C4503 C4502 1.524 . S
C4503 C4504 1.415 . S
C4504 H4480 0.950 . S
C4504 C4499 1.363 . S
C4504 C4503 1.415 . S
C4505 H4481 0.951 . S
C4505 C4506 1.366 . S
C4505 C4507 1.388 . S
C4506 C4505 1.366 . S
C4506 C4510 1.385 . S
C4507 H4482 0.951 . S
C4507 C4505 1.388 . S
C4507 C4508 1.366 . S
C4508 C4507 1.366 . S
C4508 C4509 1.414 . S
C4508 C4511 1.499 . S
C4509 H4483 0.950 . S
C4509 C4508 1.414 . S
C4509 C4510 1.374 . S
C4510 H4484 0.950 . S
C4510 C4506 1.385 . S
C4510 C4509 1.374 . S
C4511 C4508 1.499 . S
C4511 C4512 1.373 . S
C4511 C4513 1.389 . S
C4512 H4485 0.950 . S
C4512 C4498 1.377 . S
C4512 C4511 1.373 . S
C4513 C4497 1.377 . S
C4513 C4511 1.389 . S
C4513 C4514 1.524 . S
C4514 C4513 1.524 . S
C4514 C4515 1.397 . S
C4514 C4519 1.363 . S
C4515 H4486 0.950 . S
C4515 C4514 1.397 . S
C4515 C4516 1.334 . S
C4516 H4487 0.950 . S
C4516 C4515 1.334 . S
C4516 C4517 1.287 . S
C4517 C4516 1.287 . S
C4517 C4518 1.524 . S
C4517 H4520 0.999 . S
C4518 H4488 0.950 . S
C4518 C4517 1.524 . S
C4518 C4519 1.415 . S
C4519 H4489 0.950 . S
C4519 C4514 1.363 . S
C4519 C4518 1.415 . S
H4520 C4517 0.999 . S
H4521 C4502 0.913 . S
H4522 C4540 0.951 . S
H4523 C4542 0.951 . S
H4524 C4544 0.950 . S
H4525 C4545 0.950 . S
H4526 C4547 0.950 . S
H4527 C4550 0.950 . S
H4528 C4551 0.950 . S
H4529 C4553 0.950 . S
H4530 C4554 0.950 . S
H4531 C4555 0.951 . S
H4532 C4557 0.951 . S
H4533 C4559 0.950 . S
H4534 C4560 0.950 . S
H4535 C4562 0.950 . S
H4536 C4565 0.950 . S
H4537 C4566 0.950 . S
H4538 C4568 0.950 . S
H4539 C4569 0.950 . S
C4540 H4522 0.951 . S
C4540 C4541 1.366 . S
C4540 C4542 1.388 . S
C4541 C4540 1.366 . S
C4541 C4545 1.385 . S
C4542 H4523 0.951 . S
C4542 C4540 1.388 . S
C4542 C4543 1.366 . S
C4543 C4542 1.366 . S
C4543 C4544 1.414 . S
C4543 C4546 1.499 . S
C4544 H4524 0.950 . S
C4544 C4543 1.414 . S
C4544 C4545 1.374 . S
C4545 H4525 0.950 . S
C4545 C4541 1.385 . S
C4545 C4544 1.374 . S
C4546 C4543 1.499 . S
C4546 C4547 1.373 . S
C4546 C4548 1.389 . S
C4547 H4526 0.950 . S
C4547 C4546 1.373 . S
C4547 C4563 1.377 . S
C4548 C4546 1.389 . S
C4548 C4549 1.524 . S
C4548 C4562 1.377 . S
C4549 C4548 1.524 . S
C4549 C4550 1.397 . S
C4549 C4554 1.363 . S
C4550 H4527 0.950 . S
C4550 C4549 1.397 . S
C4550 C4551 1.334 . S
C4551 H4528 0.950 . S
C4551 C4550 1.334 . S
C4551 C4552 1.287 . S
C4552 C4551 1.287 . S
C4552 C4553 1.524 . S
C4552 H4571 0.913 . S
C4553 H4529 0.950 . S
C4553 C4552 1.524 . S
C4553 C4554 1.415 . S
C4554 H4530 0.950 . S
C4554 C4549 1.363 . S
C4554 C4553 1.415 . S
C4555 H4531 0.951 . S
C4555 C4556 1.366 . S
C4555 C4557 1.388 . S
C4556 C4555 1.366 . S
C4556 C4560 1.385 . S
C4557 H4532 0.951 . S
C4557 C4555 1.388 . S
C4557 C4558 1.366 . S
C4558 C4557 1.366 . S
C4558 C4559 1.414 . S
C4558 C4561 1.499 . S
C4559 H4533 0.950 . S
C4559 C4558 1.414 . S
C4559 C4560 1.374 . S
C4560 H4534 0.950 . S
C4560 C4556 1.385 . S
C4560 C4559 1.374 . S
C4561 C4558 1.499 . S
C4561 C4562 1.373 . S
C4561 C4563 1.389 . S
C4562 H4535 0.950 . S
C4562 C4548 1.377 . S
C4562 C4561 1.373 . S
C4563 C4547 1.377 . S
C4563 C4561 1.389 . S
C4563 C4564 1.524 . S
C4564 C4563 1.524 . S
C4564 C4565 1.397 . S
C4564 C4569 1.363 . S
C4565 H4536 0.950 . S
C4565 C4564 1.397 . S
C4565 C4566 1.334 . S
C4566 H4537 0.950 . S
C4566 C4565 1.334 . S
C4566 C4567 1.287 . S
C4567 C4566 1.287 . S
C4567 C4568 1.524 . S
C4567 H4570 0.999 . S
C4568 H4538 0.950 . S
C4568 C4567 1.524 . S
C4568 C4569 1.415 . S
C4569 H4539 0.950 . S
C4569 C4564 1.363 . S
C4569 C4568 1.415 . S
H4570 C4567 0.999 . S
H4571 C4552 0.913 . S
H4572 C4590 0.951 . S
H4573 C4592 0.951 . S
H4574 C4594 0.950 . S
H4575 C4595 0.950 . S
H4576 C4597 0.950 . S
H4577 C4600 0.950 1_455 S
H4578 C4601 0.919 1_455 S
H4579 C4603 0.950 . S
H4580 C4604 0.950 . S
H4581 C4605 0.951 . S
H4582 C4607 0.951 . S
H4583 C4609 0.950 . S
H4584 C4610 0.950 . S
H4585 C4612 0.950 . S
H4586 C4615 0.950 1_655 S
H4587 C4616 0.950 . S
H4588 C4618 0.950 . S
H4589 C4619 0.950 . S
C4590 H4572 0.951 . S
C4590 C4591 1.366 1_655 S
C4590 C4592 1.388 . S
C4591 C4590 1.366 1_455 S
C4591 C4595 1.385 . S
C4592 H4573 0.951 . S
C4592 C4590 1.388 . S
C4592 C4593 1.366 1_655 S
C4593 C4592 1.366 1_455 S
C4593 C4594 1.414 . S
C4593 C4596 1.499 . S
C4594 H4574 0.950 . S
C4594 C4593 1.414 . S
C4594 C4595 1.374 . S
C4595 H4575 0.950 . S
C4595 C4591 1.385 . S
C4595 C4594 1.374 . S
C4596 C4593 1.499 . S
C4596 C4597 1.373 . S
C4596 C4598 1.389 1_455 S
C4597 H4576 0.950 . S
C4597 C4596 1.373 . S
C4597 C4613 1.377 . S
C4598 C4596 1.389 1_655 S
C4598 C4599 1.524 . S
C4598 C4612 1.377 . S
C4599 C4598 1.524 . S
C4599 C4600 1.397 . S
C4599 C4604 1.363 . S
C4600 H4577 0.950 1_655 S
C4600 C4599 1.397 . S
C4600 C4601 1.334 . S
C4601 H4578 0.919 1_655 S
C4601 C4600 1.334 . S
C4601 C4602 1.287 . S
C4602 C4601 1.287 . S
C4602 C4603 1.524 . S
C4602 H4621 0.913 . S
C4603 H4579 0.950 . S
C4603 C4602 1.524 . S
C4603 C4604 1.415 . S
C4604 H4580 0.950 . S
C4604 C4599 1.363 . S
C4604 C4603 1.415 . S
C4605 H4581 0.951 . S
C4605 C4606 1.366 1_455 S
C4605 C4607 1.388 . S
C4606 C4605 1.366 1_655 S
C4606 C4610 1.385 . S
C4607 H4582 0.951 . S
C4607 C4605 1.388 . S
C4607 C4608 1.329 1_455 S
C4608 C4607 1.329 1_655 S
C4608 C4609 1.452 . S
C4608 C4611 1.498 . S
C4609 H4583 0.950 . S
C4609 C4608 1.452 . S
C4609 C4610 1.374 . S
C4610 H4584 0.950 . S
C4610 C4606 1.385 . S
C4610 C4609 1.374 . S
C4611 C4608 1.498 . S
C4611 C4612 1.383 . S
C4611 C4613 1.378 1_655 S
C4612 H4585 0.950 . S
C4612 C4598 1.377 . S
C4612 C4611 1.383 . S
C4613 C4597 1.377 . S
C4613 C4611 1.378 1_455 S
C4613 C4614 1.524 . S
C4614 C4613 1.524 . S
C4614 C4615 1.397 . S
C4614 C4619 1.363 . S
C4615 H4586 0.950 1_455 S
C4615 C4614 1.397 . S
C4615 C4616 1.334 . S
C4616 H4587 0.950 . S
C4616 C4615 1.334 . S
C4616 C4617 1.287 . S
C4617 C4616 1.287 . S
C4617 C4618 1.524 . S
C4617 H4620 0.999 . S
C4618 H4588 0.950 . S
C4618 C4617 1.524 . S
C4618 C4619 1.415 . S
C4619 H4589 0.950 . S
C4619 C4614 1.363 . S
C4619 C4618 1.415 . S
H4620 C4617 0.999 . S
H4621 C4602 0.913 . S
H4622 C4640 0.951 . S
H4623 C4642 0.951 . S
H4624 C4644 0.950 . S
H4625 C4645 0.950 . S
H4626 C4647 0.950 . S
H4627 C4650 0.950 . S
H4628 C4651 0.950 . S
H4629 C4653 0.950 . S
H4630 C4654 0.950 . S
H4631 C4655 0.951 . S
H4632 C4657 0.951 . S
H4633 C4659 0.950 . S
H4634 C4660 0.950 . S
H4635 C4662 0.950 . S
H4636 C4665 0.950 . S
H4637 C4666 0.950 . S
H4638 C4668 0.950 . S
H4639 C4669 0.950 . S
C4640 H4622 0.951 . S
C4640 C4641 1.366 . S
C4640 C4642 1.388 . S
C4641 C4640 1.366 . S
C4641 C4645 1.385 . S
C4642 H4623 0.951 . S
C4642 C4640 1.388 . S
C4642 C4643 1.366 . S
C4643 C4642 1.366 . S
C4643 C4644 1.414 . S
C4643 C4646 1.499 . S
C4644 H4624 0.950 . S
C4644 C4643 1.414 . S
C4644 C4645 1.374 . S
C4645 H4625 0.950 . S
C4645 C4641 1.385 . S
C4645 C4644 1.374 . S
C4646 C4643 1.499 . S
C4646 C4647 1.373 . S
C4646 C4648 1.389 . S
C4647 H4626 0.950 . S
C4647 C4646 1.373 . S
C4647 C4663 1.377 . S
C4648 C4646 1.389 . S
C4648 C4649 1.524 . S
C4648 C4662 1.377 . S
C4649 C4648 1.524 . S
C4649 C4650 1.397 . S
C4649 C4654 1.363 . S
C4650 H4627 0.950 . S
C4650 C4649 1.397 . S
C4650 C4651 1.334 . S
C4651 H4628 0.950 . S
C4651 C4650 1.334 . S
C4651 C4652 1.287 . S
C4652 C4651 1.287 . S
C4652 C4653 1.524 . S
C4652 H4671 0.913 . S
C4653 H4629 0.950 . S
C4653 C4652 1.524 . S
C4653 C4654 1.415 . S
C4654 H4630 0.950 . S
C4654 C4649 1.363 . S
C4654 C4653 1.415 . S
C4655 H4631 0.951 . S
C4655 C4656 1.366 . S
C4655 C4657 1.388 . S
C4656 C4655 1.366 . S
C4656 C4660 1.385 . S
C4657 H4632 0.951 . S
C4657 C4655 1.388 . S
C4657 C4658 1.366 . S
C4658 C4657 1.366 . S
C4658 C4659 1.414 . S
C4658 C4661 1.499 . S
C4659 H4633 0.950 . S
C4659 C4658 1.414 . S
C4659 C4660 1.374 . S
C4660 H4634 0.950 . S
C4660 C4656 1.385 . S
C4660 C4659 1.374 . S
C4661 C4658 1.499 . S
C4661 C4662 1.373 . S
C4661 C4663 1.389 . S
C4662 H4635 0.950 . S
C4662 C4648 1.377 . S
C4662 C4661 1.373 . S
C4663 C4647 1.377 . S
C4663 C4661 1.389 . S
C4663 C4664 1.524 . S
C4664 C4663 1.524 . S
C4664 C4665 1.397 . S
C4664 C4669 1.363 . S
C4665 H4636 0.950 . S
C4665 C4664 1.397 . S
C4665 C4666 1.334 . S
C4666 H4637 0.950 . S
C4666 C4665 1.334 . S
C4666 C4667 1.287 . S
C4667 C4666 1.287 . S
C4667 C4668 1.524 . S
C4667 H4670 0.999 . S
C4668 H4638 0.950 . S
C4668 C4667 1.524 . S
C4668 C4669 1.415 . S
C4669 H4639 0.950 . S
C4669 C4664 1.363 . S
C4669 C4668 1.415 . S
H4670 C4667 0.999 . S
H4671 C4652 0.913 . S
H4672 C4690 0.951 . S
H4673 C4692 0.951 . S
H4674 C4694 0.950 . S
H4675 C4695 0.950 . S
H4676 C4697 0.950 . S
H4677 C4700 0.950 . S
H4678 C4701 0.950 . S
H4679 C4703 0.950 . S
H4680 C4704 0.950 . S
H4681 C4705 0.951 . S
H4682 C4707 0.951 . S
H4683 C4709 0.950 . S
H4684 C4710 0.950 . S
H4685 C4712 0.950 . S
H4686 C4715 0.950 . S
H4687 C4716 0.950 . S
H4688 C4718 0.950 . S
H4689 C4719 0.950 . S
C4690 H4672 0.951 . S
C4690 C4691 1.366 . S
C4690 C4692 1.388 . S
C4691 C4690 1.366 . S
C4691 C4695 1.385 . S
C4692 H4673 0.951 . S
C4692 C4690 1.388 . S
C4692 C4693 1.366 . S
C4693 C4692 1.366 . S
C4693 C4694 1.414 . S
C4693 C4696 1.499 . S
C4694 H4674 0.950 . S
C4694 C4693 1.414 . S
C4694 C4695 1.374 . S
C4695 H4675 0.950 . S
C4695 C4691 1.385 . S
C4695 C4694 1.374 . S
C4696 C4693 1.499 . S
C4696 C4697 1.373 . S
C4696 C4698 1.389 . S
C4697 H4676 0.950 . S
C4697 C4696 1.373 . S
C4697 C4713 1.377 . S
C4698 C4696 1.389 . S
C4698 C4699 1.524 . S
C4698 C4712 1.377 . S
C4699 C4698 1.524 . S
C4699 C4700 1.397 . S
C4699 C4704 1.363 . S
C4700 H4677 0.950 . S
C4700 C4699 1.397 . S
C4700 C4701 1.334 . S
C4701 H4678 0.950 . S
C4701 C4700 1.334 . S
C4701 C4702 1.287 . S
C4702 C4701 1.287 . S
C4702 C4703 1.524 . S
C4702 H4721 0.913 . S
C4703 H4679 0.950 . S
C4703 C4702 1.524 . S
C4703 C4704 1.415 . S
C4704 H4680 0.950 . S
C4704 C4699 1.363 . S
C4704 C4703 1.415 . S
C4705 H4681 0.951 . S
C4705 C4706 1.366 . S
C4705 C4707 1.388 . S
C4706 C4705 1.366 . S
C4706 C4710 1.385 . S
C4707 H4682 0.951 . S
C4707 C4705 1.388 . S
C4707 C4708 1.366 . S
C4708 C4707 1.366 . S
C4708 C4709 1.414 . S
C4708 C4711 1.499 . S
C4709 H4683 0.950 . S
C4709 C4708 1.414 . S
C4709 C4710 1.374 . S
C4710 H4684 0.950 . S
C4710 C4706 1.385 . S
C4710 C4709 1.374 . S
C4711 C4708 1.499 . S
C4711 C4712 1.373 . S
C4711 C4713 1.389 . S
C4712 H4685 0.950 . S
C4712 C4698 1.377 . S
C4712 C4711 1.373 . S
C4713 C4697 1.377 . S
C4713 C4711 1.389 . S
C4713 C4714 1.524 . S
C4714 C4713 1.524 . S
C4714 C4715 1.397 . S
C4714 C4719 1.363 . S
C4715 H4686 0.950 . S
C4715 C4714 1.397 . S
C4715 C4716 1.334 . S
C4716 H4687 0.950 . S
C4716 C4715 1.334 . S
C4716 C4717 1.287 . S
C4717 C4716 1.287 . S
C4717 C4718 1.524 . S
C4717 H4720 0.999 . S
C4718 H4688 0.950 . S
C4718 C4717 1.524 . S
C4718 C4719 1.415 . S
C4719 H4689 0.950 . S
C4719 C4714 1.363 . S
C4719 C4718 1.415 . S
H4720 C4717 0.999 . S
H4721 C4702 0.913 . S
H4722 C4740 0.951 . S
H4723 C4742 0.951 . S
H4724 C4744 0.950 . S
H4725 C4745 0.950 . S
H4726 C4747 0.950 . S
H4727 C4750 0.950 . S
H4728 C4751 0.950 . S
H4729 C4753 0.950 . S
H4730 C4754 0.950 . S
H4731 C4755 0.951 . S
H4732 C4757 0.951 . S
H4733 C4759 0.950 . S
H4734 C4760 0.950 . S
H4735 C4762 0.950 . S
H4736 C4765 0.950 . S
H4737 C4766 0.950 . S
H4738 C4768 0.950 . S
H4739 C4769 0.950 . S
C4740 H4722 0.951 . S
C4740 C4741 1.366 . S
C4740 C4742 1.388 . S
C4741 C4740 1.366 . S
C4741 C4745 1.385 . S
C4742 H4723 0.951 . S
C4742 C4740 1.388 . S
C4742 C4743 1.366 . S
C4743 C4742 1.366 . S
C4743 C4744 1.414 . S
C4743 C4746 1.499 . S
C4744 H4724 0.950 . S
C4744 C4743 1.414 . S
C4744 C4745 1.374 . S
C4745 H4725 0.950 . S
C4745 C4741 1.385 . S
C4745 C4744 1.374 . S
C4746 C4743 1.499 . S
C4746 C4747 1.373 . S
C4746 C4748 1.389 . S
C4747 H4726 0.950 . S
C4747 C4746 1.373 . S
C4747 C4763 1.377 . S
C4748 C4746 1.389 . S
C4748 C4749 1.524 . S
C4748 C4762 1.377 . S
C4749 C4748 1.524 . S
C4749 C4750 1.397 . S
C4749 C4754 1.363 . S
C4750 H4727 0.950 . S
C4750 C4749 1.397 . S
C4750 C4751 1.334 . S
C4751 H4728 0.950 . S
C4751 C4750 1.334 . S
C4751 C4752 1.287 . S
C4752 C4751 1.287 . S
C4752 C4753 1.524 . S
C4752 H4771 0.913 . S
C4753 H4729 0.950 . S
C4753 C4752 1.524 . S
C4753 C4754 1.415 . S
C4754 H4730 0.950 . S
C4754 C4749 1.363 . S
C4754 C4753 1.415 . S
C4755 H4731 0.951 . S
C4755 C4756 1.366 . S
C4755 C4757 1.388 . S
C4756 C4755 1.366 . S
C4756 C4760 1.385 . S
C4757 H4732 0.951 . S
C4757 C4755 1.388 . S
C4757 C4758 1.366 . S
C4758 C4757 1.366 . S
C4758 C4759 1.414 . S
C4758 C4761 1.499 . S
C4759 H4733 0.950 . S
C4759 C4758 1.414 . S
C4759 C4760 1.374 . S
C4760 H4734 0.950 . S
C4760 C4756 1.385 . S
C4760 C4759 1.374 . S
C4761 C4758 1.499 . S
C4761 C4762 1.373 . S
C4761 C4763 1.389 . S
C4762 H4735 0.950 . S
C4762 C4748 1.377 . S
C4762 C4761 1.373 . S
C4763 C4747 1.377 . S
C4763 C4761 1.389 . S
C4763 C4764 1.524 . S
C4764 C4763 1.524 . S
C4764 C4765 1.397 . S
C4764 C4769 1.363 . S
C4765 H4736 0.950 . S
C4765 C4764 1.397 . S
C4765 C4766 1.334 . S
C4766 H4737 0.950 . S
C4766 C4765 1.334 . S
C4766 C4767 1.287 . S
C4767 C4766 1.287 . S
C4767 C4768 1.524 . S
C4767 H4770 0.999 . S
C4768 H4738 0.950 . S
C4768 C4767 1.524 . S
C4768 C4769 1.415 . S
C4769 H4739 0.950 . S
C4769 C4764 1.363 . S
C4769 C4768 1.415 . S
H4770 C4767 0.999 . S
H4771 C4752 0.913 . S
H4772 C4790 0.951 . S
H4773 C4792 0.951 . S
H4774 C4794 0.950 . S
H4775 C4795 0.950 . S
H4776 C4797 0.950 . S
H4777 C4800 0.950 . S
H4778 C4801 0.950 . S
H4779 C4803 0.950 . S
H4780 C4804 0.950 . S
H4781 C4805 0.951 . S
H4782 C4807 0.951 . S
H4783 C4809 0.950 . S
H4784 C4810 0.950 . S
H4785 C4812 0.950 . S
H4786 C4815 0.950 . S
H4787 C4816 0.950 . S
H4788 C4818 0.950 . S
H4789 C4819 0.950 . S
C4790 H4772 0.951 . S
C4790 C4791 1.366 . S
C4790 C4792 1.388 . S
C4791 C4790 1.366 . S
C4791 C4795 1.385 . S
C4792 H4773 0.951 . S
C4792 C4790 1.388 . S
C4792 C4793 1.366 . S
C4793 C4792 1.366 . S
C4793 C4794 1.414 . S
C4793 C4796 1.499 . S
C4794 H4774 0.950 . S
C4794 C4793 1.414 . S
C4794 C4795 1.374 . S
C4795 H4775 0.950 . S
C4795 C4791 1.385 . S
C4795 C4794 1.374 . S
C4796 C4793 1.499 . S
C4796 C4797 1.373 . S
C4796 C4798 1.389 . S
C4797 H4776 0.950 . S
C4797 C4796 1.373 . S
C4797 C4813 1.377 . S
C4798 C4796 1.389 . S
C4798 C4799 1.524 . S
C4798 C4812 1.377 . S
C4799 C4798 1.524 . S
C4799 C4800 1.397 . S
C4799 C4804 1.363 . S
C4800 H4777 0.950 . S
C4800 C4799 1.397 . S
C4800 C4801 1.334 . S
C4801 H4778 0.950 . S
C4801 C4800 1.334 . S
C4801 C4802 1.287 . S
C4802 C4801 1.287 . S
C4802 C4803 1.524 . S
C4802 H4821 0.913 . S
C4803 H4779 0.950 . S
C4803 C4802 1.524 . S
C4803 C4804 1.415 . S
C4804 H4780 0.950 . S
C4804 C4799 1.363 . S
C4804 C4803 1.415 . S
C4805 H4781 0.951 . S
C4805 C4806 1.366 . S
C4805 C4807 1.388 . S
C4806 C4805 1.366 . S
C4806 C4810 1.385 . S
C4807 H4782 0.951 . S
C4807 C4805 1.388 . S
C4807 C4808 1.366 . S
C4808 C4807 1.366 . S
C4808 C4809 1.414 . S
C4808 C4811 1.499 . S
C4809 H4783 0.950 . S
C4809 C4808 1.414 . S
C4809 C4810 1.374 . S
C4810 H4784 0.950 . S
C4810 C4806 1.385 . S
C4810 C4809 1.374 . S
C4811 C4808 1.499 . S
C4811 C4812 1.373 . S
C4811 C4813 1.389 . S
C4812 H4785 0.950 . S
C4812 C4798 1.377 . S
C4812 C4811 1.373 . S
C4813 C4797 1.377 . S
C4813 C4811 1.389 . S
C4813 C4814 1.524 . S
C4814 C4813 1.524 . S
C4814 C4815 1.397 . S
C4814 C4819 1.363 . S
C4815 H4786 0.950 . S
C4815 C4814 1.397 . S
C4815 C4816 1.334 . S
C4816 H4787 0.950 . S
C4816 C4815 1.334 . S
C4816 C4817 1.287 . S
C4817 C4816 1.287 . S
C4817 C4818 1.524 . S
C4817 H4820 0.999 . S
C4818 H4788 0.950 . S
C4818 C4817 1.524 . S
C4818 C4819 1.415 . S
C4819 H4789 0.950 . S
C4819 C4814 1.363 . S
C4819 C4818 1.415 . S
H4820 C4817 0.999 . S
H4821 C4802 0.913 . S
H4822 C4840 0.951 . S
H4823 C4842 0.951 . S
H4824 C4844 0.950 . S
H4825 C4845 0.950 . S
H4826 C4847 0.950 . S
H4827 C4850 0.950 . S
H4828 C4851 0.950 . S
H4829 C4853 0.950 . S
H4830 C4854 0.950 . S
H4831 C4855 0.951 . S
H4832 C4857 0.951 . S
H4833 C4859 0.950 . S
H4834 C4860 0.950 . S
H4835 C4862 0.950 . S
H4836 C4865 0.950 . S
H4837 C4866 0.950 . S
H4838 C4868 0.950 . S
H4839 C4869 0.950 . S
C4840 H4822 0.951 . S
C4840 C4841 1.366 . S
C4840 C4842 1.388 . S
C4841 C4840 1.366 . S
C4841 C4845 1.385 . S
C4842 H4823 0.951 . S
C4842 C4840 1.388 . S
C4842 C4843 1.366 . S
C4843 C4842 1.366 . S
C4843 C4844 1.414 . S
C4843 C4846 1.499 . S
C4844 H4824 0.950 . S
C4844 C4843 1.414 . S
C4844 C4845 1.374 . S
C4845 H4825 0.950 . S
C4845 C4841 1.385 . S
C4845 C4844 1.374 . S
C4846 C4843 1.499 . S
C4846 C4847 1.373 . S
C4846 C4848 1.389 . S
C4847 H4826 0.950 . S
C4847 C4846 1.373 . S
C4847 C4863 1.377 . S
C4848 C4846 1.389 . S
C4848 C4849 1.524 . S
C4848 C4862 1.377 . S
C4849 C4848 1.524 . S
C4849 C4850 1.397 . S
C4849 C4854 1.363 . S
C4850 H4827 0.950 . S
C4850 C4849 1.397 . S
C4850 C4851 1.334 . S
C4851 H4828 0.950 . S
C4851 C4850 1.334 . S
C4851 C4852 1.287 . S
C4852 C4851 1.287 . S
C4852 C4853 1.524 . S
C4852 H4871 0.913 . S
C4853 H4829 0.950 . S
C4853 C4852 1.524 . S
C4853 C4854 1.415 . S
C4854 H4830 0.950 . S
C4854 C4849 1.363 . S
C4854 C4853 1.415 . S
C4855 H4831 0.951 . S
C4855 C4856 1.366 . S
C4855 C4857 1.388 . S
C4856 C4855 1.366 . S
C4856 C4860 1.385 . S
C4857 H4832 0.951 . S
C4857 C4855 1.388 . S
C4857 C4858 1.366 . S
C4858 C4857 1.366 . S
C4858 C4859 1.414 . S
C4858 C4861 1.499 . S
C4859 H4833 0.950 . S
C4859 C4858 1.414 . S
C4859 C4860 1.374 . S
C4860 H4834 0.950 . S
C4860 C4856 1.385 . S
C4860 C4859 1.374 . S
C4861 C4858 1.499 . S
C4861 C4862 1.373 . S
C4861 C4863 1.389 . S
C4862 H4835 0.950 . S
C4862 C4848 1.377 . S
C4862 C4861 1.373 . S
C4863 C4847 1.377 . S
C4863 C4861 1.389 . S
C4863 C4864 1.524 . S
C4864 C4863 1.524 . S
C4864 C4865 1.397 . S
C4864 C4869 1.363 . S
C4865 H4836 0.950 . S
C4865 C4864 1.397 . S
C4865 C4866 1.334 . S
C4866 H4837 0.950 . S
C4866 C4865 1.334 . S
C4866 C4867 1.287 . S
C4867 C4866 1.287 . S
C4867 C4868 1.524 . S
C4867 H4870 0.999 . S
C4868 H4838 0.950 . S
C4868 C4867 1.524 . S
C4868 C4869 1.415 . S
C4869 H4839 0.950 . S
C4869 C4864 1.363 . S
C4869 C4868 1.415 . S
H4870 C4867 0.999 . S
H4871 C4852 0.913 . S
H4872 C4890 0.951 . S
H4873 C4892 0.951 . S
H4874 C4894 0.950 . S
H4875 C4895 0.950 . S
H4876 C4897 0.950 . S
H4877 C4900 0.950 . S
H4878 C4901 0.950 . S
H4879 C4903 0.950 . S
H4880 C4904 0.950 . S
H4881 C4905 0.951 . S
H4882 C4907 0.951 . S
H4883 C4909 0.950 . S
H4884 C4910 0.950 . S
H4885 C4912 0.950 . S
H4886 C4915 0.950 . S
H4887 C4916 0.950 . S
H4888 C4918 0.950 . S
H4889 C4919 0.950 . S
C4890 H4872 0.951 . S
C4890 C4891 1.366 . S
C4890 C4892 1.388 . S
C4891 C4890 1.366 . S
C4891 C4895 1.385 . S
C4892 H4873 0.951 . S
C4892 C4890 1.388 . S
C4892 C4893 1.366 . S
C4893 C4892 1.366 . S
C4893 C4894 1.414 . S
C4893 C4896 1.499 . S
C4894 H4874 0.950 . S
C4894 C4893 1.414 . S
C4894 C4895 1.374 . S
C4895 H4875 0.950 . S
C4895 C4891 1.385 . S
C4895 C4894 1.374 . S
C4896 C4893 1.499 . S
C4896 C4897 1.373 . S
C4896 C4898 1.389 . S
C4897 H4876 0.950 . S
C4897 C4896 1.373 . S
C4897 C4913 1.377 . S
C4898 C4896 1.389 . S
C4898 C4899 1.524 . S
C4898 C4912 1.377 . S
C4899 C4898 1.524 . S
C4899 C4900 1.397 . S
C4899 C4904 1.363 . S
C4900 H4877 0.950 . S
C4900 C4899 1.397 . S
C4900 C4901 1.334 . S
C4901 H4878 0.950 . S
C4901 C4900 1.334 . S
C4901 C4902 1.287 . S
C4902 C4901 1.287 . S
C4902 C4903 1.524 . S
C4902 H4921 0.913 . S
C4903 H4879 0.950 . S
C4903 C4902 1.524 . S
C4903 C4904 1.415 . S
C4904 H4880 0.950 . S
C4904 C4899 1.363 . S
C4904 C4903 1.415 . S
C4905 H4881 0.951 . S
C4905 C4906 1.366 . S
C4905 C4907 1.388 . S
C4906 C4905 1.366 . S
C4906 C4910 1.385 . S
C4907 H4882 0.951 . S
C4907 C4905 1.388 . S
C4907 C4908 1.366 . S
C4908 C4907 1.366 . S
C4908 C4909 1.414 . S
C4908 C4911 1.499 . S
C4909 H4883 0.950 . S
C4909 C4908 1.414 . S
C4909 C4910 1.374 . S
C4910 H4884 0.950 . S
C4910 C4906 1.385 . S
C4910 C4909 1.374 . S
C4911 C4908 1.499 . S
C4911 C4912 1.373 . S
C4911 C4913 1.389 . S
C4912 H4885 0.950 . S
C4912 C4898 1.377 . S
C4912 C4911 1.373 . S
C4913 C4897 1.377 . S
C4913 C4911 1.389 . S
C4913 C4914 1.524 . S
C4914 C4913 1.524 . S
C4914 C4915 1.397 . S
C4914 C4919 1.363 . S
C4915 H4886 0.950 . S
C4915 C4914 1.397 . S
C4915 C4916 1.334 . S
C4916 H4887 0.950 . S
C4916 C4915 1.334 . S
C4916 C4917 1.287 . S
C4917 C4916 1.287 . S
C4917 C4918 1.524 . S
C4917 H4920 0.999 . S
C4918 H4888 0.950 . S
C4918 C4917 1.524 . S
C4918 C4919 1.415 . S
C4919 H4889 0.950 . S
C4919 C4914 1.363 . S
C4919 C4918 1.415 . S
H4920 C4917 0.999 . S
H4921 C4902 0.913 . S
H4922 C4940 0.951 . S
H4923 C4942 0.951 . S
H4924 C4944 0.950 . S
H4925 C4945 0.950 . S
H4926 C4947 0.950 . S
H4927 C4950 0.950 . S
H4928 C4951 0.950 . S
H4929 C4953 0.950 . S
H4930 C4954 0.950 . S
H4931 C4955 0.951 . S
H4932 C4957 0.951 . S
H4933 C4959 0.950 . S
H4934 C4960 0.950 . S
H4935 C4962 0.950 . S
H4936 C4965 0.950 . S
H4937 C4966 0.950 . S
H4938 C4968 0.950 . S
H4939 C4969 0.950 . S
C4940 H4922 0.951 . S
C4940 C4941 1.366 . S
C4940 C4942 1.388 . S
C4941 C4940 1.366 . S
C4941 C4945 1.385 . S
C4942 H4923 0.951 . S
C4942 C4940 1.388 . S
C4942 C4943 1.366 . S
C4943 C4942 1.366 . S
C4943 C4944 1.414 . S
C4943 C4946 1.499 . S
C4944 H4924 0.950 . S
C4944 C4943 1.414 . S
C4944 C4945 1.374 . S
C4945 H4925 0.950 . S
C4945 C4941 1.385 . S
C4945 C4944 1.374 . S
C4946 C4943 1.499 . S
C4946 C4947 1.373 . S
C4946 C4948 1.389 . S
C4947 H4926 0.950 . S
C4947 C4946 1.373 . S
C4947 C4963 1.377 . S
C4948 C4946 1.389 . S
C4948 C4949 1.524 . S
C4948 C4962 1.377 . S
C4949 C4948 1.524 . S
C4949 C4950 1.397 . S
C4949 C4954 1.363 . S
C4950 H4927 0.950 . S
C4950 C4949 1.397 . S
C4950 C4951 1.334 . S
C4951 H4928 0.950 . S
C4951 C4950 1.334 . S
C4951 C4952 1.287 . S
C4952 C4951 1.287 . S
C4952 C4953 1.524 . S
C4952 H4971 0.913 . S
C4953 H4929 0.950 . S
C4953 C4952 1.524 . S
C4953 C4954 1.415 . S
C4954 H4930 0.950 . S
C4954 C4949 1.363 . S
C4954 C4953 1.415 . S
C4955 H4931 0.951 . S
C4955 C4956 1.366 . S
C4955 C4957 1.388 . S
C4956 C4955 1.366 . S
C4956 C4960 1.385 . S
C4957 H4932 0.951 . S
C4957 C4955 1.388 . S
C4957 C4958 1.366 . S
C4958 C4957 1.366 . S
C4958 C4959 1.414 . S
C4958 C4961 1.499 . S
C4959 H4933 0.950 . S
C4959 C4958 1.414 . S
C4959 C4960 1.374 . S
C4960 H4934 0.950 . S
C4960 C4956 1.385 . S
C4960 C4959 1.374 . S
C4961 C4958 1.499 . S
C4961 C4962 1.373 . S
C4961 C4963 1.389 . S
C4962 H4935 0.950 . S
C4962 C4948 1.377 . S
C4962 C4961 1.373 . S
C4963 C4947 1.377 . S
C4963 C4961 1.389 . S
C4963 C4964 1.524 . S
C4964 C4963 1.524 . S
C4964 C4965 1.397 . S
C4964 C4969 1.363 . S
C4965 H4936 0.950 . S
C4965 C4964 1.397 . S
C4965 C4966 1.334 . S
C4966 H4937 0.950 . S
C4966 C4965 1.334 . S
C4966 C4967 1.287 . S
C4967 C4966 1.287 . S
C4967 C4968 1.524 . S
C4967 H4970 0.999 . S
C4968 H4938 0.950 . S
C4968 C4967 1.524 . S
C4968 C4969 1.415 . S
C4969 H4939 0.950 . S
C4969 C4964 1.363 . S
C4969 C4968 1.415 . S
H4970 C4967 0.999 . S
H4971 C4952 0.913 . S
H4972 C4990 0.951 . S
H4973 C4992 0.951 . S
H4974 C4994 0.950 . S
H4975 C4995 0.950 . S
H4976 C4997 0.950 . S
H4977 C5000 0.950 . S
H4978 C5001 0.950 . S
H4979 C5003 0.950 . S
H4980 C5004 0.950 . S
H4981 C5005 0.951 . S
H4982 C5007 0.951 . S
H4983 C5009 0.950 . S
H4984 C5010 0.950 . S
H4985 C5012 0.950 . S
H4986 C5015 0.950 . S
H4987 C5016 0.950 1_655 S
H4988 C5018 0.950 . S
H4989 C5019 0.950 . S
C4990 H4972 0.951 . S
C4990 C4991 1.366 . S
C4990 C4992 1.388 . S
C4991 C4990 1.366 . S
C4991 C4995 1.385 . S
C4992 H4973 0.951 . S
C4992 C4990 1.388 . S
C4992 C4993 1.366 . S
C4993 C4992 1.366 . S
C4993 C4994 1.414 . S
C4993 C4996 1.499 . S
C4994 H4974 0.950 . S
C4994 C4993 1.414 . S
C4994 C4995 1.374 . S
C4995 H4975 0.950 . S
C4995 C4991 1.385 . S
C4995 C4994 1.374 . S
C4996 C4993 1.499 . S
C4996 C4997 1.373 . S
C4996 C4998 1.389 . S
C4997 H4976 0.950 . S
C4997 C4996 1.373 . S
C4997 C5013 1.377 . S
C4998 C4996 1.389 . S
C4998 C4999 1.524 . S
C4998 C5012 1.377 . S
C4999 C4998 1.524 . S
C4999 C5000 1.397 . S
C4999 C5004 1.363 . S
C5000 H4977 0.950 . S
C5000 C4999 1.397 . S
C5000 C5001 1.334 . S
C5001 H4978 0.950 . S
C5001 C5000 1.334 . S
C5001 C5002 1.287 . S
C5002 C5001 1.287 . S
C5002 C5003 1.524 . S
C5002 H5021 0.913 . S
C5003 H4979 0.950 . S
C5003 C5002 1.524 . S
C5003 C5004 1.415 . S
C5004 H4980 0.950 . S
C5004 C4999 1.363 . S
C5004 C5003 1.415 . S
C5005 H4981 0.951 . S
C5005 C5006 1.366 . S
C5005 C5007 1.388 . S
C5006 C5005 1.366 . S
C5006 C5010 1.385 . S
C5007 H4982 0.951 . S
C5007 C5005 1.388 . S
C5007 C5008 1.366 . S
C5008 C5007 1.366 . S
C5008 C5009 1.414 . S
C5008 C5011 1.499 . S
C5009 H4983 0.950 . S
C5009 C5008 1.414 . S
C5009 C5010 1.374 . S
C5010 H4984 0.950 . S
C5010 C5006 1.385 . S
C5010 C5009 1.374 . S
C5011 C5008 1.499 . S
C5011 C5012 1.373 . S
C5011 C5013 1.389 . S
C5012 H4985 0.950 . S
C5012 C4998 1.377 . S
C5012 C5011 1.373 . S
C5013 C4997 1.377 . S
C5013 C5011 1.389 . S
C5013 C5014 1.524 . S
C5014 C5013 1.524 . S
C5014 C5015 1.397 . S
C5014 C5019 1.363 . S
C5015 H4986 0.950 . S
C5015 C5014 1.397 . S
C5015 C5016 1.334 . S
C5016 H4987 0.950 1_455 S
C5016 C5015 1.334 . S
C5016 C5017 1.287 . S
C5017 C5016 1.287 . S
C5017 C5018 1.524 . S
C5017 H5020 0.999 . S
C5018 H4988 0.950 . S
C5018 C5017 1.524 . S
C5018 C5019 1.415 . S
C5019 H4989 0.950 . S
C5019 C5014 1.363 . S
C5019 C5018 1.415 . S
H5020 C5017 0.999 . S
H5021 C5002 0.913 . S
H5022 C5040 0.951 . S
H5023 C5042 0.951 . S
H5024 C5044 0.950 . S
H5025 C5045 0.950 . S
H5026 C5047 0.950 . S
H5027 C5050 0.950 . S
H5028 C5051 0.950 . S
H5029 C5053 0.950 . S
H5030 C5054 0.950 . S
H5031 C5055 0.951 . S
H5032 C5057 0.951 . S
H5033 C5059 0.950 . S
H5034 C5060 0.950 . S
H5035 C5062 0.950 . S
H5036 C5065 0.950 . S
H5037 C5066 0.950 . S
H5038 C5068 0.950 . S
H5039 C5069 0.950 . S
C5040 H5022 0.951 . S
C5040 C5041 1.366 . S
C5040 C5042 1.388 . S
C5041 C5040 1.366 . S
C5041 C5045 1.385 . S
C5042 H5023 0.951 . S
C5042 C5040 1.388 . S
C5042 C5043 1.366 . S
C5043 C5042 1.366 . S
C5043 C5044 1.414 . S
C5043 C5046 1.499 . S
C5044 H5024 0.950 . S
C5044 C5043 1.414 . S
C5044 C5045 1.374 . S
C5045 H5025 0.950 . S
C5045 C5041 1.385 . S
C5045 C5044 1.374 . S
C5046 C5043 1.499 . S
C5046 C5047 1.373 . S
C5046 C5048 1.389 . S
C5047 H5026 0.950 . S
C5047 C5046 1.373 . S
C5047 C5063 1.377 . S
C5048 C5046 1.389 . S
C5048 C5049 1.524 . S
C5048 C5062 1.377 . S
C5049 C5048 1.524 . S
C5049 C5050 1.397 . S
C5049 C5054 1.363 . S
C5050 H5027 0.950 . S
C5050 C5049 1.397 . S
C5050 C5051 1.334 . S
C5051 H5028 0.950 . S
C5051 C5050 1.334 . S
C5051 C5052 1.287 . S
C5052 C5051 1.287 . S
C5052 C5053 1.524 . S
C5052 H5071 0.913 . S
C5053 H5029 0.950 . S
C5053 C5052 1.524 . S
C5053 C5054 1.415 . S
C5054 H5030 0.950 . S
C5054 C5049 1.363 . S
C5054 C5053 1.415 . S
C5055 H5031 0.951 . S
C5055 C5056 1.366 . S
C5055 C5057 1.388 . S
C5056 C5055 1.366 . S
C5056 C5060 1.385 . S
C5057 H5032 0.951 . S
C5057 C5055 1.388 . S
C5057 C5058 1.366 . S
C5058 C5057 1.366 . S
C5058 C5059 1.414 . S
C5058 C5061 1.499 . S
C5059 H5033 0.950 . S
C5059 C5058 1.414 . S
C5059 C5060 1.374 . S
C5060 H5034 0.950 . S
C5060 C5056 1.385 . S
C5060 C5059 1.374 . S
C5061 C5058 1.499 . S
C5061 C5062 1.373 . S
C5061 C5063 1.389 . S
C5062 H5035 0.950 . S
C5062 C5048 1.377 . S
C5062 C5061 1.373 . S
C5063 C5047 1.377 . S
C5063 C5061 1.389 . S
C5063 C5064 1.524 . S
C5064 C5063 1.524 . S
C5064 C5065 1.397 . S
C5064 C5069 1.363 . S
C5065 H5036 0.950 . S
C5065 C5064 1.397 . S
C5065 C5066 1.334 . S
C5066 H5037 0.950 . S
C5066 C5065 1.334 . S
C5066 C5067 1.287 . S
C5067 C5066 1.287 . S
C5067 C5068 1.524 . S
C5067 H5070 0.999 . S
C5068 H5038 0.950 . S
C5068 C5067 1.524 . S
C5068 C5069 1.415 . S
C5069 H5039 0.950 . S
C5069 C5064 1.363 . S
C5069 C5068 1.415 . S
H5070 C5067 0.999 . S
H5071 C5052 0.913 . S
H5072 C5090 0.951 . S
H5073 C5092 0.951 . S
H5074 C5094 0.950 . S
H5075 C5095 0.950 . S
H5076 C5097 0.950 . S
H5077 C5100 0.950 . S
H5078 C5101 0.950 . S
H5079 C5103 0.950 . S
H5080 C5104 0.950 . S
H5081 C5105 0.951 . S
H5082 C5107 0.951 . S
H5083 C5109 0.950 . S
H5084 C5110 0.950 . S
H5085 C5112 0.950 . S
H5086 C5115 0.950 . S
H5087 C5116 0.950 . S
H5088 C5118 0.950 . S
H5089 C5119 0.950 . S
C5090 H5072 0.951 . S
C5090 C5091 1.366 . S
C5090 C5092 1.388 . S
C5091 C5090 1.366 . S
C5091 C5095 1.385 . S
C5092 H5073 0.951 . S
C5092 C5090 1.388 . S
C5092 C5093 1.366 . S
C5093 C5092 1.366 . S
C5093 C5094 1.414 . S
C5093 C5096 1.499 . S
C5094 H5074 0.950 . S
C5094 C5093 1.414 . S
C5094 C5095 1.374 . S
C5095 H5075 0.950 . S
C5095 C5091 1.385 . S
C5095 C5094 1.374 . S
C5096 C5093 1.499 . S
C5096 C5097 1.373 . S
C5096 C5098 1.389 . S
C5097 H5076 0.950 . S
C5097 C5096 1.373 . S
C5097 C5113 1.377 . S
C5098 C5096 1.389 . S
C5098 C5099 1.524 . S
C5098 C5112 1.377 . S
C5099 C5098 1.524 . S
C5099 C5100 1.397 . S
C5099 C5104 1.363 . S
C5100 H5077 0.950 . S
C5100 C5099 1.397 . S
C5100 C5101 1.334 . S
C5101 H5078 0.950 . S
C5101 C5100 1.334 . S
C5101 C5102 1.287 . S
C5102 C5101 1.287 . S
C5102 C5103 1.524 . S
C5102 H5121 0.913 . S
C5103 H5079 0.950 . S
C5103 C5102 1.524 . S
C5103 C5104 1.415 . S
C5104 H5080 0.950 . S
C5104 C5099 1.363 . S
C5104 C5103 1.415 . S
C5105 H5081 0.951 . S
C5105 C5106 1.366 . S
C5105 C5107 1.388 . S
C5106 C5105 1.366 . S
C5106 C5110 1.385 . S
C5107 H5082 0.951 . S
C5107 C5105 1.388 . S
C5107 C5108 1.366 . S
C5108 C5107 1.366 . S
C5108 C5109 1.414 . S
C5108 C5111 1.499 . S
C5109 H5083 0.950 . S
C5109 C5108 1.414 . S
C5109 C5110 1.374 . S
C5110 H5084 0.950 . S
C5110 C5106 1.385 . S
C5110 C5109 1.374 . S
C5111 C5108 1.499 . S
C5111 C5112 1.373 . S
C5111 C5113 1.389 . S
C5112 H5085 0.950 . S
C5112 C5098 1.377 . S
C5112 C5111 1.373 . S
C5113 C5097 1.377 . S
C5113 C5111 1.389 . S
C5113 C5114 1.524 . S
C5114 C5113 1.524 . S
C5114 C5115 1.397 . S
C5114 C5119 1.363 . S
C5115 H5086 0.950 . S
C5115 C5114 1.397 . S
C5115 C5116 1.334 . S
C5116 H5087 0.950 . S
C5116 C5115 1.334 . S
C5116 C5117 1.287 . S
C5117 C5116 1.287 . S
C5117 C5118 1.524 . S
C5117 H5120 0.999 . S
C5118 H5088 0.950 . S
C5118 C5117 1.524 . S
C5118 C5119 1.415 . S
C5119 H5089 0.950 . S
C5119 C5114 1.363 . S
C5119 C5118 1.415 . S
H5120 C5117 0.999 . S
H5121 C5102 0.913 . S
H5122 C5140 0.951 . S
H5123 C5142 0.951 . S
H5124 C5144 0.950 . S
H5125 C5145 0.950 . S
H5126 C5147 0.950 . S
H5127 C5150 0.950 . S
H5128 C5151 0.950 . S
H5129 C5153 0.950 . S
H5130 C5154 0.950 . S
H5131 C5155 0.951 . S
H5132 C5157 0.951 . S
H5133 C5159 0.950 . S
H5134 C5160 0.950 . S
H5135 C5162 0.950 . S
H5136 C5165 0.950 . S
H5137 C5166 0.950 . S
H5138 C5168 0.950 . S
H5139 C5169 0.950 . S
C5140 H5122 0.951 . S
C5140 C5141 1.366 . S
C5140 C5142 1.388 . S
C5141 C5140 1.366 . S
C5141 C5145 1.385 . S
C5142 H5123 0.951 . S
C5142 C5140 1.388 . S
C5142 C5143 1.366 . S
C5143 C5142 1.366 . S
C5143 C5144 1.414 . S
C5143 C5146 1.499 . S
C5144 H5124 0.950 . S
C5144 C5143 1.414 . S
C5144 C5145 1.374 . S
C5145 H5125 0.950 . S
C5145 C5141 1.385 . S
C5145 C5144 1.374 . S
C5146 C5143 1.499 . S
C5146 C5147 1.373 . S
C5146 C5148 1.389 . S
C5147 H5126 0.950 . S
C5147 C5146 1.373 . S
C5147 C5163 1.377 . S
C5148 C5146 1.389 . S
C5148 C5149 1.524 . S
C5148 C5162 1.377 . S
C5149 C5148 1.524 . S
C5149 C5150 1.397 . S
C5149 C5154 1.363 . S
C5150 H5127 0.950 . S
C5150 C5149 1.397 . S
C5150 C5151 1.334 . S
C5151 H5128 0.950 . S
C5151 C5150 1.334 . S
C5151 C5152 1.287 . S
C5152 C5151 1.287 . S
C5152 C5153 1.524 . S
C5152 H5171 0.913 . S
C5153 H5129 0.950 . S
C5153 C5152 1.524 . S
C5153 C5154 1.415 . S
C5154 H5130 0.950 . S
C5154 C5149 1.363 . S
C5154 C5153 1.415 . S
C5155 H5131 0.951 . S
C5155 C5156 1.366 . S
C5155 C5157 1.388 . S
C5156 C5155 1.366 . S
C5156 C5160 1.385 . S
C5157 H5132 0.951 . S
C5157 C5155 1.388 . S
C5157 C5158 1.366 . S
C5158 C5157 1.366 . S
C5158 C5159 1.414 . S
C5158 C5161 1.499 . S
C5159 H5133 0.950 . S
C5159 C5158 1.414 . S
C5159 C5160 1.374 . S
C5160 H5134 0.950 . S
C5160 C5156 1.385 . S
C5160 C5159 1.374 . S
C5161 C5158 1.499 . S
C5161 C5162 1.373 . S
C5161 C5163 1.389 . S
C5162 H5135 0.950 . S
C5162 C5148 1.377 . S
C5162 C5161 1.373 . S
C5163 C5147 1.377 . S
C5163 C5161 1.389 . S
C5163 C5164 1.524 . S
C5164 C5163 1.524 . S
C5164 C5165 1.397 . S
C5164 C5169 1.363 . S
C5165 H5136 0.950 . S
C5165 C5164 1.397 . S
C5165 C5166 1.334 . S
C5166 H5137 0.950 . S
C5166 C5165 1.334 . S
C5166 C5167 1.287 . S
C5167 C5166 1.287 . S
C5167 C5168 1.524 . S
C5167 H5170 0.999 . S
C5168 H5138 0.950 . S
C5168 C5167 1.524 . S
C5168 C5169 1.415 . S
C5169 H5139 0.950 . S
C5169 C5164 1.363 . S
C5169 C5168 1.415 . S
H5170 C5167 0.999 . S
H5171 C5152 0.913 . S
H5172 C5190 0.951 . S
H5173 C5192 0.951 . S
H5174 C5194 0.950 . S
H5175 C5195 0.950 . S
H5176 C5197 0.950 . S
H5177 C5200 0.950 . S
H5178 C5201 0.950 . S
H5179 C5203 0.950 . S
H5180 C5204 0.950 . S
H5181 C5205 0.951 . S
H5182 C5207 0.951 . S
H5183 C5209 0.950 . S
H5184 C5210 0.950 . S
H5185 C5212 0.950 . S
H5186 C5215 0.950 . S
H5187 C5216 0.950 . S
H5188 C5218 0.950 . S
H5189 C5219 0.950 . S
C5190 H5172 0.951 . S
C5190 C5191 1.366 . S
C5190 C5192 1.388 . S
C5191 C5190 1.366 . S
C5191 C5195 1.385 . S
C5192 H5173 0.951 . S
C5192 C5190 1.388 . S
C5192 C5193 1.366 . S
C5193 C5192 1.366 . S
C5193 C5194 1.414 . S
C5193 C5196 1.499 . S
C5194 H5174 0.950 . S
C5194 C5193 1.414 . S
C5194 C5195 1.374 . S
C5195 H5175 0.950 . S
C5195 C5191 1.385 . S
C5195 C5194 1.374 . S
C5196 C5193 1.499 . S
C5196 C5197 1.373 . S
C5196 C5198 1.389 . S
C5197 H5176 0.950 . S
C5197 C5196 1.373 . S
C5197 C5213 1.377 . S
C5198 C5196 1.389 . S
C5198 C5199 1.524 . S
C5198 C5212 1.377 . S
C5199 C5198 1.524 . S
C5199 C5200 1.397 . S
C5199 C5204 1.363 . S
C5200 H5177 0.950 . S
C5200 C5199 1.397 . S
C5200 C5201 1.334 . S
C5201 H5178 0.950 . S
C5201 C5200 1.334 . S
C5201 C5202 1.287 . S
C5202 C5201 1.287 . S
C5202 C5203 1.524 . S
C5202 H5221 0.913 . S
C5203 H5179 0.950 . S
C5203 C5202 1.524 . S
C5203 C5204 1.415 . S
C5204 H5180 0.950 . S
C5204 C5199 1.363 . S
C5204 C5203 1.415 . S
C5205 H5181 0.951 . S
C5205 C5206 1.366 . S
C5205 C5207 1.388 . S
C5206 C5205 1.366 . S
C5206 C5210 1.385 . S
C5207 H5182 0.951 . S
C5207 C5205 1.388 . S
C5207 C5208 1.366 . S
C5208 C5207 1.366 . S
C5208 C5209 1.414 . S
C5208 C5211 1.499 . S
C5209 H5183 0.950 . S
C5209 C5208 1.414 . S
C5209 C5210 1.374 . S
C5210 H5184 0.950 . S
C5210 C5206 1.385 . S
C5210 C5209 1.374 . S
C5211 C5208 1.499 . S
C5211 C5212 1.373 . S
C5211 C5213 1.389 . S
C5212 H5185 0.950 . S
C5212 C5198 1.377 . S
C5212 C5211 1.373 . S
C5213 C5197 1.377 . S
C5213 C5211 1.389 . S
C5213 C5214 1.524 . S
C5214 C5213 1.524 . S
C5214 C5215 1.397 . S
C5214 C5219 1.363 . S
C5215 H5186 0.950 . S
C5215 C5214 1.397 . S
C5215 C5216 1.334 . S
C5216 H5187 0.950 . S
C5216 C5215 1.334 . S
C5216 C5217 1.287 . S
C5217 C5216 1.287 . S
C5217 C5218 1.524 . S
C5217 H5220 0.999 . S
C5218 H5188 0.950 . S
C5218 C5217 1.524 . S
C5218 C5219 1.415 . S
C5219 H5189 0.950 . S
C5219 C5214 1.363 . S
C5219 C5218 1.415 . S
H5220 C5217 0.999 . S
H5221 C5202 0.913 . S
H5222 C5240 0.951 . S
H5223 C5242 0.951 . S
H5224 C5244 0.950 . S
H5225 C5245 0.950 . S
H5226 C5247 0.950 . S
H5227 C5250 0.950 . S
H5228 C5251 0.950 . S
H5229 C5253 0.950 . S
H5230 C5254 0.950 . S
H5231 C5255 0.951 . S
H5232 C5257 0.951 . S
H5233 C5259 0.950 . S
H5234 C5260 0.950 . S
H5235 C5262 0.950 . S
H5236 C5265 0.950 . S
H5237 C5266 0.950 . S
H5238 C5268 0.950 . S
H5239 C5269 0.950 . S
C5240 H5222 0.951 . S
C5240 C5241 1.366 1_556 S
C5240 C5242 1.388 . S
C5241 C5240 1.366 1_554 S
C5241 C5245 1.385 . S
C5242 H5223 0.951 . S
C5242 C5240 1.388 . S
C5242 C5243 1.366 1_556 S
C5243 C5242 1.366 1_554 S
C5243 C5244 1.414 . S
C5243 C5246 1.499 . S
C5244 H5224 0.950 . S
C5244 C5243 1.414 . S
C5244 C5245 1.374 . S
C5245 H5225 0.950 . S
C5245 C5241 1.385 . S
C5245 C5244 1.374 . S
C5246 C5243 1.499 . S
C5246 C5247 1.373 . S
C5246 C5248 1.389 1_554 S
C5247 H5226 0.950 . S
C5247 C5246 1.373 . S
C5247 C5263 1.377 . S
C5248 C5246 1.389 1_556 S
C5248 C5249 1.524 . S
C5248 C5262 1.377 . S
C5249 C5248 1.524 . S
C5249 C5250 1.397 . S
C5249 C5254 1.363 . S
C5250 H5227 0.950 . S
C5250 C5249 1.397 . S
C5250 C5251 1.334 . S
C5251 H5228 0.950 . S
C5251 C5250 1.334 . S
C5251 C5252 1.287 . S
C5252 C5251 1.287 . S
C5252 C5253 1.524 . S
C5252 H5271 0.913 . S
C5253 H5229 0.950 . S
C5253 C5252 1.524 . S
C5253 C5254 1.415 . S
C5254 H5230 0.950 . S
C5254 C5249 1.363 . S
C5254 C5253 1.415 . S
C5255 H5231 0.951 . S
C5255 C5256 1.366 1_554 S
C5255 C5257 1.388 . S
C5256 C5255 1.366 1_556 S
C5256 C5260 1.385 . S
C5257 H5232 0.951 . S
C5257 C5255 1.388 . S
C5257 C5258 1.366 1_554 S
C5258 C5257 1.366 1_556 S
C5258 C5259 1.414 . S
C5258 C5261 1.501 . S
C5259 H5233 0.950 . S
C5259 C5258 1.414 . S
C5259 C5260 1.374 . S
C5260 H5234 0.950 . S
C5260 C5256 1.385 . S
C5260 C5259 1.374 . S
C5261 C5258 1.501 . S
C5261 C5262 1.398 . S
C5261 C5263 1.362 1_556 S
C5262 H5235 0.950 . S
C5262 C5248 1.377 . S
C5262 C5261 1.398 . S
C5263 C5247 1.377 . S
C5263 C5261 1.362 1_554 S
C5263 C5264 1.524 . S
C5264 C5263 1.524 . S
C5264 C5265 1.397 . S
C5264 C5269 1.363 . S
C5265 H5236 0.950 . S
C5265 C5264 1.397 . S
C5265 C5266 1.334 . S
C5266 H5237 0.950 . S
C5266 C5265 1.334 . S
C5266 C5267 1.287 . S
C5267 C5266 1.287 . S
C5267 C5268 1.524 . S
C5267 H5270 0.999 . S
C5268 H5238 0.950 . S
C5268 C5267 1.524 . S
C5268 C5269 1.415 . S
C5269 H5239 0.950 . S
C5269 C5264 1.363 . S
C5269 C5268 1.415 . S
H5270 C5267 0.999 . S
H5271 C5252 0.913 . S
H5272 C5290 0.951 . S
H5273 C5292 0.951 . S
H5274 C5294 0.950 . S
H5275 C5295 0.950 . S
H5276 C5297 0.950 . S
H5277 C5300 0.950 . S
H5278 C5301 0.950 . S
H5279 C5303 0.950 . S
H5280 C5304 0.950 . S
H5281 C5305 0.951 . S
H5282 C5307 0.951 . S
H5283 C5309 0.950 . S
H5284 C5310 0.950 . S
H5285 C5312 0.950 . S
H5286 C5315 0.950 . S
H5287 C5316 0.950 . S
H5288 C5318 0.950 . S
H5289 C5319 0.950 . S
C5290 H5272 0.951 . S
C5290 C5291 1.366 . S
C5290 C5292 1.388 . S
C5291 C5290 1.366 . S
C5291 C5295 1.385 . S
C5292 H5273 0.951 . S
C5292 C5290 1.388 . S
C5292 C5293 1.366 . S
C5293 C5292 1.366 . S
C5293 C5294 1.414 . S
C5293 C5296 1.499 . S
C5294 H5274 0.950 . S
C5294 C5293 1.414 . S
C5294 C5295 1.374 . S
C5295 H5275 0.950 . S
C5295 C5291 1.385 . S
C5295 C5294 1.374 . S
C5296 C5293 1.499 . S
C5296 C5297 1.373 . S
C5296 C5298 1.389 . S
C5297 H5276 0.950 . S
C5297 C5296 1.373 . S
C5297 C5313 1.377 . S
C5298 C5296 1.389 . S
C5298 C5299 1.524 . S
C5298 C5312 1.377 . S
C5299 C5298 1.524 . S
C5299 C5300 1.397 . S
C5299 C5304 1.363 . S
C5300 H5277 0.950 . S
C5300 C5299 1.397 . S
C5300 C5301 1.334 . S
C5301 H5278 0.950 . S
C5301 C5300 1.334 . S
C5301 C5302 1.287 . S
C5302 C5301 1.287 . S
C5302 C5303 1.524 . S
C5302 H5321 0.913 . S
C5303 H5279 0.950 . S
C5303 C5302 1.524 . S
C5303 C5304 1.415 . S
C5304 H5280 0.950 . S
C5304 C5299 1.363 . S
C5304 C5303 1.415 . S
C5305 H5281 0.951 . S
C5305 C5306 1.366 . S
C5305 C5307 1.388 . S
C5306 C5305 1.366 . S
C5306 C5310 1.385 . S
C5307 H5282 0.951 . S
C5307 C5305 1.388 . S
C5307 C5308 1.366 . S
C5308 C5307 1.366 . S
C5308 C5309 1.414 . S
C5308 C5311 1.499 . S
C5309 H5283 0.950 . S
C5309 C5308 1.414 . S
C5309 C5310 1.374 . S
C5310 H5284 0.950 . S
C5310 C5306 1.385 . S
C5310 C5309 1.374 . S
C5311 C5308 1.499 . S
C5311 C5312 1.373 . S
C5311 C5313 1.389 . S
C5312 H5285 0.950 . S
C5312 C5298 1.377 . S
C5312 C5311 1.373 . S
C5313 C5297 1.377 . S
C5313 C5311 1.389 . S
C5313 C5314 1.524 . S
C5314 C5313 1.524 . S
C5314 C5315 1.397 . S
C5314 C5319 1.363 . S
C5315 H5286 0.950 . S
C5315 C5314 1.397 . S
C5315 C5316 1.334 . S
C5316 H5287 0.950 . S
C5316 C5315 1.334 . S
C5316 C5317 1.287 . S
C5317 C5316 1.287 . S
C5317 C5318 1.524 . S
C5317 H5320 0.999 . S
C5318 H5288 0.950 . S
C5318 C5317 1.524 . S
C5318 C5319 1.415 . S
C5319 H5289 0.950 . S
C5319 C5314 1.363 . S
C5319 C5318 1.415 . S
H5320 C5317 0.999 . S
H5321 C5302 0.913 . S
H5322 C5340 0.951 . S
H5323 C5342 0.951 . S
H5324 C5344 0.950 . S
H5325 C5345 0.950 . S
H5326 C5347 0.950 . S
H5327 C5350 0.950 . S
H5328 C5351 0.950 . S
H5329 C5353 0.950 . S
H5330 C5354 0.950 . S
H5331 C5355 0.951 . S
H5332 C5357 0.951 . S
H5333 C5359 0.950 . S
H5334 C5360 0.950 . S
H5335 C5362 0.950 . S
H5336 C5365 0.950 . S
H5337 C5366 0.950 . S
H5338 C5368 0.950 . S
H5339 C5369 0.950 . S
C5340 H5322 0.951 . S
C5340 C5341 1.366 1_556 S
C5340 C5342 1.388 . S
C5341 C5340 1.366 1_554 S
C5341 C5345 1.385 . S
C5342 H5323 0.951 . S
C5342 C5340 1.388 . S
C5342 C5343 1.366 1_556 S
C5343 C5342 1.366 1_554 S
C5343 C5344 1.414 . S
C5343 C5346 1.499 . S
C5344 H5324 0.950 . S
C5344 C5343 1.414 . S
C5344 C5345 1.374 . S
C5345 H5325 0.950 . S
C5345 C5341 1.385 . S
C5345 C5344 1.374 . S
C5346 C5343 1.499 . S
C5346 C5347 1.373 . S
C5346 C5348 1.389 1_554 S
C5347 H5326 0.950 . S
C5347 C5346 1.373 . S
C5347 C5363 1.377 . S
C5348 C5346 1.389 1_556 S
C5348 C5349 1.524 . S
C5348 C5362 1.377 . S
C5349 C5348 1.524 . S
C5349 C5350 1.397 . S
C5349 C5354 1.363 . S
C5350 H5327 0.950 . S
C5350 C5349 1.397 . S
C5350 C5351 1.334 . S
C5351 H5328 0.950 . S
C5351 C5350 1.334 . S
C5351 C5352 1.287 . S
C5352 C5351 1.287 . S
C5352 C5353 1.524 . S
C5352 H5371 0.913 . S
C5353 H5329 0.950 . S
C5353 C5352 1.524 . S
C5353 C5354 1.415 . S
C5354 H5330 0.950 . S
C5354 C5349 1.363 . S
C5354 C5353 1.415 . S
C5355 H5331 0.951 . S
C5355 C5356 1.366 . S
C5355 C5357 1.388 . S
C5356 C5355 1.366 . S
C5356 C5360 1.385 . S
C5357 H5332 0.951 . S
C5357 C5355 1.388 . S
C5357 C5358 1.366 . S
C5358 C5357 1.366 . S
C5358 C5359 1.414 . S
C5358 C5361 1.499 . S
C5359 H5333 0.950 . S
C5359 C5358 1.414 . S
C5359 C5360 1.374 . S
C5360 H5334 0.950 . S
C5360 C5356 1.385 . S
C5360 C5359 1.374 . S
C5361 C5358 1.499 . S
C5361 C5362 1.373 1_554 S
C5361 C5363 1.389 . S
C5362 H5335 0.950 . S
C5362 C5348 1.377 . S
C5362 C5361 1.373 1_556 S
C5363 C5347 1.377 . S
C5363 C5361 1.389 . S
C5363 C5364 1.524 . S
C5364 C5363 1.524 . S
C5364 C5365 1.397 . S
C5364 C5369 1.363 . S
C5365 H5336 0.950 . S
C5365 C5364 1.397 . S
C5365 C5366 1.334 . S
C5366 H5337 0.950 . S
C5366 C5365 1.334 . S
C5366 C5367 1.287 . S
C5367 C5366 1.287 . S
C5367 C5368 1.524 . S
C5367 H5370 0.999 . S
C5368 H5338 0.950 . S
C5368 C5367 1.524 . S
C5368 C5369 1.415 . S
C5369 H5339 0.950 . S
C5369 C5364 1.363 . S
C5369 C5368 1.415 . S
H5370 C5367 0.999 . S
H5371 C5352 0.913 . S
H5372 C5390 0.951 . S
H5373 C5392 0.951 . S
H5374 C5394 0.950 . S
H5375 C5395 0.950 . S
H5376 C5397 0.950 . S
H5377 C5400 0.950 . S
H5378 C5401 0.950 . S
H5379 C5403 0.950 . S
H5380 C5404 0.950 . S
H5381 C5405 0.951 . S
H5382 C5407 0.951 . S
H5383 C5409 0.950 . S
H5384 C5410 0.950 . S
H5385 C5412 0.950 . S
H5386 C5415 0.950 . S
H5387 C5416 0.950 . S
H5388 C5418 0.950 . S
H5389 C5419 0.950 . S
C5390 H5372 0.951 . S
C5390 C5391 1.366 . S
C5390 C5392 1.388 . S
C5391 C5390 1.366 . S
C5391 C5395 1.385 . S
C5392 H5373 0.951 . S
C5392 C5390 1.388 . S
C5392 C5393 1.366 . S
C5393 C5392 1.366 . S
C5393 C5394 1.414 . S
C5393 C5396 1.499 . S
C5394 H5374 0.950 . S
C5394 C5393 1.414 . S
C5394 C5395 1.374 . S
C5395 H5375 0.950 . S
C5395 C5391 1.385 . S
C5395 C5394 1.374 . S
C5396 C5393 1.499 . S
C5396 C5397 1.373 . S
C5396 C5398 1.389 . S
C5397 H5376 0.950 . S
C5397 C5396 1.373 . S
C5397 C5413 1.377 . S
C5398 C5396 1.389 . S
C5398 C5399 1.524 . S
C5398 C5412 1.377 . S
C5399 C5398 1.524 . S
C5399 C5400 1.397 . S
C5399 C5404 1.363 . S
C5400 H5377 0.950 . S
C5400 C5399 1.397 . S
C5400 C5401 1.334 . S
C5401 H5378 0.950 . S
C5401 C5400 1.334 . S
C5401 C5402 1.287 . S
C5402 C5401 1.287 . S
C5402 C5403 1.524 . S
C5402 H5421 0.913 . S
C5403 H5379 0.950 . S
C5403 C5402 1.524 . S
C5403 C5404 1.415 . S
C5404 H5380 0.950 . S
C5404 C5399 1.363 . S
C5404 C5403 1.415 . S
C5405 H5381 0.951 . S
C5405 C5406 1.366 . S
C5405 C5407 1.388 . S
C5406 C5405 1.366 . S
C5406 C5410 1.385 . S
C5407 H5382 0.951 . S
C5407 C5405 1.388 . S
C5407 C5408 1.366 . S
C5408 C5407 1.366 . S
C5408 C5409 1.414 . S
C5408 C5411 1.499 . S
C5409 H5383 0.950 . S
C5409 C5408 1.414 . S
C5409 C5410 1.374 . S
C5410 H5384 0.950 . S
C5410 C5406 1.385 . S
C5410 C5409 1.374 . S
C5411 C5408 1.499 . S
C5411 C5412 1.373 . S
C5411 C5413 1.389 . S
C5412 H5385 0.950 . S
C5412 C5398 1.377 . S
C5412 C5411 1.373 . S
C5413 C5397 1.377 . S
C5413 C5411 1.389 . S
C5413 C5414 1.524 . S
C5414 C5413 1.524 . S
C5414 C5415 1.397 . S
C5414 C5419 1.363 . S
C5415 H5386 0.950 . S
C5415 C5414 1.397 . S
C5415 C5416 1.334 . S
C5416 H5387 0.950 . S
C5416 C5415 1.334 . S
C5416 C5417 1.287 . S
C5417 C5416 1.287 . S
C5417 C5418 1.524 . S
C5417 H5420 0.999 . S
C5418 H5388 0.950 . S
C5418 C5417 1.524 . S
C5418 C5419 1.415 . S
C5419 H5389 0.950 . S
C5419 C5414 1.363 . S
C5419 C5418 1.415 . S
H5420 C5417 0.999 . S
H5421 C5402 0.913 . S
H5422 C5440 0.951 . S
H5423 C5442 0.951 . S
H5424 C5444 0.950 . S
H5425 C5445 0.950 . S
H5426 C5447 0.950 . S
H5427 C5450 0.950 . S
H5428 C5451 0.950 . S
H5429 C5453 0.950 . S
H5430 C5454 0.950 . S
H5431 C5455 0.951 . S
H5432 C5457 0.951 . S
H5433 C5459 0.950 . S
H5434 C5460 0.950 . S
H5435 C5462 0.950 . S
H5436 C5465 0.950 . S
H5437 C5466 0.950 . S
H5438 C5468 0.950 . S
H5439 C5469 0.950 . S
C5440 H5422 0.951 . S
C5440 C5441 1.366 . S
C5440 C5442 1.388 . S
C5441 C5440 1.366 . S
C5441 C5445 1.385 . S
C5442 H5423 0.951 . S
C5442 C5440 1.388 . S
C5442 C5443 1.366 . S
C5443 C5442 1.366 . S
C5443 C5444 1.414 . S
C5443 C5446 1.499 . S
C5444 H5424 0.950 . S
C5444 C5443 1.414 . S
C5444 C5445 1.374 . S
C5445 H5425 0.950 . S
C5445 C5441 1.385 . S
C5445 C5444 1.374 . S
C5446 C5443 1.499 . S
C5446 C5447 1.373 . S
C5446 C5448 1.389 . S
C5447 H5426 0.950 . S
C5447 C5446 1.373 . S
C5447 C5463 1.377 . S
C5448 C5446 1.389 . S
C5448 C5449 1.524 . S
C5448 C5462 1.377 . S
C5449 C5448 1.524 . S
C5449 C5450 1.397 . S
C5449 C5454 1.363 . S
C5450 H5427 0.950 . S
C5450 C5449 1.397 . S
C5450 C5451 1.334 . S
C5451 H5428 0.950 . S
C5451 C5450 1.334 . S
C5451 C5452 1.287 . S
C5452 C5451 1.287 . S
C5452 C5453 1.524 . S
C5452 H5471 0.913 . S
C5453 H5429 0.950 . S
C5453 C5452 1.524 . S
C5453 C5454 1.415 . S
C5454 H5430 0.950 . S
C5454 C5449 1.363 . S
C5454 C5453 1.415 . S
C5455 H5431 0.951 . S
C5455 C5456 1.366 . S
C5455 C5457 1.388 . S
C5456 C5455 1.366 . S
C5456 C5460 1.385 . S
C5457 H5432 0.951 . S
C5457 C5455 1.388 . S
C5457 C5458 1.366 . S
C5458 C5457 1.366 . S
C5458 C5459 1.414 . S
C5458 C5461 1.499 . S
C5459 H5433 0.950 . S
C5459 C5458 1.414 . S
C5459 C5460 1.374 . S
C5460 H5434 0.950 . S
C5460 C5456 1.385 . S
C5460 C5459 1.374 . S
C5461 C5458 1.499 . S
C5461 C5462 1.373 . S
C5461 C5463 1.389 . S
C5462 H5435 0.950 . S
C5462 C5448 1.377 . S
C5462 C5461 1.373 . S
C5463 C5447 1.377 . S
C5463 C5461 1.389 . S
C5463 C5464 1.524 . S
C5464 C5463 1.524 . S
C5464 C5465 1.397 . S
C5464 C5469 1.363 . S
C5465 H5436 0.950 . S
C5465 C5464 1.397 . S
C5465 C5466 1.334 . S
C5466 H5437 0.950 . S
C5466 C5465 1.334 . S
C5466 C5467 1.287 . S
C5467 C5466 1.287 . S
C5467 C5468 1.524 . S
C5467 H5470 0.999 . S
C5468 H5438 0.950 . S
C5468 C5467 1.524 . S
C5468 C5469 1.415 . S
C5469 H5439 0.950 . S
C5469 C5464 1.363 . S
C5469 C5468 1.415 . S
H5470 C5467 0.999 . S
H5471 C5452 0.913 . S
C706 C352 1.209 . S
C691 C5 1.323 . S
C741 C23 1.144 . S
C756 C372 1.113 . S
C791 C39 1.225 . S
C806 C394 1.135 . S
C856 C413 1.289 . S
C841 C42 1.312 . S
C891 C19 1.335 . S
C906 C434 1.306 1_655 S
C956 C457 1.225 . S
C941 C28 1.324 . S
C1006 C480 1.064 . S
C991 C53 1.092 . S
C1041 C9 1.259 . S
C1056 C498 1.219 . S
C1091 C65 1.300 . S
C1106 C354 1.259 . S
C1141 C75 1.334 . S
C1156 C374 1.308 . S
C1206 C396 1.161 . S
C1191 C93 1.193 . S
C1256 C415 1.181 . S
C1241 C109 1.275 . S
C1291 C56 1.352 . S
C1306 C436 1.246 . S
C1356 C459 1.001 . S
C1341 C81 1.024 . S
C1406 C476 1.320 . S
C1391 C84 1.344 . S
C1456 C500 1.228 . S
C1441 C103 1.253 . S
C1506 C350 1.219 . S
C1491 C107 1.240 . S
C1556 C522 1.091 . S
C1541 C121 1.121 . S
C1591 C131 1.355 . S
C1606 C539 1.326 . S
C1656 C562 1.250 . S
C1641 C140 1.354 . S
C1691 C61 1.337 . S
C1706 C496 1.222 . S
C1756 C392 1.280 . S
C1741 C70 1.299 . S
C1791 C137 1.074 . S
C1806 C585 1.047 . S
C1856 C601 1.106 . S
C1841 C165 1.198 . S
C1891 C173 1.243 . S
C1906 C349 1.144 . S
C1956 C602 1.177 . S
C1941 C182 1.200 . S
C1991 C207 1.286 . S
C2006 C391 1.188 . S
C2041 C219 1.132 . S
C2056 C582 1.104 . S
C2106 C435 1.130 . S
C2091 C187 1.164 . S
C2156 C538 1.181 . S
C2141 C205 1.285 . S
C2206 C479 1.196 . S
C2191 C221 1.219 . S
C2256 C623 1.264 . S
C2241 C168 1.289 . S
C2306 C353 1.303 . S
C2291 C224 1.325 1_545 S
C2341 C243 1.128 . S
C2356 C606 1.098 . S
C2406 C395 1.212 1_545 S
C2391 C252 1.242 . S
C2441 C277 1.171 . S
C2456 C580 1.092 . S
C2491 C233 1.325 . S
C2506 C433 1.213 . S
C2541 C249 1.190 . S
C2556 C542 1.166 . S
C2606 C477 1.139 . S
C2591 C261 1.170 . S
C2641 C271 1.194 . S
C2656 C627 1.159 . S
C2691 C266 1.172 . S
C2706 C351 1.142 . S
C2741 C280 1.257 . S
C2756 C521 1.231 . S
C2791 C299 1.176 . S
C2806 C456 1.142 . S
C2841 C317 1.258 . S
C2856 C559 1.163 . S
C2906 C625 1.153 . S
C2891 C229 1.254 . S
C2956 C393 1.095 . S
C2941 C247 1.126 . S
C3006 C416 1.183 . S
C2991 C305 1.204 . S
C3056 C373 1.170 . S
C3041 C333 1.271 . S
C3091 C33 1.323 . S
C3106 C646 1.210 . S
C3156 C603 1.113 . S
C3141 C51 1.144 . S
C3206 C667 1.134 . S
C3191 C11 1.225 . S
C3241 C14 1.312 . S
C3256 C581 1.289 . S
C3291 C47 1.335 . S
C3306 C518 1.306 . S
C3356 C541 1.225 . S
C3341 C0 1.324 . S
C3406 C564 1.063 . S
C3391 C25 1.091 . S
C3456 C624 1.218 . S
C3441 C37 1.259 . S
C3506 C648 1.260 . S
C3491 C163 1.299 . S
C3541 C117 1.334 . S
C3556 C605 1.308 . S
C3591 C135 1.192 . S
C3606 C669 1.162 . S
C3656 C583 1.183 . S
C3641 C151 1.275 . S
C3706 C520 1.245 . S
C3691 C154 1.353 . S
C3741 C123 1.024 . S
C3756 C543 1.000 . S
C3806 C560 1.319 . S
C3791 C126 1.344 . S
C3841 C145 1.253 . S
C3856 C626 1.228 . S
C3906 C644 1.217 . S
C3891 C149 1.240 . S
C3956 C438 1.091 . S
C3941 C79 1.121 . S
C4006 C455 1.326 . S
C3991 C89 1.355 . S
C4041 C98 1.354 . S
C4056 C478 1.251 . S
C4106 C622 1.220 . S
C4091 C159 1.337 . S
C4141 C112 1.299 . S
C4156 C665 1.280 . S
C4206 C417 1.047 . S
C4191 C95 1.074 . S
C4256 C370 1.108 . S
C4241 C67 1.198 . S
C4291 C201 1.243 . S
C4306 C643 1.144 . S
C4356 C371 1.177 . S
C4341 C210 1.200 . S
C4406 C664 1.186 . S
C4391 C179 1.286 . S
C4441 C191 1.131 . S
C4456 C414 1.102 . S
C4491 C215 1.164 . S
C4506 C519 1.130 . S
C4541 C177 1.284 . S
C4556 C454 1.179 . S
C4591 C193 1.220 . S
C4606 C563 1.197 . S
C4641 C196 1.289 . S
C4656 C497 1.264 . S
C4706 C647 1.302 . S
C4691 C322 1.328 . S
C4741 C285 1.128 . S
C4756 C375 1.097 . S
C4806 C668 1.217 . S
C4791 C294 1.242 . S
C4841 C319 1.171 . S
C4856 C412 1.091 . S
C4891 C331 1.324 . S
C4906 C517 1.214 . S
C4956 C458 1.165 . S
C4941 C291 1.190 . S
C4991 C303 1.170 . S
C5006 C561 1.139 . S
C5056 C501 1.160 . S
C5041 C313 1.194 . S
C5106 C645 1.142 . S
C5091 C308 1.172 . S
C5156 C437 1.230 . S
C5141 C238 1.257 . S
C5191 C257 1.176 . S
C5206 C540 1.142 . S
C5256 C475 1.163 . S
C5241 C275 1.258 . S
C5306 C499 1.153 . S
C5291 C327 1.254 . S
C5341 C289 1.128 . S
C5356 C666 1.095 . S
C5406 C584 1.182 . S
C5391 C263 1.204 . S
C5456 C604 1.170 . S
C5441 C235 1.271 . S
