# Generated by pormake.
# Topology tsx, (6,3)-cn, num edge types: 1
# Building blocks:
#     Node 0, Type 0, BuildingBlock: MIDCAF_clean_sbu_0, # of connection points: 6
#     Node 1, Type 0, BuildingBlock: MIDCAF_clean_sbu_0, # of connection points: 6
#     Node 2, Type 1, BuildingBlock: WUSLED_clean_sbu_0, # of connection points: 3
#     Node 3, Type 1, BuildingBlock: WUSLED_clean_sbu_0, # of connection points: 3
#     Node 4, Type 1, BuildingBlock: WUSLED_clean_sbu_0, # of connection points: 3
#     Node 5, Type 1, BuildingBlock: WUSLED_clean_sbu_0, # of connection points: 3
#     Edge 6, Type (0, 1), BuildingBlock: ZUJKAS_clean_linker_0, # of connection points: 2
#     Edge 7, Type (0, 1), BuildingBlock: ZUJKAS_clean_linker_0, # of connection points: 2
#     Edge 8, Type (0, 1), BuildingBlock: ZUJKAS_clean_linker_0, # of connection points: 2
#     Edge 9, Type (0, 1), BuildingBlock: ZUJKAS_clean_linker_0, # of connection points: 2
#     Edge 10, Type (0, 1), BuildingBlock: ZUJKAS_clean_linker_0, # of connection points: 2
#     Edge 11, Type (0, 1), BuildingBlock: ZUJKAS_clean_linker_0, # of connection points: 2
#     Edge 12, Type (0, 1), BuildingBlock: ZUJKAS_clean_linker_0, # of connection points: 2
#     Edge 13, Type (0, 1), BuildingBlock: ZUJKAS_clean_linker_0, # of connection points: 2
#     Edge 14, Type (0, 1), BuildingBlock: ZUJKAS_clean_linker_0, # of connection points: 2
#     Edge 15, Type (0, 1), BuildingBlock: ZUJKAS_clean_linker_0, # of connection points: 2
#     Edge 16, Type (0, 1), BuildingBlock: ZUJKAS_clean_linker_0, # of connection points: 2
#     Edge 17, Type (0, 1), BuildingBlock: ZUJKAS_clean_linker_0, # of connection points: 2
# Relax obj value: 0.113
# Max RMSD: 0.180
# Mean RMSD: 0.108
data_MOF--net-tsx--node1-MIDCAF_clean_sbu_0--node2-WUSLED_clean_sbu_0--edge1-ZUJKAS_clean_linker_0
_symmetry_space_group_name_H-M    P1
_symmetry_Int_Tables_number       1
_symmetry_cell_setting            triclinic
loop_
_symmetry_equiv_pos_as_xyz
'x, y, z'
_cell_length_a     30.810243
_cell_length_b     32.279705
_cell_length_c     60.880453
_cell_angle_alpha  90.694962
_cell_angle_beta   94.457248
_cell_angle_gamma 90.025767
loop_
_atom_site_label
_atom_site_type_symbol
_atom_site_fract_x
_atom_site_fract_y
_atom_site_fract_z
_atom_type_partial_charge
Zn0 Zn 0.98152 0.02884 0.98859 0.0
Zn1 Zn 0.12489 0.01256 0.03294 0.0
Zn2 Zn 0.05436 0.02408 0.00975 0.0
C3 C 0.1223 0.09659 0.02147 0.0
C4 C 0.13135 0.96151 0.99739 0.0
O5 O 1.00462 0.98789 0.02681 0.0
O6 O 0.94876 0.98422 1.00185 0.0
C7 C 1.0012 0.10848 0.00281 0.0
O8 O 0.08232 0.0872 0.01568 0.0
O9 O 0.14884 0.06849 0.0277 0.0
O10 O 0.14762 0.96485 0.01697 0.0
O11 O 0.09828 0.98389 0.99072 0.0
O12 O 0.96838 0.08618 0.99742 0.0
O13 O 0.03908 0.09165 0.00622 0.0
O14 O 0.0627 0.99639 0.97691 0.0
O15 O 1.00292 0.01992 0.95888 0.0
C16 C 0.03937 1.00215 0.9587 0.0
O17 O 0.03902 0.99784 0.04191 0.0
O18 O 0.10208 1.00165 0.06173 0.0
C19 C 0.96662 0.97341 0.02024 0.0
C20 C 0.06174 0.99432 0.06052 0.0
Zn21 Zn 0.62553 0.52832 0.53718 0.0
Zn22 Zn 0.47735 0.5254 0.48826 0.0
Zn23 Zn 0.5522 0.5305 0.51216 0.0
C24 C 0.54105 0.49459 0.46215 0.0
C25 C 0.49344 0.60977 0.4984 0.0
O26 O 0.54043 0.50175 0.54426 0.0
O27 O 0.60501 0.49923 0.56281 0.0
C28 C 0.64229 0.48568 0.49918 0.0
O29 O 0.56493 0.50148 0.48016 0.0
O30 O 0.50087 0.50282 0.46107 0.0
O31 O 0.46422 0.58527 0.49044 0.0
O32 O 0.53045 0.59571 0.50643 0.0
O33 O 0.66186 0.49778 0.51709 0.0
O34 O 0.6019 0.49512 0.49464 0.0
O35 O 0.5722 0.59648 0.51805 0.0
O36 O 0.63246 0.58904 0.53995 0.0
C37 C 0.60507 0.61224 0.52969 0.0
O38 O 0.50402 0.49283 0.52951 0.0
O39 O 0.44517 0.48788 0.50639 0.0
C40 C 0.56455 0.49258 0.56183 0.0
C41 C 0.46521 0.47865 0.52452 0.0
C42 C 0.99426 0.10904 0.42862 0.0
C43 C 0.96988 0.12603 0.41047 0.0
C44 C 0.92773 0.1672 0.43497 0.0
C45 C 0.93707 0.15493 0.41361 0.0
C46 C 0.95184 0.14958 0.45314 0.0
C47 C 0.9849 0.12081 0.44996 0.0
U48 U 0.04799 0.03868 0.3895 0.0
O49 O 0.11669 0.02859 0.3832 0.0
O50 O 0.07652 0.97636 0.39255 0.0
C51 C 0.11529 0.98899 0.38786 0.0
C52 C 0.02932 0.0792 0.42512 0.0
C53 C 0.15299 0.97216 0.40125 0.0
C54 C 0.18994 0.95144 0.43619 0.0
C55 C 0.15442 0.97016 0.42432 0.0
C56 C 0.223 0.93737 0.40207 0.0
C57 C 0.22457 0.93451 0.42517 0.0
C58 C 0.18767 0.956 0.39031 0.0
C59 C 0.9946 0.03572 0.3305 0.0
C60 C 0.02873 1.00585 0.29937 0.0
C61 C 0.95472 0.03149 0.29456 0.0
C62 C 0.9566 0.04256 0.31688 0.0
C63 C 0.99096 0.01351 0.28548 0.0
C64 C 0.0305 0.01679 0.32173 0.0
C65 C 0.9967 0.04989 0.35356 0.0
O66 O 1.01637 0.04096 0.42075 0.0
O67 O 0.05843 0.09207 0.41205 0.0
O68 O 0.02959 0.07439 0.35975 0.0
O69 O 0.98964 0.02145 0.36813 0.0
H70 H 0.97638 0.11705 0.39384 0.0
H71 H 0.91878 0.16745 0.39929 0.0
H72 H 0.94574 0.15866 0.4698 0.0
H73 H 1.00332 0.10797 0.46416 0.0
H74 H 0.19023 0.95012 0.45396 0.0
H75 H 0.12793 0.98255 0.43309 0.0
H76 H 0.24848 0.92406 0.39293 0.0
H77 H 0.18703 0.95702 0.37249 0.0
H78 H 0.057 0.9916 0.29293 0.0
H79 H 0.92536 0.03823 0.28427 0.0
H80 H 0.92862 0.05721 0.32342 0.0
H81 H 0.06006 0.01109 0.33208 0.0
C82 C 0.97108 0.98933 0.58452 0.0
C83 C 0.95672 0.9581 0.59806 0.0
C84 C 0.89972 0.93835 0.56982 0.0
C85 C 0.92147 0.93286 0.59079 0.0
C86 C 0.91407 0.96997 0.55636 0.0
C87 C 0.9495 0.99519 0.56366 0.0
U88 U 0.05291 0.02235 0.63071 0.0
O89 O 0.12262 0.03747 0.63183 0.0
O90 O 0.07622 0.08399 0.6424 0.0
C91 C 0.11685 0.07567 0.63879 0.0
C92 C 1.00802 0.01605 0.59236 0.0
C93 C 0.14178 0.10879 0.62886 0.0
C94 C 0.18734 0.13398 0.60089 0.0
C95 C 0.15957 0.1037 0.60842 0.0
C96 C 0.17888 0.17518 0.63377 0.0
C97 C 0.19794 0.16977 0.61368 0.0
C98 C 0.15122 0.14502 0.64125 0.0
C99 C 0.04761 0.96885 0.68594 0.0
C100 C 0.0892 0.99344 0.71907 0.0
C101 C 0.04367 0.93241 0.72038 0.0
C102 C 0.03143 0.93623 0.69789 0.0
C103 C 0.07224 0.96131 0.73131 0.0
C104 C 0.07703 0.99714 0.69656 0.0
C105 C 0.03224 0.97398 0.66268 0.0
O106 O 0.99936 0.04353 0.60751 0.0
O107 O 0.04508 0.99665 0.59697 0.0
O108 O 0.05987 0.96315 0.64826 0.0
O109 O 1.01263 0.00929 0.65805 0.0
H110 H 0.97276 0.95332 0.61431 0.0
H111 H 0.91092 0.90931 0.60173 0.0
H112 H 0.89835 0.97482 0.54007 0.0
H113 H 0.96007 0.01923 0.553 0.0
H114 H 0.20161 0.1287 0.5854 0.0
H115 H 0.15296 0.07595 0.59855 0.0
H116 H 0.1856 0.20266 0.64385 0.0
H117 H 0.13798 0.14957 0.65709 0.0
H118 H 0.11164 0.01591 0.72693 0.0
H119 H 0.0296 0.90764 0.72935 0.0
H120 H 1.00861 0.91418 0.68993 0.0
H121 H 0.08997 0.02245 0.68751 0.0
C122 C 0.5046 0.61039 0.92832 0.0
C123 C 0.47868 0.62323 0.90966 0.0
C124 C 0.43754 0.66902 0.93243 0.0
C125 C 0.44556 0.65232 0.91168 0.0
C126 C 0.46353 0.65584 0.95111 0.0
C127 C 0.4968 0.62681 0.94905 0.0
U128 U 0.55996 0.53491 0.89221 0.0
O129 O 0.62903 0.52238 0.88792 0.0
O130 O 0.58665 0.47236 0.89782 0.0
C131 C 0.62653 0.48372 0.89432 0.0
C132 C 0.53951 0.57985 0.92606 0.0
C133 C 0.66234 0.46797 0.90975 0.0
C134 C 0.73824 0.47058 0.92455 0.0
C135 C 0.70261 0.48872 0.9126 0.0
C136 C 0.69392 0.41102 0.93154 0.0
C137 C 0.73456 0.43116 0.93385 0.0
C138 C 0.65837 0.4291 0.91958 0.0
C139 C 0.50962 0.52586 0.83256 0.0
C140 C 0.54373 0.49105 0.80281 0.0
C141 C 0.47129 0.51981 0.7963 0.0
C142 C 0.47263 0.53306 0.81827 0.0
C143 C 0.50706 0.49915 0.78822 0.0
C144 C 0.54498 0.50425 0.82483 0.0
C145 C 0.51122 0.54262 0.85514 0.0
O146 O 0.52626 0.54142 0.92268 0.0
O147 O 0.56939 0.5909 0.91299 0.0
O148 O 0.54452 0.56689 0.86094 0.0
O149 O 0.50259 0.51627 0.87049 0.0
H150 H 0.48407 0.61067 0.89351 0.0
H151 H 0.42583 0.6613 0.89701 0.0
H152 H 0.45853 0.66838 0.9673 0.0
H153 H 0.5165 0.61726 0.96362 0.0
H154 H 0.7689 0.48716 0.92618 0.0
H155 H 0.7071 0.51846 0.90504 0.0
H156 H 0.68998 0.38036 0.93814 0.0
H157 H 0.62815 0.41185 0.91737 0.0
H158 H 0.57161 0.47482 0.79714 0.0
H159 H 0.44282 0.52705 0.78547 0.0
H160 H 0.44509 0.54978 0.824 0.0
H161 H 0.57375 0.49827 0.83572 0.0
C162 C 0.47192 0.48791 0.0879 0.0
C163 C 0.4533 0.46206 0.10299 0.0
C164 C 0.4002 0.43661 0.07415 0.0
C165 C 0.41783 0.4367 0.0962 0.0
C166 C 0.41863 0.46309 0.05916 0.0
C167 C 0.45424 0.48846 0.06599 0.0
U168 U 0.55434 0.52241 0.13344 0.0
O169 O 0.58232 0.58332 0.14295 0.0
O170 O 0.62532 0.53213 0.13457 0.0
C171 C 0.62239 0.57141 0.14019 0.0
C172 C 0.51006 0.51367 0.09505 0.0
C173 C 0.65043 0.60066 0.12937 0.0
C174 C 0.66166 0.65626 0.10374 0.0
C175 C 0.63442 0.62649 0.1122 0.0
C176 C 0.72117 0.63397 0.12917 0.0
C177 C 0.70522 0.66076 0.11239 0.0
C178 C 0.69407 0.60432 0.13754 0.0
C179 C 0.54426 0.47517 0.19017 0.0
C180 C 0.58172 0.50169 0.22406 0.0
C181 C 0.54328 0.43619 0.22397 0.0
C182 C 0.53144 0.44027 0.20148 0.0
C183 C 0.5681 0.4671 0.23564 0.0
C184 C 0.56997 0.50565 0.20151 0.0
C185 C 0.52979 0.47957 0.16672 0.0
O186 O 0.50269 0.54358 0.10913 0.0
O187 O 0.54586 0.4929 0.10061 0.0
O188 O 0.55654 0.46503 0.15273 0.0
O189 O 0.51315 0.51574 0.16107 0.0
H190 H 0.4664 0.46134 0.12002 0.0
H191 H 0.40411 0.41723 0.10827 0.0
H192 H 0.40619 0.46352 0.04203 0.0
H193 H 0.46823 0.50818 0.05411 0.0
H194 H 0.64827 0.67653 0.09089 0.0
H195 H 0.60078 0.62423 0.10566 0.0
H196 H 0.75468 0.636 0.13594 0.0
H197 H 0.70707 0.58465 0.15077 0.0
H198 H 0.60045 0.52629 0.23254 0.0
H199 H 0.53287 0.40881 0.23224 0.0
H200 H 0.51185 0.4163 0.19293 0.0
H201 H 0.58033 0.53278 0.193 0.0
H202 H 0.20296 0.12048 0.01277 0.0
H203 H 0.23606 0.18864 0.0182 0.0
H204 H 0.11333 0.23875 0.03551 0.0
H205 H 0.07995 0.16952 0.03051 0.0
H206 H 0.21921 0.26668 1.00056 0.0
H207 H 0.19649 0.26292 0.09043 0.0
H208 H 0.18802 0.21772 0.07291 0.0
H209 H 0.14846 0.25859 0.07177 0.0
C210 C 0.18274 0.14608 0.01744 0.0
C211 C 0.13886 0.13964 0.02128 0.0
C212 C 0.20172 0.18512 0.02046 0.0
C213 C 0.17744 0.21875 0.02756 0.0
C214 C 0.13286 0.2131 0.0303 0.0
H215 H 0.32818 0.45269 0.04589 0.0
H216 H 0.26862 0.40517 0.03387 0.0
C217 C 0.11367 0.17371 0.02718 0.0
C218 C 0.2006 0.25823 0.03355 0.0
H219 H 0.2408 0.31539 0.0782 0.0
C220 C 0.22328 0.27795 0.01745 0.0
C221 C 0.20629 0.27251 0.05566 0.0
C222 C 0.18385 0.25185 0.0738 0.0
C223 C 0.25302 0.31018 0.02302 0.0
C224 C 0.25978 0.32351 0.04526 0.0
C225 C 0.23554 0.30515 0.06117 0.0
C226 C 0.2949 0.3533 0.05275 0.0
C227 C 0.27888 0.32793 0.00528 0.0
C228 C 0.32905 0.34029 0.06768 0.0
C229 C 0.36298 0.36732 0.0746 0.0
C230 C 0.36357 0.40816 0.06681 0.0
C231 C 0.32909 0.4213 0.05197 0.0
C232 C 0.29499 0.39418 0.04509 0.0
H233 H 0.27571 0.30894 0.98989 0.0
H234 H 0.26693 0.35958 1.0013 0.0
H235 H 0.3139 0.33024 0.01103 0.0
H236 H 0.32979 0.30887 0.07376 0.0
H237 H 0.38921 0.35591 0.08577 0.0
H238 H 0.16381 0.97341 0.95725 0.0
H239 H 0.20849 0.92397 0.93762 0.0
H240 H 0.18966 0.83232 0.98701 0.0
H241 H 0.1451 0.88113 0.00627 0.0
H242 H 0.28558 0.8913 0.95653 0.0
H243 H 0.17317 0.76337 0.93083 0.0
H244 H 0.15416 0.81431 0.93807 0.0
H245 H 0.16944 0.77736 0.95921 0.0
C246 C 0.16812 0.94219 0.96337 0.0
C247 C 0.15057 0.93066 0.98301 0.0
C248 C 0.19378 0.91411 0.95228 0.0
C249 C 0.20191 0.87417 0.96066 0.0
C250 C 0.18299 0.86245 0.97988 0.0
H251 H 0.37893 0.6732 0.96399 0.0
H252 H 0.32145 0.72454 0.96773 0.0
C253 C 0.15769 0.89042 0.99094 0.0
C254 C 0.23421 0.84621 0.95127 0.0
H255 H 0.2496 0.74535 0.93611 0.0
C256 C 0.27761 0.85966 0.95154 0.0
C257 C 0.2238 0.80489 0.94484 0.0
C258 C 0.1775 0.78927 0.943 0.0
C259 C 0.31121 0.8322 0.94693 0.0
C260 C 0.30103 0.79033 0.94166 0.0
C261 C 0.2574 0.77738 0.94035 0.0
C262 C 0.33546 0.75897 0.93885 0.0
C263 C 0.35762 0.84759 0.94891 0.0
C264 C 0.36219 0.76111 0.92126 0.0
C265 C 0.39523 0.7319 0.91913 0.0
C266 C 0.40217 0.69995 0.93456 0.0
C267 C 0.37494 0.69772 0.95202 0.0
C268 C 0.34184 0.72683 0.95408 0.0
H269 H 0.36065 0.87878 0.95682 0.0
H270 H 0.37899 0.82573 0.95866 0.0
H271 H 0.36963 0.84956 0.93224 0.0
H272 H 0.35753 0.7854 0.90919 0.0
H273 H 0.41577 0.7347 0.90557 0.0
H274 H 1.00062 0.91816 0.05119 0.0
H275 H 0.96043 0.86587 0.07058 0.0
H276 H 0.83982 0.90908 0.03811 0.0
H277 H 0.87936 0.96149 0.01913 0.0
H278 H 0.83592 0.89349 0.08385 0.0
H279 H 0.9054 0.76155 0.03848 0.0
H280 H 0.94365 0.79669 0.05264 0.0
H281 H 0.90922 0.81447 0.02955 0.0
C282 C 0.96549 0.91696 0.04853 0.0
C283 C 0.94317 0.94401 0.03366 0.0
C284 C 0.94262 0.88681 0.05942 0.0
C285 C 0.89716 0.88327 0.05556 0.0
C286 C 0.87485 0.91116 0.04129 0.0
H287 H 0.71308 0.68549 0.06984 0.0
H288 H 0.76071 0.7397 0.05717 0.0
C289 C 0.89757 0.94103 0.0304 0.0
C290 C 0.87236 0.8499 0.06562 0.0
H291 H 0.85381 0.74545 0.06367 0.0
C292 C 0.8401 0.86107 0.07963 0.0
C293 C 0.87743 0.8077 0.05978 0.0
C294 C 0.91053 0.79414 0.04417 0.0
C295 C 0.81252 0.83123 0.08784 0.0
C296 C 0.81759 0.78903 0.08201 0.0
C297 C 0.85009 0.7778 0.06814 0.0
C298 C 0.78881 0.75621 0.08978 0.0
C299 C 0.77725 0.84524 0.1021 0.0
C300 C 0.789 0.74735 0.11228 0.0
C301 C 0.76177 0.71656 0.11956 0.0
C302 C 0.73382 0.6938 0.10448 0.0
C303 C 0.73381 0.7027 0.08191 0.0
C304 C 0.76122 0.73346 0.07463 0.0
H305 H 0.7715 0.87916 0.10102 0.0
H306 H 0.74619 0.82884 0.09732 0.0
H307 H 0.78707 0.83786 0.11953 0.0
H308 H 0.81037 0.76417 0.12423 0.0
H309 H 0.76232 0.71085 0.13707 0.0
H310 H 0.9375 0.14817 0.02229 0.0
H311 H 0.91034 0.21762 0.01407 0.0
H312 H 0.01992 0.24019 0.97584 0.0
H313 H 0.04707 0.16978 0.98391 0.0
H314 H 0.93865 0.30024 0.01698 0.0
H315 H 0.91489 0.24328 0.93006 0.0
H316 H 0.92985 0.20902 0.95256 0.0
H317 H 0.96963 0.24336 0.94264 0.0
C318 C 0.95663 0.16846 0.01276 0.0
C319 C 0.99423 0.15366 0.00364 0.0
C320 C 0.94104 0.20816 0.00805 0.0
C321 C 0.9625 0.23379 0.99393 0.0
C322 C 1.00243 0.22061 0.98647 0.0
H323 H 0.81792 0.42958 0.92094 0.0
H324 H 0.87974 0.38934 0.93667 0.0
C325 C 0.01822 0.18064 0.99129 0.0
C326 C 0.93943 0.27117 0.985 0.0
H327 H 0.88194 0.30583 0.93857 0.0
C328 C 0.92692 0.30194 0.99975 0.0
C329 C 0.92388 0.27328 0.96252 0.0
C330 C 0.93487 0.24045 0.94597 0.0
C331 C 0.89814 0.33385 0.9928 0.0
C332 C 0.8808 0.33461 0.97058 0.0
C333 C 0.89516 0.30519 0.95561 0.0
C334 C 0.84508 0.36319 0.9628 0.0
C335 C 0.88603 0.36601 0.00941 0.0
C336 C 0.80498 0.36218 0.97231 0.0
C337 C 0.7696 0.38535 0.96343 0.0
C338 C 0.77338 0.40984 0.9447 0.0
C339 C 0.81393 0.41159 0.93555 0.0
C340 C 0.84931 0.38839 0.94445 0.0
H341 H 0.91211 0.36971 0.02296 0.0
H342 H 0.87972 0.39655 1.0016 0.0
H343 H 0.85603 0.35595 0.01683 0.0
H344 H 0.8005 0.34228 0.98615 0.0
H345 H 0.73903 0.38348 0.97101 0.0
H346 H 0.60678 0.66595 0.49535 0.0
H347 H 0.64315 0.73389 0.49665 0.0
H348 H 0.66514 0.72494 0.56728 0.0
H349 H 0.62786 0.65816 0.56601 0.0
H350 H 0.65063 0.806 0.55388 0.0
H351 H 0.77571 0.72802 0.5066 0.0
H352 H 0.72157 0.73021 0.49339 0.0
H353 H 0.73213 0.69975 0.51772 0.0
C354 C 0.61736 0.67962 0.51118 0.0
C355 C 0.61414 0.65714 0.53059 0.0
C356 C 0.63889 0.71803 0.51191 0.0
C357 C 0.65775 0.73409 0.53204 0.0
C358 C 0.65102 0.71322 0.55156 0.0
H359 H 0.8927 0.85462 0.57502 0.0
H360 H 0.83108 0.80972 0.56355 0.0
C361 C 0.62963 0.67507 0.55083 0.0
C362 C 0.68908 0.7693 0.53296 0.0
H363 H 0.79253 0.79399 0.52105 0.0
C364 C 0.68135 0.80384 0.54636 0.0
C365 C 0.72949 0.76606 0.52342 0.0
C366 C 0.74061 0.72896 0.5096 0.0
C367 C 0.71343 0.83438 0.55114 0.0
C368 C 0.75415 0.83053 0.54204 0.0
C369 C 0.76123 0.79691 0.52794 0.0
C370 C 0.79133 0.8586 0.54861 0.0
C371 C 0.70443 0.86925 0.56687 0.0
C372 C 0.78974 0.90105 0.54383 0.0
C373 C 0.82499 0.92697 0.55051 0.0
C374 C 0.8625 0.9109 0.56209 0.0
C375 C 0.86411 0.86822 0.5665 0.0
C376 C 0.829 0.84242 0.5598 0.0
H377 H 0.67445 0.86374 0.57545 0.0
H378 H 0.73224 0.87348 0.57944 0.0
H379 H 0.70018 0.89852 0.55758 0.0
H380 H 0.76129 0.91413 0.53493 0.0
H381 H 0.82255 0.9597 0.54693 0.0
H382 H 0.72734 0.49039 0.49135 0.0
H383 H 0.77087 0.4373 0.47455 0.0
H384 H 0.65522 0.3639 0.45905 0.0
H385 H 0.61122 0.41789 0.47536 0.0
H386 H 0.77843 0.36238 0.49215 0.0
H387 H 0.71939 0.34588 0.40403 0.0
H388 H 0.70653 0.39033 0.42061 0.0
H389 H 0.67725 0.34256 0.42271 0.0
C390 C 0.71102 0.4635 0.48375 0.0
C391 C 0.66598 0.45816 0.48468 0.0
C392 C 0.73592 0.43312 0.4742 0.0
C393 C 0.71646 0.39647 0.46557 0.0
C394 C 0.67097 0.39214 0.46526 0.0
H395 H 0.86545 0.16644 0.46476 0.0
H396 H 0.81142 0.21997 0.47114 0.0
C397 C 0.64583 0.42296 0.47461 0.0
C398 C 0.74466 0.36119 0.4598 0.0
H399 H 0.76779 0.29355 0.41867 0.0
C400 C 0.77612 0.34747 0.47603 0.0
C401 C 0.74176 0.34174 0.43878 0.0
C402 C 0.70971 0.35606 0.42045 0.0
C403 C 0.8049 0.3152 0.47187 0.0
C404 C 0.80148 0.29507 0.45104 0.0
C405 C 0.77007 0.30872 0.43472 0.0
C406 C 0.8314 0.2608 0.44583 0.0
C407 C 0.8395 0.30376 0.4897 0.0
C408 C 0.85958 0.26523 0.42897 0.0
C409 C 0.89036 0.23458 0.42523 0.0
C410 C 0.89357 0.19883 0.43828 0.0
C411 C 0.86439 0.19393 0.45471 0.0
C412 C 0.83343 0.22447 0.45834 0.0
H413 H 0.84495 0.32891 0.50224 0.0
H414 H 0.82902 0.2757 0.49822 0.0
H415 H 0.87092 0.29686 0.48265 0.0
H416 H 0.85863 0.29299 0.41912 0.0
H417 H 0.9125 0.23945 0.41253 0.0
H418 H 0.50191 0.41774 0.55114 0.0
H419 H 0.46313 0.36526 0.57111 0.0
H420 H 0.34064 0.42178 0.54945 0.0
H421 H 0.37908 0.47452 0.53007 0.0
H422 H 0.34462 0.39659 0.59341 0.0
H423 H 0.39502 0.27132 0.53719 0.0
H424 H 0.43824 0.30067 0.55154 0.0
H425 H 0.40183 0.32551 0.53135 0.0
C426 C 0.46683 0.41954 0.55118 0.0
C427 C 0.44351 0.45034 0.53917 0.0
C428 C 0.44467 0.38926 0.56233 0.0
C429 C 0.39891 0.38923 0.56147 0.0
C430 C 0.37589 0.42109 0.5503 0.0
H431 H 0.2055 0.19972 0.57208 0.0
H432 H 0.25675 0.25194 0.56077 0.0
C433 C 0.39791 0.45116 0.53919 0.0
C434 C 0.37425 0.35516 0.57103 0.0
H435 H 0.34805 0.25266 0.5641 0.0
C436 C 0.3457 0.365 0.5872 0.0
C437 C 0.37519 0.31412 0.56261 0.0
C438 C 0.40391 0.30209 0.5446 0.0
C439 C 0.31762 0.33511 0.59496 0.0
C440 C 0.31853 0.29407 0.58653 0.0
C441 C 0.34753 0.28408 0.57059 0.0
C442 C 0.28845 0.26149 0.59342 0.0
C443 C 0.28602 0.34813 0.61148 0.0
C444 C 0.28972 0.24897 0.61544 0.0
C445 C 0.26054 0.21912 0.62194 0.0
C446 C 0.22955 0.20092 0.60652 0.0
C447 C 0.22903 0.21288 0.58435 0.0
C448 C 0.25823 0.24282 0.57788 0.0
H449 H 0.28236 0.38234 0.61233 0.0
H450 H 0.25346 0.33409 0.60732 0.0
H451 H 0.29816 0.33734 0.62806 0.0
H452 H 0.3134 0.26221 0.62762 0.0
H453 H 0.26255 0.21 0.63904 0.0
H454 H 0.42564 0.64496 0.51657 0.0
H455 H 0.39413 0.71285 0.50815 0.0
H456 H 0.50338 0.74231 0.47091 0.0
H457 H 0.53438 0.67339 0.47888 0.0
H458 H 0.41711 0.79598 0.51223 0.0
H459 H 0.40055 0.74368 0.42447 0.0
H460 H 0.41685 0.70906 0.4466 0.0
H461 H 0.45509 0.74566 0.43723 0.0
C462 C 0.44364 0.6665 0.5072 0.0
C463 C 0.48266 0.65424 0.49857 0.0
C464 C 0.42558 0.70527 0.50236 0.0
C465 C 0.44592 0.73243 0.48856 0.0
C466 C 0.48679 0.7216 0.48135 0.0
H467 H 0.31133 0.93605 0.41764 0.0
H468 H 0.36967 0.89274 0.43441 0.0
C469 C 0.50494 0.68257 0.48622 0.0
C470 C 0.42144 0.76926 0.47989 0.0
H471 H 0.36794 0.80663 0.43298 0.0
C472 C 0.40686 0.79867 0.49486 0.0
C473 C 0.4077 0.7726 0.45722 0.0
C474 C 0.42046 0.74099 0.44041 0.0
C475 C 0.37826 0.8307 0.48784 0.0
C476 C 0.36344 0.83311 0.46531 0.0
C477 C 0.37937 0.80476 0.45024 0.0
C478 C 0.32931 0.86289 0.45706 0.0
C479 C 0.36379 0.86143 0.50462 0.0
C480 C 0.28719 0.86079 0.46432 0.0
C481 C 0.25357 0.88523 0.45461 0.0
C482 C 0.2613 0.91216 0.43732 0.0
C483 C 0.30396 0.91521 0.43065 0.0
C484 C 0.33748 0.89067 0.44032 0.0
H485 H 0.38717 0.86299 0.51946 0.0
H486 H 0.36015 0.89289 0.49753 0.0
H487 H 0.33175 0.85166 0.50995 0.0
H488 H 0.27984 0.83893 0.47688 0.0
H489 H 0.2211 0.88155 0.45996 0.0
H490 H 0.97744 0.00829 0.07039 0.0
H491 H 0.94874 1.00257 0.10678 0.0
H492 H 0.0718 0.95334 0.13314 0.0
H493 H 0.10032 0.95843 0.09702 0.0
H494 H 0.99625 0.9158 0.15013 0.0
H495 H 0.99719 0.08849 0.15423 0.0
H496 H 0.96607 0.06413 0.13139 0.0
H497 H 0.02432 0.06006 0.1336 0.0
C498 C 0.99789 0.99522 0.08382 0.0
C499 C 0.04125 0.98417 0.08094 0.0
C500 C 0.98156 0.99219 0.1046 0.0
C501 C 1.00842 0.9781 0.12268 0.0
C502 C 0.05059 0.96437 0.11941 0.0
H503 H 0.05471 0.02941 0.25804 0.0
H504 H 0.05239 0.01814 0.2182 0.0
C505 C 0.06691 0.96751 0.09878 0.0
C506 C 0.99524 0.98179 0.14549 0.0
H507 H 0.98522 0.05328 0.18658 0.0
C508 C 0.99287 0.94578 0.15805 0.0
C509 C 0.99152 0.02105 0.15577 0.0
C510 C 0.99511 0.06077 0.1432 0.0
C511 C 0.98841 0.94807 0.18084 0.0
C512 C 0.98623 0.98734 0.19119 0.0
C513 C 0.98685 0.02326 0.17849 0.0
C514 C 0.98746 0.99213 0.21543 0.0
C515 C 0.98842 0.9087 0.19393 0.0
C516 C 0.9517 0.98106 0.22703 0.0
C517 C 0.95297 0.98737 0.24986 0.0
C518 C 0.99008 1.00477 0.26143 0.0
C519 C 0.02594 0.01537 0.2497 0.0
C520 C 0.02455 0.00924 0.22692 0.0
H521 H 0.99506 0.88091 0.18378 0.0
H522 H 1.01329 0.91058 0.20812 0.0
H523 H 0.9562 0.90472 0.20061 0.0
H524 H 0.92266 0.96811 0.21838 0.0
H525 H 0.92493 0.97868 0.25846 0.0
H526 H 0.0343 0.04899 0.92237 0.0
H527 H 0.05596 0.03071 0.88574 0.0
H528 H 0.10153 0.91195 0.90963 0.0
H529 H 0.07913 0.93016 0.94658 0.0
H530 H 0.14396 1.00123 0.87282 0.0
H531 H 1.00589 0.89057 0.85592 0.0
H532 H 1.00456 0.9302 0.87704 0.0
H533 H 0.04021 0.88667 0.88117 0.0
C534 C 0.04925 0.01909 0.91985 0.0
C535 C 0.05554 0.99108 0.93726 0.0
C536 C 0.06177 0.00879 0.89899 0.0
C537 C 0.0803 0.97006 0.89501 0.0
C538 C 0.08729 0.94204 0.91242 0.0
H539 H 0.09049 0.89255 0.75652 0.0
H540 H 0.10131 0.88932 0.79679 0.0
C541 C 0.07492 0.95254 0.93349 0.0
C542 C 0.0897 0.9591 0.8722 0.0
H543 H 0.04386 0.9108 0.82593 0.0
C544 C 0.12273 0.98076 0.86261 0.0
C545 C 0.06208 0.93225 0.85902 0.0
C546 C 0.02603 0.90851 0.86864 0.0
C547 C 0.12753 0.97781 0.8399 0.0
C548 C 0.09773 0.95345 0.82639 0.0
C549 C 0.06651 0.92968 0.83625 0.0
C550 C 0.09535 0.95544 0.80197 0.0
C551 C 0.16388 1.00159 0.83056 0.0
C552 C 0.08824 0.99363 0.79149 0.0
C553 C 0.08204 0.99556 0.76856 0.0
C554 C 0.08227 0.95926 0.75557 0.0
C555 C 0.08984 0.92104 0.76607 0.0
C556 C 0.09623 0.91915 0.78906 0.0
H557 H 0.19197 1.00557 0.84301 0.0
H558 H 0.17531 0.9858 0.81577 0.0
H559 H 0.15204 0.03293 0.82582 0.0
H560 H 0.086 0.02191 0.80108 0.0
H561 H 0.07539 0.02538 0.76106 0.0
H562 H 0.48339 0.50943 0.57506 0.0
H563 H 0.45903 0.49942 0.61205 0.0
H564 H 0.57903 0.43628 0.63133 0.0
H565 H 0.60317 0.44549 0.59443 0.0
H566 H 0.50253 0.40412 0.65079 0.0
H567 H 0.52483 0.57502 0.65974 0.0
H568 H 0.48763 0.55696 0.63745 0.0
H569 H 0.54469 0.546 0.63709 0.0
C570 C 0.50386 0.49213 0.58696 0.0
C571 C 0.54532 0.47849 0.58194 0.0
C572 C 0.49004 0.48668 0.6081 0.0
C573 C 0.51759 0.46772 0.62448 0.0
C574 C 0.55734 0.45106 0.61893 0.0
H575 H 0.57346 0.50888 0.76153 0.0
H576 H 0.57172 0.49728 0.72175 0.0
C577 C 0.57117 0.45652 0.59788 0.0
C578 C 0.50848 0.47024 0.64798 0.0
H579 H 0.50962 0.53861 0.69125 0.0
C580 C 0.50334 0.43351 0.65963 0.0
C581 C 0.51033 0.50866 0.65947 0.0
C582 C 0.51746 0.54898 0.64793 0.0
C583 C 0.50083 0.43419 0.68261 0.0
C584 C 0.50353 0.47256 0.69407 0.0
C585 C 0.50754 0.50928 0.68234 0.0
C586 C 0.50512 0.47546 0.71841 0.0
C587 C 0.49719 0.39391 0.69462 0.0
C588 C 0.46833 0.4666 0.72971 0.0
C589 C 0.46925 0.47308 0.75252 0.0
C590 C 0.50701 0.48856 0.76438 0.0
C591 C 0.5441 0.49638 0.75299 0.0
C592 C 0.54308 0.49003 0.73023 0.0
H593 H 0.50169 0.36658 0.68376 0.0
H594 H 0.52178 0.39272 0.70894 0.0
H595 H 0.46451 0.39179 0.70101 0.0
H596 H 0.43858 0.45577 0.72083 0.0
H597 H 0.44025 0.46649 0.76084 0.0
H598 H 0.50175 0.44718 0.42938 0.0
H599 H 0.52707 0.43344 0.39306 0.0
H600 H 0.64804 0.49594 0.41242 0.0
H601 H 0.62245 0.51027 0.44896 0.0
H602 H 0.60367 0.52783 0.37481 0.0
H603 H 0.6161 0.35786 0.36662 0.0
H604 H 0.56599 0.37291 0.37759 0.0
H605 H 0.61696 0.38407 0.39306 0.0
C606 C 0.53421 0.45707 0.42611 0.0
C607 C 0.56019 0.47968 0.442 0.0
C608 C 0.54882 0.44889 0.40538 0.0
C609 C 0.58966 0.46322 0.40008 0.0
C610 C 0.6166 0.48422 0.41626 0.0
H611 H 0.64405 0.48786 0.26012 0.0
H612 H 0.65849 0.48549 0.30028 0.0
C613 C 0.60206 0.49219 0.43715 0.0
C614 C 0.60064 0.46137 0.3768 0.0
H615 H 0.59975 0.39538 0.33253 0.0
C616 C 0.60411 0.49886 0.36561 0.0
C617 C 0.60118 0.42355 0.36488 0.0
C618 C 0.60032 0.38232 0.37622 0.0
C619 C 0.60456 0.49965 0.34257 0.0
C620 C 0.60198 0.4619 0.3305 0.0
C621 C 0.60137 0.4243 0.34182 0.0
C622 C 0.59506 0.46114 0.30613 0.0
C623 C 0.60475 0.54092 0.33119 0.0
C624 C 0.55494 0.44757 0.29614 0.0
C625 C 0.54649 0.4491 0.2733 0.0
C626 C 0.57812 0.46401 0.2599 0.0
C627 C 0.61873 0.47679 0.26996 0.0
C628 C 0.62712 0.47531 0.29288 0.0
H629 H 0.60082 0.56731 0.34275 0.0
H630 H 0.63609 0.54489 0.32363 0.0
H631 H 0.57818 0.54217 0.3178 0.0
H632 H 0.52967 0.43676 0.3061 0.0
H633 H 0.51465 0.43962 0.26622 0.0
loop_
_geom_bond_atom_site_label_1
_geom_bond_atom_site_label_2
_geom_bond_distance
_geom_bond_site_symmetry_2
_ccdc_geom_bond_type
Zn0 O6 1.920 1_545 S
Zn0 O12 1.898 . S
Zn0 O15 1.905 1_545 S
Zn1 O9 1.905 . S
Zn1 O10 1.898 1_545 S
Zn1 O18 1.920 1_545 S
Zn2 O5 2.080 1_445 S
Zn2 O8 2.114 . S
Zn2 O11 2.120 1_545 S
Zn2 O13 2.120 1_455 S
Zn2 O14 2.114 1_554 S
Zn2 O17 2.080 . S
C3 O8 1.166 . S
C3 O9 1.182 . S
C4 O10 1.167 . S
C4 O11 1.299 . S
O5 Zn2 2.080 1_665 S
O5 C19 1.305 . S
O6 Zn0 1.920 1_565 S
O6 C19 1.234 1_556 S
C7 O12 1.167 . S
C7 O13 1.299 1_556 S
O8 Zn2 2.114 . S
O8 C3 1.166 . S
O9 Zn1 1.905 . S
O9 C3 1.182 . S
O10 Zn1 1.898 1_565 S
O10 C4 1.167 . S
O11 Zn2 2.120 1_565 S
O11 C4 1.299 . S
O12 Zn0 1.898 . S
O12 C7 1.167 . S
O13 Zn2 2.120 1_655 S
O13 C7 1.299 1_554 S
O14 Zn2 2.114 1_556 S
O14 C16 1.166 1_545 S
O15 Zn0 1.905 1_565 S
O15 C16 1.182 1_655 S
C16 O14 1.166 1_565 S
C16 O15 1.182 1_455 S
O17 Zn2 2.080 . S
O17 C20 1.305 1_545 S
O18 Zn1 1.920 1_565 S
O18 C20 1.234 . S
C19 O5 1.305 . S
C19 O6 1.234 1_554 S
C20 O17 1.305 1_565 S
C20 O18 1.234 . S
Zn21 O27 1.920 . S
Zn21 O33 1.898 . S
Zn21 O36 1.905 . S
Zn22 O30 1.905 . S
Zn22 O31 1.898 . S
Zn22 O39 1.920 . S
Zn23 O26 2.080 . S
Zn23 O29 2.114 . S
Zn23 O32 2.120 . S
Zn23 O34 2.120 . S
Zn23 O35 2.114 . S
Zn23 O38 2.080 . S
C24 O29 1.166 . S
C24 O30 1.182 . S
C25 O31 1.167 . S
C25 O32 1.299 . S
O26 Zn23 2.080 . S
O26 C40 1.305 . S
O27 Zn21 1.920 . S
O27 C40 1.234 . S
C28 O33 1.167 . S
C28 O34 1.299 . S
O29 Zn23 2.114 . S
O29 C24 1.166 . S
O30 Zn22 1.905 . S
O30 C24 1.182 . S
O31 Zn22 1.898 . S
O31 C25 1.167 . S
O32 Zn23 2.120 . S
O32 C25 1.299 . S
O33 Zn21 1.898 . S
O33 C28 1.167 . S
O34 Zn23 2.120 . S
O34 C28 1.299 . S
O35 Zn23 2.114 . S
O35 C37 1.166 . S
O36 Zn21 1.905 . S
O36 C37 1.182 . S
C37 O35 1.166 . S
C37 O36 1.182 . S
O38 Zn23 2.080 . S
O38 C41 1.305 . S
O39 Zn22 1.920 . S
O39 C41 1.234 . S
C40 O26 1.305 . S
C40 O27 1.234 . S
C41 O38 1.305 . S
C41 O39 1.234 . S
C42 C43 1.264 1_455 S
C42 C47 1.479 . S
C42 C52 1.465 . S
C43 C42 1.264 1_655 S
C43 C45 1.339 . S
C43 H70 0.931 . S
C44 C45 1.395 . S
C44 C46 1.320 . S
C45 C43 1.339 . S
C45 C44 1.395 . S
C45 H71 0.929 . S
C46 C44 1.320 . S
C46 C47 1.405 1_655 S
C46 H72 0.930 . S
C47 C42 1.479 . S
C47 C46 1.405 1_455 S
C47 H73 0.931 . S
U48 O49 2.454 . S
U48 O50 2.458 1_545 S
U48 C51 2.984 1_545 S
U48 C52 2.847 . S
U48 C65 2.882 . S
U48 O66 2.441 . S
U48 O67 2.420 . S
U48 O68 2.455 . S
U48 O69 2.449 . S
O49 U48 2.454 . S
O49 C51 1.353 1_545 S
O50 U48 2.458 1_565 S
O50 C51 1.286 . S
C51 U48 2.984 1_565 S
C51 O49 1.353 1_565 S
C51 O50 1.286 . S
C51 C53 1.363 . S
C52 C42 1.465 . S
C52 U48 2.847 . S
C52 O66 1.249 . S
C52 O67 1.202 . S
C53 C51 1.363 . S
C53 C55 1.408 . S
C53 C58 1.342 . S
C54 C55 1.310 . S
C54 C57 1.461 . S
C54 H74 0.932 . S
C55 C53 1.408 . S
C55 C54 1.310 . S
C55 H75 0.930 . S
C56 C57 1.474 . S
C56 C58 1.285 . S
C56 H76 0.929 . S
C57 C54 1.461 . S
C57 C56 1.474 . S
C58 C53 1.342 . S
C58 C56 1.285 . S
C58 H77 0.930 . S
C59 C62 1.424 . S
C59 C64 1.245 . S
C59 C65 1.428 . S
C60 C63 1.260 . S
C60 C64 1.477 . S
C60 H78 0.932 . S
C61 C62 1.384 . S
C61 C63 1.479 . S
C61 H79 0.929 . S
C62 C59 1.424 . S
C62 C61 1.384 . S
C62 H80 0.928 . S
C63 C60 1.260 . S
C63 C61 1.479 . S
C64 C59 1.245 . S
C64 C60 1.477 . S
C64 H81 0.932 . S
C65 U48 2.882 . S
C65 C59 1.428 . S
C65 O68 1.301 . S
C65 O69 1.282 . S
O66 U48 2.441 . S
O66 C52 1.249 . S
O67 U48 2.420 . S
O67 C52 1.202 . S
O68 U48 2.455 . S
O68 C65 1.301 . S
O69 U48 2.449 . S
O69 C65 1.282 . S
H70 C43 0.931 . S
H71 C45 0.929 . S
H72 C46 0.930 . S
H73 C47 0.931 . S
H74 C54 0.932 . S
H75 C55 0.930 . S
H76 C56 0.929 . S
H77 C58 0.930 . S
H78 C60 0.932 . S
H79 C61 0.929 . S
H80 C62 0.928 . S
H81 C64 0.932 . S
C82 C83 1.264 . S
C82 C87 1.479 . S
C82 C92 1.465 . S
C83 C82 1.264 . S
C83 C85 1.339 . S
C83 H110 0.931 . S
C84 C85 1.395 . S
C84 C86 1.320 . S
C85 C83 1.339 . S
C85 C84 1.395 . S
C85 H111 0.929 . S
C86 C84 1.320 . S
C86 C87 1.405 . S
C86 H112 0.930 . S
C87 C82 1.479 . S
C87 C86 1.405 . S
C87 H113 0.931 . S
U88 O89 2.454 . S
U88 O90 2.458 . S
U88 C91 2.984 . S
U88 C92 2.847 1_445 S
U88 C105 2.882 . S
U88 O106 2.441 1_445 S
U88 O107 2.420 1_445 S
U88 O108 2.455 . S
U88 O109 2.449 1_545 S
O89 U88 2.454 . S
O89 C91 1.353 . S
O90 U88 2.458 . S
O90 C91 1.286 . S
C91 U88 2.984 . S
C91 O89 1.353 . S
C91 O90 1.286 . S
C91 C93 1.363 . S
C92 C82 1.465 . S
C92 U88 2.847 1_665 S
C92 O106 1.249 . S
C92 O107 1.202 . S
C93 C91 1.363 . S
C93 C95 1.408 . S
C93 C98 1.342 . S
C94 C95 1.310 . S
C94 C97 1.461 . S
C94 H114 0.932 . S
C95 C93 1.408 . S
C95 C94 1.310 . S
C95 H115 0.930 . S
C96 C97 1.474 . S
C96 C98 1.285 . S
C96 H116 0.929 . S
C97 C94 1.461 . S
C97 C96 1.474 . S
C98 C93 1.342 . S
C98 C96 1.285 . S
C98 H117 0.930 . S
C99 C102 1.424 1_445 S
C99 C104 1.245 . S
C99 C105 1.428 . S
C100 C103 1.260 . S
C100 C104 1.477 . S
C100 H118 0.932 . S
C101 C102 1.384 . S
C101 C103 1.479 1_665 S
C101 H119 0.929 . S
C102 C99 1.424 1_665 S
C102 C101 1.384 . S
C102 H120 0.928 . S
C103 C100 1.260 . S
C103 C101 1.479 1_445 S
C104 C99 1.245 . S
C104 C100 1.477 . S
C104 H121 0.932 . S
C105 U88 2.882 . S
C105 C99 1.428 . S
C105 O108 1.301 . S
C105 O109 1.282 1_545 S
O106 U88 2.441 1_665 S
O106 C92 1.249 . S
O107 U88 2.420 1_665 S
O107 C92 1.202 . S
O108 U88 2.455 . S
O108 C105 1.301 . S
O109 U88 2.449 1_565 S
O109 C105 1.282 1_565 S
H110 C83 0.931 . S
H111 C85 0.929 . S
H112 C86 0.930 . S
H113 C87 0.931 . S
H114 C94 0.932 . S
H115 C95 0.930 . S
H116 C96 0.929 . S
H117 C98 0.930 . S
H118 C100 0.932 . S
H119 C101 0.929 . S
H120 C102 0.928 . S
H121 C104 0.932 . S
C122 C123 1.264 . S
C122 C127 1.479 . S
C122 C132 1.465 . S
C123 C122 1.264 . S
C123 C125 1.339 . S
C123 H150 0.931 . S
C124 C125 1.395 . S
C124 C126 1.320 . S
C125 C123 1.339 . S
C125 C124 1.395 . S
C125 H151 0.929 . S
C126 C124 1.320 . S
C126 C127 1.405 . S
C126 H152 0.930 . S
C127 C122 1.479 . S
C127 C126 1.405 . S
C127 H153 0.931 . S
U128 O129 2.454 . S
U128 O130 2.458 . S
U128 C131 2.984 . S
U128 C132 2.847 . S
U128 C145 2.882 . S
U128 O146 2.441 . S
U128 O147 2.420 . S
U128 O148 2.455 . S
U128 O149 2.449 . S
O129 U128 2.454 . S
O129 C131 1.353 . S
O130 U128 2.458 . S
O130 C131 1.286 . S
C131 U128 2.984 . S
C131 O129 1.353 . S
C131 O130 1.286 . S
C131 C133 1.363 . S
C132 C122 1.465 . S
C132 U128 2.847 . S
C132 O146 1.249 . S
C132 O147 1.202 . S
C133 C131 1.363 . S
C133 C135 1.408 . S
C133 C138 1.342 . S
C134 C135 1.310 . S
C134 C137 1.461 . S
C134 H154 0.932 . S
C135 C133 1.408 . S
C135 C134 1.310 . S
C135 H155 0.930 . S
C136 C137 1.474 . S
C136 C138 1.285 . S
C136 H156 0.929 . S
C137 C134 1.461 . S
C137 C136 1.474 . S
C138 C133 1.342 . S
C138 C136 1.285 . S
C138 H157 0.930 . S
C139 C142 1.424 . S
C139 C144 1.245 . S
C139 C145 1.428 . S
C140 C143 1.260 . S
C140 C144 1.477 . S
C140 H158 0.932 . S
C141 C142 1.384 . S
C141 C143 1.479 . S
C141 H159 0.929 . S
C142 C139 1.424 . S
C142 C141 1.384 . S
C142 H160 0.928 . S
C143 C140 1.260 . S
C143 C141 1.479 . S
C144 C139 1.245 . S
C144 C140 1.477 . S
C144 H161 0.932 . S
C145 U128 2.882 . S
C145 C139 1.428 . S
C145 O148 1.301 . S
C145 O149 1.282 . S
O146 U128 2.441 . S
O146 C132 1.249 . S
O147 U128 2.420 . S
O147 C132 1.202 . S
O148 U128 2.455 . S
O148 C145 1.301 . S
O149 U128 2.449 . S
O149 C145 1.282 . S
H150 C123 0.931 . S
H151 C125 0.929 . S
H152 C126 0.930 . S
H153 C127 0.931 . S
H154 C134 0.932 . S
H155 C135 0.930 . S
H156 C136 0.929 . S
H157 C138 0.930 . S
H158 C140 0.932 . S
H159 C141 0.929 . S
H160 C142 0.928 . S
H161 C144 0.932 . S
C162 C163 1.264 . S
C162 C167 1.479 . S
C162 C172 1.465 . S
C163 C162 1.264 . S
C163 C165 1.339 . S
C163 H190 0.931 . S
C164 C165 1.395 . S
C164 C166 1.320 . S
C165 C163 1.339 . S
C165 C164 1.395 . S
C165 H191 0.929 . S
C166 C164 1.320 . S
C166 C167 1.405 . S
C166 H192 0.930 . S
C167 C162 1.479 . S
C167 C166 1.405 . S
C167 H193 0.931 . S
U168 O169 2.454 . S
U168 O170 2.458 . S
U168 C171 2.984 . S
U168 C172 2.847 . S
U168 C185 2.882 . S
U168 O186 2.441 . S
U168 O187 2.420 . S
U168 O188 2.455 . S
U168 O189 2.449 . S
O169 U168 2.454 . S
O169 C171 1.353 . S
O170 U168 2.458 . S
O170 C171 1.286 . S
C171 U168 2.984 . S
C171 O169 1.353 . S
C171 O170 1.286 . S
C171 C173 1.363 . S
C172 C162 1.465 . S
C172 U168 2.847 . S
C172 O186 1.249 . S
C172 O187 1.202 . S
C173 C171 1.363 . S
C173 C175 1.408 . S
C173 C178 1.342 . S
C174 C175 1.310 . S
C174 C177 1.461 . S
C174 H194 0.932 . S
C175 C173 1.408 . S
C175 C174 1.310 . S
C175 H195 0.930 . S
C176 C177 1.474 . S
C176 C178 1.285 . S
C176 H196 0.929 . S
C177 C174 1.461 . S
C177 C176 1.474 . S
C178 C173 1.342 . S
C178 C176 1.285 . S
C178 H197 0.930 . S
C179 C182 1.424 . S
C179 C184 1.245 . S
C179 C185 1.428 . S
C180 C183 1.260 . S
C180 C184 1.477 . S
C180 H198 0.932 . S
C181 C182 1.384 . S
C181 C183 1.479 . S
C181 H199 0.929 . S
C182 C179 1.424 . S
C182 C181 1.384 . S
C182 H200 0.928 . S
C183 C180 1.260 . S
C183 C181 1.479 . S
C184 C179 1.245 . S
C184 C180 1.477 . S
C184 H201 0.932 . S
C185 U168 2.882 . S
C185 C179 1.428 . S
C185 O188 1.301 . S
C185 O189 1.282 . S
O186 U168 2.441 . S
O186 C172 1.249 . S
O187 U168 2.420 . S
O187 C172 1.202 . S
O188 U168 2.455 . S
O188 C185 1.301 . S
O189 U168 2.449 . S
O189 C185 1.282 . S
H190 C163 0.931 . S
H191 C165 0.929 . S
H192 C166 0.930 . S
H193 C167 0.931 . S
H194 C174 0.932 . S
H195 C175 0.930 . S
H196 C176 0.929 . S
H197 C178 0.930 . S
H198 C180 0.932 . S
H199 C181 0.929 . S
H200 C182 0.928 . S
H201 C184 0.932 . S
H202 C210 0.929 . S
H203 C212 0.930 . S
H204 C214 0.930 . S
H205 C217 0.929 . S
H206 C220 0.930 . S
H207 C222 0.960 . S
H208 C222 0.960 . S
H209 C222 0.960 . S
C210 H202 0.929 . S
C210 C211 1.377 . S
C210 C212 1.384 . S
C211 C210 1.377 . S
C211 C217 1.390 . S
C212 H203 0.930 . S
C212 C210 1.384 . S
C212 C213 1.372 . S
C213 C212 1.372 . S
C213 C214 1.400 . S
C213 C218 1.490 . S
C214 H204 0.930 . S
C214 C213 1.400 . S
C214 C217 1.386 . S
H215 C231 0.930 . S
H216 C232 0.931 . S
C217 H205 0.929 . S
C217 C211 1.390 . S
C217 C214 1.386 . S
C218 C213 1.490 . S
C218 C220 1.395 . S
C218 C221 1.403 . S
H219 C225 0.930 . S
C220 H206 0.930 . S
C220 C218 1.395 . S
C220 C223 1.403 . S
C221 C218 1.403 . S
C221 C222 1.524 . S
C221 C225 1.400 . S
C222 H207 0.960 . S
C222 H208 0.960 . S
C222 H209 0.960 . S
C222 C221 1.524 . S
C223 C220 1.403 . S
C223 C224 1.392 . S
C223 C227 1.484 1_554 S
C224 C223 1.392 . S
C224 C225 1.385 . S
C224 C226 1.478 . S
C225 H219 0.930 . S
C225 C221 1.400 . S
C225 C224 1.385 . S
C226 C224 1.478 . S
C226 C228 1.381 . S
C226 C232 1.383 . S
C227 C223 1.484 1_556 S
C227 H233 0.970 . S
C227 H234 0.967 . S
C227 H235 0.954 1_556 S
C228 C226 1.381 . S
C228 C229 1.394 . S
C228 H236 0.930 . S
C229 C228 1.394 . S
C229 C230 1.383 . S
C229 H237 0.929 . S
C230 C229 1.383 . S
C230 C231 1.377 . S
C231 H215 0.930 . S
C231 C230 1.377 . S
C231 C232 1.379 . S
C232 H216 0.931 . S
C232 C226 1.383 . S
C232 C231 1.379 . S
H233 C227 0.970 . S
H234 C227 0.967 . S
H235 C227 0.954 1_554 S
H236 C228 0.930 . S
H237 C229 0.929 . S
H238 C246 0.929 . S
H239 C248 0.930 . S
H240 C250 0.924 1_554 S
H241 C253 0.959 . S
H242 C256 0.930 . S
H243 C258 0.960 . S
H244 C258 0.960 . S
H245 C258 0.960 . S
C246 H238 0.929 . S
C246 C247 1.377 . S
C246 C248 1.384 . S
C247 C246 1.377 . S
C247 C253 1.375 1_556 S
C248 H239 0.930 . S
C248 C246 1.384 . S
C248 C249 1.372 . S
C249 C248 1.372 . S
C249 C250 1.400 . S
C249 C254 1.490 . S
C250 H240 0.924 1_556 S
C250 C249 1.400 . S
C250 C253 1.374 1_556 S
H251 C267 0.930 . S
H252 C268 0.931 . S
C253 H241 0.959 . S
C253 C247 1.375 1_554 S
C253 C250 1.374 1_554 S
C254 C249 1.490 . S
C254 C256 1.395 . S
C254 C257 1.403 . S
H255 C261 0.930 . S
C256 H242 0.930 . S
C256 C254 1.395 . S
C256 C259 1.403 . S
C257 C254 1.403 . S
C257 C258 1.524 . S
C257 C261 1.400 . S
C258 H243 0.960 . S
C258 H244 0.960 . S
C258 H245 0.960 . S
C258 C257 1.524 . S
C259 C256 1.403 . S
C259 C260 1.392 . S
C259 C263 1.495 . S
C260 C259 1.392 . S
C260 C261 1.385 . S
C260 C262 1.478 . S
C261 H255 0.930 . S
C261 C257 1.400 . S
C261 C260 1.385 . S
C262 C260 1.478 . S
C262 C264 1.381 . S
C262 C268 1.383 . S
C263 C259 1.495 . S
C263 H269 0.959 1_556 S
C263 H270 0.961 1_556 S
C263 H271 0.960 . S
C264 C262 1.381 . S
C264 C265 1.394 . S
C264 H272 0.930 . S
C265 C264 1.394 . S
C265 C266 1.383 . S
C265 H273 0.929 . S
C266 C265 1.383 . S
C266 C267 1.377 . S
C267 H251 0.930 . S
C267 C266 1.377 . S
C267 C268 1.379 . S
C268 H252 0.931 . S
C268 C262 1.383 . S
C268 C267 1.379 . S
H269 C263 0.959 1_554 S
H270 C263 0.961 1_554 S
H271 C263 0.960 . S
H272 C264 0.930 . S
H273 C265 0.929 . S
H274 C282 0.929 . S
H275 C284 0.930 . S
H276 C286 0.945 . S
H277 C289 0.929 1_556 S
H278 C292 0.930 . S
H279 C294 0.960 . S
H280 C294 0.960 . S
H281 C294 0.960 . S
C282 H274 0.929 . S
C282 C283 1.377 . S
C282 C284 1.384 . S
C283 C282 1.377 . S
C283 C289 1.390 . S
C284 H275 0.930 . S
C284 C282 1.384 . S
C284 C285 1.372 . S
C285 C284 1.372 . S
C285 C286 1.400 . S
C285 C290 1.490 . S
C286 H276 0.945 . S
C286 C285 1.400 . S
C286 C289 1.386 . S
H287 C303 0.930 . S
H288 C304 0.931 . S
C289 H277 0.929 1_554 S
C289 C283 1.390 . S
C289 C286 1.386 . S
C290 C285 1.490 . S
C290 C292 1.395 . S
C290 C293 1.403 . S
H291 C297 0.930 . S
C292 H278 0.930 . S
C292 C290 1.395 . S
C292 C295 1.403 . S
C293 C290 1.403 . S
C293 C294 1.524 . S
C293 C297 1.400 . S
C294 H279 0.960 . S
C294 H280 0.960 . S
C294 H281 0.960 . S
C294 C293 1.524 . S
C295 C292 1.403 . S
C295 C296 1.392 . S
C295 C299 1.495 . S
C296 C295 1.392 . S
C296 C297 1.385 . S
C296 C298 1.478 . S
C297 H291 0.930 . S
C297 C293 1.400 . S
C297 C296 1.385 . S
C298 C296 1.478 . S
C298 C300 1.381 . S
C298 C304 1.383 . S
C299 C295 1.495 . S
C299 H305 0.959 . S
C299 H306 0.961 . S
C299 H307 0.960 . S
C300 C298 1.381 . S
C300 C301 1.394 . S
C300 H308 0.930 . S
C301 C300 1.394 . S
C301 C302 1.383 . S
C301 H309 0.929 . S
C302 C301 1.383 . S
C302 C303 1.377 . S
C303 H287 0.930 . S
C303 C302 1.377 . S
C303 C304 1.379 . S
C304 H288 0.931 . S
C304 C298 1.383 . S
C304 C303 1.379 . S
H305 C299 0.959 . S
H306 C299 0.961 . S
H307 C299 0.960 . S
H308 C300 0.930 . S
H309 C301 0.929 . S
H310 C318 0.929 . S
H311 C320 0.930 . S
H312 C322 0.930 . S
H313 C325 0.933 1_455 S
H314 C328 0.970 . S
H315 C330 0.960 . S
H316 C330 0.960 . S
H317 C330 0.960 . S
C318 H310 0.929 . S
C318 C319 1.377 . S
C318 C320 1.384 . S
C319 C318 1.377 . S
C319 C325 1.390 . S
C320 H311 0.930 . S
C320 C318 1.384 . S
C320 C321 1.372 . S
C321 C320 1.372 . S
C321 C322 1.400 . S
C321 C326 1.490 . S
C322 H312 0.930 . S
C322 C321 1.400 . S
C322 C325 1.386 . S
H323 C339 0.930 . S
H324 C340 0.931 . S
C325 H313 0.933 1_655 S
C325 C319 1.390 . S
C325 C322 1.386 . S
C326 C321 1.490 . S
C326 C328 1.360 1_556 S
C326 C329 1.403 . S
H327 C333 0.930 . S
C328 H314 0.970 . S
C328 C326 1.360 1_554 S
C328 C331 1.400 1_554 S
C329 C326 1.403 . S
C329 C330 1.524 . S
C329 C333 1.400 . S
C330 H315 0.960 . S
C330 H316 0.960 . S
C330 H317 0.960 . S
C330 C329 1.524 . S
C331 C328 1.400 1_556 S
C331 C332 1.392 . S
C331 C335 1.495 1_556 S
C332 C331 1.392 . S
C332 C333 1.385 . S
C332 C334 1.478 . S
C333 H327 0.930 . S
C333 C329 1.400 . S
C333 C332 1.385 . S
C334 C332 1.478 . S
C334 C336 1.381 . S
C334 C340 1.383 . S
C335 C331 1.495 1_554 S
C335 H341 0.959 . S
C335 H342 0.961 . S
C335 H343 0.960 . S
C336 C334 1.381 . S
C336 C337 1.394 . S
C336 H344 0.930 . S
C337 C336 1.394 . S
C337 C338 1.383 . S
C337 H345 0.929 . S
C338 C337 1.383 . S
C338 C339 1.377 . S
C339 H323 0.930 . S
C339 C338 1.377 . S
C339 C340 1.379 . S
C340 H324 0.931 . S
C340 C334 1.383 . S
C340 C339 1.379 . S
H341 C335 0.959 . S
H342 C335 0.961 . S
H343 C335 0.960 . S
H344 C336 0.930 . S
H345 C337 0.929 . S
H346 C354 0.929 . S
H347 C356 0.930 . S
H348 C358 0.930 . S
H349 C361 0.929 . S
H350 C364 0.930 . S
H351 C366 0.960 . S
H352 C366 0.960 . S
H353 C366 0.960 . S
C354 H346 0.929 . S
C354 C355 1.377 . S
C354 C356 1.384 . S
C355 C354 1.377 . S
C355 C361 1.390 . S
C356 H347 0.930 . S
C356 C354 1.384 . S
C356 C357 1.372 . S
C357 C356 1.372 . S
C357 C358 1.400 . S
C357 C362 1.490 . S
C358 H348 0.930 . S
C358 C357 1.400 . S
C358 C361 1.386 . S
H359 C375 0.930 . S
H360 C376 0.931 . S
C361 H349 0.929 . S
C361 C355 1.390 . S
C361 C358 1.386 . S
C362 C357 1.490 . S
C362 C364 1.395 . S
C362 C365 1.403 . S
H363 C369 0.930 . S
C364 H350 0.930 . S
C364 C362 1.395 . S
C364 C367 1.403 . S
C365 C362 1.403 . S
C365 C366 1.524 . S
C365 C369 1.400 . S
C366 H351 0.960 . S
C366 H352 0.960 . S
C366 H353 0.960 . S
C366 C365 1.524 . S
C367 C364 1.403 . S
C367 C368 1.392 . S
C367 C371 1.495 . S
C368 C367 1.392 . S
C368 C369 1.385 . S
C368 C370 1.478 . S
C369 H363 0.930 . S
C369 C365 1.400 . S
C369 C368 1.385 . S
C370 C368 1.478 . S
C370 C372 1.381 . S
C370 C376 1.383 . S
C371 C367 1.495 . S
C371 H377 0.959 . S
C371 H378 0.961 . S
C371 H379 0.960 . S
C372 C370 1.381 . S
C372 C373 1.394 . S
C372 H380 0.930 . S
C373 C372 1.394 . S
C373 C374 1.383 . S
C373 H381 0.929 . S
C374 C373 1.383 . S
C374 C375 1.377 . S
C375 H359 0.930 . S
C375 C374 1.377 . S
C375 C376 1.379 . S
C376 H360 0.931 . S
C376 C370 1.383 . S
C376 C375 1.379 . S
H377 C371 0.959 . S
H378 C371 0.961 . S
H379 C371 0.960 . S
H380 C372 0.930 . S
H381 C373 0.929 . S
H382 C390 0.929 . S
H383 C392 0.930 . S
H384 C394 0.930 . S
H385 C397 0.929 . S
H386 C400 0.930 . S
H387 C402 0.960 . S
H388 C402 0.960 . S
H389 C402 0.960 . S
C390 H382 0.929 . S
C390 C391 1.377 . S
C390 C392 1.384 . S
C391 C390 1.377 . S
C391 C397 1.390 . S
C392 H383 0.930 . S
C392 C390 1.384 . S
C392 C393 1.372 . S
C393 C392 1.372 . S
C393 C394 1.400 . S
C393 C398 1.490 . S
C394 H384 0.930 . S
C394 C393 1.400 . S
C394 C397 1.386 . S
H395 C411 0.930 . S
H396 C412 0.931 . S
C397 H385 0.929 . S
C397 C391 1.390 . S
C397 C394 1.386 . S
C398 C393 1.490 . S
C398 C400 1.395 . S
C398 C401 1.403 . S
H399 C405 0.930 . S
C400 H386 0.930 . S
C400 C398 1.395 . S
C400 C403 1.403 . S
C401 C398 1.403 . S
C401 C402 1.524 . S
C401 C405 1.400 . S
C402 H387 0.960 . S
C402 H388 0.960 . S
C402 H389 0.960 . S
C402 C401 1.524 . S
C403 C400 1.403 . S
C403 C404 1.392 . S
C403 C407 1.495 . S
C404 C403 1.392 . S
C404 C405 1.385 . S
C404 C406 1.478 . S
C405 H399 0.930 . S
C405 C401 1.400 . S
C405 C404 1.385 . S
C406 C404 1.478 . S
C406 C408 1.381 . S
C406 C412 1.383 . S
C407 C403 1.495 . S
C407 H413 0.959 . S
C407 H414 0.961 . S
C407 H415 0.960 . S
C408 C406 1.381 . S
C408 C409 1.394 . S
C408 H416 0.930 . S
C409 C408 1.394 . S
C409 C410 1.383 . S
C409 H417 0.929 . S
C410 C409 1.383 . S
C410 C411 1.377 . S
C411 H395 0.930 . S
C411 C410 1.377 . S
C411 C412 1.379 . S
C412 H396 0.931 . S
C412 C406 1.383 . S
C412 C411 1.379 . S
H413 C407 0.959 . S
H414 C407 0.961 . S
H415 C407 0.960 . S
H416 C408 0.930 . S
H417 C409 0.929 . S
H418 C426 0.929 . S
H419 C428 0.930 . S
H420 C430 0.930 . S
H421 C433 0.929 . S
H422 C436 0.930 . S
H423 C438 0.960 . S
H424 C438 0.960 . S
H425 C438 0.960 . S
C426 H418 0.929 . S
C426 C427 1.377 . S
C426 C428 1.384 . S
C427 C426 1.377 . S
C427 C433 1.390 . S
C428 H419 0.930 . S
C428 C426 1.384 . S
C428 C429 1.372 . S
C429 C428 1.372 . S
C429 C430 1.400 . S
C429 C434 1.490 . S
C430 H420 0.930 . S
C430 C429 1.400 . S
C430 C433 1.386 . S
H431 C447 0.930 . S
H432 C448 0.931 . S
C433 H421 0.929 . S
C433 C427 1.390 . S
C433 C430 1.386 . S
C434 C429 1.490 . S
C434 C436 1.395 . S
C434 C437 1.403 . S
H435 C441 0.930 . S
C436 H422 0.930 . S
C436 C434 1.395 . S
C436 C439 1.403 . S
C437 C434 1.403 . S
C437 C438 1.524 . S
C437 C441 1.400 . S
C438 H423 0.960 . S
C438 H424 0.960 . S
C438 H425 0.960 . S
C438 C437 1.524 . S
C439 C436 1.403 . S
C439 C440 1.392 . S
C439 C443 1.495 . S
C440 C439 1.392 . S
C440 C441 1.385 . S
C440 C442 1.478 . S
C441 H435 0.930 . S
C441 C437 1.400 . S
C441 C440 1.385 . S
C442 C440 1.478 . S
C442 C444 1.381 . S
C442 C448 1.383 . S
C443 C439 1.495 . S
C443 H449 0.959 . S
C443 H450 0.961 . S
C443 H451 0.960 . S
C444 C442 1.381 . S
C444 C445 1.394 . S
C444 H452 0.930 . S
C445 C444 1.394 . S
C445 C446 1.383 . S
C445 H453 0.929 . S
C446 C445 1.383 . S
C446 C447 1.377 . S
C447 H431 0.930 . S
C447 C446 1.377 . S
C447 C448 1.379 . S
C448 H432 0.931 . S
C448 C442 1.383 . S
C448 C447 1.379 . S
H449 C443 0.959 . S
H450 C443 0.961 . S
H451 C443 0.960 . S
H452 C444 0.930 . S
H453 C445 0.929 . S
H454 C462 0.929 . S
H455 C464 0.930 . S
H456 C466 0.930 . S
H457 C469 0.929 . S
H458 C472 0.930 . S
H459 C474 0.960 . S
H460 C474 0.960 . S
H461 C474 0.960 . S
C462 H454 0.929 . S
C462 C463 1.377 . S
C462 C464 1.384 . S
C463 C462 1.377 . S
C463 C469 1.390 . S
C464 H455 0.930 . S
C464 C462 1.384 . S
C464 C465 1.372 . S
C465 C464 1.372 . S
C465 C466 1.400 . S
C465 C470 1.490 . S
C466 H456 0.930 . S
C466 C465 1.400 . S
C466 C469 1.386 . S
H467 C483 0.930 . S
H468 C484 0.931 . S
C469 H457 0.929 . S
C469 C463 1.390 . S
C469 C466 1.386 . S
C470 C465 1.490 . S
C470 C472 1.395 . S
C470 C473 1.403 . S
H471 C477 0.930 . S
C472 H458 0.930 . S
C472 C470 1.395 . S
C472 C475 1.403 . S
C473 C470 1.403 . S
C473 C474 1.524 . S
C473 C477 1.400 . S
C474 H459 0.960 . S
C474 H460 0.960 . S
C474 H461 0.960 . S
C474 C473 1.524 . S
C475 C472 1.403 . S
C475 C476 1.392 . S
C475 C479 1.495 . S
C476 C475 1.392 . S
C476 C477 1.385 . S
C476 C478 1.478 . S
C477 H471 0.930 . S
C477 C473 1.400 . S
C477 C476 1.385 . S
C478 C476 1.478 . S
C478 C480 1.381 . S
C478 C484 1.383 . S
C479 C475 1.495 . S
C479 H485 0.959 . S
C479 H486 0.961 . S
C479 H487 0.960 . S
C480 C478 1.381 . S
C480 C481 1.394 . S
C480 H488 0.930 . S
C481 C480 1.394 . S
C481 C482 1.383 . S
C481 H489 0.929 . S
C482 C481 1.383 . S
C482 C483 1.377 . S
C483 H467 0.930 . S
C483 C482 1.377 . S
C483 C484 1.379 . S
C484 H468 0.931 . S
C484 C478 1.383 . S
C484 C483 1.379 . S
H485 C479 0.959 . S
H486 C479 0.961 . S
H487 C479 0.960 . S
H488 C480 0.930 . S
H489 C481 0.929 . S
H490 C498 0.929 1_655 S
H491 C500 0.930 1_655 S
H492 C502 0.930 . S
H493 C505 0.929 . S
H494 C508 0.930 . S
H495 C510 0.960 . S
H496 C510 0.960 . S
H497 C510 0.960 . S
C498 H490 0.929 1_455 S
C498 C499 1.377 . S
C498 C500 1.384 . S
C499 C498 1.377 . S
C499 C505 1.390 1_565 S
C500 H491 0.930 1_455 S
C500 C498 1.384 . S
C500 C501 1.372 1_565 S
C501 C500 1.372 1_545 S
C501 C502 1.400 . S
C501 C506 1.490 . S
C502 H492 0.930 . S
C502 C501 1.400 . S
C502 C505 1.386 . S
H503 C519 0.930 . S
H504 C520 0.931 . S
C505 H493 0.929 . S
C505 C499 1.390 1_545 S
C505 C502 1.386 . S
C506 C501 1.490 . S
C506 C508 1.395 1_545 S
C506 C509 1.403 . S
H507 C513 0.930 . S
C508 H494 0.930 . S
C508 C506 1.395 1_565 S
C508 C511 1.403 . S
C509 C506 1.403 . S
C509 C510 1.524 . S
C509 C513 1.400 . S
C510 H495 0.960 . S
C510 H496 0.960 . S
C510 H497 0.960 . S
C510 C509 1.524 . S
C511 C508 1.403 . S
C511 C512 1.392 1_565 S
C511 C515 1.495 . S
C512 C511 1.392 1_545 S
C512 C513 1.385 . S
C512 C514 1.478 . S
C513 H507 0.930 . S
C513 C509 1.400 . S
C513 C512 1.385 . S
C514 C512 1.478 . S
C514 C516 1.381 . S
C514 C520 1.383 . S
C515 C511 1.495 . S
C515 H521 0.959 . S
C515 H522 0.961 . S
C515 H523 0.960 . S
C516 C514 1.381 . S
C516 C517 1.394 . S
C516 H524 0.930 1_455 S
C517 C516 1.394 . S
C517 C518 1.383 . S
C517 H525 0.929 . S
C518 C517 1.383 . S
C518 C519 1.377 . S
C519 H503 0.930 . S
C519 C518 1.377 . S
C519 C520 1.379 . S
C520 H504 0.931 . S
C520 C514 1.383 . S
C520 C519 1.379 . S
H521 C515 0.959 . S
H522 C515 0.961 . S
H523 C515 0.960 . S
H524 C516 0.930 1_655 S
H525 C517 0.929 . S
H526 C534 0.929 . S
H527 C536 0.930 . S
H528 C538 0.930 . S
H529 C541 0.929 . S
H530 C544 0.930 . S
H531 C546 0.960 . S
H532 C546 0.960 . S
H533 C546 0.960 . S
C534 H526 0.929 . S
C534 C535 1.377 1_545 S
C534 C536 1.384 . S
C535 C534 1.377 1_565 S
C535 C541 1.390 . S
C536 H527 0.930 . S
C536 C534 1.384 . S
C536 C537 1.372 . S
C537 C536 1.372 . S
C537 C538 1.400 1_545 S
C537 C542 1.490 . S
C538 H528 0.930 . S
C538 C537 1.400 1_565 S
C538 C541 1.386 . S
H539 C555 0.930 . S
H540 C556 0.931 . S
C541 H529 0.929 . S
C541 C535 1.390 . S
C541 C538 1.386 . S
C542 C537 1.490 . S
C542 C544 1.395 . S
C542 C545 1.403 1_445 S
H543 C549 0.936 . S
C544 H530 0.930 . S
C544 C542 1.395 . S
C544 C547 1.403 . S
C545 C542 1.403 1_665 S
C545 C546 1.524 . S
C545 C549 1.403 . S
C546 H531 0.960 . S
C546 H532 0.960 . S
C546 H533 0.960 . S
C546 C545 1.524 . S
C547 C544 1.403 . S
C547 C548 1.392 . S
C547 C551 1.495 . S
C548 C547 1.392 . S
C548 C549 1.377 1_445 S
C548 C550 1.478 . S
C549 H543 0.936 . S
C549 C545 1.403 . S
C549 C548 1.377 1_665 S
C550 C548 1.478 . S
C550 C552 1.381 . S
C550 C556 1.383 1_545 S
C551 C547 1.495 . S
C551 H557 0.959 . S
C551 H558 0.961 . S
C551 H559 0.960 . S
C552 C550 1.381 . S
C552 C553 1.394 . S
C552 H560 0.930 . S
C553 C552 1.394 . S
C553 C554 1.383 . S
C553 H561 0.929 . S
C554 C553 1.383 . S
C554 C555 1.377 1_545 S
C555 H539 0.930 . S
C555 C554 1.377 1_565 S
C555 C556 1.379 . S
C556 H540 0.931 . S
C556 C550 1.383 1_565 S
C556 C555 1.379 . S
H557 C551 0.959 . S
H558 C551 0.961 . S
H559 C551 0.960 . S
H560 C552 0.930 . S
H561 C553 0.929 . S
H562 C570 0.929 . S
H563 C572 0.930 . S
H564 C574 0.930 . S
H565 C577 0.929 . S
H566 C580 0.930 . S
H567 C582 0.960 . S
H568 C582 0.960 . S
H569 C582 0.960 . S
C570 H562 0.929 . S
C570 C571 1.377 . S
C570 C572 1.384 . S
C571 C570 1.377 . S
C571 C577 1.390 . S
C572 H563 0.930 . S
C572 C570 1.384 . S
C572 C573 1.372 . S
C573 C572 1.372 . S
C573 C574 1.400 . S
C573 C578 1.490 . S
C574 H564 0.930 . S
C574 C573 1.400 . S
C574 C577 1.386 . S
H575 C591 0.930 . S
H576 C592 0.931 . S
C577 H565 0.929 . S
C577 C571 1.390 . S
C577 C574 1.386 . S
C578 C573 1.490 . S
C578 C580 1.395 . S
C578 C581 1.403 . S
H579 C585 0.930 . S
C580 H566 0.930 . S
C580 C578 1.395 . S
C580 C583 1.403 . S
C581 C578 1.403 . S
C581 C582 1.524 . S
C581 C585 1.400 . S
C582 H567 0.960 . S
C582 H568 0.960 . S
C582 H569 0.960 . S
C582 C581 1.524 . S
C583 C580 1.403 . S
C583 C584 1.392 . S
C583 C587 1.495 . S
C584 C583 1.392 . S
C584 C585 1.385 . S
C584 C586 1.478 . S
C585 H579 0.930 . S
C585 C581 1.400 . S
C585 C584 1.385 . S
C586 C584 1.478 . S
C586 C588 1.381 . S
C586 C592 1.383 . S
C587 C583 1.495 . S
C587 H593 0.959 . S
C587 H594 0.961 . S
C587 H595 0.960 . S
C588 C586 1.381 . S
C588 C589 1.394 . S
C588 H596 0.930 . S
C589 C588 1.394 . S
C589 C590 1.383 . S
C589 H597 0.929 . S
C590 C589 1.383 . S
C590 C591 1.377 . S
C591 H575 0.930 . S
C591 C590 1.377 . S
C591 C592 1.379 . S
C592 H576 0.931 . S
C592 C586 1.383 . S
C592 C591 1.379 . S
H593 C587 0.959 . S
H594 C587 0.961 . S
H595 C587 0.960 . S
H596 C588 0.930 . S
H597 C589 0.929 . S
H598 C606 0.929 . S
H599 C608 0.930 . S
H600 C610 0.930 . S
H601 C613 0.929 . S
H602 C616 0.930 . S
H603 C618 0.960 . S
H604 C618 0.960 . S
H605 C618 0.960 . S
C606 H598 0.929 . S
C606 C607 1.377 . S
C606 C608 1.384 . S
C607 C606 1.377 . S
C607 C613 1.390 . S
C608 H599 0.930 . S
C608 C606 1.384 . S
C608 C609 1.372 . S
C609 C608 1.372 . S
C609 C610 1.400 . S
C609 C614 1.490 . S
C610 H600 0.930 . S
C610 C609 1.400 . S
C610 C613 1.386 . S
H611 C627 0.930 . S
H612 C628 0.931 . S
C613 H601 0.929 . S
C613 C607 1.390 . S
C613 C610 1.386 . S
C614 C609 1.490 . S
C614 C616 1.395 . S
C614 C617 1.403 . S
H615 C621 0.930 . S
C616 H602 0.930 . S
C616 C614 1.395 . S
C616 C619 1.403 . S
C617 C614 1.403 . S
C617 C618 1.524 . S
C617 C621 1.400 . S
C618 H603 0.960 . S
C618 H604 0.960 . S
C618 H605 0.960 . S
C618 C617 1.524 . S
C619 C616 1.403 . S
C619 C620 1.392 . S
C619 C623 1.495 . S
C620 C619 1.392 . S
C620 C621 1.385 . S
C620 C622 1.478 . S
C621 H615 0.930 . S
C621 C617 1.400 . S
C621 C620 1.385 . S
C622 C620 1.478 . S
C622 C624 1.381 . S
C622 C628 1.383 . S
C623 C619 1.495 . S
C623 H629 0.959 . S
C623 H630 0.961 . S
C623 H631 0.960 . S
C624 C622 1.381 . S
C624 C625 1.394 . S
C624 H632 0.930 . S
C625 C624 1.394 . S
C625 C626 1.383 . S
C625 H633 0.929 . S
C626 C625 1.383 . S
C626 C627 1.377 . S
C627 H611 0.930 . S
C627 C626 1.377 . S
C627 C628 1.379 . S
C628 H612 0.931 . S
C628 C622 1.383 . S
C628 C627 1.379 . S
H629 C623 0.959 . S
H630 C623 0.961 . S
H631 C623 0.960 . S
H632 C624 0.930 . S
H633 C625 0.929 . S
C230 C164 1.142 . S
C211 C3 1.036 . S
C247 C4 1.536 1_556 S
C266 C124 1.643 . S
C283 C19 1.566 . S
C302 C177 1.660 . S
C319 C7 1.039 . S
C338 C137 1.166 . S
C355 C37 1.056 . S
C374 C84 1.142 . S
C391 C28 1.532 . S
C410 C44 1.650 . S
C446 C97 1.650 . S
C427 C41 1.565 . S
C482 C57 1.158 . S
C463 C25 1.047 . S
C499 C20 1.273 . S
C518 C63 1.424 . S
C535 C16 1.313 . S
C554 C103 1.449 . S
C590 C143 1.426 . S
C571 C40 1.268 . S
C607 C24 1.314 . S
C626 C183 1.462 . S
