# Generated by pormake.
# Topology tph, (6,8)-cn, num edge types: 1
# Building blocks:
#     Node 0, Type 0, BuildingBlock: OJICUG_clean_sbu_0, # of connection points: 6
#     Node 1, Type 0, BuildingBlock: OJICUG_clean_sbu_0, # of connection points: 6
#     Node 2, Type 0, BuildingBlock: OJICUG_clean_sbu_0, # of connection points: 6
#     Node 3, Type 0, BuildingBlock: OJICUG_clean_sbu_0, # of connection points: 6
#     Node 4, Type 0, BuildingBlock: OJICUG_clean_sbu_0, # of connection points: 6
#     Node 5, Type 0, BuildingBlock: OJICUG_clean_sbu_0, # of connection points: 6
#     Node 6, Type 0, BuildingBlock: OJICUG_clean_sbu_0, # of connection points: 6
#     Node 7, Type 0, BuildingBlock: OJICUG_clean_sbu_0, # of connection points: 6
#     Node 8, Type 0, BuildingBlock: OJICUG_clean_sbu_0, # of connection points: 6
#     Node 9, Type 0, BuildingBlock: OJICUG_clean_sbu_0, # of connection points: 6
#     Node 10, Type 0, BuildingBlock: OJICUG_clean_sbu_0, # of connection points: 6
#     Node 11, Type 0, BuildingBlock: OJICUG_clean_sbu_0, # of connection points: 6
#     Node 12, Type 0, BuildingBlock: OJICUG_clean_sbu_0, # of connection points: 6
#     Node 13, Type 0, BuildingBlock: OJICUG_clean_sbu_0, # of connection points: 6
#     Node 14, Type 0, BuildingBlock: OJICUG_clean_sbu_0, # of connection points: 6
#     Node 15, Type 0, BuildingBlock: OJICUG_clean_sbu_0, # of connection points: 6
#     Node 16, Type 1, BuildingBlock: TAGTUT_clean_sbu_3, # of connection points: 8
#     Node 17, Type 1, BuildingBlock: TAGTUT_clean_sbu_3, # of connection points: 8
#     Node 18, Type 1, BuildingBlock: TAGTUT_clean_sbu_3, # of connection points: 8
#     Node 19, Type 1, BuildingBlock: TAGTUT_clean_sbu_3, # of connection points: 8
#     Node 20, Type 1, BuildingBlock: TAGTUT_clean_sbu_3, # of connection points: 8
#     Node 21, Type 1, BuildingBlock: TAGTUT_clean_sbu_3, # of connection points: 8
#     Node 22, Type 1, BuildingBlock: TAGTUT_clean_sbu_3, # of connection points: 8
#     Node 23, Type 1, BuildingBlock: TAGTUT_clean_sbu_3, # of connection points: 8
#     Node 24, Type 1, BuildingBlock: TAGTUT_clean_sbu_3, # of connection points: 8
#     Node 25, Type 1, BuildingBlock: TAGTUT_clean_sbu_3, # of connection points: 8
#     Node 26, Type 1, BuildingBlock: TAGTUT_clean_sbu_3, # of connection points: 8
#     Node 27, Type 1, BuildingBlock: TAGTUT_clean_sbu_3, # of connection points: 8
#     Edge 28, Type (0, 1), BuildingBlock: AJUNOK_clean_linker_0, # of connection points: 2
#     Edge 29, Type (0, 1), BuildingBlock: AJUNOK_clean_linker_0, # of connection points: 2
#     Edge 30, Type (0, 1), BuildingBlock: AJUNOK_clean_linker_0, # of connection points: 2
#     Edge 31, Type (0, 1), BuildingBlock: AJUNOK_clean_linker_0, # of connection points: 2
#     Edge 32, Type (0, 1), BuildingBlock: AJUNOK_clean_linker_0, # of connection points: 2
#     Edge 33, Type (0, 1), BuildingBlock: AJUNOK_clean_linker_0, # of connection points: 2
#     Edge 34, Type (0, 1), BuildingBlock: AJUNOK_clean_linker_0, # of connection points: 2
#     Edge 35, Type (0, 1), BuildingBlock: AJUNOK_clean_linker_0, # of connection points: 2
#     Edge 36, Type (0, 1), BuildingBlock: AJUNOK_clean_linker_0, # of connection points: 2
#     Edge 37, Type (0, 1), BuildingBlock: AJUNOK_clean_linker_0, # of connection points: 2
#     Edge 38, Type (0, 1), BuildingBlock: AJUNOK_clean_linker_0, # of connection points: 2
#     Edge 39, Type (0, 1), BuildingBlock: AJUNOK_clean_linker_0, # of connection points: 2
#     Edge 40, Type (0, 1), BuildingBlock: AJUNOK_clean_linker_0, # of connection points: 2
#     Edge 41, Type (0, 1), BuildingBlock: AJUNOK_clean_linker_0, # of connection points: 2
#     Edge 42, Type (0, 1), BuildingBlock: AJUNOK_clean_linker_0, # of connection points: 2
#     Edge 43, Type (0, 1), BuildingBlock: AJUNOK_clean_linker_0, # of connection points: 2
#     Edge 44, Type (0, 1), BuildingBlock: AJUNOK_clean_linker_0, # of connection points: 2
#     Edge 45, Type (0, 1), BuildingBlock: AJUNOK_clean_linker_0, # of connection points: 2
#     Edge 46, Type (0, 1), BuildingBlock: AJUNOK_clean_linker_0, # of connection points: 2
#     Edge 47, Type (0, 1), BuildingBlock: AJUNOK_clean_linker_0, # of connection points: 2
#     Edge 48, Type (0, 1), BuildingBlock: AJUNOK_clean_linker_0, # of connection points: 2
#     Edge 49, Type (0, 1), BuildingBlock: AJUNOK_clean_linker_0, # of connection points: 2
#     Edge 50, Type (0, 1), BuildingBlock: AJUNOK_clean_linker_0, # of connection points: 2
#     Edge 51, Type (0, 1), BuildingBlock: AJUNOK_clean_linker_0, # of connection points: 2
#     Edge 52, Type (0, 1), BuildingBlock: AJUNOK_clean_linker_0, # of connection points: 2
#     Edge 53, Type (0, 1), BuildingBlock: AJUNOK_clean_linker_0, # of connection points: 2
#     Edge 54, Type (0, 1), BuildingBlock: AJUNOK_clean_linker_0, # of connection points: 2
#     Edge 55, Type (0, 1), BuildingBlock: AJUNOK_clean_linker_0, # of connection points: 2
#     Edge 56, Type (0, 1), BuildingBlock: AJUNOK_clean_linker_0, # of connection points: 2
#     Edge 57, Type (0, 1), BuildingBlock: AJUNOK_clean_linker_0, # of connection points: 2
#     Edge 58, Type (0, 1), BuildingBlock: AJUNOK_clean_linker_0, # of connection points: 2
#     Edge 59, Type (0, 1), BuildingBlock: AJUNOK_clean_linker_0, # of connection points: 2
#     Edge 60, Type (0, 1), BuildingBlock: AJUNOK_clean_linker_0, # of connection points: 2
#     Edge 61, Type (0, 1), BuildingBlock: AJUNOK_clean_linker_0, # of connection points: 2
#     Edge 62, Type (0, 1), BuildingBlock: AJUNOK_clean_linker_0, # of connection points: 2
#     Edge 63, Type (0, 1), BuildingBlock: AJUNOK_clean_linker_0, # of connection points: 2
#     Edge 64, Type (0, 1), BuildingBlock: AJUNOK_clean_linker_0, # of connection points: 2
#     Edge 65, Type (0, 1), BuildingBlock: AJUNOK_clean_linker_0, # of connection points: 2
#     Edge 66, Type (0, 1), BuildingBlock: AJUNOK_clean_linker_0, # of connection points: 2
#     Edge 67, Type (0, 1), BuildingBlock: AJUNOK_clean_linker_0, # of connection points: 2
#     Edge 68, Type (0, 1), BuildingBlock: AJUNOK_clean_linker_0, # of connection points: 2
#     Edge 69, Type (0, 1), BuildingBlock: AJUNOK_clean_linker_0, # of connection points: 2
#     Edge 70, Type (0, 1), BuildingBlock: AJUNOK_clean_linker_0, # of connection points: 2
#     Edge 71, Type (0, 1), BuildingBlock: AJUNOK_clean_linker_0, # of connection points: 2
#     Edge 72, Type (0, 1), BuildingBlock: AJUNOK_clean_linker_0, # of connection points: 2
#     Edge 73, Type (0, 1), BuildingBlock: AJUNOK_clean_linker_0, # of connection points: 2
#     Edge 74, Type (0, 1), BuildingBlock: AJUNOK_clean_linker_0, # of connection points: 2
#     Edge 75, Type (0, 1), BuildingBlock: AJUNOK_clean_linker_0, # of connection points: 2
#     Edge 76, Type (0, 1), BuildingBlock: AJUNOK_clean_linker_0, # of connection points: 2
#     Edge 77, Type (0, 1), BuildingBlock: AJUNOK_clean_linker_0, # of connection points: 2
#     Edge 78, Type (0, 1), BuildingBlock: AJUNOK_clean_linker_0, # of connection points: 2
#     Edge 79, Type (0, 1), BuildingBlock: AJUNOK_clean_linker_0, # of connection points: 2
#     Edge 80, Type (0, 1), BuildingBlock: AJUNOK_clean_linker_0, # of connection points: 2
#     Edge 81, Type (0, 1), BuildingBlock: AJUNOK_clean_linker_0, # of connection points: 2
#     Edge 82, Type (0, 1), BuildingBlock: AJUNOK_clean_linker_0, # of connection points: 2
#     Edge 83, Type (0, 1), BuildingBlock: AJUNOK_clean_linker_0, # of connection points: 2
#     Edge 84, Type (0, 1), BuildingBlock: AJUNOK_clean_linker_0, # of connection points: 2
#     Edge 85, Type (0, 1), BuildingBlock: AJUNOK_clean_linker_0, # of connection points: 2
#     Edge 86, Type (0, 1), BuildingBlock: AJUNOK_clean_linker_0, # of connection points: 2
#     Edge 87, Type (0, 1), BuildingBlock: AJUNOK_clean_linker_0, # of connection points: 2
#     Edge 88, Type (0, 1), BuildingBlock: AJUNOK_clean_linker_0, # of connection points: 2
#     Edge 89, Type (0, 1), BuildingBlock: AJUNOK_clean_linker_0, # of connection points: 2
#     Edge 90, Type (0, 1), BuildingBlock: AJUNOK_clean_linker_0, # of connection points: 2
#     Edge 91, Type (0, 1), BuildingBlock: AJUNOK_clean_linker_0, # of connection points: 2
#     Edge 92, Type (0, 1), BuildingBlock: AJUNOK_clean_linker_0, # of connection points: 2
#     Edge 93, Type (0, 1), BuildingBlock: AJUNOK_clean_linker_0, # of connection points: 2
#     Edge 94, Type (0, 1), BuildingBlock: AJUNOK_clean_linker_0, # of connection points: 2
#     Edge 95, Type (0, 1), BuildingBlock: AJUNOK_clean_linker_0, # of connection points: 2
#     Edge 96, Type (0, 1), BuildingBlock: AJUNOK_clean_linker_0, # of connection points: 2
#     Edge 97, Type (0, 1), BuildingBlock: AJUNOK_clean_linker_0, # of connection points: 2
#     Edge 98, Type (0, 1), BuildingBlock: AJUNOK_clean_linker_0, # of connection points: 2
#     Edge 99, Type (0, 1), BuildingBlock: AJUNOK_clean_linker_0, # of connection points: 2
#     Edge 100, Type (0, 1), BuildingBlock: AJUNOK_clean_linker_0, # of connection points: 2
#     Edge 101, Type (0, 1), BuildingBlock: AJUNOK_clean_linker_0, # of connection points: 2
#     Edge 102, Type (0, 1), BuildingBlock: AJUNOK_clean_linker_0, # of connection points: 2
#     Edge 103, Type (0, 1), BuildingBlock: AJUNOK_clean_linker_0, # of connection points: 2
#     Edge 104, Type (0, 1), BuildingBlock: AJUNOK_clean_linker_0, # of connection points: 2
#     Edge 105, Type (0, 1), BuildingBlock: AJUNOK_clean_linker_0, # of connection points: 2
#     Edge 106, Type (0, 1), BuildingBlock: AJUNOK_clean_linker_0, # of connection points: 2
#     Edge 107, Type (0, 1), BuildingBlock: AJUNOK_clean_linker_0, # of connection points: 2
#     Edge 108, Type (0, 1), BuildingBlock: AJUNOK_clean_linker_0, # of connection points: 2
#     Edge 109, Type (0, 1), BuildingBlock: AJUNOK_clean_linker_0, # of connection points: 2
#     Edge 110, Type (0, 1), BuildingBlock: AJUNOK_clean_linker_0, # of connection points: 2
#     Edge 111, Type (0, 1), BuildingBlock: AJUNOK_clean_linker_0, # of connection points: 2
#     Edge 112, Type (0, 1), BuildingBlock: AJUNOK_clean_linker_0, # of connection points: 2
#     Edge 113, Type (0, 1), BuildingBlock: AJUNOK_clean_linker_0, # of connection points: 2
#     Edge 114, Type (0, 1), BuildingBlock: AJUNOK_clean_linker_0, # of connection points: 2
#     Edge 115, Type (0, 1), BuildingBlock: AJUNOK_clean_linker_0, # of connection points: 2
#     Edge 116, Type (0, 1), BuildingBlock: AJUNOK_clean_linker_0, # of connection points: 2
#     Edge 117, Type (0, 1), BuildingBlock: AJUNOK_clean_linker_0, # of connection points: 2
#     Edge 118, Type (0, 1), BuildingBlock: AJUNOK_clean_linker_0, # of connection points: 2
#     Edge 119, Type (0, 1), BuildingBlock: AJUNOK_clean_linker_0, # of connection points: 2
#     Edge 120, Type (0, 1), BuildingBlock: AJUNOK_clean_linker_0, # of connection points: 2
#     Edge 121, Type (0, 1), BuildingBlock: AJUNOK_clean_linker_0, # of connection points: 2
#     Edge 122, Type (0, 1), BuildingBlock: AJUNOK_clean_linker_0, # of connection points: 2
#     Edge 123, Type (0, 1), BuildingBlock: AJUNOK_clean_linker_0, # of connection points: 2
# Relax obj value: 0.178
# Max RMSD: 0.262
# Mean RMSD: 0.254
data_MOF--net-tph--node1-OJICUG_clean_sbu_0--node2-TAGTUT_clean_sbu_3--edge1-AJUNOK_clean_linker_0
_symmetry_space_group_name_H-M    P1
_symmetry_Int_Tables_number       1
_symmetry_cell_setting            triclinic
loop_
_symmetry_equiv_pos_as_xyz
'x, y, z'
_cell_length_a     36.68677
_cell_length_b     36.748996
_cell_length_c     36.49491
_cell_angle_alpha  89.375616
_cell_angle_beta   89.897595
_cell_angle_gamma 89.029491
loop_
_atom_site_label
_atom_site_type_symbol
_atom_site_fract_x
_atom_site_fract_y
_atom_site_fract_z
_atom_type_partial_charge
Sc0 Sc 0.14225 0.21891 0.22228 0.0
Sc1 Sc 0.20881 0.15122 0.2246 0.0
Sc2 Sc 0.20348 0.21098 0.15157 0.0
O3 O 0.18532 0.1941 0.2 0.0
C4 C 0.12149 0.21409 0.13888 0.0
C5 C 0.12493 0.13806 0.23525 0.0
C6 C 0.2112 0.1251 0.14488 0.0
C7 C 0.19095 0.19582 0.29236 0.0
C8 C 0.17943 0.28525 0.19059 0.0
C9 C 0.27527 0.1933 0.18622 0.0
O10 O 0.11655 0.23006 0.16938 0.0
O11 O 0.15744 0.13069 0.24547 0.0
O12 O 0.22009 0.15676 0.13389 0.0
O13 O 0.16141 0.20786 0.27789 0.0
O14 O 0.18802 0.26739 0.16201 0.0
O15 O 0.2622 0.166 0.20343 0.0
O16 O 0.1694 0.26994 0.22027 0.0
O17 O 0.21673 0.18202 0.27343 0.0
O18 O 0.25533 0.21934 0.1744 0.0
O19 O 0.11486 0.16884 0.22258 0.0
O20 O 0.15208 0.20118 0.12903 0.0
O21 O 0.2005 0.11874 0.17734 0.0
Sc22 Sc 0.46042 0.60399 0.03924 0.0
Sc23 Sc 0.39047 0.54916 0.07221 0.0
Sc24 Sc 0.46602 0.56666 0.12644 0.0
O25 O 0.43904 0.57233 0.07879 0.0
C26 C 0.53131 0.57218 0.06652 0.0
C27 C 0.41753 0.54554 0.99142 0.0
C28 C 0.44265 0.48664 0.10934 0.0
C29 C 0.37916 0.63141 0.04325 0.0
C30 C 0.4745 0.64825 0.11102 0.0
C31 C 0.38445 0.5694 0.15548 0.0
O32 O 0.50967 0.57227 0.03941 0.0
O33 O 0.40201 0.53045 0.0184 0.0
O34 O 0.46671 0.50876 0.12035 0.0
O35 O 0.41294 0.63678 0.03914 0.0
O36 O 0.46323 0.62377 0.13274 0.0
O37 O 0.37152 0.5666 0.12372 0.0
O38 O 0.48325 0.64217 0.07787 0.0
O39 O 0.36594 0.60049 0.05208 0.0
O40 O 0.41813 0.56416 0.16217 0.0
O41 O 0.43839 0.57263 0.9947 0.0
O42 O 0.51938 0.57229 0.09947 0.0
O43 O 0.4128 0.49707 0.09374 0.0
Sc44 Sc 0.84531 0.27686 0.19602 0.0
Sc45 Sc 0.7796 0.28725 0.13072 0.0
Sc46 Sc 0.78175 0.34506 0.20348 0.0
O47 O 0.80219 0.30347 0.17629 0.0
C48 C 0.804 0.30461 0.2686 0.0
C49 C 0.80201 0.21284 0.17457 0.0
C50 C 0.71087 0.30836 0.17039 0.0
C51 C 0.85474 0.26891 0.10866 0.0
C52 C 0.86816 0.35396 0.20644 0.0
C53 C 0.77473 0.37536 0.12616 0.0
O54 O 0.83358 0.29401 0.25302 0.0
O55 O 0.79311 0.22907 0.14436 0.0
O56 O 0.72588 0.33497 0.18624 0.0
O57 O 0.86263 0.2572 0.14097 0.0
O58 O 0.83656 0.36106 0.21986 0.0
O59 O 0.76552 0.34425 0.11362 0.0
O60 O 0.87548 0.32489 0.18912 0.0
O61 O 0.83019 0.29295 0.10392 0.0
O62 O 0.78788 0.37904 0.15783 0.0
O63 O 0.8126 0.23033 0.20228 0.0
O64 O 0.77577 0.31055 0.24964 0.0
O65 O 0.72895 0.28171 0.15767 0.0
Sc66 Sc 0.61229 0.9563 0.07098 0.0
Sc67 Sc 0.57146 0.87291 0.05501 0.0
Sc68 Sc 0.53281 0.93264 0.11653 0.0
O69 O 0.57177 0.9215 0.07938 0.0
C70 C 0.601 0.95576 0.15788 0.0
C71 C 0.65547 0.88216 0.07159 0.0
C72 C 0.55038 0.85444 0.13488 0.0
C73 C 0.59799 0.92371 0.99034 0.0
C74 C 0.55136 0.0124 0.0867 0.0
C75 C 0.4869 0.89896 0.05643 0.0
O76 O 0.61465 0.96851 0.12837 0.0
O77 O 0.6291 0.86553 0.05741 0.0
O78 O 0.52437 0.87666 0.12944 0.0
O79 O 0.61321 0.94545 0.01251 0.0
O80 O 0.53594 0.9906 0.10882 0.0
O81 O 0.51174 0.87479 0.05057 0.0
O82 O 0.57467 0.00145 0.06317 0.0
O83 O 0.57702 0.89815 0.0012 0.0
O84 O 0.49276 0.92775 0.07463 0.0
O85 O 0.65381 0.91525 0.08092 0.0
O86 O 0.57289 0.93607 0.15901 0.0
O87 O 0.57215 0.84707 0.10893 0.0
Sc88 Sc 0.19196 0.84723 0.27627 0.0
Sc89 Sc 0.13673 0.77233 0.27294 0.0
Sc90 Sc 0.18767 0.78721 0.3487 0.0
O91 O 0.17206 0.80284 0.29894 0.0
C92 C 0.26114 0.80658 0.31805 0.0
C93 C 0.18577 0.80176 0.20685 0.0
C94 C 0.17585 0.71206 0.30884 0.0
C95 C 0.10524 0.84849 0.25626 0.0
C96 C 0.1898 0.87328 0.35491 0.0
C97 C 0.10672 0.77697 0.35412 0.0
O98 O 0.24724 0.83417 0.30033 0.0
O99 O 0.15774 0.78553 0.21885 0.0
O100 O 0.17685 0.72997 0.3385 0.0
O101 O 0.13706 0.86276 0.25321 0.0
O102 O 0.19998 0.84186 0.36626 0.0
O103 O 0.10828 0.75885 0.32438 0.0
O104 O 0.17763 0.87866 0.32289 0.0
O105 O 0.1008 0.81623 0.2674 0.0
O106 O 0.13331 0.79514 0.3657 0.0
O107 O 0.20718 0.8186 0.2277 0.0
O108 O 0.2416 0.78085 0.32989 0.0
O109 O 0.17412 0.72839 0.2783 0.0
Sc110 Sc 0.07374 0.6178 0.95154 0.0
Sc111 Sc 0.04727 0.56074 0.88322 0.0
Sc112 Sc 0.11369 0.53112 0.94348 0.0
O113 O 0.07646 0.5688 0.9287 0.0
C114 C 0.15906 0.60304 0.9495 0.0
C115 C 0.06311 0.63845 0.86912 0.0
C116 C 0.12671 0.54243 0.86276 0.0
C117 C 0.99045 0.59405 0.93481 0.0
C118 C 0.08866 0.56593 0.02054 0.0
C119 C 0.05578 0.47993 0.91498 0.0
O120 O 0.1312 0.62227 0.95744 0.0
O121 O 0.03747 0.61662 0.87181 0.0
O122 O 0.12402 0.51807 0.88738 0.0
O123 O 0.01435 0.61621 0.9466 0.0
O124 O 0.10558 0.54268 0.00075 0.0
O125 O 0.0497 0.50211 0.88865 0.0
O126 O 0.07115 0.59355 0.00709 0.0
O127 O -0.00163 0.566 0.91538 0.0
O128 O 0.07243 0.48966 0.94393 0.0
O129 O 0.0824 0.64427 0.89726 0.0
O130 O 0.15787 0.56958 0.9412 0.0
O131 O 0.09911 0.56208 0.85418 0.0
Sc132 Sc 0.85254 0.6999 0.30233 0.0
Sc133 Sc 0.78729 0.63544 0.29641 0.0
Sc134 Sc 0.77942 0.70206 0.36019 0.0
O135 O 0.80628 0.67953 0.31935 0.0
C136 C 0.85399 0.71256 0.39046 0.0
C137 C 0.87471 0.62263 0.29441 0.0
C138 C 0.76793 0.61581 0.37156 0.0
C139 C 0.81411 0.66927 0.22838 0.0
C140 C 0.81498 0.77029 0.31619 0.0
C141 C 0.71443 0.68212 0.31805 0.0
O142 O 0.86629 0.72008 0.35823 0.0
O143 O 0.84312 0.61496 0.28177 0.0
O144 O 0.75759 0.64854 0.37887 0.0
O145 O 0.84247 0.68069 0.24527 0.0
O146 O 0.79966 0.75702 0.34501 0.0
O147 O 0.72925 0.65125 0.30985 0.0
O148 O 0.82578 0.74997 0.2904 0.0
O149 O 0.78468 0.66313 0.2455 0.0
O150 O 0.73411 0.70921 0.32488 0.0
O151 O 0.87894 0.64984 0.31483 0.0
O152 O 0.82509 0.69459 0.39482 0.0
O153 O 0.792 0.60947 0.34762 0.0
Sc154 Sc 0.95728 0.92996 0.88602 0.0
Sc155 Sc 0.88092 0.95486 0.93642 0.0
Sc156 Sc 0.94007 0.88911 0.97109 0.0
O157 O 0.92791 0.92626 0.93219 0.0
C158 C 0.95817 0.84509 0.89928 0.0
C159 C 0.87706 0.93578 0.85528 0.0
C160 C 0.86009 0.87536 0.95735 0.0
C161 C 0.93392 0.0132 0.90597 0.0
C162 C 0.01932 0.91473 0.9443 0.0
C163 C 0.90753 0.94859 0.02026 0.0
O164 O 0.96784 0.87334 0.882 0.0
O165 O 0.87086 0.95954 0.87919 0.0
O166 O 0.88415 0.8778 0.98182 0.0
O167 O 0.94935 0.98857 0.88651 0.0
O168 O 0.997 0.89755 0.96446 0.0
O169 O 0.884 0.95592 0.99554 0.0
O170 O 0.00895 0.93365 0.91628 0.0
O171 O 0.91052 0.00573 0.9311 0.0
O172 O 0.93617 0.92951 0.01372 0.0
O173 O 0.90811 0.91999 0.85308 0.0
O174 O 0.94327 0.84583 0.93077 0.0
O175 O 0.85263 0.90258 0.93657 0.0
Sc176 Sc 0.39524 0.45593 0.45057 0.0
Sc177 Sc 0.45845 0.3878 0.47215 0.0
Sc178 Sc 0.46016 0.42842 0.38669 0.0
O179 O 0.43809 0.425 0.43661 0.0
C180 C 0.37457 0.43773 0.36924 0.0
C181 C 0.37627 0.37235 0.47243 0.0
C182 C 0.46659 0.34626 0.39756 0.0
C183 C 0.42593 0.44746 0.52783 0.0
C184 C 0.448 0.51196 0.40635 0.0
C185 C 0.52887 0.41471 0.44333 0.0
O186 O 0.3674 0.44539 0.402 0.0
O187 O 0.40887 0.36061 0.47047 0.0
O188 O 0.45215 0.37199 0.37925 0.0
O189 O 0.41815 0.4695 0.50211 0.0
O190 O 0.46658 0.4863 0.39165 0.0
O191 O 0.50836 0.41582 0.47141 0.0
O192 O 0.42039 0.50571 0.42719 0.0
O193 O 0.43909 0.4159 0.52131 0.0
O194 O 0.51572 0.41724 0.41059 0.0
O195 O 0.36721 0.40642 0.47153 0.0
O196 O 0.40738 0.43509 0.35747 0.0
O197 O 0.47899 0.35091 0.42968 0.0
Sc198 Sc 0.3444 0.79275 0.68646 0.0
Sc199 Sc 0.26448 0.77965 0.63997 0.0
Sc200 Sc 0.27487 0.85528 0.69278 0.0
O201 O 0.29498 0.80918 0.67226 0.0
C202 C 0.31045 0.82911 0.76041 0.0
C203 C 0.30867 0.71875 0.68822 0.0
C204 C 0.2042 0.80752 0.68478 0.0
C205 C 0.33781 0.76844 0.60116 0.0
C206 C 0.35892 0.87222 0.68156 0.0
C207 C 0.24967 0.86406 0.61555 0.0
O208 O 0.3382 0.81709 0.74221 0.0
O209 O 0.28747 0.72738 0.66143 0.0
O210 O 0.21813 0.83879 0.68792 0.0
O211 O 0.35481 0.76801 0.63198 0.0
O212 O 0.32893 0.87875 0.69821 0.0
O213 O 0.24071 0.83035 0.6143 0.0
O214 O 0.36486 0.84239 0.66548 0.0
O215 O 0.30477 0.77885 0.59839 0.0
O216 O 0.27098 0.87643 0.63948 0.0
O217 O 0.32464 0.74254 0.707 0.0
O218 O 0.27934 0.83268 0.74574 0.0
O219 O 0.2246 0.77964 0.68226 0.0
Sc220 Sc 0.11889 0.45809 0.57444 0.0
Sc221 Sc 0.07962 0.37467 0.55403 0.0
Sc222 Sc 0.03848 0.43138 0.61638 0.0
O223 O 0.07863 0.42242 0.58001 0.0
C224 C 0.10775 0.44874 0.6601 0.0
C225 C 0.16347 0.38424 0.57168 0.0
C226 C 0.05501 0.35234 0.6309 0.0
C227 C 0.10596 0.42904 0.49229 0.0
C228 C 0.05718 0.51287 0.59286 0.0
C229 C 0.99526 0.40101 0.55316 0.0
O230 O 0.12067 0.46624 0.63279 0.0
O231 O 0.13729 0.36736 0.55751 0.0
O232 O 0.02933 0.37474 0.62479 0.0
O233 O 0.12016 0.45065 0.51533 0.0
O234 O 0.04169 0.48968 0.6133 0.0
O235 O 0.02012 0.37667 0.54824 0.0
O236 O 0.08099 0.50352 0.5691 0.0
O237 O 0.08614 0.40219 0.50192 0.0
O238 O -0.00029 0.42921 0.57272 0.0
O239 O 0.16115 0.41703 0.58199 0.0
O240 O 0.07853 0.43075 0.65904 0.0
O241 O 0.07872 0.34652 0.60641 0.0
Sc242 Sc 0.94176 0.10957 0.53639 0.0
Sc243 Sc 0.88372 0.04664 0.57313 0.0
Sc244 Sc 0.96459 0.06669 0.61902 0.0
O245 O 0.9315 0.07239 0.57565 0.0
C246 C 0.02316 0.08816 0.56156 0.0
C247 C 0.91321 0.0489 0.48956 0.0
C248 C 0.9384 0.98504 0.60089 0.0
C249 C 0.86288 0.12408 0.54784 0.0
C250 C 0.9535 0.15181 0.60892 0.0
C251 C 0.8872 0.06173 0.65816 0.0
O252 O -0.00025 0.10698 0.54376 0.0
O253 O 0.8889 0.04269 0.51388 0.0
O254 O 0.95858 0.00806 0.617 0.0
O255 O 0.88561 0.11677 0.52319 0.0
O256 O 0.97021 0.12466 0.62356 0.0
O257 O 0.87231 0.04818 0.63035 0.0
O258 O 0.93835 0.15102 0.57765 0.0
O259 O 0.85568 0.09966 0.57141 0.0
O260 O 0.92016 0.07181 0.65846 0.0
O261 O 0.94154 0.06773 0.49589 0.0
O262 O 0.01397 0.06435 0.58543 0.0
O263 O 0.91152 0.99414 0.58013 0.0
Sc264 Sc 0.68811 0.71068 0.64392 0.0
Sc265 Sc 0.64088 0.72751 0.72332 0.0
Sc266 Sc 0.70486 0.65697 0.72066 0.0
O267 O 0.67861 0.69833 0.69617 0.0
C268 C 0.6969 0.6242 0.64356 0.0
C269 C 0.60571 0.71978 0.64559 0.0
C270 C 0.62108 0.64827 0.74235 0.0
C271 C 0.67662 0.78847 0.68156 0.0
C272 C 0.76628 0.69485 0.67023 0.0
C273 C 0.69508 0.70306 0.78811 0.0
O274 O 0.69848 0.65516 0.62789 0.0
O275 O 0.6082 0.73906 0.67425 0.0
O276 O 0.65453 0.63865 0.74655 0.0
O277 O 0.67812 0.76854 0.65315 0.0
O278 O 0.75576 0.6711 0.69373 0.0
O279 O 0.66493 0.71692 0.77724 0.0
O280 O 0.74452 0.71692 0.65403 0.0
O281 O 0.6716 0.77549 0.71365 0.0
O282 O 0.71837 0.69084 0.76558 0.0
O283 O 0.63258 0.70214 0.63274 0.0
O284 O 0.6941 0.61996 0.67789 0.0
O285 O 0.61104 0.67962 0.7309 0.0
Sc286 Sc 0.69472 0.34426 0.78088 0.0
Sc287 Sc 0.6356 0.27317 0.77514 0.0
Sc288 Sc 0.68552 0.28464 0.85282 0.0
O289 O 0.67218 0.30083 0.80263 0.0
C290 C 0.76054 0.30306 0.82638 0.0
C291 C 0.68982 0.29995 0.71182 0.0
C292 C 0.67207 0.21012 0.81139 0.0
C293 C 0.61005 0.34998 0.75549 0.0
C294 C 0.68938 0.37056 0.85868 0.0
C295 C 0.60377 0.27695 0.85544 0.0
O296 O 0.7476 0.33076 0.80839 0.0
O297 O 0.65954 0.28654 0.72194 0.0
O298 O 0.67379 0.2278 0.84123 0.0
O299 O 0.64298 0.36135 0.75326 0.0
O300 O 0.69865 0.33909 0.87063 0.0
O301 O 0.60525 0.25973 0.82522 0.0
O302 O 0.67798 0.37602 0.82637 0.0
O303 O 0.60235 0.31963 0.76995 0.0
O304 O 0.63066 0.29395 0.86809 0.0
O305 O 0.71175 0.31365 0.73444 0.0
O306 O 0.74044 0.27709 0.83671 0.0
O307 O 0.66945 0.22635 0.78073 0.0
Sc308 Sc 0.57043 0.12048 0.45306 0.0
Sc309 Sc 0.54892 0.06057 0.386 0.0
Sc310 Sc 0.61686 0.03684 0.44723 0.0
O311 O 0.57722 0.07149 0.43137 0.0
C312 C 0.6564 0.11271 0.45168 0.0
C313 C 0.55647 0.13996 0.37061 0.0
C314 C 0.62936 0.04905 0.36622 0.0
C315 C 0.48979 0.08896 0.4381 0.0
C316 C 0.5887 0.07067 0.52346 0.0
C317 C 0.56276 0.98112 0.4187 0.0
O318 O 0.62687 0.1296 0.45863 0.0
O319 O 0.53375 0.11513 0.37375 0.0
O320 O 0.62806 0.0247 0.39105 0.0
O321 O 0.51158 0.11367 0.4488 0.0
O322 O 0.60727 0.04787 0.50461 0.0
O323 O 0.55628 0.00245 0.39179 0.0
O324 O 0.57024 0.09722 0.50907 0.0
O325 O 0.50011 0.06158 0.41877 0.0
O326 O 0.57871 0.99214 0.44758 0.0
O327 O 0.5764 0.1469 0.39805 0.0
O328 O 0.65824 0.07872 0.44523 0.0
O329 O 0.60034 0.06611 0.35643 0.0
Sc330 Sc 0.35245 0.20127 0.80616 0.0
Sc331 Sc 0.29043 0.13401 0.8044 0.0
Sc332 Sc 0.27843 0.20398 0.86336 0.0
O333 O 0.30692 0.18027 0.82412 0.0
C334 C 0.35288 0.21665 0.89384 0.0
C335 C 0.37837 0.12456 0.80211 0.0
C336 C 0.27083 0.11863 0.8797 0.0
C337 C 0.31477 0.16549 0.73434 0.0
C338 C 0.3131 0.27072 0.81688 0.0
C339 C 0.2152 0.17927 0.82044 0.0
O340 O 0.36532 0.22375 0.86152 0.0
O341 O 0.34691 0.11494 0.79066 0.0
O342 O 0.25767 0.15087 0.88412 0.0
O343 O 0.3428 0.17907 0.75011 0.0
O344 O 0.29794 0.25878 0.84634 0.0
O345 O 0.23181 0.14856 0.81551 0.0
O346 O 0.32293 0.24908 0.79194 0.0
O347 O 0.28616 0.15814 0.75222 0.0
O348 O 0.2329 0.20777 0.8275 0.0
O349 O 0.38185 0.15329 0.82044 0.0
O350 O 0.32381 0.199 0.89849 0.0
O351 O 0.29681 0.113 0.8577 0.0
C352 C 0.06584 0.19848 0.87406 0.0
C353 C 0.02633 0.22152 0.01487 0.0
C354 C 0.92274 0.22151 0.97565 0.0
Mg355 Mg 0.01764 0.21384 0.80341 0.0
Mg356 Mg 0.9708 0.28941 0.79738 0.0
O357 O 0.97591 0.24494 0.82209 0.0
Mg358 Mg 0.98946 0.2469 0.87512 0.0
O359 O 0.00623 0.24264 0.92749 0.0
Mg360 Mg 0.00031 0.18844 0.93639 0.0
Mg361 Mg 0.98041 0.27028 0.9609 0.0
C362 C 0.91402 0.29661 0.86117 0.0
O363 O 0.00948 0.30821 0.87795 0.0
O364 O 0.98512 0.21246 0.75007 0.0
O365 O 0.99354 0.32106 0.93648 0.0
O366 O 0.0469 0.26147 0.7765 0.0
O367 O 0.95698 0.26748 0.74438 0.0
O368 O 0.02279 0.31379 0.79391 0.0
O369 O 0.97018 0.18797 0.88143 0.0
O370 O 0.98804 0.16437 0.8286 0.0
C371 C 0.97258 0.16096 0.8599 0.0
C372 C 0.9652 0.23575 0.73236 0.0
O373 O 0.93053 0.27229 0.88145 0.0
O374 O 0.02869 0.19654 0.99067 0.0
O375 O 0.92864 0.31061 0.83242 0.0
O376 O 0.9471 0.19651 0.97184 0.0
O377 O 0.00824 0.25124 0.00953 0.0
O378 O 0.92636 0.25208 0.95978 0.0
O379 O 0.04484 0.22251 0.85941 0.0
O380 O 0.0559 0.18156 0.90336 0.0
C381 C 0.04672 0.29609 0.77583 0.0
C382 C 0.0068 0.33036 0.90534 0.0
C383 C 0.57012 0.70444 0.38433 0.0
C384 C 0.51542 0.73063 0.52034 0.0
C385 C 0.41675 0.72794 0.47007 0.0
Mg386 Mg 0.53336 0.71789 0.30939 0.0
Mg387 Mg 0.48216 0.78917 0.29428 0.0
O388 O 0.48625 0.74544 0.32062 0.0
Mg389 Mg 0.49262 0.74968 0.37544 0.0
O390 O 0.5033 0.74765 0.42947 0.0
Mg391 Mg 0.49881 0.6937 0.43984 0.0
Mg392 Mg 0.47537 0.77681 0.45983 0.0
C393 C 0.41658 0.79558 0.34973 0.0
O394 O 0.51189 0.81132 0.37909 0.0
O395 O 0.51267 0.71358 0.251 0.0
O396 O 0.49159 0.82672 0.43564 0.0
O397 O 0.5624 0.7679 0.28498 0.0
O398 O 0.48149 0.76608 0.23981 0.0
O399 O 0.53187 0.81668 0.30195 0.0
O400 O 0.47566 0.68913 0.38116 0.0
O401 O 0.50369 0.66649 0.33202 0.0
C402 C 0.48423 0.66194 0.36099 0.0
C403 C 0.49545 0.73566 0.22938 0.0
O404 O 0.43207 0.77376 0.37351 0.0
O405 O 0.52066 0.70474 0.49743 0.0
O406 O 0.43307 0.80728 0.321 0.0
O407 O 0.44122 0.70256 0.46873 0.0
O408 O 0.4982 0.76014 0.51186 0.0
O409 O 0.42194 0.75822 0.45407 0.0
O410 O 0.5498 0.7279 0.36818 0.0
O411 O 0.55832 0.68701 0.41267 0.0
C412 C 0.55772 0.80234 0.28361 0.0
C413 C 0.50798 0.83431 0.4056 0.0
C414 C 0.97404 0.83448 0.6407 0.0
C415 C 0.97884 0.76506 0.7729 0.0
C416 C 0.05515 0.70028 0.72596 0.0
Mg417 Mg 0.99444 0.80225 0.56024 0.0
Mg418 Mg 0.98033 0.71765 0.54309 0.0
O419 O 0.00461 0.74956 0.57296 0.0
Mg420 Mg 0.99189 0.74869 0.62666 0.0
O421 O 0.98187 0.75297 0.68102 0.0
Mg422 Mg 0.02504 0.78256 0.6957 0.0
Mg423 Mg 0.97692 0.71046 0.70843 0.0
C424 C 0.01265 0.66362 0.602 0.0
O425 O 0.93552 0.7231 0.6232 0.0
O426 O 0.01957 0.79014 0.50354 0.0
O427 O 0.93375 0.68948 0.67549 0.0
O428 O 0.93955 0.78966 0.52887 0.0
O429 O 0.00412 0.73253 0.49154 0.0
O430 O 0.92501 0.73326 0.54365 0.0
O431 O 0.04585 0.77361 0.63695 0.0
O432 O 0.05062 0.81144 0.58865 0.0
C433 C 0.06277 0.79795 0.61899 0.0
C434 C 0.01851 0.76265 0.48202 0.0
O435 O 0.01473 0.68806 0.62715 0.0
O436 O -0.00115 0.78599 0.75312 0.0
O437 O -0.00184 0.66957 0.57059 0.0
O438 O 0.05784 0.73474 0.72257 0.0
O439 O 0.9664 0.73489 0.76135 0.0
O440 O 0.02874 0.68394 0.71112 0.0
O441 O 0.96976 0.80759 0.61898 0.0
O442 O 0.99183 0.83032 0.67075 0.0
C443 C 0.91832 0.76246 0.52587 0.0
C444 C 0.91972 0.70051 0.64502 0.0
C445 C 0.85505 0.98422 0.16677 0.0
C446 C 0.72322 0.98454 0.23967 0.0
C447 C 0.77147 0.0572 0.30381 0.0
Mg448 Mg 0.9309 0.00845 0.19918 0.0
Mg449 Mg 0.95255 0.99035 0.28395 0.0
O450 O 0.91883 0.01221 0.25309 0.0
Mg451 Mg 0.8667 0.99659 0.25397 0.0
O452 O 0.81359 0.98477 0.24878 0.0
Mg453 Mg 0.79735 0.02978 0.21995 0.0
Mg454 Mg 0.78923 0.98155 0.29353 0.0
C455 C 0.89107 0.01083 0.34017 0.0
O456 O 0.87176 0.93707 0.27858 0.0
O457 O 0.98381 0.03779 0.21196 0.0
O458 O 0.82147 0.93695 0.31475 0.0
O459 O 0.96624 0.95521 0.20747 0.0
O460 O -0.00139 0.02283 0.26998 0.0
O461 O 0.96162 0.93723 0.26563 0.0
O462 O 0.85323 0.05267 0.23045 0.0
O463 O 0.89776 0.06287 0.19051 0.0
C464 C 0.86767 0.07255 0.20577 0.0
C465 C 0.00531 0.03917 0.23961 0.0
O466 O 0.86594 0.01474 0.3156 0.0
O467 O 0.74234 0.00256 0.2164 0.0
O468 O 0.92342 -0.00075 0.33334 0.0
O469 O 0.77006 0.0591 0.26896 0.0
O470 O 0.73521 0.97388 0.27106 0.0
O471 O 0.79197 0.03323 0.31884 0.0
O472 O 0.87548 0.9795 0.19475 0.0
O473 O 0.82386 0.00048 0.16958 0.0
C474 C 0.9733 0.93233 0.23326 0.0
C475 C 0.85069 0.9217 0.30255 0.0
C476 C 0.20612 0.8636 0.06316 0.0
C477 C 0.23217 0.00195 0.04833 0.0
C478 C 0.23039 0.98269 0.9362 0.0
Mg479 Mg 0.2184 0.7971 0.01309 0.0
Mg480 Mg 0.29307 0.79211 0.96858 0.0
O481 O 0.24833 0.81664 0.97 0.0
Mg482 Mg 0.25335 0.86875 0.98726 0.0
O483 O 0.25088 0.91948 0.00823 0.0
Mg484 Mg 0.19674 0.93131 0.00512 0.0
Mg485 Mg 0.28118 0.95667 0.99453 0.0
C486 C 0.30448 0.85749 0.91347 0.0
O487 O 0.31423 0.8664 0.00744 0.0
O488 O 0.21494 0.74448 0.98056 0.0
O489 O 0.33054 0.9256 0.00257 0.0
O490 O 0.26574 0.76561 0.04183 0.0
O491 O 0.27186 0.7382 0.9572 0.0
O492 O 0.31343 0.7948 0.02275 0.0
O493 O 0.19462 0.87996 0.96904 0.0
O494 O 0.16926 0.82737 0.98465 0.0
C495 C 0.1669 0.8596 0.97071 0.0
C496 C 0.23978 0.72616 0.96355 0.0
O497 O 0.28018 0.87814 0.92929 0.0
O498 O 0.20559 0.98082 0.04169 0.0
O499 O 0.31563 0.8271 0.92746 0.0
O500 O 0.20433 0.97136 0.95635 0.0
O501 O 0.26361 -0.0024 0.03343 0.0
O502 O 0.26335 0.9728 0.94178 0.0
O503 O 0.22984 0.85035 0.04149 0.0
O504 O 0.18979 0.89383 0.05589 0.0
C505 C 0.30018 0.76899 0.04132 0.0
C506 C 0.33799 0.8919 0.00907 0.0
C507 C 0.13391 0.43494 0.19884 0.0
C508 C 0.99325 0.44178 0.23657 0.0
C509 C 0.01025 0.55066 0.25275 0.0
Mg510 Mg 0.19904 0.49061 0.21631 0.0
Mg511 Mg 0.20153 0.52915 0.29684 0.0
O512 O 0.17511 0.52322 0.2534 0.0
Mg513 Mg 0.12512 0.50062 0.25579 0.0
O514 O 0.0767 0.47648 0.25291 0.0
Mg515 Mg 0.06105 0.49017 0.20171 0.0
Mg516 Mg 0.04217 0.48516 0.28853 0.0
C517 C 0.12729 0.56447 0.31379 0.0
O518 O 0.13287 0.47215 0.31432 0.0
O519 O 0.24526 0.53201 0.21662 0.0
O520 O 0.07452 0.47012 0.33441 0.0
O521 O 0.23576 0.45826 0.25753 0.0
O522 O 0.24679 0.55863 0.27225 0.0
O523 O 0.22491 0.47846 0.3137 0.0
O524 O 0.11083 0.52776 0.19913 0.0
O525 O 0.16553 0.52277 0.17342 0.0
C526 C 0.13194 0.5326 0.17144 0.0
C527 C 0.25923 0.55407 0.23963 0.0
O528 O 0.10811 0.55098 0.28794 0.0
O529 O 0.01292 0.45172 0.20925 0.0
O530 O 0.15388 0.54651 0.32819 0.0
O531 O 0.01907 0.53623 0.22196 0.0
O532 O -9e-05 0.45116 0.26948 0.0
O533 O 0.0241 0.53921 0.28269 0.0
O534 O 0.14833 0.45389 0.22391 0.0
O535 O 0.10181 0.44273 0.18643 0.0
C536 C 0.24148 0.45695 0.29199 0.0
C537 C 0.10875 0.46487 0.33915 0.0
C538 C 0.67196 0.63417 0.03057 0.0
C539 C 0.74163 0.76312 0.05025 0.0
C540 C 0.79473 0.73396 0.95636 0.0
Mg541 Mg 0.70294 0.56556 0.9885 0.0
Mg542 Mg 0.78846 0.541 0.9811 0.0
O543 O 0.75503 0.57879 0.97974 0.0
Mg544 Mg 0.75718 0.62768 0.00461 0.0
O545 O 0.75238 0.67706 0.02726 0.0
Mg546 Mg 0.71718 0.70096 0.99129 0.0
Mg547 Mg 0.79649 0.70122 0.02852 0.0
C548 C 0.84043 0.60825 0.97057 0.0
O549 O 0.78693 0.6136 0.06011 0.0
O550 O 0.70841 0.51831 0.9496 0.0
O551 O 0.82496 0.66135 0.06189 0.0
O552 O 0.71945 0.52363 0.03531 0.0
O553 O 0.76731 0.50369 0.94159 0.0
O554 O 0.78032 0.51717 0.03263 0.0
O555 O 0.72784 0.65132 0.95439 0.0
O556 O 0.69197 0.6056 0.93939 0.0
C557 C 0.70434 0.63752 0.93319 0.0
C558 C 0.7335 0.49884 0.935 0.0
O559 O 0.81658 0.63288 0.97977 0.0
O560 O 0.71626 0.74762 0.03212 0.0
O561 O 0.83451 0.574 0.97131 0.0
O562 O 0.76031 0.73587 0.96088 0.0
O563 O 0.77478 0.75148 0.05118 0.0
O564 O 0.8129 0.70948 0.97337 0.0
O565 O 0.70071 0.61465 0.02658 0.0
O566 O 0.67159 0.66795 0.02143 0.0
C567 C 0.74972 0.5099 0.04721 0.0
C568 C 0.81229 0.63197 0.07588 0.0
C569 C 0.17164 0.13759 0.5343 0.0
C570 C 0.24694 0.26169 0.55678 0.0
C571 C 0.30539 0.23442 0.47062 0.0
Mg572 Mg 0.19738 0.0664 0.4926 0.0
Mg573 Mg 0.28138 0.03535 0.49336 0.0
O574 O 0.25123 0.07537 0.48747 0.0
Mg575 Mg 0.25695 0.12408 0.51167 0.0
O576 O 0.25565 0.17435 0.53325 0.0
Mg577 Mg 0.22397 0.20045 0.4957 0.0
Mg578 Mg 0.30029 0.19689 0.53941 0.0
C579 C 0.33928 0.09731 0.48156 0.0
O580 O 0.28457 0.10864 0.56793 0.0
O581 O 0.20208 0.02003 0.45134 0.0
O582 O 0.32591 0.15362 0.5703 0.0
O583 O 0.20712 0.01964 0.53655 0.0
O584 O 0.26039 0.00037 0.45203 0.0
O585 O 0.26716 0.01086 0.54357 0.0
O586 O 0.23203 0.1495 0.46003 0.0
O587 O 0.18997 0.10908 0.44575 0.0
C588 C 0.2067 0.13878 0.4391 0.0
C589 C 0.2276 -0.00146 0.44038 0.0
O590 O 0.31703 0.12419 0.4881 0.0
O591 O 0.22301 0.24799 0.53551 0.0
O592 O 0.33083 0.06375 0.48498 0.0
O593 O 0.27067 0.23415 0.46939 0.0
O594 O 0.27849 0.24718 0.56249 0.0
O595 O 0.32243 0.20886 0.48718 0.0
O596 O 0.19832 0.11489 0.53259 0.0
O597 O 0.17566 0.17059 0.52343 0.0
C598 C 0.23439 0.0024 0.55084 0.0
C599 C 0.31125 0.12503 0.58381 0.0
C600 C 0.36843 0.57223 0.71229 0.0
C601 C 0.50573 0.5438 0.75021 0.0
C602 C 0.48078 0.43565 0.73394 0.0
Mg603 Mg 0.29968 0.52131 0.72135 0.0
Mg604 Mg 0.29514 0.47711 0.79715 0.0
O605 O 0.31888 0.47899 0.75185 0.0
Mg606 Mg 0.3704 0.49439 0.75801 0.0
O607 O 0.4218 0.51215 0.7592 0.0
Mg608 Mg 0.43491 0.51138 0.70546 0.0
Mg609 Mg 0.45553 0.48833 0.78914 0.0
C610 C 0.35786 0.42004 0.80715 0.0
O611 O 0.36755 0.51062 0.81967 0.0
O612 O 0.24872 0.48682 0.71776 0.0
O613 O 0.42374 0.49122 0.83811 0.0
O614 O 0.26872 0.5496 0.76834 0.0
O615 O 0.2426 0.46329 0.77508 0.0
O616 O 0.29323 0.53013 0.81973 0.0
O617 O 0.38201 0.47869 0.69904 0.0
O618 O 0.32972 0.49395 0.67192 0.0
C619 C 0.36225 0.48065 0.67047 0.0
C620 C 0.23119 0.46865 0.74225 0.0
O621 O 0.37793 0.43524 0.7822 0.0
O622 O 0.48532 0.54285 0.72168 0.0
O623 O 0.32997 0.4361 0.82125 0.0
O624 O 0.4722 0.46011 0.71028 0.0
O625 O 0.49978 0.52486 0.77923 0.0
O626 O 0.46946 0.4372 0.76679 0.0
O627 O 0.35272 0.55037 0.73434 0.0
O628 O 0.40017 0.56459 0.69965 0.0
C629 C 0.27048 0.55074 0.80312 0.0
C630 C 0.39143 0.5032 0.84476 0.0
C631 C 0.71373 0.36635 0.57017 0.0
C632 C 0.73063 0.50015 0.55471 0.0
C633 C 0.73321 0.48555 0.44261 0.0
Mg634 Mg 0.72863 0.29848 0.52462 0.0
Mg635 Mg 0.80321 0.29193 0.47759 0.0
O636 O 0.75795 0.31569 0.4807 0.0
Mg637 Mg 0.75995 0.36891 0.49343 0.0
O638 O 0.75426 0.42055 0.51027 0.0
Mg639 Mg 0.69978 0.42963 0.50797 0.0
Mg640 Mg 0.78395 0.45958 0.50378 0.0
C641 C 0.80689 0.35393 0.41783 0.0
O642 O 0.82196 0.37031 0.51192 0.0
O643 O 0.72766 0.24443 0.49561 0.0
O644 O 0.83464 0.43037 0.50733 0.0
O645 O 0.77697 0.27176 0.55501 0.0
O646 O 0.78238 0.23787 0.46761 0.0
O647 O 0.82669 0.2935 0.53049 0.0
O648 O 0.70068 0.37628 0.47478 0.0
O649 O 0.67764 0.32381 0.49357 0.0
C650 C 0.67399 0.3547 0.47698 0.0
C651 C 0.75127 0.22567 0.47745 0.0
O652 O 0.78298 0.37459 0.43404 0.0
O653 O 0.70498 0.48048 0.54264 0.0
O654 O 0.82238 0.32632 0.43359 0.0
O655 O 0.70664 0.46876 0.45769 0.0
O656 O 0.76416 0.49506 0.54613 0.0
O657 O 0.76597 0.48247 0.45386 0.0
O658 O 0.73818 0.35376 0.54905 0.0
O659 O 0.6944 0.39421 0.56088 0.0
C660 C 0.81162 0.27238 0.55347 0.0
C661 C 0.84454 0.39702 0.51198 0.0
C662 C 0.63284 0.03592 0.67271 0.0
C663 C 0.7622 0.04747 0.74136 0.0
C664 C 0.74083 0.94874 0.78742 0.0
Mg665 Mg 0.56116 0.99412 0.69866 0.0
Mg666 Mg 0.53846 0.97768 0.7835 0.0
O667 O 0.57512 0.97604 0.74905 0.0
Mg668 Mg 0.6246 -0.00169 0.75509 0.0
O669 O 0.67576 0.01914 0.75433 0.0
Mg670 Mg 0.69865 0.98909 0.71432 0.0
Mg671 Mg 0.7032 0.02163 0.79745 0.0
C672 C 0.60411 0.95549 0.8355 0.0
O673 O 0.60977 0.04731 0.79024 0.0
O674 O 0.51163 0.95728 0.69973 0.0
O675 O 0.65668 0.04145 0.82943 0.0
O676 O 0.5206 0.03993 0.7228 0.0
O677 O 0.4969 0.94613 0.75841 0.0
O678 O 0.51929 0.03153 0.78364 0.0
O679 O 0.64663 0.95382 0.71971 0.0
O680 O 0.60075 0.94661 0.68035 0.0
C681 C 0.63239 0.93718 0.69294 0.0
C682 C 0.49112 0.94285 0.72405 0.0
O683 O 0.62925 0.96595 0.81276 0.0
O684 O 0.74703 0.02803 0.7168 0.0
O685 O 0.56999 0.95912 0.82884 0.0
O686 O 0.73436 0.95284 0.75326 0.0
O687 O 0.74992 0.05025 0.77425 0.0
O688 O 0.72476 0.96874 0.81098 0.0
O689 O 0.61219 0.02923 0.70031 0.0
O690 O 0.66636 0.02565 0.67324 0.0
C691 C 0.50982 0.04931 0.75505 0.0
C692 C 0.62993 0.05998 0.81584 0.0
C693 C 0.47965 0.33435 0.14323 0.0
C694 C 0.49489 0.26176 0.27435 0.0
C695 C 0.56189 0.19742 0.22066 0.0
Mg696 Mg 0.49485 0.30323 0.06164 0.0
Mg697 Mg 0.47785 0.21924 0.04462 0.0
O698 O 0.50498 0.25016 0.07318 0.0
Mg699 Mg 0.49524 0.24867 0.12743 0.0
O700 O 0.48798 0.25214 0.18261 0.0
Mg701 Mg 0.53331 0.28056 0.19442 0.0
Mg702 Mg 0.48657 0.20817 0.20856 0.0
C703 C 0.51224 0.1638 0.10072 0.0
O704 O 0.43893 0.22294 0.12681 0.0
O705 O 0.5176 0.29126 0.004 0.0
O706 O 0.4414 0.18803 0.17834 0.0
O707 O 0.43898 0.29194 0.0322 0.0
O708 O 0.50005 0.23413 0.99233 0.0
O709 O 0.42308 0.23658 0.04855 0.0
O710 O 0.55016 0.27305 0.13471 0.0
O711 O 0.55182 0.31227 0.08741 0.0
C712 C 0.56586 0.29816 0.11658 0.0
C713 C 0.51515 0.26384 0.98255 0.0
O714 O 0.51722 0.18806 0.12552 0.0
O715 O 0.51201 0.28385 0.25323 0.0
O716 O 0.49544 0.17021 0.0706 0.0
O717 O 0.56725 0.23161 0.21903 0.0
O718 O 0.4822 0.23144 0.2633 0.0
O719 O 0.53847 0.18412 0.19944 0.0
O720 O 0.47317 0.30776 0.12174 0.0
O721 O 0.49924 0.32945 0.17211 0.0
C722 C 0.41693 0.26542 0.03005 0.0
C723 C 0.42541 0.19914 0.14894 0.0
C724 C 0.04812 0.36134 0.69772 0.0
C725 C 0.06071 0.3394 0.66884 0.0
C726 C 0.04972 0.34928 0.73397 0.0
C727 C 0.06202 0.31383 0.74269 0.0
H728 H 0.03536 0.38763 0.69231 0.0
H729 H 0.03752 0.36654 0.75467 0.0
S730 S 0.10389 0.24799 0.6776 0.0
N731 N 0.09145 0.28313 0.65166 0.0
N732 N 0.09286 0.25913 0.71996 0.0
C733 C 0.07834 0.29303 0.71448 0.0
C734 C 0.07763 0.30594 0.67744 0.0
C735 C 0.5602 0.7557 0.60966 0.0
C736 C 0.57346 0.72179 0.62213 0.0
C737 C 0.53929 0.75828 0.57761 0.0
C738 C 0.53119 0.72697 0.55736 0.0
H739 H 0.56862 0.78045 0.62278 0.0
H740 H 0.53167 0.78512 0.56738 0.0
S741 S 0.55246 0.63134 0.5845 0.0
N742 N 0.57196 0.65611 0.61617 0.0
N743 N 0.53233 0.66068 0.5562 0.0
C744 C 0.54093 0.69269 0.57212 0.0
C745 C 0.5621 0.69018 0.60459 0.0
C746 C 0.9246 0.17448 0.66449 0.0
C747 C 0.94574 0.18212 0.63332 0.0
C748 C 0.92771 0.19531 0.69597 0.0
C749 C 0.95162 0.22458 0.69679 0.0
H750 H 0.90854 0.15001 0.66586 0.0
H751 H 0.91405 0.18638 0.72076 0.0
S752 S 0.00625 0.26049 0.61953 0.0
N753 N 0.98639 0.22419 0.60283 0.0
N754 N 0.99197 0.2641 0.66236 0.0
C755 C 0.96923 0.23536 0.66437 0.0
C756 C 0.96629 0.21385 0.6323 0.0
C757 C 0.38709 0.73202 0.56897 0.0
C758 C 0.35594 0.7549 0.56713 0.0
C759 C 0.4045 0.71952 0.53696 0.0
C760 C 0.3916 0.72966 0.50185 0.0
H761 H 0.39857 0.72425 0.5953 0.0
H762 H 0.4297 0.70396 0.53982 0.0
S763 S 0.30991 0.78698 0.4815 0.0
N764 N 0.3118 0.78531 0.52666 0.0
N765 N 0.34487 0.76212 0.46717 0.0
C766 C 0.35958 0.75098 0.49965 0.0
C767 C 0.34175 0.76359 0.53204 0.0
C768 C 0.08228 0.68849 0.82518 0.0
C769 C 0.07169 0.65244 0.83167 0.0
C770 C 0.08201 0.70329 0.7893 0.0
C771 C 0.07183 0.68222 0.75879 0.0
H772 H 0.08767 0.70617 0.84802 0.0
H773 H 0.08638 0.73222 0.78607 0.0
S774 S 0.05065 0.58408 0.76038 0.0
N775 N 0.05567 0.59484 0.80378 0.0
N776 N 0.05891 0.62169 0.73704 0.0
C777 C 0.06649 0.64495 0.76467 0.0
C778 C 0.06508 0.63038 0.80094 0.0
C779 C 0.85665 0.71704 0.45885 0.0
C780 C 0.86998 0.72845 0.42431 0.0
C781 C 0.86969 0.73138 0.49158 0.0
C782 C 0.89687 0.75784 0.49169 0.0
H783 H 0.83635 0.69606 0.46093 0.0
H784 H 0.85978 0.72011 0.51723 0.0
S785 S 0.93867 0.80009 0.40897 0.0
N786 N 0.90989 0.77041 0.39234 0.0
N787 N 0.93503 0.79698 0.45401 0.0
C788 C 0.90917 0.77112 0.45742 0.0
C789 C 0.89578 0.75639 0.4238 0.0
C790 C -0.00204 0.80361 0.86545 0.0
C791 C 0.96281 0.81124 0.87897 0.0
C792 C 0.00287 0.78615 0.83197 0.0
C793 C 0.97281 0.77523 0.8113 0.0
H794 H 0.02157 0.81502 0.87864 0.0
H795 H 0.03025 0.78341 0.821 0.0
S796 S 0.87567 0.78244 0.83841 0.0
N797 N 0.89785 0.8021 0.87202 0.0
N798 N 0.90714 0.76791 0.80927 0.0
C799 C 0.93782 0.77844 0.8267 0.0
C800 C 0.93281 0.79671 0.86074 0.0
C801 C 0.0655 0.80384 0.39994 0.0
C802 C 0.07623 0.77318 0.37971 0.0
C803 C 0.0452 0.80025 0.43204 0.0
C804 C 0.03502 0.76579 0.44517 0.0
H805 H 0.07485 0.83065 0.39209 0.0
H806 H 0.03893 0.82459 0.44746 0.0
S807 S 0.05198 0.67749 0.39868 0.0
N808 N 0.072 0.70789 0.37216 0.0
N809 N 0.03339 0.70066 0.43267 0.0
C810 C 0.04282 0.73514 0.42328 0.0
C811 C 0.06353 0.73896 0.3904 0.0
C812 C 0.69676 0.0465 0.37186 0.0
C813 C 0.66589 0.05892 0.35215 0.0
C814 C 0.73195 0.05149 0.3586 0.0
C815 C 0.73795 0.06795 0.32422 0.0
H816 H 0.69392 0.03139 0.39733 0.0
H817 H 0.75425 0.03908 0.37394 0.0
S818 S 0.66763 0.11631 0.26808 0.0
N819 N 0.64422 0.09683 0.30143 0.0
N820 N 0.71083 0.10515 0.27542 0.0
C821 C 0.70782 0.08498 0.30665 0.0
C822 C 0.67166 0.08044 0.32069 0.0
C823 C 0.25412 0.05438 0.86945 0.0
C824 C 0.25066 0.08591 0.89116 0.0
C825 C 0.24223 0.02064 0.882 0.0
C826 C 0.22576 0.01727 0.91636 0.0
H827 H 0.26832 0.05515 0.8434 0.0
H828 H 0.24901 0.9966 0.86626 0.0
S829 S 0.20341 0.09214 0.98056 0.0
N830 N 0.22453 0.11241 0.9461 0.0
N831 N 0.20149 0.04866 0.96976 0.0
C832 C 0.21791 0.04912 0.93635 0.0
C833 C 0.23055 0.08363 0.92372 0.0
C834 C 0.3418 0.44066 0.30801 0.0
C835 C 0.34197 0.43211 0.34564 0.0
C836 C 0.30859 0.44414 0.28866 0.0
C837 C 0.27477 0.43866 0.30634 0.0
H838 H 0.36696 0.44753 0.29426 0.0
H839 H 0.30928 0.45461 0.2608 0.0
S840 S 0.26089 0.40697 0.40172 0.0
N841 N 0.30536 0.41172 0.39775 0.0
N842 N 0.24402 0.41792 0.36116 0.0
C843 C 0.27508 0.42563 0.3424 0.0
C844 C 0.30841 0.42243 0.36211 0.0
C845 C 0.73379 0.40437 0.89549 0.0
C846 C 0.69897 0.40253 0.8798 0.0
C847 C 0.74541 0.43631 0.91191 0.0
C848 C 0.72234 0.4672 0.91361 0.0
H849 H 0.75251 0.38127 0.89424 0.0
H850 H 0.77234 0.43647 0.92405 0.0
S851 S 0.62799 0.47524 0.8772 0.0
N852 N 0.64143 0.43348 0.86692 0.0
N853 N 0.66274 0.49363 0.89843 0.0
C854 C 0.68727 0.46547 0.89811 0.0
C855 C 0.67571 0.43307 0.88103 0.0
C856 C 0.64003 0.93522 0.20929 0.0
C857 C 0.62094 0.9636 0.19124 0.0
C858 C 0.67201 0.94243 0.22876 0.0
C859 C 0.68531 0.97803 0.22997 0.0
H860 H 0.63268 0.90716 0.20487 0.0
H861 H 0.68818 0.91984 0.23957 0.0
S862 S 0.64045 0.06184 0.19352 0.0
N863 N 0.61354 0.0286 0.18127 0.0
N864 N 0.67402 0.04219 0.21696 0.0
C865 C 0.6639 0.00682 0.21584 0.0
C866 C 0.63134 -0.00044 0.19676 0.0
C867 C 0.24395 0.09318 0.09425 0.0
C868 C 0.21523 0.09416 0.11975 0.0
C869 C 0.24941 0.06307 0.07156 0.0
C870 C 0.22599 0.03311 0.07313 0.0
H871 H 0.26282 0.11549 0.09234 0.0
H872 H 0.27202 0.06349 0.05244 0.0
S873 S 0.14524 0.02371 0.13398 0.0
N874 N 0.16224 0.06355 0.14449 0.0
N875 N 0.17213 0.00705 0.10171 0.0
C876 C 0.19662 0.03422 0.09806 0.0
C877 C 0.19136 0.0647 0.12142 0.0
C878 C 0.32471 0.59502 0.17478 0.0
C879 C 0.35737 0.57665 0.18474 0.0
C880 C 0.29317 0.59182 0.19593 0.0
C881 C 0.29342 0.57099 0.22825 0.0
H882 H 0.3225 0.6091 0.14859 0.0
H883 H 0.26769 0.60272 0.1851 0.0
S884 S 0.37388 0.52615 0.27159 0.0
N885 N 0.38971 0.54303 0.23266 0.0
N886 N 0.33016 0.53772 0.27312 0.0
C887 C 0.32694 0.55706 0.24133 0.0
C888 C 0.35916 0.55986 0.21942 0.0
C889 C 0.73772 0.41405 0.082 0.0
C890 C 0.76764 0.40987 0.10583 0.0
C891 C 0.72923 0.44809 0.06576 0.0
C892 C 0.75035 0.47888 0.07298 0.0
H893 H 0.72083 0.391 0.07589 0.0
H894 H 0.70735 0.44983 0.04589 0.0
S895 S 0.83067 0.48285 0.13405 0.0
N896 N 0.81804 0.44 0.13606 0.0
N897 N 0.80128 0.50345 0.10629 0.0
C898 C 0.77941 0.47526 0.09764 0.0
C899 C 0.78836 0.4409 0.11372 0.0
C900 C 0.32775 0.67137 0.0653 0.0
C901 C 0.35577 0.66426 0.03992 0.0
C902 C 0.31076 0.70594 0.06681 0.0
C903 C 0.32171 0.73456 0.04343 0.0
H904 H 0.31972 0.65055 0.0848 0.0
H905 H 0.28888 0.7103 0.08633 0.0
S906 S 0.39231 0.72835 0.97021 0.0
N907 N 0.39196 0.6875 0.98928 0.0
N908 N 0.36155 0.75237 0.99286 0.0
C909 C 0.34953 0.72733 0.01764 0.0
C910 C 0.36601 0.69218 0.0156 0.0
C911 C 0.32948 0.33219 0.44558 0.0
C912 C 0.34938 0.34327 0.47637 0.0
C913 C 0.31496 0.29699 0.44366 0.0
C914 C 0.32183 0.27103 0.47152 0.0
H915 H 0.32737 0.34972 0.42175 0.0
H916 H 0.29972 0.28953 0.41957 0.0
S917 S 0.37167 0.28716 0.55842 0.0
N918 N 0.37316 0.3264 0.53612 0.0
N919 N 0.34885 0.25975 0.53168 0.0
C920 C 0.34117 0.28218 0.50274 0.0
C921 C 0.35418 0.31835 0.50535 0.0
C922 C 0.5436 0.35535 0.74181 0.0
C923 C 0.57832 0.37169 0.74162 0.0
C924 C 0.5117 0.37565 0.73559 0.0
C925 C 0.51322 0.4128 0.72767 0.0
H926 H 0.54054 0.32687 0.74893 0.0
H927 H 0.4856 0.36266 0.73915 0.0
S928 S 0.59648 0.46813 0.71841 0.0
N929 N 0.61199 0.4269 0.7291 0.0
N930 N 0.55167 0.465 0.71627 0.0
C931 C 0.54758 0.42902 0.72393 0.0
C932 C 0.58026 0.40845 0.73107 0.0
C933 C 0.71959 0.12975 0.47013 0.0
C934 C 0.6885 0.13589 0.44827 0.0
C935 C 0.74383 0.15829 0.4767 0.0
C936 C 0.73765 0.19285 0.46069 0.0
H937 H 0.723 0.10436 0.48518 0.0
H938 H 0.76523 0.15436 0.49686 0.0
S939 S 0.66173 0.22219 0.40109 0.0
N940 N 0.65424 0.17881 0.40999 0.0
N941 N 0.70074 0.23101 0.42089 0.0
C942 C 0.7091 0.1979 0.43603 0.0
C943 C 0.68416 0.16968 0.43015 0.0
C944 C 0.94174 0.61134 0.29941 0.0
C945 C 0.90879 0.6043 0.28113 0.0
C946 C 0.97506 0.59691 0.28738 0.0
C947 C 0.97732 0.57435 0.2566 0.0
H948 H 0.94195 0.62783 0.32383 0.0
H949 H -0.00085 0.60203 0.30356 0.0
S950 S 0.90004 0.54979 0.19662 0.0
N951 N 0.8811 0.57551 0.22854 0.0
N952 N 0.94397 0.54723 0.20651 0.0
C953 C 0.94501 0.56823 0.23688 0.0
C954 C 0.91074 0.58322 0.24913 0.0
C955 C 0.22126 0.35912 0.54822 0.0
C956 C 0.19687 0.36281 0.57762 0.0
C957 C 0.24228 0.32724 0.54438 0.0
C958 C 0.23915 0.29841 0.56977 0.0
H959 H 0.22086 0.37886 0.52593 0.0
H960 H 0.25777 0.32345 0.51934 0.0
S961 S 0.18508 0.29828 0.6552 0.0
N962 N 0.1752 0.33787 0.63542 0.0
N963 N 0.2149 0.27782 0.62804 0.0
C964 C 0.21851 0.30373 0.60152 0.0
C965 C 0.19723 0.33618 0.60551 0.0
C966 C 0.55905 0.62738 0.72846 0.0
C967 C 0.59223 0.62131 0.74706 0.0
C968 C 0.53151 0.60197 0.72974 0.0
C969 C 0.53575 0.56958 0.74999 0.0
H970 H 0.55439 0.65169 0.71192 0.0
H971 H 0.50655 0.60794 0.71483 0.0
S972 S 0.61703 0.54031 0.80363 0.0
N973 N 0.62789 0.5804 0.78632 0.0
N974 N 0.57528 0.53234 0.78921 0.0
C975 C 0.56846 0.56307 0.76918 0.0
C976 C 0.59695 0.58897 0.7675 0.0
C977 C 0.3938 0.91109 0.72363 0.0
C978 C 0.39087 0.89444 0.68931 0.0
C979 C 0.42664 0.92606 0.73486 0.0
C980 C 0.45753 0.92531 0.71199 0.0
H981 H 0.37111 0.91115 0.74269 0.0
H982 H 0.42774 0.93838 0.76166 0.0
S983 S 0.46329 0.88672 0.61858 0.0
N984 N 0.42099 0.87932 0.63188 0.0
N985 N 0.48278 0.90787 0.65288 0.0
C986 C 0.45461 0.90985 0.67708 0.0
C987 C 0.42124 0.89434 0.66576 0.0
C988 C 0.54366 0.86349 0.20202 0.0
C989 C 0.55823 0.84269 0.17312 0.0
C990 C 0.54833 0.85289 0.23857 0.0
C991 C 0.56677 0.82024 0.24799 0.0
H992 H 0.52753 0.88788 0.19648 0.0
H993 H 0.53466 0.86901 0.2593 0.0
S994 S 0.61715 0.76026 0.18309 0.0
N995 N 0.59742 0.79149 0.15658 0.0
N996 N 0.60558 0.7707 0.22551 0.0
C997 C 0.58481 0.80117 0.21958 0.0
C998 C 0.58043 0.8124 0.18213 0.0
C999 C 0.06876 0.24275 0.1064 0.0
C1000 C 0.09227 0.21276 0.11184 0.0
C1001 C 0.04617 0.24467 0.07561 0.0
C1002 C 0.04638 0.21657 0.04958 0.0
H1003 H 0.06946 0.26576 0.12468 0.0
H1004 H 0.02966 0.26908 0.07149 0.0
S1005 S 0.09908 0.12938 0.05566 0.0
N1006 N 0.11158 0.15253 0.09185 0.0
N1007 N 0.06883 0.15566 0.0343 0.0
C1008 C 0.06774 0.18509 0.0566 0.0
C1009 C 0.09079 0.18332 0.08771 0.0
C1010 C 0.5172 0.68707 0.14254 0.0
C1011 C 0.48233 0.68293 0.12777 0.0
C1012 C 0.52191 0.70761 0.17408 0.0
C1013 C 0.49195 0.72481 0.19112 0.0
H1014 H 0.53996 0.67076 0.13258 0.0
H1015 H 0.5485 0.7074 0.18698 0.0
S1016 S 0.39678 0.7284 0.15771 0.0
N1017 N 0.4187 0.702 0.12834 0.0
N1018 N 0.42771 0.74168 0.18737 0.0
C1019 C 0.45802 0.72503 0.17356 0.0
C1020 C 0.45317 0.70373 0.14171 0.0
C1021 C 0.90285 0.23137 0.07601 0.0
C1022 C 0.86952 0.25084 0.0753 0.0
C1023 C 0.91821 0.21739 0.04359 0.0
C1024 C 0.90071 0.22242 0.00945 0.0
H1025 H 0.91801 0.22849 0.10134 0.0
H1026 H 0.94533 0.20529 0.04486 0.0
S1027 S 0.81007 0.26508 0.99346 0.0
N1028 N 0.81696 0.2692 0.0379 0.0
N1029 N 0.84671 0.24393 0.97752 0.0
C1030 C 0.86618 0.23901 0.00889 0.0
C1031 C 0.85039 0.25303 0.04164 0.0
C1032 C 0.53106 0.15148 0.30837 0.0
C1033 C 0.55949 0.15746 0.33347 0.0
C1034 C 0.53334 0.1624 0.27173 0.0
C1035 C 0.56367 0.18122 0.25816 0.0
H1036 H 0.50654 0.13767 0.31686 0.0
H1037 H 0.51025 0.157 0.25428 0.0
S1038 S 0.64649 0.20273 0.31065 0.0
N1039 N 0.62034 0.18135 0.3406 0.0
N1040 N 0.62311 0.20504 0.27211 0.0
C1041 C 0.59226 0.18784 0.28256 0.0
C1042 C 0.59051 0.17539 0.32 0.0
C1043 C 0.35663 0.21932 0.96216 0.0
C1044 C 0.3692 0.23196 0.92776 0.0
C1045 C 0.36954 0.23323 0.99508 0.0
C1046 C 0.39595 0.26043 0.99559 0.0
H1047 H 0.33693 0.19774 0.96397 0.0
H1048 H 0.36004 0.22116 0.02052 0.0
S1049 S 0.4357 0.30575 0.91341 0.0
N1050 N 0.40765 0.27561 0.89636 0.0
N1051 N 0.43263 0.30151 0.95842 0.0
C1052 C 0.40764 0.27477 0.96149 0.0
C1053 C 0.39433 0.26047 0.92764 0.0
C1054 C 0.44664 0.29665 0.35785 0.0
C1055 C 0.47516 0.3133 0.37679 0.0
C1056 C 0.45357 0.27626 0.32629 0.0
C1057 C 0.48914 0.27278 0.3125 0.0
H1058 H 0.41855 0.30226 0.3655 0.0
H1059 H 0.43072 0.26633 0.31075 0.0
S1060 S 0.57368 0.30553 0.35569 0.0
N1061 N 0.54055 0.32039 0.38269 0.0
N1062 N 0.55364 0.28262 0.32285 0.0
C1063 C 0.51817 0.28605 0.33327 0.0
C1064 C 0.51115 0.30618 0.36573 0.0
C1065 C 0.55992 0.30384 0.89869 0.0
C1066 C 0.57294 0.27284 0.88039 0.0
C1067 C 0.53937 0.30063 0.93071 0.0
C1068 C 0.53145 0.26625 0.94565 0.0
H1069 H 0.5677 0.33076 0.88947 0.0
H1070 H 0.53116 0.32528 0.94474 0.0
S1071 S 0.55704 0.17671 0.90581 0.0
N1072 N 0.57449 0.20696 0.87728 0.0
N1073 N 0.53574 0.20044 0.93777 0.0
C1074 C 0.54202 0.23497 0.92593 0.0
C1075 C 0.56284 0.23839 0.89312 0.0
C1076 C 0.19398 0.5375 0.86885 0.0
C1077 C 0.16365 0.5511 0.84913 0.0
C1078 C 0.22943 0.54253 0.85638 0.0
C1079 C 0.23619 0.56007 0.82268 0.0
H1080 H 0.19049 0.52171 0.89381 0.0
H1081 H 0.25133 0.52949 0.87178 0.0
S1082 S 0.16711 0.60824 0.76485 0.0
N1083 N 0.14319 0.58938 0.79817 0.0
N1084 N 0.21012 0.59706 0.77319 0.0
C1085 C 0.2065 0.57722 0.80459 0.0
C1086 C 0.17017 0.57294 0.81802 0.0
C1087 C 0.7331 0.58388 0.42142 0.0
C1088 C 0.74863 0.58371 0.38628 0.0
C1089 C 0.72195 0.55122 0.43795 0.0
C1090 C 0.72603 0.51771 0.41978 0.0
H1091 H 0.73236 0.60862 0.43729 0.0
H1092 H 0.71396 0.55165 0.46655 0.0
S1093 S 0.75612 0.50397 0.32434 0.0
N1094 N 0.75995 0.54812 0.331 0.0
N1095 N 0.74055 0.48701 0.36329 0.0
C1096 C 0.7373 0.51785 0.38335 0.0
C1097 C 0.74825 0.55088 0.36627 0.0
C1098 C 0.81262 0.91749 0.85327 0.0
C1099 C 0.84497 0.92456 0.83374 0.0
C1100 C 0.77842 0.91991 0.83651 0.0
C1101 C 0.77502 0.9298 0.79943 0.0
H1102 H 0.81327 0.9135 0.8826 0.0
H1103 H 0.75438 0.91785 0.85367 0.0
S1104 S 0.85185 0.94153 0.7339 0.0
N1105 N 0.87199 0.93472 0.77393 0.0
N1106 N 0.80756 0.93917 0.74179 0.0
C1107 C 0.80739 0.93178 0.77834 0.0
C1108 C 0.84247 0.92936 0.79569 0.0
C1109 C 0.22694 0.90377 0.40195 0.0
C1110 C 0.19745 0.90522 0.37744 0.0
C1111 C 0.23714 0.93454 0.42124 0.0
C1112 C 0.2179 0.96775 0.41714 0.0
H1113 H 0.24284 0.87889 0.40572 0.0
H1114 H 0.25988 0.93204 0.44007 0.0
S1115 S 0.13814 0.98568 0.3569 0.0
N1116 N 0.14886 0.94243 0.35022 0.0
N1117 N 0.16781 0.00033 0.38711 0.0
C1118 C 0.18809 0.96954 0.39304 0.0
C1119 C 0.17794 0.93826 0.37301 0.0
C1120 C 0.16449 0.42288 0.68339 0.0
C1121 C 0.13265 0.44326 0.6906 0.0
C1122 C 0.1961 0.42835 0.70346 0.0
C1123 C 0.19633 0.45394 0.73155 0.0
H1124 H 0.16611 0.40576 0.65949 0.0
H1125 H 0.22121 0.41501 0.6948 0.0
S1126 S 0.11787 0.5083 0.76576 0.0
N1127 N 0.10141 0.48575 0.7307 0.0
N1128 N 0.16113 0.49552 0.76961 0.0
C1129 C 0.16355 0.47111 0.74202 0.0
C1130 C 0.13139 0.46585 0.72114 0.0
C1131 C 0.73077 0.56681 0.6322 0.0
C1132 C 0.70328 0.59182 0.62155 0.0
C1133 C 0.73974 0.53706 0.61024 0.0
C1134 C 0.72067 0.53104 0.57769 0.0
H1135 H 0.74616 0.5709 0.6571 0.0
H1136 H 0.76151 0.5186 0.61883 0.0
S1137 S 0.6459 0.58827 0.53844 0.0
N1138 N 0.65717 0.60895 0.57666 0.0
N1139 N 0.67291 0.55194 0.53591 0.0
C1140 C 0.69258 0.55542 0.56717 0.0
C1141 C 0.68416 0.58622 0.58901 0.0
C1142 C 0.86108 0.04308 0.71828 0.0
C1143 C 0.86281 0.06864 0.68948 0.0
C1144 C 0.8292 0.03992 0.73945 0.0
C1145 C 0.79819 0.06182 0.73192 0.0
H1146 H 0.88286 0.02311 0.72198 0.0
H1147 H 0.82742 0.01769 0.75907 0.0
S1148 S 0.79165 0.1372 0.66437 0.0
N1149 N 0.83315 0.11997 0.65858 0.0
N1150 N 0.77304 0.11312 0.69775 0.0
C1151 C 0.80112 0.08993 0.70604 0.0
C1152 C 0.83359 0.09355 0.68492 0.0
C1153 C 0.25039 0.90105 0.55924 0.0
C1154 C 0.23269 0.89214 0.59204 0.0
C1155 C 0.24872 0.93667 0.54527 0.0
C1156 C 0.22943 0.96459 0.56369 0.0
H1157 H 0.26861 0.88146 0.54638 0.0
H1158 H 0.2645 0.94292 0.52092 0.0
S1159 S 0.17372 0.95356 0.64737 0.0
N1160 N 0.1916 0.91266 0.6402 0.0
N1161 N 0.18826 0.97976 0.61344 0.0
C1162 C 0.20851 0.95521 0.59429 0.0
C1163 C 0.21021 0.91884 0.60858 0.0
C1164 C 0.8217 0.17221 0.57459 0.0
C1165 C 0.85248 0.16279 0.55367 0.0
C1166 C 0.81092 0.20877 0.5788 0.0
C1167 C 0.83063 0.2373 0.56221 0.0
H1168 H 0.80471 0.15115 0.586 0.0
H1169 H 0.78543 0.21446 0.59281 0.0
S1170 S 0.91746 0.22733 0.51051 0.0
N1171 N 0.90478 0.18533 0.51929 0.0
N1172 N 0.88614 0.25354 0.52972 0.0
C1173 C 0.86367 0.22827 0.54464 0.0
C1174 C 0.87389 0.19117 0.53923 0.0
C1175 C 0.80953 0.83426 0.93649 0.0
C1176 C 0.84452 0.8388 0.95125 0.0
C1177 C 0.79416 0.79941 0.93459 0.0
C1178 C 0.81399 0.76784 0.9457 0.0
H1179 H 0.79311 0.85783 0.92864 0.0
H1180 H 0.7659 0.79745 0.92641 0.0
S1181 S 0.90988 0.76449 0.97813 0.0
N1182 N 0.89962 0.80812 0.97391 0.0
N1183 N 0.87318 0.74335 0.96456 0.0
C1184 C 0.85065 0.77194 0.95575 0.0
C1185 C 0.8652 0.80719 0.96026 0.0
C1186 C 0.0706 0.89972 0.22395 0.0
C1187 C 0.07083 0.8685 0.2466 0.0
C1188 C 0.0377 0.91837 0.21566 0.0
C1189 C 0.00408 0.90637 0.22979 0.0
H1190 H 0.09595 0.91025 0.21329 0.0
H1191 H 0.03894 0.94374 0.20035 0.0
S1192 S 0.98883 0.82515 0.28815 0.0
N1193 N 0.03328 0.82574 0.28155 0.0
N1194 N 0.9725 0.86052 0.26497 0.0
C1195 C 0.00368 0.87422 0.25049 0.0
C1196 C 0.03676 0.85547 0.25931 0.0
C1197 C 0.19805 0.64652 0.91765 0.0
C1198 C 0.19323 0.62277 0.94774 0.0
C1199 C 0.21705 0.67903 0.92156 0.0
C1200 C 0.23189 0.68819 0.95553 0.0
H1201 H 0.18335 0.64214 0.89238 0.0
H1202 H 0.21704 0.69854 0.89908 0.0
S1203 S 0.23238 0.63207 0.04038 0.0
N1204 N 0.20901 0.60813 0.01072 0.0
N1205 N 0.24526 0.66901 0.01799 0.0
C1206 C 0.23099 0.66267 0.98437 0.0
C1207 C 0.2116 0.62976 0.98042 0.0
C1208 C 0.41298 0.08535 0.75677 0.0
C1209 C 0.41264 0.10653 0.78878 0.0
C1210 C 0.44571 0.07007 0.74297 0.0
C1211 C 0.47928 0.07551 0.76062 0.0
H1212 H 0.38778 0.08024 0.74242 0.0
H1213 H 0.44436 0.05202 0.71976 0.0
S1214 S 0.4941 0.13044 0.84361 0.0
N1215 N 0.44974 0.13336 0.8365 0.0
N1216 N 0.51053 0.10493 0.81033 0.0
C1217 C 0.47952 0.09789 0.7915 0.0
C1218 C 0.44646 0.11322 0.80568 0.0
C1219 C 0.68337 0.82851 0.10049 0.0
C1220 C 0.68805 0.86001 0.07893 0.0
C1221 C 0.7049 0.79747 0.09458 0.0
C1222 C 0.73202 0.79756 0.06752 0.0
H1223 H 0.66003 0.82635 0.11861 0.0
H1224 H 0.69767 0.77229 0.10832 0.0
S1225 S 0.76025 0.87582 0.01014 0.0
N1226 N 0.72534 0.89158 0.03424 0.0
N1227 N 0.76684 0.83316 0.02375 0.0
C1228 C 0.74046 0.83042 0.04976 0.0
C1229 C 0.71815 0.86193 0.05543 0.0
C1230 C 0.09027 0.08944 0.26698 0.0
C1231 C 0.09792 0.10945 0.23514 0.0
C1232 C 0.06076 0.06581 0.2679 0.0
C1233 C 0.03838 0.06137 0.23687 0.0
H1234 H 0.10607 0.09329 0.29165 0.0
H1235 H 0.0549 0.05182 0.29346 0.0
S1236 S 0.05178 0.10412 0.1452 0.0
N1237 N 0.08414 0.12099 0.17099 0.0
N1238 N 0.02905 0.07623 0.1722 0.0
C1239 C 0.04759 0.07969 0.20417 0.0
C1240 C 0.07732 0.10386 0.20345 0.0
C1241 C 0.92875 0.37825 0.19025 0.0
C1242 C 0.89854 0.3782 0.21402 0.0
C1243 C 0.95924 0.39899 0.19777 0.0
C1244 C 0.96079 0.42008 0.22954 0.0
H1245 H 0.92893 0.36201 0.16564 0.0
H1246 H 0.98196 0.39805 0.17877 0.0
S1247 S 0.88823 0.4302 0.30006 0.0
N1248 N 0.8715 0.40158 0.27015 0.0
N1249 N 0.92897 0.44083 0.2844 0.0
C1250 C 0.93053 0.42072 0.25335 0.0
C1251 C 0.8993 0.39978 0.2455 0.0
C1252 C 0.15736 0.15328 0.84727 0.0
C1253 C 0.17506 0.18121 0.82761 0.0
C1254 C 0.12192 0.15857 0.86189 0.0
C1255 C 0.10267 0.19186 0.85716 0.0
H1256 H 0.17171 0.12788 0.85316 0.0
H1257 H 0.10981 0.13667 0.87755 0.0
S1258 S 0.13693 0.27337 0.80739 0.0
N1259 N 0.17007 0.24281 0.80335 0.0
N1260 N 0.10466 0.2531 0.83118 0.0
C1261 C 0.11987 0.2195 0.83663 0.0
C1262 C 0.15564 0.21407 0.82178 0.0
C1263 C 0.4362 0.58068 0.40641 0.0
C1264 C 0.45855 0.55054 0.39686 0.0
C1265 C 0.44479 0.61658 0.3953 0.0
C1266 C 0.47582 0.62396 0.3737 0.0
H1267 H 0.41152 0.57654 0.42212 0.0
H1268 H 0.42651 0.63865 0.40306 0.0
S1269 S 0.54572 0.55592 0.34451 0.0
N1270 N 0.51518 0.53176 0.36679 0.0
N1271 N 0.53045 0.59835 0.34576 0.0
C1272 C 0.4989 0.59434 0.36488 0.0
C1273 C 0.49052 0.558 0.37647 0.0
C1274 C 0.82125 0.33294 0.83433 0.0
C1275 C 0.79913 0.30244 0.83955 0.0
C1276 C 0.85774 0.3326 0.84589 0.0
C1277 C 0.87382 0.30173 0.86313 0.0
H1278 H 0.8107 0.35701 0.82031 0.0
H1279 H 0.87422 0.35593 0.83908 0.0
S1280 S 0.82676 0.21633 0.88773 0.0
N1281 N 0.79532 0.2416 0.86689 0.0
N1282 N 0.86373 0.24123 0.8881 0.0
C1283 C 0.85132 0.27215 0.87114 0.0
C1284 C 0.81417 0.27233 0.85926 0.0
C1285 C 0.53349 0.93145 0.38242 0.0
C1286 C 0.55191 0.94238 0.41456 0.0
C1287 C 0.52128 0.89568 0.37802 0.0
C1288 C 0.52697 0.86951 0.40563 0.0
H1289 H 0.52754 0.9509 0.36066 0.0
H1290 H 0.50585 0.88901 0.35379 0.0
S1291 S 0.57709 0.88199 0.49294 0.0
N1292 N 0.57764 0.92247 0.47291 0.0
N1293 N 0.55489 0.85554 0.46468 0.0
C1294 C 0.54689 0.87939 0.43696 0.0
C1295 C 0.55927 0.91569 0.44146 0.0
C1296 C 0.13846 0.82658 0.68116 0.0
C1297 C 0.16803 0.80606 0.66743 0.0
C1298 C 0.10428 0.82583 0.66396 0.0
C1299 C 0.09938 0.80598 0.63169 0.0
H1300 H 0.14154 0.84236 0.70583 0.0
H1301 H 0.08136 0.84002 0.67641 0.0
S1302 S 0.16844 0.75013 0.58309 0.0
N1303 N 0.19021 0.76638 0.61874 0.0
N1304 N 0.12641 0.76659 0.58598 0.0
C1305 C 0.12894 0.78674 0.61688 0.0
C1306 C 0.16324 0.78642 0.63485 0.0
C1307 C 0.06222 0.5784 0.57433 0.0
C1308 C 0.04824 0.55209 0.59851 0.0
C1309 C 0.05302 0.61525 0.57807 0.0
C1310 C 0.02978 0.62742 0.60629 0.0
H1311 H 0.07945 0.57046 0.55154 0.0
H1312 H 0.06275 0.63428 0.55752 0.0
S1313 S 0.98858 0.57089 0.67917 0.0
N1314 N 0.01207 0.54169 0.65394 0.0
N1315 N 0.99482 0.61129 0.66015 0.0
C1316 C 0.01725 0.60209 0.63195 0.0
C1317 C 0.02641 0.56433 0.6282 0.0
C1318 C 0.82812 0.66578 0.67024 0.0
C1319 C 0.805 0.69467 0.65895 0.0
C1320 C 0.86508 0.66537 0.66124 0.0
C1321 C 0.88049 0.69402 0.64096 0.0
H1322 H 0.81794 0.64371 0.68708 0.0
H1323 H 0.88222 0.64372 0.67254 0.0
S1324 S 0.83074 0.77282 0.5992 0.0
N1325 N 0.79929 0.75015 0.62185 0.0
N1326 N 0.86906 0.74951 0.60554 0.0
C1327 C 0.85717 0.7213 0.62652 0.0
C1328 C 0.8194 0.72175 0.63563 0.0
C1329 C 0.94519 0.91859 0.58414 0.0
C1330 C 0.94445 0.94612 0.61068 0.0
C1331 C 0.95359 0.88212 0.59392 0.0
C1332 C 0.96116 0.87201 0.6306 0.0
H1333 H 0.94045 0.92547 0.55559 0.0
H1334 H 0.95518 0.86202 0.57249 0.0
S1335 S 0.95609 0.93333 0.71098 0.0
N1336 N 0.94769 0.96022 0.67541 0.0
N1337 N 0.96268 0.89236 0.69392 0.0
C1338 C 0.9582 0.8992 0.65748 0.0
C1339 C 0.95007 0.93604 0.64749 0.0
C1340 C 0.80348 0.15458 0.20921 0.0
C1341 C 0.81025 0.17327 0.17615 0.0
C1342 C 0.82144 0.12167 0.21774 0.0
C1343 C 0.84727 0.10601 0.19375 0.0
H1344 H 0.78591 0.16675 0.22978 0.0
H1345 H 0.81639 0.10949 0.24436 0.0
S1346 S 0.87152 0.14179 0.10154 0.0
N1347 N 0.84199 0.17209 0.11766 0.0
N1348 N 0.87584 0.10997 0.13366 0.0
C1349 C 0.8526 0.12317 0.1595 0.0
C1350 C 0.83392 0.15673 0.15065 0.0
C1351 C 0.42038 0.90856 0.06552 0.0
C1352 C 0.44876 0.89197 0.04545 0.0
C1353 C 0.38407 0.90505 0.05521 0.0
C1354 C 0.37445 0.88489 0.02437 0.0
H1355 H 0.42619 0.92523 0.08904 0.0
H1356 H 0.36336 0.91996 0.07041 0.0
S1357 S 0.43744 0.83318 0.96425 0.0
N1358 N 0.46437 0.85189 0.9948 0.0
N1359 N 0.39541 0.84603 0.97506 0.0
C1360 C 0.402 0.8663 0.00515 0.0
C1361 C 0.43936 0.86966 0.01581 0.0
C1362 C 0.18665 0.34725 0.21533 0.0
C1363 C 0.1741 0.32485 0.18744 0.0
C1364 C 0.17586 0.38385 0.21678 0.0
C1365 C 0.1511 0.39909 0.19103 0.0
H1366 H 0.20375 0.33604 0.237 0.0
H1367 H 0.18515 0.3995 0.23984 0.0
S1368 S 0.11292 0.35197 0.11074 0.0
N1369 N 0.13834 0.32062 0.13167 0.0
N1370 N 0.11696 0.38938 0.135 0.0
C1371 C 0.14002 0.37735 0.16177 0.0
C1372 C 0.15177 0.34019 0.15985 0.0
C1373 C 0.5886 0.60408 0.08452 0.0
C1374 C 0.56983 0.58238 0.05927 0.0
C1375 C 0.62167 0.62076 0.07514 0.0
C1376 C 0.63737 0.6161 0.04033 0.0
H1377 H 0.57683 0.60973 0.11114 0.0
H1378 H 0.63478 0.63781 0.09506 0.0
S1379 S 0.60062 0.56057 0.96499 0.0
N1380 N 0.57075 0.5559 0.99853 0.0
N1381 N 0.63228 0.58747 0.98102 0.0
C1382 C 0.61961 0.59358 0.01538 0.0
C1383 C 0.58605 0.57664 0.02482 0.0
C1384 C 0.8408 0.82324 0.28147 0.0
C1385 C 0.82699 0.80885 0.31469 0.0
C1386 C 0.85348 0.85897 0.27885 0.0
C1387 C 0.85265 0.882 0.30925 0.0
H1388 H 0.84092 0.80713 0.25678 0.0
H1389 H 0.86117 0.86946 0.25211 0.0
S1390 S 0.82529 0.85645 0.40389 0.0
N1391 N 0.81814 0.81944 0.37985 0.0
N1392 N 0.84097 0.88693 0.37452 0.0
C1393 C 0.84137 0.86735 0.34316 0.0
C1394 C 0.82863 0.83084 0.34595 0.0
C1395 C 0.06734 0.88465 0.98318 0.0
C1396 C 0.05872 0.90675 0.95224 0.0
C1397 C 0.1021 0.86941 0.9885 0.0
C1398 C 0.13046 0.87631 0.96383 0.0
H1399 H 0.04666 0.87767 0.00316 0.0
H1400 H 0.10679 0.85208 0.01231 0.0
S1401 S 0.1249 0.9356 0.88099 0.0
N1402 N 0.08303 0.93663 0.89782 0.0
N1403 N 0.1492 0.90929 0.90906 0.0
C1404 C 0.12338 0.9002 0.9341 0.0
C1405 C 0.08743 0.91514 0.92805 0.0
C1406 C 0.15261 0.658 0.34316 0.0
C1407 C 0.16464 0.67372 0.30998 0.0
C1408 C 0.13769 0.62322 0.344 0.0
C1409 C 0.13353 0.60351 0.31165 0.0
H1410 H 0.15453 0.67263 0.36867 0.0
H1411 H 0.13017 0.61129 0.37017 0.0
S1412 S 0.16284 0.63092 0.21814 0.0
N1413 N 0.17321 0.66561 0.24423 0.0
N1414 N 0.14395 0.60096 0.2459 0.0
C1415 C 0.14526 0.61881 0.27833 0.0
C1416 C 0.16124 0.65369 0.27751 0.0
C1417 C 0.94096 0.61902 0.97528 0.0
C1418 C 0.95175 0.60338 0.94177 0.0
C1419 C 0.90396 0.62566 0.98325 0.0
C1420 C 0.87689 0.61766 0.95756 0.0
H1421 H 0.96102 0.62416 0.99628 0.0
H1422 H 0.89636 0.63419 0.01059 0.0
S1423 S 0.89133 0.5831 0.86357 0.0
N1424 N 0.93272 0.58487 0.88109 0.0
N1425 N 0.86342 0.59777 0.89596 0.0
C1426 C 0.88767 0.60531 0.92286 0.0
C1427 C 0.92505 0.59793 0.91499 0.0
C1428 C 0.22225 0.80822 0.14971 0.0
C1429 C 0.18834 0.81018 0.16745 0.0
C1430 C 0.22709 0.82407 0.11501 0.0
C1431 C 0.19852 0.84358 0.09752 0.0
H1432 H 0.2455 0.79557 0.16336 0.0
H1433 H 0.25398 0.82273 0.10272 0.0
S1434 S 0.10399 0.8551 0.13194 0.0
N1435 N 0.12516 0.83118 0.1643 0.0
N1436 N 0.13468 0.86213 0.09956 0.0
C1437 C 0.16416 0.84465 0.11442 0.0
C1438 C 0.15896 0.82761 0.14929 0.0
C1439 C 0.22469 0.19198 0.35166 0.0
C1440 C 0.19185 0.18894 0.33232 0.0
C1441 C 0.22834 0.17786 0.38735 0.0
C1442 C 0.19963 0.15912 0.40451 0.0
H1443 H 0.24819 0.20401 0.33855 0.0
H1444 H 0.25463 0.17966 0.40062 0.0
S1445 S 0.1072 0.14602 0.36645 0.0
N1446 N 0.1292 0.16821 0.33387 0.0
N1447 N 0.13648 0.14072 0.40048 0.0
C1448 C 0.16611 0.15744 0.38613 0.0
C1449 C 0.16211 0.17261 0.35015 0.0
C1450 C 0.4018 0.56043 0.92663 0.0
C1451 C 0.40684 0.53404 0.95447 0.0
C1452 C 0.39111 0.55055 0.89135 0.0
C1453 C 0.38556 0.51395 0.88271 0.0
H1454 H 0.40672 0.58888 0.93196 0.0
H1455 H 0.39011 0.57128 0.87 0.0
S1456 S 0.39262 0.4348 0.94612 0.0
N1457 N 0.40264 0.47008 0.97168 0.0
N1458 N 0.38398 0.45149 0.90476 0.0
C1459 C 0.38867 0.48757 0.91064 0.0
C1460 C 0.399 0.49761 0.94671 0.0
C1461 C 0.8381 0.32297 0.32513 0.0
C1462 C 0.80491 0.32044 0.30609 0.0
C1463 C 0.83957 0.33852 0.36007 0.0
C1464 C 0.80801 0.35255 0.37733 0.0
H1465 H 0.8631 0.3121 0.31341 0.0
H1466 H 0.86524 0.33747 0.37471 0.0
S1467 S 0.71473 0.35587 0.33821 0.0
N1468 N 0.73989 0.33584 0.30653 0.0
N1469 N 0.7431 0.36533 0.37166 0.0
C1470 C 0.77515 0.35253 0.35763 0.0
C1471 C 0.77344 0.3362 0.32233 0.0
C1472 C 0.0943 0.41401 0.42667 0.0
C1473 C 0.11279 0.43514 0.45239 0.0
C1474 C 0.09709 0.42116 0.3891 0.0
C1475 C 0.11853 0.44964 0.37544 0.0
H1476 H 0.07602 0.39279 0.43552 0.0
H1477 H 0.08012 0.40592 0.37066 0.0
S1478 S 0.17797 0.50868 0.42995 0.0
N1479 N 0.15777 0.48257 0.46074 0.0
N1480 N 0.16239 0.49592 0.38974 0.0
C1481 C 0.13985 0.4688 0.40024 0.0
C1482 C 0.13701 0.46167 0.43881 0.0
C1483 C 0.28459 0.13679 0.68074 0.0
C1484 C 0.31653 0.15099 0.69639 0.0
C1485 C 0.28443 0.12224 0.6455 0.0
C1486 C 0.31605 0.12183 0.62388 0.0
H1487 H 0.25885 0.13792 0.69532 0.0
H1488 H 0.25848 0.1147 0.63392 0.0
S1489 S 0.40835 0.14891 0.65366 0.0
N1490 N 0.38195 0.15826 0.68916 0.0
N1491 N 0.38134 0.13196 0.62218 0.0
C1492 C 0.34887 0.13287 0.64016 0.0
C1493 C 0.34914 0.1475 0.67634 0.0
C1494 C 0.38648 0.48498 0.56945 0.0
C1495 C 0.41288 0.45685 0.56535 0.0
C1496 C 0.36977 0.49198 0.60326 0.0
C1497 C 0.37915 0.47164 0.63469 0.0
H1498 H 0.37771 0.50129 0.54609 0.0
H1499 H 0.3496 0.5138 0.60483 0.0
S1500 S 0.44684 0.39548 0.63971 0.0
N1501 N 0.44764 0.40868 0.5963 0.0
N1502 N 0.41667 0.42236 0.66004 0.0
C1503 C 0.40591 0.44389 0.6314 0.0
C1504 C 0.42263 0.43637 0.59676 0.0
C1505 C 0.5724 0.04973 0.58767 0.0
C1506 C 0.59521 0.06925 0.56372 0.0
C1507 C 0.58336 0.04121 0.62399 0.0
C1508 C 0.61788 0.05118 0.63739 0.0
H1509 H 0.54682 0.0394 0.57773 0.0
H1510 H 0.56558 0.02477 0.64069 0.0
S1511 S 0.68617 0.10534 0.58618 0.0
N1512 N 0.65251 0.10049 0.55673 0.0
N1513 N 0.67325 0.08433 0.62415 0.0
C1514 C 0.63995 0.07227 0.61405 0.0
C1515 C 0.62863 0.08123 0.57748 0.0
C1516 C 0.65723 0.65677 0.34787 0.0
C1517 C 0.67534 0.68555 0.32979 0.0
C1518 C 0.62357 0.66261 0.36634 0.0
C1519 C 0.60689 0.69747 0.3675 0.0
H1520 H 0.66982 0.62991 0.34906 0.0
H1521 H 0.61056 0.63976 0.37966 0.0
S1522 S 0.64344 0.78197 0.32527 0.0
N1523 N 0.67324 0.74993 0.31397 0.0
N1524 N 0.61199 0.76116 0.34966 0.0
C1525 C 0.62479 0.7262 0.34935 0.0
C1526 C 0.65831 0.72018 0.33023 0.0
C1527 C 0.97065 0.05811 0.87002 0.0
C1528 C 0.94356 0.05173 0.89684 0.0
C1529 C 0.97947 0.09327 0.85835 0.0
C1530 C 0.96201 0.12409 0.87307 0.0
H1531 H 0.98528 0.03567 0.85739 0.0
H1532 H 0.00049 0.09622 0.83769 0.0
S1533 S 0.88899 0.12351 0.94371 0.0
N1534 N 0.8992 0.08001 0.93775 0.0
N1535 N 0.91601 0.14629 0.91577 0.0
C1536 C 0.93514 0.11853 0.90017 0.0
C1537 C 0.9259 0.08243 0.91204 0.0
C1538 C 0.32437 0.83313 0.31926 0.0
C1539 C 0.30057 0.80505 0.32901 0.0
C1540 C 0.36141 0.83155 0.32924 0.0
C1541 C 0.37636 0.80196 0.34964 0.0
H1542 H 0.3146 0.85615 0.30306 0.0
H1543 H 0.37892 0.85301 0.3194 0.0
S1544 S 0.32559 0.72256 0.38488 0.0
N1545 N 0.29476 0.7475 0.36283 0.0
N1546 N 0.36394 0.74504 0.38104 0.0
C1547 C 0.35258 0.77475 0.36137 0.0
C1548 C 0.31494 0.77608 0.35106 0.0
C1549 C 0.04885 0.41668 0.93977 0.0
C1550 C 0.0447 0.44137 0.91044 0.0
C1551 C 0.03793 0.3806 0.93674 0.0
C1552 C 0.02236 0.36732 0.90427 0.0
H1553 H 0.06011 0.42531 0.96562 0.0
H1554 H 0.04121 0.36298 0.96057 0.0
S1555 S 0.00765 0.41962 0.81827 0.0
N1556 N 0.02564 0.44913 0.84657 0.0
N1557 N 0.00487 0.38101 0.8416 0.0
C1558 C 0.01924 0.39104 0.87417 0.0
C1559 C 0.03032 0.42811 0.87714 0.0
C1560 C 0.64402 0.31509 0.18063 0.0
C1561 C 0.67369 0.31287 0.15664 0.0
C1562 C 0.60844 0.31321 0.16705 0.0
C1563 C 0.6018 0.3094 0.12924 0.0
H1564 H 0.64834 0.31628 0.20995 0.0
H1565 H 0.5862 0.31356 0.18643 0.0
S1566 S 0.67075 0.30846 0.05515 0.0
N1567 N 0.69456 0.31118 0.09333 0.0
N1568 N 0.62757 0.30791 0.06797 0.0
C1569 C 0.63124 0.31045 0.10491 0.0
C1570 C 0.66734 0.31198 0.11865 0.0
C1571 C 0.52013 0.06373 0.11981 0.0
C1572 C 0.54403 0.05198 0.09164 0.0
C1573 C 0.51253 0.10077 0.12555 0.0
C1574 C 0.52881 0.12735 0.10357 0.0
H1575 H 0.50634 0.0442 0.13715 0.0
H1576 H 0.49225 0.1085 0.14578 0.0
S1577 S 0.59511 0.11228 0.02825 0.0
N1578 N 0.58551 0.07095 0.04314 0.0
N1579 N 0.57094 0.14039 0.05402 0.0
C1580 C 0.55389 0.11636 0.07656 0.0
C1581 C 0.56157 0.07874 0.07054 0.0
C1582 C 0.32702 0.22168 0.15309 0.0
C1583 C 0.31346 0.19207 0.17355 0.0
C1584 C 0.36273 0.22155 0.14007 0.0
C1585 C 0.38637 0.19206 0.14756 0.0
H1586 H 0.31035 0.2458 0.1479 0.0
H1587 H 0.37268 0.24609 0.12701 0.0
S1588 S 0.3629 0.10501 0.19328 0.0
N1589 N 0.32521 0.13007 0.19562 0.0
N1590 N 0.39288 0.13039 0.17155 0.0
C1591 C 0.37245 0.16097 0.16495 0.0
C1592 C 0.33597 0.16096 0.17816 0.0
C1593 C 0.4731 0.43753 0.14631 0.0
C1594 C 0.44979 0.44725 0.1171 0.0
C1595 C 0.48187 0.40121 0.15444 0.0
C1596 C 0.46805 0.37246 0.13366 0.0
H1597 H 0.48481 0.45825 0.16336 0.0
H1598 H 0.50017 0.39585 0.1772 0.0
S1599 S 0.40533 0.38288 0.05425 0.0
N1600 N 0.4125 0.42506 0.06734 0.0
N1601 N 0.42908 0.35638 0.08261 0.0
C1602 C 0.44432 0.3816 0.10447 0.0
C1603 C 0.43512 0.41898 0.09627 0.0
C1604 C 0.35912 0.67452 0.70164 0.0
C1605 C 0.32189 0.68058 0.69354 0.0
C1606 C 0.37375 0.63939 0.7066 0.0
C1607 C 0.35175 0.60864 0.70445 0.0
H1608 H 0.37742 0.69722 0.70381 0.0
H1609 H 0.40249 0.63637 0.713 0.0
S1610 S 0.25292 0.60917 0.68225 0.0
N1611 N 0.26361 0.65268 0.68205 0.0
N1612 N 0.29093 0.5864 0.69212 0.0
C1613 C 0.31452 0.61411 0.69598 0.0
C1614 C 0.29967 0.6501 0.6902 0.0
C1615 C 0.94468 0.41758 0.51117 0.0
C1616 C 0.9587 0.39459 0.53865 0.0
C1617 C 0.90819 0.41557 0.50062 0.0
C1618 C 0.88412 0.39111 0.51781 0.0
H1619 H 0.96172 0.43805 0.4986 0.0
H1620 H 0.89827 0.43476 0.48003 0.0
S1621 S 0.90871 0.32388 0.59049 0.0
N1622 N 0.94719 0.34495 0.5814 0.0
N1623 N 0.87777 0.34235 0.56281 0.0
C1624 C 0.89839 0.3667 0.54419 0.0
C1625 C 0.93593 0.36829 0.55443 0.0
C1626 C 0.68809 0.85072 0.70307 0.0
C1627 C 0.67278 0.82811 0.67687 0.0
C1628 C 0.67728 0.88717 0.70549 0.0
C1629 C 0.64989 0.90218 0.68244 0.0
H1630 H 0.707 0.83964 0.72326 0.0
H1631 H 0.68854 0.90267 0.72768 0.0
S1632 S 0.60591 0.8554 0.60505 0.0
N1633 N 0.63295 0.82404 0.62386 0.0
N1634 N 0.61164 0.89268 0.62912 0.0
C1635 C 0.63678 0.88063 0.65392 0.0
C1636 C 0.64846 0.84351 0.65098 0.0
C1637 C 0.091 0.07503 0.55456 0.0
C1638 C 0.06168 0.09987 0.55808 0.0
C1639 C 0.12672 0.0873 0.54782 0.0
C1640 C 0.1344 0.12482 0.54457 0.0
H1641 H 0.08615 0.04605 0.5558 0.0
H1642 H 0.14823 0.06714 0.54432 0.0
S1643 S 0.06764 0.20074 0.55771 0.0
N1644 N 0.04331 0.1636 0.56197 0.0
N1645 N 0.10971 0.18643 0.54966 0.0
C1646 C 0.10542 0.14974 0.55015 0.0
C1647 C 0.06933 0.13733 0.55679 0.0
C1648 C 0.32835 0.33035 0.84607 0.0
C1649 C 0.32764 0.30841 0.81473 0.0
C1650 C 0.34311 0.36536 0.84478 0.0
C1651 C 0.35788 0.37998 0.81215 0.0
H1652 H 0.31684 0.32076 0.87169 0.0
H1653 H 0.34075 0.38212 0.86895 0.0
S1654 S 0.3666 0.33249 0.72339 0.0
N1655 N 0.34614 0.30307 0.75065 0.0
N1656 N 0.37382 0.36856 0.74872 0.0
C1657 C 0.35982 0.35742 0.78142 0.0
C1658 C 0.34448 0.32191 0.7825 0.0
C1659 C 0.57189 0.37389 0.47818 0.0
C1660 C 0.56649 0.3998 0.44968 0.0
C1661 C 0.6063 0.35845 0.48581 0.0
C1662 C 0.63721 0.36863 0.46574 0.0
H1663 H 0.54912 0.36513 0.49484 0.0
H1664 H 0.60881 0.33917 0.50837 0.0
S1665 S 0.63823 0.43381 0.38713 0.0
N1666 N 0.59502 0.43343 0.40008 0.0
N1667 N 0.66016 0.40534 0.41505 0.0
C1668 C 0.63232 0.39403 0.43672 0.0
C1669 C 0.59691 0.40927 0.42845 0.0
C1670 C 0.65213 0.15464 0.84578 0.0
C1671 C 0.66338 0.17106 0.81263 0.0
C1672 C 0.6392 0.11899 0.8466 0.0
C1673 C 0.63627 0.09909 0.81422 0.0
H1674 H 0.65288 0.16947 0.87125 0.0
H1675 H 0.63183 0.10678 0.87268 0.0
S1676 S 0.66539 0.12779 0.72101 0.0
N1677 N 0.6734 0.16315 0.74709 0.0
N1678 N 0.64787 0.09688 0.74865 0.0
C1679 C 0.64777 0.11488 0.78104 0.0
C1680 C 0.6617 0.15067 0.78025 0.0
C1681 C 0.43995 0.11464 0.47787 0.0
C1682 C 0.45065 0.09408 0.44702 0.0
C1683 C 0.40303 0.11891 0.48756 0.0
C1684 C 0.37579 0.10319 0.46636 0.0
H1685 H 0.46028 0.1263 0.49551 0.0
H1686 H 0.39599 0.13261 0.51281 0.0
S1687 S 0.38861 0.05145 0.38047 0.0
N1688 N 0.43036 0.06118 0.39351 0.0
N1689 N 0.36126 0.06942 0.41162 0.0
C1690 C 0.38593 0.08467 0.43432 0.0
C1691 C 0.4233 0.07997 0.42469 0.0
C1692 C 0.66596 0.32526 0.65287 0.0
C1693 C 0.69523 0.30973 0.67293 0.0
C1694 C 0.6719 0.34366 0.61952 0.0
C1695 C 0.70719 0.34655 0.60493 0.0
H1696 H 0.63858 0.32516 0.66406 0.0
H1697 H 0.64883 0.35602 0.60532 0.0
S1698 S 0.79263 0.30892 0.646 0.0
N1699 N 0.76034 0.29722 0.67519 0.0
N1700 N 0.77164 0.33137 0.61253 0.0
C1701 C 0.73642 0.32981 0.62404 0.0
C1702 C 0.7304 0.31146 0.65802 0.0
C1703 C 0.70097 0.65023 0.83053 0.0
C1704 C 0.6968 0.68816 0.82584 0.0
C1705 C 0.70116 0.63404 0.86541 0.0
C1706 C 0.69802 0.6552 0.89709 0.0
H1707 H 0.70387 0.63277 0.80693 0.0
H1708 H 0.70521 0.60481 0.86758 0.0
S1709 S 0.68475 0.75549 0.89975 0.0
N1710 N 0.68743 0.74629 0.85557 0.0
N1711 N 0.68925 0.71602 0.92157 0.0
C1712 C 0.6933 0.69315 0.89285 0.0
C1713 C 0.69221 0.70959 0.85711 0.0
C1714 C 0.91552 0.06271 0.42272 0.0
C1715 C 0.90441 0.03955 0.45135 0.0
C1716 C 0.90651 0.05547 0.38636 0.0
C1717 C 0.8863 0.02473 0.37724 0.0
H1718 H 0.93161 0.08646 0.42833 0.0
H1719 H 0.91755 0.07274 0.36493 0.0
S1720 S 0.84922 0.95643 0.44178 0.0
N1721 N 0.87022 0.98563 0.46825 0.0
N1722 N 0.85449 0.97156 0.39933 0.0
C1723 C 0.87376 0.00212 0.4055 0.0
C1724 C 0.88254 0.00965 0.44272 0.0
C1725 C 0.34183 0.8306 0.82164 0.0
C1726 C 0.3143 0.84359 0.79811 0.0
C1727 C 0.34165 0.8399 0.85887 0.0
C1728 C 0.31369 0.86219 0.87402 0.0
H1729 H 0.36218 0.8113 0.81191 0.0
H1730 H 0.36175 0.82678 0.87654 0.0
S1731 S 0.2421 0.9121 0.82142 0.0
N1732 N 0.26358 0.88698 0.79069 0.0
N1733 N 0.26284 0.90331 0.86069 0.0
C1734 C 0.28912 0.87925 0.84973 0.0
C1735 C 0.28934 0.86998 0.81182 0.0
C1736 C 0.58587 0.90765 0.92476 0.0
C1737 C 0.60518 0.92839 0.95016 0.0
C1738 C 0.58937 0.91376 0.88696 0.0
C1739 C 0.61238 0.9408 0.87265 0.0
H1740 H 0.56652 0.88759 0.93403 0.0
H1741 H 0.57189 0.89881 0.86877 0.0
S1742 S 0.67402 -0.00174 0.9265 0.0
N1743 N 0.65232 0.97387 0.95766 0.0
N1744 N 0.65826 0.98523 0.88646 0.0
C1745 C 0.63434 0.95946 0.89731 0.0
C1746 C 0.63077 0.95341 0.93606 0.0
C1747 C 0.78539 0.64018 0.17386 0.0
C1748 C 0.8165 0.65565 0.18993 0.0
C1749 C 0.78585 0.62701 0.13797 0.0
C1750 C 0.81727 0.62917 0.11611 0.0
H1751 H 0.7598 0.63915 0.18865 0.0
H1752 H 0.76037 0.61822 0.12628 0.0
S1753 S 0.90789 0.66049 0.1465 0.0
N1754 N 0.88128 0.66693 0.18249 0.0
N1755 N 0.8817 0.64329 0.11447 0.0
C1756 C 0.84938 0.64167 0.13262 0.0
C1757 C 0.84907 0.65481 0.16947 0.0
C1758 C 0.87045 0.98618 0.06379 0.0
C1759 C 0.89806 0.95956 0.05834 0.0
C1760 C 0.85666 0.99379 0.09876 0.0
C1761 C 0.86993 0.97525 0.12997 0.0
H1762 H 0.85877 0.00097 0.04068 0.0
H1763 H 0.83543 0.01447 0.10126 0.0
S1764 S 0.9421 0.90305 0.13123 0.0
N1765 N 0.93838 0.91481 0.08758 0.0
N1766 N 0.91238 0.929 0.15331 0.0
C1767 C 0.89802 0.94904 0.12518 0.0
C1768 C 0.91215 0.94129 0.08945 0.0
C1769 C 0.13369 0.56016 0.07067 0.0
C1770 C 0.09685 0.5634 0.06049 0.0
C1771 C 0.14413 0.55203 0.10671 0.0
C1772 C 0.1183 0.54615 0.13477 0.0
H1773 H 0.1549 0.56295 0.05017 0.0
H1774 H 0.17306 0.54923 0.11216 0.0
S1775 S 0.01783 0.55511 0.12324 0.0
N1776 N 0.03413 0.56299 0.08168 0.0
N1777 N 0.0536 0.5475 0.14991 0.0
C1778 C 0.08115 0.55129 0.12542 0.0
C1779 C 0.07046 0.55991 0.08825 0.0
loop_
_geom_bond_atom_site_label_1
_geom_bond_atom_site_label_2
_geom_bond_distance
_geom_bond_site_symmetry_2
_ccdc_geom_bond_type
Sc0 O3 2.025 . S
Sc0 O10 2.105 . S
Sc0 O13 2.105 . S
Sc0 O16 2.105 . S
Sc0 O19 2.105 . S
Sc1 O3 2.025 . S
Sc1 O11 2.105 . S
Sc1 O15 2.105 . S
Sc1 O17 2.105 . S
Sc1 O21 2.105 . S
Sc2 O3 2.025 . S
Sc2 O12 2.105 . S
Sc2 O14 2.105 . S
Sc2 O18 2.105 . S
Sc2 O20 2.105 . S
O3 Sc0 2.025 . S
O3 Sc1 2.025 . S
O3 Sc2 2.025 . S
C4 O10 1.268 . S
C4 O20 1.268 . S
C5 O11 1.268 . S
C5 O19 1.268 . S
C6 O12 1.268 . S
C6 O21 1.268 . S
C7 O13 1.268 . S
C7 O17 1.268 . S
C8 O14 1.268 . S
C8 O16 1.268 . S
C9 O15 1.268 . S
C9 O18 1.268 . S
O10 Sc0 2.105 . S
O10 C4 1.268 . S
O11 Sc1 2.105 . S
O11 C5 1.268 . S
O12 Sc2 2.105 . S
O12 C6 1.268 . S
O13 Sc0 2.105 . S
O13 C7 1.268 . S
O14 Sc2 2.105 . S
O14 C8 1.268 . S
O15 Sc1 2.105 . S
O15 C9 1.268 . S
O16 Sc0 2.105 . S
O16 C8 1.268 . S
O17 Sc1 2.105 . S
O17 C7 1.268 . S
O18 Sc2 2.105 . S
O18 C9 1.268 . S
O19 Sc0 2.105 . S
O19 C5 1.268 . S
O20 Sc2 2.105 . S
O20 C4 1.268 . S
O21 Sc1 2.105 . S
O21 C6 1.268 . S
Sc22 O25 2.025 . S
Sc22 O32 2.105 . S
Sc22 O35 2.105 . S
Sc22 O38 2.105 . S
Sc22 O41 2.105 . S
Sc23 O25 2.025 . S
Sc23 O33 2.105 . S
Sc23 O37 2.105 . S
Sc23 O39 2.105 . S
Sc23 O43 2.105 . S
Sc24 O25 2.025 . S
Sc24 O34 2.105 . S
Sc24 O36 2.105 . S
Sc24 O40 2.105 . S
Sc24 O42 2.105 . S
O25 Sc22 2.025 . S
O25 Sc23 2.025 . S
O25 Sc24 2.025 . S
C26 O32 1.268 . S
C26 O42 1.268 . S
C27 O33 1.268 1_556 S
C27 O41 1.268 1_556 S
C28 O34 1.268 . S
C28 O43 1.268 . S
C29 O35 1.268 . S
C29 O39 1.268 . S
C30 O36 1.268 . S
C30 O38 1.268 . S
C31 O37 1.268 . S
C31 O40 1.268 . S
O32 Sc22 2.105 . S
O32 C26 1.268 . S
O33 Sc23 2.105 . S
O33 C27 1.268 1_554 S
O34 Sc24 2.105 . S
O34 C28 1.268 . S
O35 Sc22 2.105 . S
O35 C29 1.268 . S
O36 Sc24 2.105 . S
O36 C30 1.268 . S
O37 Sc23 2.105 . S
O37 C31 1.268 . S
O38 Sc22 2.105 . S
O38 C30 1.268 . S
O39 Sc23 2.105 . S
O39 C29 1.268 . S
O40 Sc24 2.105 . S
O40 C31 1.268 . S
O41 Sc22 2.105 . S
O41 C27 1.268 1_554 S
O42 Sc24 2.105 . S
O42 C26 1.268 . S
O43 Sc23 2.105 . S
O43 C28 1.268 . S
Sc44 O47 2.025 . S
Sc44 O54 2.105 . S
Sc44 O57 2.105 . S
Sc44 O60 2.105 . S
Sc44 O63 2.105 . S
Sc45 O47 2.025 . S
Sc45 O55 2.105 . S
Sc45 O59 2.105 . S
Sc45 O61 2.105 . S
Sc45 O65 2.105 . S
Sc46 O47 2.025 . S
Sc46 O56 2.105 . S
Sc46 O58 2.105 . S
Sc46 O62 2.105 . S
Sc46 O64 2.105 . S
O47 Sc44 2.025 . S
O47 Sc45 2.025 . S
O47 Sc46 2.025 . S
C48 O54 1.268 . S
C48 O64 1.268 . S
C49 O55 1.268 . S
C49 O63 1.268 . S
C50 O56 1.268 . S
C50 O65 1.268 . S
C51 O57 1.268 . S
C51 O61 1.268 . S
C52 O58 1.268 . S
C52 O60 1.268 . S
C53 O59 1.268 . S
C53 O62 1.268 . S
O54 Sc44 2.105 . S
O54 C48 1.268 . S
O55 Sc45 2.105 . S
O55 C49 1.268 . S
O56 Sc46 2.105 . S
O56 C50 1.268 . S
O57 Sc44 2.105 . S
O57 C51 1.268 . S
O58 Sc46 2.105 . S
O58 C52 1.268 . S
O59 Sc45 2.105 . S
O59 C53 1.268 . S
O60 Sc44 2.105 . S
O60 C52 1.268 . S
O61 Sc45 2.105 . S
O61 C51 1.268 . S
O62 Sc46 2.105 . S
O62 C53 1.268 . S
O63 Sc44 2.105 . S
O63 C49 1.268 . S
O64 Sc46 2.105 . S
O64 C48 1.268 . S
O65 Sc45 2.105 . S
O65 C50 1.268 . S
Sc66 O69 2.025 . S
Sc66 O76 2.105 . S
Sc66 O79 2.105 . S
Sc66 O82 2.105 . S
Sc66 O85 2.105 . S
Sc67 O69 2.025 . S
Sc67 O77 2.105 . S
Sc67 O81 2.105 . S
Sc67 O83 2.105 . S
Sc67 O87 2.105 . S
Sc68 O69 2.025 . S
Sc68 O78 2.105 . S
Sc68 O80 2.105 . S
Sc68 O84 2.105 . S
Sc68 O86 2.105 . S
O69 Sc66 2.025 . S
O69 Sc67 2.025 . S
O69 Sc68 2.025 . S
C70 O76 1.268 . S
C70 O86 1.268 . S
C71 O77 1.268 . S
C71 O85 1.268 . S
C72 O78 1.268 . S
C72 O87 1.268 . S
C73 O79 1.268 1_556 S
C73 O83 1.268 1_556 S
C74 O80 1.268 1_545 S
C74 O82 1.268 1_545 S
C75 O81 1.268 . S
C75 O84 1.268 . S
O76 Sc66 2.105 . S
O76 C70 1.268 . S
O77 Sc67 2.105 . S
O77 C71 1.268 . S
O78 Sc68 2.105 . S
O78 C72 1.268 . S
O79 Sc66 2.105 . S
O79 C73 1.268 1_554 S
O80 Sc68 2.105 . S
O80 C74 1.268 1_565 S
O81 Sc67 2.105 . S
O81 C75 1.268 . S
O82 Sc66 2.105 . S
O82 C74 1.268 1_565 S
O83 Sc67 2.105 . S
O83 C73 1.268 1_554 S
O84 Sc68 2.105 . S
O84 C75 1.268 . S
O85 Sc66 2.105 . S
O85 C71 1.268 . S
O86 Sc68 2.105 . S
O86 C70 1.268 . S
O87 Sc67 2.105 . S
O87 C72 1.268 . S
Sc88 O91 2.025 . S
Sc88 O98 2.105 . S
Sc88 O101 2.105 . S
Sc88 O104 2.105 . S
Sc88 O107 2.105 . S
Sc89 O91 2.025 . S
Sc89 O99 2.105 . S
Sc89 O103 2.105 . S
Sc89 O105 2.105 . S
Sc89 O109 2.105 . S
Sc90 O91 2.025 . S
Sc90 O100 2.105 . S
Sc90 O102 2.105 . S
Sc90 O106 2.105 . S
Sc90 O108 2.105 . S
O91 Sc88 2.025 . S
O91 Sc89 2.025 . S
O91 Sc90 2.025 . S
C92 O98 1.268 . S
C92 O108 1.268 . S
C93 O99 1.268 . S
C93 O107 1.268 . S
C94 O100 1.268 . S
C94 O109 1.268 . S
C95 O101 1.268 . S
C95 O105 1.268 . S
C96 O102 1.268 . S
C96 O104 1.268 . S
C97 O103 1.268 . S
C97 O106 1.268 . S
O98 Sc88 2.105 . S
O98 C92 1.268 . S
O99 Sc89 2.105 . S
O99 C93 1.268 . S
O100 Sc90 2.105 . S
O100 C94 1.268 . S
O101 Sc88 2.105 . S
O101 C95 1.268 . S
O102 Sc90 2.105 . S
O102 C96 1.268 . S
O103 Sc89 2.105 . S
O103 C97 1.268 . S
O104 Sc88 2.105 . S
O104 C96 1.268 . S
O105 Sc89 2.105 . S
O105 C95 1.268 . S
O106 Sc90 2.105 . S
O106 C97 1.268 . S
O107 Sc88 2.105 . S
O107 C93 1.268 . S
O108 Sc90 2.105 . S
O108 C92 1.268 . S
O109 Sc89 2.105 . S
O109 C94 1.268 . S
Sc110 O113 2.025 . S
Sc110 O120 2.105 . S
Sc110 O123 2.105 . S
Sc110 O126 2.105 . S
Sc110 O129 2.105 . S
Sc111 O113 2.025 . S
Sc111 O121 2.105 . S
Sc111 O125 2.105 . S
Sc111 O127 2.105 . S
Sc111 O131 2.105 . S
Sc112 O113 2.025 . S
Sc112 O122 2.105 . S
Sc112 O124 2.105 . S
Sc112 O128 2.105 . S
Sc112 O130 2.105 . S
O113 Sc110 2.025 . S
O113 Sc111 2.025 . S
O113 Sc112 2.025 . S
C114 O120 1.268 . S
C114 O130 1.268 . S
C115 O121 1.268 . S
C115 O129 1.268 . S
C116 O122 1.268 . S
C116 O131 1.268 . S
C117 O123 1.268 1_655 S
C117 O127 1.268 1_655 S
C118 O124 1.268 1_554 S
C118 O126 1.268 1_554 S
C119 O125 1.268 . S
C119 O128 1.268 . S
O120 Sc110 2.105 . S
O120 C114 1.268 . S
O121 Sc111 2.105 . S
O121 C115 1.268 . S
O122 Sc112 2.105 . S
O122 C116 1.268 . S
O123 Sc110 2.105 . S
O123 C117 1.268 1_455 S
O124 Sc112 2.105 . S
O124 C118 1.268 1_556 S
O125 Sc111 2.105 . S
O125 C119 1.268 . S
O126 Sc110 2.105 . S
O126 C118 1.268 1_556 S
O127 Sc111 2.105 . S
O127 C117 1.268 1_455 S
O128 Sc112 2.105 . S
O128 C119 1.268 . S
O129 Sc110 2.105 . S
O129 C115 1.268 . S
O130 Sc112 2.105 . S
O130 C114 1.268 . S
O131 Sc111 2.105 . S
O131 C116 1.268 . S
Sc132 O135 2.025 . S
Sc132 O142 2.105 . S
Sc132 O145 2.105 . S
Sc132 O148 2.105 . S
Sc132 O151 2.105 . S
Sc133 O135 2.025 . S
Sc133 O143 2.105 . S
Sc133 O147 2.105 . S
Sc133 O149 2.105 . S
Sc133 O153 2.105 . S
Sc134 O135 2.025 . S
Sc134 O144 2.105 . S
Sc134 O146 2.105 . S
Sc134 O150 2.105 . S
Sc134 O152 2.105 . S
O135 Sc132 2.025 . S
O135 Sc133 2.025 . S
O135 Sc134 2.025 . S
C136 O142 1.268 . S
C136 O152 1.268 . S
C137 O143 1.268 . S
C137 O151 1.268 . S
C138 O144 1.268 . S
C138 O153 1.268 . S
C139 O145 1.268 . S
C139 O149 1.268 . S
C140 O146 1.268 . S
C140 O148 1.268 . S
C141 O147 1.268 . S
C141 O150 1.268 . S
O142 Sc132 2.105 . S
O142 C136 1.268 . S
O143 Sc133 2.105 . S
O143 C137 1.268 . S
O144 Sc134 2.105 . S
O144 C138 1.268 . S
O145 Sc132 2.105 . S
O145 C139 1.268 . S
O146 Sc134 2.105 . S
O146 C140 1.268 . S
O147 Sc133 2.105 . S
O147 C141 1.268 . S
O148 Sc132 2.105 . S
O148 C140 1.268 . S
O149 Sc133 2.105 . S
O149 C139 1.268 . S
O150 Sc134 2.105 . S
O150 C141 1.268 . S
O151 Sc132 2.105 . S
O151 C137 1.268 . S
O152 Sc134 2.105 . S
O152 C136 1.268 . S
O153 Sc133 2.105 . S
O153 C138 1.268 . S
Sc154 O157 2.025 . S
Sc154 O164 2.105 . S
Sc154 O167 2.105 . S
Sc154 O170 2.105 . S
Sc154 O173 2.105 . S
Sc155 O157 2.025 . S
Sc155 O165 2.105 . S
Sc155 O169 2.105 . S
Sc155 O171 2.105 . S
Sc155 O175 2.105 . S
Sc156 O157 2.025 . S
Sc156 O166 2.105 . S
Sc156 O168 2.105 . S
Sc156 O172 2.105 . S
Sc156 O174 2.105 . S
O157 Sc154 2.025 . S
O157 Sc155 2.025 . S
O157 Sc156 2.025 . S
C158 O164 1.268 . S
C158 O174 1.268 . S
C159 O165 1.268 . S
C159 O173 1.268 . S
C160 O166 1.268 . S
C160 O175 1.268 . S
C161 O167 1.268 1_545 S
C161 O171 1.268 1_545 S
C162 O168 1.268 1_455 S
C162 O170 1.268 1_455 S
C163 O169 1.268 1_554 S
C163 O172 1.268 1_554 S
O164 Sc154 2.105 . S
O164 C158 1.268 . S
O165 Sc155 2.105 . S
O165 C159 1.268 . S
O166 Sc156 2.105 . S
O166 C160 1.268 . S
O167 Sc154 2.105 . S
O167 C161 1.268 1_565 S
O168 Sc156 2.105 . S
O168 C162 1.268 1_655 S
O169 Sc155 2.105 . S
O169 C163 1.268 1_556 S
O170 Sc154 2.105 . S
O170 C162 1.268 1_655 S
O171 Sc155 2.105 . S
O171 C161 1.268 1_565 S
O172 Sc156 2.105 . S
O172 C163 1.268 1_556 S
O173 Sc154 2.105 . S
O173 C159 1.268 . S
O174 Sc156 2.105 . S
O174 C158 1.268 . S
O175 Sc155 2.105 . S
O175 C160 1.268 . S
Sc176 O179 2.025 . S
Sc176 O186 2.105 . S
Sc176 O189 2.105 . S
Sc176 O192 2.105 . S
Sc176 O195 2.105 . S
Sc177 O179 2.025 . S
Sc177 O187 2.105 . S
Sc177 O191 2.105 . S
Sc177 O193 2.105 . S
Sc177 O197 2.105 . S
Sc178 O179 2.025 . S
Sc178 O188 2.105 . S
Sc178 O190 2.105 . S
Sc178 O194 2.105 . S
Sc178 O196 2.105 . S
O179 Sc176 2.025 . S
O179 Sc177 2.025 . S
O179 Sc178 2.025 . S
C180 O186 1.268 . S
C180 O196 1.268 . S
C181 O187 1.268 . S
C181 O195 1.268 . S
C182 O188 1.268 . S
C182 O197 1.268 . S
C183 O189 1.268 . S
C183 O193 1.268 . S
C184 O190 1.268 . S
C184 O192 1.268 . S
C185 O191 1.268 . S
C185 O194 1.268 . S
O186 Sc176 2.105 . S
O186 C180 1.268 . S
O187 Sc177 2.105 . S
O187 C181 1.268 . S
O188 Sc178 2.105 . S
O188 C182 1.268 . S
O189 Sc176 2.105 . S
O189 C183 1.268 . S
O190 Sc178 2.105 . S
O190 C184 1.268 . S
O191 Sc177 2.105 . S
O191 C185 1.268 . S
O192 Sc176 2.105 . S
O192 C184 1.268 . S
O193 Sc177 2.105 . S
O193 C183 1.268 . S
O194 Sc178 2.105 . S
O194 C185 1.268 . S
O195 Sc176 2.105 . S
O195 C181 1.268 . S
O196 Sc178 2.105 . S
O196 C180 1.268 . S
O197 Sc177 2.105 . S
O197 C182 1.268 . S
Sc198 O201 2.025 . S
Sc198 O208 2.105 . S
Sc198 O211 2.105 . S
Sc198 O214 2.105 . S
Sc198 O217 2.105 . S
Sc199 O201 2.025 . S
Sc199 O209 2.105 . S
Sc199 O213 2.105 . S
Sc199 O215 2.105 . S
Sc199 O219 2.105 . S
Sc200 O201 2.025 . S
Sc200 O210 2.105 . S
Sc200 O212 2.105 . S
Sc200 O216 2.105 . S
Sc200 O218 2.105 . S
O201 Sc198 2.025 . S
O201 Sc199 2.025 . S
O201 Sc200 2.025 . S
C202 O208 1.268 . S
C202 O218 1.268 . S
C203 O209 1.268 . S
C203 O217 1.268 . S
C204 O210 1.268 . S
C204 O219 1.268 . S
C205 O211 1.268 . S
C205 O215 1.268 . S
C206 O212 1.268 . S
C206 O214 1.268 . S
C207 O213 1.268 . S
C207 O216 1.268 . S
O208 Sc198 2.105 . S
O208 C202 1.268 . S
O209 Sc199 2.105 . S
O209 C203 1.268 . S
O210 Sc200 2.105 . S
O210 C204 1.268 . S
O211 Sc198 2.105 . S
O211 C205 1.268 . S
O212 Sc200 2.105 . S
O212 C206 1.268 . S
O213 Sc199 2.105 . S
O213 C207 1.268 . S
O214 Sc198 2.105 . S
O214 C206 1.268 . S
O215 Sc199 2.105 . S
O215 C205 1.268 . S
O216 Sc200 2.105 . S
O216 C207 1.268 . S
O217 Sc198 2.105 . S
O217 C203 1.268 . S
O218 Sc200 2.105 . S
O218 C202 1.268 . S
O219 Sc199 2.105 . S
O219 C204 1.268 . S
Sc220 O223 2.025 . S
Sc220 O230 2.105 . S
Sc220 O233 2.105 . S
Sc220 O236 2.105 . S
Sc220 O239 2.105 . S
Sc221 O223 2.025 . S
Sc221 O231 2.105 . S
Sc221 O235 2.105 . S
Sc221 O237 2.105 . S
Sc221 O241 2.105 . S
Sc222 O223 2.025 . S
Sc222 O232 2.105 . S
Sc222 O234 2.105 . S
Sc222 O238 2.105 . S
Sc222 O240 2.105 . S
O223 Sc220 2.025 . S
O223 Sc221 2.025 . S
O223 Sc222 2.025 . S
C224 O230 1.268 . S
C224 O240 1.268 . S
C225 O231 1.268 . S
C225 O239 1.268 . S
C226 O232 1.268 . S
C226 O241 1.268 . S
C227 O233 1.268 . S
C227 O237 1.268 . S
C228 O234 1.268 . S
C228 O236 1.268 . S
C229 O235 1.268 1_655 S
C229 O238 1.268 1_655 S
O230 Sc220 2.105 . S
O230 C224 1.268 . S
O231 Sc221 2.105 . S
O231 C225 1.268 . S
O232 Sc222 2.105 . S
O232 C226 1.268 . S
O233 Sc220 2.105 . S
O233 C227 1.268 . S
O234 Sc222 2.105 . S
O234 C228 1.268 . S
O235 Sc221 2.105 . S
O235 C229 1.268 1_455 S
O236 Sc220 2.105 . S
O236 C228 1.268 . S
O237 Sc221 2.105 . S
O237 C227 1.268 . S
O238 Sc222 2.105 . S
O238 C229 1.268 1_455 S
O239 Sc220 2.105 . S
O239 C225 1.268 . S
O240 Sc222 2.105 . S
O240 C224 1.268 . S
O241 Sc221 2.105 . S
O241 C226 1.268 . S
Sc242 O245 2.025 . S
Sc242 O252 2.105 . S
Sc242 O255 2.105 . S
Sc242 O258 2.105 . S
Sc242 O261 2.105 . S
Sc243 O245 2.025 . S
Sc243 O253 2.105 . S
Sc243 O257 2.105 . S
Sc243 O259 2.105 . S
Sc243 O263 2.105 . S
Sc244 O245 2.025 . S
Sc244 O254 2.105 . S
Sc244 O256 2.105 . S
Sc244 O260 2.105 . S
Sc244 O262 2.105 . S
O245 Sc242 2.025 . S
O245 Sc243 2.025 . S
O245 Sc244 2.025 . S
C246 O252 1.268 1_455 S
C246 O262 1.268 1_455 S
C247 O253 1.268 . S
C247 O261 1.268 . S
C248 O254 1.268 1_565 S
C248 O263 1.268 1_565 S
C249 O255 1.268 . S
C249 O259 1.268 . S
C250 O256 1.268 . S
C250 O258 1.268 . S
C251 O257 1.268 . S
C251 O260 1.268 . S
O252 Sc242 2.105 . S
O252 C246 1.268 1_655 S
O253 Sc243 2.105 . S
O253 C247 1.268 . S
O254 Sc244 2.105 . S
O254 C248 1.268 1_545 S
O255 Sc242 2.105 . S
O255 C249 1.268 . S
O256 Sc244 2.105 . S
O256 C250 1.268 . S
O257 Sc243 2.105 . S
O257 C251 1.268 . S
O258 Sc242 2.105 . S
O258 C250 1.268 . S
O259 Sc243 2.105 . S
O259 C249 1.268 . S
O260 Sc244 2.105 . S
O260 C251 1.268 . S
O261 Sc242 2.105 . S
O261 C247 1.268 . S
O262 Sc244 2.105 . S
O262 C246 1.268 1_655 S
O263 Sc243 2.105 . S
O263 C248 1.268 1_545 S
Sc264 O267 2.025 . S
Sc264 O274 2.105 . S
Sc264 O277 2.105 . S
Sc264 O280 2.105 . S
Sc264 O283 2.105 . S
Sc265 O267 2.025 . S
Sc265 O275 2.105 . S
Sc265 O279 2.105 . S
Sc265 O281 2.105 . S
Sc265 O285 2.105 . S
Sc266 O267 2.025 . S
Sc266 O276 2.105 . S
Sc266 O278 2.105 . S
Sc266 O282 2.105 . S
Sc266 O284 2.105 . S
O267 Sc264 2.025 . S
O267 Sc265 2.025 . S
O267 Sc266 2.025 . S
C268 O274 1.268 . S
C268 O284 1.268 . S
C269 O275 1.268 . S
C269 O283 1.268 . S
C270 O276 1.268 . S
C270 O285 1.268 . S
C271 O277 1.268 . S
C271 O281 1.268 . S
C272 O278 1.268 . S
C272 O280 1.268 . S
C273 O279 1.268 . S
C273 O282 1.268 . S
O274 Sc264 2.105 . S
O274 C268 1.268 . S
O275 Sc265 2.105 . S
O275 C269 1.268 . S
O276 Sc266 2.105 . S
O276 C270 1.268 . S
O277 Sc264 2.105 . S
O277 C271 1.268 . S
O278 Sc266 2.105 . S
O278 C272 1.268 . S
O279 Sc265 2.105 . S
O279 C273 1.268 . S
O280 Sc264 2.105 . S
O280 C272 1.268 . S
O281 Sc265 2.105 . S
O281 C271 1.268 . S
O282 Sc266 2.105 . S
O282 C273 1.268 . S
O283 Sc264 2.105 . S
O283 C269 1.268 . S
O284 Sc266 2.105 . S
O284 C268 1.268 . S
O285 Sc265 2.105 . S
O285 C270 1.268 . S
Sc286 O289 2.025 . S
Sc286 O296 2.105 . S
Sc286 O299 2.105 . S
Sc286 O302 2.105 . S
Sc286 O305 2.105 . S
Sc287 O289 2.025 . S
Sc287 O297 2.105 . S
Sc287 O301 2.105 . S
Sc287 O303 2.105 . S
Sc287 O307 2.105 . S
Sc288 O289 2.025 . S
Sc288 O298 2.105 . S
Sc288 O300 2.105 . S
Sc288 O304 2.105 . S
Sc288 O306 2.105 . S
O289 Sc286 2.025 . S
O289 Sc287 2.025 . S
O289 Sc288 2.025 . S
C290 O296 1.268 . S
C290 O306 1.268 . S
C291 O297 1.268 . S
C291 O305 1.268 . S
C292 O298 1.268 . S
C292 O307 1.268 . S
C293 O299 1.268 . S
C293 O303 1.268 . S
C294 O300 1.268 . S
C294 O302 1.268 . S
C295 O301 1.268 . S
C295 O304 1.268 . S
O296 Sc286 2.105 . S
O296 C290 1.268 . S
O297 Sc287 2.105 . S
O297 C291 1.268 . S
O298 Sc288 2.105 . S
O298 C292 1.268 . S
O299 Sc286 2.105 . S
O299 C293 1.268 . S
O300 Sc288 2.105 . S
O300 C294 1.268 . S
O301 Sc287 2.105 . S
O301 C295 1.268 . S
O302 Sc286 2.105 . S
O302 C294 1.268 . S
O303 Sc287 2.105 . S
O303 C293 1.268 . S
O304 Sc288 2.105 . S
O304 C295 1.268 . S
O305 Sc286 2.105 . S
O305 C291 1.268 . S
O306 Sc288 2.105 . S
O306 C290 1.268 . S
O307 Sc287 2.105 . S
O307 C292 1.268 . S
Sc308 O311 2.025 . S
Sc308 O318 2.105 . S
Sc308 O321 2.105 . S
Sc308 O324 2.105 . S
Sc308 O327 2.105 . S
Sc309 O311 2.025 . S
Sc309 O319 2.105 . S
Sc309 O323 2.105 . S
Sc309 O325 2.105 . S
Sc309 O329 2.105 . S
Sc310 O311 2.025 . S
Sc310 O320 2.105 . S
Sc310 O322 2.105 . S
Sc310 O326 2.105 . S
Sc310 O328 2.105 . S
O311 Sc308 2.025 . S
O311 Sc309 2.025 . S
O311 Sc310 2.025 . S
C312 O318 1.268 . S
C312 O328 1.268 . S
C313 O319 1.268 . S
C313 O327 1.268 . S
C314 O320 1.268 . S
C314 O329 1.268 . S
C315 O321 1.268 . S
C315 O325 1.268 . S
C316 O322 1.268 . S
C316 O324 1.268 . S
C317 O323 1.268 1_565 S
C317 O326 1.268 1_565 S
O318 Sc308 2.105 . S
O318 C312 1.268 . S
O319 Sc309 2.105 . S
O319 C313 1.268 . S
O320 Sc310 2.105 . S
O320 C314 1.268 . S
O321 Sc308 2.105 . S
O321 C315 1.268 . S
O322 Sc310 2.105 . S
O322 C316 1.268 . S
O323 Sc309 2.105 . S
O323 C317 1.268 1_545 S
O324 Sc308 2.105 . S
O324 C316 1.268 . S
O325 Sc309 2.105 . S
O325 C315 1.268 . S
O326 Sc310 2.105 . S
O326 C317 1.268 1_545 S
O327 Sc308 2.105 . S
O327 C313 1.268 . S
O328 Sc310 2.105 . S
O328 C312 1.268 . S
O329 Sc309 2.105 . S
O329 C314 1.268 . S
Sc330 O333 2.025 . S
Sc330 O340 2.105 . S
Sc330 O343 2.105 . S
Sc330 O346 2.105 . S
Sc330 O349 2.105 . S
Sc331 O333 2.025 . S
Sc331 O341 2.105 . S
Sc331 O345 2.105 . S
Sc331 O347 2.105 . S
Sc331 O351 2.105 . S
Sc332 O333 2.025 . S
Sc332 O342 2.105 . S
Sc332 O344 2.105 . S
Sc332 O348 2.105 . S
Sc332 O350 2.105 . S
O333 Sc330 2.025 . S
O333 Sc331 2.025 . S
O333 Sc332 2.025 . S
C334 O340 1.268 . S
C334 O350 1.268 . S
C335 O341 1.268 . S
C335 O349 1.268 . S
C336 O342 1.268 . S
C336 O351 1.268 . S
C337 O343 1.268 . S
C337 O347 1.268 . S
C338 O344 1.268 . S
C338 O346 1.268 . S
C339 O345 1.268 . S
C339 O348 1.268 . S
O340 Sc330 2.105 . S
O340 C334 1.268 . S
O341 Sc331 2.105 . S
O341 C335 1.268 . S
O342 Sc332 2.105 . S
O342 C336 1.268 . S
O343 Sc330 2.105 . S
O343 C337 1.268 . S
O344 Sc332 2.105 . S
O344 C338 1.268 . S
O345 Sc331 2.105 . S
O345 C339 1.268 . S
O346 Sc330 2.105 . S
O346 C338 1.268 . S
O347 Sc331 2.105 . S
O347 C337 1.268 . S
O348 Sc332 2.105 . S
O348 C339 1.268 . S
O349 Sc330 2.105 . S
O349 C335 1.268 . S
O350 Sc332 2.105 . S
O350 C334 1.268 . S
O351 Sc331 2.105 . S
O351 C336 1.268 . S
C352 O379 1.312 . S
C352 O380 1.208 . S
C353 O374 1.331 1_554 S
C353 O377 1.244 1_554 S
C354 O376 1.264 . S
C354 O378 1.273 . S
Mg355 O357 1.936 1_455 S
Mg355 O364 2.081 1_455 S
Mg355 O366 2.023 . S
Mg355 O370 2.040 . S
Mg355 O379 2.291 . S
Mg356 O357 1.963 . S
Mg356 O367 1.942 . S
Mg356 O368 1.955 1_655 S
Mg356 O375 1.986 . S
O357 Mg355 1.936 1_655 S
O357 Mg356 1.963 . S
O357 Mg358 1.915 . S
Mg358 O357 1.915 . S
Mg358 O359 1.915 1_655 S
Mg358 O363 2.013 1_655 S
Mg358 O369 2.114 . S
Mg358 O373 2.013 . S
Mg358 O379 2.114 1_655 S
O359 Mg358 1.915 1_455 S
O359 Mg360 1.936 . S
O359 Mg361 1.963 1_455 S
Mg360 O359 1.936 . S
Mg360 O369 2.291 1_455 S
Mg360 O374 2.081 . S
Mg360 O376 2.023 1_455 S
Mg360 O380 2.031 . S
Mg361 O359 1.963 1_655 S
Mg361 O365 1.986 1_655 S
Mg361 O377 1.942 1_655 S
Mg361 O378 1.955 . S
C362 O373 1.191 . S
C362 O375 1.307 . S
O363 Mg358 2.013 1_455 S
O363 C382 1.191 . S
O364 Mg355 2.081 1_655 S
O364 C372 1.331 . S
O365 Mg361 1.986 1_455 S
O365 C382 1.307 . S
O366 Mg355 2.023 . S
O366 C381 1.264 . S
O367 Mg356 1.942 . S
O367 C372 1.244 . S
O368 Mg356 1.955 1_455 S
O368 C381 1.273 . S
O369 Mg358 2.114 . S
O369 Mg360 2.291 1_655 S
O369 C371 1.312 . S
O370 Mg355 2.040 . S
O370 C371 1.200 1_455 S
C371 O369 1.312 . S
C371 O370 1.200 1_655 S
C372 O364 1.331 . S
C372 O367 1.244 . S
O373 Mg358 2.013 . S
O373 C362 1.191 . S
O374 C353 1.331 1_556 S
O374 Mg360 2.081 . S
O375 Mg356 1.986 . S
O375 C362 1.307 . S
O376 C354 1.264 . S
O376 Mg360 2.023 1_655 S
O377 C353 1.244 1_556 S
O377 Mg361 1.942 1_455 S
O378 C354 1.273 . S
O378 Mg361 1.955 . S
O379 C352 1.312 . S
O379 Mg355 2.291 . S
O379 Mg358 2.114 1_455 S
O380 C352 1.208 . S
O380 Mg360 2.031 . S
C381 O366 1.264 . S
C381 O368 1.273 . S
C382 O363 1.191 . S
C382 O365 1.307 . S
C383 O410 1.312 . S
C383 O411 1.208 . S
C384 O405 1.331 . S
C384 O408 1.244 . S
C385 O407 1.264 . S
C385 O409 1.273 . S
Mg386 O388 1.936 . S
Mg386 O395 2.081 . S
Mg386 O397 2.023 . S
Mg386 O401 2.031 . S
Mg386 O410 2.291 . S
Mg387 O388 1.963 . S
Mg387 O398 1.942 . S
Mg387 O399 1.955 . S
Mg387 O406 1.986 . S
O388 Mg386 1.936 . S
O388 Mg387 1.963 . S
O388 Mg389 1.915 . S
Mg389 O388 1.915 . S
Mg389 O390 1.915 . S
Mg389 O394 2.013 . S
Mg389 O400 2.114 . S
Mg389 O404 2.013 . S
Mg389 O410 2.114 . S
O390 Mg389 1.915 . S
O390 Mg391 1.936 . S
O390 Mg392 1.963 . S
Mg391 O390 1.936 . S
Mg391 O400 2.291 . S
Mg391 O405 2.081 . S
Mg391 O407 2.023 . S
Mg391 O411 2.031 . S
Mg392 O390 1.963 . S
Mg392 O396 1.986 . S
Mg392 O408 1.942 . S
Mg392 O409 1.955 . S
C393 O404 1.191 . S
C393 O406 1.307 . S
O394 Mg389 2.013 . S
O394 C413 1.191 . S
O395 Mg386 2.081 . S
O395 C403 1.331 . S
O396 Mg392 1.986 . S
O396 C413 1.307 . S
O397 Mg386 2.023 . S
O397 C412 1.264 . S
O398 Mg387 1.942 . S
O398 C403 1.244 . S
O399 Mg387 1.955 . S
O399 C412 1.273 . S
O400 Mg389 2.114 . S
O400 Mg391 2.291 . S
O400 C402 1.312 . S
O401 Mg386 2.031 . S
O401 C402 1.208 . S
C402 O400 1.312 . S
C402 O401 1.208 . S
C403 O395 1.331 . S
C403 O398 1.244 . S
O404 Mg389 2.013 . S
O404 C393 1.191 . S
O405 C384 1.331 . S
O405 Mg391 2.081 . S
O406 Mg387 1.986 . S
O406 C393 1.307 . S
O407 C385 1.264 . S
O407 Mg391 2.023 . S
O408 C384 1.244 . S
O408 Mg392 1.942 . S
O409 C385 1.273 . S
O409 Mg392 1.955 . S
O410 C383 1.312 . S
O410 Mg386 2.291 . S
O410 Mg389 2.114 . S
O411 C383 1.208 . S
O411 Mg391 2.031 . S
C412 O397 1.264 . S
C412 O399 1.273 . S
C413 O394 1.191 . S
C413 O396 1.307 . S
C414 O441 1.312 . S
C414 O442 1.204 1_655 S
C415 O436 1.331 . S
C415 O439 1.244 . S
C416 O438 1.264 . S
C416 O440 1.273 . S
Mg417 O419 1.936 . S
Mg417 O426 2.081 . S
Mg417 O428 2.023 1_455 S
Mg417 O432 2.031 . S
Mg417 O441 2.291 1_455 S
Mg418 O419 1.963 1_655 S
Mg418 O429 1.942 1_655 S
Mg418 O430 1.955 . S
Mg418 O437 1.986 1_655 S
O419 Mg417 1.936 . S
O419 Mg418 1.963 1_455 S
O419 Mg420 1.915 1_455 S
Mg420 O419 1.915 1_655 S
Mg420 O421 1.915 . S
Mg420 O425 2.013 . S
Mg420 O431 2.114 1_655 S
Mg420 O435 2.013 1_655 S
Mg420 O441 2.114 . S
O421 Mg420 1.915 . S
O421 Mg422 1.936 1_655 S
O421 Mg423 1.963 . S
Mg422 O421 1.936 1_455 S
Mg422 O431 2.291 . S
Mg422 O436 2.081 1_455 S
Mg422 O438 2.023 . S
Mg422 O442 2.036 . S
Mg423 O421 1.963 . S
Mg423 O427 1.986 . S
Mg423 O439 1.942 . S
Mg423 O440 1.955 1_655 S
C424 O435 1.191 . S
C424 O437 1.307 . S
O425 Mg420 2.013 . S
O425 C444 1.191 . S
O426 Mg417 2.081 . S
O426 C434 1.331 . S
O427 Mg423 1.986 . S
O427 C444 1.307 . S
O428 Mg417 2.023 1_655 S
O428 C443 1.264 . S
O429 Mg418 1.942 1_455 S
O429 C434 1.244 . S
O430 Mg418 1.955 . S
O430 C443 1.273 . S
O431 Mg420 2.114 1_455 S
O431 Mg422 2.291 . S
O431 C433 1.312 . S
O432 Mg417 2.031 . S
O432 C433 1.208 . S
C433 O431 1.312 . S
C433 O432 1.208 . S
C434 O426 1.331 . S
C434 O429 1.244 . S
O435 Mg420 2.013 1_455 S
O435 C424 1.191 . S
O436 C415 1.331 . S
O436 Mg422 2.081 1_655 S
O437 Mg418 1.986 1_455 S
O437 C424 1.307 . S
O438 C416 1.264 . S
O438 Mg422 2.023 . S
O439 C415 1.244 . S
O439 Mg423 1.942 . S
O440 C416 1.273 . S
O440 Mg423 1.955 1_455 S
O441 C414 1.312 . S
O441 Mg417 2.291 1_655 S
O441 Mg420 2.114 . S
O442 C414 1.204 1_455 S
O442 Mg422 2.036 . S
C443 O428 1.264 . S
C443 O430 1.273 . S
C444 O425 1.191 . S
C444 O427 1.307 . S
C445 O472 1.312 . S
C445 O473 1.199 1_565 S
C446 O467 1.331 . S
C446 O470 1.244 . S
C447 O469 1.264 . S
C447 O471 1.273 . S
Mg448 O450 1.936 . S
Mg448 O457 2.081 . S
Mg448 O459 2.023 1_545 S
Mg448 O463 2.031 . S
Mg448 O472 2.291 1_545 S
Mg449 O450 1.963 1_565 S
Mg449 O460 1.942 1_565 S
Mg449 O461 1.955 . S
Mg449 O468 1.986 1_565 S
O450 Mg448 1.936 . S
O450 Mg449 1.963 1_545 S
O450 Mg451 1.915 1_545 S
Mg451 O450 1.915 1_565 S
Mg451 O452 1.915 . S
Mg451 O456 2.013 . S
Mg451 O462 2.114 1_565 S
Mg451 O466 2.013 1_565 S
Mg451 O472 2.114 . S
O452 Mg451 1.915 . S
O452 Mg453 1.936 1_565 S
O452 Mg454 1.963 . S
Mg453 O452 1.936 1_545 S
Mg453 O462 2.291 . S
Mg453 O467 2.081 1_545 S
Mg453 O469 2.023 . S
Mg453 O473 2.041 . S
Mg454 O452 1.963 . S
Mg454 O458 1.986 . S
Mg454 O470 1.942 . S
Mg454 O471 1.955 1_565 S
C455 O466 1.191 . S
C455 O468 1.307 . S
O456 Mg451 2.013 . S
O456 C475 1.191 . S
O457 Mg448 2.081 . S
O457 C465 1.330 . S
O458 Mg454 1.986 . S
O458 C475 1.307 . S
O459 Mg448 2.023 1_565 S
O459 C474 1.264 . S
O460 Mg449 1.942 1_545 S
O460 C465 1.244 . S
O461 Mg449 1.955 . S
O461 C474 1.273 . S
O462 Mg451 2.114 1_545 S
O462 Mg453 2.291 . S
O462 C464 1.312 . S
O463 Mg448 2.031 . S
O463 C464 1.208 . S
C464 O462 1.312 . S
C464 O463 1.208 . S
C465 O457 1.330 . S
C465 O460 1.244 . S
O466 Mg451 2.013 1_545 S
O466 C455 1.191 . S
O467 C446 1.331 . S
O467 Mg453 2.081 1_565 S
O468 Mg449 1.986 1_545 S
O468 C455 1.307 . S
O469 C447 1.264 . S
O469 Mg453 2.023 . S
O470 C446 1.244 . S
O470 Mg454 1.942 . S
O471 C447 1.273 . S
O471 Mg454 1.955 1_545 S
O472 C445 1.312 . S
O472 Mg448 2.291 1_565 S
O472 Mg451 2.114 . S
O473 C445 1.199 1_545 S
O473 Mg453 2.041 . S
C474 O459 1.264 . S
C474 O461 1.273 . S
C475 O456 1.191 . S
C475 O458 1.307 . S
C476 O503 1.312 . S
C476 O504 1.208 . S
C477 O498 1.332 . S
C477 O501 1.245 . S
C478 O500 1.264 . S
C478 O502 1.273 . S
Mg479 O481 1.936 1_554 S
Mg479 O488 2.081 1_554 S
Mg479 O490 2.023 . S
Mg479 O494 2.037 . S
Mg479 O503 2.291 . S
Mg480 O481 1.963 . S
Mg480 O491 1.942 . S
Mg480 O492 1.955 1_556 S
Mg480 O499 1.986 . S
O481 Mg479 1.936 1_556 S
O481 Mg480 1.963 . S
O481 Mg482 1.915 . S
Mg482 O481 1.915 . S
Mg482 O483 1.915 1_556 S
Mg482 O487 2.013 1_556 S
Mg482 O493 2.114 . S
Mg482 O497 2.013 . S
Mg482 O503 2.114 1_556 S
O483 Mg482 1.915 1_554 S
O483 Mg484 1.936 . S
O483 Mg485 1.963 1_554 S
Mg484 O483 1.936 . S
Mg484 O493 2.291 1_554 S
Mg484 O498 2.081 . S
Mg484 O500 2.023 1_554 S
Mg484 O504 2.031 . S
Mg485 O483 1.963 1_556 S
Mg485 O489 1.986 1_556 S
Mg485 O501 1.942 1_556 S
Mg485 O502 1.955 . S
C486 O497 1.191 . S
C486 O499 1.307 . S
O487 Mg482 2.013 1_554 S
O487 C506 1.191 . S
O488 Mg479 2.081 1_556 S
O488 C496 1.331 . S
O489 Mg485 1.986 1_554 S
O489 C506 1.307 . S
O490 Mg479 2.023 . S
O490 C505 1.264 . S
O491 Mg480 1.942 . S
O491 C496 1.244 . S
O492 Mg480 1.955 1_554 S
O492 C505 1.273 . S
O493 Mg482 2.114 . S
O493 Mg484 2.291 1_556 S
O493 C495 1.312 . S
O494 Mg479 2.037 . S
O494 C495 1.203 1_554 S
C495 O493 1.312 . S
C495 O494 1.203 1_556 S
C496 O488 1.331 . S
C496 O491 1.244 . S
O497 Mg482 2.013 . S
O497 C486 1.191 . S
O498 C477 1.332 . S
O498 Mg484 2.081 . S
O499 Mg480 1.986 . S
O499 C486 1.307 . S
O500 C478 1.264 . S
O500 Mg484 2.023 1_556 S
O501 C477 1.245 . S
O501 Mg485 1.942 1_554 S
O502 C478 1.273 . S
O502 Mg485 1.955 . S
O503 C476 1.312 . S
O503 Mg479 2.291 . S
O503 Mg482 2.114 1_554 S
O504 C476 1.208 . S
O504 Mg484 2.031 . S
C505 O490 1.264 . S
C505 O492 1.273 . S
C506 O487 1.191 . S
C506 O489 1.307 . S
C507 O534 1.312 . S
C507 O535 1.208 . S
C508 O529 1.331 . S
C508 O532 1.244 . S
C509 O531 1.264 . S
C509 O533 1.273 . S
Mg510 O512 1.936 . S
Mg510 O519 2.081 . S
Mg510 O521 2.023 . S
Mg510 O525 2.031 . S
Mg510 O534 2.291 . S
Mg511 O512 1.963 . S
Mg511 O522 1.942 . S
Mg511 O523 1.955 . S
Mg511 O530 1.986 . S
O512 Mg510 1.936 . S
O512 Mg511 1.963 . S
O512 Mg513 1.915 . S
Mg513 O512 1.915 . S
Mg513 O514 1.915 . S
Mg513 O518 2.013 . S
Mg513 O524 2.114 . S
Mg513 O528 2.013 . S
Mg513 O534 2.114 . S
O514 Mg513 1.915 . S
O514 Mg515 1.936 . S
O514 Mg516 1.963 . S
Mg515 O514 1.936 . S
Mg515 O524 2.291 . S
Mg515 O529 2.081 . S
Mg515 O531 2.023 . S
Mg515 O535 2.031 . S
Mg516 O514 1.963 . S
Mg516 O520 1.986 . S
Mg516 O532 1.942 . S
Mg516 O533 1.955 . S
C517 O528 1.191 . S
C517 O530 1.307 . S
O518 Mg513 2.013 . S
O518 C537 1.191 . S
O519 Mg510 2.081 . S
O519 C527 1.331 . S
O520 Mg516 1.986 . S
O520 C537 1.307 . S
O521 Mg510 2.023 . S
O521 C536 1.264 . S
O522 Mg511 1.942 . S
O522 C527 1.244 . S
O523 Mg511 1.955 . S
O523 C536 1.273 . S
O524 Mg513 2.114 . S
O524 Mg515 2.291 . S
O524 C526 1.312 . S
O525 Mg510 2.031 . S
O525 C526 1.208 . S
C526 O524 1.312 . S
C526 O525 1.208 . S
C527 O519 1.331 . S
C527 O522 1.244 . S
O528 Mg513 2.013 . S
O528 C517 1.191 . S
O529 C508 1.331 . S
O529 Mg515 2.081 . S
O530 Mg511 1.986 . S
O530 C517 1.307 . S
O531 C509 1.264 . S
O531 Mg515 2.023 . S
O532 C508 1.244 . S
O532 Mg516 1.942 . S
O533 C509 1.273 . S
O533 Mg516 1.955 . S
O534 C507 1.312 . S
O534 Mg510 2.291 . S
O534 Mg513 2.114 . S
O535 C507 1.208 . S
O535 Mg515 2.031 . S
C536 O521 1.264 . S
C536 O523 1.273 . S
C537 O518 1.191 . S
C537 O520 1.307 . S
C538 O565 1.312 . S
C538 O566 1.208 . S
C539 O560 1.331 . S
C539 O563 1.244 . S
C540 O562 1.264 . S
C540 O564 1.273 . S
Mg541 O543 1.936 . S
Mg541 O550 2.081 . S
Mg541 O552 2.023 1_556 S
Mg541 O556 2.031 . S
Mg541 O565 2.291 1_556 S
Mg542 O543 1.963 1_554 S
Mg542 O553 1.942 1_554 S
Mg542 O554 1.955 . S
Mg542 O561 1.986 1_554 S
O543 Mg541 1.936 . S
O543 Mg542 1.963 1_556 S
O543 Mg544 1.915 1_556 S
Mg544 O543 1.915 1_554 S
Mg544 O545 1.915 . S
Mg544 O549 2.013 . S
Mg544 O555 2.114 1_554 S
Mg544 O559 2.013 1_554 S
Mg544 O565 2.114 . S
O545 Mg544 1.915 . S
O545 Mg546 1.936 1_554 S
O545 Mg547 1.963 . S
Mg546 O545 1.936 1_556 S
Mg546 O555 2.291 . S
Mg546 O560 2.081 1_556 S
Mg546 O562 2.023 . S
Mg546 O566 2.031 1_556 S
Mg547 O545 1.963 . S
Mg547 O551 1.986 . S
Mg547 O563 1.942 . S
Mg547 O564 1.955 1_554 S
C548 O559 1.191 . S
C548 O561 1.307 . S
O549 Mg544 2.013 . S
O549 C568 1.191 . S
O550 Mg541 2.081 . S
O550 C558 1.331 . S
O551 Mg547 1.986 . S
O551 C568 1.307 . S
O552 Mg541 2.023 1_554 S
O552 C567 1.264 . S
O553 Mg542 1.942 1_556 S
O553 C558 1.244 . S
O554 Mg542 1.955 . S
O554 C567 1.273 . S
O555 Mg544 2.114 1_556 S
O555 Mg546 2.291 . S
O555 C557 1.312 . S
O556 Mg541 2.031 . S
O556 C557 1.208 . S
C557 O555 1.312 . S
C557 O556 1.208 . S
C558 O550 1.331 . S
C558 O553 1.244 . S
O559 Mg544 2.013 1_556 S
O559 C548 1.191 . S
O560 C539 1.331 . S
O560 Mg546 2.081 1_554 S
O561 Mg542 1.986 1_556 S
O561 C548 1.307 . S
O562 C540 1.264 . S
O562 Mg546 2.023 . S
O563 C539 1.244 . S
O563 Mg547 1.942 . S
O564 C540 1.273 . S
O564 Mg547 1.955 1_556 S
O565 C538 1.312 . S
O565 Mg541 2.291 1_554 S
O565 Mg544 2.114 . S
O566 C538 1.208 . S
O566 Mg546 2.031 1_554 S
C567 O552 1.264 . S
C567 O554 1.273 . S
C568 O549 1.191 . S
C568 O551 1.307 . S
C569 O596 1.312 . S
C569 O597 1.208 . S
C570 O591 1.331 . S
C570 O594 1.244 . S
C571 O593 1.264 . S
C571 O595 1.273 . S
Mg572 O574 1.936 . S
Mg572 O581 2.081 . S
Mg572 O583 2.023 . S
Mg572 O587 2.031 . S
Mg572 O596 2.291 . S
Mg573 O574 1.963 . S
Mg573 O584 1.942 . S
Mg573 O585 1.955 . S
Mg573 O592 1.986 . S
O574 Mg572 1.936 . S
O574 Mg573 1.963 . S
O574 Mg575 1.915 . S
Mg575 O574 1.915 . S
Mg575 O576 1.915 . S
Mg575 O580 2.013 . S
Mg575 O586 2.114 . S
Mg575 O590 2.013 . S
Mg575 O596 2.114 . S
O576 Mg575 1.915 . S
O576 Mg577 1.936 . S
O576 Mg578 1.963 . S
Mg577 O576 1.936 . S
Mg577 O586 2.291 . S
Mg577 O591 2.081 . S
Mg577 O593 2.023 . S
Mg577 O597 2.031 . S
Mg578 O576 1.963 . S
Mg578 O582 1.986 . S
Mg578 O594 1.942 . S
Mg578 O595 1.955 . S
C579 O590 1.191 . S
C579 O592 1.307 . S
O580 Mg575 2.013 . S
O580 C599 1.191 . S
O581 Mg572 2.081 . S
O581 C589 1.331 . S
O582 Mg578 1.986 . S
O582 C599 1.307 . S
O583 Mg572 2.023 . S
O583 C598 1.264 . S
O584 Mg573 1.942 . S
O584 C589 1.244 . S
O585 Mg573 1.955 . S
O585 C598 1.273 . S
O586 Mg575 2.114 . S
O586 Mg577 2.291 . S
O586 C588 1.312 . S
O587 Mg572 2.031 . S
O587 C588 1.208 . S
C588 O586 1.312 . S
C588 O587 1.208 . S
C589 O581 1.331 . S
C589 O584 1.244 . S
O590 Mg575 2.013 . S
O590 C579 1.191 . S
O591 C570 1.331 . S
O591 Mg577 2.081 . S
O592 Mg573 1.986 . S
O592 C579 1.307 . S
O593 C571 1.264 . S
O593 Mg577 2.023 . S
O594 C570 1.244 . S
O594 Mg578 1.942 . S
O595 C571 1.273 . S
O595 Mg578 1.955 . S
O596 C569 1.312 . S
O596 Mg572 2.291 . S
O596 Mg575 2.114 . S
O597 C569 1.208 . S
O597 Mg577 2.031 . S
C598 O583 1.264 . S
C598 O585 1.273 . S
C599 O580 1.191 . S
C599 O582 1.307 . S
C600 O627 1.312 . S
C600 O628 1.208 . S
C601 O622 1.331 . S
C601 O625 1.244 . S
C602 O624 1.264 . S
C602 O626 1.273 . S
Mg603 O605 1.936 . S
Mg603 O612 2.081 . S
Mg603 O614 2.023 . S
Mg603 O618 2.031 . S
Mg603 O627 2.291 . S
Mg604 O605 1.963 . S
Mg604 O615 1.942 . S
Mg604 O616 1.955 . S
Mg604 O623 1.986 . S
O605 Mg603 1.936 . S
O605 Mg604 1.963 . S
O605 Mg606 1.915 . S
Mg606 O605 1.915 . S
Mg606 O607 1.915 . S
Mg606 O611 2.013 . S
Mg606 O617 2.114 . S
Mg606 O621 2.013 . S
Mg606 O627 2.114 . S
O607 Mg606 1.915 . S
O607 Mg608 1.936 . S
O607 Mg609 1.963 . S
Mg608 O607 1.936 . S
Mg608 O617 2.291 . S
Mg608 O622 2.081 . S
Mg608 O624 2.023 . S
Mg608 O628 2.031 . S
Mg609 O607 1.963 . S
Mg609 O613 1.986 . S
Mg609 O625 1.942 . S
Mg609 O626 1.955 . S
C610 O621 1.191 . S
C610 O623 1.307 . S
O611 Mg606 2.013 . S
O611 C630 1.191 . S
O612 Mg603 2.081 . S
O612 C620 1.331 . S
O613 Mg609 1.986 . S
O613 C630 1.307 . S
O614 Mg603 2.023 . S
O614 C629 1.264 . S
O615 Mg604 1.942 . S
O615 C620 1.244 . S
O616 Mg604 1.955 . S
O616 C629 1.273 . S
O617 Mg606 2.114 . S
O617 Mg608 2.291 . S
O617 C619 1.312 . S
O618 Mg603 2.031 . S
O618 C619 1.208 . S
C619 O617 1.312 . S
C619 O618 1.208 . S
C620 O612 1.331 . S
C620 O615 1.244 . S
O621 Mg606 2.013 . S
O621 C610 1.191 . S
O622 C601 1.331 . S
O622 Mg608 2.081 . S
O623 Mg604 1.986 . S
O623 C610 1.307 . S
O624 C602 1.264 . S
O624 Mg608 2.023 . S
O625 C601 1.244 . S
O625 Mg609 1.942 . S
O626 C602 1.273 . S
O626 Mg609 1.955 . S
O627 C600 1.312 . S
O627 Mg603 2.291 . S
O627 Mg606 2.114 . S
O628 C600 1.208 . S
O628 Mg608 2.031 . S
C629 O614 1.264 . S
C629 O616 1.273 . S
C630 O611 1.191 . S
C630 O613 1.307 . S
C631 O658 1.312 . S
C631 O659 1.208 . S
C632 O653 1.331 . S
C632 O656 1.244 . S
C633 O655 1.264 . S
C633 O657 1.273 . S
Mg634 O636 1.936 . S
Mg634 O643 2.081 . S
Mg634 O645 2.023 . S
Mg634 O649 2.031 . S
Mg634 O658 2.291 . S
Mg635 O636 1.963 . S
Mg635 O646 1.942 . S
Mg635 O647 1.955 . S
Mg635 O654 1.986 . S
O636 Mg634 1.936 . S
O636 Mg635 1.963 . S
O636 Mg637 1.915 . S
Mg637 O636 1.915 . S
Mg637 O638 1.915 . S
Mg637 O642 2.013 . S
Mg637 O648 2.114 . S
Mg637 O652 2.013 . S
Mg637 O658 2.114 . S
O638 Mg637 1.915 . S
O638 Mg639 1.936 . S
O638 Mg640 1.963 . S
Mg639 O638 1.936 . S
Mg639 O648 2.291 . S
Mg639 O653 2.081 . S
Mg639 O655 2.023 . S
Mg639 O659 2.031 . S
Mg640 O638 1.963 . S
Mg640 O644 1.986 . S
Mg640 O656 1.942 . S
Mg640 O657 1.955 . S
C641 O652 1.191 . S
C641 O654 1.307 . S
O642 Mg637 2.013 . S
O642 C661 1.191 . S
O643 Mg634 2.081 . S
O643 C651 1.331 . S
O644 Mg640 1.986 . S
O644 C661 1.307 . S
O645 Mg634 2.023 . S
O645 C660 1.264 . S
O646 Mg635 1.942 . S
O646 C651 1.244 . S
O647 Mg635 1.955 . S
O647 C660 1.273 . S
O648 Mg637 2.114 . S
O648 Mg639 2.291 . S
O648 C650 1.312 . S
O649 Mg634 2.031 . S
O649 C650 1.208 . S
C650 O648 1.312 . S
C650 O649 1.208 . S
C651 O643 1.331 . S
C651 O646 1.244 . S
O652 Mg637 2.013 . S
O652 C641 1.191 . S
O653 C632 1.331 . S
O653 Mg639 2.081 . S
O654 Mg635 1.986 . S
O654 C641 1.307 . S
O655 C633 1.264 . S
O655 Mg639 2.023 . S
O656 C632 1.244 . S
O656 Mg640 1.942 . S
O657 C633 1.273 . S
O657 Mg640 1.955 . S
O658 C631 1.312 . S
O658 Mg634 2.291 . S
O658 Mg637 2.114 . S
O659 C631 1.208 . S
O659 Mg639 2.031 . S
C660 O645 1.264 . S
C660 O647 1.273 . S
C661 O642 1.191 . S
C661 O644 1.307 . S
C662 O689 1.312 . S
C662 O690 1.208 . S
C663 O684 1.331 . S
C663 O687 1.244 . S
C664 O686 1.264 . S
C664 O688 1.273 . S
Mg665 O667 1.936 . S
Mg665 O674 2.081 . S
Mg665 O676 2.023 1_565 S
Mg665 O680 2.031 . S
Mg665 O689 2.291 1_565 S
Mg666 O667 1.963 1_545 S
Mg666 O677 1.942 1_545 S
Mg666 O678 1.955 . S
Mg666 O685 1.986 1_545 S
O667 Mg665 1.936 . S
O667 Mg666 1.963 1_565 S
O667 Mg668 1.915 1_565 S
Mg668 O667 1.915 1_545 S
Mg668 O669 1.915 . S
Mg668 O673 2.013 . S
Mg668 O679 2.114 1_545 S
Mg668 O683 2.013 1_545 S
Mg668 O689 2.114 . S
O669 Mg668 1.915 . S
O669 Mg670 1.936 1_545 S
O669 Mg671 1.963 . S
Mg670 O669 1.936 1_565 S
Mg670 O679 2.291 . S
Mg670 O684 2.081 1_565 S
Mg670 O686 2.023 . S
Mg670 O690 2.031 1_565 S
Mg671 O669 1.963 . S
Mg671 O675 1.986 . S
Mg671 O687 1.942 . S
Mg671 O688 1.955 1_545 S
C672 O683 1.191 . S
C672 O685 1.307 . S
O673 Mg668 2.013 . S
O673 C692 1.191 . S
O674 Mg665 2.081 . S
O674 C682 1.331 . S
O675 Mg671 1.986 . S
O675 C692 1.307 . S
O676 Mg665 2.023 1_545 S
O676 C691 1.264 . S
O677 Mg666 1.942 1_565 S
O677 C682 1.244 . S
O678 Mg666 1.955 . S
O678 C691 1.273 . S
O679 Mg668 2.114 1_565 S
O679 Mg670 2.291 . S
O679 C681 1.312 . S
O680 Mg665 2.031 . S
O680 C681 1.208 . S
C681 O679 1.312 . S
C681 O680 1.208 . S
C682 O674 1.331 . S
C682 O677 1.244 . S
O683 Mg668 2.013 1_565 S
O683 C672 1.191 . S
O684 C663 1.331 . S
O684 Mg670 2.081 1_545 S
O685 Mg666 1.986 1_565 S
O685 C672 1.307 . S
O686 C664 1.264 . S
O686 Mg670 2.023 . S
O687 C663 1.244 . S
O687 Mg671 1.942 . S
O688 C664 1.273 . S
O688 Mg671 1.955 1_565 S
O689 C662 1.312 . S
O689 Mg665 2.291 1_545 S
O689 Mg668 2.114 . S
O690 C662 1.208 . S
O690 Mg670 2.031 1_545 S
C691 O676 1.264 . S
C691 O678 1.273 . S
C692 O673 1.191 . S
C692 O675 1.307 . S
C693 O720 1.312 . S
C693 O721 1.208 . S
C694 O715 1.331 . S
C694 O718 1.244 . S
C695 O717 1.264 . S
C695 O719 1.273 . S
Mg696 O698 1.936 . S
Mg696 O705 2.081 . S
Mg696 O707 2.023 . S
Mg696 O711 2.031 . S
Mg696 O720 2.291 . S
Mg697 O698 1.963 . S
Mg697 O708 1.942 . S
Mg697 O709 1.955 . S
Mg697 O716 1.986 . S
O698 Mg696 1.936 . S
O698 Mg697 1.963 . S
O698 Mg699 1.915 . S
Mg699 O698 1.915 . S
Mg699 O700 1.915 . S
Mg699 O704 2.013 . S
Mg699 O710 2.114 . S
Mg699 O714 2.013 . S
Mg699 O720 2.114 . S
O700 Mg699 1.915 . S
O700 Mg701 1.936 . S
O700 Mg702 1.963 . S
Mg701 O700 1.936 . S
Mg701 O710 2.291 . S
Mg701 O715 2.081 . S
Mg701 O717 2.023 . S
Mg701 O721 2.031 . S
Mg702 O700 1.963 . S
Mg702 O706 1.986 . S
Mg702 O718 1.942 . S
Mg702 O719 1.955 . S
C703 O714 1.191 . S
C703 O716 1.307 . S
O704 Mg699 2.013 . S
O704 C723 1.191 . S
O705 Mg696 2.081 . S
O705 C713 1.331 . S
O706 Mg702 1.986 . S
O706 C723 1.307 . S
O707 Mg696 2.023 . S
O707 C722 1.264 . S
O708 Mg697 1.942 . S
O708 C713 1.244 . S
O709 Mg697 1.955 . S
O709 C722 1.273 . S
O710 Mg699 2.114 . S
O710 Mg701 2.291 . S
O710 C712 1.312 . S
O711 Mg696 2.031 . S
O711 C712 1.208 . S
C712 O710 1.312 . S
C712 O711 1.208 . S
C713 O705 1.331 . S
C713 O708 1.244 . S
O714 Mg699 2.013 . S
O714 C703 1.191 . S
O715 C694 1.331 . S
O715 Mg701 2.081 . S
O716 Mg697 1.986 . S
O716 C703 1.307 . S
O717 C695 1.264 . S
O717 Mg701 2.023 . S
O718 C694 1.244 . S
O718 Mg702 1.942 . S
O719 C695 1.273 . S
O719 Mg702 1.955 . S
O720 C693 1.312 . S
O720 Mg696 2.291 . S
O720 Mg699 2.114 . S
O721 C693 1.208 . S
O721 Mg701 2.031 . S
C722 O707 1.264 . S
C722 O709 1.273 . S
C723 O704 1.191 . S
C723 O706 1.307 . S
C724 C725 1.369 . S
C724 C726 1.419 . S
C724 H728 0.930 . S
C725 C724 1.369 . S
C725 C734 1.429 . S
C726 C724 1.419 . S
C726 C727 1.363 . S
C726 H729 0.929 . S
C727 C726 1.363 . S
C727 C733 1.428 . S
H728 C724 0.930 . S
H729 C726 0.929 . S
S730 N731 1.613 . S
S730 N732 1.610 . S
N731 S730 1.613 . S
N731 C734 1.350 . S
N732 S730 1.610 . S
N732 C733 1.351 . S
C733 C727 1.428 . S
C733 N732 1.351 . S
C733 C734 1.434 . S
C734 C725 1.429 . S
C734 N731 1.350 . S
C734 C733 1.434 . S
C735 C736 1.369 . S
C735 C737 1.419 . S
C735 H739 0.930 . S
C736 C735 1.369 . S
C736 C745 1.429 . S
C737 C735 1.419 . S
C737 C738 1.363 . S
C737 H740 0.929 . S
C738 C737 1.363 . S
C738 C744 1.428 . S
H739 C735 0.930 . S
H740 C737 0.929 . S
S741 N742 1.613 . S
S741 N743 1.610 . S
N742 S741 1.613 . S
N742 C745 1.350 . S
N743 S741 1.610 . S
N743 C744 1.351 . S
C744 C738 1.428 . S
C744 N743 1.351 . S
C744 C745 1.434 . S
C745 C736 1.429 . S
C745 N742 1.350 . S
C745 C744 1.434 . S
C746 C747 1.369 . S
C746 C748 1.419 . S
C746 H750 0.930 . S
C747 C746 1.369 . S
C747 C756 1.429 . S
C748 C746 1.419 . S
C748 C749 1.363 . S
C748 H751 0.929 . S
C749 C748 1.363 . S
C749 C755 1.428 . S
H750 C746 0.930 . S
H751 C748 0.929 . S
S752 N753 1.613 . S
S752 N754 1.610 . S
N753 S752 1.613 . S
N753 C756 1.350 . S
N754 S752 1.610 . S
N754 C755 1.351 . S
C755 C749 1.428 . S
C755 N754 1.351 . S
C755 C756 1.434 . S
C756 C747 1.429 . S
C756 N753 1.350 . S
C756 C755 1.434 . S
C757 C758 1.369 . S
C757 C759 1.419 . S
C757 H761 0.930 . S
C758 C757 1.369 . S
C758 C767 1.429 . S
C759 C757 1.419 . S
C759 C760 1.363 . S
C759 H762 0.929 . S
C760 C759 1.363 . S
C760 C766 1.428 . S
H761 C757 0.930 . S
H762 C759 0.929 . S
S763 N764 1.613 . S
S763 N765 1.610 . S
N764 S763 1.613 . S
N764 C767 1.350 . S
N765 S763 1.610 . S
N765 C766 1.351 . S
C766 C760 1.428 . S
C766 N765 1.351 . S
C766 C767 1.434 . S
C767 C758 1.429 . S
C767 N764 1.350 . S
C767 C766 1.434 . S
C768 C769 1.369 . S
C768 C770 1.419 . S
C768 H772 0.930 . S
C769 C768 1.369 . S
C769 C778 1.429 . S
C770 C768 1.419 . S
C770 C771 1.363 . S
C770 H773 0.929 . S
C771 C770 1.363 . S
C771 C777 1.428 . S
H772 C768 0.930 . S
H773 C770 0.929 . S
S774 N775 1.613 . S
S774 N776 1.610 . S
N775 S774 1.613 . S
N775 C778 1.350 1_655 S
N776 S774 1.610 . S
N776 C777 1.351 1_655 S
C777 C771 1.428 . S
C777 N776 1.351 1_455 S
C777 C778 1.434 . S
C778 C769 1.429 . S
C778 N775 1.350 1_455 S
C778 C777 1.434 . S
C779 C780 1.369 . S
C779 C781 1.419 . S
C779 H783 0.930 . S
C780 C779 1.369 . S
C780 C789 1.429 . S
C781 C779 1.419 . S
C781 C782 1.363 . S
C781 H784 0.929 . S
C782 C781 1.363 . S
C782 C788 1.428 . S
H783 C779 0.930 . S
H784 C781 0.929 . S
S785 N786 1.613 . S
S785 N787 1.610 . S
N786 S785 1.613 . S
N786 C789 1.350 . S
N787 S785 1.610 . S
N787 C788 1.351 . S
C788 C782 1.428 . S
C788 N787 1.351 . S
C788 C789 1.434 . S
C789 C780 1.429 . S
C789 N786 1.350 . S
C789 C788 1.434 . S
C790 C791 1.369 . S
C790 C792 1.419 . S
C790 H794 0.930 . S
C791 C790 1.369 . S
C791 C800 1.429 . S
C792 C790 1.419 . S
C792 C793 1.363 . S
C792 H795 0.929 . S
C793 C792 1.363 . S
C793 C799 1.428 . S
H794 C790 0.930 . S
H795 C792 0.929 . S
S796 N797 1.613 . S
S796 N798 1.610 . S
N797 S796 1.613 . S
N797 C800 1.350 . S
N798 S796 1.610 . S
N798 C799 1.351 . S
C799 C793 1.428 . S
C799 N798 1.351 . S
C799 C800 1.434 . S
C800 C791 1.429 . S
C800 N797 1.350 . S
C800 C799 1.434 . S
C801 C802 1.369 . S
C801 C803 1.419 . S
C801 H805 0.930 . S
C802 C801 1.369 . S
C802 C811 1.429 . S
C803 C801 1.419 . S
C803 C804 1.363 . S
C803 H806 0.929 . S
C804 C803 1.363 . S
C804 C810 1.428 . S
H805 C801 0.930 . S
H806 C803 0.929 . S
S807 N808 1.613 . S
S807 N809 1.610 . S
N808 S807 1.613 . S
N808 C811 1.350 . S
N809 S807 1.610 . S
N809 C810 1.351 . S
C810 C804 1.428 . S
C810 N809 1.351 . S
C810 C811 1.434 . S
C811 C802 1.429 . S
C811 N808 1.350 . S
C811 C810 1.434 . S
C812 C813 1.369 . S
C812 C814 1.419 . S
C812 H816 0.930 . S
C813 C812 1.369 . S
C813 C822 1.429 . S
C814 C812 1.419 . S
C814 C815 1.363 . S
C814 H817 0.929 . S
C815 C814 1.363 . S
C815 C821 1.428 . S
H816 C812 0.930 . S
H817 C814 0.929 . S
S818 N819 1.613 . S
S818 N820 1.610 . S
N819 S818 1.613 . S
N819 C822 1.350 . S
N820 S818 1.610 . S
N820 C821 1.351 . S
C821 C815 1.428 . S
C821 N820 1.351 . S
C821 C822 1.434 . S
C822 C813 1.429 . S
C822 N819 1.350 . S
C822 C821 1.434 . S
C823 C824 1.369 . S
C823 C825 1.419 . S
C823 H827 0.930 . S
C824 C823 1.369 . S
C824 C833 1.429 . S
C825 C823 1.419 . S
C825 C826 1.363 . S
C825 H828 0.929 . S
C826 C825 1.363 . S
C826 C832 1.428 . S
H827 C823 0.930 . S
H828 C825 0.929 . S
S829 N830 1.613 1_554 S
S829 N831 1.610 1_554 S
N830 S829 1.613 1_556 S
N830 C833 1.350 . S
N831 S829 1.610 1_556 S
N831 C832 1.351 . S
C832 C826 1.428 . S
C832 N831 1.351 . S
C832 C833 1.434 . S
C833 C824 1.429 . S
C833 N830 1.350 . S
C833 C832 1.434 . S
C834 C835 1.369 . S
C834 C836 1.419 . S
C834 H838 0.930 . S
C835 C834 1.369 . S
C835 C844 1.429 . S
C836 C834 1.419 . S
C836 C837 1.363 . S
C836 H839 0.929 . S
C837 C836 1.363 . S
C837 C843 1.428 . S
H838 C834 0.930 . S
H839 C836 0.929 . S
S840 N841 1.613 . S
S840 N842 1.610 . S
N841 S840 1.613 . S
N841 C844 1.350 . S
N842 S840 1.610 . S
N842 C843 1.351 . S
C843 C837 1.428 . S
C843 N842 1.351 . S
C843 C844 1.434 . S
C844 C835 1.429 . S
C844 N841 1.350 . S
C844 C843 1.434 . S
C845 C846 1.369 . S
C845 C847 1.419 . S
C845 H849 0.930 . S
C846 C845 1.369 . S
C846 C855 1.429 . S
C847 C845 1.419 . S
C847 C848 1.363 . S
C847 H850 0.929 . S
C848 C847 1.363 . S
C848 C854 1.428 . S
H849 C845 0.930 . S
H850 C847 0.929 . S
S851 N852 1.613 . S
S851 N853 1.610 . S
N852 S851 1.613 . S
N852 C855 1.350 . S
N853 S851 1.610 . S
N853 C854 1.351 . S
C854 C848 1.428 . S
C854 N853 1.351 . S
C854 C855 1.434 . S
C855 C846 1.429 . S
C855 N852 1.350 . S
C855 C854 1.434 . S
C856 C857 1.369 . S
C856 C858 1.419 . S
C856 H860 0.930 . S
C857 C856 1.369 . S
C857 C866 1.429 . S
C858 C856 1.419 . S
C858 C859 1.363 . S
C858 H861 0.929 . S
C859 C858 1.363 . S
C859 C865 1.428 . S
H860 C856 0.930 . S
H861 C858 0.929 . S
S862 N863 1.613 . S
S862 N864 1.610 . S
N863 S862 1.613 . S
N863 C866 1.350 1_545 S
N864 S862 1.610 . S
N864 C865 1.351 1_545 S
C865 C859 1.428 . S
C865 N864 1.351 1_565 S
C865 C866 1.434 . S
C866 C857 1.429 . S
C866 N863 1.350 1_565 S
C866 C865 1.434 . S
C867 C868 1.369 . S
C867 C869 1.419 . S
C867 H871 0.930 . S
C868 C867 1.369 . S
C868 C877 1.429 . S
C869 C867 1.419 . S
C869 C870 1.363 . S
C869 H872 0.929 . S
C870 C869 1.363 . S
C870 C876 1.428 . S
H871 C867 0.930 . S
H872 C869 0.929 . S
S873 N874 1.613 . S
S873 N875 1.610 . S
N874 S873 1.613 . S
N874 C877 1.350 . S
N875 S873 1.610 . S
N875 C876 1.351 . S
C876 C870 1.428 . S
C876 N875 1.351 . S
C876 C877 1.434 . S
C877 C868 1.429 . S
C877 N874 1.350 . S
C877 C876 1.434 . S
C878 C879 1.369 . S
C878 C880 1.419 . S
C878 H882 0.930 . S
C879 C878 1.369 . S
C879 C888 1.429 . S
C880 C878 1.419 . S
C880 C881 1.363 . S
C880 H883 0.929 . S
C881 C880 1.363 . S
C881 C887 1.428 . S
H882 C878 0.930 . S
H883 C880 0.929 . S
S884 N885 1.613 . S
S884 N886 1.610 . S
N885 S884 1.613 . S
N885 C888 1.350 . S
N886 S884 1.610 . S
N886 C887 1.351 . S
C887 C881 1.428 . S
C887 N886 1.351 . S
C887 C888 1.434 . S
C888 C879 1.429 . S
C888 N885 1.350 . S
C888 C887 1.434 . S
C889 C890 1.369 . S
C889 C891 1.419 . S
C889 H893 0.930 . S
C890 C889 1.369 . S
C890 C899 1.429 . S
C891 C889 1.419 . S
C891 C892 1.363 . S
C891 H894 0.929 . S
C892 C891 1.363 . S
C892 C898 1.428 . S
H893 C889 0.930 . S
H894 C891 0.929 . S
S895 N896 1.613 . S
S895 N897 1.610 . S
N896 S895 1.613 . S
N896 C899 1.350 . S
N897 S895 1.610 . S
N897 C898 1.351 . S
C898 C892 1.428 . S
C898 N897 1.351 . S
C898 C899 1.434 . S
C899 C890 1.429 . S
C899 N896 1.350 . S
C899 C898 1.434 . S
C900 C901 1.369 . S
C900 C902 1.419 . S
C900 H904 0.930 . S
C901 C900 1.369 . S
C901 C910 1.429 . S
C902 C900 1.419 . S
C902 C903 1.363 . S
C902 H905 0.929 . S
C903 C902 1.363 . S
C903 C909 1.428 . S
H904 C900 0.930 . S
H905 C902 0.929 . S
S906 N907 1.613 1_556 S
S906 N908 1.610 1_556 S
N907 S906 1.613 1_554 S
N907 C910 1.350 . S
N908 S906 1.610 1_554 S
N908 C909 1.351 . S
C909 C903 1.428 . S
C909 N908 1.351 . S
C909 C910 1.434 . S
C910 C901 1.429 . S
C910 N907 1.350 . S
C910 C909 1.434 . S
C911 C912 1.369 . S
C911 C913 1.419 . S
C911 H915 0.930 . S
C912 C911 1.369 . S
C912 C921 1.429 . S
C913 C911 1.419 . S
C913 C914 1.363 . S
C913 H916 0.929 . S
C914 C913 1.363 . S
C914 C920 1.428 . S
H915 C911 0.930 . S
H916 C913 0.929 . S
S917 N918 1.613 . S
S917 N919 1.610 . S
N918 S917 1.613 . S
N918 C921 1.350 . S
N919 S917 1.610 . S
N919 C920 1.351 . S
C920 C914 1.428 . S
C920 N919 1.351 . S
C920 C921 1.434 . S
C921 C912 1.429 . S
C921 N918 1.350 . S
C921 C920 1.434 . S
C922 C923 1.369 . S
C922 C924 1.419 . S
C922 H926 0.930 . S
C923 C922 1.369 . S
C923 C932 1.429 . S
C924 C922 1.419 . S
C924 C925 1.363 . S
C924 H927 0.929 . S
C925 C924 1.363 . S
C925 C931 1.428 . S
H926 C922 0.930 . S
H927 C924 0.929 . S
S928 N929 1.613 . S
S928 N930 1.610 . S
N929 S928 1.613 . S
N929 C932 1.350 . S
N930 S928 1.610 . S
N930 C931 1.351 . S
C931 C925 1.428 . S
C931 N930 1.351 . S
C931 C932 1.434 . S
C932 C923 1.429 . S
C932 N929 1.350 . S
C932 C931 1.434 . S
C933 C934 1.369 . S
C933 C935 1.419 . S
C933 H937 0.930 . S
C934 C933 1.369 . S
C934 C943 1.429 . S
C935 C933 1.419 . S
C935 C936 1.363 . S
C935 H938 0.929 . S
C936 C935 1.363 . S
C936 C942 1.428 . S
H937 C933 0.930 . S
H938 C935 0.929 . S
S939 N940 1.613 . S
S939 N941 1.610 . S
N940 S939 1.613 . S
N940 C943 1.350 . S
N941 S939 1.610 . S
N941 C942 1.351 . S
C942 C936 1.428 . S
C942 N941 1.351 . S
C942 C943 1.434 . S
C943 C934 1.429 . S
C943 N940 1.350 . S
C943 C942 1.434 . S
C944 C945 1.369 . S
C944 C946 1.419 . S
C944 H948 0.930 . S
C945 C944 1.369 . S
C945 C954 1.429 . S
C946 C944 1.419 . S
C946 C947 1.363 . S
C946 H949 0.913 1_655 S
C947 C946 1.363 . S
C947 C953 1.428 . S
H948 C944 0.930 . S
H949 C946 0.913 1_455 S
S950 N951 1.613 . S
S950 N952 1.610 . S
N951 S950 1.613 . S
N951 C954 1.350 . S
N952 S950 1.610 . S
N952 C953 1.351 . S
C953 C947 1.428 . S
C953 N952 1.351 . S
C953 C954 1.434 . S
C954 C945 1.429 . S
C954 N951 1.350 . S
C954 C953 1.434 . S
C955 C956 1.369 . S
C955 C957 1.419 . S
C955 H959 0.930 . S
C956 C955 1.369 . S
C956 C965 1.429 . S
C957 C955 1.419 . S
C957 C958 1.363 . S
C957 H960 0.929 . S
C958 C957 1.363 . S
C958 C964 1.428 . S
H959 C955 0.930 . S
H960 C957 0.929 . S
S961 N962 1.613 . S
S961 N963 1.610 . S
N962 S961 1.613 . S
N962 C965 1.350 . S
N963 S961 1.610 . S
N963 C964 1.351 . S
C964 C958 1.428 . S
C964 N963 1.351 . S
C964 C965 1.434 . S
C965 C956 1.429 . S
C965 N962 1.350 . S
C965 C964 1.434 . S
C966 C967 1.369 . S
C966 C968 1.419 . S
C966 H970 0.930 . S
C967 C966 1.369 . S
C967 C976 1.429 . S
C968 C966 1.419 . S
C968 C969 1.363 . S
C968 H971 0.929 . S
C969 C968 1.363 . S
C969 C975 1.428 . S
H970 C966 0.930 . S
H971 C968 0.929 . S
S972 N973 1.613 . S
S972 N974 1.610 . S
N973 S972 1.613 . S
N973 C976 1.350 . S
N974 S972 1.610 . S
N974 C975 1.351 . S
C975 C969 1.428 . S
C975 N974 1.351 . S
C975 C976 1.434 . S
C976 C967 1.429 . S
C976 N973 1.350 . S
C976 C975 1.434 . S
C977 C978 1.369 . S
C977 C979 1.419 . S
C977 H981 0.930 . S
C978 C977 1.369 . S
C978 C987 1.429 . S
C979 C977 1.419 . S
C979 C980 1.363 . S
C979 H982 0.929 . S
C980 C979 1.363 . S
C980 C986 1.428 . S
H981 C977 0.930 . S
H982 C979 0.929 . S
S983 N984 1.613 . S
S983 N985 1.610 . S
N984 S983 1.613 . S
N984 C987 1.350 . S
N985 S983 1.610 . S
N985 C986 1.351 . S
C986 C980 1.428 . S
C986 N985 1.351 . S
C986 C987 1.434 . S
C987 C978 1.429 . S
C987 N984 1.350 . S
C987 C986 1.434 . S
C988 C989 1.369 . S
C988 C990 1.419 . S
C988 H992 0.930 . S
C989 C988 1.369 . S
C989 C998 1.429 . S
C990 C988 1.419 . S
C990 C991 1.363 . S
C990 H993 0.929 . S
C991 C990 1.363 . S
C991 C997 1.428 . S
H992 C988 0.930 . S
H993 C990 0.929 . S
S994 N995 1.613 . S
S994 N996 1.610 . S
N995 S994 1.613 . S
N995 C998 1.350 . S
N996 S994 1.610 . S
N996 C997 1.351 . S
C997 C991 1.428 . S
C997 N996 1.351 . S
C997 C998 1.434 . S
C998 C989 1.429 . S
C998 N995 1.350 . S
C998 C997 1.434 . S
C999 C1000 1.369 . S
C999 C1001 1.419 . S
C999 H1003 0.930 . S
C1000 C999 1.369 . S
C1000 C1009 1.429 . S
C1001 C999 1.419 . S
C1001 C1002 1.363 . S
C1001 H1004 0.929 . S
C1002 C1001 1.363 . S
C1002 C1008 1.428 . S
H1003 C999 0.930 . S
H1004 C1001 0.929 . S
S1005 N1006 1.613 . S
S1005 N1007 1.610 . S
N1006 S1005 1.613 . S
N1006 C1009 1.350 . S
N1007 S1005 1.610 . S
N1007 C1008 1.351 . S
C1008 C1002 1.428 . S
C1008 N1007 1.351 . S
C1008 C1009 1.434 . S
C1009 C1000 1.429 . S
C1009 N1006 1.350 . S
C1009 C1008 1.434 . S
C1010 C1011 1.369 . S
C1010 C1012 1.419 . S
C1010 H1014 0.930 . S
C1011 C1010 1.369 . S
C1011 C1020 1.429 . S
C1012 C1010 1.419 . S
C1012 C1013 1.363 . S
C1012 H1015 0.929 . S
C1013 C1012 1.363 . S
C1013 C1019 1.428 . S
H1014 C1010 0.930 . S
H1015 C1012 0.929 . S
S1016 N1017 1.613 . S
S1016 N1018 1.610 . S
N1017 S1016 1.613 . S
N1017 C1020 1.350 . S
N1018 S1016 1.610 . S
N1018 C1019 1.351 . S
C1019 C1013 1.428 . S
C1019 N1018 1.351 . S
C1019 C1020 1.434 . S
C1020 C1011 1.429 . S
C1020 N1017 1.350 . S
C1020 C1019 1.434 . S
C1021 C1022 1.369 . S
C1021 C1023 1.419 . S
C1021 H1025 0.930 . S
C1022 C1021 1.369 . S
C1022 C1031 1.429 . S
C1023 C1021 1.419 . S
C1023 C1024 1.363 . S
C1023 H1026 0.929 . S
C1024 C1023 1.363 . S
C1024 C1030 1.428 . S
H1025 C1021 0.930 . S
H1026 C1023 0.929 . S
S1027 N1028 1.613 . S
S1027 N1029 1.610 . S
N1028 S1027 1.613 . S
N1028 C1031 1.350 . S
N1029 S1027 1.610 . S
N1029 C1030 1.351 . S
C1030 C1024 1.428 . S
C1030 N1029 1.351 . S
C1030 C1031 1.434 . S
C1031 C1022 1.429 . S
C1031 N1028 1.350 . S
C1031 C1030 1.434 . S
C1032 C1033 1.369 . S
C1032 C1034 1.419 . S
C1032 H1036 0.930 . S
C1033 C1032 1.369 . S
C1033 C1042 1.429 . S
C1034 C1032 1.419 . S
C1034 C1035 1.363 . S
C1034 H1037 0.929 . S
C1035 C1034 1.363 . S
C1035 C1041 1.428 . S
H1036 C1032 0.930 . S
H1037 C1034 0.929 . S
S1038 N1039 1.613 . S
S1038 N1040 1.610 . S
N1039 S1038 1.613 . S
N1039 C1042 1.350 . S
N1040 S1038 1.610 . S
N1040 C1041 1.351 . S
C1041 C1035 1.428 . S
C1041 N1040 1.351 . S
C1041 C1042 1.434 . S
C1042 C1033 1.429 . S
C1042 N1039 1.350 . S
C1042 C1041 1.434 . S
C1043 C1044 1.369 . S
C1043 C1045 1.419 . S
C1043 H1047 0.930 . S
C1044 C1043 1.369 . S
C1044 C1053 1.429 . S
C1045 C1043 1.419 . S
C1045 C1046 1.363 . S
C1045 H1048 0.929 1_556 S
C1046 C1045 1.363 . S
C1046 C1052 1.428 . S
H1047 C1043 0.930 . S
H1048 C1045 0.929 1_554 S
S1049 N1050 1.613 . S
S1049 N1051 1.610 . S
N1050 S1049 1.613 . S
N1050 C1053 1.350 . S
N1051 S1049 1.610 . S
N1051 C1052 1.351 . S
C1052 C1046 1.428 . S
C1052 N1051 1.351 . S
C1052 C1053 1.434 . S
C1053 C1044 1.429 . S
C1053 N1050 1.350 . S
C1053 C1052 1.434 . S
C1054 C1055 1.369 . S
C1054 C1056 1.419 . S
C1054 H1058 0.930 . S
C1055 C1054 1.369 . S
C1055 C1064 1.429 . S
C1056 C1054 1.419 . S
C1056 C1057 1.363 . S
C1056 H1059 0.929 . S
C1057 C1056 1.363 . S
C1057 C1063 1.428 . S
H1058 C1054 0.930 . S
H1059 C1056 0.929 . S
S1060 N1061 1.613 . S
S1060 N1062 1.610 . S
N1061 S1060 1.613 . S
N1061 C1064 1.350 . S
N1062 S1060 1.610 . S
N1062 C1063 1.351 . S
C1063 C1057 1.428 . S
C1063 N1062 1.351 . S
C1063 C1064 1.434 . S
C1064 C1055 1.429 . S
C1064 N1061 1.350 . S
C1064 C1063 1.434 . S
C1065 C1066 1.369 . S
C1065 C1067 1.419 . S
C1065 H1069 0.930 . S
C1066 C1065 1.369 . S
C1066 C1075 1.429 . S
C1067 C1065 1.419 . S
C1067 C1068 1.363 . S
C1067 H1070 0.929 . S
C1068 C1067 1.363 . S
C1068 C1074 1.428 . S
H1069 C1065 0.930 . S
H1070 C1067 0.929 . S
S1071 N1072 1.613 . S
S1071 N1073 1.610 . S
N1072 S1071 1.613 . S
N1072 C1075 1.350 . S
N1073 S1071 1.610 . S
N1073 C1074 1.351 . S
C1074 C1068 1.428 . S
C1074 N1073 1.351 . S
C1074 C1075 1.434 . S
C1075 C1066 1.429 . S
C1075 N1072 1.350 . S
C1075 C1074 1.434 . S
C1076 C1077 1.369 . S
C1076 C1078 1.419 . S
C1076 H1080 0.930 . S
C1077 C1076 1.369 . S
C1077 C1086 1.429 . S
C1078 C1076 1.419 . S
C1078 C1079 1.363 . S
C1078 H1081 0.929 . S
C1079 C1078 1.363 . S
C1079 C1085 1.428 . S
H1080 C1076 0.930 . S
H1081 C1078 0.929 . S
S1082 N1083 1.613 . S
S1082 N1084 1.610 . S
N1083 S1082 1.613 . S
N1083 C1086 1.350 . S
N1084 S1082 1.610 . S
N1084 C1085 1.351 . S
C1085 C1079 1.428 . S
C1085 N1084 1.351 . S
C1085 C1086 1.434 . S
C1086 C1077 1.429 . S
C1086 N1083 1.350 . S
C1086 C1085 1.434 . S
C1087 C1088 1.369 . S
C1087 C1089 1.419 . S
C1087 H1091 0.930 . S
C1088 C1087 1.369 . S
C1088 C1097 1.429 . S
C1089 C1087 1.419 . S
C1089 C1090 1.363 . S
C1089 H1092 0.929 . S
C1090 C1089 1.363 . S
C1090 C1096 1.428 . S
H1091 C1087 0.930 . S
H1092 C1089 0.929 . S
S1093 N1094 1.613 . S
S1093 N1095 1.610 . S
N1094 S1093 1.613 . S
N1094 C1097 1.350 . S
N1095 S1093 1.610 . S
N1095 C1096 1.351 . S
C1096 C1090 1.428 . S
C1096 N1095 1.351 . S
C1096 C1097 1.434 . S
C1097 C1088 1.429 . S
C1097 N1094 1.350 . S
C1097 C1096 1.434 . S
C1098 C1099 1.369 . S
C1098 C1100 1.419 . S
C1098 H1102 0.930 . S
C1099 C1098 1.369 . S
C1099 C1108 1.429 . S
C1100 C1098 1.419 . S
C1100 C1101 1.363 . S
C1100 H1103 0.929 . S
C1101 C1100 1.363 . S
C1101 C1107 1.428 . S
H1102 C1098 0.930 . S
H1103 C1100 0.929 . S
S1104 N1105 1.613 . S
S1104 N1106 1.610 . S
N1105 S1104 1.613 . S
N1105 C1108 1.350 1_545 S
N1106 S1104 1.610 . S
N1106 C1107 1.351 1_545 S
C1107 C1101 1.428 . S
C1107 N1106 1.351 1_565 S
C1107 C1108 1.434 . S
C1108 C1099 1.429 . S
C1108 N1105 1.350 1_565 S
C1108 C1107 1.434 . S
C1109 C1110 1.369 . S
C1109 C1111 1.419 . S
C1109 H1113 0.930 . S
C1110 C1109 1.369 . S
C1110 C1119 1.429 . S
C1111 C1109 1.419 . S
C1111 C1112 1.363 . S
C1111 H1114 0.929 . S
C1112 C1111 1.363 . S
C1112 C1118 1.428 . S
H1113 C1109 0.930 . S
H1114 C1111 0.929 . S
S1115 N1116 1.613 . S
S1115 N1117 1.606 1_565 S
N1116 S1115 1.613 . S
N1116 C1119 1.350 . S
N1117 S1115 1.606 1_545 S
N1117 C1118 1.338 1_545 S
C1118 C1112 1.428 . S
C1118 N1117 1.338 1_565 S
C1118 C1119 1.434 . S
C1119 C1110 1.429 . S
C1119 N1116 1.350 . S
C1119 C1118 1.434 . S
C1120 C1121 1.369 . S
C1120 C1122 1.419 . S
C1120 H1124 0.930 . S
C1121 C1120 1.369 . S
C1121 C1130 1.429 . S
C1122 C1120 1.419 . S
C1122 C1123 1.363 . S
C1122 H1125 0.929 . S
C1123 C1122 1.363 . S
C1123 C1129 1.428 . S
H1124 C1120 0.930 . S
H1125 C1122 0.929 . S
S1126 N1127 1.613 . S
S1126 N1128 1.610 . S
N1127 S1126 1.613 . S
N1127 C1130 1.350 . S
N1128 S1126 1.610 . S
N1128 C1129 1.351 . S
C1129 C1123 1.428 . S
C1129 N1128 1.351 . S
C1129 C1130 1.434 . S
C1130 C1121 1.429 . S
C1130 N1127 1.350 . S
C1130 C1129 1.434 . S
C1131 C1132 1.369 . S
C1131 C1133 1.419 . S
C1131 H1135 0.930 . S
C1132 C1131 1.369 . S
C1132 C1141 1.429 . S
C1133 C1131 1.419 . S
C1133 C1134 1.363 . S
C1133 H1136 0.929 . S
C1134 C1133 1.363 . S
C1134 C1140 1.428 . S
H1135 C1131 0.930 . S
H1136 C1133 0.929 . S
S1137 N1138 1.613 . S
S1137 N1139 1.610 . S
N1138 S1137 1.613 . S
N1138 C1141 1.350 . S
N1139 S1137 1.610 . S
N1139 C1140 1.351 . S
C1140 C1134 1.428 . S
C1140 N1139 1.351 . S
C1140 C1141 1.434 . S
C1141 C1132 1.429 . S
C1141 N1138 1.350 . S
C1141 C1140 1.434 . S
C1142 C1143 1.369 . S
C1142 C1144 1.419 . S
C1142 H1146 0.930 . S
C1143 C1142 1.369 . S
C1143 C1152 1.429 . S
C1144 C1142 1.419 . S
C1144 C1145 1.363 . S
C1144 H1147 0.929 . S
C1145 C1144 1.363 . S
C1145 C1151 1.428 . S
H1146 C1142 0.930 . S
H1147 C1144 0.929 . S
S1148 N1149 1.613 . S
S1148 N1150 1.610 . S
N1149 S1148 1.613 . S
N1149 C1152 1.350 . S
N1150 S1148 1.610 . S
N1150 C1151 1.351 . S
C1151 C1145 1.428 . S
C1151 N1150 1.351 . S
C1151 C1152 1.434 . S
C1152 C1143 1.429 . S
C1152 N1149 1.350 . S
C1152 C1151 1.434 . S
C1153 C1154 1.369 . S
C1153 C1155 1.419 . S
C1153 H1157 0.930 . S
C1154 C1153 1.369 . S
C1154 C1163 1.429 . S
C1155 C1153 1.419 . S
C1155 C1156 1.363 . S
C1155 H1158 0.929 . S
C1156 C1155 1.363 . S
C1156 C1162 1.428 . S
H1157 C1153 0.930 . S
H1158 C1155 0.929 . S
S1159 N1160 1.613 . S
S1159 N1161 1.610 1_565 S
N1160 S1159 1.613 . S
N1160 C1163 1.350 . S
N1161 S1159 1.610 1_545 S
N1161 C1162 1.351 1_545 S
C1162 C1156 1.428 . S
C1162 N1161 1.351 1_565 S
C1162 C1163 1.434 . S
C1163 C1154 1.429 . S
C1163 N1160 1.350 . S
C1163 C1162 1.434 . S
C1164 C1165 1.369 . S
C1164 C1166 1.419 . S
C1164 H1168 0.930 . S
C1165 C1164 1.369 . S
C1165 C1174 1.429 . S
C1166 C1164 1.419 . S
C1166 C1167 1.363 . S
C1166 H1169 0.929 . S
C1167 C1166 1.363 . S
C1167 C1173 1.428 . S
H1168 C1164 0.930 . S
H1169 C1166 0.929 . S
S1170 N1171 1.613 . S
S1170 N1172 1.610 . S
N1171 S1170 1.613 . S
N1171 C1174 1.350 . S
N1172 S1170 1.610 . S
N1172 C1173 1.351 . S
C1173 C1167 1.428 . S
C1173 N1172 1.351 . S
C1173 C1174 1.434 . S
C1174 C1165 1.429 . S
C1174 N1171 1.350 . S
C1174 C1173 1.434 . S
C1175 C1176 1.369 . S
C1175 C1177 1.419 . S
C1175 H1179 0.930 . S
C1176 C1175 1.369 . S
C1176 C1185 1.429 . S
C1177 C1175 1.419 . S
C1177 C1178 1.363 . S
C1177 H1180 0.929 . S
C1178 C1177 1.363 . S
C1178 C1184 1.428 . S
H1179 C1175 0.930 . S
H1180 C1177 0.929 . S
S1181 N1182 1.613 . S
S1181 N1183 1.610 . S
N1182 S1181 1.613 . S
N1182 C1185 1.350 . S
N1183 S1181 1.610 . S
N1183 C1184 1.351 . S
C1184 C1178 1.428 . S
C1184 N1183 1.351 . S
C1184 C1185 1.434 . S
C1185 C1176 1.429 . S
C1185 N1182 1.350 . S
C1185 C1184 1.434 . S
C1186 C1187 1.369 . S
C1186 C1188 1.419 . S
C1186 H1190 0.930 . S
C1187 C1186 1.369 . S
C1187 C1196 1.429 . S
C1188 C1186 1.419 . S
C1188 C1189 1.363 . S
C1188 H1191 0.929 . S
C1189 C1188 1.363 . S
C1189 C1195 1.428 . S
H1190 C1186 0.930 . S
H1191 C1188 0.929 . S
S1192 N1193 1.613 . S
S1192 N1194 1.610 1_455 S
N1193 S1192 1.613 . S
N1193 C1196 1.350 . S
N1194 S1192 1.610 1_655 S
N1194 C1195 1.351 1_655 S
C1195 C1189 1.428 . S
C1195 N1194 1.351 1_455 S
C1195 C1196 1.434 . S
C1196 C1187 1.429 . S
C1196 N1193 1.350 . S
C1196 C1195 1.434 . S
C1197 C1198 1.369 . S
C1197 C1199 1.419 . S
C1197 H1201 0.930 . S
C1198 C1197 1.369 . S
C1198 C1207 1.429 . S
C1199 C1197 1.419 . S
C1199 C1200 1.363 . S
C1199 H1202 0.929 . S
C1200 C1199 1.363 . S
C1200 C1206 1.428 . S
H1201 C1197 0.930 . S
H1202 C1199 0.929 . S
S1203 N1204 1.613 . S
S1203 N1205 1.610 . S
N1204 S1203 1.613 . S
N1204 C1207 1.350 . S
N1205 S1203 1.610 . S
N1205 C1206 1.351 . S
C1206 C1200 1.428 . S
C1206 N1205 1.351 . S
C1206 C1207 1.434 . S
C1207 C1198 1.429 . S
C1207 N1204 1.350 . S
C1207 C1206 1.434 . S
C1208 C1209 1.369 . S
C1208 C1210 1.419 . S
C1208 H1212 0.930 . S
C1209 C1208 1.369 . S
C1209 C1218 1.429 . S
C1210 C1208 1.419 . S
C1210 C1211 1.363 . S
C1210 H1213 0.929 . S
C1211 C1210 1.363 . S
C1211 C1217 1.428 . S
H1212 C1208 0.930 . S
H1213 C1210 0.929 . S
S1214 N1215 1.613 . S
S1214 N1216 1.610 . S
N1215 S1214 1.613 . S
N1215 C1218 1.350 . S
N1216 S1214 1.610 . S
N1216 C1217 1.351 . S
C1217 C1211 1.428 . S
C1217 N1216 1.351 . S
C1217 C1218 1.434 . S
C1218 C1209 1.429 . S
C1218 N1215 1.350 . S
C1218 C1217 1.434 . S
C1219 C1220 1.369 . S
C1219 C1221 1.419 . S
C1219 H1223 0.930 . S
C1220 C1219 1.369 . S
C1220 C1229 1.429 . S
C1221 C1219 1.419 . S
C1221 C1222 1.363 . S
C1221 H1224 0.929 . S
C1222 C1221 1.363 . S
C1222 C1228 1.428 . S
H1223 C1219 0.930 . S
H1224 C1221 0.929 . S
S1225 N1226 1.613 . S
S1225 N1227 1.610 . S
N1226 S1225 1.613 . S
N1226 C1229 1.350 . S
N1227 S1225 1.610 . S
N1227 C1228 1.351 . S
C1228 C1222 1.428 . S
C1228 N1227 1.351 . S
C1228 C1229 1.434 . S
C1229 C1220 1.429 . S
C1229 N1226 1.350 . S
C1229 C1228 1.434 . S
C1230 C1231 1.369 . S
C1230 C1232 1.419 . S
C1230 H1234 0.930 . S
C1231 C1230 1.369 . S
C1231 C1240 1.429 . S
C1232 C1230 1.419 . S
C1232 C1233 1.363 . S
C1232 H1235 0.929 . S
C1233 C1232 1.363 . S
C1233 C1239 1.428 . S
H1234 C1230 0.930 . S
H1235 C1232 0.929 . S
S1236 N1237 1.613 . S
S1236 N1238 1.610 . S
N1237 S1236 1.613 . S
N1237 C1240 1.350 . S
N1238 S1236 1.610 . S
N1238 C1239 1.351 . S
C1239 C1233 1.428 . S
C1239 N1238 1.351 . S
C1239 C1240 1.434 . S
C1240 C1231 1.429 . S
C1240 N1237 1.350 . S
C1240 C1239 1.434 . S
C1241 C1242 1.369 . S
C1241 C1243 1.419 . S
C1241 H1245 0.930 . S
C1242 C1241 1.369 . S
C1242 C1251 1.429 . S
C1243 C1241 1.419 . S
C1243 C1244 1.363 . S
C1243 H1246 0.929 . S
C1244 C1243 1.363 . S
C1244 C1250 1.428 . S
H1245 C1241 0.930 . S
H1246 C1243 0.929 . S
S1247 N1248 1.613 . S
S1247 N1249 1.610 . S
N1248 S1247 1.613 . S
N1248 C1251 1.350 . S
N1249 S1247 1.610 . S
N1249 C1250 1.351 . S
C1250 C1244 1.428 . S
C1250 N1249 1.351 . S
C1250 C1251 1.434 . S
C1251 C1242 1.429 . S
C1251 N1248 1.350 . S
C1251 C1250 1.434 . S
C1252 C1253 1.369 . S
C1252 C1254 1.419 . S
C1252 H1256 0.930 . S
C1253 C1252 1.369 . S
C1253 C1262 1.429 . S
C1254 C1252 1.419 . S
C1254 C1255 1.363 . S
C1254 H1257 0.929 . S
C1255 C1254 1.363 . S
C1255 C1261 1.428 . S
H1256 C1252 0.930 . S
H1257 C1254 0.929 . S
S1258 N1259 1.613 . S
S1258 N1260 1.610 . S
N1259 S1258 1.613 . S
N1259 C1262 1.350 . S
N1260 S1258 1.610 . S
N1260 C1261 1.351 . S
C1261 C1255 1.428 . S
C1261 N1260 1.351 . S
C1261 C1262 1.434 . S
C1262 C1253 1.429 . S
C1262 N1259 1.350 . S
C1262 C1261 1.434 . S
C1263 C1264 1.369 . S
C1263 C1265 1.419 . S
C1263 H1267 0.930 . S
C1264 C1263 1.369 . S
C1264 C1273 1.429 . S
C1265 C1263 1.419 . S
C1265 C1266 1.363 . S
C1265 H1268 0.929 . S
C1266 C1265 1.363 . S
C1266 C1272 1.428 . S
H1267 C1263 0.930 . S
H1268 C1265 0.929 . S
S1269 N1270 1.613 . S
S1269 N1271 1.610 . S
N1270 S1269 1.613 . S
N1270 C1273 1.350 . S
N1271 S1269 1.610 . S
N1271 C1272 1.351 . S
C1272 C1266 1.428 . S
C1272 N1271 1.351 . S
C1272 C1273 1.434 . S
C1273 C1264 1.429 . S
C1273 N1270 1.350 . S
C1273 C1272 1.434 . S
C1274 C1275 1.369 . S
C1274 C1276 1.419 . S
C1274 H1278 0.930 . S
C1275 C1274 1.369 . S
C1275 C1284 1.429 . S
C1276 C1274 1.419 . S
C1276 C1277 1.363 . S
C1276 H1279 0.929 . S
C1277 C1276 1.363 . S
C1277 C1283 1.428 . S
H1278 C1274 0.930 . S
H1279 C1276 0.929 . S
S1280 N1281 1.613 . S
S1280 N1282 1.610 . S
N1281 S1280 1.613 . S
N1281 C1284 1.350 . S
N1282 S1280 1.610 . S
N1282 C1283 1.351 . S
C1283 C1277 1.428 . S
C1283 N1282 1.351 . S
C1283 C1284 1.434 . S
C1284 C1275 1.429 . S
C1284 N1281 1.350 . S
C1284 C1283 1.434 . S
C1285 C1286 1.369 . S
C1285 C1287 1.419 . S
C1285 H1289 0.930 . S
C1286 C1285 1.369 . S
C1286 C1295 1.429 . S
C1287 C1285 1.419 . S
C1287 C1288 1.363 . S
C1287 H1290 0.929 . S
C1288 C1287 1.363 . S
C1288 C1294 1.428 . S
H1289 C1285 0.930 . S
H1290 C1287 0.929 . S
S1291 N1292 1.613 . S
S1291 N1293 1.610 . S
N1292 S1291 1.613 . S
N1292 C1295 1.350 . S
N1293 S1291 1.610 . S
N1293 C1294 1.351 . S
C1294 C1288 1.428 . S
C1294 N1293 1.351 . S
C1294 C1295 1.434 . S
C1295 C1286 1.429 . S
C1295 N1292 1.350 . S
C1295 C1294 1.434 . S
C1296 C1297 1.369 . S
C1296 C1298 1.419 . S
C1296 H1300 0.930 . S
C1297 C1296 1.369 . S
C1297 C1306 1.429 . S
C1298 C1296 1.419 . S
C1298 C1299 1.363 . S
C1298 H1301 0.929 . S
C1299 C1298 1.363 . S
C1299 C1305 1.428 . S
H1300 C1296 0.930 . S
H1301 C1298 0.929 . S
S1302 N1303 1.613 . S
S1302 N1304 1.610 . S
N1303 S1302 1.613 . S
N1303 C1306 1.350 . S
N1304 S1302 1.610 . S
N1304 C1305 1.351 . S
C1305 C1299 1.428 . S
C1305 N1304 1.351 . S
C1305 C1306 1.434 . S
C1306 C1297 1.429 . S
C1306 N1303 1.350 . S
C1306 C1305 1.434 . S
C1307 C1308 1.369 . S
C1307 C1309 1.419 . S
C1307 H1311 0.930 . S
C1308 C1307 1.369 . S
C1308 C1317 1.429 . S
C1309 C1307 1.419 . S
C1309 C1310 1.363 . S
C1309 H1312 0.929 . S
C1310 C1309 1.363 . S
C1310 C1316 1.428 . S
H1311 C1307 0.930 . S
H1312 C1309 0.929 . S
S1313 N1314 1.613 . S
S1313 N1315 1.610 . S
N1314 S1313 1.613 . S
N1314 C1317 1.350 . S
N1315 S1313 1.610 . S
N1315 C1316 1.351 . S
C1316 C1310 1.428 . S
C1316 N1315 1.351 . S
C1316 C1317 1.434 . S
C1317 C1308 1.429 . S
C1317 N1314 1.350 . S
C1317 C1316 1.434 . S
C1318 C1319 1.369 . S
C1318 C1320 1.419 . S
C1318 H1322 0.930 . S
C1319 C1318 1.369 . S
C1319 C1328 1.429 . S
C1320 C1318 1.419 . S
C1320 C1321 1.363 . S
C1320 H1323 0.929 . S
C1321 C1320 1.363 . S
C1321 C1327 1.428 . S
H1322 C1318 0.930 . S
H1323 C1320 0.929 . S
S1324 N1325 1.613 . S
S1324 N1326 1.610 . S
N1325 S1324 1.613 . S
N1325 C1328 1.350 . S
N1326 S1324 1.610 . S
N1326 C1327 1.351 . S
C1327 C1321 1.428 . S
C1327 N1326 1.351 . S
C1327 C1328 1.434 . S
C1328 C1319 1.429 . S
C1328 N1325 1.350 . S
C1328 C1327 1.434 . S
C1329 C1330 1.369 . S
C1329 C1331 1.419 . S
C1329 H1333 0.930 . S
C1330 C1329 1.369 . S
C1330 C1339 1.429 . S
C1331 C1329 1.419 . S
C1331 C1332 1.363 . S
C1331 H1334 0.929 1_655 S
C1332 C1331 1.363 . S
C1332 C1338 1.428 . S
H1333 C1329 0.930 . S
H1334 C1331 0.929 1_455 S
S1335 N1336 1.613 . S
S1335 N1337 1.610 . S
N1336 S1335 1.613 . S
N1336 C1339 1.350 . S
N1337 S1335 1.610 . S
N1337 C1338 1.351 . S
C1338 C1332 1.428 . S
C1338 N1337 1.351 . S
C1338 C1339 1.434 . S
C1339 C1330 1.429 . S
C1339 N1336 1.350 . S
C1339 C1338 1.434 . S
C1340 C1341 1.369 . S
C1340 C1342 1.419 . S
C1340 H1344 0.930 . S
C1341 C1340 1.369 . S
C1341 C1350 1.429 . S
C1342 C1340 1.419 . S
C1342 C1343 1.363 . S
C1342 H1345 0.929 . S
C1343 C1342 1.363 . S
C1343 C1349 1.428 . S
H1344 C1340 0.930 . S
H1345 C1342 0.929 . S
S1346 N1347 1.613 . S
S1346 N1348 1.610 . S
N1347 S1346 1.613 . S
N1347 C1350 1.350 . S
N1348 S1346 1.610 . S
N1348 C1349 1.351 . S
C1349 C1343 1.428 . S
C1349 N1348 1.351 . S
C1349 C1350 1.434 . S
C1350 C1341 1.429 . S
C1350 N1347 1.350 . S
C1350 C1349 1.434 . S
C1351 C1352 1.369 . S
C1351 C1353 1.419 . S
C1351 H1355 0.930 . S
C1352 C1351 1.369 . S
C1352 C1361 1.429 . S
C1353 C1351 1.419 . S
C1353 C1354 1.363 . S
C1353 H1356 0.929 . S
C1354 C1353 1.363 . S
C1354 C1360 1.428 . S
H1355 C1351 0.930 . S
H1356 C1353 0.929 . S
S1357 N1358 1.605 1_556 S
S1357 N1359 1.610 . S
N1358 S1357 1.605 1_554 S
N1358 C1361 1.356 . S
N1359 S1357 1.610 . S
N1359 C1360 1.351 1_556 S
C1360 C1354 1.428 . S
C1360 N1359 1.351 1_554 S
C1360 C1361 1.434 . S
C1361 C1352 1.429 . S
C1361 N1358 1.356 . S
C1361 C1360 1.434 . S
C1362 C1363 1.369 . S
C1362 C1364 1.419 . S
C1362 H1366 0.930 . S
C1363 C1362 1.369 . S
C1363 C1372 1.429 . S
C1364 C1362 1.419 . S
C1364 C1365 1.363 . S
C1364 H1367 0.929 . S
C1365 C1364 1.363 . S
C1365 C1371 1.428 . S
H1366 C1362 0.930 . S
H1367 C1364 0.929 . S
S1368 N1369 1.613 . S
S1368 N1370 1.610 . S
N1369 S1368 1.613 . S
N1369 C1372 1.350 . S
N1370 S1368 1.610 . S
N1370 C1371 1.351 . S
C1371 C1365 1.428 . S
C1371 N1370 1.351 . S
C1371 C1372 1.434 . S
C1372 C1363 1.429 . S
C1372 N1369 1.350 . S
C1372 C1371 1.434 . S
C1373 C1374 1.369 . S
C1373 C1375 1.419 . S
C1373 H1377 0.930 . S
C1374 C1373 1.369 . S
C1374 C1383 1.429 . S
C1375 C1373 1.419 . S
C1375 C1376 1.363 . S
C1375 H1378 0.929 . S
C1376 C1375 1.363 . S
C1376 C1382 1.428 . S
H1377 C1373 0.930 . S
H1378 C1375 0.929 . S
S1379 N1380 1.608 1_556 S
S1379 N1381 1.610 . S
N1380 S1379 1.608 1_554 S
N1380 C1383 1.354 . S
N1381 S1379 1.610 . S
N1381 C1382 1.351 1_556 S
C1382 C1376 1.428 . S
C1382 N1381 1.351 1_554 S
C1382 C1383 1.434 . S
C1383 C1374 1.429 . S
C1383 N1380 1.354 . S
C1383 C1382 1.434 . S
C1384 C1385 1.369 . S
C1384 C1386 1.419 . S
C1384 H1388 0.930 . S
C1385 C1384 1.369 . S
C1385 C1394 1.429 . S
C1386 C1384 1.419 . S
C1386 C1387 1.363 . S
C1386 H1389 0.929 . S
C1387 C1386 1.363 . S
C1387 C1393 1.428 . S
H1388 C1384 0.930 . S
H1389 C1386 0.929 . S
S1390 N1391 1.613 . S
S1390 N1392 1.610 . S
N1391 S1390 1.613 . S
N1391 C1394 1.350 . S
N1392 S1390 1.610 . S
N1392 C1393 1.351 . S
C1393 C1387 1.428 . S
C1393 N1392 1.351 . S
C1393 C1394 1.434 . S
C1394 C1385 1.429 . S
C1394 N1391 1.350 . S
C1394 C1393 1.434 . S
C1395 C1396 1.369 . S
C1395 C1397 1.419 . S
C1395 H1399 0.930 . S
C1396 C1395 1.369 . S
C1396 C1405 1.429 . S
C1397 C1395 1.419 . S
C1397 C1398 1.363 . S
C1397 H1400 0.929 1_556 S
C1398 C1397 1.363 . S
C1398 C1404 1.428 . S
H1399 C1395 0.930 . S
H1400 C1397 0.929 1_554 S
S1401 N1402 1.613 . S
S1401 N1403 1.610 . S
N1402 S1401 1.613 . S
N1402 C1405 1.350 . S
N1403 S1401 1.610 . S
N1403 C1404 1.351 . S
C1404 C1398 1.428 . S
C1404 N1403 1.351 . S
C1404 C1405 1.434 . S
C1405 C1396 1.429 . S
C1405 N1402 1.350 . S
C1405 C1404 1.434 . S
C1406 C1407 1.369 . S
C1406 C1408 1.419 . S
C1406 H1410 0.930 . S
C1407 C1406 1.369 . S
C1407 C1416 1.429 . S
C1408 C1406 1.419 . S
C1408 C1409 1.363 . S
C1408 H1411 0.929 . S
C1409 C1408 1.363 . S
C1409 C1415 1.428 . S
H1410 C1406 0.930 . S
H1411 C1408 0.929 . S
S1412 N1413 1.613 . S
S1412 N1414 1.610 . S
N1413 S1412 1.613 . S
N1413 C1416 1.350 . S
N1414 S1412 1.610 . S
N1414 C1415 1.351 . S
C1415 C1409 1.428 . S
C1415 N1414 1.351 . S
C1415 C1416 1.434 . S
C1416 C1407 1.429 . S
C1416 N1413 1.350 . S
C1416 C1415 1.434 . S
C1417 C1418 1.369 . S
C1417 C1419 1.419 . S
C1417 H1421 0.930 . S
C1418 C1417 1.369 . S
C1418 C1427 1.429 . S
C1419 C1417 1.419 . S
C1419 C1420 1.363 . S
C1419 H1422 0.929 1_556 S
C1420 C1419 1.363 . S
C1420 C1426 1.428 . S
H1421 C1417 0.930 . S
H1422 C1419 0.929 1_554 S
S1423 N1424 1.613 . S
S1423 N1425 1.610 . S
N1424 S1423 1.613 . S
N1424 C1427 1.350 . S
N1425 S1423 1.610 . S
N1425 C1426 1.351 . S
C1426 C1420 1.428 . S
C1426 N1425 1.351 . S
C1426 C1427 1.434 . S
C1427 C1418 1.429 . S
C1427 N1424 1.350 . S
C1427 C1426 1.434 . S
C1428 C1429 1.369 . S
C1428 C1430 1.419 . S
C1428 H1432 0.930 . S
C1429 C1428 1.369 . S
C1429 C1438 1.429 . S
C1430 C1428 1.419 . S
C1430 C1431 1.363 . S
C1430 H1433 0.929 . S
C1431 C1430 1.363 . S
C1431 C1437 1.428 . S
H1432 C1428 0.930 . S
H1433 C1430 0.929 . S
S1434 N1435 1.613 . S
S1434 N1436 1.610 . S
N1435 S1434 1.613 . S
N1435 C1438 1.350 . S
N1436 S1434 1.610 . S
N1436 C1437 1.351 . S
C1437 C1431 1.428 . S
C1437 N1436 1.351 . S
C1437 C1438 1.434 . S
C1438 C1429 1.429 . S
C1438 N1435 1.350 . S
C1438 C1437 1.434 . S
C1439 C1440 1.369 . S
C1439 C1441 1.419 . S
C1439 H1443 0.930 . S
C1440 C1439 1.369 . S
C1440 C1449 1.429 . S
C1441 C1439 1.419 . S
C1441 C1442 1.363 . S
C1441 H1444 0.929 . S
C1442 C1441 1.363 . S
C1442 C1448 1.428 . S
H1443 C1439 0.930 . S
H1444 C1441 0.929 . S
S1445 N1446 1.613 . S
S1445 N1447 1.610 . S
N1446 S1445 1.613 . S
N1446 C1449 1.350 . S
N1447 S1445 1.610 . S
N1447 C1448 1.351 . S
C1448 C1442 1.428 . S
C1448 N1447 1.351 . S
C1448 C1449 1.434 . S
C1449 C1440 1.429 . S
C1449 N1446 1.350 . S
C1449 C1448 1.434 . S
C1450 C1451 1.369 . S
C1450 C1452 1.419 . S
C1450 H1454 0.930 . S
C1451 C1450 1.369 . S
C1451 C1460 1.429 . S
C1452 C1450 1.419 . S
C1452 C1453 1.363 . S
C1452 H1455 0.929 . S
C1453 C1452 1.363 . S
C1453 C1459 1.428 . S
H1454 C1450 0.930 . S
H1455 C1452 0.929 . S
S1456 N1457 1.613 . S
S1456 N1458 1.610 . S
N1457 S1456 1.613 . S
N1457 C1460 1.350 . S
N1458 S1456 1.610 . S
N1458 C1459 1.351 . S
C1459 C1453 1.428 . S
C1459 N1458 1.351 . S
C1459 C1460 1.434 . S
C1460 C1451 1.429 . S
C1460 N1457 1.350 . S
C1460 C1459 1.434 . S
C1461 C1462 1.369 . S
C1461 C1463 1.419 . S
C1461 H1465 0.930 . S
C1462 C1461 1.369 . S
C1462 C1471 1.429 . S
C1463 C1461 1.419 . S
C1463 C1464 1.363 . S
C1463 H1466 0.929 . S
C1464 C1463 1.363 . S
C1464 C1470 1.428 . S
H1465 C1461 0.930 . S
H1466 C1463 0.929 . S
S1467 N1468 1.613 . S
S1467 N1469 1.610 . S
N1468 S1467 1.613 . S
N1468 C1471 1.350 . S
N1469 S1467 1.610 . S
N1469 C1470 1.351 . S
C1470 C1464 1.428 . S
C1470 N1469 1.351 . S
C1470 C1471 1.434 . S
C1471 C1462 1.429 . S
C1471 N1468 1.350 . S
C1471 C1470 1.434 . S
C1472 C1473 1.369 . S
C1472 C1474 1.419 . S
C1472 H1476 0.930 . S
C1473 C1472 1.369 . S
C1473 C1482 1.429 . S
C1474 C1472 1.419 . S
C1474 C1475 1.363 . S
C1474 H1477 0.929 . S
C1475 C1474 1.363 . S
C1475 C1481 1.428 . S
H1476 C1472 0.930 . S
H1477 C1474 0.929 . S
S1478 N1479 1.613 . S
S1478 N1480 1.610 . S
N1479 S1478 1.613 . S
N1479 C1482 1.350 . S
N1480 S1478 1.610 . S
N1480 C1481 1.351 . S
C1481 C1475 1.428 . S
C1481 N1480 1.351 . S
C1481 C1482 1.434 . S
C1482 C1473 1.429 . S
C1482 N1479 1.350 . S
C1482 C1481 1.434 . S
C1483 C1484 1.369 . S
C1483 C1485 1.419 . S
C1483 H1487 0.930 . S
C1484 C1483 1.369 . S
C1484 C1493 1.429 . S
C1485 C1483 1.419 . S
C1485 C1486 1.363 . S
C1485 H1488 0.929 . S
C1486 C1485 1.363 . S
C1486 C1492 1.428 . S
H1487 C1483 0.930 . S
H1488 C1485 0.929 . S
S1489 N1490 1.613 . S
S1489 N1491 1.610 . S
N1490 S1489 1.613 . S
N1490 C1493 1.350 . S
N1491 S1489 1.610 . S
N1491 C1492 1.351 . S
C1492 C1486 1.428 . S
C1492 N1491 1.351 . S
C1492 C1493 1.434 . S
C1493 C1484 1.429 . S
C1493 N1490 1.350 . S
C1493 C1492 1.434 . S
C1494 C1495 1.369 . S
C1494 C1496 1.419 . S
C1494 H1498 0.930 . S
C1495 C1494 1.369 . S
C1495 C1504 1.429 . S
C1496 C1494 1.419 . S
C1496 C1497 1.363 . S
C1496 H1499 0.929 . S
C1497 C1496 1.363 . S
C1497 C1503 1.428 . S
H1498 C1494 0.930 . S
H1499 C1496 0.929 . S
S1500 N1501 1.613 . S
S1500 N1502 1.610 . S
N1501 S1500 1.613 . S
N1501 C1504 1.350 . S
N1502 S1500 1.610 . S
N1502 C1503 1.351 . S
C1503 C1497 1.428 . S
C1503 N1502 1.351 . S
C1503 C1504 1.434 . S
C1504 C1495 1.429 . S
C1504 N1501 1.350 . S
C1504 C1503 1.434 . S
C1505 C1506 1.369 . S
C1505 C1507 1.419 . S
C1505 H1509 0.930 . S
C1506 C1505 1.369 . S
C1506 C1515 1.429 . S
C1507 C1505 1.419 . S
C1507 C1508 1.363 . S
C1507 H1510 0.929 . S
C1508 C1507 1.363 . S
C1508 C1514 1.428 . S
H1509 C1505 0.930 . S
H1510 C1507 0.929 . S
S1511 N1512 1.613 . S
S1511 N1513 1.610 . S
N1512 S1511 1.613 . S
N1512 C1515 1.350 . S
N1513 S1511 1.610 . S
N1513 C1514 1.351 . S
C1514 C1508 1.428 . S
C1514 N1513 1.351 . S
C1514 C1515 1.434 . S
C1515 C1506 1.429 . S
C1515 N1512 1.350 . S
C1515 C1514 1.434 . S
C1516 C1517 1.369 . S
C1516 C1518 1.419 . S
C1516 H1520 0.930 . S
C1517 C1516 1.369 . S
C1517 C1526 1.429 . S
C1518 C1516 1.419 . S
C1518 C1519 1.363 . S
C1518 H1521 0.929 . S
C1519 C1518 1.363 . S
C1519 C1525 1.428 . S
H1520 C1516 0.930 . S
H1521 C1518 0.929 . S
S1522 N1523 1.613 . S
S1522 N1524 1.610 . S
N1523 S1522 1.613 . S
N1523 C1526 1.350 . S
N1524 S1522 1.610 . S
N1524 C1525 1.351 . S
C1525 C1519 1.428 . S
C1525 N1524 1.351 . S
C1525 C1526 1.434 . S
C1526 C1517 1.429 . S
C1526 N1523 1.350 . S
C1526 C1525 1.434 . S
C1527 C1528 1.369 . S
C1527 C1529 1.419 . S
C1527 H1531 0.930 . S
C1528 C1527 1.369 . S
C1528 C1537 1.429 . S
C1529 C1527 1.419 . S
C1529 C1530 1.363 . S
C1529 H1532 0.929 . S
C1530 C1529 1.363 . S
C1530 C1536 1.428 . S
H1531 C1527 0.930 . S
H1532 C1529 0.929 . S
S1533 N1534 1.613 . S
S1533 N1535 1.610 . S
N1534 S1533 1.613 . S
N1534 C1537 1.350 . S
N1535 S1533 1.610 . S
N1535 C1536 1.351 . S
C1536 C1530 1.428 . S
C1536 N1535 1.351 . S
C1536 C1537 1.434 . S
C1537 C1528 1.429 . S
C1537 N1534 1.350 . S
C1537 C1536 1.434 . S
C1538 C1539 1.369 . S
C1538 C1540 1.419 . S
C1538 H1542 0.930 . S
C1539 C1538 1.369 . S
C1539 C1548 1.429 . S
C1540 C1538 1.419 . S
C1540 C1541 1.363 . S
C1540 H1543 0.929 . S
C1541 C1540 1.363 . S
C1541 C1547 1.428 . S
H1542 C1538 0.930 . S
H1543 C1540 0.929 . S
S1544 N1545 1.613 . S
S1544 N1546 1.610 . S
N1545 S1544 1.613 . S
N1545 C1548 1.350 . S
N1546 S1544 1.610 . S
N1546 C1547 1.351 . S
C1547 C1541 1.428 . S
C1547 N1546 1.351 . S
C1547 C1548 1.434 . S
C1548 C1539 1.429 . S
C1548 N1545 1.350 . S
C1548 C1547 1.434 . S
C1549 C1550 1.369 . S
C1549 C1551 1.419 . S
C1549 H1553 0.930 . S
C1550 C1549 1.369 . S
C1550 C1559 1.429 . S
C1551 C1549 1.419 . S
C1551 C1552 1.363 . S
C1551 H1554 0.929 . S
C1552 C1551 1.363 . S
C1552 C1558 1.428 . S
H1553 C1549 0.930 . S
H1554 C1551 0.929 . S
S1555 N1556 1.613 1_655 S
S1555 N1557 1.610 . S
N1556 S1555 1.613 1_455 S
N1556 C1559 1.350 . S
N1557 S1555 1.610 . S
N1557 C1558 1.351 1_655 S
C1558 C1552 1.428 . S
C1558 N1557 1.351 1_455 S
C1558 C1559 1.434 . S
C1559 C1550 1.429 . S
C1559 N1556 1.350 . S
C1559 C1558 1.434 . S
C1560 C1561 1.369 . S
C1560 C1562 1.419 . S
C1560 H1564 0.930 . S
C1561 C1560 1.369 . S
C1561 C1570 1.429 . S
C1562 C1560 1.419 . S
C1562 C1563 1.363 . S
C1562 H1565 0.929 . S
C1563 C1562 1.363 . S
C1563 C1569 1.428 . S
H1564 C1560 0.930 . S
H1565 C1562 0.929 . S
S1566 N1567 1.613 . S
S1566 N1568 1.610 . S
N1567 S1566 1.613 . S
N1567 C1570 1.350 . S
N1568 S1566 1.610 . S
N1568 C1569 1.351 . S
C1569 C1563 1.428 . S
C1569 N1568 1.351 . S
C1569 C1570 1.434 . S
C1570 C1561 1.429 . S
C1570 N1567 1.350 . S
C1570 C1569 1.434 . S
C1571 C1572 1.369 . S
C1571 C1573 1.419 . S
C1571 H1575 0.930 . S
C1572 C1571 1.369 . S
C1572 C1581 1.429 . S
C1573 C1571 1.419 . S
C1573 C1574 1.363 . S
C1573 H1576 0.929 . S
C1574 C1573 1.363 . S
C1574 C1580 1.428 . S
H1575 C1571 0.930 . S
H1576 C1573 0.929 . S
S1577 N1578 1.613 . S
S1577 N1579 1.610 . S
N1578 S1577 1.613 . S
N1578 C1581 1.350 . S
N1579 S1577 1.610 . S
N1579 C1580 1.351 . S
C1580 C1574 1.428 . S
C1580 N1579 1.351 . S
C1580 C1581 1.434 . S
C1581 C1572 1.429 . S
C1581 N1578 1.350 . S
C1581 C1580 1.434 . S
C1582 C1583 1.369 . S
C1582 C1584 1.419 . S
C1582 H1586 0.930 . S
C1583 C1582 1.369 . S
C1583 C1592 1.429 . S
C1584 C1582 1.419 . S
C1584 C1585 1.363 . S
C1584 H1587 0.929 . S
C1585 C1584 1.363 . S
C1585 C1591 1.428 . S
H1586 C1582 0.930 . S
H1587 C1584 0.929 . S
S1588 N1589 1.613 . S
S1588 N1590 1.610 . S
N1589 S1588 1.613 . S
N1589 C1592 1.350 . S
N1590 S1588 1.610 . S
N1590 C1591 1.351 . S
C1591 C1585 1.428 . S
C1591 N1590 1.351 . S
C1591 C1592 1.434 . S
C1592 C1583 1.429 . S
C1592 N1589 1.350 . S
C1592 C1591 1.434 . S
C1593 C1594 1.369 . S
C1593 C1595 1.419 . S
C1593 H1597 0.930 . S
C1594 C1593 1.369 . S
C1594 C1603 1.429 . S
C1595 C1593 1.419 . S
C1595 C1596 1.363 . S
C1595 H1598 0.929 . S
C1596 C1595 1.363 . S
C1596 C1602 1.428 . S
H1597 C1593 0.930 . S
H1598 C1595 0.929 . S
S1599 N1600 1.613 . S
S1599 N1601 1.610 . S
N1600 S1599 1.613 . S
N1600 C1603 1.350 . S
N1601 S1599 1.610 . S
N1601 C1602 1.351 . S
C1602 C1596 1.428 . S
C1602 N1601 1.351 . S
C1602 C1603 1.434 . S
C1603 C1594 1.429 . S
C1603 N1600 1.350 . S
C1603 C1602 1.434 . S
C1604 C1605 1.369 . S
C1604 C1606 1.419 . S
C1604 H1608 0.930 . S
C1605 C1604 1.369 . S
C1605 C1614 1.429 . S
C1606 C1604 1.419 . S
C1606 C1607 1.363 . S
C1606 H1609 0.929 . S
C1607 C1606 1.363 . S
C1607 C1613 1.428 . S
H1608 C1604 0.930 . S
H1609 C1606 0.929 . S
S1610 N1611 1.613 . S
S1610 N1612 1.610 . S
N1611 S1610 1.613 . S
N1611 C1614 1.350 . S
N1612 S1610 1.610 . S
N1612 C1613 1.351 . S
C1613 C1607 1.428 . S
C1613 N1612 1.351 . S
C1613 C1614 1.434 . S
C1614 C1605 1.429 . S
C1614 N1611 1.350 . S
C1614 C1613 1.434 . S
C1615 C1616 1.369 . S
C1615 C1617 1.419 . S
C1615 H1619 0.930 . S
C1616 C1615 1.369 . S
C1616 C1625 1.429 . S
C1617 C1615 1.419 . S
C1617 C1618 1.363 . S
C1617 H1620 0.929 . S
C1618 C1617 1.363 . S
C1618 C1624 1.428 . S
H1619 C1615 0.930 . S
H1620 C1617 0.929 . S
S1621 N1622 1.613 . S
S1621 N1623 1.610 . S
N1622 S1621 1.613 . S
N1622 C1625 1.350 . S
N1623 S1621 1.610 . S
N1623 C1624 1.351 . S
C1624 C1618 1.428 . S
C1624 N1623 1.351 . S
C1624 C1625 1.434 . S
C1625 C1616 1.429 . S
C1625 N1622 1.350 . S
C1625 C1624 1.434 . S
C1626 C1627 1.369 . S
C1626 C1628 1.419 . S
C1626 H1630 0.930 . S
C1627 C1626 1.369 . S
C1627 C1636 1.429 . S
C1628 C1626 1.419 . S
C1628 C1629 1.363 . S
C1628 H1631 0.929 . S
C1629 C1628 1.363 . S
C1629 C1635 1.428 . S
H1630 C1626 0.930 . S
H1631 C1628 0.929 . S
S1632 N1633 1.613 . S
S1632 N1634 1.610 . S
N1633 S1632 1.613 . S
N1633 C1636 1.350 . S
N1634 S1632 1.610 . S
N1634 C1635 1.351 . S
C1635 C1629 1.428 . S
C1635 N1634 1.351 . S
C1635 C1636 1.434 . S
C1636 C1627 1.429 . S
C1636 N1633 1.350 . S
C1636 C1635 1.434 . S
C1637 C1638 1.369 . S
C1637 C1639 1.419 . S
C1637 H1641 0.930 . S
C1638 C1637 1.369 . S
C1638 C1647 1.429 . S
C1639 C1637 1.419 . S
C1639 C1640 1.363 . S
C1639 H1642 0.929 . S
C1640 C1639 1.363 . S
C1640 C1646 1.428 . S
H1641 C1637 0.930 . S
H1642 C1639 0.929 . S
S1643 N1644 1.613 . S
S1643 N1645 1.610 . S
N1644 S1643 1.613 . S
N1644 C1647 1.350 . S
N1645 S1643 1.610 . S
N1645 C1646 1.351 . S
C1646 C1640 1.428 . S
C1646 N1645 1.351 . S
C1646 C1647 1.434 . S
C1647 C1638 1.429 . S
C1647 N1644 1.350 . S
C1647 C1646 1.434 . S
C1648 C1649 1.369 . S
C1648 C1650 1.419 . S
C1648 H1652 0.930 . S
C1649 C1648 1.369 . S
C1649 C1658 1.429 . S
C1650 C1648 1.419 . S
C1650 C1651 1.363 . S
C1650 H1653 0.929 . S
C1651 C1650 1.363 . S
C1651 C1657 1.428 . S
H1652 C1648 0.930 . S
H1653 C1650 0.929 . S
S1654 N1655 1.613 . S
S1654 N1656 1.610 . S
N1655 S1654 1.613 . S
N1655 C1658 1.350 . S
N1656 S1654 1.610 . S
N1656 C1657 1.351 . S
C1657 C1651 1.428 . S
C1657 N1656 1.351 . S
C1657 C1658 1.434 . S
C1658 C1649 1.429 . S
C1658 N1655 1.350 . S
C1658 C1657 1.434 . S
C1659 C1660 1.369 . S
C1659 C1661 1.419 . S
C1659 H1663 0.930 . S
C1660 C1659 1.369 . S
C1660 C1669 1.429 . S
C1661 C1659 1.419 . S
C1661 C1662 1.363 . S
C1661 H1664 0.929 . S
C1662 C1661 1.363 . S
C1662 C1668 1.428 . S
H1663 C1659 0.930 . S
H1664 C1661 0.929 . S
S1665 N1666 1.613 . S
S1665 N1667 1.610 . S
N1666 S1665 1.613 . S
N1666 C1669 1.350 . S
N1667 S1665 1.610 . S
N1667 C1668 1.351 . S
C1668 C1662 1.428 . S
C1668 N1667 1.351 . S
C1668 C1669 1.434 . S
C1669 C1660 1.429 . S
C1669 N1666 1.350 . S
C1669 C1668 1.434 . S
C1670 C1671 1.369 . S
C1670 C1672 1.419 . S
C1670 H1674 0.930 . S
C1671 C1670 1.369 . S
C1671 C1680 1.429 . S
C1672 C1670 1.419 . S
C1672 C1673 1.363 . S
C1672 H1675 0.929 . S
C1673 C1672 1.363 . S
C1673 C1679 1.428 . S
H1674 C1670 0.930 . S
H1675 C1672 0.929 . S
S1676 N1677 1.613 . S
S1676 N1678 1.610 . S
N1677 S1676 1.613 . S
N1677 C1680 1.350 . S
N1678 S1676 1.610 . S
N1678 C1679 1.351 . S
C1679 C1673 1.428 . S
C1679 N1678 1.351 . S
C1679 C1680 1.434 . S
C1680 C1671 1.429 . S
C1680 N1677 1.350 . S
C1680 C1679 1.434 . S
C1681 C1682 1.369 . S
C1681 C1683 1.419 . S
C1681 H1685 0.930 . S
C1682 C1681 1.369 . S
C1682 C1691 1.429 . S
C1683 C1681 1.419 . S
C1683 C1684 1.363 . S
C1683 H1686 0.929 . S
C1684 C1683 1.363 . S
C1684 C1690 1.428 . S
H1685 C1681 0.930 . S
H1686 C1683 0.929 . S
S1687 N1688 1.613 . S
S1687 N1689 1.610 . S
N1688 S1687 1.613 . S
N1688 C1691 1.350 . S
N1689 S1687 1.610 . S
N1689 C1690 1.351 . S
C1690 C1684 1.428 . S
C1690 N1689 1.351 . S
C1690 C1691 1.434 . S
C1691 C1682 1.429 . S
C1691 N1688 1.350 . S
C1691 C1690 1.434 . S
C1692 C1693 1.369 . S
C1692 C1694 1.419 . S
C1692 H1696 0.930 . S
C1693 C1692 1.369 . S
C1693 C1702 1.429 . S
C1694 C1692 1.419 . S
C1694 C1695 1.363 . S
C1694 H1697 0.929 . S
C1695 C1694 1.363 . S
C1695 C1701 1.428 . S
H1696 C1692 0.930 . S
H1697 C1694 0.929 . S
S1698 N1699 1.613 . S
S1698 N1700 1.610 . S
N1699 S1698 1.613 . S
N1699 C1702 1.350 . S
N1700 S1698 1.610 . S
N1700 C1701 1.351 . S
C1701 C1695 1.428 . S
C1701 N1700 1.351 . S
C1701 C1702 1.434 . S
C1702 C1693 1.429 . S
C1702 N1699 1.350 . S
C1702 C1701 1.434 . S
C1703 C1704 1.369 . S
C1703 C1705 1.419 . S
C1703 H1707 0.930 . S
C1704 C1703 1.369 . S
C1704 C1713 1.429 . S
C1705 C1703 1.419 . S
C1705 C1706 1.363 . S
C1705 H1708 0.929 . S
C1706 C1705 1.363 . S
C1706 C1712 1.428 . S
H1707 C1703 0.930 . S
H1708 C1705 0.929 . S
S1709 N1710 1.613 . S
S1709 N1711 1.610 . S
N1710 S1709 1.613 . S
N1710 C1713 1.350 . S
N1711 S1709 1.610 . S
N1711 C1712 1.351 . S
C1712 C1706 1.428 . S
C1712 N1711 1.351 . S
C1712 C1713 1.434 . S
C1713 C1704 1.429 . S
C1713 N1710 1.350 . S
C1713 C1712 1.434 . S
C1714 C1715 1.369 . S
C1714 C1716 1.419 . S
C1714 H1718 0.930 . S
C1715 C1714 1.369 . S
C1715 C1724 1.429 . S
C1716 C1714 1.419 . S
C1716 C1717 1.363 . S
C1716 H1719 0.929 . S
C1717 C1716 1.363 . S
C1717 C1723 1.428 . S
H1718 C1714 0.930 . S
H1719 C1716 0.929 . S
S1720 N1721 1.613 1_565 S
S1720 N1722 1.610 . S
N1721 S1720 1.613 1_545 S
N1721 C1724 1.350 . S
N1722 S1720 1.610 . S
N1722 C1723 1.351 1_565 S
C1723 C1717 1.428 . S
C1723 N1722 1.351 1_545 S
C1723 C1724 1.434 . S
C1724 C1715 1.429 . S
C1724 N1721 1.350 . S
C1724 C1723 1.434 . S
C1725 C1726 1.369 . S
C1725 C1727 1.419 . S
C1725 H1729 0.930 . S
C1726 C1725 1.369 . S
C1726 C1735 1.429 . S
C1727 C1725 1.419 . S
C1727 C1728 1.363 . S
C1727 H1730 0.929 . S
C1728 C1727 1.363 . S
C1728 C1734 1.428 . S
H1729 C1725 0.930 . S
H1730 C1727 0.929 . S
S1731 N1732 1.613 . S
S1731 N1733 1.610 . S
N1732 S1731 1.613 . S
N1732 C1735 1.350 . S
N1733 S1731 1.610 . S
N1733 C1734 1.351 . S
C1734 C1728 1.428 . S
C1734 N1733 1.351 . S
C1734 C1735 1.434 . S
C1735 C1726 1.429 . S
C1735 N1732 1.350 . S
C1735 C1734 1.434 . S
C1736 C1737 1.369 . S
C1736 C1738 1.419 . S
C1736 H1740 0.930 . S
C1737 C1736 1.369 . S
C1737 C1746 1.429 . S
C1738 C1736 1.419 . S
C1738 C1739 1.363 . S
C1738 H1741 0.929 . S
C1739 C1738 1.363 . S
C1739 C1745 1.428 . S
H1740 C1736 0.930 . S
H1741 C1738 0.929 . S
S1742 N1743 1.613 1_545 S
S1742 N1744 1.610 . S
N1743 S1742 1.613 1_565 S
N1743 C1746 1.350 . S
N1744 S1742 1.610 . S
N1744 C1745 1.351 1_545 S
C1745 C1739 1.428 . S
C1745 N1744 1.351 1_565 S
C1745 C1746 1.434 . S
C1746 C1737 1.429 . S
C1746 N1743 1.350 . S
C1746 C1745 1.434 . S
C1747 C1748 1.369 . S
C1747 C1749 1.419 . S
C1747 H1751 0.930 . S
C1748 C1747 1.369 . S
C1748 C1757 1.429 . S
C1749 C1747 1.419 . S
C1749 C1750 1.363 . S
C1749 H1752 0.929 . S
C1750 C1749 1.363 . S
C1750 C1756 1.428 . S
H1751 C1747 0.930 . S
H1752 C1749 0.929 . S
S1753 N1754 1.613 . S
S1753 N1755 1.610 . S
N1754 S1753 1.613 . S
N1754 C1757 1.350 . S
N1755 S1753 1.610 . S
N1755 C1756 1.351 . S
C1756 C1750 1.428 . S
C1756 N1755 1.351 . S
C1756 C1757 1.434 . S
C1757 C1748 1.429 . S
C1757 N1754 1.350 . S
C1757 C1756 1.434 . S
C1758 C1759 1.369 . S
C1758 C1760 1.419 . S
C1758 H1762 0.930 . S
C1759 C1758 1.369 . S
C1759 C1768 1.429 . S
C1760 C1758 1.419 . S
C1760 C1761 1.363 . S
C1760 H1763 0.929 . S
C1761 C1760 1.363 . S
C1761 C1767 1.428 . S
H1762 C1758 0.930 . S
H1763 C1760 0.929 . S
S1764 N1765 1.613 . S
S1764 N1766 1.610 . S
N1765 S1764 1.613 . S
N1765 C1768 1.350 . S
N1766 S1764 1.610 . S
N1766 C1767 1.351 . S
C1767 C1761 1.428 . S
C1767 N1766 1.351 . S
C1767 C1768 1.434 . S
C1768 C1759 1.429 . S
C1768 N1765 1.350 . S
C1768 C1767 1.434 . S
C1769 C1770 1.369 . S
C1769 C1771 1.419 . S
C1769 H1773 0.930 . S
C1770 C1769 1.369 . S
C1770 C1779 1.429 . S
C1771 C1769 1.419 . S
C1771 C1772 1.363 . S
C1771 H1774 0.929 . S
C1772 C1771 1.363 . S
C1772 C1778 1.428 . S
H1773 C1769 0.930 . S
H1774 C1771 0.929 . S
S1775 N1776 1.613 . S
S1775 N1777 1.610 . S
N1776 S1775 1.613 . S
N1776 C1779 1.350 . S
N1777 S1775 1.610 . S
N1777 C1778 1.351 . S
C1778 C1772 1.428 . S
C1778 N1777 1.351 . S
C1778 C1779 1.434 . S
C1779 C1770 1.429 . S
C1779 N1776 1.350 . S
C1779 C1778 1.434 . S
C727 C381 1.239 . S
C725 C226 1.339 . S
C738 C384 1.520 . S
C736 C269 1.624 . S
C749 C372 1.131 . S
C747 C250 1.215 . S
C758 C205 1.774 . S
C760 C385 1.650 . S
C771 C416 1.241 . S
C769 C115 1.330 . S
C780 C136 1.800 . S
C782 C443 1.655 . S
C793 C415 1.139 . S
C791 C158 1.209 . S
C802 C97 1.638 . S
C804 C434 1.542 . S
C813 C314 1.352 . S
C815 C447 1.259 . S
C824 C336 1.750 . S
C826 C478 1.610 1_545 S
C837 C536 1.252 . S
C835 C180 1.341 . S
C848 C558 1.578 . S
C846 C294 1.683 . S
C859 C446 1.121 . S
C857 C70 1.200 . S
C870 C477 1.565 1_545 S
C868 C6 1.669 . S
C879 C31 1.197 . S
C881 C527 1.115 . S
C890 C53 1.737 . S
C892 C567 1.609 . S
C901 C29 1.356 . S
C903 C505 1.250 . S
C914 C571 1.274 . S
C912 C181 1.368 . S
C923 C293 1.751 . S
C925 C602 1.631 . S
C936 C651 1.124 . S
C934 C312 1.188 . S
C945 C137 1.782 . S
C947 C509 1.646 1_655 S
C958 C570 1.108 . S
C956 C225 1.173 . S
C969 C601 1.531 . S
C967 C270 1.638 . S
C980 C682 1.567 . S
C978 C206 1.665 . S
C989 C72 1.338 . S
C991 C412 1.234 . S
C1000 C4 1.625 . S
C1002 C353 1.518 . S
C1013 C403 1.134 . S
C1011 C30 1.208 . S
C1022 C51 1.772 . S
C1024 C354 1.653 1_554 S
C1033 C313 1.336 . S
C1035 C695 1.247 . S
C1044 C334 1.796 . S
C1046 C722 1.660 1_556 S
C1057 C694 1.129 . S
C1055 C182 1.205 . S
C1066 C295 1.642 . S
C1068 C713 1.538 1_556 S
C1077 C116 1.353 . S
C1079 C629 1.259 . S
C1090 C633 1.616 . S
C1088 C138 1.743 . S
C1101 C664 1.243 . S
C1099 C159 1.343 . S
C1112 C589 1.575 1_565 S
C1110 C96 1.686 . S
C1123 C620 1.124 . S
C1121 C224 1.204 . S
C1132 C268 1.675 . S
C1134 C632 1.565 . S
C1143 C251 1.192 . S
C1145 C663 1.123 . S
C1156 C598 1.611 1_565 S
C1154 C207 1.735 . S
C1165 C249 1.353 . S
C1167 C660 1.253 . S
C1178 C540 1.280 . S
C1176 C160 1.370 . S
C1187 C95 1.750 . S
C1189 C474 1.632 1_455 S
C1198 C114 1.191 . S
C1200 C496 1.114 . S
C1209 C335 1.778 . S
C1211 C691 1.650 . S
C1220 C71 1.177 . S
C1222 C539 1.099 . S
C1231 C5 1.637 . S
C1233 C465 1.531 1_455 S
C1244 C508 1.565 1_655 S
C1242 C52 1.666 . S
C1255 C352 1.706 . S
C1253 C339 1.573 . S
C1266 C402 1.959 . S
C1264 C184 1.882 . S
C1277 C362 1.488 . S
C1275 C290 1.505 . S
C1288 C413 1.790 . S
C1286 C317 1.797 . S
C1299 C433 1.669 . S
C1297 C204 1.539 . S
C1308 C228 1.758 . S
C1310 C424 1.757 . S
C1319 C272 1.468 . S
C1321 C444 1.461 . S
C1330 C248 1.844 . S
C1332 C414 1.922 . S
C1343 C464 1.671 . S
C1341 C49 1.533 . S
C1354 C506 1.760 . S
C1352 C75 1.767 . S
C1363 C8 1.523 . S
C1365 C507 1.664 . S
C1376 C538 1.916 . S
C1374 C26 1.845 . S
C1385 C140 1.520 . S
C1387 C475 1.498 . S
C1398 C495 1.949 . S
C1396 C162 1.879 . S
C1409 C517 1.482 . S
C1407 C94 1.510 . S
C1418 C117 1.798 . S
C1420 C548 1.798 . S
C1431 C476 1.618 . S
C1429 C93 1.492 . S
C1440 C7 1.501 . S
C1442 C588 1.628 . S
C1451 C27 1.778 . S
C1453 C630 1.778 . S
C1462 C48 1.550 . S
C1464 C641 1.533 . S
C1475 C537 1.797 . S
C1473 C227 1.809 . S
C1486 C599 1.528 . S
C1484 C337 1.542 . S
C1495 C183 1.840 . S
C1497 C619 1.911 . S
C1508 C662 1.935 . S
C1506 C316 1.861 . S
C1519 C383 1.704 . S
C1517 C141 1.580 . S
C1528 C161 1.885 . S
C1530 C371 1.961 . S
C1539 C92 1.508 . S
C1541 C393 1.483 . S
C1550 C119 1.795 . S
C1552 C382 1.790 . S
C1563 C712 1.669 . S
C1561 C50 1.539 . S
C1574 C703 1.751 . S
C1572 C74 1.766 . S
C1583 C9 1.479 . S
C1585 C723 1.450 . S
C1594 C28 1.845 . S
C1596 C693 1.922 . S
C1605 C203 1.549 . S
C1607 C600 1.668 . S
C1618 C661 1.763 . S
C1616 C229 1.765 . S
C1629 C681 1.659 . S
C1627 C271 1.532 . S
C1638 C246 1.838 . S
C1640 C569 1.918 . S
C1651 C610 1.497 . S
C1649 C338 1.519 . S
C1660 C185 1.873 . S
C1662 C650 1.948 . S
C1673 C692 1.488 . S
C1671 C292 1.505 . S
C1682 C315 1.806 . S
C1684 C579 1.792 . S
C1693 C291 1.500 . S
C1695 C631 1.622 . S
C1704 C273 1.506 . S
C1706 C557 1.629 . S
C1717 C455 1.775 . S
C1715 C247 1.780 . S
C1726 C202 1.544 . S
C1728 C486 1.540 . S
C1737 C73 1.806 . S
C1739 C672 1.800 . S
C1748 C139 1.550 . S
C1750 C568 1.521 . S
C1761 C445 1.911 . S
C1759 C163 1.842 . S
C1770 C118 1.868 . S
C1772 C526 1.936 . S
