# Generated by pormake.
# Topology wbl, (4,4)-cn, num edge types: 1
# Building blocks:
#     Node 0, Type 0, BuildingBlock: MUDLON_clean_sbu_0, # of connection points: 4
#     Node 1, Type 0, BuildingBlock: MUDLON_clean_sbu_0, # of connection points: 4
#     Node 2, Type 0, BuildingBlock: MUDLON_clean_sbu_0, # of connection points: 4
#     Node 3, Type 0, BuildingBlock: MUDLON_clean_sbu_0, # of connection points: 4
#     Node 4, Type 0, BuildingBlock: MUDLON_clean_sbu_0, # of connection points: 4
#     Node 5, Type 0, BuildingBlock: MUDLON_clean_sbu_0, # of connection points: 4
#     Node 6, Type 0, BuildingBlock: MUDLON_clean_sbu_0, # of connection points: 4
#     Node 7, Type 0, BuildingBlock: MUDLON_clean_sbu_0, # of connection points: 4
#     Node 8, Type 1, BuildingBlock: QUQFOY_clean_sbu_3, # of connection points: 4
#     Node 9, Type 1, BuildingBlock: QUQFOY_clean_sbu_3, # of connection points: 4
#     Node 10, Type 1, BuildingBlock: QUQFOY_clean_sbu_3, # of connection points: 4
#     Node 11, Type 1, BuildingBlock: QUQFOY_clean_sbu_3, # of connection points: 4
#     Node 12, Type 1, BuildingBlock: QUQFOY_clean_sbu_3, # of connection points: 4
#     Node 13, Type 1, BuildingBlock: QUQFOY_clean_sbu_3, # of connection points: 4
#     Node 14, Type 1, BuildingBlock: QUQFOY_clean_sbu_3, # of connection points: 4
#     Node 15, Type 1, BuildingBlock: QUQFOY_clean_sbu_3, # of connection points: 4
#     Edge 16, Type (0, 1), BuildingBlock: ZUJKAS_clean_linker_0, # of connection points: 2
#     Edge 17, Type (0, 1), BuildingBlock: ZUJKAS_clean_linker_0, # of connection points: 2
#     Edge 18, Type (0, 1), BuildingBlock: ZUJKAS_clean_linker_0, # of connection points: 2
#     Edge 19, Type (0, 1), BuildingBlock: ZUJKAS_clean_linker_0, # of connection points: 2
#     Edge 20, Type (0, 1), BuildingBlock: ZUJKAS_clean_linker_0, # of connection points: 2
#     Edge 21, Type (0, 1), BuildingBlock: ZUJKAS_clean_linker_0, # of connection points: 2
#     Edge 22, Type (0, 1), BuildingBlock: ZUJKAS_clean_linker_0, # of connection points: 2
#     Edge 23, Type (0, 1), BuildingBlock: ZUJKAS_clean_linker_0, # of connection points: 2
#     Edge 24, Type (0, 1), BuildingBlock: ZUJKAS_clean_linker_0, # of connection points: 2
#     Edge 25, Type (0, 1), BuildingBlock: ZUJKAS_clean_linker_0, # of connection points: 2
#     Edge 26, Type (0, 1), BuildingBlock: ZUJKAS_clean_linker_0, # of connection points: 2
#     Edge 27, Type (0, 1), BuildingBlock: ZUJKAS_clean_linker_0, # of connection points: 2
#     Edge 28, Type (0, 1), BuildingBlock: ZUJKAS_clean_linker_0, # of connection points: 2
#     Edge 29, Type (0, 1), BuildingBlock: ZUJKAS_clean_linker_0, # of connection points: 2
#     Edge 30, Type (0, 1), BuildingBlock: ZUJKAS_clean_linker_0, # of connection points: 2
#     Edge 31, Type (0, 1), BuildingBlock: ZUJKAS_clean_linker_0, # of connection points: 2
#     Edge 32, Type (0, 1), BuildingBlock: ZUJKAS_clean_linker_0, # of connection points: 2
#     Edge 33, Type (0, 1), BuildingBlock: ZUJKAS_clean_linker_0, # of connection points: 2
#     Edge 34, Type (0, 1), BuildingBlock: ZUJKAS_clean_linker_0, # of connection points: 2
#     Edge 35, Type (0, 1), BuildingBlock: ZUJKAS_clean_linker_0, # of connection points: 2
#     Edge 36, Type (0, 1), BuildingBlock: ZUJKAS_clean_linker_0, # of connection points: 2
#     Edge 37, Type (0, 1), BuildingBlock: ZUJKAS_clean_linker_0, # of connection points: 2
#     Edge 38, Type (0, 1), BuildingBlock: ZUJKAS_clean_linker_0, # of connection points: 2
#     Edge 39, Type (0, 1), BuildingBlock: ZUJKAS_clean_linker_0, # of connection points: 2
#     Edge 40, Type (0, 1), BuildingBlock: ZUJKAS_clean_linker_0, # of connection points: 2
#     Edge 41, Type (0, 1), BuildingBlock: ZUJKAS_clean_linker_0, # of connection points: 2
#     Edge 42, Type (0, 1), BuildingBlock: ZUJKAS_clean_linker_0, # of connection points: 2
#     Edge 43, Type (0, 1), BuildingBlock: ZUJKAS_clean_linker_0, # of connection points: 2
#     Edge 44, Type (0, 1), BuildingBlock: ZUJKAS_clean_linker_0, # of connection points: 2
#     Edge 45, Type (0, 1), BuildingBlock: ZUJKAS_clean_linker_0, # of connection points: 2
#     Edge 46, Type (0, 1), BuildingBlock: ZUJKAS_clean_linker_0, # of connection points: 2
#     Edge 47, Type (0, 1), BuildingBlock: ZUJKAS_clean_linker_0, # of connection points: 2
# Relax obj value: 0.237
# Max RMSD: 0.221
# Mean RMSD: 0.172
data_MOF--net-wbl--node1-MUDLON_clean_sbu_0--node2-QUQFOY_clean_sbu_3--edge1-ZUJKAS_clean_linker_0
_symmetry_space_group_name_H-M    P1
_symmetry_Int_Tables_number       1
_symmetry_cell_setting            triclinic
loop_
_symmetry_equiv_pos_as_xyz
'x, y, z'
_cell_length_a     45.623848
_cell_length_b     46.157591
_cell_length_c     99.774236
_cell_angle_alpha  90.436814
_cell_angle_beta   90.091003
_cell_angle_gamma 89.852399
loop_
_atom_site_label
_atom_site_type_symbol
_atom_site_fract_x
_atom_site_fract_y
_atom_site_fract_z
_atom_type_partial_charge
Mg0 Mg 0.01053 0.00925 0.3334 0.0
C1 C 0.02503 0.95171 0.34664 0.0
O2 O 0.0453 0.9507 0.33732 0.0
C3 C 0.97348 0.03521 0.31163 0.0
O4 O -0.00043 0.04258 0.30729 0.0
C5 C 0.04804 0.98707 0.31082 0.0
O6 O 0.02376 0.97267 0.30843 0.0
O7 O 0.04883 0.00469 0.32068 0.0
O8 O 0.00621 0.97206 0.34643 0.0
O9 O 0.01409 0.04435 0.34793 0.0
C10 C 0.98943 0.05192 0.35277 0.0
O11 O 0.96562 0.03986 0.34787 0.0
O12 O 0.9715 0.01906 0.32185 0.0
Mg13 Mg 0.12866 0.49633 0.57946 0.0
C14 C 0.18905 0.50915 0.59102 0.0
O15 O 0.19041 0.52668 0.58074 0.0
C16 C 0.1037 0.46046 0.55677 0.0
O17 O 0.09847 0.4864 0.55199 0.0
C18 C 0.14904 0.53426 0.55686 0.0
O19 O 0.16245 0.51 0.55357 0.0
O20 O 0.1326 0.53474 0.56715 0.0
O21 O 0.16736 0.49207 0.592 0.0
O22 O 0.09446 0.50034 0.59446 0.0
C23 C 0.08736 0.47637 0.59974 0.0
O24 O 0.09912 0.45243 0.59496 0.0
O25 O 0.11779 0.45806 0.56771 0.0
Mg26 Mg 0.64326 0.60842 0.83221 0.0
C27 C 0.6619 0.64746 0.85461 0.0
O28 O 0.67395 0.62295 0.85838 0.0
C29 C 0.70543 0.5937 0.82377 0.0
O30 O 0.71114 0.60369 0.83585 0.0
C31 C 0.60068 0.63786 0.8142 0.0
O32 O 0.62203 0.6569 0.81455 0.0
O33 O 0.60366 0.6143 0.8206 0.0
O34 O 0.65013 0.64869 0.84307 0.0
O35 O 0.63699 0.57702 0.84801 0.0
C36 C 0.65118 0.55334 0.84863 0.0
O37 O 0.66789 0.54555 0.83851 0.0
O38 O 0.6792 0.5944 0.81948 0.0
Mg39 Mg 0.51696 0.13857 0.08386 0.0
C40 C 0.573 0.14646 0.10067 0.0
O41 O 0.58292 0.15942 0.08993 0.0
C42 C 0.50461 0.09569 0.0614 0.0
O43 O 0.49767 0.11952 0.05499 0.0
C44 C 0.5529 0.1672 0.06291 0.0
O45 O 0.5629 0.14049 0.0624 0.0
O46 O 0.53181 0.17307 0.07082 0.0
O47 O 0.54763 0.13513 0.10043 0.0
O48 O 0.47603 0.14632 0.09436 0.0
C49 C 0.45421 0.12953 0.09282 0.0
O50 O 0.45431 0.11099 0.08277 0.0
O51 O 0.51393 0.09744 0.07338 0.0
Mg52 Mg 0.15317 0.51242 0.91865 0.0
C53 C 0.15819 0.56766 0.90232 0.0
O54 O 0.17784 0.57411 0.91149 0.0
C55 C 0.09028 0.50964 0.92799 0.0
O56 O 0.08599 0.52232 0.91641 0.0
C57 C 0.1865 0.54391 0.93988 0.0
O58 O 0.15933 0.55016 0.94319 0.0
O59 O 0.19105 0.52691 0.93001 0.0
O60 O 0.14318 0.54467 0.90357 0.0
O61 O 0.1606 0.47428 0.9063 0.0
C62 C 0.14508 0.45169 0.90775 0.0
O63 O 0.12843 0.44957 0.91843 0.0
O64 O 0.11629 0.50389 0.93169 0.0
Mg65 Mg 0.63607 0.63269 0.17029 0.0
C66 C 0.58014 0.63757 0.15387 0.0
O67 O 0.57306 0.65589 0.16347 0.0
C68 C 0.6224 0.58096 0.18831 0.0
O69 O 0.59539 0.58527 0.18417 0.0
C70 C 0.60675 0.67192 0.19032 0.0
O71 O 0.59988 0.64655 0.19527 0.0
O72 O 0.62333 0.67293 0.1801 0.0
O73 O 0.60371 0.62302 0.15492 0.0
O74 O 0.67611 0.6356 0.15879 0.0
C75 C 0.67478 0.64704 0.14726 0.0
O76 O 0.65075 0.66091 0.14384 0.0
O77 O 0.64264 0.59756 0.18426 0.0
Mg78 Mg 0.50012 0.12059 0.41632 0.0
C79 C 0.50782 0.18126 0.40562 0.0
O80 O 0.52597 0.18327 0.41581 0.0
C81 C 0.44316 0.09318 0.42222 0.0
O82 O 0.44467 0.09084 0.4091 0.0
C83 C 0.53983 0.13692 0.43963 0.0
O84 O 0.51466 0.14319 0.44536 0.0
O85 O 0.53997 0.12656 0.4278 0.0
O86 O 0.4917 0.15894 0.40454 0.0
O87 O 0.5063 0.08726 0.40118 0.0
C88 C 0.5181 0.09414 0.39012 0.0
O89 O 0.52924 0.1202 0.38887 0.0
O90 O 0.46346 0.10655 0.42841 0.0
Mg91 Mg 0.01023 0.9865 0.67024 0.0
C92 C 0.0689 0.98165 0.65546 0.0
O93 O 0.07726 0.96789 0.6663 0.0
C94 C 0.01211 0.04925 0.67871 0.0
O95 O 0.02376 0.0515 0.66673 0.0
C96 C 0.0391 0.95268 0.69187 0.0
O97 O 0.04542 0.97935 0.69553 0.0
O98 O 0.02281 0.94869 0.68167 0.0
O99 O 0.04343 -0.00719 0.65503 0.0
O100 O 0.97112 0.98164 0.65807 0.0
C101 C 0.95088 0.00056 0.65879 0.0
O102 O 0.9511 0.01912 0.66883 0.0
O103 O 0.00514 0.02436 0.68299 0.0
C104 C 0.5236 0.72449 0.0206 0.0
O105 O 0.54705 0.73388 0.01536 0.0
Cd106 Cd 0.54954 0.75834 -0.0057 0.0
O107 O 0.49922 0.72678 0.01442 0.0
Cd108 Cd 0.48086 0.74516 -0.00748 0.0
C109 C 0.50049 0.8134 0.00108 0.0
O110 O 0.52225 0.73009 0.9787 0.0
O111 O 0.49178 0.75945 0.96934 0.0
O112 O 0.45152 0.70133 -0.00872 0.0
C113 C 0.51434 0.74352 0.96827 0.0
O114 O 0.52651 0.8053 -0.0017 0.0
C115 C 0.42747 0.71384 0.98855 0.0
O116 O 0.4793 0.79544 0.00081 0.0
O117 O 0.42792 0.74134 0.98796 0.0
C118 C 0.40651 0.01405 0.21713 0.0
O119 O 0.43016 0.02041 0.22318 0.0
Cd120 Cd 0.44799 -0.00404 0.2426 0.0
O121 O 0.38943 -0.00526 0.22177 0.0
Cd122 Cd 0.38599 0.96369 0.24214 0.0
C123 C 0.44446 0.92443 0.23186 0.0
O124 O 0.40898 -0.00349 0.25833 0.0
O125 O 0.40257 0.95261 0.26493 0.0
O126 O 0.33621 0.98159 0.2439 0.0
C127 C 0.41071 0.97819 0.2677 0.0
O128 O 0.45932 0.94658 0.23537 0.0
C129 C 0.32416 0.95718 0.24565 0.0
O130 O 0.41653 0.92473 0.23252 0.0
O131 O 0.34082 0.93506 0.24525 0.0
C132 C 0.12633 0.90076 0.47616 0.0
O133 O 0.12054 0.92342 0.48296 0.0
Cd134 Cd 0.14763 0.93759 0.50257 0.0
O135 O 0.14581 0.88296 0.48017 0.0
Cd136 Cd 0.17871 0.87577 0.4998 0.0
C137 C 0.218 0.93347 0.48976 0.0
O138 O 0.14834 0.89746 0.51738 0.0
O139 O 0.1935 0.88919 0.5226 0.0
O140 O 0.15929 0.82704 0.50024 0.0
C141 C 0.16825 0.89753 0.52627 0.0
O142 O 0.19679 0.94843 0.49443 0.0
C143 C 0.1838 0.81414 0.50113 0.0
O144 O 0.21694 0.90585 0.48963 0.0
O145 O 0.2066 0.82994 0.50094 0.0
C146 C 0.23537 0.62411 0.76789 0.0
O147 O 0.24561 0.60127 0.76246 0.0
Cd148 Cd 0.27184 0.60093 0.74164 0.0
O149 O 0.23723 0.64836 0.76193 0.0
Cd150 Cd 0.25536 0.66751 0.74025 0.0
C151 C 0.32464 0.65162 0.74949 0.0
O152 O 0.24341 0.62655 0.72553 0.0
O153 O 0.27261 0.65857 0.71736 0.0
O154 O 0.20923 0.69362 0.73882 0.0
C155 C 0.25761 0.6358 0.71552 0.0
O156 O 0.31787 0.62558 0.74655 0.0
C157 C 0.22033 0.71828 0.73655 0.0
O158 O 0.30551 0.67177 0.74899 0.0
O159 O 0.24815 0.71966 0.73626 0.0
C160 C 0.90837 0.12705 0.48401 0.0
O161 O 0.89768 0.10448 0.4893 0.0
Cd162 Cd 0.8738 0.10359 0.51066 0.0
O163 O 0.90718 0.15138 0.49013 0.0
Cd164 Cd 0.88884 0.17151 0.51176 0.0
C165 C 0.81914 0.15307 0.50395 0.0
O166 O 0.90419 0.13069 0.52547 0.0
O167 O 0.87666 0.16222 0.53536 0.0
O168 O 0.93329 0.20027 0.51023 0.0
C169 C 0.89187 0.13928 0.53616 0.0
O170 O 0.82682 0.1274 0.50701 0.0
C171 C 0.92195 0.22377 0.51441 0.0
O172 O 0.8378 0.17359 0.50373 0.0
O173 O 0.89475 0.22333 0.51713 0.0
C174 C 0.02528 0.40761 0.73252 0.0
O175 O 0.04876 0.39736 0.73745 0.0
Cd176 Cd 0.05053 0.36964 0.75763 0.0
O177 O 0.00101 0.40472 0.73867 0.0
Cd178 Cd 0.98278 0.38399 0.76007 0.0
C179 C 0.00032 0.3168 0.74914 0.0
O180 O 0.02447 0.39559 0.77458 0.0
O181 O -0.00697 0.36542 0.78254 0.0
O182 O 0.95577 0.42891 0.76296 0.0
C183 C 0.01578 0.38065 0.78442 0.0
O184 O 0.02658 0.3242 0.75179 0.0
C185 C 0.93105 0.4174 0.7652 0.0
O186 O 0.97931 0.33487 0.75045 0.0
O187 O 0.92996 0.38988 0.76471 0.0
C188 C 0.73646 0.49642 0.98214 0.0
O189 O 0.74489 0.51997 0.98754 0.0
Cd190 Cd 0.77089 0.52275 0.0083 0.0
O191 O 0.74004 0.47239 0.98816 0.0
Cd192 Cd 0.75923 0.45466 0.01009 0.0
C193 C 0.82711 0.47511 0.00061 0.0
O194 O 0.74407 0.49534 0.02409 0.0
O195 O 0.77535 0.46627 0.03312 0.0
O196 O 0.71453 0.42668 0.01189 0.0
C197 C 0.75863 0.48812 0.03438 0.0
O198 O 0.81814 0.50069 0.00323 0.0
C199 C 0.72674 0.40251 0.01421 0.0
O200 O 0.80982 0.45353 0.0015 0.0
O201 O 0.75463 0.40215 0.01428 0.0
C202 C 0.63095 0.22686 0.28083 0.0
O203 O 0.62636 0.20382 0.27413 0.0
Cd204 Cd 0.65276 0.19113 0.25414 0.0
O205 O 0.64924 0.24558 0.2767 0.0
Cd206 Cd 0.68089 0.25387 0.25686 0.0
C207 C 0.72435 0.19793 0.26526 0.0
O208 O 0.65011 0.23146 0.23958 0.0
O209 O 0.69461 0.24113 0.23388 0.0
O210 O 0.65776 0.3009 0.25702 0.0
C211 C 0.6694 0.23225 0.23046 0.0
O212 O 0.70352 0.18245 0.26065 0.0
C213 C 0.6808 0.31563 0.2552 0.0
O214 O 0.72173 0.2254 0.26627 0.0
O215 O 0.70489 0.3017 0.25475 0.0
H216 H 0.10161 0.01311 0.31309 0.0
H217 H 0.14569 0.00307 0.29995 0.0
H218 H 0.09893 0.93834 0.27709 0.0
H219 H 0.05455 0.9485 0.29006 0.0
H220 H 0.17563 0.95046 0.29758 0.0
H221 H 0.13611 0.98873 0.24801 0.0
H222 H 0.11754 -0.00238 0.26347 0.0
H223 H 0.11342 0.96229 0.25606 0.0
C224 C 0.1006 -0.00312 0.30521 0.0
C225 C 0.07452 0.98168 0.30259 0.0
C226 C 0.12583 -0.00887 0.29772 0.0
C227 C 0.1255 0.97017 0.28746 0.0
C228 C 0.09953 0.95495 0.28481 0.0
H229 H 0.29319 0.90933 0.25357 0.0
H230 H 0.24305 0.90846 0.26243 0.0
C231 C 0.07422 0.96072 0.29227 0.0
C232 C 0.15266 0.9639 0.27983 0.0
H233 H 0.18364 0.96851 0.24878 0.0
C234 C 0.17737 0.95418 0.28689 0.0
C235 C 0.15479 0.96888 0.26589 0.0
C236 C 0.12917 0.98017 0.25788 0.0
C237 C 0.2044 0.94997 0.28047 0.0
C238 C 0.20663 0.95515 0.26655 0.0
C239 C 0.18175 0.96426 0.25942 0.0
C240 C 0.23529 0.95428 0.25957 0.0
C241 C 0.23065 0.94126 0.28876 0.0
C242 C 0.24695 0.97999 0.25446 0.0
C243 C 0.27538 0.98052 0.24934 0.0
C244 C 0.29273 0.95529 0.24919 0.0
C245 C 0.28042 0.92914 0.25361 0.0
C246 C 0.25187 0.92864 0.25875 0.0
H247 H 0.22643 0.9435 0.29969 0.0
H248 H 0.23616 0.91827 0.28662 0.0
H249 H 0.25001 0.95463 0.28619 0.0
H250 H 0.23448 -2e-05 0.25495 0.0
H251 H 0.28411 0.00098 0.24594 0.0
H252 H 0.18464 0.54108 0.53506 0.0
H253 H 0.19651 0.5862 0.52354 0.0
H254 H 0.13867 0.63327 0.55006 0.0
H255 H 0.1269 0.58844 0.56172 0.0
H256 H 0.16004 0.62558 0.51028 0.0
H257 H 0.21628 0.67748 0.55342 0.0
H258 H 0.20824 0.63921 0.55281 0.0
H259 H 0.18021 0.66485 0.55745 0.0
C260 C 0.1744 0.56103 0.53843 0.0
C261 C 0.15495 0.56119 0.54937 0.0
C262 C 0.18123 0.58677 0.53184 0.0
C263 C 0.1689 0.61312 0.53611 0.0
C264 C 0.14893 0.61324 0.54679 0.0
H265 H 0.13859 0.77582 0.50028 0.0
H266 H 0.13915 0.72518 0.50697 0.0
C267 C 0.14207 0.58755 0.55339 0.0
C268 C 0.17654 0.64054 0.52935 0.0
H269 H 0.20229 0.70871 0.53544 0.0
C270 C 0.16962 0.64366 0.51572 0.0
C271 C 0.18964 0.66387 0.53638 0.0
C272 C 0.19932 0.66116 0.55079 0.0
C273 C 0.17396 0.67009 0.50914 0.0
C274 C 0.1851 0.69405 0.51645 0.0
C275 C 0.19351 0.69041 0.52987 0.0
C276 C 0.18584 0.72366 0.5108 0.0
C277 C 0.16627 0.6722 0.49447 0.0
C278 C 0.21192 0.73976 0.51074 0.0
C279 C 0.21166 0.76893 0.50697 0.0
C280 C 0.18521 0.7825 0.50335 0.0
C281 C 0.15935 0.76602 0.50299 0.0
C282 C 0.15965 0.73695 0.50672 0.0
H283 H 0.16766 0.65069 0.48943 0.0
H284 H 0.14339 0.68011 0.49347 0.0
H285 H 0.18096 0.68752 0.48922 0.0
H286 H 0.23233 0.72996 0.51395 0.0
H287 H 0.23191 0.78109 0.50739 0.0
H288 H 0.58833 0.68511 0.79878 0.0
H289 H 0.54233 0.69625 0.78721 0.0
H290 H 0.50501 0.61657 0.80154 0.0
H291 H 0.55075 0.60527 0.81318 0.0
H292 H 0.5133 0.66292 0.76727 0.0
H293 H 0.44419 0.67896 0.81236 0.0
H294 H 0.48377 0.67944 0.81299 0.0
H295 H 0.46444 0.64554 0.81249 0.0
C296 C 0.57032 0.66997 0.7995 0.0
C297 C 0.57316 0.64433 0.80694 0.0
C298 C 0.54408 0.6764 0.79289 0.0
C299 C 0.52018 0.65748 0.79372 0.0
C300 C 0.52304 0.63174 0.801 0.0
H301 H 0.37252 0.6166 0.74729 0.0
H302 H 0.42094 0.62402 0.757 0.0
C303 C 0.54927 0.62522 0.80757 0.0
C304 C 0.49246 0.66396 0.78663 0.0
H305 H 0.4188 0.67092 0.79159 0.0
C306 C 0.49268 0.66513 0.77258 0.0
C307 C 0.46569 0.66741 0.79359 0.0
C308 C 0.46444 0.66808 0.8087 0.0
C309 C 0.46651 0.66781 0.76528 0.0
C310 C 0.43954 0.66905 0.77222 0.0
C311 C 0.43951 0.66973 0.78628 0.0
C312 C 0.41109 0.66649 0.76518 0.0
C313 C 0.46789 0.66866 0.75018 0.0
C314 C 0.38938 0.6879 0.7666 0.0
C315 C 0.36149 0.68371 0.76104 0.0
C316 C 0.3548 0.65781 0.75418 0.0
C317 C 0.37688 0.63677 0.75254 0.0
C318 C 0.4047 0.64107 0.75799 0.0
H319 H 0.48946 0.67675 0.74668 0.0
H320 H 0.46495 0.6464 0.74612 0.0
H321 H 0.45031 0.68264 0.74602 0.0
H322 H 0.39386 0.70756 0.77222 0.0
H323 H 0.34492 0.70028 0.76252 0.0
H324 H 0.49443 0.08379 0.03489 0.0
H325 H 0.48897 0.03614 0.02428 0.0
H326 H 0.49947 -0.00467 0.06276 0.0
H327 H 0.50585 0.04275 0.07335 0.0
H328 H 0.53312 0.97029 0.04459 0.0
H329 H 0.42103 0.98063 0.02377 0.0
H330 H 0.44495 0.00896 0.0183 0.0
H331 H 0.43582 0.00613 0.03579 0.0
C332 C 0.49541 0.06466 0.04109 0.0
C333 C 0.50066 0.06702 0.05495 0.0
C334 C 0.492 0.03745 0.03504 0.0
C335 C 0.49326 0.01217 0.04276 0.0
C336 C 0.49826 0.01454 0.05661 0.0
H337 H 0.45493 0.83546 0.01596 0.0
H338 H 0.45139 0.88423 0.02581 0.0
C339 C 0.50199 0.04167 0.06264 0.0
C340 C 0.49144 0.98313 0.03634 0.0
H341 H 0.44957 0.94044 0.01579 0.0
C342 C 0.51473 0.96373 0.03838 0.0
C343 C 0.46725 0.97439 0.02839 0.0
C344 C 0.4407 -0.00649 0.02653 0.0
C345 C 0.51483 0.93611 0.03247 0.0
C346 C 0.4914 0.92793 0.02395 0.0
C347 C 0.46771 0.94697 0.02216 0.0
C348 C 0.49148 0.89968 0.01679 0.0
C349 C 0.53991 0.91583 0.03558 0.0
C350 C 0.5145 0.89267 0.00805 0.0
C351 C 0.51675 0.86489 0.00256 0.0
C352 C 0.4957 0.84369 0.00551 0.0
C353 C 0.47152 0.85132 0.01353 0.0
C354 C 0.46948 0.87913 0.01917 0.0
H355 H 0.55107 0.92191 0.0451 0.0
H356 H 0.53225 0.89309 0.03637 0.0
H357 H 0.55636 0.91692 0.02742 0.0
H358 H 0.53126 0.90847 0.00579 0.0
H359 H 0.53538 0.85983 -0.00376 0.0
H360 H 0.18382 0.58172 0.96105 0.0
H361 H 0.22371 0.61059 0.97056 0.0
H362 H 0.28472 0.56981 0.94333 0.0
H363 H 0.24491 0.54098 0.93364 0.0
H364 H 0.27737 0.59421 0.98262 0.0
H365 H 0.29411 0.65723 0.93607 0.0
H366 H 0.26198 0.63534 0.93882 0.0
H367 H 0.29589 0.61861 0.93382 0.0
C368 C 0.20575 0.57871 0.95713 0.0
C369 C 0.21114 0.5592 0.94651 0.0
C370 C 0.22851 0.59524 0.96259 0.0
C371 C 0.25703 0.59269 0.95749 0.0
C372 C 0.26273 0.57247 0.94723 0.0
H373 H 0.42084 0.6552 -0.01039 0.0
H374 H 0.37808 0.62676 0.983 0.0
C375 C 0.23999 0.55589 0.94177 0.0
C376 C 0.28066 0.61163 0.96272 0.0
H377 H 0.32895 0.66416 0.95347 0.0
C378 C 0.28862 0.60958 0.97627 0.0
C379 C 0.29488 0.63201 0.95447 0.0
C380 C 0.28616 0.63622 0.94001 0.0
C381 C 0.31102 0.62688 0.98172 0.0
C382 C 0.32602 0.64646 0.97333 0.0
C383 C 0.31754 0.649 0.95986 0.0
C384 C 0.35117 0.66392 0.97818 0.0
C385 C 0.31827 0.62423 -0.00359 0.0
C386 C 0.35035 0.69429 0.97753 0.0
C387 C 0.37486 0.71067 0.98126 0.0
C388 C 0.40069 0.6969 0.98558 0.0
C389 C 0.40125 0.66649 0.98638 0.0
C390 C 0.37676 0.65017 0.98268 0.0
H391 H 0.29982 0.61469 0.00212 0.0
H392 H 0.33759 0.60982 -0.00241 0.0
H393 H 0.32372 0.64567 0.00087 0.0
H394 H 0.33084 0.7053 0.97401 0.0
H395 H 0.37377 0.73404 0.98049 0.0
H396 H 0.60999 0.7269 0.18028 0.0
H397 H 0.58254 0.7697 0.18775 0.0
H398 H 0.54266 0.71972 0.21914 0.0
H399 H 0.57014 0.67692 0.21185 0.0
H400 H 0.52065 0.77477 0.18911 0.0
H401 H 0.57302 0.7925 0.23879 0.0
H402 H 0.58935 0.77006 0.2259 0.0
H403 H 0.55979 0.75636 0.23588 0.0
C404 C 0.5957 0.7251 0.18889 0.0
C405 C 0.59232 0.6985 0.1955 0.0
C406 C 0.57994 0.74954 0.1931 0.0
C407 C 0.56075 0.74791 0.20404 0.0
C408 C 0.55769 0.72155 0.21079 0.0
H409 H 0.42158 0.87141 0.22464 0.0
H410 H 0.44874 0.82793 0.21766 0.0
C411 C 0.57336 0.69708 0.20658 0.0
C412 C 0.54312 0.77349 0.20809 0.0
H413 H 0.53087 0.8207 0.23398 0.0
C414 C 0.52287 0.78488 0.19891 0.0
C415 C 0.54623 0.78665 0.22085 0.0
C416 C 0.56843 0.77599 0.23091 0.0
C417 C 0.5055 0.80908 0.20218 0.0
C418 C 0.50827 0.82194 0.21503 0.0
C419 C 0.52861 0.81061 0.22418 0.0
C420 C 0.49142 0.84814 0.21897 0.0
C421 C 0.48484 0.82108 0.19177 0.0
C422 C 0.50642 0.87371 0.22217 0.0
C423 C 0.49107 0.89844 0.22621 0.0
C424 C 0.46029 0.89813 0.22718 0.0
C425 C 0.44524 0.87245 0.22393 0.0
C426 C 0.4607 0.84762 0.21989 0.0
H427 H 0.48997 0.81274 0.18156 0.0
H428 H 0.46209 0.81462 0.19425 0.0
H429 H 0.48573 0.84512 0.19165 0.0
H430 H 0.53012 0.87455 0.22155 0.0
H431 H 0.50345 0.91778 0.22862 0.0
H432 H 0.43412 0.09177 0.44939 0.0
H433 H 0.39691 0.06407 0.46144 0.0
H434 H 0.36266 0.03205 0.42385 0.0
H435 H 0.39927 0.05997 0.41175 0.0
H436 H 0.31951 0.04991 0.44084 0.0
H437 H 0.39694 0.97659 0.46703 0.0
H438 H 0.40393 0.01441 0.46986 0.0
H439 H 0.40798 -0.00068 0.4533 0.0
C440 C 0.41858 0.07892 0.4437 0.0
C441 C 0.41974 0.078 0.42961 0.0
C442 C 0.39751 0.06291 0.4506 0.0
C443 C 0.37741 0.04554 0.44354 0.0
C444 C 0.3781 0.04514 0.42949 0.0
H445 H 0.26299 0.91076 0.47464 0.0
H446 H 0.30238 0.93752 0.46354 0.0
C447 C 0.39904 0.06117 0.42259 0.0
C448 C 0.35522 0.02815 0.45072 0.0
H449 H 0.34688 0.97391 0.47351 0.0
C450 C 0.3255 0.03326 0.44797 0.0
C451 C 0.36311 0.0061 0.45984 0.0
C452 C 0.39472 -0.00149 0.46261 0.0
C453 C 0.30341 0.01726 0.45424 0.0
C454 C 0.31124 -0.00402 0.46374 0.0
C455 C 0.34096 -0.00954 0.46632 0.0
C456 C 0.28874 0.97947 0.47114 0.0
C457 C 0.27187 0.023 0.45047 0.0
C458 C 0.26862 -0.00591 0.47937 0.0
C459 C 0.2461 0.97897 0.48563 0.0
C460 C 0.2434 0.94881 0.48392 0.0
C461 C 0.26439 0.93398 0.47613 0.0
C462 C 0.28689 0.94922 0.46979 0.0
H463 H 0.27009 0.03384 0.44059 0.0
H464 H 0.25909 0.00258 0.45008 0.0
H465 H 0.2618 0.0375 0.45811 0.0
H466 H 0.27008 0.01733 0.4808 0.0
H467 H 0.23058 -0.00894 0.4917 0.0
H468 H 0.03674 0.89531 0.68474 0.0
H469 H 0.06582 0.85553 0.69398 0.0
H470 H 0.1052 0.91443 0.72247 0.0
H471 H 0.07607 0.95424 0.71342 0.0
H472 H 0.12721 0.85375 0.69436 0.0
H473 H 0.08159 0.84527 0.74573 0.0
H474 H 0.06272 0.86391 0.73239 0.0
H475 H 0.09254 0.88118 0.74109 0.0
C476 C 0.05121 0.89972 0.69312 0.0
C477 C 0.05408 0.92796 0.69834 0.0
C478 C 0.06787 0.87699 0.69836 0.0
C479 C 0.08748 0.88201 0.70897 0.0
C480 C 0.08984 0.90999 0.71443 0.0
H481 H 0.23732 0.773 0.72948 0.0
H482 H 0.20556 0.81372 0.72331 0.0
C483 C 0.07324 0.93275 0.70919 0.0
C484 C 0.10689 0.85843 0.71371 0.0
H485 H 0.12522 0.81868 0.74123 0.0
C486 C 0.12674 0.84601 0.70459 0.0
C487 C 0.10609 0.84833 0.72705 0.0
C488 C 0.08443 0.86014 0.73713 0.0
C489 C 0.14602 0.82387 0.70847 0.0
C490 C 0.14569 0.81421 0.72189 0.0
C491 C 0.12564 0.82641 0.73099 0.0
C492 C 0.16506 0.79045 0.72647 0.0
C493 C 0.16617 0.81061 0.69812 0.0
C494 C 0.15278 0.76427 0.73071 0.0
C495 C 0.17081 0.74108 0.73428 0.0
C496 C 0.2015 0.74368 0.73375 0.0
C497 C 0.21377 0.77028 0.72993 0.0
C498 C 0.19568 0.7935 0.72634 0.0
H499 H 0.15918 0.8159 0.68775 0.0
H500 H 0.18866 0.81913 0.69963 0.0
H501 H 0.16703 0.78668 0.69914 0.0
H502 H 0.12921 0.76154 0.73093 0.0
H503 H 0.16065 0.72093 0.73723 0.0
H504 H 0.76335 0.58738 0.83019 0.0
H505 H 0.80017 0.55837 0.81837 0.0
H506 H 0.73625 0.53549 0.78824 0.0
H507 H 0.6994 0.56483 0.79985 0.0
H508 H 0.79728 0.49968 0.81359 0.0
H509 H 0.80648 0.55936 0.76569 0.0
H510 H 0.78927 0.57479 0.78039 0.0
H511 H 0.76973 0.54929 0.77004 0.0
C512 C 0.75721 0.57655 0.82094 0.0
C513 C 0.72843 0.57847 0.81596 0.0
C514 C 0.77827 0.55991 0.81422 0.0
C515 C 0.77102 0.54497 0.80237 0.0
C516 C 0.74248 0.54727 0.79723 0.0
H517 H 0.87565 0.39932 0.77172 0.0
H518 H 0.83487 0.42937 0.77984 0.0
C519 C 0.72141 0.56398 0.80392 0.0
C520 C 0.7929 0.52567 0.79587 0.0
H521 H 0.83086 0.51396 0.76685 0.0
C522 C 0.80464 0.50278 0.80337 0.0
C523 C 0.80253 0.52988 0.78256 0.0
C524 C 0.79158 0.5548 0.77422 0.0
C525 C 0.82586 0.48404 0.79796 0.0
C526 C 0.83518 0.48795 0.78457 0.0
C527 C 0.8234 0.51081 0.77706 0.0
C528 C 0.85862 0.46979 0.77855 0.0
C529 C 0.83877 0.46078 0.80675 0.0
C530 C 0.88501 0.48268 0.77463 0.0
C531 C 0.90817 0.46566 0.7699 0.0
C532 C 0.9054 0.43537 0.76897 0.0
C533 C 0.87852 0.42257 0.7724 0.0
C534 C 0.85528 0.43968 0.77711 0.0
H535 H 0.83421 0.46489 0.81754 0.0
H536 H 0.829 0.43957 0.80399 0.0
H537 H 0.86286 0.4592 0.80535 0.0
H538 H 0.888 0.50588 0.7756 0.0
H539 H 0.92853 0.47623 0.76729 0.0
H540 H 0.60447 0.16288 0.04921 0.0
H541 H 0.63355 0.20213 0.03985 0.0
H542 H 0.56646 0.2636 0.05112 0.0
H543 H 0.53754 0.22449 0.0609 0.0
H544 H 0.62421 0.24122 0.02028 0.0
H545 H 0.63778 0.298 0.06908 0.0
H546 H 0.62282 0.26196 0.06777 0.0
H547 H 0.60012 0.29304 0.06444 0.0
C548 C 0.59576 0.18472 0.04964 0.0
C549 C 0.5688 0.1906 0.05594 0.0
C550 C 0.61246 0.20714 0.04428 0.0
C551 C 0.60252 0.23589 0.04505 0.0
C552 C 0.57495 0.24168 0.05075 0.0
H553 H 0.66741 0.39946 0.01679 0.0
H554 H 0.63811 0.35785 0.02356 0.0
C555 C 0.55833 0.21927 0.05624 0.0
C556 C 0.62132 0.25976 0.04013 0.0
H557 H 0.65448 0.32288 0.04977 0.0
C558 C 0.63094 0.25899 0.02675 0.0
C559 C 0.63039 0.28279 0.04862 0.0
C560 C 0.62251 0.28393 0.06331 0.0
C561 C 0.6488 0.28099 0.02158 0.0
C562 C 0.65716 0.30426 0.02999 0.0
C563 C 0.64782 0.30497 0.04336 0.0
C564 C 0.675 0.3286 0.02503 0.0
C565 C 0.65833 0.27962 0.00713 0.0
C566 C 0.70546 0.32576 0.02356 0.0
C567 C 0.7224 0.3496 0.01977 0.0
C568 C 0.70904 0.37657 0.01735 0.0
C569 C 0.67841 0.37902 0.01856 0.0
C570 C 0.66159 0.35529 0.02243 0.0
H571 H 0.64823 0.26116 0.00162 0.0
H572 H 0.65239 0.3001 0.00201 0.0
H573 H 0.68253 0.27733 0.00665 0.0
H574 H 0.71615 0.30529 0.02562 0.0
H575 H 0.74593 0.34703 0.01893 0.0
H576 H 0.96727 0.06173 0.2874 0.0
H577 H 0.92515 0.08972 0.27945 0.0
H578 H 0.87878 0.07073 0.31599 0.0
H579 H 0.92019 0.04166 0.32369 0.0
H580 H 0.84296 0.06727 0.29596 0.0
H581 H 0.9043 0.16987 0.29109 0.0
H582 H 0.91969 0.14164 0.28085 0.0
H583 H 0.91995 0.13823 0.29883 0.0
C584 C 0.94796 0.06331 0.29366 0.0
C585 C 0.94707 0.04957 0.30618 0.0
C586 C 0.92404 0.07961 0.28919 0.0
C587 C 0.8991 0.08311 0.29729 0.0
C588 C 0.89784 0.06858 0.3096 0.0
H589 H 0.7645 0.21586 0.28411 0.0
H590 H 0.80701 0.18848 0.29239 0.0
C591 C 0.92151 0.05186 0.31397 0.0
C592 C 0.87414 0.10156 0.29294 0.0
H593 H 0.85631 0.16894 0.28146 0.0
C594 C 0.8459 0.08955 0.29288 0.0
C595 C 0.87778 0.1309 0.2892 0.0
C596 C 0.90702 0.14601 0.29013 0.0
C597 C 0.82137 0.10577 0.28892 0.0
C598 C 0.82528 0.13449 0.28436 0.0
C599 C 0.85337 0.14678 0.28474 0.0
C600 C 0.80051 0.15187 0.279 0.0
C601 C 0.79147 0.09201 0.28995 0.0
C602 C 0.78335 0.14087 0.26846 0.0
C603 C 0.75893 0.15616 0.26392 0.0
C604 C 0.75156 0.1832 0.26956 0.0
C605 C 0.76964 0.19504 0.27961 0.0
C606 C 0.79387 0.1794 0.28434 0.0
H607 H 0.79119 0.07471 0.29763 0.0
H608 H 0.77438 0.10827 0.29254 0.0
H609 H 0.78571 0.08186 0.28018 0.0
H610 H 0.78864 0.12022 0.26383 0.0
H611 H 0.74573 0.14672 0.25599 0.0
H612 H 0.08197 0.45482 0.53136 0.0
H613 H 0.05323 0.41452 0.52222 0.0
H614 H 0.0626 0.36897 0.5596 0.0
H615 H 0.09242 0.40849 0.56854 0.0
H616 H 0.06692 0.33247 0.53957 0.0
H617 H 0.96911 0.40144 0.53111 0.0
H618 H 0.00052 0.41335 0.52191 0.0
H619 H 0.00102 0.41437 0.53996 0.0
C620 C 0.07817 0.43604 0.53756 0.0
C621 C 0.08928 0.43489 0.55069 0.0
C622 C 0.06149 0.41316 0.53238 0.0
C623 C 0.05497 0.38908 0.54036 0.0
C624 C 0.06712 0.3874 0.55327 0.0
H625 H 0.91001 0.27016 0.53067 0.0
H626 H 0.94276 0.31037 0.53634 0.0
C627 C 0.08423 0.41 0.55837 0.0
C628 C 0.03515 0.3658 0.53543 0.0
H629 H 0.96647 0.35308 0.52306 0.0
C630 C 0.04495 0.33698 0.53597 0.0
C631 C 0.00626 0.37163 0.53095 0.0
C632 C -0.00654 0.40183 0.53107 0.0
C633 C 0.02672 0.31384 0.53221 0.0
C634 C -0.00179 0.31974 0.52726 0.0
C635 C 0.98843 0.34857 0.52669 0.0
C636 C 0.97776 0.29627 0.52315 0.0
C637 C 0.03791 0.28333 0.53409 0.0
C638 C 0.98611 0.27543 0.51356 0.0
C639 C 0.96766 0.25218 0.5105 0.0
C640 C 0.94015 0.24977 0.5167 0.0
C641 C 0.93109 0.27148 0.52573 0.0
C642 C 0.94981 0.29444 0.52898 0.0
H643 H 0.05591 0.2825 0.5416 0.0
H644 H 0.02014 0.26864 0.5374 0.0
H645 H 0.04675 0.27505 0.52444 0.0
H646 H 0.0071 0.27689 0.50856 0.0
H647 H 0.97505 0.23594 0.50337 0.0
H648 H 0.5481 0.15161 0.46602 0.0
H649 H 0.59474 0.15978 0.47759 0.0
H650 H 0.64127 0.14426 0.44061 0.0
H651 H 0.59493 0.1353 0.42908 0.0
H652 H 0.66405 0.11383 0.46056 0.0
H653 H 0.65037 0.22784 0.47726 0.0
H654 H 0.62114 0.20472 0.48263 0.0
H655 H 0.62651 0.21105 0.46504 0.0
C656 C 0.56826 0.15012 0.46034 0.0
C657 C 0.56783 0.14268 0.44665 0.0
C658 C 0.59489 0.15507 0.46694 0.0
C659 C 0.62148 0.15312 0.45992 0.0
C660 C 0.62101 0.14602 0.44622 0.0
H661 H 0.79796 0.19567 0.48749 0.0
H662 H 0.74894 0.19791 0.47733 0.0
C663 C 0.59449 0.14081 0.43965 0.0
C664 C 0.64995 0.15627 0.46698 0.0
H665 H 0.69061 0.20173 0.48677 0.0
C666 C 0.66988 0.13313 0.46622 0.0
C667 C 0.65771 0.18162 0.47423 0.0
C668 C 0.63794 0.20785 0.47475 0.0
C669 C 0.69713 0.13438 0.47267 0.0
C670 C 0.70438 0.15915 0.48043 0.0
C671 C 0.68478 0.18261 0.48098 0.0
C672 C 0.73233 0.16073 0.48797 0.0
C673 C 0.71809 0.10925 0.47093 0.0
C674 C 0.73869 0.13994 0.49773 0.0
C675 C 0.7666 0.13841 0.50339 0.0
C676 C 0.78856 0.15799 0.49958 0.0
C677 C 0.78149 0.18027 0.49059 0.0
C678 C 0.75354 0.18155 0.48478 0.0
H679 H 0.7128 0.09613 0.46187 0.0
H680 H 0.74108 0.11689 0.47013 0.0
H681 H 0.7165 0.09487 0.47976 0.0
H682 H 0.72238 0.12413 0.50058 0.0
H683 H 0.77126 0.12128 0.51046 0.0
H684 H 0.97865 0.05336 0.70137 0.0
H685 H 0.96706 0.09705 0.71437 0.0
H686 H 0.02 0.14781 0.68758 0.0
H687 H 0.03094 0.10445 0.67432 0.0
H688 H 0.00179 0.13203 0.72807 0.0
H689 H 0.94677 0.196 0.68882 0.0
H690 H 0.95446 0.15784 0.68679 0.0
H691 H 0.98232 0.18437 0.68334 0.0
C692 C 0.98772 0.07386 0.69821 0.0
C693 C 0.00565 0.07548 0.68679 0.0
C694 C 0.981 0.09881 0.70563 0.0
C695 C -0.0079 0.12583 0.70178 0.0
C696 C 0.01039 0.12739 0.6905 0.0
H697 H 0.04016 0.27323 0.74606 0.0
H698 H 0.03281 0.22579 0.73596 0.0
C699 C 0.01688 0.10252 0.68301 0.0
C700 C 0.98614 0.15214 0.70998 0.0
H701 H 0.96641 0.2233 0.7076 0.0
C702 C -0.00643 0.15184 0.72364 0.0
C703 C 0.97466 0.17783 0.70433 0.0
C704 C 0.96378 0.17895 0.69005 0.0
C705 C -0.00827 0.17703 0.73155 0.0
C706 C 0.98296 0.20335 0.72555 0.0
C707 C 0.97359 0.20322 0.71215 0.0
C708 C 0.98631 0.23159 0.73255 0.0
C709 C -0.00029 0.17526 0.7462 0.0
C710 C 0.96268 0.25101 0.73377 0.0
C711 C 0.96688 0.27854 0.73948 0.0
C712 C -0.00515 0.28713 0.74392 0.0
C713 C 0.01829 0.2674 0.7428 0.0
C714 C 0.01409 0.24006 0.73712 0.0
H715 H -0.00466 0.15329 0.75019 0.0
H716 H 0.0235 0.17956 0.74741 0.0
H717 H 0.98734 0.19139 0.75228 0.0
H718 H 0.94111 0.24498 0.73018 0.0
H719 H 0.94839 0.29323 0.74015 0.0
H720 H 0.09058 0.47321 0.94949 0.0
H721 H 0.04862 0.45758 0.96283 0.0
H722 H -0.00859 0.51102 0.93894 0.0
H723 H 0.03303 0.52599 0.92532 0.0
H724 H 0.01285 0.48746 0.97837 0.0
H725 H 0.947 0.43628 0.9383 0.0
H726 H 0.98484 0.44628 0.9359 0.0
H727 H 0.95607 0.47278 0.93398 0.0
C728 C 0.06903 0.48154 0.94704 0.0
C729 C 0.06509 0.50076 0.93631 0.0
C730 C 0.04506 0.47251 0.95466 0.0
C731 C 0.01674 0.48259 0.9517 0.0
C732 C 0.01288 0.5022 0.94114 0.0
H733 H 0.86998 0.51593 -0.00043 0.0
H734 H 0.91782 0.51199 0.98911 0.0
C735 C 0.03676 0.51098 0.93344 0.0
C736 C -0.00859 0.47399 0.96009 0.0
H737 H 0.92038 0.45131 0.95817 0.0
C738 C -0.0072 0.47907 0.97397 0.0
C739 C 0.96548 0.46225 0.95447 0.0
C740 C 0.96337 0.45377 0.93986 0.0
C741 C 0.96834 0.47466 0.9822 0.0
C742 C 0.94157 0.46568 0.97634 0.0
C743 C 0.94076 0.45863 0.96264 0.0
C744 C 0.91355 0.46661 0.98386 0.0
C745 C 0.97131 0.48019 -0.00293 0.0
C746 C 0.8949 0.44245 0.98427 0.0
C747 C 0.86712 0.44471 -0.00982 0.0
C748 C 0.85748 0.47126 -0.00436 0.0
C749 C 0.8766 0.49512 -0.00451 0.0
C750 C 0.90419 0.49285 -0.01039 0.0
H751 H -0.00591 0.47602 0.00051 0.0
H752 H 0.9662 0.50327 -0.00075 0.0
H753 H 0.95613 0.46642 0.00291 0.0
H754 H 0.9016 0.42205 0.97978 0.0
H755 H 0.8529 0.42595 -0.00992 0.0
H756 H 0.67679 0.56144 0.19547 0.0
H757 H 0.68881 0.51881 0.20879 0.0
H758 H 0.59673 0.50242 0.21471 0.0
H759 H 0.58446 0.54462 0.2011 0.0
H760 H 0.67678 0.50319 0.23467 0.0
H761 H 0.62509 0.42646 0.19878 0.0
H762 H 0.63152 0.46394 0.19477 0.0
H763 H 0.6003 0.45392 0.2047 0.0
C764 C 0.65905 0.54882 0.19963 0.0
C765 C 0.62963 0.55622 0.19709 0.0
C766 C 0.666 0.52449 0.20727 0.0
C767 C 0.64368 0.50714 0.21253 0.0
C768 C 0.6143 0.51512 0.21046 0.0
H769 H 0.63266 0.35014 0.25744 0.0
H770 H 0.62614 0.39877 0.2485 0.0
C771 C 0.60732 0.53931 0.20273 0.0
C772 C 0.65114 0.48028 0.21987 0.0
H773 H 0.64001 0.40719 0.21972 0.0
C774 C 0.66888 0.48217 0.23138 0.0
C775 C 0.64112 0.45283 0.21545 0.0
C776 C 0.62371 0.44904 0.20268 0.0
C777 C 0.6761 0.45737 0.23881 0.0
C778 C 0.66531 0.43016 0.23457 0.0
C779 C 0.648 0.42822 0.22298 0.0
C780 C 0.67109 0.40321 0.24205 0.0
C781 C 0.69463 0.46034 0.25126 0.0
C782 C 0.69882 0.38997 0.2417 0.0
C783 C 0.70267 0.362 0.2468 0.0
C784 C 0.67875 0.34693 0.25223 0.0
C785 C 0.6515 0.36108 0.25327 0.0
C786 C 0.6477 0.38889 0.24818 0.0
H787 H 0.69811 0.48336 0.25416 0.0
H788 H 0.68417 0.44887 0.25974 0.0
H789 H 0.71633 0.45011 0.24947 0.0
H790 H 0.71705 0.40062 0.23687 0.0
H791 H 0.72389 0.35164 0.24582 0.0
H792 H -0.00222 0.95947 0.37078 0.0
H793 H 0.01189 0.93814 0.39211 0.0
H794 H 0.07364 0.88233 0.37176 0.0
H795 H 0.06043 0.90441 0.35034 0.0
H796 H 0.01484 0.88515 0.40381 0.0
H797 H 0.12693 0.92904 0.39583 0.0
H798 H 0.09667 0.93782 0.38496 0.0
H799 H 0.11496 0.90339 0.38339 0.0
C800 C 0.01396 0.94226 0.37076 0.0
C801 C 0.02843 0.93406 0.35888 0.0
C802 C 0.02199 0.93005 0.383 0.0
C803 C 0.04444 0.90925 0.38358 0.0
C804 C 0.0569 0.89899 0.37159 0.0
H805 H 0.14083 0.86168 0.45643 0.0
H806 H 0.11939 0.8576 0.43397 0.0
C807 C 0.04917 0.91149 0.35934 0.0
C808 C 0.05652 0.90074 0.39681 0.0
H809 H 0.11791 0.90638 0.4163 0.0
C810 C 0.03746 0.88947 0.4065 0.0
C811 C 0.08606 0.90654 0.40034 0.0
C812 C 0.10733 0.92009 0.39065 0.0
C813 C 0.04695 0.88453 0.41969 0.0
C814 C 0.07617 0.89115 0.42327 0.0
C815 C 0.09554 0.9012 0.41347 0.0
C816 C 0.08649 0.89066 0.43734 0.0
C817 C 0.02557 0.87279 0.42978 0.0
C818 C 0.07498 0.91052 0.44666 0.0
C819 C 0.08733 0.91314 0.45942 0.0
C820 C 0.11144 0.8959 0.46313 0.0
C821 C 0.12224 0.87525 0.45392 0.0
C822 C 0.11002 0.87284 0.44109 0.0
H823 H 0.00691 0.8616 0.42481 0.0
H824 H 0.03656 0.85745 0.4367 0.0
H825 H 0.01661 0.89101 0.43585 0.0
H826 H 0.05718 0.92485 0.44387 0.0
H827 H 0.07844 0.92922 0.46627 0.0
H828 H 0.1835 0.4864 0.61614 0.0
H829 H 0.20604 0.50484 0.63668 0.0
H830 H 0.25968 0.56265 0.61353 0.0
H831 H 0.23673 0.54484 0.59289 0.0
H832 H 0.26252 0.51253 0.64748 0.0
H833 H 0.20843 0.6176 0.63579 0.0
H834 H 0.20049 0.58476 0.6266 0.0
H835 H 0.23363 0.60446 0.62334 0.0
C836 C 0.20059 0.50254 0.61535 0.0
C837 C 0.20785 0.51462 0.60289 0.0
C838 C 0.21347 0.51305 0.62713 0.0
C839 C 0.23392 0.53565 0.62664 0.0
C840 C 0.24339 0.54568 0.61413 0.0
H841 H 0.28574 0.65089 0.69245 0.0
H842 H 0.28468 0.62548 0.67083 0.0
C843 C 0.23035 0.53536 0.60234 0.0
C844 C 0.24257 0.55074 0.63919 0.0
H845 H 0.23435 0.61491 0.65603 0.0
C846 C 0.25664 0.53499 0.64932 0.0
C847 C 0.23467 0.58002 0.64158 0.0
C848 C 0.21826 0.59771 0.63133 0.0
C849 C 0.26278 0.54769 0.66186 0.0
C850 C 0.25423 0.57672 0.66433 0.0
C851 C 0.24095 0.59268 0.65407 0.0
C852 C 0.25708 0.59058 0.67771 0.0
C853 C 0.27825 0.52994 0.67236 0.0
C854 C 0.24176 0.57946 0.6887 0.0
C855 C 0.24221 0.59397 0.70104 0.0
C856 C 0.25787 0.61998 0.70258 0.0
C857 C 0.27347 0.63091 0.69158 0.0
C858 C 0.27296 0.61639 0.67924 0.0
H859 H 0.29076 0.51171 0.66778 0.0
H860 H 0.29351 0.54351 0.67837 0.0
H861 H 0.26174 0.52062 0.67924 0.0
H862 H 0.22879 0.55995 0.68765 0.0
H863 H 0.22993 0.58503 0.70931 0.0
H864 H 0.67732 0.64791 0.88104 0.0
H865 H 0.65548 0.67748 0.89876 0.0
H866 H 0.60906 0.72759 0.8692 0.0
H867 H 0.63036 0.69765 0.85134 0.0
H868 H 0.64991 0.73676 0.9057 0.0
H869 H 0.5435 0.68771 0.8902 0.0
H870 H 0.57811 0.6748 0.88378 0.0
H871 H 0.56259 0.70797 0.87765 0.0
C872 C 0.66302 0.66564 0.87825 0.0
C873 C 0.65505 0.66998 0.86479 0.0
C874 C 0.65059 0.68258 0.88841 0.0
C875 C 0.63008 0.7042 0.8853 0.0
C876 C 0.62435 0.71055 0.87181 0.0
H877 H 0.5026 0.76948 0.94425 0.0
H878 H 0.53145 0.76618 0.92358 0.0
C879 C 0.63668 0.69351 0.86161 0.0
C880 C 0.61233 0.71726 0.89621 0.0
H881 H 0.54376 0.71557 0.90983 0.0
C882 C 0.62661 0.73254 0.90652 0.0
C883 C 0.58191 0.71168 0.89725 0.0
C884 C 0.56554 0.69448 0.88671 0.0
C885 C 0.61144 0.74159 0.91806 0.0
C886 C 0.58139 0.73472 0.91937 0.0
C887 C 0.56681 0.72078 0.90877 0.0
C888 C 0.56531 0.73906 0.93212 0.0
C889 C 0.62783 0.75796 0.92884 0.0
C890 C 0.57465 0.72468 0.94371 0.0
C891 C 0.5582 0.72638 0.95547 0.0
C892 C 0.53196 0.74238 0.95585 0.0
C893 C 0.52273 0.757 0.94426 0.0
C894 C 0.53921 0.75522 0.93247 0.0
H895 H 0.64702 0.76955 0.92465 0.0
H896 H 0.61338 0.77389 0.93399 0.0
H897 H 0.63609 0.7424 0.93639 0.0
H898 H 0.5943 0.71146 0.94356 0.0
H899 H 0.56588 0.71483 0.96421 0.0
H900 H 0.45707 0.15378 0.11787 0.0
H901 H 0.43278 0.13627 0.13794 0.0
H902 H 0.38066 0.07792 0.11386 0.0
H903 H 0.40574 0.09459 0.09367 0.0
H904 H 0.37794 0.12958 0.14836 0.0
H905 H 0.4277 0.02213 0.13631 0.0
H906 H 0.43655 0.05424 0.12702 0.0
H907 H 0.40236 0.0359 0.12413 0.0
C908 C 0.43997 0.1377 0.11675 0.0
C909 C 0.43389 0.12505 0.10419 0.0
C910 C 0.42605 0.12771 0.12828 0.0
C911 C 0.40559 0.10512 0.12745 0.0
C912 C 0.39706 0.09474 0.11476 0.0
H913 H 0.36668 -0.00234 0.19788 0.0
H914 H 0.35852 0.02023 0.17598 0.0
C915 C 0.41127 0.10446 0.10322 0.0
C916 C 0.39626 0.09045 0.13992 0.0
H917 H 0.40534 0.02739 0.15718 0.0
C918 C 0.38346 0.10709 0.15021 0.0
C919 C 0.40352 0.06105 0.14235 0.0
C920 C 0.41849 0.04227 0.13194 0.0
C921 C 0.37896 0.09552 0.16303 0.0
C922 C 0.38762 0.06668 0.1656 0.0
C923 C 0.39866 0.04949 0.15512 0.0
C924 C 0.38931 0.05508 0.17938 0.0
C925 C 0.36588 0.1145 0.17384 0.0
C926 C 0.40933 0.06721 0.18849 0.0
C927 C 0.41432 0.05422 0.20087 0.0
C928 C 0.39931 0.02885 0.20442 0.0
C929 C 0.37852 0.01724 0.19545 0.0
C930 C 0.37379 0.0301 0.18296 0.0
H931 H 0.35256 0.13233 0.16951 0.0
H932 H 0.35191 0.10169 0.1807 0.0
H933 H 0.38382 0.12439 0.17983 0.0
H934 H 0.42198 0.08613 0.18581 0.0
H935 H 0.4304 0.0638 0.20755 0.0
H936 H 0.1273 0.55398 0.87961 0.0
H937 H 0.13603 0.5722 0.85707 0.0
H938 H 0.19783 0.63418 0.87288 0.0
H939 H 0.18971 0.61574 0.8955 0.0
H940 H 0.13481 0.62646 0.84374 0.0
H941 H 0.2475 0.58118 0.8485 0.0
H942 H 0.21896 0.57346 0.86043 0.0
H943 H 0.23747 0.60777 0.86092 0.0
C944 C 0.1423 0.57192 0.87837 0.0
C945 C 0.15828 0.583 0.88933 0.0
C946 C 0.1472 0.58234 0.86546 0.0
C947 C 0.16806 0.60406 0.86329 0.0
C948 C 0.18207 0.61698 0.87434 0.0
H949 H 0.21445 0.66893 0.78343 0.0
H950 H 0.19654 0.66651 0.80652 0.0
C951 C 0.17731 0.60648 0.88726 0.0
C952 C 0.17743 0.61063 0.84943 0.0
H953 H 0.23515 0.60253 0.82799 0.0
C954 C 0.1568 0.62152 0.84029 0.0
C955 C 0.20604 0.6037 0.84495 0.0
C956 C 0.22877 0.59066 0.85415 0.0
C957 C 0.164 0.6254 0.82672 0.0
C958 C 0.19258 0.61838 0.82228 0.0
C959 C 0.21328 0.60796 0.83147 0.0
C960 C 0.20125 0.62 0.808 0.0
C961 C 0.14075 0.63596 0.81715 0.0
C962 C 0.20994 0.59468 0.80122 0.0
C963 C 0.22033 0.59596 0.78809 0.0
C964 C 0.22237 0.62267 0.78147 0.0
C965 C 0.21308 0.64799 0.78821 0.0
C966 C 0.20269 0.64666 0.80139 0.0
H967 H 0.11848 0.63504 0.82162 0.0
H968 H 0.14537 0.65879 0.81447 0.0
H969 H 0.14093 0.62287 0.80777 0.0
H970 H 0.20906 0.57389 0.80618 0.0
H971 H 0.22723 0.57604 0.78323 0.0
H972 H 0.59554 0.61051 0.1304 0.0
H973 H 0.57713 0.62139 0.108 0.0
H974 H 0.51214 0.67867 0.12506 0.0
H975 H 0.53068 0.6683 0.14755 0.0
H976 H 0.52181 0.62008 0.09445 0.0
H977 H 0.56446 0.73184 0.10225 0.0
H978 H 0.57334 0.7025 0.11339 0.0
H979 H 0.53808 0.71979 0.11432 0.0
C980 C 0.57689 0.62492 0.12945 0.0
C981 C 0.5649 0.63894 0.14076 0.0
C982 C 0.56638 0.63109 0.11662 0.0
C983 C 0.5437 0.65128 0.11488 0.0
C984 C 0.53003 0.66342 0.1262 0.0
H985 H 0.47787 0.70359 0.03556 0.0
H986 H 0.47992 0.68467 0.05844 0.0
C987 C 0.5406 0.65737 0.13904 0.0
C988 C 0.53675 0.66187 0.10126 0.0
H989 H 0.54342 0.72126 0.08131 0.0
C990 C 0.52621 0.64226 0.09157 0.0
C991 C 0.54295 0.69074 0.09753 0.0
C992 C 0.55556 0.71245 0.10735 0.0
C993 C 0.52204 0.65072 0.07819 0.0
C994 C 0.52841 0.67953 0.07449 0.0
C995 C 0.53844 0.69922 0.08423 0.0
C996 C 0.5269 0.68939 0.06041 0.0
C997 C 0.51194 0.62857 0.06801 0.0
C998 C 0.55258 0.69848 0.05401 0.0
C999 C 0.55151 0.70938 0.04102 0.0
C1000 C 0.52465 0.71157 0.03415 0.0
C1001 C 0.49893 0.70212 0.04054 0.0
C1002 C 0.50005 0.69117 0.05359 0.0
H1003 H 0.51298 0.60617 0.07198 0.0
H1004 H 0.4889 0.63326 0.06516 0.0
H1005 H 0.5255 0.62969 0.05879 0.0
H1006 H 0.57351 0.69733 0.05913 0.0
H1007 H 0.57175 0.71642 0.03643 0.0
H1008 H 0.49492 0.03948 0.38894 0.0
H1009 H 0.48201 0.01183 0.36877 0.0
H1010 H 0.51848 0.0792 0.34419 0.0
H1011 H 0.5321 0.10653 0.36422 0.0
H1012 H 0.44361 0.02996 0.35042 0.0
H1013 H 0.54927 0.0085 0.32521 0.0
H1014 H 0.54711 0.02005 0.34252 0.0
H1015 H 0.54513 0.0462 0.32922 0.0
C1016 C 0.50085 0.04806 0.37925 0.0
C1017 C 0.51449 0.07524 0.37819 0.0
C1018 C 0.49341 0.03225 0.36773 0.0
C1019 C 0.49954 0.04327 0.35497 0.0
C1020 C 0.51417 0.06987 0.35392 0.0
H1021 H 0.43691 0.02901 0.27496 0.0
H1022 H 0.45899 0.04142 0.29661 0.0
C1023 C 0.52179 0.0856 0.36541 0.0
C1024 C 0.48776 0.02883 0.34278 0.0
H1025 H 0.50612 0.00696 0.3111 0.0
C1026 C 0.45736 0.02438 0.34192 0.0
C1027 C 0.5057 0.02156 0.33168 0.0
C1028 C 0.53864 0.02404 0.33225 0.0
C1029 C 0.44428 0.01424 0.33005 0.0
C1030 C 0.46209 0.00833 0.3188 0.0
C1031 C 0.49256 0.01175 0.31976 0.0
C1032 C 0.44924 0.00019 0.30571 0.0
C1033 C 0.41139 0.01109 0.3294 0.0
C1034 C 0.43662 0.97284 0.30371 0.0
C1035 C 0.42404 0.96563 0.29134 0.0
C1036 C 0.42383 0.98574 0.28082 0.0
C1037 C 0.43662 0.01309 0.28288 0.0
C1038 C 0.44933 0.02019 0.29521 0.0
H1039 H 0.40042 0.0199 0.3385 0.0
H1040 H 0.40258 0.02242 0.32047 0.0
H1041 H 0.4057 0.98782 0.32839 0.0
H1042 H 0.43653 0.9571 0.31171 0.0
H1043 H 0.41441 0.94437 0.29004 0.0
H1044 H 0.05344 -0.00045 0.6304 0.0
H1045 H 0.07836 0.98857 0.60938 0.0
H1046 H 0.14933 0.94866 0.63115 0.0
H1047 H 0.12402 0.95877 0.65231 0.0
H1048 H 0.13127 0.00098 0.59833 0.0
H1049 H 0.12176 0.88261 0.60747 0.0
H1050 H 0.10342 0.90922 0.61779 0.0
H1051 H 0.14194 0.90235 0.61999 0.0
C1052 C 0.07453 0.98875 0.63077 0.0
C1053 C 0.08651 0.97959 0.64303 0.0
C1054 C 0.08877 0.98252 0.61872 0.0
C1055 C 0.11534 0.96715 0.61867 0.0
C1056 C 0.12844 0.95983 0.63094 0.0
H1057 H 0.2046 0.89453 0.54803 0.0
H1058 H 0.19518 0.91288 0.57075 0.0
C1059 C 0.11405 0.96582 0.64302 0.0
C1060 C 0.12805 0.95738 0.60573 0.0
H1061 H 0.14327 0.89669 0.58715 0.0
C1062 C 0.13414 0.97819 0.59593 0.0
C1063 C 0.13165 0.92759 0.60259 0.0
C1064 C 0.12414 0.90409 0.61245 0.0
C1065 C 0.14318 0.96999 0.583 0.0
C1066 C 0.14608 0.94026 0.57982 0.0
C1067 C 0.14105 0.91948 0.58971 0.0
C1068 C 0.15233 0.93017 0.56602 0.0
C1069 C 0.1492 -0.00691 0.57277 0.0
C1070 C 0.13116 0.93356 0.55595 0.0
C1071 C 0.1363 0.92287 0.54303 0.0
C1072 C 0.16279 0.90871 0.53996 0.0
C1073 C 0.18402 0.90542 0.55008 0.0
C1074 C 0.17872 0.91589 0.56305 0.0
H1075 H 0.15233 0.01471 0.57753 0.0
H1076 H 0.169 0.98758 0.5668 0.0
H1077 H 0.13033 -0.00548 0.56577 0.0
H1078 H 0.11048 0.94415 0.55814 0.0
H1079 H 0.11954 0.92575 0.53545 0.0
H1080 H 0.62414 0.56742 0.87224 0.0
H1081 H 0.63529 0.54833 0.89442 0.0
H1082 H 0.69437 0.48582 0.87678 0.0
H1083 H 0.6837 0.50505 0.85449 0.0
H1084 H 0.63412 0.49268 0.90688 0.0
H1085 H 0.7469 0.53668 0.90109 0.0
H1086 H 0.71746 0.54591 0.88981 0.0
H1087 H 0.73521 0.51123 0.88846 0.0
C1088 C 0.63908 0.54923 0.87301 0.0
C1089 C 0.6534 0.53806 0.8616 0.0
C1090 C 0.64537 0.53831 0.88571 0.0
C1091 C 0.66603 0.51604 0.88724 0.0
C1092 C 0.6787 0.50335 0.8758 0.0
H1093 H 0.71792 0.45043 0.96668 0.0
H1094 H 0.69972 0.45183 0.94355 0.0
C1095 C 0.67249 0.51431 0.86308 0.0
C1096 C 0.6764 0.50846 0.90084 0.0
H1097 H 0.73537 0.51551 0.9217 0.0
C1098 C 0.65634 0.49729 0.91011 0.0
C1099 C 0.70533 0.5149 0.90503 0.0
C1100 C 0.72749 0.52805 0.89565 0.0
C1101 C 0.66434 0.49288 0.92356 0.0
C1102 C 0.69314 0.49971 0.92774 0.0
C1103 C 0.71335 0.5102 0.9184 0.0
C1104 C 0.70227 0.49847 0.94197 0.0
C1105 C 0.64171 0.48215 0.93333 0.0
C1106 C 0.70973 0.5242 0.94868 0.0
C1107 C 0.72016 0.52351 0.96182 0.0
C1108 C 0.72352 0.497 0.96851 0.0
C1109 C 0.71554 0.47121 0.96183 0.0
C1110 C 0.70503 0.47196 0.94864 0.0
H1111 H 0.61932 0.48203 0.92894 0.0
H1112 H 0.64732 0.45971 0.93634 0.0
H1113 H 0.6416 0.49587 0.94252 0.0
H1114 H 0.70778 0.54488 0.94368 0.0
H1115 H 0.72605 0.54379 0.96663 0.0
H1116 H 0.62776 0.16884 0.10498 0.0
H1117 H 0.65139 0.17834 0.12661 0.0
H1118 H 0.57777 0.14017 0.14694 0.0
H1119 H 0.55445 0.12992 0.12547 0.0
H1120 H 0.62975 0.21379 0.14549 0.0
H1121 H 0.64461 0.10519 0.16747 0.0
H1122 H 0.63655 0.11029 0.14992 0.0
H1123 H 0.60751 0.11085 0.16214 0.0
C1124 C 0.61691 0.16189 0.11405 0.0
C1125 C 0.58918 0.14869 0.1135 0.0
C1126 C 0.63043 0.16736 0.1264 0.0
C1127 C 0.61652 0.15967 0.13839 0.0
C1128 C 0.5893 0.14563 0.13783 0.0
H1129 H 0.61936 0.20667 0.2212 0.0
H1130 H 0.60953 0.18857 0.19852 0.0
C1131 C 0.57587 0.13998 0.12551 0.0
C1132 C 0.62874 0.16906 0.15149 0.0
H1133 H 0.64461 0.14549 0.18305 0.0
C1134 C 0.63353 0.19879 0.15363 0.0
C1135 C 0.63361 0.14947 0.16212 0.0
C1136 C 0.63059 0.11715 0.16026 0.0
C1137 C 0.64174 0.2096 0.16626 0.0
C1138 C 0.64542 0.19012 0.17698 0.0
C1139 C 0.64154 0.16033 0.17479 0.0
C1140 C 0.65197 0.20049 0.1907 0.0
C1141 C 0.64526 0.24186 0.1682 0.0
C1142 C 0.67917 0.21296 0.19377 0.0
C1143 C 0.68488 0.2233 0.20671 0.0
C1144 C 0.66343 0.22133 0.21677 0.0
C1145 C 0.63627 0.20861 0.21366 0.0
C1146 C 0.63065 0.19817 0.20074 0.0
H1147 H 0.6371 0.25428 0.15945 0.0
H1148 H 0.63335 0.24928 0.1773 0.0
H1149 H 0.66882 0.24697 0.16964 0.0
H1150 H 0.69596 0.21467 0.18615 0.0
H1151 H 0.70604 0.23291 0.20882 0.0
H1152 H 0.03408 0.07377 0.36845 0.0
H1153 H 0.0291 0.09708 0.39054 0.0
H1154 H 0.93495 0.09334 0.38688 0.0
H1155 H 0.93967 0.07115 0.36483 0.0
H1156 H 0.95241 0.14295 0.39916 0.0
H1157 H 0.00685 0.04722 0.42214 0.0
H1158 H 0.02833 0.0672 0.41033 0.0
H1159 H -0.00359 0.04783 0.40472 0.0
C1160 C 0.01235 0.07848 0.37226 0.0
C1161 C 0.98727 0.07017 0.36499 0.0
C1162 C 0.00954 0.0916 0.38492 0.0
C1163 C 0.98165 0.09629 0.39049 0.0
C1164 C 0.9567 0.08979 0.38283 0.0
H1165 H 0.90708 0.08112 0.46667 0.0
H1166 H 0.92866 0.0777 0.4444 0.0
C1167 C 0.95947 0.07695 0.37021 0.0
C1168 C 0.97776 0.10549 0.40466 0.0
H1169 H 0.98565 0.08112 0.43669 0.0
C1170 C 0.96006 0.12975 0.40741 0.0
C1171 C 0.98758 0.08801 0.41538 0.0
C1172 C 0.00566 0.06099 0.41307 0.0
C1173 C 0.95058 0.13613 0.4205 0.0
C1174 C 0.95969 0.11812 0.43114 0.0
C1175 C 0.97873 0.09486 0.42849 0.0
C1176 C 0.94716 0.12085 0.4448 0.0
C1177 C 0.92943 0.16092 0.42266 0.0
C1178 C 0.95051 0.14622 0.45249 0.0
C1179 C 0.93787 0.14837 0.46524 0.0
C1180 C 0.92201 0.12501 0.47058 0.0
C1181 C 0.91916 0.09951 0.4629 0.0
C1182 C 0.93155 0.09749 0.45016 0.0
H1183 H 0.92009 0.1689 0.41307 0.0
H1184 H 0.91111 0.15431 0.42927 0.0
H1185 H 0.94108 0.17918 0.42759 0.0
H1186 H 0.96297 0.16429 0.44867 0.0
H1187 H 0.94067 0.16824 0.47094 0.0
H1188 H 0.06994 0.42834 0.61313 0.0
H1189 H 0.04868 0.42594 0.63538 0.0
H1190 H 0.04384 0.51924 0.63717 0.0
H1191 H 0.06612 0.52189 0.61485 0.0
H1192 H 0.07007 0.49887 0.65866 0.0
H1193 H 0.96919 0.43561 0.65133 0.0
H1194 H -0.0007 0.41675 0.64374 0.0
H1195 H 0.98847 0.45176 0.63748 0.0
C1196 C 0.06385 0.44841 0.6181 0.0
C1197 C 0.06991 0.47533 0.61223 0.0
C1198 C 0.05136 0.44697 0.63082 0.0
C1199 C 0.04417 0.47238 0.6379 0.0
C1200 C 0.049 0.49934 0.63184 0.0
H1201 H 0.98021 0.43468 0.71923 0.0
H1202 H 0.98158 0.45638 0.6969 0.0
C1203 C 0.06168 0.50082 0.61909 0.0
C1204 C 0.0353 0.47044 0.65218 0.0
H1205 H -0.00727 0.43081 0.6733 0.0
C1206 C 0.05267 0.48453 0.66185 0.0
C1207 C 0.01223 0.45225 0.65644 0.0
C1208 C -0.00893 0.43854 0.64666 0.0
C1209 C 0.04914 0.47908 0.67557 0.0
C1210 C 0.02822 0.45842 0.67969 0.0
C1211 C 0.00922 0.44618 0.67013 0.0
C1212 C 0.02756 0.44722 0.69359 0.0
C1213 C 0.06839 0.49503 0.68546 0.0
C1214 C 0.05286 0.43468 0.69911 0.0
C1215 C 0.05221 0.42244 0.71185 0.0
C1216 C 0.02609 0.42206 0.7193 0.0
C1217 C 0.00071 0.43466 0.71378 0.0
C1218 C 0.00144 0.44708 0.70102 0.0
H1219 H 0.07467 0.51664 0.68158 0.0
H1220 H 0.0573 0.49799 0.69527 0.0
H1221 H 0.08886 0.48247 0.68703 0.0
H1222 H 0.07304 0.43371 0.69342 0.0
H1223 H 0.0721 0.41272 0.71571 0.0
H1224 H 0.48549 0.17338 0.38043 0.0
H1225 H 0.50339 0.19528 0.35991 0.0
H1226 H 0.55796 0.25316 0.38308 0.0
H1227 H 0.54093 0.23053 0.40376 0.0
H1228 H 0.50781 0.24831 0.34815 0.0
H1229 H 0.61813 0.20655 0.36241 0.0
H1230 H 0.58554 0.19737 0.3716 0.0
H1231 H 0.60224 0.23233 0.37384 0.0
C1232 C 0.50078 0.19123 0.38124 0.0
C1233 C 0.51231 0.19976 0.39374 0.0
C1234 C 0.511 0.20376 0.36946 0.0
C1235 C 0.53269 0.22523 0.36995 0.0
C1236 C 0.54187 0.236 0.38247 0.0
H1237 H 0.64257 0.26739 0.30034 0.0
H1238 H 0.61778 0.27346 0.32197 0.0
C1239 C 0.53194 0.22319 0.39428 0.0
C1240 C 0.54779 0.23354 0.3574 0.0
H1241 H 0.61323 0.22652 0.34108 0.0
C1242 C 0.53096 0.24398 0.34666 0.0
C1243 C 0.57802 0.22773 0.35545 0.0
C1244 C 0.59707 0.21516 0.36637 0.0
C1245 C 0.54331 0.24774 0.33391 0.0
C1246 C 0.57315 0.24079 0.33188 0.0
C1247 C 0.59035 0.23189 0.34274 0.0
C1248 C 0.58624 0.23939 0.31834 0.0
C1249 C 0.52422 0.25838 0.32261 0.0
C1250 C 0.57678 0.21811 0.30922 0.0
C1251 C 0.59107 0.21432 0.29697 0.0
C1252 C 0.61508 0.23183 0.29358 0.0
C1253 C 0.62411 0.25359 0.30263 0.0
C1254 C 0.60997 0.25715 0.31497 0.0
H1255 H 0.50454 0.27001 0.32643 0.0
H1256 H 0.53665 0.27303 0.31593 0.0
H1257 H 0.5167 0.23955 0.31655 0.0
H1258 H 0.55886 0.20381 0.31176 0.0
H1259 H 0.58349 0.19742 0.29023 0.0
H1260 H 0.9499 0.9707 0.63495 0.0
H1261 H 0.93187 0.98886 0.61351 0.0
H1262 H 0.89505 0.06359 0.6335 0.0
H1263 H 0.91267 0.04556 0.65502 0.0
H1264 H 0.86128 0.04099 0.61043 0.0
H1265 H 0.97945 0.0603 0.60004 0.0
H1266 H 0.9698 0.02376 0.60426 0.0
H1267 H 0.96602 0.05209 0.61658 0.0
C1268 C 0.93722 -0.00943 0.63487 0.0
C1269 C 0.93328 0.007 0.64667 0.0
C1270 C 0.92702 0.00094 0.62259 0.0
C1271 C 0.91278 0.02785 0.62193 0.0
C1272 C 0.90621 0.04285 0.63382 0.0
H1273 H 0.86915 0.15306 0.56077 0.0
H1274 H 0.87202 0.12446 0.58129 0.0
C1275 C 0.91634 0.03249 0.64612 0.0
C1276 C 0.9083 0.04216 0.60887 0.0
H1277 H 0.94594 0.07339 0.58325 0.0
C1278 C 0.87972 0.04798 0.60442 0.0
C1279 C 0.93247 0.05143 0.60115 0.0
C1280 C 0.9637 0.04685 0.60575 0.0
C1281 C 0.87467 0.06257 0.59231 0.0
C1282 C 0.89889 0.07203 0.58466 0.0
C1283 C 0.92742 0.06602 0.58911 0.0
C1284 C 0.89544 0.08864 0.5721 0.0
C1285 C 0.84352 0.06739 0.58774 0.0
C1286 C 0.90823 0.07831 0.5602 0.0
C1287 C 0.907 0.09476 0.54853 0.0
C1288 C 0.89297 0.12191 0.54854 0.0
C1289 C 0.88001 0.13217 0.56044 0.0
C1290 C 0.88138 0.11573 0.57214 0.0
H1291 H 0.82818 0.05199 0.59256 0.0
H1292 H 0.8366 0.08968 0.59055 0.0
H1293 H 0.84159 0.06502 0.57669 0.0
H1294 H 0.91939 0.05756 0.55998 0.0
H1295 H 0.91713 0.08622 0.53952 0.0
H1296 H 0.16704 0.45684 0.88238 0.0
H1297 H 0.14822 0.43342 0.86214 0.0
H1298 H 0.09212 0.37964 0.88614 0.0
H1299 H 0.11031 0.40345 0.90649 0.0
H1300 H 0.14158 0.37708 0.85166 0.0
H1301 H 0.03429 0.42808 0.86428 0.0
H1302 H 0.0676 0.43711 0.87309 0.0
H1303 H 0.04882 0.40386 0.87664 0.0
C1304 C 0.15121 0.43956 0.88342 0.0
C1305 C 0.13969 0.43248 0.89605 0.0
C1306 C 0.14048 0.42617 0.87181 0.0
C1307 C 0.1182 0.40538 0.87264 0.0
C1308 C 0.10881 0.39616 0.88529 0.0
H1309 H 0.00131 0.3519 0.80733 0.0
H1310 H 0.02723 0.3529 0.82884 0.0
C1311 C 0.11937 0.40969 0.89691 0.0
C1312 C 0.10271 0.39607 0.86028 0.0
H1313 H 0.03723 0.40262 0.84394 0.0
C1314 C 0.11869 0.38236 0.85001 0.0
C1315 C 0.07285 0.40314 0.85813 0.0
C1316 C 0.05486 0.41906 0.86855 0.0
C1317 C 0.10567 0.37591 0.83757 0.0
C1318 C 0.0761 0.38378 0.83532 0.0
C1319 C 0.05989 0.39656 0.84573 0.0
C1320 C 0.06198 0.38093 0.822 0.0
C1321 C 0.12372 0.36094 0.82691 0.0
C1322 C 0.07286 0.39648 0.81106 0.0
C1323 C 0.05806 0.39608 0.79879 0.0
C1324 C 0.032 0.38019 0.79726 0.0
C1325 C 0.02134 0.36432 0.80819 0.0
C1326 C 0.03614 0.36481 0.82047 0.0
H1327 H 0.1424 0.34883 0.83135 0.0
H1328 H 0.11015 0.34568 0.82091 0.0
H1329 H 0.13281 0.37744 0.82005 0.0
H1330 H 0.09238 0.40963 0.81211 0.0
H1331 H 0.0668 0.40857 0.79057 0.0
H1332 H 0.72326 0.61236 0.15003 0.0
H1333 H 0.75106 0.58915 0.13197 0.0
H1334 H 0.70161 0.63759 0.10282 0.0
H1335 H 0.67415 0.6612 0.12074 0.0
H1336 H 0.72335 0.55447 0.11422 0.0
H1337 H 0.78233 0.63914 0.08637 0.0
H1338 H 0.76853 0.64503 0.10314 0.0
H1339 H 0.74464 0.64884 0.08886 0.0
C1340 C 0.71895 0.61879 0.1398 0.0
C1341 C 0.69623 0.63841 0.13682 0.0
C1342 C 0.73486 0.60545 0.12948 0.0
C1343 C 0.72853 0.61169 0.11604 0.0
C1344 C 0.70733 0.63282 0.11311 0.0
H1345 H 0.7266 0.53706 0.03898 0.0
H1346 H 0.72453 0.5663 0.05945 0.0
C1347 C 0.69146 0.6462 0.1234 0.0
C1348 C 0.74035 0.59311 0.10512 0.0
H1349 H 0.77011 0.59557 0.07378 0.0
C1350 C 0.73424 0.56332 0.1055 0.0
C1351 C 0.75448 0.60469 0.09375 0.0
C1352 C 0.76314 0.63615 0.09306 0.0
C1353 C 0.74006 0.54515 0.09449 0.0
C1354 C 0.75272 0.55707 0.08285 0.0
C1355 C 0.76025 0.58655 0.08271 0.0
C1356 C 0.75567 0.53993 0.07033 0.0
C1357 C 0.73097 0.51376 0.09508 0.0
C1358 C 0.7741 0.51557 0.06963 0.0
C1359 C 0.77519 0.49868 0.05793 0.0
C1360 C 0.75797 0.50599 0.04674 0.0
C1361 C 0.74002 0.53075 0.04742 0.0
C1362 C 0.73893 0.54756 0.0591 0.0
H1363 H 0.7169 0.50925 0.1039 0.0
H1364 H 0.71888 0.50741 0.08585 0.0
H1365 H 0.75082 0.49991 0.09579 0.0
H1366 H 0.78746 0.50955 0.07814 0.0
H1367 H 0.78943 0.4798 0.05767 0.0
loop_
_geom_bond_atom_site_label_1
_geom_bond_atom_site_label_2
_geom_bond_distance
_geom_bond_site_symmetry_2
_ccdc_geom_bond_type
Mg0 O7 2.141 . S
Mg0 O8 2.048 1_545 S
Mg0 O9 2.048 1_455 S
Mg0 O12 2.141 1_455 S
C1 O2 1.313 . S
C1 O8 1.195 . S
O2 C1 1.313 . S
C3 O4 1.245 . S
C3 O12 1.289 . S
O4 C3 1.245 . S
C5 O6 1.245 . S
C5 O7 1.289 1_565 S
O6 C5 1.245 . S
O7 Mg0 2.141 . S
O7 C5 1.289 1_545 S
O8 Mg0 2.048 1_565 S
O8 C1 1.195 . S
O9 Mg0 2.048 1_655 S
O9 C10 1.195 . S
C10 O9 1.195 . S
C10 O11 1.313 1_545 S
O11 C10 1.313 1_565 S
O12 Mg0 2.141 1_655 S
O12 C3 1.289 . S
Mg13 O20 2.141 . S
Mg13 O21 2.048 . S
Mg13 O22 2.048 . S
Mg13 O25 2.141 . S
C14 O15 1.313 . S
C14 O21 1.195 . S
O15 C14 1.313 . S
C16 O17 1.245 . S
C16 O25 1.289 . S
O17 C16 1.245 . S
C18 O19 1.245 . S
C18 O20 1.289 . S
O19 C18 1.245 . S
O20 Mg13 2.141 . S
O20 C18 1.289 . S
O21 Mg13 2.048 . S
O21 C14 1.195 . S
O22 Mg13 2.048 . S
O22 C23 1.195 . S
C23 O22 1.195 . S
C23 O24 1.313 . S
O24 C23 1.313 . S
O25 Mg13 2.141 . S
O25 C16 1.289 . S
Mg26 O33 2.141 . S
Mg26 O34 2.048 . S
Mg26 O35 2.048 . S
Mg26 O38 2.141 . S
C27 O28 1.313 . S
C27 O34 1.195 . S
O28 C27 1.313 . S
C29 O30 1.245 . S
C29 O38 1.289 . S
O30 C29 1.245 . S
C31 O32 1.245 . S
C31 O33 1.289 . S
O32 C31 1.245 . S
O33 Mg26 2.141 . S
O33 C31 1.289 . S
O34 Mg26 2.048 . S
O34 C27 1.195 . S
O35 Mg26 2.048 . S
O35 C36 1.195 . S
C36 O35 1.195 . S
C36 O37 1.313 . S
O37 C36 1.313 . S
O38 Mg26 2.141 . S
O38 C29 1.289 . S
Mg39 O46 2.141 . S
Mg39 O47 2.048 . S
Mg39 O48 2.048 . S
Mg39 O51 2.141 . S
C40 O41 1.313 . S
C40 O47 1.195 . S
O41 C40 1.313 . S
C42 O43 1.245 . S
C42 O51 1.289 . S
O43 C42 1.245 . S
C44 O45 1.245 . S
C44 O46 1.289 . S
O45 C44 1.245 . S
O46 Mg39 2.141 . S
O46 C44 1.289 . S
O47 Mg39 2.048 . S
O47 C40 1.195 . S
O48 Mg39 2.048 . S
O48 C49 1.195 . S
C49 O48 1.195 . S
C49 O50 1.313 . S
O50 C49 1.313 . S
O51 Mg39 2.141 . S
O51 C42 1.289 . S
Mg52 O59 2.141 . S
Mg52 O60 2.048 . S
Mg52 O61 2.048 . S
Mg52 O64 2.141 . S
C53 O54 1.313 . S
C53 O60 1.195 . S
O54 C53 1.313 . S
C55 O56 1.245 . S
C55 O64 1.289 . S
O56 C55 1.245 . S
C57 O58 1.245 . S
C57 O59 1.289 . S
O58 C57 1.245 . S
O59 Mg52 2.141 . S
O59 C57 1.289 . S
O60 Mg52 2.048 . S
O60 C53 1.195 . S
O61 Mg52 2.048 . S
O61 C62 1.195 . S
C62 O61 1.195 . S
C62 O63 1.313 . S
O63 C62 1.313 . S
O64 Mg52 2.141 . S
O64 C55 1.289 . S
Mg65 O72 2.141 . S
Mg65 O73 2.048 . S
Mg65 O74 2.048 . S
Mg65 O77 2.141 . S
C66 O67 1.313 . S
C66 O73 1.195 . S
O67 C66 1.313 . S
C68 O69 1.245 . S
C68 O77 1.289 . S
O69 C68 1.245 . S
C70 O71 1.245 . S
C70 O72 1.289 . S
O71 C70 1.245 . S
O72 Mg65 2.141 . S
O72 C70 1.289 . S
O73 Mg65 2.048 . S
O73 C66 1.195 . S
O74 Mg65 2.048 . S
O74 C75 1.195 . S
C75 O74 1.195 . S
C75 O76 1.313 . S
O76 C75 1.313 . S
O77 Mg65 2.141 . S
O77 C68 1.289 . S
Mg78 O85 2.141 . S
Mg78 O86 2.048 . S
Mg78 O87 2.048 . S
Mg78 O90 2.141 . S
C79 O80 1.313 . S
C79 O86 1.195 . S
O80 C79 1.313 . S
C81 O82 1.245 . S
C81 O90 1.289 . S
O82 C81 1.245 . S
C83 O84 1.245 . S
C83 O85 1.289 . S
O84 C83 1.245 . S
O85 Mg78 2.141 . S
O85 C83 1.289 . S
O86 Mg78 2.048 . S
O86 C79 1.195 . S
O87 Mg78 2.048 . S
O87 C88 1.195 . S
C88 O87 1.195 . S
C88 O89 1.313 . S
O89 C88 1.313 . S
O90 Mg78 2.141 . S
O90 C81 1.289 . S
Mg91 O98 2.141 . S
Mg91 O99 2.048 . S
Mg91 O100 2.048 1_465 S
Mg91 O103 2.141 1_465 S
C92 O93 1.313 . S
C92 O99 1.195 . S
O93 C92 1.313 . S
C94 O95 1.245 . S
C94 O103 1.289 1_455 S
O95 C94 1.245 . S
C96 O97 1.245 . S
C96 O98 1.289 . S
O97 C96 1.245 . S
O98 Mg91 2.141 . S
O98 C96 1.289 . S
O99 Mg91 2.048 . S
O99 C92 1.195 . S
O100 Mg91 2.048 1_645 S
O100 C101 1.195 . S
C101 O100 1.195 . S
C101 O102 1.313 1_655 S
O102 C101 1.313 1_455 S
O103 Mg91 2.141 1_645 S
O103 C94 1.289 1_655 S
C104 O105 1.306 . S
C104 O107 1.160 . S
O105 C104 1.306 . S
O105 Cd106 2.228 . S
Cd106 O105 2.228 . S
Cd106 O110 2.273 1_554 S
Cd106 O114 2.277 . S
O107 C104 1.160 . S
O107 Cd108 2.203 . S
Cd108 O107 2.203 . S
Cd108 O110 2.411 1_554 S
Cd108 O111 2.333 1_554 S
Cd108 O112 2.352 1_554 S
Cd108 O116 2.277 . S
Cd108 O117 2.356 1_554 S
C109 O114 1.209 . S
C109 O116 1.226 . S
O110 Cd106 2.273 1_556 S
O110 Cd108 2.411 1_556 S
O110 C113 1.320 . S
O111 Cd108 2.333 1_556 S
O111 C113 1.214 . S
O112 Cd108 2.352 1_556 S
O112 C115 1.258 . S
C113 O110 1.320 . S
C113 O111 1.214 . S
O114 Cd106 2.277 . S
O114 C109 1.209 . S
C115 O112 1.258 . S
C115 O117 1.282 . S
O116 Cd108 2.277 . S
O116 C109 1.226 . S
O117 Cd108 2.356 1_556 S
O117 C115 1.282 . S
C118 O119 1.306 . S
C118 O121 1.160 . S
O119 C118 1.306 . S
O119 Cd120 2.228 . S
Cd120 O119 2.228 . S
Cd120 O124 2.273 . S
Cd120 O128 2.277 . S
O121 C118 1.160 . S
O121 Cd122 2.203 . S
Cd122 O121 2.203 . S
Cd122 O124 2.411 . S
Cd122 O125 2.333 . S
Cd122 O126 2.352 . S
Cd122 O130 2.277 . S
Cd122 O131 2.356 . S
C123 O128 1.209 . S
C123 O130 1.226 . S
O124 Cd120 2.273 . S
O124 Cd122 2.411 . S
O124 C127 1.320 . S
O125 Cd122 2.333 . S
O125 C127 1.214 . S
O126 Cd122 2.352 . S
O126 C129 1.258 . S
C127 O124 1.320 . S
C127 O125 1.214 . S
O128 Cd120 2.277 . S
O128 C123 1.209 . S
C129 O126 1.258 . S
C129 O131 1.282 . S
O130 Cd122 2.277 . S
O130 C123 1.226 . S
O131 Cd122 2.356 . S
O131 C129 1.282 . S
C132 O133 1.306 . S
C132 O135 1.160 . S
O133 C132 1.306 . S
O133 Cd134 2.228 . S
Cd134 O133 2.228 . S
Cd134 O138 2.273 . S
Cd134 O142 2.277 . S
O135 C132 1.160 . S
O135 Cd136 2.203 . S
Cd136 O135 2.203 . S
Cd136 O138 2.411 . S
Cd136 O139 2.333 . S
Cd136 O140 2.352 . S
Cd136 O144 2.277 . S
Cd136 O145 2.356 . S
C137 O142 1.209 . S
C137 O144 1.226 . S
O138 Cd134 2.273 . S
O138 Cd136 2.411 . S
O138 C141 1.320 . S
O139 Cd136 2.333 . S
O139 C141 1.214 . S
O140 Cd136 2.352 . S
O140 C143 1.258 . S
C141 O138 1.320 . S
C141 O139 1.214 . S
O142 Cd134 2.277 . S
O142 C137 1.209 . S
C143 O140 1.258 . S
C143 O145 1.282 . S
O144 Cd136 2.277 . S
O144 C137 1.226 . S
O145 Cd136 2.356 . S
O145 C143 1.282 . S
C146 O147 1.306 . S
C146 O149 1.160 . S
O147 C146 1.306 . S
O147 Cd148 2.228 . S
Cd148 O147 2.228 . S
Cd148 O152 2.273 . S
Cd148 O156 2.277 . S
O149 C146 1.160 . S
O149 Cd150 2.203 . S
Cd150 O149 2.203 . S
Cd150 O152 2.411 . S
Cd150 O153 2.333 . S
Cd150 O154 2.352 . S
Cd150 O158 2.277 . S
Cd150 O159 2.356 . S
C151 O156 1.209 . S
C151 O158 1.226 . S
O152 Cd148 2.273 . S
O152 Cd150 2.411 . S
O152 C155 1.320 . S
O153 Cd150 2.333 . S
O153 C155 1.214 . S
O154 Cd150 2.352 . S
O154 C157 1.258 . S
C155 O152 1.320 . S
C155 O153 1.214 . S
O156 Cd148 2.277 . S
O156 C151 1.209 . S
C157 O154 1.258 . S
C157 O159 1.282 . S
O158 Cd150 2.277 . S
O158 C151 1.226 . S
O159 Cd150 2.356 . S
O159 C157 1.282 . S
C160 O161 1.306 . S
C160 O163 1.160 . S
O161 C160 1.306 . S
O161 Cd162 2.228 . S
Cd162 O161 2.228 . S
Cd162 O166 2.273 . S
Cd162 O170 2.277 . S
O163 C160 1.160 . S
O163 Cd164 2.203 . S
Cd164 O163 2.203 . S
Cd164 O166 2.411 . S
Cd164 O167 2.333 . S
Cd164 O168 2.352 . S
Cd164 O172 2.277 . S
Cd164 O173 2.356 . S
C165 O170 1.209 . S
C165 O172 1.226 . S
O166 Cd162 2.273 . S
O166 Cd164 2.411 . S
O166 C169 1.320 . S
O167 Cd164 2.333 . S
O167 C169 1.214 . S
O168 Cd164 2.352 . S
O168 C171 1.258 . S
C169 O166 1.320 . S
C169 O167 1.214 . S
O170 Cd162 2.277 . S
O170 C165 1.209 . S
C171 O168 1.258 . S
C171 O173 1.282 . S
O172 Cd164 2.277 . S
O172 C165 1.226 . S
O173 Cd164 2.356 . S
O173 C171 1.282 . S
C174 O175 1.306 . S
C174 O177 1.160 . S
O175 C174 1.306 . S
O175 Cd176 2.228 1_655 S
Cd176 O175 2.228 1_455 S
Cd176 O180 2.273 1_455 S
Cd176 O184 2.277 1_455 S
O177 C174 1.160 . S
O177 Cd178 2.203 . S
Cd178 O177 2.203 . S
Cd178 O180 2.411 . S
Cd178 O181 2.333 . S
Cd178 O182 2.352 . S
Cd178 O186 2.277 . S
Cd178 O187 2.356 . S
C179 O184 1.209 . S
C179 O186 1.226 . S
O180 Cd176 2.273 1_655 S
O180 Cd178 2.411 . S
O180 C183 1.320 . S
O181 Cd178 2.333 . S
O181 C183 1.214 . S
O182 Cd178 2.352 . S
O182 C185 1.258 . S
C183 O180 1.320 . S
C183 O181 1.214 . S
O184 Cd176 2.277 1_655 S
O184 C179 1.209 . S
C185 O182 1.258 . S
C185 O187 1.282 . S
O186 Cd178 2.277 . S
O186 C179 1.226 . S
O187 Cd178 2.356 . S
O187 C185 1.282 . S
C188 O189 1.308 . S
C188 O191 1.160 . S
O189 C188 1.308 . S
O189 Cd190 2.226 1_556 S
Cd190 O189 2.226 1_554 S
Cd190 O194 2.273 . S
Cd190 O198 2.277 . S
O191 C188 1.160 . S
O191 Cd192 2.203 1_556 S
Cd192 O191 2.203 1_554 S
Cd192 O194 2.411 . S
Cd192 O195 2.333 . S
Cd192 O196 2.352 . S
Cd192 O200 2.277 . S
Cd192 O201 2.356 . S
C193 O198 1.209 . S
C193 O200 1.226 . S
O194 Cd190 2.273 . S
O194 Cd192 2.411 . S
O194 C197 1.320 . S
O195 Cd192 2.333 . S
O195 C197 1.214 . S
O196 Cd192 2.352 . S
O196 C199 1.258 . S
C197 O194 1.320 . S
C197 O195 1.214 . S
O198 Cd190 2.277 . S
O198 C193 1.209 . S
C199 O196 1.258 . S
C199 O201 1.282 . S
O200 Cd192 2.277 . S
O200 C193 1.226 . S
O201 Cd192 2.356 . S
O201 C199 1.282 . S
C202 O203 1.306 . S
C202 O205 1.160 . S
O203 C202 1.306 . S
O203 Cd204 2.228 . S
Cd204 O203 2.228 . S
Cd204 O208 2.273 . S
Cd204 O212 2.277 . S
O205 C202 1.160 . S
O205 Cd206 2.203 . S
Cd206 O205 2.203 . S
Cd206 O208 2.411 . S
Cd206 O209 2.333 . S
Cd206 O210 2.352 . S
Cd206 O214 2.277 . S
Cd206 O215 2.356 . S
C207 O212 1.209 . S
C207 O214 1.226 . S
O208 Cd204 2.273 . S
O208 Cd206 2.411 . S
O208 C211 1.320 . S
O209 Cd206 2.333 . S
O209 C211 1.214 . S
O210 Cd206 2.352 . S
O210 C213 1.258 . S
C211 O208 1.320 . S
C211 O209 1.214 . S
O212 Cd204 2.277 . S
O212 C207 1.209 . S
C213 O210 1.258 . S
C213 O215 1.282 . S
O214 Cd206 2.277 . S
O214 C207 1.226 . S
O215 Cd206 2.356 . S
O215 C213 1.282 . S
H216 C224 0.931 . S
H217 C226 0.930 1_545 S
H218 C228 0.930 . S
H219 C231 0.929 . S
H220 C234 0.930 . S
H221 C236 0.960 . S
H222 C236 0.960 . S
H223 C236 0.960 . S
C224 H216 0.931 . S
C224 C225 1.376 1_545 S
C224 C226 1.384 1_545 S
C225 C224 1.376 1_565 S
C225 C231 1.390 . S
C226 H217 0.930 1_565 S
C226 C224 1.384 1_565 S
C226 C227 1.372 . S
C227 C226 1.372 . S
C227 C228 1.400 . S
C227 C232 1.490 . S
C228 H218 0.930 . S
C228 C227 1.400 . S
C228 C231 1.386 . S
H229 C245 0.930 . S
H230 C246 0.931 . S
C231 H219 0.929 . S
C231 C225 1.390 . S
C231 C228 1.386 . S
C232 C227 1.490 . S
C232 C234 1.395 . S
C232 C235 1.403 . S
H233 C239 0.930 . S
C234 H220 0.930 . S
C234 C232 1.395 . S
C234 C237 1.403 . S
C235 C232 1.403 . S
C235 C236 1.524 . S
C235 C239 1.400 . S
C236 H221 0.960 . S
C236 H222 0.960 . S
C236 H223 0.960 . S
C236 C235 1.524 . S
C237 C234 1.403 . S
C237 C238 1.392 . S
C237 C241 1.495 . S
C238 C237 1.392 . S
C238 C239 1.385 . S
C238 C240 1.478 . S
C239 H233 0.930 . S
C239 C235 1.400 . S
C239 C238 1.385 . S
C240 C238 1.478 . S
C240 C242 1.381 . S
C240 C246 1.383 . S
C241 C237 1.495 . S
C241 H247 0.959 . S
C241 H248 0.961 . S
C241 H249 0.960 . S
C242 C240 1.381 . S
C242 C243 1.394 . S
C242 H250 0.930 . S
C243 C242 1.394 . S
C243 C244 1.383 . S
C243 H251 0.929 . S
C244 C243 1.383 . S
C244 C245 1.377 . S
C245 H229 0.930 . S
C245 C244 1.377 . S
C245 C246 1.379 . S
C246 H230 0.931 . S
C246 C240 1.383 . S
C246 C245 1.379 . S
H247 C241 0.959 . S
H248 C241 0.961 . S
H249 C241 0.960 . S
H250 C242 0.930 . S
H251 C243 0.929 . S
H252 C260 0.929 . S
H253 C262 0.930 . S
H254 C264 0.930 . S
H255 C267 0.929 . S
H256 C270 0.930 . S
H257 C272 0.960 . S
H258 C272 0.960 . S
H259 C272 0.960 . S
C260 H252 0.929 . S
C260 C261 1.377 . S
C260 C262 1.384 . S
C261 C260 1.377 . S
C261 C267 1.390 . S
C262 H253 0.930 . S
C262 C260 1.384 . S
C262 C263 1.372 . S
C263 C262 1.372 . S
C263 C264 1.400 . S
C263 C268 1.490 . S
C264 H254 0.930 . S
C264 C263 1.400 . S
C264 C267 1.386 . S
H265 C281 0.930 . S
H266 C282 0.931 . S
C267 H255 0.929 . S
C267 C261 1.390 . S
C267 C264 1.386 . S
C268 C263 1.490 . S
C268 C270 1.395 . S
C268 C271 1.403 . S
H269 C275 0.930 . S
C270 H256 0.930 . S
C270 C268 1.395 . S
C270 C273 1.403 . S
C271 C268 1.403 . S
C271 C272 1.524 . S
C271 C275 1.400 . S
C272 H257 0.960 . S
C272 H258 0.960 . S
C272 H259 0.960 . S
C272 C271 1.524 . S
C273 C270 1.403 . S
C273 C274 1.392 . S
C273 C277 1.495 . S
C274 C273 1.392 . S
C274 C275 1.385 . S
C274 C276 1.478 . S
C275 H269 0.930 . S
C275 C271 1.400 . S
C275 C274 1.385 . S
C276 C274 1.478 . S
C276 C278 1.381 . S
C276 C282 1.383 . S
C277 C273 1.495 . S
C277 H283 0.959 . S
C277 H284 0.961 . S
C277 H285 0.960 . S
C278 C276 1.381 . S
C278 C279 1.394 . S
C278 H286 0.930 . S
C279 C278 1.394 . S
C279 C280 1.383 . S
C279 H287 0.929 . S
C280 C279 1.383 . S
C280 C281 1.377 . S
C281 H265 0.930 . S
C281 C280 1.377 . S
C281 C282 1.379 . S
C282 H266 0.931 . S
C282 C276 1.383 . S
C282 C281 1.379 . S
H283 C277 0.959 . S
H284 C277 0.961 . S
H285 C277 0.960 . S
H286 C278 0.930 . S
H287 C279 0.929 . S
H288 C296 0.929 . S
H289 C298 0.930 . S
H290 C300 0.930 . S
H291 C303 0.929 . S
H292 C306 0.930 . S
H293 C308 0.960 . S
H294 C308 0.960 . S
H295 C308 0.960 . S
C296 H288 0.929 . S
C296 C297 1.377 . S
C296 C298 1.384 . S
C297 C296 1.377 . S
C297 C303 1.390 . S
C298 H289 0.930 . S
C298 C296 1.384 . S
C298 C299 1.372 . S
C299 C298 1.372 . S
C299 C300 1.400 . S
C299 C304 1.490 . S
C300 H290 0.930 . S
C300 C299 1.400 . S
C300 C303 1.386 . S
H301 C317 0.930 . S
H302 C318 0.931 . S
C303 H291 0.929 . S
C303 C297 1.390 . S
C303 C300 1.386 . S
C304 C299 1.490 . S
C304 C306 1.395 . S
C304 C307 1.403 . S
H305 C311 0.930 . S
C306 H292 0.930 . S
C306 C304 1.395 . S
C306 C309 1.403 . S
C307 C304 1.403 . S
C307 C308 1.524 . S
C307 C311 1.400 . S
C308 H293 0.960 . S
C308 H294 0.960 . S
C308 H295 0.960 . S
C308 C307 1.524 . S
C309 C306 1.403 . S
C309 C310 1.392 . S
C309 C313 1.495 . S
C310 C309 1.392 . S
C310 C311 1.385 . S
C310 C312 1.478 . S
C311 H305 0.930 . S
C311 C307 1.400 . S
C311 C310 1.385 . S
C312 C310 1.478 . S
C312 C314 1.381 . S
C312 C318 1.383 . S
C313 C309 1.495 . S
C313 H319 0.959 . S
C313 H320 0.961 . S
C313 H321 0.960 . S
C314 C312 1.381 . S
C314 C315 1.394 . S
C314 H322 0.930 . S
C315 C314 1.394 . S
C315 C316 1.383 . S
C315 H323 0.929 . S
C316 C315 1.383 . S
C316 C317 1.377 . S
C317 H301 0.930 . S
C317 C316 1.377 . S
C317 C318 1.379 . S
C318 H302 0.931 . S
C318 C312 1.383 . S
C318 C317 1.379 . S
H319 C313 0.959 . S
H320 C313 0.961 . S
H321 C313 0.960 . S
H322 C314 0.930 . S
H323 C315 0.929 . S
H324 C332 0.929 . S
H325 C334 0.930 . S
H326 C336 0.930 . S
H327 C339 0.929 . S
H328 C342 0.930 . S
H329 C344 0.960 . S
H330 C344 0.960 . S
H331 C344 0.960 . S
C332 H324 0.929 . S
C332 C333 1.377 . S
C332 C334 1.384 . S
C333 C332 1.377 . S
C333 C339 1.390 . S
C334 H325 0.930 . S
C334 C332 1.384 . S
C334 C335 1.372 . S
C335 C334 1.372 . S
C335 C336 1.400 . S
C335 C340 1.490 . S
C336 H326 0.930 . S
C336 C335 1.400 . S
C336 C339 1.386 . S
H337 C353 0.930 . S
H338 C354 0.931 . S
C339 H327 0.929 . S
C339 C333 1.390 . S
C339 C336 1.386 . S
C340 C335 1.490 . S
C340 C342 1.395 1_545 S
C340 C343 1.403 . S
H341 C347 0.930 . S
C342 H328 0.930 . S
C342 C340 1.395 1_565 S
C342 C345 1.403 . S
C343 C340 1.403 . S
C343 C344 1.524 . S
C343 C347 1.400 1_545 S
C344 H329 0.960 . S
C344 H330 0.960 . S
C344 H331 0.960 . S
C344 C343 1.524 . S
C345 C342 1.403 . S
C345 C346 1.392 . S
C345 C349 1.495 . S
C346 C345 1.392 . S
C346 C347 1.385 . S
C346 C348 1.478 . S
C347 H341 0.930 . S
C347 C343 1.400 1_565 S
C347 C346 1.385 . S
C348 C346 1.478 . S
C348 C350 1.381 . S
C348 C354 1.383 . S
C349 C345 1.495 . S
C349 H355 0.959 . S
C349 H356 0.961 . S
C349 H357 0.960 . S
C350 C348 1.381 . S
C350 C351 1.394 . S
C350 H358 0.930 . S
C351 C350 1.394 . S
C351 C352 1.383 . S
C351 H359 0.929 . S
C352 C351 1.383 . S
C352 C353 1.377 . S
C353 H337 0.930 . S
C353 C352 1.377 . S
C353 C354 1.379 . S
C354 H338 0.931 . S
C354 C348 1.383 . S
C354 C353 1.379 . S
H355 C349 0.959 . S
H356 C349 0.961 . S
H357 C349 0.960 . S
H358 C350 0.930 . S
H359 C351 0.929 . S
H360 C368 0.929 . S
H361 C370 0.930 . S
H362 C372 0.930 . S
H363 C375 0.929 . S
H364 C378 0.930 . S
H365 C380 0.960 . S
H366 C380 0.960 . S
H367 C380 0.960 . S
C368 H360 0.929 . S
C368 C369 1.377 . S
C368 C370 1.384 . S
C369 C368 1.377 . S
C369 C375 1.390 . S
C370 H361 0.930 . S
C370 C368 1.384 . S
C370 C371 1.372 . S
C371 C370 1.372 . S
C371 C372 1.400 . S
C371 C376 1.490 . S
C372 H362 0.930 . S
C372 C371 1.400 . S
C372 C375 1.386 . S
H373 C389 0.930 . S
H374 C390 0.931 . S
C375 H363 0.929 . S
C375 C369 1.390 . S
C375 C372 1.386 . S
C376 C371 1.490 . S
C376 C378 1.395 . S
C376 C379 1.403 . S
H377 C383 0.930 . S
C378 H364 0.930 . S
C378 C376 1.395 . S
C378 C381 1.403 . S
C379 C376 1.403 . S
C379 C380 1.524 . S
C379 C383 1.400 . S
C380 H365 0.960 . S
C380 H366 0.960 . S
C380 H367 0.960 . S
C380 C379 1.524 . S
C381 C378 1.403 . S
C381 C382 1.392 . S
C381 C385 1.495 . S
C382 C381 1.392 . S
C382 C383 1.385 . S
C382 C384 1.478 . S
C383 H377 0.930 . S
C383 C379 1.400 . S
C383 C382 1.385 . S
C384 C382 1.478 . S
C384 C386 1.381 . S
C384 C390 1.383 . S
C385 C381 1.495 . S
C385 H391 0.976 . S
C385 H392 0.961 . S
C385 H393 0.960 1_556 S
C386 C384 1.381 . S
C386 C387 1.369 1_556 S
C386 H394 0.889 1_556 S
C387 C386 1.369 1_554 S
C387 C388 1.343 1_554 S
C387 H395 0.999 . S
C388 C387 1.343 1_556 S
C388 C389 1.377 . S
C389 H373 0.930 . S
C389 C388 1.377 . S
C389 C390 1.379 . S
C390 H374 0.931 . S
C390 C384 1.383 . S
C390 C389 1.379 . S
H391 C385 0.976 . S
H392 C385 0.961 . S
H393 C385 0.960 1_554 S
H394 C386 0.889 1_554 S
H395 C387 0.999 . S
H396 C404 0.929 . S
H397 C406 0.930 . S
H398 C408 0.930 . S
H399 C411 0.929 . S
H400 C414 0.930 . S
H401 C416 0.960 . S
H402 C416 0.960 . S
H403 C416 0.960 . S
C404 H396 0.929 . S
C404 C405 1.377 . S
C404 C406 1.384 . S
C405 C404 1.377 . S
C405 C411 1.390 . S
C406 H397 0.930 . S
C406 C404 1.384 . S
C406 C407 1.372 . S
C407 C406 1.372 . S
C407 C408 1.400 . S
C407 C412 1.490 . S
C408 H398 0.930 . S
C408 C407 1.400 . S
C408 C411 1.386 . S
H409 C425 0.930 . S
H410 C426 0.931 . S
C411 H399 0.929 . S
C411 C405 1.390 . S
C411 C408 1.386 . S
C412 C407 1.490 . S
C412 C414 1.395 . S
C412 C415 1.403 . S
H413 C419 0.930 . S
C414 H400 0.930 . S
C414 C412 1.395 . S
C414 C417 1.403 . S
C415 C412 1.403 . S
C415 C416 1.524 . S
C415 C419 1.400 . S
C416 H401 0.960 . S
C416 H402 0.960 . S
C416 H403 0.960 . S
C416 C415 1.524 . S
C417 C414 1.403 . S
C417 C418 1.392 . S
C417 C421 1.495 . S
C418 C417 1.392 . S
C418 C419 1.385 . S
C418 C420 1.478 . S
C419 H413 0.930 . S
C419 C415 1.400 . S
C419 C418 1.385 . S
C420 C418 1.478 . S
C420 C422 1.381 . S
C420 C426 1.383 . S
C421 C417 1.495 . S
C421 H427 0.959 . S
C421 H428 0.961 . S
C421 H429 0.960 . S
C422 C420 1.381 . S
C422 C423 1.394 . S
C422 H430 0.930 . S
C423 C422 1.394 . S
C423 C424 1.383 . S
C423 H431 0.929 . S
C424 C423 1.383 . S
C424 C425 1.377 . S
C425 H409 0.930 . S
C425 C424 1.377 . S
C425 C426 1.379 . S
C426 H410 0.931 . S
C426 C420 1.383 . S
C426 C425 1.379 . S
H427 C421 0.959 . S
H428 C421 0.961 . S
H429 C421 0.960 . S
H430 C422 0.930 . S
H431 C423 0.929 . S
H432 C440 0.929 . S
H433 C442 0.930 . S
H434 C444 0.930 . S
H435 C447 0.929 . S
H436 C450 0.930 . S
H437 C452 0.960 . S
H438 C452 0.960 . S
H439 C452 0.960 . S
C440 H432 0.929 . S
C440 C441 1.377 . S
C440 C442 1.384 . S
C441 C440 1.377 . S
C441 C447 1.390 . S
C442 H433 0.930 . S
C442 C440 1.384 . S
C442 C443 1.372 . S
C443 C442 1.372 . S
C443 C444 1.400 . S
C443 C448 1.490 . S
C444 H434 0.930 . S
C444 C443 1.400 . S
C444 C447 1.386 . S
H445 C461 0.930 . S
H446 C462 0.931 . S
C447 H435 0.929 . S
C447 C441 1.390 . S
C447 C444 1.386 . S
C448 C443 1.490 . S
C448 C450 1.395 . S
C448 C451 1.403 1_545 S
H449 C455 0.930 . S
C450 H436 0.930 . S
C450 C448 1.395 . S
C450 C453 1.403 . S
C451 C448 1.403 1_565 S
C451 C452 1.524 . S
C451 C455 1.400 . S
C452 H437 0.960 . S
C452 H438 0.960 . S
C452 H439 0.960 . S
C452 C451 1.524 . S
C453 C450 1.403 . S
C453 C454 1.392 1_545 S
C453 C457 1.495 . S
C454 C453 1.392 1_565 S
C454 C455 1.385 . S
C454 C456 1.478 . S
C455 H449 0.930 . S
C455 C451 1.400 . S
C455 C454 1.385 . S
C456 C454 1.478 . S
C456 C458 1.381 . S
C456 C462 1.383 . S
C457 C453 1.495 . S
C457 H463 0.959 . S
C457 H464 0.961 . S
C457 H465 0.960 . S
C458 C456 1.381 . S
C458 C459 1.394 . S
C458 H466 0.930 . S
C459 C458 1.394 . S
C459 C460 1.383 . S
C459 H467 0.929 . S
C460 C459 1.383 . S
C460 C461 1.377 . S
C461 H445 0.930 . S
C461 C460 1.377 . S
C461 C462 1.379 . S
C462 H446 0.931 . S
C462 C456 1.383 . S
C462 C461 1.379 . S
H463 C457 0.959 . S
H464 C457 0.961 . S
H465 C457 0.960 . S
H466 C458 0.930 . S
H467 C459 0.929 . S
H468 C476 0.929 . S
H469 C478 0.930 . S
H470 C480 0.930 . S
H471 C483 0.929 . S
H472 C486 0.930 . S
H473 C488 0.960 . S
H474 C488 0.960 . S
H475 C488 0.960 . S
C476 H468 0.929 . S
C476 C477 1.377 . S
C476 C478 1.384 . S
C477 C476 1.377 . S
C477 C483 1.390 . S
C478 H469 0.930 . S
C478 C476 1.384 . S
C478 C479 1.372 . S
C479 C478 1.372 . S
C479 C480 1.400 . S
C479 C484 1.490 . S
C480 H470 0.930 . S
C480 C479 1.400 . S
C480 C483 1.386 . S
H481 C497 0.930 . S
H482 C498 0.931 . S
C483 H471 0.929 . S
C483 C477 1.390 . S
C483 C480 1.386 . S
C484 C479 1.490 . S
C484 C486 1.395 . S
C484 C487 1.403 . S
H485 C491 0.930 . S
C486 H472 0.930 . S
C486 C484 1.395 . S
C486 C489 1.403 . S
C487 C484 1.403 . S
C487 C488 1.524 . S
C487 C491 1.400 . S
C488 H473 0.960 . S
C488 H474 0.960 . S
C488 H475 0.960 . S
C488 C487 1.524 . S
C489 C486 1.403 . S
C489 C490 1.392 . S
C489 C493 1.495 . S
C490 C489 1.392 . S
C490 C491 1.385 . S
C490 C492 1.478 . S
C491 H485 0.930 . S
C491 C487 1.400 . S
C491 C490 1.385 . S
C492 C490 1.478 . S
C492 C494 1.381 . S
C492 C498 1.383 . S
C493 C489 1.495 . S
C493 H499 0.959 . S
C493 H500 0.961 . S
C493 H501 0.960 . S
C494 C492 1.381 . S
C494 C495 1.394 . S
C494 H502 0.930 . S
C495 C494 1.394 . S
C495 C496 1.383 . S
C495 H503 0.929 . S
C496 C495 1.383 . S
C496 C497 1.377 . S
C497 H481 0.930 . S
C497 C496 1.377 . S
C497 C498 1.379 . S
C498 H482 0.931 . S
C498 C492 1.383 . S
C498 C497 1.379 . S
H499 C493 0.959 . S
H500 C493 0.961 . S
H501 C493 0.960 . S
H502 C494 0.930 . S
H503 C495 0.929 . S
H504 C512 0.929 . S
H505 C514 0.930 . S
H506 C516 0.930 . S
H507 C519 0.929 . S
H508 C522 0.930 . S
H509 C524 0.960 . S
H510 C524 0.960 . S
H511 C524 0.960 . S
C512 H504 0.929 . S
C512 C513 1.377 . S
C512 C514 1.384 . S
C513 C512 1.377 . S
C513 C519 1.390 . S
C514 H505 0.930 . S
C514 C512 1.384 . S
C514 C515 1.372 . S
C515 C514 1.372 . S
C515 C516 1.400 . S
C515 C520 1.490 . S
C516 H506 0.930 . S
C516 C515 1.400 . S
C516 C519 1.386 . S
H517 C533 0.930 . S
H518 C534 0.931 . S
C519 H507 0.929 . S
C519 C513 1.390 . S
C519 C516 1.386 . S
C520 C515 1.490 . S
C520 C522 1.395 . S
C520 C523 1.403 . S
H521 C527 0.930 . S
C522 H508 0.930 . S
C522 C520 1.395 . S
C522 C525 1.403 . S
C523 C520 1.403 . S
C523 C524 1.524 . S
C523 C527 1.400 . S
C524 H509 0.960 . S
C524 H510 0.960 . S
C524 H511 0.960 . S
C524 C523 1.524 . S
C525 C522 1.403 . S
C525 C526 1.392 . S
C525 C529 1.495 . S
C526 C525 1.392 . S
C526 C527 1.385 . S
C526 C528 1.478 . S
C527 H521 0.930 . S
C527 C523 1.400 . S
C527 C526 1.385 . S
C528 C526 1.478 . S
C528 C530 1.381 . S
C528 C534 1.383 . S
C529 C525 1.495 . S
C529 H535 0.959 . S
C529 H536 0.961 . S
C529 H537 0.960 . S
C530 C528 1.381 . S
C530 C531 1.394 . S
C530 H538 0.930 . S
C531 C530 1.394 . S
C531 C532 1.383 . S
C531 H539 0.929 . S
C532 C531 1.383 . S
C532 C533 1.377 . S
C533 H517 0.930 . S
C533 C532 1.377 . S
C533 C534 1.379 . S
C534 H518 0.931 . S
C534 C528 1.383 . S
C534 C533 1.379 . S
H535 C529 0.959 . S
H536 C529 0.961 . S
H537 C529 0.960 . S
H538 C530 0.930 . S
H539 C531 0.929 . S
H540 C548 0.929 . S
H541 C550 0.930 . S
H542 C552 0.930 . S
H543 C555 0.929 . S
H544 C558 0.930 . S
H545 C560 0.960 . S
H546 C560 0.960 . S
H547 C560 0.960 . S
C548 H540 0.929 . S
C548 C549 1.377 . S
C548 C550 1.384 . S
C549 C548 1.377 . S
C549 C555 1.390 . S
C550 H541 0.930 . S
C550 C548 1.384 . S
C550 C551 1.372 . S
C551 C550 1.372 . S
C551 C552 1.400 . S
C551 C556 1.490 . S
C552 H542 0.930 . S
C552 C551 1.400 . S
C552 C555 1.386 . S
H553 C569 0.930 . S
H554 C570 0.931 . S
C555 H543 0.929 . S
C555 C549 1.390 . S
C555 C552 1.386 . S
C556 C551 1.490 . S
C556 C558 1.395 . S
C556 C559 1.403 . S
H557 C563 0.930 . S
C558 H544 0.930 . S
C558 C556 1.395 . S
C558 C561 1.403 . S
C559 C556 1.403 . S
C559 C560 1.524 . S
C559 C563 1.400 . S
C560 H545 0.960 . S
C560 H546 0.960 . S
C560 H547 0.960 . S
C560 C559 1.524 . S
C561 C558 1.403 . S
C561 C562 1.392 . S
C561 C565 1.495 . S
C562 C561 1.392 . S
C562 C563 1.385 . S
C562 C564 1.478 . S
C563 H557 0.930 . S
C563 C559 1.400 . S
C563 C562 1.385 . S
C564 C562 1.478 . S
C564 C566 1.381 . S
C564 C570 1.383 . S
C565 C561 1.495 . S
C565 H571 0.959 . S
C565 H572 0.961 . S
C565 H573 0.960 . S
C566 C564 1.381 . S
C566 C567 1.394 . S
C566 H574 0.930 . S
C567 C566 1.394 . S
C567 C568 1.383 . S
C567 H575 0.929 . S
C568 C567 1.383 . S
C568 C569 1.377 . S
C569 H553 0.930 . S
C569 C568 1.377 . S
C569 C570 1.379 . S
C570 H554 0.931 . S
C570 C564 1.383 . S
C570 C569 1.379 . S
H571 C565 0.959 . S
H572 C565 0.961 . S
H573 C565 0.960 . S
H574 C566 0.930 . S
H575 C567 0.929 . S
H576 C584 0.929 . S
H577 C586 0.930 . S
H578 C588 0.930 . S
H579 C591 0.929 . S
H580 C594 0.930 . S
H581 C596 0.960 . S
H582 C596 0.960 . S
H583 C596 0.960 . S
C584 H576 0.929 . S
C584 C585 1.377 . S
C584 C586 1.384 . S
C585 C584 1.377 . S
C585 C591 1.390 . S
C586 H577 0.930 . S
C586 C584 1.384 . S
C586 C587 1.372 . S
C587 C586 1.372 . S
C587 C588 1.400 . S
C587 C592 1.490 . S
C588 H578 0.930 . S
C588 C587 1.400 . S
C588 C591 1.386 . S
H589 C605 0.930 . S
H590 C606 0.931 . S
C591 H579 0.929 . S
C591 C585 1.390 . S
C591 C588 1.386 . S
C592 C587 1.490 . S
C592 C594 1.395 . S
C592 C595 1.403 . S
H593 C599 0.930 . S
C594 H580 0.930 . S
C594 C592 1.395 . S
C594 C597 1.403 . S
C595 C592 1.403 . S
C595 C596 1.524 . S
C595 C599 1.400 . S
C596 H581 0.960 . S
C596 H582 0.960 . S
C596 H583 0.960 . S
C596 C595 1.524 . S
C597 C594 1.403 . S
C597 C598 1.392 . S
C597 C601 1.495 . S
C598 C597 1.392 . S
C598 C599 1.385 . S
C598 C600 1.478 . S
C599 H593 0.930 . S
C599 C595 1.400 . S
C599 C598 1.385 . S
C600 C598 1.478 . S
C600 C602 1.381 . S
C600 C606 1.383 . S
C601 C597 1.495 . S
C601 H607 0.959 . S
C601 H608 0.961 . S
C601 H609 0.960 . S
C602 C600 1.381 . S
C602 C603 1.394 . S
C602 H610 0.930 . S
C603 C602 1.394 . S
C603 C604 1.383 . S
C603 H611 0.929 . S
C604 C603 1.383 . S
C604 C605 1.377 . S
C605 H589 0.930 . S
C605 C604 1.377 . S
C605 C606 1.379 . S
C606 H590 0.931 . S
C606 C600 1.383 . S
C606 C605 1.379 . S
H607 C601 0.959 . S
H608 C601 0.961 . S
H609 C601 0.960 . S
H610 C602 0.930 . S
H611 C603 0.929 . S
H612 C620 0.929 . S
H613 C622 0.930 . S
H614 C624 0.930 . S
H615 C627 0.929 . S
H616 C630 0.930 . S
H617 C632 0.960 1_655 S
H618 C632 0.960 . S
H619 C632 0.960 . S
C620 H612 0.929 . S
C620 C621 1.377 . S
C620 C622 1.384 . S
C621 C620 1.377 . S
C621 C627 1.390 . S
C622 H613 0.930 . S
C622 C620 1.384 . S
C622 C623 1.372 . S
C623 C622 1.372 . S
C623 C624 1.400 . S
C623 C628 1.490 . S
C624 H614 0.930 . S
C624 C623 1.400 . S
C624 C627 1.386 . S
H625 C641 0.930 . S
H626 C642 0.931 . S
C627 H615 0.929 . S
C627 C621 1.390 . S
C627 C624 1.386 . S
C628 C623 1.490 . S
C628 C630 1.395 . S
C628 C631 1.403 . S
H629 C635 0.930 . S
C630 H616 0.930 . S
C630 C628 1.395 . S
C630 C633 1.403 . S
C631 C628 1.403 . S
C631 C632 1.524 . S
C631 C635 1.400 1_455 S
C632 H617 0.960 1_455 S
C632 H618 0.960 . S
C632 H619 0.960 . S
C632 C631 1.524 . S
C633 C630 1.403 . S
C633 C634 1.392 1_455 S
C633 C637 1.495 . S
C634 C633 1.392 1_655 S
C634 C635 1.385 . S
C634 C636 1.478 . S
C635 H629 0.930 . S
C635 C631 1.400 1_655 S
C635 C634 1.385 . S
C636 C634 1.478 . S
C636 C638 1.381 . S
C636 C642 1.383 . S
C637 C633 1.495 . S
C637 H643 0.959 . S
C637 H644 0.961 . S
C637 H645 0.960 . S
C638 C636 1.381 . S
C638 C639 1.394 . S
C638 H646 0.930 . S
C639 C638 1.394 . S
C639 C640 1.383 . S
C639 H647 0.929 . S
C640 C639 1.383 . S
C640 C641 1.377 . S
C641 H625 0.930 . S
C641 C640 1.377 . S
C641 C642 1.379 . S
C642 H626 0.931 . S
C642 C636 1.383 . S
C642 C641 1.379 . S
H643 C637 0.959 . S
H644 C637 0.961 . S
H645 C637 0.960 . S
H646 C638 0.930 . S
H647 C639 0.929 . S
H648 C656 0.929 . S
H649 C658 0.930 . S
H650 C660 0.930 . S
H651 C663 0.929 . S
H652 C666 0.930 . S
H653 C668 0.960 . S
H654 C668 0.960 . S
H655 C668 0.960 . S
C656 H648 0.929 . S
C656 C657 1.377 . S
C656 C658 1.384 . S
C657 C656 1.377 . S
C657 C663 1.390 . S
C658 H649 0.930 . S
C658 C656 1.384 . S
C658 C659 1.372 . S
C659 C658 1.372 . S
C659 C660 1.400 . S
C659 C664 1.490 . S
C660 H650 0.930 . S
C660 C659 1.400 . S
C660 C663 1.386 . S
H661 C677 0.930 . S
H662 C678 0.931 . S
C663 H651 0.929 . S
C663 C657 1.390 . S
C663 C660 1.386 . S
C664 C659 1.490 . S
C664 C666 1.395 . S
C664 C667 1.403 . S
H665 C671 0.930 . S
C666 H652 0.930 . S
C666 C664 1.395 . S
C666 C669 1.403 . S
C667 C664 1.403 . S
C667 C668 1.524 . S
C667 C671 1.400 . S
C668 H653 0.960 . S
C668 H654 0.960 . S
C668 H655 0.960 . S
C668 C667 1.524 . S
C669 C666 1.403 . S
C669 C670 1.392 . S
C669 C673 1.495 . S
C670 C669 1.392 . S
C670 C671 1.385 . S
C670 C672 1.478 . S
C671 H665 0.930 . S
C671 C667 1.400 . S
C671 C670 1.385 . S
C672 C670 1.478 . S
C672 C674 1.381 . S
C672 C678 1.383 . S
C673 C669 1.495 . S
C673 H679 0.959 . S
C673 H680 0.961 . S
C673 H681 0.960 . S
C674 C672 1.381 . S
C674 C675 1.394 . S
C674 H682 0.930 . S
C675 C674 1.394 . S
C675 C676 1.383 . S
C675 H683 0.929 . S
C676 C675 1.383 . S
C676 C677 1.377 . S
C677 H661 0.930 . S
C677 C676 1.377 . S
C677 C678 1.379 . S
C678 H662 0.931 . S
C678 C672 1.383 . S
C678 C677 1.379 . S
H679 C673 0.959 . S
H680 C673 0.961 . S
H681 C673 0.960 . S
H682 C674 0.930 . S
H683 C675 0.929 . S
H684 C692 0.929 . S
H685 C694 0.930 . S
H686 C696 0.921 1_455 S
H687 C699 0.936 . S
H688 C702 0.930 1_455 S
H689 C704 0.960 . S
H690 C704 0.960 . S
H691 C704 0.960 . S
C692 H684 0.929 . S
C692 C693 1.377 . S
C692 C694 1.384 . S
C693 C692 1.377 . S
C693 C699 1.386 1_655 S
C694 H685 0.930 . S
C694 C692 1.384 . S
C694 C695 1.372 . S
C695 C694 1.372 . S
C695 C696 1.400 . S
C695 C700 1.490 . S
C696 H686 0.921 1_655 S
C696 C695 1.400 . S
C696 C699 1.383 1_655 S
H697 C713 0.930 . S
H698 C714 0.931 . S
C699 H687 0.936 . S
C699 C693 1.386 1_455 S
C699 C696 1.383 1_455 S
C700 C695 1.490 . S
C700 C702 1.395 . S
C700 C703 1.403 . S
H701 C707 0.930 . S
C702 H688 0.930 1_655 S
C702 C700 1.395 . S
C702 C705 1.403 . S
C703 C700 1.403 . S
C703 C704 1.524 . S
C703 C707 1.400 . S
C704 H689 0.960 . S
C704 H690 0.960 . S
C704 H691 0.960 . S
C704 C703 1.524 . S
C705 C702 1.403 . S
C705 C706 1.392 . S
C705 C709 1.495 1_655 S
C706 C705 1.392 . S
C706 C707 1.385 . S
C706 C708 1.478 . S
C707 H701 0.930 . S
C707 C703 1.400 . S
C707 C706 1.385 . S
C708 C706 1.478 . S
C708 C710 1.381 . S
C708 C714 1.383 . S
C709 C705 1.495 1_455 S
C709 H715 0.959 . S
C709 H716 0.961 . S
C709 H717 0.960 1_455 S
C710 C708 1.381 . S
C710 C711 1.394 . S
C710 H718 0.930 . S
C711 C710 1.394 . S
C711 C712 1.383 . S
C711 H719 0.929 . S
C712 C711 1.383 . S
C712 C713 1.377 . S
C713 H697 0.930 . S
C713 C712 1.377 . S
C713 C714 1.379 . S
C714 H698 0.931 . S
C714 C708 1.383 . S
C714 C713 1.379 . S
H715 C709 0.959 . S
H716 C709 0.961 . S
H717 C709 0.960 1_655 S
H718 C710 0.930 . S
H719 C711 0.929 . S
H720 C728 0.929 . S
H721 C730 0.930 . S
H722 C732 0.930 . S
H723 C735 0.929 . S
H724 C738 0.930 . S
H725 C740 0.960 . S
H726 C740 0.960 . S
H727 C740 0.960 1_455 S
C728 H720 0.929 . S
C728 C729 1.377 . S
C728 C730 1.384 . S
C729 C728 1.377 . S
C729 C735 1.390 . S
C730 H721 0.930 . S
C730 C728 1.384 . S
C730 C731 1.372 . S
C731 C730 1.372 . S
C731 C732 1.400 . S
C731 C736 1.490 . S
C732 H722 0.930 . S
C732 C731 1.400 . S
C732 C735 1.386 . S
H733 C749 0.930 . S
H734 C750 0.931 . S
C735 H723 0.929 . S
C735 C729 1.390 . S
C735 C732 1.386 . S
C736 C731 1.490 . S
C736 C738 1.395 . S
C736 C739 1.403 1_455 S
H737 C743 0.930 . S
C738 H724 0.930 . S
C738 C736 1.395 . S
C738 C741 1.403 . S
C739 C736 1.403 1_655 S
C739 C740 1.524 . S
C739 C743 1.400 . S
C740 H725 0.960 . S
C740 H726 0.960 . S
C740 H727 0.960 1_655 S
C740 C739 1.524 . S
C741 C738 1.403 . S
C741 C742 1.392 1_455 S
C741 C745 1.495 1_556 S
C742 C741 1.392 1_655 S
C742 C743 1.385 . S
C742 C744 1.478 . S
C743 H737 0.930 . S
C743 C739 1.400 . S
C743 C742 1.385 . S
C744 C742 1.478 . S
C744 C746 1.381 . S
C744 C750 1.383 1_556 S
C745 C741 1.495 1_554 S
C745 H751 0.959 . S
C745 H752 0.955 1_455 S
C745 H753 0.960 1_455 S
C746 C744 1.381 . S
C746 C747 1.394 1_556 S
C746 H754 0.930 . S
C747 C746 1.394 1_554 S
C747 C748 1.383 . S
C747 H755 0.929 . S
C748 C747 1.383 . S
C748 C749 1.377 . S
C749 H733 0.930 . S
C749 C748 1.377 . S
C749 C750 1.379 . S
C750 H734 0.931 . S
C750 C744 1.383 1_554 S
C750 C749 1.379 . S
H751 C745 0.959 . S
H752 C745 0.955 1_655 S
H753 C745 0.960 1_655 S
H754 C746 0.930 . S
H755 C747 0.929 . S
H756 C764 0.929 . S
H757 C766 0.930 . S
H758 C768 0.930 . S
H759 C771 0.929 . S
H760 C774 0.930 . S
H761 C776 0.960 . S
H762 C776 0.960 . S
H763 C776 0.960 . S
C764 H756 0.929 . S
C764 C765 1.377 . S
C764 C766 1.384 . S
C765 C764 1.377 . S
C765 C771 1.390 . S
C766 H757 0.930 . S
C766 C764 1.384 . S
C766 C767 1.372 . S
C767 C766 1.372 . S
C767 C768 1.400 . S
C767 C772 1.490 . S
C768 H758 0.930 . S
C768 C767 1.400 . S
C768 C771 1.386 . S
H769 C785 0.930 . S
H770 C786 0.931 . S
C771 H759 0.929 . S
C771 C765 1.390 . S
C771 C768 1.386 . S
C772 C767 1.490 . S
C772 C774 1.395 . S
C772 C775 1.403 . S
H773 C779 0.930 . S
C774 H760 0.930 . S
C774 C772 1.395 . S
C774 C777 1.403 . S
C775 C772 1.403 . S
C775 C776 1.524 . S
C775 C779 1.400 . S
C776 H761 0.960 . S
C776 H762 0.960 . S
C776 H763 0.960 . S
C776 C775 1.524 . S
C777 C774 1.403 . S
C777 C778 1.392 . S
C777 C781 1.495 . S
C778 C777 1.392 . S
C778 C779 1.385 . S
C778 C780 1.478 . S
C779 H773 0.930 . S
C779 C775 1.400 . S
C779 C778 1.385 . S
C780 C778 1.478 . S
C780 C782 1.381 . S
C780 C786 1.383 . S
C781 C777 1.495 . S
C781 H787 0.959 . S
C781 H788 0.961 . S
C781 H789 0.960 . S
C782 C780 1.381 . S
C782 C783 1.394 . S
C782 H790 0.930 . S
C783 C782 1.394 . S
C783 C784 1.383 . S
C783 H791 0.929 . S
C784 C783 1.383 . S
C784 C785 1.377 . S
C785 H769 0.930 . S
C785 C784 1.377 . S
C785 C786 1.379 . S
C786 H770 0.931 . S
C786 C780 1.383 . S
C786 C785 1.379 . S
H787 C781 0.959 . S
H788 C781 0.961 . S
H789 C781 0.960 . S
H790 C782 0.930 . S
H791 C783 0.929 . S
H792 C800 0.929 . S
H793 C802 0.930 . S
H794 C804 0.930 . S
H795 C807 0.929 . S
H796 C810 0.930 . S
H797 C812 0.960 . S
H798 C812 0.960 . S
H799 C812 0.960 . S
C800 H792 0.929 . S
C800 C801 1.377 . S
C800 C802 1.384 . S
C801 C800 1.377 . S
C801 C807 1.390 . S
C802 H793 0.930 . S
C802 C800 1.384 . S
C802 C803 1.372 . S
C803 C802 1.372 . S
C803 C804 1.400 . S
C803 C808 1.490 . S
C804 H794 0.930 . S
C804 C803 1.400 . S
C804 C807 1.386 . S
H805 C821 0.930 . S
H806 C822 0.931 . S
C807 H795 0.929 . S
C807 C801 1.390 . S
C807 C804 1.386 . S
C808 C803 1.490 . S
C808 C810 1.395 . S
C808 C811 1.403 . S
H809 C815 0.930 . S
C810 H796 0.930 . S
C810 C808 1.395 . S
C810 C813 1.403 . S
C811 C808 1.403 . S
C811 C812 1.524 . S
C811 C815 1.400 . S
C812 H797 0.960 . S
C812 H798 0.960 . S
C812 H799 0.960 . S
C812 C811 1.524 . S
C813 C810 1.403 . S
C813 C814 1.392 . S
C813 C817 1.495 . S
C814 C813 1.392 . S
C814 C815 1.385 . S
C814 C816 1.478 . S
C815 H809 0.930 . S
C815 C811 1.400 . S
C815 C814 1.385 . S
C816 C814 1.478 . S
C816 C818 1.381 . S
C816 C822 1.383 . S
C817 C813 1.495 . S
C817 H823 0.959 . S
C817 H824 0.961 . S
C817 H825 0.960 . S
C818 C816 1.381 . S
C818 C819 1.394 . S
C818 H826 0.930 . S
C819 C818 1.394 . S
C819 C820 1.383 . S
C819 H827 0.929 . S
C820 C819 1.383 . S
C820 C821 1.377 . S
C821 H805 0.930 . S
C821 C820 1.377 . S
C821 C822 1.379 . S
C822 H806 0.931 . S
C822 C816 1.383 . S
C822 C821 1.379 . S
H823 C817 0.959 . S
H824 C817 0.961 . S
H825 C817 0.960 . S
H826 C818 0.930 . S
H827 C819 0.929 . S
H828 C836 0.929 . S
H829 C838 0.930 . S
H830 C840 0.930 . S
H831 C843 0.929 . S
H832 C846 0.930 . S
H833 C848 0.960 . S
H834 C848 0.960 . S
H835 C848 0.960 . S
C836 H828 0.929 . S
C836 C837 1.377 . S
C836 C838 1.384 . S
C837 C836 1.377 . S
C837 C843 1.390 . S
C838 H829 0.930 . S
C838 C836 1.384 . S
C838 C839 1.372 . S
C839 C838 1.372 . S
C839 C840 1.400 . S
C839 C844 1.490 . S
C840 H830 0.930 . S
C840 C839 1.400 . S
C840 C843 1.386 . S
H841 C857 0.930 . S
H842 C858 0.931 . S
C843 H831 0.929 . S
C843 C837 1.390 . S
C843 C840 1.386 . S
C844 C839 1.490 . S
C844 C846 1.395 . S
C844 C847 1.403 . S
H845 C851 0.930 . S
C846 H832 0.930 . S
C846 C844 1.395 . S
C846 C849 1.403 . S
C847 C844 1.403 . S
C847 C848 1.524 . S
C847 C851 1.400 . S
C848 H833 0.960 . S
C848 H834 0.960 . S
C848 H835 0.960 . S
C848 C847 1.524 . S
C849 C846 1.403 . S
C849 C850 1.392 . S
C849 C853 1.495 . S
C850 C849 1.392 . S
C850 C851 1.385 . S
C850 C852 1.478 . S
C851 H845 0.930 . S
C851 C847 1.400 . S
C851 C850 1.385 . S
C852 C850 1.478 . S
C852 C854 1.381 . S
C852 C858 1.383 . S
C853 C849 1.495 . S
C853 H859 0.959 . S
C853 H860 0.961 . S
C853 H861 0.960 . S
C854 C852 1.381 . S
C854 C855 1.394 . S
C854 H862 0.930 . S
C855 C854 1.394 . S
C855 C856 1.383 . S
C855 H863 0.929 . S
C856 C855 1.383 . S
C856 C857 1.377 . S
C857 H841 0.930 . S
C857 C856 1.377 . S
C857 C858 1.379 . S
C858 H842 0.931 . S
C858 C852 1.383 . S
C858 C857 1.379 . S
H859 C853 0.959 . S
H860 C853 0.961 . S
H861 C853 0.960 . S
H862 C854 0.930 . S
H863 C855 0.929 . S
H864 C872 0.929 . S
H865 C874 0.930 . S
H866 C876 0.930 . S
H867 C879 0.929 . S
H868 C882 0.930 . S
H869 C884 0.960 . S
H870 C884 0.960 . S
H871 C884 0.960 . S
C872 H864 0.929 . S
C872 C873 1.377 . S
C872 C874 1.384 . S
C873 C872 1.377 . S
C873 C879 1.390 . S
C874 H865 0.930 . S
C874 C872 1.384 . S
C874 C875 1.372 . S
C875 C874 1.372 . S
C875 C876 1.400 . S
C875 C880 1.490 . S
C876 H866 0.930 . S
C876 C875 1.400 . S
C876 C879 1.386 . S
H877 C893 0.930 . S
H878 C894 0.931 . S
C879 H867 0.929 . S
C879 C873 1.390 . S
C879 C876 1.386 . S
C880 C875 1.490 . S
C880 C882 1.395 . S
C880 C883 1.403 . S
H881 C887 0.930 . S
C882 H868 0.930 . S
C882 C880 1.395 . S
C882 C885 1.403 . S
C883 C880 1.403 . S
C883 C884 1.524 . S
C883 C887 1.400 . S
C884 H869 0.960 . S
C884 H870 0.960 . S
C884 H871 0.960 . S
C884 C883 1.524 . S
C885 C882 1.403 . S
C885 C886 1.392 . S
C885 C889 1.495 . S
C886 C885 1.392 . S
C886 C887 1.385 . S
C886 C888 1.478 . S
C887 H881 0.930 . S
C887 C883 1.400 . S
C887 C886 1.385 . S
C888 C886 1.478 . S
C888 C890 1.381 . S
C888 C894 1.383 . S
C889 C885 1.495 . S
C889 H895 0.959 . S
C889 H896 0.961 . S
C889 H897 0.960 . S
C890 C888 1.381 . S
C890 C891 1.394 . S
C890 H898 0.930 . S
C891 C890 1.394 . S
C891 C892 1.383 . S
C891 H899 0.929 . S
C892 C891 1.383 . S
C892 C893 1.377 . S
C893 H877 0.930 . S
C893 C892 1.377 . S
C893 C894 1.379 . S
C894 H878 0.931 . S
C894 C888 1.383 . S
C894 C893 1.379 . S
H895 C889 0.959 . S
H896 C889 0.961 . S
H897 C889 0.960 . S
H898 C890 0.930 . S
H899 C891 0.929 . S
H900 C908 0.929 . S
H901 C910 0.930 . S
H902 C912 0.930 . S
H903 C915 0.929 . S
H904 C918 0.930 . S
H905 C920 0.922 1_565 S
H906 C920 0.974 . S
H907 C920 0.963 . S
C908 H900 0.929 . S
C908 C909 1.377 . S
C908 C910 1.384 . S
C909 C908 1.377 . S
C909 C915 1.390 . S
C910 H901 0.930 . S
C910 C908 1.384 . S
C910 C911 1.372 . S
C911 C910 1.372 . S
C911 C912 1.400 . S
C911 C916 1.490 . S
C912 H902 0.930 . S
C912 C911 1.400 . S
C912 C915 1.386 . S
H913 C929 0.930 . S
H914 C930 0.931 . S
C915 H903 0.929 . S
C915 C909 1.390 . S
C915 C912 1.386 . S
C916 C911 1.490 . S
C916 C918 1.395 . S
C916 C919 1.403 . S
H917 C923 0.930 1_565 S
C918 H904 0.930 . S
C918 C916 1.395 . S
C918 C921 1.403 . S
C919 C916 1.403 . S
C919 C920 1.547 . S
C919 C923 1.400 . S
C920 H905 0.922 1_545 S
C920 H906 0.974 . S
C920 H907 0.963 . S
C920 C919 1.547 . S
C921 C918 1.403 . S
C921 C922 1.392 . S
C921 C925 1.495 . S
C922 C921 1.392 . S
C922 C923 1.385 . S
C922 C924 1.478 . S
C923 H917 0.930 1_545 S
C923 C919 1.400 . S
C923 C922 1.385 . S
C924 C922 1.478 . S
C924 C926 1.381 . S
C924 C930 1.383 1_545 S
C925 C921 1.495 . S
C925 H931 0.959 . S
C925 H932 0.961 . S
C925 H933 0.960 . S
C926 C924 1.381 . S
C926 C927 1.394 1_545 S
C926 H934 0.930 . S
C927 C926 1.394 1_565 S
C927 C928 1.383 . S
C927 H935 0.929 . S
C928 C927 1.383 . S
C928 C929 1.377 . S
C929 H913 0.930 . S
C929 C928 1.377 . S
C929 C930 1.379 . S
C930 H914 0.931 . S
C930 C924 1.383 1_565 S
C930 C929 1.379 . S
H931 C925 0.959 . S
H932 C925 0.961 . S
H933 C925 0.960 . S
H934 C926 0.930 . S
H935 C927 0.929 . S
H936 C944 0.929 . S
H937 C946 0.930 . S
H938 C948 0.930 . S
H939 C951 0.929 . S
H940 C954 0.930 . S
H941 C956 0.960 . S
H942 C956 0.960 . S
H943 C956 0.960 . S
C944 H936 0.929 . S
C944 C945 1.377 . S
C944 C946 1.384 . S
C945 C944 1.377 . S
C945 C951 1.390 . S
C946 H937 0.930 . S
C946 C944 1.384 . S
C946 C947 1.372 . S
C947 C946 1.372 . S
C947 C948 1.400 . S
C947 C952 1.490 . S
C948 H938 0.930 . S
C948 C947 1.400 . S
C948 C951 1.386 . S
H949 C965 0.930 . S
H950 C966 0.931 . S
C951 H939 0.929 . S
C951 C945 1.390 . S
C951 C948 1.386 . S
C952 C947 1.490 . S
C952 C954 1.395 . S
C952 C955 1.403 . S
H953 C959 0.930 . S
C954 H940 0.930 . S
C954 C952 1.395 . S
C954 C957 1.403 . S
C955 C952 1.403 . S
C955 C956 1.524 . S
C955 C959 1.400 . S
C956 H941 0.960 . S
C956 H942 0.960 . S
C956 H943 0.960 . S
C956 C955 1.524 . S
C957 C954 1.403 . S
C957 C958 1.392 . S
C957 C961 1.495 . S
C958 C957 1.392 . S
C958 C959 1.385 . S
C958 C960 1.478 . S
C959 H953 0.930 . S
C959 C955 1.400 . S
C959 C958 1.385 . S
C960 C958 1.478 . S
C960 C962 1.381 . S
C960 C966 1.383 . S
C961 C957 1.495 . S
C961 H967 0.959 . S
C961 H968 0.961 . S
C961 H969 0.960 . S
C962 C960 1.381 . S
C962 C963 1.394 . S
C962 H970 0.930 . S
C963 C962 1.394 . S
C963 C964 1.383 . S
C963 H971 0.929 . S
C964 C963 1.383 . S
C964 C965 1.377 . S
C965 H949 0.930 . S
C965 C964 1.377 . S
C965 C966 1.379 . S
C966 H950 0.931 . S
C966 C960 1.383 . S
C966 C965 1.379 . S
H967 C961 0.959 . S
H968 C961 0.961 . S
H969 C961 0.960 . S
H970 C962 0.930 . S
H971 C963 0.929 . S
H972 C980 0.929 . S
H973 C982 0.930 . S
H974 C984 0.930 . S
H975 C987 0.929 . S
H976 C990 0.930 . S
H977 C992 0.960 . S
H978 C992 0.960 . S
H979 C992 0.960 . S
C980 H972 0.929 . S
C980 C981 1.377 . S
C980 C982 1.384 . S
C981 C980 1.377 . S
C981 C987 1.390 . S
C982 H973 0.930 . S
C982 C980 1.384 . S
C982 C983 1.372 . S
C983 C982 1.372 . S
C983 C984 1.400 . S
C983 C988 1.490 . S
C984 H974 0.930 . S
C984 C983 1.400 . S
C984 C987 1.386 . S
H985 C1001 0.930 . S
H986 C1002 0.931 . S
C987 H975 0.929 . S
C987 C981 1.390 . S
C987 C984 1.386 . S
C988 C983 1.490 . S
C988 C990 1.395 . S
C988 C991 1.403 . S
H989 C995 0.930 . S
C990 H976 0.930 . S
C990 C988 1.395 . S
C990 C993 1.403 . S
C991 C988 1.403 . S
C991 C992 1.524 . S
C991 C995 1.400 . S
C992 H977 0.960 . S
C992 H978 0.960 . S
C992 H979 0.960 . S
C992 C991 1.524 . S
C993 C990 1.403 . S
C993 C994 1.392 . S
C993 C997 1.495 . S
C994 C993 1.392 . S
C994 C995 1.385 . S
C994 C996 1.478 . S
C995 H989 0.930 . S
C995 C991 1.400 . S
C995 C994 1.385 . S
C996 C994 1.478 . S
C996 C998 1.381 . S
C996 C1002 1.383 . S
C997 C993 1.495 . S
C997 H1003 0.959 . S
C997 H1004 0.961 . S
C997 H1005 0.960 . S
C998 C996 1.381 . S
C998 C999 1.394 . S
C998 H1006 0.930 . S
C999 C998 1.394 . S
C999 C1000 1.383 . S
C999 H1007 0.929 . S
C1000 C999 1.383 . S
C1000 C1001 1.377 . S
C1001 H985 0.930 . S
C1001 C1000 1.377 . S
C1001 C1002 1.379 . S
C1002 H986 0.931 . S
C1002 C996 1.383 . S
C1002 C1001 1.379 . S
H1003 C997 0.959 . S
H1004 C997 0.961 . S
H1005 C997 0.960 . S
H1006 C998 0.930 . S
H1007 C999 0.929 . S
H1008 C1016 0.929 . S
H1009 C1018 0.930 . S
H1010 C1020 0.930 . S
H1011 C1023 0.929 . S
H1012 C1026 0.930 . S
H1013 C1028 0.960 . S
H1014 C1028 0.960 . S
H1015 C1028 0.960 . S
C1016 H1008 0.929 . S
C1016 C1017 1.377 . S
C1016 C1018 1.384 . S
C1017 C1016 1.377 . S
C1017 C1023 1.390 . S
C1018 H1009 0.930 . S
C1018 C1016 1.384 . S
C1018 C1019 1.372 . S
C1019 C1018 1.372 . S
C1019 C1020 1.400 . S
C1019 C1024 1.490 . S
C1020 H1010 0.930 . S
C1020 C1019 1.400 . S
C1020 C1023 1.386 . S
H1021 C1037 0.927 1_545 S
H1022 C1038 0.931 . S
C1023 H1011 0.929 . S
C1023 C1017 1.390 . S
C1023 C1020 1.386 . S
C1024 C1019 1.490 . S
C1024 C1026 1.395 . S
C1024 C1027 1.403 . S
H1025 C1031 0.930 . S
C1026 H1012 0.930 . S
C1026 C1024 1.395 . S
C1026 C1029 1.403 . S
C1027 C1024 1.403 . S
C1027 C1028 1.524 . S
C1027 C1031 1.400 . S
C1028 H1013 0.960 . S
C1028 H1014 0.960 . S
C1028 H1015 0.960 . S
C1028 C1027 1.524 . S
C1029 C1026 1.403 . S
C1029 C1030 1.392 . S
C1029 C1033 1.495 1_545 S
C1030 C1029 1.392 . S
C1030 C1031 1.385 . S
C1030 C1032 1.478 1_545 S
C1031 H1025 0.930 . S
C1031 C1027 1.400 . S
C1031 C1030 1.385 . S
C1032 C1030 1.478 1_565 S
C1032 C1034 1.381 . S
C1032 C1038 1.383 1_565 S
C1033 C1029 1.495 1_565 S
C1033 H1039 0.959 . S
C1033 H1040 0.964 . S
C1033 H1041 0.960 . S
C1034 C1032 1.381 . S
C1034 C1035 1.394 . S
C1034 H1042 0.930 . S
C1035 C1034 1.394 . S
C1035 C1036 1.383 . S
C1035 H1043 0.929 . S
C1036 C1035 1.383 . S
C1036 C1037 1.377 . S
C1037 H1021 0.927 1_565 S
C1037 C1036 1.377 . S
C1037 C1038 1.379 1_565 S
C1038 H1022 0.931 . S
C1038 C1032 1.383 1_545 S
C1038 C1037 1.379 1_545 S
H1039 C1033 0.959 . S
H1040 C1033 0.964 . S
H1041 C1033 0.960 . S
H1042 C1034 0.930 . S
H1043 C1035 0.929 . S
H1044 C1052 0.929 . S
H1045 C1054 0.930 . S
H1046 C1056 0.930 . S
H1047 C1059 0.929 . S
H1048 C1062 0.930 . S
H1049 C1064 0.960 . S
H1050 C1064 0.960 . S
H1051 C1064 0.960 . S
C1052 H1044 0.929 . S
C1052 C1053 1.377 . S
C1052 C1054 1.384 . S
C1053 C1052 1.377 . S
C1053 C1059 1.390 . S
C1054 H1045 0.930 . S
C1054 C1052 1.384 . S
C1054 C1055 1.372 . S
C1055 C1054 1.372 . S
C1055 C1056 1.400 . S
C1055 C1060 1.490 . S
C1056 H1046 0.930 . S
C1056 C1055 1.400 . S
C1056 C1059 1.386 . S
H1057 C1073 0.930 . S
H1058 C1074 0.931 . S
C1059 H1047 0.929 . S
C1059 C1053 1.390 . S
C1059 C1056 1.386 . S
C1060 C1055 1.490 . S
C1060 C1062 1.395 . S
C1060 C1063 1.403 . S
H1061 C1067 0.930 . S
C1062 H1048 0.930 . S
C1062 C1060 1.395 . S
C1062 C1065 1.403 . S
C1063 C1060 1.403 . S
C1063 C1064 1.524 . S
C1063 C1067 1.400 . S
C1064 H1049 0.960 . S
C1064 H1050 0.960 . S
C1064 H1051 0.960 . S
C1064 C1063 1.524 . S
C1065 C1062 1.403 . S
C1065 C1066 1.392 . S
C1065 C1069 1.495 . S
C1066 C1065 1.392 . S
C1066 C1067 1.385 . S
C1066 C1068 1.478 . S
C1067 H1061 0.930 . S
C1067 C1063 1.400 . S
C1067 C1066 1.385 . S
C1068 C1066 1.478 . S
C1068 C1070 1.381 . S
C1068 C1074 1.383 . S
C1069 C1065 1.495 . S
C1069 H1075 0.959 . S
C1069 H1076 0.961 . S
C1069 H1077 0.960 . S
C1070 C1068 1.381 . S
C1070 C1071 1.394 . S
C1070 H1078 0.930 . S
C1071 C1070 1.394 . S
C1071 C1072 1.383 . S
C1071 H1079 0.929 . S
C1072 C1071 1.383 . S
C1072 C1073 1.377 . S
C1073 H1057 0.930 . S
C1073 C1072 1.377 . S
C1073 C1074 1.379 . S
C1074 H1058 0.931 . S
C1074 C1068 1.383 . S
C1074 C1073 1.379 . S
H1075 C1069 0.959 . S
H1076 C1069 0.961 . S
H1077 C1069 0.960 . S
H1078 C1070 0.930 . S
H1079 C1071 0.929 . S
H1080 C1088 0.929 . S
H1081 C1090 0.930 . S
H1082 C1092 0.930 . S
H1083 C1095 0.929 . S
H1084 C1098 0.930 . S
H1085 C1100 0.960 . S
H1086 C1100 0.960 . S
H1087 C1100 0.960 . S
C1088 H1080 0.929 . S
C1088 C1089 1.377 . S
C1088 C1090 1.384 . S
C1089 C1088 1.377 . S
C1089 C1095 1.390 . S
C1090 H1081 0.930 . S
C1090 C1088 1.384 . S
C1090 C1091 1.372 . S
C1091 C1090 1.372 . S
C1091 C1092 1.400 . S
C1091 C1096 1.490 . S
C1092 H1082 0.930 . S
C1092 C1091 1.400 . S
C1092 C1095 1.386 . S
H1093 C1109 0.930 . S
H1094 C1110 0.931 . S
C1095 H1083 0.929 . S
C1095 C1089 1.390 . S
C1095 C1092 1.386 . S
C1096 C1091 1.490 . S
C1096 C1098 1.395 . S
C1096 C1099 1.403 . S
H1097 C1103 0.930 . S
C1098 H1084 0.930 . S
C1098 C1096 1.395 . S
C1098 C1101 1.403 . S
C1099 C1096 1.403 . S
C1099 C1100 1.524 . S
C1099 C1103 1.400 . S
C1100 H1085 0.960 . S
C1100 H1086 0.960 . S
C1100 H1087 0.960 . S
C1100 C1099 1.524 . S
C1101 C1098 1.403 . S
C1101 C1102 1.392 . S
C1101 C1105 1.495 . S
C1102 C1101 1.392 . S
C1102 C1103 1.385 . S
C1102 C1104 1.478 . S
C1103 H1097 0.930 . S
C1103 C1099 1.400 . S
C1103 C1102 1.385 . S
C1104 C1102 1.478 . S
C1104 C1106 1.381 . S
C1104 C1110 1.383 . S
C1105 C1101 1.495 . S
C1105 H1111 0.959 . S
C1105 H1112 0.961 . S
C1105 H1113 0.960 . S
C1106 C1104 1.381 . S
C1106 C1107 1.394 . S
C1106 H1114 0.930 . S
C1107 C1106 1.394 . S
C1107 C1108 1.383 . S
C1107 H1115 0.929 . S
C1108 C1107 1.383 . S
C1108 C1109 1.377 . S
C1109 H1093 0.930 . S
C1109 C1108 1.377 . S
C1109 C1110 1.379 . S
C1110 H1094 0.931 . S
C1110 C1104 1.383 . S
C1110 C1109 1.379 . S
H1111 C1105 0.959 . S
H1112 C1105 0.961 . S
H1113 C1105 0.960 . S
H1114 C1106 0.930 . S
H1115 C1107 0.929 . S
H1116 C1124 0.929 . S
H1117 C1126 0.930 . S
H1118 C1128 0.930 . S
H1119 C1131 0.929 . S
H1120 C1134 0.930 . S
H1121 C1136 0.960 . S
H1122 C1136 0.960 . S
H1123 C1136 0.960 . S
C1124 H1116 0.929 . S
C1124 C1125 1.377 . S
C1124 C1126 1.384 . S
C1125 C1124 1.377 . S
C1125 C1131 1.390 . S
C1126 H1117 0.930 . S
C1126 C1124 1.384 . S
C1126 C1127 1.372 . S
C1127 C1126 1.372 . S
C1127 C1128 1.400 . S
C1127 C1132 1.490 . S
C1128 H1118 0.930 . S
C1128 C1127 1.400 . S
C1128 C1131 1.386 . S
H1129 C1145 0.930 . S
H1130 C1146 0.931 . S
C1131 H1119 0.929 . S
C1131 C1125 1.390 . S
C1131 C1128 1.386 . S
C1132 C1127 1.490 . S
C1132 C1134 1.395 . S
C1132 C1135 1.403 . S
H1133 C1139 0.930 . S
C1134 H1120 0.930 . S
C1134 C1132 1.395 . S
C1134 C1137 1.403 . S
C1135 C1132 1.403 . S
C1135 C1136 1.524 . S
C1135 C1139 1.400 . S
C1136 H1121 0.960 . S
C1136 H1122 0.960 . S
C1136 H1123 0.960 . S
C1136 C1135 1.524 . S
C1137 C1134 1.403 . S
C1137 C1138 1.392 . S
C1137 C1141 1.495 . S
C1138 C1137 1.392 . S
C1138 C1139 1.385 . S
C1138 C1140 1.478 . S
C1139 H1133 0.930 . S
C1139 C1135 1.400 . S
C1139 C1138 1.385 . S
C1140 C1138 1.478 . S
C1140 C1142 1.381 . S
C1140 C1146 1.383 . S
C1141 C1137 1.495 . S
C1141 H1147 0.959 . S
C1141 H1148 0.961 . S
C1141 H1149 0.960 . S
C1142 C1140 1.381 . S
C1142 C1143 1.394 . S
C1142 H1150 0.930 . S
C1143 C1142 1.394 . S
C1143 C1144 1.383 . S
C1143 H1151 0.929 . S
C1144 C1143 1.383 . S
C1144 C1145 1.377 . S
C1145 H1129 0.930 . S
C1145 C1144 1.377 . S
C1145 C1146 1.379 . S
C1146 H1130 0.931 . S
C1146 C1140 1.383 . S
C1146 C1145 1.379 . S
H1147 C1141 0.959 . S
H1148 C1141 0.961 . S
H1149 C1141 0.960 . S
H1150 C1142 0.930 . S
H1151 C1143 0.929 . S
H1152 C1160 0.929 . S
H1153 C1162 0.930 . S
H1154 C1164 0.930 . S
H1155 C1167 0.929 . S
H1156 C1170 0.930 . S
H1157 C1172 0.960 . S
H1158 C1172 0.960 . S
H1159 C1172 0.960 . S
C1160 H1152 0.929 . S
C1160 C1161 1.377 . S
C1160 C1162 1.384 . S
C1161 C1160 1.377 . S
C1161 C1167 1.390 . S
C1162 H1153 0.930 . S
C1162 C1160 1.384 . S
C1162 C1163 1.372 . S
C1163 C1162 1.372 . S
C1163 C1164 1.400 . S
C1163 C1168 1.490 . S
C1164 H1154 0.930 . S
C1164 C1163 1.400 . S
C1164 C1167 1.386 . S
H1165 C1181 0.930 . S
H1166 C1182 0.931 . S
C1167 H1155 0.929 . S
C1167 C1161 1.390 . S
C1167 C1164 1.386 . S
C1168 C1163 1.490 . S
C1168 C1170 1.395 . S
C1168 C1171 1.403 . S
H1169 C1175 0.930 . S
C1170 H1156 0.930 . S
C1170 C1168 1.395 . S
C1170 C1173 1.403 . S
C1171 C1168 1.403 . S
C1171 C1172 1.524 . S
C1171 C1175 1.400 . S
C1172 H1157 0.960 . S
C1172 H1158 0.960 . S
C1172 H1159 0.960 . S
C1172 C1171 1.524 . S
C1173 C1170 1.403 . S
C1173 C1174 1.392 . S
C1173 C1177 1.495 . S
C1174 C1173 1.392 . S
C1174 C1175 1.385 . S
C1174 C1176 1.478 . S
C1175 H1169 0.930 . S
C1175 C1171 1.400 . S
C1175 C1174 1.385 . S
C1176 C1174 1.478 . S
C1176 C1178 1.381 . S
C1176 C1182 1.383 . S
C1177 C1173 1.495 . S
C1177 H1183 0.959 . S
C1177 H1184 0.961 . S
C1177 H1185 0.960 . S
C1178 C1176 1.381 . S
C1178 C1179 1.394 . S
C1178 H1186 0.930 . S
C1179 C1178 1.394 . S
C1179 C1180 1.383 . S
C1179 H1187 0.929 . S
C1180 C1179 1.383 . S
C1180 C1181 1.377 . S
C1181 H1165 0.930 . S
C1181 C1180 1.377 . S
C1181 C1182 1.379 . S
C1182 H1166 0.931 . S
C1182 C1176 1.383 . S
C1182 C1181 1.379 . S
H1183 C1177 0.959 . S
H1184 C1177 0.961 . S
H1185 C1177 0.960 . S
H1186 C1178 0.930 . S
H1187 C1179 0.929 . S
H1188 C1196 0.929 . S
H1189 C1198 0.930 . S
H1190 C1200 0.930 . S
H1191 C1203 0.929 . S
H1192 C1206 0.930 . S
H1193 C1208 0.923 1_655 S
H1194 C1208 0.960 . S
H1195 C1208 0.960 . S
C1196 H1188 0.929 . S
C1196 C1197 1.377 . S
C1196 C1198 1.384 . S
C1197 C1196 1.377 . S
C1197 C1203 1.390 . S
C1198 H1189 0.930 . S
C1198 C1196 1.384 . S
C1198 C1199 1.372 . S
C1199 C1198 1.372 . S
C1199 C1200 1.400 . S
C1199 C1204 1.490 . S
C1200 H1190 0.930 . S
C1200 C1199 1.400 . S
C1200 C1203 1.386 . S
H1201 C1217 0.930 . S
H1202 C1218 0.931 . S
C1203 H1191 0.929 . S
C1203 C1197 1.390 . S
C1203 C1200 1.386 . S
C1204 C1199 1.490 . S
C1204 C1206 1.395 . S
C1204 C1207 1.403 . S
H1205 C1211 0.930 . S
C1206 H1192 0.930 . S
C1206 C1204 1.395 . S
C1206 C1209 1.403 . S
C1207 C1204 1.403 . S
C1207 C1208 1.524 . S
C1207 C1211 1.400 . S
C1208 H1193 0.923 1_455 S
C1208 H1194 0.960 . S
C1208 H1195 0.960 . S
C1208 C1207 1.524 . S
C1209 C1206 1.403 . S
C1209 C1210 1.392 . S
C1209 C1213 1.495 . S
C1210 C1209 1.392 . S
C1210 C1211 1.385 . S
C1210 C1212 1.478 . S
C1211 H1205 0.930 . S
C1211 C1207 1.400 . S
C1211 C1210 1.385 . S
C1212 C1210 1.478 . S
C1212 C1214 1.381 . S
C1212 C1218 1.383 1_455 S
C1213 C1209 1.495 . S
C1213 H1219 0.959 . S
C1213 H1220 0.961 . S
C1213 H1221 0.960 . S
C1214 C1212 1.381 . S
C1214 C1215 1.396 1_455 S
C1214 H1222 0.930 . S
C1215 C1214 1.396 1_655 S
C1215 C1216 1.381 . S
C1215 H1223 0.929 1_655 S
C1216 C1215 1.381 . S
C1216 C1217 1.377 . S
C1217 H1201 0.930 . S
C1217 C1216 1.377 . S
C1217 C1218 1.379 . S
C1218 H1202 0.931 . S
C1218 C1212 1.383 1_655 S
C1218 C1217 1.379 . S
H1219 C1213 0.959 . S
H1220 C1213 0.961 . S
H1221 C1213 0.960 . S
H1222 C1214 0.930 . S
H1223 C1215 0.929 1_455 S
H1224 C1232 0.929 . S
H1225 C1234 0.930 . S
H1226 C1236 0.930 . S
H1227 C1239 0.929 . S
H1228 C1242 0.930 . S
H1229 C1244 0.960 . S
H1230 C1244 0.960 . S
H1231 C1244 0.960 . S
C1232 H1224 0.929 . S
C1232 C1233 1.377 . S
C1232 C1234 1.384 . S
C1233 C1232 1.377 . S
C1233 C1239 1.390 . S
C1234 H1225 0.930 . S
C1234 C1232 1.384 . S
C1234 C1235 1.372 . S
C1235 C1234 1.372 . S
C1235 C1236 1.400 . S
C1235 C1240 1.490 . S
C1236 H1226 0.930 . S
C1236 C1235 1.400 . S
C1236 C1239 1.386 . S
H1237 C1253 0.930 . S
H1238 C1254 0.931 . S
C1239 H1227 0.929 . S
C1239 C1233 1.390 . S
C1239 C1236 1.386 . S
C1240 C1235 1.490 . S
C1240 C1242 1.395 . S
C1240 C1243 1.403 . S
H1241 C1247 0.930 . S
C1242 H1228 0.930 . S
C1242 C1240 1.395 . S
C1242 C1245 1.403 . S
C1243 C1240 1.403 . S
C1243 C1244 1.524 . S
C1243 C1247 1.400 . S
C1244 H1229 0.960 . S
C1244 H1230 0.960 . S
C1244 H1231 0.960 . S
C1244 C1243 1.524 . S
C1245 C1242 1.403 . S
C1245 C1246 1.392 . S
C1245 C1249 1.495 . S
C1246 C1245 1.392 . S
C1246 C1247 1.385 . S
C1246 C1248 1.478 . S
C1247 H1241 0.930 . S
C1247 C1243 1.400 . S
C1247 C1246 1.385 . S
C1248 C1246 1.478 . S
C1248 C1250 1.381 . S
C1248 C1254 1.383 . S
C1249 C1245 1.495 . S
C1249 H1255 0.959 . S
C1249 H1256 0.961 . S
C1249 H1257 0.960 . S
C1250 C1248 1.381 . S
C1250 C1251 1.394 . S
C1250 H1258 0.930 . S
C1251 C1250 1.394 . S
C1251 C1252 1.383 . S
C1251 H1259 0.929 . S
C1252 C1251 1.383 . S
C1252 C1253 1.377 . S
C1253 H1237 0.930 . S
C1253 C1252 1.377 . S
C1253 C1254 1.379 . S
C1254 H1238 0.931 . S
C1254 C1248 1.383 . S
C1254 C1253 1.379 . S
H1255 C1249 0.959 . S
H1256 C1249 0.961 . S
H1257 C1249 0.960 . S
H1258 C1250 0.930 . S
H1259 C1251 0.929 . S
H1260 C1268 0.929 . S
H1261 C1270 0.930 . S
H1262 C1272 0.930 . S
H1263 C1275 0.929 1_455 S
H1264 C1278 0.930 . S
H1265 C1280 0.960 . S
H1266 C1280 0.960 . S
H1267 C1280 0.960 . S
C1268 H1260 0.929 . S
C1268 C1269 1.377 . S
C1268 C1270 1.384 . S
C1269 C1268 1.377 . S
C1269 C1275 1.390 . S
C1270 H1261 0.930 . S
C1270 C1268 1.384 . S
C1270 C1271 1.372 . S
C1271 C1270 1.372 . S
C1271 C1272 1.400 . S
C1271 C1276 1.490 . S
C1272 H1262 0.930 . S
C1272 C1271 1.400 . S
C1272 C1275 1.386 . S
H1273 C1289 0.930 . S
H1274 C1290 0.931 . S
C1275 H1263 0.929 1_655 S
C1275 C1269 1.390 . S
C1275 C1272 1.386 . S
C1276 C1271 1.490 . S
C1276 C1278 1.395 . S
C1276 C1279 1.403 . S
H1277 C1283 0.930 . S
C1278 H1264 0.930 . S
C1278 C1276 1.395 . S
C1278 C1281 1.403 . S
C1279 C1276 1.403 . S
C1279 C1280 1.524 . S
C1279 C1283 1.400 . S
C1280 H1265 0.960 . S
C1280 H1266 0.960 . S
C1280 H1267 0.960 . S
C1280 C1279 1.524 . S
C1281 C1278 1.403 . S
C1281 C1282 1.392 . S
C1281 C1285 1.495 . S
C1282 C1281 1.392 . S
C1282 C1283 1.385 . S
C1282 C1284 1.478 . S
C1283 H1277 0.930 . S
C1283 C1279 1.400 . S
C1283 C1282 1.385 . S
C1284 C1282 1.478 . S
C1284 C1286 1.381 . S
C1284 C1290 1.383 . S
C1285 C1281 1.495 . S
C1285 H1291 0.959 . S
C1285 H1292 0.961 . S
C1285 H1293 0.960 . S
C1286 C1284 1.381 . S
C1286 C1287 1.394 . S
C1286 H1294 0.930 . S
C1287 C1286 1.394 . S
C1287 C1288 1.383 . S
C1287 H1295 0.929 . S
C1288 C1287 1.383 . S
C1288 C1289 1.377 . S
C1289 H1273 0.930 . S
C1289 C1288 1.377 . S
C1289 C1290 1.379 . S
C1290 H1274 0.931 . S
C1290 C1284 1.383 . S
C1290 C1289 1.379 . S
H1291 C1285 0.959 . S
H1292 C1285 0.961 . S
H1293 C1285 0.960 . S
H1294 C1286 0.930 . S
H1295 C1287 0.929 . S
H1296 C1304 0.929 . S
H1297 C1306 0.930 . S
H1298 C1308 0.930 . S
H1299 C1311 0.929 . S
H1300 C1314 0.930 . S
H1301 C1316 0.960 1_655 S
H1302 C1316 0.960 . S
H1303 C1316 0.960 . S
C1304 H1296 0.929 . S
C1304 C1305 1.377 . S
C1304 C1306 1.384 . S
C1305 C1304 1.377 . S
C1305 C1311 1.390 . S
C1306 H1297 0.930 . S
C1306 C1304 1.384 . S
C1306 C1307 1.372 . S
C1307 C1306 1.372 . S
C1307 C1308 1.400 . S
C1307 C1312 1.490 . S
C1308 H1298 0.930 . S
C1308 C1307 1.400 . S
C1308 C1311 1.386 . S
H1309 C1325 0.930 . S
H1310 C1326 0.931 1_655 S
C1311 H1299 0.929 . S
C1311 C1305 1.390 . S
C1311 C1308 1.386 . S
C1312 C1307 1.490 . S
C1312 C1314 1.395 . S
C1312 C1315 1.403 . S
H1313 C1319 0.930 . S
C1314 H1300 0.930 . S
C1314 C1312 1.395 . S
C1314 C1317 1.403 . S
C1315 C1312 1.403 . S
C1315 C1316 1.524 . S
C1315 C1319 1.400 . S
C1316 H1301 0.960 1_455 S
C1316 H1302 0.960 . S
C1316 H1303 0.960 . S
C1316 C1315 1.524 . S
C1317 C1314 1.403 . S
C1317 C1318 1.392 . S
C1317 C1321 1.495 . S
C1318 C1317 1.392 . S
C1318 C1319 1.385 . S
C1318 C1320 1.478 . S
C1319 H1313 0.930 . S
C1319 C1315 1.400 . S
C1319 C1318 1.385 . S
C1320 C1318 1.478 . S
C1320 C1322 1.381 . S
C1320 C1326 1.383 . S
C1321 C1317 1.495 . S
C1321 H1327 0.959 . S
C1321 H1328 0.961 . S
C1321 H1329 0.960 . S
C1322 C1320 1.381 . S
C1322 C1323 1.394 . S
C1322 H1330 0.930 . S
C1323 C1322 1.394 . S
C1323 C1324 1.383 1_455 S
C1323 H1331 0.929 . S
C1324 C1323 1.383 1_655 S
C1324 C1325 1.377 . S
C1325 H1309 0.930 . S
C1325 C1324 1.377 . S
C1325 C1326 1.379 1_655 S
C1326 H1310 0.931 1_455 S
C1326 C1320 1.383 . S
C1326 C1325 1.379 1_455 S
H1327 C1321 0.959 . S
H1328 C1321 0.961 . S
H1329 C1321 0.960 . S
H1330 C1322 0.930 . S
H1331 C1323 0.929 . S
H1332 C1340 0.929 . S
H1333 C1342 0.930 . S
H1334 C1344 0.930 . S
H1335 C1347 0.929 . S
H1336 C1350 0.930 . S
H1337 C1352 0.960 . S
H1338 C1352 0.960 . S
H1339 C1352 0.960 . S
C1340 H1332 0.929 . S
C1340 C1341 1.377 . S
C1340 C1342 1.384 . S
C1341 C1340 1.377 . S
C1341 C1347 1.390 . S
C1342 H1333 0.930 . S
C1342 C1340 1.384 . S
C1342 C1343 1.372 . S
C1343 C1342 1.372 . S
C1343 C1344 1.400 . S
C1343 C1348 1.490 . S
C1344 H1334 0.930 . S
C1344 C1343 1.400 . S
C1344 C1347 1.386 . S
H1345 C1361 0.930 . S
H1346 C1362 0.931 . S
C1347 H1335 0.929 . S
C1347 C1341 1.390 . S
C1347 C1344 1.386 . S
C1348 C1343 1.490 . S
C1348 C1350 1.395 . S
C1348 C1351 1.403 . S
H1349 C1355 0.930 . S
C1350 H1336 0.930 . S
C1350 C1348 1.395 . S
C1350 C1353 1.403 . S
C1351 C1348 1.403 . S
C1351 C1352 1.524 . S
C1351 C1355 1.400 . S
C1352 H1337 0.960 . S
C1352 H1338 0.960 . S
C1352 H1339 0.960 . S
C1352 C1351 1.524 . S
C1353 C1350 1.403 . S
C1353 C1354 1.392 . S
C1353 C1357 1.495 . S
C1354 C1353 1.392 . S
C1354 C1355 1.385 . S
C1354 C1356 1.478 . S
C1355 H1349 0.930 . S
C1355 C1351 1.400 . S
C1355 C1354 1.385 . S
C1356 C1354 1.478 . S
C1356 C1358 1.381 . S
C1356 C1362 1.383 . S
C1357 C1353 1.495 . S
C1357 H1363 0.959 . S
C1357 H1364 0.961 . S
C1357 H1365 0.960 . S
C1358 C1356 1.381 . S
C1358 C1359 1.394 . S
C1358 H1366 0.930 . S
C1359 C1358 1.394 . S
C1359 C1360 1.383 . S
C1359 H1367 0.929 . S
C1360 C1359 1.383 . S
C1360 C1361 1.377 . S
C1361 H1345 0.930 . S
C1361 C1360 1.377 . S
C1361 C1362 1.379 . S
C1362 H1346 0.931 . S
C1362 C1356 1.383 . S
C1362 C1361 1.379 . S
H1363 C1357 0.959 . S
H1364 C1357 0.961 . S
H1365 C1357 0.960 . S
H1366 C1358 0.930 . S
H1367 C1359 0.929 . S
C244 C129 1.078 . S
C225 C5 1.111 . S
C280 C143 1.168 . S
C261 C18 1.159 . S
C316 C151 1.161 . S
C297 C31 1.149 . S
C333 C42 1.037 . S
C352 C109 1.040 . S
C369 C57 1.335 . S
C388 C115 1.362 . S
C405 C70 1.409 . S
C424 C123 1.429 . S
C460 C137 1.450 . S
C441 C81 1.462 . S
C496 C157 1.391 . S
C477 C96 1.379 . S
C513 C29 1.354 . S
C532 C185 1.343 . S
C568 C199 1.405 . S
C549 C44 1.377 . S
C585 C3 1.415 . S
C604 C207 1.388 . S
C640 C171 1.368 . S
C621 C16 1.389 . S
C657 C83 1.106 . S
C676 C165 1.103 . S
C693 C94 1.094 1_655 S
C712 C179 1.127 . S
C748 C193 1.171 . S
C729 C55 1.116 . S
C765 C68 1.152 . S
C784 C213 1.205 . S
C820 C132 1.294 . S
C801 C1 1.324 . S
C856 C155 1.295 . S
C837 C14 1.318 . S
C873 C27 1.273 . S
C892 C113 1.281 . S
C909 C49 1.275 . S
C928 C118 1.260 . S
C945 C53 1.635 . S
C964 C146 1.646 . S
C1000 C104 1.644 . S
C981 C66 1.636 . S
C1036 C127 1.661 . S
C1017 C88 1.684 . S
C1072 C141 1.682 . S
C1053 C92 1.641 . S
C1108 C188 1.664 . S
C1089 C36 1.688 . S
C1144 C211 1.648 . S
C1125 C40 1.604 . S
C1161 C10 1.671 . S
C1180 C160 1.640 . S
C1216 C174 1.622 . S
C1197 C23 1.683 . S
C1252 C202 1.271 . S
C1233 C79 1.315 . S
C1269 C101 1.275 . S
C1288 C169 1.283 . S
C1324 C183 1.288 . S
C1305 C62 1.278 . S
C1360 C197 1.336 . S
C1341 C75 1.344 . S
