# Generated by pormake.
# Topology gar, (4,6)-cn, num edge types: 1
# Building blocks:
#     Node 0, Type 0, BuildingBlock: CEKHIL_clean_sbu_0, # of connection points: 4
#     Node 1, Type 0, BuildingBlock: CEKHIL_clean_sbu_0, # of connection points: 4
#     Node 2, Type 0, BuildingBlock: CEKHIL_clean_sbu_0, # of connection points: 4
#     Node 3, Type 0, BuildingBlock: CEKHIL_clean_sbu_0, # of connection points: 4
#     Node 4, Type 0, BuildingBlock: CEKHIL_clean_sbu_0, # of connection points: 4
#     Node 5, Type 0, BuildingBlock: CEKHIL_clean_sbu_0, # of connection points: 4
#     Node 6, Type 0, BuildingBlock: CEKHIL_clean_sbu_0, # of connection points: 4
#     Node 7, Type 0, BuildingBlock: CEKHIL_clean_sbu_0, # of connection points: 4
#     Node 8, Type 0, BuildingBlock: CEKHIL_clean_sbu_0, # of connection points: 4
#     Node 9, Type 0, BuildingBlock: CEKHIL_clean_sbu_0, # of connection points: 4
#     Node 10, Type 0, BuildingBlock: CEKHIL_clean_sbu_0, # of connection points: 4
#     Node 11, Type 0, BuildingBlock: CEKHIL_clean_sbu_0, # of connection points: 4
#     Node 12, Type 0, BuildingBlock: CEKHIL_clean_sbu_0, # of connection points: 4
#     Node 13, Type 0, BuildingBlock: CEKHIL_clean_sbu_0, # of connection points: 4
#     Node 14, Type 0, BuildingBlock: CEKHIL_clean_sbu_0, # of connection points: 4
#     Node 15, Type 0, BuildingBlock: CEKHIL_clean_sbu_0, # of connection points: 4
#     Node 16, Type 0, BuildingBlock: CEKHIL_clean_sbu_0, # of connection points: 4
#     Node 17, Type 0, BuildingBlock: CEKHIL_clean_sbu_0, # of connection points: 4
#     Node 18, Type 0, BuildingBlock: CEKHIL_clean_sbu_0, # of connection points: 4
#     Node 19, Type 0, BuildingBlock: CEKHIL_clean_sbu_0, # of connection points: 4
#     Node 20, Type 0, BuildingBlock: CEKHIL_clean_sbu_0, # of connection points: 4
#     Node 21, Type 0, BuildingBlock: CEKHIL_clean_sbu_0, # of connection points: 4
#     Node 22, Type 0, BuildingBlock: CEKHIL_clean_sbu_0, # of connection points: 4
#     Node 23, Type 0, BuildingBlock: CEKHIL_clean_sbu_0, # of connection points: 4
#     Node 24, Type 1, BuildingBlock: KUMJIN_clean_sbu_1, # of connection points: 6
#     Node 25, Type 1, BuildingBlock: KUMJIN_clean_sbu_1, # of connection points: 6
#     Node 26, Type 1, BuildingBlock: KUMJIN_clean_sbu_1, # of connection points: 6
#     Node 27, Type 1, BuildingBlock: KUMJIN_clean_sbu_1, # of connection points: 6
#     Node 28, Type 1, BuildingBlock: KUMJIN_clean_sbu_1, # of connection points: 6
#     Node 29, Type 1, BuildingBlock: KUMJIN_clean_sbu_1, # of connection points: 6
#     Node 30, Type 1, BuildingBlock: KUMJIN_clean_sbu_1, # of connection points: 6
#     Node 31, Type 1, BuildingBlock: KUMJIN_clean_sbu_1, # of connection points: 6
#     Node 32, Type 1, BuildingBlock: KUMJIN_clean_sbu_1, # of connection points: 6
#     Node 33, Type 1, BuildingBlock: KUMJIN_clean_sbu_1, # of connection points: 6
#     Node 34, Type 1, BuildingBlock: KUMJIN_clean_sbu_1, # of connection points: 6
#     Node 35, Type 1, BuildingBlock: KUMJIN_clean_sbu_1, # of connection points: 6
#     Node 36, Type 1, BuildingBlock: KUMJIN_clean_sbu_1, # of connection points: 6
#     Node 37, Type 1, BuildingBlock: KUMJIN_clean_sbu_1, # of connection points: 6
#     Node 38, Type 1, BuildingBlock: KUMJIN_clean_sbu_1, # of connection points: 6
#     Node 39, Type 1, BuildingBlock: KUMJIN_clean_sbu_1, # of connection points: 6
#     Edge 40, Type (0, 1), BuildingBlock: AJUNOK_clean_linker_0, # of connection points: 2
#     Edge 41, Type (0, 1), BuildingBlock: AJUNOK_clean_linker_0, # of connection points: 2
#     Edge 42, Type (0, 1), BuildingBlock: AJUNOK_clean_linker_0, # of connection points: 2
#     Edge 43, Type (0, 1), BuildingBlock: AJUNOK_clean_linker_0, # of connection points: 2
#     Edge 44, Type (0, 1), BuildingBlock: AJUNOK_clean_linker_0, # of connection points: 2
#     Edge 45, Type (0, 1), BuildingBlock: AJUNOK_clean_linker_0, # of connection points: 2
#     Edge 46, Type (0, 1), BuildingBlock: AJUNOK_clean_linker_0, # of connection points: 2
#     Edge 47, Type (0, 1), BuildingBlock: AJUNOK_clean_linker_0, # of connection points: 2
#     Edge 48, Type (0, 1), BuildingBlock: AJUNOK_clean_linker_0, # of connection points: 2
#     Edge 49, Type (0, 1), BuildingBlock: AJUNOK_clean_linker_0, # of connection points: 2
#     Edge 50, Type (0, 1), BuildingBlock: AJUNOK_clean_linker_0, # of connection points: 2
#     Edge 51, Type (0, 1), BuildingBlock: AJUNOK_clean_linker_0, # of connection points: 2
#     Edge 52, Type (0, 1), BuildingBlock: AJUNOK_clean_linker_0, # of connection points: 2
#     Edge 53, Type (0, 1), BuildingBlock: AJUNOK_clean_linker_0, # of connection points: 2
#     Edge 54, Type (0, 1), BuildingBlock: AJUNOK_clean_linker_0, # of connection points: 2
#     Edge 55, Type (0, 1), BuildingBlock: AJUNOK_clean_linker_0, # of connection points: 2
#     Edge 56, Type (0, 1), BuildingBlock: AJUNOK_clean_linker_0, # of connection points: 2
#     Edge 57, Type (0, 1), BuildingBlock: AJUNOK_clean_linker_0, # of connection points: 2
#     Edge 58, Type (0, 1), BuildingBlock: AJUNOK_clean_linker_0, # of connection points: 2
#     Edge 59, Type (0, 1), BuildingBlock: AJUNOK_clean_linker_0, # of connection points: 2
#     Edge 60, Type (0, 1), BuildingBlock: AJUNOK_clean_linker_0, # of connection points: 2
#     Edge 61, Type (0, 1), BuildingBlock: AJUNOK_clean_linker_0, # of connection points: 2
#     Edge 62, Type (0, 1), BuildingBlock: AJUNOK_clean_linker_0, # of connection points: 2
#     Edge 63, Type (0, 1), BuildingBlock: AJUNOK_clean_linker_0, # of connection points: 2
#     Edge 64, Type (0, 1), BuildingBlock: AJUNOK_clean_linker_0, # of connection points: 2
#     Edge 65, Type (0, 1), BuildingBlock: AJUNOK_clean_linker_0, # of connection points: 2
#     Edge 66, Type (0, 1), BuildingBlock: AJUNOK_clean_linker_0, # of connection points: 2
#     Edge 67, Type (0, 1), BuildingBlock: AJUNOK_clean_linker_0, # of connection points: 2
#     Edge 68, Type (0, 1), BuildingBlock: AJUNOK_clean_linker_0, # of connection points: 2
#     Edge 69, Type (0, 1), BuildingBlock: AJUNOK_clean_linker_0, # of connection points: 2
#     Edge 70, Type (0, 1), BuildingBlock: AJUNOK_clean_linker_0, # of connection points: 2
#     Edge 71, Type (0, 1), BuildingBlock: AJUNOK_clean_linker_0, # of connection points: 2
#     Edge 72, Type (0, 1), BuildingBlock: AJUNOK_clean_linker_0, # of connection points: 2
#     Edge 73, Type (0, 1), BuildingBlock: AJUNOK_clean_linker_0, # of connection points: 2
#     Edge 74, Type (0, 1), BuildingBlock: AJUNOK_clean_linker_0, # of connection points: 2
#     Edge 75, Type (0, 1), BuildingBlock: AJUNOK_clean_linker_0, # of connection points: 2
#     Edge 76, Type (0, 1), BuildingBlock: AJUNOK_clean_linker_0, # of connection points: 2
#     Edge 77, Type (0, 1), BuildingBlock: AJUNOK_clean_linker_0, # of connection points: 2
#     Edge 78, Type (0, 1), BuildingBlock: AJUNOK_clean_linker_0, # of connection points: 2
#     Edge 79, Type (0, 1), BuildingBlock: AJUNOK_clean_linker_0, # of connection points: 2
#     Edge 80, Type (0, 1), BuildingBlock: AJUNOK_clean_linker_0, # of connection points: 2
#     Edge 81, Type (0, 1), BuildingBlock: AJUNOK_clean_linker_0, # of connection points: 2
#     Edge 82, Type (0, 1), BuildingBlock: AJUNOK_clean_linker_0, # of connection points: 2
#     Edge 83, Type (0, 1), BuildingBlock: AJUNOK_clean_linker_0, # of connection points: 2
#     Edge 84, Type (0, 1), BuildingBlock: AJUNOK_clean_linker_0, # of connection points: 2
#     Edge 85, Type (0, 1), BuildingBlock: AJUNOK_clean_linker_0, # of connection points: 2
#     Edge 86, Type (0, 1), BuildingBlock: AJUNOK_clean_linker_0, # of connection points: 2
#     Edge 87, Type (0, 1), BuildingBlock: AJUNOK_clean_linker_0, # of connection points: 2
#     Edge 88, Type (0, 1), BuildingBlock: AJUNOK_clean_linker_0, # of connection points: 2
#     Edge 89, Type (0, 1), BuildingBlock: AJUNOK_clean_linker_0, # of connection points: 2
#     Edge 90, Type (0, 1), BuildingBlock: AJUNOK_clean_linker_0, # of connection points: 2
#     Edge 91, Type (0, 1), BuildingBlock: AJUNOK_clean_linker_0, # of connection points: 2
#     Edge 92, Type (0, 1), BuildingBlock: AJUNOK_clean_linker_0, # of connection points: 2
#     Edge 93, Type (0, 1), BuildingBlock: AJUNOK_clean_linker_0, # of connection points: 2
#     Edge 94, Type (0, 1), BuildingBlock: AJUNOK_clean_linker_0, # of connection points: 2
#     Edge 95, Type (0, 1), BuildingBlock: AJUNOK_clean_linker_0, # of connection points: 2
#     Edge 96, Type (0, 1), BuildingBlock: AJUNOK_clean_linker_0, # of connection points: 2
#     Edge 97, Type (0, 1), BuildingBlock: AJUNOK_clean_linker_0, # of connection points: 2
#     Edge 98, Type (0, 1), BuildingBlock: AJUNOK_clean_linker_0, # of connection points: 2
#     Edge 99, Type (0, 1), BuildingBlock: AJUNOK_clean_linker_0, # of connection points: 2
#     Edge 100, Type (0, 1), BuildingBlock: AJUNOK_clean_linker_0, # of connection points: 2
#     Edge 101, Type (0, 1), BuildingBlock: AJUNOK_clean_linker_0, # of connection points: 2
#     Edge 102, Type (0, 1), BuildingBlock: AJUNOK_clean_linker_0, # of connection points: 2
#     Edge 103, Type (0, 1), BuildingBlock: AJUNOK_clean_linker_0, # of connection points: 2
#     Edge 104, Type (0, 1), BuildingBlock: AJUNOK_clean_linker_0, # of connection points: 2
#     Edge 105, Type (0, 1), BuildingBlock: AJUNOK_clean_linker_0, # of connection points: 2
#     Edge 106, Type (0, 1), BuildingBlock: AJUNOK_clean_linker_0, # of connection points: 2
#     Edge 107, Type (0, 1), BuildingBlock: AJUNOK_clean_linker_0, # of connection points: 2
#     Edge 108, Type (0, 1), BuildingBlock: AJUNOK_clean_linker_0, # of connection points: 2
#     Edge 109, Type (0, 1), BuildingBlock: AJUNOK_clean_linker_0, # of connection points: 2
#     Edge 110, Type (0, 1), BuildingBlock: AJUNOK_clean_linker_0, # of connection points: 2
#     Edge 111, Type (0, 1), BuildingBlock: AJUNOK_clean_linker_0, # of connection points: 2
#     Edge 112, Type (0, 1), BuildingBlock: AJUNOK_clean_linker_0, # of connection points: 2
#     Edge 113, Type (0, 1), BuildingBlock: AJUNOK_clean_linker_0, # of connection points: 2
#     Edge 114, Type (0, 1), BuildingBlock: AJUNOK_clean_linker_0, # of connection points: 2
#     Edge 115, Type (0, 1), BuildingBlock: AJUNOK_clean_linker_0, # of connection points: 2
#     Edge 116, Type (0, 1), BuildingBlock: AJUNOK_clean_linker_0, # of connection points: 2
#     Edge 117, Type (0, 1), BuildingBlock: AJUNOK_clean_linker_0, # of connection points: 2
#     Edge 118, Type (0, 1), BuildingBlock: AJUNOK_clean_linker_0, # of connection points: 2
#     Edge 119, Type (0, 1), BuildingBlock: AJUNOK_clean_linker_0, # of connection points: 2
#     Edge 120, Type (0, 1), BuildingBlock: AJUNOK_clean_linker_0, # of connection points: 2
#     Edge 121, Type (0, 1), BuildingBlock: AJUNOK_clean_linker_0, # of connection points: 2
#     Edge 122, Type (0, 1), BuildingBlock: AJUNOK_clean_linker_0, # of connection points: 2
#     Edge 123, Type (0, 1), BuildingBlock: AJUNOK_clean_linker_0, # of connection points: 2
#     Edge 124, Type (0, 1), BuildingBlock: AJUNOK_clean_linker_0, # of connection points: 2
#     Edge 125, Type (0, 1), BuildingBlock: AJUNOK_clean_linker_0, # of connection points: 2
#     Edge 126, Type (0, 1), BuildingBlock: AJUNOK_clean_linker_0, # of connection points: 2
#     Edge 127, Type (0, 1), BuildingBlock: AJUNOK_clean_linker_0, # of connection points: 2
#     Edge 128, Type (0, 1), BuildingBlock: AJUNOK_clean_linker_0, # of connection points: 2
#     Edge 129, Type (0, 1), BuildingBlock: AJUNOK_clean_linker_0, # of connection points: 2
#     Edge 130, Type (0, 1), BuildingBlock: AJUNOK_clean_linker_0, # of connection points: 2
#     Edge 131, Type (0, 1), BuildingBlock: AJUNOK_clean_linker_0, # of connection points: 2
#     Edge 132, Type (0, 1), BuildingBlock: AJUNOK_clean_linker_0, # of connection points: 2
#     Edge 133, Type (0, 1), BuildingBlock: AJUNOK_clean_linker_0, # of connection points: 2
#     Edge 134, Type (0, 1), BuildingBlock: AJUNOK_clean_linker_0, # of connection points: 2
#     Edge 135, Type (0, 1), BuildingBlock: AJUNOK_clean_linker_0, # of connection points: 2
# Relax obj value: 0.094
# Max RMSD: 0.190
# Mean RMSD: 0.117
data_MOF--net-gar--node1-CEKHIL_clean_sbu_0--node2-KUMJIN_clean_sbu_1--edge1-AJUNOK_clean_linker_0
_symmetry_space_group_name_H-M    P1
_symmetry_Int_Tables_number       1
_symmetry_cell_setting            triclinic
loop_
_symmetry_equiv_pos_as_xyz
'x, y, z'
_cell_length_a     45.550576
_cell_length_b     44.963127
_cell_length_c     41.185455
_cell_angle_alpha  97.073432
_cell_angle_beta   97.091473
_cell_angle_gamma 102.18169
loop_
_atom_site_label
_atom_site_type_symbol
_atom_site_fract_x
_atom_site_fract_y
_atom_site_fract_z
_atom_type_partial_charge
Co0 Co 0.09486 0.36132 0.37985 0.0
O1 O 0.14032 0.36348 0.38838 0.0
O2 O 0.11436 0.34612 0.34042 0.0
C3 C 0.09702 0.41001 0.41013 0.0
O4 O 0.04605 0.35489 0.36189 0.0
Co5 Co 0.05752 0.36693 0.43958 0.0
O6 O 1.02096 0.36032 0.4058 0.0
C7 C 0.0858 0.31621 0.42539 0.0
C8 C 0.14123 0.35163 0.35833 0.0
C9 C 1.02049 0.35481 0.37458 0.0
O10 O 0.08658 0.31942 0.39476 0.0
O11 O 0.08582 0.339 0.44719 0.0
O12 O 0.10214 0.40742 0.37953 0.0
O13 O 0.09262 0.38439 0.42099 0.0
Co14 Co 0.04781 0.7776 0.72368 0.0
O15 O 1.00199 0.77532 0.7137 0.0
O16 O 1.02197 0.77328 0.76193 0.0
C17 C 0.05759 0.82208 0.70036 0.0
O18 O 0.09686 0.78139 0.74085 0.0
Co19 Co 0.08378 0.78008 0.66382 0.0
O20 O 0.12054 0.79318 0.69771 0.0
C21 C 0.04769 0.72013 0.67293 0.0
C22 C 0.99718 0.77537 0.74375 0.0
C23 C 0.12235 0.78841 0.72765 0.0
O24 O 0.04299 0.73108 0.70262 0.0
O25 O 0.05794 0.73756 0.65266 0.0
O26 O 0.05465 0.82341 0.7313 0.0
O27 O 0.05383 0.79482 0.6852 0.0
Co28 Co 0.59408 0.86 0.87845 0.0
O29 O 0.63966 0.86296 0.88711 0.0
O30 O 0.61416 0.84622 0.83889 0.0
C31 C 0.59487 0.90765 0.91089 0.0
O32 O 0.54534 0.85364 0.86035 0.0
Co33 Co 0.55756 0.86038 0.93853 0.0
O34 O 0.52178 0.85877 0.90524 0.0
C35 C 0.58352 0.80788 0.91783 0.0
C36 C 0.64088 0.85132 0.85709 0.0
C37 C 0.52036 0.85438 0.87382 0.0
O38 O 0.58661 0.8166 0.88952 0.0
O39 O 0.57642 0.82441 0.94185 0.0
O40 O 0.60039 0.90637 0.88046 0.0
O41 O 0.59151 0.88144 0.92062 0.0
Co42 Co 0.54754 0.27915 0.2232 0.0
O43 O 0.50194 0.27754 0.2122 0.0
O44 O 0.52074 0.27346 0.26038 0.0
C45 C 0.55822 0.32397 0.20148 0.0
O46 O 0.59591 0.28229 0.2426 0.0
Co47 Co 0.58881 0.2837 0.16808 0.0
O48 O 0.62494 0.29321 0.20277 0.0
C49 C 0.5507 0.22244 0.17309 0.0
C50 C 0.49638 0.2764 0.24195 0.0
C51 C 0.62302 0.28889 0.23246 0.0
O52 O 0.54224 0.23298 0.20096 0.0
O53 O 0.5663 0.23984 0.15605 0.0
O54 O 0.55464 0.32467 0.23222 0.0
O55 O 0.55575 0.29713 0.18547 0.0
Co56 Co 0.10356 0.83343 0.13343 0.0
O57 O 0.05906 0.8263 0.1251 0.0
O58 O 0.08604 0.82523 0.17261 0.0
C59 C 0.10779 0.88301 0.11106 0.0
O60 O 0.14764 0.84197 0.1599 0.0
Co61 Co 0.13457 0.82536 0.09631 0.0
O62 O 0.16936 0.8165 0.12604 0.0
C63 C 0.10732 0.7659 0.09868 0.0
C64 C 0.0596 0.82314 0.15603 0.0
C65 C 0.16977 0.82924 0.1551 0.0
O66 O 0.0984 0.78376 0.12116 0.0
O67 O 0.12435 0.77974 0.08066 0.0
O68 O 0.10632 0.87912 0.14122 0.0
O69 O 0.10911 0.8574 0.09267 0.0
Co70 Co 0.53687 0.80452 0.46833 0.0
O71 O 0.58096 0.8157 0.47889 0.0
O72 O 0.55483 0.79484 0.42967 0.0
C73 C 0.53211 0.85486 0.49178 0.0
O74 O 0.49304 0.79401 0.44166 0.0
Co75 Co 0.49824 0.79275 0.50869 0.0
O76 O 0.46116 0.79386 0.47747 0.0
C77 C 0.52815 0.74273 0.50234 0.0
C78 C 0.58093 0.80689 0.44766 0.0
C79 C 0.46593 0.79354 0.44785 0.0
O80 O 0.53841 0.75918 0.4803 0.0
O81 O 0.51021 0.75333 0.51957 0.0
O82 O 0.53722 0.8475 0.46222 0.0
O83 O 0.5301 0.83186 0.50903 0.0
Co84 Co 0.59898 0.33063 0.63164 0.0
O85 O 0.55459 0.32356 0.62045 0.0
O86 O 0.57903 0.32049 0.66891 0.0
C87 C 0.60612 0.38117 0.61146 0.0
O88 O 0.64206 0.33683 0.65981 0.0
Co89 Co 0.63615 0.32652 0.59367 0.0
O90 O 0.67386 0.3301 0.62551 0.0
C91 C 0.60762 0.26527 0.59772 0.0
C92 C 0.55342 0.31885 0.65078 0.0
C93 C 0.66895 0.3344 0.655 0.0
O94 O 0.59469 0.28193 0.61717 0.0
O95 O 0.6275 0.27987 0.58285 0.0
O96 O 0.60167 0.37612 0.64074 0.0
O97 O 0.60775 0.35573 0.59282 0.0
Co98 Co 0.03667 0.30332 0.96554 0.0
O99 O 0.08058 0.31393 0.97825 0.0
O100 O 0.05656 0.29222 0.92861 0.0
C101 C 0.03263 0.35548 0.98612 0.0
O102 O 0.99349 0.29288 0.93753 0.0
Co103 Co 1.00062 0.29303 1.00524 0.0
O104 O 0.96361 0.29594 0.97475 0.0
C105 C 1.02929 0.24304 1.00147 0.0
C106 C 0.08218 0.30352 0.94789 0.0
C107 C 0.96706 0.2943 0.9446 0.0
O108 O 0.03697 0.2577 0.97726 0.0
O109 O 1.01391 0.25556 0.0205 0.0
O110 O 0.03782 0.34581 0.9573 0.0
O111 O 1.02982 0.33377 1.00499 0.0
Co112 Co 0.41918 0.04441 0.35475 0.0
O113 O 0.42124 0.08722 0.35627 0.0
O114 O 0.381 0.04868 0.33554 0.0
C115 C 0.44139 0.04551 0.40525 0.0
O116 O 0.40789 0.99885 0.34872 0.0
Co117 Co 0.47744 1.01816 0.36208 0.0
O118 O 0.44824 0.97745 0.3486 0.0
C119 C 0.46136 0.04636 0.30601 0.0
C120 C 0.39338 0.07792 0.34086 0.0
C121 C 0.41971 0.97568 0.34454 0.0
O122 O 0.43364 0.04229 0.31084 0.0
O123 O 0.48293 0.04769 0.32945 0.0
O124 O 0.41285 0.04647 0.40077 0.0
O125 O 0.45582 0.04752 0.38038 0.0
Co126 Co 0.29374 0.20978 0.52726 0.0
O127 O 0.33793 0.21825 0.53206 0.0
O128 O 0.30764 0.1747 0.53841 0.0
C129 C 0.28971 0.23031 0.47747 0.0
O130 O 0.24939 0.18665 0.52434 0.0
Co131 Co 0.25213 0.24985 0.52601 0.0
O132 O 0.21565 0.21546 0.52149 0.0
C133 C 0.28549 0.24752 0.59153 0.0
C134 C 0.33492 0.19016 0.53837 0.0
C135 C 0.22189 0.18947 0.52287 0.0
O136 O 0.29612 0.22584 0.57699 0.0
O137 O 0.2684 0.2612 0.57477 0.0
O138 O 0.29179 0.20211 0.47886 0.0
O139 O 0.28857 0.24573 0.50606 0.0
Co140 Co 0.17088 0.08352 0.82465 0.0
O141 O 0.16319 0.03891 0.81848 0.0
O142 O 0.206 0.07072 0.8129 0.0
C143 C 0.15049 0.08676 0.87398 0.0
O144 O 0.19235 0.12903 0.82936 0.0
Co145 Co 0.12716 0.12227 0.82423 0.0
O146 O 0.16038 0.15977 0.8302 0.0
C147 C 0.13474 0.09283 0.75931 0.0
C148 C 0.1908 0.0428 0.81168 0.0
C149 C 0.18721 0.15602 0.83027 0.0
O150 O 0.15537 0.0819 0.77507 0.0
O151 O 0.11961 0.10929 0.77472 0.0
O152 O 0.17835 0.08463 0.87281 0.0
O153 O 0.13501 0.08713 0.84528 0.0
Co154 Co 0.33295 0.97027 1.00283 0.0
O155 O 0.29103 0.96851 0.99992 0.0
O156 O 0.32863 1.01015 0.01868 0.0
C157 C 0.32874 0.94432 0.95412 0.0
O158 O 0.37819 0.98044 0.00855 0.0
Co159 Co 0.35812 0.91085 0.99766 0.0
O160 O 0.39851 0.9393 1.00128 0.0
C161 C 0.33037 0.93107 0.05487 0.0
C162 C 0.29966 0.99748 0.01236 0.0
C163 C 0.401 0.9683 1.00714 0.0
O164 O 0.33388 0.95841 0.04771 0.0
O165 O 0.33386 0.90821 0.03508 0.0
O166 O 0.33091 0.97383 0.95634 0.0
O167 O 0.32817 0.93185 0.98046 0.0
Co168 Co 0.34324 0.41468 0.05858 0.0
O169 O 0.29935 0.40658 0.05153 0.0
O170 O 0.33059 0.45114 0.0742 0.0
C171 C 0.34651 0.39276 1.00552 0.0
O172 O 0.38826 0.43628 0.06767 0.0
Co173 Co 0.38223 0.37023 0.05743 0.0
O174 O 0.41802 0.40412 0.05691 0.0
C175 C 0.34934 0.37597 0.11479 0.0
C176 C 0.30309 0.43553 0.06354 0.0
C177 C 0.41436 0.43128 0.06364 0.0
O178 O 0.34232 0.40008 0.10456 0.0
O179 O 0.36414 0.3601 0.09803 0.0
O180 O 0.3435 0.42079 0.01214 0.0
O181 O 0.34659 0.37786 0.03067 0.0
Co182 Co 0.80421 0.15963 0.08709 0.0
O183 O 0.84697 0.16796 0.09843 0.0
O184 O 0.81534 0.12368 0.1007 0.0
C185 C 0.80663 0.17899 0.04015 0.0
O186 O 0.7587 0.14331 0.07633 0.0
Co187 Co 0.77091 0.2125 0.07387 0.0
O188 O 0.73589 0.17812 0.0556 0.0
C189 C 0.79175 0.20107 0.14216 0.0
C190 C 0.84321 0.13931 0.10223 0.0
C191 C 0.73519 0.15126 0.06275 0.0
O192 O 0.80044 0.17658 0.1327 0.0
O193 O 0.78219 0.21837 0.12281 0.0
O194 O 0.80778 0.15042 0.04031 0.0
O195 O 0.80485 0.19455 0.06784 0.0
Co196 Co 0.2196 0.57952 0.26389 0.0
O197 O 0.21256 0.5365 0.24972 0.0
O198 O 0.2566 0.57012 0.25313 0.0
C199 C 0.19545 0.57333 0.30737 0.0
O200 O 0.23549 0.62528 0.27828 0.0
Co201 Co 0.16727 0.6135 0.27498 0.0
O202 O 0.20042 0.64802 0.2977 0.0
C203 C 0.1822 0.5945 0.20771 0.0
C204 C 0.24148 0.54153 0.24846 0.0
C205 C 0.22749 0.64868 0.2925 0.0
O206 O 0.20637 0.58607 0.21819 0.0
O207 O 0.16392 0.60313 0.22613 0.0
O208 O 0.224 0.5725 0.31006 0.0
O209 O 0.18309 0.57756 0.27916 0.0
Co210 Co 0.84321 0.91233 0.55901 0.0
O211 O 0.79941 0.9009 0.55007 0.0
O212 O 0.82697 0.94657 0.57442 0.0
C213 C 0.84841 0.89205 0.50605 0.0
O214 O 0.88777 0.93622 0.57 0.0
Co215 Co 0.8846 0.87057 0.55924 0.0
O216 O 0.91582 0.90559 0.54996 0.0
C217 C 0.85137 0.87485 0.61634 0.0
C218 C 0.80038 0.92921 0.56231 0.0
C219 C 0.91234 0.93237 0.5596 0.0
O220 O 0.84233 0.89737 0.6046 0.0
O221 O 0.86767 0.85985 0.60071 0.0
O222 O 0.84401 0.91951 0.51311 0.0
O223 O 0.84912 0.87684 0.531 0.0
Co224 Co 0.96853 0.03856 0.28948 0.0
O225 O 0.97809 0.08317 0.29788 0.0
O226 O 0.93416 0.05348 0.27276 0.0
C227 C 0.98806 0.03337 0.34259 0.0
O228 O 0.94615 0.99329 0.27804 0.0
Co229 Co 1.01009 0.99618 0.29193 0.0
O230 O 0.97508 0.96662 0.30338 0.0
C231 C 1.00678 0.02961 0.23412 0.0
C232 C 0.95004 0.08092 0.28472 0.0
C233 C 0.94898 0.96966 0.29155 0.0
O234 O 0.98441 0.03941 0.24469 0.0
O235 O 1.02057 1.01266 0.25028 0.0
O236 O 0.96104 0.03804 0.33532 0.0
O237 O 1.00339 0.03284 0.31802 0.0
Co238 Co 0.30549 0.66032 0.58441 0.0
O239 O 0.34797 0.6689 0.59741 0.0
O240 O 0.31656 0.62365 0.59631 0.0
C241 C 0.30901 0.68207 0.53887 0.0
O242 O 0.2598 0.64456 0.57189 0.0
Co243 Co 0.27434 0.71555 0.57428 0.0
O244 O 0.23948 0.682 0.55327 0.0
C245 C 0.29375 0.70008 0.64094 0.0
C246 C 0.34441 0.63997 0.59968 0.0
C247 C 0.23721 0.65446 0.5589 0.0
O248 O 0.30052 0.67491 0.63014 0.0
O249 O 0.28615 0.71934 0.62295 0.0
O250 O 0.31047 0.65346 0.53779 0.0
O251 O 0.30711 0.69634 0.56719 0.0
Co252 Co 0.46963 0.54072 0.79278 0.0
O253 O 0.47722 0.58535 0.79974 0.0
O254 O 0.43425 0.55337 0.7751 0.0
C255 C 0.4892 0.53756 0.84681 0.0
O256 O 0.44817 0.49522 0.78346 0.0
Co257 Co 0.51375 0.50132 0.79672 0.0
O258 O 0.47968 0.46639 0.79949 0.0
C259 C 0.50892 0.53265 0.73773 0.0
C260 C 0.44881 0.58129 0.78685 0.0
C261 C 0.45298 0.46951 0.7904 0.0
O262 O 0.48554 0.54097 0.74766 0.0
O263 O 0.52412 0.51761 0.75504 0.0
O264 O 0.46181 0.54085 0.83845 0.0
O265 O 0.50498 0.53716 0.82254 0.0
Co266 Co 0.71721 0.07637 0.76074 0.0
O267 O 0.70618 0.0328 0.75044 0.0
O268 O 0.75171 0.06225 0.74906 0.0
C269 C 0.69661 0.0769 0.80706 0.0
O270 O 0.73656 0.1218 0.77062 0.0
Co271 Co 0.66938 0.1161 0.77169 0.0
O272 O 0.70544 0.14753 0.79428 0.0
C273 C 0.68093 0.09259 0.70409 0.0
C274 C 0.73482 0.03497 0.74905 0.0
C275 C 0.73127 0.14595 0.7865 0.0
O276 O 0.70259 0.0804 0.71455 0.0
O277 O 0.66516 0.1055 0.72269 0.0
O278 O 0.72417 0.07323 0.8078 0.0
O279 O 0.68267 0.07933 0.77877 0.0
Co280 Co 0.79612 0.71012 0.02602 0.0
O281 O 0.84012 0.71873 0.03131 0.0
O282 O 0.80959 0.67481 0.03653 0.0
C283 C 0.79165 0.73118 0.97715 0.0
O284 O 0.75164 0.68741 0.02233 0.0
Co285 Co 0.75561 0.75218 0.0268 0.0
O286 O 0.71907 0.71754 0.01947 0.0
C287 C 0.78804 0.74656 0.09127 0.0
C288 C 0.83693 0.69056 0.03744 0.0
C289 C 0.72441 0.69106 0.02033 0.0
O290 O 0.79847 0.72533 0.0757 0.0
O291 O 0.77118 0.76135 0.07585 0.0
O292 O 0.79449 0.70312 0.97774 0.0
O293 O 0.79112 0.74638 1.00604 0.0
Co294 Co 0.92019 0.54568 0.85409 0.0
O295 O 0.92551 0.58894 0.85918 0.0
O296 O 0.88229 0.55421 0.83884 0.0
C297 C 0.94491 0.54517 0.90291 0.0
O298 O 0.90661 0.49995 0.84546 0.0
Co299 Co 0.97619 0.51617 0.85557 0.0
O300 O 0.94548 0.47651 0.84588 0.0
C301 C 0.95715 0.5455 0.79934 0.0
C302 C 0.89716 0.58288 0.84581 0.0
C303 C 0.91715 0.47583 0.84145 0.0
O304 O 0.93141 0.54525 0.80887 0.0
O305 O 0.97956 0.53957 0.81731 0.0
O306 O 0.91644 0.5462 0.90051 0.0
O307 O 0.95756 0.54654 0.87676 0.0
Co308 Co 0.83532 0.4656 0.498 0.0
O309 O 0.79324 0.4645 0.49573 0.0
O310 O 0.83168 0.50448 0.51787 0.0
C311 C 0.83379 0.44353 0.44731 0.0
O312 O 0.88044 0.47571 0.50436 0.0
Co313 Co 0.86034 0.40596 0.48886 0.0
O314 O 0.90116 0.43477 0.49937 0.0
C315 C 0.83016 0.42081 0.54327 0.0
C316 C 0.80264 0.49267 0.51111 0.0
C317 C 0.90347 0.46377 0.50526 0.0
O318 O 0.83611 0.44959 0.54113 0.0
O319 O 0.82778 0.40066 0.51785 0.0
O320 O 0.83401 0.47273 0.45221 0.0
O321 O 0.83155 0.42871 0.47194 0.0
Co322 Co 0.67028 0.585 0.32614 0.0
O323 O 0.66191 0.54043 0.32095 0.0
O324 O 0.70511 0.57155 0.31498 0.0
C325 C 0.64971 0.58918 0.37537 0.0
O326 O 0.69277 0.62984 0.32965 0.0
Co327 Co 0.62994 0.62659 0.32607 0.0
O328 O 0.6641 0.66369 0.33267 0.0
C329 C 0.63465 0.59396 0.26104 0.0
C330 C 0.68955 0.54392 0.31429 0.0
C331 C 0.68992 0.65764 0.33142 0.0
O332 O 0.6551 0.58263 0.27641 0.0
O333 O 0.62051 0.61128 0.27687 0.0
O334 O 0.67755 0.58688 0.37434 0.0
O335 O 0.63454 0.5901 0.34666 0.0
Eu336 Eu 0.1089 0.08459 0.07384 0.0
C337 C 1.01783 0.97468 0.98788 0.0
N338 N 1.02955 1.00396 0.98285 0.0
C339 C 0.03341 0.9852 0.9268 0.0
C340 C 1.01502 0.94938 0.96293 0.0
C341 C 0.03564 1.00957 0.9522 0.0
C342 C 1.02386 0.95496 0.93246 0.0
C343 C 0.99403 0.94016 0.02314 0.0
C344 C 1.00801 0.9699 0.01792 0.0
C345 C 0.99185 0.91494 0.99862 0.0
C346 C 1.00311 0.91945 0.96905 0.0
Eu347 Eu 0.03346 0.04278 0.02867 0.0
N348 N 1.01262 0.99438 0.04233 0.0
C349 C 0.9831 0.93663 0.05309 0.0
C350 C 1.0011 0.99129 0.07108 0.0
C351 C 0.98635 0.96241 0.07702 0.0
H352 H 0.04154 0.03268 0.94665 0.0
H353 H 0.97731 0.9601 0.09992 0.0
H354 H 0.09519 0.09844 0.1533 0.0
H355 H 0.16064 0.16445 0.99639 0.0
H356 H 1.00235 1.01116 0.08903 0.0
H357 H 0.97188 0.91418 0.05784 0.0
H358 H 0.13856 0.11383 0.01042 0.0
H359 H 0.03882 0.98977 0.90277 0.0
H360 H 0.98178 0.8918 1.00241 0.0
H361 H 1.00205 0.89954 0.95089 0.0
H362 H 0.09559 0.14283 0.19418 0.0
H363 H 1.0225 0.93619 0.91275 0.0
H364 H 0.16478 0.21153 0.03627 0.0
N365 N 0.1091 0.12507 0.11623 0.0
C366 C 0.12118 0.15382 0.10987 0.0
C367 C 0.10238 0.14624 0.17038 0.0
C368 C 0.1232 0.18 0.13342 0.0
C369 C 0.10133 0.12097 0.14663 0.0
C370 C 0.11251 0.17588 0.1634 0.0
N371 N 0.12742 0.13184 0.0562 0.0
C372 C 0.13856 0.1341 0.02713 0.0
C373 C 0.14406 0.18672 0.07261 0.0
C374 C 0.13106 0.15724 0.0794 0.0
C375 C 0.15441 0.18928 0.04223 0.0
C376 C 0.15188 0.16281 0.01953 0.0
H377 H 0.1124 0.19535 0.18163 0.0
H378 H 0.1365 0.22988 0.14354 0.0
H379 H 0.15597 0.23556 0.09128 0.0
O380 O 0.15483 0.08597 0.06459 0.0
O381 O 0.07595 0.11768 0.06031 0.0
O382 O 0.043 0.09261 0.0142 0.0
O383 O 0.1462 0.09529 0.11495 0.0
O384 O 0.10896 0.0612 0.02101 0.0
O385 O 0.06428 0.06697 0.99512 0.0
O386 O 0.99239 0.05107 0.04521 0.0
O387 O 0.06144 1.0067 0.04657 0.0
O388 O 0.10385 0.03306 0.08289 0.0
O389 O 0.9912 0.03241 0.99369 0.0
O390 O 0.03491 0.06353 0.08326 0.0
O391 O 0.08049 0.05821 0.10668 0.0
C392 C 0.05695 0.11906 0.03339 0.0
C393 C 0.18589 0.07086 0.10627 0.0
C394 C 0.22186 0.04112 0.09232 0.0
C395 C 0.22686 0.03544 0.12497 0.0
C396 C 0.19055 0.06514 0.13913 0.0
C397 C 0.21103 0.0474 0.14835 0.0
C398 C 0.20155 0.05858 0.08301 0.0
C399 C 0.09252 0.06517 0.99403 0.0
C400 C 0.16606 0.09067 0.096 0.0
C401 C 0.13543 0.2094 0.12618 0.0
C402 C 0.14625 0.21271 0.09618 0.0
C403 C 0.0856 1.0062 0.06838 0.0
C404 C 0.95182 0.05699 1.00695 0.0
C405 C 0.91278 0.08125 0.02456 0.0
C406 C 0.89965 0.07911 0.9915 0.0
C407 C 0.9388 0.05484 0.97374 0.0
C408 C 0.93878 0.07049 0.0322 0.0
C409 C 0.91282 0.06606 0.9661 0.0
C410 C 0.0521 0.05797 0.10886 0.0
C411 C 0.97581 0.04126 0.01617 0.0
H412 H 0.2432 1.02222 0.13231 0.0
H413 H 0.17869 0.07454 0.15766 0.0
H414 H 0.21482 0.04316 0.17366 0.0
H415 H 0.19886 0.06344 0.05775 0.0
H416 H 0.87934 0.08749 0.98545 0.0
H417 H 0.94814 0.04384 0.95384 0.0
H418 H 0.94816 0.0718 0.05803 0.0
H419 H 0.90262 0.06416 0.94055 0.0
Eu420 Eu 0.28984 0.8111 0.34009 0.0
C421 C 0.36623 0.7601 0.22118 0.0
N422 N 0.37753 0.78188 0.24832 0.0
C423 C 0.42193 0.76163 0.25779 0.0
C424 C 0.38213 0.73744 0.212 0.0
C425 C 0.40494 0.78298 0.26663 0.0
C426 C 0.41038 0.73861 0.2305 0.0
C427 C 0.32493 0.7359 0.1765 0.0
C428 C 0.338 0.75959 0.20343 0.0
C429 C 0.34052 0.71306 0.1677 0.0
C430 C 0.36911 0.71395 0.18523 0.0
Eu431 Eu 0.34568 0.8141 0.26461 0.0
N432 N 0.32285 0.78142 0.21332 0.0
C433 C 0.29638 0.73559 0.15936 0.0
C434 C 0.29596 0.78229 0.19489 0.0
C435 C 0.2821 0.75918 0.16827 0.0
H436 H 0.41374 0.80036 0.28818 0.0
H437 H 0.26041 0.7597 0.15451 0.0
H438 H 0.22237 0.82555 0.31666 0.0
H439 H 0.37882 0.87071 0.44551 0.0
H440 H 0.28479 0.80068 0.19969 0.0
H441 H 0.28546 0.7176 0.13883 0.0
H442 H 0.35422 0.82915 0.40135 0.0
H443 H 0.44369 0.76264 0.27232 0.0
H444 H 0.33066 0.69459 0.1473 0.0
H445 H 0.38085 0.69615 0.1781 0.0
H446 H 0.19252 0.86341 0.33228 0.0
H447 H 0.42334 0.7217 0.22411 0.0
H448 H 0.35318 0.91212 0.46179 0.0
N449 N 0.25929 0.84502 0.35548 0.0
C450 C 0.27107 0.86749 0.38184 0.0
C451 C 0.21458 0.86485 0.3464 0.0
C452 C 0.2551 0.8901 0.39104 0.0
C453 C 0.23153 0.84342 0.33767 0.0
C454 C 0.22645 0.88837 0.37312 0.0
N455 N 0.3147 0.84666 0.38907 0.0
C456 C 0.34243 0.8469 0.4065 0.0
C457 C 0.31307 0.8928 0.42523 0.0
C458 C 0.29967 0.8686 0.39887 0.0
C459 C 0.34205 0.89379 0.44168 0.0
C460 C 0.35662 0.87055 0.43248 0.0
H461 H 0.21344 0.90523 0.37953 0.0
H462 H 0.25649 0.93167 0.42455 0.0
H463 H 0.30736 0.9342 0.45428 0.0
O464 O 0.28548 0.77073 0.36424 0.0
O465 O 0.30765 0.85965 0.33201 0.0
O466 O 0.34137 0.83742 0.31356 0.0
O467 O 0.24496 0.78487 0.34536 0.0
O468 O 0.33577 0.79564 0.3536 0.0
O469 O 0.37023 0.81036 0.31673 0.0
O470 O 0.35002 0.8579 0.2473 0.0
O471 O 0.32667 0.76409 0.26739 0.0
O472 O 0.30213 0.79097 0.2946 0.0
O473 O 0.3899 0.83956 0.25632 0.0
O474 O 0.29871 0.82769 0.25168 0.0
O475 O 0.26389 0.81059 0.28735 0.0
C476 C 0.33126 0.86211 0.31733 0.0
C477 C 0.24467 0.76103 0.39339 0.0
C478 C 0.25034 0.73909 0.44363 0.0
C479 C 0.22829 0.75327 0.45547 0.0
C480 C 0.22231 0.77506 0.40488 0.0
C481 C 0.21398 0.77086 0.43582 0.0
C482 C 0.25795 0.74245 0.41252 0.0
C483 C 0.36369 0.79995 0.34478 0.0
C484 C 0.25612 0.76644 0.36265 0.0
C485 C 0.26835 0.914 0.41732 0.0
C486 C 0.29732 0.91545 0.43423 0.0
C487 C 0.3062 0.76383 0.28599 0.0
C488 C 0.38814 0.87135 0.21507 0.0
C489 C 0.37719 0.8941 0.16638 0.0
C490 C 0.40463 0.89017 0.15655 0.0
C491 C 0.41628 0.86847 0.20601 0.0
C492 C 0.36889 0.88466 0.1953 0.0
C493 C 0.42442 0.8778 0.17664 0.0
C494 C 0.2706 0.82188 0.25983 0.0
C495 C 0.37881 0.86138 0.24531 0.0
H496 H 0.22253 0.751 0.47994 0.0
H497 H 0.21172 0.78956 0.39036 0.0
H498 H 0.19696 0.78183 0.44489 0.0
H499 H 0.27551 0.73185 0.40396 0.0
H500 H 0.41036 0.89649 0.13323 0.0
H501 H 0.43176 0.8588 0.22138 0.0
H502 H 0.34729 0.88763 0.20211 0.0
H503 H 0.44587 0.87521 0.16935 0.0
Eu504 Eu 0.52557 0.05647 0.57408 0.0
C505 C 0.6315 0.11365 0.48735 0.0
N506 N 0.61139 0.08572 0.48088 0.0
C507 C 0.60123 0.0915 0.42366 0.0
C508 C 0.63582 0.13227 0.46234 0.0
C509 C 0.59799 0.07366 0.44902 0.0
C510 C 0.61965 0.12121 0.4305 0.0
C511 C 0.67223 0.15054 0.52473 0.0
C512 C 0.64964 0.1228 0.51832 0.0
C513 C 0.67516 0.16984 0.50047 0.0
C514 C 0.65699 0.16076 0.46939 0.0
Eu515 Eu 0.60572 0.06021 0.52767 0.0
N516 N 0.64621 0.10402 0.54169 0.0
C517 C 0.69161 0.15782 0.55517 0.0
C518 C 0.66655 0.10979 0.5702 0.0
C519 C 0.6891 0.13705 0.57776 0.0
H520 H 0.58485 0.05019 0.44271 0.0
H521 H 0.70472 0.14184 0.6008 0.0
H522 H 0.5527 0.05996 0.65828 0.0
H523 H 0.42363 0.98289 0.50087 0.0
H524 H 0.66589 0.0932 0.58691 0.0
H525 H 0.70916 0.17894 0.56103 0.0
H526 H 0.46847 0.02617 0.51303 0.0
H527 H 0.58984 0.08215 0.39871 0.0
H528 H 0.69202 0.19146 0.50519 0.0
H529 H 0.66022 0.17548 0.45057 0.0
H530 H 0.54542 0.02665 0.69989 0.0
H531 H 0.62233 0.13485 0.41067 0.0
H532 H 0.41451 0.94674 0.54112 0.0
N533 N 0.52304 0.02766 0.61867 0.0
C534 C 0.50051 1.00125 0.6116 0.0
C535 C 0.53319 1.0189 0.675 0.0
C536 C 0.49442 0.98237 0.63615 0.0
C537 C 0.53791 0.03744 0.65052 0.0
C538 C 0.51175 0.99102 0.66767 0.0
N539 N 0.4866 1.01257 0.55719 0.0
C540 C 0.46588 1.00936 0.5294 0.0
C541 C 0.4556 0.96935 0.57515 0.0
C542 C 0.48137 0.99419 0.5808 0.0
C543 C 0.43477 0.96526 0.54602 0.0
C544 C 0.43991 0.98543 0.52309 0.0
H545 H 0.50764 0.97713 0.68707 0.0
H546 H 0.46542 0.94162 0.64789 0.0
H547 H 0.4313 0.93054 0.59484 0.0
O548 O 0.48928 0.07822 0.55489 0.0
O549 O 0.53043 1.00752 0.54677 0.0
O550 O 0.57647 1.01041 0.52538 0.0
O551 O 0.49463 0.06924 0.60559 0.0
O552 O 0.54554 0.07143 0.5308 0.0
O553 O 0.5633 0.04711 0.49094 0.0
O554 O 0.64368 0.04266 0.55037 0.0
O555 O 0.60018 0.10948 0.55352 0.0
O556 O 0.55507 0.10709 0.5775 0.0
O557 O 0.62626 0.03048 0.49751 0.0
O558 O 0.58314 0.04869 0.57018 0.0
O559 O 0.56743 0.0734 0.61089 0.0
C560 C 0.55041 0.99405 0.53215 0.0
C561 C 0.47049 0.10911 0.59555 0.0
C562 C 0.43491 0.14188 0.58935 0.0
C563 C 0.44428 0.15558 0.6225 0.0
C564 C 0.48034 0.12364 0.6286 0.0
C565 C 0.46717 0.14671 0.64193 0.0
C566 C 0.44797 0.11866 0.57581 0.0
C567 C 0.54026 0.05485 0.50198 0.0
C568 C 0.47964 0.0809 0.58343 0.0
C569 C 0.47016 0.95632 0.62931 0.0
C570 C 0.45067 0.95002 0.5991 0.0
C571 C 0.58083 0.12329 0.56917 0.0
C572 C 0.67583 0.02538 0.514 0.0
C573 C 0.71626 0.99809 0.51813 0.0
C574 C 0.72667 1.01013 0.49071 0.0
C575 C 0.68674 0.03796 0.487 0.0
C576 C 0.69099 1.0059 0.52991 0.0
C577 C 0.71208 0.03024 0.4754 0.0
C578 C 0.58977 0.06472 0.59938 0.0
C579 C 0.64596 0.02748 0.52198 0.0
H580 H 0.43359 0.17292 0.63338 0.0
H581 H 0.49753 0.11659 0.64452 0.0
H582 H 0.47435 0.15734 0.66752 0.0
H583 H 0.43963 0.10714 0.55061 0.0
H584 H 0.74616 1.00404 0.4813 0.0
H585 H 0.67503 0.05276 0.47415 0.0
H586 H 0.68244 0.99582 0.55051 0.0
H587 H 0.7201 0.03942 0.45419 0.0
Eu588 Eu 0.35422 0.29205 0.80579 0.0
C589 C 0.25075 0.35073 0.73632 0.0
N590 N 0.27379 0.36376 0.76162 0.0
C591 C 0.27721 0.41313 0.7442 0.0
C592 C 0.23986 0.36881 0.71404 0.0
C593 C 0.28726 0.39442 0.76574 0.0
C594 C 0.25333 0.40032 0.71835 0.0
C595 C 0.2158 0.30495 0.7047 0.0
C596 C 0.23868 0.31903 0.73186 0.0
C597 C 0.2044 0.3231 0.68314 0.0
C598 C 0.21633 0.35492 0.68783 0.0
Eu599 Eu 0.286 0.33094 0.79887 0.0
N600 N 0.2506 0.30179 0.75269 0.0
C601 C 0.20552 0.27291 0.69943 0.0
C602 C 0.24096 0.27043 0.74702 0.0
C603 C 0.21839 0.25558 0.7205 0.0
H604 H 0.30479 0.40473 0.78651 0.0
H605 H 0.2111 0.23071 0.71621 0.0
H606 H 0.3374 0.21792 0.81627 0.0
H607 H 0.44038 0.38856 0.87862 0.0
H608 H 0.25113 0.25646 0.7619 0.0
H609 H 0.18812 0.26128 0.67877 0.0
H610 H 0.40186 0.36187 0.83119 0.0
H611 H 0.28765 0.4375 0.74782 0.0
H612 H 0.18673 0.31265 0.66233 0.0
H613 H 0.20762 0.36851 0.6706 0.0
H614 H 0.34854 0.1861 0.85896 0.0
H615 H 0.24557 0.41493 0.70173 0.0
H616 H 0.45253 0.36106 0.92513 0.0
N617 N 0.36381 0.25966 0.84467 0.0
C618 C 0.38426 0.27313 0.87217 0.0
C619 C 0.3584 0.21062 0.86321 0.0
C620 C 0.39207 0.25571 0.89675 0.0
C621 C 0.35153 0.22875 0.83943 0.0
C622 C 0.37853 0.2242 0.89216 0.0
N623 N 0.39059 0.32041 0.851 0.0
C624 C 0.40612 0.34995 0.8515 0.0
C625 C 0.42047 0.31847 0.90292 0.0
C626 C 0.39829 0.30422 0.87527 0.0
C627 C 0.43528 0.34934 0.90438 0.0
C628 C 0.42844 0.36497 0.87824 0.0
H629 H 0.38401 0.21002 0.91043 0.0
H630 H 0.41974 0.25704 0.94388 0.0
H631 H 0.4446 0.31192 0.94925 0.0
O632 O 0.39347 0.30476 0.77963 0.0
O633 O 0.34079 0.31226 0.85523 0.0
O634 O 0.32223 0.3538 0.84296 0.0
O635 O 0.37957 0.25807 0.791 0.0
O636 O 0.35771 0.33488 0.78019 0.0
O637 O 0.33115 0.36593 0.80606 0.0
O638 O 0.25193 0.32096 0.83219 0.0
O639 O 0.29985 0.31305 0.74932 0.0
O640 O 0.32052 0.27192 0.75837 0.0
O641 O 0.25831 0.36339 0.81071 0.0
O642 O 0.2822 0.28827 0.82448 0.0
O643 O 0.30883 0.25654 0.79966 0.0
C644 C 0.33366 0.3387 0.86475 0.0
C645 C 0.42409 0.26792 0.764 0.0
C646 C 0.46301 0.274 0.72792 0.0
C647 C 0.47323 0.24933 0.73961 0.0
C648 C 0.43477 0.2433 0.77514 0.0
C649 C 0.45921 0.23416 0.76306 0.0
C650 C 0.43846 0.28353 0.7404 0.0
C651 C 0.35403 0.36254 0.7905 0.0
C652 C 0.3988 0.27736 0.77841 0.0
C653 C 0.41355 0.27006 0.92472 0.0
C654 C 0.42771 0.30133 0.92779 0.0
C655 C 0.30877 0.28812 0.73785 0.0
C656 C 0.2189 0.35611 0.84509 0.0
C657 C 0.17939 0.34844 0.88015 0.0
C658 C 0.17268 0.37649 0.87393 0.0
C659 C 0.21158 0.38402 0.83918 0.0
C660 C 0.20252 0.33809 0.86555 0.0
C661 C 0.18864 0.39407 0.85352 0.0
C662 C 0.28553 0.26045 0.81448 0.0
C663 C 0.24305 0.34622 0.82884 0.0
H664 H 0.49236 0.24196 0.7307 0.0
H665 H 0.42444 0.23129 0.79362 0.0
H666 H 0.46742 0.21531 0.77203 0.0
H667 H 0.43041 0.30249 0.73149 0.0
H668 H 0.15466 0.3846 0.88457 0.0
H669 H 0.22352 0.39815 0.82326 0.0
H670 H 0.20769 0.31638 0.87015 0.0
H671 H 0.18311 0.41552 0.84868 0.0
Eu672 Eu 0.08453 1.02274 0.54419 0.0
C673 C 0.03543 0.12747 0.62024 0.0
N674 N 1.02247 0.10577 0.59328 0.0
C675 C 0.97463 0.09808 0.61339 0.0
C676 C 1.01836 0.13476 0.64518 0.0
C677 C 0.99221 0.09196 0.58899 0.0
C678 C 0.98781 0.11931 0.64176 0.0
C679 C 0.07889 0.16739 0.64896 0.0
C680 C 0.06563 0.14344 0.62242 0.0
C681 C 0.06205 0.17411 0.67408 0.0
C682 C 0.03196 0.15772 0.6723 0.0
Eu683 Eu 0.05486 0.09921 0.55372 0.0
N684 N 0.0821 0.13554 0.59868 0.0
C685 C 0.1089 0.18365 0.64961 0.0
C686 C 0.11069 0.15217 0.59828 0.0
C687 C 0.12477 0.17614 0.62399 0.0
H688 H 0.98106 0.07688 0.56647 0.0
H689 H 0.14764 0.18908 0.62379 0.0
H690 H 0.15841 0.04408 0.53202 0.0
H691 H 0.99146 0.93329 0.47371 0.0
H692 H 0.12212 0.14761 0.57755 0.0
H693 H 0.11989 0.20216 0.66958 0.0
H694 H 1.01758 0.9737 0.52068 0.0
H695 H 0.95075 0.08686 0.61 0.0
H696 H 0.07203 0.19207 0.69493 0.0
H697 H 1.01919 0.16343 0.69176 0.0
H698 H 0.18892 0.03386 0.48866 0.0
H699 H 0.97397 0.12426 0.66041 0.0
H700 H 1.01886 0.92074 0.42743 0.0
N701 N 0.11699 1.0156 0.50486 0.0
C702 C 0.10395 0.99415 0.47772 0.0
C703 C 0.16496 0.02287 0.48509 0.0
C704 C 0.12105 0.98677 0.45285 0.0
C705 C 0.14732 0.02911 0.50939 0.0
C706 C 0.15173 1.00187 0.45656 0.0
N707 N 0.05731 0.98628 0.49922 0.0
C708 C 1.02874 0.96963 0.49963 0.0
C709 C 0.06017 0.95491 0.44849 0.0
C710 C 0.07364 0.97851 0.4753 0.0
C711 C 1.03004 0.93895 0.44764 0.0
C712 C 1.01436 0.94616 0.47353 0.0
H713 H 0.16561 0.99683 0.43798 0.0
H714 H 0.12011 0.9583 0.40611 0.0
H715 H 0.06694 0.93038 0.4024 0.0
O716 O 0.06944 0.98508 0.57212 0.0
O717 O 0.06214 0.03507 0.49478 0.0
O718 O 0.03175 0.06961 0.50479 0.0
O719 O 0.11118 0.98876 0.55135 0.0
O720 O 0.04292 0.02598 0.56897 0.0
O721 O 1.01707 0.05567 0.5413 0.0
O722 O 0.07051 0.13777 0.52734 0.0
O723 O 0.07717 0.08637 0.60259 0.0
O724 O 0.10781 0.05197 0.59336 0.0
O725 O 1.02782 0.13275 0.54653 0.0
O726 O 0.09502 0.09527 0.52717 0.0
O727 O 0.12215 0.06698 0.55517 0.0
C728 C 0.04198 0.05068 0.48427 0.0
C729 C 0.10765 0.96251 0.59767 0.0
C730 C 0.10463 0.92698 0.63807 0.0
C731 C 0.13611 0.93692 0.64819 0.0
C732 C 0.13922 0.97214 0.60823 0.0
C733 C 0.15328 0.95931 0.63326 0.0
C734 C 0.09041 0.9397 0.61264 0.0
C735 C 1.01731 0.03077 0.55482 0.0
C736 C 0.09318 0.97366 0.56896 0.0
C737 C 0.10731 0.96409 0.42551 0.0
C738 C 0.07704 0.94813 0.42341 0.0
C739 C 0.09733 0.07097 0.6135 0.0
C740 C 0.03295 0.16105 0.50195 0.0
C741 C 0.03807 0.19859 0.46393 0.0
C742 C 1.0065 0.19029 0.45367 0.0
C743 C 1.00129 0.15337 0.49171 0.0
C744 C 0.0513 0.18377 0.48794 0.0
C745 C 0.98823 0.16788 0.46759 0.0
C746 C 0.12112 0.09129 0.54071 0.0
C747 C 0.04646 0.14874 0.53019 0.0
H748 H 0.14748 0.92686 0.66724 0.0
H749 H 0.15315 0.98939 0.59697 0.0
H750 H 0.17759 0.96669 0.64106 0.0
H751 H 0.06622 0.93134 0.60405 0.0
H752 H 0.99585 0.20223 0.43597 0.0
H753 H 0.98654 0.13635 0.50245 0.0
H754 H 0.07544 0.19131 0.49719 0.0
H755 H 0.96386 0.16199 0.45994 0.0
Eu756 Eu 0.32585 0.85522 0.77448 0.0
C757 C 0.26464 0.75275 0.86004 0.0
N758 N 0.29168 0.77399 0.86736 0.0
C759 C 0.28529 0.78206 0.92446 0.0
C760 C 0.24619 0.7466 0.88465 0.0
C761 C 0.30269 0.78772 0.89926 0.0
C762 C 0.2567 0.76187 0.91703 0.0
C763 C 0.22901 0.71235 0.82076 0.0
C764 C 0.25625 0.7354 0.82847 0.0
C765 C 0.20979 0.70766 0.84468 0.0
C766 C 0.21846 0.72458 0.87659 0.0
Eu767 Eu 0.31949 0.77981 0.82292 0.0
N768 N 0.27547 0.73994 0.80583 0.0
C769 C 0.22255 0.69376 0.78969 0.0
C770 C 0.27108 0.71945 0.77746 0.0
C771 C 0.24408 0.69683 0.76826 0.0
H772 H 0.32525 0.80238 0.90571 0.0
H773 H 0.24034 0.68121 0.74516 0.0
H774 H 0.31465 0.82358 0.69205 0.0
H775 H 0.41152 0.95292 0.84103 0.0
H776 H 0.2889 0.71956 0.76275 0.0
H777 H 0.20185 0.67587 0.78281 0.0
H778 H 0.3638 0.91218 0.83185 0.0
H779 H 0.2941 0.79301 0.94969 0.0
H780 H 0.1887 0.69021 0.83912 0.0
H781 H 0.2039 0.71984 0.89514 0.0
H782 H 0.34339 0.82583 0.64564 0.0
H783 H 0.24337 0.75745 0.93669 0.0
H784 H 0.44484 0.95611 0.79789 0.0
N785 N 0.35023 0.85433 0.72676 0.0
C786 C 0.37774 0.87468 0.73062 0.0
C787 C 0.35347 0.83937 0.66952 0.0
C788 C 0.39433 0.87763 0.70395 0.0
C789 C 0.33746 0.83769 0.69634 0.0
C790 C 0.38213 0.85916 0.67341 0.0
N791 N 0.37199 0.89162 0.78592 0.0
C792 C 0.37915 0.91286 0.81387 0.0
C793 C 0.41568 0.91714 0.76452 0.0
C794 C 0.3886 0.89417 0.76074 0.0
C795 C 0.42437 0.93793 0.79418 0.0
C796 C 0.40572 0.9361 0.81872 0.0
H797 H 0.3942 0.86075 0.65237 0.0
H798 H 0.43502 0.90211 0.68794 0.0
H799 H 0.45351 0.93681 0.7408 0.0
O800 O 0.30547 0.89298 0.79212 0.0
O801 O 0.37332 0.846 0.79655 0.0
O802 O 0.36837 0.81116 0.83448 0.0
O803 O 0.31519 0.8872 0.74191 0.0
O804 O 0.3157 0.85691 0.82626 0.0
O805 O 0.33549 0.8242 0.85705 0.0
O806 O 0.33996 0.74096 0.80482 0.0
O807 O 0.27109 0.78866 0.802 0.0
O808 O 0.27582 0.82673 0.76766 0.0
O809 O 0.33843 0.75483 0.85753 0.0
O810 O 0.33564 0.79126 0.77659 0.0
O811 O 0.30489 0.81021 0.74322 0.0
C812 C 0.3855 0.83089 0.81886 0.0
C813 C 0.27367 0.9092 0.75112 0.0
C814 C 0.23803 0.9422 0.75609 0.0
C815 C 0.22221 0.92818 0.72469 0.0
C816 C 0.25707 0.89471 0.72006 0.0
C817 C 0.23152 0.90429 0.70695 0.0
C818 C 0.26368 0.9326 0.76938 0.0
C819 C 0.32995 0.85094 0.85326 0.0
C820 C 0.3028 0.90223 0.76336 0.0
C821 C 0.42201 0.89962 0.70817 0.0
C822 C 0.43257 0.91939 0.73829 0.0
C823 C 0.25864 0.8055 0.7817 0.0
C824 C 0.3643 0.71463 0.84667 0.0
C825 C 0.39294 0.67551 0.83634 0.0
C826 C 0.40052 0.67642 0.87056 0.0
C827 C 0.37215 0.71512 0.88096 0.0
C828 C 0.37471 0.69454 0.82421 0.0
C829 C 0.3901 0.69611 0.89273 0.0
C830 C 0.31601 0.78722 0.75029 0.0
C831 C 0.34732 0.73691 0.83544 0.0
H832 H 0.20272 0.93585 0.71388 0.0
H833 H 0.26421 0.8765 0.70554 0.0
H834 H 0.21921 0.89353 0.68275 0.0
H835 H 0.27648 0.94415 0.7932 0.0
H836 H 0.41432 0.66158 0.88009 0.0
H837 H 0.36472 0.73047 0.89892 0.0
H838 H 0.36894 0.69383 0.79774 0.0
H839 H 0.39599 0.6967 0.91911 0.0
Eu840 Eu 0.57075 0.09026 0.01025 0.0
C841 C 0.62556 1.01233 0.12828 0.0
N842 N 0.60194 1.00056 0.10326 0.0
C843 C 0.61924 0.95393 0.09413 0.0
C844 C 0.64807 0.99601 0.13582 0.0
C845 C 0.59821 0.9716 0.0865 0.0
C846 C 0.64461 0.96641 0.11842 0.0
C847 C 0.65228 0.05478 0.17109 0.0
C848 C 0.62747 0.04114 0.14597 0.0
C849 C 0.6755 0.03922 0.17767 0.0
C850 C 0.67329 1.0098 0.16024 0.0
Eu851 Eu 0.57045 0.03384 0.08846 0.0
N852 N 0.60543 0.05626 0.13766 0.0
C853 C 0.65287 0.08358 0.18886 0.0
C854 C 0.6042 0.08252 0.15737 0.0
C855 C 0.62822 0.09705 0.18263 0.0
H856 H 0.57916 0.96223 0.06693 0.0
H857 H 0.62755 0.11846 0.19745 0.0
H858 H 0.55907 0.1606 0.0335 0.0
H859 H 0.51975 1.0117 0.89451 0.0
H860 H 0.5845 0.09199 0.15445 0.0
H861 H 0.6716 0.09497 0.20824 0.0
H862 H 0.56204 0.03877 0.93841 0.0
H863 H 0.61623 0.93095 0.08077 0.0
H864 H 0.695 0.04952 0.19651 0.0
H865 H 0.69114 0.99785 0.16593 0.0
H866 H 0.52006 0.18995 0.02146 0.0
H867 H 0.66127 0.95296 0.12365 0.0
H868 H 0.47241 0.03047 0.88745 0.0
N869 N 0.53706 0.12195 0.99703 0.0
C870 C 0.5132 0.10957 0.97266 0.0
C871 C 0.51774 0.16726 1.00767 0.0
C872 C 0.48979 0.12499 0.96578 0.0
C873 C 0.53988 0.15059 0.0143 0.0
C874 C 0.49228 0.15418 0.98372 0.0
N875 N 0.53714 0.06911 0.95972 0.0
C876 C 0.54082 0.04581 0.93718 0.0
C877 C 0.48874 0.06836 0.92789 0.0
C878 C 0.51286 0.08183 0.95388 0.0
C879 C 0.49057 0.04176 0.90749 0.0
C880 C 0.5172 0.03103 0.9115 0.0
H881 H 0.47492 0.16695 0.97898 0.0
H882 H 0.44645 0.12222 0.93574 0.0
H883 H 0.44532 0.07231 0.90277 0.0
O884 O 0.61157 0.09436 0.98758 0.0
O885 O 0.52466 0.07318 0.02336 0.0
O886 O 0.5428 0.0352 0.04033 0.0
O887 O 0.59799 0.13551 1.00667 0.0
O888 O 0.57859 0.04061 0.99454 0.0
O889 O 0.57497 1.00845 0.03633 0.0
O890 O 0.53485 0.03494 0.1183 0.0
O891 O 0.61882 0.0546 0.0857 0.0
O892 O 0.59157 0.07473 0.0533 0.0
O893 O 0.54281 0.99029 0.09775 0.0
O894 O 0.55925 0.08238 0.10056 0.0
O895 O 0.5693 0.11667 0.06191 0.0
C896 C 0.52025 0.04859 0.03735 0.0
C897 C 0.62458 0.13757 0.961 0.0
C898 C 0.64728 0.13399 0.91128 0.0
C899 C 0.64114 0.1622 0.90508 0.0
C900 C 0.61869 0.16607 0.95515 0.0
C901 C 0.62707 0.17834 0.92721 0.0
C902 C 0.6393 0.1219 0.93918 0.0
C903 C 0.57919 1.01371 1.0055 0.0
C904 C 0.61667 0.12423 0.99016 0.0
C905 C 0.46495 0.11099 0.94101 0.0
C906 C 0.46428 0.08255 0.9223 0.0
C907 C 0.61888 0.07309 0.06472 0.0
C908 C 0.50265 0.99001 0.13148 0.0
C909 C 0.47382 0.992 0.17679 0.0
C910 C 0.46095 0.96036 0.16799 0.0
C911 C 0.48942 0.95857 0.12226 0.0
C912 C 0.49427 1.00682 0.15826 0.0
C913 C 0.4686 0.94382 0.14052 0.0
C914 C 0.56137 0.11003 0.09084 0.0
C915 C 0.52703 1.00505 0.11534 0.0
H916 H 0.64712 0.17156 0.88314 0.0
H917 H 0.60769 0.17883 0.97205 0.0
H918 H 0.62247 0.20021 0.92261 0.0
H919 H 0.64407 0.0999 0.9434 0.0
H920 H 0.44601 0.94844 0.18312 0.0
H921 H 0.49581 0.94527 0.10162 0.0
H922 H 0.50529 0.03094 0.16629 0.0
H923 H 0.45958 0.91933 0.13405 0.0
Eu924 Eu 0.29826 0.27215 0.27885 0.0
C925 C 0.40314 0.37179 0.36507 0.0
N926 N 0.37462 0.35756 0.36936 0.0
C927 C 0.39118 0.36233 0.42783 0.0
C928 C 0.42666 0.38188 0.39233 0.0
C929 C 0.3683 0.3534 0.40037 0.0
C930 C 0.42048 0.37659 0.42382 0.0
C931 C 0.43766 0.3939 0.32903 0.0
C932 C 0.40867 0.37786 0.33361 0.0
C933 C 0.46089 0.4039 0.35621 0.0
C934 C 0.45534 0.39789 0.38762 0.0
Eu935 Eu 0.33743 0.35012 0.32181 0.0
N936 N 0.38569 0.36847 0.30757 0.0
C937 C 0.44238 0.39997 0.29734 0.0
C938 C 0.38992 0.37545 0.2769 0.0
C939 C 0.41835 0.39072 0.27116 0.0
H940 H 0.34547 0.34494 0.40475 0.0
H941 H 0.42149 0.39606 0.24672 0.0
H942 H 0.29166 0.26932 0.19554 0.0
H943 H 0.21583 0.2161 0.34944 0.0
H944 H 0.37134 0.37031 0.25701 0.0
H945 H 0.46433 0.41228 0.29295 0.0
H946 H 0.26616 0.24298 0.33951 0.0
H947 H 0.38595 0.35911 0.45228 0.0
H948 H 0.48322 0.41652 0.35327 0.0
H949 H 0.47331 0.4062 0.40822 0.0
H950 H 0.25181 0.25651 0.14724 0.0
H951 H 0.43795 0.38413 0.44533 0.0
H952 H 0.17141 0.20692 0.30536 0.0
N953 N 0.26143 0.26289 0.2307 0.0
C954 C 0.23239 0.25073 0.23498 0.0
C955 C 0.24589 0.25563 0.17183 0.0
C956 C 0.20888 0.24162 0.20769 0.0
C957 C 0.26851 0.264 0.19951 0.0
C958 C 0.21582 0.24489 0.17596 0.0
N959 N 0.25016 0.25102 0.29164 0.0
C960 C 0.24683 0.2401 0.32073 0.0
C961 C 0.19751 0.22848 0.27049 0.0
C962 C 0.22669 0.2441 0.26611 0.0
C963 C 0.19343 0.21921 0.30117 0.0
C964 C 0.2184 0.22437 0.32612 0.0
H965 H 0.19843 0.23772 0.15435 0.0
H966 H 0.16145 0.22131 0.19202 0.0
H967 H 0.15113 0.20929 0.24653 0.0
O968 O 0.3121 0.23304 0.29682 0.0
O969 O 0.26218 0.29864 0.29895 0.0
O970 O 0.28664 0.34563 0.32929 0.0
O971 O 0.28664 0.2277 0.24754 0.0
O972 O 0.32139 0.27532 0.33212 0.0
O973 O 0.31329 0.31964 0.35654 0.0
O974 O 0.33562 0.39388 0.30563 0.0
O975 O 0.37272 0.31962 0.30802 0.0
O976 O 0.34746 0.28309 0.2642 0.0
O977 O 0.34561 0.39171 0.35792 0.0
O978 O 0.31705 0.3494 0.26718 0.0
O979 O 0.31993 0.30214 0.24359 0.0
C980 C 0.26096 0.32483 0.31753 0.0
C981 C 0.32254 0.19827 0.25534 0.0
C982 C 0.35208 0.16082 0.26302 0.0
C983 C 0.35991 0.16173 0.23125 0.0
C984 C 0.33076 0.20011 0.22368 0.0
C985 C 0.34943 0.18171 0.2117 0.0
C986 C 0.33362 0.17903 0.27499 0.0
C987 C 0.31496 0.29101 0.35819 0.0
C988 C 0.30179 0.21519 0.26851 0.0
C989 C 0.17954 0.22784 0.21254 0.0
C990 C 0.17377 0.22114 0.24371 0.0
C991 C 0.37379 0.29869 0.28227 0.0
C992 C 0.32071 0.42991 0.34274 0.0
C993 C 0.29227 0.46552 0.32345 0.0
C994 C 0.28538 0.47266 0.35531 0.0
C995 C 0.31393 0.43704 0.3748 0.0
C996 C 0.30986 0.44439 0.31721 0.0
C997 C 0.29625 0.45837 0.38097 0.0
C998 C 0.3199 0.33086 0.24097 0.0
C999 C 0.34033 0.40884 0.33571 0.0
H1000 H 0.37395 0.14706 0.22176 0.0
H1001 H 0.32254 0.21533 0.20816 0.0
H1002 H 0.35548 0.18269 0.1872 0.0
H1003 H 0.32716 0.17754 0.2994 0.0
H1004 H 0.27185 0.48935 0.36028 0.0
H1005 H 0.32245 0.42642 0.39509 0.0
H1006 H 0.31528 0.43952 0.29245 0.0
H1007 H 0.29116 0.46396 0.40567 0.0
Eu1008 Eu 0.58792 0.52659 0.04709 0.0
C1009 C 0.53737 0.63756 0.11628 0.0
N1010 N 0.52461 0.61122 0.09475 0.0
C1011 C 0.47926 0.60516 0.11967 0.0
C1012 C 0.52131 0.64869 0.14047 0.0
C1013 C 0.49574 0.59535 0.09568 0.0
C1014 C 0.49213 0.63187 0.14226 0.0
C1015 C 0.5792 0.68243 0.1342 0.0
C1016 C 0.56635 0.65393 0.11369 0.0
C1017 C 0.56321 0.69348 0.15827 0.0
C1018 C 0.53452 0.6765 0.16164 0.0
Eu1019 Eu 0.55375 0.59913 0.05363 0.0
N1020 N 0.58198 0.64211 0.0912 0.0
C1021 C 0.6081 0.69866 0.13042 0.0
C1022 C 0.60997 0.65795 0.08722 0.0
C1023 C 0.62364 0.68623 0.10698 0.0
H1024 H 0.48479 0.57566 0.07753 0.0
H1025 H 0.64594 0.69862 0.10378 0.0
H1026 H 0.66074 0.54484 0.03376 0.0
H1027 H 0.48949 0.44432 0.97279 0.0
H1028 H 0.62136 0.64954 0.06808 0.0
H1029 H 0.61878 0.72055 0.14578 0.0
H1030 H 0.51744 0.48143 0.02115 0.0
H1031 H 0.45639 0.59242 0.12029 0.0
H1032 H 0.57296 0.71505 0.1746 0.0
H1033 H 0.52251 0.68532 0.1804 0.0
H1034 H 0.69089 0.53226 0.99048 0.0
H1035 H 0.4791 0.63964 0.16055 0.0
H1036 H 0.51624 0.43028 0.92653 0.0
N1037 N 0.61914 0.51634 1.00749 0.0
C1038 C 0.60529 0.49533 0.98034 0.0
C1039 C 0.6668 0.52193 0.9872 0.0
C1040 C 0.62181 0.48728 0.95516 0.0
C1041 C 0.64953 0.52931 0.01149 0.0
C1042 C 0.65287 0.50096 0.95884 0.0
N1043 N 0.55887 0.49025 1.00201 0.0
C1044 C 0.52906 0.47637 1.00095 0.0
C1045 C 0.55951 0.46014 0.94958 0.0
C1046 C 0.57444 0.48176 0.97762 0.0
C1047 C 0.52851 0.44694 0.94768 0.0
C1048 C 0.51329 0.45491 0.97364 0.0
H1049 H 0.66635 0.49528 0.94009 0.0
H1050 H 0.61932 0.45944 0.90761 0.0
H1051 H 0.56481 0.43583 0.90267 0.0
O1052 O 0.57459 0.48691 0.07317 0.0
O1053 O 0.56869 0.54025 0.99717 0.0
O1054 O 0.52997 0.5615 0.01115 0.0
O1055 O 0.62094 0.50054 0.06194 0.0
O1056 O 0.54704 0.52647 0.07426 0.0
O1057 O 0.51837 0.55419 0.04721 0.0
O1058 O 0.56366 0.63309 0.02028 0.0
O1059 O 0.57629 0.59083 0.10447 0.0
O1060 O 0.60951 0.55922 0.095 0.0
O1061 O 0.5198 0.62434 0.0386 0.0
O1062 O 0.59424 0.59794 0.0267 0.0
O1063 O 0.62398 0.57168 0.05443 0.0
C1064 C 0.54344 0.54929 0.98833 0.0
C1065 C 0.6111 0.45688 0.09126 0.0
C1066 C 0.60381 0.41858 0.1284 0.0
C1067 C 0.63263 0.41335 0.12494 0.0
C1068 C 0.63976 0.45096 0.08796 0.0
C1069 C 0.65037 0.42931 0.10467 0.0
C1070 C 0.5928 0.44022 0.11126 0.0
C1071 C 0.52033 0.53093 0.06305 0.0
C1072 C 0.60194 0.48195 0.07558 0.0
C1073 C 0.60696 0.46582 0.9272 0.0
C1074 C 0.57591 0.45235 0.92439 0.0
C1075 C 0.59803 0.57722 0.11522 0.0
C1076 C 0.52749 0.66299 1.00232 0.0
C1077 C 0.53725 0.70213 0.96651 0.0
C1078 C 0.50797 0.70711 0.96815 0.0
C1079 C 0.49839 0.66839 1.0036 0.0
C1080 C 0.54703 0.68008 0.98385 0.0
C1081 C 0.48875 0.69037 0.98661 0.0
C1082 C 0.62126 0.59429 0.03772 0.0
C1083 C 0.53726 0.63993 0.02079 0.0
H1084 H 0.6412 0.39644 0.13759 0.0
H1085 H 0.65424 0.46333 0.0727 0.0
H1086 H 0.67249 0.42496 0.102 0.0
H1087 H 0.57057 0.44436 0.11398 0.0
H1088 H 0.50019 0.72453 0.95569 0.0
H1089 H 0.48305 0.65574 0.01787 0.0
H1090 H 0.56967 0.67643 0.98307 0.0
H1091 H 0.46638 0.6946 0.98795 0.0
Eu1092 Eu 0.82535 0.35746 0.27711 0.0
C1093 C 0.76335 0.25235 0.35988 0.0
N1094 N 0.79056 0.27333 0.36752 0.0
C1095 C 0.78293 0.28242 0.42424 0.0
C1096 C 0.74428 0.24692 0.38412 0.0
C1097 C 0.80121 0.28692 0.39965 0.0
C1098 C 0.75412 0.26281 0.41633 0.0
C1099 C 0.72827 0.2111 0.32097 0.0
C1100 C 0.7554 0.23428 0.32855 0.0
C1101 C 0.7086 0.20708 0.34452 0.0
C1102 C 0.71662 0.22484 0.376 0.0
Eu1103 Eu 0.81892 0.27742 0.32313 0.0
N1104 N 0.77484 0.23822 0.30604 0.0
C1105 C 0.72229 0.19173 0.2904 0.0
C1106 C 0.77046 0.21775 0.27763 0.0
C1107 C 0.74384 0.19462 0.26897 0.0
H1108 H 0.82412 0.30057 0.40706 0.0
H1109 H 0.74012 0.17887 0.24598 0.0
H1110 H 0.81899 0.32992 0.19325 0.0
H1111 H 0.90788 0.45227 0.35467 0.0
H1112 H 0.78782 0.21867 0.26212 0.0
H1113 H 0.7017 0.17368 0.28371 0.0
H1114 H 0.86087 0.41138 0.34075 0.0
H1115 H 0.79136 0.29361 0.44948 0.0
H1116 H 0.68759 0.18953 0.33902 0.0
H1117 H 0.70168 0.22062 0.3943 0.0
H1118 H 0.85008 0.33755 0.1497 0.0
H1119 H 0.74021 0.25907 0.43563 0.0
H1120 H 0.94157 0.46165 0.31251 0.0
N1121 N 0.85217 0.35985 0.23154 0.0
C1122 C 0.87862 0.38214 0.23801 0.0
C1123 C 0.8586 0.34981 0.17452 0.0
C1124 C 0.89619 0.38845 0.21263 0.0
C1125 C 0.84134 0.34491 0.1999 0.0
C1126 C 0.88625 0.3714 0.18096 0.0
N1127 N 0.87055 0.39458 0.294 0.0
C1128 C 0.87667 0.41372 0.32352 0.0
C1129 C 0.91369 0.4247 0.27557 0.0
C1130 C 0.88757 0.40025 0.26951 0.0
C1131 C 0.92154 0.44286 0.30692 0.0
C1132 C 0.90277 0.43751 0.3309 0.0
H1133 H 0.8992 0.37559 0.16095 0.0
H1134 H 0.93609 0.41745 0.19976 0.0
H1135 H 0.95117 0.44919 0.25455 0.0
O1136 O 0.8067 0.39604 0.29677 0.0
O1137 O 0.87319 0.34996 0.3021 0.0
O1138 O 0.8685 0.30703 0.33016 0.0
O1139 O 0.81338 0.38909 0.24541 0.0
O1140 O 0.80931 0.33872 0.32047 0.0
O1141 O 0.83395 0.32062 0.35956 0.0
O1142 O 0.83872 0.23849 0.30436 0.0
O1143 O 0.77109 0.28418 0.29628 0.0
O1144 O 0.77439 0.33018 0.27301 0.0
O1145 O 0.83807 0.25208 0.35734 0.0
O1146 O 0.83482 0.29492 0.27878 0.0
O1147 O 0.80793 0.31433 0.2419 0.0
C1148 C 0.8855 0.33132 0.32021 0.0
C1149 C 0.77246 0.41039 0.25632 0.0
C1150 C 0.73705 0.44354 0.26001 0.0
C1151 C 0.72036 0.42789 0.22953 0.0
C1152 C 0.75497 0.39424 0.22626 0.0
C1153 C 0.72915 0.40314 0.21292 0.0
C1154 C 0.76307 0.4347 0.27348 0.0
C1155 C 0.8258 0.34397 0.34919 0.0
C1156 C 0.80217 0.40447 0.2677 0.0
C1157 C 0.92248 0.41237 0.21906 0.0
C1158 C 0.93104 0.43056 0.25025 0.0
C1159 C 0.75797 0.30419 0.2809 0.0
C1160 C 0.862 0.2105 0.34494 0.0
C1161 C 0.89314 0.17377 0.33415 0.0
C1162 C 0.89755 0.1714 0.36797 0.0
C1163 C 0.8665 0.20752 0.37874 0.0
C1164 C 0.87508 0.19313 0.32243 0.0
C1165 C 0.88413 0.18807 0.39008 0.0
C1166 C 0.81688 0.29078 0.25097 0.0
C1167 C 0.8463 0.23405 0.33478 0.0
H1168 H 0.70046 0.43485 0.21862 0.0
H1169 H 0.7617 0.37532 0.21249 0.0
H1170 H 0.71621 0.39115 0.18942 0.0
H1171 H 0.77663 0.44752 0.29642 0.0
H1172 H 0.91118 0.15628 0.37719 0.0
H1173 H 0.85683 0.22065 0.39672 0.0
H1174 H 0.87194 0.19519 0.29634 0.0
H1175 H 0.88757 0.1861 0.41614 0.0
Eu1176 Eu 0.07085 0.5909 0.51074 0.0
C1177 C 0.12849 0.51288 0.62948 0.0
N1178 N 0.1059 0.50164 0.60329 0.0
C1179 C 0.12124 0.45378 0.59634 0.0
C1180 C 0.14893 0.49505 0.63959 0.0
C1181 C 0.10197 0.47257 0.58668 0.0
C1182 C 0.14494 0.46512 0.62277 0.0
C1183 C 0.15597 0.55555 0.67179 0.0
C1184 C 0.13177 0.54268 0.64569 0.0
C1185 C 0.17651 0.53793 0.68167 0.0
C1186 C 0.17291 0.50772 0.66575 0.0
Eu1187 Eu 0.07531 0.53525 0.58778 0.0
N1188 N 0.11224 0.55965 0.63465 0.0
C1189 C 0.15907 0.58593 0.68689 0.0
C1190 C 0.11427 0.58865 0.6506 0.0
C1191 C 0.13789 0.60241 0.67647 0.0
H1192 H 0.08387 0.46384 0.56596 0.0
H1193 H 0.13966 0.62569 0.68842 0.0
H1194 H 0.05587 0.65877 0.53859 0.0
H1195 H 1.02285 0.51649 0.39177 0.0
H1196 H 0.09785 0.60139 0.64378 0.0
H1197 H 0.1775 0.59673 0.70682 0.0
H1198 H 0.06412 0.54277 0.43713 0.0
H1199 H 0.11801 0.43069 0.58318 0.0
H1200 H 0.19532 0.54749 0.70156 0.0
H1201 H 0.18898 0.49442 0.67367 0.0
H1202 H 1.01531 0.68664 0.52852 0.0
H1203 H 0.16011 0.45065 0.62988 0.0
H1204 H 0.97461 0.5337 0.38551 0.0
N1205 N 0.03518 0.62109 0.50042 0.0
C1206 C 1.01186 0.60904 0.47533 0.0
C1207 C 1.01389 0.66467 0.51359 0.0
C1208 C 0.98782 0.62383 0.46917 0.0
C1209 C 0.03681 0.64876 0.51925 0.0
C1210 C 0.98906 0.65196 0.48873 0.0
N1211 N 0.03762 0.57049 0.45998 0.0
C1212 C 0.04243 0.54884 0.43623 0.0
C1213 C 0.98926 0.56967 0.42807 0.0
C1214 C 1.01276 0.58249 0.45491 0.0
C1215 C 0.99227 0.54447 0.40623 0.0
C1216 C 1.01941 0.53462 0.40976 0.0
H1217 H 0.97123 0.66426 0.48453 0.0
H1218 H 0.94481 0.6212 0.43858 0.0
H1219 H 0.94585 0.57346 0.40284 0.0
O1220 O 0.11313 0.59727 0.49079 0.0
O1221 O 1.02541 0.57036 0.52359 0.0
O1222 O 0.0455 0.53312 0.54003 0.0
O1223 O 0.09407 0.63651 0.50301 0.0
O1224 O 0.07974 0.54228 0.49319 0.0
O1225 O 0.08057 0.51089 0.53558 0.0
O1226 O 0.04256 0.53633 0.62076 0.0
O1227 O 0.12334 0.55854 0.58532 0.0
O1228 O 0.09336 0.57639 0.55344 0.0
O1229 O 0.04828 0.49148 0.59773 0.0
O1230 O 0.05826 0.58063 0.59971 0.0
O1231 O 0.07085 0.61622 0.56325 0.0
C1232 C 1.02221 0.54545 0.53713 0.0
C1233 C 0.12104 0.63638 0.45782 0.0
C1234 C 0.13874 0.62683 0.4056 0.0
C1235 C 0.13211 0.65415 0.39696 0.0
C1236 C 0.11474 0.66402 0.44949 0.0
C1237 C 0.1203 0.67282 0.41907 0.0
C1238 C 0.13356 0.61818 0.43593 0.0
C1239 C 0.08291 0.51609 0.50435 0.0
C1240 C 0.11486 0.62631 0.48916 0.0
C1241 C 0.9637 0.6104 0.44341 0.0
C1242 C 0.96427 0.58319 0.42309 0.0
C1243 C 0.12144 0.57703 0.56449 0.0
C1244 C 1.01086 0.49189 0.63503 0.0
C1245 C 0.97826 0.49794 0.67621 0.0
C1246 C 0.97117 0.46592 0.67563 0.0
C1247 C 1.00353 0.45995 0.63407 0.0
C1248 C 0.9976 0.51066 0.65546 0.0
C1249 C 0.98372 0.44704 0.65439 0.0
C1250 C 0.06098 0.60866 0.59096 0.0
C1251 C 0.03427 0.50644 0.61744 0.0
H1252 H 0.13637 0.66108 0.37338 0.0
H1253 H 0.10547 0.6787 0.46635 0.0
H1254 H 0.11541 0.69407 0.41262 0.0
H1255 H 0.13902 0.59699 0.44212 0.0
H1256 H 0.95724 0.45586 0.69272 0.0
H1257 H 1.01386 0.44515 0.61856 0.0
H1258 H 1.00355 0.5355 0.65674 0.0
H1259 H 0.97924 0.42251 0.65445 0.0
Eu1260 Eu 0.85513 0.79279 0.30516 0.0
C1261 C 0.74746 0.8462 0.23513 0.0
N1262 N 0.7717 0.85923 0.25919 0.0
C1263 C 0.77722 0.90709 0.23793 0.0
C1264 C 0.73746 0.86332 0.21124 0.0
C1265 C 0.78584 0.88957 0.26161 0.0
C1266 C 0.75317 0.89383 0.21242 0.0
C1267 C 0.7039 0.80373 0.21352 0.0
C1268 C 0.73129 0.81622 0.23551 0.0
C1269 C 0.69448 0.82046 0.18921 0.0
C1270 C 0.71144 0.84998 0.18779 0.0
Eu1271 Eu 0.78204 0.82752 0.29871 0.0
N1272 N 0.74152 0.79979 0.2583 0.0
C1273 C 0.6865 0.77493 0.21694 0.0
C1274 C 0.72463 0.77183 0.26179 0.0
C1275 C 0.69698 0.75888 0.24114 0.0
H1276 H 0.80325 0.90083 0.28217 0.0
H1277 H 0.68367 0.73668 0.24411 0.0
H1278 H 0.83409 0.71877 0.31768 0.0
H1279 H 0.95075 0.88178 0.37278 0.0
H1280 H 0.73169 0.76012 0.28137 0.0
H1281 H 0.66513 0.76477 0.20083 0.0
H1282 H 0.91222 0.85475 0.32444 0.0
H1283 H 0.78873 0.93104 0.23978 0.0
H1284 H 0.67387 0.81092 0.17166 0.0
H1285 H 0.70359 0.86277 0.16916 0.0
H1286 H 0.83978 0.68823 0.36279 0.0
H1287 H 0.74621 0.90769 0.19447 0.0
H1288 H 0.9559 0.85767 0.42349 0.0
N1289 N 0.86151 0.76034 0.34546 0.0
C1290 C 0.88134 0.77348 0.37354 0.0
C1291 C 0.85122 0.71233 0.36637 0.0
C1292 C 0.88596 0.75675 0.39977 0.0
C1293 C 0.84751 0.72986 0.34103 0.0
C1294 C 0.87014 0.72597 0.39611 0.0
N1295 N 0.89384 0.81838 0.34916 0.0
C1296 C 0.91342 0.84522 0.34717 0.0
C1297 C 0.92025 0.81715 0.40318 0.0
C1298 C 0.89822 0.80332 0.37534 0.0
C1299 C 0.9386 0.84627 0.40266 0.0
C1300 C 0.93566 0.86003 0.37415 0.0
H1301 H 0.87313 0.71228 0.41562 0.0
H1302 H 0.91043 0.75856 0.44885 0.0
H1303 H 0.94052 0.81144 0.4518 0.0
O1304 O 0.89162 0.80443 0.27512 0.0
O1305 O 0.84225 0.81369 0.35446 0.0
O1306 O 0.81696 0.85174 0.34377 0.0
O1307 O 0.88173 0.75953 0.29214 0.0
O1308 O 0.85911 0.83879 0.28539 0.0
O1309 O 0.82555 0.86484 0.30719 0.0
O1310 O 0.74783 0.81399 0.33041 0.0
O1311 O 0.79064 0.80439 0.24813 0.0
O1312 O 0.82446 0.77293 0.25608 0.0
O1313 O 0.75147 0.85686 0.31038 0.0
O1314 O 0.78558 0.78697 0.32532 0.0
O1315 O 0.80994 0.75694 0.29575 0.0
C1316 C 0.83254 0.83853 0.3645 0.0
C1317 C 0.92187 0.76767 0.25833 0.0
C1318 C 0.96141 0.77654 0.22337 0.0
C1319 C 0.96369 0.74586 0.22271 0.0
C1320 C 0.92482 0.7371 0.2575 0.0
C1321 C 0.94557 0.72634 0.23977 0.0
C1322 C 0.94051 0.7876 0.24131 0.0
C1323 C 0.85089 0.86444 0.29513 0.0
C1324 C 0.8979 0.77744 0.27513 0.0
C1325 C 0.9068 0.77096 0.42832 0.0
C1326 C 0.92393 0.80109 0.43001 0.0
C1327 C 0.80535 0.78375 0.23671 0.0
C1328 C 0.72828 0.85321 0.35842 0.0
C1329 C 0.6895 0.85317 0.39389 0.0
C1330 C 0.70214 0.88439 0.40585 0.0
C1331 C 0.74191 0.88392 0.3722 0.0
C1332 C 0.70256 0.83757 0.37007 0.0
C1333 C 0.72874 0.89943 0.39579 0.0
C1334 C 0.78729 0.75966 0.31192 0.0
C1335 C 0.73741 0.8387 0.32869 0.0
H1336 H 0.97985 0.73712 0.20921 0.0
H1337 H 0.91072 0.72125 0.27016 0.0
H1338 H 0.94757 0.70272 0.23919 0.0
H1339 H 0.93868 0.81129 0.24176 0.0
H1340 H 0.69113 0.89719 0.42264 0.0
H1341 H 0.76185 0.89633 0.36365 0.0
H1342 H 0.6918 0.8139 0.35939 0.0
H1343 H 0.7386 0.92344 0.4055 0.0
Eu1344 Eu 0.78976 0.31451 0.84116 0.0
C1345 C 0.86615 0.26213 0.72205 0.0
N1346 N 0.87778 0.2859 0.74701 0.0
C1347 C 0.92314 0.26736 0.75739 0.0
C1348 C 0.88229 0.23932 0.71436 0.0
C1349 C 0.90607 0.28918 0.7643 0.0
C1350 C 0.91103 0.24208 0.73259 0.0
C1351 C 0.82571 0.23695 0.67715 0.0
C1352 C 0.83825 0.26099 0.70385 0.0
C1353 C 0.84105 0.21345 0.67022 0.0
C1354 C 0.86932 0.21466 0.68876 0.0
Eu1355 Eu 0.84496 0.31724 0.76302 0.0
N1356 N 0.82395 0.28398 0.71154 0.0
C1357 C 0.79847 0.23757 0.6578 0.0
C1358 C 0.79858 0.28576 0.691 0.0
C1359 C 0.78524 0.26248 0.66431 0.0
H1360 H 0.9154 0.30845 0.78374 0.0
H1361 H 0.76475 0.26382 0.64874 0.0
H1362 H 0.71849 0.32191 0.82453 0.0
H1363 H 0.88076 0.38009 0.94182 0.0
H1364 H 0.78835 0.30498 0.6944 0.0
H1365 H 0.78803 0.21951 0.63718 0.0
H1366 H 0.85836 0.3407 0.89486 0.0
H1367 H 0.94546 0.2699 0.77144 0.0
H1368 H 0.83155 0.1946 0.65013 0.0
H1369 H 0.88117 0.19668 0.68278 0.0
H1370 H 0.68617 0.35647 0.84242 0.0
H1371 H 0.92416 0.22504 0.72748 0.0
H1372 H 0.85085 0.41538 0.96416 0.0
N1373 N 0.75663 0.3444 0.86018 0.0
C1374 C 0.76788 0.36665 0.8869 0.0
C1375 C 0.70918 0.35977 0.85502 0.0
C1376 C 0.7503 0.38709 0.89802 0.0
C1377 C 0.72759 0.34041 0.84463 0.0
C1378 C 0.72068 0.38344 0.88164 0.0
N1379 N 0.81435 0.35073 0.88995 0.0
C1380 C 0.84399 0.35442 0.90421 0.0
C1381 C 0.81011 0.39372 0.92929 0.0
C1382 C 0.7974 0.36972 0.90251 0.0
C1383 C 0.84029 0.39721 0.94368 0.0
C1384 C 0.85722 0.37738 0.93113 0.0
H1385 H 0.70649 0.39868 0.88942 0.0
H1386 H 0.74977 0.42685 0.93331 0.0
H1387 H 0.8022 0.43274 0.96058 0.0
O1388 O 0.78996 0.27678 0.86902 0.0
O1389 O 0.81174 0.36379 0.84078 0.0
O1390 O 0.82822 0.3348 0.80615 0.0
O1391 O 0.74705 0.28502 0.84762 0.0
O1392 O 0.83677 0.30127 0.85189 0.0
O1393 O 0.87112 0.31412 0.81438 0.0
O1394 O 0.84622 0.35928 0.74215 0.0
O1395 O 0.82907 0.26977 0.77449 0.0
O1396 O 0.79063 0.28628 0.79256 0.0
O1397 O 0.88825 0.34937 0.76325 0.0
O1398 O 0.79637 0.32602 0.74911 0.0
O1399 O 0.76421 0.32059 0.79014 0.0
C1400 C 0.82973 0.3626 0.81956 0.0
C1401 C 0.74842 0.26285 0.89666 0.0
C1402 C 0.75206 0.23851 0.9454 0.0
C1403 C 0.72677 0.24847 0.95476 0.0
C1404 C 0.7231 0.27314 0.90588 0.0
C1405 C 0.71227 0.26578 0.93488 0.0
C1406 C 0.76262 0.24541 0.91644 0.0
C1407 C 0.86449 0.3048 0.84286 0.0
C1408 C 0.76043 0.26913 0.86643 0.0
C1409 C 0.76287 0.41079 0.9247 0.0
C1410 C 0.79269 0.4141 0.94027 0.0
C1411 C 0.80587 0.2649 0.79011 0.0
C1412 C 0.88987 0.37874 0.71949 0.0
C1413 C 0.88541 0.39529 0.66573 0.0
C1414 C 0.91658 0.39758 0.66582 0.0
C1415 C 0.92126 0.38217 0.71993 0.0
C1416 C 0.87211 0.38605 0.6926 0.0
C1417 C 0.9345 0.3914 0.69305 0.0
C1418 C 0.76961 0.32593 0.75974 0.0
C1419 C 0.87575 0.36775 0.74707 0.0
H1420 H 0.7186 0.2432 0.97748 0.0
H1421 H 0.71173 0.28671 0.89081 0.0
H1422 H 0.69279 0.27364 0.94205 0.0
H1423 H 0.78224 0.23743 0.90955 0.0
H1424 H 0.9268 0.40389 0.64457 0.0
H1425 H 0.93545 0.37727 0.74078 0.0
H1426 H 0.84782 0.38355 0.69186 0.0
H1427 H 0.95859 0.39336 0.69324 0.0
Eu1428 Eu 0.79843 0.77161 0.77774 0.0
C1429 C 0.90183 0.87257 0.8645 0.0
N1430 N 0.87405 0.85637 0.86873 0.0
C1431 C 0.8923 0.85787 0.9263 0.0
C1432 C 0.92589 0.88186 0.89124 0.0
C1433 C 0.86886 0.84968 0.89935 0.0
C1434 C 0.92097 0.87392 0.92223 0.0
C1435 C 0.93411 0.89934 0.8292 0.0
C1436 C 0.90596 0.88133 0.83373 0.0
C1437 C 0.958 0.90834 0.85578 0.0
C1438 C 0.95382 0.89959 0.88655 0.0
Eu1439 Eu 0.83563 0.84834 0.82219 0.0
N1440 N 0.88233 0.87281 0.80839 0.0
C1441 C 0.93726 0.90838 0.79827 0.0
C1442 C 0.88481 0.88308 0.77882 0.0
C1443 C 0.91238 0.90037 0.77302 0.0
H1444 H 0.84651 0.83935 0.90388 0.0
H1445 H 0.91417 0.90822 0.74937 0.0
H1446 H 0.79054 0.77917 0.69543 0.0
H1447 H 0.71612 0.71681 0.84936 0.0
H1448 H 0.8654 0.87923 0.76009 0.0
H1449 H 0.95853 0.92223 0.79392 0.0
H1450 H 0.76604 0.74462 0.83987 0.0
H1451 H 0.88801 0.8525 0.95044 0.0
H1452 H 0.97974 0.92231 0.85289 0.0
H1453 H 0.97222 0.90707 0.90672 0.0
H1454 H 0.75008 0.76727 0.64804 0.0
H1455 H 0.93892 0.88075 0.94336 0.0
H1456 H 0.6729 0.70297 0.80343 0.0
N1457 N 0.76134 0.76538 0.73035 0.0
C1458 C 0.73289 0.75048 0.73413 0.0
C1459 C 0.74482 0.76301 0.67221 0.0
C1460 C 0.70937 0.74156 0.70683 0.0
C1461 C 0.7677 0.77073 0.69967 0.0
C1462 C 0.71547 0.74856 0.67583 0.0
N1463 N 0.75062 0.75061 0.791 0.0
C1464 C 0.747 0.74093 0.82064 0.0
C1465 C 0.69892 0.72485 0.7687 0.0
C1466 C 0.72761 0.74222 0.76492 0.0
C1467 C 0.69462 0.71631 0.79963 0.0
C1468 C 0.71884 0.72428 0.82568 0.0
H1469 H 0.69797 0.74193 0.65428 0.0
H1470 H 0.66277 0.71802 0.69021 0.0
H1471 H 0.65338 0.70289 0.74386 0.0
O1472 O 0.80459 0.72832 0.79258 0.0
O1473 O 0.76175 0.80065 0.79155 0.0
O1474 O 0.78637 0.8374 0.83519 0.0
O1475 O 0.78878 0.73038 0.7413 0.0
O1476 O 0.82034 0.77263 0.83157 0.0
O1477 O 0.81198 0.8172 0.85564 0.0
O1478 O 0.82292 0.88896 0.80672 0.0
O1479 O 0.87343 0.82134 0.80751 0.0
O1480 O 0.84899 0.78076 0.76716 0.0
O1481 O 0.84252 0.88959 0.85855 0.0
O1482 O 0.81551 0.84683 0.76747 0.0
O1483 O 0.8233 0.80162 0.74454 0.0
C1484 C 0.76037 0.82198 0.81676 0.0
C1485 C 0.81697 0.69378 0.75156 0.0
C1486 C 0.8474 0.65814 0.76502 0.0
C1487 C 0.85318 0.65379 0.73236 0.0
C1488 C 0.8225 0.6895 0.7186 0.0
C1489 C 0.84058 0.66946 0.70911 0.0
C1490 C 0.82929 0.67781 0.77451 0.0
C1491 C 0.81497 0.78921 0.85776 0.0
C1492 C 0.79736 0.71354 0.76231 0.0
C1493 C 0.6808 0.72484 0.71088 0.0
C1494 C 0.67557 0.71624 0.7415 0.0
C1495 C 0.87498 0.79852 0.78396 0.0
C1496 C 0.83008 0.93636 0.84463 0.0
C1497 C 0.80883 0.97829 0.82976 0.0
C1498 C 0.82079 0.99538 0.86119 0.0
C1499 C 0.84247 0.95339 0.87605 0.0
C1500 C 0.81385 0.94916 0.82138 0.0
C1501 C 0.83795 0.983 0.88419 0.0
C1502 C 0.82136 0.82983 0.74182 0.0
C1503 C 0.83207 0.90458 0.83649 0.0
H1504 H 0.86712 0.63816 0.72493 0.0
H1505 H 0.81278 0.70137 0.70019 0.0
H1506 H 0.84472 0.666 0.68376 0.0
H1507 H 0.82486 0.68061 0.7999 0.0
H1508 H 0.81647 1.01794 0.86797 0.0
H1509 H 0.85515 0.9437 0.89439 0.0
H1510 H 0.80369 0.93594 0.79726 0.0
H1511 H 0.84718 0.99604 0.90851 0.0
Eu1512 Eu 0.61007 0.58252 0.57244 0.0
C1513 C 0.5183 0.47376 0.49082 0.0
N1514 N 0.53083 0.50295 0.48592 0.0
C1515 C 0.53611 0.48355 0.43043 0.0
C1516 C 0.51612 0.44827 0.46624 0.0
C1517 C 0.53749 0.50812 0.45527 0.0
C1518 C 0.52627 0.45346 0.43628 0.0
C1519 C 0.48984 0.43982 0.52363 0.0
C1520 C 0.50577 0.46928 0.51965 0.0
C1521 C 0.489 0.4144 0.49988 0.0
C1522 C 0.50282 0.41852 0.47176 0.0
Eu1523 Eu 0.53109 0.54187 0.53065 0.0
N1524 N 0.50868 0.49382 0.54361 0.0
C1525 C 0.47482 0.43682 0.55115 0.0
C1526 C 0.49426 0.49109 0.57063 0.0
C1527 C 0.47666 0.4627 0.5745 0.0
H1528 H 0.54262 0.53092 0.44888 0.0
H1529 H 0.46499 0.46069 0.59576 0.0
H1530 H 0.59826 0.59675 0.65336 0.0
H1531 H 0.6675 0.6625 0.49889 0.0
H1532 H 0.49555 0.51101 0.5887 0.0
H1533 H 0.46174 0.41466 0.55461 0.0
H1534 H 0.64349 0.6117 0.51182 0.0
H1535 H 0.54199 0.48787 0.40649 0.0
H1536 H 0.47751 0.39146 0.50291 0.0
H1537 H 0.50213 0.39852 0.45387 0.0
H1538 H 0.59736 0.64088 0.69365 0.0
H1539 H 0.52515 0.43452 0.41683 0.0
H1540 H 0.66928 0.70969 0.53768 0.0
N1541 N 0.6096 0.62302 0.6151 0.0
C1542 C 0.62135 0.6519 0.60875 0.0
C1543 C 0.60337 0.64431 0.66953 0.0
C1544 C 0.62256 0.67812 0.63197 0.0
C1545 C 0.60287 0.61906 0.64596 0.0
C1546 C 0.6122 0.67395 0.66207 0.0
N1547 N 0.63084 0.63004 0.55662 0.0
C1548 C 0.64363 0.63217 0.52848 0.0
C1549 C 0.64644 0.68494 0.57282 0.0
C1550 C 0.63317 0.65546 0.57935 0.0
C1551 C 0.65873 0.68742 0.54346 0.0
C1552 C 0.65765 0.66087 0.5214 0.0
H1553 H 0.61209 0.69342 0.68033 0.0
H1554 H 0.63522 0.72801 0.64208 0.0
H1555 H 0.65684 0.73385 0.59093 0.0
O1556 O 0.655 0.58068 0.56167 0.0
O1557 O 0.58389 0.61674 0.54721 0.0
O1558 O 0.53368 0.59402 0.52813 0.0
O1559 O 0.6485 0.59306 0.61232 0.0
O1560 O 0.60667 0.55777 0.52015 0.0
O1561 O 0.56235 0.56597 0.4965 0.0
O1562 O 0.48702 0.54396 0.54293 0.0
O1563 O 0.55655 0.50663 0.55503 0.0
O1564 O 0.60631 0.5299 0.57655 0.0
O1565 O 0.49166 0.53277 0.49154 0.0
O1566 O 0.53342 0.56289 0.58484 0.0
O1567 O 0.58021 0.5587 0.60684 0.0
C1568 C 0.55626 0.61899 0.53407 0.0
C1569 C 0.68592 0.56543 0.60294 0.0
C1570 C 0.72244 0.53604 0.58958 0.0
C1571 C 0.72354 0.52652 0.62077 0.0
C1572 C 0.68653 0.55563 0.63411 0.0
C1573 C 0.70538 0.53619 0.64292 0.0
C1574 C 0.70389 0.55545 0.58081 0.0
C1575 C 0.59058 0.56413 0.49445 0.0
C1576 C 0.6672 0.58623 0.59274 0.0
C1577 C 0.63466 0.7076 0.62483 0.0
C1578 C 0.64695 0.71097 0.59563 0.0
C1579 C 0.5839 0.50453 0.56949 0.0
C1580 C 0.45074 0.55507 0.50396 0.0
C1581 C 0.41431 0.58286 0.52203 0.0
C1582 C 0.40529 0.58661 0.48926 0.0
C1583 C 0.44151 0.55838 0.47105 0.0
C1584 C 0.4367 0.56704 0.52925 0.0
C1585 C 0.41877 0.57416 0.46379 0.0
C1586 C 0.55176 0.55827 0.60996 0.0
C1587 C 0.47332 0.53751 0.51245 0.0
H1588 H 0.73841 0.51176 0.62786 0.0
H1589 H 0.67269 0.56304 0.65166 0.0
H1590 H 0.70608 0.52882 0.66699 0.0
H1591 H 0.70392 0.56322 0.55686 0.0
H1592 H 0.38784 0.59903 0.48348 0.0
H1593 H 0.45165 0.54868 0.45105 0.0
H1594 H 0.44324 0.56436 0.55478 0.0
H1595 H 0.41163 0.57674 0.43844 0.0
Eu1596 Eu 1.02701 0.55482 0.07257 0.0
C1597 C 0.1331 0.6208 0.99067 0.0
N1598 N 0.11412 0.59232 0.9813 0.0
C1599 C 0.10986 0.60029 0.92439 0.0
C1600 C 0.13966 0.64064 0.96713 0.0
C1601 C 0.10455 0.58116 0.94829 0.0
C1602 C 0.12687 0.6304 0.93393 0.0
C1603 C 0.17083 0.6571 0.03225 0.0
C1604 C 0.14864 0.62915 0.02314 0.0
C1605 C 0.17572 0.67752 0.00932 0.0
C1606 C 0.16014 0.66936 0.97691 0.0
Eu1607 Eu 0.10721 0.56345 0.02558 0.0
N1608 N 0.14362 0.60924 0.04529 0.0
C1609 C 0.18828 0.6632 0.06382 0.0
C1610 C 0.16318 0.61326 0.07408 0.0
C1611 C 0.18501 0.64076 0.08448 0.0
H1612 H 0.0932 0.55729 0.93992 0.0
H1613 H 0.1999 0.64419 0.1079 0.0
H1614 H 0.05141 0.57077 0.15769 0.0
H1615 H 0.9292 0.46749 0.00956 0.0
H1616 H 0.163 0.59472 0.08816 0.0
H1617 H 0.20552 0.68438 0.07168 0.0
H1618 H 0.96628 0.5178 0.01971 0.0
H1619 H 0.10145 0.59152 0.89849 0.0
H1620 H 0.19234 0.69925 0.01607 0.0
H1621 H 0.16512 0.6849 0.95916 0.0
H1622 H 0.05148 0.5415 0.20408 0.0
H1623 H 0.13144 0.64496 0.9152 0.0
H1624 H 0.93083 0.43184 0.05066 0.0
N1625 N 1.02678 0.53218 0.12183 0.0
C1626 C 1.00919 0.50291 0.11743 0.0
C1627 C 0.0399 0.53025 0.17973 0.0
C1628 C 1.00728 0.48595 0.14407 0.0
C1629 C 0.04032 0.54658 0.15298 0.0
C1630 C 1.02381 0.49963 0.17513 0.0
N1631 N 0.99115 0.50809 0.06233 0.0
C1632 C 0.96842 0.50116 0.03596 0.0
C1633 C 0.96918 0.46241 0.08333 0.0
C1634 C 0.99053 0.49082 0.08712 0.0
C1635 C 0.9478 0.45332 0.05432 0.0
C1636 C 0.94689 0.47324 0.03093 0.0
H1637 H 1.02303 0.48728 0.19612 0.0
H1638 H 0.98618 0.44322 0.15962 0.0
H1639 H 0.95258 0.4229 0.10666 0.0
O1640 O 0.99706 0.57982 0.04648 0.0
O1641 O 0.03466 0.50747 0.04561 0.0
O1642 O 0.07795 0.51206 0.0179 0.0
O1643 O 0.98683 0.56235 0.09156 0.0
O1644 O 0.05122 0.55863 0.03088 0.0
O1645 O 0.06747 0.55237 0.98489 0.0
O1646 O 0.14362 0.54279 0.04664 0.0
O1647 O 0.09653 0.61038 0.05139 0.0
O1648 O 0.05464 0.60661 0.08095 0.0
O1649 O 0.14084 0.55292 0.99646 0.0
O1650 O 0.09113 0.54688 0.07118 0.0
O1651 O 0.06972 0.57319 0.1076 0.0
C1652 C 0.05338 0.49506 0.02776 0.0
C1653 C 0.97301 0.60804 0.08379 0.0
C1654 C 0.9401 0.64375 0.08232 0.0
C1655 C 0.95278 0.65726 0.11489 0.0
C1656 C 0.98581 0.62187 0.11646 0.0
C1657 C 0.97545 0.64617 0.13195 0.0
C1658 C 0.95016 0.61915 0.06672 0.0
C1659 C 0.0444 0.55402 0.99917 0.0
C1660 C 0.97988 0.57922 0.06968 0.0
C1661 C 0.98773 0.45656 0.13945 0.0
C1662 C 0.9686 0.44492 0.10925 0.0
C1663 C 0.07844 0.62349 0.06976 0.0
C1664 C 0.16585 0.51399 1.00767 0.0
C1665 C 0.20418 0.48436 0.01469 0.0
C1666 C 0.19503 0.46957 0.98187 0.0
C1667 C 0.15622 0.49839 0.97501 0.0
C1668 C 0.18956 0.50647 0.02766 0.0
C1669 C 0.17091 0.47638 0.96221 0.0
C1670 C 0.09379 0.5653 0.09881 0.0
C1671 C 0.15513 0.54135 0.01919 0.0
H1672 H 0.94439 0.67569 0.1274 0.0
H1673 H 1.00308 0.61322 0.13044 0.0
H1674 H 0.98462 0.65606 0.15742 0.0
H1675 H 0.93923 0.60782 0.04209 0.0
H1676 H 0.20662 0.45279 0.9715 0.0
H1677 H 0.13812 0.50396 0.95895 0.0
H1678 H 0.19746 0.51864 0.05269 0.0
H1679 H 0.16397 0.46501 0.93685 0.0
C1680 C 0.03543 0.18547 0.98413 0.0
C1681 C 0.03826 0.21186 0.00852 0.0
C1682 C 0.04111 0.1563 0.992 0.0
C1683 C 0.05088 0.15108 0.02482 0.0
H1684 H 1.02787 0.18696 0.95853 0.0
H1685 H 0.03785 0.13752 0.97178 0.0
S1686 S 0.06327 0.21234 0.09823 0.0
N1687 N 0.0525 0.22973 0.06736 0.0
N1688 N 0.06338 0.17702 0.08161 0.0
C1689 C 0.05452 0.17761 0.04908 0.0
C1690 C 0.0482 0.20694 0.04118 0.0
C1691 C 0.19935 0.79996 0.19173 0.0
C1692 C 0.19492 0.82839 0.18304 0.0
C1693 C 0.22298 0.79817 0.21702 0.0
C1694 C 0.24428 0.82464 0.23438 0.0
H1695 H 0.18422 0.77873 0.1789 0.0
H1696 H 0.22508 0.77567 0.22244 0.0
S1697 S 0.24323 0.90484 0.22185 0.0
N1698 N 0.21386 0.88381 0.19522 0.0
N1699 N 0.25876 0.88037 0.24093 0.0
C1700 C 0.24013 0.85318 0.22599 0.0
C1701 C 0.21546 0.85507 0.20095 0.0
C1702 C 0.56537 0.9106 0.5111 0.0
C1703 C 0.53657 0.88955 0.50607 0.0
C1704 C 0.5693 0.94336 0.51967 0.0
C1705 C 0.54471 0.95799 0.52337 0.0
H1706 H 0.58531 0.90169 0.5079 0.0
H1707 H 0.5922 0.95747 0.52317 0.0
S1708 S 0.4639 0.91408 0.50688 0.0
N1709 N 0.48278 0.88674 0.50221 0.0
N1710 N 0.48968 0.94698 0.51708 0.0
C1711 C 0.51573 0.93707 0.5173 0.0
C1712 C 0.51184 0.90365 0.5089 0.0
C1713 C 0.52204 0.32907 0.69447 0.0
C1714 C 0.52491 0.31137 0.66483 0.0
C1715 C 0.49935 0.31846 0.7133 0.0
C1716 C 0.47929 0.28948 0.70338 0.0
H1717 H 0.53854 0.35045 0.70411 0.0
H1718 H 0.49916 0.33178 0.73703 0.0
S1719 S 0.47527 0.23593 0.62634 0.0
N1720 N 0.50405 0.26491 0.62509 0.0
N1721 N 0.46184 0.24468 0.66082 0.0
C1722 C 0.48061 0.27266 0.67272 0.0
C1723 C 0.50337 0.28364 0.65335 0.0
C1724 C 0.07342 0.87928 0.70107 0.0
C1725 C 0.06651 0.84919 0.68345 0.0
C1726 C 0.08415 0.90482 0.6857 0.0
C1727 C 0.08782 0.90109 0.65214 0.0
H1728 H 0.07147 0.88309 0.72711 0.0
H1729 H 0.09054 0.92756 0.70036 0.0
S1730 S 0.07127 0.82776 0.59427 0.0
N1731 N 0.0627 0.81758 0.62973 0.0
N1732 N 0.08274 0.86564 0.6014 0.0
C1733 C 0.07971 0.87144 0.63386 0.0
C1734 C 0.06907 0.84546 0.64938 0.0
C1735 C 0.46483 0.85779 0.87449 0.0
C1736 C 0.48704 0.85001 0.85537 0.0
C1737 C 0.43317 0.85139 0.86255 0.0
C1738 C 0.4205 0.83833 0.82969 0.0
H1739 H 0.47169 0.86838 0.90012 0.0
H1740 H 0.41831 0.85626 0.87992 0.0
S1741 S 0.46582 0.81066 0.76787 0.0
N1742 N 0.49187 0.82553 0.80082 0.0
N1743 N 0.43301 0.81588 0.77792 0.0
C1744 C 0.44191 0.83048 0.80956 0.0
C1745 C 0.47461 0.83589 0.82225 0.0
C1746 C 0.57107 0.1747 0.16593 0.0
C1747 C 0.54642 0.18875 0.15923 0.0
C1748 C 0.57552 0.14944 0.14423 0.0
C1749 C 0.55523 0.13605 0.11474 0.0
H1750 H 0.58873 0.18511 0.18676 0.0
H1751 H 0.59629 0.14185 0.14966 0.0
S1752 S 0.48773 0.16457 0.08405 0.0
N1753 N 0.50234 0.18785 0.11923 0.0
N1754 N 0.50946 0.1396 0.07996 0.0
C1755 C 0.5302 0.14947 0.10791 0.0
C1756 C 0.52605 0.17569 0.12968 0.0
C1757 C 0.18881 0.36146 0.32641 0.0
C1758 C 0.17089 0.34371 0.34646 0.0
C1759 C 0.21707 0.35544 0.31742 0.0
C1760 C 0.22969 0.33075 0.32708 0.0
H1761 H 0.18124 0.38083 0.31792 0.0
H1762 H 0.2292 0.37052 0.30249 0.0
S1763 S 0.19373 0.27794 0.38154 0.0
N1764 N 0.16986 0.30065 0.37668 0.0
N1765 N 0.22128 0.2896 0.36018 0.0
C1766 C 0.21207 0.31307 0.34736 0.0
C1767 C 0.18356 0.31942 0.35684 0.0
C1768 C 1.00034 0.04838 0.17733 0.0
C1769 C 1.01821 0.03838 0.20259 0.0
C1770 C 1.01117 0.05496 0.14734 0.0
C1771 C 0.0404 0.05192 0.14113 0.0
H1772 H 0.97762 0.05066 0.18044 0.0
H1773 H 0.99637 0.0622 0.12876 0.0
S1774 S 0.09733 0.02924 0.20041 0.0
N1775 N 0.06771 0.02833 0.21984 0.0
N1776 N 0.08725 0.03929 0.16429 0.0
C1777 C 0.05856 0.04264 0.16665 0.0
C1778 C 0.04774 0.0363 0.19699 0.0
C1779 C 0.30445 0.72785 0.51431 0.0
C1780 C 0.30085 0.69571 0.50978 0.0
C1781 C 0.2881 0.7417 0.49241 0.0
C1782 C 0.2683 0.72386 0.46499 0.0
H1783 H 0.3183 0.74218 0.53628 0.0
H1784 H 0.2903 0.76638 0.49739 0.0
S1785 S 0.25697 0.6402 0.43761 0.0
N1786 N 0.27991 0.64705 0.47333 0.0
N1787 N 0.25009 0.6737 0.43068 0.0
C1788 C 0.26716 0.69228 0.45797 0.0
C1789 C 0.28341 0.67798 0.48075 0.0
C1790 C 0.65703 0.11122 0.6573 0.0
C1791 C 0.66952 0.08782 0.66899 0.0
C1792 C 0.63162 0.10383 0.63296 0.0
C1793 C 0.61999 0.07329 0.61782 0.0
H1794 H 0.66416 0.13466 0.67029 0.0
H1795 H 0.6202 0.12178 0.62719 0.0
S1796 S 0.64803 1.00465 0.63537 0.0
N1797 N 0.6708 0.0336 0.66138 0.0
N1798 N 0.62431 1.02007 0.61297 0.0
C1799 C 0.63481 0.05033 0.62599 0.0
C1800 C 0.65989 0.05764 0.65192 0.0
C1801 C 0.36593 0.38751 0.95038 0.0
C1802 C 0.34385 0.37744 0.97029 0.0
C1803 C 0.36275 0.37474 0.91654 0.0
C1804 C 0.33741 0.35128 0.90104 0.0
H1805 H 0.38573 0.40564 0.96099 0.0
H1806 H 0.38002 0.38378 0.90227 0.0
S1807 S 0.27091 0.32018 0.94049 0.0
N1808 N 0.29425 0.34466 0.97073 0.0
N1809 N 0.28845 0.32082 0.90768 0.0
C1810 C 0.31481 0.34168 0.92042 0.0
C1811 C 0.31801 0.35464 0.95482 0.0
C1812 C 1.01336 1.01407 0.39222 0.0
C1813 C 1.00292 0.03761 0.37804 0.0
C1814 C 1.02606 1.0184 0.42622 0.0
C1815 C 1.0292 0.04637 0.44761 0.0
H1816 H 1.01115 0.99196 0.37717 0.0
H1817 H 0.03276 0.99941 0.4359 0.0
S1818 S 1.00965 0.11646 0.42036 0.0
N1819 N 0.99893 0.09048 0.38685 0.0
N1820 N 1.02326 0.099 0.44983 0.0
C1821 C 1.01969 0.07029 0.43298 0.0
C1822 C 1.00654 0.06578 0.3986 0.0
C1823 C 0.2731 0.72238 0.68619 0.0
C1824 C 0.2966 0.70963 0.676 0.0
C1825 C 0.27967 0.74761 0.71091 0.0
C1826 C 0.30936 0.75906 0.72739 0.0
H1827 H 0.25042 0.71558 0.67199 0.0
H1828 H 0.26159 0.75836 0.71694 0.0
S1829 S 0.37699 0.7279 0.71583 0.0
N1830 N 0.34939 0.70626 0.68747 0.0
N1831 N 0.36137 0.75267 0.73661 0.0
C1832 C 0.33215 0.74353 0.72092 0.0
C1833 C 0.32568 0.71846 0.69477 0.0
C1834 C 0.65316 0.08744 0.83208 0.0
C1835 C 0.68377 0.08544 0.8366 0.0
C1836 C 0.64138 0.10271 0.85689 0.0
C1837 C 0.65962 0.11565 0.88718 0.0
H1838 H 0.63857 0.07873 0.80851 0.0
H1839 H 0.61814 0.10517 0.85207 0.0
S1840 S 0.73863 0.11039 0.91437 0.0
N1841 N 0.73077 0.09374 0.87526 0.0
N1842 N 0.70752 0.12098 0.9231 0.0
C1843 C 0.68909 0.11087 0.89355 0.0
C1844 C 0.70149 0.09596 0.86788 0.0
C1845 C 0.33019 0.38304 0.1717 0.0
C1846 C 0.34025 0.36484 0.14663 0.0
C1847 C 0.3233 0.37218 0.20176 0.0
C1848 C 0.32626 0.34262 0.20848 0.0
H1849 H 0.32795 0.40601 0.16833 0.0
H1850 H 0.31588 0.38724 0.22002 0.0
S1851 S 0.35177 0.28572 0.15121 0.0
N1852 N 0.35112 0.31484 0.13073 0.0
N1853 N 0.34174 0.29636 0.18712 0.0
C1854 C 0.33661 0.32459 0.18364 0.0
C1855 C 0.34257 0.33511 0.15295 0.0
C1856 C 0.28912 0.03904 0.05001 0.0
C1857 C 0.27797 1.0132 0.02541 0.0
C1858 C 0.27039 0.04814 0.07149 0.0
C1859 C 0.24016 0.03197 0.06835 0.0
H1860 H 0.31294 0.05077 0.05455 0.0
H1861 H 0.27981 0.06724 0.09135 0.0
S1862 S 0.19831 0.96791 1.003 0.0
N1863 N 0.23364 0.97502 0.99531 0.0
N1864 N 0.19811 0.99298 0.03582 0.0
C1865 C 0.22774 1.00851 0.04159 0.0
C1866 C 0.24683 0.99897 0.01984 0.0
C1867 C 0.70284 0.64215 0.04257 0.0
C1868 C 0.69902 0.66416 0.0216 0.0
C1869 C 0.67806 0.61872 0.04679 0.0
C1870 C 0.64855 0.61603 0.02977 0.0
H1871 H 0.72487 0.64385 0.05696 0.0
H1872 H 0.68188 0.60339 0.06438 0.0
S1873 S 0.62803 0.66472 0.96754 0.0
N1874 N 0.66436 0.67971 0.98131 0.0
N1875 N 0.6184 0.63544 0.98761 0.0
C1876 C 0.64517 0.63669 1.00698 0.0
C1877 C 0.67016 0.66078 1.00338 0.0
C1878 C 0.71321 0.51858 0.27186 0.0
C1879 C 0.70214 0.51825 0.30216 0.0
C1880 C 0.72561 0.49473 0.25899 0.0
C1881 C 0.72782 0.47018 0.27639 0.0
H1882 H 0.71163 0.53709 0.25764 0.0
H1883 H 0.73304 0.49518 0.23501 0.0
S1884 S 0.70687 0.46163 0.35942 0.0
N1885 N 0.6971 0.49357 0.35103 0.0
N1886 N 0.72117 0.44858 0.32701 0.0
C1887 C 0.71867 0.47061 0.30774 0.0
C1888 C 0.70547 0.4947 0.32059 0.0
C1889 C 0.95962 0.4735 0.52081 0.0
C1890 C 0.93352 0.48511 0.51482 0.0
C1891 C 0.98825 0.49334 0.52996 0.0
C1892 C 0.99176 0.52547 0.53316 0.0
H1893 H 0.95805 0.44892 0.51814 0.0
H1894 H 1.00781 0.48326 0.53332 0.0
S1895 S 0.93073 0.568 0.5231 0.0
N1896 N 0.91301 0.53131 0.51478 0.0
N1897 N 0.96707 0.56826 0.53218 0.0
C1898 C 0.9659 0.53752 0.52862 0.0
C1899 C 0.93671 0.51743 0.51929 0.0
C1900 C 0.39028 0.13067 0.33326 0.0
C1901 C 0.3787 0.09882 0.32433 0.0
C1902 C 0.3814 0.15089 0.31315 0.0
C1903 C 0.36122 0.13953 0.28357 0.0
H1904 H 0.40708 0.1399 0.35516 0.0
H1905 H 0.39088 0.1754 0.32024 0.0
S1906 S 0.32093 0.05893 0.25179 0.0
N1907 N 0.3433 0.05718 0.28589 0.0
N1908 N 0.32684 0.09579 0.24819 0.0
C1909 C 0.34791 0.10814 0.2755 0.0
C1910 C 0.35657 0.08753 0.29601 0.0
C1911 C 0.35588 0.15043 0.56385 0.0
C1912 C 0.36072 0.17612 0.54706 0.0
C1913 C 0.37995 0.13795 0.57551 0.0
C1914 C 0.40952 0.15045 0.57033 0.0
H1915 H 0.33355 0.14067 0.56943 0.0
H1916 H 0.37568 0.11937 0.59001 0.0
S1917 S 0.43374 0.21378 0.52318 0.0
N1918 N 0.39691 0.21113 0.52254 0.0
N1919 N 0.44229 0.187 0.54431 0.0
C1920 C 0.4145 0.17444 0.55156 0.0
C1921 C 0.39001 0.18752 0.53996 0.0
C1922 C 0.71931 0.71287 0.34353 0.0
C1923 C 0.71681 0.68246 0.32867 0.0
C1924 C 0.74304 0.73697 0.33921 0.0
C1925 C 0.76485 0.73222 0.31864 0.0
H1926 H 0.70266 0.71818 0.35859 0.0
H1927 H 0.74355 0.75982 0.35146 0.0
S1928 S 0.76892 0.65646 0.27429 0.0
N1929 N 0.73938 0.6484 0.29389 0.0
N1930 N 0.78228 0.69407 0.28352 0.0
C1931 C 0.7629 0.70174 0.30392 0.0
C1932 C 0.73934 0.67688 0.30942 0.0
C1933 C 0.90418 0.41868 0.83348 0.0
C1934 C 0.89508 0.4463 0.83062 0.0
C1935 C 0.88288 0.39065 0.82676 0.0
C1936 C 0.85216 0.38944 0.81614 0.0
H1937 H 0.92751 0.41877 0.84275 0.0
H1938 H 0.89031 0.37028 0.83221 0.0
S1939 S 0.81686 0.45416 0.80097 0.0
N1940 N 0.85324 0.47019 0.81357 0.0
N1941 N 0.81355 0.4169 0.80085 0.0
C1942 C 0.84295 0.41636 0.81116 0.0
C1943 C 0.86439 0.44501 0.81828 0.0
C1944 C 0.08012 0.91571 0.07194 0.0
C1945 C 0.10289 0.91403 0.09844 0.0
C1946 C 0.07472 0.94453 0.06255 0.0
C1947 C 0.09172 0.97446 0.07847 0.0
H1948 H 0.06564 0.8944 0.0585 0.0
H1949 H 0.05686 0.94313 0.04219 0.0
S1950 S 0.15461 0.98416 0.14908 0.0
N1951 N 0.14249 0.9464 0.14022 0.0
N1952 N 0.13335 0.99873 0.12274 0.0
C1953 C 0.11467 0.97285 0.10477 0.0
C1954 C 0.11981 0.94361 0.11458 0.0
C1955 C 0.94562 0.30469 0.88717 0.0
C1956 C 0.94071 0.29486 0.91785 0.0
C1957 C 0.92131 0.30751 0.86321 0.0
C1958 C 0.89045 0.30008 0.86805 0.0
H1959 H 0.96863 0.3112 0.88192 0.0
H1960 H 0.92703 0.31626 0.84096 0.0
S1961 S 0.86477 0.27177 0.94355 0.0
N1962 N 0.90209 0.27726 0.95116 0.0
N1963 N 0.85704 0.28111 0.90648 0.0
C1964 C 0.88534 0.28945 0.89838 0.0
C1965 C 0.91009 0.28725 0.92298 0.0
C1966 C 0.62156 0.21236 0.58067 0.0
C1967 C 0.60038 0.22896 0.5921 0.0
C1968 C 0.61558 0.17922 0.57399 0.0
C1969 C 0.58772 0.15956 0.57766 0.0
H1970 H 0.64346 0.22521 0.57683 0.0
H1971 H 0.63323 0.16893 0.56575 0.0
S1972 S 0.52314 0.18987 0.60496 0.0
N1973 N 0.54947 0.22158 0.60593 0.0
N1974 N 0.53814 0.16083 0.59292 0.0
C1975 C 0.56626 0.17587 0.58893 0.0
C1976 C 0.57251 0.20967 0.59616 0.0
C1977 C 0.63596 0.80978 0.44435 0.0
C1978 C 0.60804 0.81581 0.43192 0.0
C1979 C 0.66223 0.82048 0.4306 0.0
C1980 C 0.66123 0.83796 0.4046 0.0
H1981 H 0.63754 0.79709 0.46497 0.0
H1982 H 0.68361 0.81608 0.4411 0.0
S1983 S 0.59394 0.86059 0.36406 0.0
N1984 N 0.58101 0.84033 0.39226 0.0
N1985 N 0.63046 0.86072 0.36693 0.0
C1986 C 0.63342 0.84369 0.39171 0.0
C1987 C 0.60674 0.83254 0.4053 0.0
C1988 C 0.06166 0.28314 0.46307 0.0
C1989 C 0.07766 0.28552 0.43587 0.0
C1990 C 0.05059 0.25489 0.47275 0.0
C1991 C 0.05505 0.22769 0.45588 0.0
H1992 H 0.05635 0.30315 0.47642 0.0
H1993 H 0.03733 0.25418 0.49289 0.0
S1994 S 0.09872 0.22093 0.38625 0.0
N1995 N 0.09974 0.25814 0.39411 0.0
N1996 N 0.07885 0.2044 0.41289 0.0
C1997 C 0.07231 0.22942 0.42986 0.0
C1998 C 0.08355 0.2585 0.41964 0.0
C1999 C 0.67373 0.31704 0.27142 0.0
C2000 C 0.65465 0.28949 0.25268 0.0
C2001 C 0.70613 0.32112 0.2809 0.0
C2002 C 0.72231 0.29803 0.27252 0.0
H2003 H 0.66381 0.3365 0.27741 0.0
H2004 H 0.71884 0.34317 0.2945 0.0
S2005 S 0.68485 0.22259 0.22051 0.0
N2006 N 0.65637 0.23962 0.22394 0.0
N2007 N 0.7153 0.24658 0.24254 0.0
C2008 C 0.70349 0.27034 0.25407 0.0
C2009 C 0.67067 0.26641 0.24394 0.0
C2010 C 0.57053 0.95329 0.92589 0.0
C2011 C 0.59228 0.93606 0.9338 0.0
C2012 C 0.56597 0.9776 0.94908 0.0
C2013 C 0.58354 0.98688 0.98108 0.0
H2014 H 0.55598 0.94712 0.90208 0.0
H2015 H 0.54754 0.98824 0.94217 0.0
S2016 S 0.64275 0.94858 0.01476 0.0
N2017 N 0.63029 0.92911 0.97714 0.0
N2018 N 0.62321 0.97549 0.0191 0.0
C2019 C 0.60503 0.96948 0.98926 0.0
C2020 C 0.60907 0.94419 0.96612 0.0
C2021 C 0.93714 0.76774 0.73612 0.0
C2022 C 0.96632 0.78055 0.75564 0.0
C2023 C 0.9088 0.77323 0.74544 0.0
C2024 C 0.90675 0.79294 0.77473 0.0
H2025 H 0.936 0.75284 0.71304 0.0
H2026 H 0.88802 0.76194 0.72887 0.0
S2027 S 0.97608 0.83584 0.83367 0.0
N2028 N 0.99036 0.81613 0.80551 0.0
N2029 N 0.93883 0.82672 0.82225 0.0
C2030 C 0.93591 0.80669 0.79398 0.0
C2031 C 0.96476 0.80057 0.78479 0.0
C2032 C 0.10966 0.09193 0.91074 0.0
C2033 C 0.13548 0.08072 0.90435 0.0
C2034 C 0.09564 0.08642 0.93915 0.0
C2035 C 0.10652 0.06921 0.96263 0.0
H2036 H 0.10045 0.10554 0.8939 0.0
H2037 H 0.07638 0.09628 0.94305 0.0
S2038 S 0.17079 0.03106 0.95555 0.0
N2039 N 0.1695 0.04914 0.92302 0.0
N2040 N 0.14339 0.03889 0.97552 0.0
C2041 C 0.13169 0.0571 0.95593 0.0
C2042 C 0.14601 0.06278 0.92718 0.0
C2043 C 0.8529 0.38702 0.57635 0.0
C2044 C 0.83801 0.41142 0.57548 0.0
C2045 C 0.86713 0.3814 0.606 0.0
C2046 C 0.8665 0.39951 0.63593 0.0
H2047 H 0.85546 0.3733 0.55379 0.0
H2048 H 0.87966 0.3634 0.60541 0.0
S2049 S 0.82547 0.46202 0.64792 0.0
N2050 N 0.8204 0.45153 0.60736 0.0
N2051 N 0.84599 0.4396 0.66396 0.0
C2052 C 0.84938 0.42211 0.63599 0.0
C2053 C 0.83546 0.42847 0.60548 0.0
C2054 C 0.469 0.06995 0.4592 0.0
C2055 C 0.45786 0.04288 0.43649 0.0
C2056 C 0.49558 0.07333 0.48134 0.0
C2057 C 0.51131 0.04961 0.48111 0.0
H2058 H 0.4589 0.08961 0.45765 0.0
H2059 H 0.50482 0.0952 0.49731 0.0
S2060 S 0.48897 0.97303 0.42905 0.0
N2061 N 0.46224 0.99094 0.41731 0.0
N2062 N 0.513 0.99761 0.45854 0.0
C2063 C 0.49947 1.02186 0.45982 0.0
C2064 C 0.47219 1.01828 0.43779 0.0
C2065 C 0.82188 0.76045 0.14817 0.0
C2066 C 0.79288 0.75281 0.12855 0.0
C2067 C 0.82561 0.76978 0.18303 0.0
C2068 C 0.80056 0.77188 0.1998 0.0
H2069 H 0.84186 0.76023 0.13644 0.0
H2070 H 0.84843 0.77622 0.19683 0.0
S2071 S 0.71976 0.7466 0.16017 0.0
N2072 N 0.73882 0.74334 0.12901 0.0
N2073 N 0.74555 0.75977 0.19361 0.0
C2074 C 0.77153 0.76219 0.1804 0.0
C2075 C 0.76782 0.75294 0.14517 0.0
C2076 C 0.12063 0.11009 0.70454 0.0
C2077 C 0.12806 0.08695 0.72194 0.0
C2078 C 0.11198 0.10484 0.66985 0.0
C2079 C 0.10937 0.07614 0.65038 0.0
H2080 H 0.12154 0.13268 0.71787 0.0
H2081 H 0.1076 0.12367 0.65819 0.0
S2082 S 0.12582 1.00733 0.6839 0.0
N2083 N 0.13287 0.03403 0.71691 0.0
N2084 N 0.11539 0.02388 0.65206 0.0
C2085 C 0.11734 0.05283 0.66745 0.0
C2086 C 0.12684 0.05831 0.70294 0.0
C2087 C 0.85946 0.41102 0.41567 0.0
C2088 C 0.83584 0.42664 0.41603 0.0
C2089 C 0.85604 0.38393 0.39382 0.0
C2090 C 0.82923 0.37248 0.37124 0.0
H2091 H 0.87965 0.41842 0.43418 0.0
H2092 H 0.87423 0.37177 0.39474 0.0
S2093 S 0.76035 0.40416 0.3639 0.0
N2094 N 0.78485 0.42872 0.39304 0.0
N2095 N 0.77823 0.37758 0.35132 0.0
C2096 C 0.80577 0.38833 0.37074 0.0
C2097 C 0.8093 0.41583 0.3931 0.0
C2098 C 0.48502 1.01529 0.26851 0.0
C2099 C 0.46696 0.03689 0.27255 0.0
C2100 C 0.48684 1.00092 0.23722 0.0
C2101 C 0.4712 1.00814 0.20895 0.0
H2102 H 0.49666 1.00815 0.28974 0.0
H2103 H 0.50035 0.9838 0.2351 0.0
S2104 S 0.42449 0.06616 0.20575 0.0
N2105 N 0.43462 0.06623 0.24573 0.0
N2106 N 0.44037 0.04085 0.18614 0.0
C2107 C 0.45478 0.03117 0.21228 0.0
C2108 C 0.45196 0.04508 0.24438 0.0
C2109 C 0.77803 0.76284 0.93238 0.0
C2110 C 0.79837 0.74716 0.94764 0.0
C2111 C 0.78385 0.7769 0.904 0.0
C2112 C 0.81013 0.77567 0.88923 0.0
H2113 H 0.75714 0.76379 0.94206 0.0
H2114 H 0.76713 0.78808 0.89291 0.0
S2115 S 0.87339 0.7428 0.92319 0.0
N2116 N 0.84788 0.735 0.94806 0.0
N2117 N 0.8584 0.76079 0.89507 0.0
C2118 C 0.8312 0.76126 0.90515 0.0
C2119 C 0.82542 0.74718 0.93412 0.0
C2120 C 0.85941 0.09143 0.08529 0.0
C2121 C 0.8674 0.12355 0.09524 0.0
C2122 C 0.87523 0.07734 0.06333 0.0
C2123 C 0.89962 0.09499 0.05145 0.0
H2124 H 0.83893 0.07761 0.09147 0.0
H2125 H 0.86724 0.05297 0.05402 0.0
S2126 S 0.93451 0.17792 0.07638 0.0
N2127 N 0.90531 0.1713 0.0967 0.0
N2128 N 0.93475 0.14434 0.05522 0.0
C2129 C 0.91041 0.12608 0.06454 0.0
C2130 C 0.89451 0.14048 0.08693 0.0
C2131 C 0.46925 0.45817 0.0822 0.0
C2132 C 0.44041 0.45809 0.0655 0.0
C2133 C 0.49445 0.48259 0.08272 0.0
C2134 C 0.49215 0.50761 0.06569 0.0
H2135 H 0.4724 0.43911 0.09493 0.0
H2136 H 0.51616 0.48126 0.09577 0.0
S2137 S 0.4214 0.51758 0.01689 0.0
N2138 N 0.41066 0.48521 0.03177 0.0
N2139 N 0.4581 0.52998 0.03076 0.0
C2140 C 0.4632 0.50776 0.04888 0.0
C2141 C 0.43738 0.48331 0.04926 0.0
C2142 C 0.44666 0.63688 0.79463 0.0
C2143 C 0.43191 0.60568 0.7918 0.0
C2144 C 0.43238 0.66019 0.80568 0.0
C2145 C 0.40311 0.65283 0.81433 0.0
H2146 H 0.46986 0.64325 0.78991 0.0
H2147 H 0.4451 0.68393 0.8098 0.0
S2148 S 0.35479 0.5751 0.81148 0.0
N2149 N 0.38599 0.56892 0.79807 0.0
N2150 N 0.3596 0.61286 0.81876 0.0
C2151 C 0.38755 0.62196 0.80997 0.0
C2152 C 0.40188 0.59828 0.79871 0.0
C2153 C 0.20245 0.6024 0.55197 0.0
C2154 C 0.20646 0.63453 0.55469 0.0
C2155 C 0.17394 0.58358 0.55268 0.0
C2156 C 0.14869 0.59631 0.55634 0.0
H2157 H 0.22161 0.59183 0.55033 0.0
H2158 H 0.1719 0.55901 0.55176 0.0
S2159 S 0.14753 0.679 0.56695 0.0
N2160 N 0.18264 0.67819 0.56166 0.0
N2161 N 0.12986 0.64269 0.56503 0.0
C2162 C 0.15237 0.62821 0.55916 0.0
C2163 C 0.18107 0.64737 0.55766 0.0
C2164 C 0.77785 1.00968 0.75573 0.0
C2165 C 0.74924 1.01248 0.76321 0.0
C2166 C 0.79696 0.99756 0.77699 0.0
C2167 C 0.78814 0.98899 0.80659 0.0
H2168 H 0.78617 1.01864 0.7345 0.0
H2169 H 0.81926 0.99629 0.77118 0.0
S2170 S 0.71466 0.98863 0.836 0.0
N2171 N 0.71193 1.00269 0.80087 0.0
N2172 N 0.74856 0.98076 0.84097 0.0
C2173 C 0.759 0.98965 0.81329 0.0
C2174 C 0.73924 1.00116 0.79142 0.0
C2175 C 0.77606 0.97336 0.57237 0.0
C2176 C 0.77387 0.94303 0.55705 0.0
C2177 C 0.75557 0.99044 0.56123 0.0
C2178 C 0.73237 0.97769 0.53448 0.0
H2179 H 0.79488 0.98471 0.59165 0.0
H2180 H 0.75908 1.01436 0.57213 0.0
S2181 S 0.71303 0.8977 0.49032 0.0
N2182 N 0.74381 0.89965 0.51694 0.0
N2183 N 0.70532 0.9321 0.49601 0.0
C2184 C 0.72808 0.94666 0.52098 0.0
C2185 C 0.74883 0.92915 0.53239 0.0
C2186 C 0.39993 0.44604 0.79995 0.0
C2187 C 0.42668 0.44276 0.78739 0.0
C2188 C 0.37608 0.42026 0.79997 0.0
C2189 C 0.37757 0.39029 0.7864 0.0
H2190 H 0.39797 0.4685 0.81117 0.0
H2191 H 0.35682 0.42385 0.81163 0.0
S2192 S 0.44137 0.3707 0.74617 0.0
N2193 N 0.45253 0.40805 0.75919 0.0
N2194 N 0.4073 0.36018 0.7566 0.0
C2195 C 0.40353 0.38738 0.77173 0.0
C2196 C 0.42815 0.41339 0.77294 0.0
C2197 C 0.23758 0.70514 0.29492 0.0
C2198 C 0.24906 0.6787 0.29733 0.0
C2199 C 0.2567 0.73303 0.29248 0.0
C2200 C 0.288 0.73576 0.29378 0.0
H2201 H 0.21339 0.70393 0.29259 0.0
H2202 H 0.2466 0.75213 0.28795 0.0
S2203 S 0.3299 0.6743 0.30157 0.0
N2204 N 0.29403 0.65723 0.30159 0.0
N2205 N 0.3302 0.71064 0.29852 0.0
C2206 C 0.30013 0.71006 0.29746 0.0
C2207 C 0.28059 0.6813 0.29915 0.0
C2208 C 0.51959 0.69161 0.5285 0.0
C2209 C 0.53626 0.71094 0.5087 0.0
C2210 C 0.52592 0.66281 0.53593 0.0
C2211 C 0.55014 0.65073 0.52511 0.0
H2212 H 0.50086 0.69874 0.53854 0.0
H2213 H 0.51163 0.64996 0.55099 0.0
S2214 S 0.60095 0.68986 0.47095 0.0
N2215 N 0.57829 0.7136 0.47728 0.0
N2216 N 0.59025 0.66108 0.49149 0.0
C2217 C 0.56708 0.66959 0.50512 0.0
C2218 C 0.56024 0.69881 0.49696 0.0
C2219 C 0.72499 0.34345 0.68007 0.0
C2220 C 0.69398 0.33471 0.68351 0.0
C2221 C 0.74881 0.34177 0.70508 0.0
C2222 C 0.74326 0.32981 0.73457 0.0
H2223 H 0.73107 0.35186 0.65771 0.0
H2224 H 0.77195 0.34983 0.70091 0.0
S2225 S 0.66584 0.30292 0.75597 0.0
N2226 N 0.65917 0.31453 0.71984 0.0
N2227 N 0.70314 0.30856 0.76475 0.0
C2228 C 0.71218 0.32096 0.73825 0.0
C2229 C 0.68793 0.32395 0.71338 0.0
C2230 C 0.03386 0.4048 0.02962 0.0
C2231 C 0.0368 0.39107 0.99744 0.0
C2232 C 0.03816 0.4377 0.03906 0.0
C2233 C 0.04632 0.45936 0.01725 0.0
H2234 H 1.02824 0.39004 0.04789 0.0
H2235 H 0.03576 0.44626 0.06411 0.0
S2236 S 0.0546 0.43691 0.92957 0.0
N2237 N 0.04657 0.40361 0.94332 0.0
N2238 N 0.05527 0.4635 0.96121 0.0
C2239 C 0.0488 0.44594 0.98513 0.0
C2240 C 0.04392 0.41271 0.97531 0.0
C2241 C 0.03578 0.82126 0.20728 0.0
C2242 C 0.03213 0.81702 0.17238 0.0
C2243 C 1.01147 0.81117 0.22402 0.0
C2244 C 0.98265 0.79647 0.20649 0.0
H2245 H 0.05796 0.83109 0.22187 0.0
H2246 H 1.01581 0.81278 0.25072 0.0
S2247 S 0.95979 0.78343 0.1155 0.0
N2248 N 0.9964 0.80014 0.12112 0.0
N2249 N 0.95074 0.78086 0.15286 0.0
C2250 C 0.97799 0.79425 0.17186 0.0
C2251 C 1.00275 0.80467 0.1547 0.0
C2252 C 0.58438 0.37882 0.20084 0.0
C2253 C 0.56439 0.35132 0.18475 0.0
C2254 C 0.59503 0.40241 0.18283 0.0
C2255 C 0.58536 0.39941 0.1485 0.0
H2256 H 0.59357 0.38116 0.22681 0.0
H2257 H 0.61243 0.4222 0.19531 0.0
S2258 S 0.52957 0.33399 0.09615 0.0
N2259 N 0.53277 0.32386 0.1334 0.0
N2260 N 0.55227 0.36854 0.10002 0.0
C2261 C 0.56329 0.3733 0.13291 0.0
C2262 C 0.55295 0.3491 0.15095 0.0
C2263 C 0.96405 0.32858 0.36971 0.0
C2264 C 0.9874 0.34609 0.35518 0.0
C2265 C 0.93235 0.32417 0.35814 0.0
C2266 C 0.92075 0.33716 0.33105 0.0
H2267 H 0.97037 0.31844 0.3913 0.0
H2268 H 0.91663 0.31069 0.37139 0.0
S2269 S 0.97116 0.3823 0.28067 0.0
N2270 N 0.99566 0.37502 0.30997 0.0
N2271 N 0.93686 0.36616 0.2877 0.0
C2272 C 0.94377 0.35375 0.31517 0.0
C2273 C 0.97647 0.35828 0.32716 0.0
C2274 C 1.02429 0.66461 0.64413 0.0
C2275 C 0.04957 0.68722 0.66184 0.0
C2276 C 1.02786 0.63858 0.6225 0.0
C2277 C 0.05685 0.63464 0.61626 0.0
H2278 H 1.00159 0.66794 0.64549 0.0
H2279 H 1.0077 0.6223 0.6092 0.0
S2280 S 0.13032 0.68758 0.65494 0.0
N2281 N 0.10465 0.70289 0.67145 0.0
N2282 N 0.11104 0.65633 0.62968 0.0
C2283 C 0.08207 0.65697 0.63387 0.0
C2284 C 0.07852 0.6824 0.65683 0.0
C2285 C 0.70041 0.85686 0.86394 0.0
C2286 C 0.67085 0.84357 0.8456 0.0
C2287 C 0.72812 0.84995 0.85452 0.0
C2288 C 0.72911 0.82875 0.826 0.0
H2289 H 0.70236 0.87322 0.88614 0.0
H2290 H 0.74929 0.86159 0.87022 0.0
S2291 S 0.65842 0.78559 0.76943 0.0
N2292 N 0.64519 0.80657 0.79743 0.0
N2293 N 0.69578 0.7942 0.77986 0.0
C2294 C 0.6996 0.81503 0.80763 0.0
C2295 C 0.67132 0.82216 0.81723 0.0
C2296 C 0.5013 0.5496 0.6799 0.0
C2297 C 0.5197 0.54052 0.70544 0.0
C2298 C 0.51156 0.55544 0.6494 0.0
C2299 C 0.54073 0.55248 0.64274 0.0
H2300 H 0.47862 0.55185 0.68325 0.0
H2301 H 0.49635 0.56217 0.63081 0.0
S2302 S 0.59866 0.53116 0.70191 0.0
N2303 N 0.56957 0.53097 0.72207 0.0
N2304 N 0.5878 0.54011 0.66542 0.0
C2305 C 0.55928 0.54373 0.66829 0.0
C2306 C 0.54912 0.53831 0.69926 0.0
C2307 C 0.77543 0.17496 0.98583 0.0
C2308 C 0.79941 0.19165 0.01029 0.0
C2309 C 0.76035 0.19037 0.96411 0.0
C2310 C 0.76906 0.22246 0.96662 0.0
H2311 H 0.76663 0.15054 0.9854 0.0
H2312 H 0.74101 0.17755 0.94628 0.0
S2313 S 0.83276 0.27557 0.02374 0.0
N2314 N 0.83313 0.24117 0.03368 0.0
N2315 N 0.80465 0.27002 0.99258 0.0
C2316 C 0.79443 0.23895 0.98913 0.0
C2317 C 0.80978 0.22343 0.01104 0.0
C2318 C 0.15686 0.61271 0.16189 0.0
C2319 C 0.17133 0.59023 0.17263 0.0
C2320 C 0.13153 0.60437 0.13749 0.0
C2321 C 0.12188 0.57396 0.12139 0.0
H2322 H 0.16257 0.63591 0.1755 0.0
H2323 H 0.11909 0.62158 0.13167 0.0
S2324 S 0.15551 0.5079 0.13625 0.0
N2325 N 0.17644 0.53718 0.16333 0.0
N2326 N 0.13016 0.52202 0.11459 0.0
C2327 C 0.13842 0.55207 0.12888 0.0
C2328 C 0.16345 0.56029 0.15488 0.0
C2329 C 0.84986 0.89633 0.44532 0.0
C2330 C 0.84641 0.8776 0.47042 0.0
C2331 C 0.84574 0.88365 0.41142 0.0
C2332 C 0.83828 0.85156 0.40083 0.0
H2333 H 0.85548 0.92116 0.45187 0.0
H2334 H 0.84843 0.89917 0.3933 0.0
S2335 S 0.82436 0.79208 0.45563 0.0
N2336 N 0.83347 0.82493 0.48146 0.0
N2337 N 0.82636 0.80136 0.41827 0.0
C2338 C 0.83489 0.83255 0.42554 0.0
C2339 C 0.83879 0.84544 0.46006 0.0
C2340 C 0.53101 0.53242 0.89223 0.0
C2341 C 0.50256 0.5393 0.88283 0.0
C2342 C 0.54387 0.53505 0.92603 0.0
C2343 C 0.52907 0.54498 0.95221 0.0
H2344 H 0.54357 0.52501 0.8733 0.0
H2345 H 0.56584 0.52967 0.9316 0.0
S2346 S 0.45402 0.56603 0.94131 0.0
N2347 N 0.46004 0.55639 0.90317 0.0
N2348 N 0.48386 0.56154 0.96558 0.0
C2349 C 0.50051 0.55172 0.943 0.0
C2350 C 0.4874 0.54883 0.90879 0.0
C2351 C 0.7723 0.22693 0.18675 0.0
C2352 C 0.79505 0.21261 0.17707 0.0
C2353 C 0.77959 0.25217 0.21157 0.0
C2354 C 0.80898 0.26176 0.22926 0.0
H2355 H 0.74987 0.22139 0.17201 0.0
H2356 H 0.76268 0.26527 0.21576 0.0
S2357 S 0.87505 0.22801 0.21767 0.0
N2358 N 0.84717 0.20726 0.18903 0.0
N2359 N 0.86016 0.2533 0.23867 0.0
C2360 C 0.83097 0.24511 0.22288 0.0
C2361 C 0.82394 0.22026 0.19633 0.0
C2362 C 0.19605 0.5913 0.36699 0.0
C2363 C 0.17964 0.57815 0.3356 0.0
C2364 C 0.18184 0.60545 0.39071 0.0
C2365 C 0.15148 0.60727 0.3831 0.0
H2366 H 0.22025 0.5928 0.37232 0.0
H2367 H 0.19488 0.6167 0.41435 0.0
S2368 S 0.09719 0.56982 0.3078 0.0
N2369 N 0.12992 0.56212 0.30081 0.0
N2370 N 0.10405 0.59031 0.34517 0.0
C2371 C 0.13413 0.59139 0.35339 0.0
C2372 C 0.14812 0.57628 0.32965 0.0
C2373 C 0.84746 0.83634 0.65674 0.0
C2374 C 0.84254 0.86473 0.6486 0.0
C2375 C 0.84024 0.82557 0.68624 0.0
C2376 C 0.82747 0.84233 0.70982 0.0
H2377 H 0.85716 0.82194 0.64006 0.0
H2378 H 0.84515 0.80375 0.69067 0.0
S2379 S 0.80984 0.91847 0.70175 0.0
N2380 N 0.82381 0.90971 0.66756 0.0
N2381 N 0.81024 0.88946 0.72271 0.0
C2382 C 0.82217 0.87082 0.70218 0.0
C2383 C 0.82958 0.88191 0.67185 0.0
C2384 C 0.79318 0.52961 0.5552 0.0
C2385 C 0.78181 0.50841 0.52606 0.0
C2386 C 0.77353 0.53884 0.57544 0.0
C2387 C 0.74214 0.52755 0.56669 0.0
H2388 H 0.8174 0.53747 0.56372 0.0
H2389 H 0.78289 0.55416 0.59853 0.0
S2390 S 0.70107 0.47631 0.48999 0.0
N2391 N 0.73742 0.47955 0.48717 0.0
N2392 N 0.70008 0.49778 0.52526 0.0
C2393 C 0.73031 0.50871 0.53617 0.0
C2394 C 0.75036 0.49892 0.51572 0.0
C2395 C 0.17557 0.14676 0.50034 0.0
C2396 C 0.19787 0.16256 0.52706 0.0
C2397 C 0.15174 0.12255 0.50467 0.0
C2398 C 0.14946 0.11288 0.53578 0.0
H2399 H 0.1762 0.15355 0.47606 0.0
H2400 H 0.13452 0.11172 0.48358 0.0
S2401 S 0.20186 0.14714 0.61384 0.0
N2402 N 0.21605 0.16697 0.58586 0.0
N2403 N 0.17185 0.12113 0.5937 0.0
C2404 C 0.17231 0.12773 0.56242 0.0
C2405 C 0.19629 0.15271 0.55815 0.0
C2406 C 0.22058 1.02014 0.77339 0.0
C2407 C 0.20394 1.01719 0.79983 0.0
C2408 C 0.2325 0.99599 0.76015 0.0
C2409 C 0.22875 0.96843 0.77345 0.0
H2410 H 0.22357 0.04091 0.76211 0.0
H2411 H 0.24419 0.9986 0.73893 0.0
S2412 S 0.19105 0.95107 0.84582 0.0
N2413 N 0.18662 0.98586 0.8408 0.0
N2414 N 0.21008 0.9405 0.81643 0.0
C2415 C 0.21378 0.96583 0.80114 0.0
C2416 C 0.20099 0.99023 0.81418 0.0
C2417 C 0.45654 0.97809 0.02583 0.0
C2418 C 0.43117 0.98929 0.01491 0.0
C2419 C 0.48512 0.99791 0.03493 0.0
C2420 C 0.48933 0.0296 0.03341 0.0
H2421 H 0.45438 0.95388 0.02745 0.0
H2422 H 0.50416 0.98798 0.04207 0.0
S2423 S 0.42996 0.07073 1.00763 0.0
N2424 N 0.41186 0.03428 1.00349 0.0
N2425 N 0.46567 0.07162 0.02171 0.0
C2426 C 0.46402 0.04132 0.02354 0.0
C2427 C 0.43492 1.02111 0.01388 0.0
C2428 C 0.85279 0.60045 0.82205 0.0
C2429 C 0.88427 0.60659 0.83256 0.0
C2430 C 0.8407 0.61814 0.80087 0.0
C2431 C 0.85994 0.64201 0.78962 0.0
H2432 H 0.83767 0.58084 0.82866 0.0
H2433 H 0.81648 0.61225 0.79198 0.0
S2434 S 0.94288 0.67066 0.81413 0.0
N2435 N 0.93389 0.64076 0.83353 0.0
N2436 N 0.9106 0.67396 0.79341 0.0
C2437 C 0.89091 0.6501 0.80204 0.0
C2438 C 0.90328 0.63238 0.82382 0.0
C2439 C 0.89206 0.69088 0.04081 0.0
C2440 C 0.86284 0.67686 0.04632 0.0
C2441 C 0.91715 0.67903 0.051 0.0
C2442 C 0.91353 0.65287 0.06674 0.0
H2443 H 0.89566 0.7114 0.02916 0.0
H2444 H 0.93958 0.69088 0.04752 0.0
S2445 S 0.8422 0.6071 0.08634 0.0
N2446 N 0.83188 0.63477 0.06808 0.0
N2447 N 0.87925 0.6127 0.08676 0.0
C2448 C 0.88452 0.638 0.07142 0.0
C2449 C 0.85903 0.64998 0.06128 0.0
C2450 C 0.24261 0.17931 0.82612 0.0
C2451 C 0.21268 0.18287 0.82808 0.0
C2452 C 0.26603 0.20399 0.82144 0.0
C2453 C 0.26079 0.23351 0.81886 0.0
H2454 H 0.24799 0.15715 0.82775 0.0
H2455 H 0.28826 0.19972 0.81995 0.0
S2456 S 0.18566 0.25404 0.81831 0.0
N2457 N 0.179 0.21796 0.82461 0.0
N2458 N 0.22212 0.26338 0.81578 0.0
C2459 C 0.23078 0.23693 0.82021 0.0
C2460 C 0.20708 0.212 0.82481 0.0
C2461 C 0.40226 0.92157 0.3517 0.0
C2462 C 0.3984 0.94604 0.335 0.0
C2463 C 0.37976 0.89447 0.34599 0.0
C2464 C 0.35329 0.89112 0.32313 0.0
H2465 H 0.42208 0.92384 0.37014 0.0
H2466 H 0.38272 0.8762 0.35999 0.0
S2467 S 0.33321 0.94787 0.27203 0.0
N2468 N 0.3666 0.96523 0.29412 0.0
N2469 N 0.32446 0.91342 0.28319 0.0
C2470 C 0.34925 0.91509 0.30597 0.0
C2471 C 0.37196 0.94284 0.31188 0.0
C2472 C 0.62159 0.43294 0.58537 0.0
C2473 C 0.59994 0.41164 0.59855 0.0
C2474 C 0.61663 0.46214 0.57667 0.0
C2475 C 0.58929 0.47256 0.57957 0.0
H2476 H 0.64321 0.42742 0.58241 0.0
H2477 H 0.63469 0.47675 0.56724 0.0
S2478 S 0.52582 0.42754 0.61544 0.0
N2479 N 0.55034 0.40529 0.6156 0.0
N2480 N 0.54116 0.45805 0.59949 0.0
C2481 C 0.56774 0.45149 0.59306 0.0
C2482 C 0.57299 0.42213 0.60241 0.0
C2483 C 0.4119 0.77329 0.41556 0.0
C2484 C 0.44048 0.79439 0.42051 0.0
C2485 C 0.38755 0.77486 0.39102 0.0
C2486 C 0.39037 0.79764 0.37004 0.0
H2487 H 0.4083 0.75529 0.43082 0.0
H2488 H 0.36624 0.75799 0.38845 0.0
S2489 S 0.45894 0.86131 0.37595 0.0
N2490 N 0.46889 0.84065 0.40413 0.0
N2491 N 0.42407 0.84342 0.35832 0.0
C2492 C 0.41877 0.8192 0.3752 0.0
C2493 C 0.44343 0.81764 0.40023 0.0
C2494 C 0.11245 0.71257 0.06945 0.0
C2495 C 0.0993 0.72951 0.09304 0.0
C2496 C 0.10573 0.67949 0.06248 0.0
C2497 C 0.08558 0.65988 0.07868 0.0
H2498 H 0.12825 0.7251 0.05556 0.0
H2499 H 0.11609 0.66924 0.04324 0.0
S2500 S 0.04462 0.69115 0.14337 0.0
N2501 N 0.06437 0.72265 0.13271 0.0
N2502 N 0.05248 0.66175 0.12059 0.0
C2503 C 0.07225 0.67648 0.10255 0.0
C2504 C 0.07893 0.71043 0.10947 0.0
C2505 C 0.13529 0.33328 0.94982 0.0
C2506 C 0.11117 0.30865 0.93443 0.0
C2507 C 0.15955 0.34407 0.93326 0.0
C2508 C 0.16067 0.33037 0.90098 0.0
H2509 H 0.13422 0.34602 0.97358 0.0
H2510 H 0.17627 0.36481 0.94468 0.0
S2511 S 0.10634 0.2615 0.85256 0.0
N2512 N 0.09225 0.26797 0.88715 0.0
N2513 N 0.13799 0.28839 0.85614 0.0
C2514 C 0.13848 0.30375 0.88681 0.0
C2515 C 0.11361 0.29287 0.90352 0.0
C2516 C 0.55898 0.7526 0.90332 0.0
C2517 C 0.58243 0.7758 0.92245 0.0
C2518 C 0.54667 0.72613 0.9163 0.0
C2519 C 0.55761 0.72214 0.94861 0.0
H2520 H 0.5475 0.75665 0.88018 0.0
H2521 H 0.52644 0.71032 0.90242 0.0
S2522 S 0.62384 0.77284 1.00478 0.0
N2523 N 0.61999 0.79053 0.97219 0.0
N2524 N 0.59706 0.74065 0.99657 0.0
C2525 C 0.58397 0.74296 0.96577 0.0
C2526 C 0.59637 0.76992 0.95261 0.0
C2527 C 0.16789 0.79145 0.77806 0.0
C2528 C 0.15647 0.79029 0.74386 0.0
C2529 C 0.20007 0.795 0.79046 0.0
C2530 C 0.22331 0.79843 0.76977 0.0
H2531 H 0.15201 0.79004 0.79561 0.0
H2532 H 0.20682 0.79605 0.81679 0.0
S2533 S 0.2074 0.79388 0.6784 0.0
N2534 N 0.1735 0.78938 0.68965 0.0
N2535 N 0.23125 0.79896 0.71307 0.0
C2536 C 0.21212 0.79681 0.73597 0.0
C2537 C 0.17989 0.792 0.72319 0.0
C2538 C 0.07442 0.4568 0.42425 0.0
C2539 C 0.0956 0.43907 0.43233 0.0
C2540 C 0.07013 0.48113 0.44749 0.0
C2541 C 0.08734 0.4897 0.4797 0.0
H2542 H 0.05998 0.45091 0.40037 0.0
H2543 H 0.05207 0.49223 0.44051 0.0
S2544 S 0.14472 0.44954 0.5139 0.0
N2545 N 0.13259 0.43073 0.47594 0.0
N2546 N 0.12589 0.47704 0.51818 0.0
C2547 C 0.10827 0.47178 0.48803 0.0
C2548 C 0.11211 0.44659 0.46479 0.0
C2549 C 0.43649 0.27115 0.23237 0.0
C2550 C 0.46523 0.28118 0.25351 0.0
C2551 C 0.40801 0.27633 0.2417 0.0
C2552 C 0.40545 0.29295 0.27279 0.0
H2553 H 0.4358 0.25873 0.20793 0.0
H2554 H 0.38759 0.26731 0.22379 0.0
S2555 S 0.47351 0.3274 0.33717 0.0
N2556 N 0.48827 0.31059 0.30727 0.0
N2557 N 0.43658 0.32046 0.32419 0.0
C2558 C 0.43419 0.30379 0.29383 0.0
C2559 C 0.46311 0.298 0.28453 0.0
C2560 C 0.607 0.59133 0.41073 0.0
C2561 C 0.63438 0.58262 0.40553 0.0
C2562 C 0.5927 0.58503 0.43887 0.0
C2563 C 0.6048 0.56933 0.46322 0.0
H2564 H 0.59669 0.60355 0.3931 0.0
H2565 H 0.57219 0.59296 0.44177 0.0
S2566 S 0.67432 0.53874 0.46002 0.0
N2567 N 0.67175 0.55566 0.42679 0.0
N2568 N 0.64516 0.54363 0.47844 0.0
C2569 C 0.63168 0.55981 0.45772 0.0
C2570 C 0.6463 0.56645 0.42939 0.0
C2571 C 0.31957 0.89621 0.09542 0.0
C2572 C 0.33004 0.92644 0.0893 0.0
C2573 C 0.33297 0.88628 0.12309 0.0
C2574 C 0.35647 0.90663 0.14525 0.0
H2575 H 0.30408 0.87918 0.07661 0.0
H2576 H 0.32723 0.86202 0.12524 0.0
S2577 S 0.38382 0.99009 0.14651 0.0
N2578 N 0.35919 0.97834 0.11206 0.0
N2579 N 0.38414 0.95935 0.16459 0.0
C2580 C 0.36314 0.93791 0.14263 0.0
C2581 C 0.34955 0.94808 0.11449 0.0
C2582 C 0.96817 0.52363 0.94815 0.0
C2583 C 0.96432 0.54958 0.93407 0.0
C2584 C 0.99417 0.5253 0.97068 0.0
C2585 C 1.01541 0.55331 0.98084 0.0
H2586 H 0.95257 0.50148 0.93952 0.0
H2587 H 0.99825 0.50447 0.97921 0.0
S2588 S 1.01799 0.62579 0.94656 0.0
N2589 N 0.98551 0.60262 0.92811 0.0
N2590 N 0.03336 0.60618 0.9726 0.0
C2591 C 1.01177 0.57932 0.96695 0.0
C2592 C 0.98609 0.57743 0.94322 0.0
C2593 C 0.30349 0.23958 0.65124 0.0
C2594 C 0.29284 0.25786 0.62884 0.0
C2595 C 0.30872 0.24926 0.68618 0.0
C2596 C 0.30388 0.27782 0.70051 0.0
H2597 H 0.30733 0.21739 0.6418 0.0
H2598 H 0.31644 0.23407 0.70207 0.0
S2599 S 0.27953 0.33591 0.65277 0.0
N2600 N 0.27953 0.30688 0.62419 0.0
N2601 N 0.29039 0.32519 0.6883 0.0
C2602 C 0.29435 0.29659 0.67815 0.0
C2603 C 0.2886 0.28663 0.64295 0.0
C2604 C 0.62476 0.56087 0.20325 0.0
C2605 C 0.62836 0.5895 0.22361 0.0
C2606 C 0.61577 0.55722 0.16829 0.0
C2607 C 0.61006 0.582 0.15212 0.0
H2608 H 0.62791 0.54097 0.21443 0.0
H2609 H 0.6124 0.53456 0.15395 0.0
S2610 S 0.62372 0.66285 0.19375 0.0
N2611 N 0.63013 0.64361 0.22432 0.0
N2612 N 0.61409 0.63704 0.15979 0.0
C2613 C 0.61567 0.6109 0.17228 0.0
C2614 C 0.62461 0.61454 0.20754 0.0
C2615 C 0.30218 0.90138 0.91339 0.0
C2616 C 0.32842 0.92485 0.92421 0.0
C2617 C 0.3034 0.8752 0.89249 0.0
C2618 C 0.331 0.87215 0.88245 0.0
H2619 H 0.28094 0.90286 0.92215 0.0
H2620 H 0.28267 0.85775 0.88334 0.0
S2621 S 0.40618 0.92594 0.90683 0.0
N2622 N 0.38268 0.94301 0.92546 0.0
N2623 N 0.38507 0.89306 0.88609 0.0
C2624 C 0.35745 0.89487 0.89411 0.0
C2625 C 0.3561 0.92175 0.91484 0.0
C2626 C 0.98827 0.55255 0.75492 0.0
C2627 C 0.95927 0.54493 0.76411 0.0
C2628 C 0.99374 0.53936 0.72451 0.0
C2629 C 0.97025 0.51843 0.70252 0.0
H2630 H 1.00747 0.56592 0.77273 0.0
H2631 H 1.017 0.54319 0.7197 0.0
S2632 S 0.88889 0.49914 0.71067 0.0
N2633 N 0.90556 0.52132 0.74582 0.0
N2634 N 0.91612 0.49649 0.68822 0.0
C2635 C 0.94046 0.51449 0.70922 0.0
C2636 C 0.93481 0.52808 0.74015 0.0
C2637 C 0.29317 0.2762 0.44481 0.0
C2638 C 0.29596 0.24566 0.44694 0.0
C2639 C 0.2995 0.29077 0.4167 0.0
C2640 C 0.3096 0.27592 0.3892 0.0
H2641 H 0.28574 0.28902 0.46501 0.0
H2642 H 0.29618 0.31389 0.41651 0.0
S2643 S 0.32213 0.19623 0.38239 0.0
N2644 N 0.31014 0.20143 0.41842 0.0
N2645 N 0.32291 0.22862 0.36724 0.0
C2646 C 0.31308 0.2456 0.39146 0.0
C2647 C 0.30609 0.23063 0.41966 0.0
C2648 C 0.39302 0.64308 0.5791 0.0
C2649 C 0.3694 0.62555 0.59273 0.0
C2650 C 0.40827 0.62885 0.55689 0.0
C2651 C 0.40156 0.59681 0.5492 0.0
H2652 H 0.39735 0.66798 0.58225 0.0
H2653 H 0.42421 0.64297 0.54435 0.0
S2654 S 0.35075 0.5408 0.58802 0.0
N2655 N 0.34562 0.57473 0.6034 0.0
N2656 N 0.37639 0.54777 0.56314 0.0
C2657 C 0.3821 0.579 0.56697 0.0
C2658 C 0.36565 0.5935 0.58876 0.0
C2659 C 0.95738 0.97431 0.58773 0.0
C2660 C 0.93718 0.95961 0.55883 0.0
C2661 C 0.98273 0.99817 0.58651 0.0
C2662 C 0.9882 1.00888 0.55656 0.0
H2663 H 0.9542 0.96657 0.6112 0.0
H2664 H 0.99846 1.00799 0.60909 0.0
S2665 S 0.94121 0.97902 0.47429 0.0
N2666 N 0.92405 0.95784 0.49957 0.0
N2667 N 0.97044 1.00375 0.49765 0.0
C2668 C 0.96715 0.99553 0.52789 0.0
C2669 C 0.94203 0.97054 0.52891 0.0
C2670 C 0.95265 0.13652 0.30343 0.0
C2671 C 0.93527 0.10725 0.28844 0.0
C2672 C 0.9386 0.15972 0.31508 0.0
C2673 C 0.9068 0.15445 0.31185 0.0
H2674 H 0.97721 0.14088 0.3084 0.0
H2675 H 0.95267 0.18106 0.32901 0.0
S2676 S 0.85082 0.08354 0.27127 0.0
N2677 N 0.88421 0.07556 0.26813 0.0
N2678 N 0.85825 0.11946 0.29019 0.0
C2679 C 0.88914 0.12648 0.29435 0.0
C2680 C 0.9033 0.10275 0.28256 0.0
C2681 C 0.67893 0.14123 0.05625 0.0
C2682 C 0.70539 0.12963 0.05883 0.0
C2683 C 0.65063 0.12237 0.05707 0.0
C2684 C 0.64739 0.09094 0.05792 0.0
H2685 H 0.68021 0.1655 0.05575 0.0
H2686 H 0.63146 0.13282 0.05888 0.0
S2687 S 0.70931 0.04941 0.06843 0.0
N2688 N 0.7267 0.08498 0.06581 0.0
N2689 N 0.67272 0.04901 0.06415 0.0
C2690 C 0.67343 0.0788 0.06041 0.0
C2691 C 0.70258 0.09824 0.06127 0.0
C2692 C 0.28803 0.52574 0.26912 0.0
C2693 C 0.2573 0.51701 0.25436 0.0
C2694 C 0.29996 0.50784 0.29033 0.0
C2695 C 0.28162 0.48065 0.29657 0.0
H2696 H 0.30193 0.54809 0.26751 0.0
H2697 H 0.32285 0.51635 0.3037 0.0
S2698 S 0.20313 0.44325 0.25673 0.0
N2699 N 0.21113 0.47596 0.24177 0.0
N2700 N 0.23405 0.44237 0.28182 0.0
C2701 C 0.25254 0.46944 0.27845 0.0
C2702 C 0.24032 0.48754 0.25685 0.0
C2703 C 0.28364 0.47734 0.04146 0.0
C2704 C 0.2786 0.45166 0.05813 0.0
C2705 C 0.25946 0.48963 0.02945 0.0
C2706 C 0.22984 0.47699 0.03456 0.0
H2707 H 0.30598 0.48653 0.03552 0.0
H2708 H 0.26363 0.50784 0.01447 0.0
S2709 S 0.20591 0.41398 0.08223 0.0
N2710 N 0.24271 0.41656 0.0826 0.0
N2711 N 0.19726 0.44079 0.0612 0.0
C2712 C 0.225 0.45337 0.05384 0.0
C2713 C 0.24946 0.4403 0.06532 0.0
C2714 C 0.91954 0.93111 0.3213 0.0
C2715 C 0.92165 0.94513 0.2927 0.0
C2716 C 0.89482 0.90694 0.32287 0.0
C2717 C 0.87258 0.89416 0.29507 0.0
H2718 H 0.93709 0.93901 0.34276 0.0
H2719 H 0.89369 0.89746 0.3457 0.0
S2720 S 0.86354 0.9268 0.21713 0.0
N2721 N 0.89556 0.94866 0.23852 0.0
N2722 N 0.85115 0.90066 0.24021 0.0
C2723 C 0.87308 0.90929 0.26722 0.0
C2724 C 0.89727 0.93526 0.26629 0.0
C2725 C 0.77426 0.18844 0.81448 0.0
C2726 C 0.75244 0.17484 0.78665 0.0
C2727 C 0.79281 0.21764 0.81515 0.0
C2728 C 0.78936 0.2335 0.7882 0.0
H2729 H 0.77648 0.17677 0.83584 0.0
H2730 H 0.80923 0.22817 0.83702 0.0
S2731 S 0.73606 0.20698 0.70963 0.0
N2732 N 0.72909 0.17843 0.73134 0.0
N2733 N 0.76353 0.23377 0.73307 0.0
C2734 C 0.76813 0.21977 0.7601 0.0
C2735 C 0.74965 0.19015 0.75922 0.0
loop_
_geom_bond_atom_site_label_1
_geom_bond_atom_site_label_2
_geom_bond_distance
_geom_bond_site_symmetry_2
_ccdc_geom_bond_type
Co0 O1 2.216 . S
Co0 O2 2.091 . S
Co0 O4 2.004 . S
Co0 O10 2.021 . S
Co0 O12 2.137 . S
Co0 O13 2.244 . S
O1 Co0 2.216 . S
O1 C8 1.247 . S
O2 Co0 2.091 . S
O2 C8 1.261 . S
C3 O12 1.247 . S
C3 O13 1.272 . S
O4 Co0 2.004 . S
O4 C9 1.259 1_455 S
Co5 O6 2.061 1_455 S
Co5 O11 2.052 . S
Co5 O13 2.135 . S
O6 Co5 2.061 1_655 S
O6 C9 1.235 . S
C7 O10 1.238 . S
C7 O11 1.241 . S
C8 O1 1.247 . S
C8 O2 1.261 . S
C9 O4 1.259 1_655 S
C9 O6 1.235 . S
O10 Co0 2.021 . S
O10 C7 1.238 . S
O11 Co5 2.052 . S
O11 C7 1.241 . S
O12 Co0 2.137 . S
O12 C3 1.247 . S
O13 Co0 2.244 . S
O13 C3 1.272 . S
O13 Co5 2.135 . S
Co14 O15 2.216 1_455 S
Co14 O16 2.091 1_455 S
Co14 O18 2.004 . S
Co14 O24 2.021 . S
Co14 O26 2.137 . S
Co14 O27 2.244 . S
O15 Co14 2.216 1_655 S
O15 C22 1.247 . S
O16 Co14 2.091 1_655 S
O16 C22 1.261 . S
C17 O26 1.247 . S
C17 O27 1.272 . S
O18 Co14 2.004 . S
O18 C23 1.259 . S
Co19 O20 2.061 . S
Co19 O25 2.052 . S
Co19 O27 2.135 . S
O20 Co19 2.061 . S
O20 C23 1.235 . S
C21 O24 1.238 . S
C21 O25 1.241 . S
C22 O15 1.247 . S
C22 O16 1.261 . S
C23 O18 1.259 . S
C23 O20 1.235 . S
O24 Co14 2.021 . S
O24 C21 1.238 . S
O25 Co19 2.052 . S
O25 C21 1.241 . S
O26 Co14 2.137 . S
O26 C17 1.247 . S
O27 Co14 2.244 . S
O27 C17 1.272 . S
O27 Co19 2.135 . S
Co28 O29 2.216 . S
Co28 O30 2.091 . S
Co28 O32 2.004 . S
Co28 O38 2.021 . S
Co28 O40 2.137 . S
Co28 O41 2.244 . S
O29 Co28 2.216 . S
O29 C36 1.247 . S
O30 Co28 2.091 . S
O30 C36 1.261 . S
C31 O40 1.247 . S
C31 O41 1.272 . S
O32 Co28 2.004 . S
O32 C37 1.259 . S
Co33 O34 2.061 . S
Co33 O39 2.052 . S
Co33 O41 2.135 . S
O34 Co33 2.061 . S
O34 C37 1.235 . S
C35 O38 1.238 . S
C35 O39 1.241 . S
C36 O29 1.247 . S
C36 O30 1.261 . S
C37 O32 1.259 . S
C37 O34 1.235 . S
O38 Co28 2.021 . S
O38 C35 1.238 . S
O39 Co33 2.052 . S
O39 C35 1.241 . S
O40 Co28 2.137 . S
O40 C31 1.247 . S
O41 Co28 2.244 . S
O41 C31 1.272 . S
O41 Co33 2.135 . S
Co42 O43 2.216 . S
Co42 O44 2.091 . S
Co42 O46 2.004 . S
Co42 O52 2.021 . S
Co42 O54 2.137 . S
Co42 O55 2.244 . S
O43 Co42 2.216 . S
O43 C50 1.247 . S
O44 Co42 2.091 . S
O44 C50 1.261 . S
C45 O54 1.247 . S
C45 O55 1.272 . S
O46 Co42 2.004 . S
O46 C51 1.259 . S
Co47 O48 2.061 . S
Co47 O53 2.052 . S
Co47 O55 2.135 . S
O48 Co47 2.061 . S
O48 C51 1.235 . S
C49 O52 1.238 . S
C49 O53 1.241 . S
C50 O43 1.247 . S
C50 O44 1.261 . S
C51 O46 1.259 . S
C51 O48 1.235 . S
O52 Co42 2.021 . S
O52 C49 1.238 . S
O53 Co47 2.052 . S
O53 C49 1.241 . S
O54 Co42 2.137 . S
O54 C45 1.247 . S
O55 Co42 2.244 . S
O55 C45 1.272 . S
O55 Co47 2.135 . S
Co56 O57 2.216 . S
Co56 O58 2.091 . S
Co56 O60 2.004 . S
Co56 O66 2.021 . S
Co56 O68 2.137 . S
Co56 O69 2.244 . S
O57 Co56 2.216 . S
O57 C64 1.247 . S
O58 Co56 2.091 . S
O58 C64 1.261 . S
C59 O68 1.247 . S
C59 O69 1.272 . S
O60 Co56 2.004 . S
O60 C65 1.259 . S
Co61 O62 2.061 . S
Co61 O67 2.052 . S
Co61 O69 2.135 . S
O62 Co61 2.061 . S
O62 C65 1.235 . S
C63 O66 1.238 . S
C63 O67 1.241 . S
C64 O57 1.247 . S
C64 O58 1.261 . S
C65 O60 1.259 . S
C65 O62 1.235 . S
O66 Co56 2.021 . S
O66 C63 1.238 . S
O67 Co61 2.052 . S
O67 C63 1.241 . S
O68 Co56 2.137 . S
O68 C59 1.247 . S
O69 Co56 2.244 . S
O69 C59 1.272 . S
O69 Co61 2.135 . S
Co70 O71 2.216 . S
Co70 O72 2.091 . S
Co70 O74 2.004 . S
Co70 O80 2.021 . S
Co70 O82 2.137 . S
Co70 O83 2.244 . S
O71 Co70 2.216 . S
O71 C78 1.247 . S
O72 Co70 2.091 . S
O72 C78 1.261 . S
C73 O82 1.247 . S
C73 O83 1.272 . S
O74 Co70 2.004 . S
O74 C79 1.259 . S
Co75 O76 2.061 . S
Co75 O81 2.052 . S
Co75 O83 2.135 . S
O76 Co75 2.061 . S
O76 C79 1.235 . S
C77 O80 1.238 . S
C77 O81 1.241 . S
C78 O71 1.247 . S
C78 O72 1.261 . S
C79 O74 1.259 . S
C79 O76 1.235 . S
O80 Co70 2.021 . S
O80 C77 1.238 . S
O81 Co75 2.052 . S
O81 C77 1.241 . S
O82 Co70 2.137 . S
O82 C73 1.247 . S
O83 Co70 2.244 . S
O83 C73 1.272 . S
O83 Co75 2.135 . S
Co84 O85 2.216 . S
Co84 O86 2.091 . S
Co84 O88 2.004 . S
Co84 O94 2.021 . S
Co84 O96 2.137 . S
Co84 O97 2.244 . S
O85 Co84 2.216 . S
O85 C92 1.247 . S
O86 Co84 2.091 . S
O86 C92 1.261 . S
C87 O96 1.247 . S
C87 O97 1.272 . S
O88 Co84 2.004 . S
O88 C93 1.259 . S
Co89 O90 2.061 . S
Co89 O95 2.052 . S
Co89 O97 2.135 . S
O90 Co89 2.061 . S
O90 C93 1.235 . S
C91 O94 1.238 . S
C91 O95 1.241 . S
C92 O85 1.247 . S
C92 O86 1.261 . S
C93 O88 1.259 . S
C93 O90 1.235 . S
O94 Co84 2.021 . S
O94 C91 1.238 . S
O95 Co89 2.052 . S
O95 C91 1.241 . S
O96 Co84 2.137 . S
O96 C87 1.247 . S
O97 Co84 2.244 . S
O97 C87 1.272 . S
O97 Co89 2.135 . S
Co98 O99 2.216 . S
Co98 O100 2.091 . S
Co98 O102 2.004 1_455 S
Co98 O108 2.021 . S
Co98 O110 2.137 . S
Co98 O111 2.244 1_556 S
O99 Co98 2.216 . S
O99 C106 1.247 . S
O100 Co98 2.091 . S
O100 C106 1.261 . S
C101 O110 1.247 . S
C101 O111 1.272 1_556 S
O102 Co98 2.004 1_655 S
O102 C107 1.259 . S
Co103 O104 2.061 1_554 S
Co103 O109 2.052 . S
Co103 O111 2.135 1_655 S
O104 Co103 2.061 1_556 S
O104 C107 1.235 . S
C105 O108 1.238 1_655 S
C105 O109 1.241 1_556 S
C106 O99 1.247 . S
C106 O100 1.261 . S
C107 O102 1.259 . S
C107 O104 1.235 . S
O108 Co98 2.021 . S
O108 C105 1.238 1_455 S
O109 Co103 2.052 . S
O109 C105 1.241 1_554 S
O110 Co98 2.137 . S
O110 C101 1.247 . S
O111 Co98 2.244 1_554 S
O111 C101 1.272 1_554 S
O111 Co103 2.135 1_455 S
Co112 O113 2.216 . S
Co112 O114 2.091 . S
Co112 O116 2.004 1_545 S
Co112 O122 2.021 . S
Co112 O124 2.137 . S
Co112 O125 2.244 . S
O113 Co112 2.216 . S
O113 C120 1.247 . S
O114 Co112 2.091 . S
O114 C120 1.261 . S
C115 O124 1.247 . S
C115 O125 1.272 . S
O116 Co112 2.004 1_565 S
O116 C121 1.259 . S
Co117 O118 2.061 . S
Co117 O123 2.052 . S
Co117 O125 2.135 1_565 S
O118 Co117 2.061 . S
O118 C121 1.235 . S
C119 O122 1.236 . S
C119 O123 1.244 1_545 S
C120 O113 1.247 . S
C120 O114 1.261 . S
C121 O116 1.259 . S
C121 O118 1.235 . S
O122 Co112 2.021 . S
O122 C119 1.236 . S
O123 Co117 2.052 . S
O123 C119 1.244 1_565 S
O124 Co112 2.137 . S
O124 C115 1.247 . S
O125 Co112 2.244 . S
O125 C115 1.272 . S
O125 Co117 2.135 1_545 S
Co126 O127 2.216 . S
Co126 O128 2.091 . S
Co126 O130 2.004 . S
Co126 O136 2.021 . S
Co126 O138 2.137 . S
Co126 O139 2.244 . S
O127 Co126 2.216 . S
O127 C134 1.247 . S
O128 Co126 2.091 . S
O128 C134 1.261 . S
C129 O138 1.247 . S
C129 O139 1.272 . S
O130 Co126 2.004 . S
O130 C135 1.259 . S
Co131 O132 2.061 . S
Co131 O137 2.052 . S
Co131 O139 2.135 . S
O132 Co131 2.061 . S
O132 C135 1.235 . S
C133 O136 1.238 . S
C133 O137 1.241 . S
C134 O127 1.247 . S
C134 O128 1.261 . S
C135 O130 1.259 . S
C135 O132 1.235 . S
O136 Co126 2.021 . S
O136 C133 1.238 . S
O137 Co131 2.052 . S
O137 C133 1.241 . S
O138 Co126 2.137 . S
O138 C129 1.247 . S
O139 Co126 2.244 . S
O139 C129 1.272 . S
O139 Co131 2.135 . S
Co140 O141 2.216 . S
Co140 O142 2.091 . S
Co140 O144 2.004 . S
Co140 O150 2.021 . S
Co140 O152 2.137 . S
Co140 O153 2.244 . S
O141 Co140 2.216 . S
O141 C148 1.247 . S
O142 Co140 2.091 . S
O142 C148 1.261 . S
C143 O152 1.247 . S
C143 O153 1.272 . S
O144 Co140 2.004 . S
O144 C149 1.259 . S
Co145 O146 2.061 . S
Co145 O151 2.052 . S
Co145 O153 2.135 . S
O146 Co145 2.061 . S
O146 C149 1.235 . S
C147 O150 1.238 . S
C147 O151 1.241 . S
C148 O141 1.247 . S
C148 O142 1.261 . S
C149 O144 1.259 . S
C149 O146 1.235 . S
O150 Co140 2.021 . S
O150 C147 1.238 . S
O151 Co145 2.052 . S
O151 C147 1.241 . S
O152 Co140 2.137 . S
O152 C143 1.247 . S
O153 Co140 2.244 . S
O153 C143 1.272 . S
O153 Co145 2.135 . S
Co154 O155 2.216 . S
Co154 O156 2.091 1_556 S
Co154 O158 2.005 1_556 S
Co154 O164 2.021 1_556 S
Co154 O166 2.137 . S
Co154 O167 2.244 . S
O155 Co154 2.216 . S
O155 C162 1.247 . S
O156 Co154 2.091 1_554 S
O156 C162 1.261 1_554 S
C157 O166 1.247 . S
C157 O167 1.272 . S
O158 Co154 2.005 1_554 S
O158 C163 1.259 . S
Co159 O160 2.061 1_556 S
Co159 O165 2.052 1_556 S
Co159 O167 2.135 . S
O160 Co159 2.061 1_554 S
O160 C163 1.235 . S
C161 O164 1.238 . S
C161 O165 1.241 . S
C162 O155 1.247 . S
C162 O156 1.261 1_556 S
C163 O158 1.259 . S
C163 O160 1.235 . S
O164 Co154 2.021 1_554 S
O164 C161 1.238 . S
O165 Co159 2.052 1_554 S
O165 C161 1.241 . S
O166 Co154 2.137 . S
O166 C157 1.247 . S
O167 Co154 2.244 . S
O167 C157 1.272 . S
O167 Co159 2.135 . S
Co168 O169 2.216 . S
Co168 O170 2.091 . S
Co168 O172 2.004 . S
Co168 O178 2.021 . S
Co168 O180 2.137 . S
Co168 O181 2.244 . S
O169 Co168 2.216 . S
O169 C176 1.247 . S
O170 Co168 2.091 . S
O170 C176 1.261 . S
C171 O180 1.247 . S
C171 O181 1.272 . S
O172 Co168 2.004 . S
O172 C177 1.259 . S
Co173 O174 2.061 . S
Co173 O179 2.052 . S
Co173 O181 2.135 . S
O174 Co173 2.061 . S
O174 C177 1.235 . S
C175 O178 1.238 . S
C175 O179 1.241 . S
C176 O169 1.247 . S
C176 O170 1.261 . S
C177 O172 1.259 . S
C177 O174 1.235 . S
O178 Co168 2.021 . S
O178 C175 1.238 . S
O179 Co173 2.052 . S
O179 C175 1.241 . S
O180 Co168 2.137 . S
O180 C171 1.247 . S
O181 Co168 2.244 . S
O181 C171 1.272 . S
O181 Co173 2.135 . S
Co182 O183 2.216 . S
Co182 O184 2.091 . S
Co182 O186 2.004 . S
Co182 O192 2.021 . S
Co182 O194 2.137 . S
Co182 O195 2.244 . S
O183 Co182 2.216 . S
O183 C190 1.247 . S
O184 Co182 2.091 . S
O184 C190 1.261 . S
C185 O194 1.247 . S
C185 O195 1.272 . S
O186 Co182 2.004 . S
O186 C191 1.259 . S
Co187 O188 2.061 . S
Co187 O193 2.052 . S
Co187 O195 2.135 . S
O188 Co187 2.061 . S
O188 C191 1.235 . S
C189 O192 1.238 . S
C189 O193 1.241 . S
C190 O183 1.247 . S
C190 O184 1.261 . S
C191 O186 1.259 . S
C191 O188 1.235 . S
O192 Co182 2.021 . S
O192 C189 1.238 . S
O193 Co187 2.052 . S
O193 C189 1.241 . S
O194 Co182 2.137 . S
O194 C185 1.247 . S
O195 Co182 2.244 . S
O195 C185 1.272 . S
O195 Co187 2.135 . S
Co196 O197 2.216 . S
Co196 O198 2.091 . S
Co196 O200 2.004 . S
Co196 O206 2.021 . S
Co196 O208 2.137 . S
Co196 O209 2.244 . S
O197 Co196 2.216 . S
O197 C204 1.247 . S
O198 Co196 2.091 . S
O198 C204 1.261 . S
C199 O208 1.247 . S
C199 O209 1.272 . S
O200 Co196 2.004 . S
O200 C205 1.259 . S
Co201 O202 2.061 . S
Co201 O207 2.052 . S
Co201 O209 2.135 . S
O202 Co201 2.061 . S
O202 C205 1.235 . S
C203 O206 1.238 . S
C203 O207 1.241 . S
C204 O197 1.247 . S
C204 O198 1.261 . S
C205 O200 1.259 . S
C205 O202 1.235 . S
O206 Co196 2.021 . S
O206 C203 1.238 . S
O207 Co201 2.052 . S
O207 C203 1.241 . S
O208 Co196 2.137 . S
O208 C199 1.247 . S
O209 Co196 2.244 . S
O209 C199 1.272 . S
O209 Co201 2.135 . S
Co210 O211 2.216 . S
Co210 O212 2.091 . S
Co210 O214 2.004 . S
Co210 O220 2.021 . S
Co210 O222 2.137 . S
Co210 O223 2.244 . S
O211 Co210 2.216 . S
O211 C218 1.247 . S
O212 Co210 2.091 . S
O212 C218 1.261 . S
C213 O222 1.247 . S
C213 O223 1.272 . S
O214 Co210 2.004 . S
O214 C219 1.259 . S
Co215 O216 2.061 . S
Co215 O221 2.052 . S
Co215 O223 2.135 . S
O216 Co215 2.061 . S
O216 C219 1.235 . S
C217 O220 1.238 . S
C217 O221 1.241 . S
C218 O211 1.247 . S
C218 O212 1.261 . S
C219 O214 1.259 . S
C219 O216 1.235 . S
O220 Co210 2.021 . S
O220 C217 1.238 . S
O221 Co215 2.052 . S
O221 C217 1.241 . S
O222 Co210 2.137 . S
O222 C213 1.247 . S
O223 Co210 2.244 . S
O223 C213 1.272 . S
O223 Co215 2.135 . S
Co224 O225 2.216 . S
Co224 O226 2.091 . S
Co224 O228 2.004 1_545 S
Co224 O234 2.021 . S
Co224 O236 2.137 . S
Co224 O237 2.244 . S
O225 Co224 2.216 . S
O225 C232 1.247 . S
O226 Co224 2.091 . S
O226 C232 1.261 . S
C227 O236 1.247 . S
C227 O237 1.272 . S
O228 Co224 2.004 1_565 S
O228 C233 1.259 . S
Co229 O230 2.061 . S
Co229 O235 2.049 . S
Co229 O237 2.135 1_565 S
O230 Co229 2.061 . S
O230 C233 1.235 . S
C231 O234 1.238 . S
C231 O235 1.244 1_545 S
C232 O225 1.247 . S
C232 O226 1.261 . S
C233 O228 1.259 . S
C233 O230 1.235 . S
O234 Co224 2.021 . S
O234 C231 1.238 . S
O235 Co229 2.049 . S
O235 C231 1.244 1_565 S
O236 Co224 2.137 . S
O236 C227 1.247 . S
O237 Co224 2.244 . S
O237 C227 1.272 . S
O237 Co229 2.135 1_545 S
Co238 O239 2.216 . S
Co238 O240 2.091 . S
Co238 O242 2.004 . S
Co238 O248 2.021 . S
Co238 O250 2.137 . S
Co238 O251 2.244 . S
O239 Co238 2.216 . S
O239 C246 1.247 . S
O240 Co238 2.091 . S
O240 C246 1.261 . S
C241 O250 1.247 . S
C241 O251 1.272 . S
O242 Co238 2.004 . S
O242 C247 1.259 . S
Co243 O244 2.061 . S
Co243 O249 2.052 . S
Co243 O251 2.135 . S
O244 Co243 2.061 . S
O244 C247 1.235 . S
C245 O248 1.238 . S
C245 O249 1.241 . S
C246 O239 1.247 . S
C246 O240 1.261 . S
C247 O242 1.259 . S
C247 O244 1.235 . S
O248 Co238 2.021 . S
O248 C245 1.238 . S
O249 Co243 2.052 . S
O249 C245 1.241 . S
O250 Co238 2.137 . S
O250 C241 1.247 . S
O251 Co238 2.244 . S
O251 C241 1.272 . S
O251 Co243 2.135 . S
Co252 O253 2.216 . S
Co252 O254 2.091 . S
Co252 O256 2.004 . S
Co252 O262 2.021 . S
Co252 O264 2.137 . S
Co252 O265 2.244 . S
O253 Co252 2.216 . S
O253 C260 1.247 . S
O254 Co252 2.091 . S
O254 C260 1.261 . S
C255 O264 1.247 . S
C255 O265 1.272 . S
O256 Co252 2.004 . S
O256 C261 1.259 . S
Co257 O258 2.061 . S
Co257 O263 2.052 . S
Co257 O265 2.135 . S
O258 Co257 2.061 . S
O258 C261 1.235 . S
C259 O262 1.238 . S
C259 O263 1.241 . S
C260 O253 1.247 . S
C260 O254 1.261 . S
C261 O256 1.259 . S
C261 O258 1.235 . S
O262 Co252 2.021 . S
O262 C259 1.238 . S
O263 Co257 2.052 . S
O263 C259 1.241 . S
O264 Co252 2.137 . S
O264 C255 1.247 . S
O265 Co252 2.244 . S
O265 C255 1.272 . S
O265 Co257 2.135 . S
Co266 O267 2.216 . S
Co266 O268 2.091 . S
Co266 O270 2.004 . S
Co266 O276 2.021 . S
Co266 O278 2.137 . S
Co266 O279 2.244 . S
O267 Co266 2.216 . S
O267 C274 1.247 . S
O268 Co266 2.091 . S
O268 C274 1.261 . S
C269 O278 1.247 . S
C269 O279 1.272 . S
O270 Co266 2.004 . S
O270 C275 1.259 . S
Co271 O272 2.061 . S
Co271 O277 2.052 . S
Co271 O279 2.135 . S
O272 Co271 2.061 . S
O272 C275 1.235 . S
C273 O276 1.238 . S
C273 O277 1.241 . S
C274 O267 1.247 . S
C274 O268 1.261 . S
C275 O270 1.259 . S
C275 O272 1.235 . S
O276 Co266 2.021 . S
O276 C273 1.238 . S
O277 Co271 2.052 . S
O277 C273 1.241 . S
O278 Co266 2.137 . S
O278 C269 1.247 . S
O279 Co266 2.244 . S
O279 C269 1.272 . S
O279 Co271 2.135 . S
Co280 O281 2.216 . S
Co280 O282 2.091 . S
Co280 O284 2.004 . S
Co280 O290 2.021 . S
Co280 O292 2.137 1_554 S
Co280 O293 2.248 . S
O281 Co280 2.216 . S
O281 C288 1.247 . S
O282 Co280 2.091 . S
O282 C288 1.261 . S
C283 O292 1.247 . S
C283 O293 1.264 1_556 S
O284 Co280 2.004 . S
O284 C289 1.259 . S
Co285 O286 2.061 . S
Co285 O291 2.052 . S
Co285 O293 2.139 . S
O286 Co285 2.061 . S
O286 C289 1.235 . S
C287 O290 1.238 . S
C287 O291 1.241 . S
C288 O281 1.247 . S
C288 O282 1.261 . S
C289 O284 1.259 . S
C289 O286 1.235 . S
O290 Co280 2.021 . S
O290 C287 1.238 . S
O291 Co285 2.052 . S
O291 C287 1.241 . S
O292 Co280 2.137 1_556 S
O292 C283 1.247 . S
O293 Co280 2.248 . S
O293 C283 1.264 1_554 S
O293 Co285 2.139 . S
Co294 O295 2.216 . S
Co294 O296 2.091 . S
Co294 O298 2.004 . S
Co294 O304 2.021 . S
Co294 O306 2.137 . S
Co294 O307 2.244 . S
O295 Co294 2.216 . S
O295 C302 1.247 . S
O296 Co294 2.091 . S
O296 C302 1.261 . S
C297 O306 1.247 . S
C297 O307 1.272 . S
O298 Co294 2.004 . S
O298 C303 1.259 . S
Co299 O300 2.061 . S
Co299 O305 2.052 . S
Co299 O307 2.135 . S
O300 Co299 2.061 . S
O300 C303 1.235 . S
C301 O304 1.238 . S
C301 O305 1.241 . S
C302 O295 1.247 . S
C302 O296 1.261 . S
C303 O298 1.259 . S
C303 O300 1.235 . S
O304 Co294 2.021 . S
O304 C301 1.238 . S
O305 Co299 2.052 . S
O305 C301 1.241 . S
O306 Co294 2.137 . S
O306 C297 1.247 . S
O307 Co294 2.244 . S
O307 C297 1.272 . S
O307 Co299 2.135 . S
Co308 O309 2.216 . S
Co308 O310 2.091 . S
Co308 O312 2.004 . S
Co308 O318 2.021 . S
Co308 O320 2.137 . S
Co308 O321 2.244 . S
O309 Co308 2.216 . S
O309 C316 1.247 . S
O310 Co308 2.091 . S
O310 C316 1.261 . S
C311 O320 1.247 . S
C311 O321 1.272 . S
O312 Co308 2.004 . S
O312 C317 1.259 . S
Co313 O314 2.061 . S
Co313 O319 2.052 . S
Co313 O321 2.135 . S
O314 Co313 2.061 . S
O314 C317 1.235 . S
C315 O318 1.238 . S
C315 O319 1.241 . S
C316 O309 1.247 . S
C316 O310 1.261 . S
C317 O312 1.259 . S
C317 O314 1.235 . S
O318 Co308 2.021 . S
O318 C315 1.238 . S
O319 Co313 2.052 . S
O319 C315 1.241 . S
O320 Co308 2.137 . S
O320 C311 1.247 . S
O321 Co308 2.244 . S
O321 C311 1.272 . S
O321 Co313 2.135 . S
Co322 O323 2.216 . S
Co322 O324 2.091 . S
Co322 O326 2.004 . S
Co322 O332 2.021 . S
Co322 O334 2.137 . S
Co322 O335 2.244 . S
O323 Co322 2.216 . S
O323 C330 1.247 . S
O324 Co322 2.091 . S
O324 C330 1.261 . S
C325 O334 1.247 . S
C325 O335 1.272 . S
O326 Co322 2.004 . S
O326 C331 1.259 . S
Co327 O328 2.061 . S
Co327 O333 2.052 . S
Co327 O335 2.135 . S
O328 Co327 2.061 . S
O328 C331 1.235 . S
C329 O332 1.238 . S
C329 O333 1.241 . S
C330 O323 1.247 . S
C330 O324 1.261 . S
C331 O326 1.259 . S
C331 O328 1.235 . S
O332 Co322 2.021 . S
O332 C329 1.238 . S
O333 Co327 2.052 . S
O333 C329 1.241 . S
O334 Co322 2.137 . S
O334 C325 1.247 . S
O335 Co322 2.244 . S
O335 C325 1.272 . S
O335 Co327 2.135 . S
Eu336 N365 2.600 . S
Eu336 N371 2.562 . S
Eu336 O380 2.462 . S
Eu336 O381 2.373 . S
Eu336 O383 2.432 . S
Eu336 O384 2.291 . S
Eu336 O388 2.335 . S
Eu336 O391 2.372 . S
Eu336 C400 2.787 . S
C337 N338 1.365 . S
C337 C340 1.405 . S
C337 C344 1.448 1_556 S
N338 C337 1.365 . S
N338 C341 1.319 . S
N338 Eu347 2.600 1_566 S
C339 C341 1.397 . S
C339 C342 1.367 . S
C339 H359 0.931 . S
C340 C337 1.405 . S
C340 C342 1.403 . S
C340 C346 1.439 . S
C341 N338 1.319 . S
C341 C339 1.397 . S
C341 H352 0.930 1_565 S
C342 C339 1.367 . S
C342 C340 1.403 . S
C342 H363 0.929 . S
C343 C344 1.430 . S
C343 C345 1.387 1_554 S
C343 C349 1.404 . S
C344 C337 1.448 1_554 S
C344 C343 1.430 . S
C344 N348 1.351 . S
C345 C343 1.387 1_556 S
C345 C346 1.374 . S
C345 H360 0.931 . S
C346 C340 1.439 . S
C346 C345 1.374 . S
C346 H361 0.931 . S
Eu347 N338 2.600 1_544 S
Eu347 N348 2.562 1_545 S
Eu347 O382 2.335 1_655 S
Eu347 O385 2.372 1_654 S
Eu347 O386 2.462 . S
Eu347 O387 2.373 1_645 S
Eu347 O389 2.432 1_554 S
Eu347 O390 2.291 1_655 S
Eu347 C411 2.787 . S
N348 C344 1.351 . S
N348 Eu347 2.562 1_565 S
N348 C350 1.325 . S
C349 C343 1.404 . S
C349 C351 1.366 . S
C349 H357 0.930 . S
C350 N348 1.325 . S
C350 C351 1.416 . S
C350 H356 0.929 . S
C351 C349 1.366 . S
C351 C350 1.416 . S
C351 H353 0.930 . S
H352 C341 0.930 1_545 S
H353 C351 0.930 . S
H354 C369 0.930 . S
H355 C376 0.930 1_556 S
H356 C350 0.929 . S
H357 C349 0.930 . S
H358 C372 0.929 . S
H359 C339 0.931 . S
H360 C345 0.931 . S
H361 C346 0.931 . S
H362 C367 0.931 . S
H363 C342 0.929 . S
H364 C375 0.930 . S
N365 Eu336 2.600 . S
N365 C366 1.365 . S
N365 C369 1.319 . S
C366 N365 1.365 . S
C366 C368 1.405 . S
C366 C374 1.448 . S
C367 H362 0.931 . S
C367 C369 1.397 . S
C367 C370 1.367 . S
C368 C366 1.405 . S
C368 C370 1.403 . S
C368 C401 1.439 . S
C369 H354 0.930 . S
C369 N365 1.319 . S
C369 C367 1.397 . S
C370 C367 1.367 . S
C370 C368 1.403 . S
C370 H377 0.929 . S
N371 Eu336 2.562 . S
N371 C372 1.325 . S
N371 C374 1.351 . S
C372 H358 0.929 . S
C372 N371 1.325 . S
C372 C376 1.416 . S
C373 C374 1.430 . S
C373 C375 1.404 . S
C373 C402 1.387 . S
C374 C366 1.448 . S
C374 N371 1.351 . S
C374 C373 1.430 . S
C375 H364 0.930 . S
C375 C373 1.404 . S
C375 C376 1.366 . S
C376 H355 0.930 1_554 S
C376 C372 1.416 . S
C376 C375 1.366 . S
H377 C370 0.929 . S
H378 C401 0.931 . S
H379 C402 0.931 . S
O380 Eu336 2.462 . S
O380 C400 1.252 . S
O381 Eu336 2.373 . S
O381 C392 1.249 . S
O382 Eu347 2.335 1_455 S
O382 C392 1.264 . S
O383 Eu336 2.432 . S
O383 C400 1.268 . S
O384 Eu336 2.291 . S
O384 C399 1.255 1_554 S
O385 Eu347 2.372 1_456 S
O385 C399 1.257 . S
O386 Eu347 2.462 . S
O386 C411 1.252 . S
O387 Eu347 2.373 1_465 S
O387 C403 1.249 . S
O388 Eu336 2.335 . S
O388 C403 1.264 1_545 S
O389 Eu347 2.432 1_556 S
O389 C411 1.268 1_556 S
O390 Eu347 2.291 1_455 S
O390 C410 1.255 . S
O391 Eu336 2.372 . S
O391 C410 1.257 . S
C392 O381 1.249 . S
C392 O382 1.264 . S
C393 C396 1.382 . S
C393 C398 1.390 . S
C393 C400 1.506 . S
C394 C395 1.398 . S
C394 C398 1.392 . S
C395 C394 1.398 . S
C395 C397 1.372 . S
C395 H412 0.931 . S
C396 C393 1.382 . S
C396 C397 1.390 . S
C396 H413 0.931 . S
C397 C395 1.372 . S
C397 C396 1.390 . S
C397 H414 0.929 . S
C398 C393 1.390 . S
C398 C394 1.392 . S
C398 H415 0.930 . S
C399 O384 1.255 1_556 S
C399 O385 1.257 . S
C400 Eu336 2.787 . S
C400 O380 1.252 . S
C400 O383 1.268 . S
C400 C393 1.506 . S
C401 C368 1.439 . S
C401 H378 0.931 . S
C401 C402 1.374 . S
C402 C373 1.387 . S
C402 H379 0.931 . S
C402 C401 1.374 . S
C403 O387 1.249 . S
C403 O388 1.264 1_565 S
C404 C407 1.382 1_554 S
C404 C408 1.390 . S
C404 C411 1.506 . S
C405 C406 1.398 1_554 S
C405 C408 1.392 . S
C406 C405 1.398 1_556 S
C406 C409 1.372 . S
C406 H416 0.931 . S
C407 C404 1.382 1_556 S
C407 C409 1.390 . S
C407 H417 0.931 . S
C408 C404 1.390 . S
C408 C405 1.392 . S
C408 H418 0.930 . S
C409 C406 1.372 . S
C409 C407 1.390 . S
C409 H419 0.929 . S
C410 O390 1.255 . S
C410 O391 1.257 . S
C411 Eu347 2.787 . S
C411 O386 1.252 . S
C411 O389 1.268 1_554 S
C411 C404 1.506 . S
H412 C395 0.931 . S
H413 C396 0.931 . S
H414 C397 0.929 . S
H415 C398 0.930 . S
H416 C406 0.931 . S
H417 C407 0.931 . S
H418 C408 0.930 . S
H419 C409 0.929 . S
Eu420 N449 2.600 . S
Eu420 N455 2.562 . S
Eu420 O464 2.462 . S
Eu420 O465 2.373 . S
Eu420 O467 2.432 . S
Eu420 O468 2.291 . S
Eu420 O472 2.335 . S
Eu420 O475 2.372 . S
Eu420 C484 2.787 . S
C421 N422 1.365 . S
C421 C424 1.405 . S
C421 C428 1.448 . S
N422 C421 1.365 . S
N422 C425 1.319 . S
N422 Eu431 2.600 . S
C423 C425 1.397 . S
C423 C426 1.367 . S
C423 H443 0.931 . S
C424 C421 1.405 . S
C424 C426 1.403 . S
C424 C430 1.439 . S
C425 N422 1.319 . S
C425 C423 1.397 . S
C425 H436 0.930 . S
C426 C423 1.367 . S
C426 C424 1.403 . S
C426 H447 0.929 . S
C427 C428 1.430 . S
C427 C429 1.387 . S
C427 C433 1.404 . S
C428 C421 1.448 . S
C428 C427 1.430 . S
C428 N432 1.351 . S
C429 C427 1.387 . S
C429 C430 1.374 . S
C429 H444 0.931 . S
C430 C424 1.439 . S
C430 C429 1.374 . S
C430 H445 0.931 . S
Eu431 N422 2.600 . S
Eu431 N432 2.562 . S
Eu431 O466 2.335 . S
Eu431 O469 2.372 . S
Eu431 O470 2.462 . S
Eu431 O471 2.373 . S
Eu431 O473 2.432 . S
Eu431 O474 2.291 . S
Eu431 C495 2.787 . S
N432 C428 1.351 . S
N432 Eu431 2.562 . S
N432 C434 1.325 . S
C433 C427 1.404 . S
C433 C435 1.366 . S
C433 H441 0.930 . S
C434 N432 1.325 . S
C434 C435 1.416 . S
C434 H440 0.929 . S
C435 C433 1.366 . S
C435 C434 1.416 . S
C435 H437 0.930 . S
H436 C425 0.930 . S
H437 C435 0.930 . S
H438 C453 0.930 . S
H439 C460 0.930 . S
H440 C434 0.929 . S
H441 C433 0.930 . S
H442 C456 0.929 . S
H443 C423 0.931 . S
H444 C429 0.931 . S
H445 C430 0.931 . S
H446 C451 0.931 . S
H447 C426 0.929 . S
H448 C459 0.930 . S
N449 Eu420 2.600 . S
N449 C450 1.365 . S
N449 C453 1.319 . S
C450 N449 1.365 . S
C450 C452 1.405 . S
C450 C458 1.448 . S
C451 H446 0.931 . S
C451 C453 1.397 . S
C451 C454 1.367 . S
C452 C450 1.405 . S
C452 C454 1.403 . S
C452 C485 1.439 . S
C453 H438 0.930 . S
C453 N449 1.319 . S
C453 C451 1.397 . S
C454 C451 1.367 . S
C454 C452 1.403 . S
C454 H461 0.929 . S
N455 Eu420 2.562 . S
N455 C456 1.325 . S
N455 C458 1.351 . S
C456 H442 0.929 . S
C456 N455 1.325 . S
C456 C460 1.416 . S
C457 C458 1.430 . S
C457 C459 1.404 . S
C457 C486 1.387 . S
C458 C450 1.448 . S
C458 N455 1.351 . S
C458 C457 1.430 . S
C459 H448 0.930 . S
C459 C457 1.404 . S
C459 C460 1.366 . S
C460 H439 0.930 . S
C460 C456 1.416 . S
C460 C459 1.366 . S
H461 C454 0.929 . S
H462 C485 0.931 . S
H463 C486 0.931 . S
O464 Eu420 2.462 . S
O464 C484 1.252 . S
O465 Eu420 2.373 . S
O465 C476 1.249 . S
O466 Eu431 2.335 . S
O466 C476 1.264 . S
O467 Eu420 2.432 . S
O467 C484 1.268 . S
O468 Eu420 2.291 . S
O468 C483 1.255 . S
O469 Eu431 2.372 . S
O469 C483 1.257 . S
O470 Eu431 2.462 . S
O470 C495 1.252 . S
O471 Eu431 2.373 . S
O471 C487 1.249 . S
O472 Eu420 2.335 . S
O472 C487 1.264 . S
O473 Eu431 2.432 . S
O473 C495 1.268 . S
O474 Eu431 2.291 . S
O474 C494 1.255 . S
O475 Eu420 2.372 . S
O475 C494 1.257 . S
C476 O465 1.249 . S
C476 O466 1.264 . S
C477 C480 1.382 . S
C477 C482 1.390 . S
C477 C484 1.506 . S
C478 C479 1.398 . S
C478 C482 1.392 . S
C479 C478 1.398 . S
C479 C481 1.372 . S
C479 H496 0.931 . S
C480 C477 1.382 . S
C480 C481 1.390 . S
C480 H497 0.931 . S
C481 C479 1.372 . S
C481 C480 1.390 . S
C481 H498 0.929 . S
C482 C477 1.390 . S
C482 C478 1.392 . S
C482 H499 0.930 . S
C483 O468 1.255 . S
C483 O469 1.257 . S
C484 Eu420 2.787 . S
C484 O464 1.252 . S
C484 O467 1.268 . S
C484 C477 1.506 . S
C485 C452 1.439 . S
C485 H462 0.931 . S
C485 C486 1.374 . S
C486 C457 1.387 . S
C486 H463 0.931 . S
C486 C485 1.374 . S
C487 O471 1.249 . S
C487 O472 1.264 . S
C488 C491 1.382 . S
C488 C492 1.390 . S
C488 C495 1.506 . S
C489 C490 1.398 . S
C489 C492 1.392 . S
C490 C489 1.398 . S
C490 C493 1.372 . S
C490 H500 0.931 . S
C491 C488 1.382 . S
C491 C493 1.390 . S
C491 H501 0.931 . S
C492 C488 1.390 . S
C492 C489 1.392 . S
C492 H502 0.930 . S
C493 C490 1.372 . S
C493 C491 1.390 . S
C493 H503 0.929 . S
C494 O474 1.255 . S
C494 O475 1.257 . S
C495 Eu431 2.787 . S
C495 O470 1.252 . S
C495 O473 1.268 . S
C495 C488 1.506 . S
H496 C479 0.931 . S
H497 C480 0.931 . S
H498 C481 0.929 . S
H499 C482 0.930 . S
H500 C490 0.931 . S
H501 C491 0.931 . S
H502 C492 0.930 . S
H503 C493 0.929 . S
Eu504 N533 2.600 . S
Eu504 N539 2.562 1_545 S
Eu504 O548 2.462 . S
Eu504 O549 2.373 1_545 S
Eu504 O551 2.432 . S
Eu504 O552 2.291 . S
Eu504 O556 2.335 . S
Eu504 O559 2.372 . S
Eu504 C568 2.787 . S
C505 N506 1.365 . S
C505 C508 1.405 . S
C505 C512 1.448 . S
N506 C505 1.365 . S
N506 C509 1.319 . S
N506 Eu515 2.600 . S
C507 C509 1.397 . S
C507 C510 1.367 . S
C507 H527 0.931 . S
C508 C505 1.405 . S
C508 C510 1.403 . S
C508 C514 1.439 . S
C509 N506 1.319 . S
C509 C507 1.397 . S
C509 H520 0.930 . S
C510 C507 1.367 . S
C510 C508 1.403 . S
C510 H531 0.929 . S
C511 C512 1.430 . S
C511 C513 1.387 . S
C511 C517 1.404 . S
C512 C505 1.448 . S
C512 C511 1.430 . S
C512 N516 1.351 . S
C513 C511 1.387 . S
C513 C514 1.374 . S
C513 H528 0.931 . S
C514 C508 1.439 . S
C514 C513 1.374 . S
C514 H529 0.931 . S
Eu515 N506 2.600 . S
Eu515 N516 2.562 . S
Eu515 O550 2.335 1_545 S
Eu515 O553 2.372 . S
Eu515 O554 2.462 . S
Eu515 O555 2.373 . S
Eu515 O557 2.432 . S
Eu515 O558 2.291 . S
Eu515 C579 2.787 . S
N516 C512 1.351 . S
N516 Eu515 2.562 . S
N516 C518 1.325 . S
C517 C511 1.404 . S
C517 C519 1.366 . S
C517 H525 0.930 . S
C518 N516 1.325 . S
C518 C519 1.416 . S
C518 H524 0.929 . S
C519 C517 1.366 . S
C519 C518 1.416 . S
C519 H521 0.930 . S
H520 C509 0.930 . S
H521 C519 0.930 . S
H522 C537 0.930 . S
H523 C544 0.930 . S
H524 C518 0.929 . S
H525 C517 0.930 . S
H526 C540 0.929 . S
H527 C507 0.931 . S
H528 C513 0.931 . S
H529 C514 0.931 . S
H530 C535 0.930 1_545 S
H531 C510 0.929 . S
H532 C543 0.930 . S
N533 Eu504 2.600 . S
N533 C534 1.365 1_545 S
N533 C537 1.319 . S
C534 N533 1.365 1_565 S
C534 C536 1.405 . S
C534 C542 1.448 . S
C535 H530 0.930 1_565 S
C535 C537 1.397 1_565 S
C535 C538 1.367 . S
C536 C534 1.405 . S
C536 C538 1.403 . S
C536 C569 1.439 . S
C537 H522 0.930 . S
C537 N533 1.319 . S
C537 C535 1.397 1_545 S
C538 C535 1.367 . S
C538 C536 1.403 . S
C538 H545 0.929 . S
N539 Eu504 2.562 1_565 S
N539 C540 1.325 . S
N539 C542 1.351 . S
C540 H526 0.929 . S
C540 N539 1.325 . S
C540 C544 1.416 . S
C541 C542 1.430 . S
C541 C543 1.404 . S
C541 C570 1.387 . S
C542 C534 1.448 . S
C542 N539 1.351 . S
C542 C541 1.430 . S
C543 H532 0.930 . S
C543 C541 1.404 . S
C543 C544 1.366 . S
C544 H523 0.930 . S
C544 C540 1.416 . S
C544 C543 1.366 . S
H545 C538 0.929 . S
H546 C569 0.931 . S
H547 C570 0.931 . S
O548 Eu504 2.462 . S
O548 C568 1.252 . S
O549 Eu504 2.373 1_565 S
O549 C560 1.249 . S
O550 Eu515 2.335 1_565 S
O550 C560 1.264 . S
O551 Eu504 2.432 . S
O551 C568 1.268 . S
O552 Eu504 2.291 . S
O552 C567 1.255 . S
O553 Eu515 2.372 . S
O553 C567 1.257 . S
O554 Eu515 2.462 . S
O554 C579 1.252 . S
O555 Eu515 2.373 . S
O555 C571 1.249 . S
O556 Eu504 2.335 . S
O556 C571 1.264 . S
O557 Eu515 2.432 . S
O557 C579 1.268 . S
O558 Eu515 2.291 . S
O558 C578 1.255 . S
O559 Eu504 2.372 . S
O559 C578 1.257 . S
C560 O549 1.249 . S
C560 O550 1.264 . S
C561 C564 1.382 . S
C561 C566 1.390 . S
C561 C568 1.506 . S
C562 C563 1.398 . S
C562 C566 1.392 . S
C563 C562 1.398 . S
C563 C565 1.372 . S
C563 H580 0.931 . S
C564 C561 1.382 . S
C564 C565 1.390 . S
C564 H581 0.931 . S
C565 C563 1.372 . S
C565 C564 1.390 . S
C565 H582 0.929 . S
C566 C561 1.390 . S
C566 C562 1.392 . S
C566 H583 0.930 . S
C567 O552 1.255 . S
C567 O553 1.257 . S
C568 Eu504 2.787 . S
C568 O548 1.252 . S
C568 O551 1.268 . S
C568 C561 1.506 . S
C569 C536 1.439 . S
C569 H546 0.931 . S
C569 C570 1.374 . S
C570 C541 1.387 . S
C570 H547 0.931 . S
C570 C569 1.374 . S
C571 O555 1.249 . S
C571 O556 1.264 . S
C572 C575 1.382 . S
C572 C576 1.390 . S
C572 C579 1.506 1_565 S
C573 C574 1.398 . S
C573 C576 1.392 . S
C574 C573 1.398 . S
C574 C577 1.372 . S
C574 H584 0.931 . S
C575 C572 1.382 . S
C575 C577 1.390 . S
C575 H585 0.931 . S
C576 C572 1.390 . S
C576 C573 1.392 . S
C576 H586 0.930 . S
C577 C574 1.372 . S
C577 C575 1.390 . S
C577 H587 0.929 . S
C578 O558 1.255 . S
C578 O559 1.257 . S
C579 Eu515 2.787 . S
C579 O554 1.252 . S
C579 O557 1.268 . S
C579 C572 1.506 1_545 S
H580 C563 0.931 . S
H581 C564 0.931 . S
H582 C565 0.929 . S
H583 C566 0.930 . S
H584 C574 0.931 . S
H585 C575 0.931 . S
H586 C576 0.930 . S
H587 C577 0.929 . S
Eu588 N617 2.600 . S
Eu588 N623 2.562 . S
Eu588 O632 2.462 . S
Eu588 O633 2.373 . S
Eu588 O635 2.432 . S
Eu588 O636 2.291 . S
Eu588 O640 2.335 . S
Eu588 O643 2.372 . S
Eu588 C652 2.787 . S
C589 N590 1.365 . S
C589 C592 1.405 . S
C589 C596 1.448 . S
N590 C589 1.365 . S
N590 C593 1.319 . S
N590 Eu599 2.600 . S
C591 C593 1.397 . S
C591 C594 1.367 . S
C591 H611 0.931 . S
C592 C589 1.405 . S
C592 C594 1.403 . S
C592 C598 1.439 . S
C593 N590 1.319 . S
C593 C591 1.397 . S
C593 H604 0.930 . S
C594 C591 1.367 . S
C594 C592 1.403 . S
C594 H615 0.929 . S
C595 C596 1.430 . S
C595 C597 1.387 . S
C595 C601 1.404 . S
C596 C589 1.448 . S
C596 C595 1.430 . S
C596 N600 1.351 . S
C597 C595 1.387 . S
C597 C598 1.374 . S
C597 H612 0.931 . S
C598 C592 1.439 . S
C598 C597 1.374 . S
C598 H613 0.931 . S
Eu599 N590 2.600 . S
Eu599 N600 2.562 . S
Eu599 O634 2.335 . S
Eu599 O637 2.372 . S
Eu599 O638 2.462 . S
Eu599 O639 2.373 . S
Eu599 O641 2.432 . S
Eu599 O642 2.291 . S
Eu599 C663 2.787 . S
N600 C596 1.351 . S
N600 Eu599 2.562 . S
N600 C602 1.325 . S
C601 C595 1.404 . S
C601 C603 1.366 . S
C601 H609 0.930 . S
C602 N600 1.325 . S
C602 C603 1.416 . S
C602 H608 0.929 . S
C603 C601 1.366 . S
C603 C602 1.416 . S
C603 H605 0.930 . S
H604 C593 0.930 . S
H605 C603 0.930 . S
H606 C621 0.930 . S
H607 C628 0.930 . S
H608 C602 0.929 . S
H609 C601 0.930 . S
H610 C624 0.929 . S
H611 C591 0.931 . S
H612 C597 0.931 . S
H613 C598 0.931 . S
H614 C619 0.931 . S
H615 C594 0.929 . S
H616 C627 0.930 . S
N617 Eu588 2.600 . S
N617 C618 1.365 . S
N617 C621 1.319 . S
C618 N617 1.365 . S
C618 C620 1.405 . S
C618 C626 1.448 . S
C619 H614 0.931 . S
C619 C621 1.397 . S
C619 C622 1.367 . S
C620 C618 1.405 . S
C620 C622 1.403 . S
C620 C653 1.439 . S
C621 H606 0.930 . S
C621 N617 1.319 . S
C621 C619 1.397 . S
C622 C619 1.367 . S
C622 C620 1.403 . S
C622 H629 0.929 . S
N623 Eu588 2.562 . S
N623 C624 1.325 . S
N623 C626 1.351 . S
C624 H610 0.929 . S
C624 N623 1.325 . S
C624 C628 1.416 . S
C625 C626 1.430 . S
C625 C627 1.404 . S
C625 C654 1.387 . S
C626 C618 1.448 . S
C626 N623 1.351 . S
C626 C625 1.430 . S
C627 H616 0.930 . S
C627 C625 1.404 . S
C627 C628 1.366 . S
C628 H607 0.930 . S
C628 C624 1.416 . S
C628 C627 1.366 . S
H629 C622 0.929 . S
H630 C653 0.931 . S
H631 C654 0.931 . S
O632 Eu588 2.462 . S
O632 C652 1.252 . S
O633 Eu588 2.373 . S
O633 C644 1.249 . S
O634 Eu599 2.335 . S
O634 C644 1.264 . S
O635 Eu588 2.432 . S
O635 C652 1.268 . S
O636 Eu588 2.291 . S
O636 C651 1.255 . S
O637 Eu599 2.372 . S
O637 C651 1.257 . S
O638 Eu599 2.462 . S
O638 C663 1.252 . S
O639 Eu599 2.373 . S
O639 C655 1.249 . S
O640 Eu588 2.335 . S
O640 C655 1.264 . S
O641 Eu599 2.432 . S
O641 C663 1.268 . S
O642 Eu599 2.291 . S
O642 C662 1.255 . S
O643 Eu588 2.372 . S
O643 C662 1.257 . S
C644 O633 1.249 . S
C644 O634 1.264 . S
C645 C648 1.382 . S
C645 C650 1.390 . S
C645 C652 1.506 . S
C646 C647 1.398 . S
C646 C650 1.392 . S
C647 C646 1.398 . S
C647 C649 1.372 . S
C647 H664 0.931 . S
C648 C645 1.382 . S
C648 C649 1.390 . S
C648 H665 0.931 . S
C649 C647 1.372 . S
C649 C648 1.390 . S
C649 H666 0.929 . S
C650 C645 1.390 . S
C650 C646 1.392 . S
C650 H667 0.930 . S
C651 O636 1.255 . S
C651 O637 1.257 . S
C652 Eu588 2.787 . S
C652 O632 1.252 . S
C652 O635 1.268 . S
C652 C645 1.506 . S
C653 C620 1.439 . S
C653 H630 0.931 . S
C653 C654 1.374 . S
C654 C625 1.387 . S
C654 H631 0.931 . S
C654 C653 1.374 . S
C655 O639 1.249 . S
C655 O640 1.264 . S
C656 C659 1.382 . S
C656 C660 1.390 . S
C656 C663 1.506 . S
C657 C658 1.398 . S
C657 C660 1.392 . S
C658 C657 1.398 . S
C658 C661 1.372 . S
C658 H668 0.931 . S
C659 C656 1.382 . S
C659 C661 1.390 . S
C659 H669 0.931 . S
C660 C656 1.390 . S
C660 C657 1.392 . S
C660 H670 0.930 . S
C661 C658 1.372 . S
C661 C659 1.390 . S
C661 H671 0.929 . S
C662 O642 1.255 . S
C662 O643 1.257 . S
C663 Eu599 2.787 . S
C663 O638 1.252 . S
C663 O641 1.268 . S
C663 C656 1.506 . S
H664 C647 0.931 . S
H665 C648 0.931 . S
H666 C649 0.929 . S
H667 C650 0.930 . S
H668 C658 0.931 . S
H669 C659 0.931 . S
H670 C660 0.930 . S
H671 C661 0.929 . S
Eu672 N701 2.603 . S
Eu672 N707 2.567 . S
Eu672 O716 2.468 . S
Eu672 O717 2.368 1_565 S
Eu672 O719 2.437 . S
Eu672 O720 2.289 1_565 S
Eu672 O724 2.332 1_565 S
Eu672 O727 2.367 1_565 S
Eu672 C736 2.794 . S
C673 N674 1.365 1_455 S
C673 C676 1.405 1_455 S
C673 C680 1.448 . S
N674 C673 1.365 1_655 S
N674 C677 1.319 . S
N674 Eu683 2.600 1_655 S
C675 C677 1.397 . S
C675 C678 1.367 . S
C675 H695 0.931 . S
C676 C673 1.405 1_655 S
C676 C678 1.403 . S
C676 C682 1.439 1_655 S
C677 N674 1.319 . S
C677 C675 1.397 . S
C677 H688 0.930 . S
C678 C675 1.367 . S
C678 C676 1.403 . S
C678 H699 0.929 . S
C679 C680 1.430 . S
C679 C681 1.387 . S
C679 C685 1.404 . S
C680 C673 1.448 . S
C680 C679 1.430 . S
C680 N684 1.351 . S
C681 C679 1.387 . S
C681 C682 1.374 . S
C681 H696 0.931 . S
C682 C676 1.439 1_455 S
C682 C681 1.374 . S
C682 H697 0.931 . S
Eu683 N674 2.600 1_455 S
Eu683 N684 2.562 . S
Eu683 O718 2.335 . S
Eu683 O721 2.372 1_455 S
Eu683 O722 2.462 . S
Eu683 O723 2.373 . S
Eu683 O725 2.432 1_455 S
Eu683 O726 2.291 . S
Eu683 C747 2.787 . S
N684 C680 1.351 . S
N684 Eu683 2.562 . S
N684 C686 1.325 . S
C685 C679 1.404 . S
C685 C687 1.366 . S
C685 H693 0.930 . S
C686 N684 1.325 . S
C686 C687 1.416 . S
C686 H692 0.929 . S
C687 C685 1.366 . S
C687 C686 1.416 . S
C687 H689 0.930 . S
H688 C677 0.930 . S
H689 C687 0.930 . S
H690 C705 0.930 1_545 S
H691 C712 0.930 . S
H692 C686 0.929 . S
H693 C685 0.930 . S
H694 C708 0.909 1_655 S
H695 C675 0.931 . S
H696 C681 0.931 . S
H697 C682 0.931 . S
H698 C703 0.938 . S
H699 C678 0.929 . S
H700 C711 0.930 . S
N701 Eu672 2.603 . S
N701 C702 1.365 . S
N701 C705 1.319 . S
C702 N701 1.365 . S
C702 C704 1.405 . S
C702 C710 1.448 . S
C703 H698 0.938 . S
C703 C705 1.397 . S
C703 C706 1.367 . S
C704 C702 1.405 . S
C704 C706 1.403 . S
C704 C737 1.439 . S
C705 H690 0.930 1_565 S
C705 N701 1.319 . S
C705 C703 1.397 . S
C706 C703 1.367 . S
C706 C704 1.403 . S
C706 H713 0.929 . S
N707 Eu672 2.567 . S
N707 C708 1.354 . S
N707 C710 1.351 . S
C708 H694 0.909 1_455 S
C708 N707 1.354 . S
C708 C712 1.406 1_455 S
C709 C710 1.430 . S
C709 C711 1.404 1_455 S
C709 C738 1.387 . S
C710 C702 1.448 . S
C710 N707 1.351 . S
C710 C709 1.430 . S
C711 H700 0.930 . S
C711 C709 1.404 1_655 S
C711 C712 1.366 . S
C712 H691 0.930 . S
C712 C708 1.406 1_655 S
C712 C711 1.366 . S
H713 C706 0.929 . S
H714 C737 0.931 . S
H715 C738 0.931 . S
O716 Eu672 2.468 . S
O716 C736 1.252 . S
O717 Eu672 2.368 1_545 S
O717 C728 1.249 . S
O718 Eu683 2.335 . S
O718 C728 1.264 . S
O719 Eu672 2.437 . S
O719 C736 1.268 . S
O720 Eu672 2.289 1_545 S
O720 C735 1.255 1_455 S
O721 Eu683 2.372 1_655 S
O721 C735 1.257 . S
O722 Eu683 2.462 . S
O722 C747 1.252 . S
O723 Eu683 2.373 . S
O723 C739 1.249 . S
O724 Eu672 2.332 1_545 S
O724 C739 1.264 . S
O725 Eu683 2.432 1_655 S
O725 C747 1.268 1_655 S
O726 Eu683 2.291 . S
O726 C746 1.255 . S
O727 Eu672 2.367 1_545 S
O727 C746 1.257 . S
C728 O717 1.249 . S
C728 O718 1.264 . S
C729 C732 1.382 . S
C729 C734 1.390 . S
C729 C736 1.506 . S
C730 C731 1.398 . S
C730 C734 1.392 . S
C731 C730 1.398 . S
C731 C733 1.372 . S
C731 H748 0.931 . S
C732 C729 1.382 . S
C732 C733 1.390 . S
C732 H749 0.931 . S
C733 C731 1.372 . S
C733 C732 1.390 . S
C733 H750 0.929 . S
C734 C729 1.390 . S
C734 C730 1.392 . S
C734 H751 0.930 . S
C735 O720 1.255 1_655 S
C735 O721 1.257 . S
C736 Eu672 2.794 . S
C736 O716 1.252 . S
C736 O719 1.268 . S
C736 C729 1.506 . S
C737 C704 1.439 . S
C737 H714 0.931 . S
C737 C738 1.374 . S
C738 C709 1.387 . S
C738 H715 0.931 . S
C738 C737 1.374 . S
C739 O723 1.249 . S
C739 O724 1.264 . S
C740 C743 1.382 1_455 S
C740 C744 1.390 . S
C740 C747 1.506 . S
C741 C742 1.398 1_455 S
C741 C744 1.392 . S
C742 C741 1.398 1_655 S
C742 C745 1.372 . S
C742 H752 0.931 . S
C743 C740 1.382 1_655 S
C743 C745 1.390 . S
C743 H753 0.931 . S
C744 C740 1.390 . S
C744 C741 1.392 . S
C744 H754 0.930 . S
C745 C742 1.372 . S
C745 C743 1.390 . S
C745 H755 0.929 . S
C746 O726 1.255 . S
C746 O727 1.257 . S
C747 Eu683 2.787 . S
C747 O722 1.252 . S
C747 O725 1.268 1_455 S
C747 C740 1.506 . S
H748 C731 0.931 . S
H749 C732 0.931 . S
H750 C733 0.929 . S
H751 C734 0.930 . S
H752 C742 0.931 . S
H753 C743 0.931 . S
H754 C744 0.930 . S
H755 C745 0.929 . S
Eu756 N785 2.600 . S
Eu756 N791 2.562 . S
Eu756 O800 2.462 . S
Eu756 O801 2.373 . S
Eu756 O803 2.432 . S
Eu756 O804 2.291 . S
Eu756 O808 2.335 . S
Eu756 O811 2.372 . S
Eu756 C820 2.787 . S
C757 N758 1.365 . S
C757 C760 1.405 . S
C757 C764 1.448 . S
N758 C757 1.365 . S
N758 C761 1.319 . S
N758 Eu767 2.600 . S
C759 C761 1.397 . S
C759 C762 1.367 . S
C759 H779 0.931 . S
C760 C757 1.405 . S
C760 C762 1.403 . S
C760 C766 1.439 . S
C761 N758 1.319 . S
C761 C759 1.397 . S
C761 H772 0.930 . S
C762 C759 1.367 . S
C762 C760 1.403 . S
C762 H783 0.929 . S
C763 C764 1.430 . S
C763 C765 1.387 . S
C763 C769 1.404 . S
C764 C757 1.448 . S
C764 C763 1.430 . S
C764 N768 1.351 . S
C765 C763 1.387 . S
C765 C766 1.374 . S
C765 H780 0.931 . S
C766 C760 1.439 . S
C766 C765 1.374 . S
C766 H781 0.931 . S
Eu767 N758 2.600 . S
Eu767 N768 2.562 . S
Eu767 O802 2.335 . S
Eu767 O805 2.372 . S
Eu767 O806 2.462 . S
Eu767 O807 2.373 . S
Eu767 O809 2.432 . S
Eu767 O810 2.291 . S
Eu767 C831 2.787 . S
N768 C764 1.351 . S
N768 Eu767 2.562 . S
N768 C770 1.325 . S
C769 C763 1.404 . S
C769 C771 1.366 . S
C769 H777 0.930 . S
C770 N768 1.325 . S
C770 C771 1.416 . S
C770 H776 0.929 . S
C771 C769 1.366 . S
C771 C770 1.416 . S
C771 H773 0.930 . S
H772 C761 0.930 . S
H773 C771 0.930 . S
H774 C789 0.930 . S
H775 C796 0.930 . S
H776 C770 0.929 . S
H777 C769 0.930 . S
H778 C792 0.929 . S
H779 C759 0.931 . S
H780 C765 0.931 . S
H781 C766 0.931 . S
H782 C787 0.931 . S
H783 C762 0.929 . S
H784 C795 0.930 . S
N785 Eu756 2.600 . S
N785 C786 1.365 . S
N785 C789 1.319 . S
C786 N785 1.365 . S
C786 C788 1.405 . S
C786 C794 1.448 . S
C787 H782 0.931 . S
C787 C789 1.397 . S
C787 C790 1.367 . S
C788 C786 1.405 . S
C788 C790 1.403 . S
C788 C821 1.439 . S
C789 H774 0.930 . S
C789 N785 1.319 . S
C789 C787 1.397 . S
C790 C787 1.367 . S
C790 C788 1.403 . S
C790 H797 0.929 . S
N791 Eu756 2.562 . S
N791 C792 1.325 . S
N791 C794 1.351 . S
C792 H778 0.929 . S
C792 N791 1.325 . S
C792 C796 1.416 . S
C793 C794 1.430 . S
C793 C795 1.404 . S
C793 C822 1.387 . S
C794 C786 1.448 . S
C794 N791 1.351 . S
C794 C793 1.430 . S
C795 H784 0.930 . S
C795 C793 1.404 . S
C795 C796 1.366 . S
C796 H775 0.930 . S
C796 C792 1.416 . S
C796 C795 1.366 . S
H797 C790 0.929 . S
H798 C821 0.931 . S
H799 C822 0.931 . S
O800 Eu756 2.462 . S
O800 C820 1.252 . S
O801 Eu756 2.373 . S
O801 C812 1.249 . S
O802 Eu767 2.335 . S
O802 C812 1.264 . S
O803 Eu756 2.432 . S
O803 C820 1.268 . S
O804 Eu756 2.291 . S
O804 C819 1.255 . S
O805 Eu767 2.372 . S
O805 C819 1.257 . S
O806 Eu767 2.462 . S
O806 C831 1.252 . S
O807 Eu767 2.373 . S
O807 C823 1.249 . S
O808 Eu756 2.335 . S
O808 C823 1.264 . S
O809 Eu767 2.432 . S
O809 C831 1.268 . S
O810 Eu767 2.291 . S
O810 C830 1.255 . S
O811 Eu756 2.372 . S
O811 C830 1.257 . S
C812 O801 1.249 . S
C812 O802 1.264 . S
C813 C816 1.382 . S
C813 C818 1.390 . S
C813 C820 1.506 . S
C814 C815 1.398 . S
C814 C818 1.392 . S
C815 C814 1.398 . S
C815 C817 1.372 . S
C815 H832 0.931 . S
C816 C813 1.382 . S
C816 C817 1.390 . S
C816 H833 0.931 . S
C817 C815 1.372 . S
C817 C816 1.390 . S
C817 H834 0.929 . S
C818 C813 1.390 . S
C818 C814 1.392 . S
C818 H835 0.930 . S
C819 O804 1.255 . S
C819 O805 1.257 . S
C820 Eu756 2.787 . S
C820 O800 1.252 . S
C820 O803 1.268 . S
C820 C813 1.506 . S
C821 C788 1.439 . S
C821 H798 0.931 . S
C821 C822 1.374 . S
C822 C793 1.387 . S
C822 H799 0.931 . S
C822 C821 1.374 . S
C823 O807 1.249 . S
C823 O808 1.264 . S
C824 C827 1.382 . S
C824 C828 1.390 . S
C824 C831 1.506 . S
C825 C826 1.398 . S
C825 C828 1.392 . S
C826 C825 1.398 . S
C826 C829 1.372 . S
C826 H836 0.931 . S
C827 C824 1.382 . S
C827 C829 1.390 . S
C827 H837 0.931 . S
C828 C824 1.390 . S
C828 C825 1.392 . S
C828 H838 0.930 . S
C829 C826 1.372 . S
C829 C827 1.390 . S
C829 H839 0.929 . S
C830 O810 1.255 . S
C830 O811 1.257 . S
C831 Eu767 2.787 . S
C831 O806 1.252 . S
C831 O809 1.268 . S
C831 C824 1.506 . S
H832 C815 0.931 . S
H833 C816 0.931 . S
H834 C817 0.929 . S
H835 C818 0.930 . S
H836 C826 0.931 . S
H837 C827 0.931 . S
H838 C828 0.930 . S
H839 C829 0.929 . S
Eu840 N869 2.603 . S
Eu840 N875 2.569 . S
Eu840 O884 2.471 . S
Eu840 O885 2.368 1_556 S
Eu840 O887 2.439 . S
Eu840 O888 2.285 1_556 S
Eu840 O892 2.331 1_556 S
Eu840 O895 2.364 1_556 S
Eu840 C904 2.796 . S
C841 N842 1.370 . S
C841 C844 1.430 . S
C841 C848 1.417 1_565 S
N842 C841 1.370 . S
N842 C845 1.319 . S
N842 Eu851 2.600 1_565 S
C843 C845 1.397 . S
C843 C846 1.367 . S
C843 H863 0.931 . S
C844 C841 1.430 . S
C844 C846 1.403 . S
C844 C850 1.439 . S
C845 N842 1.319 . S
C845 C843 1.397 . S
C845 H856 0.930 . S
C846 C843 1.367 . S
C846 C844 1.403 . S
C846 H867 0.929 . S
C847 C848 1.430 . S
C847 C849 1.387 . S
C847 C853 1.404 . S
C848 C841 1.417 1_545 S
C848 C847 1.430 . S
C848 N852 1.351 . S
C849 C847 1.387 . S
C849 C850 1.374 1_545 S
C849 H864 0.931 . S
C850 C844 1.439 . S
C850 C849 1.374 1_565 S
C850 H865 0.931 . S
Eu851 N842 2.600 1_545 S
Eu851 N852 2.562 . S
Eu851 O886 2.335 . S
Eu851 O889 2.372 1_545 S
Eu851 O890 2.462 . S
Eu851 O891 2.373 . S
Eu851 O893 2.432 1_545 S
Eu851 O894 2.291 . S
Eu851 C915 2.787 . S
N852 C848 1.351 . S
N852 Eu851 2.562 . S
N852 C854 1.325 . S
C853 C847 1.404 . S
C853 C855 1.366 . S
C853 H861 0.930 . S
C854 N852 1.325 . S
C854 C855 1.416 . S
C854 H860 0.929 . S
C855 C853 1.366 . S
C855 C854 1.416 . S
C855 H857 0.930 . S
H856 C845 0.930 . S
H857 C855 0.930 . S
H858 C873 0.930 1_554 S
H859 C880 0.930 . S
H860 C854 0.929 . S
H861 C853 0.930 . S
H862 C876 0.929 . S
H863 C843 0.931 . S
H864 C849 0.931 . S
H865 C850 0.931 . S
H866 C871 0.931 1_554 S
H867 C846 0.929 . S
H868 C879 0.930 . S
N869 Eu840 2.603 . S
N869 C870 1.365 . S
N869 C873 1.319 . S
C870 N869 1.365 . S
C870 C872 1.405 . S
C870 C878 1.448 . S
C871 H866 0.931 1_556 S
C871 C873 1.397 . S
C871 C874 1.367 . S
C872 C870 1.405 . S
C872 C874 1.403 . S
C872 C905 1.439 . S
C873 H858 0.930 1_556 S
C873 N869 1.319 . S
C873 C871 1.397 . S
C874 C871 1.367 . S
C874 C872 1.403 . S
C874 H881 0.929 . S
N875 Eu840 2.569 . S
N875 C876 1.325 . S
N875 C878 1.351 . S
C876 H862 0.929 . S
C876 N875 1.325 . S
C876 C880 1.416 1_545 S
C877 C878 1.430 . S
C877 C879 1.404 . S
C877 C906 1.387 . S
C878 C870 1.448 . S
C878 N875 1.351 . S
C878 C877 1.430 . S
C879 H868 0.930 . S
C879 C877 1.404 . S
C879 C880 1.366 1_545 S
C880 H859 0.930 . S
C880 C876 1.416 1_565 S
C880 C879 1.366 1_565 S
H881 C874 0.929 . S
H882 C905 0.931 . S
H883 C906 0.931 . S
O884 Eu840 2.471 . S
O884 C904 1.252 . S
O885 Eu840 2.368 1_554 S
O885 C896 1.249 . S
O886 Eu851 2.335 . S
O886 C896 1.264 . S
O887 Eu840 2.439 . S
O887 C904 1.268 . S
O888 Eu840 2.285 1_554 S
O888 C903 1.267 1_545 S
O889 Eu851 2.372 1_565 S
O889 C903 1.257 . S
O890 Eu851 2.462 . S
O890 C915 1.252 . S
O891 Eu851 2.373 . S
O891 C907 1.249 . S
O892 Eu840 2.331 1_554 S
O892 C907 1.264 . S
O893 Eu851 2.432 1_565 S
O893 C915 1.268 1_565 S
O894 Eu851 2.291 . S
O894 C914 1.255 . S
O895 Eu840 2.364 1_554 S
O895 C914 1.257 . S
C896 O885 1.249 . S
C896 O886 1.264 . S
C897 C900 1.382 . S
C897 C902 1.390 . S
C897 C904 1.506 . S
C898 C899 1.398 . S
C898 C902 1.392 . S
C899 C898 1.398 . S
C899 C901 1.372 . S
C899 H916 0.931 . S
C900 C897 1.382 . S
C900 C901 1.390 . S
C900 H917 0.931 . S
C901 C899 1.372 . S
C901 C900 1.390 . S
C901 H918 0.929 . S
C902 C897 1.390 . S
C902 C898 1.392 . S
C902 H919 0.930 . S
C903 O888 1.267 1_565 S
C903 O889 1.257 . S
C904 Eu840 2.796 . S
C904 O884 1.252 . S
C904 O887 1.268 . S
C904 C897 1.506 . S
C905 C872 1.439 . S
C905 H882 0.931 . S
C905 C906 1.374 . S
C906 C877 1.387 . S
C906 H883 0.931 . S
C906 C905 1.374 . S
C907 O891 1.249 . S
C907 O892 1.264 . S
C908 C911 1.382 . S
C908 C912 1.390 1_565 S
C908 C915 1.506 1_565 S
C909 C910 1.398 1_545 S
C909 C912 1.392 . S
C910 C909 1.398 1_565 S
C910 C913 1.372 . S
C910 H920 0.931 . S
C911 C908 1.382 . S
C911 C913 1.390 . S
C911 H921 0.931 . S
C912 C908 1.390 1_545 S
C912 C909 1.392 . S
C912 H922 0.930 . S
C913 C910 1.372 . S
C913 C911 1.390 . S
C913 H923 0.929 . S
C914 O894 1.255 . S
C914 O895 1.257 . S
C915 Eu851 2.787 . S
C915 O890 1.252 . S
C915 O893 1.268 1_545 S
C915 C908 1.506 1_545 S
H916 C899 0.931 . S
H917 C900 0.931 . S
H918 C901 0.929 . S
H919 C902 0.930 . S
H920 C910 0.931 . S
H921 C911 0.931 . S
H922 C912 0.930 . S
H923 C913 0.929 . S
Eu924 N953 2.600 . S
Eu924 N959 2.562 . S
Eu924 O968 2.462 . S
Eu924 O969 2.373 . S
Eu924 O971 2.432 . S
Eu924 O972 2.291 . S
Eu924 O976 2.335 . S
Eu924 O979 2.372 . S
Eu924 C988 2.787 . S
C925 N926 1.365 . S
C925 C928 1.405 . S
C925 C932 1.448 . S
N926 C925 1.365 . S
N926 C929 1.319 . S
N926 Eu935 2.600 . S
C927 C929 1.397 . S
C927 C930 1.367 . S
C927 H947 0.931 . S
C928 C925 1.405 . S
C928 C930 1.403 . S
C928 C934 1.439 . S
C929 N926 1.319 . S
C929 C927 1.397 . S
C929 H940 0.930 . S
C930 C927 1.367 . S
C930 C928 1.403 . S
C930 H951 0.929 . S
C931 C932 1.430 . S
C931 C933 1.387 . S
C931 C937 1.404 . S
C932 C925 1.448 . S
C932 C931 1.430 . S
C932 N936 1.351 . S
C933 C931 1.387 . S
C933 C934 1.374 . S
C933 H948 0.931 . S
C934 C928 1.439 . S
C934 C933 1.374 . S
C934 H949 0.931 . S
Eu935 N926 2.600 . S
Eu935 N936 2.562 . S
Eu935 O970 2.335 . S
Eu935 O973 2.372 . S
Eu935 O974 2.462 . S
Eu935 O975 2.373 . S
Eu935 O977 2.432 . S
Eu935 O978 2.291 . S
Eu935 C999 2.787 . S
N936 C932 1.351 . S
N936 Eu935 2.562 . S
N936 C938 1.325 . S
C937 C931 1.404 . S
C937 C939 1.366 . S
C937 H945 0.930 . S
C938 N936 1.325 . S
C938 C939 1.416 . S
C938 H944 0.929 . S
C939 C937 1.366 . S
C939 C938 1.416 . S
C939 H941 0.930 . S
H940 C929 0.930 . S
H941 C939 0.930 . S
H942 C957 0.930 . S
H943 C964 0.930 . S
H944 C938 0.929 . S
H945 C937 0.930 . S
H946 C960 0.929 . S
H947 C927 0.931 . S
H948 C933 0.931 . S
H949 C934 0.931 . S
H950 C955 0.931 . S
H951 C930 0.929 . S
H952 C963 0.930 . S
N953 Eu924 2.600 . S
N953 C954 1.365 . S
N953 C957 1.319 . S
C954 N953 1.365 . S
C954 C956 1.405 . S
C954 C962 1.448 . S
C955 H950 0.931 . S
C955 C957 1.397 . S
C955 C958 1.367 . S
C956 C954 1.405 . S
C956 C958 1.403 . S
C956 C989 1.439 . S
C957 H942 0.930 . S
C957 N953 1.319 . S
C957 C955 1.397 . S
C958 C955 1.367 . S
C958 C956 1.403 . S
C958 H965 0.929 . S
N959 Eu924 2.562 . S
N959 C960 1.325 . S
N959 C962 1.351 . S
C960 H946 0.929 . S
C960 N959 1.325 . S
C960 C964 1.416 . S
C961 C962 1.430 . S
C961 C963 1.404 . S
C961 C990 1.387 . S
C962 C954 1.448 . S
C962 N959 1.351 . S
C962 C961 1.430 . S
C963 H952 0.930 . S
C963 C961 1.404 . S
C963 C964 1.366 . S
C964 H943 0.930 . S
C964 C960 1.416 . S
C964 C963 1.366 . S
H965 C958 0.929 . S
H966 C989 0.931 . S
H967 C990 0.931 . S
O968 Eu924 2.462 . S
O968 C988 1.252 . S
O969 Eu924 2.373 . S
O969 C980 1.249 . S
O970 Eu935 2.335 . S
O970 C980 1.264 . S
O971 Eu924 2.432 . S
O971 C988 1.268 . S
O972 Eu924 2.291 . S
O972 C987 1.255 . S
O973 Eu935 2.372 . S
O973 C987 1.257 . S
O974 Eu935 2.462 . S
O974 C999 1.252 . S
O975 Eu935 2.373 . S
O975 C991 1.249 . S
O976 Eu924 2.335 . S
O976 C991 1.264 . S
O977 Eu935 2.432 . S
O977 C999 1.268 . S
O978 Eu935 2.291 . S
O978 C998 1.255 . S
O979 Eu924 2.372 . S
O979 C998 1.257 . S
C980 O969 1.249 . S
C980 O970 1.264 . S
C981 C984 1.382 . S
C981 C986 1.390 . S
C981 C988 1.506 . S
C982 C983 1.398 . S
C982 C986 1.392 . S
C983 C982 1.398 . S
C983 C985 1.372 . S
C983 H1000 0.931 . S
C984 C981 1.382 . S
C984 C985 1.390 . S
C984 H1001 0.931 . S
C985 C983 1.372 . S
C985 C984 1.390 . S
C985 H1002 0.929 . S
C986 C981 1.390 . S
C986 C982 1.392 . S
C986 H1003 0.930 . S
C987 O972 1.255 . S
C987 O973 1.257 . S
C988 Eu924 2.787 . S
C988 O968 1.252 . S
C988 O971 1.268 . S
C988 C981 1.506 . S
C989 C956 1.439 . S
C989 H966 0.931 . S
C989 C990 1.374 . S
C990 C961 1.387 . S
C990 H967 0.931 . S
C990 C989 1.374 . S
C991 O975 1.249 . S
C991 O976 1.264 . S
C992 C995 1.382 . S
C992 C996 1.390 . S
C992 C999 1.506 . S
C993 C994 1.398 . S
C993 C996 1.392 . S
C994 C993 1.398 . S
C994 C997 1.372 . S
C994 H1004 0.931 . S
C995 C992 1.382 . S
C995 C997 1.390 . S
C995 H1005 0.931 . S
C996 C992 1.390 . S
C996 C993 1.392 . S
C996 H1006 0.930 . S
C997 C994 1.372 . S
C997 C995 1.390 . S
C997 H1007 0.929 . S
C998 O978 1.255 . S
C998 O979 1.257 . S
C999 Eu935 2.787 . S
C999 O974 1.252 . S
C999 O977 1.268 . S
C999 C992 1.506 . S
H1000 C983 0.931 . S
H1001 C984 0.931 . S
H1002 C985 0.929 . S
H1003 C986 0.930 . S
H1004 C994 0.931 . S
H1005 C995 0.931 . S
H1006 C996 0.930 . S
H1007 C997 0.929 . S
Eu1008 N1037 2.600 1_554 S
Eu1008 N1043 2.562 1_554 S
Eu1008 O1052 2.462 . S
Eu1008 O1053 2.373 1_554 S
Eu1008 O1055 2.432 . S
Eu1008 O1056 2.291 . S
Eu1008 O1060 2.335 . S
Eu1008 O1063 2.372 . S
Eu1008 C1072 2.787 . S
C1009 N1010 1.365 . S
C1009 C1012 1.405 . S
C1009 C1016 1.448 . S
N1010 C1009 1.365 . S
N1010 C1013 1.319 . S
N1010 Eu1019 2.600 . S
C1011 C1013 1.397 . S
C1011 C1014 1.367 . S
C1011 H1031 0.931 . S
C1012 C1009 1.405 . S
C1012 C1014 1.403 . S
C1012 C1018 1.439 . S
C1013 N1010 1.319 . S
C1013 C1011 1.397 . S
C1013 H1024 0.930 . S
C1014 C1011 1.367 . S
C1014 C1012 1.403 . S
C1014 H1035 0.929 . S
C1015 C1016 1.430 . S
C1015 C1017 1.387 . S
C1015 C1021 1.404 . S
C1016 C1009 1.448 . S
C1016 C1015 1.430 . S
C1016 N1020 1.351 . S
C1017 C1015 1.387 . S
C1017 C1018 1.374 . S
C1017 H1032 0.931 . S
C1018 C1012 1.439 . S
C1018 C1017 1.374 . S
C1018 H1033 0.931 . S
Eu1019 N1010 2.600 . S
Eu1019 N1020 2.562 . S
Eu1019 O1054 2.335 1_554 S
Eu1019 O1057 2.372 . S
Eu1019 O1058 2.462 . S
Eu1019 O1059 2.373 . S
Eu1019 O1061 2.432 . S
Eu1019 O1062 2.291 . S
Eu1019 C1083 2.787 . S
N1020 C1016 1.351 . S
N1020 Eu1019 2.562 . S
N1020 C1022 1.325 . S
C1021 C1015 1.404 . S
C1021 C1023 1.366 . S
C1021 H1029 0.930 . S
C1022 N1020 1.325 . S
C1022 C1023 1.416 . S
C1022 H1028 0.929 . S
C1023 C1021 1.366 . S
C1023 C1022 1.416 . S
C1023 H1025 0.930 . S
H1024 C1013 0.930 . S
H1025 C1023 0.930 . S
H1026 C1041 0.930 1_554 S
H1027 C1048 0.930 . S
H1028 C1022 0.929 . S
H1029 C1021 0.930 . S
H1030 C1044 0.929 1_554 S
H1031 C1011 0.931 . S
H1032 C1017 0.931 . S
H1033 C1018 0.931 . S
H1034 C1039 0.931 . S
H1035 C1014 0.929 . S
H1036 C1047 0.930 . S
N1037 Eu1008 2.600 1_556 S
N1037 C1038 1.365 . S
N1037 C1041 1.319 . S
C1038 N1037 1.365 . S
C1038 C1040 1.405 . S
C1038 C1046 1.448 . S
C1039 H1034 0.931 . S
C1039 C1041 1.397 . S
C1039 C1042 1.367 . S
C1040 C1038 1.405 . S
C1040 C1042 1.403 . S
C1040 C1073 1.439 . S
C1041 H1026 0.930 1_556 S
C1041 N1037 1.319 . S
C1041 C1039 1.397 . S
C1042 C1039 1.367 . S
C1042 C1040 1.403 . S
C1042 H1049 0.929 . S
N1043 Eu1008 2.562 1_556 S
N1043 C1044 1.325 . S
N1043 C1046 1.351 . S
C1044 H1030 0.929 1_556 S
C1044 N1043 1.325 . S
C1044 C1048 1.416 . S
C1045 C1046 1.430 . S
C1045 C1047 1.404 . S
C1045 C1074 1.387 . S
C1046 C1038 1.448 . S
C1046 N1043 1.351 . S
C1046 C1045 1.430 . S
C1047 H1036 0.930 . S
C1047 C1045 1.404 . S
C1047 C1048 1.366 . S
C1048 H1027 0.930 . S
C1048 C1044 1.416 . S
C1048 C1047 1.366 . S
H1049 C1042 0.929 . S
H1050 C1073 0.931 . S
H1051 C1074 0.931 . S
O1052 Eu1008 2.462 . S
O1052 C1072 1.252 . S
O1053 Eu1008 2.373 1_556 S
O1053 C1064 1.249 . S
O1054 Eu1019 2.335 1_556 S
O1054 C1064 1.264 . S
O1055 Eu1008 2.432 . S
O1055 C1072 1.268 . S
O1056 Eu1008 2.291 . S
O1056 C1071 1.255 . S
O1057 Eu1019 2.372 . S
O1057 C1071 1.257 . S
O1058 Eu1019 2.462 . S
O1058 C1083 1.252 . S
O1059 Eu1019 2.373 . S
O1059 C1075 1.249 . S
O1060 Eu1008 2.335 . S
O1060 C1075 1.264 . S
O1061 Eu1019 2.432 . S
O1061 C1083 1.268 . S
O1062 Eu1019 2.291 . S
O1062 C1082 1.255 . S
O1063 Eu1008 2.372 . S
O1063 C1082 1.257 . S
C1064 O1053 1.249 . S
C1064 O1054 1.264 . S
C1065 C1068 1.382 . S
C1065 C1070 1.390 . S
C1065 C1072 1.506 . S
C1066 C1067 1.398 . S
C1066 C1070 1.392 . S
C1067 C1066 1.398 . S
C1067 C1069 1.372 . S
C1067 H1084 0.931 . S
C1068 C1065 1.382 . S
C1068 C1069 1.390 . S
C1068 H1085 0.931 . S
C1069 C1067 1.372 . S
C1069 C1068 1.390 . S
C1069 H1086 0.929 . S
C1070 C1065 1.390 . S
C1070 C1066 1.392 . S
C1070 H1087 0.930 . S
C1071 O1056 1.255 . S
C1071 O1057 1.257 . S
C1072 Eu1008 2.787 . S
C1072 O1052 1.252 . S
C1072 O1055 1.268 . S
C1072 C1065 1.506 . S
C1073 C1040 1.439 . S
C1073 H1050 0.931 . S
C1073 C1074 1.374 . S
C1074 C1045 1.387 . S
C1074 H1051 0.931 . S
C1074 C1073 1.374 . S
C1075 O1059 1.249 . S
C1075 O1060 1.264 . S
C1076 C1079 1.382 . S
C1076 C1080 1.390 . S
C1076 C1083 1.506 1_556 S
C1077 C1078 1.398 . S
C1077 C1080 1.392 . S
C1078 C1077 1.398 . S
C1078 C1081 1.372 . S
C1078 H1088 0.931 . S
C1079 C1076 1.382 . S
C1079 C1081 1.390 . S
C1079 H1089 0.929 1_556 S
C1080 C1076 1.390 . S
C1080 C1077 1.392 . S
C1080 H1090 0.930 . S
C1081 C1078 1.372 . S
C1081 C1079 1.390 . S
C1081 H1091 0.929 . S
C1082 O1062 1.255 . S
C1082 O1063 1.257 . S
C1083 Eu1019 2.787 . S
C1083 O1058 1.252 . S
C1083 O1061 1.268 . S
C1083 C1076 1.506 1_554 S
H1084 C1067 0.931 . S
H1085 C1068 0.931 . S
H1086 C1069 0.929 . S
H1087 C1070 0.930 . S
H1088 C1078 0.931 . S
H1089 C1079 0.929 1_554 S
H1090 C1080 0.930 . S
H1091 C1081 0.929 . S
Eu1092 N1121 2.600 . S
Eu1092 N1127 2.562 . S
Eu1092 O1136 2.462 . S
Eu1092 O1137 2.373 . S
Eu1092 O1139 2.432 . S
Eu1092 O1140 2.291 . S
Eu1092 O1144 2.335 . S
Eu1092 O1147 2.372 . S
Eu1092 C1156 2.787 . S
C1093 N1094 1.365 . S
C1093 C1096 1.405 . S
C1093 C1100 1.448 . S
N1094 C1093 1.365 . S
N1094 C1097 1.319 . S
N1094 Eu1103 2.600 . S
C1095 C1097 1.397 . S
C1095 C1098 1.367 . S
C1095 H1115 0.931 . S
C1096 C1093 1.405 . S
C1096 C1098 1.403 . S
C1096 C1102 1.439 . S
C1097 N1094 1.319 . S
C1097 C1095 1.397 . S
C1097 H1108 0.930 . S
C1098 C1095 1.367 . S
C1098 C1096 1.403 . S
C1098 H1119 0.929 . S
C1099 C1100 1.430 . S
C1099 C1101 1.387 . S
C1099 C1105 1.404 . S
C1100 C1093 1.448 . S
C1100 C1099 1.430 . S
C1100 N1104 1.351 . S
C1101 C1099 1.387 . S
C1101 C1102 1.374 . S
C1101 H1116 0.931 . S
C1102 C1096 1.439 . S
C1102 C1101 1.374 . S
C1102 H1117 0.931 . S
Eu1103 N1094 2.600 . S
Eu1103 N1104 2.562 . S
Eu1103 O1138 2.335 . S
Eu1103 O1141 2.372 . S
Eu1103 O1142 2.462 . S
Eu1103 O1143 2.373 . S
Eu1103 O1145 2.432 . S
Eu1103 O1146 2.291 . S
Eu1103 C1167 2.787 . S
N1104 C1100 1.351 . S
N1104 Eu1103 2.562 . S
N1104 C1106 1.325 . S
C1105 C1099 1.404 . S
C1105 C1107 1.366 . S
C1105 H1113 0.930 . S
C1106 N1104 1.325 . S
C1106 C1107 1.416 . S
C1106 H1112 0.929 . S
C1107 C1105 1.366 . S
C1107 C1106 1.416 . S
C1107 H1109 0.930 . S
H1108 C1097 0.930 . S
H1109 C1107 0.930 . S
H1110 C1125 0.930 . S
H1111 C1132 0.930 . S
H1112 C1106 0.929 . S
H1113 C1105 0.930 . S
H1114 C1128 0.929 . S
H1115 C1095 0.931 . S
H1116 C1101 0.931 . S
H1117 C1102 0.931 . S
H1118 C1123 0.931 . S
H1119 C1098 0.929 . S
H1120 C1131 0.930 . S
N1121 Eu1092 2.600 . S
N1121 C1122 1.365 . S
N1121 C1125 1.319 . S
C1122 N1121 1.365 . S
C1122 C1124 1.405 . S
C1122 C1130 1.448 . S
C1123 H1118 0.931 . S
C1123 C1125 1.397 . S
C1123 C1126 1.367 . S
C1124 C1122 1.405 . S
C1124 C1126 1.403 . S
C1124 C1157 1.439 . S
C1125 H1110 0.930 . S
C1125 N1121 1.319 . S
C1125 C1123 1.397 . S
C1126 C1123 1.367 . S
C1126 C1124 1.403 . S
C1126 H1133 0.929 . S
N1127 Eu1092 2.562 . S
N1127 C1128 1.325 . S
N1127 C1130 1.351 . S
C1128 H1114 0.929 . S
C1128 N1127 1.325 . S
C1128 C1132 1.416 . S
C1129 C1130 1.430 . S
C1129 C1131 1.404 . S
C1129 C1158 1.387 . S
C1130 C1122 1.448 . S
C1130 N1127 1.351 . S
C1130 C1129 1.430 . S
C1131 H1120 0.930 . S
C1131 C1129 1.404 . S
C1131 C1132 1.366 . S
C1132 H1111 0.930 . S
C1132 C1128 1.416 . S
C1132 C1131 1.366 . S
H1133 C1126 0.929 . S
H1134 C1157 0.931 . S
H1135 C1158 0.931 . S
O1136 Eu1092 2.462 . S
O1136 C1156 1.252 . S
O1137 Eu1092 2.373 . S
O1137 C1148 1.249 . S
O1138 Eu1103 2.335 . S
O1138 C1148 1.264 . S
O1139 Eu1092 2.432 . S
O1139 C1156 1.268 . S
O1140 Eu1092 2.291 . S
O1140 C1155 1.255 . S
O1141 Eu1103 2.372 . S
O1141 C1155 1.257 . S
O1142 Eu1103 2.462 . S
O1142 C1167 1.252 . S
O1143 Eu1103 2.373 . S
O1143 C1159 1.249 . S
O1144 Eu1092 2.335 . S
O1144 C1159 1.264 . S
O1145 Eu1103 2.432 . S
O1145 C1167 1.268 . S
O1146 Eu1103 2.291 . S
O1146 C1166 1.255 . S
O1147 Eu1092 2.372 . S
O1147 C1166 1.257 . S
C1148 O1137 1.249 . S
C1148 O1138 1.264 . S
C1149 C1152 1.382 . S
C1149 C1154 1.390 . S
C1149 C1156 1.506 . S
C1150 C1151 1.398 . S
C1150 C1154 1.392 . S
C1151 C1150 1.398 . S
C1151 C1153 1.372 . S
C1151 H1168 0.931 . S
C1152 C1149 1.382 . S
C1152 C1153 1.390 . S
C1152 H1169 0.931 . S
C1153 C1151 1.372 . S
C1153 C1152 1.390 . S
C1153 H1170 0.929 . S
C1154 C1149 1.390 . S
C1154 C1150 1.392 . S
C1154 H1171 0.930 . S
C1155 O1140 1.255 . S
C1155 O1141 1.257 . S
C1156 Eu1092 2.787 . S
C1156 O1136 1.252 . S
C1156 O1139 1.268 . S
C1156 C1149 1.506 . S
C1157 C1124 1.439 . S
C1157 H1134 0.931 . S
C1157 C1158 1.374 . S
C1158 C1129 1.387 . S
C1158 H1135 0.931 . S
C1158 C1157 1.374 . S
C1159 O1143 1.249 . S
C1159 O1144 1.264 . S
C1160 C1163 1.382 . S
C1160 C1164 1.390 . S
C1160 C1167 1.506 . S
C1161 C1162 1.398 . S
C1161 C1164 1.392 . S
C1162 C1161 1.398 . S
C1162 C1165 1.372 . S
C1162 H1172 0.931 . S
C1163 C1160 1.382 . S
C1163 C1165 1.390 . S
C1163 H1173 0.931 . S
C1164 C1160 1.390 . S
C1164 C1161 1.392 . S
C1164 H1174 0.930 . S
C1165 C1162 1.372 . S
C1165 C1163 1.390 . S
C1165 H1175 0.929 . S
C1166 O1146 1.255 . S
C1166 O1147 1.257 . S
C1167 Eu1103 2.787 . S
C1167 O1142 1.252 . S
C1167 O1145 1.268 . S
C1167 C1160 1.506 . S
H1168 C1151 0.931 . S
H1169 C1152 0.931 . S
H1170 C1153 0.929 . S
H1171 C1154 0.930 . S
H1172 C1162 0.931 . S
H1173 C1163 0.931 . S
H1174 C1164 0.930 . S
H1175 C1165 0.929 . S
Eu1176 N1205 2.603 1_455 S
Eu1176 N1211 2.562 1_455 S
Eu1176 O1220 2.462 . S
Eu1176 O1221 2.373 1_455 S
Eu1176 O1223 2.432 . S
Eu1176 O1224 2.291 . S
Eu1176 O1228 2.335 . S
Eu1176 O1231 2.372 . S
Eu1176 C1240 2.787 . S
C1177 N1178 1.365 . S
C1177 C1180 1.405 . S
C1177 C1184 1.448 . S
N1178 C1177 1.365 . S
N1178 C1181 1.319 . S
N1178 Eu1187 2.600 . S
C1179 C1181 1.397 . S
C1179 C1182 1.367 . S
C1179 H1199 0.931 . S
C1180 C1177 1.405 . S
C1180 C1182 1.403 . S
C1180 C1186 1.439 . S
C1181 N1178 1.319 . S
C1181 C1179 1.397 . S
C1181 H1192 0.930 . S
C1182 C1179 1.367 . S
C1182 C1180 1.403 . S
C1182 H1203 0.929 . S
C1183 C1184 1.430 . S
C1183 C1185 1.387 . S
C1183 C1189 1.404 . S
C1184 C1177 1.448 . S
C1184 C1183 1.430 . S
C1184 N1188 1.351 . S
C1185 C1183 1.387 . S
C1185 C1186 1.374 . S
C1185 H1200 0.931 . S
C1186 C1180 1.439 . S
C1186 C1185 1.374 . S
C1186 H1201 0.931 . S
Eu1187 N1178 2.600 . S
Eu1187 N1188 2.562 . S
Eu1187 O1222 2.335 1_455 S
Eu1187 O1225 2.372 . S
Eu1187 O1226 2.462 . S
Eu1187 O1227 2.373 . S
Eu1187 O1229 2.432 . S
Eu1187 O1230 2.291 . S
Eu1187 C1251 2.787 . S
N1188 C1184 1.351 . S
N1188 Eu1187 2.562 . S
N1188 C1190 1.325 . S
C1189 C1183 1.404 . S
C1189 C1191 1.366 . S
C1189 H1197 0.930 . S
C1190 N1188 1.325 . S
C1190 C1191 1.416 . S
C1190 H1196 0.929 . S
C1191 C1189 1.366 . S
C1191 C1190 1.416 . S
C1191 H1193 0.930 . S
H1192 C1181 0.930 . S
H1193 C1191 0.930 . S
H1194 C1209 0.930 . S
H1195 C1216 0.930 . S
H1196 C1190 0.929 . S
H1197 C1189 0.930 . S
H1198 C1212 0.929 1_455 S
H1199 C1179 0.931 . S
H1200 C1185 0.931 . S
H1201 C1186 0.931 . S
H1202 C1207 0.931 . S
H1203 C1182 0.929 . S
H1204 C1215 0.930 . S
N1205 Eu1176 2.603 1_655 S
N1205 C1206 1.363 . S
N1205 C1209 1.318 1_655 S
C1206 N1205 1.363 . S
C1206 C1208 1.405 . S
C1206 C1214 1.448 . S
C1207 H1202 0.931 . S
C1207 C1209 1.397 1_655 S
C1207 C1210 1.367 . S
C1208 C1206 1.405 . S
C1208 C1210 1.403 . S
C1208 C1241 1.439 . S
C1209 H1194 0.930 . S
C1209 N1205 1.318 1_455 S
C1209 C1207 1.397 1_455 S
C1210 C1207 1.367 . S
C1210 C1208 1.403 . S
C1210 H1217 0.929 . S
N1211 Eu1176 2.562 1_655 S
N1211 C1212 1.325 . S
N1211 C1214 1.351 . S
C1212 H1198 0.929 1_655 S
C1212 N1211 1.325 . S
C1212 C1216 1.416 . S
C1213 C1214 1.430 . S
C1213 C1215 1.404 . S
C1213 C1242 1.387 . S
C1214 C1206 1.448 . S
C1214 N1211 1.351 . S
C1214 C1213 1.430 . S
C1215 H1204 0.930 . S
C1215 C1213 1.404 . S
C1215 C1216 1.366 . S
C1216 H1195 0.930 . S
C1216 C1212 1.416 . S
C1216 C1215 1.366 . S
H1217 C1210 0.929 . S
H1218 C1241 0.931 . S
H1219 C1242 0.931 . S
O1220 Eu1176 2.462 . S
O1220 C1240 1.252 . S
O1221 Eu1176 2.373 1_655 S
O1221 C1232 1.249 . S
O1222 Eu1187 2.335 1_655 S
O1222 C1232 1.264 . S
O1223 Eu1176 2.432 . S
O1223 C1240 1.268 . S
O1224 Eu1176 2.291 . S
O1224 C1239 1.255 . S
O1225 Eu1187 2.372 . S
O1225 C1239 1.257 . S
O1226 Eu1187 2.462 . S
O1226 C1251 1.252 . S
O1227 Eu1187 2.373 . S
O1227 C1243 1.249 . S
O1228 Eu1176 2.335 . S
O1228 C1243 1.264 . S
O1229 Eu1187 2.432 . S
O1229 C1251 1.268 . S
O1230 Eu1187 2.291 . S
O1230 C1250 1.255 . S
O1231 Eu1176 2.372 . S
O1231 C1250 1.257 . S
C1232 O1221 1.249 . S
C1232 O1222 1.264 . S
C1233 C1236 1.382 . S
C1233 C1238 1.390 . S
C1233 C1240 1.506 . S
C1234 C1235 1.398 . S
C1234 C1238 1.392 . S
C1235 C1234 1.398 . S
C1235 C1237 1.372 . S
C1235 H1252 0.931 . S
C1236 C1233 1.382 . S
C1236 C1237 1.390 . S
C1236 H1253 0.931 . S
C1237 C1235 1.372 . S
C1237 C1236 1.390 . S
C1237 H1254 0.929 . S
C1238 C1233 1.390 . S
C1238 C1234 1.392 . S
C1238 H1255 0.930 . S
C1239 O1224 1.255 . S
C1239 O1225 1.257 . S
C1240 Eu1176 2.787 . S
C1240 O1220 1.252 . S
C1240 O1223 1.268 . S
C1240 C1233 1.506 . S
C1241 C1208 1.439 . S
C1241 H1218 0.931 . S
C1241 C1242 1.374 . S
C1242 C1213 1.387 . S
C1242 H1219 0.931 . S
C1242 C1241 1.374 . S
C1243 O1227 1.249 . S
C1243 O1228 1.264 . S
C1244 C1247 1.382 . S
C1244 C1248 1.390 . S
C1244 C1251 1.506 1_655 S
C1245 C1246 1.398 . S
C1245 C1248 1.392 . S
C1246 C1245 1.398 . S
C1246 C1249 1.372 . S
C1246 H1256 0.931 . S
C1247 C1244 1.382 . S
C1247 C1249 1.390 . S
C1247 H1257 0.931 . S
C1248 C1244 1.390 . S
C1248 C1245 1.392 . S
C1248 H1258 0.930 . S
C1249 C1246 1.372 . S
C1249 C1247 1.390 . S
C1249 H1259 0.929 . S
C1250 O1230 1.255 . S
C1250 O1231 1.257 . S
C1251 Eu1187 2.787 . S
C1251 O1226 1.252 . S
C1251 O1229 1.268 . S
C1251 C1244 1.506 1_455 S
H1252 C1235 0.931 . S
H1253 C1236 0.931 . S
H1254 C1237 0.929 . S
H1255 C1238 0.930 . S
H1256 C1246 0.931 . S
H1257 C1247 0.931 . S
H1258 C1248 0.930 . S
H1259 C1249 0.929 . S
Eu1260 N1289 2.600 . S
Eu1260 N1295 2.562 . S
Eu1260 O1304 2.462 . S
Eu1260 O1305 2.373 . S
Eu1260 O1307 2.432 . S
Eu1260 O1308 2.291 . S
Eu1260 O1312 2.335 . S
Eu1260 O1315 2.372 . S
Eu1260 C1324 2.787 . S
C1261 N1262 1.365 . S
C1261 C1264 1.405 . S
C1261 C1268 1.448 . S
N1262 C1261 1.365 . S
N1262 C1265 1.319 . S
N1262 Eu1271 2.600 . S
C1263 C1265 1.397 . S
C1263 C1266 1.367 . S
C1263 H1283 0.931 . S
C1264 C1261 1.405 . S
C1264 C1266 1.403 . S
C1264 C1270 1.439 . S
C1265 N1262 1.319 . S
C1265 C1263 1.397 . S
C1265 H1276 0.930 . S
C1266 C1263 1.367 . S
C1266 C1264 1.403 . S
C1266 H1287 0.929 . S
C1267 C1268 1.430 . S
C1267 C1269 1.387 . S
C1267 C1273 1.404 . S
C1268 C1261 1.448 . S
C1268 C1267 1.430 . S
C1268 N1272 1.351 . S
C1269 C1267 1.387 . S
C1269 C1270 1.374 . S
C1269 H1284 0.931 . S
C1270 C1264 1.439 . S
C1270 C1269 1.374 . S
C1270 H1285 0.931 . S
Eu1271 N1262 2.600 . S
Eu1271 N1272 2.562 . S
Eu1271 O1306 2.335 . S
Eu1271 O1309 2.372 . S
Eu1271 O1310 2.462 . S
Eu1271 O1311 2.373 . S
Eu1271 O1313 2.432 . S
Eu1271 O1314 2.291 . S
Eu1271 C1335 2.787 . S
N1272 C1268 1.351 . S
N1272 Eu1271 2.562 . S
N1272 C1274 1.325 . S
C1273 C1267 1.404 . S
C1273 C1275 1.366 . S
C1273 H1281 0.930 . S
C1274 N1272 1.325 . S
C1274 C1275 1.416 . S
C1274 H1280 0.929 . S
C1275 C1273 1.366 . S
C1275 C1274 1.416 . S
C1275 H1277 0.930 . S
H1276 C1265 0.930 . S
H1277 C1275 0.930 . S
H1278 C1293 0.930 . S
H1279 C1300 0.930 . S
H1280 C1274 0.929 . S
H1281 C1273 0.930 . S
H1282 C1296 0.929 . S
H1283 C1263 0.931 . S
H1284 C1269 0.931 . S
H1285 C1270 0.931 . S
H1286 C1291 0.931 . S
H1287 C1266 0.929 . S
H1288 C1299 0.930 . S
N1289 Eu1260 2.600 . S
N1289 C1290 1.365 . S
N1289 C1293 1.319 . S
C1290 N1289 1.365 . S
C1290 C1292 1.405 . S
C1290 C1298 1.448 . S
C1291 H1286 0.931 . S
C1291 C1293 1.397 . S
C1291 C1294 1.367 . S
C1292 C1290 1.405 . S
C1292 C1294 1.403 . S
C1292 C1325 1.439 . S
C1293 H1278 0.930 . S
C1293 N1289 1.319 . S
C1293 C1291 1.397 . S
C1294 C1291 1.367 . S
C1294 C1292 1.403 . S
C1294 H1301 0.929 . S
N1295 Eu1260 2.562 . S
N1295 C1296 1.325 . S
N1295 C1298 1.351 . S
C1296 H1282 0.929 . S
C1296 N1295 1.325 . S
C1296 C1300 1.416 . S
C1297 C1298 1.430 . S
C1297 C1299 1.404 . S
C1297 C1326 1.387 . S
C1298 C1290 1.448 . S
C1298 N1295 1.351 . S
C1298 C1297 1.430 . S
C1299 H1288 0.930 . S
C1299 C1297 1.404 . S
C1299 C1300 1.366 . S
C1300 H1279 0.930 . S
C1300 C1296 1.416 . S
C1300 C1299 1.366 . S
H1301 C1294 0.929 . S
H1302 C1325 0.931 . S
H1303 C1326 0.931 . S
O1304 Eu1260 2.462 . S
O1304 C1324 1.252 . S
O1305 Eu1260 2.373 . S
O1305 C1316 1.249 . S
O1306 Eu1271 2.335 . S
O1306 C1316 1.264 . S
O1307 Eu1260 2.432 . S
O1307 C1324 1.268 . S
O1308 Eu1260 2.291 . S
O1308 C1323 1.255 . S
O1309 Eu1271 2.372 . S
O1309 C1323 1.257 . S
O1310 Eu1271 2.462 . S
O1310 C1335 1.252 . S
O1311 Eu1271 2.373 . S
O1311 C1327 1.249 . S
O1312 Eu1260 2.335 . S
O1312 C1327 1.264 . S
O1313 Eu1271 2.432 . S
O1313 C1335 1.268 . S
O1314 Eu1271 2.291 . S
O1314 C1334 1.255 . S
O1315 Eu1260 2.372 . S
O1315 C1334 1.257 . S
C1316 O1305 1.249 . S
C1316 O1306 1.264 . S
C1317 C1320 1.382 . S
C1317 C1322 1.390 . S
C1317 C1324 1.506 . S
C1318 C1319 1.398 . S
C1318 C1322 1.392 . S
C1319 C1318 1.398 . S
C1319 C1321 1.372 . S
C1319 H1336 0.931 . S
C1320 C1317 1.382 . S
C1320 C1321 1.390 . S
C1320 H1337 0.931 . S
C1321 C1319 1.372 . S
C1321 C1320 1.390 . S
C1321 H1338 0.929 . S
C1322 C1317 1.390 . S
C1322 C1318 1.392 . S
C1322 H1339 0.930 . S
C1323 O1308 1.255 . S
C1323 O1309 1.257 . S
C1324 Eu1260 2.787 . S
C1324 O1304 1.252 . S
C1324 O1307 1.268 . S
C1324 C1317 1.506 . S
C1325 C1292 1.439 . S
C1325 H1302 0.931 . S
C1325 C1326 1.374 . S
C1326 C1297 1.387 . S
C1326 H1303 0.931 . S
C1326 C1325 1.374 . S
C1327 O1311 1.249 . S
C1327 O1312 1.264 . S
C1328 C1331 1.382 . S
C1328 C1332 1.390 . S
C1328 C1335 1.506 . S
C1329 C1330 1.398 . S
C1329 C1332 1.392 . S
C1330 C1329 1.398 . S
C1330 C1333 1.372 . S
C1330 H1340 0.931 . S
C1331 C1328 1.382 . S
C1331 C1333 1.390 . S
C1331 H1341 0.931 . S
C1332 C1328 1.390 . S
C1332 C1329 1.392 . S
C1332 H1342 0.930 . S
C1333 C1330 1.372 . S
C1333 C1331 1.390 . S
C1333 H1343 0.929 . S
C1334 O1314 1.255 . S
C1334 O1315 1.257 . S
C1335 Eu1271 2.787 . S
C1335 O1310 1.252 . S
C1335 O1313 1.268 . S
C1335 C1328 1.506 . S
H1336 C1319 0.931 . S
H1337 C1320 0.931 . S
H1338 C1321 0.929 . S
H1339 C1322 0.930 . S
H1340 C1330 0.931 . S
H1341 C1331 0.931 . S
H1342 C1332 0.930 . S
H1343 C1333 0.929 . S
Eu1344 N1373 2.600 . S
Eu1344 N1379 2.562 . S
Eu1344 O1388 2.462 . S
Eu1344 O1389 2.373 . S
Eu1344 O1391 2.432 . S
Eu1344 O1392 2.291 . S
Eu1344 O1396 2.335 . S
Eu1344 O1399 2.372 . S
Eu1344 C1408 2.787 . S
C1345 N1346 1.365 . S
C1345 C1348 1.405 . S
C1345 C1352 1.448 . S
N1346 C1345 1.365 . S
N1346 C1349 1.319 . S
N1346 Eu1355 2.600 . S
C1347 C1349 1.397 . S
C1347 C1350 1.367 . S
C1347 H1367 0.931 . S
C1348 C1345 1.405 . S
C1348 C1350 1.403 . S
C1348 C1354 1.439 . S
C1349 N1346 1.319 . S
C1349 C1347 1.397 . S
C1349 H1360 0.930 . S
C1350 C1347 1.367 . S
C1350 C1348 1.403 . S
C1350 H1371 0.929 . S
C1351 C1352 1.430 . S
C1351 C1353 1.387 . S
C1351 C1357 1.404 . S
C1352 C1345 1.448 . S
C1352 C1351 1.430 . S
C1352 N1356 1.351 . S
C1353 C1351 1.387 . S
C1353 C1354 1.374 . S
C1353 H1368 0.931 . S
C1354 C1348 1.439 . S
C1354 C1353 1.374 . S
C1354 H1369 0.931 . S
Eu1355 N1346 2.600 . S
Eu1355 N1356 2.562 . S
Eu1355 O1390 2.335 . S
Eu1355 O1393 2.372 . S
Eu1355 O1394 2.462 . S
Eu1355 O1395 2.373 . S
Eu1355 O1397 2.432 . S
Eu1355 O1398 2.291 . S
Eu1355 C1419 2.787 . S
N1356 C1352 1.351 . S
N1356 Eu1355 2.562 . S
N1356 C1358 1.325 . S
C1357 C1351 1.404 . S
C1357 C1359 1.366 . S
C1357 H1365 0.930 . S
C1358 N1356 1.325 . S
C1358 C1359 1.416 . S
C1358 H1364 0.929 . S
C1359 C1357 1.366 . S
C1359 C1358 1.416 . S
C1359 H1361 0.930 . S
H1360 C1349 0.930 . S
H1361 C1359 0.930 . S
H1362 C1377 0.930 . S
H1363 C1384 0.930 . S
H1364 C1358 0.929 . S
H1365 C1357 0.930 . S
H1366 C1380 0.929 . S
H1367 C1347 0.931 . S
H1368 C1353 0.931 . S
H1369 C1354 0.931 . S
H1370 C1375 0.931 . S
H1371 C1350 0.929 . S
H1372 C1383 0.930 . S
N1373 Eu1344 2.600 . S
N1373 C1374 1.365 . S
N1373 C1377 1.319 . S
C1374 N1373 1.365 . S
C1374 C1376 1.405 . S
C1374 C1382 1.448 . S
C1375 H1370 0.931 . S
C1375 C1377 1.397 . S
C1375 C1378 1.367 . S
C1376 C1374 1.405 . S
C1376 C1378 1.403 . S
C1376 C1409 1.439 . S
C1377 H1362 0.930 . S
C1377 N1373 1.319 . S
C1377 C1375 1.397 . S
C1378 C1375 1.367 . S
C1378 C1376 1.403 . S
C1378 H1385 0.929 . S
N1379 Eu1344 2.562 . S
N1379 C1380 1.325 . S
N1379 C1382 1.351 . S
C1380 H1366 0.929 . S
C1380 N1379 1.325 . S
C1380 C1384 1.416 . S
C1381 C1382 1.430 . S
C1381 C1383 1.404 . S
C1381 C1410 1.387 . S
C1382 C1374 1.448 . S
C1382 N1379 1.351 . S
C1382 C1381 1.430 . S
C1383 H1372 0.930 . S
C1383 C1381 1.404 . S
C1383 C1384 1.366 . S
C1384 H1363 0.930 . S
C1384 C1380 1.416 . S
C1384 C1383 1.366 . S
H1385 C1378 0.929 . S
H1386 C1409 0.931 . S
H1387 C1410 0.931 . S
O1388 Eu1344 2.462 . S
O1388 C1408 1.252 . S
O1389 Eu1344 2.373 . S
O1389 C1400 1.249 . S
O1390 Eu1355 2.335 . S
O1390 C1400 1.264 . S
O1391 Eu1344 2.432 . S
O1391 C1408 1.268 . S
O1392 Eu1344 2.291 . S
O1392 C1407 1.255 . S
O1393 Eu1355 2.372 . S
O1393 C1407 1.257 . S
O1394 Eu1355 2.462 . S
O1394 C1419 1.252 . S
O1395 Eu1355 2.373 . S
O1395 C1411 1.249 . S
O1396 Eu1344 2.335 . S
O1396 C1411 1.264 . S
O1397 Eu1355 2.432 . S
O1397 C1419 1.268 . S
O1398 Eu1355 2.291 . S
O1398 C1418 1.255 . S
O1399 Eu1344 2.372 . S
O1399 C1418 1.257 . S
C1400 O1389 1.249 . S
C1400 O1390 1.264 . S
C1401 C1404 1.382 . S
C1401 C1406 1.390 . S
C1401 C1408 1.506 . S
C1402 C1403 1.398 . S
C1402 C1406 1.392 . S
C1403 C1402 1.398 . S
C1403 C1405 1.372 . S
C1403 H1420 0.931 . S
C1404 C1401 1.382 . S
C1404 C1405 1.390 . S
C1404 H1421 0.931 . S
C1405 C1403 1.372 . S
C1405 C1404 1.390 . S
C1405 H1422 0.929 . S
C1406 C1401 1.390 . S
C1406 C1402 1.392 . S
C1406 H1423 0.930 . S
C1407 O1392 1.255 . S
C1407 O1393 1.257 . S
C1408 Eu1344 2.787 . S
C1408 O1388 1.252 . S
C1408 O1391 1.268 . S
C1408 C1401 1.506 . S
C1409 C1376 1.439 . S
C1409 H1386 0.931 . S
C1409 C1410 1.374 . S
C1410 C1381 1.387 . S
C1410 H1387 0.931 . S
C1410 C1409 1.374 . S
C1411 O1395 1.249 . S
C1411 O1396 1.264 . S
C1412 C1415 1.382 . S
C1412 C1416 1.390 . S
C1412 C1419 1.506 . S
C1413 C1414 1.398 . S
C1413 C1416 1.392 . S
C1414 C1413 1.398 . S
C1414 C1417 1.372 . S
C1414 H1424 0.931 . S
C1415 C1412 1.382 . S
C1415 C1417 1.390 . S
C1415 H1425 0.931 . S
C1416 C1412 1.390 . S
C1416 C1413 1.392 . S
C1416 H1426 0.930 . S
C1417 C1414 1.372 . S
C1417 C1415 1.390 . S
C1417 H1427 0.929 . S
C1418 O1398 1.255 . S
C1418 O1399 1.257 . S
C1419 Eu1355 2.787 . S
C1419 O1394 1.252 . S
C1419 O1397 1.268 . S
C1419 C1412 1.506 . S
H1420 C1403 0.931 . S
H1421 C1404 0.931 . S
H1422 C1405 0.929 . S
H1423 C1406 0.930 . S
H1424 C1414 0.931 . S
H1425 C1415 0.931 . S
H1426 C1416 0.930 . S
H1427 C1417 0.929 . S
Eu1428 N1457 2.600 . S
Eu1428 N1463 2.562 . S
Eu1428 O1472 2.462 . S
Eu1428 O1473 2.373 . S
Eu1428 O1475 2.432 . S
Eu1428 O1476 2.291 . S
Eu1428 O1480 2.335 . S
Eu1428 O1483 2.372 . S
Eu1428 C1492 2.787 . S
C1429 N1430 1.365 . S
C1429 C1432 1.405 . S
C1429 C1436 1.448 . S
N1430 C1429 1.365 . S
N1430 C1433 1.319 . S
N1430 Eu1439 2.600 . S
C1431 C1433 1.397 . S
C1431 C1434 1.367 . S
C1431 H1451 0.931 . S
C1432 C1429 1.405 . S
C1432 C1434 1.403 . S
C1432 C1438 1.439 . S
C1433 N1430 1.319 . S
C1433 C1431 1.397 . S
C1433 H1444 0.930 . S
C1434 C1431 1.367 . S
C1434 C1432 1.403 . S
C1434 H1455 0.929 . S
C1435 C1436 1.430 . S
C1435 C1437 1.387 . S
C1435 C1441 1.404 . S
C1436 C1429 1.448 . S
C1436 C1435 1.430 . S
C1436 N1440 1.351 . S
C1437 C1435 1.387 . S
C1437 C1438 1.374 . S
C1437 H1452 0.931 . S
C1438 C1432 1.439 . S
C1438 C1437 1.374 . S
C1438 H1453 0.931 . S
Eu1439 N1430 2.600 . S
Eu1439 N1440 2.562 . S
Eu1439 O1474 2.335 . S
Eu1439 O1477 2.372 . S
Eu1439 O1478 2.462 . S
Eu1439 O1479 2.373 . S
Eu1439 O1481 2.432 . S
Eu1439 O1482 2.291 . S
Eu1439 C1503 2.787 . S
N1440 C1436 1.351 . S
N1440 Eu1439 2.562 . S
N1440 C1442 1.325 . S
C1441 C1435 1.404 . S
C1441 C1443 1.366 . S
C1441 H1449 0.930 . S
C1442 N1440 1.325 . S
C1442 C1443 1.416 . S
C1442 H1448 0.929 . S
C1443 C1441 1.366 . S
C1443 C1442 1.416 . S
C1443 H1445 0.930 . S
H1444 C1433 0.930 . S
H1445 C1443 0.930 . S
H1446 C1461 0.930 . S
H1447 C1468 0.930 . S
H1448 C1442 0.929 . S
H1449 C1441 0.930 . S
H1450 C1464 0.929 . S
H1451 C1431 0.931 . S
H1452 C1437 0.931 . S
H1453 C1438 0.931 . S
H1454 C1459 0.931 . S
H1455 C1434 0.929 . S
H1456 C1467 0.930 . S
N1457 Eu1428 2.600 . S
N1457 C1458 1.365 . S
N1457 C1461 1.319 . S
C1458 N1457 1.365 . S
C1458 C1460 1.405 . S
C1458 C1466 1.448 . S
C1459 H1454 0.931 . S
C1459 C1461 1.397 . S
C1459 C1462 1.367 . S
C1460 C1458 1.405 . S
C1460 C1462 1.403 . S
C1460 C1493 1.439 . S
C1461 H1446 0.930 . S
C1461 N1457 1.319 . S
C1461 C1459 1.397 . S
C1462 C1459 1.367 . S
C1462 C1460 1.403 . S
C1462 H1469 0.929 . S
N1463 Eu1428 2.562 . S
N1463 C1464 1.325 . S
N1463 C1466 1.351 . S
C1464 H1450 0.929 . S
C1464 N1463 1.325 . S
C1464 C1468 1.416 . S
C1465 C1466 1.430 . S
C1465 C1467 1.404 . S
C1465 C1494 1.387 . S
C1466 C1458 1.448 . S
C1466 N1463 1.351 . S
C1466 C1465 1.430 . S
C1467 H1456 0.930 . S
C1467 C1465 1.404 . S
C1467 C1468 1.366 . S
C1468 H1447 0.930 . S
C1468 C1464 1.416 . S
C1468 C1467 1.366 . S
H1469 C1462 0.929 . S
H1470 C1493 0.931 . S
H1471 C1494 0.931 . S
O1472 Eu1428 2.462 . S
O1472 C1492 1.252 . S
O1473 Eu1428 2.373 . S
O1473 C1484 1.249 . S
O1474 Eu1439 2.335 . S
O1474 C1484 1.264 . S
O1475 Eu1428 2.432 . S
O1475 C1492 1.268 . S
O1476 Eu1428 2.291 . S
O1476 C1491 1.255 . S
O1477 Eu1439 2.372 . S
O1477 C1491 1.257 . S
O1478 Eu1439 2.462 . S
O1478 C1503 1.252 . S
O1479 Eu1439 2.373 . S
O1479 C1495 1.249 . S
O1480 Eu1428 2.335 . S
O1480 C1495 1.264 . S
O1481 Eu1439 2.432 . S
O1481 C1503 1.268 . S
O1482 Eu1439 2.291 . S
O1482 C1502 1.255 . S
O1483 Eu1428 2.372 . S
O1483 C1502 1.257 . S
C1484 O1473 1.249 . S
C1484 O1474 1.264 . S
C1485 C1488 1.382 . S
C1485 C1490 1.390 . S
C1485 C1492 1.506 . S
C1486 C1487 1.398 . S
C1486 C1490 1.392 . S
C1487 C1486 1.398 . S
C1487 C1489 1.372 . S
C1487 H1504 0.931 . S
C1488 C1485 1.382 . S
C1488 C1489 1.390 . S
C1488 H1505 0.931 . S
C1489 C1487 1.372 . S
C1489 C1488 1.390 . S
C1489 H1506 0.929 . S
C1490 C1485 1.390 . S
C1490 C1486 1.392 . S
C1490 H1507 0.930 . S
C1491 O1476 1.255 . S
C1491 O1477 1.257 . S
C1492 Eu1428 2.787 . S
C1492 O1472 1.252 . S
C1492 O1475 1.268 . S
C1492 C1485 1.506 . S
C1493 C1460 1.439 . S
C1493 H1470 0.931 . S
C1493 C1494 1.374 . S
C1494 C1465 1.387 . S
C1494 H1471 0.931 . S
C1494 C1493 1.374 . S
C1495 O1479 1.249 . S
C1495 O1480 1.264 . S
C1496 C1499 1.382 . S
C1496 C1500 1.390 . S
C1496 C1503 1.506 . S
C1497 C1498 1.398 . S
C1497 C1500 1.392 . S
C1498 C1497 1.398 . S
C1498 C1501 1.372 . S
C1498 H1508 0.931 . S
C1499 C1496 1.382 . S
C1499 C1501 1.390 . S
C1499 H1509 0.931 . S
C1500 C1496 1.390 . S
C1500 C1497 1.392 . S
C1500 H1510 0.930 . S
C1501 C1498 1.372 . S
C1501 C1499 1.390 . S
C1501 H1511 0.929 . S
C1502 O1482 1.255 . S
C1502 O1483 1.257 . S
C1503 Eu1439 2.787 . S
C1503 O1478 1.252 . S
C1503 O1481 1.268 . S
C1503 C1496 1.506 . S
H1504 C1487 0.931 . S
H1505 C1488 0.931 . S
H1506 C1489 0.929 . S
H1507 C1490 0.930 . S
H1508 C1498 0.931 . S
H1509 C1499 0.931 . S
H1510 C1500 0.930 . S
H1511 C1501 0.929 . S
Eu1512 N1541 2.600 . S
Eu1512 N1547 2.562 . S
Eu1512 O1556 2.462 . S
Eu1512 O1557 2.373 . S
Eu1512 O1559 2.432 . S
Eu1512 O1560 2.291 . S
Eu1512 O1564 2.335 . S
Eu1512 O1567 2.372 . S
Eu1512 C1576 2.787 . S
C1513 N1514 1.365 . S
C1513 C1516 1.405 . S
C1513 C1520 1.448 . S
N1514 C1513 1.365 . S
N1514 C1517 1.319 . S
N1514 Eu1523 2.600 . S
C1515 C1517 1.397 . S
C1515 C1518 1.367 . S
C1515 H1535 0.931 . S
C1516 C1513 1.405 . S
C1516 C1518 1.403 . S
C1516 C1522 1.439 . S
C1517 N1514 1.319 . S
C1517 C1515 1.397 . S
C1517 H1528 0.930 . S
C1518 C1515 1.367 . S
C1518 C1516 1.403 . S
C1518 H1539 0.929 . S
C1519 C1520 1.430 . S
C1519 C1521 1.387 . S
C1519 C1525 1.404 . S
C1520 C1513 1.448 . S
C1520 C1519 1.430 . S
C1520 N1524 1.351 . S
C1521 C1519 1.387 . S
C1521 C1522 1.374 . S
C1521 H1536 0.931 . S
C1522 C1516 1.439 . S
C1522 C1521 1.374 . S
C1522 H1537 0.931 . S
Eu1523 N1514 2.600 . S
Eu1523 N1524 2.562 . S
Eu1523 O1558 2.335 . S
Eu1523 O1561 2.372 . S
Eu1523 O1562 2.462 . S
Eu1523 O1563 2.373 . S
Eu1523 O1565 2.432 . S
Eu1523 O1566 2.291 . S
Eu1523 C1587 2.787 . S
N1524 C1520 1.351 . S
N1524 Eu1523 2.562 . S
N1524 C1526 1.325 . S
C1525 C1519 1.404 . S
C1525 C1527 1.366 . S
C1525 H1533 0.930 . S
C1526 N1524 1.325 . S
C1526 C1527 1.416 . S
C1526 H1532 0.929 . S
C1527 C1525 1.366 . S
C1527 C1526 1.416 . S
C1527 H1529 0.930 . S
H1528 C1517 0.930 . S
H1529 C1527 0.930 . S
H1530 C1545 0.930 . S
H1531 C1552 0.930 . S
H1532 C1526 0.929 . S
H1533 C1525 0.930 . S
H1534 C1548 0.929 . S
H1535 C1515 0.931 . S
H1536 C1521 0.931 . S
H1537 C1522 0.931 . S
H1538 C1543 0.931 . S
H1539 C1518 0.929 . S
H1540 C1551 0.930 . S
N1541 Eu1512 2.600 . S
N1541 C1542 1.365 . S
N1541 C1545 1.319 . S
C1542 N1541 1.365 . S
C1542 C1544 1.405 . S
C1542 C1550 1.448 . S
C1543 H1538 0.931 . S
C1543 C1545 1.397 . S
C1543 C1546 1.367 . S
C1544 C1542 1.405 . S
C1544 C1546 1.403 . S
C1544 C1577 1.439 . S
C1545 H1530 0.930 . S
C1545 N1541 1.319 . S
C1545 C1543 1.397 . S
C1546 C1543 1.367 . S
C1546 C1544 1.403 . S
C1546 H1553 0.929 . S
N1547 Eu1512 2.562 . S
N1547 C1548 1.325 . S
N1547 C1550 1.351 . S
C1548 H1534 0.929 . S
C1548 N1547 1.325 . S
C1548 C1552 1.416 . S
C1549 C1550 1.430 . S
C1549 C1551 1.404 . S
C1549 C1578 1.387 . S
C1550 C1542 1.448 . S
C1550 N1547 1.351 . S
C1550 C1549 1.430 . S
C1551 H1540 0.930 . S
C1551 C1549 1.404 . S
C1551 C1552 1.366 . S
C1552 H1531 0.930 . S
C1552 C1548 1.416 . S
C1552 C1551 1.366 . S
H1553 C1546 0.929 . S
H1554 C1577 0.931 . S
H1555 C1578 0.931 . S
O1556 Eu1512 2.462 . S
O1556 C1576 1.252 . S
O1557 Eu1512 2.373 . S
O1557 C1568 1.249 . S
O1558 Eu1523 2.335 . S
O1558 C1568 1.264 . S
O1559 Eu1512 2.432 . S
O1559 C1576 1.268 . S
O1560 Eu1512 2.291 . S
O1560 C1575 1.255 . S
O1561 Eu1523 2.372 . S
O1561 C1575 1.257 . S
O1562 Eu1523 2.462 . S
O1562 C1587 1.252 . S
O1563 Eu1523 2.373 . S
O1563 C1579 1.249 . S
O1564 Eu1512 2.335 . S
O1564 C1579 1.264 . S
O1565 Eu1523 2.432 . S
O1565 C1587 1.268 . S
O1566 Eu1523 2.291 . S
O1566 C1586 1.255 . S
O1567 Eu1512 2.372 . S
O1567 C1586 1.257 . S
C1568 O1557 1.249 . S
C1568 O1558 1.264 . S
C1569 C1572 1.382 . S
C1569 C1574 1.390 . S
C1569 C1576 1.506 . S
C1570 C1571 1.398 . S
C1570 C1574 1.392 . S
C1571 C1570 1.398 . S
C1571 C1573 1.372 . S
C1571 H1588 0.931 . S
C1572 C1569 1.382 . S
C1572 C1573 1.390 . S
C1572 H1589 0.931 . S
C1573 C1571 1.372 . S
C1573 C1572 1.390 . S
C1573 H1590 0.929 . S
C1574 C1569 1.390 . S
C1574 C1570 1.392 . S
C1574 H1591 0.930 . S
C1575 O1560 1.255 . S
C1575 O1561 1.257 . S
C1576 Eu1512 2.787 . S
C1576 O1556 1.252 . S
C1576 O1559 1.268 . S
C1576 C1569 1.506 . S
C1577 C1544 1.439 . S
C1577 H1554 0.931 . S
C1577 C1578 1.374 . S
C1578 C1549 1.387 . S
C1578 H1555 0.931 . S
C1578 C1577 1.374 . S
C1579 O1563 1.249 . S
C1579 O1564 1.264 . S
C1580 C1583 1.382 . S
C1580 C1584 1.390 . S
C1580 C1587 1.506 . S
C1581 C1582 1.398 . S
C1581 C1584 1.392 . S
C1582 C1581 1.398 . S
C1582 C1585 1.372 . S
C1582 H1592 0.931 . S
C1583 C1580 1.382 . S
C1583 C1585 1.390 . S
C1583 H1593 0.931 . S
C1584 C1580 1.390 . S
C1584 C1581 1.392 . S
C1584 H1594 0.930 . S
C1585 C1582 1.372 . S
C1585 C1583 1.390 . S
C1585 H1595 0.929 . S
C1586 O1566 1.255 . S
C1586 O1567 1.257 . S
C1587 Eu1523 2.787 . S
C1587 O1562 1.252 . S
C1587 O1565 1.268 . S
C1587 C1580 1.506 . S
H1588 C1571 0.931 . S
H1589 C1572 0.931 . S
H1590 C1573 0.929 . S
H1591 C1574 0.930 . S
H1592 C1582 0.931 . S
H1593 C1583 0.931 . S
H1594 C1584 0.930 . S
H1595 C1585 0.929 . S
Eu1596 N1625 2.600 1_455 S
Eu1596 N1631 2.562 1_455 S
Eu1596 O1640 2.462 1_455 S
Eu1596 O1641 2.373 . S
Eu1596 O1643 2.432 1_455 S
Eu1596 O1644 2.286 . S
Eu1596 O1648 2.335 . S
Eu1596 O1651 2.372 . S
Eu1596 C1660 2.787 1_455 S
C1597 N1598 1.365 . S
C1597 C1600 1.405 . S
C1597 C1604 1.448 1_556 S
N1598 C1597 1.365 . S
N1598 C1601 1.319 . S
N1598 Eu1607 2.600 1_556 S
C1599 C1601 1.397 . S
C1599 C1602 1.367 . S
C1599 H1619 0.931 . S
C1600 C1597 1.405 . S
C1600 C1602 1.403 . S
C1600 C1606 1.439 . S
C1601 N1598 1.319 . S
C1601 C1599 1.397 . S
C1601 H1612 0.930 . S
C1602 C1599 1.367 . S
C1602 C1600 1.403 . S
C1602 H1623 0.929 . S
C1603 C1604 1.430 . S
C1603 C1605 1.387 1_554 S
C1603 C1609 1.404 . S
C1604 C1597 1.448 1_554 S
C1604 C1603 1.430 . S
C1604 N1608 1.351 . S
C1605 C1603 1.387 1_556 S
C1605 C1606 1.374 . S
C1605 H1620 0.931 1_556 S
C1606 C1600 1.439 . S
C1606 C1605 1.374 . S
C1606 H1621 0.931 . S
Eu1607 N1598 2.600 1_554 S
Eu1607 N1608 2.562 . S
Eu1607 O1642 2.335 . S
Eu1607 O1645 2.372 1_554 S
Eu1607 O1646 2.462 . S
Eu1607 O1647 2.373 . S
Eu1607 O1649 2.432 1_554 S
Eu1607 O1650 2.291 . S
Eu1607 C1671 2.787 . S
N1608 C1604 1.351 . S
N1608 Eu1607 2.562 . S
N1608 C1610 1.325 . S
C1609 C1603 1.404 . S
C1609 C1611 1.366 . S
C1609 H1617 0.930 . S
C1610 N1608 1.325 . S
C1610 C1611 1.416 . S
C1610 H1616 0.929 . S
C1611 C1609 1.366 . S
C1611 C1610 1.416 . S
C1611 H1613 0.930 . S
H1612 C1601 0.930 . S
H1613 C1611 0.930 . S
H1614 C1629 0.930 . S
H1615 C1636 0.930 1_556 S
H1616 C1610 0.929 . S
H1617 C1609 0.930 . S
H1618 C1632 0.929 . S
H1619 C1599 0.931 . S
H1620 C1605 0.931 1_554 S
H1621 C1606 0.931 . S
H1622 C1627 0.926 1_455 S
H1623 C1602 0.929 . S
H1624 C1635 0.930 . S
N1625 Eu1596 2.600 1_655 S
N1625 C1626 1.365 . S
N1625 C1629 1.319 1_655 S
C1626 N1625 1.365 . S
C1626 C1628 1.405 . S
C1626 C1634 1.448 . S
C1627 H1622 0.926 1_655 S
C1627 C1629 1.396 1_655 S
C1627 C1630 1.373 . S
C1628 C1626 1.405 . S
C1628 C1630 1.403 . S
C1628 C1661 1.439 . S
C1629 H1614 0.930 . S
C1629 N1625 1.319 1_455 S
C1629 C1627 1.396 1_455 S
C1630 C1627 1.373 . S
C1630 C1628 1.403 . S
C1630 H1637 0.929 . S
N1631 Eu1596 2.562 1_655 S
N1631 C1632 1.325 . S
N1631 C1634 1.351 . S
C1632 H1618 0.929 . S
C1632 N1631 1.325 . S
C1632 C1636 1.416 . S
C1633 C1634 1.430 . S
C1633 C1635 1.404 . S
C1633 C1662 1.387 . S
C1634 C1626 1.448 . S
C1634 N1631 1.351 . S
C1634 C1633 1.430 . S
C1635 H1624 0.930 . S
C1635 C1633 1.404 . S
C1635 C1636 1.366 . S
C1636 H1615 0.930 1_554 S
C1636 C1632 1.416 . S
C1636 C1635 1.366 . S
H1637 C1630 0.929 . S
H1638 C1661 0.931 . S
H1639 C1662 0.931 . S
O1640 Eu1596 2.462 1_655 S
O1640 C1660 1.252 . S
O1641 Eu1596 2.373 . S
O1641 C1652 1.249 . S
O1642 Eu1607 2.335 . S
O1642 C1652 1.264 . S
O1643 Eu1596 2.432 1_655 S
O1643 C1660 1.268 . S
O1644 Eu1596 2.286 . S
O1644 C1659 1.270 1_554 S
O1645 Eu1607 2.372 1_556 S
O1645 C1659 1.257 . S
O1646 Eu1607 2.462 . S
O1646 C1671 1.252 . S
O1647 Eu1607 2.373 . S
O1647 C1663 1.249 . S
O1648 Eu1596 2.335 . S
O1648 C1663 1.264 . S
O1649 Eu1607 2.432 1_556 S
O1649 C1671 1.268 1_556 S
O1650 Eu1607 2.291 . S
O1650 C1670 1.255 . S
O1651 Eu1596 2.372 . S
O1651 C1670 1.257 . S
C1652 O1641 1.249 . S
C1652 O1642 1.264 . S
C1653 C1656 1.382 . S
C1653 C1658 1.390 . S
C1653 C1660 1.506 . S
C1654 C1655 1.398 . S
C1654 C1658 1.392 . S
C1655 C1654 1.398 . S
C1655 C1657 1.372 . S
C1655 H1672 0.931 . S
C1656 C1653 1.382 . S
C1656 C1657 1.390 . S
C1656 H1673 0.931 . S
C1657 C1655 1.372 . S
C1657 C1656 1.390 . S
C1657 H1674 0.929 . S
C1658 C1653 1.390 . S
C1658 C1654 1.392 . S
C1658 H1675 0.930 . S
C1659 O1644 1.270 1_556 S
C1659 O1645 1.257 . S
C1660 Eu1596 2.787 1_655 S
C1660 O1640 1.252 . S
C1660 O1643 1.268 . S
C1660 C1653 1.506 . S
C1661 C1628 1.439 . S
C1661 H1638 0.931 . S
C1661 C1662 1.374 . S
C1662 C1633 1.387 . S
C1662 H1639 0.931 . S
C1662 C1661 1.374 . S
C1663 O1647 1.249 . S
C1663 O1648 1.264 . S
C1664 C1667 1.375 1_554 S
C1664 C1668 1.396 . S
C1664 C1671 1.508 . S
C1665 C1666 1.398 1_554 S
C1665 C1668 1.392 . S
C1666 C1665 1.398 1_556 S
C1666 C1669 1.372 . S
C1666 H1676 0.931 . S
C1667 C1664 1.375 1_556 S
C1667 C1669 1.390 . S
C1667 H1677 0.931 . S
C1668 C1664 1.396 . S
C1668 C1665 1.392 . S
C1668 H1678 0.930 . S
C1669 C1666 1.372 . S
C1669 C1667 1.390 . S
C1669 H1679 0.929 . S
C1670 O1650 1.255 . S
C1670 O1651 1.257 . S
C1671 Eu1607 2.787 . S
C1671 O1646 1.252 . S
C1671 O1649 1.268 1_554 S
C1671 C1664 1.508 . S
H1672 C1655 0.931 . S
H1673 C1656 0.931 . S
H1674 C1657 0.929 . S
H1675 C1658 0.930 . S
H1676 C1666 0.931 . S
H1677 C1667 0.931 . S
H1678 C1668 0.930 . S
H1679 C1669 0.929 . S
C1680 C1681 1.369 1_556 S
C1680 C1682 1.419 . S
C1680 H1684 0.930 . S
C1681 C1680 1.369 1_554 S
C1681 C1690 1.429 . S
C1682 C1680 1.419 . S
C1682 C1683 1.363 1_556 S
C1682 H1685 0.929 . S
C1683 C1682 1.363 1_554 S
C1683 C1689 1.428 . S
H1684 C1680 0.930 . S
H1685 C1682 0.929 . S
S1686 N1687 1.613 . S
S1686 N1688 1.610 . S
N1687 S1686 1.613 . S
N1687 C1690 1.350 . S
N1688 S1686 1.610 . S
N1688 C1689 1.351 . S
C1689 C1683 1.428 . S
C1689 N1688 1.351 . S
C1689 C1690 1.434 . S
C1690 C1681 1.429 . S
C1690 N1687 1.350 . S
C1690 C1689 1.434 . S
C1691 C1692 1.369 . S
C1691 C1693 1.419 . S
C1691 H1695 0.930 . S
C1692 C1691 1.369 . S
C1692 C1701 1.429 . S
C1693 C1691 1.419 . S
C1693 C1694 1.363 . S
C1693 H1696 0.929 . S
C1694 C1693 1.363 . S
C1694 C1700 1.428 . S
H1695 C1691 0.930 . S
H1696 C1693 0.929 . S
S1697 N1698 1.613 . S
S1697 N1699 1.610 . S
N1698 S1697 1.613 . S
N1698 C1701 1.350 . S
N1699 S1697 1.610 . S
N1699 C1700 1.351 . S
C1700 C1694 1.428 . S
C1700 N1699 1.351 . S
C1700 C1701 1.434 . S
C1701 C1692 1.429 . S
C1701 N1698 1.350 . S
C1701 C1700 1.434 . S
C1702 C1703 1.369 . S
C1702 C1704 1.419 . S
C1702 H1706 0.930 . S
C1703 C1702 1.369 . S
C1703 C1712 1.429 . S
C1704 C1702 1.419 . S
C1704 C1705 1.363 . S
C1704 H1707 0.929 . S
C1705 C1704 1.363 . S
C1705 C1711 1.428 . S
H1706 C1702 0.930 . S
H1707 C1704 0.929 . S
S1708 N1709 1.613 . S
S1708 N1710 1.610 . S
N1709 S1708 1.613 . S
N1709 C1712 1.350 . S
N1710 S1708 1.610 . S
N1710 C1711 1.351 . S
C1711 C1705 1.428 . S
C1711 N1710 1.351 . S
C1711 C1712 1.434 . S
C1712 C1703 1.429 . S
C1712 N1709 1.350 . S
C1712 C1711 1.434 . S
C1713 C1714 1.369 . S
C1713 C1715 1.419 . S
C1713 H1717 0.930 . S
C1714 C1713 1.369 . S
C1714 C1723 1.429 . S
C1715 C1713 1.419 . S
C1715 C1716 1.363 . S
C1715 H1718 0.929 . S
C1716 C1715 1.363 . S
C1716 C1722 1.428 . S
H1717 C1713 0.930 . S
H1718 C1715 0.929 . S
S1719 N1720 1.613 . S
S1719 N1721 1.610 . S
N1720 S1719 1.613 . S
N1720 C1723 1.350 . S
N1721 S1719 1.610 . S
N1721 C1722 1.351 . S
C1722 C1716 1.428 . S
C1722 N1721 1.351 . S
C1722 C1723 1.434 . S
C1723 C1714 1.429 . S
C1723 N1720 1.350 . S
C1723 C1722 1.434 . S
C1724 C1725 1.369 . S
C1724 C1726 1.419 . S
C1724 H1728 0.930 . S
C1725 C1724 1.369 . S
C1725 C1734 1.429 . S
C1726 C1724 1.419 . S
C1726 C1727 1.363 . S
C1726 H1729 0.929 . S
C1727 C1726 1.363 . S
C1727 C1733 1.428 . S
H1728 C1724 0.930 . S
H1729 C1726 0.929 . S
S1730 N1731 1.613 . S
S1730 N1732 1.610 . S
N1731 S1730 1.613 . S
N1731 C1734 1.350 . S
N1732 S1730 1.610 . S
N1732 C1733 1.351 . S
C1733 C1727 1.428 . S
C1733 N1732 1.351 . S
C1733 C1734 1.434 . S
C1734 C1725 1.429 . S
C1734 N1731 1.350 . S
C1734 C1733 1.434 . S
C1735 C1736 1.369 . S
C1735 C1737 1.419 . S
C1735 H1739 0.930 . S
C1736 C1735 1.369 . S
C1736 C1745 1.429 . S
C1737 C1735 1.419 . S
C1737 C1738 1.363 . S
C1737 H1740 0.929 . S
C1738 C1737 1.363 . S
C1738 C1744 1.428 . S
H1739 C1735 0.930 . S
H1740 C1737 0.929 . S
S1741 N1742 1.613 . S
S1741 N1743 1.610 . S
N1742 S1741 1.613 . S
N1742 C1745 1.350 . S
N1743 S1741 1.610 . S
N1743 C1744 1.351 . S
C1744 C1738 1.428 . S
C1744 N1743 1.351 . S
C1744 C1745 1.434 . S
C1745 C1736 1.429 . S
C1745 N1742 1.350 . S
C1745 C1744 1.434 . S
C1746 C1747 1.369 . S
C1746 C1748 1.419 . S
C1746 H1750 0.930 . S
C1747 C1746 1.369 . S
C1747 C1756 1.429 . S
C1748 C1746 1.419 . S
C1748 C1749 1.363 . S
C1748 H1751 0.929 . S
C1749 C1748 1.363 . S
C1749 C1755 1.428 . S
H1750 C1746 0.930 . S
H1751 C1748 0.929 . S
S1752 N1753 1.613 . S
S1752 N1754 1.610 . S
N1753 S1752 1.613 . S
N1753 C1756 1.350 . S
N1754 S1752 1.610 . S
N1754 C1755 1.351 . S
C1755 C1749 1.428 . S
C1755 N1754 1.351 . S
C1755 C1756 1.434 . S
C1756 C1747 1.429 . S
C1756 N1753 1.350 . S
C1756 C1755 1.434 . S
C1757 C1758 1.369 . S
C1757 C1759 1.419 . S
C1757 H1761 0.930 . S
C1758 C1757 1.369 . S
C1758 C1767 1.429 . S
C1759 C1757 1.419 . S
C1759 C1760 1.363 . S
C1759 H1762 0.929 . S
C1760 C1759 1.363 . S
C1760 C1766 1.428 . S
H1761 C1757 0.930 . S
H1762 C1759 0.929 . S
S1763 N1764 1.613 . S
S1763 N1765 1.610 . S
N1764 S1763 1.613 . S
N1764 C1767 1.350 . S
N1765 S1763 1.610 . S
N1765 C1766 1.351 . S
C1766 C1760 1.428 . S
C1766 N1765 1.351 . S
C1766 C1767 1.434 . S
C1767 C1758 1.429 . S
C1767 N1764 1.350 . S
C1767 C1766 1.434 . S
C1768 C1769 1.369 . S
C1768 C1770 1.419 . S
C1768 H1772 0.930 . S
C1769 C1768 1.369 . S
C1769 C1778 1.429 1_655 S
C1770 C1768 1.419 . S
C1770 C1771 1.363 1_655 S
C1770 H1773 0.929 . S
C1771 C1770 1.363 1_455 S
C1771 C1777 1.428 . S
H1772 C1768 0.930 . S
H1773 C1770 0.929 . S
S1774 N1775 1.613 . S
S1774 N1776 1.610 . S
N1775 S1774 1.613 . S
N1775 C1778 1.350 . S
N1776 S1774 1.610 . S
N1776 C1777 1.351 . S
C1777 C1771 1.428 . S
C1777 N1776 1.351 . S
C1777 C1778 1.434 . S
C1778 C1769 1.429 1_455 S
C1778 N1775 1.350 . S
C1778 C1777 1.434 . S
C1779 C1780 1.369 . S
C1779 C1781 1.419 . S
C1779 H1783 0.930 . S
C1780 C1779 1.369 . S
C1780 C1789 1.429 . S
C1781 C1779 1.419 . S
C1781 C1782 1.363 . S
C1781 H1784 0.929 . S
C1782 C1781 1.363 . S
C1782 C1788 1.428 . S
H1783 C1779 0.930 . S
H1784 C1781 0.929 . S
S1785 N1786 1.613 . S
S1785 N1787 1.610 . S
N1786 S1785 1.613 . S
N1786 C1789 1.350 . S
N1787 S1785 1.610 . S
N1787 C1788 1.351 . S
C1788 C1782 1.428 . S
C1788 N1787 1.351 . S
C1788 C1789 1.434 . S
C1789 C1780 1.429 . S
C1789 N1786 1.350 . S
C1789 C1788 1.434 . S
C1790 C1791 1.369 . S
C1790 C1792 1.419 . S
C1790 H1794 0.930 . S
C1791 C1790 1.369 . S
C1791 C1800 1.429 . S
C1792 C1790 1.419 . S
C1792 C1793 1.363 . S
C1792 H1795 0.929 . S
C1793 C1792 1.363 . S
C1793 C1799 1.428 . S
H1794 C1790 0.930 . S
H1795 C1792 0.929 . S
S1796 N1797 1.613 1_565 S
S1796 N1798 1.610 . S
N1797 S1796 1.613 1_545 S
N1797 C1800 1.350 . S
N1798 S1796 1.610 . S
N1798 C1799 1.351 1_565 S
C1799 C1793 1.428 . S
C1799 N1798 1.351 1_545 S
C1799 C1800 1.434 . S
C1800 C1791 1.429 . S
C1800 N1797 1.350 . S
C1800 C1799 1.434 . S
C1801 C1802 1.369 . S
C1801 C1803 1.419 . S
C1801 H1805 0.930 . S
C1802 C1801 1.369 . S
C1802 C1811 1.429 . S
C1803 C1801 1.419 . S
C1803 C1804 1.363 . S
C1803 H1806 0.929 . S
C1804 C1803 1.363 . S
C1804 C1810 1.428 . S
H1805 C1801 0.930 . S
H1806 C1803 0.929 . S
S1807 N1808 1.613 . S
S1807 N1809 1.610 . S
N1808 S1807 1.613 . S
N1808 C1811 1.350 . S
N1809 S1807 1.610 . S
N1809 C1810 1.351 . S
C1810 C1804 1.428 . S
C1810 N1809 1.351 . S
C1810 C1811 1.434 . S
C1811 C1802 1.429 . S
C1811 N1808 1.350 . S
C1811 C1810 1.434 . S
C1812 C1813 1.369 . S
C1812 C1814 1.419 1_655 S
C1812 H1816 0.930 1_545 S
C1813 C1812 1.369 . S
C1813 C1822 1.429 . S
C1814 C1812 1.419 1_455 S
C1814 C1815 1.363 . S
C1814 H1817 0.929 1_545 S
C1815 C1814 1.363 . S
C1815 C1821 1.428 1_455 S
H1816 C1812 0.930 1_565 S
H1817 C1814 0.929 1_565 S
S1818 N1819 1.613 . S
S1818 N1820 1.610 1_655 S
N1819 S1818 1.613 . S
N1819 C1822 1.350 . S
N1820 S1818 1.610 1_455 S
N1820 C1821 1.351 1_455 S
C1821 C1815 1.428 1_655 S
C1821 N1820 1.351 1_655 S
C1821 C1822 1.434 . S
C1822 C1813 1.429 . S
C1822 N1819 1.350 . S
C1822 C1821 1.434 . S
C1823 C1824 1.369 . S
C1823 C1825 1.419 . S
C1823 H1827 0.930 . S
C1824 C1823 1.369 . S
C1824 C1833 1.429 . S
C1825 C1823 1.419 . S
C1825 C1826 1.363 . S
C1825 H1828 0.929 . S
C1826 C1825 1.363 . S
C1826 C1832 1.428 . S
H1827 C1823 0.930 . S
H1828 C1825 0.929 . S
S1829 N1830 1.613 . S
S1829 N1831 1.610 . S
N1830 S1829 1.613 . S
N1830 C1833 1.350 . S
N1831 S1829 1.610 . S
N1831 C1832 1.351 . S
C1832 C1826 1.428 . S
C1832 N1831 1.351 . S
C1832 C1833 1.434 . S
C1833 C1824 1.429 . S
C1833 N1830 1.350 . S
C1833 C1832 1.434 . S
C1834 C1835 1.369 . S
C1834 C1836 1.419 . S
C1834 H1838 0.930 . S
C1835 C1834 1.369 . S
C1835 C1844 1.429 . S
C1836 C1834 1.419 . S
C1836 C1837 1.363 . S
C1836 H1839 0.929 . S
C1837 C1836 1.363 . S
C1837 C1843 1.428 . S
H1838 C1834 0.930 . S
H1839 C1836 0.929 . S
S1840 N1841 1.613 . S
S1840 N1842 1.610 . S
N1841 S1840 1.613 . S
N1841 C1844 1.350 . S
N1842 S1840 1.610 . S
N1842 C1843 1.351 . S
C1843 C1837 1.428 . S
C1843 N1842 1.351 . S
C1843 C1844 1.434 . S
C1844 C1835 1.429 . S
C1844 N1841 1.350 . S
C1844 C1843 1.434 . S
C1845 C1846 1.369 . S
C1845 C1847 1.419 . S
C1845 H1849 0.930 . S
C1846 C1845 1.369 . S
C1846 C1855 1.429 . S
C1847 C1845 1.419 . S
C1847 C1848 1.363 . S
C1847 H1850 0.929 . S
C1848 C1847 1.363 . S
C1848 C1854 1.428 . S
H1849 C1845 0.930 . S
H1850 C1847 0.929 . S
S1851 N1852 1.613 . S
S1851 N1853 1.610 . S
N1852 S1851 1.613 . S
N1852 C1855 1.350 . S
N1853 S1851 1.610 . S
N1853 C1854 1.351 . S
C1854 C1848 1.428 . S
C1854 N1853 1.351 . S
C1854 C1855 1.434 . S
C1855 C1846 1.429 . S
C1855 N1852 1.350 . S
C1855 C1854 1.434 . S
C1856 C1857 1.369 1_545 S
C1856 C1858 1.419 . S
C1856 H1860 0.930 . S
C1857 C1856 1.369 1_565 S
C1857 C1866 1.429 . S
C1858 C1856 1.419 . S
C1858 C1859 1.363 . S
C1858 H1861 0.929 . S
C1859 C1858 1.363 . S
C1859 C1865 1.428 1_545 S
H1860 C1856 0.930 . S
H1861 C1858 0.929 . S
S1862 N1863 1.613 . S
S1862 N1864 1.610 1_556 S
N1863 S1862 1.613 . S
N1863 C1866 1.350 1_556 S
N1864 S1862 1.610 1_554 S
N1864 C1865 1.351 . S
C1865 C1859 1.428 1_565 S
C1865 N1864 1.351 . S
C1865 C1866 1.434 . S
C1866 C1857 1.429 . S
C1866 N1863 1.350 1_554 S
C1866 C1865 1.434 . S
C1867 C1868 1.369 . S
C1867 C1869 1.419 . S
C1867 H1871 0.930 . S
C1868 C1867 1.369 . S
C1868 C1877 1.434 . S
C1869 C1867 1.419 . S
C1869 C1870 1.363 . S
C1869 H1872 0.929 . S
C1870 C1869 1.363 . S
C1870 C1876 1.428 . S
H1871 C1867 0.930 . S
H1872 C1869 0.929 . S
S1873 N1874 1.613 . S
S1873 N1875 1.610 . S
N1874 S1873 1.613 . S
N1874 C1877 1.340 1_556 S
N1875 S1873 1.610 . S
N1875 C1876 1.351 1_556 S
C1876 C1870 1.428 . S
C1876 N1875 1.351 1_554 S
C1876 C1877 1.439 . S
C1877 C1868 1.434 . S
C1877 N1874 1.340 1_554 S
C1877 C1876 1.439 . S
C1878 C1879 1.369 . S
C1878 C1880 1.419 . S
C1878 H1882 0.930 . S
C1879 C1878 1.369 . S
C1879 C1888 1.429 . S
C1880 C1878 1.419 . S
C1880 C1881 1.363 . S
C1880 H1883 0.929 . S
C1881 C1880 1.363 . S
C1881 C1887 1.428 . S
H1882 C1878 0.930 . S
H1883 C1880 0.929 . S
S1884 N1885 1.613 . S
S1884 N1886 1.610 . S
N1885 S1884 1.613 . S
N1885 C1888 1.350 . S
N1886 S1884 1.610 . S
N1886 C1887 1.351 . S
C1887 C1881 1.428 . S
C1887 N1886 1.351 . S
C1887 C1888 1.434 . S
C1888 C1879 1.429 . S
C1888 N1885 1.350 . S
C1888 C1887 1.434 . S
C1889 C1890 1.369 . S
C1889 C1891 1.419 . S
C1889 H1893 0.930 . S
C1890 C1889 1.369 . S
C1890 C1899 1.429 . S
C1891 C1889 1.419 . S
C1891 C1892 1.363 . S
C1891 H1894 0.929 . S
C1892 C1891 1.363 . S
C1892 C1898 1.428 . S
H1893 C1889 0.930 . S
H1894 C1891 0.929 . S
S1895 N1896 1.613 . S
S1895 N1897 1.610 . S
N1896 S1895 1.613 . S
N1896 C1899 1.350 . S
N1897 S1895 1.610 . S
N1897 C1898 1.351 . S
C1898 C1892 1.428 . S
C1898 N1897 1.351 . S
C1898 C1899 1.434 . S
C1899 C1890 1.429 . S
C1899 N1896 1.350 . S
C1899 C1898 1.434 . S
C1900 C1901 1.369 . S
C1900 C1902 1.419 . S
C1900 H1904 0.930 . S
C1901 C1900 1.369 . S
C1901 C1910 1.429 . S
C1902 C1900 1.419 . S
C1902 C1903 1.363 . S
C1902 H1905 0.929 . S
C1903 C1902 1.363 . S
C1903 C1909 1.428 . S
H1904 C1900 0.930 . S
H1905 C1902 0.929 . S
S1906 N1907 1.613 . S
S1906 N1908 1.610 . S
N1907 S1906 1.613 . S
N1907 C1910 1.350 . S
N1908 S1906 1.610 . S
N1908 C1909 1.351 . S
C1909 C1903 1.428 . S
C1909 N1908 1.351 . S
C1909 C1910 1.434 . S
C1910 C1901 1.429 . S
C1910 N1907 1.350 . S
C1910 C1909 1.434 . S
C1911 C1912 1.369 . S
C1911 C1913 1.419 . S
C1911 H1915 0.930 . S
C1912 C1911 1.369 . S
C1912 C1921 1.429 . S
C1913 C1911 1.419 . S
C1913 C1914 1.363 . S
C1913 H1916 0.929 . S
C1914 C1913 1.363 . S
C1914 C1920 1.428 . S
H1915 C1911 0.930 . S
H1916 C1913 0.929 . S
S1917 N1918 1.613 . S
S1917 N1919 1.610 . S
N1918 S1917 1.613 . S
N1918 C1921 1.350 . S
N1919 S1917 1.610 . S
N1919 C1920 1.351 . S
C1920 C1914 1.428 . S
C1920 N1919 1.351 . S
C1920 C1921 1.434 . S
C1921 C1912 1.429 . S
C1921 N1918 1.350 . S
C1921 C1920 1.434 . S
C1922 C1923 1.369 . S
C1922 C1924 1.419 . S
C1922 H1926 0.930 . S
C1923 C1922 1.369 . S
C1923 C1932 1.429 . S
C1924 C1922 1.419 . S
C1924 C1925 1.363 . S
C1924 H1927 0.929 . S
C1925 C1924 1.363 . S
C1925 C1931 1.428 . S
H1926 C1922 0.930 . S
H1927 C1924 0.929 . S
S1928 N1929 1.613 . S
S1928 N1930 1.610 . S
N1929 S1928 1.613 . S
N1929 C1932 1.350 . S
N1930 S1928 1.610 . S
N1930 C1931 1.351 . S
C1931 C1925 1.428 . S
C1931 N1930 1.351 . S
C1931 C1932 1.434 . S
C1932 C1923 1.429 . S
C1932 N1929 1.350 . S
C1932 C1931 1.434 . S
C1933 C1934 1.369 . S
C1933 C1935 1.419 . S
C1933 H1937 0.930 . S
C1934 C1933 1.369 . S
C1934 C1943 1.429 . S
C1935 C1933 1.419 . S
C1935 C1936 1.363 . S
C1935 H1938 0.929 . S
C1936 C1935 1.363 . S
C1936 C1942 1.428 . S
H1937 C1933 0.930 . S
H1938 C1935 0.929 . S
S1939 N1940 1.613 . S
S1939 N1941 1.610 . S
N1940 S1939 1.613 . S
N1940 C1943 1.350 . S
N1941 S1939 1.610 . S
N1941 C1942 1.351 . S
C1942 C1936 1.428 . S
C1942 N1941 1.351 . S
C1942 C1943 1.434 . S
C1943 C1934 1.429 . S
C1943 N1940 1.350 . S
C1943 C1942 1.434 . S
C1944 C1945 1.369 . S
C1944 C1946 1.419 . S
C1944 H1948 0.930 . S
C1945 C1944 1.369 . S
C1945 C1954 1.429 . S
C1946 C1944 1.419 . S
C1946 C1947 1.363 . S
C1946 H1949 0.929 . S
C1947 C1946 1.363 . S
C1947 C1953 1.428 . S
H1948 C1944 0.930 . S
H1949 C1946 0.929 . S
S1950 N1951 1.613 . S
S1950 N1952 1.610 . S
N1951 S1950 1.613 . S
N1951 C1954 1.350 . S
N1952 S1950 1.610 . S
N1952 C1953 1.351 . S
C1953 C1947 1.428 . S
C1953 N1952 1.351 . S
C1953 C1954 1.434 . S
C1954 C1945 1.429 . S
C1954 N1951 1.350 . S
C1954 C1953 1.434 . S
C1955 C1956 1.369 . S
C1955 C1957 1.419 . S
C1955 H1959 0.930 . S
C1956 C1955 1.369 . S
C1956 C1965 1.429 . S
C1957 C1955 1.419 . S
C1957 C1958 1.363 . S
C1957 H1960 0.929 . S
C1958 C1957 1.363 . S
C1958 C1964 1.428 . S
H1959 C1955 0.930 . S
H1960 C1957 0.929 . S
S1961 N1962 1.613 . S
S1961 N1963 1.610 . S
N1962 S1961 1.613 . S
N1962 C1965 1.350 . S
N1963 S1961 1.610 . S
N1963 C1964 1.351 . S
C1964 C1958 1.428 . S
C1964 N1963 1.351 . S
C1964 C1965 1.434 . S
C1965 C1956 1.429 . S
C1965 N1962 1.350 . S
C1965 C1964 1.434 . S
C1966 C1967 1.369 . S
C1966 C1968 1.419 . S
C1966 H1970 0.930 . S
C1967 C1966 1.369 . S
C1967 C1976 1.429 . S
C1968 C1966 1.419 . S
C1968 C1969 1.363 . S
C1968 H1971 0.929 . S
C1969 C1968 1.363 . S
C1969 C1975 1.428 . S
H1970 C1966 0.930 . S
H1971 C1968 0.929 . S
S1972 N1973 1.613 . S
S1972 N1974 1.610 . S
N1973 S1972 1.613 . S
N1973 C1976 1.350 . S
N1974 S1972 1.610 . S
N1974 C1975 1.351 . S
C1975 C1969 1.428 . S
C1975 N1974 1.351 . S
C1975 C1976 1.434 . S
C1976 C1967 1.429 . S
C1976 N1973 1.350 . S
C1976 C1975 1.434 . S
C1977 C1978 1.369 . S
C1977 C1979 1.419 . S
C1977 H1981 0.930 . S
C1978 C1977 1.369 . S
C1978 C1987 1.429 . S
C1979 C1977 1.419 . S
C1979 C1980 1.363 . S
C1979 H1982 0.929 . S
C1980 C1979 1.363 . S
C1980 C1986 1.428 . S
H1981 C1977 0.930 . S
H1982 C1979 0.929 . S
S1983 N1984 1.613 . S
S1983 N1985 1.610 . S
N1984 S1983 1.613 . S
N1984 C1987 1.350 . S
N1985 S1983 1.610 . S
N1985 C1986 1.351 . S
C1986 C1980 1.428 . S
C1986 N1985 1.351 . S
C1986 C1987 1.434 . S
C1987 C1978 1.429 . S
C1987 N1984 1.350 . S
C1987 C1986 1.434 . S
C1988 C1989 1.369 . S
C1988 C1990 1.419 . S
C1988 H1992 0.930 . S
C1989 C1988 1.369 . S
C1989 C1998 1.429 . S
C1990 C1988 1.419 . S
C1990 C1991 1.363 . S
C1990 H1993 0.929 . S
C1991 C1990 1.363 . S
C1991 C1997 1.428 . S
H1992 C1988 0.930 . S
H1993 C1990 0.929 . S
S1994 N1995 1.613 . S
S1994 N1996 1.610 . S
N1995 S1994 1.613 . S
N1995 C1998 1.350 . S
N1996 S1994 1.610 . S
N1996 C1997 1.351 . S
C1997 C1991 1.428 . S
C1997 N1996 1.351 . S
C1997 C1998 1.434 . S
C1998 C1989 1.429 . S
C1998 N1995 1.350 . S
C1998 C1997 1.434 . S
C1999 C2000 1.369 . S
C1999 C2001 1.419 . S
C1999 H2003 0.930 . S
C2000 C1999 1.369 . S
C2000 C2009 1.429 . S
C2001 C1999 1.419 . S
C2001 C2002 1.363 . S
C2001 H2004 0.929 . S
C2002 C2001 1.363 . S
C2002 C2008 1.428 . S
H2003 C1999 0.930 . S
H2004 C2001 0.929 . S
S2005 N2006 1.613 . S
S2005 N2007 1.610 . S
N2006 S2005 1.613 . S
N2006 C2009 1.350 . S
N2007 S2005 1.610 . S
N2007 C2008 1.351 . S
C2008 C2002 1.428 . S
C2008 N2007 1.351 . S
C2008 C2009 1.434 . S
C2009 C2000 1.429 . S
C2009 N2006 1.350 . S
C2009 C2008 1.434 . S
C2010 C2011 1.369 . S
C2010 C2012 1.419 . S
C2010 H2014 0.930 . S
C2011 C2010 1.369 . S
C2011 C2020 1.429 . S
C2012 C2010 1.419 . S
C2012 C2013 1.363 . S
C2012 H2015 0.929 . S
C2013 C2012 1.363 . S
C2013 C2019 1.428 . S
H2014 C2010 0.930 . S
H2015 C2012 0.929 . S
S2016 N2017 1.613 1_554 S
S2016 N2018 1.610 . S
N2017 S2016 1.613 1_556 S
N2017 C2020 1.350 . S
N2018 S2016 1.610 . S
N2018 C2019 1.351 1_554 S
C2019 C2013 1.428 . S
C2019 N2018 1.351 1_556 S
C2019 C2020 1.434 . S
C2020 C2011 1.429 . S
C2020 N2017 1.350 . S
C2020 C2019 1.434 . S
C2021 C2022 1.369 . S
C2021 C2023 1.419 . S
C2021 H2025 0.930 . S
C2022 C2021 1.369 . S
C2022 C2031 1.429 . S
C2023 C2021 1.419 . S
C2023 C2024 1.363 . S
C2023 H2026 0.929 . S
C2024 C2023 1.363 . S
C2024 C2030 1.428 . S
H2025 C2021 0.930 . S
H2026 C2023 0.929 . S
S2027 N2028 1.613 . S
S2027 N2029 1.610 . S
N2028 S2027 1.613 . S
N2028 C2031 1.350 . S
N2029 S2027 1.610 . S
N2029 C2030 1.351 . S
C2030 C2024 1.428 . S
C2030 N2029 1.351 . S
C2030 C2031 1.434 . S
C2031 C2022 1.429 . S
C2031 N2028 1.350 . S
C2031 C2030 1.434 . S
C2032 C2033 1.369 . S
C2032 C2034 1.419 . S
C2032 H2036 0.930 . S
C2033 C2032 1.369 . S
C2033 C2042 1.429 . S
C2034 C2032 1.419 . S
C2034 C2035 1.363 . S
C2034 H2037 0.929 . S
C2035 C2034 1.363 . S
C2035 C2041 1.428 . S
H2036 C2032 0.930 . S
H2037 C2034 0.929 . S
S2038 N2039 1.613 1_565 S
S2038 N2040 1.610 . S
N2039 S2038 1.613 1_545 S
N2039 C2042 1.350 . S
N2040 S2038 1.610 . S
N2040 C2041 1.351 1_565 S
C2041 C2035 1.428 . S
C2041 N2040 1.351 1_545 S
C2041 C2042 1.434 . S
C2042 C2033 1.429 . S
C2042 N2039 1.350 . S
C2042 C2041 1.434 . S
C2043 C2044 1.369 . S
C2043 C2045 1.419 . S
C2043 H2047 0.930 . S
C2044 C2043 1.369 . S
C2044 C2053 1.429 . S
C2045 C2043 1.419 . S
C2045 C2046 1.363 . S
C2045 H2048 0.929 . S
C2046 C2045 1.363 . S
C2046 C2052 1.428 . S
H2047 C2043 0.930 . S
H2048 C2045 0.929 . S
S2049 N2050 1.613 . S
S2049 N2051 1.610 . S
N2050 S2049 1.613 . S
N2050 C2053 1.350 . S
N2051 S2049 1.610 . S
N2051 C2052 1.351 . S
C2052 C2046 1.428 . S
C2052 N2051 1.351 . S
C2052 C2053 1.434 . S
C2053 C2044 1.429 . S
C2053 N2050 1.350 . S
C2053 C2052 1.434 . S
C2054 C2055 1.369 . S
C2054 C2056 1.419 . S
C2054 H2058 0.930 . S
C2055 C2054 1.369 . S
C2055 C2064 1.429 1_545 S
C2056 C2054 1.419 . S
C2056 C2057 1.363 . S
C2056 H2059 0.929 . S
C2057 C2056 1.363 . S
C2057 C2063 1.428 . S
H2058 C2054 0.930 . S
H2059 C2056 0.929 . S
S2060 N2061 1.613 . S
S2060 N2062 1.610 . S
N2061 S2060 1.613 . S
N2061 C2064 1.350 . S
N2062 S2060 1.610 . S
N2062 C2063 1.351 1_565 S
C2063 C2057 1.428 . S
C2063 N2062 1.351 1_545 S
C2063 C2064 1.434 1_545 S
C2064 C2055 1.429 1_565 S
C2064 N2061 1.350 . S
C2064 C2063 1.434 1_565 S
C2065 C2066 1.369 . S
C2065 C2067 1.419 . S
C2065 H2069 0.930 . S
C2066 C2065 1.369 . S
C2066 C2075 1.429 . S
C2067 C2065 1.419 . S
C2067 C2068 1.363 . S
C2067 H2070 0.929 . S
C2068 C2067 1.363 . S
C2068 C2074 1.428 . S
H2069 C2065 0.930 . S
H2070 C2067 0.929 . S
S2071 N2072 1.613 . S
S2071 N2073 1.610 . S
N2072 S2071 1.613 . S
N2072 C2075 1.350 . S
N2073 S2071 1.610 . S
N2073 C2074 1.351 . S
C2074 C2068 1.428 . S
C2074 N2073 1.351 . S
C2074 C2075 1.434 . S
C2075 C2066 1.429 . S
C2075 N2072 1.350 . S
C2075 C2074 1.434 . S
C2076 C2077 1.369 . S
C2076 C2078 1.419 . S
C2076 H2080 0.930 . S
C2077 C2076 1.369 . S
C2077 C2086 1.429 . S
C2078 C2076 1.419 . S
C2078 C2079 1.363 . S
C2078 H2081 0.929 . S
C2079 C2078 1.363 . S
C2079 C2085 1.428 . S
H2080 C2076 0.930 . S
H2081 C2078 0.929 . S
S2082 N2083 1.619 . S
S2082 N2084 1.610 . S
N2083 S2082 1.619 . S
N2083 C2086 1.339 1_565 S
N2084 S2082 1.610 . S
N2084 C2085 1.351 1_565 S
C2085 C2079 1.428 . S
C2085 N2084 1.351 1_545 S
C2085 C2086 1.434 . S
C2086 C2077 1.429 . S
C2086 N2083 1.339 1_545 S
C2086 C2085 1.434 . S
C2087 C2088 1.369 . S
C2087 C2089 1.419 . S
C2087 H2091 0.930 . S
C2088 C2087 1.369 . S
C2088 C2097 1.429 . S
C2089 C2087 1.419 . S
C2089 C2090 1.363 . S
C2089 H2092 0.929 . S
C2090 C2089 1.363 . S
C2090 C2096 1.428 . S
H2091 C2087 0.930 . S
H2092 C2089 0.929 . S
S2093 N2094 1.613 . S
S2093 N2095 1.610 . S
N2094 S2093 1.613 . S
N2094 C2097 1.350 . S
N2095 S2093 1.610 . S
N2095 C2096 1.351 . S
C2096 C2090 1.428 . S
C2096 N2095 1.351 . S
C2096 C2097 1.434 . S
C2097 C2088 1.429 . S
C2097 N2094 1.350 . S
C2097 C2096 1.434 . S
C2098 C2099 1.369 1_565 S
C2098 C2100 1.419 . S
C2098 H2102 0.930 . S
C2099 C2098 1.369 1_545 S
C2099 C2108 1.429 . S
C2100 C2098 1.419 . S
C2100 C2101 1.363 1_565 S
C2100 H2103 0.929 . S
C2101 C2100 1.363 1_545 S
C2101 C2107 1.428 . S
H2102 C2098 0.930 . S
H2103 C2100 0.929 . S
S2104 N2105 1.613 . S
S2104 N2106 1.610 . S
N2105 S2104 1.613 . S
N2105 C2108 1.350 . S
N2106 S2104 1.610 . S
N2106 C2107 1.351 . S
C2107 C2101 1.428 . S
C2107 N2106 1.351 . S
C2107 C2108 1.434 . S
C2108 C2099 1.429 . S
C2108 N2105 1.350 . S
C2108 C2107 1.434 . S
C2109 C2110 1.369 . S
C2109 C2111 1.419 . S
C2109 H2113 0.930 . S
C2110 C2109 1.369 . S
C2110 C2119 1.429 . S
C2111 C2109 1.419 . S
C2111 C2112 1.363 . S
C2111 H2114 0.929 . S
C2112 C2111 1.363 . S
C2112 C2118 1.428 . S
H2113 C2109 0.930 . S
H2114 C2111 0.929 . S
S2115 N2116 1.613 . S
S2115 N2117 1.610 . S
N2116 S2115 1.613 . S
N2116 C2119 1.350 . S
N2117 S2115 1.610 . S
N2117 C2118 1.351 . S
C2118 C2112 1.428 . S
C2118 N2117 1.351 . S
C2118 C2119 1.434 . S
C2119 C2110 1.429 . S
C2119 N2116 1.350 . S
C2119 C2118 1.434 . S
C2120 C2121 1.369 . S
C2120 C2122 1.419 . S
C2120 H2124 0.930 . S
C2121 C2120 1.369 . S
C2121 C2130 1.429 . S
C2122 C2120 1.419 . S
C2122 C2123 1.363 . S
C2122 H2125 0.929 . S
C2123 C2122 1.363 . S
C2123 C2129 1.428 . S
H2124 C2120 0.930 . S
H2125 C2122 0.929 . S
S2126 N2127 1.613 . S
S2126 N2128 1.610 . S
N2127 S2126 1.613 . S
N2127 C2130 1.350 . S
N2128 S2126 1.610 . S
N2128 C2129 1.351 . S
C2129 C2123 1.428 . S
C2129 N2128 1.351 . S
C2129 C2130 1.434 . S
C2130 C2121 1.429 . S
C2130 N2127 1.350 . S
C2130 C2129 1.434 . S
C2131 C2132 1.369 . S
C2131 C2133 1.419 . S
C2131 H2135 0.930 . S
C2132 C2131 1.369 . S
C2132 C2141 1.429 . S
C2133 C2131 1.419 . S
C2133 C2134 1.363 . S
C2133 H2136 0.929 . S
C2134 C2133 1.363 . S
C2134 C2140 1.428 . S
H2135 C2131 0.930 . S
H2136 C2133 0.929 . S
S2137 N2138 1.613 . S
S2137 N2139 1.610 . S
N2138 S2137 1.613 . S
N2138 C2141 1.350 . S
N2139 S2137 1.610 . S
N2139 C2140 1.351 . S
C2140 C2134 1.428 . S
C2140 N2139 1.351 . S
C2140 C2141 1.434 . S
C2141 C2132 1.429 . S
C2141 N2138 1.350 . S
C2141 C2140 1.434 . S
C2142 C2143 1.369 . S
C2142 C2144 1.419 . S
C2142 H2146 0.930 . S
C2143 C2142 1.369 . S
C2143 C2152 1.429 . S
C2144 C2142 1.419 . S
C2144 C2145 1.363 . S
C2144 H2147 0.929 . S
C2145 C2144 1.363 . S
C2145 C2151 1.428 . S
H2146 C2142 0.930 . S
H2147 C2144 0.929 . S
S2148 N2149 1.613 . S
S2148 N2150 1.610 . S
N2149 S2148 1.613 . S
N2149 C2152 1.350 . S
N2150 S2148 1.610 . S
N2150 C2151 1.351 . S
C2151 C2145 1.428 . S
C2151 N2150 1.351 . S
C2151 C2152 1.434 . S
C2152 C2143 1.429 . S
C2152 N2149 1.350 . S
C2152 C2151 1.434 . S
C2153 C2154 1.369 . S
C2153 C2155 1.419 . S
C2153 H2157 0.930 . S
C2154 C2153 1.369 . S
C2154 C2163 1.429 . S
C2155 C2153 1.419 . S
C2155 C2156 1.363 . S
C2155 H2158 0.929 . S
C2156 C2155 1.363 . S
C2156 C2162 1.428 . S
H2157 C2153 0.930 . S
H2158 C2155 0.929 . S
S2159 N2160 1.613 . S
S2159 N2161 1.610 . S
N2160 S2159 1.613 . S
N2160 C2163 1.350 . S
N2161 S2159 1.610 . S
N2161 C2162 1.351 . S
C2162 C2156 1.428 . S
C2162 N2161 1.351 . S
C2162 C2163 1.434 . S
C2163 C2154 1.429 . S
C2163 N2160 1.350 . S
C2163 C2162 1.434 . S
C2164 C2165 1.369 1_565 S
C2164 C2166 1.419 . S
C2164 H2168 0.930 . S
C2165 C2164 1.369 1_545 S
C2165 C2174 1.429 . S
C2166 C2164 1.419 . S
C2166 C2167 1.363 . S
C2166 H2169 0.929 . S
C2167 C2166 1.363 . S
C2167 C2173 1.428 . S
H2168 C2164 0.930 . S
H2169 C2166 0.929 . S
S2170 N2171 1.613 . S
S2170 N2172 1.610 1_545 S
N2171 S2170 1.613 . S
N2171 C2174 1.350 . S
N2172 S2170 1.610 1_565 S
N2172 C2173 1.351 . S
C2173 C2167 1.428 . S
C2173 N2172 1.351 . S
C2173 C2174 1.434 1_565 S
C2174 C2165 1.429 . S
C2174 N2171 1.350 . S
C2174 C2173 1.434 1_545 S
C2175 C2176 1.369 . S
C2175 C2177 1.419 . S
C2175 H2179 0.930 . S
C2176 C2175 1.369 . S
C2176 C2185 1.429 . S
C2177 C2175 1.419 . S
C2177 C2178 1.363 . S
C2177 H2180 0.929 . S
C2178 C2177 1.363 . S
C2178 C2184 1.428 . S
H2179 C2175 0.930 . S
H2180 C2177 0.929 . S
S2181 N2182 1.613 . S
S2181 N2183 1.610 . S
N2182 S2181 1.613 . S
N2182 C2185 1.350 . S
N2183 S2181 1.610 . S
N2183 C2184 1.351 . S
C2184 C2178 1.428 . S
C2184 N2183 1.351 . S
C2184 C2185 1.434 . S
C2185 C2176 1.429 . S
C2185 N2182 1.350 . S
C2185 C2184 1.434 . S
C2186 C2187 1.369 . S
C2186 C2188 1.419 . S
C2186 H2190 0.930 . S
C2187 C2186 1.369 . S
C2187 C2196 1.429 . S
C2188 C2186 1.419 . S
C2188 C2189 1.363 . S
C2188 H2191 0.929 . S
C2189 C2188 1.363 . S
C2189 C2195 1.428 . S
H2190 C2186 0.930 . S
H2191 C2188 0.929 . S
S2192 N2193 1.613 . S
S2192 N2194 1.610 . S
N2193 S2192 1.613 . S
N2193 C2196 1.350 . S
N2194 S2192 1.610 . S
N2194 C2195 1.351 . S
C2195 C2189 1.428 . S
C2195 N2194 1.351 . S
C2195 C2196 1.434 . S
C2196 C2187 1.429 . S
C2196 N2193 1.350 . S
C2196 C2195 1.434 . S
C2197 C2198 1.369 . S
C2197 C2199 1.419 . S
C2197 H2201 0.930 . S
C2198 C2197 1.369 . S
C2198 C2207 1.429 . S
C2199 C2197 1.419 . S
C2199 C2200 1.363 . S
C2199 H2202 0.929 . S
C2200 C2199 1.363 . S
C2200 C2206 1.428 . S
H2201 C2197 0.930 . S
H2202 C2199 0.929 . S
S2203 N2204 1.613 . S
S2203 N2205 1.610 . S
N2204 S2203 1.613 . S
N2204 C2207 1.350 . S
N2205 S2203 1.610 . S
N2205 C2206 1.351 . S
C2206 C2200 1.428 . S
C2206 N2205 1.351 . S
C2206 C2207 1.434 . S
C2207 C2198 1.429 . S
C2207 N2204 1.350 . S
C2207 C2206 1.434 . S
C2208 C2209 1.369 . S
C2208 C2210 1.419 . S
C2208 H2212 0.930 . S
C2209 C2208 1.369 . S
C2209 C2218 1.429 . S
C2210 C2208 1.419 . S
C2210 C2211 1.363 . S
C2210 H2213 0.929 . S
C2211 C2210 1.363 . S
C2211 C2217 1.428 . S
H2212 C2208 0.930 . S
H2213 C2210 0.929 . S
S2214 N2215 1.613 . S
S2214 N2216 1.610 . S
N2215 S2214 1.613 . S
N2215 C2218 1.350 . S
N2216 S2214 1.610 . S
N2216 C2217 1.351 . S
C2217 C2211 1.428 . S
C2217 N2216 1.351 . S
C2217 C2218 1.434 . S
C2218 C2209 1.429 . S
C2218 N2215 1.350 . S
C2218 C2217 1.434 . S
C2219 C2220 1.369 . S
C2219 C2221 1.419 . S
C2219 H2223 0.930 . S
C2220 C2219 1.369 . S
C2220 C2229 1.429 . S
C2221 C2219 1.419 . S
C2221 C2222 1.363 . S
C2221 H2224 0.929 . S
C2222 C2221 1.363 . S
C2222 C2228 1.428 . S
H2223 C2219 0.930 . S
H2224 C2221 0.929 . S
S2225 N2226 1.613 . S
S2225 N2227 1.610 . S
N2226 S2225 1.613 . S
N2226 C2229 1.350 . S
N2227 S2225 1.610 . S
N2227 C2228 1.351 . S
C2228 C2222 1.428 . S
C2228 N2227 1.351 . S
C2228 C2229 1.434 . S
C2229 C2220 1.429 . S
C2229 N2226 1.350 . S
C2229 C2228 1.434 . S
C2230 C2231 1.369 . S
C2230 C2232 1.419 . S
C2230 H2234 0.930 . S
C2231 C2230 1.369 . S
C2231 C2240 1.429 1_554 S
C2232 C2230 1.419 . S
C2232 C2233 1.363 . S
C2232 H2235 0.929 . S
C2233 C2232 1.363 . S
C2233 C2239 1.428 1_554 S
H2234 C2230 0.930 . S
H2235 C2232 0.929 . S
S2236 N2237 1.613 . S
S2236 N2238 1.610 . S
N2237 S2236 1.613 . S
N2237 C2240 1.350 . S
N2238 S2236 1.610 . S
N2238 C2239 1.351 . S
C2239 C2233 1.428 1_556 S
C2239 N2238 1.351 . S
C2239 C2240 1.434 . S
C2240 C2231 1.429 1_556 S
C2240 N2237 1.350 . S
C2240 C2239 1.434 . S
C2241 C2242 1.369 1_455 S
C2241 C2243 1.419 1_455 S
C2241 H2245 0.930 . S
C2242 C2241 1.369 1_655 S
C2242 C2251 1.429 . S
C2243 C2241 1.419 1_655 S
C2243 C2244 1.363 . S
C2243 H2246 0.929 . S
C2244 C2243 1.363 . S
C2244 C2250 1.428 . S
H2245 C2241 0.930 . S
H2246 C2243 0.929 . S
S2247 N2248 1.613 . S
S2247 N2249 1.610 . S
N2248 S2247 1.613 . S
N2248 C2251 1.350 . S
N2249 S2247 1.610 . S
N2249 C2250 1.351 . S
C2250 C2244 1.428 . S
C2250 N2249 1.351 . S
C2250 C2251 1.434 . S
C2251 C2242 1.429 . S
C2251 N2248 1.350 . S
C2251 C2250 1.434 . S
C2252 C2253 1.369 . S
C2252 C2254 1.419 . S
C2252 H2256 0.930 . S
C2253 C2252 1.369 . S
C2253 C2262 1.429 . S
C2254 C2252 1.419 . S
C2254 C2255 1.363 . S
C2254 H2257 0.929 . S
C2255 C2254 1.363 . S
C2255 C2261 1.428 . S
H2256 C2252 0.930 . S
H2257 C2254 0.929 . S
S2258 N2259 1.613 . S
S2258 N2260 1.610 . S
N2259 S2258 1.613 . S
N2259 C2262 1.350 . S
N2260 S2258 1.610 . S
N2260 C2261 1.351 . S
C2261 C2255 1.428 . S
C2261 N2260 1.351 . S
C2261 C2262 1.434 . S
C2262 C2253 1.429 . S
C2262 N2259 1.350 . S
C2262 C2261 1.434 . S
C2263 C2264 1.369 . S
C2263 C2265 1.419 . S
C2263 H2267 0.930 . S
C2264 C2263 1.369 . S
C2264 C2273 1.429 . S
C2265 C2263 1.419 . S
C2265 C2266 1.363 . S
C2265 H2268 0.929 . S
C2266 C2265 1.363 . S
C2266 C2272 1.428 . S
H2267 C2263 0.930 . S
H2268 C2265 0.929 . S
S2269 N2270 1.613 . S
S2269 N2271 1.610 . S
N2270 S2269 1.613 . S
N2270 C2273 1.350 . S
N2271 S2269 1.610 . S
N2271 C2272 1.351 . S
C2272 C2266 1.428 . S
C2272 N2271 1.351 . S
C2272 C2273 1.434 . S
C2273 C2264 1.429 . S
C2273 N2270 1.350 . S
C2273 C2272 1.434 . S
C2274 C2275 1.369 1_655 S
C2274 C2276 1.419 1_655 S
C2274 H2278 0.930 . S
C2275 C2274 1.369 1_455 S
C2275 C2284 1.429 . S
C2276 C2274 1.419 1_455 S
C2276 C2277 1.363 . S
C2276 H2279 0.929 1_455 S
C2277 C2276 1.363 . S
C2277 C2283 1.428 . S
H2278 C2274 0.930 . S
H2279 C2276 0.929 1_655 S
S2280 N2281 1.613 . S
S2280 N2282 1.610 . S
N2281 S2280 1.613 . S
N2281 C2284 1.350 . S
N2282 S2280 1.610 . S
N2282 C2283 1.351 . S
C2283 C2277 1.428 . S
C2283 N2282 1.351 . S
C2283 C2284 1.434 . S
C2284 C2275 1.429 . S
C2284 N2281 1.350 . S
C2284 C2283 1.434 . S
C2285 C2286 1.369 . S
C2285 C2287 1.419 . S
C2285 H2289 0.930 . S
C2286 C2285 1.369 . S
C2286 C2295 1.429 . S
C2287 C2285 1.419 . S
C2287 C2288 1.363 . S
C2287 H2290 0.929 . S
C2288 C2287 1.363 . S
C2288 C2294 1.428 . S
H2289 C2285 0.930 . S
H2290 C2287 0.929 . S
S2291 N2292 1.613 . S
S2291 N2293 1.610 . S
N2292 S2291 1.613 . S
N2292 C2295 1.350 . S
N2293 S2291 1.610 . S
N2293 C2294 1.351 . S
C2294 C2288 1.428 . S
C2294 N2293 1.351 . S
C2294 C2295 1.434 . S
C2295 C2286 1.429 . S
C2295 N2292 1.350 . S
C2295 C2294 1.434 . S
C2296 C2297 1.369 . S
C2296 C2298 1.419 . S
C2296 H2300 0.930 . S
C2297 C2296 1.369 . S
C2297 C2306 1.429 . S
C2298 C2296 1.419 . S
C2298 C2299 1.363 . S
C2298 H2301 0.929 . S
C2299 C2298 1.363 . S
C2299 C2305 1.428 . S
H2300 C2296 0.930 . S
H2301 C2298 0.929 . S
S2302 N2303 1.613 . S
S2302 N2304 1.610 . S
N2303 S2302 1.613 . S
N2303 C2306 1.350 . S
N2304 S2302 1.610 . S
N2304 C2305 1.351 . S
C2305 C2299 1.428 . S
C2305 N2304 1.351 . S
C2305 C2306 1.434 . S
C2306 C2297 1.429 . S
C2306 N2303 1.350 . S
C2306 C2305 1.434 . S
C2307 C2308 1.369 1_556 S
C2307 C2309 1.419 . S
C2307 H2311 0.930 . S
C2308 C2307 1.369 1_554 S
C2308 C2317 1.429 . S
C2309 C2307 1.419 . S
C2309 C2310 1.363 . S
C2309 H2312 0.929 . S
C2310 C2309 1.363 . S
C2310 C2316 1.443 . S
H2311 C2307 0.930 . S
H2312 C2309 0.929 . S
S2313 N2314 1.613 . S
S2313 N2315 1.610 . S
N2314 S2313 1.613 . S
N2314 C2317 1.350 . S
N2315 S2313 1.610 . S
N2315 C2316 1.348 1_554 S
C2316 C2310 1.443 . S
C2316 N2315 1.348 1_556 S
C2316 C2317 1.421 1_556 S
C2317 C2308 1.429 . S
C2317 N2314 1.350 . S
C2317 C2316 1.421 1_554 S
C2318 C2319 1.369 . S
C2318 C2320 1.419 . S
C2318 H2322 0.930 . S
C2319 C2318 1.369 . S
C2319 C2328 1.429 . S
C2320 C2318 1.419 . S
C2320 C2321 1.363 . S
C2320 H2323 0.929 . S
C2321 C2320 1.363 . S
C2321 C2327 1.428 . S
H2322 C2318 0.930 . S
H2323 C2320 0.929 . S
S2324 N2325 1.613 . S
S2324 N2326 1.610 . S
N2325 S2324 1.613 . S
N2325 C2328 1.350 . S
N2326 S2324 1.610 . S
N2326 C2327 1.351 . S
C2327 C2321 1.428 . S
C2327 N2326 1.351 . S
C2327 C2328 1.434 . S
C2328 C2319 1.429 . S
C2328 N2325 1.350 . S
C2328 C2327 1.434 . S
C2329 C2330 1.369 . S
C2329 C2331 1.419 . S
C2329 H2333 0.930 . S
C2330 C2329 1.369 . S
C2330 C2339 1.429 . S
C2331 C2329 1.419 . S
C2331 C2332 1.363 . S
C2331 H2334 0.929 . S
C2332 C2331 1.363 . S
C2332 C2338 1.428 . S
H2333 C2329 0.930 . S
H2334 C2331 0.929 . S
S2335 N2336 1.613 . S
S2335 N2337 1.610 . S
N2336 S2335 1.613 . S
N2336 C2339 1.350 . S
N2337 S2335 1.610 . S
N2337 C2338 1.351 . S
C2338 C2332 1.428 . S
C2338 N2337 1.351 . S
C2338 C2339 1.434 . S
C2339 C2330 1.429 . S
C2339 N2336 1.350 . S
C2339 C2338 1.434 . S
C2340 C2341 1.369 . S
C2340 C2342 1.419 . S
C2340 H2344 0.930 . S
C2341 C2340 1.369 . S
C2341 C2350 1.429 . S
C2342 C2340 1.419 . S
C2342 C2343 1.363 . S
C2342 H2345 0.929 . S
C2343 C2342 1.363 . S
C2343 C2349 1.428 . S
H2344 C2340 0.930 . S
H2345 C2342 0.929 . S
S2346 N2347 1.613 . S
S2346 N2348 1.610 . S
N2347 S2346 1.613 . S
N2347 C2350 1.350 . S
N2348 S2346 1.610 . S
N2348 C2349 1.351 . S
C2349 C2343 1.428 . S
C2349 N2348 1.351 . S
C2349 C2350 1.434 . S
C2350 C2341 1.429 . S
C2350 N2347 1.350 . S
C2350 C2349 1.434 . S
C2351 C2352 1.369 . S
C2351 C2353 1.419 . S
C2351 H2355 0.930 . S
C2352 C2351 1.369 . S
C2352 C2361 1.429 . S
C2353 C2351 1.419 . S
C2353 C2354 1.363 . S
C2353 H2356 0.929 . S
C2354 C2353 1.363 . S
C2354 C2360 1.428 . S
H2355 C2351 0.930 . S
H2356 C2353 0.929 . S
S2357 N2358 1.613 . S
S2357 N2359 1.610 . S
N2358 S2357 1.613 . S
N2358 C2361 1.350 . S
N2359 S2357 1.610 . S
N2359 C2360 1.351 . S
C2360 C2354 1.428 . S
C2360 N2359 1.351 . S
C2360 C2361 1.434 . S
C2361 C2352 1.429 . S
C2361 N2358 1.350 . S
C2361 C2360 1.434 . S
C2362 C2363 1.369 . S
C2362 C2364 1.419 . S
C2362 H2366 0.930 . S
C2363 C2362 1.369 . S
C2363 C2372 1.429 . S
C2364 C2362 1.419 . S
C2364 C2365 1.363 . S
C2364 H2367 0.929 . S
C2365 C2364 1.363 . S
C2365 C2371 1.428 . S
H2366 C2362 0.930 . S
H2367 C2364 0.929 . S
S2368 N2369 1.613 . S
S2368 N2370 1.610 . S
N2369 S2368 1.613 . S
N2369 C2372 1.350 . S
N2370 S2368 1.610 . S
N2370 C2371 1.351 . S
C2371 C2365 1.428 . S
C2371 N2370 1.351 . S
C2371 C2372 1.434 . S
C2372 C2363 1.429 . S
C2372 N2369 1.350 . S
C2372 C2371 1.434 . S
C2373 C2374 1.369 . S
C2373 C2375 1.419 . S
C2373 H2377 0.930 . S
C2374 C2373 1.369 . S
C2374 C2383 1.429 . S
C2375 C2373 1.419 . S
C2375 C2376 1.363 . S
C2375 H2378 0.929 . S
C2376 C2375 1.363 . S
C2376 C2382 1.428 . S
H2377 C2373 0.930 . S
H2378 C2375 0.929 . S
S2379 N2380 1.613 . S
S2379 N2381 1.610 . S
N2380 S2379 1.613 . S
N2380 C2383 1.350 . S
N2381 S2379 1.610 . S
N2381 C2382 1.351 . S
C2382 C2376 1.428 . S
C2382 N2381 1.351 . S
C2382 C2383 1.434 . S
C2383 C2374 1.429 . S
C2383 N2380 1.350 . S
C2383 C2382 1.434 . S
C2384 C2385 1.369 . S
C2384 C2386 1.419 . S
C2384 H2388 0.930 . S
C2385 C2384 1.369 . S
C2385 C2394 1.429 . S
C2386 C2384 1.419 . S
C2386 C2387 1.363 . S
C2386 H2389 0.929 . S
C2387 C2386 1.363 . S
C2387 C2393 1.428 . S
H2388 C2384 0.930 . S
H2389 C2386 0.929 . S
S2390 N2391 1.613 . S
S2390 N2392 1.610 . S
N2391 S2390 1.613 . S
N2391 C2394 1.350 . S
N2392 S2390 1.610 . S
N2392 C2393 1.351 . S
C2393 C2387 1.428 . S
C2393 N2392 1.351 . S
C2393 C2394 1.434 . S
C2394 C2385 1.429 . S
C2394 N2391 1.350 . S
C2394 C2393 1.434 . S
C2395 C2396 1.369 . S
C2395 C2397 1.419 . S
C2395 H2399 0.930 . S
C2396 C2395 1.369 . S
C2396 C2405 1.429 . S
C2397 C2395 1.419 . S
C2397 C2398 1.363 . S
C2397 H2400 0.929 . S
C2398 C2397 1.363 . S
C2398 C2404 1.428 . S
H2399 C2395 0.930 . S
H2400 C2397 0.929 . S
S2401 N2402 1.613 . S
S2401 N2403 1.610 . S
N2402 S2401 1.613 . S
N2402 C2405 1.350 . S
N2403 S2401 1.610 . S
N2403 C2404 1.351 . S
C2404 C2398 1.428 . S
C2404 N2403 1.351 . S
C2404 C2405 1.434 . S
C2405 C2396 1.429 . S
C2405 N2402 1.350 . S
C2405 C2404 1.434 . S
C2406 C2407 1.369 . S
C2406 C2408 1.419 . S
C2406 H2410 0.930 1_565 S
C2407 C2406 1.369 . S
C2407 C2416 1.429 . S
C2408 C2406 1.419 . S
C2408 C2409 1.363 . S
C2408 H2411 0.929 . S
C2409 C2408 1.363 . S
C2409 C2415 1.428 . S
H2410 C2406 0.930 1_545 S
H2411 C2408 0.929 . S
S2412 N2413 1.613 . S
S2412 N2414 1.610 . S
N2413 S2412 1.613 . S
N2413 C2416 1.350 . S
N2414 S2412 1.610 . S
N2414 C2415 1.351 . S
C2415 C2409 1.428 . S
C2415 N2414 1.351 . S
C2415 C2416 1.434 . S
C2416 C2407 1.429 . S
C2416 N2413 1.350 . S
C2416 C2415 1.434 . S
C2417 C2418 1.369 . S
C2417 C2419 1.419 . S
C2417 H2421 0.930 . S
C2418 C2417 1.369 . S
C2418 C2427 1.429 1_565 S
C2419 C2417 1.419 . S
C2419 C2420 1.363 1_565 S
C2419 H2422 0.929 . S
C2420 C2419 1.363 1_545 S
C2420 C2426 1.428 . S
H2421 C2417 0.930 . S
H2422 C2419 0.929 . S
S2423 N2424 1.616 1_554 S
S2423 N2425 1.615 . S
N2424 S2423 1.616 1_556 S
N2424 C2427 1.350 1_556 S
N2425 S2423 1.615 . S
N2425 C2426 1.351 . S
C2426 C2420 1.428 . S
C2426 N2425 1.351 . S
C2426 C2427 1.434 . S
C2427 C2418 1.429 1_545 S
C2427 N2424 1.350 1_554 S
C2427 C2426 1.434 . S
C2428 C2429 1.369 . S
C2428 C2430 1.419 . S
C2428 H2432 0.930 . S
C2429 C2428 1.369 . S
C2429 C2438 1.429 . S
C2430 C2428 1.419 . S
C2430 C2431 1.363 . S
C2430 H2433 0.929 . S
C2431 C2430 1.363 . S
C2431 C2437 1.428 . S
H2432 C2428 0.930 . S
H2433 C2430 0.929 . S
S2434 N2435 1.613 . S
S2434 N2436 1.610 . S
N2435 S2434 1.613 . S
N2435 C2438 1.350 . S
N2436 S2434 1.610 . S
N2436 C2437 1.351 . S
C2437 C2431 1.428 . S
C2437 N2436 1.351 . S
C2437 C2438 1.434 . S
C2438 C2429 1.429 . S
C2438 N2435 1.350 . S
C2438 C2437 1.434 . S
C2439 C2440 1.369 . S
C2439 C2441 1.419 . S
C2439 H2443 0.930 . S
C2440 C2439 1.369 . S
C2440 C2449 1.429 . S
C2441 C2439 1.419 . S
C2441 C2442 1.363 . S
C2441 H2444 0.929 . S
C2442 C2441 1.363 . S
C2442 C2448 1.428 . S
H2443 C2439 0.930 . S
H2444 C2441 0.929 . S
S2445 N2446 1.613 . S
S2445 N2447 1.610 . S
N2446 S2445 1.613 . S
N2446 C2449 1.350 . S
N2447 S2445 1.610 . S
N2447 C2448 1.351 . S
C2448 C2442 1.428 . S
C2448 N2447 1.351 . S
C2448 C2449 1.434 . S
C2449 C2440 1.429 . S
C2449 N2446 1.350 . S
C2449 C2448 1.434 . S
C2450 C2451 1.369 . S
C2450 C2452 1.419 . S
C2450 H2454 0.930 . S
C2451 C2450 1.369 . S
C2451 C2460 1.429 . S
C2452 C2450 1.419 . S
C2452 C2453 1.363 . S
C2452 H2455 0.929 . S
C2453 C2452 1.363 . S
C2453 C2459 1.428 . S
H2454 C2450 0.930 . S
H2455 C2452 0.929 . S
S2456 N2457 1.613 . S
S2456 N2458 1.610 . S
N2457 S2456 1.613 . S
N2457 C2460 1.350 . S
N2458 S2456 1.610 . S
N2458 C2459 1.351 . S
C2459 C2453 1.428 . S
C2459 N2458 1.351 . S
C2459 C2460 1.434 . S
C2460 C2451 1.429 . S
C2460 N2457 1.350 . S
C2460 C2459 1.434 . S
C2461 C2462 1.369 . S
C2461 C2463 1.419 . S
C2461 H2465 0.930 . S
C2462 C2461 1.369 . S
C2462 C2471 1.429 . S
C2463 C2461 1.419 . S
C2463 C2464 1.363 . S
C2463 H2466 0.929 . S
C2464 C2463 1.363 . S
C2464 C2470 1.428 . S
H2465 C2461 0.930 . S
H2466 C2463 0.929 . S
S2467 N2468 1.613 . S
S2467 N2469 1.610 . S
N2468 S2467 1.613 . S
N2468 C2471 1.350 . S
N2469 S2467 1.610 . S
N2469 C2470 1.351 . S
C2470 C2464 1.428 . S
C2470 N2469 1.351 . S
C2470 C2471 1.434 . S
C2471 C2462 1.429 . S
C2471 N2468 1.350 . S
C2471 C2470 1.434 . S
C2472 C2473 1.369 . S
C2472 C2474 1.419 . S
C2472 H2476 0.930 . S
C2473 C2472 1.369 . S
C2473 C2482 1.429 . S
C2474 C2472 1.419 . S
C2474 C2475 1.363 . S
C2474 H2477 0.929 . S
C2475 C2474 1.363 . S
C2475 C2481 1.428 . S
H2476 C2472 0.930 . S
H2477 C2474 0.929 . S
S2478 N2479 1.613 . S
S2478 N2480 1.610 . S
N2479 S2478 1.613 . S
N2479 C2482 1.350 . S
N2480 S2478 1.610 . S
N2480 C2481 1.351 . S
C2481 C2475 1.428 . S
C2481 N2480 1.351 . S
C2481 C2482 1.434 . S
C2482 C2473 1.429 . S
C2482 N2479 1.350 . S
C2482 C2481 1.434 . S
C2483 C2484 1.369 . S
C2483 C2485 1.419 . S
C2483 H2487 0.930 . S
C2484 C2483 1.369 . S
C2484 C2493 1.429 . S
C2485 C2483 1.419 . S
C2485 C2486 1.363 . S
C2485 H2488 0.929 . S
C2486 C2485 1.363 . S
C2486 C2492 1.428 . S
H2487 C2483 0.930 . S
H2488 C2485 0.929 . S
S2489 N2490 1.613 . S
S2489 N2491 1.610 . S
N2490 S2489 1.613 . S
N2490 C2493 1.350 . S
N2491 S2489 1.610 . S
N2491 C2492 1.351 . S
C2492 C2486 1.428 . S
C2492 N2491 1.351 . S
C2492 C2493 1.434 . S
C2493 C2484 1.429 . S
C2493 N2490 1.350 . S
C2493 C2492 1.434 . S
C2494 C2495 1.369 . S
C2494 C2496 1.419 . S
C2494 H2498 0.930 . S
C2495 C2494 1.369 . S
C2495 C2504 1.429 . S
C2496 C2494 1.419 . S
C2496 C2497 1.363 . S
C2496 H2499 0.929 . S
C2497 C2496 1.363 . S
C2497 C2503 1.428 . S
H2498 C2494 0.930 . S
H2499 C2496 0.929 . S
S2500 N2501 1.613 . S
S2500 N2502 1.610 . S
N2501 S2500 1.613 . S
N2501 C2504 1.350 . S
N2502 S2500 1.610 . S
N2502 C2503 1.351 . S
C2503 C2497 1.428 . S
C2503 N2502 1.351 . S
C2503 C2504 1.434 . S
C2504 C2495 1.429 . S
C2504 N2501 1.350 . S
C2504 C2503 1.434 . S
C2505 C2506 1.369 . S
C2505 C2507 1.419 . S
C2505 H2509 0.930 . S
C2506 C2505 1.369 . S
C2506 C2515 1.429 . S
C2507 C2505 1.419 . S
C2507 C2508 1.363 . S
C2507 H2510 0.929 . S
C2508 C2507 1.363 . S
C2508 C2514 1.428 . S
H2509 C2505 0.930 . S
H2510 C2507 0.929 . S
S2511 N2512 1.613 . S
S2511 N2513 1.610 . S
N2512 S2511 1.613 . S
N2512 C2515 1.350 . S
N2513 S2511 1.610 . S
N2513 C2514 1.351 . S
C2514 C2508 1.428 . S
C2514 N2513 1.351 . S
C2514 C2515 1.434 . S
C2515 C2506 1.429 . S
C2515 N2512 1.350 . S
C2515 C2514 1.434 . S
C2516 C2517 1.369 . S
C2516 C2518 1.419 . S
C2516 H2520 0.930 . S
C2517 C2516 1.369 . S
C2517 C2526 1.429 . S
C2518 C2516 1.419 . S
C2518 C2519 1.363 . S
C2518 H2521 0.929 . S
C2519 C2518 1.363 . S
C2519 C2525 1.428 . S
H2520 C2516 0.930 . S
H2521 C2518 0.929 . S
S2522 N2523 1.613 . S
S2522 N2524 1.610 . S
N2523 S2522 1.613 . S
N2523 C2526 1.350 . S
N2524 S2522 1.610 . S
N2524 C2525 1.351 . S
C2525 C2519 1.428 . S
C2525 N2524 1.351 . S
C2525 C2526 1.434 . S
C2526 C2517 1.429 . S
C2526 N2523 1.350 . S
C2526 C2525 1.434 . S
C2527 C2528 1.369 . S
C2527 C2529 1.419 . S
C2527 H2531 0.930 . S
C2528 C2527 1.369 . S
C2528 C2537 1.429 . S
C2529 C2527 1.419 . S
C2529 C2530 1.363 . S
C2529 H2532 0.929 . S
C2530 C2529 1.363 . S
C2530 C2536 1.428 . S
H2531 C2527 0.930 . S
H2532 C2529 0.929 . S
S2533 N2534 1.613 . S
S2533 N2535 1.610 . S
N2534 S2533 1.613 . S
N2534 C2537 1.350 . S
N2535 S2533 1.610 . S
N2535 C2536 1.351 . S
C2536 C2530 1.428 . S
C2536 N2535 1.351 . S
C2536 C2537 1.434 . S
C2537 C2528 1.429 . S
C2537 N2534 1.350 . S
C2537 C2536 1.434 . S
C2538 C2539 1.369 . S
C2538 C2540 1.419 . S
C2538 H2542 0.930 . S
C2539 C2538 1.369 . S
C2539 C2548 1.429 . S
C2540 C2538 1.419 . S
C2540 C2541 1.363 . S
C2540 H2543 0.929 . S
C2541 C2540 1.363 . S
C2541 C2547 1.428 . S
H2542 C2538 0.930 . S
H2543 C2540 0.929 . S
S2544 N2545 1.613 . S
S2544 N2546 1.610 . S
N2545 S2544 1.613 . S
N2545 C2548 1.350 . S
N2546 S2544 1.610 . S
N2546 C2547 1.351 . S
C2547 C2541 1.428 . S
C2547 N2546 1.351 . S
C2547 C2548 1.434 . S
C2548 C2539 1.429 . S
C2548 N2545 1.350 . S
C2548 C2547 1.434 . S
C2549 C2550 1.369 . S
C2549 C2551 1.419 . S
C2549 H2553 0.930 . S
C2550 C2549 1.369 . S
C2550 C2559 1.429 . S
C2551 C2549 1.419 . S
C2551 C2552 1.363 . S
C2551 H2554 0.929 . S
C2552 C2551 1.363 . S
C2552 C2558 1.428 . S
H2553 C2549 0.930 . S
H2554 C2551 0.929 . S
S2555 N2556 1.613 . S
S2555 N2557 1.610 . S
N2556 S2555 1.613 . S
N2556 C2559 1.350 . S
N2557 S2555 1.610 . S
N2557 C2558 1.351 . S
C2558 C2552 1.428 . S
C2558 N2557 1.351 . S
C2558 C2559 1.434 . S
C2559 C2550 1.429 . S
C2559 N2556 1.350 . S
C2559 C2558 1.434 . S
C2560 C2561 1.369 . S
C2560 C2562 1.419 . S
C2560 H2564 0.930 . S
C2561 C2560 1.369 . S
C2561 C2570 1.429 . S
C2562 C2560 1.419 . S
C2562 C2563 1.363 . S
C2562 H2565 0.929 . S
C2563 C2562 1.363 . S
C2563 C2569 1.428 . S
H2564 C2560 0.930 . S
H2565 C2562 0.929 . S
S2566 N2567 1.613 . S
S2566 N2568 1.610 . S
N2567 S2566 1.613 . S
N2567 C2570 1.350 . S
N2568 S2566 1.610 . S
N2568 C2569 1.351 . S
C2569 C2563 1.428 . S
C2569 N2568 1.351 . S
C2569 C2570 1.434 . S
C2570 C2561 1.429 . S
C2570 N2567 1.350 . S
C2570 C2569 1.434 . S
C2571 C2572 1.369 . S
C2571 C2573 1.419 . S
C2571 H2575 0.930 . S
C2572 C2571 1.369 . S
C2572 C2581 1.429 . S
C2573 C2571 1.419 . S
C2573 C2574 1.363 . S
C2573 H2576 0.929 . S
C2574 C2573 1.363 . S
C2574 C2580 1.428 . S
H2575 C2571 0.930 . S
H2576 C2573 0.929 . S
S2577 N2578 1.613 . S
S2577 N2579 1.610 . S
N2578 S2577 1.613 . S
N2578 C2581 1.350 . S
N2579 S2577 1.610 . S
N2579 C2580 1.351 . S
C2580 C2574 1.428 . S
C2580 N2579 1.351 . S
C2580 C2581 1.434 . S
C2581 C2572 1.429 . S
C2581 N2578 1.350 . S
C2581 C2580 1.434 . S
C2582 C2583 1.369 . S
C2582 C2584 1.419 . S
C2582 H2586 0.930 . S
C2583 C2582 1.369 . S
C2583 C2592 1.429 . S
C2584 C2582 1.419 . S
C2584 C2585 1.363 . S
C2584 H2587 0.929 . S
C2585 C2584 1.363 . S
C2585 C2591 1.428 . S
H2586 C2582 0.930 . S
H2587 C2584 0.929 . S
S2588 N2589 1.613 . S
S2588 N2590 1.610 1_655 S
N2589 S2588 1.613 . S
N2589 C2592 1.350 . S
N2590 S2588 1.610 1_455 S
N2590 C2591 1.351 1_455 S
C2591 C2585 1.428 . S
C2591 N2590 1.351 1_655 S
C2591 C2592 1.434 . S
C2592 C2583 1.429 . S
C2592 N2589 1.350 . S
C2592 C2591 1.434 . S
C2593 C2594 1.369 . S
C2593 C2595 1.419 . S
C2593 H2597 0.930 . S
C2594 C2593 1.369 . S
C2594 C2603 1.429 . S
C2595 C2593 1.419 . S
C2595 C2596 1.363 . S
C2595 H2598 0.929 . S
C2596 C2595 1.363 . S
C2596 C2602 1.428 . S
H2597 C2593 0.930 . S
H2598 C2595 0.929 . S
S2599 N2600 1.613 . S
S2599 N2601 1.610 . S
N2600 S2599 1.613 . S
N2600 C2603 1.350 . S
N2601 S2599 1.610 . S
N2601 C2602 1.351 . S
C2602 C2596 1.428 . S
C2602 N2601 1.351 . S
C2602 C2603 1.434 . S
C2603 C2594 1.429 . S
C2603 N2600 1.350 . S
C2603 C2602 1.434 . S
C2604 C2605 1.369 . S
C2604 C2606 1.419 . S
C2604 H2608 0.930 . S
C2605 C2604 1.369 . S
C2605 C2614 1.429 . S
C2606 C2604 1.419 . S
C2606 C2607 1.363 . S
C2606 H2609 0.929 . S
C2607 C2606 1.363 . S
C2607 C2613 1.428 . S
H2608 C2604 0.930 . S
H2609 C2606 0.929 . S
S2610 N2611 1.613 . S
S2610 N2612 1.610 . S
N2611 S2610 1.613 . S
N2611 C2614 1.350 . S
N2612 S2610 1.610 . S
N2612 C2613 1.351 . S
C2613 C2607 1.428 . S
C2613 N2612 1.351 . S
C2613 C2614 1.434 . S
C2614 C2605 1.429 . S
C2614 N2611 1.350 . S
C2614 C2613 1.434 . S
C2615 C2616 1.369 . S
C2615 C2617 1.419 . S
C2615 H2619 0.930 . S
C2616 C2615 1.369 . S
C2616 C2625 1.429 . S
C2617 C2615 1.419 . S
C2617 C2618 1.363 . S
C2617 H2620 0.929 . S
C2618 C2617 1.363 . S
C2618 C2624 1.428 . S
H2619 C2615 0.930 . S
H2620 C2617 0.929 . S
S2621 N2622 1.613 . S
S2621 N2623 1.610 . S
N2622 S2621 1.613 . S
N2622 C2625 1.350 . S
N2623 S2621 1.610 . S
N2623 C2624 1.351 . S
C2624 C2618 1.428 . S
C2624 N2623 1.351 . S
C2624 C2625 1.434 . S
C2625 C2616 1.429 . S
C2625 N2622 1.350 . S
C2625 C2624 1.434 . S
C2626 C2627 1.369 . S
C2626 C2628 1.419 . S
C2626 H2630 0.930 . S
C2627 C2626 1.369 . S
C2627 C2636 1.429 . S
C2628 C2626 1.419 . S
C2628 C2629 1.363 . S
C2628 H2631 0.929 . S
C2629 C2628 1.363 . S
C2629 C2635 1.428 . S
H2630 C2626 0.930 . S
H2631 C2628 0.929 . S
S2632 N2633 1.613 . S
S2632 N2634 1.610 . S
N2633 S2632 1.613 . S
N2633 C2636 1.350 . S
N2634 S2632 1.610 . S
N2634 C2635 1.351 . S
C2635 C2629 1.428 . S
C2635 N2634 1.351 . S
C2635 C2636 1.434 . S
C2636 C2627 1.429 . S
C2636 N2633 1.350 . S
C2636 C2635 1.434 . S
C2637 C2638 1.369 . S
C2637 C2639 1.419 . S
C2637 H2641 0.930 . S
C2638 C2637 1.369 . S
C2638 C2647 1.429 . S
C2639 C2637 1.419 . S
C2639 C2640 1.363 . S
C2639 H2642 0.929 . S
C2640 C2639 1.363 . S
C2640 C2646 1.428 . S
H2641 C2637 0.930 . S
H2642 C2639 0.929 . S
S2643 N2644 1.613 . S
S2643 N2645 1.610 . S
N2644 S2643 1.613 . S
N2644 C2647 1.350 . S
N2645 S2643 1.610 . S
N2645 C2646 1.351 . S
C2646 C2640 1.428 . S
C2646 N2645 1.351 . S
C2646 C2647 1.434 . S
C2647 C2638 1.429 . S
C2647 N2644 1.350 . S
C2647 C2646 1.434 . S
C2648 C2649 1.369 . S
C2648 C2650 1.419 . S
C2648 H2652 0.930 . S
C2649 C2648 1.369 . S
C2649 C2658 1.429 . S
C2650 C2648 1.419 . S
C2650 C2651 1.363 . S
C2650 H2653 0.929 . S
C2651 C2650 1.363 . S
C2651 C2657 1.428 . S
H2652 C2648 0.930 . S
H2653 C2650 0.929 . S
S2654 N2655 1.613 . S
S2654 N2656 1.610 . S
N2655 S2654 1.613 . S
N2655 C2658 1.350 . S
N2656 S2654 1.610 . S
N2656 C2657 1.351 . S
C2657 C2651 1.428 . S
C2657 N2656 1.351 . S
C2657 C2658 1.434 . S
C2658 C2649 1.429 . S
C2658 N2655 1.350 . S
C2658 C2657 1.434 . S
C2659 C2660 1.369 . S
C2659 C2661 1.419 . S
C2659 H2663 0.930 . S
C2660 C2659 1.369 . S
C2660 C2669 1.429 . S
C2661 C2659 1.419 . S
C2661 C2662 1.363 . S
C2661 H2664 0.916 1_565 S
C2662 C2661 1.363 . S
C2662 C2668 1.428 . S
H2663 C2659 0.930 . S
H2664 C2661 0.916 1_545 S
S2665 N2666 1.613 . S
S2665 N2667 1.610 . S
N2666 S2665 1.613 . S
N2666 C2669 1.350 . S
N2667 S2665 1.610 . S
N2667 C2668 1.351 . S
C2668 C2662 1.428 . S
C2668 N2667 1.351 . S
C2668 C2669 1.434 . S
C2669 C2660 1.429 . S
C2669 N2666 1.350 . S
C2669 C2668 1.434 . S
C2670 C2671 1.369 . S
C2670 C2672 1.419 . S
C2670 H2674 0.930 . S
C2671 C2670 1.369 . S
C2671 C2680 1.429 . S
C2672 C2670 1.419 . S
C2672 C2673 1.363 . S
C2672 H2675 0.929 . S
C2673 C2672 1.363 . S
C2673 C2679 1.428 . S
H2674 C2670 0.930 . S
H2675 C2672 0.929 . S
S2676 N2677 1.613 . S
S2676 N2678 1.610 . S
N2677 S2676 1.613 . S
N2677 C2680 1.350 . S
N2678 S2676 1.610 . S
N2678 C2679 1.351 . S
C2679 C2673 1.428 . S
C2679 N2678 1.351 . S
C2679 C2680 1.434 . S
C2680 C2671 1.429 . S
C2680 N2677 1.350 . S
C2680 C2679 1.434 . S
C2681 C2682 1.369 . S
C2681 C2683 1.419 . S
C2681 H2685 0.930 . S
C2682 C2681 1.369 . S
C2682 C2691 1.429 . S
C2683 C2681 1.419 . S
C2683 C2684 1.363 . S
C2683 H2686 0.929 . S
C2684 C2683 1.363 . S
C2684 C2690 1.428 . S
H2685 C2681 0.930 . S
H2686 C2683 0.929 . S
S2687 N2688 1.613 . S
S2687 N2689 1.610 . S
N2688 S2687 1.613 . S
N2688 C2691 1.350 . S
N2689 S2687 1.610 . S
N2689 C2690 1.351 . S
C2690 C2684 1.428 . S
C2690 N2689 1.351 . S
C2690 C2691 1.434 . S
C2691 C2682 1.429 . S
C2691 N2688 1.350 . S
C2691 C2690 1.434 . S
C2692 C2693 1.369 . S
C2692 C2694 1.419 . S
C2692 H2696 0.930 . S
C2693 C2692 1.369 . S
C2693 C2702 1.429 . S
C2694 C2692 1.419 . S
C2694 C2695 1.363 . S
C2694 H2697 0.929 . S
C2695 C2694 1.363 . S
C2695 C2701 1.428 . S
H2696 C2692 0.930 . S
H2697 C2694 0.929 . S
S2698 N2699 1.613 . S
S2698 N2700 1.610 . S
N2699 S2698 1.613 . S
N2699 C2702 1.350 . S
N2700 S2698 1.610 . S
N2700 C2701 1.351 . S
C2701 C2695 1.428 . S
C2701 N2700 1.351 . S
C2701 C2702 1.434 . S
C2702 C2693 1.429 . S
C2702 N2699 1.350 . S
C2702 C2701 1.434 . S
C2703 C2704 1.369 . S
C2703 C2705 1.419 . S
C2703 H2707 0.930 . S
C2704 C2703 1.369 . S
C2704 C2713 1.429 . S
C2705 C2703 1.419 . S
C2705 C2706 1.363 . S
C2705 H2708 0.929 . S
C2706 C2705 1.363 . S
C2706 C2712 1.428 . S
H2707 C2703 0.930 . S
H2708 C2705 0.929 . S
S2709 N2710 1.613 . S
S2709 N2711 1.610 . S
N2710 S2709 1.613 . S
N2710 C2713 1.350 . S
N2711 S2709 1.610 . S
N2711 C2712 1.351 . S
C2712 C2706 1.428 . S
C2712 N2711 1.351 . S
C2712 C2713 1.434 . S
C2713 C2704 1.429 . S
C2713 N2710 1.350 . S
C2713 C2712 1.434 . S
C2714 C2715 1.369 . S
C2714 C2716 1.419 . S
C2714 H2718 0.930 . S
C2715 C2714 1.369 . S
C2715 C2724 1.429 . S
C2716 C2714 1.419 . S
C2716 C2717 1.363 . S
C2716 H2719 0.929 . S
C2717 C2716 1.363 . S
C2717 C2723 1.428 . S
H2718 C2714 0.930 . S
H2719 C2716 0.929 . S
S2720 N2721 1.613 . S
S2720 N2722 1.610 . S
N2721 S2720 1.613 . S
N2721 C2724 1.350 . S
N2722 S2720 1.610 . S
N2722 C2723 1.351 . S
C2723 C2717 1.428 . S
C2723 N2722 1.351 . S
C2723 C2724 1.434 . S
C2724 C2715 1.429 . S
C2724 N2721 1.350 . S
C2724 C2723 1.434 . S
C2725 C2726 1.369 . S
C2725 C2727 1.419 . S
C2725 H2729 0.930 . S
C2726 C2725 1.369 . S
C2726 C2735 1.429 . S
C2727 C2725 1.419 . S
C2727 C2728 1.363 . S
C2727 H2730 0.929 . S
C2728 C2727 1.363 . S
C2728 C2734 1.428 . S
H2729 C2725 0.930 . S
H2730 C2727 0.929 . S
S2731 N2732 1.613 . S
S2731 N2733 1.610 . S
N2732 S2731 1.613 . S
N2732 C2735 1.350 . S
N2733 S2731 1.610 . S
N2733 C2734 1.351 . S
C2734 C2728 1.428 . S
C2734 N2733 1.351 . S
C2734 C2735 1.434 . S
C2735 C2726 1.429 . S
C2735 N2732 1.350 . S
C2735 C2734 1.434 . S
C1681 C105 2.331 1_454 S
C1683 C392 2.321 . S
C1692 C65 1.978 . S
C1694 C494 1.984 . S
C1703 C73 1.956 . S
C1705 C560 1.989 . S
C1716 C646 1.358 . S
C1714 C92 1.422 . S
C1725 C17 1.470 . S
C1727 C730 1.377 . S
C1738 C812 1.943 . S
C1736 C37 1.895 . S
C1749 C914 1.987 . S
C1747 C49 1.845 . S
C1758 C8 2.245 . S
C1760 C980 2.248 . S
C1771 C410 1.845 . S
C1769 C231 1.884 . S
C1780 C241 1.023 . S
C1782 C478 0.965 . S
C1793 C578 1.282 . S
C1791 C273 1.208 . S
C1804 C644 1.666 . S
C1802 C171 1.666 1_556 S
C1813 C227 1.653 . S
C1815 C728 1.655 . S
C1826 C830 1.293 . S
C1824 C245 1.223 . S
C1837 C898 0.964 . S
C1835 C269 1.017 . S
C1848 C998 1.834 . S
C1846 C175 1.875 . S
C1859 C394 1.243 . S
C1857 C162 1.225 1_554 S
C1868 C289 1.731 . S
C1870 C1082 1.730 . S
C1881 C1150 1.429 . S
C1879 C330 1.447 . S
C1892 C1232 0.884 . S
C1890 C317 0.884 . S
C1901 C120 1.193 . S
C1903 C982 1.219 . S
C1912 C134 1.452 . S
C1914 C562 1.426 . S
C1923 C331 1.702 . S
C1925 C1334 1.703 . S
C1936 C1400 0.826 . S
C1934 C303 0.827 . S
C1947 C403 2.336 . S
C1945 C59 2.293 . S
C1958 C1407 2.015 . S
C1956 C107 2.000 . S
C1967 C91 2.012 . S
C1969 C571 2.030 . S
C1978 C78 1.432 . S
C1980 C1329 1.374 . S
C1991 C741 1.401 . S
C1989 C7 1.438 . S
C2000 C51 1.918 . S
C2002 C1159 1.979 . S
C2013 C903 2.016 1_556 S
C2011 C31 2.005 . S
C2024 C1495 2.269 . S
C2022 C22 2.238 . S
C2035 C399 1.873 . S
C2033 C143 1.910 . S
C2046 C1413 0.984 . S
C2044 C315 1.019 . S
C2055 C115 1.293 . S
C2057 C567 1.288 . S
C2066 C287 1.668 . S
C2068 C1327 1.701 . S
C2077 C147 1.667 . S
C2079 C739 1.692 . S
C2090 C1155 1.309 . S
C2088 C311 1.305 . S
C2099 C119 1.013 . S
C2101 C909 0.978 . S
C2110 C283 1.899 . S
C2112 C1491 1.859 . S
C2121 C190 1.187 . S
C2123 C405 1.228 . S
C2132 C177 1.743 . S
C2134 C1071 1.749 . S
C2143 C260 1.424 . S
C2145 C825 1.415 . S
C2154 C247 0.907 . S
C2156 C1243 0.919 . S
C2167 C1497 1.201 . S
C2165 C274 1.159 . S
C2176 C218 1.430 . S
C2178 C573 1.410 . S
C2189 C651 1.725 . S
C2187 C261 1.718 . S
C2200 C487 0.856 . S
C2198 C205 0.853 . S
C2209 C77 2.332 . S
C2211 C1568 2.321 . S
C2222 C1418 1.983 . S
C2220 C93 1.976 . S
C2231 C101 1.955 1_554 S
C2233 C1652 1.989 . S
C2242 C64 1.424 1_655 S
C2244 C1318 1.363 . S
C2253 C45 1.469 . S
C2255 C1066 1.382 . S
C2266 C1148 1.944 . S
C2264 C9 1.892 . S
C2277 C1250 1.984 . S
C2275 C21 1.838 . S
C2288 C1484 2.248 . S
C2286 C36 2.244 . S
C2299 C1586 1.845 . S
C2297 C259 1.884 . S
C2308 C185 1.018 . S
C2310 C1402 0.971 . S
C2321 C1670 1.281 . S
C2319 C203 1.211 . S
C2332 C1316 1.666 . S
C2330 C213 1.666 . S
C2343 C1064 1.655 . S
C2341 C255 1.652 . S
C2352 C189 1.222 . S
C2354 C1166 1.295 . S
C2365 C1234 0.962 . S
C2363 C199 1.013 . S
C2374 C217 1.879 . S
C2376 C1502 1.834 . S
C2387 C1570 1.245 . S
C2385 C316 1.225 . S
C2396 C135 1.729 . S
C2398 C746 1.728 . S
C2409 C814 1.428 . S
C2407 C148 1.448 1_565 S
C2420 C896 0.884 . S
C2418 C163 0.883 . S
C2431 C1486 1.220 . S
C2429 C302 1.202 . S
C2440 C288 1.446 . S
C2442 C1654 1.422 . S
C2453 C662 1.702 . S
C2451 C149 1.702 . S
C2464 C476 0.826 . S
C2462 C121 0.826 . S
C2473 C87 2.291 . S
C2475 C1579 2.338 . S
C2486 C483 2.013 . S
C2484 C79 1.996 . S
C2495 C63 2.011 . S
C2497 C1663 2.030 . S
C2506 C106 1.436 . S
C2508 C657 1.382 . S
C2517 C35 1.436 . S
C2519 C1077 1.403 . S
C2530 C823 1.978 . S
C2528 C23 1.917 . S
C2539 C3 2.005 . S
C2541 C1239 2.016 . S
C2550 C50 2.238 . S
C2552 C991 2.269 . S
C2563 C1575 1.873 . S
C2561 C325 1.910 . S
C2572 C161 1.017 . S
C2574 C489 0.977 . S
C2585 C1659 1.292 1_655 S
C2583 C297 1.288 . S
C2594 C133 1.669 . S
C2596 C655 1.700 . S
C2605 C329 1.661 . S
C2607 C1075 1.693 . S
C2618 C819 1.303 . S
C2616 C157 1.311 . S
C2627 C301 1.012 . S
C2629 C1245 0.970 . S
C2640 C987 1.859 . S
C2638 C129 1.900 . S
C2651 C1581 1.234 . S
C2649 C246 1.195 . S
C2662 C735 1.749 1_565 S
C2660 C219 1.743 . S
C2671 C232 1.426 . S
C2673 C1161 1.418 . S
C2684 C907 0.918 . S
C2682 C191 0.914 . S
C2693 C204 1.166 . S
C2695 C993 1.202 . S
C2704 C176 1.437 . S
C2706 C1665 1.415 . S
C2717 C1323 1.725 . S
C2715 C233 1.717 . S
C2728 C1411 0.856 . S
C2726 C275 0.855 . S
