# Generated by pormake.
# Topology scu, (8,4)-cn, num edge types: 1
# Building blocks:
#     Node 0, Type 0, BuildingBlock: GIZVER_clean_sbu_0, # of connection points: 8
#     Node 1, Type 1, BuildingBlock: KOZSID_clean_sbu_0, # of connection points: 4
#     Node 2, Type 1, BuildingBlock: KOZSID_clean_sbu_0, # of connection points: 4
#     Edge 3, Type (0, 1), BuildingBlock: XIVTED_clean_linker_0, # of connection points: 2
#     Edge 4, Type (0, 1), BuildingBlock: XIVTED_clean_linker_0, # of connection points: 2
#     Edge 5, Type (0, 1), BuildingBlock: XIVTED_clean_linker_0, # of connection points: 2
#     Edge 6, Type (0, 1), BuildingBlock: XIVTED_clean_linker_0, # of connection points: 2
#     Edge 7, Type (0, 1), BuildingBlock: XIVTED_clean_linker_0, # of connection points: 2
#     Edge 8, Type (0, 1), BuildingBlock: XIVTED_clean_linker_0, # of connection points: 2
#     Edge 9, Type (0, 1), BuildingBlock: XIVTED_clean_linker_0, # of connection points: 2
#     Edge 10, Type (0, 1), BuildingBlock: XIVTED_clean_linker_0, # of connection points: 2
# Relax obj value: 0.045
# Max RMSD: 0.113
# Mean RMSD: 0.103
data_MOF--net-scu--node1-GIZVER_clean_sbu_0--node2-KOZSID_clean_sbu_0--edge1-XIVTED_clean_linker_0
_symmetry_space_group_name_H-M    P1
_symmetry_Int_Tables_number       1
_symmetry_cell_setting            triclinic
loop_
_symmetry_equiv_pos_as_xyz
'x, y, z'
_cell_length_a     26.828054
_cell_length_b     27.345383
_cell_length_c     24.058752
_cell_angle_alpha  95.148817
_cell_angle_beta   78.607063
_cell_angle_gamma 112.07635
loop_
_atom_site_label
_atom_site_type_symbol
_atom_site_fract_x
_atom_site_fract_y
_atom_site_fract_z
_atom_type_partial_charge
Co0 Co 0.01217 0.94626 0.12879 0.0
Co1 Co 0.09987 0.01941 0.07919 0.0
Co2 Co 1.00335 0.01078 0.01653 0.0
O3 O 0.03889 0.97262 0.05277 0.0
H4 H 0.04919 0.94747 0.02693 0.0
O5 O 0.96755 0.04843 0.98016 0.0
Co6 Co 0.99395 0.07443 0.90398 0.0
Co7 Co 0.90634 1.0007 0.95406 0.0
H8 H 0.95714 0.07357 1.00591 0.0
O9 O 0.15515 0.99784 0.08694 0.0
O10 O 0.08124 0.99525 0.15259 0.0
O11 O 0.1096 0.09279 0.08486 0.0
O12 O 0.02807 0.07804 0.0637 0.0
O13 O 0.07125 0.03666 0.95772 0.0
O14 O 0.01597 0.10315 0.83563 0.0
O15 O 0.96709 0.12744 0.91249 0.0
O16 O 0.02839 0.02411 0.88471 0.0
O17 O 0.97894 0.94378 0.96921 0.0
O18 O 0.89688 0.92709 0.9485 0.0
O19 O 0.92508 0.02466 0.8805 0.0
O20 O 0.85077 0.02171 0.94558 0.0
C21 C 0.01406 0.88576 0.17335 0.0
C22 C 0.93624 0.99277 0.12846 0.0
C23 C 0.07037 0.10767 0.08391 0.0
C24 C 0.12832 0.98952 0.13859 0.0
C25 C 0.99117 0.13447 0.85936 0.0
C26 C 0.07048 0.02829 0.90471 0.0
C27 C 0.93697 0.9134 0.94903 0.0
C28 C 0.87785 0.03008 0.89405 0.0
O29 O 0.98963 0.9174 0.19693 0.0
O30 O 0.03837 0.89268 0.12027 0.0
O31 O 0.93542 0.98501 0.07539 0.0
O32 O 0.97851 0.997 0.14811 0.0
C33 C 0.06248 0.60664 0.43781 0.0
C34 C 0.11334 0.64583 0.42161 0.0
C35 C 0.14887 0.6361 0.44843 0.0
C36 C 0.11784 0.59197 0.47974 0.0
N37 N 0.06461 0.57261 0.47437 0.0
Co38 Co 0.005 0.51086 0.5157 0.0
N39 N 0.05804 0.4949 0.55265 0.0
C40 C 0.11287 0.52065 0.54457 0.0
C41 C 0.13898 0.50039 0.57443 0.0
C42 C 0.09853 0.45882 0.60299 0.0
C43 C 0.04979 0.45604 0.58879 0.0
N44 N 0.94505 0.45069 0.55907 0.0
C45 C 0.94699 0.41729 0.59649 0.0
C46 C 0.8952 0.38169 0.61749 0.0
C47 C 0.85932 0.39311 0.59286 0.0
C48 C 0.89099 0.43479 0.55827 0.0
N49 N 0.95238 0.5251 0.47651 0.0
C50 C 0.89817 0.49693 0.48144 0.0
C51 C 0.87276 0.51419 0.44768 0.0
C52 C 0.91315 0.5559 0.41928 0.0
C53 C 0.96104 0.56203 0.43784 0.0
N54 N 0.01631 0.46231 0.45205 0.0
C55 C 0.03304 0.39263 0.36257 0.0
C56 C 0.98055 0.38576 0.39231 0.0
C57 C 0.97317 0.42076 0.43639 0.0
C58 C 0.07688 0.43539 0.37824 0.0
C59 C 0.06772 0.4693 0.42268 0.0
N60 N 0.99375 0.55958 0.57947 0.0
C61 C 0.93626 0.60076 0.63974 0.0
C62 C 0.97892 0.63095 0.66824 0.0
C63 C 0.02881 0.62382 0.6519 0.0
C64 C 0.0354 0.5888 0.60767 0.0
C65 C 0.94432 0.56537 0.59634 0.0
H66 H 0.07479 0.58629 0.59714 0.0
H67 H 0.90994 0.54344 0.57682 0.0
H68 H 0.93219 0.41316 0.45744 0.0
H69 H 0.10297 0.50087 0.43256 0.0
C70 C 0.13806 0.5659 0.5117 0.0
C71 C 0.01341 0.60393 0.41785 0.0
C72 C 0.99679 0.41641 0.61176 0.0
C73 C 0.87179 0.4567 0.52085 0.0
H74 H 0.12378 0.67817 0.39331 0.0
H75 H 0.19228 0.65829 0.4451 0.0
H76 H 0.18218 0.51468 0.57599 0.0
H77 H 0.10423 0.43376 0.63158 0.0
H78 H 0.88444 0.35005 0.6468 0.0
H79 H 0.81548 0.37255 0.59836 0.0
H80 H 0.82985 0.49872 0.44462 0.0
H81 H 0.90785 0.57937 0.38863 0.0
H82 H 0.94519 0.35291 0.38249 0.0
H83 H 0.11829 0.4431 0.35611 0.0
H84 H 0.89687 0.60488 0.64992 0.0
H85 H 0.06301 0.64497 0.67317 0.0
C86 C 0.41036 0.9646 0.61587 0.0
C87 C 0.3784 0.91715 0.64253 0.0
C88 C 0.39563 0.87947 0.61362 0.0
C89 C 0.43704 0.90595 0.57124 0.0
N90 N 0.44784 0.95845 0.57166 0.0
Co91 Co 0.50355 0.01146 0.51645 0.0
N92 N 0.52618 0.95532 0.47146 0.0
C93 C 0.5051 0.90292 0.48167 0.0
C94 C 0.52965 0.87436 0.44433 0.0
C95 C 0.5693 0.9107 0.40846 0.0
C96 C 0.56671 0.95955 0.42621 0.0
N97 N 0.55927 0.06445 0.46115 0.0
C98 C 0.59661 0.05826 0.41679 0.0
C99 C 0.62889 0.10581 0.39048 0.0
C100 C 0.61171 0.14349 0.41946 0.0
C101 C 0.57017 0.11698 0.4617 0.0
N102 N 0.48093 0.06761 0.56152 0.0
C103 C 0.50184 0.11997 0.5511 0.0
C104 C 0.47712 0.14851 0.58822 0.0
C105 C 0.43758 0.11222 0.62423 0.0
C106 C 0.44056 0.06342 0.60696 0.0
N107 N 0.55993 0.02267 0.56375 0.0
C108 C 0.64207 0.03849 0.62787 0.0
C109 C 0.63359 0.08127 0.60963 0.0
C110 C 0.5929 0.07255 0.57751 0.0
C111 C 0.60866 0.98768 0.61387 0.0
C112 C 0.56787 0.98072 0.58247 0.0
N113 N 0.44714 1.00026 0.4692 0.0
C114 C 0.39819 0.03542 0.41963 0.0
C115 C 0.36411 0.98467 0.40638 0.0
C116 C 0.37257 0.94179 0.42443 0.0
C117 C 0.41375 0.95041 0.45588 0.0
C118 C 0.43939 0.04226 0.45036 0.0
H119 H 0.41744 0.9161 0.46924 0.0
H120 H 0.46432 0.08193 0.45843 0.0
H121 H 0.58918 0.10682 0.56411 0.0
H122 H 0.54335 0.94103 0.5739 0.0
C123 C 0.46431 0.88219 0.52857 0.0
C124 C 0.40243 0.01405 0.6333 0.0
C125 C 0.6048 1.00884 0.39978 0.0
C126 C 0.54277 0.14069 0.50429 0.0
H127 H 0.34542 0.91039 0.67857 0.0
H128 H 0.37906 0.83756 0.6217 0.0
H129 H 0.52064 0.8323 0.44404 0.0
H130 H 0.59761 0.90237 0.37374 0.0
H131 H 0.66221 0.11275 0.35478 0.0
H132 H 0.62848 0.18544 0.41159 0.0
H133 H 0.48587 0.19051 0.58821 0.0
H134 H 0.40899 0.12063 0.65854 0.0
H135 H 0.65876 0.12138 0.61941 0.0
H136 H 0.61327 0.95333 0.62795 0.0
H137 H 0.39368 0.06984 0.40555 0.0
H138 H 0.34696 0.90172 0.41512 0.0
H139 H 0.99094 0.1506 0.09814 0.0
H140 H 0.1176 0.35617 0.33752 0.0
H141 H 0.14739 0.17645 0.14247 0.0
H142 H 0.96929 0.3428 0.28222 0.0
H143 H 0.13088 0.29318 0.2633 0.0
H144 H 0.98439 0.22387 0.16135 0.0
C145 C 0.02433 0.17209 0.12045 0.0
C146 C 0.06969 0.15694 0.11505 0.0
C147 C 0.09556 0.3042 0.26714 0.0
C148 C 0.06197 0.24063 0.18829 0.0
C149 C 0.08805 0.34048 0.30946 0.0
C150 C 0.04216 0.355 0.31643 0.0
C151 C 0.05682 0.2818 0.23144 0.0
C152 C 0.00482 0.3323 0.27921 0.0
C153 C 0.02041 0.21387 0.15677 0.0
C154 C 0.11155 0.18642 0.14526 0.0
N155 N 0.01286 0.29674 0.23855 0.0
N156 N 0.10641 0.22642 0.18089 0.0
H157 H 0.92149 1.0015 0.24421 0.0
H158 H 0.6227 0.01481 0.28411 0.0
H159 H 0.84089 0.99453 0.10348 0.0
H160 H 0.69762 1.00239 0.4221 0.0
H161 H 0.70385 0.01253 0.21671 0.0
H162 H 0.8418 1.00716 0.30938 0.0
C163 C 0.88709 1.0013 0.22687 0.0
C164 C 0.88804 0.99739 0.16807 0.0
C165 C 0.70264 1.0104 0.26171 0.0
C166 C 0.79608 1.00389 0.24303 0.0
C167 C 0.65651 0.01182 0.29998 0.0
C168 C 0.65401 1.00896 0.35837 0.0
C169 C 0.74646 1.00619 0.2822 0.0
C170 C 0.69838 1.00483 0.37724 0.0
C171 C 0.84143 1.00444 0.26427 0.0
C172 C 0.84201 0.9973 0.14841 0.0
N173 N 0.74281 1.00362 0.3393 0.0
N174 N 0.79793 1.00049 0.18579 0.0
H175 H 0.96664 0.86354 0.28389 0.0
H176 H 0.06264 0.62218 0.30621 0.0
H177 H 0.06407 0.81263 0.14316 0.0
H178 H 0.96945 0.68004 0.44423 0.0
H179 H 0.06454 0.69074 0.24508 0.0
H180 H 0.96793 0.79606 0.34208 0.0
C181 C 0.98837 0.83812 0.26501 0.0
C182 C 0.01514 0.84389 0.20819 0.0
C183 C 0.04374 0.68851 0.28873 0.0
C184 C 0.01681 0.7657 0.27548 0.0
C185 C 0.04273 0.64951 0.32351 0.0
C186 C 0.01586 0.64568 0.38018 0.0
C187 C 0.01756 0.72382 0.31086 0.0
C188 C 0.99052 0.68174 0.40073 0.0
C189 C 0.9891 0.79941 0.29851 0.0
C190 C 0.04266 0.80957 0.1866 0.0
N191 N 0.99194 0.71916 0.36616 0.0
N192 N 0.04274 0.77191 0.22023 0.0
H193 H 0.20548 0.94498 0.12175 0.0
H194 H 0.28902 0.03224 0.42203 0.0
H195 H 0.10885 1.00596 0.25359 0.0
H196 H 0.34157 0.91956 0.31416 0.0
H197 H 0.22289 0.02396 0.36123 0.0
H198 H 0.25552 0.93486 0.19164 0.0
C199 C 0.19452 0.95584 0.16558 0.0
C200 C 0.15356 0.97706 0.18186 0.0
C201 C 0.2484 1.00055 0.35129 0.0
C202 C 0.21108 0.96622 0.26186 0.0
C203 C 0.28634 1.00555 0.38568 0.0
C204 C 0.32099 0.97683 0.37274 0.0
C205 C 0.24584 0.96733 0.30307 0.0
C206 C 0.3155 0.9423 0.32563 0.0
C207 C 0.22294 0.94986 0.20548 0.0
C208 C 0.14044 0.98977 0.23929 0.0
N209 N 0.27915 0.93904 0.29202 0.0
N210 N 0.16982 0.98503 0.27716 0.0
H211 H 0.85353 0.83045 0.91132 0.0
H212 H 0.05589 0.72576 0.69472 0.0
H213 H 0.02708 0.8876 0.91126 0.0
H214 H 0.88617 0.62682 0.74579 0.0
H215 H 0.04446 0.78911 0.76893 0.0
H216 H 0.86256 0.75838 0.8466 0.0
C217 C 0.89333 0.82748 0.89841 0.0
C218 C 0.93958 0.86524 0.91685 0.0
C219 C 0.00981 0.75334 0.76409 0.0
C220 C 0.95027 0.7837 0.84194 0.0
C221 C 0.01631 0.71678 0.72177 0.0
C222 C 0.97207 0.67019 0.71372 0.0
C223 C 0.95847 0.74414 0.79832 0.0
C224 C 0.92139 0.66228 0.74947 0.0
C225 C 0.89843 0.78638 0.86145 0.0
C226 C 0.99018 0.85941 0.89851 0.0
N227 N 0.9159 0.69899 0.78991 0.0
N228 N 0.99425 0.81993 0.86156 0.0
H229 H 0.07864 0.99978 0.79219 0.0
H230 H 0.39677 0.04343 0.74541 0.0
H231 H 0.17205 0.04414 0.92784 0.0
H232 H 0.29771 0.98382 0.61592 0.0
H233 H 0.31546 0.04441 0.81327 0.0
H234 H 0.15857 0.99392 0.72744 0.0
C235 C 0.11593 1.00823 0.80849 0.0
C236 C 0.11852 0.02273 0.86568 0.0
C237 C 0.31138 0.03093 0.7701 0.0
C238 C 0.21074 0.0162 0.79123 0.0
C239 C 0.35769 0.03044 0.73156 0.0
C240 C 0.35351 0.01367 0.67534 0.0
C241 C 0.26068 0.01467 0.75206 0.0
C242 C 0.30228 0.99708 0.65905 0.0
C243 C 0.16165 1.00479 0.77138 0.0
C244 C 0.16808 0.0329 0.88416 0.0
N245 N 0.25789 0.99818 0.69716 0.0
N246 N 0.21226 0.0297 0.84702 0.0
H247 H 0.9449 0.20995 0.89208 0.0
H248 H 0.03228 0.33499 0.58116 0.0
H249 H 0.03335 0.15405 0.74716 0.0
H250 H 0.95527 0.40174 0.72557 0.0
H251 H 0.02933 0.26616 0.64172 0.0
H252 H 0.94438 0.27829 0.83255 0.0
C253 C 0.9642 0.21198 0.84789 0.0
C254 C 0.98946 0.17623 0.82484 0.0
C255 C 0.01294 0.29571 0.66039 0.0
C256 C 0.98883 0.25419 0.75639 0.0
C257 C 0.01465 0.33492 0.62575 0.0
C258 C 0.99398 0.37386 0.64853 0.0
C259 C 0.99027 0.29527 0.71844 0.0
C260 C 0.9715 0.37218 0.70655 0.0
C261 C 0.96389 0.25101 0.81391 0.0
C262 C 0.01357 0.18072 0.76712 0.0
N263 N 0.97022 0.33354 0.73956 0.0
N264 N 0.01265 0.21879 0.73514 0.0
H265 H 0.90111 0.0172 0.77871 0.0
H266 H 0.66202 0.103 0.72089 0.0
H267 H 0.79768 0.07091 0.91019 0.0
H268 H 0.71822 0.99218 0.61364 0.0
H269 H 0.72789 0.11077 0.78187 0.0
H270 H 0.85042 0.02756 0.70889 0.0
C271 C 0.86826 0.03182 0.79274 0.0
C272 C 0.85284 0.04233 0.85038 0.0
C273 C 0.72607 0.08512 0.7447 0.0
C274 C 0.7954 0.05466 0.77107 0.0
C275 C 0.68875 0.08085 0.70983 0.0
C276 C 0.68446 0.04654 0.66255 0.0
C277 C 0.75974 0.05537 0.73175 0.0
C278 C 0.7198 0.01849 0.65022 0.0
C279 C 0.83931 0.0375 0.753 0.0
C280 C 0.81024 0.06148 0.86628 0.0
N281 N 0.75596 0.02343 0.68471 0.0
N282 N 0.78284 0.06683 0.82687 0.0
loop_
_geom_bond_atom_site_label_1
_geom_bond_atom_site_label_2
_geom_bond_distance
_geom_bond_site_symmetry_2
_ccdc_geom_bond_type
Co0 O3 2.042 1_655 S
Co0 O10 2.264 1_655 S
Co0 O29 2.286 . S
Co0 O30 2.069 1_655 S
Co0 O32 2.015 . S
Co1 O3 2.122 1_545 S
Co1 O9 2.073 . S
Co1 O10 2.327 1_545 S
Co1 O11 1.976 . S
Co2 O3 2.099 1_545 S
Co2 O5 2.075 1_454 S
Co2 O12 2.126 . S
Co2 O13 2.147 1_554 S
Co2 O17 2.097 1_444 S
Co2 O31 2.140 1_445 S
O3 Co0 2.042 1_455 S
O3 Co1 2.122 1_565 S
O3 Co2 2.099 1_565 S
O3 H4 0.980 . S
H4 O3 0.980 . S
O5 Co2 2.075 1_656 S
O5 Co6 2.042 1_655 S
O5 Co7 2.122 1_545 S
O5 H8 0.980 . S
Co6 O5 2.042 1_455 S
Co6 O14 2.286 . S
Co6 O15 2.069 1_455 S
Co6 O16 2.015 . S
Co6 O19 2.264 1_455 S
Co7 O5 2.122 1_565 S
Co7 O18 1.976 . S
Co7 O19 2.327 1_565 S
Co7 O20 2.073 . S
H8 O5 0.980 . S
O9 Co1 2.073 . S
O9 C24 1.245 1_545 S
O10 Co0 2.264 1_455 S
O10 Co1 2.327 1_565 S
O10 C24 1.257 . S
O11 Co1 1.976 . S
O11 C23 1.251 . S
O12 Co2 2.126 . S
O12 C23 1.274 . S
O13 Co2 2.147 1_556 S
O13 C26 1.246 . S
O14 Co6 2.286 . S
O14 C25 1.259 1_455 S
O15 Co6 2.069 1_655 S
O15 C25 1.289 . S
O16 Co6 2.015 . S
O16 C26 1.257 . S
O17 Co2 2.097 1_666 S
O17 C27 1.274 . S
O18 Co7 1.976 . S
O18 C27 1.251 . S
O19 Co6 2.264 1_655 S
O19 Co7 2.327 1_545 S
O19 C28 1.257 . S
O20 Co7 2.073 . S
O20 C28 1.245 1_565 S
C21 O29 1.259 1_455 S
C21 O30 1.289 . S
C22 O31 1.246 . S
C22 O32 1.257 . S
C23 O11 1.251 . S
C23 O12 1.274 . S
C24 O9 1.245 1_565 S
C24 O10 1.257 . S
C25 O14 1.259 1_655 S
C25 O15 1.289 . S
C26 O13 1.246 . S
C26 O16 1.257 . S
C27 O17 1.274 . S
C27 O18 1.251 . S
C28 O19 1.257 . S
C28 O20 1.245 1_545 S
O29 Co0 2.286 . S
O29 C21 1.259 1_655 S
O30 Co0 2.069 1_455 S
O30 C21 1.289 . S
O31 Co2 2.140 1_665 S
O31 C22 1.246 . S
O32 Co0 2.015 . S
O32 C22 1.257 . S
C33 C34 1.443 . S
C33 N37 1.376 . S
C33 C71 1.389 . S
C34 C33 1.443 . S
C34 C35 1.340 . S
C34 H74 0.951 . S
C35 C34 1.340 . S
C35 C36 1.439 . S
C35 H75 0.950 . S
C36 C35 1.439 . S
C36 N37 1.374 . S
C36 C70 1.395 . S
N37 C33 1.376 . S
N37 C36 1.374 . S
N37 Co38 2.014 . S
Co38 N37 2.014 . S
Co38 N39 2.008 . S
Co38 N44 2.003 1_455 S
Co38 N49 1.981 1_455 S
Co38 N54 2.286 . S
Co38 N60 2.279 1_455 S
N39 Co38 2.008 . S
N39 C40 1.376 . S
N39 C43 1.383 . S
C40 N39 1.376 . S
C40 C41 1.446 . S
C40 C70 1.391 . S
C41 C40 1.446 . S
C41 C42 1.339 . S
C41 H76 0.949 . S
C42 C41 1.339 . S
C42 C43 1.439 . S
C42 H77 0.950 . S
C43 N39 1.383 . S
C43 C42 1.439 . S
C43 C72 1.393 1_455 S
N44 Co38 2.003 1_655 S
N44 C45 1.376 . S
N44 C48 1.374 . S
C45 N44 1.376 . S
C45 C46 1.443 . S
C45 C72 1.387 . S
C46 C45 1.443 . S
C46 C47 1.340 . S
C46 H78 0.951 . S
C47 C46 1.340 . S
C47 C48 1.439 . S
C47 H79 0.950 . S
C48 N44 1.374 . S
C48 C47 1.439 . S
C48 C73 1.395 . S
N49 Co38 1.981 1_655 S
N49 C50 1.376 . S
N49 C53 1.383 . S
C50 N49 1.376 . S
C50 C51 1.446 . S
C50 C73 1.391 . S
C51 C50 1.446 . S
C51 C52 1.339 . S
C51 H80 0.949 . S
C52 C51 1.339 . S
C52 C53 1.439 . S
C52 H81 0.950 . S
C53 N49 1.383 . S
C53 C52 1.439 . S
C53 C71 1.392 1_655 S
N54 Co38 2.286 . S
N54 C57 1.332 1_455 S
N54 C59 1.332 . S
C55 C56 1.386 1_455 S
C55 C58 1.388 . S
C56 C55 1.386 1_655 S
C56 C57 1.382 . S
C56 H82 0.950 . S
C57 N54 1.332 1_655 S
C57 C56 1.382 . S
C57 H68 0.952 . S
C58 C55 1.388 . S
C58 C59 1.382 . S
C58 H83 0.950 . S
C59 N54 1.332 . S
C59 C58 1.382 . S
C59 H69 0.948 . S
N60 Co38 2.279 1_655 S
N60 C64 1.332 1_655 S
N60 C65 1.332 . S
C61 C62 1.388 1_655 S
C61 C65 1.382 . S
C61 H84 0.950 . S
C62 C61 1.388 1_455 S
C62 C63 1.385 . S
C63 C62 1.385 . S
C63 C64 1.382 . S
C63 H85 0.950 . S
C64 N60 1.332 1_455 S
C64 C63 1.382 . S
C64 H66 0.952 . S
C65 N60 1.332 . S
C65 C61 1.382 . S
C65 H67 0.948 . S
H66 C64 0.952 . S
H67 C65 0.948 . S
H68 C57 0.952 . S
H69 C59 0.948 . S
C70 C36 1.395 . S
C70 C40 1.391 . S
C71 C33 1.389 . S
C71 C53 1.392 1_455 S
C72 C43 1.393 1_655 S
C72 C45 1.387 . S
C73 C48 1.395 . S
C73 C50 1.391 . S
H74 C34 0.951 . S
H75 C35 0.950 . S
H76 C41 0.949 . S
H77 C42 0.950 . S
H78 C46 0.951 . S
H79 C47 0.950 . S
H80 C51 0.949 . S
H81 C52 0.950 . S
H82 C56 0.950 . S
H83 C58 0.950 . S
H84 C61 0.950 . S
H85 C63 0.950 . S
C86 C87 1.443 . S
C86 N90 1.376 . S
C86 C124 1.387 . S
C87 C86 1.443 . S
C87 C88 1.340 . S
C87 H127 0.951 . S
C88 C87 1.340 . S
C88 C89 1.439 . S
C88 H128 0.950 . S
C89 C88 1.439 . S
C89 N90 1.374 . S
C89 C123 1.395 . S
N90 C86 1.376 . S
N90 C89 1.374 . S
N90 Co91 2.002 1_565 S
Co91 N90 2.002 1_545 S
Co91 N92 1.984 1_545 S
Co91 N97 2.015 . S
Co91 N102 2.006 . S
Co91 N107 2.277 1_545 S
Co91 N113 2.288 . S
N92 Co91 1.984 1_565 S
N92 C93 1.376 . S
N92 C96 1.383 . S
C93 N92 1.376 . S
C93 C94 1.446 . S
C93 C123 1.391 . S
C94 C93 1.446 . S
C94 C95 1.339 . S
C94 H129 0.949 . S
C95 C94 1.339 . S
C95 C96 1.439 . S
C95 H130 0.950 . S
C96 N92 1.383 . S
C96 C95 1.439 . S
C96 C125 1.392 1_565 S
N97 Co91 2.015 . S
N97 C98 1.376 . S
N97 C101 1.374 . S
C98 N97 1.376 . S
C98 C99 1.443 . S
C98 C125 1.389 . S
C99 C98 1.443 . S
C99 C100 1.340 . S
C99 H131 0.951 . S
C100 C99 1.340 . S
C100 C101 1.439 . S
C100 H132 0.950 . S
C101 N97 1.374 . S
C101 C100 1.439 . S
C101 C126 1.395 . S
N102 Co91 2.006 . S
N102 C103 1.376 . S
N102 C106 1.383 . S
C103 N102 1.376 . S
C103 C104 1.446 . S
C103 C126 1.391 . S
C104 C103 1.446 . S
C104 C105 1.339 . S
C104 H133 0.949 . S
C105 C104 1.339 . S
C105 C106 1.439 . S
C105 H134 0.950 . S
C106 N102 1.383 . S
C106 C105 1.439 . S
C106 C124 1.393 1_545 S
N107 Co91 2.277 1_565 S
N107 C110 1.332 1_565 S
N107 C112 1.332 . S
C108 C109 1.385 . S
C108 C111 1.389 1_545 S
C109 C108 1.385 . S
C109 C110 1.382 . S
C109 H135 0.950 . S
C110 N107 1.332 1_545 S
C110 C109 1.382 . S
C110 H121 0.952 . S
C111 C108 1.389 1_565 S
C111 C112 1.382 . S
C111 H136 0.950 . S
C112 N107 1.332 . S
C112 C111 1.382 . S
C112 H122 0.948 . S
N113 Co91 2.288 . S
N113 C117 1.332 1_545 S
N113 C118 1.332 . S
C114 C115 1.388 . S
C114 C118 1.382 . S
C114 H137 0.950 . S
C115 C114 1.388 . S
C115 C116 1.386 1_545 S
C116 C115 1.386 1_565 S
C116 C117 1.382 . S
C116 H138 0.950 . S
C117 N113 1.332 1_565 S
C117 C116 1.382 . S
C117 H119 0.952 . S
C118 N113 1.332 . S
C118 C114 1.382 . S
C118 H120 0.948 . S
H119 C117 0.952 . S
H120 C118 0.948 . S
H121 C110 0.952 . S
H122 C112 0.948 . S
C123 C89 1.395 . S
C123 C93 1.391 . S
C124 C86 1.387 . S
C124 C106 1.393 1_565 S
C125 C96 1.392 1_545 S
C125 C98 1.389 . S
C126 C101 1.395 . S
C126 C103 1.391 . S
H127 C87 0.951 . S
H128 C88 0.950 . S
H129 C94 0.949 . S
H130 C95 0.950 . S
H131 C99 0.951 . S
H132 C100 0.950 . S
H133 C104 0.949 . S
H134 C105 0.950 . S
H135 C109 0.950 . S
H136 C111 0.950 . S
H137 C114 0.950 . S
H138 C116 0.950 . S
H139 C145 0.930 . S
H140 C149 0.930 . S
H141 C154 0.929 . S
H142 C152 0.929 . S
H143 C147 0.929 . S
H144 C153 0.929 . S
C145 H139 0.930 . S
C145 C146 1.363 1_655 S
C145 C153 1.378 . S
C146 C145 1.363 1_455 S
C146 C154 1.437 . S
C147 H143 0.929 . S
C147 C149 1.378 . S
C147 C151 1.350 . S
C148 C151 1.462 1_655 S
C148 C153 1.349 . S
C148 N156 1.429 1_655 S
C149 H140 0.930 . S
C149 C147 1.378 . S
C149 C150 1.367 . S
C150 C149 1.367 . S
C150 C152 1.433 1_455 S
C151 C147 1.350 . S
C151 C148 1.462 1_455 S
C151 N155 1.427 1_455 S
C152 H142 0.929 . S
C152 C150 1.433 1_655 S
C152 N155 1.384 . S
C153 H144 0.929 . S
C153 C145 1.378 . S
C153 C148 1.349 . S
C154 H141 0.929 . S
C154 C146 1.437 . S
C154 N156 1.384 . S
N155 C151 1.427 1_655 S
N155 C152 1.384 . S
N156 C148 1.429 1_455 S
N156 C154 1.384 . S
H157 C163 0.930 . S
H158 C167 0.930 . S
H159 C172 0.929 . S
H160 C170 0.929 . S
H161 C165 0.929 . S
H162 C171 0.929 . S
C163 H157 0.930 . S
C163 C164 1.367 . S
C163 C171 1.378 . S
C164 C163 1.367 . S
C164 C172 1.433 1_565 S
C165 H161 0.929 . S
C165 C167 1.378 . S
C165 C169 1.350 1_545 S
C166 C169 1.463 . S
C166 C171 1.350 . S
C166 N174 1.427 1_565 S
C167 H158 0.930 . S
C167 C165 1.378 . S
C167 C168 1.376 . S
C168 C167 1.376 . S
C168 C170 1.421 1_545 S
C169 C165 1.350 1_565 S
C169 C166 1.463 . S
C169 N173 1.427 . S
C170 H160 0.929 . S
C170 C168 1.421 1_565 S
C170 N173 1.384 . S
C171 H162 0.929 . S
C171 C163 1.378 . S
C171 C166 1.350 . S
C172 H159 0.929 . S
C172 C164 1.433 1_545 S
C172 N174 1.384 . S
N173 C169 1.427 . S
N173 C170 1.384 . S
N174 C166 1.427 1_545 S
N174 C172 1.384 . S
H175 C181 0.930 . S
H176 C185 0.930 . S
H177 C190 0.929 . S
H178 C188 0.929 . S
H179 C183 0.929 . S
H180 C189 0.929 . S
C181 H175 0.930 . S
C181 C182 1.367 1_655 S
C181 C189 1.378 . S
C182 C181 1.367 1_455 S
C182 C190 1.433 . S
C183 H179 0.929 . S
C183 C185 1.378 . S
C183 C187 1.350 . S
C184 C187 1.463 . S
C184 C189 1.350 1_455 S
C184 N192 1.427 . S
C185 H176 0.930 . S
C185 C183 1.378 . S
C185 C186 1.367 . S
C186 C185 1.367 . S
C186 C188 1.433 1_455 S
C187 C183 1.350 . S
C187 C184 1.463 . S
C187 N191 1.427 1_455 S
C188 H178 0.929 . S
C188 C186 1.433 1_655 S
C188 N191 1.384 . S
C189 H180 0.929 . S
C189 C181 1.378 . S
C189 C184 1.350 1_655 S
C190 H177 0.929 . S
C190 C182 1.433 . S
C190 N192 1.384 . S
N191 C187 1.427 1_655 S
N191 C188 1.384 . S
N192 C184 1.427 . S
N192 C190 1.384 . S
H193 C199 0.930 . S
H194 C203 0.930 . S
H195 C208 0.929 . S
H196 C206 0.929 . S
H197 C201 0.929 . S
H198 C207 0.929 . S
C199 H193 0.930 . S
C199 C200 1.367 . S
C199 C207 1.378 . S
C200 C199 1.367 . S
C200 C208 1.433 1_565 S
C201 H197 0.929 . S
C201 C203 1.378 . S
C201 C205 1.350 1_545 S
C202 C205 1.463 . S
C202 C207 1.350 . S
C202 N210 1.427 1_565 S
C203 H194 0.930 . S
C203 C201 1.378 . S
C203 C204 1.367 1_545 S
C204 C203 1.367 1_565 S
C204 C206 1.433 . S
C205 C201 1.350 1_565 S
C205 C202 1.463 . S
C205 N209 1.427 . S
C206 H196 0.929 . S
C206 C204 1.433 . S
C206 N209 1.384 . S
C207 H198 0.929 . S
C207 C199 1.378 . S
C207 C202 1.350 . S
C208 H195 0.929 . S
C208 C200 1.433 1_545 S
C208 N210 1.384 . S
N209 C205 1.427 . S
N209 C206 1.384 . S
N210 C202 1.427 1_545 S
N210 C208 1.384 . S
H211 C217 0.930 . S
H212 C221 0.930 . S
H213 C226 0.929 . S
H214 C224 0.929 . S
H215 C219 0.929 . S
H216 C225 0.929 . S
C217 H211 0.930 . S
C217 C218 1.369 . S
C217 C225 1.378 . S
C218 C217 1.369 . S
C218 C226 1.430 1_655 S
C219 H215 0.929 . S
C219 C221 1.378 . S
C219 C223 1.350 . S
C220 C223 1.460 1_655 S
C220 C225 1.356 . S
C220 N228 1.423 1_655 S
C221 H212 0.930 . S
C221 C219 1.378 . S
C221 C222 1.367 . S
C222 C221 1.367 . S
C222 C224 1.433 1_455 S
C223 C219 1.350 . S
C223 C220 1.460 1_455 S
C223 N227 1.427 1_455 S
C224 H214 0.929 . S
C224 C222 1.433 1_655 S
C224 N227 1.384 . S
C225 H216 0.929 . S
C225 C217 1.378 . S
C225 C220 1.356 . S
C226 H213 0.929 . S
C226 C218 1.430 1_455 S
C226 N228 1.384 . S
N227 C223 1.427 1_655 S
N227 C224 1.384 . S
N228 C220 1.423 1_455 S
N228 C226 1.384 . S
H229 C235 0.930 . S
H230 C239 0.930 . S
H231 C244 0.929 . S
H232 C242 0.929 . S
H233 C237 0.929 . S
H234 C243 0.929 1_565 S
C235 H229 0.930 . S
C235 C236 1.367 . S
C235 C243 1.378 . S
C236 C235 1.367 . S
C236 C244 1.433 . S
C237 H233 0.929 . S
C237 C239 1.378 . S
C237 C241 1.350 . S
C238 C241 1.463 . S
C238 C243 1.350 . S
C238 N246 1.427 . S
C239 H230 0.930 . S
C239 C237 1.378 . S
C239 C240 1.367 . S
C240 C239 1.367 . S
C240 C242 1.433 1_545 S
C241 C237 1.350 . S
C241 C238 1.463 . S
C241 N245 1.428 1_545 S
C242 H232 0.929 . S
C242 C240 1.433 1_565 S
C242 N245 1.384 . S
C243 H234 0.929 1_545 S
C243 C235 1.378 . S
C243 C238 1.350 . S
C244 H231 0.929 . S
C244 C236 1.433 . S
C244 N246 1.384 . S
N245 C241 1.428 1_565 S
N245 C242 1.384 . S
N246 C238 1.427 . S
N246 C244 1.384 . S
H247 C253 0.930 . S
H248 C257 0.930 . S
H249 C262 0.929 . S
H250 C260 0.929 . S
H251 C255 0.929 . S
H252 C261 0.929 . S
C253 H247 0.930 . S
C253 C254 1.367 1_455 S
C253 C261 1.378 . S
C254 C253 1.367 1_655 S
C254 C262 1.433 . S
C255 H251 0.929 . S
C255 C257 1.378 . S
C255 C259 1.350 . S
C256 C259 1.463 . S
C256 C261 1.350 1_655 S
C256 N264 1.427 . S
C257 H248 0.930 . S
C257 C255 1.378 . S
C257 C258 1.367 . S
C258 C257 1.367 . S
C258 C260 1.433 1_655 S
C259 C255 1.350 . S
C259 C256 1.463 . S
C259 N263 1.427 1_655 S
C260 H250 0.929 . S
C260 C258 1.433 1_455 S
C260 N263 1.384 . S
C261 H252 0.929 . S
C261 C253 1.378 . S
C261 C256 1.350 1_455 S
C262 H249 0.929 . S
C262 C254 1.433 . S
C262 N264 1.384 . S
N263 C259 1.427 1_455 S
N263 C260 1.384 . S
N264 C256 1.427 . S
N264 C262 1.384 . S
H265 C271 0.930 1_565 S
H266 C275 0.930 . S
H267 C280 0.929 . S
H268 C278 0.929 . S
H269 C273 0.929 . S
H270 C279 0.929 . S
C271 H265 0.930 1_545 S
C271 C272 1.367 . S
C271 C279 1.378 1_545 S
C272 C271 1.367 . S
C272 C280 1.433 . S
C273 H269 0.929 . S
C273 C275 1.378 . S
C273 C277 1.350 . S
C274 C277 1.463 . S
C274 C279 1.350 1_545 S
C274 N282 1.427 . S
C275 H266 0.930 . S
C275 C273 1.378 . S
C275 C276 1.367 . S
C276 C275 1.367 . S
C276 C278 1.433 1_545 S
C277 C273 1.350 . S
C277 C274 1.463 . S
C277 N281 1.427 1_545 S
C278 H268 0.929 . S
C278 C276 1.433 1_565 S
C278 N281 1.384 . S
C279 H270 0.929 . S
C279 C271 1.378 1_565 S
C279 C274 1.350 1_565 S
C280 H267 0.929 . S
C280 C272 1.433 . S
C280 N282 1.384 . S
N281 C277 1.427 1_565 S
N281 C278 1.384 . S
N282 C274 1.427 . S
N282 C280 1.384 . S
C146 C23 1.301 . S
C150 C55 1.377 . S
C164 C22 1.543 . S
C168 C125 1.590 . S
C182 C21 1.896 . S
C186 C71 1.906 . S
C200 C24 1.457 . S
C204 C115 1.529 1_565 S
C218 C27 1.289 . S
C222 C62 1.377 . S
C236 C26 1.544 . S
C240 C124 1.586 1_545 S
C258 C72 1.908 . S
C254 C25 1.897 . S
C272 C28 1.450 . S
C276 C108 1.525 . S
