# Generated by pormake.
# Topology iac, (4,6)-cn, num edge types: 1
# Building blocks:
#     Node 0, Type 0, BuildingBlock: AZAVOO_clean_sbu_0, # of connection points: 4
#     Node 1, Type 0, BuildingBlock: AZAVOO_clean_sbu_0, # of connection points: 4
#     Node 2, Type 0, BuildingBlock: AZAVOO_clean_sbu_0, # of connection points: 4
#     Node 3, Type 0, BuildingBlock: AZAVOO_clean_sbu_0, # of connection points: 4
#     Node 4, Type 0, BuildingBlock: AZAVOO_clean_sbu_0, # of connection points: 4
#     Node 5, Type 0, BuildingBlock: AZAVOO_clean_sbu_0, # of connection points: 4
#     Node 6, Type 0, BuildingBlock: AZAVOO_clean_sbu_0, # of connection points: 4
#     Node 7, Type 0, BuildingBlock: AZAVOO_clean_sbu_0, # of connection points: 4
#     Node 8, Type 0, BuildingBlock: AZAVOO_clean_sbu_0, # of connection points: 4
#     Node 9, Type 0, BuildingBlock: AZAVOO_clean_sbu_0, # of connection points: 4
#     Node 10, Type 0, BuildingBlock: AZAVOO_clean_sbu_0, # of connection points: 4
#     Node 11, Type 0, BuildingBlock: AZAVOO_clean_sbu_0, # of connection points: 4
#     Node 12, Type 0, BuildingBlock: AZAVOO_clean_sbu_0, # of connection points: 4
#     Node 13, Type 0, BuildingBlock: AZAVOO_clean_sbu_0, # of connection points: 4
#     Node 14, Type 0, BuildingBlock: AZAVOO_clean_sbu_0, # of connection points: 4
#     Node 15, Type 0, BuildingBlock: AZAVOO_clean_sbu_0, # of connection points: 4
#     Node 16, Type 0, BuildingBlock: AZAVOO_clean_sbu_0, # of connection points: 4
#     Node 17, Type 0, BuildingBlock: AZAVOO_clean_sbu_0, # of connection points: 4
#     Node 18, Type 0, BuildingBlock: AZAVOO_clean_sbu_0, # of connection points: 4
#     Node 19, Type 0, BuildingBlock: AZAVOO_clean_sbu_0, # of connection points: 4
#     Node 20, Type 0, BuildingBlock: AZAVOO_clean_sbu_0, # of connection points: 4
#     Node 21, Type 0, BuildingBlock: AZAVOO_clean_sbu_0, # of connection points: 4
#     Node 22, Type 0, BuildingBlock: AZAVOO_clean_sbu_0, # of connection points: 4
#     Node 23, Type 0, BuildingBlock: AZAVOO_clean_sbu_0, # of connection points: 4
#     Node 24, Type 1, BuildingBlock: LEVNOQ01_clean_sbu_1, # of connection points: 6
#     Node 25, Type 1, BuildingBlock: LEVNOQ01_clean_sbu_1, # of connection points: 6
#     Node 26, Type 1, BuildingBlock: LEVNOQ01_clean_sbu_1, # of connection points: 6
#     Node 27, Type 1, BuildingBlock: LEVNOQ01_clean_sbu_1, # of connection points: 6
#     Node 28, Type 1, BuildingBlock: LEVNOQ01_clean_sbu_1, # of connection points: 6
#     Node 29, Type 1, BuildingBlock: LEVNOQ01_clean_sbu_1, # of connection points: 6
#     Node 30, Type 1, BuildingBlock: LEVNOQ01_clean_sbu_1, # of connection points: 6
#     Node 31, Type 1, BuildingBlock: LEVNOQ01_clean_sbu_1, # of connection points: 6
#     Node 32, Type 1, BuildingBlock: LEVNOQ01_clean_sbu_1, # of connection points: 6
#     Node 33, Type 1, BuildingBlock: LEVNOQ01_clean_sbu_1, # of connection points: 6
#     Node 34, Type 1, BuildingBlock: LEVNOQ01_clean_sbu_1, # of connection points: 6
#     Node 35, Type 1, BuildingBlock: LEVNOQ01_clean_sbu_1, # of connection points: 6
#     Node 36, Type 1, BuildingBlock: LEVNOQ01_clean_sbu_1, # of connection points: 6
#     Node 37, Type 1, BuildingBlock: LEVNOQ01_clean_sbu_1, # of connection points: 6
#     Node 38, Type 1, BuildingBlock: LEVNOQ01_clean_sbu_1, # of connection points: 6
#     Node 39, Type 1, BuildingBlock: LEVNOQ01_clean_sbu_1, # of connection points: 6
#     Edge 40, Type (0, 1), BuildingBlock: KIFKEQ_clean_linker_1, # of connection points: 2
#     Edge 41, Type (0, 1), BuildingBlock: KIFKEQ_clean_linker_1, # of connection points: 2
#     Edge 42, Type (0, 1), BuildingBlock: KIFKEQ_clean_linker_1, # of connection points: 2
#     Edge 43, Type (0, 1), BuildingBlock: KIFKEQ_clean_linker_1, # of connection points: 2
#     Edge 44, Type (0, 1), BuildingBlock: KIFKEQ_clean_linker_1, # of connection points: 2
#     Edge 45, Type (0, 1), BuildingBlock: KIFKEQ_clean_linker_1, # of connection points: 2
#     Edge 46, Type (0, 1), BuildingBlock: KIFKEQ_clean_linker_1, # of connection points: 2
#     Edge 47, Type (0, 1), BuildingBlock: KIFKEQ_clean_linker_1, # of connection points: 2
#     Edge 48, Type (0, 1), BuildingBlock: KIFKEQ_clean_linker_1, # of connection points: 2
#     Edge 49, Type (0, 1), BuildingBlock: KIFKEQ_clean_linker_1, # of connection points: 2
#     Edge 50, Type (0, 1), BuildingBlock: KIFKEQ_clean_linker_1, # of connection points: 2
#     Edge 51, Type (0, 1), BuildingBlock: KIFKEQ_clean_linker_1, # of connection points: 2
#     Edge 52, Type (0, 1), BuildingBlock: KIFKEQ_clean_linker_1, # of connection points: 2
#     Edge 53, Type (0, 1), BuildingBlock: KIFKEQ_clean_linker_1, # of connection points: 2
#     Edge 54, Type (0, 1), BuildingBlock: KIFKEQ_clean_linker_1, # of connection points: 2
#     Edge 55, Type (0, 1), BuildingBlock: KIFKEQ_clean_linker_1, # of connection points: 2
#     Edge 56, Type (0, 1), BuildingBlock: KIFKEQ_clean_linker_1, # of connection points: 2
#     Edge 57, Type (0, 1), BuildingBlock: KIFKEQ_clean_linker_1, # of connection points: 2
#     Edge 58, Type (0, 1), BuildingBlock: KIFKEQ_clean_linker_1, # of connection points: 2
#     Edge 59, Type (0, 1), BuildingBlock: KIFKEQ_clean_linker_1, # of connection points: 2
#     Edge 60, Type (0, 1), BuildingBlock: KIFKEQ_clean_linker_1, # of connection points: 2
#     Edge 61, Type (0, 1), BuildingBlock: KIFKEQ_clean_linker_1, # of connection points: 2
#     Edge 62, Type (0, 1), BuildingBlock: KIFKEQ_clean_linker_1, # of connection points: 2
#     Edge 63, Type (0, 1), BuildingBlock: KIFKEQ_clean_linker_1, # of connection points: 2
#     Edge 64, Type (0, 1), BuildingBlock: KIFKEQ_clean_linker_1, # of connection points: 2
#     Edge 65, Type (0, 1), BuildingBlock: KIFKEQ_clean_linker_1, # of connection points: 2
#     Edge 66, Type (0, 1), BuildingBlock: KIFKEQ_clean_linker_1, # of connection points: 2
#     Edge 67, Type (0, 1), BuildingBlock: KIFKEQ_clean_linker_1, # of connection points: 2
#     Edge 68, Type (0, 1), BuildingBlock: KIFKEQ_clean_linker_1, # of connection points: 2
#     Edge 69, Type (0, 1), BuildingBlock: KIFKEQ_clean_linker_1, # of connection points: 2
#     Edge 70, Type (0, 1), BuildingBlock: KIFKEQ_clean_linker_1, # of connection points: 2
#     Edge 71, Type (0, 1), BuildingBlock: KIFKEQ_clean_linker_1, # of connection points: 2
#     Edge 72, Type (0, 1), BuildingBlock: KIFKEQ_clean_linker_1, # of connection points: 2
#     Edge 73, Type (0, 1), BuildingBlock: KIFKEQ_clean_linker_1, # of connection points: 2
#     Edge 74, Type (0, 1), BuildingBlock: KIFKEQ_clean_linker_1, # of connection points: 2
#     Edge 75, Type (0, 1), BuildingBlock: KIFKEQ_clean_linker_1, # of connection points: 2
#     Edge 76, Type (0, 1), BuildingBlock: KIFKEQ_clean_linker_1, # of connection points: 2
#     Edge 77, Type (0, 1), BuildingBlock: KIFKEQ_clean_linker_1, # of connection points: 2
#     Edge 78, Type (0, 1), BuildingBlock: KIFKEQ_clean_linker_1, # of connection points: 2
#     Edge 79, Type (0, 1), BuildingBlock: KIFKEQ_clean_linker_1, # of connection points: 2
#     Edge 80, Type (0, 1), BuildingBlock: KIFKEQ_clean_linker_1, # of connection points: 2
#     Edge 81, Type (0, 1), BuildingBlock: KIFKEQ_clean_linker_1, # of connection points: 2
#     Edge 82, Type (0, 1), BuildingBlock: KIFKEQ_clean_linker_1, # of connection points: 2
#     Edge 83, Type (0, 1), BuildingBlock: KIFKEQ_clean_linker_1, # of connection points: 2
#     Edge 84, Type (0, 1), BuildingBlock: KIFKEQ_clean_linker_1, # of connection points: 2
#     Edge 85, Type (0, 1), BuildingBlock: KIFKEQ_clean_linker_1, # of connection points: 2
#     Edge 86, Type (0, 1), BuildingBlock: KIFKEQ_clean_linker_1, # of connection points: 2
#     Edge 87, Type (0, 1), BuildingBlock: KIFKEQ_clean_linker_1, # of connection points: 2
#     Edge 88, Type (0, 1), BuildingBlock: KIFKEQ_clean_linker_1, # of connection points: 2
#     Edge 89, Type (0, 1), BuildingBlock: KIFKEQ_clean_linker_1, # of connection points: 2
#     Edge 90, Type (0, 1), BuildingBlock: KIFKEQ_clean_linker_1, # of connection points: 2
#     Edge 91, Type (0, 1), BuildingBlock: KIFKEQ_clean_linker_1, # of connection points: 2
#     Edge 92, Type (0, 1), BuildingBlock: KIFKEQ_clean_linker_1, # of connection points: 2
#     Edge 93, Type (0, 1), BuildingBlock: KIFKEQ_clean_linker_1, # of connection points: 2
#     Edge 94, Type (0, 1), BuildingBlock: KIFKEQ_clean_linker_1, # of connection points: 2
#     Edge 95, Type (0, 1), BuildingBlock: KIFKEQ_clean_linker_1, # of connection points: 2
#     Edge 96, Type (0, 1), BuildingBlock: KIFKEQ_clean_linker_1, # of connection points: 2
#     Edge 97, Type (0, 1), BuildingBlock: KIFKEQ_clean_linker_1, # of connection points: 2
#     Edge 98, Type (0, 1), BuildingBlock: KIFKEQ_clean_linker_1, # of connection points: 2
#     Edge 99, Type (0, 1), BuildingBlock: KIFKEQ_clean_linker_1, # of connection points: 2
#     Edge 100, Type (0, 1), BuildingBlock: KIFKEQ_clean_linker_1, # of connection points: 2
#     Edge 101, Type (0, 1), BuildingBlock: KIFKEQ_clean_linker_1, # of connection points: 2
#     Edge 102, Type (0, 1), BuildingBlock: KIFKEQ_clean_linker_1, # of connection points: 2
#     Edge 103, Type (0, 1), BuildingBlock: KIFKEQ_clean_linker_1, # of connection points: 2
#     Edge 104, Type (0, 1), BuildingBlock: KIFKEQ_clean_linker_1, # of connection points: 2
#     Edge 105, Type (0, 1), BuildingBlock: KIFKEQ_clean_linker_1, # of connection points: 2
#     Edge 106, Type (0, 1), BuildingBlock: KIFKEQ_clean_linker_1, # of connection points: 2
#     Edge 107, Type (0, 1), BuildingBlock: KIFKEQ_clean_linker_1, # of connection points: 2
#     Edge 108, Type (0, 1), BuildingBlock: KIFKEQ_clean_linker_1, # of connection points: 2
#     Edge 109, Type (0, 1), BuildingBlock: KIFKEQ_clean_linker_1, # of connection points: 2
#     Edge 110, Type (0, 1), BuildingBlock: KIFKEQ_clean_linker_1, # of connection points: 2
#     Edge 111, Type (0, 1), BuildingBlock: KIFKEQ_clean_linker_1, # of connection points: 2
#     Edge 112, Type (0, 1), BuildingBlock: KIFKEQ_clean_linker_1, # of connection points: 2
#     Edge 113, Type (0, 1), BuildingBlock: KIFKEQ_clean_linker_1, # of connection points: 2
#     Edge 114, Type (0, 1), BuildingBlock: KIFKEQ_clean_linker_1, # of connection points: 2
#     Edge 115, Type (0, 1), BuildingBlock: KIFKEQ_clean_linker_1, # of connection points: 2
#     Edge 116, Type (0, 1), BuildingBlock: KIFKEQ_clean_linker_1, # of connection points: 2
#     Edge 117, Type (0, 1), BuildingBlock: KIFKEQ_clean_linker_1, # of connection points: 2
#     Edge 118, Type (0, 1), BuildingBlock: KIFKEQ_clean_linker_1, # of connection points: 2
#     Edge 119, Type (0, 1), BuildingBlock: KIFKEQ_clean_linker_1, # of connection points: 2
#     Edge 120, Type (0, 1), BuildingBlock: KIFKEQ_clean_linker_1, # of connection points: 2
#     Edge 121, Type (0, 1), BuildingBlock: KIFKEQ_clean_linker_1, # of connection points: 2
#     Edge 122, Type (0, 1), BuildingBlock: KIFKEQ_clean_linker_1, # of connection points: 2
#     Edge 123, Type (0, 1), BuildingBlock: KIFKEQ_clean_linker_1, # of connection points: 2
#     Edge 124, Type (0, 1), BuildingBlock: KIFKEQ_clean_linker_1, # of connection points: 2
#     Edge 125, Type (0, 1), BuildingBlock: KIFKEQ_clean_linker_1, # of connection points: 2
#     Edge 126, Type (0, 1), BuildingBlock: KIFKEQ_clean_linker_1, # of connection points: 2
#     Edge 127, Type (0, 1), BuildingBlock: KIFKEQ_clean_linker_1, # of connection points: 2
#     Edge 128, Type (0, 1), BuildingBlock: KIFKEQ_clean_linker_1, # of connection points: 2
#     Edge 129, Type (0, 1), BuildingBlock: KIFKEQ_clean_linker_1, # of connection points: 2
#     Edge 130, Type (0, 1), BuildingBlock: KIFKEQ_clean_linker_1, # of connection points: 2
#     Edge 131, Type (0, 1), BuildingBlock: KIFKEQ_clean_linker_1, # of connection points: 2
#     Edge 132, Type (0, 1), BuildingBlock: KIFKEQ_clean_linker_1, # of connection points: 2
#     Edge 133, Type (0, 1), BuildingBlock: KIFKEQ_clean_linker_1, # of connection points: 2
#     Edge 134, Type (0, 1), BuildingBlock: KIFKEQ_clean_linker_1, # of connection points: 2
#     Edge 135, Type (0, 1), BuildingBlock: KIFKEQ_clean_linker_1, # of connection points: 2
# Relax obj value: 0.124
# Max RMSD: 0.174
# Mean RMSD: 0.149
data_MOF--net-iac--node1-AZAVOO_clean_sbu_0--node2-LEVNOQ01_clean_sbu_1--edge1-KIFKEQ_clean_linker_1
_symmetry_space_group_name_H-M    P1
_symmetry_Int_Tables_number       1
_symmetry_cell_setting            triclinic
loop_
_symmetry_equiv_pos_as_xyz
'x, y, z'
_cell_length_a     56.019032
_cell_length_b     53.327344
_cell_length_c     54.806811
_cell_angle_alpha  92.468111
_cell_angle_beta   89.821122
_cell_angle_gamma 91.211813
loop_
_atom_site_label
_atom_site_type_symbol
_atom_site_fract_x
_atom_site_fract_y
_atom_site_fract_z
_atom_type_partial_charge
Mg0 Mg 0.9873 0.27551 0.13804 0.0
O1 O 0.98555 0.23426 0.12438 0.0
O2 O 0.95188 0.22841 0.10308 0.0
Mg3 Mg 0.93121 0.26509 0.10435 0.0
C4 C 0.97129 0.22024 0.11155 0.0
C5 C 0.03052 0.2575 0.16672 0.0
O6 O 0.01261 0.24767 0.17881 0.0
O7 O -0.00418 0.28799 0.09969 0.0
O8 O 0.95982 0.28531 0.08197 0.0
O9 O 0.96657 0.26769 0.17197 0.0
O10 O 0.95055 0.27847 0.13733 0.0
C11 C 0.98189 0.29194 0.08183 0.0
C12 C 0.94769 0.27251 0.15959 0.0
O13 O 0.02618 0.27027 0.14821 0.0
Mg14 Mg 0.98558 0.73359 0.35504 0.0
O15 O 0.98172 0.7727 0.3734 0.0
O16 O 0.9466 0.77373 0.39285 0.0
Mg17 Mg 0.92918 0.73467 0.38923 0.0
C18 C 0.96591 0.78445 0.38595 0.0
C19 C 0.02968 0.7373 0.32312 0.0
O20 O 0.01299 0.7277 0.30851 0.0
O21 O -0.00487 0.71724 0.39154 0.0
O22 O 0.95962 0.71758 0.41034 0.0
O23 O 0.96512 0.74793 0.3241 0.0
O24 O 0.94898 0.72828 0.35521 0.0
C25 C 0.98181 0.71251 0.40986 0.0
C26 C 0.94634 0.74107 0.33614 0.0
O27 O 0.02435 0.74242 0.34534 0.0
Mg28 Mg 0.48875 0.76721 0.63195 0.0
O29 O 0.49315 0.72788 0.6143 0.0
O30 O 0.46418 0.72246 0.5866 0.0
Mg31 Mg 0.43772 0.75452 0.59127 0.0
C32 C 0.483 0.71509 0.59696 0.0
C33 C 0.53174 0.75031 0.66201 0.0
O34 O 0.51484 0.73492 0.66935 0.0
O35 O 0.4989 0.78595 0.59662 0.0
O36 O 0.46479 0.78195 0.57539 0.0
O37 O 0.46638 0.75334 0.66246 0.0
O38 O 0.45213 0.76553 0.62752 0.0
C39 C 0.48587 0.79113 0.57842 0.0
C40 C 0.44811 0.75745 0.64889 0.0
O41 O 0.5269 0.76593 0.64589 0.0
Mg42 Mg 0.49089 0.23255 0.85778 0.0
O43 O 0.48911 0.27254 0.8751 0.0
O44 O 0.45743 0.27333 0.90002 0.0
Mg45 Mg 0.43974 0.23467 0.90005 0.0
C46 C 0.4751 0.28425 0.88987 0.0
C47 C 0.53094 0.24503 0.82028 0.0
O48 O 0.51193 0.24385 0.80629 0.0
O49 O 0.50528 0.21703 0.89299 0.0
O50 O 0.47279 0.21749 0.91673 0.0
O51 O 0.46693 0.24458 0.82877 0.0
O52 O 0.45381 0.22832 0.86284 0.0
C53 C 0.49471 0.21238 0.91305 0.0
C54 C 0.44923 0.23959 0.8431 0.0
O55 O 0.52852 0.24115 0.84295 0.0
Mg56 Mg 0.12068 0.98088 0.26161 0.0
O57 O 0.13646 0.02067 0.25987 0.0
O58 O 0.15575 0.02918 0.29495 0.0
Mg59 Mg 0.15255 0.99514 0.31901 0.0
C60 C 0.14883 0.03544 0.27394 0.0
C61 C 0.08867 0.97858 0.21741 0.0
O62 O 0.07452 0.97299 0.23563 0.0
O63 O 0.15717 0.9644 0.25509 0.0
O64 O 0.17398 0.97018 0.29201 0.0
O65 O 0.08814 0.99494 0.28027 0.0
O66 O 0.12014 0.9825 0.29946 0.0
C67 C 0.17415 0.96098 0.27007 0.0
C68 C 0.09895 0.9912 0.30058 0.0
O69 O 0.11089 0.98188 0.22147 0.0
Mg70 Mg 0.26527 0.88664 0.51502 0.0
O71 O 0.26603 0.8695 0.47572 0.0
O72 O 0.29846 0.84561 0.47366 0.0
Mg73 Mg 0.3157 0.84372 0.51095 0.0
C74 C 0.28062 0.85557 0.46374 0.0
C75 C 0.22677 0.9261 0.50878 0.0
O76 O 0.24596 0.93974 0.51424 0.0
O77 O 0.25024 0.85032 0.53029 0.0
O78 O 0.28225 0.82605 0.52852 0.0
O79 O 0.2895 0.9167 0.50267 0.0
O80 O 0.30245 0.8818 0.51789 0.0
C81 C 0.26045 0.82969 0.53434 0.0
C82 C 0.30712 0.90221 0.50685 0.0
O83 O 0.22821 0.90227 0.50805 0.0
Mg84 Mg 0.38564 0.02226 0.76303 0.0
O85 O 0.37151 0.98149 0.76456 0.0
O86 O 0.34684 0.9802 0.79664 0.0
Mg87 Mg 0.34419 0.01921 0.81465 0.0
C88 C 0.35773 0.9694 0.77874 0.0
C89 C 0.42006 0.00385 0.72123 0.0
O90 O 0.43307 -0.00172 0.74006 0.0
O91 O 0.3506 0.03518 0.74797 0.0
O92 O 0.32695 0.03534 0.78078 0.0
O93 O 0.41487 0.01229 0.78689 0.0
O94 O 0.3804 0.02685 0.80071 0.0
C95 C 0.33064 0.03972 0.75832 0.0
C96 C 0.40035 0.01623 0.805 0.0
O97 O 0.39987 0.01385 0.72481 0.0
Mg98 Mg 0.26815 0.11884 0.97687 0.0
O99 O 0.27276 0.13214 0.01726 0.0
O100 O 0.30982 0.14835 0.02019 0.0
Mg101 Mg 0.3287 0.14548 0.98298 0.0
C102 C 0.2898 0.14239 0.0298 0.0
C103 C 0.21779 0.10235 -0.00221 0.0
O104 O 0.2312 0.09169 0.01383 0.0
O105 O 0.26529 0.15886 0.9648 0.0
O106 O 0.30338 0.17222 0.96405 0.0
O107 O 0.28318 0.08125 0.98454 0.0
O108 O 0.30456 0.11381 0.97287 0.0
C109 C 0.2813 0.1751 0.9593 0.0
C110 C 0.3039 0.09102 0.97954 0.0
O111 O 0.22773 0.11509 0.98137 0.0
Mg112 Mg 0.76378 0.37902 0.01656 0.0
O113 O 0.7673 0.3629 0.97705 0.0
O114 O 0.80031 0.33992 0.97667 0.0
Mg115 Mg 0.81609 0.33873 0.01465 0.0
C116 C 0.78279 0.34945 0.96578 0.0
C117 C 0.72329 0.41204 -0.0036 0.0
O118 O 0.74194 0.42326 0.98677 0.0
O119 O 0.7495 0.34161 0.02981 0.0
O120 O 0.78271 0.31927 0.03036 0.0
O121 O 0.78719 0.41074 0.00657 0.0
O122 O 0.80074 0.37586 0.02137 0.0
C123 C 0.7604 0.32161 0.03458 0.0
C124 C 0.80511 0.39676 0.01108 0.0
O125 O 0.72634 0.39267 0.00874 0.0
Mg126 Mg 0.88267 0.51837 0.26187 0.0
O127 O 0.87006 0.4775 0.25963 0.0
O128 O 0.84403 0.47173 0.29007 0.0
Mg129 Mg 0.83901 0.50924 0.31076 0.0
C130 C 0.85616 0.46356 0.27179 0.0
C131 C 0.91777 0.50114 0.21954 0.0
O132 O 0.9306 0.49344 0.23768 0.0
O133 O 0.84781 0.53102 0.24623 0.0
O134 O 0.82242 0.52706 0.27738 0.0
O135 O 0.91084 0.50767 0.28716 0.0
O136 O 0.87516 0.52063 0.29911 0.0
C137 C 0.8271 0.53355 0.25567 0.0
C138 C 0.89525 0.51097 0.30447 0.0
O139 O 0.89827 0.51225 0.22398 0.0
Mg140 Mg 0.76452 0.61373 0.47696 0.0
O141 O 0.76991 0.63085 0.51607 0.0
O142 O 0.80701 0.6472 0.51765 0.0
Mg143 Mg 0.82628 0.63793 0.48138 0.0
C144 C 0.78682 0.64263 0.52764 0.0
C145 C 0.71139 0.60983 0.49972 0.0
O146 O 0.72242 0.60727 0.52055 0.0
O147 O 0.76416 0.65242 0.46107 0.0
O148 O 0.80278 0.6639 0.45973 0.0
O149 O 0.77745 0.57613 0.48822 0.0
O150 O 0.80046 0.60687 0.47499 0.0
C151 C 0.78091 0.66734 0.45452 0.0
C152 C 0.79864 0.58497 0.4837 0.0
O153 O 0.72365 0.61287 0.48045 0.0
Mg154 Mg 0.62036 0.48465 0.76426 0.0
O155 O 0.63977 0.52252 0.76216 0.0
O156 O 0.66443 0.52676 0.79404 0.0
Mg157 Mg 0.66114 0.49155 0.81645 0.0
C158 C 0.65532 0.53504 0.77473 0.0
C159 C 0.58939 0.5025 0.72141 0.0
O160 O 0.57874 0.51474 0.73953 0.0
O161 O 0.65301 0.46384 0.75176 0.0
O162 O 0.6755 0.46572 0.78563 0.0
O163 O 0.59259 0.50103 0.78902 0.0
O164 O 0.62559 0.48325 0.80123 0.0
C165 C 0.67127 0.45753 0.76379 0.0
C166 C 0.60602 0.49413 0.80662 0.0
O167 O 0.60716 0.48898 0.7258 0.0
Mg168 Mg 0.00554 0.73857 0.85238 0.0
O169 O 0.00032 0.77327 0.87825 0.0
O170 O 0.96349 0.7714 0.89422 0.0
Mg171 Mg 0.94609 0.73461 0.87978 0.0
C172 C 0.98379 0.78238 0.89193 0.0
C173 C 0.05798 0.72874 0.84006 0.0
O174 O 0.04716 0.70912 0.82939 0.0
O175 O 0.0106 0.71507 0.885 0.0
O176 O 0.97393 0.71246 0.90091 0.0
O177 O 0.99009 0.75776 0.82064 0.0
O178 O 0.96908 0.73619 0.84714 0.0
C179 C -0.00388 0.70723 0.90104 0.0
C180 C 0.96949 0.75004 0.82846 0.0
O181 O 0.04553 0.74543 0.85099 0.0
Mg182 Mg -0.00168 0.26978 0.63755 0.0
O183 O -0.00435 0.22914 0.62452 0.0
O184 O 0.95795 0.21867 0.61468 0.0
Mg185 Mg 0.93664 0.25483 0.62036 0.0
C186 C 0.97982 0.21316 0.61719 0.0
C187 C 0.04965 0.27233 0.65408 0.0
O188 O 0.03781 0.28194 0.67287 0.0
O189 O -0.00434 0.28123 0.59868 0.0
O190 O 0.95722 0.27434 0.58925 0.0
O191 O 0.98939 0.25883 0.67536 0.0
O192 O 0.96277 0.26932 0.64802 0.0
C193 C 0.97827 0.28213 0.58381 0.0
C194 C 0.96726 0.26136 0.66936 0.0
O195 O 0.03835 0.26652 0.6346 0.0
Mg196 Mg 0.50571 0.23728 0.35311 0.0
O197 O 0.4964 0.27396 0.37469 0.0
O198 O 0.45913 0.26954 0.38931 0.0
Mg199 Mg 0.4442 0.2315 0.3752 0.0
C200 C 0.47849 0.28224 0.3869 0.0
C201 C 0.56 0.22886 0.35239 0.0
O202 O 0.55166 0.20563 0.35081 0.0
O203 O 0.50898 0.21628 0.38822 0.0
O204 O 0.47085 0.21189 0.39957 0.0
O205 O 0.49229 0.25324 0.31872 0.0
O206 O 0.46997 0.23254 0.34488 0.0
C207 C 0.49306 0.20804 0.40268 0.0
C208 C 0.47139 0.24546 0.3256 0.0
O209 O 0.54536 0.24676 0.35407 0.0
Mg210 Mg 0.50408 0.76811 0.13886 0.0
O211 O 0.49783 0.72713 0.12807 0.0
O212 O 0.45975 0.7204 0.1173 0.0
Mg213 Mg 0.4414 0.7584 0.12262 0.0
C214 C 0.48079 0.71264 0.12076 0.0
C215 C 0.55465 0.76331 0.1561 0.0
O216 O 0.5431 0.77202 0.17546 0.0
O217 O 0.5022 0.77778 0.09919 0.0
O218 O 0.46324 0.77431 0.09063 0.0
O219 O 0.49409 0.76003 0.17727 0.0
O220 O 0.46878 0.77219 0.14932 0.0
C221 C 0.48475 0.77966 0.0845 0.0
C222 C 0.4725 0.76509 0.17111 0.0
O223 O 0.54367 0.76085 0.13595 0.0
Mg224 Mg 0.89677 0.00563 0.74518 0.0
O225 O 0.87412 0.97024 0.75272 0.0
O226 O 0.85863 0.97478 0.79038 0.0
Mg227 Mg 0.87324 0.012 0.80725 0.0
C228 C 0.86142 0.96215 0.77029 0.0
C229 C 0.8961 0.0159 0.69045 0.0
O230 O 0.8955 0.03879 0.70027 0.0
O231 O 0.86428 0.02948 0.74185 0.0
O232 O 0.85163 0.03485 0.78034 0.0
O233 O 0.92899 0.987 0.75863 0.0
O234 O 0.90404 0.00914 0.782 0.0
C235 C 0.85018 0.03921 0.75764 0.0
C236 C 0.92242 0.99501 0.78021 0.0
O237 O 0.89629 -0.0026 0.70435 0.0
Mg238 Mg 0.75934 0.11398 0.47797 0.0
O239 O 0.76422 0.12832 0.51701 0.0
O240 O 0.80185 0.14122 0.52321 0.0
Mg241 Mg 0.82144 0.13356 0.48672 0.0
C242 C 0.78057 0.1376 0.5309 0.0
C243 C 0.70796 0.09591 0.48126 0.0
O244 O 0.7192 0.07631 0.472 0.0
O245 O 0.76133 0.15356 0.46464 0.0
O246 O 0.8001 0.16389 0.46754 0.0
O247 O 0.7688 0.07599 0.48964 0.0
O248 O 0.79495 0.10368 0.47552 0.0
C249 C 0.77876 0.16886 0.46136 0.0
C250 C 0.7907 0.08221 0.48477 0.0
O251 O 0.71953 0.11643 0.48462 0.0
Mg252 Mg 0.61821 0.9889 0.24583 0.0
O253 O 0.62927 0.02992 0.2512 0.0
O254 O 0.64315 0.0371 0.28902 0.0
Mg255 Mg 0.64025 -0.0001 0.30815 0.0
C256 C 0.6378 0.0447 0.268 0.0
C257 C 0.59731 -0.00222 0.19637 0.0
O258 O 0.57838 0.99297 0.2097 0.0
O259 O 0.65671 0.97712 0.2438 0.0
O260 O 0.66837 0.98166 0.28264 0.0
O261 O 0.5818 -0.00118 0.25847 0.0
O262 O 0.61093 0.98809 0.28298 0.0
C263 C 0.67238 0.97496 0.26035 0.0
C264 C 0.58978 -0.00331 0.28034 0.0
O265 O 0.61784 0.99513 0.2054 0.0
Mg266 Mg 0.74684 0.88074 0.02409 0.0
O267 O 0.74363 0.86279 0.98523 0.0
O268 O 0.77445 0.83707 0.98013 0.0
Mg269 Mg 0.79781 0.84042 0.01452 0.0
C270 C 0.75555 0.84696 0.97232 0.0
C271 C 0.70212 0.91253 0.03345 0.0
O272 O 0.71844 0.92734 0.04398 0.0
O273 O 0.73577 0.84485 0.04168 0.0
O274 O 0.76867 0.82209 0.03855 0.0
O275 O 0.76764 0.91234 0.00926 0.0
O276 O 0.78394 0.87832 0.02315 0.0
C277 C 0.74737 0.82536 0.04638 0.0
C278 C 0.78662 0.89958 0.01302 0.0
O279 O 0.70829 0.89195 0.02304 0.0
Mg280 Mg 0.25589 0.6199 0.98269 0.0
O281 O 0.25774 0.63291 0.02258 0.0
O282 O 0.29229 0.6534 0.02969 0.0
Mg283 Mg 0.31418 0.64974 0.99419 0.0
C284 C 0.27201 0.64515 0.03685 0.0
C285 C 0.20893 0.60188 0.00479 0.0
O286 O 0.22503 0.58992 0.01691 0.0
O287 O 0.25218 0.65995 0.97036 0.0
O288 O 0.28921 0.67595 0.97412 0.0
O289 O 0.27131 0.58315 0.99215 0.0
O290 O 0.29274 0.61619 0.98151 0.0
C291 C 0.26751 0.67764 0.96731 0.0
C292 C 0.2921 0.59353 0.98878 0.0
O293 O 0.21574 0.61577 0.98774 0.0
Mg294 Mg 0.11811 0.48847 0.75099 0.0
O295 O 0.12855 0.53 0.75357 0.0
O296 O 0.1364 0.54039 0.7927 0.0
Mg297 Mg 0.12837 0.50612 0.81525 0.0
C298 C 0.13492 0.54604 0.77036 0.0
C299 C 0.11313 0.47128 0.69745 0.0
O300 O 0.10022 0.45416 0.70833 0.0
O301 O 0.15628 0.47782 0.75796 0.0
O302 O 0.16027 0.48491 0.79822 0.0
O303 O 0.07973 0.49807 0.75538 0.0
O304 O 0.10471 0.49151 0.78573 0.0
C305 C 0.1683 0.47666 0.7776 0.0
C306 C 0.08406 0.49831 0.77857 0.0
O307 O 0.12418 0.48796 0.71045 0.0
Mg308 Mg 0.24502 0.37883 0.5204 0.0
O309 O 0.24039 0.36092 0.48149 0.0
O310 O 0.26791 0.33118 0.47816 0.0
Mg311 Mg 0.29192 0.3329 0.51189 0.0
C312 C 0.25043 0.34294 0.46953 0.0
C313 C 0.20304 0.41621 0.52785 0.0
O314 O 0.22048 0.43096 0.5363 0.0
O315 O 0.23012 0.34395 0.53786 0.0
O316 O 0.2609 0.31809 0.53545 0.0
O317 O 0.26979 0.4082 0.50639 0.0
O318 O 0.28156 0.37206 0.51974 0.0
C319 C 0.23981 0.32335 0.54275 0.0
C320 C 0.28708 0.39315 0.51039 0.0
O321 O 0.20768 0.3943 0.51936 0.0
Mg322 Mg 0.38338 0.50856 0.2461 0.0
O323 O 0.36136 0.47278 0.25417 0.0
O324 O 0.34222 0.48064 0.28963 0.0
Mg325 Mg 0.35383 0.51953 0.30469 0.0
C326 C 0.34709 0.46627 0.27116 0.0
C327 C 0.40412 0.51254 0.19756 0.0
O328 O 0.41509 0.52906 0.21233 0.0
O329 O 0.35031 0.52954 0.23671 0.0
O330 O 0.33397 0.53767 0.27333 0.0
O331 O 0.41488 0.49361 0.26475 0.0
O332 O 0.38689 0.51644 0.28289 0.0
C333 C 0.33424 0.53951 0.25014 0.0
C334 C 0.40626 0.504 0.28459 0.0
O335 O 0.38836 0.49798 0.20631 0.0
O336 O 0.97792 0.04391 0.94625 0.0
Mg337 Mg 0.9633 0.04746 0.98201 0.0
O338 O -0.00464 0.00953 0.95737 0.0
Mg339 Mg 0.00029 0.00695 -0.00112 0.0
O340 O 0.9886 0.04696 0.00871 0.0
O341 O 0.96673 0.08049 0.00298 0.0
O342 O 0.00672 0.00239 0.04012 0.0
O343 O 0.03705 0.02997 -0.0038 0.0
Mg344 Mg 0.03984 0.98499 -0.00339 0.0
O345 O 0.00999 0.96437 0.98718 0.0
O346 O 0.045 0.99542 0.03426 0.0
O347 O 0.05691 0.00689 0.97007 0.0
O348 O 0.0469 0.9487 0.98928 0.0
C349 C 0.94053 -0.00208 -0.00148 0.0
C350 C 0.98854 0.02369 0.94078 0.0
C351 C 0.98282 0.06963 0.01528 0.0
C352 C 0.02771 0.00022 0.04856 0.0
C353 C 0.05451 0.02769 0.98144 0.0
C354 C 0.02457 0.94576 0.98398 0.0
O355 O 0.93718 0.01983 0.991 0.0
O356 O 0.96156 0.98994 0.0023 0.0
O357 O 0.26706 0.7491 0.31734 0.0
Mg358 Mg 0.24598 0.71755 0.30468 0.0
O359 O 0.26407 0.77175 0.2841 0.0
Mg360 Mg 0.25521 0.7451 0.25023 0.0
O361 O 0.25896 0.71152 0.27119 0.0
O362 O 0.25863 0.68059 0.29587 0.0
O363 O 0.24587 0.71772 0.21653 0.0
O364 O 0.29577 0.74352 0.24188 0.0
Mg365 Mg 0.26764 0.76941 0.19669 0.0
O366 O 0.25209 0.77963 0.22871 0.0
O367 O 0.24617 0.73939 0.18267 0.0
O368 O 0.30335 0.7607 0.20617 0.0
O369 O 0.25503 0.80614 0.199 0.0
C370 C 0.20181 0.7385 0.27794 0.0
C371 C 0.26942 0.76971 0.30659 0.0
C372 C 0.26297 0.68848 0.27443 0.0
C373 C 0.24158 0.71943 0.19374 0.0
C374 C 0.31023 0.7501 0.22519 0.0
C375 C 0.24833 0.80155 0.22088 0.0
O376 O 0.2102 0.72703 0.29585 0.0
O377 O 0.21482 0.74638 0.26045 0.0
O378 O 0.55244 0.99188 0.45204 0.0
Mg379 Mg 0.55986 0.98147 0.48824 0.0
O380 O 0.51826 0.01169 0.45934 0.0
Mg381 Mg 0.50617 0.00597 0.49889 0.0
O382 O 0.52758 0.97107 0.50079 0.0
O383 O 0.55652 0.94381 0.49769 0.0
O384 O 0.49236 5e-05 0.53813 0.0
O385 O 0.47573 0.9793 0.48349 0.0
Mg386 Mg 0.45194 0.02777 0.50224 0.0
O387 O 0.48527 0.04104 0.49678 0.0
O388 O 0.45413 0.0113 0.53705 0.0
O389 O 0.44529 0.00197 0.47239 0.0
O390 O 0.45516 0.06681 0.49784 0.0
C391 C 0.5591 0.03008 0.51965 0.0
C392 C 0.53502 0.00465 0.44503 0.0
C393 C 0.53471 0.94861 0.50334 0.0
C394 C 0.47174 0.0021 0.54802 0.0
C395 C 0.45592 0.98119 0.47233 0.0
C396 C 0.47769 0.06342 0.49486 0.0
O397 O 0.57086 0.0107 0.51335 0.0
O398 O 0.53706 0.03206 0.51427 0.0
O399 O 0.31001 0.28199 0.75234 0.0
Mg400 Mg 0.30046 0.26089 0.71995 0.0
O401 O 0.27992 0.26764 0.77487 0.0
Mg402 Mg 0.24787 0.2558 0.74968 0.0
O403 O 0.26596 0.26846 0.71632 0.0
O404 O 0.29052 0.27675 0.68654 0.0
O405 O 0.21686 0.24428 0.72287 0.0
O406 O 0.23405 0.29574 0.75609 0.0
Mg407 Mg 0.19686 0.25348 0.77398 0.0
O408 O 0.22971 0.24263 0.785 0.0
O409 O 0.18492 0.23196 0.74316 0.0
O410 O 0.19813 0.29355 0.77306 0.0
O411 O 0.19672 0.23683 0.80706 0.0
C412 C 0.28157 0.20705 0.73204 0.0
C413 C 0.30017 0.27891 0.77297 0.0
C414 C 0.26892 0.27561 0.69452 0.0
C415 C 0.1961 0.23408 0.72324 0.0
C416 C 0.21565 0.30637 0.76503 0.0
C417 C 0.21958 0.23523 0.80484 0.0
O418 O 0.29804 0.22074 0.72293 0.0
O419 O 0.26309 0.21646 0.74236 0.0
O420 O 0.01393 0.93195 0.49596 0.0
Mg421 Mg 0.02452 0.94684 0.53122 0.0
O422 O -0.00083 0.96497 0.47738 0.0
Mg423 Mg 0.00473 -0.0004 0.50445 0.0
O424 O 0.00227 0.97508 0.53494 0.0
O425 O 0.00019 0.94648 0.56193 0.0
O426 O 0.0107 0.03336 0.53265 0.0
O427 O 0.96353 0.00479 0.50727 0.0
Mg428 Mg 0.99084 0.05633 0.48399 0.0
O429 O 0.00636 0.02432 0.47328 0.0
O430 O 0.01291 0.06928 0.51331 0.0
O431 O 0.95629 0.04351 0.49519 0.0
O432 O 0.00315 0.05414 0.44728 0.0
C433 C 0.06249 0.98361 0.51366 0.0
C434 C 0.0044 0.94168 0.47758 0.0
C435 C 0.99205 0.96686 0.55381 0.0
C436 C 0.01544 0.05691 0.53239 0.0
C437 C 0.9493 0.02272 0.50368 0.0
C438 C 0.01047 0.03216 0.45196 0.0
O439 O 0.05749 0.96723 0.52925 0.0
O440 O 0.04635 0.99462 0.50178 0.0
O441 O 0.26995 0.70665 0.79139 0.0
Mg442 Mg 0.27158 0.69562 0.75349 0.0
O443 O 0.25522 0.7452 0.79024 0.0
Mg444 Mg 0.24991 0.75386 0.74904 0.0
O445 O 0.27868 0.72796 0.73768 0.0
O446 O 0.30256 0.69625 0.7314 0.0
O447 O 0.24412 0.76073 0.70729 0.0
O448 O 0.27891 0.78611 0.75238 0.0
Mg449 Mg 0.22489 0.80812 0.73764 0.0
O450 O 0.22151 0.78042 0.76135 0.0
O451 O 0.21728 0.79042 0.70311 0.0
O452 O 0.26088 0.82108 0.74193 0.0
O453 O 0.19838 0.81303 0.76481 0.0
C454 C 0.21978 0.69839 0.73863 0.0
C455 C 0.2625 0.72669 0.80216 0.0
C456 C 0.29732 0.71905 0.72723 0.0
C457 C 0.22993 0.77284 0.69406 0.0
C458 C 0.27944 0.80951 0.74803 0.0
C459 C 0.2042 0.7915 0.77247 0.0
O460 O 0.23832 0.68507 0.73805 0.0
O461 O 0.22056 0.72185 0.74472 0.0
O462 O 0.48923 0.95092 0.04776 0.0
Mg463 Mg 0.48189 0.98994 0.05491 0.0
O464 O 0.50306 0.95338 0.00971 0.0
Mg465 Mg 0.50318 0.99419 -0.00195 0.0
O466 O 0.4718 0.00238 0.02234 0.0
O467 O 0.4473 0.00497 0.05371 0.0
O468 O 0.50418 0.03536 0.98571 0.0
O469 O 0.47563 0.98171 0.96873 0.0
Mg470 Mg 0.52624 -0.00319 0.94099 0.0
O471 O 0.53387 0.98411 0.97373 0.0
O472 O 0.52468 0.03609 0.95057 0.0
O473 O 0.4934 0.97757 0.93235 0.0
O474 O 0.55875 0.97726 0.94335 0.0
C475 C 0.52993 0.01636 0.04982 0.0
C476 C 0.49758 0.94074 0.02818 0.0
C477 C 0.45151 0.00901 0.0311 0.0
C478 C 0.51442 0.04725 0.96864 0.0
C479 C 0.4753 0.9749 0.94616 0.0
C480 C 0.55371 0.9751 0.96609 0.0
O481 O 0.51169 0.0136 0.06333 0.0
O482 O 0.53064 0.0077 0.02775 0.0
O483 O 0.27098 0.24727 0.18228 0.0
Mg484 Mg 0.24999 0.27625 0.19755 0.0
O485 O 0.2625 0.22215 0.21258 0.0
Mg486 Mg 0.252 0.24618 0.24823 0.0
O487 O 0.26147 0.2835 0.23213 0.0
O488 O 0.26456 0.31216 0.20423 0.0
O489 O 0.24134 0.26889 0.28465 0.0
O490 O 0.29196 0.24568 0.26011 0.0
Mg491 Mg 0.26106 0.21228 0.29616 0.0
O492 O 0.24309 0.20877 0.26419 0.0
O493 O 0.24453 0.24275 0.3152 0.0
O494 O 0.29781 0.217 0.28763 0.0
O495 O 0.24283 0.17806 0.28996 0.0
C496 C 0.20193 0.25507 0.2162 0.0
C497 C 0.2705 0.22566 0.19107 0.0
C498 C 0.26842 0.30564 0.22622 0.0
C499 C 0.23891 0.26388 0.30722 0.0
C500 C 0.30583 0.23334 0.27337 0.0
C501 C 0.23569 0.18669 0.26971 0.0
O502 O 0.21312 0.26686 0.19987 0.0
O503 O 0.2124 0.24706 0.23497 0.0
O504 O 0.4625 0.54337 0.97481 0.0
Mg505 Mg 0.49787 0.55788 0.97894 0.0
O506 O 0.46565 0.51006 -0.00213 0.0
Mg507 Mg 0.50615 0.50071 0.00228 0.0
O508 O 0.51736 0.52724 0.97431 0.0
O509 O 0.52359 0.55897 0.9508 0.0
O510 O 0.54687 0.49118 0.00621 0.0
O511 O 0.50169 0.46915 0.97154 0.0
Mg512 Mg 0.51586 0.44436 0.02501 0.0
O513 O 0.49451 0.47385 0.03027 0.0
O514 O 0.55061 0.45943 0.03096 0.0
O515 O 0.50942 0.43259 0.98815 0.0
O516 O 0.48988 0.44102 0.05274 0.0
C517 C 0.51152 0.55685 0.03351 0.0
C518 C 0.45313 0.52513 0.98592 0.0
C519 C 0.52935 0.5369 0.95705 0.0
C520 C 0.55979 0.47682 0.01859 0.0
C521 C 0.50415 0.44534 0.96991 0.0
C522 C 0.48327 0.46315 0.04756 0.0
O523 O 0.50761 0.56958 0.01488 0.0
O524 O 0.51081 0.53279 0.03279 0.0
O525 O 0.76675 0.2018 0.28728 0.0
Mg526 Mg 0.76693 0.19257 0.24858 0.0
O527 O 0.75589 0.24199 0.2884 0.0
Mg528 Mg 0.74819 0.25274 0.24882 0.0
O529 O 0.77486 0.2258 0.23511 0.0
O530 O 0.7982 0.19433 0.22633 0.0
O531 O 0.73964 0.26296 0.20879 0.0
O532 O 0.7792 0.28246 0.25161 0.0
Mg533 Mg 0.72779 0.31212 0.24594 0.0
O534 O 0.72228 0.28039 0.26372 0.0
O535 O 0.72131 0.29974 0.20887 0.0
O536 O 0.76427 0.32105 0.25329 0.0
O537 O 0.70094 0.31318 0.27366 0.0
C538 C 0.71487 0.19966 0.23737 0.0
C539 C 0.76209 0.22231 0.29906 0.0
C540 C 0.7938 0.21776 0.22466 0.0
C541 C 0.7288 0.27999 0.19761 0.0
C542 C 0.7818 0.3063 0.25372 0.0
C543 C 0.70562 0.29004 0.27687 0.0
O544 O 0.73269 0.18563 0.23365 0.0
O545 O 0.71719 0.22246 0.24553 0.0
O546 O 0.98759 0.46014 0.55285 0.0
Mg547 Mg 0.98302 0.49986 0.55983 0.0
O548 O -0.00299 0.45934 0.51316 0.0
Mg549 Mg 0.00155 0.49988 0.50181 0.0
O550 O 0.97203 0.51084 0.52714 0.0
O551 O 0.94849 0.51533 0.55894 0.0
O552 O 0.00656 0.54101 0.48995 0.0
O553 O 0.97203 0.49169 0.47279 0.0
Mg554 Mg 0.02263 0.49966 0.44418 0.0
O555 O 0.03105 0.48743 0.47689 0.0
O556 O 0.02212 0.53929 0.4523 0.0
O557 O 0.9891 0.48171 0.43698 0.0
O558 O 0.05465 0.47925 0.44567 0.0
C559 C 0.03316 0.51574 0.55332 0.0
C560 C 0.99245 0.4482 0.53282 0.0
C561 C 0.95166 0.51725 0.53582 0.0
C562 C 0.01498 0.55178 0.47123 0.0
C563 C 0.97085 0.48296 0.45079 0.0
C564 C 0.05047 0.47787 0.46868 0.0
O565 O 0.01516 0.52076 0.56665 0.0
O566 O 0.03068 0.50657 0.53154 0.0
O567 O 0.6997 0.79689 0.26914 0.0
Mg568 Mg 0.69433 0.7577 0.27514 0.0
O569 O 0.73619 0.79427 0.25312 0.0
Mg570 Mg 0.74869 0.75376 0.25358 0.0
O571 O 0.72644 0.7469 0.28748 0.0
O572 O 0.69432 0.74551 0.31083 0.0
O573 O 0.76179 0.71284 0.25257 0.0
O574 O 0.77838 0.76796 0.28051 0.0
Mg575 Mg 0.80354 0.75115 0.22723 0.0
O576 O 0.77043 0.76173 0.22104 0.0
O577 O 0.79609 0.71204 0.23138 0.0
O578 O 0.81184 0.77365 0.25908 0.0
O579 O 0.79734 0.76623 0.19252 0.0
C580 C 0.69833 0.73149 0.22582 0.0
C581 C 0.71817 0.80702 0.25978 0.0
C582 C 0.71702 0.74265 0.30846 0.0
C583 C 0.77888 0.70097 0.24213 0.0
C584 C 0.79976 0.77644 0.27867 0.0
C585 C 0.77539 0.76778 0.19927 0.0
O586 O 0.68531 0.73339 0.24477 0.0
O587 O 0.71971 0.74007 0.22574 0.0
O588 O 0.75487 0.24137 0.81602 0.0
Mg589 Mg 0.73376 0.21343 0.79695 0.0
O590 O 0.76147 0.26609 0.78466 0.0
Mg591 Mg 0.75565 0.24295 0.74791 0.0
O592 O 0.75252 0.20692 0.76631 0.0
O593 O 0.74422 0.17579 0.78987 0.0
O594 O 0.7502 0.2198 0.71087 0.0
O595 O 0.79711 0.23717 0.74677 0.0
Mg596 Mg 0.78191 0.27153 0.70147 0.0
O597 O 0.75871 0.27912 0.72863 0.0
O598 O 0.76459 0.24247 0.68057 0.0
O599 O 0.81348 0.26229 0.71951 0.0
O600 O 0.76886 0.30785 0.70245 0.0
C601 C 0.69746 0.24126 0.76563 0.0
C602 C 0.76199 0.26205 0.80748 0.0
C603 C 0.75419 0.18355 0.77032 0.0
C604 C 0.75371 0.22315 0.68814 0.0
C605 C 0.81533 0.24695 0.73645 0.0
C606 C 0.75654 0.30145 0.72116 0.0
O607 O 0.70139 0.22734 0.7834 0.0
O608 O 0.71409 0.24878 0.75134 0.0
O609 O 0.75056 0.75078 0.67967 0.0
Mg610 Mg 0.74132 0.78352 0.7005 0.0
O611 O 0.7578 0.7269 0.71104 0.0
Mg612 Mg 0.75116 0.75094 0.74758 0.0
O613 O 0.76285 0.78737 0.73024 0.0
O614 O 0.76292 0.81545 0.70152 0.0
O615 O 0.74473 0.77471 0.78459 0.0
O616 O 0.79153 0.74735 0.75705 0.0
Mg617 Mg 0.75959 0.71735 0.79559 0.0
O618 O 0.74064 0.71413 0.76419 0.0
O619 O 0.74585 0.74876 0.81544 0.0
O620 O 0.79621 0.71983 0.78593 0.0
O621 O 0.73959 0.6842 0.79091 0.0
C622 C 0.6969 0.7691 0.72665 0.0
C623 C 0.75651 0.73001 0.68806 0.0
C624 C 0.77089 0.80835 0.72211 0.0
C625 C 0.74245 0.77035 0.80733 0.0
C626 C 0.80492 0.73473 0.77059 0.0
C627 C 0.73255 0.69252 0.77047 0.0
O628 O 0.70579 0.78501 0.71249 0.0
O629 O 0.71018 0.7546 0.73845 0.0
O630 O 0.56866 0.49655 0.48664 0.0
Mg631 Mg 0.55073 0.46462 0.50004 0.0
O632 O 0.53773 0.5212 0.49362 0.0
Mg633 Mg 0.50279 0.49719 0.50005 0.0
O634 O 0.51812 0.46059 0.48396 0.0
O635 O 0.54642 0.43239 0.47807 0.0
O636 O 0.46691 0.47404 0.50665 0.0
O637 O 0.49127 0.50447 0.46043 0.0
Mg638 Mg 0.45634 0.5333 0.49833 0.0
O639 O 0.488 0.53375 0.5158 0.0
O640 O 0.43739 0.50141 0.5098 0.0
O641 O 0.46407 0.53425 0.4605 0.0
O642 O 0.46218 0.56424 0.52198 0.0
C643 C 0.53033 0.47734 0.55033 0.0
C644 C 0.55965 0.51819 0.48791 0.0
C645 C 0.52504 0.43957 0.47389 0.0
C646 C 0.44494 0.47918 0.51063 0.0
C647 C 0.47799 0.51926 0.44915 0.0
C648 C 0.48269 0.55497 0.52644 0.0
O649 O 0.54562 0.46447 0.5384 0.0
O650 O 0.51477 0.49003 0.53957 0.0
O651 O 0.04944 0.48442 0.95143 0.0
Mg652 Mg 0.05547 0.48077 0.9895 0.0
O653 O 0.01556 0.50527 0.95576 0.0
Mg654 Mg 0.00162 0.50474 -0.00477 0.0
O655 O 0.0232 0.47073 0.00304 0.0
O656 O 0.05396 0.44562 0.00484 0.0
O657 O 0.98567 0.50454 0.03443 0.0
O658 O 0.97184 0.47667 0.98163 0.0
Mg659 Mg 0.9467 0.52951 -0.00558 0.0
O660 O 0.98065 0.53788 0.98703 0.0
O661 O 0.94971 0.52188 0.03223 0.0
O662 O 0.93971 0.49744 0.9709 0.0
O663 O 0.95357 0.56607 0.98165 0.0
C664 C 0.05347 0.5329 0.01422 0.0
C665 C 0.03231 0.4963 0.9425 0.0
C666 C 0.03166 0.44954 0.00885 0.0
C667 C 0.96618 0.51196 0.04437 0.0
C668 C 0.95134 0.47725 0.97155 0.0
C669 C 0.97567 0.56001 0.98088 0.0
O670 O 0.06604 0.51366 0.00996 0.0
O671 O 0.03135 0.53325 0.00877 0.0
H672 H 0.01613 0.20066 0.10827 0.0
H673 H 0.94138 0.18062 0.10017 0.0
H674 H 0.02681 0.15877 0.09196 0.0
H675 H 0.95201 0.13891 0.08452 0.0
H676 H 0.97117 0.06389 0.06259 0.0
H677 H 0.97374 0.09771 0.09422 0.0
H678 H 0.01852 0.14118 0.04689 0.0
H679 H 0.01554 0.10756 0.01527 0.0
C680 C 0.002 0.18713 0.10359 0.0
C681 C 0.9779 0.19401 0.10519 0.0
C682 C 0.00813 0.1632 0.09432 0.0
C683 C 0.99025 0.14556 0.08714 0.0
C684 C 0.96619 0.15197 0.09026 0.0
C685 C 0.96009 0.17597 0.09897 0.0
C686 C 0.98263 0.0801 0.05956 0.0
C687 C 0.99317 0.08328 0.03664 0.0
C688 C 0.98394 0.09951 0.07754 0.0
C689 C -0.00402 0.12221 0.07281 0.0
C690 C 0.00919 0.12389 0.05108 0.0
C691 C 0.00756 0.10463 0.03298 0.0
H692 H 0.06852 0.75759 0.34777 0.0
H693 H 0.0465 0.72563 0.27737 0.0
H694 H 0.10953 0.76129 0.3328 0.0
H695 H 0.08739 0.72949 0.26248 0.0
H696 H 0.16754 0.70479 0.2639 0.0
H697 H 0.12477 0.70753 0.27239 0.0
H698 H 0.13571 0.7831 0.30254 0.0
H699 H 0.17863 0.78015 0.29389 0.0
C700 C 0.07237 0.75159 0.32906 0.0
C701 C 0.05428 0.74111 0.31385 0.0
C702 C 0.09581 0.7539 0.32043 0.0
C703 C 0.10165 0.74565 0.29647 0.0
C704 C 0.08345 0.73581 0.28108 0.0
C705 C 0.06002 0.73363 0.28965 0.0
C706 C 0.16057 0.72222 0.27159 0.0
C707 C 0.17604 0.74241 0.27791 0.0
C708 C 0.13617 0.72381 0.27651 0.0
C709 C 0.12692 0.74551 0.28823 0.0
C710 C 0.14238 0.76611 0.29365 0.0
C711 C 0.1668 0.76457 0.28848 0.0
H712 H 0.52186 0.82559 0.58719 0.0
H713 H 0.46556 0.80506 0.5358 0.0
H714 H 0.52757 0.86546 0.56774 0.0
H715 H 0.47154 0.84511 0.51632 0.0
H716 H 0.52095 0.90727 0.4768 0.0
H717 H 0.50604 0.86794 0.49317 0.0
H718 H 0.50031 0.90462 0.5647 0.0
H719 H 0.51479 0.94415 0.54805 0.0
C720 C 0.51102 0.82931 0.57147 0.0
C721 C 0.49313 0.81219 0.56319 0.0
C722 C 0.51403 0.85233 0.56062 0.0
C723 C 0.49947 0.85855 0.54107 0.0
C724 C 0.4827 0.84083 0.53164 0.0
C725 C 0.47947 0.81788 0.54268 0.0
C726 C 0.51555 0.90705 0.4958 0.0
C727 C 0.51897 0.92841 0.51131 0.0
C728 C 0.50711 0.88463 0.50514 0.0
C729 C 0.50262 0.88325 0.53024 0.0
C730 C 0.50405 0.90525 0.54532 0.0
C731 C 0.51205 0.92782 0.53584 0.0
H732 H 0.40864 0.2364 0.87139 0.0
H733 H 0.43577 0.26575 0.80422 0.0
H734 H 0.37022 0.25519 0.86425 0.0
H735 H 0.39715 0.28305 0.79631 0.0
H736 H 0.30255 0.2501 0.81244 0.0
H737 H 0.33803 0.24612 0.83699 0.0
H738 H 0.36806 0.31357 0.80704 0.0
H739 H 0.33271 0.31686 0.78166 0.0
C740 C 0.40655 0.24704 0.85525 0.0
C741 C 0.42543 0.24982 0.83854 0.0
C742 C 0.38444 0.25773 0.8511 0.0
C743 C 0.38061 0.271 0.82991 0.0
C744 C 0.39957 0.27373 0.81326 0.0
C745 C 0.42169 0.26337 0.81757 0.0
C746 C 0.31617 0.26479 0.81202 0.0
C747 C 0.31529 0.28334 0.79467 0.0
C748 C 0.33667 0.26248 0.82608 0.0
C749 C 0.35636 0.27888 0.82307 0.0
C750 C 0.35356 0.30003 0.80895 0.0
C751 C 0.33325 0.30208 0.79459 0.0
H752 H 0.004 0.81444 0.3737 0.0
H753 H 0.93707 0.81566 0.41323 0.0
H754 H 0.01263 0.85751 0.38822 0.0
H755 H 0.94597 0.8585 0.42802 0.0
H756 H 0.96429 0.9384 0.44888 0.0
H757 H 0.95374 0.90367 0.41964 0.0
H758 H 0.02331 0.87222 0.42975 0.0
H759 H 0.03358 0.90649 0.45861 0.0
C760 C 0.99103 0.82392 0.38532 0.0
C761 C 0.97012 0.81135 0.39281 0.0
C762 C -0.00405 0.84863 0.39355 0.0
C763 C 0.98009 0.86133 0.40944 0.0
C764 C 0.95846 0.84934 0.41562 0.0
C765 C 0.95353 0.82463 0.40739 0.0
C766 C 0.97746 0.9244 0.44418 0.0
C767 C -0.00041 0.92481 0.45613 0.0
C768 C 0.97141 0.90449 0.42763 0.0
C769 C 0.98762 0.88509 0.42258 0.0
C770 C 0.01047 0.88689 0.43304 0.0
C771 C 0.01632 0.90644 0.44973 0.0
H772 H 0.43416 0.7507 0.6958 0.0
H773 H 0.40658 0.76135 0.62346 0.0
H774 H 0.39353 0.75037 0.7119 0.0
H775 H 0.36595 0.7607 0.63964 0.0
H776 H 0.30863 0.70723 0.6806 0.0
H777 H 0.34312 0.72345 0.65856 0.0
H778 H 0.35606 0.77884 0.71714 0.0
H779 H 0.32108 0.76271 0.73901 0.0
C780 C 0.41945 0.75285 0.68333 0.0
C781 C 0.42354 0.75556 0.65831 0.0
C782 C 0.39626 0.75315 0.69261 0.0
C783 C 0.37675 0.75589 0.677 0.0
C784 C 0.38078 0.75876 0.65201 0.0
C785 C 0.404 0.7588 0.64277 0.0
C786 C 0.31828 0.72356 0.68818 0.0
C787 C 0.31257 0.73373 0.71138 0.0
C788 C 0.33792 0.73289 0.67559 0.0
C789 C 0.35237 0.75205 0.68643 0.0
C790 C 0.34521 0.76389 0.70859 0.0
C791 C 0.3252 0.75483 0.72098 0.0
H792 H 0.53371 0.18319 0.90532 0.0
H793 H 0.48144 0.204 0.96024 0.0
H794 H 0.54291 0.1463 0.92727 0.0
H795 H 0.49134 0.16733 0.98295 0.0
H796 H 0.4785 0.07986 0.97911 0.0
H797 H 0.47977 0.12512 0.97412 0.0
H798 H 0.55549 0.12193 0.9587 0.0
H799 H 0.5536 0.07652 0.96211 0.0
C800 C 0.52488 0.18048 0.92265 0.0
C801 C 0.50624 0.19604 0.93054 0.0
C802 C 0.53022 0.15922 0.93541 0.0
C803 C 0.51724 0.15326 0.95654 0.0
C804 C 0.50103 0.17082 0.96626 0.0
C805 C 0.49549 0.19197 0.95333 0.0
C806 C 0.49541 0.08902 0.97502 0.0
C807 C 0.51578 0.07483 0.97025 0.0
C808 C 0.49629 0.11502 0.97241 0.0
C809 C 0.51769 0.12725 0.96546 0.0
C810 C 0.53855 0.11312 0.96325 0.0
C811 C 0.53751 0.08713 0.96523 0.0
H812 H 0.04551 0.23696 0.20881 0.0
H813 H 0.07163 0.27065 0.14328 0.0
H814 H 0.0866 0.23216 0.22256 0.0
H815 H 0.11243 0.26614 0.1571 0.0
H816 H 0.18271 0.23627 0.17435 0.0
H817 H 0.14064 0.23304 0.1635 0.0
H818 H 0.12158 0.25879 0.23669 0.0
H819 H 0.16411 0.26113 0.24777 0.0
C820 C 0.06 0.24327 0.19731 0.0
C821 C 0.05533 0.25417 0.17492 0.0
C822 C 0.0835 0.24062 0.20527 0.0
C823 C 0.10276 0.2486 0.19086 0.0
C824 C 0.09801 0.25939 0.16845 0.0
C825 C 0.0746 0.26216 0.16058 0.0
C826 C 0.16948 0.24083 0.18822 0.0
C827 C 0.1765 0.24932 0.21175 0.0
C828 C 0.14543 0.23912 0.18199 0.0
C829 C 0.12783 0.2463 0.19903 0.0
C830 C 0.13476 0.25317 0.22315 0.0
C831 C 0.15901 0.25454 0.22951 0.0
H832 H 0.11216 0.98229 0.17393 0.0
H833 H 0.04189 0.98535 0.20648 0.0
H834 H 0.09509 0.99062 0.13439 0.0
H835 H 0.02488 0.99475 0.16716 0.0
H836 H 0.00214 0.98009 0.08578 0.0
H837 H 0.01581 0.97639 0.12783 0.0
H838 H 0.0779 0.0227 0.11236 0.0
H839 H 0.06476 0.02513 0.07026 0.0
C840 C 0.09309 0.98492 0.17265 0.0
C841 C 0.07839 0.98308 0.19326 0.0
C842 C 0.08328 0.98996 0.15003 0.0
C843 C 0.05858 0.99364 0.14759 0.0
C844 C 0.0439 0.99177 0.16828 0.0
C845 C 0.05368 0.98642 0.19084 0.0
C846 C 0.01842 0.98984 0.09165 0.0
C847 C 0.03262 0.00256 0.07488 0.0
C848 C 0.02631 0.98775 0.1157 0.0
C849 C 0.04832 -0.00128 0.12333 0.0
C850 C 0.06133 0.01326 0.10691 0.0
C851 C 0.05371 0.0149 0.08288 0.0
H852 H 0.31598 0.86108 0.43099 0.0
H853 H 0.24065 0.84372 0.43654 0.0
H854 H 0.31495 0.85011 0.38734 0.0
H855 H 0.23969 0.83174 0.39281 0.0
H856 H 0.24317 0.81169 0.31304 0.0
H857 H 0.24583 0.84156 0.34836 0.0
H858 H 0.31078 0.80677 0.37069 0.0
H859 H 0.3077 0.77695 0.33597 0.0
C860 C 0.29913 0.85512 0.4227 0.0
C861 C 0.27851 0.85255 0.43705 0.0
C862 C 0.29853 0.84897 0.39775 0.0
C863 C 0.27737 0.83964 0.38674 0.0
C864 C 0.25624 0.83903 0.40075 0.0
C865 C 0.25678 0.84562 0.42578 0.0
C866 C 0.25849 0.81124 0.32504 0.0
C867 C 0.27526 0.79215 0.32199 0.0
C868 C 0.25988 0.82811 0.34532 0.0
C869 C 0.27836 0.82634 0.36243 0.0
C870 C 0.2964 0.80879 0.3578 0.0
C871 C 0.29471 0.79168 0.33792 0.0
H872 H 0.39638 0.0106 0.67884 0.0
H873 H 0.46378 0.98629 0.70673 0.0
H874 H 0.4111 0.00453 0.63745 0.0
H875 H 0.47848 0.97972 0.66489 0.0
H876 H 0.50122 0.00972 0.58741 0.0
H877 H 0.48997 0.00554 0.63031 0.0
H878 H 0.4221 0.97234 0.60766 0.0
H879 H 0.433 0.97754 0.5651 0.0
C880 C 0.41429 0.00371 0.67613 0.0
C881 C 0.42892 -0.00099 0.69608 0.0
C882 C 0.42268 -2e-05 0.65234 0.0
C883 C 0.44591 0.9914 0.64784 0.0
C884 C 0.46054 0.98642 0.66778 0.0
C885 C 0.45208 0.99012 0.6917 0.0
C886 C 0.48417 0.001 0.59173 0.0
C887 C 0.46774 0.99442 0.57316 0.0
C888 C 0.47772 -0.00145 0.61623 0.0
C889 C 0.45489 0.98918 0.62236 0.0
C890 C 0.43951 0.98034 0.60354 0.0
C891 C 0.44578 0.98318 0.57921 0.0
H892 H 0.31058 0.19948 0.92749 0.0
H893 H 0.23699 0.19319 0.9507 0.0
H894 H 0.29785 0.21721 0.88948 0.0
H895 H 0.22439 0.21155 0.91305 0.0
H896 H 0.20848 0.19689 0.83335 0.0
H897 H 0.22501 0.18886 0.87314 0.0
H898 H 0.27693 0.24906 0.86507 0.0
H899 H 0.26026 0.25683 0.82463 0.0
C900 C 0.29176 0.20281 0.92497 0.0
C901 C 0.2747 0.19416 0.94177 0.0
C902 C 0.28448 0.21293 0.90309 0.0
C903 C 0.26007 0.21475 0.89786 0.0
C904 C 0.24331 0.20942 0.9162 0.0
C905 C 0.25053 0.19914 0.93789 0.0
C906 C 0.22373 0.20807 0.83987 0.0
C907 C 0.23326 0.2273 0.82594 0.0
C908 C 0.23297 0.20378 0.86283 0.0
C909 C 0.25178 0.21887 0.87262 0.0
C910 C 0.26229 0.23727 0.85809 0.0
C911 C 0.25302 0.24149 0.83487 0.0
H912 H 0.05635 0.01343 0.30924 0.0
H913 H 0.11403 0.97704 0.34504 0.0
H914 H 0.03492 0.01701 0.34778 0.0
H915 H 0.09221 0.97988 0.38356 0.0
H916 H 0.05782 0.02505 0.44993 0.0
H917 H 0.0802 0.01123 0.41367 0.0
H918 H 0.0138 0.99211 0.37653 0.0
H919 H 0.99164 0.00728 0.41252 0.0
C920 C 0.06442 0.00618 0.32536 0.0
C921 C 0.08687 0.99511 0.3242 0.0
C922 C 0.05201 0.00787 0.34738 0.0
C923 C 0.0617 -0.0017 0.36863 0.0
C924 C 0.08431 0.98745 0.36751 0.0
C925 C 0.09683 0.98593 0.34548 0.0
C926 C 0.0482 0.01718 0.43417 0.0
C927 C 0.02325 0.01732 0.43355 0.0
C928 C 0.06093 0.00924 0.41346 0.0
C929 C 0.0487 0.00121 0.39205 0.0
C930 C 0.02365 -0.00105 0.39253 0.0
C931 C 0.01097 0.00731 0.41309 0.0
H932 H 0.27411 0.78193 0.5438 0.0
H933 H 0.21997 0.83625 0.5617 0.0
H934 H 0.26186 0.75787 0.57869 0.0
H935 H 0.20839 0.81297 0.59687 0.0
H936 H 0.19223 0.77604 0.66329 0.0
H937 H 0.19387 0.77967 0.61913 0.0
H938 H 0.26969 0.76596 0.62049 0.0
H939 H 0.26755 0.76092 0.66436 0.0
C940 C 0.25923 0.78847 0.55484 0.0
C941 C 0.2485 0.81146 0.55036 0.0
C942 C 0.25231 0.77474 0.57498 0.0
C943 C 0.23465 0.78381 0.59119 0.0
C944 C 0.22209 0.80524 0.58496 0.0
C945 C 0.22883 0.8188 0.56471 0.0
C946 C 0.20907 0.77305 0.65394 0.0
C947 C 0.22987 0.76871 0.66723 0.0
C948 C 0.21007 0.77529 0.62865 0.0
C949 C 0.23204 0.77393 0.61619 0.0
C950 C 0.25239 0.7671 0.62927 0.0
C951 C 0.25125 0.76432 0.65454 0.0
H952 H 0.43815 0.98822 0.81633 0.0
H953 H 0.37266 0.01776 0.84664 0.0
H954 H 0.44575 0.96806 0.85388 0.0
H955 H 0.37954 0.9961 0.88415 0.0
H956 H 0.43431 0.00035 0.95043 0.0
H957 H 0.40636 0.00308 0.91706 0.0
H958 H 0.43641 0.93678 0.88183 0.0
H959 H 0.46562 0.93537 0.91459 0.0
C960 C 0.42511 0.99007 0.8309 0.0
C961 C 0.40477 0.00458 0.82841 0.0
C962 C 0.42918 0.97797 0.85237 0.0
C963 C 0.41296 0.97991 0.872 0.0
C964 C 0.39231 0.99406 0.86936 0.0
C965 C 0.38837 0.00648 0.84783 0.0
C966 C 0.4341 0.98563 0.93617 0.0
C967 C 0.45254 0.96829 0.93435 0.0
C968 C 0.41802 0.98714 0.91694 0.0
C969 C 0.4202 0.97101 0.89609 0.0
C970 C 0.43519 0.95024 0.89714 0.0
C971 C 0.45177 0.94925 0.91594 0.0
H972 H 0.24874 0.15355 0.05513 0.0
H973 H 0.32396 0.14129 0.06479 0.0
H974 H 0.24527 0.16623 0.09845 0.0
H975 H 0.32038 0.15287 0.10813 0.0
H976 H 0.31067 0.22038 0.16426 0.0
H977 H 0.3155 0.19336 0.12783 0.0
H978 H 0.24745 0.15703 0.14202 0.0
H979 H 0.24284 0.18436 0.17889 0.0
C980 C 0.26441 0.15307 0.06663 0.0
C981 C 0.28675 0.14711 0.05647 0.0
C982 C 0.2624 0.1601 0.09151 0.0
C983 C 0.28265 0.16092 0.10676 0.0
C984 C 0.30456 0.15305 0.09683 0.0
C985 C 0.30663 0.14647 0.07198 0.0
C986 C 0.29722 0.20595 0.16009 0.0
C987 C 0.27647 0.20436 0.17432 0.0
C988 C 0.29992 0.19041 0.13917 0.0
C989 C 0.2817 0.17319 0.13173 0.0
C990 C 0.26168 0.1703 0.14706 0.0
C991 C 0.25918 0.18567 0.16832 0.0
H992 H 0.19068 0.07561 0.02964 0.0
H993 H 0.18574 0.11748 0.96409 0.0
H994 H 0.1486 0.06325 0.02562 0.0
H995 H 0.14371 0.10484 0.96007 0.0
H996 H 0.08751 0.03653 0.94599 0.0
H997 H 0.12528 0.06005 0.95089 0.0
H998 H 0.10577 0.08198 0.02489 0.0
H999 H 0.06772 0.05898 0.01984 0.0
C1000 C 0.18057 0.08249 0.01459 0.0
C1001 C 0.19166 0.09732 -0.00294 0.0
C1002 C 0.15644 0.07551 0.01237 0.0
C1003 C 0.14297 0.08303 0.99247 0.0
C1004 C 0.15376 0.09866 0.97548 0.0
C1005 C 0.17782 0.10588 0.97783 0.0
C1006 C 0.09103 0.04695 0.96306 0.0
C1007 C 0.07476 0.04587 0.98253 0.0
C1008 C 0.1126 0.06043 0.96586 0.0
C1009 C 0.11849 0.07262 0.98835 0.0
C1010 C 0.10169 0.07261 0.00742 0.0
C1011 C 0.07987 0.05961 0.00444 0.0
H1012 H 0.71193 0.45813 0.97968 0.0
H1013 H 0.68086 0.39229 0.0117 0.0
H1014 H 0.67362 0.47933 0.98419 0.0
H1015 H 0.64291 0.41342 0.01606 0.0
H1016 H 0.59221 0.46497 0.05244 0.0
H1017 H 0.63297 0.45193 0.04457 0.0
H1018 H 0.62751 0.47436 0.9701 0.0
H1019 H 0.58635 0.48767 0.97803 0.0
C1020 C 0.69689 0.44805 0.98734 0.0
C1021 C 0.69954 0.42366 -0.00425 0.0
C1022 C 0.67501 0.46022 0.98989 0.0
C1023 C 0.65555 0.44821 0.00099 0.0
C1024 C 0.65786 0.42333 0.00801 0.0
C1025 C 0.67957 0.4112 0.00542 0.0
C1026 C 0.59991 0.46786 0.03459 0.0
C1027 C 0.58602 0.47698 0.01577 0.0
C1028 C 0.62316 0.4602 0.03003 0.0
C1029 C 0.63305 0.46145 0.00656 0.0
C1030 C 0.62016 0.47302 0.98832 0.0
C1031 C 0.59671 0.48079 0.99291 0.0
H1032 H 0.87979 0.42638 0.29259 0.0
H1033 H 0.82883 0.44103 0.23647 0.0
H1034 H 0.87298 0.38098 0.28539 0.0
H1035 H 0.82177 0.39595 0.22929 0.0
H1036 H 0.81004 0.31797 0.21581 0.0
H1037 H 0.83869 0.35327 0.21684 0.0
H1038 H 0.83423 0.35773 0.29559 0.0
H1039 H 0.80551 0.3227 0.29437 0.0
C1040 C 0.86751 0.41972 0.27839 0.0
C1041 C 0.85463 0.43678 0.26512 0.0
C1042 C 0.86371 0.3939 0.27421 0.0
C1043 C 0.84697 0.38495 0.25672 0.0
C1044 C 0.83518 0.40224 0.24251 0.0
C1045 C 0.83897 0.428 0.24673 0.0
C1046 C 0.81627 0.32567 0.23333 0.0
C1047 C 0.80563 0.31796 0.25502 0.0
C1048 C 0.83251 0.34593 0.23393 0.0
C1049 C 0.8382 0.35856 0.25625 0.0
C1050 C 0.83017 0.34836 0.27812 0.0
C1051 C 0.81376 0.32828 0.27748 0.0
H1052 H 0.83655 0.60426 0.50851 0.0
H1053 H 0.80961 0.53609 0.47227 0.0
H1054 H 0.87501 0.58511 0.51409 0.0
H1055 H 0.84854 0.5165 0.478 0.0
H1056 H 0.91045 0.49067 0.53218 0.0
H1057 H 0.87304 0.50421 0.51468 0.0
H1058 H 0.90954 0.56972 0.48787 0.0
H1059 H 0.94714 0.5558 0.50523 0.0
C1060 C 0.83901 0.58518 0.50157 0.0
C1061 C 0.82036 0.5717 0.48974 0.0
C1062 C 0.86106 0.57427 0.50459 0.0
C1063 C 0.86498 0.54958 0.49583 0.0
C1064 C 0.84603 0.53568 0.48468 0.0
C1065 C 0.82378 0.54671 0.48165 0.0
C1066 C 0.91051 0.50757 0.52188 0.0
C1067 C 0.93134 0.52248 0.52023 0.0
C1068 C 0.88919 0.51523 0.51178 0.0
C1069 C 0.88834 0.53823 0.50037 0.0
C1070 C 0.90972 0.55205 0.4969 0.0
C1071 C 0.93118 0.54411 0.50667 0.0
H1072 H 0.16107 0.04875 0.2278 0.0
H1073 H 0.15195 0.07874 0.30158 0.0
H1074 H 0.17709 0.08969 0.21568 0.0
H1075 H 0.16705 0.11953 0.28938 0.0
H1076 H 0.18797 0.19196 0.26698 0.0
H1077 H 0.15994 0.1566 0.25961 0.0
H1078 H 0.21793 0.11078 0.23317 0.0
H1079 H 0.24585 0.14594 0.24103 0.0
C1080 C 0.16193 0.06426 0.24123 0.0
C1081 C 0.15559 0.06061 0.2657 0.0
C1082 C 0.17097 0.08762 0.23427 0.0
C1083 C 0.17303 0.1078 0.25152 0.0
C1084 C 0.16526 0.10443 0.27559 0.0
C1085 C 0.15691 0.08102 0.28267 0.0
C1086 C 0.1944 0.17477 0.25824 0.0
C1087 C 0.21893 0.17146 0.2546 0.0
C1088 C 0.17843 0.15452 0.25417 0.0
C1089 C 0.18689 0.13089 0.24626 0.0
C1090 C 0.21092 0.12879 0.23921 0.0
C1091 C 0.22691 0.14892 0.24364 0.0
H1092 H 0.3478 0.87404 0.50837 0.0
H1093 H 0.32049 0.94287 0.48168 0.0
H1094 H 0.38662 0.88352 0.49038 0.0
H1095 H 0.35923 0.95305 0.46511 0.0
H1096 H 0.45413 0.93798 0.49664 0.0
H1097 H 0.41866 0.91144 0.49926 0.0
H1098 H 0.38937 0.94582 0.4362 0.0
H1099 H 0.42432 0.97374 0.43486 0.0
C1100 C 0.34996 0.89107 0.49853 0.0
C1101 C 0.33096 0.90765 0.49642 0.0
C1102 C 0.37229 0.89656 0.48826 0.0
C1103 C 0.37617 0.91894 0.476 0.0
C1104 C 0.35694 0.93525 0.47369 0.0
C1105 C 0.33468 0.92963 0.48364 0.0
C1106 C 0.44057 0.93913 0.48269 0.0
C1107 C 0.44147 0.95847 0.46611 0.0
C1108 C 0.4201 0.92385 0.48418 0.0
C1109 C 0.40057 0.9274 0.4687 0.0
C1110 C 0.40361 0.94349 0.44918 0.0
C1111 C 0.42376 0.95926 0.44815 0.0
H1112 H 0.7807 0.54326 0.26877 0.0
H1113 H 0.83463 0.56089 0.21526 0.0
H1114 H 0.75966 0.58118 0.25945 0.0
H1115 H 0.81457 0.59902 0.20692 0.0
H1116 H 0.78561 0.67265 0.20093 0.0
H1117 H 0.78636 0.62709 0.19629 0.0
H1118 H 0.77032 0.62205 0.27328 0.0
H1119 H 0.76785 0.66767 0.2772 0.0
C1120 C 0.78773 0.55483 0.25454 0.0
C1121 C 0.80995 0.54971 0.2436 0.0
C1122 C 0.77578 0.57672 0.24937 0.0
C1123 C 0.78601 0.5939 0.23339 0.0
C1124 C 0.80616 0.58659 0.21962 0.0
C1125 C 0.81787 0.56457 0.22452 0.0
C1126 C 0.78195 0.66164 0.21674 0.0
C1127 C 0.77738 0.67346 0.23959 0.0
C1128 C 0.78234 0.63555 0.2141 0.0
C1129 C 0.77898 0.62072 0.23447 0.0
C1130 C 0.77281 0.63268 0.25705 0.0
C1131 C 0.77173 0.65885 0.25949 0.0
H1132 H 0.71814 0.44638 0.77047 0.0
H1133 H 0.65158 0.41696 0.74037 0.0
H1134 H 0.73597 0.40516 0.76353 0.0
H1135 H 0.66861 0.37574 0.73503 0.0
H1136 H 0.718 0.31742 0.69875 0.0
H1137 H 0.69604 0.35491 0.70982 0.0
H1138 H 0.73519 0.36291 0.77782 0.0
H1139 H 0.75768 0.32525 0.76602 0.0
C1140 C 0.70751 0.43117 0.76206 0.0
C1141 C 0.68375 0.43492 0.75533 0.0
C1142 C 0.71747 0.40749 0.75862 0.0
C1143 C 0.7036 0.38712 0.74896 0.0
C1144 C 0.6799 0.39108 0.74211 0.0
C1145 C 0.67021 0.41479 0.74493 0.0
C1146 C 0.72129 0.32683 0.71639 0.0
C1147 C 0.7393 0.31881 0.7316 0.0
C1148 C 0.70876 0.3483 0.72279 0.0
C1149 C 0.71418 0.36217 0.74451 0.0
C1150 C 0.73101 0.35289 0.76071 0.0
C1151 C 0.74357 0.33122 0.75424 0.0
H1152 H 0.95184 0.81798 0.90718 0.0
H1153 H 0.02652 0.79992 0.9094 0.0
H1154 H 0.96033 0.85763 0.92983 0.0
H1155 H 0.03487 0.8384 0.9333 0.0
H1156 H 0.04985 0.91921 0.95068 0.0
H1157 H 0.03875 0.88062 0.92855 0.0
H1158 H 0.97101 0.87917 0.96672 0.0
H1159 H 0.98182 0.91941 0.98778 0.0
C1160 C 0.97004 0.82242 0.91274 0.0
C1161 C 0.98861 0.8061 0.90619 0.0
C1162 C 0.9749 0.84506 0.92591 0.0
C1163 C -0.00162 0.85159 0.93322 0.0
C1164 C 0.01669 0.83462 0.92735 0.0
C1165 C 0.01193 0.81239 0.91373 0.0
C1166 C 0.03259 0.91062 0.95443 0.0
C1167 C 0.01683 0.92207 0.97119 0.0
C1168 C 0.02625 0.88829 0.94184 0.0
C1169 C 0.00417 0.87621 0.94615 0.0
C1170 C 0.98814 0.8879 0.96278 0.0
C1171 C -0.00568 0.91083 0.97499 0.0
H1172 H 0.96897 0.23405 0.71085 0.0
H1173 H 0.92108 0.27429 0.66559 0.0
H1174 H 0.93533 0.22406 0.73822 0.0
H1175 H 0.88813 0.26455 0.6928 0.0
H1176 H 0.8478 0.2765 0.76044 0.0
H1177 H 0.89053 0.27496 0.75189 0.0
H1178 H 0.88052 0.20217 0.71569 0.0
H1179 H 0.83768 0.20358 0.72451 0.0
C1180 C 0.95136 0.24074 0.70678 0.0
C1181 C 0.94757 0.25485 0.68603 0.0
C1182 C 0.93226 0.23501 0.72238 0.0
C1183 C 0.90939 0.24364 0.71744 0.0
C1184 C 0.90572 0.25774 0.69684 0.0
C1185 C 0.92455 0.26322 0.68126 0.0
C1186 C 0.855 0.25941 0.75224 0.0
C1187 C 0.83962 0.2402 0.743 0.0
C1188 C 0.87944 0.25853 0.74736 0.0
C1189 C 0.8886 0.23852 0.73305 0.0
C1190 C 0.8738 0.21761 0.72704 0.0
C1191 C 0.84931 0.21842 0.73208 0.0
H1192 H 0.46794 0.19832 0.44374 0.0
H1193 H 0.53368 0.18038 0.40616 0.0
H1194 H 0.47463 0.16542 0.47175 0.0
H1195 H 0.54067 0.14718 0.4347 0.0
H1196 H 0.50738 0.06695 0.45582 0.0
H1197 H 0.52051 0.10631 0.43836 0.0
H1198 H 0.49659 0.14715 0.50345 0.0
H1199 H 0.48224 0.10787 0.52004 0.0
C1200 C 0.48416 0.1877 0.44184 0.0
C1201 C 0.50002 0.19164 0.42246 0.0
C1202 C 0.48821 0.16893 0.45814 0.0
C1203 C 0.50818 0.15346 0.45545 0.0
C1204 C 0.52502 0.1586 0.43713 0.0
C1205 C 0.52105 0.17767 0.42086 0.0
C1206 C 0.50586 0.08429 0.46671 0.0
C1207 C 0.4934 0.08466 0.48893 0.0
C1208 C 0.51343 0.10689 0.45677 0.0
C1209 C 0.50882 0.12999 0.46918 0.0
C1210 C 0.49966 0.12975 0.49309 0.0
C1211 C 0.49159 0.1073 0.50269 0.0
H1212 H 0.57337 0.74636 0.19728 0.0
H1213 H 0.58944 0.75609 0.12106 0.0
H1214 H 0.61212 0.72841 0.2029 0.0
H1215 H 0.62923 0.73836 0.12697 0.0
H1216 H 0.69848 0.75733 0.1845 0.0
H1217 H 0.6648 0.75708 0.1565 0.0
H1218 H 0.63692 0.6895 0.18766 0.0
H1219 H 0.67034 0.69016 0.21612 0.0
C1220 C 0.58523 0.74461 0.18168 0.0
C1221 C 0.57851 0.75279 0.15881 0.0
C1222 C 0.6073 0.73389 0.18478 0.0
C1223 C 0.62342 0.73142 0.16519 0.0
C1224 C 0.61687 0.73964 0.14219 0.0
C1225 C 0.59431 0.74991 0.13891 0.0
C1226 C 0.68603 0.74149 0.18423 0.0
C1227 C 0.6865 0.72411 0.20273 0.0
C1228 C 0.66671 0.74134 0.16816 0.0
C1229 C 0.64793 0.72378 0.17065 0.0
C1230 C 0.65104 0.70351 0.18581 0.0
C1231 C 0.67009 0.7039 0.20212 0.0
H1232 H 0.96659 0.16887 0.63679 0.0
H1233 H 0.0115 0.20132 0.58199 0.0
H1234 H 0.9815 0.12715 0.62532 0.0
H1235 H 0.02506 0.16 0.56901 0.0
H1236 H 0.05156 0.08913 0.54632 0.0
H1237 H 0.04701 0.12522 0.57468 0.0
H1238 H 0.97726 0.09639 0.59515 0.0
H1239 H 0.98306 0.05963 0.56851 0.0
C1240 C 0.97945 0.16687 0.62207 0.0
C1241 C 0.98777 0.18795 0.60998 0.0
C1242 C 0.98805 0.14306 0.61547 0.0
C1243 C 0.00463 0.13993 0.59621 0.0
C1244 C 0.01293 0.16141 0.58439 0.0
C1245 C 0.00485 0.18515 0.59146 0.0
C1246 C 0.03594 0.08999 0.55802 0.0
C1247 C 0.01764 0.0718 0.55535 0.0
C1248 C 0.03301 0.1109 0.57388 0.0
C1249 C 0.01123 0.11447 0.5864 0.0
C1250 C -0.00575 0.09459 0.58586 0.0
C1251 C -0.00242 0.0733 0.57062 0.0
H1252 H 0.58331 0.27405 0.35838 0.0
H1253 H 0.59495 0.1959 0.33874 0.0
H1254 H 0.62377 0.28446 0.34591 0.0
H1255 H 0.63583 0.2063 0.32657 0.0
H1256 H 0.68112 0.24698 0.26638 0.0
H1257 H 0.64992 0.22814 0.29117 0.0
H1258 H 0.66636 0.282 0.35024 0.0
H1259 H 0.697 0.30138 0.32475 0.0
C1260 C 0.5947 0.259 0.35189 0.0
C1261 C 0.58577 0.23426 0.34904 0.0
C1262 C 0.61805 0.26492 0.34497 0.0
C1263 C 0.633 0.24623 0.335 0.0
C1264 C 0.62464 0.22116 0.33387 0.0
C1265 C 0.60124 0.21521 0.3409 0.0
C1266 C 0.67868 0.25403 0.28502 0.0
C1267 C 0.69136 0.2754 0.29382 0.0
C1268 C 0.66082 0.24328 0.29927 0.0
C1269 C 0.65554 0.25365 0.32266 0.0
C1270 C 0.66975 0.27383 0.33216 0.0
C1271 C 0.68731 0.28484 0.3177 0.0
H1272 H 0.45179 0.7996 0.05436 0.0
H1273 H 0.52775 0.79062 0.06324 0.0
H1274 H 0.45958 0.83528 0.02912 0.0
H1275 H 0.53538 0.82638 0.03794 0.0
H1276 H 0.52121 0.91339 0.06015 0.0
H1277 H 0.52238 0.86781 0.06111 0.0
H1278 H 0.48108 0.86103 -0.00538 0.0
H1279 H 0.48079 0.90711 0.99323 0.0
C1280 C 0.47015 0.80445 0.05004 0.0
C1281 C 0.48916 0.79313 0.06181 0.0
C1282 C 0.4746 0.82485 0.03539 0.0
C1283 C 0.49806 0.83403 0.03237 0.0
C1284 C 0.51711 0.81991 0.0405 0.0
C1285 C 0.51269 0.79953 0.0551 0.0
C1286 C 0.51293 0.90212 0.04544 0.0
C1287 C 0.50073 0.9135 0.02679 0.0
C1288 C 0.51381 0.87608 0.04578 0.0
C1289 C 0.50195 0.86091 0.02781 0.0
C1290 C 0.49055 0.87233 0.00851 0.0
C1291 C 0.4903 0.89855 0.00779 0.0
H1292 H 0.92678 0.76123 0.84921 0.0
H1293 H 0.96194 0.75096 0.77942 0.0
H1294 H 0.8881 0.76142 0.82869 0.0
H1295 H 0.92292 0.75076 0.75887 0.0
H1296 H 0.83909 0.70144 0.78059 0.0
H1297 H 0.88103 0.71088 0.78978 0.0
H1298 H 0.87158 0.78789 0.77163 0.0
H1299 H 0.8294 0.77845 0.76188 0.0
C1300 C 0.92624 0.75952 0.82947 0.0
C1301 C 0.94719 0.75571 0.81588 0.0
C1302 C 0.90419 0.75983 0.81776 0.0
C1303 C 0.90275 0.75612 0.79233 0.0
C1304 C 0.92377 0.75395 0.77851 0.0
C1305 C 0.94597 0.75405 0.79024 0.0
C1306 C 0.84608 0.72021 0.77785 0.0
C1307 C 0.831 0.73924 0.77067 0.0
C1308 C 0.87003 0.72555 0.78304 0.0
C1309 C 0.87928 0.75004 0.78137 0.0
C1310 C 0.86473 0.76883 0.77277 0.0
C1311 C 0.84071 0.76339 0.76719 0.0
H1312 H 0.90548 0.98602 0.8256 0.0
H1313 H 0.97059 0.99198 0.7837 0.0
H1314 H 0.9288 0.986 0.86325 0.0
H1315 H -0.0061 0.99283 0.82161 0.0
H1316 H 0.9925 0.05023 0.89944 0.0
H1317 H 0.98197 0.03491 0.85801 0.0
H1318 H 0.97103 0.96019 0.88363 0.0
H1319 H 0.98261 0.97513 0.92483 0.0
C1320 C 0.92477 0.98682 0.82446 0.0
C1321 C 0.93629 0.98949 0.80195 0.0
C1322 C 0.93808 0.98656 0.84589 0.0
C1323 C 0.96302 0.98952 0.8451 0.0
C1324 C 0.97467 0.99042 0.82248 0.0
C1325 C 0.96136 0.98997 0.80093 0.0
C1326 C 0.9888 0.03038 0.89599 0.0
C1327 C 0.98826 0.0139 0.91526 0.0
C1328 C 0.98289 0.02161 0.87237 0.0
C1329 C 0.97578 -0.00356 0.86788 0.0
C1330 C 0.97673 0.9796 0.88675 0.0
C1331 C 0.98335 0.9882 0.91024 0.0
H1332 H 0.80726 0.16522 0.56463 0.0
H1333 H 0.73927 0.12604 0.5551 0.0
H1334 H 0.79508 0.17939 0.60577 0.0
H1335 H 0.72725 0.14065 0.59616 0.0
H1336 H 0.76693 0.17441 0.68745 0.0
H1337 H 0.77104 0.14752 0.65015 0.0
H1338 H 0.73272 0.20117 0.60951 0.0
H1339 H 0.72926 0.22832 0.64641 0.0
C1340 C 0.78994 0.15929 0.57138 0.0
C1341 C 0.7742 0.14465 0.55649 0.0
C1342 C 0.78305 0.1673 0.59492 0.0
C1343 C 0.7604 0.16077 0.60396 0.0
C1344 C 0.74487 0.14564 0.5895 0.0
C1345 C 0.75176 0.1375 0.566 0.0
C1346 C 0.7584 0.17979 0.6708 0.0
C1347 C 0.74782 0.20333 0.66962 0.0
C1348 C 0.76091 0.16456 0.64952 0.0
C1349 C 0.75229 0.17254 0.62719 0.0
C1350 C 0.73935 0.1947 0.62665 0.0
C1351 C 0.73729 0.21012 0.64771 0.0
H1352 H 0.60569 0.02385 0.32021 0.0
H1353 H 0.54213 0.99011 0.28753 0.0
H1354 H 0.58384 0.03304 0.35783 0.0
H1355 H 0.52005 -0.00086 0.32557 0.0
H1356 H 0.52585 0.97049 0.40884 0.0
H1357 H 0.53135 0.97593 0.36521 0.0
H1358 H 0.54735 0.05479 0.37954 0.0
H1359 H 0.54119 0.04929 0.42347 0.0
C1360 C 0.58698 0.0186 0.32106 0.0
C1361 C 0.57573 0.00549 0.30147 0.0
C1362 C 0.57433 0.02435 0.34239 0.0
C1363 C 0.55032 0.0167 0.34454 0.0
C1364 C 0.53857 0.00524 0.32424 0.0
C1365 C 0.55118 -6e-05 0.30266 0.0
C1366 C 0.52968 0.98912 0.40248 0.0
C1367 C 0.53336 0.00945 0.41913 0.0
C1368 C 0.5326 0.99231 0.37758 0.0
C1369 C 0.53979 0.01577 0.36913 0.0
C1370 C 0.54171 0.03657 0.38572 0.0
C1371 C 0.5383 0.03344 0.4107 0.0
H1372 H 0.71035 0.8347 0.07799 0.0
H1373 H 0.76345 0.77951 0.05888 0.0
H1374 H 0.70491 0.81628 0.11761 0.0
H1375 H 0.7576 0.76095 0.09827 0.0
H1376 H 0.76015 0.81317 0.18654 0.0
H1377 H 0.74028 0.82162 0.14824 0.0
H1378 H 0.73164 0.74191 0.13227 0.0
H1379 H 0.75121 0.73365 0.17097 0.0
C1380 C 0.72015 0.81801 0.08175 0.0
C1381 C 0.73796 0.80906 0.06559 0.0
C1382 C 0.71696 0.8075 0.10448 0.0
C1383 C 0.73115 0.78755 0.11115 0.0
C1384 C 0.74641 0.77636 0.09363 0.0
C1385 C 0.74989 0.78711 0.07107 0.0
C1386 C 0.75285 0.79759 0.1754 0.0
C1387 C 0.75702 0.77286 0.18144 0.0
C1388 C 0.74144 0.80234 0.15352 0.0
C1389 C 0.73463 0.78236 0.1372 0.0
C1390 C 0.73679 0.75759 0.14449 0.0
C1391 C 0.74792 0.75288 0.16655 0.0
H1392 H 0.89665 0.97133 0.66439 0.0
H1393 H 0.90569 0.05128 0.65674 0.0
H1394 H 0.91305 0.96371 0.62401 0.0
H1395 H 0.92165 0.04368 0.61565 0.0
H1396 H 0.99158 0.01242 0.57728 0.0
H1397 H 0.96004 0.02848 0.60403 0.0
H1398 H 0.9144 0.96535 0.58118 0.0
H1399 H 0.94674 0.94875 0.55559 0.0
C1400 C 0.90154 0.98734 0.65378 0.0
C1401 C 0.90058 0.01184 0.66403 0.0
C1402 C 0.91073 0.983 0.63038 0.0
C1403 C 0.91911 0.0031 0.61665 0.0
C1404 C 0.91583 0.02778 0.62596 0.0
C1405 C 0.90662 0.03212 0.64947 0.0
C1406 C 0.97454 0.00244 0.57763 0.0
C1407 C 0.97153 0.9792 0.56509 0.0
C1408 C 0.95634 0.01169 0.59275 0.0
C1409 C 0.93483 -0.00217 0.59525 0.0
C1410 C 0.931 0.97604 0.58025 0.0
C1411 C 0.94941 0.96655 0.56561 0.0
H1412 H 0.81219 0.19879 0.43922 0.0
H1413 H 0.73599 0.18759 0.44766 0.0
H1414 H 0.80533 0.2218 0.40245 0.0
H1415 H 0.72938 0.21047 0.41086 0.0
H1416 H 0.74605 0.18531 0.32712 0.0
H1417 H 0.74725 0.18376 0.37138 0.0
H1418 H 0.78021 0.25769 0.37635 0.0
H1419 H 0.77815 0.25968 0.33146 0.0
C1420 C 0.79396 0.20213 0.43391 0.0
C1421 C 0.77466 0.1904 0.44575 0.0
C1422 C 0.79007 0.21548 0.41289 0.0
C1423 C 0.76688 0.21726 0.40359 0.0
C1424 C 0.74745 0.20899 0.41756 0.0
C1425 C 0.7513 0.19575 0.43856 0.0
C1426 C 0.7533 0.20137 0.33763 0.0
C1427 C 0.7622 0.22249 0.32596 0.0
C1428 C 0.75374 0.20061 0.36295 0.0
C1429 C 0.76357 0.22073 0.37722 0.0
C1430 C 0.77232 0.24209 0.36568 0.0
C1431 C 0.77121 0.24317 0.34015 0.0
H1432 H 0.63153 0.0052 0.16128 0.0
H1433 H 0.55701 0.01668 0.17815 0.0
H1434 H 0.62562 0.02253 0.12099 0.0
H1435 H 0.55131 0.03402 0.13868 0.0
H1436 H 0.53527 0.06116 0.07459 0.0
H1437 H 0.56251 0.0682 0.10901 0.0
H1438 H 0.59921 0.00038 0.08739 0.0
H1439 H 0.57167 0.99328 0.05369 0.0
C1440 C 0.61404 0.01173 0.15653 0.0
C1441 C 0.59459 0.00911 0.17257 0.0
C1442 C 0.61078 0.02191 0.13369 0.0
C1443 C 0.58815 0.02999 0.12689 0.0
C1444 C 0.56913 0.02858 0.14359 0.0
C1445 C 0.57227 0.01811 0.16607 0.0
C1446 C 0.55013 0.0487 0.0764 0.0
C1447 C 0.55155 0.02662 0.06168 0.0
C1448 C 0.56576 0.05276 0.09599 0.0
C1449 C 0.5824 0.03438 0.10121 0.0
C1450 C 0.58653 0.01483 0.08382 0.0
C1451 C 0.57088 0.01079 0.06427 0.0
H1452 H 0.73238 0.80481 0.95492 0.0
H1453 H 0.76297 0.87508 0.93281 0.0
H1454 H 0.72442 0.79234 0.91227 0.0
H1455 H 0.75497 0.86287 0.88987 0.0
H1456 H 0.7718 0.80974 0.82056 0.0
H1457 H 0.77103 0.833 0.85997 0.0
H1458 H 0.70238 0.79887 0.87581 0.0
H1459 H 0.70386 0.7749 0.83685 0.0
C1460 C 0.73697 0.81774 0.94083 0.0
C1461 C 0.74818 0.84084 0.94696 0.0
C1462 C 0.73229 0.81075 0.91638 0.0
C1463 C 0.73901 0.82661 0.89748 0.0
C1464 C 0.74967 0.85013 0.90385 0.0
C1465 C 0.75413 0.85719 0.92839 0.0
C1466 C 0.75612 0.80809 0.83207 0.0
C1467 C 0.73784 0.79066 0.82572 0.0
C1468 C 0.75568 0.82132 0.85475 0.0
C1469 C 0.73687 0.8174 0.8714 0.0
C1470 C 0.71744 0.80186 0.86377 0.0
C1471 C 0.71807 0.78841 0.8413 0.0
H1472 H 0.82984 0.88477 0.02981 0.0
H1473 H 0.79735 0.93828 0.9839 0.0
H1474 H 0.8683 0.90684 0.0261 0.0
H1475 H 0.83576 0.95978 0.97954 0.0
H1476 H 0.89483 0.01245 0.00564 0.0
H1477 H 0.85902 0.98629 0.00734 0.0
H1478 H 0.90166 0.91979 -0.0001 0.0
H1479 H 0.93796 0.94629 -0.00123 0.0
C1480 C 0.83104 0.90089 0.01848 0.0
C1481 C 0.81054 0.91005 0.00744 0.0
C1482 C 0.85309 0.91351 0.01632 0.0
C1483 C 0.855 0.9354 0.00296 0.0
C1484 C 0.83477 0.94342 0.99057 0.0
C1485 C 0.81277 0.93099 0.99291 0.0
C1486 C 0.89667 0.99225 0.00445 0.0
C1487 C 0.91925 0.98145 0.00187 0.0
C1488 C 0.87607 0.97722 0.00521 0.0
C1489 C 0.87739 0.95093 0.00318 0.0
C1490 C 0.90003 0.94 0.00146 0.0
C1491 C 0.92081 0.95514 0.00086 0.0
H1492 H 0.33731 0.60977 0.97937 0.0
H1493 H 0.29742 0.54598 0.00552 0.0
H1494 H 0.37374 0.58595 0.98007 0.0
H1495 H 0.3345 0.52202 0.00627 0.0
H1496 H 0.42427 0.51796 0.02551 0.0
H1497 H 0.38224 0.53027 0.02871 0.0
H1498 H 0.38136 0.54238 0.9514 0.0
H1499 H 0.42308 0.53052 0.94825 0.0
C1500 C 0.33632 0.59079 0.9856 0.0
C1501 C 0.3144 0.57972 0.99218 0.0
C1502 C 0.35719 0.57712 0.98588 0.0
C1503 C 0.35674 0.55211 0.99285 0.0
C1504 C 0.33517 0.54127 0.00071 0.0
C1505 C 0.31406 0.55497 0.00024 0.0
C1506 C 0.41471 0.52219 0.00908 0.0
C1507 C 0.42687 0.52366 0.98667 0.0
C1508 C 0.39075 0.52928 0.01093 0.0
C1509 C 0.37888 0.53765 0.99035 0.0
C1510 C 0.39031 0.53625 0.96754 0.0
C1511 C 0.41411 0.52942 0.96573 0.0
H1512 H 0.15654 0.58316 0.79871 0.0
H1513 H 0.1264 0.56778 0.72693 0.0
H1514 H 0.16809 0.62519 0.78713 0.0
H1515 H 0.13793 0.61015 0.71544 0.0
H1516 H 0.20777 0.66316 0.70365 0.0
H1517 H 0.17915 0.62888 0.70922 0.0
H1518 H 0.15269 0.66713 0.7746 0.0
H1519 H 0.18137 0.70157 0.76876 0.0
C1520 C 0.15199 0.58888 0.78061 0.0
C1521 C 0.14071 0.57205 0.7637 0.0
C1522 C 0.15838 0.61309 0.77406 0.0
C1523 C 0.1536 0.62105 0.75048 0.0
C1524 C 0.14174 0.6045 0.73375 0.0
C1525 C 0.1353 0.58023 0.74031 0.0
C1526 C 0.19497 0.6648 0.71848 0.0
C1527 C 0.19688 0.68471 0.73601 0.0
C1528 C 0.17859 0.64517 0.7217 0.0
C1529 C 0.16417 0.64509 0.7427 0.0
C1530 C 0.16392 0.66662 0.75846 0.0
C1531 C 0.18011 0.68645 0.755 0.0
H1532 H 0.16197 0.3881 0.52748 0.0
H1533 H 0.18847 0.46466 0.52655 0.0
H1534 H 0.12156 0.40224 0.52056 0.0
H1535 H 0.14828 0.4788 0.51848 0.0
H1536 H 0.07284 0.5005 0.50776 0.0
H1537 H 0.10756 0.48514 0.52919 0.0
H1538 H 0.10352 0.41623 0.48465 0.0
H1539 H 0.06884 0.43164 0.46375 0.0
C1540 C 0.1591 0.40799 0.52588 0.0
C1541 C 0.17838 0.42525 0.52693 0.0
C1542 C 0.13597 0.4161 0.52189 0.0
C1543 C 0.13171 0.44158 0.51837 0.0
C1544 C 0.15082 0.45904 0.52119 0.0
C1545 C 0.17393 0.45095 0.52561 0.0
C1546 C 0.07897 0.48172 0.50331 0.0
C1547 C 0.06811 0.46697 0.48454 0.0
C1548 C 0.099 0.47304 0.5153 0.0
C1549 C 0.10836 0.44942 0.50873 0.0
C1550 C 0.0966 0.43429 0.49061 0.0
C1551 C 0.0768 0.44309 0.47851 0.0
H1552 H 0.81813 0.94534 0.78698 0.0
H1553 H 0.88181 0.92102 0.74922 0.0
H1554 H 0.8003 0.90329 0.78062 0.0
H1555 H 0.86479 0.8787 0.74414 0.0
H1556 H 0.80998 0.828 0.70146 0.0
H1557 H 0.83511 0.86209 0.71778 0.0
H1558 H 0.79874 0.8586 0.78736 0.0
H1559 H 0.77313 0.82412 0.77042 0.0
C1560 C 0.82842 0.93084 0.77766 0.0
C1561 C 0.85102 0.93651 0.76794 0.0
C1562 C 0.81838 0.90665 0.7743 0.0
C1563 C 0.83099 0.88759 0.76159 0.0
C1564 C 0.8543 0.89303 0.75342 0.0
C1565 C 0.86404 0.91728 0.75624 0.0
C1566 C 0.80783 0.83405 0.72046 0.0
C1567 C 0.78957 0.82374 0.73463 0.0
C1568 C 0.82234 0.85356 0.72994 0.0
C1569 C 0.8188 0.86344 0.75385 0.0
C1570 C 0.80168 0.85171 0.76874 0.0
C1571 C 0.78722 0.83182 0.7592 0.0
H1572 H 0.68355 0.05226 0.48721 0.0
H1573 H 0.67743 0.13267 0.49808 0.0
H1574 H 0.64503 0.04622 0.50656 0.0
H1575 H 0.63804 0.12638 0.51727 0.0
H1576 H 0.55916 0.07655 0.50146 0.0
H1577 H 0.59597 0.10157 0.49815 0.0
H1578 H 0.62864 0.05776 0.55281 0.0
H1579 H 0.59214 0.0324 0.55567 0.0
C1580 C 0.67394 0.06869 0.49363 0.0
C1581 C 0.68358 0.09292 0.49118 0.0
C1582 C 0.652 0.06521 0.505 0.0
C1583 C 0.63897 0.08585 0.51397 0.0
C1584 C 0.64805 0.11022 0.51088 0.0
C1585 C 0.67041 0.11374 0.49979 0.0
C1586 C 0.57364 0.07339 0.51396 0.0
C1587 C 0.57323 0.05217 0.52828 0.0
C1588 C 0.59475 0.0877 0.512 0.0
C1589 C 0.61522 0.08092 0.52466 0.0
C1590 C 0.6131 0.063 0.54261 0.0
C1591 C 0.59219 0.04856 0.54433 0.0
H1592 H 0.19295 0.45812 0.73773 0.0
H1593 H 0.19057 0.45688 0.81654 0.0
H1594 H 0.21345 0.41822 0.73617 0.0
H1595 H 0.21086 0.41694 0.81473 0.0
H1596 H 0.18195 0.33525 0.78764 0.0
H1597 H 0.18169 0.38071 0.79278 0.0
H1598 H 0.24805 0.38622 0.75301 0.0
H1599 H 0.24872 0.34027 0.74806 0.0
C1600 C 0.19772 0.44996 0.75476 0.0
C1601 C 0.18916 0.46005 0.77719 0.0
C1602 C 0.20958 0.42715 0.75382 0.0
C1603 C 0.21294 0.41431 0.77529 0.0
C1604 C 0.20803 0.42644 0.79793 0.0
C1605 C 0.19639 0.44933 0.7989 0.0
C1606 C 0.19662 0.346 0.7801 0.0
C1607 C 0.21532 0.33409 0.76741 0.0
C1608 C 0.19661 0.37203 0.78332 0.0
C1609 C 0.21514 0.38679 0.77374 0.0
C1610 C 0.23378 0.37511 0.76083 0.0
C1611 C 0.234 0.34889 0.75789 0.0
H1612 H 0.34247 0.56886 0.2113 0.0
H1613 H 0.28918 0.55033 0.26507 0.0
H1614 H 0.32085 0.60678 0.2024 0.0
H1615 H 0.26746 0.58766 0.25593 0.0
H1616 H 0.23396 0.65542 0.25005 0.0
H1617 H 0.24673 0.61681 0.22863 0.0
H1618 H 0.32012 0.64293 0.2343 0.0
H1619 H 0.30713 0.68164 0.25524 0.0
C1620 C 0.3256 0.5723 0.22043 0.0
C1621 C 0.31773 0.55707 0.23932 0.0
C1622 C 0.31327 0.59399 0.21531 0.0
C1623 C 0.29268 0.60037 0.22867 0.0
C1624 C 0.28322 0.58327 0.2452 0.0
C1625 C 0.29576 0.56195 0.25066 0.0
C1626 C 0.25269 0.65329 0.24559 0.0
C1627 C 0.26971 0.67095 0.25453 0.0
C1628 C 0.25998 0.63129 0.23333 0.0
C1629 C 0.28442 0.62659 0.23042 0.0
C1630 C 0.30115 0.64599 0.23629 0.0
C1631 C 0.2938 0.66809 0.24844 0.0
H1632 H 0.48097 0.69366 0.55121 0.0
H1633 H 0.50831 0.68212 0.62336 0.0
H1634 H 0.49436 0.65232 0.53751 0.0
H1635 H 0.52128 0.64005 0.60966 0.0
H1636 H 0.51972 0.58332 0.51111 0.0
H1637 H 0.53103 0.62351 0.53139 0.0
H1638 H 0.49246 0.60236 0.59588 0.0
H1639 H 0.48103 0.56242 0.57543 0.0
C1640 C 0.49012 0.68237 0.56406 0.0
C1641 C 0.4933 0.69095 0.58841 0.0
C1642 C 0.49812 0.65881 0.55614 0.0
C1643 C 0.50908 0.64305 0.57248 0.0
C1644 C 0.51308 0.65194 0.59666 0.0
C1645 C 0.50556 0.67589 0.60448 0.0
C1646 C 0.51505 0.58662 0.53017 0.0
C1647 C 0.49943 0.57002 0.54174 0.0
C1648 C 0.52132 0.60971 0.5417 0.0
C1649 C 0.51206 0.61626 0.56494 0.0
C1650 C 0.4998 0.59785 0.57795 0.0
C1651 C 0.49332 0.5749 0.5663 0.0
H1652 H 0.57381 0.25205 0.84386 0.0
H1653 H 0.54212 0.249 0.77197 0.0
H1654 H 0.61325 0.25752 0.82551 0.0
H1655 H 0.58165 0.25432 0.7537 0.0
H1656 H 0.65997 0.2196 0.74081 0.0
H1657 H 0.61792 0.22557 0.75151 0.0
H1658 H 0.63814 0.28791 0.80052 0.0
H1659 H 0.68008 0.28201 0.78949 0.0
C1660 C 0.57521 0.25277 0.82418 0.0
C1661 C 0.55481 0.24987 0.80941 0.0
C1662 C 0.59779 0.25612 0.81367 0.0
C1663 C 0.60052 0.25642 0.78814 0.0
C1664 C 0.58009 0.25408 0.77339 0.0
C1665 C 0.55747 0.25102 0.78391 0.0
C1666 C 0.65522 0.23538 0.75283 0.0
C1667 C 0.67309 0.25063 0.76403 0.0
C1668 C 0.63121 0.2387 0.75914 0.0
C1669 C 0.62482 0.25696 0.77716 0.0
C1670 C 0.64258 0.27352 0.78679 0.0
C1671 C 0.66651 0.2704 0.78022 0.0
H1672 H 0.02583 0.31474 0.07777 0.0
H1673 H 0.95574 0.31072 0.0447 0.0
H1674 H 0.03413 0.35387 0.05793 0.0
H1675 H 0.96417 0.35017 0.02506 0.0
H1676 H 0.00408 0.41615 0.98259 0.0
H1677 H 0.99132 0.37457 -0.00404 0.0
H1678 H 0.01496 0.39546 0.06914 0.0
H1679 H 0.02799 0.4366 0.05558 0.0
C1680 C 0.01241 0.32179 0.0658 0.0
C1681 C 0.98984 0.30998 0.06351 0.0
C1682 C 0.01708 0.34438 0.05466 0.0
C1683 C -0.00063 0.3555 0.04088 0.0
C1684 C 0.97793 0.3422 0.03602 0.0
C1685 C 0.9732 0.31955 0.04722 0.0
C1686 C 0.00562 0.41202 0.0017 0.0
C1687 C 0.0168 0.42933 0.01821 0.0
C1688 C -0.00143 0.38825 0.00927 0.0
C1689 C 0.0029 0.38163 0.03337 0.0
C1690 C 0.0121 0.39989 0.05028 0.0
C1691 C 0.01916 0.42352 0.0427 0.0
H1692 H 0.90412 0.7166 0.33201 0.0
H1693 H 0.93681 0.79055 0.33444 0.0
H1694 H 0.86484 0.73479 0.33093 0.0
H1695 H 0.89727 0.80932 0.33483 0.0
H1696 H 0.83165 0.81519 0.28149 0.0
H1697 H 0.8674 0.81366 0.30579 0.0
H1698 H 0.83362 0.75771 0.34999 0.0
H1699 H 0.79799 0.75862 0.32463 0.0
C1700 C 0.90271 0.73685 0.33226 0.0
C1701 C 0.9232 0.75225 0.33237 0.0
C1702 C 0.88022 0.7474 0.33237 0.0
C1703 C 0.87774 0.77366 0.33322 0.0
C1704 C 0.89848 0.78907 0.33401 0.0
C1705 C 0.92106 0.7784 0.33336 0.0
C1706 C 0.83145 0.80352 0.2972 0.0
C1707 C 0.81285 0.78595 0.3004 0.0
C1708 C 0.85201 0.80264 0.31128 0.0
C1709 C 0.85392 0.78418 0.32866 0.0
C1710 C 0.83304 0.77113 0.33571 0.0
C1711 C 0.81249 0.77184 0.32141 0.0
H1712 H 0.44852 0.31497 0.91969 0.0
H1713 H 0.50925 0.31567 0.87079 0.0
H1714 H 0.45478 0.35931 0.9293 0.0
H1715 H 0.51531 0.36059 0.88027 0.0
H1716 H 0.53742 0.41914 0.94508 0.0
H1717 H 0.52935 0.38312 0.91739 0.0
H1718 H 0.45482 0.40234 0.91568 0.0
H1719 H 0.46313 0.4384 0.94383 0.0
C1720 C 0.46309 0.32463 0.91074 0.0
C1721 C 0.47865 0.3116 0.89478 0.0
C1722 C 0.46645 0.35025 0.91597 0.0
C1723 C 0.48546 0.36359 0.90542 0.0
C1724 C 0.50054 0.35081 0.88875 0.0
C1725 C 0.49715 0.32506 0.88345 0.0
C1726 C 0.51955 0.41629 0.93781 0.0
C1727 C 0.50084 0.43125 0.94658 0.0
C1728 C 0.51488 0.39566 0.92192 0.0
C1729 C 0.49133 0.38951 0.91483 0.0
C1730 C 0.47309 0.40637 0.92125 0.0
C1731 C 0.47783 0.42716 0.93709 0.0
H1732 H 0.9348 0.25662 0.20464 0.0
H1733 H 0.90606 0.28547 0.13855 0.0
H1734 H 0.89427 0.25154 0.22062 0.0
H1735 H 0.86572 0.28011 0.15447 0.0
H1736 H 0.80867 0.21678 0.17784 0.0
H1737 H 0.84457 0.23757 0.16231 0.0
H1738 H 0.85544 0.27567 0.2327 0.0
H1739 H 0.81925 0.25495 0.24807 0.0
C1740 C 0.91989 0.26206 0.19364 0.0
C1741 C 0.92354 0.27077 0.1701 0.0
C1742 C 0.89676 0.25945 0.20289 0.0
C1743 C 0.877 0.26542 0.18867 0.0
C1744 C 0.88072 0.27525 0.16565 0.0
C1745 C 0.90379 0.27804 0.1565 0.0
C1746 C 0.81832 0.23031 0.18961 0.0
C1747 C 0.81136 0.23458 0.21393 0.0
C1748 C 0.83875 0.24223 0.18079 0.0
C1749 C 0.85276 0.25801 0.19644 0.0
C1750 C 0.8449 0.26349 0.22039 0.0
C1751 C 0.82418 0.25189 0.22906 0.0
H1752 H 0.02844 0.70155 0.41963 0.0
H1753 H 0.95614 0.68837 0.44446 0.0
H1754 H 0.04191 0.66752 0.44421 0.0
H1755 H 0.96923 0.65382 0.46774 0.0
H1756 H 0.99278 0.58618 0.50207 0.0
H1757 H 0.99012 0.63136 0.49687 0.0
H1758 H 0.03637 0.6246 0.4337 0.0
H1759 H 0.03961 0.58023 0.43937 0.0
C1760 C 0.01551 0.69174 0.43067 0.0
C1761 C 0.99112 0.69709 0.42939 0.0
C1762 C 0.02319 0.67217 0.4447 0.0
C1763 C 0.00654 0.65727 0.45725 0.0
C1764 C 0.98263 0.66471 0.4583 0.0
C1765 C 0.97504 0.68451 0.44467 0.0
C1766 C 0.00279 0.59454 0.48744 0.0
C1767 C 0.01592 0.57952 0.47076 0.0
C1768 C 0.00123 0.62042 0.48442 0.0
C1769 C 0.01277 0.63169 0.46467 0.0
C1770 C 0.0274 0.61684 0.44927 0.0
C1771 C 0.02896 0.59115 0.45229 0.0
H1772 H 0.54588 0.72504 0.70189 0.0
H1773 H 0.57148 0.77662 0.64851 0.0
H1774 H 0.58441 0.72878 0.72294 0.0
H1775 H 0.60976 0.78006 0.66928 0.0
H1776 H 0.66437 0.80526 0.72211 0.0
H1777 H 0.62303 0.79924 0.70938 0.0
H1778 H 0.62883 0.71924 0.71628 0.0
H1779 H 0.67047 0.72538 0.72952 0.0
C1780 C 0.55976 0.737 0.69453 0.0
C1781 C 0.55554 0.75081 0.67369 0.0
C1782 C 0.58178 0.7391 0.7066 0.0
C1783 C 0.59989 0.7551 0.69806 0.0
C1784 C 0.5959 0.76811 0.6767 0.0
C1785 C 0.57401 0.76603 0.66469 0.0
C1786 C 0.65664 0.78645 0.7216 0.0
C1787 C 0.67069 0.76576 0.7264 0.0
C1788 C 0.63303 0.78298 0.71411 0.0
C1789 C 0.62298 0.75871 0.71106 0.0
C1790 C 0.63622 0.73814 0.71827 0.0
C1791 C 0.65998 0.74166 0.72596 0.0
H1792 H 0.54555 0.51832 0.70705 0.0
H1793 H 0.61091 0.48595 0.67945 0.0
H1794 H 0.52757 0.51222 0.66648 0.0
H1795 H 0.59321 0.48037 0.63914 0.0
H1796 H 0.54961 0.44397 0.58023 0.0
H1797 H 0.56185 0.45173 0.62247 0.0
H1798 H 0.5304 0.52503 0.62295 0.0
H1799 H 0.51755 0.51697 0.58062 0.0
C1800 C 0.55616 0.51024 0.69227 0.0
C1801 C 0.57947 0.50214 0.6965 0.0
C1802 C 0.54587 0.50677 0.66909 0.0
C1803 C 0.55878 0.4952 0.64985 0.0
C1804 C 0.58255 0.48857 0.65383 0.0
C1805 C 0.59275 0.49192 0.67689 0.0
C1806 C 0.54489 0.46154 0.58949 0.0
C1807 C 0.53293 0.47998 0.57708 0.0
C1808 C 0.55206 0.46608 0.61359 0.0
C1809 C 0.54769 0.48928 0.62573 0.0
C1810 C 0.53411 0.50703 0.61398 0.0
C1811 C 0.52671 0.50238 0.5898 0.0
H1812 H 0.81955 0.34341 0.9341 0.0
H1813 H 0.74261 0.34626 0.93719 0.0
H1814 H 0.81755 0.33001 0.8911 0.0
H1815 H 0.74057 0.33217 0.89405 0.0
H1816 H 0.74473 0.30932 0.81345 0.0
H1817 H 0.75139 0.33828 0.84908 0.0
H1818 H 0.80303 0.2876 0.87672 0.0
H1819 H 0.79596 0.25884 0.84171 0.0
C1820 C 0.80219 0.34136 0.92548 0.0
C1821 C 0.78118 0.3451 0.93908 0.0
C1822 C 0.80108 0.33385 0.90085 0.0
C1823 C 0.77892 0.32961 0.88937 0.0
C1824 C 0.75791 0.33539 0.90242 0.0
C1825 C 0.75905 0.34322 0.92713 0.0
C1826 C 0.75801 0.30493 0.82686 0.0
C1827 C 0.76991 0.28201 0.82505 0.0
C1828 C 0.76167 0.32133 0.84725 0.0
C1829 C 0.77767 0.31516 0.86568 0.0
C1830 C 0.79079 0.29304 0.86272 0.0
C1831 C 0.78674 0.27651 0.84275 0.0
H1832 H 0.96334 0.49301 0.20281 0.0
H1833 H 0.89065 0.5011 0.17874 0.0
H1834 H 0.97702 0.49318 0.16023 0.0
H1835 H 0.90411 0.50053 0.13657 0.0
H1836 H 0.93672 0.53937 0.07352 0.0
H1837 H 0.92652 0.53331 0.11582 0.0
H1838 H 0.97544 0.47188 0.11766 0.0
H1839 H 0.98617 0.47832 0.07478 0.0
C1840 C 0.95028 0.49439 0.18842 0.0
C1841 C 0.92602 0.49774 0.19406 0.0
C1842 C 0.9581 0.49436 0.1641 0.0
C1843 C 0.94169 0.4975 0.14518 0.0
C1844 C 0.91726 0.49885 0.15084 0.0
C1845 C 0.90953 0.49915 0.17499 0.0
C1846 C 0.94538 0.52456 0.08285 0.0
C1847 C 0.96201 0.5091 0.07073 0.0
C1848 C 0.93943 0.521 0.10709 0.0
C1849 C 0.94974 0.50172 0.11987 0.0
C1850 C 0.96715 0.48681 0.10817 0.0
C1851 C 0.97328 0.4905 0.08372 0.0
H1852 H 0.81111 0.6903 0.42254 0.0
H1853 H 0.73754 0.68748 0.4464 0.0
H1854 H 0.79967 0.7146 0.38776 0.0
H1855 H 0.72616 0.71136 0.41177 0.0
H1856 H 0.70885 0.76107 0.35412 0.0
H1857 H 0.72857 0.75041 0.3916 0.0
H1858 H 0.77709 0.70336 0.34981 0.0
H1859 H 0.75776 0.7151 0.3119 0.0
C1860 C 0.7926 0.69542 0.42075 0.0
C1861 C 0.77513 0.68672 0.43707 0.0
C1862 C 0.78606 0.70911 0.40067 0.0
C1863 C 0.76199 0.71466 0.3968 0.0
C1864 C 0.7449 0.70759 0.41423 0.0
C1865 C 0.75138 0.69376 0.43408 0.0
C1866 C 0.72394 0.74868 0.35291 0.0
C1867 C 0.73143 0.73832 0.33026 0.0
C1868 C 0.73524 0.7426 0.37438 0.0
C1869 C 0.75399 0.72555 0.37377 0.0
C1870 C 0.76267 0.71658 0.35091 0.0
C1871 C 0.75155 0.72309 0.32923 0.0
H1872 H 0.61622 0.46387 0.84328 0.0
H1873 H 0.58083 0.53249 0.82732 0.0
H1874 H 0.6044 0.46913 0.88631 0.0
H1875 H 0.56974 0.53808 0.87042 0.0
H1876 H 0.57267 0.55643 0.94713 0.0
H1877 H 0.5985 0.54167 0.91382 0.0
H1878 H 0.55488 0.47429 0.9045 0.0
H1879 H 0.52902 0.48906 0.93797 0.0
C1880 C 0.60621 0.48024 0.84912 0.0
C1881 C 0.59938 0.49791 0.83225 0.0
C1882 C 0.59955 0.48315 0.87358 0.0
C1883 C 0.58664 0.50414 0.8814 0.0
C1884 C 0.58008 0.52194 0.8646 0.0
C1885 C 0.5862 0.51871 0.84007 0.0
C1886 C 0.56933 0.53794 0.9387 0.0
C1887 C 0.5488 0.52398 0.94454 0.0
C1888 C 0.58409 0.52951 0.91982 0.0
C1889 C 0.57821 0.50722 0.90658 0.0
C1890 C 0.55965 0.49154 0.91467 0.0
C1891 C 0.54491 0.49994 0.93376 0.0
H1892 H 0.71315 0.31903 0.04831 0.0
H1893 H 0.78034 0.28201 0.05653 0.0
H1894 H 0.69789 0.29916 0.08457 0.0
H1895 H 0.76569 0.26338 0.09321 0.0
H1896 H 0.74283 0.24157 0.16583 0.0
H1897 H 0.74258 0.24116 0.12123 0.0
H1898 H 0.70834 0.31317 0.12431 0.0
H1899 H 0.7078 0.31308 0.16826 0.0
C1900 C 0.72447 0.30617 0.05744 0.0
C1901 C 0.74835 0.30307 0.05018 0.0
C1902 C 0.71578 0.29489 0.07837 0.0
C1903 C 0.73095 0.2807 0.0926 0.0
C1904 C 0.75351 0.27447 0.08308 0.0
C1905 C 0.76205 0.2854 0.06197 0.0
C1906 C 0.73482 0.25704 0.1569 0.0
C1907 C 0.72583 0.27763 0.17069 0.0
C1908 C 0.73469 0.25682 0.13131 0.0
C1909 C 0.72571 0.27726 0.11898 0.0
C1910 C 0.71516 0.29688 0.13289 0.0
C1911 C 0.71516 0.29702 0.15832 0.0
H1912 H 0.93139 0.48162 0.3182 0.0
H1913 H 0.86791 0.51799 0.34563 0.0
H1914 H 0.93922 0.46683 0.35839 0.0
H1915 H 0.87532 0.50235 0.38609 0.0
H1916 H 0.93292 0.51357 0.45049 0.0
H1917 H 0.90504 0.51407 0.41659 0.0
H1918 H 0.92831 0.44064 0.39129 0.0
H1919 H 0.95726 0.44105 0.42442 0.0
C1920 C 0.91888 0.48613 0.33277 0.0
C1921 C 0.89918 0.50115 0.3288 0.0
C1922 C 0.92309 0.47723 0.35581 0.0
C1923 C 0.9077 0.48313 0.3755 0.0
C1924 C 0.88747 0.49745 0.37131 0.0
C1925 C 0.88326 0.50641 0.34815 0.0
C1926 C 0.9312 0.49705 0.43834 0.0
C1927 C 0.94763 0.47767 0.43933 0.0
C1928 C 0.91518 0.49727 0.41888 0.0
C1929 C 0.91539 0.47789 0.40059 0.0
C1930 C 0.92852 0.45628 0.40458 0.0
C1931 C 0.94494 0.45638 0.42361 0.0
H1932 H 0.81484 0.67508 0.55571 0.0
H1933 H 0.75088 0.6286 0.55875 0.0
H1934 H 0.80824 0.69001 0.59769 0.0
H1935 H 0.74458 0.64312 0.60107 0.0
H1936 H 0.72429 0.70778 0.65749 0.0
H1937 H 0.7324 0.68183 0.62089 0.0
H1938 H 0.80701 0.68054 0.64061 0.0
H1939 H 0.79859 0.70685 0.67739 0.0
C1940 C 0.79949 0.6678 0.5654 0.0
C1941 C 0.78318 0.65092 0.55364 0.0
C1942 C 0.79584 0.67618 0.58965 0.0
C1943 C 0.77586 0.66781 0.60287 0.0
C1944 C 0.75999 0.65025 0.59136 0.0
C1945 C 0.76357 0.64196 0.56704 0.0
C1946 C 0.74227 0.70124 0.65434 0.0
C1947 C 0.76081 0.70917 0.67017 0.0
C1948 C 0.74696 0.68632 0.63337 0.0
C1949 C 0.77044 0.67932 0.62754 0.0
C1950 C 0.78878 0.68591 0.64435 0.0
C1951 C 0.78398 0.70069 0.66555 0.0
H1952 H 0.68315 0.61362 0.45943 0.0
H1953 H 0.68003 0.59699 0.53587 0.0
H1954 H 0.64169 0.59941 0.45454 0.0
H1955 H 0.63859 0.58273 0.53086 0.0
H1956 H 0.56195 0.5611 0.51683 0.0
H1957 H 0.59537 0.59165 0.51913 0.0
H1958 H 0.62777 0.5542 0.45632 0.0
H1959 H 0.59478 0.52367 0.45439 0.0
C1960 C 0.67353 0.60736 0.4753 0.0
C1961 C 0.68513 0.60581 0.49791 0.0
C1962 C 0.64975 0.59929 0.47248 0.0
C1963 C 0.637 0.58963 0.49222 0.0
C1964 C 0.64791 0.59017 0.51532 0.0
C1965 C 0.67175 0.59816 0.51813 0.0
C1966 C 0.57583 0.56004 0.50304 0.0
C1967 C 0.57591 0.54006 0.48547 0.0
C1968 C 0.59502 0.57736 0.50448 0.0
C1969 C 0.61427 0.57522 0.48801 0.0
C1970 C 0.61316 0.5565 0.46916 0.0
C1971 C 0.59431 0.53894 0.46808 0.0
H1972 H 0.18422 0.90439 0.49357 0.0
H1973 H 0.21763 0.97617 0.51336 0.0
H1974 H 0.14604 0.92502 0.48882 0.0
H1975 H 0.17939 -0.0034 0.50883 0.0
H1976 H 0.09919 0.00061 0.54229 0.0
H1977 H 0.14125 0.99092 0.53573 0.0
H1978 H 0.1244 0.95918 0.4639 0.0
H1979 H 0.08235 0.96978 0.47024 0.0
C1980 C 0.18349 0.92456 0.49665 0.0
C1981 C 0.2039 0.93856 0.50418 0.0
C1982 C 0.1617 0.9364 0.49368 0.0
C1983 C 0.15982 0.96242 0.49842 0.0
C1984 C 0.18037 0.97653 0.5051 0.0
C1985 C 0.20221 0.96476 0.50778 0.0
C1986 C 0.10474 0.99272 0.52468 0.0
C1987 C 0.08773 0.98611 0.5067 0.0
C1988 C 0.12875 0.98705 0.52093 0.0
C1989 C 0.13597 0.97399 0.49944 0.0
C1990 C 0.11923 0.96913 0.48068 0.0
C1991 C 0.09529 0.97543 0.48419 0.0
H1992 H 0.33514 0.93703 0.80877 0.0
H1993 H 0.37335 0.93925 0.74022 0.0
H1994 H 0.32605 0.89282 0.80097 0.0
H1995 H 0.36444 0.89451 0.73255 0.0
H1996 H 0.29807 0.83961 0.71445 0.0
H1997 H 0.32603 0.87445 0.7221 0.0
H1998 H 0.33845 0.84911 0.79474 0.0
H1999 H 0.31009 0.81398 0.78684 0.0
C2000 C 0.34189 0.92801 0.79213 0.0
C2001 C 0.35441 0.94189 0.77479 0.0
C2002 C 0.337 0.90246 0.78785 0.0
C2003 C 0.34444 0.89009 0.76608 0.0
C2004 C 0.35828 0.90357 0.74941 0.0
C2005 C 0.36329 0.92921 0.75375 0.0
C2006 C 0.30751 0.84095 0.7317 0.0
C2007 C 0.30175 0.82447 0.7502 0.0
C2008 C 0.32366 0.86086 0.73608 0.0
C2009 C 0.33409 0.86488 0.75922 0.0
C2010 C 0.33035 0.84669 0.77685 0.0
C2011 C 0.31431 0.8265 0.77231 0.0
H2012 H 0.34875 0.10617 0.96677 0.0
H2013 H 0.30968 0.04458 -0.0019 0.0
H2014 H 0.38613 0.0853 0.97378 0.0
H2015 H 0.34736 0.02355 0.00497 0.0
H2016 H 0.41926 0.98537 0.00079 0.0
H2017 H 0.38363 0.00407 0.98356 0.0
H2018 H 0.40703 0.07695 0.01296 0.0
H2019 H 0.44234 0.05817 0.03004 0.0
C2020 C 0.34811 0.08817 0.97518 0.0
C2021 C 0.32627 0.07729 0.98244 0.0
C2022 C 0.36955 0.07618 0.97904 0.0
C2023 C 0.36964 0.05292 0.99003 0.0
C2024 C 0.34777 0.04142 -0.00373 0.0
C2025 C 0.32624 0.05353 0.99255 0.0
C2026 C 0.41693 0.00547 0.00289 0.0
C2027 C 0.43338 0.02054 0.01641 0.0
C2028 C 0.39656 0.01609 0.99329 0.0
C2029 C 0.39253 0.04191 -0.00292 0.0
C2030 C 0.40979 0.05706 0.00953 0.0
C2031 C 0.42997 0.0464 0.01928 0.0
H2032 H 0.6613 0.55161 0.72841 0.0
H2033 H 0.66471 0.57575 0.80456 0.0
H2034 H 0.67465 0.59384 0.71691 0.0
H2035 H 0.67702 0.61775 0.79312 0.0
H2036 H 0.68453 0.69318 0.7728 0.0
H2037 H 0.65943 0.65543 0.76623 0.0
H2038 H 0.71824 0.61778 0.73059 0.0
H2039 H 0.74335 0.65547 0.73744 0.0
C2040 C 0.66454 0.56604 0.7426 0.0
C2041 C 0.66224 0.56047 0.76738 0.0
C2042 C 0.67202 0.5901 0.73602 0.0
C2043 C 0.67641 0.60905 0.75413 0.0
C2044 C 0.6733 0.60358 0.77879 0.0
C2045 C 0.66656 0.57949 0.78536 0.0
C2046 C 0.69157 0.67738 0.76218 0.0
C2047 C 0.71577 0.67704 0.75565 0.0
C2048 C 0.67728 0.65575 0.75857 0.0
C2049 C 0.68712 0.63366 0.74833 0.0
C2050 C 0.71025 0.63461 0.73845 0.0
C2051 C 0.7246 0.6562 0.74227 0.0
H2052 H 0.84663 0.37052 0.01496 0.0
H2053 H 0.81761 0.43675 0.98451 0.0
H2054 H 0.88505 0.37963 -0.00394 0.0
H2055 H 0.85609 0.44679 0.96714 0.0
H2056 H 0.91994 0.46653 0.93454 0.0
H2057 H 0.88572 0.43792 0.93794 0.0
H2058 H 0.91673 0.40841 0.00266 0.0
H2059 H 0.9515 0.43557 -0.00198 0.0
C2060 C 0.84835 0.3869 0.0041 0.0
C2061 C 0.82895 0.40276 0.00105 0.0
C2062 C 0.87045 0.3922 0.99334 0.0
C2063 C 0.87372 0.41374 0.97969 0.0
C2064 C 0.85421 0.42954 0.97676 0.0
C2065 C 0.83214 0.42406 0.98718 0.0
C2066 C 0.91995 0.45289 0.94864 0.0
C2067 C 0.93785 0.45372 0.96649 0.0
C2068 C 0.90022 0.43676 0.95084 0.0
C2069 C 0.89782 0.42199 0.97142 0.0
C2070 C 0.91768 0.41982 0.98681 0.0
C2071 C 0.93774 0.43543 0.98415 0.0
H2072 H 0.28902 0.05916 0.77646 0.0
H2073 H 0.33348 0.05674 0.71182 0.0
H2074 H 0.27128 0.09736 0.76344 0.0
H2075 H 0.31509 0.09471 0.69841 0.0
H2076 H 0.32095 0.18036 0.71905 0.0
H2077 H 0.32522 0.13522 0.71755 0.0
H2078 H 0.25105 0.12573 0.73786 0.0
H2079 H 0.2469 0.17128 0.73996 0.0
C2080 C 0.29436 0.06618 0.75897 0.0
C2081 C 0.31354 0.05562 0.7458 0.0
C2082 C 0.28403 0.08812 0.7514 0.0
C2083 C 0.29256 0.09967 0.73042 0.0
C2084 C 0.30883 0.08673 0.71517 0.0
C2085 C 0.31927 0.06486 0.72281 0.0
C2086 C 0.30545 0.1687 0.72296 0.0
C2087 C 0.2837 0.17945 0.73001 0.0
C2088 C 0.3078 0.14272 0.72176 0.0
C2089 C 0.28841 0.12678 0.72743 0.0
C2090 C 0.26636 0.13749 0.73354 0.0
C2091 C 0.26404 0.16357 0.73487 0.0
H2092 H 0.20658 0.93987 0.30007 0.0
H2093 H 0.18086 0.9371 0.22561 0.0
H2094 H 0.22558 0.89947 0.29252 0.0
H2095 H 0.19998 0.89699 0.21824 0.0
H2096 H 0.2023 0.81452 0.22178 0.0
H2097 H 0.18737 0.85535 0.23595 0.0
H2098 H 0.25669 0.87532 0.26616 0.0
H2099 H 0.27144 0.8341 0.25216 0.0
C2100 C 0.20552 0.93106 0.28191 0.0
C2101 C 0.19162 0.94138 0.26359 0.0
C2102 C 0.21631 0.90787 0.2777 0.0
C2103 C 0.21338 0.8948 0.25514 0.0
C2104 C 0.20173 0.90637 0.2361 0.0
C2105 C 0.19101 0.92948 0.24025 0.0
C2106 C 0.21398 0.82732 0.23228 0.0
C2107 C 0.23784 0.82147 0.23608 0.0
C2108 C 0.20562 0.85073 0.24005 0.0
C2109 C 0.22116 0.86865 0.25144 0.0
C2110 C 0.24447 0.86187 0.25725 0.0
C2111 C 0.25283 0.83834 0.24944 0.0
H2112 H 0.48555 0.32551 0.36363 0.0
H2113 H 0.4736 0.29628 0.43482 0.0
H2114 H 0.48853 0.36811 0.38183 0.0
H2115 H 0.47815 0.33857 0.45348 0.0
H2116 H 0.48246 0.41642 0.4841 0.0
H2117 H 0.46481 0.38041 0.4607 0.0
H2118 H 0.51802 0.39016 0.40429 0.0
H2119 H 0.53486 0.42601 0.42738 0.0
C2120 C 0.48375 0.32833 0.38324 0.0
C2121 C 0.4798 0.30782 0.39796 0.0
C2122 C 0.48542 0.35267 0.39371 0.0
C2123 C 0.48386 0.35689 0.41921 0.0
C2124 C 0.47908 0.33622 0.43379 0.0
C2125 C 0.4768 0.31195 0.4232 0.0
C2126 C 0.48954 0.41139 0.46618 0.0
C2127 C 0.50989 0.42384 0.45738 0.0
C2128 C 0.47975 0.39055 0.45294 0.0
C2129 C 0.49024 0.38198 0.43075 0.0
C2130 C 0.50926 0.39612 0.42113 0.0
C2131 C 0.51902 0.41672 0.43436 0.0
H2132 H 0.4622 0.72562 0.19986 0.0
H2133 H 0.4375 0.79794 0.17968 0.0
H2134 H 0.42477 0.71864 0.22258 0.0
H2135 H 0.40088 0.79153 0.20292 0.0
H2136 H 0.34029 0.78081 0.25136 0.0
H2137 H 0.38387 0.78281 0.24709 0.0
H2138 H 0.38119 0.71516 0.20091 0.0
H2139 H 0.3376 0.71349 0.20491 0.0
C2140 C 0.44906 0.74025 0.20094 0.0
C2141 C 0.45236 0.76217 0.18795 0.0
C2142 C 0.42779 0.73629 0.21389 0.0
C2143 C 0.4101 0.75462 0.21457 0.0
C2144 C 0.41436 0.77725 0.20296 0.0
C2145 C 0.43516 0.78084 0.1895 0.0
C2146 C 0.34921 0.76588 0.24113 0.0
C2147 C 0.3359 0.74704 0.22839 0.0
C2148 C 0.37403 0.767 0.2387 0.0
C2149 C 0.38577 0.74917 0.22363 0.0
C2150 C 0.37256 0.72894 0.21286 0.0
C2151 C 0.3477 0.72803 0.21502 0.0
H2152 H 0.03475 0.67696 0.89647 0.0
H2153 H 0.97685 0.69693 0.94534 0.0
H2154 H 0.043 0.64069 0.92067 0.0
H2155 H 0.98546 0.66112 0.9697 0.0
H2156 H 0.99234 0.56584 0.93548 0.0
H2157 H 0.0106 0.60419 0.92066 0.0
H2158 H 0.0152 0.635 -0.00528 0.0
H2159 H -0.00247 0.59599 0.00948 0.0
C2160 C 0.02434 0.67414 0.91285 0.0
C2161 C 0.00473 0.68936 0.9187 0.0
C2162 C 0.02918 0.65346 0.92672 0.0
C2163 C 0.01481 0.64808 0.94693 0.0
C2164 C -0.00303 0.66495 0.95431 0.0
C2165 C 0.99182 0.68528 0.94019 0.0
C2166 C -0.00123 0.58015 0.94861 0.0
C2167 C -0.00616 0.57815 0.97348 0.0
C2168 C 0.00916 0.60216 0.9402 0.0
C2169 C 0.01402 0.62264 0.95658 0.0
C2170 C 0.01155 0.61947 0.98178 0.0
C2171 C 0.00146 0.59725 0.9902 0.0
H2172 H 0.08111 0.25569 0.61855 0.0
H2173 H 0.0741 0.27053 0.69645 0.0
H2174 H 0.12121 0.23899 0.62498 0.0
H2175 H 0.11339 0.25355 0.70258 0.0
H2176 H 0.16372 0.19668 0.71235 0.0
H2177 H 0.1297 0.20114 0.68527 0.0
H2178 H 0.16257 0.26767 0.65689 0.0
H2179 H 0.19625 0.26364 0.68433 0.0
C2180 C 0.08812 0.25546 0.63694 0.0
C2181 C 0.07449 0.26439 0.65703 0.0
C2182 C 0.11088 0.24581 0.64053 0.0
C2183 C 0.11988 0.24462 0.66425 0.0
C2184 C 0.10647 0.25396 0.68415 0.0
C2185 C 0.0841 0.26388 0.68059 0.0
C2186 C 0.16431 0.21139 0.69931 0.0
C2187 C 0.18243 0.22998 0.70053 0.0
C2188 C 0.14495 0.21382 0.68371 0.0
C2189 C 0.14359 0.23489 0.66934 0.0
C2190 C 0.16345 0.25116 0.66768 0.0
C2191 C 0.18281 0.24876 0.68334 0.0
H2192 H 0.49671 0.69822 0.07647 0.0
H2193 H 0.47947 0.67034 0.14721 0.0
H2194 H 0.50994 0.6567 0.06266 0.0
H2195 H 0.49276 0.62823 0.13339 0.0
H2196 H 0.48213 0.55824 0.07278 0.0
H2197 H 0.47771 0.59511 0.10033 0.0
H2198 H 0.54302 0.62693 0.0718 0.0
H2199 H 0.54716 0.59014 0.0442 0.0
C2200 C 0.4957 0.68302 0.08897 0.0
C2201 C 0.48683 0.68708 0.11264 0.0
C2202 C 0.50358 0.65939 0.08126 0.0
C2203 C 0.50276 0.63935 0.09713 0.0
C2204 C 0.49367 0.64341 0.12089 0.0
C2205 C 0.48594 0.66728 0.12869 0.0
C2206 C 0.49627 0.57236 0.07359 0.0
C2207 C 0.51497 0.57143 0.05654 0.0
C2208 C 0.49365 0.59362 0.08918 0.0
C2209 C 0.50971 0.6141 0.08769 0.0
C2210 C 0.53017 0.61155 0.07297 0.0
C2211 C 0.5327 0.5904 0.0574 0.0
H2212 H 0.08725 0.75859 0.86899 0.0
H2213 H 0.0876 0.70677 0.80623 0.0
H2214 H 0.12911 0.76948 0.86152 0.0
H2215 H 0.12915 0.71817 0.7983 0.0
H2216 H 0.20308 0.74217 0.78502 0.0
H2217 H 0.17206 0.722 0.80951 0.0
H2218 H 0.14315 0.79479 0.8284 0.0
H2219 H 0.17379 0.81462 0.8042 0.0
C2220 C 0.09638 0.74932 0.85378 0.0
C2221 C 0.08406 0.73234 0.83781 0.0
C2222 C 0.12035 0.75545 0.84958 0.0
C2223 C 0.13233 0.74499 0.82912 0.0
C2224 C 0.12053 0.72643 0.81435 0.0
C2225 C 0.09662 0.72008 0.81873 0.0
C2226 C 0.1904 0.75379 0.79489 0.0
C2227 C 0.19023 0.77983 0.79198 0.0
C2228 C 0.17267 0.74227 0.80887 0.0
C2229 C 0.15483 0.75674 0.82038 0.0
C2230 C 0.15655 0.78303 0.81977 0.0
C2231 C 0.17403 0.79443 0.80566 0.0
H2232 H 0.02058 0.29616 0.56309 0.0
H2233 H 0.94422 0.30313 0.55562 0.0
H2234 H 0.0268 0.33429 0.54084 0.0
H2235 H 0.95069 0.34115 0.53305 0.0
H2236 H 0.97822 0.41504 0.49605 0.0
H2237 H 0.9768 0.36889 0.49712 0.0
H2238 H 0.00745 0.37386 0.56937 0.0
H2239 H 0.00807 0.41954 0.56872 0.0
C2240 C 0.00515 0.30513 0.55577 0.0
C2241 C 0.98188 0.29732 0.56207 0.0
C2242 C 0.00877 0.32687 0.5429 0.0
C2243 C 0.98919 0.34081 0.5359 0.0
C2244 C 0.96604 0.33068 0.53843 0.0
C2245 C 0.96237 0.30894 0.55147 0.0
C2246 C 0.98486 0.40611 0.512 0.0
C2247 C 0.99307 0.42067 0.53243 0.0
C2248 C 0.9841 0.37987 0.51253 0.0
C2249 C 0.99235 0.36803 0.53315 0.0
C2250 C 0.00138 0.38264 0.5531 0.0
C2251 C 0.0015 0.40872 0.55286 0.0
H2252 H 0.43179 0.26699 0.34455 0.0
H2253 H 0.46217 0.23709 0.27727 0.0
H2254 H 0.39286 0.26943 0.32469 0.0
H2255 H 0.42282 0.23857 0.2576 0.0
H2256 H 0.34122 0.19986 0.27672 0.0
H2257 H 0.38376 0.20898 0.2829 0.0
H2258 H 0.37136 0.2881 0.27759 0.0
H2259 H 0.32865 0.27893 0.27032 0.0
C2260 C 0.43017 0.26149 0.32536 0.0
C2261 C 0.44969 0.25163 0.31241 0.0
C2262 C 0.40804 0.26309 0.31398 0.0
C2263 C 0.40504 0.25424 0.28969 0.0
C2264 C 0.42491 0.24575 0.27628 0.0
C2265 C 0.44727 0.24484 0.2875 0.0
C2266 C 0.34767 0.21913 0.27618 0.0
C2267 C 0.33174 0.2387 0.27317 0.0
C2268 C 0.37196 0.2243 0.27954 0.0
C2269 C 0.38065 0.24917 0.28054 0.0
C2270 C 0.36497 0.26877 0.27658 0.0
C2271 C 0.34066 0.26351 0.27248 0.0
H2272 H 0.44768 0.47969 0.29428 0.0
H2273 H 0.39375 0.52677 0.32783 0.0
H2274 H 0.47091 0.48308 0.33222 0.0
H2275 H 0.41665 0.52987 0.36529 0.0
H2276 H 0.46943 0.55645 0.41843 0.0
H2277 H 0.45578 0.55123 0.37632 0.0
H2278 H 0.46751 0.47151 0.37763 0.0
H2279 H 0.48189 0.47688 0.41976 0.0
C2280 C 0.44067 0.49049 0.30978 0.0
C2281 C 0.41896 0.50312 0.30804 0.0
C2282 C 0.45398 0.49245 0.33139 0.0
C2283 C 0.44583 0.50726 0.35139 0.0
C2284 C 0.42367 0.51891 0.34989 0.0
C2285 C 0.4104 0.51688 0.32849 0.0
C2286 C 0.46973 0.53794 0.40949 0.0
C2287 C 0.47621 0.51701 0.42239 0.0
C2288 C 0.46184 0.53492 0.38548 0.0
C2289 C 0.4599 0.51086 0.37409 0.0
C2290 C 0.4687 0.49023 0.38609 0.0
C2291 C 0.47693 0.49331 0.41014 0.0
H2292 H 0.28294 0.68613 0.06619 0.0
H2293 H 0.24374 0.61543 0.06488 0.0
H2294 H 0.26881 0.69536 0.10783 0.0
H2295 H 0.22996 0.62466 0.10695 0.0
H2296 H 0.26389 0.67469 0.1917 0.0
H2297 H 0.26768 0.6489 0.15385 0.0
H2298 H 0.21078 0.68942 0.12174 0.0
H2299 H 0.20716 0.71535 0.15932 0.0
C2300 C 0.27161 0.67244 0.07493 0.0
C2301 C 0.26446 0.6501 0.06238 0.0
C2302 C 0.26352 0.67772 0.09865 0.0
C2303 C 0.24848 0.6606 0.11037 0.0
C2304 C 0.24158 0.63803 0.09814 0.0
C2305 C 0.2494 0.63288 0.07418 0.0
C2306 C 0.25116 0.67695 0.17715 0.0
C2307 C 0.23544 0.69714 0.17818 0.0
C2308 C 0.25343 0.66231 0.15547 0.0
C2309 C 0.23968 0.66753 0.13501 0.0
C2310 C 0.22148 0.6851 0.1374 0.0
C2311 C 0.21937 0.69984 0.1589 0.0
H2312 H 0.08887 0.53588 0.81274 0.0
H2313 H 0.0402 0.47755 0.78555 0.0
H2314 H 0.06611 0.53963 0.85069 0.0
H2315 H 0.01768 0.48071 0.82401 0.0
H2316 H 0.04192 0.46117 0.907 0.0
H2317 H 0.04378 0.46686 0.86307 0.0
H2318 H 0.02347 0.54413 0.87466 0.0
H2319 H 0.02109 0.53814 0.9188 0.0
C2320 C 0.07268 0.52464 0.81459 0.0
C2321 C 0.06629 0.50624 0.79666 0.0
C2322 C 0.05958 0.52688 0.83617 0.0
C2323 C 0.04039 0.51024 0.84022 0.0
C2324 C 0.03244 0.49372 0.82115 0.0
C2325 C 0.04526 0.49191 0.79926 0.0
C2326 C 0.0374 0.47919 0.90007 0.0
C2327 C 0.03149 0.4993 0.91607 0.0
C2328 C 0.03808 0.48235 0.87499 0.0
C2329 C 0.03342 0.50583 0.8656 0.0
C2330 C 0.02673 0.52576 0.88154 0.0
C2331 C 0.02546 0.52239 0.90665 0.0
H2332 H 0.20201 0.33475 0.57299 0.0
H2333 H 0.25229 0.27635 0.55527 0.0
H2334 H 0.19485 0.31699 0.61266 0.0
H2335 H 0.24539 0.25891 0.59474 0.0
H2336 H 0.24754 0.23799 0.66796 0.0
H2337 H 0.22547 0.24256 0.63 0.0
H2338 H 0.22565 0.323 0.64396 0.0
H2339 H 0.24739 0.31812 0.68181 0.0
C2340 C 0.21086 0.31758 0.57711 0.0
C2341 C 0.22858 0.30761 0.56145 0.0
C2342 C 0.20676 0.30744 0.59991 0.0
C2343 C 0.22023 0.28716 0.60728 0.0
C2344 C 0.23486 0.27473 0.58989 0.0
C2345 C 0.23902 0.2849 0.5672 0.0
C2346 C 0.24182 0.25648 0.66331 0.0
C2347 C 0.24909 0.27777 0.6775 0.0
C2348 C 0.22929 0.25912 0.64159 0.0
C2349 C 0.22424 0.28316 0.63363 0.0
C2350 C 0.22909 0.30416 0.6495 0.0
C2351 C 0.24167 0.30148 0.67117 0.0
H2352 H 0.37758 0.49218 0.15967 0.0
H2353 H 0.44507 0.52941 0.1768 0.0
H2354 H 0.38996 0.48657 0.11697 0.0
H2355 H 0.45771 0.52317 0.13461 0.0
H2356 H 0.47851 0.51301 0.05906 0.0
H2357 H 0.4529 0.53108 0.09128 0.0
H2358 H 0.41963 0.45816 0.09992 0.0
H2359 H 0.445 0.44045 0.06789 0.0
C2360 C 0.39498 0.49925 0.15425 0.0
C2361 C 0.41056 0.51079 0.17153 0.0
C2362 C 0.402 0.49619 0.12985 0.0
C2363 C 0.42482 0.50433 0.12245 0.0
C2364 C 0.43984 0.51708 0.13957 0.0
C2365 C 0.43272 0.52038 0.16384 0.0
C2366 C 0.46512 0.50119 0.06729 0.0
C2367 C 0.46405 0.47533 0.06156 0.0
C2368 C 0.45059 0.51144 0.08576 0.0
C2369 C 0.43469 0.49592 0.09847 0.0
C2370 C 0.43171 0.47065 0.09056 0.0
C2371 C 0.4464 0.46041 0.07237 0.0
H2372 H 0.29663 0.71556 0.95093 0.0
H2373 H 0.22444 0.68553 0.94559 0.0
H2374 H 0.29112 0.73678 0.91284 0.0
H2375 H 0.21926 0.70669 0.90753 0.0
H2376 H 0.25802 0.68628 0.82995 0.0
H2377 H 0.25413 0.68501 0.87389 0.0
H2378 H 0.25818 0.76587 0.88035 0.0
H2379 H 0.26146 0.76739 0.8354 0.0
C2380 C 0.27926 0.71433 0.94229 0.0
C2381 C 0.26131 0.69793 0.95079 0.0
C2382 C 0.27609 0.72671 0.92054 0.0
C2383 C 0.25494 0.72292 0.90713 0.0
C2384 C 0.23578 0.70976 0.91756 0.0
C2385 C 0.23887 0.69749 0.93931 0.0
C2386 C 0.25803 0.70391 0.84053 0.0
C2387 C 0.26026 0.72695 0.82913 0.0
C2388 C 0.25554 0.70314 0.86572 0.0
C2389 C 0.25555 0.72532 0.88036 0.0
C2390 C 0.25788 0.74854 0.86929 0.0
C2391 C 0.25983 0.74937 0.8437 0.0
H2392 H 0.13599 0.50586 0.66981 0.0
H2393 H 0.08477 0.44403 0.66529 0.0
H2394 H 0.12529 0.51706 0.62856 0.0
H2395 H 0.07425 0.45522 0.62422 0.0
H2396 H 0.05933 0.4742 0.55054 0.0
H2397 H 0.08813 0.46157 0.58054 0.0
H2398 H 0.08424 0.53471 0.61716 0.0
H2399 H 0.05565 0.5475 0.58666 0.0
C2400 C 0.1229 0.49428 0.65981 0.0
C2401 C 0.11087 0.47435 0.67095 0.0
C2402 C 0.11684 0.50072 0.63623 0.0
C2403 C 0.09889 0.48713 0.62334 0.0
C2404 C 0.08837 0.46587 0.63366 0.0
C2405 C 0.09431 0.45953 0.65726 0.0
C2406 C 0.06581 0.48812 0.56404 0.0
C2407 C 0.05572 0.51199 0.56604 0.0
C2408 C 0.082 0.48073 0.58144 0.0
C2409 C 0.08821 0.49708 0.60123 0.0
C2410 C 0.07992 0.52182 0.60192 0.0
C2411 C 0.06356 0.52916 0.58453 0.0
H2412 H 0.23544 0.37258 0.4329 0.0
H2413 H 0.24652 0.29556 0.45036 0.0
H2414 H 0.22573 0.35881 0.39047 0.0
H2415 H 0.23632 0.28189 0.40871 0.0
H2416 H 0.20413 0.25781 0.34065 0.0
H2417 H 0.20026 0.28173 0.37935 0.0
H2418 H 0.25273 0.33574 0.35531 0.0
H2419 H 0.25632 0.31183 0.31616 0.0
C2420 C 0.23532 0.35273 0.42778 0.0
C2421 C 0.24182 0.3351 0.44482 0.0
C2422 C 0.22986 0.3449 0.40357 0.0
C2423 C 0.23012 0.31928 0.39634 0.0
C2424 C 0.23567 0.30173 0.41377 0.0
C2425 C 0.24166 0.30955 0.4376 0.0
C2426 C 0.21406 0.27539 0.34321 0.0
C2427 C 0.23069 0.28287 0.32559 0.0
C2428 C 0.21193 0.28901 0.36539 0.0
C2429 C 0.22658 0.31025 0.37053 0.0
C2430 C 0.2412 0.31943 0.35182 0.0
C2431 C 0.24323 0.3058 0.3294 0.0
H2432 H 0.30385 0.43852 0.49613 0.0
H2433 H 0.3275 0.3658 0.51683 0.0
H2434 H 0.34503 0.45419 0.49719 0.0
H2435 H 0.36896 0.38167 0.51749 0.0
H2436 H 0.43948 0.43326 0.48624 0.0
H2437 H 0.40229 0.40767 0.48441 0.0
H2438 H 0.37165 0.45621 0.54061 0.0
H2439 H 0.40843 0.48139 0.5426 0.0
C2440 C 0.31784 0.4257 0.50038 0.0
C2441 C 0.31233 0.40098 0.50666 0.0
C2442 C 0.3414 0.43471 0.50104 0.0
C2443 C 0.36001 0.41916 0.50769 0.0
C2444 C 0.35486 0.39396 0.51233 0.0
C2445 C 0.33114 0.38496 0.51196 0.0
C2446 C 0.42514 0.43772 0.49889 0.0
C2447 C 0.42671 0.45934 0.51448 0.0
C2448 C 0.40386 0.42326 0.49769 0.0
C2449 C 0.38408 0.43041 0.51203 0.0
C2450 C 0.38656 0.4506 0.52913 0.0
C2451 C 0.40764 0.46488 0.53036 0.0
H2452 H 0.8255 0.06698 0.45395 0.0
H2453 H 0.8002 0.06075 0.52788 0.0
H2454 H 0.86053 0.04268 0.46334 0.0
H2455 H 0.83602 0.03716 0.53773 0.0
H2456 H 0.92414 0.04911 0.53758 0.0
H2457 H 0.88111 0.05565 0.5366 0.0
H2458 H 0.87394 -0.00156 0.4788 0.0
H2459 H 0.9171 0.99158 0.4802 0.0
C2460 C 0.8274 0.06009 0.47214 0.0
C2461 C 0.81042 0.0657 0.49025 0.0
C2462 C 0.84725 0.04599 0.47747 0.0
C2463 C 0.85083 0.03786 0.5012 0.0
C2464 C 0.83349 0.04298 0.51924 0.0
C2465 C 0.81315 0.05647 0.51366 0.0
C2466 C 0.91314 0.0371 0.52555 0.0
C2467 C 0.92372 0.01993 0.50891 0.0
C2468 C 0.88854 0.04079 0.525 0.0
C2469 C 0.87433 0.02774 0.50742 0.0
C2470 C 0.8846 0.00875 0.49247 0.0
C2471 C 0.90919 0.00474 0.49333 0.0
H2472 H 0.62449 0.06866 0.22716 0.0
H2473 H 0.65851 0.0816 0.29744 0.0
H2474 H 0.63237 0.11233 0.21779 0.0
H2475 H 0.66682 0.12489 0.28785 0.0
H2476 H 0.68153 0.20029 0.27308 0.0
H2477 H 0.65276 0.16633 0.27965 0.0
H2478 H 0.66938 0.13386 0.20813 0.0
H2479 H 0.69716 0.16846 0.20138 0.0
C2480 C 0.63351 0.08083 0.24069 0.0
C2481 C 0.64124 0.07153 0.26291 0.0
C2482 C 0.6379 0.10588 0.23534 0.0
C2483 C 0.65015 0.12214 0.25206 0.0
C2484 C 0.65689 0.11307 0.27472 0.0
C2485 C 0.65244 0.08809 0.2801 0.0
C2486 C 0.67766 0.18694 0.25814 0.0
C2487 C 0.69141 0.18695 0.23675 0.0
C2488 C 0.66159 0.16713 0.26208 0.0
C2489 C 0.65939 0.14698 0.24474 0.0
C2490 C 0.67066 0.14898 0.22193 0.0
C2491 C 0.68661 0.16883 0.218 0.0
H2492 H 0.68598 0.9604 0.03538 0.0
H2493 H 0.6623 0.88293 0.02713 0.0
H2494 H 0.6463 0.97387 0.0246 0.0
H2495 H 0.6222 0.89632 0.0174 0.0
H2496 H 0.57425 0.93013 0.95838 0.0
H2497 H 0.60724 0.91348 0.9811 0.0
H2498 H 0.60483 0.97756 0.032 0.0
H2499 H 0.57183 0.99425 0.00877 0.0
C2500 C 0.67208 0.94628 0.03192 0.0
C2501 C 0.67728 0.92066 0.03146 0.0
C2502 C 0.64925 0.95397 0.0259 0.0
C2503 C 0.63114 0.93614 0.01969 0.0
C2504 C 0.63592 0.91051 0.02141 0.0
C2505 C 0.65884 0.90283 0.02704 0.0
C2506 C 0.5804 0.94022 0.97484 0.0
C2507 C 0.57041 0.96316 0.98222 0.0
C2508 C 0.59918 0.93066 0.98798 0.0
C2509 C 0.60858 0.94415 0.00854 0.0
C2510 C 0.59787 0.96671 0.01637 0.0
C2511 C 0.57885 0.9761 0.00333 0.0
H2512 H 0.37032 0.42232 0.27157 0.0
H2513 H 0.30003 0.45339 0.2692 0.0
H2514 H 0.35284 0.37989 0.26987 0.0
H2515 H 0.28236 0.41114 0.26577 0.0
H2516 H 0.25221 0.33453 0.26477 0.0
H2517 H 0.27274 0.37208 0.28246 0.0
H2518 H 0.33553 0.35366 0.23965 0.0
H2519 H 0.31518 0.31621 0.22294 0.0
C2520 C 0.3511 0.41992 0.27042 0.0
C2521 C 0.33645 0.44086 0.27004 0.0
C2522 C 0.34104 0.39568 0.26948 0.0
C2523 C 0.31614 0.39192 0.26745 0.0
C2524 C 0.30153 0.41314 0.26776 0.0
C2525 C 0.31161 0.43737 0.26934 0.0
C2526 C 0.27074 0.33813 0.26011 0.0
C2527 C 0.28227 0.3227 0.24264 0.0
C2528 C 0.28241 0.35978 0.26988 0.0
C2529 C 0.30566 0.36633 0.26208 0.0
C2530 C 0.31775 0.34937 0.24629 0.0
C2531 C 0.30611 0.32784 0.23662 0.0
H2532 H 0.18847 0.56659 0.03272 0.0
H2533 H 0.17185 0.63123 0.99159 0.0
H2534 H 0.14663 0.55995 0.04146 0.0
H2535 H 0.12952 0.62534 0.00132 0.0
H2536 H 0.06209 0.57224 0.98616 0.0
H2537 H 0.0987 0.59741 0.98873 0.0
H2538 H 0.11135 0.57113 0.06106 0.0
H2539 H 0.07561 0.54435 0.05731 0.0
C2540 C 0.17584 0.57972 0.02593 0.0
C2541 C 0.18341 0.59919 0.01117 0.0
C2542 C 0.15172 0.57617 0.03127 0.0
C2543 C 0.13446 0.59223 0.0223 0.0
C2544 C 0.14221 0.61244 0.00836 0.0
C2545 C 0.16644 0.61579 0.00272 0.0
C2546 C 0.07215 0.57284 0.00305 0.0
C2547 C 0.06648 0.55613 0.02135 0.0
C2548 C 0.09326 0.58725 0.00456 0.0
C2549 C 0.10865 0.58538 0.02466 0.0
C2550 C 0.10048 0.57209 0.04483 0.0
C2551 C 0.07979 0.5571 0.04296 0.0
H2552 H 0.68225 0.94842 0.21767 0.0
H2553 H 0.7095 0.96457 0.29053 0.0
H2554 H 0.70381 0.90934 0.21557 0.0
H2555 H 0.73119 0.92545 0.28816 0.0
H2556 H 0.70012 0.84167 0.29174 0.0
H2557 H 0.70155 0.88708 0.28909 0.0
H2558 H 0.74048 0.8798 0.22108 0.0
H2559 H 0.73961 0.8339 0.22416 0.0
C2560 C 0.69371 0.9443 0.2328 0.0
C2561 C 0.69314 0.95891 0.25481 0.0
C2562 C 0.70621 0.92189 0.23149 0.0
C2563 C 0.71833 0.91405 0.25209 0.0
C2564 C 0.7214 0.93091 0.27228 0.0
C2565 C 0.70891 0.95329 0.27362 0.0
C2566 C 0.70915 0.84976 0.27634 0.0
C2567 C 0.71947 0.83442 0.258 0.0
C2568 C 0.71035 0.87575 0.27501 0.0
C2569 C 0.72148 0.88693 0.25505 0.0
C2570 C 0.7321 0.8716 0.23678 0.0
C2571 C 0.73144 0.84548 0.23846 0.0
H2572 H 0.85625 0.07163 0.7208 0.0
H2573 H 0.80703 0.05055 0.77756 0.0
H2574 H 0.83184 0.10803 0.71271 0.0
H2575 H 0.78246 0.08629 0.76901 0.0
H2576 H 0.80112 0.18459 0.75758 0.0
H2577 H 0.82366 0.14754 0.74424 0.0
H2578 H 0.75761 0.10531 0.73384 0.0
H2579 H 0.73526 0.14215 0.74761 0.0
C2580 C 0.83986 0.07436 0.73103 0.0
C2581 C 0.83351 0.05837 0.74991 0.0
C2582 C 0.82601 0.09517 0.72641 0.0
C2583 C 0.80525 0.09979 0.7401 0.0
C2584 C 0.79822 0.08292 0.75793 0.0
C2585 C 0.81232 0.06257 0.76295 0.0
C2586 C 0.79148 0.16774 0.75123 0.0
C2587 C 0.76661 0.16585 0.75386 0.0
C2588 C 0.80433 0.14656 0.74359 0.0
C2589 C 0.79228 0.12351 0.73856 0.0
C2590 C 0.76724 0.1228 0.73797 0.0
C2591 C 0.75449 0.14381 0.74579 0.0
loop_
_geom_bond_atom_site_label_1
_geom_bond_atom_site_label_2
_geom_bond_distance
_geom_bond_site_symmetry_2
_ccdc_geom_bond_type
Mg0 O1 2.028 . S
Mg0 O7 1.986 . S
Mg0 O9 2.114 1_455 S
Mg0 O10 2.251 1_455 S
Mg0 O13 2.010 . S
O1 Mg0 2.028 . S
O1 C4 1.250 . S
O2 Mg3 2.028 . S
O2 C4 1.248 1_655 S
Mg3 O2 2.028 . S
Mg3 O8 2.032 . S
Mg3 O10 2.079 . S
C4 O1 1.250 . S
C4 O2 1.248 1_455 S
C5 O6 1.264 . S
C5 O13 1.249 . S
O6 C5 1.264 . S
O7 Mg0 1.986 . S
O7 C11 1.246 . S
O8 Mg3 2.032 . S
O8 C11 1.259 1_655 S
O9 Mg0 2.114 1_655 S
O9 C12 1.252 . S
O10 Mg0 2.251 1_655 S
O10 Mg3 2.079 . S
O10 C12 1.273 . S
C11 O7 1.246 . S
C11 O8 1.259 1_455 S
C12 O9 1.252 . S
C12 O10 1.273 . S
O13 Mg0 2.010 . S
O13 C5 1.249 . S
Mg14 O15 2.028 . S
Mg14 O21 1.986 . S
Mg14 O23 2.114 1_455 S
Mg14 O24 2.251 1_455 S
Mg14 O27 2.010 . S
O15 Mg14 2.028 . S
O15 C18 1.250 . S
O16 Mg17 2.028 . S
O16 C18 1.248 1_655 S
Mg17 O16 2.028 . S
Mg17 O22 2.032 . S
Mg17 O24 2.079 . S
C18 O15 1.250 . S
C18 O16 1.248 1_455 S
C19 O20 1.264 . S
C19 O27 1.249 . S
O20 C19 1.264 . S
O21 Mg14 1.986 . S
O21 C25 1.246 . S
O22 Mg17 2.032 . S
O22 C25 1.259 1_655 S
O23 Mg14 2.114 1_655 S
O23 C26 1.252 . S
O24 Mg14 2.251 1_655 S
O24 Mg17 2.079 . S
O24 C26 1.273 . S
C25 O21 1.246 . S
C25 O22 1.259 1_455 S
C26 O23 1.252 . S
C26 O24 1.273 . S
O27 Mg14 2.010 . S
O27 C19 1.249 . S
Mg28 O29 2.028 . S
Mg28 O35 1.986 . S
Mg28 O37 2.114 . S
Mg28 O38 2.251 . S
Mg28 O41 2.010 . S
O29 Mg28 2.028 . S
O29 C32 1.250 . S
O30 Mg31 2.028 . S
O30 C32 1.248 . S
Mg31 O30 2.028 . S
Mg31 O36 2.032 . S
Mg31 O38 2.079 . S
C32 O29 1.250 . S
C32 O30 1.248 . S
C33 O34 1.264 . S
C33 O41 1.249 . S
O34 C33 1.264 . S
O35 Mg28 1.986 . S
O35 C39 1.246 . S
O36 Mg31 2.032 . S
O36 C39 1.259 . S
O37 Mg28 2.114 . S
O37 C40 1.252 . S
O38 Mg28 2.251 . S
O38 Mg31 2.079 . S
O38 C40 1.273 . S
C39 O35 1.246 . S
C39 O36 1.259 . S
C40 O37 1.252 . S
C40 O38 1.273 . S
O41 Mg28 2.010 . S
O41 C33 1.249 . S
Mg42 O43 2.028 . S
Mg42 O49 1.986 . S
Mg42 O51 2.114 . S
Mg42 O52 2.251 . S
Mg42 O55 2.010 . S
O43 Mg42 2.028 . S
O43 C46 1.250 . S
O44 Mg45 2.028 . S
O44 C46 1.248 . S
Mg45 O44 2.028 . S
Mg45 O50 2.032 . S
Mg45 O52 2.079 . S
C46 O43 1.250 . S
C46 O44 1.248 . S
C47 O48 1.264 . S
C47 O55 1.249 . S
O48 C47 1.264 . S
O49 Mg42 1.986 . S
O49 C53 1.246 . S
O50 Mg45 2.032 . S
O50 C53 1.259 . S
O51 Mg42 2.114 . S
O51 C54 1.252 . S
O52 Mg42 2.251 . S
O52 Mg45 2.079 . S
O52 C54 1.273 . S
C53 O49 1.246 . S
C53 O50 1.259 . S
C54 O51 1.252 . S
C54 O52 1.273 . S
O55 Mg42 2.010 . S
O55 C47 1.249 . S
Mg56 O57 2.028 1_565 S
Mg56 O63 1.986 . S
Mg56 O65 2.114 1_565 S
Mg56 O66 2.251 . S
Mg56 O69 2.010 . S
O57 Mg56 2.028 1_545 S
O57 C60 1.250 . S
O58 Mg59 2.028 . S
O58 C60 1.248 . S
Mg59 O58 2.028 . S
Mg59 O64 2.032 1_545 S
Mg59 O66 2.079 1_545 S
C60 O57 1.250 . S
C60 O58 1.248 . S
C61 O62 1.264 . S
C61 O69 1.249 . S
O62 C61 1.264 . S
O63 Mg56 1.986 . S
O63 C67 1.246 . S
O64 Mg59 2.032 1_565 S
O64 C67 1.259 . S
O65 Mg56 2.114 1_545 S
O65 C68 1.252 . S
O66 Mg56 2.251 . S
O66 Mg59 2.079 1_565 S
O66 C68 1.273 1_565 S
C67 O63 1.246 . S
C67 O64 1.259 . S
C68 O65 1.252 . S
C68 O66 1.273 1_545 S
O69 Mg56 2.010 . S
O69 C61 1.249 . S
Mg70 O71 2.028 . S
Mg70 O77 1.986 . S
Mg70 O79 2.114 . S
Mg70 O80 2.251 . S
Mg70 O83 2.010 . S
O71 Mg70 2.028 . S
O71 C74 1.250 . S
O72 Mg73 2.028 . S
O72 C74 1.248 . S
Mg73 O72 2.028 . S
Mg73 O78 2.032 . S
Mg73 O80 2.079 . S
C74 O71 1.250 . S
C74 O72 1.248 . S
C75 O76 1.264 . S
C75 O83 1.249 . S
O76 C75 1.264 . S
O77 Mg70 1.986 . S
O77 C81 1.246 . S
O78 Mg73 2.032 . S
O78 C81 1.259 . S
O79 Mg70 2.114 . S
O79 C82 1.252 . S
O80 Mg70 2.251 . S
O80 Mg73 2.079 . S
O80 C82 1.273 . S
C81 O77 1.246 . S
C81 O78 1.259 . S
C82 O79 1.252 . S
C82 O80 1.273 . S
O83 Mg70 2.010 . S
O83 C75 1.249 . S
Mg84 O85 2.028 1_545 S
Mg84 O91 1.986 . S
Mg84 O93 2.114 1_545 S
Mg84 O94 2.251 . S
Mg84 O97 2.010 . S
O85 Mg84 2.028 1_565 S
O85 C88 1.250 . S
O86 Mg87 2.028 1_565 S
O86 C88 1.248 . S
Mg87 O86 2.028 1_545 S
Mg87 O92 2.032 . S
Mg87 O94 2.079 . S
C88 O85 1.250 . S
C88 O86 1.248 . S
C89 O90 1.264 . S
C89 O97 1.249 . S
O90 C89 1.264 . S
O91 Mg84 1.986 . S
O91 C95 1.246 . S
O92 Mg87 2.032 . S
O92 C95 1.259 . S
O93 Mg84 2.114 1_565 S
O93 C96 1.252 1_565 S
O94 Mg84 2.251 . S
O94 Mg87 2.079 . S
O94 C96 1.273 . S
C95 O91 1.246 . S
C95 O92 1.259 . S
C96 O93 1.252 1_545 S
C96 O94 1.273 . S
O97 Mg84 2.010 . S
O97 C89 1.249 . S
Mg98 O99 2.028 1_556 S
Mg98 O105 1.986 . S
Mg98 O107 2.114 1_556 S
Mg98 O108 2.251 1_556 S
Mg98 O111 2.010 . S
O99 Mg98 2.028 1_554 S
O99 C102 1.250 . S
O100 Mg101 2.028 . S
O100 C102 1.248 . S
Mg101 O100 2.028 . S
Mg101 O106 2.032 1_554 S
Mg101 O108 2.079 . S
C102 O99 1.250 . S
C102 O100 1.248 . S
C103 O104 1.245 1_554 S
C103 O111 1.243 1_554 S
O104 C103 1.245 1_556 S
O105 Mg98 1.986 . S
O105 C109 1.246 . S
O106 Mg101 2.032 1_556 S
O106 C109 1.259 . S
O107 Mg98 2.114 1_554 S
O107 C110 1.252 . S
O108 Mg98 2.251 1_554 S
O108 Mg101 2.079 . S
O108 C110 1.273 . S
C109 O105 1.246 . S
C109 O106 1.259 . S
C110 O107 1.252 . S
C110 O108 1.273 . S
O111 Mg98 2.010 . S
O111 C103 1.243 1_556 S
Mg112 O113 2.028 1_554 S
Mg112 O119 1.986 . S
Mg112 O121 2.114 1_554 S
Mg112 O122 2.251 . S
Mg112 O125 2.010 . S
O113 Mg112 2.028 1_556 S
O113 C116 1.250 . S
O114 Mg115 2.028 1_556 S
O114 C116 1.248 . S
Mg115 O114 2.028 1_554 S
Mg115 O120 2.032 . S
Mg115 O122 2.079 . S
C116 O113 1.250 . S
C116 O114 1.248 . S
C117 O118 1.264 . S
C117 O125 1.249 . S
O118 C117 1.264 . S
O119 Mg112 1.986 . S
O119 C123 1.246 . S
O120 Mg115 2.032 . S
O120 C123 1.259 . S
O121 Mg112 2.114 1_556 S
O121 C124 1.252 1_556 S
O122 Mg112 2.251 . S
O122 Mg115 2.079 . S
O122 C124 1.273 . S
C123 O119 1.246 . S
C123 O120 1.259 . S
C124 O121 1.252 1_554 S
C124 O122 1.273 . S
O125 Mg112 2.010 . S
O125 C117 1.249 . S
Mg126 O127 2.028 . S
Mg126 O133 1.986 . S
Mg126 O135 2.114 . S
Mg126 O136 2.251 . S
Mg126 O139 2.010 . S
O127 Mg126 2.028 . S
O127 C130 1.250 . S
O128 Mg129 2.028 . S
O128 C130 1.248 . S
Mg129 O128 2.028 . S
Mg129 O134 2.032 . S
Mg129 O136 2.079 . S
C130 O127 1.250 . S
C130 O128 1.248 . S
C131 O132 1.264 . S
C131 O139 1.249 . S
O132 C131 1.264 . S
O133 Mg126 1.986 . S
O133 C137 1.246 . S
O134 Mg129 2.032 . S
O134 C137 1.259 . S
O135 Mg126 2.114 . S
O135 C138 1.252 . S
O136 Mg126 2.251 . S
O136 Mg129 2.079 . S
O136 C138 1.273 . S
C137 O133 1.246 . S
C137 O134 1.259 . S
C138 O135 1.252 . S
C138 O136 1.273 . S
O139 Mg126 2.010 . S
O139 C131 1.249 . S
Mg140 O141 2.028 . S
Mg140 O147 1.986 . S
Mg140 O149 2.114 . S
Mg140 O150 2.251 . S
Mg140 O153 2.010 . S
O141 Mg140 2.028 . S
O141 C144 1.250 . S
O142 Mg143 2.028 . S
O142 C144 1.248 . S
Mg143 O142 2.028 . S
Mg143 O148 2.032 . S
Mg143 O150 2.079 . S
C144 O141 1.250 . S
C144 O142 1.248 . S
C145 O146 1.264 . S
C145 O153 1.249 . S
O146 C145 1.264 . S
O147 Mg140 1.986 . S
O147 C151 1.246 . S
O148 Mg143 2.032 . S
O148 C151 1.259 . S
O149 Mg140 2.114 . S
O149 C152 1.252 . S
O150 Mg140 2.251 . S
O150 Mg143 2.079 . S
O150 C152 1.273 . S
C151 O147 1.246 . S
C151 O148 1.259 . S
C152 O149 1.252 . S
C152 O150 1.273 . S
O153 Mg140 2.010 . S
O153 C145 1.249 . S
Mg154 O155 2.028 . S
Mg154 O161 1.986 . S
Mg154 O163 2.114 . S
Mg154 O164 2.251 . S
Mg154 O167 2.010 . S
O155 Mg154 2.028 . S
O155 C158 1.250 . S
O156 Mg157 2.028 . S
O156 C158 1.248 . S
Mg157 O156 2.028 . S
Mg157 O162 2.032 . S
Mg157 O164 2.079 . S
C158 O155 1.250 . S
C158 O156 1.248 . S
C159 O160 1.264 . S
C159 O167 1.249 . S
O160 C159 1.264 . S
O161 Mg154 1.986 . S
O161 C165 1.246 . S
O162 Mg157 2.032 . S
O162 C165 1.259 . S
O163 Mg154 2.114 . S
O163 C166 1.252 . S
O164 Mg154 2.251 . S
O164 Mg157 2.079 . S
O164 C166 1.273 . S
C165 O161 1.246 . S
C165 O162 1.259 . S
C166 O163 1.252 . S
C166 O164 1.273 . S
O167 Mg154 2.010 . S
O167 C159 1.249 . S
Mg168 O169 2.028 . S
Mg168 O175 1.986 . S
Mg168 O177 2.114 1_455 S
Mg168 O178 2.251 1_455 S
Mg168 O181 2.010 . S
O169 Mg168 2.028 . S
O169 C172 1.250 . S
O170 Mg171 2.028 . S
O170 C172 1.248 1_655 S
Mg171 O170 2.028 . S
Mg171 O176 2.032 . S
Mg171 O178 2.079 . S
C172 O169 1.250 . S
C172 O170 1.248 1_455 S
C173 O174 1.264 . S
C173 O181 1.249 . S
O174 C173 1.264 . S
O175 Mg168 1.986 . S
O175 C179 1.246 . S
O176 Mg171 2.032 . S
O176 C179 1.259 1_655 S
O177 Mg168 2.114 1_655 S
O177 C180 1.252 . S
O178 Mg168 2.251 1_655 S
O178 Mg171 2.079 . S
O178 C180 1.273 . S
C179 O175 1.246 . S
C179 O176 1.259 1_455 S
C180 O177 1.252 . S
C180 O178 1.273 . S
O181 Mg168 2.010 . S
O181 C173 1.249 . S
Mg182 O183 2.028 . S
Mg182 O189 1.986 . S
Mg182 O191 2.114 1_455 S
Mg182 O192 2.251 1_455 S
Mg182 O195 2.010 . S
O183 Mg182 2.028 . S
O183 C186 1.250 . S
O184 Mg185 2.028 . S
O184 C186 1.248 1_655 S
Mg185 O184 2.028 . S
Mg185 O190 2.032 . S
Mg185 O192 2.079 . S
C186 O183 1.250 . S
C186 O184 1.248 1_455 S
C187 O188 1.264 . S
C187 O195 1.249 . S
O188 C187 1.264 . S
O189 Mg182 1.986 . S
O189 C193 1.246 . S
O190 Mg185 2.032 . S
O190 C193 1.259 1_655 S
O191 Mg182 2.114 1_655 S
O191 C194 1.252 . S
O192 Mg182 2.251 1_655 S
O192 Mg185 2.079 . S
O192 C194 1.273 . S
C193 O189 1.246 . S
C193 O190 1.259 1_455 S
C194 O191 1.252 . S
C194 O192 1.273 . S
O195 Mg182 2.010 . S
O195 C187 1.249 . S
Mg196 O197 2.028 . S
Mg196 O203 1.986 . S
Mg196 O205 2.114 . S
Mg196 O206 2.251 . S
Mg196 O209 2.010 . S
O197 Mg196 2.028 . S
O197 C200 1.250 . S
O198 Mg199 2.028 . S
O198 C200 1.248 . S
Mg199 O198 2.028 . S
Mg199 O204 2.032 . S
Mg199 O206 2.079 . S
C200 O197 1.250 . S
C200 O198 1.248 . S
C201 O202 1.264 . S
C201 O209 1.249 . S
O202 C201 1.264 . S
O203 Mg196 1.986 . S
O203 C207 1.246 . S
O204 Mg199 2.032 . S
O204 C207 1.259 . S
O205 Mg196 2.114 . S
O205 C208 1.252 . S
O206 Mg196 2.251 . S
O206 Mg199 2.079 . S
O206 C208 1.273 . S
C207 O203 1.246 . S
C207 O204 1.259 . S
C208 O205 1.252 . S
C208 O206 1.273 . S
O209 Mg196 2.010 . S
O209 C201 1.249 . S
Mg210 O211 2.028 . S
Mg210 O217 1.986 . S
Mg210 O219 2.114 . S
Mg210 O220 2.251 . S
Mg210 O223 2.010 . S
O211 Mg210 2.028 . S
O211 C214 1.250 . S
O212 Mg213 2.028 . S
O212 C214 1.248 . S
Mg213 O212 2.028 . S
Mg213 O218 2.032 . S
Mg213 O220 2.079 . S
C214 O211 1.250 . S
C214 O212 1.248 . S
C215 O216 1.264 . S
C215 O223 1.249 . S
O216 C215 1.264 . S
O217 Mg210 1.986 . S
O217 C221 1.246 . S
O218 Mg213 2.032 . S
O218 C221 1.259 . S
O219 Mg210 2.114 . S
O219 C222 1.252 . S
O220 Mg210 2.251 . S
O220 Mg213 2.079 . S
O220 C222 1.273 . S
C221 O217 1.246 . S
C221 O218 1.259 . S
C222 O219 1.252 . S
C222 O220 1.273 . S
O223 Mg210 2.010 . S
O223 C215 1.249 . S
Mg224 O225 2.028 1_545 S
Mg224 O231 1.986 . S
Mg224 O233 2.114 1_545 S
Mg224 O234 2.251 . S
Mg224 O237 2.010 . S
O225 Mg224 2.028 1_565 S
O225 C228 1.250 . S
O226 Mg227 2.028 1_565 S
O226 C228 1.248 . S
Mg227 O226 2.028 1_545 S
Mg227 O232 2.032 . S
Mg227 O234 2.079 . S
C228 O225 1.250 . S
C228 O226 1.248 . S
C229 O230 1.264 . S
C229 O237 1.249 . S
O230 C229 1.264 . S
O231 Mg224 1.986 . S
O231 C235 1.246 . S
O232 Mg227 2.032 . S
O232 C235 1.259 . S
O233 Mg224 2.114 1_565 S
O233 C236 1.261 . S
O234 Mg224 2.251 . S
O234 Mg227 2.079 . S
O234 C236 1.260 1_545 S
C235 O231 1.246 . S
C235 O232 1.259 . S
C236 O233 1.261 . S
C236 O234 1.260 1_565 S
O237 Mg224 2.010 . S
O237 C229 1.249 . S
Mg238 O239 2.028 . S
Mg238 O245 1.986 . S
Mg238 O247 2.114 . S
Mg238 O248 2.251 . S
Mg238 O251 2.010 . S
O239 Mg238 2.028 . S
O239 C242 1.250 . S
O240 Mg241 2.028 . S
O240 C242 1.248 . S
Mg241 O240 2.028 . S
Mg241 O246 2.032 . S
Mg241 O248 2.079 . S
C242 O239 1.250 . S
C242 O240 1.248 . S
C243 O244 1.264 . S
C243 O251 1.249 . S
O244 C243 1.264 . S
O245 Mg238 1.986 . S
O245 C249 1.246 . S
O246 Mg241 2.032 . S
O246 C249 1.259 . S
O247 Mg238 2.114 . S
O247 C250 1.252 . S
O248 Mg238 2.251 . S
O248 Mg241 2.079 . S
O248 C250 1.273 . S
C249 O245 1.246 . S
C249 O246 1.259 . S
C250 O247 1.252 . S
C250 O248 1.273 . S
O251 Mg238 2.010 . S
O251 C243 1.249 . S
Mg252 O253 2.028 1_565 S
Mg252 O259 1.986 . S
Mg252 O261 2.114 1_565 S
Mg252 O262 2.253 . S
Mg252 O265 2.010 . S
O253 Mg252 2.028 1_545 S
O253 C256 1.250 . S
O254 Mg255 2.028 . S
O254 C256 1.248 . S
Mg255 O254 2.028 . S
Mg255 O260 2.032 1_545 S
Mg255 O262 2.076 1_545 S
C256 O253 1.250 . S
C256 O254 1.248 . S
C257 O258 1.264 . S
C257 O265 1.249 . S
O258 C257 1.264 . S
O259 Mg252 1.986 . S
O259 C263 1.246 . S
O260 Mg255 2.032 1_565 S
O260 C263 1.259 . S
O261 Mg252 2.114 1_545 S
O261 C264 1.252 . S
O262 Mg252 2.253 . S
O262 Mg255 2.076 1_565 S
O262 C264 1.258 1_565 S
C263 O259 1.246 . S
C263 O260 1.259 . S
C264 O261 1.252 . S
C264 O262 1.258 1_545 S
O265 Mg252 2.010 . S
O265 C257 1.249 . S
Mg266 O267 2.028 1_554 S
Mg266 O273 1.986 . S
Mg266 O275 2.114 . S
Mg266 O276 2.251 . S
Mg266 O279 2.010 . S
O267 Mg266 2.028 1_556 S
O267 C270 1.250 . S
O268 Mg269 2.028 1_556 S
O268 C270 1.248 . S
Mg269 O268 2.028 1_554 S
Mg269 O274 2.032 . S
Mg269 O276 2.079 . S
C270 O267 1.250 . S
C270 O268 1.248 . S
C271 O272 1.264 . S
C271 O279 1.249 . S
O272 C271 1.264 . S
O273 Mg266 1.986 . S
O273 C277 1.246 . S
O274 Mg269 2.032 . S
O274 C277 1.259 . S
O275 Mg266 2.114 . S
O275 C278 1.252 . S
O276 Mg266 2.251 . S
O276 Mg269 2.079 . S
O276 C278 1.273 . S
C277 O273 1.246 . S
C277 O274 1.259 . S
C278 O275 1.252 . S
C278 O276 1.273 . S
O279 Mg266 2.010 . S
O279 C271 1.249 . S
Mg280 O281 2.028 1_556 S
Mg280 O287 1.986 . S
Mg280 O289 2.114 1_556 S
Mg280 O290 2.251 . S
Mg280 O293 2.010 . S
O281 Mg280 2.028 1_554 S
O281 C284 1.250 . S
O282 Mg283 2.028 . S
O282 C284 1.248 . S
Mg283 O282 2.028 . S
Mg283 O288 2.032 1_554 S
Mg283 O290 2.079 1_554 S
C284 O281 1.250 . S
C284 O282 1.248 . S
C285 O286 1.264 . S
C285 O293 1.249 . S
O286 C285 1.264 . S
O287 Mg280 1.986 . S
O287 C291 1.246 . S
O288 Mg283 2.032 1_556 S
O288 C291 1.259 . S
O289 Mg280 2.114 1_554 S
O289 C292 1.252 . S
O290 Mg280 2.251 . S
O290 Mg283 2.079 1_556 S
O290 C292 1.273 1_556 S
C291 O287 1.246 . S
C291 O288 1.259 . S
C292 O289 1.252 . S
C292 O290 1.273 1_554 S
O293 Mg280 2.010 . S
O293 C285 1.249 . S
Mg294 O295 2.028 . S
Mg294 O301 1.986 . S
Mg294 O303 2.114 . S
Mg294 O304 2.251 . S
Mg294 O307 2.010 . S
O295 Mg294 2.028 . S
O295 C298 1.250 . S
O296 Mg297 2.028 . S
O296 C298 1.248 . S
Mg297 O296 2.028 . S
Mg297 O302 2.032 . S
Mg297 O304 2.079 . S
C298 O295 1.250 . S
C298 O296 1.248 . S
C299 O300 1.264 . S
C299 O307 1.249 . S
O300 C299 1.264 . S
O301 Mg294 1.986 . S
O301 C305 1.246 . S
O302 Mg297 2.032 . S
O302 C305 1.259 . S
O303 Mg294 2.114 . S
O303 C306 1.252 . S
O304 Mg294 2.251 . S
O304 Mg297 2.079 . S
O304 C306 1.273 . S
C305 O301 1.246 . S
C305 O302 1.259 . S
C306 O303 1.252 . S
C306 O304 1.273 . S
O307 Mg294 2.010 . S
O307 C299 1.249 . S
Mg308 O309 2.028 . S
Mg308 O315 1.986 . S
Mg308 O317 2.114 . S
Mg308 O318 2.251 . S
Mg308 O321 2.010 . S
O309 Mg308 2.028 . S
O309 C312 1.250 . S
O310 Mg311 2.028 . S
O310 C312 1.248 . S
Mg311 O310 2.028 . S
Mg311 O316 2.032 . S
Mg311 O318 2.079 . S
C312 O309 1.250 . S
C312 O310 1.248 . S
C313 O314 1.264 . S
C313 O321 1.249 . S
O314 C313 1.264 . S
O315 Mg308 1.986 . S
O315 C319 1.246 . S
O316 Mg311 2.032 . S
O316 C319 1.259 . S
O317 Mg308 2.114 . S
O317 C320 1.252 . S
O318 Mg308 2.251 . S
O318 Mg311 2.079 . S
O318 C320 1.273 . S
C319 O315 1.246 . S
C319 O316 1.259 . S
C320 O317 1.252 . S
C320 O318 1.273 . S
O321 Mg308 2.010 . S
O321 C313 1.249 . S
Mg322 O323 2.028 . S
Mg322 O329 1.986 . S
Mg322 O331 2.114 . S
Mg322 O332 2.251 . S
Mg322 O335 2.010 . S
O323 Mg322 2.028 . S
O323 C326 1.250 . S
O324 Mg325 2.028 . S
O324 C326 1.248 . S
Mg325 O324 2.028 . S
Mg325 O330 2.032 . S
Mg325 O332 2.079 . S
C326 O323 1.250 . S
C326 O324 1.248 . S
C327 O328 1.264 . S
C327 O335 1.249 . S
O328 C327 1.264 . S
O329 Mg322 1.986 . S
O329 C333 1.246 . S
O330 Mg325 2.032 . S
O330 C333 1.259 . S
O331 Mg322 2.114 . S
O331 C334 1.252 . S
O332 Mg322 2.251 . S
O332 Mg325 2.079 . S
O332 C334 1.273 . S
C333 O329 1.246 . S
C333 O330 1.259 . S
C334 O331 1.252 . S
C334 O332 1.273 . S
O335 Mg322 2.010 . S
O335 C327 1.249 . S
O336 Mg337 1.986 . S
O336 C350 1.253 . S
Mg337 O336 1.986 . S
Mg337 O340 2.182 1_556 S
Mg337 O341 2.118 1_556 S
Mg337 O355 2.030 1_556 S
O338 Mg339 2.072 1_656 S
O338 C350 1.260 . S
Mg339 O338 2.072 1_454 S
Mg339 O340 2.099 1_455 S
Mg339 O342 2.079 1_545 S
Mg339 O343 2.072 . S
Mg339 O345 2.099 1_545 S
Mg339 O356 2.079 1_445 S
O340 Mg337 2.182 1_554 S
O340 Mg339 2.099 1_655 S
O340 C351 1.279 . S
O341 Mg337 2.118 1_554 S
O341 C351 1.250 . S
O342 Mg339 2.079 1_565 S
O342 C352 1.264 . S
O343 Mg339 2.072 . S
O343 C353 1.260 . S
Mg344 O345 2.180 . S
Mg344 O346 2.030 . S
Mg344 O347 1.990 1_554 S
Mg344 O348 2.117 1_554 S
O345 Mg339 2.099 1_565 S
O345 Mg344 2.180 . S
O345 C354 1.279 1_554 S
O346 Mg344 2.030 . S
O346 C352 1.248 . S
O347 Mg344 1.990 1_556 S
O347 C353 1.253 1_566 S
O348 Mg344 2.117 1_556 S
O348 C354 1.250 . S
C349 O355 1.248 1_565 S
C349 O356 1.264 . S
C350 O336 1.253 . S
C350 O338 1.260 . S
C351 O340 1.279 . S
C351 O341 1.250 . S
C352 O342 1.264 . S
C352 O346 1.248 . S
C353 O343 1.260 . S
C353 O347 1.253 1_544 S
C354 O345 1.279 1_556 S
C354 O348 1.250 . S
O355 Mg337 2.030 1_554 S
O355 C349 1.248 1_545 S
O356 Mg339 2.079 1_665 S
O356 C349 1.264 . S
O357 Mg358 1.990 . S
O357 C371 1.253 . S
Mg358 O357 1.990 . S
Mg358 O361 2.180 . S
Mg358 O362 2.117 . S
Mg358 O376 2.030 . S
O359 Mg360 2.072 . S
O359 C371 1.260 . S
Mg360 O359 2.072 . S
Mg360 O361 2.099 . S
Mg360 O363 2.079 . S
Mg360 O364 2.072 . S
Mg360 O366 2.099 . S
Mg360 O377 2.079 . S
O361 Mg358 2.180 . S
O361 Mg360 2.099 . S
O361 C372 1.279 . S
O362 Mg358 2.117 . S
O362 C372 1.250 . S
O363 Mg360 2.079 . S
O363 C373 1.264 . S
O364 Mg360 2.072 . S
O364 C374 1.260 . S
Mg365 O366 2.180 . S
Mg365 O367 2.030 . S
Mg365 O368 1.990 . S
Mg365 O369 2.117 . S
O366 Mg360 2.099 . S
O366 Mg365 2.180 . S
O366 C375 1.279 . S
O367 Mg365 2.030 . S
O367 C373 1.248 . S
O368 Mg365 1.990 . S
O368 C374 1.253 . S
O369 Mg365 2.117 . S
O369 C375 1.250 . S
C370 O376 1.248 . S
C370 O377 1.264 . S
C371 O357 1.253 . S
C371 O359 1.260 . S
C372 O361 1.279 . S
C372 O362 1.250 . S
C373 O363 1.264 . S
C373 O367 1.248 . S
C374 O364 1.260 . S
C374 O368 1.253 . S
C375 O366 1.279 . S
C375 O369 1.250 . S
O376 Mg358 2.030 . S
O376 C370 1.248 . S
O377 Mg360 2.079 . S
O377 C370 1.264 . S
O378 Mg379 1.990 . S
O378 C392 1.253 . S
Mg379 O378 1.990 . S
Mg379 O382 2.180 . S
Mg379 O383 2.117 . S
Mg379 O397 2.030 1_565 S
O380 Mg381 2.072 . S
O380 C392 1.260 1_545 S
Mg381 O380 2.072 . S
Mg381 O382 2.099 1_545 S
Mg381 O384 2.079 . S
Mg381 O385 2.072 1_545 S
Mg381 O387 2.099 . S
Mg381 O398 2.079 . S
O382 Mg379 2.180 . S
O382 Mg381 2.099 1_565 S
O382 C393 1.279 . S
O383 Mg379 2.117 . S
O383 C393 1.250 . S
O384 Mg381 2.079 . S
O384 C394 1.264 . S
O385 Mg381 2.072 1_565 S
O385 C395 1.260 . S
Mg386 O387 2.180 . S
Mg386 O388 2.030 . S
Mg386 O389 1.990 . S
Mg386 O390 2.117 . S
O387 Mg381 2.099 . S
O387 Mg386 2.180 . S
O387 C396 1.279 . S
O388 Mg386 2.030 . S
O388 C394 1.248 . S
O389 Mg386 1.990 . S
O389 C395 1.253 1_545 S
O390 Mg386 2.117 . S
O390 C396 1.250 . S
C391 O397 1.248 . S
C391 O398 1.264 . S
C392 O378 1.253 . S
C392 O380 1.260 1_565 S
C393 O382 1.279 . S
C393 O383 1.250 . S
C394 O384 1.264 . S
C394 O388 1.248 . S
C395 O385 1.260 . S
C395 O389 1.253 1_565 S
C396 O387 1.279 . S
C396 O390 1.250 . S
O397 Mg379 2.030 1_545 S
O397 C391 1.248 . S
O398 Mg381 2.079 . S
O398 C391 1.264 . S
O399 Mg400 1.990 . S
O399 C413 1.253 . S
Mg400 O399 1.990 . S
Mg400 O403 2.180 . S
Mg400 O404 2.117 . S
Mg400 O418 2.030 . S
O401 Mg402 2.072 . S
O401 C413 1.260 . S
Mg402 O401 2.072 . S
Mg402 O403 2.099 . S
Mg402 O405 2.079 . S
Mg402 O406 2.072 . S
Mg402 O408 2.099 . S
Mg402 O419 2.079 . S
O403 Mg400 2.180 . S
O403 Mg402 2.099 . S
O403 C414 1.279 . S
O404 Mg400 2.117 . S
O404 C414 1.250 . S
O405 Mg402 2.079 . S
O405 C415 1.264 . S
O406 Mg402 2.072 . S
O406 C416 1.260 . S
Mg407 O408 2.180 . S
Mg407 O409 2.030 . S
Mg407 O410 1.990 . S
Mg407 O411 2.117 . S
O408 Mg402 2.099 . S
O408 Mg407 2.180 . S
O408 C417 1.279 . S
O409 Mg407 2.030 . S
O409 C415 1.248 . S
O410 Mg407 1.990 . S
O410 C416 1.253 . S
O411 Mg407 2.117 . S
O411 C417 1.250 . S
C412 O418 1.248 . S
C412 O419 1.264 . S
C413 O399 1.253 . S
C413 O401 1.260 . S
C414 O403 1.279 . S
C414 O404 1.250 . S
C415 O405 1.264 . S
C415 O409 1.248 . S
C416 O406 1.260 . S
C416 O410 1.253 . S
C417 O408 1.279 . S
C417 O411 1.250 . S
O418 Mg400 2.030 . S
O418 C412 1.248 . S
O419 Mg402 2.079 . S
O419 C412 1.264 . S
O420 Mg421 1.990 . S
O420 C434 1.253 . S
Mg421 O420 1.990 . S
Mg421 O424 2.180 . S
Mg421 O425 2.117 1_455 S
Mg421 O439 2.030 . S
O422 Mg423 2.072 1_565 S
O422 C434 1.260 . S
Mg423 O422 2.072 1_545 S
Mg423 O424 2.099 1_545 S
Mg423 O426 2.079 . S
Mg423 O427 2.072 1_455 S
Mg423 O429 2.099 . S
Mg423 O440 2.079 1_545 S
O424 Mg421 2.180 . S
O424 Mg423 2.099 1_565 S
O424 C435 1.279 1_455 S
O425 Mg421 2.117 1_655 S
O425 C435 1.250 . S
O426 Mg423 2.079 . S
O426 C436 1.264 . S
O427 Mg423 2.072 1_655 S
O427 C437 1.260 . S
Mg428 O429 2.180 . S
Mg428 O430 2.030 . S
Mg428 O431 1.990 1_455 S
Mg428 O432 2.117 . S
O429 Mg423 2.099 . S
O429 Mg428 2.180 . S
O429 C438 1.279 . S
O430 Mg428 2.030 . S
O430 C436 1.248 . S
O431 Mg428 1.990 1_655 S
O431 C437 1.253 . S
O432 Mg428 2.117 . S
O432 C438 1.250 . S
C433 O439 1.248 . S
C433 O440 1.264 . S
C434 O420 1.253 . S
C434 O422 1.260 . S
C435 O424 1.279 1_655 S
C435 O425 1.250 . S
C436 O426 1.264 . S
C436 O430 1.248 . S
C437 O427 1.260 . S
C437 O431 1.253 . S
C438 O429 1.279 . S
C438 O432 1.250 . S
O439 Mg421 2.030 . S
O439 C433 1.248 . S
O440 Mg423 2.079 1_565 S
O440 C433 1.264 . S
O441 Mg442 1.990 . S
O441 C455 1.253 . S
Mg442 O441 1.990 . S
Mg442 O445 2.180 . S
Mg442 O446 2.117 . S
Mg442 O460 2.030 . S
O443 Mg444 2.072 . S
O443 C455 1.260 . S
Mg444 O443 2.072 . S
Mg444 O445 2.099 . S
Mg444 O447 2.079 . S
Mg444 O448 2.072 . S
Mg444 O450 2.099 . S
Mg444 O461 2.079 . S
O445 Mg442 2.180 . S
O445 Mg444 2.099 . S
O445 C456 1.279 . S
O446 Mg442 2.117 . S
O446 C456 1.250 . S
O447 Mg444 2.079 . S
O447 C457 1.264 . S
O448 Mg444 2.072 . S
O448 C458 1.260 . S
Mg449 O450 2.180 . S
Mg449 O451 2.030 . S
Mg449 O452 1.990 . S
Mg449 O453 2.117 . S
O450 Mg444 2.099 . S
O450 Mg449 2.180 . S
O450 C459 1.279 . S
O451 Mg449 2.030 . S
O451 C457 1.248 . S
O452 Mg449 1.990 . S
O452 C458 1.253 . S
O453 Mg449 2.117 . S
O453 C459 1.250 . S
C454 O460 1.248 . S
C454 O461 1.264 . S
C455 O441 1.253 . S
C455 O443 1.260 . S
C456 O445 1.279 . S
C456 O446 1.250 . S
C457 O447 1.264 . S
C457 O451 1.248 . S
C458 O448 1.260 . S
C458 O452 1.253 . S
C459 O450 1.279 . S
C459 O453 1.250 . S
O460 Mg442 2.030 . S
O460 C454 1.248 . S
O461 Mg444 2.079 . S
O461 C454 1.264 . S
O462 Mg463 1.990 . S
O462 C476 1.253 . S
Mg463 O462 1.990 . S
Mg463 O466 2.180 1_565 S
Mg463 O467 2.117 1_565 S
Mg463 O481 2.030 1_565 S
O464 Mg465 2.072 1_565 S
O464 C476 1.260 . S
Mg465 O464 2.072 1_545 S
Mg465 O466 2.099 . S
Mg465 O468 2.079 1_554 S
Mg465 O469 2.074 1_554 S
Mg465 O471 2.103 1_554 S
Mg465 O482 2.079 . S
O466 Mg463 2.180 1_545 S
O466 Mg465 2.099 . S
O466 C477 1.279 . S
O467 Mg463 2.117 1_545 S
O467 C477 1.250 . S
O468 Mg465 2.079 1_556 S
O468 C478 1.264 . S
O469 Mg465 2.074 1_556 S
O469 C479 1.259 1_545 S
Mg470 O471 2.186 . S
Mg470 O472 2.030 . S
Mg470 O473 1.990 1_545 S
Mg470 O474 2.117 1_545 S
O471 Mg465 2.103 1_556 S
O471 Mg470 2.186 . S
O471 C480 1.265 1_545 S
O472 Mg470 2.030 . S
O472 C478 1.248 . S
O473 Mg470 1.990 1_565 S
O473 C479 1.253 . S
O474 Mg470 2.117 1_565 S
O474 C480 1.250 . S
C475 O481 1.248 . S
C475 O482 1.264 . S
C476 O462 1.253 . S
C476 O464 1.260 . S
C477 O466 1.279 . S
C477 O467 1.250 . S
C478 O468 1.264 . S
C478 O472 1.248 . S
C479 O469 1.259 1_565 S
C479 O473 1.253 . S
C480 O471 1.265 1_565 S
C480 O474 1.250 . S
O481 Mg463 2.030 1_545 S
O481 C475 1.248 . S
O482 Mg465 2.079 . S
O482 C475 1.264 . S
O483 Mg484 1.990 . S
O483 C497 1.253 . S
Mg484 O483 1.990 . S
Mg484 O487 2.180 . S
Mg484 O488 2.117 . S
Mg484 O502 2.030 . S
O485 Mg486 2.072 . S
O485 C497 1.260 . S
Mg486 O485 2.072 . S
Mg486 O487 2.099 . S
Mg486 O489 2.079 . S
Mg486 O490 2.072 . S
Mg486 O492 2.099 . S
Mg486 O503 2.079 . S
O487 Mg484 2.180 . S
O487 Mg486 2.099 . S
O487 C498 1.279 . S
O488 Mg484 2.117 . S
O488 C498 1.250 . S
O489 Mg486 2.079 . S
O489 C499 1.264 . S
O490 Mg486 2.072 . S
O490 C500 1.260 . S
Mg491 O492 2.180 . S
Mg491 O493 2.030 . S
Mg491 O494 1.990 . S
Mg491 O495 2.117 . S
O492 Mg486 2.099 . S
O492 Mg491 2.180 . S
O492 C501 1.279 . S
O493 Mg491 2.030 . S
O493 C499 1.248 . S
O494 Mg491 1.990 . S
O494 C500 1.253 . S
O495 Mg491 2.117 . S
O495 C501 1.250 . S
C496 O502 1.248 . S
C496 O503 1.264 . S
C497 O483 1.253 . S
C497 O485 1.260 . S
C498 O487 1.279 . S
C498 O488 1.250 . S
C499 O489 1.264 . S
C499 O493 1.248 . S
C500 O490 1.260 . S
C500 O494 1.253 . S
C501 O492 1.279 . S
C501 O495 1.250 . S
O502 Mg484 2.030 . S
O502 C496 1.248 . S
O503 Mg486 2.079 . S
O503 C496 1.264 . S
O504 Mg505 1.990 . S
O504 C518 1.253 . S
Mg505 O504 1.990 . S
Mg505 O508 2.180 . S
Mg505 O509 2.117 . S
Mg505 O523 2.030 1_556 S
O506 Mg507 2.072 . S
O506 C518 1.260 1_554 S
Mg507 O506 2.072 . S
Mg507 O508 2.099 1_554 S
Mg507 O510 2.079 . S
Mg507 O511 2.072 1_554 S
Mg507 O513 2.099 . S
Mg507 O524 2.079 . S
O508 Mg505 2.180 . S
O508 Mg507 2.099 1_556 S
O508 C519 1.279 . S
O509 Mg505 2.117 . S
O509 C519 1.250 . S
O510 Mg507 2.079 . S
O510 C520 1.264 . S
O511 Mg507 2.072 1_556 S
O511 C521 1.260 . S
Mg512 O513 2.180 . S
Mg512 O514 2.030 . S
Mg512 O515 1.990 . S
Mg512 O516 2.117 . S
O513 Mg507 2.099 . S
O513 Mg512 2.180 . S
O513 C522 1.279 . S
O514 Mg512 2.030 . S
O514 C520 1.248 . S
O515 Mg512 1.990 . S
O515 C521 1.253 1_554 S
O516 Mg512 2.117 . S
O516 C522 1.250 . S
C517 O523 1.248 . S
C517 O524 1.264 . S
C518 O504 1.253 . S
C518 O506 1.260 1_556 S
C519 O508 1.279 . S
C519 O509 1.250 . S
C520 O510 1.264 . S
C520 O514 1.248 . S
C521 O511 1.260 . S
C521 O515 1.253 1_556 S
C522 O513 1.279 . S
C522 O516 1.250 . S
O523 Mg505 2.030 1_554 S
O523 C517 1.248 . S
O524 Mg507 2.079 . S
O524 C517 1.264 . S
O525 Mg526 1.990 . S
O525 C539 1.253 . S
Mg526 O525 1.990 . S
Mg526 O529 2.180 . S
Mg526 O530 2.117 . S
Mg526 O544 2.030 . S
O527 Mg528 2.072 . S
O527 C539 1.260 . S
Mg528 O527 2.072 . S
Mg528 O529 2.099 . S
Mg528 O531 2.079 . S
Mg528 O532 2.072 . S
Mg528 O534 2.099 . S
Mg528 O545 2.079 . S
O529 Mg526 2.180 . S
O529 Mg528 2.099 . S
O529 C540 1.279 . S
O530 Mg526 2.117 . S
O530 C540 1.250 . S
O531 Mg528 2.079 . S
O531 C541 1.264 . S
O532 Mg528 2.072 . S
O532 C542 1.260 . S
Mg533 O534 2.180 . S
Mg533 O535 2.030 . S
Mg533 O536 1.990 . S
Mg533 O537 2.117 . S
O534 Mg528 2.099 . S
O534 Mg533 2.180 . S
O534 C543 1.279 . S
O535 Mg533 2.030 . S
O535 C541 1.248 . S
O536 Mg533 1.990 . S
O536 C542 1.253 . S
O537 Mg533 2.117 . S
O537 C543 1.250 . S
C538 O544 1.248 . S
C538 O545 1.264 . S
C539 O525 1.253 . S
C539 O527 1.260 . S
C540 O529 1.279 . S
C540 O530 1.250 . S
C541 O531 1.264 . S
C541 O535 1.248 . S
C542 O532 1.260 . S
C542 O536 1.253 . S
C543 O534 1.279 . S
C543 O537 1.250 . S
O544 Mg526 2.030 . S
O544 C538 1.248 . S
O545 Mg528 2.079 . S
O545 C538 1.264 . S
O546 Mg547 1.990 . S
O546 C560 1.253 . S
Mg547 O546 1.990 . S
Mg547 O550 2.180 . S
Mg547 O551 2.117 . S
Mg547 O565 2.063 . S
O548 Mg549 2.072 . S
O548 C560 1.260 1_455 S
Mg549 O548 2.072 . S
Mg549 O550 2.099 1_455 S
Mg549 O552 2.079 . S
Mg549 O553 2.072 1_455 S
Mg549 O555 2.099 . S
Mg549 O566 2.079 . S
O550 Mg547 2.180 . S
O550 Mg549 2.099 1_655 S
O550 C561 1.279 . S
O551 Mg547 2.117 . S
O551 C561 1.250 . S
O552 Mg549 2.079 . S
O552 C562 1.264 . S
O553 Mg549 2.072 1_655 S
O553 C563 1.260 . S
Mg554 O555 2.180 . S
Mg554 O556 2.030 . S
Mg554 O557 1.990 . S
Mg554 O558 2.117 . S
O555 Mg549 2.099 . S
O555 Mg554 2.180 . S
O555 C564 1.279 . S
O556 Mg554 2.030 . S
O556 C562 1.248 . S
O557 Mg554 1.990 . S
O557 C563 1.253 1_455 S
O558 Mg554 2.117 . S
O558 C564 1.250 . S
C559 O565 1.220 1_455 S
C559 O566 1.264 . S
C560 O546 1.253 . S
C560 O548 1.260 1_655 S
C561 O550 1.279 . S
C561 O551 1.250 . S
C562 O552 1.264 . S
C562 O556 1.248 . S
C563 O553 1.260 . S
C563 O557 1.253 1_655 S
C564 O555 1.279 . S
C564 O558 1.250 . S
O565 Mg547 2.063 . S
O565 C559 1.220 1_655 S
O566 Mg549 2.079 . S
O566 C559 1.264 . S
O567 Mg568 1.990 . S
O567 C581 1.253 . S
Mg568 O567 1.990 . S
Mg568 O571 2.180 . S
Mg568 O572 2.117 . S
Mg568 O586 2.030 . S
O569 Mg570 2.072 . S
O569 C581 1.260 . S
Mg570 O569 2.072 . S
Mg570 O571 2.099 . S
Mg570 O573 2.079 . S
Mg570 O574 2.072 . S
Mg570 O576 2.099 . S
Mg570 O587 2.079 . S
O571 Mg568 2.180 . S
O571 Mg570 2.099 . S
O571 C582 1.279 . S
O572 Mg568 2.117 . S
O572 C582 1.250 . S
O573 Mg570 2.079 . S
O573 C583 1.264 . S
O574 Mg570 2.072 . S
O574 C584 1.260 . S
Mg575 O576 2.180 . S
Mg575 O577 2.030 . S
Mg575 O578 1.990 . S
Mg575 O579 2.117 . S
O576 Mg570 2.099 . S
O576 Mg575 2.180 . S
O576 C585 1.279 . S
O577 Mg575 2.030 . S
O577 C583 1.248 . S
O578 Mg575 1.990 . S
O578 C584 1.253 . S
O579 Mg575 2.117 . S
O579 C585 1.250 . S
C580 O586 1.248 . S
C580 O587 1.264 . S
C581 O567 1.253 . S
C581 O569 1.260 . S
C582 O571 1.279 . S
C582 O572 1.250 . S
C583 O573 1.264 . S
C583 O577 1.248 . S
C584 O574 1.260 . S
C584 O578 1.253 . S
C585 O576 1.279 . S
C585 O579 1.250 . S
O586 Mg568 2.030 . S
O586 C580 1.248 . S
O587 Mg570 2.079 . S
O587 C580 1.264 . S
O588 Mg589 1.990 . S
O588 C602 1.253 . S
Mg589 O588 1.990 . S
Mg589 O592 2.180 . S
Mg589 O593 2.117 . S
Mg589 O607 2.030 . S
O590 Mg591 2.072 . S
O590 C602 1.260 . S
Mg591 O590 2.072 . S
Mg591 O592 2.099 . S
Mg591 O594 2.079 . S
Mg591 O595 2.072 . S
Mg591 O597 2.099 . S
Mg591 O608 2.079 . S
O592 Mg589 2.180 . S
O592 Mg591 2.099 . S
O592 C603 1.279 . S
O593 Mg589 2.117 . S
O593 C603 1.250 . S
O594 Mg591 2.079 . S
O594 C604 1.264 . S
O595 Mg591 2.072 . S
O595 C605 1.260 . S
Mg596 O597 2.180 . S
Mg596 O598 2.030 . S
Mg596 O599 1.990 . S
Mg596 O600 2.117 . S
O597 Mg591 2.099 . S
O597 Mg596 2.180 . S
O597 C606 1.279 . S
O598 Mg596 2.030 . S
O598 C604 1.248 . S
O599 Mg596 1.990 . S
O599 C605 1.253 . S
O600 Mg596 2.117 . S
O600 C606 1.250 . S
C601 O607 1.248 . S
C601 O608 1.264 . S
C602 O588 1.253 . S
C602 O590 1.260 . S
C603 O592 1.279 . S
C603 O593 1.250 . S
C604 O594 1.264 . S
C604 O598 1.248 . S
C605 O595 1.260 . S
C605 O599 1.253 . S
C606 O597 1.279 . S
C606 O600 1.250 . S
O607 Mg589 2.030 . S
O607 C601 1.248 . S
O608 Mg591 2.079 . S
O608 C601 1.264 . S
O609 Mg610 1.990 . S
O609 C623 1.253 . S
Mg610 O609 1.990 . S
Mg610 O613 2.180 . S
Mg610 O614 2.117 . S
Mg610 O628 2.030 . S
O611 Mg612 2.072 . S
O611 C623 1.260 . S
Mg612 O611 2.072 . S
Mg612 O613 2.099 . S
Mg612 O615 2.079 . S
Mg612 O616 2.072 . S
Mg612 O618 2.099 . S
Mg612 O629 2.079 . S
O613 Mg610 2.180 . S
O613 Mg612 2.099 . S
O613 C624 1.279 . S
O614 Mg610 2.117 . S
O614 C624 1.250 . S
O615 Mg612 2.079 . S
O615 C625 1.264 . S
O616 Mg612 2.072 . S
O616 C626 1.260 . S
Mg617 O618 2.180 . S
Mg617 O619 2.030 . S
Mg617 O620 1.990 . S
Mg617 O621 2.117 . S
O618 Mg612 2.099 . S
O618 Mg617 2.180 . S
O618 C627 1.279 . S
O619 Mg617 2.030 . S
O619 C625 1.248 . S
O620 Mg617 1.990 . S
O620 C626 1.253 . S
O621 Mg617 2.117 . S
O621 C627 1.250 . S
C622 O628 1.248 . S
C622 O629 1.264 . S
C623 O609 1.253 . S
C623 O611 1.260 . S
C624 O613 1.279 . S
C624 O614 1.250 . S
C625 O615 1.264 . S
C625 O619 1.248 . S
C626 O616 1.260 . S
C626 O620 1.253 . S
C627 O618 1.279 . S
C627 O621 1.250 . S
O628 Mg610 2.030 . S
O628 C622 1.248 . S
O629 Mg612 2.079 . S
O629 C622 1.264 . S
O630 Mg631 1.990 . S
O630 C644 1.253 . S
Mg631 O630 1.990 . S
Mg631 O634 2.180 . S
Mg631 O635 2.117 . S
Mg631 O649 2.030 . S
O632 Mg633 2.072 . S
O632 C644 1.260 . S
Mg633 O632 2.072 . S
Mg633 O634 2.099 . S
Mg633 O636 2.079 . S
Mg633 O637 2.072 . S
Mg633 O639 2.099 . S
Mg633 O650 2.079 . S
O634 Mg631 2.180 . S
O634 Mg633 2.099 . S
O634 C645 1.279 . S
O635 Mg631 2.117 . S
O635 C645 1.250 . S
O636 Mg633 2.079 . S
O636 C646 1.264 . S
O637 Mg633 2.072 . S
O637 C647 1.260 . S
Mg638 O639 2.180 . S
Mg638 O640 2.030 . S
Mg638 O641 1.990 . S
Mg638 O642 2.117 . S
O639 Mg633 2.099 . S
O639 Mg638 2.180 . S
O639 C648 1.279 . S
O640 Mg638 2.030 . S
O640 C646 1.248 . S
O641 Mg638 1.990 . S
O641 C647 1.253 . S
O642 Mg638 2.117 . S
O642 C648 1.250 . S
C643 O649 1.248 . S
C643 O650 1.264 . S
C644 O630 1.253 . S
C644 O632 1.260 . S
C645 O634 1.279 . S
C645 O635 1.250 . S
C646 O636 1.264 . S
C646 O640 1.248 . S
C647 O637 1.260 . S
C647 O641 1.253 . S
C648 O639 1.279 . S
C648 O642 1.250 . S
O649 Mg631 2.030 . S
O649 C643 1.248 . S
O650 Mg633 2.079 . S
O650 C643 1.264 . S
O651 Mg652 1.990 . S
O651 C665 1.253 . S
Mg652 O651 1.990 . S
Mg652 O655 2.180 1_556 S
Mg652 O656 2.117 1_556 S
Mg652 O670 2.030 . S
O653 Mg654 2.072 1_556 S
O653 C665 1.260 . S
Mg654 O653 2.072 1_554 S
Mg654 O655 2.099 . S
Mg654 O657 2.069 1_455 S
Mg654 O658 2.066 1_454 S
Mg654 O660 2.091 1_454 S
Mg654 O671 2.079 . S
O655 Mg652 2.180 1_554 S
O655 Mg654 2.099 . S
O655 C666 1.279 . S
O656 Mg652 2.117 1_554 S
O656 C666 1.250 . S
O657 Mg654 2.069 1_655 S
O657 C667 1.295 . S
O658 Mg654 2.066 1_656 S
O658 C668 1.266 . S
Mg659 O660 2.168 1_554 S
Mg659 O661 2.030 . S
Mg659 O662 1.990 1_554 S
Mg659 O663 2.117 1_554 S
O660 Mg654 2.091 1_656 S
O660 Mg659 2.168 1_556 S
O660 C669 1.307 . S
O661 Mg659 2.030 . S
O661 C667 1.248 . S
O662 Mg659 1.990 1_556 S
O662 C668 1.253 . S
O663 Mg659 2.117 1_556 S
O663 C669 1.250 . S
C664 O670 1.248 1_554 S
C664 O671 1.264 . S
C665 O651 1.253 . S
C665 O653 1.260 . S
C666 O655 1.279 . S
C666 O656 1.250 . S
C667 O657 1.295 . S
C667 O661 1.248 . S
C668 O658 1.266 . S
C668 O662 1.253 . S
C669 O660 1.307 . S
C669 O663 1.250 . S
O670 Mg652 2.030 . S
O670 C664 1.248 1_556 S
O671 Mg654 2.079 . S
O671 C664 1.264 . S
H672 C680 0.950 . S
H673 C685 0.950 . S
H674 C682 0.950 . S
H675 C684 0.950 . S
H676 C686 0.950 . S
H677 C688 0.950 . S
H678 C690 0.950 . S
H679 C691 0.950 . S
C680 H672 0.950 . S
C680 C681 1.386 . S
C680 C682 1.391 . S
C681 C680 1.386 . S
C681 C685 1.393 1_455 S
C682 H674 0.950 . S
C682 C680 1.391 . S
C682 C683 1.400 . S
C683 C682 1.400 . S
C683 C684 1.398 1_455 S
C683 C689 1.491 . S
C684 H675 0.950 . S
C684 C683 1.398 1_655 S
C684 C685 1.391 . S
C685 H673 0.950 . S
C685 C681 1.393 1_655 S
C685 C684 1.391 . S
C686 H676 0.950 . S
C686 C687 1.386 . S
C686 C688 1.391 . S
C687 C686 1.386 . S
C687 C691 1.393 1_655 S
C688 H677 0.950 . S
C688 C686 1.391 . S
C688 C689 1.400 1_655 S
C689 C683 1.491 . S
C689 C688 1.400 1_455 S
C689 C690 1.398 . S
C690 H678 0.950 . S
C690 C689 1.398 . S
C690 C691 1.391 . S
C691 H679 0.950 . S
C691 C687 1.393 1_455 S
C691 C690 1.391 . S
H692 C700 0.950 . S
H693 C705 0.950 . S
H694 C702 0.950 . S
H695 C704 0.950 . S
H696 C706 0.950 . S
H697 C708 0.950 . S
H698 C710 0.950 . S
H699 C711 0.950 . S
C700 H692 0.950 . S
C700 C701 1.386 . S
C700 C702 1.391 . S
C701 C700 1.386 . S
C701 C705 1.393 . S
C702 H694 0.950 . S
C702 C700 1.391 . S
C702 C703 1.400 . S
C703 C702 1.400 . S
C703 C704 1.398 . S
C703 C709 1.491 . S
C704 H695 0.950 . S
C704 C703 1.398 . S
C704 C705 1.391 . S
C705 H693 0.950 . S
C705 C701 1.393 . S
C705 C704 1.391 . S
C706 H696 0.950 . S
C706 C707 1.386 . S
C706 C708 1.391 . S
C707 C706 1.386 . S
C707 C711 1.393 . S
C708 H697 0.950 . S
C708 C706 1.391 . S
C708 C709 1.400 . S
C709 C703 1.491 . S
C709 C708 1.400 . S
C709 C710 1.398 . S
C710 H698 0.950 . S
C710 C709 1.398 . S
C710 C711 1.391 . S
C711 H699 0.950 . S
C711 C707 1.393 . S
C711 C710 1.391 . S
H712 C720 0.950 . S
H713 C725 0.950 . S
H714 C722 0.950 . S
H715 C724 0.950 . S
H716 C726 0.950 . S
H717 C728 0.950 . S
H718 C730 0.950 . S
H719 C731 0.950 . S
C720 H712 0.950 . S
C720 C721 1.386 . S
C720 C722 1.391 . S
C721 C720 1.386 . S
C721 C725 1.393 . S
C722 H714 0.950 . S
C722 C720 1.391 . S
C722 C723 1.400 . S
C723 C722 1.400 . S
C723 C724 1.398 . S
C723 C729 1.491 . S
C724 H715 0.950 . S
C724 C723 1.398 . S
C724 C725 1.391 . S
C725 H713 0.950 . S
C725 C721 1.393 . S
C725 C724 1.391 . S
C726 H716 0.950 . S
C726 C727 1.386 . S
C726 C728 1.391 . S
C727 C726 1.386 . S
C727 C731 1.393 . S
C728 H717 0.950 . S
C728 C726 1.391 . S
C728 C729 1.400 . S
C729 C723 1.491 . S
C729 C728 1.400 . S
C729 C730 1.398 . S
C730 H718 0.950 . S
C730 C729 1.398 . S
C730 C731 1.391 . S
C731 H719 0.950 . S
C731 C727 1.393 . S
C731 C730 1.391 . S
H732 C740 0.950 . S
H733 C745 0.950 . S
H734 C742 0.950 . S
H735 C744 0.950 . S
H736 C746 0.950 . S
H737 C748 0.950 . S
H738 C750 0.950 . S
H739 C751 0.950 . S
C740 H732 0.950 . S
C740 C741 1.386 . S
C740 C742 1.391 . S
C741 C740 1.386 . S
C741 C745 1.393 . S
C742 H734 0.950 . S
C742 C740 1.391 . S
C742 C743 1.400 . S
C743 C742 1.400 . S
C743 C744 1.398 . S
C743 C749 1.491 . S
C744 H735 0.950 . S
C744 C743 1.398 . S
C744 C745 1.391 . S
C745 H733 0.950 . S
C745 C741 1.393 . S
C745 C744 1.391 . S
C746 H736 0.950 . S
C746 C747 1.386 . S
C746 C748 1.391 . S
C747 C746 1.386 . S
C747 C751 1.393 . S
C748 H737 0.950 . S
C748 C746 1.391 . S
C748 C749 1.400 . S
C749 C743 1.491 . S
C749 C748 1.400 . S
C749 C750 1.398 . S
C750 H738 0.950 . S
C750 C749 1.398 . S
C750 C751 1.391 . S
C751 H739 0.950 . S
C751 C747 1.393 . S
C751 C750 1.391 . S
H752 C760 0.950 . S
H753 C765 0.950 . S
H754 C762 0.950 . S
H755 C764 0.950 . S
H756 C766 0.950 . S
H757 C768 0.950 . S
H758 C770 0.950 . S
H759 C771 0.950 . S
C760 H752 0.950 . S
C760 C761 1.386 . S
C760 C762 1.391 . S
C761 C760 1.386 . S
C761 C765 1.393 1_455 S
C762 H754 0.950 . S
C762 C760 1.391 . S
C762 C763 1.400 . S
C763 C762 1.400 . S
C763 C764 1.398 1_455 S
C763 C769 1.491 . S
C764 H755 0.950 . S
C764 C763 1.398 1_655 S
C764 C765 1.391 . S
C765 H753 0.950 . S
C765 C761 1.393 1_655 S
C765 C764 1.391 . S
C766 H756 0.950 . S
C766 C767 1.386 1_655 S
C766 C768 1.391 . S
C767 C766 1.386 1_455 S
C767 C771 1.393 . S
C768 H757 0.950 . S
C768 C766 1.391 . S
C768 C769 1.400 1_655 S
C769 C763 1.491 . S
C769 C768 1.400 1_455 S
C769 C770 1.398 . S
C770 H758 0.950 . S
C770 C769 1.398 . S
C770 C771 1.391 . S
C771 H759 0.950 . S
C771 C767 1.393 . S
C771 C770 1.391 . S
H772 C780 0.950 . S
H773 C785 0.950 . S
H774 C782 0.950 . S
H775 C784 0.950 . S
H776 C786 0.950 . S
H777 C788 0.950 . S
H778 C790 0.950 . S
H779 C791 0.950 . S
C780 H772 0.950 . S
C780 C781 1.386 . S
C780 C782 1.391 . S
C781 C780 1.386 . S
C781 C785 1.393 . S
C782 H774 0.950 . S
C782 C780 1.391 . S
C782 C783 1.400 . S
C783 C782 1.400 . S
C783 C784 1.398 . S
C783 C789 1.491 . S
C784 H775 0.950 . S
C784 C783 1.398 . S
C784 C785 1.391 . S
C785 H773 0.950 . S
C785 C781 1.393 . S
C785 C784 1.391 . S
C786 H776 0.950 . S
C786 C787 1.386 . S
C786 C788 1.391 . S
C787 C786 1.386 . S
C787 C791 1.393 . S
C788 H777 0.950 . S
C788 C786 1.391 . S
C788 C789 1.400 . S
C789 C783 1.491 . S
C789 C788 1.400 . S
C789 C790 1.398 . S
C790 H778 0.950 . S
C790 C789 1.398 . S
C790 C791 1.391 . S
C791 H779 0.950 . S
C791 C787 1.393 . S
C791 C790 1.391 . S
H792 C800 0.950 . S
H793 C805 0.950 . S
H794 C802 0.950 . S
H795 C804 0.950 . S
H796 C806 0.950 . S
H797 C808 0.950 . S
H798 C810 0.950 . S
H799 C811 0.950 . S
C800 H792 0.950 . S
C800 C801 1.386 . S
C800 C802 1.391 . S
C801 C800 1.386 . S
C801 C805 1.393 . S
C802 H794 0.950 . S
C802 C800 1.391 . S
C802 C803 1.400 . S
C803 C802 1.400 . S
C803 C804 1.398 . S
C803 C809 1.491 . S
C804 H795 0.950 . S
C804 C803 1.398 . S
C804 C805 1.391 . S
C805 H793 0.950 . S
C805 C801 1.393 . S
C805 C804 1.391 . S
C806 H796 0.950 . S
C806 C807 1.386 . S
C806 C808 1.391 . S
C807 C806 1.386 . S
C807 C811 1.393 . S
C808 H797 0.950 . S
C808 C806 1.391 . S
C808 C809 1.400 . S
C809 C803 1.491 . S
C809 C808 1.400 . S
C809 C810 1.398 . S
C810 H798 0.950 . S
C810 C809 1.398 . S
C810 C811 1.391 . S
C811 H799 0.950 . S
C811 C807 1.393 . S
C811 C810 1.391 . S
H812 C820 0.950 . S
H813 C825 0.950 . S
H814 C822 0.950 . S
H815 C824 0.950 . S
H816 C826 0.950 . S
H817 C828 0.950 . S
H818 C830 0.950 . S
H819 C831 0.950 . S
C820 H812 0.950 . S
C820 C821 1.386 . S
C820 C822 1.391 . S
C821 C820 1.386 . S
C821 C825 1.393 . S
C822 H814 0.950 . S
C822 C820 1.391 . S
C822 C823 1.400 . S
C823 C822 1.400 . S
C823 C824 1.398 . S
C823 C829 1.491 . S
C824 H815 0.950 . S
C824 C823 1.398 . S
C824 C825 1.391 . S
C825 H813 0.950 . S
C825 C821 1.393 . S
C825 C824 1.391 . S
C826 H816 0.950 . S
C826 C827 1.386 . S
C826 C828 1.391 . S
C827 C826 1.386 . S
C827 C831 1.393 . S
C828 H817 0.950 . S
C828 C826 1.391 . S
C828 C829 1.400 . S
C829 C823 1.491 . S
C829 C828 1.400 . S
C829 C830 1.398 . S
C830 H818 0.950 . S
C830 C829 1.398 . S
C830 C831 1.391 . S
C831 H819 0.950 . S
C831 C827 1.393 . S
C831 C830 1.391 . S
H832 C840 0.950 . S
H833 C845 0.950 . S
H834 C842 0.950 . S
H835 C844 0.955 . S
H836 C846 0.950 . S
H837 C848 0.950 . S
H838 C850 0.950 . S
H839 C851 0.951 . S
C840 H832 0.950 . S
C840 C841 1.386 . S
C840 C842 1.391 . S
C841 C840 1.386 . S
C841 C845 1.393 . S
C842 H834 0.950 . S
C842 C840 1.391 . S
C842 C843 1.404 . S
C843 C842 1.404 . S
C843 C844 1.394 1_545 S
C843 C849 1.492 1_545 S
C844 H835 0.955 . S
C844 C843 1.394 1_565 S
C844 C845 1.390 1_565 S
C845 H833 0.950 . S
C845 C841 1.393 . S
C845 C844 1.390 1_545 S
C846 H836 0.950 . S
C846 C847 1.386 . S
C846 C848 1.391 . S
C847 C846 1.386 . S
C847 C851 1.393 . S
C848 H837 0.950 . S
C848 C846 1.391 . S
C848 C849 1.402 . S
C849 C843 1.492 1_565 S
C849 C848 1.402 . S
C849 C850 1.397 1_565 S
C850 H838 0.950 . S
C850 C849 1.397 1_545 S
C850 C851 1.391 1_545 S
C851 H839 0.951 . S
C851 C847 1.393 . S
C851 C850 1.391 1_565 S
H852 C860 0.950 . S
H853 C865 0.950 . S
H854 C862 0.950 . S
H855 C864 0.950 . S
H856 C866 0.950 . S
H857 C868 0.950 . S
H858 C870 0.950 . S
H859 C871 0.950 . S
C860 H852 0.950 . S
C860 C861 1.386 . S
C860 C862 1.391 . S
C861 C860 1.386 . S
C861 C865 1.393 . S
C862 H854 0.950 . S
C862 C860 1.391 . S
C862 C863 1.400 . S
C863 C862 1.400 . S
C863 C864 1.398 . S
C863 C869 1.491 . S
C864 H855 0.950 . S
C864 C863 1.398 . S
C864 C865 1.391 . S
C865 H853 0.950 . S
C865 C861 1.393 . S
C865 C864 1.391 . S
C866 H856 0.950 . S
C866 C867 1.386 . S
C866 C868 1.391 . S
C867 C866 1.386 . S
C867 C871 1.393 . S
C868 H857 0.950 . S
C868 C866 1.391 . S
C868 C869 1.400 . S
C869 C863 1.491 . S
C869 C868 1.400 . S
C869 C870 1.398 . S
C870 H858 0.950 . S
C870 C869 1.398 . S
C870 C871 1.391 . S
C871 H859 0.950 . S
C871 C867 1.393 . S
C871 C870 1.391 . S
H872 C880 0.950 . S
H873 C885 0.950 . S
H874 C882 0.950 . S
H875 C884 0.950 . S
H876 C886 0.950 . S
H877 C888 0.950 . S
H878 C890 0.970 . S
H879 C891 0.950 1_565 S
C880 H872 0.950 . S
C880 C881 1.386 1_565 S
C880 C882 1.391 . S
C881 C880 1.386 1_545 S
C881 C885 1.393 . S
C882 H874 0.950 . S
C882 C880 1.391 . S
C882 C883 1.400 1_565 S
C883 C882 1.400 1_545 S
C883 C884 1.398 . S
C883 C889 1.491 . S
C884 H875 0.950 . S
C884 C883 1.398 . S
C884 C885 1.391 . S
C885 H873 0.950 . S
C885 C881 1.393 . S
C885 C884 1.391 . S
C886 H876 0.950 . S
C886 C887 1.386 . S
C886 C888 1.391 . S
C887 C886 1.386 . S
C887 C891 1.393 . S
C888 H877 0.950 . S
C888 C886 1.391 . S
C888 C889 1.400 . S
C889 C883 1.491 . S
C889 C888 1.400 . S
C889 C890 1.385 1_545 S
C890 H878 0.970 . S
C890 C889 1.385 1_565 S
C890 C891 1.386 1_565 S
C891 H879 0.950 1_545 S
C891 C887 1.393 . S
C891 C890 1.386 1_545 S
H892 C900 0.950 . S
H893 C905 0.950 . S
H894 C902 0.950 . S
H895 C904 0.950 . S
H896 C906 0.950 . S
H897 C908 0.950 . S
H898 C910 0.950 . S
H899 C911 0.950 . S
C900 H892 0.950 . S
C900 C901 1.386 . S
C900 C902 1.391 . S
C901 C900 1.386 . S
C901 C905 1.393 . S
C902 H894 0.950 . S
C902 C900 1.391 . S
C902 C903 1.400 . S
C903 C902 1.400 . S
C903 C904 1.398 . S
C903 C909 1.491 . S
C904 H895 0.950 . S
C904 C903 1.398 . S
C904 C905 1.391 . S
C905 H893 0.950 . S
C905 C901 1.393 . S
C905 C904 1.391 . S
C906 H896 0.950 . S
C906 C907 1.386 . S
C906 C908 1.391 . S
C907 C906 1.386 . S
C907 C911 1.393 . S
C908 H897 0.950 . S
C908 C906 1.391 . S
C908 C909 1.400 . S
C909 C903 1.491 . S
C909 C908 1.400 . S
C909 C910 1.398 . S
C910 H898 0.950 . S
C910 C909 1.398 . S
C910 C911 1.391 . S
C911 H899 0.950 . S
C911 C907 1.393 . S
C911 C910 1.391 . S
H912 C920 0.950 1_565 S
H913 C925 0.950 . S
H914 C922 0.950 . S
H915 C924 0.950 . S
H916 C926 0.950 . S
H917 C928 0.950 . S
H918 C930 0.950 . S
H919 C931 0.950 . S
C920 H912 0.950 1_545 S
C920 C921 1.386 . S
C920 C922 1.391 . S
C921 C920 1.386 . S
C921 C925 1.393 . S
C922 H914 0.950 . S
C922 C920 1.391 . S
C922 C923 1.400 . S
C923 C922 1.400 . S
C923 C924 1.398 . S
C923 C929 1.491 . S
C924 H915 0.950 . S
C924 C923 1.398 . S
C924 C925 1.391 . S
C925 H913 0.950 . S
C925 C921 1.393 . S
C925 C924 1.391 . S
C926 H916 0.950 . S
C926 C927 1.386 . S
C926 C928 1.391 . S
C927 C926 1.386 . S
C927 C931 1.393 . S
C928 H917 0.950 . S
C928 C926 1.391 . S
C928 C929 1.400 . S
C929 C923 1.491 . S
C929 C928 1.400 . S
C929 C930 1.398 . S
C930 H918 0.950 . S
C930 C929 1.398 . S
C930 C931 1.391 . S
C931 H919 0.950 . S
C931 C927 1.393 . S
C931 C930 1.391 . S
H932 C940 0.950 . S
H933 C945 0.950 . S
H934 C942 0.950 . S
H935 C944 0.950 . S
H936 C946 0.950 . S
H937 C948 0.950 . S
H938 C950 0.950 . S
H939 C951 0.950 . S
C940 H932 0.950 . S
C940 C941 1.386 . S
C940 C942 1.391 . S
C941 C940 1.386 . S
C941 C945 1.393 . S
C942 H934 0.950 . S
C942 C940 1.391 . S
C942 C943 1.400 . S
C943 C942 1.400 . S
C943 C944 1.398 . S
C943 C949 1.491 . S
C944 H935 0.950 . S
C944 C943 1.398 . S
C944 C945 1.391 . S
C945 H933 0.950 . S
C945 C941 1.393 . S
C945 C944 1.391 . S
C946 H936 0.950 . S
C946 C947 1.386 . S
C946 C948 1.391 . S
C947 C946 1.386 . S
C947 C951 1.393 . S
C948 H937 0.950 . S
C948 C946 1.391 . S
C948 C949 1.400 . S
C949 C943 1.491 . S
C949 C948 1.400 . S
C949 C950 1.398 . S
C950 H938 0.950 . S
C950 C949 1.398 . S
C950 C951 1.391 . S
C951 H939 0.950 . S
C951 C947 1.393 . S
C951 C950 1.391 . S
H952 C960 0.950 . S
H953 C965 0.950 . S
H954 C962 0.950 . S
H955 C964 0.950 . S
H956 C966 0.950 . S
H957 C968 0.950 . S
H958 C970 0.950 . S
H959 C971 0.950 . S
C960 H952 0.950 . S
C960 C961 1.386 . S
C960 C962 1.391 . S
C961 C960 1.386 . S
C961 C965 1.393 . S
C962 H954 0.950 . S
C962 C960 1.391 . S
C962 C963 1.400 . S
C963 C962 1.400 . S
C963 C964 1.398 . S
C963 C969 1.491 1_545 S
C964 H955 0.950 . S
C964 C963 1.398 . S
C964 C965 1.391 . S
C965 H953 0.950 . S
C965 C961 1.393 . S
C965 C964 1.391 . S
C966 H956 0.950 . S
C966 C967 1.386 . S
C966 C968 1.391 . S
C967 C966 1.386 . S
C967 C971 1.393 . S
C968 H957 0.950 . S
C968 C966 1.391 . S
C968 C969 1.400 . S
C969 C963 1.491 1_565 S
C969 C968 1.400 . S
C969 C970 1.398 . S
C970 H958 0.950 . S
C970 C969 1.398 . S
C970 C971 1.391 . S
C971 H959 0.950 . S
C971 C967 1.393 . S
C971 C970 1.391 . S
H972 C980 0.950 . S
H973 C985 0.950 . S
H974 C982 0.950 . S
H975 C984 0.950 . S
H976 C986 0.950 . S
H977 C988 0.950 . S
H978 C990 0.950 . S
H979 C991 0.950 . S
C980 H972 0.950 . S
C980 C981 1.386 . S
C980 C982 1.391 . S
C981 C980 1.386 . S
C981 C985 1.393 . S
C982 H974 0.950 . S
C982 C980 1.391 . S
C982 C983 1.400 . S
C983 C982 1.400 . S
C983 C984 1.398 . S
C983 C989 1.491 . S
C984 H975 0.950 . S
C984 C983 1.398 . S
C984 C985 1.391 . S
C985 H973 0.950 . S
C985 C981 1.393 . S
C985 C984 1.391 . S
C986 H976 0.950 . S
C986 C987 1.386 . S
C986 C988 1.391 . S
C987 C986 1.386 . S
C987 C991 1.393 . S
C988 H977 0.950 . S
C988 C986 1.391 . S
C988 C989 1.400 . S
C989 C983 1.491 . S
C989 C988 1.400 . S
C989 C990 1.398 . S
C990 H978 0.950 . S
C990 C989 1.398 . S
C990 C991 1.391 . S
C991 H979 0.950 . S
C991 C987 1.393 . S
C991 C990 1.391 . S
H992 C1000 0.950 . S
H993 C1005 0.950 . S
H994 C1002 0.950 . S
H995 C1004 0.950 . S
H996 C1006 0.950 . S
H997 C1008 0.950 . S
H998 C1010 0.950 . S
H999 C1011 0.950 . S
C1000 H992 0.950 . S
C1000 C1001 1.386 . S
C1000 C1002 1.391 . S
C1001 C1000 1.386 . S
C1001 C1005 1.393 1_554 S
C1002 H994 0.950 . S
C1002 C1000 1.391 . S
C1002 C1003 1.400 . S
C1003 C1002 1.400 . S
C1003 C1004 1.398 1_554 S
C1003 C1009 1.491 . S
C1004 H995 0.950 . S
C1004 C1003 1.398 1_556 S
C1004 C1005 1.391 . S
C1005 H993 0.950 . S
C1005 C1001 1.393 1_556 S
C1005 C1004 1.391 . S
C1006 H996 0.950 . S
C1006 C1007 1.396 . S
C1006 C1008 1.391 . S
C1007 C1006 1.396 . S
C1007 C1011 1.382 1_556 S
C1008 H997 0.950 . S
C1008 C1006 1.391 . S
C1008 C1009 1.400 1_556 S
C1009 C1003 1.491 . S
C1009 C1008 1.400 1_554 S
C1009 C1010 1.398 . S
C1010 H998 0.950 . S
C1010 C1009 1.398 . S
C1010 C1011 1.391 . S
C1011 H999 0.950 . S
C1011 C1007 1.382 1_554 S
C1011 C1010 1.391 . S
H1012 C1020 0.950 . S
H1013 C1025 0.950 . S
H1014 C1022 0.950 . S
H1015 C1024 0.950 . S
H1016 C1026 0.950 . S
H1017 C1028 0.950 . S
H1018 C1030 0.950 1_556 S
H1019 C1031 0.950 . S
C1020 H1012 0.950 . S
C1020 C1021 1.386 1_556 S
C1020 C1022 1.391 . S
C1021 C1020 1.386 1_554 S
C1021 C1025 1.393 . S
C1022 H1014 0.950 . S
C1022 C1020 1.391 . S
C1022 C1023 1.400 1_556 S
C1023 C1022 1.400 1_554 S
C1023 C1024 1.398 . S
C1023 C1029 1.491 . S
C1024 H1015 0.950 . S
C1024 C1023 1.398 . S
C1024 C1025 1.391 . S
C1025 H1013 0.950 . S
C1025 C1021 1.393 . S
C1025 C1024 1.391 . S
C1026 H1016 0.950 . S
C1026 C1027 1.386 . S
C1026 C1028 1.391 . S
C1027 C1026 1.386 . S
C1027 C1031 1.393 . S
C1028 H1017 0.950 . S
C1028 C1026 1.391 . S
C1028 C1029 1.400 . S
C1029 C1023 1.491 . S
C1029 C1028 1.400 . S
C1029 C1030 1.398 . S
C1030 H1018 0.950 1_554 S
C1030 C1029 1.398 . S
C1030 C1031 1.391 . S
C1031 H1019 0.950 . S
C1031 C1027 1.393 . S
C1031 C1030 1.391 . S
H1032 C1040 0.950 . S
H1033 C1045 0.950 . S
H1034 C1042 0.950 . S
H1035 C1044 0.950 . S
H1036 C1046 0.950 . S
H1037 C1048 0.950 . S
H1038 C1050 0.950 . S
H1039 C1051 0.950 . S
C1040 H1032 0.950 . S
C1040 C1041 1.386 . S
C1040 C1042 1.391 . S
C1041 C1040 1.386 . S
C1041 C1045 1.393 . S
C1042 H1034 0.950 . S
C1042 C1040 1.391 . S
C1042 C1043 1.400 . S
C1043 C1042 1.400 . S
C1043 C1044 1.398 . S
C1043 C1049 1.491 . S
C1044 H1035 0.950 . S
C1044 C1043 1.398 . S
C1044 C1045 1.391 . S
C1045 H1033 0.950 . S
C1045 C1041 1.393 . S
C1045 C1044 1.391 . S
C1046 H1036 0.950 . S
C1046 C1047 1.386 . S
C1046 C1048 1.391 . S
C1047 C1046 1.386 . S
C1047 C1051 1.393 . S
C1048 H1037 0.950 . S
C1048 C1046 1.391 . S
C1048 C1049 1.400 . S
C1049 C1043 1.491 . S
C1049 C1048 1.400 . S
C1049 C1050 1.398 . S
C1050 H1038 0.950 . S
C1050 C1049 1.398 . S
C1050 C1051 1.391 . S
C1051 H1039 0.950 . S
C1051 C1047 1.393 . S
C1051 C1050 1.391 . S
H1052 C1060 0.950 . S
H1053 C1065 0.950 . S
H1054 C1062 0.950 . S
H1055 C1064 0.950 . S
H1056 C1066 0.950 . S
H1057 C1068 0.950 . S
H1058 C1070 0.950 . S
H1059 C1071 0.950 . S
C1060 H1052 0.950 . S
C1060 C1061 1.386 . S
C1060 C1062 1.391 . S
C1061 C1060 1.386 . S
C1061 C1065 1.393 . S
C1062 H1054 0.950 . S
C1062 C1060 1.391 . S
C1062 C1063 1.400 . S
C1063 C1062 1.400 . S
C1063 C1064 1.398 . S
C1063 C1069 1.491 . S
C1064 H1055 0.950 . S
C1064 C1063 1.398 . S
C1064 C1065 1.391 . S
C1065 H1053 0.950 . S
C1065 C1061 1.393 . S
C1065 C1064 1.391 . S
C1066 H1056 0.950 . S
C1066 C1067 1.386 . S
C1066 C1068 1.391 . S
C1067 C1066 1.386 . S
C1067 C1071 1.393 . S
C1068 H1057 0.950 . S
C1068 C1066 1.391 . S
C1068 C1069 1.400 . S
C1069 C1063 1.491 . S
C1069 C1068 1.400 . S
C1069 C1070 1.398 . S
C1070 H1058 0.950 . S
C1070 C1069 1.398 . S
C1070 C1071 1.391 . S
C1071 H1059 0.950 . S
C1071 C1067 1.393 . S
C1071 C1070 1.391 . S
H1072 C1080 0.950 . S
H1073 C1085 0.950 . S
H1074 C1082 0.950 . S
H1075 C1084 0.950 . S
H1076 C1086 0.950 . S
H1077 C1088 0.950 . S
H1078 C1090 0.950 . S
H1079 C1091 0.950 . S
C1080 H1072 0.950 . S
C1080 C1081 1.386 . S
C1080 C1082 1.391 . S
C1081 C1080 1.386 . S
C1081 C1085 1.393 . S
C1082 H1074 0.950 . S
C1082 C1080 1.391 . S
C1082 C1083 1.400 . S
C1083 C1082 1.400 . S
C1083 C1084 1.398 . S
C1083 C1089 1.491 . S
C1084 H1075 0.950 . S
C1084 C1083 1.398 . S
C1084 C1085 1.391 . S
C1085 H1073 0.950 . S
C1085 C1081 1.393 . S
C1085 C1084 1.391 . S
C1086 H1076 0.950 . S
C1086 C1087 1.386 . S
C1086 C1088 1.391 . S
C1087 C1086 1.386 . S
C1087 C1091 1.393 . S
C1088 H1077 0.950 . S
C1088 C1086 1.391 . S
C1088 C1089 1.400 . S
C1089 C1083 1.491 . S
C1089 C1088 1.400 . S
C1089 C1090 1.398 . S
C1090 H1078 0.950 . S
C1090 C1089 1.398 . S
C1090 C1091 1.391 . S
C1091 H1079 0.950 . S
C1091 C1087 1.393 . S
C1091 C1090 1.391 . S
H1092 C1100 0.950 . S
H1093 C1105 0.950 . S
H1094 C1102 0.950 . S
H1095 C1104 0.950 . S
H1096 C1106 0.950 1_545 S
H1097 C1108 0.950 . S
H1098 C1110 0.950 . S
H1099 C1111 0.950 . S
C1100 H1092 0.950 . S
C1100 C1101 1.386 . S
C1100 C1102 1.391 . S
C1101 C1100 1.386 . S
C1101 C1105 1.393 . S
C1102 H1094 0.950 . S
C1102 C1100 1.391 . S
C1102 C1103 1.400 . S
C1103 C1102 1.400 . S
C1103 C1104 1.398 . S
C1103 C1109 1.491 . S
C1104 H1095 0.950 . S
C1104 C1103 1.398 . S
C1104 C1105 1.391 . S
C1105 H1093 0.950 . S
C1105 C1101 1.393 . S
C1105 C1104 1.391 . S
C1106 H1096 0.950 1_565 S
C1106 C1107 1.386 . S
C1106 C1108 1.391 . S
C1107 C1106 1.386 . S
C1107 C1111 1.393 . S
C1108 H1097 0.950 . S
C1108 C1106 1.391 . S
C1108 C1109 1.400 . S
C1109 C1103 1.491 . S
C1109 C1108 1.400 . S
C1109 C1110 1.398 . S
C1110 H1098 0.950 . S
C1110 C1109 1.398 . S
C1110 C1111 1.391 . S
C1111 H1099 0.950 . S
C1111 C1107 1.393 . S
C1111 C1110 1.391 . S
H1112 C1120 0.950 . S
H1113 C1125 0.950 . S
H1114 C1122 0.950 . S
H1115 C1124 0.950 . S
H1116 C1126 0.950 . S
H1117 C1128 0.950 . S
H1118 C1130 0.950 . S
H1119 C1131 0.950 . S
C1120 H1112 0.950 . S
C1120 C1121 1.386 . S
C1120 C1122 1.391 . S
C1121 C1120 1.386 . S
C1121 C1125 1.393 . S
C1122 H1114 0.950 . S
C1122 C1120 1.391 . S
C1122 C1123 1.400 . S
C1123 C1122 1.400 . S
C1123 C1124 1.398 . S
C1123 C1129 1.491 . S
C1124 H1115 0.950 . S
C1124 C1123 1.398 . S
C1124 C1125 1.391 . S
C1125 H1113 0.950 . S
C1125 C1121 1.393 . S
C1125 C1124 1.391 . S
C1126 H1116 0.950 . S
C1126 C1127 1.386 . S
C1126 C1128 1.391 . S
C1127 C1126 1.386 . S
C1127 C1131 1.393 . S
C1128 H1117 0.950 . S
C1128 C1126 1.391 . S
C1128 C1129 1.400 . S
C1129 C1123 1.491 . S
C1129 C1128 1.400 . S
C1129 C1130 1.398 . S
C1130 H1118 0.950 . S
C1130 C1129 1.398 . S
C1130 C1131 1.391 . S
C1131 H1119 0.950 . S
C1131 C1127 1.393 . S
C1131 C1130 1.391 . S
H1132 C1140 0.950 . S
H1133 C1145 0.950 . S
H1134 C1142 0.950 . S
H1135 C1144 0.950 . S
H1136 C1146 0.950 . S
H1137 C1148 0.950 . S
H1138 C1150 0.950 . S
H1139 C1151 0.950 . S
C1140 H1132 0.950 . S
C1140 C1141 1.386 . S
C1140 C1142 1.391 . S
C1141 C1140 1.386 . S
C1141 C1145 1.393 . S
C1142 H1134 0.950 . S
C1142 C1140 1.391 . S
C1142 C1143 1.400 . S
C1143 C1142 1.400 . S
C1143 C1144 1.398 . S
C1143 C1149 1.491 . S
C1144 H1135 0.950 . S
C1144 C1143 1.398 . S
C1144 C1145 1.391 . S
C1145 H1133 0.950 . S
C1145 C1141 1.393 . S
C1145 C1144 1.391 . S
C1146 H1136 0.950 . S
C1146 C1147 1.386 . S
C1146 C1148 1.391 . S
C1147 C1146 1.386 . S
C1147 C1151 1.393 . S
C1148 H1137 0.950 . S
C1148 C1146 1.391 . S
C1148 C1149 1.400 . S
C1149 C1143 1.491 . S
C1149 C1148 1.400 . S
C1149 C1150 1.398 . S
C1150 H1138 0.950 . S
C1150 C1149 1.398 . S
C1150 C1151 1.391 . S
C1151 H1139 0.950 . S
C1151 C1147 1.393 . S
C1151 C1150 1.391 . S
H1152 C1160 0.950 . S
H1153 C1165 0.950 . S
H1154 C1162 0.950 . S
H1155 C1164 0.950 . S
H1156 C1166 0.950 . S
H1157 C1168 0.950 . S
H1158 C1170 0.950 . S
H1159 C1171 0.950 . S
C1160 H1152 0.950 . S
C1160 C1161 1.386 1_655 S
C1160 C1162 1.391 . S
C1161 C1160 1.386 1_455 S
C1161 C1165 1.393 . S
C1162 H1154 0.950 . S
C1162 C1160 1.391 . S
C1162 C1163 1.400 1_655 S
C1163 C1162 1.400 1_455 S
C1163 C1164 1.398 . S
C1163 C1169 1.491 . S
C1164 H1155 0.950 . S
C1164 C1163 1.398 . S
C1164 C1165 1.391 . S
C1165 H1153 0.950 . S
C1165 C1161 1.393 . S
C1165 C1164 1.391 . S
C1166 H1156 0.950 . S
C1166 C1167 1.386 . S
C1166 C1168 1.391 . S
C1167 C1166 1.386 . S
C1167 C1171 1.393 1_455 S
C1168 H1157 0.950 . S
C1168 C1166 1.391 . S
C1168 C1169 1.400 . S
C1169 C1163 1.491 . S
C1169 C1168 1.400 . S
C1169 C1170 1.398 1_455 S
C1170 H1158 0.950 . S
C1170 C1169 1.398 1_655 S
C1170 C1171 1.391 . S
C1171 H1159 0.950 . S
C1171 C1167 1.393 1_655 S
C1171 C1170 1.391 . S
H1172 C1180 0.950 . S
H1173 C1185 0.950 . S
H1174 C1182 0.950 . S
H1175 C1184 0.950 . S
H1176 C1186 0.950 . S
H1177 C1188 0.950 . S
H1178 C1190 0.950 . S
H1179 C1191 0.950 . S
C1180 H1172 0.950 . S
C1180 C1181 1.386 . S
C1180 C1182 1.391 . S
C1181 C1180 1.386 . S
C1181 C1185 1.393 . S
C1182 H1174 0.950 . S
C1182 C1180 1.391 . S
C1182 C1183 1.400 . S
C1183 C1182 1.400 . S
C1183 C1184 1.398 . S
C1183 C1189 1.491 . S
C1184 H1175 0.950 . S
C1184 C1183 1.398 . S
C1184 C1185 1.391 . S
C1185 H1173 0.950 . S
C1185 C1181 1.393 . S
C1185 C1184 1.391 . S
C1186 H1176 0.950 . S
C1186 C1187 1.386 . S
C1186 C1188 1.391 . S
C1187 C1186 1.386 . S
C1187 C1191 1.393 . S
C1188 H1177 0.950 . S
C1188 C1186 1.391 . S
C1188 C1189 1.400 . S
C1189 C1183 1.491 . S
C1189 C1188 1.400 . S
C1189 C1190 1.398 . S
C1190 H1178 0.950 . S
C1190 C1189 1.398 . S
C1190 C1191 1.391 . S
C1191 H1179 0.950 . S
C1191 C1187 1.393 . S
C1191 C1190 1.391 . S
H1192 C1200 0.950 . S
H1193 C1205 0.950 . S
H1194 C1202 0.950 . S
H1195 C1204 0.950 . S
H1196 C1206 0.950 . S
H1197 C1208 0.950 . S
H1198 C1210 0.950 . S
H1199 C1211 0.950 . S
C1200 H1192 0.950 . S
C1200 C1201 1.386 . S
C1200 C1202 1.391 . S
C1201 C1200 1.386 . S
C1201 C1205 1.393 . S
C1202 H1194 0.950 . S
C1202 C1200 1.391 . S
C1202 C1203 1.400 . S
C1203 C1202 1.400 . S
C1203 C1204 1.398 . S
C1203 C1209 1.491 . S
C1204 H1195 0.950 . S
C1204 C1203 1.398 . S
C1204 C1205 1.391 . S
C1205 H1193 0.950 . S
C1205 C1201 1.393 . S
C1205 C1204 1.391 . S
C1206 H1196 0.950 . S
C1206 C1207 1.386 . S
C1206 C1208 1.391 . S
C1207 C1206 1.386 . S
C1207 C1211 1.393 . S
C1208 H1197 0.950 . S
C1208 C1206 1.391 . S
C1208 C1209 1.400 . S
C1209 C1203 1.491 . S
C1209 C1208 1.400 . S
C1209 C1210 1.398 . S
C1210 H1198 0.950 . S
C1210 C1209 1.398 . S
C1210 C1211 1.391 . S
C1211 H1199 0.950 . S
C1211 C1207 1.393 . S
C1211 C1210 1.391 . S
H1212 C1220 0.950 . S
H1213 C1225 0.950 . S
H1214 C1222 0.950 . S
H1215 C1224 0.950 . S
H1216 C1226 0.950 . S
H1217 C1228 0.950 . S
H1218 C1230 0.950 . S
H1219 C1231 0.950 . S
C1220 H1212 0.950 . S
C1220 C1221 1.386 . S
C1220 C1222 1.391 . S
C1221 C1220 1.386 . S
C1221 C1225 1.393 . S
C1222 H1214 0.950 . S
C1222 C1220 1.391 . S
C1222 C1223 1.400 . S
C1223 C1222 1.400 . S
C1223 C1224 1.398 . S
C1223 C1229 1.491 . S
C1224 H1215 0.950 . S
C1224 C1223 1.398 . S
C1224 C1225 1.391 . S
C1225 H1213 0.950 . S
C1225 C1221 1.393 . S
C1225 C1224 1.391 . S
C1226 H1216 0.950 . S
C1226 C1227 1.386 . S
C1226 C1228 1.391 . S
C1227 C1226 1.386 . S
C1227 C1231 1.393 . S
C1228 H1217 0.950 . S
C1228 C1226 1.391 . S
C1228 C1229 1.400 . S
C1229 C1223 1.491 . S
C1229 C1228 1.400 . S
C1229 C1230 1.398 . S
C1230 H1218 0.950 . S
C1230 C1229 1.398 . S
C1230 C1231 1.391 . S
C1231 H1219 0.950 . S
C1231 C1227 1.393 . S
C1231 C1230 1.391 . S
H1232 C1240 0.950 . S
H1233 C1245 0.950 . S
H1234 C1242 0.950 . S
H1235 C1244 0.950 . S
H1236 C1246 0.950 . S
H1237 C1248 0.950 . S
H1238 C1250 0.950 . S
H1239 C1251 0.946 1_655 S
C1240 H1232 0.950 . S
C1240 C1241 1.386 1_655 S
C1240 C1242 1.391 . S
C1241 C1240 1.386 1_455 S
C1241 C1245 1.393 . S
C1242 H1234 0.950 . S
C1242 C1240 1.391 . S
C1242 C1243 1.400 1_655 S
C1243 C1242 1.400 1_455 S
C1243 C1244 1.398 . S
C1243 C1249 1.491 . S
C1244 H1235 0.950 . S
C1244 C1243 1.398 . S
C1244 C1245 1.391 . S
C1245 H1233 0.950 . S
C1245 C1241 1.393 . S
C1245 C1244 1.391 . S
C1246 H1236 0.950 . S
C1246 C1247 1.386 . S
C1246 C1248 1.391 . S
C1247 C1246 1.386 . S
C1247 C1251 1.397 . S
C1248 H1237 0.950 . S
C1248 C1246 1.391 . S
C1248 C1249 1.400 . S
C1249 C1243 1.491 . S
C1249 C1248 1.400 . S
C1249 C1250 1.398 1_455 S
C1250 H1238 0.950 . S
C1250 C1249 1.398 1_655 S
C1250 C1251 1.390 1_655 S
C1251 H1239 0.946 1_455 S
C1251 C1247 1.397 . S
C1251 C1250 1.390 1_455 S
H1252 C1260 0.950 . S
H1253 C1265 0.950 . S
H1254 C1262 0.950 . S
H1255 C1264 0.950 . S
H1256 C1266 0.950 . S
H1257 C1268 0.950 . S
H1258 C1270 0.950 . S
H1259 C1271 0.950 . S
C1260 H1252 0.950 . S
C1260 C1261 1.386 . S
C1260 C1262 1.391 . S
C1261 C1260 1.386 . S
C1261 C1265 1.393 . S
C1262 H1254 0.950 . S
C1262 C1260 1.391 . S
C1262 C1263 1.400 . S
C1263 C1262 1.400 . S
C1263 C1264 1.398 . S
C1263 C1269 1.491 . S
C1264 H1255 0.950 . S
C1264 C1263 1.398 . S
C1264 C1265 1.391 . S
C1265 H1253 0.950 . S
C1265 C1261 1.393 . S
C1265 C1264 1.391 . S
C1266 H1256 0.950 . S
C1266 C1267 1.386 . S
C1266 C1268 1.391 . S
C1267 C1266 1.386 . S
C1267 C1271 1.393 . S
C1268 H1257 0.950 . S
C1268 C1266 1.391 . S
C1268 C1269 1.400 . S
C1269 C1263 1.491 . S
C1269 C1268 1.400 . S
C1269 C1270 1.398 . S
C1270 H1258 0.950 . S
C1270 C1269 1.398 . S
C1270 C1271 1.391 . S
C1271 H1259 0.950 . S
C1271 C1267 1.393 . S
C1271 C1270 1.391 . S
H1272 C1280 0.950 . S
H1273 C1285 0.950 . S
H1274 C1282 0.950 . S
H1275 C1284 0.950 . S
H1276 C1286 0.950 . S
H1277 C1288 0.950 . S
H1278 C1290 0.950 . S
H1279 C1291 0.950 . S
C1280 H1272 0.950 . S
C1280 C1281 1.386 . S
C1280 C1282 1.391 . S
C1281 C1280 1.386 . S
C1281 C1285 1.393 . S
C1282 H1274 0.950 . S
C1282 C1280 1.391 . S
C1282 C1283 1.400 . S
C1283 C1282 1.400 . S
C1283 C1284 1.398 . S
C1283 C1289 1.491 . S
C1284 H1275 0.950 . S
C1284 C1283 1.398 . S
C1284 C1285 1.391 . S
C1285 H1273 0.950 . S
C1285 C1281 1.393 . S
C1285 C1284 1.391 . S
C1286 H1276 0.950 . S
C1286 C1287 1.386 . S
C1286 C1288 1.391 . S
C1287 C1286 1.386 . S
C1287 C1291 1.393 . S
C1288 H1277 0.950 . S
C1288 C1286 1.391 . S
C1288 C1289 1.400 . S
C1289 C1283 1.491 . S
C1289 C1288 1.400 . S
C1289 C1290 1.398 . S
C1290 H1278 0.950 . S
C1290 C1289 1.398 . S
C1290 C1291 1.391 . S
C1291 H1279 0.950 . S
C1291 C1287 1.393 . S
C1291 C1290 1.391 . S
H1292 C1300 0.950 . S
H1293 C1305 0.950 . S
H1294 C1302 0.950 . S
H1295 C1304 0.950 . S
H1296 C1306 0.950 . S
H1297 C1308 0.950 . S
H1298 C1310 0.950 . S
H1299 C1311 0.950 . S
C1300 H1292 0.950 . S
C1300 C1301 1.386 . S
C1300 C1302 1.391 . S
C1301 C1300 1.386 . S
C1301 C1305 1.393 . S
C1302 H1294 0.950 . S
C1302 C1300 1.391 . S
C1302 C1303 1.400 . S
C1303 C1302 1.400 . S
C1303 C1304 1.398 . S
C1303 C1309 1.491 . S
C1304 H1295 0.950 . S
C1304 C1303 1.398 . S
C1304 C1305 1.391 . S
C1305 H1293 0.950 . S
C1305 C1301 1.393 . S
C1305 C1304 1.391 . S
C1306 H1296 0.950 . S
C1306 C1307 1.386 . S
C1306 C1308 1.391 . S
C1307 C1306 1.386 . S
C1307 C1311 1.393 . S
C1308 H1297 0.950 . S
C1308 C1306 1.391 . S
C1308 C1309 1.400 . S
C1309 C1303 1.491 . S
C1309 C1308 1.400 . S
C1309 C1310 1.398 . S
C1310 H1298 0.950 . S
C1310 C1309 1.398 . S
C1310 C1311 1.391 . S
C1311 H1299 0.950 . S
C1311 C1307 1.393 . S
C1311 C1310 1.391 . S
H1312 C1320 0.950 . S
H1313 C1325 0.950 . S
H1314 C1322 0.950 . S
H1315 C1324 0.951 . S
H1316 C1326 0.950 1_455 S
H1317 C1328 0.950 . S
H1318 C1330 0.950 . S
H1319 C1331 0.950 . S
C1320 H1312 0.950 . S
C1320 C1321 1.386 1_545 S
C1320 C1322 1.391 . S
C1321 C1320 1.386 1_565 S
C1321 C1325 1.393 . S
C1322 H1314 0.950 . S
C1322 C1320 1.391 . S
C1322 C1323 1.400 . S
C1323 C1322 1.400 . S
C1323 C1324 1.397 1_545 S
C1323 C1329 1.491 . S
C1324 H1315 0.951 . S
C1324 C1323 1.397 1_565 S
C1324 C1325 1.391 . S
C1325 H1313 0.950 . S
C1325 C1321 1.393 . S
C1325 C1324 1.391 . S
C1326 H1316 0.950 1_655 S
C1326 C1327 1.386 . S
C1326 C1328 1.391 . S
C1327 C1326 1.386 . S
C1327 C1331 1.393 . S
C1328 H1317 0.950 . S
C1328 C1326 1.391 . S
C1328 C1329 1.400 . S
C1329 C1323 1.491 . S
C1329 C1328 1.400 . S
C1329 C1330 1.398 . S
C1330 H1318 0.950 . S
C1330 C1329 1.398 . S
C1330 C1331 1.391 . S
C1331 H1319 0.950 . S
C1331 C1327 1.393 . S
C1331 C1330 1.391 . S
H1332 C1340 0.950 . S
H1333 C1345 0.950 . S
H1334 C1342 0.950 . S
H1335 C1344 0.950 . S
H1336 C1346 0.950 . S
H1337 C1348 0.950 . S
H1338 C1350 0.950 . S
H1339 C1351 0.950 . S
C1340 H1332 0.950 . S
C1340 C1341 1.386 . S
C1340 C1342 1.391 . S
C1341 C1340 1.386 . S
C1341 C1345 1.393 . S
C1342 H1334 0.950 . S
C1342 C1340 1.391 . S
C1342 C1343 1.400 . S
C1343 C1342 1.400 . S
C1343 C1344 1.398 . S
C1343 C1349 1.491 . S
C1344 H1335 0.950 . S
C1344 C1343 1.398 . S
C1344 C1345 1.391 . S
C1345 H1333 0.950 . S
C1345 C1341 1.393 . S
C1345 C1344 1.391 . S
C1346 H1336 0.950 . S
C1346 C1347 1.386 . S
C1346 C1348 1.391 . S
C1347 C1346 1.386 . S
C1347 C1351 1.393 . S
C1348 H1337 0.950 . S
C1348 C1346 1.391 . S
C1348 C1349 1.400 . S
C1349 C1343 1.491 . S
C1349 C1348 1.400 . S
C1349 C1350 1.398 . S
C1350 H1338 0.950 . S
C1350 C1349 1.398 . S
C1350 C1351 1.391 . S
C1351 H1339 0.950 . S
C1351 C1347 1.393 . S
C1351 C1350 1.391 . S
H1352 C1360 0.950 . S
H1353 C1365 0.950 . S
H1354 C1362 0.950 . S
H1355 C1364 0.950 . S
H1356 C1366 0.950 . S
H1357 C1368 0.950 . S
H1358 C1370 0.950 . S
H1359 C1371 0.950 . S
C1360 H1352 0.950 . S
C1360 C1361 1.386 . S
C1360 C1362 1.391 . S
C1361 C1360 1.386 . S
C1361 C1365 1.393 1_545 S
C1362 H1354 0.950 . S
C1362 C1360 1.391 . S
C1362 C1363 1.400 . S
C1363 C1362 1.400 . S
C1363 C1364 1.398 1_545 S
C1363 C1369 1.490 1_545 S
C1364 H1355 0.950 . S
C1364 C1363 1.398 1_565 S
C1364 C1365 1.391 . S
C1365 H1353 0.950 . S
C1365 C1361 1.393 1_565 S
C1365 C1364 1.391 . S
C1366 H1356 0.950 . S
C1366 C1367 1.386 . S
C1366 C1368 1.391 . S
C1367 C1366 1.386 . S
C1367 C1371 1.393 1_565 S
C1368 H1357 0.950 . S
C1368 C1366 1.391 . S
C1368 C1369 1.401 . S
C1369 C1363 1.490 1_565 S
C1369 C1368 1.401 . S
C1369 C1370 1.398 1_565 S
C1370 H1358 0.950 . S
C1370 C1369 1.398 1_545 S
C1370 C1371 1.391 . S
C1371 H1359 0.950 . S
C1371 C1367 1.393 1_545 S
C1371 C1370 1.391 . S
H1372 C1380 0.950 . S
H1373 C1385 0.950 . S
H1374 C1382 0.950 . S
H1375 C1384 0.950 . S
H1376 C1386 0.950 . S
H1377 C1388 0.950 . S
H1378 C1390 0.950 . S
H1379 C1391 0.950 . S
C1380 H1372 0.950 . S
C1380 C1381 1.386 . S
C1380 C1382 1.391 . S
C1381 C1380 1.386 . S
C1381 C1385 1.393 . S
C1382 H1374 0.950 . S
C1382 C1380 1.391 . S
C1382 C1383 1.400 . S
C1383 C1382 1.400 . S
C1383 C1384 1.398 . S
C1383 C1389 1.491 . S
C1384 H1375 0.950 . S
C1384 C1383 1.398 . S
C1384 C1385 1.391 . S
C1385 H1373 0.950 . S
C1385 C1381 1.393 . S
C1385 C1384 1.391 . S
C1386 H1376 0.950 . S
C1386 C1387 1.386 . S
C1386 C1388 1.391 . S
C1387 C1386 1.386 . S
C1387 C1391 1.393 . S
C1388 H1377 0.950 . S
C1388 C1386 1.391 . S
C1388 C1389 1.400 . S
C1389 C1383 1.491 . S
C1389 C1388 1.400 . S
C1389 C1390 1.398 . S
C1390 H1378 0.950 . S
C1390 C1389 1.398 . S
C1390 C1391 1.391 . S
C1391 H1379 0.950 . S
C1391 C1387 1.393 . S
C1391 C1390 1.391 . S
H1392 C1400 0.950 . S
H1393 C1405 0.950 . S
H1394 C1402 0.950 . S
H1395 C1404 0.950 . S
H1396 C1406 0.950 . S
H1397 C1408 0.950 . S
H1398 C1410 0.950 . S
H1399 C1411 0.950 . S
C1400 H1392 0.950 . S
C1400 C1401 1.386 . S
C1400 C1402 1.391 . S
C1401 C1400 1.386 . S
C1401 C1405 1.393 1_565 S
C1402 H1394 0.950 . S
C1402 C1400 1.391 . S
C1402 C1403 1.400 . S
C1403 C1402 1.400 . S
C1403 C1404 1.398 1_565 S
C1403 C1409 1.491 . S
C1404 H1395 0.950 . S
C1404 C1403 1.398 1_545 S
C1404 C1405 1.391 . S
C1405 H1393 0.950 . S
C1405 C1401 1.393 1_545 S
C1405 C1404 1.391 . S
C1406 H1396 0.950 . S
C1406 C1407 1.386 1_545 S
C1406 C1408 1.391 . S
C1407 C1406 1.386 1_565 S
C1407 C1411 1.393 . S
C1408 H1397 0.950 . S
C1408 C1406 1.391 . S
C1408 C1409 1.400 1_545 S
C1409 C1403 1.491 . S
C1409 C1408 1.400 1_565 S
C1409 C1410 1.398 . S
C1410 H1398 0.950 . S
C1410 C1409 1.398 . S
C1410 C1411 1.391 . S
C1411 H1399 0.950 . S
C1411 C1407 1.393 . S
C1411 C1410 1.391 . S
H1412 C1420 0.950 . S
H1413 C1425 0.950 . S
H1414 C1422 0.950 . S
H1415 C1424 0.950 . S
H1416 C1426 0.950 . S
H1417 C1428 0.950 . S
H1418 C1430 0.950 . S
H1419 C1431 0.950 . S
C1420 H1412 0.950 . S
C1420 C1421 1.386 . S
C1420 C1422 1.391 . S
C1421 C1420 1.386 . S
C1421 C1425 1.393 . S
C1422 H1414 0.950 . S
C1422 C1420 1.391 . S
C1422 C1423 1.400 . S
C1423 C1422 1.400 . S
C1423 C1424 1.398 . S
C1423 C1429 1.491 . S
C1424 H1415 0.950 . S
C1424 C1423 1.398 . S
C1424 C1425 1.391 . S
C1425 H1413 0.950 . S
C1425 C1421 1.393 . S
C1425 C1424 1.391 . S
C1426 H1416 0.950 . S
C1426 C1427 1.386 . S
C1426 C1428 1.391 . S
C1427 C1426 1.386 . S
C1427 C1431 1.393 . S
C1428 H1417 0.950 . S
C1428 C1426 1.391 . S
C1428 C1429 1.400 . S
C1429 C1423 1.491 . S
C1429 C1428 1.400 . S
C1429 C1430 1.398 . S
C1430 H1418 0.950 . S
C1430 C1429 1.398 . S
C1430 C1431 1.391 . S
C1431 H1419 0.950 . S
C1431 C1427 1.393 . S
C1431 C1430 1.391 . S
H1432 C1440 0.950 . S
H1433 C1445 0.950 . S
H1434 C1442 0.950 . S
H1435 C1444 0.950 . S
H1436 C1446 0.950 . S
H1437 C1448 0.950 . S
H1438 C1450 0.950 1_565 S
H1439 C1451 0.950 1_565 S
C1440 H1432 0.950 . S
C1440 C1441 1.386 1_565 S
C1440 C1442 1.391 . S
C1441 C1440 1.386 1_545 S
C1441 C1445 1.393 . S
C1442 H1434 0.950 . S
C1442 C1440 1.391 . S
C1442 C1443 1.400 1_565 S
C1443 C1442 1.400 1_545 S
C1443 C1444 1.398 . S
C1443 C1449 1.491 . S
C1444 H1435 0.950 . S
C1444 C1443 1.398 . S
C1444 C1445 1.391 . S
C1445 H1433 0.950 . S
C1445 C1441 1.393 . S
C1445 C1444 1.391 . S
C1446 H1436 0.950 . S
C1446 C1447 1.386 . S
C1446 C1448 1.391 . S
C1447 C1446 1.386 . S
C1447 C1451 1.393 . S
C1448 H1437 0.950 . S
C1448 C1446 1.391 . S
C1448 C1449 1.400 . S
C1449 C1443 1.491 . S
C1449 C1448 1.400 . S
C1449 C1450 1.398 . S
C1450 H1438 0.950 1_545 S
C1450 C1449 1.398 . S
C1450 C1451 1.391 . S
C1451 H1439 0.950 1_545 S
C1451 C1447 1.393 . S
C1451 C1450 1.391 . S
H1452 C1460 0.950 . S
H1453 C1465 0.950 . S
H1454 C1462 0.950 . S
H1455 C1464 0.950 . S
H1456 C1466 0.950 . S
H1457 C1468 0.950 . S
H1458 C1470 0.950 . S
H1459 C1471 0.950 . S
C1460 H1452 0.950 . S
C1460 C1461 1.386 . S
C1460 C1462 1.391 . S
C1461 C1460 1.386 . S
C1461 C1465 1.393 . S
C1462 H1454 0.950 . S
C1462 C1460 1.391 . S
C1462 C1463 1.400 . S
C1463 C1462 1.400 . S
C1463 C1464 1.398 . S
C1463 C1469 1.491 . S
C1464 H1455 0.950 . S
C1464 C1463 1.398 . S
C1464 C1465 1.391 . S
C1465 H1453 0.950 . S
C1465 C1461 1.393 . S
C1465 C1464 1.391 . S
C1466 H1456 0.950 . S
C1466 C1467 1.386 . S
C1466 C1468 1.391 . S
C1467 C1466 1.386 . S
C1467 C1471 1.393 . S
C1468 H1457 0.950 . S
C1468 C1466 1.391 . S
C1468 C1469 1.400 . S
C1469 C1463 1.491 . S
C1469 C1468 1.400 . S
C1469 C1470 1.398 . S
C1470 H1458 0.950 . S
C1470 C1469 1.398 . S
C1470 C1471 1.391 . S
C1471 H1459 0.950 . S
C1471 C1467 1.393 . S
C1471 C1470 1.391 . S
H1472 C1480 0.950 . S
H1473 C1485 0.964 . S
H1474 C1482 0.950 . S
H1475 C1484 0.941 1_556 S
H1476 C1486 0.969 1_545 S
H1477 C1488 0.950 1_556 S
H1478 C1490 0.950 . S
H1479 C1491 0.950 . S
C1480 H1472 0.950 . S
C1480 C1481 1.386 . S
C1480 C1482 1.391 . S
C1481 C1480 1.386 . S
C1481 C1485 1.380 1_554 S
C1482 H1474 0.950 . S
C1482 C1480 1.391 . S
C1482 C1483 1.400 . S
C1483 C1482 1.400 . S
C1483 C1484 1.408 . S
C1483 C1489 1.491 . S
C1484 H1475 0.941 1_554 S
C1484 C1483 1.408 . S
C1484 C1485 1.390 1_554 S
C1485 H1473 0.964 . S
C1485 C1481 1.380 1_556 S
C1485 C1484 1.390 1_556 S
C1486 H1476 0.969 1_565 S
C1486 C1487 1.386 . S
C1486 C1488 1.391 . S
C1487 C1486 1.386 . S
C1487 C1491 1.393 . S
C1488 H1477 0.950 1_554 S
C1488 C1486 1.391 . S
C1488 C1489 1.400 . S
C1489 C1483 1.491 . S
C1489 C1488 1.400 . S
C1489 C1490 1.398 . S
C1490 H1478 0.950 . S
C1490 C1489 1.398 . S
C1490 C1491 1.391 . S
C1491 H1479 0.950 . S
C1491 C1487 1.393 . S
C1491 C1490 1.391 . S
H1492 C1500 0.950 . S
H1493 C1505 0.950 . S
H1494 C1502 0.950 . S
H1495 C1504 0.950 . S
H1496 C1506 0.950 . S
H1497 C1508 0.950 . S
H1498 C1510 0.950 . S
H1499 C1511 0.950 . S
C1500 H1492 0.950 . S
C1500 C1501 1.386 1_556 S
C1500 C1502 1.391 . S
C1501 C1500 1.386 1_554 S
C1501 C1505 1.393 . S
C1502 H1494 0.950 . S
C1502 C1500 1.391 . S
C1502 C1503 1.404 . S
C1503 C1502 1.404 . S
C1503 C1504 1.394 1_556 S
C1503 C1509 1.491 . S
C1504 H1495 0.950 . S
C1504 C1503 1.394 1_554 S
C1504 C1505 1.391 . S
C1505 H1493 0.950 . S
C1505 C1501 1.393 . S
C1505 C1504 1.391 . S
C1506 H1496 0.950 . S
C1506 C1507 1.386 1_554 S
C1506 C1508 1.391 . S
C1507 C1506 1.386 1_556 S
C1507 C1511 1.393 . S
C1508 H1497 0.950 . S
C1508 C1506 1.391 . S
C1508 C1509 1.400 1_554 S
C1509 C1503 1.491 . S
C1509 C1508 1.400 1_556 S
C1509 C1510 1.398 . S
C1510 H1498 0.950 . S
C1510 C1509 1.398 . S
C1510 C1511 1.391 . S
C1511 H1499 0.950 . S
C1511 C1507 1.393 . S
C1511 C1510 1.391 . S
H1512 C1520 0.950 . S
H1513 C1525 0.950 . S
H1514 C1522 0.950 . S
H1515 C1524 0.950 . S
H1516 C1526 0.950 . S
H1517 C1528 0.950 . S
H1518 C1530 0.950 . S
H1519 C1531 0.950 . S
C1520 H1512 0.950 . S
C1520 C1521 1.386 . S
C1520 C1522 1.391 . S
C1521 C1520 1.386 . S
C1521 C1525 1.393 . S
C1522 H1514 0.950 . S
C1522 C1520 1.391 . S
C1522 C1523 1.400 . S
C1523 C1522 1.400 . S
C1523 C1524 1.398 . S
C1523 C1529 1.491 . S
C1524 H1515 0.950 . S
C1524 C1523 1.398 . S
C1524 C1525 1.391 . S
C1525 H1513 0.950 . S
C1525 C1521 1.393 . S
C1525 C1524 1.391 . S
C1526 H1516 0.950 . S
C1526 C1527 1.386 . S
C1526 C1528 1.391 . S
C1527 C1526 1.386 . S
C1527 C1531 1.393 . S
C1528 H1517 0.950 . S
C1528 C1526 1.391 . S
C1528 C1529 1.400 . S
C1529 C1523 1.491 . S
C1529 C1528 1.400 . S
C1529 C1530 1.398 . S
C1530 H1518 0.950 . S
C1530 C1529 1.398 . S
C1530 C1531 1.391 . S
C1531 H1519 0.950 . S
C1531 C1527 1.393 . S
C1531 C1530 1.391 . S
H1532 C1540 0.950 . S
H1533 C1545 0.950 . S
H1534 C1542 0.950 . S
H1535 C1544 0.950 . S
H1536 C1546 0.950 . S
H1537 C1548 0.950 . S
H1538 C1550 0.950 . S
H1539 C1551 0.950 . S
C1540 H1532 0.950 . S
C1540 C1541 1.386 . S
C1540 C1542 1.391 . S
C1541 C1540 1.386 . S
C1541 C1545 1.393 . S
C1542 H1534 0.950 . S
C1542 C1540 1.391 . S
C1542 C1543 1.400 . S
C1543 C1542 1.400 . S
C1543 C1544 1.398 . S
C1543 C1549 1.491 . S
C1544 H1535 0.950 . S
C1544 C1543 1.398 . S
C1544 C1545 1.391 . S
C1545 H1533 0.950 . S
C1545 C1541 1.393 . S
C1545 C1544 1.391 . S
C1546 H1536 0.950 . S
C1546 C1547 1.386 . S
C1546 C1548 1.391 . S
C1547 C1546 1.386 . S
C1547 C1551 1.393 . S
C1548 H1537 0.950 . S
C1548 C1546 1.391 . S
C1548 C1549 1.400 . S
C1549 C1543 1.491 . S
C1549 C1548 1.400 . S
C1549 C1550 1.398 . S
C1550 H1538 0.950 . S
C1550 C1549 1.398 . S
C1550 C1551 1.391 . S
C1551 H1539 0.950 . S
C1551 C1547 1.393 . S
C1551 C1550 1.391 . S
H1552 C1560 0.950 . S
H1553 C1565 0.950 . S
H1554 C1562 0.950 . S
H1555 C1564 0.950 . S
H1556 C1566 0.950 . S
H1557 C1568 0.950 . S
H1558 C1570 0.950 . S
H1559 C1571 0.950 . S
C1560 H1552 0.950 . S
C1560 C1561 1.386 . S
C1560 C1562 1.391 . S
C1561 C1560 1.386 . S
C1561 C1565 1.393 . S
C1562 H1554 0.950 . S
C1562 C1560 1.391 . S
C1562 C1563 1.400 . S
C1563 C1562 1.400 . S
C1563 C1564 1.398 . S
C1563 C1569 1.491 . S
C1564 H1555 0.950 . S
C1564 C1563 1.398 . S
C1564 C1565 1.391 . S
C1565 H1553 0.950 . S
C1565 C1561 1.393 . S
C1565 C1564 1.391 . S
C1566 H1556 0.950 . S
C1566 C1567 1.386 . S
C1566 C1568 1.391 . S
C1567 C1566 1.386 . S
C1567 C1571 1.393 . S
C1568 H1557 0.950 . S
C1568 C1566 1.391 . S
C1568 C1569 1.400 . S
C1569 C1563 1.491 . S
C1569 C1568 1.400 . S
C1569 C1570 1.398 . S
C1570 H1558 0.950 . S
C1570 C1569 1.398 . S
C1570 C1571 1.391 . S
C1571 H1559 0.950 . S
C1571 C1567 1.393 . S
C1571 C1570 1.391 . S
H1572 C1580 0.950 . S
H1573 C1585 0.950 . S
H1574 C1582 0.950 . S
H1575 C1584 0.950 . S
H1576 C1586 0.950 . S
H1577 C1588 0.950 . S
H1578 C1590 0.950 . S
H1579 C1591 0.964 . S
C1580 H1572 0.950 . S
C1580 C1581 1.386 . S
C1580 C1582 1.391 . S
C1581 C1580 1.386 . S
C1581 C1585 1.393 . S
C1582 H1574 0.950 . S
C1582 C1580 1.391 . S
C1582 C1583 1.400 . S
C1583 C1582 1.400 . S
C1583 C1584 1.398 . S
C1583 C1589 1.491 . S
C1584 H1575 0.950 . S
C1584 C1583 1.398 . S
C1584 C1585 1.391 . S
C1585 H1573 0.950 . S
C1585 C1581 1.393 . S
C1585 C1584 1.391 . S
C1586 H1576 0.950 . S
C1586 C1587 1.386 . S
C1586 C1588 1.391 . S
C1587 C1586 1.386 . S
C1587 C1591 1.393 . S
C1588 H1577 0.950 . S
C1588 C1586 1.391 . S
C1588 C1589 1.400 . S
C1589 C1583 1.491 . S
C1589 C1588 1.400 . S
C1589 C1590 1.398 . S
C1590 H1578 0.950 . S
C1590 C1589 1.398 . S
C1590 C1591 1.391 . S
C1591 H1579 0.964 . S
C1591 C1587 1.393 . S
C1591 C1590 1.391 . S
H1592 C1600 0.950 . S
H1593 C1605 0.950 . S
H1594 C1602 0.950 . S
H1595 C1604 0.950 . S
H1596 C1606 0.950 . S
H1597 C1608 0.950 . S
H1598 C1610 0.950 . S
H1599 C1611 0.950 . S
C1600 H1592 0.950 . S
C1600 C1601 1.386 . S
C1600 C1602 1.391 . S
C1601 C1600 1.386 . S
C1601 C1605 1.393 . S
C1602 H1594 0.950 . S
C1602 C1600 1.391 . S
C1602 C1603 1.400 . S
C1603 C1602 1.400 . S
C1603 C1604 1.398 . S
C1603 C1609 1.491 . S
C1604 H1595 0.950 . S
C1604 C1603 1.398 . S
C1604 C1605 1.391 . S
C1605 H1593 0.950 . S
C1605 C1601 1.393 . S
C1605 C1604 1.391 . S
C1606 H1596 0.950 . S
C1606 C1607 1.386 . S
C1606 C1608 1.391 . S
C1607 C1606 1.386 . S
C1607 C1611 1.393 . S
C1608 H1597 0.950 . S
C1608 C1606 1.391 . S
C1608 C1609 1.400 . S
C1609 C1603 1.491 . S
C1609 C1608 1.400 . S
C1609 C1610 1.398 . S
C1610 H1598 0.950 . S
C1610 C1609 1.398 . S
C1610 C1611 1.391 . S
C1611 H1599 0.950 . S
C1611 C1607 1.393 . S
C1611 C1610 1.391 . S
H1612 C1620 0.950 . S
H1613 C1625 0.950 . S
H1614 C1622 0.950 . S
H1615 C1624 0.950 . S
H1616 C1626 0.950 . S
H1617 C1628 0.950 . S
H1618 C1630 0.950 . S
H1619 C1631 0.950 . S
C1620 H1612 0.950 . S
C1620 C1621 1.386 . S
C1620 C1622 1.391 . S
C1621 C1620 1.386 . S
C1621 C1625 1.393 . S
C1622 H1614 0.950 . S
C1622 C1620 1.391 . S
C1622 C1623 1.400 . S
C1623 C1622 1.400 . S
C1623 C1624 1.398 . S
C1623 C1629 1.491 . S
C1624 H1615 0.950 . S
C1624 C1623 1.398 . S
C1624 C1625 1.391 . S
C1625 H1613 0.950 . S
C1625 C1621 1.393 . S
C1625 C1624 1.391 . S
C1626 H1616 0.950 . S
C1626 C1627 1.386 . S
C1626 C1628 1.391 . S
C1627 C1626 1.386 . S
C1627 C1631 1.393 . S
C1628 H1617 0.950 . S
C1628 C1626 1.391 . S
C1628 C1629 1.400 . S
C1629 C1623 1.491 . S
C1629 C1628 1.400 . S
C1629 C1630 1.398 . S
C1630 H1618 0.950 . S
C1630 C1629 1.398 . S
C1630 C1631 1.391 . S
C1631 H1619 0.950 . S
C1631 C1627 1.393 . S
C1631 C1630 1.391 . S
H1632 C1640 0.950 . S
H1633 C1645 0.950 . S
H1634 C1642 0.950 . S
H1635 C1644 0.950 . S
H1636 C1646 0.950 . S
H1637 C1648 0.950 . S
H1638 C1650 0.950 . S
H1639 C1651 0.950 . S
C1640 H1632 0.950 . S
C1640 C1641 1.386 . S
C1640 C1642 1.391 . S
C1641 C1640 1.386 . S
C1641 C1645 1.393 . S
C1642 H1634 0.950 . S
C1642 C1640 1.391 . S
C1642 C1643 1.400 . S
C1643 C1642 1.400 . S
C1643 C1644 1.398 . S
C1643 C1649 1.491 . S
C1644 H1635 0.950 . S
C1644 C1643 1.398 . S
C1644 C1645 1.391 . S
C1645 H1633 0.950 . S
C1645 C1641 1.393 . S
C1645 C1644 1.391 . S
C1646 H1636 0.950 . S
C1646 C1647 1.386 . S
C1646 C1648 1.391 . S
C1647 C1646 1.386 . S
C1647 C1651 1.393 . S
C1648 H1637 0.950 . S
C1648 C1646 1.391 . S
C1648 C1649 1.400 . S
C1649 C1643 1.491 . S
C1649 C1648 1.400 . S
C1649 C1650 1.398 . S
C1650 H1638 0.950 . S
C1650 C1649 1.398 . S
C1650 C1651 1.391 . S
C1651 H1639 0.950 . S
C1651 C1647 1.393 . S
C1651 C1650 1.391 . S
H1652 C1660 0.950 . S
H1653 C1665 0.950 . S
H1654 C1662 0.950 . S
H1655 C1664 0.950 . S
H1656 C1666 0.950 . S
H1657 C1668 0.950 . S
H1658 C1670 0.950 . S
H1659 C1671 0.950 . S
C1660 H1652 0.950 . S
C1660 C1661 1.386 . S
C1660 C1662 1.391 . S
C1661 C1660 1.386 . S
C1661 C1665 1.393 . S
C1662 H1654 0.950 . S
C1662 C1660 1.391 . S
C1662 C1663 1.400 . S
C1663 C1662 1.400 . S
C1663 C1664 1.398 . S
C1663 C1669 1.491 . S
C1664 H1655 0.950 . S
C1664 C1663 1.398 . S
C1664 C1665 1.391 . S
C1665 H1653 0.950 . S
C1665 C1661 1.393 . S
C1665 C1664 1.391 . S
C1666 H1656 0.950 . S
C1666 C1667 1.386 . S
C1666 C1668 1.391 . S
C1667 C1666 1.386 . S
C1667 C1671 1.393 . S
C1668 H1657 0.950 . S
C1668 C1666 1.391 . S
C1668 C1669 1.400 . S
C1669 C1663 1.491 . S
C1669 C1668 1.400 . S
C1669 C1670 1.398 . S
C1670 H1658 0.950 . S
C1670 C1669 1.398 . S
C1670 C1671 1.391 . S
C1671 H1659 0.950 . S
C1671 C1667 1.393 . S
C1671 C1670 1.391 . S
H1672 C1680 0.950 . S
H1673 C1685 0.950 . S
H1674 C1682 0.950 . S
H1675 C1684 0.957 . S
H1676 C1686 0.950 1_656 S
H1677 C1688 0.940 1_655 S
H1678 C1690 0.950 . S
H1679 C1691 0.950 . S
C1680 H1672 0.950 . S
C1680 C1681 1.386 . S
C1680 C1682 1.391 . S
C1681 C1680 1.386 . S
C1681 C1685 1.393 1_455 S
C1682 H1674 0.950 . S
C1682 C1680 1.391 . S
C1682 C1683 1.400 . S
C1683 C1682 1.400 . S
C1683 C1684 1.391 1_455 S
C1683 C1689 1.491 . S
C1684 H1675 0.957 . S
C1684 C1683 1.391 1_655 S
C1684 C1685 1.392 . S
C1685 H1673 0.950 . S
C1685 C1681 1.393 1_655 S
C1685 C1684 1.392 . S
C1686 H1676 0.950 1_454 S
C1686 C1687 1.386 . S
C1686 C1688 1.392 . S
C1687 C1686 1.386 . S
C1687 C1691 1.393 . S
C1688 H1677 0.940 1_455 S
C1688 C1686 1.392 . S
C1688 C1689 1.410 . S
C1689 C1683 1.491 . S
C1689 C1688 1.410 . S
C1689 C1690 1.398 . S
C1690 H1678 0.950 . S
C1690 C1689 1.398 . S
C1690 C1691 1.391 . S
C1691 H1679 0.950 . S
C1691 C1687 1.393 . S
C1691 C1690 1.391 . S
H1692 C1700 0.950 . S
H1693 C1705 0.950 . S
H1694 C1702 0.950 . S
H1695 C1704 0.950 . S
H1696 C1706 0.950 . S
H1697 C1708 0.950 . S
H1698 C1710 0.950 . S
H1699 C1711 0.950 . S
C1700 H1692 0.950 . S
C1700 C1701 1.386 . S
C1700 C1702 1.391 . S
C1701 C1700 1.386 . S
C1701 C1705 1.393 . S
C1702 H1694 0.950 . S
C1702 C1700 1.391 . S
C1702 C1703 1.400 . S
C1703 C1702 1.400 . S
C1703 C1704 1.398 . S
C1703 C1709 1.491 . S
C1704 H1695 0.950 . S
C1704 C1703 1.398 . S
C1704 C1705 1.391 . S
C1705 H1693 0.950 . S
C1705 C1701 1.393 . S
C1705 C1704 1.391 . S
C1706 H1696 0.950 . S
C1706 C1707 1.386 . S
C1706 C1708 1.391 . S
C1707 C1706 1.386 . S
C1707 C1711 1.393 . S
C1708 H1697 0.950 . S
C1708 C1706 1.391 . S
C1708 C1709 1.400 . S
C1709 C1703 1.491 . S
C1709 C1708 1.400 . S
C1709 C1710 1.398 . S
C1710 H1698 0.950 . S
C1710 C1709 1.398 . S
C1710 C1711 1.391 . S
C1711 H1699 0.950 . S
C1711 C1707 1.393 . S
C1711 C1710 1.391 . S
H1712 C1720 0.950 . S
H1713 C1725 0.950 . S
H1714 C1722 0.950 . S
H1715 C1724 0.950 . S
H1716 C1726 0.950 . S
H1717 C1728 0.950 . S
H1718 C1730 0.950 . S
H1719 C1731 0.950 . S
C1720 H1712 0.950 . S
C1720 C1721 1.386 . S
C1720 C1722 1.391 . S
C1721 C1720 1.386 . S
C1721 C1725 1.393 . S
C1722 H1714 0.950 . S
C1722 C1720 1.391 . S
C1722 C1723 1.400 . S
C1723 C1722 1.400 . S
C1723 C1724 1.398 . S
C1723 C1729 1.491 . S
C1724 H1715 0.950 . S
C1724 C1723 1.398 . S
C1724 C1725 1.391 . S
C1725 H1713 0.950 . S
C1725 C1721 1.393 . S
C1725 C1724 1.391 . S
C1726 H1716 0.950 . S
C1726 C1727 1.386 . S
C1726 C1728 1.391 . S
C1727 C1726 1.386 . S
C1727 C1731 1.393 . S
C1728 H1717 0.950 . S
C1728 C1726 1.391 . S
C1728 C1729 1.400 . S
C1729 C1723 1.491 . S
C1729 C1728 1.400 . S
C1729 C1730 1.398 . S
C1730 H1718 0.950 . S
C1730 C1729 1.398 . S
C1730 C1731 1.391 . S
C1731 H1719 0.950 . S
C1731 C1727 1.393 . S
C1731 C1730 1.391 . S
H1732 C1740 0.950 . S
H1733 C1745 0.950 . S
H1734 C1742 0.950 . S
H1735 C1744 0.950 . S
H1736 C1746 0.950 . S
H1737 C1748 0.950 . S
H1738 C1750 0.950 . S
H1739 C1751 0.950 . S
C1740 H1732 0.950 . S
C1740 C1741 1.386 . S
C1740 C1742 1.391 . S
C1741 C1740 1.386 . S
C1741 C1745 1.393 . S
C1742 H1734 0.950 . S
C1742 C1740 1.391 . S
C1742 C1743 1.400 . S
C1743 C1742 1.400 . S
C1743 C1744 1.398 . S
C1743 C1749 1.491 . S
C1744 H1735 0.950 . S
C1744 C1743 1.398 . S
C1744 C1745 1.391 . S
C1745 H1733 0.950 . S
C1745 C1741 1.393 . S
C1745 C1744 1.391 . S
C1746 H1736 0.950 . S
C1746 C1747 1.386 . S
C1746 C1748 1.391 . S
C1747 C1746 1.386 . S
C1747 C1751 1.393 . S
C1748 H1737 0.950 . S
C1748 C1746 1.391 . S
C1748 C1749 1.400 . S
C1749 C1743 1.491 . S
C1749 C1748 1.400 . S
C1749 C1750 1.398 . S
C1750 H1738 0.950 . S
C1750 C1749 1.398 . S
C1750 C1751 1.391 . S
C1751 H1739 0.950 . S
C1751 C1747 1.393 . S
C1751 C1750 1.391 . S
H1752 C1760 0.950 . S
H1753 C1765 0.950 . S
H1754 C1762 0.950 . S
H1755 C1764 0.950 . S
H1756 C1766 0.950 . S
H1757 C1768 0.950 . S
H1758 C1770 0.950 . S
H1759 C1771 0.950 . S
C1760 H1752 0.950 . S
C1760 C1761 1.386 . S
C1760 C1762 1.391 . S
C1761 C1760 1.386 . S
C1761 C1765 1.393 1_455 S
C1762 H1754 0.950 . S
C1762 C1760 1.391 . S
C1762 C1763 1.400 . S
C1763 C1762 1.400 . S
C1763 C1764 1.398 1_455 S
C1763 C1769 1.491 . S
C1764 H1755 0.950 . S
C1764 C1763 1.398 1_655 S
C1764 C1765 1.391 . S
C1765 H1753 0.950 . S
C1765 C1761 1.393 1_655 S
C1765 C1764 1.391 . S
C1766 H1756 0.950 . S
C1766 C1767 1.386 1_655 S
C1766 C1768 1.391 . S
C1767 C1766 1.386 1_455 S
C1767 C1771 1.393 . S
C1768 H1757 0.950 . S
C1768 C1766 1.391 . S
C1768 C1769 1.400 1_655 S
C1769 C1763 1.491 . S
C1769 C1768 1.400 1_455 S
C1769 C1770 1.398 . S
C1770 H1758 0.950 . S
C1770 C1769 1.398 . S
C1770 C1771 1.391 . S
C1771 H1759 0.950 . S
C1771 C1767 1.393 . S
C1771 C1770 1.391 . S
H1772 C1780 0.950 . S
H1773 C1785 0.950 . S
H1774 C1782 0.950 . S
H1775 C1784 0.950 . S
H1776 C1786 0.950 . S
H1777 C1788 0.950 . S
H1778 C1790 0.950 . S
H1779 C1791 0.950 . S
C1780 H1772 0.950 . S
C1780 C1781 1.386 . S
C1780 C1782 1.391 . S
C1781 C1780 1.386 . S
C1781 C1785 1.393 . S
C1782 H1774 0.950 . S
C1782 C1780 1.391 . S
C1782 C1783 1.400 . S
C1783 C1782 1.400 . S
C1783 C1784 1.398 . S
C1783 C1789 1.491 . S
C1784 H1775 0.950 . S
C1784 C1783 1.398 . S
C1784 C1785 1.391 . S
C1785 H1773 0.950 . S
C1785 C1781 1.393 . S
C1785 C1784 1.391 . S
C1786 H1776 0.950 . S
C1786 C1787 1.386 . S
C1786 C1788 1.391 . S
C1787 C1786 1.386 . S
C1787 C1791 1.393 . S
C1788 H1777 0.950 . S
C1788 C1786 1.391 . S
C1788 C1789 1.400 . S
C1789 C1783 1.491 . S
C1789 C1788 1.400 . S
C1789 C1790 1.398 . S
C1790 H1778 0.950 . S
C1790 C1789 1.398 . S
C1790 C1791 1.391 . S
C1791 H1779 0.950 . S
C1791 C1787 1.393 . S
C1791 C1790 1.391 . S
H1792 C1800 0.950 . S
H1793 C1805 0.950 . S
H1794 C1802 0.950 . S
H1795 C1804 0.950 . S
H1796 C1806 0.950 . S
H1797 C1808 0.950 . S
H1798 C1810 0.950 . S
H1799 C1811 0.950 . S
C1800 H1792 0.950 . S
C1800 C1801 1.386 . S
C1800 C1802 1.391 . S
C1801 C1800 1.386 . S
C1801 C1805 1.393 . S
C1802 H1794 0.950 . S
C1802 C1800 1.391 . S
C1802 C1803 1.400 . S
C1803 C1802 1.400 . S
C1803 C1804 1.398 . S
C1803 C1809 1.491 . S
C1804 H1795 0.950 . S
C1804 C1803 1.398 . S
C1804 C1805 1.391 . S
C1805 H1793 0.950 . S
C1805 C1801 1.393 . S
C1805 C1804 1.391 . S
C1806 H1796 0.950 . S
C1806 C1807 1.386 . S
C1806 C1808 1.391 . S
C1807 C1806 1.386 . S
C1807 C1811 1.393 . S
C1808 H1797 0.950 . S
C1808 C1806 1.391 . S
C1808 C1809 1.400 . S
C1809 C1803 1.491 . S
C1809 C1808 1.400 . S
C1809 C1810 1.398 . S
C1810 H1798 0.950 . S
C1810 C1809 1.398 . S
C1810 C1811 1.391 . S
C1811 H1799 0.950 . S
C1811 C1807 1.393 . S
C1811 C1810 1.391 . S
H1812 C1820 0.950 . S
H1813 C1825 0.950 . S
H1814 C1822 0.950 . S
H1815 C1824 0.950 . S
H1816 C1826 0.950 . S
H1817 C1828 0.950 . S
H1818 C1830 0.950 . S
H1819 C1831 0.950 . S
C1820 H1812 0.950 . S
C1820 C1821 1.386 . S
C1820 C1822 1.391 . S
C1821 C1820 1.386 . S
C1821 C1825 1.393 . S
C1822 H1814 0.950 . S
C1822 C1820 1.391 . S
C1822 C1823 1.400 . S
C1823 C1822 1.400 . S
C1823 C1824 1.398 . S
C1823 C1829 1.491 . S
C1824 H1815 0.950 . S
C1824 C1823 1.398 . S
C1824 C1825 1.391 . S
C1825 H1813 0.950 . S
C1825 C1821 1.393 . S
C1825 C1824 1.391 . S
C1826 H1816 0.950 . S
C1826 C1827 1.386 . S
C1826 C1828 1.391 . S
C1827 C1826 1.386 . S
C1827 C1831 1.393 . S
C1828 H1817 0.950 . S
C1828 C1826 1.391 . S
C1828 C1829 1.400 . S
C1829 C1823 1.491 . S
C1829 C1828 1.400 . S
C1829 C1830 1.398 . S
C1830 H1818 0.950 . S
C1830 C1829 1.398 . S
C1830 C1831 1.391 . S
C1831 H1819 0.950 . S
C1831 C1827 1.393 . S
C1831 C1830 1.391 . S
H1832 C1840 0.950 . S
H1833 C1845 0.950 . S
H1834 C1842 0.950 . S
H1835 C1844 0.950 . S
H1836 C1846 0.950 . S
H1837 C1848 0.950 . S
H1838 C1850 0.950 . S
H1839 C1851 0.950 1_455 S
C1840 H1832 0.950 . S
C1840 C1841 1.386 . S
C1840 C1842 1.391 . S
C1841 C1840 1.386 . S
C1841 C1845 1.393 . S
C1842 H1834 0.950 . S
C1842 C1840 1.391 . S
C1842 C1843 1.400 . S
C1843 C1842 1.400 . S
C1843 C1844 1.398 . S
C1843 C1849 1.491 . S
C1844 H1835 0.950 . S
C1844 C1843 1.398 . S
C1844 C1845 1.391 . S
C1845 H1833 0.950 . S
C1845 C1841 1.393 . S
C1845 C1844 1.391 . S
C1846 H1836 0.950 . S
C1846 C1847 1.386 . S
C1846 C1848 1.391 . S
C1847 C1846 1.386 . S
C1847 C1851 1.393 . S
C1848 H1837 0.950 . S
C1848 C1846 1.391 . S
C1848 C1849 1.400 . S
C1849 C1843 1.491 . S
C1849 C1848 1.400 . S
C1849 C1850 1.398 . S
C1850 H1838 0.950 . S
C1850 C1849 1.398 . S
C1850 C1851 1.391 . S
C1851 H1839 0.950 1_655 S
C1851 C1847 1.393 . S
C1851 C1850 1.391 . S
H1852 C1860 0.950 . S
H1853 C1865 0.950 . S
H1854 C1862 0.950 . S
H1855 C1864 0.950 . S
H1856 C1866 0.950 . S
H1857 C1868 0.950 . S
H1858 C1870 0.950 . S
H1859 C1871 0.950 . S
C1860 H1852 0.950 . S
C1860 C1861 1.386 . S
C1860 C1862 1.391 . S
C1861 C1860 1.386 . S
C1861 C1865 1.393 . S
C1862 H1854 0.950 . S
C1862 C1860 1.391 . S
C1862 C1863 1.400 . S
C1863 C1862 1.400 . S
C1863 C1864 1.398 . S
C1863 C1869 1.491 . S
C1864 H1855 0.950 . S
C1864 C1863 1.398 . S
C1864 C1865 1.391 . S
C1865 H1853 0.950 . S
C1865 C1861 1.393 . S
C1865 C1864 1.391 . S
C1866 H1856 0.950 . S
C1866 C1867 1.386 . S
C1866 C1868 1.391 . S
C1867 C1866 1.386 . S
C1867 C1871 1.393 . S
C1868 H1857 0.950 . S
C1868 C1866 1.391 . S
C1868 C1869 1.400 . S
C1869 C1863 1.491 . S
C1869 C1868 1.400 . S
C1869 C1870 1.398 . S
C1870 H1858 0.950 . S
C1870 C1869 1.398 . S
C1870 C1871 1.391 . S
C1871 H1859 0.950 . S
C1871 C1867 1.393 . S
C1871 C1870 1.391 . S
H1872 C1880 0.950 . S
H1873 C1885 0.950 . S
H1874 C1882 0.950 . S
H1875 C1884 0.950 . S
H1876 C1886 0.950 . S
H1877 C1888 0.950 . S
H1878 C1890 0.950 . S
H1879 C1891 0.950 . S
C1880 H1872 0.950 . S
C1880 C1881 1.386 . S
C1880 C1882 1.391 . S
C1881 C1880 1.386 . S
C1881 C1885 1.393 . S
C1882 H1874 0.950 . S
C1882 C1880 1.391 . S
C1882 C1883 1.400 . S
C1883 C1882 1.400 . S
C1883 C1884 1.398 . S
C1883 C1889 1.491 . S
C1884 H1875 0.950 . S
C1884 C1883 1.398 . S
C1884 C1885 1.391 . S
C1885 H1873 0.950 . S
C1885 C1881 1.393 . S
C1885 C1884 1.391 . S
C1886 H1876 0.950 . S
C1886 C1887 1.386 . S
C1886 C1888 1.391 . S
C1887 C1886 1.386 . S
C1887 C1891 1.393 . S
C1888 H1877 0.950 . S
C1888 C1886 1.391 . S
C1888 C1889 1.400 . S
C1889 C1883 1.491 . S
C1889 C1888 1.400 . S
C1889 C1890 1.398 . S
C1890 H1878 0.950 . S
C1890 C1889 1.398 . S
C1890 C1891 1.391 . S
C1891 H1879 0.950 . S
C1891 C1887 1.393 . S
C1891 C1890 1.391 . S
H1892 C1900 0.950 . S
H1893 C1905 0.950 . S
H1894 C1902 0.950 . S
H1895 C1904 0.950 . S
H1896 C1906 0.950 . S
H1897 C1908 0.950 . S
H1898 C1910 0.950 . S
H1899 C1911 0.950 . S
C1900 H1892 0.950 . S
C1900 C1901 1.386 . S
C1900 C1902 1.391 . S
C1901 C1900 1.386 . S
C1901 C1905 1.393 . S
C1902 H1894 0.950 . S
C1902 C1900 1.391 . S
C1902 C1903 1.400 . S
C1903 C1902 1.400 . S
C1903 C1904 1.398 . S
C1903 C1909 1.491 . S
C1904 H1895 0.950 . S
C1904 C1903 1.398 . S
C1904 C1905 1.391 . S
C1905 H1893 0.950 . S
C1905 C1901 1.393 . S
C1905 C1904 1.391 . S
C1906 H1896 0.950 . S
C1906 C1907 1.386 . S
C1906 C1908 1.391 . S
C1907 C1906 1.386 . S
C1907 C1911 1.393 . S
C1908 H1897 0.950 . S
C1908 C1906 1.391 . S
C1908 C1909 1.400 . S
C1909 C1903 1.491 . S
C1909 C1908 1.400 . S
C1909 C1910 1.398 . S
C1910 H1898 0.950 . S
C1910 C1909 1.398 . S
C1910 C1911 1.391 . S
C1911 H1899 0.950 . S
C1911 C1907 1.393 . S
C1911 C1910 1.391 . S
H1912 C1920 0.950 . S
H1913 C1925 0.950 . S
H1914 C1922 0.950 . S
H1915 C1924 0.950 . S
H1916 C1926 0.950 . S
H1917 C1928 0.950 . S
H1918 C1930 0.950 . S
H1919 C1931 0.950 . S
C1920 H1912 0.950 . S
C1920 C1921 1.386 . S
C1920 C1922 1.391 . S
C1921 C1920 1.386 . S
C1921 C1925 1.393 . S
C1922 H1914 0.950 . S
C1922 C1920 1.391 . S
C1922 C1923 1.400 . S
C1923 C1922 1.400 . S
C1923 C1924 1.398 . S
C1923 C1929 1.491 . S
C1924 H1915 0.950 . S
C1924 C1923 1.398 . S
C1924 C1925 1.391 . S
C1925 H1913 0.950 . S
C1925 C1921 1.393 . S
C1925 C1924 1.391 . S
C1926 H1916 0.950 . S
C1926 C1927 1.386 . S
C1926 C1928 1.391 . S
C1927 C1926 1.386 . S
C1927 C1931 1.393 . S
C1928 H1917 0.950 . S
C1928 C1926 1.391 . S
C1928 C1929 1.400 . S
C1929 C1923 1.491 . S
C1929 C1928 1.400 . S
C1929 C1930 1.398 . S
C1930 H1918 0.950 . S
C1930 C1929 1.398 . S
C1930 C1931 1.391 . S
C1931 H1919 0.950 . S
C1931 C1927 1.393 . S
C1931 C1930 1.391 . S
H1932 C1940 0.950 . S
H1933 C1945 0.950 . S
H1934 C1942 0.950 . S
H1935 C1944 0.950 . S
H1936 C1946 0.950 . S
H1937 C1948 0.950 . S
H1938 C1950 0.950 . S
H1939 C1951 0.950 . S
C1940 H1932 0.950 . S
C1940 C1941 1.386 . S
C1940 C1942 1.391 . S
C1941 C1940 1.386 . S
C1941 C1945 1.393 . S
C1942 H1934 0.950 . S
C1942 C1940 1.391 . S
C1942 C1943 1.400 . S
C1943 C1942 1.400 . S
C1943 C1944 1.398 . S
C1943 C1949 1.491 . S
C1944 H1935 0.950 . S
C1944 C1943 1.398 . S
C1944 C1945 1.391 . S
C1945 H1933 0.950 . S
C1945 C1941 1.393 . S
C1945 C1944 1.391 . S
C1946 H1936 0.950 . S
C1946 C1947 1.386 . S
C1946 C1948 1.391 . S
C1947 C1946 1.386 . S
C1947 C1951 1.393 . S
C1948 H1937 0.950 . S
C1948 C1946 1.391 . S
C1948 C1949 1.400 . S
C1949 C1943 1.491 . S
C1949 C1948 1.400 . S
C1949 C1950 1.398 . S
C1950 H1938 0.950 . S
C1950 C1949 1.398 . S
C1950 C1951 1.391 . S
C1951 H1939 0.950 . S
C1951 C1947 1.393 . S
C1951 C1950 1.391 . S
H1952 C1960 0.950 . S
H1953 C1965 0.950 . S
H1954 C1962 0.950 . S
H1955 C1964 0.950 . S
H1956 C1966 0.950 . S
H1957 C1968 0.950 . S
H1958 C1970 0.950 . S
H1959 C1971 0.950 . S
C1960 H1952 0.950 . S
C1960 C1961 1.386 . S
C1960 C1962 1.391 . S
C1961 C1960 1.386 . S
C1961 C1965 1.393 . S
C1962 H1954 0.950 . S
C1962 C1960 1.391 . S
C1962 C1963 1.400 . S
C1963 C1962 1.400 . S
C1963 C1964 1.398 . S
C1963 C1969 1.491 . S
C1964 H1955 0.950 . S
C1964 C1963 1.398 . S
C1964 C1965 1.391 . S
C1965 H1953 0.950 . S
C1965 C1961 1.393 . S
C1965 C1964 1.391 . S
C1966 H1956 0.950 . S
C1966 C1967 1.386 . S
C1966 C1968 1.391 . S
C1967 C1966 1.386 . S
C1967 C1971 1.393 . S
C1968 H1957 0.950 . S
C1968 C1966 1.391 . S
C1968 C1969 1.400 . S
C1969 C1963 1.491 . S
C1969 C1968 1.400 . S
C1969 C1970 1.398 . S
C1970 H1958 0.950 . S
C1970 C1969 1.398 . S
C1970 C1971 1.391 . S
C1971 H1959 0.950 . S
C1971 C1967 1.393 . S
C1971 C1970 1.391 . S
H1972 C1980 0.950 . S
H1973 C1985 0.950 . S
H1974 C1982 0.950 . S
H1975 C1984 0.950 . S
H1976 C1986 0.950 1_545 S
H1977 C1988 0.950 . S
H1978 C1990 0.950 . S
H1979 C1991 0.950 . S
C1980 H1972 0.950 . S
C1980 C1981 1.386 . S
C1980 C1982 1.391 . S
C1981 C1980 1.386 . S
C1981 C1985 1.393 . S
C1982 H1974 0.950 . S
C1982 C1980 1.391 . S
C1982 C1983 1.400 . S
C1983 C1982 1.400 . S
C1983 C1984 1.398 . S
C1983 C1989 1.491 . S
C1984 H1975 0.950 . S
C1984 C1983 1.398 . S
C1984 C1985 1.391 . S
C1985 H1973 0.950 . S
C1985 C1981 1.393 . S
C1985 C1984 1.391 . S
C1986 H1976 0.950 1_565 S
C1986 C1987 1.386 . S
C1986 C1988 1.391 . S
C1987 C1986 1.386 . S
C1987 C1991 1.393 . S
C1988 H1977 0.950 . S
C1988 C1986 1.391 . S
C1988 C1989 1.400 . S
C1989 C1983 1.491 . S
C1989 C1988 1.400 . S
C1989 C1990 1.398 . S
C1990 H1978 0.950 . S
C1990 C1989 1.398 . S
C1990 C1991 1.391 . S
C1991 H1979 0.950 . S
C1991 C1987 1.393 . S
C1991 C1990 1.391 . S
H1992 C2000 0.950 . S
H1993 C2005 0.950 . S
H1994 C2002 0.950 . S
H1995 C2004 0.950 . S
H1996 C2006 0.950 . S
H1997 C2008 0.950 . S
H1998 C2010 0.950 . S
H1999 C2011 0.950 . S
C2000 H1992 0.950 . S
C2000 C2001 1.386 . S
C2000 C2002 1.391 . S
C2001 C2000 1.386 . S
C2001 C2005 1.393 . S
C2002 H1994 0.950 . S
C2002 C2000 1.391 . S
C2002 C2003 1.400 . S
C2003 C2002 1.400 . S
C2003 C2004 1.398 . S
C2003 C2009 1.491 . S
C2004 H1995 0.950 . S
C2004 C2003 1.398 . S
C2004 C2005 1.391 . S
C2005 H1993 0.950 . S
C2005 C2001 1.393 . S
C2005 C2004 1.391 . S
C2006 H1996 0.950 . S
C2006 C2007 1.386 . S
C2006 C2008 1.391 . S
C2007 C2006 1.386 . S
C2007 C2011 1.393 . S
C2008 H1997 0.950 . S
C2008 C2006 1.391 . S
C2008 C2009 1.400 . S
C2009 C2003 1.491 . S
C2009 C2008 1.400 . S
C2009 C2010 1.398 . S
C2010 H1998 0.950 . S
C2010 C2009 1.398 . S
C2010 C2011 1.391 . S
C2011 H1999 0.950 . S
C2011 C2007 1.393 . S
C2011 C2010 1.391 . S
H2012 C2020 0.950 . S
H2013 C2025 0.950 1_556 S
H2014 C2022 0.950 . S
H2015 C2024 0.946 1_556 S
H2016 C2026 0.949 1_566 S
H2017 C2028 0.950 1_556 S
H2018 C2030 0.950 . S
H2019 C2031 0.950 . S
C2020 H2012 0.950 . S
C2020 C2021 1.386 . S
C2020 C2022 1.391 . S
C2021 C2020 1.386 . S
C2021 C2025 1.393 . S
C2022 H2014 0.950 . S
C2022 C2020 1.391 . S
C2022 C2023 1.400 . S
C2023 C2022 1.400 . S
C2023 C2024 1.398 . S
C2023 C2029 1.491 . S
C2024 H2015 0.946 1_554 S
C2024 C2023 1.398 . S
C2024 C2025 1.391 . S
C2025 H2013 0.950 1_554 S
C2025 C2021 1.393 . S
C2025 C2024 1.391 . S
C2026 H2016 0.949 1_544 S
C2026 C2027 1.386 . S
C2026 C2028 1.391 . S
C2027 C2026 1.386 . S
C2027 C2031 1.393 . S
C2028 H2017 0.950 1_554 S
C2028 C2026 1.391 . S
C2028 C2029 1.400 . S
C2029 C2023 1.491 . S
C2029 C2028 1.400 . S
C2029 C2030 1.398 . S
C2030 H2018 0.950 . S
C2030 C2029 1.398 . S
C2030 C2031 1.391 . S
C2031 H2019 0.950 . S
C2031 C2027 1.393 . S
C2031 C2030 1.391 . S
H2032 C2040 0.950 . S
H2033 C2045 0.950 . S
H2034 C2042 0.950 . S
H2035 C2044 0.950 . S
H2036 C2046 0.950 . S
H2037 C2048 0.950 . S
H2038 C2050 0.950 . S
H2039 C2051 0.950 . S
C2040 H2032 0.950 . S
C2040 C2041 1.386 . S
C2040 C2042 1.391 . S
C2041 C2040 1.386 . S
C2041 C2045 1.393 . S
C2042 H2034 0.950 . S
C2042 C2040 1.391 . S
C2042 C2043 1.400 . S
C2043 C2042 1.400 . S
C2043 C2044 1.398 . S
C2043 C2049 1.491 . S
C2044 H2035 0.950 . S
C2044 C2043 1.398 . S
C2044 C2045 1.391 . S
C2045 H2033 0.950 . S
C2045 C2041 1.393 . S
C2045 C2044 1.391 . S
C2046 H2036 0.950 . S
C2046 C2047 1.386 . S
C2046 C2048 1.391 . S
C2047 C2046 1.386 . S
C2047 C2051 1.393 . S
C2048 H2037 0.950 . S
C2048 C2046 1.391 . S
C2048 C2049 1.400 . S
C2049 C2043 1.491 . S
C2049 C2048 1.400 . S
C2049 C2050 1.398 . S
C2050 H2038 0.950 . S
C2050 C2049 1.398 . S
C2050 C2051 1.391 . S
C2051 H2039 0.950 . S
C2051 C2047 1.393 . S
C2051 C2050 1.391 . S
H2052 C2060 0.950 . S
H2053 C2065 0.950 . S
H2054 C2062 0.950 . S
H2055 C2064 0.950 . S
H2056 C2066 0.950 . S
H2057 C2068 0.950 . S
H2058 C2070 0.950 . S
H2059 C2071 0.950 . S
C2060 H2052 0.950 . S
C2060 C2061 1.386 . S
C2060 C2062 1.391 . S
C2061 C2060 1.386 . S
C2061 C2065 1.393 1_554 S
C2062 H2054 0.950 . S
C2062 C2060 1.391 . S
C2062 C2063 1.401 1_554 S
C2063 C2062 1.401 1_556 S
C2063 C2064 1.397 . S
C2063 C2069 1.490 . S
C2064 H2055 0.950 . S
C2064 C2063 1.397 . S
C2064 C2065 1.391 . S
C2065 H2053 0.950 . S
C2065 C2061 1.393 1_556 S
C2065 C2064 1.391 . S
C2066 H2056 0.950 . S
C2066 C2067 1.386 . S
C2066 C2068 1.391 . S
C2067 C2066 1.386 . S
C2067 C2071 1.393 1_556 S
C2068 H2057 0.950 . S
C2068 C2066 1.391 . S
C2068 C2069 1.408 . S
C2069 C2063 1.490 . S
C2069 C2068 1.408 . S
C2069 C2070 1.392 1_556 S
C2070 H2058 0.950 . S
C2070 C2069 1.392 1_554 S
C2070 C2071 1.391 . S
C2071 H2059 0.950 . S
C2071 C2067 1.393 1_554 S
C2071 C2070 1.391 . S
H2072 C2080 0.950 . S
H2073 C2085 0.950 . S
H2074 C2082 0.950 . S
H2075 C2084 0.950 . S
H2076 C2086 0.950 . S
H2077 C2088 0.950 . S
H2078 C2090 0.950 . S
H2079 C2091 0.950 . S
C2080 H2072 0.950 . S
C2080 C2081 1.386 . S
C2080 C2082 1.391 . S
C2081 C2080 1.386 . S
C2081 C2085 1.393 . S
C2082 H2074 0.950 . S
C2082 C2080 1.391 . S
C2082 C2083 1.400 . S
C2083 C2082 1.400 . S
C2083 C2084 1.398 . S
C2083 C2089 1.491 . S
C2084 H2075 0.950 . S
C2084 C2083 1.398 . S
C2084 C2085 1.391 . S
C2085 H2073 0.950 . S
C2085 C2081 1.393 . S
C2085 C2084 1.391 . S
C2086 H2076 0.950 . S
C2086 C2087 1.386 . S
C2086 C2088 1.391 . S
C2087 C2086 1.386 . S
C2087 C2091 1.393 . S
C2088 H2077 0.950 . S
C2088 C2086 1.391 . S
C2088 C2089 1.400 . S
C2089 C2083 1.491 . S
C2089 C2088 1.400 . S
C2089 C2090 1.398 . S
C2090 H2078 0.950 . S
C2090 C2089 1.398 . S
C2090 C2091 1.391 . S
C2091 H2079 0.950 . S
C2091 C2087 1.393 . S
C2091 C2090 1.391 . S
H2092 C2100 0.950 . S
H2093 C2105 0.950 . S
H2094 C2102 0.950 . S
H2095 C2104 0.950 . S
H2096 C2106 0.950 . S
H2097 C2108 0.950 . S
H2098 C2110 0.950 . S
H2099 C2111 0.950 . S
C2100 H2092 0.950 . S
C2100 C2101 1.386 . S
C2100 C2102 1.391 . S
C2101 C2100 1.386 . S
C2101 C2105 1.393 . S
C2102 H2094 0.950 . S
C2102 C2100 1.391 . S
C2102 C2103 1.400 . S
C2103 C2102 1.400 . S
C2103 C2104 1.398 . S
C2103 C2109 1.491 . S
C2104 H2095 0.950 . S
C2104 C2103 1.398 . S
C2104 C2105 1.391 . S
C2105 H2093 0.950 . S
C2105 C2101 1.393 . S
C2105 C2104 1.391 . S
C2106 H2096 0.950 . S
C2106 C2107 1.386 . S
C2106 C2108 1.391 . S
C2107 C2106 1.386 . S
C2107 C2111 1.393 . S
C2108 H2097 0.950 . S
C2108 C2106 1.391 . S
C2108 C2109 1.400 . S
C2109 C2103 1.491 . S
C2109 C2108 1.400 . S
C2109 C2110 1.398 . S
C2110 H2098 0.950 . S
C2110 C2109 1.398 . S
C2110 C2111 1.391 . S
C2111 H2099 0.950 . S
C2111 C2107 1.393 . S
C2111 C2110 1.391 . S
H2112 C2120 0.950 . S
H2113 C2125 0.950 . S
H2114 C2122 0.950 . S
H2115 C2124 0.950 . S
H2116 C2126 0.950 . S
H2117 C2128 0.950 . S
H2118 C2130 0.950 . S
H2119 C2131 0.950 . S
C2120 H2112 0.950 . S
C2120 C2121 1.386 . S
C2120 C2122 1.391 . S
C2121 C2120 1.386 . S
C2121 C2125 1.393 . S
C2122 H2114 0.950 . S
C2122 C2120 1.391 . S
C2122 C2123 1.400 . S
C2123 C2122 1.400 . S
C2123 C2124 1.398 . S
C2123 C2129 1.491 . S
C2124 H2115 0.950 . S
C2124 C2123 1.398 . S
C2124 C2125 1.391 . S
C2125 H2113 0.950 . S
C2125 C2121 1.393 . S
C2125 C2124 1.391 . S
C2126 H2116 0.950 . S
C2126 C2127 1.386 . S
C2126 C2128 1.391 . S
C2127 C2126 1.386 . S
C2127 C2131 1.393 . S
C2128 H2117 0.950 . S
C2128 C2126 1.391 . S
C2128 C2129 1.400 . S
C2129 C2123 1.491 . S
C2129 C2128 1.400 . S
C2129 C2130 1.398 . S
C2130 H2118 0.950 . S
C2130 C2129 1.398 . S
C2130 C2131 1.391 . S
C2131 H2119 0.950 . S
C2131 C2127 1.393 . S
C2131 C2130 1.391 . S
H2132 C2140 0.950 . S
H2133 C2145 0.950 . S
H2134 C2142 0.950 . S
H2135 C2144 0.950 . S
H2136 C2146 0.950 . S
H2137 C2148 0.950 . S
H2138 C2150 0.950 . S
H2139 C2151 0.950 . S
C2140 H2132 0.950 . S
C2140 C2141 1.386 . S
C2140 C2142 1.391 . S
C2141 C2140 1.386 . S
C2141 C2145 1.393 . S
C2142 H2134 0.950 . S
C2142 C2140 1.391 . S
C2142 C2143 1.400 . S
C2143 C2142 1.400 . S
C2143 C2144 1.398 . S
C2143 C2149 1.491 . S
C2144 H2135 0.950 . S
C2144 C2143 1.398 . S
C2144 C2145 1.391 . S
C2145 H2133 0.950 . S
C2145 C2141 1.393 . S
C2145 C2144 1.391 . S
C2146 H2136 0.950 . S
C2146 C2147 1.386 . S
C2146 C2148 1.391 . S
C2147 C2146 1.386 . S
C2147 C2151 1.393 . S
C2148 H2137 0.950 . S
C2148 C2146 1.391 . S
C2148 C2149 1.400 . S
C2149 C2143 1.491 . S
C2149 C2148 1.400 . S
C2149 C2150 1.398 . S
C2150 H2138 0.950 . S
C2150 C2149 1.398 . S
C2150 C2151 1.391 . S
C2151 H2139 0.950 . S
C2151 C2147 1.393 . S
C2151 C2150 1.391 . S
H2152 C2160 0.950 . S
H2153 C2165 0.950 . S
H2154 C2162 0.950 . S
H2155 C2164 0.950 . S
H2156 C2166 0.950 . S
H2157 C2168 0.950 . S
H2158 C2170 0.950 . S
H2159 C2171 0.950 . S
C2160 H2152 0.950 . S
C2160 C2161 1.386 . S
C2160 C2162 1.391 . S
C2161 C2160 1.386 . S
C2161 C2165 1.393 1_455 S
C2162 H2154 0.950 . S
C2162 C2160 1.391 . S
C2162 C2163 1.400 . S
C2163 C2162 1.400 . S
C2163 C2164 1.398 1_455 S
C2163 C2169 1.491 . S
C2164 H2155 0.950 . S
C2164 C2163 1.398 1_655 S
C2164 C2165 1.391 . S
C2165 H2153 0.950 . S
C2165 C2161 1.393 1_655 S
C2165 C2164 1.391 . S
C2166 H2156 0.950 . S
C2166 C2167 1.386 . S
C2166 C2168 1.391 . S
C2167 C2166 1.386 . S
C2167 C2171 1.393 1_655 S
C2168 H2157 0.950 . S
C2168 C2166 1.391 . S
C2168 C2169 1.400 1_655 S
C2169 C2163 1.491 . S
C2169 C2168 1.400 1_455 S
C2169 C2170 1.398 . S
C2170 H2158 0.950 . S
C2170 C2169 1.398 . S
C2170 C2171 1.391 . S
C2171 H2159 0.950 . S
C2171 C2167 1.393 1_455 S
C2171 C2170 1.391 . S
H2172 C2180 0.950 . S
H2173 C2185 0.950 . S
H2174 C2182 0.950 . S
H2175 C2184 0.950 . S
H2176 C2186 0.950 . S
H2177 C2188 0.950 . S
H2178 C2190 0.950 . S
H2179 C2191 0.950 . S
C2180 H2172 0.950 . S
C2180 C2181 1.386 . S
C2180 C2182 1.391 . S
C2181 C2180 1.386 . S
C2181 C2185 1.393 . S
C2182 H2174 0.950 . S
C2182 C2180 1.391 . S
C2182 C2183 1.400 . S
C2183 C2182 1.400 . S
C2183 C2184 1.398 . S
C2183 C2189 1.491 . S
C2184 H2175 0.950 . S
C2184 C2183 1.398 . S
C2184 C2185 1.391 . S
C2185 H2173 0.950 . S
C2185 C2181 1.393 . S
C2185 C2184 1.391 . S
C2186 H2176 0.950 . S
C2186 C2187 1.386 . S
C2186 C2188 1.391 . S
C2187 C2186 1.386 . S
C2187 C2191 1.393 . S
C2188 H2177 0.950 . S
C2188 C2186 1.391 . S
C2188 C2189 1.400 . S
C2189 C2183 1.491 . S
C2189 C2188 1.400 . S
C2189 C2190 1.398 . S
C2190 H2178 0.950 . S
C2190 C2189 1.398 . S
C2190 C2191 1.391 . S
C2191 H2179 0.950 . S
C2191 C2187 1.393 . S
C2191 C2190 1.391 . S
H2192 C2200 0.950 . S
H2193 C2205 0.950 . S
H2194 C2202 0.950 . S
H2195 C2204 0.950 . S
H2196 C2206 0.950 . S
H2197 C2208 0.950 . S
H2198 C2210 0.950 . S
H2199 C2211 0.950 . S
C2200 H2192 0.950 . S
C2200 C2201 1.386 . S
C2200 C2202 1.391 . S
C2201 C2200 1.386 . S
C2201 C2205 1.393 . S
C2202 H2194 0.950 . S
C2202 C2200 1.391 . S
C2202 C2203 1.400 . S
C2203 C2202 1.400 . S
C2203 C2204 1.398 . S
C2203 C2209 1.491 . S
C2204 H2195 0.950 . S
C2204 C2203 1.398 . S
C2204 C2205 1.391 . S
C2205 H2193 0.950 . S
C2205 C2201 1.393 . S
C2205 C2204 1.391 . S
C2206 H2196 0.950 . S
C2206 C2207 1.386 . S
C2206 C2208 1.391 . S
C2207 C2206 1.386 . S
C2207 C2211 1.393 . S
C2208 H2197 0.950 . S
C2208 C2206 1.391 . S
C2208 C2209 1.400 . S
C2209 C2203 1.491 . S
C2209 C2208 1.400 . S
C2209 C2210 1.398 . S
C2210 H2198 0.950 . S
C2210 C2209 1.398 . S
C2210 C2211 1.391 . S
C2211 H2199 0.950 . S
C2211 C2207 1.393 . S
C2211 C2210 1.391 . S
H2212 C2220 0.950 . S
H2213 C2225 0.950 . S
H2214 C2222 0.950 . S
H2215 C2224 0.950 . S
H2216 C2226 0.950 . S
H2217 C2228 0.950 . S
H2218 C2230 0.950 . S
H2219 C2231 0.950 . S
C2220 H2212 0.950 . S
C2220 C2221 1.386 . S
C2220 C2222 1.391 . S
C2221 C2220 1.386 . S
C2221 C2225 1.393 . S
C2222 H2214 0.950 . S
C2222 C2220 1.391 . S
C2222 C2223 1.400 . S
C2223 C2222 1.400 . S
C2223 C2224 1.398 . S
C2223 C2229 1.491 . S
C2224 H2215 0.950 . S
C2224 C2223 1.398 . S
C2224 C2225 1.391 . S
C2225 H2213 0.950 . S
C2225 C2221 1.393 . S
C2225 C2224 1.391 . S
C2226 H2216 0.950 . S
C2226 C2227 1.386 . S
C2226 C2228 1.391 . S
C2227 C2226 1.386 . S
C2227 C2231 1.393 . S
C2228 H2217 0.950 . S
C2228 C2226 1.391 . S
C2228 C2229 1.400 . S
C2229 C2223 1.491 . S
C2229 C2228 1.400 . S
C2229 C2230 1.398 . S
C2230 H2218 0.950 . S
C2230 C2229 1.398 . S
C2230 C2231 1.391 . S
C2231 H2219 0.950 . S
C2231 C2227 1.393 . S
C2231 C2230 1.391 . S
H2232 C2240 0.950 . S
H2233 C2245 0.950 . S
H2234 C2242 0.950 . S
H2235 C2244 0.950 . S
H2236 C2246 0.950 . S
H2237 C2248 0.950 . S
H2238 C2250 0.950 . S
H2239 C2251 0.950 . S
C2240 H2232 0.950 . S
C2240 C2241 1.386 . S
C2240 C2242 1.391 . S
C2241 C2240 1.386 . S
C2241 C2245 1.393 1_455 S
C2242 H2234 0.950 . S
C2242 C2240 1.391 . S
C2242 C2243 1.409 . S
C2243 C2242 1.409 . S
C2243 C2244 1.391 1_455 S
C2243 C2249 1.490 1_455 S
C2244 H2235 0.950 . S
C2244 C2243 1.391 1_655 S
C2244 C2245 1.391 . S
C2245 H2233 0.950 . S
C2245 C2241 1.393 1_655 S
C2245 C2244 1.391 . S
C2246 H2236 0.950 . S
C2246 C2247 1.386 . S
C2246 C2248 1.391 . S
C2247 C2246 1.386 . S
C2247 C2251 1.393 1_655 S
C2248 H2237 0.950 . S
C2248 C2246 1.391 . S
C2248 C2249 1.400 . S
C2249 C2243 1.490 1_655 S
C2249 C2248 1.400 . S
C2249 C2250 1.398 1_655 S
C2250 H2238 0.950 . S
C2250 C2249 1.398 1_455 S
C2250 C2251 1.391 . S
C2251 H2239 0.950 . S
C2251 C2247 1.393 1_455 S
C2251 C2250 1.391 . S
H2252 C2260 0.950 . S
H2253 C2265 0.950 . S
H2254 C2262 0.950 . S
H2255 C2264 0.950 . S
H2256 C2266 0.950 . S
H2257 C2268 0.950 . S
H2258 C2270 0.950 . S
H2259 C2271 0.950 . S
C2260 H2252 0.950 . S
C2260 C2261 1.386 . S
C2260 C2262 1.391 . S
C2261 C2260 1.386 . S
C2261 C2265 1.393 . S
C2262 H2254 0.950 . S
C2262 C2260 1.391 . S
C2262 C2263 1.400 . S
C2263 C2262 1.400 . S
C2263 C2264 1.398 . S
C2263 C2269 1.491 . S
C2264 H2255 0.950 . S
C2264 C2263 1.398 . S
C2264 C2265 1.391 . S
C2265 H2253 0.950 . S
C2265 C2261 1.393 . S
C2265 C2264 1.391 . S
C2266 H2256 0.950 . S
C2266 C2267 1.386 . S
C2266 C2268 1.391 . S
C2267 C2266 1.386 . S
C2267 C2271 1.393 . S
C2268 H2257 0.950 . S
C2268 C2266 1.391 . S
C2268 C2269 1.400 . S
C2269 C2263 1.491 . S
C2269 C2268 1.400 . S
C2269 C2270 1.398 . S
C2270 H2258 0.950 . S
C2270 C2269 1.398 . S
C2270 C2271 1.391 . S
C2271 H2259 0.950 . S
C2271 C2267 1.393 . S
C2271 C2270 1.391 . S
H2272 C2280 0.950 . S
H2273 C2285 0.950 . S
H2274 C2282 0.950 . S
H2275 C2284 0.950 . S
H2276 C2286 0.950 . S
H2277 C2288 0.950 . S
H2278 C2290 0.950 . S
H2279 C2291 0.950 . S
C2280 H2272 0.950 . S
C2280 C2281 1.386 . S
C2280 C2282 1.391 . S
C2281 C2280 1.386 . S
C2281 C2285 1.393 . S
C2282 H2274 0.950 . S
C2282 C2280 1.391 . S
C2282 C2283 1.400 . S
C2283 C2282 1.400 . S
C2283 C2284 1.398 . S
C2283 C2289 1.491 . S
C2284 H2275 0.950 . S
C2284 C2283 1.398 . S
C2284 C2285 1.391 . S
C2285 H2273 0.950 . S
C2285 C2281 1.393 . S
C2285 C2284 1.391 . S
C2286 H2276 0.950 . S
C2286 C2287 1.386 . S
C2286 C2288 1.391 . S
C2287 C2286 1.386 . S
C2287 C2291 1.393 . S
C2288 H2277 0.950 . S
C2288 C2286 1.391 . S
C2288 C2289 1.400 . S
C2289 C2283 1.491 . S
C2289 C2288 1.400 . S
C2289 C2290 1.398 . S
C2290 H2278 0.950 . S
C2290 C2289 1.398 . S
C2290 C2291 1.391 . S
C2291 H2279 0.950 . S
C2291 C2287 1.393 . S
C2291 C2290 1.391 . S
H2292 C2300 0.950 . S
H2293 C2305 0.950 . S
H2294 C2302 0.950 . S
H2295 C2304 0.950 . S
H2296 C2306 0.950 . S
H2297 C2308 0.950 . S
H2298 C2310 0.950 . S
H2299 C2311 0.950 . S
C2300 H2292 0.950 . S
C2300 C2301 1.386 . S
C2300 C2302 1.391 . S
C2301 C2300 1.386 . S
C2301 C2305 1.393 . S
C2302 H2294 0.950 . S
C2302 C2300 1.391 . S
C2302 C2303 1.400 . S
C2303 C2302 1.400 . S
C2303 C2304 1.398 . S
C2303 C2309 1.491 . S
C2304 H2295 0.950 . S
C2304 C2303 1.398 . S
C2304 C2305 1.391 . S
C2305 H2293 0.950 . S
C2305 C2301 1.393 . S
C2305 C2304 1.391 . S
C2306 H2296 0.950 . S
C2306 C2307 1.386 . S
C2306 C2308 1.391 . S
C2307 C2306 1.386 . S
C2307 C2311 1.393 . S
C2308 H2297 0.950 . S
C2308 C2306 1.391 . S
C2308 C2309 1.400 . S
C2309 C2303 1.491 . S
C2309 C2308 1.400 . S
C2309 C2310 1.398 . S
C2310 H2298 0.950 . S
C2310 C2309 1.398 . S
C2310 C2311 1.391 . S
C2311 H2299 0.950 . S
C2311 C2307 1.393 . S
C2311 C2310 1.391 . S
H2312 C2320 0.950 . S
H2313 C2325 0.950 . S
H2314 C2322 0.950 . S
H2315 C2324 0.950 . S
H2316 C2326 0.950 . S
H2317 C2328 0.950 . S
H2318 C2330 0.950 . S
H2319 C2331 0.950 . S
C2320 H2312 0.950 . S
C2320 C2321 1.386 . S
C2320 C2322 1.391 . S
C2321 C2320 1.386 . S
C2321 C2325 1.393 . S
C2322 H2314 0.950 . S
C2322 C2320 1.391 . S
C2322 C2323 1.400 . S
C2323 C2322 1.400 . S
C2323 C2324 1.398 . S
C2323 C2329 1.491 . S
C2324 H2315 0.950 . S
C2324 C2323 1.398 . S
C2324 C2325 1.391 . S
C2325 H2313 0.950 . S
C2325 C2321 1.393 . S
C2325 C2324 1.391 . S
C2326 H2316 0.950 . S
C2326 C2327 1.386 . S
C2326 C2328 1.391 . S
C2327 C2326 1.386 . S
C2327 C2331 1.393 . S
C2328 H2317 0.950 . S
C2328 C2326 1.391 . S
C2328 C2329 1.400 . S
C2329 C2323 1.491 . S
C2329 C2328 1.400 . S
C2329 C2330 1.398 . S
C2330 H2318 0.950 . S
C2330 C2329 1.398 . S
C2330 C2331 1.391 . S
C2331 H2319 0.950 . S
C2331 C2327 1.393 . S
C2331 C2330 1.391 . S
H2332 C2340 0.950 . S
H2333 C2345 0.950 . S
H2334 C2342 0.950 . S
H2335 C2344 0.950 . S
H2336 C2346 0.950 . S
H2337 C2348 0.950 . S
H2338 C2350 0.950 . S
H2339 C2351 0.950 . S
C2340 H2332 0.950 . S
C2340 C2341 1.386 . S
C2340 C2342 1.391 . S
C2341 C2340 1.386 . S
C2341 C2345 1.393 . S
C2342 H2334 0.950 . S
C2342 C2340 1.391 . S
C2342 C2343 1.400 . S
C2343 C2342 1.400 . S
C2343 C2344 1.398 . S
C2343 C2349 1.491 . S
C2344 H2335 0.950 . S
C2344 C2343 1.398 . S
C2344 C2345 1.391 . S
C2345 H2333 0.950 . S
C2345 C2341 1.393 . S
C2345 C2344 1.391 . S
C2346 H2336 0.950 . S
C2346 C2347 1.386 . S
C2346 C2348 1.391 . S
C2347 C2346 1.386 . S
C2347 C2351 1.393 . S
C2348 H2337 0.950 . S
C2348 C2346 1.391 . S
C2348 C2349 1.400 . S
C2349 C2343 1.491 . S
C2349 C2348 1.400 . S
C2349 C2350 1.398 . S
C2350 H2338 0.950 . S
C2350 C2349 1.398 . S
C2350 C2351 1.391 . S
C2351 H2339 0.950 . S
C2351 C2347 1.393 . S
C2351 C2350 1.391 . S
H2352 C2360 0.950 . S
H2353 C2365 0.950 . S
H2354 C2362 0.950 . S
H2355 C2364 0.950 . S
H2356 C2366 0.950 . S
H2357 C2368 0.950 . S
H2358 C2370 0.950 . S
H2359 C2371 0.950 . S
C2360 H2352 0.950 . S
C2360 C2361 1.386 . S
C2360 C2362 1.391 . S
C2361 C2360 1.386 . S
C2361 C2365 1.393 . S
C2362 H2354 0.950 . S
C2362 C2360 1.391 . S
C2362 C2363 1.400 . S
C2363 C2362 1.400 . S
C2363 C2364 1.398 . S
C2363 C2369 1.491 . S
C2364 H2355 0.950 . S
C2364 C2363 1.398 . S
C2364 C2365 1.391 . S
C2365 H2353 0.950 . S
C2365 C2361 1.393 . S
C2365 C2364 1.391 . S
C2366 H2356 0.950 . S
C2366 C2367 1.386 . S
C2366 C2368 1.391 . S
C2367 C2366 1.386 . S
C2367 C2371 1.393 . S
C2368 H2357 0.950 . S
C2368 C2366 1.391 . S
C2368 C2369 1.400 . S
C2369 C2363 1.491 . S
C2369 C2368 1.400 . S
C2369 C2370 1.398 . S
C2370 H2358 0.950 . S
C2370 C2369 1.398 . S
C2370 C2371 1.391 . S
C2371 H2359 0.950 . S
C2371 C2367 1.393 . S
C2371 C2370 1.391 . S
H2372 C2380 0.950 . S
H2373 C2385 0.950 . S
H2374 C2382 0.950 . S
H2375 C2384 0.950 . S
H2376 C2386 0.950 . S
H2377 C2388 0.950 . S
H2378 C2390 0.950 . S
H2379 C2391 0.950 . S
C2380 H2372 0.950 . S
C2380 C2381 1.386 . S
C2380 C2382 1.391 . S
C2381 C2380 1.386 . S
C2381 C2385 1.393 . S
C2382 H2374 0.950 . S
C2382 C2380 1.391 . S
C2382 C2383 1.400 . S
C2383 C2382 1.400 . S
C2383 C2384 1.398 . S
C2383 C2389 1.491 . S
C2384 H2375 0.950 . S
C2384 C2383 1.398 . S
C2384 C2385 1.391 . S
C2385 H2373 0.950 . S
C2385 C2381 1.393 . S
C2385 C2384 1.391 . S
C2386 H2376 0.950 . S
C2386 C2387 1.386 . S
C2386 C2388 1.391 . S
C2387 C2386 1.386 . S
C2387 C2391 1.393 . S
C2388 H2377 0.950 . S
C2388 C2386 1.391 . S
C2388 C2389 1.400 . S
C2389 C2383 1.491 . S
C2389 C2388 1.400 . S
C2389 C2390 1.398 . S
C2390 H2378 0.950 . S
C2390 C2389 1.398 . S
C2390 C2391 1.391 . S
C2391 H2379 0.950 . S
C2391 C2387 1.393 . S
C2391 C2390 1.391 . S
H2392 C2400 0.950 . S
H2393 C2405 0.950 . S
H2394 C2402 0.950 . S
H2395 C2404 0.950 . S
H2396 C2406 0.950 . S
H2397 C2408 0.950 . S
H2398 C2410 0.950 . S
H2399 C2411 0.950 . S
C2400 H2392 0.950 . S
C2400 C2401 1.386 . S
C2400 C2402 1.391 . S
C2401 C2400 1.386 . S
C2401 C2405 1.393 . S
C2402 H2394 0.950 . S
C2402 C2400 1.391 . S
C2402 C2403 1.400 . S
C2403 C2402 1.400 . S
C2403 C2404 1.398 . S
C2403 C2409 1.491 . S
C2404 H2395 0.950 . S
C2404 C2403 1.398 . S
C2404 C2405 1.391 . S
C2405 H2393 0.950 . S
C2405 C2401 1.393 . S
C2405 C2404 1.391 . S
C2406 H2396 0.950 . S
C2406 C2407 1.386 . S
C2406 C2408 1.391 . S
C2407 C2406 1.386 . S
C2407 C2411 1.393 . S
C2408 H2397 0.950 . S
C2408 C2406 1.391 . S
C2408 C2409 1.400 . S
C2409 C2403 1.491 . S
C2409 C2408 1.400 . S
C2409 C2410 1.398 . S
C2410 H2398 0.950 . S
C2410 C2409 1.398 . S
C2410 C2411 1.391 . S
C2411 H2399 0.950 . S
C2411 C2407 1.393 . S
C2411 C2410 1.391 . S
H2412 C2420 0.950 . S
H2413 C2425 0.950 . S
H2414 C2422 0.950 . S
H2415 C2424 0.950 . S
H2416 C2426 0.950 . S
H2417 C2428 0.950 . S
H2418 C2430 0.950 . S
H2419 C2431 0.950 . S
C2420 H2412 0.950 . S
C2420 C2421 1.386 . S
C2420 C2422 1.391 . S
C2421 C2420 1.386 . S
C2421 C2425 1.393 . S
C2422 H2414 0.950 . S
C2422 C2420 1.391 . S
C2422 C2423 1.400 . S
C2423 C2422 1.400 . S
C2423 C2424 1.398 . S
C2423 C2429 1.491 . S
C2424 H2415 0.950 . S
C2424 C2423 1.398 . S
C2424 C2425 1.391 . S
C2425 H2413 0.950 . S
C2425 C2421 1.393 . S
C2425 C2424 1.391 . S
C2426 H2416 0.950 . S
C2426 C2427 1.386 . S
C2426 C2428 1.391 . S
C2427 C2426 1.386 . S
C2427 C2431 1.393 . S
C2428 H2417 0.950 . S
C2428 C2426 1.391 . S
C2428 C2429 1.400 . S
C2429 C2423 1.491 . S
C2429 C2428 1.400 . S
C2429 C2430 1.398 . S
C2430 H2418 0.950 . S
C2430 C2429 1.398 . S
C2430 C2431 1.391 . S
C2431 H2419 0.950 . S
C2431 C2427 1.393 . S
C2431 C2430 1.391 . S
H2432 C2440 0.950 . S
H2433 C2445 0.950 . S
H2434 C2442 0.950 . S
H2435 C2444 0.950 . S
H2436 C2446 0.950 . S
H2437 C2448 0.950 . S
H2438 C2450 0.950 . S
H2439 C2451 0.950 . S
C2440 H2432 0.950 . S
C2440 C2441 1.386 . S
C2440 C2442 1.391 . S
C2441 C2440 1.386 . S
C2441 C2445 1.393 . S
C2442 H2434 0.950 . S
C2442 C2440 1.391 . S
C2442 C2443 1.400 . S
C2443 C2442 1.400 . S
C2443 C2444 1.398 . S
C2443 C2449 1.491 . S
C2444 H2435 0.950 . S
C2444 C2443 1.398 . S
C2444 C2445 1.391 . S
C2445 H2433 0.950 . S
C2445 C2441 1.393 . S
C2445 C2444 1.391 . S
C2446 H2436 0.950 . S
C2446 C2447 1.386 . S
C2446 C2448 1.391 . S
C2447 C2446 1.386 . S
C2447 C2451 1.393 . S
C2448 H2437 0.950 . S
C2448 C2446 1.391 . S
C2448 C2449 1.400 . S
C2449 C2443 1.491 . S
C2449 C2448 1.400 . S
C2449 C2450 1.398 . S
C2450 H2438 0.950 . S
C2450 C2449 1.398 . S
C2450 C2451 1.391 . S
C2451 H2439 0.950 . S
C2451 C2447 1.393 . S
C2451 C2450 1.391 . S
H2452 C2460 0.950 . S
H2453 C2465 0.950 . S
H2454 C2462 0.950 . S
H2455 C2464 0.950 . S
H2456 C2466 0.950 . S
H2457 C2468 0.950 . S
H2458 C2470 0.950 . S
H2459 C2471 0.950 . S
C2460 H2452 0.950 . S
C2460 C2461 1.386 . S
C2460 C2462 1.391 . S
C2461 C2460 1.386 . S
C2461 C2465 1.393 . S
C2462 H2454 0.950 . S
C2462 C2460 1.391 . S
C2462 C2463 1.400 . S
C2463 C2462 1.400 . S
C2463 C2464 1.398 . S
C2463 C2469 1.491 . S
C2464 H2455 0.950 . S
C2464 C2463 1.398 . S
C2464 C2465 1.391 . S
C2465 H2453 0.950 . S
C2465 C2461 1.393 . S
C2465 C2464 1.391 . S
C2466 H2456 0.950 . S
C2466 C2467 1.386 . S
C2466 C2468 1.391 . S
C2467 C2466 1.386 . S
C2467 C2471 1.393 . S
C2468 H2457 0.950 . S
C2468 C2466 1.391 . S
C2468 C2469 1.400 . S
C2469 C2463 1.491 . S
C2469 C2468 1.400 . S
C2469 C2470 1.398 . S
C2470 H2458 0.950 . S
C2470 C2469 1.398 . S
C2470 C2471 1.391 . S
C2471 H2459 0.950 . S
C2471 C2467 1.393 . S
C2471 C2470 1.391 . S
H2472 C2480 0.950 . S
H2473 C2485 0.950 . S
H2474 C2482 0.950 . S
H2475 C2484 0.950 . S
H2476 C2486 0.950 . S
H2477 C2488 0.950 . S
H2478 C2490 0.950 . S
H2479 C2491 0.950 . S
C2480 H2472 0.950 . S
C2480 C2481 1.386 . S
C2480 C2482 1.391 . S
C2481 C2480 1.386 . S
C2481 C2485 1.393 . S
C2482 H2474 0.950 . S
C2482 C2480 1.391 . S
C2482 C2483 1.400 . S
C2483 C2482 1.400 . S
C2483 C2484 1.398 . S
C2483 C2489 1.491 . S
C2484 H2475 0.950 . S
C2484 C2483 1.398 . S
C2484 C2485 1.391 . S
C2485 H2473 0.950 . S
C2485 C2481 1.393 . S
C2485 C2484 1.391 . S
C2486 H2476 0.950 . S
C2486 C2487 1.386 . S
C2486 C2488 1.391 . S
C2487 C2486 1.386 . S
C2487 C2491 1.393 . S
C2488 H2477 0.950 . S
C2488 C2486 1.391 . S
C2488 C2489 1.400 . S
C2489 C2483 1.491 . S
C2489 C2488 1.400 . S
C2489 C2490 1.398 . S
C2490 H2478 0.950 . S
C2490 C2489 1.398 . S
C2490 C2491 1.391 . S
C2491 H2479 0.950 . S
C2491 C2487 1.393 . S
C2491 C2490 1.391 . S
H2492 C2500 0.950 . S
H2493 C2505 0.950 . S
H2494 C2502 0.950 . S
H2495 C2504 0.950 . S
H2496 C2506 0.950 . S
H2497 C2508 0.950 . S
H2498 C2510 0.950 . S
H2499 C2511 0.950 1_545 S
C2500 H2492 0.950 . S
C2500 C2501 1.386 . S
C2500 C2502 1.391 . S
C2501 C2500 1.386 . S
C2501 C2505 1.393 1_554 S
C2502 H2494 0.950 . S
C2502 C2500 1.391 . S
C2502 C2503 1.414 . S
C2503 C2502 1.414 . S
C2503 C2504 1.389 1_554 S
C2503 C2509 1.488 1_554 S
C2504 H2495 0.950 . S
C2504 C2503 1.389 1_556 S
C2504 C2505 1.391 . S
C2505 H2493 0.950 . S
C2505 C2501 1.393 1_556 S
C2505 C2504 1.391 . S
C2506 H2496 0.950 . S
C2506 C2507 1.386 . S
C2506 C2508 1.391 . S
C2507 C2506 1.386 . S
C2507 C2511 1.393 1_556 S
C2508 H2497 0.950 . S
C2508 C2506 1.391 . S
C2508 C2509 1.406 . S
C2509 C2503 1.488 1_556 S
C2509 C2508 1.406 . S
C2509 C2510 1.394 1_556 S
C2510 H2498 0.950 . S
C2510 C2509 1.394 1_554 S
C2510 C2511 1.391 . S
C2511 H2499 0.950 1_565 S
C2511 C2507 1.393 1_554 S
C2511 C2510 1.391 . S
H2512 C2520 0.950 . S
H2513 C2525 0.950 . S
H2514 C2522 0.950 . S
H2515 C2524 0.950 . S
H2516 C2526 0.950 . S
H2517 C2528 0.950 . S
H2518 C2530 0.950 . S
H2519 C2531 0.950 . S
C2520 H2512 0.950 . S
C2520 C2521 1.386 . S
C2520 C2522 1.391 . S
C2521 C2520 1.386 . S
C2521 C2525 1.393 . S
C2522 H2514 0.950 . S
C2522 C2520 1.391 . S
C2522 C2523 1.400 . S
C2523 C2522 1.400 . S
C2523 C2524 1.398 . S
C2523 C2529 1.491 . S
C2524 H2515 0.950 . S
C2524 C2523 1.398 . S
C2524 C2525 1.391 . S
C2525 H2513 0.950 . S
C2525 C2521 1.393 . S
C2525 C2524 1.391 . S
C2526 H2516 0.950 . S
C2526 C2527 1.386 . S
C2526 C2528 1.391 . S
C2527 C2526 1.386 . S
C2527 C2531 1.393 . S
C2528 H2517 0.950 . S
C2528 C2526 1.391 . S
C2528 C2529 1.400 . S
C2529 C2523 1.491 . S
C2529 C2528 1.400 . S
C2529 C2530 1.398 . S
C2530 H2518 0.950 . S
C2530 C2529 1.398 . S
C2530 C2531 1.391 . S
C2531 H2519 0.950 . S
C2531 C2527 1.393 . S
C2531 C2530 1.391 . S
H2532 C2540 0.950 . S
H2533 C2545 0.950 . S
H2534 C2542 0.950 . S
H2535 C2544 0.950 . S
H2536 C2546 0.950 . S
H2537 C2548 0.950 . S
H2538 C2550 0.950 . S
H2539 C2551 0.950 . S
C2540 H2532 0.950 . S
C2540 C2541 1.386 . S
C2540 C2542 1.391 . S
C2541 C2540 1.386 . S
C2541 C2545 1.393 1_554 S
C2542 H2534 0.950 . S
C2542 C2540 1.391 . S
C2542 C2543 1.400 . S
C2543 C2542 1.400 . S
C2543 C2544 1.398 1_554 S
C2543 C2549 1.491 . S
C2544 H2535 0.950 . S
C2544 C2543 1.398 1_556 S
C2544 C2545 1.391 . S
C2545 H2533 0.950 . S
C2545 C2541 1.393 1_556 S
C2545 C2544 1.391 . S
C2546 H2536 0.950 . S
C2546 C2547 1.386 1_556 S
C2546 C2548 1.391 . S
C2547 C2546 1.386 1_554 S
C2547 C2551 1.393 . S
C2548 H2537 0.950 . S
C2548 C2546 1.391 . S
C2548 C2549 1.400 1_556 S
C2549 C2543 1.491 . S
C2549 C2548 1.400 1_554 S
C2549 C2550 1.398 . S
C2550 H2538 0.950 . S
C2550 C2549 1.398 . S
C2550 C2551 1.391 . S
C2551 H2539 0.950 . S
C2551 C2547 1.393 . S
C2551 C2550 1.391 . S
H2552 C2560 0.950 . S
H2553 C2565 0.950 . S
H2554 C2562 0.950 . S
H2555 C2564 0.950 . S
H2556 C2566 0.950 . S
H2557 C2568 0.950 . S
H2558 C2570 0.950 . S
H2559 C2571 0.950 . S
C2560 H2552 0.950 . S
C2560 C2561 1.386 . S
C2560 C2562 1.391 . S
C2561 C2560 1.386 . S
C2561 C2565 1.393 . S
C2562 H2554 0.950 . S
C2562 C2560 1.391 . S
C2562 C2563 1.400 . S
C2563 C2562 1.400 . S
C2563 C2564 1.398 . S
C2563 C2569 1.491 . S
C2564 H2555 0.950 . S
C2564 C2563 1.398 . S
C2564 C2565 1.391 . S
C2565 H2553 0.950 . S
C2565 C2561 1.393 . S
C2565 C2564 1.391 . S
C2566 H2556 0.950 . S
C2566 C2567 1.386 . S
C2566 C2568 1.391 . S
C2567 C2566 1.386 . S
C2567 C2571 1.393 . S
C2568 H2557 0.950 . S
C2568 C2566 1.391 . S
C2568 C2569 1.400 . S
C2569 C2563 1.491 . S
C2569 C2568 1.400 . S
C2569 C2570 1.398 . S
C2570 H2558 0.950 . S
C2570 C2569 1.398 . S
C2570 C2571 1.391 . S
C2571 H2559 0.950 . S
C2571 C2567 1.393 . S
C2571 C2570 1.391 . S
H2572 C2580 0.950 . S
H2573 C2585 0.950 . S
H2574 C2582 0.950 . S
H2575 C2584 0.950 . S
H2576 C2586 0.950 . S
H2577 C2588 0.950 . S
H2578 C2590 0.950 . S
H2579 C2591 0.950 . S
C2580 H2572 0.950 . S
C2580 C2581 1.386 . S
C2580 C2582 1.391 . S
C2581 C2580 1.386 . S
C2581 C2585 1.393 . S
C2582 H2574 0.950 . S
C2582 C2580 1.391 . S
C2582 C2583 1.400 . S
C2583 C2582 1.400 . S
C2583 C2584 1.398 . S
C2583 C2589 1.491 . S
C2584 H2575 0.950 . S
C2584 C2583 1.398 . S
C2584 C2585 1.391 . S
C2585 H2573 0.950 . S
C2585 C2581 1.393 . S
C2585 C2584 1.391 . S
C2586 H2576 0.950 . S
C2586 C2587 1.386 . S
C2586 C2588 1.391 . S
C2587 C2586 1.386 . S
C2587 C2591 1.393 . S
C2588 H2577 0.950 . S
C2588 C2586 1.391 . S
C2588 C2589 1.400 . S
C2589 C2583 1.491 . S
C2589 C2588 1.400 . S
C2589 C2590 1.398 . S
C2590 H2578 0.950 . S
C2590 C2589 1.398 . S
C2590 C2591 1.391 . S
C2591 H2579 0.950 . S
C2591 C2587 1.393 . S
C2591 C2590 1.391 . S
C687 C351 1.167 . S
C681 C4 1.239 . S
C701 C19 0.928 . S
C707 C370 1.102 . S
C721 C39 1.209 . S
C727 C393 1.138 . S
C747 C413 1.244 . S
C741 C54 1.282 . S
C761 C18 1.257 . S
C767 C434 1.240 . S
C787 C456 1.211 . S
C781 C40 1.340 . S
C807 C478 1.040 . S
C801 C53 1.078 . S
C821 C5 1.064 . S
C827 C496 1.201 . S
C841 C61 0.947 1_545 S
C847 C352 1.133 . S
C861 C74 1.326 . S
C867 C371 1.335 . S
C887 C394 1.031 . S
C881 C89 0.869 . S
C907 C417 1.205 . S
C901 C109 1.321 . S
C921 C68 1.293 . S
C927 C438 1.169 . S
C947 C457 1.128 . S
C941 C81 1.129 . S
C967 C479 1.195 . S
C961 C96 1.233 . S
C987 C497 1.283 . S
C981 C102 1.317 . S
C1007 C353 1.155 1_556 S
C1001 C103 1.068 . S
C1027 C520 1.087 . S
C1021 C117 0.978 . S
C1041 C130 1.259 . S
C1047 C542 1.272 . S
C1067 C561 1.249 . S
C1061 C152 1.346 . S
C1081 C60 1.291 . S
C1087 C501 1.184 . S
C1107 C395 1.236 . S
C1101 C82 1.273 . S
C1121 C137 1.046 . S
C1127 C583 1.044 . S
C1147 C606 1.087 . S
C1141 C165 1.189 . S
C1161 C172 1.286 . S
C1167 C354 1.200 . S
C1187 C605 1.211 . S
C1181 C194 1.242 . S
C1201 C207 1.278 . S
C1207 C396 1.182 . S
C1221 C215 1.071 . S
C1227 C580 1.136 . S
C1247 C436 1.231 . S
C1241 C186 1.236 . S
C1267 C543 1.212 . S
C1261 C201 1.171 . S
C1287 C476 1.206 . S
C1281 C221 1.201 . S
C1307 C626 1.316 . S
C1301 C180 1.348 . S
C1327 C350 1.264 . S
C1321 C236 1.297 . S
C1341 C242 1.336 . S
C1347 C604 1.283 . S
C1367 C392 1.185 . S
C1361 C264 1.221 . S
C1381 C277 1.331 . S
C1387 C585 1.274 . S
C1401 C229 1.064 1_565 S
C1407 C435 1.111 . S
C1421 C249 1.237 . S
C1427 C539 1.240 . S
C1447 C475 1.107 . S
C1441 C257 0.951 1_545 S
C1461 C270 1.300 . S
C1467 C625 1.264 . S
C1481 C278 1.190 . S
C1487 C349 1.153 . S
C1501 C292 1.296 . S
C1507 C518 1.283 . S
C1521 C298 1.301 . S
C1527 C454 1.263 . S
C1541 C313 1.153 . S
C1547 C564 1.234 . S
C1567 C624 1.239 . S
C1561 C228 1.330 . S
C1587 C391 1.107 . S
C1581 C243 1.047 . S
C1607 C416 1.166 . S
C1601 C305 1.164 . S
C1627 C372 1.145 . S
C1621 C333 1.254 . S
C1641 C32 1.248 . S
C1647 C648 1.164 . S
C1667 C601 1.094 . S
C1661 C47 0.915 . S
C1687 C666 1.138 . S
C1681 C11 1.208 . S
C1701 C26 1.276 . S
C1707 C584 1.224 . S
C1721 C46 1.266 . S
C1727 C521 1.267 . S
C1747 C540 1.212 . S
C1741 C12 1.341 . S
C1767 C562 1.040 . S
C1761 C25 1.073 . S
C1787 C622 1.213 . S
C1781 C33 1.066 . S
C1807 C643 1.141 . S
C1801 C159 1.011 . S
C1821 C116 1.331 . S
C1827 C602 1.337 . S
C1841 C131 0.929 . S
C1847 C667 1.036 . S
C1867 C582 1.228 . S
C1861 C151 1.327 . S
C1887 C519 1.180 . S
C1881 C166 1.294 . S
C1901 C123 1.140 . S
C1907 C541 1.116 . S
C1927 C563 1.207 . S
C1921 C138 1.236 . S
C1941 C144 1.317 . S
C1947 C623 1.307 . S
C1967 C644 1.180 . S
C1961 C145 1.007 . S
C1987 C433 1.082 . S
C1981 C75 0.909 . S
C2007 C458 1.277 . S
C2001 C88 1.269 . S
C2021 C110 1.345 . S
C2027 C477 1.252 . S
C2047 C627 1.181 . S
C2041 C158 1.293 . S
C2061 C124 1.270 . S
C2067 C668 1.227 . S
C2087 C412 1.026 . S
C2081 C95 1.046 . S
C2107 C375 1.085 . S
C2101 C67 1.191 . S
C2121 C200 1.275 . S
C2127 C645 1.167 . S
C2147 C374 1.209 . S
C2141 C222 1.243 . S
C2167 C669 1.208 . S
C2161 C179 1.280 . S
C2181 C187 1.017 . S
C2187 C415 1.162 . S
C2201 C214 1.252 . S
C2207 C517 1.201 . S
C2221 C173 1.142 . S
C2227 C459 1.209 . S
C2241 C193 1.200 . S
C2247 C560 1.188 . S
C2261 C208 1.348 . S
C2267 C500 1.316 . S
C2287 C647 1.265 . S
C2281 C334 1.293 . S
C2301 C284 1.334 . S
C2307 C373 1.275 . S
C2327 C665 1.185 . S
C2321 C306 1.219 . S
C2341 C319 1.346 . S
C2347 C414 1.244 . S
C2361 C327 1.035 . S
C2367 C522 1.119 . S
C2387 C455 1.237 . S
C2381 C291 1.232 . S
C2401 C299 0.965 . S
C2407 C559 1.096 . S
C2427 C499 1.291 . S
C2421 C312 1.290 . S
C2447 C646 1.134 . S
C2441 C320 1.183 . S
C2467 C437 1.287 . S
C2461 C250 1.294 . S
C2481 C256 1.296 . S
C2487 C538 1.261 . S
C2507 C480 1.263 . S
C2501 C271 1.201 . S
C2527 C498 1.200 . S
C2521 C326 1.306 . S
C2541 C285 1.025 1_554 S
C2547 C664 1.106 . S
C2567 C581 1.157 . S
C2561 C263 1.180 . S
C2587 C603 1.170 . S
C2581 C235 1.238 . S
