# Generated by pormake.
# Topology gar, (4,6)-cn, num edge types: 1
# Building blocks:
#     Node 0, Type 0, BuildingBlock: NAHDIM_clean_sbu_0, # of connection points: 4
#     Node 1, Type 0, BuildingBlock: NAHDIM_clean_sbu_0, # of connection points: 4
#     Node 2, Type 0, BuildingBlock: NAHDIM_clean_sbu_0, # of connection points: 4
#     Node 3, Type 0, BuildingBlock: NAHDIM_clean_sbu_0, # of connection points: 4
#     Node 4, Type 0, BuildingBlock: NAHDIM_clean_sbu_0, # of connection points: 4
#     Node 5, Type 0, BuildingBlock: NAHDIM_clean_sbu_0, # of connection points: 4
#     Node 6, Type 0, BuildingBlock: NAHDIM_clean_sbu_0, # of connection points: 4
#     Node 7, Type 0, BuildingBlock: NAHDIM_clean_sbu_0, # of connection points: 4
#     Node 8, Type 0, BuildingBlock: NAHDIM_clean_sbu_0, # of connection points: 4
#     Node 9, Type 0, BuildingBlock: NAHDIM_clean_sbu_0, # of connection points: 4
#     Node 10, Type 0, BuildingBlock: NAHDIM_clean_sbu_0, # of connection points: 4
#     Node 11, Type 0, BuildingBlock: NAHDIM_clean_sbu_0, # of connection points: 4
#     Node 12, Type 0, BuildingBlock: NAHDIM_clean_sbu_0, # of connection points: 4
#     Node 13, Type 0, BuildingBlock: NAHDIM_clean_sbu_0, # of connection points: 4
#     Node 14, Type 0, BuildingBlock: NAHDIM_clean_sbu_0, # of connection points: 4
#     Node 15, Type 0, BuildingBlock: NAHDIM_clean_sbu_0, # of connection points: 4
#     Node 16, Type 0, BuildingBlock: NAHDIM_clean_sbu_0, # of connection points: 4
#     Node 17, Type 0, BuildingBlock: NAHDIM_clean_sbu_0, # of connection points: 4
#     Node 18, Type 0, BuildingBlock: NAHDIM_clean_sbu_0, # of connection points: 4
#     Node 19, Type 0, BuildingBlock: NAHDIM_clean_sbu_0, # of connection points: 4
#     Node 20, Type 0, BuildingBlock: NAHDIM_clean_sbu_0, # of connection points: 4
#     Node 21, Type 0, BuildingBlock: NAHDIM_clean_sbu_0, # of connection points: 4
#     Node 22, Type 0, BuildingBlock: NAHDIM_clean_sbu_0, # of connection points: 4
#     Node 23, Type 0, BuildingBlock: NAHDIM_clean_sbu_0, # of connection points: 4
#     Node 24, Type 1, BuildingBlock: CUKXOW_clean_sbu_0, # of connection points: 6
#     Node 25, Type 1, BuildingBlock: CUKXOW_clean_sbu_0, # of connection points: 6
#     Node 26, Type 1, BuildingBlock: CUKXOW_clean_sbu_0, # of connection points: 6
#     Node 27, Type 1, BuildingBlock: CUKXOW_clean_sbu_0, # of connection points: 6
#     Node 28, Type 1, BuildingBlock: CUKXOW_clean_sbu_0, # of connection points: 6
#     Node 29, Type 1, BuildingBlock: CUKXOW_clean_sbu_0, # of connection points: 6
#     Node 30, Type 1, BuildingBlock: CUKXOW_clean_sbu_0, # of connection points: 6
#     Node 31, Type 1, BuildingBlock: CUKXOW_clean_sbu_0, # of connection points: 6
#     Node 32, Type 1, BuildingBlock: CUKXOW_clean_sbu_0, # of connection points: 6
#     Node 33, Type 1, BuildingBlock: CUKXOW_clean_sbu_0, # of connection points: 6
#     Node 34, Type 1, BuildingBlock: CUKXOW_clean_sbu_0, # of connection points: 6
#     Node 35, Type 1, BuildingBlock: CUKXOW_clean_sbu_0, # of connection points: 6
#     Node 36, Type 1, BuildingBlock: CUKXOW_clean_sbu_0, # of connection points: 6
#     Node 37, Type 1, BuildingBlock: CUKXOW_clean_sbu_0, # of connection points: 6
#     Node 38, Type 1, BuildingBlock: CUKXOW_clean_sbu_0, # of connection points: 6
#     Node 39, Type 1, BuildingBlock: CUKXOW_clean_sbu_0, # of connection points: 6
#     Edge 40, Type (0, 1), BuildingBlock: AJUNOK_clean_linker_0, # of connection points: 2
#     Edge 41, Type (0, 1), BuildingBlock: AJUNOK_clean_linker_0, # of connection points: 2
#     Edge 42, Type (0, 1), BuildingBlock: AJUNOK_clean_linker_0, # of connection points: 2
#     Edge 43, Type (0, 1), BuildingBlock: AJUNOK_clean_linker_0, # of connection points: 2
#     Edge 44, Type (0, 1), BuildingBlock: AJUNOK_clean_linker_0, # of connection points: 2
#     Edge 45, Type (0, 1), BuildingBlock: AJUNOK_clean_linker_0, # of connection points: 2
#     Edge 46, Type (0, 1), BuildingBlock: AJUNOK_clean_linker_0, # of connection points: 2
#     Edge 47, Type (0, 1), BuildingBlock: AJUNOK_clean_linker_0, # of connection points: 2
#     Edge 48, Type (0, 1), BuildingBlock: AJUNOK_clean_linker_0, # of connection points: 2
#     Edge 49, Type (0, 1), BuildingBlock: AJUNOK_clean_linker_0, # of connection points: 2
#     Edge 50, Type (0, 1), BuildingBlock: AJUNOK_clean_linker_0, # of connection points: 2
#     Edge 51, Type (0, 1), BuildingBlock: AJUNOK_clean_linker_0, # of connection points: 2
#     Edge 52, Type (0, 1), BuildingBlock: AJUNOK_clean_linker_0, # of connection points: 2
#     Edge 53, Type (0, 1), BuildingBlock: AJUNOK_clean_linker_0, # of connection points: 2
#     Edge 54, Type (0, 1), BuildingBlock: AJUNOK_clean_linker_0, # of connection points: 2
#     Edge 55, Type (0, 1), BuildingBlock: AJUNOK_clean_linker_0, # of connection points: 2
#     Edge 56, Type (0, 1), BuildingBlock: AJUNOK_clean_linker_0, # of connection points: 2
#     Edge 57, Type (0, 1), BuildingBlock: AJUNOK_clean_linker_0, # of connection points: 2
#     Edge 58, Type (0, 1), BuildingBlock: AJUNOK_clean_linker_0, # of connection points: 2
#     Edge 59, Type (0, 1), BuildingBlock: AJUNOK_clean_linker_0, # of connection points: 2
#     Edge 60, Type (0, 1), BuildingBlock: AJUNOK_clean_linker_0, # of connection points: 2
#     Edge 61, Type (0, 1), BuildingBlock: AJUNOK_clean_linker_0, # of connection points: 2
#     Edge 62, Type (0, 1), BuildingBlock: AJUNOK_clean_linker_0, # of connection points: 2
#     Edge 63, Type (0, 1), BuildingBlock: AJUNOK_clean_linker_0, # of connection points: 2
#     Edge 64, Type (0, 1), BuildingBlock: AJUNOK_clean_linker_0, # of connection points: 2
#     Edge 65, Type (0, 1), BuildingBlock: AJUNOK_clean_linker_0, # of connection points: 2
#     Edge 66, Type (0, 1), BuildingBlock: AJUNOK_clean_linker_0, # of connection points: 2
#     Edge 67, Type (0, 1), BuildingBlock: AJUNOK_clean_linker_0, # of connection points: 2
#     Edge 68, Type (0, 1), BuildingBlock: AJUNOK_clean_linker_0, # of connection points: 2
#     Edge 69, Type (0, 1), BuildingBlock: AJUNOK_clean_linker_0, # of connection points: 2
#     Edge 70, Type (0, 1), BuildingBlock: AJUNOK_clean_linker_0, # of connection points: 2
#     Edge 71, Type (0, 1), BuildingBlock: AJUNOK_clean_linker_0, # of connection points: 2
#     Edge 72, Type (0, 1), BuildingBlock: AJUNOK_clean_linker_0, # of connection points: 2
#     Edge 73, Type (0, 1), BuildingBlock: AJUNOK_clean_linker_0, # of connection points: 2
#     Edge 74, Type (0, 1), BuildingBlock: AJUNOK_clean_linker_0, # of connection points: 2
#     Edge 75, Type (0, 1), BuildingBlock: AJUNOK_clean_linker_0, # of connection points: 2
#     Edge 76, Type (0, 1), BuildingBlock: AJUNOK_clean_linker_0, # of connection points: 2
#     Edge 77, Type (0, 1), BuildingBlock: AJUNOK_clean_linker_0, # of connection points: 2
#     Edge 78, Type (0, 1), BuildingBlock: AJUNOK_clean_linker_0, # of connection points: 2
#     Edge 79, Type (0, 1), BuildingBlock: AJUNOK_clean_linker_0, # of connection points: 2
#     Edge 80, Type (0, 1), BuildingBlock: AJUNOK_clean_linker_0, # of connection points: 2
#     Edge 81, Type (0, 1), BuildingBlock: AJUNOK_clean_linker_0, # of connection points: 2
#     Edge 82, Type (0, 1), BuildingBlock: AJUNOK_clean_linker_0, # of connection points: 2
#     Edge 83, Type (0, 1), BuildingBlock: AJUNOK_clean_linker_0, # of connection points: 2
#     Edge 84, Type (0, 1), BuildingBlock: AJUNOK_clean_linker_0, # of connection points: 2
#     Edge 85, Type (0, 1), BuildingBlock: AJUNOK_clean_linker_0, # of connection points: 2
#     Edge 86, Type (0, 1), BuildingBlock: AJUNOK_clean_linker_0, # of connection points: 2
#     Edge 87, Type (0, 1), BuildingBlock: AJUNOK_clean_linker_0, # of connection points: 2
#     Edge 88, Type (0, 1), BuildingBlock: AJUNOK_clean_linker_0, # of connection points: 2
#     Edge 89, Type (0, 1), BuildingBlock: AJUNOK_clean_linker_0, # of connection points: 2
#     Edge 90, Type (0, 1), BuildingBlock: AJUNOK_clean_linker_0, # of connection points: 2
#     Edge 91, Type (0, 1), BuildingBlock: AJUNOK_clean_linker_0, # of connection points: 2
#     Edge 92, Type (0, 1), BuildingBlock: AJUNOK_clean_linker_0, # of connection points: 2
#     Edge 93, Type (0, 1), BuildingBlock: AJUNOK_clean_linker_0, # of connection points: 2
#     Edge 94, Type (0, 1), BuildingBlock: AJUNOK_clean_linker_0, # of connection points: 2
#     Edge 95, Type (0, 1), BuildingBlock: AJUNOK_clean_linker_0, # of connection points: 2
#     Edge 96, Type (0, 1), BuildingBlock: AJUNOK_clean_linker_0, # of connection points: 2
#     Edge 97, Type (0, 1), BuildingBlock: AJUNOK_clean_linker_0, # of connection points: 2
#     Edge 98, Type (0, 1), BuildingBlock: AJUNOK_clean_linker_0, # of connection points: 2
#     Edge 99, Type (0, 1), BuildingBlock: AJUNOK_clean_linker_0, # of connection points: 2
#     Edge 100, Type (0, 1), BuildingBlock: AJUNOK_clean_linker_0, # of connection points: 2
#     Edge 101, Type (0, 1), BuildingBlock: AJUNOK_clean_linker_0, # of connection points: 2
#     Edge 102, Type (0, 1), BuildingBlock: AJUNOK_clean_linker_0, # of connection points: 2
#     Edge 103, Type (0, 1), BuildingBlock: AJUNOK_clean_linker_0, # of connection points: 2
#     Edge 104, Type (0, 1), BuildingBlock: AJUNOK_clean_linker_0, # of connection points: 2
#     Edge 105, Type (0, 1), BuildingBlock: AJUNOK_clean_linker_0, # of connection points: 2
#     Edge 106, Type (0, 1), BuildingBlock: AJUNOK_clean_linker_0, # of connection points: 2
#     Edge 107, Type (0, 1), BuildingBlock: AJUNOK_clean_linker_0, # of connection points: 2
#     Edge 108, Type (0, 1), BuildingBlock: AJUNOK_clean_linker_0, # of connection points: 2
#     Edge 109, Type (0, 1), BuildingBlock: AJUNOK_clean_linker_0, # of connection points: 2
#     Edge 110, Type (0, 1), BuildingBlock: AJUNOK_clean_linker_0, # of connection points: 2
#     Edge 111, Type (0, 1), BuildingBlock: AJUNOK_clean_linker_0, # of connection points: 2
#     Edge 112, Type (0, 1), BuildingBlock: AJUNOK_clean_linker_0, # of connection points: 2
#     Edge 113, Type (0, 1), BuildingBlock: AJUNOK_clean_linker_0, # of connection points: 2
#     Edge 114, Type (0, 1), BuildingBlock: AJUNOK_clean_linker_0, # of connection points: 2
#     Edge 115, Type (0, 1), BuildingBlock: AJUNOK_clean_linker_0, # of connection points: 2
#     Edge 116, Type (0, 1), BuildingBlock: AJUNOK_clean_linker_0, # of connection points: 2
#     Edge 117, Type (0, 1), BuildingBlock: AJUNOK_clean_linker_0, # of connection points: 2
#     Edge 118, Type (0, 1), BuildingBlock: AJUNOK_clean_linker_0, # of connection points: 2
#     Edge 119, Type (0, 1), BuildingBlock: AJUNOK_clean_linker_0, # of connection points: 2
#     Edge 120, Type (0, 1), BuildingBlock: AJUNOK_clean_linker_0, # of connection points: 2
#     Edge 121, Type (0, 1), BuildingBlock: AJUNOK_clean_linker_0, # of connection points: 2
#     Edge 122, Type (0, 1), BuildingBlock: AJUNOK_clean_linker_0, # of connection points: 2
#     Edge 123, Type (0, 1), BuildingBlock: AJUNOK_clean_linker_0, # of connection points: 2
#     Edge 124, Type (0, 1), BuildingBlock: AJUNOK_clean_linker_0, # of connection points: 2
#     Edge 125, Type (0, 1), BuildingBlock: AJUNOK_clean_linker_0, # of connection points: 2
#     Edge 126, Type (0, 1), BuildingBlock: AJUNOK_clean_linker_0, # of connection points: 2
#     Edge 127, Type (0, 1), BuildingBlock: AJUNOK_clean_linker_0, # of connection points: 2
#     Edge 128, Type (0, 1), BuildingBlock: AJUNOK_clean_linker_0, # of connection points: 2
#     Edge 129, Type (0, 1), BuildingBlock: AJUNOK_clean_linker_0, # of connection points: 2
#     Edge 130, Type (0, 1), BuildingBlock: AJUNOK_clean_linker_0, # of connection points: 2
#     Edge 131, Type (0, 1), BuildingBlock: AJUNOK_clean_linker_0, # of connection points: 2
#     Edge 132, Type (0, 1), BuildingBlock: AJUNOK_clean_linker_0, # of connection points: 2
#     Edge 133, Type (0, 1), BuildingBlock: AJUNOK_clean_linker_0, # of connection points: 2
#     Edge 134, Type (0, 1), BuildingBlock: AJUNOK_clean_linker_0, # of connection points: 2
#     Edge 135, Type (0, 1), BuildingBlock: AJUNOK_clean_linker_0, # of connection points: 2
# Relax obj value: 0.132
# Max RMSD: 0.234
# Mean RMSD: 0.153
data_MOF--net-gar--node1-NAHDIM_clean_sbu_0--node2-CUKXOW_clean_sbu_0--edge1-AJUNOK_clean_linker_0
_symmetry_space_group_name_H-M    P1
_symmetry_Int_Tables_number       1
_symmetry_cell_setting            triclinic
loop_
_symmetry_equiv_pos_as_xyz
'x, y, z'
_cell_length_a     41.843926
_cell_length_b     39.578966
_cell_length_c     38.819855
_cell_angle_alpha  94.092041
_cell_angle_beta   95.247719
_cell_angle_gamma 98.832865
loop_
_atom_site_label
_atom_site_type_symbol
_atom_site_fract_x
_atom_site_fract_y
_atom_site_fract_z
_atom_type_partial_charge
C0 C 0.07837 0.25744 0.40521 0.0
O1 O 0.05783 0.22977 0.40929 0.0
O2 O 0.03729 0.24165 0.47888 0.0
Zn3 Zn 0.04446 0.28615 0.45717 0.0
O4 O 0.05553 0.32714 0.49154 0.0
C5 C 0.98458 0.26621 0.41353 0.0
O6 O 0.99021 0.2352 0.419 0.0
O7 O 0.07821 0.28489 0.42425 0.0
C8 C 0.03298 0.33461 0.509 0.0
O9 O 1.00553 0.31298 0.50644 0.0
C10 C 0.04064 0.23589 0.51064 0.0
O11 O 0.0501 0.26169 0.53441 0.0
O12 O 1.00427 0.29198 0.42789 0.0
C13 C 0.97004 0.81297 0.68753 0.0
O14 O 0.99905 0.80991 0.70162 0.0
O15 O 0.98826 0.75832 0.59372 0.0
Zn16 Zn 0.99785 0.80414 0.62208 0.0
O17 O 0.99929 0.84158 0.59022 0.0
C18 C 0.04901 0.78181 0.66383 0.0
O19 O 0.02831 0.75292 0.66015 0.0
O20 O 0.96401 0.81065 0.65465 0.0
C21 C 0.02432 0.86407 0.58959 0.0
O22 O 0.05071 0.86257 0.61013 0.0
C23 C 1.00719 0.75309 0.57072 0.0
O24 O 0.03048 0.77806 0.56592 0.0
O25 O 0.04118 0.80755 0.64946 0.0
C26 C 0.58027 0.74923 0.87948 0.0
O27 O 0.56803 0.72082 0.89232 0.0
O28 O 0.54953 0.74074 0.96152 0.0
Zn29 Zn 0.54734 0.78065 0.9321 0.0
O30 O 0.55878 0.82634 0.96092 0.0
C31 C 0.48726 0.75358 0.88817 0.0
O32 O 0.49989 0.72529 0.88477 0.0
O33 O 0.57621 0.77797 0.89376 0.0
C34 C 0.54272 0.83171 0.9865 0.0
O35 O 0.52115 0.8065 0.99445 0.0
C36 C 0.52412 0.72378 0.97129 0.0
O37 O 0.4959 0.73349 0.96356 0.0
O38 O 0.50262 0.77913 0.90776 0.0
C39 C 0.46789 0.29203 0.17589 0.0
O40 O 0.48738 0.26994 0.18344 0.0
O41 O 0.4919 0.25142 0.09084 0.0
Zn42 Zn 0.50368 0.29789 0.11699 0.0
O43 O 0.51073 0.33796 0.08806 0.0
C44 C 0.56842 0.28764 0.13721 0.0
O45 O 0.56767 0.27847 0.10391 0.0
O46 O 0.46949 0.30618 0.14762 0.0
C47 C 0.52913 0.34592 0.06458 0.0
O48 O 0.54736 0.32442 0.0528 0.0
C49 C 0.49131 0.24393 0.05843 0.0
O50 O 0.49669 0.26849 0.03769 0.0
O51 O 0.5438 0.29766 0.14873 0.0
C52 C 0.93206 0.75968 0.19032 0.0
O53 O 0.92613 0.7598 0.1565 0.0
O54 O 0.99592 0.71646 0.14268 0.0
Zn55 Zn 0.99928 0.7612 0.17293 0.0
O56 O 0.99642 0.7993 0.1407 0.0
C57 C 0.06686 0.79326 0.20051 0.0
O58 O 0.06161 0.81649 0.17907 0.0
O59 O 0.96124 0.75956 0.20318 0.0
C60 C 0.99096 0.82836 0.15262 0.0
O61 O 0.98734 0.83311 0.18578 0.0
C62 C 0.01181 0.71727 0.11623 0.0
O63 O 0.02874 0.74664 0.11016 0.0
O64 O 0.044 0.76836 0.2027 0.0
C65 C 0.60058 0.8018 0.35069 0.0
O66 O 0.60584 0.80079 0.38445 0.0
O67 O 0.53155 0.76323 0.39666 0.0
Zn68 Zn 0.53305 0.8037 0.36693 0.0
O69 O 0.53696 0.84801 0.3983 0.0
C70 C 0.46419 0.77915 0.34399 0.0
O71 O 0.46728 0.76217 0.37162 0.0
O72 O 0.57187 0.80381 0.33754 0.0
C73 C 0.51874 0.84877 0.42282 0.0
O74 O 0.49895 0.82071 0.42749 0.0
C75 C 0.54481 0.76298 0.4275 0.0
O76 O 0.56269 0.79115 0.44286 0.0
O77 O 0.48919 0.7986 0.33596 0.0
C78 C 0.43308 0.25385 0.70244 0.0
O79 O 0.42578 0.23816 0.67108 0.0
O80 O 0.49748 0.2199 0.65259 0.0
Zn81 Zn 0.49981 0.2661 0.68108 0.0
O82 O 0.49517 0.30302 0.6479 0.0
C83 C 0.55996 0.25613 0.72222 0.0
O84 O 0.54509 0.22418 0.71997 0.0
O85 O 0.46275 0.26615 0.71251 0.0
C86 C 0.51992 0.32135 0.63821 0.0
O87 O 0.54907 0.31639 0.65018 0.0
C88 C 0.51371 0.21901 0.62639 0.0
O89 O 0.53068 0.2477 0.61871 0.0
O90 O 0.54494 0.2785 0.7089 0.0
C91 C 0.09897 0.30195 0.85205 0.0
O92 O 0.10056 0.29979 0.88573 0.0
O93 O 0.02889 0.26255 0.89119 0.0
Zn94 Zn 0.03176 0.30502 0.86375 0.0
O95 O 0.0351 0.3477 0.89768 0.0
C96 C 0.96863 0.276 0.82285 0.0
O97 O 0.97559 0.24665 0.83268 0.0
O98 O 0.07192 0.30599 0.83615 0.0
C99 C 0.01341 0.34738 0.91874 0.0
O100 O 0.99103 0.32 0.9174 0.0
C101 C 0.04124 0.26264 0.92249 0.0
O102 O 0.05631 0.29171 0.93885 0.0
O103 O 0.98921 0.30318 0.8318 0.0
C104 C 0.3754 0.14845 0.24901 0.0
O105 O 0.39636 0.15752 0.22682 0.0
O106 O 0.43863 0.0894 0.22332 0.0
Zn107 Zn 0.41114 0.08874 0.26547 0.0
O108 O 0.43897 0.09707 0.31221 0.0
C109 C 0.36393 0.02489 0.24514 0.0
O110 O 0.3586 0.03729 0.21501 0.0
O111 O 0.37818 0.12223 0.26558 0.0
C112 C 0.4613 0.07946 0.31956 0.0
O113 O 0.46871 0.05814 0.29516 0.0
C114 C 0.4452 0.06169 0.20861 0.0
O115 O 0.43412 0.03246 0.22067 0.0
O116 O 0.38504 0.04175 0.26815 0.0
C117 C 0.30188 0.08555 0.51274 0.0
O118 O 0.28232 0.09165 0.53621 0.0
O119 O 0.27073 0.15914 0.52929 0.0
Zn120 Zn 0.27616 0.1395 0.48189 0.0
O121 O 0.29622 0.17664 0.45461 0.0
C122 C 0.20994 0.13729 0.46488 0.0
O123 O 0.21875 0.1694 0.47744 0.0
O124 O 0.30324 0.10294 0.48651 0.0
C125 C 0.29677 0.20809 0.46441 0.0
O126 O 0.28408 0.21628 0.49293 0.0
C127 C 0.29395 0.17377 0.55117 0.0
O128 O 0.32394 0.17672 0.54285 0.0
O129 O 0.23175 0.11885 0.46076 0.0
C130 C 0.20987 0.9532 0.78924 0.0
O131 O 0.20519 0.97069 0.76223 0.0
O132 O 0.14709 0.99608 0.76672 0.0
Zn133 Zn 0.1678 0.99721 0.81582 0.0
O134 O 0.13345 0.99012 0.85008 0.0
C135 C 0.1796 0.06869 0.81255 0.0
O136 O 0.14878 0.06052 0.80056 0.0
O137 O 0.19705 0.96062 0.81676 0.0
C138 C 0.1042 0.99426 0.84188 0.0
O139 O 0.09594 1.00217 0.81038 0.0
C140 C 0.12893 0.97268 0.74673 0.0
O141 O 0.11895 0.94287 0.75826 0.0
O142 O 0.19436 0.04538 0.82427 0.0
C143 C 0.16042 0.93029 0.03681 0.0
O144 O 0.15007 0.89754 0.03903 0.0
O145 O 0.22728 0.87873 0.07753 0.0
Zn146 Zn 0.22463 0.90667 0.03414 0.0
O147 O 0.21845 0.87447 0.98844 0.0
C148 C 0.28857 0.94791 0.05911 0.0
O149 O 0.28132 0.9416 0.09049 0.0
O150 O 0.19067 0.93981 0.03497 0.0
C151 C 0.24393 0.86613 0.97654 0.0
O152 O 0.27247 0.87868 0.99319 0.0
C153 C 0.25024 0.86112 0.08231 0.0
O154 O 0.2715 0.86132 0.05948 0.0
O155 O 0.26801 0.93652 0.03322 0.0
C156 C 0.22923 0.47265 0.02824 0.0
O157 O 0.24404 0.46134 1.00241 0.0
O158 O 0.26281 0.40594 0.10455 0.0
Zn159 Zn 0.26987 0.43482 0.06543 0.0
O160 O 0.26702 0.40218 0.02371 0.0
C161 C 0.3373 0.4583 0.0894 0.0
O162 O 0.33369 0.4316 0.10776 0.0
O163 O 0.23611 0.46416 0.05861 0.0
C164 C 0.28053 0.37556 0.02377 0.0
O165 O 0.29767 0.36954 0.05207 0.0
C166 C 0.23487 0.38978 0.1084 0.0
O167 O 0.20919 0.39503 0.08869 0.0
O168 O 0.31303 0.46465 0.07043 0.0
C169 C 0.87342 0.14525 0.00721 0.0
O170 O 0.88867 0.17709 0.01149 0.0
O171 O 0.82567 0.20561 0.05984 0.0
Zn172 Zn 0.81206 0.17586 0.01367 0.0
O173 O 0.80565 0.20604 0.97284 0.0
C174 C 0.7486 0.13178 0.99574 0.0
O175 O 0.75846 0.12882 0.96467 0.0
O176 O 0.84249 0.13979 0.00644 0.0
C177 C 0.80639 0.1965 0.94087 0.0
O178 O 0.81413 0.16619 0.93277 0.0
C179 C 0.80852 0.22844 0.06777 0.0
O180 O 0.78511 0.23352 0.0447 0.0
O181 O 0.76746 0.14989 0.02001 0.0
C182 C 0.16143 0.433 0.31042 0.0
O183 O 0.14748 0.43219 0.33939 0.0
O184 O 0.09584 0.48391 0.24099 0.0
Zn185 Zn 0.1216 0.48776 0.28909 0.0
O186 O 0.09434 0.48725 0.33103 0.0
C187 C 0.16713 0.54221 0.26876 0.0
O188 O 0.1671 0.51943 0.2424 0.0
O189 O 0.15324 0.45291 0.28798 0.0
C190 C 0.07951 0.51244 0.338 0.0
O191 O 0.0803 0.53694 0.31681 0.0
C192 C 0.06605 0.48567 0.23256 0.0
O193 O 0.04684 0.48843 0.25718 0.0
O194 O 0.1495 0.53422 0.29285 0.0
C195 C 0.72315 0.95747 0.52975 0.0
O196 O 0.72502 0.93006 0.50943 0.0
O197 O 0.77666 0.90513 0.59414 0.0
Zn198 Zn 0.78188 0.94043 0.56008 0.0
O199 O 0.78391 0.9146 0.51489 0.0
C200 C 0.84843 0.96144 0.58394 0.0
O201 O 0.84449 0.93111 0.59605 0.0
O202 O 0.74472 0.96675 0.55529 0.0
C203 C 0.79763 0.88828 0.51187 0.0
O204 O 0.81342 0.87863 0.53929 0.0
C205 C 0.75514 0.87851 0.58747 0.0
O206 O 0.73343 0.87633 0.56042 0.0
O207 O 0.82384 0.97216 0.5697 0.0
C208 C 0.84595 0.11547 0.2539 0.0
O209 O 0.87586 0.11896 0.26884 0.0
O210 O 0.89225 0.05433 0.19717 0.0
Zn211 Zn 0.86315 0.05094 0.23641 0.0
O212 O 0.89182 0.05676 0.28164 0.0
C213 C 0.85063 0.97757 0.22773 0.0
O214 O 0.88012 0.98258 0.21799 0.0
O215 O 0.83367 0.08711 0.23692 0.0
C216 C 0.92084 0.05068 0.28359 0.0
O217 O 0.93279 0.04089 0.25509 0.0
C218 C 0.90441 0.08129 0.18387 0.0
O219 O 0.89655 0.11102 0.19401 0.0
O220 O 0.8372 1.00344 0.23537 0.0
C221 C 0.36008 0.62752 0.52812 0.0
O222 O 0.34603 0.62971 0.55694 0.0
O223 O 0.32052 0.69977 0.55779 0.0
Zn224 Zn 0.31399 0.67382 0.50895 0.0
O225 O 0.31029 0.70678 0.46954 0.0
C226 C 0.24394 0.65426 0.50304 0.0
O227 O 0.24529 0.68656 0.49675 0.0
O228 O 0.35078 0.64438 0.50324 0.0
C229 C 0.2921 0.69736 0.44111 0.0
O230 O 0.27677 0.66559 0.43604 0.0
C231 C 0.30589 0.72487 0.56538 0.0
O232 O 0.28896 0.73695 0.54027 0.0
O233 O 0.27031 0.6422 0.50855 0.0
C234 C 0.32662 0.60343 0.76809 0.0
O235 O 0.33511 0.5926 0.79826 0.0
O236 O 0.3956 0.55133 0.71153 0.0
Zn237 Zn 0.36105 0.54988 0.74471 0.0
O238 O 0.38345 0.55358 0.79273 0.0
C239 C 0.34816 0.47946 0.75246 0.0
O240 O 0.37895 0.48782 0.76453 0.0
O241 O 0.3344 0.5885 0.74064 0.0
C242 C 0.40744 0.57497 0.80708 0.0
O243 O 0.42042 0.59999 0.78973 0.0
C244 C 0.41047 0.57813 0.70027 0.0
O245 O 0.40212 0.60808 0.70867 0.0
O246 O 0.33345 0.50236 0.73972 0.0
C247 C 0.64844 0.9295 0.77432 0.0
O248 O 0.62909 0.92995 0.74583 0.0
O249 O 0.59344 0.98241 0.74692 0.0
Zn250 Zn 0.61941 0.98898 0.79464 0.0
O251 O 0.59056 0.99067 0.83461 0.0
C252 C 0.66633 0.03981 0.76983 0.0
O253 O 0.6627 0.01655 0.74327 0.0
O254 O 0.64783 0.95171 0.79953 0.0
C255 C 0.58836 0.01914 0.85108 0.0
O256 O 0.60431 0.04747 0.84132 0.0
C257 C 0.57147 0.99967 0.73728 0.0
O258 O 0.5624 0.02144 0.76013 0.0
O259 O 0.65015 0.03373 0.79552 0.0
C260 C 0.8164 0.6178 1.00164 0.0
O261 O 0.8168 0.64848 0.017 0.0
O262 O 0.75169 0.65613 0.01558 0.0
Zn263 Zn 0.75821 0.63375 0.9696 0.0
O264 O 0.7676 0.67055 0.93819 0.0
C265 C 0.70999 0.57863 0.97267 0.0
O266 O 0.73298 0.57271 0.99577 0.0
O267 O 0.79414 0.60621 0.97737 0.0
C268 C 0.7474 0.69143 0.93654 0.0
O269 O 0.72127 0.68569 0.95298 0.0
C270 C 0.76338 0.68699 0.0263 0.0
O271 O 0.78099 0.70629 0.00661 0.0
O272 O 0.71627 0.60343 0.95409 0.0
C273 C 0.87634 0.64326 0.77215 0.0
O274 O 0.89719 0.64983 0.80015 0.0
O275 O 0.93172 0.57506 0.71712 0.0
Zn276 Zn 0.90682 0.58103 0.75982 0.0
O277 O 0.93602 0.59035 0.80579 0.0
C278 C 0.86036 0.51768 0.74036 0.0
O279 O 0.86154 0.52661 0.70848 0.0
O280 O 0.87698 0.61664 0.75199 0.0
C281 C 0.94979 0.5655 0.8154 0.0
O282 O 0.94596 0.5372 0.79457 0.0
C283 C 0.96206 0.57428 0.71701 0.0
O284 O 0.98051 0.57804 0.7467 0.0
O285 O 0.87754 0.5367 0.7651 0.0
C286 C 0.66732 0.4469 0.55545 0.0
O287 O 0.6696 0.43104 0.58396 0.0
O288 O 0.72502 0.3817 0.576 0.0
Zn289 Zn 0.72212 0.40986 0.53235 0.0
O290 O 0.71706 0.37836 0.48612 0.0
C291 C 0.79003 0.44426 0.55397 0.0
O292 O 0.78708 0.42816 0.58223 0.0
O293 O 0.68582 0.44105 0.53196 0.0
C294 C 0.74285 0.37025 0.4748 0.0
O295 O 0.77094 0.38161 0.49301 0.0
C296 C 0.7397 0.35564 0.57699 0.0
O297 O 0.75188 0.3452 0.54889 0.0
O298 O 0.76558 0.44138 0.53128 0.0
C299 C 0.69336 0.44461 0.30015 0.0
O300 O 0.66618 0.43919 0.27937 0.0
O301 O 0.64179 0.49749 0.27492 0.0
Zn302 Zn 0.6666 0.50391 0.32249 0.0
O303 O 0.6348 0.49639 0.35882 0.0
C304 C 0.67975 0.57396 0.3066 0.0
O305 O 0.65167 0.56382 0.28805 0.0
O306 O 0.69856 0.47014 0.32296 0.0
C307 C 0.61444 0.51707 0.36065 0.0
O308 O 0.61686 0.5429 0.34117 0.0
C309 C 0.61129 0.49076 0.26666 0.0
O310 O 0.59159 0.48415 0.29063 0.0
O311 O 0.6913 0.55337 0.32633 0.0
Tb312 Tb 0.02602 0.07058 0.01046 0.0
C313 C 0.02496 0.00803 0.95483 0.0
Tb314 Tb 0.99585 0.99545 0.02633 0.0
O315 O 0.07633 0.059 0.01463 0.0
O316 O 0.04057 0.02941 0.03716 0.0
O317 O 0.02397 0.04132 0.96055 0.0
C318 C 0.99106 0.94054 0.06304 0.0
O319 O 0.01736 0.98526 0.97769 0.0
C320 C 0.95251 0.03449 1.00579 0.0
C321 C 0.99118 0.0593 0.07877 0.0
O322 O 0.9781 0.94034 0.03099 0.0
O323 O 1.00746 0.97066 0.0728 0.0
O324 O 0.94511 0.00571 0.01971 0.0
O325 O 0.98184 0.03629 0.99981 0.0
O326 O 0.99289 0.02619 0.07414 0.0
O327 O 1.00081 0.0815 0.05618 0.0
C328 C 0.0336 0.13239 0.9856 0.0
O329 O 0.04363 0.12635 0.01704 0.0
O330 O 0.01963 0.10375 0.96865 0.0
C331 C 0.06926 0.0304 0.02887 0.0
Tb332 Tb 0.27519 0.82422 0.27843 0.0
C333 C 0.33265 0.77887 0.27763 0.0
Tb334 Tb 0.25815 0.74708 0.25784 0.0
O335 O 0.26333 0.81767 0.33216 0.0
O336 O 0.27816 0.77873 0.30267 0.0
O337 O 0.32423 0.80998 0.27667 0.0
C338 C 0.23396 0.68154 0.26344 0.0
O339 O 0.31037 0.75053 0.27374 0.0
C340 C 0.26689 0.78578 0.20581 0.0
C341 C 0.20046 0.79232 0.26081 0.0
O342 O 0.24887 0.69285 0.23753 0.0
O343 O 0.23278 0.70712 0.2858 0.0
O344 O 0.27201 0.75408 0.20514 0.0
O345 O 0.25466 0.79243 0.23341 0.0
O346 O 0.2092 0.76125 0.25979 0.0
O347 O 0.22248 0.82087 0.26566 0.0
C348 C 0.29919 0.88921 0.26973 0.0
O349 O 0.2876 0.87869 0.29782 0.0
O350 O 0.29709 0.86322 0.24691 0.0
C351 C 0.26645 0.7853 0.33054 0.0
Tb352 Tb 0.55184 0.03897 0.52198 0.0
C353 C 0.52818 0.01024 0.59195 0.0
Tb354 Tb 0.48131 0.0265 0.5308 0.0
O355 O 0.55392 0.09456 0.52605 0.0
O356 O 0.52132 0.06356 0.55271 0.0
O357 O 0.55094 0.01279 0.57012 0.0
C358 C 0.41856 0.02955 0.53375 0.0
O359 O 0.49881 0.0176 0.58328 0.0
C360 C 0.50457 0.97218 0.50749 0.0
C361 C 0.50522 0.05866 0.46239 0.0
O362 O 0.43022 0.00924 0.51238 0.0
O363 O 0.44228 0.04814 0.55368 0.0
O364 O 0.48167 0.97108 0.52801 0.0
O365 O 0.51176 1.00257 0.49981 0.0
O366 O 0.48245 0.05552 0.48429 0.0
O367 O 0.53445 0.05084 0.47066 0.0
C368 C 0.61108 0.02537 0.51373 0.0
O369 O 0.60475 0.04975 0.53497 0.0
O370 O 0.58423 0.00942 0.49712 0.0
C371 C 0.52986 0.09391 0.54519 0.0
Tb372 Tb 0.2786 0.28154 0.82384 0.0
C373 C 0.28802 0.34067 0.77224 0.0
Tb374 Tb 0.2593 0.26435 0.74341 0.0
O375 O 0.33037 0.29068 0.81687 0.0
O376 O 0.29765 0.25781 0.7811 0.0
O377 O 0.28576 0.33247 0.80468 0.0
C378 C 0.26543 0.24227 0.6787 0.0
O379 O 0.2811 0.31806 0.74461 0.0
C380 C 0.21057 0.28305 0.77567 0.0
C381 C 0.2465 0.2058 0.79488 0.0
O382 O 0.28628 0.26525 0.69794 0.0
O383 O 0.24068 0.23267 0.69558 0.0
O384 O 0.20878 0.27628 0.74212 0.0
O385 O 0.23902 0.28035 0.78708 0.0
O386 O 0.25086 0.2137 0.76271 0.0
O387 O 0.25432 0.22828 0.82268 0.0
C388 C 0.27497 0.30108 0.88979 0.0
O389 O 0.29231 0.27844 0.87925 0.0
O390 O 0.25997 0.31226 0.86329 0.0
C391 C 0.32676 0.27303 0.78679 0.0
Tb392 Tb 0.01338 0.0366 0.48342 0.0
C393 C 0.97453 0.01987 0.5471 0.0
Tb394 Tb 0.05139 0.03518 0.55782 0.0
O395 O 1.00017 0.98079 0.47995 0.0
O396 O 0.0422 1.00486 0.50966 0.0
O397 O 0.97404 0.03338 0.51666 0.0
C398 C 0.07991 0.01105 0.61306 0.0
O399 O 1.0016 0.01514 0.56536 0.0
C400 C 0.03436 0.09595 0.54852 0.0
C401 C 0.08911 0.06178 0.49667 0.0
O402 O 0.05184 0.99782 0.59672 0.0
O403 O 0.09187 0.03793 0.59825 0.0
O404 O 0.05027 0.08909 0.5769 0.0
O405 O 0.02803 0.06841 0.52936 0.0
O406 O 0.09068 0.04543 0.52539 0.0
O407 O 0.06144 0.0648 0.47841 0.0
C408 C 0.98794 0.04706 0.42046 0.0
O409 O 0.0145 0.03454 0.42726 0.0
O410 O 0.97573 0.05399 0.44927 0.0
C411 C 0.02399 0.97652 0.50208 0.0
Tb412 Tb 0.3066 0.78344 0.79073 0.0
C413 C 0.25527 0.79562 0.84238 0.0
Tb414 Tb 0.23592 0.7783 0.76084 0.0
O415 O 0.3083 0.83781 0.80744 0.0
O416 O 0.27844 0.81491 0.76341 0.0
O417 O 0.28356 0.78513 0.83877 0.0
C418 C 0.17533 0.78547 0.7395 0.0
O419 O 0.23412 0.79776 0.81515 0.0
C420 C 0.25697 0.71989 0.76716 0.0
C421 C 0.28768 0.76929 0.70859 0.0
O422 O 0.2011 0.80737 0.73622 0.0
O423 O 0.18373 0.75979 0.75507 0.0
O424 O 0.23474 0.72443 0.74322 0.0
O425 O 0.26414 0.74662 0.78782 0.0
O426 O 0.2587 0.77812 0.71248 0.0
O427 O 0.30921 0.7674 0.73561 0.0
C428 C 0.36517 0.77074 0.81372 0.0
O429 O 0.33834 0.74908 0.81145 0.0
O430 O 0.35907 0.79954 0.80274 0.0
C431 C 0.28599 0.84206 0.78334 0.0
Tb432 Tb 0.48386 0.02177 0.02798 0.0
C433 C 0.53469 0.97195 0.03309 0.0
Tb434 Tb 0.55604 0.05349 0.03633 0.0
O435 O 0.48915 0.99822 0.97619 0.0
O436 O 0.51775 0.04465 0.99582 0.0
O437 O 0.50435 0.97589 0.03736 0.0
C438 C 0.61789 0.07327 0.02409 0.0
O439 O 0.55804 0.99816 0.02999 0.0
C440 C 0.52611 0.05528 0.09315 0.0
C441 C 0.50477 0.10257 0.0295 0.0
O442 O 0.60747 0.07263 0.05461 0.0
O443 O 0.59354 0.06258 1.00085 0.0
O444 O 0.55066 0.07799 0.0877 0.0
O445 O 0.52182 0.03155 0.06887 0.0
O446 O 0.53468 0.09824 0.02363 0.0
O447 O 0.48223 0.07688 0.03578 0.0
C448 C 0.4214 1.00294 0.03733 0.0
O449 O 0.43221 0.0117 0.0084 0.0
O450 O 0.4458 1.00471 0.06086 0.0
C451 C 0.5132 0.02161 0.97096 0.0
Tb452 Tb 0.23457 0.27503 0.2891 0.0
C453 C 0.29184 0.28479 0.34845 0.0
Tb454 Tb 0.30215 0.3062 0.27333 0.0
O455 O 0.25009 0.2247 0.29193 0.0
O456 O 0.27091 0.25927 0.25945 0.0
O457 O 0.26014 0.28385 0.34094 0.0
C458 C 0.36345 0.3124 0.25814 0.0
O459 O 0.31298 0.29099 0.32542 0.0
C460 C 0.26465 0.35077 0.29115 0.0
C461 C 0.24495 0.29889 0.21498 0.0
O462 O 0.3486 0.28757 0.27355 0.0
O463 O 0.34398 0.33438 0.25224 0.0
O464 O 0.28839 0.35754 0.27209 0.0
O465 O 0.26596 0.32202 0.30266 0.0
O466 O 0.27602 0.29609 0.22193 0.0
O467 O 0.22381 0.2933 0.2382 0.0
C468 C 0.17402 0.26385 0.30702 0.0
O469 O 0.18987 0.29322 0.30099 0.0
O470 O 0.19193 0.24044 0.30152 0.0
C471 C 0.27279 0.23087 0.27156 0.0
Tb472 Tb 0.50401 0.53713 0.9977 0.0
C473 C 0.46292 0.52711 0.06159 0.0
Tb474 Tb 0.53999 0.54401 0.07156 0.0
O475 O 0.51898 0.4869 0.98528 0.0
O476 O 0.5145 0.5041 0.03587 0.0
O477 O 0.46275 0.53387 0.0285 0.0
C478 C 0.56645 0.53225 0.13346 0.0
O479 O 0.49006 0.52742 0.08242 0.0
C480 C 0.53565 0.60177 0.04338 0.0
C481 C 0.57937 0.5444 0.00716 0.0
O482 O 0.54295 0.54992 0.12829 0.0
O483 O 0.57525 0.52187 0.10387 0.0
O484 O 0.559 0.59844 0.06665 0.0
O485 O 0.51527 0.5748 0.04003 0.0
O486 O 0.57743 0.53448 0.03882 0.0
O487 O 0.55432 0.55316 0.9885 0.0
C488 C 0.47115 0.55028 0.93976 0.0
O489 O 0.49648 0.57008 0.95592 0.0
O490 O 0.46456 0.52291 0.9561 0.0
C491 C 0.52393 0.48083 0.01767 0.0
Tb492 Tb 0.81667 0.29973 0.29162 0.0
C493 C 0.75958 0.30586 0.33944 0.0
Tb494 Tb 0.74498 0.28474 0.25876 0.0
O495 O 0.8138 0.35362 0.30665 0.0
O496 O 0.78369 0.32648 0.26511 0.0
O497 O 0.78975 0.29998 0.33722 0.0
C498 C 0.68711 0.28881 0.2264 0.0
O499 O 0.73836 0.30474 0.31152 0.0
C500 C 0.77335 0.22991 0.26436 0.0
C501 C 0.80087 0.28435 0.20928 0.0
O502 O 0.69155 0.27312 0.25438 0.0
O503 O 0.71493 0.30221 0.21742 0.0
O504 O 0.74688 0.23026 0.24432 0.0
O505 O 0.77873 0.2574 0.28402 0.0
O506 O 0.77045 0.28879 0.21248 0.0
O507 O 0.82298 0.28573 0.23661 0.0
C508 C 0.87107 0.29049 0.32801 0.0
O509 O 0.86973 0.31221 0.30435 0.0
O510 O 0.84226 0.27397 0.33024 0.0
C511 C 0.7889 0.35422 0.28424 0.0
Tb512 Tb 0.98212 0.53281 0.51944 0.0
C513 C 0.0288 0.47815 0.53723 0.0
Tb514 Tb 0.0553 0.55603 0.53339 0.0
O515 O 0.98423 0.53688 0.4633 0.0
O516 O 0.02359 0.52522 0.49375 0.0
O517 O 0.99892 0.48598 0.53572 0.0
C518 C 0.1158 0.58137 0.52067 0.0
O519 O 0.05441 0.50097 0.53246 0.0
C520 C 0.02397 0.55495 0.58932 0.0
C521 C 1.00859 0.61195 0.52137 0.0
O522 O 0.10787 0.56893 0.5494 0.0
O523 O 0.08971 0.57929 0.49935 0.0
O524 O 0.0546 0.55221 0.58953 0.0
O525 O 0.0141 0.56231 0.5596 0.0
O526 O 0.03838 0.60414 0.52109 0.0
O527 O 0.98304 0.58828 0.52444 0.0
C528 C 0.92048 0.50722 0.52864 0.0
O529 O 0.92989 0.5209 0.50105 0.0
O530 O 0.9458 0.5078 0.55068 0.0
C531 C 0.01438 0.53235 0.46377 0.0
Tb532 Tb 0.77747 0.78654 0.31214 0.0
C533 C 0.79199 0.84108 0.25701 0.0
Tb534 Tb 0.75503 0.7667 0.23098 0.0
O535 O 0.82909 0.78007 0.30976 0.0
O536 O 0.79615 0.77062 0.26691 0.0
O537 O 0.78701 0.83599 0.2898 0.0
C538 C 0.75429 0.74145 0.1661 0.0
O539 O 0.78504 0.81661 0.23096 0.0
C540 C 0.70699 0.78358 0.2661 0.0
C541 C 0.7444 0.71073 0.28511 0.0
O542 O 0.75156 0.77299 0.17545 0.0
O543 O 0.7577 0.72449 0.19319 0.0
O544 O 0.70385 0.77529 0.23277 0.0
O545 O 0.73609 0.78231 0.27621 0.0
O546 O 0.74958 0.71745 0.25285 0.0
O547 O 0.75043 0.73451 0.31201 0.0
C548 C 0.77855 0.81201 0.37708 0.0
O549 O 0.79004 0.78447 0.36765 0.0
O550 O 0.76601 0.82466 0.34999 0.0
C551 C 0.82564 0.77095 0.27659 0.0
Tb552 Tb 0.77259 0.31774 0.77429 0.0
C553 C 0.83422 0.27805 0.76661 0.0
Tb554 Tb 0.7612 0.24114 0.75278 0.0
O555 O 0.76511 0.30933 0.82885 0.0
O556 O 0.78221 0.2733 0.79715 0.0
O557 O 0.82275 0.30772 0.76901 0.0
C558 C 0.74028 0.17505 0.76013 0.0
O559 O 0.81428 0.24805 0.76268 0.0
C560 C 0.76171 0.2809 0.70074 0.0
C561 C 0.69991 0.27948 0.76397 0.0
O562 O 0.75102 0.18684 0.73214 0.0
O563 O 0.74176 0.20039 0.7835 0.0
O564 O 0.76983 0.25034 0.69883 0.0
O565 O 0.75105 0.28576 0.7297 0.0
O566 O 0.7119 0.25027 0.76128 0.0
O567 O 0.7191 0.30991 0.76641 0.0
C568 C 0.79308 0.38336 0.76495 0.0
O569 O 0.78162 0.37252 0.793 0.0
O570 O 0.79271 0.35736 0.74262 0.0
C571 C 0.77231 0.27836 0.82643 0.0
Tb572 Tb 0.72794 0.76516 0.75957 0.0
C573 C 0.76502 0.78625 0.83544 0.0
Tb574 Tb 0.79649 0.80697 0.76992 0.0
O575 O 0.74645 0.72002 0.73762 0.0
O576 O 0.77524 0.75578 0.77407 0.0
O577 O 0.73707 0.78007 0.81531 0.0
C578 C 0.85957 0.82404 0.76278 0.0
O579 O 0.79328 0.79466 0.82291 0.0
C580 C 0.74925 0.84255 0.77669 0.0
C581 C 0.75821 0.7872 0.69388 0.0
O582 O 0.84648 0.79736 0.77691 0.0
O583 O 0.83711 0.84192 0.75378 0.0
O584 O 0.77836 0.85194 0.79282 0.0
O585 O 0.74933 0.81655 0.75607 0.0
O586 O 0.78651 0.79287 0.71371 0.0
O587 O 0.73024 0.77765 0.70668 0.0
C588 C 0.66595 0.74781 0.77163 0.0
O589 O 0.67853 0.77611 0.75983 0.0
O590 O 0.68805 0.72814 0.77412 0.0
C591 C 0.77548 0.72952 0.7539 0.0
Tb592 Tb 0.52519 0.57731 0.52516 0.0
C593 C 0.52866 0.51851 0.46728 0.0
Tb594 Tb 0.50573 0.50219 0.54068 0.0
O595 O 0.57586 0.56946 0.52307 0.0
O596 O 0.54644 0.54104 0.55435 0.0
O597 O 0.52636 0.55118 0.47457 0.0
C598 C 0.50703 0.43819 0.55872 0.0
O599 O 0.52284 0.49476 0.48942 0.0
C600 C 0.45662 0.5343 0.52229 0.0
C601 C 0.49995 0.56054 0.59704 0.0
O602 O 0.53153 0.4592 0.55063 0.0
O603 O 0.48145 0.45299 0.55589 0.0
O604 O 0.4545 0.50823 0.54091 0.0
O605 O 0.48453 0.53827 0.51165 0.0
O606 O 0.5082 0.52963 0.59168 0.0
O607 O 0.50248 0.58317 0.57331 0.0
C608 C 0.52591 0.6394 0.50177 0.0
O609 O 0.54549 0.63241 0.52742 0.0
O610 O 0.5055 0.61191 0.49088 0.0
C611 C 0.57383 0.54402 0.54251 0.0
Tb612 Tb 0.04899 0.53462 0.0172 0.0
C613 C 0.02557 0.50732 0.08821 0.0
Tb614 Tb 0.97871 0.52589 0.02811 0.0
O615 O 0.05133 0.59013 0.01746 0.0
O616 O 0.02021 0.56173 0.04757 0.0
O617 O 0.04805 0.50906 0.06593 0.0
C618 C 0.92007 0.54186 0.03517 0.0
O619 O 0.99651 0.51562 0.07993 0.0
C620 C 0.99849 0.46915 1.0058 0.0
C621 C 1.00172 0.55161 0.95675 0.0
O622 O 0.92597 0.5166 0.01481 0.0
O623 O 0.94707 0.55716 0.0521 0.0
O624 O 0.97492 0.46995 0.02543 0.0
O625 O 1.00742 0.49904 0.9974 0.0
O626 O 0.97972 0.55123 0.9794 0.0
O627 O 0.03051 0.54253 0.96475 0.0
C628 C 0.11014 0.52649 0.01152 0.0
O629 O 0.10104 0.55021 0.03126 0.0
O630 O 0.08477 0.50738 0.99475 0.0
C631 C 0.02853 0.59123 0.03789 0.0
C632 C 0.02403 0.199 0.92146 0.0
C633 C 0.03945 0.23005 0.93981 0.0
C634 C 0.02242 0.16777 0.93664 0.0
C635 C 0.0361 0.16614 0.97085 0.0
H636 H 0.01314 0.19864 0.895 0.0
H637 H 0.01029 0.14466 0.92129 0.0
S638 S 0.07896 0.23969 0.03057 0.0
N639 N 0.06859 0.257 0.99457 0.0
N640 N 0.06537 0.19816 0.02288 0.0
C641 C 0.05145 0.19683 0.98969 0.0
C642 C 0.05317 0.22878 0.97424 0.0
C643 C 0.10926 0.76546 0.23366 0.0
C644 C 0.09996 0.79477 0.21955 0.0
C645 C 0.14135 0.76536 0.24831 0.0
C646 C 0.16557 0.79466 0.24997 0.0
H647 H 0.09196 0.74194 0.23227 0.0
H648 H 0.14737 0.74171 0.25762 0.0
S649 S 0.15323 0.87907 0.2193 0.0
N650 N 0.11734 0.85464 0.2102 0.0
N651 N 0.17712 0.85454 0.23776 0.0
C652 C 0.15616 0.82464 0.23741 0.0
C653 C 0.12359 0.82463 0.2222 0.0
C654 C 0.50439 0.87896 0.47676 0.0
C655 C 0.51839 0.88084 0.44515 0.0
C656 C 0.50108 0.90866 0.49721 0.0
C657 C 0.51141 0.94153 0.48685 0.0
H658 H 0.49547 0.85428 0.48566 0.0
H659 H 0.4897 0.90579 0.52104 0.0
S660 S 0.54958 0.96082 0.40625 0.0
N661 N 0.54321 0.9185 0.40477 0.0
N662 N 0.53624 0.97425 0.44271 0.0
C663 C 0.52602 0.94389 0.45561 0.0
C664 C 0.5297 0.91359 0.43492 0.0
C665 C 0.37518 0.23913 0.71672 0.0
C666 C 0.40655 0.2586 0.72484 0.0
C667 C 0.34951 0.24371 0.73678 0.0
C668 C 0.35394 0.26838 0.76548 0.0
H669 H 0.37037 0.21995 0.69475 0.0
H670 H 0.3261 0.22766 0.72985 0.0
S671 S 0.43077 0.3269 0.7973 0.0
N672 N 0.44018 0.30385 0.76368 0.0
N673 N 0.39205 0.31291 0.8007 0.0
C674 C 0.38506 0.28813 0.77379 0.0
C675 C 0.41129 0.28319 0.75368 0.0
C676 C 0.05258 0.91422 0.5626 0.0
C677 C 0.02368 0.89191 0.56621 0.0
C678 C 0.05261 0.94115 0.5411 0.0
C679 C 0.02376 0.94676 0.52263 0.0
H680 H 0.07541 0.91105 0.57658 0.0
H681 H 0.0753 0.95795 0.53927 0.0
S682 S 0.94137 0.89661 0.52372 0.0
N683 N 0.96525 0.87774 0.54967 0.0
N684 N 0.96547 0.92844 0.50946 0.0
C685 C 0.99474 0.92464 0.52573 0.0
C686 C 0.99463 0.89723 0.54758 0.0
C687 C 0.44952 0.78947 0.86133 0.0
C688 C 0.45623 0.75668 0.86815 0.0
C689 C 0.42041 0.7936 0.8426 0.0
C690 C 0.39669 0.76515 0.83052 0.0
H691 H 0.46694 0.81224 0.87043 0.0
H692 H 0.41616 0.81937 0.83833 0.0
S693 S 0.40242 0.67371 0.84064 0.0
N694 N 0.43701 0.69509 0.86044 0.0
N695 N 0.38186 0.70302 0.82578 0.0
C696 C 0.40309 0.73217 0.83674 0.0
C697 C 0.43301 0.72788 0.85541 0.0
C698 C 0.47399 0.18171 0.06394 0.0
C699 C 0.49014 0.20765 0.04585 0.0
C700 C 0.47718 0.1473 0.05683 0.0
C701 C 0.49724 0.13776 0.03196 0.0
H702 H 0.45972 0.18821 0.08464 0.0
H703 H 0.46539 0.12838 0.07239 0.0
S704 S 0.54237 0.19525 0.97523 0.0
N705 N 0.52473 0.22103 0.99995 0.0
N706 N 0.53133 0.15632 0.9872 0.0
C707 C 0.51221 0.16312 0.01247 0.0
C708 C 0.50845 0.19811 0.01922 0.0
C709 C 0.11204 0.28849 0.36423 0.0
C710 C 0.10039 0.2574 0.37764 0.0
C711 C 0.13418 0.28978 0.33933 0.0
C712 C 0.14579 0.26011 0.32724 0.0
H713 H 0.10438 0.31218 0.37338 0.0
H714 H 0.14331 0.31453 0.33067 0.0
S715 S 0.12152 0.17195 0.35265 0.0
N716 N 0.10071 0.19586 0.37566 0.0
N717 N 0.14286 0.19841 0.32909 0.0
C718 C 0.13338 0.22858 0.33932 0.0
C719 C 0.11054 0.2272 0.36452 0.0
C720 C 0.94633 0.05133 0.15882 0.0
C721 C 0.92886 0.07895 0.15872 0.0
C722 C 0.96829 0.04692 0.13444 0.0
C723 C 0.97358 0.06967 0.10844 0.0
H724 H 0.94271 0.03253 0.17765 0.0
H725 H 0.98032 0.02458 0.13532 0.0
S726 S 0.93532 0.1475 0.09805 0.0
N727 N 0.91967 0.13073 0.13176 0.0
N728 N 0.96065 0.12211 0.08537 0.0
C729 C 0.95741 0.09838 0.10896 0.0
C730 C 0.93509 0.10304 0.13415 0.0
C731 C 0.25531 0.71733 0.39469 0.0
C732 C 0.28578 0.722 0.41481 0.0
C733 C 0.24869 0.73894 0.36856 0.0
C734 C 0.27231 0.76598 0.3613 0.0
H735 H 0.23636 0.69663 0.39905 0.0
H736 H 0.22513 0.73398 0.35342 0.0
S737 S 0.35644 0.78828 0.4046 0.0
N738 N 0.34 0.75559 0.4248 0.0
N739 N 0.32771 0.79563 0.37526 0.0
C740 C 0.30284 0.77103 0.38105 0.0
C741 C 0.3095 0.74926 0.40796 0.0
C742 C 0.53095 0.01269 0.6903 0.0
C743 C 0.55878 0.99817 0.69995 0.0
C744 C 0.52027 0.01484 0.65527 0.0
C745 C 0.53723 1.00298 0.62835 0.0
H746 H 0.51762 0.02323 0.70999 0.0
H747 H 0.49932 0.02725 0.6494 0.0
S748 S 0.61028 0.96052 0.6393 0.0
N749 N 0.602 0.9698 0.67932 0.0
N750 N 0.58216 0.97422 0.6137 0.0
C751 C 0.56441 0.98726 0.63752 0.0
C752 C 0.57509 0.98471 0.67321 0.0
C753 C 0.25449 0.35689 0.9641 0.0
C754 C 0.27754 0.3527 0.99151 0.0
C755 C 0.25294 0.33858 0.93184 0.0
C756 C 0.27443 0.3154 0.92562 0.0
H757 H 0.2379 0.37513 0.9672 0.0
H758 H 0.23538 0.34352 0.91129 0.0
S759 S 0.33708 0.2922 0.98944 0.0
N760 N 0.32068 0.32143 0.01113 0.0
N761 N 0.31773 0.28695 0.94991 0.0
C762 C 0.29641 0.30936 0.95315 0.0
C763 C 0.29799 0.32806 0.98628 0.0
C764 C 0.92588 0.06155 0.34826 0.0
C765 C 0.93986 0.0523 0.318 0.0
C766 C 0.94207 0.06075 0.38131 0.0
C767 C 0.97282 0.05065 0.38539 0.0
H768 H 0.9019 0.06882 0.34655 0.0
H769 H 0.93002 0.06733 0.40382 0.0
S770 S 0.0215 0.02688 0.3149 0.0
N771 N 0.98744 0.03485 0.29449 0.0
N772 N 0.01773 0.03336 0.35671 0.0
C773 C 0.98771 0.04261 0.35552 0.0
C774 C 0.97126 0.04345 0.32179 0.0
C775 C 0.2828 0.76089 0.60977 0.0
C776 C 0.30439 0.73791 0.6023 0.0
C777 C 0.27825 0.77143 0.64404 0.0
C778 C 0.29538 0.75993 0.67264 0.0
H779 H 0.26848 0.77026 0.58895 0.0
H780 H 0.26078 0.78853 0.64808 0.0
S781 S 0.35593 0.70063 0.66785 0.0
N782 N 0.34385 0.70468 0.62685 0.0
N783 N 0.3357 0.72492 0.69118 0.0
C784 C 0.31788 0.73781 0.66573 0.0
C785 C 0.32224 0.7267 0.63067 0.0
C786 C 0.55179 0.99003 0.89212 0.0
C787 C 0.56875 0.02043 0.88136 0.0
C788 C 0.5336 0.99064 0.92087 0.0
C789 C 0.53189 0.02163 0.94022 0.0
H790 H 0.5526 0.96544 0.87834 0.0
H791 H 0.52121 0.9666 0.92831 0.0
S792 S 0.57034 0.10861 0.92249 0.0
N793 N 0.58152 0.08271 0.89225 0.0
N794 N 0.5475 0.08357 0.94594 0.0
C795 C 0.54831 0.0522 0.92963 0.0
C796 C 0.56668 0.05169 0.90033 0.0
C797 C 0.25703 0.34149 0.13317 0.0
C798 C 0.23259 0.3621 0.13168 0.0
C799 C 0.25851 0.3179 0.158 0.0
C800 C 0.23604 0.31464 0.18287 0.0
H801 H 0.27589 0.34445 0.11574 0.0
H802 H 0.27881 0.30385 0.1591 0.0
S803 S 0.16465 0.35967 0.18668 0.0
N804 N 0.18305 0.37506 0.15389 0.0
N805 N 0.18629 0.33136 0.20182 0.0
C806 C 0.20982 0.33311 0.1798 0.0
C807 C 0.20805 0.35684 0.15393 0.0
C808 C 0.14778 0.99123 0.03788 0.0
C809 C 0.13692 0.9555 0.03572 0.0
C810 C 0.12568 0.01492 0.03623 0.0
C811 C 0.09168 1.00416 0.03284 0.0
H812 H 0.17358 1.00108 0.04067 0.0
H813 H 0.1354 0.04203 0.03761 0.0
S814 S 0.05074 0.91323 0.0222 0.0
N815 N 0.08972 0.91063 0.02747 0.0
N816 N 0.04889 0.95466 0.02496 0.0
C817 C 0.08071 0.9685 0.03043 0.0
C818 C 0.10309 0.9444 0.03169 0.0
C819 C 0.65055 0.57914 0.9599 0.0
C820 C 0.6758 0.56359 0.9752 0.0
C821 C 0.61878 0.57126 0.96882 0.0
C822 C 0.61121 0.5476 0.9933 0.0
H823 H 0.65564 0.59918 0.94264 0.0
H824 H 0.60056 0.58539 0.95804 0.0
S825 S 0.66678 0.49421 0.03479 0.0
N826 N 0.68986 0.51931 0.01156 0.0
N827 N 0.63009 0.50453 0.0283 0.0
C828 C 0.63548 0.5295 0.00624 0.0
C829 C 0.6678 0.53745 0.99711 0.0
C830 C 0.74048 0.4179 0.32356 0.0
C831 C 0.71825 0.42232 0.29546 0.0
C832 C 0.76386 0.3964 0.3195 0.0
C833 C 0.76586 0.37877 0.28718 0.0
H834 H 0.7394 0.43054 0.34902 0.0
H835 H 0.7799 0.3929 0.34204 0.0
S836 S 0.71671 0.38571 0.20441 0.0
N837 N 0.70167 0.40956 0.23353 0.0
N838 N 0.74633 0.37021 0.22593 0.0
C839 C 0.74478 0.38412 0.25863 0.0
C840 C 0.72075 0.40561 0.26277 0.0
C841 C 0.84899 0.46602 0.57305 0.0
C842 C 0.82246 0.46265 0.54724 0.0
C843 C 0.88038 0.48085 0.56683 0.0
C844 C 0.88668 0.49296 0.53453 0.0
H845 H 0.84568 0.45673 0.59827 0.0
H846 H 0.89995 0.48252 0.58748 0.0
S847 S 0.82596 0.49137 0.45833 0.0
N848 N 0.80477 0.47362 0.48809 0.0
N849 N 0.86377 0.50148 0.47662 0.0
C850 C 0.86043 0.49048 0.50867 0.0
C851 C 0.82836 0.47536 0.51495 0.0
C852 C 0.34449 0.19665 0.23516 0.0
C853 C 0.34871 0.16881 0.25496 0.0
C854 C 0.3197 0.21627 0.24031 0.0
C855 C 0.29825 0.20918 0.26572 0.0
H856 H 0.36044 0.20344 0.21542 0.0
H857 H 0.31741 0.23726 0.22429 0.0
S858 S 0.2983 0.13918 0.32449 0.0
N859 N 0.32862 0.13513 0.30093 0.0
N860 N 0.28261 0.1722 0.31071 0.0
C861 C 0.30199 0.18139 0.28556 0.0
C862 C 0.32707 0.16126 0.28024 0.0
C863 C 0.345 0.06857 0.55266 0.0
C864 C 0.3269 0.06424 0.51992 0.0
C865 C 0.37398 0.05522 0.55771 0.0
C866 C 0.38509 0.03653 0.53039 0.0
H867 H 0.3381 0.08453 0.57369 0.0
H868 H 0.38857 0.06103 0.58257 0.0
S869 S 0.34359 0.01405 0.4413 0.0
N870 N 0.32007 0.0375 0.46092 0.0
N871 N 0.37398 0.01116 0.47065 0.0
C872 C 0.36563 0.02948 0.49845 0.0
C873 C 0.3366 0.04376 0.49313 0.0
C874 C 0.71619 0.62942 0.32887 0.0
C875 C 0.69843 0.60766 0.30116 0.0
C876 C 0.73125 0.66277 0.32365 0.0
C877 C 0.72957 0.67509 0.29041 0.0
H878 H 0.71757 0.62106 0.35486 0.0
H879 H 0.74415 0.679 0.34579 0.0
S880 S 0.68755 0.62657 0.20893 0.0
N881 N 0.68124 0.59988 0.23924 0.0
N882 N 0.70935 0.66182 0.22919 0.0
C883 C 0.71261 0.65288 0.26238 0.0
C884 C 0.6971 0.61936 0.26782 0.0
C885 C 0.82976 0.45931 0.71973 0.0
C886 C 0.8408 0.48471 0.74724 0.0
C887 C 0.81347 0.42696 0.72577 0.0
C888 C 0.8072 0.41887 0.75946 0.0
H889 H 0.83453 0.464 0.69339 0.0
H890 H 0.80621 0.40793 0.70385 0.0
S891 S 0.82864 0.47692 0.84019 0.0
N892 N 0.84266 0.50003 0.80941 0.0
N893 N 0.81169 0.43923 0.82047 0.0
C894 C 0.81686 0.44433 0.78705 0.0
C895 C 0.83379 0.47724 0.78101 0.0
C896 C 0.98183 0.85038 0.0937 0.0
C897 C 0.99011 0.85695 0.12989 0.0
C898 C 0.98113 0.87737 0.07197 0.0
C899 C 0.98933 0.91179 0.08566 0.0
H900 H 0.97569 0.82419 0.0821 0.0
H901 H 0.97486 0.87127 0.0443 0.0
S902 S 0.01304 0.94279 0.1785 0.0
N903 N 1.00659 0.90058 0.17818 0.0
N904 N 1.00574 0.95094 0.1377 0.0
C905 C 0.99758 0.91861 0.12177 0.0
C906 C 0.99785 0.89131 0.1438 0.0
C907 C 0.91341 0.24689 0.79583 0.0
C908 C 0.93584 0.27741 0.8044 0.0
C909 C 0.8813 0.24729 0.78184 0.0
C910 C 0.86987 0.27827 0.77575 0.0
H911 H 0.92035 0.2223 0.80089 0.0
H912 H 0.86499 0.22302 0.77707 0.0
S913 S 0.9196 0.36535 0.79016 0.0
N914 N 0.94486 0.3395 0.80312 0.0
N915 N 0.88471 0.34031 0.77686 0.0
C916 C 0.89249 0.30893 0.78253 0.0
C917 C 0.92532 0.3085 0.7968 0.0
C918 C 0.53163 0.18758 0.57515 0.0
C919 C 0.51498 0.18639 0.60515 0.0
C920 C 0.53538 0.15758 0.55552 0.0
C921 C 0.52269 0.12498 0.56491 0.0
H922 H 0.54238 0.21194 0.56687 0.0
H923 H 0.54889 0.16002 0.53306 0.0
S924 S 0.47596 0.1072 0.64027 0.0
N925 N 0.48467 0.14949 0.64257 0.0
N926 N 0.49192 0.09313 0.60573 0.0
C927 C 0.50521 0.12324 0.59426 0.0
C928 C 0.50133 0.1539 0.61435 0.0
C929 C 0.65875 0.79499 0.34386 0.0
C930 C 0.62775 0.79899 0.3285 0.0
C931 C 0.68445 0.79071 0.32375 0.0
C932 C 0.68035 0.79033 0.28738 0.0
H933 H 0.66322 0.79461 0.37175 0.0
H934 H 0.70741 0.78681 0.33677 0.0
S935 S 0.6048 0.80094 0.234 0.0
N936 N 0.59507 0.80313 0.27428 0.0
N937 N 0.64317 0.79518 0.23675 0.0
C938 C 0.64976 0.79483 0.27165 0.0
C939 C 0.62358 0.79918 0.29208 0.0
C940 C 0.04234 0.19284 0.5549 0.0
C941 C 0.03584 0.19996 0.52019 0.0
C942 C 0.04052 0.15895 0.56392 0.0
C943 C 0.03198 0.13094 0.53864 0.0
H944 H 0.0497 0.21353 0.57521 0.0
H945 H 0.04662 0.15473 0.59083 0.0
S946 S 0.01124 0.13546 0.44434 0.0
N947 N 0.01917 0.17583 0.46057 0.0
N948 N 0.01605 0.11257 0.47777 0.0
C949 C 0.02439 0.13764 0.50413 0.0
C950 C 0.02625 0.17204 0.49483 0.0
C951 C 0.62843 0.29295 0.14785 0.0
C952 C 0.59802 0.28751 0.1608 0.0
C953 C 0.65705 0.2938 0.16966 0.0
C954 C 0.65623 0.2884 0.205 0.0
H955 H 0.63023 0.29714 0.12076 0.0
H956 H 0.68 0.2983 0.15856 0.0
S957 S 0.58276 0.27244 0.25159 0.0
N958 N 0.56861 0.27666 0.21124 0.0
N959 N 0.62273 0.27722 0.25207 0.0
C960 C 0.62604 0.28254 0.21831 0.0
C961 C 0.59681 0.2824 0.19622 0.0
C962 C 0.56441 0.89487 0.99124 0.0
C963 C 0.54469 0.86703 1.00346 0.0
C964 C 0.56283 0.92892 1.00293 0.0
C965 C 0.54134 0.93643 0.02715 0.0
H966 H 0.58015 0.89051 0.97127 0.0
H967 H 0.57708 0.94945 0.99127 0.0
S968 S 0.48835 0.87322 0.07152 0.0
N969 N 0.50593 0.84957 0.04457 0.0
N970 N 0.50279 0.91346 0.06603 0.0
C971 C 0.52318 0.90894 0.04137 0.0
C972 C 0.52493 0.87428 0.0297 0.0
C973 C 0.92195 0.8402 0.69952 0.0
C974 C 0.9444 0.81888 0.70972 0.0
C975 C 0.89594 0.84427 0.71887 0.0
C976 C 0.89109 0.82639 0.74845 0.0
H977 H 0.92416 0.85335 0.6761 0.0
H978 H 0.87851 0.85993 0.70939 0.0
S979 S 0.94407 0.76896 0.78699 0.0
N980 N 0.96142 0.78149 0.75249 0.0
N981 N 0.91177 0.78815 0.78817 0.0
C982 C 0.91412 0.80615 0.75972 0.0
C983 C 0.94099 0.80259 0.74046 0.0
C984 C 0.08578 0.97696 0.89901 0.0
C985 C 0.08052 0.9933 0.86835 0.0
C986 C 0.06555 0.97894 0.92588 0.0
C987 C 0.03968 0.99781 0.92327 0.0
H988 H 0.10627 0.96341 0.90275 0.0
H989 H 0.07159 0.96761 0.94974 0.0
S990 S 0.01386 0.04316 0.84781 0.0
N991 N 0.04574 0.02691 0.83628 0.0
N992 N 1.00854 0.0312 0.88703 0.0
C993 C 0.03321 0.01283 0.89222 0.0
C994 C 0.05339 0.01042 0.8647 0.0
C995 C 0.76021 0.30827 0.60828 0.0
C996 C 0.74456 0.33747 0.60933 0.0
C997 C 0.76584 0.29061 0.6379 0.0
C998 C 0.75611 0.30115 0.67014 0.0
H999 H 0.7683 0.29874 0.58427 0.0
H1000 H 0.77789 0.26835 0.63537 0.0
S1001 S 0.71461 0.37626 0.68761 0.0
N1002 N 0.7199 0.37638 0.64599 0.0
N1003 N 0.7299 0.34296 0.70131 0.0
C1004 C 0.74046 0.33032 0.67173 0.0
C1005 C 0.73484 0.34847 0.64151 0.0
C1006 C 0.45679 0.08582 0.38377 0.0
C1007 C 0.4751 0.07871 0.35621 0.0
C1008 C 0.46721 0.08042 0.41815 0.0
C1009 C 0.49665 0.0682 0.42652 0.0
H1010 H 0.43346 0.09413 0.37861 0.0
H1011 H 0.4516 0.08507 0.43815 0.0
S1012 S 0.55524 0.04922 0.36409 0.0
N1013 N 0.52513 0.06116 0.33987 0.0
N1014 N 0.54512 0.05166 0.40418 0.0
C1015 C 0.516 0.06278 0.39933 0.0
C1016 C 0.50513 0.06783 0.36431 0.0
C1017 C 0.76367 0.73585 0.07038 0.0
C1018 C 0.75928 0.70023 0.06168 0.0
C1019 C 0.76116 0.74911 0.1042 0.0
C1020 C 0.7547 0.72713 0.13039 0.0
H1021 H 0.76918 0.75364 0.05098 0.0
H1022 H 0.76504 0.77671 0.11002 0.0
S1023 S 0.74036 0.63196 0.12101 0.0
N1024 N 0.74728 0.64319 0.0819 0.0
N1025 N 0.74299 0.66827 0.14557 0.0
C1026 C 0.74981 0.69151 0.12204 0.0
C1027 C 0.75196 0.67798 0.08758 0.0
C1028 C 0.08921 0.96245 0.69317 0.0
C1029 C 0.11842 0.98018 0.71101 0.0
C1030 C 0.07733 0.97192 0.66085 0.0
C1031 C 0.0944 0.99924 0.64524 0.0
H1032 H 0.07483 0.94197 0.70477 0.0
H1033 H 0.05422 0.95833 0.64848 0.0
S1034 S 0.17444 0.05037 0.6788 0.0
N1035 N 0.16579 0.02395 0.70889 0.0
N1036 N 0.14348 0.04155 0.64831 0.0
C1037 C 0.12447 0.01587 0.66188 0.0
C1038 C 0.13648 0.00638 0.69475 0.0
C1039 C 0.72284 0.35395 0.4113 0.0
C1040 C 0.74252 0.34904 0.44139 0.0
C1041 C 0.72704 0.33834 0.37845 0.0
C1042 C 0.75099 0.31718 0.37458 0.0
H1043 H 0.70539 0.37144 0.41281 0.0
H1044 H 0.7126 0.34437 0.35578 0.0
S1045 S 0.80483 0.2917 0.4464 0.0
N1046 N 0.78406 0.31841 0.46571 0.0
N1047 N 0.79164 0.28893 0.40476 0.0
C1048 C 0.7691 0.31028 0.40497 0.0
C1049 C 0.76497 0.32625 0.43811 0.0
C1050 C 0.46793 0.02995 0.16042 0.0
C1051 C 0.46536 0.06151 0.17857 0.0
C1052 C 0.48731 0.02824 0.13278 0.0
C1053 C 0.5053 0.05794 0.12213 0.0
H1054 H 0.45489 0.00612 0.16761 0.0
H1055 H 0.4886 1.00331 0.12 0.0
S1056 S 0.50641 0.14719 0.15943 0.0
N1057 N 0.48201 0.12345 0.18263 0.0
N1058 N 0.51866 0.12008 0.13108 0.0
C1059 C 0.50286 0.08971 0.13966 0.0
C1060 C 0.48281 0.09154 0.16765 0.0
C1061 C 0.78434 0.73048 0.90471 0.0
C1062 C 0.75379 0.722 0.91709 0.0
C1063 C 0.78962 0.75575 0.88161 0.0
C1064 C 0.76436 0.77303 0.86982 0.0
H1065 H 0.80383 0.71621 0.91131 0.0
H1066 H 0.81252 0.75909 0.87031 0.0
S1067 S 0.68249 0.76622 0.90062 0.0
N1068 N 0.6999 0.73734 0.92075 0.0
N1069 N 0.70991 0.78481 0.87704 0.0
C1070 C 0.73509 0.76784 0.88526 0.0
C1071 C 0.72969 0.74214 0.90886 0.0
C1072 C 0.92607 0.1227 1.00117 0.0
C1073 C 0.89251 0.11613 1.0049 0.0
C1074 C 0.94505 0.09623 1.00059 0.0
C1075 C 0.9316 0.06198 1.00391 0.0
H1076 H 0.93805 0.14864 0.99914 0.0
H1077 H 0.97068 0.10297 0.99877 0.0
S1078 S 0.84491 0.03038 0.01363 0.0
N1079 N 0.84654 0.07209 0.01129 0.0
N1080 N 0.88229 0.02278 0.01047 0.0
C1081 C 0.89804 0.0549 0.00727 0.0
C1082 C 0.87855 0.08177 0.00763 0.0
C1083 C 0.37251 0.50702 0.06707 0.0
C1084 C 0.36973 0.47859 0.08717 0.0
C1085 C 0.40291 0.52388 0.0603 0.0
C1086 C 0.43165 0.51335 0.07388 0.0
H1087 H 0.35102 0.5156 0.0553 0.0
H1088 H 0.40387 0.54464 0.04348 0.0
S1089 S 0.4381 0.44152 0.12902 0.0
N1090 N 0.39866 0.4415 0.12145 0.0
N1091 N 0.45572 0.47372 0.10921 0.0
C1092 C 0.42936 0.48619 0.09541 0.0
C1093 C 0.39842 0.46868 0.10196 0.0
C1094 C 0.30663 0.65325 0.79765 0.0
C1095 C 0.30883 0.63311 0.76674 0.0
C1096 C 0.28997 0.68139 0.79757 0.0
C1097 C 0.27459 0.6903 0.76666 0.0
H1098 H 0.318 0.6474 0.82223 0.0
H1099 H 0.28884 0.69606 0.82196 0.0
S1100 S 0.27307 0.64651 0.6786 0.0
N1101 N 0.29433 0.62462 0.70419 0.0
N1102 N 0.26263 0.67719 0.70423 0.0
C1103 C 0.27645 0.6705 0.73556 0.0
C1104 C 0.29374 0.64205 0.73553 0.0
C1105 C 0.20746 0.61041 0.53114 0.0
C1106 C 0.2119 0.63305 0.50501 0.0
C1107 C 0.1763 0.59337 0.53588 0.0
C1108 C 0.1487 0.59782 0.51414 0.0
H1109 H 0.22797 0.6069 0.54891 0.0
H1110 H 0.17376 0.57693 0.55694 0.0
S1111 S 0.14791 0.65218 0.44009 0.0
N1112 N 0.18646 0.65773 0.45615 0.0
N1113 N 0.12823 0.62511 0.46433 0.0
C1114 C 0.15311 0.61929 0.48703 0.0
C1115 C 0.18463 0.63708 0.48267 0.0
C1116 C 0.69747 0.90913 0.80346 0.0
C1117 C 0.6726 0.90546 0.77573 0.0
C1118 C 0.72203 0.8885 0.80378 0.0
C1119 C 0.72253 0.86325 0.77655 0.0
H1120 H 0.69844 0.92858 0.8248 0.0
H1121 H 0.74086 0.89251 0.82542 0.0
S1122 S 0.66291 0.84268 0.69811 0.0
N1123 N 0.6498 0.87373 0.72067 0.0
N1124 N 0.69605 0.83574 0.72109 0.0
C1125 C 0.69759 0.85893 0.74898 0.0
C1126 C 0.67261 0.87981 0.74862 0.0
C1127 C 0.6927 1.00466 0.54666 0.0
C1128 C 0.69613 0.97696 0.52315 0.0
C1129 C 0.66602 0.02194 0.54225 0.0
C1130 C 0.64194 0.01205 0.51424 0.0
H1131 H 0.71018 0.01243 0.56923 0.0
H1132 H 0.66349 0.04205 0.56179 0.0
S1133 S 0.64116 0.94405 0.44316 0.0
N1134 N 0.67438 0.94259 0.46905 0.0
N1135 N 0.62434 0.97511 0.46104 0.0
C1136 C 0.64589 0.98575 0.48954 0.0
C1137 C 0.67297 0.96815 0.49395 0.0
C1138 C 0.34096 0.42806 0.786 0.0
C1139 C 0.3309 0.44477 0.75707 0.0
C1140 C 0.32617 0.39485 0.79112 0.0
C1141 C 0.30125 0.37664 0.76707 0.0
H1142 H 0.36046 0.44077 0.805 0.0
H1143 H 0.33504 0.38299 0.81364 0.0
S1144 S 0.26562 0.40887 0.6872 0.0
N1145 N 0.29382 0.44099 0.70449 0.0
N1146 N 0.26665 0.37789 0.71347 0.0
C1147 C 0.29078 0.39302 0.73806 0.0
C1148 C 0.30539 0.42728 0.73326 0.0
C1149 C 0.20099 0.58729 0.23961 0.0
C1150 C 0.18583 0.57732 0.26909 0.0
C1151 C 0.21716 0.62086 0.23825 0.0
C1152 C 0.2188 0.64573 0.2663 0.0
H1153 H 0.19988 0.56924 0.21704 0.0
H1154 H 0.22789 0.62751 0.21478 0.0
S1155 S 0.18552 0.63246 0.35062 0.0
N1156 N 0.17524 0.59489 0.32784 0.0
N1157 N 0.20557 0.65784 0.32517 0.0
C1158 C 0.20466 0.63597 0.29632 0.0
C1159 C 0.18819 0.60181 0.29775 0.0
C1160 C 0.55474 0.73074 0.48011 0.0
C1161 C 0.53931 0.7314 0.44632 0.0
C1162 C 0.55002 0.70113 0.49826 0.0
C1163 C 0.52945 0.67119 0.48347 0.0
H1164 H 0.57081 0.75317 0.49264 0.0
H1165 H 0.56267 0.70168 0.52397 0.0
S1166 S 0.48379 0.6589 0.3956 0.0
N1167 N 0.50278 0.69889 0.39884 0.0
N1168 N 0.49407 0.6437 0.43278 0.0
C1169 C 0.51381 0.6715 0.44983 0.0
C1170 C 0.5187 0.70145 0.43131 0.0
C1171 C 0.61069 0.23895 0.75046 0.0
C1172 C 0.59484 0.26483 0.73703 0.0
C1173 C 0.64421 0.24472 0.76092 0.0
C1174 C 0.66369 0.2767 0.75858 0.0
H1175 H 0.59735 0.21349 0.75198 0.0
H1176 H 0.65508 0.22337 0.76991 0.0
S1177 S 0.63381 0.35437 0.72854 0.0
N1178 N 0.60098 0.32474 0.72446 0.0
N1179 N 0.66393 0.33556 0.74426 0.0
C1180 C 0.64792 0.30349 0.74707 0.0
C1181 C 0.61361 0.29755 0.73624 0.0
C1182 C 0.02718 0.41072 0.93683 0.0
C1183 C 0.01205 0.37778 0.9432 0.0
C1184 C 0.0235 0.44006 0.95782 0.0
C1185 C 1.00475 0.43759 0.98618 0.0
H1186 H 0.04108 0.41406 0.91475 0.0
H1187 H 0.03467 0.46492 0.95111 0.0
S1188 S 0.96323 0.35709 0.01646 0.0
N1189 N 0.9797 0.34434 0.98174 0.0
N1190 N 0.97309 0.39929 0.02113 0.0
C1191 C 0.99076 0.40473 0.99378 0.0
C1192 C 0.99431 0.3749 0.97233 0.0
C1193 C 0.87295 0.76104 0.1979 0.0
C1194 C 0.90503 0.76103 0.21291 0.0
C1195 C 0.8472 0.76352 0.21844 0.0
C1196 C 0.85244 0.76623 0.25489 0.0
H1197 H 0.8676 0.75946 0.16994 0.0
H1198 H 0.82318 0.76394 0.20567 0.0
S1199 S 0.93124 0.76645 0.30747 0.0
N1200 N 0.94003 0.7632 0.2669 0.0
N1201 N 0.89192 0.76796 0.30523 0.0
C1202 C 0.88418 0.7658 0.27027 0.0
C1203 C 0.91036 0.76317 0.24942 0.0
C1204 C 0.534 0.3869 0.01805 0.0
C1205 C 0.53143 0.38081 0.05302 0.0
C1206 C 0.53261 0.41971 0.00678 0.0
C1207 C 0.52882 0.44733 0.0302 0.0
H1208 H 0.53584 0.36598 0.99915 0.0
H1209 H 0.53361 0.42322 0.97946 0.0
S1210 S 0.52584 0.44515 0.12542 0.0
N1211 N 0.52873 0.40555 0.11149 0.0
N1212 N 0.52517 0.46654 0.09046 0.0
C1213 C 0.52784 0.44164 0.06548 0.0
C1214 C 0.52939 0.40853 0.07685 0.0
C1215 C 0.95558 0.30263 0.37551 0.0
C1216 C 0.95587 0.27135 0.39069 0.0
C1217 C 0.92838 0.30845 0.35426 0.0
C1218 C 0.90041 0.28345 0.34817 0.0
H1219 H 0.97654 0.3228 0.38002 0.0
H1220 H 0.92895 0.33292 0.34329 0.0
S1221 S 0.88908 0.19683 0.38059 0.0
N1222 N 0.92614 0.21464 0.39691 0.0
N1223 N 0.87478 0.2259 0.35782 0.0
C1224 C 0.90048 0.25195 0.3628 0.0
C1225 C 0.92831 0.24578 0.38384 0.0
C1226 C 0.97988 0.69201 0.55768 0.0
C1227 C 1.00535 0.71829 0.55271 0.0
C1228 C 0.97979 0.65794 0.54499 0.0
C1229 C 1.00538 0.64868 0.52708 0.0
H1230 H 0.96037 0.69748 0.57267 0.0
H1231 H 0.96046 0.63853 0.55111 0.0
S1232 S 0.07547 0.70827 0.50267 0.0
N1233 N 0.05503 0.73312 0.52504 0.0
N1234 N 0.05493 0.66906 0.50157 0.0
C1235 C 0.02983 0.67497 0.51985 0.0
C1236 C 0.02983 0.70976 0.53255 0.0
C1237 C 0.61206 0.71821 0.83984 0.0
C1238 C 0.59854 0.7477 0.84866 0.0
C1239 C 0.63185 0.71725 0.81266 0.0
C1240 C 0.63846 0.74556 0.79306 0.0
H1241 H 0.60862 0.69627 0.85505 0.0
H1242 H 0.64342 0.69487 0.80823 0.0
S1243 S 0.60504 0.82699 0.80228 0.0
N1244 N 0.5904 0.80455 0.83322 0.0
N1245 N 0.62713 0.80249 0.78185 0.0
C1246 C 0.62313 0.7742 0.79991 0.0
C1247 C 0.60336 0.77538 0.82787 0.0
C1248 C 0.44451 0.60067 0.6544 0.0
C1249 C 0.43649 0.57531 0.67716 0.0
C1250 C 0.46686 0.59686 0.6301 0.0
C1251 C 0.48224 0.56759 0.6277 0.0
H1252 H 0.43242 0.623 0.6543 0.0
H1253 H 0.47081 0.61628 0.61198 0.0
S1254 S 0.47342 0.49636 0.68539 0.0
N1255 N 0.44836 0.52183 0.6985 0.0
N1256 N 0.49046 0.5147 0.65328 0.0
C1257 C 0.47605 0.5432 0.65202 0.0
C1258 C 0.45312 0.54698 0.67655 0.0
C1259 C 0.80244 0.20888 0.87806 0.0
C1260 C 0.79739 0.21834 0.91261 0.0
C1261 C 0.79392 0.22821 0.85066 0.0
C1262 C 0.77959 0.25784 0.85625 0.0
H1263 H 0.81335 0.18636 0.87198 0.0
H1264 H 0.79894 0.21988 0.82481 0.0
S1265 S 0.76015 0.2936 0.94142 0.0
N1266 N 0.77653 0.25949 0.95066 0.0
N1267 N 0.76027 0.2955 0.89906 0.0
C1268 C 0.77405 0.26754 0.89052 0.0
C1269 C 0.78299 0.24795 0.91864 0.0
C1270 C 0.07624 0.48959 0.1699 0.0
C1271 C 0.0542 0.48795 0.19535 0.0
C1272 C 0.06653 0.49466 0.13527 0.0
C1273 C 0.03428 0.49836 0.12434 0.0
H1274 H 0.10155 0.48778 0.17686 0.0
H1275 H 0.08483 0.4966 0.11717 0.0
S1276 S 0.96618 0.49313 0.17996 0.0
N1277 N 0.99797 0.48833 0.20651 0.0
N1278 N 0.97974 0.49778 0.1417 0.0
C1279 C 0.01166 0.49549 0.14923 0.0
C1280 C 0.02159 0.49032 0.18456 0.0
C1281 C 0.77423 0.87797 0.45023 0.0
C1282 C 0.79327 0.86762 0.47813 0.0
C1283 C 0.76895 0.85911 0.41798 0.0
C1284 C 0.78249 0.82918 0.41229 0.0
H1285 H 0.76327 0.90096 0.45312 0.0
H1286 H 0.75443 0.86839 0.39723 0.0
S1287 S 0.83359 0.79032 0.47659 0.0
N1288 N 0.82526 0.82492 0.49804 0.0
N1289 N 0.81525 0.78938 0.43693 0.0
C1290 C 0.80118 0.81806 0.43987 0.0
C1291 C 0.80664 0.83735 0.47292 0.0
C1292 C 0.44924 0.59241 0.85824 0.0
C1293 C 0.42186 0.56973 0.84221 0.0
C1294 C 0.46467 0.58634 0.89028 0.0
C1295 C 0.45334 0.55733 0.90728 0.0
H1296 H 0.45923 0.61471 0.84575 0.0
H1297 H 0.48599 0.60417 0.90146 0.0
S1298 S 0.38117 0.49141 0.87798 0.0
N1299 N 0.38291 0.51807 0.84718 0.0
N1300 N 0.41221 0.5068 0.90704 0.0
C1301 C 0.42544 0.53508 0.89223 0.0
C1302 C 0.40961 0.54126 0.85978 0.0
C1303 C 0.79118 0.27049 0.11085 0.0
C1304 C 0.81161 0.24628 0.10355 0.0
C1305 C 0.78962 0.28428 0.14486 0.0
C1306 C 0.8086 0.27484 0.17335 0.0
H1307 H 0.77515 0.27801 0.09029 0.0
H1308 H 0.77238 0.30163 0.14893 0.0
S1309 S 0.86849 0.21492 0.16841 0.0
N1310 N 0.85314 0.21533 0.12773 0.0
N1311 N 0.85036 0.24154 0.19154 0.0
C1312 C 0.83068 0.25233 0.1663 0.0
C1313 C 0.83212 0.23798 0.13151 0.0
C1314 C 0.03747 0.5356 0.37109 0.0
C1315 C 0.06257 0.51558 0.3701 0.0
C1316 C 0.02198 0.54063 0.40133 0.0
C1317 C 0.03139 0.52655 0.4322 0.0
H1318 H 0.02957 0.54748 0.34821 0.0
H1319 H 1.00273 0.55608 0.40062 0.0
S1320 S 0.09594 0.47227 0.44378 0.0
N1321 N 0.0959 0.48136 0.40291 0.0
N1322 N 0.06749 0.49148 0.45979 0.0
C1323 C 0.05654 0.50657 0.43168 0.0
C1324 C 0.07188 0.50087 0.40065 0.0
C1325 C 0.72691 0.83149 0.61842 0.0
C1326 C 0.75589 0.84959 0.60904 0.0
C1327 C 0.72766 0.80765 0.64336 0.0
C1328 C 0.75744 0.80115 0.6595 0.0
H1329 H 0.70364 0.83746 0.60824 0.0
H1330 H 0.70478 0.79642 0.65192 0.0
S1331 S 0.83963 0.83488 0.63574 0.0
N1332 N 0.81469 0.85468 0.61212 0.0
N1333 N 0.81627 0.80925 0.65824 0.0
C1334 C 0.78637 0.81591 0.64678 0.0
C1335 C 0.78556 0.84052 0.62187 0.0
C1336 C 0.62079 0.47474 0.57564 0.0
C1337 C 0.64368 0.47187 0.55137 0.0
C1338 C 0.59842 0.49797 0.57274 0.0
C1339 C 0.59796 0.51969 0.5456 0.0
H1340 H 0.61999 0.45879 0.59717 0.0
H1341 H 0.58145 0.49906 0.59211 0.0
S1342 S 0.65366 0.52429 0.4762 0.0
N1343 N 0.66479 0.4941 0.4997 0.0
N1344 N 0.62334 0.53776 0.49463 0.0
C1345 C 0.62106 0.51767 0.52154 0.0
C1346 C 0.64363 0.49379 0.52426 0.0
C1347 C 0.17132 0.11708 0.50559 0.0
C1348 C 0.17797 0.1197 0.47105 0.0
C1349 C 0.14267 0.09762 0.51347 0.0
C1350 C 0.11945 0.08068 0.48698 0.0
H1351 H 0.18879 0.12953 0.52669 0.0
H1352 H 0.13852 0.09623 0.54053 0.0
S1353 S 0.12525 0.08039 0.39223 0.0
N1354 N 0.15959 0.10406 0.41008 0.0
N1355 N 0.10454 0.06832 0.42476 0.0
C1356 C 0.12547 0.0837 0.45219 0.0
C1357 C 0.15516 0.10296 0.44423 0.0
C1358 C 0.24473 0.91463 0.81758 0.0
C1359 C 0.22933 0.9249 0.78719 0.0
C1360 C 0.26366 0.88828 0.81605 0.0
C1361 C 0.26721 0.87073 0.78417 0.0
H1362 H 0.24245 0.92727 0.84272 0.0
H1363 H 0.27506 0.88116 0.84007 0.0
S1364 S 0.23176 0.88718 0.69719 0.0
N1365 N 0.21905 0.91518 0.72419 0.0
N1366 N 0.25409 0.86532 0.72165 0.0
C1367 C 0.25184 0.88047 0.75369 0.0
C1368 C 0.23303 0.90765 0.75511 0.0
C1369 C 0.34669 0.97036 0.08101 0.0
C1370 C 0.32167 0.96476 0.05342 0.0
C1371 C 0.37879 0.98331 0.07564 0.0
C1372 C 0.38707 0.9913 0.04254 0.0
H1373 H 0.3417 0.96391 0.10686 0.0
H1374 H 0.39734 0.98656 0.09753 0.0
S1375 S 0.33053 0.98369 0.96201 0.0
N1376 N 0.30732 0.96998 0.99196 0.0
N1377 N 0.36762 0.99432 0.9821 0.0
C1378 C 0.36225 0.98692 0.01495 0.0
C1379 C 0.32956 0.97365 0.02033 0.0
C1380 C 0.85098 0.69492 0.78824 0.0
C1381 C 0.85122 0.66571 0.76536 0.0
C1382 C 0.82673 0.71556 0.78389 0.0
C1383 C 0.80165 0.70805 0.75641 0.0
H1384 H 0.8694 0.70176 0.81013 0.0
H1385 H 0.8273 0.73717 0.80281 0.0
S1386 S 0.79155 0.63564 0.68821 0.0
N1387 N 0.82439 0.63106 0.71331 0.0
N1388 N 0.779 0.67006 0.70529 0.0
C1389 C 0.80181 0.67941 0.73292 0.0
C1390 C 0.82655 0.65827 0.7373 0.0
C1391 C 0.84257 0.56551 0.99412 0.0
C1392 C 0.841 0.59679 0.01306 0.0
C1393 C 0.86697 0.54626 1.00309 0.0
C1394 C 0.89055 0.55763 0.0313 0.0
H1395 H 0.82551 0.55634 0.97149 0.0
H1396 H 0.8683 0.52326 0.98674 0.0
S1397 S 0.8948 0.63518 0.09215 0.0
N1398 N 0.86334 0.63636 0.06359 0.0
N1399 N 0.90916 0.60006 0.08024 0.0
C1400 C 0.8881 0.58762 0.05179 0.0
C1401 C 0.86335 0.6073 0.04267 0.0
C1402 C 0.22224 0.12026 0.83283 0.0
C1403 C 0.19726 0.10328 0.80798 0.0
C1404 C 0.23811 0.15362 0.82877 0.0
C1405 C 0.23022 0.17054 0.79918 0.0
H1406 H 0.22908 0.10801 0.85585 0.0
H1407 H 0.25685 0.16608 0.84871 0.0
S1408 S 0.16715 0.13667 0.7262 0.0
N1409 N 0.16564 0.10583 0.75274 0.0
N1410 N 0.19582 0.16763 0.74469 0.0
C1411 C 0.20566 0.15348 0.77397 0.0
C1412 C 0.18909 0.12008 0.77847 0.0
C1413 C 0.33384 0.96626 0.22442 0.0
C1414 C 0.34618 0.99106 0.25211 0.0
C1415 C 0.31834 0.93353 0.23047 0.0
C1416 C 0.314 0.92459 0.26438 0.0
H1417 H 0.33685 0.97186 0.19788 0.0
H1418 H 0.30981 0.91502 0.20837 0.0
S1419 S 0.34022 0.98069 0.34577 0.0
N1420 N 0.3521 1.0047 0.31476 0.0
N1421 N 0.32233 0.94339 0.32592 0.0
C1422 C 0.32537 0.94936 0.29224 0.0
C1423 C 0.34166 0.98253 0.28616 0.0
C1424 C 0.48655 0.36189 0.61104 0.0
C1425 C 0.51606 0.34888 0.61484 0.0
C1426 C 0.48331 0.3899 0.59148 0.0
C1427 C 0.50937 0.4058 0.57486 0.0
H1428 H 0.46612 0.35115 0.62423 0.0
H1429 H 0.46058 0.3999 0.59042 0.0
S1430 S 0.59026 0.37875 0.57264 0.0
N1431 N 0.57084 0.35215 0.59749 0.0
N1432 N 0.56456 0.40452 0.56066 0.0
C1433 C 0.5384 0.39195 0.5769 0.0
C1434 C 0.54179 0.36359 0.59693 0.0
C1435 C 0.42441 0.80271 0.30268 0.0
C1436 C 0.43141 0.77694 0.32414 0.0
C1437 C 0.39271 0.80263 0.28671 0.0
C1438 C 0.36683 0.77639 0.29089 0.0
H1439 H 0.44328 0.82381 0.29917 0.0
H1440 H 0.38833 0.82365 0.27146 0.0
S1441 S 0.37233 0.70228 0.34359 0.0
N1442 N 0.40965 0.72393 0.34789 0.0
N1443 N 0.35071 0.72362 0.31785 0.0
C1444 C 0.37377 0.7499 0.31138 0.0
C1445 C 0.40583 0.75023 0.32798 0.0
C1446 C 1.00158 0.65293 0.10484 0.0
C1447 C 0.01336 0.68536 0.09407 0.0
C1448 C 1.0056 0.62251 0.08594 0.0
C1449 C 0.02144 0.62334 0.05547 0.0
H1450 H 0.99002 0.65094 0.12864 0.0
H1451 H 0.99714 0.59823 0.09592 0.0
S1452 S 0.05326 0.70122 0.0137 0.0
N1453 N 0.03911 0.71611 0.04908 0.0
N1454 N 0.04648 0.65904 0.01378 0.0
C1455 C 0.03194 0.65543 0.04352 0.0
C1456 C 0.02794 0.6864 0.06272 0.0
C1457 C 0.12967 0.3072 0.79886 0.0
C1458 C 0.12797 0.29788 0.83311 0.0
C1459 C 0.15666 0.30279 0.78069 0.0
C1460 C 0.18308 0.28898 0.796 0.0
H1461 H 0.11003 0.31799 0.78594 0.0
H1462 H 0.15682 0.31024 0.75438 0.0
S1463 S 0.18915 0.25673 0.88339 0.0
N1464 N 0.15464 0.27216 0.88069 0.0
N1465 N 0.2043 0.26317 0.8462 0.0
C1466 C 0.18138 0.27894 0.82985 0.0
C1467 C 0.15414 0.28358 0.84846 0.0
C1468 C 0.55644 0.68756 0.00641 0.0
C1469 C 0.52629 0.69282 0.99017 0.0
C1470 C 0.55922 0.65824 0.02403 0.0
C1471 C 0.53205 0.63294 0.02565 0.0
H1472 H 0.57809 0.70629 1.00562 0.0
H1473 H 0.58289 0.65515 0.03603 0.0
S1474 S 0.44763 0.6341 0.98754 0.0
N1475 N 0.4687 0.66992 0.97689 0.0
N1476 N 0.47396 0.61512 0.01021 0.0
C1477 C 0.50176 0.63786 0.00973 0.0
C1478 C 0.49887 0.66773 0.99194 0.0
C1479 C 0.0891 0.7553 0.70004 0.0
C1480 C 0.08068 0.78442 0.68496 0.0
C1481 C 0.11939 0.75638 0.71889 0.0
C1482 C 0.14246 0.78652 0.72316 0.0
H1483 H 0.07244 0.73123 0.69683 0.0
H1484 H 0.1251 0.73306 0.72926 0.0
S1485 S 0.13161 0.87085 0.6921 0.0
N1486 N 0.09725 0.8452 0.67795 0.0
N1487 N 0.15435 0.84684 0.71321 0.0
C1488 C 0.13411 0.81619 0.70941 0.0
C1489 C 0.10316 0.81523 0.69033 0.0
C1490 C 1.00564 0.38169 0.53236 0.0
C1491 C 0.03452 0.37017 0.52451 0.0
C1492 C 1.00459 0.41667 0.53898 0.0
C1493 C 0.03239 0.44152 0.53812 0.0
H1494 H 0.9831 0.36387 0.5312 0.0
H1495 H 0.98127 0.42423 0.54283 0.0
S1496 S 0.11574 0.42394 0.52702 0.0
N1497 N 0.09278 0.38574 0.52216 0.0
N1498 N 0.09095 0.45157 0.53486 0.0
C1499 C 0.06219 0.43006 0.53398 0.0
C1500 C 0.0632 0.39436 0.52709 0.0
C1501 C 0.43344 0.27611 0.22326 0.0
C1502 C 0.44381 0.29974 0.1996 0.0
C1503 C 0.40858 0.28144 0.24384 0.0
C1504 C 0.3935 0.31071 0.24164 0.0
H1505 H 0.44363 0.25264 0.22493 0.0
H1506 H 0.40023 0.26177 0.26047 0.0
S1507 S 0.41488 0.38259 0.18766 0.0
N1508 N 0.43935 0.35518 0.17781 0.0
N1509 N 0.39275 0.36517 0.21678 0.0
C1510 C 0.405 0.33552 0.21978 0.0
C1511 C 0.4301 0.33001 0.19861 0.0
C1512 C 0.58948 0.49004 0.41059 0.0
C1513 C 0.58824 0.51239 0.38401 0.0
C1514 C 0.5675 0.48919 0.43591 0.0
C1515 C 0.54355 0.51055 0.4353 0.0
H1516 H 0.6087 0.47464 0.41313 0.0
H1517 H 0.57105 0.47387 0.45757 0.0
S1518 S 0.52531 0.5677 0.36701 0.0
N1519 N 0.55748 0.55199 0.35552 0.0
N1520 N 0.51647 0.55029 0.40305 0.0
C1521 C 0.54003 0.5303 0.40698 0.0
C1522 C 0.56233 0.53129 0.38135 0.0
C1523 C 0.24036 0.84981 0.1441 0.0
C1524 C 0.25419 0.84141 0.11351 0.0
C1525 C 0.24519 0.83228 0.17405 0.0
C1526 C 0.26365 0.80528 0.17451 0.0
H1527 H 0.22603 0.87037 0.14512 0.0
H1528 H 0.234 0.83972 0.19688 0.0
S1529 S 0.30466 0.77271 0.10123 0.0
N1530 N 0.28711 0.80388 0.08577 0.0
N1531 N 0.29567 0.77101 0.14167 0.0
C1532 C 0.27746 0.79654 0.14413 0.0
C1533 C 0.27286 0.81455 0.1138 0.0
C1534 C 0.95559 0.58318 0.87938 0.0
C1535 C 0.96678 0.5663 0.85082 0.0
C1536 C 0.96782 0.57929 0.91362 0.0
C1537 C 0.99221 0.55905 0.92054 0.0
H1538 H 0.93607 0.59802 0.87537 0.0
H1539 H 0.95752 0.59159 0.93484 0.0
S1540 S 0.03171 0.51207 0.85454 0.0
N1541 N 1.00495 0.53031 0.83159 0.0
N1542 N 0.02839 0.52364 0.8956 0.0
C1543 C 1.00482 0.54362 0.89207 0.0
C1544 C 0.99196 0.54706 0.85732 0.0
C1545 C 0.30896 0.21737 0.60205 0.0
C1546 C 0.28655 0.19036 0.58406 0.0
C1547 C 0.30155 0.23471 0.63226 0.0
C1548 C 0.27156 0.22551 0.6455 0.0
H1549 H 0.33222 0.2255 0.59255 0.0
H1550 H 0.31959 0.25521 0.6455 0.0
S1551 S 0.2052 0.1554 0.60913 0.0
N1552 N 0.23362 0.15438 0.58244 0.0
N1553 N 0.21967 0.18716 0.63903 0.0
C1554 C 0.24904 0.1984 0.62796 0.0
C1555 C 0.25657 0.18075 0.59728 0.0
C1556 C 0.57022 0.51287 0.22756 0.0
C1557 C 0.59854 0.4979 0.23181 0.0
C1558 C 0.5603 0.52458 0.19573 0.0
C1559 C 0.57813 0.52122 0.16706 0.0
H1560 H 0.55625 0.5167 0.24927 0.0
H1561 H 0.53847 0.5362 0.19355 0.0
S1562 S 0.65291 0.48188 0.16426 0.0
N1563 N 0.64361 0.47921 0.20451 0.0
N1564 N 0.62462 0.50061 0.14445 0.0
C1565 C 0.60597 0.50544 0.17071 0.0
C1566 C 0.61626 0.4939 0.20317 0.0
C1567 C 0.22175 0.8469 0.91432 0.0
C1568 C 0.24273 0.84359 0.94391 0.0
C1569 C 0.22481 0.82994 0.88183 0.0
C1570 C 0.24881 0.80882 0.87778 0.0
H1571 H 0.20407 0.86414 0.91583 0.0
H1572 H 0.20923 0.83474 0.85947 0.0
S1573 S 0.30622 0.78763 0.94883 0.0
N1574 N 0.28584 0.81484 0.96796 0.0
N1575 N 0.2913 0.78271 0.90762 0.0
C1576 C 0.26839 0.80363 0.90784 0.0
C1577 C 0.26543 0.82106 0.94066 0.0
C1578 C 1.00792 0.55953 0.68437 0.0
C1579 C 0.97669 0.56882 0.68381 0.0
C1580 C 0.02264 0.55459 0.65369 0.0
C1581 C 1.00697 0.55907 0.62109 0.0
H1582 H 0.0212 0.55589 0.70875 0.0
H1583 H 0.04669 0.54748 0.65563 0.0
S1584 S 0.92518 0.58396 0.60509 0.0
N1585 N 0.93054 0.58226 0.64755 0.0
N1586 N 0.95851 0.57389 0.59021 0.0
C1587 C 0.97575 0.5684 0.62008 0.0
C1588 C 0.96056 0.57302 0.65131 0.0
C1589 C 0.28669 0.26175 0.43938 0.0
C1590 C 0.3041 0.23409 0.43988 0.0
C1591 C 0.28561 0.28108 0.41072 0.0
C1592 C 0.30251 0.2738 0.3822 0.0
H1593 H 0.27134 0.26653 0.45962 0.0
H1594 H 0.26945 0.30001 0.4097 0.0
S1595 S 0.3578 0.20951 0.37478 0.0
N1596 N 0.34299 0.20418 0.41238 0.0
N1597 N 0.34152 0.24119 0.35862 0.0
C1598 C 0.32331 0.2492 0.38437 0.0
C1599 C 0.32392 0.22905 0.41327 0.0
C1600 C 0.39376 0.58612 0.55353 0.0
C1601 C 0.38574 0.60494 0.52532 0.0
C1602 C 0.41667 0.56372 0.55203 0.0
C1603 C 0.43341 0.55946 0.5226 0.0
H1604 H 0.38194 0.58826 0.57709 0.0
H1605 H 0.42137 0.5496 0.57436 0.0
S1606 S 0.42083 0.6009 0.44087 0.0
N1607 N 0.39604 0.61658 0.46626 0.0
N1608 N 0.43955 0.57483 0.46391 0.0
C1609 C 0.42598 0.57806 0.49418 0.0
C1610 C 0.40212 0.60066 0.49544 0.0
C1611 C 0.8848 0.00656 0.55807 0.0
C1612 C 0.88133 0.97942 0.57972 0.0
C1613 C 0.91519 0.02021 0.54847 0.0
C1614 C 0.94335 0.0076 0.56054 0.0
H1615 H 0.86372 0.01645 0.5471 0.0
H1616 H 0.91647 0.04029 0.53086 0.0
S1617 S 0.94801 0.939 0.6206 0.0
N1618 N 0.90903 0.94212 0.61503 0.0
N1619 N 0.96626 0.9679 0.59723 0.0
C1620 C 0.94055 0.98177 0.58379 0.0
C1621 C 0.90952 0.96766 0.59335 0.0
C1622 C 0.7934 0.13935 0.25294 0.0
C1623 C 0.82761 0.14459 0.25652 0.0
C1624 C 0.77625 0.16718 0.25623 0.0
C1625 C 0.79261 0.20118 0.26347 0.0
H1626 H 0.77978 0.11363 0.24782 0.0
H1627 H 0.74991 0.162 0.25314 0.0
S1628 S 0.88218 0.22841 0.26939 0.0
N1629 N 0.87713 0.18626 0.26414 0.0
N1630 N 0.84522 0.23797 0.27007 0.0
C1631 C 0.82681 0.2065 0.26614 0.0
C1632 C 0.8442 0.17835 0.26271 0.0
C1633 C 0.70609 0.11701 0.03637 0.0
C1634 C 0.71552 0.11522 1.00239 0.0
C1635 C 0.67472 0.10274 0.04331 0.0
C1636 C 0.65146 0.08626 0.01657 0.0
H1637 H 0.72296 0.12979 0.05786 0.0
H1638 H 0.66852 0.10516 0.06977 0.0
S1639 S 0.66369 0.07328 0.92334 0.0
N1640 N 0.69883 0.09453 0.94181 0.0
N1641 N 0.64009 0.06793 0.95498 0.0
C1642 C 0.66058 0.08373 0.98261 0.0
C1643 C 0.69254 0.09813 0.9755 0.0
C1644 C 0.1944 0.38748 0.32779 0.0
C1645 C 0.18752 0.41185 0.30451 0.0
C1646 C 0.21933 0.36787 0.32337 0.0
C1647 C 0.23853 0.37185 0.29557 0.0
H1648 H 0.18045 0.38345 0.34973 0.0
H1649 H 0.22377 0.34964 0.34207 0.0
S1650 S 0.23079 0.43167 0.22701 0.0
N1651 N 0.20232 0.43844 0.25226 0.0
N1652 N 0.24891 0.4017 0.2442 0.0
C1653 C 0.23201 0.39599 0.27208 0.0
C1654 C 0.20656 0.41586 0.27641 0.0
C1655 C 0.18021 0.48187 0.99146 0.0
C1656 C 0.20193 0.49121 0.0216 0.0
C1657 C 0.15098 0.49486 0.9875 0.0
C1658 C 0.1431 0.51812 0.01316 0.0
H1659 H 0.18488 0.46287 0.97184 0.0
H1660 H 0.13393 0.48565 0.96485 0.0
S1661 S 0.19406 0.55396 0.09463 0.0
N1662 N 0.2152 0.52716 0.07599 0.0
N1663 N 0.1606 0.55246 0.0681 0.0
C1664 C 0.16575 0.52958 0.04218 0.0
C1665 C 0.19514 0.51582 0.04654 0.0
C1666 C 0.81222 0.938 0.25818 0.0
C1667 C 0.83488 0.94255 0.23353 0.0
C1668 C 0.79875 0.90509 0.26604 0.0
C1669 C 0.80687 0.87556 0.24895 0.0
H1670 H 0.80538 0.96003 0.27214 0.0
H1671 H 0.78159 0.90276 0.28535 0.0
S1672 S 0.86478 0.87327 0.18222 0.0
N1673 N 0.86488 0.91455 0.1922 0.0
N1674 N 0.83903 0.85282 0.20641 0.0
C1675 C 0.82916 0.87969 0.22397 0.0
C1676 C 0.84331 0.91315 0.21641 0.0
C1677 C 0.69895 0.08294 0.73719 0.0
C1678 C 0.68753 0.07339 0.76875 0.0
C1679 C 0.7171 0.11545 0.73478 0.0
C1680 C 0.7246 0.13956 0.76385 0.0
H1681 H 0.69309 0.06556 0.71385 0.0
H1682 H 0.72446 0.12206 0.70975 0.0
S1683 S 0.70365 0.12628 0.85334 0.0
N1684 N 0.6873 0.09007 0.83031 0.0
N1685 N 0.72144 0.15092 0.82576 0.0
C1686 C 0.71458 0.1299 0.79587 0.0
C1687 C 0.69602 0.0969 0.79832 0.0
loop_
_geom_bond_atom_site_label_1
_geom_bond_atom_site_label_2
_geom_bond_distance
_geom_bond_site_symmetry_2
_ccdc_geom_bond_type
C0 O1 1.160 . S
C0 O7 1.185 . S
O1 C0 1.160 . S
O2 Zn3 1.899 . S
O2 C10 1.284 . S
Zn3 O2 1.899 . S
Zn3 O4 2.032 . S
Zn3 O7 2.086 . S
Zn3 O12 1.977 1_455 S
O4 Zn3 2.032 . S
O4 C8 1.278 . S
C5 O6 1.203 . S
C5 O12 1.267 . S
O6 C5 1.203 . S
O7 C0 1.185 . S
O7 Zn3 2.086 . S
C8 O4 1.278 . S
C8 O9 1.211 1_455 S
O9 C8 1.211 1_655 S
C10 O2 1.284 . S
C10 O11 1.273 . S
O11 C10 1.273 . S
O12 Zn3 1.977 1_655 S
O12 C5 1.267 . S
C13 O14 1.160 . S
C13 O20 1.185 . S
O14 C13 1.160 . S
O15 Zn16 1.899 . S
O15 C23 1.284 . S
Zn16 O15 1.899 . S
Zn16 O17 2.032 . S
Zn16 O20 2.086 . S
Zn16 O25 1.977 1_655 S
O17 Zn16 2.032 . S
O17 C21 1.278 1_655 S
C18 O19 1.203 . S
C18 O25 1.267 . S
O19 C18 1.203 . S
O20 C13 1.185 . S
O20 Zn16 2.086 . S
C21 O17 1.278 1_455 S
C21 O22 1.211 . S
O22 C21 1.211 . S
C23 O15 1.284 . S
C23 O24 1.273 1_655 S
O24 C23 1.273 1_455 S
O25 Zn16 1.977 1_455 S
O25 C18 1.267 . S
C26 O27 1.160 . S
C26 O33 1.185 . S
O27 C26 1.160 . S
O28 Zn29 1.899 . S
O28 C36 1.284 . S
Zn29 O28 1.899 . S
Zn29 O30 2.032 . S
Zn29 O33 2.086 . S
Zn29 O38 1.977 . S
O30 Zn29 2.032 . S
O30 C34 1.278 . S
C31 O32 1.203 . S
C31 O38 1.267 . S
O32 C31 1.203 . S
O33 C26 1.185 . S
O33 Zn29 2.086 . S
C34 O30 1.278 . S
C34 O35 1.211 . S
O35 C34 1.211 . S
C36 O28 1.284 . S
C36 O37 1.273 . S
O37 C36 1.273 . S
O38 Zn29 1.977 . S
O38 C31 1.267 . S
C39 O40 1.160 . S
C39 O46 1.185 . S
O40 C39 1.160 . S
O41 Zn42 1.899 . S
O41 C49 1.284 . S
Zn42 O41 1.899 . S
Zn42 O43 2.032 . S
Zn42 O46 2.086 . S
Zn42 O51 1.977 . S
O43 Zn42 2.032 . S
O43 C47 1.278 . S
C44 O45 1.203 . S
C44 O51 1.267 . S
O45 C44 1.203 . S
O46 C39 1.185 . S
O46 Zn42 2.086 . S
C47 O43 1.278 . S
C47 O48 1.211 . S
O48 C47 1.211 . S
C49 O41 1.284 . S
C49 O50 1.273 . S
O50 C49 1.273 . S
O51 Zn42 1.977 . S
O51 C44 1.267 . S
C52 O53 1.160 . S
C52 O59 1.185 . S
O53 C52 1.160 . S
O54 Zn55 1.902 1_655 S
O54 C62 1.277 1_655 S
Zn55 O54 1.902 1_455 S
Zn55 O56 2.032 1_455 S
Zn55 O59 2.086 1_455 S
Zn55 O64 1.977 . S
O56 Zn55 2.032 1_655 S
O56 C60 1.278 1_655 S
C57 O58 1.203 . S
C57 O64 1.267 . S
O58 C57 1.203 . S
O59 C52 1.185 . S
O59 Zn55 2.086 1_655 S
C60 O56 1.278 1_455 S
C60 O61 1.211 . S
O61 C60 1.211 . S
C62 O54 1.277 1_455 S
C62 O63 1.273 . S
O63 C62 1.273 . S
O64 Zn55 1.977 . S
O64 C57 1.267 . S
C65 O66 1.160 . S
C65 O72 1.185 . S
O66 C65 1.160 . S
O67 Zn68 1.899 . S
O67 C75 1.284 . S
Zn68 O67 1.899 . S
Zn68 O69 2.032 . S
Zn68 O72 2.086 . S
Zn68 O77 1.977 . S
O69 Zn68 2.032 . S
O69 C73 1.278 . S
C70 O71 1.203 . S
C70 O77 1.267 . S
O71 C70 1.203 . S
O72 C65 1.185 . S
O72 Zn68 2.086 . S
C73 O69 1.278 . S
C73 O74 1.211 . S
O74 C73 1.211 . S
C75 O67 1.284 . S
C75 O76 1.273 . S
O76 C75 1.273 . S
O77 Zn68 1.977 . S
O77 C70 1.267 . S
C78 O79 1.160 . S
C78 O85 1.185 . S
O79 C78 1.160 . S
O80 Zn81 1.899 . S
O80 C88 1.284 . S
Zn81 O80 1.899 . S
Zn81 O82 2.032 . S
Zn81 O85 2.086 . S
Zn81 O90 1.977 . S
O82 Zn81 2.032 . S
O82 C86 1.278 . S
C83 O84 1.203 . S
C83 O90 1.267 . S
O84 C83 1.203 . S
O85 C78 1.185 . S
O85 Zn81 2.086 . S
C86 O82 1.278 . S
C86 O87 1.211 . S
O87 C86 1.211 . S
C88 O80 1.284 . S
C88 O89 1.273 . S
O89 C88 1.273 . S
O90 Zn81 1.977 . S
O90 C83 1.267 . S
C91 O92 1.160 . S
C91 O98 1.185 . S
O92 C91 1.160 . S
O93 Zn94 1.899 . S
O93 C101 1.284 . S
Zn94 O93 1.899 . S
Zn94 O95 2.032 . S
Zn94 O98 2.086 . S
Zn94 O103 1.977 1_455 S
O95 Zn94 2.032 . S
O95 C99 1.278 . S
C96 O97 1.203 . S
C96 O103 1.267 . S
O97 C96 1.203 . S
O98 C91 1.185 . S
O98 Zn94 2.086 . S
C99 O95 1.278 . S
C99 O100 1.211 1_455 S
O100 C99 1.211 1_655 S
C101 O93 1.284 . S
C101 O102 1.273 1_455 S
O102 C101 1.273 1_655 S
O103 Zn94 1.977 1_655 S
O103 C96 1.267 . S
C104 O105 1.160 . S
C104 O111 1.185 . S
O105 C104 1.160 . S
O106 Zn107 1.899 . S
O106 C114 1.284 . S
Zn107 O106 1.899 . S
Zn107 O108 2.032 . S
Zn107 O111 2.086 . S
Zn107 O116 1.977 . S
O108 Zn107 2.032 . S
O108 C112 1.278 . S
C109 O110 1.203 . S
C109 O116 1.267 1_565 S
O110 C109 1.203 . S
O111 C104 1.185 . S
O111 Zn107 2.086 . S
C112 O108 1.278 . S
C112 O113 1.211 . S
O113 C112 1.211 . S
C114 O106 1.284 . S
C114 O115 1.273 . S
O115 C114 1.273 . S
O116 Zn107 1.977 . S
O116 C109 1.267 1_545 S
C117 O118 1.160 . S
C117 O124 1.185 . S
O118 C117 1.160 . S
O119 Zn120 1.899 . S
O119 C127 1.284 . S
Zn120 O119 1.899 . S
Zn120 O121 2.032 . S
Zn120 O124 2.086 . S
Zn120 O129 1.977 . S
O121 Zn120 2.032 . S
O121 C125 1.278 . S
C122 O123 1.203 . S
C122 O129 1.267 . S
O123 C122 1.203 . S
O124 C117 1.185 . S
O124 Zn120 2.086 . S
C125 O121 1.278 . S
C125 O126 1.211 . S
O126 C125 1.211 . S
C127 O119 1.284 . S
C127 O128 1.273 . S
O128 C127 1.273 . S
O129 Zn120 1.977 . S
O129 C122 1.267 . S
C130 O131 1.160 . S
C130 O137 1.185 . S
O131 C130 1.160 . S
O132 Zn133 1.899 . S
O132 C140 1.284 . S
Zn133 O132 1.899 . S
Zn133 O134 2.032 . S
Zn133 O137 2.086 . S
Zn133 O142 1.977 1_565 S
O134 Zn133 2.032 . S
O134 C138 1.278 1_565 S
C135 O136 1.203 . S
C135 O142 1.267 . S
O136 C135 1.203 . S
O137 C130 1.185 . S
O137 Zn133 2.086 . S
C138 O134 1.278 1_545 S
C138 O139 1.211 . S
O139 C138 1.211 . S
C140 O132 1.284 . S
C140 O141 1.273 1_565 S
O141 C140 1.273 1_545 S
O142 Zn133 1.977 1_545 S
O142 C135 1.267 . S
C143 O144 1.160 . S
C143 O150 1.185 . S
O144 C143 1.160 . S
O145 Zn146 1.899 . S
O145 C153 1.284 . S
Zn146 O145 1.899 . S
Zn146 O147 2.032 1_554 S
Zn146 O150 2.086 . S
Zn146 O155 1.977 . S
O147 Zn146 2.032 1_556 S
O147 C151 1.278 . S
C148 O149 1.203 . S
C148 O155 1.267 . S
O149 C148 1.203 . S
O150 C143 1.185 . S
O150 Zn146 2.086 . S
C151 O147 1.278 . S
C151 O152 1.211 . S
O152 C151 1.211 . S
C153 O145 1.284 . S
C153 O154 1.273 . S
O154 C153 1.273 . S
O155 Zn146 1.977 . S
O155 C148 1.267 . S
C156 O157 1.160 . S
C156 O163 1.185 . S
O157 C156 1.160 . S
O158 Zn159 1.899 . S
O158 C166 1.284 . S
Zn159 O158 1.899 . S
Zn159 O160 2.010 1_554 S
Zn159 O163 2.086 . S
Zn159 O168 1.977 . S
O160 Zn159 2.010 1_556 S
O160 C164 1.294 . S
C161 O162 1.203 . S
C161 O168 1.267 . S
O162 C161 1.203 . S
O163 C156 1.185 . S
O163 Zn159 2.086 . S
C164 O160 1.294 . S
C164 O165 1.211 . S
O165 C164 1.211 . S
C166 O158 1.284 . S
C166 O167 1.273 . S
O167 C166 1.273 . S
O168 Zn159 1.977 . S
O168 C161 1.267 . S
C169 O170 1.160 . S
C169 O176 1.179 1_554 S
O170 C169 1.160 . S
O171 Zn172 1.899 . S
O171 C179 1.284 . S
Zn172 O171 1.899 . S
Zn172 O173 2.032 1_554 S
Zn172 O176 2.081 1_554 S
Zn172 O181 1.977 1_554 S
O173 Zn172 2.032 1_556 S
O173 C177 1.278 . S
C174 O175 1.203 . S
C174 O181 1.267 1_554 S
O175 C174 1.203 . S
O176 C169 1.179 1_556 S
O176 Zn172 2.081 1_556 S
C177 O173 1.278 . S
C177 O178 1.211 . S
O178 C177 1.211 . S
C179 O171 1.284 . S
C179 O180 1.273 . S
O180 C179 1.273 . S
O181 Zn172 1.977 1_556 S
O181 C174 1.267 1_556 S
C182 O183 1.160 . S
C182 O189 1.185 . S
O183 C182 1.160 . S
O184 Zn185 1.899 . S
O184 C192 1.284 . S
Zn185 O184 1.899 . S
Zn185 O186 2.032 . S
Zn185 O189 2.086 . S
Zn185 O194 1.977 . S
O186 Zn185 2.032 . S
O186 C190 1.278 . S
C187 O188 1.203 . S
C187 O194 1.267 . S
O188 C187 1.203 . S
O189 C182 1.185 . S
O189 Zn185 2.086 . S
C190 O186 1.278 . S
C190 O191 1.211 . S
O191 C190 1.211 . S
C192 O184 1.284 . S
C192 O193 1.273 . S
O193 C192 1.273 . S
O194 Zn185 1.977 . S
O194 C187 1.267 . S
C195 O196 1.160 . S
C195 O202 1.185 . S
O196 C195 1.160 . S
O197 Zn198 1.899 . S
O197 C205 1.284 . S
Zn198 O197 1.899 . S
Zn198 O199 2.032 . S
Zn198 O202 2.086 . S
Zn198 O207 1.977 . S
O199 Zn198 2.032 . S
O199 C203 1.278 . S
C200 O201 1.203 . S
C200 O207 1.267 . S
O201 C200 1.203 . S
O202 C195 1.185 . S
O202 Zn198 2.086 . S
C203 O199 1.278 . S
C203 O204 1.211 . S
O204 C203 1.211 . S
C205 O197 1.284 . S
C205 O206 1.273 . S
O206 C205 1.273 . S
O207 Zn198 1.977 . S
O207 C200 1.267 . S
C208 O209 1.160 . S
C208 O215 1.185 . S
O209 C208 1.160 . S
O210 Zn211 1.899 . S
O210 C218 1.284 . S
Zn211 O210 1.899 . S
Zn211 O212 2.032 . S
Zn211 O215 2.086 . S
Zn211 O220 1.977 . S
O212 Zn211 2.032 . S
O212 C216 1.278 . S
C213 O214 1.203 . S
C213 O220 1.267 1_565 S
O214 C213 1.203 . S
O215 C208 1.185 . S
O215 Zn211 2.086 . S
C216 O212 1.278 . S
C216 O217 1.211 . S
O217 C216 1.211 . S
C218 O210 1.284 . S
C218 O219 1.273 . S
O219 C218 1.273 . S
O220 Zn211 1.977 . S
O220 C213 1.267 1_545 S
C221 O222 1.160 . S
C221 O228 1.185 . S
O222 C221 1.160 . S
O223 Zn224 1.899 . S
O223 C231 1.284 . S
Zn224 O223 1.899 . S
Zn224 O225 2.032 . S
Zn224 O228 2.086 . S
Zn224 O233 1.977 . S
O225 Zn224 2.032 . S
O225 C229 1.278 . S
C226 O227 1.203 . S
C226 O233 1.267 . S
O227 C226 1.203 . S
O228 C221 1.185 . S
O228 Zn224 2.086 . S
C229 O225 1.278 . S
C229 O230 1.211 . S
O230 C229 1.211 . S
C231 O223 1.284 . S
C231 O232 1.273 . S
O232 C231 1.273 . S
O233 Zn224 1.977 . S
O233 C226 1.267 . S
C234 O235 1.160 . S
C234 O241 1.185 . S
O235 C234 1.160 . S
O236 Zn237 1.899 . S
O236 C244 1.284 . S
Zn237 O236 1.899 . S
Zn237 O238 2.032 . S
Zn237 O241 2.086 . S
Zn237 O246 1.977 . S
O238 Zn237 2.032 . S
O238 C242 1.278 . S
C239 O240 1.203 . S
C239 O246 1.267 . S
O240 C239 1.203 . S
O241 C234 1.185 . S
O241 Zn237 2.086 . S
C242 O238 1.278 . S
C242 O243 1.211 . S
O243 C242 1.211 . S
C244 O236 1.284 . S
C244 O245 1.273 . S
O245 C244 1.273 . S
O246 Zn237 1.977 . S
O246 C239 1.267 . S
C247 O248 1.160 . S
C247 O254 1.185 . S
O248 C247 1.160 . S
O249 Zn250 1.899 1_565 S
O249 C257 1.284 1_565 S
Zn250 O249 1.899 1_545 S
Zn250 O251 2.032 1_545 S
Zn250 O254 2.086 1_545 S
Zn250 O259 1.977 . S
O251 Zn250 2.032 1_565 S
O251 C255 1.278 1_565 S
C252 O253 1.203 . S
C252 O259 1.267 . S
O253 C252 1.203 . S
O254 C247 1.185 . S
O254 Zn250 2.086 1_565 S
C255 O251 1.278 1_545 S
C255 O256 1.211 . S
O256 C255 1.211 . S
C257 O249 1.284 1_545 S
C257 O258 1.273 . S
O258 C257 1.273 . S
O259 Zn250 1.977 . S
O259 C252 1.267 . S
C260 O261 1.160 . S
C260 O267 1.185 1_554 S
O261 C260 1.160 . S
O262 Zn263 1.899 . S
O262 C270 1.284 . S
Zn263 O262 1.899 . S
Zn263 O264 2.032 1_554 S
Zn263 O267 2.086 1_554 S
Zn263 O272 1.977 1_554 S
O264 Zn263 2.032 1_556 S
O264 C268 1.278 . S
C265 O266 1.193 1_556 S
C265 O272 1.274 . S
O266 C265 1.193 1_554 S
O267 C260 1.185 1_556 S
O267 Zn263 2.086 1_556 S
C268 O264 1.278 . S
C268 O269 1.211 . S
O269 C268 1.211 . S
C270 O262 1.284 . S
C270 O271 1.273 . S
O271 C270 1.273 . S
O272 Zn263 1.977 1_556 S
O272 C265 1.274 . S
C273 O274 1.160 . S
C273 O280 1.185 . S
O274 C273 1.160 . S
O275 Zn276 1.899 . S
O275 C283 1.284 . S
Zn276 O275 1.899 . S
Zn276 O277 2.032 . S
Zn276 O280 2.086 . S
Zn276 O285 1.977 . S
O277 Zn276 2.032 . S
O277 C281 1.278 . S
C278 O279 1.203 . S
C278 O285 1.267 . S
O279 C278 1.203 . S
O280 C273 1.185 . S
O280 Zn276 2.086 . S
C281 O277 1.278 . S
C281 O282 1.211 . S
O282 C281 1.211 . S
C283 O275 1.284 . S
C283 O284 1.273 . S
O284 C283 1.273 . S
O285 Zn276 1.977 . S
O285 C278 1.267 . S
C286 O287 1.160 . S
C286 O293 1.185 . S
O287 C286 1.160 . S
O288 Zn289 1.899 . S
O288 C296 1.284 . S
Zn289 O288 1.899 . S
Zn289 O290 2.032 . S
Zn289 O293 2.086 . S
Zn289 O298 1.977 . S
O290 Zn289 2.032 . S
O290 C294 1.278 . S
C291 O292 1.203 . S
C291 O298 1.267 . S
O292 C291 1.203 . S
O293 C286 1.185 . S
O293 Zn289 2.086 . S
C294 O290 1.278 . S
C294 O295 1.211 . S
O295 C294 1.211 . S
C296 O288 1.284 . S
C296 O297 1.273 . S
O297 C296 1.273 . S
O298 Zn289 1.977 . S
O298 C291 1.267 . S
C299 O300 1.160 . S
C299 O306 1.185 . S
O300 C299 1.160 . S
O301 Zn302 1.899 . S
O301 C309 1.284 . S
Zn302 O301 1.899 . S
Zn302 O303 2.032 . S
Zn302 O306 2.086 . S
Zn302 O311 1.977 . S
O303 Zn302 2.032 . S
O303 C307 1.278 . S
C304 O305 1.203 . S
C304 O311 1.267 . S
O305 C304 1.203 . S
O306 C299 1.185 . S
O306 Zn302 2.086 . S
C307 O303 1.278 . S
C307 O308 1.211 . S
O308 C307 1.211 . S
C309 O301 1.284 . S
C309 O310 1.273 . S
O310 C309 1.273 . S
O311 Zn302 1.977 . S
O311 C304 1.267 . S
Tb312 O315 2.453 . S
Tb312 O316 2.596 . S
Tb312 O317 2.374 1_554 S
Tb312 O325 2.343 1_455 S
Tb312 O327 2.353 . S
Tb312 O329 2.427 . S
Tb312 O330 2.513 1_554 S
C313 O317 1.251 . S
C313 O319 1.263 1_445 S
Tb314 O316 2.343 1_665 S
Tb314 O319 2.353 1_554 S
Tb314 O322 2.427 . S
Tb314 O323 2.513 . S
Tb314 O324 2.453 1_564 S
Tb314 O325 2.596 1_565 S
Tb314 O326 2.374 1_565 S
O315 Tb312 2.453 . S
O315 C331 1.245 . S
O316 Tb312 2.596 . S
O316 Tb314 2.343 1_445 S
O316 C331 1.259 . S
O317 Tb312 2.374 1_556 S
O317 C313 1.251 . S
C318 O322 1.274 1_455 S
C318 O323 1.236 1_455 S
O319 C313 1.263 1_665 S
O319 Tb314 2.353 1_556 S
C320 O324 1.245 . S
C320 O325 1.259 1_556 S
C321 O326 1.250 . S
C321 O327 1.263 1_655 S
O322 Tb314 2.427 . S
O322 C318 1.274 1_655 S
O323 Tb314 2.513 . S
O323 C318 1.236 1_655 S
O324 Tb314 2.453 1_546 S
O324 C320 1.245 . S
O325 Tb312 2.343 1_655 S
O325 Tb314 2.596 1_545 S
O325 C320 1.259 1_554 S
O326 Tb314 2.374 1_545 S
O326 C321 1.250 . S
O327 Tb312 2.353 . S
O327 C321 1.263 1_455 S
C328 O329 1.275 1_556 S
C328 O330 1.246 . S
O329 Tb312 2.427 . S
O329 C328 1.275 1_554 S
O330 Tb312 2.513 1_556 S
O330 C328 1.246 . S
C331 O315 1.245 . S
C331 O316 1.259 . S
Tb332 O335 2.453 . S
Tb332 O336 2.596 . S
Tb332 O337 2.374 . S
Tb332 O345 2.343 . S
Tb332 O347 2.353 . S
Tb332 O349 2.427 . S
Tb332 O350 2.513 . S
C333 O337 1.251 . S
C333 O339 1.263 . S
Tb334 O336 2.343 . S
Tb334 O339 2.353 . S
Tb334 O342 2.427 . S
Tb334 O343 2.513 . S
Tb334 O344 2.453 . S
Tb334 O345 2.596 . S
Tb334 O346 2.374 . S
O335 Tb332 2.453 . S
O335 C351 1.245 . S
O336 Tb332 2.596 . S
O336 Tb334 2.343 . S
O336 C351 1.259 . S
O337 Tb332 2.374 . S
O337 C333 1.251 . S
C338 O342 1.275 . S
C338 O343 1.246 . S
O339 C333 1.263 . S
O339 Tb334 2.353 . S
C340 O344 1.245 . S
C340 O345 1.259 . S
C341 O346 1.250 . S
C341 O347 1.263 . S
O342 Tb334 2.427 . S
O342 C338 1.275 . S
O343 Tb334 2.513 . S
O343 C338 1.246 . S
O344 Tb334 2.453 . S
O344 C340 1.245 . S
O345 Tb332 2.343 . S
O345 Tb334 2.596 . S
O345 C340 1.259 . S
O346 Tb334 2.374 . S
O346 C341 1.250 . S
O347 Tb332 2.353 . S
O347 C341 1.263 . S
C348 O349 1.275 . S
C348 O350 1.246 . S
O349 Tb332 2.427 . S
O349 C348 1.275 . S
O350 Tb332 2.513 . S
O350 C348 1.246 . S
C351 O335 1.245 . S
C351 O336 1.259 . S
Tb352 O355 2.453 . S
Tb352 O356 2.596 . S
Tb352 O357 2.374 . S
Tb352 O365 2.343 1_545 S
Tb352 O367 2.353 . S
Tb352 O369 2.427 . S
Tb352 O370 2.484 1_545 S
C353 O357 1.251 . S
C353 O359 1.263 . S
Tb354 O356 2.343 . S
Tb354 O359 2.353 . S
Tb354 O362 2.427 . S
Tb354 O363 2.513 . S
Tb354 O364 2.453 1_545 S
Tb354 O365 2.596 1_545 S
Tb354 O366 2.374 . S
O355 Tb352 2.453 . S
O355 C371 1.245 . S
O356 Tb352 2.596 . S
O356 Tb354 2.343 . S
O356 C371 1.259 . S
O357 Tb352 2.374 . S
O357 C353 1.251 . S
C358 O362 1.275 . S
C358 O363 1.246 . S
O359 C353 1.263 . S
O359 Tb354 2.353 . S
C360 O364 1.245 . S
C360 O365 1.259 . S
C361 O366 1.250 . S
C361 O367 1.263 . S
O362 Tb354 2.427 . S
O362 C358 1.275 . S
O363 Tb354 2.513 . S
O363 C358 1.246 . S
O364 Tb354 2.453 1_565 S
O364 C360 1.245 . S
O365 Tb352 2.343 1_565 S
O365 Tb354 2.596 1_565 S
O365 C360 1.259 . S
O366 Tb354 2.374 . S
O366 C361 1.250 . S
O367 Tb352 2.353 . S
O367 C361 1.263 . S
C368 O369 1.275 1_565 S
C368 O370 1.248 . S
O369 Tb352 2.427 . S
O369 C368 1.275 1_545 S
O370 Tb352 2.484 1_565 S
O370 C368 1.248 . S
C371 O355 1.245 . S
C371 O356 1.259 . S
Tb372 O375 2.453 . S
Tb372 O376 2.596 . S
Tb372 O377 2.374 . S
Tb372 O385 2.343 . S
Tb372 O387 2.353 . S
Tb372 O389 2.427 . S
Tb372 O390 2.513 . S
C373 O377 1.251 . S
C373 O379 1.263 . S
Tb374 O376 2.343 . S
Tb374 O379 2.353 . S
Tb374 O382 2.427 . S
Tb374 O383 2.513 . S
Tb374 O384 2.453 . S
Tb374 O385 2.596 . S
Tb374 O386 2.374 . S
O375 Tb372 2.453 . S
O375 C391 1.245 . S
O376 Tb372 2.596 . S
O376 Tb374 2.343 . S
O376 C391 1.259 . S
O377 Tb372 2.374 . S
O377 C373 1.251 . S
C378 O382 1.275 . S
C378 O383 1.246 . S
O379 C373 1.263 . S
O379 Tb374 2.353 . S
C380 O384 1.245 . S
C380 O385 1.259 . S
C381 O386 1.250 . S
C381 O387 1.263 . S
O382 Tb374 2.427 . S
O382 C378 1.275 . S
O383 Tb374 2.513 . S
O383 C378 1.246 . S
O384 Tb374 2.453 . S
O384 C380 1.245 . S
O385 Tb372 2.343 . S
O385 Tb374 2.596 . S
O385 C380 1.259 . S
O386 Tb374 2.374 . S
O386 C381 1.250 . S
O387 Tb372 2.353 . S
O387 C381 1.263 . S
C388 O389 1.275 . S
C388 O390 1.246 . S
O389 Tb372 2.427 . S
O389 C388 1.275 . S
O390 Tb372 2.513 . S
O390 C388 1.246 . S
C391 O375 1.245 . S
C391 O376 1.259 . S
Tb392 O395 2.456 1_545 S
Tb392 O396 2.597 . S
Tb392 O397 2.367 1_455 S
Tb392 O405 2.342 . S
Tb392 O407 2.360 . S
Tb392 O409 2.428 . S
Tb392 O410 2.507 1_455 S
C393 O397 1.251 . S
C393 O399 1.263 . S
Tb394 O396 2.343 . S
Tb394 O399 2.353 1_455 S
Tb394 O402 2.427 . S
Tb394 O403 2.513 . S
Tb394 O404 2.453 . S
Tb394 O405 2.596 . S
Tb394 O406 2.374 . S
O395 Tb392 2.456 1_565 S
O395 C411 1.245 . S
O396 Tb392 2.597 . S
O396 Tb394 2.343 . S
O396 C411 1.259 1_545 S
O397 Tb392 2.367 1_655 S
O397 C393 1.251 . S
C398 O402 1.275 . S
C398 O403 1.246 . S
O399 C393 1.263 . S
O399 Tb394 2.353 1_655 S
C400 O404 1.245 . S
C400 O405 1.259 . S
C401 O406 1.250 . S
C401 O407 1.263 . S
O402 Tb394 2.427 . S
O402 C398 1.275 . S
O403 Tb394 2.513 . S
O403 C398 1.246 . S
O404 Tb394 2.453 . S
O404 C400 1.245 . S
O405 Tb392 2.342 . S
O405 Tb394 2.596 . S
O405 C400 1.259 . S
O406 Tb394 2.374 . S
O406 C401 1.250 . S
O407 Tb392 2.360 . S
O407 C401 1.263 . S
C408 O409 1.275 1_655 S
C408 O410 1.246 . S
O409 Tb392 2.428 . S
O409 C408 1.275 1_455 S
O410 Tb392 2.507 1_655 S
O410 C408 1.246 . S
C411 O395 1.245 . S
C411 O396 1.259 1_565 S
Tb412 O415 2.453 . S
Tb412 O416 2.596 . S
Tb412 O417 2.374 . S
Tb412 O425 2.343 . S
Tb412 O427 2.353 . S
Tb412 O429 2.427 . S
Tb412 O430 2.513 . S
C413 O417 1.251 . S
C413 O419 1.263 . S
Tb414 O416 2.343 . S
Tb414 O419 2.353 . S
Tb414 O422 2.427 . S
Tb414 O423 2.513 . S
Tb414 O424 2.453 . S
Tb414 O425 2.596 . S
Tb414 O426 2.374 . S
O415 Tb412 2.453 . S
O415 C431 1.245 . S
O416 Tb412 2.596 . S
O416 Tb414 2.343 . S
O416 C431 1.259 . S
O417 Tb412 2.374 . S
O417 C413 1.251 . S
C418 O422 1.275 . S
C418 O423 1.246 . S
O419 C413 1.263 . S
O419 Tb414 2.353 . S
C420 O424 1.245 . S
C420 O425 1.259 . S
C421 O426 1.250 . S
C421 O427 1.263 . S
O422 Tb414 2.427 . S
O422 C418 1.275 . S
O423 Tb414 2.513 . S
O423 C418 1.246 . S
O424 Tb414 2.453 . S
O424 C420 1.245 . S
O425 Tb412 2.343 . S
O425 Tb414 2.596 . S
O425 C420 1.259 . S
O426 Tb414 2.374 . S
O426 C421 1.250 . S
O427 Tb412 2.353 . S
O427 C421 1.263 . S
C428 O429 1.275 . S
C428 O430 1.246 . S
O429 Tb412 2.427 . S
O429 C428 1.275 . S
O430 Tb412 2.513 . S
O430 C428 1.246 . S
C431 O415 1.245 . S
C431 O416 1.259 . S
Tb432 O435 2.453 . S
Tb432 O436 2.596 . S
Tb432 O437 2.374 1_545 S
Tb432 O445 2.343 1_556 S
Tb432 O447 2.353 1_556 S
Tb432 O449 2.427 1_556 S
Tb432 O450 2.513 1_546 S
C433 O437 1.251 1_554 S
C433 O439 1.263 . S
Tb434 O436 2.343 1_554 S
Tb434 O439 2.353 1_545 S
Tb434 O442 2.427 . S
Tb434 O443 2.513 . S
Tb434 O444 2.453 . S
Tb434 O445 2.596 . S
Tb434 O446 2.374 . S
O435 Tb432 2.453 . S
O435 C451 1.245 . S
O436 Tb432 2.596 . S
O436 Tb434 2.343 1_556 S
O436 C451 1.259 . S
O437 Tb432 2.374 1_565 S
O437 C433 1.251 1_556 S
C438 O442 1.275 . S
C438 O443 1.246 . S
O439 C433 1.263 . S
O439 Tb434 2.353 1_565 S
C440 O444 1.245 . S
C440 O445 1.259 . S
C441 O446 1.250 . S
C441 O447 1.263 . S
O442 Tb434 2.427 . S
O442 C438 1.275 . S
O443 Tb434 2.513 . S
O443 C438 1.246 . S
O444 Tb434 2.453 . S
O444 C440 1.245 . S
O445 Tb432 2.343 1_554 S
O445 Tb434 2.596 . S
O445 C440 1.259 . S
O446 Tb434 2.374 . S
O446 C441 1.250 . S
O447 Tb432 2.353 1_554 S
O447 C441 1.263 . S
C448 O449 1.247 1_565 S
C448 O450 1.269 . S
O449 Tb432 2.427 1_554 S
O449 C448 1.247 1_545 S
O450 Tb432 2.513 1_564 S
O450 C448 1.269 . S
C451 O435 1.245 . S
C451 O436 1.259 . S
Tb452 O455 2.453 . S
Tb452 O456 2.596 . S
Tb452 O457 2.374 . S
Tb452 O465 2.343 . S
Tb452 O467 2.353 . S
Tb452 O469 2.427 . S
Tb452 O470 2.513 . S
C453 O457 1.251 . S
C453 O459 1.263 . S
Tb454 O456 2.343 . S
Tb454 O459 2.353 . S
Tb454 O462 2.427 . S
Tb454 O463 2.513 . S
Tb454 O464 2.453 . S
Tb454 O465 2.596 . S
Tb454 O466 2.374 . S
O455 Tb452 2.453 . S
O455 C471 1.245 . S
O456 Tb452 2.596 . S
O456 Tb454 2.343 . S
O456 C471 1.259 . S
O457 Tb452 2.374 . S
O457 C453 1.251 . S
C458 O462 1.275 . S
C458 O463 1.246 . S
O459 C453 1.263 . S
O459 Tb454 2.353 . S
C460 O464 1.245 . S
C460 O465 1.259 . S
C461 O466 1.250 . S
C461 O467 1.263 . S
O462 Tb454 2.427 . S
O462 C458 1.275 . S
O463 Tb454 2.513 . S
O463 C458 1.246 . S
O464 Tb454 2.453 . S
O464 C460 1.245 . S
O465 Tb452 2.343 . S
O465 Tb454 2.596 . S
O465 C460 1.259 . S
O466 Tb454 2.374 . S
O466 C461 1.250 . S
O467 Tb452 2.353 . S
O467 C461 1.263 . S
C468 O469 1.275 . S
C468 O470 1.246 . S
O469 Tb452 2.427 . S
O469 C468 1.275 . S
O470 Tb452 2.513 . S
O470 C468 1.246 . S
C471 O455 1.245 . S
C471 O456 1.259 . S
Tb472 O475 2.453 1_556 S
Tb472 O476 2.596 1_556 S
Tb472 O477 2.374 1_556 S
Tb472 O485 2.343 1_556 S
Tb472 O487 2.353 . S
Tb472 O489 2.427 . S
Tb472 O490 2.513 . S
C473 O477 1.251 . S
C473 O479 1.263 . S
Tb474 O476 2.343 . S
Tb474 O479 2.353 . S
Tb474 O482 2.427 . S
Tb474 O483 2.513 . S
Tb474 O484 2.453 . S
Tb474 O485 2.596 . S
Tb474 O486 2.374 . S
O475 Tb472 2.453 1_554 S
O475 C491 1.245 . S
O476 Tb472 2.596 1_554 S
O476 Tb474 2.343 . S
O476 C491 1.259 . S
O477 Tb472 2.374 1_554 S
O477 C473 1.251 . S
C478 O482 1.275 . S
C478 O483 1.246 . S
O479 C473 1.263 . S
O479 Tb474 2.353 . S
C480 O484 1.245 . S
C480 O485 1.259 . S
C481 O486 1.250 . S
C481 O487 1.263 1_554 S
O482 Tb474 2.427 . S
O482 C478 1.275 . S
O483 Tb474 2.513 . S
O483 C478 1.246 . S
O484 Tb474 2.453 . S
O484 C480 1.245 . S
O485 Tb472 2.343 1_554 S
O485 Tb474 2.596 . S
O485 C480 1.259 . S
O486 Tb474 2.374 . S
O486 C481 1.250 . S
O487 Tb472 2.353 . S
O487 C481 1.263 1_556 S
C488 O489 1.275 . S
C488 O490 1.246 . S
O489 Tb472 2.427 . S
O489 C488 1.275 . S
O490 Tb472 2.513 . S
O490 C488 1.246 . S
C491 O475 1.245 . S
C491 O476 1.259 . S
Tb492 O495 2.453 . S
Tb492 O496 2.596 . S
Tb492 O497 2.374 . S
Tb492 O505 2.343 . S
Tb492 O507 2.353 . S
Tb492 O509 2.427 . S
Tb492 O510 2.513 . S
C493 O497 1.251 . S
C493 O499 1.263 . S
Tb494 O496 2.343 . S
Tb494 O499 2.353 . S
Tb494 O502 2.427 . S
Tb494 O503 2.513 . S
Tb494 O504 2.453 . S
Tb494 O505 2.596 . S
Tb494 O506 2.374 . S
O495 Tb492 2.453 . S
O495 C511 1.245 . S
O496 Tb492 2.596 . S
O496 Tb494 2.343 . S
O496 C511 1.259 . S
O497 Tb492 2.374 . S
O497 C493 1.251 . S
C498 O502 1.275 . S
C498 O503 1.246 . S
O499 C493 1.263 . S
O499 Tb494 2.353 . S
C500 O504 1.245 . S
C500 O505 1.259 . S
C501 O506 1.250 . S
C501 O507 1.263 . S
O502 Tb494 2.427 . S
O502 C498 1.275 . S
O503 Tb494 2.513 . S
O503 C498 1.246 . S
O504 Tb494 2.453 . S
O504 C500 1.245 . S
O505 Tb492 2.343 . S
O505 Tb494 2.596 . S
O505 C500 1.259 . S
O506 Tb494 2.374 . S
O506 C501 1.250 . S
O507 Tb492 2.353 . S
O507 C501 1.263 . S
C508 O509 1.275 . S
C508 O510 1.246 . S
O509 Tb492 2.427 . S
O509 C508 1.275 . S
O510 Tb492 2.513 . S
O510 C508 1.246 . S
C511 O495 1.245 . S
C511 O496 1.259 . S
Tb512 O515 2.453 1_655 S
Tb512 O516 2.596 1_655 S
Tb512 O517 2.374 . S
Tb512 O525 2.343 . S
Tb512 O527 2.353 . S
Tb512 O529 2.427 . S
Tb512 O530 2.513 . S
C513 O517 1.251 1_455 S
C513 O519 1.263 . S
Tb514 O516 2.343 . S
Tb514 O519 2.353 . S
Tb514 O522 2.427 . S
Tb514 O523 2.513 . S
Tb514 O524 2.453 . S
Tb514 O525 2.596 1_455 S
Tb514 O526 2.374 . S
O515 Tb512 2.453 1_455 S
O515 C531 1.245 . S
O516 Tb512 2.596 1_455 S
O516 Tb514 2.343 . S
O516 C531 1.259 . S
O517 Tb512 2.374 . S
O517 C513 1.251 1_655 S
C518 O522 1.275 . S
C518 O523 1.246 . S
O519 C513 1.263 . S
O519 Tb514 2.353 . S
C520 O524 1.245 1_655 S
C520 O525 1.259 . S
C521 O526 1.250 . S
C521 O527 1.263 1_455 S
O522 Tb514 2.427 . S
O522 C518 1.275 . S
O523 Tb514 2.513 . S
O523 C518 1.246 . S
O524 Tb514 2.453 . S
O524 C520 1.245 1_455 S
O525 Tb512 2.343 . S
O525 Tb514 2.596 1_655 S
O525 C520 1.259 . S
O526 Tb514 2.374 . S
O526 C521 1.250 . S
O527 Tb512 2.353 . S
O527 C521 1.263 1_655 S
C528 O529 1.275 . S
C528 O530 1.246 . S
O529 Tb512 2.427 . S
O529 C528 1.275 . S
O530 Tb512 2.513 . S
O530 C528 1.246 . S
C531 O515 1.245 . S
C531 O516 1.259 . S
Tb532 O535 2.453 . S
Tb532 O536 2.596 . S
Tb532 O537 2.374 . S
Tb532 O545 2.343 . S
Tb532 O547 2.353 . S
Tb532 O549 2.427 . S
Tb532 O550 2.513 . S
C533 O537 1.251 . S
C533 O539 1.263 . S
Tb534 O536 2.343 . S
Tb534 O539 2.353 . S
Tb534 O542 2.427 . S
Tb534 O543 2.513 . S
Tb534 O544 2.453 . S
Tb534 O545 2.596 . S
Tb534 O546 2.374 . S
O535 Tb532 2.453 . S
O535 C551 1.245 . S
O536 Tb532 2.596 . S
O536 Tb534 2.343 . S
O536 C551 1.259 . S
O537 Tb532 2.374 . S
O537 C533 1.251 . S
C538 O542 1.275 . S
C538 O543 1.246 . S
O539 C533 1.263 . S
O539 Tb534 2.353 . S
C540 O544 1.245 . S
C540 O545 1.259 . S
C541 O546 1.250 . S
C541 O547 1.263 . S
O542 Tb534 2.427 . S
O542 C538 1.275 . S
O543 Tb534 2.513 . S
O543 C538 1.246 . S
O544 Tb534 2.453 . S
O544 C540 1.245 . S
O545 Tb532 2.343 . S
O545 Tb534 2.596 . S
O545 C540 1.259 . S
O546 Tb534 2.374 . S
O546 C541 1.250 . S
O547 Tb532 2.353 . S
O547 C541 1.263 . S
C548 O549 1.275 . S
C548 O550 1.246 . S
O549 Tb532 2.427 . S
O549 C548 1.275 . S
O550 Tb532 2.513 . S
O550 C548 1.246 . S
C551 O535 1.245 . S
C551 O536 1.259 . S
Tb552 O555 2.453 . S
Tb552 O556 2.596 . S
Tb552 O557 2.374 . S
Tb552 O565 2.343 . S
Tb552 O567 2.353 . S
Tb552 O569 2.427 . S
Tb552 O570 2.513 . S
C553 O557 1.251 . S
C553 O559 1.263 . S
Tb554 O556 2.343 . S
Tb554 O559 2.353 . S
Tb554 O562 2.427 . S
Tb554 O563 2.513 . S
Tb554 O564 2.453 . S
Tb554 O565 2.596 . S
Tb554 O566 2.374 . S
O555 Tb552 2.453 . S
O555 C571 1.245 . S
O556 Tb552 2.596 . S
O556 Tb554 2.343 . S
O556 C571 1.259 . S
O557 Tb552 2.374 . S
O557 C553 1.251 . S
C558 O562 1.275 . S
C558 O563 1.246 . S
O559 C553 1.263 . S
O559 Tb554 2.353 . S
C560 O564 1.245 . S
C560 O565 1.259 . S
C561 O566 1.250 . S
C561 O567 1.263 . S
O562 Tb554 2.427 . S
O562 C558 1.275 . S
O563 Tb554 2.513 . S
O563 C558 1.246 . S
O564 Tb554 2.453 . S
O564 C560 1.245 . S
O565 Tb552 2.343 . S
O565 Tb554 2.596 . S
O565 C560 1.259 . S
O566 Tb554 2.374 . S
O566 C561 1.250 . S
O567 Tb552 2.353 . S
O567 C561 1.263 . S
C568 O569 1.275 . S
C568 O570 1.246 . S
O569 Tb552 2.427 . S
O569 C568 1.275 . S
O570 Tb552 2.513 . S
O570 C568 1.246 . S
C571 O555 1.245 . S
C571 O556 1.259 . S
Tb572 O575 2.453 . S
Tb572 O576 2.596 . S
Tb572 O577 2.374 . S
Tb572 O585 2.343 . S
Tb572 O587 2.353 . S
Tb572 O589 2.427 . S
Tb572 O590 2.513 . S
C573 O577 1.251 . S
C573 O579 1.263 . S
Tb574 O576 2.343 . S
Tb574 O579 2.353 . S
Tb574 O582 2.427 . S
Tb574 O583 2.513 . S
Tb574 O584 2.453 . S
Tb574 O585 2.596 . S
Tb574 O586 2.374 . S
O575 Tb572 2.453 . S
O575 C591 1.245 . S
O576 Tb572 2.596 . S
O576 Tb574 2.343 . S
O576 C591 1.259 . S
O577 Tb572 2.374 . S
O577 C573 1.251 . S
C578 O582 1.275 . S
C578 O583 1.246 . S
O579 C573 1.263 . S
O579 Tb574 2.353 . S
C580 O584 1.245 . S
C580 O585 1.259 . S
C581 O586 1.250 . S
C581 O587 1.263 . S
O582 Tb574 2.427 . S
O582 C578 1.275 . S
O583 Tb574 2.513 . S
O583 C578 1.246 . S
O584 Tb574 2.453 . S
O584 C580 1.245 . S
O585 Tb572 2.343 . S
O585 Tb574 2.596 . S
O585 C580 1.259 . S
O586 Tb574 2.374 . S
O586 C581 1.250 . S
O587 Tb572 2.353 . S
O587 C581 1.263 . S
C588 O589 1.275 . S
C588 O590 1.246 . S
O589 Tb572 2.427 . S
O589 C588 1.275 . S
O590 Tb572 2.513 . S
O590 C588 1.246 . S
C591 O575 1.245 . S
C591 O576 1.259 . S
Tb592 O595 2.453 . S
Tb592 O596 2.596 . S
Tb592 O597 2.374 . S
Tb592 O605 2.343 . S
Tb592 O607 2.353 . S
Tb592 O609 2.427 . S
Tb592 O610 2.513 . S
C593 O597 1.251 . S
C593 O599 1.263 . S
Tb594 O596 2.343 . S
Tb594 O599 2.353 . S
Tb594 O602 2.427 . S
Tb594 O603 2.513 . S
Tb594 O604 2.453 . S
Tb594 O605 2.596 . S
Tb594 O606 2.374 . S
O595 Tb592 2.453 . S
O595 C611 1.245 . S
O596 Tb592 2.596 . S
O596 Tb594 2.343 . S
O596 C611 1.259 . S
O597 Tb592 2.374 . S
O597 C593 1.251 . S
C598 O602 1.275 . S
C598 O603 1.246 . S
O599 C593 1.263 . S
O599 Tb594 2.353 . S
C600 O604 1.245 . S
C600 O605 1.259 . S
C601 O606 1.250 . S
C601 O607 1.263 . S
O602 Tb594 2.427 . S
O602 C598 1.275 . S
O603 Tb594 2.513 . S
O603 C598 1.246 . S
O604 Tb594 2.453 . S
O604 C600 1.245 . S
O605 Tb592 2.343 . S
O605 Tb594 2.596 . S
O605 C600 1.259 . S
O606 Tb594 2.374 . S
O606 C601 1.250 . S
O607 Tb592 2.353 . S
O607 C601 1.263 . S
C608 O609 1.275 . S
C608 O610 1.246 . S
O609 Tb592 2.427 . S
O609 C608 1.275 . S
O610 Tb592 2.513 . S
O610 C608 1.246 . S
C611 O595 1.245 . S
C611 O596 1.259 . S
Tb612 O615 2.453 . S
Tb612 O616 2.596 . S
Tb612 O617 2.374 . S
Tb612 O625 2.343 . S
Tb612 O627 2.353 1_554 S
Tb612 O629 2.427 1_554 S
Tb612 O630 2.513 . S
C613 O617 1.251 . S
C613 O619 1.263 1_455 S
Tb614 O616 2.343 1_655 S
Tb614 O619 2.353 . S
Tb614 O622 2.427 . S
Tb614 O623 2.513 . S
Tb614 O624 2.458 . S
Tb614 O625 2.596 1_655 S
Tb614 O626 2.374 1_554 S
O615 Tb612 2.453 . S
O615 C631 1.245 . S
O616 Tb612 2.596 . S
O616 Tb614 2.343 1_455 S
O616 C631 1.259 . S
O617 Tb612 2.374 . S
O617 C613 1.251 . S
C618 O622 1.275 . S
C618 O623 1.246 . S
O619 C613 1.263 1_655 S
O619 Tb614 2.353 . S
C620 O624 1.238 1_456 S
C620 O625 1.259 1_556 S
C621 O626 1.228 1_455 S
C621 O627 1.286 . S
O622 Tb614 2.427 . S
O622 C618 1.275 . S
O623 Tb614 2.513 . S
O623 C618 1.246 . S
O624 Tb614 2.458 . S
O624 C620 1.238 1_654 S
O625 Tb612 2.343 . S
O625 Tb614 2.596 1_455 S
O625 C620 1.259 1_554 S
O626 Tb614 2.374 1_556 S
O626 C621 1.228 1_655 S
O627 Tb612 2.353 1_556 S
O627 C621 1.286 . S
C628 O629 1.275 . S
C628 O630 1.246 1_556 S
O629 Tb612 2.427 1_556 S
O629 C628 1.275 . S
O630 Tb612 2.513 . S
O630 C628 1.246 1_554 S
C631 O615 1.245 . S
C631 O616 1.259 . S
C632 C633 1.369 1_655 S
C632 C634 1.419 . S
C632 H636 0.930 . S
C633 C632 1.369 1_455 S
C633 C642 1.429 . S
C634 C632 1.419 . S
C634 C635 1.363 1_655 S
C634 H637 0.929 . S
C635 C634 1.363 1_455 S
C635 C641 1.428 . S
H636 C632 0.930 . S
H637 C634 0.929 . S
S638 N639 1.613 1_554 S
S638 N640 1.610 . S
N639 S638 1.613 1_556 S
N639 C642 1.350 . S
N640 S638 1.610 . S
N640 C641 1.351 1_554 S
C641 C635 1.428 . S
C641 N640 1.351 1_556 S
C641 C642 1.434 . S
C642 C633 1.429 . S
C642 N639 1.350 . S
C642 C641 1.434 . S
C643 C644 1.369 . S
C643 C645 1.419 . S
C643 H647 0.930 . S
C644 C643 1.369 . S
C644 C653 1.429 . S
C645 C643 1.419 . S
C645 C646 1.363 . S
C645 H648 0.929 . S
C646 C645 1.363 . S
C646 C652 1.428 . S
H647 C643 0.930 . S
H648 C645 0.929 . S
S649 N650 1.613 . S
S649 N651 1.610 . S
N650 S649 1.613 . S
N650 C653 1.350 . S
N651 S649 1.610 . S
N651 C652 1.351 . S
C652 C646 1.428 . S
C652 N651 1.351 . S
C652 C653 1.434 . S
C653 C644 1.429 . S
C653 N650 1.350 . S
C653 C652 1.434 . S
C654 C655 1.369 . S
C654 C656 1.419 . S
C654 H658 0.930 . S
C655 C654 1.369 . S
C655 C664 1.429 . S
C656 C654 1.419 . S
C656 C657 1.363 . S
C656 H659 0.929 . S
C657 C656 1.363 . S
C657 C663 1.428 . S
H658 C654 0.930 . S
H659 C656 0.929 . S
S660 N661 1.613 . S
S660 N662 1.610 . S
N661 S660 1.613 . S
N661 C664 1.350 . S
N662 S660 1.610 . S
N662 C663 1.351 . S
C663 C657 1.428 . S
C663 N662 1.351 . S
C663 C664 1.434 . S
C664 C655 1.429 . S
C664 N661 1.350 . S
C664 C663 1.434 . S
C665 C666 1.369 . S
C665 C667 1.419 . S
C665 H669 0.930 . S
C666 C665 1.369 . S
C666 C675 1.429 . S
C667 C665 1.419 . S
C667 C668 1.363 . S
C667 H670 0.929 . S
C668 C667 1.363 . S
C668 C674 1.428 . S
H669 C665 0.930 . S
H670 C667 0.929 . S
S671 N672 1.613 . S
S671 N673 1.610 . S
N672 S671 1.613 . S
N672 C675 1.350 . S
N673 S671 1.610 . S
N673 C674 1.351 . S
C674 C668 1.428 . S
C674 N673 1.351 . S
C674 C675 1.434 . S
C675 C666 1.429 . S
C675 N672 1.350 . S
C675 C674 1.434 . S
C676 C677 1.369 . S
C676 C678 1.419 . S
C676 H680 0.930 . S
C677 C676 1.369 . S
C677 C686 1.429 1_455 S
C678 C676 1.419 . S
C678 C679 1.363 . S
C678 H681 0.929 . S
C679 C678 1.363 . S
C679 C685 1.428 . S
H680 C676 0.930 . S
H681 C678 0.929 . S
S682 N683 1.613 . S
S682 N684 1.610 . S
N683 S682 1.613 . S
N683 C686 1.350 . S
N684 S682 1.610 . S
N684 C685 1.351 1_655 S
C685 C679 1.428 . S
C685 N684 1.351 1_455 S
C685 C686 1.434 1_455 S
C686 C677 1.429 1_655 S
C686 N683 1.350 . S
C686 C685 1.434 1_655 S
C687 C688 1.369 . S
C687 C689 1.419 . S
C687 H691 0.930 . S
C688 C687 1.369 . S
C688 C697 1.429 . S
C689 C687 1.419 . S
C689 C690 1.363 . S
C689 H692 0.929 . S
C690 C689 1.363 . S
C690 C696 1.428 . S
H691 C687 0.930 . S
H692 C689 0.929 . S
S693 N694 1.613 . S
S693 N695 1.610 . S
N694 S693 1.613 . S
N694 C697 1.350 . S
N695 S693 1.610 . S
N695 C696 1.351 . S
C696 C690 1.428 . S
C696 N695 1.351 . S
C696 C697 1.434 . S
C697 C688 1.429 . S
C697 N694 1.350 . S
C697 C696 1.434 . S
C698 C699 1.369 . S
C698 C700 1.419 . S
C698 H702 0.930 . S
C699 C698 1.369 . S
C699 C708 1.429 . S
C700 C698 1.419 . S
C700 C701 1.363 . S
C700 H703 0.929 . S
C701 C700 1.363 . S
C701 C707 1.428 . S
H702 C698 0.930 . S
H703 C700 0.929 . S
S704 N705 1.613 . S
S704 N706 1.610 . S
N705 S704 1.613 . S
N705 C708 1.350 . S
N706 S704 1.610 . S
N706 C707 1.351 . S
C707 C701 1.428 . S
C707 N706 1.351 . S
C707 C708 1.434 . S
C708 C699 1.429 . S
C708 N705 1.350 . S
C708 C707 1.434 . S
C709 C710 1.369 . S
C709 C711 1.419 . S
C709 H713 0.930 . S
C710 C709 1.369 . S
C710 C719 1.429 . S
C711 C709 1.419 . S
C711 C712 1.363 . S
C711 H714 0.929 . S
C712 C711 1.363 . S
C712 C718 1.428 . S
H713 C709 0.930 . S
H714 C711 0.929 . S
S715 N716 1.613 . S
S715 N717 1.610 . S
N716 S715 1.613 . S
N716 C719 1.350 . S
N717 S715 1.610 . S
N717 C718 1.351 . S
C718 C712 1.428 . S
C718 N717 1.351 . S
C718 C719 1.434 . S
C719 C710 1.429 . S
C719 N716 1.350 . S
C719 C718 1.434 . S
C720 C721 1.369 . S
C720 C722 1.419 . S
C720 H724 0.930 . S
C721 C720 1.369 . S
C721 C730 1.429 . S
C722 C720 1.419 . S
C722 C723 1.363 . S
C722 H725 0.929 . S
C723 C722 1.363 . S
C723 C729 1.428 . S
H724 C720 0.930 . S
H725 C722 0.929 . S
S726 N727 1.613 1_455 S
S726 N728 1.610 . S
N727 S726 1.613 1_655 S
N727 C730 1.350 . S
N728 S726 1.610 . S
N728 C729 1.351 1_455 S
C729 C723 1.428 . S
C729 N728 1.351 1_655 S
C729 C730 1.434 . S
C730 C721 1.429 . S
C730 N727 1.350 . S
C730 C729 1.434 . S
C731 C732 1.369 . S
C731 C733 1.419 . S
C731 H735 0.930 . S
C732 C731 1.369 . S
C732 C741 1.429 . S
C733 C731 1.419 . S
C733 C734 1.363 . S
C733 H736 0.929 . S
C734 C733 1.363 . S
C734 C740 1.428 . S
H735 C731 0.930 . S
H736 C733 0.929 . S
S737 N738 1.613 . S
S737 N739 1.610 . S
N738 S737 1.613 . S
N738 C741 1.350 . S
N739 S737 1.610 . S
N739 C740 1.351 . S
C740 C734 1.428 . S
C740 N739 1.351 . S
C740 C741 1.434 . S
C741 C732 1.429 . S
C741 N738 1.350 . S
C741 C740 1.434 . S
C742 C743 1.369 . S
C742 C744 1.419 . S
C742 H746 0.930 . S
C743 C742 1.369 . S
C743 C752 1.429 1_545 S
C744 C742 1.419 . S
C744 C745 1.363 . S
C744 H747 0.929 . S
C745 C744 1.363 . S
C745 C751 1.428 1_545 S
H746 C742 0.930 . S
H747 C744 0.929 . S
S748 N749 1.613 . S
S748 N750 1.610 . S
N749 S748 1.613 . S
N749 C752 1.350 . S
N750 S748 1.610 . S
N750 C751 1.351 . S
C751 C745 1.428 1_565 S
C751 N750 1.351 . S
C751 C752 1.434 . S
C752 C743 1.429 1_565 S
C752 N749 1.350 . S
C752 C751 1.434 . S
C753 C754 1.369 . S
C753 C755 1.419 . S
C753 H757 0.930 . S
C754 C753 1.369 . S
C754 C763 1.429 . S
C755 C753 1.419 . S
C755 C756 1.363 . S
C755 H758 0.929 . S
C756 C755 1.363 . S
C756 C762 1.428 . S
H757 C753 0.930 . S
H758 C755 0.929 . S
S759 N760 1.613 . S
S759 N761 1.610 . S
N760 S759 1.613 . S
N760 C763 1.350 . S
N761 S759 1.610 . S
N761 C762 1.351 . S
C762 C756 1.428 . S
C762 N761 1.351 . S
C762 C763 1.434 . S
C763 C754 1.429 . S
C763 N760 1.350 . S
C763 C762 1.434 . S
C764 C765 1.369 . S
C764 C766 1.419 . S
C764 H768 0.930 . S
C765 C764 1.369 . S
C765 C774 1.429 . S
C766 C764 1.419 . S
C766 C767 1.363 . S
C766 H769 0.929 . S
C767 C766 1.363 . S
C767 C773 1.428 . S
H768 C764 0.930 . S
H769 C766 0.929 . S
S770 N771 1.613 1_455 S
S770 N772 1.610 . S
N771 S770 1.613 1_655 S
N771 C774 1.350 . S
N772 S770 1.610 . S
N772 C773 1.351 1_455 S
C773 C767 1.428 . S
C773 N772 1.351 1_655 S
C773 C774 1.434 . S
C774 C765 1.429 . S
C774 N771 1.350 . S
C774 C773 1.434 . S
C775 C776 1.369 . S
C775 C777 1.419 . S
C775 H779 0.930 . S
C776 C775 1.369 . S
C776 C785 1.429 . S
C777 C775 1.419 . S
C777 C778 1.363 . S
C777 H780 0.929 . S
C778 C777 1.363 . S
C778 C784 1.428 . S
H779 C775 0.930 . S
H780 C777 0.929 . S
S781 N782 1.613 . S
S781 N783 1.610 . S
N782 S781 1.613 . S
N782 C785 1.350 . S
N783 S781 1.610 . S
N783 C784 1.351 . S
C784 C778 1.428 . S
C784 N783 1.351 . S
C784 C785 1.434 . S
C785 C776 1.429 . S
C785 N782 1.350 . S
C785 C784 1.434 . S
C786 C787 1.369 1_565 S
C786 C788 1.419 1_565 S
C786 H790 0.930 . S
C787 C786 1.369 1_545 S
C787 C796 1.429 . S
C788 C786 1.419 1_545 S
C788 C789 1.363 . S
C788 H791 0.929 1_545 S
C789 C788 1.363 . S
C789 C795 1.428 . S
H790 C786 0.930 . S
H791 C788 0.929 1_565 S
S792 N793 1.613 . S
S792 N794 1.610 . S
N793 S792 1.613 . S
N793 C796 1.350 . S
N794 S792 1.610 . S
N794 C795 1.351 . S
C795 C789 1.428 . S
C795 N794 1.351 . S
C795 C796 1.434 . S
C796 C787 1.429 . S
C796 N793 1.350 . S
C796 C795 1.434 . S
C797 C798 1.369 . S
C797 C799 1.419 . S
C797 H801 0.930 . S
C798 C797 1.369 . S
C798 C807 1.429 . S
C799 C797 1.419 . S
C799 C800 1.363 . S
C799 H802 0.929 . S
C800 C799 1.363 . S
C800 C806 1.428 . S
H801 C797 0.930 . S
H802 C799 0.929 . S
S803 N804 1.613 . S
S803 N805 1.610 . S
N804 S803 1.613 . S
N804 C807 1.350 . S
N805 S803 1.610 . S
N805 C806 1.351 . S
C806 C800 1.428 . S
C806 N805 1.351 . S
C806 C807 1.434 . S
C807 C798 1.429 . S
C807 N804 1.350 . S
C807 C806 1.434 . S
C808 C809 1.369 . S
C808 C810 1.419 1_565 S
C808 H812 0.930 . S
C809 C808 1.369 . S
C809 C818 1.429 . S
C810 C808 1.419 1_545 S
C810 C811 1.363 1_545 S
C810 H813 0.929 . S
C811 C810 1.363 1_565 S
C811 C817 1.428 . S
H812 C808 0.930 . S
H813 C810 0.929 . S
S814 N815 1.611 1_556 S
S814 N816 1.603 1_556 S
N815 S814 1.611 1_554 S
N815 C818 1.350 . S
N816 S814 1.603 1_554 S
N816 C817 1.351 . S
C817 C811 1.428 . S
C817 N816 1.351 . S
C817 C818 1.434 . S
C818 C809 1.429 . S
C818 N815 1.350 . S
C818 C817 1.434 . S
C819 C820 1.369 . S
C819 C821 1.419 . S
C819 H823 0.930 . S
C820 C819 1.369 . S
C820 C829 1.429 1_556 S
C821 C819 1.419 . S
C821 C822 1.363 1_556 S
C821 H824 0.929 . S
C822 C821 1.363 1_554 S
C822 C828 1.428 . S
H823 C819 0.930 . S
H824 C821 0.929 . S
S825 N826 1.613 . S
S825 N827 1.610 . S
N826 S825 1.613 . S
N826 C829 1.350 . S
N827 S825 1.610 . S
N827 C828 1.351 . S
C828 C822 1.428 . S
C828 N827 1.351 . S
C828 C829 1.434 . S
C829 C820 1.429 1_554 S
C829 N826 1.350 . S
C829 C828 1.434 . S
C830 C831 1.369 . S
C830 C832 1.419 . S
C830 H834 0.930 . S
C831 C830 1.369 . S
C831 C840 1.429 . S
C832 C830 1.419 . S
C832 C833 1.363 . S
C832 H835 0.929 . S
C833 C832 1.363 . S
C833 C839 1.428 . S
H834 C830 0.930 . S
H835 C832 0.929 . S
S836 N837 1.613 . S
S836 N838 1.610 . S
N837 S836 1.613 . S
N837 C840 1.350 . S
N838 S836 1.610 . S
N838 C839 1.351 . S
C839 C833 1.428 . S
C839 N838 1.351 . S
C839 C840 1.434 . S
C840 C831 1.429 . S
C840 N837 1.350 . S
C840 C839 1.434 . S
C841 C842 1.369 . S
C841 C843 1.419 . S
C841 H845 0.930 . S
C842 C841 1.369 . S
C842 C851 1.429 . S
C843 C841 1.419 . S
C843 C844 1.363 . S
C843 H846 0.929 . S
C844 C843 1.363 . S
C844 C850 1.428 . S
H845 C841 0.930 . S
H846 C843 0.929 . S
S847 N848 1.613 . S
S847 N849 1.610 . S
N848 S847 1.613 . S
N848 C851 1.350 . S
N849 S847 1.610 . S
N849 C850 1.351 . S
C850 C844 1.428 . S
C850 N849 1.351 . S
C850 C851 1.434 . S
C851 C842 1.429 . S
C851 N848 1.350 . S
C851 C850 1.434 . S
C852 C853 1.369 . S
C852 C854 1.419 . S
C852 H856 0.930 . S
C853 C852 1.369 . S
C853 C862 1.429 . S
C854 C852 1.419 . S
C854 C855 1.363 . S
C854 H857 0.929 . S
C855 C854 1.363 . S
C855 C861 1.428 . S
H856 C852 0.930 . S
H857 C854 0.929 . S
S858 N859 1.613 . S
S858 N860 1.610 . S
N859 S858 1.613 . S
N859 C862 1.350 . S
N860 S858 1.610 . S
N860 C861 1.351 . S
C861 C855 1.428 . S
C861 N860 1.351 . S
C861 C862 1.434 . S
C862 C853 1.429 . S
C862 N859 1.350 . S
C862 C861 1.434 . S
C863 C864 1.369 . S
C863 C865 1.419 . S
C863 H867 0.930 . S
C864 C863 1.369 . S
C864 C873 1.429 . S
C865 C863 1.419 . S
C865 C866 1.363 . S
C865 H868 0.929 . S
C866 C865 1.363 . S
C866 C872 1.428 . S
H867 C863 0.930 . S
H868 C865 0.929 . S
S869 N870 1.613 . S
S869 N871 1.610 . S
N870 S869 1.613 . S
N870 C873 1.350 . S
N871 S869 1.610 . S
N871 C872 1.351 . S
C872 C866 1.428 . S
C872 N871 1.351 . S
C872 C873 1.434 . S
C873 C864 1.429 . S
C873 N870 1.350 . S
C873 C872 1.434 . S
C874 C875 1.369 . S
C874 C876 1.419 . S
C874 H878 0.930 . S
C875 C874 1.369 . S
C875 C884 1.429 . S
C876 C874 1.419 . S
C876 C877 1.363 . S
C876 H879 0.929 . S
C877 C876 1.363 . S
C877 C883 1.428 . S
H878 C874 0.930 . S
H879 C876 0.929 . S
S880 N881 1.613 . S
S880 N882 1.610 . S
N881 S880 1.613 . S
N881 C884 1.350 . S
N882 S880 1.610 . S
N882 C883 1.351 . S
C883 C877 1.428 . S
C883 N882 1.351 . S
C883 C884 1.434 . S
C884 C875 1.429 . S
C884 N881 1.350 . S
C884 C883 1.434 . S
C885 C886 1.369 . S
C885 C887 1.419 . S
C885 H889 0.930 . S
C886 C885 1.369 . S
C886 C895 1.429 . S
C887 C885 1.419 . S
C887 C888 1.363 . S
C887 H890 0.929 . S
C888 C887 1.363 . S
C888 C894 1.428 . S
H889 C885 0.930 . S
H890 C887 0.929 . S
S891 N892 1.613 . S
S891 N893 1.610 . S
N892 S891 1.613 . S
N892 C895 1.350 . S
N893 S891 1.610 . S
N893 C894 1.351 . S
C894 C888 1.428 . S
C894 N893 1.351 . S
C894 C895 1.434 . S
C895 C886 1.429 . S
C895 N892 1.350 . S
C895 C894 1.434 . S
C896 C897 1.369 1_655 S
C896 C898 1.419 . S
C896 H900 0.930 . S
C897 C896 1.369 1_455 S
C897 C906 1.429 . S
C898 C896 1.419 . S
C898 C899 1.363 1_655 S
C898 H901 0.929 . S
C899 C898 1.363 1_455 S
C899 C905 1.428 . S
H900 C896 0.930 . S
H901 C898 0.929 . S
S902 N903 1.613 . S
S902 N904 1.610 . S
N903 S902 1.613 . S
N903 C906 1.350 . S
N904 S902 1.610 . S
N904 C905 1.351 . S
C905 C899 1.428 . S
C905 N904 1.351 . S
C905 C906 1.434 . S
C906 C897 1.429 . S
C906 N903 1.350 . S
C906 C905 1.434 . S
C907 C908 1.369 . S
C907 C909 1.419 . S
C907 H911 0.930 . S
C908 C907 1.369 . S
C908 C917 1.429 . S
C909 C907 1.419 . S
C909 C910 1.363 . S
C909 H912 0.929 . S
C910 C909 1.363 . S
C910 C916 1.428 . S
H911 C907 0.930 . S
H912 C909 0.929 . S
S913 N914 1.613 . S
S913 N915 1.610 . S
N914 S913 1.613 . S
N914 C917 1.350 . S
N915 S913 1.610 . S
N915 C916 1.351 . S
C916 C910 1.428 . S
C916 N915 1.351 . S
C916 C917 1.434 . S
C917 C908 1.429 . S
C917 N914 1.350 . S
C917 C916 1.434 . S
C918 C919 1.369 . S
C918 C920 1.419 . S
C918 H922 0.930 . S
C919 C918 1.369 . S
C919 C928 1.429 . S
C920 C918 1.419 . S
C920 C921 1.363 . S
C920 H923 0.929 . S
C921 C920 1.363 . S
C921 C927 1.428 . S
H922 C918 0.930 . S
H923 C920 0.929 . S
S924 N925 1.613 . S
S924 N926 1.610 . S
N925 S924 1.613 . S
N925 C928 1.350 . S
N926 S924 1.610 . S
N926 C927 1.351 . S
C927 C921 1.428 . S
C927 N926 1.351 . S
C927 C928 1.434 . S
C928 C919 1.429 . S
C928 N925 1.350 . S
C928 C927 1.434 . S
C929 C930 1.369 . S
C929 C931 1.419 . S
C929 H933 0.930 . S
C930 C929 1.369 . S
C930 C939 1.429 . S
C931 C929 1.419 . S
C931 C932 1.363 . S
C931 H934 0.929 . S
C932 C931 1.363 . S
C932 C938 1.428 . S
H933 C929 0.930 . S
H934 C931 0.929 . S
S935 N936 1.613 . S
S935 N937 1.610 . S
N936 S935 1.613 . S
N936 C939 1.350 . S
N937 S935 1.610 . S
N937 C938 1.351 . S
C938 C932 1.428 . S
C938 N937 1.351 . S
C938 C939 1.434 . S
C939 C930 1.429 . S
C939 N936 1.350 . S
C939 C938 1.434 . S
C940 C941 1.369 . S
C940 C942 1.419 . S
C940 H944 0.930 . S
C941 C940 1.369 . S
C941 C950 1.430 . S
C942 C940 1.419 . S
C942 C943 1.363 . S
C942 H945 0.929 . S
C943 C942 1.363 . S
C943 C949 1.428 1_455 S
H944 C940 0.930 . S
H945 C942 0.929 . S
S946 N947 1.613 . S
S946 N948 1.610 . S
N947 S946 1.613 . S
N947 C950 1.346 1_655 S
N948 S946 1.610 . S
N948 C949 1.351 . S
C949 C943 1.428 1_655 S
C949 N948 1.351 . S
C949 C950 1.435 1_655 S
C950 C941 1.430 . S
C950 N947 1.346 1_455 S
C950 C949 1.435 1_455 S
C951 C952 1.369 . S
C951 C953 1.419 . S
C951 H955 0.930 . S
C952 C951 1.369 . S
C952 C961 1.429 . S
C953 C951 1.419 . S
C953 C954 1.363 . S
C953 H956 0.929 . S
C954 C953 1.363 . S
C954 C960 1.428 . S
H955 C951 0.930 . S
H956 C953 0.929 . S
S957 N958 1.613 . S
S957 N959 1.610 . S
N958 S957 1.613 . S
N958 C961 1.350 . S
N959 S957 1.610 . S
N959 C960 1.351 . S
C960 C954 1.428 . S
C960 N959 1.351 . S
C960 C961 1.434 . S
C961 C952 1.429 . S
C961 N958 1.350 . S
C961 C960 1.434 . S
C962 C963 1.369 . S
C962 C964 1.419 . S
C962 H966 0.930 . S
C963 C962 1.369 . S
C963 C972 1.429 . S
C964 C962 1.419 . S
C964 C965 1.363 . S
C964 H967 0.929 1_556 S
C965 C964 1.363 . S
C965 C971 1.428 . S
H966 C962 0.930 . S
H967 C964 0.929 1_554 S
S968 N969 1.613 . S
S968 N970 1.610 . S
N969 S968 1.613 . S
N969 C972 1.350 . S
N970 S968 1.610 . S
N970 C971 1.351 . S
C971 C965 1.428 . S
C971 N970 1.351 . S
C971 C972 1.434 . S
C972 C963 1.429 . S
C972 N969 1.350 . S
C972 C971 1.434 . S
C973 C974 1.369 . S
C973 C975 1.419 . S
C973 H977 0.930 . S
C974 C973 1.369 . S
C974 C983 1.429 . S
C975 C973 1.419 . S
C975 C976 1.363 . S
C975 H978 0.929 . S
C976 C975 1.363 . S
C976 C982 1.428 . S
H977 C973 0.930 . S
H978 C975 0.929 . S
S979 N980 1.613 . S
S979 N981 1.610 . S
N980 S979 1.613 . S
N980 C983 1.350 . S
N981 S979 1.610 . S
N981 C982 1.351 . S
C982 C976 1.428 . S
C982 N981 1.351 . S
C982 C983 1.434 . S
C983 C974 1.429 . S
C983 N980 1.350 . S
C983 C982 1.434 . S
C984 C985 1.369 . S
C984 C986 1.419 . S
C984 H988 0.930 . S
C985 C984 1.369 . S
C985 C994 1.429 1_565 S
C986 C984 1.419 . S
C986 C987 1.380 . S
C986 H989 0.929 . S
C987 C986 1.380 . S
C987 C993 1.413 1_565 S
H988 C984 0.930 . S
H989 C986 0.929 . S
S990 N991 1.613 . S
S990 N992 1.610 . S
N991 S990 1.613 . S
N991 C994 1.350 . S
N992 S990 1.610 . S
N992 C993 1.351 . S
C993 C987 1.413 1_545 S
C993 N992 1.351 . S
C993 C994 1.434 . S
C994 C985 1.429 1_545 S
C994 N991 1.350 . S
C994 C993 1.434 . S
C995 C996 1.369 . S
C995 C997 1.419 . S
C995 H999 0.930 . S
C996 C995 1.369 . S
C996 C1005 1.429 . S
C997 C995 1.419 . S
C997 C998 1.363 . S
C997 H1000 0.929 . S
C998 C997 1.363 . S
C998 C1004 1.428 . S
H999 C995 0.930 . S
H1000 C997 0.929 . S
S1001 N1002 1.613 . S
S1001 N1003 1.610 . S
N1002 S1001 1.613 . S
N1002 C1005 1.350 . S
N1003 S1001 1.610 . S
N1003 C1004 1.351 . S
C1004 C998 1.428 . S
C1004 N1003 1.351 . S
C1004 C1005 1.434 . S
C1005 C996 1.429 . S
C1005 N1002 1.350 . S
C1005 C1004 1.434 . S
C1006 C1007 1.369 . S
C1006 C1008 1.419 . S
C1006 H1010 0.930 . S
C1007 C1006 1.369 . S
C1007 C1016 1.429 . S
C1008 C1006 1.419 . S
C1008 C1009 1.363 . S
C1008 H1011 0.929 . S
C1009 C1008 1.363 . S
C1009 C1015 1.428 . S
H1010 C1006 0.930 . S
H1011 C1008 0.929 . S
S1012 N1013 1.613 1_565 S
S1012 N1014 1.610 1_565 S
N1013 S1012 1.613 1_545 S
N1013 C1016 1.350 . S
N1014 S1012 1.610 1_545 S
N1014 C1015 1.351 . S
C1015 C1009 1.428 . S
C1015 N1014 1.351 . S
C1015 C1016 1.434 . S
C1016 C1007 1.429 . S
C1016 N1013 1.350 . S
C1016 C1015 1.434 . S
C1017 C1018 1.369 . S
C1017 C1019 1.419 . S
C1017 H1021 0.930 . S
C1018 C1017 1.369 . S
C1018 C1027 1.429 . S
C1019 C1017 1.419 . S
C1019 C1020 1.363 . S
C1019 H1022 0.929 . S
C1020 C1019 1.363 . S
C1020 C1026 1.428 . S
H1021 C1017 0.930 . S
H1022 C1019 0.929 . S
S1023 N1024 1.613 . S
S1023 N1025 1.610 . S
N1024 S1023 1.613 . S
N1024 C1027 1.350 . S
N1025 S1023 1.610 . S
N1025 C1026 1.351 . S
C1026 C1020 1.428 . S
C1026 N1025 1.351 . S
C1026 C1027 1.434 . S
C1027 C1018 1.429 . S
C1027 N1024 1.350 . S
C1027 C1026 1.434 . S
C1028 C1029 1.369 1_545 S
C1028 C1030 1.419 . S
C1028 H1032 0.930 . S
C1029 C1028 1.369 1_565 S
C1029 C1038 1.429 . S
C1030 C1028 1.419 . S
C1030 C1031 1.363 . S
C1030 H1033 0.929 . S
C1031 C1030 1.363 . S
C1031 C1037 1.428 1_545 S
H1032 C1028 0.930 . S
H1033 C1030 0.929 . S
S1034 N1035 1.613 . S
S1034 N1036 1.610 . S
N1035 S1034 1.613 . S
N1035 C1038 1.350 . S
N1036 S1034 1.610 . S
N1036 C1037 1.351 . S
C1037 C1031 1.428 1_565 S
C1037 N1036 1.351 . S
C1037 C1038 1.434 . S
C1038 C1029 1.429 . S
C1038 N1035 1.350 . S
C1038 C1037 1.434 . S
C1039 C1040 1.369 . S
C1039 C1041 1.419 . S
C1039 H1043 0.930 . S
C1040 C1039 1.369 . S
C1040 C1049 1.429 . S
C1041 C1039 1.419 . S
C1041 C1042 1.363 . S
C1041 H1044 0.929 . S
C1042 C1041 1.363 . S
C1042 C1048 1.428 . S
H1043 C1039 0.930 . S
H1044 C1041 0.929 . S
S1045 N1046 1.613 . S
S1045 N1047 1.610 . S
N1046 S1045 1.613 . S
N1046 C1049 1.350 . S
N1047 S1045 1.610 . S
N1047 C1048 1.351 . S
C1048 C1042 1.428 . S
C1048 N1047 1.351 . S
C1048 C1049 1.434 . S
C1049 C1040 1.429 . S
C1049 N1046 1.350 . S
C1049 C1048 1.434 . S
C1050 C1051 1.369 . S
C1050 C1052 1.419 . S
C1050 H1054 0.918 1_545 S
C1051 C1050 1.369 . S
C1051 C1060 1.429 . S
C1052 C1050 1.419 . S
C1052 C1053 1.363 . S
C1052 H1055 0.929 1_545 S
C1053 C1052 1.363 . S
C1053 C1059 1.428 . S
H1054 C1050 0.918 1_565 S
H1055 C1052 0.929 1_565 S
S1056 N1057 1.613 . S
S1056 N1058 1.610 . S
N1057 S1056 1.613 . S
N1057 C1060 1.350 . S
N1058 S1056 1.610 . S
N1058 C1059 1.351 . S
C1059 C1053 1.428 . S
C1059 N1058 1.351 . S
C1059 C1060 1.434 . S
C1060 C1051 1.429 . S
C1060 N1057 1.350 . S
C1060 C1059 1.434 . S
C1061 C1062 1.369 . S
C1061 C1063 1.419 . S
C1061 H1065 0.930 . S
C1062 C1061 1.369 . S
C1062 C1071 1.429 . S
C1063 C1061 1.419 . S
C1063 C1064 1.363 . S
C1063 H1066 0.929 . S
C1064 C1063 1.363 . S
C1064 C1070 1.428 . S
H1065 C1061 0.930 . S
H1066 C1063 0.929 . S
S1067 N1068 1.613 . S
S1067 N1069 1.610 . S
N1068 S1067 1.613 . S
N1068 C1071 1.350 . S
N1069 S1067 1.610 . S
N1069 C1070 1.351 . S
C1070 C1064 1.428 . S
C1070 N1069 1.351 . S
C1070 C1071 1.434 . S
C1071 C1062 1.429 . S
C1071 N1068 1.350 . S
C1071 C1070 1.434 . S
C1072 C1073 1.369 1_556 S
C1072 C1074 1.419 . S
C1072 H1076 0.930 . S
C1073 C1072 1.369 1_554 S
C1073 C1082 1.429 . S
C1074 C1072 1.419 . S
C1074 C1075 1.363 . S
C1074 H1077 0.929 . S
C1075 C1074 1.363 . S
C1075 C1081 1.433 . S
H1076 C1072 0.930 . S
H1077 C1074 0.929 . S
S1078 N1079 1.613 . S
S1078 N1080 1.610 . S
N1079 S1078 1.613 . S
N1079 C1082 1.350 . S
N1080 S1078 1.610 . S
N1080 C1081 1.348 1_554 S
C1081 C1075 1.433 . S
C1081 N1080 1.348 1_556 S
C1081 C1082 1.432 1_556 S
C1082 C1073 1.429 . S
C1082 N1079 1.350 . S
C1082 C1081 1.432 1_554 S
C1083 C1084 1.369 . S
C1083 C1085 1.419 . S
C1083 H1087 0.930 . S
C1084 C1083 1.369 . S
C1084 C1093 1.429 . S
C1085 C1083 1.419 . S
C1085 C1086 1.363 . S
C1085 H1088 0.929 . S
C1086 C1085 1.363 . S
C1086 C1092 1.428 . S
H1087 C1083 0.930 . S
H1088 C1085 0.929 . S
S1089 N1090 1.613 1_556 S
S1089 N1091 1.613 . S
N1090 S1089 1.613 1_554 S
N1090 C1093 1.350 . S
N1091 S1089 1.613 . S
N1091 C1092 1.344 1_556 S
C1092 C1086 1.428 . S
C1092 N1091 1.344 1_554 S
C1092 C1093 1.434 . S
C1093 C1084 1.429 . S
C1093 N1090 1.350 . S
C1093 C1092 1.434 . S
C1094 C1095 1.369 . S
C1094 C1096 1.419 . S
C1094 H1098 0.930 . S
C1095 C1094 1.369 . S
C1095 C1104 1.429 . S
C1096 C1094 1.419 . S
C1096 C1097 1.363 . S
C1096 H1099 0.929 . S
C1097 C1096 1.363 . S
C1097 C1103 1.428 . S
H1098 C1094 0.930 . S
H1099 C1096 0.929 . S
S1100 N1101 1.613 . S
S1100 N1102 1.610 . S
N1101 S1100 1.613 . S
N1101 C1104 1.350 . S
N1102 S1100 1.610 . S
N1102 C1103 1.351 . S
C1103 C1097 1.428 . S
C1103 N1102 1.351 . S
C1103 C1104 1.434 . S
C1104 C1095 1.429 . S
C1104 N1101 1.350 . S
C1104 C1103 1.434 . S
C1105 C1106 1.369 . S
C1105 C1107 1.419 . S
C1105 H1109 0.930 . S
C1106 C1105 1.369 . S
C1106 C1115 1.429 . S
C1107 C1105 1.419 . S
C1107 C1108 1.363 . S
C1107 H1110 0.929 . S
C1108 C1107 1.363 . S
C1108 C1114 1.428 . S
H1109 C1105 0.930 . S
H1110 C1107 0.929 . S
S1111 N1112 1.613 . S
S1111 N1113 1.610 . S
N1112 S1111 1.613 . S
N1112 C1115 1.350 . S
N1113 S1111 1.610 . S
N1113 C1114 1.351 . S
C1114 C1108 1.428 . S
C1114 N1113 1.351 . S
C1114 C1115 1.434 . S
C1115 C1106 1.429 . S
C1115 N1112 1.350 . S
C1115 C1114 1.434 . S
C1116 C1117 1.369 . S
C1116 C1118 1.419 . S
C1116 H1120 0.930 . S
C1117 C1116 1.369 . S
C1117 C1126 1.429 . S
C1118 C1116 1.419 . S
C1118 C1119 1.363 . S
C1118 H1121 0.929 . S
C1119 C1118 1.363 . S
C1119 C1125 1.428 . S
H1120 C1116 0.930 . S
H1121 C1118 0.929 . S
S1122 N1123 1.613 . S
S1122 N1124 1.610 . S
N1123 S1122 1.613 . S
N1123 C1126 1.350 . S
N1124 S1122 1.610 . S
N1124 C1125 1.351 . S
C1125 C1119 1.428 . S
C1125 N1124 1.351 . S
C1125 C1126 1.434 . S
C1126 C1117 1.429 . S
C1126 N1123 1.350 . S
C1126 C1125 1.434 . S
C1127 C1128 1.369 . S
C1127 C1129 1.419 . S
C1127 H1131 0.930 . S
C1128 C1127 1.369 . S
C1128 C1137 1.429 . S
C1129 C1127 1.419 . S
C1129 C1130 1.363 . S
C1129 H1132 0.929 1_565 S
C1130 C1129 1.363 . S
C1130 C1136 1.428 . S
H1131 C1127 0.930 . S
H1132 C1129 0.929 1_545 S
S1133 N1134 1.613 . S
S1133 N1135 1.610 . S
N1134 S1133 1.613 . S
N1134 C1137 1.350 . S
N1135 S1133 1.610 . S
N1135 C1136 1.351 . S
C1136 C1130 1.428 . S
C1136 N1135 1.351 . S
C1136 C1137 1.434 . S
C1137 C1128 1.429 . S
C1137 N1134 1.350 . S
C1137 C1136 1.434 . S
C1138 C1139 1.369 . S
C1138 C1140 1.419 . S
C1138 H1142 0.930 . S
C1139 C1138 1.369 . S
C1139 C1148 1.429 . S
C1140 C1138 1.419 . S
C1140 C1141 1.363 . S
C1140 H1143 0.929 . S
C1141 C1140 1.363 . S
C1141 C1147 1.428 . S
H1142 C1138 0.930 . S
H1143 C1140 0.929 . S
S1144 N1145 1.613 . S
S1144 N1146 1.610 . S
N1145 S1144 1.613 . S
N1145 C1148 1.350 . S
N1146 S1144 1.610 . S
N1146 C1147 1.351 . S
C1147 C1141 1.428 . S
C1147 N1146 1.351 . S
C1147 C1148 1.434 . S
C1148 C1139 1.429 . S
C1148 N1145 1.350 . S
C1148 C1147 1.434 . S
C1149 C1150 1.369 . S
C1149 C1151 1.419 . S
C1149 H1153 0.930 . S
C1150 C1149 1.369 . S
C1150 C1159 1.429 . S
C1151 C1149 1.419 . S
C1151 C1152 1.363 . S
C1151 H1154 0.929 . S
C1152 C1151 1.363 . S
C1152 C1158 1.428 . S
H1153 C1149 0.930 . S
H1154 C1151 0.929 . S
S1155 N1156 1.613 . S
S1155 N1157 1.610 . S
N1156 S1155 1.613 . S
N1156 C1159 1.350 . S
N1157 S1155 1.610 . S
N1157 C1158 1.351 . S
C1158 C1152 1.428 . S
C1158 N1157 1.351 . S
C1158 C1159 1.434 . S
C1159 C1150 1.429 . S
C1159 N1156 1.350 . S
C1159 C1158 1.434 . S
C1160 C1161 1.369 . S
C1160 C1162 1.419 . S
C1160 H1164 0.930 . S
C1161 C1160 1.369 . S
C1161 C1170 1.429 . S
C1162 C1160 1.419 . S
C1162 C1163 1.363 . S
C1162 H1165 0.929 . S
C1163 C1162 1.363 . S
C1163 C1169 1.428 . S
H1164 C1160 0.930 . S
H1165 C1162 0.929 . S
S1166 N1167 1.613 . S
S1166 N1168 1.610 . S
N1167 S1166 1.613 . S
N1167 C1170 1.350 . S
N1168 S1166 1.610 . S
N1168 C1169 1.351 . S
C1169 C1163 1.428 . S
C1169 N1168 1.351 . S
C1169 C1170 1.434 . S
C1170 C1161 1.429 . S
C1170 N1167 1.350 . S
C1170 C1169 1.434 . S
C1171 C1172 1.369 . S
C1171 C1173 1.419 . S
C1171 H1175 0.930 . S
C1172 C1171 1.369 . S
C1172 C1181 1.429 . S
C1173 C1171 1.419 . S
C1173 C1174 1.363 . S
C1173 H1176 0.929 . S
C1174 C1173 1.363 . S
C1174 C1180 1.428 . S
H1175 C1171 0.930 . S
H1176 C1173 0.929 . S
S1177 N1178 1.613 . S
S1177 N1179 1.610 . S
N1178 S1177 1.613 . S
N1178 C1181 1.350 . S
N1179 S1177 1.610 . S
N1179 C1180 1.351 . S
C1180 C1174 1.428 . S
C1180 N1179 1.351 . S
C1180 C1181 1.434 . S
C1181 C1172 1.429 . S
C1181 N1178 1.350 . S
C1181 C1180 1.434 . S
C1182 C1183 1.369 . S
C1182 C1184 1.419 . S
C1182 H1186 0.930 . S
C1183 C1182 1.369 . S
C1183 C1192 1.429 1_455 S
C1184 C1182 1.419 . S
C1184 C1185 1.363 . S
C1184 H1187 0.929 . S
C1185 C1184 1.363 . S
C1185 C1191 1.428 1_455 S
H1186 C1182 0.930 . S
H1187 C1184 0.929 . S
S1188 N1189 1.613 . S
S1188 N1190 1.610 . S
N1189 S1188 1.613 . S
N1189 C1192 1.350 . S
N1190 S1188 1.610 . S
N1190 C1191 1.351 . S
C1191 C1185 1.428 1_655 S
C1191 N1190 1.351 . S
C1191 C1192 1.434 . S
C1192 C1183 1.429 1_655 S
C1192 N1189 1.350 . S
C1192 C1191 1.434 . S
C1193 C1194 1.369 . S
C1193 C1195 1.419 . S
C1193 H1197 0.930 . S
C1194 C1193 1.369 . S
C1194 C1203 1.429 . S
C1195 C1193 1.419 . S
C1195 C1196 1.363 . S
C1195 H1198 0.929 . S
C1196 C1195 1.363 . S
C1196 C1202 1.428 . S
H1197 C1193 0.930 . S
H1198 C1195 0.929 . S
S1199 N1200 1.613 . S
S1199 N1201 1.610 . S
N1200 S1199 1.613 . S
N1200 C1203 1.350 . S
N1201 S1199 1.610 . S
N1201 C1202 1.351 . S
C1202 C1196 1.428 . S
C1202 N1201 1.351 . S
C1202 C1203 1.434 . S
C1203 C1194 1.429 . S
C1203 N1200 1.350 . S
C1203 C1202 1.434 . S
C1204 C1205 1.369 . S
C1204 C1206 1.419 . S
C1204 H1208 0.930 . S
C1205 C1204 1.369 . S
C1205 C1214 1.429 . S
C1206 C1204 1.419 . S
C1206 C1207 1.363 . S
C1206 H1209 0.929 . S
C1207 C1206 1.363 . S
C1207 C1213 1.428 . S
H1208 C1204 0.930 . S
H1209 C1206 0.929 . S
S1210 N1211 1.613 . S
S1210 N1212 1.610 . S
N1211 S1210 1.613 . S
N1211 C1214 1.350 . S
N1212 S1210 1.610 . S
N1212 C1213 1.351 . S
C1213 C1207 1.428 . S
C1213 N1212 1.351 . S
C1213 C1214 1.434 . S
C1214 C1205 1.429 . S
C1214 N1211 1.350 . S
C1214 C1213 1.434 . S
C1215 C1216 1.369 . S
C1215 C1217 1.419 . S
C1215 H1219 0.930 . S
C1216 C1215 1.369 . S
C1216 C1225 1.429 . S
C1217 C1215 1.419 . S
C1217 C1218 1.363 . S
C1217 H1220 0.929 . S
C1218 C1217 1.363 . S
C1218 C1224 1.428 . S
H1219 C1215 0.930 . S
H1220 C1217 0.929 . S
S1221 N1222 1.613 . S
S1221 N1223 1.610 . S
N1222 S1221 1.613 . S
N1222 C1225 1.350 . S
N1223 S1221 1.610 . S
N1223 C1224 1.351 . S
C1224 C1218 1.428 . S
C1224 N1223 1.351 . S
C1224 C1225 1.434 . S
C1225 C1216 1.429 . S
C1225 N1222 1.350 . S
C1225 C1224 1.434 . S
C1226 C1227 1.369 . S
C1226 C1228 1.419 . S
C1226 H1230 0.930 . S
C1227 C1226 1.369 . S
C1227 C1236 1.429 1_655 S
C1228 C1226 1.419 . S
C1228 C1229 1.380 . S
C1228 H1231 0.929 . S
C1229 C1228 1.380 . S
C1229 C1235 1.419 1_655 S
H1230 C1226 0.930 . S
H1231 C1228 0.929 . S
S1232 N1233 1.613 . S
S1232 N1234 1.610 . S
N1233 S1232 1.613 . S
N1233 C1236 1.350 . S
N1234 S1232 1.610 . S
N1234 C1235 1.351 . S
C1235 C1229 1.419 1_455 S
C1235 N1234 1.351 . S
C1235 C1236 1.434 . S
C1236 C1227 1.429 1_455 S
C1236 N1233 1.350 . S
C1236 C1235 1.434 . S
C1237 C1238 1.369 . S
C1237 C1239 1.419 . S
C1237 H1241 0.930 . S
C1238 C1237 1.369 . S
C1238 C1247 1.429 . S
C1239 C1237 1.419 . S
C1239 C1240 1.363 . S
C1239 H1242 0.929 . S
C1240 C1239 1.363 . S
C1240 C1246 1.428 . S
H1241 C1237 0.930 . S
H1242 C1239 0.929 . S
S1243 N1244 1.613 . S
S1243 N1245 1.610 . S
N1244 S1243 1.613 . S
N1244 C1247 1.350 . S
N1245 S1243 1.610 . S
N1245 C1246 1.351 . S
C1246 C1240 1.428 . S
C1246 N1245 1.351 . S
C1246 C1247 1.434 . S
C1247 C1238 1.429 . S
C1247 N1244 1.350 . S
C1247 C1246 1.434 . S
C1248 C1249 1.369 . S
C1248 C1250 1.419 . S
C1248 H1252 0.930 . S
C1249 C1248 1.369 . S
C1249 C1258 1.429 . S
C1250 C1248 1.419 . S
C1250 C1251 1.363 . S
C1250 H1253 0.929 . S
C1251 C1250 1.363 . S
C1251 C1257 1.428 . S
H1252 C1248 0.930 . S
H1253 C1250 0.929 . S
S1254 N1255 1.613 . S
S1254 N1256 1.610 . S
N1255 S1254 1.613 . S
N1255 C1258 1.350 . S
N1256 S1254 1.610 . S
N1256 C1257 1.351 . S
C1257 C1251 1.428 . S
C1257 N1256 1.351 . S
C1257 C1258 1.434 . S
C1258 C1249 1.429 . S
C1258 N1255 1.350 . S
C1258 C1257 1.434 . S
C1259 C1260 1.369 . S
C1259 C1261 1.419 . S
C1259 H1263 0.930 . S
C1260 C1259 1.369 . S
C1260 C1269 1.429 . S
C1261 C1259 1.419 . S
C1261 C1262 1.363 . S
C1261 H1264 0.929 . S
C1262 C1261 1.363 . S
C1262 C1268 1.428 . S
H1263 C1259 0.930 . S
H1264 C1261 0.929 . S
S1265 N1266 1.613 . S
S1265 N1267 1.610 . S
N1266 S1265 1.613 . S
N1266 C1269 1.350 . S
N1267 S1265 1.610 . S
N1267 C1268 1.351 . S
C1268 C1262 1.428 . S
C1268 N1267 1.351 . S
C1268 C1269 1.434 . S
C1269 C1260 1.429 . S
C1269 N1266 1.350 . S
C1269 C1268 1.434 . S
C1270 C1271 1.369 . S
C1270 C1272 1.419 . S
C1270 H1274 0.930 . S
C1271 C1270 1.369 . S
C1271 C1280 1.429 . S
C1272 C1270 1.419 . S
C1272 C1273 1.363 . S
C1272 H1275 0.929 . S
C1273 C1272 1.363 . S
C1273 C1279 1.428 . S
H1274 C1270 0.930 . S
H1275 C1272 0.929 . S
S1276 N1277 1.613 . S
S1276 N1278 1.610 . S
N1277 S1276 1.613 . S
N1277 C1280 1.350 . S
N1278 S1276 1.610 . S
N1278 C1279 1.351 . S
C1279 C1273 1.428 . S
C1279 N1278 1.351 . S
C1279 C1280 1.434 . S
C1280 C1271 1.429 . S
C1280 N1277 1.350 . S
C1280 C1279 1.434 . S
C1281 C1282 1.369 . S
C1281 C1283 1.419 . S
C1281 H1285 0.930 . S
C1282 C1281 1.369 . S
C1282 C1291 1.429 . S
C1283 C1281 1.419 . S
C1283 C1284 1.363 . S
C1283 H1286 0.929 . S
C1284 C1283 1.363 . S
C1284 C1290 1.428 . S
H1285 C1281 0.930 . S
H1286 C1283 0.929 . S
S1287 N1288 1.613 . S
S1287 N1289 1.610 . S
N1288 S1287 1.613 . S
N1288 C1291 1.350 . S
N1289 S1287 1.610 . S
N1289 C1290 1.351 . S
C1290 C1284 1.428 . S
C1290 N1289 1.351 . S
C1290 C1291 1.434 . S
C1291 C1282 1.429 . S
C1291 N1288 1.350 . S
C1291 C1290 1.434 . S
C1292 C1293 1.369 . S
C1292 C1294 1.419 . S
C1292 H1296 0.930 . S
C1293 C1292 1.369 . S
C1293 C1302 1.429 . S
C1294 C1292 1.419 . S
C1294 C1295 1.363 . S
C1294 H1297 0.929 . S
C1295 C1294 1.363 . S
C1295 C1301 1.428 . S
H1296 C1292 0.930 . S
H1297 C1294 0.929 . S
S1298 N1299 1.613 . S
S1298 N1300 1.610 . S
N1299 S1298 1.613 . S
N1299 C1302 1.350 . S
N1300 S1298 1.610 . S
N1300 C1301 1.351 . S
C1301 C1295 1.428 . S
C1301 N1300 1.351 . S
C1301 C1302 1.434 . S
C1302 C1293 1.429 . S
C1302 N1299 1.350 . S
C1302 C1301 1.434 . S
C1303 C1304 1.369 . S
C1303 C1305 1.419 . S
C1303 H1307 0.930 . S
C1304 C1303 1.369 . S
C1304 C1313 1.429 . S
C1305 C1303 1.419 . S
C1305 C1306 1.363 . S
C1305 H1308 0.929 . S
C1306 C1305 1.363 . S
C1306 C1312 1.428 . S
H1307 C1303 0.930 . S
H1308 C1305 0.929 . S
S1309 N1310 1.613 . S
S1309 N1311 1.610 . S
N1310 S1309 1.613 . S
N1310 C1313 1.350 . S
N1311 S1309 1.610 . S
N1311 C1312 1.351 . S
C1312 C1306 1.428 . S
C1312 N1311 1.351 . S
C1312 C1313 1.434 . S
C1313 C1304 1.429 . S
C1313 N1310 1.350 . S
C1313 C1312 1.434 . S
C1314 C1315 1.369 . S
C1314 C1316 1.419 . S
C1314 H1318 0.930 . S
C1315 C1314 1.369 . S
C1315 C1324 1.429 . S
C1316 C1314 1.419 . S
C1316 C1317 1.363 . S
C1316 H1319 0.929 . S
C1317 C1316 1.363 . S
C1317 C1323 1.428 . S
H1318 C1314 0.930 . S
H1319 C1316 0.929 . S
S1320 N1321 1.613 . S
S1320 N1322 1.610 . S
N1321 S1320 1.613 . S
N1321 C1324 1.350 . S
N1322 S1320 1.610 . S
N1322 C1323 1.351 . S
C1323 C1317 1.428 . S
C1323 N1322 1.351 . S
C1323 C1324 1.434 . S
C1324 C1315 1.429 . S
C1324 N1321 1.350 . S
C1324 C1323 1.434 . S
C1325 C1326 1.369 . S
C1325 C1327 1.419 . S
C1325 H1329 0.930 . S
C1326 C1325 1.369 . S
C1326 C1335 1.429 . S
C1327 C1325 1.419 . S
C1327 C1328 1.363 . S
C1327 H1330 0.929 . S
C1328 C1327 1.363 . S
C1328 C1334 1.428 . S
H1329 C1325 0.930 . S
H1330 C1327 0.929 . S
S1331 N1332 1.613 . S
S1331 N1333 1.610 . S
N1332 S1331 1.613 . S
N1332 C1335 1.350 . S
N1333 S1331 1.610 . S
N1333 C1334 1.351 . S
C1334 C1328 1.428 . S
C1334 N1333 1.351 . S
C1334 C1335 1.434 . S
C1335 C1326 1.429 . S
C1335 N1332 1.350 . S
C1335 C1334 1.434 . S
C1336 C1337 1.369 . S
C1336 C1338 1.419 . S
C1336 H1340 0.930 . S
C1337 C1336 1.369 . S
C1337 C1346 1.429 . S
C1338 C1336 1.419 . S
C1338 C1339 1.363 . S
C1338 H1341 0.929 . S
C1339 C1338 1.363 . S
C1339 C1345 1.428 . S
H1340 C1336 0.930 . S
H1341 C1338 0.929 . S
S1342 N1343 1.613 . S
S1342 N1344 1.610 . S
N1343 S1342 1.613 . S
N1343 C1346 1.350 . S
N1344 S1342 1.610 . S
N1344 C1345 1.351 . S
C1345 C1339 1.428 . S
C1345 N1344 1.351 . S
C1345 C1346 1.434 . S
C1346 C1337 1.429 . S
C1346 N1343 1.350 . S
C1346 C1345 1.434 . S
C1347 C1348 1.369 . S
C1347 C1349 1.419 . S
C1347 H1351 0.930 . S
C1348 C1347 1.369 . S
C1348 C1357 1.429 . S
C1349 C1347 1.419 . S
C1349 C1350 1.363 . S
C1349 H1352 0.929 . S
C1350 C1349 1.363 . S
C1350 C1356 1.428 . S
H1351 C1347 0.930 . S
H1352 C1349 0.929 . S
S1353 N1354 1.613 . S
S1353 N1355 1.610 . S
N1354 S1353 1.613 . S
N1354 C1357 1.350 . S
N1355 S1353 1.610 . S
N1355 C1356 1.351 . S
C1356 C1350 1.428 . S
C1356 N1355 1.351 . S
C1356 C1357 1.434 . S
C1357 C1348 1.429 . S
C1357 N1354 1.350 . S
C1357 C1356 1.434 . S
C1358 C1359 1.369 . S
C1358 C1360 1.419 . S
C1358 H1362 0.930 . S
C1359 C1358 1.369 . S
C1359 C1368 1.429 . S
C1360 C1358 1.419 . S
C1360 C1361 1.363 . S
C1360 H1363 0.929 . S
C1361 C1360 1.363 . S
C1361 C1367 1.428 . S
H1362 C1358 0.930 . S
H1363 C1360 0.929 . S
S1364 N1365 1.613 . S
S1364 N1366 1.610 . S
N1365 S1364 1.613 . S
N1365 C1368 1.350 . S
N1366 S1364 1.610 . S
N1366 C1367 1.351 . S
C1367 C1361 1.428 . S
C1367 N1366 1.351 . S
C1367 C1368 1.434 . S
C1368 C1359 1.429 . S
C1368 N1365 1.350 . S
C1368 C1367 1.434 . S
C1369 C1370 1.369 . S
C1369 C1371 1.419 . S
C1369 H1373 0.930 . S
C1370 C1369 1.369 . S
C1370 C1379 1.429 . S
C1371 C1369 1.419 . S
C1371 C1372 1.363 . S
C1371 H1374 0.929 . S
C1372 C1371 1.363 . S
C1372 C1378 1.428 1_565 S
H1373 C1369 0.930 . S
H1374 C1371 0.929 . S
S1375 N1376 1.613 . S
S1375 N1377 1.610 . S
N1376 S1375 1.613 . S
N1376 C1379 1.350 1_545 S
N1377 S1375 1.610 . S
N1377 C1378 1.351 . S
C1378 C1372 1.428 1_545 S
C1378 N1377 1.351 . S
C1378 C1379 1.434 1_545 S
C1379 C1370 1.429 . S
C1379 N1376 1.350 1_565 S
C1379 C1378 1.434 1_565 S
C1380 C1381 1.369 . S
C1380 C1382 1.419 . S
C1380 H1384 0.930 . S
C1381 C1380 1.369 . S
C1381 C1390 1.429 . S
C1382 C1380 1.419 . S
C1382 C1383 1.363 . S
C1382 H1385 0.929 . S
C1383 C1382 1.363 . S
C1383 C1389 1.428 . S
H1384 C1380 0.930 . S
H1385 C1382 0.929 . S
S1386 N1387 1.613 . S
S1386 N1388 1.610 . S
N1387 S1386 1.613 . S
N1387 C1390 1.350 . S
N1388 S1386 1.610 . S
N1388 C1389 1.351 . S
C1389 C1383 1.428 . S
C1389 N1388 1.351 . S
C1389 C1390 1.434 . S
C1390 C1381 1.429 . S
C1390 N1387 1.350 . S
C1390 C1389 1.434 . S
C1391 C1392 1.370 . S
C1391 C1393 1.424 . S
C1391 H1395 0.923 1_554 S
C1392 C1391 1.370 . S
C1392 C1401 1.429 . S
C1393 C1391 1.424 . S
C1393 C1394 1.363 . S
C1393 H1396 0.929 . S
C1394 C1393 1.363 . S
C1394 C1400 1.428 . S
H1395 C1391 0.923 1_556 S
H1396 C1393 0.929 . S
S1397 N1398 1.613 . S
S1397 N1399 1.610 . S
N1398 S1397 1.613 . S
N1398 C1401 1.350 . S
N1399 S1397 1.610 . S
N1399 C1400 1.351 . S
C1400 C1394 1.428 . S
C1400 N1399 1.351 . S
C1400 C1401 1.434 . S
C1401 C1392 1.429 . S
C1401 N1398 1.350 . S
C1401 C1400 1.434 . S
C1402 C1403 1.369 . S
C1402 C1404 1.419 . S
C1402 H1406 0.930 . S
C1403 C1402 1.369 . S
C1403 C1412 1.429 . S
C1404 C1402 1.419 . S
C1404 C1405 1.363 . S
C1404 H1407 0.929 . S
C1405 C1404 1.363 . S
C1405 C1411 1.428 . S
H1406 C1402 0.930 . S
H1407 C1404 0.929 . S
S1408 N1409 1.613 . S
S1408 N1410 1.610 . S
N1409 S1408 1.613 . S
N1409 C1412 1.350 . S
N1410 S1408 1.610 . S
N1410 C1411 1.351 . S
C1411 C1405 1.428 . S
C1411 N1410 1.351 . S
C1411 C1412 1.434 . S
C1412 C1403 1.429 . S
C1412 N1409 1.350 . S
C1412 C1411 1.434 . S
C1413 C1414 1.369 . S
C1413 C1415 1.419 . S
C1413 H1417 0.930 . S
C1414 C1413 1.369 . S
C1414 C1423 1.429 . S
C1415 C1413 1.419 . S
C1415 C1416 1.363 . S
C1415 H1418 0.929 . S
C1416 C1415 1.363 . S
C1416 C1422 1.428 . S
H1417 C1413 0.930 . S
H1418 C1415 0.929 . S
S1419 N1420 1.613 . S
S1419 N1421 1.610 . S
N1420 S1419 1.613 . S
N1420 C1423 1.350 . S
N1421 S1419 1.610 . S
N1421 C1422 1.351 . S
C1422 C1416 1.428 . S
C1422 N1421 1.351 . S
C1422 C1423 1.434 . S
C1423 C1414 1.429 . S
C1423 N1420 1.350 . S
C1423 C1422 1.434 . S
C1424 C1425 1.369 . S
C1424 C1426 1.419 . S
C1424 H1428 0.930 . S
C1425 C1424 1.369 . S
C1425 C1434 1.429 . S
C1426 C1424 1.419 . S
C1426 C1427 1.363 . S
C1426 H1429 0.929 . S
C1427 C1426 1.363 . S
C1427 C1433 1.428 . S
H1428 C1424 0.930 . S
H1429 C1426 0.929 . S
S1430 N1431 1.613 . S
S1430 N1432 1.610 . S
N1431 S1430 1.613 . S
N1431 C1434 1.350 . S
N1432 S1430 1.610 . S
N1432 C1433 1.351 . S
C1433 C1427 1.428 . S
C1433 N1432 1.351 . S
C1433 C1434 1.434 . S
C1434 C1425 1.429 . S
C1434 N1431 1.350 . S
C1434 C1433 1.434 . S
C1435 C1436 1.369 . S
C1435 C1437 1.419 . S
C1435 H1439 0.930 . S
C1436 C1435 1.369 . S
C1436 C1445 1.429 . S
C1437 C1435 1.419 . S
C1437 C1438 1.363 . S
C1437 H1440 0.929 . S
C1438 C1437 1.363 . S
C1438 C1444 1.428 . S
H1439 C1435 0.930 . S
H1440 C1437 0.929 . S
S1441 N1442 1.613 . S
S1441 N1443 1.610 . S
N1442 S1441 1.613 . S
N1442 C1445 1.350 . S
N1443 S1441 1.610 . S
N1443 C1444 1.351 . S
C1444 C1438 1.428 . S
C1444 N1443 1.351 . S
C1444 C1445 1.434 . S
C1445 C1436 1.429 . S
C1445 N1442 1.350 . S
C1445 C1444 1.434 . S
C1446 C1447 1.369 1_655 S
C1446 C1448 1.419 . S
C1446 H1450 0.930 . S
C1447 C1446 1.369 1_455 S
C1447 C1456 1.429 . S
C1448 C1446 1.419 . S
C1448 C1449 1.363 1_655 S
C1448 H1451 0.929 . S
C1449 C1448 1.363 1_455 S
C1449 C1455 1.428 . S
H1450 C1446 0.930 . S
H1451 C1448 0.929 . S
S1452 N1453 1.613 . S
S1452 N1454 1.610 . S
N1453 S1452 1.613 . S
N1453 C1456 1.350 . S
N1454 S1452 1.610 . S
N1454 C1455 1.351 . S
C1455 C1449 1.428 . S
C1455 N1454 1.351 . S
C1455 C1456 1.434 . S
C1456 C1447 1.429 . S
C1456 N1453 1.350 . S
C1456 C1455 1.434 . S
C1457 C1458 1.369 . S
C1457 C1459 1.419 . S
C1457 H1461 0.930 . S
C1458 C1457 1.369 . S
C1458 C1467 1.429 . S
C1459 C1457 1.419 . S
C1459 C1460 1.363 . S
C1459 H1462 0.929 . S
C1460 C1459 1.363 . S
C1460 C1466 1.428 . S
H1461 C1457 0.930 . S
H1462 C1459 0.929 . S
S1463 N1464 1.613 . S
S1463 N1465 1.610 . S
N1464 S1463 1.613 . S
N1464 C1467 1.350 . S
N1465 S1463 1.610 . S
N1465 C1466 1.351 . S
C1466 C1460 1.428 . S
C1466 N1465 1.351 . S
C1466 C1467 1.434 . S
C1467 C1458 1.429 . S
C1467 N1464 1.350 . S
C1467 C1466 1.434 . S
C1468 C1469 1.369 . S
C1468 C1470 1.419 . S
C1468 H1472 0.930 . S
C1469 C1468 1.369 . S
C1469 C1478 1.429 . S
C1470 C1468 1.419 . S
C1470 C1471 1.363 . S
C1470 H1473 0.929 1_556 S
C1471 C1470 1.363 . S
C1471 C1477 1.428 . S
H1472 C1468 0.930 . S
H1473 C1470 0.929 1_554 S
S1474 N1475 1.613 . S
S1474 N1476 1.610 . S
N1475 S1474 1.613 . S
N1475 C1478 1.350 . S
N1476 S1474 1.610 . S
N1476 C1477 1.351 . S
C1477 C1471 1.428 . S
C1477 N1476 1.351 . S
C1477 C1478 1.434 . S
C1478 C1469 1.429 . S
C1478 N1475 1.350 . S
C1478 C1477 1.434 . S
C1479 C1480 1.369 . S
C1479 C1481 1.419 . S
C1479 H1483 0.930 . S
C1480 C1479 1.369 . S
C1480 C1489 1.429 . S
C1481 C1479 1.419 . S
C1481 C1482 1.363 . S
C1481 H1484 0.929 . S
C1482 C1481 1.363 . S
C1482 C1488 1.428 . S
H1483 C1479 0.930 . S
H1484 C1481 0.929 . S
S1485 N1486 1.613 . S
S1485 N1487 1.610 . S
N1486 S1485 1.613 . S
N1486 C1489 1.350 . S
N1487 S1485 1.610 . S
N1487 C1488 1.351 . S
C1488 C1482 1.428 . S
C1488 N1487 1.351 . S
C1488 C1489 1.434 . S
C1489 C1480 1.429 . S
C1489 N1486 1.350 . S
C1489 C1488 1.434 . S
C1490 C1491 1.369 . S
C1490 C1492 1.419 . S
C1490 H1494 0.930 1_455 S
C1491 C1490 1.369 . S
C1491 C1500 1.429 . S
C1492 C1490 1.419 . S
C1492 C1493 1.363 . S
C1492 H1495 0.929 1_455 S
C1493 C1492 1.363 . S
C1493 C1499 1.428 . S
H1494 C1490 0.930 1_655 S
H1495 C1492 0.929 1_655 S
S1496 N1497 1.613 . S
S1496 N1498 1.610 . S
N1497 S1496 1.613 . S
N1497 C1500 1.350 . S
N1498 S1496 1.610 . S
N1498 C1499 1.351 . S
C1499 C1493 1.428 . S
C1499 N1498 1.351 . S
C1499 C1500 1.434 . S
C1500 C1491 1.429 . S
C1500 N1497 1.350 . S
C1500 C1499 1.434 . S
C1501 C1502 1.369 . S
C1501 C1503 1.419 . S
C1501 H1505 0.930 . S
C1502 C1501 1.369 . S
C1502 C1511 1.429 . S
C1503 C1501 1.419 . S
C1503 C1504 1.363 . S
C1503 H1506 0.929 . S
C1504 C1503 1.363 . S
C1504 C1510 1.428 . S
H1505 C1501 0.930 . S
H1506 C1503 0.929 . S
S1507 N1508 1.613 . S
S1507 N1509 1.610 . S
N1508 S1507 1.613 . S
N1508 C1511 1.350 . S
N1509 S1507 1.610 . S
N1509 C1510 1.351 . S
C1510 C1504 1.428 . S
C1510 N1509 1.351 . S
C1510 C1511 1.434 . S
C1511 C1502 1.429 . S
C1511 N1508 1.350 . S
C1511 C1510 1.434 . S
C1512 C1513 1.369 . S
C1512 C1514 1.419 . S
C1512 H1516 0.930 . S
C1513 C1512 1.369 . S
C1513 C1522 1.429 . S
C1514 C1512 1.419 . S
C1514 C1515 1.363 . S
C1514 H1517 0.929 . S
C1515 C1514 1.363 . S
C1515 C1521 1.428 . S
H1516 C1512 0.930 . S
H1517 C1514 0.929 . S
S1518 N1519 1.613 . S
S1518 N1520 1.610 . S
N1519 S1518 1.613 . S
N1519 C1522 1.350 . S
N1520 S1518 1.610 . S
N1520 C1521 1.351 . S
C1521 C1515 1.428 . S
C1521 N1520 1.351 . S
C1521 C1522 1.434 . S
C1522 C1513 1.429 . S
C1522 N1519 1.350 . S
C1522 C1521 1.434 . S
C1523 C1524 1.369 . S
C1523 C1525 1.419 . S
C1523 H1527 0.930 . S
C1524 C1523 1.369 . S
C1524 C1533 1.429 . S
C1525 C1523 1.419 . S
C1525 C1526 1.363 . S
C1525 H1528 0.929 . S
C1526 C1525 1.363 . S
C1526 C1532 1.428 . S
H1527 C1523 0.930 . S
H1528 C1525 0.929 . S
S1529 N1530 1.613 . S
S1529 N1531 1.610 . S
N1530 S1529 1.613 . S
N1530 C1533 1.350 . S
N1531 S1529 1.610 . S
N1531 C1532 1.351 . S
C1532 C1526 1.428 . S
C1532 N1531 1.351 . S
C1532 C1533 1.434 . S
C1533 C1524 1.429 . S
C1533 N1530 1.350 . S
C1533 C1532 1.434 . S
C1534 C1535 1.369 . S
C1534 C1536 1.419 . S
C1534 H1538 0.930 . S
C1535 C1534 1.369 . S
C1535 C1544 1.429 . S
C1536 C1534 1.419 . S
C1536 C1537 1.363 . S
C1536 H1539 0.929 . S
C1537 C1536 1.363 . S
C1537 C1543 1.428 . S
H1538 C1534 0.930 . S
H1539 C1536 0.929 . S
S1540 N1541 1.613 . S
S1540 N1542 1.610 1_655 S
N1541 S1540 1.613 . S
N1541 C1544 1.350 . S
N1542 S1540 1.610 1_455 S
N1542 C1543 1.351 1_455 S
C1543 C1537 1.428 . S
C1543 N1542 1.351 1_655 S
C1543 C1544 1.434 . S
C1544 C1535 1.429 . S
C1544 N1541 1.350 . S
C1544 C1543 1.434 . S
C1545 C1546 1.369 . S
C1545 C1547 1.419 . S
C1545 H1549 0.930 . S
C1546 C1545 1.369 . S
C1546 C1555 1.429 . S
C1547 C1545 1.419 . S
C1547 C1548 1.363 . S
C1547 H1550 0.929 . S
C1548 C1547 1.363 . S
C1548 C1554 1.428 . S
H1549 C1545 0.930 . S
H1550 C1547 0.929 . S
S1551 N1552 1.613 . S
S1551 N1553 1.610 . S
N1552 S1551 1.613 . S
N1552 C1555 1.350 . S
N1553 S1551 1.610 . S
N1553 C1554 1.351 . S
C1554 C1548 1.428 . S
C1554 N1553 1.351 . S
C1554 C1555 1.434 . S
C1555 C1546 1.429 . S
C1555 N1552 1.350 . S
C1555 C1554 1.434 . S
C1556 C1557 1.369 . S
C1556 C1558 1.419 . S
C1556 H1560 0.930 . S
C1557 C1556 1.369 . S
C1557 C1566 1.429 . S
C1558 C1556 1.419 . S
C1558 C1559 1.363 . S
C1558 H1561 0.929 . S
C1559 C1558 1.363 . S
C1559 C1565 1.428 . S
H1560 C1556 0.930 . S
H1561 C1558 0.929 . S
S1562 N1563 1.613 . S
S1562 N1564 1.610 . S
N1563 S1562 1.613 . S
N1563 C1566 1.350 . S
N1564 S1562 1.610 . S
N1564 C1565 1.351 . S
C1565 C1559 1.428 . S
C1565 N1564 1.351 . S
C1565 C1566 1.434 . S
C1566 C1557 1.429 . S
C1566 N1563 1.350 . S
C1566 C1565 1.434 . S
C1567 C1568 1.369 . S
C1567 C1569 1.419 . S
C1567 H1571 0.930 . S
C1568 C1567 1.369 . S
C1568 C1577 1.429 . S
C1569 C1567 1.419 . S
C1569 C1570 1.363 . S
C1569 H1572 0.929 . S
C1570 C1569 1.363 . S
C1570 C1576 1.428 . S
H1571 C1567 0.930 . S
H1572 C1569 0.929 . S
S1573 N1574 1.613 . S
S1573 N1575 1.610 . S
N1574 S1573 1.613 . S
N1574 C1577 1.350 . S
N1575 S1573 1.610 . S
N1575 C1576 1.351 . S
C1576 C1570 1.428 . S
C1576 N1575 1.351 . S
C1576 C1577 1.434 . S
C1577 C1568 1.429 . S
C1577 N1574 1.350 . S
C1577 C1576 1.434 . S
C1578 C1579 1.369 . S
C1578 C1580 1.419 . S
C1578 H1582 0.930 . S
C1579 C1578 1.369 . S
C1579 C1588 1.429 . S
C1580 C1578 1.419 . S
C1580 C1581 1.363 . S
C1580 H1583 0.929 1_655 S
C1581 C1580 1.363 . S
C1581 C1587 1.428 . S
H1582 C1578 0.930 . S
H1583 C1580 0.929 1_455 S
S1584 N1585 1.613 . S
S1584 N1586 1.610 . S
N1585 S1584 1.613 . S
N1585 C1588 1.350 . S
N1586 S1584 1.610 . S
N1586 C1587 1.351 . S
C1587 C1581 1.428 . S
C1587 N1586 1.351 . S
C1587 C1588 1.434 . S
C1588 C1579 1.429 . S
C1588 N1585 1.350 . S
C1588 C1587 1.434 . S
C1589 C1590 1.369 . S
C1589 C1591 1.419 . S
C1589 H1593 0.930 . S
C1590 C1589 1.369 . S
C1590 C1599 1.429 . S
C1591 C1589 1.419 . S
C1591 C1592 1.363 . S
C1591 H1594 0.929 . S
C1592 C1591 1.363 . S
C1592 C1598 1.428 . S
H1593 C1589 0.930 . S
H1594 C1591 0.929 . S
S1595 N1596 1.613 . S
S1595 N1597 1.610 . S
N1596 S1595 1.613 . S
N1596 C1599 1.350 . S
N1597 S1595 1.610 . S
N1597 C1598 1.351 . S
C1598 C1592 1.428 . S
C1598 N1597 1.351 . S
C1598 C1599 1.434 . S
C1599 C1590 1.429 . S
C1599 N1596 1.350 . S
C1599 C1598 1.434 . S
C1600 C1601 1.369 . S
C1600 C1602 1.419 . S
C1600 H1604 0.930 . S
C1601 C1600 1.369 . S
C1601 C1610 1.429 . S
C1602 C1600 1.419 . S
C1602 C1603 1.363 . S
C1602 H1605 0.929 . S
C1603 C1602 1.363 . S
C1603 C1609 1.428 . S
H1604 C1600 0.930 . S
H1605 C1602 0.929 . S
S1606 N1607 1.613 . S
S1606 N1608 1.610 . S
N1607 S1606 1.613 . S
N1607 C1610 1.350 . S
N1608 S1606 1.610 . S
N1608 C1609 1.351 . S
C1609 C1603 1.428 . S
C1609 N1608 1.351 . S
C1609 C1610 1.434 . S
C1610 C1601 1.429 . S
C1610 N1607 1.350 . S
C1610 C1609 1.434 . S
C1611 C1612 1.369 . S
C1611 C1613 1.419 . S
C1611 H1615 0.930 . S
C1612 C1611 1.369 . S
C1612 C1621 1.429 . S
C1613 C1611 1.419 . S
C1613 C1614 1.363 . S
C1613 H1616 0.929 1_565 S
C1614 C1613 1.363 . S
C1614 C1620 1.428 . S
H1615 C1611 0.930 . S
H1616 C1613 0.929 1_545 S
S1617 N1618 1.613 . S
S1617 N1619 1.610 . S
N1618 S1617 1.613 . S
N1618 C1621 1.350 . S
N1619 S1617 1.610 . S
N1619 C1620 1.351 . S
C1620 C1614 1.428 . S
C1620 N1619 1.351 . S
C1620 C1621 1.434 . S
C1621 C1612 1.429 . S
C1621 N1618 1.350 . S
C1621 C1620 1.434 . S
C1622 C1623 1.369 . S
C1622 C1624 1.419 . S
C1622 H1626 0.930 . S
C1623 C1622 1.369 . S
C1623 C1632 1.429 . S
C1624 C1622 1.419 . S
C1624 C1625 1.363 . S
C1624 H1627 0.929 . S
C1625 C1624 1.363 . S
C1625 C1631 1.428 . S
H1626 C1622 0.930 . S
H1627 C1624 0.929 . S
S1628 N1629 1.613 . S
S1628 N1630 1.610 . S
N1629 S1628 1.613 . S
N1629 C1632 1.350 . S
N1630 S1628 1.610 . S
N1630 C1631 1.351 . S
C1631 C1625 1.428 . S
C1631 N1630 1.351 . S
C1631 C1632 1.434 . S
C1632 C1623 1.429 . S
C1632 N1629 1.350 . S
C1632 C1631 1.434 . S
C1633 C1634 1.385 . S
C1633 C1635 1.419 . S
C1633 H1637 0.930 . S
C1634 C1633 1.385 . S
C1634 C1643 1.423 1_554 S
C1635 C1633 1.419 . S
C1635 C1636 1.363 . S
C1635 H1638 0.929 . S
C1636 C1635 1.363 . S
C1636 C1642 1.428 1_554 S
H1637 C1633 0.930 . S
H1638 C1635 0.929 . S
S1639 N1640 1.613 . S
S1639 N1641 1.610 . S
N1640 S1639 1.613 . S
N1640 C1643 1.350 . S
N1641 S1639 1.610 . S
N1641 C1642 1.351 . S
C1642 C1636 1.428 1_556 S
C1642 N1641 1.351 . S
C1642 C1643 1.434 . S
C1643 C1634 1.423 1_556 S
C1643 N1640 1.350 . S
C1643 C1642 1.434 . S
C1644 C1645 1.369 . S
C1644 C1646 1.419 . S
C1644 H1648 0.930 . S
C1645 C1644 1.369 . S
C1645 C1654 1.429 . S
C1646 C1644 1.419 . S
C1646 C1647 1.363 . S
C1646 H1649 0.929 . S
C1647 C1646 1.363 . S
C1647 C1653 1.428 . S
H1648 C1644 0.930 . S
H1649 C1646 0.929 . S
S1650 N1651 1.613 . S
S1650 N1652 1.610 . S
N1651 S1650 1.613 . S
N1651 C1654 1.350 . S
N1652 S1650 1.610 . S
N1652 C1653 1.351 . S
C1653 C1647 1.428 . S
C1653 N1652 1.351 . S
C1653 C1654 1.434 . S
C1654 C1645 1.429 . S
C1654 N1651 1.350 . S
C1654 C1653 1.434 . S
C1655 C1656 1.369 . S
C1655 C1657 1.419 . S
C1655 H1659 0.930 . S
C1656 C1655 1.369 . S
C1656 C1665 1.429 . S
C1657 C1655 1.419 . S
C1657 C1658 1.363 1_554 S
C1657 H1660 0.929 . S
C1658 C1657 1.363 1_556 S
C1658 C1664 1.428 . S
H1659 C1655 0.930 . S
H1660 C1657 0.929 . S
S1661 N1662 1.613 1_556 S
S1661 N1663 1.610 . S
N1662 S1661 1.613 1_554 S
N1662 C1665 1.350 . S
N1663 S1661 1.610 . S
N1663 C1664 1.351 . S
C1664 C1658 1.428 . S
C1664 N1663 1.351 . S
C1664 C1665 1.434 1_556 S
C1665 C1656 1.429 . S
C1665 N1662 1.350 . S
C1665 C1664 1.434 1_554 S
C1666 C1667 1.369 . S
C1666 C1668 1.419 . S
C1666 H1670 0.930 . S
C1667 C1666 1.369 . S
C1667 C1676 1.429 . S
C1668 C1666 1.419 . S
C1668 C1669 1.363 . S
C1668 H1671 0.929 . S
C1669 C1668 1.363 . S
C1669 C1675 1.428 . S
H1670 C1666 0.930 . S
H1671 C1668 0.929 . S
S1672 N1673 1.613 . S
S1672 N1674 1.610 . S
N1673 S1672 1.613 . S
N1673 C1676 1.350 . S
N1674 S1672 1.610 . S
N1674 C1675 1.351 . S
C1675 C1669 1.428 . S
C1675 N1674 1.351 . S
C1675 C1676 1.434 . S
C1676 C1667 1.429 . S
C1676 N1673 1.350 . S
C1676 C1675 1.434 . S
C1677 C1678 1.369 . S
C1677 C1679 1.419 . S
C1677 H1681 0.930 . S
C1678 C1677 1.369 . S
C1678 C1687 1.429 . S
C1679 C1677 1.419 . S
C1679 C1680 1.363 . S
C1679 H1682 0.929 . S
C1680 C1679 1.363 . S
C1680 C1686 1.428 . S
H1681 C1677 0.930 . S
H1682 C1679 0.929 . S
S1683 N1684 1.613 . S
S1683 N1685 1.610 . S
N1684 S1683 1.613 . S
N1684 C1687 1.350 . S
N1685 S1683 1.610 . S
N1685 C1686 1.351 . S
C1686 C1680 1.428 . S
C1686 N1685 1.351 . S
C1686 C1687 1.434 . S
C1687 C1678 1.429 . S
C1687 N1684 1.350 . S
C1687 C1686 1.434 . S
C633 C101 1.313 . S
C635 C328 1.286 . S
C644 C57 1.394 . S
C646 C341 1.418 . S
C655 C73 1.426 . S
C657 C360 1.470 . S
C668 C391 1.812 . S
C666 C78 1.844 . S
C677 C21 1.704 . S
C679 C411 1.693 . S
C690 C428 1.032 . S
C688 C31 1.031 . S
C701 C441 1.492 . S
C699 C49 1.500 . S
C710 C0 1.096 . S
C712 C468 1.072 . S
C723 C321 1.299 . S
C721 C218 1.307 . S
C732 C229 1.487 . S
C734 C351 1.526 . S
C745 C353 1.692 . S
C743 C257 1.742 . S
C756 C388 1.010 . S
C754 C164 0.975 . S
C765 C216 1.175 . S
C767 C408 1.243 . S
C778 C421 1.754 . S
C776 C231 1.749 . S
C789 C451 1.391 . S
C787 C255 1.354 . S
C800 C461 1.233 . S
C798 C166 1.275 . S
C811 C331 1.598 1_565 S
C809 C143 1.593 . S
C820 C265 1.664 . S
C822 C481 1.710 . S
C833 C511 1.588 . S
C831 C299 1.533 . S
C844 C528 1.297 . S
C842 C291 1.291 . S
C853 C104 1.784 . S
C855 C471 1.780 . S
C864 C117 1.242 . S
C866 C358 1.250 . S
C875 C304 1.691 . S
C877 C541 1.750 . S
C888 C568 1.107 . S
C886 C278 1.144 . S
C899 C318 1.285 . S
C897 C60 1.306 . S
C910 C553 1.371 . S
C908 C96 1.360 . S
C919 C88 1.428 . S
C921 C371 1.417 . S
C930 C65 1.754 . S
C932 C540 1.762 . S
C943 C400 1.639 . S
C941 C10 1.687 . S
C952 C44 0.989 . S
C954 C498 1.000 . S
C965 C433 1.466 1_556 S
C963 C34 1.405 . S
C976 C578 1.080 . S
C974 C13 1.117 . S
C987 C313 1.259 1_565 S
C985 C138 1.258 1_565 S
C998 C560 1.466 . S
C996 C296 1.494 . S
C1007 C112 1.605 . S
C1009 C361 1.650 . S
C1018 C270 0.947 . S
C1020 C538 0.938 . S
C1029 C140 1.176 . S
C1031 C398 1.171 . S
C1042 C493 1.721 . S
C1040 C294 1.622 . S
C1051 C114 1.379 . S
C1053 C440 1.339 . S
C1062 C268 1.227 . S
C1064 C573 1.199 . S
C1073 C169 1.580 . S
C1075 C320 1.568 . S
C1084 C161 1.648 . S
C1086 C473 1.673 . S
C1095 C234 1.577 . S
C1097 C420 1.548 . S
C1106 C226 1.216 . S
C1108 C518 1.235 . S
C1119 C580 1.772 . S
C1117 C247 1.750 . S
C1128 C195 1.315 . S
C1130 C368 1.221 . S
C1141 C373 1.706 . S
C1139 C239 1.686 . S
C1152 C338 1.064 . S
C1150 C187 1.097 . S
C1161 C75 1.318 . S
C1163 C608 1.282 . S
C1174 C561 1.421 . S
C1172 C83 1.402 . S
C1183 C99 1.415 . S
C1185 C620 1.466 . S
C1194 C52 1.841 . S
C1196 C551 1.812 . S
C1205 C47 1.704 . S
C1207 C491 1.698 . S
C1218 C508 1.031 . S
C1216 C5 1.028 . S
C1229 C521 1.483 1_655 S
C1227 C23 1.500 . S
C1240 C588 1.076 . S
C1238 C26 1.092 . S
C1251 C601 1.296 . S
C1249 C244 1.306 . S
C1260 C177 1.476 . S
C1262 C571 1.530 . S
C1273 C613 1.698 . S
C1271 C192 1.738 . S
C1284 C548 1.009 . S
C1282 C203 0.969 . S
C1295 C488 1.241 . S
C1293 C242 1.170 . S
C1304 C179 1.749 . S
C1306 C501 1.754 . S
C1317 C531 1.389 . S
C1315 C190 1.365 . S
C1326 C205 1.275 . S
C1328 C581 1.228 . S
C1339 C611 1.595 . S
C1337 C286 1.592 . S
C1348 C122 1.667 . S
C1350 C401 1.714 . S
C1361 C431 1.589 . S
C1359 C130 1.532 . S
C1372 C448 1.302 . S
C1370 C148 1.291 . S
C1383 C591 1.781 . S
C1381 C273 1.783 . S
C1392 C260 1.243 . S
C1394 C618 1.251 . S
C1405 C381 1.748 . S
C1403 C135 1.690 . S
C1416 C348 1.104 . S
C1414 C109 1.143 . S
C1425 C86 1.308 . S
C1427 C598 1.276 . S
C1438 C333 1.375 . S
C1436 C70 1.356 . S
C1447 C62 1.424 . S
C1449 C631 1.413 . S
C1458 C91 1.754 . S
C1460 C380 1.766 . S
C1469 C36 1.686 . S
C1471 C480 1.637 1_556 S
C1482 C418 1.002 . S
C1480 C18 0.993 . S
C1491 C8 1.414 . S
C1493 C513 1.467 . S
C1502 C39 1.122 . S
C1504 C458 1.069 . S
C1515 C593 1.266 . S
C1513 C307 1.257 . S
C1524 C153 1.490 . S
C1526 C340 1.461 . S
C1537 C621 1.644 1_655 S
C1535 C281 1.604 . S
C1546 C127 0.946 . S
C1548 C378 0.940 . S
C1557 C309 1.171 . S
C1559 C478 1.171 . S
C1570 C413 1.721 . S
C1568 C151 1.622 . S
C1579 C283 1.376 . S
C1581 C520 1.345 . S
C1592 C453 1.198 . S
C1590 C125 1.226 . S
C1603 C600 1.571 . S
C1601 C221 1.583 . S
C1614 C393 1.675 1_565 S
C1612 C200 1.650 . S
C1623 C208 1.577 . S
C1625 C500 1.551 . S
C1636 C438 1.236 . S
C1634 C174 1.216 . S
C1645 C182 1.748 . S
C1647 C460 1.769 . S
C1656 C156 1.317 . S
C1658 C628 1.218 . S
C1669 C533 1.707 . S
C1667 C213 1.683 . S
C1680 C558 1.071 . S
C1678 C252 1.100 . S
