# Generated by pormake.
# Topology pth, (4,4)-cn, num edge types: 1
# Building blocks:
#     Node 0, Type 0, BuildingBlock: TATPOV_clean_sbu_0, # of connection points: 4
#     Node 1, Type 0, BuildingBlock: TATPOV_clean_sbu_0, # of connection points: 4
#     Node 2, Type 0, BuildingBlock: TATPOV_clean_sbu_0, # of connection points: 4
#     Node 3, Type 1, BuildingBlock: MUDLON_clean_sbu_0, # of connection points: 4
#     Node 4, Type 1, BuildingBlock: MUDLON_clean_sbu_0, # of connection points: 4
#     Node 5, Type 1, BuildingBlock: MUDLON_clean_sbu_0, # of connection points: 4
#     Edge 6, Type (0, 1), BuildingBlock: XIVTED_clean_linker_0, # of connection points: 2
#     Edge 7, Type (0, 1), BuildingBlock: XIVTED_clean_linker_0, # of connection points: 2
#     Edge 8, Type (0, 1), BuildingBlock: XIVTED_clean_linker_0, # of connection points: 2
#     Edge 9, Type (0, 1), BuildingBlock: XIVTED_clean_linker_0, # of connection points: 2
#     Edge 10, Type (0, 1), BuildingBlock: XIVTED_clean_linker_0, # of connection points: 2
#     Edge 11, Type (0, 1), BuildingBlock: XIVTED_clean_linker_0, # of connection points: 2
#     Edge 12, Type (0, 1), BuildingBlock: XIVTED_clean_linker_0, # of connection points: 2
#     Edge 13, Type (0, 1), BuildingBlock: XIVTED_clean_linker_0, # of connection points: 2
#     Edge 14, Type (0, 1), BuildingBlock: XIVTED_clean_linker_0, # of connection points: 2
#     Edge 15, Type (0, 1), BuildingBlock: XIVTED_clean_linker_0, # of connection points: 2
#     Edge 16, Type (0, 1), BuildingBlock: XIVTED_clean_linker_0, # of connection points: 2
#     Edge 17, Type (0, 1), BuildingBlock: XIVTED_clean_linker_0, # of connection points: 2
# Relax obj value: 0.072
# Max RMSD: 0.185
# Mean RMSD: 0.119
data_MOF--net-pth--node1-TATPOV_clean_sbu_0--node2-MUDLON_clean_sbu_0--edge1-XIVTED_clean_linker_0
_symmetry_space_group_name_H-M    P1
_symmetry_Int_Tables_number       1
_symmetry_cell_setting            triclinic
loop_
_symmetry_equiv_pos_as_xyz
'x, y, z'
_cell_length_a     23.206236
_cell_length_b     22.937114
_cell_length_c     60.414569
_cell_angle_alpha  92.818325
_cell_angle_beta   91.95487
_cell_angle_gamma 121.2474
loop_
_atom_site_label
_atom_site_type_symbol
_atom_site_fract_x
_atom_site_fract_y
_atom_site_fract_z
_atom_type_partial_charge
Zn0 Zn 0.1451 0.01294 0.04728 0.0
Zn1 Zn 0.12901 0.10302 0.0706 0.0
O2 O 0.14162 0.04501 0.09421 0.0
O3 O 0.16676 0.97903 0.07451 0.0
O4 O 0.11671 0.17058 0.09019 0.0
O5 O 0.21929 0.08806 0.03115 0.0
O6 O 0.21198 0.16463 0.05227 0.0
C7 C 0.15797 -0.00035 0.09318 0.0
C8 C 0.0149 0.99513 0.03751 0.0
O9 O 0.03971 0.04998 0.05025 0.0
O10 O 0.04837 0.96634 0.03449 0.0
C11 C 0.07273 0.14753 0.10458 0.0
O12 O 0.03619 0.08108 0.10601 0.0
C13 C 0.23967 0.15007 0.03674 0.0
Zn14 Zn 0.2125 0.14047 0.37302 0.0
Zn15 Zn 0.10406 0.09454 0.39653 0.0
O16 O 0.18419 0.11942 0.4199 0.0
O17 O 0.27345 0.15883 0.40032 0.0
O18 O 0.02423 0.06384 0.41624 0.0
O19 O 0.19959 0.21487 0.36193 0.0
O20 O 0.10887 0.17644 0.38078 0.0
C21 C 0.24761 0.144 0.41886 0.0
C22 C 0.11035 9e-05 0.35939 0.0
O23 O 0.07799 0.00952 0.37449 0.0
O24 O 0.16889 0.04824 0.35565 0.0
C25 C 0.96768 0.05557 0.40945 0.0
O26 O 0.95878 0.06505 0.38864 0.0
C27 C 0.14965 0.21876 0.36769 0.0
Zn28 Zn 0.15778 0.96456 0.74971 0.0
Zn29 Zn 0.09005 0.00856 0.72767 0.0
O30 O 0.14167 0.98808 0.70325 0.0
O31 O 0.20202 0.95709 0.72258 0.0
O32 O 0.02849 0.03123 0.70989 0.0
O33 O 0.07501 0.8821 0.75965 0.0
O34 O 0.02041 0.9283 0.74576 0.0
C35 C 0.18494 0.96942 0.70409 0.0
C36 C 0.19045 0.10134 0.76565 0.0
O37 O 0.15169 0.09511 0.74901 0.0
O38 O 0.19964 0.05281 0.76951 0.0
C39 C 0.04477 0.06765 0.69331 0.0
O40 O 0.10642 0.09494 0.68681 0.0
C41 C 0.02101 0.88263 0.75693 0.0
Mg42 Mg 0.03729 0.58168 0.24093 0.0
C43 C 0.04088 0.51991 0.28342 0.0
O44 O 0.97634 0.49818 0.28032 0.0
C45 C 0.12354 0.69757 0.21245 0.0
O46 O 0.14217 0.65417 0.20659 0.0
C47 C 0.01122 0.45033 0.21579 0.0
O48 O 0.97827 0.42409 0.23344 0.0
O49 O 0.03931 0.51445 0.21419 0.0
O50 O 0.08163 0.56187 0.27032 0.0
O51 O 0.93179 0.5476 0.24583 0.0
C52 C 0.89957 0.56667 0.25796 0.0
O53 O 0.83323 0.52965 0.25575 0.0
O54 O 0.08417 0.68372 0.22814 0.0
Mg55 Mg 0.59667 0.05422 0.55963 0.0
C56 C 0.5354 0.14047 0.54595 0.0
O57 O 0.51496 0.1327 0.56619 0.0
C58 C 0.67581 0.066 0.60125 0.0
O59 O 0.61625 0.01151 0.60334 0.0
C60 C 0.44721 0.97958 0.57353 0.0
O61 O 0.43209 0.98959 0.55348 0.0
O62 O 0.50726 0.99423 0.57869 0.0
O63 O 0.57553 0.12081 0.54043 0.0
O64 O 0.62833 0.00382 0.5351 0.0
C65 C 0.62207 0.00955 0.51439 0.0
O66 O 0.58555 0.03482 0.50774 0.0
O67 O 0.68368 0.10038 0.58444 0.0
Mg68 Mg 0.586 0.58908 0.9004 0.0
C69 C 0.44467 0.49207 0.8803 0.0
O70 O 0.43759 0.47512 0.90093 0.0
C71 C 0.65749 0.73748 0.92007 0.0
O72 O 0.68716 0.749 0.90129 0.0
C73 C 0.56145 0.5199 0.94361 0.0
O74 O 0.5865 0.58363 0.95121 0.0
O75 O 0.56165 0.50696 0.92283 0.0
O76 O 0.49989 0.54428 0.87569 0.0
O77 O 0.67431 0.6265 0.88059 0.0
C78 C 0.67383 0.59802 0.86189 0.0
O79 O 0.6214 0.53761 0.85521 0.0
O80 O 0.60745 0.67788 0.92248 0.0
H81 H 0.13677 0.28834 0.10635 0.0
H82 H 0.9512 0.31109 0.21325 0.0
H83 H 0.98713 0.11312 0.13811 0.0
H84 H 0.08651 0.48785 0.17905 0.0
H85 H 0.9651 0.23862 0.18577 0.0
H86 H 0.12065 0.36294 0.13264 0.0
C87 C 0.10048 0.26549 0.11879 0.0
C88 C 0.06333 0.1942 0.11998 0.0
C89 C 0.99168 0.29322 0.18418 0.0
C90 C 0.04477 0.27939 0.15018 0.0
C91 C 0.98375 0.33477 0.19992 0.0
C92 C 0.01774 0.40586 0.19854 0.0
C93 C 0.03426 0.32265 0.16686 0.0
C94 C 0.05921 0.43334 0.1808 0.0
C95 C 0.09127 0.30815 0.13379 0.0
C96 C 0.01699 0.16765 0.13649 0.0
N97 N 0.06649 0.39177 0.16572 0.0
N98 N 0.00923 0.21012 0.1509 0.0
H99 H 0.96871 0.03591 0.45414 0.0
H100 H 0.61301 0.00711 0.46907 0.0
H101 H 0.84261 0.03733 0.40026 0.0
H102 H 0.73084 0.99424 0.52328 0.0
H103 H 0.69336 0.01021 0.44343 0.0
H104 H 0.88036 0.01421 0.47945 0.0
C105 C 0.9224 0.03131 0.44758 0.0
C106 C 0.91346 0.03886 0.42498 0.0
C107 C 0.70149 0.00605 0.46089 0.0
C108 C 0.8119 0.01405 0.45396 0.0
C109 C 0.65534 0.00404 0.47559 0.0
C110 C 0.66508 0.00066 0.49846 0.0
C111 C 0.75857 0.00531 0.46903 0.0
C112 C 0.72107 -0.00327 0.50581 0.0
C113 C 0.87189 0.01886 0.46206 0.0
C114 C 0.85215 0.03221 0.41751 0.0
N115 N 0.76599 -0.00013 0.4912 0.0
N116 N 0.80412 0.02059 0.43193 0.0
H117 H 0.92603 0.90503 0.7743 0.0
H118 H 0.71436 0.54831 0.82741 0.0
H119 H 0.98381 0.7543 0.76839 0.0
H120 H 0.75094 0.73688 0.86029 0.0
H121 H 0.79518 0.61459 0.80008 0.0
H122 H 0.84063 0.83413 0.79973 0.0
C123 C 0.91975 0.85637 0.77795 0.0
C124 C 0.96204 0.83549 0.7692 0.0
C125 C 0.78552 0.64124 0.81335 0.0
C126 C 0.86462 0.75437 0.7982 0.0
C127 C 0.73962 0.60358 0.82895 0.0
C128 C 0.72636 0.63713 0.84629 0.0
C129 C 0.81673 0.71276 0.81469 0.0
C130 C 0.76022 0.70891 0.84738 0.0
C131 C 0.87161 0.81639 0.79264 0.0
C132 C 0.95231 0.77233 0.77479 0.0
N133 N 0.80322 0.74425 0.83168 0.0
N134 N 0.90449 0.73387 0.78886 0.0
H135 H 0.22304 0.93026 0.09806 0.0
H136 H 0.07375 0.78414 0.21369 0.0
H137 H 0.1057 0.99484 0.13406 0.0
H138 H 0.2088 0.74162 0.17886 0.0
H139 H 0.08985 0.8674 0.18675 0.0
H140 H 0.22332 0.8671 0.12917 0.0
C141 C 0.19764 0.9316 0.11262 0.0
C142 C 0.16391 0.96771 0.11332 0.0
C143 C 0.11652 0.84038 0.1852 0.0
C144 C 0.16337 0.89414 0.14926 0.0
C145 C 0.10755 0.79297 0.20062 0.0
C146 C 0.13955 0.75523 0.19849 0.0
C147 C 0.15764 0.85001 0.16748 0.0
C148 C 0.18259 0.76888 0.18115 0.0
C149 C 0.19786 0.8954 0.13046 0.0
C150 C 0.13238 0.96777 0.13278 0.0
N151 N 0.18984 0.81449 0.16631 0.0
N152 N 0.13218 0.93087 0.14989 0.0
H153 H 0.21406 0.12065 0.4624 0.0
H154 H 0.56934 0.16981 0.50312 0.0
H155 H 0.38193 0.18698 0.421 0.0
H156 H 0.41932 0.14415 0.54837 0.0
H157 H 0.50159 0.17832 0.47304 0.0
H158 H 0.28767 0.1298 0.49428 0.0
C159 C 0.26633 0.1375 0.46 0.0
C160 C 0.29152 0.15273 0.43888 0.0
C161 C 0.48376 0.17161 0.48959 0.0
C162 C 0.376 0.16296 0.47529 0.0
C163 C 0.52264 0.16696 0.50682 0.0
C164 C 0.50017 0.15625 0.52836 0.0
C165 C 0.42128 0.16459 0.49377 0.0
C166 C 0.43893 0.15271 0.53208 0.0
C167 C 0.30839 0.14282 0.47823 0.0
C168 C 0.3599 0.17442 0.43687 0.0
N169 N 0.4013 0.15607 0.51493 0.0
N170 N 0.39936 0.17838 0.45472 0.0
H171 H 0.21714 0.10478 0.80976 0.0
H172 H 0.44679 0.50264 0.83489 0.0
H173 H 0.23364 0.23612 0.75851 0.0
H174 H 0.33276 0.36683 0.88461 0.0
H175 H 0.37737 0.41014 0.80591 0.0
H176 H 0.26985 0.20341 0.83685 0.0
C177 C 0.23202 0.15459 0.80418 0.0
C178 C 0.22124 0.16227 0.7818 0.0
C179 C 0.36702 0.40132 0.82317 0.0
C180 C 0.28242 0.27606 0.8129 0.0
C181 C 0.4065 0.45399 0.83972 0.0
C182 C 0.39618 0.44241 0.8623 0.0
C183 C 0.31792 0.3365 0.82931 0.0
C184 C 0.34318 0.37824 0.86752 0.0
C185 C 0.26168 0.21084 0.81972 0.0
C186 C 0.24101 0.22807 0.77562 0.0
N187 N 0.30698 0.32757 0.85122 0.0
N188 N 0.27166 0.28286 0.79107 0.0
H189 H 0.06033 0.13814 0.65618 0.0
H190 H 0.6691 0.01903 0.64211 0.0
H191 H 0.91254 0.01787 0.70202 0.0
H192 H 0.81312 0.14284 0.59587 0.0
H193 H 0.7605 0.02674 0.66558 0.0
H194 H 0.97378 0.14769 0.63513 0.0
C195 C 0.00985 0.114 0.66191 0.0
C196 C 0.99378 0.07677 0.6809 0.0
C197 C 0.77253 0.05283 0.65042 0.0
C198 C 0.89431 0.08763 0.6568 0.0
C199 C 0.72021 0.04859 0.63698 0.0
C200 C 0.73325 0.08003 0.61688 0.0
C201 C 0.83888 0.08832 0.64374 0.0
C202 C 0.8007 0.11791 0.61124 0.0
C203 C 0.96044 0.11957 0.64987 0.0
C204 C 0.92743 0.04682 0.68748 0.0
N205 N 0.85093 0.1204 0.62448 0.0
N206 N 0.88031 0.05267 0.67543 0.0
H207 H 0.9722 0.06069 0.011 0.0
H208 H 0.63623 0.71447 0.96409 0.0
H209 H 0.9104 0.86328 0.03427 0.0
H210 H 0.76199 0.87129 0.92144 0.0
H211 H 0.71374 0.78457 0.99593 0.0
H212 H 0.87267 0.00573 0.98409 0.0
C213 C 0.93652 0.00618 0.01089 0.0
C214 C 0.94913 0.96624 0.0248 0.0
C215 C 0.72344 0.80407 0.97964 0.0
C216 C 0.83581 0.90371 0.99448 0.0
C217 C 0.67915 0.76422 0.96142 0.0
C218 C 0.69336 0.78619 0.9399 0.0
C219 C 0.78156 0.86705 0.97644 0.0
C220 C 0.74953 0.85178 0.93766 0.0
C221 C 0.88027 0.97493 0.99549 0.0
C222 C 0.90225 0.89569 0.0238 0.0
N223 N 0.792 0.88967 0.95567 0.0
N224 N 0.84767 0.86662 0.00888 0.0
H225 H 0.17367 0.9593 0.33064 0.0
H226 H 0.83784 0.61115 0.28569 0.0
H227 H 0.97946 0.88903 0.3569 0.0
H228 H 0.03646 0.66269 0.26787 0.0
H229 H 0.88888 0.71299 0.31132 0.0
H230 H 0.12462 0.85257 0.3072 0.0
C231 C 0.12063 0.92139 0.33155 0.0
C232 C 0.08062 0.93361 0.3458 0.0
C233 C 0.92148 0.70213 0.30185 0.0
C234 C 0.02395 0.81063 0.31872 0.0
C235 C 0.89238 0.64377 0.28709 0.0
C236 C 0.93272 0.62815 0.27419 0.0
C237 C 0.99183 0.74621 0.30383 0.0
C238 C 0.00309 0.67267 0.27706 0.0
C239 C 0.09273 0.86024 0.31815 0.0
C240 C 0.01232 0.8821 0.34623 0.0
N241 N 0.03034 0.72983 0.29144 0.0
N242 N 0.98612 0.82317 0.3328 0.0
H243 H 0.2785 0.93158 0.70148 0.0
H244 H 0.32859 0.97967 0.57162 0.0
H245 H 0.16622 0.99334 0.66058 0.0
H246 H 0.45839 0.94968 0.61634 0.0
H247 H 0.2597 0.9717 0.60253 0.0
H248 H 0.33567 0.92575 0.66925 0.0
C249 C 0.26552 0.94377 0.68569 0.0
C250 C 0.2174 0.96337 0.6839 0.0
C251 C 0.30291 0.96628 0.60552 0.0
C252 C 0.28354 0.95663 0.64654 0.0
C253 C 0.34209 0.97031 0.58783 0.0
C254 C 0.39965 0.9654 0.59131 0.0
C255 C 0.32101 0.95684 0.62688 0.0
C256 C 0.41471 0.9539 0.61279 0.0
C257 C 0.29846 0.94043 0.66722 0.0
C258 C 0.20299 0.97819 0.66283 0.0
N259 N 0.3759 0.95026 0.62968 0.0
N260 N 0.23603 0.97469 0.645 0.0
H261 H 0.29442 0.13353 -0.00073 0.0
H262 H 0.54375 0.53362 0.98764 0.0
H263 H 0.30692 0.29056 0.0452 0.0
H264 H 0.49063 0.37972 0.93383 0.0
H265 H 0.4701 0.44428 0.01111 0.0
H266 H 0.37781 0.22196 0.9775 0.0
C267 C 0.31495 0.18664 0.00492 0.0
C268 C 0.2932 0.20439 0.02418 0.0
C269 C 0.47483 0.42993 0.99422 0.0
C270 C 0.38946 0.30635 -0.00088 0.0
C271 C 0.51725 0.48094 0.98077 0.0
C272 C 0.52343 0.46442 0.95859 0.0
C273 C 0.43833 0.36141 0.98561 0.0
C274 C 0.4876 0.39502 0.95078 0.0
C275 C 0.36254 0.23714 0.99237 0.0
C276 C 0.32186 0.27427 0.0305 0.0
N277 N 0.44648 0.34615 0.96424 0.0
N278 N 0.36847 0.32261 0.01802 0.0
H279 H 0.23344 0.32256 0.34263 0.0
H280 H 0.96737 0.43584 0.31515 0.0
H281 H 0.03987 0.23454 0.37092 0.0
H282 H 0.16293 0.52657 0.2882 0.0
H283 H 0.99664 0.36879 0.33798 0.0
H284 H 0.21178 0.40317 0.3249 0.0
C285 C 0.1864 0.3203 0.34525 0.0
C286 C 0.13821 0.27108 0.35825 0.0
C287 C 0.03348 0.40379 0.32726 0.0
C288 C 0.11297 0.3639 0.33774 0.0
C289 C 0.01689 0.44236 0.3142 0.0
C290 C 0.0626 0.48684 0.29956 0.0
C291 C 0.09625 0.40916 0.32567 0.0
C292 C 0.12604 0.49306 0.2992 0.0
C293 C 0.17413 0.3666 0.33508 0.0
C294 C 0.07847 0.27132 0.36105 0.0
N295 N 0.14069 0.45422 0.31188 0.0
N296 N 0.06737 0.3166 0.35076 0.0
loop_
_geom_bond_atom_site_label_1
_geom_bond_atom_site_label_2
_geom_bond_distance
_geom_bond_site_symmetry_2
_ccdc_geom_bond_type
Zn0 O3 2.031 1_545 S
Zn0 O5 2.049 . S
Zn0 O10 2.067 . S
Zn1 O2 1.962 . S
Zn1 O4 1.986 . S
Zn1 O6 1.996 . S
Zn1 O9 1.943 . S
O2 Zn1 1.962 . S
O2 C7 1.254 . S
O3 Zn0 2.031 1_565 S
O3 C7 1.269 1_565 S
O4 Zn1 1.986 . S
O4 C11 1.262 . S
O5 Zn0 2.049 . S
O5 C13 1.260 . S
O6 Zn1 1.996 . S
O6 C13 1.257 . S
C7 O2 1.254 . S
C7 O3 1.269 1_545 S
C8 O9 1.249 . S
C8 O10 1.270 . S
O9 Zn1 1.943 . S
O9 C8 1.249 . S
O10 Zn0 2.067 . S
O10 C8 1.270 . S
C11 O4 1.262 . S
C11 O12 1.232 . S
O12 C11 1.232 . S
C13 O5 1.260 . S
C13 O6 1.257 . S
Zn14 O17 2.031 . S
Zn14 O19 2.049 . S
Zn14 O24 2.067 . S
Zn15 O16 1.962 . S
Zn15 O18 1.986 1_455 S
Zn15 O20 1.996 . S
Zn15 O23 1.943 . S
O16 Zn15 1.962 . S
O16 C21 1.254 . S
O17 Zn14 2.031 . S
O17 C21 1.269 . S
O18 Zn15 1.986 1_655 S
O18 C25 1.262 . S
O19 Zn14 2.049 . S
O19 C27 1.260 . S
O20 Zn15 1.996 . S
O20 C27 1.257 . S
C21 O16 1.254 . S
C21 O17 1.269 . S
C22 O23 1.249 . S
C22 O24 1.270 . S
O23 Zn15 1.943 . S
O23 C22 1.249 . S
O24 Zn14 2.067 . S
O24 C22 1.270 . S
C25 O18 1.262 . S
C25 O26 1.232 . S
O26 C25 1.232 . S
C27 O19 1.260 . S
C27 O20 1.257 . S
Zn28 O31 2.031 1_565 S
Zn28 O33 2.049 . S
Zn28 O38 2.067 1_565 S
Zn29 O30 1.962 1_545 S
Zn29 O32 1.986 1_455 S
Zn29 O34 1.996 1_545 S
Zn29 O37 1.943 . S
O30 Zn29 1.962 1_565 S
O30 C35 1.254 1_565 S
O31 Zn28 2.031 1_545 S
O31 C35 1.269 . S
O32 Zn29 1.986 1_655 S
O32 C39 1.262 . S
O33 Zn28 2.049 . S
O33 C41 1.260 . S
O34 Zn29 1.996 1_565 S
O34 C41 1.257 . S
C35 O30 1.254 1_545 S
C35 O31 1.269 . S
C36 O37 1.249 . S
C36 O38 1.270 . S
O37 Zn29 1.943 . S
O37 C36 1.249 . S
O38 Zn28 2.067 1_545 S
O38 C36 1.270 . S
C39 O32 1.262 . S
C39 O40 1.232 1_655 S
O40 C39 1.232 1_455 S
C41 O33 1.260 . S
C41 O34 1.257 . S
Mg42 O49 2.141 . S
Mg42 O50 2.048 . S
Mg42 O51 2.048 . S
Mg42 O54 2.141 . S
C43 O44 1.313 . S
C43 O50 1.195 . S
O44 C43 1.313 . S
C45 O46 1.245 . S
C45 O54 1.289 . S
O46 C45 1.245 . S
C47 O48 1.245 . S
C47 O49 1.289 . S
O48 C47 1.245 . S
O49 Mg42 2.141 . S
O49 C47 1.289 . S
O50 Mg42 2.048 . S
O50 C43 1.195 . S
O51 Mg42 2.048 . S
O51 C52 1.195 . S
C52 O51 1.195 . S
C52 O53 1.313 . S
O53 C52 1.313 . S
O54 Mg42 2.141 . S
O54 C45 1.289 . S
Mg55 O62 2.141 . S
Mg55 O63 2.048 . S
Mg55 O64 2.048 . S
Mg55 O67 2.141 . S
C56 O57 1.323 . S
C56 O63 1.195 . S
O57 C56 1.323 . S
C58 O59 1.245 1_545 S
C58 O67 1.289 . S
O59 C58 1.245 1_565 S
C60 O61 1.245 1_545 S
C60 O62 1.289 . S
O61 C60 1.245 1_565 S
O62 Mg55 2.141 . S
O62 C60 1.289 . S
O63 Mg55 2.048 . S
O63 C56 1.195 . S
O64 Mg55 2.048 . S
O64 C65 1.195 . S
C65 O64 1.195 . S
C65 O66 1.320 . S
O66 C65 1.320 . S
O67 Mg55 2.141 . S
O67 C58 1.289 . S
Mg68 O75 2.141 . S
Mg68 O76 2.048 . S
Mg68 O77 2.048 . S
Mg68 O80 2.141 . S
C69 O70 1.313 . S
C69 O76 1.195 . S
O70 C69 1.313 . S
C71 O72 1.245 . S
C71 O80 1.289 . S
O72 C71 1.245 . S
C73 O74 1.245 . S
C73 O75 1.289 . S
O74 C73 1.245 . S
O75 Mg68 2.141 . S
O75 C73 1.289 . S
O76 Mg68 2.048 . S
O76 C69 1.195 . S
O77 Mg68 2.048 . S
O77 C78 1.195 . S
C78 O77 1.195 . S
C78 O79 1.313 . S
O79 C78 1.313 . S
O80 Mg68 2.141 . S
O80 C71 1.289 . S
H81 C87 0.930 . S
H82 C91 0.930 . S
H83 C96 0.929 . S
H84 C94 0.929 . S
H85 C89 0.929 . S
H86 C95 0.929 . S
C87 H81 0.930 . S
C87 C88 1.367 . S
C87 C95 1.378 . S
C88 C87 1.367 . S
C88 C96 1.433 . S
C89 H85 0.929 . S
C89 C91 1.378 . S
C89 C93 1.350 . S
C90 C93 1.463 . S
C90 C95 1.350 . S
C90 N98 1.427 . S
C91 H82 0.930 . S
C91 C89 1.378 . S
C91 C92 1.367 . S
C92 C91 1.367 . S
C92 C94 1.433 . S
C93 C89 1.350 . S
C93 C90 1.463 . S
C93 N97 1.427 . S
C94 H84 0.929 . S
C94 C92 1.433 . S
C94 N97 1.384 . S
C95 H86 0.929 . S
C95 C87 1.378 . S
C95 C90 1.350 . S
C96 H83 0.929 . S
C96 C88 1.433 . S
C96 N98 1.384 . S
N97 C93 1.427 . S
N97 C94 1.384 . S
N98 C90 1.427 . S
N98 C96 1.384 . S
H99 C105 0.930 . S
H100 C109 0.930 . S
H101 C114 0.929 1_565 S
H102 C112 0.929 . S
H103 C107 0.929 1_565 S
H104 C113 0.929 . S
C105 H99 0.930 . S
C105 C106 1.367 . S
C105 C113 1.378 . S
C106 C105 1.367 . S
C106 C114 1.433 . S
C107 H103 0.929 1_545 S
C107 C109 1.378 . S
C107 C111 1.350 . S
C108 C111 1.463 . S
C108 C113 1.350 . S
C108 N116 1.427 . S
C109 H100 0.930 . S
C109 C107 1.378 . S
C109 C110 1.367 . S
C110 C109 1.367 . S
C110 C112 1.433 . S
C111 C107 1.350 . S
C111 C108 1.463 . S
C111 N115 1.427 . S
C112 H102 0.929 . S
C112 C110 1.433 . S
C112 N115 1.384 . S
C113 H104 0.929 . S
C113 C105 1.378 . S
C113 C108 1.350 . S
C114 H101 0.929 1_545 S
C114 C106 1.433 . S
C114 N116 1.384 . S
N115 C111 1.427 . S
N115 C112 1.384 . S
N116 C108 1.427 . S
N116 C114 1.384 . S
H117 C123 0.930 . S
H118 C127 0.930 . S
H119 C132 0.929 . S
H120 C130 0.929 . S
H121 C125 0.929 . S
H122 C131 0.929 . S
C123 H117 0.930 . S
C123 C124 1.367 . S
C123 C131 1.378 . S
C124 C123 1.367 . S
C124 C132 1.433 . S
C125 H121 0.929 . S
C125 C127 1.378 . S
C125 C129 1.350 . S
C126 C129 1.463 . S
C126 C131 1.350 . S
C126 N134 1.427 . S
C127 H118 0.930 . S
C127 C125 1.378 . S
C127 C128 1.367 . S
C128 C127 1.367 . S
C128 C130 1.433 . S
C129 C125 1.350 . S
C129 C126 1.463 . S
C129 N133 1.427 . S
C130 H120 0.929 . S
C130 C128 1.433 . S
C130 N133 1.384 . S
C131 H122 0.929 . S
C131 C123 1.378 . S
C131 C126 1.350 . S
C132 H119 0.929 . S
C132 C124 1.433 . S
C132 N134 1.384 . S
N133 C129 1.427 . S
N133 C130 1.384 . S
N134 C126 1.427 . S
N134 C132 1.384 . S
H135 C141 0.930 . S
H136 C145 0.930 . S
H137 C150 0.929 1_545 S
H138 C148 0.929 . S
H139 C143 0.929 . S
H140 C149 0.929 . S
C141 H135 0.930 . S
C141 C142 1.367 . S
C141 C149 1.378 . S
C142 C141 1.367 . S
C142 C150 1.433 . S
C143 H139 0.929 . S
C143 C145 1.378 . S
C143 C147 1.350 . S
C144 C147 1.463 . S
C144 C149 1.350 . S
C144 N152 1.427 . S
C145 H136 0.930 . S
C145 C143 1.378 . S
C145 C146 1.367 . S
C146 C145 1.367 . S
C146 C148 1.433 . S
C147 C143 1.350 . S
C147 C144 1.463 . S
C147 N151 1.427 . S
C148 H138 0.929 . S
C148 C146 1.433 . S
C148 N151 1.384 . S
C149 H140 0.929 . S
C149 C141 1.378 . S
C149 C144 1.350 . S
C150 H137 0.929 1_565 S
C150 C142 1.433 . S
C150 N152 1.384 . S
N151 C147 1.427 . S
N151 C148 1.384 . S
N152 C144 1.427 . S
N152 C150 1.384 . S
H153 C159 0.930 . S
H154 C163 0.930 . S
H155 C168 0.929 . S
H156 C166 0.929 1_565 S
H157 C161 0.929 . S
H158 C167 0.929 . S
C159 H153 0.930 . S
C159 C160 1.367 . S
C159 C167 1.378 . S
C160 C159 1.367 . S
C160 C168 1.433 . S
C161 H157 0.929 . S
C161 C163 1.378 . S
C161 C165 1.350 . S
C162 C165 1.463 . S
C162 C167 1.350 . S
C162 N170 1.427 . S
C163 H154 0.930 . S
C163 C161 1.378 . S
C163 C164 1.367 . S
C164 C163 1.367 . S
C164 C166 1.433 . S
C165 C161 1.350 . S
C165 C162 1.463 . S
C165 N169 1.427 . S
C166 H156 0.929 1_545 S
C166 C164 1.433 . S
C166 N169 1.384 . S
C167 H158 0.929 . S
C167 C159 1.378 . S
C167 C162 1.350 . S
C168 H155 0.929 . S
C168 C160 1.433 . S
C168 N170 1.384 . S
N169 C165 1.427 . S
N169 C166 1.384 . S
N170 C162 1.427 . S
N170 C168 1.384 . S
H171 C177 0.930 . S
H172 C181 0.930 . S
H173 C186 0.929 . S
H174 C184 0.929 . S
H175 C179 0.929 . S
H176 C185 0.929 . S
C177 H171 0.930 . S
C177 C178 1.367 . S
C177 C185 1.378 . S
C178 C177 1.367 . S
C178 C186 1.433 . S
C179 H175 0.929 . S
C179 C181 1.378 . S
C179 C183 1.350 . S
C180 C183 1.463 . S
C180 C185 1.350 . S
C180 N188 1.427 . S
C181 H172 0.930 . S
C181 C179 1.378 . S
C181 C182 1.367 . S
C182 C181 1.367 . S
C182 C184 1.433 . S
C183 C179 1.350 . S
C183 C180 1.463 . S
C183 N187 1.427 . S
C184 H174 0.929 . S
C184 C182 1.433 . S
C184 N187 1.384 . S
C185 H176 0.929 . S
C185 C177 1.378 . S
C185 C180 1.350 . S
C186 H173 0.929 . S
C186 C178 1.433 . S
C186 N188 1.384 . S
N187 C183 1.427 . S
N187 C184 1.384 . S
N188 C180 1.427 . S
N188 C186 1.384 . S
H189 C195 0.930 1_455 S
H190 C199 0.930 1_565 S
H191 C204 0.929 1_565 S
H192 C202 0.929 . S
H193 C197 0.929 1_565 S
H194 C203 0.929 . S
C195 H189 0.930 1_655 S
C195 C196 1.367 . S
C195 C203 1.378 . S
C196 C195 1.367 . S
C196 C204 1.433 . S
C197 H193 0.929 1_545 S
C197 C199 1.378 . S
C197 C201 1.350 . S
C198 C201 1.463 . S
C198 C203 1.350 . S
C198 N206 1.427 . S
C199 H190 0.930 1_545 S
C199 C197 1.378 . S
C199 C200 1.367 . S
C200 C199 1.367 . S
C200 C202 1.433 . S
C201 C197 1.350 . S
C201 C198 1.463 . S
C201 N205 1.427 . S
C202 H192 0.929 . S
C202 C200 1.433 . S
C202 N205 1.384 . S
C203 H194 0.929 . S
C203 C195 1.378 . S
C203 C198 1.350 . S
C204 H191 0.929 1_545 S
C204 C196 1.433 . S
C204 N206 1.384 . S
N205 C201 1.427 . S
N205 C202 1.384 . S
N206 C198 1.427 . S
N206 C204 1.384 . S
H207 C213 0.930 1_445 S
H208 C217 0.930 . S
H209 C222 0.929 . S
H210 C220 0.929 . S
H211 C215 0.929 1_554 S
H212 C221 0.929 . S
C213 H207 0.930 1_665 S
C213 C214 1.367 . S
C213 C221 1.378 1_554 S
C214 C213 1.367 . S
C214 C222 1.433 . S
C215 H211 0.929 1_556 S
C215 C217 1.378 . S
C215 C219 1.350 . S
C216 C219 1.456 1_554 S
C216 C221 1.346 1_554 S
C216 N224 1.439 . S
C217 H208 0.930 . S
C217 C215 1.378 . S
C217 C218 1.367 . S
C218 C217 1.367 . S
C218 C220 1.433 . S
C219 C215 1.350 . S
C219 C216 1.456 1_556 S
C219 N223 1.427 . S
C220 H210 0.929 . S
C220 C218 1.433 . S
C220 N223 1.384 . S
C221 H212 0.929 . S
C221 C213 1.378 1_556 S
C221 C216 1.346 1_556 S
C222 H209 0.929 . S
C222 C214 1.433 . S
C222 N224 1.384 . S
N223 C219 1.427 . S
N223 C220 1.384 . S
N224 C216 1.439 . S
N224 C222 1.384 . S
H225 C231 0.930 1_545 S
H226 C235 0.930 1_655 S
H227 C240 0.929 . S
H228 C238 0.929 . S
H229 C233 0.929 1_655 S
H230 C239 0.929 . S
C231 H225 0.930 1_565 S
C231 C232 1.367 . S
C231 C239 1.378 . S
C232 C231 1.367 . S
C232 C240 1.433 1_455 S
C233 H229 0.929 1_455 S
C233 C235 1.378 . S
C233 C237 1.350 . S
C234 C237 1.463 . S
C234 C239 1.350 . S
C234 N242 1.427 1_455 S
C235 H226 0.930 1_455 S
C235 C233 1.378 . S
C235 C236 1.367 . S
C236 C235 1.367 . S
C236 C238 1.433 . S
C237 C233 1.350 . S
C237 C234 1.463 . S
C237 N241 1.427 . S
C238 H228 0.929 . S
C238 C236 1.433 . S
C238 N241 1.384 . S
C239 H230 0.929 . S
C239 C231 1.378 . S
C239 C234 1.350 . S
C240 H227 0.929 . S
C240 C232 1.433 1_655 S
C240 N242 1.384 . S
N241 C237 1.427 . S
N241 C238 1.384 . S
N242 C234 1.427 1_655 S
N242 C240 1.384 . S
H243 C249 0.930 . S
H244 C253 0.930 . S
H245 C258 0.929 . S
H246 C256 0.929 . S
H247 C251 0.929 . S
H248 C257 0.929 . S
C249 H243 0.930 . S
C249 C250 1.367 . S
C249 C257 1.378 . S
C250 C249 1.367 . S
C250 C258 1.433 1_545 S
C251 H247 0.929 . S
C251 C253 1.378 . S
C251 C255 1.350 1_565 S
C252 C255 1.463 . S
C252 C257 1.350 . S
C252 N260 1.427 1_545 S
C253 H244 0.930 . S
C253 C251 1.378 . S
C253 C254 1.367 1_565 S
C254 C253 1.367 1_545 S
C254 C256 1.433 . S
C255 C251 1.350 1_545 S
C255 C252 1.463 . S
C255 N259 1.427 . S
C256 H246 0.929 . S
C256 C254 1.433 . S
C256 N259 1.384 . S
C257 H248 0.929 . S
C257 C249 1.378 . S
C257 C252 1.350 . S
C258 H245 0.929 . S
C258 C250 1.433 1_565 S
C258 N260 1.384 . S
N259 C255 1.427 . S
N259 C256 1.384 . S
N260 C252 1.427 1_565 S
N260 C258 1.384 . S
H261 C267 0.930 . S
H262 C271 0.930 . S
H263 C276 0.929 . S
H264 C274 0.929 . S
H265 C269 0.929 1_554 S
H266 C275 0.929 . S
C267 H261 0.930 . S
C267 C268 1.367 . S
C267 C275 1.378 1_554 S
C268 C267 1.367 . S
C268 C276 1.433 . S
C269 H265 0.929 1_556 S
C269 C271 1.378 . S
C269 C273 1.350 . S
C270 C273 1.463 . S
C270 C275 1.350 . S
C270 N278 1.427 1_556 S
C271 H262 0.930 . S
C271 C269 1.378 . S
C271 C272 1.367 . S
C272 C271 1.367 . S
C272 C274 1.433 . S
C273 C269 1.350 . S
C273 C270 1.463 . S
C273 N277 1.427 . S
C274 H264 0.929 . S
C274 C272 1.433 . S
C274 N277 1.384 . S
C275 H266 0.929 . S
C275 C267 1.378 1_556 S
C275 C270 1.350 . S
C276 H263 0.929 . S
C276 C268 1.433 . S
C276 N278 1.384 . S
N277 C273 1.427 . S
N277 C274 1.384 . S
N278 C270 1.427 1_554 S
N278 C276 1.384 . S
H279 C285 0.930 . S
H280 C289 0.930 1_655 S
H281 C294 0.929 1_655 S
H282 C292 0.929 . S
H283 C287 0.929 1_655 S
H284 C293 0.929 . S
C285 H279 0.930 . S
C285 C286 1.367 . S
C285 C293 1.378 . S
C286 C285 1.367 . S
C286 C294 1.433 . S
C287 H283 0.929 1_455 S
C287 C289 1.378 . S
C287 C291 1.350 . S
C288 C291 1.463 . S
C288 C293 1.350 . S
C288 N296 1.427 . S
C289 H280 0.930 1_455 S
C289 C287 1.378 . S
C289 C290 1.367 . S
C290 C289 1.367 . S
C290 C292 1.433 . S
C291 C287 1.350 . S
C291 C288 1.463 . S
C291 N295 1.427 . S
C292 H282 0.929 . S
C292 C290 1.433 . S
C292 N295 1.384 . S
C293 H284 0.929 . S
C293 C285 1.378 . S
C293 C288 1.350 . S
C294 H281 0.929 1_455 S
C294 C286 1.433 . S
C294 N296 1.384 . S
N295 C291 1.427 . S
N295 C292 1.384 . S
N296 C288 1.427 . S
N296 C294 1.384 . S
C92 C47 1.274 . S
C88 C11 1.272 . S
C106 C25 1.387 . S
C110 C65 1.404 . S
C124 C41 1.371 1_655 S
C128 C78 1.430 . S
C142 C7 1.339 1_565 S
C146 C45 1.338 . S
C164 C56 1.461 . S
C160 C21 1.459 . S
C178 C36 1.395 . S
C182 C69 1.476 . S
C200 C58 1.333 . S
C196 C39 1.318 . S
C214 C8 1.326 1_665 S
C218 C71 1.401 . S
C236 C52 1.511 . S
C232 C22 1.444 1_565 S
C254 C60 1.366 . S
C250 C35 1.382 . S
C272 C73 1.357 . S
C268 C13 1.294 . S
C286 C27 1.403 . S
C290 C43 1.468 . S
