# Generated by pormake.
# Topology pth, (4,4)-cn, num edge types: 1
# Building blocks:
#     Node 0, Type 0, BuildingBlock: QUQFOY_clean_sbu_3, # of connection points: 4
#     Node 1, Type 0, BuildingBlock: QUQFOY_clean_sbu_3, # of connection points: 4
#     Node 2, Type 0, BuildingBlock: QUQFOY_clean_sbu_3, # of connection points: 4
#     Node 3, Type 1, BuildingBlock: NAWXER_clean_sbu_0, # of connection points: 4
#     Node 4, Type 1, BuildingBlock: NAWXER_clean_sbu_0, # of connection points: 4
#     Node 5, Type 1, BuildingBlock: NAWXER_clean_sbu_0, # of connection points: 4
#     Edge 6, Type (0, 1), BuildingBlock: XUDNAN_clean_linker_2, # of connection points: 2
#     Edge 7, Type (0, 1), BuildingBlock: XUDNAN_clean_linker_2, # of connection points: 2
#     Edge 8, Type (0, 1), BuildingBlock: XUDNAN_clean_linker_2, # of connection points: 2
#     Edge 9, Type (0, 1), BuildingBlock: XUDNAN_clean_linker_2, # of connection points: 2
#     Edge 10, Type (0, 1), BuildingBlock: XUDNAN_clean_linker_2, # of connection points: 2
#     Edge 11, Type (0, 1), BuildingBlock: XUDNAN_clean_linker_2, # of connection points: 2
#     Edge 12, Type (0, 1), BuildingBlock: XUDNAN_clean_linker_2, # of connection points: 2
#     Edge 13, Type (0, 1), BuildingBlock: XUDNAN_clean_linker_2, # of connection points: 2
#     Edge 14, Type (0, 1), BuildingBlock: XUDNAN_clean_linker_2, # of connection points: 2
#     Edge 15, Type (0, 1), BuildingBlock: XUDNAN_clean_linker_2, # of connection points: 2
#     Edge 16, Type (0, 1), BuildingBlock: XUDNAN_clean_linker_2, # of connection points: 2
#     Edge 17, Type (0, 1), BuildingBlock: XUDNAN_clean_linker_2, # of connection points: 2
# Relax obj value: 0.004
# Max RMSD: 0.054
# Mean RMSD: 0.030
data_MOF--net-pth--node1-QUQFOY_clean_sbu_3--node2-NAWXER_clean_sbu_0--edge1-XUDNAN_clean_linker_2
_symmetry_space_group_name_H-M    P1
_symmetry_Int_Tables_number       1
_symmetry_cell_setting            triclinic
loop_
_symmetry_equiv_pos_as_xyz
'x, y, z'
_cell_length_a     23.230603
_cell_length_b     23.061539
_cell_length_c     59.234526
_cell_angle_alpha  90.079893
_cell_angle_beta   90.947522
_cell_angle_gamma 120.95874
loop_
_atom_site_label
_atom_site_type_symbol
_atom_site_fract_x
_atom_site_fract_y
_atom_site_fract_z
_atom_type_partial_charge
C0 C 0.0124 0.1958 0.09731 0.0
O1 O 0.98569 0.20171 0.07925 0.0
Cd2 Cd 0.97448 0.14127 0.04494 0.0
O3 O 0.03515 0.15584 0.09809 0.0
Cd4 Cd 0.04334 0.07235 0.07335 0.0
C5 C 0.13713 0.18745 0.03323 0.0
O6 O 0.93163 0.02782 0.05733 0.0
O7 O 0.98608 0.98457 0.04324 0.0
O8 O 0.02364 -0.00055 0.10582 0.0
C9 C 0.93219 0.98583 0.04373 0.0
O10 O 0.08546 0.19083 0.02813 0.0
C11 C 0.07799 -0.0008 0.10437 0.0
O12 O 0.13586 0.15059 0.04942 0.0
O13 O 0.11652 0.033 0.08844 0.0
C14 C 0.18543 0.10617 0.41566 0.0
O15 O 0.20668 0.13777 0.39727 0.0
Cd16 Cd 0.1395 0.158 0.37105 0.0
O17 O 0.12598 0.08648 0.42195 0.0
Cd18 Cd 0.02889 0.09476 0.40746 0.0
C19 C 0.00896 0.99401 0.36298 0.0
O20 O 0.08571 0.20811 0.38992 0.0
O21 O 0.98002 0.14084 0.38228 0.0
O22 O 0.02162 0.1354 0.44444 0.0
C23 C 0.03164 0.19943 0.38106 0.0
O24 O 0.0597 0.04732 0.35559 0.0
C25 C 0.95953 0.09385 0.44707 0.0
O26 O 0.98662 0.99371 0.38255 0.0
O27 O 0.92961 0.04863 0.43182 0.0
C28 C 0.88675 0.08286 0.7148 0.0
O29 O 0.88579 0.11145 0.73298 0.0
Cd30 Cd 0.96933 0.14936 0.7624 0.0
O31 O 0.93547 0.0742 0.71051 0.0
Cd32 Cd 0.04274 0.09734 0.7294 0.0
C33 C 0.94992 0.99185 0.77102 0.0
O34 O 0.07863 0.20715 0.74699 0.0
O35 O 0.12767 0.1549 0.75925 0.0
O36 O 0.10381 0.14507 0.69495 0.0
C37 C 0.12414 0.20799 0.75939 0.0
O38 O 0.94382 0.04135 0.77713 0.0
C39 C 0.12815 0.10705 0.69338 0.0
O40 O 0.98211 0.99533 0.75331 0.0
O41 O 0.11013 0.06103 0.7081 0.0
C42 C 0.95126 0.63231 0.26323 0.0
C43 C 0.98978 0.48357 0.21485 0.0
O44 O 0.01282 0.64821 0.26232 0.0
Zn45 Zn 0.07294 0.61361 0.24698 0.0
O46 O 0.90597 0.58094 0.2523 0.0
Zn47 Zn 0.96687 0.55713 0.23853 0.0
O48 O 0.99684 0.52393 0.26753 0.0
O49 O 0.10662 0.58761 0.27311 0.0
O50 O 0.93437 0.48134 0.21723 0.0
O51 O 0.04281 0.52972 0.22501 0.0
O52 O 0.13264 0.69079 0.22849 0.0
O53 O 0.02588 0.64313 0.21816 0.0
C54 C 0.04988 0.53873 0.27908 0.0
C55 C 0.08732 0.68981 0.21583 0.0
C56 C 0.55489 0.01048 0.59882 0.0
C57 C 0.43889 0.02817 0.53215 0.0
O58 O 0.50452 0.96168 0.58866 0.0
Zn59 Zn 0.49205 0.01675 0.56648 0.0
O60 O 0.57636 0.07144 0.59279 0.0
Zn61 Zn 0.55346 0.12416 0.56807 0.0
O62 O 0.52298 0.17463 0.58517 0.0
O63 O 0.45244 0.06469 0.58664 0.0
O64 O 0.4855 0.08547 0.53986 0.0
O65 O 0.42424 0.97416 0.5425 0.0
O66 O 0.58578 0.061 0.5483 0.0
O67 O 0.63848 0.17191 0.55345 0.0
C68 C 0.46871 0.12496 0.59229 0.0
C69 C 0.63679 0.12025 0.54501 0.0
C70 C 0.49289 0.47727 0.92842 0.0
C71 C 0.64957 0.6287 0.87206 0.0
O72 O 0.48162 0.52387 0.92231 0.0
Zn73 Zn 0.52328 0.60846 0.90019 0.0
O74 O 0.54167 0.47494 0.92 0.0
Zn75 Zn 0.57216 0.55214 0.90024 0.0
O76 O 0.6127 0.636 0.92403 0.0
O77 O 0.55119 0.68329 0.92053 0.0
O78 O 0.64791 0.57733 0.88061 0.0
O79 O 0.6064 0.64427 0.87809 0.0
O80 O 0.44987 0.58682 0.87981 0.0
O81 O 0.48883 0.51791 0.87638 0.0
C82 C 0.59968 0.68155 0.93001 0.0
C83 C 0.4469 0.53586 0.87037 0.0
H84 H 0.9434 0.26108 0.10506 0.0
H85 H 0.08762 0.2173 0.1359 0.0
H86 H 0.09261 0.28157 0.17 0.0
H87 H 0.01553 0.42951 0.12636 0.0
H88 H 0.93608 0.42324 0.13111 0.0
H89 H 0.94288 0.37278 0.10929 0.0
H90 H 0.84659 0.26423 0.12715 0.0
H91 H 0.83968 0.31436 0.1491 0.0
H92 H 0.85351 0.24654 0.15638 0.0
H93 H 0.08718 0.35552 0.1996 0.0
H94 H 0.06932 0.4322 0.22357 0.0
H95 H 0.9238 0.42347 0.17472 0.0
C96 C 0.97608 0.26499 0.11898 0.0
C97 C 0.01541 0.23437 0.11777 0.0
C98 C 0.05705 0.24026 0.13643 0.0
C99 C 0.06017 0.27661 0.15588 0.0
C100 C 0.02074 0.30606 0.1565 0.0
C101 C 0.97916 0.30036 0.13863 0.0
C102 C 0.94223 0.33719 0.14364 0.0
C103 C 0.96029 0.39405 0.12659 0.0
C104 C 0.86598 0.2876 0.14409 0.0
C105 C 0.97039 0.36544 0.167 0.0
C106 C 0.01571 0.34688 0.17403 0.0
C107 C 0.05125 0.36972 0.19441 0.0
C108 C 0.04085 0.4133 0.20787 0.0
C109 C 0.99474 0.43306 0.20106 0.0
C110 C 0.95831 0.40799 0.1805 0.0
H111 H 0.82583 0.01377 0.4576 0.0
H112 H 0.01046 0.19653 0.47816 0.0
H113 H 0.94818 0.22208 0.50575 0.0
H114 H 0.71962 0.07995 0.46058 0.0
H115 H 0.64895 0.00513 0.47192 0.0
H116 H 0.70821 0.99788 0.45474 0.0
H117 H 0.72917 0.93397 0.48672 0.0
H118 H 0.66923 0.9402 0.5039 0.0
H119 H 0.75343 0.97163 0.51455 0.0
H120 H 0.86477 0.23422 0.5283 0.0
H121 H 0.76699 0.2248 0.5477 0.0
H122 H 0.63707 0.03181 0.51409 0.0
C123 C 0.85333 0.05845 0.46821 0.0
C124 C 0.92308 0.10311 0.46569 0.0
C125 C 0.95712 0.16134 0.47981 0.0
C126 C 0.92216 0.17651 0.4955 0.0
C127 C 0.85322 0.13254 0.49712 0.0
C128 C 0.81926 0.07404 0.48418 0.0
C129 C 0.74486 0.03593 0.4891 0.0
C130 C 0.70297 0.02937 0.46781 0.0
C131 C 0.7229 0.96631 0.49917 0.0
C132 C 0.74228 0.08286 0.50646 0.0
C133 C 0.80531 0.13849 0.51074 0.0
C134 C 0.81526 0.19044 0.52534 0.0
C135 C 0.7594 0.18491 0.53615 0.0
C136 C 0.69459 0.12751 0.53247 0.0
C137 C 0.68615 0.07598 0.51739 0.0
H138 H 0.84425 0.95607 0.79791 0.0
H139 H 0.97171 0.8842 0.77335 0.0
H140 H 0.9086 0.78055 0.79643 0.0
H141 H 0.82929 0.89947 0.85403 0.0
H142 H 0.74283 0.87685 0.85595 0.0
H143 H 0.79821 0.94348 0.83744 0.0
H144 H 0.7164 0.88154 0.80363 0.0
H145 H 0.6607 0.81469 0.82206 0.0
H146 H 0.69151 0.79521 0.79719 0.0
H147 H 0.83056 0.68545 0.82423 0.0
H148 H 0.74504 0.60928 0.85158 0.0
H149 H 0.67104 0.74756 0.85542 0.0
C150 C 0.85951 0.91892 0.79737 0.0
C151 C 0.91348 0.92858 0.78404 0.0
C152 C 0.9306 0.87785 0.78353 0.0
C153 C 0.8951 0.819 0.7966 0.0
C154 C 0.84228 0.81162 0.80974 0.0
C155 C 0.82452 0.86033 0.80992 0.0
C156 C 0.76575 0.8414 0.82492 0.0
C157 C 0.78522 0.89338 0.84422 0.0
C158 C 0.70501 0.83268 0.81112 0.0
C159 C 0.75334 0.77463 0.8336 0.0
C160 C 0.79762 0.75773 0.8248 0.0
C161 C 0.79552 0.69827 0.83105 0.0
C162 C 0.7469 0.65537 0.84661 0.0
C163 C 0.70109 0.67223 0.85559 0.0
C164 C 0.70482 0.73266 0.84884 0.0
H165 H 0.99518 0.90498 0.13459 0.0
H166 H 0.19894 0.00603 0.11014 0.0
H167 H 0.22617 0.94065 0.13688 0.0
H168 H 0.03474 0.89555 0.19315 0.0
H169 H 0.9615 0.81296 0.19678 0.0
H170 H 0.9597 0.86998 0.17643 0.0
H171 H 0.9248 0.77899 0.14493 0.0
H172 H 0.92649 0.72175 0.16519 0.0
H173 H 0.97609 0.74249 0.14014 0.0
H174 H 0.2303 0.86303 0.16703 0.0
H175 H 0.20847 0.77613 0.19583 0.0
H176 H 0.00099 0.72498 0.19846 0.0
C177 C 0.0457 0.91377 0.13493 0.0
C178 C 0.09504 0.96082 0.12038 0.0
C179 C 0.16034 0.97022 0.12118 0.0
C180 C 0.17631 0.93347 0.13634 0.0
C181 C 0.12629 0.88727 0.15045 0.0
C182 C 0.0622 0.87717 0.14973 0.0
C183 C 0.01659 0.82299 0.16595 0.0
C184 C 0.99169 0.85214 0.18415 0.0
C185 C 0.95753 0.76302 0.15329 0.0
C186 C 0.06475 0.80376 0.17585 0.0
C187 C 0.12806 0.84169 0.16699 0.0
C188 C 0.18078 0.83288 0.174 0.0
C189 C 0.16806 0.78361 0.19036 0.0
C190 C 0.10297 0.7434 0.19917 0.0
C191 C 0.05113 0.75423 0.19182 0.0
H192 H 0.16201 0.04768 0.45774 0.0
H193 H 0.31008 0.13112 0.40494 0.0
H194 H 0.38536 0.10783 0.42768 0.0
H195 H 0.27791 0.11655 0.50362 0.0
H196 H 0.23287 0.04434 0.52159 0.0
H197 H 0.18812 0.06264 0.50044 0.0
H198 H 0.13846 0.94209 0.48356 0.0
H199 H 0.18359 0.92362 0.50459 0.0
H200 H 0.19422 0.91376 0.47503 0.0
H201 H 0.44844 0.08483 0.45689 0.0
H202 H 0.49665 0.06579 0.49162 0.0
H203 H 0.30826 0.99404 0.52547 0.0
C204 C 0.20998 0.06043 0.45086 0.0
C205 C 0.22995 0.09118 0.42949 0.0
C206 C 0.29348 0.10762 0.42124 0.0
C207 C 0.33657 0.09425 0.43398 0.0
C208 C 0.31548 0.06411 0.45494 0.0
C209 C 0.2538 0.04743 0.4634 0.0
C210 C 0.24522 0.01902 0.48701 0.0
C211 C 0.23548 0.0633 0.50417 0.0
C212 C 0.18691 0.94523 0.48757 0.0
C213 C 0.3123 0.02372 0.49065 0.0
C214 C 0.35175 0.04941 0.47181 0.0
C215 C 0.41766 0.06342 0.47158 0.0
C216 C 0.44453 0.05231 0.49129 0.0
C217 C 0.40536 0.02681 0.5108 0.0
C218 C 0.33814 0.01126 0.51041 0.0
H219 H 0.22838 0.22449 0.78644 0.0
H220 H 0.11791 0.32197 0.76673 0.0
H221 H 0.18939 0.41748 0.79266 0.0
H222 H 0.25002 0.27174 0.84484 0.0
H223 H 0.33351 0.28519 0.84713 0.0
H224 H 0.27423 0.22515 0.82681 0.0
H225 H 0.3582 0.28746 0.79476 0.0
H226 H 0.41777 0.34769 0.81499 0.0
H227 H 0.39143 0.37662 0.79091 0.0
H228 H 0.27142 0.50103 0.82149 0.0
H229 H 0.35915 0.56736 0.85044 0.0
H230 H 0.41664 0.41551 0.85066 0.0
C231 C 0.21923 0.26595 0.78753 0.0
C232 C 0.16751 0.26578 0.77459 0.0
C233 C 0.1573 0.32108 0.77648 0.0
C234 C 0.1976 0.37551 0.79116 0.0
C235 C 0.24802 0.37395 0.80374 0.0
C236 C 0.25909 0.32071 0.802 0.0
C237 C 0.31641 0.33116 0.8174 0.0
C238 C 0.29206 0.27497 0.83509 0.0
C239 C 0.37438 0.33604 0.80369 0.0
C240 C 0.33568 0.39847 0.82816 0.0
C241 C 0.29562 0.42231 0.82009 0.0
C242 C 0.30328 0.483 0.82786 0.0
C243 C 0.3532 0.52026 0.84432 0.0
C244 C 0.39494 0.49679 0.85278 0.0
C245 C 0.38591 0.43511 0.84447 0.0
H246 H 0.88533 0.10707 0.66969 0.0
H247 H 0.75662 -0.0008 0.72551 0.0
H248 H 0.65651 0.95598 0.70028 0.0
H249 H 0.78177 0.16421 0.6482 0.0
H250 H 0.79891 0.15902 0.61894 0.0
H251 H 0.86032 0.17243 0.64041 0.0
H252 H 0.86146 0.06686 0.62595 0.0
H253 H 0.79966 0.053 0.60446 0.0
H254 H 0.78386 0.98658 0.62391 0.0
H255 H 0.57006 0.92829 0.66918 0.0
H256 H 0.50418 0.93141 0.63622 0.0
H257 H 0.6892 0.06621 0.60216 0.0
C258 C 0.83605 0.07319 0.67637 0.0
C259 C 0.8282 0.05536 0.69932 0.0
C260 C 0.76317 0.0128 0.70784 0.0
C261 C 0.70624 0.98775 0.69363 0.0
C262 C 0.71531 0.00671 0.67105 0.0
C263 C 0.77857 0.04928 0.66254 0.0
C264 C 0.77417 0.06861 0.63845 0.0
C265 C 0.80563 0.14561 0.6364 0.0
C266 C 0.80672 0.04216 0.62224 0.0
C267 C 0.69873 0.0314 0.63491 0.0
C268 C 0.66555 0.99442 0.65365 0.0
C269 C 0.59549 0.95684 0.65437 0.0
C270 C 0.55847 0.95857 0.63563 0.0
C271 C 0.59193 -0.00105 0.61685 0.0
C272 C 0.6627 0.03484 0.6164 0.0
H273 H 0.91421 0.88439 0.01464 0.0
H274 H 0.8206 0.99501 0.03744 0.0
H275 H 0.72556 0.92915 0.01091 0.0
H276 H 0.86599 0.87244 0.95614 0.0
H277 H 0.85036 0.78794 0.95231 0.0
H278 H 0.91123 0.84357 0.97317 0.0
H279 H 0.8486 0.7545 0.0041 0.0
H280 H 0.78759 0.69856 0.98332 0.0
H281 H 0.76053 0.72236 0.00818 0.0
H282 H 0.64216 0.85374 0.98135 0.0
H283 H 0.57354 0.77031 0.95159 0.0
H284 H 0.71948 0.70636 0.9486 0.0
C285 C 0.87366 0.89465 0.01406 0.0
C286 C 0.87485 0.94489 0.02809 0.0
C287 C 0.82073 0.95668 0.02688 0.0
C288 C 0.76654 0.91963 0.01185 0.0
C289 C 0.76697 0.87066 -0.00179 0.0
C290 C 0.81884 0.85776 -0.00076 0.0
C291 C 0.80658 0.80192 0.9828 0.0
C292 C 0.86182 0.82805 0.96506 0.0
C293 C 0.80045 0.74071 0.99536 0.0
C294 C 0.73989 0.78574 0.97234 0.0
C295 C 0.71811 0.82619 0.98141 0.0
C296 C 0.65849 0.82153 0.97417 0.0
C297 C 0.61994 0.77407 0.95723 0.0
C298 C 0.64096 0.73162 0.94782 0.0
C299 C 0.70177 0.73772 0.95556 0.0
H300 H 0.05848 0.97719 0.32389 0.0
H301 H 0.89428 0.86938 0.3701 0.0
H302 H 0.85197 0.76519 0.34675 0.0
H303 H 0.96846 0.89121 0.27168 0.0
H304 H 0.04056 0.89161 0.2607 0.0
H305 H 0.05191 0.95837 0.27949 0.0
H306 H 0.12566 0.93331 0.30635 0.0
H307 H 0.11478 0.86685 0.28764 0.0
H308 H 0.09246 0.84886 0.31687 0.0
H309 H 0.83281 0.67024 0.31873 0.0
H310 H 0.84487 0.59493 0.29154 0.0
H311 H 0.02472 0.76796 0.26593 0.0
C312 C 0.01283 0.93221 0.32901 0.0
C313 C 0.97943 0.93173 0.34878 0.0
C314 C 0.92057 0.87111 0.35496 0.0
C315 C 0.89607 0.8118 0.34174 0.0
C316 C 0.93105 0.81414 0.32245 0.0
C317 C 0.98836 0.87308 0.31625 0.0
C318 C 0.0209 0.86217 0.29614 0.0
C319 C 0.02039 0.90328 0.2758 0.0
C320 C 0.09265 0.87874 0.30212 0.0
C321 C 0.97397 0.78742 0.29216 0.0
C322 C 0.92153 0.76033 0.30712 0.0
C323 C 0.87343 0.69122 0.30687 0.0
C324 C 0.88036 0.64888 0.29135 0.0
C325 C 0.93567 0.67598 0.27675 0.0
C326 C 0.98191 0.74611 0.27693 0.0
H327 H 0.17403 0.02341 0.68 0.0
H328 H 0.19788 0.22029 0.66817 0.0
H329 H 0.28842 0.24686 0.64154 0.0
H330 H 0.34734 0.07463 0.67773 0.0
H331 H 0.33304 -6e-05 0.66288 0.0
H332 H 0.26948 0.99562 0.681 0.0
H333 H 0.1828 0.94806 0.6478 0.0
H334 H 0.24598 0.95174 0.62963 0.0
H335 H 0.20175 0.99414 0.62175 0.0
H336 H 0.38098 0.2551 0.6179 0.0
H337 H 0.46118 0.23927 0.59567 0.0
H338 H 0.3732 0.03493 0.62094 0.0
C339 C 0.19805 0.07189 0.67169 0.0
C340 C 0.17893 0.1198 0.67621 0.0
C341 C 0.21142 0.18262 0.66492 0.0
C342 C 0.26318 0.19838 0.64983 0.0
C343 C 0.28142 0.15048 0.64594 0.0
C344 C 0.24923 0.0881 0.65625 0.0
C345 C 0.27774 0.04525 0.64868 0.0
C346 C 0.30874 0.02786 0.66877 0.0
C347 C 0.22385 0.981 0.63622 0.0
C348 C 0.3313 0.09356 0.63271 0.0
C349 C 0.33304 0.15425 0.63156 0.0
C350 C 0.37971 0.20756 0.61849 0.0
C351 C 0.42526 0.19826 0.60602 0.0
C352 C 0.42316 0.13583 0.60647 0.0
C353 C 0.37559 0.08303 0.62008 0.0
H354 H 0.16543 0.28706 0.0026 0.0
H355 H 0.24791 0.17378 0.03328 0.0
H356 H 0.34828 0.23455 0.00961 0.0
H357 H 0.22198 0.29046 0.94672 0.0
H358 H 0.24085 0.37533 0.94133 0.0
H359 H 0.17599 0.32303 0.96076 0.0
H360 H 0.23544 0.41484 0.99207 0.0
H361 H 0.30032 0.46754 0.9727 0.0
H362 H 0.32216 0.4453 -0.00069 0.0
H363 H 0.4387 0.30624 0.98128 0.0
H364 H 0.51339 0.38713 0.95261 0.0
H365 H 0.37133 0.45399 0.94191 0.0
C366 C 0.20455 0.27496 0.0044 0.0
C367 C 0.19863 0.22547 0.01976 0.0
C368 C 0.25133 0.21161 0.02166 0.0
C369 C 0.30846 0.24571 0.00824 0.0
C370 C 0.31236 0.29386 0.99314 0.0
C371 C 0.26197 0.3088 0.99133 0.0
C372 C 0.27836 0.36315 0.97408 0.0
C373 C 0.2262 0.33636 0.95457 0.0
C374 C 0.28445 0.42645 0.98521 0.0
C375 C 0.34572 0.37633 0.96636 0.0
C376 C 0.36454 0.33575 0.97739 0.0
C377 C 0.42456 0.33851 0.97263 0.0
C378 C 0.46655 0.3844 0.95629 0.0
C379 C 0.44842 0.42712 0.94511 0.0
C380 C 0.38704 0.42251 0.95027 0.0
H381 H 0.1303 0.30801 0.35809 0.0
H382 H 0.92313 0.21351 0.37877 0.0
H383 H 0.91178 0.3008 0.35877 0.0
H384 H 0.16953 0.48642 0.35919 0.0
H385 H 0.21872 0.50801 0.33403 0.0
H386 H 0.21452 0.4442 0.35264 0.0
H387 H 0.17344 0.35856 0.31925 0.0
H388 H 0.17763 0.42202 0.30057 0.0
H389 H 0.10018 0.34215 0.30297 0.0
H390 H 0.91834 0.38953 0.33441 0.0
H391 H 0.9398 0.47196 0.30465 0.0
H392 H 0.14214 0.50996 0.29789 0.0
C393 C 0.08318 0.30689 0.35877 0.0
C394 C 0.02768 0.25461 0.37011 0.0
C395 C 0.96616 0.2533 0.37019 0.0
C396 C 0.9594 0.30289 0.35903 0.0
C397 C 0.01452 0.35319 0.34771 0.0
C398 C 0.07518 0.3556 0.34732 0.0
C399 C 0.1239 0.41111 0.33183 0.0
C400 C 0.18531 0.46568 0.34523 0.0
C401 C 0.14499 0.38168 0.31251 0.0
C402 C 0.08037 0.4381 0.32316 0.0
C403 C 0.01793 0.40449 0.33294 0.0
C404 C 0.96722 0.41681 0.32681 0.0
C405 C 0.97988 0.46357 0.30982 0.0
C406 C 0.04266 0.4974 0.29902 0.0
C407 C 0.09416 0.48569 0.30616 0.0
loop_
_geom_bond_atom_site_label_1
_geom_bond_atom_site_label_2
_geom_bond_distance
_geom_bond_site_symmetry_2
_ccdc_geom_bond_type
C0 O1 1.306 1_455 S
C0 O3 1.160 . S
O1 C0 1.306 1_655 S
O1 Cd2 2.228 . S
Cd2 O1 2.228 . S
Cd2 O6 2.273 . S
Cd2 O10 2.277 1_655 S
O3 C0 1.160 . S
O3 Cd4 2.203 . S
Cd4 O3 2.203 . S
Cd4 O6 2.411 1_455 S
Cd4 O7 2.327 1_545 S
Cd4 O8 2.352 . S
Cd4 O12 2.277 . S
Cd4 O13 2.356 . S
C5 O10 1.209 . S
C5 O12 1.226 . S
O6 Cd2 2.273 . S
O6 Cd4 2.411 1_655 S
O6 C9 1.320 . S
O7 Cd4 2.327 1_565 S
O7 C9 1.208 1_465 S
O8 Cd4 2.352 . S
O8 C11 1.258 1_545 S
C9 O6 1.320 . S
C9 O7 1.208 1_645 S
O10 Cd2 2.277 1_455 S
O10 C5 1.209 . S
C11 O8 1.258 1_565 S
C11 O13 1.282 1_565 S
O12 Cd4 2.277 . S
O12 C5 1.226 . S
O13 Cd4 2.356 . S
O13 C11 1.282 1_545 S
C14 O15 1.306 . S
C14 O17 1.160 . S
O15 C14 1.306 . S
O15 Cd16 2.228 . S
Cd16 O15 2.228 . S
Cd16 O20 2.273 . S
Cd16 O24 2.277 . S
O17 C14 1.160 . S
O17 Cd18 2.203 . S
Cd18 O17 2.203 . S
Cd18 O20 2.411 . S
Cd18 O21 2.333 1_455 S
Cd18 O22 2.352 1_455 S
Cd18 O26 2.277 1_445 S
Cd18 O27 2.356 1_455 S
C19 O24 1.209 1_565 S
C19 O26 1.226 1_455 S
O20 Cd16 2.273 . S
O20 Cd18 2.411 . S
O20 C23 1.320 . S
O21 Cd18 2.333 1_655 S
O21 C23 1.214 1_655 S
O22 Cd18 2.352 1_655 S
O22 C25 1.258 . S
C23 O20 1.320 . S
C23 O21 1.214 1_455 S
O24 Cd16 2.277 . S
O24 C19 1.209 1_545 S
C25 O22 1.258 . S
C25 O27 1.282 . S
O26 Cd18 2.277 1_665 S
O26 C19 1.226 1_655 S
O27 Cd18 2.356 1_655 S
O27 C25 1.282 . S
C28 O29 1.306 . S
C28 O31 1.160 . S
O29 C28 1.306 . S
O29 Cd30 2.228 . S
Cd30 O29 2.228 . S
Cd30 O34 2.273 1_655 S
Cd30 O38 2.277 . S
O31 C28 1.160 . S
O31 Cd32 2.203 1_655 S
Cd32 O31 2.203 1_455 S
Cd32 O34 2.411 . S
Cd32 O35 2.333 . S
Cd32 O36 2.352 . S
Cd32 O40 2.277 1_445 S
Cd32 O41 2.356 . S
C33 O38 1.214 . S
C33 O40 1.223 1_545 S
O34 Cd30 2.273 1_455 S
O34 Cd32 2.411 . S
O34 C37 1.320 . S
O35 Cd32 2.333 . S
O35 C37 1.214 . S
O36 Cd32 2.352 . S
O36 C39 1.258 . S
C37 O34 1.320 . S
C37 O35 1.214 . S
O38 Cd30 2.277 . S
O38 C33 1.214 . S
C39 O36 1.258 . S
C39 O41 1.282 . S
O40 Cd32 2.277 1_665 S
O40 C33 1.223 1_565 S
O41 Cd32 2.356 . S
O41 C39 1.282 . S
C42 O44 1.247 . S
C42 O46 1.258 1_455 S
C43 O50 1.247 1_455 S
C43 O51 1.258 . S
O44 C42 1.247 . S
O44 Zn45 2.028 . S
Zn45 O44 2.028 . S
Zn45 O49 2.035 . S
Zn45 O51 2.035 . S
Zn45 O52 2.028 . S
O46 C42 1.258 1_655 S
O46 Zn47 2.035 . S
Zn47 O46 2.035 . S
Zn47 O48 2.028 . S
Zn47 O50 2.028 . S
Zn47 O53 2.035 . S
O48 Zn47 2.028 . S
O48 C54 1.247 1_655 S
O49 Zn45 2.035 . S
O49 C54 1.258 . S
O50 C43 1.247 1_655 S
O50 Zn47 2.028 . S
O51 C43 1.258 . S
O51 Zn45 2.035 . S
O52 Zn45 2.028 . S
O52 C55 1.247 . S
O53 Zn47 2.035 . S
O53 C55 1.258 1_655 S
C54 O48 1.247 1_455 S
C54 O49 1.258 . S
C55 O52 1.247 . S
C55 O53 1.258 1_455 S
C56 O58 1.247 . S
C56 O60 1.258 . S
C57 O64 1.247 . S
C57 O65 1.258 . S
O58 C56 1.247 . S
O58 Zn59 2.028 . S
Zn59 O58 2.028 . S
Zn59 O63 2.035 . S
Zn59 O65 2.035 . S
Zn59 O66 2.028 . S
O60 C56 1.258 . S
O60 Zn61 2.035 . S
Zn61 O60 2.035 . S
Zn61 O62 2.028 . S
Zn61 O64 2.028 . S
Zn61 O67 2.035 . S
O62 Zn61 2.028 . S
O62 C68 1.247 . S
O63 Zn59 2.035 . S
O63 C68 1.258 . S
O64 C57 1.247 . S
O64 Zn61 2.028 . S
O65 C57 1.258 . S
O65 Zn59 2.035 . S
O66 Zn59 2.028 . S
O66 C69 1.247 . S
O67 Zn61 2.035 . S
O67 C69 1.258 . S
C68 O62 1.247 . S
C68 O63 1.258 . S
C69 O66 1.247 . S
C69 O67 1.258 . S
C70 O72 1.247 . S
C70 O74 1.258 . S
C71 O78 1.247 . S
C71 O79 1.258 . S
O72 C70 1.247 . S
O72 Zn73 2.028 . S
Zn73 O72 2.028 . S
Zn73 O77 2.035 . S
Zn73 O79 2.035 . S
Zn73 O80 2.028 . S
O74 C70 1.258 . S
O74 Zn75 2.035 . S
Zn75 O74 2.035 . S
Zn75 O76 2.028 . S
Zn75 O78 2.028 . S
Zn75 O81 2.035 . S
O76 Zn75 2.028 . S
O76 C82 1.247 . S
O77 Zn73 2.035 . S
O77 C82 1.258 . S
O78 C71 1.247 . S
O78 Zn75 2.028 . S
O79 C71 1.258 . S
O79 Zn73 2.035 . S
O80 Zn73 2.028 . S
O80 C83 1.247 . S
O81 Zn75 2.035 . S
O81 C83 1.258 . S
C82 O76 1.247 . S
C82 O77 1.258 . S
C83 O80 1.247 . S
C83 O81 1.258 . S
H84 C96 0.930 . S
H85 C98 0.930 . S
H86 C99 0.930 . S
H87 C103 0.959 . S
H88 C103 0.959 . S
H89 C103 0.961 . S
H90 C104 0.960 . S
H91 C104 0.961 . S
H92 C104 0.959 . S
H93 C107 0.929 . S
H94 C108 0.931 . S
H95 C110 0.930 1_655 S
C96 H84 0.930 . S
C96 C97 1.399 1_655 S
C96 C101 1.399 1_655 S
C97 C96 1.399 1_455 S
C97 C98 1.376 . S
C98 H85 0.930 . S
C98 C97 1.376 . S
C98 C99 1.388 . S
C99 H86 0.930 . S
C99 C98 1.388 . S
C99 C100 1.390 . S
C100 C99 1.390 . S
C100 C101 1.394 . S
C100 C106 1.465 . S
C101 C96 1.399 1_455 S
C101 C100 1.394 . S
C101 C102 1.516 1_455 S
C102 C101 1.516 1_655 S
C102 C103 1.502 . S
C102 C104 1.561 . S
C102 C105 1.526 1_655 S
C103 H87 0.959 . S
C103 H88 0.959 . S
C103 H89 0.961 . S
C103 C102 1.502 . S
C104 H90 0.960 . S
C104 H91 0.961 . S
C104 H92 0.959 . S
C104 C102 1.561 . S
C105 C102 1.526 1_455 S
C105 C106 1.396 . S
C105 C110 1.390 . S
C106 C100 1.465 . S
C106 C105 1.396 . S
C106 C107 1.399 . S
C107 H93 0.929 . S
C107 C106 1.399 . S
C107 C108 1.385 . S
C108 H94 0.931 . S
C108 C107 1.385 . S
C108 C109 1.389 . S
C109 C108 1.389 . S
C109 C110 1.387 . S
C110 H95 0.930 1_455 S
C110 C105 1.390 . S
C110 C109 1.387 . S
H111 C123 0.930 1_565 S
H112 C125 0.930 . S
H113 C126 0.930 . S
H114 C130 0.959 1_545 S
H115 C130 0.959 . S
H116 C130 0.961 . S
H117 C131 0.960 . S
H118 C131 0.961 . S
H119 C131 0.959 . S
H120 C134 0.929 . S
H121 C135 0.931 . S
H122 C137 0.930 . S
C123 H111 0.930 1_545 S
C123 C124 1.399 . S
C123 C128 1.399 . S
C124 C123 1.399 . S
C124 C125 1.376 . S
C125 H112 0.930 . S
C125 C124 1.376 . S
C125 C126 1.388 . S
C126 H113 0.930 . S
C126 C125 1.388 . S
C126 C127 1.390 . S
C127 C126 1.390 . S
C127 C128 1.394 . S
C127 C133 1.465 . S
C128 C123 1.399 . S
C128 C127 1.394 . S
C128 C129 1.516 . S
C129 C128 1.516 . S
C129 C130 1.502 1_545 S
C129 C131 1.561 1_545 S
C129 C132 1.526 . S
C130 H114 0.959 1_565 S
C130 H115 0.959 . S
C130 H116 0.961 . S
C130 C129 1.502 1_565 S
C131 H117 0.960 . S
C131 H118 0.961 . S
C131 H119 0.959 . S
C131 C129 1.561 1_565 S
C132 C129 1.526 . S
C132 C133 1.396 . S
C132 C137 1.390 . S
C133 C127 1.465 . S
C133 C132 1.396 . S
C133 C134 1.399 . S
C134 H120 0.929 . S
C134 C133 1.399 . S
C134 C135 1.385 . S
C135 H121 0.931 . S
C135 C134 1.385 . S
C135 C136 1.389 . S
C136 C135 1.389 . S
C136 C137 1.387 . S
C137 H122 0.930 . S
C137 C132 1.390 . S
C137 C136 1.387 . S
H138 C150 0.930 . S
H139 C152 0.930 1_545 S
H140 C153 0.930 . S
H141 C157 0.959 . S
H142 C157 0.959 . S
H143 C157 0.961 . S
H144 C158 0.960 . S
H145 C158 0.961 . S
H146 C158 0.959 . S
H147 C161 0.929 . S
H148 C162 0.931 . S
H149 C164 0.930 . S
C150 H138 0.930 . S
C150 C151 1.399 . S
C150 C155 1.399 . S
C151 C150 1.399 . S
C151 C152 1.376 . S
C152 H139 0.930 1_565 S
C152 C151 1.376 . S
C152 C153 1.388 . S
C153 H140 0.930 . S
C153 C152 1.388 . S
C153 C154 1.390 . S
C154 C153 1.390 . S
C154 C155 1.394 . S
C154 C160 1.465 . S
C155 C150 1.399 . S
C155 C154 1.394 . S
C155 C156 1.516 . S
C156 C155 1.516 . S
C156 C157 1.502 . S
C156 C158 1.561 . S
C156 C159 1.526 . S
C157 H141 0.959 . S
C157 H142 0.959 . S
C157 H143 0.961 . S
C157 C156 1.502 . S
C158 H144 0.960 . S
C158 H145 0.961 . S
C158 H146 0.959 . S
C158 C156 1.561 . S
C159 C156 1.526 . S
C159 C160 1.396 . S
C159 C164 1.390 . S
C160 C154 1.465 . S
C160 C159 1.396 . S
C160 C161 1.399 . S
C161 H147 0.929 . S
C161 C160 1.399 . S
C161 C162 1.385 . S
C162 H148 0.931 . S
C162 C161 1.385 . S
C162 C163 1.389 . S
C163 C162 1.389 . S
C163 C164 1.387 . S
C164 H149 0.930 . S
C164 C159 1.390 . S
C164 C163 1.387 . S
H165 C177 0.930 . S
H166 C179 0.930 . S
H167 C180 0.930 . S
H168 C184 0.959 . S
H169 C184 0.959 . S
H170 C184 0.961 . S
H171 C185 0.960 . S
H172 C185 0.961 . S
H173 C185 0.959 . S
H174 C188 0.929 . S
H175 C189 0.931 . S
H176 C191 0.930 . S
C177 H165 0.930 . S
C177 C178 1.399 . S
C177 C182 1.399 . S
C178 C177 1.399 . S
C178 C179 1.376 . S
C179 H166 0.930 . S
C179 C178 1.376 . S
C179 C180 1.388 . S
C180 H167 0.930 . S
C180 C179 1.388 . S
C180 C181 1.390 . S
C181 C180 1.390 . S
C181 C182 1.394 . S
C181 C187 1.465 . S
C182 C177 1.399 . S
C182 C181 1.394 . S
C182 C183 1.516 . S
C183 C182 1.516 . S
C183 C184 1.502 . S
C183 C185 1.561 1_455 S
C183 C186 1.526 . S
C184 H168 0.959 . S
C184 H169 0.959 . S
C184 H170 0.961 . S
C184 C183 1.502 . S
C185 H171 0.960 . S
C185 H172 0.961 . S
C185 H173 0.959 . S
C185 C183 1.561 1_655 S
C186 C183 1.526 . S
C186 C187 1.396 . S
C186 C191 1.390 . S
C187 C181 1.465 . S
C187 C186 1.396 . S
C187 C188 1.399 . S
C188 H174 0.929 . S
C188 C187 1.399 . S
C188 C189 1.385 . S
C189 H175 0.931 . S
C189 C188 1.385 . S
C189 C190 1.389 . S
C190 C189 1.389 . S
C190 C191 1.387 . S
C191 H176 0.930 . S
C191 C186 1.390 . S
C191 C190 1.387 . S
H192 C204 0.930 . S
H193 C206 0.930 . S
H194 C207 0.930 . S
H195 C211 0.959 1_545 S
H196 C211 0.959 . S
H197 C211 0.961 . S
H198 C212 0.960 . S
H199 C212 0.961 . S
H200 C212 0.959 . S
H201 C215 0.929 . S
H202 C216 0.931 . S
H203 C218 0.929 . S
C204 H192 0.930 . S
C204 C205 1.399 . S
C204 C209 1.399 . S
C205 C204 1.399 . S
C205 C206 1.376 . S
C206 H193 0.930 . S
C206 C205 1.376 . S
C206 C207 1.388 . S
C207 H194 0.930 . S
C207 C206 1.388 . S
C207 C208 1.390 . S
C208 C207 1.390 . S
C208 C209 1.394 . S
C208 C214 1.465 . S
C209 C204 1.399 . S
C209 C208 1.394 . S
C209 C210 1.516 . S
C210 C209 1.516 . S
C210 C211 1.502 1_545 S
C210 C212 1.561 1_545 S
C210 C213 1.526 . S
C211 H195 0.959 1_565 S
C211 H196 0.959 . S
C211 H197 0.961 . S
C211 C210 1.502 1_565 S
C212 H198 0.960 . S
C212 H199 0.961 . S
C212 H200 0.959 . S
C212 C210 1.561 1_565 S
C213 C210 1.526 . S
C213 C214 1.396 . S
C213 C218 1.390 . S
C214 C208 1.465 . S
C214 C213 1.396 . S
C214 C215 1.399 . S
C215 H201 0.929 . S
C215 C214 1.399 . S
C215 C216 1.385 . S
C216 H202 0.931 . S
C216 C215 1.385 . S
C216 C217 1.389 . S
C217 C216 1.389 . S
C217 C218 1.387 . S
C218 H203 0.929 . S
C218 C213 1.390 . S
C218 C217 1.387 . S
H219 C231 0.930 . S
H220 C233 0.930 . S
H221 C234 0.930 . S
H222 C238 0.959 . S
H223 C238 0.959 . S
H224 C238 0.961 . S
H225 C239 0.960 . S
H226 C239 0.961 . S
H227 C239 0.959 . S
H228 C242 0.929 . S
H229 C243 0.931 . S
H230 C245 0.930 . S
C231 H219 0.930 . S
C231 C232 1.399 . S
C231 C236 1.399 . S
C232 C231 1.399 . S
C232 C233 1.376 . S
C233 H220 0.930 . S
C233 C232 1.376 . S
C233 C234 1.388 . S
C234 H221 0.930 . S
C234 C233 1.388 . S
C234 C235 1.390 . S
C235 C234 1.390 . S
C235 C236 1.394 . S
C235 C241 1.465 . S
C236 C231 1.399 . S
C236 C235 1.394 . S
C236 C237 1.516 . S
C237 C236 1.516 . S
C237 C238 1.502 . S
C237 C239 1.561 . S
C237 C240 1.526 . S
C238 H222 0.959 . S
C238 H223 0.959 . S
C238 H224 0.961 . S
C238 C237 1.502 . S
C239 H225 0.960 . S
C239 H226 0.961 . S
C239 H227 0.959 . S
C239 C237 1.561 . S
C240 C237 1.526 . S
C240 C241 1.396 . S
C240 C245 1.390 . S
C241 C235 1.465 . S
C241 C240 1.396 . S
C241 C242 1.399 . S
C242 H228 0.929 . S
C242 C241 1.399 . S
C242 C243 1.385 . S
C243 H229 0.931 . S
C243 C242 1.385 . S
C243 C244 1.389 . S
C244 C243 1.389 . S
C244 C245 1.387 . S
C245 H230 0.930 . S
C245 C240 1.390 . S
C245 C244 1.387 . S
H246 C258 0.930 . S
H247 C260 0.930 . S
H248 C261 0.930 . S
H249 C265 0.959 . S
H250 C265 0.959 . S
H251 C265 0.961 . S
H252 C266 0.960 . S
H253 C266 0.961 . S
H254 C266 0.959 . S
H255 C269 0.929 . S
H256 C270 0.931 . S
H257 C272 0.930 1_565 S
C258 H246 0.930 . S
C258 C259 1.399 . S
C258 C263 1.399 . S
C259 C258 1.399 . S
C259 C260 1.376 . S
C260 H247 0.930 . S
C260 C259 1.376 . S
C260 C261 1.388 . S
C261 H248 0.930 . S
C261 C260 1.388 . S
C261 C262 1.390 . S
C262 C261 1.390 . S
C262 C263 1.394 . S
C262 C268 1.465 . S
C263 C258 1.399 . S
C263 C262 1.394 . S
C263 C264 1.516 . S
C264 C263 1.516 . S
C264 C265 1.502 1_545 S
C264 C266 1.561 1_545 S
C264 C267 1.526 . S
C265 H249 0.959 . S
C265 H250 0.959 . S
C265 H251 0.961 . S
C265 C264 1.502 1_565 S
C266 H252 0.960 . S
C266 H253 0.961 . S
C266 H254 0.959 . S
C266 C264 1.561 1_565 S
C267 C264 1.526 . S
C267 C268 1.396 . S
C267 C272 1.390 . S
C268 C262 1.465 . S
C268 C267 1.396 . S
C268 C269 1.399 . S
C269 H255 0.929 . S
C269 C268 1.399 . S
C269 C270 1.385 . S
C270 H256 0.931 . S
C270 C269 1.385 . S
C270 C271 1.389 . S
C271 C270 1.389 . S
C271 C272 1.387 . S
C272 H257 0.930 1_545 S
C272 C267 1.390 . S
C272 C271 1.387 . S
H273 C285 0.943 1_545 S
H274 C287 0.930 . S
H275 C288 0.930 . S
H276 C292 0.959 . S
H277 C292 0.959 . S
H278 C292 0.961 1_545 S
H279 C293 0.960 . S
H280 C293 0.961 . S
H281 C293 0.959 . S
H282 C296 0.929 1_554 S
H283 C297 0.931 . S
H284 C299 0.930 . S
C285 H273 0.943 1_565 S
C285 C286 1.399 . S
C285 C290 1.399 1_554 S
C286 C285 1.399 . S
C286 C287 1.376 . S
C287 H274 0.930 . S
C287 C286 1.376 . S
C287 C288 1.388 . S
C288 H275 0.930 . S
C288 C287 1.388 . S
C288 C289 1.390 . S
C289 C288 1.390 . S
C289 C290 1.394 1_554 S
C289 C295 1.465 1_554 S
C290 C285 1.399 1_556 S
C290 C289 1.394 1_556 S
C290 C291 1.516 . S
C291 C290 1.516 . S
C291 C292 1.502 . S
C291 C293 1.561 . S
C291 C294 1.526 . S
C292 H276 0.959 . S
C292 H277 0.959 . S
C292 H278 0.961 1_565 S
C292 C291 1.502 . S
C293 H279 0.960 . S
C293 H280 0.961 . S
C293 H281 0.959 . S
C293 C291 1.561 . S
C294 C291 1.526 . S
C294 C295 1.396 . S
C294 C299 1.390 . S
C295 C289 1.465 1_556 S
C295 C294 1.396 . S
C295 C296 1.399 . S
C296 H282 0.929 1_556 S
C296 C295 1.399 . S
C296 C297 1.385 . S
C297 H283 0.931 . S
C297 C296 1.385 . S
C297 C298 1.389 . S
C298 C297 1.389 . S
C298 C299 1.387 . S
C299 H284 0.930 . S
C299 C294 1.390 . S
C299 C298 1.387 . S
H300 C312 0.930 . S
H301 C314 0.930 . S
H302 C315 0.930 . S
H303 C319 0.959 . S
H304 C319 0.959 . S
H305 C319 0.961 . S
H306 C320 0.960 . S
H307 C320 0.961 . S
H308 C320 0.959 . S
H309 C323 0.929 . S
H310 C324 0.931 . S
H311 C326 0.930 . S
C312 H300 0.930 . S
C312 C313 1.399 . S
C312 C317 1.399 . S
C313 C312 1.399 . S
C313 C314 1.376 1_455 S
C314 H301 0.930 . S
C314 C313 1.376 1_655 S
C314 C315 1.388 . S
C315 H302 0.930 . S
C315 C314 1.388 . S
C315 C316 1.390 1_655 S
C316 C315 1.390 1_455 S
C316 C317 1.394 . S
C316 C322 1.465 . S
C317 C312 1.399 . S
C317 C316 1.394 . S
C317 C318 1.516 . S
C318 C317 1.516 . S
C318 C319 1.502 . S
C318 C320 1.561 . S
C318 C321 1.526 . S
C319 H303 0.959 . S
C319 H304 0.959 . S
C319 H305 0.961 . S
C319 C318 1.502 . S
C320 H306 0.960 . S
C320 H307 0.961 . S
C320 H308 0.959 . S
C320 C318 1.561 . S
C321 C318 1.526 . S
C321 C322 1.396 . S
C321 C326 1.390 . S
C322 C316 1.465 . S
C322 C321 1.396 . S
C322 C323 1.399 1_455 S
C323 H309 0.929 . S
C323 C322 1.399 1_655 S
C323 C324 1.385 . S
C324 H310 0.931 . S
C324 C323 1.385 . S
C324 C325 1.389 1_655 S
C325 C324 1.389 1_455 S
C325 C326 1.387 . S
C326 H311 0.930 . S
C326 C321 1.390 . S
C326 C325 1.387 . S
H327 C339 0.930 1_565 S
H328 C341 0.930 . S
H329 C342 0.930 . S
H330 C346 0.959 . S
H331 C346 0.959 . S
H332 C346 0.961 . S
H333 C347 0.960 . S
H334 C347 0.961 . S
H335 C347 0.959 1_545 S
H336 C350 0.929 . S
H337 C351 0.931 . S
H338 C353 0.926 1_565 S
C339 H327 0.930 1_545 S
C339 C340 1.399 . S
C339 C344 1.399 . S
C340 C339 1.399 . S
C340 C341 1.376 . S
C341 H328 0.930 . S
C341 C340 1.376 . S
C341 C342 1.388 . S
C342 H329 0.930 . S
C342 C341 1.388 . S
C342 C343 1.390 . S
C343 C342 1.390 . S
C343 C344 1.394 . S
C343 C349 1.465 . S
C344 C339 1.399 . S
C344 C343 1.394 . S
C344 C345 1.516 . S
C345 C344 1.516 . S
C345 C346 1.502 1_545 S
C345 C347 1.561 1_545 S
C345 C348 1.526 . S
C346 H330 0.959 . S
C346 H331 0.959 . S
C346 H332 0.961 . S
C346 C345 1.502 1_565 S
C347 H333 0.960 . S
C347 H334 0.961 . S
C347 H335 0.959 1_565 S
C347 C345 1.561 1_565 S
C348 C345 1.526 . S
C348 C349 1.396 . S
C348 C353 1.390 . S
C349 C343 1.465 . S
C349 C348 1.396 . S
C349 C350 1.399 . S
C350 H336 0.929 . S
C350 C349 1.399 . S
C350 C351 1.385 . S
C351 H337 0.931 . S
C351 C350 1.385 . S
C351 C352 1.389 . S
C352 C351 1.389 . S
C352 C353 1.387 . S
C353 H338 0.926 1_545 S
C353 C348 1.390 . S
C353 C352 1.387 . S
H354 C366 0.930 1_556 S
H355 C368 0.930 . S
H356 C369 0.930 . S
H357 C373 0.959 . S
H358 C373 0.959 . S
H359 C373 0.961 . S
H360 C374 0.960 . S
H361 C374 0.961 . S
H362 C374 0.959 . S
H363 C377 0.929 1_554 S
H364 C378 0.931 . S
H365 C380 0.930 . S
C366 H354 0.930 1_554 S
C366 C367 1.399 . S
C366 C371 1.399 1_554 S
C367 C366 1.399 . S
C367 C368 1.376 . S
C368 H355 0.930 . S
C368 C367 1.376 . S
C368 C369 1.388 . S
C369 H356 0.930 . S
C369 C368 1.388 . S
C369 C370 1.390 . S
C370 C369 1.390 . S
C370 C371 1.394 1_554 S
C370 C376 1.465 1_554 S
C371 C366 1.399 1_556 S
C371 C370 1.394 1_556 S
C371 C372 1.516 . S
C372 C371 1.516 . S
C372 C373 1.502 . S
C372 C374 1.561 . S
C372 C375 1.526 . S
C373 H357 0.959 . S
C373 H358 0.959 . S
C373 H359 0.961 . S
C373 C372 1.502 . S
C374 H360 0.960 . S
C374 H361 0.961 . S
C374 H362 0.959 . S
C374 C372 1.561 . S
C375 C372 1.526 . S
C375 C376 1.396 . S
C375 C380 1.390 . S
C376 C370 1.465 1_556 S
C376 C375 1.396 . S
C376 C377 1.399 . S
C377 H363 0.929 1_556 S
C377 C376 1.399 . S
C377 C378 1.385 . S
C378 H364 0.931 . S
C378 C377 1.385 . S
C378 C379 1.389 . S
C379 C378 1.389 . S
C379 C380 1.387 . S
C380 H365 0.930 . S
C380 C375 1.390 . S
C380 C379 1.387 . S
H381 C393 0.930 . S
H382 C395 0.930 . S
H383 C396 0.930 . S
H384 C400 0.959 . S
H385 C400 0.959 . S
H386 C400 0.961 . S
H387 C401 0.960 . S
H388 C401 0.961 . S
H389 C401 0.959 . S
H390 C404 0.929 . S
H391 C405 0.931 . S
H392 C407 0.930 . S
C393 H381 0.930 . S
C393 C394 1.399 . S
C393 C398 1.399 . S
C394 C393 1.399 . S
C394 C395 1.376 1_455 S
C395 H382 0.930 . S
C395 C394 1.376 1_655 S
C395 C396 1.388 . S
C396 H383 0.930 . S
C396 C395 1.388 . S
C396 C397 1.390 1_655 S
C397 C396 1.390 1_455 S
C397 C398 1.394 . S
C397 C403 1.465 . S
C398 C393 1.399 . S
C398 C397 1.394 . S
C398 C399 1.516 . S
C399 C398 1.516 . S
C399 C400 1.502 . S
C399 C401 1.561 . S
C399 C402 1.526 . S
C400 H384 0.959 . S
C400 H385 0.959 . S
C400 H386 0.961 . S
C400 C399 1.502 . S
C401 H387 0.960 . S
C401 H388 0.961 . S
C401 H389 0.959 . S
C401 C399 1.561 . S
C402 C399 1.526 . S
C402 C403 1.396 . S
C402 C407 1.390 . S
C403 C397 1.465 . S
C403 C402 1.396 . S
C403 C404 1.399 1_455 S
C404 H390 0.929 . S
C404 C403 1.399 1_655 S
C404 C405 1.385 . S
C405 H391 0.931 . S
C405 C404 1.385 . S
C405 C406 1.389 1_655 S
C406 C405 1.389 1_455 S
C406 C407 1.387 . S
C407 H392 0.930 . S
C407 C402 1.390 . S
C407 C406 1.387 . S
C109 C43 1.440 . S
C97 C0 1.437 . S
C124 C25 1.462 . S
C136 C69 1.465 . S
C151 C33 1.471 1_565 S
C163 C71 1.485 . S
C178 C11 1.411 . S
C190 C55 1.406 . S
C217 C57 1.455 . S
C205 C14 1.451 . S
C232 C37 1.480 . S
C244 C83 1.481 . S
C271 C56 1.456 . S
C259 C28 1.451 . S
C286 C9 1.457 1_565 S
C298 C82 1.466 . S
C325 C42 1.493 . S
C313 C19 1.502 . S
C352 C68 1.457 . S
C340 C39 1.459 . S
C379 C70 1.470 . S
C367 C5 1.473 . S
C394 C23 1.500 . S
C406 C54 1.518 . S
