# Generated by pormake.
# Topology rtl, (3,6)-cn, num edge types: 1
# Building blocks:
#     Node 0, Type 0, BuildingBlock: OLANEW_clean_sbu_2, # of connection points: 3
#     Node 1, Type 0, BuildingBlock: OLANEW_clean_sbu_2, # of connection points: 3
#     Node 2, Type 0, BuildingBlock: OLANEW_clean_sbu_2, # of connection points: 3
#     Node 3, Type 0, BuildingBlock: OLANEW_clean_sbu_2, # of connection points: 3
#     Node 4, Type 1, BuildingBlock: KUMBOL_clean_sbu_1, # of connection points: 6
#     Node 5, Type 1, BuildingBlock: KUMBOL_clean_sbu_1, # of connection points: 6
#     Edge 6, Type (0, 1), BuildingBlock: XIVTED_clean_linker_0, # of connection points: 2
#     Edge 7, Type (0, 1), BuildingBlock: XIVTED_clean_linker_0, # of connection points: 2
#     Edge 8, Type (0, 1), BuildingBlock: XIVTED_clean_linker_0, # of connection points: 2
#     Edge 9, Type (0, 1), BuildingBlock: XIVTED_clean_linker_0, # of connection points: 2
#     Edge 10, Type (0, 1), BuildingBlock: XIVTED_clean_linker_0, # of connection points: 2
#     Edge 11, Type (0, 1), BuildingBlock: XIVTED_clean_linker_0, # of connection points: 2
#     Edge 12, Type (0, 1), BuildingBlock: XIVTED_clean_linker_0, # of connection points: 2
#     Edge 13, Type (0, 1), BuildingBlock: XIVTED_clean_linker_0, # of connection points: 2
#     Edge 14, Type (0, 1), BuildingBlock: XIVTED_clean_linker_0, # of connection points: 2
#     Edge 15, Type (0, 1), BuildingBlock: XIVTED_clean_linker_0, # of connection points: 2
#     Edge 16, Type (0, 1), BuildingBlock: XIVTED_clean_linker_0, # of connection points: 2
#     Edge 17, Type (0, 1), BuildingBlock: XIVTED_clean_linker_0, # of connection points: 2
# Relax obj value: 0.043
# Max RMSD: 0.166
# Mean RMSD: 0.131
data_MOF--net-rtl--node1-OLANEW_clean_sbu_2--node2-KUMBOL_clean_sbu_1--edge1-XIVTED_clean_linker_0
_symmetry_space_group_name_H-M    P1
_symmetry_Int_Tables_number       1
_symmetry_cell_setting            triclinic
loop_
_symmetry_equiv_pos_as_xyz
'x, y, z'
_cell_length_a     37.817904
_cell_length_b     37.629268
_cell_length_c     29.435439
_cell_angle_alpha  75.836109
_cell_angle_beta   102.71606
_cell_angle_gamma 91.239746
loop_
_atom_site_label
_atom_site_type_symbol
_atom_site_fract_x
_atom_site_fract_y
_atom_site_fract_z
_atom_type_partial_charge
O0 O 0.22214 0.85616 0.9794 0.0
Cd1 Cd 0.26637 0.8324 0.0544 0.0
O2 O 0.22503 0.91302 0.9868 0.0
Cd3 Cd 0.24985 0.89882 0.06355 0.0
O4 O 0.23774 0.90213 0.13174 0.0
C5 C 0.22128 0.93154 0.13071 0.0
O6 O 0.21529 0.95777 0.09087 0.0
C7 C 0.21386 0.89006 0.96195 0.0
C8 C 0.30676 0.77468 0.0444 0.0
O9 O 0.27961 0.76853 0.06439 0.0
O10 O 0.31516 0.80806 0.02981 0.0
O11 O 0.65748 0.73517 0.70885 0.0
Cd12 Cd 0.66748 0.77828 0.63568 0.0
O13 O 0.65788 0.68716 0.67876 0.0
Cd14 Cd 0.66561 0.7163 0.60821 0.0
O15 O 0.64987 0.70548 0.53724 0.0
C16 C 0.61985 0.68962 0.53007 0.0
O17 O 0.60074 0.6842 0.56329 0.0
C18 C 0.65459 0.70082 0.71308 0.0
C19 C 0.73569 0.80896 0.63746 0.0
O20 O 0.71178 0.8225 0.65387 0.0
O21 O 0.72788 0.78013 0.62188 0.0
O22 O 0.77084 0.14947 0.15336 0.0
Cd23 Cd 0.73557 0.17599 0.0725 0.0
O24 O 0.80845 0.12526 0.12104 0.0
Cd25 Cd 0.78145 0.14694 0.04633 0.0
O26 O 0.78786 0.14063 0.97758 0.0
C27 C 0.79289 0.10729 0.97807 0.0
O28 O 0.7896 0.08188 0.01633 0.0
C29 C 0.79916 0.13017 0.15799 0.0
C30 C 0.69402 0.23706 0.06711 0.0
O31 O 0.67937 0.20597 0.06759 0.0
O32 O 0.72818 0.23914 0.06938 0.0
O33 O 0.34424 0.28017 0.56155 0.0
Cd34 Cd 0.32237 0.25224 0.4938 0.0
O35 O 0.363 0.32582 0.51083 0.0
Cd36 Cd 0.34863 0.30737 0.44474 0.0
O37 O 0.36054 0.32346 0.37358 0.0
C38 C 0.39411 0.32676 0.37397 0.0
O39 O 0.41762 0.31772 0.41542 0.0
C40 C 0.35929 0.31092 0.55313 0.0
C41 C 0.26499 0.20544 0.50408 0.0
O42 O 0.29738 0.19244 0.51156 0.0
O43 O 0.25985 0.24034 0.49229 0.0
C44 C 0.94417 0.11622 0.51081 0.0
C45 C 0.8814 0.10455 0.47859 0.0
C46 C 0.9157 0.09216 0.50831 0.0
C47 C 0.87622 0.14107 0.45138 0.0
C48 C 0.93907 0.15286 0.4833 0.0
C49 C 0.90495 0.16515 0.45373 0.0
N50 N 0.97719 0.10342 0.53872 0.0
C51 C 0.00597 0.12584 0.54168 0.0
C52 C 0.96859 0.17596 0.48582 0.0
C53 C 0.00218 0.16238 0.51519 0.0
Gd54 Gd 0.02168 0.96353 0.53609 0.0
Gd55 Gd 0.98036 0.04243 0.5832 0.0
N56 N 0.92171 0.05661 0.53419 0.0
C57 C 0.85323 0.07989 0.47714 0.0
C58 C 0.8937 0.03318 0.53491 0.0
C59 C 0.85933 0.04417 0.50583 0.0
H60 H 0.89707 0.00643 0.55883 0.0
H61 H 0.83737 0.02524 0.50621 0.0
H62 H 0.1064 0.99657 0.54288 0.0
H63 H 0.03162 0.11579 0.56536 0.0
H64 H 0.16795 0.97933 0.5909 0.0
H65 H 0.82651 0.08834 0.45477 0.0
H66 H 0.85007 0.15097 0.42831 0.0
H67 H 0.97215 0.88969 0.56137 0.0
H68 H 0.96575 0.20428 0.46526 0.0
H69 H 0.02508 0.1801 0.51769 0.0
H70 H 0.15704 0.85825 0.68616 0.0
H71 H 0.90054 0.19319 0.43233 0.0
H72 H 0.04041 0.80448 0.66439 0.0
H73 H 0.97997 0.82697 0.61391 0.0
N74 N 0.02696 0.90307 0.58338 0.0
C75 C 0.0606 0.89096 0.60975 0.0
C76 C 0.99832 0.88046 0.58411 0.0
C77 C 0.03701 0.83213 0.64166 0.0
C78 C 0.00282 0.84476 0.61337 0.0
C79 C 0.06647 0.85522 0.63998 0.0
H80 H 0.10636 0.81647 0.69127 0.0
N81 N 0.08245 0.9491 0.57776 0.0
C82 C 0.0891 0.91473 0.60714 0.0
C83 C 0.15273 0.92703 0.62936 0.0
C84 C 0.12432 0.90301 0.63429 0.0
C85 C 0.11058 0.97141 0.57023 0.0
C86 C 0.1459 0.96116 0.59657 0.0
O87 O 0.97796 0.05231 0.50365 0.0
O88 O 0.96981 0.99428 0.49388 0.0
O89 O 0.04589 0.969 0.47321 0.0
O90 O 0.01011 0.92405 0.49313 0.0
O91 O 0.96043 0.98461 0.60413 0.0
O92 O 0.96298 0.95924 0.54103 0.0
O93 O 0.02786 0.95455 0.61656 0.0
O94 O 0.0315 0.01243 0.63023 0.0
O95 O 0.94804 0.03992 0.63617 0.0
O96 O 0.98855 0.08114 0.62803 0.0
O97 O 0.04464 0.02082 0.52 0.0
O98 O 0.03963 0.04599 0.58285 0.0
C99 C 0.96647 0.02981 0.47636 0.0
C100 C 0.95037 0.96009 0.57904 0.0
C101 C 0.03212 0.92552 0.42182 0.0
C102 C 0.06279 0.91956 0.35929 0.0
C103 C 0.00606 0.88945 0.36524 0.0
C104 C 0.00459 0.90327 0.40466 0.0
C105 C 0.03505 0.89745 0.34269 0.0
C106 C 0.06124 0.93384 0.39874 0.0
C107 C 0.0297 0.93997 0.46336 0.0
C108 C 0.1302 0.86759 0.66486 0.0
C109 C 0.10136 0.84376 0.66768 0.0
H110 H 0.18017 0.91907 0.64953 0.0
C111 C 0.04015 0.97717 0.64355 0.0
C112 C 0.05512 0.0437 0.5477 0.0
C113 C 0.97603 0.05942 0.70483 0.0
C114 C 0.95933 0.05879 0.78021 0.0
C115 C 0.02009 0.03892 0.78013 0.0
C116 C 0.01098 0.04596 0.73003 0.0
C117 C 0.9944 0.0452 0.80523 0.0
C118 C 0.95043 0.06576 0.72994 0.0
C119 C 0.96499 0.06627 0.6525 0.0
H120 H 0.98469 0.87244 0.3522 0.0
H121 H 0.98173 0.89673 0.4215 0.0
H122 H 0.0359 0.88636 0.31225 0.0
H123 H 0.0827 0.95091 0.41158 0.0
H124 H 0.04708 0.02857 0.79954 0.0
H125 H 0.03105 0.04087 0.71105 0.0
H126 H 0.00205 0.03982 0.84403 0.0
H127 H 0.92327 0.07557 0.7102 0.0
C128 C 0.61185 0.56408 0.03123 0.0
C129 C 0.6046 0.63029 0.00227 0.0
C130 C 0.59169 0.5962 0.02335 0.0
C131 C 0.63754 0.63146 0.98743 0.0
C132 C 0.64559 0.56531 0.01797 0.0
C133 C 0.65792 0.59903 0.99509 0.0
N134 N 0.59931 0.53196 0.05387 0.0
C135 C 0.62102 0.50092 0.06873 0.0
C136 C 0.66646 0.53278 0.02944 0.0
C137 C 0.6544 0.50058 0.05574 0.0
Gd138 Gd 0.46373 0.49971 0.97513 0.0
Gd139 Gd 0.54169 0.53555 0.07126 0.0
N140 N 0.55933 0.59407 0.03649 0.0
C141 C 0.58397 0.66216 0.99677 0.0
C142 C 0.53981 0.62504 0.03323 0.0
C143 C 0.55162 0.65953 0.01281 0.0
H144 H 0.51492 0.62295 0.04587 0.0
H145 H 0.53578 0.68403 0.0094 0.0
H146 H 0.49697 0.41356 0.98945 0.0
H147 H 0.61328 0.47655 0.09174 0.0
H148 H 0.48331 0.35028 0.02598 0.0
H149 H 0.59295 0.68888 0.98069 0.0
H150 H 0.64768 0.65734 0.97051 0.0
H151 H 0.39066 0.5512 0.96653 0.0
H152 H 0.69251 0.53254 0.01987 0.0
H153 H 0.67111 0.47564 0.06681 0.0
H154 H 0.36908 0.36177 0.06735 0.0
H155 H 0.68359 0.60042 0.98422 0.0
H156 H 0.31273 0.48169 0.02615 0.0
H157 H 0.33118 0.54345 0.9885 0.0
N158 N 0.40657 0.49481 0.99396 0.0
C159 C 0.39627 0.46043 0.01225 0.0
C160 C 0.38332 0.5243 0.98407 0.0
C161 C 0.33901 0.48499 0.01692 0.0
C162 C 0.34938 0.51992 0.99588 0.0
C163 C 0.3624 0.45465 0.02501 0.0
H164 H 0.32724 0.41399 0.05581 0.0
N165 N 0.452 0.4375 0.00468 0.0
C166 C 0.41993 0.43101 0.01861 0.0
C167 C 0.43385 0.36582 0.04205 0.0
C168 C 0.41017 0.39501 0.03808 0.0
C169 C 0.4738 0.4089 0.00531 0.0
C170 C 0.46553 0.37278 0.02489 0.0
O171 O 0.52551 0.56503 0.99293 0.0
O172 O 0.51596 0.51952 0.95363 0.0
O173 O 0.44321 0.47387 0.91622 0.0
O174 O 0.43541 0.5332 0.90594 0.0
O175 O 0.48418 0.55604 0.06064 0.0
O176 O 0.45734 0.5583 0.98095 0.0
O177 O 0.45763 0.49346 0.05161 0.0
O178 O 0.51555 0.4823 0.09771 0.0
O179 O 0.53129 0.55854 0.12794 0.0
O180 O 0.58368 0.53311 0.13562 0.0
O181 O 0.5201 0.47382 0.9902 0.0
O182 O 0.54838 0.47657 0.06787 0.0
C183 C 0.52999 0.55092 0.95813 0.0
C184 C 0.46006 0.56969 0.0206 0.0
C185 C 0.41086 0.50818 0.83688 0.0
C186 C 0.39435 0.4828 0.76644 0.0
C187 C 0.37557 0.54525 0.76166 0.0
C188 C 0.39276 0.54134 0.80972 0.0
C189 C 0.37649 0.51631 0.74002 0.0
C190 C 0.41117 0.4787 0.81518 0.0
C191 C 0.43012 0.50498 0.88717 0.0
C192 C 0.37688 0.38922 0.05205 0.0
C193 C 0.35301 0.41894 0.04539 0.0
H194 H 0.42738 0.33778 0.05686 0.0
C195 C 0.48058 0.47665 0.09108 0.0
C196 C 0.54432 0.46174 0.03081 0.0
C197 C 0.5633 0.53157 0.20628 0.0
C198 C 0.56798 0.53912 0.28728 0.0
C199 C 0.55673 0.47919 0.27036 0.0
C200 C 0.55739 0.49412 0.22218 0.0
C201 C 0.56193 0.5015 0.30281 0.0
C202 C 0.56853 0.55387 0.23875 0.0
C203 C 0.56301 0.54849 0.1558 0.0
H204 H 0.36169 0.5709 0.74098 0.0
H205 H 0.39198 0.56436 0.82556 0.0
H206 H 0.36307 0.52005 0.70256 0.0
H207 H 0.42536 0.45309 0.8356 0.0
H208 H 0.55218 0.45026 0.28261 0.0
H209 H 0.55322 0.47661 0.19738 0.0
H210 H 0.56166 0.48926 0.34007 0.0
H211 H 0.57241 0.58294 0.2259 0.0
H212 H 0.25672 0.1371 0.487 0.0
H213 H 0.09054 0.0862 0.60547 0.0
H214 H 0.20369 0.21841 0.53236 0.0
H215 H 0.09139 0.0549 0.4739 0.0
H216 H 0.14095 0.12609 0.5927 0.0
H217 H 0.20472 0.09734 0.4952 0.0
C218 C 0.23422 0.14646 0.49885 0.0
C219 C 0.23435 0.181 0.50906 0.0
C220 C 0.12996 0.11048 0.56667 0.0
C221 C 0.17574 0.13573 0.51926 0.0
C222 C 0.1011 0.08778 0.57371 0.0
C223 C 0.08622 0.06746 0.5403 0.0
C224 C 0.14494 0.11207 0.52682 0.0
C225 C 0.10187 0.07012 0.5005 0.0
C226 C 0.20463 0.12395 0.50317 0.0
C227 C 0.20451 0.19203 0.52398 0.0
N228 N 0.1307 0.0918 0.49506 0.0
N229 N 0.17657 0.16923 0.52927 0.0
H230 H 0.35207 0.77764 0.98281 0.0
H231 H 0.43125 0.57479 0.09537 0.0
H232 H 0.30899 0.70229 0.09174 0.0
H233 H 0.43118 0.62946 0.94836 0.0
H234 H 0.39168 0.62406 0.09907 0.0
H235 H 0.38691 0.72653 0.97379 0.0
C236 C 0.34998 0.75037 0.00484 0.0
C237 C 0.32771 0.74417 0.0382 0.0
C238 C 0.40012 0.62517 0.0659 0.0
C239 C 0.36758 0.68592 0.02828 0.0
C240 C 0.42279 0.59722 0.06383 0.0
C241 C 0.43447 0.59828 0.02153 0.0
C242 C 0.38974 0.65484 0.02573 0.0
C243 C 0.42256 0.62771 0.98154 0.0
C244 C 0.36964 0.72126 -0.00058 0.0
C245 C 0.32579 0.70827 0.06558 0.0
N246 N 0.40114 0.6552 0.98477 0.0
N247 N 0.34578 0.68055 0.06038 0.0
H248 H 0.78389 0.79792 0.58484 0.0
H249 H 0.92121 0.94907 0.65871 0.0
H250 H 0.76604 0.86253 0.68085 0.0
H251 H 0.91127 0.91552 0.52638 0.0
H252 H 0.87095 0.90998 0.67647 0.0
H253 H 0.83798 0.83271 0.5731 0.0
C254 C 0.79156 0.81913 0.60389 0.0
C255 C 0.77029 0.82745 0.6337 0.0
C256 C 0.88 0.91105 0.64373 0.0
C257 C 0.83219 0.86729 0.62043 0.0
C258 C 0.90871 0.93332 0.63353 0.0
C259 C 0.92082 0.93539 0.59114 0.0
C260 C 0.86346 0.89037 0.6116 0.0
C261 C 0.90335 0.9144 0.55986 0.0
C262 C 0.8223 0.83911 0.59692 0.0
C263 C 0.78152 0.85534 0.65733 0.0
N264 N 0.87569 0.89268 0.5708 0.0
N265 N 0.81171 0.87426 0.65021 0.0
H266 H 0.71403 0.29357 0.1088 0.0
H267 H 0.55484 0.43053 0.95964 0.0
H268 H 0.62464 0.25487 0.01649 0.0
H269 H 0.58553 0.4179 0.11324 0.0
H270 H 0.59064 0.37457 0.96934 0.0
H271 H 0.67727 0.34882 0.10072 0.0
C272 C 0.68671 0.29682 0.0868 0.0
C273 C 0.67212 0.26982 0.06336 0.0
C274 C 0.58949 0.38436 0.00068 0.0
C275 C 0.63085 0.33274 0.05308 0.0
C276 C 0.5692 0.41619 0.99532 0.0
C277 C 0.56713 0.42897 0.03571 0.0
C278 C 0.60879 0.36598 0.04645 0.0
C279 C 0.58663 0.40937 0.08102 0.0
C280 C 0.66587 0.32809 0.08239 0.0
C281 C 0.63663 0.27508 0.03534 0.0
N282 N 0.60701 0.37899 0.08514 0.0
N283 N 0.61724 0.30631 0.03038 0.0
H284 H 0.17997 0.98851 0.13603 0.0
H285 H 0.12354 0.87699 0.3764 0.0
H286 H 0.22502 0.88142 0.21715 0.0
H287 H 0.06966 0.97734 0.2858 0.0
H288 H 0.16854 0.88356 0.32647 0.0
H289 H 0.14703 0.99005 0.19811 0.0
C290 C 0.1833 0.96546 0.16717 0.0
C291 C 0.20497 0.93456 0.17105 0.0
C292 C 0.14725 0.90448 0.31787 0.0
C293 C 0.16712 0.93615 0.24231 0.0
C294 C 0.12181 0.90082 0.3465 0.0
C295 C 0.09329 0.92682 0.33509 0.0
C296 C 0.14379 0.93418 0.27731 0.0
C297 C 0.09161 0.95697 0.29576 0.0
C298 C 0.16439 0.96636 0.2026 0.0
C299 C 0.20837 0.90566 0.21241 0.0
N300 N 0.11637 0.95969 0.26796 0.0
N301 N 0.18937 0.90702 0.24622 0.0
H302 H 0.65126 0.62591 0.73677 0.0
H303 H 0.53041 0.62495 0.92699 0.0
H304 H 0.63015 0.72167 0.78416 0.0
H305 H 0.57195 0.52544 0.90701 0.0
H306 H 0.56553 0.66068 0.87255 0.0
H307 H 0.62268 0.58832 0.79809 0.0
C308 C 0.64108 0.63901 0.76049 0.0
C309 C 0.64288 0.67714 0.75499 0.0
C310 C 0.56711 0.63105 0.88002 0.0
C311 C 0.6096 0.63421 0.8248 0.0
C312 C 0.54703 0.61065 0.91106 0.0
C313 C 0.54872 0.57226 0.9219 0.0
C314 C 0.58866 0.61296 0.85889 0.0
C315 C 0.56996 0.55506 0.89948 0.0
C316 C 0.62468 0.61748 0.79543 0.0
C317 C 0.62932 0.69246 0.78692 0.0
N318 N 0.58919 0.57556 0.86897 0.0
N319 N 0.61289 0.67102 0.82006 0.0
H320 H 0.84358 0.06941 0.18358 0.0
H321 H 0.95352 0.10186 0.4269 0.0
H322 H 0.80759 0.15426 0.24032 0.0
H323 H 0.92751 0.99179 0.41478 0.0
H324 H 0.90985 0.12596 0.35114 0.0
H325 H 0.88462 0.04439 0.2615 0.0
C326 C 0.84422 0.08266 0.21253 0.0
C327 C 0.82212 0.11385 0.20572 0.0
C328 C 0.91371 0.09656 0.36538 0.0
C329 C 0.86938 0.08588 0.29402 0.0
C330 C 0.9384 0.08275 0.40869 0.0
C331 C 0.94319 0.04474 0.4282 0.0
C332 C 0.89498 0.07217 0.34037 0.0
C333 C 0.92428 0.02129 0.40153 0.0
C334 C 0.86751 0.06833 0.25682 0.0
C335 C 0.82402 0.13001 0.24433 0.0
N336 N 0.90109 0.03541 0.35873 0.0
N337 N 0.84769 0.11608 0.28687 0.0
H338 H 0.4022 0.36991 0.54895 0.0
H339 H 0.3774 0.41038 0.79487 0.0
H340 H 0.34438 0.29781 0.64366 0.0
H341 H 0.415 0.48754 0.68249 0.0
H342 H 0.37445 0.3637 0.74836 0.0
H343 H 0.41688 0.40753 0.60623 0.0
C344 C 0.39271 0.36181 0.58203 0.0
C345 C 0.37147 0.33092 0.59108 0.0
C346 C 0.38363 0.39077 0.7342 0.0
C347 C 0.38814 0.3744 0.65719 0.0
C348 C 0.38547 0.41728 0.76075 0.0
C349 C 0.396 0.45293 0.74208 0.0
C350 C 0.39283 0.40003 0.6891 0.0
C351 C 0.40617 0.46057 0.69778 0.0
C352 C 0.40114 0.3834 0.61482 0.0
C353 C 0.36056 0.32157 0.63505 0.0
N354 N 0.40419 0.43445 0.67282 0.0
N355 N 0.36868 0.34351 0.66635 0.0
H356 H 0.65358 0.69341 0.45548 0.0
H357 H 0.53128 0.54026 0.3576 0.0
H358 H 0.56156 0.64721 0.51091 0.0
H359 H 0.6174 0.59296 0.29404 0.0
H360 H 0.54104 0.58042 0.41285 0.0
H361 H 0.63896 0.65919 0.39339 0.0
C362 C 0.63012 0.67636 0.45434 0.0
C363 C 0.60901 0.67287 0.48877 0.0
C364 C 0.55771 0.58331 0.38668 0.0
C365 C 0.59236 0.63332 0.41819 0.0
C366 C 0.55234 0.56017 0.35541 0.0
C367 C 0.57362 0.56316 0.32125 0.0
C368 C 0.58473 0.60951 0.38401 0.0
C369 C 0.60014 0.5899 0.31951 0.0
C370 C 0.62182 0.65676 0.41894 0.0
C371 C 0.57878 0.65054 0.48535 0.0
N372 N 0.60503 0.61191 0.35056 0.0
N373 N 0.57157 0.63136 0.45101 0.0
H374 H 0.81841 0.04008 0.978 0.0
H375 H 0.91228 0.11792 0.75729 0.0
H376 H 0.8059 0.15283 0.89559 0.0
H377 H 0.94315 0.01469 0.86132 0.0
H378 H 0.8657 0.12781 0.79922 0.0
H379 H 0.85554 0.0268 0.92579 0.0
C380 C 0.82298 0.06194 0.94845 0.0
C381 C 0.80951 0.09776 0.94157 0.0
C382 C 0.88264 0.10298 0.8128 0.0
C383 C 0.85224 0.08275 0.882 0.0
C384 C 0.90914 0.09727 0.78888 0.0
C385 C 0.93169 0.06548 0.80604 0.0
C386 C 0.87855 0.07665 0.85405 0.0
C387 C 0.92669 0.0398 0.84732 0.0
C388 C 0.84438 0.05436 0.91886 0.0
C389 C 0.81612 0.12492 0.90251 0.0
N390 N 0.90062 0.04594 0.86994 0.0
N391 N 0.83734 0.11692 0.87439 0.0
H392 H 0.46378 0.33413 0.3626 0.0
H393 H 0.41132 0.47407 0.10542 0.0
H394 H 0.35285 0.36018 0.285 0.0
H395 H 0.5185 0.42471 0.1672 0.0
H396 H 0.38916 0.43369 0.17111 0.0
H397 H 0.48437 0.36839 0.292 0.0
C398 C 0.44371 0.34676 0.33054 0.0
C399 C 0.40652 0.34437 0.32977 0.0
C400 C 0.41747 0.43152 0.1701 0.0
C401 C 0.42998 0.38396 0.24884 0.0
C402 C 0.43008 0.45437 0.1324 0.0
C403 C 0.46671 0.45245 0.13049 0.0
C404 C 0.44185 0.40706 0.2067 0.0
C405 C 0.49008 0.42728 0.16738 0.0
C406 C 0.45551 0.36633 0.2902 0.0
C407 C 0.38178 0.36132 0.28718 0.0
N408 N 0.4773 0.40572 0.2041 0.0
N409 N 0.39397 0.38069 0.24851 0.0
H410 H 0.19507 0.96074 0.91131 0.0
H411 H 0.05237 0.90611 0.69771 0.0
H412 H 0.17832 0.84857 0.90224 0.0
H413 H 0.08736 0.01642 0.69475 0.0
H414 H 0.09676 0.88403 0.77355 0.0
H415 H 0.15371 0.9814 0.83315 0.0
C416 C 0.18283 0.94042 0.89281 0.0
C417 C 0.19017 0.90283 0.91347 0.0
C418 C 0.09472 0.91305 0.75621 0.0
C419 C 0.14252 0.92638 0.82383 0.0
C420 C 0.06953 0.92563 0.71281 0.0
C421 C 0.06623 0.96312 0.68977 0.0
C422 C 0.11635 0.93827 0.777 0.0
C423 C 0.08863 0.98732 0.71149 0.0
C424 C 0.15921 0.95226 0.84809 0.0
C425 C 0.17347 0.87781 0.88769 0.0
N426 N 0.11261 0.9745 0.75392 0.0
N427 N 0.15026 0.89003 0.84429 0.0
loop_
_geom_bond_atom_site_label_1
_geom_bond_atom_site_label_2
_geom_bond_distance
_geom_bond_site_symmetry_2
_ccdc_geom_bond_type
O0 Cd1 2.300 1_556 S
O0 C7 1.275 . S
Cd1 O0 2.300 1_554 S
Cd1 O9 2.381 . S
Cd1 O10 2.378 . S
O2 Cd3 2.385 1_556 S
O2 C7 1.255 . S
Cd3 O2 2.385 1_554 S
Cd3 O4 2.317 . S
O4 Cd3 2.317 . S
O4 C5 1.232 . S
C5 O4 1.232 . S
C5 O6 1.218 . S
O6 C5 1.218 . S
C7 O0 1.275 . S
C7 O2 1.255 . S
C8 O9 1.258 . S
C8 O10 1.256 . S
O9 Cd1 2.381 . S
O9 C8 1.258 . S
O10 Cd1 2.378 . S
O10 C8 1.256 . S
O11 Cd12 2.300 . S
O11 C18 1.275 . S
Cd12 O11 2.300 . S
Cd12 O20 2.381 . S
Cd12 O21 2.378 . S
O13 Cd14 2.385 . S
O13 C18 1.255 . S
Cd14 O13 2.385 . S
Cd14 O15 2.317 . S
O15 Cd14 2.317 . S
O15 C16 1.232 . S
C16 O15 1.232 . S
C16 O17 1.218 . S
O17 C16 1.218 . S
C18 O11 1.275 . S
C18 O13 1.255 . S
C19 O20 1.258 . S
C19 O21 1.256 . S
O20 Cd12 2.381 . S
O20 C19 1.258 . S
O21 Cd12 2.378 . S
O21 C19 1.256 . S
O22 Cd23 2.300 . S
O22 C29 1.275 . S
Cd23 O22 2.300 . S
Cd23 O31 2.381 . S
Cd23 O32 2.378 . S
O24 Cd25 2.385 . S
O24 C29 1.255 . S
Cd25 O24 2.385 . S
Cd25 O26 2.317 . S
O26 Cd25 2.317 . S
O26 C27 1.232 . S
C27 O26 1.232 . S
C27 O28 1.218 . S
O28 C27 1.218 . S
C29 O22 1.275 . S
C29 O24 1.255 . S
C30 O31 1.258 . S
C30 O32 1.256 . S
O31 Cd23 2.381 . S
O31 C30 1.258 . S
O32 Cd23 2.378 . S
O32 C30 1.256 . S
O33 Cd34 2.300 . S
O33 C40 1.275 . S
Cd34 O33 2.300 . S
Cd34 O42 2.381 . S
Cd34 O43 2.378 . S
O35 Cd36 2.385 . S
O35 C40 1.255 . S
Cd36 O35 2.385 . S
Cd36 O37 2.317 . S
O37 Cd36 2.317 . S
O37 C38 1.232 . S
C38 O37 1.232 . S
C38 O39 1.218 . S
O39 C38 1.218 . S
C40 O33 1.275 . S
C40 O35 1.255 . S
C41 O42 1.258 . S
C41 O43 1.256 . S
O42 Cd34 2.381 . S
O42 C41 1.258 . S
O43 Cd34 2.378 . S
O43 C41 1.256 . S
C44 C46 1.422 . S
C44 C48 1.415 . S
C44 N50 1.369 . S
C45 C46 1.421 . S
C45 C47 1.417 . S
C45 C57 1.422 . S
C46 C44 1.422 . S
C46 C45 1.421 . S
C46 N56 1.359 . S
C47 C45 1.417 . S
C47 C49 1.329 . S
C47 H66 0.930 . S
C48 C44 1.415 . S
C48 C49 1.437 . S
C48 C52 1.413 . S
C49 C47 1.329 . S
C49 C48 1.437 . S
C49 H71 0.929 . S
N50 C44 1.369 . S
N50 C51 1.338 1_655 S
N50 Gd55 2.622 . S
C51 N50 1.338 1_455 S
C51 C53 1.378 . S
C51 H63 0.929 . S
C52 C48 1.413 . S
C52 C53 1.348 1_655 S
C52 H68 0.931 . S
C53 C51 1.378 . S
C53 C52 1.348 1_455 S
C53 H69 0.930 . S
Gd54 N74 2.622 . S
Gd54 N81 2.570 . S
Gd54 O88 2.353 1_465 S
Gd54 O89 2.468 . S
Gd54 O90 2.427 . S
Gd54 O92 2.388 1_455 S
Gd54 O93 2.386 . S
Gd54 O97 2.307 1_565 S
Gd54 C107 2.805 . S
Gd55 N50 2.622 . S
Gd55 N56 2.570 . S
Gd55 O87 2.386 . S
Gd55 O91 2.307 1_545 S
Gd55 O94 2.353 1_655 S
Gd55 O95 2.468 . S
Gd55 O96 2.427 . S
Gd55 O98 2.388 1_655 S
Gd55 C119 2.805 . S
N56 C46 1.359 . S
N56 Gd55 2.570 . S
N56 C58 1.343 . S
C57 C45 1.422 . S
C57 C59 1.321 . S
C57 H65 0.931 . S
C58 N56 1.343 . S
C58 C59 1.390 . S
C58 H60 0.931 . S
C59 C57 1.321 . S
C59 C58 1.390 . S
C59 H61 0.930 . S
H60 C58 0.931 . S
H61 C59 0.930 . S
H62 C85 0.931 . S
H63 C51 0.929 . S
H64 C86 0.930 . S
H65 C57 0.931 . S
H66 C47 0.930 . S
H67 C76 0.929 1_655 S
H68 C52 0.931 . S
H69 C53 0.930 . S
H70 C108 0.930 . S
H71 C49 0.929 . S
H72 C77 0.931 . S
H73 C78 0.930 1_655 S
N74 Gd54 2.622 . S
N74 C75 1.369 . S
N74 C76 1.338 . S
C75 N74 1.369 . S
C75 C79 1.415 . S
C75 C82 1.422 . S
C76 H67 0.929 1_455 S
C76 N74 1.338 . S
C76 C78 1.378 . S
C77 H72 0.931 . S
C77 C78 1.348 . S
C77 C79 1.413 . S
C78 H73 0.930 1_455 S
C78 C76 1.378 . S
C78 C77 1.348 . S
C79 C75 1.415 . S
C79 C77 1.413 . S
C79 C109 1.437 . S
H80 C109 0.929 . S
N81 Gd54 2.570 . S
N81 C82 1.359 . S
N81 C85 1.343 . S
C82 C75 1.422 . S
C82 N81 1.359 . S
C82 C84 1.421 . S
C83 C84 1.422 . S
C83 C86 1.321 . S
C83 H110 0.931 . S
C84 C82 1.421 . S
C84 C83 1.422 . S
C84 C108 1.417 . S
C85 H62 0.931 . S
C85 N81 1.343 . S
C85 C86 1.390 . S
C86 H64 0.930 . S
C86 C83 1.321 . S
C86 C85 1.390 . S
O87 Gd55 2.386 . S
O87 C99 1.265 . S
O88 Gd54 2.353 1_645 S
O88 C99 1.242 . S
O89 Gd54 2.468 . S
O89 C107 1.263 . S
O90 Gd54 2.427 . S
O90 C107 1.252 . S
O91 Gd55 2.307 1_565 S
O91 C100 1.261 . S
O92 Gd54 2.388 1_655 S
O92 C100 1.252 . S
O93 Gd54 2.386 . S
O93 C111 1.265 . S
O94 Gd55 2.353 1_455 S
O94 C111 1.242 1_545 S
O95 Gd55 2.468 . S
O95 C119 1.263 . S
O96 Gd55 2.427 . S
O96 C119 1.252 . S
O97 Gd54 2.307 1_545 S
O97 C112 1.261 . S
O98 Gd55 2.388 1_455 S
O98 C112 1.252 . S
C99 O87 1.265 . S
C99 O88 1.242 . S
C100 O91 1.261 . S
C100 O92 1.252 . S
C101 C104 1.394 . S
C101 C106 1.370 . S
C101 C107 1.500 . S
C102 C105 1.383 . S
C102 C106 1.395 . S
C103 C104 1.396 . S
C103 C105 1.365 . S
C103 H120 0.929 . S
C104 C101 1.394 . S
C104 C103 1.396 . S
C104 H121 0.930 . S
C105 C102 1.383 . S
C105 C103 1.365 . S
C105 H122 0.931 . S
C106 C101 1.370 . S
C106 C102 1.395 . S
C106 H123 0.930 . S
C107 Gd54 2.805 . S
C107 O89 1.263 . S
C107 O90 1.252 . S
C107 C101 1.500 . S
C108 H70 0.930 . S
C108 C84 1.417 . S
C108 C109 1.329 . S
C109 C79 1.437 . S
C109 H80 0.929 . S
C109 C108 1.329 . S
H110 C83 0.931 . S
C111 O93 1.265 . S
C111 O94 1.242 1_565 S
C112 O97 1.261 . S
C112 O98 1.252 . S
C113 C116 1.394 . S
C113 C118 1.370 . S
C113 C119 1.500 . S
C114 C117 1.383 . S
C114 C118 1.395 . S
C115 C116 1.396 . S
C115 C117 1.365 . S
C115 H124 0.929 . S
C116 C113 1.394 . S
C116 C115 1.396 . S
C116 H125 0.930 . S
C117 C114 1.383 . S
C117 C115 1.365 . S
C117 H126 0.931 . S
C118 C113 1.370 . S
C118 C114 1.395 . S
C118 H127 0.930 . S
C119 Gd55 2.805 . S
C119 O95 1.263 . S
C119 O96 1.252 . S
C119 C113 1.500 . S
H120 C103 0.929 . S
H121 C104 0.930 . S
H122 C105 0.931 . S
H123 C106 0.930 . S
H124 C115 0.929 . S
H125 C116 0.930 . S
H126 C117 0.931 . S
H127 C118 0.930 . S
C128 C130 1.422 . S
C128 C132 1.415 . S
C128 N134 1.369 . S
C129 C130 1.421 . S
C129 C131 1.417 . S
C129 C141 1.422 . S
C130 C128 1.422 . S
C130 C129 1.421 . S
C130 N140 1.359 . S
C131 C129 1.417 . S
C131 C133 1.329 . S
C131 H150 0.930 . S
C132 C128 1.415 . S
C132 C133 1.437 . S
C132 C136 1.413 . S
C133 C131 1.329 . S
C133 C132 1.437 . S
C133 H155 0.929 . S
N134 C128 1.369 . S
N134 C135 1.338 . S
N134 Gd139 2.622 . S
C135 N134 1.338 . S
C135 C137 1.378 . S
C135 H147 0.929 . S
C136 C132 1.413 . S
C136 C137 1.348 . S
C136 H152 0.931 . S
C137 C135 1.378 . S
C137 C136 1.348 . S
C137 H153 0.930 . S
Gd138 N158 2.622 . S
Gd138 N165 2.570 1_556 S
Gd138 O172 2.353 . S
Gd138 O173 2.468 . S
Gd138 O174 2.427 . S
Gd138 O176 2.388 . S
Gd138 O177 2.386 1_556 S
Gd138 O181 2.307 1_556 S
Gd138 C191 2.805 . S
Gd139 N134 2.622 . S
Gd139 N140 2.570 . S
Gd139 O171 2.386 1_554 S
Gd139 O175 2.307 . S
Gd139 O178 2.353 . S
Gd139 O179 2.468 . S
Gd139 O180 2.427 . S
Gd139 O182 2.388 . S
Gd139 C203 2.805 . S
N140 C130 1.359 . S
N140 Gd139 2.570 . S
N140 C142 1.343 . S
C141 C129 1.422 . S
C141 C143 1.321 . S
C141 H149 0.931 . S
C142 N140 1.343 . S
C142 C143 1.390 . S
C142 H144 0.931 . S
C143 C141 1.321 . S
C143 C142 1.390 . S
C143 H145 0.930 . S
H144 C142 0.931 . S
H145 C143 0.930 . S
H146 C169 0.931 . S
H147 C135 0.929 . S
H148 C170 0.930 . S
H149 C141 0.931 . S
H150 C131 0.930 . S
H151 C160 0.929 . S
H152 C136 0.931 . S
H153 C137 0.930 . S
H154 C192 0.930 . S
H155 C133 0.929 . S
H156 C161 0.931 . S
H157 C162 0.930 . S
N158 Gd138 2.622 . S
N158 C159 1.369 1_556 S
N158 C160 1.338 . S
C159 N158 1.369 1_554 S
C159 C163 1.415 . S
C159 C166 1.422 . S
C160 H151 0.929 . S
C160 N158 1.338 . S
C160 C162 1.378 . S
C161 H156 0.931 . S
C161 C162 1.348 1_554 S
C161 C163 1.413 . S
C162 H157 0.930 . S
C162 C160 1.378 . S
C162 C161 1.348 1_556 S
C163 C159 1.415 . S
C163 C161 1.413 . S
C163 C193 1.437 . S
H164 C193 0.929 . S
N165 Gd138 2.570 1_554 S
N165 C166 1.359 . S
N165 C169 1.343 . S
C166 C159 1.422 . S
C166 N165 1.359 . S
C166 C168 1.421 . S
C167 C168 1.422 . S
C167 C170 1.321 . S
C167 H194 0.931 . S
C168 C166 1.421 . S
C168 C167 1.422 . S
C168 C192 1.417 . S
C169 H146 0.931 . S
C169 N165 1.343 . S
C169 C170 1.390 . S
C170 H148 0.930 . S
C170 C167 1.321 . S
C170 C169 1.390 . S
O171 Gd139 2.386 1_556 S
O171 C183 1.265 . S
O172 Gd138 2.353 . S
O172 C183 1.242 . S
O173 Gd138 2.468 . S
O173 C191 1.263 . S
O174 Gd138 2.427 . S
O174 C191 1.252 . S
O175 Gd139 2.307 . S
O175 C184 1.261 . S
O176 Gd138 2.388 . S
O176 C184 1.252 1_556 S
O177 Gd138 2.386 1_554 S
O177 C195 1.265 . S
O178 Gd139 2.353 . S
O178 C195 1.242 . S
O179 Gd139 2.468 . S
O179 C203 1.263 . S
O180 Gd139 2.427 . S
O180 C203 1.252 . S
O181 Gd138 2.307 1_554 S
O181 C196 1.261 . S
O182 Gd139 2.388 . S
O182 C196 1.252 . S
C183 O171 1.265 . S
C183 O172 1.242 . S
C184 O175 1.261 . S
C184 O176 1.252 1_554 S
C185 C188 1.394 . S
C185 C190 1.370 . S
C185 C191 1.500 . S
C186 C189 1.383 . S
C186 C190 1.395 . S
C187 C188 1.396 . S
C187 C189 1.365 . S
C187 H204 0.929 . S
C188 C185 1.394 . S
C188 C187 1.396 . S
C188 H205 0.930 . S
C189 C186 1.383 . S
C189 C187 1.365 . S
C189 H206 0.931 . S
C190 C185 1.370 . S
C190 C186 1.395 . S
C190 H207 0.930 . S
C191 Gd138 2.805 . S
C191 O173 1.263 . S
C191 O174 1.252 . S
C191 C185 1.500 . S
C192 H154 0.930 . S
C192 C168 1.417 . S
C192 C193 1.329 . S
C193 C163 1.437 . S
C193 H164 0.929 . S
C193 C192 1.329 . S
H194 C167 0.931 . S
C195 O177 1.265 . S
C195 O178 1.242 . S
C196 O181 1.261 . S
C196 O182 1.252 . S
C197 C200 1.394 . S
C197 C202 1.370 . S
C197 C203 1.500 . S
C198 C201 1.383 . S
C198 C202 1.395 . S
C199 C200 1.396 . S
C199 C201 1.365 . S
C199 H208 0.929 . S
C200 C197 1.394 . S
C200 C199 1.396 . S
C200 H209 0.930 . S
C201 C198 1.383 . S
C201 C199 1.365 . S
C201 H210 0.931 . S
C202 C197 1.370 . S
C202 C198 1.395 . S
C202 H211 0.930 . S
C203 Gd139 2.805 . S
C203 O179 1.263 . S
C203 O180 1.252 . S
C203 C197 1.500 . S
H204 C187 0.929 . S
H205 C188 0.930 . S
H206 C189 0.931 . S
H207 C190 0.930 . S
H208 C199 0.929 . S
H209 C200 0.930 . S
H210 C201 0.931 . S
H211 C202 0.930 . S
H212 C218 0.930 . S
H213 C222 0.930 . S
H214 C227 0.929 . S
H215 C225 0.929 . S
H216 C220 0.929 . S
H217 C226 0.929 . S
C218 H212 0.930 . S
C218 C219 1.367 . S
C218 C226 1.378 . S
C219 C218 1.367 . S
C219 C227 1.433 . S
C220 H216 0.929 . S
C220 C222 1.378 . S
C220 C224 1.350 . S
C221 C224 1.463 . S
C221 C226 1.350 . S
C221 N229 1.427 . S
C222 H213 0.930 . S
C222 C220 1.378 . S
C222 C223 1.367 . S
C223 C222 1.367 . S
C223 C225 1.433 . S
C224 C220 1.350 . S
C224 C221 1.463 . S
C224 N228 1.427 . S
C225 H215 0.929 . S
C225 C223 1.433 . S
C225 N228 1.384 . S
C226 H217 0.929 . S
C226 C218 1.378 . S
C226 C221 1.350 . S
C227 H214 0.929 . S
C227 C219 1.433 . S
C227 N229 1.384 . S
N228 C224 1.427 . S
N228 C225 1.384 . S
N229 C221 1.427 . S
N229 C227 1.384 . S
H230 C236 0.930 1_556 S
H231 C240 0.930 . S
H232 C245 0.929 . S
H233 C243 0.929 1_556 S
H234 C238 0.929 . S
H235 C244 0.929 1_556 S
C236 H230 0.930 1_554 S
C236 C237 1.367 . S
C236 C244 1.378 . S
C237 C236 1.367 . S
C237 C245 1.433 . S
C238 H234 0.929 . S
C238 C240 1.378 . S
C238 C242 1.350 . S
C239 C242 1.463 . S
C239 C244 1.350 . S
C239 N247 1.427 . S
C240 H231 0.930 . S
C240 C238 1.378 . S
C240 C241 1.367 . S
C241 C240 1.367 . S
C241 C243 1.433 . S
C242 C238 1.350 . S
C242 C239 1.463 . S
C242 N246 1.427 . S
C243 H233 0.929 1_554 S
C243 C241 1.433 . S
C243 N246 1.384 . S
C244 H235 0.929 1_554 S
C244 C236 1.378 . S
C244 C239 1.350 . S
C245 H232 0.929 . S
C245 C237 1.433 . S
C245 N247 1.384 . S
N246 C242 1.427 . S
N246 C243 1.384 . S
N247 C239 1.427 . S
N247 C245 1.384 . S
H248 C254 0.930 . S
H249 C258 0.930 . S
H250 C263 0.929 . S
H251 C261 0.929 . S
H252 C256 0.929 . S
H253 C262 0.929 . S
C254 H248 0.930 . S
C254 C255 1.367 . S
C254 C262 1.378 . S
C255 C254 1.367 . S
C255 C263 1.433 . S
C256 H252 0.929 . S
C256 C258 1.378 . S
C256 C260 1.350 . S
C257 C260 1.463 . S
C257 C262 1.350 . S
C257 N265 1.427 . S
C258 H249 0.930 . S
C258 C256 1.378 . S
C258 C259 1.367 . S
C259 C258 1.367 . S
C259 C261 1.433 . S
C260 C256 1.350 . S
C260 C257 1.463 . S
C260 N264 1.427 . S
C261 H251 0.929 . S
C261 C259 1.433 . S
C261 N264 1.384 . S
C262 H253 0.929 . S
C262 C254 1.378 . S
C262 C257 1.350 . S
C263 H250 0.929 . S
C263 C255 1.433 . S
C263 N265 1.384 . S
N264 C260 1.427 . S
N264 C261 1.384 . S
N265 C257 1.427 . S
N265 C263 1.384 . S
H266 C272 0.930 . S
H267 C276 0.930 1_556 S
H268 C281 0.912 1_556 S
H269 C279 0.929 . S
H270 C274 0.929 1_556 S
H271 C280 0.929 . S
C272 H266 0.930 . S
C272 C273 1.367 . S
C272 C280 1.378 . S
C273 C272 1.367 . S
C273 C281 1.433 . S
C274 H270 0.929 1_554 S
C274 C276 1.378 . S
C274 C278 1.350 . S
C275 C278 1.463 . S
C275 C280 1.350 . S
C275 N283 1.427 . S
C276 H267 0.930 1_554 S
C276 C274 1.378 . S
C276 C277 1.367 . S
C277 C276 1.367 . S
C277 C279 1.433 . S
C278 C274 1.350 . S
C278 C275 1.463 . S
C278 N282 1.427 . S
C279 H269 0.929 . S
C279 C277 1.433 . S
C279 N282 1.384 . S
C280 H271 0.929 . S
C280 C272 1.378 . S
C280 C275 1.350 . S
C281 H268 0.912 1_554 S
C281 C273 1.433 . S
C281 N283 1.384 . S
N282 C278 1.427 . S
N282 C279 1.384 . S
N283 C275 1.427 . S
N283 C281 1.384 . S
H284 C290 0.930 . S
H285 C294 0.930 . S
H286 C299 0.929 . S
H287 C297 0.929 1_545 S
H288 C292 0.929 . S
H289 C298 0.929 . S
C290 H284 0.930 . S
C290 C291 1.367 . S
C290 C298 1.378 . S
C291 C290 1.367 . S
C291 C299 1.433 . S
C292 H288 0.929 . S
C292 C294 1.378 . S
C292 C296 1.350 . S
C293 C296 1.463 . S
C293 C298 1.350 . S
C293 N301 1.427 . S
C294 H285 0.930 . S
C294 C292 1.378 . S
C294 C295 1.367 . S
C295 C294 1.367 . S
C295 C297 1.433 . S
C296 C292 1.350 . S
C296 C293 1.463 . S
C296 N300 1.427 . S
C297 H287 0.929 1_565 S
C297 C295 1.433 . S
C297 N300 1.384 . S
C298 H289 0.929 . S
C298 C290 1.378 . S
C298 C293 1.350 . S
C299 H286 0.929 . S
C299 C291 1.433 . S
C299 N301 1.384 . S
N300 C296 1.427 . S
N300 C297 1.384 . S
N301 C293 1.427 . S
N301 C299 1.384 . S
H302 C308 0.930 . S
H303 C312 0.930 . S
H304 C317 0.929 . S
H305 C315 0.929 . S
H306 C310 0.929 . S
H307 C316 0.929 . S
C308 H302 0.930 . S
C308 C309 1.367 . S
C308 C316 1.378 . S
C309 C308 1.367 . S
C309 C317 1.433 . S
C310 H306 0.929 . S
C310 C312 1.378 . S
C310 C314 1.350 . S
C311 C314 1.463 . S
C311 C316 1.350 . S
C311 N319 1.427 . S
C312 H303 0.930 . S
C312 C310 1.378 . S
C312 C313 1.367 . S
C313 C312 1.367 . S
C313 C315 1.433 . S
C314 C310 1.350 . S
C314 C311 1.463 . S
C314 N318 1.427 . S
C315 H305 0.929 . S
C315 C313 1.433 . S
C315 N318 1.384 . S
C316 H307 0.929 . S
C316 C308 1.378 . S
C316 C311 1.350 . S
C317 H304 0.929 . S
C317 C309 1.433 . S
C317 N319 1.384 . S
N318 C314 1.427 . S
N318 C315 1.384 . S
N319 C311 1.427 . S
N319 C317 1.384 . S
H320 C326 0.930 . S
H321 C330 0.930 . S
H322 C335 0.929 . S
H323 C333 0.929 . S
H324 C328 0.929 . S
H325 C334 0.929 . S
C326 H320 0.930 . S
C326 C327 1.367 . S
C326 C334 1.378 . S
C327 C326 1.367 . S
C327 C335 1.433 . S
C328 H324 0.929 . S
C328 C330 1.378 . S
C328 C332 1.350 . S
C329 C332 1.463 . S
C329 C334 1.350 . S
C329 N337 1.427 . S
C330 H321 0.930 . S
C330 C328 1.378 . S
C330 C331 1.367 . S
C331 C330 1.367 . S
C331 C333 1.433 . S
C332 C328 1.350 . S
C332 C329 1.463 . S
C332 N336 1.427 . S
C333 H323 0.929 . S
C333 C331 1.433 . S
C333 N336 1.384 . S
C334 H325 0.929 . S
C334 C326 1.378 . S
C334 C329 1.350 . S
C335 H322 0.929 . S
C335 C327 1.433 . S
C335 N337 1.384 . S
N336 C332 1.427 . S
N336 C333 1.384 . S
N337 C329 1.427 . S
N337 C335 1.384 . S
H338 C344 0.930 . S
H339 C348 0.930 . S
H340 C353 0.929 . S
H341 C351 0.929 . S
H342 C346 0.929 . S
H343 C352 0.929 . S
C344 H338 0.930 . S
C344 C345 1.367 . S
C344 C352 1.378 . S
C345 C344 1.367 . S
C345 C353 1.433 . S
C346 H342 0.929 . S
C346 C348 1.378 . S
C346 C350 1.350 . S
C347 C350 1.463 . S
C347 C352 1.350 . S
C347 N355 1.427 . S
C348 H339 0.930 . S
C348 C346 1.378 . S
C348 C349 1.367 . S
C349 C348 1.367 . S
C349 C351 1.433 . S
C350 C346 1.350 . S
C350 C347 1.463 . S
C350 N354 1.427 . S
C351 H341 0.929 . S
C351 C349 1.433 . S
C351 N354 1.384 . S
C352 H343 0.929 . S
C352 C344 1.378 . S
C352 C347 1.350 . S
C353 H340 0.929 . S
C353 C345 1.433 . S
C353 N355 1.384 . S
N354 C350 1.427 . S
N354 C351 1.384 . S
N355 C347 1.427 . S
N355 C353 1.384 . S
H356 C362 0.930 . S
H357 C366 0.930 . S
H358 C371 0.929 . S
H359 C369 0.929 . S
H360 C364 0.929 . S
H361 C370 0.929 . S
C362 H356 0.930 . S
C362 C363 1.367 . S
C362 C370 1.378 . S
C363 C362 1.367 . S
C363 C371 1.433 . S
C364 H360 0.929 . S
C364 C366 1.378 . S
C364 C368 1.350 . S
C365 C368 1.463 . S
C365 C370 1.350 . S
C365 N373 1.427 . S
C366 H357 0.930 . S
C366 C364 1.378 . S
C366 C367 1.367 . S
C367 C366 1.367 . S
C367 C369 1.433 . S
C368 C364 1.350 . S
C368 C365 1.463 . S
C368 N372 1.427 . S
C369 H359 0.929 . S
C369 C367 1.433 . S
C369 N372 1.384 . S
C370 H361 0.929 . S
C370 C362 1.378 . S
C370 C365 1.350 . S
C371 H358 0.929 . S
C371 C363 1.433 . S
C371 N373 1.384 . S
N372 C368 1.427 . S
N372 C369 1.384 . S
N373 C365 1.427 . S
N373 C371 1.384 . S
H374 C380 0.930 1_554 S
H375 C384 0.930 . S
H376 C389 0.929 . S
H377 C387 0.905 1_565 S
H378 C382 0.929 . S
H379 C388 0.929 . S
C380 H374 0.930 1_556 S
C380 C381 1.367 . S
C380 C388 1.378 . S
C381 C380 1.367 . S
C381 C389 1.433 . S
C382 H378 0.929 . S
C382 C384 1.378 . S
C382 C386 1.350 . S
C383 C386 1.463 . S
C383 C388 1.350 . S
C383 N391 1.427 . S
C384 H375 0.930 . S
C384 C382 1.378 . S
C384 C385 1.367 . S
C385 C384 1.367 . S
C385 C387 1.433 . S
C386 C382 1.350 . S
C386 C383 1.463 . S
C386 N390 1.427 . S
C387 H377 0.905 1_545 S
C387 C385 1.433 . S
C387 N390 1.384 . S
C388 H379 0.929 . S
C388 C380 1.378 . S
C388 C383 1.350 . S
C389 H376 0.929 . S
C389 C381 1.433 . S
C389 N391 1.384 . S
N390 C386 1.427 . S
N390 C387 1.384 . S
N391 C383 1.427 . S
N391 C389 1.384 . S
H392 C398 0.930 . S
H393 C402 0.930 . S
H394 C407 0.929 . S
H395 C405 0.929 . S
H396 C400 0.929 . S
H397 C406 0.929 . S
C398 H392 0.930 . S
C398 C399 1.367 . S
C398 C406 1.378 . S
C399 C398 1.367 . S
C399 C407 1.433 . S
C400 H396 0.929 . S
C400 C402 1.378 . S
C400 C404 1.350 . S
C401 C404 1.463 . S
C401 C406 1.350 . S
C401 N409 1.427 . S
C402 H393 0.930 . S
C402 C400 1.378 . S
C402 C403 1.367 . S
C403 C402 1.367 . S
C403 C405 1.433 . S
C404 C400 1.350 . S
C404 C401 1.463 . S
C404 N408 1.427 . S
C405 H395 0.929 . S
C405 C403 1.433 . S
C405 N408 1.384 . S
C406 H397 0.929 . S
C406 C398 1.378 . S
C406 C401 1.350 . S
C407 H394 0.929 . S
C407 C399 1.433 . S
C407 N409 1.384 . S
N408 C404 1.427 . S
N408 C405 1.384 . S
N409 C401 1.427 . S
N409 C407 1.384 . S
H410 C416 0.930 . S
H411 C420 0.930 . S
H412 C425 0.929 . S
H413 C423 0.929 . S
H414 C418 0.929 . S
H415 C424 0.929 . S
C416 H410 0.930 . S
C416 C417 1.367 . S
C416 C424 1.378 . S
C417 C416 1.367 . S
C417 C425 1.433 . S
C418 H414 0.929 . S
C418 C420 1.378 . S
C418 C422 1.350 . S
C419 C422 1.463 . S
C419 C424 1.350 . S
C419 N427 1.427 . S
C420 H411 0.930 . S
C420 C418 1.378 . S
C420 C421 1.367 . S
C421 C420 1.367 . S
C421 C423 1.433 . S
C422 C418 1.350 . S
C422 C419 1.463 . S
C422 N426 1.427 . S
C423 H413 0.929 . S
C423 C421 1.433 . S
C423 N426 1.384 . S
C424 H415 0.929 . S
C424 C416 1.378 . S
C424 C419 1.350 . S
C425 H412 0.929 . S
C425 C417 1.433 . S
C425 N427 1.384 . S
N426 C422 1.427 . S
N426 C423 1.384 . S
N427 C419 1.427 . S
N427 C425 1.384 . S
C223 C112 1.622 . S
C219 C41 1.629 . S
C237 C8 1.639 . S
C241 C184 1.637 . S
C255 C19 1.728 . S
C259 C100 1.756 . S
C273 C30 1.603 . S
C277 C196 1.618 . S
C295 C102 1.458 . S
C291 C5 1.470 . S
C313 C183 1.799 . S
C309 C18 1.744 . S
C327 C29 1.617 . S
C331 C99 1.709 . S
C345 C40 1.594 . S
C349 C186 1.522 . S
C367 C198 1.385 . S
C363 C16 1.322 . S
C385 C114 1.343 . S
C381 C27 1.299 1_556 S
C403 C195 1.545 . S
C399 C38 1.295 . S
C417 C7 1.481 . S
C421 C111 1.511 . S
