# Generated by pormake.
# Topology zzz, (3,6)-cn, num edge types: 1
# Building blocks:
#     Node 0, Type 0, BuildingBlock: OLANEW_clean_sbu_2, # of connection points: 3
#     Node 1, Type 0, BuildingBlock: OLANEW_clean_sbu_2, # of connection points: 3
#     Node 2, Type 0, BuildingBlock: OLANEW_clean_sbu_2, # of connection points: 3
#     Node 3, Type 0, BuildingBlock: OLANEW_clean_sbu_2, # of connection points: 3
#     Node 4, Type 0, BuildingBlock: OLANEW_clean_sbu_2, # of connection points: 3
#     Node 5, Type 0, BuildingBlock: OLANEW_clean_sbu_2, # of connection points: 3
#     Node 6, Type 0, BuildingBlock: OLANEW_clean_sbu_2, # of connection points: 3
#     Node 7, Type 0, BuildingBlock: OLANEW_clean_sbu_2, # of connection points: 3
#     Node 8, Type 1, BuildingBlock: JUFBIX_clean_sbu_0, # of connection points: 6
#     Node 9, Type 1, BuildingBlock: JUFBIX_clean_sbu_0, # of connection points: 6
#     Node 10, Type 1, BuildingBlock: JUFBIX_clean_sbu_0, # of connection points: 6
#     Node 11, Type 1, BuildingBlock: JUFBIX_clean_sbu_0, # of connection points: 6
#     Edge 12, Type (0, 1), BuildingBlock: UVAHIK_clean_linker_0, # of connection points: 2
#     Edge 13, Type (0, 1), BuildingBlock: UVAHIK_clean_linker_0, # of connection points: 2
#     Edge 14, Type (0, 1), BuildingBlock: UVAHIK_clean_linker_0, # of connection points: 2
#     Edge 15, Type (0, 1), BuildingBlock: UVAHIK_clean_linker_0, # of connection points: 2
#     Edge 16, Type (0, 1), BuildingBlock: UVAHIK_clean_linker_0, # of connection points: 2
#     Edge 17, Type (0, 1), BuildingBlock: UVAHIK_clean_linker_0, # of connection points: 2
#     Edge 18, Type (0, 1), BuildingBlock: UVAHIK_clean_linker_0, # of connection points: 2
#     Edge 19, Type (0, 1), BuildingBlock: UVAHIK_clean_linker_0, # of connection points: 2
#     Edge 20, Type (0, 1), BuildingBlock: UVAHIK_clean_linker_0, # of connection points: 2
#     Edge 21, Type (0, 1), BuildingBlock: UVAHIK_clean_linker_0, # of connection points: 2
#     Edge 22, Type (0, 1), BuildingBlock: UVAHIK_clean_linker_0, # of connection points: 2
#     Edge 23, Type (0, 1), BuildingBlock: UVAHIK_clean_linker_0, # of connection points: 2
#     Edge 24, Type (0, 1), BuildingBlock: UVAHIK_clean_linker_0, # of connection points: 2
#     Edge 25, Type (0, 1), BuildingBlock: UVAHIK_clean_linker_0, # of connection points: 2
#     Edge 26, Type (0, 1), BuildingBlock: UVAHIK_clean_linker_0, # of connection points: 2
#     Edge 27, Type (0, 1), BuildingBlock: UVAHIK_clean_linker_0, # of connection points: 2
#     Edge 28, Type (0, 1), BuildingBlock: UVAHIK_clean_linker_0, # of connection points: 2
#     Edge 29, Type (0, 1), BuildingBlock: UVAHIK_clean_linker_0, # of connection points: 2
#     Edge 30, Type (0, 1), BuildingBlock: UVAHIK_clean_linker_0, # of connection points: 2
#     Edge 31, Type (0, 1), BuildingBlock: UVAHIK_clean_linker_0, # of connection points: 2
#     Edge 32, Type (0, 1), BuildingBlock: UVAHIK_clean_linker_0, # of connection points: 2
#     Edge 33, Type (0, 1), BuildingBlock: UVAHIK_clean_linker_0, # of connection points: 2
#     Edge 34, Type (0, 1), BuildingBlock: UVAHIK_clean_linker_0, # of connection points: 2
#     Edge 35, Type (0, 1), BuildingBlock: UVAHIK_clean_linker_0, # of connection points: 2
# Relax obj value: 0.125
# Max RMSD: 0.180
# Mean RMSD: 0.090
data_MOF--net-zzz--node1-OLANEW_clean_sbu_2--node2-JUFBIX_clean_sbu_0--edge1-UVAHIK_clean_linker_0
_symmetry_space_group_name_H-M    P1
_symmetry_Int_Tables_number       1
_symmetry_cell_setting            triclinic
loop_
_symmetry_equiv_pos_as_xyz
'x, y, z'
_cell_length_a     69.345682
_cell_length_b     68.540412
_cell_length_c     24.284959
_cell_angle_alpha  83.372212
_cell_angle_beta   89.8136
_cell_angle_gamma 91.612717
loop_
_atom_site_label
_atom_site_type_symbol
_atom_site_fract_x
_atom_site_fract_y
_atom_site_fract_z
_atom_type_partial_charge
O0 O 0.78505 0.57339 0.06141 0.0
Cd1 Cd 0.7962 0.57226 0.96619 0.0
O2 O 0.78892 0.56395 0.15014 0.0
Cd3 Cd 0.80691 0.55097 0.21734 0.0
O4 O 0.82899 0.5431 0.27881 0.0
C5 C 0.84075 0.55655 0.29052 0.0
O6 O 0.83902 0.57444 0.26543 0.0
C7 C 0.79484 0.56465 0.10039 0.0
C8 C 0.76681 0.55551 0.90822 0.0
O9 O 0.76923 0.57422 0.90503 0.0
O10 O 0.77863 0.54474 0.9376 0.0
O11 O 0.88979 0.78631 0.03714 0.0
Cd12 Cd 0.87559 0.75489 0.07719 0.0
O13 O 0.89786 0.79294 0.1202 0.0
Cd14 Cd 0.91203 0.80937 0.18167 0.0
O15 O 0.92286 0.82943 0.23875 0.0
C16 C 0.91091 0.8396 0.26216 0.0
O17 O 0.89244 0.83752 0.2517 0.0
C18 C 0.89785 0.79784 0.068 0.0
C19 C 0.89548 0.72466 0.03718 0.0
O20 O 0.88033 0.7315 0.01276 0.0
O21 O 0.901 0.73188 0.08109 0.0
O22 O 0.72661 0.93089 0.00624 0.0
Cd23 Cd 0.75614 0.91471 0.03621 0.0
O24 O 0.72624 0.94468 0.08332 0.0
Cd25 Cd 0.71218 0.96132 0.14287 0.0
O26 O 0.69325 0.97171 0.2045 0.0
C27 C 0.68509 0.95884 0.23946 0.0
O28 O 0.6887 0.94023 0.23727 0.0
C29 C 0.71884 0.94242 0.03655 0.0
C30 C 0.78718 0.93836 0.99372 0.0
O31 O 0.77973 0.92514 0.96638 0.0
O32 O 0.78017 0.9401 0.04176 0.0
O33 O 0.60546 0.71822 0.99053 0.0
Cd34 Cd 0.62079 0.74908 0.01093 0.0
O35 O 0.5928 0.71391 0.07414 0.0
Cd36 Cd 0.57793 0.69563 0.14198 0.0
O37 O 0.56678 0.67453 0.20961 0.0
C38 C 0.57707 0.66006 0.22692 0.0
O39 O 0.59392 0.65831 0.20335 0.0
C40 C 0.59519 0.70792 0.02702 0.0
C41 C 0.59982 0.78207 0.97319 0.0
O42 O 0.61247 0.77541 0.94213 0.0
O43 O 0.59697 0.77298 0.02182 0.0
O44 O 0.20923 0.47521 0.43122 0.0
Cd45 Cd 0.23837 0.46725 0.38356 0.0
O46 O 0.19713 0.44606 0.41965 0.0
Cd47 Cd 0.17172 0.4266 0.41801 0.0
O48 O 0.14434 0.42455 0.37504 0.0
C49 C 0.13374 0.43938 0.37482 0.0
O50 O 0.13909 0.45355 0.40404 0.0
C51 C 0.19552 0.46251 0.43836 0.0
C52 C 0.27005 0.47829 0.44356 0.0
O53 O 0.26178 0.46133 0.45469 0.0
O54 O 0.26355 0.48992 0.40317 0.0
O55 O 0.11847 0.23252 0.53111 0.0
Cd56 Cd 0.133 0.26433 0.49623 0.0
O57 O 0.1142 0.22464 0.44706 0.0
Cd58 Cd 0.10333 0.20761 0.38214 0.0
O59 O 0.09522 0.18749 0.32212 0.0
C60 C 0.07764 0.18238 0.31663 0.0
O61 O 0.06448 0.18956 0.34707 0.0
C62 C 0.11202 0.22045 0.49923 0.0
C63 C 0.1119 0.29268 0.54134 0.0
O64 O 0.10709 0.28668 0.4951 0.0
O65 O 0.12707 0.28572 0.56535 0.0
O66 O 0.27725 0.92024 0.62222 0.0
Cd67 Cd 0.24602 0.90935 0.59009 0.0
O68 O 0.27888 0.94134 0.54726 0.0
Cd69 Cd 0.29419 0.96223 0.48632 0.0
O70 O 0.3142 0.97474 0.42136 0.0
C71 C 0.33157 0.96943 0.42631 0.0
O72 O 0.33637 0.95768 0.47047 0.0
C73 C 0.28636 0.93396 0.59245 0.0
C74 C 0.21662 0.92971 0.63393 0.0
O75 O 0.22167 0.91299 0.65782 0.0
O76 O 0.22544 0.93672 0.58922 0.0
O77 O 0.40827 0.28905 0.58466 0.0
Cd78 Cd 0.3916 0.25838 0.56862 0.0
O79 O 0.40283 0.30117 0.49866 0.0
Cd80 Cd 0.40708 0.32376 0.42801 0.0
O81 O 0.41574 0.34578 0.35954 0.0
C82 C 0.43359 0.34826 0.34804 0.0
O83 O 0.44608 0.33759 0.37784 0.0
C84 C 0.40985 0.30319 0.54606 0.0
C85 C 0.41148 0.2256 0.61407 0.0
O86 O 0.4147 0.23331 0.56413 0.0
O87 O 0.39884 0.23343 0.64257 0.0
Co88 Co 0.003 0.01607 0.82171 0.0
C89 C 0.96451 0.01944 0.78907 0.0
Co90 Co 0.99674 0.00743 0.73854 0.0
C91 C 0.01876 0.03681 0.91017 0.0
C92 C 0.99703 0.01514 0.93857 0.0
N93 N 0.00687 0.02284 0.89276 0.0
N94 N 0.01673 0.03805 0.96503 0.0
C95 C 0.00311 0.02437 0.98295 0.0
H96 H 0.02854 0.04603 0.88302 0.0
H97 H 0.98572 0.00393 0.93943 0.0
C98 C 0.03508 0.00343 0.77136 0.0
N99 N 0.99282 0.00058 0.6677 0.0
C100 C 0.98048 0.9869 0.65087 0.0
C101 C 0.00299 0.00759 0.62189 0.0
N102 N 0.9826 0.98506 0.59638 0.0
C103 C 0.99672 0.99815 0.57806 0.0
C104 C 0.00814 0.04677 0.73882 0.0
O105 O 0.0295 0.00983 0.81573 0.0
O106 O 0.02295 0.00136 0.73324 0.0
O107 O 0.00272 0.03375 0.70852 0.0
O108 O 0.00895 0.04229 0.79097 0.0
O109 O 0.97042 0.01335 0.74466 0.0
H110 H 0.01466 0.01844 0.62076 0.0
H111 H 0.97033 0.97827 0.6783 0.0
O112 O 0.97655 0.02209 0.82709 0.0
O113 O 0.99697 0.9897 0.85165 0.0
O114 O 0.99087 0.98118 0.76918 0.0
C115 C 0.99167 0.97666 0.82129 0.0
H116 H 0.99734 0.02178 0.02471 0.0
H117 H 0.00269 0.00018 0.5365 0.0
Co118 Co 0.50153 0.00496 0.84946 0.0
C119 C 0.51591 0.96984 0.82018 0.0
Co120 Co 0.51198 0.00649 0.76298 0.0
C121 C 0.47655 0.00402 0.94704 0.0
C122 C 0.50582 0.99711 0.96659 0.0
N123 N 0.49412 0.00262 0.92366 0.0
N124 N 0.47691 0.99947 0.00275 0.0
C125 C 0.49538 0.9953 0.01497 0.0
H126 H 0.46362 0.00745 0.92346 0.0
H127 H 0.52091 0.99388 0.96301 0.0
C128 C 0.49755 0.04158 0.79254 0.0
N129 N 0.51972 0.00854 0.68961 0.0
C130 C 0.53618 0.00226 0.66874 0.0
C131 C 0.51016 0.01702 0.6453 0.0
N132 N 0.53731 0.00648 0.61308 0.0
C133 C 0.52091 0.01576 0.59822 0.0
C134 C 0.47301 0.99577 0.77752 0.0
O135 O 0.49463 0.03173 0.83966 0.0
O136 O 0.50517 0.03332 0.75387 0.0
O137 O 0.48669 0.99906 0.74246 0.0
O138 O 0.47628 0.99746 0.82826 0.0
O139 O 0.51875 0.97962 0.77299 0.0
H140 H 0.49632 0.02384 0.64722 0.0
H141 H 0.54704 0.99459 0.69403 0.0
O142 O 0.50841 0.97819 0.85878 0.0
O143 O 0.527 0.01239 0.86941 0.0
O144 O 0.53725 0.0137 0.78378 0.0
C145 C 0.54074 0.01508 0.83446 0.0
H146 H 0.50098 0.99087 0.05591 0.0
H147 H 0.5171 0.02157 0.55648 0.0
Co148 Co 0.52116 0.49707 0.79 0.0
C149 C 0.49644 0.48182 0.87537 0.0
Co150 Co 0.49227 0.50985 0.78502 0.0
C151 C 0.56236 0.49739 0.79395 0.0
C152 C 0.55071 0.46797 0.80069 0.0
N153 N 0.54558 0.48694 0.79524 0.0
N154 N 0.57776 0.48577 0.79851 0.0
C155 C 0.57055 0.46721 0.80246 0.0
H156 H 0.56328 0.51329 0.78925 0.0
H157 H 0.54068 0.45551 0.80352 0.0
C158 C 0.51685 0.52516 0.69957 0.0
N159 N 0.46782 0.52023 0.77869 0.0
C160 C 0.45149 0.51091 0.76464 0.0
C161 C 0.46295 0.53916 0.77876 0.0
N162 N 0.43681 0.52326 0.7545 0.0
C163 C 0.44387 0.54105 0.76403 0.0
C164 C 0.51781 0.53054 0.84446 0.0
O165 O 0.52851 0.51291 0.72318 0.0
O166 O 0.50014 0.5263 0.72033 0.0
O167 O 0.50033 0.52965 0.82932 0.0
O168 O 0.5293 0.51768 0.83149 0.0
O169 O 0.48451 0.49332 0.84976 0.0
H170 H 0.47291 0.55106 0.78559 0.0
H171 H 0.45055 0.49546 0.75935 0.0
O172 O 0.51357 0.48136 0.85667 0.0
O173 O 0.51292 0.47655 0.74866 0.0
O174 O 0.48462 0.48984 0.74056 0.0
C175 C 0.49581 0.47636 0.73039 0.0
H176 H 0.57898 0.45408 0.80755 0.0
H177 H 0.43624 0.55467 0.75679 0.0
Co178 Co 0.00153 0.51472 0.8134 0.0
C179 C 0.01692 0.48901 0.89746 0.0
Co180 Co 0.99307 0.48365 0.80935 0.0
C181 C 0.99481 0.55528 0.82237 0.0
C182 C 0.02479 0.54902 0.83033 0.0
N183 N 0.00747 0.54081 0.82012 0.0
N184 N 0.00343 0.57212 0.83464 0.0
C185 C 0.02234 0.56827 0.83949 0.0
H186 H 0.97938 0.55314 0.81836 0.0
H187 H 0.03819 0.54127 0.83331 0.0
C188 C 0.97736 0.50927 0.7258 0.0
N189 N 0.98726 0.45756 0.80249 0.0
C190 C 0.00027 0.44347 0.7995 0.0
C191 C 0.97017 0.44908 0.79121 0.0
N192 N 0.99215 0.42665 0.78555 0.0
C193 C 0.97315 0.43007 0.78042 0.0
C194 C 0.96773 0.50177 0.87191 0.0
O195 O 0.98698 0.52224 0.74841 0.0
O196 O 0.97798 0.4914 0.74633 0.0
O197 O 0.97101 0.48512 0.85605 0.0
O198 O 0.97927 0.51615 0.85735 0.0
O199 O 0.0082 0.47605 0.87267 0.0
H200 H 0.95662 0.45657 0.78797 0.0
H201 H 0.01566 0.44599 0.80347 0.0
O202 O 0.01584 0.50701 0.8784 0.0
O203 O 0.02384 0.51311 0.76949 0.0
O204 O 0.01509 0.48255 0.76239 0.0
C205 C 0.02685 0.49698 0.75048 0.0
H206 H 0.03353 0.57843 0.85047 0.0
H207 H 0.96233 0.41987 0.76758 0.0
C208 C 0.19728 0.95992 0.63527 0.0
C209 C 0.20072 0.94039 0.65641 0.0
C210 C 0.18154 0.96962 0.65409 0.0
C211 C 0.14317 0.96621 0.76331 0.0
H212 H 0.11437 0.99593 0.64722 0.0
C213 C 0.06959 0.00118 0.80283 0.0
C214 C 0.0554 0.99846 0.76298 0.0
C215 C 0.08877 0.99646 0.79355 0.0
C216 C 0.12223 0.98767 0.68017 0.0
H217 H 0.19073 0.9159 0.71508 0.0
H218 H 0.16293 0.93257 0.74657 0.0
H219 H 0.1454 0.98313 0.62557 0.0
H220 H 0.05021 0.98852 0.68241 0.0
H221 H 0.08328 0.9801 0.66688 0.0
H222 H 0.11931 0.9699 0.81709 0.0
C223 C 0.17259 0.94059 0.71638 0.0
C224 C 0.14018 0.98054 0.66793 0.0
C225 C 0.18845 0.93096 0.69797 0.0
C226 C 0.06076 0.99091 0.71393 0.0
C227 C 0.0798 0.98622 0.70475 0.0
C228 C 0.1251 0.97327 0.77549 0.0
C229 C 0.16875 0.95994 0.694 0.0
C230 C 0.15071 0.96936 0.70903 0.0
C231 C 0.09407 0.98901 0.74421 0.0
C232 C 0.11423 0.98365 0.73365 0.0
H233 H 0.20663 0.96766 0.6037 0.0
H234 H 0.17925 0.98465 0.63672 0.0
H235 H 0.15104 0.95793 0.79616 0.0
H236 H 0.0659 0.00699 0.841 0.0
H237 H 0.09948 0.99884 0.82465 0.0
C238 C 0.43531 0.19931 0.60565 0.0
C239 C 0.42188 0.20805 0.63786 0.0
C240 C 0.44481 0.18247 0.62756 0.0
C241 C 0.4402 0.14047 0.73656 0.0
H242 H 0.49383 0.13328 0.70011 0.0
C243 C 0.4805 0.0707 0.821 0.0
C244 C 0.49126 0.06211 0.78145 0.0
C245 C 0.47333 0.08956 0.80846 0.0
C246 C 0.47882 0.13505 0.71046 0.0
H247 H 0.4081 0.20615 0.71871 0.0
H248 H 0.4248 0.17684 0.75711 0.0
H249 H 0.47875 0.16431 0.66879 0.0
H250 H 0.5034 0.06683 0.69831 0.0
H251 H 0.49087 0.09959 0.67653 0.0
H252 H 0.44019 0.1111 0.77755 0.0
C253 C 0.42781 0.18287 0.71465 0.0
C254 C 0.47017 0.15281 0.69245 0.0
C255 C 0.41831 0.19972 0.69271 0.0
C256 C 0.49517 0.073 0.72976 0.0
C257 C 0.48808 0.09185 0.71735 0.0
C258 C 0.44886 0.12272 0.75465 0.0
C259 C 0.44111 0.17399 0.68223 0.0
C260 C 0.45068 0.15563 0.70459 0.0
C261 C 0.47687 0.10026 0.75625 0.0
C262 C 0.46819 0.1197 0.74112 0.0
H263 H 0.43837 0.20533 0.56321 0.0
H264 H 0.45474 0.17585 0.60118 0.0
H265 H 0.42509 0.14206 0.74606 0.0
H266 H 0.47726 0.0627 0.86123 0.0
H267 H 0.46491 0.09573 0.83951 0.0
C268 C 0.29745 0.50149 0.45947 0.0
C269 C 0.28644 0.48436 0.47696 0.0
C270 C 0.31299 0.50715 0.4911 0.0
C271 C 0.33311 0.50141 0.63142 0.0
H272 H 0.38231 0.51327 0.55682 0.0
C273 C 0.40225 0.52935 0.7374 0.0
C274 C 0.41897 0.51913 0.72754 0.0
C275 C 0.38527 0.52604 0.7085 0.0
C276 C 0.36863 0.51004 0.57812 0.0
H277 H 0.28284 0.45992 0.54172 0.0
H278 H 0.30991 0.4699 0.59706 0.0
H279 H 0.35387 0.50606 0.5028 0.0
H280 H 0.43106 0.4976 0.67939 0.0
H281 H 0.40152 0.49188 0.62916 0.0
H282 H 0.34802 0.50521 0.70688 0.0
C283 C 0.30649 0.47893 0.55895 0.0
C284 C 0.35237 0.50606 0.54722 0.0
C285 C 0.2911 0.47315 0.52704 0.0
C286 C 0.41835 0.50547 0.68858 0.0
C287 C 0.40152 0.50237 0.6593 0.0
C288 C 0.34937 0.50564 0.6623 0.0
C289 C 0.31764 0.49591 0.54111 0.0
C290 C 0.33452 0.50144 0.57365 0.0
C291 C 0.38487 0.51272 0.66864 0.0
C292 C 0.36732 0.50967 0.63596 0.0
H293 H 0.29418 0.51046 0.42112 0.0
H294 H 0.32132 0.52036 0.4766 0.0
H295 H 0.31946 0.49803 0.65269 0.0
H296 H 0.40238 0.53991 0.76729 0.0
H297 H 0.37259 0.53421 0.7163 0.0
C298 C 0.10562 0.31372 0.61691 0.0
C299 C 0.09982 0.30656 0.56742 0.0
C300 C 0.09371 0.326 0.64307 0.0
C301 C 0.04299 0.33949 0.65422 0.0
H302 H 0.06446 0.3859 0.71136 0.0
C303 C 0.99586 0.40035 0.72506 0.0
C304 C 0.00243 0.41026 0.76923 0.0
C305 C 0.00724 0.38636 0.70414 0.0
C306 C 0.05826 0.37282 0.69652 0.0
H307 H 0.07705 0.30685 0.50626 0.0
H308 H 0.05632 0.32833 0.55191 0.0
H309 H 0.08559 0.36465 0.66652 0.0
H310 H 0.02546 0.41237 0.82845 0.0
H311 H 0.0452 0.38768 0.79277 0.0
H312 H 0.01565 0.34762 0.68427 0.0
C313 C 0.07 0.3243 0.57069 0.0
C314 C 0.07038 0.36069 0.67062 0.0
C315 C 0.08195 0.31212 0.54433 0.0
C316 C 0.02017 0.40517 0.79383 0.0
C317 C 0.0315 0.3911 0.77319 0.0
C318 C 0.03087 0.35158 0.68039 0.0
C319 C 0.0757 0.33128 0.6205 0.0
C320 C 0.06286 0.34396 0.64889 0.0
C321 C 0.0254 0.38188 0.7272 0.0
C322 C 0.03834 0.36845 0.70161 0.0
H323 H 0.11928 0.30968 0.63582 0.0
H324 H 0.09844 0.33104 0.68163 0.0
H325 H 0.03683 0.32653 0.6386 0.0
H326 H 0.98237 0.40413 0.70479 0.0
H327 H 0.00217 0.3797 0.66834 0.0
C328 C 0.81028 0.94983 0.91659 0.0
C329 C 0.8033 0.95131 0.97029 0.0
C330 C 0.82566 0.96189 0.89463 0.0
C331 C 0.86775 0.98935 0.93822 0.0
H332 H 0.87017 0.01085 0.78335 0.0
C333 C 0.93717 0.02721 0.8494 0.0
C334 C 0.94363 0.02028 0.80051 0.0
C335 C 0.91804 0.0239 0.86692 0.0
C336 C 0.86971 0.00494 0.82667 0.0
H337 H 0.80673 0.96689 0.04267 0.0
H338 H 0.83364 0.98792 0.0043 0.0
H339 H 0.84042 0.99454 0.82127 0.0
H340 H 0.93473 0.00593 0.72927 0.0
H341 H 0.90152 -0.00016 0.76027 0.0
H342 H 0.89716 0.99892 0.94345 0.0
C343 C 0.82728 0.97733 0.97937 0.0
C344 C 0.8527 0.99559 0.84835 0.0
C345 C 0.81185 0.96531 0.00128 0.0
C346 C 0.93021 0.01144 0.76718 0.0
C347 C 0.91111 0.008 0.78493 0.0
C348 C 0.88475 0.9986 0.91656 0.0
C349 C 0.83443 0.97565 0.92596 0.0
C350 C 0.85168 0.98737 0.90409 0.0
C351 C 0.90502 0.01346 0.83615 0.0
C352 C 0.88608 0.00618 0.86028 0.0
H353 H 0.80398 0.93923 0.89159 0.0
H354 H 0.83102 0.96005 0.85366 0.0
H355 H 0.86752 0.98294 0.98113 0.0
H356 H 0.94712 0.03427 0.8757 0.0
H357 H 0.91368 0.02872 0.90591 0.0
C358 C 0.57595 0.80759 0.98942 0.0
C359 C 0.58925 0.80005 0.95414 0.0
C360 C 0.56671 0.82511 0.97267 0.0
C361 C 0.55451 0.85961 0.84994 0.0
H362 H 0.55164 0.8971 0.95744 0.0
C363 C 0.53333 0.94076 0.79278 0.0
C364 C 0.52212 0.94928 0.83147 0.0
C365 C 0.54041 0.92187 0.80575 0.0
C366 C 0.55205 0.88671 0.92711 0.0
H367 H 0.60291 0.80478 0.87301 0.0
H368 H 0.58685 0.83546 0.84394 0.0
H369 H 0.56585 0.86538 0.98376 0.0
H370 H 0.50889 0.94435 0.9132 0.0
H371 H 0.52091 0.9114 0.93529 0.0
H372 H 0.54075 0.88108 0.79319 0.0
C373 C 0.58347 0.82773 0.88441 0.0
C374 C 0.56022 0.86851 0.94222 0.0
C375 C 0.59275 0.8102 0.90121 0.0
C376 C 0.51763 0.93829 0.88261 0.0
C377 C 0.52462 0.91943 0.89544 0.0
C378 C 0.54628 0.87785 0.8348 0.0
C379 C 0.57053 0.83551 0.92023 0.0
C380 C 0.56154 0.85473 0.90389 0.0
C381 C 0.53638 0.91111 0.85761 0.0
C382 C 0.54493 0.89161 0.87328 0.0
H383 H 0.57284 0.80008 0.03035 0.0
H384 H 0.55659 0.83056 0.00092 0.0
H385 H 0.55515 0.84923 0.81961 0.0
H386 H 0.53709 0.94888 0.75307 0.0
H387 H 0.54955 0.91596 0.77583 0.0
C388 C 0.73984 0.55764 0.83991 0.0
C389 C 0.75001 0.54668 0.88213 0.0
C390 C 0.72269 0.55009 0.8197 0.0
C391 C 0.69092 0.50464 0.82617 0.0
H392 H 0.65084 0.54281 0.79972 0.0
C393 C 0.61223 0.48184 0.77768 0.0
C394 C 0.59763 0.49208 0.80115 0.0
C395 C 0.63151 0.48828 0.77976 0.0
C396 C 0.6618 0.5319 0.80742 0.0
H397 H 0.75064 0.51898 0.93499 0.0
H398 H 0.72036 0.50617 0.90183 0.0
H399 H 0.68344 0.55389 0.81708 0.0
H400 H 0.59171 0.51664 0.84661 0.0
H401 H 0.62521 0.52749 0.85212 0.0
H402 H 0.66887 0.48255 0.82038 0.0
C403 C 0.72579 0.52033 0.88285 0.0
C404 C 0.68067 0.53831 0.81635 0.0
C405 C 0.74313 0.52773 0.90224 0.0
C406 C 0.60265 0.50869 0.82731 0.0
C407 C 0.62188 0.51495 0.83014 0.0
C408 C 0.67194 0.4982 0.8181 0.0
C409 C 0.7151 0.53159 0.84216 0.0
C410 C 0.69546 0.52476 0.82677 0.0
C411 C 0.63658 0.50494 0.80606 0.0
C412 C 0.65706 0.51174 0.8097 0.0
H413 H 0.74495 0.57221 0.82317 0.0
H414 H 0.71517 0.55898 0.78731 0.0
H415 H 0.70196 0.49378 0.83297 0.0
H416 H 0.60867 0.46908 0.75686 0.0
H417 H 0.64239 0.48033 0.76019 0.0
C418 C 0.89969 0.7004 0.96867 0.0
C419 C 0.90654 0.70919 0.01462 0.0
C420 C 0.91039 0.68614 0.94655 0.0
C421 C 0.95969 0.66814 0.93841 0.0
H422 H 0.9341 0.62053 0.90037 0.0
C423 C 0.00142 0.60055 0.8882 0.0
C424 C 0.99384 0.58936 0.84794 0.0
C425 C 0.99113 0.61608 0.9051 0.0
C426 C 0.94144 0.63387 0.90989 0.0
H427 H 0.92995 0.70986 0.07349 0.0
H428 H 0.94859 0.68495 0.03485 0.0
H429 H 0.91524 0.64561 0.93716 0.0
H430 H 0.97001 0.58633 0.79182 0.0
H431 H 0.95215 0.61362 0.82063 0.0
H432 H 0.98589 0.65646 0.91104 0.0
C433 C 0.93502 0.68921 0.01572 0.0
C434 C 0.93063 0.64821 0.93115 0.0
C435 C 0.92427 0.70337 0.03807 0.0
C436 C 0.97607 0.59449 0.82354 0.0
C437 C 0.96583 0.61008 0.8402 0.0
C438 C 0.9705 0.65384 0.91687 0.0
C439 C 0.92821 0.68047 0.96967 0.0
C440 C 0.93965 0.66544 0.94596 0.0
C441 C 0.97307 0.62085 0.88189 0.0
C442 C 0.96152 0.63648 0.90264 0.0
H443 H 0.8861 0.70459 0.94959 0.0
H444 H 0.90485 0.67978 0.91076 0.0
H445 H 0.967 0.6814 0.9487 0.0
H446 H 0.01493 0.59681 0.90835 0.0
H447 H 0.99704 0.62389 0.93781 0.0
C448 C 0.09176 0.20267 0.57505 0.0
C449 C 0.10102 0.20265 0.52343 0.0
C450 C 0.08088 0.1863 0.5982 0.0
C451 C 0.05312 0.14374 0.56283 0.0
H452 H 0.06173 0.12231 0.71531 0.0
C453 C 0.01975 0.06915 0.65618 0.0
C454 C 0.01535 0.06621 0.7131 0.0
C455 C 0.02887 0.08658 0.6328 0.0
C456 C 0.05881 0.1283 0.67304 0.0
H457 H 0.10728 0.18472 0.45799 0.0
H458 H 0.0874 0.15649 0.49706 0.0
H459 H 0.08066 0.15093 0.6751 0.0
H460 H 0.01613 0.07966 0.78963 0.0
H461 H 0.0313 0.11045 0.74843 0.0
H462 H 0.03098 0.1215 0.5608 0.0
C463 C 0.08836 0.1694 0.51892 0.0
C464 C 0.06979 0.14462 0.64994 0.0
C465 C 0.09952 0.18568 0.49614 0.0
C466 C 0.01945 0.08145 0.74568 0.0
C467 C 0.02833 0.09902 0.7221 0.0
C468 C 0.04191 0.12759 0.58615 0.0
C469 C 0.07891 0.1696 0.57011 0.0
C470 C 0.06715 0.15239 0.59454 0.0
C471 C 0.03357 0.10165 0.66559 0.0
C472 C 0.04471 0.11954 0.64148 0.0
H473 H 0.09268 0.21547 0.59732 0.0
H474 H 0.07371 0.18684 0.63768 0.0
H475 H 0.05064 0.14964 0.52019 0.0
H476 H 0.0169 0.05764 0.62998 0.0
H477 H 0.03289 0.08787 0.58939 0.0
C478 C 0.31772 0.92741 0.64007 0.0
C479 C 0.30557 0.94067 0.60977 0.0
C480 C 0.33571 0.93374 0.65797 0.0
C481 C 0.36754 0.95308 0.71928 0.0
H482 H 0.39899 0.99083 0.62444 0.0
C483 C 0.43791 0.98775 0.79629 0.0
C484 C 0.45359 0.99002 0.75906 0.0
C485 C 0.4196 0.98229 0.77841 0.0
C486 C 0.39045 0.98018 0.65131 0.0
H487 H 0.30227 0.97113 0.57678 0.0
H488 H 0.33371 0.98222 0.60771 0.0
H489 H 0.36787 0.97972 0.59163 0.0
H490 H 0.46234 0.98827 0.67391 0.0
H491 H 0.43059 0.97839 0.64314 0.0
H492 H 0.39038 0.95307 0.77827 0.0
C493 C 0.32961 0.9668 0.6163 0.0
C494 C 0.3725 0.97399 0.63275 0.0
C495 C 0.31164 0.96043 0.59824 0.0
C496 C 0.45056 0.98672 0.70364 0.0
C497 C 0.4323 0.98119 0.68586 0.0
C498 C 0.38553 0.95922 0.73777 0.0
C499 C 0.34185 0.95353 0.64649 0.0
C500 C 0.36086 0.96031 0.66643 0.0
C501 C 0.41659 0.9789 0.72298 0.0
C502 C 0.39723 0.97278 0.70393 0.0
H503 H 0.31337 0.91209 0.6496 0.0
H504 H 0.34488 0.92307 0.68043 0.0
H505 H 0.35883 0.94274 0.74661 0.0
H506 H 0.43976 0.99028 0.8392 0.0
H507 H 0.40776 0.98091 0.80792 0.0
C508 C 0.43623 0.32124 0.59038 0.0
C509 C 0.41985 0.32166 0.55646 0.0
C510 C 0.44534 0.33874 0.60196 0.0
C511 C 0.43537 0.3896 0.61631 0.0
H512 H 0.49083 0.39811 0.60533 0.0
C513 C 0.47107 0.46151 0.67176 0.0
C514 C 0.48855 0.46001 0.70078 0.0
C515 C 0.4634 0.4455 0.64751 0.0
C516 C 0.47535 0.3959 0.60927 0.0
H517 H 0.39976 0.34058 0.50952 0.0
H518 H 0.41563 0.37123 0.53004 0.0
H519 H 0.4761 0.36818 0.57645 0.0
H520 H 0.51189 0.44067 0.72638 0.0
H521 H 0.49825 0.41255 0.68592 0.0
H522 H 0.4345 0.41673 0.6513 0.0
C523 C 0.42159 0.35736 0.54684 0.0
C524 C 0.46694 0.37879 0.59245 0.0
C525 C 0.41266 0.33986 0.53461 0.0
C526 C 0.49844 0.44232 0.70396 0.0
C527 C 0.49064 0.42621 0.68042 0.0
C528 C 0.44378 0.40655 0.63388 0.0
C529 C 0.43798 0.35696 0.58075 0.0
C530 C 0.44689 0.37545 0.59608 0.0
C531 C 0.47289 0.4275 0.65246 0.0
C532 C 0.4639 0.4099 0.63092 0.0
H533 H 0.44197 0.30736 0.60794 0.0
H534 H 0.45782 0.33803 0.62873 0.0
H535 H 0.41989 0.38725 0.62019 0.0
H536 H 0.46318 0.47502 0.66823 0.0
H537 H 0.44994 0.44722 0.62528 0.0
C538 C 0.1693 0.45278 0.50705 0.0
C539 C 0.17781 0.46697 0.46738 0.0
C540 C 0.15291 0.45712 0.53634 0.0
C541 C 0.10976 0.48354 0.52973 0.0
H542 H 0.11301 0.48415 0.6891 0.0
C543 C 0.04422 0.4799 0.68037 0.0
C544 C 0.04389 0.49487 0.71533 0.0
C545 C 0.06045 0.47771 0.64762 0.0
C546 C 0.11196 0.48409 0.64461 0.0
H547 H 0.17603 0.49671 0.42683 0.0
H548 H 0.14672 0.50407 0.47692 0.0
H549 H 0.14186 0.47767 0.63606 0.0
H550 H 0.06023 0.51919 0.74372 0.0
H551 H 0.08889 0.51489 0.68762 0.0
H552 H 0.07969 0.48923 0.53856 0.0
C553 C 0.15294 0.48972 0.48552 0.0
C554 C 0.12837 0.48034 0.61448 0.0
C555 C 0.16963 0.48554 0.45714 0.0
C556 C 0.06008 0.50758 0.717 0.0
C557 C 0.07646 0.50511 0.68514 0.0
C558 C 0.09323 0.48685 0.56006 0.0
C559 C 0.14459 0.47557 0.52559 0.0
C560 C 0.12736 0.48005 0.5569 0.0
C561 C 0.07675 0.49017 0.65018 0.0
C562 C 0.09424 0.48717 0.61772 0.0
H563 H 0.17555 0.43847 0.51617 0.0
H564 H 0.14664 0.44604 0.56718 0.0
H565 H 0.10874 0.48328 0.4853 0.0
H566 H 0.03193 0.46992 0.67818 0.0
H567 H 0.06043 0.46601 0.62118 0.0
C568 C 0.91554 0.81684 0.98866 0.0
C569 C 0.90782 0.81605 0.04252 0.0
C570 C 0.92536 0.83375 0.96431 0.0
C571 C 0.95267 0.87712 0.99767 0.0
H572 H 0.9402 0.89913 0.84818 0.0
C573 C 0.98123 0.95365 0.90407 0.0
C574 C 0.98491 0.95702 0.84678 0.0
C575 C 0.97297 0.9358 0.92765 0.0
C576 C 0.94416 0.893 0.88956 0.0
H577 H 0.90304 0.83302 0.11108 0.0
H578 H 0.921 0.86223 0.06961 0.0
H579 H 0.92325 0.86938 0.88968 0.0
H580 H 0.98353 0.944 0.76959 0.0
H581 H 0.96977 0.91256 0.81099 0.0
H582 H 0.97382 0.90042 0.9975 0.0
C583 C 0.91976 0.84956 0.04684 0.0
C584 C 0.93434 0.87602 0.9134 0.0
C585 C 0.9097 0.83273 0.07091 0.0
C586 C 0.98078 0.94189 0.81385 0.0
C587 C 0.97272 0.92392 0.83756 0.0
C588 C 0.96269 0.89396 0.9736 0.0
C589 C 0.92773 0.85019 0.99339 0.0
C590 C 0.93839 0.86801 0.96782 0.0
C591 C 0.96838 0.92077 0.89463 0.0
C592 C 0.95845 0.90224 0.91936 0.0
H593 H 0.91423 0.80426 0.96557 0.0
H594 H 0.93139 0.83383 0.92308 0.0
H595 H 0.95625 0.87107 0.03946 0.0
H596 H 0.98412 0.96505 0.93057 0.0
H597 H 0.96959 0.93409 0.97152 0.0
C598 C 0.68781 0.94387 0.98503 0.0
C599 C 0.70141 0.9529 0.01721 0.0
C600 C 0.67175 0.95404 0.96418 0.0
C601 C 0.64235 0.99726 0.98194 0.0
H602 H 0.62309 0.98714 0.83801 0.0
C603 C 0.5763 0.01802 0.81576 0.0
C604 C 0.56088 0.01642 0.85383 0.0
C605 C 0.59517 0.01493 0.83408 0.0
C606 C 0.62843 0.99052 0.87777 0.0
H607 H 0.70938 0.97988 0.05094 0.0
H608 H 0.6814 0.99776 0.01429 0.0
H609 H 0.65262 0.97221 0.87247 0.0
H610 H 0.55337 0.01198 0.94129 0.0
H611 H 0.58599 0.00603 0.97298 0.0
H612 H 0.61828 0.01587 0.98669 0.0
C613 C 0.68278 0.98262 0.00653 0.0
C614 C 0.64523 0.98161 0.89805 0.0
C615 C 0.69876 0.97235 0.02782 0.0
C616 C 0.56489 0.01322 0.91078 0.0
C617 C 0.58371 0.00991 0.92904 0.0
C618 C 0.62562 0.00634 0.96138 0.0
C619 C 0.66911 0.97361 0.97422 0.0
C620 C 0.65215 0.98447 0.95095 0.0
C621 C 0.59899 0.00997 0.89079 0.0
C622 C 0.6182 0.00272 0.90955 0.0
H623 H 0.68955 0.92888 0.97619 0.0
H624 H 0.66134 0.94647 0.94046 0.0
H625 H 0.64722 -0.00023 0.02292 0.0
H626 H 0.57371 0.02066 0.77159 0.0
H627 H 0.60666 0.01562 0.80355 0.0
C628 C 0.56802 0.68297 0.03316 0.0
C629 C 0.58678 0.68887 0.01518 0.0
C630 C 0.55995 0.66508 0.02074 0.0
C631 C 0.57217 0.61648 0.98623 0.0
H632 H 0.52273 0.61658 0.91212 0.0
C633 C 0.54501 0.55103 0.87637 0.0
C634 C 0.52508 0.54704 0.8735 0.0
C635 C 0.55196 0.56754 0.89954 0.0
C636 C 0.53635 0.61613 0.93384 0.0
H637 H 0.61183 0.68086 0.97023 0.0
H638 H 0.59785 0.64935 0.94938 0.0
H639 H 0.53588 0.6469 0.94237 0.0
H640 H 0.49682 0.55677 0.89472 0.0
H641 H 0.50894 0.5852 0.93722 0.0
H642 H 0.57264 0.58574 0.97877 0.0
C643 C 0.58943 0.65856 0.9731 0.0
C644 C 0.54391 0.63356 0.95087 0.0
C645 C 0.59736 0.67659 0.9847 0.0
C646 C 0.51226 0.55955 0.89601 0.0
C647 C 0.51923 0.57594 0.91998 0.0
C648 C 0.56449 0.59897 0.97004 0.0
C649 C 0.57062 0.65269 0.99076 0.0
C650 C 0.56202 0.63395 0.97639 0.0
C651 C 0.53917 0.58035 0.92123 0.0
C652 C 0.54662 0.59862 0.94271 0.0
H653 H 0.55942 0.69239 0.05569 0.0
H654 H 0.54541 0.66089 0.03469 0.0
H655 H 0.58607 0.61637 0.00648 0.0
H656 H 0.55527 0.54175 0.85903 0.0
H657 H 0.56737 0.57057 0.89872 0.0
C658 C 0.82677 0.56655 0.05316 0.0
C659 C 0.81312 0.55571 0.08771 0.0
C660 C 0.84402 0.55813 0.04 0.0
C661 C 0.86529 0.51355 0.01388 0.0
H662 H 0.91401 0.53973 0.04134 0.0
C663 C 0.93815 0.48944 0.92749 0.0
C664 C 0.95057 0.50501 0.90569 0.0
C665 C 0.92185 0.49312 0.95867 0.0
C666 C 0.90054 0.53228 0.03301 0.0
H667 H 0.80647 0.52761 0.13533 0.0
H668 H 0.83664 0.51254 0.11065 0.0
H669 H 0.88424 0.5512 0.07858 0.0
H670 H 0.95552 0.53664 0.89919 0.0
H671 H 0.92719 0.54301 0.95137 0.0
H672 H 0.88134 0.49544 0.96517 0.0
C673 C 0.83403 0.52765 0.09464 0.0
C674 C 0.88355 0.53878 0.05472 0.0
C675 C 0.81691 0.53625 0.10886 0.0
C676 C 0.94639 0.52423 0.9157 0.0
C677 C 0.93016 0.5279 0.94624 0.0
C678 C 0.88229 0.50722 0.99123 0.0
C679 C 0.84772 0.53859 0.06028 0.0
C680 C 0.86577 0.52978 0.04421 0.0
C681 C 0.91768 0.51244 0.96835 0.0
C682 C 0.90005 0.51692 0.99916 0.0
H683 H 0.82413 0.5816 0.0366 0.0
H684 H 0.85435 0.56677 0.01313 0.0
H685 H 0.85165 0.50646 0.00516 0.0
H686 H 0.94101 0.47446 0.92052 0.0
H687 H 0.91259 0.48085 0.97533 0.0
C688 C 0.05264 0.16289 0.27042 0.0
C689 C 0.07213 0.16819 0.27742 0.0
C690 C 0.04744 0.14912 0.23453 0.0
C691 C 0.06523 0.12455 0.1168 0.0
H692 H 0.02495 0.08595 0.1652 0.0
C693 C 0.03082 0.07117 0.9733 0.0
C694 C 0.02572 0.05208 0.99742 0.0
C695 C 0.03771 0.08531 0.00618 0.0
C696 C 0.03636 0.09649 0.15121 0.0
H697 H 0.10143 0.16331 0.25169 0.0
H698 H 0.09236 0.1391 0.18966 0.0
H699 H 0.03439 0.11067 0.22484 0.0
H700 H 0.02496 0.03253 0.07417 0.0
H701 H 0.03716 0.05702 0.13135 0.0
H702 H 0.06742 0.11003 0.04354 0.0
C703 C 0.08107 0.14578 0.21136 0.0
C704 C 0.04159 0.11086 0.18512 0.0
C705 C 0.08628 0.15958 0.2472 0.0
C706 C 0.02841 0.04721 0.0546 0.0
C707 C 0.03536 0.06127 0.08736 0.0
C708 C 0.05999 0.11014 0.0828 0.0
C709 C 0.0616 0.14028 0.20488 0.0
C710 C 0.05606 0.12508 0.16836 0.0
C711 C 0.03971 0.08061 0.06379 0.0
C712 C 0.04551 0.09591 0.0997 0.0
H713 H 0.04137 0.16932 0.2928 0.0
H714 H 0.03229 0.14547 0.22985 0.0
H715 H 0.07632 0.1354 0.10241 0.0
H716 H 0.02874 0.07541 0.92945 0.0
H717 H 0.04079 0.1001 0.98675 0.0
C718 C 0.34091 0.98743 0.33352 0.0
C719 C 0.34578 0.97488 0.38114 0.0
C720 C 0.35399 0.9913 0.28929 0.0
C721 C 0.39483 0.96905 0.22676 0.0
H722 H 0.40716 0.02132 0.154 0.0
C723 C 0.46178 0.98441 0.09009 0.0
C724 C 0.46083 0.99741 0.04104 0.0
C725 C 0.44644 0.98228 0.12762 0.0
C726 C 0.40362 0.00661 0.1733 0.0
H727 H 0.36845 0.95711 0.42036 0.0
H728 H 0.39112 0.9638 0.34338 0.0
H729 H 0.38283 0.01689 0.22816 0.0
H730 H 0.44287 0.0184 0.99311 0.0
H731 H 0.41574 0.01445 0.05885 0.0
H732 H 0.41548 0.95867 0.17249 0.0
C733 C 0.37713 0.97048 0.33998 0.0
C734 C 0.38975 0.00409 0.21582 0.0
C735 C 0.36416 0.96674 0.38422 0.0
C736 C 0.44401 0.00819 0.03034 0.0
C737 C 0.42856 0.00605 0.06818 0.0
C738 C 0.40854 0.97154 0.18426 0.0
C739 C 0.37208 0.98254 0.29173 0.0
C740 C 0.38557 0.98532 0.24377 0.0
C741 C 0.42961 0.99298 0.11715 0.0
C742 C 0.41346 0.99038 0.15792 0.0
H743 H 0.32687 0.99398 0.32996 0.0
H744 H 0.34973 0.00063 0.25255 0.0
H745 H 0.39156 0.95436 0.24669 0.0
H746 H 0.47432 0.97562 0.09945 0.0
H747 H 0.44788 0.97232 0.1653 0.0
C748 C 0.45987 0.36438 0.28629 0.0
C749 C 0.44023 0.36266 0.30117 0.0
C750 C 0.46614 0.37767 0.24141 0.0
C751 C 0.45246 0.42258 0.15343 0.0
H752 H 0.48924 0.40552 0.04959 0.0
C753 C 0.47104 0.46825 0.94407 0.0
C754 C 0.49033 0.46886 0.92577 0.0
C755 C 0.46515 0.45566 0.99084 0.0
C756 C 0.47917 0.41063 0.07857 0.0
H757 H 0.41181 0.37372 0.28083 0.0
H758 H 0.42277 0.39689 0.20238 0.0
H759 H 0.47858 0.38296 0.1295 0.0
H760 H 0.51861 0.45688 0.94276 0.0
H761 H 0.50839 0.43516 0.02484 0.0
H762 H 0.45308 0.45027 0.10263 0.0
C763 C 0.43333 0.38804 0.22572 0.0
C764 C 0.47304 0.39767 0.12434 0.0
C765 C 0.42703 0.37468 0.27048 0.0
C766 C 0.50362 0.45672 0.95561 0.0
C767 C 0.49774 0.44417 0.00249 0.0
C768 C 0.45864 0.43557 0.10774 0.0
C769 C 0.45294 0.38961 0.21051 0.0
C770 C 0.45958 0.40349 0.16222 0.0
C771 C 0.47841 0.44342 0.02054 0.0
C772 C 0.47204 0.42973 0.06967 0.0
H773 H 0.47043 0.35538 0.30913 0.0
H774 H 0.48137 0.37871 0.23116 0.0
H775 H 0.44228 0.42758 0.18229 0.0
H776 H 0.46041 0.47735 0.9219 0.0
H777 H 0.4501 0.45527 0.0031 0.0
C778 C 0.10825 0.46035 0.32862 0.0
C779 C 0.11766 0.44233 0.33518 0.0
C780 C 0.09529 0.46455 0.28533 0.0
C781 C 0.06517 0.44363 0.1813 0.0
H782 H 0.07724 0.49308 0.09178 0.0
C783 C 0.03223 0.46357 0.96438 0.0
C784 C 0.02775 0.48329 0.94878 0.0
C785 C 0.04227 0.45819 0.01336 0.0
C786 C 0.07341 0.47938 0.11669 0.0
H787 H 0.1198 0.41406 0.30391 0.0
H788 H 0.09695 0.42141 0.22843 0.0
H789 H 0.09509 0.48414 0.17647 0.0
H790 H 0.02995 0.5128 0.97264 0.0
H791 H 0.04691 0.5034 0.05865 0.0
H792 H 0.04332 0.43895 0.12184 0.0
C793 C 0.09974 0.43228 0.25668 0.0
C794 C 0.08368 0.47425 0.16521 0.0
C795 C 0.11285 0.42811 0.29978 0.0
C796 C 0.03337 0.49751 0.98326 0.0
C797 C 0.04319 0.49211 0.0325 0.0
C798 C 0.0547 0.44887 0.13298 0.0
C799 C 0.09132 0.45078 0.24805 0.0
C800 C 0.07972 0.45632 0.19792 0.0
C801 C 0.04785 0.4724 0.04809 0.0
C802 C 0.05874 0.4668 0.09995 0.0
H803 H 0.11149 0.47157 0.35543 0.0
H804 H 0.08875 0.47882 0.28007 0.0
H805 H 0.06179 0.42976 0.20597 0.0
H806 H 0.02814 0.45229 0.9385 0.0
H807 H 0.04588 0.44294 0.02352 0.0
C808 C 0.90447 0.86519 0.32525 0.0
C809 C 0.91772 0.85391 0.29957 0.0
C810 C 0.9109 0.87908 0.3594 0.0
C811 C 0.95371 0.90949 0.38633 0.0
H812 H 0.92682 0.91636 0.52277 0.0
C813 C 0.97147 0.97495 0.50716 0.0
C814 C 0.97318 0.97097 0.56499 0.0
C815 C 0.96377 0.96077 0.47593 0.0
C816 C 0.93454 0.91455 0.48494 0.0
H817 H 0.9481 0.84819 0.29038 0.0
H818 H 0.95929 0.87233 0.35022 0.0
H819 H 0.91573 0.89077 0.46716 0.0
H820 H 0.96772 0.94901 0.63545 0.0
H821 H 0.95424 0.92423 0.58089 0.0
H822 H 0.97269 0.933 0.40437 0.0
C823 C 0.94394 0.8706 0.34339 0.0
C824 C 0.92808 0.90002 0.45282 0.0
C825 C 0.93752 0.85668 0.30933 0.0
C826 C 0.96643 0.95265 0.59108 0.0
C827 C 0.95872 0.93843 0.55978 0.0
C828 C 0.96012 0.92402 0.4183 0.0
C829 C 0.93072 0.88205 0.36854 0.0
C830 C 0.93761 0.89732 0.40315 0.0
C831 C 0.95759 0.94223 0.50175 0.0
C832 C 0.9506 0.92676 0.46792 0.0
H833 H 0.88912 0.86344 0.3186 0.0
H834 H 0.90036 0.88781 0.37767 0.0
H835 H 0.96124 0.90795 0.348 0.0
H836 H 0.97618 0.98903 0.48591 0.0
H837 H 0.96272 0.96432 0.43143 0.0
C838 C 0.66676 0.98439 0.28221 0.0
C839 C 0.67124 0.96458 0.2808 0.0
C840 C 0.65317 0.98965 0.3201 0.0
C841 C 0.62774 0.9715 0.45116 0.0
H842 H 0.59009 0.01004 0.39897 0.0
C843 C 0.57175 0.0001 0.59732 0.0
C844 C 0.55285 0.00222 0.5771 0.0
C845 C 0.5868 0.99612 0.56223 0.0
C846 C 0.60044 0.99918 0.41411 0.0
H847 H 0.66513 0.93478 0.3186 0.0
H848 H 0.64133 0.94394 0.38418 0.0
H849 H 0.61533 0.00184 0.33619 0.0
H850 H 0.53496 0.00144 0.50426 0.0
H851 H 0.56115 0.99447 0.44319 0.0
H852 H 0.61253 0.96847 0.52864 0.0
C853 C 0.64847 0.95544 0.35648 0.0
C854 C 0.61505 0.99466 0.37833 0.0
C855 C 0.66204 0.95019 0.31861 0.0
C856 C 0.54937 0.00022 0.521 0.0
C857 C 0.56441 0.99624 0.48595 0.0
C858 C 0.61314 0.97605 0.48697 0.0
C859 C 0.64378 0.97522 0.35744 0.0
C860 C 0.62878 0.98065 0.3963 0.0
C861 C 0.5833 0.99416 0.50611 0.0
C862 C 0.59923 0.98983 0.46872 0.0
H863 H 0.67364 0.99585 0.25377 0.0
H864 H 0.65006 0.00504 0.32026 0.0
H865 H 0.63822 0.9608 0.46646 0.0
H866 H 0.575 0.00185 0.64004 0.0
H867 H 0.60124 0.99486 0.57888 0.0
C868 C 0.5521 0.64699 0.29772 0.0
C869 C 0.5704 0.64561 0.27365 0.0
C870 C 0.546 0.63354 0.34248 0.0
C871 C 0.55597 0.58435 0.41549 0.0
H872 H 0.52841 0.60352 0.53667 0.0
C873 C 0.54106 0.537 0.62529 0.0
C874 C 0.52271 0.53824 0.64917 0.0
C875 C 0.54667 0.54972 0.57841 0.0
C876 C 0.53591 0.59789 0.50289 0.0
H877 H 0.5966 0.62895 0.27761 0.0
H878 H 0.58608 0.6057 0.35611 0.0
H879 H 0.5385 0.62639 0.45683 0.0
H880 H 0.49578 0.55371 0.64217 0.0
H881 H 0.50554 0.5758 0.56041 0.0
H882 H 0.5535 0.55586 0.46199 0.0
C883 C 0.57631 0.61699 0.33991 0.0
C884 C 0.54167 0.611 0.45707 0.0
C885 C 0.5824 0.6304 0.29507 0.0
C886 C 0.51005 0.55238 0.62493 0.0
C887 C 0.51567 0.56513 0.57824 0.0
C888 C 0.55025 0.57124 0.46144 0.0
C889 C 0.55807 0.61843 0.3643 0.0
C890 C 0.55177 0.6044 0.41278 0.0
C891 C 0.53407 0.564 0.55458 0.0
C892 C 0.54015 0.57787 0.50564 0.0
H893 H 0.54246 0.65847 0.28204 0.0
H894 H 0.53175 0.6349 0.35973 0.0
H895 H 0.56347 0.57871 0.38175 0.0
H896 H 0.55118 0.52629 0.64302 0.0
H897 H 0.56101 0.54862 0.56146 0.0
C898 C 0.85868 0.53286 0.35656 0.0
C899 C 0.85605 0.5522 0.33206 0.0
C900 C 0.87302 0.52882 0.39617 0.0
C901 C 0.9024 0.55192 0.49772 0.0
H902 H 0.9336 0.50594 0.49555 0.0
C903 C 0.96398 0.53454 0.65407 0.0
C904 C 0.96514 0.51482 0.67704 0.0
C905 C 0.95185 0.5397 0.60916 0.0
C906 C 0.9249 0.51875 0.497 0.0
H907 H 0.86652 0.58242 0.32967 0.0
H908 H 0.89156 0.57532 0.39883 0.0
H909 H 0.91002 0.51373 0.4226 0.0
H910 H 0.95459 0.48506 0.67057 0.0
H911 H 0.93332 0.49408 0.59305 0.0
H912 H 0.91701 0.55676 0.57261 0.0
C913 C 0.88242 0.56333 0.38765 0.0
C914 C 0.9114 0.52321 0.4552 0.0
C915 C 0.86813 0.56737 0.34785 0.0
C916 C 0.95409 0.50038 0.65377 0.0
C917 C 0.94197 0.50553 0.60903 0.0
C918 C 0.91586 0.54742 0.53965 0.0
C919 C 0.885 0.54402 0.41229 0.0
C920 C 0.89989 0.53974 0.45538 0.0
C921 C 0.94063 0.52525 0.58634 0.0
C922 C 0.92713 0.53068 0.54006 0.0
H923 H 0.84962 0.52083 0.34533 0.0
H924 H 0.87451 0.51381 0.4149 0.0
H925 H 0.89358 0.56463 0.49933 0.0
H926 H 0.97234 0.54601 0.67099 0.0
H927 H 0.9513 0.55499 0.59222 0.0
loop_
_geom_bond_atom_site_label_1
_geom_bond_atom_site_label_2
_geom_bond_distance
_geom_bond_site_symmetry_2
_ccdc_geom_bond_type
O0 Cd1 2.300 . S
O0 C7 1.275 . S
Cd1 O0 2.300 . S
Cd1 O9 2.381 . S
Cd1 O10 2.378 . S
O2 Cd3 2.385 . S
O2 C7 1.255 . S
Cd3 O2 2.385 . S
Cd3 O4 2.317 . S
O4 Cd3 2.317 . S
O4 C5 1.232 . S
C5 O4 1.232 . S
C5 O6 1.218 . S
O6 C5 1.218 . S
C7 O0 1.275 . S
C7 O2 1.255 . S
C8 O9 1.258 . S
C8 O10 1.256 . S
O9 Cd1 2.381 . S
O9 C8 1.258 . S
O10 Cd1 2.378 . S
O10 C8 1.256 . S
O11 Cd12 2.300 . S
O11 C18 1.275 . S
Cd12 O11 2.300 . S
Cd12 O20 2.381 . S
Cd12 O21 2.378 . S
O13 Cd14 2.385 . S
O13 C18 1.255 . S
Cd14 O13 2.385 . S
Cd14 O15 2.317 . S
O15 Cd14 2.317 . S
O15 C16 1.232 . S
C16 O15 1.232 . S
C16 O17 1.218 . S
O17 C16 1.218 . S
C18 O11 1.275 . S
C18 O13 1.255 . S
C19 O20 1.258 . S
C19 O21 1.256 . S
O20 Cd12 2.381 . S
O20 C19 1.258 . S
O21 Cd12 2.378 . S
O21 C19 1.256 . S
O22 Cd23 2.300 1_565 S
O22 C29 1.275 1_565 S
Cd23 O22 2.300 1_545 S
Cd23 O31 2.381 1_545 S
Cd23 O32 2.378 . S
O24 Cd25 2.385 . S
O24 C29 1.255 . S
Cd25 O24 2.385 . S
Cd25 O26 2.317 . S
O26 Cd25 2.317 . S
O26 C27 1.232 . S
C27 O26 1.232 . S
C27 O28 1.218 . S
O28 C27 1.218 . S
C29 O22 1.275 1_545 S
C29 O24 1.255 . S
C30 O31 1.258 1_545 S
C30 O32 1.256 . S
O31 Cd23 2.381 1_565 S
O31 C30 1.258 1_565 S
O32 Cd23 2.378 . S
O32 C30 1.256 . S
O33 Cd34 2.300 . S
O33 C40 1.275 . S
Cd34 O33 2.300 . S
Cd34 O42 2.381 . S
Cd34 O43 2.378 . S
O35 Cd36 2.385 . S
O35 C40 1.255 . S
Cd36 O35 2.385 . S
Cd36 O37 2.317 . S
O37 Cd36 2.317 . S
O37 C38 1.232 . S
C38 O37 1.232 . S
C38 O39 1.218 . S
O39 C38 1.218 . S
C40 O33 1.275 . S
C40 O35 1.255 . S
C41 O42 1.258 . S
C41 O43 1.256 . S
O42 Cd34 2.381 . S
O42 C41 1.258 . S
O43 Cd34 2.378 . S
O43 C41 1.256 . S
O44 Cd45 2.300 . S
O44 C51 1.275 . S
Cd45 O44 2.300 . S
Cd45 O53 2.381 . S
Cd45 O54 2.378 . S
O46 Cd47 2.385 . S
O46 C51 1.255 . S
Cd47 O46 2.385 . S
Cd47 O48 2.317 . S
O48 Cd47 2.317 . S
O48 C49 1.232 . S
C49 O48 1.232 . S
C49 O50 1.218 . S
O50 C49 1.218 . S
C51 O44 1.275 . S
C51 O46 1.255 . S
C52 O53 1.258 . S
C52 O54 1.256 . S
O53 Cd45 2.381 . S
O53 C52 1.258 . S
O54 Cd45 2.378 . S
O54 C52 1.256 . S
O55 Cd56 2.300 . S
O55 C62 1.275 . S
Cd56 O55 2.300 . S
Cd56 O64 2.381 . S
Cd56 O65 2.378 . S
O57 Cd58 2.385 . S
O57 C62 1.255 . S
Cd58 O57 2.385 . S
Cd58 O59 2.317 . S
O59 Cd58 2.317 . S
O59 C60 1.232 . S
C60 O59 1.232 . S
C60 O61 1.218 . S
O61 C60 1.218 . S
C62 O55 1.275 . S
C62 O57 1.255 . S
C63 O64 1.258 . S
C63 O65 1.256 . S
O64 Cd56 2.381 . S
O64 C63 1.258 . S
O65 Cd56 2.378 . S
O65 C63 1.256 . S
O66 Cd67 2.300 1_565 S
O66 C73 1.275 1_565 S
Cd67 O66 2.300 1_545 S
Cd67 O75 2.381 1_545 S
Cd67 O76 2.378 . S
O68 Cd69 2.385 . S
O68 C73 1.255 . S
Cd69 O68 2.385 . S
Cd69 O70 2.317 . S
O70 Cd69 2.317 . S
O70 C71 1.232 . S
C71 O70 1.232 . S
C71 O72 1.218 . S
O72 C71 1.218 . S
C73 O66 1.275 1_545 S
C73 O68 1.255 . S
C74 O75 1.258 1_545 S
C74 O76 1.256 . S
O75 Cd67 2.381 1_565 S
O75 C74 1.258 1_565 S
O76 Cd67 2.378 . S
O76 C74 1.256 . S
O77 Cd78 2.300 . S
O77 C84 1.275 . S
Cd78 O77 2.300 . S
Cd78 O86 2.381 . S
Cd78 O87 2.378 . S
O79 Cd80 2.385 . S
O79 C84 1.255 . S
Cd80 O79 2.385 . S
Cd80 O81 2.317 . S
O81 Cd80 2.317 . S
O81 C82 1.232 . S
C82 O81 1.232 . S
C82 O83 1.218 . S
O83 C82 1.218 . S
C84 O77 1.275 . S
C84 O79 1.255 . S
C85 O86 1.258 . S
C85 O87 1.256 . S
O86 Cd78 2.381 . S
O86 C85 1.258 . S
O87 Cd78 2.378 . S
O87 C85 1.256 . S
Co88 N93 2.057 . S
Co88 O105 2.021 . S
Co88 O108 2.062 . S
Co88 O112 2.117 1_455 S
Co88 O113 2.020 1_545 S
C89 O109 1.259 1_545 S
C89 O112 1.258 . S
Co90 N99 2.057 . S
Co90 O106 2.117 1_655 S
Co90 O107 2.020 1_665 S
Co90 O109 2.021 . S
Co90 O114 2.062 . S
C91 N93 1.316 . S
C91 N94 1.347 . S
C91 H96 0.931 . S
C92 N93 1.375 1_655 S
C92 C95 1.350 1_655 S
C92 H97 0.930 . S
N93 Co88 2.057 . S
N93 C91 1.316 . S
N93 C92 1.375 1_455 S
N94 C91 1.347 . S
N94 C95 1.373 . S
C95 C92 1.350 1_455 S
C95 N94 1.373 . S
C95 H116 0.931 1_455 S
H96 C91 0.931 . S
H97 C92 0.930 . S
C98 O105 1.259 1_565 S
C98 O106 1.258 . S
N99 Co90 2.057 . S
N99 C100 1.316 . S
N99 C101 1.375 1_655 S
C100 N99 1.316 . S
C100 N102 1.347 . S
C100 H111 0.931 . S
C101 N99 1.375 1_455 S
C101 C103 1.350 . S
C101 H110 0.930 . S
N102 C100 1.347 . S
N102 C103 1.373 1_655 S
C103 C101 1.350 . S
C103 N102 1.373 1_455 S
C103 H117 0.931 . S
C104 O107 1.256 . S
C104 O108 1.255 . S
O105 Co88 2.021 . S
O105 C98 1.259 1_545 S
O106 Co90 2.117 1_455 S
O106 C98 1.258 . S
O107 Co90 2.020 1_445 S
O107 C104 1.256 . S
O108 Co88 2.062 . S
O108 C104 1.255 . S
O109 C89 1.259 1_565 S
O109 Co90 2.021 . S
H110 C101 0.930 . S
H111 C100 0.931 . S
O112 Co88 2.117 1_655 S
O112 C89 1.258 . S
O113 Co88 2.020 1_565 S
O113 C115 1.256 . S
O114 Co90 2.062 . S
O114 C115 1.255 1_655 S
C115 O113 1.256 . S
C115 O114 1.255 1_455 S
H116 C95 0.931 1_655 S
H117 C103 0.931 . S
Co118 N123 2.057 . S
Co118 O135 2.021 . S
Co118 O138 2.061 . S
Co118 O142 2.117 1_545 S
Co118 O143 2.020 . S
C119 O139 1.259 . S
C119 O142 1.258 . S
Co120 N129 2.057 1_565 S
Co120 O136 2.117 1_565 S
Co120 O137 2.020 . S
Co120 O139 2.021 . S
Co120 O144 2.061 1_565 S
C121 N123 1.316 . S
C121 N124 1.347 . S
C121 H126 0.931 . S
C122 N123 1.375 1_565 S
C122 C125 1.350 . S
C122 H127 0.930 . S
N123 Co118 2.057 . S
N123 C121 1.316 . S
N123 C122 1.375 1_545 S
N124 C121 1.347 . S
N124 C125 1.373 1_545 S
C125 C122 1.350 . S
C125 N124 1.373 1_565 S
C125 H146 0.931 1_556 S
H126 C121 0.931 . S
H127 C122 0.930 . S
C128 O135 1.259 . S
C128 O136 1.258 . S
N129 Co120 2.057 1_545 S
N129 C130 1.316 1_545 S
N129 C131 1.375 . S
C130 N129 1.316 1_565 S
C130 N132 1.347 . S
C130 H141 0.931 . S
C131 N129 1.375 . S
C131 C133 1.350 . S
C131 H140 0.930 . S
N132 C130 1.347 . S
N132 C133 1.373 1_565 S
C133 C131 1.350 . S
C133 N132 1.373 1_545 S
C133 H147 0.931 . S
C134 O137 1.256 . S
C134 O138 1.256 1_565 S
O135 Co118 2.021 . S
O135 C128 1.259 . S
O136 Co120 2.117 1_545 S
O136 C128 1.258 . S
O137 Co120 2.020 . S
O137 C134 1.256 . S
O138 Co118 2.061 . S
O138 C134 1.256 1_545 S
O139 C119 1.259 . S
O139 Co120 2.021 . S
H140 C131 0.930 . S
H141 C130 0.931 . S
O142 Co118 2.117 1_565 S
O142 C119 1.258 . S
O143 Co118 2.020 . S
O143 C145 1.256 . S
O144 Co120 2.061 1_545 S
O144 C145 1.256 . S
C145 O143 1.256 . S
C145 O144 1.256 . S
H146 C125 0.931 1_554 S
H147 C133 0.931 . S
Co148 N153 2.057 . S
Co148 O165 2.021 . S
Co148 O168 2.062 . S
Co148 O172 2.117 . S
Co148 O173 2.020 . S
C149 O169 1.259 . S
C149 O172 1.258 . S
Co150 N159 2.057 . S
Co150 O166 2.117 . S
Co150 O167 2.020 . S
Co150 O169 2.021 . S
Co150 O174 2.062 . S
C151 N153 1.316 . S
C151 N154 1.347 . S
C151 H156 0.931 . S
C152 N153 1.375 . S
C152 C155 1.350 . S
C152 H157 0.930 . S
N153 Co148 2.057 . S
N153 C151 1.316 . S
N153 C152 1.375 . S
N154 C151 1.347 . S
N154 C155 1.373 . S
C155 C152 1.350 . S
C155 N154 1.373 . S
C155 H176 0.931 . S
H156 C151 0.931 . S
H157 C152 0.930 . S
C158 O165 1.259 . S
C158 O166 1.258 . S
N159 Co150 2.057 . S
N159 C160 1.316 . S
N159 C161 1.375 . S
C160 N159 1.316 . S
C160 N162 1.347 . S
C160 H171 0.931 . S
C161 N159 1.375 . S
C161 C163 1.350 . S
C161 H170 0.930 . S
N162 C160 1.347 . S
N162 C163 1.373 . S
C163 C161 1.350 . S
C163 N162 1.373 . S
C163 H177 0.931 . S
C164 O167 1.256 . S
C164 O168 1.255 . S
O165 Co148 2.021 . S
O165 C158 1.259 . S
O166 Co150 2.117 . S
O166 C158 1.258 . S
O167 Co150 2.020 . S
O167 C164 1.256 . S
O168 Co148 2.062 . S
O168 C164 1.255 . S
O169 C149 1.259 . S
O169 Co150 2.021 . S
H170 C161 0.930 . S
H171 C160 0.931 . S
O172 Co148 2.117 . S
O172 C149 1.258 . S
O173 Co148 2.020 . S
O173 C175 1.256 . S
O174 Co150 2.062 . S
O174 C175 1.255 . S
C175 O173 1.256 . S
C175 O174 1.255 . S
H176 C155 0.931 . S
H177 C163 0.931 . S
Co178 N183 2.057 . S
Co178 O195 2.021 1_455 S
Co178 O198 2.062 1_455 S
Co178 O202 2.117 . S
Co178 O203 2.020 . S
C179 O199 1.259 . S
C179 O202 1.258 . S
Co180 N189 2.057 . S
Co180 O196 2.117 1_455 S
Co180 O197 2.020 1_455 S
Co180 O199 2.021 . S
Co180 O204 2.062 . S
C181 N183 1.316 1_655 S
C181 N184 1.354 . S
C181 H186 0.931 . S
C182 N183 1.375 . S
C182 C185 1.350 . S
C182 H187 0.930 . S
N183 Co178 2.057 . S
N183 C181 1.316 1_455 S
N183 C182 1.375 . S
N184 C181 1.354 . S
N184 C185 1.346 1_655 S
C185 C182 1.350 . S
C185 N184 1.346 1_455 S
C185 H206 0.931 . S
H186 C181 0.931 . S
H187 C182 0.930 . S
C188 O195 1.259 . S
C188 O196 1.258 . S
N189 Co180 2.057 . S
N189 C190 1.316 . S
N189 C191 1.375 1_455 S
C190 N189 1.316 . S
C190 N192 1.347 . S
C190 H201 0.931 . S
C191 N189 1.375 1_655 S
C191 C193 1.350 . S
C191 H200 0.930 . S
N192 C190 1.347 . S
N192 C193 1.373 1_455 S
C193 C191 1.350 . S
C193 N192 1.373 1_655 S
C193 H207 0.931 . S
C194 O197 1.256 . S
C194 O198 1.255 . S
O195 Co178 2.021 1_655 S
O195 C188 1.259 . S
O196 Co180 2.117 1_655 S
O196 C188 1.258 . S
O197 Co180 2.020 1_655 S
O197 C194 1.256 . S
O198 Co178 2.062 1_655 S
O198 C194 1.255 . S
O199 C179 1.259 . S
O199 Co180 2.021 . S
H200 C191 0.930 . S
H201 C190 0.931 . S
O202 Co178 2.117 . S
O202 C179 1.258 . S
O203 Co178 2.020 . S
O203 C205 1.256 . S
O204 Co180 2.062 . S
O204 C205 1.255 . S
C205 O203 1.256 . S
C205 O204 1.255 . S
H206 C185 0.931 . S
H207 C193 0.931 . S
C208 C209 1.344 1_545 S
C208 C210 1.327 . S
C208 H233 0.950 . S
C209 C208 1.344 1_565 S
C209 C225 1.354 . S
C210 C208 1.327 . S
C210 C229 1.429 1_545 S
C210 H234 0.950 . S
C211 C228 1.574 . S
C211 C230 1.368 . S
C211 H235 0.949 . S
H212 C216 0.949 . S
C213 C214 1.349 . S
C213 C215 1.327 . S
C213 H236 0.950 . S
C214 C213 1.349 . S
C214 C226 1.349 1_565 S
C215 C213 1.327 . S
C215 C231 1.429 . S
C215 H237 0.950 . S
C216 H212 0.949 . S
C216 C224 1.574 . S
C216 C232 1.368 1_545 S
H217 C225 0.950 . S
H218 C223 0.950 . S
H219 C224 0.949 . S
H220 C226 0.950 . S
H221 C227 0.950 . S
H222 C228 0.949 . S
C223 H218 0.950 . S
C223 C225 1.327 . S
C223 C229 1.429 . S
C224 C216 1.574 . S
C224 H219 0.949 . S
C224 C230 1.368 1_545 S
C225 C209 1.354 . S
C225 H217 0.950 . S
C225 C223 1.327 . S
C226 C214 1.349 1_545 S
C226 H220 0.950 . S
C226 C227 1.327 . S
C227 H221 0.950 . S
C227 C226 1.327 . S
C227 C231 1.429 1_545 S
C228 C211 1.574 . S
C228 H222 0.949 . S
C228 C232 1.368 . S
C229 C210 1.429 1_565 S
C229 C223 1.429 . S
C229 C230 1.523 . S
C230 C211 1.368 . S
C230 C224 1.368 1_565 S
C230 C229 1.523 . S
C231 C215 1.429 . S
C231 C227 1.429 1_565 S
C231 C232 1.523 . S
C232 C216 1.368 1_565 S
C232 C228 1.368 . S
C232 C231 1.523 . S
H233 C208 0.950 . S
H234 C210 0.950 . S
H235 C211 0.949 . S
H236 C213 0.950 . S
H237 C215 0.950 . S
C238 C239 1.349 . S
C238 C240 1.327 . S
C238 H263 0.950 . S
C239 C238 1.349 . S
C239 C255 1.349 . S
C240 C238 1.327 . S
C240 C259 1.429 . S
C240 H264 0.950 . S
C241 C258 1.574 . S
C241 C260 1.368 . S
C241 H265 0.949 . S
H242 C246 0.949 . S
C243 C244 1.349 . S
C243 C245 1.327 . S
C243 H266 0.950 . S
C244 C243 1.349 . S
C244 C256 1.349 . S
C245 C243 1.327 . S
C245 C261 1.429 . S
C245 H267 0.950 . S
C246 H242 0.949 . S
C246 C254 1.574 . S
C246 C262 1.368 . S
H247 C255 0.950 . S
H248 C253 0.950 . S
H249 C254 0.949 . S
H250 C256 0.950 . S
H251 C257 0.950 . S
H252 C258 0.949 . S
C253 H248 0.950 . S
C253 C255 1.327 . S
C253 C259 1.429 . S
C254 C246 1.574 . S
C254 H249 0.949 . S
C254 C260 1.368 . S
C255 C239 1.349 . S
C255 H247 0.950 . S
C255 C253 1.327 . S
C256 C244 1.349 . S
C256 H250 0.950 . S
C256 C257 1.327 . S
C257 H251 0.950 . S
C257 C256 1.327 . S
C257 C261 1.429 . S
C258 C241 1.574 . S
C258 H252 0.949 . S
C258 C262 1.368 . S
C259 C240 1.429 . S
C259 C253 1.429 . S
C259 C260 1.523 . S
C260 C241 1.368 . S
C260 C254 1.368 . S
C260 C259 1.523 . S
C261 C245 1.429 . S
C261 C257 1.429 . S
C261 C262 1.523 . S
C262 C246 1.368 . S
C262 C258 1.368 . S
C262 C261 1.523 . S
H263 C238 0.950 . S
H264 C240 0.950 . S
H265 C241 0.949 . S
H266 C243 0.950 . S
H267 C245 0.950 . S
C268 C269 1.349 . S
C268 C270 1.327 . S
C268 H293 0.950 . S
C269 C268 1.349 . S
C269 C285 1.349 . S
C270 C268 1.327 . S
C270 C289 1.429 . S
C270 H294 0.950 . S
C271 C288 1.574 . S
C271 C290 1.368 . S
C271 H295 0.949 . S
H272 C276 0.949 . S
C273 C274 1.349 . S
C273 C275 1.327 . S
C273 H296 0.950 . S
C274 C273 1.349 . S
C274 C286 1.349 . S
C275 C273 1.327 . S
C275 C291 1.429 . S
C275 H297 0.950 . S
C276 H272 0.949 . S
C276 C284 1.574 . S
C276 C292 1.368 . S
H277 C285 0.950 . S
H278 C283 0.950 . S
H279 C284 0.949 . S
H280 C286 0.950 . S
H281 C287 0.950 . S
H282 C288 0.949 . S
C283 H278 0.950 . S
C283 C285 1.327 . S
C283 C289 1.429 . S
C284 C276 1.574 . S
C284 H279 0.949 . S
C284 C290 1.368 . S
C285 C269 1.349 . S
C285 H277 0.950 . S
C285 C283 1.327 . S
C286 C274 1.349 . S
C286 H280 0.950 . S
C286 C287 1.327 . S
C287 H281 0.950 . S
C287 C286 1.327 . S
C287 C291 1.429 . S
C288 C271 1.574 . S
C288 H282 0.949 . S
C288 C292 1.368 . S
C289 C270 1.429 . S
C289 C283 1.429 . S
C289 C290 1.523 . S
C290 C271 1.368 . S
C290 C284 1.368 . S
C290 C289 1.523 . S
C291 C275 1.429 . S
C291 C287 1.429 . S
C291 C292 1.523 . S
C292 C276 1.368 . S
C292 C288 1.368 . S
C292 C291 1.523 . S
H293 C268 0.950 . S
H294 C270 0.950 . S
H295 C271 0.949 . S
H296 C273 0.950 . S
H297 C275 0.950 . S
C298 C299 1.349 . S
C298 C300 1.327 . S
C298 H323 0.950 . S
C299 C298 1.349 . S
C299 C315 1.349 . S
C300 C298 1.327 . S
C300 C319 1.429 . S
C300 H324 0.950 . S
C301 C318 1.574 . S
C301 C320 1.368 . S
C301 H325 0.949 . S
H302 C306 0.949 . S
C303 C304 1.349 . S
C303 C305 1.327 . S
C303 H326 0.950 . S
C304 C303 1.349 . S
C304 C316 1.349 . S
C305 C303 1.327 . S
C305 C321 1.429 . S
C305 H327 0.950 . S
C306 H302 0.949 . S
C306 C314 1.574 . S
C306 C322 1.368 . S
H307 C315 0.950 . S
H308 C313 0.950 . S
H309 C314 0.949 . S
H310 C316 0.950 . S
H311 C317 0.950 . S
H312 C318 0.949 . S
C313 H308 0.950 . S
C313 C315 1.327 . S
C313 C319 1.429 . S
C314 C306 1.574 . S
C314 H309 0.949 . S
C314 C320 1.368 . S
C315 C299 1.349 . S
C315 H307 0.950 . S
C315 C313 1.327 . S
C316 C304 1.349 . S
C316 H310 0.950 . S
C316 C317 1.327 . S
C317 H311 0.950 . S
C317 C316 1.327 . S
C317 C321 1.429 . S
C318 C301 1.574 . S
C318 H312 0.949 . S
C318 C322 1.368 . S
C319 C300 1.429 . S
C319 C313 1.429 . S
C319 C320 1.523 . S
C320 C301 1.368 . S
C320 C314 1.368 . S
C320 C319 1.523 . S
C321 C305 1.429 . S
C321 C317 1.429 . S
C321 C322 1.523 . S
C322 C306 1.368 . S
C322 C318 1.368 . S
C322 C321 1.523 . S
H323 C298 0.950 . S
H324 C300 0.950 . S
H325 C301 0.949 . S
H326 C303 0.950 . S
H327 C305 0.950 . S
C328 C329 1.336 1_566 S
C328 C330 1.327 . S
C328 H353 0.950 . S
C329 C328 1.336 1_544 S
C329 C345 1.361 . S
C330 C328 1.327 . S
C330 C349 1.429 1_565 S
C330 H354 0.950 . S
C331 C348 1.574 . S
C331 C350 1.368 . S
C331 H355 0.939 1_556 S
H332 C336 0.949 . S
C333 C334 1.349 . S
C333 C335 1.327 . S
C333 H356 0.950 . S
C334 C333 1.349 . S
C334 C346 1.349 1_545 S
C335 C333 1.327 . S
C335 C351 1.429 . S
C335 H357 0.950 . S
C336 H332 0.949 . S
C336 C344 1.574 . S
C336 C352 1.368 1_565 S
H337 C345 0.950 . S
H338 C343 0.950 . S
H339 C344 0.949 . S
H340 C346 0.950 . S
H341 C347 0.950 . S
H342 C348 0.949 . S
C343 H338 0.950 . S
C343 C345 1.327 . S
C343 C349 1.429 1_554 S
C344 C336 1.574 . S
C344 H339 0.949 . S
C344 C350 1.368 1_565 S
C345 C329 1.361 . S
C345 H337 0.950 . S
C345 C343 1.327 . S
C346 C334 1.349 1_565 S
C346 H340 0.950 . S
C346 C347 1.327 . S
C347 H341 0.950 . S
C347 C346 1.327 . S
C347 C351 1.429 1_565 S
C348 C331 1.574 . S
C348 H342 0.949 . S
C348 C352 1.368 . S
C349 C330 1.429 1_545 S
C349 C343 1.429 1_556 S
C349 C350 1.523 . S
C350 C331 1.368 . S
C350 C344 1.368 1_545 S
C350 C349 1.523 . S
C351 C335 1.429 . S
C351 C347 1.429 1_545 S
C351 C352 1.523 . S
C352 C336 1.368 1_545 S
C352 C348 1.368 . S
C352 C351 1.523 . S
H353 C328 0.950 . S
H354 C330 0.950 . S
H355 C331 0.939 1_554 S
H356 C333 0.950 . S
H357 C335 0.950 . S
C358 C359 1.349 . S
C358 C360 1.327 . S
C358 H383 0.950 . S
C359 C358 1.349 . S
C359 C375 1.349 1_554 S
C360 C358 1.327 . S
C360 C379 1.429 1_554 S
C360 H384 0.950 . S
C361 C378 1.574 . S
C361 C380 1.368 . S
C361 H385 0.949 . S
H362 C366 0.949 . S
C363 C364 1.349 . S
C363 C365 1.327 . S
C363 H386 0.950 . S
C364 C363 1.349 . S
C364 C376 1.349 . S
C365 C363 1.327 . S
C365 C381 1.429 . S
C365 H387 0.950 . S
C366 H362 0.949 . S
C366 C374 1.574 1_556 S
C366 C382 1.368 . S
H367 C375 0.950 . S
H368 C373 0.950 . S
H369 C374 0.949 . S
H370 C376 0.950 . S
H371 C377 0.950 . S
H372 C378 0.949 . S
C373 H368 0.950 . S
C373 C375 1.327 . S
C373 C379 1.429 . S
C374 C366 1.574 1_554 S
C374 H369 0.949 . S
C374 C380 1.368 1_554 S
C375 C359 1.349 1_556 S
C375 H367 0.950 . S
C375 C373 1.327 . S
C376 C364 1.349 . S
C376 H370 0.950 . S
C376 C377 1.327 . S
C377 H371 0.950 . S
C377 C376 1.327 . S
C377 C381 1.429 . S
C378 C361 1.574 . S
C378 H372 0.949 . S
C378 C382 1.368 . S
C379 C360 1.429 1_556 S
C379 C373 1.429 . S
C379 C380 1.523 . S
C380 C361 1.368 . S
C380 C374 1.368 1_556 S
C380 C379 1.523 . S
C381 C365 1.429 . S
C381 C377 1.429 . S
C381 C382 1.523 . S
C382 C366 1.368 . S
C382 C378 1.368 . S
C382 C381 1.523 . S
H383 C358 0.950 . S
H384 C360 0.950 . S
H385 C361 0.949 . S
H386 C363 0.950 . S
H387 C365 0.950 . S
C388 C389 1.349 . S
C388 C390 1.327 . S
C388 H413 0.950 . S
C389 C388 1.349 . S
C389 C405 1.349 . S
C390 C388 1.327 . S
C390 C409 1.429 . S
C390 H414 0.950 . S
C391 C408 1.574 . S
C391 C410 1.368 1_556 S
C391 H415 0.949 1_556 S
H392 C396 0.949 . S
C393 C394 1.349 . S
C393 C395 1.327 . S
C393 H416 0.950 . S
C394 C393 1.349 . S
C394 C406 1.349 . S
C395 C393 1.327 . S
C395 C411 1.429 . S
C395 H417 0.950 . S
C396 H392 0.949 . S
C396 C404 1.574 1_556 S
C396 C412 1.368 . S
H397 C405 0.950 . S
H398 C403 0.950 . S
H399 C404 0.949 . S
H400 C406 0.950 . S
H401 C407 0.950 . S
H402 C408 0.949 . S
C403 H398 0.950 . S
C403 C405 1.327 . S
C403 C409 1.429 . S
C404 C396 1.574 1_554 S
C404 H399 0.949 . S
C404 C410 1.368 . S
C405 C389 1.349 . S
C405 H397 0.950 . S
C405 C403 1.327 . S
C406 C394 1.349 . S
C406 H400 0.950 . S
C406 C407 1.327 . S
C407 H401 0.950 . S
C407 C406 1.327 . S
C407 C411 1.429 . S
C408 C391 1.574 . S
C408 H402 0.949 . S
C408 C412 1.368 . S
C409 C390 1.429 . S
C409 C403 1.429 . S
C409 C410 1.523 . S
C410 C391 1.368 1_554 S
C410 C404 1.368 . S
C410 C409 1.523 . S
C411 C395 1.429 . S
C411 C407 1.429 . S
C411 C412 1.523 . S
C412 C396 1.368 . S
C412 C408 1.368 . S
C412 C411 1.523 . S
H413 C388 0.950 . S
H414 C390 0.950 . S
H415 C391 0.949 1_554 S
H416 C393 0.950 . S
H417 C395 0.950 . S
C418 C419 1.349 . S
C418 C420 1.327 . S
C418 H443 0.950 . S
C419 C418 1.349 . S
C419 C435 1.349 . S
C420 C418 1.327 . S
C420 C439 1.429 . S
C420 H444 0.950 . S
C421 C438 1.574 . S
C421 C440 1.368 . S
C421 H445 0.949 . S
H422 C426 0.949 . S
C423 C424 1.349 . S
C423 C425 1.327 . S
C423 H446 0.950 1_655 S
C424 C423 1.349 . S
C424 C436 1.349 . S
C425 C423 1.327 . S
C425 C441 1.429 . S
C425 H447 0.950 . S
C426 H422 0.949 . S
C426 C434 1.574 1_556 S
C426 C442 1.368 . S
H427 C435 0.950 . S
H428 C433 0.950 . S
H429 C434 0.949 . S
H430 C436 0.950 . S
H431 C437 0.950 . S
H432 C438 0.949 . S
C433 H428 0.950 . S
C433 C435 1.327 1_556 S
C433 C439 1.429 1_556 S
C434 C426 1.574 1_554 S
C434 H429 0.949 . S
C434 C440 1.368 1_554 S
C435 C419 1.349 . S
C435 H427 0.950 . S
C435 C433 1.327 1_554 S
C436 C424 1.349 . S
C436 H430 0.950 . S
C436 C437 1.327 . S
C437 H431 0.950 . S
C437 C436 1.327 . S
C437 C441 1.429 . S
C438 C421 1.574 . S
C438 H432 0.949 . S
C438 C442 1.368 . S
C439 C420 1.429 . S
C439 C433 1.429 1_554 S
C439 C440 1.523 1_554 S
C440 C421 1.368 . S
C440 C434 1.368 1_556 S
C440 C439 1.523 1_556 S
C441 C425 1.429 . S
C441 C437 1.429 . S
C441 C442 1.523 . S
C442 C426 1.368 . S
C442 C438 1.368 . S
C442 C441 1.523 . S
H443 C418 0.950 . S
H444 C420 0.950 . S
H445 C421 0.949 . S
H446 C423 0.950 1_455 S
H447 C425 0.950 . S
C448 C449 1.349 . S
C448 C450 1.327 . S
C448 H473 0.950 . S
C449 C448 1.349 . S
C449 C465 1.349 . S
C450 C448 1.327 . S
C450 C469 1.429 . S
C450 H474 0.950 . S
C451 C468 1.574 . S
C451 C470 1.368 . S
C451 H475 0.949 . S
H452 C456 0.949 . S
C453 C454 1.349 . S
C453 C455 1.327 . S
C453 H476 0.950 . S
C454 C453 1.349 . S
C454 C466 1.348 . S
C455 C453 1.327 . S
C455 C471 1.429 . S
C455 H477 0.950 . S
C456 H452 0.949 . S
C456 C464 1.574 . S
C456 C472 1.368 . S
H457 C465 0.950 . S
H458 C463 0.950 . S
H459 C464 0.949 . S
H460 C466 0.951 1_655 S
H461 C467 0.950 . S
H462 C468 0.949 . S
C463 H458 0.950 . S
C463 C465 1.327 . S
C463 C469 1.429 . S
C464 C456 1.574 . S
C464 H459 0.949 . S
C464 C470 1.368 . S
C465 C449 1.349 . S
C465 H457 0.950 . S
C465 C463 1.327 . S
C466 C454 1.348 . S
C466 H460 0.951 1_455 S
C466 C467 1.326 . S
C467 H461 0.950 . S
C467 C466 1.326 . S
C467 C471 1.429 . S
C468 C451 1.574 . S
C468 H462 0.949 . S
C468 C472 1.368 . S
C469 C450 1.429 . S
C469 C463 1.429 . S
C469 C470 1.523 . S
C470 C451 1.368 . S
C470 C464 1.368 . S
C470 C469 1.523 . S
C471 C455 1.429 . S
C471 C467 1.429 . S
C471 C472 1.523 . S
C472 C456 1.368 . S
C472 C468 1.368 . S
C472 C471 1.523 . S
H473 C448 0.950 . S
H474 C450 0.950 . S
H475 C451 0.949 . S
H476 C453 0.950 . S
H477 C455 0.950 . S
C478 C479 1.342 1_565 S
C478 C480 1.327 . S
C478 H503 0.950 . S
C479 C478 1.342 1_545 S
C479 C495 1.356 . S
C480 C478 1.327 . S
C480 C499 1.429 . S
C480 H504 0.950 . S
C481 C498 1.574 . S
C481 C500 1.368 1_545 S
C481 H505 0.949 . S
H482 C486 0.949 . S
C483 C484 1.349 1_545 S
C483 C485 1.327 . S
C483 H506 0.950 . S
C484 C483 1.349 1_565 S
C484 C496 1.349 . S
C485 C483 1.327 . S
C485 C501 1.429 1_545 S
C485 H507 0.950 . S
C486 H482 0.949 . S
C486 C494 1.574 . S
C486 C502 1.368 . S
H487 C495 0.950 . S
H488 C493 0.950 . S
H489 C494 0.949 . S
H490 C496 0.950 . S
H491 C497 0.950 . S
H492 C498 0.949 . S
C493 H488 0.950 . S
C493 C495 1.327 . S
C493 C499 1.429 1_545 S
C494 C486 1.574 . S
C494 H489 0.949 . S
C494 C500 1.368 . S
C495 C479 1.356 . S
C495 H487 0.950 . S
C495 C493 1.327 . S
C496 C484 1.349 . S
C496 H490 0.950 . S
C496 C497 1.327 . S
C497 H491 0.950 . S
C497 C496 1.327 . S
C497 C501 1.429 . S
C498 C481 1.574 . S
C498 H492 0.949 . S
C498 C502 1.368 1_545 S
C499 C480 1.429 . S
C499 C493 1.429 1_565 S
C499 C500 1.523 . S
C500 C481 1.368 1_565 S
C500 C494 1.368 . S
C500 C499 1.523 . S
C501 C485 1.429 1_565 S
C501 C497 1.429 . S
C501 C502 1.523 . S
C502 C486 1.368 . S
C502 C498 1.368 1_565 S
C502 C501 1.523 . S
H503 C478 0.950 . S
H504 C480 0.950 . S
H505 C481 0.949 . S
H506 C483 0.950 . S
H507 C485 0.950 . S
C508 C509 1.349 . S
C508 C510 1.327 . S
C508 H533 0.950 . S
C509 C508 1.349 . S
C509 C525 1.349 . S
C510 C508 1.327 . S
C510 C529 1.429 . S
C510 H534 0.950 . S
C511 C528 1.574 . S
C511 C530 1.368 . S
C511 H535 0.949 . S
H512 C516 0.949 . S
C513 C514 1.349 . S
C513 C515 1.327 . S
C513 H536 0.950 . S
C514 C513 1.349 . S
C514 C526 1.349 . S
C515 C513 1.327 . S
C515 C531 1.429 . S
C515 H537 0.950 . S
C516 H512 0.949 . S
C516 C524 1.574 . S
C516 C532 1.368 . S
H517 C525 0.950 . S
H518 C523 0.950 . S
H519 C524 0.949 . S
H520 C526 0.950 . S
H521 C527 0.950 . S
H522 C528 0.949 . S
C523 H518 0.950 . S
C523 C525 1.327 . S
C523 C529 1.429 . S
C524 C516 1.574 . S
C524 H519 0.949 . S
C524 C530 1.368 . S
C525 C509 1.349 . S
C525 H517 0.950 . S
C525 C523 1.327 . S
C526 C514 1.349 . S
C526 H520 0.950 . S
C526 C527 1.327 . S
C527 H521 0.950 . S
C527 C526 1.327 . S
C527 C531 1.429 . S
C528 C511 1.574 . S
C528 H522 0.949 . S
C528 C532 1.368 . S
C529 C510 1.429 . S
C529 C523 1.429 . S
C529 C530 1.523 . S
C530 C511 1.368 . S
C530 C524 1.368 . S
C530 C529 1.523 . S
C531 C515 1.429 . S
C531 C527 1.429 . S
C531 C532 1.523 . S
C532 C516 1.368 . S
C532 C528 1.368 . S
C532 C531 1.523 . S
H533 C508 0.950 . S
H534 C510 0.950 . S
H535 C511 0.949 . S
H536 C513 0.950 . S
H537 C515 0.950 . S
C538 C539 1.349 . S
C538 C540 1.327 . S
C538 H563 0.950 . S
C539 C538 1.349 . S
C539 C555 1.349 . S
C540 C538 1.327 . S
C540 C559 1.429 . S
C540 H564 0.950 . S
C541 C558 1.574 . S
C541 C560 1.368 . S
C541 H565 0.949 . S
H542 C546 0.949 . S
C543 C544 1.349 . S
C543 C545 1.327 . S
C543 H566 0.950 . S
C544 C543 1.349 . S
C544 C556 1.349 . S
C545 C543 1.327 . S
C545 C561 1.429 . S
C545 H567 0.950 . S
C546 H542 0.949 . S
C546 C554 1.574 . S
C546 C562 1.368 . S
H547 C555 0.950 . S
H548 C553 0.950 . S
H549 C554 0.949 . S
H550 C556 0.950 . S
H551 C557 0.950 . S
H552 C558 0.949 . S
C553 H548 0.950 . S
C553 C555 1.327 . S
C553 C559 1.429 . S
C554 C546 1.574 . S
C554 H549 0.949 . S
C554 C560 1.368 . S
C555 C539 1.349 . S
C555 H547 0.950 . S
C555 C553 1.327 . S
C556 C544 1.349 . S
C556 H550 0.950 . S
C556 C557 1.327 . S
C557 H551 0.950 . S
C557 C556 1.327 . S
C557 C561 1.429 . S
C558 C541 1.574 . S
C558 H552 0.949 . S
C558 C562 1.368 . S
C559 C540 1.429 . S
C559 C553 1.429 . S
C559 C560 1.523 . S
C560 C541 1.368 . S
C560 C554 1.368 . S
C560 C559 1.523 . S
C561 C545 1.429 . S
C561 C557 1.429 . S
C561 C562 1.523 . S
C562 C546 1.368 . S
C562 C558 1.368 . S
C562 C561 1.523 . S
H563 C538 0.950 . S
H564 C540 0.950 . S
H565 C541 0.949 . S
H566 C543 0.950 . S
H567 C545 0.950 . S
C568 C569 1.349 . S
C568 C570 1.327 1_554 S
C568 H593 0.950 1_554 S
C569 C568 1.349 . S
C569 C585 1.349 . S
C570 C568 1.327 1_556 S
C570 C589 1.429 1_556 S
C570 H594 0.950 . S
C571 C588 1.574 1_554 S
C571 C590 1.368 1_554 S
C571 H595 0.949 . S
H572 C576 0.949 . S
C573 C574 1.349 . S
C573 C575 1.327 . S
C573 H596 0.950 . S
C574 C573 1.349 . S
C574 C586 1.349 1_455 S
C575 C573 1.327 . S
C575 C591 1.429 1_455 S
C575 H597 0.950 . S
C576 H572 0.949 . S
C576 C584 1.574 . S
C576 C592 1.368 . S
H577 C585 0.950 . S
H578 C583 0.950 . S
H579 C584 0.949 . S
H580 C586 0.950 . S
H581 C587 0.950 . S
H582 C588 0.949 1_554 S
C583 H578 0.950 . S
C583 C585 1.327 . S
C583 C589 1.429 . S
C584 C576 1.574 . S
C584 H579 0.949 . S
C584 C590 1.368 . S
C585 C569 1.349 . S
C585 H577 0.950 . S
C585 C583 1.327 . S
C586 C574 1.349 1_655 S
C586 H580 0.950 . S
C586 C587 1.327 . S
C587 H581 0.950 . S
C587 C586 1.327 . S
C587 C591 1.429 . S
C588 C571 1.574 1_556 S
C588 H582 0.949 1_556 S
C588 C592 1.368 . S
C589 C570 1.429 1_554 S
C589 C583 1.429 . S
C589 C590 1.523 1_554 S
C590 C571 1.368 1_556 S
C590 C584 1.368 . S
C590 C589 1.523 1_556 S
C591 C575 1.429 1_655 S
C591 C587 1.429 . S
C591 C592 1.523 . S
C592 C576 1.368 . S
C592 C588 1.368 . S
C592 C591 1.523 . S
H593 C568 0.950 1_556 S
H594 C570 0.950 . S
H595 C571 0.949 . S
H596 C573 0.950 . S
H597 C575 0.950 . S
C598 C599 1.347 . S
C598 C600 1.327 . S
C598 H623 0.950 . S
C599 C598 1.347 . S
C599 C615 1.351 1_564 S
C600 C598 1.327 . S
C600 C619 1.429 1_564 S
C600 H624 0.950 . S
C601 C618 1.574 . S
C601 C620 1.368 . S
C601 H625 0.949 . S
H602 C606 0.949 . S
C603 C604 1.349 . S
C603 C605 1.327 . S
C603 H626 0.950 . S
C604 C603 1.349 . S
C604 C616 1.349 1_545 S
C605 C603 1.327 . S
C605 C621 1.429 . S
C605 H627 0.950 . S
C606 H602 0.949 . S
C606 C614 1.574 . S
C606 C622 1.368 1_565 S
H607 C615 0.950 . S
H608 C613 0.950 . S
H609 C614 0.949 1_554 S
H610 C616 0.950 . S
H611 C617 0.950 . S
H612 C618 0.949 . S
C613 H608 0.950 . S
C613 C615 1.327 . S
C613 C619 1.429 . S
C614 C606 1.574 . S
C614 H609 0.949 1_556 S
C614 C620 1.368 1_565 S
C615 C599 1.351 1_546 S
C615 H607 0.950 . S
C615 C613 1.327 . S
C616 C604 1.349 1_565 S
C616 H610 0.950 . S
C616 C617 1.327 . S
C617 H611 0.950 . S
C617 C616 1.327 . S
C617 C621 1.429 1_565 S
C618 C601 1.574 . S
C618 H612 0.949 . S
C618 C622 1.368 . S
C619 C600 1.429 1_546 S
C619 C613 1.429 . S
C619 C620 1.523 . S
C620 C601 1.368 . S
C620 C614 1.368 1_545 S
C620 C619 1.523 . S
C621 C605 1.429 . S
C621 C617 1.429 1_545 S
C621 C622 1.523 . S
C622 C606 1.368 1_545 S
C622 C618 1.368 . S
C622 C621 1.523 . S
H623 C598 0.950 . S
H624 C600 0.950 . S
H625 C601 0.949 . S
H626 C603 0.950 . S
H627 C605 0.950 . S
C628 C629 1.349 . S
C628 C630 1.327 1_554 S
C628 H653 0.950 1_554 S
C629 C628 1.349 . S
C629 C645 1.349 . S
C630 C628 1.327 1_556 S
C630 C649 1.429 1_556 S
C630 H654 0.950 . S
C631 C648 1.574 1_554 S
C631 C650 1.368 1_554 S
C631 H655 0.949 . S
H632 C636 0.949 . S
C633 C634 1.349 . S
C633 C635 1.327 . S
C633 H656 0.950 . S
C634 C633 1.349 . S
C634 C646 1.349 . S
C635 C633 1.327 . S
C635 C651 1.429 . S
C635 H657 0.950 . S
C636 H632 0.949 . S
C636 C644 1.574 . S
C636 C652 1.368 . S
H637 C645 0.950 . S
H638 C643 0.950 . S
H639 C644 0.949 . S
H640 C646 0.950 . S
H641 C647 0.950 . S
H642 C648 0.949 1_554 S
C643 H638 0.950 . S
C643 C645 1.327 . S
C643 C649 1.429 . S
C644 C636 1.574 . S
C644 H639 0.949 . S
C644 C650 1.368 . S
C645 C629 1.349 . S
C645 H637 0.950 . S
C645 C643 1.327 . S
C646 C634 1.349 . S
C646 H640 0.950 . S
C646 C647 1.327 . S
C647 H641 0.950 . S
C647 C646 1.327 . S
C647 C651 1.429 . S
C648 C631 1.574 1_556 S
C648 H642 0.949 1_556 S
C648 C652 1.368 . S
C649 C630 1.429 1_554 S
C649 C643 1.429 . S
C649 C650 1.523 1_554 S
C650 C631 1.368 1_556 S
C650 C644 1.368 . S
C650 C649 1.523 1_556 S
C651 C635 1.429 . S
C651 C647 1.429 . S
C651 C652 1.523 . S
C652 C636 1.368 . S
C652 C648 1.368 . S
C652 C651 1.523 . S
H653 C628 0.950 1_556 S
H654 C630 0.950 . S
H655 C631 0.949 . S
H656 C633 0.950 . S
H657 C635 0.950 . S
C658 C659 1.349 . S
C658 C660 1.327 . S
C658 H683 0.950 . S
C659 C658 1.349 . S
C659 C675 1.349 . S
C660 C658 1.327 . S
C660 C679 1.429 . S
C660 H684 0.950 . S
C661 C678 1.574 1_554 S
C661 C680 1.368 . S
C661 H685 0.949 . S
H662 C666 0.949 . S
C663 C664 1.349 . S
C663 C665 1.327 . S
C663 H686 0.950 . S
C664 C663 1.349 . S
C664 C676 1.349 . S
C665 C663 1.327 . S
C665 C681 1.429 . S
C665 H687 0.950 . S
C666 H662 0.949 . S
C666 C674 1.574 . S
C666 C682 1.368 . S
H667 C675 0.950 . S
H668 C673 0.950 . S
H669 C674 0.949 . S
H670 C676 0.950 . S
H671 C677 0.950 . S
H672 C678 0.949 . S
C673 H668 0.950 . S
C673 C675 1.327 . S
C673 C679 1.429 . S
C674 C666 1.574 . S
C674 H669 0.949 . S
C674 C680 1.368 1_556 S
C675 C659 1.349 . S
C675 H667 0.950 . S
C675 C673 1.327 . S
C676 C664 1.349 . S
C676 H670 0.950 . S
C676 C677 1.327 . S
C677 H671 0.950 . S
C677 C676 1.327 . S
C677 C681 1.429 . S
C678 C661 1.574 1_556 S
C678 H672 0.949 . S
C678 C682 1.368 . S
C679 C660 1.429 . S
C679 C673 1.429 . S
C679 C680 1.523 . S
C680 C661 1.368 . S
C680 C674 1.368 1_554 S
C680 C679 1.523 . S
C681 C665 1.429 . S
C681 C677 1.429 . S
C681 C682 1.523 . S
C682 C666 1.368 . S
C682 C678 1.368 . S
C682 C681 1.523 . S
H683 C658 0.950 . S
H684 C660 0.950 . S
H685 C661 0.949 . S
H686 C663 0.950 . S
H687 C665 0.950 . S
C688 C689 1.349 . S
C688 C690 1.327 . S
C688 H713 0.950 . S
C689 C688 1.349 . S
C689 C705 1.349 . S
C690 C688 1.327 . S
C690 C709 1.429 . S
C690 H714 0.950 . S
C691 C708 1.574 . S
C691 C710 1.368 . S
C691 H715 0.949 . S
H692 C696 0.949 . S
C693 C694 1.349 1_556 S
C693 C695 1.327 1_556 S
C693 H716 0.950 . S
C694 C693 1.349 1_554 S
C694 C706 1.350 . S
C695 C693 1.327 1_554 S
C695 C711 1.429 . S
C695 H717 0.950 . S
C696 H692 0.949 . S
C696 C704 1.574 . S
C696 C712 1.368 . S
H697 C705 0.950 . S
H698 C703 0.950 . S
H699 C704 0.949 . S
H700 C706 0.950 . S
H701 C707 0.950 . S
H702 C708 0.949 . S
C703 H698 0.950 . S
C703 C705 1.327 . S
C703 C709 1.429 . S
C704 C696 1.574 . S
C704 H699 0.949 . S
C704 C710 1.368 . S
C705 C689 1.349 . S
C705 H697 0.950 . S
C705 C703 1.327 . S
C706 C694 1.350 . S
C706 H700 0.950 . S
C706 C707 1.327 . S
C707 H701 0.950 . S
C707 C706 1.327 . S
C707 C711 1.429 . S
C708 C691 1.574 . S
C708 H702 0.949 . S
C708 C712 1.368 . S
C709 C690 1.429 . S
C709 C703 1.429 . S
C709 C710 1.523 . S
C710 C691 1.368 . S
C710 C704 1.368 . S
C710 C709 1.523 . S
C711 C695 1.429 . S
C711 C707 1.429 . S
C711 C712 1.523 . S
C712 C696 1.368 . S
C712 C708 1.368 . S
C712 C711 1.523 . S
H713 C688 0.950 . S
H714 C690 0.950 . S
H715 C691 0.949 . S
H716 C693 0.950 . S
H717 C695 0.950 . S
C718 C719 1.374 . S
C718 C720 1.327 . S
C718 H743 0.950 . S
C719 C718 1.374 . S
C719 C735 1.322 1_545 S
C720 C718 1.327 . S
C720 C739 1.429 . S
C720 H744 0.950 . S
C721 C738 1.574 . S
C721 C740 1.368 1_565 S
C721 H745 0.949 . S
H722 C726 0.949 . S
C723 C724 1.349 1_565 S
C723 C725 1.327 . S
C723 H746 0.950 1_554 S
C724 C723 1.349 1_545 S
C724 C736 1.349 . S
C725 C723 1.327 . S
C725 C741 1.429 1_565 S
C725 H747 0.950 . S
C726 H722 0.949 . S
C726 C734 1.574 . S
C726 C742 1.368 . S
H727 C735 0.950 . S
H728 C733 0.950 . S
H729 C734 0.949 . S
H730 C736 0.950 . S
H731 C737 0.950 . S
H732 C738 0.949 . S
C733 H728 0.950 . S
C733 C735 1.327 . S
C733 C739 1.429 1_565 S
C734 C726 1.574 . S
C734 H729 0.949 . S
C734 C740 1.368 . S
C735 C719 1.322 1_565 S
C735 H727 0.950 . S
C735 C733 1.327 . S
C736 C724 1.349 . S
C736 H730 0.950 . S
C736 C737 1.327 . S
C737 H731 0.950 . S
C737 C736 1.327 . S
C737 C741 1.429 . S
C738 C721 1.574 . S
C738 H732 0.949 . S
C738 C742 1.368 1_565 S
C739 C720 1.429 . S
C739 C733 1.429 1_545 S
C739 C740 1.523 . S
C740 C721 1.368 1_545 S
C740 C734 1.368 . S
C740 C739 1.523 . S
C741 C725 1.429 1_545 S
C741 C737 1.429 . S
C741 C742 1.523 . S
C742 C726 1.368 . S
C742 C738 1.368 1_545 S
C742 C741 1.523 . S
H743 C718 0.950 . S
H744 C720 0.950 . S
H745 C721 0.949 . S
H746 C723 0.950 1_556 S
H747 C725 0.950 . S
C748 C749 1.349 . S
C748 C750 1.327 . S
C748 H773 0.950 . S
C749 C748 1.349 . S
C749 C765 1.349 . S
C750 C748 1.327 . S
C750 C769 1.429 . S
C750 H774 0.950 . S
C751 C768 1.574 . S
C751 C770 1.368 . S
C751 H775 0.949 . S
H752 C756 0.949 . S
C753 C754 1.349 . S
C753 C755 1.327 1_556 S
C753 H776 0.950 . S
C754 C753 1.349 . S
C754 C766 1.349 . S
C755 C753 1.327 1_554 S
C755 C771 1.429 . S
C755 H777 0.950 . S
C756 H752 0.949 . S
C756 C764 1.574 . S
C756 C772 1.368 . S
H757 C765 0.950 . S
H758 C763 0.950 . S
H759 C764 0.949 . S
H760 C766 0.950 . S
H761 C767 0.950 . S
H762 C768 0.949 . S
C763 H758 0.950 . S
C763 C765 1.327 . S
C763 C769 1.429 . S
C764 C756 1.574 . S
C764 H759 0.949 . S
C764 C770 1.368 . S
C765 C749 1.349 . S
C765 H757 0.950 . S
C765 C763 1.327 . S
C766 C754 1.349 . S
C766 H760 0.950 . S
C766 C767 1.327 . S
C767 H761 0.950 . S
C767 C766 1.327 . S
C767 C771 1.429 1_556 S
C768 C751 1.574 . S
C768 H762 0.949 . S
C768 C772 1.368 . S
C769 C750 1.429 . S
C769 C763 1.429 . S
C769 C770 1.523 . S
C770 C751 1.368 . S
C770 C764 1.368 . S
C770 C769 1.523 . S
C771 C755 1.429 . S
C771 C767 1.429 1_554 S
C771 C772 1.523 . S
C772 C756 1.368 . S
C772 C768 1.368 . S
C772 C771 1.523 . S
H773 C748 0.950 . S
H774 C750 0.950 . S
H775 C751 0.949 . S
H776 C753 0.950 . S
H777 C755 0.950 . S
C778 C779 1.349 . S
C778 C780 1.327 . S
C778 H803 0.950 . S
C779 C778 1.349 . S
C779 C795 1.349 . S
C780 C778 1.327 . S
C780 C799 1.429 . S
C780 H804 0.950 . S
C781 C798 1.574 . S
C781 C800 1.368 . S
C781 H805 0.949 . S
H782 C786 0.949 . S
C783 C784 1.349 . S
C783 C785 1.340 . S
C783 H806 0.950 . S
C784 C783 1.349 . S
C784 C796 1.349 . S
C785 C783 1.340 . S
C785 C801 1.424 1_556 S
C785 H807 0.939 1_556 S
C786 H782 0.949 . S
C786 C794 1.574 . S
C786 C802 1.368 . S
H787 C795 0.950 . S
H788 C793 0.950 . S
H789 C794 0.949 . S
H790 C796 0.950 . S
H791 C797 0.950 . S
H792 C798 0.949 . S
C793 H788 0.950 . S
C793 C795 1.327 . S
C793 C799 1.429 . S
C794 C786 1.574 . S
C794 H789 0.949 . S
C794 C800 1.368 . S
C795 C779 1.349 . S
C795 H787 0.950 . S
C795 C793 1.327 . S
C796 C784 1.349 . S
C796 H790 0.950 . S
C796 C797 1.327 . S
C797 H791 0.950 . S
C797 C796 1.327 . S
C797 C801 1.415 1_556 S
C798 C781 1.574 . S
C798 H792 0.949 . S
C798 C802 1.368 . S
C799 C780 1.429 . S
C799 C793 1.429 . S
C799 C800 1.523 . S
C800 C781 1.368 . S
C800 C794 1.368 . S
C800 C799 1.523 . S
C801 C785 1.424 1_554 S
C801 C797 1.415 1_554 S
C801 C802 1.538 . S
C802 C786 1.368 . S
C802 C798 1.368 . S
C802 C801 1.538 . S
H803 C778 0.950 . S
H804 C780 0.950 . S
H805 C781 0.949 . S
H806 C783 0.950 . S
H807 C785 0.939 1_554 S
C808 C809 1.349 . S
C808 C810 1.327 . S
C808 H833 0.950 . S
C809 C808 1.349 . S
C809 C825 1.349 . S
C810 C808 1.327 . S
C810 C829 1.429 . S
C810 H834 0.950 . S
C811 C828 1.574 . S
C811 C830 1.368 . S
C811 H835 0.949 . S
H812 C816 0.949 . S
C813 C814 1.349 . S
C813 C815 1.327 . S
C813 H836 0.933 1_655 S
C814 C813 1.349 . S
C814 C826 1.349 . S
C815 C813 1.327 . S
C815 C831 1.429 . S
C815 H837 0.950 . S
C816 H812 0.949 . S
C816 C824 1.574 . S
C816 C832 1.368 . S
H817 C825 0.950 . S
H818 C823 0.950 . S
H819 C824 0.949 . S
H820 C826 0.950 . S
H821 C827 0.950 . S
H822 C828 0.949 . S
C823 H818 0.950 . S
C823 C825 1.327 . S
C823 C829 1.429 . S
C824 C816 1.574 . S
C824 H819 0.949 . S
C824 C830 1.368 . S
C825 C809 1.349 . S
C825 H817 0.950 . S
C825 C823 1.327 . S
C826 C814 1.349 . S
C826 H820 0.950 . S
C826 C827 1.327 . S
C827 H821 0.950 . S
C827 C826 1.327 . S
C827 C831 1.429 . S
C828 C811 1.574 . S
C828 H822 0.949 . S
C828 C832 1.368 . S
C829 C810 1.429 . S
C829 C823 1.429 . S
C829 C830 1.523 . S
C830 C811 1.368 . S
C830 C824 1.368 . S
C830 C829 1.523 . S
C831 C815 1.429 . S
C831 C827 1.429 . S
C831 C832 1.523 . S
C832 C816 1.368 . S
C832 C828 1.368 . S
C832 C831 1.523 . S
H833 C808 0.950 . S
H834 C810 0.950 . S
H835 C811 0.949 . S
H836 C813 0.933 1_455 S
H837 C815 0.950 . S
C838 C839 1.333 1_545 S
C838 C840 1.327 . S
C838 H863 0.950 . S
C839 C838 1.333 1_565 S
C839 C855 1.364 . S
C840 C838 1.327 . S
C840 C859 1.429 1_545 S
C840 H864 0.950 . S
C841 C858 1.574 . S
C841 C860 1.368 . S
C841 H865 0.949 . S
H842 C846 0.949 . S
C843 C844 1.349 . S
C843 C845 1.327 . S
C843 H866 0.950 . S
C844 C843 1.349 . S
C844 C856 1.349 1_565 S
C845 C843 1.327 . S
C845 C861 1.429 . S
C845 H867 0.950 . S
C846 H842 0.949 . S
C846 C854 1.574 . S
C846 C862 1.368 1_545 S
H847 C855 0.950 . S
H848 C853 0.950 . S
H849 C854 0.949 . S
H850 C856 0.950 . S
H851 C857 0.950 . S
H852 C858 0.949 . S
C853 H848 0.950 . S
C853 C855 1.327 . S
C853 C859 1.429 . S
C854 C846 1.574 . S
C854 H849 0.949 . S
C854 C860 1.368 1_545 S
C855 C839 1.364 . S
C855 H847 0.950 . S
C855 C853 1.327 . S
C856 C844 1.349 1_545 S
C856 H850 0.950 . S
C856 C857 1.327 . S
C857 H851 0.950 . S
C857 C856 1.327 . S
C857 C861 1.429 1_545 S
C858 C841 1.574 . S
C858 H852 0.949 . S
C858 C862 1.368 . S
C859 C840 1.429 1_565 S
C859 C853 1.429 . S
C859 C860 1.523 . S
C860 C841 1.368 . S
C860 C854 1.368 1_565 S
C860 C859 1.523 . S
C861 C845 1.429 . S
C861 C857 1.429 1_565 S
C861 C862 1.523 . S
C862 C846 1.368 1_565 S
C862 C858 1.368 . S
C862 C861 1.523 . S
H863 C838 0.950 . S
H864 C840 0.950 . S
H865 C841 0.949 . S
H866 C843 0.950 . S
H867 C845 0.950 . S
C868 C869 1.349 . S
C868 C870 1.327 . S
C868 H893 0.950 . S
C869 C868 1.349 . S
C869 C885 1.349 . S
C870 C868 1.327 . S
C870 C889 1.429 . S
C870 H894 0.950 . S
C871 C888 1.574 . S
C871 C890 1.368 . S
C871 H895 0.949 . S
H872 C876 0.949 . S
C873 C874 1.349 . S
C873 C875 1.327 . S
C873 H896 0.950 . S
C874 C873 1.349 . S
C874 C886 1.349 . S
C875 C873 1.327 . S
C875 C891 1.429 . S
C875 H897 0.950 . S
C876 H872 0.949 . S
C876 C884 1.574 . S
C876 C892 1.368 . S
H877 C885 0.950 . S
H878 C883 0.950 . S
H879 C884 0.949 . S
H880 C886 0.950 . S
H881 C887 0.950 . S
H882 C888 0.949 . S
C883 H878 0.950 . S
C883 C885 1.327 . S
C883 C889 1.429 . S
C884 C876 1.574 . S
C884 H879 0.949 . S
C884 C890 1.368 . S
C885 C869 1.349 . S
C885 H877 0.950 . S
C885 C883 1.327 . S
C886 C874 1.349 . S
C886 H880 0.950 . S
C886 C887 1.327 . S
C887 H881 0.950 . S
C887 C886 1.327 . S
C887 C891 1.429 . S
C888 C871 1.574 . S
C888 H882 0.949 . S
C888 C892 1.368 . S
C889 C870 1.429 . S
C889 C883 1.429 . S
C889 C890 1.523 . S
C890 C871 1.368 . S
C890 C884 1.368 . S
C890 C889 1.523 . S
C891 C875 1.429 . S
C891 C887 1.429 . S
C891 C892 1.523 . S
C892 C876 1.368 . S
C892 C888 1.368 . S
C892 C891 1.523 . S
H893 C868 0.950 . S
H894 C870 0.950 . S
H895 C871 0.949 . S
H896 C873 0.950 . S
H897 C875 0.950 . S
C898 C899 1.349 . S
C898 C900 1.327 . S
C898 H923 0.950 . S
C899 C898 1.349 . S
C899 C915 1.349 . S
C900 C898 1.327 . S
C900 C919 1.429 . S
C900 H924 0.950 . S
C901 C918 1.574 . S
C901 C920 1.368 . S
C901 H925 0.949 . S
H902 C906 0.949 . S
C903 C904 1.349 . S
C903 C905 1.327 . S
C903 H926 0.950 . S
C904 C903 1.349 . S
C904 C916 1.349 . S
C905 C903 1.327 . S
C905 C921 1.429 . S
C905 H927 0.950 . S
C906 H902 0.949 . S
C906 C914 1.574 . S
C906 C922 1.368 . S
H907 C915 0.950 . S
H908 C913 0.950 . S
H909 C914 0.949 . S
H910 C916 0.950 . S
H911 C917 0.950 . S
H912 C918 0.949 . S
C913 H908 0.950 . S
C913 C915 1.327 . S
C913 C919 1.429 . S
C914 C906 1.574 . S
C914 H909 0.949 . S
C914 C920 1.368 . S
C915 C899 1.349 . S
C915 H907 0.950 . S
C915 C913 1.327 . S
C916 C904 1.349 . S
C916 H910 0.950 . S
C916 C917 1.327 . S
C917 H911 0.950 . S
C917 C916 1.327 . S
C917 C921 1.429 . S
C918 C901 1.574 . S
C918 H912 0.949 . S
C918 C922 1.368 . S
C919 C900 1.429 . S
C919 C913 1.429 . S
C919 C920 1.523 . S
C920 C901 1.368 . S
C920 C914 1.368 . S
C920 C919 1.523 . S
C921 C905 1.429 . S
C921 C917 1.429 . S
C921 C922 1.523 . S
C922 C906 1.368 . S
C922 C918 1.368 . S
C922 C921 1.523 . S
H923 C898 0.950 . S
H924 C900 0.950 . S
H925 C901 0.949 . S
H926 C903 0.950 . S
H927 C905 0.950 . S
C209 C74 1.585 1_565 S
C214 C98 1.592 . S
C244 C128 1.776 . S
C239 C85 1.769 . S
C274 N162 1.340 . S
C269 C52 1.375 . S
C304 N192 1.382 . S
C299 C63 1.417 . S
C334 C89 1.592 . S
C329 C30 1.582 . S
C359 C41 1.741 . S
C364 C119 1.782 . S
C389 C8 1.365 . S
C394 N154 1.340 . S
C419 C19 1.377 . S
C424 N184 1.399 . S
C454 C104 0.268 . S
C449 C62 0.156 . S
C484 C134 0.482 . S
C479 C73 0.494 . S
C514 C175 0.774 . S
C509 C84 0.775 . S
C539 C51 0.352 . S
C544 C205 0.342 . S
C569 C18 0.500 . S
C574 C115 0.272 . S
C604 C145 0.482 . S
C599 C29 0.494 1_565 S
C634 C164 0.774 . S
C629 C40 0.771 . S
C659 C7 0.426 . S
C664 C194 0.342 . S
C689 C60 1.334 . S
C694 N94 1.476 1_554 S
C719 C71 1.220 . S
C724 N124 1.406 1_554 S
C754 C149 1.644 . S
C749 C82 1.444 . S
C784 C179 1.564 . S
C779 C49 1.324 . S
C809 C16 1.202 . S
C814 N102 1.486 . S
C844 N132 1.406 . S
C839 C27 1.220 1_565 S
C874 C158 1.644 . S
C869 C38 1.329 . S
C899 C5 1.302 . S
C904 C188 1.564 . S
