# Generated by pormake.
# Topology pth, (4,4)-cn, num edge types: 1
# Building blocks:
#     Node 0, Type 0, BuildingBlock: NAHDIM_clean_sbu_0, # of connection points: 4
#     Node 1, Type 0, BuildingBlock: NAHDIM_clean_sbu_0, # of connection points: 4
#     Node 2, Type 0, BuildingBlock: NAHDIM_clean_sbu_0, # of connection points: 4
#     Node 3, Type 1, BuildingBlock: NAWXER_clean_sbu_0, # of connection points: 4
#     Node 4, Type 1, BuildingBlock: NAWXER_clean_sbu_0, # of connection points: 4
#     Node 5, Type 1, BuildingBlock: NAWXER_clean_sbu_0, # of connection points: 4
#     Edge 6, Type (0, 1), BuildingBlock: ZUJKAS_clean_linker_0, # of connection points: 2
#     Edge 7, Type (0, 1), BuildingBlock: ZUJKAS_clean_linker_0, # of connection points: 2
#     Edge 8, Type (0, 1), BuildingBlock: ZUJKAS_clean_linker_0, # of connection points: 2
#     Edge 9, Type (0, 1), BuildingBlock: ZUJKAS_clean_linker_0, # of connection points: 2
#     Edge 10, Type (0, 1), BuildingBlock: ZUJKAS_clean_linker_0, # of connection points: 2
#     Edge 11, Type (0, 1), BuildingBlock: ZUJKAS_clean_linker_0, # of connection points: 2
#     Edge 12, Type (0, 1), BuildingBlock: ZUJKAS_clean_linker_0, # of connection points: 2
#     Edge 13, Type (0, 1), BuildingBlock: ZUJKAS_clean_linker_0, # of connection points: 2
#     Edge 14, Type (0, 1), BuildingBlock: ZUJKAS_clean_linker_0, # of connection points: 2
#     Edge 15, Type (0, 1), BuildingBlock: ZUJKAS_clean_linker_0, # of connection points: 2
#     Edge 16, Type (0, 1), BuildingBlock: ZUJKAS_clean_linker_0, # of connection points: 2
#     Edge 17, Type (0, 1), BuildingBlock: ZUJKAS_clean_linker_0, # of connection points: 2
# Relax obj value: 0.052
# Max RMSD: 0.176
# Mean RMSD: 0.102
data_MOF--net-pth--node1-NAHDIM_clean_sbu_0--node2-NAWXER_clean_sbu_0--edge1-ZUJKAS_clean_linker_0
_symmetry_space_group_name_H-M    P1
_symmetry_Int_Tables_number       1
_symmetry_cell_setting            triclinic
loop_
_symmetry_equiv_pos_as_xyz
'x, y, z'
_cell_length_a     29.820752
_cell_length_b     30.00228
_cell_length_c     73.556607
_cell_angle_alpha  91.981784
_cell_angle_beta   89.945541
_cell_angle_gamma 120.59883
loop_
_atom_site_label
_atom_site_type_symbol
_atom_site_fract_x
_atom_site_fract_y
_atom_site_fract_z
_atom_type_partial_charge
C0 C 0.01499 0.99105 0.09567 0.0
O1 O 0.97516 0.99737 0.09272 0.0
O2 O 0.02827 0.10833 0.08102 0.0
Zn3 Zn 0.05039 0.06228 0.06825 0.0
O4 O 0.99909 0.01345 0.04918 0.0
C5 C 0.15046 0.1536 0.06227 0.0
O6 O 0.14516 0.16595 0.07912 0.0
O7 O 0.05636 0.01744 0.08674 0.0
C8 C 0.95115 0.99917 0.04776 0.0
O9 O 0.93132 0.01908 0.0591 0.0
C10 C 0.03345 0.1483 0.0736 0.0
O11 O 0.04721 0.15592 0.0565 0.0
O12 O 0.11719 0.10917 0.0555 0.0
C13 C 0.03105 0.14218 0.37594 0.0
O14 O 0.98929 0.09627 0.37759 0.0
O15 O 0.04952 0.03479 0.38001 0.0
Zn16 Zn 0.06071 0.09075 0.39844 0.0
O17 O -1e-05 0.0745 0.41467 0.0
C18 C 0.10729 0.06128 0.42367 0.0
O19 O 0.05902 0.02245 0.42217 0.0
O20 O 0.07286 0.15211 0.38419 0.0
C21 C 0.00979 0.11313 0.42517 0.0
O22 O 0.05596 0.15525 0.42453 0.0
C23 C 0.017 0.98642 0.37964 0.0
O24 O 0.98164 0.96689 0.39228 0.0
O25 O 0.12049 0.10122 0.4145 0.0
C26 C 0.10098 0.03917 0.71306 0.0
O27 O 0.10049 0.08116 0.7184 0.0
O28 O 0.97001 0.02342 0.72074 0.0
Zn29 Zn 0.01394 0.00203 0.73488 0.0
O30 O 0.05874 0.05432 0.75458 0.0
C31 C 0.91667 0.90872 0.74153 0.0
O32 O 0.90426 0.91773 0.72551 0.0
O33 O 0.0647 0.99549 0.71824 0.0
C34 C 0.06859 0.1006 0.75696 0.0
O35 O 0.04577 0.11788 0.74638 0.0
C36 C 0.96709 0.01927 0.70345 0.0
O37 O 0.99722 0.00625 0.69458 0.0
O38 O 0.96329 0.93679 0.74754 0.0
C39 C 0.07724 0.64503 0.25479 0.0
C40 C 0.07229 0.52936 0.2051 0.0
O41 O 0.11662 0.65023 0.24619 0.0
Zn42 Zn 0.07826 0.58931 0.22982 0.0
O43 O 0.03158 0.60773 0.25033 0.0
Zn44 Zn 0.99405 0.54419 0.23128 0.0
O45 O 0.96194 0.4859 0.24721 0.0
O46 O 0.04797 0.52711 0.24804 0.0
O47 O 0.02759 0.5178 0.21126 0.0
O48 O 0.11319 0.56848 0.21196 0.0
O49 O 0.03744 0.61318 0.21291 0.0
O50 O 0.95267 0.56405 0.21669 0.0
C51 C 0.00404 0.49082 0.25354 0.0
C52 C 0.99081 0.60156 0.20899 0.0
C53 C 0.57455 0.00475 0.58771 0.0
C54 C 0.4635 0.01263 0.54036 0.0
O55 O 0.53694 0.96583 0.5793 0.0
Zn56 Zn 0.51631 0.00513 0.56426 0.0
O57 O 0.58469 0.05052 0.58434 0.0
Zn58 Zn 0.55818 0.08884 0.56753 0.0
O59 O 0.53286 0.12091 0.58505 0.0
O60 O 0.48549 0.03554 0.58377 0.0
O61 O 0.49821 0.0568 0.54721 0.0
O62 O 0.45926 0.97138 0.54637 0.0
O63 O 0.58263 0.04549 0.54749 0.0
O64 O 0.61978 0.12987 0.5532 0.0
C65 C 0.4943 0.07922 0.59055 0.0
C66 C 0.61868 0.09193 0.54444 0.0
C67 C 0.44436 0.50947 0.92534 0.0
C68 C 0.55426 0.62567 0.87831 0.0
O69 O 0.43944 0.54541 0.91867 0.0
Zn70 Zn 0.49642 0.56838 0.90148 0.0
O71 O 0.47988 0.501 0.91945 0.0
Zn72 Zn 0.54069 0.52906 0.9003 0.0
O73 O 0.60212 0.55406 0.91601 0.0
O74 O 0.56219 0.59881 0.91951 0.0
O75 O 0.56609 0.59205 0.88285 0.0
O76 O 0.5154 0.62577 0.88545 0.0
O77 O 0.46772 0.5045 0.88258 0.0
O78 O 0.51702 0.46924 0.88343 0.0
C79 C 0.59901 0.59082 0.92392 0.0
C80 C 0.47797 0.46996 0.87683 0.0
H81 H 0.00332 0.144 0.10888 0.0
H82 H 0.01532 0.21604 0.12895 0.0
H83 H 0.08044 0.32014 0.08477 0.0
H84 H 0.0677 0.24813 0.06449 0.0
H85 H 0.10943 0.3044 0.13809 0.0
H86 H 0.97403 0.35461 0.10516 0.0
H87 H 0.97214 0.29441 0.10004 0.0
H88 H 0.0214 0.35333 0.09039 0.0
C89 C 0.01937 0.18203 0.10334 0.0
C90 C 0.03435 0.19027 0.08507 0.0
C91 C 0.02645 0.22321 0.11485 0.0
C92 C 0.04857 0.27338 0.10834 0.0
C93 C 0.06252 0.28159 0.09001 0.0
H94 H 0.15815 0.54183 0.18642 0.0
H95 H 0.15902 0.48515 0.16161 0.0
C96 C 0.05519 0.24034 0.07844 0.0
C97 C 0.05874 0.31717 0.12101 0.0
H98 H 0.02475 0.40831 0.13007 0.0
C99 C 0.09119 0.32738 0.13631 0.0
C100 C 0.0349 0.34702 0.1186 0.0
C101 C 0.99832 0.33669 0.10276 0.0
C102 C 0.09926 0.36569 0.14957 0.0
C103 C 0.07492 0.39512 0.14727 0.0
C104 C 0.04372 0.38594 0.1317 0.0
C105 C 0.07587 0.43096 0.16185 0.0
C106 C 0.13176 0.37269 0.16632 0.0
C107 C 0.02892 0.41975 0.16994 0.0
C108 C 0.02827 0.4519 0.18389 0.0
C109 C 0.07465 0.49625 0.19016 0.0
C110 C 0.12184 0.50783 0.18197 0.0
C111 C 0.12241 0.47544 0.16786 0.0
H112 H 0.14015 0.3408 0.16746 0.0
H113 H 0.16945 0.4097 0.1657 0.0
H114 H 0.11171 0.37459 0.17879 0.0
H115 H 0.99261 0.3856 0.16555 0.0
H116 H 0.99112 0.44161 0.18983 0.0
H117 H 0.91026 0.03295 0.4305 0.0
H118 H 0.84479 0.03374 0.45054 0.0
H119 H 0.95424 0.19202 0.46755 0.0
H120 H 0.01955 0.19181 0.44763 0.0
H121 H 0.85454 0.05586 0.48923 0.0
H122 H 0.82302 0.19536 0.45151 0.0
H123 H 0.85343 0.16183 0.44141 0.0
H124 H 0.8898 0.21633 0.45695 0.0
C125 C 0.92031 0.06792 0.43849 0.0
C126 C 0.97003 0.11234 0.43742 0.0
C127 C 0.88292 0.06832 0.4499 0.0
C128 C 0.89452 0.11323 0.46028 0.0
C129 C 0.94422 0.15734 0.45939 0.0
H130 H 0.71312 0.18029 0.53885 0.0
H131 H 0.78228 0.1883 0.51856 0.0
C132 C 0.98159 0.15696 0.44806 0.0
C133 C 0.85523 0.1136 0.47248 0.0
H134 H 0.78181 0.17007 0.47994 0.0
C135 C 0.8385 0.08069 0.48718 0.0
C136 C 0.83495 0.14655 0.46986 0.0
C137 C 0.8508 0.18179 0.45401 0.0
C138 C 0.80198 0.07985 0.49939 0.0
C139 C 0.78086 0.11202 0.49658 0.0
C140 C 0.79816 0.14555 0.48204 0.0
C141 C 0.73858 0.10892 0.50802 0.0
C142 C 0.78667 0.04486 0.51532 0.0
C143 C 0.6908 0.06231 0.50832 0.0
C144 C 0.65163 0.05762 0.51982 0.0
C145 C 0.65915 0.09967 0.53118 0.0
C146 C 0.70624 0.14721 0.5303 0.0
C147 C 0.74573 0.1518 0.51876 0.0
H148 H 0.81662 0.03454 0.51849 0.0
H149 H 0.78064 0.06341 0.52766 0.0
H150 H 0.7496 0.00839 0.51193 0.0
H151 H 0.68404 0.02918 0.49981 0.0
H152 H 0.61559 0.02062 0.51995 0.0
H153 H 0.92766 0.88035 0.77548 0.0
H154 H 0.85892 0.83341 0.79734 0.0
H155 H 0.74317 0.81446 0.7578 0.0
H156 H 0.81136 0.86006 0.73573 0.0
H157 H 0.79362 0.86434 0.81097 0.0
H158 H 0.67808 0.66989 0.77649 0.0
H159 H 0.74259 0.71721 0.76942 0.0
H160 H 0.68739 0.72248 0.76294 0.0
C161 C 0.88749 0.86524 0.7713 0.0
C162 C 0.87505 0.87391 0.75385 0.0
C163 C 0.84826 0.83865 0.78384 0.0
C164 C 0.79585 0.82017 0.77918 0.0
C165 C 0.78317 0.82745 0.7616 0.0
H166 H 0.52518 0.66885 0.8517 0.0
H167 H 0.58027 0.72227 0.82695 0.0
C168 C 0.82233 0.85369 0.749 0.0
C169 C 0.75513 0.79623 0.79312 0.0
H170 H 0.64372 0.68467 0.80352 0.0
C171 C 0.76073 0.82513 0.80928 0.0
C172 C 0.71191 0.74524 0.79084 0.0
C173 C 0.7047 0.71165 0.77407 0.0
C174 C 0.72509 0.80394 0.8234 0.0
C175 C 0.68282 0.75263 0.8213 0.0
C176 C 0.67597 0.7243 0.80493 0.0
C177 C 0.65009 0.72523 0.83685 0.0
C178 C 0.73345 0.83596 0.84068 0.0
C179 C 0.67145 0.70998 0.85053 0.0
C180 C 0.64031 0.67935 0.86437 0.0
C181 C 0.5872 0.66372 0.86491 0.0
C182 C 0.56611 0.6808 0.85164 0.0
C183 C 0.59736 0.71097 0.83752 0.0
H184 H 0.76058 0.8779 0.83874 0.0
H185 H 0.69581 0.83032 0.84568 0.0
H186 H 0.75033 0.82322 0.85135 0.0
H187 H 0.71196 0.72034 0.85016 0.0
H188 H 0.6576 0.66687 0.87447 0.0
H189 H 0.93113 0.92909 0.11618 0.0
H190 H 0.92072 0.86122 0.13615 0.0
H191 H 0.07572 0.89432 0.12354 0.0
H192 H 0.0868 0.96284 0.10362 0.0
H193 H 0.92598 0.77258 0.12702 0.0
H194 H 0.0755 0.89769 0.17932 0.0
H195 H 0.0504 0.92315 0.16284 0.0
H196 H 0.09946 0.90784 0.15653 0.0
C197 C 0.96325 0.92229 0.11774 0.0
C198 C 0.00995 0.95157 0.10835 0.0
C199 C 0.95711 0.88336 0.12913 0.0
C200 C 0.9976 0.87313 0.13147 0.0
C201 C 0.04431 0.90226 0.12216 0.0
H202 H 0.05997 0.6634 0.18433 0.0
H203 H 0.05477 0.72565 0.16547 0.0
C204 C 0.05053 0.94127 0.11074 0.0
C205 C 0.99051 0.83112 0.1433 0.0
H206 H 0.04244 0.80693 0.18032 0.0
C207 C 0.95104 0.78001 0.13879 0.0
C208 C 0.02297 0.84112 0.15872 0.0
C209 C 0.06415 0.89546 0.16478 0.0
C210 C 0.94477 0.73828 0.14886 0.0
C211 C 0.97845 0.74821 0.16389 0.0
C212 C 0.01678 0.79947 0.16872 0.0
C213 C 0.9777 0.70609 0.17405 0.0
C214 C 0.90366 0.68381 0.14295 0.0
C215 C 0.9354 0.67347 0.18486 0.0
C216 C 0.93812 0.6373 0.19571 0.0
C217 C 0.98342 0.63389 0.19598 0.0
C218 C 0.02469 0.66537 0.18459 0.0
C219 C 0.02184 0.70103 0.17377 0.0
H220 H 0.88658 0.68214 0.12935 0.0
H221 H 0.9203 0.65804 0.14253 0.0
H222 H 0.87184 0.6685 0.15295 0.0
H223 H 0.90119 0.67724 0.1854 0.0
H224 H 0.90588 0.61374 0.20442 0.0
H225 H 0.08927 0.97837 0.44309 0.0
H226 H 0.15101 0.96843 0.46167 0.0
H227 H 0.27285 0.12214 0.44887 0.0
H228 H 0.21096 0.13273 0.43019 0.0
H229 H 0.24622 0.97532 0.45084 0.0
H230 H 0.27507 0.12143 0.50523 0.0
H231 H 0.22122 0.09499 0.48908 0.0
H232 H 0.28509 0.14397 0.48243 0.0
C233 C 0.12913 0.0103 0.44424 0.0
C234 C 0.14516 0.05653 0.43522 0.0
C235 C 0.16438 0.00437 0.45483 0.0
C236 C 0.21629 0.04462 0.45674 0.0
C237 C 0.23269 0.09085 0.44773 0.0
H238 H 0.48135 0.09097 0.51872 0.0
H239 H 0.42116 0.09459 0.49735 0.0
C240 C 0.19737 0.09681 0.43705 0.0
C241 C 0.253 0.03784 0.4682 0.0
H242 H 0.32747 0.08353 0.50706 0.0
C243 C 0.26404 0.99889 0.46315 0.0
C244 C 0.27573 0.06842 0.48429 0.0
C245 C 0.26348 0.1093 0.49073 0.0
C246 C 0.29835 0.99053 0.47359 0.0
C247 C 0.32133 0.02137 0.48963 0.0
C248 C 0.30984 0.05999 0.49473 0.0
C249 C 0.35893 0.01592 0.50112 0.0
C250 C 0.31069 0.94975 0.46715 0.0
C251 C 0.3443 0.96995 0.51009 0.0
C252 C 0.37902 0.96756 0.52232 0.0
C253 C 0.42845 0.0114 0.5259 0.0
C254 C 0.44335 0.05664 0.51641 0.0
C255 C 0.40902 0.05883 0.50416 0.0
H256 H 0.29978 0.9382 0.45258 0.0
H257 H 0.35282 0.96379 0.46904 0.0
H258 H 0.28845 0.91476 0.47525 0.0
H259 H 0.30548 0.93661 0.50816 0.0
H260 H 0.36641 0.93233 0.52953 0.0
H261 H 0.10172 0.20249 0.76566 0.0
H262 H 0.17404 0.26163 0.78621 0.0
H263 H 0.20134 0.13795 0.79865 0.0
H264 H 0.12941 0.07862 0.77822 0.0
H265 H 0.18731 0.24869 0.82476 0.0
H266 H 0.34511 0.25792 0.78165 0.0
H267 H 0.28048 0.23622 0.77273 0.0
H268 H 0.29199 0.19427 0.78627 0.0
C269 C 0.12295 0.18781 0.77282 0.0
C270 C 0.10988 0.13589 0.77023 0.0
C271 C 0.16426 0.22164 0.78452 0.0
C272 C 0.19343 0.20424 0.79368 0.0
C273 C 0.17983 0.15227 0.79145 0.0
H274 H 0.4636 0.37319 0.86842 0.0
H275 H 0.39533 0.30546 0.84822 0.0
C276 C 0.13845 0.11838 0.77984 0.0
C277 C 0.23771 0.24037 0.80577 0.0
H278 H 0.37036 0.30305 0.81021 0.0
C279 C 0.22732 0.26055 0.82161 0.0
C280 C 0.28974 0.25519 0.80167 0.0
C281 C 0.30286 0.23517 0.78461 0.0
C282 C 0.26771 0.29558 0.83347 0.0
C283 C 0.31994 0.31171 0.82911 0.0
C284 C 0.33029 0.29058 0.81348 0.0
C285 C 0.36412 0.35309 0.84004 0.0
C286 C 0.25408 0.31495 0.85059 0.0
C287 C 0.37029 0.40258 0.84149 0.0
C288 C 0.40872 0.44085 0.85294 0.0
C289 C 0.44232 0.43072 0.86307 0.0
C290 C 0.43821 0.38203 0.86081 0.0
C291 C 0.39922 0.34337 0.84935 0.0
H292 H 0.21329 0.28802 0.8546 0.0
H293 H 0.28062 0.32002 0.86208 0.0
H294 H 0.25797 0.35306 0.84818 0.0
H295 H 0.34449 0.41126 0.83405 0.0
H296 H 0.41137 0.47822 0.85414 0.0
H297 H 0.96298 0.03626 0.66757 0.0
H298 H 0.88892 0.02813 0.65038 0.0
H299 H 0.79934 0.99133 0.69943 0.0
H300 H 0.87414 0.00164 0.71682 0.0
H301 H 0.79529 0.94489 0.64473 0.0
H302 H 0.77274 0.09866 0.68008 0.0
H303 H 0.82903 0.09236 0.68365 0.0
H304 H 0.76903 0.05068 0.69489 0.0
C305 C 0.92781 0.02741 0.67474 0.0
C306 C 0.9245 0.02011 0.69355 0.0
C307 C 0.8854 0.02245 0.66489 0.0
C308 C 0.83862 0.00953 0.67361 0.0
C309 C 0.83535 0.00257 0.69246 0.0
H310 H 0.559 0.91637 0.60399 0.0
H311 H 0.61699 0.91058 0.62636 0.0
C312 C 0.87814 0.00844 0.70239 0.0
C313 C 0.79313 0.0019 0.66274 0.0
H314 H 0.70901 0.04632 0.65776 0.0
C315 C 0.77628 0.96695 0.6476 0.0
C316 C 0.76831 0.03064 0.66653 0.0
C317 C 0.78593 0.07052 0.68206 0.0
C318 C 0.73668 0.96137 0.63576 0.0
C319 C 0.71219 0.99043 0.63947 0.0
C320 C 0.72762 0.02381 0.65501 0.0
C321 C 0.67553 0.99222 0.6263 0.0
C322 C 0.72333 0.92645 0.61891 0.0
C323 C 0.68864 0.03995 0.61916 0.0
C324 C 0.65558 0.04342 0.60672 0.0
C325 C 0.60849 0.99913 0.60097 0.0
C326 C 0.59514 0.95107 0.60808 0.0
C327 C 0.62832 0.94771 0.62078 0.0
H328 H 0.75294 0.91514 0.61621 0.0
H329 H 0.68525 0.89057 0.62071 0.0
H330 H 0.71997 0.94573 0.6068 0.0
H331 H 0.72491 0.07474 0.62313 0.0
H332 H 0.66739 0.08108 0.60149 0.0
H333 H 0.97951 0.94561 0.0243 0.0
H334 H 0.92378 0.87466 0.00279 0.0
H335 H 0.79141 0.88677 0.01917 0.0
H336 H 0.84688 0.95806 0.04074 0.0
H337 H 0.8322 0.77809 0.01087 0.0
H338 H 0.79182 0.89291 0.9629 0.0
H339 H 0.8451 0.92244 0.97931 0.0
H340 H 0.7798 0.90141 0.98635 0.0
C341 C 0.93861 0.93351 0.02327 0.0
C342 C 0.91765 0.95769 0.0342 0.0
C343 C 0.90684 0.89283 0.011 0.0
C344 C 0.85369 0.87585 0.00931 0.0
C345 C 0.83257 0.89987 0.02013 0.0
H346 H 0.58557 0.64969 0.9495 0.0
H347 H 0.6505 0.71566 0.97035 0.0
C348 C 0.86428 0.9405 0.03247 0.0
C349 C 0.82009 0.83241 0.99642 0.0
H350 H 0.74103 0.80136 0.95896 0.0
C351 C 0.81251 0.78307 0.99941 0.0
C352 C 0.79494 0.83935 0.98145 0.0
C353 C 0.80356 0.89194 0.97715 0.0
C354 C 0.77848 0.73987 0.98823 0.0
C355 C 0.75223 0.74662 0.97355 0.0
C356 C 0.76111 0.7963 0.97028 0.0
C357 C 0.71257 0.70251 0.96208 0.0
C358 C 0.76933 0.68715 0.9926 0.0
C359 C 0.72566 0.67229 0.95074 0.0
C360 C 0.68821 0.63392 0.93879 0.0
C361 C 0.63755 0.62595 0.93789 0.0
C362 C 0.62441 0.6552 0.94972 0.0
C363 C 0.66146 0.69296 0.96167 0.0
H364 H 0.78455 0.68703 0.00637 0.0
H365 H 0.72711 0.65772 0.99179 0.0
H366 H 0.78944 0.67543 0.9825 0.0
H367 H 0.76515 0.67956 0.95068 0.0
H368 H 0.69945 0.61215 0.92975 0.0
H369 H 0.08969 0.01558 0.35312 0.0
H370 H 0.10414 0.95982 0.33199 0.0
H371 H 0.97421 0.8248 0.35431 0.0
H372 H 0.95917 0.88036 0.37558 0.0
H373 H 0.12526 0.88023 0.34133 0.0
H374 H 0.94593 0.80553 0.29855 0.0
H375 H 0.97031 0.86268 0.31338 0.0
H376 H 0.93529 0.79939 0.32261 0.0
C377 C 0.06379 0.97403 0.35348 0.0
C378 C 0.02311 0.9524 0.36604 0.0
C379 C 0.0723 0.94228 0.34142 0.0
C380 C 0.04011 0.88833 0.34153 0.0
C381 C 0.9991 0.86647 0.35388 0.0
H382 H 0.01235 0.62467 0.28294 0.0
H383 H 0.00955 0.68638 0.3046 0.0
C384 C 0.9906 0.89825 0.36603 0.0
C385 C 0.05022 0.85495 0.32897 0.0
H386 H 0.99643 0.76585 0.29369 0.0
C387 C 0.0973 0.85534 0.33084 0.0
C388 C 0.01378 0.82295 0.31525 0.0
C389 C 0.96365 0.82275 0.31215 0.0
C390 C 0.1081 0.82306 0.3197 0.0
C391 C 0.07117 0.79033 0.3062 0.0
C392 C 0.02461 0.79086 0.30412 0.0
C393 C 0.07828 0.75315 0.29456 0.0
C394 C 0.15804 0.82298 0.32284 0.0
C395 C 0.11891 0.77003 0.28204 0.0
C396 C 0.12095 0.73447 0.26966 0.0
C397 C 0.08189 0.68189 0.26953 0.0
C398 C 0.04276 0.66505 0.28262 0.0
C399 C 0.04105 0.70026 0.29501 0.0
H400 H 0.17668 0.8417 0.33619 0.0
H401 H 0.15081 0.7828 0.32222 0.0
H402 H 0.18585 0.84471 0.31201 0.0
H403 H 0.14763 0.81083 0.28129 0.0
H404 H 0.15123 0.74847 0.2596 0.0
H405 H 0.18339 0.12777 0.70097 0.0
H406 H 0.25168 0.13645 0.68061 0.0
H407 H 0.1825 0.97037 0.67749 0.0
H408 H 0.11321 0.96111 0.69782 0.0
H409 H 0.32396 0.10404 0.68485 0.0
H410 H 0.1959 0.00959 0.62389 0.0
H411 H 0.17511 0.03095 0.64371 0.0
H412 H 0.17585 0.97143 0.64379 0.0
C413 C 0.18246 0.09293 0.69595 0.0
C414 C 0.14259 0.04364 0.70093 0.0
C415 C 0.22168 0.09807 0.68434 0.0
C416 C 0.22179 0.0541 0.67737 0.0
C417 C 0.18257 0.00478 0.68249 0.0
H418 H 0.4149 0.99568 0.60625 0.0
H419 H 0.35196 0.99366 0.62771 0.0
C420 C 0.14317 -0.00045 0.69416 0.0
C421 C 0.26318 0.06021 0.66478 0.0
H422 H 0.28364 0.03026 0.62157 0.0
C423 C 0.31528 0.08813 0.67098 0.0
C424 C 0.25164 0.03977 0.64667 0.0
C425 C 0.19667 0.01165 0.63901 0.0
C426 C 0.35611 0.09485 0.65968 0.0
C427 C 0.34444 0.07373 0.64166 0.0
C428 C 0.29241 0.04643 0.6354 0.0
C429 C 0.38507 0.07671 0.62932 0.0
C430 C 0.41116 0.12311 0.66724 0.0
C431 C 0.42495 0.12434 0.62315 0.0
C432 C 0.46145 0.12577 0.61078 0.0
C433 C 0.45827 0.07952 0.60436 0.0
C434 C 0.41856 0.03212 0.61082 0.0
C435 C 0.38239 0.03077 0.62311 0.0
H436 H 0.41237 0.12798 0.6823 0.0
H437 H 0.43161 0.10204 0.66333 0.0
H438 H 0.43284 0.16216 0.6615 0.0
H439 H 0.4272 0.16022 0.62761 0.0
H440 H 0.49141 0.16283 0.60601 0.0
H441 H 0.1702 0.1416 0.0267 0.0
H442 H 0.22081 0.20983 0.00551 0.0
H443 H 0.26197 0.32574 0.04871 0.0
H444 H 0.21193 0.25772 0.0701 0.0
H445 H 0.20212 0.28987 0.99688 0.0
H446 H 0.40236 0.36743 0.02522 0.0
H447 H 0.34831 0.30527 0.03112 0.0
H448 H 0.35481 0.36383 0.04107 0.0
C449 C 0.19073 0.18153 0.03179 0.0
C450 C 0.18711 0.19416 0.05012 0.0
C451 C 0.21939 0.22049 0.01964 0.0
C452 C 0.24516 0.27279 0.02555 0.0
C453 C 0.2429 0.28557 0.04392 0.0
H454 H 0.37245 0.52124 0.94551 0.0
H455 H 0.32151 0.46867 0.97099 0.0
C456 C 0.21431 0.24659 0.05613 0.0
C457 C 0.27274 0.31369 0.01223 0.0
H458 H 0.39353 0.40906 8e-05 0.0
C459 C 0.24393 0.31628 0.99763 0.0
C460 C 0.32721 0.34803 0.01331 0.0
C461 C 0.36023 0.346 0.02843 0.0
C462 C 0.26841 0.35131 0.98374 0.0
C463 C 0.323 0.38492 0.98464 0.0
C464 C 0.35157 0.38346 0.99955 0.0
C465 C 0.35217 0.41697 0.9692 0.0
C466 C 0.23617 0.35049 0.9678 0.0
C467 C 0.38607 0.4053 0.95987 0.0
C468 C 0.41495 0.43498 0.9455 0.0
C469 C 0.41083 0.47732 0.94009 0.0
C470 C 0.37631 0.48877 0.9493 0.0
C471 C 0.34722 0.4588 0.96382 0.0
H472 H 0.19551 0.31727 0.96798 0.0
H473 H 0.23494 0.38685 0.96817 0.0
H474 H 0.25405 0.34836 0.95479 0.0
H475 H 0.39024 0.37305 0.96374 0.0
H476 H 0.44089 0.42472 0.93871 0.0
H477 H 0.11098 0.23735 0.36615 0.0
H478 H 0.10481 0.29871 0.34652 0.0
H479 H 0.93898 0.19461 0.34052 0.0
H480 H 0.94457 0.13355 0.36003 0.0
H481 H 0.06412 0.27596 0.30973 0.0
H482 H 0.95289 0.33562 0.3549 0.0
H483 H 0.98757 0.30542 0.36328 0.0
H484 H 0.92545 0.26682 0.35188 0.0
C485 C 0.0732 0.2278 0.36076 0.0
C486 C 0.0283 0.1806 0.36465 0.0
C487 C 0.06974 0.26281 0.34957 0.0
C488 C 0.02132 0.25141 0.34231 0.0
C489 C 0.97654 0.20455 0.34627 0.0
H490 H 0.9203 0.40192 0.26621 0.0
H491 H 0.92292 0.3424 0.28777 0.0
C492 C 0.97995 0.16954 0.35733 0.0
C493 C 0.01765 0.28698 0.32976 0.0
H494 H 0.96243 0.36142 0.32429 0.0
C495 C 0.04221 0.29495 0.31294 0.0
C496 C 0.98843 0.31107 0.33394 0.0
C497 C 0.96237 0.30476 0.35204 0.0
C498 C 0.03789 0.32601 0.30006 0.0
C499 C 0.00912 0.35058 0.30429 0.0
C500 C 0.98428 0.34238 0.32108 0.0
C501 C 0.00666 0.38689 0.29177 0.0
C502 C 0.06344 0.33153 0.28189 0.0
C503 C 0.0526 0.43199 0.28728 0.0
C504 C 0.05127 0.46569 0.27503 0.0
C505 C 0.00381 0.45533 0.26709 0.0
C506 C 0.95745 0.41085 0.27202 0.0
C507 C 0.95889 0.37689 0.28432 0.0
H508 H 0.07076 0.29927 0.27884 0.0
H509 H 0.03903 0.33261 0.27072 0.0
H510 H 0.10154 0.36831 0.28213 0.0
H511 H 0.08969 0.44106 0.29321 0.0
H512 H 0.08771 0.49987 0.27174 0.0
loop_
_geom_bond_atom_site_label_1
_geom_bond_atom_site_label_2
_geom_bond_distance
_geom_bond_site_symmetry_2
_ccdc_geom_bond_type
C0 O1 1.160 . S
C0 O7 1.185 1_565 S
O1 C0 1.160 . S
O2 Zn3 1.899 . S
O2 C10 1.284 . S
Zn3 O2 1.899 . S
Zn3 O4 2.027 1_445 S
Zn3 O7 2.086 . S
Zn3 O12 1.977 . S
O4 Zn3 2.027 1_665 S
O4 C8 1.273 1_565 S
C5 O6 1.203 . S
C5 O12 1.267 . S
O6 C5 1.203 . S
O7 C0 1.185 1_545 S
O7 Zn3 2.086 . S
C8 O4 1.273 1_545 S
C8 O9 1.211 . S
O9 C8 1.211 . S
C10 O2 1.284 . S
C10 O11 1.273 1_455 S
O11 C10 1.273 1_655 S
O12 Zn3 1.977 . S
O12 C5 1.267 . S
C13 O14 1.160 . S
C13 O20 1.185 . S
O14 C13 1.160 . S
O15 Zn16 1.899 . S
O15 C23 1.284 1_545 S
Zn16 O15 1.899 . S
Zn16 O17 2.030 . S
Zn16 O20 2.086 . S
Zn16 O25 1.977 . S
O17 Zn16 2.030 . S
O17 C21 1.278 1_455 S
C18 O19 1.203 . S
C18 O25 1.267 . S
O19 C18 1.203 . S
O20 C13 1.185 . S
O20 Zn16 2.086 . S
C21 O17 1.278 1_655 S
C21 O22 1.211 1_655 S
O22 C21 1.211 1_455 S
C23 O15 1.284 1_565 S
C23 O24 1.273 1_455 S
O24 C23 1.273 1_655 S
O25 Zn16 1.977 . S
O25 C18 1.267 . S
C26 O27 1.160 . S
C26 O33 1.185 1_545 S
O27 C26 1.160 . S
O28 Zn29 1.899 1_655 S
O28 C36 1.284 . S
Zn29 O28 1.899 1_455 S
Zn29 O30 2.032 . S
Zn29 O33 2.086 1_545 S
Zn29 O38 1.977 1_445 S
O30 Zn29 2.032 . S
O30 C34 1.278 . S
C31 O32 1.203 . S
C31 O38 1.267 . S
O32 C31 1.203 . S
O33 C26 1.185 1_565 S
O33 Zn29 2.086 1_565 S
C34 O30 1.278 . S
C34 O35 1.211 . S
O35 C34 1.211 . S
C36 O28 1.284 . S
C36 O37 1.273 . S
O37 C36 1.273 . S
O38 Zn29 1.977 1_665 S
O38 C31 1.267 . S
C39 O41 1.247 . S
C39 O43 1.258 1_455 S
C40 O47 1.247 1_455 S
C40 O48 1.258 . S
O41 C39 1.247 . S
O41 Zn42 2.028 . S
Zn42 O41 2.028 . S
Zn42 O46 2.035 . S
Zn42 O48 2.035 . S
Zn42 O49 2.028 . S
O43 C39 1.258 1_655 S
O43 Zn44 2.035 . S
Zn44 O43 2.035 . S
Zn44 O45 2.028 . S
Zn44 O47 2.028 . S
Zn44 O50 2.035 . S
O45 Zn44 2.028 . S
O45 C51 1.247 1_655 S
O46 Zn42 2.035 . S
O46 C51 1.258 . S
O47 C40 1.247 1_655 S
O47 Zn44 2.028 . S
O48 C40 1.258 . S
O48 Zn42 2.035 . S
O49 Zn42 2.028 . S
O49 C52 1.247 . S
O50 Zn44 2.035 . S
O50 C52 1.258 1_655 S
C51 O45 1.247 1_455 S
C51 O46 1.258 . S
C52 O49 1.247 . S
C52 O50 1.258 1_455 S
C53 O55 1.248 1_545 S
C53 O57 1.258 . S
C54 O61 1.247 . S
C54 O62 1.258 . S
O55 C53 1.248 1_565 S
O55 Zn56 2.029 . S
Zn56 O55 2.029 . S
Zn56 O60 2.036 1_565 S
Zn56 O62 2.035 1_565 S
Zn56 O63 2.028 1_565 S
O57 C53 1.258 . S
O57 Zn58 2.035 . S
Zn58 O57 2.035 . S
Zn58 O59 2.028 . S
Zn58 O61 2.028 . S
Zn58 O64 2.035 . S
O59 Zn58 2.028 . S
O59 C65 1.247 . S
O60 Zn56 2.036 1_545 S
O60 C65 1.256 . S
O61 C54 1.247 . S
O61 Zn58 2.028 . S
O62 C54 1.258 . S
O62 Zn56 2.035 1_545 S
O63 Zn56 2.028 1_545 S
O63 C66 1.247 . S
O64 Zn58 2.035 . S
O64 C66 1.258 . S
C65 O59 1.247 . S
C65 O60 1.256 . S
C66 O63 1.247 . S
C66 O64 1.258 . S
C67 O69 1.247 . S
C67 O71 1.258 . S
C68 O75 1.247 . S
C68 O76 1.258 . S
O69 C67 1.247 . S
O69 Zn70 2.028 . S
Zn70 O69 2.028 . S
Zn70 O74 2.035 . S
Zn70 O76 2.035 . S
Zn70 O77 2.028 . S
O71 C67 1.258 . S
O71 Zn72 2.035 . S
Zn72 O71 2.035 . S
Zn72 O73 2.028 . S
Zn72 O75 2.028 . S
Zn72 O78 2.035 . S
O73 Zn72 2.028 . S
O73 C79 1.247 . S
O74 Zn70 2.035 . S
O74 C79 1.258 . S
O75 C68 1.247 . S
O75 Zn72 2.028 . S
O76 C68 1.258 . S
O76 Zn70 2.035 . S
O77 Zn70 2.028 . S
O77 C80 1.247 . S
O78 Zn72 2.035 . S
O78 C80 1.258 . S
C79 O73 1.247 . S
C79 O74 1.258 . S
C80 O77 1.247 . S
C80 O78 1.258 . S
H81 C89 0.926 . S
H82 C91 0.930 . S
H83 C93 0.930 . S
H84 C96 0.929 . S
H85 C99 0.930 . S
H86 C101 0.960 . S
H87 C101 0.960 . S
H88 C101 0.960 . S
C89 H81 0.926 . S
C89 C90 1.377 . S
C89 C91 1.384 . S
C90 C89 1.377 . S
C90 C96 1.390 . S
C91 H82 0.930 . S
C91 C89 1.384 . S
C91 C92 1.372 . S
C92 C91 1.372 . S
C92 C93 1.400 . S
C92 C97 1.490 . S
C93 H83 0.930 . S
C93 C92 1.400 . S
C93 C96 1.386 . S
H94 C110 0.930 . S
H95 C111 0.931 . S
C96 H84 0.929 . S
C96 C90 1.390 . S
C96 C93 1.386 . S
C97 C92 1.490 . S
C97 C99 1.395 . S
C97 C100 1.403 1_455 S
H98 C104 0.930 . S
C99 H85 0.930 . S
C99 C97 1.395 . S
C99 C102 1.403 . S
C100 C97 1.403 1_655 S
C100 C101 1.524 . S
C100 C104 1.400 . S
C101 H86 0.960 . S
C101 H87 0.960 . S
C101 H88 0.960 . S
C101 C100 1.524 . S
C102 C99 1.403 . S
C102 C103 1.392 . S
C102 C106 1.495 . S
C103 C102 1.392 . S
C103 C104 1.385 1_455 S
C103 C105 1.478 . S
C104 H98 0.930 . S
C104 C100 1.400 . S
C104 C103 1.385 1_655 S
C105 C103 1.478 . S
C105 C107 1.381 . S
C105 C111 1.383 . S
C106 C102 1.495 . S
C106 H112 0.959 . S
C106 H113 0.961 . S
C106 H114 0.960 . S
C107 C105 1.381 . S
C107 C108 1.394 . S
C107 H115 0.930 . S
C108 C107 1.394 . S
C108 C109 1.383 . S
C108 H116 0.929 . S
C109 C108 1.383 . S
C109 C110 1.377 . S
C110 H94 0.930 . S
C110 C109 1.377 . S
C110 C111 1.379 . S
C111 H95 0.931 . S
C111 C105 1.383 . S
C111 C110 1.379 . S
H112 C106 0.959 . S
H113 C106 0.961 . S
H114 C106 0.960 . S
H115 C107 0.930 . S
H116 C108 0.929 . S
H117 C125 0.929 . S
H118 C127 0.930 . S
H119 C129 0.930 . S
H120 C132 0.929 . S
H121 C135 0.930 1_565 S
H122 C137 0.960 . S
H123 C137 0.960 . S
H124 C137 0.960 . S
C125 H117 0.929 . S
C125 C126 1.377 . S
C125 C127 1.384 . S
C126 C125 1.377 . S
C126 C132 1.390 . S
C127 H118 0.930 . S
C127 C125 1.384 . S
C127 C128 1.372 . S
C128 C127 1.372 . S
C128 C129 1.400 . S
C128 C133 1.490 . S
C129 H119 0.930 . S
C129 C128 1.400 . S
C129 C132 1.386 . S
H130 C146 0.930 . S
H131 C147 0.931 . S
C132 H120 0.929 . S
C132 C126 1.390 . S
C132 C129 1.386 . S
C133 C128 1.490 . S
C133 C135 1.395 . S
C133 C136 1.403 . S
H134 C140 0.930 . S
C135 H121 0.930 1_545 S
C135 C133 1.395 . S
C135 C138 1.403 1_545 S
C136 C133 1.403 . S
C136 C137 1.524 . S
C136 C140 1.400 . S
C137 H122 0.960 . S
C137 H123 0.960 . S
C137 H124 0.960 . S
C137 C136 1.524 . S
C138 C135 1.403 1_565 S
C138 C139 1.392 1_565 S
C138 C142 1.495 . S
C139 C138 1.392 1_545 S
C139 C140 1.385 . S
C139 C141 1.478 . S
C140 H134 0.930 . S
C140 C136 1.400 . S
C140 C139 1.385 . S
C141 C139 1.478 . S
C141 C143 1.381 . S
C141 C147 1.383 . S
C142 C138 1.495 . S
C142 H148 0.959 . S
C142 H149 0.961 . S
C142 H150 0.960 . S
C143 C141 1.381 . S
C143 C144 1.394 . S
C143 H151 0.930 . S
C144 C143 1.394 . S
C144 C145 1.383 . S
C144 H152 0.929 . S
C145 C144 1.383 . S
C145 C146 1.377 . S
C146 H130 0.930 . S
C146 C145 1.377 . S
C146 C147 1.379 . S
C147 H131 0.931 . S
C147 C141 1.383 . S
C147 C146 1.379 . S
H148 C142 0.959 . S
H149 C142 0.961 . S
H150 C142 0.960 . S
H151 C143 0.930 . S
H152 C144 0.929 . S
H153 C161 0.929 . S
H154 C163 0.930 . S
H155 C165 0.930 . S
H156 C168 0.929 . S
H157 C171 0.930 . S
H158 C173 0.960 . S
H159 C173 0.960 . S
H160 C173 0.960 . S
C161 H153 0.929 . S
C161 C162 1.377 . S
C161 C163 1.384 . S
C162 C161 1.377 . S
C162 C168 1.390 . S
C163 H154 0.930 . S
C163 C161 1.384 . S
C163 C164 1.372 . S
C164 C163 1.372 . S
C164 C165 1.400 . S
C164 C169 1.490 . S
C165 H155 0.930 . S
C165 C164 1.400 . S
C165 C168 1.386 . S
H166 C182 0.930 . S
H167 C183 0.931 . S
C168 H156 0.929 . S
C168 C162 1.390 . S
C168 C165 1.386 . S
C169 C164 1.490 . S
C169 C171 1.395 . S
C169 C172 1.403 . S
H170 C176 0.930 . S
C171 H157 0.930 . S
C171 C169 1.395 . S
C171 C174 1.403 . S
C172 C169 1.403 . S
C172 C173 1.524 . S
C172 C176 1.400 . S
C173 H158 0.960 . S
C173 H159 0.960 . S
C173 H160 0.960 . S
C173 C172 1.524 . S
C174 C171 1.403 . S
C174 C175 1.392 . S
C174 C178 1.495 . S
C175 C174 1.392 . S
C175 C176 1.385 . S
C175 C177 1.478 . S
C176 H170 0.930 . S
C176 C172 1.400 . S
C176 C175 1.385 . S
C177 C175 1.478 . S
C177 C179 1.381 . S
C177 C183 1.383 . S
C178 C174 1.495 . S
C178 H184 0.959 . S
C178 H185 0.961 . S
C178 H186 0.960 . S
C179 C177 1.381 . S
C179 C180 1.394 . S
C179 H187 0.930 . S
C180 C179 1.394 . S
C180 C181 1.383 . S
C180 H188 0.929 . S
C181 C180 1.383 . S
C181 C182 1.377 . S
C182 H166 0.930 . S
C182 C181 1.377 . S
C182 C183 1.379 . S
C183 H167 0.931 . S
C183 C177 1.383 . S
C183 C182 1.379 . S
H184 C178 0.959 . S
H185 C178 0.961 . S
H186 C178 0.960 . S
H187 C179 0.930 . S
H188 C180 0.929 . S
H189 C197 0.929 . S
H190 C199 0.930 . S
H191 C201 0.930 . S
H192 C204 0.929 . S
H193 C207 0.930 . S
H194 C209 0.960 . S
H195 C209 0.960 . S
H196 C209 0.960 . S
C197 H189 0.929 . S
C197 C198 1.377 . S
C197 C199 1.384 . S
C198 C197 1.377 . S
C198 C204 1.390 . S
C199 H190 0.930 . S
C199 C197 1.384 . S
C199 C200 1.372 . S
C200 C199 1.372 . S
C200 C201 1.400 . S
C200 C205 1.490 . S
C201 H191 0.930 . S
C201 C200 1.400 . S
C201 C204 1.386 . S
H202 C218 0.930 . S
H203 C219 0.931 . S
C204 H192 0.929 . S
C204 C198 1.390 . S
C204 C201 1.386 . S
C205 C200 1.490 . S
C205 C207 1.395 1_455 S
C205 C208 1.403 . S
H206 C212 0.930 . S
C207 H193 0.930 . S
C207 C205 1.395 1_655 S
C207 C210 1.403 . S
C208 C205 1.403 . S
C208 C209 1.524 . S
C208 C212 1.400 . S
C209 H194 0.960 . S
C209 H195 0.960 . S
C209 H196 0.960 . S
C209 C208 1.524 . S
C210 C207 1.403 . S
C210 C211 1.392 1_655 S
C210 C214 1.495 . S
C211 C210 1.392 1_455 S
C211 C212 1.385 . S
C211 C213 1.478 . S
C212 H206 0.930 . S
C212 C208 1.400 . S
C212 C211 1.385 . S
C213 C211 1.478 . S
C213 C215 1.381 . S
C213 C219 1.383 . S
C214 C210 1.495 . S
C214 H220 0.959 . S
C214 H221 0.961 . S
C214 H222 0.960 . S
C215 C213 1.381 . S
C215 C216 1.394 . S
C215 H223 0.930 . S
C216 C215 1.394 . S
C216 C217 1.383 . S
C216 H224 0.929 . S
C217 C216 1.383 . S
C217 C218 1.377 . S
C218 H202 0.930 . S
C218 C217 1.377 . S
C218 C219 1.379 . S
C219 H203 0.931 . S
C219 C213 1.383 . S
C219 C218 1.379 . S
H220 C214 0.959 . S
H221 C214 0.961 . S
H222 C214 0.960 . S
H223 C215 0.930 . S
H224 C216 0.929 . S
H225 C233 0.929 . S
H226 C235 0.930 . S
H227 C237 0.930 . S
H228 C240 0.929 . S
H229 C243 0.930 . S
H230 C245 0.960 . S
H231 C245 0.960 . S
H232 C245 0.960 . S
C233 H225 0.929 . S
C233 C234 1.377 . S
C233 C235 1.384 . S
C234 C233 1.377 . S
C234 C240 1.390 . S
C235 H226 0.930 . S
C235 C233 1.384 . S
C235 C236 1.372 . S
C236 C235 1.372 . S
C236 C237 1.400 . S
C236 C241 1.490 . S
C237 H227 0.930 . S
C237 C236 1.400 . S
C237 C240 1.386 . S
H238 C254 0.930 . S
H239 C255 0.931 . S
C240 H228 0.929 . S
C240 C234 1.390 . S
C240 C237 1.386 . S
C241 C236 1.490 . S
C241 C243 1.395 . S
C241 C244 1.403 . S
H242 C248 0.930 . S
C243 H229 0.930 . S
C243 C241 1.395 . S
C243 C246 1.403 . S
C244 C241 1.403 . S
C244 C245 1.524 . S
C244 C248 1.400 . S
C245 H230 0.960 . S
C245 H231 0.960 . S
C245 H232 0.960 . S
C245 C244 1.524 . S
C246 C243 1.403 . S
C246 C247 1.392 . S
C246 C250 1.495 1_545 S
C247 C246 1.392 . S
C247 C248 1.385 . S
C247 C249 1.478 . S
C248 H242 0.930 . S
C248 C244 1.400 . S
C248 C247 1.385 . S
C249 C247 1.478 . S
C249 C251 1.381 . S
C249 C255 1.383 . S
C250 C246 1.495 1_565 S
C250 H256 0.959 . S
C250 H257 0.961 . S
C250 H258 0.960 . S
C251 C249 1.381 . S
C251 C252 1.394 . S
C251 H259 0.930 1_545 S
C252 C251 1.394 . S
C252 C253 1.383 . S
C252 H260 0.929 1_545 S
C253 C252 1.383 . S
C253 C254 1.377 . S
C254 H238 0.930 . S
C254 C253 1.377 . S
C254 C255 1.379 . S
C255 H239 0.931 . S
C255 C249 1.383 . S
C255 C254 1.379 . S
H256 C250 0.959 . S
H257 C250 0.961 . S
H258 C250 0.960 . S
H259 C251 0.930 1_565 S
H260 C252 0.929 1_565 S
H261 C269 0.929 . S
H262 C271 0.930 . S
H263 C273 0.930 . S
H264 C276 0.929 . S
H265 C279 0.930 . S
H266 C281 0.960 . S
H267 C281 0.960 . S
H268 C281 0.960 . S
C269 H261 0.929 . S
C269 C270 1.377 . S
C269 C271 1.384 . S
C270 C269 1.377 . S
C270 C276 1.390 . S
C271 H262 0.930 . S
C271 C269 1.384 . S
C271 C272 1.372 . S
C272 C271 1.372 . S
C272 C273 1.400 . S
C272 C277 1.490 . S
C273 H263 0.930 . S
C273 C272 1.400 . S
C273 C276 1.386 . S
H274 C290 0.930 . S
H275 C291 0.931 . S
C276 H264 0.929 . S
C276 C270 1.390 . S
C276 C273 1.386 . S
C277 C272 1.490 . S
C277 C279 1.395 . S
C277 C280 1.403 . S
H278 C284 0.930 . S
C279 H265 0.930 . S
C279 C277 1.395 . S
C279 C282 1.403 . S
C280 C277 1.403 . S
C280 C281 1.524 . S
C280 C284 1.400 . S
C281 H266 0.960 . S
C281 H267 0.960 . S
C281 H268 0.960 . S
C281 C280 1.524 . S
C282 C279 1.403 . S
C282 C283 1.392 . S
C282 C286 1.495 . S
C283 C282 1.392 . S
C283 C284 1.385 . S
C283 C285 1.478 . S
C284 H278 0.930 . S
C284 C280 1.400 . S
C284 C283 1.385 . S
C285 C283 1.478 . S
C285 C287 1.381 . S
C285 C291 1.383 . S
C286 C282 1.495 . S
C286 H292 0.959 . S
C286 H293 0.961 . S
C286 H294 0.960 . S
C287 C285 1.381 . S
C287 C288 1.394 . S
C287 H295 0.930 . S
C288 C287 1.394 . S
C288 C289 1.383 . S
C288 H296 0.929 . S
C289 C288 1.383 . S
C289 C290 1.377 . S
C290 H274 0.930 . S
C290 C289 1.377 . S
C290 C291 1.379 . S
C291 H275 0.931 . S
C291 C285 1.383 . S
C291 C290 1.379 . S
H292 C286 0.959 . S
H293 C286 0.961 . S
H294 C286 0.960 . S
H295 C287 0.930 . S
H296 C288 0.929 . S
H297 C305 0.929 . S
H298 C307 0.930 . S
H299 C309 0.930 1_565 S
H300 C312 0.929 1_565 S
H301 C315 0.930 . S
H302 C317 0.960 . S
H303 C317 0.960 . S
H304 C317 0.960 . S
C305 H297 0.929 . S
C305 C306 1.377 . S
C305 C307 1.384 . S
C306 C305 1.377 . S
C306 C312 1.390 . S
C307 H298 0.930 . S
C307 C305 1.384 . S
C307 C308 1.372 . S
C308 C307 1.372 . S
C308 C309 1.400 . S
C308 C313 1.490 . S
C309 H299 0.930 1_545 S
C309 C308 1.400 . S
C309 C312 1.386 . S
H310 C326 0.930 . S
H311 C327 0.914 1_565 S
C312 H300 0.929 1_545 S
C312 C306 1.390 . S
C312 C309 1.386 . S
C313 C308 1.490 . S
C313 C315 1.395 . S
C313 C316 1.403 . S
H314 C320 0.930 . S
C315 H301 0.930 . S
C315 C313 1.395 . S
C315 C318 1.403 . S
C316 C313 1.403 . S
C316 C317 1.524 . S
C316 C320 1.400 . S
C317 H302 0.960 . S
C317 H303 0.960 . S
C317 H304 0.960 . S
C317 C316 1.524 . S
C318 C315 1.403 . S
C318 C319 1.392 . S
C318 C322 1.495 . S
C319 C318 1.392 . S
C319 C320 1.385 . S
C319 C321 1.478 . S
C320 H314 0.930 . S
C320 C316 1.400 . S
C320 C319 1.385 . S
C321 C319 1.478 . S
C321 C323 1.381 . S
C321 C327 1.392 . S
C322 C318 1.495 . S
C322 H328 0.959 . S
C322 H329 0.961 . S
C322 H330 0.960 . S
C323 C321 1.381 . S
C323 C324 1.394 . S
C323 H331 0.930 . S
C324 C323 1.394 . S
C324 C325 1.383 . S
C324 H332 0.929 . S
C325 C324 1.383 . S
C325 C326 1.377 1_545 S
C326 H310 0.930 . S
C326 C325 1.377 1_565 S
C326 C327 1.387 1_565 S
C327 H311 0.914 1_545 S
C327 C321 1.392 . S
C327 C326 1.387 1_545 S
H328 C322 0.959 . S
H329 C322 0.961 . S
H330 C322 0.960 . S
H331 C323 0.930 . S
H332 C324 0.929 . S
H333 C341 0.929 . S
H334 C343 0.930 . S
H335 C345 0.930 . S
H336 C348 0.929 . S
H337 C351 0.930 1_554 S
H338 C353 0.960 . S
H339 C353 0.960 . S
H340 C353 0.960 . S
C341 H333 0.929 . S
C341 C342 1.377 . S
C341 C343 1.384 . S
C342 C341 1.377 . S
C342 C348 1.390 . S
C343 H334 0.930 . S
C343 C341 1.384 . S
C343 C344 1.372 . S
C344 C343 1.372 . S
C344 C345 1.400 . S
C344 C349 1.490 1_554 S
C345 H335 0.930 . S
C345 C344 1.400 . S
C345 C348 1.386 . S
H346 C362 0.930 . S
H347 C363 0.931 . S
C348 H336 0.929 . S
C348 C342 1.390 . S
C348 C345 1.386 . S
C349 C344 1.490 1_556 S
C349 C351 1.395 . S
C349 C352 1.403 . S
H350 C356 0.930 . S
C351 H337 0.930 1_556 S
C351 C349 1.395 . S
C351 C354 1.403 . S
C352 C349 1.403 . S
C352 C353 1.524 . S
C352 C356 1.400 . S
C353 H338 0.960 . S
C353 H339 0.960 . S
C353 H340 0.960 . S
C353 C352 1.524 . S
C354 C351 1.403 . S
C354 C355 1.392 . S
C354 C358 1.495 . S
C355 C354 1.392 . S
C355 C356 1.385 . S
C355 C357 1.478 . S
C356 H350 0.930 . S
C356 C352 1.400 . S
C356 C355 1.385 . S
C357 C355 1.478 . S
C357 C359 1.381 . S
C357 C363 1.383 . S
C358 C354 1.495 . S
C358 H364 0.969 . S
C358 H365 0.961 . S
C358 H366 0.960 . S
C359 C357 1.381 . S
C359 C360 1.394 . S
C359 H367 0.930 . S
C360 C359 1.394 . S
C360 C361 1.383 . S
C360 H368 0.929 . S
C361 C360 1.383 . S
C361 C362 1.377 . S
C362 H346 0.930 . S
C362 C361 1.377 . S
C362 C363 1.379 . S
C363 H347 0.931 . S
C363 C357 1.383 . S
C363 C362 1.379 . S
H364 C358 0.969 . S
H365 C358 0.961 . S
H366 C358 0.960 . S
H367 C359 0.930 . S
H368 C360 0.929 . S
H369 C377 0.929 1_545 S
H370 C379 0.930 . S
H371 C381 0.930 1_655 S
H372 C384 0.929 1_655 S
H373 C387 0.930 . S
H374 C389 0.960 . S
H375 C389 0.960 . S
H376 C389 0.960 . S
C377 H369 0.929 1_565 S
C377 C378 1.377 . S
C377 C379 1.384 . S
C378 C377 1.377 . S
C378 C384 1.390 . S
C379 H370 0.930 . S
C379 C377 1.384 . S
C379 C380 1.372 . S
C380 C379 1.372 . S
C380 C381 1.400 . S
C380 C385 1.490 . S
C381 H371 0.930 1_455 S
C381 C380 1.400 . S
C381 C384 1.386 . S
H382 C398 0.930 1_655 S
H383 C399 0.931 . S
C384 H372 0.929 1_455 S
C384 C378 1.390 . S
C384 C381 1.386 . S
C385 C380 1.490 . S
C385 C387 1.395 . S
C385 C388 1.403 1_455 S
H386 C392 0.930 . S
C387 H373 0.930 . S
C387 C385 1.395 . S
C387 C390 1.403 . S
C388 C385 1.403 1_655 S
C388 C389 1.524 . S
C388 C392 1.400 . S
C389 H374 0.960 . S
C389 H375 0.960 . S
C389 H376 0.960 . S
C389 C388 1.524 . S
C390 C387 1.403 . S
C390 C391 1.392 . S
C390 C394 1.495 . S
C391 C390 1.392 . S
C391 C392 1.385 1_455 S
C391 C393 1.478 . S
C392 H386 0.930 . S
C392 C388 1.400 . S
C392 C391 1.385 1_655 S
C393 C391 1.478 . S
C393 C395 1.381 . S
C393 C399 1.383 . S
C394 C390 1.495 . S
C394 H400 0.959 . S
C394 H401 0.961 . S
C394 H402 0.960 . S
C395 C393 1.381 . S
C395 C396 1.394 . S
C395 H403 0.930 . S
C396 C395 1.394 . S
C396 C397 1.383 . S
C396 H404 0.929 . S
C397 C396 1.383 . S
C397 C398 1.377 . S
C398 H382 0.930 1_455 S
C398 C397 1.377 . S
C398 C399 1.379 . S
C399 H383 0.931 . S
C399 C393 1.383 . S
C399 C398 1.379 . S
H400 C394 0.959 . S
H401 C394 0.961 . S
H402 C394 0.960 . S
H403 C395 0.930 . S
H404 C396 0.929 . S
H405 C413 0.929 . S
H406 C415 0.930 . S
H407 C417 0.930 . S
H408 C420 0.929 . S
H409 C423 0.930 . S
H410 C425 0.960 . S
H411 C425 0.984 . S
H412 C425 0.960 . S
C413 H405 0.929 . S
C413 C414 1.377 . S
C413 C415 1.384 . S
C414 C413 1.377 . S
C414 C420 1.390 1_545 S
C415 H406 0.930 . S
C415 C413 1.384 . S
C415 C416 1.372 . S
C416 C415 1.372 . S
C416 C417 1.400 1_545 S
C416 C421 1.490 . S
C417 H407 0.930 . S
C417 C416 1.400 1_565 S
C417 C420 1.386 . S
H418 C434 0.930 . S
H419 C435 0.931 . S
C420 H408 0.929 . S
C420 C414 1.390 1_565 S
C420 C417 1.386 . S
C421 C416 1.490 . S
C421 C423 1.395 . S
C421 C424 1.403 . S
H422 C428 0.930 1_565 S
C423 H409 0.930 . S
C423 C421 1.395 . S
C423 C426 1.403 . S
C424 C421 1.403 . S
C424 C425 1.524 1_545 S
C424 C428 1.400 . S
C425 H410 0.960 . S
C425 H411 0.984 . S
C425 H412 0.960 . S
C425 C424 1.524 1_565 S
C426 C423 1.403 . S
C426 C427 1.392 . S
C426 C430 1.495 . S
C427 C426 1.392 . S
C427 C428 1.385 . S
C427 C429 1.478 . S
C428 H422 0.930 1_545 S
C428 C424 1.400 . S
C428 C427 1.385 . S
C429 C427 1.478 . S
C429 C431 1.381 . S
C429 C435 1.383 1_545 S
C430 C426 1.495 . S
C430 H436 0.959 . S
C430 H437 0.961 . S
C430 H438 0.960 . S
C431 C429 1.381 . S
C431 C432 1.394 . S
C431 H439 0.930 . S
C432 C431 1.394 . S
C432 C433 1.383 . S
C432 H440 0.929 . S
C433 C432 1.383 . S
C433 C434 1.377 1_545 S
C434 H418 0.930 . S
C434 C433 1.377 1_565 S
C434 C435 1.379 . S
C435 H419 0.931 . S
C435 C429 1.383 1_565 S
C435 C434 1.379 . S
H436 C430 0.959 . S
H437 C430 0.961 . S
H438 C430 0.960 . S
H439 C431 0.930 . S
H440 C432 0.929 . S
H441 C449 0.929 . S
H442 C451 0.930 1_556 S
H443 C453 0.930 . S
H444 C456 0.929 . S
H445 C459 0.930 . S
H446 C461 0.960 . S
H447 C461 0.960 . S
H448 C461 0.960 . S
C449 H441 0.929 . S
C449 C450 1.377 . S
C449 C451 1.384 . S
C450 C449 1.377 . S
C450 C456 1.390 . S
C451 H442 0.930 1_554 S
C451 C449 1.384 . S
C451 C452 1.372 . S
C452 C451 1.372 . S
C452 C453 1.400 . S
C452 C457 1.490 1_554 S
C453 H443 0.930 . S
C453 C452 1.400 . S
C453 C456 1.386 . S
H454 C470 0.930 . S
H455 C471 0.931 . S
C456 H444 0.929 . S
C456 C450 1.390 . S
C456 C453 1.386 . S
C457 C452 1.490 1_556 S
C457 C459 1.395 . S
C457 C460 1.403 . S
H458 C464 0.930 . S
C459 H445 0.930 . S
C459 C457 1.395 . S
C459 C462 1.403 . S
C460 C457 1.403 . S
C460 C461 1.524 1_556 S
C460 C464 1.400 . S
C461 H446 0.960 . S
C461 H447 0.960 . S
C461 H448 0.960 . S
C461 C460 1.524 1_554 S
C462 C459 1.403 . S
C462 C463 1.392 . S
C462 C466 1.495 . S
C463 C462 1.392 . S
C463 C464 1.385 . S
C463 C465 1.478 . S
C464 H458 0.930 . S
C464 C460 1.400 . S
C464 C463 1.385 . S
C465 C463 1.478 . S
C465 C467 1.381 . S
C465 C471 1.383 . S
C466 C462 1.495 . S
C466 H472 0.959 . S
C466 H473 0.961 . S
C466 H474 0.960 . S
C467 C465 1.381 . S
C467 C468 1.394 . S
C467 H475 0.930 . S
C468 C467 1.394 . S
C468 C469 1.383 . S
C468 H476 0.929 . S
C469 C468 1.383 . S
C469 C470 1.377 . S
C470 H454 0.930 . S
C470 C469 1.377 . S
C470 C471 1.379 . S
C471 H455 0.931 . S
C471 C465 1.383 . S
C471 C470 1.379 . S
H472 C466 0.959 . S
H473 C466 0.961 . S
H474 C466 0.960 . S
H475 C467 0.930 . S
H476 C468 0.929 . S
H477 C485 0.929 . S
H478 C487 0.930 . S
H479 C489 0.930 1_655 S
H480 C492 0.916 1_655 S
H481 C495 0.930 . S
H482 C497 0.960 . S
H483 C497 0.960 . S
H484 C497 0.960 . S
C485 H477 0.929 . S
C485 C486 1.377 . S
C485 C487 1.384 . S
C486 C485 1.377 . S
C486 C492 1.390 . S
C487 H478 0.930 . S
C487 C485 1.384 . S
C487 C488 1.372 . S
C488 C487 1.372 . S
C488 C489 1.400 . S
C488 C493 1.490 . S
C489 H479 0.930 1_455 S
C489 C488 1.400 . S
C489 C492 1.386 . S
H490 C506 0.930 . S
H491 C507 0.931 . S
C492 H480 0.916 1_455 S
C492 C486 1.390 . S
C492 C489 1.386 . S
C493 C488 1.490 . S
C493 C495 1.395 . S
C493 C496 1.403 . S
H494 C500 0.930 . S
C495 H481 0.930 . S
C495 C493 1.395 . S
C495 C498 1.403 . S
C496 C493 1.403 . S
C496 C497 1.524 . S
C496 C500 1.400 . S
C497 H482 0.960 . S
C497 H483 0.960 . S
C497 H484 0.960 . S
C497 C496 1.524 . S
C498 C495 1.403 . S
C498 C499 1.392 . S
C498 C502 1.495 . S
C499 C498 1.392 . S
C499 C500 1.385 . S
C499 C501 1.478 . S
C500 H494 0.930 . S
C500 C496 1.400 . S
C500 C499 1.385 . S
C501 C499 1.478 . S
C501 C503 1.381 . S
C501 C507 1.383 1_455 S
C502 C498 1.495 . S
C502 H508 0.959 . S
C502 H509 0.961 . S
C502 H510 0.960 . S
C503 C501 1.381 . S
C503 C504 1.394 . S
C503 H511 0.930 . S
C504 C503 1.394 . S
C504 C505 1.383 . S
C504 H512 0.929 . S
C505 C504 1.383 . S
C505 C506 1.377 1_455 S
C506 H490 0.930 . S
C506 C505 1.377 1_655 S
C506 C507 1.379 . S
C507 H491 0.931 . S
C507 C501 1.383 1_655 S
C507 C506 1.379 . S
H508 C502 0.959 . S
H509 C502 0.961 . S
H510 C502 0.960 . S
H511 C503 0.930 . S
H512 C504 0.929 . S
C109 C40 1.371 . S
C90 C10 1.371 . S
C126 C21 1.398 . S
C145 C66 1.426 . S
C162 C31 1.342 . S
C181 C68 1.399 . S
C198 C0 1.325 . S
C217 C52 1.378 . S
C253 C54 1.393 . S
C234 C18 1.334 . S
C270 C34 1.354 . S
C289 C80 1.384 . S
C325 C53 1.366 . S
C306 C36 1.365 . S
C342 C8 1.342 1_565 S
C361 C79 1.376 . S
C397 C39 1.372 . S
C378 C23 1.377 . S
C433 C65 1.314 . S
C414 C26 1.267 . S
C469 C67 1.400 . S
C450 C5 1.344 . S
C486 C13 1.337 . S
C505 C51 1.382 . S
